
###############################################################################
#
# This file contains modified crystal structure data generated from the
# MOF subset of the Cambridge Structural Database (CSD) v543 
# hosted by the Cambridge Crystallographic Data Centre (CCDC).
#
# This work is licensed under the Creative Commons
# Attribution-NonCommercial-ShareAlike 4.0 International License.
# To view a copy of this license, visit
# http://creativecommons.org/licenses/by-nc-sa/4.0/
# or send a letter to
# Creative Commons, PO Box 1866, Mountain View, CA 94042, USA.
#
# CIF created using the CSD Python API on 29 September 2022
# The structure has been converted into the P1 space group
# The structure has a 3D framework
# The original CSD entry PITMOW is in the monoclinic crystal system
# The framework has been calculated to contain at least 10.0% void space
# The void calculation uses a probe of radius 1.32A, grid spacing 0.4
#
###############################################################################

data_PITMOW
_chemical_formula_moiety         '(C164 H84 F48 N8 O32 S4 Zn8)n'
_symmetry_cell_setting           triclinic
_symmetry_space_group_name_H-M   'P 1'
_symmetry_Int_Tables_number      1
_space_group_name_Hall           'P 1'
loop_
_symmetry_equiv_pos_site_id
_symmetry_equiv_pos_as_xyz
1 x,y,z
_cell_length_a                   21.330(3)
_cell_length_b                   8.1009(13)
_cell_length_c                   30.993(3)
_cell_angle_alpha                90
_cell_angle_beta                 122.460(7)
_cell_angle_gamma                90
_cell_volume                     4518.66
loop_
_atom_site_label
_atom_site_type_symbol
_atom_site_fract_x
_atom_site_fract_y
_atom_site_fract_z
F12 F 0.15970(15) 0.5336(3) 0.00274(8)
C25 C 0.04805(19) 0.5191(4) 0.92059(12)
C26 C 0.0047(2) 0.4034(5) 0.93543(15)
C27 C 0.1031(2) 0.6237(6) 0.96707(14)
C28 C 0.09649(17) 0.4206(4) 0.90622(11)
C29 C 0.11842(17) 0.4993(4) 0.87687(12)
H13 H 0.1023 0.6063 0.8655
C30 C 0.16382(17) 0.4210(4) 0.86434(12)
H14 H 0.1787 0.4760 0.8449
C31 C 0.18738(17) 0.2614(4) 0.88041(11)
C32 C 0.16490(19) 0.1815(4) 0.90940(12)
H15 H 0.1800 0.0736 0.9202
C33 C 0.1204(2) 0.2611(4) 0.92221(13)
H16 H 0.1060 0.2067 0.9420
C34 C 0.23530(17) 0.1761(4) 0.86588(12)
F9 F 0.04884(15) 0.3283(3) 0.98080(9)
F10 F 0.07261(15) 0.6960(3) 0.99025(8)
F11 F 0.13258(13) 0.7426(3) 0.95415(9)
O7 O 0.25639(13) 0.0321(3) 0.88165(9)
O8 O 0.24997(15) 0.2550(3) 0.83778(11)
Zn8 Zn 0.27124(2) 0.19996(4) 0.786298(14)
C3 C 0.47373(17) 0.8559(4) 0.63553(12)
H1 H 0.4954 0.7589 0.6336
C4 C 0.40445(18) 0.8518(4) 0.62884(12)
H2 H 0.3807 0.7509 0.6239
C5 C 0.36966(17) 0.9949(4) 0.62942(12)
C8 C 0.29030(18) 0.9800(4) 0.61865(13)
C9 C 0.2388(2) 0.9406(6) 0.56168(16)
C11 C 0.28929(17) 0.8454(4) 0.65377(12)
C12 C 0.23425(18) 0.7275(4) 0.63728(13)
H5 H 0.1953 0.7253 0.6032
C13 C 0.23673(18) 0.6125(4) 0.67125(13)
H6 H 0.1996 0.5330 0.6595
C14 C 0.29294(18) 0.6136(4) 0.72199(13)
C15 C 0.3478(2) 0.7326(4) 0.73893(14)
H7 H 0.3858 0.7365 0.7733
C16 C 0.3461(2) 0.8469(4) 0.70467(13)
H8 H 0.3837 0.9251 0.7163
C17 C 0.2974(2) 0.4891(4) 0.75949(15)
C18 C 0.81222(18) 0.8807(4) 0.74728(13)
C19 C 0.87518(17) 0.7929(4) 0.79212(12)
C20 C 0.89241(17) 0.6328(4) 0.78686(12)
H9 H 0.8656 0.5807 0.7552
C21 C 0.94868(18) 0.5509(4) 0.82799(12)
H10 H 0.9599 0.4435 0.8238
C22 C 0.98916(17) 0.6234(4) 0.87556(11)
C23 C 0.97143(19) 0.7847(4) 0.88051(13)
H11 H 0.9980 0.8363 0.9122
C24 C 0.91578(19) 0.8685(4) 0.83963(13)
H12 H 0.9050 0.9766 0.8436
C35 C 0.64536(17) 0.5515(4) 0.58423(12)
H17 H 0.6309 0.5127 0.6058
C36 C 0.6901(2) 0.7035(4) 0.55024(13)
H18 H 0.7125 0.7916 0.5444
C37 C 0.6652(2) 0.5668(4) 0.52219(14)
H19 H 0.6671 0.5423 0.4936
C38 C 0.60320(19) 0.3116(4) 0.52568(12)
C39 C 0.6208(2) 0.1998(4) 0.50192(14)
H20 H 0.6575 0.2150 0.4948
C40 C 0.5769(2) 0.0568(4) 0.48911(13)
C41 C 0.5266(2) 0.0623(4) 0.50300(12)
F2 F 0.24938(13) 0.7884(3) 0.55018(8)
F3 F 0.16642(12) 0.9518(4) 0.54365(9)
F7 F 0.95458(14) 0.4881(3) 0.93925(9)
F8 F 0.96895(14) 0.2857(3) 0.90087(9)
N1 N 0.67749(14) 0.6941(3) 0.58911(10)
N2 N 0.63623(15) 0.4688(3) 0.54343(9)
O1 O 0.60460(12) 0.9042(3) 0.63350(9)
O3 O 0.24922(13) 0.3735(3) 0.73886(10)
O4 O 0.34420(18) 0.5010(3) 0.80549(11)
O5 O 0.77778(13) 0.8026(3) 0.70698(9)
S1 S 0.53264(6) 0.24778(10) 0.53249(4)
Zn1 Zn 0.698323(19) 0.86962(4) 0.639995(13)
H26 H 0.4180 0.0333 0.5274
C1 C 0.41234(18) 0.0104(4) 0.84519(13)
C2 C 0.48918(18) 0.0040(4) 0.85497(12)
C6 C 0.5937(2) 0.1439(4) 0.86263(17)
H3 H 0.6169 0.2421 0.8635
C7 C 0.5226(2) 0.1468(4) 0.85346(17)
H4 H 0.4972 0.2465 0.8462
C10 C 0.7371(2) 0.1388(6) 0.8704(2)
F1 F 0.74858(14) 0.0421(4) 0.96729(9)
F4 F 0.74879(16) 0.2614(3) 0.90296(12)
F5 F 0.68814(16) 0.1967(3) 0.82334(12)
F6 F 0.80083(14) 0.1174(3) 0.87283(12)
O2 O 0.37058(13) 0.1216(3) 0.81576(11)
O6 O 0.20021(15) 0.0261(3) 0.74573(10)
Zn5 Zn 0.301677(19) 0.86962(4) 0.860005(13)
C1_2 C 0.58766(18) 0.0104(4) 0.65481(13)
C2_2 C 0.51082(18) 0.0040(4) 0.64503(12)
C6_2 C 0.4063(2) 0.1439(4) 0.63737(17)
H3_2 H 0.3831 0.2421 0.6365
C7_2 C 0.4774(2) 0.1468(4) 0.64654(17)
H4_2 H 0.5028 0.2465 0.6538
C10_2 C 0.2629(2) 0.1388(6) 0.6296(2)
F1_2 F 0.25142(14) 0.0421(4) 0.53271(9)
F4_2 F 0.25121(16) 0.2614(3) 0.59704(12)
F5_2 F 0.31186(16) 0.1967(3) 0.67666(12)
F6_2 F 0.19917(14) 0.1174(3) 0.62717(12)
O2_2 O 0.62942(13) 0.1216(3) 0.68424(11)
O6_2 O 0.79979(15) 0.0261(3) 0.75427(10)
Zn2 Zn 0.72876(2) 0.19996(4) 0.713702(14)
O17 O 0.75078(13) 0.3735(3) 0.76114(10)
O19 O 0.74361(13) 0.0321(3) 0.61835(9)
O21 O 0.75003(15) 0.2550(3) 0.66222(11)
C3_2 C 0.52627(17) 0.8559(4) 0.86447(12)
H1_2 H 0.5046 0.7589 0.8664
C4_2 C 0.59555(18) 0.8518(4) 0.87116(12)
H2_2 H 0.6193 0.7509 0.8761
C5_2 C 0.63034(17) 0.9949(4) 0.87058(12)
C8_2 C 0.70970(18) 0.9800(4) 0.88135(13)
C9_2 C 0.7612(2) 0.9406(6) 0.93832(16)
C11_2 C 0.71071(17) 0.8454(4) 0.84623(12)
C12_2 C 0.76575(18) 0.7275(4) 0.86272(13)
H5_2 H 0.8047 0.7253 0.8968
C13_2 C 0.76327(18) 0.6125(4) 0.82875(13)
H6_2 H 0.8004 0.5330 0.8405
C14_2 C 0.70706(18) 0.6136(4) 0.77801(13)
C15_2 C 0.6522(2) 0.7326(4) 0.76107(14)
H7_2 H 0.6142 0.7365 0.7267
C16_2 C 0.6539(2) 0.8469(4) 0.79533(13)
H8_2 H 0.6163 0.9251 0.7837
C17_2 C 0.7026(2) 0.4891(4) 0.74051(15)
C18_2 C 0.18778(18) 0.8807(4) 0.75272(13)
C19_2 C 0.12482(17) 0.7929(4) 0.70788(12)
C20_2 C 0.10759(17) 0.6328(4) 0.71314(12)
H9_2 H 0.1344 0.5807 0.7448
C21_2 C 0.05132(18) 0.5509(4) 0.67201(12)
H10_2 H 0.0401 0.4435 0.6762
C22_2 C 0.01084(17) 0.6234(4) 0.62444(11)
C23_2 C 0.02857(19) 0.7847(4) 0.61949(13)
H11_2 H 0.0020 0.8363 0.5878
C24_2 C 0.08422(19) 0.8685(4) 0.66037(13)
H12_2 H 0.0950 0.9766 0.6564
C35_2 C 0.35464(17) 0.5515(4) 0.91577(12)
H17_2 H 0.3691 0.5127 0.8942
C36_2 C 0.3099(2) 0.7035(4) 0.94976(13)
H18_2 H 0.2875 0.7916 0.9556
C37_2 C 0.3348(2) 0.5668(4) 0.97781(14)
C38_2 C 0.39680(19) 0.3116(4) 0.97432(12)
C39_2 C 0.3792(2) 0.1998(4) 0.99808(14)
C41_2 C 0.4734(2) 0.0623(4) 0.99700(12)
F2_2 F 0.75062(13) 0.7884(3) 0.94982(8)
F3_2 F 0.83358(12) 0.9518(4) 0.95635(9)
F7_2 F 0.04542(14) 0.4881(3) 0.56075(9)
F8_2 F 0.03105(14) 0.2857(3) 0.59913(9)
N1_2 N 0.32251(14) 0.6941(3) 0.91089(10)
N2_2 N 0.36377(15) 0.4688(3) 0.95657(9)
O1_2 O 0.39540(12) 0.9042(3) 0.86650(9)
O4_2 O 0.65580(18) 0.5010(3) 0.69451(11)
O5_2 O 0.22222(13) 0.8026(3) 0.79302(9)
S1_2 S 0.46736(6) 0.24778(10) 0.96751(4)
H26_2 H 0.5820 0.0333 0.9726
C25_2 C 0.95195(19) 0.5191(4) 0.57941(12)
C26_2 C 0.9953(2) 0.4034(5) 0.56457(15)
C27_2 C 0.8969(2) 0.6237(6) 0.53293(14)
C28_2 C 0.90351(17) 0.4206(4) 0.59378(11)
C29_2 C 0.88158(17) 0.4993(4) 0.62313(12)
H13_2 H 0.8977 0.6063 0.6345
C30_2 C 0.83618(17) 0.4210(4) 0.63566(12)
H14_2 H 0.8213 0.4760 0.6551
C31_2 C 0.81262(17) 0.2614(4) 0.61959(11)
C32_2 C 0.83510(19) 0.1815(4) 0.59060(12)
H15_2 H 0.8200 0.0736 0.5798
C33_2 C 0.8796(2) 0.2611(4) 0.57779(13)
H16_2 H 0.8940 0.2067 0.5580
C34_2 C 0.76470(17) 0.1761(4) 0.63412(12)
F9_2 F 0.95116(15) 0.3283(3) 0.51920(9)
F10_2 F 0.92739(15) 0.6960(3) 0.50975(8)
F11_2 F 0.86742(13) 0.7426(3) 0.54585(9)
F12_2 F 0.84030(15) 0.5336(3) 0.49726(8)
H21 H 0.5820 0.9667 0.4726
C42 C 0.35464(17) 0.4485(4) 0.41577(12)
H22 H 0.3691 0.4873 0.3942
C43 C 0.3099(2) 0.2965(4) 0.44976(13)
H23 H 0.2875 0.2084 0.4556
C44 C 0.3348(2) 0.4332(4) 0.47781(14)
H24 H 0.3329 0.4577 0.5064
C45 C 0.39680(19) 0.6884(4) 0.47432(12)
C46 C 0.3792(2) 0.8002(4) 0.49808(14)
H25 H 0.3425 0.7850 0.5052
C47 C 0.4231(2) 0.9432(4) 0.51089(13)
C48 C 0.4734(2) 0.9377(4) 0.49700(12)
N3 N 0.32251(14) 0.3059(3) 0.41089(10)
N4 N 0.36377(15) 0.5312(3) 0.45657(9)
S2 S 0.46736(6) 0.75222(10) 0.46751(4)
C51 C 0.52627(17) 0.1441(4) 0.36447(12)
H27 H 0.5046 0.2411 0.3664
C52 C 0.59555(18) 0.1482(4) 0.37116(12)
H28 H 0.6193 0.2491 0.3761
C53 C 0.63034(17) 0.0051(4) 0.37058(12)
C56 C 0.70970(18) 0.0200(4) 0.38135(13)
C57 C 0.7612(2) 0.0594(6) 0.43832(16)
C59 C 0.71071(17) 0.1546(4) 0.34623(12)
C60 C 0.76575(18) 0.2725(4) 0.36272(13)
H31 H 0.8047 0.2747 0.3968
C61 C 0.76327(18) 0.3875(4) 0.32875(13)
H32 H 0.8004 0.4670 0.3405
C62 C 0.70706(18) 0.3864(4) 0.27801(13)
C63 C 0.6522(2) 0.2674(4) 0.26107(14)
H33 H 0.6142 0.2635 0.2267
C64 C 0.6539(2) 0.1531(4) 0.29533(13)
H34 H 0.6163 0.0749 0.2837
C65 C 0.7026(2) 0.5109(4) 0.24051(15)
C66 C 0.18778(18) 0.1193(4) 0.25272(13)
C67 C 0.12482(17) 0.2071(4) 0.20788(12)
C68 C 0.10759(17) 0.3672(4) 0.21314(12)
H35 H 0.1344 0.4193 0.2448
C69 C 0.05132(18) 0.4491(4) 0.17201(12)
H36 H 0.0401 0.5565 0.1762
C70 C 0.01084(17) 0.3766(4) 0.12444(11)
C71 C 0.02857(19) 0.2153(4) 0.11949(13)
H37 H 0.0020 0.1637 0.0878
C72 C 0.08422(19) 0.1315(4) 0.16037(13)
H38 H 0.0950 0.0234 0.1564
F14 F 0.75062(13) 0.2116(3) 0.44982(8)
F15 F 0.83358(12) 0.0482(4) 0.45635(9)
F19 F 0.04542(14) 0.5119(3) 0.06075(9)
F20 F 0.03105(14) 0.7143(3) 0.09913(9)
O9 O 0.39540(12) 0.0958(3) 0.36650(9)
O11 O 0.75078(13) 0.6265(3) 0.26114(10)
O12 O 0.65580(18) 0.4990(3) 0.19451(11)
O13 O 0.22222(13) 0.1974(3) 0.29302(9)
Zn3 Zn 0.301677(19) 0.13038(4) 0.360005(13)
Zn10 Zn 0.72876(2) 0.80004(4) 0.213702(14)
C73 C 0.95195(19) 0.4809(4) 0.07941(12)
C74 C 0.9953(2) 0.5966(5) 0.06457(15)
C75 C 0.8969(2) 0.3763(6) 0.03293(14)
C76 C 0.90351(17) 0.5794(4) 0.09378(11)
C77 C 0.88158(17) 0.5007(4) 0.12313(12)
H39 H 0.8977 0.3937 0.1345
C78 C 0.83618(17) 0.5790(4) 0.13566(12)
H40 H 0.8213 0.5240 0.1551
C79 C 0.81262(17) 0.7386(4) 0.11959(11)
C80 C 0.83510(19) 0.8185(4) 0.09060(12)
H41 H 0.8200 0.9264 0.0798
C81 C 0.8796(2) 0.7389(4) 0.07779(13)
H42 H 0.8940 0.7933 0.0580
C82 C 0.76470(17) 0.8239(4) 0.13412(12)
F21 F 0.95116(15) 0.6717(3) 0.01920(9)
F22 F 0.92739(15) 0.3040(3) 0.00975(8)
F23 F 0.86742(13) 0.2574(3) 0.04585(9)
O15 O 0.74361(13) 0.9679(3) 0.11835(9)
O16 O 0.75003(15) 0.7450(3) 0.16222(11)
C49 C 0.58766(18) 0.9896(4) 0.15481(13)
C50 C 0.51082(18) 0.9960(4) 0.14503(12)
C54 C 0.4063(2) 0.8561(4) 0.13737(17)
H29 H 0.3831 0.7579 0.1365
C55 C 0.4774(2) 0.8532(4) 0.14654(17)
H30 H 0.5028 0.7535 0.1538
C58 C 0.2629(2) 0.8612(6) 0.1296(2)
F13 F 0.25142(14) 0.9579(4) 0.03271(9)
F16 F 0.25121(16) 0.7386(3) 0.09704(12)
F17 F 0.31186(16) 0.8033(3) 0.17666(12)
F18 F 0.19917(14) 0.8826(3) 0.12717(12)
O10 O 0.62942(13) 0.8784(3) 0.18424(11)
O14 O 0.79979(15) 0.9739(3) 0.25427(10)
C49_2 C 0.41234(18) 0.9896(4) 0.34519(13)
C50_2 C 0.48918(18) 0.9960(4) 0.35497(12)
C54_2 C 0.5937(2) 0.8561(4) 0.36263(17)
H29_2 H 0.6169 0.7579 0.3635
C55_2 C 0.5226(2) 0.8532(4) 0.35346(17)
H30_2 H 0.4972 0.7535 0.3462
C58_2 C 0.7371(2) 0.8612(6) 0.3704(2)
F13_2 F 0.74858(14) 0.9579(4) 0.46729(9)
F16_2 F 0.74879(16) 0.7386(3) 0.40296(12)
F17_2 F 0.68814(16) 0.8033(3) 0.32334(12)
F18_2 F 0.80083(14) 0.8826(3) 0.37283(12)
O10_2 O 0.37058(13) 0.8784(3) 0.31576(11)
O14_2 O 0.20021(15) 0.9739(3) 0.24573(10)
Zn4 Zn 0.27124(2) 0.80004(4) 0.286298(14)
O18 O 0.24922(13) 0.6265(3) 0.23886(10)
O20 O 0.25639(13) 0.9679(3) 0.38165(9)
O22 O 0.24997(15) 0.7450(3) 0.33778(11)
Zn6 Zn 0.698323(19) 0.13038(4) 0.139995(13)
C73_2 C 0.04805(19) 0.4809(4) 0.42059(12)
C74_2 C 0.0047(2) 0.5966(5) 0.43543(15)
C75_2 C 0.1031(2) 0.3763(6) 0.46707(14)
C76_2 C 0.09649(17) 0.5794(4) 0.40622(11)
C77_2 C 0.11842(17) 0.5007(4) 0.37687(12)
H39_2 H 0.1023 0.3937 0.3655
C78_2 C 0.16382(17) 0.5790(4) 0.36434(12)
H40_2 H 0.1787 0.5240 0.3449
C79_2 C 0.18738(17) 0.7386(4) 0.38041(11)
C80_2 C 0.16490(19) 0.8185(4) 0.40940(12)
H41_2 H 0.1800 0.9264 0.4202
C81_2 C 0.1204(2) 0.7389(4) 0.42221(13)
H42_2 H 0.1060 0.7933 0.4420
C82_2 C 0.23530(17) 0.8239(4) 0.36588(12)
F21_2 F 0.04884(15) 0.6717(3) 0.48080(9)
F22_2 F 0.07261(15) 0.3040(3) 0.49025(8)
F23_2 F 0.13258(13) 0.2574(3) 0.45415(9)
F24 F 0.15970(15) 0.4664(3) 0.50274(8)
H21_2 H 0.4180 0.9667 0.0274
C42_2 C 0.64536(17) 0.4485(4) 0.08423(12)
H22_2 H 0.6309 0.4873 0.1058
C43_2 C 0.6901(2) 0.2965(4) 0.05024(13)
H23_2 H 0.7125 0.2084 0.0444
C44_2 C 0.6652(2) 0.4332(4) 0.02219(14)
C45_2 C 0.60320(19) 0.6884(4) 0.02568(12)
C46_2 C 0.6208(2) 0.8002(4) 0.00192(14)
C48_2 C 0.5266(2) 0.9377(4) 0.00300(12)
N3_2 N 0.67749(14) 0.3059(3) 0.08911(10)
N4_2 N 0.63623(15) 0.5312(3) 0.04343(9)
S2_2 S 0.53264(6) 0.75222(10) 0.03249(4)
C51_2 C 0.47373(17) 0.1441(4) 0.13553(12)
H27_2 H 0.4954 0.2411 0.1336
C52_2 C 0.40445(18) 0.1482(4) 0.12884(12)
H28_2 H 0.3807 0.2491 0.1239
C53_2 C 0.36966(17) 0.0051(4) 0.12942(12)
C56_2 C 0.29030(18) 0.0200(4) 0.11865(13)
C57_2 C 0.2388(2) 0.0594(6) 0.06168(16)
C59_2 C 0.28929(17) 0.1546(4) 0.15377(12)
C60_2 C 0.23425(18) 0.2725(4) 0.13728(13)
H31_2 H 0.1953 0.2747 0.1032
C61_2 C 0.23673(18) 0.3875(4) 0.17125(13)
H32_2 H 0.1996 0.4670 0.1595
C62_2 C 0.29294(18) 0.3864(4) 0.22199(13)
C63_2 C 0.3478(2) 0.2674(4) 0.23893(14)
H33_2 H 0.3858 0.2635 0.2733
C64_2 C 0.3461(2) 0.1531(4) 0.20467(13)
H34_2 H 0.3837 0.0749 0.2163
C65_2 C 0.2974(2) 0.5109(4) 0.25949(15)
C66_2 C 0.81222(18) 0.1193(4) 0.24728(13)
C67_2 C 0.87518(17) 0.2071(4) 0.29212(12)
C68_2 C 0.89241(17) 0.3672(4) 0.28686(12)
H35_2 H 0.8656 0.4193 0.2552
C69_2 C 0.94868(18) 0.4491(4) 0.32799(12)
H36_2 H 0.9599 0.5565 0.3238
C70_2 C 0.98916(17) 0.3766(4) 0.37556(11)
C71_2 C 0.97143(19) 0.2153(4) 0.38051(13)
H37_2 H 0.9980 0.1637 0.4122
C72_2 C 0.91578(19) 0.1315(4) 0.33963(13)
H38_2 H 0.9050 0.0234 0.3436
F14_2 F 0.24938(13) 0.2116(3) 0.05018(8)
F15_2 F 0.16642(12) 0.0482(4) 0.04365(9)
F19_2 F 0.95458(14) 0.5119(3) 0.43925(9)
F20_2 F 0.96895(14) 0.7143(3) 0.40087(9)
O9_2 O 0.60460(12) 0.0958(3) 0.13350(9)
O12_2 O 0.34420(18) 0.4990(3) 0.30549(11)
O13_2 O 0.77778(13) 0.1974(3) 0.20698(9)
F24_2 F 0.84030(15) 0.4664(3) 0.99726(8)
H19_2 H 0.3329 0.5423 0.0064
H20_2 H 0.3425 0.2150 0.0052
C40_2 C 0.4231(2) 0.0568(4) 0.01089(13)
H24_2 H 0.6671 0.4577 0.9936
H25_2 H 0.6575 0.7850 0.9948
C47_2 C 0.5769(2) 0.9432(4) 0.98911(13)
loop_
_geom_bond_atom_site_label_1
_geom_bond_atom_site_label_2
_geom_bond_site_symmetry_1
_geom_bond_site_symmetry_2
C26 C25 1_555 1_555
C27 C25 1_555 1_555
C28 C25 1_555 1_555
C29 C28 1_555 1_555
H13 C29 1_555 1_555
C30 C29 1_555 1_555
H14 C30 1_555 1_555
C31 C30 1_555 1_555
C32 C31 1_555 1_555
H15 C32 1_555 1_555
C33 C28 1_555 1_555
H16 C33 1_555 1_555
C34 C31 1_555 1_555
F9 C26 1_555 1_555
F10 C27 1_555 1_555
F11 C27 1_555 1_555
O7 C34 1_555 1_555
O8 C34 1_555 1_555
Zn8 O8 1_555 1_555
C32 C33 1_555 1_555
C3 H1 1_555 1_555
C4 C3 1_555 1_555
H2 C4 1_555 1_555
C5 C4 1_555 1_555
C8 C5 1_555 1_555
C9 C8 1_555 1_555
C11 C8 1_555 1_555
C12 C11 1_555 1_555
H5 C12 1_555 1_555
C13 C12 1_555 1_555
H6 C13 1_555 1_555
C14 C13 1_555 1_555
C15 C14 1_555 1_555
H7 C15 1_555 1_555
C16 C11 1_555 1_555
H8 C16 1_555 1_555
C17 C14 1_555 1_555
C18 C19 1_555 1_555
C19 C20 1_555 1_555
C20 H9 1_555 1_555
C21 C20 1_555 1_555
H10 C21 1_555 1_555
C22 C21 1_555 1_555
C23 C22 1_555 1_555
H11 C23 1_555 1_555
C24 C19 1_555 1_555
H12 C24 1_555 1_555
C35 H17 1_555 1_555
C36 H18 1_555 1_555
C37 C36 1_555 1_555
H19 C37 1_555 1_555
C38 C39 1_555 1_555
C39 H20 1_555 1_555
C40 C39 1_555 1_555
C41 C40 1_555 1_555
F2 C9 1_555 1_555
F3 C9 1_555 1_555
N1 C35 1_555 1_555
N2 C35 1_555 1_555
O3 C17 1_555 1_555
O4 C17 1_555 1_555
O5 C18 1_555 1_555
S1 C38 1_555 1_555
Zn1 N1 1_555 1_555
Zn8 O3 1_555 1_555
C15 C16 1_555 1_555
C23 C24 1_555 1_555
C36 N1 1_555 1_555
C37 N2 1_555 1_555
C38 N2 1_555 1_555
C41 S1 1_555 1_555
O1 Zn1 1_555 1_555
O5 Zn1 1_555 1_555
C1 C2 1_555 1_555
H3 C6 1_555 1_555
C7 C2 1_555 1_555
H4 C7 1_555 1_555
F4 C10 1_555 1_555
F5 C10 1_555 1_555
F6 C10 1_555 1_555
O2 C1 1_555 1_555
Zn8 O2 1_555 1_555
C6 C7 1_555 1_555
O6 Zn8 1_555 1_555
C1_2 C2_2 1_555 1_555
H3_2 C6_2 1_555 1_555
C7_2 C2_2 1_555 1_555
H4_2 C7_2 1_555 1_555
F4_2 C10_2 1_555 1_555
F5_2 C10_2 1_555 1_555
F6_2 C10_2 1_555 1_555
O2_2 C1_2 1_555 1_555
Zn2 O2_2 1_555 1_555
O17 Zn2 1_555 1_555
O21 Zn2 1_555 1_555
C6_2 C7_2 1_555 1_555
O6_2 Zn2 1_555 1_555
C3_2 H1_2 1_555 1_555
C4_2 C3_2 1_555 1_555
H2_2 C4_2 1_555 1_555
C5_2 C4_2 1_555 1_555
C8_2 C5_2 1_555 1_555
C9_2 C8_2 1_555 1_555
C11_2 C8_2 1_555 1_555
C12_2 C11_2 1_555 1_555
H5_2 C12_2 1_555 1_555
C13_2 C12_2 1_555 1_555
H6_2 C13_2 1_555 1_555
C14_2 C13_2 1_555 1_555
C15_2 C14_2 1_555 1_555
H7_2 C15_2 1_555 1_555
C16_2 C11_2 1_555 1_555
H8_2 C16_2 1_555 1_555
C17_2 C14_2 1_555 1_555
C18_2 C19_2 1_555 1_555
C19_2 C20_2 1_555 1_555
C20_2 H9_2 1_555 1_555
C21_2 C20_2 1_555 1_555
H10_2 C21_2 1_555 1_555
C22_2 C21_2 1_555 1_555
C23_2 C22_2 1_555 1_555
H11_2 C23_2 1_555 1_555
C24_2 C19_2 1_555 1_555
H12_2 C24_2 1_555 1_555
C35_2 H17_2 1_555 1_555
C36_2 H18_2 1_555 1_555
C37_2 C36_2 1_555 1_555
C38_2 C39_2 1_555 1_555
F2_2 C9_2 1_555 1_555
F3_2 C9_2 1_555 1_555
N1_2 C35_2 1_555 1_555
N2_2 C35_2 1_555 1_555
O17 C17_2 1_555 1_555
O4_2 C17_2 1_555 1_555
O5_2 C18_2 1_555 1_555
S1_2 C38_2 1_555 1_555
Zn5 N1_2 1_555 1_555
C15_2 C16_2 1_555 1_555
C23_2 C24_2 1_555 1_555
C36_2 N1_2 1_555 1_555
C37_2 N2_2 1_555 1_555
C38_2 N2_2 1_555 1_555
C41_2 S1_2 1_555 1_555
O1_2 Zn5 1_555 1_555
O5_2 Zn5 1_555 1_555
C26_2 C25_2 1_555 1_555
C27_2 C25_2 1_555 1_555
C28_2 C25_2 1_555 1_555
C29_2 C28_2 1_555 1_555
H13_2 C29_2 1_555 1_555
C30_2 C29_2 1_555 1_555
H14_2 C30_2 1_555 1_555
C31_2 C30_2 1_555 1_555
C32_2 C31_2 1_555 1_555
H15_2 C32_2 1_555 1_555
C33_2 C28_2 1_555 1_555
H16_2 C33_2 1_555 1_555
C34_2 C31_2 1_555 1_555
F9_2 C26_2 1_555 1_555
F10_2 C27_2 1_555 1_555
F11_2 C27_2 1_555 1_555
F12_2 C27_2 1_555 1_555
O19 C34_2 1_555 1_555
O21 C34_2 1_555 1_555
C32_2 C33_2 1_555 1_555
C42 H22 1_555 1_555
C43 H23 1_555 1_555
C44 C43 1_555 1_555
H24 C44 1_555 1_555
C45 C46 1_555 1_555
C46 H25 1_555 1_555
C47 C46 1_555 1_555
N3 C42 1_555 1_555
N4 C42 1_555 1_555
S2 C45 1_555 1_555
C51 H27 1_555 1_555
C52 C51 1_555 1_555
H28 C52 1_555 1_555
C53 C52 1_555 1_555
C56 C53 1_555 1_555
C57 C56 1_555 1_555
C59 C56 1_555 1_555
C60 C59 1_555 1_555
H31 C60 1_555 1_555
C61 C60 1_555 1_555
H32 C61 1_555 1_555
C62 C61 1_555 1_555
C63 C62 1_555 1_555
H33 C63 1_555 1_555
C64 C59 1_555 1_555
H34 C64 1_555 1_555
C65 C62 1_555 1_555
C66 C67 1_555 1_555
C67 C68 1_555 1_555
C68 H35 1_555 1_555
C69 C68 1_555 1_555
H36 C69 1_555 1_555
C70 C69 1_555 1_555
C71 C70 1_555 1_555
H37 C71 1_555 1_555
C72 C67 1_555 1_555
H38 C72 1_555 1_555
F14 C57 1_555 1_555
F15 C57 1_555 1_555
O11 C65 1_555 1_555
O12 C65 1_555 1_555
O13 C66 1_555 1_555
Zn3 N3 1_555 1_555
Zn10 O11 1_555 1_555
C43 N3 1_555 1_555
C44 N4 1_555 1_555
C45 N4 1_555 1_555
C47 C48 1_555 1_555
C48 S2 1_555 1_555
C63 C64 1_555 1_555
C71 C72 1_555 1_555
O9 Zn3 1_555 1_555
O13 Zn3 1_555 1_555
C74 C73 1_555 1_555
C75 C73 1_555 1_555
C76 C73 1_555 1_555
C77 C76 1_555 1_555
H39 C77 1_555 1_555
C78 C77 1_555 1_555
H40 C78 1_555 1_555
C79 C78 1_555 1_555
C80 C79 1_555 1_555
H41 C80 1_555 1_555
C81 C76 1_555 1_555
H42 C81 1_555 1_555
C82 C79 1_555 1_555
F21 C74 1_555 1_555
F22 C75 1_555 1_555
F23 C75 1_555 1_555
O15 C82 1_555 1_555
O16 C82 1_555 1_555
Zn10 O16 1_555 1_555
C80 C81 1_555 1_555
C49 C50 1_555 1_555
H29 C54 1_555 1_555
C55 C50 1_555 1_555
H30 C55 1_555 1_555
F16 C58 1_555 1_555
F17 C58 1_555 1_555
F18 C58 1_555 1_555
O10 C49 1_555 1_555
Zn10 O10 1_555 1_555
C54 C55 1_555 1_555
O14 Zn10 1_555 1_555
C49_2 C50_2 1_555 1_555
H29_2 C54_2 1_555 1_555
C55_2 C50_2 1_555 1_555
H30_2 C55_2 1_555 1_555
F16_2 C58_2 1_555 1_555
F17_2 C58_2 1_555 1_555
F18_2 C58_2 1_555 1_555
O10_2 C49_2 1_555 1_555
Zn4 O10_2 1_555 1_555
O18 Zn4 1_555 1_555
O22 Zn4 1_555 1_555
C54_2 C55_2 1_555 1_555
O14_2 Zn4 1_555 1_555
C74_2 C73_2 1_555 1_555
C75_2 C73_2 1_555 1_555
C76_2 C73_2 1_555 1_555
C77_2 C76_2 1_555 1_555
H39_2 C77_2 1_555 1_555
C78_2 C77_2 1_555 1_555
H40_2 C78_2 1_555 1_555
C79_2 C78_2 1_555 1_555
C80_2 C79_2 1_555 1_555
H41_2 C80_2 1_555 1_555
C81_2 C76_2 1_555 1_555
H42_2 C81_2 1_555 1_555
C82_2 C79_2 1_555 1_555
F21_2 C74_2 1_555 1_555
F22_2 C75_2 1_555 1_555
F23_2 C75_2 1_555 1_555
F24 C75_2 1_555 1_555
O20 C82_2 1_555 1_555
O22 C82_2 1_555 1_555
C80_2 C81_2 1_555 1_555
C42_2 H22_2 1_555 1_555
C43_2 H23_2 1_555 1_555
C44_2 C43_2 1_555 1_555
C45_2 C46_2 1_555 1_555
N3_2 C42_2 1_555 1_555
N4_2 C42_2 1_555 1_555
S2_2 C45_2 1_555 1_555
C51_2 H27_2 1_555 1_555
C52_2 C51_2 1_555 1_555
H28_2 C52_2 1_555 1_555
C53_2 C52_2 1_555 1_555
C56_2 C53_2 1_555 1_555
C57_2 C56_2 1_555 1_555
C59_2 C56_2 1_555 1_555
C60_2 C59_2 1_555 1_555
H31_2 C60_2 1_555 1_555
C61_2 C60_2 1_555 1_555
H32_2 C61_2 1_555 1_555
C62_2 C61_2 1_555 1_555
C63_2 C62_2 1_555 1_555
H33_2 C63_2 1_555 1_555
C64_2 C59_2 1_555 1_555
H34_2 C64_2 1_555 1_555
C65_2 C62_2 1_555 1_555
C66_2 C67_2 1_555 1_555
C67_2 C68_2 1_555 1_555
C68_2 H35_2 1_555 1_555
C69_2 C68_2 1_555 1_555
H36_2 C69_2 1_555 1_555
C70_2 C69_2 1_555 1_555
C71_2 C70_2 1_555 1_555
H37_2 C71_2 1_555 1_555
C72_2 C67_2 1_555 1_555
H38_2 C72_2 1_555 1_555
F14_2 C57_2 1_555 1_555
F15_2 C57_2 1_555 1_555
O18 C65_2 1_555 1_555
O12_2 C65_2 1_555 1_555
O13_2 C66_2 1_555 1_555
Zn6 N3_2 1_555 1_555
C43_2 N3_2 1_555 1_555
C44_2 N4_2 1_555 1_555
C45_2 N4_2 1_555 1_555
C48_2 S2_2 1_555 1_555
C63_2 C64_2 1_555 1_555
C71_2 C72_2 1_555 1_555
O9_2 Zn6 1_555 1_555
O13_2 Zn6 1_555 1_555

#END
