
###############################################################################
#
# This file contains modified crystal structure data generated from the
# MOF subset of the Cambridge Structural Database (CSD) v543 
# hosted by the Cambridge Crystallographic Data Centre (CCDC).
#
# This work is licensed under the Creative Commons
# Attribution-NonCommercial-ShareAlike 4.0 International License.
# To view a copy of this license, visit
# http://creativecommons.org/licenses/by-nc-sa/4.0/
# or send a letter to
# Creative Commons, PO Box 1866, Mountain View, CA 94042, USA.
#
# CIF created using the CSD Python API on 29 September 2022
# The structure has been converted into the P1 space group
# The structure has a 3D framework
# The original CSD entry PITPEP is in the rhombohedral crystal system
# The framework has been calculated to contain at least 10.0% void space
# The void calculation uses a probe of radius 1.32A, grid spacing 0.4
#
###############################################################################

data_PITPEP
_chemical_formula_moiety         '(C216 H360 Al18 O178 P54)n'
_symmetry_cell_setting           triclinic
_symmetry_space_group_name_H-M   'P 1'
_symmetry_Int_Tables_number      1
_space_group_name_Hall           'P 1'
loop_
_symmetry_equiv_pos_site_id
_symmetry_equiv_pos_as_xyz
1 x,y,z
_cell_length_a                   35.285(3)
_cell_length_b                   35.285(3)
_cell_length_c                   12.398(3)
_cell_angle_alpha                90
_cell_angle_beta                 90
_cell_angle_gamma                120
_cell_volume                     13367.9
loop_
_atom_site_label
_atom_site_type_symbol
_atom_site_fract_x
_atom_site_fract_y
_atom_site_fract_z
Al1 Al 0.02308(4) 0.70867(4) 0.25457(9)
O1 O -0.00001(9) 0.71804(9) 0.1159(2)
O2 O 0.08201(9) 0.74419(9) 0.5432(2)
H3 H 0.0920 0.7618 0.4934
O3 O 0.04187(9) 0.69684(9) 0.3836(2)
O4 O 0.02033(9) 0.66922(9) 0.5748(2)
O5 O 0.21548(9) 0.85873(9) 0.2601(2)
O6 O 0.19705(9) 0.85023(9) 0.4579(2)
H4 H 0.1727 0.8360 0.4309
O7 O 0.27456(9) 0.89704(9) 0.4000(2)
O8 O 0.11867(10) 0.76177(9) 0.0475(2)
H5 H 0.1231 0.7767 0.1018
O10 O 0.06452(8) 0.70414(9) 0.1742(2)
P1 P 0.05678(4) 0.69682(4) 0.49686(8)
P2 P 0.23232(4) 0.85723(4) 0.37317(9)
P3 P 0.09341(4) 0.71243(4) 0.07884(9)
C1 C 0.13243(13) 0.70311(13) 0.4190(3)
C2 C 0.17032(13) 0.74282(14) 0.4421(3)
C3 C 0.19883(13) 0.76713(13) 0.3576(3)
C4 C 0.18845(14) 0.75189(14) 0.2505(3)
C5 C 0.15024(13) 0.71181(14) 0.2290(3)
C6 C 0.12402(13) 0.68620(13) 0.3140(3)
C7 C 0.09655(13) 0.67905(14) 0.5029(3)
H6 H 0.1095 0.6847 0.5743
H7 H 0.0822 0.6478 0.4897
C8 C 0.18116(15) 0.75854(15) 0.5579(3)
H8 H 0.1583 0.7382 0.6046
H9 H 0.1836 0.7868 0.5642
H10 H 0.2084 0.7606 0.5780
C9 C 0.23996(13) 0.81065(13) 0.3814(3)
H11 H 0.2626 0.8146 0.3307
H12 H 0.2502 0.8094 0.4532
C10 C 0.21845(15) 0.77766(15) 0.1582(4)
H13 H 0.2429 0.8040 0.1856
H14 H 0.2026 0.7850 0.1072
H15 H 0.2288 0.7603 0.1232
C11 C 0.13424(14) 0.69791(14) 0.1141(3)
H16 H 0.1218 0.6665 0.1072
H17 H 0.1588 0.7121 0.0647
C12 C 0.08679(14) 0.64012(14) 0.2953(4)
H18 H 0.0852 0.6331 0.2200
H19 H 0.0598 0.6381 0.3177
H20 H 0.0918 0.6199 0.3363
Al4 Al 0.31025(4) 0.95800(4) 0.41210(9)
O12 O 0.05877(9) 0.76963(9) 0.2667(2)
O9 O 0.07002(9) 0.68870(9) 0.9783(2)
Al3 Al 0.01892(6) 0.64359(4) 0.92124(9)
O1_2 O 0.99999(9) 0.71804(9) 0.1159(2)
H1 H 0.9725 0.7050 0.1259
H2 H 0.9948 0.6992 0.0669
Al2 Al 0.95800(4) 0.64774(6) 0.58790(9)
O11 O 0.98222(13) 0.64634(9) 0.2415(2)
O13 O 0.97797(9) 0.71465(13) 0.3116(2)
Al1_2 Al 0.29133(4) 0.31441(6) 0.25457(9)
O1_3 O 0.28196(9) 0.28195(13) 0.1159(2)
H1_2 H 0.2950 0.2675 0.1259
H2_2 H 0.3008 0.2956 0.0669
O2_2 O 0.25581(9) 0.33782(13) 0.5432(2)
H3_2 H 0.2382 0.3302 0.4934
O3_2 O 0.30316(9) 0.34503(13) 0.3836(2)
O4_2 O 0.33078(9) 0.35111(13) 0.5748(2)
O5_2 O 0.14127(9) 0.35675(13) 0.2601(2)
O6_2 O 0.14977(9) 0.34682(13) 0.4579(2)
H4_2 H 0.1640 0.3367 0.4309
O7_2 O 0.10296(9) 0.37752(13) 0.4000(2)
O8_2 O 0.23823(9) 0.35690(13) 0.0475(2)
H5_2 H 0.2233 0.3464 0.1018
O10_2 O 0.29586(9) 0.36038(12) 0.1742(2)
P1_2 P 0.30318(4) 0.35996(6) 0.49686(8)
P2_2 P 0.14277(4) 0.37509(6) 0.37317(9)
P3_2 P 0.28757(4) 0.38098(6) 0.07884(9)
C1_2 C 0.29689(13) 0.42932(18) 0.4190(3)
C2_2 C 0.25718(14) 0.42750(19) 0.4421(3)
C3_2 C 0.23287(13) 0.43170(18) 0.3576(3)
C4_2 C 0.24811(14) 0.43656(20) 0.2505(3)
C5_2 C 0.28819(14) 0.43843(19) 0.2290(3)
C6_2 C 0.31380(13) 0.43782(18) 0.3140(3)
C7_2 C 0.32095(14) 0.41750(19) 0.5029(3)
H6_2 H 0.3153 0.4248 0.5743
H7_2 H 0.3522 0.4344 0.4897
C8_2 C 0.24146(15) 0.42262(21) 0.5579(3)
H8_2 H 0.2618 0.4201 0.6046
H9_2 H 0.2132 0.3968 0.5642
H10_2 H 0.2394 0.4478 0.5780
C9_2 C 0.18935(13) 0.42931(18) 0.3814(3)
H11_2 H 0.1854 0.4480 0.3307
H12_2 H 0.1906 0.4408 0.4532
C10_2 C 0.22234(15) 0.44079(21) 0.1582(4)
H13_2 H 0.1960 0.4389 0.1856
H14_2 H 0.2150 0.4176 0.1072
H15_2 H 0.2397 0.4685 0.1232
C11_2 C 0.30209(14) 0.43633(20) 0.1141(3)
H16_2 H 0.3335 0.4553 0.1072
H17_2 H 0.2879 0.4467 0.0647
C12_2 C 0.35988(14) 0.44667(20) 0.2953(4)
H18_2 H 0.3669 0.4521 0.2200
H19_2 H 0.3619 0.4217 0.3177
H20_2 H 0.3801 0.4719 0.3363
Al2_2 Al 0.35226(6) 0.31025(7) 0.58790(9)
Al4_2 Al 0.04200(4) 0.35226(6) 0.41210(9)
O11_2 O 0.35366(9) 0.33589(16) 0.2415(2)
O12_2 O 0.23037(9) 0.28915(13) 0.2667(2)
O13_2 O 0.28535(13) 0.26331(16) 0.3116(2)
O9_2 O 0.31130(9) 0.38132(13) 0.9783(2)
Al3_2 Al 0.35641(4) 0.37534(7) 0.92124(9)
O1_4 O 0.71805(13) 0.00001(9) 0.1159(2)
H1_3 H 0.7325 0.0275 0.1259
H2_3 H 0.7044 0.0052 0.0669
Al2_3 Al 0.68975(7) 0.04200(4) 0.58790(9)
O11_3 O 0.66411(16) 0.01778(13) 0.2415(2)
O13_3 O 0.73669(16) 0.02203(9) 0.3116(2)
Al1_3 Al 0.68559(6) 0.97692(4) 0.25457(9)
O1_5 O 0.71805(13) 1.00001(9) 0.1159(2)
O2_3 O 0.66218(13) 0.91799(9) 0.5432(2)
H3_3 H 0.6698 0.9080 0.4934
O3_3 O 0.65497(13) 0.95813(9) 0.3836(2)
O4_3 O 0.64889(13) 0.97967(9) 0.5748(2)
O5_3 O 0.64325(13) 0.78452(9) 0.2601(2)
O6_3 O 0.65318(13) 0.80295(9) 0.4579(2)
H4_3 H 0.6633 0.8273 0.4309
O7_3 O 0.62248(13) 0.72544(9) 0.4000(2)
O8_3 O 0.64310(13) 0.88133(10) 0.0475(2)
H5_3 H 0.6536 0.8769 0.1018
O10_3 O 0.63962(12) 0.93548(8) 0.1742(2)
P1_3 P 0.64004(6) 0.94322(4) 0.49686(8)
P2_3 P 0.62491(6) 0.76768(4) 0.37317(9)
P3_3 P 0.61902(6) 0.90659(4) 0.07884(9)
C1_3 C 0.57068(18) 0.86757(13) 0.4190(3)
C2_3 C 0.57250(19) 0.82968(13) 0.4421(3)
C3_3 C 0.56830(18) 0.80117(13) 0.3576(3)
C4_3 C 0.56344(20) 0.81155(14) 0.2505(3)
C5_3 C 0.56157(19) 0.84976(13) 0.2290(3)
C6_3 C 0.56218(18) 0.87598(13) 0.3140(3)
C7_3 C 0.58250(19) 0.90345(13) 0.5029(3)
H6_3 H 0.5752 0.8905 0.5743
H7_3 H 0.5656 0.9178 0.4897
C8_3 C 0.57738(21) 0.81884(15) 0.5579(3)
H8_3 H 0.5799 0.8417 0.6046
H9_3 H 0.6032 0.8164 0.5642
H10_3 H 0.5522 0.7916 0.5780
C9_3 C 0.57069(18) 0.76004(13) 0.3814(3)
H11_3 H 0.5520 0.7374 0.3307
H12_3 H 0.5592 0.7498 0.4532
C10_3 C 0.55921(21) 0.78155(15) 0.1582(4)
H13_3 H 0.5611 0.7571 0.1856
H14_3 H 0.5824 0.7974 0.1072
H15_3 H 0.5315 0.7712 0.1232
C11_3 C 0.56367(20) 0.86576(14) 0.1141(3)
H16_3 H 0.5447 0.8782 0.1072
H17_3 H 0.5533 0.8412 0.0647
C12_3 C 0.55333(20) 0.91321(14) 0.2953(4)
H18_3 H 0.5479 0.9148 0.2200
H19_3 H 0.5783 0.9402 0.3177
H20_3 H 0.5281 0.9082 0.3363
Al4_3 Al 0.64774(6) 0.68975(4) 0.41210(9)
O12_3 O 0.71085(13) 0.94123(9) 0.2667(2)
O9_3 O 0.61868(13) 0.92998(9) 0.9783(2)
Al3_3 Al 0.62466(7) 0.98108(6) 0.92124(9)
O1_6 O 0.66666(9) 0.05137(9) 0.4492(2)
H1_4 H 0.6392 0.0383 0.4592
H2_4 H 0.6615 0.0325 0.4002
O2_4 O 0.74868(9) 0.07752(9) 0.8765(2)
H3_4 H 0.7587 0.0951 0.8267
O3_4 O 0.70854(9) 0.03017(9) 0.7169(2)
O4_4 O 0.68700(9) 0.00255(9) 0.9081(2)
O5_4 O 0.88215(9) 0.19206(9) 0.5934(2)
O6_4 O 0.86372(9) 0.18356(9) 0.7912(2)
H4_4 H 0.8394 0.1693 0.7642
O7_4 O 0.94123(9) 0.23037(9) 0.7333(2)
O8_4 O 0.78534(10) 0.09510(9) 0.3808(2)
H5_4 H 0.7898 0.1100 0.4351
O10_4 O 0.73119(8) 0.03747(9) 0.5075(2)
P1_4 P 0.72345(4) 0.03015(4) 0.83019(8)
P2_4 P 0.89899(4) 0.19056(4) 0.70650(9)
P3_4 P 0.76008(4) 0.04576(4) 0.41217(9)
C1_4 C 0.79910(13) 0.03644(13) 0.7523(3)
C2_4 C 0.83699(13) 0.07615(14) 0.7754(3)
C3_4 C 0.86550(13) 0.10046(13) 0.6909(3)
C4_4 C 0.85512(14) 0.08522(14) 0.5838(3)
C5_4 C 0.81691(13) 0.04514(14) 0.5623(3)
C6_4 C 0.79069(13) 0.01953(13) 0.6473(3)
C7_4 C 0.76322(13) 0.01238(14) 0.8362(3)
H6_4 H 0.7762 0.0180 0.9076
C8_4 C 0.84783(15) 0.09187(15) 0.8912(3)
H8_4 H 0.8250 0.0715 0.9379
H9_4 H 0.8503 0.1201 0.8975
H10_4 H 0.8751 0.0939 0.9113
C9_4 C 0.90663(13) 0.14398(13) 0.7147(3)
H11_4 H 0.9293 0.1479 0.6640
H12_4 H 0.9169 0.1427 0.7865
C10_4 C 0.88512(15) 0.11099(15) 0.4915(4)
H13_4 H 0.9096 0.1373 0.5189
H14_4 H 0.8693 0.1183 0.4405
H15_4 H 0.8955 0.0936 0.4565
C11_4 C 0.80091(14) 0.03124(14) 0.4474(3)
H17_4 H 0.8255 0.0454 0.3980
Al4_4 Al 0.97692(4) 0.29133(4) 0.74543(9)
O12_4 O 0.72544(9) 0.10296(9) 0.6000(2)
O13_4 O 0.64463(9) 0.04799(13) 0.6450(2)
H7_4 H 0.7489 0.9811 0.8230
H16_4 H 0.7885 0.9998 0.4405
C12_4 C 0.75346(14) 0.97345(14) 0.6286(4)
H18_4 H 0.7519 0.9664 0.5533
H19_4 H 0.7265 0.9714 0.6510
H20_4 H 0.7585 0.9532 0.6696
H7_5 H 0.0189 0.7677 0.8230
H16_5 H 0.0002 0.7886 0.4405
C12_5 C 0.02655(14) 0.78000(20) 0.6286(4)
H18_5 H 0.0336 0.7854 0.5533
H19_5 H 0.0286 0.7550 0.6510
H20_5 H 0.0468 0.8052 0.6696
O1_7 O 0.94863(9) 0.61528(13) 0.4492(2)
H1_5 H 0.9617 0.6008 0.4592
H2_5 H 0.9675 0.6289 0.4002
O2_5 O 0.92248(9) 0.67115(13) 0.8765(2)
H3_5 H 0.9049 0.6635 0.8267
O3_5 O 0.96983(9) 0.67836(13) 0.7169(2)
O4_5 O 0.99745(9) 0.68444(13) 0.9081(2)
O5_5 O 0.80794(9) 0.69008(13) 0.5934(2)
O6_5 O 0.81644(9) 0.68015(13) 0.7912(2)
H4_5 H 0.8307 0.6700 0.7642
O7_5 O 0.76963(9) 0.71085(13) 0.7333(2)
O8_5 O 0.90490(9) 0.69023(13) 0.3808(2)
H5_5 H 0.8900 0.6797 0.4351
O10_5 O 0.96253(9) 0.69371(12) 0.5075(2)
P1_5 P 0.96985(4) 0.69329(6) 0.83019(8)
P2_5 P 0.80944(4) 0.70842(6) 0.70650(9)
P3_5 P 0.95424(4) 0.71431(6) 0.41217(9)
C1_5 C 0.96356(13) 0.76265(18) 0.7523(3)
C2_5 C 0.92385(14) 0.76083(19) 0.7754(3)
C3_5 C 0.89954(13) 0.76503(18) 0.6909(3)
C4_5 C 0.91478(14) 0.76989(20) 0.5838(3)
C5_5 C 0.95486(14) 0.77176(19) 0.5623(3)
C6_5 C 0.98047(13) 0.77115(18) 0.6473(3)
C7_5 C 0.98762(14) 0.75083(19) 0.8362(3)
H6_5 H 0.9820 0.7581 0.9076
C8_5 C 0.90813(15) 0.75595(21) 0.8912(3)
H8_5 H 0.9285 0.7534 0.9379
H9_5 H 0.8799 0.7301 0.8975
H10_5 H 0.9061 0.7811 0.9113
C9_5 C 0.85602(13) 0.76264(18) 0.7147(3)
H11_5 H 0.8521 0.7813 0.6640
H12_5 H 0.8573 0.7741 0.7865
C10_5 C 0.88901(15) 0.77412(21) 0.4915(4)
H13_5 H 0.8627 0.7722 0.5189
H14_5 H 0.8817 0.7509 0.4405
H15_5 H 0.9064 0.8018 0.4565
C11_5 C 0.96876(14) 0.76966(20) 0.4474(3)
H17_5 H 0.9546 0.7800 0.3980
Al4_5 Al 0.70867(4) 0.68559(6) 0.74543(9)
O12_5 O 0.89704(9) 0.62248(13) 0.6000(2)
O13_5 O 0.95201(13) 0.59665(16) 0.6450(2)
O1_8 O 0.38472(13) 0.33334(9) 0.4492(2)
H1_6 H 0.3992 0.3608 0.4592
H2_6 H 0.3711 0.3385 0.4002
O2_6 O 0.32885(13) 0.25132(9) 0.8765(2)
H3_6 H 0.3365 0.2413 0.8267
O3_6 O 0.32164(13) 0.29146(9) 0.7169(2)
O4_6 O 0.31556(13) 0.31300(9) 0.9081(2)
O5_6 O 0.30992(13) 0.11785(9) 0.5934(2)
O6_6 O 0.31985(13) 0.13628(9) 0.7912(2)
H4_6 H 0.3300 0.1606 0.7642
O7_6 O 0.28915(13) 0.05877(9) 0.7333(2)
O8_6 O 0.30977(13) 0.21466(10) 0.3808(2)
H5_6 H 0.3203 0.2102 0.4351
O10_6 O 0.30629(12) 0.26881(8) 0.5075(2)
P1_6 P 0.30671(6) 0.27655(4) 0.83019(8)
P2_6 P 0.29158(6) 0.10101(4) 0.70650(9)
P3_6 P 0.28569(6) 0.23992(4) 0.41217(9)
C1_6 C 0.23735(18) 0.20090(13) 0.7523(3)
C2_6 C 0.23917(19) 0.16301(13) 0.7754(3)
C3_6 C 0.23497(18) 0.13450(13) 0.6909(3)
C4_6 C 0.23011(20) 0.14488(14) 0.5838(3)
C5_6 C 0.22824(19) 0.18309(13) 0.5623(3)
C6_6 C 0.22885(18) 0.20931(13) 0.6473(3)
C7_6 C 0.24917(19) 0.23678(13) 0.8362(3)
H6_6 H 0.2419 0.2238 0.9076
H7_6 H 0.2323 0.2511 0.8230
C8_6 C 0.24405(21) 0.15217(15) 0.8912(3)
H8_6 H 0.2466 0.1750 0.9379
H9_6 H 0.2699 0.1497 0.8975
H10_6 H 0.2189 0.1249 0.9113
C9_6 C 0.23736(18) 0.09337(13) 0.7147(3)
H11_6 H 0.2187 0.0707 0.6640
H12_6 H 0.2259 0.0831 0.7865
C10_6 C 0.22588(21) 0.11488(15) 0.4915(4)
H13_6 H 0.2278 0.0904 0.5189
H14_6 H 0.2491 0.1307 0.4405
H15_6 H 0.1982 0.1045 0.4565
C11_6 C 0.23034(20) 0.19909(14) 0.4474(3)
H16_6 H 0.2114 0.2115 0.4405
H17_6 H 0.2200 0.1745 0.3980
C12_6 C 0.22000(20) 0.24654(14) 0.6286(4)
H18_6 H 0.2146 0.2481 0.5533
H19_6 H 0.2450 0.2735 0.6510
H20_6 H 0.1948 0.2415 0.6696
Al4_6 Al 0.31441(6) 0.02308(4) 0.74543(9)
O12_6 O 0.37752(13) 0.27456(9) 0.6000(2)
O13_6 O 0.40335(16) 0.35537(9) 0.6450(2)
O2_7 O 0.41534(9) 0.41086(9) 0.2099(2)
H3_7 H 0.4253 0.4285 0.1601
O3_7 O 0.37520(9) 0.36351(9) 0.0503(2)
O6_7 O 0.53038(9) 0.51690(9) 0.1246(2)
H4_7 H 0.5060 0.5027 0.0976
O7_7 O 0.60789(9) 0.56371(9) 0.0667(2)
P1_7 P 0.39011(4) 0.36349(4) 0.16353(8)
P2_7 P 0.56565(4) 0.52390(4) 0.03984(9)
C1_7 C 0.46576(13) 0.36978(13) 0.0857(3)
C2_7 C 0.50365(13) 0.40949(14) 0.1088(3)
C3_7 C 0.53216(13) 0.43380(13) 0.0243(3)
C7_7 C 0.42988(13) 0.34572(14) 0.1696(3)
H6_7 H 0.4428 0.3514 0.2410
H7_7 H 0.4155 0.3145 0.1564
C8_7 C 0.51449(15) 0.42521(15) 0.2246(3)
H8_7 H 0.4916 0.4049 0.2713
H9_7 H 0.5169 0.4535 0.2309
H10_7 H 0.5417 0.4273 0.2447
C9_7 C 0.57329(13) 0.47732(13) 0.0481(3)
H12_7 H 0.5835 0.4761 0.1199
H20_7 H 0.4251 0.2866 0.0030
Al4_7 Al 0.64359(4) 0.62466(4) 0.07876(9)
O1_9 O 0.33332(9) 0.38471(9) 0.7826(2)
H1_7 H 0.3058 0.3717 0.7926
H2_7 H 0.3281 0.3659 0.7336
O5_7 O 0.54881(9) 0.52540(9) 0.9268(2)
O8_7 O 0.45200(10) 0.42844(9) 0.7142(2)
H5_7 H 0.4564 0.4434 0.7685
O10_7 O 0.39785(8) 0.37081(9) 0.8409(2)
P3_7 P 0.42674(4) 0.37910(4) 0.74551(9)
C4_7 C 0.52178(14) 0.41856(14) 0.9172(3)
C5_7 C 0.48357(13) 0.37848(14) 0.8957(3)
C6_7 C 0.45735(13) 0.35287(13) 0.9807(3)
H11_7 H 0.5959 0.4813 0.9974
C10_7 C 0.55178(15) 0.44433(15) 0.8249(4)
H13_7 H 0.5762 0.4707 0.8523
H14_7 H 0.5359 0.4517 0.7739
H15_7 H 0.5621 0.4270 0.7899
C11_7 C 0.46757(14) 0.36458(14) 0.7808(3)
H16_7 H 0.4551 0.3332 0.7739
H17_7 H 0.4921 0.3788 0.7314
C12_7 C 0.42012(14) 0.30679(14) 0.9620(4)
H18_7 H 0.4185 0.2998 0.8867
H19_7 H 0.3931 0.3048 0.9844
O12_7 O 0.39211(9) 0.43629(9) 0.9333(2)
O2_8 O 0.58914(9) 0.00449(13) 0.2099(2)
O3_8 O 0.63649(9) 0.01170(13) 0.0503(2)
O6_8 O 0.48310(9) 0.01349(13) 0.1246(2)
H4_8 H 0.4973 0.0034 0.0976
O7_8 O 0.43629(9) 0.04419(13) 0.0667(2)
P1_8 P 0.63651(4) 0.02663(6) 0.16353(8)
P2_8 P 0.47610(4) 0.04176(6) 0.03984(9)
C1_8 C 0.63022(13) 0.09599(18) 0.0857(3)
C2_8 C 0.59051(14) 0.09417(19) 0.1088(3)
C3_8 C 0.56620(13) 0.09837(18) 0.0243(3)
C7_8 C 0.65428(14) 0.08417(19) 0.1696(3)
H6_8 H 0.6486 0.0915 0.2410
H7_8 H 0.6855 0.1011 0.1564
C8_8 C 0.57479(15) 0.08929(21) 0.2246(3)
H8_8 H 0.5951 0.0868 0.2713
H9_8 H 0.5465 0.0635 0.2309
H10_8 H 0.5727 0.1145 0.2447
C9_8 C 0.52268(13) 0.09598(18) 0.0481(3)
H12_8 H 0.5239 0.1075 0.1199
H20_8 H 0.7134 0.1386 0.0030
Al4_8 Al 0.37534(4) 0.01892(6) 0.07876(9)
O5_8 O 0.47460(9) 0.02342(13) 0.9268(2)
O8_8 O 0.57156(9) 0.02357(13) 0.7142(2)
H5_8 H 0.5566 0.0131 0.7685
O10_8 O 0.62919(9) 0.02705(12) 0.8409(2)
P3_8 P 0.62090(4) 0.04765(6) 0.74551(9)
C4_8 C 0.58144(14) 0.10323(20) 0.9172(3)
C5_8 C 0.62152(14) 0.10510(19) 0.8957(3)
C6_8 C 0.64713(13) 0.10449(18) 0.9807(3)
H11_8 H 0.5187 0.1147 0.9974
C10_8 C 0.55567(15) 0.10746(21) 0.8249(4)
H13_8 H 0.5293 0.1056 0.8523
H14_8 H 0.5483 0.0843 0.7739
H15_8 H 0.5730 0.1352 0.7899
C11_8 C 0.63542(14) 0.10300(20) 0.7808(3)
H16_8 H 0.6668 0.1220 0.7739
H17_8 H 0.6212 0.1134 0.7314
C12_8 C 0.69321(14) 0.11334(20) 0.9620(4)
H18_8 H 0.7002 0.1188 0.8867
H19_8 H 0.6952 0.0884 0.9844
H3_8 H 0.5715 0.9969 0.1601
O1_10 O 0.61529(9) 0.94862(13) 0.7826(2)
H1_8 H 0.6283 0.9342 0.7926
H2_8 H 0.6341 0.9623 0.7336
O12_8 O 0.56371(9) 0.95581(13) 0.9333(2)
H3_9 H 0.0031 0.5747 0.1601
O1_11 O 0.05138(13) 0.66668(9) 0.7826(2)
H1_9 H 0.0658 0.6942 0.7926
H2_9 H 0.0377 0.6719 0.7336
O12_9 O 0.04419(13) 0.60789(9) 0.9333(2)
O2_9 O 0.99551(13) 0.58466(9) 0.2099(2)
O3_9 O 0.98830(13) 0.62480(9) 0.0503(2)
O6_9 O 0.98651(13) 0.46962(9) 0.1246(2)
H4_9 H 0.9966 0.4940 0.0976
O7_9 O 0.95581(13) 0.39211(9) 0.0667(2)
P1_9 P 0.97337(6) 0.60989(4) 0.16353(8)
P2_9 P 0.95824(6) 0.43435(4) 0.03984(9)
C1_9 C 0.90401(18) 0.53424(13) 0.0857(3)
C2_9 C 0.90583(19) 0.49635(13) 0.1088(3)
C3_9 C 0.90163(18) 0.46784(13) 0.0243(3)
C7_9 C 0.91583(19) 0.57012(13) 0.1696(3)
H6_9 H 0.9085 0.5572 0.2410
H7_9 H 0.8989 0.5845 0.1564
C8_9 C 0.91071(21) 0.48551(15) 0.2246(3)
H8_9 H 0.9132 0.5084 0.2713
H9_9 H 0.9365 0.4831 0.2309
H10_9 H 0.8855 0.4583 0.2447
C9_9 C 0.90402(18) 0.42671(13) 0.0481(3)
H12_9 H 0.8925 0.4165 0.1199
H20_9 H 0.8614 0.5749 0.0030
Al4_9 Al 0.98108(6) 0.35641(4) 0.07876(9)
O5_9 O 0.97658(13) 0.45119(9) 0.9268(2)
O8_9 O 0.97643(13) 0.54800(10) 0.7142(2)
H5_9 H 0.9869 0.5436 0.7685
O10_9 O 0.97295(12) 0.60215(8) 0.8409(2)
P3_9 P 0.95235(6) 0.57326(4) 0.74551(9)
C4_9 C 0.89677(20) 0.47822(14) 0.9172(3)
C5_9 C 0.89490(19) 0.51643(13) 0.8957(3)
C6_9 C 0.89551(18) 0.54265(13) 0.9807(3)
H11_9 H 0.8853 0.4041 0.9974
C10_9 C 0.89254(21) 0.44822(15) 0.8249(4)
H13_9 H 0.8944 0.4238 0.8523
H14_9 H 0.9157 0.4641 0.7739
H15_9 H 0.8648 0.4379 0.7899
C11_9 C 0.89700(20) 0.53243(14) 0.7808(3)
H16_9 H 0.8780 0.5449 0.7739
H17_9 H 0.8866 0.5079 0.7314
C12_9 C 0.88666(20) 0.57988(14) 0.9620(4)
H18_9 H 0.8812 0.5815 0.8867
H19_9 H 0.9116 0.6069 0.9844
O1_12 O 0.00001(9) 0.28196(9) 0.8841(2)
H1_10 H 0.0275 0.2950 0.8741
H2_10 H 0.0052 0.3008 0.9331
O11_4 O 0.01778(13) 0.35366(9) 0.7585(2)
O13_7 O 0.02203(9) 0.28535(13) 0.6884(2)
O9_4 O 0.92998(9) 0.31130(9) 0.0217(2)
O1_13 O 1.00001(9) 0.28196(9) 0.8841(2)
O2_10 O 0.91799(9) 0.25581(9) 0.4568(2)
H3_10 H 0.9080 0.2382 0.5066
O3_10 O 0.95813(9) 0.30316(9) 0.6164(2)
O4_7 O 0.97967(9) 0.33078(9) 0.4252(2)
O5_10 O 0.78452(9) 0.14127(9) 0.7399(2)
O6_10 O 0.80295(9) 0.14977(9) 0.5421(2)
H4_10 H 0.8273 0.1640 0.5691
O8_10 O 0.88133(10) 0.23823(9) 0.9525(2)
H5_10 H 0.8769 0.2233 0.8982
O10_10 O 0.93548(8) 0.29586(9) 0.8258(2)
P1_10 P 0.94322(4) 0.30318(4) 0.50314(8)
P2_10 P 0.76768(4) 0.14277(4) 0.62683(9)
P3_10 P 0.90659(4) 0.28757(4) 0.92116(9)
C1_10 C 0.86757(13) 0.29689(13) 0.5810(3)
C2_10 C 0.82968(13) 0.25718(14) 0.5579(3)
C3_10 C 0.80117(13) 0.23287(13) 0.6424(3)
C4_10 C 0.81155(14) 0.24811(14) 0.7495(3)
C5_10 C 0.84976(13) 0.28819(14) 0.7710(3)
C6_10 C 0.87598(13) 0.31380(13) 0.6860(3)
C7_10 C 0.90345(13) 0.32095(14) 0.4971(3)
H6_10 H 0.8905 0.3153 0.4257
H7_10 H 0.9178 0.3522 0.5103
C8_10 C 0.81884(15) 0.24146(15) 0.4421(3)
H8_10 H 0.8417 0.2618 0.3954
H9_10 H 0.8164 0.2132 0.4358
H10_10 H 0.7916 0.2394 0.4220
C9_10 C 0.76004(13) 0.18935(13) 0.6186(3)
H11_10 H 0.7374 0.1854 0.6693
H12_10 H 0.7498 0.1906 0.5468
C10_10 C 0.78155(15) 0.22234(15) 0.8418(4)
H13_10 H 0.7571 0.1960 0.8144
H14_10 H 0.7974 0.2150 0.8928
H15_10 H 0.7712 0.2397 0.8768
C11_10 C 0.86576(14) 0.30209(14) 0.8859(3)
H16_10 H 0.8782 0.3335 0.8928
H17_10 H 0.8412 0.2879 0.9353
C12_10 C 0.91321(14) 0.35988(14) 0.7047(4)
H18_10 H 0.9148 0.3669 0.7800
H19_10 H 0.9402 0.3619 0.6823
H20_10 H 0.9082 0.3801 0.6637
O9_5 O 0.68870(9) 0.61868(13) 0.0217(2)
O1_14 O 0.71804(9) 0.71805(13) 0.8841(2)
H1_11 H 0.7050 0.7325 0.8741
H2_11 H 0.6992 0.7044 0.9331
O2_11 O 0.74419(9) 0.66218(13) 0.4568(2)
H3_11 H 0.7618 0.6698 0.5066
O3_11 O 0.69684(9) 0.65497(13) 0.6164(2)
O4_8 O 0.66922(9) 0.64889(13) 0.4252(2)
O5_11 O 0.85873(9) 0.64325(13) 0.7399(2)
O6_11 O 0.85023(9) 0.65318(13) 0.5421(2)
H4_11 H 0.8360 0.6633 0.5691
O8_11 O 0.76177(9) 0.64310(13) 0.9525(2)
H5_11 H 0.7767 0.6536 0.8982
O10_11 O 0.70414(9) 0.63962(12) 0.8258(2)
P1_11 P 0.69682(4) 0.64004(6) 0.50314(8)
P2_11 P 0.85723(4) 0.62491(6) 0.62683(9)
P3_11 P 0.71243(4) 0.61902(6) 0.92116(9)
C1_11 C 0.70311(13) 0.57068(18) 0.5810(3)
C2_11 C 0.74282(14) 0.57250(19) 0.5579(3)
C3_11 C 0.76713(13) 0.56830(18) 0.6424(3)
C4_11 C 0.75189(14) 0.56344(20) 0.7495(3)
C5_11 C 0.71181(14) 0.56157(19) 0.7710(3)
C6_11 C 0.68620(13) 0.56218(18) 0.6860(3)
C7_11 C 0.67905(14) 0.58250(19) 0.4971(3)
H6_11 H 0.6847 0.5752 0.4257
H7_11 H 0.6478 0.5656 0.5103
C8_11 C 0.75854(15) 0.57738(21) 0.4421(3)
H8_11 H 0.7382 0.5799 0.3954
H9_11 H 0.7868 0.6032 0.4358
H10_11 H 0.7606 0.5522 0.4220
C9_11 C 0.81065(13) 0.57069(18) 0.6186(3)
H11_11 H 0.8146 0.5520 0.6693
H12_11 H 0.8094 0.5592 0.5468
C10_11 C 0.77766(15) 0.55921(21) 0.8418(4)
H13_11 H 0.8040 0.5611 0.8144
H14_11 H 0.7850 0.5824 0.8928
H15_11 H 0.7603 0.5315 0.8768
C11_11 C 0.69791(14) 0.56367(20) 0.8859(3)
H16_11 H 0.6665 0.5447 0.8928
H17_11 H 0.7121 0.5533 0.9353
C12_11 C 0.64012(14) 0.55333(20) 0.7047(4)
H18_11 H 0.6331 0.5479 0.7800
H19_11 H 0.6381 0.5783 0.6823
H20_11 H 0.6199 0.5281 0.6637
O11_5 O 0.64634(9) 0.66411(16) 0.7585(2)
O13_8 O 0.71465(13) 0.73669(16) 0.6884(2)
O9_6 O 0.38132(13) 0.07002(9) 0.0217(2)
O1_15 O 0.28195(13) -0.00001(9) 0.8841(2)
O2_12 O 0.33782(13) 0.08201(9) 0.4568(2)
H3_12 H 0.3302 0.0920 0.5066
O3_12 O 0.34503(13) 0.04187(9) 0.6164(2)
O4_9 O 0.35111(13) 0.02033(9) 0.4252(2)
O5_12 O 0.35675(13) 0.21548(9) 0.7399(2)
O6_12 O 0.34682(13) 0.19705(9) 0.5421(2)
H4_12 H 0.3367 0.1727 0.5691
O8_12 O 0.35690(13) 0.11867(10) 0.9525(2)
H5_12 H 0.3464 0.1231 0.8982
O10_12 O 0.36038(12) 0.06452(8) 0.8258(2)
P1_12 P 0.35996(6) 0.05678(4) 0.50314(8)
P2_12 P 0.37509(6) 0.23232(4) 0.62683(9)
P3_12 P 0.38098(6) 0.09341(4) 0.92116(9)
C1_12 C 0.42932(18) 0.13243(13) 0.5810(3)
C2_12 C 0.42750(19) 0.17032(13) 0.5579(3)
C3_12 C 0.43170(18) 0.19883(13) 0.6424(3)
C4_12 C 0.43656(20) 0.18845(14) 0.7495(3)
C5_12 C 0.43843(19) 0.15024(13) 0.7710(3)
C6_12 C 0.43782(18) 0.12402(13) 0.6860(3)
C7_12 C 0.41750(19) 0.09655(13) 0.4971(3)
H6_12 H 0.4248 0.1095 0.4257
H7_12 H 0.4344 0.0822 0.5103
C8_12 C 0.42262(21) 0.18116(15) 0.4421(3)
H8_12 H 0.4201 0.1583 0.3954
H9_12 H 0.3968 0.1836 0.4358
H10_12 H 0.4478 0.2084 0.4220
C9_12 C 0.42931(18) 0.23996(13) 0.6186(3)
H11_12 H 0.4480 0.2626 0.6693
H12_12 H 0.4408 0.2502 0.5468
C10_12 C 0.44079(21) 0.21845(15) 0.8418(4)
H13_12 H 0.4389 0.2429 0.8144
H14_12 H 0.4176 0.2026 0.8928
H15_12 H 0.4685 0.2288 0.8768
C11_12 C 0.43633(20) 0.13424(14) 0.8859(3)
H16_12 H 0.4553 0.1218 0.8928
H17_12 H 0.4467 0.1588 0.9353
C12_12 C 0.44667(20) 0.08679(14) 0.7047(4)
H18_12 H 0.4521 0.0852 0.7800
H19_12 H 0.4217 0.0598 0.6823
H20_12 H 0.4719 0.0918 0.6637
O1_16 O 0.28195(13) 0.99999(9) 0.8841(2)
H1_12 H 0.2675 0.9725 0.8741
H2_12 H 0.2956 0.9948 0.9331
O11_6 O 0.33589(16) 0.98222(13) 0.7585(2)
O13_9 O 0.26331(16) 0.97797(9) 0.6884(2)
H7_13 H 0.2511 0.0189 0.1770
H16_13 H 0.2115 0.0002 0.5595
C12_13 C 0.24654(14) 0.02655(14) 0.3714(4)
H18_13 H 0.2481 0.0336 0.4467
H19_13 H 0.2735 0.0286 0.3490
H20_13 H 0.2415 0.0468 0.3304
O1_17 O 0.33334(9) 0.94863(9) 0.5508(2)
H1_13 H 0.3608 0.9617 0.5408
H2_13 H 0.3385 0.9675 0.5998
O2_13 O 0.25132(9) 0.92248(9) 0.1235(2)
H3_13 H 0.2413 0.9049 0.1733
O3_13 O 0.29146(9) 0.96983(9) 0.2831(2)
O4_10 O 0.31300(9) 0.99745(9) 0.0919(2)
O5_13 O 0.11785(9) 0.80794(9) 0.4066(2)
O6_13 O 0.13628(9) 0.81644(9) 0.2088(2)
H4_13 H 0.1606 0.8307 0.2358
O8_13 O 0.21466(10) 0.90490(9) 0.6192(2)
H5_13 H 0.2102 0.8900 0.5649
O10_13 O 0.26881(8) 0.96253(9) 0.4925(2)
P1_13 P 0.27655(4) 0.96985(4) 0.16981(8)
P2_13 P 0.10101(4) 0.80944(4) 0.29350(9)
P3_13 P 0.23992(4) 0.95424(4) 0.58783(9)
C1_13 C 0.20090(13) 0.96356(13) 0.2477(3)
C2_13 C 0.16301(13) 0.92385(14) 0.2246(3)
C3_13 C 0.13450(13) 0.89954(13) 0.3091(3)
C4_13 C 0.14488(14) 0.91478(14) 0.4162(3)
C5_13 C 0.18309(13) 0.95486(14) 0.4377(3)
C6_13 C 0.20931(13) 0.98047(13) 0.3527(3)
C7_13 C 0.23678(13) 0.98762(14) 0.1638(3)
H6_13 H 0.2238 0.9820 0.0924
C8_13 C 0.15217(15) 0.90813(15) 0.1088(3)
H8_13 H 0.1750 0.9285 0.0621
H9_13 H 0.1497 0.8799 0.1025
H10_13 H 0.1249 0.9061 0.0887
C9_13 C 0.09337(13) 0.85602(13) 0.2853(3)
H11_13 H 0.0707 0.8521 0.3360
H12_13 H 0.0831 0.8573 0.2135
C10_13 C 0.11488(15) 0.88901(15) 0.5085(4)
H13_13 H 0.0904 0.8627 0.4811
H14_13 H 0.1307 0.8817 0.5595
H15_13 H 0.1045 0.9064 0.5435
C11_13 C 0.19909(14) 0.96876(14) 0.5526(3)
H17_13 H 0.1745 0.9546 0.6020
O13_10 O 0.35537(9) 0.95201(13) 0.3550(2)
O1_18 O 0.05137(9) 0.38472(13) 0.5508(2)
H1_14 H 0.0383 0.3992 0.5408
H2_14 H 0.0325 0.3711 0.5998
O2_14 O 0.07752(9) 0.32885(13) 0.1235(2)
H3_14 H 0.0951 0.3365 0.1733
O3_14 O 0.03017(9) 0.32164(13) 0.2831(2)
O4_11 O 0.00255(9) 0.31556(13) 0.0919(2)
O5_14 O 0.19206(9) 0.30992(13) 0.4066(2)
O6_14 O 0.18356(9) 0.31985(13) 0.2088(2)
H4_14 H 0.1693 0.3300 0.2358
O8_14 O 0.09510(9) 0.30977(13) 0.6192(2)
H5_14 H 0.1100 0.3203 0.5649
O10_14 O 0.03747(9) 0.30629(12) 0.4925(2)
P1_14 P 0.03015(4) 0.30671(6) 0.16981(8)
P2_14 P 0.19056(4) 0.29158(6) 0.29350(9)
P3_14 P 0.04576(4) 0.28569(6) 0.58783(9)
C1_14 C 0.03644(13) 0.23735(18) 0.2477(3)
C2_14 C 0.07615(14) 0.23917(19) 0.2246(3)
C3_14 C 0.10046(13) 0.23497(18) 0.3091(3)
C4_14 C 0.08522(14) 0.23011(20) 0.4162(3)
C5_14 C 0.04514(14) 0.22824(19) 0.4377(3)
C6_14 C 0.01953(13) 0.22885(18) 0.3527(3)
C7_14 C 0.01238(14) 0.24917(19) 0.1638(3)
H6_14 H 0.0180 0.2419 0.0924
C8_14 C 0.09187(15) 0.24405(21) 0.1088(3)
H8_14 H 0.0715 0.2466 0.0621
H9_14 H 0.1201 0.2699 0.1025
H10_14 H 0.0939 0.2189 0.0887
C9_14 C 0.14398(13) 0.23736(18) 0.2853(3)
H11_14 H 0.1479 0.2187 0.3360
H12_14 H 0.1427 0.2259 0.2135
C10_14 C 0.11099(15) 0.22588(21) 0.5085(4)
H13_14 H 0.1373 0.2278 0.4811
H14_14 H 0.1183 0.2491 0.5595
H15_14 H 0.0936 0.1982 0.5435
C11_14 C 0.03124(14) 0.23034(20) 0.5526(3)
H17_14 H 0.0454 0.2200 0.6020
O13_11 O 0.04799(13) 0.40335(16) 0.3550(2)
H7_14 H 0.9811 0.2323 0.1770
H16_14 H 0.9998 0.2114 0.5595
C12_14 C 0.97345(14) 0.22000(20) 0.3714(4)
H18_14 H 0.9664 0.2146 0.4467
H19_14 H 0.9714 0.2450 0.3490
H20_14 H 0.9532 0.1948 0.3304
O1_19 O 0.61528(13) 0.66666(9) 0.5508(2)
H1_15 H 0.6008 0.6392 0.5408
H2_15 H 0.6289 0.6615 0.5998
O2_15 O 0.67115(13) 0.74868(9) 0.1235(2)
H3_15 H 0.6635 0.7587 0.1733
O3_15 O 0.67836(13) 0.70854(9) 0.2831(2)
O4_12 O 0.68444(13) 0.68700(9) 0.0919(2)
O5_15 O 0.69008(13) 0.88215(9) 0.4066(2)
O6_15 O 0.68015(13) 0.86372(9) 0.2088(2)
H4_15 H 0.6700 0.8394 0.2358
O8_15 O 0.69023(13) 0.78534(10) 0.6192(2)
H5_15 H 0.6797 0.7898 0.5649
O10_15 O 0.69371(12) 0.73119(8) 0.4925(2)
P1_15 P 0.69329(6) 0.72345(4) 0.16981(8)
P2_15 P 0.70842(6) 0.89899(4) 0.29350(9)
P3_15 P 0.71431(6) 0.76008(4) 0.58783(9)
C1_15 C 0.76265(18) 0.79910(13) 0.2477(3)
C2_15 C 0.76083(19) 0.83699(13) 0.2246(3)
C3_15 C 0.76503(18) 0.86550(13) 0.3091(3)
C4_15 C 0.76989(20) 0.85512(14) 0.4162(3)
C5_15 C 0.77176(19) 0.81691(13) 0.4377(3)
C6_15 C 0.77115(18) 0.79069(13) 0.3527(3)
C7_15 C 0.75083(19) 0.76322(13) 0.1638(3)
H6_15 H 0.7581 0.7762 0.0924
H7_15 H 0.7677 0.7489 0.1770
C8_15 C 0.75595(21) 0.84783(15) 0.1088(3)
H8_15 H 0.7534 0.8250 0.0621
H9_15 H 0.7301 0.8503 0.1025
H10_15 H 0.7811 0.8751 0.0887
C9_15 C 0.76264(18) 0.90663(13) 0.2853(3)
H11_15 H 0.7813 0.9293 0.3360
H12_15 H 0.7741 0.9169 0.2135
C10_15 C 0.77412(21) 0.88512(15) 0.5085(4)
H13_15 H 0.7722 0.9096 0.4811
H14_15 H 0.7509 0.8693 0.5595
H15_15 H 0.8018 0.8955 0.5435
C11_15 C 0.76966(20) 0.80091(14) 0.5526(3)
H16_15 H 0.7886 0.7885 0.5595
H17_15 H 0.7800 0.8255 0.6020
C12_15 C 0.78000(20) 0.75346(14) 0.3714(4)
H18_15 H 0.7854 0.7519 0.4467
H19_15 H 0.7550 0.7265 0.3490
H20_15 H 0.8052 0.7585 0.3304
O13_12 O 0.59665(16) 0.64463(9) 0.3550(2)
O1_20 O 0.66668(9) 0.61529(9) 0.2174(2)
H1_16 H 0.6942 0.6283 0.2074
H2_16 H 0.6719 0.6341 0.2664
O5_16 O 0.45119(9) 0.47460(9) 0.0732(2)
O8_16 O 0.54800(10) 0.57156(9) 0.2858(2)
H5_16 H 0.5436 0.5566 0.2315
O10_16 O 0.60215(8) 0.62919(9) 0.1591(2)
P3_16 P 0.57326(4) 0.62090(4) 0.25449(9)
C4_16 C 0.47822(14) 0.58144(14) 0.0828(3)
C5_16 C 0.51643(13) 0.62152(14) 0.1043(3)
C6_16 C 0.54265(13) 0.64713(13) 0.0193(3)
H11_16 H 0.4041 0.5187 0.0026
C10_16 C 0.44822(15) 0.55567(15) 0.1751(4)
H13_16 H 0.4238 0.5293 0.1477
H14_16 H 0.4641 0.5483 0.2261
H15_16 H 0.4379 0.5730 0.2101
C11_16 C 0.53243(14) 0.63542(14) 0.2192(3)
H16_16 H 0.5449 0.6668 0.2261
H17_16 H 0.5079 0.6212 0.2686
C12_16 C 0.57988(14) 0.69321(14) 0.0380(4)
H18_16 H 0.5815 0.7002 0.1133
H19_16 H 0.6069 0.6952 0.0156
O2_16 O 0.58466(9) 0.58914(9) 0.7901(2)
H3_16 H 0.5747 0.5715 0.8399
O3_16 O 0.62480(9) 0.63649(9) 0.9497(2)
O6_16 O 0.46962(9) 0.48310(9) 0.8754(2)
H4_16 H 0.4940 0.4973 0.9024
P1_16 P 0.60989(4) 0.63651(4) 0.83647(8)
P2_16 P 0.43435(4) 0.47610(4) 0.96016(9)
C1_16 C 0.53424(13) 0.63022(13) 0.9143(3)
C2_16 C 0.49635(13) 0.59051(14) 0.8912(3)
C3_16 C 0.46784(13) 0.56620(13) 0.9757(3)
C7_16 C 0.57012(13) 0.65428(14) 0.8304(3)
H6_16 H 0.5572 0.6486 0.7590
H7_16 H 0.5845 0.6855 0.8436
C8_16 C 0.48551(15) 0.57479(15) 0.7754(3)
H8_16 H 0.5084 0.5951 0.7287
H9_16 H 0.4831 0.5465 0.7691
H10_16 H 0.4583 0.5727 0.7553
C9_16 C 0.42671(13) 0.52268(13) 0.9519(3)
H12_16 H 0.4165 0.5239 0.8801
H20_16 H 0.5749 0.7134 0.9970
O1_21 O 0.38471(9) 0.05138(13) 0.2174(2)
H1_17 H 0.3717 0.0658 0.2074
H2_17 H 0.3659 0.0377 0.2664
H3_17 H 0.4285 0.0031 0.8399
O5_17 O 0.52540(9) 0.97658(13) 0.0732(2)
O8_17 O 0.42844(9) 0.97643(13) 0.2858(2)
H5_17 H 0.4434 0.9869 0.2315
O10_17 O 0.37081(9) 0.97295(12) 0.1591(2)
P3_17 P 0.37910(4) 0.95235(6) 0.25449(9)
C4_17 C 0.41856(14) 0.89677(20) 0.0828(3)
C5_17 C 0.37848(14) 0.89490(19) 0.1043(3)
C6_17 C 0.35287(13) 0.89551(18) 0.0193(3)
H11_17 H 0.4813 0.8853 0.0026
C10_17 C 0.44433(15) 0.89254(21) 0.1751(4)
H13_17 H 0.4707 0.8944 0.1477
H14_17 H 0.4517 0.9157 0.2261
H15_17 H 0.4270 0.8648 0.2101
C11_17 C 0.36458(14) 0.89700(20) 0.2192(3)
H16_17 H 0.3332 0.8780 0.2261
H17_17 H 0.3788 0.8866 0.2686
C12_17 C 0.30679(14) 0.88666(20) 0.0380(4)
H18_17 H 0.2998 0.8812 0.1133
H19_17 H 0.3048 0.9116 0.0156
O2_17 O 0.41086(9) 0.99551(13) 0.7901(2)
O3_17 O 0.36351(9) 0.98830(13) 0.9497(2)
O6_17 O 0.51690(9) 0.98651(13) 0.8754(2)
H4_17 H 0.5027 0.9966 0.9024
P1_17 P 0.36349(4) 0.97337(6) 0.83647(8)
P2_17 P 0.52390(4) 0.95824(6) 0.96016(9)
C1_17 C 0.36978(13) 0.90401(18) 0.9143(3)
C2_17 C 0.40949(14) 0.90583(19) 0.8912(3)
C3_17 C 0.43380(13) 0.90163(18) 0.9757(3)
C7_17 C 0.34572(14) 0.91583(19) 0.8304(3)
H6_17 H 0.3514 0.9085 0.7590
H7_17 H 0.3145 0.8989 0.8436
C8_17 C 0.42521(15) 0.91071(21) 0.7754(3)
H8_17 H 0.4049 0.9132 0.7287
H9_17 H 0.4535 0.9365 0.7691
H10_17 H 0.4273 0.8855 0.7553
C9_17 C 0.47732(13) 0.90402(18) 0.9519(3)
H12_17 H 0.4761 0.8925 0.8801
H20_17 H 0.2866 0.8614 0.9970
O5_18 O 0.02342(13) 0.54881(9) 0.0732(2)
O8_18 O 0.02357(13) 0.45200(10) 0.2858(2)
H5_18 H 0.0131 0.4564 0.2315
O10_18 O 0.02705(12) 0.39785(8) 0.1591(2)
P3_18 P 0.04765(6) 0.42674(4) 0.25449(9)
C4_18 C 0.10323(20) 0.52178(14) 0.0828(3)
C5_18 C 0.10510(19) 0.48357(13) 0.1043(3)
C6_18 C 0.10449(18) 0.45735(13) 0.0193(3)
H11_18 H 0.1147 0.5959 0.0026
C10_18 C 0.10746(21) 0.55178(15) 0.1751(4)
H13_18 H 0.1056 0.5762 0.1477
H14_18 H 0.0843 0.5359 0.2261
H15_18 H 0.1352 0.5621 0.2101
C11_18 C 0.10300(20) 0.46757(14) 0.2192(3)
H16_18 H 0.1220 0.4551 0.2261
H17_18 H 0.1134 0.4921 0.2686
C12_18 C 0.11334(20) 0.42012(14) 0.0380(4)
H18_18 H 0.1188 0.4185 0.1133
H19_18 H 0.0884 0.3931 0.0156
O2_18 O 0.00449(13) 0.41534(9) 0.7901(2)
O3_18 O 0.01170(13) 0.37520(9) 0.9497(2)
O6_18 O 0.01349(13) 0.53038(9) 0.8754(2)
H4_18 H 0.0034 0.5060 0.9024
P1_18 P 0.02663(6) 0.39011(4) 0.83647(8)
P2_18 P 0.04176(6) 0.56565(4) 0.96016(9)
C1_18 C 0.09599(18) 0.46576(13) 0.9143(3)
C2_18 C 0.09417(19) 0.50365(13) 0.8912(3)
C3_18 C 0.09837(18) 0.53216(13) 0.9757(3)
C7_18 C 0.08417(19) 0.42988(13) 0.8304(3)
H6_18 H 0.0915 0.4428 0.7590
H7_18 H 0.1011 0.4155 0.8436
C8_18 C 0.08929(21) 0.51449(15) 0.7754(3)
H8_18 H 0.0868 0.4916 0.7287
H9_18 H 0.0635 0.5169 0.7691
H10_18 H 0.1145 0.5417 0.7553
C9_18 C 0.09598(18) 0.57329(13) 0.9519(3)
H12_18 H 0.1075 0.5835 0.8801
H20_18 H 0.1386 0.4251 0.9970
O1_22 O 0.94862(13) 0.33332(9) 0.2174(2)
H1_18 H 0.9342 0.3058 0.2074
H2_18 H 0.9623 0.3281 0.2664
H3_18 H 0.9969 0.4253 0.8399
loop_
_geom_bond_atom_site_label_1
_geom_bond_atom_site_label_2
_geom_bond_site_symmetry_1
_geom_bond_site_symmetry_2
Al1 O1 1_555 1_555
O2 H3 1_555 1_555
O3 Al1 1_555 1_555
O4 P1 1_555 1_555
O5 P2 1_555 1_555
O6 H4 1_555 1_555
O7 P2 1_555 1_555
O8 H5 1_555 1_555
O10 Al1 1_555 1_555
P1 O2 1_555 1_555
P2 O6 1_555 1_555
P3 O8 1_555 1_555
C1 C2 1_555 1_555
C2 C3 1_555 1_555
C3 C4 1_555 1_555
C4 C5 1_555 1_555
C5 C6 1_555 1_555
C6 C1 1_555 1_555
C7 P1 1_555 1_555
H6 C7 1_555 1_555
H7 C7 1_555 1_555
C8 C2 1_555 1_555
H8 C8 1_555 1_555
H9 C8 1_555 1_555
H10 C8 1_555 1_555
C9 P2 1_555 1_555
H11 C9 1_555 1_555
H12 C9 1_555 1_555
C10 C4 1_555 1_555
H13 C10 1_555 1_555
H14 C10 1_555 1_555
H15 C10 1_555 1_555
C11 P3 1_555 1_555
H16 C11 1_555 1_555
H17 C11 1_555 1_555
C12 C6 1_555 1_555
H18 C12 1_555 1_555
H19 C12 1_555 1_555
H20 C12 1_555 1_555
Al4 O7 1_555 1_555
O12 Al1 1_555 1_555
O3 P1 1_555 1_555
O10 P3 1_555 1_555
C1 C7 1_555 1_555
C3 C9 1_555 1_555
C5 C11 1_555 1_555
Al3 O9 1_555 1_555
O1_2 H1 1_555 1_555
H2 O1_2 1_555 1_555
Al1_2 O1_3 1_555 1_555
O1_3 H1_2 1_555 1_555
H2_2 O1_3 1_555 1_555
O2_2 H3_2 1_555 1_555
O3_2 Al1_2 1_555 1_555
O4_2 P1_2 1_555 1_555
O5_2 P2_2 1_555 1_555
O6_2 H4_2 1_555 1_555
O7_2 P2_2 1_555 1_555
O8_2 H5_2 1_555 1_555
O10_2 Al1_2 1_555 1_555
P1_2 O2_2 1_555 1_555
P2_2 O6_2 1_555 1_555
P3_2 O8_2 1_555 1_555
C1_2 C2_2 1_555 1_555
C2_2 C3_2 1_555 1_555
C3_2 C4_2 1_555 1_555
C4_2 C5_2 1_555 1_555
C5_2 C6_2 1_555 1_555
C6_2 C1_2 1_555 1_555
C7_2 P1_2 1_555 1_555
H6_2 C7_2 1_555 1_555
H7_2 C7_2 1_555 1_555
C8_2 C2_2 1_555 1_555
H8_2 C8_2 1_555 1_555
H9_2 C8_2 1_555 1_555
H10_2 C8_2 1_555 1_555
C9_2 P2_2 1_555 1_555
H11_2 C9_2 1_555 1_555
H12_2 C9_2 1_555 1_555
C10_2 C4_2 1_555 1_555
H13_2 C10_2 1_555 1_555
H14_2 C10_2 1_555 1_555
H15_2 C10_2 1_555 1_555
C11_2 P3_2 1_555 1_555
H16_2 C11_2 1_555 1_555
H17_2 C11_2 1_555 1_555
C12_2 C6_2 1_555 1_555
H18_2 C12_2 1_555 1_555
H19_2 C12_2 1_555 1_555
H20_2 C12_2 1_555 1_555
Al2_2 O4_2 1_555 1_555
Al4_2 O7_2 1_555 1_555
O11_2 Al1_2 1_555 1_555
O12_2 Al1_2 1_555 1_555
O13_2 Al1_2 1_555 1_555
O3_2 P1_2 1_555 1_555
O10_2 P3_2 1_555 1_555
C1_2 C7_2 1_555 1_555
C3_2 C9_2 1_555 1_555
C5_2 C11_2 1_555 1_555
Al3_2 O9_2 1_555 1_555
O1_4 H1_3 1_555 1_555
H2_3 O1_4 1_555 1_555
Al1_3 O1_5 1_555 1_555
O2_3 H3_3 1_555 1_555
O3_3 Al1_3 1_555 1_555
O4_3 P1_3 1_555 1_555
O5_3 P2_3 1_555 1_555
O6_3 H4_3 1_555 1_555
O7_3 P2_3 1_555 1_555
O8_3 H5_3 1_555 1_555
O10_3 Al1_3 1_555 1_555
P1_3 O2_3 1_555 1_555
P2_3 O6_3 1_555 1_555
P3_3 O8_3 1_555 1_555
C1_3 C2_3 1_555 1_555
C2_3 C3_3 1_555 1_555
C3_3 C4_3 1_555 1_555
C4_3 C5_3 1_555 1_555
C5_3 C6_3 1_555 1_555
C6_3 C1_3 1_555 1_555
C7_3 P1_3 1_555 1_555
H6_3 C7_3 1_555 1_555
H7_3 C7_3 1_555 1_555
C8_3 C2_3 1_555 1_555
H8_3 C8_3 1_555 1_555
H9_3 C8_3 1_555 1_555
H10_3 C8_3 1_555 1_555
C9_3 P2_3 1_555 1_555
H11_3 C9_3 1_555 1_555
H12_3 C9_3 1_555 1_555
C10_3 C4_3 1_555 1_555
H13_3 C10_3 1_555 1_555
H14_3 C10_3 1_555 1_555
H15_3 C10_3 1_555 1_555
C11_3 P3_3 1_555 1_555
H16_3 C11_3 1_555 1_555
H17_3 C11_3 1_555 1_555
C12_3 C6_3 1_555 1_555
H18_3 C12_3 1_555 1_555
H19_3 C12_3 1_555 1_555
H20_3 C12_3 1_555 1_555
Al4_3 O7_3 1_555 1_555
O12_3 Al1_3 1_555 1_555
O3_3 P1_3 1_555 1_555
O10_3 P3_3 1_555 1_555
C1_3 C7_3 1_555 1_555
C3_3 C9_3 1_555 1_555
C5_3 C11_3 1_555 1_555
Al3_3 O9_3 1_555 1_555
Al2_3 O1_6 1_555 1_555
O1_6 H1_4 1_555 1_555
H2_4 O1_6 1_555 1_555
O2_4 H3_4 1_555 1_555
O3_4 Al2_3 1_555 1_555
O4_4 P1_4 1_555 1_555
O5_4 P2_4 1_555 1_555
O6_4 H4_4 1_555 1_555
O7_4 P2_4 1_555 1_555
O8_4 H5_4 1_555 1_555
O13_3 P3_4 1_555 1_555
O10_4 Al2_3 1_555 1_555
P1_4 O2_4 1_555 1_555
P2_4 O6_4 1_555 1_555
P3_4 O8_4 1_555 1_555
C1_4 C2_4 1_555 1_555
C2_4 C3_4 1_555 1_555
C3_4 C4_4 1_555 1_555
C4_4 C5_4 1_555 1_555
C5_4 C6_4 1_555 1_555
C6_4 C1_4 1_555 1_555
C7_4 P1_4 1_555 1_555
H6_4 C7_4 1_555 1_555
C8_4 C2_4 1_555 1_555
H8_4 C8_4 1_555 1_555
H9_4 C8_4 1_555 1_555
H10_4 C8_4 1_555 1_555
C9_4 P2_4 1_555 1_555
H11_4 C9_4 1_555 1_555
H12_4 C9_4 1_555 1_555
C10_4 C4_4 1_555 1_555
H13_4 C10_4 1_555 1_555
H14_4 C10_4 1_555 1_555
H15_4 C10_4 1_555 1_555
C11_4 P3_4 1_555 1_555
H17_4 C11_4 1_555 1_555
Al4_4 O7_4 1_555 1_555
O12_4 Al2_3 1_555 1_555
O13_4 Al2_3 1_555 1_555
O3_4 P1_4 1_555 1_555
O10_4 P3_4 1_555 1_555
C1_4 C7_4 1_555 1_555
C3_4 C9_4 1_555 1_555
C5_4 C11_4 1_555 1_555
H18_4 C12_4 1_555 1_555
H19_4 C12_4 1_555 1_555
H20_4 C12_4 1_555 1_555
H18_5 C12_5 1_555 1_555
H19_5 C12_5 1_555 1_555
H20_5 C12_5 1_555 1_555
Al2 O1_7 1_555 1_555
O1_7 H1_5 1_555 1_555
H2_5 O1_7 1_555 1_555
O2_5 H3_5 1_555 1_555
O3_5 Al2 1_555 1_555
O4_5 P1_5 1_555 1_555
O5_5 P2_5 1_555 1_555
O6_5 H4_5 1_555 1_555
O7_5 P2_5 1_555 1_555
O8_5 H5_5 1_555 1_555
O13 P3_5 1_555 1_555
O10_5 Al2 1_555 1_555
P1_5 O2_5 1_555 1_555
P2_5 O6_5 1_555 1_555
P3_5 O8_5 1_555 1_555
C1_5 C2_5 1_555 1_555
C2_5 C3_5 1_555 1_555
C3_5 C4_5 1_555 1_555
C4_5 C5_5 1_555 1_555
C5_5 C6_5 1_555 1_555
C6_5 C1_5 1_555 1_555
C7_5 P1_5 1_555 1_555
H6_5 C7_5 1_555 1_555
C8_5 C2_5 1_555 1_555
H8_5 C8_5 1_555 1_555
H9_5 C8_5 1_555 1_555
H10_5 C8_5 1_555 1_555
C9_5 P2_5 1_555 1_555
H11_5 C9_5 1_555 1_555
H12_5 C9_5 1_555 1_555
C10_5 C4_5 1_555 1_555
H13_5 C10_5 1_555 1_555
H14_5 C10_5 1_555 1_555
H15_5 C10_5 1_555 1_555
C11_5 P3_5 1_555 1_555
H17_5 C11_5 1_555 1_555
Al4_5 O7_5 1_555 1_555
O12_5 Al2 1_555 1_555
O13_5 Al2 1_555 1_555
O3_5 P1_5 1_555 1_555
O10_5 P3_5 1_555 1_555
C1_5 C7_5 1_555 1_555
C3_5 C9_5 1_555 1_555
C5_5 C11_5 1_555 1_555
Al2_2 O1_8 1_555 1_555
O1_8 H1_6 1_555 1_555
H2_6 O1_8 1_555 1_555
O2_6 H3_6 1_555 1_555
O3_6 Al2_2 1_555 1_555
O4_6 P1_6 1_555 1_555
O5_6 P2_6 1_555 1_555
O6_6 H4_6 1_555 1_555
O7_6 P2_6 1_555 1_555
O8_6 H5_6 1_555 1_555
O13_2 P3_6 1_555 1_555
O10_6 Al2_2 1_555 1_555
P1_6 O2_6 1_555 1_555
P2_6 O6_6 1_555 1_555
P3_6 O8_6 1_555 1_555
C1_6 C2_6 1_555 1_555
C2_6 C3_6 1_555 1_555
C3_6 C4_6 1_555 1_555
C4_6 C5_6 1_555 1_555
C5_6 C6_6 1_555 1_555
C6_6 C1_6 1_555 1_555
C7_6 P1_6 1_555 1_555
H6_6 C7_6 1_555 1_555
H7_6 C7_6 1_555 1_555
C8_6 C2_6 1_555 1_555
H8_6 C8_6 1_555 1_555
H9_6 C8_6 1_555 1_555
H10_6 C8_6 1_555 1_555
C9_6 P2_6 1_555 1_555
H11_6 C9_6 1_555 1_555
H12_6 C9_6 1_555 1_555
C10_6 C4_6 1_555 1_555
H13_6 C10_6 1_555 1_555
H14_6 C10_6 1_555 1_555
H15_6 C10_6 1_555 1_555
C11_6 P3_6 1_555 1_555
H16_6 C11_6 1_555 1_555
H17_6 C11_6 1_555 1_555
C12_6 C6_6 1_555 1_555
H18_6 C12_6 1_555 1_555
H19_6 C12_6 1_555 1_555
H20_6 C12_6 1_555 1_555
Al3_2 O4_6 1_555 1_555
Al4_6 O7_6 1_555 1_555
O12_6 Al2_2 1_555 1_555
O13_6 Al2_2 1_555 1_555
O3_6 P1_6 1_555 1_555
O10_6 P3_6 1_555 1_555
C1_6 C7_6 1_555 1_555
C3_6 C9_6 1_555 1_555
C5_6 C11_6 1_555 1_555
O2_7 H3_7 1_555 1_555
O11_2 P1_7 1_555 1_555
O6_7 H4_7 1_555 1_555
O7_7 P2_7 1_555 1_555
P1_7 O2_7 1_555 1_555
P2_7 O6_7 1_555 1_555
C1_7 C2_7 1_555 1_555
C2_7 C3_7 1_555 1_555
C7_7 P1_7 1_555 1_555
H6_7 C7_7 1_555 1_555
H7_7 C7_7 1_555 1_555
C8_7 C2_7 1_555 1_555
H8_7 C8_7 1_555 1_555
H9_7 C8_7 1_555 1_555
H10_7 C8_7 1_555 1_555
C9_7 P2_7 1_555 1_555
H12_7 C9_7 1_555 1_555
Al4_7 O7_7 1_555 1_555
O3_7 P1_7 1_555 1_555
C1_7 C7_7 1_555 1_555
C3_7 C9_7 1_555 1_555
Al3_2 O1_9 1_555 1_555
O1_9 H1_7 1_555 1_555
H2_7 O1_9 1_555 1_555
O8_7 H5_7 1_555 1_555
O13_6 P3_7 1_555 1_555
O10_7 Al3_2 1_555 1_555
P3_7 O8_7 1_555 1_555
C4_7 C5_7 1_555 1_555
C5_7 C6_7 1_555 1_555
C10_7 C4_7 1_555 1_555
H13_7 C10_7 1_555 1_555
H14_7 C10_7 1_555 1_555
H15_7 C10_7 1_555 1_555
C11_7 P3_7 1_555 1_555
H16_7 C11_7 1_555 1_555
H17_7 C11_7 1_555 1_555
C12_7 C6_7 1_555 1_555
H18_7 C12_7 1_555 1_555
H19_7 C12_7 1_555 1_555
O12_7 Al3_2 1_555 1_555
O10_7 P3_7 1_555 1_555
C5_7 C11_7 1_555 1_555
O11_3 P1_8 1_555 1_555
O6_8 H4_8 1_555 1_555
O7_8 P2_8 1_555 1_555
P1_8 O2_8 1_555 1_555
P2_8 O6_8 1_555 1_555
C1_8 C2_8 1_555 1_555
C2_8 C3_8 1_555 1_555
C7_8 P1_8 1_555 1_555
H6_8 C7_8 1_555 1_555
H7_8 C7_8 1_555 1_555
C8_8 C2_8 1_555 1_555
H8_8 C8_8 1_555 1_555
H9_8 C8_8 1_555 1_555
H10_8 C8_8 1_555 1_555
C9_8 P2_8 1_555 1_555
H12_8 C9_8 1_555 1_555
Al4_8 O7_8 1_555 1_555
O3_8 P1_8 1_555 1_555
C1_8 C7_8 1_555 1_555
C3_8 C9_8 1_555 1_555
O8_8 H5_8 1_555 1_555
O13_4 P3_8 1_555 1_555
P3_8 O8_8 1_555 1_555
C4_8 C5_8 1_555 1_555
C5_8 C6_8 1_555 1_555
C10_8 C4_8 1_555 1_555
H13_8 C10_8 1_555 1_555
H14_8 C10_8 1_555 1_555
H15_8 C10_8 1_555 1_555
C11_8 P3_8 1_555 1_555
H16_8 C11_8 1_555 1_555
H17_8 C11_8 1_555 1_555
C12_8 C6_8 1_555 1_555
H18_8 C12_8 1_555 1_555
H19_8 C12_8 1_555 1_555
O10_8 P3_8 1_555 1_555
C5_8 C11_8 1_555 1_555
Al3_3 O1_10 1_555 1_555
O1_10 H1_8 1_555 1_555
H2_8 O1_10 1_555 1_555
O12_8 Al3_3 1_555 1_555
Al3 O1_11 1_555 1_555
O1_11 H1_9 1_555 1_555
H2_9 O1_11 1_555 1_555
O12_9 Al3 1_555 1_555
O11 P1_9 1_555 1_555
O6_9 H4_9 1_555 1_555
O7_9 P2_9 1_555 1_555
P1_9 O2_9 1_555 1_555
P2_9 O6_9 1_555 1_555
C1_9 C2_9 1_555 1_555
C2_9 C3_9 1_555 1_555
C7_9 P1_9 1_555 1_555
H6_9 C7_9 1_555 1_555
H7_9 C7_9 1_555 1_555
C8_9 C2_9 1_555 1_555
H8_9 C8_9 1_555 1_555
H9_9 C8_9 1_555 1_555
H10_9 C8_9 1_555 1_555
C9_9 P2_9 1_555 1_555
H12_9 C9_9 1_555 1_555
Al4_9 O7_9 1_555 1_555
O3_9 P1_9 1_555 1_555
C1_9 C7_9 1_555 1_555
C3_9 C9_9 1_555 1_555
O8_9 H5_9 1_555 1_555
O13_5 P3_9 1_555 1_555
P3_9 O8_9 1_555 1_555
C4_9 C5_9 1_555 1_555
C5_9 C6_9 1_555 1_555
C10_9 C4_9 1_555 1_555
H13_9 C10_9 1_555 1_555
H14_9 C10_9 1_555 1_555
H15_9 C10_9 1_555 1_555
C11_9 P3_9 1_555 1_555
H16_9 C11_9 1_555 1_555
H17_9 C11_9 1_555 1_555
C12_9 C6_9 1_555 1_555
H18_9 C12_9 1_555 1_555
H19_9 C12_9 1_555 1_555
O10_9 P3_9 1_555 1_555
C5_9 C11_9 1_555 1_555
O1_12 H1_10 1_555 1_555
H2_10 O1_12 1_555 1_555
Al4_9 O9_4 1_555 1_555
Al4_4 O1_13 1_555 1_555
O2_10 H3_10 1_555 1_555
O3_10 Al4_4 1_555 1_555
O4_7 P1_10 1_555 1_555
O5_10 P2_10 1_555 1_555
O6_10 H4_10 1_555 1_555
O12_4 P2_10 1_555 1_555
O8_10 H5_10 1_555 1_555
O10_10 Al4_4 1_555 1_555
P1_10 O2_10 1_555 1_555
P2_10 O6_10 1_555 1_555
P3_10 O8_10 1_555 1_555
C1_10 C2_10 1_555 1_555
C2_10 C3_10 1_555 1_555
C3_10 C4_10 1_555 1_555
C4_10 C5_10 1_555 1_555
C5_10 C6_10 1_555 1_555
C6_10 C1_10 1_555 1_555
C7_10 P1_10 1_555 1_555
H6_10 C7_10 1_555 1_555
H7_10 C7_10 1_555 1_555
C8_10 C2_10 1_555 1_555
H8_10 C8_10 1_555 1_555
H9_10 C8_10 1_555 1_555
H10_10 C8_10 1_555 1_555
C9_10 P2_10 1_555 1_555
H11_10 C9_10 1_555 1_555
H12_10 C9_10 1_555 1_555
C10_10 C4_10 1_555 1_555
H13_10 C10_10 1_555 1_555
H14_10 C10_10 1_555 1_555
H15_10 C10_10 1_555 1_555
C11_10 P3_10 1_555 1_555
H16_10 C11_10 1_555 1_555
H17_10 C11_10 1_555 1_555
C12_10 C6_10 1_555 1_555
H18_10 C12_10 1_555 1_555
H19_10 C12_10 1_555 1_555
H20_10 C12_10 1_555 1_555
O3_10 P1_10 1_555 1_555
O10_10 P3_10 1_555 1_555
C1_10 C7_10 1_555 1_555
C3_10 C9_10 1_555 1_555
C5_10 C11_10 1_555 1_555
Al4_7 O9_5 1_555 1_555
Al4_5 O1_14 1_555 1_555
O1_14 H1_11 1_555 1_555
H2_11 O1_14 1_555 1_555
O2_11 H3_11 1_555 1_555
O3_11 Al4_5 1_555 1_555
O4_8 P1_11 1_555 1_555
O5_11 P2_11 1_555 1_555
O6_11 H4_11 1_555 1_555
O12_5 P2_11 1_555 1_555
O8_11 H5_11 1_555 1_555
O10_11 Al4_5 1_555 1_555
P1_11 O2_11 1_555 1_555
P2_11 O6_11 1_555 1_555
P3_11 O8_11 1_555 1_555
C1_11 C2_11 1_555 1_555
C2_11 C3_11 1_555 1_555
C3_11 C4_11 1_555 1_555
C4_11 C5_11 1_555 1_555
C5_11 C6_11 1_555 1_555
C6_11 C1_11 1_555 1_555
C7_11 P1_11 1_555 1_555
H6_11 C7_11 1_555 1_555
H7_11 C7_11 1_555 1_555
C8_11 C2_11 1_555 1_555
H8_11 C8_11 1_555 1_555
H9_11 C8_11 1_555 1_555
H10_11 C8_11 1_555 1_555
C9_11 P2_11 1_555 1_555
H11_11 C9_11 1_555 1_555
H12_11 C9_11 1_555 1_555
C10_11 C4_11 1_555 1_555
H13_11 C10_11 1_555 1_555
H14_11 C10_11 1_555 1_555
H15_11 C10_11 1_555 1_555
C11_11 P3_11 1_555 1_555
H16_11 C11_11 1_555 1_555
H17_11 C11_11 1_555 1_555
C12_11 C6_11 1_555 1_555
H18_11 C12_11 1_555 1_555
H19_11 C12_11 1_555 1_555
H20_11 C12_11 1_555 1_555
Al4_3 O4_8 1_555 1_555
O11_5 Al4_5 1_555 1_555
O13_8 Al4_5 1_555 1_555
O3_11 P1_11 1_555 1_555
O10_11 P3_11 1_555 1_555
C1_11 C7_11 1_555 1_555
C3_11 C9_11 1_555 1_555
C5_11 C11_11 1_555 1_555
Al4_8 O9_6 1_555 1_555
Al4_6 O1_15 1_555 1_555
O2_12 H3_12 1_555 1_555
O3_12 Al4_6 1_555 1_555
O4_9 P1_12 1_555 1_555
O5_12 P2_12 1_555 1_555
O6_12 H4_12 1_555 1_555
O12_6 P2_12 1_555 1_555
O8_12 H5_12 1_555 1_555
O10_12 Al4_6 1_555 1_555
P1_12 O2_12 1_555 1_555
P2_12 O6_12 1_555 1_555
P3_12 O8_12 1_555 1_555
C1_12 C2_12 1_555 1_555
C2_12 C3_12 1_555 1_555
C3_12 C4_12 1_555 1_555
C4_12 C5_12 1_555 1_555
C5_12 C6_12 1_555 1_555
C6_12 C1_12 1_555 1_555
C7_12 P1_12 1_555 1_555
H6_12 C7_12 1_555 1_555
H7_12 C7_12 1_555 1_555
C8_12 C2_12 1_555 1_555
H8_12 C8_12 1_555 1_555
H9_12 C8_12 1_555 1_555
H10_12 C8_12 1_555 1_555
C9_12 P2_12 1_555 1_555
H11_12 C9_12 1_555 1_555
H12_12 C9_12 1_555 1_555
C10_12 C4_12 1_555 1_555
H13_12 C10_12 1_555 1_555
H14_12 C10_12 1_555 1_555
H15_12 C10_12 1_555 1_555
C11_12 P3_12 1_555 1_555
H16_12 C11_12 1_555 1_555
H17_12 C11_12 1_555 1_555
C12_12 C6_12 1_555 1_555
H18_12 C12_12 1_555 1_555
H19_12 C12_12 1_555 1_555
H20_12 C12_12 1_555 1_555
O3_12 P1_12 1_555 1_555
O10_12 P3_12 1_555 1_555
C1_12 C7_12 1_555 1_555
C3_12 C9_12 1_555 1_555
C5_12 C11_12 1_555 1_555
O1_16 H1_12 1_555 1_555
H2_12 O1_16 1_555 1_555
H18_13 C12_13 1_555 1_555
H19_13 C12_13 1_555 1_555
H20_13 C12_13 1_555 1_555
Al4 O1_17 1_555 1_555
O1_17 H1_13 1_555 1_555
H2_13 O1_17 1_555 1_555
O2_13 H3_13 1_555 1_555
O3_13 Al4 1_555 1_555
O4_10 P1_13 1_555 1_555
O5_13 P2_13 1_555 1_555
O6_13 H4_13 1_555 1_555
O12 P2_13 1_555 1_555
O8_13 H5_13 1_555 1_555
O13_9 P3_13 1_555 1_555
O10_13 Al4 1_555 1_555
P1_13 O2_13 1_555 1_555
P2_13 O6_13 1_555 1_555
P3_13 O8_13 1_555 1_555
C1_13 C2_13 1_555 1_555
C2_13 C3_13 1_555 1_555
C3_13 C4_13 1_555 1_555
C4_13 C5_13 1_555 1_555
C5_13 C6_13 1_555 1_555
C6_13 C1_13 1_555 1_555
C7_13 P1_13 1_555 1_555
H6_13 C7_13 1_555 1_555
C8_13 C2_13 1_555 1_555
H8_13 C8_13 1_555 1_555
H9_13 C8_13 1_555 1_555
H10_13 C8_13 1_555 1_555
C9_13 P2_13 1_555 1_555
H11_13 C9_13 1_555 1_555
H12_13 C9_13 1_555 1_555
C10_13 C4_13 1_555 1_555
H13_13 C10_13 1_555 1_555
H14_13 C10_13 1_555 1_555
H15_13 C10_13 1_555 1_555
C11_13 P3_13 1_555 1_555
H17_13 C11_13 1_555 1_555
O13_10 Al4 1_555 1_555
O3_13 P1_13 1_555 1_555
O10_13 P3_13 1_555 1_555
C1_13 C7_13 1_555 1_555
C3_13 C9_13 1_555 1_555
C5_13 C11_13 1_555 1_555
Al4_2 O1_18 1_555 1_555
O1_18 H1_14 1_555 1_555
H2_14 O1_18 1_555 1_555
O2_14 H3_14 1_555 1_555
O3_14 Al4_2 1_555 1_555
O4_11 P1_14 1_555 1_555
O5_14 P2_14 1_555 1_555
O6_14 H4_14 1_555 1_555
O12_2 P2_14 1_555 1_555
O8_14 H5_14 1_555 1_555
O13_7 P3_14 1_555 1_555
O10_14 Al4_2 1_555 1_555
P1_14 O2_14 1_555 1_555
P2_14 O6_14 1_555 1_555
P3_14 O8_14 1_555 1_555
C1_14 C2_14 1_555 1_555
C2_14 C3_14 1_555 1_555
C3_14 C4_14 1_555 1_555
C4_14 C5_14 1_555 1_555
C5_14 C6_14 1_555 1_555
C6_14 C1_14 1_555 1_555
C7_14 P1_14 1_555 1_555
H6_14 C7_14 1_555 1_555
C8_14 C2_14 1_555 1_555
H8_14 C8_14 1_555 1_555
H9_14 C8_14 1_555 1_555
H10_14 C8_14 1_555 1_555
C9_14 P2_14 1_555 1_555
H11_14 C9_14 1_555 1_555
H12_14 C9_14 1_555 1_555
C10_14 C4_14 1_555 1_555
H13_14 C10_14 1_555 1_555
H14_14 C10_14 1_555 1_555
H15_14 C10_14 1_555 1_555
C11_14 P3_14 1_555 1_555
H17_14 C11_14 1_555 1_555
O13_11 Al4_2 1_555 1_555
O3_14 P1_14 1_555 1_555
O10_14 P3_14 1_555 1_555
C1_14 C7_14 1_555 1_555
C3_14 C9_14 1_555 1_555
C5_14 C11_14 1_555 1_555
H18_14 C12_14 1_555 1_555
H19_14 C12_14 1_555 1_555
H20_14 C12_14 1_555 1_555
Al4_3 O1_19 1_555 1_555
O1_19 H1_15 1_555 1_555
H2_15 O1_19 1_555 1_555
O2_15 H3_15 1_555 1_555
O3_15 Al4_3 1_555 1_555
O4_12 P1_15 1_555 1_555
O5_15 P2_15 1_555 1_555
O6_15 H4_15 1_555 1_555
O12_3 P2_15 1_555 1_555
O8_15 H5_15 1_555 1_555
O13_8 P3_15 1_555 1_555
O10_15 Al4_3 1_555 1_555
P1_15 O2_15 1_555 1_555
P2_15 O6_15 1_555 1_555
P3_15 O8_15 1_555 1_555
C1_15 C2_15 1_555 1_555
C2_15 C3_15 1_555 1_555
C3_15 C4_15 1_555 1_555
C4_15 C5_15 1_555 1_555
C5_15 C6_15 1_555 1_555
C6_15 C1_15 1_555 1_555
C7_15 P1_15 1_555 1_555
H6_15 C7_15 1_555 1_555
H7_15 C7_15 1_555 1_555
C8_15 C2_15 1_555 1_555
H8_15 C8_15 1_555 1_555
H9_15 C8_15 1_555 1_555
H10_15 C8_15 1_555 1_555
C9_15 P2_15 1_555 1_555
H11_15 C9_15 1_555 1_555
H12_15 C9_15 1_555 1_555
C10_15 C4_15 1_555 1_555
H13_15 C10_15 1_555 1_555
H14_15 C10_15 1_555 1_555
H15_15 C10_15 1_555 1_555
C11_15 P3_15 1_555 1_555
H16_15 C11_15 1_555 1_555
H17_15 C11_15 1_555 1_555
C12_15 C6_15 1_555 1_555
H18_15 C12_15 1_555 1_555
H19_15 C12_15 1_555 1_555
H20_15 C12_15 1_555 1_555
Al4_7 O4_12 1_555 1_555
O13_12 Al4_3 1_555 1_555
O3_15 P1_15 1_555 1_555
O10_15 P3_15 1_555 1_555
C1_15 C7_15 1_555 1_555
C3_15 C9_15 1_555 1_555
C5_15 C11_15 1_555 1_555
Al4_7 O1_20 1_555 1_555
O1_20 H1_16 1_555 1_555
H2_16 O1_20 1_555 1_555
O8_16 H5_16 1_555 1_555
O13_12 P3_16 1_555 1_555
O10_16 Al4_7 1_555 1_555
P3_16 O8_16 1_555 1_555
C4_16 C5_16 1_555 1_555
C5_16 C6_16 1_555 1_555
C10_16 C4_16 1_555 1_555
H13_16 C10_16 1_555 1_555
H14_16 C10_16 1_555 1_555
H15_16 C10_16 1_555 1_555
C11_16 P3_16 1_555 1_555
H16_16 C11_16 1_555 1_555
H17_16 C11_16 1_555 1_555
C12_16 C6_16 1_555 1_555
H18_16 C12_16 1_555 1_555
H19_16 C12_16 1_555 1_555
O10_16 P3_16 1_555 1_555
C5_16 C11_16 1_555 1_555
O2_16 H3_16 1_555 1_555
O11_5 P1_16 1_555 1_555
O6_16 H4_16 1_555 1_555
O12_7 P2_16 1_555 1_555
P1_16 O2_16 1_555 1_555
P2_16 O6_16 1_555 1_555
C1_16 C2_16 1_555 1_555
C2_16 C3_16 1_555 1_555
C7_16 P1_16 1_555 1_555
H6_16 C7_16 1_555 1_555
H7_16 C7_16 1_555 1_555
C8_16 C2_16 1_555 1_555
H8_16 C8_16 1_555 1_555
H9_16 C8_16 1_555 1_555
H10_16 C8_16 1_555 1_555
C9_16 P2_16 1_555 1_555
H12_16 C9_16 1_555 1_555
O3_16 P1_16 1_555 1_555
C1_16 C7_16 1_555 1_555
C3_16 C9_16 1_555 1_555
Al4_8 O1_21 1_555 1_555
O1_21 H1_17 1_555 1_555
H2_17 O1_21 1_555 1_555
O8_17 H5_17 1_555 1_555
O13_10 P3_17 1_555 1_555
P3_17 O8_17 1_555 1_555
C4_17 C5_17 1_555 1_555
C5_17 C6_17 1_555 1_555
C10_17 C4_17 1_555 1_555
H13_17 C10_17 1_555 1_555
H14_17 C10_17 1_555 1_555
H15_17 C10_17 1_555 1_555
C11_17 P3_17 1_555 1_555
H16_17 C11_17 1_555 1_555
H17_17 C11_17 1_555 1_555
C12_17 C6_17 1_555 1_555
H18_17 C12_17 1_555 1_555
H19_17 C12_17 1_555 1_555
O10_17 P3_17 1_555 1_555
C5_17 C11_17 1_555 1_555
O11_6 P1_17 1_555 1_555
O6_17 H4_17 1_555 1_555
O12_8 P2_17 1_555 1_555
P1_17 O2_17 1_555 1_555
P2_17 O6_17 1_555 1_555
C1_17 C2_17 1_555 1_555
C2_17 C3_17 1_555 1_555
C7_17 P1_17 1_555 1_555
H6_17 C7_17 1_555 1_555
H7_17 C7_17 1_555 1_555
C8_17 C2_17 1_555 1_555
H8_17 C8_17 1_555 1_555
H9_17 C8_17 1_555 1_555
H10_17 C8_17 1_555 1_555
C9_17 P2_17 1_555 1_555
H12_17 C9_17 1_555 1_555
O3_17 P1_17 1_555 1_555
C1_17 C7_17 1_555 1_555
C3_17 C9_17 1_555 1_555
O8_18 H5_18 1_555 1_555
O13_11 P3_18 1_555 1_555
P3_18 O8_18 1_555 1_555
C4_18 C5_18 1_555 1_555
C5_18 C6_18 1_555 1_555
C10_18 C4_18 1_555 1_555
H13_18 C10_18 1_555 1_555
H14_18 C10_18 1_555 1_555
H15_18 C10_18 1_555 1_555
C11_18 P3_18 1_555 1_555
H16_18 C11_18 1_555 1_555
H17_18 C11_18 1_555 1_555
C12_18 C6_18 1_555 1_555
H18_18 C12_18 1_555 1_555
H19_18 C12_18 1_555 1_555
O10_18 P3_18 1_555 1_555
C5_18 C11_18 1_555 1_555
O11_4 P1_18 1_555 1_555
O6_18 H4_18 1_555 1_555
O12_9 P2_18 1_555 1_555
P1_18 O2_18 1_555 1_555
P2_18 O6_18 1_555 1_555
C1_18 C2_18 1_555 1_555
C2_18 C3_18 1_555 1_555
C7_18 P1_18 1_555 1_555
H6_18 C7_18 1_555 1_555
H7_18 C7_18 1_555 1_555
C8_18 C2_18 1_555 1_555
H8_18 C8_18 1_555 1_555
H9_18 C8_18 1_555 1_555
H10_18 C8_18 1_555 1_555
C9_18 P2_18 1_555 1_555
H12_18 C9_18 1_555 1_555
O3_18 P1_18 1_555 1_555
C1_18 C7_18 1_555 1_555
C3_18 C9_18 1_555 1_555
Al4_9 O1_22 1_555 1_555
O1_22 H1_18 1_555 1_555
H2_18 O1_22 1_555 1_555

#END
