
###############################################################################
#
# This file contains modified crystal structure data generated from the
# MOF subset of the Cambridge Structural Database (CSD) v543 
# hosted by the Cambridge Crystallographic Data Centre (CCDC).
#
# This work is licensed under the Creative Commons
# Attribution-NonCommercial-ShareAlike 4.0 International License.
# To view a copy of this license, visit
# http://creativecommons.org/licenses/by-nc-sa/4.0/
# or send a letter to
# Creative Commons, PO Box 1866, Mountain View, CA 94042, USA.
#
# CIF created using the CSD Python API on 29 September 2022
# The structure has been converted into the P1 space group
# The structure has a 3D framework
# The original CSD entry PITYUN is in the tetragonal crystal system
# The framework has been calculated to contain at least 10.0% void space
# The void calculation uses a probe of radius 1.32A, grid spacing 0.4
#
###############################################################################

data_PITYUN
_chemical_formula_moiety         '(C96 Ag24 F144 N82)n'
_symmetry_cell_setting           triclinic
_symmetry_space_group_name_H-M   'P 1'
_symmetry_Int_Tables_number      1
_space_group_name_Hall           'P 1'
loop_
_symmetry_equiv_pos_site_id
_symmetry_equiv_pos_as_xyz
1 x,y,z
_cell_length_a                   13.4273(7)
_cell_length_b                   13.4273(7)
_cell_length_c                   39.175(4)
_cell_angle_alpha                90
_cell_angle_beta                 90
_cell_angle_gamma                90
_cell_volume                     7062.95
loop_
_atom_site_label
_atom_site_type_symbol
_atom_site_fract_x
_atom_site_fract_y
_atom_site_fract_z
Ag1 Ag 0.0000 0.5000 0.09705(3)
N1 N 0.0000 0.5000 0.1535(3)
N3 N 0.0067(8) 0.6329(6) 0.0613(2)
N5 N 0.0589(8) 0.7624(8) 0.0308(3)
C4 C 0.0815(10) 0.6935(10) 0.0538(3)
C5 C 0.1842(12) 0.6913(11) 0.0696(4)
F4 F 0.2125(9) 0.7793(8) 0.0792(4)
F5 F 0.2537(8) 0.6701(12) 0.0464(3)
F6 F 0.1946(7) 0.6246(8) 0.0910(3)
Ag3 Ag 0.13847(7) 0.61705(7) 0.24462(3)
Ag6 Ag 0.13847(7) 0.88295(7) 0.00538(3)
Ag7 Ag 0.11705(7) 0.36153(7) 0.25538(3)
N6 N 0.0484(7) 0.4814(8) 0.2075(3)
N8 N 0.0186(8) 0.5484(7) 0.2925(3)
N10 N 0.0382(8) 0.2551(8) 0.0225(3)
N12 N 0.2551(8) 0.5382(8) 0.2725(3)
N15 N 0.0589(8) 0.7376(8) 0.2192(3)
C7 C 0.0711(10) 0.4707(10) 0.1750(3)
C8 C 0.1682(11) 0.4262(12) 0.1642(4)
C9 C 0.0632(10) 0.3313(9) 0.0410(3)
C12 C 0.1662(11) 0.3741(12) 0.0394(4)
F10 F 0.1554(8) 0.3372(9) 0.1518(3)
F11 F 0.2087(6) 0.4779(9) 0.1398(2)
F12 F 0.2290(7) 0.4122(10) 0.1890(2)
F16 F 0.2031(8) 0.3899(14) 0.0685(3)
F17 F 0.1630(9) 0.4681(8) 0.0273(4)
F18 F 0.2279(7) 0.3260(7) 0.0209(3)
Ag8 Ag 0.11705(7) 0.13847(7) 0.99462(3)
Ag1_2 Ag 1.0000 0.5000 0.09705(3)
Ag2 Ag 0.86153(7) 0.38295(7) 0.24462(3)
N1_2 N 1.0000 0.5000 0.1535(3)
N2 N 0.9516(7) 0.5186(8) 0.2075(3)
N4 N 0.9618(8) 0.7449(8) 0.0225(3)
C1 C 0.9289(10) 0.5293(10) 0.1750(3)
C2 C 0.8318(11) 0.5738(12) 0.1642(4)
C3 C 0.9368(10) 0.6687(9) 0.0410(3)
C6 C 0.8338(11) 0.6259(12) 0.0394(4)
F1 F 0.8446(8) 0.6628(9) 0.1518(3)
F2 F 0.7913(6) 0.5221(9) 0.1398(2)
F3 F 0.7710(7) 0.5878(10) 0.1890(2)
F7 F 0.7969(8) 0.6101(14) 0.0685(3)
F8 F 0.8370(9) 0.5319(8) 0.0273(4)
F9 F 0.7721(7) 0.6740(7) 0.0209(3)
Ag4 Ag 0.88295(7) 0.63847(7) 0.25538(3)
Ag9 Ag 0.86153(7) 0.11705(7) 0.00538(3)
N7 N 0.9814(8) 0.4516(7) 0.2925(3)
N9 N 0.9933(8) 0.3671(6) 0.0613(2)
N11 N 0.7449(8) 0.4618(8) 0.2725(3)
N13 N 0.9411(8) 0.2376(8) 0.0308(3)
N14 N 0.9411(8) 0.2624(8) 0.2192(3)
C10 C 0.9185(10) 0.3065(10) 0.0538(3)
C11 C 0.8158(12) 0.3087(11) 0.0696(4)
F13 F 0.7875(9) 0.2207(8) 0.0792(4)
F14 F 0.7463(8) 0.3299(12) 0.0464(3)
F15 F 0.8054(7) 0.3754(8) 0.0910(3)
Ag5 Ag 0.88295(7) 0.86153(7) 0.99462(3)
Ag1_3 Ag 0.5000 0.0000 0.90295(3)
Ag2_2 Ag 0.38295(7) 0.13847(7) 0.75538(3)
N1_3 N 0.5000 0.0000 0.8465(3)
N2_2 N 0.5186(8) 0.0484(7) 0.7925(3)
N4_2 N 0.7449(8) 0.0382(8) 0.9775(3)
C1_2 C 0.5293(10) 0.0711(10) 0.8250(3)
C2_2 C 0.5738(12) 0.1682(11) 0.8358(4)
C3_2 C 0.6687(9) 0.0632(10) 0.9590(3)
C6_2 C 0.6259(12) 0.1662(11) 0.9606(4)
F1_2 F 0.6628(9) 0.1554(8) 0.8482(3)
F2_2 F 0.5221(9) 0.2087(6) 0.8602(2)
F3_2 F 0.5878(10) 0.2290(7) 0.8110(2)
F7_2 F 0.6101(14) 0.2031(8) 0.9315(3)
F8_2 F 0.5319(8) 0.1630(9) 0.9727(4)
F9_2 F 0.6740(7) 0.2279(7) 0.9791(3)
Ag4_2 Ag 0.63847(7) 0.11705(7) 0.74462(3)
N7_2 N 0.4516(7) 0.0186(8) 0.7075(3)
N9_2 N 0.3671(6) 0.0067(8) 0.9387(2)
N11_2 N 0.4618(8) 0.2551(8) 0.7275(3)
N13_2 N 0.2376(8) 0.0589(8) 0.9692(3)
N14_2 N 0.2624(8) 0.0589(8) 0.7808(3)
C10_2 C 0.3065(10) 0.0815(10) 0.9462(3)
C11_2 C 0.3087(11) 0.1842(12) 0.9304(4)
F13_2 F 0.2207(8) 0.2125(9) 0.9208(4)
F14_2 F 0.3299(12) 0.2537(8) 0.9536(3)
F15_2 F 0.3754(8) 0.1946(7) 0.9090(3)
Ag1_4 Ag 0.5000 1.0000 0.90295(3)
N1_4 N 0.5000 1.0000 0.8465(3)
N3_2 N 0.6329(6) 0.9933(8) 0.9387(2)
N5_2 N 0.7624(8) 0.9411(8) 0.9692(3)
C4_2 C 0.6935(10) 0.9185(10) 0.9462(3)
C5_2 C 0.6913(11) 0.8158(12) 0.9304(4)
F4_2 F 0.7793(8) 0.7875(9) 0.9208(4)
F5_2 F 0.6701(12) 0.7463(8) 0.9536(3)
F6_2 F 0.6246(8) 0.8054(7) 0.9090(3)
Ag3_2 Ag 0.61705(7) 0.86153(7) 0.75538(3)
Ag7_2 Ag 0.36153(7) 0.88295(7) 0.74462(3)
N6_2 N 0.4814(8) 0.9516(7) 0.7925(3)
N8_2 N 0.5484(7) 0.9814(8) 0.7075(3)
N10_2 N 0.2551(8) 0.9618(8) 0.9775(3)
N12_2 N 0.5382(8) 0.7449(8) 0.7275(3)
N15_2 N 0.7376(8) 0.9411(8) 0.7808(3)
C7_2 C 0.4707(10) 0.9289(10) 0.8250(3)
C8_2 C 0.4262(12) 0.8318(11) 0.8358(4)
C9_2 C 0.3313(9) 0.9368(10) 0.9590(3)
C12_2 C 0.3741(12) 0.8338(11) 0.9606(4)
F10_2 F 0.3372(9) 0.8446(8) 0.8482(3)
F11_2 F 0.4779(9) 0.7913(6) 0.8602(2)
F12_2 F 0.4122(10) 0.7710(7) 0.8110(2)
F16_2 F 0.3899(14) 0.7969(8) 0.9315(3)
F17_2 F 0.4681(8) 0.8370(9) 0.9727(4)
F18_2 F 0.3260(7) 0.7721(7) 0.9791(3)
Ag1_5 Ag 0.5000 0.5000 0.65295(3)
Ag2_3 Ag 0.63847(7) 0.38295(7) 0.50538(3)
N1_5 N 0.5000 0.5000 0.5965(3)
N2_3 N 0.5484(7) 0.5186(8) 0.5425(3)
N3_3 N 0.4933(8) 0.6329(6) 0.6887(2)
N5_3 N 0.4411(8) 0.7624(8) 0.7192(3)
C1_3 C 0.5711(10) 0.5293(10) 0.5750(3)
C2_3 C 0.6682(11) 0.5738(12) 0.5858(4)
C3_3 C 0.5632(10) 0.6687(9) 0.7090(3)
C4_3 C 0.4185(10) 0.6935(10) 0.6962(3)
C5_3 C 0.3158(12) 0.6913(11) 0.6804(4)
C6_3 C 0.6662(11) 0.6259(12) 0.7106(4)
F1_3 F 0.6554(8) 0.6628(9) 0.5982(3)
F2_3 F 0.7087(6) 0.5221(9) 0.6102(2)
F3_3 F 0.7290(7) 0.5878(10) 0.5610(2)
F4_3 F 0.2875(9) 0.7793(8) 0.6708(4)
F5_3 F 0.2463(8) 0.6701(12) 0.7036(3)
F6_3 F 0.3054(7) 0.6246(8) 0.6590(3)
F7_3 F 0.7031(8) 0.6101(14) 0.6815(3)
F8_3 F 0.6630(9) 0.5319(8) 0.7227(4)
F9_3 F 0.7279(7) 0.6740(7) 0.7291(3)
Ag3_3 Ag 0.36153(7) 0.61705(7) 0.50538(3)
Ag4_3 Ag 0.61705(7) 0.63847(7) 0.49462(3)
Ag7_3 Ag 0.38295(7) 0.36153(7) 0.49462(3)
N6_3 N 0.4516(7) 0.4814(8) 0.5425(3)
N7_3 N 0.5186(8) 0.4516(7) 0.4575(3)
N8_3 N 0.4814(8) 0.5484(7) 0.4575(3)
N9_3 N 0.5067(8) 0.3671(6) 0.6887(2)
N11_3 N 0.7551(8) 0.4618(8) 0.4775(3)
N12_3 N 0.2449(8) 0.5382(8) 0.4775(3)
N13_3 N 0.5589(8) 0.2376(8) 0.7192(3)
N14_3 N 0.5589(8) 0.2624(8) 0.5308(3)
N15_3 N 0.4411(8) 0.7376(8) 0.5308(3)
C7_3 C 0.4289(10) 0.4707(10) 0.5750(3)
C8_3 C 0.3318(11) 0.4262(12) 0.5858(4)
C9_3 C 0.4368(10) 0.3313(9) 0.7090(3)
C10_3 C 0.5815(10) 0.3065(10) 0.6962(3)
C11_3 C 0.6842(12) 0.3087(11) 0.6804(4)
C12_3 C 0.3338(11) 0.3741(12) 0.7106(4)
F10_3 F 0.3446(8) 0.3372(9) 0.5982(3)
F11_3 F 0.2913(6) 0.4779(9) 0.6102(2)
F12_3 F 0.2710(7) 0.4122(10) 0.5610(2)
F13_3 F 0.7125(9) 0.2207(8) 0.6708(4)
F14_3 F 0.7537(8) 0.3299(12) 0.7036(3)
F15_3 F 0.6946(7) 0.3754(8) 0.6590(3)
F16_3 F 0.2969(8) 0.3899(14) 0.6815(3)
F17_3 F 0.3370(9) 0.4681(8) 0.7227(4)
F18_3 F 0.2721(7) 0.3260(7) 0.7291(3)
N7_4 N 0.0484(7) 0.0186(8) 0.0425(3)
Ag1_6 Ag 0.0000 0.0000 0.84705(3)
N1_6 N 0.0000 0.0000 0.9035(3)
N9_4 N 0.1329(6) 0.0067(8) 0.8113(2)
C10_4 C 0.1935(10) 0.0815(10) 0.8038(3)
C11_4 C 0.1913(11) 0.1842(12) 0.8196(4)
F13_4 F 0.2793(8) 0.2125(9) 0.8292(4)
F14_4 F 0.1701(12) 0.2537(8) 0.7964(3)
F15_4 F 0.1246(8) 0.1946(7) 0.8410(3)
Ag1_7 Ag 0.0000 1.0000 0.84705(3)
N1_7 N 0.0000 1.0000 0.9035(3)
N6_4 N 0.0186(8) 0.9516(7) 0.9575(3)
N10_3 N 0.2449(8) 0.9618(8) 0.7725(3)
C7_4 C 0.0293(10) 0.9289(10) 0.9250(3)
C8_4 C 0.0738(12) 0.8318(11) 0.9142(4)
C9_4 C 0.1687(9) 0.9368(10) 0.7910(3)
C12_4 C 0.1259(12) 0.8338(11) 0.7894(4)
F10_4 F 0.1628(9) 0.8446(8) 0.9018(3)
F11_4 F 0.0221(9) 0.7913(6) 0.8898(2)
F12_4 F 0.0878(10) 0.7710(7) 0.9390(2)
F16_4 F 0.1101(14) 0.7969(8) 0.8185(3)
F17_4 F 0.0319(8) 0.8370(9) 0.7773(4)
F18_4 F 0.1740(7) 0.7721(7) 0.7709(3)
Ag1_8 Ag 1.0000 0.0000 0.84705(3)
N1_8 N 1.0000 0.0000 0.9035(3)
N2_4 N 0.9814(8) 0.0484(7) 0.9575(3)
N4_3 N 0.7551(8) 0.0382(8) 0.7725(3)
C1_4 C 0.9707(10) 0.0711(10) 0.9250(3)
C2_4 C 0.9262(12) 0.1682(11) 0.9142(4)
C3_4 C 0.8313(9) 0.0632(10) 0.7910(3)
C6_4 C 0.8741(12) 0.1662(11) 0.7894(4)
F1_4 F 0.8372(9) 0.1554(8) 0.9018(3)
F2_4 F 0.9779(9) 0.2087(6) 0.8898(2)
F3_4 F 0.9122(10) 0.2290(7) 0.9390(2)
F7_4 F 0.8899(14) 0.2031(8) 0.8185(3)
F8_4 F 0.9681(8) 0.1630(9) 0.7773(4)
F9_4 F 0.8260(7) 0.2279(7) 0.7709(3)
N8_4 N 0.9516(7) 0.9814(8) 0.0425(3)
Ag1_9 Ag 1.0000 1.0000 0.84705(3)
N1_9 N 1.0000 1.0000 0.9035(3)
N3_4 N 0.8671(6) 0.9933(8) 0.8113(2)
C4_4 C 0.8065(10) 0.9185(10) 0.8038(3)
C5_4 C 0.8087(11) 0.8158(12) 0.8196(4)
F4_4 F 0.7207(8) 0.7875(9) 0.8292(4)
F5_4 F 0.8299(12) 0.7463(8) 0.7964(3)
F6_4 F 0.8754(8) 0.8054(7) 0.8410(3)
Ag1_10 Ag 0.5000 0.0000 0.59705(3)
N1_10 N 0.5000 0.0000 0.6535(3)
N3_5 N 0.5067(8) 0.1329(6) 0.5613(2)
N4_4 N 0.4618(8) 0.2449(8) 0.5225(3)
C1_5 C 0.4289(10) 0.0293(10) 0.6750(3)
C2_5 C 0.3318(11) 0.0738(12) 0.6642(4)
C3_5 C 0.4368(10) 0.1687(9) 0.5410(3)
C4_5 C 0.5815(10) 0.1935(10) 0.5538(3)
C5_5 C 0.6842(12) 0.1913(11) 0.5696(4)
C6_5 C 0.3338(11) 0.1259(12) 0.5394(4)
F1_5 F 0.3446(8) 0.1628(9) 0.6518(3)
F2_5 F 0.2913(6) 0.0221(9) 0.6398(2)
F3_5 F 0.2710(7) 0.0878(10) 0.6890(2)
F4_5 F 0.7125(9) 0.2793(8) 0.5792(4)
F5_5 F 0.7537(8) 0.1701(12) 0.5464(3)
F6_5 F 0.6946(7) 0.1246(8) 0.5910(3)
F7_5 F 0.2969(8) 0.1101(14) 0.5685(3)
F8_5 F 0.3370(9) 0.0319(8) 0.5273(4)
F9_5 F 0.2721(7) 0.1740(7) 0.5209(3)
Ag1_11 Ag 0.5000 1.0000 0.59705(3)
N1_11 N 0.5000 1.0000 0.6535(3)
N9_5 N 0.4933(8) 0.8671(6) 0.5613(2)
N10_4 N 0.5382(8) 0.7551(8) 0.5225(3)
C7_5 C 0.5711(10) 0.9707(10) 0.6750(3)
C8_5 C 0.6682(11) 0.9262(12) 0.6642(4)
C9_5 C 0.5632(10) 0.8313(9) 0.5410(3)
C10_5 C 0.4185(10) 0.8065(10) 0.5538(3)
C11_5 C 0.3158(12) 0.8087(11) 0.5696(4)
C12_5 C 0.6662(11) 0.8741(12) 0.5394(4)
F10_5 F 0.6554(8) 0.8372(9) 0.6518(3)
F11_5 F 0.7087(6) 0.9779(9) 0.6398(2)
F12_5 F 0.7290(7) 0.9122(10) 0.6890(2)
F13_5 F 0.2875(9) 0.7207(8) 0.5792(4)
F14_5 F 0.2463(8) 0.8299(12) 0.5464(3)
F15_5 F 0.3054(7) 0.8754(8) 0.5910(3)
F16_5 F 0.7031(8) 0.8899(14) 0.5685(3)
F17_5 F 0.6630(9) 0.9681(8) 0.5273(4)
F18_5 F 0.7279(7) 0.8260(7) 0.5209(3)
Ag1_12 Ag 0.0000 0.5000 0.40295(3)
N1_12 N 0.0000 0.5000 0.3465(3)
N3_6 N 0.1329(6) 0.4933(8) 0.4387(2)
N5_4 N 0.2624(8) 0.4411(8) 0.4692(3)
C1_6 C 0.0293(10) 0.5711(10) 0.3250(3)
C2_6 C 0.0738(12) 0.6682(11) 0.3358(4)
C3_6 C 0.1687(9) 0.5632(10) 0.4590(3)
C4_6 C 0.1935(10) 0.4185(10) 0.4462(3)
C5_6 C 0.1913(11) 0.3158(12) 0.4304(4)
C6_6 C 0.1259(12) 0.6662(11) 0.4606(4)
F1_6 F 0.1628(9) 0.6554(8) 0.3482(3)
F2_6 F 0.0221(9) 0.7087(6) 0.3602(2)
F3_6 F 0.0878(10) 0.7290(7) 0.3110(2)
F4_6 F 0.2793(8) 0.2875(9) 0.4208(4)
F5_6 F 0.1701(12) 0.2463(8) 0.4536(3)
F6_6 F 0.1246(8) 0.3054(7) 0.4090(3)
F7_6 F 0.1101(14) 0.7031(8) 0.4315(3)
F8_6 F 0.0319(8) 0.6630(9) 0.4727(4)
F9_6 F 0.1740(7) 0.7279(7) 0.4791(3)
N12_4 N 0.0382(8) 0.2449(8) 0.2275(3)
N15_4 N 0.2376(8) 0.4411(8) 0.2808(3)
Ag1_13 Ag 1.0000 0.5000 0.40295(3)
N1_13 N 1.0000 0.5000 0.3465(3)
N9_6 N 0.8671(6) 0.5067(8) 0.4387(2)
N11_4 N 0.9618(8) 0.7551(8) 0.2275(3)
N13_4 N 0.7376(8) 0.5589(8) 0.4692(3)
N14_4 N 0.7624(8) 0.5589(8) 0.2808(3)
C7_6 C 0.9707(10) 0.4289(10) 0.3250(3)
C8_6 C 0.9262(12) 0.3318(11) 0.3358(4)
C9_6 C 0.8313(9) 0.4368(10) 0.4590(3)
C10_6 C 0.8065(10) 0.5815(10) 0.4462(3)
C11_6 C 0.8087(11) 0.6842(12) 0.4304(4)
C12_6 C 0.8741(12) 0.3338(11) 0.4606(4)
F10_6 F 0.8372(9) 0.3446(8) 0.3482(3)
F11_6 F 0.9779(9) 0.2913(6) 0.3602(2)
F12_6 F 0.9122(10) 0.2710(7) 0.3110(2)
F13_6 F 0.7207(8) 0.7125(9) 0.4208(4)
F14_6 F 0.8299(12) 0.7537(8) 0.4536(3)
F15_6 F 0.8754(8) 0.6946(7) 0.4090(3)
F16_6 F 0.8899(14) 0.2969(8) 0.4315(3)
F17_6 F 0.9681(8) 0.3370(9) 0.4727(4)
F18_6 F 0.8260(7) 0.2721(7) 0.4791(3)
Ag1_14 Ag 0.0000 0.0000 0.15295(3)
N1_14 N 0.0000 0.0000 0.0965(3)
C1_7 C 0.0711(10) 0.0293(10) 0.0750(3)
C2_7 C 0.1682(11) 0.0738(12) 0.0858(4)
C3_7 C 0.0632(10) 0.1687(9) 0.2090(3)
C6_7 C 0.1662(11) 0.1259(12) 0.2106(4)
F1_7 F 0.1554(8) 0.1628(9) 0.0982(3)
F2_7 F 0.2087(6) 0.0221(9) 0.1102(2)
F3_7 F 0.2290(7) 0.0878(10) 0.0610(2)
F7_7 F 0.2031(8) 0.1101(14) 0.1815(3)
F8_7 F 0.1630(9) 0.0319(8) 0.2227(4)
F9_7 F 0.2279(7) 0.1740(7) 0.2291(3)
Ag1_15 Ag -0.0000 1.0000 0.15295(3)
N1_15 N -0.0000 1.0000 0.0965(3)
N9_7 N 0.0067(8) 0.8671(6) 0.1887(2)
C10_7 C 0.0815(10) 0.8065(10) 0.1962(3)
C11_7 C 0.1842(12) 0.8087(11) 0.1804(4)
F13_7 F 0.2125(9) 0.7207(8) 0.1708(4)
F14_7 F 0.2537(8) 0.8299(12) 0.2036(3)
F15_7 F 0.1946(7) 0.8754(8) 0.1590(3)
Ag1_16 Ag 1.0000 0.0000 0.15295(3)
N1_16 N 1.0000 0.0000 0.0965(3)
N3_7 N 0.9933(8) 0.1329(6) 0.1887(2)
C4_7 C 0.9185(10) 0.1935(10) 0.1962(3)
C5_7 C 0.8158(12) 0.1913(11) 0.1804(4)
F4_7 F 0.7875(9) 0.2793(8) 0.1708(4)
F5_7 F 0.7463(8) 0.1701(12) 0.2036(3)
F6_7 F 0.8054(7) 0.1246(8) 0.1590(3)
Ag1_17 Ag 1.0000 1.0000 0.15295(3)
N1_17 N 1.0000 1.0000 0.0965(3)
C7_7 C 0.9289(10) 0.9707(10) 0.0750(3)
C8_7 C 0.8318(11) 0.9262(12) 0.0858(4)
C9_7 C 0.9368(10) 0.8313(9) 0.2090(3)
C12_7 C 0.8338(11) 0.8741(12) 0.2106(4)
F10_7 F 0.8446(8) 0.8372(9) 0.0982(3)
F11_7 F 0.7913(6) 0.9779(9) 0.1102(2)
F12_7 F 0.7710(7) 0.9122(10) 0.0610(2)
F16_7 F 0.7969(8) 0.8899(14) 0.1815(3)
F17_7 F 0.8370(9) 0.9681(8) 0.2227(4)
F18_7 F 0.7721(7) 0.8260(7) 0.2291(3)
Ag1_18 Ag 0.5000 0.5000 0.34705(3)
N1_18 N 0.5000 0.5000 0.4035(3)
N3_8 N 0.3671(6) 0.4933(8) 0.3113(2)
C1_8 C 0.4707(10) 0.5711(10) 0.4250(3)
C2_8 C 0.4262(12) 0.6682(11) 0.4142(4)
C3_8 C 0.3313(9) 0.5632(10) 0.2910(3)
C4_8 C 0.3065(10) 0.4185(10) 0.3038(3)
C5_8 C 0.3087(11) 0.3158(12) 0.3196(4)
C6_8 C 0.3741(12) 0.6662(11) 0.2894(4)
F1_8 F 0.3372(9) 0.6554(8) 0.4018(3)
F2_8 F 0.4779(9) 0.7087(6) 0.3898(2)
F3_8 F 0.4122(10) 0.7290(7) 0.4390(2)
F4_8 F 0.2207(8) 0.2875(9) 0.3292(4)
F5_8 F 0.3299(12) 0.2463(8) 0.2964(3)
F6_8 F 0.3754(8) 0.3054(7) 0.3410(3)
F7_8 F 0.3899(14) 0.7031(8) 0.3185(3)
F8_8 F 0.4681(8) 0.6630(9) 0.2773(4)
F9_8 F 0.3260(7) 0.7279(7) 0.2709(3)
N9_8 N 0.6329(6) 0.5067(8) 0.3113(2)
C7_8 C 0.5293(10) 0.4289(10) 0.4250(3)
C8_8 C 0.5738(12) 0.3318(11) 0.4142(4)
C9_8 C 0.6687(9) 0.4368(10) 0.2910(3)
C10_8 C 0.6935(10) 0.5815(10) 0.3038(3)
C11_8 C 0.6913(11) 0.6842(12) 0.3196(4)
C12_8 C 0.6259(12) 0.3338(11) 0.2894(4)
F10_8 F 0.6628(9) 0.3446(8) 0.4018(3)
F11_8 F 0.5221(9) 0.2913(6) 0.3898(2)
F12_8 F 0.5878(10) 0.2710(7) 0.4390(2)
F13_8 F 0.7793(8) 0.7125(9) 0.3292(4)
F14_8 F 0.6701(12) 0.7537(8) 0.2964(3)
F15_8 F 0.6246(8) 0.6946(7) 0.3410(3)
F16_8 F 0.6101(14) 0.2969(8) 0.3185(3)
F17_8 F 0.5319(8) 0.3370(9) 0.2773(4)
F18_8 F 0.6740(7) 0.2721(7) 0.2709(3)
loop_
_geom_bond_atom_site_label_1
_geom_bond_atom_site_label_2
_geom_bond_site_symmetry_1
_geom_bond_site_symmetry_2
Ag1 N1 1_555 1_555
N3 Ag1 1_555 1_555
N5 C4 1_555 1_555
C4 N3 1_555 1_555
C5 C4 1_555 1_555
F4 C5 1_555 1_555
F5 C5 1_555 1_555
F6 C5 1_555 1_555
Ag3 N6 1_555 1_555
Ag6 N5 1_555 1_555
Ag7 N6 1_555 1_555
N8 Ag3 1_555 1_555
N12 Ag3 1_555 1_555
N15 Ag3 1_555 1_555
C7 N1 1_555 1_555
C8 C7 1_555 1_555
C12 C9 1_555 1_555
F10 C8 1_555 1_555
F11 C8 1_555 1_555
F12 C8 1_555 1_555
F16 C12 1_555 1_555
F17 C12 1_555 1_555
F18 C12 1_555 1_555
N6 C7 1_555 1_555
N10 C9 1_555 1_555
Ag1_2 N1_2 1_555 1_555
Ag2 N2 1_555 1_555
N1_2 C1 1_555 1_555
N2 C1 1_555 1_555
C1 C2 1_555 1_555
C2 F1 1_555 1_555
C6 C3 1_555 1_555
F2 C2 1_555 1_555
F3 C2 1_555 1_555
F7 C6 1_555 1_555
F8 C6 1_555 1_555
F9 C6 1_555 1_555
Ag4 N2 1_555 1_555
Ag9 N13 1_555 1_555
N7 Ag2 1_555 1_555
N9 Ag1_2 1_555 1_555
N11 Ag2 1_555 1_555
N13 C10 1_555 1_555
N14 Ag2 1_555 1_555
C10 N9 1_555 1_555
C11 C10 1_555 1_555
F13 C11 1_555 1_555
F14 C11 1_555 1_555
F15 C11 1_555 1_555
N4 C3 1_555 1_555
Ag1_3 N1_3 1_555 1_555
Ag2_2 N2_2 1_555 1_555
N1_3 C1_2 1_555 1_555
N2_2 C1_2 1_555 1_555
C1_2 C2_2 1_555 1_555
C2_2 F1_2 1_555 1_555
C6_2 C3_2 1_555 1_555
F2_2 C2_2 1_555 1_555
F3_2 C2_2 1_555 1_555
F7_2 C6_2 1_555 1_555
F8_2 C6_2 1_555 1_555
F9_2 C6_2 1_555 1_555
Ag4_2 N2_2 1_555 1_555
Ag8 N13_2 1_555 1_555
N7_2 Ag2_2 1_555 1_555
N9_2 Ag1_3 1_555 1_555
N11_2 Ag2_2 1_555 1_555
N13_2 C10_2 1_555 1_555
N14_2 Ag2_2 1_555 1_555
C10_2 N9_2 1_555 1_555
C11_2 C10_2 1_555 1_555
F13_2 C11_2 1_555 1_555
F14_2 C11_2 1_555 1_555
F15_2 C11_2 1_555 1_555
N4_2 C3_2 1_555 1_555
Ag1_4 N1_4 1_555 1_555
N3_2 Ag1_4 1_555 1_555
N5_2 C4_2 1_555 1_555
C4_2 N3_2 1_555 1_555
C5_2 C4_2 1_555 1_555
F4_2 C5_2 1_555 1_555
F5_2 C5_2 1_555 1_555
F6_2 C5_2 1_555 1_555
Ag3_2 N6_2 1_555 1_555
Ag5 N5_2 1_555 1_555
Ag7_2 N6_2 1_555 1_555
N8_2 Ag3_2 1_555 1_555
N12_2 Ag3_2 1_555 1_555
N15_2 Ag3_2 1_555 1_555
C7_2 N1_4 1_555 1_555
C8_2 C7_2 1_555 1_555
C12_2 C9_2 1_555 1_555
F10_2 C8_2 1_555 1_555
F11_2 C8_2 1_555 1_555
F12_2 C8_2 1_555 1_555
F16_2 C12_2 1_555 1_555
F17_2 C12_2 1_555 1_555
F18_2 C12_2 1_555 1_555
N6_2 C7_2 1_555 1_555
N10_2 C9_2 1_555 1_555
Ag1_5 N1_5 1_555 1_555
Ag2_3 N2_3 1_555 1_555
N1_5 C1_3 1_555 1_555
N2_3 C1_3 1_555 1_555
N3_3 Ag1_5 1_555 1_555
N12_2 N5_3 1_555 1_555
N5_3 C4_3 1_555 1_555
C1_3 C2_3 1_555 1_555
C2_3 F1_3 1_555 1_555
C3_3 N3_3 1_555 1_555
C4_3 N3_3 1_555 1_555
C5_3 C4_3 1_555 1_555
C6_3 C3_3 1_555 1_555
F2_3 C2_3 1_555 1_555
F3_3 C2_3 1_555 1_555
F4_3 C5_3 1_555 1_555
F5_3 C5_3 1_555 1_555
F6_3 C5_3 1_555 1_555
F7_3 C6_3 1_555 1_555
F8_3 C6_3 1_555 1_555
F9_3 C6_3 1_555 1_555
Ag3_3 N6_3 1_555 1_555
Ag4_3 N2_3 1_555 1_555
Ag7_2 N5_3 1_555 1_555
Ag7_3 N6_3 1_555 1_555
Ag4_2 N13_3 1_555 1_555
N6_3 N2_3 1_555 1_555
N7_3 Ag2_3 1_555 1_555
N8_3 Ag3_3 1_555 1_555
N9_3 Ag1_5 1_555 1_555
N11_2 N13_3 1_555 1_555
N11_3 Ag2_3 1_555 1_555
N12_3 Ag3_3 1_555 1_555
N13_3 C10_3 1_555 1_555
N14_3 Ag2_3 1_555 1_555
N15_3 Ag3_3 1_555 1_555
C7_3 N1_5 1_555 1_555
C8_3 C7_3 1_555 1_555
C9_3 N9_3 1_555 1_555
C10_3 N9_3 1_555 1_555
C11_3 C10_3 1_555 1_555
C12_3 C9_3 1_555 1_555
F10_3 C8_3 1_555 1_555
F11_3 C8_3 1_555 1_555
F12_3 C8_3 1_555 1_555
F13_3 C11_3 1_555 1_555
F14_3 C11_3 1_555 1_555
F15_3 C11_3 1_555 1_555
F16_3 C12_3 1_555 1_555
F17_3 C12_3 1_555 1_555
F18_3 C12_3 1_555 1_555
N12_2 C3_3 1_555 1_555
Ag4_3 N8_3 1_555 1_555
Ag7_3 N7_3 1_555 1_555
N6_3 C7_3 1_555 1_555
N7_3 N8_3 1_555 1_555
N11_2 C9_3 1_555 1_555
Ag1_6 N1_6 1_555 1_555
N9_4 Ag1_6 1_555 1_555
N14_2 C10_4 1_555 1_555
C10_4 N9_4 1_555 1_555
C11_4 C10_4 1_555 1_555
F13_4 C11_4 1_555 1_555
F14_4 C11_4 1_555 1_555
F15_4 C11_4 1_555 1_555
Ag1_7 N1_7 1_555 1_555
Ag7_2 N10_3 1_555 1_555
C7_4 N1_7 1_555 1_555
C8_4 C7_4 1_555 1_555
C12_4 C9_4 1_555 1_555
F10_4 C8_4 1_555 1_555
F11_4 C8_4 1_555 1_555
F12_4 C8_4 1_555 1_555
F16_4 C12_4 1_555 1_555
F17_4 C12_4 1_555 1_555
F18_4 C12_4 1_555 1_555
N6_4 C7_4 1_555 1_555
N10_3 C9_4 1_555 1_555
Ag1_8 N1_8 1_555 1_555
N1_8 C1_4 1_555 1_555
N2_4 C1_4 1_555 1_555
C1_4 C2_4 1_555 1_555
C2_4 F1_4 1_555 1_555
C6_4 C3_4 1_555 1_555
F2_4 C2_4 1_555 1_555
F3_4 C2_4 1_555 1_555
F7_4 C6_4 1_555 1_555
F8_4 C6_4 1_555 1_555
F9_4 C6_4 1_555 1_555
Ag4_2 N4_3 1_555 1_555
N4_3 C3_4 1_555 1_555
Ag1_9 N1_9 1_555 1_555
N3_4 Ag1_9 1_555 1_555
N15_2 C4_4 1_555 1_555
C4_4 N3_4 1_555 1_555
C5_4 C4_4 1_555 1_555
F4_4 C5_4 1_555 1_555
F5_4 C5_4 1_555 1_555
F6_4 C5_4 1_555 1_555
Ag1_10 N1_10 1_555 1_555
N1_10 C1_5 1_555 1_555
N7_2 C1_5 1_555 1_555
N3_5 Ag1_10 1_555 1_555
N4_4 N14_3 1_555 1_555
N14_3 C4_5 1_555 1_555
C1_5 C2_5 1_555 1_555
C2_5 F1_5 1_555 1_555
C3_5 N3_5 1_555 1_555
C4_5 N3_5 1_555 1_555
C5_5 C4_5 1_555 1_555
C6_5 C3_5 1_555 1_555
F2_5 C2_5 1_555 1_555
F3_5 C2_5 1_555 1_555
F4_5 C5_5 1_555 1_555
F5_5 C5_5 1_555 1_555
F6_5 C5_5 1_555 1_555
F7_5 C6_5 1_555 1_555
F8_5 C6_5 1_555 1_555
F9_5 C6_5 1_555 1_555
Ag7_3 N4_4 1_555 1_555
N4_4 C3_5 1_555 1_555
Ag1_11 N1_11 1_555 1_555
Ag4_3 N10_4 1_555 1_555
N9_5 Ag1_11 1_555 1_555
N10_4 N15_3 1_555 1_555
N15_3 C10_5 1_555 1_555
C7_5 N1_11 1_555 1_555
C8_5 C7_5 1_555 1_555
C9_5 N9_5 1_555 1_555
C10_5 N9_5 1_555 1_555
C11_5 C10_5 1_555 1_555
C12_5 C9_5 1_555 1_555
F10_5 C8_5 1_555 1_555
F11_5 C8_5 1_555 1_555
F12_5 C8_5 1_555 1_555
F13_5 C11_5 1_555 1_555
F14_5 C11_5 1_555 1_555
F15_5 C11_5 1_555 1_555
F16_5 C12_5 1_555 1_555
F17_5 C12_5 1_555 1_555
F18_5 C12_5 1_555 1_555
N8_2 C7_5 1_555 1_555
N10_4 C9_5 1_555 1_555
Ag1_12 N1_12 1_555 1_555
N1_12 C1_6 1_555 1_555
N8 C1_6 1_555 1_555
N3_6 Ag1_12 1_555 1_555
N12_3 N5_4 1_555 1_555
N5_4 C4_6 1_555 1_555
C1_6 C2_6 1_555 1_555
C2_6 F1_6 1_555 1_555
C3_6 N3_6 1_555 1_555
C4_6 N3_6 1_555 1_555
C5_6 C4_6 1_555 1_555
C6_6 C3_6 1_555 1_555
F2_6 C2_6 1_555 1_555
F3_6 C2_6 1_555 1_555
F4_6 C5_6 1_555 1_555
F5_6 C5_6 1_555 1_555
F6_6 C5_6 1_555 1_555
F7_6 C6_6 1_555 1_555
F8_6 C6_6 1_555 1_555
F9_6 C6_6 1_555 1_555
Ag7_3 N5_4 1_555 1_555
N12_4 Ag7 1_555 1_555
N15_4 Ag7 1_555 1_555
N12_3 C3_6 1_555 1_555
Ag1_13 N1_13 1_555 1_555
Ag4_3 N13_4 1_555 1_555
N9_6 Ag1_13 1_555 1_555
N11_3 N13_4 1_555 1_555
N11_4 Ag4 1_555 1_555
N13_4 C10_6 1_555 1_555
N14_4 Ag4 1_555 1_555
C7_6 N1_13 1_555 1_555
C8_6 C7_6 1_555 1_555
C9_6 N9_6 1_555 1_555
C10_6 N9_6 1_555 1_555
C11_6 C10_6 1_555 1_555
C12_6 C9_6 1_555 1_555
F10_6 C8_6 1_555 1_555
F11_6 C8_6 1_555 1_555
F12_6 C8_6 1_555 1_555
F13_6 C11_6 1_555 1_555
F14_6 C11_6 1_555 1_555
F15_6 C11_6 1_555 1_555
F16_6 C12_6 1_555 1_555
F17_6 C12_6 1_555 1_555
F18_6 C12_6 1_555 1_555
N7 C7_6 1_555 1_555
N11_3 C9_6 1_555 1_555
Ag1_14 N1_14 1_555 1_555
N1_14 C1_7 1_555 1_555
N7_4 C1_7 1_555 1_555
C1_7 C2_7 1_555 1_555
C2_7 F1_7 1_555 1_555
C6_7 C3_7 1_555 1_555
F2_7 C2_7 1_555 1_555
F3_7 C2_7 1_555 1_555
F7_7 C6_7 1_555 1_555
F8_7 C6_7 1_555 1_555
F9_7 C6_7 1_555 1_555
N12_4 C3_7 1_555 1_555
Ag1_15 N1_15 1_555 1_555
N9_7 Ag1_15 1_555 1_555
N15 C10_7 1_555 1_555
C10_7 N9_7 1_555 1_555
C11_7 C10_7 1_555 1_555
F13_7 C11_7 1_555 1_555
F14_7 C11_7 1_555 1_555
F15_7 C11_7 1_555 1_555
Ag1_16 N1_16 1_555 1_555
N3_7 Ag1_16 1_555 1_555
N14 C4_7 1_555 1_555
C4_7 N3_7 1_555 1_555
C5_7 C4_7 1_555 1_555
F4_7 C5_7 1_555 1_555
F5_7 C5_7 1_555 1_555
F6_7 C5_7 1_555 1_555
Ag1_17 N1_17 1_555 1_555
C7_7 N1_17 1_555 1_555
C8_7 C7_7 1_555 1_555
C12_7 C9_7 1_555 1_555
F10_7 C8_7 1_555 1_555
F11_7 C8_7 1_555 1_555
F12_7 C8_7 1_555 1_555
F16_7 C12_7 1_555 1_555
F17_7 C12_7 1_555 1_555
F18_7 C12_7 1_555 1_555
N8_4 C7_7 1_555 1_555
N11_4 C9_7 1_555 1_555
Ag1_18 N1_18 1_555 1_555
N1_18 C1_8 1_555 1_555
N8_3 C1_8 1_555 1_555
N3_8 Ag1_18 1_555 1_555
N12 N15_4 1_555 1_555
N15_4 C4_8 1_555 1_555
C1_8 C2_8 1_555 1_555
C2_8 F1_8 1_555 1_555
C3_8 N3_8 1_555 1_555
C4_8 N3_8 1_555 1_555
C5_8 C4_8 1_555 1_555
C6_8 C3_8 1_555 1_555
F2_8 C2_8 1_555 1_555
F3_8 C2_8 1_555 1_555
F4_8 C5_8 1_555 1_555
F5_8 C5_8 1_555 1_555
F6_8 C5_8 1_555 1_555
F7_8 C6_8 1_555 1_555
F8_8 C6_8 1_555 1_555
F9_8 C6_8 1_555 1_555
N9_8 Ag1_18 1_555 1_555
N11 N14_4 1_555 1_555
N14_4 C10_8 1_555 1_555
C7_8 N1_18 1_555 1_555
C8_8 C7_8 1_555 1_555
C9_8 N9_8 1_555 1_555
C10_8 N9_8 1_555 1_555
C11_8 C10_8 1_555 1_555
C12_8 C9_8 1_555 1_555
F10_8 C8_8 1_555 1_555
F11_8 C8_8 1_555 1_555
F12_8 C8_8 1_555 1_555
F13_8 C11_8 1_555 1_555
F14_8 C11_8 1_555 1_555
F15_8 C11_8 1_555 1_555
F16_8 C12_8 1_555 1_555
F17_8 C12_8 1_555 1_555
F18_8 C12_8 1_555 1_555
N12 C3_8 1_555 1_555
N7_3 C7_8 1_555 1_555
N11 C9_8 1_555 1_555

#END
