
###############################################################################
#
# This file contains modified crystal structure data generated from the
# MOF subset of the Cambridge Structural Database (CSD) v543 
# hosted by the Cambridge Crystallographic Data Centre (CCDC).
#
# This work is licensed under the Creative Commons
# Attribution-NonCommercial-ShareAlike 4.0 International License.
# To view a copy of this license, visit
# http://creativecommons.org/licenses/by-nc-sa/4.0/
# or send a letter to
# Creative Commons, PO Box 1866, Mountain View, CA 94042, USA.
#
# CIF created using the CSD Python API on 29 September 2022
# The structure has been converted into the P1 space group
# The structure has a 3D framework
# The original CSD entry PITYUN01 is in the tetragonal crystal system
# The framework has been calculated to contain at least 10.0% void space
# The void calculation uses a probe of radius 1.32A, grid spacing 0.4
#
###############################################################################

data_PITYUN01
_chemical_formula_moiety         '(C96 Ag24 F144 N82)n'
_symmetry_cell_setting           triclinic
_symmetry_space_group_name_H-M   'P 1'
_symmetry_Int_Tables_number      1
_space_group_name_Hall           'P 1'
loop_
_symmetry_equiv_pos_site_id
_symmetry_equiv_pos_as_xyz
1 x,y,z
_cell_length_a                   14.0733(5)
_cell_length_b                   14.0733(5)
_cell_length_c                   37.675(3)
_cell_angle_alpha                90
_cell_angle_beta                 90
_cell_angle_gamma                90
_cell_volume                     7461.83
loop_
_atom_site_label
_atom_site_type_symbol
_atom_site_fract_x
_atom_site_fract_y
_atom_site_fract_z
Ag1 Ag -0.0000 0.5000 0.08870(3)
N1 N 0.0000 0.5000 0.1483(3)
N3 N 0.0081(6) 0.6345(6) 0.0543(2)
N5 N 0.0569(6) 0.7673(6) 0.0292(2)
C4 C 0.0780(8) 0.6966(8) 0.0502(3)
C5 C 0.1716(11) 0.6919(10) 0.0681(5)
F4 F 0.2141(7) 0.7669(7) 0.0727(3)
F5 F 0.2340(9) 0.6459(12) 0.0458(6)
F6 F 0.1766(9) 0.6354(10) 0.0923(4)
Ag3 Ag 0.13174(6) 0.60979(6) 0.24322(2)
Ag6 Ag 0.13174(6) 0.89021(6) 0.00678(2)
Ag7 Ag 0.10979(6) 0.36826(6) 0.25678(2)
N6 N 0.0446(6) 0.4816(7) 0.2049(2)
N8 N 0.0184(7) 0.5446(6) 0.2951(2)
N10 N 0.0333(6) 0.2500(6) 0.0181(2)
N12 N 0.2500(6) 0.5333(6) 0.2681(2)
N15 N 0.0569(6) 0.7327(6) 0.2208(2)
C7 C 0.0672(7) 0.4722(7) 0.1713(3)
C8 C 0.1659(16) 0.4423(16) 0.1607(4)
C9 C 0.0587(7) 0.3288(7) 0.0336(3)
C12 C 0.1535(12) 0.3711(13) 0.0290(5)
F10 F 0.1487(10) 0.3498(14) 0.1476(6)
F11 F 0.1935(8) 0.4651(13) 0.1327(4)
F12 F 0.2154(7) 0.4140(13) 0.1841(3)
F16 F 0.1835(9) 0.4163(14) 0.0526(4)
F17 F 0.1484(12) 0.4398(16) 0.0060(6)
F18 F 0.2092(8) 0.3272(10) 0.0107(6)
Ag8 Ag 0.10979(6) 0.13174(6) 0.99322(2)
Ag1_2 Ag 1.0000 0.5000 0.08870(3)
Ag2 Ag 0.86826(6) 0.39021(6) 0.24322(2)
N1_2 N 1.0000 0.5000 0.1483(3)
N2 N 0.9554(6) 0.5184(7) 0.2049(2)
N4 N 0.9667(6) 0.7500(6) 0.0181(2)
C1 C 0.9328(7) 0.5278(7) 0.1713(3)
C2 C 0.8341(16) 0.5577(16) 0.1607(4)
C3 C 0.9413(7) 0.6712(7) 0.0336(3)
C6 C 0.8465(12) 0.6289(13) 0.0290(5)
F1 F 0.8513(10) 0.6502(14) 0.1476(6)
F2 F 0.8065(8) 0.5349(13) 0.1327(4)
F3 F 0.7846(7) 0.5860(13) 0.1841(3)
F7 F 0.8165(9) 0.5837(14) 0.0526(4)
F8 F 0.8516(12) 0.5602(16) 0.0060(6)
F9 F 0.7908(8) 0.6728(10) 0.0107(6)
Ag4 Ag 0.89021(6) 0.63174(6) 0.25678(2)
Ag9 Ag 0.86826(6) 0.10979(6) 0.00678(2)
N7 N 0.9816(7) 0.4554(6) 0.2951(2)
N9 N 0.9919(6) 0.3655(6) 0.0543(2)
N11 N 0.7500(6) 0.4667(6) 0.2681(2)
N13 N 0.9431(6) 0.2327(6) 0.0292(2)
N14 N 0.9431(6) 0.2673(6) 0.2208(2)
C10 C 0.9220(8) 0.3034(8) 0.0502(3)
C11 C 0.8284(11) 0.3081(10) 0.0681(5)
F13 F 0.7859(7) 0.2331(7) 0.0727(3)
F14 F 0.7660(9) 0.3541(12) 0.0458(6)
F15 F 0.8234(9) 0.3646(10) 0.0923(4)
Ag5 Ag 0.89021(6) 0.86826(6) 0.99322(2)
Ag1_3 Ag 0.5000 -0.0000 0.91130(3)
Ag2_2 Ag 0.39021(6) 0.13174(6) 0.75678(2)
N1_3 N 0.5000 0.0000 0.8517(3)
N2_2 N 0.5184(7) 0.0446(6) 0.7951(2)
N4_2 N 0.7500(6) 0.0333(6) 0.9819(2)
C1_2 C 0.5278(7) 0.0672(7) 0.8287(3)
C2_2 C 0.5577(16) 0.1659(16) 0.8393(4)
C3_2 C 0.6712(7) 0.0587(7) 0.9664(3)
C6_2 C 0.6289(13) 0.1535(12) 0.9710(5)
F1_2 F 0.6502(14) 0.1487(10) 0.8524(6)
F2_2 F 0.5349(13) 0.1935(8) 0.8673(4)
F3_2 F 0.5860(13) 0.2154(7) 0.8159(3)
F7_2 F 0.5837(14) 0.1835(9) 0.9474(4)
F8_2 F 0.5602(16) 0.1484(12) 0.9940(6)
F9_2 F 0.6728(10) 0.2092(8) 0.9893(6)
Ag4_2 Ag 0.63174(6) 0.10979(6) 0.74322(2)
N7_2 N 0.4554(6) 0.0184(7) 0.7049(2)
N9_2 N 0.3655(6) 0.0081(6) 0.9457(2)
N11_2 N 0.4667(6) 0.2500(6) 0.7319(2)
N13_2 N 0.2327(6) 0.0569(6) 0.9708(2)
N14_2 N 0.2673(6) 0.0569(6) 0.7792(2)
C10_2 C 0.3034(8) 0.0780(8) 0.9498(3)
C11_2 C 0.3081(10) 0.1716(11) 0.9319(5)
F13_2 F 0.2331(7) 0.2141(7) 0.9273(3)
F14_2 F 0.3541(12) 0.2340(9) 0.9542(6)
F15_2 F 0.3646(10) 0.1766(9) 0.9077(4)
Ag1_4 Ag 0.5000 1.0000 0.91130(3)
N1_4 N 0.5000 1.0000 0.8517(3)
N3_2 N 0.6345(6) 0.9919(6) 0.9457(2)
N5_2 N 0.7673(6) 0.9431(6) 0.9708(2)
C4_2 C 0.6966(8) 0.9220(8) 0.9498(3)
C5_2 C 0.6919(10) 0.8284(11) 0.9319(5)
F4_2 F 0.7669(7) 0.7859(7) 0.9273(3)
F5_2 F 0.6459(12) 0.7660(9) 0.9542(6)
F6_2 F 0.6354(10) 0.8234(9) 0.9077(4)
Ag3_2 Ag 0.60979(6) 0.86826(6) 0.75678(2)
Ag7_2 Ag 0.36826(6) 0.89021(6) 0.74322(2)
N6_2 N 0.4816(7) 0.9554(6) 0.7951(2)
N8_2 N 0.5446(6) 0.9816(7) 0.7049(2)
N10_2 N 0.2500(6) 0.9667(6) 0.9819(2)
N12_2 N 0.5333(6) 0.7500(6) 0.7319(2)
N15_2 N 0.7327(6) 0.9431(6) 0.7792(2)
C7_2 C 0.4722(7) 0.9328(7) 0.8287(3)
C8_2 C 0.4423(16) 0.8341(16) 0.8393(4)
C9_2 C 0.3288(7) 0.9413(7) 0.9664(3)
C12_2 C 0.3711(13) 0.8465(12) 0.9710(5)
F10_2 F 0.3498(14) 0.8513(10) 0.8524(6)
F11_2 F 0.4651(13) 0.8065(8) 0.8673(4)
F12_2 F 0.4140(13) 0.7846(7) 0.8159(3)
F16_2 F 0.4163(14) 0.8165(9) 0.9474(4)
F17_2 F 0.4398(16) 0.8516(12) 0.9940(6)
F18_2 F 0.3272(10) 0.7908(8) 0.9893(6)
Ag1_5 Ag -0.0000 -0.0000 0.16130(3)
N1_5 N 0.0000 0.0000 0.1017(3)
N6_3 N 0.0446(6) 0.0184(7) 0.0451(2)
N10_3 N 0.0333(6) 0.2500(6) 0.2319(2)
C7_3 C 0.0672(7) 0.0278(7) 0.0787(3)
C8_3 C 0.1659(16) 0.0577(16) 0.0893(4)
C9_3 C 0.0587(7) 0.1712(7) 0.2164(3)
C12_3 C 0.1535(12) 0.1289(13) 0.2210(5)
F10_3 F 0.1487(10) 0.1502(14) 0.1024(6)
F11_3 F 0.1935(8) 0.0349(13) 0.1173(4)
F12_3 F 0.2154(7) 0.0860(13) 0.0659(3)
F16_3 F 0.1835(9) 0.0837(14) 0.1974(4)
F17_3 F 0.1484(12) 0.0602(16) 0.2440(6)
F18_3 F 0.2092(8) 0.1728(10) 0.2393(6)
Ag1_6 Ag -0.0000 1.0000 0.16130(3)
N1_6 N 0.0000 1.0000 0.1017(3)
N3_3 N 0.0081(6) 0.8655(6) 0.1957(2)
C4_3 C 0.0780(8) 0.8034(8) 0.1998(3)
C5_3 C 0.1716(11) 0.8081(10) 0.1819(5)
F4_3 F 0.2141(7) 0.7331(7) 0.1773(3)
F5_3 F 0.2340(9) 0.8541(12) 0.2042(6)
F6_3 F 0.1766(9) 0.8646(10) 0.1577(4)
N8_3 N 0.0184(7) 0.9554(6) 0.9549(2)
Ag1_7 Ag 1.0000 -0.0000 0.16130(3)
N1_7 N 1.0000 0.0000 0.1017(3)
N9_3 N 0.9919(6) 0.1345(6) 0.1957(2)
C10_3 C 0.9220(8) 0.1966(8) 0.1998(3)
C11_3 C 0.8284(11) 0.1919(10) 0.1819(5)
F13_3 F 0.7859(7) 0.2669(7) 0.1773(3)
F14_3 F 0.7660(9) 0.1459(12) 0.2042(6)
F15_3 F 0.8234(9) 0.1354(10) 0.1577(4)
N7_3 N 0.9816(7) 0.0446(6) 0.9549(2)
Ag1_8 Ag 1.0000 1.0000 0.16130(3)
N1_8 N 1.0000 1.0000 0.1017(3)
N2_3 N 0.9554(6) 0.9816(7) 0.0451(2)
N4_3 N 0.9667(6) 0.7500(6) 0.2319(2)
C1_3 C 0.9328(7) 0.9722(7) 0.0787(3)
C2_3 C 0.8341(16) 0.9423(16) 0.0893(4)
C3_3 C 0.9413(7) 0.8288(7) 0.2164(3)
C6_3 C 0.8465(12) 0.8711(13) 0.2210(5)
F1_3 F 0.8513(10) 0.8498(14) 0.1024(6)
F2_3 F 0.8065(8) 0.9651(13) 0.1173(4)
F3_3 F 0.7846(7) 0.9140(13) 0.0659(3)
F7_3 F 0.8165(9) 0.9163(14) 0.1974(4)
F8_3 F 0.8516(12) 0.9398(16) 0.2440(6)
F9_3 F 0.7908(8) 0.8272(10) 0.2393(6)
Ag1_9 Ag 0.0000 0.0000 0.83870(3)
N1_9 N 0.0000 0.0000 0.8983(3)
N9_4 N 0.1345(6) 0.0081(6) 0.8043(2)
C10_4 C 0.1966(8) 0.0780(8) 0.8002(3)
C11_4 C 0.1919(10) 0.1716(11) 0.8181(5)
F13_4 F 0.2669(7) 0.2141(7) 0.8227(3)
F14_4 F 0.1459(12) 0.2340(9) 0.7958(6)
F15_4 F 0.1354(10) 0.1766(9) 0.8423(4)
Ag1_10 Ag -0.0000 1.0000 0.83870(3)
N1_10 N -0.0000 1.0000 0.8983(3)
N10_4 N 0.2500(6) 0.9667(6) 0.7681(2)
C7_4 C 0.0278(7) 0.9328(7) 0.9213(3)
C8_4 C 0.0577(16) 0.8341(16) 0.9107(4)
C9_4 C 0.1712(7) 0.9413(7) 0.7836(3)
C12_4 C 0.1289(13) 0.8465(12) 0.7790(5)
F10_4 F 0.1502(14) 0.8513(10) 0.8976(6)
F11_4 F 0.0349(13) 0.8065(8) 0.8827(4)
F12_4 F 0.0860(13) 0.7846(7) 0.9341(3)
F16_4 F 0.0837(14) 0.8165(9) 0.8026(4)
F17_4 F 0.0602(16) 0.8516(12) 0.7560(6)
F18_4 F 0.1728(10) 0.7908(8) 0.7607(6)
Ag1_11 Ag 1.0000 0.0000 0.83870(3)
N1_11 N 1.0000 0.0000 0.8983(3)
N4_4 N 0.7500(6) 0.0333(6) 0.7681(2)
C1_4 C 0.9722(7) 0.0672(7) 0.9213(3)
C2_4 C 0.9423(16) 0.1659(16) 0.9107(4)
C3_4 C 0.8288(7) 0.0587(7) 0.7836(3)
C6_4 C 0.8711(13) 0.1535(12) 0.7790(5)
F1_4 F 0.8498(14) 0.1487(10) 0.8976(6)
F2_4 F 0.9651(13) 0.1935(8) 0.8827(4)
F3_4 F 0.9140(13) 0.2154(7) 0.9341(3)
F7_4 F 0.9163(14) 0.1835(9) 0.8026(4)
F8_4 F 0.9398(16) 0.1484(12) 0.7560(6)
F9_4 F 0.8272(10) 0.2092(8) 0.7607(6)
Ag1_12 Ag 1.0000 1.0000 0.83870(3)
N1_12 N 1.0000 1.0000 0.8983(3)
N3_4 N 0.8655(6) 0.9919(6) 0.8043(2)
C4_4 C 0.8034(8) 0.9220(8) 0.8002(3)
C5_4 C 0.8081(10) 0.8284(11) 0.8181(5)
F4_4 F 0.7331(7) 0.7859(7) 0.8227(3)
F5_4 F 0.8541(12) 0.7660(9) 0.7958(6)
F6_4 F 0.8646(10) 0.8234(9) 0.8423(4)
Ag1_13 Ag 0.5000 -0.0000 0.58870(3)
N1_13 N 0.5000 -0.0000 0.6483(3)
N3_5 N 0.5081(6) 0.1345(6) 0.5543(2)
N4_5 N 0.4667(6) 0.2500(6) 0.5181(2)
N5_3 N 0.5569(6) 0.2673(6) 0.5292(2)
C1_5 C 0.4328(7) 0.0278(7) 0.6713(3)
C2_5 C 0.3341(16) 0.0577(16) 0.6607(4)
C3_5 C 0.4413(7) 0.1712(7) 0.5336(3)
C4_5 C 0.5780(8) 0.1966(8) 0.5502(3)
C5_5 C 0.6716(11) 0.1919(10) 0.5681(5)
C6_5 C 0.3465(12) 0.1289(13) 0.5290(5)
F1_5 F 0.3513(10) 0.1502(14) 0.6476(6)
F2_5 F 0.3065(8) 0.0349(13) 0.6327(4)
F3_5 F 0.2846(7) 0.0860(13) 0.6841(3)
F4_5 F 0.7141(7) 0.2669(7) 0.5727(3)
F5_5 F 0.7340(9) 0.1459(12) 0.5458(6)
F6_5 F 0.6766(9) 0.1354(10) 0.5923(4)
F7_5 F 0.3165(9) 0.0837(14) 0.5526(4)
F8_5 F 0.3516(12) 0.0602(16) 0.5060(6)
F9_5 F 0.2908(8) 0.1728(10) 0.5107(6)
Ag5_2 Ag 0.39021(6) 0.36826(6) 0.49322(2)
Ag6_2 Ag 0.63174(6) 0.39021(6) 0.50678(2)
N15_3 N 0.5569(6) 0.2327(6) 0.7208(2)
Ag1_14 Ag 0.5000 1.0000 0.58870(3)
N1_14 N 0.5000 1.0000 0.6483(3)
Ag8_2 Ag 0.60979(6) 0.63174(6) 0.49322(2)
Ag9_2 Ag 0.36826(6) 0.60979(6) 0.50678(2)
N9_5 N 0.4919(6) 0.8655(6) 0.5543(2)
N10_5 N 0.5333(6) 0.7500(6) 0.5181(2)
N13_3 N 0.4431(6) 0.7327(6) 0.5292(2)
N14_3 N 0.4431(6) 0.7673(6) 0.7208(2)
C7_5 C 0.5672(7) 0.9722(7) 0.6713(3)
C8_5 C 0.6659(16) 0.9423(16) 0.6607(4)
C9_5 C 0.5587(7) 0.8288(7) 0.5336(3)
C10_5 C 0.4220(8) 0.8034(8) 0.5502(3)
C11_5 C 0.3284(11) 0.8081(10) 0.5681(5)
C12_5 C 0.6535(12) 0.8711(13) 0.5290(5)
F10_5 F 0.6487(10) 0.8498(14) 0.6476(6)
F11_5 F 0.6935(8) 0.9651(13) 0.6327(4)
F12_5 F 0.7154(7) 0.9140(13) 0.6841(3)
F13_5 F 0.2859(7) 0.7331(7) 0.5727(3)
F14_5 F 0.2660(9) 0.8541(12) 0.5458(6)
F15_5 F 0.3234(9) 0.8646(10) 0.5923(4)
F16_5 F 0.6835(9) 0.9163(14) 0.5526(4)
F17_5 F 0.6484(12) 0.9398(16) 0.5060(6)
F18_5 F 0.7092(8) 0.8272(10) 0.5107(6)
Ag1_15 Ag 0.0000 0.5000 0.41130(3)
N1_15 N -0.0000 0.5000 0.3517(3)
N3_6 N 0.1345(6) 0.4919(6) 0.4457(2)
N4_6 N 0.2500(6) 0.5333(6) 0.4819(2)
N5_4 N 0.2673(6) 0.4431(6) 0.4708(2)
C1_6 C 0.0278(7) 0.5672(7) 0.3287(3)
C2_6 C 0.0577(16) 0.6659(16) 0.3393(4)
C3_6 C 0.1712(7) 0.5587(7) 0.4664(3)
C4_6 C 0.1966(8) 0.4220(8) 0.4498(3)
C5_6 C 0.1919(10) 0.3284(11) 0.4319(5)
C6_6 C 0.1289(13) 0.6535(12) 0.4710(5)
F1_6 F 0.1502(14) 0.6487(10) 0.3524(6)
F2_6 F 0.0349(13) 0.6935(8) 0.3673(4)
F3_6 F 0.0860(13) 0.7154(7) 0.3159(3)
F4_6 F 0.2669(7) 0.2859(7) 0.4273(3)
F5_6 F 0.1459(12) 0.2660(9) 0.4542(6)
F6_6 F 0.1354(10) 0.3234(9) 0.4077(4)
F7_6 F 0.0837(14) 0.6835(9) 0.4474(4)
F8_6 F 0.0602(16) 0.6484(12) 0.4940(6)
F9_6 F 0.1728(10) 0.7092(8) 0.4893(6)
N15_4 N 0.2327(6) 0.4431(6) 0.2792(2)
Ag1_16 Ag 1.0000 0.5000 0.41130(3)
N1_16 N 1.0000 0.5000 0.3517(3)
N9_6 N 0.8655(6) 0.5081(6) 0.4457(2)
N10_6 N 0.7500(6) 0.4667(6) 0.4819(2)
N13_4 N 0.7327(6) 0.5569(6) 0.4708(2)
N14_4 N 0.7673(6) 0.5569(6) 0.2792(2)
C7_6 C 0.9722(7) 0.4328(7) 0.3287(3)
C8_6 C 0.9423(16) 0.3341(16) 0.3393(4)
C9_6 C 0.8288(7) 0.4413(7) 0.4664(3)
C10_6 C 0.8034(8) 0.5780(8) 0.4498(3)
C11_6 C 0.8081(10) 0.6716(11) 0.4319(5)
C12_6 C 0.8711(13) 0.3465(12) 0.4710(5)
F10_6 F 0.8498(14) 0.3513(10) 0.3524(6)
F11_6 F 0.9651(13) 0.3065(8) 0.3673(4)
F12_6 F 0.9140(13) 0.2846(7) 0.3159(3)
F13_6 F 0.7331(7) 0.7141(7) 0.4273(3)
F14_6 F 0.8541(12) 0.7340(9) 0.4542(6)
F15_6 F 0.8646(10) 0.6766(9) 0.4077(4)
F16_6 F 0.9163(14) 0.3165(9) 0.4474(4)
F17_6 F 0.9398(16) 0.3516(12) 0.4940(6)
F18_6 F 0.8272(10) 0.2908(8) 0.4893(6)
Ag1_17 Ag 0.5000 0.5000 0.66130(3)
N1_17 N 0.5000 0.5000 0.6017(3)
N2_4 N 0.4554(6) 0.4816(7) 0.5451(2)
N3_7 N 0.5081(6) 0.3655(6) 0.6957(2)
C1_7 C 0.4328(7) 0.4722(7) 0.5787(3)
C2_7 C 0.3341(16) 0.4423(16) 0.5893(4)
C3_7 C 0.4413(7) 0.3288(7) 0.7164(3)
C4_7 C 0.5780(8) 0.3034(8) 0.6998(3)
C5_7 C 0.6716(11) 0.3081(10) 0.6819(5)
C6_7 C 0.3465(12) 0.3711(13) 0.7210(5)
F1_7 F 0.3513(10) 0.3498(14) 0.6024(6)
F2_7 F 0.3065(8) 0.4651(13) 0.6173(4)
F3_7 F 0.2846(7) 0.4140(13) 0.5659(3)
F4_7 F 0.7141(7) 0.2331(7) 0.6773(3)
F5_7 F 0.7340(9) 0.3541(12) 0.7042(6)
F6_7 F 0.6766(9) 0.3646(10) 0.6577(4)
F7_7 F 0.3165(9) 0.4163(14) 0.6974(4)
F8_7 F 0.3516(12) 0.4398(16) 0.7440(6)
F9_7 F 0.2908(8) 0.3272(10) 0.7393(6)
N6_4 N 0.5446(6) 0.5184(7) 0.5451(2)
N7_4 N 0.4816(7) 0.5446(6) 0.4549(2)
N8_4 N 0.5184(7) 0.4554(6) 0.4549(2)
N9_7 N 0.4919(6) 0.6345(6) 0.6957(2)
C7_7 C 0.5672(7) 0.5278(7) 0.5787(3)
C8_7 C 0.6659(16) 0.5577(16) 0.5893(4)
C9_7 C 0.5587(7) 0.6712(7) 0.7164(3)
C10_7 C 0.4220(8) 0.6966(8) 0.6998(3)
C11_7 C 0.3284(11) 0.6919(10) 0.6819(5)
C12_7 C 0.6535(12) 0.6289(13) 0.7210(5)
F10_7 F 0.6487(10) 0.6502(14) 0.6024(6)
F11_7 F 0.6935(8) 0.5349(13) 0.6173(4)
F12_7 F 0.7154(7) 0.5860(13) 0.5659(3)
F13_7 F 0.2859(7) 0.7669(7) 0.6773(3)
F14_7 F 0.2660(9) 0.6459(12) 0.7042(6)
F15_7 F 0.3234(9) 0.6354(10) 0.6577(4)
F16_7 F 0.6835(9) 0.5837(14) 0.6974(4)
F17_7 F 0.6484(12) 0.5602(16) 0.7440(6)
F18_7 F 0.7092(8) 0.6728(10) 0.7393(6)
Ag1_18 Ag 0.5000 0.5000 0.33870(3)
N1_18 N 0.5000 0.5000 0.3983(3)
N3_8 N 0.3655(6) 0.4919(6) 0.3043(2)
C1_8 C 0.4722(7) 0.5672(7) 0.4213(3)
C2_8 C 0.4423(16) 0.6659(16) 0.4107(4)
C3_8 C 0.3288(7) 0.5587(7) 0.2836(3)
C4_8 C 0.3034(8) 0.4220(8) 0.3002(3)
C5_8 C 0.3081(10) 0.3284(11) 0.3181(5)
C6_8 C 0.3711(13) 0.6535(12) 0.2790(5)
F1_8 F 0.3498(14) 0.6487(10) 0.3976(6)
F2_8 F 0.4651(13) 0.6935(8) 0.3827(4)
F3_8 F 0.4140(13) 0.7154(7) 0.4341(3)
F4_8 F 0.2331(7) 0.2859(7) 0.3227(3)
F5_8 F 0.3541(12) 0.2660(9) 0.2958(6)
F6_8 F 0.3646(10) 0.3234(9) 0.3423(4)
F7_8 F 0.4163(14) 0.6835(9) 0.3026(4)
F8_8 F 0.4398(16) 0.6484(12) 0.2560(6)
F9_8 F 0.3272(10) 0.7092(8) 0.2607(6)
N9_8 N 0.6345(6) 0.5081(6) 0.3043(2)
C7_8 C 0.5278(7) 0.4328(7) 0.4213(3)
C8_8 C 0.5577(16) 0.3341(16) 0.4107(4)
C9_8 C 0.6712(7) 0.4413(7) 0.2836(3)
C10_8 C 0.6966(8) 0.5780(8) 0.3002(3)
C11_8 C 0.6919(10) 0.6716(11) 0.3181(5)
C12_8 C 0.6289(13) 0.3465(12) 0.2790(5)
F10_8 F 0.6502(14) 0.3513(10) 0.3976(6)
F11_8 F 0.5349(13) 0.3065(8) 0.3827(4)
F12_8 F 0.5860(13) 0.2846(7) 0.4341(3)
F13_8 F 0.7669(7) 0.7141(7) 0.3227(3)
F14_8 F 0.6459(12) 0.7340(9) 0.2958(6)
F15_8 F 0.6354(10) 0.6766(9) 0.3423(4)
F16_8 F 0.5837(14) 0.3165(9) 0.3026(4)
F17_8 F 0.5602(16) 0.3516(12) 0.2560(6)
F18_8 F 0.6728(10) 0.2908(8) 0.2607(6)
loop_
_geom_bond_atom_site_label_1
_geom_bond_atom_site_label_2
_geom_bond_site_symmetry_1
_geom_bond_site_symmetry_2
Ag1 N1 1_555 1_555
N3 Ag1 1_555 1_555
N5 C4 1_555 1_555
C4 N3 1_555 1_555
C5 C4 1_555 1_555
F4 C5 1_555 1_555
F5 C5 1_555 1_555
F6 C5 1_555 1_555
Ag3 N6 1_555 1_555
Ag6 N5 1_555 1_555
Ag7 N6 1_555 1_555
N8 Ag3 1_555 1_555
N12 Ag3 1_555 1_555
N15 Ag3 1_555 1_555
C7 N1 1_555 1_555
C8 C7 1_555 1_555
C12 C9 1_555 1_555
F10 C8 1_555 1_555
F11 C8 1_555 1_555
F12 C8 1_555 1_555
F16 C12 1_555 1_555
F17 C12 1_555 1_555
F18 C12 1_555 1_555
N6 C7 1_555 1_555
N10 C9 1_555 1_555
Ag1_2 N1_2 1_555 1_555
Ag2 N2 1_555 1_555
N1_2 C1 1_555 1_555
N2 C1 1_555 1_555
C1 C2 1_555 1_555
C2 F1 1_555 1_555
C6 C3 1_555 1_555
F2 C2 1_555 1_555
F3 C2 1_555 1_555
F7 C6 1_555 1_555
F8 C6 1_555 1_555
F9 C6 1_555 1_555
Ag4 N2 1_555 1_555
Ag9 N13 1_555 1_555
N7 Ag2 1_555 1_555
N9 Ag1_2 1_555 1_555
N11 Ag2 1_555 1_555
N13 C10 1_555 1_555
N14 Ag2 1_555 1_555
C10 N9 1_555 1_555
C11 C10 1_555 1_555
F13 C11 1_555 1_555
F14 C11 1_555 1_555
F15 C11 1_555 1_555
N4 C3 1_555 1_555
Ag1_3 N1_3 1_555 1_555
Ag2_2 N2_2 1_555 1_555
N1_3 C1_2 1_555 1_555
N2_2 C1_2 1_555 1_555
C1_2 C2_2 1_555 1_555
C2_2 F1_2 1_555 1_555
C6_2 C3_2 1_555 1_555
F2_2 C2_2 1_555 1_555
F3_2 C2_2 1_555 1_555
F7_2 C6_2 1_555 1_555
F8_2 C6_2 1_555 1_555
F9_2 C6_2 1_555 1_555
Ag4_2 N2_2 1_555 1_555
Ag8 N13_2 1_555 1_555
N7_2 Ag2_2 1_555 1_555
N9_2 Ag1_3 1_555 1_555
N11_2 Ag2_2 1_555 1_555
N13_2 C10_2 1_555 1_555
N14_2 Ag2_2 1_555 1_555
C10_2 N9_2 1_555 1_555
C11_2 C10_2 1_555 1_555
F13_2 C11_2 1_555 1_555
F14_2 C11_2 1_555 1_555
F15_2 C11_2 1_555 1_555
N4_2 C3_2 1_555 1_555
Ag1_4 N1_4 1_555 1_555
N3_2 Ag1_4 1_555 1_555
N5_2 C4_2 1_555 1_555
C4_2 N3_2 1_555 1_555
C5_2 C4_2 1_555 1_555
F4_2 C5_2 1_555 1_555
F5_2 C5_2 1_555 1_555
F6_2 C5_2 1_555 1_555
Ag3_2 N6_2 1_555 1_555
Ag5 N5_2 1_555 1_555
Ag7_2 N6_2 1_555 1_555
N8_2 Ag3_2 1_555 1_555
N12_2 Ag3_2 1_555 1_555
N15_2 Ag3_2 1_555 1_555
C7_2 N1_4 1_555 1_555
C8_2 C7_2 1_555 1_555
C12_2 C9_2 1_555 1_555
F10_2 C8_2 1_555 1_555
F11_2 C8_2 1_555 1_555
F12_2 C8_2 1_555 1_555
F16_2 C12_2 1_555 1_555
F17_2 C12_2 1_555 1_555
F18_2 C12_2 1_555 1_555
N6_2 C7_2 1_555 1_555
N10_2 C9_2 1_555 1_555
Ag1_5 N1_5 1_555 1_555
Ag7 N10_3 1_555 1_555
C7_3 N1_5 1_555 1_555
C8_3 C7_3 1_555 1_555
C12_3 C9_3 1_555 1_555
F10_3 C8_3 1_555 1_555
F11_3 C8_3 1_555 1_555
F12_3 C8_3 1_555 1_555
F16_3 C12_3 1_555 1_555
F17_3 C12_3 1_555 1_555
F18_3 C12_3 1_555 1_555
N6_3 C7_3 1_555 1_555
N10_3 C9_3 1_555 1_555
Ag1_6 N1_6 1_555 1_555
N3_3 Ag1_6 1_555 1_555
N15 C4_3 1_555 1_555
C4_3 N3_3 1_555 1_555
C5_3 C4_3 1_555 1_555
F4_3 C5_3 1_555 1_555
F5_3 C5_3 1_555 1_555
F6_3 C5_3 1_555 1_555
Ag1_7 N1_7 1_555 1_555
N9_3 Ag1_7 1_555 1_555
N14 C10_3 1_555 1_555
C10_3 N9_3 1_555 1_555
C11_3 C10_3 1_555 1_555
F13_3 C11_3 1_555 1_555
F14_3 C11_3 1_555 1_555
F15_3 C11_3 1_555 1_555
Ag1_8 N1_8 1_555 1_555
N1_8 C1_3 1_555 1_555
N2_3 C1_3 1_555 1_555
C1_3 C2_3 1_555 1_555
C2_3 F1_3 1_555 1_555
C6_3 C3_3 1_555 1_555
F2_3 C2_3 1_555 1_555
F3_3 C2_3 1_555 1_555
F7_3 C6_3 1_555 1_555
F8_3 C6_3 1_555 1_555
F9_3 C6_3 1_555 1_555
Ag4 N4_3 1_555 1_555
N4_3 C3_3 1_555 1_555
Ag1_9 N1_9 1_555 1_555
N9_4 Ag1_9 1_555 1_555
N14_2 C10_4 1_555 1_555
C10_4 N9_4 1_555 1_555
C11_4 C10_4 1_555 1_555
F13_4 C11_4 1_555 1_555
F14_4 C11_4 1_555 1_555
F15_4 C11_4 1_555 1_555
Ag1_10 N1_10 1_555 1_555
Ag7_2 N10_4 1_555 1_555
C7_4 N1_10 1_555 1_555
C8_4 C7_4 1_555 1_555
C12_4 C9_4 1_555 1_555
F10_4 C8_4 1_555 1_555
F11_4 C8_4 1_555 1_555
F12_4 C8_4 1_555 1_555
F16_4 C12_4 1_555 1_555
F17_4 C12_4 1_555 1_555
F18_4 C12_4 1_555 1_555
N8_3 C7_4 1_555 1_555
N10_4 C9_4 1_555 1_555
Ag1_11 N1_11 1_555 1_555
N1_11 C1_4 1_555 1_555
N7_3 C1_4 1_555 1_555
C1_4 C2_4 1_555 1_555
C2_4 F1_4 1_555 1_555
C6_4 C3_4 1_555 1_555
F2_4 C2_4 1_555 1_555
F3_4 C2_4 1_555 1_555
F7_4 C6_4 1_555 1_555
F8_4 C6_4 1_555 1_555
F9_4 C6_4 1_555 1_555
Ag4_2 N4_4 1_555 1_555
N4_4 C3_4 1_555 1_555
Ag1_12 N1_12 1_555 1_555
N3_4 Ag1_12 1_555 1_555
N15_2 C4_4 1_555 1_555
C4_4 N3_4 1_555 1_555
C5_4 C4_4 1_555 1_555
F4_4 C5_4 1_555 1_555
F5_4 C5_4 1_555 1_555
F6_4 C5_4 1_555 1_555
Ag1_13 N1_13 1_555 1_555
N1_13 C1_5 1_555 1_555
N7_2 C1_5 1_555 1_555
N3_5 Ag1_13 1_555 1_555
N4_5 N5_3 1_555 1_555
N5_3 C4_5 1_555 1_555
C1_5 C2_5 1_555 1_555
C2_5 F1_5 1_555 1_555
C3_5 N3_5 1_555 1_555
C4_5 N3_5 1_555 1_555
C5_5 C4_5 1_555 1_555
C6_5 C3_5 1_555 1_555
F2_5 C2_5 1_555 1_555
F3_5 C2_5 1_555 1_555
F4_5 C5_5 1_555 1_555
F5_5 C5_5 1_555 1_555
F6_5 C5_5 1_555 1_555
F7_5 C6_5 1_555 1_555
F8_5 C6_5 1_555 1_555
F9_5 C6_5 1_555 1_555
Ag5_2 N4_5 1_555 1_555
Ag6_2 N5_3 1_555 1_555
N15_3 Ag4_2 1_555 1_555
N4_5 C3_5 1_555 1_555
Ag1_14 N1_14 1_555 1_555
Ag8_2 N10_5 1_555 1_555
Ag9_2 N13_3 1_555 1_555
N9_5 Ag1_14 1_555 1_555
N10_5 N13_3 1_555 1_555
N13_3 C10_5 1_555 1_555
N14_3 Ag7_2 1_555 1_555
C7_5 N1_14 1_555 1_555
C8_5 C7_5 1_555 1_555
C9_5 N9_5 1_555 1_555
C10_5 N9_5 1_555 1_555
C11_5 C10_5 1_555 1_555
C12_5 C9_5 1_555 1_555
F10_5 C8_5 1_555 1_555
F11_5 C8_5 1_555 1_555
F12_5 C8_5 1_555 1_555
F13_5 C11_5 1_555 1_555
F14_5 C11_5 1_555 1_555
F15_5 C11_5 1_555 1_555
F16_5 C12_5 1_555 1_555
F17_5 C12_5 1_555 1_555
F18_5 C12_5 1_555 1_555
N8_2 C7_5 1_555 1_555
N10_5 C9_5 1_555 1_555
Ag1_15 N1_15 1_555 1_555
N1_15 C1_6 1_555 1_555
N8 C1_6 1_555 1_555
N3_6 Ag1_15 1_555 1_555
N4_6 N5_4 1_555 1_555
N5_4 C4_6 1_555 1_555
C1_6 C2_6 1_555 1_555
C2_6 F1_6 1_555 1_555
C3_6 N3_6 1_555 1_555
C4_6 N3_6 1_555 1_555
C5_6 C4_6 1_555 1_555
C6_6 C3_6 1_555 1_555
F2_6 C2_6 1_555 1_555
F3_6 C2_6 1_555 1_555
F4_6 C5_6 1_555 1_555
F5_6 C5_6 1_555 1_555
F6_6 C5_6 1_555 1_555
F7_6 C6_6 1_555 1_555
F8_6 C6_6 1_555 1_555
F9_6 C6_6 1_555 1_555
Ag9_2 N4_6 1_555 1_555
Ag5_2 N5_4 1_555 1_555
N15_4 Ag7 1_555 1_555
N4_6 C3_6 1_555 1_555
Ag1_16 N1_16 1_555 1_555
Ag6_2 N10_6 1_555 1_555
Ag8_2 N13_4 1_555 1_555
N9_6 Ag1_16 1_555 1_555
N10_6 N13_4 1_555 1_555
N13_4 C10_6 1_555 1_555
N14_4 Ag4 1_555 1_555
C7_6 N1_16 1_555 1_555
C8_6 C7_6 1_555 1_555
C9_6 N9_6 1_555 1_555
C10_6 N9_6 1_555 1_555
C11_6 C10_6 1_555 1_555
C12_6 C9_6 1_555 1_555
F10_6 C8_6 1_555 1_555
F11_6 C8_6 1_555 1_555
F12_6 C8_6 1_555 1_555
F13_6 C11_6 1_555 1_555
F14_6 C11_6 1_555 1_555
F15_6 C11_6 1_555 1_555
F16_6 C12_6 1_555 1_555
F17_6 C12_6 1_555 1_555
F18_6 C12_6 1_555 1_555
N7 C7_6 1_555 1_555
N10_6 C9_6 1_555 1_555
Ag1_17 N1_17 1_555 1_555
Ag9_2 N2_4 1_555 1_555
N1_17 C1_7 1_555 1_555
N2_4 C1_7 1_555 1_555
N3_7 Ag1_17 1_555 1_555
N11_2 N15_3 1_555 1_555
N15_3 C4_7 1_555 1_555
C1_7 C2_7 1_555 1_555
C2_7 F1_7 1_555 1_555
C3_7 N3_7 1_555 1_555
C4_7 N3_7 1_555 1_555
C5_7 C4_7 1_555 1_555
C6_7 C3_7 1_555 1_555
F2_7 C2_7 1_555 1_555
F3_7 C2_7 1_555 1_555
F4_7 C5_7 1_555 1_555
F5_7 C5_7 1_555 1_555
F6_7 C5_7 1_555 1_555
F7_7 C6_7 1_555 1_555
F8_7 C6_7 1_555 1_555
F9_7 C6_7 1_555 1_555
Ag6_2 N6_4 1_555 1_555
Ag5_2 N2_4 1_555 1_555
Ag8_2 N6_4 1_555 1_555
N6_4 N2_4 1_555 1_555
N7_4 Ag9_2 1_555 1_555
N8_4 Ag6_2 1_555 1_555
N9_7 Ag1_17 1_555 1_555
N12_2 N14_3 1_555 1_555
N14_3 C10_7 1_555 1_555
C7_7 N1_17 1_555 1_555
C8_7 C7_7 1_555 1_555
C9_7 N9_7 1_555 1_555
C10_7 N9_7 1_555 1_555
C11_7 C10_7 1_555 1_555
C12_7 C9_7 1_555 1_555
F10_7 C8_7 1_555 1_555
F11_7 C8_7 1_555 1_555
F12_7 C8_7 1_555 1_555
F13_7 C11_7 1_555 1_555
F14_7 C11_7 1_555 1_555
F15_7 C11_7 1_555 1_555
F16_7 C12_7 1_555 1_555
F17_7 C12_7 1_555 1_555
F18_7 C12_7 1_555 1_555
N11_2 C3_7 1_555 1_555
Ag5_2 N8_4 1_555 1_555
Ag8_2 N7_4 1_555 1_555
N6_4 C7_7 1_555 1_555
N7_4 N8_4 1_555 1_555
N12_2 C9_7 1_555 1_555
Ag1_18 N1_18 1_555 1_555
N1_18 C1_8 1_555 1_555
N7_4 C1_8 1_555 1_555
N3_8 Ag1_18 1_555 1_555
N12 N15_4 1_555 1_555
N15_4 C4_8 1_555 1_555
C1_8 C2_8 1_555 1_555
C2_8 F1_8 1_555 1_555
C3_8 N3_8 1_555 1_555
C4_8 N3_8 1_555 1_555
C5_8 C4_8 1_555 1_555
C6_8 C3_8 1_555 1_555
F2_8 C2_8 1_555 1_555
F3_8 C2_8 1_555 1_555
F4_8 C5_8 1_555 1_555
F5_8 C5_8 1_555 1_555
F6_8 C5_8 1_555 1_555
F7_8 C6_8 1_555 1_555
F8_8 C6_8 1_555 1_555
F9_8 C6_8 1_555 1_555
N9_8 Ag1_18 1_555 1_555
N11 N14_4 1_555 1_555
N14_4 C10_8 1_555 1_555
C7_8 N1_18 1_555 1_555
C8_8 C7_8 1_555 1_555
C9_8 N9_8 1_555 1_555
C10_8 N9_8 1_555 1_555
C11_8 C10_8 1_555 1_555
C12_8 C9_8 1_555 1_555
F10_8 C8_8 1_555 1_555
F11_8 C8_8 1_555 1_555
F12_8 C8_8 1_555 1_555
F13_8 C11_8 1_555 1_555
F14_8 C11_8 1_555 1_555
F15_8 C11_8 1_555 1_555
F16_8 C12_8 1_555 1_555
F17_8 C12_8 1_555 1_555
F18_8 C12_8 1_555 1_555
N12 C3_8 1_555 1_555
N8_4 C7_8 1_555 1_555
N11 C9_8 1_555 1_555

#END
