
###############################################################################
#
# This file contains modified crystal structure data generated from the
# MOF subset of the Cambridge Structural Database (CSD) v543 
# hosted by the Cambridge Crystallographic Data Centre (CCDC).
#
# This work is licensed under the Creative Commons
# Attribution-NonCommercial-ShareAlike 4.0 International License.
# To view a copy of this license, visit
# http://creativecommons.org/licenses/by-nc-sa/4.0/
# or send a letter to
# Creative Commons, PO Box 1866, Mountain View, CA 94042, USA.
#
# CIF created using the CSD Python API on 29 September 2022
# The structure has been converted into the P1 space group
# The structure has a 3D framework
# The original CSD entry PITYUN02 is in the tetragonal crystal system
# The framework has been calculated to contain at least 10.0% void space
# The void calculation uses a probe of radius 1.32A, grid spacing 0.4
#
###############################################################################

data_PITYUN02
_chemical_formula_moiety         '(C96 Ag24 F144 N82)n'
_symmetry_cell_setting           triclinic
_symmetry_space_group_name_H-M   'P 1'
_symmetry_Int_Tables_number      1
_space_group_name_Hall           'P 1'
loop_
_symmetry_equiv_pos_site_id
_symmetry_equiv_pos_as_xyz
1 x,y,z
_cell_length_a                   13.4026(7)
_cell_length_b                   13.4026(7)
_cell_length_c                   39.218(4)
_cell_angle_alpha                90
_cell_angle_beta                 90
_cell_angle_gamma                90
_cell_volume                     7044.72
loop_
_atom_site_label
_atom_site_type_symbol
_atom_site_fract_x
_atom_site_fract_y
_atom_site_fract_z
Ag1 Ag 0.0000 0.5000 0.09733(3)
N1 N 0.0000 0.5000 0.1537(3)
N3 N 0.0069(9) 0.6330(7) 0.0615(2)
N5 N 0.0593(8) 0.7624(8) 0.0308(3)
C4 C 0.0821(10) 0.6930(10) 0.0539(3)
C5 C 0.1849(12) 0.6913(12) 0.0697(4)
F4 F 0.2120(9) 0.7797(8) 0.0797(4)
F5 F 0.2542(8) 0.6710(11) 0.0464(3)
F6 F 0.1949(7) 0.6247(7) 0.0911(2)
Ag3 Ag 0.13881(7) 0.61726(7) 0.24463(3)
Ag6 Ag 0.13881(7) 0.88274(7) 0.00537(3)
Ag7 Ag 0.11726(7) 0.36119(7) 0.25537(3)
N6 N 0.0487(7) 0.4811(8) 0.2075(3)
N8 N 0.0189(8) 0.5487(7) 0.2925(3)
N10 N 0.0383(8) 0.2554(8) 0.0226(3)
N12 N 0.2554(8) 0.5383(8) 0.2726(3)
N15 N 0.0593(8) 0.7376(8) 0.2192(3)
C7 C 0.0716(10) 0.4704(10) 0.1750(3)
C8 C 0.1682(11) 0.4258(12) 0.1643(4)
C9 C 0.0632(10) 0.3317(9) 0.0412(3)
C12 C 0.1664(11) 0.3743(12) 0.0396(4)
F10 F 0.1556(8) 0.3364(9) 0.1520(3)
F11 F 0.2092(6) 0.4779(9) 0.1399(2)
F12 F 0.2298(7) 0.4122(10) 0.1891(2)
F16 F 0.2033(8) 0.3905(13) 0.0688(3)
F17 F 0.1630(9) 0.4684(8) 0.0274(4)
F18 F 0.2286(7) 0.3261(7) 0.0212(3)
Ag8 Ag 0.11726(7) 0.13881(7) 0.99463(3)
Ag1_2 Ag 1.0000 0.5000 0.09733(3)
Ag2 Ag 0.86119(7) 0.38274(7) 0.24463(3)
N1_2 N 1.0000 0.5000 0.1537(3)
N2 N 0.9513(7) 0.5189(8) 0.2075(3)
N4 N 0.9617(8) 0.7446(8) 0.0226(3)
C1 C 0.9284(10) 0.5296(10) 0.1750(3)
C2 C 0.8318(11) 0.5742(12) 0.1643(4)
C3 C 0.9368(10) 0.6683(9) 0.0412(3)
C6 C 0.8336(11) 0.6257(12) 0.0396(4)
F1 F 0.8444(8) 0.6636(9) 0.1520(3)
F2 F 0.7908(6) 0.5221(9) 0.1399(2)
F3 F 0.7702(7) 0.5878(10) 0.1891(2)
F7 F 0.7967(8) 0.6095(13) 0.0688(3)
F8 F 0.8370(9) 0.5316(8) 0.0274(4)
F9 F 0.7714(7) 0.6739(7) 0.0212(3)
Ag4 Ag 0.88274(7) 0.63881(7) 0.25537(3)
Ag9 Ag 0.86119(7) 0.11726(7) 0.00537(3)
N7 N 0.9811(8) 0.4513(7) 0.2925(3)
N9 N 0.9931(9) 0.3670(7) 0.0615(2)
N11 N 0.7446(8) 0.4617(8) 0.2726(3)
N13 N 0.9407(8) 0.2376(8) 0.0308(3)
N14 N 0.9407(8) 0.2624(8) 0.2192(3)
C10 C 0.9179(10) 0.3070(10) 0.0539(3)
C11 C 0.8151(12) 0.3087(12) 0.0697(4)
F13 F 0.7880(9) 0.2203(8) 0.0797(4)
F14 F 0.7458(8) 0.3290(11) 0.0464(3)
F15 F 0.8051(7) 0.3753(7) 0.0911(2)
Ag5 Ag 0.88274(7) 0.86119(7) 0.99463(3)
Ag1_3 Ag 0.5000 -0.0000 0.90267(3)
Ag2_2 Ag 0.38274(7) 0.13881(7) 0.75537(3)
N1_3 N 0.5000 0.0000 0.8463(3)
N2_2 N 0.5189(8) 0.0487(7) 0.7925(3)
N4_2 N 0.7446(8) 0.0383(8) 0.9774(3)
C1_2 C 0.5296(10) 0.0716(10) 0.8250(3)
C2_2 C 0.5742(12) 0.1682(11) 0.8357(4)
C3_2 C 0.6683(9) 0.0632(10) 0.9588(3)
C6_2 C 0.6257(12) 0.1664(11) 0.9604(4)
F1_2 F 0.6636(9) 0.1556(8) 0.8480(3)
F2_2 F 0.5221(9) 0.2092(6) 0.8601(2)
F3_2 F 0.5878(10) 0.2298(7) 0.8109(2)
F7_2 F 0.6095(13) 0.2033(8) 0.9312(3)
F8_2 F 0.5316(8) 0.1630(9) 0.9726(4)
F9_2 F 0.6739(7) 0.2286(7) 0.9788(3)
Ag4_2 Ag 0.63881(7) 0.11726(7) 0.74463(3)
N7_2 N 0.4513(7) 0.0189(8) 0.7075(3)
N9_2 N 0.3670(7) 0.0069(9) 0.9385(2)
N11_2 N 0.4617(8) 0.2554(8) 0.7274(3)
N13_2 N 0.2376(8) 0.0593(8) 0.9692(3)
N14_2 N 0.2624(8) 0.0593(8) 0.7808(3)
C10_2 C 0.3070(10) 0.0821(10) 0.9461(3)
C11_2 C 0.3087(12) 0.1849(12) 0.9303(4)
F13_2 F 0.2203(8) 0.2120(9) 0.9203(4)
F14_2 F 0.3290(11) 0.2542(8) 0.9536(3)
F15_2 F 0.3753(7) 0.1949(7) 0.9089(2)
Ag1_4 Ag 0.5000 1.0000 0.90267(3)
N1_4 N 0.5000 1.0000 0.8463(3)
N3_2 N 0.6330(7) 0.9931(9) 0.9385(2)
N5_2 N 0.7624(8) 0.9407(8) 0.9692(3)
C4_2 C 0.6930(10) 0.9179(10) 0.9461(3)
C5_2 C 0.6913(12) 0.8151(12) 0.9303(4)
F4_2 F 0.7797(8) 0.7880(9) 0.9203(4)
F5_2 F 0.6710(11) 0.7458(8) 0.9536(3)
F6_2 F 0.6247(7) 0.8051(7) 0.9089(2)
Ag3_2 Ag 0.61726(7) 0.86119(7) 0.75537(3)
Ag7_2 Ag 0.36119(7) 0.88274(7) 0.74463(3)
N6_2 N 0.4811(8) 0.9513(7) 0.7925(3)
N8_2 N 0.5487(7) 0.9811(8) 0.7075(3)
N10_2 N 0.2554(8) 0.9617(8) 0.9774(3)
N12_2 N 0.5383(8) 0.7446(8) 0.7274(3)
N15_2 N 0.7376(8) 0.9407(8) 0.7808(3)
C7_2 C 0.4704(10) 0.9284(10) 0.8250(3)
C8_2 C 0.4258(12) 0.8318(11) 0.8357(4)
C9_2 C 0.3317(9) 0.9368(10) 0.9588(3)
C12_2 C 0.3743(12) 0.8336(11) 0.9604(4)
F10_2 F 0.3364(9) 0.8444(8) 0.8480(3)
F11_2 F 0.4779(9) 0.7908(6) 0.8601(2)
F12_2 F 0.4122(10) 0.7702(7) 0.8109(2)
F16_2 F 0.3905(13) 0.7967(8) 0.9312(3)
F17_2 F 0.4684(8) 0.8370(9) 0.9726(4)
F18_2 F 0.3261(7) 0.7714(7) 0.9788(3)
Ag1_5 Ag 0.5000 0.5000 0.65267(3)
Ag2_3 Ag 0.63881(7) 0.38274(7) 0.50537(3)
N1_5 N 0.5000 0.5000 0.5963(3)
N2_3 N 0.5487(7) 0.5189(8) 0.5425(3)
N3_3 N 0.4931(9) 0.6330(7) 0.6885(2)
N5_3 N 0.4407(8) 0.7624(8) 0.7192(3)
C1_3 C 0.5716(10) 0.5296(10) 0.5750(3)
C2_3 C 0.6682(11) 0.5742(12) 0.5857(4)
C3_3 C 0.5632(10) 0.6683(9) 0.7088(3)
C4_3 C 0.4179(10) 0.6930(10) 0.6961(3)
C5_3 C 0.3151(12) 0.6913(12) 0.6803(4)
C6_3 C 0.6664(11) 0.6257(12) 0.7104(4)
F1_3 F 0.6556(8) 0.6636(9) 0.5980(3)
F2_3 F 0.7092(6) 0.5221(9) 0.6101(2)
F3_3 F 0.7298(7) 0.5878(10) 0.5609(2)
F4_3 F 0.2880(9) 0.7797(8) 0.6703(4)
F5_3 F 0.2458(8) 0.6710(11) 0.7036(3)
F6_3 F 0.3051(7) 0.6247(7) 0.6589(2)
F7_3 F 0.7033(8) 0.6095(13) 0.6812(3)
F8_3 F 0.6630(9) 0.5316(8) 0.7226(4)
F9_3 F 0.7286(7) 0.6739(7) 0.7288(3)
Ag3_3 Ag 0.36119(7) 0.61726(7) 0.50537(3)
Ag4_3 Ag 0.61726(7) 0.63881(7) 0.49463(3)
Ag7_3 Ag 0.38274(7) 0.36119(7) 0.49463(3)
N6_3 N 0.4513(7) 0.4811(8) 0.5425(3)
N7_3 N 0.5189(8) 0.4513(7) 0.4575(3)
N8_3 N 0.4811(8) 0.5487(7) 0.4575(3)
N9_3 N 0.5069(9) 0.3670(7) 0.6885(2)
N11_3 N 0.7554(8) 0.4617(8) 0.4774(3)
N12_3 N 0.2446(8) 0.5383(8) 0.4774(3)
N13_3 N 0.5593(8) 0.2376(8) 0.7192(3)
N14_3 N 0.5593(8) 0.2624(8) 0.5308(3)
N15_3 N 0.4407(8) 0.7376(8) 0.5308(3)
C7_3 C 0.4284(10) 0.4704(10) 0.5750(3)
C8_3 C 0.3318(11) 0.4258(12) 0.5857(4)
C9_3 C 0.4368(10) 0.3317(9) 0.7088(3)
C10_3 C 0.5821(10) 0.3070(10) 0.6961(3)
C11_3 C 0.6849(12) 0.3087(12) 0.6803(4)
C12_3 C 0.3336(11) 0.3743(12) 0.7104(4)
F10_3 F 0.3444(8) 0.3364(9) 0.5980(3)
F11_3 F 0.2908(6) 0.4779(9) 0.6101(2)
F12_3 F 0.2702(7) 0.4122(10) 0.5609(2)
F13_3 F 0.7120(9) 0.2203(8) 0.6703(4)
F14_3 F 0.7542(8) 0.3290(11) 0.7036(3)
F15_3 F 0.6949(7) 0.3753(7) 0.6589(2)
F16_3 F 0.2967(8) 0.3905(13) 0.6812(3)
F17_3 F 0.3370(9) 0.4684(8) 0.7226(4)
F18_3 F 0.2714(7) 0.3261(7) 0.7288(3)
N7_4 N 0.0487(7) 0.0189(8) 0.0425(3)
Ag1_6 Ag 0.0000 0.0000 0.84733(3)
N1_6 N 0.0000 0.0000 0.9037(3)
N9_4 N 0.1330(7) 0.0069(9) 0.8115(2)
C10_4 C 0.1930(10) 0.0821(10) 0.8039(3)
C11_4 C 0.1913(12) 0.1849(12) 0.8197(4)
F13_4 F 0.2797(8) 0.2120(9) 0.8297(4)
F14_4 F 0.1710(11) 0.2542(8) 0.7964(3)
F15_4 F 0.1247(7) 0.1949(7) 0.8411(2)
Ag1_7 Ag 0.0000 1.0000 0.84733(3)
N1_7 N 0.0000 1.0000 0.9037(3)
N6_4 N 0.0189(8) 0.9513(7) 0.9575(3)
N10_3 N 0.2446(8) 0.9617(8) 0.7726(3)
C7_4 C 0.0296(10) 0.9284(10) 0.9250(3)
C8_4 C 0.0742(12) 0.8318(11) 0.9143(4)
C9_4 C 0.1683(9) 0.9368(10) 0.7912(3)
C12_4 C 0.1257(12) 0.8336(11) 0.7896(4)
F10_4 F 0.1636(9) 0.8444(8) 0.9020(3)
F11_4 F 0.0221(9) 0.7908(6) 0.8899(2)
F12_4 F 0.0878(10) 0.7702(7) 0.9391(2)
F16_4 F 0.1095(13) 0.7967(8) 0.8188(3)
F17_4 F 0.0316(8) 0.8370(9) 0.7774(4)
F18_4 F 0.1739(7) 0.7714(7) 0.7712(3)
Ag1_8 Ag 1.0000 0.0000 0.84733(3)
N1_8 N 1.0000 0.0000 0.9037(3)
N2_4 N 0.9811(8) 0.0487(7) 0.9575(3)
N4_3 N 0.7554(8) 0.0383(8) 0.7726(3)
C1_4 C 0.9704(10) 0.0716(10) 0.9250(3)
C2_4 C 0.9258(12) 0.1682(11) 0.9143(4)
C3_4 C 0.8317(9) 0.0632(10) 0.7912(3)
C6_4 C 0.8743(12) 0.1664(11) 0.7896(4)
F1_4 F 0.8364(9) 0.1556(8) 0.9020(3)
F2_4 F 0.9779(9) 0.2092(6) 0.8899(2)
F3_4 F 0.9122(10) 0.2298(7) 0.9391(2)
F7_4 F 0.8905(13) 0.2033(8) 0.8188(3)
F8_4 F 0.9684(8) 0.1630(9) 0.7774(4)
F9_4 F 0.8261(7) 0.2286(7) 0.7712(3)
N8_4 N 0.9513(7) 0.9811(8) 0.0425(3)
Ag1_9 Ag 1.0000 1.0000 0.84733(3)
N1_9 N 1.0000 1.0000 0.9037(3)
N3_4 N 0.8670(7) 0.9931(9) 0.8115(2)
C4_4 C 0.8070(10) 0.9179(10) 0.8039(3)
C5_4 C 0.8087(12) 0.8151(12) 0.8197(4)
F4_4 F 0.7203(8) 0.7880(9) 0.8297(4)
F5_4 F 0.8290(11) 0.7458(8) 0.7964(3)
F6_4 F 0.8753(7) 0.8051(7) 0.8411(2)
Ag1_10 Ag 0.5000 -0.0000 0.59733(3)
N1_10 N 0.5000 -0.0000 0.6537(3)
N3_5 N 0.5069(9) 0.1330(7) 0.5615(2)
N4_4 N 0.4617(8) 0.2446(8) 0.5226(3)
C1_5 C 0.4284(10) 0.0296(10) 0.6750(3)
C2_5 C 0.3318(11) 0.0742(12) 0.6643(4)
C3_5 C 0.4368(10) 0.1683(9) 0.5412(3)
C4_5 C 0.5821(10) 0.1930(10) 0.5539(3)
C5_5 C 0.6849(12) 0.1913(12) 0.5697(4)
C6_5 C 0.3336(11) 0.1257(12) 0.5396(4)
F1_5 F 0.3444(8) 0.1636(9) 0.6520(3)
F2_5 F 0.2908(6) 0.0221(9) 0.6399(2)
F3_5 F 0.2702(7) 0.0878(10) 0.6891(2)
F4_5 F 0.7120(9) 0.2797(8) 0.5797(4)
F5_5 F 0.7542(8) 0.1710(11) 0.5464(3)
F6_5 F 0.6949(7) 0.1247(7) 0.5911(2)
F7_5 F 0.2967(8) 0.1095(13) 0.5688(3)
F8_5 F 0.3370(9) 0.0316(8) 0.5274(4)
F9_5 F 0.2714(7) 0.1739(7) 0.5212(3)
Ag1_11 Ag 0.5000 1.0000 0.59733(3)
N1_11 N 0.5000 1.0000 0.6537(3)
N9_5 N 0.4931(9) 0.8670(7) 0.5615(2)
N10_4 N 0.5383(8) 0.7554(8) 0.5226(3)
C7_5 C 0.5716(10) 0.9704(10) 0.6750(3)
C8_5 C 0.6682(11) 0.9258(12) 0.6643(4)
C9_5 C 0.5632(10) 0.8317(9) 0.5412(3)
C10_5 C 0.4179(10) 0.8070(10) 0.5539(3)
C11_5 C 0.3151(12) 0.8087(12) 0.5697(4)
C12_5 C 0.6664(11) 0.8743(12) 0.5396(4)
F10_5 F 0.6556(8) 0.8364(9) 0.6520(3)
F11_5 F 0.7092(6) 0.9779(9) 0.6399(2)
F12_5 F 0.7298(7) 0.9122(10) 0.6891(2)
F13_5 F 0.2880(9) 0.7203(8) 0.5797(4)
F14_5 F 0.2458(8) 0.8290(11) 0.5464(3)
F15_5 F 0.3051(7) 0.8753(7) 0.5911(2)
F16_5 F 0.7033(8) 0.8905(13) 0.5688(3)
F17_5 F 0.6630(9) 0.9684(8) 0.5274(4)
F18_5 F 0.7286(7) 0.8261(7) 0.5212(3)
Ag1_12 Ag -0.0000 0.5000 0.40267(3)
N1_12 N -0.0000 0.5000 0.3463(3)
N3_6 N 0.1330(7) 0.4931(9) 0.4385(2)
N5_4 N 0.2624(8) 0.4407(8) 0.4692(3)
C1_6 C 0.0296(10) 0.5716(10) 0.3250(3)
C2_6 C 0.0742(12) 0.6682(11) 0.3357(4)
C3_6 C 0.1683(9) 0.5632(10) 0.4588(3)
C4_6 C 0.1930(10) 0.4179(10) 0.4461(3)
C5_6 C 0.1913(12) 0.3151(12) 0.4303(4)
C6_6 C 0.1257(12) 0.6664(11) 0.4604(4)
F1_6 F 0.1636(9) 0.6556(8) 0.3480(3)
F2_6 F 0.0221(9) 0.7092(6) 0.3601(2)
F3_6 F 0.0878(10) 0.7298(7) 0.3109(2)
F4_6 F 0.2797(8) 0.2880(9) 0.4203(4)
F5_6 F 0.1710(11) 0.2458(8) 0.4536(3)
F6_6 F 0.1247(7) 0.3051(7) 0.4089(2)
F7_6 F 0.1095(13) 0.7033(8) 0.4312(3)
F8_6 F 0.0316(8) 0.6630(9) 0.4726(4)
F9_6 F 0.1739(7) 0.7286(7) 0.4788(3)
N12_4 N 0.0383(8) 0.2446(8) 0.2274(3)
N15_4 N 0.2376(8) 0.4407(8) 0.2808(3)
Ag1_13 Ag 1.0000 0.5000 0.40267(3)
N1_13 N 1.0000 0.5000 0.3463(3)
N9_6 N 0.8670(7) 0.5069(9) 0.4385(2)
N11_4 N 0.9617(8) 0.7554(8) 0.2274(3)
N13_4 N 0.7376(8) 0.5593(8) 0.4692(3)
N14_4 N 0.7624(8) 0.5593(8) 0.2808(3)
C7_6 C 0.9704(10) 0.4284(10) 0.3250(3)
C8_6 C 0.9258(12) 0.3318(11) 0.3357(4)
C9_6 C 0.8317(9) 0.4368(10) 0.4588(3)
C10_6 C 0.8070(10) 0.5821(10) 0.4461(3)
C11_6 C 0.8087(12) 0.6849(12) 0.4303(4)
C12_6 C 0.8743(12) 0.3336(11) 0.4604(4)
F10_6 F 0.8364(9) 0.3444(8) 0.3480(3)
F11_6 F 0.9779(9) 0.2908(6) 0.3601(2)
F12_6 F 0.9122(10) 0.2702(7) 0.3109(2)
F13_6 F 0.7203(8) 0.7120(9) 0.4203(4)
F14_6 F 0.8290(11) 0.7542(8) 0.4536(3)
F15_6 F 0.8753(7) 0.6949(7) 0.4089(2)
F16_6 F 0.8905(13) 0.2967(8) 0.4312(3)
F17_6 F 0.9684(8) 0.3370(9) 0.4726(4)
F18_6 F 0.8261(7) 0.2714(7) 0.4788(3)
Ag1_14 Ag 0.0000 -0.0000 0.15267(3)
N1_14 N -0.0000 -0.0000 0.0963(3)
C1_7 C 0.0716(10) 0.0296(10) 0.0750(3)
C2_7 C 0.1682(11) 0.0742(12) 0.0857(4)
C3_7 C 0.0632(10) 0.1683(9) 0.2088(3)
C6_7 C 0.1664(11) 0.1257(12) 0.2104(4)
F1_7 F 0.1556(8) 0.1636(9) 0.0980(3)
F2_7 F 0.2092(6) 0.0221(9) 0.1101(2)
F3_7 F 0.2298(7) 0.0878(10) 0.0609(2)
F7_7 F 0.2033(8) 0.1095(13) 0.1812(3)
F8_7 F 0.1630(9) 0.0316(8) 0.2226(4)
F9_7 F 0.2286(7) 0.1739(7) 0.2288(3)
Ag1_15 Ag -0.0000 1.0000 0.15267(3)
N1_15 N 0.0000 1.0000 0.0963(3)
N9_7 N 0.0069(9) 0.8670(7) 0.1885(2)
C10_7 C 0.0821(10) 0.8070(10) 0.1961(3)
C11_7 C 0.1849(12) 0.8087(12) 0.1803(4)
F13_7 F 0.2120(9) 0.7203(8) 0.1703(4)
F14_7 F 0.2542(8) 0.8290(11) 0.2036(3)
F15_7 F 0.1949(7) 0.8753(7) 0.1589(2)
Ag1_16 Ag 1.0000 -0.0000 0.15267(3)
N1_16 N 1.0000 -0.0000 0.0963(3)
N3_7 N 0.9931(9) 0.1330(7) 0.1885(2)
C4_7 C 0.9179(10) 0.1930(10) 0.1961(3)
C5_7 C 0.8151(12) 0.1913(12) 0.1803(4)
F4_7 F 0.7880(9) 0.2797(8) 0.1703(4)
F5_7 F 0.7458(8) 0.1710(11) 0.2036(3)
F6_7 F 0.8051(7) 0.1247(7) 0.1589(2)
Ag1_17 Ag 1.0000 1.0000 0.15267(3)
N1_17 N 1.0000 1.0000 0.0963(3)
C7_7 C 0.9284(10) 0.9704(10) 0.0750(3)
C8_7 C 0.8318(11) 0.9258(12) 0.0857(4)
C9_7 C 0.9368(10) 0.8317(9) 0.2088(3)
C12_7 C 0.8336(11) 0.8743(12) 0.2104(4)
F10_7 F 0.8444(8) 0.8364(9) 0.0980(3)
F11_7 F 0.7908(6) 0.9779(9) 0.1101(2)
F12_7 F 0.7702(7) 0.9122(10) 0.0609(2)
F16_7 F 0.7967(8) 0.8905(13) 0.1812(3)
F17_7 F 0.8370(9) 0.9684(8) 0.2226(4)
F18_7 F 0.7714(7) 0.8261(7) 0.2288(3)
Ag1_18 Ag 0.5000 0.5000 0.34733(3)
N1_18 N 0.5000 0.5000 0.4037(3)
N3_8 N 0.3670(7) 0.4931(9) 0.3115(2)
C1_8 C 0.4704(10) 0.5716(10) 0.4250(3)
C2_8 C 0.4258(12) 0.6682(11) 0.4143(4)
C3_8 C 0.3317(9) 0.5632(10) 0.2912(3)
C4_8 C 0.3070(10) 0.4179(10) 0.3039(3)
C5_8 C 0.3087(12) 0.3151(12) 0.3197(4)
C6_8 C 0.3743(12) 0.6664(11) 0.2896(4)
F1_8 F 0.3364(9) 0.6556(8) 0.4020(3)
F2_8 F 0.4779(9) 0.7092(6) 0.3899(2)
F3_8 F 0.4122(10) 0.7298(7) 0.4391(2)
F4_8 F 0.2203(8) 0.2880(9) 0.3297(4)
F5_8 F 0.3290(11) 0.2458(8) 0.2964(3)
F6_8 F 0.3753(7) 0.3051(7) 0.3411(2)
F7_8 F 0.3905(13) 0.7033(8) 0.3188(3)
F8_8 F 0.4684(8) 0.6630(9) 0.2774(4)
F9_8 F 0.3261(7) 0.7286(7) 0.2712(3)
N9_8 N 0.6330(7) 0.5069(9) 0.3115(2)
C7_8 C 0.5296(10) 0.4284(10) 0.4250(3)
C8_8 C 0.5742(12) 0.3318(11) 0.4143(4)
C9_8 C 0.6683(9) 0.4368(10) 0.2912(3)
C10_8 C 0.6930(10) 0.5821(10) 0.3039(3)
C11_8 C 0.6913(12) 0.6849(12) 0.3197(4)
C12_8 C 0.6257(12) 0.3336(11) 0.2896(4)
F10_8 F 0.6636(9) 0.3444(8) 0.4020(3)
F11_8 F 0.5221(9) 0.2908(6) 0.3899(2)
F12_8 F 0.5878(10) 0.2702(7) 0.4391(2)
F13_8 F 0.7797(8) 0.7120(9) 0.3297(4)
F14_8 F 0.6710(11) 0.7542(8) 0.2964(3)
F15_8 F 0.6247(7) 0.6949(7) 0.3411(2)
F16_8 F 0.6095(13) 0.2967(8) 0.3188(3)
F17_8 F 0.5316(8) 0.3370(9) 0.2774(4)
F18_8 F 0.6739(7) 0.2714(7) 0.2712(3)
loop_
_geom_bond_atom_site_label_1
_geom_bond_atom_site_label_2
_geom_bond_site_symmetry_1
_geom_bond_site_symmetry_2
Ag1 N1 1_555 1_555
N3 Ag1 1_555 1_555
N5 C4 1_555 1_555
C4 N3 1_555 1_555
C5 C4 1_555 1_555
F4 C5 1_555 1_555
F5 C5 1_555 1_555
F6 C5 1_555 1_555
Ag3 N6 1_555 1_555
Ag6 N5 1_555 1_555
Ag7 N6 1_555 1_555
N8 Ag3 1_555 1_555
N12 Ag3 1_555 1_555
N15 Ag3 1_555 1_555
C7 N1 1_555 1_555
C8 C7 1_555 1_555
C12 C9 1_555 1_555
F10 C8 1_555 1_555
F11 C8 1_555 1_555
F12 C8 1_555 1_555
F16 C12 1_555 1_555
F17 C12 1_555 1_555
F18 C12 1_555 1_555
N6 C7 1_555 1_555
N10 C9 1_555 1_555
Ag1_2 N1_2 1_555 1_555
Ag2 N2 1_555 1_555
N1_2 C1 1_555 1_555
N2 C1 1_555 1_555
C1 C2 1_555 1_555
C2 F1 1_555 1_555
C6 C3 1_555 1_555
F2 C2 1_555 1_555
F3 C2 1_555 1_555
F7 C6 1_555 1_555
F8 C6 1_555 1_555
F9 C6 1_555 1_555
Ag4 N2 1_555 1_555
Ag9 N13 1_555 1_555
N7 Ag2 1_555 1_555
N9 Ag1_2 1_555 1_555
N11 Ag2 1_555 1_555
N13 C10 1_555 1_555
N14 Ag2 1_555 1_555
C10 N9 1_555 1_555
C11 C10 1_555 1_555
F13 C11 1_555 1_555
F14 C11 1_555 1_555
F15 C11 1_555 1_555
N4 C3 1_555 1_555
Ag1_3 N1_3 1_555 1_555
Ag2_2 N2_2 1_555 1_555
N1_3 C1_2 1_555 1_555
N2_2 C1_2 1_555 1_555
C1_2 C2_2 1_555 1_555
C2_2 F1_2 1_555 1_555
C6_2 C3_2 1_555 1_555
F2_2 C2_2 1_555 1_555
F3_2 C2_2 1_555 1_555
F7_2 C6_2 1_555 1_555
F8_2 C6_2 1_555 1_555
F9_2 C6_2 1_555 1_555
Ag4_2 N2_2 1_555 1_555
Ag8 N13_2 1_555 1_555
N7_2 Ag2_2 1_555 1_555
N9_2 Ag1_3 1_555 1_555
N11_2 Ag2_2 1_555 1_555
N13_2 C10_2 1_555 1_555
N14_2 Ag2_2 1_555 1_555
C10_2 N9_2 1_555 1_555
C11_2 C10_2 1_555 1_555
F13_2 C11_2 1_555 1_555
F14_2 C11_2 1_555 1_555
F15_2 C11_2 1_555 1_555
N4_2 C3_2 1_555 1_555
Ag1_4 N1_4 1_555 1_555
N3_2 Ag1_4 1_555 1_555
N5_2 C4_2 1_555 1_555
C4_2 N3_2 1_555 1_555
C5_2 C4_2 1_555 1_555
F4_2 C5_2 1_555 1_555
F5_2 C5_2 1_555 1_555
F6_2 C5_2 1_555 1_555
Ag3_2 N6_2 1_555 1_555
Ag5 N5_2 1_555 1_555
Ag7_2 N6_2 1_555 1_555
N8_2 Ag3_2 1_555 1_555
N12_2 Ag3_2 1_555 1_555
N15_2 Ag3_2 1_555 1_555
C7_2 N1_4 1_555 1_555
C8_2 C7_2 1_555 1_555
C12_2 C9_2 1_555 1_555
F10_2 C8_2 1_555 1_555
F11_2 C8_2 1_555 1_555
F12_2 C8_2 1_555 1_555
F16_2 C12_2 1_555 1_555
F17_2 C12_2 1_555 1_555
F18_2 C12_2 1_555 1_555
N6_2 C7_2 1_555 1_555
N10_2 C9_2 1_555 1_555
Ag1_5 N1_5 1_555 1_555
Ag2_3 N2_3 1_555 1_555
N1_5 C1_3 1_555 1_555
N2_3 C1_3 1_555 1_555
N3_3 Ag1_5 1_555 1_555
N12_2 N5_3 1_555 1_555
N5_3 C4_3 1_555 1_555
C1_3 C2_3 1_555 1_555
C2_3 F1_3 1_555 1_555
C3_3 N3_3 1_555 1_555
C4_3 N3_3 1_555 1_555
C5_3 C4_3 1_555 1_555
C6_3 C3_3 1_555 1_555
F2_3 C2_3 1_555 1_555
F3_3 C2_3 1_555 1_555
F4_3 C5_3 1_555 1_555
F5_3 C5_3 1_555 1_555
F6_3 C5_3 1_555 1_555
F7_3 C6_3 1_555 1_555
F8_3 C6_3 1_555 1_555
F9_3 C6_3 1_555 1_555
Ag3_3 N6_3 1_555 1_555
Ag4_3 N2_3 1_555 1_555
Ag7_2 N5_3 1_555 1_555
Ag7_3 N6_3 1_555 1_555
Ag4_2 N13_3 1_555 1_555
N6_3 N2_3 1_555 1_555
N7_3 Ag2_3 1_555 1_555
N8_3 Ag3_3 1_555 1_555
N9_3 Ag1_5 1_555 1_555
N11_2 N13_3 1_555 1_555
N11_3 Ag2_3 1_555 1_555
N12_3 Ag3_3 1_555 1_555
N13_3 C10_3 1_555 1_555
N14_3 Ag2_3 1_555 1_555
N15_3 Ag3_3 1_555 1_555
C7_3 N1_5 1_555 1_555
C8_3 C7_3 1_555 1_555
C9_3 N9_3 1_555 1_555
C10_3 N9_3 1_555 1_555
C11_3 C10_3 1_555 1_555
C12_3 C9_3 1_555 1_555
F10_3 C8_3 1_555 1_555
F11_3 C8_3 1_555 1_555
F12_3 C8_3 1_555 1_555
F13_3 C11_3 1_555 1_555
F14_3 C11_3 1_555 1_555
F15_3 C11_3 1_555 1_555
F16_3 C12_3 1_555 1_555
F17_3 C12_3 1_555 1_555
F18_3 C12_3 1_555 1_555
N12_2 C3_3 1_555 1_555
Ag4_3 N8_3 1_555 1_555
Ag7_3 N7_3 1_555 1_555
N6_3 C7_3 1_555 1_555
N7_3 N8_3 1_555 1_555
N11_2 C9_3 1_555 1_555
Ag1_6 N1_6 1_555 1_555
N9_4 Ag1_6 1_555 1_555
N14_2 C10_4 1_555 1_555
C10_4 N9_4 1_555 1_555
C11_4 C10_4 1_555 1_555
F13_4 C11_4 1_555 1_555
F14_4 C11_4 1_555 1_555
F15_4 C11_4 1_555 1_555
Ag1_7 N1_7 1_555 1_555
Ag7_2 N10_3 1_555 1_555
C7_4 N1_7 1_555 1_555
C8_4 C7_4 1_555 1_555
C12_4 C9_4 1_555 1_555
F10_4 C8_4 1_555 1_555
F11_4 C8_4 1_555 1_555
F12_4 C8_4 1_555 1_555
F16_4 C12_4 1_555 1_555
F17_4 C12_4 1_555 1_555
F18_4 C12_4 1_555 1_555
N6_4 C7_4 1_555 1_555
N10_3 C9_4 1_555 1_555
Ag1_8 N1_8 1_555 1_555
N1_8 C1_4 1_555 1_555
N2_4 C1_4 1_555 1_555
C1_4 C2_4 1_555 1_555
C2_4 F1_4 1_555 1_555
C6_4 C3_4 1_555 1_555
F2_4 C2_4 1_555 1_555
F3_4 C2_4 1_555 1_555
F7_4 C6_4 1_555 1_555
F8_4 C6_4 1_555 1_555
F9_4 C6_4 1_555 1_555
Ag4_2 N4_3 1_555 1_555
N4_3 C3_4 1_555 1_555
Ag1_9 N1_9 1_555 1_555
N3_4 Ag1_9 1_555 1_555
N15_2 C4_4 1_555 1_555
C4_4 N3_4 1_555 1_555
C5_4 C4_4 1_555 1_555
F4_4 C5_4 1_555 1_555
F5_4 C5_4 1_555 1_555
F6_4 C5_4 1_555 1_555
Ag1_10 N1_10 1_555 1_555
N1_10 C1_5 1_555 1_555
N7_2 C1_5 1_555 1_555
N3_5 Ag1_10 1_555 1_555
N4_4 N14_3 1_555 1_555
N14_3 C4_5 1_555 1_555
C1_5 C2_5 1_555 1_555
C2_5 F1_5 1_555 1_555
C3_5 N3_5 1_555 1_555
C4_5 N3_5 1_555 1_555
C5_5 C4_5 1_555 1_555
C6_5 C3_5 1_555 1_555
F2_5 C2_5 1_555 1_555
F3_5 C2_5 1_555 1_555
F4_5 C5_5 1_555 1_555
F5_5 C5_5 1_555 1_555
F6_5 C5_5 1_555 1_555
F7_5 C6_5 1_555 1_555
F8_5 C6_5 1_555 1_555
F9_5 C6_5 1_555 1_555
Ag7_3 N4_4 1_555 1_555
N4_4 C3_5 1_555 1_555
Ag1_11 N1_11 1_555 1_555
Ag4_3 N10_4 1_555 1_555
N9_5 Ag1_11 1_555 1_555
N10_4 N15_3 1_555 1_555
N15_3 C10_5 1_555 1_555
C7_5 N1_11 1_555 1_555
C8_5 C7_5 1_555 1_555
C9_5 N9_5 1_555 1_555
C10_5 N9_5 1_555 1_555
C11_5 C10_5 1_555 1_555
C12_5 C9_5 1_555 1_555
F10_5 C8_5 1_555 1_555
F11_5 C8_5 1_555 1_555
F12_5 C8_5 1_555 1_555
F13_5 C11_5 1_555 1_555
F14_5 C11_5 1_555 1_555
F15_5 C11_5 1_555 1_555
F16_5 C12_5 1_555 1_555
F17_5 C12_5 1_555 1_555
F18_5 C12_5 1_555 1_555
N8_2 C7_5 1_555 1_555
N10_4 C9_5 1_555 1_555
Ag1_12 N1_12 1_555 1_555
N1_12 C1_6 1_555 1_555
N8 C1_6 1_555 1_555
N3_6 Ag1_12 1_555 1_555
N12_3 N5_4 1_555 1_555
N5_4 C4_6 1_555 1_555
C1_6 C2_6 1_555 1_555
C2_6 F1_6 1_555 1_555
C3_6 N3_6 1_555 1_555
C4_6 N3_6 1_555 1_555
C5_6 C4_6 1_555 1_555
C6_6 C3_6 1_555 1_555
F2_6 C2_6 1_555 1_555
F3_6 C2_6 1_555 1_555
F4_6 C5_6 1_555 1_555
F5_6 C5_6 1_555 1_555
F6_6 C5_6 1_555 1_555
F7_6 C6_6 1_555 1_555
F8_6 C6_6 1_555 1_555
F9_6 C6_6 1_555 1_555
Ag7_3 N5_4 1_555 1_555
N12_4 Ag7 1_555 1_555
N15_4 Ag7 1_555 1_555
N12_3 C3_6 1_555 1_555
Ag1_13 N1_13 1_555 1_555
Ag4_3 N13_4 1_555 1_555
N9_6 Ag1_13 1_555 1_555
N11_3 N13_4 1_555 1_555
N11_4 Ag4 1_555 1_555
N13_4 C10_6 1_555 1_555
N14_4 Ag4 1_555 1_555
C7_6 N1_13 1_555 1_555
C8_6 C7_6 1_555 1_555
C9_6 N9_6 1_555 1_555
C10_6 N9_6 1_555 1_555
C11_6 C10_6 1_555 1_555
C12_6 C9_6 1_555 1_555
F10_6 C8_6 1_555 1_555
F11_6 C8_6 1_555 1_555
F12_6 C8_6 1_555 1_555
F13_6 C11_6 1_555 1_555
F14_6 C11_6 1_555 1_555
F15_6 C11_6 1_555 1_555
F16_6 C12_6 1_555 1_555
F17_6 C12_6 1_555 1_555
F18_6 C12_6 1_555 1_555
N7 C7_6 1_555 1_555
N11_3 C9_6 1_555 1_555
Ag1_14 N1_14 1_555 1_555
N1_14 C1_7 1_555 1_555
N7_4 C1_7 1_555 1_555
C1_7 C2_7 1_555 1_555
C2_7 F1_7 1_555 1_555
C6_7 C3_7 1_555 1_555
F2_7 C2_7 1_555 1_555
F3_7 C2_7 1_555 1_555
F7_7 C6_7 1_555 1_555
F8_7 C6_7 1_555 1_555
F9_7 C6_7 1_555 1_555
N12_4 C3_7 1_555 1_555
Ag1_15 N1_15 1_555 1_555
N9_7 Ag1_15 1_555 1_555
N15 C10_7 1_555 1_555
C10_7 N9_7 1_555 1_555
C11_7 C10_7 1_555 1_555
F13_7 C11_7 1_555 1_555
F14_7 C11_7 1_555 1_555
F15_7 C11_7 1_555 1_555
Ag1_16 N1_16 1_555 1_555
N3_7 Ag1_16 1_555 1_555
N14 C4_7 1_555 1_555
C4_7 N3_7 1_555 1_555
C5_7 C4_7 1_555 1_555
F4_7 C5_7 1_555 1_555
F5_7 C5_7 1_555 1_555
F6_7 C5_7 1_555 1_555
Ag1_17 N1_17 1_555 1_555
C7_7 N1_17 1_555 1_555
C8_7 C7_7 1_555 1_555
C12_7 C9_7 1_555 1_555
F10_7 C8_7 1_555 1_555
F11_7 C8_7 1_555 1_555
F12_7 C8_7 1_555 1_555
F16_7 C12_7 1_555 1_555
F17_7 C12_7 1_555 1_555
F18_7 C12_7 1_555 1_555
N8_4 C7_7 1_555 1_555
N11_4 C9_7 1_555 1_555
Ag1_18 N1_18 1_555 1_555
N1_18 C1_8 1_555 1_555
N8_3 C1_8 1_555 1_555
N3_8 Ag1_18 1_555 1_555
N12 N15_4 1_555 1_555
N15_4 C4_8 1_555 1_555
C1_8 C2_8 1_555 1_555
C2_8 F1_8 1_555 1_555
C3_8 N3_8 1_555 1_555
C4_8 N3_8 1_555 1_555
C5_8 C4_8 1_555 1_555
C6_8 C3_8 1_555 1_555
F2_8 C2_8 1_555 1_555
F3_8 C2_8 1_555 1_555
F4_8 C5_8 1_555 1_555
F5_8 C5_8 1_555 1_555
F6_8 C5_8 1_555 1_555
F7_8 C6_8 1_555 1_555
F8_8 C6_8 1_555 1_555
F9_8 C6_8 1_555 1_555
N9_8 Ag1_18 1_555 1_555
N11 N14_4 1_555 1_555
N14_4 C10_8 1_555 1_555
C7_8 N1_18 1_555 1_555
C8_8 C7_8 1_555 1_555
C9_8 N9_8 1_555 1_555
C10_8 N9_8 1_555 1_555
C11_8 C10_8 1_555 1_555
C12_8 C9_8 1_555 1_555
F10_8 C8_8 1_555 1_555
F11_8 C8_8 1_555 1_555
F12_8 C8_8 1_555 1_555
F13_8 C11_8 1_555 1_555
F14_8 C11_8 1_555 1_555
F15_8 C11_8 1_555 1_555
F16_8 C12_8 1_555 1_555
F17_8 C12_8 1_555 1_555
F18_8 C12_8 1_555 1_555
N12 C3_8 1_555 1_555
N7_3 C7_8 1_555 1_555
N11 C9_8 1_555 1_555

#END
