
###############################################################################
#
# This file contains modified crystal structure data generated from the
# MOF subset of the Cambridge Structural Database (CSD) v543 
# hosted by the Cambridge Crystallographic Data Centre (CCDC).
#
# This work is licensed under the Creative Commons
# Attribution-NonCommercial-ShareAlike 4.0 International License.
# To view a copy of this license, visit
# http://creativecommons.org/licenses/by-nc-sa/4.0/
# or send a letter to
# Creative Commons, PO Box 1866, Mountain View, CA 94042, USA.
#
# CIF created using the CSD Python API on 29 September 2022
# The structure has been converted into the P1 space group
# The structure has a 3D framework
# The original CSD entry PIWLAL is in the monoclinic crystal system
# The framework has been calculated to contain at least 10.0% void space
# The void calculation uses a probe of radius 1.32A, grid spacing 0.4
#
###############################################################################

data_PIWLAL
_chemical_formula_moiety         '(C180 H128 O56 Zn16)n'
_symmetry_cell_setting           triclinic
_symmetry_space_group_name_H-M   'P 1'
_symmetry_Int_Tables_number      1
_space_group_name_Hall           'P 1'
loop_
_symmetry_equiv_pos_site_id
_symmetry_equiv_pos_as_xyz
1 x,y,z
_cell_length_a                   23.5020(4)
_cell_length_b                   17.1296(2)
_cell_length_c                   24.9948(4)
_cell_angle_alpha                90
_cell_angle_beta                 90.626(2)
_cell_angle_gamma                90
_cell_volume                     10061.8
loop_
_atom_site_label
_atom_site_type_symbol
_atom_site_fract_x
_atom_site_fract_y
_atom_site_fract_z
Zn1 Zn 0.13548(2) 0.66073(2) 0.54550(2)
Zn2 Zn 0.20292(2) 0.78663(2) 0.47981(2)
Zn3 Zn 0.07030(2) 0.79494(2) 0.48349(2)
Zn4 Zn 0.13559(2) 0.66079(2) 0.41523(2)
O1 O 0.13420(8) 0.72308(13) 0.48064(8)
O2 O 0.52737(15) 0.7209(2) 0.04822(13)
O3 O 0.25017(15) 0.7742(2) 0.54374(12)
O4 O 0.51426(13) 0.7101(3) 0.92587(13)
O6 O 0.20427(15) 0.6791(3) 0.58603(15)
O7 O 0.19967(14) 0.6833(2) 0.36898(13)
O8 O 0.25117(14) 0.7624(3) 0.42023(14)
O9 O 0.57129(15) 0.8175(2) 0.09175(14)
O11 O 0.58552(14) 0.7355(3) 0.87341(13)
C2 C 0.53299(17) 0.7683(3) 0.08751(16)
C3 C 0.4382(2) 0.6966(4) 0.8420(2)
H1 H 0.4271 0.6780 0.8757
C4 C 0.29005(19) 0.7259(3) 0.62369(17)
C5 C 0.1482(2) 0.1838(3) 0.4821(2)
O12 O 0.0780(2) 0.6060(3) 0.37222(19)
H2 H 0.0901(17) 0.584(3) 0.3384(13)
C6 C 0.14377(18) 0.0208(2) 0.48048(17)
C7 C 0.15123(18) 0.5199(2) 0.4897(2)
C8 C 0.24477(18) 0.7263(2) 0.58163(15)
C9 C 0.09954(19) 0.0643(2) 0.5016(2)
H3 H 0.0673 0.0387 0.5150
C10 C 0.53396(18) 0.7239(3) 0.88062(16)
C11 C 0.24209(17) 0.7247(2) 0.37725(16)
C12 C 0.1931(3) 0.1406(3) 0.4611(3)
H4 H 0.2253 0.1665 0.4478
C13 C 0.3313(3) 0.7809(4) 0.6262(2)
H5 H 0.3325 0.8197 0.5997
C14 C 0.3995(2) 0.6965(4) 0.7994(2)
H6 H 0.3626 0.6766 0.8042
C15 C 0.49300(18) 0.7241(3) 0.83446(17)
C16 C 0.3726(2) 0.7239(4) 0.7053(2)
C17 C 0.3719(3) 0.7816(5) 0.6666(2)
H7 H 0.3992 0.8217 0.6679
C18 C 0.4150(2) 0.7255(4) 0.7501(2)
C19 C 0.1024(2) 0.1447(3) 0.5030(2)
H8 H 0.0726 0.1732 0.5185
C20 C 0.2914(3) 0.6686(5) 0.6605(3)
H9 H 0.2636 0.6293 0.6583
C21 C 0.3316(3) 0.6643(5) 0.7013(3)
H10 H 0.3314 0.6227 0.7258
C22 C 0.0349(4) 0.5510(6) 0.3903(4)
H11 H 0.0543 0.5007 0.3975
C23 C 0.1531(2) 0.4324(2) 0.4871(2)
C24 C 0.1514(2) 0.2701(2) 0.4838(2)
C25 C 0.5085(2) 0.7498(5) 0.7854(2)
H12 H 0.5461 0.7664 0.7799
C26 C 0.1907(2) 0.0598(3) 0.4597(3)
H13 H 0.2207 0.0312 0.4448
C27 C 0.4694(3) 0.7520(6) 0.7428(2)
H14 H 0.4804 0.7715 0.7093
C28 C 0.0118(4) 0.5790(8) 0.4411(5)
H15 H 0.0315 0.5535 0.4706
H17 H 0.0171 0.6350 0.4438
C29 C 0.49126(18) 0.7601(3) 0.13172(15)
C30 C 0.41183(19) 0.7448(3) 0.21329(18)
C31 C 0.28678(18) 0.7274(3) 0.33578(17)
C32 C 0.3693(2) 0.7375(4) 0.2567(2)
H20 H 0.0111 0.5401 0.3108
C34 C 0.4101(2) 0.6970(4) 0.1695(2)
H21 H 0.3817 0.6584 0.1674
C35 C 0.4489(2) 0.7033(4) 0.1277(2)
H22 H 0.4466 0.6702 0.0978
C36 C 0.4946(3) 0.8077(5) 0.1749(3)
H23 H 0.5234 0.8456 0.1774
C37 C 0.3797(3) 0.7670(6) 0.3060(2)
H24 H 0.4152 0.7897 0.3140
C38 C 0.3378(3) 0.7637(6) 0.3452(2)
H25 H 0.3448 0.7870 0.3787
C39 C 0.4548(3) 0.8002(5) 0.2160(3)
H26 H 0.4573 0.8333 0.2459
C40 C 0.3163(3) 0.7096(7) 0.2460(3)
H27 H 0.3064 0.6958 0.2107
C41 C 0.2763(3) 0.7011(6) 0.2866(3)
H28 H 0.2415 0.6764 0.2789
O13 O 0.13363(16) 0.54993(19) 0.53268(17)
O14 O 0.16377(17) 0.55656(19) 0.44847(17)
C42 C 0.1339(2) 0.3090(2) 0.5299(2)
H29 H 0.1217 0.2809 0.5599
C43 C 0.1350(2) 0.3896(3) 0.5306(2)
H30 H 0.1230 0.4161 0.5614
C44 C 0.1713(3) 0.3938(3) 0.4419(3)
H31 H 0.1841 0.4222 0.4122
C45 C 0.1705(3) 0.3119(3) 0.4406(3)
H32 H 0.1832 0.2854 0.4100
Zn5 Zn 0.63548(2) 0.83927(2) 0.04550(2)
Zn9 Zn 0.57030(2) 0.70506(2) 0.98349(2)
Zn10 Zn 0.63559(2) 0.83921(2) 0.91523(2)
O15 O 0.02737(15) 0.7791(2) 0.54822(13)
O16 O 0.01426(13) 0.7899(3) 0.42587(13)
O17 O 0.09435(15) 0.90399(18) 0.48925(16)
O18 O 0.07129(15) 0.6825(2) 0.59175(14)
O19 O 0.18707(14) 0.89780(19) 0.47330(15)
O20 O 0.08552(14) 0.7645(3) 0.37341(13)
C1 C 0.14155(17) 0.9333(2) 0.48071(14)
C10_2 C 0.03396(18) 0.7761(3) 0.38062(16)
C25_2 C 0.0085(2) 0.7502(5) 0.2854(2)
H12_2 H 0.0461 0.7336 0.2799
C2_2 C 0.03299(17) 0.7317(3) 0.58751(16)
H23_2 H 0.0234 0.6544 0.6774
O5 O 0.59435(15) 0.59601(18) 0.98925(16)
O10 O 0.68707(14) 0.60220(19) 0.97330(15)
C1_2 C 0.64155(17) 0.5667(2) 0.98071(14)
C5_2 C 0.6482(2) 0.3162(3) 0.9821(2)
C6_2 C 0.64377(18) 0.4792(2) 0.98048(17)
C12_2 C 0.6931(3) 0.3594(3) 0.9611(3)
H4_2 H 0.7253 0.3335 0.9478
C23_2 C 0.6531(2) 0.0676(2) 0.9871(2)
C24_2 C 0.6514(2) 0.2299(2) 0.9838(2)
C26_2 C 0.6907(2) 0.4402(3) 0.9597(3)
H13_2 H 0.7207 0.4688 0.9448
H19 H 0.4749 0.0140 0.8489
C44_2 C 0.6713(3) 0.1062(3) 0.9419(3)
H31_2 H 0.6841 0.0778 0.9122
C45_2 C 0.6705(3) 0.1881(3) 0.9406(3)
H32_2 H 0.6832 0.2146 0.9100
Zn6 Zn 0.70292(2) 0.71337(2) 0.97981(2)
O3_2 O 0.75017(15) 0.7258(2) 0.04374(12)
O6_2 O 0.70427(15) 0.8209(3) 0.08603(15)
C3_2 C 0.9382(2) 0.8034(4) 0.3420(2)
H1_2 H 0.9271 0.8220 0.3757
C4_2 C 0.79005(19) 0.7741(3) 0.12369(17)
C8_2 C 0.74477(18) 0.7737(2) 0.08163(15)
C13_2 C 0.8313(3) 0.7191(4) 0.1262(2)
H5_2 H 0.8325 0.6803 0.0997
C14_2 C 0.8995(2) 0.8035(4) 0.2994(2)
H6_2 H 0.8626 0.8234 0.3042
C15_2 C 0.99300(18) 0.7759(3) 0.33446(17)
C16_2 C 0.8726(2) 0.7761(4) 0.2053(2)
C17_2 C 0.8719(3) 0.7184(5) 0.1666(2)
H7_2 H 0.8992 0.6783 0.1679
C18_2 C 0.9150(2) 0.7745(4) 0.2501(2)
C20_2 C 0.7914(3) 0.8314(5) 0.1605(3)
H9_2 H 0.7636 0.8707 0.1583
C21_2 C 0.8316(3) 0.8357(5) 0.2013(3)
H10_2 H 0.8314 0.8773 0.2258
C27_2 C 0.9694(3) 0.7480(6) 0.2428(2)
H14_2 H 0.9804 0.7285 0.2093
O13_2 O 0.63363(16) 0.95007(19) 0.03268(17)
O1_2 O 0.63420(8) 0.77692(13) 0.98064(8)
O7_2 O 0.69967(14) 0.8167(2) 0.86898(13)
O8_2 O 0.75117(14) 0.7376(3) 0.92023(14)
O12_2 O 0.5780(2) 0.8940(3) 0.87222(19)
H2_2 H 0.5901(17) 0.916(3) 0.8384(13)
C7_2 C 0.65123(18) 0.9801(2) 0.9897(2)
C11_2 C 0.74209(17) 0.7753(2) 0.87725(16)
C22_2 C 0.5349(4) 0.9490(6) 0.8903(4)
H11_2 H 0.5543 0.9993 0.8975
C28_2 C 0.5118(4) 0.9210(8) 0.9411(5)
H15_2 H 0.5315 0.9465 0.9706
H16 H 0.4715 0.9331 0.9426
H17_2 H 0.5171 0.8650 0.9438
C29_2 C 0.99126(18) 0.7399(3) 0.63172(15)
C30_2 C 0.91183(19) 0.7552(3) 0.71329(18)
C31_2 C 0.78678(18) 0.7726(3) 0.83578(17)
C32_2 C 0.8693(2) 0.7625(4) 0.7567(2)
C33 C 0.4919(5) 0.9628(8) 0.8449(7)
H18 H 0.4624 0.9232 0.8462
H20_2 H 0.5111 0.9599 0.8108
C34_2 C 0.9101(2) 0.8030(4) 0.6695(2)
H21_2 H 0.8817 0.8416 0.6674
C35_2 C 0.9489(2) 0.7967(4) 0.6277(2)
H22_2 H 0.9466 0.8298 0.5978
C36_2 C 0.9946(3) 0.6923(5) 0.6749(3)
C37_2 C 0.8797(3) 0.7330(6) 0.8060(2)
H24_2 H 0.9152 0.7103 0.8140
C38_2 C 0.8378(3) 0.7363(6) 0.8452(2)
H25_2 H 0.8448 0.7130 0.8787
C39_2 C 0.9548(3) 0.6998(5) 0.7160(3)
H26_2 H 0.9573 0.6667 0.7459
C40_2 C 0.8163(3) 0.7904(7) 0.7460(3)
H27_2 H 0.8064 0.8042 0.7107
C41_2 C 0.7763(3) 0.7989(6) 0.7866(3)
H28_2 H 0.7415 0.8236 0.7789
O14_2 O 0.66377(17) 0.94344(19) 0.94847(17)
H16_2 H 0.9715 0.5669 0.4426
C33_2 C 0.9919(5) 0.5372(8) 0.3449(7)
H18_2 H 0.9624 0.5768 0.3462
H19_2 H 0.9749 0.4860 0.3489
Zn2_2 Zn 0.29708(2) 0.28663(2) 0.02019(2)
Zn3_2 Zn 0.42970(2) 0.29494(2) 0.01651(2)
Zn4_2 Zn 0.36441(2) 0.16079(2) 0.08477(2)
O1_3 O 0.36580(8) 0.22308(13) 0.01936(8)
O7_3 O 0.30033(14) 0.1833(2) 0.13102(13)
O8_3 O 0.24883(14) 0.2624(3) 0.07977(14)
O12_3 O 0.4220(2) 0.1060(3) 0.12778(19)
H2_3 H 0.4099(17) 0.084(3) 0.1616(13)
C7_3 C 0.34877(18) 0.0199(2) 0.0103(2)
C11_3 C 0.25791(17) 0.2247(2) 0.12275(16)
C22_3 C 0.4651(4) 0.0510(6) 0.1097(4)
H11_3 H 0.4457 0.0007 0.1025
C28_3 C 0.4882(4) 0.0790(8) 0.0589(5)
H15_3 H 0.4685 0.0535 0.0294
H16_3 H 0.5285 0.0669 0.0574
H17_3 H 0.4829 0.1350 0.0562
C29_3 C 0.00874(18) 0.2601(3) 0.36828(15)
C30_3 C 0.08817(19) 0.2448(3) 0.28671(18)
C31_3 C 0.21322(18) 0.2274(3) 0.16422(17)
C32_3 C 0.1307(2) 0.2375(4) 0.2433(2)
C33_3 C 0.5081(5) 0.0372(8) 0.1551(7)
H18_3 H 0.5376 0.0768 0.1538
H20_3 H 0.4889 0.0401 0.1892
C34_3 C 0.0899(2) 0.1970(4) 0.3305(2)
H21_3 H 0.1183 0.1584 0.3326
C35_3 C 0.0511(2) 0.2033(4) 0.3723(2)
H22_3 H 0.0534 0.1702 0.4022
C36_3 C 0.0054(3) 0.3077(5) 0.3251(3)
C37_3 C 0.1203(3) 0.2670(6) 0.1940(2)
H24_3 H 0.0848 0.2897 0.1860
C38_3 C 0.1622(3) 0.2637(6) 0.1548(2)
H25_3 H 0.1552 0.2870 0.1213
C39_3 C 0.0452(3) 0.3002(5) 0.2840(3)
H26_3 H 0.0427 0.3333 0.2541
C40_3 C 0.1837(3) 0.2096(7) 0.2540(3)
H27_3 H 0.1936 0.1958 0.2893
C41_3 C 0.2237(3) 0.2011(6) 0.2134(3)
H28_3 H 0.2585 0.1764 0.2211
O14_3 O 0.33623(17) 0.05656(19) 0.05153(17)
O16_2 O 0.48574(13) 0.2899(3) 0.07413(13)
O17_2 O 0.40565(15) 0.40399(18) 0.01075(16)
O19_2 O 0.31293(14) 0.39780(19) 0.02670(15)
O20_2 O 0.41448(14) 0.2645(3) 0.12659(13)
Zn1_2 Zn 0.36452(2) 0.16073(2) 0.95450(2)
O3_3 O 0.24983(15) 0.2742(2) 0.95626(12)
O6_3 O 0.29573(15) 0.1791(3) 0.91397(15)
C3_3 C 0.0618(2) 0.1966(4) 0.6580(2)
H1_3 H 0.0729 0.1780 0.6243
C4_3 C 0.20995(19) 0.2259(3) 0.87631(17)
C8_3 C 0.25523(18) 0.2263(2) 0.91837(15)
C13_3 C 0.1687(3) 0.2809(4) 0.8738(2)
H5_3 H 0.1675 0.3197 0.9003
C14_3 C 0.1005(2) 0.1965(4) 0.7006(2)
H6_3 H 0.1374 0.1766 0.6958
C15_3 C 0.00700(18) 0.2241(3) 0.66554(17)
C16_3 C 0.1274(2) 0.2239(4) 0.7947(2)
C17_3 C 0.1281(3) 0.2816(5) 0.8334(2)
H7_3 H 0.1008 0.3217 0.8321
C18_3 C 0.0850(2) 0.2255(4) 0.7499(2)
C20_3 C 0.2086(3) 0.1686(5) 0.8395(3)
H9_3 H 0.2364 0.1293 0.8417
C21_3 C 0.1684(3) 0.1643(5) 0.7987(3)
H10_3 H 0.1686 0.1227 0.7742
C27_3 C 0.0306(3) 0.2520(6) 0.7572(2)
H14_3 H 0.0196 0.2715 0.7907
O13_3 O 0.36637(16) 0.04993(19) 0.96732(17)
O15_2 O 0.47263(15) 0.2791(2) 0.95178(13)
O18_2 O 0.42871(15) 0.1825(2) 0.90825(14)
C1_3 C 0.35845(17) 0.4333(2) 0.01929(14)
C5_3 C 0.3518(2) 0.6838(3) 0.0179(2)
C6_3 C 0.35623(18) 0.5208(2) 0.01952(17)
C12_3 C 0.3069(3) 0.6406(3) 0.0389(3)
H4_3 H 0.2747 0.6665 0.0522
C23_3 C 0.3469(2) 0.9324(2) 0.0129(2)
C24_3 C 0.3486(2) 0.7701(2) 0.0162(2)
C26_3 C 0.3093(2) 0.5598(3) 0.0403(3)
H13_3 H 0.2793 0.5312 0.0552
H19_3 H 0.5251 0.9860 0.1511
C44_3 C 0.3287(3) 0.8938(3) 0.0581(3)
H31_3 H 0.3159 0.9222 0.0878
C45_3 C 0.3295(3) 0.8119(3) 0.0594(3)
H32_3 H 0.3168 0.7854 0.0900
O2_2 O 0.97263(15) 0.2209(2) 0.45178(13)
O9_2 O 0.92871(15) 0.3175(2) 0.40825(14)
C2_3 C 0.96701(17) 0.2683(3) 0.41249(16)
H23_3 H 0.9766 0.3456 0.3226
Zn5_2 Zn 0.86452(2) 0.33927(2) 0.45450(2)
Zn8 Zn 0.92970(2) 0.20506(2) 0.51651(2)
O4_2 O 0.98574(13) 0.2101(3) 0.57413(13)
O11_2 O 0.91448(14) 0.2355(3) 0.62659(13)
C10_3 C 0.96604(18) 0.2239(3) 0.61938(16)
C25_3 C 0.9915(2) 0.2498(5) 0.7146(2)
H12_3 H 0.9539 0.2664 0.7201
Zn10_2 Zn 0.86441(2) 0.33921(2) 0.58477(2)
O5_2 O 0.90565(15) 0.09601(18) 0.51075(16)
O10_2 O 0.81293(14) 0.10220(19) 0.52670(15)
C1_4 C 0.85845(17) 0.0667(2) 0.51929(14)
Zn6_2 Zn 0.79708(2) 0.21337(2) 0.52019(2)
O1_4 O 0.86580(8) 0.27692(13) 0.51936(8)
O3_4 O 0.74983(15) 0.2258(2) 0.45626(12)
O6_4 O 0.79573(15) 0.3209(3) 0.41397(15)
O7_4 O 0.80033(14) 0.3167(2) 0.63102(13)
O8_4 O 0.74883(14) 0.2376(3) 0.57977(14)
C2_4 C 0.46701(17) 0.2317(3) 0.91249(16)
C3_4 C 0.5618(2) 0.3034(4) 0.1580(2)
H1_4 H 0.5729 0.3220 0.1243
C4_4 C 0.70995(19) 0.2741(3) 0.37631(17)
C5_4 C 0.8518(2) 0.8162(3) 0.5179(2)
O12_4 O 0.9220(2) 0.3940(3) 0.62778(19)
H2_4 H 0.9099(17) 0.416(3) 0.6616(13)
C6_4 C 0.85623(18) 0.9792(2) 0.51952(17)
C7_4 C 0.84877(18) 0.4801(2) 0.5103(2)
C8_4 C 0.75523(18) 0.2737(2) 0.41837(15)
C9_2 C 0.90046(19) 0.9357(2) 0.4984(2)
H3_2 H 0.9327 0.9613 0.4850
C10_4 C 0.46604(18) 0.2761(3) 0.11938(16)
C11_4 C 0.75791(17) 0.2753(2) 0.62275(16)
C12_4 C 0.8069(3) 0.8594(3) 0.5389(3)
H4_4 H 0.7747 0.8335 0.5522
C13_4 C 0.6687(3) 0.2191(4) 0.3738(2)
H5_4 H 0.6675 0.1803 0.4003
C14_4 C 0.6005(2) 0.3035(4) 0.2006(2)
H6_4 H 0.6374 0.3234 0.1958
C15_4 C 0.50700(18) 0.2759(3) 0.16554(17)
C16_4 C 0.6274(2) 0.2761(4) 0.2947(2)
C17_4 C 0.6281(3) 0.2184(5) 0.3334(2)
H7_4 H 0.6008 0.1783 0.3321
C18_4 C 0.5850(2) 0.2745(4) 0.2499(2)
C19_2 C 0.8976(2) 0.8553(3) 0.4970(2)
H8_2 H 0.9274 0.8268 0.4815
C20_4 C 0.7086(3) 0.3314(5) 0.3395(3)
H9_4 H 0.7364 0.3707 0.3417
C21_4 C 0.6684(3) 0.3357(5) 0.2987(3)
H10_4 H 0.6686 0.3773 0.2742
C22_4 C 0.9651(4) 0.4490(6) 0.6097(4)
H11_4 H 0.9457 0.4993 0.6025
C23_4 C 0.8469(2) 0.5676(2) 0.5129(2)
C24_4 C 0.8486(2) 0.7299(2) 0.5162(2)
C25_4 C 0.4915(2) 0.2502(5) 0.2146(2)
H12_4 H 0.4539 0.2336 0.2201
C26_4 C 0.8093(2) 0.9402(3) 0.5403(3)
H13_4 H 0.7793 0.9688 0.5552
C27_4 C 0.5306(3) 0.2480(6) 0.2572(2)
H14_4 H 0.5196 0.2285 0.2907
C28_4 C 0.9882(4) 0.4210(8) 0.5589(5)
H15_4 H 0.9685 0.4465 0.5294
H17_4 H 0.9829 0.3650 0.5562
C29_4 C 0.50874(18) 0.2399(3) 0.86828(15)
C30_4 C 0.58817(19) 0.2552(3) 0.78671(18)
C31_4 C 0.71322(18) 0.2726(3) 0.66422(17)
C32_4 C 0.6307(2) 0.2625(4) 0.7433(2)
H20_4 H 0.9889 0.4599 0.6892
C34_4 C 0.5899(2) 0.3030(4) 0.8305(2)
H21_4 H 0.6183 0.3416 0.8326
C35_4 C 0.5511(2) 0.2967(4) 0.8723(2)
H22_4 H 0.5534 0.3298 0.9022
C36_4 C 0.5054(3) 0.1923(5) 0.8251(3)
H23_4 H 0.4766 0.1544 0.8226
C37_4 C 0.6203(3) 0.2330(6) 0.6940(2)
H24_4 H 0.5848 0.2103 0.6860
C38_4 C 0.6622(3) 0.2363(6) 0.6548(2)
H25_4 H 0.6552 0.2130 0.6213
C39_4 C 0.5452(3) 0.1998(5) 0.7840(3)
H26_4 H 0.5427 0.1667 0.7541
C40_4 C 0.6837(3) 0.2904(7) 0.7540(3)
H27_4 H 0.6936 0.3042 0.7893
C41_4 C 0.7237(3) 0.2989(6) 0.7134(3)
H28_4 H 0.7585 0.3236 0.7211
O13_4 O 0.86637(16) 0.45007(19) 0.46732(17)
O14_4 O 0.83623(17) 0.44344(19) 0.55153(17)
C42_2 C 0.8661(2) 0.6910(2) 0.4701(2)
H29_2 H 0.8783 0.7191 0.4401
C43_2 C 0.8650(2) 0.6104(3) 0.4694(2)
H30_2 H 0.8770 0.5839 0.4386
C44_4 C 0.8287(3) 0.6062(3) 0.5581(3)
H31_4 H 0.8159 0.5778 0.5878
C45_4 C 0.8295(3) 0.6881(3) 0.5594(3)
H32_4 H 0.8168 0.7146 0.5900
C9_3 C 0.40046(19) 0.5643(2) 0.9984(2)
H3_3 H 0.4327 0.5387 0.9850
C19_3 C 0.3976(2) 0.6447(3) 0.9970(2)
H8_3 H 0.4274 0.6732 0.9815
C42_3 C 0.3661(2) 0.8090(2) 0.9701(2)
H29_3 H 0.3783 0.7809 0.9401
C43_3 C 0.3650(2) 0.8896(3) 0.9694(2)
H30_3 H 0.3770 0.9161 0.9386
H16_4 H 0.0285 0.4331 0.5574
C33_4 C 0.0081(5) 0.4628(8) 0.6551(7)
H18_4 H 0.0376 0.4232 0.6538
H19_4 H 0.0251 0.5140 0.6511
C9_4 C 0.59954(19) 0.4357(2) 0.0016(2)
H3_4 H 0.5673 0.4613 0.0150
C19_4 C 0.6024(2) 0.3553(3) 0.0030(2)
H8_4 H 0.5726 0.3268 0.0185
C42_4 C 0.6339(2) 0.1910(2) 0.0299(2)
H29_4 H 0.6217 0.2191 0.0599
C43_4 C 0.6350(2) 0.1104(3) 0.0306(2)
H30_4 H 0.6230 0.0839 0.0614
loop_
_geom_bond_atom_site_label_1
_geom_bond_atom_site_label_2
_geom_bond_site_symmetry_1
_geom_bond_site_symmetry_2
Zn1 O1 1_555 1_555
Zn2 O1 1_555 1_555
Zn3 O1 1_555 1_555
Zn4 O1 1_555 1_555
O2 C2 1_555 1_555
O3 Zn2 1_555 1_555
O4 C10 1_555 1_555
O6 Zn1 1_555 1_555
O7 Zn4 1_555 1_555
O8 Zn2 1_555 1_555
O9 C2 1_555 1_555
O11 C10 1_555 1_555
C2 C29 1_555 1_555
C3 H1 1_555 1_555
C4 C8 1_555 1_555
C5 C12 1_555 1_555
O12 Zn4 1_555 1_555
H2 O12 1_555 1_555
C6 C9 1_555 1_555
C7 C23 1_555 1_555
C8 O3 1_555 1_555
C9 H3 1_555 1_555
C10 C15 1_555 1_555
C11 O7 1_555 1_555
C12 H4 1_555 1_555
C13 C4 1_555 1_555
H5 C13 1_555 1_555
C14 C3 1_555 1_555
H6 C14 1_555 1_555
C15 C3 1_555 1_555
C16 C17 1_555 1_555
C17 C13 1_555 1_555
H7 C17 1_555 1_555
C18 C14 1_555 1_555
C19 C5 1_555 1_555
H8 C19 1_555 1_555
C20 C4 1_555 1_555
H9 C20 1_555 1_555
C21 C16 1_555 1_555
H10 C21 1_555 1_555
C22 O12 1_555 1_555
H11 C22 1_555 1_555
C23 C43 1_555 1_555
C24 C5 1_555 1_555
C25 C15 1_555 1_555
H12 C25 1_555 1_555
C26 C6 1_555 1_555
H13 C26 1_555 1_555
C27 C18 1_555 1_555
H14 C27 1_555 1_555
C28 C22 1_555 1_555
H15 C28 1_555 1_555
H17 C28 1_555 1_555
C29 C35 1_555 1_555
C30 C32 1_555 1_555
C31 C11 1_555 1_555
C32 C37 1_555 1_555
C34 C30 1_555 1_555
H21 C34 1_555 1_555
C35 C34 1_555 1_555
H22 C35 1_555 1_555
C36 C29 1_555 1_555
H23 C36 1_555 1_555
C37 H24 1_555 1_555
C38 C31 1_555 1_555
H25 C38 1_555 1_555
C39 C30 1_555 1_555
H26 C39 1_555 1_555
C40 C32 1_555 1_555
H27 C40 1_555 1_555
C41 C31 1_555 1_555
H28 C41 1_555 1_555
O13 Zn1 1_555 1_555
O14 Zn4 1_555 1_555
C42 C24 1_555 1_555
H29 C42 1_555 1_555
C43 C42 1_555 1_555
H30 C43 1_555 1_555
C44 C23 1_555 1_555
H31 C44 1_555 1_555
C45 C24 1_555 1_555
H32 C45 1_555 1_555
Zn5 O9 1_555 1_555
Zn9 O4 1_555 1_555
Zn10 O11 1_555 1_555
O15 Zn3 1_555 1_555
O16 Zn3 1_555 1_555
O17 Zn3 1_555 1_555
O18 Zn1 1_555 1_555
O19 Zn2 1_555 1_555
O20 Zn4 1_555 1_555
O6 C8 1_555 1_555
O8 C11 1_555 1_555
C7 O13 1_555 1_555
C7 O14 1_555 1_555
C9 C19 1_555 1_555
C12 C26 1_555 1_555
C16 C18 1_555 1_555
C20 C21 1_555 1_555
C25 C27 1_555 1_555
C36 C39 1_555 1_555
C37 C38 1_555 1_555
C40 C41 1_555 1_555
C44 C45 1_555 1_555
O17 C1 1_555 1_555
O19 C1 1_555 1_555
O16 C10_2 1_555 1_555
O20 C10_2 1_555 1_555
H12_2 C25_2 1_555 1_555
O15 C2_2 1_555 1_555
O18 C2_2 1_555 1_555
O5 C1_2 1_555 1_555
O10 C1_2 1_555 1_555
C1_2 C6_2 1_555 1_555
C5_2 C12_2 1_555 1_555
C12_2 H4_2 1_555 1_555
C24_2 C5_2 1_555 1_555
C26_2 C6_2 1_555 1_555
H13_2 C26_2 1_555 1_555
C44_2 C23_2 1_555 1_555
H31_2 C44_2 1_555 1_555
C45_2 C24_2 1_555 1_555
H32_2 C45_2 1_555 1_555
Zn6 O10 1_555 1_555
Zn9 O5 1_555 1_555
C12_2 C26_2 1_555 1_555
C44_2 C45_2 1_555 1_555
O6_2 Zn5 1_555 1_555
C3_2 H1_2 1_555 1_555
C4_2 C8_2 1_555 1_555
C8_2 O3_2 1_555 1_555
C13_2 C4_2 1_555 1_555
H5_2 C13_2 1_555 1_555
C14_2 C3_2 1_555 1_555
H6_2 C14_2 1_555 1_555
C15_2 C3_2 1_555 1_555
C16_2 C17_2 1_555 1_555
C17_2 C13_2 1_555 1_555
H7_2 C17_2 1_555 1_555
C18_2 C14_2 1_555 1_555
C20_2 C4_2 1_555 1_555
H9_2 C20_2 1_555 1_555
C21_2 C16_2 1_555 1_555
H10_2 C21_2 1_555 1_555
C27_2 C18_2 1_555 1_555
H14_2 C27_2 1_555 1_555
O13_2 Zn5 1_555 1_555
O6_2 C8_2 1_555 1_555
C16_2 C18_2 1_555 1_555
C20_2 C21_2 1_555 1_555
Zn6 O1_2 1_555 1_555
Zn9 O1_2 1_555 1_555
Zn10 O1_2 1_555 1_555
O7_2 Zn10 1_555 1_555
O8_2 Zn6 1_555 1_555
O12_2 Zn10 1_555 1_555
H2_2 O12_2 1_555 1_555
C11_2 O7_2 1_555 1_555
C22_2 O12_2 1_555 1_555
H11_2 C22_2 1_555 1_555
C28_2 C22_2 1_555 1_555
H15_2 C28_2 1_555 1_555
H16 C28_2 1_555 1_555
H17_2 C28_2 1_555 1_555
C29_2 C35_2 1_555 1_555
C30_2 C32_2 1_555 1_555
C31_2 C11_2 1_555 1_555
C32_2 C37_2 1_555 1_555
C33 C22_2 1_555 1_555
H18 C33 1_555 1_555
H20_2 C33 1_555 1_555
C34_2 C30_2 1_555 1_555
H21_2 C34_2 1_555 1_555
C35_2 C34_2 1_555 1_555
H22_2 C35_2 1_555 1_555
C36_2 C29_2 1_555 1_555
C37_2 H24_2 1_555 1_555
C38_2 C31_2 1_555 1_555
H25_2 C38_2 1_555 1_555
C39_2 C30_2 1_555 1_555
H26_2 C39_2 1_555 1_555
C40_2 C32_2 1_555 1_555
H27_2 C40_2 1_555 1_555
C41_2 C31_2 1_555 1_555
H28_2 C41_2 1_555 1_555
O14_2 Zn10 1_555 1_555
O8_2 C11_2 1_555 1_555
C7_2 O14_2 1_555 1_555
C36_2 C39_2 1_555 1_555
C37_2 C38_2 1_555 1_555
C40_2 C41_2 1_555 1_555
H18_2 C33_2 1_555 1_555
H19_2 C33_2 1_555 1_555
Zn2_2 O1_3 1_555 1_555
Zn3_2 O1_3 1_555 1_555
Zn4_2 O1_3 1_555 1_555
O7_3 Zn4_2 1_555 1_555
O8_3 Zn2_2 1_555 1_555
O12_3 Zn4_2 1_555 1_555
H2_3 O12_3 1_555 1_555
C11_3 O7_3 1_555 1_555
C22_3 O12_3 1_555 1_555
H11_3 C22_3 1_555 1_555
C28_3 C22_3 1_555 1_555
H15_3 C28_3 1_555 1_555
H16_3 C28_3 1_555 1_555
H17_3 C28_3 1_555 1_555
C29_3 C35_3 1_555 1_555
C30_3 C32_3 1_555 1_555
C31_3 C11_3 1_555 1_555
C32_3 C37_3 1_555 1_555
C33_3 C22_3 1_555 1_555
H18_3 C33_3 1_555 1_555
H20_3 C33_3 1_555 1_555
C34_3 C30_3 1_555 1_555
H21_3 C34_3 1_555 1_555
C35_3 C34_3 1_555 1_555
H22_3 C35_3 1_555 1_555
C36_3 C29_3 1_555 1_555
C37_3 H24_3 1_555 1_555
C38_3 C31_3 1_555 1_555
H25_3 C38_3 1_555 1_555
C39_3 C30_3 1_555 1_555
H26_3 C39_3 1_555 1_555
C40_3 C32_3 1_555 1_555
H27_3 C40_3 1_555 1_555
C41_3 C31_3 1_555 1_555
H28_3 C41_3 1_555 1_555
O14_3 Zn4_2 1_555 1_555
O16_2 Zn3_2 1_555 1_555
O17_2 Zn3_2 1_555 1_555
O19_2 Zn2_2 1_555 1_555
O20_2 Zn4_2 1_555 1_555
O8_3 C11_3 1_555 1_555
C7_3 O14_3 1_555 1_555
C36_3 C39_3 1_555 1_555
C37_3 C38_3 1_555 1_555
C40_3 C41_3 1_555 1_555
O6_3 Zn1_2 1_555 1_555
C3_3 H1_3 1_555 1_555
C4_3 C8_3 1_555 1_555
C8_3 O3_3 1_555 1_555
C13_3 C4_3 1_555 1_555
H5_3 C13_3 1_555 1_555
C14_3 C3_3 1_555 1_555
H6_3 C14_3 1_555 1_555
C15_3 C3_3 1_555 1_555
C16_3 C17_3 1_555 1_555
C17_3 C13_3 1_555 1_555
H7_3 C17_3 1_555 1_555
C18_3 C14_3 1_555 1_555
C20_3 C4_3 1_555 1_555
H9_3 C20_3 1_555 1_555
C21_3 C16_3 1_555 1_555
H10_3 C21_3 1_555 1_555
C27_3 C18_3 1_555 1_555
H14_3 C27_3 1_555 1_555
O13_3 Zn1_2 1_555 1_555
O18_2 Zn1_2 1_555 1_555
O6_3 C8_3 1_555 1_555
C16_3 C18_3 1_555 1_555
C20_3 C21_3 1_555 1_555
O17_2 C1_3 1_555 1_555
O19_2 C1_3 1_555 1_555
C1_3 C6_3 1_555 1_555
C5_3 C12_3 1_555 1_555
C12_3 H4_3 1_555 1_555
C24_3 C5_3 1_555 1_555
C26_3 C6_3 1_555 1_555
H13_3 C26_3 1_555 1_555
C44_3 C23_3 1_555 1_555
H31_3 C44_3 1_555 1_555
C45_3 C24_3 1_555 1_555
H32_3 C45_3 1_555 1_555
C12_3 C26_3 1_555 1_555
C44_3 C45_3 1_555 1_555
O2_2 C2_3 1_555 1_555
O9_2 C2_3 1_555 1_555
Zn5_2 O9_2 1_555 1_555
Zn8 O2_2 1_555 1_555
O4_2 C10_3 1_555 1_555
O11_2 C10_3 1_555 1_555
H12_3 C25_3 1_555 1_555
Zn8 O4_2 1_555 1_555
Zn10_2 O11_2 1_555 1_555
O5_2 C1_4 1_555 1_555
O10_2 C1_4 1_555 1_555
Zn6_2 O10_2 1_555 1_555
Zn8 O5_2 1_555 1_555
Zn5_2 O1_4 1_555 1_555
Zn6_2 O1_4 1_555 1_555
Zn8 O1_4 1_555 1_555
Zn10_2 O1_4 1_555 1_555
O15_2 C2_4 1_555 1_555
O3_4 Zn6_2 1_555 1_555
O16_2 C10_4 1_555 1_555
O6_4 Zn5_2 1_555 1_555
O7_4 Zn10_2 1_555 1_555
O8_4 Zn6_2 1_555 1_555
O18_2 C2_4 1_555 1_555
O20_2 C10_4 1_555 1_555
C2_4 C29_4 1_555 1_555
C3_4 H1_4 1_555 1_555
C4_4 C8_4 1_555 1_555
C5_4 C12_4 1_555 1_555
O12_4 Zn10_2 1_555 1_555
H2_4 O12_4 1_555 1_555
C6_4 C9_2 1_555 1_555
C7_4 C23_4 1_555 1_555
C8_4 O3_4 1_555 1_555
C9_2 H3_2 1_555 1_555
C10_4 C15_4 1_555 1_555
C11_4 O7_4 1_555 1_555
C12_4 H4_4 1_555 1_555
C13_4 C4_4 1_555 1_555
H5_4 C13_4 1_555 1_555
C14_4 C3_4 1_555 1_555
H6_4 C14_4 1_555 1_555
C15_4 C3_4 1_555 1_555
C16_4 C17_4 1_555 1_555
C17_4 C13_4 1_555 1_555
H7_4 C17_4 1_555 1_555
C18_4 C14_4 1_555 1_555
C19_2 C5_4 1_555 1_555
H8_2 C19_2 1_555 1_555
C20_4 C4_4 1_555 1_555
H9_4 C20_4 1_555 1_555
C21_4 C16_4 1_555 1_555
H10_4 C21_4 1_555 1_555
C22_4 O12_4 1_555 1_555
H11_4 C22_4 1_555 1_555
C23_4 C43_2 1_555 1_555
C24_4 C5_4 1_555 1_555
C25_4 C15_4 1_555 1_555
H12_4 C25_4 1_555 1_555
C26_4 C6_4 1_555 1_555
H13_4 C26_4 1_555 1_555
C27_4 C18_4 1_555 1_555
H14_4 C27_4 1_555 1_555
C28_4 C22_4 1_555 1_555
H15_4 C28_4 1_555 1_555
H17_4 C28_4 1_555 1_555
C29_4 C35_4 1_555 1_555
C30_4 C32_4 1_555 1_555
C31_4 C11_4 1_555 1_555
C32_4 C37_4 1_555 1_555
C34_4 C30_4 1_555 1_555
H21_4 C34_4 1_555 1_555
C35_4 C34_4 1_555 1_555
H22_4 C35_4 1_555 1_555
C36_4 C29_4 1_555 1_555
H23_4 C36_4 1_555 1_555
C37_4 H24_4 1_555 1_555
C38_4 C31_4 1_555 1_555
H25_4 C38_4 1_555 1_555
C39_4 C30_4 1_555 1_555
H26_4 C39_4 1_555 1_555
C40_4 C32_4 1_555 1_555
H27_4 C40_4 1_555 1_555
C41_4 C31_4 1_555 1_555
H28_4 C41_4 1_555 1_555
O13_4 Zn5_2 1_555 1_555
O14_4 Zn10_2 1_555 1_555
C42_2 C24_4 1_555 1_555
H29_2 C42_2 1_555 1_555
C43_2 C42_2 1_555 1_555
H30_2 C43_2 1_555 1_555
C44_4 C23_4 1_555 1_555
H31_4 C44_4 1_555 1_555
C45_4 C24_4 1_555 1_555
H32_4 C45_4 1_555 1_555
O6_4 C8_4 1_555 1_555
O8_4 C11_4 1_555 1_555
C7_4 O13_4 1_555 1_555
C7_4 O14_4 1_555 1_555
C9_2 C19_2 1_555 1_555
C12_4 C26_4 1_555 1_555
C16_4 C18_4 1_555 1_555
C20_4 C21_4 1_555 1_555
C25_4 C27_4 1_555 1_555
C36_4 C39_4 1_555 1_555
C37_4 C38_4 1_555 1_555
C40_4 C41_4 1_555 1_555
C44_4 C45_4 1_555 1_555
C9_3 H3_3 1_555 1_555
H8_3 C19_3 1_555 1_555
H29_3 C42_3 1_555 1_555
C43_3 C42_3 1_555 1_555
H30_3 C43_3 1_555 1_555
C9_3 C19_3 1_555 1_555
H18_4 C33_4 1_555 1_555
H19_4 C33_4 1_555 1_555
C9_4 H3_4 1_555 1_555
H8_4 C19_4 1_555 1_555
H29_4 C42_4 1_555 1_555
C43_4 C42_4 1_555 1_555
H30_4 C43_4 1_555 1_555
C9_4 C19_4 1_555 1_555

#END
