
###############################################################################
#
# This file contains modified crystal structure data generated from the
# MOF subset of the Cambridge Structural Database (CSD) v543 
# hosted by the Cambridge Crystallographic Data Centre (CCDC).
#
# This work is licensed under the Creative Commons
# Attribution-NonCommercial-ShareAlike 4.0 International License.
# To view a copy of this license, visit
# http://creativecommons.org/licenses/by-nc-sa/4.0/
# or send a letter to
# Creative Commons, PO Box 1866, Mountain View, CA 94042, USA.
#
# CIF created using the CSD Python API on 29 September 2022
# The structure has been converted into the P1 space group
# The structure has a 3D framework
# The original CSD entry PIWLEP is in the monoclinic crystal system
# The framework has been calculated to contain at least 10.0% void space
# The void calculation uses a probe of radius 1.32A, grid spacing 0.4
#
###############################################################################

data_PIWLEP
_chemical_formula_moiety         '(C180 H128 O56 Zn16)n'
_symmetry_cell_setting           triclinic
_symmetry_space_group_name_H-M   'P 1'
_symmetry_Int_Tables_number      1
_space_group_name_Hall           'P 1'
loop_
_symmetry_equiv_pos_site_id
_symmetry_equiv_pos_as_xyz
1 x,y,z
_cell_length_a                   22.0643(4)
_cell_length_b                   17.1852(2)
_cell_length_c                   26.1140(3)
_cell_angle_alpha                90
_cell_angle_beta                 90.7490(10)
_cell_angle_gamma                90
_cell_volume                     9901.05
loop_
_atom_site_label
_atom_site_type_symbol
_atom_site_fract_x
_atom_site_fract_y
_atom_site_fract_z
Zn3 Zn 0.13898(3) 0.13823(3) 0.04001(2)
O1 O 0.02572(18) 0.2567(3) 0.04471(16)
O2 O 0.51102(19) 0.2218(3) 0.42763(17)
O4 O 0.25920(19) 0.2545(3) 0.04220(15)
O6 O 0.13521(17) 0.0277(2) 0.02532(17)
C1 C 0.0339(3) 0.2156(4) 0.0836(2)
O10 O 0.0744(2) 0.1625(3) 0.0874(2)
O12 O 0.2149(2) 0.1532(3) 0.07853(19)
O14 O 0.59217(19) 0.2430(4) 0.37979(18)
C22 C 0.5354(3) 0.2311(4) 0.3841(2)
C27 C 0.0017(2) 0.1864(3) 0.17322(18)
H16 H 0.0308 0.1456 0.1746
C29 C 0.2552(3) 0.2061(4) 0.0766(2)
C31 C 0.4197(2) 0.2191(4) 0.25171(15)
C32 C 0.40054(17) 0.1890(4) 0.29818(18)
H18 H 0.3617 0.1657 0.3006
C33 C 0.43829(19) 0.1931(3) 0.34113(14)
H19 H 0.4252 0.1725 0.3729
C34 C 0.49518(18) 0.2273(3) 0.33760(14)
C35 C 0.51432(17) 0.2574(4) 0.29113(17)
H20 H 0.5532 0.2808 0.2887
C36 C 0.4766(2) 0.2533(4) 0.24819(14)
H21 H 0.4896 0.2739 0.2164
C37 C 0.3785(2) 0.2132(3) 0.20404(16)
C38 C 0.3769(2) 0.2734(3) 0.16853(17)
H22 H 0.4026 0.3173 0.1730
C39 C 0.3377(2) 0.2695(2) 0.12651(15)
H23 H 0.3366 0.3107 0.1022
C40 C 0.3001(2) 0.2053(3) 0.12000(15)
C41 C 0.3017(3) 0.1450(3) 0.1555(2)
H24 H 0.2760 0.1011 0.1510
C42 C 0.3409(3) 0.1490(3) 0.19752(19)
H25 H 0.3420 0.1078 0.2218
Zn6 Zn 0.57092(2) 0.22476(4) 0.48252(2)
Zn10 Zn 0.63843(3) 0.35780(4) 0.41493(2)
Zn1 Zn 0.07092(2) 0.27524(4) 0.98252(2)
Zn2 Zn 0.21275(2) 0.26438(3) 0.97776(2)
Zn4 Zn 0.13843(3) 0.14220(4) 0.91493(2)
O5 O 0.13851(14) 0.2012(2) 0.97900(12)
O11 O 0.1665(2) 0.0359(3) 0.9447(2)
O13 O 0.0754(2) 0.0943(4) 0.8694(2)
H9 H 0.083(2) 0.082(4) 0.8381(8)
C43 C 0.0070(3) 0.0627(6) 0.9367(3)
H26 H 0.0380 0.0534 0.9632
C44 C 0.0303(4) 0.0387(6) 0.8871(4)
O15 O 0.01102(19) 0.2782(3) 0.92763(17)
O16 O 0.26602(17) 0.2380(3) 0.92233(15)
O17 O 0.10058(19) 0.3814(3) 0.9924(2)
O18 O 0.19747(18) 0.3763(2) 0.9698(2)
O19 O 0.2071(2) 0.1636(3) 0.87107(17)
O20 O 0.09217(19) 0.2570(4) 0.87979(18)
C2 C 0.15437(19) 0.66129(15) 0.9773(2)
C3 C 0.20186(18) 0.6189(2) 0.9566(2)
H1 H 0.2353 0.6453 0.9420
C4 C 0.20045(17) 0.5381(2) 0.9575(2)
H2 H 0.2329 0.5092 0.9434
C5 C 0.15156(17) 0.49959(15) 0.97898(18)
C6 C 0.10407(15) 0.54193(19) 0.99960(17)
C7 C 0.10548(16) 0.62278(19) 0.99874(19)
C8 C 0.1574(2) 0.74900(16) 0.9800(2)
C11 C 0.1577(2) 0.91071(16) 0.98281(18)
C12 C 0.1761(2) 0.8719(2) 0.93896(17)
H7 H 0.1887 0.9007 0.9099
C13 C 0.1759(3) 0.7911(2) 0.93757(17)
H8 H 0.1885 0.7646 0.9076
C15 C 0.1528(3) 0.9997(3) 0.9841(3)
C30 C 0.1498(3) 0.4108(4) 0.9803(2)
H29 H 0.0495 0.9862 0.8905
O3 O 0.76602(17) 0.2620(3) 0.42233(15)
O9 O 0.7071(2) 0.3364(3) 0.37107(17)
C14 C 0.7544(2) 0.2985(3) 0.3805(2)
C16 C 0.88062(17) 0.2738(3) 0.25827(14)
C17 C 0.8234(2) 0.3050(4) 0.24884(13)
H10 H 0.8121 0.3204 0.2151
C18 C 0.78289(17) 0.3137(4) 0.28874(16)
H11 H 0.7438 0.3350 0.2823
C19 C 0.79955(16) 0.2911(3) 0.33807(14)
C20 C 0.85674(19) 0.2600(4) 0.34750(13)
H12 H 0.8681 0.2446 0.3812
C21 C 0.89728(16) 0.2513(4) 0.30760(16)
H13 H 0.9364 0.2300 0.3140
C23 C 0.9221(2) 0.2598(3) 0.21291(13)
C24 C 0.9165(2) 0.3055(3) 0.16920(16)
H14 H 0.8874 0.3462 0.1678
C25 C 0.9535(2) 0.2917(3) 0.12750(14)
H15 H 0.9497 0.3229 0.0976
C26 C 0.99610(18) 0.2321(3) 0.12951(14)
C28 C 0.9647(3) 0.2002(3) 0.21492(16)
H17 H 0.9685 0.1689 0.2448
Zn8 Zn 0.71275(2) 0.23562(3) 0.47776(2)
C22_2 C 0.0354(3) 0.2689(4) 0.8841(2)
C35_2 C 0.01432(17) 0.2426(4) 0.79113(17)
H20_2 H 0.0532 0.2192 0.7887
O7 O 0.60058(19) 0.1186(3) 0.4924(2)
O8 O 0.69747(18) 0.1237(2) 0.4698(2)
C5_2 C 0.65156(17) 0.00041(15) 0.47898(18)
C30_2 C 0.6498(3) 0.0892(4) 0.4803(2)
Zn3_2 Zn 0.63898(3) 0.36177(3) 0.54001(2)
O1_2 O 0.52572(18) 0.2433(3) 0.54471(16)
O4_2 O 0.75920(19) 0.2455(3) 0.54220(15)
O5_2 O 0.63851(14) 0.2988(2) 0.47900(12)
O6_2 O 0.63521(17) 0.4723(2) 0.52532(17)
C1_2 C 0.5339(3) 0.2844(4) 0.5836(2)
C2_2 C 0.65437(19) 0.83871(15) 0.4773(2)
C3_2 C 0.70186(18) 0.8811(2) 0.4566(2)
H1_2 H 0.7353 0.8547 0.4420
C4_2 C 0.70045(17) 0.9619(2) 0.4575(2)
H2_2 H 0.7329 0.9908 0.4434
C6_2 C 0.60407(15) 0.95807(19) 0.49960(17)
H3 H 0.5707 0.9844 0.5143
C7_2 C 0.60548(16) 0.87722(19) 0.49874(19)
H4 H 0.5730 0.8483 0.5128
C8_2 C 0.6574(2) 0.75100(16) 0.4800(2)
C9 C 0.6390(2) 0.7122(2) 0.52389(15)
H5 H 0.6263 0.7410 0.5529
C10 C 0.6391(2) 0.6314(2) 0.52528(15)
H6 H 0.6266 0.6049 0.5552
C11_2 C 0.6577(2) 0.58929(16) 0.48281(18)
C12_2 C 0.6761(2) 0.6281(2) 0.43896(17)
H7_2 H 0.6887 0.5993 0.4099
C13_2 C 0.6759(3) 0.7089(2) 0.43757(17)
H8_2 H 0.6885 0.7354 0.4076
O10_2 O 0.5744(2) 0.3375(3) 0.5874(2)
O11_2 O 0.6665(2) 0.4641(3) 0.4447(2)
O12_2 O 0.7149(2) 0.3468(3) 0.57853(19)
O13_2 O 0.5754(2) 0.4057(4) 0.3694(2)
H9_2 H 0.583(2) 0.418(4) 0.3381(8)
C14_2 C 0.2544(2) 0.2015(3) 0.8805(2)
C15_2 C 0.6528(3) 0.5003(3) 0.4841(3)
C16_2 C 0.38062(17) 0.2262(3) 0.75827(14)
C17_2 C 0.3234(2) 0.1950(4) 0.74884(13)
H10_2 H 0.3121 0.1796 0.7151
C18_2 C 0.28289(17) 0.1863(4) 0.78874(16)
H11_2 H 0.2438 0.1650 0.7823
C19_2 C 0.29955(16) 0.2089(3) 0.83807(14)
C20_2 C 0.35674(19) 0.2400(4) 0.84750(13)
H12_2 H 0.3681 0.2554 0.8812
C21_2 C 0.39728(16) 0.2487(4) 0.80760(16)
H13_2 H 0.4364 0.2700 0.8140
C23_2 C 0.4221(2) 0.2402(3) 0.71291(13)
C24_2 C 0.4165(2) 0.1945(3) 0.66920(16)
H14_2 H 0.3874 0.1538 0.6678
C25_2 C 0.4535(2) 0.2083(3) 0.62750(14)
H15_2 H 0.4497 0.1771 0.5976
C26_2 C 0.49610(18) 0.2679(3) 0.62951(14)
C27_2 C 0.5017(2) 0.3136(3) 0.67322(18)
H16_2 H 0.5308 0.3544 0.6746
C28_2 C 0.4647(3) 0.2998(3) 0.71492(16)
H17_2 H 0.4685 0.3311 0.7448
C29_2 C 0.7552(3) 0.2939(4) 0.5766(2)
C31_2 C 0.9197(2) 0.2809(4) 0.75171(15)
C32_2 C 0.90054(17) 0.3110(4) 0.79818(18)
H18_2 H 0.8617 0.3343 0.8006
C33_2 C 0.93829(19) 0.3069(3) 0.84113(14)
H19_2 H 0.9252 0.3275 0.8729
C34_2 C 0.99518(18) 0.2727(3) 0.83760(14)
C36_2 C 0.9766(2) 0.2467(4) 0.74819(14)
H21_2 H 0.9896 0.2261 0.7164
C37_2 C 0.8785(2) 0.2868(3) 0.70404(16)
C38_2 C 0.8769(2) 0.2266(3) 0.66853(17)
H22_2 H 0.9026 0.1827 0.6730
C39_2 C 0.8377(2) 0.2305(2) 0.62651(15)
H23_2 H 0.8366 0.1893 0.6022
C40_2 C 0.8001(2) 0.2947(3) 0.62000(15)
C41_2 C 0.8017(3) 0.3550(3) 0.6555(2)
H24_2 H 0.7760 0.3989 0.6510
C42_2 C 0.8409(3) 0.3510(3) 0.69752(19)
H25_2 H 0.8420 0.3922 0.7218
C43_2 C 0.5070(3) 0.4373(6) 0.4367(3)
H26_2 H 0.5380 0.4466 0.4632
H27 H 0.4706 0.4674 0.4444
H28 H 0.4970 0.3818 0.4357
C44_2 C 0.5303(4) 0.4613(6) 0.3871(4)
H29_2 H 0.5495 0.5138 0.3905
C45 C 0.4769(7) 0.4657(10) 0.3466(6)
H30 H 0.4691 0.4137 0.3326
H31 H 0.4403 0.4850 0.3633
H32 H 0.4880 0.5011 0.3189
H3_2 H 0.0707 0.5156 0.0143
H4_2 H 0.0730 0.6517 0.0128
C9_2 C 0.1390(2) 0.7878(2) 0.02389(15)
H5_2 H 0.1263 0.7590 0.0529
C10_2 C 0.1391(2) 0.8686(2) 0.02528(15)
H6_2 H 0.1266 0.8951 0.0552
H27_2 H 0.9706 0.0326 0.9444
H28_2 H 0.9970 0.1182 0.9357
C45_2 C 0.9769(7) 0.0343(10) 0.8466(6)
H30_2 H 0.9691 0.0863 0.8326
H31_2 H 0.9403 0.0150 0.8633
H32_2 H 0.9880 0.9989 0.8189
Zn1_2 Zn 0.42908(2) 0.77524(4) 0.51748(2)
Zn2_2 Zn 0.28725(2) 0.76438(3) 0.52224(2)
Zn3_3 Zn 0.36102(3) 0.63823(3) 0.45999(2)
Zn4_2 Zn 0.36157(3) 0.64220(4) 0.58507(2)
O1_3 O 0.47428(18) 0.7567(3) 0.45529(16)
O3_2 O 0.73398(17) 0.7620(3) 0.07767(15)
O4_3 O 0.24080(19) 0.7545(3) 0.45780(15)
O5_3 O 0.36149(14) 0.7012(2) 0.52100(12)
O6_3 O 0.36479(17) 0.5277(2) 0.47468(17)
O9_2 O 0.7929(2) 0.8364(3) 0.12893(17)
C1_3 C 0.4661(3) 0.7156(4) 0.4164(2)
C2_3 C 0.34563(19) 0.16129(15) 0.5227(2)
C3_3 C 0.29814(18) 0.1189(2) 0.5434(2)
H1_3 H 0.2647 0.1453 0.5580
C4_3 C 0.29955(17) 0.0381(2) 0.5425(2)
H2_3 H 0.2671 0.0092 0.5566
C6_3 C 0.39593(15) 0.04193(19) 0.50040(17)
H3_3 H 0.4293 0.0156 0.4857
C7_3 C 0.39452(16) 0.12278(19) 0.50126(19)
H4_3 H 0.4270 0.1517 0.4872
C8_3 C 0.3426(2) 0.24900(16) 0.5200(2)
C9_3 C 0.3610(2) 0.2878(2) 0.47611(15)
H5_3 H 0.3737 0.2590 0.4471
C10_3 C 0.3609(2) 0.3686(2) 0.47472(15)
H6_3 H 0.3734 0.3951 0.4448
C11_3 C 0.3423(2) 0.41071(16) 0.51719(18)
C12_3 C 0.3239(2) 0.3719(2) 0.56104(17)
H7_3 H 0.3113 0.4007 0.5901
C13_3 C 0.3241(3) 0.2911(2) 0.56243(17)
H8_3 H 0.3115 0.2646 0.5924
O10_3 O 0.4256(2) 0.6625(3) 0.4126(2)
O11_3 O 0.3335(2) 0.5359(3) 0.5553(2)
O12_3 O 0.2851(2) 0.6532(3) 0.42147(19)
O13_3 O 0.4246(2) 0.5943(4) 0.6306(2)
H9_3 H 0.417(2) 0.582(4) 0.6619(8)
C14_3 C 0.7456(2) 0.7985(3) 0.1195(2)
C15_3 C 0.3472(3) 0.4997(3) 0.5159(3)
C16_3 C 0.61938(17) 0.7738(3) 0.24173(14)
C17_3 C 0.6766(2) 0.8050(4) 0.25116(13)
H10_3 H 0.6879 0.8204 0.2849
C18_3 C 0.71711(17) 0.8137(4) 0.21126(16)
H11_3 H 0.7562 0.8350 0.2177
C19_3 C 0.70045(16) 0.7911(3) 0.16193(14)
C20_3 C 0.64326(19) 0.7600(4) 0.15250(13)
H12_3 H 0.6319 0.7446 0.1188
C21_3 C 0.60272(16) 0.7513(4) 0.19240(16)
H13_3 H 0.5636 0.7300 0.1860
C23_3 C 0.5779(2) 0.7598(3) 0.28709(13)
C24_3 C 0.5835(2) 0.8055(3) 0.33080(16)
H14_3 H 0.6126 0.8462 0.3322
C25_3 C 0.5465(2) 0.7917(3) 0.37250(14)
H15_3 H 0.5503 0.8229 0.4024
C26_3 C 0.50390(18) 0.7321(3) 0.37049(14)
C27_3 C 0.4983(2) 0.6864(3) 0.32678(18)
H16_3 H 0.4692 0.6456 0.3254
C28_3 C 0.5353(3) 0.7002(3) 0.28508(16)
H17_3 H 0.5315 0.6689 0.2552
C29_3 C 0.2448(3) 0.7061(4) 0.4234(2)
C31_3 C 0.0803(2) 0.7191(4) 0.24829(15)
C32_3 C 0.09946(17) 0.6890(4) 0.20182(18)
H18_3 H 0.1383 0.6657 0.1994
C33_3 C 0.06171(19) 0.6931(3) 0.15887(14)
H19_3 H 0.0748 0.6725 0.1271
C34_3 C 0.00482(18) 0.7273(3) 0.16240(14)
C36_3 C 0.0234(2) 0.7533(4) 0.25181(14)
H21_3 H 0.0104 0.7739 0.2836
C37_3 C 0.1215(2) 0.7132(3) 0.29596(16)
C38_3 C 0.1231(2) 0.7734(3) 0.33147(17)
H22_3 H 0.0974 0.8173 0.3270
C39_3 C 0.1623(2) 0.7695(2) 0.37349(15)
H23_3 H 0.1634 0.8107 0.3978
C40_3 C 0.1999(2) 0.7053(3) 0.38000(15)
C41_3 C 0.1983(3) 0.6450(3) 0.3445(2)
H24_3 H 0.2240 0.6011 0.3490
C42_3 C 0.1591(3) 0.6490(3) 0.30248(19)
H25_3 H 0.1580 0.6078 0.2782
C43_3 C 0.4930(3) 0.5627(6) 0.5633(3)
H26_3 H 0.4620 0.5534 0.5368
H27_3 H 0.5294 0.5326 0.5556
H28_3 H 0.5030 0.6182 0.5643
C44_3 C 0.4697(4) 0.5387(6) 0.6129(4)
H29_3 H 0.4505 0.4862 0.6095
C45_3 C 0.5231(7) 0.5343(10) 0.6534(6)
H30_3 H 0.5309 0.5863 0.6674
H31_3 H 0.5597 0.5150 0.6367
H32_3 H 0.5120 0.4989 0.6811
Zn8_2 Zn 0.78725(2) 0.73562(3) 0.02224(2)
Zn9 Zn 0.86157(3) 0.85780(4) 0.08507(2)
O15_2 O 0.48898(19) 0.7782(3) 0.57237(17)
O16_2 O 0.23398(17) 0.7380(3) 0.57767(15)
O17_2 O 0.39942(19) 0.8814(3) 0.5076(2)
O18_2 O 0.30253(18) 0.8763(2) 0.5302(2)
O19_2 O 0.2929(2) 0.6636(3) 0.62893(17)
O20_2 O 0.40783(19) 0.7570(4) 0.62021(18)
C5_3 C 0.34844(17) 0.99959(15) 0.52102(18)
C30_3 C 0.3502(3) 0.9108(4) 0.5197(2)
O2_2 O 0.98898(19) 0.7218(3) 0.07237(17)
O14_2 O 0.90783(19) 0.7430(4) 0.12021(18)
C22_3 C 0.9646(3) 0.7311(4) 0.1159(2)
C35_3 C 0.98568(17) 0.7574(4) 0.20887(17)
H20_3 H 0.9468 0.7808 0.2113
Zn6_2 Zn 0.92908(2) 0.72476(4) 0.01748(2)
C14_4 C 0.2456(2) 0.7015(3) 0.6195(2)
C16_4 C 0.11938(17) 0.7262(3) 0.74173(14)
C17_4 C 0.1766(2) 0.6950(4) 0.75116(13)
H10_4 H 0.1879 0.6796 0.7849
C18_4 C 0.21711(17) 0.6863(4) 0.71126(16)
H11_4 H 0.2562 0.6650 0.7177
C19_4 C 0.20045(16) 0.7089(3) 0.66193(14)
C20_4 C 0.14326(19) 0.7400(4) 0.65250(13)
H12_4 H 0.1319 0.7554 0.6188
C21_4 C 0.10272(16) 0.7487(4) 0.69240(16)
H13_4 H 0.0636 0.7700 0.6860
C23_4 C 0.0779(2) 0.7402(3) 0.78709(13)
C24_4 C 0.0835(2) 0.6945(3) 0.83080(16)
H14_4 H 0.1126 0.6538 0.8322
C25_4 C 0.0465(2) 0.7083(3) 0.87250(14)
H15_4 H 0.0503 0.6771 0.9024
C26_4 C 0.00390(18) 0.7679(3) 0.87049(14)
C28_4 C 0.0353(3) 0.7998(3) 0.78508(16)
H17_4 H 0.0315 0.8311 0.7552
O7_2 O 0.89942(19) 0.6186(3) 0.0076(2)
O8_2 O 0.80253(18) 0.6237(2) 0.0302(2)
C2_4 C 0.84563(19) 0.33871(15) 0.0227(2)
C3_4 C 0.79814(18) 0.3811(2) 0.0434(2)
H1_4 H 0.7647 0.3547 0.0580
C4_4 C 0.79955(17) 0.4619(2) 0.0425(2)
H2_4 H 0.7671 0.4908 0.0566
C5_4 C 0.84844(17) 0.50041(15) 0.02102(18)
C6_4 C 0.89593(15) 0.45807(19) 0.00040(17)
C7_4 C 0.89452(16) 0.37722(19) 0.00126(19)
C8_4 C 0.8426(2) 0.25100(16) 0.0200(2)
C11_4 C 0.8423(2) 0.08929(16) 0.01719(18)
C12_4 C 0.8239(2) 0.1281(2) 0.06104(17)
H7_4 H 0.8113 0.0993 0.0901
C13_4 C 0.8241(3) 0.2089(2) 0.06243(17)
H8_4 H 0.8115 0.2354 0.0924
C15_4 C 0.8472(3) 0.0003(3) 0.0159(3)
C30_4 C 0.8502(3) 0.5892(4) 0.0197(2)
H29_4 H 0.9505 0.0138 0.1095
O5_4 O 0.86149(14) 0.7988(2) 0.02100(12)
O11_4 O 0.8335(2) 0.9641(3) 0.0553(2)
O13_4 O 0.9246(2) 0.9057(4) 0.1306(2)
H9_4 H 0.917(2) 0.918(4) 0.1619(8)
C43_4 C 0.9930(3) 0.9373(6) 0.0633(3)
H26_4 H 0.9620 0.9466 0.0368
C44_4 C 0.9697(4) 0.9613(6) 0.1129(4)
Zn3_4 Zn 0.86102(3) 0.86177(3) 0.95999(2)
O1_4 O 0.97428(18) 0.7433(3) 0.95529(16)
O4_4 O 0.74080(19) 0.7455(3) 0.95780(15)
O6_4 O 0.86479(17) 0.9723(2) 0.97468(17)
C1_4 C 0.9661(3) 0.7844(4) 0.9164(2)
O10_4 O 0.9256(2) 0.8375(3) 0.9126(2)
O12_4 O 0.7851(2) 0.8468(3) 0.92147(19)
C22_4 C 0.4646(3) 0.7689(4) 0.6159(2)
C27_4 C 0.9983(2) 0.8136(3) 0.82678(18)
H16_4 H 0.9692 0.8544 0.8254
C29_4 C 0.7448(3) 0.7939(4) 0.9234(2)
C31_4 C 0.5803(2) 0.7809(4) 0.74829(15)
C32_4 C 0.59946(17) 0.8110(4) 0.70182(18)
H18_4 H 0.6383 0.8343 0.6994
C33_4 C 0.56171(19) 0.8069(3) 0.65887(14)
H19_4 H 0.5748 0.8275 0.6271
C34_4 C 0.50482(18) 0.7727(3) 0.66240(14)
C35_4 C 0.48568(17) 0.7426(4) 0.70887(17)
H20_4 H 0.4468 0.7192 0.7113
C36_4 C 0.5234(2) 0.7467(4) 0.75181(14)
H21_4 H 0.5104 0.7261 0.7836
C37_4 C 0.6215(2) 0.7868(3) 0.79596(16)
C38_4 C 0.6231(2) 0.7266(3) 0.83147(17)
H22_4 H 0.5974 0.6827 0.8270
C39_4 C 0.6623(2) 0.7305(2) 0.87349(15)
H23_4 H 0.6634 0.6893 0.8978
C40_4 C 0.6999(2) 0.7947(3) 0.88000(15)
C41_4 C 0.6983(3) 0.8550(3) 0.8445(2)
H24_4 H 0.7240 0.8989 0.8490
C42_4 C 0.6591(3) 0.8510(3) 0.80248(19)
H25_4 H 0.6580 0.8922 0.7782
H32_4 H 0.0120 0.0011 0.1811
H27_4 H 0.0294 0.9674 0.0556
H28_4 H 0.0030 0.8818 0.0643
C45_4 C 0.0231(7) 0.9657(10) 0.1534(6)
H30_4 H 0.0309 0.9137 0.1674
H31_4 H 0.0597 0.9850 0.1367
H3_4 H 0.9293 0.4844 0.9857
H4_4 H 0.9270 0.3483 0.9872
C9_4 C 0.8610(2) 0.2122(2) 0.97611(15)
H5_4 H 0.8737 0.2410 0.9471
C10_4 C 0.8609(2) 0.1314(2) 0.97472(15)
H6_4 H 0.8734 0.1049 0.9448
loop_
_geom_bond_atom_site_label_1
_geom_bond_atom_site_label_2
_geom_bond_site_symmetry_1
_geom_bond_site_symmetry_2
O1 C1 1_555 1_555
O2 C22 1_555 1_555
O4 C29 1_555 1_555
O6 Zn3 1_555 1_555
C1 O10 1_555 1_555
O10 Zn3 1_555 1_555
O12 Zn3 1_555 1_555
O14 C22 1_555 1_555
C22 C34 1_555 1_555
H16 C27 1_555 1_555
C29 O12 1_555 1_555
C31 C32 1_555 1_555
C32 H18 1_555 1_555
C33 C32 1_555 1_555
H19 C33 1_555 1_555
C34 C33 1_555 1_555
C35 C34 1_555 1_555
H20 C35 1_555 1_555
C36 C31 1_555 1_555
H21 C36 1_555 1_555
C37 C31 1_555 1_555
C38 C37 1_555 1_555
H22 C38 1_555 1_555
C39 C38 1_555 1_555
H23 C39 1_555 1_555
C40 C29 1_555 1_555
C41 C40 1_555 1_555
H24 C41 1_555 1_555
C42 C37 1_555 1_555
H25 C42 1_555 1_555
Zn6 O2 1_555 1_555
Zn10 O14 1_555 1_555
C35 C36 1_555 1_555
C39 C40 1_555 1_555
C41 C42 1_555 1_555
Zn4 O5 1_555 1_555
O5 Zn1 1_555 1_555
O11 Zn4 1_555 1_555
O13 Zn4 1_555 1_555
H9 O13 1_555 1_555
C43 H26 1_555 1_555
C44 O13 1_555 1_555
O15 Zn1 1_555 1_555
O16 Zn2 1_555 1_555
O17 Zn1 1_555 1_555
O18 Zn2 1_555 1_555
O19 Zn4 1_555 1_555
O20 Zn4 1_555 1_555
Zn2 O5 1_555 1_555
C43 C44 1_555 1_555
O17 C30 1_555 1_555
O18 C30 1_555 1_555
C2 C3 1_555 1_555
C3 H1 1_555 1_555
C4 C3 1_555 1_555
H2 C4 1_555 1_555
C5 C4 1_555 1_555
C6 C5 1_555 1_555
C7 C2 1_555 1_555
C8 C2 1_555 1_555
C12 C11 1_555 1_555
H7 C12 1_555 1_555
C13 C8 1_555 1_555
H8 C13 1_555 1_555
C30 C5 1_555 1_555
C6 C7 1_555 1_555
C11 C15 1_555 1_555
C12 C13 1_555 1_555
O3 C14 1_555 1_555
O9 C14 1_555 1_555
C14 C19 1_555 1_555
C16 C17 1_555 1_555
C17 H10 1_555 1_555
C18 C17 1_555 1_555
H11 C18 1_555 1_555
C19 C18 1_555 1_555
C20 C19 1_555 1_555
H12 C20 1_555 1_555
C21 C16 1_555 1_555
H13 C21 1_555 1_555
C23 C16 1_555 1_555
C24 C23 1_555 1_555
H14 C24 1_555 1_555
C25 C24 1_555 1_555
H15 C25 1_555 1_555
C28 C23 1_555 1_555
H17 C28 1_555 1_555
Zn8 O3 1_555 1_555
Zn10 O9 1_555 1_555
C20 C21 1_555 1_555
C25 C26 1_555 1_555
O15 C22_2 1_555 1_555
O20 C22_2 1_555 1_555
H20_2 C35_2 1_555 1_555
O7 C30_2 1_555 1_555
O8 C30_2 1_555 1_555
C30_2 C5_2 1_555 1_555
Zn6 O7 1_555 1_555
Zn8 O8 1_555 1_555
Zn6 O1_2 1_555 1_555
Zn8 O4_2 1_555 1_555
Zn3_2 O5_2 1_555 1_555
Zn10 O5_2 1_555 1_555
O1_2 C1_2 1_555 1_555
O16 C14_2 1_555 1_555
O4_2 C29_2 1_555 1_555
O5_2 Zn6 1_555 1_555
O6_2 Zn3_2 1_555 1_555
O19 C14_2 1_555 1_555
C1_2 O10_2 1_555 1_555
C2_2 C3_2 1_555 1_555
C3_2 H1_2 1_555 1_555
C4_2 C3_2 1_555 1_555
H2_2 C4_2 1_555 1_555
H3 C6_2 1_555 1_555
C7_2 C2_2 1_555 1_555
H4 C7_2 1_555 1_555
C8_2 C2_2 1_555 1_555
C9 C8_2 1_555 1_555
H5 C9 1_555 1_555
C10 C9 1_555 1_555
H6 C10 1_555 1_555
C11_2 C10 1_555 1_555
C12_2 C11_2 1_555 1_555
H7_2 C12_2 1_555 1_555
C13_2 C8_2 1_555 1_555
H8_2 C13_2 1_555 1_555
O10_2 Zn3_2 1_555 1_555
O11_2 Zn10 1_555 1_555
O12_2 Zn3_2 1_555 1_555
O13_2 Zn10 1_555 1_555
H9_2 O13_2 1_555 1_555
C14_2 C19_2 1_555 1_555
C15_2 O6_2 1_555 1_555
C16_2 C17_2 1_555 1_555
C17_2 H10_2 1_555 1_555
C18_2 C17_2 1_555 1_555
H11_2 C18_2 1_555 1_555
C19_2 C18_2 1_555 1_555
C20_2 C19_2 1_555 1_555
H12_2 C20_2 1_555 1_555
C21_2 C16_2 1_555 1_555
H13_2 C21_2 1_555 1_555
C23_2 C16_2 1_555 1_555
C24_2 C23_2 1_555 1_555
H14_2 C24_2 1_555 1_555
C25_2 C24_2 1_555 1_555
H15_2 C25_2 1_555 1_555
C26_2 C1_2 1_555 1_555
C27_2 C26_2 1_555 1_555
H16_2 C27_2 1_555 1_555
C28_2 C23_2 1_555 1_555
H17_2 C28_2 1_555 1_555
C29_2 O12_2 1_555 1_555
C31_2 C32_2 1_555 1_555
C32_2 H18_2 1_555 1_555
C33_2 C32_2 1_555 1_555
H19_2 C33_2 1_555 1_555
C34_2 C33_2 1_555 1_555
C36_2 C31_2 1_555 1_555
H21_2 C36_2 1_555 1_555
C37_2 C31_2 1_555 1_555
C38_2 C37_2 1_555 1_555
H22_2 C38_2 1_555 1_555
C39_2 C38_2 1_555 1_555
H23_2 C39_2 1_555 1_555
C40_2 C29_2 1_555 1_555
C41_2 C40_2 1_555 1_555
H24_2 C41_2 1_555 1_555
C42_2 C37_2 1_555 1_555
H25_2 C42_2 1_555 1_555
C43_2 H26_2 1_555 1_555
H27 C43_2 1_555 1_555
H28 C43_2 1_555 1_555
C44_2 O13_2 1_555 1_555
H29_2 C44_2 1_555 1_555
C45 C44_2 1_555 1_555
H30 C45 1_555 1_555
H31 C45 1_555 1_555
H32 C45 1_555 1_555
Zn8 O5_2 1_555 1_555
C6_2 C7_2 1_555 1_555
C11_2 C15_2 1_555 1_555
C12_2 C13_2 1_555 1_555
O11_2 C15_2 1_555 1_555
C20_2 C21_2 1_555 1_555
C25_2 C26_2 1_555 1_555
C27_2 C28_2 1_555 1_555
C39_2 C40_2 1_555 1_555
C41_2 C42_2 1_555 1_555
C43_2 C44_2 1_555 1_555
H5_2 C9_2 1_555 1_555
C10_2 C9_2 1_555 1_555
H6_2 C10_2 1_555 1_555
H30_2 C45_2 1_555 1_555
H31_2 C45_2 1_555 1_555
Zn1_2 O1_3 1_555 1_555
Zn2_2 O4_3 1_555 1_555
Zn3_3 O5_3 1_555 1_555
Zn4_2 O5_3 1_555 1_555
O1_3 C1_3 1_555 1_555
O3_2 C14_3 1_555 1_555
O4_3 C29_3 1_555 1_555
O5_3 Zn1_2 1_555 1_555
O6_3 Zn3_3 1_555 1_555
O9_2 C14_3 1_555 1_555
C1_3 O10_3 1_555 1_555
C2_3 C3_3 1_555 1_555
C3_3 H1_3 1_555 1_555
C4_3 C3_3 1_555 1_555
H2_3 C4_3 1_555 1_555
H3_3 C6_3 1_555 1_555
C7_3 C2_3 1_555 1_555
H4_3 C7_3 1_555 1_555
C8_3 C2_3 1_555 1_555
C9_3 C8_3 1_555 1_555
H5_3 C9_3 1_555 1_555
C10_3 C9_3 1_555 1_555
H6_3 C10_3 1_555 1_555
C11_3 C10_3 1_555 1_555
C12_3 C11_3 1_555 1_555
H7_3 C12_3 1_555 1_555
C13_3 C8_3 1_555 1_555
H8_3 C13_3 1_555 1_555
O10_3 Zn3_3 1_555 1_555
O11_3 Zn4_2 1_555 1_555
O12_3 Zn3_3 1_555 1_555
O13_3 Zn4_2 1_555 1_555
H9_3 O13_3 1_555 1_555
C14_3 C19_3 1_555 1_555
C15_3 O6_3 1_555 1_555
C16_3 C17_3 1_555 1_555
C17_3 H10_3 1_555 1_555
C18_3 C17_3 1_555 1_555
H11_3 C18_3 1_555 1_555
C19_3 C18_3 1_555 1_555
C20_3 C19_3 1_555 1_555
H12_3 C20_3 1_555 1_555
C21_3 C16_3 1_555 1_555
H13_3 C21_3 1_555 1_555
C23_3 C16_3 1_555 1_555
C24_3 C23_3 1_555 1_555
H14_3 C24_3 1_555 1_555
C25_3 C24_3 1_555 1_555
H15_3 C25_3 1_555 1_555
C26_3 C1_3 1_555 1_555
C27_3 C26_3 1_555 1_555
H16_3 C27_3 1_555 1_555
C28_3 C23_3 1_555 1_555
H17_3 C28_3 1_555 1_555
C29_3 O12_3 1_555 1_555
C31_3 C32_3 1_555 1_555
C32_3 H18_3 1_555 1_555
C33_3 C32_3 1_555 1_555
H19_3 C33_3 1_555 1_555
C34_3 C33_3 1_555 1_555
C36_3 C31_3 1_555 1_555
H21_3 C36_3 1_555 1_555
C37_3 C31_3 1_555 1_555
C38_3 C37_3 1_555 1_555
H22_3 C38_3 1_555 1_555
C39_3 C38_3 1_555 1_555
H23_3 C39_3 1_555 1_555
C40_3 C29_3 1_555 1_555
C41_3 C40_3 1_555 1_555
H24_3 C41_3 1_555 1_555
C42_3 C37_3 1_555 1_555
H25_3 C42_3 1_555 1_555
C43_3 H26_3 1_555 1_555
H27_3 C43_3 1_555 1_555
H28_3 C43_3 1_555 1_555
C44_3 O13_3 1_555 1_555
H29_3 C44_3 1_555 1_555
C45_3 C44_3 1_555 1_555
H30_3 C45_3 1_555 1_555
H31_3 C45_3 1_555 1_555
H32_3 C45_3 1_555 1_555
Zn8_2 O3_2 1_555 1_555
Zn9 O9_2 1_555 1_555
O15_2 Zn1_2 1_555 1_555
O16_2 Zn2_2 1_555 1_555
O17_2 Zn1_2 1_555 1_555
O18_2 Zn2_2 1_555 1_555
O19_2 Zn4_2 1_555 1_555
O20_2 Zn4_2 1_555 1_555
Zn2_2 O5_3 1_555 1_555
C6_3 C7_3 1_555 1_555
C11_3 C15_3 1_555 1_555
C12_3 C13_3 1_555 1_555
O11_3 C15_3 1_555 1_555
C20_3 C21_3 1_555 1_555
C25_3 C26_3 1_555 1_555
C27_3 C28_3 1_555 1_555
C39_3 C40_3 1_555 1_555
C41_3 C42_3 1_555 1_555
C43_3 C44_3 1_555 1_555
O17_2 C30_3 1_555 1_555
O18_2 C30_3 1_555 1_555
C30_3 C5_3 1_555 1_555
O2_2 C22_3 1_555 1_555
O14_2 C22_3 1_555 1_555
H20_3 C35_3 1_555 1_555
Zn6_2 O2_2 1_555 1_555
Zn9 O14_2 1_555 1_555
O16_2 C14_4 1_555 1_555
O19_2 C14_4 1_555 1_555
C14_4 C19_4 1_555 1_555
C16_4 C17_4 1_555 1_555
C17_4 H10_4 1_555 1_555
C18_4 C17_4 1_555 1_555
H11_4 C18_4 1_555 1_555
C19_4 C18_4 1_555 1_555
C20_4 C19_4 1_555 1_555
H12_4 C20_4 1_555 1_555
C21_4 C16_4 1_555 1_555
H13_4 C21_4 1_555 1_555
C23_4 C16_4 1_555 1_555
C24_4 C23_4 1_555 1_555
H14_4 C24_4 1_555 1_555
C25_4 C24_4 1_555 1_555
H15_4 C25_4 1_555 1_555
C28_4 C23_4 1_555 1_555
H17_4 C28_4 1_555 1_555
C20_4 C21_4 1_555 1_555
C25_4 C26_4 1_555 1_555
O7_2 C30_4 1_555 1_555
O8_2 C30_4 1_555 1_555
C2_4 C3_4 1_555 1_555
C3_4 H1_4 1_555 1_555
C4_4 C3_4 1_555 1_555
H2_4 C4_4 1_555 1_555
C5_4 C4_4 1_555 1_555
C6_4 C5_4 1_555 1_555
C7_4 C2_4 1_555 1_555
C8_4 C2_4 1_555 1_555
C12_4 C11_4 1_555 1_555
H7_4 C12_4 1_555 1_555
C13_4 C8_4 1_555 1_555
H8_4 C13_4 1_555 1_555
C30_4 C5_4 1_555 1_555
Zn6_2 O7_2 1_555 1_555
Zn8_2 O8_2 1_555 1_555
C6_4 C7_4 1_555 1_555
C11_4 C15_4 1_555 1_555
C12_4 C13_4 1_555 1_555
Zn9 O5_4 1_555 1_555
O5_4 Zn6_2 1_555 1_555
O11_4 Zn9 1_555 1_555
O13_4 Zn9 1_555 1_555
H9_4 O13_4 1_555 1_555
C43_4 H26_4 1_555 1_555
C44_4 O13_4 1_555 1_555
Zn8_2 O5_4 1_555 1_555
C43_4 C44_4 1_555 1_555
O1_4 C1_4 1_555 1_555
O15_2 C22_4 1_555 1_555
O4_4 C29_4 1_555 1_555
O6_4 Zn3_4 1_555 1_555
C1_4 O10_4 1_555 1_555
O10_4 Zn3_4 1_555 1_555
O12_4 Zn3_4 1_555 1_555
O20_2 C22_4 1_555 1_555
C22_4 C34_4 1_555 1_555
H16_4 C27_4 1_555 1_555
C29_4 O12_4 1_555 1_555
C31_4 C32_4 1_555 1_555
C32_4 H18_4 1_555 1_555
C33_4 C32_4 1_555 1_555
H19_4 C33_4 1_555 1_555
C34_4 C33_4 1_555 1_555
C35_4 C34_4 1_555 1_555
H20_4 C35_4 1_555 1_555
C36_4 C31_4 1_555 1_555
H21_4 C36_4 1_555 1_555
C37_4 C31_4 1_555 1_555
C38_4 C37_4 1_555 1_555
H22_4 C38_4 1_555 1_555
C39_4 C38_4 1_555 1_555
H23_4 C39_4 1_555 1_555
C40_4 C29_4 1_555 1_555
C41_4 C40_4 1_555 1_555
H24_4 C41_4 1_555 1_555
C42_4 C37_4 1_555 1_555
H25_4 C42_4 1_555 1_555
C35_4 C36_4 1_555 1_555
C39_4 C40_4 1_555 1_555
C41_4 C42_4 1_555 1_555
H30_4 C45_4 1_555 1_555
H31_4 C45_4 1_555 1_555
H5_4 C9_4 1_555 1_555
C10_4 C9_4 1_555 1_555
H6_4 C10_4 1_555 1_555

#END
