
###############################################################################
#
# This file contains modified crystal structure data generated from the
# MOF subset of the Cambridge Structural Database (CSD) v543 
# hosted by the Cambridge Crystallographic Data Centre (CCDC).
#
# This work is licensed under the Creative Commons
# Attribution-NonCommercial-ShareAlike 4.0 International License.
# To view a copy of this license, visit
# http://creativecommons.org/licenses/by-nc-sa/4.0/
# or send a letter to
# Creative Commons, PO Box 1866, Mountain View, CA 94042, USA.
#
# CIF created using the CSD Python API on 29 September 2022
# The structure has been converted into the P1 space group
# The structure has a 3D framework
# The original CSD entry PIWLIT is in the monoclinic crystal system
# The framework has been calculated to contain at least 10.0% void space
# The void calculation uses a probe of radius 1.32A, grid spacing 0.4
#
###############################################################################

data_PIWLIT
_chemical_formula_moiety         '(C168 H96 O52 Zn16)n'
_symmetry_cell_setting           triclinic
_symmetry_space_group_name_H-M   'P 1'
_symmetry_Int_Tables_number      1
_space_group_name_Hall           'P 1'
loop_
_symmetry_equiv_pos_site_id
_symmetry_equiv_pos_as_xyz
1 x,y,z
_cell_length_a                   14.330(3)
_cell_length_b                   17.2950(8)
_cell_length_c                   28.7256(13)
_cell_angle_alpha                90
_cell_angle_beta                 90.229(8)
_cell_angle_gamma                90
_cell_volume                     7119.22
loop_
_atom_site_label
_atom_site_type_symbol
_atom_site_fract_x
_atom_site_fract_y
_atom_site_fract_z
O14 O 0.0040(14) 0.0591(7) 0.2104(4)
O15 O 0.0042(14) 0.0665(6) 0.1328(3)
Zn1 Zn 0.0019(3) 0.95313(12) 0.22878(7)
Zn2 Zn 0.0007(3) 0.95682(12) 0.11757(7)
Zn3 Zn 0.1104(3) 0.82395(13) 0.17092(8)
O2 O 0.0033(17) 0.8863(8) 0.1732(4)
O4 O 0.0863(17) 0.7129(10) 0.1775(6)
O8 O 0.1833(15) 0.8275(7) 0.2286(4)
C1 C 0.002(2) 0.5918(9) 0.1794(5)
C5 C 0.0695(18) 0.4670(13) 0.1642(9)
H3 H 0.1205 0.4365 0.1539
C6 C 0.0763(18) 0.5472(14) 0.1643(10)
H4 H 0.1320 0.5715 0.1540
O11 O 0.1130(16) 0.9244(9) 0.2654(5)
C7 C 0.0033(19) 0.2292(7) 0.1310(4)
H5 H 0.0041 0.2028 0.1020
C8 C 0.0026(17) 0.1873(5) 0.1724(4)
C9 C 0.0015(19) 0.2258(6) 0.2148(4)
H6 H 0.0011 0.1972 0.2431
C10 C 0.001(2) 0.3061(7) 0.2160(4)
H7 H 0.0004 0.3325 0.2450
C11 C 0.0018(19) 0.3480(5) 0.1747(4)
C12 C 0.0029(19) 0.3095(7) 0.1322(4)
H8 H 0.0034 0.3381 0.1040
O12 O 0.317(2) 0.6622(13) 0.6104(6)
C25 C 0.0037(9) 0.0977(10) 0.1740(5)
C26 C 0.012(2) 0.6772(14) 0.1789(3)
C27 C 0.2374(18) 0.7610(9) 0.3981(3)
C28 C 0.2552(17) 0.7216(8) 0.3569(4)
H17 H 0.2806 0.6709 0.3579
C29 C 0.2357(17) 0.7563(8) 0.3144(3)
H18 H 0.2479 0.7294 0.2862
C30 C 0.1985(17) 0.8305(8) 0.3130(4)
C31 C 0.1807(19) 0.8699(8) 0.3542(5)
H19 H 0.1552 0.9206 0.3532
C32 C 0.2001(19) 0.8352(9) 0.3967(4)
H20 H 0.1880 0.8621 0.4249
C33 C 0.3431(19) 0.6226(11) 0.4858(6)
H21 H 0.3791 0.5765 0.4861
C34 C 0.318(2) 0.6568(11) 0.4438(5)
H22 H 0.3374 0.6340 0.4153
C35 C 0.266(2) 0.7243(10) 0.4434(5)
C36 C 0.238(2) 0.7577(11) 0.4851(7)
H23 H 0.2020 0.8038 0.4848
C37 C 0.263(2) 0.7235(13) 0.5272(5)
H24 H 0.2436 0.7464 0.5557
C38 C 0.315(2) 0.6560(11) 0.5275(5)
C40 C 0.1613(11) 0.8641(8) 0.2643(6)
C41 C 0.3461(13) 0.6268(9) 0.5748(6)
O13 O 0.3997(16) 0.5682(8) 0.5755(5)
Zn8 Zn 0.5007(3) 0.54318(12) 0.61757(7)
Zn10 Zn 0.3883(3) 0.67585(13) 0.67152(8)
O16 O 0.0940(16) 0.9285(8) 0.0721(5)
O17 O 0.1744(14) 0.8301(7) 0.1078(4)
Zn4 Zn 0.8883(3) 0.82415(13) 0.17152(8)
O5 O 0.8294(15) 0.8269(7) 0.2264(4)
O6 O 0.5940(16) 0.5715(8) 0.5721(5)
O7 O 0.9330(19) 0.7094(13) 0.1800(6)
O9 O 0.6744(14) 0.6699(7) 0.6078(4)
O10 O 0.8817(18) 0.9258(10) 0.2650(6)
C2 C 0.9202(18) 0.5562(14) 0.1945(9)
H1 H 0.8692 0.5867 0.2048
C3 C 0.9134(18) 0.4761(15) 0.1944(9)
H2 H 0.8577 0.4518 0.2047
C4 C 0.988(2) 0.4315(9) 0.1793(5)
C13 C 0.6811(19) 0.6581(10) 0.5271(4)
C14 C 0.6590(17) 0.6223(8) 0.4851(5)
H9 H 0.6264 0.5744 0.4851
C15 C 0.6846(19) 0.6565(11) 0.4433(4)
H10 H 0.6695 0.6320 0.4146
C16 C 0.732(2) 0.7265(12) 0.4434(5)
C17 C 0.754(2) 0.7623(12) 0.4854(7)
H11 H 0.7869 0.8101 0.4855
C18 C 0.729(2) 0.7281(12) 0.5272(5)
H12 H 0.7438 0.7525 0.5559
C19 C 0.7582(17) 0.7675(8) 0.3973(3)
C20 C 0.7410(16) 0.7272(7) 0.3563(4)
H13 H 0.7142 0.6769 0.3574
C21 C 0.7628(15) 0.7603(7) 0.3136(3)
H14 H 0.7510 0.7328 0.2856
C22 C 0.8019(15) 0.8338(7) 0.3119(3)
C23 C 0.8191(16) 0.8742(7) 0.3529(4)
H15 H 0.8458 0.9244 0.3518
C24 C 0.7973(17) 0.8410(8) 0.3956(3)
H16 H 0.8091 0.8686 0.4236
C39 C 0.6469(12) 0.6311(9) 0.5739(6)
C42 C 0.8386(12) 0.8622(10) 0.2652(6)
Zn9 Zn 0.6104(3) 0.67605(13) 0.67092(8)
O18 O 0.817(2) 0.8378(13) 0.1104(6)
O19 O 0.8997(16) 0.9318(8) 0.0755(5)
O1 O 0.5040(14) 0.4409(7) 0.7104(4)
O3 O 0.5042(14) 0.4335(6) 0.6328(3)
C3_2 C 0.4134(18) 0.0239(15) 0.6944(9)
H2_2 H 0.3577 0.0482 0.7047
C4_2 C 0.488(2) 0.0685(9) 0.6793(5)
C5_2 C 0.5695(18) 0.0330(13) 0.6642(9)
H3_2 H 0.6205 0.0635 0.6539
C7_2 C 0.5033(19) 0.2708(7) 0.6310(4)
H5_2 H 0.5041 0.2972 0.6020
C8_2 C 0.5026(17) 0.3127(5) 0.6724(4)
C9_2 C 0.5015(19) 0.2742(6) 0.7148(4)
H6_2 H 0.5011 0.3028 0.7431
C10_2 C 0.501(2) 0.1939(7) 0.7160(4)
H7_2 H 0.5004 0.1675 0.7450
C11_2 C 0.5018(19) 0.1520(5) 0.6747(4)
C12_2 C 0.5029(19) 0.1905(7) 0.6322(4)
H8_2 H 0.5034 0.1619 0.6040
C25_2 C 0.5037(9) 0.4023(10) 0.6740(5)
Zn5 Zn 0.5019(3) 0.54687(12) 0.72878(7)
C13_2 C 0.1811(19) 0.8419(10) 0.0271(4)
C18_2 C 0.229(2) 0.7719(12) 0.0272(5)
H12_2 H 0.2438 0.7475 0.0559
C37_2 C 0.763(2) 0.7765(13) 0.0272(5)
H24_2 H 0.7436 0.7536 0.0557
C38_2 C 0.815(2) 0.8440(11) 0.0275(5)
C39_2 C 0.1469(12) 0.8689(9) 0.0739(6)
C41_2 C 0.8461(13) 0.8732(9) 0.0748(6)
O2_2 O 0.5033(17) 0.6137(8) 0.6732(4)
O4_2 O 0.5863(17) 0.7871(10) 0.6775(6)
O5_2 O 0.3294(15) 0.6731(7) 0.7264(4)
O7_2 O 0.4330(19) 0.7906(13) 0.6800(6)
O8_2 O 0.6833(15) 0.6725(7) 0.7286(4)
O10_2 O 0.3817(18) 0.5742(10) 0.7650(6)
C1_2 C 0.502(2) 0.9082(9) 0.6794(5)
C2_2 C 0.4202(18) 0.9438(14) 0.6945(9)
H1_2 H 0.3692 0.9133 0.7048
C6_2 C 0.5763(18) 0.9528(14) 0.6643(10)
H4_2 H 0.6320 0.9285 0.6540
O11_2 O 0.6130(16) 0.5756(9) 0.7654(5)
C14_2 C 0.1590(17) 0.8777(8) 0.9851(5)
H9_2 H 0.1264 0.9256 0.9851
C15_2 C 0.1846(19) 0.8435(11) 0.9433(4)
H10_2 H 0.1695 0.8680 0.9146
C16_2 C 0.232(2) 0.7735(12) 0.9434(5)
C17_2 C 0.254(2) 0.7377(12) 0.9854(7)
H11_2 H 0.2869 0.6899 0.9855
C19_2 C 0.2582(17) 0.7325(8) 0.8973(3)
C20_2 C 0.2410(16) 0.7728(7) 0.8563(4)
H13_2 H 0.2142 0.8231 0.8574
C21_2 C 0.2628(15) 0.7397(7) 0.8136(3)
H14_2 H 0.2510 0.7672 0.7856
C22_2 C 0.3019(15) 0.6662(7) 0.8119(3)
C23_2 C 0.3191(16) 0.6258(7) 0.8529(4)
H15_2 H 0.3458 0.5756 0.8518
C24_2 C 0.2973(17) 0.6590(8) 0.8956(3)
H16_2 H 0.3091 0.6314 0.9236
C26_2 C 0.512(2) 0.8228(14) 0.6789(3)
C27_2 C 0.7374(18) 0.7390(9) 0.8981(3)
C28_2 C 0.7552(17) 0.7784(8) 0.8569(4)
H17_2 H 0.7806 0.8291 0.8579
C29_2 C 0.7357(17) 0.7437(8) 0.8144(3)
H18_2 H 0.7479 0.7706 0.7862
C30_2 C 0.6985(17) 0.6695(8) 0.8130(4)
C31_2 C 0.6807(19) 0.6301(8) 0.8542(5)
H19_2 H 0.6552 0.5794 0.8532
C32_2 C 0.7001(19) 0.6648(9) 0.8967(4)
H20_2 H 0.6880 0.6379 0.9249
C33_2 C 0.8431(19) 0.8774(11) 0.9858(6)
H21_2 H 0.8791 0.9235 0.9861
C34_2 C 0.818(2) 0.8432(11) 0.9438(5)
H22_2 H 0.8374 0.8660 0.9153
C35_2 C 0.766(2) 0.7757(10) 0.9434(5)
C36_2 C 0.738(2) 0.7423(11) 0.9851(7)
H23_2 H 0.7020 0.6962 0.9848
C40_2 C 0.6613(11) 0.6359(8) 0.7643(6)
C42_2 C 0.3386(12) 0.6378(10) 0.7652(6)
Zn1_2 Zn 0.4981(3) 0.45313(12) 0.27122(7)
Zn2_2 Zn 0.4993(3) 0.45682(12) 0.38243(7)
Zn3_2 Zn 0.3896(3) 0.32395(13) 0.32908(8)
Zn4_2 Zn 0.6117(3) 0.32415(13) 0.32848(8)
O2_3 O 0.4967(17) 0.3863(8) 0.3268(4)
O4_3 O 0.4137(17) 0.2129(10) 0.3225(6)
O5_3 O 0.6706(15) 0.3269(7) 0.2736(4)
O7_3 O 0.5670(19) 0.2094(13) 0.3200(6)
O8_3 O 0.3167(15) 0.3275(7) 0.2714(4)
O10_3 O 0.6183(18) 0.4258(10) 0.2350(6)
C1_3 C 0.498(2) 0.0918(9) 0.3206(5)
C2_3 C 0.5798(18) 0.0562(14) 0.3055(9)
H1_3 H 0.6308 0.0867 0.2952
C6_3 C 0.4237(18) 0.0472(14) 0.3357(10)
H4_3 H 0.3680 0.0715 0.3460
O11_3 O 0.3870(16) 0.4244(9) 0.2346(5)
C14_3 C 0.8410(17) 0.1223(8) 0.0149(5)
H9_3 H 0.8736 0.0744 0.0149
C15_3 C 0.8154(19) 0.1565(11) 0.0567(4)
H10_3 H 0.8305 0.1320 0.0854
C16_3 C 0.768(2) 0.2265(12) 0.0566(5)
C17_3 C 0.746(2) 0.2623(12) 0.0146(7)
H11_3 H 0.7131 0.3101 0.0145
C19_3 C 0.7418(17) 0.2675(8) 0.1027(3)
C20_3 C 0.7590(16) 0.2272(7) 0.1437(4)
H13_3 H 0.7858 0.1769 0.1426
C21_3 C 0.7372(15) 0.2603(7) 0.1864(3)
H14_3 H 0.7490 0.2328 0.2144
C22_3 C 0.6981(15) 0.3338(7) 0.1881(3)
C23_3 C 0.6809(16) 0.3742(7) 0.1471(4)
H15_3 H 0.6542 0.4244 0.1482
C24_3 C 0.7027(17) 0.3410(8) 0.1044(3)
H16_3 H 0.6909 0.3686 0.0764
C26_3 C 0.488(2) 0.1772(14) 0.3211(3)
C27_3 C 0.2626(18) 0.2610(9) 0.1019(3)
C28_3 C 0.2448(17) 0.2216(8) 0.1431(4)
H17_3 H 0.2194 0.1709 0.1421
C29_3 C 0.2643(17) 0.2563(8) 0.1856(3)
H18_3 H 0.2521 0.2294 0.2138
C30_3 C 0.3015(17) 0.3305(8) 0.1870(4)
C31_3 C 0.3193(19) 0.3699(8) 0.1458(5)
H19_3 H 0.3448 0.4206 0.1468
C32_3 C 0.2999(19) 0.3352(9) 0.1033(4)
H20_3 H 0.3120 0.3621 0.0751
C33_3 C 0.1569(19) 0.1226(11) 0.0142(6)
H21_3 H 0.1209 0.0765 0.0139
C34_3 C 0.182(2) 0.1568(11) 0.0562(5)
H22_3 H 0.1626 0.1340 0.0847
C35_3 C 0.234(2) 0.2243(10) 0.0566(5)
C36_3 C 0.262(2) 0.2577(11) 0.0149(7)
H23_3 H 0.2980 0.3038 0.0152
C40_3 C 0.3387(11) 0.3641(8) 0.2357(6)
C42_3 C 0.6614(12) 0.3622(10) 0.2348(6)
O14_2 O 0.4960(14) 0.5591(7) 0.2896(4)
O15_2 O 0.4958(14) 0.5665(6) 0.3672(3)
O16_2 O 0.4060(16) 0.4285(8) 0.4279(5)
O17_2 O 0.3256(14) 0.3301(7) 0.3922(4)
O18_2 O 0.683(2) 0.3378(13) 0.3896(6)
O19_2 O 0.6003(16) 0.4318(8) 0.4245(5)
O6_2 O 0.9060(16) 0.0715(8) 0.9279(5)
O9_2 O 0.8256(14) 0.1699(7) 0.8922(4)
O12_2 O 0.183(2) 0.1622(13) 0.8896(6)
C13_3 C 0.8189(19) 0.1581(10) 0.9729(4)
C18_3 C 0.771(2) 0.2281(12) 0.9728(5)
H12_3 H 0.7562 0.2525 0.9441
C37_3 C 0.237(2) 0.2235(13) 0.9728(5)
H24_3 H 0.2564 0.2464 0.9443
C38_3 C 0.185(2) 0.1560(11) 0.9725(5)
C39_3 C 0.8531(12) 0.1311(9) 0.9261(6)
C41_3 C 0.1539(13) 0.1268(9) 0.9252(6)
O13_2 O 0.1003(16) 0.0682(8) 0.9245(5)
Zn7 Zn 0.9993(3) 0.04318(12) 0.88243(7)
Zn9_2 Zn 0.8896(3) 0.17605(13) 0.82908(8)
Zn10_2 Zn 0.1117(3) 0.17585(13) 0.82848(8)
C3_3 C 0.5866(18) 0.9761(15) 0.3056(9)
H2_3 H 0.6423 0.9518 0.2953
C4_3 C 0.512(2) 0.9315(9) 0.3207(5)
C5_3 C 0.4305(18) 0.9670(13) 0.3358(9)
H3_3 H 0.3795 0.9365 0.3461
C7_3 C 0.4967(19) 0.7292(7) 0.3690(4)
H5_3 H 0.4959 0.7028 0.3980
C8_3 C 0.4974(17) 0.6873(5) 0.3276(4)
C9_3 C 0.4985(19) 0.7258(6) 0.2852(4)
H6_3 H 0.4989 0.6972 0.2569
C10_3 C 0.499(2) 0.8061(7) 0.2840(4)
H7_3 H 0.4996 0.8325 0.2550
C11_3 C 0.4982(19) 0.8480(5) 0.3253(4)
C12_3 C 0.4971(19) 0.8095(7) 0.3678(4)
H8_3 H 0.4966 0.8381 0.3960
C25_3 C 0.4963(9) 0.5977(10) 0.3260(5)
O5_4 O 0.1706(15) 0.1731(7) 0.7736(4)
O7_4 O 0.0670(19) 0.2906(13) 0.8200(6)
O10_4 O 0.1183(18) 0.0742(10) 0.7350(6)
C2_4 C 0.0798(18) 0.4438(14) 0.8055(9)
H1_4 H 0.1308 0.4133 0.7952
C3_4 C 0.0866(18) 0.5239(15) 0.8056(9)
H2_4 H 0.1423 0.5482 0.7953
C4_4 C 0.012(2) 0.5685(9) 0.8207(5)
C13_4 C 0.3189(19) 0.3419(10) 0.4729(4)
C14_4 C 0.3410(17) 0.3777(8) 0.5149(5)
H9_4 H 0.3736 0.4256 0.5149
C15_4 C 0.3154(19) 0.3435(11) 0.5567(4)
H10_4 H 0.3305 0.3680 0.5854
C16_4 C 0.268(2) 0.2735(12) 0.5566(5)
C17_4 C 0.246(2) 0.2377(12) 0.5146(7)
H11_4 H 0.2131 0.1899 0.5145
C18_4 C 0.271(2) 0.2719(12) 0.4728(5)
H12_4 H 0.2562 0.2475 0.4441
C19_4 C 0.2418(17) 0.2325(8) 0.6027(3)
C20_4 C 0.2590(16) 0.2728(7) 0.6437(4)
H13_4 H 0.2858 0.3231 0.6426
C21_4 C 0.2372(15) 0.2397(7) 0.6864(3)
H14_4 H 0.2490 0.2672 0.7144
C22_4 C 0.1981(15) 0.1662(7) 0.6881(3)
C23_4 C 0.1809(16) 0.1258(7) 0.6471(4)
H15_4 H 0.1542 0.0756 0.6482
C24_4 C 0.2027(17) 0.1590(8) 0.6044(3)
H16_4 H 0.1909 0.1314 0.5764
C39_4 C 0.3531(12) 0.3689(9) 0.4261(6)
C42_4 C 0.1614(12) 0.1378(10) 0.7348(6)
Zn5_2 Zn 0.9981(3) 0.04687(12) 0.77122(7)
O1_2 O 0.9960(14) 0.9409(7) 0.7896(4)
O2_4 O 0.9967(17) 0.1137(8) 0.8268(4)
O3_2 O 0.9958(14) 0.9335(6) 0.8672(3)
O4_4 O 0.9137(17) 0.2871(10) 0.8225(6)
O8_4 O 0.8167(15) 0.1725(7) 0.7714(4)
C1_4 C 0.998(2) 0.4082(9) 0.8206(5)
C5_4 C 0.9305(18) 0.5330(13) 0.8358(9)
H3_4 H 0.8795 0.5635 0.8461
C6_4 C 0.9237(18) 0.4528(14) 0.8357(10)
H4_4 H 0.8680 0.4285 0.8460
O11_4 O 0.8870(16) 0.0756(9) 0.7346(5)
C7_4 C 0.9967(19) 0.7708(7) 0.8690(4)
H5_4 H 0.9959 0.7972 0.8980
C8_4 C 0.9974(17) 0.8127(5) 0.8276(4)
C9_4 C 0.9985(19) 0.7742(6) 0.7852(4)
H6_4 H 0.9989 0.8028 0.7569
C10_4 C 0.999(2) 0.6939(7) 0.7840(4)
H7_4 H 0.9996 0.6675 0.7550
C11_4 C 0.9982(19) 0.6520(5) 0.8253(4)
C12_4 C 0.9971(19) 0.6905(7) 0.8678(4)
H8_4 H 0.9966 0.6619 0.8960
C25_4 C 0.9963(9) 0.9023(10) 0.8260(5)
C26_4 C 0.988(2) 0.3228(14) 0.8211(3)
C27_4 C 0.7626(18) 0.2390(9) 0.6019(3)
C28_4 C 0.7448(17) 0.2784(8) 0.6431(4)
H17_4 H 0.7194 0.3291 0.6421
C29_4 C 0.7643(17) 0.2437(8) 0.6856(3)
H18_4 H 0.7521 0.2706 0.7138
C30_4 C 0.8015(17) 0.1695(8) 0.6870(4)
C31_4 C 0.8193(19) 0.1301(8) 0.6458(5)
H19_4 H 0.8448 0.0794 0.6468
C32_4 C 0.7999(19) 0.1648(9) 0.6033(4)
H20_4 H 0.8120 0.1379 0.5751
C33_4 C 0.6569(19) 0.3774(11) 0.5142(6)
H21_4 H 0.6209 0.4235 0.5139
C34_4 C 0.682(2) 0.3432(11) 0.5562(5)
H22_4 H 0.6626 0.3660 0.5847
C35_4 C 0.734(2) 0.2757(10) 0.5566(5)
C36_4 C 0.762(2) 0.2423(11) 0.5149(7)
H23_4 H 0.7980 0.1962 0.5152
C37_4 C 0.737(2) 0.2765(13) 0.4728(5)
H24_4 H 0.7564 0.2536 0.4443
C38_4 C 0.685(2) 0.3440(11) 0.4725(5)
C40_4 C 0.8387(11) 0.1359(8) 0.7357(6)
C41_4 C 0.6539(13) 0.3732(9) 0.4252(6)
loop_
_geom_bond_atom_site_label_1
_geom_bond_atom_site_label_2
_geom_bond_site_symmetry_1
_geom_bond_site_symmetry_2
Zn1 O2 1_555 1_555
Zn2 O2 1_555 1_555
Zn3 O2 1_555 1_555
O14 C25 1_555 1_555
O15 C25 1_555 1_555
O4 Zn3 1_555 1_555
O8 Zn3 1_555 1_555
H3 C5 1_555 1_555
C6 C1 1_555 1_555
H4 C6 1_555 1_555
O11 Zn1 1_555 1_555
C7 H5 1_555 1_555
C8 C7 1_555 1_555
C9 C8 1_555 1_555
H6 C9 1_555 1_555
C10 C9 1_555 1_555
H7 C10 1_555 1_555
C12 C7 1_555 1_555
H8 C12 1_555 1_555
O12 C41 1_555 1_555
C25 C8 1_555 1_555
C26 O4 1_555 1_555
C27 C28 1_555 1_555
C28 H17 1_555 1_555
C29 C28 1_555 1_555
H18 C29 1_555 1_555
C30 C29 1_555 1_555
C31 C30 1_555 1_555
H19 C31 1_555 1_555
C32 C27 1_555 1_555
H20 C32 1_555 1_555
C33 H21 1_555 1_555
C34 C33 1_555 1_555
H22 C34 1_555 1_555
C35 C27 1_555 1_555
C36 C35 1_555 1_555
H23 C36 1_555 1_555
C37 C36 1_555 1_555
H24 C37 1_555 1_555
C38 C33 1_555 1_555
C40 O8 1_555 1_555
C41 C38 1_555 1_555
O13 C41 1_555 1_555
Zn8 O13 1_555 1_555
Zn10 O12 1_555 1_555
O16 Zn2 1_555 1_555
O17 Zn3 1_555 1_555
C1 C26 1_555 1_555
C5 C6 1_555 1_555
O11 C40 1_555 1_555
C10 C11 1_555 1_555
C11 C12 1_555 1_555
C30 C40 1_555 1_555
C31 C32 1_555 1_555
C34 C35 1_555 1_555
C37 C38 1_555 1_555
O5 Zn4 1_555 1_555
O6 C39 1_555 1_555
O7 Zn4 1_555 1_555
O9 C39 1_555 1_555
C2 H1 1_555 1_555
C3 C2 1_555 1_555
H2 C3 1_555 1_555
C4 C3 1_555 1_555
C13 C14 1_555 1_555
C14 H9 1_555 1_555
C15 C14 1_555 1_555
H10 C15 1_555 1_555
C16 C15 1_555 1_555
C17 C16 1_555 1_555
H11 C17 1_555 1_555
C18 C13 1_555 1_555
H12 C18 1_555 1_555
C19 C16 1_555 1_555
C20 C19 1_555 1_555
H13 C20 1_555 1_555
C21 C20 1_555 1_555
H14 C21 1_555 1_555
C22 C21 1_555 1_555
C23 C22 1_555 1_555
H15 C23 1_555 1_555
C24 C19 1_555 1_555
H16 C24 1_555 1_555
C39 C13 1_555 1_555
C42 O5 1_555 1_555
Zn8 O6 1_555 1_555
Zn9 O9 1_555 1_555
O18 Zn4 1_555 1_555
O10 C42 1_555 1_555
C17 C18 1_555 1_555
C22 C42 1_555 1_555
C23 C24 1_555 1_555
O1 C25_2 1_555 1_555
O3 C25_2 1_555 1_555
H2_2 C3_2 1_555 1_555
C4_2 C3_2 1_555 1_555
C5_2 C4_2 1_555 1_555
H3_2 C5_2 1_555 1_555
C7_2 H5_2 1_555 1_555
C8_2 C7_2 1_555 1_555
C9_2 C8_2 1_555 1_555
H6_2 C9_2 1_555 1_555
C10_2 C9_2 1_555 1_555
H7_2 C10_2 1_555 1_555
C11_2 C4_2 1_555 1_555
C12_2 C7_2 1_555 1_555
H8_2 C12_2 1_555 1_555
C25_2 C8_2 1_555 1_555
Zn5 O1 1_555 1_555
Zn8 O3 1_555 1_555
C10_2 C11_2 1_555 1_555
C11_2 C12_2 1_555 1_555
O16 C39_2 1_555 1_555
O17 C39_2 1_555 1_555
O18 C41_2 1_555 1_555
C18_2 C13_2 1_555 1_555
H12_2 C18_2 1_555 1_555
H24_2 C37_2 1_555 1_555
C39_2 C13_2 1_555 1_555
C41_2 C38_2 1_555 1_555
O19 C41_2 1_555 1_555
C37_2 C38_2 1_555 1_555
Zn5 O2_2 1_555 1_555
Zn8 O2_2 1_555 1_555
Zn9 O2_2 1_555 1_555
Zn10 O2_2 1_555 1_555
O4_2 Zn9 1_555 1_555
O5_2 Zn10 1_555 1_555
O7_2 Zn10 1_555 1_555
O8_2 Zn9 1_555 1_555
O10_2 Zn5 1_555 1_555
C1_2 C2_2 1_555 1_555
C2_2 H1_2 1_555 1_555
C6_2 C1_2 1_555 1_555
H4_2 C6_2 1_555 1_555
O11_2 Zn5 1_555 1_555
C14_2 H9_2 1_555 1_555
C15_2 C14_2 1_555 1_555
H10_2 C15_2 1_555 1_555
C16_2 C15_2 1_555 1_555
C17_2 C16_2 1_555 1_555
H11_2 C17_2 1_555 1_555
C19_2 C16_2 1_555 1_555
C20_2 C19_2 1_555 1_555
H13_2 C20_2 1_555 1_555
C21_2 C20_2 1_555 1_555
H14_2 C21_2 1_555 1_555
C22_2 C21_2 1_555 1_555
C23_2 C22_2 1_555 1_555
H15_2 C23_2 1_555 1_555
C24_2 C19_2 1_555 1_555
H16_2 C24_2 1_555 1_555
C26_2 O4_2 1_555 1_555
C27_2 C28_2 1_555 1_555
C28_2 H17_2 1_555 1_555
C29_2 C28_2 1_555 1_555
H18_2 C29_2 1_555 1_555
C30_2 C29_2 1_555 1_555
C31_2 C30_2 1_555 1_555
H19_2 C31_2 1_555 1_555
C32_2 C27_2 1_555 1_555
H20_2 C32_2 1_555 1_555
C33_2 H21_2 1_555 1_555
C34_2 C33_2 1_555 1_555
H22_2 C34_2 1_555 1_555
C35_2 C27_2 1_555 1_555
C36_2 C35_2 1_555 1_555
H23_2 C36_2 1_555 1_555
C40_2 O8_2 1_555 1_555
C42_2 O5_2 1_555 1_555
O7_2 C26_2 1_555 1_555
O10_2 C42_2 1_555 1_555
C1_2 C26_2 1_555 1_555
O11_2 C40_2 1_555 1_555
C22_2 C42_2 1_555 1_555
C23_2 C24_2 1_555 1_555
C30_2 C40_2 1_555 1_555
C31_2 C32_2 1_555 1_555
C34_2 C35_2 1_555 1_555
Zn1_2 O2_3 1_555 1_555
Zn2_2 O2_3 1_555 1_555
Zn3_2 O2_3 1_555 1_555
Zn4_2 O2_3 1_555 1_555
O4_3 Zn3_2 1_555 1_555
O5_3 Zn4_2 1_555 1_555
O7_3 Zn4_2 1_555 1_555
O8_3 Zn3_2 1_555 1_555
O10_3 Zn1_2 1_555 1_555
C1_3 C2_3 1_555 1_555
C2_3 H1_3 1_555 1_555
C6_3 C1_3 1_555 1_555
H4_3 C6_3 1_555 1_555
O11_3 Zn1_2 1_555 1_555
C14_3 H9_3 1_555 1_555
C15_3 C14_3 1_555 1_555
H10_3 C15_3 1_555 1_555
C16_3 C15_3 1_555 1_555
C17_3 C16_3 1_555 1_555
H11_3 C17_3 1_555 1_555
C19_3 C16_3 1_555 1_555
C20_3 C19_3 1_555 1_555
H13_3 C20_3 1_555 1_555
C21_3 C20_3 1_555 1_555
H14_3 C21_3 1_555 1_555
C22_3 C21_3 1_555 1_555
C23_3 C22_3 1_555 1_555
H15_3 C23_3 1_555 1_555
C24_3 C19_3 1_555 1_555
H16_3 C24_3 1_555 1_555
C26_3 O4_3 1_555 1_555
C27_3 C28_3 1_555 1_555
C28_3 H17_3 1_555 1_555
C29_3 C28_3 1_555 1_555
H18_3 C29_3 1_555 1_555
C30_3 C29_3 1_555 1_555
C31_3 C30_3 1_555 1_555
H19_3 C31_3 1_555 1_555
C32_3 C27_3 1_555 1_555
H20_3 C32_3 1_555 1_555
C33_3 H21_3 1_555 1_555
C34_3 C33_3 1_555 1_555
H22_3 C34_3 1_555 1_555
C35_3 C27_3 1_555 1_555
C36_3 C35_3 1_555 1_555
H23_3 C36_3 1_555 1_555
C40_3 O8_3 1_555 1_555
C42_3 O5_3 1_555 1_555
O14_2 Zn1_2 1_555 1_555
O15_2 Zn2_2 1_555 1_555
O16_2 Zn2_2 1_555 1_555
O17_2 Zn3_2 1_555 1_555
O18_2 Zn4_2 1_555 1_555
O19_2 Zn2_2 1_555 1_555
O7_3 C26_3 1_555 1_555
O10_3 C42_3 1_555 1_555
C1_3 C26_3 1_555 1_555
O11_3 C40_3 1_555 1_555
C22_3 C42_3 1_555 1_555
C23_3 C24_3 1_555 1_555
C30_3 C40_3 1_555 1_555
C31_3 C32_3 1_555 1_555
C34_3 C35_3 1_555 1_555
O6_2 C39_3 1_555 1_555
O9_2 C39_3 1_555 1_555
O12_2 C41_3 1_555 1_555
C18_3 C13_3 1_555 1_555
H12_3 C18_3 1_555 1_555
H24_3 C37_3 1_555 1_555
C39_3 C13_3 1_555 1_555
C41_3 C38_3 1_555 1_555
O13_2 C41_3 1_555 1_555
Zn7 O6_2 1_555 1_555
Zn9_2 O9_2 1_555 1_555
Zn10_2 O12_2 1_555 1_555
C37_3 C38_3 1_555 1_555
O14_2 C25_3 1_555 1_555
O15_2 C25_3 1_555 1_555
H2_3 C3_3 1_555 1_555
C4_3 C3_3 1_555 1_555
C5_3 C4_3 1_555 1_555
H3_3 C5_3 1_555 1_555
C7_3 H5_3 1_555 1_555
C8_3 C7_3 1_555 1_555
C9_3 C8_3 1_555 1_555
H6_3 C9_3 1_555 1_555
C10_3 C9_3 1_555 1_555
H7_3 C10_3 1_555 1_555
C11_3 C4_3 1_555 1_555
C12_3 C7_3 1_555 1_555
H8_3 C12_3 1_555 1_555
C25_3 C8_3 1_555 1_555
C10_3 C11_3 1_555 1_555
C11_3 C12_3 1_555 1_555
O5_4 Zn10_2 1_555 1_555
O16_2 C39_4 1_555 1_555
O7_4 Zn10_2 1_555 1_555
O17_2 C39_4 1_555 1_555
C2_4 H1_4 1_555 1_555
C3_4 C2_4 1_555 1_555
H2_4 C3_4 1_555 1_555
C4_4 C3_4 1_555 1_555
C13_4 C14_4 1_555 1_555
C14_4 H9_4 1_555 1_555
C15_4 C14_4 1_555 1_555
H10_4 C15_4 1_555 1_555
C16_4 C15_4 1_555 1_555
C17_4 C16_4 1_555 1_555
H11_4 C17_4 1_555 1_555
C18_4 C13_4 1_555 1_555
H12_4 C18_4 1_555 1_555
C19_4 C16_4 1_555 1_555
C20_4 C19_4 1_555 1_555
H13_4 C20_4 1_555 1_555
C21_4 C20_4 1_555 1_555
H14_4 C21_4 1_555 1_555
C22_4 C21_4 1_555 1_555
C23_4 C22_4 1_555 1_555
H15_4 C23_4 1_555 1_555
C24_4 C19_4 1_555 1_555
H16_4 C24_4 1_555 1_555
C39_4 C13_4 1_555 1_555
C42_4 O5_4 1_555 1_555
O10_4 C42_4 1_555 1_555
C17_4 C18_4 1_555 1_555
C22_4 C42_4 1_555 1_555
C23_4 C24_4 1_555 1_555
Zn5_2 O2_4 1_555 1_555
Zn7 O2_4 1_555 1_555
Zn9_2 O2_4 1_555 1_555
O1_2 C25_4 1_555 1_555
O3_2 C25_4 1_555 1_555
O4_4 Zn9_2 1_555 1_555
O8_4 Zn9_2 1_555 1_555
H3_4 C5_4 1_555 1_555
C6_4 C1_4 1_555 1_555
H4_4 C6_4 1_555 1_555
O11_4 Zn5_2 1_555 1_555
C7_4 H5_4 1_555 1_555
C8_4 C7_4 1_555 1_555
C9_4 C8_4 1_555 1_555
H6_4 C9_4 1_555 1_555
C10_4 C9_4 1_555 1_555
H7_4 C10_4 1_555 1_555
C12_4 C7_4 1_555 1_555
H8_4 C12_4 1_555 1_555
O18_2 C41_4 1_555 1_555
C25_4 C8_4 1_555 1_555
C26_4 O4_4 1_555 1_555
C27_4 C28_4 1_555 1_555
C28_4 H17_4 1_555 1_555
C29_4 C28_4 1_555 1_555
H18_4 C29_4 1_555 1_555
C30_4 C29_4 1_555 1_555
C31_4 C30_4 1_555 1_555
H19_4 C31_4 1_555 1_555
C32_4 C27_4 1_555 1_555
H20_4 C32_4 1_555 1_555
C33_4 H21_4 1_555 1_555
C34_4 C33_4 1_555 1_555
H22_4 C34_4 1_555 1_555
C35_4 C27_4 1_555 1_555
C36_4 C35_4 1_555 1_555
H23_4 C36_4 1_555 1_555
C37_4 C36_4 1_555 1_555
H24_4 C37_4 1_555 1_555
C38_4 C33_4 1_555 1_555
C40_4 O8_4 1_555 1_555
C41_4 C38_4 1_555 1_555
O19_2 C41_4 1_555 1_555
C1_4 C26_4 1_555 1_555
C5_4 C6_4 1_555 1_555
O11_4 C40_4 1_555 1_555
C10_4 C11_4 1_555 1_555
C11_4 C12_4 1_555 1_555
C30_4 C40_4 1_555 1_555
C31_4 C32_4 1_555 1_555
C34_4 C35_4 1_555 1_555
C37_4 C38_4 1_555 1_555

#END
