
###############################################################################
#
# This file contains modified crystal structure data generated from the
# MOF subset of the Cambridge Structural Database (CSD) v543 
# hosted by the Cambridge Crystallographic Data Centre (CCDC).
#
# This work is licensed under the Creative Commons
# Attribution-NonCommercial-ShareAlike 4.0 International License.
# To view a copy of this license, visit
# http://creativecommons.org/licenses/by-nc-sa/4.0/
# or send a letter to
# Creative Commons, PO Box 1866, Mountain View, CA 94042, USA.
#
# CIF created using the CSD Python API on 29 September 2022
# The structure has been converted into the P1 space group
# The structure has a 3D framework
# The original CSD entry PIXDIM is in the monoclinic crystal system
# The framework has been calculated to contain at least 10.0% void space
# The void calculation uses a probe of radius 1.32A, grid spacing 0.4
# H atom positions have been added when not included in the experimental data
#
###############################################################################

data_PIXDIM
_chemical_formula_moiety         '(C464 H288 Cu32 N36 O98)n'
_symmetry_cell_setting           triclinic
_symmetry_space_group_name_H-M   'P 1'
_symmetry_Int_Tables_number      1
_space_group_name_Hall           'P 1'
loop_
_symmetry_equiv_pos_site_id
_symmetry_equiv_pos_as_xyz
1 x,y,z
_cell_length_a                   19.1005(2)
_cell_length_b                   26.8015(6)
_cell_length_c                   35.7450(5)
_cell_angle_alpha                90
_cell_angle_beta                 99.3440(10)
_cell_angle_gamma                90
_cell_volume                     18055.9
loop_
_atom_site_label
_atom_site_type_symbol
_atom_site_fract_x
_atom_site_fract_y
_atom_site_fract_z
O11 O 0.0188(2) 0.2955(2) 0.17298(13)
Cu6 Cu 0.07427(4) 0.23702(4) 0.24875(2)
Cu11 Cu 0.11671(4) 0.28163(4) 0.18085(2)
N10 N 0.1545(2) 0.22836(17) 0.28603(11)
O13 O 0.0056(2) 0.7366(2) 0.21742(13)
O14 O 0.0359(2) 0.6942(2) 0.16964(13)
Cu14 Cu 0.09092(4) 0.74490(4) 0.24939(2)
Cu16 Cu 0.13400(4) 0.70337(4) 0.17784(3)
O9 O 0.9889(2) 0.2434(2) 0.21598(12)
N6 N 0.6877(2) 0.23135(18) 0.06506(11)
N8 N 0.5728(2) 0.23570(17) 0.03765(11)
O17 O 0.2025(2) 0.2807(2) 0.00854(15)
C4 C 0.6371(2) 0.2157(2) 0.03674(14)
C8 C 0.6501(3) 0.1793(2) 0.00731(14)
C18 C 0.5818(3) 0.2656(2) 0.06995(15)
C25 C 0.6529(3) 0.2627(2) 0.08667(15)
C28 C 0.3361(3) 0.2711(3) 0.05218(18)
H9 H 0.301443 0.248451 0.056518
H10 H 0.757416 0.186444 0.012902
C37 C 0.9742(3) 0.2723(3) 0.18805(17)
C39 C 0.5324(3) 0.2949(2) 0.08585(15)
C51 C 0.3191(3) 0.3108(3) 0.02606(18)
C52 C 0.7738(3) 0.2638(3) 0.17507(17)
H21 H 0.738828 0.252620 0.188393
C54 C 0.4567(3) 0.3000(2) 0.06551(17)
C56 C 0.7552(3) 0.2848(2) 0.13874(15)
C57 C 0.8076(3) 0.3028(3) 0.11989(17)
H22 H 0.795356 0.317316 0.096092
C63 C 0.6291(3) 0.3123(3) 0.13746(17)
H25 H 0.642870 0.327480 0.160901
C64 C 0.4058(3) 0.2664(3) 0.07138(18)
H26 H 0.417455 0.240160 0.088282
C69 C 0.8976(3) 0.2783(3) 0.17084(17)
C76 C 0.6781(3) 0.2874(3) 0.12138(16)
C77 C 0.8776(3) 0.2994(3) 0.13610(17)
H33 H 0.912235 0.311795 0.123062
C80 C 0.5574(3) 0.3160(3) 0.11969(19)
H35 H 0.526001 0.333850 0.131939
C81 C 0.8437(3) 0.2599(3) 0.19051(17)
H36 H 0.856408 0.245194 0.214194
C91 C 0.3691(4) 0.3433(3) 0.0218(2)
H45 H 0.357999 0.370038 0.005315
C100 C 0.2471(4) 0.3157(3) 0.0030(2)
C101 C 0.4379(4) 0.3388(3) 0.0413(2)
H49 H 0.471632 0.362575 0.037757
Cu10 Cu 0.78403(4) 0.21824(4) 0.07259(2)
Cu12 Cu 0.49007(4) 0.23566(3) 0.00178(2)
Cu1 Cu 0.78329(4) 0.00771(3) 0.89064(2)
Cu2 Cu 0.64566(4) 0.00421(3) 0.86288(2)
Cu3 Cu 0.28403(4) 0.28176(4) 0.57259(2)
Cu4 Cu 0.61671(4) 0.21837(4) 0.68085(2)
O1 O 0.63411(19) 0.05533(15) 0.90091(10)
O5 O 0.6697(2) 0.05668(16) 0.82841(11)
O7 O 0.7850(2) 0.05917(16) 0.85203(11)
O8 O 0.7506(2) 0.05811(15) 0.92419(11)
N1 N 0.7145(2) 0.23156(19) 0.68712(12)
N5 N 0.8284(2) 0.24414(18) 0.71396(12)
O16 O 0.3788(2) 0.2963(2) 0.57687(14)
H2 H 0.162837 0.287836 0.997382
O18 O 0.8931(2) 0.0198(2) 0.91043(15)
H3 H 0.912995 0.046187 0.921681
C2 C 0.7666(2) 0.2203(2) 0.71559(14)
O19 O 0.5373(3) 0.0003(2) 0.83174(19)
C9 C 0.6736(3) 0.1090(2) 0.95283(14)
O22 O 0.2335(3) 0.3488(3) 0.97991(19)
C10 C 0.6878(3) 0.0707(2) 0.92344(15)
C11 C 0.7448(3) 0.2655(2) 0.66518(14)
N9 N 0.4231(3) 0.0058(2) 0.8137(2)
C14 C 0.8153(3) 0.2732(2) 0.68093(15)
C21 C 0.7589(3) 0.1828(2) 0.74450(14)
C23 C 0.8300(3) 0.3307(2) 0.63295(15)
H7 H 0.857536 0.353397 0.622048
C24 C 0.7414(3) 0.1105(2) 0.79934(15)
C26 C 0.7315(3) 0.0721(2) 0.82870(14)
C30 C 0.7188(3) 0.1691(2) 0.99987(15)
C34 C 0.5939(3) 0.1534(2) 0.98521(15)
H13 H 0.547646 0.159520 0.988979
C35 C 0.6396(3) 0.2836(3) 0.61312(16)
C42 C 0.7591(3) 0.3229(3) 0.61631(16)
H15 H 0.741405 0.339921 0.594123
O23 O 0.4036(3) 0.2370(3) 0.53662(19)
C45 C 0.7292(3) 0.1343(2) 0.97397(15)
H17 H 0.775249 0.127251 0.970286
C46 C 0.6054(3) 0.1198(2) 0.95870(14)
H18 H 0.567022 0.103755 0.944237
C53 C 0.7147(3) 0.2908(2) 0.63160(15)
C55 C 0.8593(3) 0.3053(2) 0.66528(15)
C65 C 0.9362(3) 0.3147(3) 0.68238(16)
C79 C 0.4990(3) 0.2746(3) 0.57875(17)
C83 C 0.9842(3) 0.2765(3) 0.68844(17)
H37 H 0.970353 0.243835 0.682478
C84 C 0.6892(3) 0.1186(3) 0.7691(2)
H38 H 0.647813 0.099758 0.766413
C86 C 0.9591(3) 0.3641(3) 0.68874(19)
H40 H 0.927248 0.390213 0.682663
C89 C 0.6975(3) 0.1544(3) 0.7427(2)
H43 H 0.660463 0.159873 0.722788
C99 C 0.4213(3) 0.2683(3) 0.5615(2)
C102 C 0.8040(4) 0.1368(3) 0.8014(2)
H50 H 0.841829 0.130043 0.820594
C103 C 0.8102(4) 0.1732(3) 0.7747(2)
H51 H 0.851570 0.192119 0.777490
C104 C 0.6214(4) 0.2694(4) 0.5771(2)
H52 H 0.657248 0.264588 0.562670
C105 C 0.5837(4) 0.3002(4) 0.6327(2)
H53 H 0.594296 0.313339 0.657038
C106 C 0.5147(4) 0.2965(4) 0.6150(2)
H54 H 0.478171 0.308352 0.626940
C107 C 0.4793(4) 0.0031(3) 0.8375(3)
C109 C 0.5511(4) 0.2615(4) 0.5598(2)
H56 H 0.540899 0.247431 0.535715
C110 C 0.4248(8) 0.0067(4) 0.7733(3)
H57 H 0.471642 0.015346 0.769079
H58 H 0.391522 0.031033 0.761392
H65 H 0.451686 0.030115 0.887479
C115 C 0.3472(5) 0.0046(4) 0.8252(5)
H68 H 0.338016 0.035880 0.836524
Cu7 Cu 0.90908(4) 0.25510(4) 0.75061(2)
O27 O 0.5188(2) 0.2045(2) 0.67298(13)
N11 N 0.1877(2) 0.26865(18) 0.56506(11)
O28 O 0.9944(2) 0.2634(2) 0.78258(13)
N3 N 0.5922(2) 0.76540(17) 0.03410(12)
N4 N 0.7066(2) 0.76899(19) 0.06239(12)
O15 O 0.2189(2) 0.7199(2) 0.00834(15)
C1 C 0.6563(3) 0.7858(2) 0.03353(13)
C3 C 0.6684(2) 0.8254(2) 0.00652(13)
C12 C 0.6726(3) 0.7366(2) 0.08245(15)
C13 C 0.6012(3) 0.7341(2) 0.06526(14)
C27 C 0.7373(3) 0.8393(2) 0.00070(16)
H8 H 0.776639 0.822751 0.013797
C36 C 0.3369(3) 0.6898(3) 0.02186(17)
C40 C 0.8956(3) 0.6933(3) 0.13266(17)
H14 H 0.930152 0.681234 0.119431
C47 C 0.7921(3) 0.7274(3) 0.17172(16)
H19 H 0.757314 0.738400 0.185181
C48 C 0.3532(3) 0.7249(3) 0.05093(18)
H20 H 0.317391 0.745223 0.057201
C49 C 0.9152(3) 0.7109(2) 0.16887(16)
C50 C 0.9909(3) 0.7139(3) 0.18703(17)
C58 C 0.5514(3) 0.7051(2) 0.08027(16)
C59 C 0.7727(3) 0.7116(2) 0.13483(16)
C61 C 0.8616(3) 0.7273(3) 0.18900(17)
H24 H 0.873473 0.737998 0.213976
C62 C 0.6978(3) 0.7107(2) 0.11634(16)
C66 C 0.8252(3) 0.6933(3) 0.11549(17)
H27 H 0.812776 0.681129 0.090955
C67 C 0.6473(3) 0.6864(3) 0.13206(19)
H28 H 0.660444 0.671161 0.155505
C68 C 0.4753(3) 0.7002(3) 0.06082(17)
C70 C 0.4207(3) 0.7298(3) 0.07038(18)
H29 H 0.430280 0.752928 0.089957
C78 C 0.5762(3) 0.6834(3) 0.11446(19)
H34 H 0.544433 0.665820 0.126639
C85 C 0.4590(4) 0.6654(3) 0.0323(2)
H39 H 0.494409 0.644742 0.025962
C87 C 0.3906(4) 0.6611(3) 0.0130(2)
Cu8 Cu 0.80428(5) 0.77758(4) 0.06785(3)
O30 O 0.9011(3) 0.7880(2) 0.07032(19)
O2 O 0.67676(19) 0.95417(16) 0.82932(11)
O3 O 0.79246(19) 0.95608(15) 0.85245(10)
O4 O 0.64549(19) 0.95332(15) 0.90261(10)
O6 O 0.76234(19) 0.95535(16) 0.92584(10)
N2 N 0.8455(2) 0.77164(17) 0.71397(11)
N7 N 0.7326(2) 0.7850(2) 0.68531(13)
H4 H 0.928247 0.999383 0.909450
C5 C 0.6897(3) 0.9010(2) 0.95414(13)
O20 O 0.2498(3) 0.6561(3) 0.97350(18)
C6 C 0.8331(3) 0.7431(2) 0.68172(14)
C7 C 0.7628(3) 0.7509(2) 0.66441(15)
O21 O 0.4011(3) 0.7120(2) 0.57032(19)
C15 C 0.9520(3) 0.6975(2) 0.68548(16)
C16 C 0.7838(3) 0.7962(2) 0.71469(14)
C17 C 0.7523(3) 0.9046(2) 0.80006(14)
C19 C 0.6224(3) 0.8857(2) 0.95834(15)
H5 H 0.583323 0.899947 0.943190
C20 C 0.7003(3) 0.9397(2) 0.92542(15)
C22 C 0.6117(3) 0.8495(2) 0.98475(15)
H6 H 0.565705 0.841274 0.987837
C29 C 0.8770(3) 0.7083(2) 0.66782(15)
C31 C 0.8470(3) 0.6811(2) 0.63550(15)
H11 H 0.873925 0.657034 0.625608
C32 C 0.7468(3) 0.8769(2) 0.97591(15)
H12 H 0.792668 0.886568 0.973616
C33 C 0.7742(3) 0.8344(2) 0.74376(14)
C38 C 0.7400(3) 0.9414(2) 0.82930(15)
C41 C 0.7336(3) 0.7246(2) 0.63097(15)
C43 C 0.6589(3) 0.7315(3) 0.61157(16)
O24 O 0.4217(3) 0.7791(3) 0.53619(19)
C60 C 0.7765(3) 0.6900(3) 0.61795(16)
H23 H 0.758355 0.671565 0.596536
C71 C 0.8186(3) 0.8843(3) 0.79896(18)
H30 H 0.856967 0.893896 0.816959
H32 H 0.991528 0.766939 0.684018
H41 H 0.381013 0.637948 0.993392
C88 C 0.6977(3) 0.8911(3) 0.77174(19)
H42 H 0.653287 0.905465 0.771206
C90 C 0.7073(3) 0.8561(3) 0.7436(2)
H44 H 0.669358 0.847417 0.725043
C92 C 0.2631(3) 0.6868(3) 0.9997(2)
C93 C 0.9729(3) 0.6488(3) 0.6935(2)
H46 H 0.939577 0.623494 0.687907
C94 C 0.8284(3) 0.8498(3) 0.77134(18)
H47 H 0.873489 0.836612 0.771533
C95 C 0.5181(4) 0.7401(3) 0.57523(18)
C96 C 0.4413(4) 0.7453(4) 0.5580(2)
H59 H 0.412292 0.974397 0.762705
C111 C 0.6200(5) 0.6949(4) 0.5998(3)
H60 H 0.640182 0.663731 0.597594
C112 C 0.6374(5) 0.7790(4) 0.5982(3)
H61 H 0.668423 0.805990 0.601145
C113 C 0.5654(5) 0.7844(5) 0.5797(3)
H62 H 0.548418 0.815366 0.570583
C114 C 0.4723(5) 0.9998(4) 0.8799(3)
H63 H 0.518355 0.995199 0.894812
H64 H 0.442394 0.972118 0.883770
H66 H 0.344994 0.978138 0.843087
H67 H 0.312352 0.998990 0.803069
C116 C 0.5437(6) 0.7012(5) 0.5897(5)
H69 H 0.513689 0.675415 0.594320
Cu5 Cu 0.50993(4) 0.76434(3) 0.99822(2)
Cu9 Cu 0.63400(4) 0.79663(4) 0.67784(3)
N12 N 0.4272(2) 0.76430(17) 0.96235(11)
O29 O 0.5359(2) 0.8058(2) 0.66964(13)
Cu13 Cu 0.92573(4) 0.76298(4) 0.75125(2)
Cu15 Cu 0.30428(5) 0.72242(4) 0.56785(3)
H70 H 0.237224 0.674073 0.949039
H72 H 0.388446 0.800938 0.547312
Cu3_2 Cu 0.21597(4) 0.78176(4) 0.92741(2)
O15_2 O 0.2811(2) 0.2199(2) 0.49166(15)
O16_2 O 0.1212(2) 0.7963(2) 0.92313(14)
O17_2 O 0.2975(2) 0.7807(2) 0.49146(15)
H2_2 H 0.337163 0.787836 0.502618
O20_2 O 0.2502(3) 0.1561(3) 0.52650(18)
O21_2 O 0.0989(3) 0.2120(2) 0.92968(19)
O22_2 O 0.2665(3) 0.8488(3) 0.52009(19)
N9_2 N 0.0769(3) 0.5058(2) 0.6863(2)
C28_2 C 0.1639(3) 0.7711(3) 0.44782(18)
H9_2 H 0.198557 0.748451 0.443482
C36_2 C 0.1631(3) 0.1898(3) 0.47814(17)
O23_2 O 0.0964(3) 0.7370(3) 0.96338(19)
O24_2 O 0.0783(3) 0.2791(3) 0.96381(19)
C48_2 C 0.1468(3) 0.2249(3) 0.44907(18)
H20_2 H 0.182609 0.245223 0.442799
C51_2 C 0.1809(3) 0.8108(3) 0.47394(18)
C54_2 C 0.0433(3) 0.8000(2) 0.43449(17)
C64_2 C 0.0942(3) 0.7664(3) 0.42862(18)
H26_2 H 0.082545 0.740160 0.411718
C68_2 C 0.0247(3) 0.2002(3) 0.43918(17)
C70_2 C 0.0793(3) 0.2298(3) 0.42962(18)
H29_2 H 0.069720 0.252928 0.410043
C79_2 C 0.0010(3) 0.7746(3) 0.92125(17)
C85_2 C 0.0410(4) 0.1654(3) 0.4677(2)
H39_2 H 0.005591 0.144742 0.474038
C87_2 C 0.1094(4) 0.1611(3) 0.4870(2)
H41_2 H 0.118987 0.137948 0.506608
C91_2 C 0.1309(4) 0.8433(3) 0.4782(2)
H45_2 H 0.142001 0.870038 0.494685
C92_2 C 0.2369(3) 0.1868(3) 0.5003(2)
C96_2 C 0.0587(4) 0.2453(4) 0.9420(2)
C99_2 C 0.0787(3) 0.7683(3) 0.9385(2)
C100_2 C 0.2529(4) 0.8157(3) 0.4970(2)
C101_2 C 0.0621(4) 0.8388(3) 0.4587(2)
H49_2 H 0.028368 0.862575 0.462243
H54_2 H 0.021829 0.808352 0.873060
C107_2 C 0.0207(4) 0.5031(3) 0.6625(3)
C110_2 C 0.0752(8) 0.5067(4) 0.7267(3)
H57_2 H 0.028358 0.515346 0.730921
H58_2 H 0.108478 0.531033 0.738608
H59_2 H 0.087708 0.474397 0.737295
C114_2 C 0.0277(5) 0.4998(4) 0.6201(3)
H64_2 H 0.057606 0.472118 0.616230
H65_2 H 0.048314 0.530115 0.612521
C115_2 C 0.1528(5) 0.5046(4) 0.6748(5)
H66_2 H 0.155006 0.478138 0.656913
H67_2 H 0.187648 0.498990 0.696931
H68_2 H 0.161984 0.535880 0.663476
N11_2 N 0.3123(2) 0.76865(18) 0.93494(11)
N12_2 N 0.0728(2) 0.26430(17) 0.53765(11)
Cu12_2 Cu 0.00993(4) 0.73566(3) 0.49822(2)
Cu15_2 Cu 0.19572(5) 0.22242(4) 0.93215(3)
H70_2 H 0.262776 0.174073 0.550961
H72_2 H 0.111554 0.300938 0.952688
Cu1_2 Cu 0.71671(4) 0.50771(3) 0.60936(2)
Cu2_2 Cu 0.85434(4) 0.50421(3) 0.63712(2)
Cu4_2 Cu 0.88329(4) 0.71837(4) 0.81915(2)
O1_2 O 0.86589(19) 0.55533(15) 0.59909(10)
O2_2 O 0.82324(19) 0.45417(16) 0.67068(11)
O3_2 O 0.70754(19) 0.45608(15) 0.64755(10)
O4_2 O 0.85451(19) 0.45332(15) 0.59739(10)
O5_2 O 0.8303(2) 0.55668(16) 0.67159(11)
O6_2 O 0.73766(19) 0.45535(16) 0.57416(10)
O7_2 O 0.7150(2) 0.55917(16) 0.64797(11)
O8_2 O 0.7494(2) 0.55811(15) 0.57581(11)
O9_2 O 0.5111(2) 0.7434(2) 0.28402(12)
N1_2 N 0.7855(2) 0.73156(19) 0.81288(12)
N2_2 N 0.6545(2) 0.27164(17) 0.78603(11)
O10 O 0.3044(2) 0.8133(2) 0.76609(13)
N3_2 N 0.9078(2) 0.26540(17) 0.46590(12)
O11_2 O 0.4812(2) 0.7955(2) 0.32702(13)
N4_2 N 0.7934(2) 0.26899(19) 0.43761(12)
N5_2 N 0.6716(2) 0.74414(18) 0.78604(12)
O12 O 0.2851(2) 0.19422(19) 0.76912(14)
H1 H 0.304699 0.221299 0.773608
N6_2 N 0.8123(2) 0.73135(18) 0.43494(11)
N7_2 N 0.7674(2) 0.2850(2) 0.81469(13)
O13_2 O 0.4944(2) 0.2366(2) 0.28258(13)
N8_2 N 0.9272(2) 0.73570(17) 0.46235(11)
O14_2 O 0.4641(2) 0.1942(2) 0.33036(13)
O18_2 O 0.6069(2) 0.5198(2) 0.58957(15)
H3_2 H 0.587005 0.546187 0.578319
H4_2 H 0.571753 0.499383 0.590550
C1_2 C 0.8437(3) 0.2858(2) 0.46647(13)
C2_2 C 0.7334(2) 0.7203(2) 0.78441(14)
O19_2 O 0.9627(3) 0.5003(2) 0.66826(19)
C3_2 C 0.8316(2) 0.3254(2) 0.49348(13)
C4_2 C 0.8629(2) 0.7157(2) 0.46326(14)
C5_2 C 0.8103(3) 0.4010(2) 0.54586(13)
C6_2 C 0.6669(3) 0.2431(2) 0.81828(14)
C7_2 C 0.7372(3) 0.2509(2) 0.83559(15)
C8_2 C 0.8499(3) 0.6793(2) 0.49269(14)
C9_2 C 0.8264(3) 0.6090(2) 0.54717(14)
C10_2 C 0.8122(3) 0.5707(2) 0.57656(15)
C11_2 C 0.7552(3) 0.7655(2) 0.83482(14)
C12_2 C 0.8274(3) 0.2366(2) 0.41755(15)
C13_2 C 0.8988(3) 0.2341(2) 0.43474(14)
C14_2 C 0.6847(3) 0.7732(2) 0.81907(15)
C15_2 C 0.5480(3) 0.1975(2) 0.81452(16)
C16_2 C 0.7162(3) 0.2962(2) 0.78531(14)
C17_2 C 0.7477(3) 0.4046(2) 0.69994(14)
C18_2 C 0.9182(3) 0.7656(2) 0.43005(15)
C19_2 C 0.8776(3) 0.3857(2) 0.54166(15)
H5_2 H 0.916677 0.399947 0.556810
C20_2 C 0.7997(3) 0.4397(2) 0.57458(15)
C21_2 C 0.7411(3) 0.6828(2) 0.75550(14)
C22_2 C 0.8883(3) 0.3495(2) 0.51525(15)
H6_2 H 0.934295 0.341274 0.512163
C23_2 C 0.6700(3) 0.8307(2) 0.86705(15)
H7_2 H 0.642464 0.853397 0.877952
C24_2 C 0.7586(3) 0.6105(2) 0.70066(15)
C25_2 C 0.8471(3) 0.7627(2) 0.41333(15)
C26_2 C 0.7685(3) 0.5721(2) 0.67130(14)
C27_2 C 0.7627(3) 0.3393(2) 0.49930(16)
H8_2 H 0.723361 0.322751 0.486203
C29_2 C 0.6230(3) 0.2083(2) 0.83218(15)
C30_2 C 0.7812(3) 0.6691(2) 0.50013(15)
H10_2 H 0.742584 0.686444 0.487098
C31_2 C 0.6530(3) 0.1811(2) 0.86450(15)
H11_2 H 0.626075 0.157034 0.874392
C32_2 C 0.7532(3) 0.3769(2) 0.52409(15)
H12_2 H 0.707332 0.386568 0.526384
C33_2 C 0.7258(3) 0.3344(2) 0.75624(14)
C34_2 C 0.9061(3) 0.6534(2) 0.51479(15)
H13_2 H 0.952354 0.659520 0.511021
C35_2 C 0.8604(3) 0.7836(3) 0.88688(16)
C37_2 C 0.5258(3) 0.7723(3) 0.31195(17)
C38_2 C 0.7600(3) 0.4414(2) 0.67070(15)
C39_2 C 0.9676(3) 0.7949(2) 0.41415(15)
C40_2 C 0.6044(3) 0.1933(3) 0.36734(17)
H14_2 H 0.569848 0.181234 0.380569
C41_2 C 0.7664(3) 0.2246(2) 0.86903(15)
C42_2 C 0.7409(3) 0.8229(3) 0.88369(16)
H15_2 H 0.758595 0.839921 0.905877
C43_2 C 0.8411(3) 0.2315(3) 0.88843(16)
C44 C 0.4257(3) 0.2227(2) 0.79489(18)
H16 H 0.391391 0.247610 0.792502
C45_2 C 0.7708(3) 0.6343(2) 0.52603(15)
H17_2 H 0.724751 0.627251 0.529714
C46_2 C 0.8946(3) 0.6198(2) 0.54130(14)
H18_2 H 0.932978 0.603755 0.555763
C47_2 C 0.7079(3) 0.2274(3) 0.32828(16)
H19_2 H 0.742686 0.238400 0.314819
C49_2 C 0.5848(3) 0.2109(2) 0.33113(16)
C50_2 C 0.5091(3) 0.2139(3) 0.31297(17)
C52_2 C 0.7262(3) 0.7638(3) 0.32493(17)
H21_2 H 0.761172 0.752620 0.311607
C53_2 C 0.7853(3) 0.7908(2) 0.86840(15)
C55_2 C 0.6407(3) 0.8053(2) 0.83472(15)
C56_2 C 0.7448(3) 0.7848(2) 0.36126(15)
C57_2 C 0.6924(3) 0.8028(3) 0.38011(17)
H22_2 H 0.704644 0.817316 0.403908
C58_2 C 0.9486(3) 0.2051(2) 0.41973(16)
C59_2 C 0.7273(3) 0.2116(2) 0.36517(16)
C60_2 C 0.7235(3) 0.1900(3) 0.88205(16)
H23_2 H 0.741645 0.171565 0.903464
C61_2 C 0.6384(3) 0.2273(3) 0.31100(17)
H24_2 H 0.626527 0.237998 0.286024
C62_2 C 0.8022(3) 0.2107(2) 0.38366(16)
C63_2 C 0.8709(3) 0.8123(3) 0.36254(17)
H25_2 H 0.857130 0.827480 0.339099
C65_2 C 0.5638(3) 0.8147(3) 0.81762(16)
C66_2 C 0.6748(3) 0.1933(3) 0.38451(17)
H27_2 H 0.687224 0.181129 0.409045
C67_2 C 0.8527(3) 0.1864(3) 0.36794(19)
H28_2 H 0.839556 0.171161 0.344495
C69_2 C 0.6024(3) 0.7783(3) 0.32916(17)
C71_2 C 0.6814(3) 0.3843(3) 0.70104(18)
H30_2 H 0.643033 0.393896 0.683041
C72 C 0.4239(3) 0.8366(3) 0.78878(18)
O25 O 0.3296(3) 0.8926(2) 0.7692(2)
C73 C 0.4449(3) 0.7879(3) 0.79607(17)
H31 H 0.411942 0.762230 0.790730
C74 C 0.3476(3) 0.8498(3) 0.7740(2)
C75 C 0.4961(3) 0.2341(2) 0.80950(17)
H32_2 H 0.508472 0.266939 0.815982
C76_2 C 0.8219(3) 0.7874(3) 0.37862(16)
C77_2 C 0.6224(3) 0.7994(3) 0.36390(17)
H33_2 H 0.587765 0.811795 0.376938
C78_2 C 0.9238(3) 0.1834(3) 0.38554(19)
H34_2 H 0.955567 0.165820 0.373361
C80_2 C 0.9426(3) 0.8160(3) 0.38031(19)
H35_2 H 0.973999 0.833850 0.368061
C81_2 C 0.6563(3) 0.7599(3) 0.30949(17)
H36_2 H 0.643592 0.745194 0.285806
C82 C 0.4070(3) 0.1755(3) 0.7842(2)
C83_2 C 0.5158(3) 0.7765(3) 0.81156(17)
H37_2 H 0.529647 0.743835 0.817522
C84_2 C 0.8108(3) 0.6186(3) 0.7309(2)
H38_2 H 0.852187 0.599758 0.733587
C86_2 C 0.5409(3) 0.8641(3) 0.81126(19)
H40_2 H 0.572752 0.890213 0.817337
C88_2 C 0.8023(3) 0.3911(3) 0.72826(19)
H42_2 H 0.846713 0.405465 0.728794
C89_2 C 0.8025(3) 0.6544(3) 0.7573(2)
H43_2 H 0.839537 0.659873 0.777212
C90_2 C 0.7927(3) 0.3561(3) 0.7564(2)
H44_2 H 0.830642 0.347417 0.774957
C93_2 C 0.5271(3) 0.1488(3) 0.8065(2)
H46_2 H 0.560423 0.123494 0.812093
C94_2 C 0.6716(3) 0.3498(3) 0.72866(18)
H47_2 H 0.626511 0.336612 0.728467
C95_2 C 0.9819(4) 0.2401(3) 0.92477(18)
C97 C 0.4717(3) 0.8741(3) 0.7961(2)
H48 H 0.457464 0.906876 0.790899
C98 C 0.3324(4) 0.1600(3) 0.7689(3)
C102_2 C 0.6960(4) 0.6368(3) 0.6986(2)
H50_2 H 0.658171 0.630043 0.679406
C103_2 C 0.6898(4) 0.6732(3) 0.7253(2)
H51_2 H 0.648430 0.692119 0.722510
O26 O 0.3170(3) 0.1190(3) 0.7549(4)
C104_2 C 0.8786(4) 0.7694(4) 0.9229(2)
H52_2 H 0.842752 0.764588 0.937330
C105_2 C 0.9163(4) 0.8002(4) 0.8673(2)
H53_2 H 0.905704 0.813339 0.842962
C106_2 C 0.9853(4) 0.7965(4) 0.8850(2)
C108 C 0.4583(4) 0.1362(3) 0.7902(3)
H55 H 0.446067 0.103431 0.783566
C109_2 C 0.9489(4) 0.7615(4) 0.9402(2)
H56_2 H 0.959101 0.747431 0.964285
C111_2 C 0.8800(5) 0.1949(4) 0.9002(3)
H60_2 H 0.859818 0.163731 0.902406
C112_2 C 0.8626(5) 0.2790(4) 0.9018(3)
H61_2 H 0.831577 0.305990 0.898855
C113_2 C 0.9346(5) 0.2844(5) 0.9203(3)
H62_2 H 0.951582 0.315366 0.929417
H63_2 H 0.981645 0.495199 0.605188
C116_2 C 0.9563(6) 0.2012(5) 0.9103(5)
H69_2 H 0.986311 0.175415 0.905680
Cu5_2 Cu 0.99007(4) 0.26434(3) 0.50178(2)
Cu6_2 Cu 0.42573(4) 0.73702(4) 0.25125(2)
Cu7_2 Cu 0.59092(4) 0.75510(4) 0.74939(2)
Cu8_2 Cu 0.69572(5) 0.27758(4) 0.43215(3)
Cu9_2 Cu 0.86600(4) 0.29663(4) 0.82216(3)
Cu10_2 Cu 0.71597(4) 0.71824(4) 0.42741(2)
Cu11_2 Cu 0.38329(4) 0.78163(4) 0.31915(2)
N10_2 N 0.3455(2) 0.72836(17) 0.21397(11)
O27_2 O 0.9812(2) 0.7045(2) 0.82702(13)
O28_2 O 0.5056(2) 0.7634(2) 0.71742(13)
O29_2 O 0.9641(2) 0.3058(2) 0.83036(13)
O30_2 O 0.5989(3) 0.2880(2) 0.42968(19)
Cu13_2 Cu 0.57427(4) 0.26298(4) 0.74875(2)
Cu14_2 Cu 0.40908(4) 0.24490(4) 0.25061(2)
Cu16_2 Cu 0.36600(4) 0.20337(4) 0.32216(3)
H71 H 0.292034 0.900232 0.78456
O2_3 O 0.32324(19) 0.04583(16) 0.17068(11)
O3_3 O 0.20754(19) 0.04392(15) 0.14755(10)
O4_3 O 0.35451(19) 0.04668(15) 0.09739(10)
O6_3 O 0.23766(19) 0.04465(16) 0.07416(10)
N7_3 N 0.2674(2) 0.2150(2) 0.31469(13)
H4_3 H 0.071753 0.000617 0.090550
C5_3 C 0.3103(3) 0.0990(2) 0.04586(13)
O20_3 O 0.7502(3) 0.3439(3) 0.02650(18)
C6_3 C 0.1669(3) 0.2569(2) 0.31828(14)
C7_3 C 0.2372(3) 0.2491(2) 0.33559(15)
C15_3 C 0.0480(3) 0.3025(2) 0.31452(16)
C16_3 C 0.2162(3) 0.2038(2) 0.28531(14)
C17_3 C 0.2477(3) 0.0954(2) 0.19994(14)
C19_3 C 0.3776(3) 0.1143(2) 0.04166(15)
H5_3 H 0.416677 0.100053 0.056810
C20_3 C 0.2997(3) 0.0603(2) 0.07458(15)
C22_3 C 0.3883(3) 0.1505(2) 0.01525(15)
H6_3 H 0.434295 0.158726 0.012163
C29_3 C 0.1230(3) 0.2917(2) 0.33218(15)
C31_3 C 0.1530(3) 0.3189(2) 0.36450(15)
H11_3 H 0.126075 0.342966 0.374392
C32_3 C 0.2532(3) 0.1231(2) 0.02409(15)
H12_3 H 0.207332 0.113432 0.026384
C33_3 C 0.2258(3) 0.1656(2) 0.25624(14)
C38_3 C 0.2600(3) 0.0586(2) 0.17070(15)
C41_3 C 0.2664(3) 0.2754(2) 0.36903(15)
C43_3 C 0.3411(3) 0.2685(3) 0.38843(16)
O24_3 O 0.5783(3) 0.2209(3) 0.46381(19)
C60_3 C 0.2235(3) 0.3100(3) 0.38205(16)
H23_3 H 0.241645 0.328435 0.403464
C71_3 C 0.1814(3) 0.1157(3) 0.20104(18)
H30_3 H 0.143033 0.106104 0.183041
H32_3 H 0.008472 0.233061 0.315982
H41_3 H 0.618987 0.362052 0.006608
C88_3 C 0.3023(3) 0.1089(3) 0.22826(19)
H42_3 H 0.346713 0.094535 0.228794
C90_3 C 0.2927(3) 0.1439(3) 0.2564(2)
H44_3 H 0.330642 0.152583 0.274957
C92_3 C 0.7369(3) 0.3132(3) 0.0003(2)
C93_3 C 0.0271(3) 0.3512(3) 0.3065(2)
H46_3 H 0.060423 0.376506 0.312093
C94_3 C 0.1716(3) 0.1502(3) 0.22866(18)
H47_3 H 0.126511 0.163388 0.228467
C95_3 C 0.4819(4) 0.2599(3) 0.42477(18)
C96_3 C 0.5587(4) 0.2547(4) 0.4420(2)
H59_3 H 0.587708 0.025603 0.237295
C111_3 C 0.3800(5) 0.3051(4) 0.4002(3)
H60_3 H 0.359818 0.336269 0.402406
C112_3 C 0.3626(5) 0.2210(4) 0.4018(3)
H61_3 H 0.331577 0.194010 0.398855
C113_3 C 0.4346(5) 0.2156(5) 0.4203(3)
H62_3 H 0.451582 0.184634 0.429417
C114_3 C 0.5277(5) 0.0002(4) 0.1201(3)
H63_3 H 0.481645 0.004801 0.105188
H64_3 H 0.557606 0.027882 0.116230
H66_3 H 0.655006 0.021862 0.156913
H67_3 H 0.687648 0.001010 0.196931
C116_3 C 0.4563(6) 0.2988(5) 0.4103(5)
H69_3 H 0.486311 0.324585 0.405680
H70_3 H 0.762776 0.325927 0.0509611
H72_3 H 0.611554 0.199062 0.452688
N3_3 N 0.4078(2) 0.23460(17) 0.96590(12)
N4_3 N 0.2934(2) 0.23101(19) 0.93761(12)
O15_3 O 0.7811(2) 0.2801(2) 0.99166(15)
C1_3 C 0.3437(3) 0.2142(2) 0.96647(13)
C3_3 C 0.3316(2) 0.1746(2) 0.99348(13)
C12_3 C 0.3274(3) 0.2634(2) 0.91755(15)
C13_3 C 0.3988(3) 0.2659(2) 0.93474(14)
C27_3 C 0.2627(3) 0.1607(2) 0.99930(16)
H8_3 H 0.223361 0.177249 0.986203
C36_3 C 0.6631(3) 0.3102(3) 0.97814(17)
C40_3 C 0.1044(3) 0.3067(3) 0.86734(17)
H14_3 H 0.069848 0.318766 0.880569
C47_3 C 0.2079(3) 0.2726(3) 0.82828(16)
H19_3 H 0.242686 0.261600 0.814819
C48_3 C 0.6468(3) 0.2751(3) 0.94907(18)
H20_3 H 0.682609 0.254777 0.942799
C49_3 C 0.0848(3) 0.2891(2) 0.83113(16)
C50_3 C 0.0091(3) 0.2861(3) 0.81297(17)
C58_3 C 0.4486(3) 0.2949(2) 0.91973(16)
C59_3 C 0.2273(3) 0.2884(2) 0.86517(16)
C61_3 C 0.1384(3) 0.2727(3) 0.81100(17)
H24_3 H 0.126527 0.262002 0.786024
C62_3 C 0.3022(3) 0.2893(2) 0.88366(16)
C66_3 C 0.1748(3) 0.3067(3) 0.88451(17)
H27_3 H 0.187224 0.318871 0.909045
C67_3 C 0.3527(3) 0.3136(3) 0.86794(19)
H28_3 H 0.339556 0.328839 0.844495
C68_3 C 0.5247(3) 0.2998(3) 0.93918(17)
C70_3 C 0.5793(3) 0.2702(3) 0.92962(18)
H29_3 H 0.569720 0.247072 0.910043
C78_3 C 0.4238(3) 0.3166(3) 0.88554(19)
H34_3 H 0.455567 0.334180 0.873361
C85_3 C 0.5410(4) 0.3346(3) 0.9677(2)
H39_3 H 0.505591 0.355258 0.974038
C87_3 C 0.6094(4) 0.3389(3) 0.9870(2)
Cu1_3 Cu 0.21671(4) 0.99229(3) 0.10936(2)
Cu2_3 Cu 0.35434(4) 0.99579(3) 0.13712(2)
O1_3 O 0.36589(19) 0.94467(15) 0.09909(10)
O5_3 O 0.3303(2) 0.94332(16) 0.17159(11)
O7_3 O 0.2150(2) 0.94083(16) 0.14797(11)
O8_3 O 0.2494(2) 0.94189(15) 0.07581(11)
N1_3 N 0.2855(2) 0.76844(19) 0.31288(12)
N5_3 N 0.1716(2) 0.75586(18) 0.28604(12)
O16_3 O 0.6212(2) 0.7037(2) 0.42313(14)
H2_3 H 0.837163 0.712164 0.002618
O18_3 O 0.1069(2) 0.9802(2) 0.08957(15)
H3_3 H 0.087005 0.953813 0.078319
C2_3 C 0.2334(2) 0.7797(2) 0.28441(14)
O19_3 O 0.4627(3) 0.9997(2) 0.16826(19)
C9_3 C 0.3264(3) 0.8910(2) 0.04717(14)
O22_3 O 0.7665(3) 0.6512(3) 0.02009(19)
C10_3 C 0.3122(3) 0.9293(2) 0.07656(15)
C11_3 C 0.2552(3) 0.7345(2) 0.33482(14)
N9_3 N 0.5769(3) 0.9942(2) 0.1863(2)
C14_3 C 0.1847(3) 0.7268(2) 0.31907(15)
C21_3 C 0.2411(3) 0.8172(2) 0.25550(14)
C23_3 C 0.1700(3) 0.6693(2) 0.36705(15)
H7_3 H 0.142464 0.646603 0.377952
C24_3 C 0.2586(3) 0.8895(2) 0.20066(15)
C26_3 C 0.2685(3) 0.9279(2) 0.17130(14)
C30_3 C 0.2812(3) 0.8309(2) 0.00013(15)
C34_3 C 0.4061(3) 0.8466(2) 0.01479(15)
H13_3 H 0.452354 0.840480 0.011021
C35_3 C 0.3604(3) 0.7164(3) 0.38688(16)
C42_3 C 0.2409(3) 0.6771(3) 0.38369(16)
H15_3 H 0.258595 0.660079 0.405877
O23_3 O 0.5964(3) 0.7630(3) 0.46338(19)
C45_3 C 0.2708(3) 0.8657(2) 0.02603(15)
H17_3 H 0.224751 0.872749 0.029714
C46_3 C 0.3946(3) 0.8802(2) 0.04130(14)
H18_3 H 0.432978 0.896245 0.055763
C53_3 C 0.2853(3) 0.7092(2) 0.36840(15)
C55_3 C 0.1407(3) 0.6947(2) 0.33472(15)
C65_3 C 0.0638(3) 0.6853(3) 0.31762(16)
C79_3 C 0.5010(3) 0.7254(3) 0.42125(17)
C83_3 C 0.0158(3) 0.7235(3) 0.31156(17)
H37_3 H 0.029647 0.756165 0.317522
C84_3 C 0.3108(3) 0.8814(3) 0.2309(2)
H38_3 H 0.352187 0.900242 0.233587
C86_3 C 0.0409(3) 0.6359(3) 0.31126(19)
H40_3 H 0.072752 0.609787 0.317337
C89_3 C 0.3025(3) 0.8456(3) 0.2573(2)
H43_3 H 0.339537 0.840127 0.277212
C99_3 C 0.5787(3) 0.7317(3) 0.4385(2)
C102_3 C 0.1960(4) 0.8632(3) 0.1986(2)
H50_3 H 0.158171 0.869957 0.179406
C103_3 C 0.1898(4) 0.8268(3) 0.2253(2)
H51_3 H 0.148430 0.807881 0.222510
C104_3 C 0.3786(4) 0.7306(4) 0.4229(2)
H52_3 H 0.342752 0.735412 0.437330
C105_3 C 0.4163(4) 0.6998(4) 0.3673(2)
H53_3 H 0.405704 0.686661 0.342962
C106_3 C 0.4853(4) 0.7035(4) 0.3850(2)
H54_3 H 0.521829 0.691648 0.373060
C107_3 C 0.5207(4) 0.9969(3) 0.1625(3)
C109_3 C 0.4489(4) 0.7385(4) 0.4402(2)
H56_3 H 0.459101 0.752569 0.464285
C110_3 C 0.5752(8) 0.9933(4) 0.2267(3)
H57_3 H 0.528358 0.984654 0.230921
H58_3 H 0.608478 0.968967 0.238608
H65_3 H 0.548314 0.969885 0.112521
C115_3 C 0.6528(5) 0.9954(4) 0.1748(5)
H68_3 H 0.661984 0.964120 0.163476
O9_3 O 0.0111(2) 0.7566(2) 0.78402(12)
O17_3 O 0.7975(2) 0.7193(2) 0.99146(15)
C4_3 C 0.3629(2) 0.7843(2) 0.96326(14)
C8_3 C 0.3499(3) 0.8207(2) 0.99269(14)
C18_3 C 0.4182(3) 0.7344(2) 0.93005(15)
C25_3 C 0.3471(3) 0.7373(2) 0.91333(15)
C28_3 C 0.6639(3) 0.7289(3) 0.94782(18)
H9_3 H 0.698557 0.751549 0.943482
H10_3 H 0.242584 0.813556 0.987098
C37_3 C 0.0258(3) 0.7277(3) 0.81195(17)
C39_3 C 0.4676(3) 0.7051(2) 0.91415(15)
C51_3 C 0.6809(3) 0.6892(3) 0.97394(18)
C52_3 C 0.2262(3) 0.7362(3) 0.82493(17)
H21_3 H 0.261172 0.747380 0.811607
C54_3 C 0.5433(3) 0.7000(2) 0.93449(17)
C56_3 C 0.2448(3) 0.7152(2) 0.86126(15)
C57_3 C 0.1924(3) 0.6972(3) 0.88011(17)
H22_3 H 0.204644 0.682684 0.903908
C63_3 C 0.3709(3) 0.6877(3) 0.86254(17)
H25_3 H 0.357130 0.672520 0.839099
C64_3 C 0.5942(3) 0.7336(3) 0.92862(18)
H26_3 H 0.582545 0.759840 0.911718
C69_3 C 0.1024(3) 0.7217(3) 0.82916(17)
C76_3 C 0.3219(3) 0.7126(3) 0.87862(16)
C77_3 C 0.1224(3) 0.7006(3) 0.86390(17)
H33_3 H 0.087765 0.688205 0.876938
C80_3 C 0.4426(3) 0.6840(3) 0.88031(19)
H35_3 H 0.473999 0.666150 0.868061
C81_3 C 0.1563(3) 0.7401(3) 0.80949(17)
H36_3 H 0.143592 0.754806 0.785806
C91_3 C 0.6309(4) 0.6567(3) 0.9782(2)
H45_3 H 0.642001 0.629962 0.994685
C100_3 C 0.7529(4) 0.6843(3) 0.9970(2)
C101_3 C 0.5621(4) 0.6612(3) 0.9587(2)
H49_3 H 0.528368 0.637425 0.962243
Cu1_4 Cu 0.28329(4) 0.49229(3) 0.39064(2)
Cu2_4 Cu 0.14566(4) 0.49579(3) 0.36288(2)
O1_4 O 0.13411(19) 0.44467(15) 0.40091(10)
O2_4 O 0.17676(19) 0.54583(16) 0.32932(11)
O3_4 O 0.29246(19) 0.54392(15) 0.35245(10)
O4_4 O 0.14549(19) 0.54668(15) 0.40261(10)
O5_4 O 0.1697(2) 0.44332(16) 0.32841(11)
O6_4 O 0.26234(19) 0.54465(16) 0.42584(10)
O7_4 O 0.2850(2) 0.44083(16) 0.35203(11)
O8_4 O 0.2506(2) 0.44189(15) 0.42419(11)
O9_4 O 0.4889(2) 0.2566(2) 0.71598(12)
N1_4 N 0.2145(2) 0.26844(19) 0.18712(12)
O10_2 O 0.6956(2) 0.1867(2) 0.23391(13)
N3_4 N 0.0922(2) 0.73460(17) 0.53410(12)
N4_4 N 0.2066(2) 0.73101(19) 0.56239(12)
N5_4 N 0.3284(2) 0.25586(18) 0.21396(12)
O12_2 O 0.7149(2) 0.80578(19) 0.23088(14)
H1_2 H 0.695301 0.778701 0.226392
N7_4 N 0.2326(2) 0.7150(2) 0.18531(13)
O18_4 O 0.3931(2) 0.4802(2) 0.41043(15)
H3_4 H 0.412995 0.453813 0.421681
H4_4 H 0.428247 0.500617 0.409450
C1_4 C 0.1563(3) 0.7142(2) 0.53353(13)
C2_4 C 0.2666(2) 0.2797(2) 0.21559(14)
O19_4 O 0.0373(3) 0.4997(2) 0.33174(19)
C3_4 C 0.1684(2) 0.6746(2) 0.50652(13)
C4_4 C 0.1371(2) 0.2843(2) 0.53674(14)
C5_4 C 0.1897(3) 0.5990(2) 0.45414(13)
C6_4 C 0.3331(3) 0.7569(2) 0.18172(14)
C7_4 C 0.2628(3) 0.7491(2) 0.16441(15)
C8_4 C 0.1501(3) 0.3207(2) 0.50731(14)
C9_4 C 0.1736(3) 0.3910(2) 0.45283(14)
C10_4 C 0.1878(3) 0.4293(2) 0.42344(15)
C11_4 C 0.2448(3) 0.2345(2) 0.16518(14)
C12_4 C 0.1726(3) 0.7634(2) 0.58245(15)
C13_4 C 0.1012(3) 0.7659(2) 0.56526(14)
C14_4 C 0.3153(3) 0.2268(2) 0.18093(15)
C15_4 C 0.4520(3) 0.8025(2) 0.18548(16)
C16_4 C 0.2838(3) 0.7038(2) 0.21469(14)
C17_4 C 0.2523(3) 0.5954(2) 0.30006(14)
C18_4 C 0.0818(3) 0.2344(2) 0.56995(15)
C19_4 C 0.1224(3) 0.6143(2) 0.45834(15)
H5_4 H 0.083323 0.600053 0.443190
C20_4 C 0.2003(3) 0.5603(2) 0.42542(15)
C21_4 C 0.2589(3) 0.3172(2) 0.24450(14)
C22_4 C 0.1117(3) 0.6505(2) 0.48475(15)
H6_4 H 0.065705 0.658726 0.487837
C23_4 C 0.3300(3) 0.1693(2) 0.13295(15)
H7_4 H 0.357536 0.146603 0.122048
C24_4 C 0.2414(3) 0.3895(2) 0.29934(15)
C25_4 C 0.1529(3) 0.2373(2) 0.58667(15)
C26_4 C 0.2315(3) 0.4279(2) 0.32870(14)
C27_4 C 0.2373(3) 0.6607(2) 0.50070(16)
H8_4 H 0.276639 0.677249 0.513797
C29_4 C 0.3770(3) 0.7917(2) 0.16782(15)
C30_4 C 0.2188(3) 0.3309(2) 0.49987(15)
H10_4 H 0.257416 0.313556 0.512902
C31_4 C 0.3470(3) 0.8189(2) 0.13550(15)
H11_4 H 0.373925 0.842966 0.125608
C32_4 C 0.2468(3) 0.6231(2) 0.47591(15)
H12_4 H 0.292668 0.613432 0.473616
C33_4 C 0.2742(3) 0.6656(2) 0.24376(14)
C34_4 C 0.0939(3) 0.3466(2) 0.48521(15)
H13_4 H 0.047646 0.340480 0.488979
C35_4 C 0.1396(3) 0.2164(3) 0.11312(16)
C37_4 C 0.4742(3) 0.2277(3) 0.68805(17)
C38_4 C 0.2400(3) 0.5586(2) 0.32930(15)
C39_4 C 0.0324(3) 0.2051(2) 0.58585(15)
C40_4 C 0.3956(3) 0.8067(3) 0.63266(17)
H14_4 H 0.430152 0.818766 0.619431
C41_4 C 0.2336(3) 0.7754(2) 0.13097(15)
C42_4 C 0.2591(3) 0.1771(3) 0.11631(16)
H15_4 H 0.241405 0.160079 0.094123
C43_4 C 0.1589(3) 0.7685(3) 0.11157(16)
C44_2 C 0.5743(3) 0.7773(2) 0.20511(18)
H16_2 H 0.608609 0.752390 0.207498
C45_4 C 0.2292(3) 0.3657(2) 0.47397(15)
H17_4 H 0.275249 0.372749 0.470286
C46_4 C 0.1054(3) 0.3802(2) 0.45870(14)
H18_4 H 0.067022 0.396245 0.444237
C47_4 C 0.2921(3) 0.7726(3) 0.67172(16)
H19_4 H 0.257314 0.761600 0.685181
C49_4 C 0.4152(3) 0.7891(2) 0.66887(16)
C50_4 C 0.4909(3) 0.7861(3) 0.68703(17)
C52_4 C 0.2738(3) 0.2362(3) 0.67507(17)
H21_4 H 0.238828 0.247380 0.688393
C53_4 C 0.2147(3) 0.2092(2) 0.13160(15)
C55_4 C 0.3593(3) 0.1947(2) 0.16528(15)
C56_4 C 0.2552(3) 0.2152(2) 0.63874(15)
C57_4 C 0.3076(3) 0.1972(3) 0.61989(17)
H22_4 H 0.295356 0.182684 0.596092
C58_4 C 0.0514(3) 0.7949(2) 0.58027(16)
C59_4 C 0.2727(3) 0.7884(2) 0.63483(16)
C60_4 C 0.2765(3) 0.8100(3) 0.11795(16)
H23_4 H 0.258355 0.828435 0.096536
C61_4 C 0.3616(3) 0.7727(3) 0.68900(17)
H24_4 H 0.373473 0.762002 0.713976
C62_4 C 0.1978(3) 0.7893(2) 0.61634(16)
C63_4 C 0.1291(3) 0.1877(3) 0.63746(17)
H25_4 H 0.142870 0.172520 0.660901
C65_4 C 0.4362(3) 0.1853(3) 0.18238(16)
C66_4 C 0.3252(3) 0.8067(3) 0.61549(17)
H27_4 H 0.312776 0.818871 0.590955
C67_4 C 0.1473(3) 0.8136(3) 0.63206(19)
H28_4 H 0.160444 0.828839 0.655505
C69_4 C 0.3976(3) 0.2217(3) 0.67084(17)
C71_4 C 0.3186(3) 0.6157(3) 0.29896(18)
H30_4 H 0.356967 0.606104 0.316959
C72_2 C 0.5761(3) 0.1634(3) 0.21122(18)
O25_2 O 0.6704(3) 0.1074(2) 0.2308(2)
C73_2 C 0.5551(3) 0.2121(3) 0.20393(17)
H31_2 H 0.588058 0.237770 0.209270
C74_2 C 0.6524(3) 0.1502(3) 0.2260(2)
C75_2 C 0.5039(3) 0.7659(2) 0.19050(17)
H32_4 H 0.491528 0.733061 0.184018
C76_4 C 0.1781(3) 0.2126(3) 0.62138(16)
C77_4 C 0.3776(3) 0.2006(3) 0.63610(17)
H33_4 H 0.412235 0.188205 0.623062
C78_4 C 0.0762(3) 0.8166(3) 0.61446(19)
H34_4 H 0.044433 0.834180 0.626639
C80_4 C 0.0574(3) 0.1840(3) 0.61969(19)
H35_4 H 0.026001 0.166150 0.631939
C81_4 C 0.3437(3) 0.2401(3) 0.69051(17)
H36_4 H 0.356408 0.254806 0.714194
C82_2 C 0.5930(3) 0.8245(3) 0.2158(2)
C83_4 C 0.4842(3) 0.2235(3) 0.18844(17)
H37_4 H 0.470353 0.256165 0.182478
C84_4 C 0.1892(3) 0.3814(3) 0.2691(2)
H38_4 H 0.147813 0.400242 0.266413
C86_4 C 0.4591(3) 0.1359(3) 0.18874(19)
H40_4 H 0.427248 0.109787 0.182663
C88_4 C 0.1977(3) 0.6089(3) 0.27174(19)
H42_4 H 0.153287 0.594535 0.271206
C89_4 C 0.1975(3) 0.3456(3) 0.2427(2)
H43_4 H 0.160463 0.340127 0.222788
C90_4 C 0.2073(3) 0.6439(3) 0.2436(2)
H44_4 H 0.169358 0.652583 0.225043
C93_4 C 0.4729(3) 0.8512(3) 0.1935(2)
H46_4 H 0.439577 0.876506 0.187907
C94_4 C 0.3284(3) 0.6502(3) 0.27134(18)
H47_4 H 0.373489 0.663388 0.271533
C95_4 C 0.0181(4) 0.7599(3) 0.07523(18)
C97_2 C 0.5283(3) 0.1259(3) 0.2039(2)
H48_2 H 0.542536 0.093124 0.209101
C98_2 C 0.6676(4) 0.8400(3) 0.2311(3)
C102_4 C 0.3040(4) 0.3632(3) 0.3014(2)
H50_4 H 0.341829 0.369957 0.320594
C103_4 C 0.3102(4) 0.3268(3) 0.2747(2)
H51_4 H 0.351570 0.307881 0.277490
O26_2 O 0.6830(3) 0.8810(3) 0.2451(4)
C104_4 C 0.1214(4) 0.2306(4) 0.0771(2)
H52_4 H 0.157248 0.235412 0.062670
C105_4 C 0.0837(4) 0.1998(4) 0.1327(2)
H53_4 H 0.094296 0.186661 0.157038
C106_4 C 0.0147(4) 0.2035(4) 0.1150(2)
C108_2 C 0.5417(4) 0.8638(3) 0.2098(3)
H55_2 H 0.553933 0.896569 0.216434
C109_4 C 0.0511(4) 0.2385(4) 0.0598(2)
H56_4 H 0.040899 0.252569 0.035715
C111_4 C 0.1200(5) 0.8051(4) 0.0998(3)
H60_4 H 0.140182 0.836269 0.097594
C112_4 C 0.1374(5) 0.7210(4) 0.0982(3)
H61_4 H 0.168423 0.694010 0.101145
C113_4 C 0.0654(5) 0.7156(5) 0.0797(3)
H62_4 H 0.048418 0.684634 0.070583
H63_4 H 0.018355 0.504801 0.394812
C116_4 C 0.0437(6) 0.7988(5) 0.0897(5)
H69_4 H 0.013689 0.824585 0.094320
H71_2 H 0.707966 0.0997677 0.21544
O15_4 O 0.7189(2) 0.7801(2) 0.50834(15)
O16_4 O 0.8788(2) 0.2037(2) 0.07687(14)
O17_4 O 0.7025(2) 0.2193(2) 0.50854(15)
H2_4 H 0.662837 0.212164 0.497382
O20_4 O 0.7498(3) 0.8439(3) 0.47350(18)
O22_4 O 0.7335(3) 0.1512(3) 0.47991(19)
N9_4 N 0.9231(3) 0.4942(2) 0.3137(2)
C28_4 C 0.8361(3) 0.2289(3) 0.55218(18)
H9_4 H 0.801443 0.251549 0.556518
C36_4 C 0.8369(3) 0.8102(3) 0.52186(17)
O23_4 O 0.9036(3) 0.2630(3) 0.03662(19)
O24_4 O 0.9217(3) 0.7209(3) 0.03619(19)
C48_4 C 0.8532(3) 0.7751(3) 0.55093(18)
H20_4 H 0.817391 0.754777 0.557201
C51_4 C 0.8191(3) 0.1892(3) 0.52606(18)
C54_4 C 0.9567(3) 0.2000(2) 0.56551(17)
C64_4 C 0.9058(3) 0.2336(3) 0.57138(18)
H26_4 H 0.917455 0.259840 0.588282
C68_4 C 0.9753(3) 0.7998(3) 0.56082(17)
C70_4 C 0.9207(3) 0.7702(3) 0.57038(18)
H29_4 H 0.930280 0.747072 0.589957
C79_4 C 0.9990(3) 0.2254(3) 0.07875(17)
C85_4 C 0.9590(4) 0.8346(3) 0.5323(2)
H39_4 H 0.994409 0.855258 0.525962
C87_4 C 0.8906(4) 0.8389(3) 0.5130(2)
H41_4 H 0.881013 0.862052 0.493392
C91_4 C 0.8691(4) 0.1567(3) 0.5218(2)
H45_4 H 0.857999 0.129962 0.505315
C92_4 C 0.7631(3) 0.8132(3) 0.4997(2)
C96_4 C 0.9413(4) 0.7547(4) 0.0580(2)
C99_4 C 0.9213(3) 0.2317(3) 0.0615(2)
C100_4 C 0.7471(4) 0.1843(3) 0.5030(2)
C101_4 C 0.9379(4) 0.1612(3) 0.5413(2)
H49_4 H 0.971632 0.137425 0.537757
H54_4 H 0.978171 0.191648 0.126940
C107_4 C 0.9793(4) 0.4969(3) 0.3375(3)
C110_4 C 0.9248(8) 0.4933(4) 0.2733(3)
H57_4 H 0.971642 0.484654 0.269079
H58_4 H 0.891522 0.468967 0.261392
H59_4 H 0.912292 0.525603 0.262705
C114_4 C 0.9723(5) 0.5002(4) 0.3799(3)
H64_4 H 0.942394 0.527882 0.383770
H65_4 H 0.951686 0.469885 0.387479
C115_4 C 0.8472(5) 0.4954(4) 0.3252(5)
H66_4 H 0.844994 0.521862 0.343087
H67_4 H 0.812352 0.501010 0.303069
H68_4 H 0.838016 0.464120 0.336524
H70_4 H 0.737224 0.825927 0.449039
H72_4 H 0.888446 0.699062 0.0473118
O10_3 O 0.1956(2) 0.3133(2) 0.73391(13)
C72_3 C 0.0761(3) 0.3366(3) 0.71122(18)
O25_3 O 0.1704(3) 0.3926(2) 0.7308(2)
C73_3 C 0.0551(3) 0.2879(3) 0.70393(17)
H31_3 H 0.088058 0.262230 0.709270
C74_3 C 0.1524(3) 0.3498(3) 0.7260(2)
C97_3 C 0.0283(3) 0.3741(3) 0.7039(2)
H48_3 H 0.042536 0.406876 0.709101
H71_3 H 0.207966 0.400232 0.71544
O12_3 O 0.2149(2) 0.69422(19) 0.73088(14)
H1_3 H 0.195301 0.721299 0.726392
C44_3 C 0.0743(3) 0.7227(2) 0.70511(18)
H16_3 H 0.108609 0.747610 0.707498
C75_3 C 0.0039(3) 0.7341(2) 0.69050(17)
C82_3 C 0.0930(3) 0.6755(3) 0.7158(2)
C98_3 C 0.1676(4) 0.6600(3) 0.7311(3)
O26_3 O 0.1830(3) 0.6190(3) 0.7451(4)
C108_3 C 0.0417(4) 0.6362(3) 0.7098(3)
H55_3 H 0.053933 0.603431 0.716434
O12_4 O 0.7851(2) 0.30578(19) 0.26912(14)
H1_4 H 0.804699 0.278701 0.273608
C44_4 C 0.9257(3) 0.2773(2) 0.29489(18)
H16_4 H 0.891391 0.252390 0.292502
C75_4 C 0.9961(3) 0.2659(2) 0.30950(17)
C82_4 C 0.9070(3) 0.3245(3) 0.2842(2)
C98_4 C 0.8324(4) 0.3400(3) 0.2689(3)
O26_4 O 0.8170(3) 0.3810(3) 0.2549(4)
C108_4 C 0.9583(4) 0.3638(3) 0.2902(3)
H55_4 H 0.946067 0.396569 0.283566
O10_4 O 0.8044(2) 0.6867(2) 0.26609(13)
C72_4 C 0.9239(3) 0.6634(3) 0.28878(18)
O25_4 O 0.8296(3) 0.6074(2) 0.2692(2)
C73_4 C 0.9449(3) 0.7121(3) 0.29607(17)
H31_4 H 0.911942 0.737770 0.290730
C74_4 C 0.8476(3) 0.6502(3) 0.2740(2)
C97_4 C 0.9717(3) 0.6259(3) 0.2961(2)
H48_4 H 0.957464 0.593124 0.290899
H71_4 H 0.792034 0.599768 0.28456
loop_
_geom_bond_atom_site_label_1
_geom_bond_atom_site_label_2
_geom_bond_site_symmetry_1
_geom_bond_site_symmetry_2
Cu11 O11 1_555 1_555
N10 Cu6 1_555 1_555
Cu14 O13 1_555 1_555
Cu16 O14 1_555 1_555
O9 C37 1_555 1_555
N6 C4 1_555 1_555
N8 C4 1_555 1_555
C4 C8 1_555 1_555
C18 N8 1_555 1_555
C25 N6 1_555 1_555
C28 H9 1_555 1_555
C37 C69 1_555 1_555
C39 C18 1_555 1_555
C51 C28 1_555 1_555
C52 H21 1_555 1_555
C54 C39 1_555 1_555
C56 C52 1_555 1_555
C57 C56 1_555 1_555
H22 C57 1_555 1_555
C63 H25 1_555 1_555
C64 C28 1_555 1_555
H26 C64 1_555 1_555
C69 C77 1_555 1_555
C76 C25 1_555 1_555
C77 C57 1_555 1_555
H33 C77 1_555 1_555
C80 C39 1_555 1_555
H35 C80 1_555 1_555
C81 C52 1_555 1_555
H36 C81 1_555 1_555
C91 C51 1_555 1_555
H45 C91 1_555 1_555
C100 O17 1_555 1_555
C101 C54 1_555 1_555
H49 C101 1_555 1_555
Cu10 N6 1_555 1_555
Cu12 N8 1_555 1_555
C18 C25 1_555 1_555
C51 C100 1_555 1_555
C54 C64 1_555 1_555
C56 C76 1_555 1_555
C63 C76 1_555 1_555
C63 C80 1_555 1_555
C69 C81 1_555 1_555
C91 C101 1_555 1_555
Cu2 O1 1_555 1_555
Cu3 O16 1_555 1_555
Cu4 N1 1_555 1_555
O1 C10 1_555 1_555
O5 Cu2 1_555 1_555
O7 Cu1 1_555 1_555
O8 Cu1 1_555 1_555
N1 C2 1_555 1_555
N5 C2 1_555 1_555
O16 C99 1_555 1_555
O18 Cu1 1_555 1_555
H3 O18 1_555 1_555
C2 C21 1_555 1_555
O19 Cu2 1_555 1_555
C9 C10 1_555 1_555
C10 O8 1_555 1_555
C11 N1 1_555 1_555
N9 C107 1_555 1_555
C14 N5 1_555 1_555
C21 C89 1_555 1_555
C23 H7 1_555 1_555
C24 C26 1_555 1_555
C26 O5 1_555 1_555
H13 C34 1_555 1_555
C35 C53 1_555 1_555
C42 C23 1_555 1_555
H15 C42 1_555 1_555
O23 C99 1_555 1_555
C45 C9 1_555 1_555
H17 C45 1_555 1_555
C46 C9 1_555 1_555
H18 C46 1_555 1_555
C53 C11 1_555 1_555
C55 C14 1_555 1_555
C65 C55 1_555 1_555
C79 C99 1_555 1_555
C83 C65 1_555 1_555
H37 C83 1_555 1_555
C84 C24 1_555 1_555
H38 C84 1_555 1_555
C86 C65 1_555 1_555
H40 C86 1_555 1_555
C89 C84 1_555 1_555
H43 C89 1_555 1_555
C102 C24 1_555 1_555
H50 C102 1_555 1_555
C103 C21 1_555 1_555
H51 C103 1_555 1_555
C104 C35 1_555 1_555
H52 C104 1_555 1_555
C105 C35 1_555 1_555
H53 C105 1_555 1_555
C106 C79 1_555 1_555
H54 C106 1_555 1_555
C107 O19 1_555 1_555
C109 C79 1_555 1_555
H56 C109 1_555 1_555
C110 N9 1_555 1_555
H57 C110 1_555 1_555
H58 C110 1_555 1_555
C115 N9 1_555 1_555
H68 C115 1_555 1_555
Cu7 N5 1_555 1_555
O27 Cu4 1_555 1_555
N11 Cu3 1_555 1_555
O28 Cu7 1_555 1_555
O7 C26 1_555 1_555
C11 C14 1_555 1_555
C23 C55 1_555 1_555
C30 C45 1_555 1_555
C34 C46 1_555 1_555
C42 C53 1_555 1_555
C102 C103 1_555 1_555
C104 C109 1_555 1_555
C105 C106 1_555 1_555
N3 C1 1_555 1_555
N4 C1 1_555 1_555
C1 C3 1_555 1_555
C12 N4 1_555 1_555
C13 N3 1_555 1_555
C27 C3 1_555 1_555
H8 C27 1_555 1_555
C36 C48 1_555 1_555
C40 H14 1_555 1_555
C47 H19 1_555 1_555
C48 H20 1_555 1_555
C49 C40 1_555 1_555
C50 C49 1_555 1_555
C58 C13 1_555 1_555
C59 C47 1_555 1_555
C61 C47 1_555 1_555
H24 C61 1_555 1_555
C62 C12 1_555 1_555
C66 C40 1_555 1_555
H27 C66 1_555 1_555
C67 C62 1_555 1_555
H28 C67 1_555 1_555
C68 C58 1_555 1_555
C70 C48 1_555 1_555
H29 C70 1_555 1_555
C78 C58 1_555 1_555
H34 C78 1_555 1_555
C85 C68 1_555 1_555
H39 C85 1_555 1_555
C87 C36 1_555 1_555
Cu8 N4 1_555 1_555
O30 Cu8 1_555 1_555
C12 C13 1_555 1_555
C49 C61 1_555 1_555
C59 C62 1_555 1_555
C59 C66 1_555 1_555
C67 C78 1_555 1_555
C68 C70 1_555 1_555
C85 C87 1_555 1_555
O3 C38 1_555 1_555
N2 C6 1_555 1_555
N7 C7 1_555 1_555
C5 C19 1_555 1_555
O20 C92 1_555 1_555
C6 C7 1_555 1_555
C7 C41 1_555 1_555
O21 C96 1_555 1_555
C15 C29 1_555 1_555
C16 N2 1_555 1_555
C17 C38 1_555 1_555
C19 H5 1_555 1_555
C20 O4 1_555 1_555
C22 C19 1_555 1_555
H6 C22 1_555 1_555
C29 C6 1_555 1_555
C31 C29 1_555 1_555
H11 C31 1_555 1_555
C32 C5 1_555 1_555
H12 C32 1_555 1_555
C33 C16 1_555 1_555
C38 O2 1_555 1_555
C41 C43 1_555 1_555
C43 C111 1_555 1_555
O24 C96 1_555 1_555
C60 C31 1_555 1_555
H23 C60 1_555 1_555
C71 C17 1_555 1_555
H30 C71 1_555 1_555
C88 C17 1_555 1_555
H42 C88 1_555 1_555
C90 C33 1_555 1_555
H44 C90 1_555 1_555
C93 C15 1_555 1_555
H46 C93 1_555 1_555
C94 C33 1_555 1_555
H47 C94 1_555 1_555
C95 C96 1_555 1_555
C111 H60 1_555 1_555
C112 C43 1_555 1_555
H61 C112 1_555 1_555
C113 C95 1_555 1_555
H62 C113 1_555 1_555
H63 C114 1_555 1_555
H64 C114 1_555 1_555
C116 C95 1_555 1_555
H69 C116 1_555 1_555
Cu9 N7 1_555 1_555
N12 Cu5 1_555 1_555
O29 Cu9 1_555 1_555
Cu13 N2 1_555 1_555
Cu15 O21 1_555 1_555
O6 C20 1_555 1_555
N7 C16 1_555 1_555
C5 C20 1_555 1_555
C41 C60 1_555 1_555
C71 C94 1_555 1_555
C88 C90 1_555 1_555
C111 C116 1_555 1_555
C112 C113 1_555 1_555
O20 H70 1_555 1_555
O24 H72 1_555 1_555
Cu3_2 O16_2 1_555 1_555
O15_2 C92_2 1_555 1_555
O16_2 C99_2 1_555 1_555
O17_2 H2_2 1_555 1_555
O20_2 C92_2 1_555 1_555
O21_2 C96_2 1_555 1_555
O22_2 C100_2 1_555 1_555
N9_2 C107_2 1_555 1_555
C28_2 H9_2 1_555 1_555
C36_2 C48_2 1_555 1_555
O23_2 C99_2 1_555 1_555
O24_2 C96_2 1_555 1_555
C48_2 H20_2 1_555 1_555
C51_2 C28_2 1_555 1_555
C64_2 C28_2 1_555 1_555
H26_2 C64_2 1_555 1_555
C70_2 C48_2 1_555 1_555
H29_2 C70_2 1_555 1_555
C79_2 C99_2 1_555 1_555
C85_2 C68_2 1_555 1_555
H39_2 C85_2 1_555 1_555
C87_2 C36_2 1_555 1_555
H41_2 C87_2 1_555 1_555
C91_2 C51_2 1_555 1_555
H45_2 C91_2 1_555 1_555
C92_2 C36_2 1_555 1_555
C100_2 O17_2 1_555 1_555
C101_2 C54_2 1_555 1_555
H49_2 C101_2 1_555 1_555
C110_2 N9_2 1_555 1_555
H57_2 C110_2 1_555 1_555
H58_2 C110_2 1_555 1_555
H59_2 C110_2 1_555 1_555
C114_2 C107_2 1_555 1_555
H64_2 C114_2 1_555 1_555
H65_2 C114_2 1_555 1_555
C115_2 N9_2 1_555 1_555
H66_2 C115_2 1_555 1_555
H67_2 C115_2 1_555 1_555
H68_2 C115_2 1_555 1_555
N11_2 Cu3_2 1_555 1_555
Cu15_2 O21_2 1_555 1_555
C51_2 C100_2 1_555 1_555
C54_2 C64_2 1_555 1_555
C68_2 C70_2 1_555 1_555
C85_2 C87_2 1_555 1_555
C91_2 C101_2 1_555 1_555
O20_2 H70_2 1_555 1_555
O24_2 H72_2 1_555 1_555
Cu1_2 O3_2 1_555 1_555
Cu2_2 O1_2 1_555 1_555
Cu4_2 N1_2 1_555 1_555
O1_2 C10_2 1_555 1_555
O2_2 Cu2_2 1_555 1_555
O3_2 C38_2 1_555 1_555
O4_2 Cu2_2 1_555 1_555
O5_2 Cu2_2 1_555 1_555
O6_2 Cu1_2 1_555 1_555
O7_2 Cu1_2 1_555 1_555
O8_2 Cu1_2 1_555 1_555
O9_2 C37_2 1_555 1_555
N1_2 C2_2 1_555 1_555
N2_2 C6_2 1_555 1_555
O10 C74 1_555 1_555
N3_2 C1_2 1_555 1_555
O11_2 C37_2 1_555 1_555
N4_2 C1_2 1_555 1_555
N5_2 C2_2 1_555 1_555
O12 H1 1_555 1_555
N6_2 C4_2 1_555 1_555
N7_2 C7_2 1_555 1_555
O13_2 C50_2 1_555 1_555
N8_2 C4_2 1_555 1_555
O14_2 C50_2 1_555 1_555
O18_2 Cu1_2 1_555 1_555
H3_2 O18_2 1_555 1_555
H4_2 O18_2 1_555 1_555
C1_2 C3_2 1_555 1_555
C2_2 C21_2 1_555 1_555
O19_2 Cu2_2 1_555 1_555
C3_2 C22_2 1_555 1_555
C4_2 C8_2 1_555 1_555
C5_2 C19_2 1_555 1_555
C6_2 C7_2 1_555 1_555
C7_2 C41_2 1_555 1_555
C8_2 C30_2 1_555 1_555
C9_2 C10_2 1_555 1_555
C10_2 O8_2 1_555 1_555
C11_2 N1_2 1_555 1_555
C12_2 N4_2 1_555 1_555
C13_2 N3_2 1_555 1_555
C14_2 N5_2 1_555 1_555
C15_2 C29_2 1_555 1_555
C16_2 N2_2 1_555 1_555
C17_2 C38_2 1_555 1_555
C18_2 N8_2 1_555 1_555
C19_2 H5_2 1_555 1_555
C20_2 O4_2 1_555 1_555
C21_2 C89_2 1_555 1_555
C22_2 C19_2 1_555 1_555
H6_2 C22_2 1_555 1_555
C23_2 H7_2 1_555 1_555
C24_2 C26_2 1_555 1_555
C25_2 N6_2 1_555 1_555
C26_2 O5_2 1_555 1_555
C27_2 C3_2 1_555 1_555
H8_2 C27_2 1_555 1_555
C29_2 C6_2 1_555 1_555
C30_2 H10_2 1_555 1_555
C31_2 C29_2 1_555 1_555
H11_2 C31_2 1_555 1_555
C32_2 C5_2 1_555 1_555
H12_2 C32_2 1_555 1_555
C33_2 C16_2 1_555 1_555
C34_2 C8_2 1_555 1_555
H13_2 C34_2 1_555 1_555
C35_2 C53_2 1_555 1_555
C37_2 C69_2 1_555 1_555
C38_2 O2_2 1_555 1_555
C39_2 C18_2 1_555 1_555
C40_2 H14_2 1_555 1_555
C41_2 C43_2 1_555 1_555
C42_2 C23_2 1_555 1_555
H15_2 C42_2 1_555 1_555
C43_2 C111_2 1_555 1_555
C44 H16 1_555 1_555
C45_2 C9_2 1_555 1_555
H17_2 C45_2 1_555 1_555
C46_2 C9_2 1_555 1_555
H18_2 C46_2 1_555 1_555
C47_2 H19_2 1_555 1_555
C49_2 C40_2 1_555 1_555
C50_2 C49_2 1_555 1_555
C52_2 H21_2 1_555 1_555
C53_2 C11_2 1_555 1_555
C55_2 C14_2 1_555 1_555
C56_2 C52_2 1_555 1_555
C57_2 C56_2 1_555 1_555
H22_2 C57_2 1_555 1_555
C58_2 C13_2 1_555 1_555
C59_2 C47_2 1_555 1_555
C60_2 C31_2 1_555 1_555
H23_2 C60_2 1_555 1_555
C61_2 C47_2 1_555 1_555
H24_2 C61_2 1_555 1_555
C62_2 C12_2 1_555 1_555
C63_2 H25_2 1_555 1_555
C65_2 C55_2 1_555 1_555
C66_2 C40_2 1_555 1_555
H27_2 C66_2 1_555 1_555
C67_2 C62_2 1_555 1_555
H28_2 C67_2 1_555 1_555
C69_2 C77_2 1_555 1_555
C71_2 C17_2 1_555 1_555
H30_2 C71_2 1_555 1_555
C72 C73 1_555 1_555
O25 C74 1_555 1_555
C73 H31 1_555 1_555
C74 C72 1_555 1_555
C75 C15_2 1_555 1_555
H32_2 C75 1_555 1_555
C76_2 C25_2 1_555 1_555
C77_2 C57_2 1_555 1_555
H33_2 C77_2 1_555 1_555
C78_2 C58_2 1_555 1_555
H34_2 C78_2 1_555 1_555
C80_2 C39_2 1_555 1_555
H35_2 C80_2 1_555 1_555
C81_2 C52_2 1_555 1_555
H36_2 C81_2 1_555 1_555
C82 C44 1_555 1_555
C83_2 C65_2 1_555 1_555
H37_2 C83_2 1_555 1_555
C84_2 C24_2 1_555 1_555
H38_2 C84_2 1_555 1_555
C86_2 C65_2 1_555 1_555
H40_2 C86_2 1_555 1_555
C88_2 C17_2 1_555 1_555
H42_2 C88_2 1_555 1_555
C89_2 C84_2 1_555 1_555
H43_2 C89_2 1_555 1_555
C90_2 C33_2 1_555 1_555
H44_2 C90_2 1_555 1_555
C93_2 C15_2 1_555 1_555
H46_2 C93_2 1_555 1_555
C94_2 C33_2 1_555 1_555
H47_2 C94_2 1_555 1_555
C97 C72 1_555 1_555
H48 C97 1_555 1_555
C98 O12 1_555 1_555
C102_2 C24_2 1_555 1_555
H50_2 C102_2 1_555 1_555
C103_2 C21_2 1_555 1_555
H51_2 C103_2 1_555 1_555
O26 C98 1_555 1_555
C104_2 C35_2 1_555 1_555
H52_2 C104_2 1_555 1_555
C105_2 C35_2 1_555 1_555
H53_2 C105_2 1_555 1_555
C108 C82 1_555 1_555
H55 C108 1_555 1_555
H56_2 C109_2 1_555 1_555
C111_2 H60_2 1_555 1_555
C112_2 C43_2 1_555 1_555
H61_2 C112_2 1_555 1_555
C113_2 C95_2 1_555 1_555
H62_2 C113_2 1_555 1_555
C116_2 C95_2 1_555 1_555
H69_2 C116_2 1_555 1_555
Cu5_2 N3_2 1_555 1_555
Cu6_2 O9_2 1_555 1_555
Cu7_2 N5_2 1_555 1_555
Cu8_2 N4_2 1_555 1_555
Cu9_2 N7_2 1_555 1_555
Cu10_2 N6_2 1_555 1_555
Cu11_2 O11_2 1_555 1_555
N10_2 Cu6_2 1_555 1_555
O27_2 Cu4_2 1_555 1_555
O28_2 Cu7_2 1_555 1_555
O29_2 Cu9_2 1_555 1_555
O30_2 Cu8_2 1_555 1_555
Cu13_2 N2_2 1_555 1_555
Cu14_2 O13_2 1_555 1_555
Cu16_2 O14_2 1_555 1_555
O6_2 C20_2 1_555 1_555
O7_2 C26_2 1_555 1_555
N7_2 C16_2 1_555 1_555
C5_2 C20_2 1_555 1_555
C11_2 C14_2 1_555 1_555
C12_2 C13_2 1_555 1_555
C18_2 C25_2 1_555 1_555
C23_2 C55_2 1_555 1_555
C27_2 C32_2 1_555 1_555
C30_2 C45_2 1_555 1_555
C34_2 C46_2 1_555 1_555
C41_2 C60_2 1_555 1_555
C42_2 C53_2 1_555 1_555
C44 C75 1_555 1_555
C49_2 C61_2 1_555 1_555
C56_2 C76_2 1_555 1_555
C59_2 C62_2 1_555 1_555
C59_2 C66_2 1_555 1_555
C63_2 C76_2 1_555 1_555
C63_2 C80_2 1_555 1_555
C67_2 C78_2 1_555 1_555
C69_2 C81_2 1_555 1_555
C71_2 C94_2 1_555 1_555
C73 C83_2 1_555 1_555
C82 C98 1_555 1_555
C86_2 C97 1_555 1_555
C88_2 C90_2 1_555 1_555
C93_2 C108 1_555 1_555
C102_2 C103_2 1_555 1_555
C104_2 C109_2 1_555 1_555
C105_2 C106_2 1_555 1_555
C111_2 C116_2 1_555 1_555
C112_2 C113_2 1_555 1_555
O25 H71 1_555 1_555
O3_3 C38_3 1_555 1_555
N10 C6_3 1_555 1_555
N7_3 C7_3 1_555 1_555
C5_3 C19_3 1_555 1_555
O20_3 C92_3 1_555 1_555
C6_3 C7_3 1_555 1_555
C7_3 C41_3 1_555 1_555
O30_2 C96_3 1_555 1_555
C15_3 C29_3 1_555 1_555
C16_3 N10 1_555 1_555
C17_3 C38_3 1_555 1_555
C19_3 H5_3 1_555 1_555
C20_3 O4_3 1_555 1_555
C22_3 C19_3 1_555 1_555
H6_3 C22_3 1_555 1_555
C29_3 C6_3 1_555 1_555
C31_3 C29_3 1_555 1_555
H11_3 C31_3 1_555 1_555
C32_3 C5_3 1_555 1_555
H12_3 C32_3 1_555 1_555
C33_3 C16_3 1_555 1_555
C38_3 O2_3 1_555 1_555
C41_3 C43_3 1_555 1_555
C43_3 C111_3 1_555 1_555
O24_3 C96_3 1_555 1_555
C60_3 C31_3 1_555 1_555
H23_3 C60_3 1_555 1_555
C71_3 C17_3 1_555 1_555
H30_3 C71_3 1_555 1_555
C88_3 C17_3 1_555 1_555
H42_3 C88_3 1_555 1_555
C90_3 C33_3 1_555 1_555
H44_3 C90_3 1_555 1_555
C93_3 C15_3 1_555 1_555
H46_3 C93_3 1_555 1_555
C94_3 C33_3 1_555 1_555
H47_3 C94_3 1_555 1_555
C95_3 C96_3 1_555 1_555
C111_3 H60_3 1_555 1_555
C112_3 C43_3 1_555 1_555
H61_3 C112_3 1_555 1_555
C113_3 C95_3 1_555 1_555
H62_3 C113_3 1_555 1_555
H63_3 C114_3 1_555 1_555
H64_3 C114_3 1_555 1_555
C116_3 C95_3 1_555 1_555
H69_3 C116_3 1_555 1_555
Cu16_2 N7_3 1_555 1_555
O6_3 C20_3 1_555 1_555
N7_3 C16_3 1_555 1_555
C5_3 C20_3 1_555 1_555
C41_3 C60_3 1_555 1_555
C71_3 C94_3 1_555 1_555
C88_3 C90_3 1_555 1_555
C111_3 C116_3 1_555 1_555
C112_3 C113_3 1_555 1_555
O20_3 H70_3 1_555 1_555
O24_3 H72_3 1_555 1_555
N3_3 C1_3 1_555 1_555
N4_3 C1_3 1_555 1_555
C1_3 C3_3 1_555 1_555
C12_3 N4_3 1_555 1_555
C13_3 N3_3 1_555 1_555
C27_3 C3_3 1_555 1_555
H8_3 C27_3 1_555 1_555
C36_3 C48_3 1_555 1_555
C40_3 H14_3 1_555 1_555
C47_3 H19_3 1_555 1_555
C48_3 H20_3 1_555 1_555
C49_3 C40_3 1_555 1_555
C50_3 C49_3 1_555 1_555
C58_3 C13_3 1_555 1_555
C59_3 C47_3 1_555 1_555
C61_3 C47_3 1_555 1_555
H24_3 C61_3 1_555 1_555
C62_3 C12_3 1_555 1_555
C66_3 C40_3 1_555 1_555
H27_3 C66_3 1_555 1_555
C67_3 C62_3 1_555 1_555
H28_3 C67_3 1_555 1_555
C68_3 C58_3 1_555 1_555
C70_3 C48_3 1_555 1_555
H29_3 C70_3 1_555 1_555
C78_3 C58_3 1_555 1_555
H34_3 C78_3 1_555 1_555
C85_3 C68_3 1_555 1_555
H39_3 C85_3 1_555 1_555
C87_3 C36_3 1_555 1_555
Cu15_2 N4_3 1_555 1_555
C12_3 C13_3 1_555 1_555
C49_3 C61_3 1_555 1_555
C59_3 C62_3 1_555 1_555
C59_3 C66_3 1_555 1_555
C67_3 C78_3 1_555 1_555
C68_3 C70_3 1_555 1_555
C85_3 C87_3 1_555 1_555
Cu2_3 O1_3 1_555 1_555
Cu10_2 O16_3 1_555 1_555
Cu11_2 N1_3 1_555 1_555
O1_3 C10_3 1_555 1_555
O5_3 Cu2_3 1_555 1_555
O7_3 Cu1_3 1_555 1_555
O8_3 Cu1_3 1_555 1_555
N1_3 C2_3 1_555 1_555
N5_3 C2_3 1_555 1_555
O16_3 C99_3 1_555 1_555
O18_3 Cu1_3 1_555 1_555
H3_3 O18_3 1_555 1_555
C2_3 C21_3 1_555 1_555
O19_3 Cu2_3 1_555 1_555
C9_3 C10_3 1_555 1_555
C10_3 O8_3 1_555 1_555
C11_3 N1_3 1_555 1_555
N9_3 C107_3 1_555 1_555
C14_3 N5_3 1_555 1_555
C21_3 C89_3 1_555 1_555
C23_3 H7_3 1_555 1_555
C24_3 C26_3 1_555 1_555
C26_3 O5_3 1_555 1_555
H13_3 C34_3 1_555 1_555
C35_3 C53_3 1_555 1_555
C42_3 C23_3 1_555 1_555
H15_3 C42_3 1_555 1_555
O23_3 C99_3 1_555 1_555
C45_3 C9_3 1_555 1_555
H17_3 C45_3 1_555 1_555
C46_3 C9_3 1_555 1_555
H18_3 C46_3 1_555 1_555
C53_3 C11_3 1_555 1_555
C55_3 C14_3 1_555 1_555
C65_3 C55_3 1_555 1_555
C79_3 C99_3 1_555 1_555
C83_3 C65_3 1_555 1_555
H37_3 C83_3 1_555 1_555
C84_3 C24_3 1_555 1_555
H38_3 C84_3 1_555 1_555
C86_3 C65_3 1_555 1_555
H40_3 C86_3 1_555 1_555
C89_3 C84_3 1_555 1_555
H43_3 C89_3 1_555 1_555
C102_3 C24_3 1_555 1_555
H50_3 C102_3 1_555 1_555
C103_3 C21_3 1_555 1_555
H51_3 C103_3 1_555 1_555
C104_3 C35_3 1_555 1_555
H52_3 C104_3 1_555 1_555
C105_3 C35_3 1_555 1_555
H53_3 C105_3 1_555 1_555
C106_3 C79_3 1_555 1_555
H54_3 C106_3 1_555 1_555
C107_3 O19_3 1_555 1_555
C109_3 C79_3 1_555 1_555
H56_3 C109_3 1_555 1_555
C110_3 N9_3 1_555 1_555
H57_3 C110_3 1_555 1_555
H58_3 C110_3 1_555 1_555
C115_3 N9_3 1_555 1_555
H68_3 C115_3 1_555 1_555
Cu14 N5_3 1_555 1_555
O7_3 C26_3 1_555 1_555
C11_3 C14_3 1_555 1_555
C23_3 C55_3 1_555 1_555
C30_3 C45_3 1_555 1_555
C34_3 C46_3 1_555 1_555
C42_3 C53_3 1_555 1_555
C102_3 C103_3 1_555 1_555
C104_3 C109_3 1_555 1_555
C105_3 C106_3 1_555 1_555
O9_3 C37_3 1_555 1_555
N11_2 C4_3 1_555 1_555
N12 C4_3 1_555 1_555
C4_3 C8_3 1_555 1_555
C18_3 N12 1_555 1_555
C25_3 N11_2 1_555 1_555
C28_3 H9_3 1_555 1_555
C37_3 C69_3 1_555 1_555
C39_3 C18_3 1_555 1_555
C51_3 C28_3 1_555 1_555
C52_3 H21_3 1_555 1_555
C54_3 C39_3 1_555 1_555
C56_3 C52_3 1_555 1_555
C57_3 C56_3 1_555 1_555
H22_3 C57_3 1_555 1_555
C63_3 H25_3 1_555 1_555
C64_3 C28_3 1_555 1_555
H26_3 C64_3 1_555 1_555
C69_3 C77_3 1_555 1_555
C76_3 C25_3 1_555 1_555
C77_3 C57_3 1_555 1_555
H33_3 C77_3 1_555 1_555
C80_3 C39_3 1_555 1_555
H35_3 C80_3 1_555 1_555
C81_3 C52_3 1_555 1_555
H36_3 C81_3 1_555 1_555
C91_3 C51_3 1_555 1_555
H45_3 C91_3 1_555 1_555
C100_3 O17_3 1_555 1_555
C101_3 C54_3 1_555 1_555
H49_3 C101_3 1_555 1_555
C18_3 C25_3 1_555 1_555
C51_3 C100_3 1_555 1_555
C54_3 C64_3 1_555 1_555
C56_3 C76_3 1_555 1_555
C63_3 C76_3 1_555 1_555
C63_3 C80_3 1_555 1_555
C69_3 C81_3 1_555 1_555
C91_3 C101_3 1_555 1_555
Cu1_4 O3_4 1_555 1_555
Cu2_4 O1_4 1_555 1_555
Cu11 N1_4 1_555 1_555
O1_4 C10_4 1_555 1_555
O2_4 Cu2_4 1_555 1_555
O3_4 C38_4 1_555 1_555
O4_4 Cu2_4 1_555 1_555
O5_4 Cu2_4 1_555 1_555
O6_4 Cu1_4 1_555 1_555
O7_4 Cu1_4 1_555 1_555
O8_4 Cu1_4 1_555 1_555
O9_4 C37_4 1_555 1_555
N1_4 C2_4 1_555 1_555
N10_2 C6_4 1_555 1_555
O10_2 C74_2 1_555 1_555
N3_4 C1_4 1_555 1_555
O27 C37_4 1_555 1_555
N4_4 C1_4 1_555 1_555
N5_4 C2_4 1_555 1_555
O12_2 H1_2 1_555 1_555
N11 C4_4 1_555 1_555
N7_4 C7_4 1_555 1_555
O28_2 C50_4 1_555 1_555
N12_2 C4_4 1_555 1_555
O29 C50_4 1_555 1_555
O18_4 Cu1_4 1_555 1_555
H3_4 O18_4 1_555 1_555
H4_4 O18_4 1_555 1_555
C1_4 C3_4 1_555 1_555
C2_4 C21_4 1_555 1_555
O19_4 Cu2_4 1_555 1_555
C3_4 C22_4 1_555 1_555
C4_4 C8_4 1_555 1_555
C5_4 C19_4 1_555 1_555
C6_4 C7_4 1_555 1_555
C7_4 C41_4 1_555 1_555
C8_4 C30_4 1_555 1_555
C9_4 C10_4 1_555 1_555
C10_4 O8_4 1_555 1_555
C11_4 N1_4 1_555 1_555
C12_4 N4_4 1_555 1_555
C13_4 N3_4 1_555 1_555
C14_4 N5_4 1_555 1_555
C15_4 C29_4 1_555 1_555
C16_4 N10_2 1_555 1_555
C17_4 C38_4 1_555 1_555
C18_4 N12_2 1_555 1_555
C19_4 H5_4 1_555 1_555
C20_4 O4_4 1_555 1_555
C21_4 C89_4 1_555 1_555
C22_4 C19_4 1_555 1_555
H6_4 C22_4 1_555 1_555
C23_4 H7_4 1_555 1_555
C24_4 C26_4 1_555 1_555
C25_4 N11 1_555 1_555
C26_4 O5_4 1_555 1_555
C27_4 C3_4 1_555 1_555
H8_4 C27_4 1_555 1_555
C29_4 C6_4 1_555 1_555
C30_4 H10_4 1_555 1_555
C31_4 C29_4 1_555 1_555
H11_4 C31_4 1_555 1_555
C32_4 C5_4 1_555 1_555
H12_4 C32_4 1_555 1_555
C33_4 C16_4 1_555 1_555
C34_4 C8_4 1_555 1_555
H13_4 C34_4 1_555 1_555
C35_4 C53_4 1_555 1_555
C37_4 C69_4 1_555 1_555
C38_4 O2_4 1_555 1_555
C39_4 C18_4 1_555 1_555
C40_4 H14_4 1_555 1_555
C41_4 C43_4 1_555 1_555
C42_4 C23_4 1_555 1_555
H15_4 C42_4 1_555 1_555
C43_4 C111_4 1_555 1_555
C44_2 H16_2 1_555 1_555
C45_4 C9_4 1_555 1_555
H17_4 C45_4 1_555 1_555
C46_4 C9_4 1_555 1_555
H18_4 C46_4 1_555 1_555
C47_4 H19_4 1_555 1_555
C49_4 C40_4 1_555 1_555
C50_4 C49_4 1_555 1_555
C52_4 H21_4 1_555 1_555
C53_4 C11_4 1_555 1_555
C55_4 C14_4 1_555 1_555
C56_4 C52_4 1_555 1_555
C57_4 C56_4 1_555 1_555
H22_4 C57_4 1_555 1_555
C58_4 C13_4 1_555 1_555
C59_4 C47_4 1_555 1_555
C60_4 C31_4 1_555 1_555
H23_4 C60_4 1_555 1_555
C61_4 C47_4 1_555 1_555
H24_4 C61_4 1_555 1_555
C62_4 C12_4 1_555 1_555
C63_4 H25_4 1_555 1_555
C65_4 C55_4 1_555 1_555
C66_4 C40_4 1_555 1_555
H27_4 C66_4 1_555 1_555
C67_4 C62_4 1_555 1_555
H28_4 C67_4 1_555 1_555
C69_4 C77_4 1_555 1_555
C71_4 C17_4 1_555 1_555
H30_4 C71_4 1_555 1_555
C72_2 C73_2 1_555 1_555
O25_2 C74_2 1_555 1_555
C73_2 H31_2 1_555 1_555
C74_2 C72_2 1_555 1_555
C75_2 C15_4 1_555 1_555
H32_4 C75_2 1_555 1_555
C76_4 C25_4 1_555 1_555
C77_4 C57_4 1_555 1_555
H33_4 C77_4 1_555 1_555
C78_4 C58_4 1_555 1_555
H34_4 C78_4 1_555 1_555
C80_4 C39_4 1_555 1_555
H35_4 C80_4 1_555 1_555
C81_4 C52_4 1_555 1_555
H36_4 C81_4 1_555 1_555
C82_2 C44_2 1_555 1_555
C83_4 C65_4 1_555 1_555
H37_4 C83_4 1_555 1_555
C84_4 C24_4 1_555 1_555
H38_4 C84_4 1_555 1_555
C86_4 C65_4 1_555 1_555
H40_4 C86_4 1_555 1_555
C88_4 C17_4 1_555 1_555
H42_4 C88_4 1_555 1_555
C89_4 C84_4 1_555 1_555
H43_4 C89_4 1_555 1_555
C90_4 C33_4 1_555 1_555
H44_4 C90_4 1_555 1_555
C93_4 C15_4 1_555 1_555
H46_4 C93_4 1_555 1_555
C94_4 C33_4 1_555 1_555
H47_4 C94_4 1_555 1_555
C97_2 C72_2 1_555 1_555
H48_2 C97_2 1_555 1_555
C98_2 O12_2 1_555 1_555
C102_4 C24_4 1_555 1_555
H50_4 C102_4 1_555 1_555
C103_4 C21_4 1_555 1_555
H51_4 C103_4 1_555 1_555
O26_2 C98_2 1_555 1_555
C104_4 C35_4 1_555 1_555
H52_4 C104_4 1_555 1_555
C105_4 C35_4 1_555 1_555
H53_4 C105_4 1_555 1_555
C108_2 C82_2 1_555 1_555
H55_2 C108_2 1_555 1_555
H56_4 C109_4 1_555 1_555
C111_4 H60_4 1_555 1_555
C112_4 C43_4 1_555 1_555
H61_4 C112_4 1_555 1_555
C113_4 C95_4 1_555 1_555
H62_4 C113_4 1_555 1_555
C116_4 C95_4 1_555 1_555
H69_4 C116_4 1_555 1_555
Cu12_2 N3_4 1_555 1_555
Cu13_2 O9_4 1_555 1_555
Cu14_2 N5_4 1_555 1_555
Cu15 N4_4 1_555 1_555
Cu16 N7_4 1_555 1_555
O6_4 C20_4 1_555 1_555
O7_4 C26_4 1_555 1_555
N7_4 C16_4 1_555 1_555
C5_4 C20_4 1_555 1_555
C11_4 C14_4 1_555 1_555
C12_4 C13_4 1_555 1_555
C18_4 C25_4 1_555 1_555
C23_4 C55_4 1_555 1_555
C27_4 C32_4 1_555 1_555
C30_4 C45_4 1_555 1_555
C34_4 C46_4 1_555 1_555
C41_4 C60_4 1_555 1_555
C42_4 C53_4 1_555 1_555
C44_2 C75_2 1_555 1_555
C49_4 C61_4 1_555 1_555
C56_4 C76_4 1_555 1_555
C59_4 C62_4 1_555 1_555
C59_4 C66_4 1_555 1_555
C63_4 C76_4 1_555 1_555
C63_4 C80_4 1_555 1_555
C67_4 C78_4 1_555 1_555
C69_4 C81_4 1_555 1_555
C71_4 C94_4 1_555 1_555
C73_2 C83_4 1_555 1_555
C82_2 C98_2 1_555 1_555
C86_4 C97_2 1_555 1_555
C88_4 C90_4 1_555 1_555
C93_4 C108_2 1_555 1_555
C102_4 C103_4 1_555 1_555
C104_4 C109_4 1_555 1_555
C105_4 C106_4 1_555 1_555
C111_4 C116_4 1_555 1_555
C112_4 C113_4 1_555 1_555
O25_2 H71_2 1_555 1_555
Cu10 O16_4 1_555 1_555
O15_4 C92_4 1_555 1_555
O16_4 C99_4 1_555 1_555
O17_4 H2_4 1_555 1_555
O20_4 C92_4 1_555 1_555
O30 C96_4 1_555 1_555
O22_4 C100_4 1_555 1_555
N9_4 C107_4 1_555 1_555
C28_4 H9_4 1_555 1_555
C36_4 C48_4 1_555 1_555
O23_4 C99_4 1_555 1_555
O24_4 C96_4 1_555 1_555
C48_4 H20_4 1_555 1_555
C51_4 C28_4 1_555 1_555
C64_4 C28_4 1_555 1_555
H26_4 C64_4 1_555 1_555
C70_4 C48_4 1_555 1_555
H29_4 C70_4 1_555 1_555
C79_4 C99_4 1_555 1_555
C85_4 C68_4 1_555 1_555
H39_4 C85_4 1_555 1_555
C87_4 C36_4 1_555 1_555
H41_4 C87_4 1_555 1_555
C91_4 C51_4 1_555 1_555
H45_4 C91_4 1_555 1_555
C92_4 C36_4 1_555 1_555
C100_4 O17_4 1_555 1_555
C101_4 C54_4 1_555 1_555
H49_4 C101_4 1_555 1_555
C110_4 N9_4 1_555 1_555
H57_4 C110_4 1_555 1_555
H58_4 C110_4 1_555 1_555
H59_4 C110_4 1_555 1_555
C114_4 C107_4 1_555 1_555
H64_4 C114_4 1_555 1_555
H65_4 C114_4 1_555 1_555
C115_4 N9_4 1_555 1_555
H66_4 C115_4 1_555 1_555
H67_4 C115_4 1_555 1_555
H68_4 C115_4 1_555 1_555
C51_4 C100_4 1_555 1_555
C54_4 C64_4 1_555 1_555
C68_4 C70_4 1_555 1_555
C85_4 C87_4 1_555 1_555
C91_4 C101_4 1_555 1_555
O20_4 H70_4 1_555 1_555
O24_4 H72_4 1_555 1_555
O10_3 C74_3 1_555 1_555
C72_3 C73_3 1_555 1_555
O25_3 C74_3 1_555 1_555
C73_3 H31_3 1_555 1_555
C74_3 C72_3 1_555 1_555
C97_3 C72_3 1_555 1_555
H48_3 C97_3 1_555 1_555
O25_3 H71_3 1_555 1_555
O12_3 H1_3 1_555 1_555
C44_3 H16_3 1_555 1_555
C82_3 C44_3 1_555 1_555
C98_3 O12_3 1_555 1_555
O26_3 C98_3 1_555 1_555
C108_3 C82_3 1_555 1_555
H55_3 C108_3 1_555 1_555
C44_3 C75_3 1_555 1_555
C82_3 C98_3 1_555 1_555
O12_4 H1_4 1_555 1_555
C44_4 H16_4 1_555 1_555
C82_4 C44_4 1_555 1_555
C98_4 O12_4 1_555 1_555
O26_4 C98_4 1_555 1_555
C108_4 C82_4 1_555 1_555
H55_4 C108_4 1_555 1_555
C44_4 C75_4 1_555 1_555
C82_4 C98_4 1_555 1_555
O10_4 C74_4 1_555 1_555
C72_4 C73_4 1_555 1_555
O25_4 C74_4 1_555 1_555
C73_4 H31_4 1_555 1_555
C74_4 C72_4 1_555 1_555
C97_4 C72_4 1_555 1_555
H48_4 C97_4 1_555 1_555
O25_4 H71_4 1_555 1_555

#END
