
###############################################################################
#
# This file contains modified crystal structure data generated from the
# MOF subset of the Cambridge Structural Database (CSD) v543 
# hosted by the Cambridge Crystallographic Data Centre (CCDC).
#
# This work is licensed under the Creative Commons
# Attribution-NonCommercial-ShareAlike 4.0 International License.
# To view a copy of this license, visit
# http://creativecommons.org/licenses/by-nc-sa/4.0/
# or send a letter to
# Creative Commons, PO Box 1866, Mountain View, CA 94042, USA.
#
# CIF created using the CSD Python API on 29 September 2022
# The structure has been converted into the P1 space group
# The structure has a 3D framework
# The original CSD entry PIXHOV is in the monoclinic crystal system
# The framework has been calculated to contain at least 10.0% void space
# The void calculation uses a probe of radius 1.32A, grid spacing 0.4
#
###############################################################################

data_PIXHOV
_chemical_formula_moiety         '(C56 H40 N4 O8 Zn1)n'
_symmetry_cell_setting           triclinic
_symmetry_space_group_name_H-M   'P 1'
_symmetry_Int_Tables_number      1
_space_group_name_Hall           'P 1'
loop_
_symmetry_equiv_pos_site_id
_symmetry_equiv_pos_as_xyz
1 x,y,z
_cell_length_a                   13.9519(9)
_cell_length_b                   7.6513(5)
_cell_length_c                   14.2991(10)
_cell_angle_alpha                90
_cell_angle_beta                 99.359(5)
_cell_angle_gamma                90
_cell_volume                     1506.11
loop_
_atom_site_label
_atom_site_type_symbol
_atom_site_fract_x
_atom_site_fract_y
_atom_site_fract_z
O3 O 0.1767(3) 0.2379(5) 0.1646(3)
O4 O 0.0600(4) 0.4106(6) 0.1256(5)
C25 C 0.0963(4) 0.2704(5) 0.1221(4)
C26 C 0.0459(3) 0.1312(4) 0.0585(3)
Zn3 Zn 0.2500 0.40056(8) 0.2500
N2 N 0.1864(2) 0.5837(4) 0.3240(3)
C15 C 0.2126(3) 0.6105(5) 0.4176(3)
H11 H 0.2492 0.5256 0.4538
C16 C 0.1872(3) 0.7589(5) 0.4618(3)
H12 H 0.2059 0.7712 0.5269
C17 C 0.1337(3) 0.8912(5) 0.4105(3)
C18 C 0.1059(3) 0.8623(5) 0.3141(3)
H13 H 0.0694 0.9452 0.2763
C19 C 0.1330(3) 0.7091(5) 0.2754(3)
H14 H 0.1128 0.6915 0.2109
C14 C 0.5875(4) 0.0292(6) 0.5568(4)
H10 H 0.6474 0.0514 0.5941
O3_2 O 0.3233(3) 0.2379(5) 0.3354(3)
O4_2 O 0.4400(4) 0.4106(6) 0.3744(5)
C25_2 C 0.4037(4) 0.2704(5) 0.3779(4)
C26_2 C 0.4541(3) 0.1312(4) 0.4415(3)
C27 C 0.5401(4) 0.1606(6) 0.4989(4)
H19 H 0.5682 0.2709 0.4998
N2_2 N 0.3136(2) 0.5837(4) 0.1760(3)
C15_2 C 0.2874(3) 0.6105(5) 0.0824(3)
H11_2 H 0.2508 0.5256 0.0462
C16_2 C 0.3128(3) 0.7589(5) 0.0382(3)
C17_2 C 0.3663(3) 0.8912(5) 0.0895(3)
C18_2 C 0.3941(3) 0.8623(5) 0.1859(3)
H13_2 H 0.4306 0.9452 0.2237
C19_2 C 0.3670(3) 0.7091(5) 0.2246(3)
H14_2 H 0.3872 0.6915 0.2891
C28 C 0.0875(4) 0.9708(6) 0.0568(4)
H20 H 0.1474 0.9486 0.0941
C13 C 0.0401(4) 0.8394(6) 0.9989(4)
H9 H 0.0682 0.7291 0.9998
C10 C 0.0231(3) 0.5289(6) 0.5949(3)
H8 H 0.0384 0.5476 0.6599
C20 C 0.1088(3) 0.0507(5) 0.4569(3)
H15 H 0.1277 0.0568 0.5223
C21 C 0.0622(3) 0.1873(5) 0.4156(3)
H16 H 0.0470 0.1824 0.3498
C22 C 0.0310(3) 0.3467(5) 0.4603(3)
C23 C 0.0551(3) 0.3794(5) 0.5577(3)
H17 H 0.0927 0.2997 0.5969
C27_2 C 0.9599(4) 0.1606(6) 0.0011(4)
H19_2 H 0.9318 0.2709 0.0002
C14_2 C 0.9125(4) 0.0292(6) 0.9432(4)
H10_2 H 0.8526 0.0514 0.9059
Zn1 Zn 0.7500 0.59944(8) 0.7500
N1 N 0.8136(2) 0.4163(4) 0.6760(3)
C1 C 0.7874(3) 0.3895(5) 0.5824(3)
H1 H 0.7508 0.4744 0.5462
C2 C 0.8128(3) 0.2411(5) 0.5382(3)
H2 H 0.7941 0.2288 0.4731
C3 C 0.8663(3) 0.1088(5) 0.5895(3)
C4 C 0.8941(3) 0.1377(5) 0.6859(3)
H3 H 0.9306 0.0548 0.7237
C5 C 0.8670(3) 0.2909(5) 0.7246(3)
H4 H 0.8872 0.3085 0.7891
O1 O 0.8233(3) 0.7621(5) 0.8354(3)
O2 O 0.9400(4) 0.5894(6) 0.8744(5)
C11 C 0.9037(4) 0.7296(5) 0.8779(4)
C12 C 0.9541(3) 0.8688(4) 0.9415(3)
N3 N 0.6864(2) 0.4163(4) 0.8240(3)
O5 O 0.6767(3) 0.7621(5) 0.6646(3)
C1_2 C 0.7126(3) 0.3895(5) 0.9176(3)
H1_2 H 0.7492 0.4744 0.9538
C2_2 C 0.6872(3) 0.2411(5) 0.9618(3)
C3_2 C 0.6337(3) 0.1088(5) 0.9105(3)
C4_2 C 0.6059(3) 0.1377(5) 0.8141(3)
H3_2 H 0.5694 0.0548 0.7763
C5_2 C 0.6330(3) 0.2909(5) 0.7754(3)
H4_2 H 0.6128 0.3085 0.7109
O2_2 O 0.5600(4) 0.5894(6) 0.6256(5)
C11_2 C 0.5963(4) 0.7296(5) 0.6221(4)
C12_2 C 0.5459(3) 0.8688(4) 0.5585(3)
C13_2 C 0.4599(4) 0.8394(6) 0.5011(4)
H9_2 H 0.4318 0.7291 0.5002
C28_2 C 0.4125(4) 0.9708(6) 0.4432(4)
H20_2 H 0.3526 0.9486 0.4059
C6 C 0.8912(3) 0.9493(5) 0.5431(3)
H5 H 0.8723 0.9432 0.4777
C7 C 0.9378(3) 0.8127(5) 0.5844(3)
H6 H 0.9530 0.8176 0.6502
C8 C 0.9690(3) 0.6533(5) 0.5397(3)
C9 C 0.9449(3) 0.6206(5) 0.4423(3)
H7 H 0.9073 0.7003 0.4031
C24 C 0.9769(3) 0.4711(6) 0.4051(3)
H18 H 0.9616 0.4524 0.3401
H2_2 H 0.7059 0.2288 0.0269
H5_2 H 0.6277 0.9432 0.0223
C9_2 C 0.5551(3) 0.6206(5) 0.0577(3)
H7_2 H 0.5927 0.7003 0.0969
C20_2 C 0.3912(3) 0.0507(5) 0.0431(3)
C21_2 C 0.4378(3) 0.1873(5) 0.0844(3)
H16_2 H 0.4530 0.1824 0.1502
C22_2 C 0.4690(3) 0.3467(5) 0.0397(3)
C24_2 C 0.5231(3) 0.4711(6) 0.0949(3)
H18_2 H 0.5384 0.4524 0.1599
C6_2 C 0.6088(3) 0.9493(5) 0.9569(3)
C7_2 C 0.5622(3) 0.8127(5) 0.9156(3)
H6_2 H 0.5470 0.8176 0.8498
C8_2 C 0.5310(3) 0.6533(5) 0.9603(3)
C10_2 C 0.4769(3) 0.5289(6) 0.9051(3)
H8_2 H 0.4616 0.5476 0.8401
H15_2 H 0.3723 0.0568 0.9777
C23_2 C 0.4449(3) 0.3794(5) 0.9423(3)
H17_2 H 0.4073 0.2997 0.9031
H12_2 H 0.2941 0.7712 0.9731
loop_
_geom_bond_atom_site_label_1
_geom_bond_atom_site_label_2
_geom_bond_site_symmetry_1
_geom_bond_site_symmetry_2
O3 C25 1_555 1_555
O4 C25 1_555 1_555
C25 C26 1_555 1_555
Zn3 O3 1_555 1_555
N2 C15 1_555 1_555
C15 H11 1_555 1_555
C16 C15 1_555 1_555
H12 C16 1_555 1_555
C17 C16 1_555 1_555
C18 C17 1_555 1_555
H13 C18 1_555 1_555
C19 N2 1_555 1_555
H14 C19 1_555 1_555
Zn3 N2 1_555 1_555
C18 C19 1_555 1_555
H10 C14 1_555 1_555
O3_2 C25_2 1_555 1_555
O4_2 C25_2 1_555 1_555
C25_2 C26_2 1_555 1_555
C26_2 C27 1_555 1_555
C27 C14 1_555 1_555
H19 C27 1_555 1_555
Zn3 O3_2 1_555 1_555
N2_2 C15_2 1_555 1_555
C15_2 H11_2 1_555 1_555
C16_2 C15_2 1_555 1_555
C17_2 C16_2 1_555 1_555
C18_2 C17_2 1_555 1_555
H13_2 C18_2 1_555 1_555
C19_2 N2_2 1_555 1_555
H14_2 C19_2 1_555 1_555
Zn3 N2_2 1_555 1_555
C18_2 C19_2 1_555 1_555
H20 C28 1_555 1_555
H9 C13 1_555 1_555
H8 C10 1_555 1_555
H15 C20 1_555 1_555
C21 C20 1_555 1_555
H16 C21 1_555 1_555
C22 C21 1_555 1_555
C23 C10 1_555 1_555
H17 C23 1_555 1_555
C22 C23 1_555 1_555
H19_2 C27_2 1_555 1_555
H10_2 C14_2 1_555 1_555
Zn1 N1 1_555 1_555
N1 C1 1_555 1_555
C1 H1 1_555 1_555
C2 C1 1_555 1_555
H2 C2 1_555 1_555
C3 C2 1_555 1_555
C4 C3 1_555 1_555
H3 C4 1_555 1_555
C5 N1 1_555 1_555
H4 C5 1_555 1_555
O1 Zn1 1_555 1_555
O2 C11 1_555 1_555
C11 O1 1_555 1_555
C12 C11 1_555 1_555
N3 Zn1 1_555 1_555
O5 Zn1 1_555 1_555
C4 C5 1_555 1_555
N3 C1_2 1_555 1_555
C1_2 H1_2 1_555 1_555
C2_2 C1_2 1_555 1_555
C3_2 C2_2 1_555 1_555
C4_2 C3_2 1_555 1_555
H3_2 C4_2 1_555 1_555
C5_2 N3 1_555 1_555
H4_2 C5_2 1_555 1_555
O2_2 C11_2 1_555 1_555
C11_2 O5 1_555 1_555
C12_2 C11_2 1_555 1_555
C13_2 C12_2 1_555 1_555
H9_2 C13_2 1_555 1_555
C28_2 C13_2 1_555 1_555
H20_2 C28_2 1_555 1_555
C4_2 C5_2 1_555 1_555
H5 C6 1_555 1_555
C7 C6 1_555 1_555
H6 C7 1_555 1_555
C8 C7 1_555 1_555
C9 C8 1_555 1_555
H7 C9 1_555 1_555
C24 C9 1_555 1_555
H18 C24 1_555 1_555
H7_2 C9_2 1_555 1_555
C21_2 C20_2 1_555 1_555
H16_2 C21_2 1_555 1_555
C22_2 C21_2 1_555 1_555
C24_2 C9_2 1_555 1_555
H18_2 C24_2 1_555 1_555
C22_2 C24_2 1_555 1_555
C7_2 C6_2 1_555 1_555
H6_2 C7_2 1_555 1_555
C8_2 C7_2 1_555 1_555
C10_2 C8_2 1_555 1_555
H8_2 C10_2 1_555 1_555
C23_2 C10_2 1_555 1_555
H17_2 C23_2 1_555 1_555

#END
