
###############################################################################
#
# This file contains modified crystal structure data generated from the
# MOF subset of the Cambridge Structural Database (CSD) v543 
# hosted by the Cambridge Crystallographic Data Centre (CCDC).
#
# This work is licensed under the Creative Commons
# Attribution-NonCommercial-ShareAlike 4.0 International License.
# To view a copy of this license, visit
# http://creativecommons.org/licenses/by-nc-sa/4.0/
# or send a letter to
# Creative Commons, PO Box 1866, Mountain View, CA 94042, USA.
#
# CIF created using the CSD Python API on 29 September 2022
# The structure has been converted into the P1 space group
# The structure has a 3D framework
# The original CSD entry PIXLUG is in the rhombohedral crystal system
# The framework has been calculated to contain at least 10.0% void space
# The void calculation uses a probe of radius 1.32A, grid spacing 0.4
#
###############################################################################

data_PIXLUG
_chemical_formula_moiety         '(C432 H360 Eu18 N18 O165)n'
_symmetry_cell_setting           triclinic
_symmetry_space_group_name_H-M   'P 1'
_symmetry_Int_Tables_number      1
_space_group_name_Hall           'P 1'
loop_
_symmetry_equiv_pos_site_id
_symmetry_equiv_pos_as_xyz
1 x,y,z
_cell_length_a                   39.823(6)
_cell_length_b                   39.823(6)
_cell_length_c                   9.0459(14)
_cell_angle_alpha                90
_cell_angle_beta                 90
_cell_angle_gamma                120
_cell_volume                     12423.7
loop_
_atom_site_label
_atom_site_type_symbol
_atom_site_fract_x
_atom_site_fract_y
_atom_site_fract_z
O4 O 0.58262(7) 0.54996(7) 0.1086(3)
H9 H 0.6909 0.4499 0.0485
C21 C 0.56641(10) 0.55782(10) 0.0072(4)
C22 C 0.74366(13) 0.49767(16) 0.0127(6)
H14 H 0.7556 0.4955 0.1002
Eu4 Eu 0.52618(2) 0.48655(2) 0.17602(2)
O13 O 0.44929(10) 0.52658(7) 0.0601(3)
O15 O 0.47028(7) 0.46284(7) 0.0111(3)
Eu1 Eu 0.47382(2) 0.51345(2) 0.82398(2)
O1 O 0.63977(7) 0.57599(7) 0.8683(3)
O2 O 0.69059(7) 0.50459(7) 0.6278(3)
O3 O 0.58130(7) 0.48675(7) 0.2983(3)
O5 O 0.51050(8) 0.56042(8) 0.6374(3)
O6 O 0.80675(7) 0.58937(7) 0.7268(3)
O7 O 0.55386(7) 0.51476(7) 0.4192(3)
C1 C 0.62420(10) 0.60008(10) 0.8439(4)
O8 O 0.52972(7) 0.53716(7) 0.9889(3)
O9 O 0.51355(7) 0.48928(7) 0.7143(3)
H1 H 0.5302 0.4890 0.7809
H2 H 0.5281 0.5042 0.6384
C2 C 0.66396(10) 0.51716(10) 0.6371(4)
O10 O 0.75902(7) 0.57059(7) 0.5699(3)
N1 N 0.53306(11) 0.61573(10) 0.5028(4)
C3 C 0.64466(11) 0.63245(11) 0.7558(4)
H3 H 0.6691 0.6384 0.7160
C4 C 0.63716(10) 0.50583(10) 0.5237(4)
H4 H 0.6374 0.4901 0.4451
C5 C 0.74765(10) 0.53180(11) 0.7860(4)
C6 C 0.66446(10) 0.54062(10) 0.7504(4)
H5 H 0.6833 0.5485 0.8267
C7 C 0.59359(11) 0.64747(11) 0.7836(4)
H6 H 0.5828 0.6634 0.7613
C8 C 0.68815(13) 0.47435(13) 0.8544(5)
H7 H 0.6618 0.4560 0.8337
C9 C 0.62912(12) 0.65608(11) 0.7263(4)
H8 H 0.6431 0.6784 0.6660
C10 C 0.63721(10) 0.55256(10) 0.7516(4)
C11 C 0.70535(15) 0.47074(16) 0.9822(6)
C12 C 0.60979(10) 0.54133(10) 0.6415(4)
H10 H 0.5910 0.5494 0.6435
C13 C 0.60994(9) 0.51793(9) 0.5270(4)
C14 C 0.51222(13) 0.59186(14) 0.6090(5)
H11 H 0.4973 0.5991 0.6688
C15 C 0.57403(11) 0.61556(10) 0.8733(4)
H12 H 0.5497 0.6099 0.9136
C16 C 0.58007(10) 0.50586(10) 0.4081(4)
C17 C 0.76405(12) 0.52727(13) 0.9167(5)
H13 H 0.7903 0.5455 0.9387
C18 C 0.77230(11) 0.56567(11) 0.6882(4)
C19 C 0.58886(10) 0.59125(10) 0.9069(4)
C20 C 0.70875(11) 0.50412(11) 0.7582(4)
C23 C 0.55694(15) 0.60646(14) 0.4086(5)
H15 H 0.5842 0.6264 0.4201
H16 H 0.5492 0.6056 0.3053
H17 H 0.5535 0.5812 0.4371
C24 C 0.53507(18) 0.65273(15) 0.4838(5)
H18 H 0.5222 0.6526 0.3913
H19 H 0.5623 0.6734 0.4802
H20 H 0.5221 0.6573 0.5669
Eu2 Eu 0.81988(2) 0.62704(3) 0.49065(2)
O11 O 0.41870(7) 0.51325(7) 0.7017(3)
O12 O 0.41738(7) 0.45004(7) 0.8914(3)
O14 O 0.44614(7) 0.48524(7) 0.5808(3)
O16 O 0.47824(10) 0.57431(7) 0.9032(3)
O4_2 O 0.45004(7) 0.03266(10) 0.1086(3)
H9_2 H 0.5501 0.2410 0.0485
C21_2 C 0.44218(10) 0.00859(14) 0.0072(4)
C22_2 C 0.50233(16) 0.24599(21) 0.0127(6)
H14_2 H 0.5045 0.2601 0.1002
Eu4_2 Eu 0.51345(2) 0.03963(3) 0.17602(2)
O15_2 O 0.53716(7) 0.00744(10) 0.0111(3)
O1_2 O 0.42401(7) 0.06378(10) 0.8683(3)
O2_2 O 0.49541(7) 0.18600(10) 0.6278(3)
O3_2 O 0.51325(7) 0.09455(10) 0.2983(3)
O6_2 O 0.41063(7) 0.21738(10) 0.7268(3)
O7_2 O 0.48524(7) 0.03910(10) 0.4192(3)
C1_2 C 0.39992(10) 0.02412(14) 0.8439(4)
O9_2 O 0.51072(7) 0.02427(10) 0.7143(3)
H1_2 H 0.5110 0.0412 0.7809
H2_2 H 0.4958 0.0239 0.6384
C2_2 C 0.48284(10) 0.14680(14) 0.6371(4)
O10_2 O 0.42941(7) 0.18843(10) 0.5699(3)
C3_2 C 0.36755(11) 0.01221(16) 0.7558(4)
H3_2 H 0.3616 0.0307 0.7160
C4_2 C 0.49417(10) 0.13133(14) 0.5237(4)
H4_2 H 0.5099 0.1473 0.4451
C5_2 C 0.46820(11) 0.21585(15) 0.7860(4)
C6_2 C 0.45938(10) 0.12384(14) 0.7504(4)
H5_2 H 0.4515 0.1348 0.8267
C8_2 C 0.52565(13) 0.21380(18) 0.8544(5)
H7_2 H 0.5440 0.2058 0.8337
C10_2 C 0.44744(10) 0.08465(14) 0.7516(4)
C11_2 C 0.52926(16) 0.23461(22) 0.9822(6)
C12_2 C 0.45867(10) 0.06846(14) 0.6415(4)
H10_2 H 0.4506 0.0416 0.6435
C13_2 C 0.48207(9) 0.09201(13) 0.5270(4)
C16_2 C 0.49414(10) 0.07421(14) 0.4081(4)
C17_2 C 0.47273(13) 0.23678(18) 0.9167(5)
H13_2 H 0.4545 0.2448 0.9387
C18_2 C 0.43433(11) 0.20663(16) 0.6882(4)
C20_2 C 0.49588(11) 0.20463(16) 0.7582(4)
Eu2_2 Eu 0.37296(3) 0.19285(4) 0.49065(2)
O13_2 O 0.47342(7) 0.92270(12) 0.0601(3)
Eu1_2 Eu 0.48655(2) 0.96037(3) 0.82398(2)
O5_2 O 0.43958(8) 0.95008(11) 0.6374(3)
O8_2 O 0.46284(7) 0.99256(10) 0.9889(3)
N1_2 N 0.38427(10) 0.91733(15) 0.5028(4)
C7_2 C 0.35253(11) 0.94612(16) 0.7836(4)
H6_2 H 0.3366 0.9194 0.7613
C9_2 C 0.34392(11) 0.97304(16) 0.7263(4)
H8_2 H 0.3216 0.9647 0.6660
C14_2 C 0.40814(14) 0.92036(19) 0.6090(5)
H11_2 H 0.4009 0.8982 0.6688
C15_2 C 0.38444(10) 0.95847(15) 0.8733(4)
H12_2 H 0.3901 0.9398 0.9136
C19_2 C 0.40875(10) 0.99761(14) 0.9069(4)
C23_2 C 0.39354(14) 0.95048(21) 0.4086(5)
H15_2 H 0.3736 0.9578 0.4201
H16_2 H 0.3944 0.9436 0.3053
H17_2 H 0.4188 0.9723 0.4371
C24_2 C 0.34727(15) 0.88234(23) 0.4838(5)
H18_2 H 0.3474 0.8696 0.3913
H19_2 H 0.3266 0.8889 0.4802
H20_2 H 0.3427 0.8648 0.5669
O11_2 O 0.48675(7) 0.90545(10) 0.7017(3)
O12_2 O 0.54996(7) 0.96734(10) 0.8914(3)
O14_2 O 0.51476(7) 0.96090(10) 0.5808(3)
O16_2 O 0.42569(7) 0.90392(12) 0.9032(3)
O13_3 O 0.07730(12) 0.55071(10) 0.0601(3)
Eu1_3 Eu 0.03963(3) 0.52618(2) 0.82398(2)
O5_3 O 0.04992(11) 0.48950(8) 0.6374(3)
O8_3 O 0.00744(10) 0.47028(7) 0.9889(3)
N1_3 N 0.08267(15) 0.46694(11) 0.5028(4)
C7_3 C 0.05388(16) 0.40641(11) 0.7836(4)
H6_3 H 0.0806 0.4172 0.7613
C9_3 C 0.02696(16) 0.37088(12) 0.7263(4)
H8_3 H 0.0353 0.3569 0.6660
C14_3 C 0.07964(19) 0.48778(13) 0.6090(5)
H11_3 H 0.1018 0.5027 0.6688
C15_3 C 0.04153(15) 0.42597(11) 0.8733(4)
H12_3 H 0.0602 0.4503 0.9136
C19_3 C 0.00239(14) 0.41114(10) 0.9069(4)
C23_3 C 0.04952(21) 0.44306(15) 0.4086(5)
H15_3 H 0.0422 0.4158 0.4201
H16_3 H 0.0564 0.4508 0.3053
H17_3 H 0.0277 0.4465 0.4371
C24_3 C 0.11766(23) 0.46493(18) 0.4838(5)
H18_3 H 0.1304 0.4778 0.3913
H19_3 H 0.1111 0.4377 0.4802
H20_3 H 0.1352 0.4779 0.5669
O11_3 O 0.09455(10) 0.58130(7) 0.7017(3)
O12_3 O 0.03266(10) 0.58262(7) 0.8914(3)
O14_3 O 0.03910(10) 0.55386(7) 0.5808(3)
O16_3 O 0.09608(12) 0.52176(10) 0.9032(3)
O4_3 O 0.96734(10) 0.41738(7) 0.1086(3)
H9_3 H 0.7590 0.3091 0.0485
C21_3 C 0.99141(14) 0.43359(10) 0.0072(4)
C22_3 C 0.75401(21) 0.25634(13) 0.0127(6)
H14_3 H 0.7399 0.2444 0.1002
Eu4_3 Eu 0.96037(3) 0.47382(2) 0.17602(2)
O15_3 O 0.99256(10) 0.52972(7) 0.0111(3)
O1_3 O 0.93622(10) 0.36023(7) 0.8683(3)
O2_3 O 0.81400(10) 0.30941(7) 0.6278(3)
O3_3 O 0.90545(10) 0.41870(7) 0.2983(3)
O6_3 O 0.78262(10) 0.19325(7) 0.7268(3)
O7_3 O 0.96090(10) 0.44614(7) 0.4192(3)
C1_3 C 0.97588(14) 0.37580(10) 0.8439(4)
O9_3 O 0.97573(10) 0.48645(7) 0.7143(3)
H1_3 H 0.9588 0.4698 0.7809
H2_3 H 0.9761 0.4719 0.6384
C2_3 C 0.85320(14) 0.33604(10) 0.6371(4)
O10_3 O 0.81157(10) 0.24098(7) 0.5699(3)
C3_3 C 0.98779(16) 0.35534(11) 0.7558(4)
H3_3 H 0.9693 0.3309 0.7160
C4_3 C 0.86867(14) 0.36284(10) 0.5237(4)
H4_3 H 0.8527 0.3626 0.4451
C5_3 C 0.78415(15) 0.25235(10) 0.7860(4)
C6_3 C 0.87616(14) 0.33554(10) 0.7504(4)
H5_3 H 0.8652 0.3167 0.8267
C8_3 C 0.78620(18) 0.31185(13) 0.8544(5)
H7_3 H 0.7942 0.3382 0.8337
C10_3 C 0.91535(14) 0.36279(10) 0.7516(4)
C11_3 C 0.76539(22) 0.29465(15) 0.9822(6)
C12_3 C 0.93154(14) 0.39021(10) 0.6415(4)
H10_3 H 0.9584 0.4090 0.6435
C13_3 C 0.90799(13) 0.39006(9) 0.5270(4)
C16_3 C 0.92579(14) 0.41993(10) 0.4081(4)
C17_3 C 0.76322(18) 0.23595(12) 0.9167(5)
H13_3 H 0.7552 0.2097 0.9387
C18_3 C 0.79337(16) 0.22770(11) 0.6882(4)
C20_3 C 0.79537(16) 0.29125(11) 0.7582(4)
Eu2_3 Eu 0.80715(4) 0.18012(2) 0.49065(2)
Eu1_4 Eu 0.14049(2) 0.84678(2) 0.15731(2)
O1_4 O 0.30644(7) 0.90932(7) 0.2016(3)
O4_4 O 0.24929(7) 0.88329(7) 0.4419(3)
C1_4 C 0.29087(10) 0.93341(10) 0.1772(4)
O8_4 O 0.19639(7) 0.87049(7) 0.3222(3)
O9_4 O 0.18022(7) 0.82261(7) 0.0476(3)
H1_4 H 0.1969 0.8223 0.1142
C3_4 C 0.31133(11) 0.96578(11) 0.0891(4)
H3_4 H 0.3358 0.9717 0.0493
C5_4 C 0.41432(10) 0.86513(11) 0.1193(4)
C6_4 C 0.33113(10) 0.87395(10) 0.0837(4)
H5_4 H 0.3500 0.8818 0.1600
C7_4 C 0.26026(11) 0.98080(11) 0.1169(4)
H6_4 H 0.2495 0.9967 0.0946
C8_4 C 0.35482(13) 0.80768(13) 0.1877(5)
H7_4 H 0.3285 0.7893 0.1670
C9_4 C 0.29579(12) 0.98941(11) 0.0596(4)
C10_4 C 0.30388(10) 0.88589(10) 0.0849(4)
C11_4 C 0.37202(15) 0.80407(16) 0.3155(6)
H9_4 H 0.3576 0.7832 0.3818
H11_4 H 0.1640 0.9324 0.0021
C15_4 C 0.24070(11) 0.94889(10) 0.2066(4)
H12_4 H 0.2164 0.9432 0.2469
C17_4 C 0.43072(12) 0.86060(13) 0.2500(5)
H13_4 H 0.4570 0.8788 0.2720
C18_4 C 0.43897(11) 0.89900(11) 0.0215(4)
C19_4 C 0.25553(10) 0.92458(10) 0.2402(4)
C20_4 C 0.37542(11) 0.83745(11) 0.0915(4)
C21_4 C 0.23308(10) 0.89115(10) 0.3405(4)
C22_4 C 0.41033(13) 0.83100(16) 0.3460(6)
H14_4 H 0.4223 0.8288 0.4335
Eu4_4 Eu 0.19285(2) 0.81988(2) 0.50935(2)
O11_4 O 0.08537(7) 0.84658(7) 0.0350(3)
O12_4 O 0.08405(7) 0.78337(7) 0.2247(3)
O13_4 O 0.11595(10) 0.85992(7) 0.3935(3)
O15_4 O 0.13695(7) 0.79617(7) 0.3444(3)
O16_4 O 0.14490(10) 0.90765(7) 0.2366(3)
O2_4 O 0.35726(7) 0.83792(7) 0.9611(3)
O3_4 O 0.24797(7) 0.82008(7) 0.6316(3)
O5_4 O 0.17717(8) 0.89375(8) 0.9707(3)
O7_4 O 0.22053(7) 0.84809(7) 0.7525(3)
H2_4 H 0.1948 0.8375 0.9717
C2_4 C 0.33063(10) 0.85049(10) 0.9704(4)
N1_4 N 0.19973(11) 0.94906(10) 0.8361(4)
C4_4 C 0.30383(10) 0.83916(10) 0.8570(4)
H4_4 H 0.3041 0.8234 0.7784
C12_4 C 0.27646(10) 0.87466(10) 0.9748(4)
H10_4 H 0.2577 0.8827 0.9768
C13_4 C 0.27661(9) 0.85126(9) 0.8603(4)
C14_4 C 0.17889(13) 0.92519(14) 0.9423(5)
C16_4 C 0.24674(10) 0.83919(10) 0.7414(4)
C23_4 C 0.22361(15) 0.93979(14) 0.7419(5)
H15_4 H 0.2509 0.9597 0.7534
H16_4 H 0.2159 0.9389 0.6386
H17_4 H 0.2202 0.9145 0.7704
C24_4 C 0.20174(18) 0.98606(15) 0.8171(5)
H18_4 H 0.1889 0.9859 0.7246
H20_4 H 0.1888 0.9906 0.9002
O14_4 O 0.11281(7) 0.81857(7) 0.9141(3)
Eu1_5 Eu 0.15322(2) 0.29370(3) 0.15731(2)
O1_5 O 0.09068(7) 0.39711(10) 0.2016(3)
O4_5 O 0.11671(7) 0.36599(10) 0.4419(3)
C1_5 C 0.06659(10) 0.35745(14) 0.1772(4)
O8_5 O 0.12951(7) 0.32589(10) 0.3222(3)
O9_5 O 0.17739(7) 0.35760(10) 0.0476(3)
H1_5 H 0.1777 0.3745 0.1142
C3_5 C 0.03422(11) 0.34554(16) 0.0891(4)
H3_5 H 0.0283 0.3640 0.0493
C5_5 C 0.13487(11) 0.54918(15) 0.1193(4)
C6_5 C 0.12605(10) 0.45717(14) 0.0837(4)
H5_5 H 0.1182 0.4681 0.1600
C7_5 C 0.01920(11) 0.27945(16) 0.1169(4)
H6_5 H 0.0033 0.2527 0.0946
C8_5 C 0.19232(13) 0.54713(18) 0.1877(5)
H7_5 H 0.2107 0.5391 0.1670
C9_5 C 0.01059(11) 0.30637(16) 0.0596(4)
C10_5 C 0.11411(10) 0.41798(14) 0.0849(4)
C11_5 C 0.19593(16) 0.56794(22) 0.3155(6)
H9_5 H 0.2168 0.5743 0.3818
H11_5 H 0.0676 0.2315 0.0021
C15_5 C 0.05111(10) 0.29180(15) 0.2066(4)
H12_5 H 0.0568 0.2731 0.2469
C17_5 C 0.13940(13) 0.57011(18) 0.2500(5)
H13_5 H 0.1212 0.5781 0.2720
C18_5 C 0.10100(11) 0.53996(16) 0.0215(4)
C19_5 C 0.07542(10) 0.33094(14) 0.2402(4)
C20_5 C 0.16255(11) 0.53796(16) 0.0915(4)
C21_5 C 0.10885(10) 0.34192(14) 0.3405(4)
C22_5 C 0.16900(16) 0.57932(21) 0.3460(6)
H14_5 H 0.1712 0.5934 0.4335
Eu4_5 Eu 0.18012(2) 0.37296(3) 0.50935(2)
O11_5 O 0.15342(7) 0.23878(10) 0.0350(3)
O12_5 O 0.21663(7) 0.30067(10) 0.2247(3)
O13_5 O 0.14008(7) 0.25604(12) 0.3935(3)
O15_5 O 0.20383(7) 0.34077(10) 0.3444(3)
O16_5 O 0.09235(7) 0.23726(12) 0.2366(3)
O2_5 O 0.16208(7) 0.51933(10) 0.9611(3)
O3_5 O 0.17992(7) 0.42788(10) 0.6316(3)
O5_5 O 0.10625(8) 0.28341(11) 0.9707(3)
O7_5 O 0.15191(7) 0.37243(10) 0.7525(3)
H2_5 H 0.1625 0.3572 0.9717
C2_5 C 0.14951(10) 0.48013(14) 0.9704(4)
N1_5 N 0.05094(10) 0.25066(15) 0.8361(4)
C4_5 C 0.16084(10) 0.46466(14) 0.8570(4)
H4_5 H 0.1766 0.4806 0.7784
C12_5 C 0.12534(10) 0.40179(14) 0.9748(4)
H10_5 H 0.1173 0.3749 0.9768
C13_5 C 0.14874(9) 0.42534(13) 0.8603(4)
C14_5 C 0.07481(14) 0.25369(19) 0.9423(5)
C16_5 C 0.16081(10) 0.40754(14) 0.7414(4)
C23_5 C 0.06021(14) 0.28381(21) 0.7419(5)
H15_5 H 0.0403 0.2911 0.7534
H16_5 H 0.0611 0.2769 0.6386
H17_5 H 0.0855 0.3056 0.7704
C24_5 C 0.01394(15) 0.21567(23) 0.8171(5)
H18_5 H 0.0141 0.2029 0.7246
H20_5 H 0.0094 0.1981 0.9002
O14_5 O 0.18143(7) 0.29423(10) 0.9141(3)
Eu1_6 Eu 0.70630(3) 0.85951(2) 0.15731(2)
O1_6 O 0.60289(10) 0.69356(7) 0.2016(3)
O4_6 O 0.63401(10) 0.75071(7) 0.4419(3)
C1_6 C 0.64255(14) 0.70913(10) 0.1772(4)
O8_6 O 0.67411(10) 0.80361(7) 0.3222(3)
O9_6 O 0.64240(10) 0.81978(7) 0.0476(3)
H1_6 H 0.6255 0.8031 0.1142
C3_6 C 0.65446(16) 0.68867(11) 0.0891(4)
H3_6 H 0.6360 0.6642 0.0493
C5_6 C 0.45082(15) 0.58568(10) 0.1193(4)
C6_6 C 0.54283(14) 0.66887(10) 0.0837(4)
H5_6 H 0.5319 0.6500 0.1600
C7_6 C 0.72055(16) 0.73974(11) 0.1169(4)
H6_6 H 0.7473 0.7505 0.0946
C8_6 C 0.45287(18) 0.64518(13) 0.1877(5)
H7_6 H 0.4609 0.6715 0.1670
C9_6 C 0.69363(16) 0.70421(12) 0.0596(4)
C10_6 C 0.58202(14) 0.69612(10) 0.0849(4)
C11_6 C 0.43206(22) 0.62798(15) 0.3155(6)
H9_6 H 0.4257 0.6424 0.3818
H11_6 H 0.7685 0.8360 0.0021
C15_6 C 0.70820(15) 0.75930(11) 0.2066(4)
H12_6 H 0.7269 0.7836 0.2469
C17_6 C 0.42989(18) 0.56928(12) 0.2500(5)
H13_6 H 0.4219 0.5430 0.2720
C18_6 C 0.46004(16) 0.56103(11) 0.0215(4)
C19_6 C 0.66906(14) 0.74447(10) 0.2402(4)
C20_6 C 0.46204(16) 0.62458(11) 0.0915(4)
C21_6 C 0.65808(14) 0.76692(10) 0.3405(4)
C22_6 C 0.42068(21) 0.58967(13) 0.3460(6)
H14_6 H 0.4066 0.5777 0.4335
Eu4_6 Eu 0.62704(3) 0.80715(2) 0.50935(2)
O11_6 O 0.76122(10) 0.91463(7) 0.0350(3)
O12_6 O 0.69933(10) 0.91595(7) 0.2247(3)
O13_6 O 0.74396(12) 0.88405(10) 0.3935(3)
O15_6 O 0.65923(10) 0.86305(7) 0.3444(3)
O16_6 O 0.76274(12) 0.85510(10) 0.2366(3)
O2_6 O 0.48067(10) 0.64274(7) 0.9611(3)
O3_6 O 0.57212(10) 0.75203(7) 0.6316(3)
O5_6 O 0.71659(11) 0.82283(8) 0.9707(3)
O7_6 O 0.62757(10) 0.77947(7) 0.7525(3)
H2_6 H 0.6428 0.8052 0.9717
C2_6 C 0.51987(14) 0.66937(10) 0.9704(4)
N1_6 N 0.74934(15) 0.80027(11) 0.8361(4)
C4_6 C 0.53534(14) 0.69617(10) 0.8570(4)
H4_6 H 0.5194 0.6959 0.7784
H8_4 H 0.7020 0.6902 0.9993
C12_6 C 0.59821(14) 0.72354(10) 0.9748(4)
H10_6 H 0.6251 0.7423 0.9768
C13_6 C 0.57466(13) 0.72339(9) 0.8603(4)
C14_6 C 0.74631(19) 0.82111(13) 0.9423(5)
C16_6 C 0.59246(14) 0.75326(10) 0.7414(4)
C23_6 C 0.71619(21) 0.77639(15) 0.7419(5)
H15_6 H 0.7089 0.7491 0.7534
H16_6 H 0.7231 0.7841 0.6386
H17_6 H 0.6944 0.7798 0.7704
C24_6 C 0.78433(23) 0.79826(18) 0.8171(5)
H18_6 H 0.7971 0.8111 0.7246
H19_4 H 0.7778 0.7710 0.8135
H20_6 H 0.8019 0.8112 0.9002
O14_6 O 0.70577(10) 0.88719(7) 0.9141(3)
O2_7 O 0.02392(7) 0.17126(7) 0.2945(3)
H3_7 H 0.0024 0.3051 0.3827
C5_7 C 0.08098(10) 0.19847(11) 0.4527(4)
H5_7 H 0.0166 0.2152 0.4934
C8_7 C 0.02148(13) 0.14102(13) 0.5211(5)
C11_7 C 0.03868(15) 0.13741(16) 0.6489(6)
H9_7 H 0.0242 0.1166 0.7152
C17_7 C 0.09738(12) 0.19394(13) 0.5834(5)
H13_7 H 0.1236 0.2122 0.6054
C18_7 C 0.10563(11) 0.23234(11) 0.3549(4)
C20_7 C 0.04208(11) 0.17079(11) 0.4249(4)
C22_7 C 0.07699(13) 0.16434(16) 0.6794(6)
H14_7 H 0.0889 0.1622 0.7669
O1_7 O 0.97310(7) 0.24266(7) 0.5350(3)
O4_7 O 0.91595(7) 0.21663(7) 0.7753(3)
O5_7 O 0.84383(8) 0.22709(8) 0.3041(3)
O7_7 O 0.88719(7) 0.18143(7) 0.0859(3)
C1_7 C 0.95753(10) 0.26675(10) 0.5106(4)
O8_7 O 0.86305(7) 0.20383(7) 0.6556(3)
O9_7 O 0.84688(7) 0.15595(7) 0.3810(3)
H1_7 H 0.8635 0.1557 0.4476
H2_7 H 0.8614 0.1709 0.3051
C2_7 C 0.99729(10) 0.18383(10) 0.3038(4)
N1_7 N 0.86639(11) 0.28240(10) 0.1695(4)
C3_7 C 0.97799(11) 0.29912(11) 0.4225(4)
C4_7 C 0.97049(10) 0.17250(10) 0.1904(4)
H4_7 H 0.9707 0.1568 0.1118
C6_7 C 0.99779(10) 0.20729(10) 0.4171(4)
C7_7 C 0.92692(11) 0.31414(11) 0.4503(4)
H6_7 H 0.9161 0.3301 0.4280
H7_7 H 0.9951 0.1227 0.5004
C9_7 C 0.96245(12) 0.32275(11) 0.3930(4)
H8_5 H 0.9764 0.3451 0.3327
C10_7 C 0.97054(10) 0.21923(10) 0.4183(4)
C12_7 C 0.94312(10) 0.20800(10) 0.3082(4)
H10_7 H 0.9243 0.2161 0.3102
C13_7 C 0.94327(9) 0.18460(9) 0.1937(4)
C14_7 C 0.84555(13) 0.25853(14) 0.2757(5)
H11_7 H 0.8306 0.2658 0.3355
C15_7 C 0.90736(11) 0.28223(10) 0.5400(4)
H12_7 H 0.8830 0.2766 0.5803
C16_7 C 0.91340(10) 0.17253(10) 0.0748(4)
C19_7 C 0.92219(10) 0.25792(10) 0.5736(4)
C21_7 C 0.89974(10) 0.22449(10) 0.6739(4)
C23_7 C 0.89027(15) 0.27313(14) 0.0753(5)
H15_7 H 0.9175 0.2931 0.0868
H17_7 H 0.8868 0.2479 0.1038
C24_7 C 0.86840(18) 0.31940(15) 0.1505(5)
H18_7 H 0.8555 0.3193 0.0580
H19_5 H 0.8956 0.3401 0.1469
H20_7 H 0.8554 0.3240 0.2336
Eu4_7 Eu 0.85951(2) 0.15322(2) 0.84269(2)
O11_7 O 0.75203(7) 0.17992(7) 0.3684(3)
O12_7 O 0.75071(7) 0.11671(7) 0.5581(3)
O14_7 O 0.77947(7) 0.15191(7) 0.2475(3)
O15_7 O 0.80361(7) 0.12951(7) 0.6778(3)
O3_7 O 0.91463(7) 0.15342(7) 0.9650(3)
H16_7 H 0.8825 0.2723 0.9720
O1_8 O 0.75734(7) 0.73045(10) 0.5350(3)
O2_8 O 0.82874(7) 0.85267(10) 0.2945(3)
O4_8 O 0.78337(7) 0.69933(10) 0.7753(3)
O5_8 O 0.77291(8) 0.61675(11) 0.3041(3)
O7_8 O 0.81857(7) 0.70577(10) 0.0859(3)
C1_8 C 0.73325(10) 0.69079(14) 0.5106(4)
O8_8 O 0.79617(7) 0.65923(10) 0.6556(3)
O9_8 O 0.84405(7) 0.69094(10) 0.3810(3)
H1_8 H 0.8443 0.7079 0.4476
H2_8 H 0.8291 0.6906 0.3051
C2_8 C 0.81617(10) 0.81347(14) 0.3038(4)
N1_8 N 0.71760(10) 0.58400(15) 0.1695(4)
C3_8 C 0.70088(11) 0.67888(16) 0.4225(4)
H3_8 H 0.6949 0.6974 0.3827
C4_8 C 0.82750(10) 0.79800(14) 0.1904(4)
H4_8 H 0.8432 0.8140 0.1118
C5_8 C 0.80153(11) 0.88252(15) 0.4527(4)
C6_8 C 0.79271(10) 0.79051(14) 0.4171(4)
H5_8 H 0.7848 0.8015 0.4934
C7_8 C 0.68586(11) 0.61279(16) 0.4503(4)
H6_8 H 0.6699 0.5861 0.4280
C8_8 C 0.85898(13) 0.88047(18) 0.5211(5)
H7_8 H 0.8773 0.8725 0.5004
C9_8 C 0.67725(11) 0.63971(16) 0.3930(4)
H8_6 H 0.6549 0.6314 0.3327
C10_8 C 0.78077(10) 0.75132(14) 0.4183(4)
C11_8 C 0.86259(16) 0.90128(22) 0.6489(6)
H9_8 H 0.8834 0.9077 0.7152
C12_8 C 0.79200(10) 0.73513(14) 0.3082(4)
H10_8 H 0.7839 0.7083 0.3102
C13_8 C 0.81540(9) 0.75868(13) 0.1937(4)
C14_8 C 0.74147(14) 0.58703(19) 0.2757(5)
H11_8 H 0.7342 0.5649 0.3355
C15_8 C 0.71777(10) 0.62514(15) 0.5400(4)
H12_8 H 0.7234 0.6065 0.5803
C16_8 C 0.82747(10) 0.74088(14) 0.0748(4)
C17_8 C 0.80606(13) 0.90345(18) 0.5834(5)
H13_8 H 0.7878 0.9115 0.6054
C18_8 C 0.76766(11) 0.87330(16) 0.3549(4)
C19_8 C 0.74208(10) 0.66428(14) 0.5736(4)
C20_8 C 0.82921(11) 0.87130(16) 0.4249(4)
C21_8 C 0.77551(10) 0.67526(14) 0.6739(4)
C22_8 C 0.83566(16) 0.91266(21) 0.6794(6)
H14_8 H 0.8378 0.9268 0.7669
C23_8 C 0.72687(14) 0.61715(21) 0.0753(5)
H15_8 H 0.7069 0.6245 0.0868
H17_8 H 0.7521 0.6390 0.1038
C24_8 C 0.68060(15) 0.54901(23) 0.1505(5)
H18_8 H 0.6807 0.5363 0.0580
H19_6 H 0.6599 0.5556 0.1469
H20_8 H 0.6760 0.5315 0.2336
Eu4_8 Eu 0.84678(2) 0.70630(3) 0.84269(2)
O11_8 O 0.82008(7) 0.57212(10) 0.3684(3)
O12_8 O 0.88329(7) 0.63401(10) 0.5581(3)
O14_8 O 0.84809(7) 0.62757(10) 0.2475(3)
O15_8 O 0.87049(7) 0.67411(10) 0.6778(3)
O3_8 O 0.84658(7) 0.76122(10) 0.9650(3)
H16_8 H 0.7277 0.6103 0.9720
O1_9 O 0.26955(10) 0.02690(7) 0.5350(3)
O4_9 O 0.30067(10) 0.08405(7) 0.7753(3)
O5_9 O 0.38325(11) 0.15617(8) 0.3041(3)
O7_9 O 0.29423(10) 0.11281(7) 0.0859(3)
C1_9 C 0.30921(14) 0.04247(10) 0.5106(4)
O8_9 O 0.34077(10) 0.13695(7) 0.6556(3)
O9_9 O 0.30906(10) 0.15312(7) 0.3810(3)
H1_9 H 0.2921 0.1365 0.4476
H2_9 H 0.3094 0.1386 0.3051
C2_9 C 0.18653(14) 0.00271(10) 0.3038(4)
N1_9 N 0.41600(15) 0.13361(11) 0.1695(4)
C3_9 C 0.32112(16) 0.02201(11) 0.4225(4)
C4_9 C 0.20200(14) 0.02951(10) 0.1904(4)
H4_9 H 0.1860 0.0293 0.1118
C6_9 C 0.20949(14) 0.00221(10) 0.4171(4)
C7_9 C 0.38721(16) 0.07308(11) 0.4503(4)
H6_9 H 0.4139 0.0839 0.4280
H7_9 H 0.1275 0.0049 0.5004
C9_9 C 0.36029(16) 0.03755(12) 0.3930(4)
H8_7 H 0.3686 0.0236 0.3327
C10_9 C 0.24868(14) 0.02946(10) 0.4183(4)
C12_9 C 0.26487(14) 0.05688(10) 0.3082(4)
H10_9 H 0.2917 0.0757 0.3102
C13_9 C 0.24132(13) 0.05673(9) 0.1937(4)
C14_9 C 0.41297(19) 0.15445(13) 0.2757(5)
H11_9 H 0.4351 0.1694 0.3355
C15_9 C 0.37486(15) 0.09264(11) 0.5400(4)
H12_9 H 0.3935 0.1170 0.5803
C16_9 C 0.25912(14) 0.08660(10) 0.0748(4)
C19_9 C 0.33572(14) 0.07781(10) 0.5736(4)
C21_9 C 0.32474(14) 0.10026(10) 0.6739(4)
C23_9 C 0.38285(21) 0.10973(15) 0.0753(5)
H15_9 H 0.3755 0.0825 0.0868
H17_9 H 0.3610 0.1132 0.1038
C24_9 C 0.45099(23) 0.13160(18) 0.1505(5)
H18_9 H 0.4637 0.1445 0.0580
H19_7 H 0.4444 0.1044 0.1469
H20_9 H 0.4685 0.1446 0.2336
Eu4_9 Eu 0.29370(3) 0.14049(2) 0.84269(2)
O11_9 O 0.42788(10) 0.24797(7) 0.3684(3)
O12_9 O 0.36599(10) 0.24929(7) 0.5581(3)
O14_9 O 0.37243(10) 0.22053(7) 0.2475(3)
O15_9 O 0.32589(10) 0.19639(7) 0.6778(3)
O3_9 O 0.23878(10) 0.08537(7) 0.9650(3)
H16_9 H 0.3897 0.1175 0.9720
O2_9 O 0.14733(10) 0.97608(7) 0.2945(3)
H3_9 H 0.3026 0.9976 0.3827
C5_9 C 0.11748(15) 0.91902(10) 0.4527(4)
H5_9 H 0.1985 0.9834 0.4934
C8_9 C 0.11953(18) 0.97852(13) 0.5211(5)
C11_9 C 0.09872(22) 0.96132(15) 0.6489(6)
H9_9 H 0.0923 0.9758 0.7152
C17_9 C 0.09655(18) 0.90262(12) 0.5834(5)
H13_9 H 0.0885 0.8764 0.6054
C18_9 C 0.12670(16) 0.89437(11) 0.3549(4)
C20_9 C 0.12870(16) 0.95792(11) 0.4249(4)
C22_9 C 0.08734(21) 0.92301(13) 0.6794(6)
H14_9 H 0.0732 0.9111 0.7669
O1_10 O 0.36023(7) 0.42401(7) 0.1317(3)
O2_10 O 0.30941(7) 0.49541(7) 0.3722(3)
O5_10 O 0.48950(8) 0.43958(8) 0.3626(3)
O6_4 O 0.19325(7) 0.41063(7) 0.2732(3)
C1_10 C 0.37580(10) 0.39992(10) 0.1561(4)
O9_10 O 0.48645(7) 0.51072(7) 0.2857(3)
H1_10 H 0.4698 0.5110 0.2191
H2_10 H 0.4719 0.4958 0.3616
C2_10 C 0.33604(10) 0.48284(10) 0.3629(4)
O10_4 O 0.24098(7) 0.42941(7) 0.4301(3)
N1_10 N 0.46694(11) 0.38427(10) 0.4972(4)
C3_10 C 0.35534(11) 0.36755(11) 0.2442(4)
H3_10 H 0.3309 0.3616 0.2840
C4_10 C 0.36284(10) 0.49417(10) 0.4763(4)
H4_10 H 0.3626 0.5099 0.5549
C5_10 C 0.25235(10) 0.46820(11) 0.2140(4)
C6_10 C 0.33554(10) 0.45938(10) 0.2496(4)
H5_10 H 0.3167 0.4515 0.1733
C7_10 C 0.40641(11) 0.35253(11) 0.2164(4)
H6_10 H 0.4172 0.3366 0.2387
C8_10 C 0.31185(13) 0.52565(13) 0.1456(5)
H7_10 H 0.3382 0.5440 0.1663
C9_10 C 0.37088(12) 0.34392(11) 0.2737(4)
H8_8 H 0.3569 0.3216 0.3340
C10_10 C 0.36279(10) 0.44744(10) 0.2484(4)
C11_10 C 0.29465(15) 0.52926(16) 0.0178(6)
C12_10 C 0.39021(10) 0.45867(10) 0.3585(4)
H10_10 H 0.4090 0.4506 0.3565
C13_10 C 0.39006(9) 0.48207(9) 0.4730(4)
C14_10 C 0.48778(13) 0.40814(14) 0.3910(5)
H11_10 H 0.5027 0.4009 0.3312
C15_10 C 0.42597(11) 0.38444(10) 0.1267(4)
H12_10 H 0.4503 0.3901 0.0864
C16_10 C 0.41993(10) 0.49414(10) 0.5919(4)
C17_10 C 0.23595(12) 0.47273(13) 0.0833(5)
H13_10 H 0.2097 0.4545 0.0613
C18_10 C 0.22770(11) 0.43433(11) 0.3118(4)
C19_10 C 0.41114(10) 0.40875(10) 0.0931(4)
C20_10 C 0.29125(11) 0.49588(11) 0.2418(4)
C23_10 C 0.44306(15) 0.39354(14) 0.5914(5)
H15_10 H 0.4158 0.3736 0.5799
H16_10 H 0.4508 0.3944 0.6947
H17_10 H 0.4465 0.4188 0.5629
C24_10 C 0.46493(18) 0.34727(15) 0.5162(5)
H18_10 H 0.4778 0.3474 0.6087
H19_8 H 0.4377 0.3266 0.5198
H20_10 H 0.4779 0.3427 0.4331
O16_7 O 0.52176(10) 0.42569(7) 0.0968(3)
H9_10 H 0.3091 0.5501 0.9515
C21_10 C 0.43359(10) 0.44218(10) 0.9928(4)
C22_10 C 0.25634(13) 0.50233(16) 0.9873(6)
H14_10 H 0.2444 0.5045 0.8998
O13_7 O 0.55071(10) 0.47342(7) 0.9399(3)
O5_11 O 0.56042(8) 0.04992(11) 0.3626(3)
N1_11 N 0.61573(10) 0.08267(15) 0.4972(4)
C7_11 C 0.64747(11) 0.05388(16) 0.2164(4)
H6_11 H 0.6634 0.0806 0.2387
C9_11 C 0.65608(11) 0.02696(16) 0.2737(4)
H8_9 H 0.6784 0.0353 0.3340
C14_11 C 0.59186(14) 0.07964(19) 0.3910(5)
H11_11 H 0.5991 0.1018 0.3312
C15_11 C 0.61556(10) 0.04153(15) 0.1267(4)
H12_11 H 0.6099 0.0602 0.0864
C19_11 C 0.59125(10) 0.00239(14) 0.0931(4)
C23_11 C 0.60646(14) 0.04952(21) 0.5914(5)
H15_11 H 0.6264 0.0422 0.5799
H16_11 H 0.6056 0.0564 0.6947
H17_11 H 0.5812 0.0277 0.5629
C24_11 C 0.65273(15) 0.11766(23) 0.5162(5)
H18_11 H 0.6526 0.1304 0.6087
H19_9 H 0.6734 0.1111 0.5198
H20_11 H 0.6573 0.1352 0.4331
O16_8 O 0.57431(7) 0.09608(12) 0.0968(3)
O13_8 O 0.52658(7) 0.07730(12) 0.9399(3)
O1_11 O 0.57599(7) 0.93622(10) 0.1317(3)
O2_11 O 0.50459(7) 0.81400(10) 0.3722(3)
O6_5 O 0.58937(7) 0.78262(10) 0.2732(3)
C1_11 C 0.60008(10) 0.97588(14) 0.1561(4)
O9_11 O 0.48928(7) 0.97573(10) 0.2857(3)
H1_11 H 0.4890 0.9588 0.2191
H2_11 H 0.5042 0.9761 0.3616
C2_11 C 0.51716(10) 0.85320(14) 0.3629(4)
O10_5 O 0.57059(7) 0.81157(10) 0.4301(3)
C3_11 C 0.63245(11) 0.98779(16) 0.2442(4)
H3_11 H 0.6384 0.9693 0.2840
C4_11 C 0.50583(10) 0.86867(14) 0.4763(4)
H4_11 H 0.4901 0.8527 0.5549
C5_11 C 0.53180(11) 0.78415(15) 0.2140(4)
C6_11 C 0.54062(10) 0.87616(14) 0.2496(4)
H5_11 H 0.5485 0.8652 0.1733
C8_11 C 0.47435(13) 0.78620(18) 0.1456(5)
H7_11 H 0.4560 0.7942 0.1663
C10_11 C 0.55256(10) 0.91535(14) 0.2484(4)
C11_11 C 0.47074(16) 0.76539(22) 0.0178(6)
C12_11 C 0.54133(10) 0.93154(14) 0.3585(4)
H10_11 H 0.5494 0.9584 0.3565
C13_11 C 0.51793(9) 0.90799(13) 0.4730(4)
C16_11 C 0.50586(10) 0.92579(14) 0.5919(4)
C17_11 C 0.52727(13) 0.76322(18) 0.0833(5)
H13_11 H 0.5455 0.7552 0.0613
C18_11 C 0.56567(11) 0.79337(16) 0.3118(4)
C20_11 C 0.50412(11) 0.79537(16) 0.2418(4)
H9_11 H 0.4499 0.7590 0.9515
C21_11 C 0.55782(10) 0.99141(14) 0.9928(4)
C22_11 C 0.49767(16) 0.75401(21) 0.9873(6)
H14_11 H 0.4955 0.7399 0.8998
O1_12 O 0.06378(10) 0.63977(7) 0.1317(3)
O2_12 O 0.18600(10) 0.69059(7) 0.3722(3)
O6_6 O 0.21738(10) 0.80675(7) 0.2732(3)
C1_12 C 0.02412(14) 0.62420(10) 0.1561(4)
O9_12 O 0.02427(10) 0.51355(7) 0.2857(3)
H1_12 H 0.0412 0.5302 0.2191
H2_12 H 0.0239 0.5281 0.3616
C2_12 C 0.14680(14) 0.66396(10) 0.3629(4)
O10_6 O 0.18843(10) 0.75902(7) 0.4301(3)
C3_12 C 0.01221(16) 0.64466(11) 0.2442(4)
H3_12 H 0.0307 0.6691 0.2840
C4_12 C 0.13133(14) 0.63716(10) 0.4763(4)
H4_12 H 0.1473 0.6374 0.5549
C5_12 C 0.21585(15) 0.74765(10) 0.2140(4)
C6_12 C 0.12384(14) 0.66446(10) 0.2496(4)
H5_12 H 0.1348 0.6833 0.1733
C8_12 C 0.21380(18) 0.68815(13) 0.1456(5)
H7_12 H 0.2058 0.6618 0.1663
C10_12 C 0.08465(14) 0.63721(10) 0.2484(4)
C11_12 C 0.23461(22) 0.70535(15) 0.0178(6)
C12_12 C 0.06846(14) 0.60979(10) 0.3585(4)
H10_12 H 0.0416 0.5910 0.3565
C13_12 C 0.09201(13) 0.60994(9) 0.4730(4)
C16_12 C 0.07421(14) 0.58007(10) 0.5919(4)
C17_12 C 0.23678(18) 0.76405(12) 0.0833(5)
H13_12 H 0.2448 0.7903 0.0613
C18_12 C 0.20663(16) 0.77230(11) 0.3118(4)
C20_12 C 0.20463(16) 0.70875(11) 0.2418(4)
H9_12 H 0.2410 0.6909 0.9515
C21_12 C 0.00859(14) 0.56641(10) 0.9928(4)
C22_12 C 0.24599(21) 0.74366(13) 0.9873(6)
H14_12 H 0.2601 0.7556 0.8998
O5_12 O 0.95008(11) 0.51050(8) 0.3626(3)
N1_12 N 0.91733(15) 0.53306(11) 0.4972(4)
C7_12 C 0.94612(16) 0.59359(11) 0.2164(4)
H6_12 H 0.9194 0.5828 0.2387
C9_12 C 0.97304(16) 0.62912(12) 0.2737(4)
H8_10 H 0.9647 0.6431 0.3340
C14_12 C 0.92036(19) 0.51222(13) 0.3910(5)
H11_12 H 0.8982 0.4973 0.3312
C15_12 C 0.95847(15) 0.57403(11) 0.1267(4)
H12_12 H 0.9398 0.5497 0.0864
C19_12 C 0.99761(14) 0.58886(10) 0.0931(4)
C23_12 C 0.95048(21) 0.55694(15) 0.5914(5)
H15_12 H 0.9578 0.5842 0.5799
H16_12 H 0.9436 0.5492 0.6947
H17_12 H 0.9723 0.5535 0.5629
C24_12 C 0.88234(23) 0.53507(18) 0.5162(5)
H18_12 H 0.8696 0.5222 0.6087
H19_10 H 0.8889 0.5623 0.5198
H20_12 H 0.8648 0.5221 0.4331
O16_9 O 0.90392(12) 0.47824(10) 0.0968(3)
O13_9 O 0.92270(12) 0.44929(10) 0.9399(3)
O2_13 O 0.64274(7) 0.16208(7) 0.0389(3)
O5_13 O 0.82283(8) 0.10625(8) 0.0293(3)
H2_13 H 0.8052 0.1625 0.0283
C2_13 C 0.66937(10) 0.14951(10) 0.0296(4)
N1_13 N 0.80027(11) 0.05094(10) 0.1639(4)
C4_13 C 0.69617(10) 0.16084(10) 0.1430(4)
H4_13 H 0.6959 0.1766 0.2216
C12_13 C 0.72354(10) 0.12534(10) 0.0252(4)
H10_13 H 0.7423 0.1173 0.0232
C13_13 C 0.72339(9) 0.14874(9) 0.1397(4)
C14_13 C 0.82111(13) 0.07481(14) 0.0577(5)
C16_13 C 0.75326(10) 0.16081(10) 0.2586(4)
C23_13 C 0.77639(15) 0.06021(14) 0.2581(5)
H15_13 H 0.7491 0.0403 0.2466
H16_13 H 0.7841 0.0611 0.3614
H17_13 H 0.7798 0.0855 0.2296
C24_13 C 0.79826(18) 0.01394(15) 0.1829(5)
H18_13 H 0.8111 0.0141 0.2754
H20_13 H 0.8112 0.0094 0.0998
O1_13 O 0.69356(7) 0.09068(7) 0.7984(3)
C1_13 C 0.70913(10) 0.06659(10) 0.8228(4)
O9_13 O 0.81978(7) 0.17739(7) 0.9524(3)
H1_13 H 0.8031 0.1777 0.8858
C3_13 C 0.68867(11) 0.03422(11) 0.9109(4)
H3_13 H 0.6642 0.0283 0.9507
C5_13 C 0.58568(10) 0.13487(11) 0.8807(4)
C6_13 C 0.66887(10) 0.12605(10) 0.9163(4)
H5_13 H 0.6500 0.1182 0.8400
C7_13 C 0.73974(11) 0.01920(11) 0.8831(4)
H6_13 H 0.7505 0.0033 0.9054
C8_13 C 0.64518(13) 0.19232(13) 0.8123(5)
H7_13 H 0.6715 0.2107 0.8330
C9_13 C 0.70421(12) 0.01059(11) 0.9404(4)
C10_13 C 0.69612(10) 0.11411(10) 0.9151(4)
C11_13 C 0.62798(15) 0.19593(16) 0.6845(6)
H9_13 H 0.6424 0.2168 0.6182
H11_13 H 0.8360 0.0676 0.9979
C15_13 C 0.75930(11) 0.05111(10) 0.7934(4)
H12_13 H 0.7836 0.0568 0.7531
C17_13 C 0.56928(12) 0.13940(13) 0.7500(5)
H13_13 H 0.5430 0.1212 0.7280
C18_13 C 0.56103(11) 0.10100(11) 0.9785(4)
C19_13 C 0.74447(10) 0.07542(10) 0.7598(4)
C20_13 C 0.62458(11) 0.16255(11) 0.9085(4)
C21_13 C 0.76692(10) 0.10885(10) 0.6595(4)
C22_13 C 0.58967(13) 0.16900(16) 0.6540(6)
H14_13 H 0.5777 0.1712 0.5665
O13_10 O 0.88405(10) 0.14008(7) 0.6065(3)
O16_10 O 0.85510(10) 0.09235(7) 0.7634(3)
O2_14 O 0.83792(7) 0.48067(10) 0.0389(3)
O5_14 O 0.89375(8) 0.71659(11) 0.0293(3)
H2_14 H 0.8375 0.6428 0.0283
C2_14 C 0.85049(10) 0.51987(14) 0.0296(4)
N1_14 N 0.94906(10) 0.74934(15) 0.1639(4)
C4_14 C 0.83916(10) 0.53534(14) 0.1430(4)
H4_14 H 0.8234 0.5194 0.2216
C12_14 C 0.87466(10) 0.59821(14) 0.0252(4)
H10_14 H 0.8827 0.6251 0.0232
C13_14 C 0.85126(9) 0.57466(13) 0.1397(4)
C14_14 C 0.92519(14) 0.74631(19) 0.0577(5)
C16_14 C 0.83919(10) 0.59246(14) 0.2586(4)
C23_14 C 0.93979(14) 0.71619(21) 0.2581(5)
H15_14 H 0.9597 0.7089 0.2466
H16_14 H 0.9389 0.7231 0.3614
H17_14 H 0.9145 0.6944 0.2296
C24_14 C 0.98606(15) 0.78433(23) 0.1829(5)
H18_14 H 0.9859 0.7971 0.2754
H20_14 H 0.9906 0.8019 0.0998
O1_14 O 0.90932(7) 0.60289(10) 0.7984(3)
C1_14 C 0.93341(10) 0.64255(14) 0.8228(4)
O9_14 O 0.82261(7) 0.64240(10) 0.9524(3)
H1_14 H 0.8223 0.6255 0.8858
C3_14 C 0.96578(11) 0.65446(16) 0.9109(4)
H3_14 H 0.9717 0.6360 0.9507
C5_14 C 0.86513(11) 0.45082(15) 0.8807(4)
C6_14 C 0.87395(10) 0.54283(14) 0.9163(4)
H5_14 H 0.8818 0.5319 0.8400
C7_14 C 0.98080(11) 0.72055(16) 0.8831(4)
H6_14 H 0.9967 0.7473 0.9054
C8_14 C 0.80768(13) 0.45287(18) 0.8123(5)
H7_14 H 0.7893 0.4609 0.8330
C9_14 C 0.98941(11) 0.69363(16) 0.9404(4)
C10_14 C 0.88589(10) 0.58202(14) 0.9151(4)
C11_14 C 0.80407(16) 0.43206(22) 0.6845(6)
H9_14 H 0.7832 0.4257 0.6182
H11_14 H 0.9324 0.7685 0.9979
C15_14 C 0.94889(10) 0.70820(15) 0.7934(4)
H12_14 H 0.9432 0.7269 0.7531
C17_14 C 0.86060(13) 0.42989(18) 0.7500(5)
H13_14 H 0.8788 0.4219 0.7280
C18_14 C 0.89900(11) 0.46004(16) 0.9785(4)
C19_14 C 0.92458(10) 0.66906(14) 0.7598(4)
C20_14 C 0.83745(11) 0.46204(16) 0.9085(4)
C21_14 C 0.89115(10) 0.65808(14) 0.6595(4)
C22_14 C 0.83100(16) 0.42068(21) 0.6540(6)
H14_14 H 0.8288 0.4066 0.5665
O13_11 O 0.85992(7) 0.74396(12) 0.6065(3)
O16_11 O 0.90765(7) 0.76274(12) 0.7634(3)
O2_15 O 0.51933(10) 0.35726(7) 0.0389(3)
O5_15 O 0.28341(11) 0.17717(8) 0.0293(3)
H2_15 H 0.3572 0.1948 0.0283
C2_15 C 0.48013(14) 0.33063(10) 0.0296(4)
N1_15 N 0.25066(15) 0.19973(11) 0.1639(4)
C4_15 C 0.46466(14) 0.30383(10) 0.1430(4)
H4_15 H 0.4806 0.3041 0.2216
H8_11 H 0.2980 0.3098 0.0007
C12_15 C 0.40179(14) 0.27646(10) 0.0252(4)
H10_15 H 0.3749 0.2577 0.0232
C13_15 C 0.42534(13) 0.27661(9) 0.1397(4)
C14_15 C 0.25369(19) 0.17889(13) 0.0577(5)
C16_15 C 0.40754(14) 0.24674(10) 0.2586(4)
C23_15 C 0.28381(21) 0.22361(15) 0.2581(5)
H15_15 H 0.2911 0.2509 0.2466
H16_15 H 0.2769 0.2159 0.3614
H17_15 H 0.3056 0.2202 0.2296
C24_15 C 0.21567(23) 0.20174(18) 0.1829(5)
H18_15 H 0.2029 0.1889 0.2754
H19_11 H 0.2222 0.2290 0.1865
H20_15 H 0.1981 0.1888 0.0998
O1_15 O 0.39711(10) 0.30644(7) 0.7984(3)
C1_15 C 0.35745(14) 0.29087(10) 0.8228(4)
O9_15 O 0.35760(10) 0.18022(7) 0.9524(3)
H1_15 H 0.3745 0.1969 0.8858
C3_15 C 0.34554(16) 0.31133(11) 0.9109(4)
H3_15 H 0.3640 0.3358 0.9507
C5_15 C 0.54918(15) 0.41432(10) 0.8807(4)
C6_15 C 0.45717(14) 0.33113(10) 0.9163(4)
H5_15 H 0.4681 0.3500 0.8400
C7_15 C 0.27945(16) 0.26026(11) 0.8831(4)
H6_15 H 0.2527 0.2495 0.9054
C8_15 C 0.54713(18) 0.35482(13) 0.8123(5)
H7_15 H 0.5391 0.3285 0.8330
C9_15 C 0.30637(16) 0.29579(12) 0.9404(4)
C10_15 C 0.41798(14) 0.30388(10) 0.9151(4)
C11_15 C 0.56794(22) 0.37202(15) 0.6845(6)
H9_15 H 0.5743 0.3576 0.6182
H11_15 H 0.2315 0.1640 0.9979
C15_15 C 0.29180(15) 0.24070(11) 0.7934(4)
H12_15 H 0.2731 0.2164 0.7531
C17_15 C 0.57011(18) 0.43072(12) 0.7500(5)
H13_15 H 0.5781 0.4570 0.7280
C18_15 C 0.53996(16) 0.43897(11) 0.9785(4)
C19_15 C 0.33094(14) 0.25553(10) 0.7598(4)
C20_15 C 0.53796(16) 0.37542(11) 0.9085(4)
C21_15 C 0.34192(14) 0.23308(10) 0.6595(4)
C22_15 C 0.57932(21) 0.41033(13) 0.6540(6)
H14_15 H 0.5934 0.4223 0.5665
O13_12 O 0.25604(12) 0.11595(10) 0.6065(3)
O16_12 O 0.23726(12) 0.14490(10) 0.7634(3)
H16_16 H 0.1175 0.7277 0.0280
O1_16 O 0.02690(7) 0.75734(7) 0.4650(3)
O5_16 O 0.15617(8) 0.77291(8) 0.6959(3)
C1_16 C 0.04247(10) 0.73325(10) 0.4894(4)
O9_16 O 0.15312(7) 0.84405(7) 0.6190(3)
H1_16 H 0.1365 0.8443 0.5524
H2_16 H 0.1386 0.8291 0.6949
C2_16 C 0.00271(10) 0.81617(10) 0.6962(4)
N1_16 N 0.13361(11) 0.71760(10) 0.8305(4)
C3_16 C 0.02201(11) 0.70088(11) 0.5775(4)
C4_16 C 0.02951(10) 0.82750(10) 0.8096(4)
H4_16 H 0.0293 0.8432 0.8882
C6_16 C 0.00221(10) 0.79271(10) 0.5829(4)
C7_16 C 0.07308(11) 0.68586(11) 0.5497(4)
H6_16 H 0.0839 0.6699 0.5720
H7_16 H 0.0049 0.8773 0.4996
C9_16 C 0.03755(12) 0.67725(11) 0.6070(4)
H8_12 H 0.0236 0.6549 0.6673
C10_16 C 0.02946(10) 0.78077(10) 0.5817(4)
C12_16 C 0.05688(10) 0.79200(10) 0.6918(4)
H10_16 H 0.0757 0.7839 0.6898
C13_16 C 0.05673(9) 0.81540(9) 0.8063(4)
C14_16 C 0.15445(13) 0.74147(14) 0.7243(5)
H11_16 H 0.1694 0.7342 0.6645
C15_16 C 0.09264(11) 0.71777(10) 0.4600(4)
H12_16 H 0.1170 0.7234 0.4197
C16_16 C 0.08660(10) 0.82747(10) 0.9252(4)
C19_16 C 0.07781(10) 0.74208(10) 0.4264(4)
C21_16 C 0.10026(10) 0.77551(10) 0.3261(4)
C23_16 C 0.10973(15) 0.72687(14) 0.9247(5)
H15_16 H 0.0825 0.7069 0.9132
H17_16 H 0.1132 0.7521 0.8962
C24_16 C 0.13160(18) 0.68060(15) 0.8495(5)
H18_16 H 0.1445 0.6807 0.9420
H19_12 H 0.1044 0.6599 0.8531
H20_16 H 0.1446 0.6760 0.7664
O2_16 O 0.97608(7) 0.82874(7) 0.7055(3)
H3_16 H 0.9976 0.6949 0.6173
C5_16 C 0.91902(10) 0.80153(11) 0.5473(4)
H5_16 H 0.9834 0.7848 0.5066
C8_16 C 0.97852(13) 0.85898(13) 0.4789(5)
C11_16 C 0.96132(15) 0.86259(16) 0.3511(6)
H9_16 H 0.9758 0.8834 0.2848
C17_16 C 0.90262(12) 0.80606(13) 0.4166(5)
H13_16 H 0.8764 0.7878 0.3946
C18_16 C 0.89437(11) 0.76766(11) 0.6451(4)
C20_16 C 0.95792(11) 0.82921(11) 0.5751(4)
C22_16 C 0.92301(13) 0.83566(16) 0.3206(6)
H14_16 H 0.9111 0.8378 0.2331
H16_17 H 0.2723 0.3897 0.0280
O1_17 O 0.24266(7) 0.26955(10) 0.4650(3)
O2_17 O 0.17126(7) 0.14733(10) 0.7055(3)
O5_17 O 0.22709(8) 0.38325(11) 0.6959(3)
C1_17 C 0.26675(10) 0.30921(14) 0.4894(4)
O9_17 O 0.15595(7) 0.30906(10) 0.6190(3)
H1_17 H 0.1557 0.2921 0.5524
H2_17 H 0.1709 0.3094 0.6949
C2_17 C 0.18383(10) 0.18653(14) 0.6962(4)
N1_17 N 0.28240(10) 0.41600(15) 0.8305(4)
C3_17 C 0.29912(11) 0.32112(16) 0.5775(4)
H3_17 H 0.3051 0.3026 0.6173
C4_17 C 0.17250(10) 0.20200(14) 0.8096(4)
H4_17 H 0.1568 0.1860 0.8882
C5_17 C 0.19847(11) 0.11748(15) 0.5473(4)
C6_17 C 0.20729(10) 0.20949(14) 0.5829(4)
H5_17 H 0.2152 0.1985 0.5066
C7_17 C 0.31414(11) 0.38721(16) 0.5497(4)
H6_17 H 0.3301 0.4139 0.5720
C8_17 C 0.14102(13) 0.11953(18) 0.4789(5)
H7_17 H 0.1227 0.1275 0.4996
C9_17 C 0.32275(11) 0.36029(16) 0.6070(4)
H8_13 H 0.3451 0.3686 0.6673
C10_17 C 0.21923(10) 0.24868(14) 0.5817(4)
C11_17 C 0.13741(16) 0.09872(22) 0.3511(6)
H9_17 H 0.1166 0.0923 0.2848
C12_17 C 0.20800(10) 0.26487(14) 0.6918(4)
H10_17 H 0.2161 0.2917 0.6898
C13_17 C 0.18460(9) 0.24132(13) 0.8063(4)
C14_17 C 0.25853(14) 0.41297(19) 0.7243(5)
H11_17 H 0.2658 0.4351 0.6645
C15_17 C 0.28223(10) 0.37486(15) 0.4600(4)
H12_17 H 0.2766 0.3935 0.4197
C16_17 C 0.17253(10) 0.25912(14) 0.9252(4)
C17_17 C 0.19394(13) 0.09655(18) 0.4166(5)
H13_17 H 0.2122 0.0885 0.3946
C18_17 C 0.23234(11) 0.12670(16) 0.6451(4)
C19_17 C 0.25792(10) 0.33572(14) 0.4264(4)
C20_17 C 0.17079(11) 0.12870(16) 0.5751(4)
C21_17 C 0.22449(10) 0.32474(14) 0.3261(4)
C22_17 C 0.16434(16) 0.08734(21) 0.3206(6)
H14_17 H 0.1622 0.0732 0.2331
C23_17 C 0.27313(14) 0.38285(21) 0.9247(5)
H15_17 H 0.2931 0.3755 0.9132
H17_17 H 0.2479 0.3610 0.8962
C24_17 C 0.31940(15) 0.45099(23) 0.8495(5)
H18_17 H 0.3193 0.4637 0.9420
H19_13 H 0.3401 0.4444 0.8531
H20_17 H 0.3240 0.4685 0.7664
O2_18 O 0.85267(10) 0.02392(7) 0.7055(3)
H3_18 H 0.6974 0.0024 0.6173
C5_18 C 0.88252(15) 0.08098(10) 0.5473(4)
H5_18 H 0.8015 0.0166 0.5066
C8_18 C 0.88047(18) 0.02148(13) 0.4789(5)
C11_18 C 0.90128(22) 0.03868(15) 0.3511(6)
H9_18 H 0.9077 0.0242 0.2848
C17_18 C 0.90345(18) 0.09738(12) 0.4166(5)
H13_18 H 0.9115 0.1236 0.3946
C18_18 C 0.87330(16) 0.10563(11) 0.6451(4)
C20_18 C 0.87130(16) 0.04208(11) 0.5751(4)
C22_18 C 0.91266(21) 0.07699(13) 0.3206(6)
H14_18 H 0.9268 0.0889 0.2331
H16_18 H 0.6103 0.8825 0.0280
O1_18 O 0.73045(10) 0.97310(7) 0.4650(3)
O5_18 O 0.61675(11) 0.84383(8) 0.6959(3)
C1_18 C 0.69079(14) 0.95753(10) 0.4894(4)
O9_18 O 0.69094(10) 0.84688(7) 0.6190(3)
H1_18 H 0.7079 0.8635 0.5524
H2_18 H 0.6906 0.8614 0.6949
C2_18 C 0.81347(14) 0.99729(10) 0.6962(4)
N1_18 N 0.58400(15) 0.86639(11) 0.8305(4)
C3_18 C 0.67888(16) 0.97799(11) 0.5775(4)
C4_18 C 0.79800(14) 0.97049(10) 0.8096(4)
H4_18 H 0.8140 0.9707 0.8882
C6_18 C 0.79051(14) 0.99779(10) 0.5829(4)
C7_18 C 0.61279(16) 0.92692(11) 0.5497(4)
H6_18 H 0.5861 0.9161 0.5720
H7_18 H 0.8725 0.9951 0.4996
C9_18 C 0.63971(16) 0.96245(12) 0.6070(4)
H8_14 H 0.6314 0.9764 0.6673
C10_18 C 0.75132(14) 0.97054(10) 0.5817(4)
C12_18 C 0.73513(14) 0.94312(10) 0.6918(4)
H10_18 H 0.7083 0.9243 0.6898
C13_18 C 0.75868(13) 0.94327(9) 0.8063(4)
C14_18 C 0.58703(19) 0.84555(13) 0.7243(5)
H11_18 H 0.5649 0.8306 0.6645
C15_18 C 0.62514(15) 0.90736(11) 0.4600(4)
H12_18 H 0.6065 0.8830 0.4197
C16_18 C 0.74088(14) 0.91340(10) 0.9252(4)
C19_18 C 0.66428(14) 0.92219(10) 0.4264(4)
C21_18 C 0.67526(14) 0.89974(10) 0.3261(4)
C23_18 C 0.61715(21) 0.89027(15) 0.9247(5)
H15_18 H 0.6245 0.9175 0.9132
H17_18 H 0.6390 0.8868 0.8962
C24_18 C 0.54901(23) 0.86840(18) 0.8495(5)
H18_18 H 0.5363 0.8555 0.9420
H19_14 H 0.5556 0.8956 0.8531
H20_18 H 0.5315 0.8554 0.7664
H8_15 H 0.3098 0.0117 0.9993
H19_15 H 0.2290 0.0067 0.8135
H8_16 H 0.9883 0.2980 0.9993
H19_16 H 0.9933 0.2222 0.8135
H8_17 H 0.6902 0.9883 0.0007
H19_17 H 0.7710 0.9933 0.1865
H8_18 H 0.0117 0.7020 0.0007
H19_18 H 0.0067 0.7778 0.1865
loop_
_geom_bond_atom_site_label_1
_geom_bond_atom_site_label_2
_geom_bond_site_symmetry_1
_geom_bond_site_symmetry_2
O4 C21 1_555 1_555
H14 C22 1_555 1_555
Eu4 O4 1_555 1_555
Eu4 O15 1_555 1_555
Eu1 O5 1_555 1_555
O1 C1 1_555 1_555
O2 C2 1_555 1_555
O3 C16 1_555 1_555
O5 C14 1_555 1_555
O6 C18 1_555 1_555
O7 C16 1_555 1_555
C1 C3 1_555 1_555
O8 Eu1 1_555 1_555
O9 Eu1 1_555 1_555
H1 O9 1_555 1_555
H2 O9 1_555 1_555
C2 C4 1_555 1_555
O10 C18 1_555 1_555
N1 C14 1_555 1_555
C3 H3 1_555 1_555
C4 H4 1_555 1_555
C5 C17 1_555 1_555
C6 C2 1_555 1_555
H5 C6 1_555 1_555
C7 H6 1_555 1_555
C8 H7 1_555 1_555
C9 C3 1_555 1_555
H8 C9 1_555 1_555
C10 O1 1_555 1_555
C11 C8 1_555 1_555
C12 C10 1_555 1_555
H10 C12 1_555 1_555
C13 C4 1_555 1_555
C14 H11 1_555 1_555
C15 C7 1_555 1_555
H12 C15 1_555 1_555
C16 C13 1_555 1_555
C17 H13 1_555 1_555
C18 C5 1_555 1_555
C19 C1 1_555 1_555
C20 O2 1_555 1_555
C23 N1 1_555 1_555
H15 C23 1_555 1_555
H16 C23 1_555 1_555
H17 C23 1_555 1_555
C24 N1 1_555 1_555
H18 C24 1_555 1_555
H19 C24 1_555 1_555
H20 C24 1_555 1_555
Eu2 O6 1_555 1_555
Eu4 O3 1_555 1_555
O11 Eu1 1_555 1_555
O12 Eu1 1_555 1_555
O14 Eu1 1_555 1_555
O16 Eu1 1_555 1_555
O7 Eu4 1_555 1_555
O10 Eu2 1_555 1_555
C5 C20 1_555 1_555
C6 C10 1_555 1_555
C7 C9 1_555 1_555
C8 C20 1_555 1_555
C12 C13 1_555 1_555
C15 C19 1_555 1_555
O4_2 C21_2 1_555 1_555
H14_2 C22_2 1_555 1_555
Eu4_2 O4_2 1_555 1_555
Eu4_2 O15_2 1_555 1_555
O1_2 C1_2 1_555 1_555
O2_2 C2_2 1_555 1_555
O3_2 C16_2 1_555 1_555
O6_2 C18_2 1_555 1_555
O7_2 C16_2 1_555 1_555
C1_2 C3_2 1_555 1_555
H1_2 O9_2 1_555 1_555
H2_2 O9_2 1_555 1_555
C2_2 C4_2 1_555 1_555
O10_2 C18_2 1_555 1_555
C3_2 H3_2 1_555 1_555
C4_2 H4_2 1_555 1_555
C5_2 C17_2 1_555 1_555
C6_2 C2_2 1_555 1_555
H5_2 C6_2 1_555 1_555
C8_2 H7_2 1_555 1_555
C10_2 O1_2 1_555 1_555
C11_2 C8_2 1_555 1_555
C12_2 C10_2 1_555 1_555
H10_2 C12_2 1_555 1_555
C13_2 C4_2 1_555 1_555
C16_2 C13_2 1_555 1_555
C17_2 H13_2 1_555 1_555
C18_2 C5_2 1_555 1_555
C20_2 O2_2 1_555 1_555
Eu2_2 O6_2 1_555 1_555
Eu4_2 O3_2 1_555 1_555
O7_2 Eu4_2 1_555 1_555
O10_2 Eu2_2 1_555 1_555
C5_2 C20_2 1_555 1_555
C6_2 C10_2 1_555 1_555
C8_2 C20_2 1_555 1_555
C12_2 C13_2 1_555 1_555
Eu1_2 O5_2 1_555 1_555
O5_2 C14_2 1_555 1_555
O8_2 Eu1_2 1_555 1_555
N1_2 C14_2 1_555 1_555
C7_2 H6_2 1_555 1_555
H8_2 C9_2 1_555 1_555
C14_2 H11_2 1_555 1_555
C15_2 C7_2 1_555 1_555
H12_2 C15_2 1_555 1_555
C23_2 N1_2 1_555 1_555
H15_2 C23_2 1_555 1_555
H16_2 C23_2 1_555 1_555
H17_2 C23_2 1_555 1_555
C24_2 N1_2 1_555 1_555
H18_2 C24_2 1_555 1_555
H19_2 C24_2 1_555 1_555
H20_2 C24_2 1_555 1_555
O11_2 Eu1_2 1_555 1_555
O12_2 Eu1_2 1_555 1_555
O14_2 Eu1_2 1_555 1_555
O16_2 Eu1_2 1_555 1_555
C7_2 C9_2 1_555 1_555
C15_2 C19_2 1_555 1_555
Eu1_3 O5_3 1_555 1_555
O5_3 C14_3 1_555 1_555
O8_3 Eu1_3 1_555 1_555
N1_3 C14_3 1_555 1_555
C7_3 H6_3 1_555 1_555
H8_3 C9_3 1_555 1_555
C14_3 H11_3 1_555 1_555
C15_3 C7_3 1_555 1_555
H12_3 C15_3 1_555 1_555
C23_3 N1_3 1_555 1_555
H15_3 C23_3 1_555 1_555
H16_3 C23_3 1_555 1_555
H17_3 C23_3 1_555 1_555
C24_3 N1_3 1_555 1_555
H18_3 C24_3 1_555 1_555
H19_3 C24_3 1_555 1_555
H20_3 C24_3 1_555 1_555
O11_3 Eu1_3 1_555 1_555
O12_3 Eu1_3 1_555 1_555
O14_3 Eu1_3 1_555 1_555
O16_3 Eu1_3 1_555 1_555
C7_3 C9_3 1_555 1_555
C15_3 C19_3 1_555 1_555
O4_3 C21_3 1_555 1_555
H14_3 C22_3 1_555 1_555
Eu4_3 O4_3 1_555 1_555
Eu4_3 O15_3 1_555 1_555
O1_3 C1_3 1_555 1_555
O2_3 C2_3 1_555 1_555
O3_3 C16_3 1_555 1_555
O6_3 C18_3 1_555 1_555
O7_3 C16_3 1_555 1_555
C1_3 C3_3 1_555 1_555
H1_3 O9_3 1_555 1_555
H2_3 O9_3 1_555 1_555
C2_3 C4_3 1_555 1_555
O10_3 C18_3 1_555 1_555
C3_3 H3_3 1_555 1_555
C4_3 H4_3 1_555 1_555
C5_3 C17_3 1_555 1_555
C6_3 C2_3 1_555 1_555
H5_3 C6_3 1_555 1_555
C8_3 H7_3 1_555 1_555
C10_3 O1_3 1_555 1_555
C11_3 C8_3 1_555 1_555
C12_3 C10_3 1_555 1_555
H10_3 C12_3 1_555 1_555
C13_3 C4_3 1_555 1_555
C16_3 C13_3 1_555 1_555
C17_3 H13_3 1_555 1_555
C18_3 C5_3 1_555 1_555
C20_3 O2_3 1_555 1_555
Eu2_3 O6_3 1_555 1_555
Eu4_3 O3_3 1_555 1_555
O7_3 Eu4_3 1_555 1_555
O10_3 Eu2_3 1_555 1_555
C5_3 C20_3 1_555 1_555
C6_3 C10_3 1_555 1_555
C8_3 C20_3 1_555 1_555
C12_3 C13_3 1_555 1_555
O1_4 C1_4 1_555 1_555
O4_4 C21_4 1_555 1_555
O13_2 C18_4 1_555 1_555
C1_4 C3_4 1_555 1_555
O8_4 Eu1_4 1_555 1_555
O9_4 Eu1_4 1_555 1_555
H1_4 O9_4 1_555 1_555
C3_4 H3_4 1_555 1_555
C5_4 C17_4 1_555 1_555
H5_4 C6_4 1_555 1_555
C7_4 H6_4 1_555 1_555
C8_4 H7_4 1_555 1_555
C9_4 C3_4 1_555 1_555
C10_4 O1_4 1_555 1_555
C11_4 C8_4 1_555 1_555
H9_4 C11_4 1_555 1_555
C15_4 C7_4 1_555 1_555
H12_4 C15_4 1_555 1_555
C17_4 H13_4 1_555 1_555
C18_4 C5_4 1_555 1_555
C19_4 C1_4 1_555 1_555
C21_4 O8_4 1_555 1_555
C22_4 C11_4 1_555 1_555
H14_4 C22_4 1_555 1_555
Eu4_4 O4_4 1_555 1_555
O11_4 Eu1_4 1_555 1_555
O12_4 Eu1_4 1_555 1_555
O13_4 Eu1_4 1_555 1_555
O15_4 Eu1_4 1_555 1_555
O16_4 Eu1_4 1_555 1_555
O8_4 Eu4_4 1_555 1_555
C5_4 C20_4 1_555 1_555
C6_4 C10_4 1_555 1_555
C7_4 C9_4 1_555 1_555
C8_4 C20_4 1_555 1_555
C15_4 C19_4 1_555 1_555
C17_4 C22_4 1_555 1_555
C19_4 C21_4 1_555 1_555
Eu4_4 O15_4 1_555 1_555
O2_4 C2_4 1_555 1_555
O3_4 C16_4 1_555 1_555
O5_4 C14_4 1_555 1_555
O7_4 C16_4 1_555 1_555
C2_4 C4_4 1_555 1_555
N1_4 C14_4 1_555 1_555
C4_4 H4_4 1_555 1_555
H10_4 C12_4 1_555 1_555
C13_4 C4_4 1_555 1_555
C16_4 C13_4 1_555 1_555
C23_4 N1_4 1_555 1_555
H15_4 C23_4 1_555 1_555
H16_4 C23_4 1_555 1_555
H17_4 C23_4 1_555 1_555
C24_4 N1_4 1_555 1_555
H18_4 C24_4 1_555 1_555
H20_4 C24_4 1_555 1_555
Eu4_4 O3_4 1_555 1_555
O7_4 Eu4_4 1_555 1_555
C12_4 C13_4 1_555 1_555
O1_5 C1_5 1_555 1_555
O4_5 C21_5 1_555 1_555
O13_3 C18_5 1_555 1_555
C1_5 C3_5 1_555 1_555
O8_5 Eu1_5 1_555 1_555
O9_5 Eu1_5 1_555 1_555
H1_5 O9_5 1_555 1_555
C3_5 H3_5 1_555 1_555
C5_5 C17_5 1_555 1_555
H5_5 C6_5 1_555 1_555
C7_5 H6_5 1_555 1_555
C8_5 H7_5 1_555 1_555
C9_5 C3_5 1_555 1_555
C10_5 O1_5 1_555 1_555
C11_5 C8_5 1_555 1_555
H9_5 C11_5 1_555 1_555
C15_5 C7_5 1_555 1_555
H12_5 C15_5 1_555 1_555
C17_5 H13_5 1_555 1_555
C18_5 C5_5 1_555 1_555
C19_5 C1_5 1_555 1_555
C21_5 O8_5 1_555 1_555
C22_5 C11_5 1_555 1_555
H14_5 C22_5 1_555 1_555
Eu4_5 O4_5 1_555 1_555
O11_5 Eu1_5 1_555 1_555
O12_5 Eu1_5 1_555 1_555
O13_5 Eu1_5 1_555 1_555
O15_5 Eu1_5 1_555 1_555
O16_5 Eu1_5 1_555 1_555
O8_5 Eu4_5 1_555 1_555
C5_5 C20_5 1_555 1_555
C6_5 C10_5 1_555 1_555
C7_5 C9_5 1_555 1_555
C8_5 C20_5 1_555 1_555
C15_5 C19_5 1_555 1_555
C17_5 C22_5 1_555 1_555
C19_5 C21_5 1_555 1_555
Eu4_5 O15_5 1_555 1_555
O2_5 C2_5 1_555 1_555
O3_5 C16_5 1_555 1_555
O5_5 C14_5 1_555 1_555
O7_5 C16_5 1_555 1_555
C2_5 C4_5 1_555 1_555
N1_5 C14_5 1_555 1_555
C4_5 H4_5 1_555 1_555
H10_5 C12_5 1_555 1_555
C13_5 C4_5 1_555 1_555
C16_5 C13_5 1_555 1_555
C23_5 N1_5 1_555 1_555
H15_5 C23_5 1_555 1_555
H16_5 C23_5 1_555 1_555
H17_5 C23_5 1_555 1_555
C24_5 N1_5 1_555 1_555
H18_5 C24_5 1_555 1_555
H20_5 C24_5 1_555 1_555
Eu4_5 O3_5 1_555 1_555
O7_5 Eu4_5 1_555 1_555
C12_5 C13_5 1_555 1_555
O1_6 C1_6 1_555 1_555
O4_6 C21_6 1_555 1_555
O13 C18_6 1_555 1_555
C1_6 C3_6 1_555 1_555
O8_6 Eu1_6 1_555 1_555
O9_6 Eu1_6 1_555 1_555
H1_6 O9_6 1_555 1_555
C3_6 H3_6 1_555 1_555
C5_6 C17_6 1_555 1_555
H5_6 C6_6 1_555 1_555
C7_6 H6_6 1_555 1_555
C8_6 H7_6 1_555 1_555
C9_6 C3_6 1_555 1_555
C10_6 O1_6 1_555 1_555
C11_6 C8_6 1_555 1_555
H9_6 C11_6 1_555 1_555
C15_6 C7_6 1_555 1_555
H12_6 C15_6 1_555 1_555
C17_6 H13_6 1_555 1_555
C18_6 C5_6 1_555 1_555
C19_6 C1_6 1_555 1_555
C21_6 O8_6 1_555 1_555
C22_6 C11_6 1_555 1_555
H14_6 C22_6 1_555 1_555
Eu4_6 O4_6 1_555 1_555
O11_6 Eu1_6 1_555 1_555
O12_6 Eu1_6 1_555 1_555
O13_6 Eu1_6 1_555 1_555
O15_6 Eu1_6 1_555 1_555
O16_6 Eu1_6 1_555 1_555
O8_6 Eu4_6 1_555 1_555
C5_6 C20_6 1_555 1_555
C6_6 C10_6 1_555 1_555
C7_6 C9_6 1_555 1_555
C8_6 C20_6 1_555 1_555
C15_6 C19_6 1_555 1_555
C17_6 C22_6 1_555 1_555
C19_6 C21_6 1_555 1_555
Eu4_6 O15_6 1_555 1_555
O2_6 C2_6 1_555 1_555
O3_6 C16_6 1_555 1_555
O5_6 C14_6 1_555 1_555
O7_6 C16_6 1_555 1_555
C2_6 C4_6 1_555 1_555
N1_6 C14_6 1_555 1_555
C4_6 H4_6 1_555 1_555
H10_6 C12_6 1_555 1_555
C13_6 C4_6 1_555 1_555
C16_6 C13_6 1_555 1_555
C23_6 N1_6 1_555 1_555
H15_6 C23_6 1_555 1_555
H16_6 C23_6 1_555 1_555
H17_6 C23_6 1_555 1_555
C24_6 N1_6 1_555 1_555
H18_6 C24_6 1_555 1_555
H19_4 C24_6 1_555 1_555
H20_6 C24_6 1_555 1_555
Eu4_6 O3_6 1_555 1_555
O7_6 Eu4_6 1_555 1_555
C12_6 C13_6 1_555 1_555
O13_5 C18_7 1_555 1_555
O16_5 C18_7 1_555 1_555
C5_7 C17_7 1_555 1_555
C11_7 C8_7 1_555 1_555
H9_7 C11_7 1_555 1_555
C17_7 H13_7 1_555 1_555
C18_7 C5_7 1_555 1_555
C20_7 O2_7 1_555 1_555
C22_7 C11_7 1_555 1_555
H14_7 C22_7 1_555 1_555
C5_7 C20_7 1_555 1_555
C8_7 C20_7 1_555 1_555
C17_7 C22_7 1_555 1_555
Eu2_3 O5_7 1_555 1_555
O1_7 C1_7 1_555 1_555
O4_7 C21_7 1_555 1_555
O5_7 C14_7 1_555 1_555
O7_7 C16_7 1_555 1_555
C1_7 C3_7 1_555 1_555
O8_7 Eu2_3 1_555 1_555
O9_7 Eu2_3 1_555 1_555
H1_7 O9_7 1_555 1_555
H2_7 O9_7 1_555 1_555
C2_7 C4_7 1_555 1_555
N1_7 C14_7 1_555 1_555
C4_7 H4_7 1_555 1_555
C6_7 C2_7 1_555 1_555
C7_7 H6_7 1_555 1_555
C9_7 C3_7 1_555 1_555
H8_5 C9_7 1_555 1_555
C10_7 O1_7 1_555 1_555
C12_7 C10_7 1_555 1_555
H10_7 C12_7 1_555 1_555
C13_7 C4_7 1_555 1_555
C14_7 H11_7 1_555 1_555
C15_7 C7_7 1_555 1_555
H12_7 C15_7 1_555 1_555
C16_7 C13_7 1_555 1_555
C19_7 C1_7 1_555 1_555
C21_7 O8_7 1_555 1_555
C23_7 N1_7 1_555 1_555
H15_7 C23_7 1_555 1_555
H17_7 C23_7 1_555 1_555
C24_7 N1_7 1_555 1_555
H18_7 C24_7 1_555 1_555
H19_5 C24_7 1_555 1_555
H20_7 C24_7 1_555 1_555
Eu4_7 O4_7 1_555 1_555
O11_7 Eu2_3 1_555 1_555
O12_7 Eu2_3 1_555 1_555
O14_7 Eu2_3 1_555 1_555
O15_7 Eu2_3 1_555 1_555
O8_7 Eu4_7 1_555 1_555
C6_7 C10_7 1_555 1_555
C7_7 C9_7 1_555 1_555
C12_7 C13_7 1_555 1_555
C15_7 C19_7 1_555 1_555
C19_7 C21_7 1_555 1_555
Eu4_7 O15_7 1_555 1_555
Eu4_7 O3_7 1_555 1_555
Eu2 O5_8 1_555 1_555
O1_8 C1_8 1_555 1_555
O2_8 C2_8 1_555 1_555
O4_8 C21_8 1_555 1_555
O5_8 C14_8 1_555 1_555
O13_6 C18_8 1_555 1_555
O7_8 C16_8 1_555 1_555
C1_8 C3_8 1_555 1_555
O8_8 Eu2 1_555 1_555
O9_8 Eu2 1_555 1_555
H1_8 O9_8 1_555 1_555
H2_8 O9_8 1_555 1_555
C2_8 C4_8 1_555 1_555
O16_6 C18_8 1_555 1_555
N1_8 C14_8 1_555 1_555
C3_8 H3_8 1_555 1_555
C4_8 H4_8 1_555 1_555
C5_8 C17_8 1_555 1_555
C6_8 C2_8 1_555 1_555
H5_8 C6_8 1_555 1_555
C7_8 H6_8 1_555 1_555
C8_8 H7_8 1_555 1_555
C9_8 C3_8 1_555 1_555
H8_6 C9_8 1_555 1_555
C10_8 O1_8 1_555 1_555
C11_8 C8_8 1_555 1_555
H9_8 C11_8 1_555 1_555
C12_8 C10_8 1_555 1_555
H10_8 C12_8 1_555 1_555
C13_8 C4_8 1_555 1_555
C14_8 H11_8 1_555 1_555
C15_8 C7_8 1_555 1_555
H12_8 C15_8 1_555 1_555
C16_8 C13_8 1_555 1_555
C17_8 H13_8 1_555 1_555
C18_8 C5_8 1_555 1_555
C19_8 C1_8 1_555 1_555
C20_8 O2_8 1_555 1_555
C21_8 O8_8 1_555 1_555
C22_8 C11_8 1_555 1_555
H14_8 C22_8 1_555 1_555
C23_8 N1_8 1_555 1_555
H15_8 C23_8 1_555 1_555
H17_8 C23_8 1_555 1_555
C24_8 N1_8 1_555 1_555
H18_8 C24_8 1_555 1_555
H19_6 C24_8 1_555 1_555
H20_8 C24_8 1_555 1_555
Eu4_8 O4_8 1_555 1_555
O11_8 Eu2 1_555 1_555
O12_8 Eu2 1_555 1_555
O14_8 Eu2 1_555 1_555
O15_8 Eu2 1_555 1_555
O8_8 Eu4_8 1_555 1_555
C5_8 C20_8 1_555 1_555
C6_8 C10_8 1_555 1_555
C7_8 C9_8 1_555 1_555
C8_8 C20_8 1_555 1_555
C12_8 C13_8 1_555 1_555
C15_8 C19_8 1_555 1_555
C17_8 C22_8 1_555 1_555
C19_8 C21_8 1_555 1_555
Eu4_8 O15_8 1_555 1_555
Eu4_8 O3_8 1_555 1_555
Eu2_2 O5_9 1_555 1_555
O1_9 C1_9 1_555 1_555
O4_9 C21_9 1_555 1_555
O5_9 C14_9 1_555 1_555
O7_9 C16_9 1_555 1_555
C1_9 C3_9 1_555 1_555
O8_9 Eu2_2 1_555 1_555
O9_9 Eu2_2 1_555 1_555
H1_9 O9_9 1_555 1_555
H2_9 O9_9 1_555 1_555
C2_9 C4_9 1_555 1_555
N1_9 C14_9 1_555 1_555
C4_9 H4_9 1_555 1_555
C6_9 C2_9 1_555 1_555
C7_9 H6_9 1_555 1_555
C9_9 C3_9 1_555 1_555
H8_7 C9_9 1_555 1_555
C10_9 O1_9 1_555 1_555
C12_9 C10_9 1_555 1_555
H10_9 C12_9 1_555 1_555
C13_9 C4_9 1_555 1_555
C14_9 H11_9 1_555 1_555
C15_9 C7_9 1_555 1_555
H12_9 C15_9 1_555 1_555
C16_9 C13_9 1_555 1_555
C19_9 C1_9 1_555 1_555
C21_9 O8_9 1_555 1_555
C23_9 N1_9 1_555 1_555
H15_9 C23_9 1_555 1_555
H17_9 C23_9 1_555 1_555
C24_9 N1_9 1_555 1_555
H18_9 C24_9 1_555 1_555
H19_7 C24_9 1_555 1_555
H20_9 C24_9 1_555 1_555
Eu4_9 O4_9 1_555 1_555
O11_9 Eu2_2 1_555 1_555
O12_9 Eu2_2 1_555 1_555
O14_9 Eu2_2 1_555 1_555
O15_9 Eu2_2 1_555 1_555
O8_9 Eu4_9 1_555 1_555
C6_9 C10_9 1_555 1_555
C7_9 C9_9 1_555 1_555
C12_9 C13_9 1_555 1_555
C15_9 C19_9 1_555 1_555
C19_9 C21_9 1_555 1_555
Eu4_9 O15_9 1_555 1_555
Eu4_9 O3_9 1_555 1_555
O13_4 C18_9 1_555 1_555
O16_4 C18_9 1_555 1_555
C5_9 C17_9 1_555 1_555
C11_9 C8_9 1_555 1_555
H9_9 C11_9 1_555 1_555
C17_9 H13_9 1_555 1_555
C18_9 C5_9 1_555 1_555
C20_9 O2_9 1_555 1_555
C22_9 C11_9 1_555 1_555
H14_9 C22_9 1_555 1_555
C5_9 C20_9 1_555 1_555
C8_9 C20_9 1_555 1_555
C17_9 C22_9 1_555 1_555
Eu4 O5_10 1_555 1_555
O1_10 C1_10 1_555 1_555
O2_10 C2_10 1_555 1_555
O11 C16_10 1_555 1_555
O5_10 C14_10 1_555 1_555
O6_4 C18_10 1_555 1_555
O14 C16_10 1_555 1_555
C1_10 C3_10 1_555 1_555
O9_10 Eu4 1_555 1_555
H1_10 O9_10 1_555 1_555
H2_10 O9_10 1_555 1_555
C2_10 C4_10 1_555 1_555
O10_4 C18_10 1_555 1_555
N1_10 C14_10 1_555 1_555
C3_10 H3_10 1_555 1_555
C4_10 H4_10 1_555 1_555
C5_10 C17_10 1_555 1_555
C6_10 C2_10 1_555 1_555
H5_10 C6_10 1_555 1_555
C7_10 H6_10 1_555 1_555
C8_10 H7_10 1_555 1_555
C9_10 C3_10 1_555 1_555
H8_8 C9_10 1_555 1_555
C10_10 O1_10 1_555 1_555
C11_10 C8_10 1_555 1_555
C12_10 C10_10 1_555 1_555
H10_10 C12_10 1_555 1_555
C13_10 C4_10 1_555 1_555
C14_10 H11_10 1_555 1_555
C15_10 C7_10 1_555 1_555
H12_10 C15_10 1_555 1_555
C16_10 C13_10 1_555 1_555
C17_10 H13_10 1_555 1_555
C18_10 C5_10 1_555 1_555
C19_10 C1_10 1_555 1_555
C20_10 O2_10 1_555 1_555
C23_10 N1_10 1_555 1_555
H15_10 C23_10 1_555 1_555
H16_10 C23_10 1_555 1_555
H17_10 C23_10 1_555 1_555
C24_10 N1_10 1_555 1_555
H18_10 C24_10 1_555 1_555
H19_8 C24_10 1_555 1_555
H20_10 C24_10 1_555 1_555
Eu4_5 O6_4 1_555 1_555
O16_7 Eu4 1_555 1_555
O10_4 Eu4_5 1_555 1_555
C5_10 C20_10 1_555 1_555
C6_10 C10_10 1_555 1_555
C7_10 C9_10 1_555 1_555
C8_10 C20_10 1_555 1_555
C12_10 C13_10 1_555 1_555
C15_10 C19_10 1_555 1_555
O12 C21_10 1_555 1_555
H14_10 C22_10 1_555 1_555
Eu4_2 O5_11 1_555 1_555
O5_11 C14_11 1_555 1_555
N1_11 C14_11 1_555 1_555
C7_11 H6_11 1_555 1_555
H8_9 C9_11 1_555 1_555
C14_11 H11_11 1_555 1_555
C15_11 C7_11 1_555 1_555
H12_11 C15_11 1_555 1_555
C23_11 N1_11 1_555 1_555
H15_11 C23_11 1_555 1_555
H16_11 C23_11 1_555 1_555
H17_11 C23_11 1_555 1_555
C24_11 N1_11 1_555 1_555
H18_11 C24_11 1_555 1_555
H19_9 C24_11 1_555 1_555
H20_11 C24_11 1_555 1_555
O16_8 Eu4_2 1_555 1_555
C7_11 C9_11 1_555 1_555
C15_11 C19_11 1_555 1_555
O1_11 C1_11 1_555 1_555
O2_11 C2_11 1_555 1_555
O11_2 C16_11 1_555 1_555
O6_5 C18_11 1_555 1_555
O14_2 C16_11 1_555 1_555
C1_11 C3_11 1_555 1_555
H1_11 O9_11 1_555 1_555
H2_11 O9_11 1_555 1_555
C2_11 C4_11 1_555 1_555
O10_5 C18_11 1_555 1_555
C3_11 H3_11 1_555 1_555
C4_11 H4_11 1_555 1_555
C5_11 C17_11 1_555 1_555
C6_11 C2_11 1_555 1_555
H5_11 C6_11 1_555 1_555
C8_11 H7_11 1_555 1_555
C10_11 O1_11 1_555 1_555
C11_11 C8_11 1_555 1_555
C12_11 C10_11 1_555 1_555
H10_11 C12_11 1_555 1_555
C13_11 C4_11 1_555 1_555
C16_11 C13_11 1_555 1_555
C17_11 H13_11 1_555 1_555
C18_11 C5_11 1_555 1_555
C20_11 O2_11 1_555 1_555
Eu4_6 O6_5 1_555 1_555
O10_5 Eu4_6 1_555 1_555
C5_11 C20_11 1_555 1_555
C6_11 C10_11 1_555 1_555
C8_11 C20_11 1_555 1_555
C12_11 C13_11 1_555 1_555
O12_2 C21_11 1_555 1_555
H14_11 C22_11 1_555 1_555
O1_12 C1_12 1_555 1_555
O2_12 C2_12 1_555 1_555
O11_3 C16_12 1_555 1_555
O6_6 C18_12 1_555 1_555
O14_3 C16_12 1_555 1_555
C1_12 C3_12 1_555 1_555
H1_12 O9_12 1_555 1_555
H2_12 O9_12 1_555 1_555
C2_12 C4_12 1_555 1_555
O10_6 C18_12 1_555 1_555
C3_12 H3_12 1_555 1_555
C4_12 H4_12 1_555 1_555
C5_12 C17_12 1_555 1_555
C6_12 C2_12 1_555 1_555
H5_12 C6_12 1_555 1_555
C8_12 H7_12 1_555 1_555
C10_12 O1_12 1_555 1_555
C11_12 C8_12 1_555 1_555
C12_12 C10_12 1_555 1_555
H10_12 C12_12 1_555 1_555
C13_12 C4_12 1_555 1_555
C16_12 C13_12 1_555 1_555
C17_12 H13_12 1_555 1_555
C18_12 C5_12 1_555 1_555
C20_12 O2_12 1_555 1_555
Eu4_4 O6_6 1_555 1_555
O10_6 Eu4_4 1_555 1_555
C5_12 C20_12 1_555 1_555
C6_12 C10_12 1_555 1_555
C8_12 C20_12 1_555 1_555
C12_12 C13_12 1_555 1_555
O12_3 C21_12 1_555 1_555
H14_12 C22_12 1_555 1_555
Eu4_3 O5_12 1_555 1_555
O5_12 C14_12 1_555 1_555
N1_12 C14_12 1_555 1_555
C7_12 H6_12 1_555 1_555
H8_10 C9_12 1_555 1_555
C14_12 H11_12 1_555 1_555
C15_12 C7_12 1_555 1_555
H12_12 C15_12 1_555 1_555
C23_12 N1_12 1_555 1_555
H15_12 C23_12 1_555 1_555
H16_12 C23_12 1_555 1_555
H17_12 C23_12 1_555 1_555
C24_12 N1_12 1_555 1_555
H18_12 C24_12 1_555 1_555
H19_10 C24_12 1_555 1_555
H20_12 C24_12 1_555 1_555
O16_9 Eu4_3 1_555 1_555
C7_12 C9_12 1_555 1_555
C15_12 C19_12 1_555 1_555
O2_13 C2_13 1_555 1_555
O11_7 C16_13 1_555 1_555
O5_13 C14_13 1_555 1_555
O14_7 C16_13 1_555 1_555
C2_13 C4_13 1_555 1_555
N1_13 C14_13 1_555 1_555
C4_13 H4_13 1_555 1_555
H10_13 C12_13 1_555 1_555
C13_13 C4_13 1_555 1_555
C16_13 C13_13 1_555 1_555
C23_13 N1_13 1_555 1_555
H15_13 C23_13 1_555 1_555
H16_13 C23_13 1_555 1_555
H17_13 C23_13 1_555 1_555
C24_13 N1_13 1_555 1_555
H18_13 C24_13 1_555 1_555
H20_13 C24_13 1_555 1_555
C12_13 C13_13 1_555 1_555
O1_13 C1_13 1_555 1_555
O12_7 C21_13 1_555 1_555
O13_8 C18_13 1_555 1_555
C1_13 C3_13 1_555 1_555
O9_13 Eu4_7 1_555 1_555
H1_13 O9_13 1_555 1_555
C3_13 H3_13 1_555 1_555
C5_13 C17_13 1_555 1_555
H5_13 C6_13 1_555 1_555
C7_13 H6_13 1_555 1_555
C8_13 H7_13 1_555 1_555
C9_13 C3_13 1_555 1_555
C10_13 O1_13 1_555 1_555
C11_13 C8_13 1_555 1_555
H9_13 C11_13 1_555 1_555
C15_13 C7_13 1_555 1_555
H12_13 C15_13 1_555 1_555
C17_13 H13_13 1_555 1_555
C18_13 C5_13 1_555 1_555
C19_13 C1_13 1_555 1_555
C21_13 O15_7 1_555 1_555
C22_13 C11_13 1_555 1_555
H14_13 C22_13 1_555 1_555
O13_10 Eu4_7 1_555 1_555
O16_10 Eu4_7 1_555 1_555
C5_13 C20_13 1_555 1_555
C6_13 C10_13 1_555 1_555
C7_13 C9_13 1_555 1_555
C8_13 C20_13 1_555 1_555
C15_13 C19_13 1_555 1_555
C17_13 C22_13 1_555 1_555
C19_13 C21_13 1_555 1_555
O2_14 C2_14 1_555 1_555
O11_8 C16_14 1_555 1_555
O5_14 C14_14 1_555 1_555
O14_8 C16_14 1_555 1_555
C2_14 C4_14 1_555 1_555
N1_14 C14_14 1_555 1_555
C4_14 H4_14 1_555 1_555
H10_14 C12_14 1_555 1_555
C13_14 C4_14 1_555 1_555
C16_14 C13_14 1_555 1_555
C23_14 N1_14 1_555 1_555
H15_14 C23_14 1_555 1_555
H16_14 C23_14 1_555 1_555
H17_14 C23_14 1_555 1_555
C24_14 N1_14 1_555 1_555
H18_14 C24_14 1_555 1_555
H20_14 C24_14 1_555 1_555
C12_14 C13_14 1_555 1_555
O1_14 C1_14 1_555 1_555
O12_8 C21_14 1_555 1_555
O13_9 C18_14 1_555 1_555
C1_14 C3_14 1_555 1_555
O9_14 Eu4_8 1_555 1_555
H1_14 O9_14 1_555 1_555
C3_14 H3_14 1_555 1_555
C5_14 C17_14 1_555 1_555
H5_14 C6_14 1_555 1_555
C7_14 H6_14 1_555 1_555
C8_14 H7_14 1_555 1_555
C9_14 C3_14 1_555 1_555
C10_14 O1_14 1_555 1_555
C11_14 C8_14 1_555 1_555
H9_14 C11_14 1_555 1_555
C15_14 C7_14 1_555 1_555
H12_14 C15_14 1_555 1_555
C17_14 H13_14 1_555 1_555
C18_14 C5_14 1_555 1_555
C19_14 C1_14 1_555 1_555
C21_14 O15_8 1_555 1_555
C22_14 C11_14 1_555 1_555
H14_14 C22_14 1_555 1_555
O13_11 Eu4_8 1_555 1_555
O16_11 Eu4_8 1_555 1_555
C5_14 C20_14 1_555 1_555
C6_14 C10_14 1_555 1_555
C7_14 C9_14 1_555 1_555
C8_14 C20_14 1_555 1_555
C15_14 C19_14 1_555 1_555
C17_14 C22_14 1_555 1_555
C19_14 C21_14 1_555 1_555
O2_15 C2_15 1_555 1_555
O11_9 C16_15 1_555 1_555
O5_15 C14_15 1_555 1_555
O14_9 C16_15 1_555 1_555
C2_15 C4_15 1_555 1_555
N1_15 C14_15 1_555 1_555
C4_15 H4_15 1_555 1_555
H10_15 C12_15 1_555 1_555
C13_15 C4_15 1_555 1_555
C16_15 C13_15 1_555 1_555
C23_15 N1_15 1_555 1_555
H15_15 C23_15 1_555 1_555
H16_15 C23_15 1_555 1_555
H17_15 C23_15 1_555 1_555
C24_15 N1_15 1_555 1_555
H18_15 C24_15 1_555 1_555
H19_11 C24_15 1_555 1_555
H20_15 C24_15 1_555 1_555
C12_15 C13_15 1_555 1_555
O1_15 C1_15 1_555 1_555
O12_9 C21_15 1_555 1_555
O13_7 C18_15 1_555 1_555
C1_15 C3_15 1_555 1_555
O9_15 Eu4_9 1_555 1_555
H1_15 O9_15 1_555 1_555
C3_15 H3_15 1_555 1_555
C5_15 C17_15 1_555 1_555
H5_15 C6_15 1_555 1_555
C7_15 H6_15 1_555 1_555
C8_15 H7_15 1_555 1_555
C9_15 C3_15 1_555 1_555
C10_15 O1_15 1_555 1_555
C11_15 C8_15 1_555 1_555
H9_15 C11_15 1_555 1_555
C15_15 C7_15 1_555 1_555
H12_15 C15_15 1_555 1_555
C17_15 H13_15 1_555 1_555
C18_15 C5_15 1_555 1_555
C19_15 C1_15 1_555 1_555
C21_15 O15_9 1_555 1_555
C22_15 C11_15 1_555 1_555
H14_15 C22_15 1_555 1_555
O13_12 Eu4_9 1_555 1_555
O16_12 Eu4_9 1_555 1_555
C5_15 C20_15 1_555 1_555
C6_15 C10_15 1_555 1_555
C7_15 C9_15 1_555 1_555
C8_15 C20_15 1_555 1_555
C15_15 C19_15 1_555 1_555
C17_15 C22_15 1_555 1_555
C19_15 C21_15 1_555 1_555
Eu4_4 O5_16 1_555 1_555
O1_16 C1_16 1_555 1_555
O12_4 C21_16 1_555 1_555
O5_16 C14_16 1_555 1_555
O14_4 C16_16 1_555 1_555
C1_16 C3_16 1_555 1_555
O9_16 Eu4_4 1_555 1_555
H1_16 O9_16 1_555 1_555
H2_16 O9_16 1_555 1_555
C2_16 C4_16 1_555 1_555
N1_16 C14_16 1_555 1_555
C4_16 H4_16 1_555 1_555
C6_16 C2_16 1_555 1_555
C7_16 H6_16 1_555 1_555
C9_16 C3_16 1_555 1_555
H8_12 C9_16 1_555 1_555
C10_16 O1_16 1_555 1_555
C12_16 C10_16 1_555 1_555
H10_16 C12_16 1_555 1_555
C13_16 C4_16 1_555 1_555
C14_16 H11_16 1_555 1_555
C15_16 C7_16 1_555 1_555
H12_16 C15_16 1_555 1_555
C16_16 C13_16 1_555 1_555
C19_16 C1_16 1_555 1_555
C21_16 O15_4 1_555 1_555
C23_16 N1_16 1_555 1_555
H15_16 C23_16 1_555 1_555
H17_16 C23_16 1_555 1_555
C24_16 N1_16 1_555 1_555
H18_16 C24_16 1_555 1_555
H19_12 C24_16 1_555 1_555
H20_16 C24_16 1_555 1_555
C6_16 C10_16 1_555 1_555
C7_16 C9_16 1_555 1_555
C12_16 C13_16 1_555 1_555
C15_16 C19_16 1_555 1_555
C19_16 C21_16 1_555 1_555
O13_11 C18_16 1_555 1_555
O16_11 C18_16 1_555 1_555
C5_16 C17_16 1_555 1_555
C11_16 C8_16 1_555 1_555
H9_16 C11_16 1_555 1_555
C17_16 H13_16 1_555 1_555
C18_16 C5_16 1_555 1_555
C20_16 O2_16 1_555 1_555
C22_16 C11_16 1_555 1_555
H14_16 C22_16 1_555 1_555
C5_16 C20_16 1_555 1_555
C8_16 C20_16 1_555 1_555
C17_16 C22_16 1_555 1_555
Eu4_5 O5_17 1_555 1_555
O1_17 C1_17 1_555 1_555
O2_17 C2_17 1_555 1_555
O12_5 C21_17 1_555 1_555
O5_17 C14_17 1_555 1_555
O13_12 C18_17 1_555 1_555
O14_5 C16_17 1_555 1_555
C1_17 C3_17 1_555 1_555
O9_17 Eu4_5 1_555 1_555
H1_17 O9_17 1_555 1_555
H2_17 O9_17 1_555 1_555
C2_17 C4_17 1_555 1_555
O16_12 C18_17 1_555 1_555
N1_17 C14_17 1_555 1_555
C3_17 H3_17 1_555 1_555
C4_17 H4_17 1_555 1_555
C5_17 C17_17 1_555 1_555
C6_17 C2_17 1_555 1_555
H5_17 C6_17 1_555 1_555
C7_17 H6_17 1_555 1_555
C8_17 H7_17 1_555 1_555
C9_17 C3_17 1_555 1_555
H8_13 C9_17 1_555 1_555
C10_17 O1_17 1_555 1_555
C11_17 C8_17 1_555 1_555
H9_17 C11_17 1_555 1_555
C12_17 C10_17 1_555 1_555
H10_17 C12_17 1_555 1_555
C13_17 C4_17 1_555 1_555
C14_17 H11_17 1_555 1_555
C15_17 C7_17 1_555 1_555
H12_17 C15_17 1_555 1_555
C16_17 C13_17 1_555 1_555
C17_17 H13_17 1_555 1_555
C18_17 C5_17 1_555 1_555
C19_17 C1_17 1_555 1_555
C20_17 O2_17 1_555 1_555
C21_17 O15_5 1_555 1_555
C22_17 C11_17 1_555 1_555
H14_17 C22_17 1_555 1_555
C23_17 N1_17 1_555 1_555
H15_17 C23_17 1_555 1_555
H17_17 C23_17 1_555 1_555
C24_17 N1_17 1_555 1_555
H18_17 C24_17 1_555 1_555
H19_13 C24_17 1_555 1_555
H20_17 C24_17 1_555 1_555
C5_17 C20_17 1_555 1_555
C6_17 C10_17 1_555 1_555
C7_17 C9_17 1_555 1_555
C8_17 C20_17 1_555 1_555
C12_17 C13_17 1_555 1_555
C15_17 C19_17 1_555 1_555
C17_17 C22_17 1_555 1_555
C19_17 C21_17 1_555 1_555
O13_10 C18_18 1_555 1_555
O16_10 C18_18 1_555 1_555
C5_18 C17_18 1_555 1_555
C11_18 C8_18 1_555 1_555
H9_18 C11_18 1_555 1_555
C17_18 H13_18 1_555 1_555
C18_18 C5_18 1_555 1_555
C20_18 O2_18 1_555 1_555
C22_18 C11_18 1_555 1_555
H14_18 C22_18 1_555 1_555
C5_18 C20_18 1_555 1_555
C8_18 C20_18 1_555 1_555
C17_18 C22_18 1_555 1_555
Eu4_6 O5_18 1_555 1_555
O1_18 C1_18 1_555 1_555
O12_6 C21_18 1_555 1_555
O5_18 C14_18 1_555 1_555
O14_6 C16_18 1_555 1_555
C1_18 C3_18 1_555 1_555
O9_18 Eu4_6 1_555 1_555
H1_18 O9_18 1_555 1_555
H2_18 O9_18 1_555 1_555
C2_18 C4_18 1_555 1_555
N1_18 C14_18 1_555 1_555
C4_18 H4_18 1_555 1_555
C6_18 C2_18 1_555 1_555
C7_18 H6_18 1_555 1_555
C9_18 C3_18 1_555 1_555
H8_14 C9_18 1_555 1_555
C10_18 O1_18 1_555 1_555
C12_18 C10_18 1_555 1_555
H10_18 C12_18 1_555 1_555
C13_18 C4_18 1_555 1_555
C14_18 H11_18 1_555 1_555
C15_18 C7_18 1_555 1_555
H12_18 C15_18 1_555 1_555
C16_18 C13_18 1_555 1_555
C19_18 C1_18 1_555 1_555
C21_18 O15_6 1_555 1_555
C23_18 N1_18 1_555 1_555
H15_18 C23_18 1_555 1_555
H17_18 C23_18 1_555 1_555
C24_18 N1_18 1_555 1_555
H18_18 C24_18 1_555 1_555
H19_14 C24_18 1_555 1_555
H20_18 C24_18 1_555 1_555
C6_18 C10_18 1_555 1_555
C7_18 C9_18 1_555 1_555
C12_18 C13_18 1_555 1_555
C15_18 C19_18 1_555 1_555
C19_18 C21_18 1_555 1_555

#END
