
###############################################################################
#
# This file contains modified crystal structure data generated from the
# MOF subset of the Cambridge Structural Database (CSD) v543 
# hosted by the Cambridge Crystallographic Data Centre (CCDC).
#
# This work is licensed under the Creative Commons
# Attribution-NonCommercial-ShareAlike 4.0 International License.
# To view a copy of this license, visit
# http://creativecommons.org/licenses/by-nc-sa/4.0/
# or send a letter to
# Creative Commons, PO Box 1866, Mountain View, CA 94042, USA.
#
# CIF created using the CSD Python API on 29 September 2022
# The structure has been converted into the P1 space group
# The structure has a 3D framework
# The original CSD entry PIXLOA is in the rhombohedral crystal system
# The framework has been calculated to contain at least 10.0% void space
# The void calculation uses a probe of radius 1.32A, grid spacing 0.4
#
###############################################################################

data_PIXLOA
_chemical_formula_moiety         '(C432 H360 N18 Nd18 O176)n'
_symmetry_cell_setting           triclinic
_symmetry_space_group_name_H-M   'P 1'
_symmetry_Int_Tables_number      1
_space_group_name_Hall           'P 1'
loop_
_symmetry_equiv_pos_site_id
_symmetry_equiv_pos_as_xyz
1 x,y,z
_cell_length_a                   39.981(3)
_cell_length_b                   39.981(3)
_cell_length_c                   9.1014(14)
_cell_angle_alpha                90
_cell_angle_beta                 90
_cell_angle_gamma                120
_cell_volume                     12599.3
loop_
_atom_site_label
_atom_site_type_symbol
_atom_site_fract_x
_atom_site_fract_y
_atom_site_fract_z
O1 O 0.51456(5) 0.55443(5) 0.07762(16)
O2 O 0.48702(5) 0.58211(5) 0.19802(16)
H1 H 0.490134 0.637099 0.048890
C4 C 0.50587(7) 0.58066(7) 0.0894(2)
Nd2 Nd 0.48609(2) 0.52631(2) 0.32338(2)
Nd4 Nd 0.62645(3) 0.81942(2) 0.00995(2)
O3 O 0.57676(5) 0.64052(5) 0.63257(16)
C1 C 0.59149(7) 0.58941(7) 0.5933(2)
C2 C 0.50566(7) 0.63710(7) 0.9728(2)
O4 O 0.50379(5) 0.68990(5) 0.86751(18)
C3 C 0.54174(6) 0.61039(7) 0.8578(2)
H2 H 0.549863 0.592277 0.856600
C5 C 0.51682(7) 0.66386(7) 0.8597(2)
C6 C 0.51810(6) 0.61034(6) 0.9701(2)
C7 C 0.60046(7) 0.62483(7) 0.6560(2)
C8 C 0.54069(7) 0.66462(7) 0.7488(2)
H3 H 0.548505 0.683062 0.674747
C9 C 0.55294(7) 0.63785(7) 0.7482(2)
C10 C 0.64723(7) 0.59393(8) 0.7149(3)
H4 H 0.662702 0.583259 0.735914
C11 C 0.50380(8) 0.70818(8) 0.7374(3)
C12 C 0.63285(7) 0.64487(8) 0.7436(2)
H5 H 0.638878 0.668738 0.782577
C13 C 0.61531(7) 0.57432(7) 0.6258(2)
H6 H 0.609599 0.550553 0.586698
C14 C 0.65627(8) 0.62928(8) 0.7729(3)
H7 H 0.678053 0.642670 0.831695
O5 O 0.53759(5) 0.53061(4) 0.51023(16)
O6 O 0.58880(5) 0.80569(5) 0.77008(17)
O7 O 0.50960(5) 0.48539(5) 0.21227(17)
H8 H 0.507421 0.479846 0.119881
H9 H 0.511941 0.467346 0.259311
O8 O 0.56958(5) 0.75787(5) 0.92712(17)
O9 O 0.55022(5) 0.58383(5) 0.39419(18)
O10 O 0.43799(6) 0.48981(6) 0.13571(18)
C15 C 0.56495(7) 0.77114(7) 0.8084(2)
C16 C 0.55789(7) 0.56735(7) 0.4934(2)
C17 C 0.53144(8) 0.74663(7) 0.7102(3)
C18 C 0.52762(9) 0.76298(9) 0.5800(3)
H10 H 0.545285 0.788717 0.559769
C19 C 0.47421(9) 0.68731(9) 0.6403(4)
H11 H 0.455996 0.661763 0.660926
C20 C 0.49864(12) 0.74221(10) 0.4814(4)
H12 H 0.497237 0.753577 0.394246
C21 C 0.47156(12) 0.70437(11) 0.5120(4)
H13 H 0.451506 0.690319 0.446377
N1 N 0.38256(7) 0.46582(7) 0.0035(2)
C22 C 0.40633(9) 0.48704(9) 0.1090(3)
H14 H 0.398715 0.501028 0.168092
H20 H 0.339823 0.474261 0.067677
Nd3 Nd 0.51391(2) 0.47369(2) 0.67662(2)
O13 O 0.46241(5) 0.46939(4) 0.48977(16)
O14 O 0.47236(5) 0.55022(7) 0.56325(17)
O15 O 0.42454(5) 0.52162(7) 0.40621(17)
C1_2 C 0.41059(7) 0.00208(10) 0.5933(2)
C10_2 C 0.40607(8) 0.05330(11) 0.7149(3)
H4_2 H 0.416741 0.079443 0.735914
C13_2 C 0.42568(7) 0.04099(10) 0.6258(2)
H6_2 H 0.449447 0.059046 0.586698
C14_2 C 0.37072(8) 0.02699(11) 0.7729(3)
H7_2 H 0.357330 0.035383 0.831695
O5_2 O 0.46939(4) 0.00698(6) 0.51023(16)
O7_2 O 0.51461(5) 0.02421(7) 0.21227(17)
H8_2 H 0.520154 0.027575 0.119881
H9_2 H 0.532654 0.044595 0.259311
Nd3_2 Nd 0.52631(2) 0.04022(3) 0.67662(2)
O1_2 O 0.44557(5) 0.96013(7) 0.07762(16)
O2_2 O 0.41789(5) 0.90491(7) 0.19802(16)
H1_2 H 0.362901 0.853035 0.048890
C4_2 C 0.41934(7) 0.92521(10) 0.0894(2)
Nd2_2 Nd 0.47369(2) 0.95978(3) 0.32338(2)
Nd4_2 Nd 0.18058(2) 0.80702(4) 0.00995(2)
O3_2 O 0.35948(5) 0.93624(7) 0.63257(16)
C2_2 C 0.36290(7) 0.86856(10) 0.9728(2)
O4_2 O 0.31010(5) 0.81389(7) 0.86751(18)
C3_2 C 0.38961(7) 0.93135(9) 0.8578(2)
H2_2 H 0.407723 0.957586 0.856600
C5_2 C 0.33614(7) 0.85296(10) 0.8597(2)
C6_2 C 0.38966(6) 0.90776(8) 0.9701(2)
C7_2 C 0.37517(7) 0.97563(10) 0.6560(2)
C8_2 C 0.33538(7) 0.87607(10) 0.7488(2)
H3_2 H 0.316938 0.865443 0.674747
C9_2 C 0.36215(7) 0.91509(10) 0.7482(2)
C11_2 C 0.29182(8) 0.79562(11) 0.7374(3)
C12_2 C 0.35513(8) 0.98798(11) 0.7436(2)
H5_2 H 0.331262 0.970140 0.782577
O6_2 O 0.19431(5) 0.78311(7) 0.77008(17)
O8_2 O 0.24213(5) 0.81171(7) 0.92712(17)
O9_2 O 0.41617(5) 0.96639(7) 0.39419(18)
O10_2 O 0.51019(6) 0.94818(8) 0.13571(18)
C15_2 C 0.22886(7) 0.79381(10) 0.8084(2)
C16_2 C 0.43265(7) 0.99054(10) 0.4934(2)
C17_2 C 0.25337(7) 0.78481(11) 0.7102(3)
C18_2 C 0.23702(9) 0.76464(13) 0.5800(3)
H10_2 H 0.211283 0.756568 0.559769
C19_2 C 0.31269(9) 0.78690(13) 0.6403(4)
H11_2 H 0.338237 0.794233 0.660926
C20_2 C 0.25779(10) 0.75643(16) 0.4814(4)
H12_2 H 0.246423 0.743660 0.394246
C21_2 C 0.29563(11) 0.76719(16) 0.5120(4)
H13_2 H 0.309681 0.761187 0.446377
N1_2 N 0.53418(7) 0.91674(10) 0.0035(2)
C22_2 C 0.51296(9) 0.91929(13) 0.1090(3)
H14_2 H 0.498972 0.897687 0.168092
H20_2 H 0.525739 0.865562 0.067677
O13_2 O 0.53061(4) 0.99302(6) 0.48977(16)
O14_2 O 0.44978(7) 0.92213(9) 0.56325(17)
O15_2 O 0.47838(7) 0.90291(9) 0.40621(17)
O1_3 O 0.03987(7) 0.48544(5) 0.07762(16)
O2_3 O 0.09509(7) 0.51298(5) 0.19802(16)
H1_3 H 0.146965 0.509866 0.048890
C4_3 C 0.07479(10) 0.49413(7) 0.0894(2)
Nd2_3 Nd 0.04022(3) 0.51391(2) 0.32338(2)
Nd4_3 Nd 0.19298(4) 0.37355(3) 0.00995(2)
O3_3 O 0.06376(7) 0.42324(5) 0.63257(16)
C2_3 C 0.13144(10) 0.49434(7) 0.9728(2)
O4_3 O 0.18611(7) 0.49621(5) 0.86751(18)
C3_3 C 0.06865(9) 0.45826(6) 0.8578(2)
H2_3 H 0.042414 0.450137 0.856600
C5_3 C 0.14704(10) 0.48318(7) 0.8597(2)
C6_3 C 0.09224(8) 0.48190(6) 0.9701(2)
C7_3 C 0.02437(10) 0.39954(7) 0.6560(2)
C8_3 C 0.12393(10) 0.45931(7) 0.7488(2)
H3_3 H 0.134557 0.451495 0.674747
C9_3 C 0.08491(10) 0.44706(7) 0.7482(2)
C11_3 C 0.20438(11) 0.49620(8) 0.7374(3)
C12_3 C 0.01202(11) 0.36715(7) 0.7436(2)
H5_3 H 0.029860 0.361122 0.782577
O6_3 O 0.21689(7) 0.41120(5) 0.77008(17)
O8_3 O 0.18829(7) 0.43042(5) 0.92712(17)
O9_3 O 0.03361(7) 0.44978(5) 0.39419(18)
O10_3 O 0.05182(8) 0.56201(6) 0.13571(18)
C15_3 C 0.20619(10) 0.43505(7) 0.8084(2)
C16_3 C 0.00946(10) 0.44211(7) 0.4934(2)
C17_3 C 0.21519(11) 0.46856(8) 0.7102(3)
C18_3 C 0.23536(13) 0.47238(9) 0.5800(3)
H10_3 H 0.243432 0.454715 0.559769
C19_3 C 0.21310(13) 0.52579(9) 0.6403(4)
H11_3 H 0.205767 0.544004 0.660926
C20_3 C 0.24357(16) 0.50136(12) 0.4814(4)
H12_3 H 0.256340 0.502763 0.394246
C21_3 C 0.23281(16) 0.52844(12) 0.5120(4)
H13_3 H 0.238813 0.548494 0.446377
N1_3 N 0.08326(10) 0.61744(7) 0.0035(2)
C22_3 C 0.08071(13) 0.59367(9) 0.1090(3)
H14_3 H 0.102313 0.601285 0.168092
H20_3 H 0.134438 0.660177 0.067677
O13_3 O 0.00698(6) 0.53759(5) 0.48977(16)
O14_3 O 0.07787(9) 0.52764(5) 0.56325(17)
O15_3 O 0.09709(9) 0.57546(5) 0.40621(17)
C1_3 C 0.99792(10) 0.40851(7) 0.5933(2)
C10_3 C 0.94670(11) 0.35277(7) 0.7149(3)
H4_3 H 0.920557 0.337298 0.735914
C13_3 C 0.95901(10) 0.38469(7) 0.6258(2)
H6_3 H 0.940954 0.390401 0.586698
C14_3 C 0.97301(11) 0.34373(8) 0.7729(3)
H7_3 H 0.964617 0.321947 0.831695
O5_3 O 0.99302(6) 0.46241(5) 0.51023(16)
O7_3 O 0.97579(7) 0.49040(5) 0.21227(17)
H8_3 H 0.972425 0.492579 0.119881
H9_3 H 0.955405 0.488059 0.259311
Nd3_3 Nd 0.95978(3) 0.48609(2) 0.67662(2)
O4_4 O 0.17046(5) 0.02323(5) 0.20084(18)
H3_4 H 0.215172 0.016395 0.008080
C11_4 C 0.17047(8) 0.04151(8) 0.0707(3)
H5_4 H 0.305545 0.002071 0.115910
O6_4 O 0.25547(5) 0.13902(5) 0.10341(17)
O8_4 O 0.23625(5) 0.09120(5) 0.26045(17)
C15_4 C 0.23162(7) 0.10447(7) 0.1417(2)
C17_4 C 0.19811(8) 0.07996(7) 0.0435(3)
Nd4_4 Nd 0.29311(3) 0.15276(2) 0.34329(2)
O1_4 O 0.18123(5) 0.88776(5) 0.41095(16)
O2_4 O 0.15369(5) 0.91544(5) 0.53135(16)
C2_4 C 0.17233(7) 0.97043(7) 0.3061(2)
H1_4 H 0.156801 0.970432 0.382223
C3_4 C 0.20841(6) 0.94372(7) 0.1911(2)
H2_4 H 0.216530 0.925610 0.189933
C4_4 C 0.17254(7) 0.91399(7) 0.4227(2)
C5_4 C 0.18349(7) 0.99719(7) 0.1930(2)
C6_4 C 0.18477(6) 0.94367(6) 0.3034(2)
C8_4 C 0.20736(7) 0.99795(7) 0.0821(2)
C9_4 C 0.21961(7) 0.97118(7) 0.0815(2)
C10_4 C 0.31390(7) 0.92726(8) 0.0482(3)
H4_4 H 0.329369 0.916592 0.069247
C12_4 C 0.29952(7) 0.97820(8) 0.0769(2)
C14_4 C 0.32294(8) 0.96261(8) 0.1062(3)
H7_4 H 0.344720 0.976003 0.165028
Nd2_4 Nd 0.15276(2) 0.85964(2) 0.65671(2)
O3_4 O 0.24343(5) 0.97385(5) 0.96590(16)
C1_4 C 0.25816(7) 0.92274(7) 0.9266(2)
C7_4 C 0.26713(7) 0.95816(7) 0.9893(2)
C13_4 C 0.28198(7) 0.90765(7) 0.9591(2)
H6_4 H 0.276266 0.883886 0.920031
O5_4 O 0.20426(5) 0.86394(4) 0.84356(16)
O7_4 O 0.17627(5) 0.81872(5) 0.54560(17)
H8_4 H 0.174088 0.813179 0.453214
H9_4 H 0.178608 0.800679 0.592644
O9_4 O 0.21689(5) 0.91716(5) 0.72752(18)
O10_4 O 0.10466(6) 0.82314(6) 0.46904(18)
C16_4 C 0.22456(7) 0.90068(7) 0.8267(2)
H11_4 H 0.122663 0.995096 0.994259
N1_4 N 0.04923(7) 0.79915(7) 0.3368(2)
C22_4 C 0.07300(9) 0.82037(9) 0.4423(3)
H14_4 H 0.065382 0.834361 0.501425
C23 C 0.05977(10) 0.77643(11) 0.2429(4)
H15 H 0.082903 0.777737 0.279662
H16 H 0.064139 0.786521 0.144733
H17 H 0.039218 0.750034 0.242411
C24 C 0.01159(10) 0.79568(13) 0.3190(3)
H19 H 0.011191 0.808297 0.229848
H20_4 H 0.006490 0.807594 0.401010
O13_4 O 0.12908(5) 0.80272(4) 0.82310(16)
O14_4 O 0.13902(5) 0.88356(7) 0.89659(17)
O15_4 O 0.09120(5) 0.85496(7) 0.73955(17)
O1_5 O 0.11224(5) 0.29346(7) 0.41095(16)
O2_5 O 0.08456(5) 0.23824(7) 0.53135(16)
C2_5 C 0.02957(7) 0.20189(10) 0.3061(2)
H1_5 H 0.029568 0.186368 0.382223
C3_5 C 0.05628(7) 0.26468(9) 0.1911(2)
H2_5 H 0.074390 0.290919 0.189933
C4_5 C 0.08601(7) 0.25854(10) 0.4227(2)
C5_5 C 0.00281(7) 0.18629(10) 0.1930(2)
C6_5 C 0.05633(6) 0.24109(8) 0.3034(2)
C8_5 C 0.00205(7) 0.20940(10) 0.0821(2)
C9_5 C 0.02882(7) 0.24842(10) 0.0815(2)
C10_5 C 0.07274(8) 0.38663(11) 0.0482(3)
H4_5 H 0.083408 0.412776 0.069247
C12_5 C 0.02180(8) 0.32131(11) 0.0769(2)
C14_5 C 0.03739(8) 0.36032(11) 0.1062(3)
H7_5 H 0.023997 0.368716 0.165028
Nd2_5 Nd 0.14036(2) 0.29311(3) 0.65671(2)
O3_5 O 0.02615(5) 0.26957(7) 0.96590(16)
C1_5 C 0.07726(7) 0.33541(10) 0.9266(2)
C7_5 C 0.04184(7) 0.30896(10) 0.9893(2)
C13_5 C 0.09235(7) 0.37432(10) 0.9591(2)
H6_5 H 0.116114 0.392379 0.920031
O5_5 O 0.13606(4) 0.34031(6) 0.84356(16)
O7_5 O 0.18128(5) 0.35754(7) 0.54560(17)
H8_5 H 0.186821 0.360908 0.453214
H9_5 H 0.199321 0.377928 0.592644
O9_5 O 0.08284(5) 0.29972(7) 0.72752(18)
O10_5 O 0.17686(6) 0.28151(8) 0.46904(18)
C16_5 C 0.09932(7) 0.32387(10) 0.8267(2)
H11_5 H 0.004904 0.127566 0.994259
N1_5 N 0.20085(7) 0.25007(10) 0.3368(2)
C22_5 C 0.17963(9) 0.25262(13) 0.4423(3)
H14_5 H 0.165639 0.231020 0.501425
C23_2 C 0.22357(11) 0.28333(15) 0.2429(4)
H15_2 H 0.222263 0.305165 0.279662
H16_2 H 0.213479 0.277617 0.144733
H17_2 H 0.249966 0.289183 0.242411
C24_2 C 0.20432(13) 0.21590(16) 0.3190(3)
H18 H 0.231126 0.223279 0.314504
H19_2 H 0.191703 0.202893 0.229848
H20_5 H 0.192406 0.198895 0.401010
O13_5 O 0.19728(4) 0.32635(6) 0.82310(16)
O14_5 O 0.11644(7) 0.25547(9) 0.89659(17)
O15_5 O 0.14504(7) 0.23625(9) 0.73955(17)
O4_5 O 0.97677(5) 0.14722(7) 0.20084(18)
H3_5 H 0.983605 0.198776 0.008080
C11_5 C 0.95849(8) 0.12895(11) 0.0707(3)
H5_5 H 0.997929 0.303473 0.115910
O6_5 O 0.86098(5) 0.11644(7) 0.10341(17)
O8_5 O 0.90880(5) 0.14504(7) 0.26045(17)
C15_5 C 0.89553(7) 0.12714(10) 0.1417(2)
C17_5 C 0.92004(7) 0.11814(11) 0.0435(3)
Nd4_5 Nd 0.84724(2) 0.14036(4) 0.34329(2)
O1_6 O 0.70654(7) 0.81877(5) 0.41095(16)
O2_6 O 0.76176(7) 0.84631(5) 0.53135(16)
C2_6 C 0.79811(10) 0.82767(7) 0.3061(2)
H1_6 H 0.813632 0.843199 0.382223
O4_6 O 0.85278(7) 0.82954(5) 0.20084(18)
C3_6 C 0.73532(9) 0.79159(6) 0.1911(2)
H2_6 H 0.709081 0.783470 0.189933
C4_6 C 0.74146(10) 0.82746(7) 0.4227(2)
C5_6 C 0.81371(10) 0.81651(7) 0.1930(2)
C6_6 C 0.75891(8) 0.81523(6) 0.3034(2)
C8_6 C 0.79060(10) 0.79264(7) 0.0821(2)
H3_6 H 0.801224 0.784828 0.008080
C9_6 C 0.75158(10) 0.78039(7) 0.0815(2)
C10_6 C 0.61337(11) 0.68610(7) 0.0482(3)
H4_6 H 0.587224 0.670631 0.069247
C11_6 C 0.87105(11) 0.82953(8) 0.0707(3)
C12_6 C 0.67869(11) 0.70048(7) 0.0769(2)
H5_6 H 0.696527 0.694455 0.115910
C14_6 C 0.63968(11) 0.67706(8) 0.1062(3)
H7_6 H 0.631284 0.655280 0.165028
O6_6 O 0.88356(7) 0.74453(5) 0.10341(17)
O8_6 O 0.85496(7) 0.76375(5) 0.26045(17)
C15_6 C 0.87286(10) 0.76838(7) 0.1417(2)
C17_6 C 0.88186(11) 0.80189(8) 0.0435(3)
Nd2_6 Nd 0.70689(3) 0.84724(2) 0.65671(2)
Nd4_6 Nd 0.85964(4) 0.70689(3) 0.34329(2)
O3_6 O 0.73043(7) 0.75657(5) 0.96590(16)
C1_6 C 0.66459(10) 0.74184(7) 0.9266(2)
C7_6 C 0.69104(10) 0.73287(7) 0.9893(2)
C13_6 C 0.62568(10) 0.71802(7) 0.9591(2)
H6_6 H 0.607621 0.723734 0.920031
O5_6 O 0.65969(6) 0.79574(5) 0.84356(16)
O7_6 O 0.64246(7) 0.82373(5) 0.54560(17)
H8_6 H 0.639092 0.825912 0.453214
H9_6 H 0.622072 0.821392 0.592644
O9_6 O 0.70028(7) 0.78311(5) 0.72752(18)
O10_6 O 0.71849(8) 0.89534(6) 0.46904(18)
C16_6 C 0.67613(10) 0.77544(7) 0.8267(2)
C18_4 C 0.90203(13) 0.80571(9) 0.9133(3)
H10_4 H 0.910099 0.788048 0.893102
C19_4 C 0.87977(13) 0.85912(9) 0.9736(4)
H11_6 H 0.872434 0.877337 0.994259
C20_4 C 0.91024(16) 0.83469(12) 0.8147(4)
H12_4 H 0.923007 0.836096 0.727579
C21_4 C 0.89948(16) 0.86177(12) 0.8453(4)
H13_4 H 0.905480 0.881827 0.779710
N1_6 N 0.74993(10) 0.95077(7) 0.3368(2)
C22_6 C 0.74738(13) 0.92700(9) 0.4423(3)
H14_6 H 0.768980 0.934618 0.501425
C23_3 C 0.71667(15) 0.94023(10) 0.2429(4)
H15_3 H 0.694835 0.917097 0.279662
H16_3 H 0.722383 0.935861 0.144733
H17_3 H 0.710817 0.960782 0.242411
C24_3 C 0.78410(16) 0.98841(10) 0.3190(3)
H19_3 H 0.797107 0.988809 0.229848
H20_6 H 0.801105 0.993510 0.401010
O13_6 O 0.67365(6) 0.87092(5) 0.82310(16)
O14_6 O 0.74453(9) 0.86098(5) 0.89659(17)
O15_6 O 0.76375(9) 0.90880(5) 0.73955(17)
O1_7 O 0.84789(5) 0.22110(5) 0.74429(16)
O2_7 O 0.82035(5) 0.24878(5) 0.86469(16)
O3_7 O 0.91009(5) 0.30719(5) 0.29924(16)
C1_7 C 0.92482(7) 0.25608(7) 0.2600(2)
C2_7 C 0.83899(7) 0.30377(7) 0.6395(2)
H1_7 H 0.823467 0.303766 0.715557
O4_7 O 0.83712(5) 0.35657(5) 0.53418(18)
C3_7 C 0.87507(6) 0.27706(7) 0.5245(2)
H2_7 H 0.883196 0.258944 0.523267
C4_7 C 0.83920(7) 0.24733(7) 0.7561(2)
C5_7 C 0.85015(7) 0.33053(7) 0.5264(2)
C6_7 C 0.85143(6) 0.27701(6) 0.6368(2)
C7_7 C 0.93379(7) 0.29150(7) 0.3227(2)
C8_7 C 0.87402(7) 0.33129(7) 0.4155(2)
H3_7 H 0.881838 0.349729 0.341414
C9_7 C 0.88627(7) 0.30452(7) 0.4149(2)
C10_7 C 0.98056(7) 0.26060(8) 0.3816(3)
H4_7 H 0.996035 0.249926 0.402581
C11_7 C 0.83713(8) 0.37485(8) 0.4041(3)
C12_7 C 0.96618(7) 0.31154(8) 0.4103(2)
H5_7 H 0.972211 0.335405 0.449244
C13_7 C 0.94864(7) 0.24099(7) 0.2925(2)
H6_7 H 0.942932 0.217220 0.253365
C14_7 C 0.98960(8) 0.29595(8) 0.4396(3)
O5_7 O 0.87092(5) 0.19728(4) 0.17690(16)
O6_7 O 0.92213(5) 0.47236(5) 0.43675(17)
O8_7 O 0.90291(5) 0.42454(5) 0.59379(17)
O9_7 O 0.88355(5) 0.25050(5) 0.06086(18)
C15_7 C 0.89828(7) 0.43781(7) 0.4751(2)
C16_7 C 0.89122(7) 0.23402(7) 0.1601(2)
C17_7 C 0.86477(8) 0.41330(7) 0.3769(3)
C18_5 C 0.86095(9) 0.42965(9) 0.2467(3)
H10_5 H 0.878618 0.455384 0.226436
C19_5 C 0.80754(9) 0.35398(9) 0.3070(4)
H11_7 H 0.789329 0.328430 0.327593
C20_5 C 0.83197(12) 0.40888(10) 0.1481(4)
H12_5 H 0.830570 0.420244 0.060913
C21_5 C 0.80489(12) 0.37104(11) 0.1787(4)
H13_5 H 0.784839 0.356986 0.113044
Nd2_7 Nd 0.81942(2) 0.19298(2) 0.99005(2)
O13_7 O 0.79574(5) 0.13606(4) 0.15644(16)
O14_7 O 0.80569(5) 0.21689(7) 0.22992(17)
O15_7 O 0.75787(5) 0.18829(7) 0.07288(17)
O7_7 O 0.84293(5) 0.15206(5) 0.87894(17)
H8_7 H 0.840754 0.146513 0.786548
H9_7 H 0.845274 0.134013 0.925978
O10_7 O 0.77132(6) 0.15648(6) 0.80238(18)
N1_7 N 0.71589(7) 0.13249(7) 0.6702(2)
C22_7 C 0.73966(9) 0.15371(9) 0.7757(3)
H14_7 H 0.732048 0.167695 0.834759
C23_4 C 0.72643(10) 0.10977(11) 0.5763(4)
H15_4 H 0.749569 0.111071 0.612996
H16_4 H 0.730805 0.119855 0.478067
H17_4 H 0.705884 0.083368 0.575745
C24_4 C 0.67825(10) 0.12902(13) 0.6524(3)
H18_2 H 0.658820 0.102208 0.647838
H19_4 H 0.677857 0.141631 0.563182
H20_7 H 0.673156 0.140928 0.734344
O1_8 O 0.77890(5) 0.62680(7) 0.74429(16)
O2_8 O 0.75122(5) 0.57158(7) 0.86469(16)
O3_8 O 0.69281(5) 0.60291(7) 0.29924(16)
C1_8 C 0.74392(7) 0.66875(10) 0.2600(2)
C2_8 C 0.69623(7) 0.53523(10) 0.6395(2)
H1_8 H 0.696234 0.519702 0.715557
O4_8 O 0.64343(5) 0.48056(7) 0.53418(18)
C3_8 C 0.72294(7) 0.59802(9) 0.5245(2)
H2_8 H 0.741056 0.624253 0.523267
C4_8 C 0.75267(7) 0.59188(10) 0.7561(2)
C5_8 C 0.66947(7) 0.51963(10) 0.5264(2)
C6_8 C 0.72299(6) 0.57443(8) 0.6368(2)
C7_8 C 0.70850(7) 0.64230(10) 0.3227(2)
C8_8 C 0.66871(7) 0.54274(10) 0.4155(2)
H3_8 H 0.650271 0.532110 0.341414
C9_8 C 0.69548(7) 0.58176(10) 0.4149(2)
C10_8 C 0.73940(8) 0.71997(11) 0.3816(3)
H4_8 H 0.750074 0.746110 0.402581
C11_8 C 0.62515(8) 0.46229(11) 0.4041(3)
C12_8 C 0.68846(8) 0.65465(11) 0.4103(2)
H5_8 H 0.664595 0.636807 0.449244
C13_8 C 0.75901(7) 0.70766(10) 0.2925(2)
H6_8 H 0.782780 0.725713 0.253365
C14_8 C 0.70405(8) 0.69366(11) 0.4396(3)
H7_7 H 0.690663 0.702050 0.498362
O5_8 O 0.80272(4) 0.67365(6) 0.17690(16)
O6_8 O 0.52764(5) 0.44978(7) 0.43675(17)
O8_8 O 0.57546(5) 0.47838(7) 0.59379(17)
O9_8 O 0.74950(5) 0.63306(7) 0.06086(18)
C15_8 C 0.56219(7) 0.46048(10) 0.4751(2)
C16_8 C 0.76598(7) 0.65721(10) 0.1601(2)
C17_8 C 0.58670(7) 0.45148(11) 0.3769(3)
C18_6 C 0.57035(9) 0.43131(13) 0.2467(3)
H10_6 H 0.544616 0.423235 0.226436
C19_6 C 0.64602(9) 0.45357(13) 0.3070(4)
H11_8 H 0.671570 0.460900 0.327593
C20_6 C 0.59112(10) 0.42310(16) 0.1481(4)
H12_6 H 0.579756 0.410327 0.060913
C21_6 C 0.62896(11) 0.43386(16) 0.1787(4)
H13_6 H 0.643014 0.427854 0.113044
Nd2_8 Nd 0.80702(2) 0.62645(3) 0.99005(2)
O13_8 O 0.86394(4) 0.65969(6) 0.15644(16)
O14_8 O 0.78311(7) 0.58880(9) 0.22992(17)
O15_8 O 0.81171(7) 0.56958(9) 0.07288(17)
O7_8 O 0.84794(5) 0.69088(7) 0.87894(17)
H8_8 H 0.853487 0.694242 0.786548
H9_8 H 0.865987 0.711262 0.925978
O10_8 O 0.84352(6) 0.61485(8) 0.80238(18)
N1_8 N 0.86751(7) 0.58341(10) 0.6702(2)
C22_8 C 0.84629(9) 0.58596(13) 0.7757(3)
H14_8 H 0.832305 0.564354 0.834759
C23_5 C 0.89023(11) 0.61667(15) 0.5763(4)
H15_5 H 0.888929 0.638499 0.612996
H16_5 H 0.880145 0.610951 0.478067
H17_5 H 0.916632 0.622517 0.575745
C24_5 C 0.87098(13) 0.54924(16) 0.6524(3)
H18_3 H 0.897792 0.556613 0.647838
H19_5 H 0.858369 0.536227 0.563182
H20_8 H 0.859072 0.532229 0.734344
O1_9 O 0.37320(7) 0.15211(5) 0.74429(16)
O2_9 O 0.42842(7) 0.17965(5) 0.86469(16)
O3_9 O 0.39709(7) 0.08991(5) 0.29924(16)
C1_9 C 0.33125(10) 0.07518(7) 0.2600(2)
C2_9 C 0.46477(10) 0.16101(7) 0.6395(2)
H1_9 H 0.480298 0.176533 0.715557
O4_9 O 0.51944(7) 0.16288(5) 0.53418(18)
C3_9 C 0.40198(9) 0.12493(6) 0.5245(2)
H2_9 H 0.375747 0.116804 0.523267
C4_9 C 0.40812(10) 0.16080(7) 0.7561(2)
C5_9 C 0.48037(10) 0.14985(7) 0.5264(2)
C6_9 C 0.42557(8) 0.14857(6) 0.6368(2)
C7_9 C 0.35770(10) 0.06621(7) 0.3227(2)
C8_9 C 0.45726(10) 0.12598(7) 0.4155(2)
H3_9 H 0.467890 0.118162 0.341414
C9_9 C 0.41824(10) 0.11373(7) 0.4149(2)
C10_9 C 0.28003(11) 0.01944(7) 0.3816(3)
H4_9 H 0.253890 0.003965 0.402581
C11_9 C 0.53771(11) 0.16287(8) 0.4041(3)
C12_9 C 0.34535(11) 0.03382(7) 0.4103(2)
H5_9 H 0.363193 0.027789 0.449244
C13_9 C 0.29234(10) 0.05136(7) 0.2925(2)
H6_9 H 0.274287 0.057068 0.253365
C14_9 C 0.30634(11) 0.01040(8) 0.4396(3)
O5_9 O 0.32635(6) 0.12908(5) 0.17690(16)
O6_9 O 0.55022(7) 0.07787(5) 0.43675(17)
O8_9 O 0.52162(7) 0.09709(5) 0.59379(17)
O9_9 O 0.36694(7) 0.11645(5) 0.06086(18)
C15_9 C 0.53952(10) 0.10172(7) 0.4751(2)
C16_9 C 0.34279(10) 0.10878(7) 0.1601(2)
C17_9 C 0.54852(11) 0.13523(8) 0.3769(3)
C18_7 C 0.56869(13) 0.13905(9) 0.2467(3)
H10_7 H 0.576765 0.121382 0.226436
C19_7 C 0.54643(13) 0.19246(9) 0.3070(4)
H11_9 H 0.539100 0.210671 0.327593
C20_7 C 0.57690(16) 0.16803(12) 0.1481(4)
H12_7 H 0.589673 0.169430 0.060913
C21_7 C 0.56614(16) 0.19511(12) 0.1787(4)
H13_7 H 0.572146 0.215161 0.113044
Nd2_9 Nd 0.37355(3) 0.18058(2) 0.99005(2)
O13_9 O 0.34031(6) 0.20426(5) 0.15644(16)
O14_9 O 0.41120(9) 0.19431(5) 0.22992(17)
O15_9 O 0.43042(9) 0.24213(5) 0.07288(17)
O7_9 O 0.30912(7) 0.15707(5) 0.87894(17)
H8_9 H 0.305758 0.159246 0.786548
H9_9 H 0.288738 0.154726 0.925978
O10_9 O 0.38515(8) 0.22868(6) 0.80238(18)
N1_9 N 0.41659(10) 0.28411(7) 0.6702(2)
C22_9 C 0.41404(13) 0.26034(9) 0.7757(3)
H14_9 H 0.435646 0.267952 0.834759
C23_6 C 0.38333(15) 0.27357(10) 0.5763(4)
H15_6 H 0.361501 0.250431 0.612996
H16_6 H 0.389049 0.269195 0.478067
H17_6 H 0.377483 0.294116 0.575745
C24_6 C 0.45076(16) 0.32175(10) 0.6524(3)
H18_4 H 0.443387 0.341180 0.647838
H19_6 H 0.463773 0.322143 0.563182
H20_9 H 0.467771 0.326844 0.734344
O3_10 O 0.42324(5) 0.35948(5) 0.36743(16)
C1_10 C 0.40851(7) 0.41059(7) 0.4067(2)
C2_10 C 0.49434(7) 0.36290(7) 0.0272(2)
O4_10 O 0.49621(5) 0.31010(5) 0.13249(18)
C3_10 C 0.45826(6) 0.38961(7) 0.1422(2)
H2_10 H 0.450137 0.407723 0.143400
C5_10 C 0.48318(7) 0.33614(7) 0.1403(2)
C6_10 C 0.48190(6) 0.38966(6) 0.0299(2)
C7_10 C 0.39954(7) 0.37517(7) 0.3440(2)
C8_10 C 0.45931(7) 0.33538(7) 0.2512(2)
H3_10 H 0.451495 0.316938 0.325253
C9_10 C 0.44706(7) 0.36215(7) 0.2518(2)
C10_10 C 0.35277(7) 0.40607(8) 0.2851(3)
H4_10 H 0.337298 0.416741 0.264086
C11_10 C 0.49620(8) 0.29182(8) 0.2626(3)
C12_10 C 0.36715(7) 0.35513(8) 0.2564(2)
H5_10 H 0.361122 0.331262 0.217423
C13_10 C 0.38469(7) 0.42568(7) 0.3742(2)
H6_10 H 0.390401 0.449447 0.413302
C14_10 C 0.34373(8) 0.37072(8) 0.2271(3)
H7_8 H 0.321947 0.357330 0.168305
O7_10 O 0.49040(5) 0.51461(5) 0.78773(17)
H8_10 H 0.492579 0.520154 0.880119
H9_10 H 0.488059 0.532654 0.740689
O9_10 O 0.44978(5) 0.41617(5) 0.60581(18)
O10_10 O 0.56201(6) 0.51019(6) 0.86429(18)
C15_10 C 0.43505(7) 0.22886(7) 0.1916(2)
C16_10 C 0.44211(7) 0.43265(7) 0.5066(2)
C17_10 C 0.46856(8) 0.25337(7) 0.2898(3)
C18_8 C 0.47238(9) 0.23702(9) 0.4200(3)
H10_8 H 0.454715 0.211283 0.440231
C19_8 C 0.52579(9) 0.31269(9) 0.3597(4)
H11_10 H 0.544004 0.338237 0.339074
C20_8 C 0.50136(12) 0.25779(10) 0.5186(4)
H12_8 H 0.502763 0.246423 0.605754
C21_8 C 0.52844(12) 0.29563(11) 0.4880(4)
H13_8 H 0.548494 0.309681 0.553623
N1_10 N 0.61744(7) 0.53418(7) 0.9965(2)
C22_10 C 0.59367(9) 0.51296(9) 0.8910(3)
H14_10 H 0.601285 0.498972 0.831908
H20_10 H 0.660177 0.525739 0.932323
O11 O 0.48544(5) 0.44557(5) 0.92238(16)
O12 O 0.51298(5) 0.41789(5) 0.80198(16)
H1_10 H 0.509866 0.362901 0.951110
C4_10 C 0.49413(7) 0.41934(7) 0.9106(2)
O3_11 O 0.64052(5) 0.06376(7) 0.36743(16)
C2_11 C 0.63710(7) 0.13144(10) 0.0272(2)
O4_11 O 0.68990(5) 0.18611(7) 0.13249(18)
C3_11 C 0.61039(7) 0.06865(9) 0.1422(2)
H2_11 H 0.592277 0.042414 0.143400
C5_11 C 0.66386(7) 0.14704(10) 0.1403(2)
C6_11 C 0.61034(6) 0.09224(8) 0.0299(2)
C7_11 C 0.62483(7) 0.02437(10) 0.3440(2)
C8_11 C 0.66462(7) 0.12393(10) 0.2512(2)
H3_11 H 0.683062 0.134557 0.325253
C9_11 C 0.63785(7) 0.08491(10) 0.2518(2)
C11_11 C 0.70818(8) 0.20438(11) 0.2626(3)
C12_11 C 0.64487(8) 0.01202(11) 0.2564(2)
H5_11 H 0.668738 0.029860 0.217423
O9_11 O 0.58383(5) 0.03361(7) 0.60581(18)
O10_11 O 0.48981(6) 0.05182(8) 0.86429(18)
C15_11 C 0.77114(7) 0.20619(10) 0.1916(2)
C16_11 C 0.56735(7) 0.00946(10) 0.5066(2)
C17_11 C 0.74663(7) 0.21519(11) 0.2898(3)
C18_9 C 0.76298(9) 0.23536(13) 0.4200(3)
H10_9 H 0.788717 0.243432 0.440231
C19_9 C 0.68731(9) 0.21310(13) 0.3597(4)
H11_11 H 0.661763 0.205767 0.339074
C20_9 C 0.74221(10) 0.24357(16) 0.5186(4)
H12_9 H 0.753577 0.256340 0.605754
C21_9 C 0.70437(11) 0.23281(16) 0.4880(4)
H13_9 H 0.690319 0.238813 0.553623
N1_11 N 0.46582(7) 0.08326(10) 0.9965(2)
C22_11 C 0.48704(9) 0.08071(13) 0.8910(3)
H14_11 H 0.501028 0.102313 0.831908
H20_11 H 0.474261 0.134438 0.932323
O11_2 O 0.55443(5) 0.03987(7) 0.92238(16)
O12_2 O 0.58211(5) 0.09509(7) 0.80198(16)
H1_11 H 0.637099 0.146965 0.951110
C4_11 C 0.58066(7) 0.07479(10) 0.9106(2)
C1_11 C 0.58941(7) 0.99792(10) 0.4067(2)
C10_11 C 0.59393(8) 0.94670(11) 0.2851(3)
H4_11 H 0.583259 0.920557 0.264086
C13_11 C 0.57432(7) 0.95901(10) 0.3742(2)
H6_11 H 0.550553 0.940954 0.413302
C14_11 C 0.62928(8) 0.97301(11) 0.2271(3)
H7_9 H 0.642670 0.964617 0.168305
O7_11 O 0.48539(5) 0.97579(7) 0.78773(17)
H8_11 H 0.479846 0.972425 0.880119
H9_11 H 0.467346 0.955405 0.740689
C1_12 C 0.00208(10) 0.59149(7) 0.4067(2)
C10_12 C 0.05330(11) 0.64723(7) 0.2851(3)
H4_12 H 0.079443 0.662702 0.264086
C13_12 C 0.04099(10) 0.61531(7) 0.3742(2)
H6_12 H 0.059046 0.609599 0.413302
C14_12 C 0.02699(11) 0.65627(8) 0.2271(3)
H7_10 H 0.035383 0.678053 0.168305
O7_12 O 0.02421(7) 0.50960(5) 0.78773(17)
H8_12 H 0.027575 0.507421 0.880119
H9_12 H 0.044595 0.511941 0.740689
O3_12 O 0.93624(7) 0.57676(5) 0.36743(16)
C2_12 C 0.86856(10) 0.50566(7) 0.0272(2)
O4_12 O 0.81389(7) 0.50379(5) 0.13249(18)
C3_12 C 0.93135(9) 0.54174(6) 0.1422(2)
H2_12 H 0.957586 0.549863 0.143400
C5_12 C 0.85296(10) 0.51682(7) 0.1403(2)
C6_12 C 0.90776(8) 0.51810(6) 0.0299(2)
C7_12 C 0.97563(10) 0.60046(7) 0.3440(2)
C8_12 C 0.87607(10) 0.54069(7) 0.2512(2)
H3_12 H 0.865443 0.548505 0.325253
C9_12 C 0.91509(10) 0.55294(7) 0.2518(2)
C11_12 C 0.79562(11) 0.50380(8) 0.2626(3)
C12_12 C 0.98798(11) 0.63285(7) 0.2564(2)
H5_12 H 0.970140 0.638878 0.217423
O9_12 O 0.96639(7) 0.55022(5) 0.60581(18)
O10_12 O 0.94818(8) 0.43799(6) 0.86429(18)
C15_12 C 0.79381(10) 0.56495(7) 0.1916(2)
C16_12 C 0.99054(10) 0.55789(7) 0.5066(2)
C17_12 C 0.78481(11) 0.53144(8) 0.2898(3)
C18_10 C 0.76464(13) 0.52762(9) 0.4200(3)
H10_10 H 0.756568 0.545285 0.440231
C19_10 C 0.78690(13) 0.47421(9) 0.3597(4)
H11_12 H 0.794233 0.455996 0.339074
C20_10 C 0.75643(16) 0.49864(12) 0.5186(4)
H12_10 H 0.743660 0.497237 0.605754
C21_10 C 0.76719(16) 0.47156(12) 0.4880(4)
H13_10 H 0.761187 0.451506 0.553623
N1_12 N 0.91674(10) 0.38256(7) 0.9965(2)
C22_12 C 0.91929(13) 0.40633(9) 0.8910(3)
H14_12 H 0.897687 0.398715 0.831908
H20_12 H 0.865562 0.339823 0.932323
O11_3 O 0.96013(7) 0.51456(5) 0.92238(16)
O12_3 O 0.90491(7) 0.48702(5) 0.80198(16)
H1_12 H 0.853035 0.490134 0.951110
C4_12 C 0.92521(10) 0.50587(7) 0.9106(2)
O3_13 O 0.75657(5) 0.02615(5) 0.03410(16)
C1_13 C 0.74184(7) 0.07726(7) 0.0734(2)
C7_13 C 0.73287(7) 0.04184(7) 0.0107(2)
C13_13 C 0.71802(7) 0.09235(7) 0.0409(2)
H6_13 H 0.723734 0.116114 0.079969
O7_13 O 0.82373(5) 0.18128(5) 0.45440(17)
H8_13 H 0.825912 0.186821 0.546786
H9_13 H 0.821392 0.199321 0.407356
O9_13 O 0.78311(5) 0.08284(5) 0.27248(18)
O10_13 O 0.89534(6) 0.17686(6) 0.53096(18)
C16_13 C 0.77544(7) 0.09932(7) 0.1733(2)
H11_13 H 0.877337 0.004904 0.005741
N1_13 N 0.95077(7) 0.20085(7) 0.6632(2)
C22_13 C 0.92700(9) 0.17963(9) 0.5577(3)
H14_13 H 0.934618 0.165639 0.498575
C23_7 C 0.94023(10) 0.22357(11) 0.7571(4)
H15_7 H 0.917097 0.222263 0.720338
H16_7 H 0.935861 0.213479 0.855267
H17_7 H 0.960782 0.249966 0.757589
C24_7 C 0.98841(10) 0.20432(13) 0.6810(3)
H19_7 H 0.988809 0.191703 0.770152
H20_13 H 0.993510 0.192406 0.598990
O11_4 O 0.81877(5) 0.11224(5) 0.58905(16)
O12_4 O 0.84631(5) 0.08456(5) 0.46865(16)
C2_13 C 0.82767(7) 0.02957(7) 0.6939(2)
H1_13 H 0.843199 0.029568 0.617777
C3_13 C 0.79159(6) 0.05628(7) 0.8089(2)
H2_13 H 0.783470 0.074390 0.810067
C4_13 C 0.82746(7) 0.08601(7) 0.5773(2)
C5_13 C 0.81651(7) 0.00281(7) 0.8070(2)
C6_13 C 0.81523(6) 0.05633(6) 0.6966(2)
C8_13 C 0.79264(7) 0.00205(7) 0.9179(2)
C9_13 C 0.78039(7) 0.02882(7) 0.9185(2)
C10_13 C 0.68610(7) 0.07274(8) 0.9518(3)
H4_13 H 0.670631 0.083408 0.930753
C12_13 C 0.70048(7) 0.02180(8) 0.9231(2)
C14_13 C 0.67706(8) 0.03739(8) 0.8938(3)
H7_11 H 0.655280 0.023997 0.834972
O4_13 O 0.82954(5) 0.97677(5) 0.79916(18)
H3_13 H 0.784828 0.983605 0.991920
C11_13 C 0.82953(8) 0.95849(8) 0.9293(3)
H5_13 H 0.694455 0.997929 0.884090
C15_13 C 0.76838(7) 0.89553(7) 0.8583(2)
C17_13 C 0.80189(8) 0.92004(7) 0.9565(3)
O4_14 O 0.02323(5) 0.85278(7) 0.79916(18)
H3_14 H 0.016395 0.801224 0.991920
C11_14 C 0.04151(8) 0.87105(11) 0.9293(3)
H5_14 H 0.002071 0.696527 0.884090
C15_14 C 0.10447(7) 0.87286(10) 0.8583(2)
C17_14 C 0.07996(7) 0.88186(11) 0.9565(3)
O3_14 O 0.97385(5) 0.73043(7) 0.03410(16)
C1_14 C 0.92274(7) 0.66459(10) 0.0734(2)
C7_14 C 0.95816(7) 0.69104(10) 0.0107(2)
C13_14 C 0.90765(7) 0.62568(10) 0.0409(2)
H6_14 H 0.883886 0.607621 0.079969
O7_14 O 0.81872(5) 0.64246(7) 0.45440(17)
H8_14 H 0.813179 0.639092 0.546786
H9_14 H 0.800679 0.622072 0.407356
O9_14 O 0.91716(5) 0.70028(7) 0.27248(18)
O10_14 O 0.82314(6) 0.71849(8) 0.53096(18)
C16_14 C 0.90068(7) 0.67613(10) 0.1733(2)
H11_14 H 0.995096 0.872434 0.005741
N1_14 N 0.79915(7) 0.74993(10) 0.6632(2)
C22_14 C 0.82037(9) 0.74738(13) 0.5577(3)
H14_14 H 0.834361 0.768980 0.498575
C23_8 C 0.77643(11) 0.71667(15) 0.7571(4)
H15_8 H 0.777737 0.694835 0.720338
H16_8 H 0.786521 0.722383 0.855267
H17_8 H 0.750034 0.710817 0.757589
C24_8 C 0.79568(13) 0.78410(16) 0.6810(3)
H18_5 H 0.768874 0.776721 0.685496
H19_8 H 0.808297 0.797107 0.770152
H20_14 H 0.807594 0.801105 0.598990
O11_5 O 0.88776(5) 0.70654(7) 0.58905(16)
O12_5 O 0.91544(5) 0.76176(7) 0.46865(16)
C2_14 C 0.97043(7) 0.79811(10) 0.6939(2)
H1_14 H 0.970432 0.813632 0.617777
C3_14 C 0.94372(7) 0.73532(9) 0.8089(2)
H2_14 H 0.925610 0.709081 0.810067
C4_14 C 0.91399(7) 0.74146(10) 0.5773(2)
C5_14 C 0.99719(7) 0.81371(10) 0.8070(2)
C6_14 C 0.94367(6) 0.75891(8) 0.6966(2)
C8_14 C 0.99795(7) 0.79060(10) 0.9179(2)
C9_14 C 0.97118(7) 0.75158(10) 0.9185(2)
C10_14 C 0.92726(8) 0.61337(11) 0.9518(3)
H4_14 H 0.916592 0.587224 0.930753
C12_14 C 0.97820(8) 0.67869(11) 0.9231(2)
C14_14 C 0.96261(8) 0.63968(11) 0.8938(3)
H7_12 H 0.976003 0.631284 0.834972
O3_15 O 0.26957(7) 0.24343(5) 0.03410(16)
C1_15 C 0.33541(10) 0.25816(7) 0.0734(2)
C7_15 C 0.30896(10) 0.26713(7) 0.0107(2)
C13_15 C 0.37432(10) 0.28198(7) 0.0409(2)
H6_15 H 0.392379 0.276266 0.079969
O7_15 O 0.35754(7) 0.17627(5) 0.45440(17)
H8_15 H 0.360908 0.174088 0.546786
H9_15 H 0.377928 0.178608 0.407356
O9_15 O 0.29972(7) 0.21689(5) 0.27248(18)
O10_15 O 0.28151(8) 0.10466(6) 0.53096(18)
C16_15 C 0.32387(10) 0.22456(7) 0.1733(2)
C18_11 C 0.09797(13) 0.19429(9) 0.0867(3)
H10_11 H 0.089901 0.211952 0.106898
C19_11 C 0.12023(13) 0.14088(9) 0.0264(4)
H11_15 H 0.127566 0.122663 0.005741
C20_11 C 0.08976(16) 0.16531(12) 0.1853(4)
H12_11 H 0.076993 0.163904 0.272421
C21_11 C 0.10052(16) 0.13823(12) 0.1547(4)
H13_11 H 0.094520 0.118173 0.220290
N1_15 N 0.25007(10) 0.04923(7) 0.6632(2)
C22_15 C 0.25262(13) 0.07300(9) 0.5577(3)
H14_15 H 0.231020 0.065382 0.498575
C23_9 C 0.28333(15) 0.05977(10) 0.7571(4)
H15_9 H 0.305165 0.082903 0.720338
H16_9 H 0.277617 0.064139 0.855267
H17_9 H 0.289183 0.039218 0.757589
C24_9 C 0.21590(16) 0.01159(10) 0.6810(3)
H19_9 H 0.202893 0.011191 0.770152
H20_15 H 0.198895 0.006490 0.598990
O11_6 O 0.29346(7) 0.18123(5) 0.58905(16)
O12_6 O 0.23824(7) 0.15369(5) 0.46865(16)
C2_15 C 0.20189(10) 0.17233(7) 0.6939(2)
H1_15 H 0.186368 0.156801 0.617777
O4_15 O 0.14722(7) 0.17046(5) 0.79916(18)
C3_15 C 0.26468(9) 0.20841(6) 0.8089(2)
H2_15 H 0.290919 0.216530 0.810067
C4_15 C 0.25854(10) 0.17254(7) 0.5773(2)
C5_15 C 0.18629(10) 0.18349(7) 0.8070(2)
C6_15 C 0.24109(8) 0.18477(6) 0.6966(2)
C8_15 C 0.20940(10) 0.20736(7) 0.9179(2)
H3_15 H 0.198776 0.215172 0.991920
C9_15 C 0.24842(10) 0.21961(7) 0.9185(2)
C10_15 C 0.38663(11) 0.31390(7) 0.9518(3)
H4_15 H 0.412776 0.329369 0.930753
C11_15 C 0.12895(11) 0.17047(8) 0.9293(3)
C12_15 C 0.32131(11) 0.29952(7) 0.9231(2)
H5_15 H 0.303473 0.305545 0.884090
C14_15 C 0.36032(11) 0.32294(8) 0.8938(3)
H7_13 H 0.368716 0.344720 0.834972
C15_15 C 0.12714(10) 0.23162(7) 0.8583(2)
C17_15 C 0.11814(11) 0.19811(8) 0.9565(3)
O7_16 O 0.15707(5) 0.84794(5) 0.12106(17)
H8_16 H 0.159246 0.853487 0.213452
H9_16 H 0.154726 0.865987 0.074022
O10_16 O 0.22868(6) 0.84352(6) 0.19762(18)
N1_16 N 0.28411(7) 0.86751(7) 0.3298(2)
C22_16 C 0.26034(9) 0.84629(9) 0.2243(3)
H14_16 H 0.267952 0.832305 0.165241
C23_10 C 0.27357(10) 0.89023(11) 0.4237(4)
H15_10 H 0.250431 0.888929 0.387004
H16_10 H 0.269195 0.880145 0.521933
H17_10 H 0.294116 0.916632 0.424255
C24_10 C 0.32175(10) 0.87098(13) 0.3476(3)
H18_6 H 0.341180 0.897792 0.352162
H19_10 H 0.322143 0.858369 0.436818
H20_16 H 0.326844 0.859072 0.265656
O11_7 O 0.15211(5) 0.77890(5) 0.25571(16)
O12_7 O 0.17965(5) 0.75122(5) 0.13531(16)
O3_16 O 0.08991(5) 0.69281(5) 0.70076(16)
C1_16 C 0.07518(7) 0.74392(7) 0.7400(2)
C2_16 C 0.16101(7) 0.69623(7) 0.3605(2)
H1_16 H 0.176533 0.696234 0.284443
O4_16 O 0.16288(5) 0.64343(5) 0.46582(18)
C3_16 C 0.12493(6) 0.72294(7) 0.4755(2)
H2_16 H 0.116804 0.741056 0.476733
C4_16 C 0.16080(7) 0.75267(7) 0.2439(2)
C5_16 C 0.14985(7) 0.66947(7) 0.4736(2)
C6_16 C 0.14857(6) 0.72299(6) 0.3632(2)
C7_16 C 0.06621(7) 0.70850(7) 0.6773(2)
C8_16 C 0.12598(7) 0.66871(7) 0.5845(2)
H3_16 H 0.118162 0.650271 0.658586
C9_16 C 0.11373(7) 0.69548(7) 0.5851(2)
C10_16 C 0.01944(7) 0.73940(8) 0.6184(3)
H4_16 H 0.003965 0.750074 0.597419
C11_16 C 0.16287(8) 0.62515(8) 0.5959(3)
C12_16 C 0.03382(7) 0.68846(8) 0.5897(2)
H5_16 H 0.027789 0.664595 0.550756
C13_16 C 0.05136(7) 0.75901(7) 0.7075(2)
H6_16 H 0.057068 0.782780 0.746635
C14_16 C 0.01040(8) 0.70405(8) 0.5604(3)
O9_16 O 0.11645(5) 0.74950(5) 0.93914(18)
C15_16 C 0.10172(7) 0.56219(7) 0.5249(2)
C16_16 C 0.10878(7) 0.76598(7) 0.8399(2)
C17_16 C 0.13523(8) 0.58670(7) 0.6231(3)
C18_12 C 0.13905(9) 0.57035(9) 0.7533(3)
H10_12 H 0.121382 0.544616 0.773564
C19_12 C 0.19246(9) 0.64602(9) 0.6930(4)
H11_16 H 0.210671 0.671570 0.672407
C20_12 C 0.16803(12) 0.59112(10) 0.8519(4)
H12_12 H 0.169430 0.579756 0.939087
C21_12 C 0.19511(12) 0.62896(11) 0.8213(4)
H13_12 H 0.215161 0.643014 0.886956
O7_17 O 0.15206(5) 0.30912(7) 0.12106(17)
H8_17 H 0.146513 0.305758 0.213452
H9_17 H 0.134013 0.288738 0.074022
O10_17 O 0.15648(6) 0.38515(8) 0.19762(18)
N1_17 N 0.13249(7) 0.41659(10) 0.3298(2)
C22_17 C 0.15371(9) 0.41404(13) 0.2243(3)
H14_17 H 0.167695 0.435646 0.165241
C23_11 C 0.10977(11) 0.38333(15) 0.4237(4)
H15_11 H 0.111071 0.361501 0.387004
H16_11 H 0.119855 0.389049 0.521933
H17_11 H 0.083368 0.377483 0.424255
C24_11 C 0.12902(13) 0.45076(16) 0.3476(3)
H18_7 H 0.102208 0.443387 0.352162
H19_11 H 0.141631 0.463773 0.436818
H20_17 H 0.140928 0.467771 0.265656
O11_8 O 0.22110(5) 0.37320(7) 0.25571(16)
O12_8 O 0.24878(5) 0.42842(7) 0.13531(16)
O3_17 O 0.30719(5) 0.39709(7) 0.70076(16)
C1_17 C 0.25608(7) 0.33125(10) 0.7400(2)
C2_17 C 0.30377(7) 0.46477(10) 0.3605(2)
H1_17 H 0.303766 0.480298 0.284443
O4_17 O 0.35657(5) 0.51944(7) 0.46582(18)
C3_17 C 0.27706(7) 0.40198(9) 0.4755(2)
H2_17 H 0.258944 0.375747 0.476733
C4_17 C 0.24733(7) 0.40812(10) 0.2439(2)
C5_17 C 0.33053(7) 0.48037(10) 0.4736(2)
C6_17 C 0.27701(6) 0.42557(8) 0.3632(2)
C7_17 C 0.29150(7) 0.35770(10) 0.6773(2)
C8_17 C 0.33129(7) 0.45726(10) 0.5845(2)
H3_17 H 0.349729 0.467890 0.658586
C9_17 C 0.30452(7) 0.41824(10) 0.5851(2)
C10_17 C 0.26060(8) 0.28003(11) 0.6184(3)
H4_17 H 0.249926 0.253890 0.597419
C11_17 C 0.37485(8) 0.53771(11) 0.5959(3)
C12_17 C 0.31154(8) 0.34535(11) 0.5897(2)
H5_17 H 0.335405 0.363193 0.550756
C13_17 C 0.24099(7) 0.29234(10) 0.7075(2)
H6_17 H 0.217220 0.274287 0.746635
C14_17 C 0.29595(8) 0.30634(11) 0.5604(3)
H7_14 H 0.309337 0.297950 0.501638
O9_17 O 0.25050(5) 0.36694(7) 0.93914(18)
C15_17 C 0.43781(7) 0.53952(10) 0.5249(2)
C16_17 C 0.23402(7) 0.34279(10) 0.8399(2)
C17_17 C 0.41330(7) 0.54852(11) 0.6231(3)
C18_13 C 0.42965(9) 0.56869(13) 0.7533(3)
H10_13 H 0.455384 0.576765 0.773564
C19_13 C 0.35398(9) 0.54643(13) 0.6930(4)
H11_17 H 0.328430 0.539100 0.672407
C20_13 C 0.40888(10) 0.57690(16) 0.8519(4)
H12_13 H 0.420244 0.589673 0.939087
C21_13 C 0.37104(11) 0.56614(16) 0.8213(4)
H13_13 H 0.356986 0.572146 0.886956
O7_18 O 0.69088(7) 0.84293(5) 0.12106(17)
H8_18 H 0.694242 0.840754 0.213452
H9_18 H 0.711262 0.845274 0.074022
O10_18 O 0.61485(8) 0.77132(6) 0.19762(18)
N1_18 N 0.58341(10) 0.71589(7) 0.3298(2)
C22_18 C 0.58596(13) 0.73966(9) 0.2243(3)
H14_18 H 0.564354 0.732048 0.165241
C23_12 C 0.61667(15) 0.72643(10) 0.4237(4)
H15_12 H 0.638499 0.749569 0.387004
H16_12 H 0.610951 0.730805 0.521933
H17_12 H 0.622517 0.705884 0.424255
C24_12 C 0.54924(16) 0.67825(10) 0.3476(3)
H18_8 H 0.556613 0.658820 0.352162
H19_12 H 0.536227 0.677857 0.436818
H20_18 H 0.532229 0.673156 0.265656
O11_9 O 0.62680(7) 0.84789(5) 0.25571(16)
O12_9 O 0.57158(7) 0.82035(5) 0.13531(16)
O3_18 O 0.60291(7) 0.91009(5) 0.70076(16)
C1_18 C 0.66875(10) 0.92482(7) 0.7400(2)
C2_18 C 0.53523(10) 0.83899(7) 0.3605(2)
H1_18 H 0.519702 0.823467 0.284443
O4_18 O 0.48056(7) 0.83712(5) 0.46582(18)
C3_18 C 0.59802(9) 0.87507(6) 0.4755(2)
H2_18 H 0.624253 0.883196 0.476733
C4_18 C 0.59188(10) 0.83920(7) 0.2439(2)
C5_18 C 0.51963(10) 0.85015(7) 0.4736(2)
C6_18 C 0.57443(8) 0.85143(6) 0.3632(2)
C7_18 C 0.64230(10) 0.93379(7) 0.6773(2)
C8_18 C 0.54274(10) 0.87402(7) 0.5845(2)
H3_18 H 0.532110 0.881838 0.658586
C9_18 C 0.58176(10) 0.88627(7) 0.5851(2)
C10_18 C 0.71997(11) 0.98056(7) 0.6184(3)
H4_18 H 0.746110 0.996035 0.597419
C11_18 C 0.46229(11) 0.83713(8) 0.5959(3)
C12_18 C 0.65465(11) 0.96618(7) 0.5897(2)
H5_18 H 0.636807 0.972211 0.550756
C13_18 C 0.70766(10) 0.94864(7) 0.7075(2)
H6_18 H 0.725713 0.942932 0.746635
C14_18 C 0.69366(11) 0.98960(8) 0.5604(3)
O9_18 O 0.63306(7) 0.88355(5) 0.93914(18)
C15_18 C 0.46048(10) 0.89828(7) 0.5249(2)
C16_18 C 0.65721(10) 0.89122(7) 0.8399(2)
C17_18 C 0.45148(11) 0.86477(8) 0.6231(3)
C18_14 C 0.43131(13) 0.86095(9) 0.7533(3)
H10_14 H 0.423235 0.878618 0.773564
C19_14 C 0.45357(13) 0.80754(9) 0.6930(4)
H11_18 H 0.460900 0.789329 0.672407
C20_14 C 0.42310(16) 0.83197(12) 0.8519(4)
H12_14 H 0.410327 0.830570 0.939087
C21_14 C 0.43386(16) 0.80489(12) 0.8213(4)
H13_14 H 0.427854 0.784839 0.886956
C23_13 C 0.39310(10) 0.44310(11) 0.9096(4)
H15_13 H 0.416236 0.444404 0.946329
H16_13 H 0.397472 0.453188 0.811400
H17_13 H 0.372551 0.416701 0.909078
C24_13 C 0.34492(10) 0.46235(13) 0.9857(3)
H18_9 H 0.325487 0.435541 0.981171
H19_13 H 0.344524 0.474964 0.896515
C23_14 C 0.55690(11) 0.95000(15) 0.9096(4)
H15_14 H 0.555596 0.971832 0.946329
H16_14 H 0.546812 0.944284 0.811400
H17_14 H 0.583299 0.955850 0.909078
C24_14 C 0.53765(13) 0.88257(16) 0.9857(3)
H18_10 H 0.564459 0.889946 0.981171
H19_14 H 0.525036 0.869560 0.896515
C23_15 C 0.05000(15) 0.60690(10) 0.9096(4)
H15_15 H 0.028168 0.583764 0.946329
H16_15 H 0.055716 0.602528 0.811400
H17_15 H 0.044150 0.627449 0.909078
C24_15 C 0.11743(16) 0.65508(10) 0.9857(3)
H18_11 H 0.110054 0.674513 0.981171
H19_15 H 0.130440 0.655476 0.896515
C18_15 C 0.19429(9) 0.09631(9) 0.9133(3)
H10_15 H 0.211952 0.122050 0.893102
C19_15 C 0.14088(9) 0.02064(9) 0.9736(4)
C20_15 C 0.16531(12) 0.07554(10) 0.8147(4)
H12_15 H 0.163904 0.086910 0.727579
C21_15 C 0.13823(12) 0.03770(11) 0.8453(4)
H13_15 H 0.118173 0.023652 0.779710
H18_12 H 0.992154 0.768874 0.314504
C18_16 C 0.90369(9) 0.09797(13) 0.9133(3)
H10_16 H 0.877950 0.089901 0.893102
C19_16 C 0.97936(9) 0.12023(13) 0.9736(4)
C20_16 C 0.92446(10) 0.08976(16) 0.8147(4)
H12_16 H 0.913090 0.076993 0.727579
C21_16 C 0.96230(11) 0.10052(16) 0.8453(4)
H13_16 H 0.976348 0.094520 0.779710
H18_13 H 0.776721 0.007846 0.314504
H7_15 H 0.011386 0.309337 0.498362
H7_16 H 0.297950 0.988614 0.498362
C23_16 C 0.60690(10) 0.55690(11) 0.0904(4)
H15_16 H 0.583764 0.555596 0.053671
H16_16 H 0.602528 0.546812 0.188600
H17_16 H 0.627449 0.583299 0.090922
C24_16 C 0.65508(10) 0.53765(13) 0.0143(3)
H18_14 H 0.674513 0.564459 0.018829
H19_16 H 0.655476 0.525036 0.103485
C23_17 C 0.44310(11) 0.05000(15) 0.0904(4)
H15_17 H 0.444404 0.028168 0.053671
H16_17 H 0.453188 0.055716 0.188600
H17_17 H 0.416701 0.044150 0.090922
C24_17 C 0.46235(13) 0.11743(16) 0.0143(3)
H18_15 H 0.435541 0.110054 0.018829
H19_17 H 0.474964 0.130440 0.103485
C23_18 C 0.95000(15) 0.39310(10) 0.0904(4)
H15_18 H 0.971832 0.416236 0.053671
H16_18 H 0.944284 0.397472 0.188600
H17_18 H 0.955850 0.372551 0.090922
C24_18 C 0.88257(16) 0.34492(10) 0.0143(3)
H18_16 H 0.889946 0.325487 0.018829
H19_18 H 0.869560 0.344524 0.103485
H18_17 H 0.007846 0.231126 0.685496
C18_17 C 0.80571(9) 0.90369(9) 0.0867(3)
H10_17 H 0.788048 0.877950 0.106898
C19_17 C 0.85912(9) 0.97936(9) 0.0264(4)
C20_17 C 0.83469(12) 0.92446(10) 0.1853(4)
H12_17 H 0.836096 0.913090 0.272421
C21_17 C 0.86177(12) 0.96230(11) 0.1547(4)
H13_17 H 0.881827 0.976348 0.220290
C18_18 C 0.09631(9) 0.90203(13) 0.0867(3)
H10_18 H 0.122050 0.910099 0.106898
C19_18 C 0.02064(9) 0.87977(13) 0.0264(4)
C20_18 C 0.07554(10) 0.91024(16) 0.1853(4)
H12_18 H 0.086910 0.923007 0.272421
C21_18 C 0.03770(11) 0.89948(16) 0.1547(4)
H13_18 H 0.023652 0.905480 0.220290
H18_18 H 0.223279 0.992154 0.685496
H7_17 H 0.988614 0.690663 0.501638
H7_18 H 0.702050 0.011386 0.501638
loop_
_geom_bond_atom_site_label_1
_geom_bond_atom_site_label_2
_geom_bond_site_symmetry_1
_geom_bond_site_symmetry_2
O1 C4 1_555 1_555
O2 C4 1_555 1_555
Nd2 O1 1_555 1_555
O2 Nd2 1_555 1_555
Nd2 O5 1_555 1_555
O3 C7 1_555 1_555
C1 C7 1_555 1_555
O4 C5 1_555 1_555
C3 H2 1_555 1_555
C5 C2 1_555 1_555
C6 C2 1_555 1_555
C7 C12 1_555 1_555
C8 C5 1_555 1_555
H3 C8 1_555 1_555
C9 O3 1_555 1_555
C10 H4 1_555 1_555
C11 O4 1_555 1_555
C12 H5 1_555 1_555
C13 C1 1_555 1_555
H6 C13 1_555 1_555
C14 C10 1_555 1_555
H7 C14 1_555 1_555
O5 C16 1_555 1_555
O6 C15 1_555 1_555
O7 Nd2 1_555 1_555
H8 O7 1_555 1_555
H9 O7 1_555 1_555
O8 C15 1_555 1_555
O9 Nd2 1_555 1_555
O10 Nd2 1_555 1_555
C15 C17 1_555 1_555
C16 C1 1_555 1_555
C17 C11 1_555 1_555
C18 C17 1_555 1_555
H10 C18 1_555 1_555
C19 C11 1_555 1_555
H11 C19 1_555 1_555
C20 C18 1_555 1_555
H12 C20 1_555 1_555
C21 C19 1_555 1_555
H13 C21 1_555 1_555
N1 C22 1_555 1_555
C22 O10 1_555 1_555
H14 C22 1_555 1_555
Nd3 O5 1_555 1_555
O13 Nd2 1_555 1_555
O14 Nd2 1_555 1_555
O15 Nd2 1_555 1_555
C3 C6 1_555 1_555
C3 C9 1_555 1_555
C8 C9 1_555 1_555
C10 C13 1_555 1_555
C12 C14 1_555 1_555
O9 C16 1_555 1_555
C20 C21 1_555 1_555
Nd3 O13 1_555 1_555
C10_2 H4_2 1_555 1_555
C13_2 C1_2 1_555 1_555
H6_2 C13_2 1_555 1_555
C14_2 C10_2 1_555 1_555
H7_2 C14_2 1_555 1_555
H8_2 O7_2 1_555 1_555
H9_2 O7_2 1_555 1_555
Nd3_2 O5_2 1_555 1_555
C10_2 C13_2 1_555 1_555
O1_2 C4_2 1_555 1_555
O2_2 C4_2 1_555 1_555
Nd2_2 O1_2 1_555 1_555
O2_2 Nd2_2 1_555 1_555
O3_2 C7_2 1_555 1_555
O4_2 C5_2 1_555 1_555
C3_2 H2_2 1_555 1_555
C5_2 C2_2 1_555 1_555
C6_2 C2_2 1_555 1_555
C7_2 C12_2 1_555 1_555
C8_2 C5_2 1_555 1_555
H3_2 C8_2 1_555 1_555
C9_2 O3_2 1_555 1_555
C11_2 O4_2 1_555 1_555
C12_2 H5_2 1_555 1_555
O6_2 C15_2 1_555 1_555
O8_2 C15_2 1_555 1_555
O9_2 Nd2_2 1_555 1_555
O10_2 Nd2_2 1_555 1_555
C15_2 C17_2 1_555 1_555
C17_2 C11_2 1_555 1_555
C18_2 C17_2 1_555 1_555
H10_2 C18_2 1_555 1_555
C19_2 C11_2 1_555 1_555
H11_2 C19_2 1_555 1_555
C20_2 C18_2 1_555 1_555
H12_2 C20_2 1_555 1_555
C21_2 C19_2 1_555 1_555
H13_2 C21_2 1_555 1_555
N1_2 C22_2 1_555 1_555
C22_2 O10_2 1_555 1_555
H14_2 C22_2 1_555 1_555
O13_2 Nd2_2 1_555 1_555
O14_2 Nd2_2 1_555 1_555
O15_2 Nd2_2 1_555 1_555
C3_2 C6_2 1_555 1_555
C3_2 C9_2 1_555 1_555
C8_2 C9_2 1_555 1_555
O9_2 C16_2 1_555 1_555
C20_2 C21_2 1_555 1_555
O1_3 C4_3 1_555 1_555
O2_3 C4_3 1_555 1_555
Nd2_3 O1_3 1_555 1_555
O2_3 Nd2_3 1_555 1_555
O3_3 C7_3 1_555 1_555
O4_3 C5_3 1_555 1_555
C3_3 H2_3 1_555 1_555
C5_3 C2_3 1_555 1_555
C6_3 C2_3 1_555 1_555
C7_3 C12_3 1_555 1_555
C8_3 C5_3 1_555 1_555
H3_3 C8_3 1_555 1_555
C9_3 O3_3 1_555 1_555
C11_3 O4_3 1_555 1_555
C12_3 H5_3 1_555 1_555
O6_3 C15_3 1_555 1_555
O8_3 C15_3 1_555 1_555
O9_3 Nd2_3 1_555 1_555
O10_3 Nd2_3 1_555 1_555
C15_3 C17_3 1_555 1_555
C17_3 C11_3 1_555 1_555
C18_3 C17_3 1_555 1_555
H10_3 C18_3 1_555 1_555
C19_3 C11_3 1_555 1_555
H11_3 C19_3 1_555 1_555
C20_3 C18_3 1_555 1_555
H12_3 C20_3 1_555 1_555
C21_3 C19_3 1_555 1_555
H13_3 C21_3 1_555 1_555
N1_3 C22_3 1_555 1_555
C22_3 O10_3 1_555 1_555
H14_3 C22_3 1_555 1_555
O13_3 Nd2_3 1_555 1_555
O14_3 Nd2_3 1_555 1_555
O15_3 Nd2_3 1_555 1_555
C3_3 C6_3 1_555 1_555
C3_3 C9_3 1_555 1_555
C8_3 C9_3 1_555 1_555
O9_3 C16_3 1_555 1_555
C20_3 C21_3 1_555 1_555
C10_3 H4_3 1_555 1_555
C13_3 C1_3 1_555 1_555
H6_3 C13_3 1_555 1_555
C14_3 C10_3 1_555 1_555
H7_3 C14_3 1_555 1_555
H8_3 O7_3 1_555 1_555
H9_3 O7_3 1_555 1_555
Nd3_3 O5_3 1_555 1_555
C10_3 C13_3 1_555 1_555
C11_4 O4_4 1_555 1_555
O6_4 C15_4 1_555 1_555
O8_4 C15_4 1_555 1_555
C15_4 C17_4 1_555 1_555
C17_4 C11_4 1_555 1_555
Nd4_4 O6_4 1_555 1_555
O8_4 Nd4_4 1_555 1_555
O1_4 C4_4 1_555 1_555
O2_4 C4_4 1_555 1_555
C2_4 H1_4 1_555 1_555
C3_4 H2_4 1_555 1_555
C4_4 C6_4 1_555 1_555
C5_4 C2_4 1_555 1_555
C6_4 C2_4 1_555 1_555
C8_4 C5_4 1_555 1_555
C10_4 H4_4 1_555 1_555
C14_4 C10_4 1_555 1_555
H7_4 C14_4 1_555 1_555
Nd2_4 O1_4 1_555 1_555
O2_4 Nd2_4 1_555 1_555
C3_4 C6_4 1_555 1_555
C3_4 C9_4 1_555 1_555
C8_4 C9_4 1_555 1_555
C12_4 C14_4 1_555 1_555
Nd2_4 O5_4 1_555 1_555
O3_4 C7_4 1_555 1_555
C1_4 C7_4 1_555 1_555
C13_4 C1_4 1_555 1_555
H6_4 C13_4 1_555 1_555
O5_4 C16_4 1_555 1_555
O7_4 Nd2_4 1_555 1_555
H8_4 O7_4 1_555 1_555
H9_4 O7_4 1_555 1_555
O9_4 Nd2_4 1_555 1_555
O10_4 Nd2_4 1_555 1_555
C16_4 C1_4 1_555 1_555
N1_4 C22_4 1_555 1_555
C22_4 O10_4 1_555 1_555
H14_4 C22_4 1_555 1_555
C23 N1_4 1_555 1_555
H15 C23 1_555 1_555
H16 C23 1_555 1_555
H17 C23 1_555 1_555
C24 N1_4 1_555 1_555
H19 C24 1_555 1_555
H20_4 C24 1_555 1_555
O13_4 Nd2_4 1_555 1_555
O14_4 Nd2_4 1_555 1_555
O15_4 Nd2_4 1_555 1_555
O9_4 C16_4 1_555 1_555
O1_5 C4_5 1_555 1_555
O2_5 C4_5 1_555 1_555
C2_5 H1_5 1_555 1_555
C3_5 H2_5 1_555 1_555
C4_5 C6_5 1_555 1_555
C5_5 C2_5 1_555 1_555
C6_5 C2_5 1_555 1_555
C8_5 C5_5 1_555 1_555
C10_5 H4_5 1_555 1_555
C14_5 C10_5 1_555 1_555
H7_5 C14_5 1_555 1_555
Nd2_5 O1_5 1_555 1_555
O2_5 Nd2_5 1_555 1_555
C3_5 C6_5 1_555 1_555
C3_5 C9_5 1_555 1_555
C8_5 C9_5 1_555 1_555
C12_5 C14_5 1_555 1_555
Nd2_5 O5_5 1_555 1_555
O3_5 C7_5 1_555 1_555
C1_5 C7_5 1_555 1_555
C13_5 C1_5 1_555 1_555
H6_5 C13_5 1_555 1_555
O5_5 C16_5 1_555 1_555
O7_5 Nd2_5 1_555 1_555
H8_5 O7_5 1_555 1_555
H9_5 O7_5 1_555 1_555
O9_5 Nd2_5 1_555 1_555
O10_5 Nd2_5 1_555 1_555
C16_5 C1_5 1_555 1_555
N1_5 C22_5 1_555 1_555
C22_5 O10_5 1_555 1_555
H14_5 C22_5 1_555 1_555
C23_2 N1_5 1_555 1_555
H15_2 C23_2 1_555 1_555
H16_2 C23_2 1_555 1_555
H17_2 C23_2 1_555 1_555
C24_2 N1_5 1_555 1_555
H18 C24_2 1_555 1_555
H19_2 C24_2 1_555 1_555
H20_5 C24_2 1_555 1_555
O13_5 Nd2_5 1_555 1_555
O14_5 Nd2_5 1_555 1_555
O15_5 Nd2_5 1_555 1_555
O9_5 C16_5 1_555 1_555
C11_5 O4_5 1_555 1_555
O6_5 C15_5 1_555 1_555
O8_5 C15_5 1_555 1_555
C15_5 C17_5 1_555 1_555
C17_5 C11_5 1_555 1_555
Nd4_5 O6_5 1_555 1_555
O8_5 Nd4_5 1_555 1_555
O1_6 C4_6 1_555 1_555
O2_6 C4_6 1_555 1_555
C2_6 H1_6 1_555 1_555
O4_6 C5_6 1_555 1_555
C3_6 H2_6 1_555 1_555
C4_6 C6_6 1_555 1_555
C5_6 C2_6 1_555 1_555
C6_6 C2_6 1_555 1_555
C8_6 C5_6 1_555 1_555
H3_6 C8_6 1_555 1_555
C10_6 H4_6 1_555 1_555
C11_6 O4_6 1_555 1_555
C12_6 H5_6 1_555 1_555
C14_6 C10_6 1_555 1_555
H7_6 C14_6 1_555 1_555
O6_6 C15_6 1_555 1_555
O8_6 C15_6 1_555 1_555
C15_6 C17_6 1_555 1_555
C17_6 C11_6 1_555 1_555
Nd2_6 O1_6 1_555 1_555
Nd4_6 O6_6 1_555 1_555
O2_6 Nd2_6 1_555 1_555
C3_6 C6_6 1_555 1_555
C3_6 C9_6 1_555 1_555
C8_6 C9_6 1_555 1_555
C12_6 C14_6 1_555 1_555
O8_6 Nd4_6 1_555 1_555
Nd2_6 O5_6 1_555 1_555
O3_6 C7_6 1_555 1_555
C1_6 C7_6 1_555 1_555
C13_6 C1_6 1_555 1_555
H6_6 C13_6 1_555 1_555
O5_6 C16_6 1_555 1_555
O7_6 Nd2_6 1_555 1_555
H8_6 O7_6 1_555 1_555
H9_6 O7_6 1_555 1_555
O9_6 Nd2_6 1_555 1_555
O10_6 Nd2_6 1_555 1_555
C16_6 C1_6 1_555 1_555
H10_4 C18_4 1_555 1_555
H11_6 C19_4 1_555 1_555
C20_4 C18_4 1_555 1_555
H12_4 C20_4 1_555 1_555
C21_4 C19_4 1_555 1_555
H13_4 C21_4 1_555 1_555
N1_6 C22_6 1_555 1_555
C22_6 O10_6 1_555 1_555
H14_6 C22_6 1_555 1_555
C23_3 N1_6 1_555 1_555
H15_3 C23_3 1_555 1_555
H16_3 C23_3 1_555 1_555
H17_3 C23_3 1_555 1_555
C24_3 N1_6 1_555 1_555
H19_3 C24_3 1_555 1_555
H20_6 C24_3 1_555 1_555
O13_6 Nd2_6 1_555 1_555
O14_6 Nd2_6 1_555 1_555
O15_6 Nd2_6 1_555 1_555
O9_6 C16_6 1_555 1_555
C20_4 C21_4 1_555 1_555
O1_7 C4_7 1_555 1_555
O2_7 C4_7 1_555 1_555
O3_7 C7_7 1_555 1_555
C1_7 C7_7 1_555 1_555
C2_7 H1_7 1_555 1_555
O4_7 C5_7 1_555 1_555
C3_7 H2_7 1_555 1_555
C4_7 C6_7 1_555 1_555
C5_7 C2_7 1_555 1_555
C6_7 C2_7 1_555 1_555
C7_7 C12_7 1_555 1_555
C8_7 C5_7 1_555 1_555
H3_7 C8_7 1_555 1_555
C9_7 O3_7 1_555 1_555
C10_7 H4_7 1_555 1_555
C11_7 O4_7 1_555 1_555
C12_7 H5_7 1_555 1_555
C13_7 C1_7 1_555 1_555
H6_7 C13_7 1_555 1_555
C14_7 C10_7 1_555 1_555
O5_7 C16_7 1_555 1_555
O6_7 C15_7 1_555 1_555
O8_7 C15_7 1_555 1_555
C15_7 C17_7 1_555 1_555
C16_7 C1_7 1_555 1_555
C17_7 C11_7 1_555 1_555
C18_5 C17_7 1_555 1_555
H10_5 C18_5 1_555 1_555
C19_5 C11_7 1_555 1_555
H11_7 C19_5 1_555 1_555
C20_5 C18_5 1_555 1_555
H12_5 C20_5 1_555 1_555
C21_5 C19_5 1_555 1_555
H13_5 C21_5 1_555 1_555
Nd2_7 O1_7 1_555 1_555
Nd4_5 O5_7 1_555 1_555
Nd3_3 O6_7 1_555 1_555
O2_7 Nd2_7 1_555 1_555
C3_7 C6_7 1_555 1_555
C3_7 C9_7 1_555 1_555
C8_7 C9_7 1_555 1_555
C10_7 C13_7 1_555 1_555
C12_7 C14_7 1_555 1_555
O8_7 Nd3_3 1_555 1_555
O9_7 C16_7 1_555 1_555
C20_5 C21_5 1_555 1_555
Nd4_5 O13_7 1_555 1_555
O7_7 Nd2_7 1_555 1_555
H8_7 O7_7 1_555 1_555
H9_7 O7_7 1_555 1_555
O10_7 Nd2_7 1_555 1_555
N1_7 C22_7 1_555 1_555
C22_7 O10_7 1_555 1_555
H14_7 C22_7 1_555 1_555
C23_4 N1_7 1_555 1_555
H15_4 C23_4 1_555 1_555
H16_4 C23_4 1_555 1_555
H17_4 C23_4 1_555 1_555
C24_4 N1_7 1_555 1_555
H18_2 C24_4 1_555 1_555
H19_4 C24_4 1_555 1_555
H20_7 C24_4 1_555 1_555
O1_8 C4_8 1_555 1_555
O2_8 C4_8 1_555 1_555
O3_8 C7_8 1_555 1_555
C1_8 C7_8 1_555 1_555
C2_8 H1_8 1_555 1_555
O4_8 C5_8 1_555 1_555
C3_8 H2_8 1_555 1_555
C4_8 C6_8 1_555 1_555
C5_8 C2_8 1_555 1_555
C6_8 C2_8 1_555 1_555
C7_8 C12_8 1_555 1_555
C8_8 C5_8 1_555 1_555
H3_8 C8_8 1_555 1_555
C9_8 O3_8 1_555 1_555
C10_8 H4_8 1_555 1_555
C11_8 O4_8 1_555 1_555
C12_8 H5_8 1_555 1_555
C13_8 C1_8 1_555 1_555
H6_8 C13_8 1_555 1_555
C14_8 C10_8 1_555 1_555
H7_7 C14_8 1_555 1_555
O5_8 C16_8 1_555 1_555
O6_8 C15_8 1_555 1_555
O8_8 C15_8 1_555 1_555
C15_8 C17_8 1_555 1_555
C16_8 C1_8 1_555 1_555
C17_8 C11_8 1_555 1_555
C18_6 C17_8 1_555 1_555
H10_6 C18_6 1_555 1_555
C19_6 C11_8 1_555 1_555
H11_8 C19_6 1_555 1_555
C20_6 C18_6 1_555 1_555
H12_6 C20_6 1_555 1_555
C21_6 C19_6 1_555 1_555
H13_6 C21_6 1_555 1_555
Nd2_8 O1_8 1_555 1_555
Nd4_6 O5_8 1_555 1_555
Nd3 O6_8 1_555 1_555
O2_8 Nd2_8 1_555 1_555
C3_8 C6_8 1_555 1_555
C3_8 C9_8 1_555 1_555
C8_8 C9_8 1_555 1_555
C10_8 C13_8 1_555 1_555
C12_8 C14_8 1_555 1_555
O8_8 Nd3 1_555 1_555
O9_8 C16_8 1_555 1_555
C20_6 C21_6 1_555 1_555
Nd4_6 O13_8 1_555 1_555
O7_8 Nd2_8 1_555 1_555
H8_8 O7_8 1_555 1_555
H9_8 O7_8 1_555 1_555
O10_8 Nd2_8 1_555 1_555
N1_8 C22_8 1_555 1_555
C22_8 O10_8 1_555 1_555
H14_8 C22_8 1_555 1_555
C23_5 N1_8 1_555 1_555
H15_5 C23_5 1_555 1_555
H16_5 C23_5 1_555 1_555
H17_5 C23_5 1_555 1_555
C24_5 N1_8 1_555 1_555
H18_3 C24_5 1_555 1_555
H19_5 C24_5 1_555 1_555
H20_8 C24_5 1_555 1_555
O1_9 C4_9 1_555 1_555
O2_9 C4_9 1_555 1_555
O3_9 C7_9 1_555 1_555
C1_9 C7_9 1_555 1_555
C2_9 H1_9 1_555 1_555
O4_9 C5_9 1_555 1_555
C3_9 H2_9 1_555 1_555
C4_9 C6_9 1_555 1_555
C5_9 C2_9 1_555 1_555
C6_9 C2_9 1_555 1_555
C7_9 C12_9 1_555 1_555
C8_9 C5_9 1_555 1_555
H3_9 C8_9 1_555 1_555
C9_9 O3_9 1_555 1_555
C10_9 H4_9 1_555 1_555
C11_9 O4_9 1_555 1_555
C12_9 H5_9 1_555 1_555
C13_9 C1_9 1_555 1_555
H6_9 C13_9 1_555 1_555
C14_9 C10_9 1_555 1_555
O5_9 C16_9 1_555 1_555
O6_9 C15_9 1_555 1_555
O8_9 C15_9 1_555 1_555
C15_9 C17_9 1_555 1_555
C16_9 C1_9 1_555 1_555
C17_9 C11_9 1_555 1_555
C18_7 C17_9 1_555 1_555
H10_7 C18_7 1_555 1_555
C19_7 C11_9 1_555 1_555
H11_9 C19_7 1_555 1_555
C20_7 C18_7 1_555 1_555
H12_7 C20_7 1_555 1_555
C21_7 C19_7 1_555 1_555
H13_7 C21_7 1_555 1_555
Nd2_9 O1_9 1_555 1_555
Nd4_4 O5_9 1_555 1_555
Nd3_2 O6_9 1_555 1_555
O2_9 Nd2_9 1_555 1_555
C3_9 C6_9 1_555 1_555
C3_9 C9_9 1_555 1_555
C8_9 C9_9 1_555 1_555
C10_9 C13_9 1_555 1_555
C12_9 C14_9 1_555 1_555
O8_9 Nd3_2 1_555 1_555
O9_9 C16_9 1_555 1_555
C20_7 C21_7 1_555 1_555
Nd4_4 O13_9 1_555 1_555
O7_9 Nd2_9 1_555 1_555
H8_9 O7_9 1_555 1_555
H9_9 O7_9 1_555 1_555
O10_9 Nd2_9 1_555 1_555
N1_9 C22_9 1_555 1_555
C22_9 O10_9 1_555 1_555
H14_9 C22_9 1_555 1_555
C23_6 N1_9 1_555 1_555
H15_6 C23_6 1_555 1_555
H16_6 C23_6 1_555 1_555
H17_6 C23_6 1_555 1_555
C24_6 N1_9 1_555 1_555
H18_4 C24_6 1_555 1_555
H19_6 C24_6 1_555 1_555
H20_9 C24_6 1_555 1_555
O3_10 C7_10 1_555 1_555
C1_10 C7_10 1_555 1_555
O4_10 C5_10 1_555 1_555
C3_10 H2_10 1_555 1_555
C5_10 C2_10 1_555 1_555
C6_10 C2_10 1_555 1_555
C7_10 C12_10 1_555 1_555
C8_10 C5_10 1_555 1_555
H3_10 C8_10 1_555 1_555
C9_10 O3_10 1_555 1_555
C10_10 H4_10 1_555 1_555
C11_10 O4_10 1_555 1_555
C12_10 H5_10 1_555 1_555
C13_10 C1_10 1_555 1_555
H6_10 C13_10 1_555 1_555
C14_10 C10_10 1_555 1_555
H7_8 C14_10 1_555 1_555
O13 C16_10 1_555 1_555
O14_9 C15_10 1_555 1_555
O7_10 Nd3 1_555 1_555
H8_10 O7_10 1_555 1_555
H9_10 O7_10 1_555 1_555
O15_9 C15_10 1_555 1_555
O9_10 Nd3 1_555 1_555
O10_10 Nd3 1_555 1_555
C15_10 C17_10 1_555 1_555
C16_10 C1_10 1_555 1_555
C17_10 C11_10 1_555 1_555
C18_8 C17_10 1_555 1_555
H10_8 C18_8 1_555 1_555
C19_8 C11_10 1_555 1_555
H11_10 C19_8 1_555 1_555
C20_8 C18_8 1_555 1_555
H12_8 C20_8 1_555 1_555
C21_8 C19_8 1_555 1_555
H13_8 C21_8 1_555 1_555
N1_10 C22_10 1_555 1_555
C22_10 O10_10 1_555 1_555
H14_10 C22_10 1_555 1_555
O11 Nd3 1_555 1_555
O12 Nd3 1_555 1_555
C3_10 C6_10 1_555 1_555
C3_10 C9_10 1_555 1_555
C8_10 C9_10 1_555 1_555
C10_10 C13_10 1_555 1_555
C12_10 C14_10 1_555 1_555
O9_10 C16_10 1_555 1_555
C20_8 C21_8 1_555 1_555
O11 C4_10 1_555 1_555
O12 C4_10 1_555 1_555
O3_11 C7_11 1_555 1_555
O4_11 C5_11 1_555 1_555
C3_11 H2_11 1_555 1_555
C5_11 C2_11 1_555 1_555
C6_11 C2_11 1_555 1_555
C7_11 C12_11 1_555 1_555
C8_11 C5_11 1_555 1_555
H3_11 C8_11 1_555 1_555
C9_11 O3_11 1_555 1_555
C11_11 O4_11 1_555 1_555
C12_11 H5_11 1_555 1_555
O14_7 C15_11 1_555 1_555
O15_7 C15_11 1_555 1_555
O9_11 Nd3_2 1_555 1_555
O10_11 Nd3_2 1_555 1_555
C15_11 C17_11 1_555 1_555
C17_11 C11_11 1_555 1_555
C18_9 C17_11 1_555 1_555
H10_9 C18_9 1_555 1_555
C19_9 C11_11 1_555 1_555
H11_11 C19_9 1_555 1_555
C20_9 C18_9 1_555 1_555
H12_9 C20_9 1_555 1_555
C21_9 C19_9 1_555 1_555
H13_9 C21_9 1_555 1_555
N1_11 C22_11 1_555 1_555
C22_11 O10_11 1_555 1_555
H14_11 C22_11 1_555 1_555
O11_2 Nd3_2 1_555 1_555
O12_2 Nd3_2 1_555 1_555
C3_11 C6_11 1_555 1_555
C3_11 C9_11 1_555 1_555
C8_11 C9_11 1_555 1_555
O9_11 C16_11 1_555 1_555
C20_9 C21_9 1_555 1_555
O11_2 C4_11 1_555 1_555
O12_2 C4_11 1_555 1_555
C10_11 H4_11 1_555 1_555
C13_11 C1_11 1_555 1_555
H6_11 C13_11 1_555 1_555
C14_11 C10_11 1_555 1_555
H7_9 C14_11 1_555 1_555
H8_11 O7_11 1_555 1_555
H9_11 O7_11 1_555 1_555
C10_11 C13_11 1_555 1_555
C10_12 H4_12 1_555 1_555
C13_12 C1_12 1_555 1_555
H6_12 C13_12 1_555 1_555
C14_12 C10_12 1_555 1_555
H7_10 C14_12 1_555 1_555
H8_12 O7_12 1_555 1_555
H9_12 O7_12 1_555 1_555
C10_12 C13_12 1_555 1_555
O3_12 C7_12 1_555 1_555
O4_12 C5_12 1_555 1_555
C3_12 H2_12 1_555 1_555
C5_12 C2_12 1_555 1_555
C6_12 C2_12 1_555 1_555
C7_12 C12_12 1_555 1_555
C8_12 C5_12 1_555 1_555
H3_12 C8_12 1_555 1_555
C9_12 O3_12 1_555 1_555
C11_12 O4_12 1_555 1_555
C12_12 H5_12 1_555 1_555
O14_8 C15_12 1_555 1_555
O15_8 C15_12 1_555 1_555
O9_12 Nd3_3 1_555 1_555
O10_12 Nd3_3 1_555 1_555
C15_12 C17_12 1_555 1_555
C17_12 C11_12 1_555 1_555
C18_10 C17_12 1_555 1_555
H10_10 C18_10 1_555 1_555
C19_10 C11_12 1_555 1_555
H11_12 C19_10 1_555 1_555
C20_10 C18_10 1_555 1_555
H12_10 C20_10 1_555 1_555
C21_10 C19_10 1_555 1_555
H13_10 C21_10 1_555 1_555
N1_12 C22_12 1_555 1_555
C22_12 O10_12 1_555 1_555
H14_12 C22_12 1_555 1_555
O11_3 Nd3_3 1_555 1_555
O12_3 Nd3_3 1_555 1_555
C3_12 C6_12 1_555 1_555
C3_12 C9_12 1_555 1_555
C8_12 C9_12 1_555 1_555
O9_12 C16_12 1_555 1_555
C20_10 C21_10 1_555 1_555
O11_3 C4_12 1_555 1_555
O12_3 C4_12 1_555 1_555
O3_13 C7_13 1_555 1_555
C1_13 C7_13 1_555 1_555
C13_13 C1_13 1_555 1_555
H6_13 C13_13 1_555 1_555
O13_7 C16_13 1_555 1_555
O7_13 Nd4_5 1_555 1_555
H8_13 O7_13 1_555 1_555
H9_13 O7_13 1_555 1_555
O9_13 Nd4_5 1_555 1_555
O10_13 Nd4_5 1_555 1_555
C16_13 C1_13 1_555 1_555
N1_13 C22_13 1_555 1_555
C22_13 O10_13 1_555 1_555
H14_13 C22_13 1_555 1_555
C23_7 N1_13 1_555 1_555
H15_7 C23_7 1_555 1_555
H16_7 C23_7 1_555 1_555
H17_7 C23_7 1_555 1_555
C24_7 N1_13 1_555 1_555
H19_7 C24_7 1_555 1_555
H20_13 C24_7 1_555 1_555
O11_4 Nd4_5 1_555 1_555
O12_4 Nd4_5 1_555 1_555
O9_13 C16_13 1_555 1_555
O11_4 C4_13 1_555 1_555
O12_4 C4_13 1_555 1_555
C2_13 H1_13 1_555 1_555
C3_13 H2_13 1_555 1_555
C4_13 C6_13 1_555 1_555
C5_13 C2_13 1_555 1_555
C6_13 C2_13 1_555 1_555
C8_13 C5_13 1_555 1_555
C10_13 H4_13 1_555 1_555
C14_13 C10_13 1_555 1_555
H7_11 C14_13 1_555 1_555
C3_13 C6_13 1_555 1_555
C3_13 C9_13 1_555 1_555
C8_13 C9_13 1_555 1_555
C12_13 C14_13 1_555 1_555
C11_13 O4_13 1_555 1_555
O14_6 C15_13 1_555 1_555
O15_6 C15_13 1_555 1_555
C15_13 C17_13 1_555 1_555
C17_13 C11_13 1_555 1_555
C11_14 O4_14 1_555 1_555
O14_4 C15_14 1_555 1_555
O15_4 C15_14 1_555 1_555
C15_14 C17_14 1_555 1_555
C17_14 C11_14 1_555 1_555
O3_14 C7_14 1_555 1_555
C1_14 C7_14 1_555 1_555
C13_14 C1_14 1_555 1_555
H6_14 C13_14 1_555 1_555
O13_8 C16_14 1_555 1_555
O7_14 Nd4_6 1_555 1_555
H8_14 O7_14 1_555 1_555
H9_14 O7_14 1_555 1_555
O9_14 Nd4_6 1_555 1_555
O10_14 Nd4_6 1_555 1_555
C16_14 C1_14 1_555 1_555
N1_14 C22_14 1_555 1_555
C22_14 O10_14 1_555 1_555
H14_14 C22_14 1_555 1_555
C23_8 N1_14 1_555 1_555
H15_8 C23_8 1_555 1_555
H16_8 C23_8 1_555 1_555
H17_8 C23_8 1_555 1_555
C24_8 N1_14 1_555 1_555
H18_5 C24_8 1_555 1_555
H19_8 C24_8 1_555 1_555
H20_14 C24_8 1_555 1_555
O11_5 Nd4_6 1_555 1_555
O12_5 Nd4_6 1_555 1_555
O9_14 C16_14 1_555 1_555
O11_5 C4_14 1_555 1_555
O12_5 C4_14 1_555 1_555
C2_14 H1_14 1_555 1_555
C3_14 H2_14 1_555 1_555
C4_14 C6_14 1_555 1_555
C5_14 C2_14 1_555 1_555
C6_14 C2_14 1_555 1_555
C8_14 C5_14 1_555 1_555
C10_14 H4_14 1_555 1_555
C14_14 C10_14 1_555 1_555
H7_12 C14_14 1_555 1_555
C3_14 C6_14 1_555 1_555
C3_14 C9_14 1_555 1_555
C8_14 C9_14 1_555 1_555
C12_14 C14_14 1_555 1_555
O3_15 C7_15 1_555 1_555
C1_15 C7_15 1_555 1_555
C13_15 C1_15 1_555 1_555
H6_15 C13_15 1_555 1_555
O13_9 C16_15 1_555 1_555
O7_15 Nd4_4 1_555 1_555
H8_15 O7_15 1_555 1_555
H9_15 O7_15 1_555 1_555
O9_15 Nd4_4 1_555 1_555
O10_15 Nd4_4 1_555 1_555
C16_15 C1_15 1_555 1_555
H10_11 C18_11 1_555 1_555
H11_15 C19_11 1_555 1_555
C20_11 C18_11 1_555 1_555
H12_11 C20_11 1_555 1_555
C21_11 C19_11 1_555 1_555
H13_11 C21_11 1_555 1_555
N1_15 C22_15 1_555 1_555
C22_15 O10_15 1_555 1_555
H14_15 C22_15 1_555 1_555
C23_9 N1_15 1_555 1_555
H15_9 C23_9 1_555 1_555
H16_9 C23_9 1_555 1_555
H17_9 C23_9 1_555 1_555
C24_9 N1_15 1_555 1_555
H19_9 C24_9 1_555 1_555
H20_15 C24_9 1_555 1_555
O11_6 Nd4_4 1_555 1_555
O12_6 Nd4_4 1_555 1_555
O9_15 C16_15 1_555 1_555
C20_11 C21_11 1_555 1_555
O11_6 C4_15 1_555 1_555
O12_6 C4_15 1_555 1_555
C2_15 H1_15 1_555 1_555
O4_15 C5_15 1_555 1_555
C3_15 H2_15 1_555 1_555
C4_15 C6_15 1_555 1_555
C5_15 C2_15 1_555 1_555
C6_15 C2_15 1_555 1_555
C8_15 C5_15 1_555 1_555
H3_15 C8_15 1_555 1_555
C10_15 H4_15 1_555 1_555
C11_15 O4_15 1_555 1_555
C12_15 H5_15 1_555 1_555
C14_15 C10_15 1_555 1_555
H7_13 C14_15 1_555 1_555
O14_5 C15_15 1_555 1_555
O15_5 C15_15 1_555 1_555
C15_15 C17_15 1_555 1_555
C17_15 C11_15 1_555 1_555
C3_15 C6_15 1_555 1_555
C3_15 C9_15 1_555 1_555
C8_15 C9_15 1_555 1_555
C12_15 C14_15 1_555 1_555
O7_16 Nd4_2 1_555 1_555
H8_16 O7_16 1_555 1_555
H9_16 O7_16 1_555 1_555
O10_16 Nd4_2 1_555 1_555
N1_16 C22_16 1_555 1_555
C22_16 O10_16 1_555 1_555
H14_16 C22_16 1_555 1_555
C23_10 N1_16 1_555 1_555
H15_10 C23_10 1_555 1_555
H16_10 C23_10 1_555 1_555
H17_10 C23_10 1_555 1_555
C24_10 N1_16 1_555 1_555
H18_6 C24_10 1_555 1_555
H19_10 C24_10 1_555 1_555
H20_16 C24_10 1_555 1_555
O11_7 Nd4_2 1_555 1_555
O12_7 Nd4_2 1_555 1_555
O11_7 C4_16 1_555 1_555
O12_7 C4_16 1_555 1_555
O3_16 C7_16 1_555 1_555
C1_16 C7_16 1_555 1_555
C2_16 H1_16 1_555 1_555
O4_16 C5_16 1_555 1_555
C3_16 H2_16 1_555 1_555
C4_16 C6_16 1_555 1_555
C5_16 C2_16 1_555 1_555
C6_16 C2_16 1_555 1_555
C7_16 C12_16 1_555 1_555
C8_16 C5_16 1_555 1_555
H3_16 C8_16 1_555 1_555
C9_16 O3_16 1_555 1_555
C10_16 H4_16 1_555 1_555
C11_16 O4_16 1_555 1_555
C12_16 H5_16 1_555 1_555
C13_16 C1_16 1_555 1_555
H6_16 C13_16 1_555 1_555
C14_16 C10_16 1_555 1_555
O13_4 C16_16 1_555 1_555
O14_3 C15_16 1_555 1_555
O15_3 C15_16 1_555 1_555
C15_16 C17_16 1_555 1_555
C16_16 C1_16 1_555 1_555
C17_16 C11_16 1_555 1_555
C18_12 C17_16 1_555 1_555
H10_12 C18_12 1_555 1_555
C19_12 C11_16 1_555 1_555
H11_16 C19_12 1_555 1_555
C20_12 C18_12 1_555 1_555
H12_12 C20_12 1_555 1_555
C21_12 C19_12 1_555 1_555
H13_12 C21_12 1_555 1_555
C3_16 C6_16 1_555 1_555
C3_16 C9_16 1_555 1_555
C8_16 C9_16 1_555 1_555
C10_16 C13_16 1_555 1_555
C12_16 C14_16 1_555 1_555
O9_16 C16_16 1_555 1_555
C20_12 C21_12 1_555 1_555
O7_17 Nd4_3 1_555 1_555
H8_17 O7_17 1_555 1_555
H9_17 O7_17 1_555 1_555
O10_17 Nd4_3 1_555 1_555
N1_17 C22_17 1_555 1_555
C22_17 O10_17 1_555 1_555
H14_17 C22_17 1_555 1_555
C23_11 N1_17 1_555 1_555
H15_11 C23_11 1_555 1_555
H16_11 C23_11 1_555 1_555
H17_11 C23_11 1_555 1_555
C24_11 N1_17 1_555 1_555
H18_7 C24_11 1_555 1_555
H19_11 C24_11 1_555 1_555
H20_17 C24_11 1_555 1_555
O11_8 Nd4_3 1_555 1_555
O12_8 Nd4_3 1_555 1_555
O11_8 C4_17 1_555 1_555
O12_8 C4_17 1_555 1_555
O3_17 C7_17 1_555 1_555
C1_17 C7_17 1_555 1_555
C2_17 H1_17 1_555 1_555
O4_17 C5_17 1_555 1_555
C3_17 H2_17 1_555 1_555
C4_17 C6_17 1_555 1_555
C5_17 C2_17 1_555 1_555
C6_17 C2_17 1_555 1_555
C7_17 C12_17 1_555 1_555
C8_17 C5_17 1_555 1_555
H3_17 C8_17 1_555 1_555
C9_17 O3_17 1_555 1_555
C10_17 H4_17 1_555 1_555
C11_17 O4_17 1_555 1_555
C12_17 H5_17 1_555 1_555
C13_17 C1_17 1_555 1_555
H6_17 C13_17 1_555 1_555
C14_17 C10_17 1_555 1_555
H7_14 C14_17 1_555 1_555
O13_5 C16_17 1_555 1_555
O14 C15_17 1_555 1_555
O15 C15_17 1_555 1_555
C15_17 C17_17 1_555 1_555
C16_17 C1_17 1_555 1_555
C17_17 C11_17 1_555 1_555
C18_13 C17_17 1_555 1_555
H10_13 C18_13 1_555 1_555
C19_13 C11_17 1_555 1_555
H11_17 C19_13 1_555 1_555
C20_13 C18_13 1_555 1_555
H12_13 C20_13 1_555 1_555
C21_13 C19_13 1_555 1_555
H13_13 C21_13 1_555 1_555
C3_17 C6_17 1_555 1_555
C3_17 C9_17 1_555 1_555
C8_17 C9_17 1_555 1_555
C10_17 C13_17 1_555 1_555
C12_17 C14_17 1_555 1_555
O9_17 C16_17 1_555 1_555
C20_13 C21_13 1_555 1_555
O7_18 Nd4 1_555 1_555
H8_18 O7_18 1_555 1_555
H9_18 O7_18 1_555 1_555
O10_18 Nd4 1_555 1_555
N1_18 C22_18 1_555 1_555
C22_18 O10_18 1_555 1_555
H14_18 C22_18 1_555 1_555
C23_12 N1_18 1_555 1_555
H15_12 C23_12 1_555 1_555
H16_12 C23_12 1_555 1_555
H17_12 C23_12 1_555 1_555
C24_12 N1_18 1_555 1_555
H18_8 C24_12 1_555 1_555
H19_12 C24_12 1_555 1_555
H20_18 C24_12 1_555 1_555
O11_9 Nd4 1_555 1_555
O12_9 Nd4 1_555 1_555
O11_9 C4_18 1_555 1_555
O12_9 C4_18 1_555 1_555
O3_18 C7_18 1_555 1_555
C1_18 C7_18 1_555 1_555
C2_18 H1_18 1_555 1_555
O4_18 C5_18 1_555 1_555
C3_18 H2_18 1_555 1_555
C4_18 C6_18 1_555 1_555
C5_18 C2_18 1_555 1_555
C6_18 C2_18 1_555 1_555
C7_18 C12_18 1_555 1_555
C8_18 C5_18 1_555 1_555
H3_18 C8_18 1_555 1_555
C9_18 O3_18 1_555 1_555
C10_18 H4_18 1_555 1_555
C11_18 O4_18 1_555 1_555
C12_18 H5_18 1_555 1_555
C13_18 C1_18 1_555 1_555
H6_18 C13_18 1_555 1_555
C14_18 C10_18 1_555 1_555
O13_6 C16_18 1_555 1_555
O14_2 C15_18 1_555 1_555
O15_2 C15_18 1_555 1_555
C15_18 C17_18 1_555 1_555
C16_18 C1_18 1_555 1_555
C17_18 C11_18 1_555 1_555
C18_14 C17_18 1_555 1_555
H10_14 C18_14 1_555 1_555
C19_14 C11_18 1_555 1_555
H11_18 C19_14 1_555 1_555
C20_14 C18_14 1_555 1_555
H12_14 C20_14 1_555 1_555
C21_14 C19_14 1_555 1_555
H13_14 C21_14 1_555 1_555
C3_18 C6_18 1_555 1_555
C3_18 C9_18 1_555 1_555
C8_18 C9_18 1_555 1_555
C10_18 C13_18 1_555 1_555
C12_18 C14_18 1_555 1_555
O9_18 C16_18 1_555 1_555
C20_14 C21_14 1_555 1_555
H15_13 C23_13 1_555 1_555
H16_13 C23_13 1_555 1_555
H17_13 C23_13 1_555 1_555
H18_9 C24_13 1_555 1_555
H19_13 C24_13 1_555 1_555
H15_14 C23_14 1_555 1_555
H16_14 C23_14 1_555 1_555
H17_14 C23_14 1_555 1_555
H18_10 C24_14 1_555 1_555
H19_14 C24_14 1_555 1_555
H15_15 C23_15 1_555 1_555
H16_15 C23_15 1_555 1_555
H17_15 C23_15 1_555 1_555
H18_11 C24_15 1_555 1_555
H19_15 C24_15 1_555 1_555
H10_15 C18_15 1_555 1_555
C20_15 C18_15 1_555 1_555
H12_15 C20_15 1_555 1_555
C21_15 C19_15 1_555 1_555
H13_15 C21_15 1_555 1_555
C20_15 C21_15 1_555 1_555
H10_16 C18_16 1_555 1_555
C20_16 C18_16 1_555 1_555
H12_16 C20_16 1_555 1_555
C21_16 C19_16 1_555 1_555
H13_16 C21_16 1_555 1_555
C20_16 C21_16 1_555 1_555
H15_16 C23_16 1_555 1_555
H16_16 C23_16 1_555 1_555
H17_16 C23_16 1_555 1_555
H18_14 C24_16 1_555 1_555
H19_16 C24_16 1_555 1_555
H15_17 C23_17 1_555 1_555
H16_17 C23_17 1_555 1_555
H17_17 C23_17 1_555 1_555
H18_15 C24_17 1_555 1_555
H19_17 C24_17 1_555 1_555
H15_18 C23_18 1_555 1_555
H16_18 C23_18 1_555 1_555
H17_18 C23_18 1_555 1_555
H18_16 C24_18 1_555 1_555
H19_18 C24_18 1_555 1_555
H10_17 C18_17 1_555 1_555
C20_17 C18_17 1_555 1_555
H12_17 C20_17 1_555 1_555
C21_17 C19_17 1_555 1_555
H13_17 C21_17 1_555 1_555
C20_17 C21_17 1_555 1_555
H10_18 C18_18 1_555 1_555
C20_18 C18_18 1_555 1_555
H12_18 C20_18 1_555 1_555
C21_18 C19_18 1_555 1_555
H13_18 C21_18 1_555 1_555
C20_18 C21_18 1_555 1_555

#END
