
###############################################################################
#
# This file contains modified crystal structure data generated from the
# MOF subset of the Cambridge Structural Database (CSD) v543 
# hosted by the Cambridge Crystallographic Data Centre (CCDC).
#
# This work is licensed under the Creative Commons
# Attribution-NonCommercial-ShareAlike 4.0 International License.
# To view a copy of this license, visit
# http://creativecommons.org/licenses/by-nc-sa/4.0/
# or send a letter to
# Creative Commons, PO Box 1866, Mountain View, CA 94042, USA.
#
# CIF created using the CSD Python API on 29 September 2022
# The structure has been converted into the P1 space group
# The structure has a 3D framework
# The original CSD entry PIXPET is in the monoclinic crystal system
# The framework has been calculated to contain at least 10.0% void space
# The void calculation uses a probe of radius 1.32A, grid spacing 0.4
#
###############################################################################

data_PIXPET
_chemical_formula_moiety         '(C58 H40 N4 O8 Zn1)n'
_symmetry_cell_setting           triclinic
_symmetry_space_group_name_H-M   'P 1'
_symmetry_Int_Tables_number      1
_space_group_name_Hall           'P 1'
loop_
_symmetry_equiv_pos_site_id
_symmetry_equiv_pos_as_xyz
1 x,y,z
_cell_length_a                   13.9159(4)
_cell_length_b                   7.6229(2)
_cell_length_c                   14.2827(4)
_cell_angle_alpha                90
_cell_angle_beta                 99.271(2)
_cell_angle_gamma                90
_cell_volume                     1495.31
loop_
_atom_site_label
_atom_site_type_symbol
_atom_site_fract_x
_atom_site_fract_y
_atom_site_fract_z
O3 O 0.1769(2) 0.2374(4) 0.1657(2)
O4 O 0.0594(5) 0.4129(5) 0.1267(5)
C25 C 0.0957(4) 0.2709(5) 0.1229(3)
C26 C 0.0451(3) 0.1311(4) 0.0590(3)
Zn3 Zn 0.2500 0.40020(7) 0.2500
N2 N 0.1862(2) 0.5845(3) 0.3239(2)
C15 C 0.2129(3) 0.6108(4) 0.4185(3)
H11 H 0.2503 0.5232 0.4552
C16 C 0.1881(2) 0.7577(5) 0.4626(2)
H12 H 0.2080 0.7704 0.5291
C17 C 0.1335(3) 0.8909(4) 0.4115(3)
C18 C 0.1065(3) 0.8608(5) 0.3151(3)
H13 H 0.0697 0.9465 0.2765
C19 C 0.1325(3) 0.7091(5) 0.2753(2)
H14 H 0.1112 0.6913 0.2094
C14 C 0.5873(3) 0.0312(6) 0.5567(3)
H10 H 0.6487 0.0534 0.5947
O3_2 O 0.3231(2) 0.2374(4) 0.3343(2)
O4_2 O 0.4406(5) 0.4129(5) 0.3733(5)
C25_2 C 0.4043(4) 0.2709(5) 0.3771(3)
C26_2 C 0.4549(3) 0.1311(4) 0.4410(3)
C27 C 0.5414(3) 0.1620(6) 0.5000(4)
H19 H 0.5700 0.2754 0.5015
N2_2 N 0.3138(2) 0.5845(3) 0.1761(2)
C15_2 C 0.2871(3) 0.6108(4) 0.0815(3)
H11_2 H 0.2497 0.5232 0.0448
C16_2 C 0.3119(2) 0.7577(5) 0.0374(2)
C17_2 C 0.3665(3) 0.8909(4) 0.0885(3)
C18_2 C 0.3935(3) 0.8608(5) 0.1849(3)
H13_2 H 0.4303 0.9465 0.2235
C19_2 C 0.3675(3) 0.7091(5) 0.2247(2)
H14_2 H 0.3888 0.6913 0.2906
C13 C 0.0414(3) 0.8380(6) -0.0000(4)
H9 H 0.0700 0.7246 0.0015
C28 C 0.0873(3) 0.9688(6) 0.0567(3)
H20 H 0.1487 0.9466 0.0947
C13_2 C 0.0414(3) 0.8380(6) 1.0000(4)
C10 C 0.0244(3) 0.5308(5) 0.5951(2)
H8 H 0.0420 0.5516 0.6612
C20 C 0.1088(3) 0.0505(5) 0.4569(3)
H15 H 0.1290 0.0583 0.5236
C21 C 0.0607(3) 0.1870(5) 0.4151(2)
H16 H 0.0438 0.1814 0.3481
C22 C 0.0308(2) 0.3449(5) 0.4604(2)
C23 C 0.0544(3) 0.3802(4) 0.5578(2)
H17 H 0.0917 0.2976 0.5982
C27_2 C 0.9586(3) 0.1620(6) -0.0000(4)
C14_2 C 0.9127(3) 0.0312(6) 0.9433(3)
H10_2 H 0.8513 0.0534 0.9053
C27_3 C 0.9586(3) 0.1620(6) 1.0000(4)
H19_2 H 0.9300 0.2754 0.9985
Zn1 Zn 0.7500 0.59980(7) 0.7500
N1 N 0.8138(2) 0.4155(3) 0.6761(2)
C1 C 0.7871(3) 0.3892(4) 0.5815(3)
H1 H 0.7497 0.4768 0.5448
C2 C 0.8119(2) 0.2423(5) 0.5374(2)
H2 H 0.7920 0.2296 0.4709
C3 C 0.8665(3) 0.1091(4) 0.5885(3)
C4 C 0.8935(3) 0.1392(5) 0.6849(3)
H3 H 0.9303 0.0535 0.7235
C5 C 0.8675(3) 0.2909(5) 0.7247(2)
H4 H 0.8888 0.3087 0.7906
O1 O 0.8231(2) 0.7626(4) 0.8343(2)
O2 O 0.9406(5) 0.5871(5) 0.8733(5)
C11 C 0.9043(4) 0.7291(5) 0.8771(3)
C12 C 0.9549(3) 0.8689(4) 0.9410(3)
N3 N 0.6862(2) 0.4155(3) 0.8239(2)
O5 O 0.6769(2) 0.7626(4) 0.6657(2)
C1_2 C 0.7129(3) 0.3892(4) 0.9185(3)
H1_2 H 0.7503 0.4768 0.9552
C2_2 C 0.6881(2) 0.2423(5) 0.9626(2)
C3_2 C 0.6335(3) 0.1091(4) 0.9115(3)
C4_2 C 0.6065(3) 0.1392(5) 0.8151(3)
H3_2 H 0.5697 0.0535 0.7765
C5_2 C 0.6325(3) 0.2909(5) 0.7753(2)
H4_2 H 0.6112 0.3087 0.7094
O2_2 O 0.5594(5) 0.5871(5) 0.6267(5)
C11_2 C 0.5957(4) 0.7291(5) 0.6229(3)
C12_2 C 0.5451(3) 0.8689(4) 0.5590(3)
C13_3 C 0.4586(3) 0.8380(6) 0.5000(4)
H9_2 H 0.4300 0.7246 0.4985
C28_2 C 0.4127(3) 0.9688(6) 0.4433(3)
H20_2 H 0.3513 0.9466 0.4053
C6 C 0.8912(3) 0.9495(5) 0.5431(3)
H5 H 0.8710 0.9417 0.4764
C7 C 0.9393(3) 0.8130(5) 0.5849(2)
H6 H 0.9562 0.8186 0.6519
C8 C 0.9692(2) 0.6551(5) 0.5396(2)
C9 C 0.9456(3) 0.6198(4) 0.4422(2)
H7 H 0.9083 0.7024 0.4018
C24 C 0.9756(3) 0.4692(5) 0.4049(2)
H18 H 0.9580 0.4484 0.3388
H2_2 H 0.7080 0.2296 0.0291
H5_2 H 0.6290 0.9417 0.0236
C9_2 C 0.5544(3) 0.6198(4) 0.0578(2)
H7_2 H 0.5917 0.7024 0.0982
C20_2 C 0.3912(3) 0.0505(5) 0.0431(3)
C21_2 C 0.4393(3) 0.1870(5) 0.0849(2)
H16_2 H 0.4562 0.1814 0.1519
C22_2 C 0.4692(2) 0.3449(5) 0.0396(2)
C24_2 C 0.5244(3) 0.4692(5) 0.0951(2)
H18_2 H 0.5420 0.4484 0.1612
C6_2 C 0.6088(3) 0.9495(5) 0.9569(3)
C7_2 C 0.5607(3) 0.8130(5) 0.9151(2)
H6_2 H 0.5438 0.8186 0.8481
C8_2 C 0.5308(2) 0.6551(5) 0.9604(2)
C10_2 C 0.4756(3) 0.5308(5) 0.9049(2)
H8_2 H 0.4580 0.5516 0.8388
H15_2 H 0.3710 0.0583 0.9764
C23_2 C 0.4456(3) 0.3802(4) 0.9422(2)
H17_2 H 0.4083 0.2976 0.9018
H12_2 H 0.2920 0.7704 0.9709
loop_
_geom_bond_atom_site_label_1
_geom_bond_atom_site_label_2
_geom_bond_site_symmetry_1
_geom_bond_site_symmetry_2
O3 C25 1_555 1_555
O4 C25 1_555 1_555
C25 C26 1_555 1_555
Zn3 O3 1_555 1_555
N2 C15 1_555 1_555
C15 H11 1_555 1_555
C16 C15 1_555 1_555
H12 C16 1_555 1_555
C17 C16 1_555 1_555
C18 C17 1_555 1_555
H13 C18 1_555 1_555
C19 N2 1_555 1_555
H14 C19 1_555 1_555
Zn3 N2 1_555 1_555
C18 C19 1_555 1_555
H10 C14 1_555 1_555
O3_2 C25_2 1_555 1_555
O4_2 C25_2 1_555 1_555
C25_2 C26_2 1_555 1_555
C26_2 C27 1_555 1_555
C27 C14 1_555 1_555
H19 C27 1_555 1_555
Zn3 O3_2 1_555 1_555
N2_2 C15_2 1_555 1_555
C15_2 H11_2 1_555 1_555
C16_2 C15_2 1_555 1_555
C17_2 C16_2 1_555 1_555
C18_2 C17_2 1_555 1_555
H13_2 C18_2 1_555 1_555
C19_2 N2_2 1_555 1_555
H14_2 C19_2 1_555 1_555
Zn3 N2_2 1_555 1_555
C18_2 C19_2 1_555 1_555
H9 C13 1_555 1_555
C28 C13 1_555 1_555
H20 C28 1_555 1_555
H8 C10 1_555 1_555
H15 C20 1_555 1_555
C21 C20 1_555 1_555
H16 C21 1_555 1_555
C22 C21 1_555 1_555
C23 C10 1_555 1_555
H17 C23 1_555 1_555
C22 C23 1_555 1_555
H10_2 C14_2 1_555 1_555
C27_3 C14_2 1_555 1_555
H19_2 C27_3 1_555 1_555
Zn1 N1 1_555 1_555
N1 C1 1_555 1_555
C1 H1 1_555 1_555
C2 C1 1_555 1_555
H2 C2 1_555 1_555
C3 C2 1_555 1_555
C4 C3 1_555 1_555
H3 C4 1_555 1_555
C5 N1 1_555 1_555
H4 C5 1_555 1_555
O1 Zn1 1_555 1_555
O2 C11 1_555 1_555
C11 O1 1_555 1_555
C12 C11 1_555 1_555
N3 Zn1 1_555 1_555
O5 Zn1 1_555 1_555
C4 C5 1_555 1_555
N3 C1_2 1_555 1_555
C1_2 H1_2 1_555 1_555
C2_2 C1_2 1_555 1_555
C3_2 C2_2 1_555 1_555
C4_2 C3_2 1_555 1_555
H3_2 C4_2 1_555 1_555
C5_2 N3 1_555 1_555
H4_2 C5_2 1_555 1_555
O2_2 C11_2 1_555 1_555
C11_2 O5 1_555 1_555
C12_2 C11_2 1_555 1_555
C13_3 C12_2 1_555 1_555
H9_2 C13_3 1_555 1_555
C28_2 C13_3 1_555 1_555
H20_2 C28_2 1_555 1_555
C4_2 C5_2 1_555 1_555
H5 C6 1_555 1_555
C7 C6 1_555 1_555
H6 C7 1_555 1_555
C8 C7 1_555 1_555
C9 C8 1_555 1_555
H7 C9 1_555 1_555
C24 C9 1_555 1_555
H18 C24 1_555 1_555
H7_2 C9_2 1_555 1_555
C21_2 C20_2 1_555 1_555
H16_2 C21_2 1_555 1_555
C22_2 C21_2 1_555 1_555
C24_2 C9_2 1_555 1_555
H18_2 C24_2 1_555 1_555
C22_2 C24_2 1_555 1_555
C7_2 C6_2 1_555 1_555
H6_2 C7_2 1_555 1_555
C8_2 C7_2 1_555 1_555
C10_2 C8_2 1_555 1_555
H8_2 C10_2 1_555 1_555
C23_2 C10_2 1_555 1_555
H17_2 C23_2 1_555 1_555

#END
