
###############################################################################
#
# This file contains modified crystal structure data generated from the
# MOF subset of the Cambridge Structural Database (CSD) v543 
# hosted by the Cambridge Crystallographic Data Centre (CCDC).
#
# This work is licensed under the Creative Commons
# Attribution-NonCommercial-ShareAlike 4.0 International License.
# To view a copy of this license, visit
# http://creativecommons.org/licenses/by-nc-sa/4.0/
# or send a letter to
# Creative Commons, PO Box 1866, Mountain View, CA 94042, USA.
#
# CIF created using the CSD Python API on 29 September 2022
# The structure has been converted into the P1 space group
# The structure has a 3D framework
# The original CSD entry PIZHOX is in the monoclinic crystal system
# The framework has been calculated to contain at least 10.0% void space
# The void calculation uses a probe of radius 1.32A, grid spacing 0.4
#
###############################################################################

data_PIZHOX
_chemical_formula_moiety         '(C60 H60 Cu10 N56 O4)n'
_symmetry_cell_setting           triclinic
_symmetry_space_group_name_H-M   'P 1'
_symmetry_Int_Tables_number      1
_space_group_name_Hall           'P 1'
loop_
_symmetry_equiv_pos_site_id
_symmetry_equiv_pos_as_xyz
1 x,y,z
_cell_length_a                   13.0662(3)
_cell_length_b                   14.7659(3)
_cell_length_c                   15.3925(3)
_cell_angle_alpha                90
_cell_angle_beta                 90.296(2)
_cell_angle_gamma                90
_cell_volume                     2969.7
loop_
_atom_site_label
_atom_site_type_symbol
_atom_site_fract_x
_atom_site_fract_y
_atom_site_fract_z
Cu7 Cu 0.01254(2) 0.213995(19) 0.408765(18)
Cu1 Cu 0.5000 0.5000 0.0000
N1 N 0.59455(16) 0.40318(13) 0.04754(12)
N2 N 0.60208(16) 0.32237(13) 0.01059(13)
N3 N 0.66541(16) 0.27022(14) 0.05652(13)
N4 N 0.65291(17) 0.40671(14) 0.11814(13)
N8 N 0.42511(16) 0.50225(13) 0.11446(13)
N9 N 0.37029(16) 0.43172(14) 0.14163(13)
N10 N 0.41436(17) 0.57196(14) 0.16779(13)
N11 N 0.35149(18) 0.54832(15) 0.23214(14)
N12 N 0.12080(16) 0.29261(14) 0.35366(13)
N13 N 0.91230(16) 0.24892(14) 0.31484(13)
N14 N 0.4604(2) 0.13556(18) 0.14202(15)
C1 C 0.69525(19) 0.32403(17) 0.12214(16)
C2 C 0.7682(2) 0.29687(17) 0.18970(16)
C3 C 0.8066(2) 0.20906(18) 0.19366(18)
H1 H 0.7846 0.1645 0.1532
C4 C 0.8027(2) 0.35921(18) 0.25060(17)
H2 H 0.7770 0.4194 0.2504
C5 C 0.3263(2) 0.46180(17) 0.21377(16)
C6 C 0.2557(2) 0.40510(17) 0.26371(16)
C7 C 0.2101(2) 0.33007(18) 0.22387(17)
H3 H 0.2247 0.3162 0.1650
C8 C 0.1444(2) 0.27678(17) 0.27014(17)
H4 H 0.1141 0.2262 0.2419
C9 C 0.1648(2) 0.36415(18) 0.39237(17)
H5 H 0.1493 0.3760 0.4515
C10 C 0.2318(2) 0.42147(18) 0.35000(17)
H6 H 0.2612 0.4716 0.3797
C11 C 0.8745(2) 0.33295(18) 0.31124(18)
H7 H 0.8981 0.3763 0.3523
C12 C 0.8772(2) 0.18788(19) 0.25742(18)
H8 H 0.9021 0.1275 0.2608
C13 C 0.5204(4) 0.0538(2) 0.1329(2)
H9 H 0.4983 0.0211 0.0806
H10 H 0.5106 0.0153 0.1840
H11 H 0.5930 0.0697 0.1278
C14 C 0.4313(5) 0.1624(4) 0.2293(3)
H12 H 0.3878 0.2164 0.2264
H13 H 0.4929 0.1758 0.2635
H14 H 0.3935 0.1129 0.2569
C15 C 0.4364(3) 0.1847(2) 0.0734(2)
H15 H 0.4008 0.2399 0.0829
Cu3 Cu 0.48746(2) 0.713995(19) 0.091235(18)
O2 O 0.54336(16) 0.83566(13) 0.00190(12)
N19 N 0.59122(15) 0.62547(13) 0.04880(13)
N20 N 0.67586(17) 0.65144(15) 0.03405(15)
N21 N 0.7576(2) 0.6754(2) 0.0176(2)
N29 N 0.37920(16) 0.79261(14) 0.14634(13)
N31 N 0.58770(16) 0.74892(14) 0.18516(13)
Cu1_2 Cu 0.5000 0.5000 1.0000
Cu2 Cu 0.51254(2) 0.286005(19) 0.908765(18)
O1 O 0.45664(16) 0.16434(13) 0.99810(12)
N5 N 0.40878(15) 0.37453(13) 0.95120(13)
N6 N 0.32414(17) 0.34856(15) 0.96595(15)
N7 N 0.2424(2) 0.3246(2) 0.9824(2)
N15 N 0.40545(16) 0.59682(13) 0.95246(12)
N16 N 0.39792(16) 0.67763(13) 0.98941(13)
N17 N 0.33459(16) 0.72978(14) 0.94348(13)
N18 N 0.34709(17) 0.59329(14) 0.88186(13)
N22 N 0.57489(16) 0.49775(13) 0.88554(13)
N23 N 0.62971(16) 0.56828(14) 0.85837(13)
N24 N 0.58564(17) 0.42804(14) 0.83221(13)
N25 N 0.64851(18) 0.45168(15) 0.76786(14)
N26 N 0.87920(16) 0.70739(14) 0.64634(13)
N27 N 0.08770(16) 0.75108(14) 0.68516(13)
N28 N 0.5396(2) 0.86444(18) 0.85798(15)
C16 C 0.30475(19) 0.67597(17) 0.87786(16)
C17 C 0.2318(2) 0.70313(17) 0.81030(16)
C18 C 0.1934(2) 0.79094(18) 0.80634(18)
H16 H 0.2154 0.8355 0.8468
C19 C 0.1973(2) 0.64079(18) 0.74940(17)
H17 H 0.2230 0.5806 0.7496
C20 C 0.6737(2) 0.53820(17) 0.78623(16)
C21 C 0.7443(2) 0.59490(17) 0.73629(16)
C22 C 0.7899(2) 0.66993(18) 0.77613(17)
H18 H 0.7753 0.6838 0.8350
C23 C 0.8556(2) 0.72322(17) 0.72986(17)
H19 H 0.8859 0.7738 0.7581
C24 C 0.8352(2) 0.63585(18) 0.60763(17)
H20 H 0.8507 0.6240 0.5485
C25 C 0.7682(2) 0.57853(18) 0.65000(17)
H21 H 0.7388 0.5284 0.6203
C26 C 0.1255(2) 0.66705(18) 0.68876(18)
H22 H 0.1019 0.6237 0.6477
C27 C 0.1228(2) 0.81212(19) 0.74258(18)
H23 H 0.0979 0.8725 0.7392
C28 C 0.4796(4) 0.9462(2) 0.8671(2)
H24 H 0.5017 0.9789 0.9194
H25 H 0.4894 0.9847 0.8160
H26 H 0.4070 0.9303 0.8722
C29 C 0.5687(5) 0.8376(4) 0.7707(3)
H27 H 0.6122 0.7836 0.7736
H28 H 0.5071 0.8242 0.7365
H29 H 0.6065 0.8871 0.7431
C30 C 0.5636(3) 0.8153(2) 0.9266(2)
H30 H 0.5992 0.7601 0.9171
Cu5 Cu 0.98746(2) 0.786005(19) 0.591235(18)
N30 N 0.62080(16) 0.20739(14) 0.85366(13)
N32 N 0.41230(16) 0.25108(14) 0.81484(13)
Cu1_3 Cu 0.0000 0.0000 0.5000
N8_2 N 0.07489(16) 0.00225(13) 0.38554(13)
N10_2 N 0.08564(17) 0.07196(14) 0.33221(13)
N11_2 N 0.14851(18) 0.04832(15) 0.26786(14)
N15_2 N 0.09455(16) 0.09682(13) 0.54754(12)
N16_2 N 0.10208(16) 0.17763(13) 0.51059(13)
N17_2 N 0.16541(16) 0.22978(14) 0.55652(13)
N18_2 N 0.15291(17) 0.09329(14) 0.61814(13)
C16_2 C 0.19525(19) 0.17597(17) 0.62214(16)
C17_2 C 0.2682(2) 0.20313(17) 0.68970(16)
C18_2 C 0.3066(2) 0.29094(18) 0.69366(18)
H16_2 H 0.2846 0.3355 0.6532
C19_2 C 0.3027(2) 0.14079(18) 0.75060(17)
H17_2 H 0.2770 0.0806 0.7504
C26_2 C 0.3745(2) 0.16705(18) 0.81124(18)
H22_2 H 0.3981 0.1237 0.8523
C27_2 C 0.3772(2) 0.31212(19) 0.75742(18)
H23_2 H 0.4021 0.3725 0.7608
C28_2 C 0.0204(4) 0.4462(2) 0.6329(2)
H25_2 H 0.0106 0.4847 0.6840
H26_2 H 0.0930 0.4303 0.6278
Cu1_4 Cu 0.0000 1.0000 0.5000
O1_2 O 0.04336(16) 0.66434(13) 0.50190(12)
N5_2 N 0.09122(15) 0.87453(13) 0.54880(13)
N6_2 N 0.17586(17) 0.84856(15) 0.53405(15)
N7_2 N 0.2576(2) 0.8246(2) 0.5176(2)
N9_2 N 0.12971(16) 0.93172(14) 0.35837(13)
N14_2 N 0.0396(2) 0.63556(18) 0.35798(15)
C5_2 C 0.1737(2) 0.96180(17) 0.28623(16)
C6_2 C 0.2443(2) 0.90510(17) 0.23629(16)
C7_2 C 0.2899(2) 0.83007(18) 0.27613(17)
H3_2 H 0.2753 0.8162 0.3350
C8_2 C 0.3556(2) 0.77678(17) 0.22986(17)
H4_2 H 0.3859 0.7262 0.2581
C9_2 C 0.3352(2) 0.86415(18) 0.10763(17)
H5_2 H 0.3507 0.8760 0.0485
C10_2 C 0.2682(2) 0.92147(18) 0.15000(17)
H6_2 H 0.2388 0.9716 0.1203
H9_2 H 0.0017 0.5211 0.4194
C14_2 C 0.0687(5) 0.6624(4) 0.2707(3)
H12_2 H 0.1122 0.7164 0.2736
H13_2 H 0.0071 0.6758 0.2365
H14_2 H 0.1065 0.6129 0.2431
C15_2 C 0.0636(3) 0.6847(2) 0.4266(2)
H15_2 H 0.0992 0.7399 0.4171
Cu1_5 Cu 1.0000 0.0000 0.5000
O2_2 O 0.95664(16) 0.33566(13) 0.49810(12)
N19_2 N 0.90878(15) 0.12547(13) 0.45120(13)
N20_2 N 0.82414(17) 0.15144(15) 0.46595(15)
N21_2 N 0.7424(2) 0.1754(2) 0.4824(2)
N23_2 N 0.87029(16) 0.06828(14) 0.64163(13)
N28_2 N 0.9604(2) 0.36444(18) 0.64202(15)
C20_2 C 0.8263(2) 0.03820(17) 0.71377(16)
C21_2 C 0.7557(2) 0.09490(17) 0.76371(16)
C22_2 C 0.7101(2) 0.16993(18) 0.72387(17)
H18_2 H 0.7247 0.1838 0.6650
C23_2 C 0.6444(2) 0.22322(17) 0.77014(17)
H19_2 H 0.6141 0.2738 0.7419
C24_2 C 0.6648(2) 0.13585(18) 0.89237(17)
H20_2 H 0.6493 0.1240 0.9515
C25_2 C 0.7318(2) 0.07853(18) 0.85000(17)
H21_2 H 0.7612 0.0284 0.8797
H24_2 H 0.9983 0.4789 0.5806
C29_2 C 0.9313(5) 0.3376(4) 0.7293(3)
H27_2 H 0.8878 0.2836 0.7264
H28_2 H 0.9929 0.3242 0.7635
H29_2 H 0.8935 0.3871 0.7569
C30_2 C 0.9364(3) 0.3153(2) 0.5734(2)
H30_2 H 0.9008 0.2601 0.5829
Cu1_6 Cu 1.0000 1.0000 0.5000
N1_2 N 0.90545(16) 0.90318(13) 0.45246(12)
N2_2 N 0.89792(16) 0.82237(13) 0.48941(13)
N3_2 N 0.83459(16) 0.77022(14) 0.44348(13)
N4_2 N 0.84709(17) 0.90671(14) 0.38186(13)
C1_2 C 0.80475(19) 0.82403(17) 0.37786(16)
C2_2 C 0.7318(2) 0.79687(17) 0.31030(16)
C3_2 C 0.6934(2) 0.70906(18) 0.30634(18)
H1_2 H 0.7154 0.6645 0.3468
C4_2 C 0.6973(2) 0.85921(18) 0.24940(17)
H2_2 H 0.7230 0.9194 0.2496
C11_2 C 0.6255(2) 0.83295(18) 0.18876(18)
H7_2 H 0.6019 0.8763 0.1477
C12_2 C 0.6228(2) 0.68788(19) 0.24258(18)
H8_2 H 0.5979 0.6275 0.2392
C13_2 C 0.9796(4) 0.5538(2) 0.3671(2)
H10_2 H 0.9894 0.5153 0.3160
H11_2 H 0.9070 0.5697 0.3722
N22_2 N 0.92511(16) 0.99775(13) 0.61446(13)
N24_2 N 0.91436(17) 0.92804(14) 0.66779(13)
N25_2 N 0.85149(18) 0.95168(15) 0.73214(14)
loop_
_geom_bond_atom_site_label_1
_geom_bond_atom_site_label_2
_geom_bond_site_symmetry_1
_geom_bond_site_symmetry_2
Cu1 N1 1_555 1_555
N1 N2 1_555 1_555
N3 N2 1_555 1_555
N4 N1 1_555 1_555
N8 Cu1 1_555 1_555
N9 N8 1_555 1_555
N10 N8 1_555 1_555
N11 N10 1_555 1_555
N12 C8 1_555 1_555
N13 C11 1_555 1_555
N14 C13 1_555 1_555
C1 N3 1_555 1_555
C2 C1 1_555 1_555
C3 C2 1_555 1_555
H1 C3 1_555 1_555
C4 C2 1_555 1_555
H2 C4 1_555 1_555
C5 N9 1_555 1_555
C6 C5 1_555 1_555
C7 C6 1_555 1_555
H3 C7 1_555 1_555
C8 C7 1_555 1_555
H4 C8 1_555 1_555
C9 N12 1_555 1_555
H5 C9 1_555 1_555
C10 C6 1_555 1_555
H6 C10 1_555 1_555
C11 C4 1_555 1_555
H7 C11 1_555 1_555
C12 N13 1_555 1_555
H8 C12 1_555 1_555
C13 H9 1_555 1_555
H10 C13 1_555 1_555
H11 C13 1_555 1_555
C14 N14 1_555 1_555
H12 C14 1_555 1_555
H13 C14 1_555 1_555
H14 C14 1_555 1_555
C15 N14 1_555 1_555
H15 C15 1_555 1_555
Cu3 N10 1_555 1_555
O2 Cu3 1_555 1_555
N19 Cu1 1_555 1_555
N20 N19 1_555 1_555
N21 N20 1_555 1_555
Cu7 N12 1_555 1_555
N29 Cu3 1_555 1_555
N31 Cu3 1_555 1_555
N4 C1 1_555 1_555
N11 C5 1_555 1_555
C3 C12 1_555 1_555
C9 C10 1_555 1_555
Cu3 N19 1_555 1_555
Cu2 O1 1_555 1_555
N5 Cu1_2 1_555 1_555
N6 N5 1_555 1_555
N7 N6 1_555 1_555
N15 Cu1_2 1_555 1_555
N17 N16 1_555 1_555
N18 N15 1_555 1_555
N22 Cu1_2 1_555 1_555
N23 N22 1_555 1_555
N24 Cu2 1_555 1_555
N25 N24 1_555 1_555
N26 C23 1_555 1_555
N27 C26 1_555 1_555
N28 C28 1_555 1_555
C16 N17 1_555 1_555
C17 C16 1_555 1_555
C18 C17 1_555 1_555
H16 C18 1_555 1_555
C19 C17 1_555 1_555
H17 C19 1_555 1_555
C20 N23 1_555 1_555
C21 C20 1_555 1_555
C22 C21 1_555 1_555
H18 C22 1_555 1_555
C23 C22 1_555 1_555
H19 C23 1_555 1_555
C24 N26 1_555 1_555
H20 C24 1_555 1_555
C25 C21 1_555 1_555
H21 C25 1_555 1_555
C26 C19 1_555 1_555
H22 C26 1_555 1_555
C27 N27 1_555 1_555
H23 C27 1_555 1_555
C28 H24 1_555 1_555
H25 C28 1_555 1_555
H26 C28 1_555 1_555
C29 N28 1_555 1_555
H27 C29 1_555 1_555
H28 C29 1_555 1_555
H29 C29 1_555 1_555
H30 C30 1_555 1_555
Cu5 N26 1_555 1_555
N30 Cu2 1_555 1_555
N32 Cu2 1_555 1_555
Cu2 N5 1_555 1_555
N15 N16 1_555 1_555
N18 C16 1_555 1_555
N22 N24 1_555 1_555
N25 C20 1_555 1_555
N28 C30 1_555 1_555
C18 C27 1_555 1_555
C24 C25 1_555 1_555
N8_2 Cu1_3 1_555 1_555
N10_2 N8_2 1_555 1_555
N11_2 N10_2 1_555 1_555
Cu7 N10_2 1_555 1_555
N15_2 Cu1_3 1_555 1_555
N16_2 Cu7 1_555 1_555
N17_2 N16_2 1_555 1_555
N18_2 N15_2 1_555 1_555
N32 C26_2 1_555 1_555
C16_2 N17_2 1_555 1_555
C17_2 C16_2 1_555 1_555
C18_2 C17_2 1_555 1_555
H16_2 C18_2 1_555 1_555
C19_2 C17_2 1_555 1_555
H17_2 C19_2 1_555 1_555
C26_2 C19_2 1_555 1_555
H22_2 C26_2 1_555 1_555
C27_2 N32 1_555 1_555
H23_2 C27_2 1_555 1_555
H25_2 C28_2 1_555 1_555
H26_2 C28_2 1_555 1_555
N15_2 N16_2 1_555 1_555
N18_2 C16_2 1_555 1_555
C18_2 C27_2 1_555 1_555
O1_2 C15_2 1_555 1_555
N5_2 Cu1_4 1_555 1_555
N6_2 N5_2 1_555 1_555
N7_2 N6_2 1_555 1_555
N29 C8_2 1_555 1_555
C5_2 N9_2 1_555 1_555
C6_2 C5_2 1_555 1_555
C7_2 C6_2 1_555 1_555
H3_2 C7_2 1_555 1_555
C8_2 C7_2 1_555 1_555
H4_2 C8_2 1_555 1_555
C9_2 N29 1_555 1_555
H5_2 C9_2 1_555 1_555
C10_2 C6_2 1_555 1_555
H6_2 C10_2 1_555 1_555
C14_2 N14_2 1_555 1_555
H12_2 C14_2 1_555 1_555
H13_2 C14_2 1_555 1_555
H14_2 C14_2 1_555 1_555
C15_2 N14_2 1_555 1_555
H15_2 C15_2 1_555 1_555
C9_2 C10_2 1_555 1_555
N19_2 Cu1_5 1_555 1_555
N20_2 N19_2 1_555 1_555
N21_2 N20_2 1_555 1_555
N30 C23_2 1_555 1_555
C20_2 N23_2 1_555 1_555
C21_2 C20_2 1_555 1_555
C22_2 C21_2 1_555 1_555
H18_2 C22_2 1_555 1_555
C23_2 C22_2 1_555 1_555
H19_2 C23_2 1_555 1_555
C24_2 N30 1_555 1_555
H20_2 C24_2 1_555 1_555
C25_2 C21_2 1_555 1_555
H21_2 C25_2 1_555 1_555
C29_2 N28_2 1_555 1_555
H27_2 C29_2 1_555 1_555
H28_2 C29_2 1_555 1_555
H29_2 C29_2 1_555 1_555
C30_2 O2_2 1_555 1_555
H30_2 C30_2 1_555 1_555
N28_2 C30_2 1_555 1_555
C24_2 C25_2 1_555 1_555
Cu1_6 N1_2 1_555 1_555
N1_2 N2_2 1_555 1_555
N2_2 Cu5 1_555 1_555
N3_2 N2_2 1_555 1_555
N4_2 N1_2 1_555 1_555
N31 C11_2 1_555 1_555
C1_2 N3_2 1_555 1_555
C2_2 C1_2 1_555 1_555
C3_2 C2_2 1_555 1_555
H1_2 C3_2 1_555 1_555
C4_2 C2_2 1_555 1_555
H2_2 C4_2 1_555 1_555
C11_2 C4_2 1_555 1_555
H7_2 C11_2 1_555 1_555
C12_2 N31 1_555 1_555
H8_2 C12_2 1_555 1_555
H10_2 C13_2 1_555 1_555
H11_2 C13_2 1_555 1_555
N22_2 Cu1_6 1_555 1_555
N24_2 Cu5 1_555 1_555
N25_2 N24_2 1_555 1_555
N4_2 C1_2 1_555 1_555
C3_2 C12_2 1_555 1_555
N22_2 N24_2 1_555 1_555

#END
