
###############################################################################
#
# This file contains modified crystal structure data generated from the
# MOF subset of the Cambridge Structural Database (CSD) v543 
# hosted by the Cambridge Crystallographic Data Centre (CCDC).
#
# This work is licensed under the Creative Commons
# Attribution-NonCommercial-ShareAlike 4.0 International License.
# To view a copy of this license, visit
# http://creativecommons.org/licenses/by-nc-sa/4.0/
# or send a letter to
# Creative Commons, PO Box 1866, Mountain View, CA 94042, USA.
#
# CIF created using the CSD Python API on 29 September 2022
# The structure has been converted into the P1 space group
# The structure has a 3D framework
# The original CSD entry PIZHUC is in the tetragonal crystal system
# The framework has been calculated to contain at least 10.0% void space
# The void calculation uses a probe of radius 1.32A, grid spacing 0.4
# The framework is charged, counterions have been retained in the structure
# H atom positions have been added when not included in the experimental data
# Generated hydrogen atom positions removed from atoms on special positions
#
###############################################################################

data_PIZHUC
_chemical_formula_moiety         '(C208 H248 Cl14 Cu8 N32 O8 12+)n'
_symmetry_cell_setting           triclinic
_symmetry_space_group_name_H-M   'P 1'
_symmetry_Int_Tables_number      1
_space_group_name_Hall           'P 1'
loop_
_symmetry_equiv_pos_site_id
_symmetry_equiv_pos_as_xyz
1 x,y,z
_cell_length_a                   24.2146(12)
_cell_length_b                   24.2146(12)
_cell_length_c                   18.6339(12)
_cell_angle_alpha                90
_cell_angle_beta                 90
_cell_angle_gamma                90
_cell_volume                     10925.9
loop_
_atom_site_label
_atom_site_type_symbol
_atom_site_fract_x
_atom_site_fract_y
_atom_site_fract_z
Cu1 Cu 0.57327(7) 0.41536(6) 0.01327(8)
Cl1 Cl 0.5000 0.5000 0.0000
C1 C 0.4954(5) 0.3961(5) 0.1336(6)
H1 H 0.5001 0.4339 0.1402
C2 C 0.4611(5) 0.3698(5) 0.1786(6)
H2 H 0.4440 0.3887 0.2159
C3 C 0.4514(5) 0.3140(5) 0.1687(6)
C4 C 0.4799(5) 0.2882(5) 0.1151(7)
H3 H 0.4756 0.2505 0.1076
C5 C 0.5150(5) 0.3183(5) 0.0722(7)
H4 H 0.5338 0.3000 0.0359
C6 C 0.5167(5) 0.1139(5) 0.3930(6)
H5 H 0.5130 0.0765 0.3828
C7 C 0.4898(5) 0.1522(6) 0.3500(7)
H6 H 0.4666 0.1401 0.3135
C8 C 0.4971(6) 0.2074(7) 0.3607(8)
C9 C 0.5304(7) 0.2222(7) 0.4175(9)
H7 H 0.5366 0.2595 0.4264
C10 C 0.5543(6) 0.1845(7) 0.4603(9)
H8 H 0.5757 0.1964 0.4987
C11 C 0.4103(6) 0.2820(6) 0.2156(7)
H9 H 0.3923 0.3078 0.2479
H10 H 0.3820 0.2663 0.1849
C12 C 0.4353(7) 0.2361(6) 0.2596(8)
H11 H 0.4057 0.2157 0.2824
H12 H 0.4542 0.2110 0.2274
C13 C 0.4723(7) 0.2530(6) 0.3122(9)
H13 H 0.4537 0.2796 0.3428
H14 H 0.5025 0.2722 0.2889
C14 C 0.6106(6) 0.4973(7) 0.1156(8)
H15 H 0.5891 0.5199 0.0865
C15 C 0.6381(7) 0.5218(8) 0.1724(9)
H16 H 0.6373 0.5597 0.1800
C16 C 0.6670(5) 0.4866(7) 0.2174(7)
C17 C 0.6693(7) 0.4359(8) 0.2022(10)
H17 H 0.6892 0.4124 0.2319
C18 C 0.6428(7) 0.4143(8) 0.1423(10)
H18 H 0.6464 0.3769 0.1316
C19 C 0.8529(7) 0.4325(6) 0.3754(8)
H19 H 0.8543 0.3942 0.3789
C20 C 0.8257(7) 0.4543(6) 0.3164(8)
H20 H 0.8093 0.4312 0.2829
C21 C 0.8237(8) 0.5066(6) 0.3088(8)
C22 C 0.8471(7) 0.5398(7) 0.3610(9)
H21 H 0.8439 0.5779 0.3575
C23 C 0.8759(6) 0.5165(6) 0.4191(8)
H22 H 0.8940 0.5393 0.4517
C24 C 0.6972(11) 0.5102(10) 0.2823(12)
H23 H 0.6698 0.5185 0.3186
H24 H 0.7207 0.4813 0.3015
C25 C 0.7274(10) 0.5538(10) 0.2737(13)
H25 H 0.7313 0.5732 0.3190
H26 H 0.7101 0.5786 0.2395
C26 C 0.7871(9) 0.5348(8) 0.2447(10)
H27 H 0.8066 0.5666 0.2258
H28 H 0.7824 0.5085 0.2060
N1 N 0.5235(4) 0.3724(4) 0.0801(5)
N2 N 0.5481(4) 0.1297(4) 0.4493(5)
N3 N 0.6125(4) 0.4463(5) 0.1004(5)
N4 N 0.8773(4) 0.4612(4) 0.4277(6)
O1 O 0.6459(7) 0.3247(6) 0.0159(9)
Cu3 Cu 0.58464(6) 0.07327(7) 0.51327(8)
Cu4 Cu 0.91536(6) 0.42673(7) 0.51327(8)
N8 N 0.3703(4) 0.5481(4) 0.0507(5)
N12 N 0.4612(4) 0.6227(4) 0.0723(6)
H58 H 0.667909 0.325586 0.0608503
Cl1_2 Cl 0.5000 0.5000 1.0000
Cu2 Cu 0.42673(7) 0.58464(6) 0.98673(8)
C27 C 0.8961(5) 0.5046(5) 0.6336(6)
H29 H 0.9339 0.4999 0.6402
C28 C 0.8698(5) 0.5389(5) 0.6786(6)
H30 H 0.8887 0.5560 0.7159
C29 C 0.8140(5) 0.5486(5) 0.6687(6)
C30 C 0.7882(5) 0.5201(5) 0.6151(7)
H31 H 0.7505 0.5244 0.6076
C31 C 0.8183(5) 0.4850(5) 0.5722(7)
H32 H 0.8000 0.4662 0.5359
C32 C 0.6139(5) 0.4833(5) 0.8930(6)
H33 H 0.5765 0.4870 0.8828
C33 C 0.6522(6) 0.5102(5) 0.8500(7)
H34 H 0.6401 0.5334 0.8135
C34 C 0.7074(7) 0.5029(6) 0.8607(8)
C35 C 0.7222(7) 0.4696(7) 0.9175(9)
H35 H 0.7595 0.4634 0.9264
C36 C 0.6845(7) 0.4457(6) 0.9603(9)
H36 H 0.6964 0.4243 0.9987
C37 C 0.7820(6) 0.5897(6) 0.7156(7)
H37 H 0.8078 0.6077 0.7479
H38 H 0.7663 0.6180 0.6849
C38 C 0.7361(6) 0.5647(7) 0.7596(8)
H39 H 0.7157 0.5943 0.7824
H40 H 0.7110 0.5458 0.7274
C39 C 0.7530(6) 0.5277(7) 0.8122(9)
H41 H 0.7796 0.5463 0.8428
H42 H 0.7722 0.4975 0.7889
C40 C 0.5027(7) 0.1106(6) 0.6156(8)
H43 H 0.4801 0.0891 0.5865
C41 C 0.4782(8) 0.1381(7) 0.6724(9)
H44 H 0.4403 0.1373 0.6800
C42 C 0.5134(7) 0.1670(5) 0.7174(7)
C43 C 0.5641(8) 0.1693(7) 0.7022(10)
H45 H 0.5876 0.1892 0.7319
C44 C 0.5857(8) 0.1428(7) 0.6423(10)
H46 H 0.6231 0.1464 0.6316
C45 C 0.5675(6) 0.3529(7) 0.8754(8)
H47 H 0.6058 0.3543 0.8789
C46 C 0.5457(6) 0.3257(7) 0.8164(8)
H48 H 0.5688 0.3093 0.7829
C47 C 0.4934(6) 0.3237(8) 0.8088(8)
C48 C 0.4602(7) 0.3471(7) 0.8610(9)
H49 H 0.4221 0.3439 0.8575
C49 C 0.4835(6) 0.3759(6) 0.9191(8)
H50 H 0.4607 0.3940 0.9517
C50 C 0.4898(10) 0.1972(11) 0.7823(12)
H51 H 0.4815 0.1698 0.8186
H52 H 0.5187 0.2207 0.8015
C51 C 0.4462(10) 0.2274(10) 0.7737(13)
H53 H 0.4268 0.2313 0.8190
H54 H 0.4214 0.2101 0.7395
C52 C 0.4652(8) 0.2871(9) 0.7447(10)
H55 H 0.4334 0.3066 0.7258
H56 H 0.4915 0.2824 0.7060
N5 N 0.8724(4) 0.4765(4) 0.5801(5)
N6 N 0.4765(4) 0.6276(4) 0.9199(5)
N7 N 0.6297(4) 0.4519(4) 0.9493(5)
N9 N 0.5537(5) 0.1125(4) 0.6004(5)
N10 N 0.3875(4) 0.5537(5) 0.8996(5)
N11 N 0.5388(4) 0.3773(4) 0.9277(6)
O2 O 0.3541(7) 0.6753(6) 0.9841(9)
H57 H 0.671103 0.326652 0.973938
H59 H 0.375675 0.710138 0.98616
H60 H 0.332091 0.674414 0.93915
Cu3_2 Cu 0.92673(7) 0.08464(6) 0.01327(8)
Cl1_3 Cl 0.5000 -0.0000 0.5000
H1_2 H 0.5661 0.0001 0.6402
C5_2 C 0.6817(5) 0.0150(5) 0.5722(7)
H4_2 H 0.7000 0.0338 0.5359
C6_2 C 0.8861(5) 0.0167(5) 0.8930(6)
H5_2 H 0.9235 0.0130 0.8828
C9_2 C 0.7778(7) 0.0304(7) 0.9175(9)
H7_2 H 0.7405 0.0366 0.9264
C10_2 C 0.8155(7) 0.0543(6) 0.9603(9)
H8_2 H 0.8036 0.0757 0.9987
H14_2 H 0.7278 0.0025 0.7889
N1_2 N 0.6276(4) 0.0235(4) 0.5801(5)
N2_2 N 0.8703(4) 0.0481(4) 0.9493(5)
O1_2 O 0.6753(6) 0.1459(7) 0.5159(9)
C40_2 C 0.8894(6) 0.0027(7) 0.1156(8)
C42_2 C 0.8330(5) 0.0134(7) 0.2174(7)
C43_2 C 0.8307(7) 0.0641(8) 0.2022(10)
H45_2 H 0.8108 0.0876 0.2319
C44_2 C 0.8572(7) 0.0857(8) 0.1423(10)
H46_2 H 0.8536 0.1231 0.1316
C45_2 C 0.6471(7) 0.0675(6) 0.3754(8)
H47_2 H 0.6457 0.1058 0.3789
C46_2 C 0.6743(7) 0.0457(6) 0.3164(8)
H48_2 H 0.6907 0.0688 0.2829
H52_2 H 0.7793 0.0187 0.3015
N9_2 N 0.8875(4) 0.0537(5) 0.1004(5)
N11_2 N 0.6227(4) 0.0388(4) 0.4277(6)
Cl1_4 Cl 0.5000 1.0000 0.5000
C1_2 C 0.6039(5) 0.9954(5) 0.6336(6)
C2_2 C 0.6302(5) 0.9611(5) 0.6786(6)
H2_2 H 0.6113 0.9440 0.7159
C3_2 C 0.6860(5) 0.9514(5) 0.6687(6)
C4_2 C 0.7118(5) 0.9799(5) 0.6151(7)
H3_2 H 0.7495 0.9756 0.6076
C7_2 C 0.8478(6) 0.9898(5) 0.8500(7)
H6_2 H 0.8599 0.9666 0.8135
C8_2 C 0.7926(7) 0.9971(6) 0.8607(8)
C11_2 C 0.7180(6) 0.9103(6) 0.7156(7)
H9_2 H 0.6922 0.8923 0.7479
H10_2 H 0.7337 0.8820 0.6849
C12_2 C 0.7639(6) 0.9353(7) 0.7596(8)
H11_2 H 0.7843 0.9057 0.7824
H12_2 H 0.7890 0.9542 0.7274
C13_2 C 0.7470(6) 0.9723(7) 0.8122(9)
H13_2 H 0.7204 0.9537 0.8428
Cu2_2 Cu 0.41536(6) 0.92673(7) 0.48673(8)
H43_2 H 0.9109 0.9801 0.0865
C41_2 C 0.8619(7) 0.9782(8) 0.1724(9)
H44_2 H 0.8627 0.9403 0.1800
C47_2 C 0.6763(8) 0.9934(6) 0.3088(8)
C48_2 C 0.6529(7) 0.9602(7) 0.3610(9)
H49_2 H 0.6561 0.9221 0.3575
C49_2 C 0.6241(6) 0.9835(6) 0.4191(8)
H50_2 H 0.6060 0.9607 0.4517
C50_2 C 0.8028(11) 0.9898(10) 0.2823(12)
H51_2 H 0.8302 0.9815 0.3186
C51_2 C 0.7726(10) 0.9462(10) 0.2737(13)
H53_2 H 0.7687 0.9268 0.3190
H54_2 H 0.7899 0.9214 0.2395
C52_2 C 0.7129(9) 0.9652(8) 0.2447(10)
H55_2 H 0.6934 0.9334 0.2258
H56_2 H 0.7176 0.9915 0.2060
N6_2 N 0.3724(4) 0.9765(4) 0.4199(5)
N8_2 N 0.4519(4) 0.8703(4) 0.5507(5)
N10_2 N 0.4463(5) 0.8875(4) 0.3996(5)
N12_2 N 0.3773(4) 0.9612(4) 0.5723(6)
O2_2 O 0.3247(6) 0.8541(7) 0.4841(9)
Cl1_5 Cl -0.0000 0.5000 0.5000
H15_2 H 0.0199 0.4109 0.5865
C15_2 C 0.0218(8) 0.3619(7) 0.6724(9)
H16_2 H 0.0597 0.3627 0.6800
C21_2 C 0.0066(6) 0.1763(8) 0.8088(8)
C22_2 C 0.0398(7) 0.1529(7) 0.8610(9)
H21_2 H 0.0779 0.1561 0.8575
C23_2 C 0.0165(6) 0.1241(6) 0.9191(8)
H22_2 H 0.0393 0.1060 0.9517
C24_2 C 0.0102(10) 0.3028(11) 0.7823(12)
H23_2 H 0.0185 0.3302 0.8186
C25_2 C 0.0538(10) 0.2726(10) 0.7737(13)
H25_2 H 0.0732 0.2687 0.8190
H26_2 H 0.0786 0.2899 0.7395
C26_2 C 0.0348(8) 0.2129(9) 0.7447(10)
H27_2 H 0.0666 0.1934 0.7258
H28_2 H 0.0085 0.2176 0.7060
Cu2_3 Cu 0.08464(6) 0.57327(7) 0.48673(8)
C27_2 C 0.0046(5) 0.1039(5) 0.1336(6)
C28_2 C 0.0389(5) 0.1302(5) 0.1786(6)
H30_2 H 0.0560 0.1113 0.2159
C29_2 C 0.0486(5) 0.1860(5) 0.1687(6)
C30_2 C 0.0201(5) 0.2118(5) 0.1151(7)
H31_2 H 0.0244 0.2495 0.1076
C33_2 C 0.0102(5) 0.3478(6) 0.3500(7)
H34_2 H 0.0334 0.3599 0.3135
C34_2 C 0.0029(6) 0.2926(7) 0.3607(8)
C37_2 C 0.0897(6) 0.2180(6) 0.2156(7)
H37_2 H 0.1077 0.1922 0.2479
H38_2 H 0.1180 0.2337 0.1849
C38_2 C 0.0647(7) 0.2639(6) 0.2596(8)
H39_2 H 0.0943 0.2843 0.2824
H40_2 H 0.0458 0.2890 0.2274
C39_2 C 0.0277(7) 0.2470(6) 0.3122(9)
H41_2 H 0.0463 0.2204 0.3428
N6_3 N 0.1276(4) 0.5235(4) 0.4199(5)
N8_3 N 0.0481(4) 0.6297(4) 0.5507(5)
N10_3 N 0.0537(5) 0.6125(4) 0.3996(5)
N12_3 N 0.1227(4) 0.5388(4) 0.5723(6)
O2_3 O 0.1753(6) 0.6459(7) 0.4841(9)
Cl1_6 Cl 1.0000 0.5000 0.5000
C14_2 C 0.9973(7) 0.3894(6) 0.6156(8)
C16_2 C 0.9866(7) 0.3330(5) 0.7174(7)
C17_2 C 0.9359(8) 0.3307(7) 0.7022(10)
H17_2 H 0.9124 0.3108 0.7319
C18_2 C 0.9143(8) 0.3572(7) 0.6423(10)
H18_2 H 0.8769 0.3536 0.6316
C19_2 C 0.9325(6) 0.1471(7) 0.8754(8)
H19_2 H 0.8942 0.1457 0.8789
C20_2 C 0.9543(6) 0.1743(7) 0.8164(8)
H20_2 H 0.9312 0.1907 0.7829
H24_2 H 0.9813 0.2793 0.8015
N3_2 N 0.9463(5) 0.3875(4) 0.6004(5)
N4_2 N 0.9612(4) 0.1227(4) 0.9277(6)
O1_3 O 0.8247(6) 0.3541(7) 0.5159(9)
H29_2 H 0.9999 0.0661 0.1402
C31_2 C 0.9850(5) 0.1817(5) 0.0722(7)
H32_2 H 0.9662 0.2000 0.0359
C32_2 C 0.9833(5) 0.3861(5) 0.3930(6)
H33_2 H 0.9870 0.4235 0.3828
C35_2 C 0.9696(7) 0.2778(7) 0.4175(9)
H35_2 H 0.9634 0.2405 0.4264
C36_2 C 0.9457(6) 0.3155(7) 0.4603(9)
H36_2 H 0.9243 0.3036 0.4987
H42_2 H 0.9975 0.2278 0.2889
N5_2 N 0.9765(4) 0.1276(4) 0.0801(5)
N7_2 N 0.9519(4) 0.3703(4) 0.4493(5)
Cl1_7 Cl 0.0000 0.0000 0.0000
Cl1_8 Cl 0.0000 0.0000 1.0000
Cl1_9 Cl 0.0000 1.0000 0.0000
N8_4 N 0.1297(4) 0.9519(4) 0.0507(5)
N12_4 N 0.0388(4) 0.8773(4) 0.0723(6)
Cl1_10 Cl 0.0000 1.0000 1.0000
Cu2_4 Cu 0.07327(7) 0.91536(6) 0.98673(8)
N6_4 N 0.0235(4) 0.8724(4) 0.9199(5)
N10_4 N 0.1125(4) 0.9463(5) 0.8996(5)
O2_4 O 0.1459(7) 0.8247(6) 0.9841(9)
H59_2 H 0.124325 0.789862 0.98616
H60_2 H 0.167909 0.825586 0.93915
Cl1_11 Cl 1.0000 0.0000 0.0000
O1_4 O 0.8541(7) 0.1753(6) 0.0159(9)
H58_2 H 0.832091 0.174414 0.0608503
Cl1_12 Cl 1.0000 0.0000 1.0000
H57_2 H 0.828897 0.173348 0.973938
Cl1_13 Cl 1.0000 1.0000 0.0000
Cl1_14 Cl 1.0000 1.0000 1.0000
C27_3 C 0.1039(5) 0.4954(5) 0.3664(6)
H29_3 H 0.0661 0.5001 0.3598
C28_3 C 0.1302(5) 0.4611(5) 0.3214(6)
H30_3 H 0.1113 0.4440 0.2841
C29_3 C 0.1860(5) 0.4514(5) 0.3313(6)
C30_3 C 0.2118(5) 0.4799(5) 0.3849(7)
H31_3 H 0.2495 0.4756 0.3924
C31_3 C 0.1817(5) 0.5150(5) 0.4278(7)
H32_3 H 0.2000 0.5338 0.4641
C32_3 C 0.3861(5) 0.5167(5) 0.1070(6)
H33_3 H 0.4235 0.5130 0.1172
C33_3 C 0.3478(6) 0.4898(5) 0.1500(7)
H34_3 H 0.3599 0.4666 0.1865
C34_3 C 0.2926(7) 0.4971(6) 0.1393(8)
C35_3 C 0.2778(7) 0.5304(7) 0.0825(9)
H35_3 H 0.2405 0.5366 0.0736
C36_3 C 0.3155(7) 0.5543(6) 0.0397(9)
H36_3 H 0.3036 0.5757 0.0013
C37_3 C 0.2180(6) 0.4103(6) 0.2844(7)
H37_3 H 0.1922 0.3923 0.2521
H38_3 H 0.2337 0.3820 0.3151
C38_3 C 0.2639(6) 0.4353(7) 0.2404(8)
H39_3 H 0.2843 0.4057 0.2176
H40_3 H 0.2890 0.4542 0.2726
C39_3 C 0.2470(6) 0.4723(7) 0.1878(9)
H41_3 H 0.2204 0.4537 0.1572
H42_3 H 0.2278 0.5025 0.2111
C40_3 C 0.4973(7) 0.8894(6) 0.3844(8)
H43_3 H 0.5199 0.9109 0.4135
C41_3 C 0.5218(8) 0.8619(7) 0.3276(9)
H44_3 H 0.5597 0.8627 0.3200
C42_3 C 0.4866(7) 0.8330(5) 0.2826(7)
C43_3 C 0.4359(8) 0.8307(7) 0.2978(10)
H45_3 H 0.4124 0.8108 0.2681
C44_3 C 0.4143(8) 0.8572(7) 0.3577(10)
H46_3 H 0.3769 0.8536 0.3684
C45_3 C 0.4325(6) 0.6471(7) 0.1246(8)
H47_3 H 0.3942 0.6457 0.1211
C46_3 C 0.4543(6) 0.6743(7) 0.1836(8)
H48_3 H 0.4312 0.6907 0.2171
C47_3 C 0.5066(6) 0.6763(8) 0.1912(8)
C48_3 C 0.5398(7) 0.6529(7) 0.1390(9)
H49_3 H 0.5779 0.6561 0.1425
C49_3 C 0.5165(6) 0.6241(6) 0.0809(8)
H50_3 H 0.5393 0.6060 0.0483
C50_3 C 0.5102(10) 0.8028(11) 0.2177(12)
H51_3 H 0.5185 0.8302 0.1814
H52_3 H 0.4813 0.7793 0.1985
C51_3 C 0.5538(10) 0.7726(10) 0.2263(13)
H53_3 H 0.5732 0.7687 0.1810
H54_3 H 0.5786 0.7899 0.2605
C52_3 C 0.5348(8) 0.7129(9) 0.2553(10)
H55_3 H 0.5666 0.6934 0.2742
H56_3 H 0.5085 0.7176 0.2940
H57_3 H 0.328897 0.673348 0.0260618
H59_3 H 0.624325 0.289862 0.0138398
C1_3 C 0.5046(5) 0.6039(5) 0.8664(6)
H1_3 H 0.4999 0.5661 0.8598
C2_3 C 0.5389(5) 0.6302(5) 0.8214(6)
H2_3 H 0.5560 0.6113 0.7841
C3_3 C 0.5486(5) 0.6860(5) 0.8313(6)
C4_3 C 0.5201(5) 0.7118(5) 0.8849(7)
H3_3 H 0.5244 0.7495 0.8924
C5_3 C 0.4850(5) 0.6817(5) 0.9278(7)
H4_3 H 0.4662 0.7000 0.9641
C6_3 C 0.4833(5) 0.8861(5) 0.6070(6)
H5_3 H 0.4870 0.9235 0.6172
C7_3 C 0.5102(5) 0.8478(6) 0.6500(7)
H6_3 H 0.5334 0.8599 0.6865
C8_3 C 0.5029(6) 0.7926(7) 0.6393(8)
C9_3 C 0.4696(7) 0.7778(7) 0.5825(9)
H7_3 H 0.4634 0.7405 0.5736
C10_3 C 0.4457(6) 0.8155(7) 0.5397(9)
H8_3 H 0.4243 0.8036 0.5013
C11_3 C 0.5897(6) 0.7180(6) 0.7844(7)
H9_3 H 0.6077 0.6922 0.7521
H10_3 H 0.6180 0.7337 0.8151
C12_3 C 0.5647(7) 0.7639(6) 0.7404(8)
H11_3 H 0.5943 0.7843 0.7176
H12_3 H 0.5458 0.7890 0.7726
C13_3 C 0.5277(7) 0.7470(6) 0.6878(9)
H13_3 H 0.5463 0.7204 0.6572
H14_3 H 0.4975 0.7278 0.7111
C14_3 C 0.3894(6) 0.5027(7) 0.8844(8)
H15_3 H 0.4109 0.4801 0.9135
C15_3 C 0.3619(7) 0.4782(8) 0.8276(9)
H16_3 H 0.3627 0.4403 0.8200
C16_3 C 0.3330(5) 0.5134(7) 0.7826(7)
C17_3 C 0.3307(7) 0.5641(8) 0.7978(10)
H17_3 H 0.3108 0.5876 0.7681
C18_3 C 0.3572(7) 0.5857(8) 0.8577(10)
H18_3 H 0.3536 0.6231 0.8684
C19_3 C 0.1471(7) 0.5675(6) 0.6246(8)
H19_3 H 0.1457 0.6058 0.6211
C20_3 C 0.1743(7) 0.5457(6) 0.6836(8)
H20_3 H 0.1907 0.5688 0.7171
C21_3 C 0.1763(8) 0.4934(6) 0.6912(8)
C22_3 C 0.1529(7) 0.4602(7) 0.6390(9)
H21_3 H 0.1561 0.4221 0.6425
C23_3 C 0.1241(6) 0.4835(6) 0.5809(8)
H22_3 H 0.1060 0.4607 0.5483
C24_3 C 0.3028(11) 0.4898(10) 0.7177(12)
H23_3 H 0.3302 0.4815 0.6814
H24_3 H 0.2793 0.5187 0.6985
C25_3 C 0.2726(10) 0.4462(10) 0.7263(13)
H25_3 H 0.2687 0.4268 0.6810
H26_3 H 0.2899 0.4214 0.7605
C26_3 C 0.2129(9) 0.4652(8) 0.7553(10)
H27_3 H 0.1934 0.4334 0.7742
H28_3 H 0.2176 0.4915 0.7940
C1_4 C 0.3961(5) 0.0046(5) 0.3664(6)
C2_4 C 0.3698(5) 0.0389(5) 0.3214(6)
H2_4 H 0.3887 0.0560 0.2841
C3_4 C 0.3140(5) 0.0486(5) 0.3313(6)
C4_4 C 0.2882(5) 0.0201(5) 0.3849(7)
H3_4 H 0.2505 0.0244 0.3924
C7_4 C 0.1522(6) 0.0102(5) 0.1500(7)
H6_4 H 0.1401 0.0334 0.1865
C8_4 C 0.2074(7) 0.0029(6) 0.1393(8)
C11_4 C 0.2820(6) 0.0897(6) 0.2844(7)
H9_4 H 0.3078 0.1077 0.2521
H10_4 H 0.2663 0.1180 0.3151
C12_4 C 0.2361(6) 0.0647(7) 0.2404(8)
H11_4 H 0.2157 0.0943 0.2176
H12_4 H 0.2110 0.0458 0.2726
C13_4 C 0.2530(6) 0.0277(7) 0.1878(9)
H13_4 H 0.2796 0.0463 0.1572
H43_4 H 0.0891 0.0199 0.9135
C41_4 C 0.1381(7) 0.0218(8) 0.8276(9)
H44_4 H 0.1373 0.0597 0.8200
C47_4 C 0.3237(8) 0.0066(6) 0.6912(8)
C48_4 C 0.3471(7) 0.0398(7) 0.6390(9)
H49_4 H 0.3439 0.0779 0.6425
C49_4 C 0.3759(6) 0.0165(6) 0.5809(8)
H50_4 H 0.3940 0.0393 0.5483
C50_4 C 0.1972(11) 0.0102(10) 0.7177(12)
H51_4 H 0.1698 0.0185 0.6814
C51_4 C 0.2274(10) 0.0538(10) 0.7263(13)
H53_4 H 0.2313 0.0732 0.6810
H54_4 H 0.2101 0.0786 0.7605
C52_4 C 0.2871(9) 0.0348(8) 0.7553(10)
H55_4 H 0.3066 0.0666 0.7742
H56_4 H 0.2824 0.0085 0.7940
H1_4 H 0.4339 0.9999 0.3598
C5_4 C 0.3183(5) 0.9850(5) 0.4278(7)
H4_4 H 0.3000 0.9662 0.4641
C6_4 C 0.1139(5) 0.9833(5) 0.1070(6)
H5_4 H 0.0765 0.9870 0.1172
C9_4 C 0.2222(7) 0.9696(7) 0.0825(9)
H7_4 H 0.2595 0.9634 0.0736
C10_4 C 0.1845(7) 0.9457(6) 0.0397(9)
H8_4 H 0.1964 0.9243 0.0013
H14_4 H 0.2722 0.9975 0.2111
C40_4 C 0.1106(6) 0.9973(7) 0.8844(8)
C42_4 C 0.1670(5) 0.9866(7) 0.7826(7)
C43_4 C 0.1693(7) 0.9359(8) 0.7978(10)
H45_4 H 0.1892 0.9124 0.7681
C44_4 C 0.1428(7) 0.9143(8) 0.8577(10)
H46_4 H 0.1464 0.8769 0.8684
C45_4 C 0.3529(7) 0.9325(6) 0.6246(8)
H47_4 H 0.3543 0.8942 0.6211
C46_4 C 0.3257(7) 0.9543(6) 0.6836(8)
H48_4 H 0.3093 0.9312 0.7171
H52_4 H 0.2207 0.9813 0.6985
C14_4 C 0.0027(7) 0.6106(6) 0.3844(8)
C16_4 C 0.0134(7) 0.6670(5) 0.2826(7)
C17_4 C 0.0641(8) 0.6693(7) 0.2978(10)
H17_4 H 0.0876 0.6892 0.2681
C18_4 C 0.0857(8) 0.6428(7) 0.3577(10)
H18_4 H 0.1231 0.6464 0.3684
C19_4 C 0.0675(6) 0.8529(7) 0.1246(8)
H19_4 H 0.1058 0.8543 0.1211
C20_4 C 0.0457(6) 0.8257(7) 0.1836(8)
H20_4 H 0.0688 0.8093 0.2171
H24_4 H 0.0187 0.7207 0.1985
H29_4 H 0.0001 0.9339 0.8598
C31_4 C 0.0150(5) 0.8183(5) 0.9278(7)
H32_4 H 0.0338 0.8000 0.9641
C32_4 C 0.0167(5) 0.6139(5) 0.6070(6)
H33_4 H 0.0130 0.5765 0.6172
C35_4 C 0.0304(7) 0.7222(7) 0.5825(9)
H35_4 H 0.0366 0.7595 0.5736
C36_4 C 0.0543(6) 0.6845(7) 0.5397(9)
H36_4 H 0.0757 0.6964 0.5013
H42_4 H 0.0025 0.7722 0.7111
H15_4 H 0.9801 0.5891 0.4135
C15_4 C 0.9782(8) 0.6381(7) 0.3276(9)
H16_4 H 0.9403 0.6373 0.3200
C21_4 C 0.9934(6) 0.8237(8) 0.1912(8)
C22_4 C 0.9602(7) 0.8471(7) 0.1390(9)
H21_4 H 0.9221 0.8439 0.1425
C23_4 C 0.9835(6) 0.8759(6) 0.0809(8)
H22_4 H 0.9607 0.8940 0.0483
C24_4 C 0.9898(10) 0.6972(11) 0.2177(12)
H23_4 H 0.9815 0.6698 0.1814
C25_4 C 0.9462(10) 0.7274(10) 0.2263(13)
H25_4 H 0.9268 0.7313 0.1810
H26_4 H 0.9214 0.7101 0.2605
C26_4 C 0.9652(8) 0.7871(9) 0.2553(10)
H27_4 H 0.9334 0.8066 0.2742
H28_4 H 0.9915 0.7824 0.2940
C27_4 C 0.9954(5) 0.8961(5) 0.8664(6)
C28_4 C 0.9611(5) 0.8698(5) 0.8214(6)
H30_4 H 0.9440 0.8887 0.7841
C29_4 C 0.9514(5) 0.8140(5) 0.8313(6)
C30_4 C 0.9799(5) 0.7882(5) 0.8849(7)
H31_4 H 0.9756 0.7505 0.8924
C33_4 C 0.9898(5) 0.6522(6) 0.6500(7)
H34_4 H 0.9666 0.6401 0.6865
C34_4 C 0.9971(6) 0.7074(7) 0.6393(8)
C37_4 C 0.9103(6) 0.7820(6) 0.7844(7)
H37_4 H 0.8923 0.8078 0.7521
H38_4 H 0.8820 0.7663 0.8151
C38_4 C 0.9353(7) 0.7361(6) 0.7404(8)
H39_4 H 0.9057 0.7157 0.7176
H40_4 H 0.9542 0.7110 0.7726
C39_4 C 0.9723(7) 0.7530(6) 0.6878(9)
H41_4 H 0.9537 0.7796 0.6572
H57_4 H 0.171103 0.826652 0.0260618
H59_4 H 0.875675 0.210138 0.0138398
loop_
_geom_bond_atom_site_label_1
_geom_bond_atom_site_label_2
_geom_bond_site_symmetry_1
_geom_bond_site_symmetry_2
Cu1 Cl1 1_555 1_555
C1 H1 1_555 1_555
C2 C1 1_555 1_555
H2 C2 1_555 1_555
C3 C2 1_555 1_555
C4 C3 1_555 1_555
H3 C4 1_555 1_555
C5 C4 1_555 1_555
H4 C5 1_555 1_555
C6 H5 1_555 1_555
C7 C6 1_555 1_555
H6 C7 1_555 1_555
C8 C7 1_555 1_555
C9 C8 1_555 1_555
H7 C9 1_555 1_555
C10 C9 1_555 1_555
H8 C10 1_555 1_555
C11 C3 1_555 1_555
H9 C11 1_555 1_555
H10 C11 1_555 1_555
C12 C11 1_555 1_555
H11 C12 1_555 1_555
H12 C12 1_555 1_555
C13 C8 1_555 1_555
H13 C13 1_555 1_555
H14 C13 1_555 1_555
C14 H15 1_555 1_555
C15 C14 1_555 1_555
H16 C15 1_555 1_555
C16 C15 1_555 1_555
C17 C16 1_555 1_555
H17 C17 1_555 1_555
C18 C17 1_555 1_555
H18 C18 1_555 1_555
C19 H19 1_555 1_555
C20 C19 1_555 1_555
H20 C20 1_555 1_555
C21 C20 1_555 1_555
C22 C21 1_555 1_555
H21 C22 1_555 1_555
C23 C22 1_555 1_555
H22 C23 1_555 1_555
C24 C16 1_555 1_555
H23 C24 1_555 1_555
H24 C24 1_555 1_555
C25 C24 1_555 1_555
H25 C25 1_555 1_555
H26 C25 1_555 1_555
C26 C21 1_555 1_555
H27 C26 1_555 1_555
H28 C26 1_555 1_555
N1 Cu1 1_555 1_555
N2 C6 1_555 1_555
N3 Cu1 1_555 1_555
N4 C19 1_555 1_555
O1 Cu1 1_555 1_555
Cu3 N2 1_555 1_555
Cu4 N4 1_555 1_555
C1 N1 1_555 1_555
C5 N1 1_555 1_555
C10 N2 1_555 1_555
C12 C13 1_555 1_555
C14 N3 1_555 1_555
C18 N3 1_555 1_555
C23 N4 1_555 1_555
C25 C26 1_555 1_555
O1 H58 1_555 1_555
Cl1_2 Cu2 1_555 1_555
Cu2 N6 1_555 1_555
Cu4 N5 1_555 1_555
Cu3 N9 1_555 1_555
C27 H29 1_555 1_555
C28 C27 1_555 1_555
H30 C28 1_555 1_555
C29 C28 1_555 1_555
C30 C29 1_555 1_555
H31 C30 1_555 1_555
C31 C30 1_555 1_555
H32 C31 1_555 1_555
C32 H33 1_555 1_555
C33 C32 1_555 1_555
H34 C33 1_555 1_555
C34 C33 1_555 1_555
C35 C34 1_555 1_555
H35 C35 1_555 1_555
C36 C35 1_555 1_555
H36 C36 1_555 1_555
C37 C29 1_555 1_555
H37 C37 1_555 1_555
H38 C37 1_555 1_555
C38 C37 1_555 1_555
H39 C38 1_555 1_555
H40 C38 1_555 1_555
C39 C34 1_555 1_555
H41 C39 1_555 1_555
H42 C39 1_555 1_555
C40 H43 1_555 1_555
C41 C40 1_555 1_555
H44 C41 1_555 1_555
C42 C41 1_555 1_555
C43 C42 1_555 1_555
H45 C43 1_555 1_555
C44 C43 1_555 1_555
H46 C44 1_555 1_555
C45 H47 1_555 1_555
C46 C45 1_555 1_555
H48 C46 1_555 1_555
C47 C46 1_555 1_555
C48 C47 1_555 1_555
H49 C48 1_555 1_555
C49 C48 1_555 1_555
H50 C49 1_555 1_555
C50 C42 1_555 1_555
H51 C50 1_555 1_555
H52 C50 1_555 1_555
C51 C50 1_555 1_555
H53 C51 1_555 1_555
H54 C51 1_555 1_555
C52 C47 1_555 1_555
H55 C52 1_555 1_555
H56 C52 1_555 1_555
N5 C27 1_555 1_555
N9 C40 1_555 1_555
N10 Cu2 1_555 1_555
O2 Cu2 1_555 1_555
C31 N5 1_555 1_555
C32 N7 1_555 1_555
C36 N7 1_555 1_555
C38 C39 1_555 1_555
C44 N9 1_555 1_555
C45 N11 1_555 1_555
C49 N11 1_555 1_555
C51 C52 1_555 1_555
O2 H59 1_555 1_555
O2 H60 1_555 1_555
Cu3 Cl1_3 1_555 1_555
H4_2 C5_2 1_555 1_555
C6_2 H5_2 1_555 1_555
H7_2 C9_2 1_555 1_555
C10_2 C9_2 1_555 1_555
H8_2 C10_2 1_555 1_555
N1_2 Cu3 1_555 1_555
N2_2 C6_2 1_555 1_555
O1_2 Cu3 1_555 1_555
Cu3_2 N9_2 1_555 1_555
C43_2 C42_2 1_555 1_555
H45_2 C43_2 1_555 1_555
C44_2 C43_2 1_555 1_555
H46_2 C44_2 1_555 1_555
C45_2 H47_2 1_555 1_555
C46_2 C45_2 1_555 1_555
H48_2 C46_2 1_555 1_555
N9_2 C40_2 1_555 1_555
N11_2 Cu3 1_555 1_555
C5_2 N1_2 1_555 1_555
C10_2 N2_2 1_555 1_555
C44_2 N9_2 1_555 1_555
C45_2 N11_2 1_555 1_555
Cl1_4 Cu2_2 1_555 1_555
C2_2 C1_2 1_555 1_555
H2_2 C2_2 1_555 1_555
C3_2 C2_2 1_555 1_555
C4_2 C3_2 1_555 1_555
H3_2 C4_2 1_555 1_555
H6_2 C7_2 1_555 1_555
C8_2 C7_2 1_555 1_555
C11_2 C3_2 1_555 1_555
H9_2 C11_2 1_555 1_555
H10_2 C11_2 1_555 1_555
C12_2 C11_2 1_555 1_555
H11_2 C12_2 1_555 1_555
H12_2 C12_2 1_555 1_555
C13_2 C8_2 1_555 1_555
H13_2 C13_2 1_555 1_555
Cu2_2 N6_2 1_555 1_555
H44_2 C41_2 1_555 1_555
C48_2 C47_2 1_555 1_555
H49_2 C48_2 1_555 1_555
C49_2 C48_2 1_555 1_555
H50_2 C49_2 1_555 1_555
H51_2 C50_2 1_555 1_555
C51_2 C50_2 1_555 1_555
H53_2 C51_2 1_555 1_555
H54_2 C51_2 1_555 1_555
C52_2 C47_2 1_555 1_555
H55_2 C52_2 1_555 1_555
H56_2 C52_2 1_555 1_555
N8_2 Cu2_2 1_555 1_555
N10_2 Cu2_2 1_555 1_555
N12_2 Cu2_2 1_555 1_555
O2_2 Cu2_2 1_555 1_555
C12_2 C13_2 1_555 1_555
C51_2 C52_2 1_555 1_555
Cl1_5 Cu2_3 1_555 1_555
H16_2 C15_2 1_555 1_555
C22_2 C21_2 1_555 1_555
H21_2 C22_2 1_555 1_555
C23_2 C22_2 1_555 1_555
H22_2 C23_2 1_555 1_555
H23_2 C24_2 1_555 1_555
C25_2 C24_2 1_555 1_555
H25_2 C25_2 1_555 1_555
H26_2 C25_2 1_555 1_555
C26_2 C21_2 1_555 1_555
H27_2 C26_2 1_555 1_555
H28_2 C26_2 1_555 1_555
Cu2_3 N6_3 1_555 1_555
C28_2 C27_2 1_555 1_555
H30_2 C28_2 1_555 1_555
C29_2 C28_2 1_555 1_555
C30_2 C29_2 1_555 1_555
H31_2 C30_2 1_555 1_555
H34_2 C33_2 1_555 1_555
C34_2 C33_2 1_555 1_555
C37_2 C29_2 1_555 1_555
H37_2 C37_2 1_555 1_555
H38_2 C37_2 1_555 1_555
C38_2 C37_2 1_555 1_555
H39_2 C38_2 1_555 1_555
H40_2 C38_2 1_555 1_555
C39_2 C34_2 1_555 1_555
H41_2 C39_2 1_555 1_555
N8_3 Cu2_3 1_555 1_555
N10_3 Cu2_3 1_555 1_555
N12_3 Cu2_3 1_555 1_555
O2_3 Cu2_3 1_555 1_555
C25_2 C26_2 1_555 1_555
C38_2 C39_2 1_555 1_555
Cu4 Cl1_6 1_555 1_555
C17_2 C16_2 1_555 1_555
H17_2 C17_2 1_555 1_555
C18_2 C17_2 1_555 1_555
H18_2 C18_2 1_555 1_555
C19_2 H19_2 1_555 1_555
C20_2 C19_2 1_555 1_555
H20_2 C20_2 1_555 1_555
N3_2 Cu4 1_555 1_555
N4_2 C19_2 1_555 1_555
O1_3 Cu4 1_555 1_555
Cu3_2 N5_2 1_555 1_555
H32_2 C31_2 1_555 1_555
C32_2 H33_2 1_555 1_555
H35_2 C35_2 1_555 1_555
C36_2 C35_2 1_555 1_555
H36_2 C36_2 1_555 1_555
N7_2 Cu4 1_555 1_555
C14_2 N3_2 1_555 1_555
C18_2 N3_2 1_555 1_555
C31_2 N5_2 1_555 1_555
C32_2 N7_2 1_555 1_555
C36_2 N7_2 1_555 1_555
Cl1_10 Cu2_4 1_555 1_555
Cu2_4 N6_4 1_555 1_555
N10_4 Cu2_4 1_555 1_555
O2_4 Cu2_4 1_555 1_555
O2_4 H59_2 1_555 1_555
O2_4 H60_2 1_555 1_555
Cu3_2 Cl1_11 1_555 1_555
O1_4 Cu3_2 1_555 1_555
O1_4 H58_2 1_555 1_555
C27_3 H29_3 1_555 1_555
C28_3 C27_3 1_555 1_555
H30_3 C28_3 1_555 1_555
C29_3 C28_3 1_555 1_555
C30_3 C29_3 1_555 1_555
H31_3 C30_3 1_555 1_555
C31_3 C30_3 1_555 1_555
H32_3 C31_3 1_555 1_555
C32_3 H33_3 1_555 1_555
C33_3 C32_3 1_555 1_555
H34_3 C33_3 1_555 1_555
C34_3 C33_3 1_555 1_555
C35_3 C34_3 1_555 1_555
H35_3 C35_3 1_555 1_555
C36_3 C35_3 1_555 1_555
H36_3 C36_3 1_555 1_555
C37_3 C29_3 1_555 1_555
H37_3 C37_3 1_555 1_555
H38_3 C37_3 1_555 1_555
C38_3 C37_3 1_555 1_555
H39_3 C38_3 1_555 1_555
H40_3 C38_3 1_555 1_555
C39_3 C34_3 1_555 1_555
H41_3 C39_3 1_555 1_555
H42_3 C39_3 1_555 1_555
C40_3 H43_3 1_555 1_555
C41_3 C40_3 1_555 1_555
H44_3 C41_3 1_555 1_555
C42_3 C41_3 1_555 1_555
C43_3 C42_3 1_555 1_555
H45_3 C43_3 1_555 1_555
C44_3 C43_3 1_555 1_555
H46_3 C44_3 1_555 1_555
C45_3 H47_3 1_555 1_555
C46_3 C45_3 1_555 1_555
H48_3 C46_3 1_555 1_555
C47_3 C46_3 1_555 1_555
C48_3 C47_3 1_555 1_555
H49_3 C48_3 1_555 1_555
C49_3 C48_3 1_555 1_555
H50_3 C49_3 1_555 1_555
C50_3 C42_3 1_555 1_555
H51_3 C50_3 1_555 1_555
H52_3 C50_3 1_555 1_555
C51_3 C50_3 1_555 1_555
H53_3 C51_3 1_555 1_555
H54_3 C51_3 1_555 1_555
C52_3 C47_3 1_555 1_555
H55_3 C52_3 1_555 1_555
H56_3 C52_3 1_555 1_555
N6_3 C27_3 1_555 1_555
N10_2 C40_3 1_555 1_555
C31_3 N6_3 1_555 1_555
C32_3 N8 1_555 1_555
C36_3 N8 1_555 1_555
C38_3 C39_3 1_555 1_555
C44_3 N10_2 1_555 1_555
C45_3 N12 1_555 1_555
C49_3 N12 1_555 1_555
C51_3 C52_3 1_555 1_555
O1 H59_3 1_555 1_555
C1_3 H1_3 1_555 1_555
C2_3 C1_3 1_555 1_555
H2_3 C2_3 1_555 1_555
C3_3 C2_3 1_555 1_555
C4_3 C3_3 1_555 1_555
H3_3 C4_3 1_555 1_555
C5_3 C4_3 1_555 1_555
H4_3 C5_3 1_555 1_555
C6_3 H5_3 1_555 1_555
C7_3 C6_3 1_555 1_555
H6_3 C7_3 1_555 1_555
C8_3 C7_3 1_555 1_555
C9_3 C8_3 1_555 1_555
H7_3 C9_3 1_555 1_555
C10_3 C9_3 1_555 1_555
H8_3 C10_3 1_555 1_555
C11_3 C3_3 1_555 1_555
H9_3 C11_3 1_555 1_555
H10_3 C11_3 1_555 1_555
C12_3 C11_3 1_555 1_555
H11_3 C12_3 1_555 1_555
H12_3 C12_3 1_555 1_555
C13_3 C8_3 1_555 1_555
H13_3 C13_3 1_555 1_555
H14_3 C13_3 1_555 1_555
C14_3 H15_3 1_555 1_555
C15_3 C14_3 1_555 1_555
H16_3 C15_3 1_555 1_555
C16_3 C15_3 1_555 1_555
C17_3 C16_3 1_555 1_555
H17_3 C17_3 1_555 1_555
C18_3 C17_3 1_555 1_555
H18_3 C18_3 1_555 1_555
C19_3 H19_3 1_555 1_555
C20_3 C19_3 1_555 1_555
H20_3 C20_3 1_555 1_555
C21_3 C20_3 1_555 1_555
C22_3 C21_3 1_555 1_555
H21_3 C22_3 1_555 1_555
C23_3 C22_3 1_555 1_555
H22_3 C23_3 1_555 1_555
C24_3 C16_3 1_555 1_555
H23_3 C24_3 1_555 1_555
H24_3 C24_3 1_555 1_555
C25_3 C24_3 1_555 1_555
H25_3 C25_3 1_555 1_555
H26_3 C25_3 1_555 1_555
C26_3 C21_3 1_555 1_555
H27_3 C26_3 1_555 1_555
H28_3 C26_3 1_555 1_555
N8_2 C6_3 1_555 1_555
N12_3 C19_3 1_555 1_555
C1_3 N6 1_555 1_555
C5_3 N6 1_555 1_555
C10_3 N8_2 1_555 1_555
C12_3 C13_3 1_555 1_555
C14_3 N10 1_555 1_555
C18_3 N10 1_555 1_555
C23_3 N12_3 1_555 1_555
C25_3 C26_3 1_555 1_555
C2_4 C1_4 1_555 1_555
H2_4 C2_4 1_555 1_555
C3_4 C2_4 1_555 1_555
C4_4 C3_4 1_555 1_555
H3_4 C4_4 1_555 1_555
H6_4 C7_4 1_555 1_555
C8_4 C7_4 1_555 1_555
C11_4 C3_4 1_555 1_555
H9_4 C11_4 1_555 1_555
H10_4 C11_4 1_555 1_555
C12_4 C11_4 1_555 1_555
H11_4 C12_4 1_555 1_555
H12_4 C12_4 1_555 1_555
C13_4 C8_4 1_555 1_555
H13_4 C13_4 1_555 1_555
H44_4 C41_4 1_555 1_555
C48_4 C47_4 1_555 1_555
H49_4 C48_4 1_555 1_555
C49_4 C48_4 1_555 1_555
H50_4 C49_4 1_555 1_555
H51_4 C50_4 1_555 1_555
C51_4 C50_4 1_555 1_555
H53_4 C51_4 1_555 1_555
H54_4 C51_4 1_555 1_555
C52_4 C47_4 1_555 1_555
H55_4 C52_4 1_555 1_555
H56_4 C52_4 1_555 1_555
C12_4 C13_4 1_555 1_555
C51_4 C52_4 1_555 1_555
H4_4 C5_4 1_555 1_555
C6_4 H5_4 1_555 1_555
H7_4 C9_4 1_555 1_555
C10_4 C9_4 1_555 1_555
H8_4 C10_4 1_555 1_555
N8_4 C6_4 1_555 1_555
C43_4 C42_4 1_555 1_555
H45_4 C43_4 1_555 1_555
C44_4 C43_4 1_555 1_555
H46_4 C44_4 1_555 1_555
C45_4 H47_4 1_555 1_555
C46_4 C45_4 1_555 1_555
H48_4 C46_4 1_555 1_555
N10_4 C40_4 1_555 1_555
C5_4 N6_2 1_555 1_555
C10_4 N8_4 1_555 1_555
C44_4 N10_4 1_555 1_555
C45_4 N12_2 1_555 1_555
C17_4 C16_4 1_555 1_555
H17_4 C17_4 1_555 1_555
C18_4 C17_4 1_555 1_555
H18_4 C18_4 1_555 1_555
C19_4 H19_4 1_555 1_555
C20_4 C19_4 1_555 1_555
H20_4 C20_4 1_555 1_555
N12_4 C19_4 1_555 1_555
H32_4 C31_4 1_555 1_555
C32_4 H33_4 1_555 1_555
H35_4 C35_4 1_555 1_555
C36_4 C35_4 1_555 1_555
H36_4 C36_4 1_555 1_555
C14_4 N10_3 1_555 1_555
C18_4 N10_3 1_555 1_555
C31_4 N6_4 1_555 1_555
C32_4 N8_3 1_555 1_555
C36_4 N8_3 1_555 1_555
H16_4 C15_4 1_555 1_555
C22_4 C21_4 1_555 1_555
H21_4 C22_4 1_555 1_555
C23_4 C22_4 1_555 1_555
H22_4 C23_4 1_555 1_555
H23_4 C24_4 1_555 1_555
C25_4 C24_4 1_555 1_555
H25_4 C25_4 1_555 1_555
H26_4 C25_4 1_555 1_555
C26_4 C21_4 1_555 1_555
H27_4 C26_4 1_555 1_555
H28_4 C26_4 1_555 1_555
C28_4 C27_4 1_555 1_555
H30_4 C28_4 1_555 1_555
C29_4 C28_4 1_555 1_555
C30_4 C29_4 1_555 1_555
H31_4 C30_4 1_555 1_555
H34_4 C33_4 1_555 1_555
C34_4 C33_4 1_555 1_555
C37_4 C29_4 1_555 1_555
H37_4 C37_4 1_555 1_555
H38_4 C37_4 1_555 1_555
C38_4 C37_4 1_555 1_555
H39_4 C38_4 1_555 1_555
H40_4 C38_4 1_555 1_555
C39_4 C34_4 1_555 1_555
H41_4 C39_4 1_555 1_555
C25_4 C26_4 1_555 1_555
C38_4 C39_4 1_555 1_555
O1_4 H59_4 1_555 1_555

#END
