
###############################################################################
#
# This file contains modified crystal structure data generated from the
# MOF subset of the Cambridge Structural Database (CSD) v543 
# hosted by the Cambridge Crystallographic Data Centre (CCDC).
#
# This work is licensed under the Creative Commons
# Attribution-NonCommercial-ShareAlike 4.0 International License.
# To view a copy of this license, visit
# http://creativecommons.org/licenses/by-nc-sa/4.0/
# or send a letter to
# Creative Commons, PO Box 1866, Mountain View, CA 94042, USA.
#
# CIF created using the CSD Python API on 29 September 2022
# The structure has been converted into the P1 space group
# The structure has a 3D framework
# The original CSD entry PIZJAJ is in the orthorhombic crystal system
# The framework has been calculated to contain at least 10.0% void space
# The void calculation uses a probe of radius 1.32A, grid spacing 0.4
# The framework is charged, counterions have been retained in the structure
# H atom positions have been added when not included in the experimental data
#
###############################################################################

data_PIZJAJ
_chemical_formula_moiety         '(C384 H192 Cu20 N72 12+)n'
_symmetry_cell_setting           triclinic
_symmetry_space_group_name_H-M   'P 1'
_symmetry_Int_Tables_number      1
_space_group_name_Hall           'P 1'
loop_
_symmetry_equiv_pos_site_id
_symmetry_equiv_pos_as_xyz
1 x,y,z
_cell_length_a                   23.69(1)
_cell_length_b                   27.26(2)
_cell_length_c                   32.76(1)
_cell_angle_alpha                90
_cell_angle_beta                 90
_cell_angle_gamma                90
_cell_volume                     21156.1
loop_
_atom_site_label
_atom_site_type_symbol
_atom_site_fract_x
_atom_site_fract_y
_atom_site_fract_z
Cu1 Cu 0.1185(6) 0.5000 0.2500
Cu2 Cu 0.3522(7) 0.2436(5) 0.5000
N1 N 0.360(3) 0.248(3) 0.437(1)
N2 N 0.405(4) 0.188(3) 0.5000
N3 N 0.298(4) 0.294(3) 0.5000
N4 N 0.159(2) 0.457(2) 0.287(2)
N5 N 0.569(3) 0.039(3) 0.284(2)
C1 C 0.464(5) 0.114(3) 0.4782(3)
C2 C 0.429(3) 0.163(3) 0.467(2)
C3 C 0.420(2) 0.176(2) 0.429(2)
C4 C 0.390(3) 0.214(2) 0.414(2)
C5 C 0.395(3) 0.243(2) 0.371(1)
C6 C 0.353(3) 0.281(2) 0.372(1)
C7 C 0.323(3) 0.280(2) 0.416(2)
C8 C 0.284(3) 0.313(2) 0.426(2)
C9 C 0.279(3) 0.320(2) 0.466(2)
C10 C 0.229(3) 0.357(2) 0.4782(3)
C11 C 0.266(3) 0.346(2) 0.392(1)
C12 C 0.269(2) 0.397(2) 0.396(1)
C13 C 0.240(2) 0.427(2) 0.368(1)
C14 C 0.209(2) 0.406(2) 0.337(1)
C15 C 0.206(2) 0.355(2) 0.333(1)
C16 C 0.234(2) 0.325(2) 0.361(1)
C17 C 0.192(2) 0.440(3) 0.304(2)
C18 C 0.455(2) 0.151(2) 0.396(1)
C19 C 0.428(2) 0.110(2) 0.381(1)
C20 C 0.455(2) 0.080(2) 0.352(1)
C21 C 0.509(2) 0.093(2) 0.338(1)
C22 C 0.536(2) 0.134(2) 0.353(1)
C23 C 0.509(2) 0.164(2) 0.382(1)
C24 C 0.551(4) 0.064(2) 0.306(2)
C25 C 0.429(3) 0.163(3) 0.533(2)
C26 C 0.464(5) 0.114(3) 0.5218(3)
C27 C 0.420(2) 0.176(2) 0.571(2)
C28 C 0.390(3) 0.214(2) 0.586(2)
N6 N 0.360(3) 0.248(3) 0.563(1)
C29 C 0.323(3) 0.280(2) 0.584(2)
C30 C 0.353(3) 0.281(2) 0.628(1)
C31 C 0.395(3) 0.243(2) 0.629(1)
C32 C 0.284(3) 0.313(2) 0.574(2)
C33 C 0.279(3) 0.320(2) 0.534(2)
C34 C 0.229(3) 0.357(2) 0.5218(3)
C35 C 0.266(3) 0.346(2) 0.608(1)
C36 C 0.269(2) 0.397(2) 0.604(1)
C37 C 0.240(2) 0.427(2) 0.632(1)
C38 C 0.209(2) 0.406(2) 0.663(1)
C39 C 0.206(2) 0.355(2) 0.667(1)
C40 C 0.234(2) 0.325(2) 0.639(1)
C41 C 0.192(2) 0.440(3) 0.696(2)
N7 N 0.159(2) 0.457(2) 0.713(2)
C42 C 0.455(2) 0.151(2) 0.604(1)
C43 C 0.428(2) 0.110(2) 0.619(1)
C44 C 0.455(2) 0.080(2) 0.648(1)
C45 C 0.509(2) 0.093(2) 0.662(1)
C46 C 0.536(2) 0.134(2) 0.647(1)
C47 C 0.509(2) 0.164(2) 0.618(1)
C48 C 0.551(4) 0.064(2) 0.694(2)
N8 N 0.569(3) 0.039(3) 0.716(2)
N9 N 0.159(2) 0.543(2) 0.213(2)
N10 N 0.069(3) 0.539(3) 0.284(2)
N11 N 0.069(3) 0.461(3) 0.216(2)
Cu3 Cu 0.6185(6) -0.0000 0.2500
Cu4 Cu 0.1185(6) 0.5000 0.7500
Cu5 Cu 0.6185(6) -0.0000 0.7500
H1 H 0.529728 0.196897 0.606553
H2 H 0.578267 0.143188 0.3424
H3 H 0.230783 0.285257 0.358564
H4 H 0.385733 0.100812 0.3916
H5 H 0.434272 0.0471033 0.659447
H6 H 0.181911 0.338729 0.691865
H7 H 0.482991 0.0874122 0.542462
H8 H 0.293565 0.413381 0.42057
H9 H 0.293565 0.413381 0.57943
H10 H 0.201344 0.377466 0.457828
H11 H 0.242068 0.466762 0.629159
H12 H 0.230783 0.285257 0.641436
H13 H 0.242068 0.466762 0.370841
H14 H 0.434272 0.0471033 0.340553
H15 H 0.201344 0.377466 0.542172
H16 H 0.34317 0.306177 0.347189
H17 H 0.42436 0.235238 0.346251
H18 H 0.529728 0.196897 0.393447
H19 H 0.34317 0.306177 0.652811
H20 H 0.42436 0.235238 0.653749
H21 H 0.181911 0.338729 0.308135
H22 H 0.482991 0.0874122 0.457538
H23 H 0.385733 0.100812 0.6084
H24 H 0.578267 0.143188 0.6576
Cu3_2 Cu 0.6185(6) 1.0000 0.2500
Cu5_2 Cu 0.6185(6) 1.0000 0.7500
C21_2 C 0.009(2) 0.593(2) 0.338(1)
C22_2 C 0.036(2) 0.634(2) 0.353(1)
C23_2 C 0.009(2) 0.664(2) 0.382(1)
C24_2 C 0.051(4) 0.564(2) 0.306(2)
C45_2 C 0.009(2) 0.593(2) 0.662(1)
C46_2 C 0.036(2) 0.634(2) 0.647(1)
C47_2 C 0.009(2) 0.664(2) 0.618(1)
C48_2 C 0.051(4) 0.564(2) 0.694(2)
N8_2 N 0.069(3) 0.539(3) 0.716(2)
H1_2 H 0.0297276 0.696897 0.606553
H2_2 H 0.0782669 0.643188 0.3424
H18_2 H 0.0297276 0.696897 0.393447
H24_2 H 0.0782669 0.643188 0.6576
N9_2 N 0.659(2) 0.043(2) 0.213(2)
Cu2_2 Cu 0.8522(7) 0.7436(5) 0.5000
N1_2 N 0.860(3) 0.748(3) 0.437(1)
N2_2 N 0.905(4) 0.688(3) 0.5000
N3_2 N 0.798(4) 0.794(3) 0.5000
N4_2 N 0.659(2) 0.957(2) 0.287(2)
C1_2 C 0.964(5) 0.614(3) 0.4782(3)
C2_2 C 0.929(3) 0.663(3) 0.467(2)
C3_2 C 0.920(2) 0.676(2) 0.429(2)
C4_2 C 0.890(3) 0.714(2) 0.414(2)
C5_2 C 0.895(3) 0.743(2) 0.371(1)
C6_2 C 0.853(3) 0.781(2) 0.372(1)
C7_2 C 0.823(3) 0.780(2) 0.416(2)
C8_2 C 0.784(3) 0.813(2) 0.426(2)
C9_2 C 0.779(3) 0.820(2) 0.466(2)
C10_2 C 0.729(3) 0.857(2) 0.4782(3)
C11_2 C 0.766(3) 0.846(2) 0.392(1)
C12_2 C 0.769(2) 0.897(2) 0.396(1)
C13_2 C 0.740(2) 0.927(2) 0.368(1)
C14_2 C 0.709(2) 0.906(2) 0.337(1)
C15_2 C 0.706(2) 0.855(2) 0.333(1)
C16_2 C 0.734(2) 0.825(2) 0.361(1)
C17_2 C 0.692(2) 0.940(3) 0.304(2)
C18_2 C 0.955(2) 0.651(2) 0.396(1)
C19_2 C 0.928(2) 0.610(2) 0.381(1)
C20_2 C 0.955(2) 0.580(2) 0.352(1)
C25_2 C 0.929(3) 0.663(3) 0.533(2)
C26_2 C 0.964(5) 0.614(3) 0.5218(3)
C27_2 C 0.920(2) 0.676(2) 0.571(2)
C28_2 C 0.890(3) 0.714(2) 0.586(2)
N6_2 N 0.860(3) 0.748(3) 0.563(1)
C29_2 C 0.823(3) 0.780(2) 0.584(2)
C30_2 C 0.853(3) 0.781(2) 0.628(1)
C31_2 C 0.895(3) 0.743(2) 0.629(1)
C32_2 C 0.784(3) 0.813(2) 0.574(2)
C33_2 C 0.779(3) 0.820(2) 0.534(2)
C34_2 C 0.729(3) 0.857(2) 0.5218(3)
C35_2 C 0.766(3) 0.846(2) 0.608(1)
C36_2 C 0.769(2) 0.897(2) 0.604(1)
C37_2 C 0.740(2) 0.927(2) 0.632(1)
C38_2 C 0.709(2) 0.906(2) 0.663(1)
C39_2 C 0.706(2) 0.855(2) 0.667(1)
C40_2 C 0.734(2) 0.825(2) 0.639(1)
C41_2 C 0.692(2) 0.940(3) 0.696(2)
N7_2 N 0.659(2) 0.957(2) 0.713(2)
C42_2 C 0.955(2) 0.651(2) 0.604(1)
C43_2 C 0.928(2) 0.610(2) 0.619(1)
C44_2 C 0.955(2) 0.580(2) 0.648(1)
N11_2 N 0.569(3) 0.961(3) 0.216(2)
H3_2 H 0.730783 0.785257 0.358564
H4_2 H 0.885733 0.600812 0.3916
H5_2 H 0.934272 0.547103 0.659447
H6_2 H 0.681911 0.838729 0.691865
H7_2 H 0.982991 0.587412 0.542462
H8_2 H 0.793565 0.913381 0.42057
H9_2 H 0.793565 0.913381 0.57943
H10_2 H 0.701344 0.877466 0.457828
H11_2 H 0.742068 0.966762 0.629159
H12_2 H 0.730783 0.785257 0.641436
H13_2 H 0.742068 0.966762 0.370841
H14_2 H 0.934272 0.547103 0.340553
H15_2 H 0.701344 0.877466 0.542172
H16_2 H 0.84317 0.806177 0.347189
H17_2 H 0.92436 0.735238 0.346251
H19_2 H 0.84317 0.806177 0.652811
H20_2 H 0.92436 0.735238 0.653749
H21_2 H 0.681911 0.838729 0.308135
H22_2 H 0.982991 0.587412 0.457538
H23_2 H 0.885733 0.600812 0.6084
Cu2_3 Cu 0.3522(7) 0.7564(5) 0.0000
N2_3 N 0.405(4) 0.812(3) 0.0000
N3_3 N 0.298(4) 0.706(3) 0.0000
C25_3 C 0.429(3) 0.837(3) 0.033(2)
C26_3 C 0.464(5) 0.886(3) 0.0218(3)
C27_3 C 0.420(2) 0.824(2) 0.071(2)
C28_3 C 0.390(3) 0.786(2) 0.086(2)
N6_3 N 0.360(3) 0.752(3) 0.063(1)
C29_3 C 0.323(3) 0.720(2) 0.084(2)
C30_3 C 0.353(3) 0.719(2) 0.128(1)
C31_3 C 0.395(3) 0.757(2) 0.129(1)
C32_3 C 0.284(3) 0.687(2) 0.074(2)
C33_3 C 0.279(3) 0.680(2) 0.034(2)
C34_3 C 0.229(3) 0.643(2) 0.0218(3)
C35_3 C 0.266(3) 0.654(2) 0.108(1)
C36_3 C 0.269(2) 0.603(2) 0.104(1)
C37_3 C 0.240(2) 0.573(2) 0.132(1)
C38_3 C 0.209(2) 0.594(2) 0.163(1)
C39_3 C 0.206(2) 0.645(2) 0.167(1)
C40_3 C 0.234(2) 0.675(2) 0.139(1)
C41_3 C 0.192(2) 0.560(3) 0.196(2)
C42_3 C 0.455(2) 0.849(2) 0.104(1)
C43_3 C 0.428(2) 0.890(2) 0.119(1)
C44_3 C 0.455(2) 0.920(2) 0.148(1)
C45_3 C 0.509(2) 0.907(2) 0.162(1)
C46_3 C 0.536(2) 0.866(2) 0.147(1)
C47_3 C 0.509(2) 0.836(2) 0.118(1)
C48_3 C 0.551(4) 0.936(2) 0.194(2)
H1_3 H 0.529728 0.803103 0.106553
H5_3 H 0.434272 0.952897 0.159447
H6_3 H 0.181911 0.661271 0.191865
H7_3 H 0.482991 0.912588 0.0424625
H9_3 H 0.293565 0.586619 0.0794301
H11_3 H 0.242068 0.533238 0.129159
H12_3 H 0.230783 0.714743 0.141436
H15_3 H 0.201344 0.622534 0.0421723
H19_3 H 0.34317 0.693823 0.152811
H20_3 H 0.42436 0.764762 0.153749
H23_3 H 0.385733 0.899188 0.1084
H24_3 H 0.578267 0.856812 0.1576
Cu2_4 Cu 0.3522(7) 0.7564(5) 1.0000
N1_3 N 0.360(3) 0.752(3) 0.937(1)
N2_4 N 0.405(4) 0.812(3) 1.0000
N3_4 N 0.298(4) 0.706(3) 1.0000
N4_3 N 0.159(2) 0.543(2) 0.787(2)
N5_2 N 0.569(3) 0.961(3) 0.784(2)
C1_3 C 0.464(5) 0.886(3) 0.9782(3)
C2_3 C 0.429(3) 0.837(3) 0.967(2)
C3_3 C 0.420(2) 0.824(2) 0.929(2)
C4_3 C 0.390(3) 0.786(2) 0.914(2)
C5_3 C 0.395(3) 0.757(2) 0.871(1)
C6_3 C 0.353(3) 0.719(2) 0.872(1)
C7_3 C 0.323(3) 0.720(2) 0.916(2)
C8_3 C 0.284(3) 0.687(2) 0.926(2)
C9_3 C 0.279(3) 0.680(2) 0.966(2)
C10_3 C 0.229(3) 0.643(2) 0.9782(3)
C11_3 C 0.266(3) 0.654(2) 0.892(1)
C12_3 C 0.269(2) 0.603(2) 0.896(1)
C13_3 C 0.240(2) 0.573(2) 0.868(1)
C14_3 C 0.209(2) 0.594(2) 0.837(1)
C15_3 C 0.206(2) 0.645(2) 0.833(1)
C16_3 C 0.234(2) 0.675(2) 0.861(1)
C17_3 C 0.192(2) 0.560(3) 0.804(2)
C18_3 C 0.455(2) 0.849(2) 0.896(1)
C19_3 C 0.428(2) 0.890(2) 0.881(1)
C20_3 C 0.455(2) 0.920(2) 0.852(1)
C21_3 C 0.509(2) 0.907(2) 0.838(1)
C22_3 C 0.536(2) 0.866(2) 0.853(1)
C23_3 C 0.509(2) 0.836(2) 0.882(1)
C24_3 C 0.551(4) 0.936(2) 0.806(2)
N10_2 N 0.069(3) 0.461(3) 0.784(2)
H2_3 H 0.578267 0.856812 0.8424
H3_3 H 0.230783 0.714743 0.858564
H4_3 H 0.385733 0.899188 0.8916
H8_3 H 0.293565 0.586619 0.92057
H10_3 H 0.201344 0.622534 0.957828
H13_3 H 0.242068 0.533238 0.870841
H14_3 H 0.434272 0.952897 0.840553
H16_3 H 0.34317 0.693823 0.847189
H17_3 H 0.42436 0.764762 0.846251
H18_3 H 0.529728 0.803103 0.893447
H21_3 H 0.181911 0.661271 0.808135
H22_3 H 0.482991 0.912588 0.957538
C45_4 C 0.009(2) 0.407(2) 0.162(1)
C46_4 C 0.036(2) 0.366(2) 0.147(1)
C47_4 C 0.009(2) 0.336(2) 0.118(1)
C48_4 C 0.051(4) 0.436(2) 0.194(2)
H1_4 H 0.0297276 0.303103 0.106553
H24_4 H 0.0782669 0.356812 0.1576
C21_4 C 0.009(2) 0.407(2) 0.838(1)
C22_4 C 0.036(2) 0.366(2) 0.853(1)
C23_4 C 0.009(2) 0.336(2) 0.882(1)
C24_4 C 0.051(4) 0.436(2) 0.806(2)
H2_4 H 0.0782669 0.356812 0.8424
H18_4 H 0.0297276 0.303103 0.893447
Cu2_5 Cu 0.8522(7) 0.2564(5) 0.0000
N2_5 N 0.905(4) 0.312(3) 0.0000
N3_5 N 0.798(4) 0.206(3) 0.0000
C25_4 C 0.929(3) 0.337(3) 0.033(2)
C26_4 C 0.964(5) 0.386(3) 0.0218(3)
C27_4 C 0.920(2) 0.324(2) 0.071(2)
C28_4 C 0.890(3) 0.286(2) 0.086(2)
N6_4 N 0.860(3) 0.252(3) 0.063(1)
C29_4 C 0.823(3) 0.220(2) 0.084(2)
C30_4 C 0.853(3) 0.219(2) 0.128(1)
C31_4 C 0.895(3) 0.257(2) 0.129(1)
C32_4 C 0.784(3) 0.187(2) 0.074(2)
C33_4 C 0.779(3) 0.180(2) 0.034(2)
C34_4 C 0.729(3) 0.143(2) 0.0218(3)
C35_4 C 0.766(3) 0.154(2) 0.108(1)
C36_4 C 0.769(2) 0.103(2) 0.104(1)
C37_4 C 0.740(2) 0.073(2) 0.132(1)
C38_4 C 0.709(2) 0.094(2) 0.163(1)
C39_4 C 0.706(2) 0.145(2) 0.167(1)
C40_4 C 0.734(2) 0.175(2) 0.139(1)
C41_4 C 0.692(2) 0.060(3) 0.196(2)
C42_4 C 0.955(2) 0.349(2) 0.104(1)
C43_4 C 0.928(2) 0.390(2) 0.119(1)
C44_4 C 0.955(2) 0.420(2) 0.148(1)
H5_4 H 0.934272 0.452897 0.159447
H6_4 H 0.681911 0.161271 0.191865
H7_4 H 0.982991 0.412588 0.0424625
H9_4 H 0.793565 0.0866194 0.0794301
H11_4 H 0.742068 0.0332381 0.129159
H12_4 H 0.730783 0.214743 0.141436
H15_4 H 0.701344 0.122534 0.0421723
H19_4 H 0.84317 0.193823 0.152811
H20_4 H 0.92436 0.264762 0.153749
H23_4 H 0.885733 0.399188 0.1084
Cu2_6 Cu 0.8522(7) 0.2564(5) 1.0000
N1_4 N 0.860(3) 0.252(3) 0.937(1)
N2_6 N 0.905(4) 0.312(3) 1.0000
N3_6 N 0.798(4) 0.206(3) 1.0000
N4_4 N 0.659(2) 0.043(2) 0.787(2)
C1_4 C 0.964(5) 0.386(3) 0.9782(3)
C2_4 C 0.929(3) 0.337(3) 0.967(2)
C3_4 C 0.920(2) 0.324(2) 0.929(2)
C4_4 C 0.890(3) 0.286(2) 0.914(2)
C5_4 C 0.895(3) 0.257(2) 0.871(1)
C6_4 C 0.853(3) 0.219(2) 0.872(1)
C7_4 C 0.823(3) 0.220(2) 0.916(2)
C8_4 C 0.784(3) 0.187(2) 0.926(2)
C9_4 C 0.779(3) 0.180(2) 0.966(2)
C10_4 C 0.729(3) 0.143(2) 0.9782(3)
C11_4 C 0.766(3) 0.154(2) 0.892(1)
C12_4 C 0.769(2) 0.103(2) 0.896(1)
C13_4 C 0.740(2) 0.073(2) 0.868(1)
C14_4 C 0.709(2) 0.094(2) 0.837(1)
C15_4 C 0.706(2) 0.145(2) 0.833(1)
C16_4 C 0.734(2) 0.175(2) 0.861(1)
C17_4 C 0.692(2) 0.060(3) 0.804(2)
C18_4 C 0.955(2) 0.349(2) 0.896(1)
C19_4 C 0.928(2) 0.390(2) 0.881(1)
C20_4 C 0.955(2) 0.420(2) 0.852(1)
H3_4 H 0.730783 0.214743 0.858564
H4_4 H 0.885733 0.399188 0.8916
H8_4 H 0.793565 0.0866194 0.92057
H10_4 H 0.701344 0.122534 0.957828
H13_4 H 0.742068 0.0332381 0.870841
H14_4 H 0.934272 0.452897 0.840553
H16_4 H 0.84317 0.193823 0.847189
H17_4 H 0.92436 0.264762 0.846251
H21_4 H 0.681911 0.161271 0.808135
H22_4 H 0.982991 0.412588 0.957538
Cu2_7 Cu 0.6478(7) 0.2436(5) 0.0000
N2_7 N 0.595(4) 0.188(3) 0.0000
N3_7 N 0.702(4) 0.294(3) 0.0000
C25_5 C 0.571(3) 0.163(3) 0.033(2)
C26_5 C 0.536(5) 0.114(3) 0.0218(3)
C27_5 C 0.580(2) 0.176(2) 0.071(2)
C28_5 C 0.610(3) 0.214(2) 0.086(2)
N6_5 N 0.640(3) 0.248(3) 0.063(1)
C29_5 C 0.677(3) 0.280(2) 0.084(2)
C30_5 C 0.647(3) 0.281(2) 0.128(1)
C31_5 C 0.605(3) 0.243(2) 0.129(1)
C32_5 C 0.716(3) 0.313(2) 0.074(2)
C33_5 C 0.721(3) 0.320(2) 0.034(2)
C34_5 C 0.771(3) 0.357(2) 0.0218(3)
C35_5 C 0.734(3) 0.346(2) 0.108(1)
C36_5 C 0.731(2) 0.397(2) 0.104(1)
C37_5 C 0.760(2) 0.427(2) 0.132(1)
C38_5 C 0.791(2) 0.406(2) 0.163(1)
C39_5 C 0.794(2) 0.355(2) 0.167(1)
C40_5 C 0.766(2) 0.325(2) 0.139(1)
C41_5 C 0.808(2) 0.440(3) 0.196(2)
N7_3 N 0.841(2) 0.457(2) 0.213(2)
C42_5 C 0.545(2) 0.151(2) 0.104(1)
C43_5 C 0.572(2) 0.110(2) 0.119(1)
C44_5 C 0.545(2) 0.080(2) 0.148(1)
C45_5 C 0.491(2) 0.093(2) 0.162(1)
C46_5 C 0.464(2) 0.134(2) 0.147(1)
C47_5 C 0.491(2) 0.164(2) 0.118(1)
C48_5 C 0.449(4) 0.064(2) 0.194(2)
N8_3 N 0.431(3) 0.039(3) 0.216(2)
Cu4_2 Cu 0.8815(6) 0.5000 0.2500
Cu5_3 Cu 0.3815(6) -0.0000 0.2500
H1_5 H 0.470272 0.196897 0.106553
H5_5 H 0.565728 0.0471033 0.159447
H6_5 H 0.818089 0.338729 0.191865
H7_5 H 0.517009 0.0874122 0.0424625
H9_5 H 0.706435 0.413381 0.0794301
H11_5 H 0.757932 0.466762 0.129159
H12_5 H 0.769217 0.285257 0.141436
H15_5 H 0.798656 0.377466 0.0421723
H19_5 H 0.65683 0.306177 0.152811
H20_5 H 0.57564 0.235238 0.153749
H23_5 H 0.614267 0.100812 0.1084
H24_5 H 0.421733 0.143188 0.1576
Cu1_2 Cu 0.8815(6) 0.5000 0.7500
Cu2_8 Cu 0.6478(7) 0.2436(5) 1.0000
N1_5 N 0.640(3) 0.248(3) 0.937(1)
N2_8 N 0.595(4) 0.188(3) 1.0000
N3_8 N 0.702(4) 0.294(3) 1.0000
N4_5 N 0.841(2) 0.457(2) 0.787(2)
N5_3 N 0.431(3) 0.039(3) 0.784(2)
C1_5 C 0.536(5) 0.114(3) 0.9782(3)
C2_5 C 0.571(3) 0.163(3) 0.967(2)
C3_5 C 0.580(2) 0.176(2) 0.929(2)
C4_5 C 0.610(3) 0.214(2) 0.914(2)
C5_5 C 0.605(3) 0.243(2) 0.871(1)
C6_5 C 0.647(3) 0.281(2) 0.872(1)
C7_5 C 0.677(3) 0.280(2) 0.916(2)
C8_5 C 0.716(3) 0.313(2) 0.926(2)
C9_5 C 0.721(3) 0.320(2) 0.966(2)
C10_5 C 0.771(3) 0.357(2) 0.9782(3)
C11_5 C 0.734(3) 0.346(2) 0.892(1)
C12_5 C 0.731(2) 0.397(2) 0.896(1)
C13_5 C 0.760(2) 0.427(2) 0.868(1)
C14_5 C 0.791(2) 0.406(2) 0.837(1)
C15_5 C 0.794(2) 0.355(2) 0.833(1)
C16_5 C 0.766(2) 0.325(2) 0.861(1)
C17_5 C 0.808(2) 0.440(3) 0.804(2)
C18_5 C 0.545(2) 0.151(2) 0.896(1)
C19_5 C 0.572(2) 0.110(2) 0.881(1)
C20_5 C 0.545(2) 0.080(2) 0.852(1)
C21_5 C 0.491(2) 0.093(2) 0.838(1)
C22_5 C 0.464(2) 0.134(2) 0.853(1)
C23_5 C 0.491(2) 0.164(2) 0.882(1)
C24_5 C 0.449(4) 0.064(2) 0.806(2)
N9_3 N 0.841(2) 0.543(2) 0.713(2)
N10_3 N 0.931(3) 0.539(3) 0.784(2)
N11_3 N 0.931(3) 0.461(3) 0.716(2)
Cu3_3 Cu 0.3815(6) -0.0000 0.7500
H2_5 H 0.421733 0.143188 0.8424
H3_5 H 0.769217 0.285257 0.858564
H4_5 H 0.614267 0.100812 0.8916
H8_5 H 0.706435 0.413381 0.92057
H10_5 H 0.798656 0.377466 0.957828
H13_5 H 0.757932 0.466762 0.870841
H14_5 H 0.565728 0.0471033 0.840553
H16_5 H 0.65683 0.306177 0.847189
H17_5 H 0.57564 0.235238 0.846251
H18_5 H 0.470272 0.196897 0.893447
H21_5 H 0.818089 0.338729 0.808135
H22_5 H 0.517009 0.0874122 0.957538
Cu5_4 Cu 0.3815(6) 1.0000 0.2500
Cu3_4 Cu 0.3815(6) 1.0000 0.7500
N9_4 N 0.341(2) 0.043(2) 0.713(2)
Cu2_9 Cu 0.1478(7) 0.7436(5) 0.0000
N2_9 N 0.095(4) 0.688(3) 0.0000
N3_9 N 0.202(4) 0.794(3) 0.0000
C25_6 C 0.071(3) 0.663(3) 0.033(2)
C26_6 C 0.036(5) 0.614(3) 0.0218(3)
C27_6 C 0.080(2) 0.676(2) 0.071(2)
C28_6 C 0.110(3) 0.714(2) 0.086(2)
N6_6 N 0.140(3) 0.748(3) 0.063(1)
C29_6 C 0.177(3) 0.780(2) 0.084(2)
C30_6 C 0.147(3) 0.781(2) 0.128(1)
C31_6 C 0.105(3) 0.743(2) 0.129(1)
C32_6 C 0.216(3) 0.813(2) 0.074(2)
C33_6 C 0.221(3) 0.820(2) 0.034(2)
C34_6 C 0.271(3) 0.857(2) 0.0218(3)
C35_6 C 0.234(3) 0.846(2) 0.108(1)
C36_6 C 0.231(2) 0.897(2) 0.104(1)
C37_6 C 0.260(2) 0.927(2) 0.132(1)
C38_6 C 0.291(2) 0.906(2) 0.163(1)
C39_6 C 0.294(2) 0.855(2) 0.167(1)
C40_6 C 0.266(2) 0.825(2) 0.139(1)
C41_6 C 0.308(2) 0.940(3) 0.196(2)
N7_4 N 0.341(2) 0.957(2) 0.213(2)
C42_6 C 0.045(2) 0.651(2) 0.104(1)
C43_6 C 0.072(2) 0.610(2) 0.119(1)
C44_6 C 0.045(2) 0.580(2) 0.148(1)
H5_6 H 0.0657276 0.547103 0.159447
H6_6 H 0.318089 0.838729 0.191865
H7_6 H 0.0170087 0.587412 0.0424625
H9_6 H 0.206435 0.913381 0.0794301
H11_6 H 0.257932 0.966762 0.129159
H12_6 H 0.269217 0.785257 0.141436
H15_6 H 0.298656 0.877466 0.0421723
H19_6 H 0.15683 0.806177 0.152811
H20_6 H 0.0756397 0.735238 0.153749
H23_6 H 0.114267 0.600812 0.1084
Cu2_10 Cu 0.1478(7) 0.7436(5) 1.0000
N1_6 N 0.140(3) 0.748(3) 0.937(1)
N2_10 N 0.095(4) 0.688(3) 1.0000
N3_10 N 0.202(4) 0.794(3) 1.0000
N4_6 N 0.341(2) 0.957(2) 0.787(2)
C1_6 C 0.036(5) 0.614(3) 0.9782(3)
C2_6 C 0.071(3) 0.663(3) 0.967(2)
C3_6 C 0.080(2) 0.676(2) 0.929(2)
C4_6 C 0.110(3) 0.714(2) 0.914(2)
C5_6 C 0.105(3) 0.743(2) 0.871(1)
C6_6 C 0.147(3) 0.781(2) 0.872(1)
C7_6 C 0.177(3) 0.780(2) 0.916(2)
C8_6 C 0.216(3) 0.813(2) 0.926(2)
C9_6 C 0.221(3) 0.820(2) 0.966(2)
C10_6 C 0.271(3) 0.857(2) 0.9782(3)
C11_6 C 0.234(3) 0.846(2) 0.892(1)
C12_6 C 0.231(2) 0.897(2) 0.896(1)
C13_6 C 0.260(2) 0.927(2) 0.868(1)
C14_6 C 0.291(2) 0.906(2) 0.837(1)
C15_6 C 0.294(2) 0.855(2) 0.833(1)
C16_6 C 0.266(2) 0.825(2) 0.861(1)
C17_6 C 0.308(2) 0.940(3) 0.804(2)
C18_6 C 0.045(2) 0.651(2) 0.896(1)
C19_6 C 0.072(2) 0.610(2) 0.881(1)
C20_6 C 0.045(2) 0.580(2) 0.852(1)
N11_4 N 0.431(3) 0.961(3) 0.716(2)
H3_6 H 0.269217 0.785257 0.858564
H4_6 H 0.114267 0.600812 0.8916
H8_6 H 0.206435 0.913381 0.92057
H10_6 H 0.298656 0.877466 0.957828
H13_6 H 0.257932 0.966762 0.870841
H14_6 H 0.0657276 0.547103 0.840553
H16_6 H 0.15683 0.806177 0.847189
H17_6 H 0.0756397 0.735238 0.846251
H21_6 H 0.318089 0.838729 0.808135
H22_6 H 0.0170087 0.587412 0.957538
C45_6 C 0.991(2) 0.593(2) 0.162(1)
C46_6 C 0.964(2) 0.634(2) 0.147(1)
C47_6 C 0.991(2) 0.664(2) 0.118(1)
C48_6 C 0.949(4) 0.564(2) 0.194(2)
N8_4 N 0.931(3) 0.539(3) 0.216(2)
H1_6 H 0.970272 0.696897 0.106553
H24_6 H 0.921733 0.643188 0.1576
C21_6 C 0.991(2) 0.593(2) 0.838(1)
C22_6 C 0.964(2) 0.634(2) 0.853(1)
C23_6 C 0.991(2) 0.664(2) 0.882(1)
C24_6 C 0.949(4) 0.564(2) 0.806(2)
H2_6 H 0.921733 0.643188 0.8424
H18_6 H 0.970272 0.696897 0.893447
Cu2_11 Cu 0.6478(7) 0.7564(5) 0.5000
N1_7 N 0.640(3) 0.752(3) 0.437(1)
N2_11 N 0.595(4) 0.812(3) 0.5000
N3_11 N 0.702(4) 0.706(3) 0.5000
N4_7 N 0.841(2) 0.543(2) 0.287(2)
N5_4 N 0.431(3) 0.961(3) 0.284(2)
C1_7 C 0.536(5) 0.886(3) 0.4782(3)
C2_7 C 0.571(3) 0.837(3) 0.467(2)
C3_7 C 0.580(2) 0.824(2) 0.429(2)
C4_7 C 0.610(3) 0.786(2) 0.414(2)
C5_7 C 0.605(3) 0.757(2) 0.371(1)
C6_7 C 0.647(3) 0.719(2) 0.372(1)
C7_7 C 0.677(3) 0.720(2) 0.416(2)
C8_7 C 0.716(3) 0.687(2) 0.426(2)
C9_7 C 0.721(3) 0.680(2) 0.466(2)
C10_7 C 0.771(3) 0.643(2) 0.4782(3)
C11_7 C 0.734(3) 0.654(2) 0.392(1)
C12_7 C 0.731(2) 0.603(2) 0.396(1)
C13_7 C 0.760(2) 0.573(2) 0.368(1)
C14_7 C 0.791(2) 0.594(2) 0.337(1)
C15_7 C 0.794(2) 0.645(2) 0.333(1)
C16_7 C 0.766(2) 0.675(2) 0.361(1)
C17_7 C 0.808(2) 0.560(3) 0.304(2)
C18_7 C 0.545(2) 0.849(2) 0.396(1)
C19_7 C 0.572(2) 0.890(2) 0.381(1)
C20_7 C 0.545(2) 0.920(2) 0.352(1)
C21_7 C 0.491(2) 0.907(2) 0.338(1)
C22_7 C 0.464(2) 0.866(2) 0.353(1)
C23_7 C 0.491(2) 0.836(2) 0.382(1)
C24_7 C 0.449(4) 0.936(2) 0.306(2)
C25_7 C 0.571(3) 0.837(3) 0.533(2)
C26_7 C 0.536(5) 0.886(3) 0.5218(3)
C27_7 C 0.580(2) 0.824(2) 0.571(2)
C28_7 C 0.610(3) 0.786(2) 0.586(2)
N6_7 N 0.640(3) 0.752(3) 0.563(1)
C29_7 C 0.677(3) 0.720(2) 0.584(2)
C30_7 C 0.647(3) 0.719(2) 0.628(1)
C31_7 C 0.605(3) 0.757(2) 0.629(1)
C32_7 C 0.716(3) 0.687(2) 0.574(2)
C33_7 C 0.721(3) 0.680(2) 0.534(2)
C34_7 C 0.771(3) 0.643(2) 0.5218(3)
C35_7 C 0.734(3) 0.654(2) 0.608(1)
C36_7 C 0.731(2) 0.603(2) 0.604(1)
C37_7 C 0.760(2) 0.573(2) 0.632(1)
C38_7 C 0.791(2) 0.594(2) 0.663(1)
C39_7 C 0.794(2) 0.645(2) 0.667(1)
C40_7 C 0.766(2) 0.675(2) 0.639(1)
C41_7 C 0.808(2) 0.560(3) 0.696(2)
C42_7 C 0.545(2) 0.849(2) 0.604(1)
C43_7 C 0.572(2) 0.890(2) 0.619(1)
C44_7 C 0.545(2) 0.920(2) 0.648(1)
C45_7 C 0.491(2) 0.907(2) 0.662(1)
C46_7 C 0.464(2) 0.866(2) 0.647(1)
C47_7 C 0.491(2) 0.836(2) 0.618(1)
C48_7 C 0.449(4) 0.936(2) 0.694(2)
N10_4 N 0.931(3) 0.461(3) 0.284(2)
H1_7 H 0.470272 0.803103 0.606553
H2_7 H 0.421733 0.856812 0.3424
H3_7 H 0.769217 0.714743 0.358564
H4_7 H 0.614267 0.899188 0.3916
H5_7 H 0.565728 0.952897 0.659447
H6_7 H 0.818089 0.661271 0.691865
H7_7 H 0.517009 0.912588 0.542462
H8_7 H 0.706435 0.586619 0.42057
H9_7 H 0.706435 0.586619 0.57943
H10_7 H 0.798656 0.622534 0.457828
H11_7 H 0.757932 0.533238 0.629159
H12_7 H 0.769217 0.714743 0.641436
H13_7 H 0.757932 0.533238 0.370841
H14_7 H 0.565728 0.952897 0.340553
H15_7 H 0.798656 0.622534 0.542172
H16_7 H 0.65683 0.693823 0.347189
H17_7 H 0.57564 0.764762 0.346251
H18_7 H 0.470272 0.803103 0.393447
H19_7 H 0.65683 0.693823 0.652811
H20_7 H 0.57564 0.764762 0.653749
H21_7 H 0.818089 0.661271 0.308135
H22_7 H 0.517009 0.912588 0.457538
H23_7 H 0.614267 0.899188 0.6084
H24_7 H 0.421733 0.856812 0.6576
Cu2_12 Cu 0.1478(7) 0.2564(5) 0.5000
N1_8 N 0.140(3) 0.252(3) 0.437(1)
N2_12 N 0.095(4) 0.312(3) 0.5000
N3_12 N 0.202(4) 0.206(3) 0.5000
N4_8 N 0.341(2) 0.043(2) 0.287(2)
C1_8 C 0.036(5) 0.386(3) 0.4782(3)
C2_8 C 0.071(3) 0.337(3) 0.467(2)
C3_8 C 0.080(2) 0.324(2) 0.429(2)
C4_8 C 0.110(3) 0.286(2) 0.414(2)
C5_8 C 0.105(3) 0.257(2) 0.371(1)
C6_8 C 0.147(3) 0.219(2) 0.372(1)
C7_8 C 0.177(3) 0.220(2) 0.416(2)
C8_8 C 0.216(3) 0.187(2) 0.426(2)
C9_8 C 0.221(3) 0.180(2) 0.466(2)
C10_8 C 0.271(3) 0.143(2) 0.4782(3)
C11_8 C 0.234(3) 0.154(2) 0.392(1)
C12_8 C 0.231(2) 0.103(2) 0.396(1)
C13_8 C 0.260(2) 0.073(2) 0.368(1)
C14_8 C 0.291(2) 0.094(2) 0.337(1)
C15_8 C 0.294(2) 0.145(2) 0.333(1)
C16_8 C 0.266(2) 0.175(2) 0.361(1)
C17_8 C 0.308(2) 0.060(3) 0.304(2)
C18_8 C 0.045(2) 0.349(2) 0.396(1)
C19_8 C 0.072(2) 0.390(2) 0.381(1)
C20_8 C 0.045(2) 0.420(2) 0.352(1)
C25_8 C 0.071(3) 0.337(3) 0.533(2)
C26_8 C 0.036(5) 0.386(3) 0.5218(3)
C27_8 C 0.080(2) 0.324(2) 0.571(2)
C28_8 C 0.110(3) 0.286(2) 0.586(2)
N6_8 N 0.140(3) 0.252(3) 0.563(1)
C29_8 C 0.177(3) 0.220(2) 0.584(2)
C30_8 C 0.147(3) 0.219(2) 0.628(1)
C31_8 C 0.105(3) 0.257(2) 0.629(1)
C32_8 C 0.216(3) 0.187(2) 0.574(2)
C33_8 C 0.221(3) 0.180(2) 0.534(2)
C34_8 C 0.271(3) 0.143(2) 0.5218(3)
C35_8 C 0.234(3) 0.154(2) 0.608(1)
C36_8 C 0.231(2) 0.103(2) 0.604(1)
C37_8 C 0.260(2) 0.073(2) 0.632(1)
C38_8 C 0.291(2) 0.094(2) 0.663(1)
C39_8 C 0.294(2) 0.145(2) 0.667(1)
C40_8 C 0.266(2) 0.175(2) 0.639(1)
C41_8 C 0.308(2) 0.060(3) 0.696(2)
C42_8 C 0.045(2) 0.349(2) 0.604(1)
C43_8 C 0.072(2) 0.390(2) 0.619(1)
C44_8 C 0.045(2) 0.420(2) 0.648(1)
H3_8 H 0.269217 0.214743 0.358564
H4_8 H 0.114267 0.399188 0.3916
H5_8 H 0.0657276 0.452897 0.659447
H6_8 H 0.318089 0.161271 0.691865
H7_8 H 0.0170087 0.412588 0.542462
H8_8 H 0.206435 0.0866194 0.42057
H9_8 H 0.206435 0.0866194 0.57943
H10_8 H 0.298656 0.122534 0.457828
H11_8 H 0.257932 0.0332381 0.629159
H12_8 H 0.269217 0.214743 0.641436
H13_8 H 0.257932 0.0332381 0.370841
H14_8 H 0.0657276 0.452897 0.340553
H15_8 H 0.298656 0.122534 0.542172
H16_8 H 0.15683 0.193823 0.347189
H17_8 H 0.0756397 0.264762 0.346251
H19_8 H 0.15683 0.193823 0.652811
H20_8 H 0.0756397 0.264762 0.653749
H21_8 H 0.318089 0.161271 0.308135
H22_8 H 0.0170087 0.412588 0.457538
H23_8 H 0.114267 0.399188 0.6084
C21_8 C 0.991(2) 0.407(2) 0.338(1)
C22_8 C 0.964(2) 0.366(2) 0.353(1)
C23_8 C 0.991(2) 0.336(2) 0.382(1)
C24_8 C 0.949(4) 0.436(2) 0.306(2)
C45_8 C 0.991(2) 0.407(2) 0.662(1)
C46_8 C 0.964(2) 0.366(2) 0.647(1)
C47_8 C 0.991(2) 0.336(2) 0.618(1)
C48_8 C 0.949(4) 0.436(2) 0.694(2)
H1_8 H 0.970272 0.303103 0.606553
H2_8 H 0.921733 0.356812 0.3424
H18_8 H 0.970272 0.303103 0.393447
H24_8 H 0.921733 0.356812 0.6576
loop_
_geom_bond_atom_site_label_1
_geom_bond_atom_site_label_2
_geom_bond_site_symmetry_1
_geom_bond_site_symmetry_2
Cu1 N4 1_555 1_555
Cu2 N1 1_555 1_555
N1 C4 1_555 1_555
N2 Cu2 1_555 1_555
N3 Cu2 1_555 1_555
N4 C17 1_555 1_555
N5 C24 1_555 1_555
C1 C2 1_555 1_555
C2 N2 1_555 1_555
C3 C2 1_555 1_555
C4 C3 1_555 1_555
C5 C4 1_555 1_555
C6 C5 1_555 1_555
C7 N1 1_555 1_555
C8 C7 1_555 1_555
C9 N3 1_555 1_555
C10 C9 1_555 1_555
C11 C8 1_555 1_555
C12 C11 1_555 1_555
C13 C12 1_555 1_555
C14 C13 1_555 1_555
C15 C14 1_555 1_555
C16 C11 1_555 1_555
C17 C14 1_555 1_555
C18 C3 1_555 1_555
C19 C18 1_555 1_555
C20 C19 1_555 1_555
C21 C20 1_555 1_555
C22 C21 1_555 1_555
C23 C18 1_555 1_555
C24 C21 1_555 1_555
C25 N2 1_555 1_555
C26 C1 1_555 1_555
C27 C25 1_555 1_555
C28 C27 1_555 1_555
N6 Cu2 1_555 1_555
C29 N6 1_555 1_555
C30 C29 1_555 1_555
C31 C28 1_555 1_555
C32 C29 1_555 1_555
C33 N3 1_555 1_555
C34 C10 1_555 1_555
C35 C32 1_555 1_555
C36 C35 1_555 1_555
C37 C36 1_555 1_555
C38 C37 1_555 1_555
C39 C38 1_555 1_555
C40 C35 1_555 1_555
C41 C38 1_555 1_555
N7 C41 1_555 1_555
C42 C27 1_555 1_555
C43 C42 1_555 1_555
C44 C43 1_555 1_555
C45 C44 1_555 1_555
C46 C45 1_555 1_555
C47 C42 1_555 1_555
C48 C45 1_555 1_555
N8 C48 1_555 1_555
N9 Cu1 1_555 1_555
N10 Cu1 1_555 1_555
N11 Cu1 1_555 1_555
Cu3 N5 1_555 1_555
Cu4 N7 1_555 1_555
Cu5 N8 1_555 1_555
C6 C7 1_555 1_555
C8 C9 1_555 1_555
C15 C16 1_555 1_555
C22 C23 1_555 1_555
C25 C26 1_555 1_555
C28 N6 1_555 1_555
C30 C31 1_555 1_555
C32 C33 1_555 1_555
C33 C34 1_555 1_555
C39 C40 1_555 1_555
C46 C47 1_555 1_555
C47 H1 1_555 1_555
C22 H2 1_555 1_555
C16 H3 1_555 1_555
C19 H4 1_555 1_555
C44 H5 1_555 1_555
C39 H6 1_555 1_555
C26 H7 1_555 1_555
C12 H8 1_555 1_555
C36 H9 1_555 1_555
C10 H10 1_555 1_555
C37 H11 1_555 1_555
C40 H12 1_555 1_555
C13 H13 1_555 1_555
C20 H14 1_555 1_555
C34 H15 1_555 1_555
C6 H16 1_555 1_555
C5 H17 1_555 1_555
C23 H18 1_555 1_555
C30 H19 1_555 1_555
C31 H20 1_555 1_555
C15 H21 1_555 1_555
C1 H22 1_555 1_555
C43 H23 1_555 1_555
C46 H24 1_555 1_555
N10 C24_2 1_555 1_555
C22_2 C21_2 1_555 1_555
C24_2 C21_2 1_555 1_555
C46_2 C45_2 1_555 1_555
C48_2 C45_2 1_555 1_555
N8_2 C48_2 1_555 1_555
Cu4 N8_2 1_555 1_555
C22_2 C23_2 1_555 1_555
C46_2 C47_2 1_555 1_555
C47_2 H1_2 1_555 1_555
C22_2 H2_2 1_555 1_555
C23_2 H18_2 1_555 1_555
C46_2 H24_2 1_555 1_555
N9_2 Cu3 1_555 1_555
Cu3_2 N4_2 1_555 1_555
Cu2_2 N1_2 1_555 1_555
N1_2 C4_2 1_555 1_555
N2_2 Cu2_2 1_555 1_555
N3_2 Cu2_2 1_555 1_555
N4_2 C17_2 1_555 1_555
C1_2 C2_2 1_555 1_555
C2_2 N2_2 1_555 1_555
C3_2 C2_2 1_555 1_555
C4_2 C3_2 1_555 1_555
C5_2 C4_2 1_555 1_555
C6_2 C5_2 1_555 1_555
C7_2 N1_2 1_555 1_555
C8_2 C7_2 1_555 1_555
C9_2 N3_2 1_555 1_555
C10_2 C9_2 1_555 1_555
C11_2 C8_2 1_555 1_555
C12_2 C11_2 1_555 1_555
C13_2 C12_2 1_555 1_555
C14_2 C13_2 1_555 1_555
C15_2 C14_2 1_555 1_555
C16_2 C11_2 1_555 1_555
C17_2 C14_2 1_555 1_555
C18_2 C3_2 1_555 1_555
C19_2 C18_2 1_555 1_555
C20_2 C19_2 1_555 1_555
C25_2 N2_2 1_555 1_555
C26_2 C1_2 1_555 1_555
C27_2 C25_2 1_555 1_555
C28_2 C27_2 1_555 1_555
N6_2 Cu2_2 1_555 1_555
C29_2 N6_2 1_555 1_555
C30_2 C29_2 1_555 1_555
C31_2 C28_2 1_555 1_555
C32_2 C29_2 1_555 1_555
C33_2 N3_2 1_555 1_555
C34_2 C10_2 1_555 1_555
C35_2 C32_2 1_555 1_555
C36_2 C35_2 1_555 1_555
C37_2 C36_2 1_555 1_555
C38_2 C37_2 1_555 1_555
C39_2 C38_2 1_555 1_555
C40_2 C35_2 1_555 1_555
C41_2 C38_2 1_555 1_555
N7_2 C41_2 1_555 1_555
C42_2 C27_2 1_555 1_555
C43_2 C42_2 1_555 1_555
C44_2 C43_2 1_555 1_555
N11_2 Cu3_2 1_555 1_555
Cu5_2 N7_2 1_555 1_555
C6_2 C7_2 1_555 1_555
C8_2 C9_2 1_555 1_555
C15_2 C16_2 1_555 1_555
C25_2 C26_2 1_555 1_555
C28_2 N6_2 1_555 1_555
C30_2 C31_2 1_555 1_555
C32_2 C33_2 1_555 1_555
C33_2 C34_2 1_555 1_555
C39_2 C40_2 1_555 1_555
C16_2 H3_2 1_555 1_555
C19_2 H4_2 1_555 1_555
C44_2 H5_2 1_555 1_555
C39_2 H6_2 1_555 1_555
C26_2 H7_2 1_555 1_555
C12_2 H8_2 1_555 1_555
C36_2 H9_2 1_555 1_555
C10_2 H10_2 1_555 1_555
C37_2 H11_2 1_555 1_555
C40_2 H12_2 1_555 1_555
C13_2 H13_2 1_555 1_555
C20_2 H14_2 1_555 1_555
C34_2 H15_2 1_555 1_555
C6_2 H16_2 1_555 1_555
C5_2 H17_2 1_555 1_555
C30_2 H19_2 1_555 1_555
C31_2 H20_2 1_555 1_555
C15_2 H21_2 1_555 1_555
C1_2 H22_2 1_555 1_555
C43_2 H23_2 1_555 1_555
N2_3 Cu2_3 1_555 1_555
N3_3 Cu2_3 1_555 1_555
C25_3 N2_3 1_555 1_555
C27_3 C25_3 1_555 1_555
C28_3 C27_3 1_555 1_555
N6_3 Cu2_3 1_555 1_555
C29_3 N6_3 1_555 1_555
C30_3 C29_3 1_555 1_555
C31_3 C28_3 1_555 1_555
C32_3 C29_3 1_555 1_555
C33_3 N3_3 1_555 1_555
C35_3 C32_3 1_555 1_555
C36_3 C35_3 1_555 1_555
C37_3 C36_3 1_555 1_555
C38_3 C37_3 1_555 1_555
C39_3 C38_3 1_555 1_555
C40_3 C35_3 1_555 1_555
C41_3 C38_3 1_555 1_555
N9 C41_3 1_555 1_555
C42_3 C27_3 1_555 1_555
C43_3 C42_3 1_555 1_555
C44_3 C43_3 1_555 1_555
C45_3 C44_3 1_555 1_555
C46_3 C45_3 1_555 1_555
C47_3 C42_3 1_555 1_555
C48_3 C45_3 1_555 1_555
N11_2 C48_3 1_555 1_555
C25_3 C26_3 1_555 1_555
C28_3 N6_3 1_555 1_555
C30_3 C31_3 1_555 1_555
C32_3 C33_3 1_555 1_555
C33_3 C34_3 1_555 1_555
C39_3 C40_3 1_555 1_555
C46_3 C47_3 1_555 1_555
C47_3 H1_3 1_555 1_555
C44_3 H5_3 1_555 1_555
C39_3 H6_3 1_555 1_555
C26_3 H7_3 1_555 1_555
C36_3 H9_3 1_555 1_555
C37_3 H11_3 1_555 1_555
C40_3 H12_3 1_555 1_555
C34_3 H15_3 1_555 1_555
C30_3 H19_3 1_555 1_555
C31_3 H20_3 1_555 1_555
C43_3 H23_3 1_555 1_555
C46_3 H24_3 1_555 1_555
Cu4 N4_3 1_555 1_555
Cu2_4 N1_3 1_555 1_555
N1_3 C4_3 1_555 1_555
N2_4 Cu2_4 1_555 1_555
N3_4 Cu2_4 1_555 1_555
N4_3 C17_3 1_555 1_555
N5_2 C24_3 1_555 1_555
C1_3 C2_3 1_555 1_555
C2_3 N2_4 1_555 1_555
C3_3 C2_3 1_555 1_555
C4_3 C3_3 1_555 1_555
C5_3 C4_3 1_555 1_555
C6_3 C5_3 1_555 1_555
C7_3 N1_3 1_555 1_555
C8_3 C7_3 1_555 1_555
C9_3 N3_4 1_555 1_555
C10_3 C9_3 1_555 1_555
C11_3 C8_3 1_555 1_555
C12_3 C11_3 1_555 1_555
C13_3 C12_3 1_555 1_555
C14_3 C13_3 1_555 1_555
C15_3 C14_3 1_555 1_555
C16_3 C11_3 1_555 1_555
C17_3 C14_3 1_555 1_555
C18_3 C3_3 1_555 1_555
C19_3 C18_3 1_555 1_555
C20_3 C19_3 1_555 1_555
C21_3 C20_3 1_555 1_555
C22_3 C21_3 1_555 1_555
C23_3 C18_3 1_555 1_555
C24_3 C21_3 1_555 1_555
N10_2 Cu4 1_555 1_555
Cu5_2 N5_2 1_555 1_555
C6_3 C7_3 1_555 1_555
C8_3 C9_3 1_555 1_555
C15_3 C16_3 1_555 1_555
C22_3 C23_3 1_555 1_555
C22_3 H2_3 1_555 1_555
C16_3 H3_3 1_555 1_555
C19_3 H4_3 1_555 1_555
C12_3 H8_3 1_555 1_555
C10_3 H10_3 1_555 1_555
C13_3 H13_3 1_555 1_555
C20_3 H14_3 1_555 1_555
C6_3 H16_3 1_555 1_555
C5_3 H17_3 1_555 1_555
C23_3 H18_3 1_555 1_555
C15_3 H21_3 1_555 1_555
C1_3 H22_3 1_555 1_555
C46_4 C45_4 1_555 1_555
C48_4 C45_4 1_555 1_555
N11 C48_4 1_555 1_555
C46_4 C47_4 1_555 1_555
C47_4 H1_4 1_555 1_555
C46_4 H24_4 1_555 1_555
N10_2 C24_4 1_555 1_555
C22_4 C21_4 1_555 1_555
C24_4 C21_4 1_555 1_555
C22_4 C23_4 1_555 1_555
C22_4 H2_4 1_555 1_555
C23_4 H18_4 1_555 1_555
N2_5 Cu2_5 1_555 1_555
N3_5 Cu2_5 1_555 1_555
C25_4 N2_5 1_555 1_555
C27_4 C25_4 1_555 1_555
C28_4 C27_4 1_555 1_555
N6_4 Cu2_5 1_555 1_555
C29_4 N6_4 1_555 1_555
C30_4 C29_4 1_555 1_555
C31_4 C28_4 1_555 1_555
C32_4 C29_4 1_555 1_555
C33_4 N3_5 1_555 1_555
C35_4 C32_4 1_555 1_555
C36_4 C35_4 1_555 1_555
C37_4 C36_4 1_555 1_555
C38_4 C37_4 1_555 1_555
C39_4 C38_4 1_555 1_555
C40_4 C35_4 1_555 1_555
C41_4 C38_4 1_555 1_555
N9_2 C41_4 1_555 1_555
C42_4 C27_4 1_555 1_555
C43_4 C42_4 1_555 1_555
C44_4 C43_4 1_555 1_555
C25_4 C26_4 1_555 1_555
C28_4 N6_4 1_555 1_555
C30_4 C31_4 1_555 1_555
C32_4 C33_4 1_555 1_555
C33_4 C34_4 1_555 1_555
C39_4 C40_4 1_555 1_555
C44_4 H5_4 1_555 1_555
C39_4 H6_4 1_555 1_555
C26_4 H7_4 1_555 1_555
C36_4 H9_4 1_555 1_555
C37_4 H11_4 1_555 1_555
C40_4 H12_4 1_555 1_555
C34_4 H15_4 1_555 1_555
C30_4 H19_4 1_555 1_555
C31_4 H20_4 1_555 1_555
C43_4 H23_4 1_555 1_555
Cu5 N4_4 1_555 1_555
Cu2_6 N1_4 1_555 1_555
N1_4 C4_4 1_555 1_555
N2_6 Cu2_6 1_555 1_555
N3_6 Cu2_6 1_555 1_555
N4_4 C17_4 1_555 1_555
C1_4 C2_4 1_555 1_555
C2_4 N2_6 1_555 1_555
C3_4 C2_4 1_555 1_555
C4_4 C3_4 1_555 1_555
C5_4 C4_4 1_555 1_555
C6_4 C5_4 1_555 1_555
C7_4 N1_4 1_555 1_555
C8_4 C7_4 1_555 1_555
C9_4 N3_6 1_555 1_555
C10_4 C9_4 1_555 1_555
C11_4 C8_4 1_555 1_555
C12_4 C11_4 1_555 1_555
C13_4 C12_4 1_555 1_555
C14_4 C13_4 1_555 1_555
C15_4 C14_4 1_555 1_555
C16_4 C11_4 1_555 1_555
C17_4 C14_4 1_555 1_555
C18_4 C3_4 1_555 1_555
C19_4 C18_4 1_555 1_555
C20_4 C19_4 1_555 1_555
C6_4 C7_4 1_555 1_555
C8_4 C9_4 1_555 1_555
C15_4 C16_4 1_555 1_555
C16_4 H3_4 1_555 1_555
C19_4 H4_4 1_555 1_555
C12_4 H8_4 1_555 1_555
C10_4 H10_4 1_555 1_555
C13_4 H13_4 1_555 1_555
C20_4 H14_4 1_555 1_555
C6_4 H16_4 1_555 1_555
C5_4 H17_4 1_555 1_555
C15_4 H21_4 1_555 1_555
C1_4 H22_4 1_555 1_555
N2_7 Cu2_7 1_555 1_555
N3_7 Cu2_7 1_555 1_555
C25_5 N2_7 1_555 1_555
C27_5 C25_5 1_555 1_555
C28_5 C27_5 1_555 1_555
N6_5 Cu2_7 1_555 1_555
C29_5 N6_5 1_555 1_555
C30_5 C29_5 1_555 1_555
C31_5 C28_5 1_555 1_555
C32_5 C29_5 1_555 1_555
C33_5 N3_7 1_555 1_555
C35_5 C32_5 1_555 1_555
C36_5 C35_5 1_555 1_555
C37_5 C36_5 1_555 1_555
C38_5 C37_5 1_555 1_555
C39_5 C38_5 1_555 1_555
C40_5 C35_5 1_555 1_555
C41_5 C38_5 1_555 1_555
N7_3 C41_5 1_555 1_555
C42_5 C27_5 1_555 1_555
C43_5 C42_5 1_555 1_555
C44_5 C43_5 1_555 1_555
C45_5 C44_5 1_555 1_555
C46_5 C45_5 1_555 1_555
C47_5 C42_5 1_555 1_555
C48_5 C45_5 1_555 1_555
N8_3 C48_5 1_555 1_555
Cu4_2 N7_3 1_555 1_555
Cu5_3 N8_3 1_555 1_555
C25_5 C26_5 1_555 1_555
C28_5 N6_5 1_555 1_555
C30_5 C31_5 1_555 1_555
C32_5 C33_5 1_555 1_555
C33_5 C34_5 1_555 1_555
C39_5 C40_5 1_555 1_555
C46_5 C47_5 1_555 1_555
C47_5 H1_5 1_555 1_555
C44_5 H5_5 1_555 1_555
C39_5 H6_5 1_555 1_555
C26_5 H7_5 1_555 1_555
C36_5 H9_5 1_555 1_555
C37_5 H11_5 1_555 1_555
C40_5 H12_5 1_555 1_555
C34_5 H15_5 1_555 1_555
C30_5 H19_5 1_555 1_555
C31_5 H20_5 1_555 1_555
C43_5 H23_5 1_555 1_555
C46_5 H24_5 1_555 1_555
Cu1_2 N4_5 1_555 1_555
Cu2_8 N1_5 1_555 1_555
N1_5 C4_5 1_555 1_555
N2_8 Cu2_8 1_555 1_555
N3_8 Cu2_8 1_555 1_555
N4_5 C17_5 1_555 1_555
N5_3 C24_5 1_555 1_555
C1_5 C2_5 1_555 1_555
C2_5 N2_8 1_555 1_555
C3_5 C2_5 1_555 1_555
C4_5 C3_5 1_555 1_555
C5_5 C4_5 1_555 1_555
C6_5 C5_5 1_555 1_555
C7_5 N1_5 1_555 1_555
C8_5 C7_5 1_555 1_555
C9_5 N3_8 1_555 1_555
C10_5 C9_5 1_555 1_555
C11_5 C8_5 1_555 1_555
C12_5 C11_5 1_555 1_555
C13_5 C12_5 1_555 1_555
C14_5 C13_5 1_555 1_555
C15_5 C14_5 1_555 1_555
C16_5 C11_5 1_555 1_555
C17_5 C14_5 1_555 1_555
C18_5 C3_5 1_555 1_555
C19_5 C18_5 1_555 1_555
C20_5 C19_5 1_555 1_555
C21_5 C20_5 1_555 1_555
C22_5 C21_5 1_555 1_555
C23_5 C18_5 1_555 1_555
C24_5 C21_5 1_555 1_555
N9_3 Cu1_2 1_555 1_555
N10_3 Cu1_2 1_555 1_555
N11_3 Cu1_2 1_555 1_555
Cu3_3 N5_3 1_555 1_555
C6_5 C7_5 1_555 1_555
C8_5 C9_5 1_555 1_555
C15_5 C16_5 1_555 1_555
C22_5 C23_5 1_555 1_555
C22_5 H2_5 1_555 1_555
C16_5 H3_5 1_555 1_555
C19_5 H4_5 1_555 1_555
C12_5 H8_5 1_555 1_555
C10_5 H10_5 1_555 1_555
C13_5 H13_5 1_555 1_555
C20_5 H14_5 1_555 1_555
C6_5 H16_5 1_555 1_555
C5_5 H17_5 1_555 1_555
C23_5 H18_5 1_555 1_555
C15_5 H21_5 1_555 1_555
C1_5 H22_5 1_555 1_555
N9_4 Cu3_3 1_555 1_555
N2_9 Cu2_9 1_555 1_555
N3_9 Cu2_9 1_555 1_555
C25_6 N2_9 1_555 1_555
C27_6 C25_6 1_555 1_555
C28_6 C27_6 1_555 1_555
N6_6 Cu2_9 1_555 1_555
C29_6 N6_6 1_555 1_555
C30_6 C29_6 1_555 1_555
C31_6 C28_6 1_555 1_555
C32_6 C29_6 1_555 1_555
C33_6 N3_9 1_555 1_555
C35_6 C32_6 1_555 1_555
C36_6 C35_6 1_555 1_555
C37_6 C36_6 1_555 1_555
C38_6 C37_6 1_555 1_555
C39_6 C38_6 1_555 1_555
C40_6 C35_6 1_555 1_555
C41_6 C38_6 1_555 1_555
N7_4 C41_6 1_555 1_555
C42_6 C27_6 1_555 1_555
C43_6 C42_6 1_555 1_555
C44_6 C43_6 1_555 1_555
Cu5_4 N7_4 1_555 1_555
C25_6 C26_6 1_555 1_555
C28_6 N6_6 1_555 1_555
C30_6 C31_6 1_555 1_555
C32_6 C33_6 1_555 1_555
C33_6 C34_6 1_555 1_555
C39_6 C40_6 1_555 1_555
C44_6 H5_6 1_555 1_555
C39_6 H6_6 1_555 1_555
C26_6 H7_6 1_555 1_555
C36_6 H9_6 1_555 1_555
C37_6 H11_6 1_555 1_555
C40_6 H12_6 1_555 1_555
C34_6 H15_6 1_555 1_555
C30_6 H19_6 1_555 1_555
C31_6 H20_6 1_555 1_555
C43_6 H23_6 1_555 1_555
Cu3_4 N4_6 1_555 1_555
Cu2_10 N1_6 1_555 1_555
N1_6 C4_6 1_555 1_555
N2_10 Cu2_10 1_555 1_555
N3_10 Cu2_10 1_555 1_555
N4_6 C17_6 1_555 1_555
C1_6 C2_6 1_555 1_555
C2_6 N2_10 1_555 1_555
C3_6 C2_6 1_555 1_555
C4_6 C3_6 1_555 1_555
C5_6 C4_6 1_555 1_555
C6_6 C5_6 1_555 1_555
C7_6 N1_6 1_555 1_555
C8_6 C7_6 1_555 1_555
C9_6 N3_10 1_555 1_555
C10_6 C9_6 1_555 1_555
C11_6 C8_6 1_555 1_555
C12_6 C11_6 1_555 1_555
C13_6 C12_6 1_555 1_555
C14_6 C13_6 1_555 1_555
C15_6 C14_6 1_555 1_555
C16_6 C11_6 1_555 1_555
C17_6 C14_6 1_555 1_555
C18_6 C3_6 1_555 1_555
C19_6 C18_6 1_555 1_555
C20_6 C19_6 1_555 1_555
N11_4 Cu3_4 1_555 1_555
C6_6 C7_6 1_555 1_555
C8_6 C9_6 1_555 1_555
C15_6 C16_6 1_555 1_555
C16_6 H3_6 1_555 1_555
C19_6 H4_6 1_555 1_555
C12_6 H8_6 1_555 1_555
C10_6 H10_6 1_555 1_555
C13_6 H13_6 1_555 1_555
C20_6 H14_6 1_555 1_555
C6_6 H16_6 1_555 1_555
C5_6 H17_6 1_555 1_555
C15_6 H21_6 1_555 1_555
C1_6 H22_6 1_555 1_555
C46_6 C45_6 1_555 1_555
C48_6 C45_6 1_555 1_555
N8_4 C48_6 1_555 1_555
Cu4_2 N8_4 1_555 1_555
C46_6 C47_6 1_555 1_555
C47_6 H1_6 1_555 1_555
C46_6 H24_6 1_555 1_555
N10_3 C24_6 1_555 1_555
C22_6 C21_6 1_555 1_555
C24_6 C21_6 1_555 1_555
C22_6 C23_6 1_555 1_555
C22_6 H2_6 1_555 1_555
C23_6 H18_6 1_555 1_555
Cu4_2 N4_7 1_555 1_555
Cu2_11 N1_7 1_555 1_555
N1_7 C4_7 1_555 1_555
N2_11 Cu2_11 1_555 1_555
N3_11 Cu2_11 1_555 1_555
N4_7 C17_7 1_555 1_555
N5_4 C24_7 1_555 1_555
C1_7 C2_7 1_555 1_555
C2_7 N2_11 1_555 1_555
C3_7 C2_7 1_555 1_555
C4_7 C3_7 1_555 1_555
C5_7 C4_7 1_555 1_555
C6_7 C5_7 1_555 1_555
C7_7 N1_7 1_555 1_555
C8_7 C7_7 1_555 1_555
C9_7 N3_11 1_555 1_555
C10_7 C9_7 1_555 1_555
C11_7 C8_7 1_555 1_555
C12_7 C11_7 1_555 1_555
C13_7 C12_7 1_555 1_555
C14_7 C13_7 1_555 1_555
C15_7 C14_7 1_555 1_555
C16_7 C11_7 1_555 1_555
C17_7 C14_7 1_555 1_555
C18_7 C3_7 1_555 1_555
C19_7 C18_7 1_555 1_555
C20_7 C19_7 1_555 1_555
C21_7 C20_7 1_555 1_555
C22_7 C21_7 1_555 1_555
C23_7 C18_7 1_555 1_555
C24_7 C21_7 1_555 1_555
C25_7 N2_11 1_555 1_555
C26_7 C1_7 1_555 1_555
C27_7 C25_7 1_555 1_555
C28_7 C27_7 1_555 1_555
N6_7 Cu2_11 1_555 1_555
C29_7 N6_7 1_555 1_555
C30_7 C29_7 1_555 1_555
C31_7 C28_7 1_555 1_555
C32_7 C29_7 1_555 1_555
C33_7 N3_11 1_555 1_555
C34_7 C10_7 1_555 1_555
C35_7 C32_7 1_555 1_555
C36_7 C35_7 1_555 1_555
C37_7 C36_7 1_555 1_555
C38_7 C37_7 1_555 1_555
C39_7 C38_7 1_555 1_555
C40_7 C35_7 1_555 1_555
C41_7 C38_7 1_555 1_555
N9_3 C41_7 1_555 1_555
C42_7 C27_7 1_555 1_555
C43_7 C42_7 1_555 1_555
C44_7 C43_7 1_555 1_555
C45_7 C44_7 1_555 1_555
C46_7 C45_7 1_555 1_555
C47_7 C42_7 1_555 1_555
C48_7 C45_7 1_555 1_555
N11_4 C48_7 1_555 1_555
N10_4 Cu4_2 1_555 1_555
Cu5_4 N5_4 1_555 1_555
C6_7 C7_7 1_555 1_555
C8_7 C9_7 1_555 1_555
C15_7 C16_7 1_555 1_555
C22_7 C23_7 1_555 1_555
C25_7 C26_7 1_555 1_555
C28_7 N6_7 1_555 1_555
C30_7 C31_7 1_555 1_555
C32_7 C33_7 1_555 1_555
C33_7 C34_7 1_555 1_555
C39_7 C40_7 1_555 1_555
C46_7 C47_7 1_555 1_555
C47_7 H1_7 1_555 1_555
C22_7 H2_7 1_555 1_555
C16_7 H3_7 1_555 1_555
C19_7 H4_7 1_555 1_555
C44_7 H5_7 1_555 1_555
C39_7 H6_7 1_555 1_555
C26_7 H7_7 1_555 1_555
C12_7 H8_7 1_555 1_555
C36_7 H9_7 1_555 1_555
C10_7 H10_7 1_555 1_555
C37_7 H11_7 1_555 1_555
C40_7 H12_7 1_555 1_555
C13_7 H13_7 1_555 1_555
C20_7 H14_7 1_555 1_555
C34_7 H15_7 1_555 1_555
C6_7 H16_7 1_555 1_555
C5_7 H17_7 1_555 1_555
C23_7 H18_7 1_555 1_555
C30_7 H19_7 1_555 1_555
C31_7 H20_7 1_555 1_555
C15_7 H21_7 1_555 1_555
C1_7 H22_7 1_555 1_555
C43_7 H23_7 1_555 1_555
C46_7 H24_7 1_555 1_555
Cu5_3 N4_8 1_555 1_555
Cu2_12 N1_8 1_555 1_555
N1_8 C4_8 1_555 1_555
N2_12 Cu2_12 1_555 1_555
N3_12 Cu2_12 1_555 1_555
N4_8 C17_8 1_555 1_555
C1_8 C2_8 1_555 1_555
C2_8 N2_12 1_555 1_555
C3_8 C2_8 1_555 1_555
C4_8 C3_8 1_555 1_555
C5_8 C4_8 1_555 1_555
C6_8 C5_8 1_555 1_555
C7_8 N1_8 1_555 1_555
C8_8 C7_8 1_555 1_555
C9_8 N3_12 1_555 1_555
C10_8 C9_8 1_555 1_555
C11_8 C8_8 1_555 1_555
C12_8 C11_8 1_555 1_555
C13_8 C12_8 1_555 1_555
C14_8 C13_8 1_555 1_555
C15_8 C14_8 1_555 1_555
C16_8 C11_8 1_555 1_555
C17_8 C14_8 1_555 1_555
C18_8 C3_8 1_555 1_555
C19_8 C18_8 1_555 1_555
C20_8 C19_8 1_555 1_555
C25_8 N2_12 1_555 1_555
C26_8 C1_8 1_555 1_555
C27_8 C25_8 1_555 1_555
C28_8 C27_8 1_555 1_555
N6_8 Cu2_12 1_555 1_555
C29_8 N6_8 1_555 1_555
C30_8 C29_8 1_555 1_555
C31_8 C28_8 1_555 1_555
C32_8 C29_8 1_555 1_555
C33_8 N3_12 1_555 1_555
C34_8 C10_8 1_555 1_555
C35_8 C32_8 1_555 1_555
C36_8 C35_8 1_555 1_555
C37_8 C36_8 1_555 1_555
C38_8 C37_8 1_555 1_555
C39_8 C38_8 1_555 1_555
C40_8 C35_8 1_555 1_555
C41_8 C38_8 1_555 1_555
N9_4 C41_8 1_555 1_555
C42_8 C27_8 1_555 1_555
C43_8 C42_8 1_555 1_555
C44_8 C43_8 1_555 1_555
C6_8 C7_8 1_555 1_555
C8_8 C9_8 1_555 1_555
C15_8 C16_8 1_555 1_555
C25_8 C26_8 1_555 1_555
C28_8 N6_8 1_555 1_555
C30_8 C31_8 1_555 1_555
C32_8 C33_8 1_555 1_555
C33_8 C34_8 1_555 1_555
C39_8 C40_8 1_555 1_555
C16_8 H3_8 1_555 1_555
C19_8 H4_8 1_555 1_555
C44_8 H5_8 1_555 1_555
C39_8 H6_8 1_555 1_555
C26_8 H7_8 1_555 1_555
C12_8 H8_8 1_555 1_555
C36_8 H9_8 1_555 1_555
C10_8 H10_8 1_555 1_555
C37_8 H11_8 1_555 1_555
C40_8 H12_8 1_555 1_555
C13_8 H13_8 1_555 1_555
C20_8 H14_8 1_555 1_555
C34_8 H15_8 1_555 1_555
C6_8 H16_8 1_555 1_555
C5_8 H17_8 1_555 1_555
C30_8 H19_8 1_555 1_555
C31_8 H20_8 1_555 1_555
C15_8 H21_8 1_555 1_555
C1_8 H22_8 1_555 1_555
C43_8 H23_8 1_555 1_555
N10_4 C24_8 1_555 1_555
C22_8 C21_8 1_555 1_555
C24_8 C21_8 1_555 1_555
C46_8 C45_8 1_555 1_555
C48_8 C45_8 1_555 1_555
N11_3 C48_8 1_555 1_555
C22_8 C23_8 1_555 1_555
C46_8 C47_8 1_555 1_555
C47_8 H1_8 1_555 1_555
C22_8 H2_8 1_555 1_555
C23_8 H18_8 1_555 1_555
C46_8 H24_8 1_555 1_555

#END
