
###############################################################################
#
# This file contains modified crystal structure data generated from the
# MOF subset of the Cambridge Structural Database (CSD) v543 
# hosted by the Cambridge Crystallographic Data Centre (CCDC).
#
# This work is licensed under the Creative Commons
# Attribution-NonCommercial-ShareAlike 4.0 International License.
# To view a copy of this license, visit
# http://creativecommons.org/licenses/by-nc-sa/4.0/
# or send a letter to
# Creative Commons, PO Box 1866, Mountain View, CA 94042, USA.
#
# CIF created using the CSD Python API on 29 September 2022
# The structure has been converted into the P1 space group
# The structure has a 3D framework
# The original CSD entry PIZJEN is in the tetragonal crystal system
# The framework has been calculated to contain at least 10.0% void space
# The void calculation uses a probe of radius 1.32A, grid spacing 0.4
# The framework is charged, counterions have been retained in the structure
# H atom positions have been added when not included in the experimental data
#
###############################################################################

data_PIZJEN
_chemical_formula_moiety         '(C80 H48 Cu9 N24 4+)n'
_symmetry_cell_setting           triclinic
_symmetry_space_group_name_H-M   'P 1'
_symmetry_Int_Tables_number      1
_space_group_name_Hall           'P 1'
loop_
_symmetry_equiv_pos_site_id
_symmetry_equiv_pos_as_xyz
1 x,y,z
_cell_length_a                   14.202(6)
_cell_length_b                   14.202(6)
_cell_length_c                   26.644(9)
_cell_angle_alpha                90
_cell_angle_beta                 90
_cell_angle_gamma                90
_cell_volume                     5374.01
loop_
_atom_site_label
_atom_site_type_symbol
_atom_site_fract_x
_atom_site_fract_y
_atom_site_fract_z
Cu3 Cu 0.000 -0.000 0.5000
Cu4 Cu 0.000 0.000 0.0000
Cu4_2 Cu 0.000 0.000 1.0000
N1 N 0.003(4) 0.120(2) 0.4531(7)
C3 C 0.015(4) 0.255(3) 0.379(1)
C4 C 0.087(3) 0.239(3) 0.404(2)
C5 C 0.094(6) 0.175(6) 0.447(3)
Cu2 Cu 0.000 0.500 0.2500
N2 N 0.000 0.500 0.328(1)
N3 N 0.000 0.364(3) 0.2500
C7 C 0.023(2) 0.419(2) 0.3550(9)
C8 C 0.026(2) 0.332(2) 0.3412(8)
C9 C 0.022(3) 0.300(2) 0.292(1)
C12 C 0.026(3) 0.543(2) 0.408(1)
C15 C 0.077(3) 0.795(3) 0.389(2)
C16 C 0.080(3) 0.859(2) 0.432(1)
N5 N 0.000 0.636(3) 0.2500
C20 C 0.022(3) 0.700(2) 0.208(1)
C21 C 0.026(2) 0.668(2) 0.1588(8)
C22 C 0.015(4) 0.745(3) 0.121(1)
N6 N 0.003(4) 0.880(2) 0.0469(7)
C25 C 0.094(6) 0.825(6) 0.053(3)
C26 C 0.087(3) 0.761(3) 0.096(2)
C27 C 0.023(2) 0.581(2) 0.1450(9)
N7 N 0.000 0.500 0.172(1)
C29 C 0.026(3) 0.457(2) 0.092(1)
C33 C 0.077(3) 0.205(3) 0.111(2)
C34 C 0.080(3) 0.141(2) 0.068(1)
C38 C 0.021(3) 0.205(2) 0.222(1)
C40 C 0.021(3) 0.795(2) 0.278(1)
Cu3_2 Cu 0.000 1.000 0.5000
Cu4_3 Cu 0.000 1.000 0.0000
H2 H 0.155543 0.167913 0.471087
H4 H 0.150915 0.275952 0.392958
H9 H 0.138397 0.783891 0.365242
H11 H 0.155543 0.832087 0.0289133
H12 H 0.0783527 0.572739 0.433309
H14 H 0.145945 0.887915 0.446051
H15 H 0.0645492 0.155105 0.201399
H17 H 0.145945 0.112085 0.0539486
H20 H 0.138397 0.216109 0.134758
H21 H 0.0783527 0.427261 0.0666909
H22 H 0.0645492 0.844895 0.298601
H24 H 0.150915 0.724048 0.107042
Cu4_4 Cu 0.000 1.000 1.0000
N11 N 0.120(2) 0.997(4) 0.5469(7)
Cu3_3 Cu 1.000 -0.000 0.5000
Cu4_5 Cu 1.000 0.000 0.0000
Cu4_6 Cu 1.000 0.000 1.0000
C1 C 0.920(3) 0.141(2) 0.432(1)
C2 C 0.923(3) 0.205(3) 0.389(2)
Cu2_2 Cu 1.000 0.500 0.2500
N2_2 N 1.000 0.500 0.328(1)
N3_2 N 1.000 0.364(3) 0.2500
C6 C 0.974(3) 0.457(2) 0.408(1)
C10 C 0.979(3) 0.205(2) 0.278(1)
C11 C 0.977(2) 0.581(2) 0.3550(9)
C13 C 0.974(2) 0.668(2) 0.3412(8)
C14 C 0.985(4) 0.745(3) 0.379(1)
N4 N 0.997(4) 0.880(2) 0.4531(7)
C17 C 0.906(6) 0.825(6) 0.447(3)
C18 C 0.913(3) 0.761(3) 0.404(2)
C19 C 0.978(3) 0.700(2) 0.292(1)
N5_2 N 1.000 0.636(3) 0.2500
C23 C 0.923(3) 0.795(3) 0.111(2)
C24 C 0.920(3) 0.859(2) 0.068(1)
N7_2 N 1.000 0.500 0.172(1)
C28 C 0.977(2) 0.419(2) 0.1450(9)
C30 C 0.974(3) 0.543(2) 0.092(1)
C31 C 0.974(2) 0.332(2) 0.1588(8)
C32 C 0.985(4) 0.255(3) 0.121(1)
N8 N 0.997(4) 0.120(2) 0.0469(7)
C35 C 0.906(6) 0.175(6) 0.053(3)
C36 C 0.913(3) 0.239(3) 0.096(2)
C37 C 0.978(3) 0.300(2) 0.208(1)
C39 C 0.979(3) 0.795(2) 0.222(1)
N9 N 0.880(2) 0.003(4) 0.5469(7)
Cu3_4 Cu 1.000 1.000 0.5000
Cu4_7 Cu 1.000 1.000 0.0000
H1 H 0.861603 0.216109 0.365242
H3 H 0.854055 0.112085 0.446051
H5 H 0.854055 0.887915 0.0539486
H6 H 0.849085 0.275952 0.107042
H7 H 0.921647 0.572739 0.0666909
H8 H 0.844457 0.167913 0.0289133
H10 H 0.935451 0.155105 0.298601
H13 H 0.849085 0.724048 0.392958
H16 H 0.844457 0.832087 0.471087
H18 H 0.935451 0.844895 0.201399
H19 H 0.861603 0.783891 0.134758
H23 H 0.921647 0.427261 0.433309
Cu4_8 Cu 1.000 1.000 1.0000
C3_2 C 0.745(3) 0.015(4) 0.621(1)
C4_2 C 0.761(3) 0.087(3) 0.596(2)
C5_2 C 0.825(6) 0.094(6) 0.553(3)
Cu2_3 Cu 0.500 0.000 0.7500
N2_3 N 0.500 0.000 0.672(1)
N3_3 N 0.636(3) 0.000 0.7500
C7_2 C 0.581(2) 0.023(2) 0.6450(9)
C8_2 C 0.668(2) 0.026(2) 0.6588(8)
C9_2 C 0.700(2) 0.022(3) 0.708(1)
C12_2 C 0.457(2) 0.026(3) 0.592(1)
C15_2 C 0.205(3) 0.077(3) 0.611(2)
C16_2 C 0.141(2) 0.080(3) 0.568(1)
N5_3 N 0.364(3) 0.000 0.7500
C20_2 C 0.300(2) 0.022(3) 0.792(1)
C21_2 C 0.332(2) 0.026(2) 0.8412(8)
C22_2 C 0.255(3) 0.015(4) 0.879(1)
N6_2 N 0.120(2) 0.003(4) 0.9531(7)
C25_2 C 0.175(6) 0.094(6) 0.947(3)
C26_2 C 0.239(3) 0.087(3) 0.904(2)
C27_2 C 0.419(2) 0.023(2) 0.8550(9)
N7_3 N 0.500 0.000 0.828(1)
C29_2 C 0.543(2) 0.026(3) 0.908(1)
C33_2 C 0.795(3) 0.077(3) 0.889(2)
C34_2 C 0.859(2) 0.080(3) 0.932(1)
C38_2 C 0.795(2) 0.021(3) 0.778(1)
C40_2 C 0.205(2) 0.021(3) 0.722(1)
H2_2 H 0.832087 0.155543 0.528913
H4_2 H 0.724048 0.150915 0.607042
H9_2 H 0.216109 0.138397 0.634758
H11_2 H 0.167913 0.155543 0.971087
H12_2 H 0.427261 0.0783527 0.566691
H14_2 H 0.112085 0.145945 0.553949
H15_2 H 0.844895 0.0645492 0.798601
H17_2 H 0.887915 0.145945 0.946051
H20_2 H 0.783891 0.138397 0.865242
H21_2 H 0.572739 0.0783527 0.933309
H22_2 H 0.155105 0.0645492 0.701399
H24_2 H 0.275952 0.150915 0.892958
C1_2 C 0.859(2) 0.920(3) 0.568(1)
C2_2 C 0.795(3) 0.923(3) 0.611(2)
Cu2_4 Cu 0.500 1.000 0.7500
N2_4 N 0.500 1.000 0.672(1)
N3_4 N 0.636(3) 1.000 0.7500
C6_2 C 0.543(2) 0.974(3) 0.592(1)
C10_2 C 0.795(2) 0.979(3) 0.722(1)
C11_2 C 0.419(2) 0.977(2) 0.6450(9)
C13_2 C 0.332(2) 0.974(2) 0.6588(8)
C14_2 C 0.255(3) 0.985(4) 0.621(1)
C17_2 C 0.175(6) 0.906(6) 0.553(3)
C18_2 C 0.239(3) 0.913(3) 0.596(2)
C19_2 C 0.300(2) 0.978(3) 0.708(1)
N5_4 N 0.364(3) 1.000 0.7500
C23_2 C 0.205(3) 0.923(3) 0.889(2)
C24_2 C 0.141(2) 0.920(3) 0.932(1)
N7_4 N 0.500 1.000 0.828(1)
C28_2 C 0.581(2) 0.977(2) 0.8550(9)
C30_2 C 0.457(2) 0.974(3) 0.908(1)
C31_2 C 0.668(2) 0.974(2) 0.8412(8)
C32_2 C 0.745(3) 0.985(4) 0.879(1)
N8_2 N 0.880(2) 0.997(4) 0.9531(7)
C35_2 C 0.825(6) 0.906(6) 0.947(3)
C36_2 C 0.761(3) 0.913(3) 0.904(2)
C37_2 C 0.700(2) 0.978(3) 0.792(1)
C39_2 C 0.205(2) 0.979(3) 0.778(1)
H1_2 H 0.783891 0.861603 0.634758
H3_2 H 0.887915 0.854055 0.553949
H5_2 H 0.112085 0.854055 0.946051
H6_2 H 0.724048 0.849085 0.892958
H7_2 H 0.427261 0.921647 0.933309
H8_2 H 0.832087 0.844457 0.971087
H10_2 H 0.844895 0.935451 0.701399
H13_2 H 0.275952 0.849085 0.607042
H16_2 H 0.167913 0.844457 0.528913
H18_2 H 0.155105 0.935451 0.798601
H19_2 H 0.216109 0.861603 0.865242
H23_2 H 0.572739 0.921647 0.566691
loop_
_geom_bond_atom_site_label_1
_geom_bond_atom_site_label_2
_geom_bond_site_symmetry_1
_geom_bond_site_symmetry_2
Cu3 N1 1_555 1_555
C3 C4 1_555 1_555
C4 C5 1_555 1_555
C5 N1 1_555 1_555
Cu2 N2 1_555 1_555
N2 C7 1_555 1_555
N3 Cu2 1_555 1_555
C7 C8 1_555 1_555
C8 C3 1_555 1_555
C9 N3 1_555 1_555
C16 C15 1_555 1_555
N5 Cu2 1_555 1_555
C20 N5 1_555 1_555
C21 C20 1_555 1_555
C22 C21 1_555 1_555
C25 N6 1_555 1_555
C26 C22 1_555 1_555
C27 C21 1_555 1_555
N7 Cu2 1_555 1_555
C34 C33 1_555 1_555
Cu4_3 N6 1_555 1_555
C8 C9 1_555 1_555
C25 C26 1_555 1_555
C27 N7 1_555 1_555
C5 H2 1_555 1_555
C4 H4 1_555 1_555
C15 H9 1_555 1_555
C25 H11 1_555 1_555
C12 H12 1_555 1_555
C16 H14 1_555 1_555
C38 H15 1_555 1_555
C34 H17 1_555 1_555
C33 H20 1_555 1_555
C29 H21 1_555 1_555
C40 H22 1_555 1_555
C26 H24 1_555 1_555
N11 Cu3_2 1_555 1_555
C1 C2 1_555 1_555
Cu2_2 N2_2 1_555 1_555
N3_2 Cu2_2 1_555 1_555
C11 N2_2 1_555 1_555
C13 C11 1_555 1_555
C14 C13 1_555 1_555
C17 N4 1_555 1_555
C18 C14 1_555 1_555
C19 C13 1_555 1_555
N5_2 Cu2_2 1_555 1_555
C24 C23 1_555 1_555
N7_2 Cu2_2 1_555 1_555
C28 N7_2 1_555 1_555
C31 C28 1_555 1_555
C32 C31 1_555 1_555
C35 N8 1_555 1_555
C36 C32 1_555 1_555
C37 N3_2 1_555 1_555
N9 Cu3_3 1_555 1_555
Cu3_4 N4 1_555 1_555
Cu4_5 N8 1_555 1_555
C17 C18 1_555 1_555
C19 N5_2 1_555 1_555
C31 C37 1_555 1_555
C35 C36 1_555 1_555
C2 H1 1_555 1_555
C1 H3 1_555 1_555
C24 H5 1_555 1_555
C36 H6 1_555 1_555
C30 H7 1_555 1_555
C35 H8 1_555 1_555
C10 H10 1_555 1_555
C18 H13 1_555 1_555
C17 H16 1_555 1_555
C39 H18 1_555 1_555
C23 H19 1_555 1_555
C6 H23 1_555 1_555
C3_2 C4_2 1_555 1_555
C4_2 C5_2 1_555 1_555
C5_2 N9 1_555 1_555
Cu2_3 N2_3 1_555 1_555
N2_3 C7_2 1_555 1_555
N3_3 Cu2_3 1_555 1_555
C7_2 C8_2 1_555 1_555
C8_2 C3_2 1_555 1_555
C9_2 N3_3 1_555 1_555
C16_2 C15_2 1_555 1_555
N5_3 Cu2_3 1_555 1_555
C20_2 N5_3 1_555 1_555
C21_2 C20_2 1_555 1_555
C22_2 C21_2 1_555 1_555
C25_2 N6_2 1_555 1_555
C26_2 C22_2 1_555 1_555
C27_2 C21_2 1_555 1_555
N7_3 Cu2_3 1_555 1_555
C34_2 C33_2 1_555 1_555
Cu4_2 N6_2 1_555 1_555
C8_2 C9_2 1_555 1_555
C25_2 C26_2 1_555 1_555
C27_2 N7_3 1_555 1_555
C5_2 H2_2 1_555 1_555
C4_2 H4_2 1_555 1_555
C15_2 H9_2 1_555 1_555
C25_2 H11_2 1_555 1_555
C12_2 H12_2 1_555 1_555
C16_2 H14_2 1_555 1_555
C38_2 H15_2 1_555 1_555
C34_2 H17_2 1_555 1_555
C33_2 H20_2 1_555 1_555
C29_2 H21_2 1_555 1_555
C40_2 H22_2 1_555 1_555
C26_2 H24_2 1_555 1_555
C1_2 C2_2 1_555 1_555
Cu2_4 N2_4 1_555 1_555
N3_4 Cu2_4 1_555 1_555
C11_2 N2_4 1_555 1_555
C13_2 C11_2 1_555 1_555
C14_2 C13_2 1_555 1_555
C17_2 N11 1_555 1_555
C18_2 C14_2 1_555 1_555
C19_2 C13_2 1_555 1_555
N5_4 Cu2_4 1_555 1_555
C24_2 C23_2 1_555 1_555
N7_4 Cu2_4 1_555 1_555
C28_2 N7_4 1_555 1_555
C31_2 C28_2 1_555 1_555
C32_2 C31_2 1_555 1_555
C35_2 N8_2 1_555 1_555
C36_2 C32_2 1_555 1_555
C37_2 N3_4 1_555 1_555
Cu4_8 N8_2 1_555 1_555
C17_2 C18_2 1_555 1_555
C19_2 N5_4 1_555 1_555
C31_2 C37_2 1_555 1_555
C35_2 C36_2 1_555 1_555
C2_2 H1_2 1_555 1_555
C1_2 H3_2 1_555 1_555
C24_2 H5_2 1_555 1_555
C36_2 H6_2 1_555 1_555
C30_2 H7_2 1_555 1_555
C35_2 H8_2 1_555 1_555
C10_2 H10_2 1_555 1_555
C18_2 H13_2 1_555 1_555
C17_2 H16_2 1_555 1_555
C39_2 H18_2 1_555 1_555
C23_2 H19_2 1_555 1_555
C6_2 H23_2 1_555 1_555

#END
