
###############################################################################
#
# This file contains modified crystal structure data generated from the
# MOF subset of the Cambridge Structural Database (CSD) v543 
# hosted by the Cambridge Crystallographic Data Centre (CCDC).
#
# This work is licensed under the Creative Commons
# Attribution-NonCommercial-ShareAlike 4.0 International License.
# To view a copy of this license, visit
# http://creativecommons.org/licenses/by-nc-sa/4.0/
# or send a letter to
# Creative Commons, PO Box 1866, Mountain View, CA 94042, USA.
#
# CIF created using the CSD Python API on 29 September 2022
# The structure has been converted into the P1 space group
# The structure has a 3D framework
# The original CSD entry PIZPIX01 is in the monoclinic crystal system
# The framework has been calculated to contain at least 10.0% void space
# The void calculation uses a probe of radius 1.32A, grid spacing 0.4
#
###############################################################################

data_PIZPIX01
_chemical_formula_moiety         '(C24 H28 Er4 O32)n'
_symmetry_cell_setting           triclinic
_symmetry_space_group_name_H-M   'P 1'
_symmetry_Int_Tables_number      1
_space_group_name_Hall           'P 1'
loop_
_symmetry_equiv_pos_site_id
_symmetry_equiv_pos_as_xyz
1 x,y,z
_cell_length_a                   8.4570(10)
_cell_length_b                   17.2250(10)
_cell_length_c                   9.6900(10)
_cell_angle_alpha                90
_cell_angle_beta                 112.220(10)
_cell_angle_gamma                90
_cell_volume                     1306.74
loop_
_atom_site_label
_atom_site_type_symbol
_atom_site_fract_x
_atom_site_fract_y
_atom_site_fract_z
O3 O 0.4761(4) 0.6946(2) 0.0760(4)
O4 O 0.4118(5) 0.7313(2) 0.2684(4)
C3 C 0.1871(7) 0.7167(3) 0.0380(6)
C4 C 0.3711(6) 0.7138(3) 0.1326(5)
H3 H 0.141(13) 0.730(5) 0.096(11)
O13 O 0.4761(4) 0.8054(2) 0.5760(4)
O14 O 0.4118(5) 0.7687(2) 0.7684(4)
C10 C 0.1235(6) 0.8010(3) 0.3973(5)
C11 C 0.1871(7) 0.7833(3) 0.5380(6)
C12 C 0.3711(6) 0.7862(3) 0.6326(5)
H9 H 0.194(11) 0.818(6) 0.344(10)
H10 H 0.141(13) 0.770(5) 0.596(11)
Er5 Er 0.65586(3) 0.757401(12) 0.47608(2)
Er7 Er 0.65586(3) 0.742599(12) 0.97608(2)
C2 C 0.1235(6) 0.6990(3) 0.8973(5)
H2 H 0.194(11) 0.682(6) 0.844(10)
C7 C 0.4459(7) 0.0145(3) 0.0287(6)
C8 C 0.4053(7) 0.0985(3) 0.0256(6)
O9 O 0.3142(5) 0.1221(2) 0.0916(4)
Er6 Er 0.34414(3) 0.257401(12) 0.02392(2)
H1 H 0.609(11) 0.020(6) 0.917(9)
O10 O 0.4644(5) 0.1452(2) 0.9546(4)
O6 O 0.5356(5) 0.8548(2) 0.0454(4)
O8 O 0.8027(5) 0.6371(2) 0.1338(5)
H6 H 0.7857 0.5941 0.1060
H7 H 0.8969 0.6327 0.1997
H8 H 0.391(11) 0.980(6) 0.083(9)
O11 O 0.8366(5) 0.7700(3) 0.3610(4)
O12 O 0.8968(5) 0.7964(2) 0.1637(4)
C9 C 0.9389(6) 0.7892(3) 0.3014(5)
O15 O 0.5735(5) 0.8782(2) 0.3383(4)
H11 H 0.6568 0.9148 0.3263
H12 H 0.5459 0.8661 0.2528
O16 O 0.8027(5) 0.8629(2) 0.6338(5)
H13 H 0.7857 0.9059 0.6060
H14 H 0.8969 0.8673 0.6997
O19 O 0.8968(5) 0.7036(2) 0.6637(4)
O22 O 0.6858(5) 0.6221(2) 0.4084(4)
O23 O 0.5356(5) 0.6452(2) 0.5454(4)
O1 O 0.8366(5) 0.7300(3) 0.8610(4)
O5 O 0.6858(5) 0.8779(2) 0.9084(4)
C1 C 0.9389(6) 0.7108(3) 0.8014(5)
C5 C 0.5947(7) 0.9015(3) 0.9744(6)
C6 C 0.5541(7) 0.9855(3) 0.9713(6)
O7 O 0.5735(5) 0.6218(2) 0.8383(4)
H4 H 0.6568 0.5852 0.8263
H5 H 0.5459 0.6339 0.7528
Er1 Er 0.34414(3) 0.242599(12) 0.52392(2)
O1_2 O 0.1634(5) 0.2300(3) 0.6390(4)
O2 O 0.1032(5) 0.2036(2) 0.8363(4)
O5_2 O 0.3142(5) 0.3779(2) 0.5916(4)
O6_2 O 0.4644(5) 0.3548(2) 0.4546(4)
C1_2 C 0.0611(6) 0.2108(3) 0.6986(5)
C5_2 C 0.4053(7) 0.4015(3) 0.5256(6)
C6_2 C 0.4459(7) 0.4855(3) 0.5287(6)
O7_2 O 0.4265(5) 0.1218(2) 0.6617(4)
O8_2 O 0.1973(5) 0.1371(2) 0.3662(5)
H1_2 H 0.391(11) 0.520(6) 0.583(9)
H4_2 H 0.3432 0.0852 0.6737
H5_2 H 0.4541 0.1339 0.7472
H6_2 H 0.2143 0.0941 0.3940
H7_2 H 0.1031 0.1327 0.3003
C7_2 C 0.5541(7) 0.5145(3) 0.4713(6)
C8_2 C 0.5947(7) 0.5985(3) 0.4744(6)
H8_2 H 0.609(11) 0.480(6) 0.417(9)
O11_2 O 0.1634(5) 0.2700(3) 0.1390(4)
O12_2 O 0.1032(5) 0.2964(2) 0.3363(4)
C9_2 C 0.0611(6) 0.2892(3) 0.1986(5)
O15_2 O 0.4265(5) 0.3782(2) 0.1617(4)
H11_2 H 0.3432 0.4148 0.1737
H12_2 H 0.4541 0.3661 0.2472
O17 O 0.5239(4) 0.1946(2) 0.4240(4)
O18 O 0.5882(5) 0.2687(2) 0.7316(4)
O21 O 0.5882(5) 0.2313(2) 0.2316(4)
O16_2 O 0.1973(5) 0.3629(2) 0.8662(5)
H13_2 H 0.2143 0.4059 0.8940
H14_2 H 0.1031 0.3673 0.8003
O20 O 0.5239(4) 0.3054(2) 0.9240(4)
C2_2 C 0.8765(6) 0.1990(3) 0.6027(5)
C3_2 C 0.8129(7) 0.2167(3) 0.4620(6)
C4_2 C 0.6289(6) 0.2138(3) 0.3674(5)
H2_2 H 0.806(11) 0.182(6) 0.656(10)
H3_2 H 0.859(13) 0.230(5) 0.404(11)
C10_2 C 0.8765(6) 0.3010(3) 0.1027(5)
H9_2 H 0.806(11) 0.318(6) 0.156(10)
C11_2 C 0.8129(7) 0.2833(3) 0.9620(6)
C12_2 C 0.6289(6) 0.2862(3) 0.8674(5)
H10_2 H 0.859(13) 0.270(5) 0.904(11)
loop_
_geom_bond_atom_site_label_1
_geom_bond_atom_site_label_2
_geom_bond_site_symmetry_1
_geom_bond_site_symmetry_2
O3 C4 1_555 1_555
O4 C4 1_555 1_555
C3 C4 1_555 1_555
H3 C3 1_555 1_555
O13 C12 1_555 1_555
O14 C12 1_555 1_555
C11 C10 1_555 1_555
C12 C11 1_555 1_555
H9 C10 1_555 1_555
H10 C11 1_555 1_555
Er5 O4 1_555 1_555
Er7 O14 1_555 1_555
O13 Er5 1_555 1_555
H2 C2 1_555 1_555
C8 C7 1_555 1_555
O9 C8 1_555 1_555
Er6 O9 1_555 1_555
H6 O8 1_555 1_555
H7 O8 1_555 1_555
O11 C9 1_555 1_555
C9 O12 1_555 1_555
Er5 O11 1_555 1_555
O15 Er5 1_555 1_555
H11 O15 1_555 1_555
H12 O15 1_555 1_555
O16 Er5 1_555 1_555
H13 O16 1_555 1_555
H14 O16 1_555 1_555
O19 Er5 1_555 1_555
O22 Er5 1_555 1_555
O23 Er5 1_555 1_555
Er7 O1 1_555 1_555
O1 C1 1_555 1_555
O19 C1 1_555 1_555
O5 Er7 1_555 1_555
C5 O5 1_555 1_555
C6 C5 1_555 1_555
O7 Er7 1_555 1_555
H4 O7 1_555 1_555
H5 O7 1_555 1_555
Er1 O1_2 1_555 1_555
O1_2 C1_2 1_555 1_555
O2 C1_2 1_555 1_555
O5_2 Er1 1_555 1_555
O6_2 Er1 1_555 1_555
C5_2 O5_2 1_555 1_555
C6_2 C5_2 1_555 1_555
O7_2 Er1 1_555 1_555
O8_2 Er1 1_555 1_555
H1_2 C6_2 1_555 1_555
H4_2 O7_2 1_555 1_555
H5_2 O7_2 1_555 1_555
H6_2 O8_2 1_555 1_555
H7_2 O8_2 1_555 1_555
C7_2 C6_2 1_555 1_555
C8_2 C7_2 1_555 1_555
O22 C8_2 1_555 1_555
O23 C8_2 1_555 1_555
H8_2 C7_2 1_555 1_555
O11_2 C9_2 1_555 1_555
O12_2 Er1 1_555 1_555
C9_2 O12_2 1_555 1_555
Er6 O11_2 1_555 1_555
O15_2 Er6 1_555 1_555
H11_2 O15_2 1_555 1_555
H12_2 O15_2 1_555 1_555
O17 Er1 1_555 1_555
O18 Er1 1_555 1_555
O21 Er6 1_555 1_555
O6_2 C5_2 1_555 1_555
H13_2 O16_2 1_555 1_555
H14_2 O16_2 1_555 1_555
O17 C4_2 1_555 1_555
O21 C4_2 1_555 1_555
C2_2 C3_2 1_555 1_555
C3_2 C4_2 1_555 1_555
H2_2 C2_2 1_555 1_555
H3_2 C3_2 1_555 1_555
H9_2 C10_2 1_555 1_555
O20 C12_2 1_555 1_555
O18 C12_2 1_555 1_555
C12_2 C11_2 1_555 1_555
H10_2 C11_2 1_555 1_555

#END
