
###############################################################################
#
# This file contains modified crystal structure data generated from the
# MOF subset of the Cambridge Structural Database (CSD) v543 
# hosted by the Cambridge Crystallographic Data Centre (CCDC).
#
# This work is licensed under the Creative Commons
# Attribution-NonCommercial-ShareAlike 4.0 International License.
# To view a copy of this license, visit
# http://creativecommons.org/licenses/by-nc-sa/4.0/
# or send a letter to
# Creative Commons, PO Box 1866, Mountain View, CA 94042, USA.
#
# CIF created using the CSD Python API on 29 September 2022
# The structure has been converted into the P1 space group
# The structure has a 3D framework
# The original CSD entry PIZPIX02 is in the monoclinic crystal system
# The framework has been calculated to contain at least 10.0% void space
# The void calculation uses a probe of radius 1.32A, grid spacing 0.4
# H atom positions have been added when not included in the experimental data
# Generated hydrogen atom positions removed from atoms on special positions
#
###############################################################################

data_PIZPIX02
_chemical_formula_moiety         '(C24 H44 Er4 O32)n'
_symmetry_cell_setting           triclinic
_symmetry_space_group_name_H-M   'P 1'
_symmetry_Int_Tables_number      1
_space_group_name_Hall           'P 1'
loop_
_symmetry_equiv_pos_site_id
_symmetry_equiv_pos_as_xyz
1 x,y,z
_cell_length_a                   8.438(3)
_cell_length_b                   17.081(5)
_cell_length_c                   9.585(4)
_cell_angle_alpha                90
_cell_angle_beta                 111.72(3)
_cell_angle_gamma                90
_cell_volume                     1283.4
loop_
_atom_site_label
_atom_site_type_symbol
_atom_site_fract_x
_atom_site_fract_y
_atom_site_fract_z
Er6 Er 0.33691(2) 0.241996(13) 0.02177(2)
O13 O 0.1577(4) 0.2722(2) 0.6406(4)
O14 O 0.0942(4) 0.2997(2) 0.8407(4)
C12 C 0.0537(6) 0.2918(3) 0.7007(5)
Er5 Er 0.33691(2) 0.258004(13) 0.52177(2)
O6 O 0.5417(4) 0.6463(2) 0.0491(4)
O8 O 0.8133(4) 0.8625(2) 0.1376(4)
O9 O 0.3112(4) 0.3775(2) 0.0952(4)
C7 C 0.4023(6) 0.4014(3) 0.0251(5)
C8 C 0.4471(6) 0.4856(3) 0.0306(5)
H4 H 0.3990 0.5199 0.0792
O11 O 0.5851(5) 0.2674(2) 0.2281(4)
O12 O 0.5185(4) 0.3078(2) 0.4216(4)
O15 O 0.4165(4) 0.1194(2) 0.1578(4)
C9 C 0.6225(6) 0.2866(3) 0.3640(5)
C10 C 0.8090(6) 0.2837(3) 0.4606(5)
H5 H 0.8853 0.2674 0.4171
C11 C 0.8702(6) 0.3032(3) 0.6041(5)
H6 H 0.7969 0.3247 0.6463
O18 O 0.4815(4) 0.8078(2) 0.0784(4)
O19 O 0.1577(4) 0.2278(2) 0.1406(4)
O21 O 0.9058(4) 0.7003(2) 0.1593(4)
Er1 Er 0.66309(2) 0.758004(13) 0.97823(2)
O1 O 0.4149(5) 0.7326(2) 0.7719(4)
O2 O 0.4815(4) 0.6922(2) 0.5784(4)
O5 O 0.6888(4) 0.6225(2) 0.9048(4)
O7 O 0.5835(4) 0.8806(2) 0.8422(4)
C1 C 0.3775(6) 0.7134(3) 0.6360(5)
C2 C 0.1910(6) 0.7163(3) 0.5394(5)
H1 H 0.1147 0.7326 0.5829
C3 C 0.1298(6) 0.6968(3) 0.3959(5)
H2 H 0.2031 0.6753 0.3537
C5 C 0.5977(6) 0.5986(3) 0.9749(5)
C6 C 0.5529(6) 0.5144(3) 0.9694(5)
H3 H 0.6010 0.4801 0.9208
O10 O 0.4583(4) 0.3537(2) 0.9509(4)
O16 O 0.1867(4) 0.1375(2) 0.8624(4)
Er8 Er 0.66309(2) 0.741996(13) 0.47823(2)
O17 O 0.5185(4) 0.1922(2) 0.9216(4)
O20 O 0.8423(4) 0.7722(2) 0.8594(4)
O3 O 0.8423(4) 0.7278(2) 0.3594(4)
C4 C 0.9463(6) 0.7082(3) 0.2993(5)
O4 O 0.0942(4) 0.2003(2) 0.3407(4)
C4_2 C 0.0537(6) 0.2082(3) 0.2007(5)
C3_2 C 0.8702(6) 0.1968(3) 0.1041(5)
H2_2 H 0.7969 0.1753 0.1463
O1_2 O 0.5851(5) 0.2326(2) 0.7281(4)
O5_2 O 0.3112(4) 0.1225(2) 0.5952(4)
O6_2 O 0.4583(4) 0.1463(2) 0.4509(4)
O7_2 O 0.4165(4) 0.3806(2) 0.6578(4)
O8_2 O 0.1867(4) 0.3625(2) 0.3624(4)
C1_2 C 0.6225(6) 0.2134(3) 0.8640(5)
C2_2 C 0.8090(6) 0.2163(3) 0.9606(5)
H1_2 H 0.8853 0.2326 0.9171
C5_2 C 0.4023(6) 0.0986(3) 0.5251(5)
C6_2 C 0.4471(6) 0.0144(3) 0.5306(5)
H4_2 H 0.6010 0.0199 0.4208
H3_2 H 0.3990 0.9801 0.5792
O9_2 O 0.6888(4) 0.8775(2) 0.4048(4)
O10_2 O 0.5417(4) 0.8537(2) 0.5491(4)
C7_2 C 0.5977(6) 0.9014(3) 0.4749(5)
C8_2 C 0.5529(6) 0.9856(3) 0.4694(5)
O11_2 O 0.4149(5) 0.7674(2) 0.2719(4)
O15_2 O 0.5835(4) 0.6194(2) 0.3422(4)
O16_2 O 0.8133(4) 0.6375(2) 0.6376(4)
C9_2 C 0.3775(6) 0.7866(3) 0.1360(5)
C10_2 C 0.1910(6) 0.7837(3) 0.0394(5)
H5_2 H 0.1147 0.7674 0.0829
O22 O 0.9058(4) 0.7997(2) 0.6593(4)
C11_2 C 0.1298(6) 0.8032(3) 0.8959(5)
H6_2 H 0.2031 0.8247 0.8537
C12_2 C 0.9463(6) 0.7918(3) 0.7993(5)
loop_
_geom_bond_atom_site_label_1
_geom_bond_atom_site_label_2
_geom_bond_site_symmetry_1
_geom_bond_site_symmetry_2
O13 C12 1_555 1_555
O14 C12 1_555 1_555
Er5 O13 1_555 1_555
O9 C7 1_555 1_555
C7 C8 1_555 1_555
H4 C8 1_555 1_555
Er6 O9 1_555 1_555
O11 Er6 1_555 1_555
O12 C9 1_555 1_555
O15 Er6 1_555 1_555
C9 O11 1_555 1_555
C10 C9 1_555 1_555
H5 C10 1_555 1_555
C11 C10 1_555 1_555
H6 C11 1_555 1_555
Er5 O12 1_555 1_555
O19 Er6 1_555 1_555
Er1 O1 1_555 1_555
O1 C1 1_555 1_555
O2 C1 1_555 1_555
O5 Er1 1_555 1_555
O7 Er1 1_555 1_555
C1 C2 1_555 1_555
C2 H1 1_555 1_555
C3 C2 1_555 1_555
H2 C3 1_555 1_555
C5 O5 1_555 1_555
C6 C5 1_555 1_555
H3 C6 1_555 1_555
Er8 O2 1_555 1_555
O20 Er1 1_555 1_555
O3 C4 1_555 1_555
O21 C4 1_555 1_555
Er8 O3 1_555 1_555
O19 C4_2 1_555 1_555
O4 C4_2 1_555 1_555
Er5 O4 1_555 1_555
H2_2 C3_2 1_555 1_555
Er5 O1_2 1_555 1_555
O1_2 C1_2 1_555 1_555
O17 C1_2 1_555 1_555
O5_2 Er5 1_555 1_555
O6_2 Er5 1_555 1_555
O7_2 Er5 1_555 1_555
O8_2 Er5 1_555 1_555
C1_2 C2_2 1_555 1_555
C2_2 H1_2 1_555 1_555
C5_2 O5_2 1_555 1_555
C6_2 C5_2 1_555 1_555
O6_2 C5_2 1_555 1_555
O9_2 C7_2 1_555 1_555
O10_2 C7_2 1_555 1_555
C7_2 C8_2 1_555 1_555
Er8 O9_2 1_555 1_555
O11_2 Er8 1_555 1_555
O18 C9_2 1_555 1_555
O15_2 Er8 1_555 1_555
O16_2 Er8 1_555 1_555
C9_2 O11_2 1_555 1_555
C10_2 C9_2 1_555 1_555
H5_2 C10_2 1_555 1_555
O22 Er8 1_555 1_555
O10_2 Er8 1_555 1_555
H6_2 C11_2 1_555 1_555
O20 C12_2 1_555 1_555
O22 C12_2 1_555 1_555

#END
