
###############################################################################
#
# This file contains modified crystal structure data generated from the
# MOF subset of the Cambridge Structural Database (CSD) v543 
# hosted by the Cambridge Crystallographic Data Centre (CCDC).
#
# This work is licensed under the Creative Commons
# Attribution-NonCommercial-ShareAlike 4.0 International License.
# To view a copy of this license, visit
# http://creativecommons.org/licenses/by-nc-sa/4.0/
# or send a letter to
# Creative Commons, PO Box 1866, Mountain View, CA 94042, USA.
#
# CIF created using the CSD Python API on 29 September 2022
# The structure has been converted into the P1 space group
# The structure has a 3D framework
# The original CSD entry PIZQUM is in the orthorhombic crystal system
# The original CSD entry PIZQUM is in a Sohncke space group
# The framework has been calculated to contain at least 10.0% void space
# The void calculation uses a probe of radius 1.32A, grid spacing 0.4
#
###############################################################################

data_PIZQUM
_chemical_formula_moiety         '(C76 H96 Cu7 N24 O24)n'
_symmetry_cell_setting           triclinic
_symmetry_space_group_name_H-M   'P 1'
_symmetry_Int_Tables_number      1
_space_group_name_Hall           'P 1'
loop_
_symmetry_equiv_pos_site_id
_symmetry_equiv_pos_as_xyz
1 x,y,z
_cell_length_a                   13.014(3)
_cell_length_b                   14.394(3)
_cell_length_c                   16.306(3)
_cell_angle_alpha                90
_cell_angle_beta                 90
_cell_angle_gamma                90
_cell_volume                     3054.5
loop_
_atom_site_label
_atom_site_type_symbol
_atom_site_fract_x
_atom_site_fract_y
_atom_site_fract_z
H8 H 0.0021 0.3459 0.0256
Cu1 Cu 0.06007(7) 0.03701(6) 0.91414(5)
C2 C 0.0184(8) 0.0488(6) 0.7402(4)
C3 C 0.0698(12) 0.1163(8) 0.6792(6)
H4 H 0.0252 0.1683 0.6695
H5 H 0.0827 0.0847 0.6284
H6 H 0.1336 0.1380 0.7017
O8 O 0.2134(5) 0.1070(5) 0.9385(3)
O1 O 0.1140(5) 0.9484(4) 0.8298(3)
O2 O 0.1202(5) 0.9214(5) 0.6955(4)
C1 C 0.0889(6) 0.9657(6) 0.7549(5)
Cu5 Cu 0.20982(7) 0.79436(6) 0.66047(5)
O5 O 0.7134(5) 0.3930(5) 0.0615(3)
C6 C 0.8522(6) 0.3053(6) 0.0085(5)
H7 H 0.8507 0.2615 0.0545
C7 C 0.9371(8) 0.3770(7) 0.0208(6)
H9 H 0.9239 0.4119 0.0699
C8 C 0.7497(7) 0.3546(6) 0.0007(5)
Cu4 Cu 0.56007(7) 0.46299(6) 0.08586(5)
Cu2 Cu 0.79018(7) 0.29436(6) 0.83953(5)
O3 O 0.9795(5) 0.1380(4) 0.9734(3)
O4 O 0.8741(5) 0.1972(5) 0.7803(3)
O6 O 0.7094(4) 0.3572(4) 0.9283(3)
N1 N 0.9989(6) 0.0914(5) 0.8192(4)
N2 N 0.8694(5) 0.2562(5) 0.9319(4)
N3 N 0.4300(5) 0.0495(5) 0.5092(4)
N4 N 0.3971(6) 0.0202(5) 0.5822(4)
N5 N 0.7138(6) 0.3410(5) 0.6772(4)
H2 H 0.7727 0.3647 0.6654
N6 N 0.6884(5) 0.3074(5) 0.7517(4)
H3 H 0.9533 0.0269 0.7169
C4 C 0.9319(6) 0.1563(5) 0.8317(4)
C5 C 0.9278(6) 0.1839(5) 0.9218(4)
H10 H 0.9388 0.4184 0.9746
C9 C 0.3645(12) 0.0720(10) 0.7244(6)
H11 H 0.3420 0.0087 0.7293
H12 H 0.3088 0.1129 0.7381
H13 H 0.4208 0.0827 0.7612
C10 C 0.3986(7) 0.0904(7) 0.6375(5)
C11 C 0.4368(6) 0.1670(5) 0.5988(5)
C12 C 0.4553(7) 0.1384(6) 0.5182(5)
C13 C 0.4974(11) 0.1922(8) 0.4503(6)
H14 H 0.5006 0.1540 0.4021
H15 H 0.5653 0.2131 0.4642
H16 H 0.4542 0.2449 0.4399
C14 C 0.5385(10) 0.2354(10) 0.8173(5)
H17 H 0.5836 0.2359 0.8638
H18 H 0.5182 0.1727 0.8055
H19 H 0.4786 0.2720 0.8292
C15 C 0.5926(7) 0.2752(6) 0.7450(5)
C16 C 0.5564(6) 0.2894(5) 0.6632(4)
C17 C 0.4503(7) 0.2644(6) 0.6319(5)
H20 H 0.4017 0.2732 0.6763
H21 H 0.4322 0.3078 0.5888
C18 C 0.6362(7) 0.3328(6) 0.6240(5)
C19 C 0.6487(10) 0.3699(9) 0.5375(6)
H22 H 0.7162 0.3958 0.5313
H23 H 0.5982 0.4172 0.5276
H24 H 0.6396 0.3202 0.4989
O7 O 0.8798(5) 0.4214(5) 0.8045(4)
H1 H 0.3775 0.9643 0.5927
Cu3 Cu 0.43993(7) 0.96299(6) 0.41414(5)
O1_2 O 0.3860(5) 0.0516(4) 0.3298(3)
O2_2 O 0.3798(5) 0.0786(5) 0.1955(4)
C1_2 C 0.4111(6) 0.0343(6) 0.2549(5)
Cu5_2 Cu 0.29018(7) 0.20564(6) 0.16047(5)
Cu2_2 Cu 0.70982(7) 0.70564(6) 0.33953(5)
O3_2 O 0.5205(5) 0.8620(4) 0.4734(3)
O4_2 O 0.6259(5) 0.8028(5) 0.2803(3)
O5_2 O 0.7866(5) 0.6070(5) 0.5615(3)
O6_2 O 0.7906(4) 0.6428(4) 0.4283(3)
N1_2 N 0.5011(6) 0.9086(5) 0.3192(4)
N2_2 N 0.6306(5) 0.7438(5) 0.4319(4)
N5_2 N 0.7862(6) 0.6590(5) 0.1772(4)
H2_2 H 0.7273 0.6353 0.1654
N6_2 N 0.8116(5) 0.6926(5) 0.2517(4)
C2_2 C 0.4816(8) 0.9512(6) 0.2402(4)
H3_2 H 0.5467 0.9731 0.2169
C3_2 C 0.4302(12) 0.8837(8) 0.1792(6)
H4_2 H 0.4748 0.8317 0.1695
H5_2 H 0.4173 0.9153 0.1284
H6_2 H 0.3664 0.8620 0.2017
C4_2 C 0.5681(6) 0.8437(5) 0.3317(4)
C5_2 C 0.5722(6) 0.8161(5) 0.4218(4)
C6_2 C 0.6478(6) 0.6947(6) 0.5085(5)
H7_2 H 0.6493 0.7385 0.5545
C7_2 C 0.5629(8) 0.6230(7) 0.5208(6)
H8_2 H 0.4979 0.6541 0.5256
H9_2 H 0.5761 0.5881 0.5699
H10_2 H 0.5612 0.5816 0.4746
C8_2 C 0.7503(7) 0.6454(6) 0.5007(5)
C14_2 C 0.9615(10) 0.7646(10) 0.3173(5)
H17_2 H 0.9164 0.7641 0.3638
H18_2 H 0.9818 0.8273 0.3055
C15_2 C 0.9074(7) 0.7248(6) 0.2450(5)
C16_2 C 0.9436(6) 0.7106(5) 0.1632(4)
C18_2 C 0.8638(7) 0.6672(6) 0.1240(5)
C19_2 C 0.8513(10) 0.6301(9) 0.0375(6)
H22_2 H 0.7838 0.6042 0.0313
H23_2 H 0.9018 0.5828 0.0276
Cu4_2 Cu 0.93993(7) 0.53701(6) 0.58586(5)
O7_2 O 0.6202(5) 0.5786(5) 0.3045(4)
O8_2 O 0.2866(5) 0.8930(5) 0.4385(3)
O1_3 O 0.6140(5) 0.5516(4) 0.1702(3)
O3_3 O 0.4795(5) 0.3620(4) 0.0266(3)
O4_3 O 0.3741(5) 0.3028(5) 0.2197(3)
O6_3 O 0.2094(4) 0.1428(4) 0.0717(3)
N1_3 N 0.4989(6) 0.4086(5) 0.1808(4)
N2_3 N 0.3694(5) 0.2438(5) 0.0681(4)
N5_3 N 0.2138(6) 0.1590(5) 0.3228(4)
H2_3 H 0.2727 0.1353 0.3346
N6_3 N 0.1884(5) 0.1926(5) 0.2483(4)
C1_3 C 0.5889(6) 0.5343(6) 0.2451(5)
C2_3 C 0.5184(8) 0.4512(6) 0.2598(4)
H3_3 H 0.4533 0.4731 0.2831
C3_3 C 0.5698(12) 0.3837(8) 0.3208(6)
H4_3 H 0.5252 0.3317 0.3305
H5_3 H 0.5827 0.4153 0.3716
H6_3 H 0.6336 0.3620 0.2983
C4_3 C 0.4319(6) 0.3437(5) 0.1683(4)
C5_3 C 0.4278(6) 0.3161(5) 0.0782(4)
H10_3 H 0.4388 0.0816 0.0254
H14_2 H 0.0006 0.3460 0.5979
H15_2 H 0.0653 0.2869 0.5358
C14_3 C 0.0385(10) 0.2646(10) 0.1827(5)
H17_3 H 0.0836 0.2641 0.1362
H18_3 H 0.0182 0.3273 0.1945
C15_3 C 0.0926(7) 0.2248(6) 0.2550(5)
C16_3 C 0.0564(6) 0.2106(5) 0.3368(4)
C18_3 C 0.1362(7) 0.1672(6) 0.3760(5)
C19_3 C 0.1487(10) 0.1301(9) 0.4625(6)
H22_3 H 0.2162 0.1042 0.4687
H23_3 H 0.0982 0.0828 0.4724
H24_2 H 0.1396 0.1798 0.5011
C6_3 C 0.3522(6) 0.1947(6) 0.9915(5)
H7_3 H 0.3507 0.2385 0.9455
C7_3 C 0.4371(8) 0.1230(7) 0.9792(6)
H8_3 H 0.5021 0.1541 0.9744
H9_3 H 0.4239 0.0881 0.9301
C8_3 C 0.2497(7) 0.1454(6) 0.9993(5)
N7 N 0.5700(5) 0.5495(5) 0.9908(4)
N3_2 N 0.9300(5) 0.4505(5) 0.4908(4)
N4_2 N 0.8971(6) 0.4798(5) 0.4178(4)
H1_2 H 0.8775 0.5357 0.4073
C9_2 C 0.8645(12) 0.4280(10) 0.2756(6)
H11_2 H 0.8420 0.4913 0.2707
H12_2 H 0.8088 0.3871 0.2619
H13_2 H 0.9208 0.4173 0.2388
C10_2 C 0.8986(7) 0.4096(7) 0.3625(5)
C11_2 C 0.9368(6) 0.3330(5) 0.4012(5)
C12_2 C 0.9553(7) 0.3616(6) 0.4818(5)
C13_2 C 0.9974(11) 0.3078(8) 0.5497(6)
H16_2 H 0.9542 0.2551 0.5601
H19_2 H 0.9786 0.2280 0.1708
C17_2 C 0.9503(7) 0.2356(6) 0.3681(5)
H20_2 H 0.9017 0.2268 0.3237
H21_2 H 0.9322 0.1922 0.4112
C13_3 C 0.5026(11) 0.6922(8) 0.0497(6)
H14_3 H 0.4994 0.6540 0.0979
H15_3 H 0.4347 0.7131 0.0358
H16_3 H 0.5458 0.7449 0.0601
H24_3 H 0.3604 0.8202 0.0011
O3_4 O 0.0205(5) 0.6380(4) 0.5266(3)
O4_4 O 0.1259(5) 0.6972(5) 0.7197(3)
O6_4 O 0.2906(4) 0.8572(4) 0.5717(3)
N1_4 N 0.0011(6) 0.5914(5) 0.6808(4)
N2_4 N 0.1306(5) 0.7562(5) 0.5681(4)
N4_3 N 0.6029(6) 0.5202(5) 0.9178(4)
H1_3 H 0.6225 0.4643 0.9073
N5_4 N 0.2862(6) 0.8410(5) 0.8228(4)
H2_4 H 0.2273 0.8647 0.8346
N6_4 N 0.3116(5) 0.8074(5) 0.7483(4)
H3_4 H 0.0467 0.5269 0.7831
C4_4 C 0.0681(6) 0.6563(5) 0.6683(4)
C5_4 C 0.0722(6) 0.6839(5) 0.5782(4)
C6_4 C 0.1478(6) 0.8053(6) 0.4915(5)
H7_4 H 0.1493 0.7615 0.4455
C7_4 C 0.0629(8) 0.8770(7) 0.4792(6)
H9_4 H 0.0761 0.9119 0.4301
H10_4 H 0.0612 0.9184 0.5254
C8_4 C 0.2503(7) 0.8546(6) 0.4993(5)
C9_3 C 0.6355(12) 0.5720(10) 0.7756(6)
H11_3 H 0.6580 0.5087 0.7707
H12_3 H 0.6912 0.6129 0.7619
H13_3 H 0.5792 0.5827 0.7388
C10_3 C 0.6014(7) 0.5904(7) 0.8625(5)
C11_3 C 0.5632(6) 0.6670(5) 0.9012(5)
C12_3 C 0.5447(7) 0.6384(6) 0.9818(5)
C14_4 C 0.4615(10) 0.7354(10) 0.6827(5)
H17_4 H 0.4164 0.7359 0.6362
H18_4 H 0.4818 0.6727 0.6945
H19_3 H 0.5214 0.7720 0.6708
C15_4 C 0.4074(7) 0.7752(6) 0.7550(5)
C16_4 C 0.4436(6) 0.7894(5) 0.8368(4)
C17_3 C 0.5497(7) 0.7644(6) 0.8681(5)
H20_3 H 0.5983 0.7732 0.8237
H21_3 H 0.5678 0.8078 0.9112
C18_4 C 0.3638(7) 0.8328(6) 0.8760(5)
C19_4 C 0.3513(10) 0.8699(9) 0.9625(6)
H22_4 H 0.2838 0.8958 0.9687
H23_4 H 0.4018 0.9172 0.9724
O1_4 O 0.8860(5) 0.4484(4) 0.6702(3)
C1_4 C 0.9111(6) 0.4657(6) 0.7451(5)
C2_4 C 0.9816(8) 0.5488(6) 0.7598(4)
C3_4 C 0.9302(12) 0.6163(8) 0.8208(6)
H4_4 H 0.9748 0.6683 0.8305
H5_4 H 0.9173 0.5847 0.8716
H6_4 H 0.8664 0.6380 0.7983
H8_4 H 0.9979 0.8459 0.4744
N7_2 N 0.0700(5) 0.9505(5) 0.0092(4)
N4_4 N 0.1029(6) 0.9798(5) 0.0822(4)
C9_4 C 0.1355(12) 0.9280(10) 0.2244(6)
H11_4 H 0.1580 0.9913 0.2293
H12_4 H 0.1912 0.8871 0.2381
H13_4 H 0.0792 0.9173 0.2612
C10_4 C 0.1014(7) 0.9096(7) 0.1375(5)
C11_4 C 0.0632(6) 0.8330(5) 0.0988(5)
C12_4 C 0.0447(7) 0.8616(6) 0.0182(5)
H19_4 H 0.0214 0.7280 0.3292
C17_4 C 0.0497(7) 0.7356(6) 0.1319(5)
H20_4 H 0.0983 0.7268 0.1763
H21_4 H 0.0678 0.6922 0.0888
H1_4 H 0.1225 0.0357 0.0927
C13_4 C 0.0026(11) 0.8078(8) 0.9503(6)
H16_4 H 0.0458 0.7551 0.9399
H14_4 H 0.9994 0.8460 0.9021
H15_4 H 0.9347 0.7869 0.9642
H24_4 H 0.8604 0.6798 0.9989
loop_
_geom_bond_atom_site_label_1
_geom_bond_atom_site_label_2
_geom_bond_site_symmetry_1
_geom_bond_site_symmetry_2
C3 C2 1_555 1_555
H4 C3 1_555 1_555
H5 C3 1_555 1_555
H6 C3 1_555 1_555
O8 Cu1 1_555 1_555
O1 C1 1_555 1_555
O2 C1 1_555 1_555
Cu5 O2 1_555 1_555
O5 C8 1_555 1_555
H7 C6 1_555 1_555
C7 C6 1_555 1_555
H9 C7 1_555 1_555
Cu4 O5 1_555 1_555
C6 C8 1_555 1_555
Cu2 O4 1_555 1_555
O4 C4 1_555 1_555
O6 Cu2 1_555 1_555
N2 Cu2 1_555 1_555
N3 N4 1_555 1_555
N5 H2 1_555 1_555
N6 Cu2 1_555 1_555
C4 N1 1_555 1_555
C5 O3 1_555 1_555
C9 H11 1_555 1_555
H12 C9 1_555 1_555
H13 C9 1_555 1_555
C10 N4 1_555 1_555
C11 C10 1_555 1_555
C12 N3 1_555 1_555
C13 C12 1_555 1_555
H14 C13 1_555 1_555
H15 C13 1_555 1_555
H16 C13 1_555 1_555
C14 H17 1_555 1_555
H18 C14 1_555 1_555
H19 C14 1_555 1_555
C15 N6 1_555 1_555
C16 C15 1_555 1_555
C17 C11 1_555 1_555
H20 C17 1_555 1_555
H21 C17 1_555 1_555
C18 N5 1_555 1_555
C19 C18 1_555 1_555
H22 C19 1_555 1_555
H23 C19 1_555 1_555
H24 C19 1_555 1_555
O7 Cu2 1_555 1_555
N2 C5 1_555 1_555
N5 N6 1_555 1_555
C4 C5 1_555 1_555
C9 C10 1_555 1_555
C11 C12 1_555 1_555
C14 C15 1_555 1_555
C16 C17 1_555 1_555
C16 C18 1_555 1_555
O1_2 C1_2 1_555 1_555
O2_2 C1_2 1_555 1_555
Cu5_2 O2_2 1_555 1_555
Cu2_2 O4_2 1_555 1_555
O3_2 Cu3 1_555 1_555
O4_2 C4_2 1_555 1_555
O5_2 C8_2 1_555 1_555
O6_2 Cu2_2 1_555 1_555
N1_2 Cu3 1_555 1_555
N2_2 Cu2_2 1_555 1_555
N5_2 H2_2 1_555 1_555
N6_2 Cu2_2 1_555 1_555
C2_2 N1_2 1_555 1_555
H3_2 C2_2 1_555 1_555
C3_2 C2_2 1_555 1_555
H4_2 C3_2 1_555 1_555
H5_2 C3_2 1_555 1_555
H6_2 C3_2 1_555 1_555
C4_2 N1_2 1_555 1_555
C5_2 O3_2 1_555 1_555
C6_2 N2_2 1_555 1_555
H7_2 C6_2 1_555 1_555
C7_2 C6_2 1_555 1_555
H8_2 C7_2 1_555 1_555
H9_2 C7_2 1_555 1_555
H10_2 C7_2 1_555 1_555
C8_2 O6_2 1_555 1_555
C14_2 H17_2 1_555 1_555
H18_2 C14_2 1_555 1_555
C15_2 N6_2 1_555 1_555
C16_2 C15_2 1_555 1_555
C18_2 N5_2 1_555 1_555
C19_2 C18_2 1_555 1_555
H22_2 C19_2 1_555 1_555
H23_2 C19_2 1_555 1_555
Cu4_2 O5_2 1_555 1_555
O7_2 Cu2_2 1_555 1_555
O8_2 Cu3 1_555 1_555
N2_2 C5_2 1_555 1_555
N5_2 N6_2 1_555 1_555
C4_2 C5_2 1_555 1_555
C6_2 C8_2 1_555 1_555
C14_2 C15_2 1_555 1_555
C16_2 C18_2 1_555 1_555
Cu4 O1_3 1_555 1_555
Cu5_2 O4_3 1_555 1_555
O1_3 C1_3 1_555 1_555
O7_2 C1_3 1_555 1_555
O3_3 Cu4 1_555 1_555
O4_3 C4_3 1_555 1_555
O6_3 Cu5_2 1_555 1_555
N1_3 Cu4 1_555 1_555
N2_3 Cu5_2 1_555 1_555
N5_3 H2_3 1_555 1_555
N6_3 Cu5_2 1_555 1_555
C1_3 C2_3 1_555 1_555
C2_3 N1_3 1_555 1_555
H3_3 C2_3 1_555 1_555
C3_3 C2_3 1_555 1_555
H4_3 C3_3 1_555 1_555
H5_3 C3_3 1_555 1_555
H6_3 C3_3 1_555 1_555
C4_3 N1_3 1_555 1_555
C5_3 O3_3 1_555 1_555
C14_3 H17_3 1_555 1_555
H18_3 C14_3 1_555 1_555
C15_3 N6_3 1_555 1_555
C16_3 C15_3 1_555 1_555
C18_3 N5_3 1_555 1_555
C19_3 C18_3 1_555 1_555
H22_3 C19_3 1_555 1_555
H23_3 C19_3 1_555 1_555
H24_2 C19_3 1_555 1_555
N2_3 C5_3 1_555 1_555
N5_3 N6_3 1_555 1_555
C4_3 C5_3 1_555 1_555
C14_3 C15_3 1_555 1_555
C16_3 C18_3 1_555 1_555
O8 C8_3 1_555 1_555
H7_3 C6_3 1_555 1_555
C7_3 C6_3 1_555 1_555
H8_3 C7_3 1_555 1_555
H9_3 C7_3 1_555 1_555
C6_3 C8_3 1_555 1_555
N3_2 N4_2 1_555 1_555
N4_2 H1_2 1_555 1_555
C9_2 H11_2 1_555 1_555
H12_2 C9_2 1_555 1_555
H13_2 C9_2 1_555 1_555
C10_2 N4_2 1_555 1_555
C11_2 C10_2 1_555 1_555
C12_2 N3_2 1_555 1_555
C13_2 C12_2 1_555 1_555
H16_2 C13_2 1_555 1_555
C17_2 C11_2 1_555 1_555
H20_2 C17_2 1_555 1_555
H21_2 C17_2 1_555 1_555
Cu4_2 N3_2 1_555 1_555
C9_2 C10_2 1_555 1_555
C11_2 C12_2 1_555 1_555
H14_3 C13_3 1_555 1_555
H15_3 C13_3 1_555 1_555
H16_3 C13_3 1_555 1_555
Cu5 O4_4 1_555 1_555
O4_4 C4_4 1_555 1_555
O8_2 C8_4 1_555 1_555
O6_4 Cu5 1_555 1_555
N2_4 Cu5 1_555 1_555
N7 N4_3 1_555 1_555
N4_3 H1_3 1_555 1_555
N5_4 H2_4 1_555 1_555
N6_4 Cu5 1_555 1_555
C4_4 N1_4 1_555 1_555
C5_4 O3_4 1_555 1_555
C6_4 N2_4 1_555 1_555
H7_4 C6_4 1_555 1_555
C7_4 C6_4 1_555 1_555
H9_4 C7_4 1_555 1_555
H10_4 C7_4 1_555 1_555
C8_4 O6_4 1_555 1_555
C9_3 H11_3 1_555 1_555
H12_3 C9_3 1_555 1_555
H13_3 C9_3 1_555 1_555
C10_3 N4_3 1_555 1_555
C11_3 C10_3 1_555 1_555
C12_3 N7 1_555 1_555
C14_4 H17_4 1_555 1_555
H18_4 C14_4 1_555 1_555
H19_3 C14_4 1_555 1_555
C15_4 N6_4 1_555 1_555
C16_4 C15_4 1_555 1_555
C17_3 C11_3 1_555 1_555
H20_3 C17_3 1_555 1_555
H21_3 C17_3 1_555 1_555
C18_4 N5_4 1_555 1_555
C19_4 C18_4 1_555 1_555
H22_4 C19_4 1_555 1_555
H23_4 C19_4 1_555 1_555
N2_4 C5_4 1_555 1_555
N5_4 N6_4 1_555 1_555
C4_4 C5_4 1_555 1_555
C6_4 C8_4 1_555 1_555
C9_3 C10_3 1_555 1_555
C11_3 C12_3 1_555 1_555
C14_4 C15_4 1_555 1_555
C16_4 C17_3 1_555 1_555
C16_4 C18_4 1_555 1_555
Cu4_2 O1_4 1_555 1_555
O1_4 C1_4 1_555 1_555
O7 C1_4 1_555 1_555
C1_4 C2_4 1_555 1_555
C3_4 C2_4 1_555 1_555
H4_4 C3_4 1_555 1_555
H5_4 C3_4 1_555 1_555
H6_4 C3_4 1_555 1_555
N7_2 N4_4 1_555 1_555
C9_4 H11_4 1_555 1_555
H12_4 C9_4 1_555 1_555
H13_4 C9_4 1_555 1_555
C10_4 N4_4 1_555 1_555
C11_4 C10_4 1_555 1_555
C12_4 N7_2 1_555 1_555
C17_4 C11_4 1_555 1_555
H20_4 C17_4 1_555 1_555
H21_4 C17_4 1_555 1_555
C9_4 C10_4 1_555 1_555
C11_4 C12_4 1_555 1_555
H16_4 C13_4 1_555 1_555

#END
