
###############################################################################
#
# This file contains modified crystal structure data generated from the
# MOF subset of the Cambridge Structural Database (CSD) v543 
# hosted by the Cambridge Crystallographic Data Centre (CCDC).
#
# This work is licensed under the Creative Commons
# Attribution-NonCommercial-ShareAlike 4.0 International License.
# To view a copy of this license, visit
# http://creativecommons.org/licenses/by-nc-sa/4.0/
# or send a letter to
# Creative Commons, PO Box 1866, Mountain View, CA 94042, USA.
#
# CIF created using the CSD Python API on 29 September 2022
# The structure has been converted into the P1 space group
# The structure has a 3D framework
# The original CSD entry PIZRUN is in the orthorhombic crystal system
# The original CSD entry PIZRUN is in a Sohncke space group
# The framework has been calculated to contain at least 10.0% void space
# The void calculation uses a probe of radius 1.32A, grid spacing 0.4
#
###############################################################################

data_PIZRUN
_chemical_formula_moiety         '(C76 H96 Cu7 N24 O24)n'
_symmetry_cell_setting           triclinic
_symmetry_space_group_name_H-M   'P 1'
_symmetry_Int_Tables_number      1
_space_group_name_Hall           'P 1'
loop_
_symmetry_equiv_pos_site_id
_symmetry_equiv_pos_as_xyz
1 x,y,z
_cell_length_a                   13.041(3)
_cell_length_b                   14.411(4)
_cell_length_c                   16.307(4)
_cell_angle_alpha                90
_cell_angle_beta                 90
_cell_angle_gamma                90
_cell_volume                     3064.64
loop_
_atom_site_label
_atom_site_type_symbol
_atom_site_fract_x
_atom_site_fract_y
_atom_site_fract_z
O2 O 0.7877(4) 0.3924(3) 0.0625(2)
C1 C 0.7510(5) 0.3545(4) 0.0019(3)
C2 C 0.6473(5) 0.3047(4) 0.0093(3)
H1 H 0.6487 0.2607 0.0552
C3 C 0.5623(5) 0.3767(5) 0.0220(4)
H2 H 0.4975 0.3456 0.0270
H4 H 0.5758 0.4115 0.0710
H24 H 0.3776 0.0352 0.0935
Cu3 Cu 0.94018(5) 0.46302(4) 0.08598(4)
Cu1 Cu 0.44018(5) 0.03698(4) 0.91402(4)
O1 O 0.7909(3) 0.3573(3) 0.9287(2)
O3 O 0.6263(4) 0.1972(3) 0.7802(2)
O4 O 0.5207(3) 0.1373(3) 0.9734(2)
H3 H 0.5604 0.4180 0.9758
C4 C 0.5720(4) 0.1841(4) 0.9212(3)
C5 C 0.5671(5) 0.1563(4) 0.8310(3)
C6 C 0.4799(5) 0.0492(5) 0.7400(3)
H5 H 0.5444 0.0278 0.7157
C7 C 0.4288(9) 0.1167(6) 0.6809(5)
H6 H 0.4733 0.1687 0.6716
H7 H 0.3653 0.1380 0.7039
H8 H 0.4155 0.0859 0.6297
N1 N 0.6307(4) 0.2555(3) 0.9322(3)
N2 N 0.5018(4) 0.0918(3) 0.8185(3)
Cu2 Cu 0.70991(5) 0.29449(4) 0.83967(4)
O7 O 0.2877(4) 0.1076(3) 0.9375(2)
O8 O 0.6208(4) 0.4215(3) 0.8046(2)
N7 N 0.8113(4) 0.3067(3) 0.7516(3)
C9 C 0.6494(7) 0.6285(6) 0.0383(4)
H9 H 0.7165 0.6017 0.0330
H11 H 0.5985 0.5818 0.0284
C10 C 0.6362(5) 0.6671(4) 0.1249(3)
C11 C 0.5569(4) 0.7110(3) 0.1642(3)
C12 C 0.5921(5) 0.7248(4) 0.2445(3)
C13 C 0.5388(7) 0.7658(8) 0.3163(4)
H12 H 0.5836 0.7644 0.3631
H13 H 0.4780 0.7306 0.3280
H14 H 0.5204 0.8288 0.3043
C15 C 0.4560(5) 0.8614(4) 0.0184(3)
C16 C 0.4371(4) 0.8328(4) 0.0993(3)
C17 C 0.4508(5) 0.7358(4) 0.1332(4)
H18 H 0.4324 0.6919 0.0906
H19 H 0.4026 0.7276 0.1779
C18 C 0.3990(6) 0.9100(5) 0.1383(3)
C19 C 0.3648(8) 0.9287(7) 0.2250(4)
H20 H 0.3433 0.9922 0.2298
H21 H 0.4208 0.9174 0.2619
H22 H 0.3086 0.8885 0.2386
N3 N 0.6887(4) 0.6933(3) 0.2516(3)
N4 N 0.7132(4) 0.6592(3) 0.1779(3)
H23 H 0.7717 0.6350 0.1662
N5 N 0.3974(4) 0.9796(3) 0.0830(3)
N6 N 0.4307(4) 0.9510(3) 0.0093(3)
Cu4 Cu 0.79009(5) 0.70551(4) 0.33967(4)
O5 O 0.3792(4) 0.9215(3) 0.6954(2)
O6 O 0.3865(3) 0.9489(3) 0.8293(2)
C8 C 0.4113(4) 0.9659(4) 0.7544(3)
H10 H 0.6416 0.6778 0.9992
C14 C 0.4975(7) 0.8066(5) 0.9491(4)
H15 H 0.5009 0.8449 0.9011
H16 H 0.4536 0.7545 0.9387
H17 H 0.5650 0.7849 0.9627
Cu5 Cu 0.29009(5) 0.79449(4) 0.66033(4)
O5_2 O 0.1208(4) 0.0785(3) 0.1954(2)
O6_2 O 0.1135(3) 0.0511(3) 0.3293(2)
C8_2 C 0.0887(4) 0.0341(4) 0.2544(3)
H13_2 H 0.0220 0.2694 0.8280
C14_2 C 0.0025(7) 0.1934(5) 0.4491(4)
H16_2 H 0.0464 0.2455 0.4387
C15_2 C 0.0440(5) 0.1386(4) 0.5184(3)
C16_2 C 0.0629(4) 0.1672(4) 0.5993(3)
C17_2 C 0.0492(5) 0.2642(4) 0.6332(4)
H18_2 H 0.0676 0.3081 0.5906
H19_2 H 0.0974 0.2724 0.6779
C18_2 C 0.1010(6) 0.0900(5) 0.6383(3)
C19_2 C 0.1352(8) 0.0713(7) 0.7250(4)
H20_2 H 0.1567 0.0078 0.7298
H21_2 H 0.0792 0.0826 0.7619
H22_2 H 0.1914 0.1115 0.7386
N5_2 N 0.1026(4) 0.0204(3) 0.5830(3)
N6_2 N 0.0693(4) 0.0490(3) 0.5093(3)
Cu5_2 Cu 0.20991(5) 0.20551(4) 0.16033(4)
Cu1_2 Cu 0.05982(5) 0.96302(4) 0.41402(4)
H2_2 H 0.0025 0.6544 0.5270
C6_2 C 0.0201(5) 0.9508(5) 0.2400(3)
C7_2 C 0.0712(9) 0.8833(6) 0.1809(5)
H6_2 H 0.0267 0.8313 0.1716
H7_2 H 0.1347 0.8620 0.2039
H8_2 H 0.0845 0.9141 0.1297
H24_2 H 0.1224 0.9648 0.5935
O7_2 O 0.2123(4) 0.8924(3) 0.4375(2)
C9_2 C 0.8506(7) 0.3715(6) 0.5383(4)
H9_2 H 0.7835 0.3983 0.5330
H10_2 H 0.8584 0.3222 0.4992
H11_2 H 0.9015 0.4182 0.5284
C10_2 C 0.8638(5) 0.3329(4) 0.6249(3)
C11_2 C 0.9431(4) 0.2890(3) 0.6642(3)
C12_2 C 0.9079(5) 0.2752(4) 0.7445(3)
C13_2 C 0.9612(7) 0.2342(8) 0.8163(4)
H12_2 H 0.9164 0.2356 0.8631
H14_2 H 0.9796 0.1712 0.8043
H15_2 H 0.9991 0.1551 0.4011
H17_2 H 0.9350 0.2151 0.4627
N4_2 N 0.7868(4) 0.3408(3) 0.6779(3)
H23_2 H 0.7283 0.3650 0.6662
O1_2 O 0.7091(3) 0.6427(3) 0.4287(2)
O2_2 O 0.7123(4) 0.6076(3) 0.5625(2)
O3_2 O 0.8737(4) 0.8028(3) 0.2802(2)
O4_2 O 0.9793(3) 0.8627(3) 0.4734(2)
C1_2 C 0.7490(5) 0.6455(4) 0.5019(3)
C2_2 C 0.8527(5) 0.6953(4) 0.5093(3)
H1_2 H 0.8513 0.7393 0.5552
C3_2 C 0.9377(5) 0.6233(5) 0.5220(4)
H3_2 H 0.9396 0.5820 0.4758
H4_2 H 0.9242 0.5885 0.5710
C4_2 C 0.9280(4) 0.8159(4) 0.4212(3)
C5_2 C 0.9329(5) 0.8437(4) 0.3310(3)
H5_2 H 0.9556 0.9722 0.2157
N1_2 N 0.8693(4) 0.7445(3) 0.4322(3)
N2_2 N 0.9982(4) 0.9082(3) 0.3185(3)
Cu3_2 Cu 0.55982(5) 0.53698(4) 0.58598(4)
O8_2 O 0.8792(4) 0.5785(3) 0.3046(2)
O1_3 O 0.2909(3) 0.1427(3) 0.0713(2)
O3_3 O 0.1263(4) 0.3028(3) 0.2198(2)
O4_3 O 0.0207(3) 0.3627(3) 0.0266(2)
H3_3 H 0.0604 0.0820 0.0242
C4_3 C 0.0720(4) 0.3159(4) 0.0788(3)
C5_3 C 0.0671(5) 0.3437(4) 0.1690(3)
H5_3 H 0.0444 0.4722 0.2843
H10_3 H 0.1416 0.8222 0.0008
H15_3 H 0.0009 0.6551 0.0989
H17_3 H 0.0650 0.7151 0.0373
N1_3 N 0.1307(4) 0.2445(3) 0.0678(3)
N2_3 N 0.0018(4) 0.4082(3) 0.1815(3)
N7_2 N 0.3113(4) 0.1933(3) 0.2484(3)
C1_3 C 0.2510(5) 0.1455(4) 0.9981(3)
C2_3 C 0.1473(5) 0.1953(4) 0.9907(3)
H1_3 H 0.1487 0.2393 0.9448
C3_3 C 0.0623(5) 0.1233(5) 0.9780(4)
H4_3 H 0.0758 0.0885 0.9290
C9_3 C 0.1494(7) 0.8715(6) 0.9617(4)
H9_3 H 0.2165 0.8983 0.9670
H11_3 H 0.0985 0.9182 0.9716
C10_3 C 0.1362(5) 0.8329(4) 0.8751(3)
C11_3 C 0.0569(4) 0.7890(3) 0.8358(3)
C12_3 C 0.0921(5) 0.7752(4) 0.7555(3)
C13_3 C 0.0388(7) 0.7342(8) 0.6837(4)
H12_3 H 0.0836 0.7356 0.6369
H14_3 H 0.0204 0.6712 0.6957
N3_2 N 0.1887(4) 0.8067(3) 0.7484(3)
N4_3 N 0.2132(4) 0.8408(3) 0.8221(3)
H23_3 H 0.2717 0.8650 0.8338
O6_3 O 0.8865(3) 0.5511(3) 0.1707(2)
C6_3 C 0.9799(5) 0.4508(5) 0.2600(3)
C7_3 C 0.9288(9) 0.3833(6) 0.3191(5)
H6_3 H 0.9733 0.3313 0.3284
H7_3 H 0.8653 0.3620 0.2961
H8_3 H 0.9155 0.4141 0.3703
C8_3 C 0.9113(4) 0.5341(4) 0.2456(3)
C14_3 C 0.9975(7) 0.6934(5) 0.0509(4)
H16_3 H 0.9536 0.7455 0.0613
O1_4 O 0.2091(3) 0.8573(3) 0.5713(2)
O3_4 O 0.3737(4) 0.6972(3) 0.7198(2)
O4_4 O 0.4793(3) 0.6373(3) 0.5266(2)
O6_4 O 0.6135(3) 0.4489(3) 0.6707(2)
C1_4 C 0.2490(5) 0.8545(4) 0.4981(3)
C2_4 C 0.3527(5) 0.8047(4) 0.4907(3)
H1_4 H 0.3513 0.7607 0.4448
C3_4 C 0.4377(5) 0.8767(5) 0.4780(4)
H2_3 H 0.5025 0.8456 0.4730
H3_4 H 0.4396 0.9180 0.5242
H4_4 H 0.4242 0.9115 0.4290
C4_4 C 0.4280(4) 0.6841(4) 0.5788(3)
C5_4 C 0.4329(5) 0.6563(4) 0.6690(3)
C6_4 C 0.5201(5) 0.5492(5) 0.7600(3)
H5_4 H 0.4556 0.5278 0.7843
C7_4 C 0.5712(9) 0.6167(6) 0.8191(5)
H6_4 H 0.5267 0.6687 0.8284
H7_4 H 0.6347 0.6380 0.7961
H8_4 H 0.5845 0.5859 0.8703
C8_4 C 0.5887(4) 0.4659(4) 0.7456(3)
C9_4 C 0.3506(7) 0.1285(6) 0.4617(4)
H9_4 H 0.2835 0.1017 0.4670
H10_4 H 0.3584 0.1778 0.5008
H11_4 H 0.4015 0.0818 0.4716
C10_4 C 0.3638(5) 0.1671(4) 0.3751(3)
C11_4 C 0.4431(4) 0.2110(3) 0.3358(3)
C12_4 C 0.4079(5) 0.2248(4) 0.2555(3)
C13_4 C 0.4612(7) 0.2658(8) 0.1837(4)
H12_4 H 0.4164 0.2644 0.1369
H13_3 H 0.5220 0.2306 0.1720
H14_4 H 0.4796 0.3288 0.1957
C14_4 C 0.5025(7) 0.3066(5) 0.5509(4)
H15_4 H 0.4991 0.3449 0.5989
H16_4 H 0.5464 0.2545 0.5613
H17_4 H 0.4350 0.2849 0.5373
C15_3 C 0.5440(5) 0.3614(4) 0.4816(3)
C16_3 C 0.5629(4) 0.3328(4) 0.4007(3)
C17_3 C 0.5492(5) 0.2358(4) 0.3668(4)
H18_3 H 0.5676 0.1919 0.4094
H19_3 H 0.5974 0.2276 0.3221
C18_3 C 0.6010(6) 0.4100(5) 0.3617(3)
C19_3 C 0.6352(8) 0.4287(7) 0.2750(4)
H20_3 H 0.6567 0.4922 0.2702
H21_3 H 0.5792 0.4174 0.2381
H22_3 H 0.6914 0.3885 0.2614
N1_4 N 0.3693(4) 0.7555(3) 0.5678(3)
N2_4 N 0.4982(4) 0.5918(3) 0.6815(3)
N4_4 N 0.2868(4) 0.1592(3) 0.3221(3)
H23_4 H 0.2283 0.1350 0.3338
N5_3 N 0.6026(4) 0.4796(3) 0.4170(3)
H24_3 H 0.6224 0.5352 0.4065
N6_3 N 0.5693(4) 0.4510(3) 0.4907(3)
H2_4 H 0.9975 0.1544 0.9730
H13_4 H 0.9780 0.7694 0.6720
C15_4 C 0.9560(5) 0.6386(4) 0.9816(3)
C16_4 C 0.9371(4) 0.6672(4) 0.9007(3)
C17_4 C 0.9508(5) 0.7642(4) 0.8668(4)
H18_4 H 0.9324 0.8081 0.9094
H19_4 H 0.9026 0.7724 0.8221
C18_4 C 0.8990(6) 0.5900(5) 0.8617(3)
C19_4 C 0.8648(8) 0.5713(7) 0.7750(4)
H20_4 H 0.8433 0.5078 0.7702
H21_4 H 0.9208 0.5826 0.7381
H22_4 H 0.8086 0.6115 0.7614
N5_4 N 0.8974(4) 0.5204(3) 0.9170(3)
H24_4 H 0.8776 0.4648 0.9065
N6_4 N 0.9307(4) 0.5490(3) 0.9907(3)
loop_
_geom_bond_atom_site_label_1
_geom_bond_atom_site_label_2
_geom_bond_site_symmetry_1
_geom_bond_site_symmetry_2
O2 C1 1_555 1_555
C1 C2 1_555 1_555
C2 H1 1_555 1_555
C3 C2 1_555 1_555
H2 C3 1_555 1_555
H4 C3 1_555 1_555
Cu3 O2 1_555 1_555
Cu1 O4 1_555 1_555
O3 C5 1_555 1_555
O4 C4 1_555 1_555
C4 C5 1_555 1_555
C5 N2 1_555 1_555
C6 H5 1_555 1_555
C7 C6 1_555 1_555
H6 C7 1_555 1_555
H7 C7 1_555 1_555
H8 C7 1_555 1_555
N2 Cu1 1_555 1_555
Cu2 O1 1_555 1_555
O7 Cu1 1_555 1_555
O8 Cu2 1_555 1_555
N7 Cu2 1_555 1_555
O3 Cu2 1_555 1_555
C4 N1 1_555 1_555
C6 N2 1_555 1_555
N1 Cu2 1_555 1_555
C9 H9 1_555 1_555
H11 C9 1_555 1_555
C10 C9 1_555 1_555
C11 C10 1_555 1_555
C12 C11 1_555 1_555
C13 C12 1_555 1_555
H12 C13 1_555 1_555
H13 C13 1_555 1_555
H14 C13 1_555 1_555
C16 C15 1_555 1_555
C17 C11 1_555 1_555
H18 C17 1_555 1_555
H19 C17 1_555 1_555
C18 C16 1_555 1_555
C19 C18 1_555 1_555
H20 C19 1_555 1_555
H21 C19 1_555 1_555
H22 C19 1_555 1_555
N3 C12 1_555 1_555
N4 C10 1_555 1_555
H23 N4 1_555 1_555
N5 C18 1_555 1_555
Cu4 N3 1_555 1_555
C15 N6 1_555 1_555
C16 C17 1_555 1_555
N3 N4 1_555 1_555
N5 N6 1_555 1_555
O5 C8 1_555 1_555
C8 O6 1_555 1_555
C14 H15 1_555 1_555
H16 C14 1_555 1_555
H17 C14 1_555 1_555
Cu5 O5 1_555 1_555
O5_2 C8_2 1_555 1_555
C8_2 O6_2 1_555 1_555
H16_2 C14_2 1_555 1_555
C15_2 C14_2 1_555 1_555
C16_2 C15_2 1_555 1_555
H18_2 C17_2 1_555 1_555
H19_2 C17_2 1_555 1_555
C18_2 C16_2 1_555 1_555
C19_2 C18_2 1_555 1_555
H20_2 C19_2 1_555 1_555
H21_2 C19_2 1_555 1_555
H22_2 C19_2 1_555 1_555
N5_2 C18_2 1_555 1_555
Cu5_2 O5_2 1_555 1_555
C15_2 N6_2 1_555 1_555
C16_2 C17_2 1_555 1_555
N5_2 N6_2 1_555 1_555
C7_2 C6_2 1_555 1_555
H6_2 C7_2 1_555 1_555
H7_2 C7_2 1_555 1_555
H8_2 C7_2 1_555 1_555
O7_2 Cu1_2 1_555 1_555
C9_2 H9_2 1_555 1_555
H10_2 C9_2 1_555 1_555
H11_2 C9_2 1_555 1_555
C10_2 C9_2 1_555 1_555
C11_2 C10_2 1_555 1_555
C12_2 C11_2 1_555 1_555
C13_2 C12_2 1_555 1_555
H12_2 C13_2 1_555 1_555
H14_2 C13_2 1_555 1_555
N7 C12_2 1_555 1_555
N4_2 C10_2 1_555 1_555
H23_2 N4_2 1_555 1_555
N7 N4_2 1_555 1_555
O1_2 C1_2 1_555 1_555
O2_2 C1_2 1_555 1_555
O3_2 C5_2 1_555 1_555
O4_2 C4_2 1_555 1_555
C1_2 C2_2 1_555 1_555
C2_2 H1_2 1_555 1_555
C3_2 C2_2 1_555 1_555
H3_2 C3_2 1_555 1_555
H4_2 C3_2 1_555 1_555
C4_2 C5_2 1_555 1_555
C5_2 N2_2 1_555 1_555
N1_2 C2_2 1_555 1_555
Cu4 O1_2 1_555 1_555
Cu3_2 O2_2 1_555 1_555
O8_2 Cu4 1_555 1_555
O3_2 Cu4 1_555 1_555
C4_2 N1_2 1_555 1_555
N1_2 Cu4 1_555 1_555
O3_3 C5_3 1_555 1_555
O4_3 C4_3 1_555 1_555
C4_3 C5_3 1_555 1_555
C5_3 N2_3 1_555 1_555
Cu5_2 O1_3 1_555 1_555
N7_2 Cu5_2 1_555 1_555
O3_3 Cu5_2 1_555 1_555
C4_3 N1_3 1_555 1_555
N1_3 Cu5_2 1_555 1_555
O7 C1_3 1_555 1_555
C1_3 C2_3 1_555 1_555
C2_3 H1_3 1_555 1_555
C3_3 C2_3 1_555 1_555
H4_3 C3_3 1_555 1_555
C9_3 H9_3 1_555 1_555
H11_3 C9_3 1_555 1_555
C10_3 C9_3 1_555 1_555
C11_3 C10_3 1_555 1_555
C12_3 C11_3 1_555 1_555
C13_3 C12_3 1_555 1_555
H12_3 C13_3 1_555 1_555
H14_3 C13_3 1_555 1_555
N3_2 C12_3 1_555 1_555
N4_3 C10_3 1_555 1_555
H23_3 N4_3 1_555 1_555
Cu5 N3_2 1_555 1_555
N3_2 N4_3 1_555 1_555
O8_2 C8_3 1_555 1_555
O6_3 Cu3 1_555 1_555
C7_3 C6_3 1_555 1_555
H6_3 C7_3 1_555 1_555
H7_3 C7_3 1_555 1_555
H8_3 C7_3 1_555 1_555
C8_3 O6_3 1_555 1_555
H16_3 C14_3 1_555 1_555
C6_3 C8_3 1_555 1_555
Cu3_2 O4_4 1_555 1_555
O1_4 C1_4 1_555 1_555
O7_2 C1_4 1_555 1_555
O3_4 C5_4 1_555 1_555
O4_4 C4_4 1_555 1_555
O8 C8_4 1_555 1_555
O6_4 Cu3_2 1_555 1_555
C1_4 C2_4 1_555 1_555
C2_4 H1_4 1_555 1_555
C3_4 C2_4 1_555 1_555
H2_3 C3_4 1_555 1_555
H3_4 C3_4 1_555 1_555
H4_4 C3_4 1_555 1_555
C4_4 C5_4 1_555 1_555
C5_4 N2_4 1_555 1_555
C6_4 H5_4 1_555 1_555
C7_4 C6_4 1_555 1_555
H6_4 C7_4 1_555 1_555
H7_4 C7_4 1_555 1_555
H8_4 C7_4 1_555 1_555
C8_4 O6_4 1_555 1_555
C9_4 H9_4 1_555 1_555
H10_4 C9_4 1_555 1_555
H11_4 C9_4 1_555 1_555
C10_4 C9_4 1_555 1_555
C11_4 C10_4 1_555 1_555
C12_4 C11_4 1_555 1_555
C13_4 C12_4 1_555 1_555
H12_4 C13_4 1_555 1_555
H13_3 C13_4 1_555 1_555
H14_4 C13_4 1_555 1_555
C14_4 H15_4 1_555 1_555
H16_4 C14_4 1_555 1_555
H17_4 C14_4 1_555 1_555
C15_3 C14_4 1_555 1_555
C16_3 C15_3 1_555 1_555
C17_3 C11_4 1_555 1_555
H18_3 C17_3 1_555 1_555
H19_3 C17_3 1_555 1_555
C18_3 C16_3 1_555 1_555
C19_3 C18_3 1_555 1_555
H20_3 C19_3 1_555 1_555
H21_3 C19_3 1_555 1_555
H22_3 C19_3 1_555 1_555
N1_4 C2_4 1_555 1_555
N2_4 Cu3_2 1_555 1_555
N7_2 C12_4 1_555 1_555
N4_4 C10_4 1_555 1_555
H23_4 N4_4 1_555 1_555
N5_3 C18_3 1_555 1_555
H24_3 N5_3 1_555 1_555
N6_3 Cu3_2 1_555 1_555
Cu5 O1_4 1_555 1_555
O3_4 Cu5 1_555 1_555
C4_4 N1_4 1_555 1_555
C6_4 C8_4 1_555 1_555
C6_4 N2_4 1_555 1_555
C15_3 N6_3 1_555 1_555
C16_3 C17_3 1_555 1_555
N1_4 Cu5 1_555 1_555
N7_2 N4_4 1_555 1_555
N5_3 N6_3 1_555 1_555
C16_4 C15_4 1_555 1_555
H18_4 C17_4 1_555 1_555
H19_4 C17_4 1_555 1_555
C18_4 C16_4 1_555 1_555
C19_4 C18_4 1_555 1_555
H20_4 C19_4 1_555 1_555
H21_4 C19_4 1_555 1_555
H22_4 C19_4 1_555 1_555
N5_4 C18_4 1_555 1_555
H24_4 N5_4 1_555 1_555
C15_4 N6_4 1_555 1_555
C16_4 C17_4 1_555 1_555
N5_4 N6_4 1_555 1_555

#END
