
###############################################################################
#
# This file contains modified crystal structure data generated from the
# MOF subset of the Cambridge Structural Database (CSD) v543 
# hosted by the Cambridge Crystallographic Data Centre (CCDC).
#
# This work is licensed under the Creative Commons
# Attribution-NonCommercial-ShareAlike 4.0 International License.
# To view a copy of this license, visit
# http://creativecommons.org/licenses/by-nc-sa/4.0/
# or send a letter to
# Creative Commons, PO Box 1866, Mountain View, CA 94042, USA.
#
# CIF created using the CSD Python API on 29 September 2022
# The structure has been converted into the P1 space group
# The structure has a 3D framework
# The original CSD entry PIZRAT is in the orthorhombic crystal system
# The original CSD entry PIZRAT is in a Sohncke space group
# The framework has been calculated to contain at least 10.0% void space
# The void calculation uses a probe of radius 1.32A, grid spacing 0.4
#
###############################################################################

data_PIZRAT
_chemical_formula_moiety         '(C76 H96 Cu8 N24 O22)n'
_symmetry_cell_setting           triclinic
_symmetry_space_group_name_H-M   'P 1'
_symmetry_Int_Tables_number      1
_space_group_name_Hall           'P 1'
loop_
_symmetry_equiv_pos_site_id
_symmetry_equiv_pos_as_xyz
1 x,y,z
_cell_length_a                   13.492(2)
_cell_length_b                   14.377(2)
_cell_length_c                   16.191(3)
_cell_angle_alpha                90
_cell_angle_beta                 90
_cell_angle_gamma                90
_cell_volume                     3140.64
loop_
_atom_site_label
_atom_site_type_symbol
_atom_site_fract_x
_atom_site_fract_y
_atom_site_fract_z
Cu1 Cu 0.29940(4) 0.79326(4) 0.33602(3)
Cu2 Cu 0.57011(4) 0.54879(4) 0.41501(3)
N1 N 0.3782(3) 0.7608(3) 0.4289(2)
N2 N 0.5163(3) 0.6035(3) 0.3176(2)
N3 N 0.2990(3) 0.2023(3) 0.7477(2)
N4 N 0.2808(3) 0.1631(3) 0.6744(2)
H1 H 0.2259 0.1349 0.6615
N5 N 0.6002(3) 0.4906(3) 0.5848(3)
H2 H 0.6236 0.5458 0.5950
N6 N 0.5681(3) 0.4627(3) 0.5106(2)
C1 C 0.2547(4) 0.8518(3) 0.4984(3)
C2 C 0.4330(5) 0.8814(4) 0.5239(4)
H3 H 0.4979 0.8528 0.5293
H4 H 0.4167 0.9139 0.5746
H5 H 0.4338 0.9251 0.4783
C3 C 0.3557(4) 0.8063(4) 0.5075(3)
H6 H 0.3549 0.7603 0.5530
C4 C 0.4408(3) 0.6931(3) 0.4186(3)
C5 C 0.4475(3) 0.6650(3) 0.3290(3)
C6 C 0.5402(4) 0.5621(4) 0.2384(3)
H7 H 0.4783 0.5451 0.2092
C7 C 0.6017(7) 0.6281(5) 0.1843(4)
H8 H 0.5633 0.6835 0.1723
H9 H 0.6189 0.5971 0.1331
H10 H 0.6618 0.6454 0.2134
C8 C 0.6006(4) 0.4749(3) 0.2560(3)
C9 C 0.3516(6) 0.1343(5) 0.5360(4)
H11 H 0.2898 0.1005 0.5302
H12 H 0.4067 0.0924 0.5260
H13 H 0.3535 0.1848 0.4964
C10 C 0.3592(4) 0.1733(3) 0.6226(3)
C11 C 0.4299(4) 0.2240(3) 0.6639(3)
C12 C 0.3893(4) 0.2406(3) 0.7424(3)
C13 C 0.4312(5) 0.2898(5) 0.8140(3)
H14 H 0.3844 0.2879 0.8594
H15 H 0.4444 0.3540 0.7992
H16 H 0.4926 0.2600 0.8305
C14 C 0.5338(4) 0.2503(3) 0.6357(4)
H17 H 0.5514 0.2038 0.5963
H18 H 0.5716 0.2076 0.6676
C15 C 0.4947(5) 0.3218(4) 0.4498(4)
H19 H 0.4954 0.3599 0.4004
H20 H 0.4270 0.3045 0.4629
H21 H 0.5337 0.2661 0.4406
C16 C 0.5376(3) 0.3753(3) 0.5198(3)
C17 C 0.5509(3) 0.3469(3) 0.6023(3)
C18 C 0.5917(4) 0.4228(4) 0.6418(3)
C19 C 0.6235(6) 0.4413(5) 0.7286(4)
H22 H 0.6127 0.3861 0.7619
H23 H 0.5852 0.4925 0.7510
H24 H 0.6934 0.4572 0.7294
O1 O 0.2183(3) 0.8900(3) 0.5588(2)
O2 O 0.2154(2) 0.8510(2) 0.4252(2)
O3 O 0.3886(3) 0.7017(3) 0.2763(2)
O4 O 0.4930(3) 0.6511(2) 0.4717(2)
O5 O 0.6218(2) 0.4574(2) 0.3310(2)
O6 O 0.6272(3) 0.4272(2) 0.1967(2)
Cu3 Cu 0.20060(4) 0.20674(4) 0.83602(3)
Cu4 Cu 0.70060(4) 0.29326(4) 0.16398(3)
Cu5 Cu 0.07011(4) 0.95121(4) 0.58499(3)
N7 N 0.2010(3) 0.7977(3) 0.2477(2)
O7 O 0.7183(3) 0.6100(3) 0.4412(2)
O8 O 0.3728(3) 0.9272(2) 0.3033(2)
N4_2 N 0.2192(3) 0.8369(3) 0.1744(2)
H1_2 H 0.2741 0.8651 0.1615
C2_2 C 0.0670(5) 0.1186(4) 0.0239(4)
H3_2 H 0.0021 0.1472 0.0293
H4_2 H 0.0833 0.0861 0.0746
C3_2 C 0.1443(4) 0.1937(4) 0.0075(3)
H6_2 H 0.1451 0.2397 0.0530
C9_2 C 0.1484(6) 0.8657(5) 0.0360(4)
H11_2 H 0.2102 0.8995 0.0302
H12_2 H 0.0933 0.9076 0.0260
C10_2 C 0.1408(4) 0.8267(3) 0.1226(3)
C11_2 C 0.0701(4) 0.7760(3) 0.1639(3)
C12_2 C 0.1107(4) 0.7594(3) 0.2424(3)
C13_2 C 0.0688(5) 0.7102(5) 0.3140(3)
H14_2 H 0.1156 0.7121 0.3594
H15_2 H 0.0556 0.6460 0.2992
H16_2 H 0.0074 0.7400 0.3305
O1_2 O 0.2817(3) 0.1100(3) 0.0588(2)
Cu5_2 Cu 0.42989(4) 0.04879(4) 0.08499(3)
N1_2 N 0.1218(3) 0.2392(3) 0.9289(2)
C1_2 C 0.2453(4) 0.1482(3) 0.9984(3)
H5_2 H 0.0662 0.0749 0.9783
C4_2 C 0.0592(3) 0.3069(3) 0.9186(3)
C5_2 C 0.0525(3) 0.3350(3) 0.8290(3)
H7_2 H 0.0217 0.4549 0.7092
H13_2 H 0.1465 0.8152 0.9964
C15_2 C 0.0053(5) 0.6782(4) 0.9498(4)
H19_2 H 0.0046 0.6401 0.9004
H20_2 H 0.0730 0.6955 0.9629
O2_2 O 0.2846(2) 0.1490(2) 0.9252(2)
O3_2 O 0.1114(3) 0.2983(3) 0.7763(2)
O4_2 O 0.0070(3) 0.3489(2) 0.9717(2)
O8_2 O 0.1272(3) 0.0728(2) 0.8033(2)
Cu2_2 Cu 0.92989(4) 0.45121(4) 0.91501(3)
N2_2 N 0.9837(3) 0.3965(3) 0.8176(2)
C6_2 C 0.9598(4) 0.4379(4) 0.7384(3)
C7_2 C 0.8983(7) 0.3719(5) 0.6843(4)
H8_2 H 0.9367 0.3165 0.6723
H9_2 H 0.8811 0.4029 0.6331
H10_2 H 0.8382 0.3546 0.7134
C8_2 C 0.8994(4) 0.5251(3) 0.7560(3)
H21_2 H 0.9663 0.7339 0.9406
O5_2 O 0.8782(2) 0.5426(2) 0.8310(2)
O6_2 O 0.8728(3) 0.5728(2) 0.6967(2)
Cu4_2 Cu 0.79940(4) 0.70674(4) 0.66398(3)
O7_2 O 0.7817(3) 0.3900(3) 0.9412(2)
N5_2 N 0.1002(3) 0.0094(3) 0.4152(3)
N6_2 N 0.0681(3) 0.0373(3) 0.4894(2)
C8_3 C 0.1006(4) 0.0251(3) 0.7440(3)
C14_2 C 0.0338(4) 0.2497(3) 0.3643(4)
H17_2 H 0.0514 0.2962 0.4037
H18_2 H 0.0716 0.2924 0.3324
H21_3 H 0.0337 0.2339 0.5594
C16_2 C 0.0376(3) 0.1247(3) 0.4802(3)
C17_2 C 0.0509(3) 0.1531(3) 0.3977(3)
C18_2 C 0.0917(4) 0.0772(4) 0.3582(3)
C19_2 C 0.1235(6) 0.0587(5) 0.2714(4)
H22_2 H 0.1127 0.1139 0.2381
H23_2 H 0.0852 0.0075 0.2490
H24_2 H 0.1934 0.0428 0.2706
O5_3 O 0.1218(2) 0.0426(2) 0.6690(2)
N2_3 N 0.0163(3) 0.8965(3) 0.6824(2)
H2_2 H 0.1236 0.9542 0.4050
C6_3 C 0.0402(4) 0.9379(4) 0.7616(3)
C7_3 C 0.1017(7) 0.8719(5) 0.8157(4)
H8_3 H 0.0633 0.8165 0.8277
H9_3 H 0.1189 0.9029 0.8669
H10_3 H 0.1618 0.8546 0.7866
N3_2 N 0.7990(3) 0.2977(3) 0.2523(2)
N4_3 N 0.7808(3) 0.3369(3) 0.3256(2)
H1_3 H 0.7259 0.3651 0.3385
C9_3 C 0.8516(6) 0.3657(5) 0.4640(4)
H11_3 H 0.7898 0.3995 0.4698
H12_3 H 0.9067 0.4076 0.4740
H13_3 H 0.8535 0.3152 0.5036
C10_3 C 0.8592(4) 0.3267(3) 0.3774(3)
C11_3 C 0.9299(4) 0.2760(3) 0.3361(3)
C12_3 C 0.8893(4) 0.2594(3) 0.2576(3)
C13_3 C 0.9312(5) 0.2102(5) 0.1860(3)
H14_3 H 0.8844 0.2121 0.1406
H15_3 H 0.9444 0.1460 0.2008
H16_3 H 0.9926 0.2400 0.1695
C15_3 C 0.9947(5) 0.1782(4) 0.5502(4)
H19_3 H 0.9954 0.1401 0.5996
H20_3 H 0.9270 0.1955 0.5371
N1_3 N 0.8782(3) 0.7392(3) 0.5711(2)
C1_3 C 0.7547(4) 0.6482(3) 0.5016(3)
C2_3 C 0.9330(5) 0.6186(4) 0.4761(4)
H3_3 H 0.9979 0.6472 0.4707
H4_3 H 0.9167 0.5861 0.4254
H5_3 H 0.9338 0.5749 0.5217
C3_3 C 0.8557(4) 0.6937(4) 0.4925(3)
H6_3 H 0.8549 0.7397 0.4470
C4_3 C 0.9408(3) 0.8069(3) 0.5814(3)
C5_3 C 0.9475(3) 0.8350(3) 0.6710(3)
H7_3 H 0.9783 0.9549 0.7908
O2_3 O 0.7154(2) 0.6490(2) 0.5748(2)
O3_3 O 0.8886(3) 0.7983(3) 0.7237(2)
O4_3 O 0.9930(3) 0.8489(2) 0.5283(2)
N7_2 N 0.7010(3) 0.7023(3) 0.7523(2)
N1_4 N 0.6218(3) 0.2608(3) 0.0711(2)
N2_4 N 0.4837(3) 0.1035(3) 0.1824(2)
C1_4 C 0.7453(4) 0.3518(3) 0.0016(3)
H5_4 H 0.5662 0.4251 0.0217
C4_4 C 0.5592(3) 0.1931(3) 0.0814(3)
C5_4 C 0.5525(3) 0.1650(3) 0.1710(3)
C6_4 C 0.4598(4) 0.0621(4) 0.2616(3)
H7_4 H 0.5217 0.0451 0.2908
C7_4 C 0.3983(7) 0.1281(5) 0.3157(4)
H8_4 H 0.4367 0.1835 0.3277
H9_4 H 0.3811 0.0971 0.3669
H10_4 H 0.3382 0.1454 0.2866
O2_4 O 0.7846(2) 0.3510(2) 0.0748(2)
O3_4 O 0.6114(3) 0.2017(3) 0.2237(2)
O4_4 O 0.5070(3) 0.1511(2) 0.0283(2)
H2_3 H 0.3764 0.0458 0.9050
C2_4 C 0.5670(5) 0.3814(4) 0.9761(4)
H3_4 H 0.5021 0.3528 0.9707
H4_4 H 0.5833 0.4139 0.9254
C3_4 C 0.6443(4) 0.3063(4) 0.9925(3)
H6_4 H 0.6451 0.2603 0.9470
C8_4 C 0.3994(4) 0.9749(3) 0.2440(3)
H13_4 H 0.6465 0.6848 0.0036
C15_4 C 0.5053(5) 0.8218(4) 0.0502(4)
H19_4 H 0.5046 0.8599 0.0996
H20_4 H 0.5730 0.8045 0.0371
H21_4 H 0.4663 0.7661 0.0594
O5_4 O 0.3782(2) 0.9574(2) 0.1690(2)
N4_4 N 0.7192(3) 0.6631(3) 0.8256(2)
H1_4 H 0.7741 0.6349 0.8385
N5_3 N 0.3998(3) 0.9906(3) 0.9152(3)
N6_3 N 0.4319(3) 0.9627(3) 0.9894(2)
C9_4 C 0.6484(6) 0.6343(5) 0.9640(4)
H11_4 H 0.7102 0.6005 0.9698
H12_4 H 0.5933 0.5924 0.9740
C10_4 C 0.6408(4) 0.6733(3) 0.8774(3)
C11_4 C 0.5701(4) 0.7240(3) 0.8361(3)
C12_4 C 0.6107(4) 0.7406(3) 0.7576(3)
C13_4 C 0.5688(5) 0.7898(5) 0.6860(3)
H14_4 H 0.6156 0.7879 0.6406
H15_4 H 0.5556 0.8540 0.7008
H16_4 H 0.5074 0.7600 0.6695
C14_3 C 0.4662(4) 0.7503(3) 0.8643(4)
H17_3 H 0.4486 0.7038 0.9037
H18_3 H 0.4284 0.7076 0.8324
C16_3 C 0.4624(3) 0.8753(3) 0.9802(3)
C17_3 C 0.4491(3) 0.8469(3) 0.8977(3)
C18_3 C 0.4083(4) 0.9228(4) 0.8582(3)
C19_3 C 0.3765(6) 0.9413(5) 0.7714(4)
H22_3 H 0.3873 0.8861 0.7381
H23_3 H 0.4148 0.9925 0.7490
H24_3 H 0.3066 0.9572 0.7706
N5_4 N 0.8998(3) 0.5094(3) 0.0848(3)
H2_4 H 0.8764 0.4542 0.0950
N6_4 N 0.9319(3) 0.5373(3) 0.0106(2)
C14_4 C 0.9662(4) 0.7497(3) 0.1357(4)
H17_4 H 0.9486 0.7962 0.0963
H18_4 H 0.9284 0.7924 0.1676
C16_4 C 0.9624(3) 0.6247(3) 0.0198(3)
C17_4 C 0.9491(3) 0.6531(3) 0.1023(3)
C18_4 C 0.9083(4) 0.5772(4) 0.1418(3)
C19_4 C 0.8765(6) 0.5587(5) 0.2286(4)
H22_4 H 0.8873 0.6139 0.2619
H23_4 H 0.9148 0.5075 0.2510
H24_4 H 0.8066 0.5428 0.2294
loop_
_geom_bond_atom_site_label_1
_geom_bond_atom_site_label_2
_geom_bond_site_symmetry_1
_geom_bond_site_symmetry_2
Cu1 N1 1_555 1_555
Cu2 N2 1_555 1_555
N1 C3 1_555 1_555
N2 C5 1_555 1_555
N3 N4 1_555 1_555
N4 H1 1_555 1_555
N5 H2 1_555 1_555
N6 Cu2 1_555 1_555
C1 C3 1_555 1_555
C2 H3 1_555 1_555
H4 C2 1_555 1_555
H5 C2 1_555 1_555
C3 C2 1_555 1_555
H6 C3 1_555 1_555
C4 N1 1_555 1_555
C5 C4 1_555 1_555
C6 N2 1_555 1_555
H7 C6 1_555 1_555
C7 C6 1_555 1_555
H8 C7 1_555 1_555
H9 C7 1_555 1_555
H10 C7 1_555 1_555
C8 C6 1_555 1_555
C9 H11 1_555 1_555
H12 C9 1_555 1_555
H13 C9 1_555 1_555
C10 N4 1_555 1_555
C11 C10 1_555 1_555
C12 N3 1_555 1_555
C13 C12 1_555 1_555
H14 C13 1_555 1_555
H15 C13 1_555 1_555
H16 C13 1_555 1_555
C14 C11 1_555 1_555
H17 C14 1_555 1_555
H18 C14 1_555 1_555
C15 H19 1_555 1_555
H20 C15 1_555 1_555
H21 C15 1_555 1_555
C16 N6 1_555 1_555
C17 C14 1_555 1_555
C18 N5 1_555 1_555
C19 C18 1_555 1_555
H22 C19 1_555 1_555
H23 C19 1_555 1_555
H24 C19 1_555 1_555
O1 C1 1_555 1_555
O2 Cu1 1_555 1_555
O3 Cu1 1_555 1_555
O4 Cu2 1_555 1_555
O5 Cu2 1_555 1_555
O6 C8 1_555 1_555
Cu3 N3 1_555 1_555
Cu4 O6 1_555 1_555
Cu5 O1 1_555 1_555
N7 Cu1 1_555 1_555
O7 Cu2 1_555 1_555
O8 Cu1 1_555 1_555
N5 N6 1_555 1_555
C1 O2 1_555 1_555
C4 O4 1_555 1_555
C5 O3 1_555 1_555
C8 O5 1_555 1_555
C9 C10 1_555 1_555
C11 C12 1_555 1_555
C15 C16 1_555 1_555
C16 C17 1_555 1_555
C17 C18 1_555 1_555
N7 N4_2 1_555 1_555
N4_2 H1_2 1_555 1_555
C2_2 H3_2 1_555 1_555
H4_2 C2_2 1_555 1_555
C3_2 C2_2 1_555 1_555
H6_2 C3_2 1_555 1_555
C9_2 H11_2 1_555 1_555
H12_2 C9_2 1_555 1_555
C10_2 N4_2 1_555 1_555
C11_2 C10_2 1_555 1_555
C12_2 N7 1_555 1_555
C13_2 C12_2 1_555 1_555
H14_2 C13_2 1_555 1_555
H15_2 C13_2 1_555 1_555
H16_2 C13_2 1_555 1_555
Cu5_2 O1_2 1_555 1_555
C9_2 C10_2 1_555 1_555
C11_2 C12_2 1_555 1_555
Cu3 N1_2 1_555 1_555
C4_2 N1_2 1_555 1_555
C5_2 C4_2 1_555 1_555
C15_2 H19_2 1_555 1_555
H20_2 C15_2 1_555 1_555
O2_2 Cu3 1_555 1_555
O3_2 Cu3 1_555 1_555
O8_2 Cu3 1_555 1_555
C1_2 O2_2 1_555 1_555
C4_2 O4_2 1_555 1_555
C5_2 O3_2 1_555 1_555
Cu2_2 N2_2 1_555 1_555
C6_2 N2_2 1_555 1_555
C7_2 C6_2 1_555 1_555
H8_2 C7_2 1_555 1_555
H9_2 C7_2 1_555 1_555
H10_2 C7_2 1_555 1_555
C8_2 C6_2 1_555 1_555
O5_2 Cu2_2 1_555 1_555
O6_2 C8_2 1_555 1_555
Cu4_2 O6_2 1_555 1_555
O7_2 Cu2_2 1_555 1_555
C8_2 O5_2 1_555 1_555
H17_2 C14_2 1_555 1_555
H18_2 C14_2 1_555 1_555
C16_2 N6_2 1_555 1_555
C17_2 C14_2 1_555 1_555
C18_2 N5_2 1_555 1_555
C19_2 C18_2 1_555 1_555
H22_2 C19_2 1_555 1_555
H23_2 C19_2 1_555 1_555
H24_2 C19_2 1_555 1_555
O8_2 C8_3 1_555 1_555
N5_2 N6_2 1_555 1_555
C8_3 O5_3 1_555 1_555
C16_2 C17_2 1_555 1_555
C17_2 C18_2 1_555 1_555
Cu5 N2_3 1_555 1_555
C6_3 N2_3 1_555 1_555
C7_3 C6_3 1_555 1_555
H8_3 C7_3 1_555 1_555
H9_3 C7_3 1_555 1_555
H10_3 C7_3 1_555 1_555
N3_2 N4_3 1_555 1_555
N4_3 H1_3 1_555 1_555
C9_3 H11_3 1_555 1_555
H12_3 C9_3 1_555 1_555
H13_3 C9_3 1_555 1_555
C10_3 N4_3 1_555 1_555
C11_3 C10_3 1_555 1_555
C12_3 N3_2 1_555 1_555
C13_3 C12_3 1_555 1_555
H14_3 C13_3 1_555 1_555
H15_3 C13_3 1_555 1_555
H16_3 C13_3 1_555 1_555
C15_3 H19_3 1_555 1_555
H20_3 C15_3 1_555 1_555
Cu4 N3_2 1_555 1_555
C9_3 C10_3 1_555 1_555
C11_3 C12_3 1_555 1_555
Cu4_2 N1_3 1_555 1_555
N1_3 C3_3 1_555 1_555
C1_3 C3_3 1_555 1_555
C2_3 H3_3 1_555 1_555
H4_3 C2_3 1_555 1_555
H5_3 C2_3 1_555 1_555
C3_3 C2_3 1_555 1_555
H6_3 C3_3 1_555 1_555
C4_3 N1_3 1_555 1_555
C5_3 C4_3 1_555 1_555
O7 C1_3 1_555 1_555
O2_3 Cu4_2 1_555 1_555
O3_3 Cu4_2 1_555 1_555
N7_2 Cu4_2 1_555 1_555
C1_3 O2_3 1_555 1_555
C4_3 O4_3 1_555 1_555
C5_3 O3_3 1_555 1_555
Cu4 N1_4 1_555 1_555
Cu5_2 N2_4 1_555 1_555
N2_4 C5_4 1_555 1_555
C4_4 N1_4 1_555 1_555
C5_4 C4_4 1_555 1_555
C6_4 N2_4 1_555 1_555
H7_4 C6_4 1_555 1_555
C7_4 C6_4 1_555 1_555
H8_4 C7_4 1_555 1_555
H9_4 C7_4 1_555 1_555
H10_4 C7_4 1_555 1_555
O2_4 Cu4 1_555 1_555
O3_4 Cu4 1_555 1_555
O4_4 Cu5_2 1_555 1_555
C1_4 O2_4 1_555 1_555
C4_4 O4_4 1_555 1_555
C5_4 O3_4 1_555 1_555
C2_4 H3_4 1_555 1_555
H4_4 C2_4 1_555 1_555
C3_4 C2_4 1_555 1_555
H6_4 C3_4 1_555 1_555
C15_4 H19_4 1_555 1_555
H20_4 C15_4 1_555 1_555
H21_4 C15_4 1_555 1_555
O8 C8_4 1_555 1_555
C8_4 O5_4 1_555 1_555
N7_2 N4_4 1_555 1_555
N4_4 H1_4 1_555 1_555
C9_4 H11_4 1_555 1_555
H12_4 C9_4 1_555 1_555
C10_4 N4_4 1_555 1_555
C11_4 C10_4 1_555 1_555
C12_4 N7_2 1_555 1_555
C13_4 C12_4 1_555 1_555
H14_4 C13_4 1_555 1_555
H15_4 C13_4 1_555 1_555
H16_4 C13_4 1_555 1_555
C14_3 C11_4 1_555 1_555
H17_3 C14_3 1_555 1_555
H18_3 C14_3 1_555 1_555
C16_3 N6_3 1_555 1_555
C17_3 C14_3 1_555 1_555
C18_3 N5_3 1_555 1_555
C19_3 C18_3 1_555 1_555
H22_3 C19_3 1_555 1_555
H23_3 C19_3 1_555 1_555
H24_3 C19_3 1_555 1_555
N5_3 N6_3 1_555 1_555
C9_4 C10_4 1_555 1_555
C11_4 C12_4 1_555 1_555
C16_3 C17_3 1_555 1_555
C17_3 C18_3 1_555 1_555
N5_4 H2_4 1_555 1_555
H17_4 C14_4 1_555 1_555
H18_4 C14_4 1_555 1_555
C16_4 N6_4 1_555 1_555
C17_4 C14_4 1_555 1_555
C18_4 N5_4 1_555 1_555
C19_4 C18_4 1_555 1_555
H22_4 C19_4 1_555 1_555
H23_4 C19_4 1_555 1_555
H24_4 C19_4 1_555 1_555
N5_4 N6_4 1_555 1_555
C16_4 C17_4 1_555 1_555
C17_4 C18_4 1_555 1_555

#END
