
###############################################################################
#
# This file contains modified crystal structure data generated from the
# MOF subset of the Cambridge Structural Database (CSD) v543 
# hosted by the Cambridge Crystallographic Data Centre (CCDC).
#
# This work is licensed under the Creative Commons
# Attribution-NonCommercial-ShareAlike 4.0 International License.
# To view a copy of this license, visit
# http://creativecommons.org/licenses/by-nc-sa/4.0/
# or send a letter to
# Creative Commons, PO Box 1866, Mountain View, CA 94042, USA.
#
# CIF created using the CSD Python API on 29 September 2022
# The structure has been converted into the P1 space group
# The structure has a 3D framework
# The original CSD entry PIZRIB is in the orthorhombic crystal system
# The original CSD entry PIZRIB is in a Sohncke space group
# The framework has been calculated to contain at least 10.0% void space
# The void calculation uses a probe of radius 1.32A, grid spacing 0.4
#
###############################################################################

data_PIZRIB
_chemical_formula_moiety         '(C76 H96 Cu7 N24 O24)n'
_symmetry_cell_setting           triclinic
_symmetry_space_group_name_H-M   'P 1'
_symmetry_Int_Tables_number      1
_space_group_name_Hall           'P 1'
loop_
_symmetry_equiv_pos_site_id
_symmetry_equiv_pos_as_xyz
1 x,y,z
_cell_length_a                   13.0844(2)
_cell_length_b                   14.0741(2)
_cell_length_c                   16.4507(3)
_cell_angle_alpha                90
_cell_angle_beta                 90
_cell_angle_gamma                90
_cell_volume                     3029.42
loop_
_atom_site_label
_atom_site_type_symbol
_atom_site_fract_x
_atom_site_fract_y
_atom_site_fract_z
N1 N 0.0961(5) 0.4784(4) 0.0789(3)
N5 N 0.0733(4) 0.4452(4) 0.0054(3)
C7 C 0.0648(4) 0.3281(4) 0.0985(4)
C9 C 0.0553(6) 0.3527(4) 0.0164(4)
C13 C 0.0930(6) 0.4101(5) 0.1355(4)
C14 C 0.0522(5) 0.2291(4) 0.1333(4)
H7 H 0.1015 0.2207 0.1767
H8 H 0.0682 0.1833 0.0911
C16 C 0.1203(14) 0.4340(9) 0.2217(6)
H12 H 0.1403 0.4996 0.2249
H13 H 0.1758 0.3945 0.2392
H14 H 0.0621 0.4234 0.2561
H19 H 0.0328 0.2805 0.3035
H21 H 0.120(5) 0.541(5) 0.091(4)
C15 C 0.0362(13) 0.2882(7) 0.9471(5)
H10 H 0.0553 0.2247 0.9619
H11 H 0.0760 0.3084 0.9012
Cu4 Cu 0.05875(6) 0.53350(6) 0.91206(5)
Cu1 Cu 0.71444(7) 0.20566(6) 0.34215(5)
Cu2 Cu 0.44125(6) 0.46650(6) 0.41206(5)
O1 O 0.7955(4) 0.1441(3) 0.4311(3)
O2 O 0.6285(4) 0.3015(4) 0.2817(3)
O3 O 0.3866(3) 0.5541(3) 0.3268(3)
O4 O 0.5230(4) 0.3655(4) 0.4719(3)
N2 N 0.7856(4) 0.1631(4) 0.1801(3)
H1 H 0.7249 0.1442 0.1684
C1 C 0.5748(5) 0.3170(4) 0.4218(4)
N3 N 0.8170(4) 0.1899(4) 0.2551(3)
C2 C 0.9464(5) 0.2071(4) 0.1663(4)
C3 C 0.5697(5) 0.3439(4) 0.3325(4)
O5 O 0.7925(4) 0.1099(4) 0.5636(3)
O6 O 0.3763(5) 0.5759(4) 0.1933(3)
N4 N 0.5025(5) 0.4095(4) 0.3191(3)
N6 N 0.6340(4) 0.2457(4) 0.4322(3)
C4 C 0.7551(5) 0.1475(4) 0.5026(4)
C5 C 0.4087(5) 0.5327(5) 0.2537(4)
C6 C 0.9140(5) 0.2152(5) 0.2489(4)
C8 C 0.6517(5) 0.1980(5) 0.5091(4)
H2 H 0.6528 0.2442 0.5537
C10 C 0.8634(5) 0.1702(5) 0.1257(4)
C11 C 0.4797(8) 0.4488(7) 0.2395(4)
H3 H 0.5422 0.4686 0.2115
C12 C 0.5686(6) 0.1250(7) 0.5231(5)
H4 H 0.5030 0.1554 0.5203
H5 H 0.5772 0.0968 0.5758
H6 H 0.5728 0.0766 0.4822
C17 C 0.8474(8) 0.1364(8) 0.0406(5)
H15 H 0.7803 0.1094 0.0356
H16 H 0.8977 0.0890 0.0276
H17 H 0.8540 0.1889 0.0038
C18 C 0.9741(8) 0.2449(9) 0.3209(5)
H18 H 0.9324 0.2839 0.3555
H20 H 0.9961 0.1897 0.3504
C19 C 0.4164(17) 0.3756(10) 0.1864(8)
H22 H 0.4578 0.3208 0.1752
H23 H 0.3969 0.4051 0.1361
H24 H 0.3563 0.3565 0.2156
Cu3 Cu 0.28556(7) 0.70566(6) 0.15785(5)
Cu5 Cu 0.94125(6) 0.03350(6) 0.58794(5)
O7 O 0.2925(4) 0.3901(4) 0.4364(3)
O8 O 0.6237(5) 0.0759(4) 0.3067(3)
N7 N 0.4267(4) 0.5548(4) 0.5054(3)
O3_2 O 0.1134(3) 0.4459(3) 0.8268(3)
O6_2 O 0.1237(5) 0.4241(4) 0.6933(3)
C5_2 C 0.0913(5) 0.4673(5) 0.7537(4)
C11_2 C 0.0203(8) 0.5512(7) 0.7395(4)
C19_2 C 0.0836(17) 0.6244(10) 0.6864(8)
H22_2 H 0.0422 0.6792 0.6752
H23_2 H 0.1031 0.5949 0.6361
H24_2 H 0.1437 0.6435 0.7156
Cu3_2 Cu 0.21444(7) 0.29434(6) 0.65785(5)
O7_2 O 0.2075(4) 0.6099(4) 0.9364(3)
O5_2 O 0.7075(4) 0.8901(4) 0.0636(3)
C4_2 C 0.7449(5) 0.8525(4) 0.0026(4)
C8_2 C 0.8483(5) 0.8020(5) 0.0091(4)
H2_2 H 0.8472 0.7558 0.0537
C12_2 C 0.9314(6) 0.8750(7) 0.0231(5)
H4_2 H 0.9970 0.8446 0.0203
H5_2 H 0.9228 0.9032 0.0758
Cu5_2 Cu 0.55875(6) 0.96650(6) 0.08794(5)
Cu1_2 Cu 0.78556(7) 0.79434(6) 0.84215(5)
O1_2 O 0.7045(4) 0.8559(3) 0.9311(3)
O2_2 O 0.8715(4) 0.6985(4) 0.7817(3)
N1_2 N 0.4039(5) 0.5216(4) 0.5789(3)
O4_2 O 0.9770(4) 0.6345(4) 0.9719(3)
N2_2 N 0.7144(4) 0.8369(4) 0.6801(3)
H1_2 H 0.7751 0.8558 0.6684
C1_2 C 0.9252(5) 0.6830(4) 0.9218(4)
N3_2 N 0.6830(4) 0.8101(4) 0.7551(3)
C2_2 C 0.5536(5) 0.7929(4) 0.6663(4)
C3_2 C 0.9303(5) 0.6561(4) 0.8325(4)
N4_2 N 0.9975(5) 0.5905(4) 0.8191(3)
N6_2 N 0.8660(4) 0.7543(4) 0.9322(3)
C6_2 C 0.5860(5) 0.7848(5) 0.7489(4)
C7_2 C 0.4352(4) 0.6719(4) 0.5985(4)
C9_2 C 0.4447(6) 0.6473(4) 0.5164(4)
C10_2 C 0.6366(5) 0.8298(5) 0.6257(4)
H3_2 H 0.9578 0.5314 0.7115
H6_2 H 0.9272 0.9234 0.9822
C13_2 C 0.4070(6) 0.5899(5) 0.6355(4)
C14_2 C 0.4478(5) 0.7709(4) 0.6333(4)
H7_2 H 0.3985 0.7793 0.6767
H8_2 H 0.4318 0.8167 0.5911
C15_2 C 0.4638(13) 0.7118(7) 0.4471(5)
H9 H 0.5350 0.7103 0.4333
H10_2 H 0.4447 0.7753 0.4619
H11_2 H 0.4240 0.6916 0.4012
C16_2 C 0.3797(14) 0.5660(9) 0.7217(6)
H12_2 H 0.3597 0.5004 0.7249
H13_2 H 0.3242 0.6055 0.7392
H14_2 H 0.4379 0.5766 0.7561
C17_2 C 0.6526(8) 0.8636(8) 0.5406(5)
H15_2 H 0.7197 0.8906 0.5356
H16_2 H 0.6023 0.9110 0.5276
H17_2 H 0.6460 0.8111 0.5038
C18_2 C 0.5259(8) 0.7551(9) 0.8209(5)
H18_2 H 0.5676 0.7161 0.8555
H19_2 H 0.4672 0.7195 0.8035
H20_2 H 0.5039 0.8103 0.8504
H21_2 H 0.380(5) 0.459(5) 0.591(4)
O8_2 O 0.8763(5) 0.9241(4) 0.8067(3)
O1_3 O 0.2955(4) 0.3559(3) 0.5689(3)
O2_3 O 0.1285(4) 0.1985(4) 0.7183(3)
N1_3 N 0.5961(5) 0.0216(4) 0.9211(3)
O4_3 O 0.0230(4) 0.1345(4) 0.5281(3)
N2_3 N 0.2856(4) 0.3369(4) 0.8199(3)
H1_3 H 0.2249 0.3558 0.8316
C1_3 C 0.0748(5) 0.1830(4) 0.5782(4)
N3_3 N 0.3170(4) 0.3101(4) 0.7449(3)
C2_3 C 0.4464(5) 0.2929(4) 0.8337(4)
C3_3 C 0.0697(5) 0.1561(4) 0.6675(4)
N4_3 N 0.0025(5) 0.0905(4) 0.6809(3)
N5_2 N 0.5733(4) 0.0548(4) 0.9946(3)
N6_3 N 0.1340(4) 0.2543(4) 0.5678(3)
C4_3 C 0.2551(5) 0.3525(4) 0.4974(4)
C6_3 C 0.4140(5) 0.2848(5) 0.7511(4)
C7_3 C 0.5648(4) 0.1719(4) 0.9015(4)
C8_3 C 0.1517(5) 0.3020(5) 0.4909(4)
H2_3 H 0.1528 0.2558 0.4463
C9_3 C 0.5553(6) 0.1473(4) 0.9836(4)
C10_3 C 0.3634(5) 0.3298(5) 0.8743(4)
H3_3 H 0.0422 0.0314 0.7885
C12_3 C 0.0686(6) 0.3750(7) 0.4769(5)
H4_3 H 0.0030 0.3446 0.4797
H5_3 H 0.0772 0.4032 0.4242
H6_3 H 0.0728 0.4234 0.5178
C13_3 C 0.5930(6) 0.0899(5) 0.8645(4)
C14_3 C 0.5522(5) 0.2709(4) 0.8667(4)
H7_3 H 0.6015 0.2793 0.8233
H8_3 H 0.5682 0.3167 0.9089
C16_3 C 0.6203(14) 0.0660(9) 0.7783(6)
H12_3 H 0.6403 0.0004 0.7751
H13_3 H 0.6758 0.1055 0.7608
H14_3 H 0.5621 0.0766 0.7439
C17_3 C 0.3474(8) 0.3636(8) 0.9594(5)
H15_3 H 0.2803 0.3906 0.9644
H16_3 H 0.3977 0.4110 0.9724
H17_3 H 0.3540 0.3111 0.9962
C18_3 C 0.4741(8) 0.2551(9) 0.6791(5)
H18_3 H 0.4324 0.2161 0.6445
H19_3 H 0.5328 0.2195 0.6965
H20_3 H 0.4961 0.3103 0.6496
C11_3 C 0.9797(8) 0.0512(7) 0.7605(4)
C19_3 C 0.9164(17) 0.1244(10) 0.8136(8)
H22_3 H 0.9578 0.1792 0.8248
H23_3 H 0.8969 0.0949 0.8639
H24_3 H 0.8563 0.1435 0.7844
O3_3 O 0.8866(3) 0.9459(3) 0.6732(3)
C5_3 C 0.9087(5) 0.9673(5) 0.7463(4)
N7_2 N 0.9267(4) 0.9452(4) 0.4946(3)
O3_4 O 0.6134(3) 0.0541(3) 0.1732(3)
C5_4 C 0.5913(5) 0.0327(5) 0.2463(4)
O1_4 O 0.2045(4) 0.6441(3) 0.0689(3)
O2_4 O 0.3715(4) 0.8015(4) 0.2183(3)
O4_4 O 0.4770(4) 0.8655(4) 0.0281(3)
N2_4 N 0.2144(4) 0.6631(4) 0.3199(3)
H1_4 H 0.2751 0.6442 0.3316
C1_4 C 0.4252(5) 0.8170(4) 0.0782(4)
N3_4 N 0.1830(4) 0.6899(4) 0.2449(3)
C2_4 C 0.0536(5) 0.7071(4) 0.3337(4)
C3_4 C 0.4303(5) 0.8439(4) 0.1675(4)
N4_4 N 0.4975(5) 0.9095(4) 0.1809(3)
N6_4 N 0.3660(4) 0.7457(4) 0.0678(3)
C6_4 C 0.0860(5) 0.7152(5) 0.2511(4)
C10_4 C 0.1366(5) 0.6702(5) 0.3743(4)
C11_4 C 0.5203(8) 0.9488(7) 0.2605(4)
H3_4 H 0.4578 0.9686 0.2885
H6_4 H 0.4272 0.5766 0.0178
H9_2 H 0.0350 0.7897 0.5667
C17_4 C 0.1526(8) 0.6364(8) 0.4594(5)
H15_4 H 0.2197 0.6094 0.4644
H16_4 H 0.1023 0.5890 0.4724
H17_4 H 0.1460 0.6889 0.4962
C18_4 C 0.0259(8) 0.7449(9) 0.1791(5)
H18_4 H 0.0676 0.7839 0.1445
H20_4 H 0.0039 0.6897 0.1496
C19_4 C 0.5836(17) 0.8756(10) 0.3136(8)
H22_4 H 0.5422 0.8208 0.3248
H23_4 H 0.6031 0.9051 0.3639
H24_4 H 0.6437 0.8565 0.2844
C4_4 C 0.2449(5) 0.6475(4) 0.9974(4)
C8_4 C 0.3483(5) 0.6980(5) 0.9909(4)
H2_4 H 0.3472 0.7442 0.9463
C12_4 C 0.4314(6) 0.6250(7) 0.9769(5)
H4_4 H 0.4970 0.6554 0.9797
H5_4 H 0.4228 0.5968 0.9242
H21_3 H 0.880(5) 0.041(5) 0.409(4)
N1_4 N 0.9039(5) 0.9784(4) 0.4211(3)
C7_4 C 0.9352(4) 0.8281(4) 0.4015(4)
C9_4 C 0.9447(6) 0.8527(4) 0.4836(4)
C13_4 C 0.9070(6) 0.9101(5) 0.3645(4)
C14_4 C 0.9478(5) 0.7291(4) 0.3667(4)
H7_4 H 0.8985 0.7207 0.3233
H8_4 H 0.9318 0.6833 0.4089
C15_3 C 0.9638(13) 0.7882(7) 0.5529(5)
H10_3 H 0.9447 0.7247 0.5381
H11_3 H 0.9240 0.8084 0.5988
C16_4 C 0.8797(14) 0.9340(9) 0.2783(6)
H12_4 H 0.8597 0.9996 0.2751
H13_4 H 0.8242 0.8945 0.2608
H14_4 H 0.9379 0.9234 0.2439
H19_4 H 0.9672 0.7805 0.1965
H9_3 H 0.9650 0.2897 0.9333
C15_4 C 0.5362(13) 0.2118(7) 0.0529(5)
H9_4 H 0.4650 0.2103 0.0667
H10_4 H 0.5553 0.2753 0.0381
H11_4 H 0.5760 0.1916 0.0988
H21_4 H 0.620(5) 0.959(5) 0.909(4)
loop_
_geom_bond_atom_site_label_1
_geom_bond_atom_site_label_2
_geom_bond_site_symmetry_1
_geom_bond_site_symmetry_2
N1 N5 1_555 1_555
N5 C9 1_555 1_555
C7 C9 1_555 1_555
C13 N1 1_555 1_555
H7 C14 1_555 1_555
H8 C14 1_555 1_555
C16 C13 1_555 1_555
H12 C16 1_555 1_555
H13 C16 1_555 1_555
H14 C16 1_555 1_555
H21 N1 1_555 1_555
C7 C13 1_555 1_555
C7 C14 1_555 1_555
H10 C15 1_555 1_555
H11 C15 1_555 1_555
Cu1 O1 1_555 1_555
Cu2 O3 1_555 1_555
O1 C4 1_555 1_555
O2 Cu1 1_555 1_555
O3 C5 1_555 1_555
O4 Cu2 1_555 1_555
N2 H1 1_555 1_555
C1 O4 1_555 1_555
N3 Cu1 1_555 1_555
C2 C6 1_555 1_555
C3 O2 1_555 1_555
O5 C4 1_555 1_555
O6 C5 1_555 1_555
N4 Cu2 1_555 1_555
N6 Cu1 1_555 1_555
C4 C8 1_555 1_555
C5 C11 1_555 1_555
C6 N3 1_555 1_555
C8 N6 1_555 1_555
H2 C8 1_555 1_555
C10 N2 1_555 1_555
C11 N4 1_555 1_555
H3 C11 1_555 1_555
C12 C8 1_555 1_555
H4 C12 1_555 1_555
H5 C12 1_555 1_555
H6 C12 1_555 1_555
C17 C10 1_555 1_555
H15 C17 1_555 1_555
H16 C17 1_555 1_555
H17 C17 1_555 1_555
C18 C6 1_555 1_555
H18 C18 1_555 1_555
H20 C18 1_555 1_555
C19 C11 1_555 1_555
H22 C19 1_555 1_555
H23 C19 1_555 1_555
H24 C19 1_555 1_555
Cu3 O6 1_555 1_555
Cu5 O5 1_555 1_555
O7 Cu2 1_555 1_555
O8 Cu1 1_555 1_555
N7 Cu2 1_555 1_555
N2 N3 1_555 1_555
C1 C3 1_555 1_555
C1 N6 1_555 1_555
C2 C10 1_555 1_555
C3 N4 1_555 1_555
Cu4 O3_2 1_555 1_555
O3_2 C5_2 1_555 1_555
O6_2 C5_2 1_555 1_555
C5_2 C11_2 1_555 1_555
C19_2 C11_2 1_555 1_555
H22_2 C19_2 1_555 1_555
H23_2 C19_2 1_555 1_555
H24_2 C19_2 1_555 1_555
Cu3_2 O6_2 1_555 1_555
O7_2 Cu4 1_555 1_555
O5_2 C4_2 1_555 1_555
C4_2 C8_2 1_555 1_555
H2_2 C8_2 1_555 1_555
C12_2 C8_2 1_555 1_555
H4_2 C12_2 1_555 1_555
H5_2 C12_2 1_555 1_555
Cu5_2 O5_2 1_555 1_555
Cu1_2 O1_2 1_555 1_555
O2_2 Cu1_2 1_555 1_555
N1_2 N7 1_555 1_555
N2_2 H1_2 1_555 1_555
C1_2 O4_2 1_555 1_555
N3_2 Cu1_2 1_555 1_555
C2_2 C6_2 1_555 1_555
C3_2 O2_2 1_555 1_555
N7 C9_2 1_555 1_555
N6_2 Cu1_2 1_555 1_555
C6_2 N3_2 1_555 1_555
C7_2 C9_2 1_555 1_555
C9_2 C15_2 1_555 1_555
C10_2 N2_2 1_555 1_555
C13_2 N1_2 1_555 1_555
C14_2 C2_2 1_555 1_555
H7_2 C14_2 1_555 1_555
H8_2 C14_2 1_555 1_555
C15_2 H9 1_555 1_555
H10_2 C15_2 1_555 1_555
H11_2 C15_2 1_555 1_555
C16_2 C13_2 1_555 1_555
H12_2 C16_2 1_555 1_555
H13_2 C16_2 1_555 1_555
H14_2 C16_2 1_555 1_555
C17_2 C10_2 1_555 1_555
H15_2 C17_2 1_555 1_555
H16_2 C17_2 1_555 1_555
H17_2 C17_2 1_555 1_555
C18_2 C6_2 1_555 1_555
H18_2 C18_2 1_555 1_555
H19_2 C18_2 1_555 1_555
H20_2 C18_2 1_555 1_555
H21_2 N1_2 1_555 1_555
O8_2 Cu1_2 1_555 1_555
N2_2 N3_2 1_555 1_555
C1_2 C3_2 1_555 1_555
C1_2 N6_2 1_555 1_555
C2_2 C10_2 1_555 1_555
C3_2 N4_2 1_555 1_555
C7_2 C13_2 1_555 1_555
C7_2 C14_2 1_555 1_555
Cu3_2 O1_3 1_555 1_555
O1_3 C4_3 1_555 1_555
O2_3 Cu3_2 1_555 1_555
N1_3 N5_2 1_555 1_555
N2_3 H1_3 1_555 1_555
C1_3 O4_3 1_555 1_555
N3_3 Cu3_2 1_555 1_555
C2_3 C6_3 1_555 1_555
C3_3 O2_3 1_555 1_555
O7 C4_3 1_555 1_555
N5_2 C9_3 1_555 1_555
N6_3 Cu3_2 1_555 1_555
C4_3 C8_3 1_555 1_555
C6_3 N3_3 1_555 1_555
C7_3 C9_3 1_555 1_555
C8_3 N6_3 1_555 1_555
H2_3 C8_3 1_555 1_555
C10_3 N2_3 1_555 1_555
C12_3 C8_3 1_555 1_555
H4_3 C12_3 1_555 1_555
H5_3 C12_3 1_555 1_555
H6_3 C12_3 1_555 1_555
C13_3 N1_3 1_555 1_555
C14_3 C2_3 1_555 1_555
H7_3 C14_3 1_555 1_555
H8_3 C14_3 1_555 1_555
C16_3 C13_3 1_555 1_555
H12_3 C16_3 1_555 1_555
H13_3 C16_3 1_555 1_555
H14_3 C16_3 1_555 1_555
C17_3 C10_3 1_555 1_555
H15_3 C17_3 1_555 1_555
H16_3 C17_3 1_555 1_555
H17_3 C17_3 1_555 1_555
C18_3 C6_3 1_555 1_555
H18_3 C18_3 1_555 1_555
H19_3 C18_3 1_555 1_555
H20_3 C18_3 1_555 1_555
N2_3 N3_3 1_555 1_555
C1_3 C3_3 1_555 1_555
C1_3 N6_3 1_555 1_555
C2_3 C10_3 1_555 1_555
C3_3 N4_3 1_555 1_555
C7_3 C13_3 1_555 1_555
C7_3 C14_3 1_555 1_555
C19_3 C11_3 1_555 1_555
H22_3 C19_3 1_555 1_555
H23_3 C19_3 1_555 1_555
H24_3 C19_3 1_555 1_555
O3_3 C5_3 1_555 1_555
O8_2 C5_3 1_555 1_555
O3_4 C5_4 1_555 1_555
O8 C5_4 1_555 1_555
Cu3 O1_4 1_555 1_555
O2_4 Cu3 1_555 1_555
O4_4 Cu5_2 1_555 1_555
N2_4 H1_4 1_555 1_555
C1_4 O4_4 1_555 1_555
N3_4 Cu3 1_555 1_555
C2_4 C6_4 1_555 1_555
C3_4 O2_4 1_555 1_555
N4_4 Cu5_2 1_555 1_555
N6_4 Cu3 1_555 1_555
C6_4 N3_4 1_555 1_555
C10_4 N2_4 1_555 1_555
C11_4 N4_4 1_555 1_555
H3_4 C11_4 1_555 1_555
C17_4 C10_4 1_555 1_555
H15_4 C17_4 1_555 1_555
H16_4 C17_4 1_555 1_555
H17_4 C17_4 1_555 1_555
C18_4 C6_4 1_555 1_555
H18_4 C18_4 1_555 1_555
H20_4 C18_4 1_555 1_555
C19_4 C11_4 1_555 1_555
H22_4 C19_4 1_555 1_555
H23_4 C19_4 1_555 1_555
H24_4 C19_4 1_555 1_555
N2_4 N3_4 1_555 1_555
C1_4 C3_4 1_555 1_555
C1_4 N6_4 1_555 1_555
C2_4 C10_4 1_555 1_555
C3_4 N4_4 1_555 1_555
O7_2 C4_4 1_555 1_555
C4_4 C8_4 1_555 1_555
H2_4 C8_4 1_555 1_555
C12_4 C8_4 1_555 1_555
H4_4 C12_4 1_555 1_555
H5_4 C12_4 1_555 1_555
N1_4 N7_2 1_555 1_555
N7_2 C9_4 1_555 1_555
C7_4 C9_4 1_555 1_555
C9_4 C15_3 1_555 1_555
C13_4 N1_4 1_555 1_555
H7_4 C14_4 1_555 1_555
H8_4 C14_4 1_555 1_555
H10_3 C15_3 1_555 1_555
H11_3 C15_3 1_555 1_555
C16_4 C13_4 1_555 1_555
H12_4 C16_4 1_555 1_555
H13_4 C16_4 1_555 1_555
H14_4 C16_4 1_555 1_555
C7_4 C13_4 1_555 1_555
C7_4 C14_4 1_555 1_555
C15_4 H9_4 1_555 1_555
H10_4 C15_4 1_555 1_555
H11_4 C15_4 1_555 1_555

#END
