
###############################################################################
#
# This file contains modified crystal structure data generated from the
# MOF subset of the Cambridge Structural Database (CSD) v543 
# hosted by the Cambridge Crystallographic Data Centre (CCDC).
#
# This work is licensed under the Creative Commons
# Attribution-NonCommercial-ShareAlike 4.0 International License.
# To view a copy of this license, visit
# http://creativecommons.org/licenses/by-nc-sa/4.0/
# or send a letter to
# Creative Commons, PO Box 1866, Mountain View, CA 94042, USA.
#
# CIF created using the CSD Python API on 29 September 2022
# The structure has been converted into the P1 space group
# The structure has a 3D framework
# The original CSD entry PIZREX is in the orthorhombic crystal system
# The original CSD entry PIZREX is in a Sohncke space group
# The framework has been calculated to contain at least 10.0% void space
# The void calculation uses a probe of radius 1.32A, grid spacing 0.4
#
###############################################################################

data_PIZREX
_chemical_formula_moiety         '(C76 H96 Cu8 N24 O24)n'
_symmetry_cell_setting           triclinic
_symmetry_space_group_name_H-M   'P 1'
_symmetry_Int_Tables_number      1
_space_group_name_Hall           'P 1'
loop_
_symmetry_equiv_pos_site_id
_symmetry_equiv_pos_as_xyz
1 x,y,z
_cell_length_a                   13.4134(5)
_cell_length_b                   14.0452(6)
_cell_length_c                   16.3011(8)
_cell_angle_alpha                90
_cell_angle_beta                 90
_cell_angle_gamma                90
_cell_volume                     3071.03
loop_
_atom_site_label
_atom_site_type_symbol
_atom_site_fract_x
_atom_site_fract_y
_atom_site_fract_z
Cu2 Cu 0.20969(5) 0.79229(5) 0.16027(4)
N1 N 0.3083(4) 0.8022(4) 0.2484(4)
O1 O 0.2914(3) 0.8527(3) 0.0710(3)
O2 O 0.0178(4) 0.6389(4) 0.0276(3)
C1 C 0.0707(5) 0.6846(4) 0.0788(4)
O3 O 0.1208(4) 0.6989(4) 0.2202(3)
C2 C 0.4384(5) 0.7878(4) 0.3345(4)
N2 N 0.5734(4) 0.5491(4) 0.4933(3)
N3 N 0.2840(4) 0.8365(4) 0.3228(3)
H1 H 0.2269 0.8605 0.3348
C3 C 0.0612(5) 0.6587(5) 0.1694(4)
N4 N 0.6012(4) 0.5185(4) 0.4182(3)
H2 H 0.6213 0.4615 0.4081
N6 N 0.1318(4) 0.7540(4) 0.0679(3)
H6 H 0.0687 0.9225 0.0222
C8 C 0.5427(5) 0.7657(5) 0.3647(5)
H7 H 0.5884 0.7741 0.3191
H8 H 0.5602 0.8125 0.4060
C9 C 0.4037(5) 0.7729(5) 0.2543(4)
C10 C 0.3595(5) 0.8287(5) 0.3758(4)
C11 C 0.5598(4) 0.6671(5) 0.4008(4)
C12 C 0.5477(5) 0.6403(5) 0.4831(4)
C13 C 0.5942(5) 0.5863(6) 0.3616(4)
C14 C 0.5138(9) 0.6978(7) 0.5538(5)
H9 H 0.5138 0.6591 0.6024
H10 H 0.4475 0.7208 0.5436
H11 H 0.5580 0.7508 0.5614
C15 C 0.4536(7) 0.7326(8) 0.1808(5)
H12 H 0.4081 0.7330 0.1354
H13 H 0.4741 0.6684 0.1920
H14 H 0.5110 0.7704 0.1675
C16 C 0.3467(8) 0.8659(7) 0.4609(5)
H15 H 0.2796 0.8884 0.4679
H16 H 0.3924 0.9174 0.4700
H17 H 0.3597 0.8159 0.4996
C17 C 0.6243(10) 0.5635(9) 0.2746(6)
H18 H 0.6444 0.4981 0.2711
H19 H 0.6788 0.6038 0.2586
H20 H 0.5687 0.5743 0.2386
H21 H 0.0263 0.5393 0.2912
Cu3 Cu 0.56433(5) 0.46049(5) 0.58688(4)
O8 O 0.1302(4) 0.9279(4) 0.1929(3)
O5 O 0.2888(4) 0.8877(4) 0.9374(3)
C5 C 0.2528(5) 0.8498(5) 0.9988(4)
C6 C 0.1503(5) 0.8019(5) 0.9912(4)
H3 H 0.1505 0.7560 0.9459
C7 C 0.0696(6) 0.8792(7) 0.9766(5)
H4 H 0.0055 0.8494 0.9714
H5 H 0.0846 0.9135 0.9272
Cu4 Cu 0.43567(5) 0.96049(5) 0.91312(4)
Cu1 Cu 0.93567(5) 0.53951(5) 0.08688(4)
O4 O 0.8807(3) 0.4511(3) 0.1720(3)
C4 C 0.9015(5) 0.4708(5) 0.2466(4)
O6 O 0.8698(4) 0.4279(4) 0.3071(3)
N5 N 0.9935(5) 0.5965(4) 0.1825(3)
C18 C 0.9644(7) 0.5594(7) 0.2616(5)
C19 C 0.9113(12) 0.6307(13) 0.3114(10)
H22 H 0.9535 0.6851 0.3195
H23 H 0.8943 0.6035 0.3636
H24 H 0.8516 0.6499 0.2834
Cu5 Cu 0.79031(5) 0.29229(5) 0.33973(4)
O7 O 0.7888(4) 0.6123(4) 0.0626(3)
Cu2_2 Cu 0.29031(5) 0.20771(5) 0.66027(4)
N1_2 N 0.1917(4) 0.1978(4) 0.7484(4)
O1_2 O 0.2086(3) 0.1473(3) 0.5710(3)
O2_2 O 0.4822(4) 0.3611(4) 0.5276(3)
C1_2 C 0.4293(5) 0.3154(4) 0.5788(4)
O3_2 O 0.3792(4) 0.3011(4) 0.7202(3)
O4_2 O 0.6193(3) 0.5489(3) 0.6720(3)
C2_2 C 0.0616(5) 0.2122(4) 0.8345(4)
N3_2 N 0.2160(4) 0.1635(4) 0.8228(3)
H1_2 H 0.2731 0.1395 0.8348
O5_2 O 0.2112(4) 0.1123(4) 0.4374(3)
C3_2 C 0.4388(5) 0.3413(5) 0.6694(4)
C4_2 C 0.5985(5) 0.5292(5) 0.7466(4)
O6_2 O 0.6302(4) 0.5721(4) 0.8071(3)
C5_2 C 0.2472(5) 0.1502(5) 0.4988(4)
N5_2 N 0.5065(5) 0.4035(4) 0.6825(3)
C6_2 C 0.3497(5) 0.1981(5) 0.4912(4)
H3_2 H 0.3495 0.2440 0.4459
N6_2 N 0.3682(4) 0.2460(4) 0.5679(3)
C7_2 C 0.4304(6) 0.1208(7) 0.4766(5)
H4_2 H 0.4945 0.1506 0.4714
H5_2 H 0.4154 0.0865 0.4272
H6_2 H 0.4313 0.0775 0.5222
C9_2 C 0.0963(5) 0.2271(5) 0.7543(4)
C10_2 C 0.1405(5) 0.1713(5) 0.8758(4)
C15_2 C 0.0464(7) 0.2674(8) 0.6808(5)
H12_2 H 0.0919 0.2670 0.6354
H13_2 H 0.0259 0.3316 0.6920
C16_2 C 0.1533(8) 0.1341(7) 0.9609(5)
H15_2 H 0.2204 0.1116 0.9679
H16_2 H 0.1076 0.0826 0.9700
H17_2 H 0.1403 0.1841 0.9996
C18_2 C 0.5356(7) 0.4406(7) 0.7616(5)
H21_2 H 0.4737 0.4607 0.7912
C19_2 C 0.5887(12) 0.3693(13) 0.8114(10)
H22_2 H 0.5465 0.3149 0.8195
H23_2 H 0.6057 0.3965 0.8636
H24_2 H 0.6484 0.3501 0.7834
Cu4_2 Cu 0.06433(5) 0.03951(5) 0.41312(4)
Cu5_2 Cu 0.70969(5) 0.70771(5) 0.83973(4)
O7_2 O 0.7112(4) 0.3877(4) 0.5626(3)
O8_2 O 0.3698(4) 0.0721(4) 0.6929(3)
C14_2 C 0.9862(9) 0.3022(7) 0.0538(5)
H9_2 H 0.9862 0.3409 0.1024
H11_2 H 0.9420 0.2492 0.0614
H2_2 H 0.1213 0.0385 0.5919
H18_2 H 0.1444 0.0019 0.7289
N2_2 N 0.0734(4) 0.9509(4) 0.5067(3)
N4_2 N 0.1012(4) 0.9815(4) 0.5818(3)
C8_2 C 0.0427(5) 0.7343(5) 0.6353(5)
H7_2 H 0.0884 0.7259 0.6809
H8_2 H 0.0602 0.6875 0.5940
C11_2 C 0.0598(4) 0.8329(5) 0.5992(4)
C12_2 C 0.0477(5) 0.8597(5) 0.5169(4)
C13_2 C 0.0942(5) 0.9137(6) 0.6384(4)
C14_3 C 0.0138(9) 0.8022(7) 0.4462(5)
H9_3 H 0.0138 0.8409 0.3976
H11_3 H 0.0580 0.7492 0.4386
H14_2 H 0.0110 0.7296 0.8325
C17_2 C 0.1243(10) 0.9365(9) 0.7254(6)
H19_2 H 0.1788 0.8962 0.7414
H20_2 H 0.0687 0.9257 0.7614
N7 N 0.4266(4) 0.0491(4) 0.0067(3)
O4_3 O 0.3807(3) 0.0489(3) 0.8280(3)
C4_3 C 0.4015(5) 0.0292(5) 0.7534(4)
C5_3 C 0.7528(5) 0.6502(5) 0.0012(4)
C6_3 C 0.6503(5) 0.6981(5) 0.0088(4)
H3_3 H 0.6505 0.7440 0.0541
C7_3 C 0.5696(6) 0.6208(7) 0.0234(5)
H4_3 H 0.5055 0.6506 0.0286
H5_3 H 0.5846 0.5865 0.0728
N1_3 N 0.8083(4) 0.6978(4) 0.7516(4)
O1_3 O 0.7914(3) 0.6473(3) 0.9290(3)
O2_3 O 0.5178(4) 0.8611(4) 0.9724(3)
C1_3 C 0.5707(5) 0.8154(4) 0.9212(4)
O3_3 O 0.6208(4) 0.8011(4) 0.7798(3)
C2_3 C 0.9384(5) 0.7122(4) 0.6655(4)
N3_3 N 0.7840(4) 0.6635(4) 0.6772(3)
H1_3 H 0.7269 0.6395 0.6652
C3_3 C 0.5612(5) 0.8413(5) 0.8306(4)
N5_3 N 0.4935(5) 0.9035(4) 0.8175(3)
N6_3 N 0.6318(4) 0.7460(4) 0.9321(3)
H6_3 H 0.5687 0.5775 0.9778
C9_3 C 0.9037(5) 0.7271(5) 0.7457(4)
C10_3 C 0.8595(5) 0.6713(5) 0.6242(4)
H10_2 H 0.9475 0.7792 0.4564
C15_3 C 0.9536(7) 0.7674(8) 0.8192(5)
H12_3 H 0.9081 0.7670 0.8646
H13_3 H 0.9741 0.8316 0.8080
C16_3 C 0.8467(8) 0.6341(7) 0.5391(5)
H15_3 H 0.7796 0.6116 0.5321
H16_3 H 0.8924 0.5826 0.5300
H17_3 H 0.8597 0.6841 0.5004
C18_3 C 0.4644(7) 0.9406(7) 0.7384(5)
H21_3 H 0.5263 0.9607 0.7088
C19_3 C 0.4113(12) 0.8693(13) 0.6886(10)
H22_3 H 0.4535 0.8149 0.6805
H23_3 H 0.3943 0.8965 0.6364
H24_3 H 0.3516 0.8501 0.7166
N5_4 N 0.0065(5) 0.0965(4) 0.3175(3)
C18_4 C 0.0356(7) 0.0594(7) 0.2384(5)
C19_4 C 0.0887(12) 0.1307(13) 0.1886(10)
H22_4 H 0.0465 0.1851 0.1805
H23_4 H 0.1057 0.1035 0.1364
H24_4 H 0.1484 0.1499 0.2166
O4_4 O 0.1193(3) 0.9511(3) 0.3280(3)
C4_4 C 0.0985(5) 0.9708(5) 0.2534(4)
N1_4 N 0.6917(4) 0.3022(4) 0.2516(4)
O1_4 O 0.7086(3) 0.3527(3) 0.4290(3)
O2_4 O 0.9822(4) 0.1389(4) 0.4724(3)
C1_4 C 0.9293(5) 0.1846(4) 0.4212(4)
O3_4 O 0.8792(4) 0.1989(4) 0.2798(3)
C2_4 C 0.5616(5) 0.2878(4) 0.1655(4)
N3_4 N 0.7160(4) 0.3365(4) 0.1772(3)
H1_4 H 0.7731 0.3605 0.1652
C3_4 C 0.9388(5) 0.1587(5) 0.3306(4)
N4_3 N 0.3988(4) 0.0185(4) 0.0818(3)
C5_4 C 0.7472(5) 0.3498(5) 0.5012(4)
C6_4 C 0.8497(5) 0.3019(5) 0.5088(4)
H3_4 H 0.8495 0.2560 0.5541
N6_4 N 0.8682(4) 0.2540(4) 0.4321(3)
C7_4 C 0.9304(6) 0.3792(7) 0.5234(5)
H4_4 H 0.9945 0.3494 0.5286
H5_4 H 0.9154 0.4135 0.5728
H6_4 H 0.9313 0.4225 0.4778
C8_3 C 0.4573(5) 0.2657(5) 0.1353(5)
H7_3 H 0.4116 0.2741 0.1809
H8_3 H 0.4398 0.3125 0.0940
C9_4 C 0.5963(5) 0.2729(5) 0.2457(4)
C10_4 C 0.6405(5) 0.3287(5) 0.1242(4)
C11_3 C 0.4402(4) 0.1671(5) 0.0992(4)
C12_3 C 0.4523(5) 0.1403(5) 0.0169(4)
C13_3 C 0.4058(5) 0.0863(6) 0.1384(4)
C15_4 C 0.5464(7) 0.2326(8) 0.3192(5)
H12_4 H 0.5919 0.2330 0.3646
H13_4 H 0.5259 0.1684 0.3080
H14_3 H 0.4890 0.2704 0.3325
C16_4 C 0.6533(8) 0.3659(7) 0.0391(5)
H15_4 H 0.7204 0.3884 0.0321
H16_4 H 0.6076 0.4174 0.0300
H17_4 H 0.6403 0.3159 0.0004
C17_3 C 0.3757(10) 0.0635(9) 0.2254(6)
H19_3 H 0.3212 0.1038 0.2414
H20_3 H 0.4313 0.0743 0.2614
H21_4 H 0.9737 0.0393 0.2088
N7_2 N 0.9266(4) 0.4509(4) 0.9933(3)
N4_4 N 0.8988(4) 0.4815(4) 0.9182(3)
H2_3 H 0.8787 0.5385 0.9081
C8_4 C 0.9573(5) 0.2343(5) 0.8647(5)
H7_4 H 0.9116 0.2259 0.8191
H8_4 H 0.9398 0.1875 0.9060
C11_4 C 0.9402(4) 0.3329(5) 0.9008(4)
C12_4 C 0.9523(5) 0.3597(5) 0.9831(4)
C13_4 C 0.9058(5) 0.4137(6) 0.8616(4)
H14_4 H 0.9890 0.2296 0.6675
C17_4 C 0.8757(10) 0.4365(9) 0.7746(6)
H18_3 H 0.8556 0.5019 0.7711
H19_4 H 0.8212 0.3962 0.7586
H20_4 H 0.9313 0.4257 0.7386
H10_3 H 0.0525 0.2792 0.0436
C14_4 C 0.4862(9) 0.1978(7) 0.9462(5)
H9_4 H 0.4862 0.1591 0.8976
H10_4 H 0.5525 0.2208 0.9564
H11_4 H 0.4420 0.2508 0.9386
H2_4 H 0.3787 0.9615 0.0919
H18_4 H 0.3556 0.9981 0.2289
loop_
_geom_bond_atom_site_label_1
_geom_bond_atom_site_label_2
_geom_bond_site_symmetry_1
_geom_bond_site_symmetry_2
Cu2 N1 1_555 1_555
N1 N3 1_555 1_555
O1 Cu2 1_555 1_555
O2 C1 1_555 1_555
C1 C3 1_555 1_555
O3 Cu2 1_555 1_555
C2 C8 1_555 1_555
N2 N4 1_555 1_555
N3 H1 1_555 1_555
C3 O3 1_555 1_555
N4 H2 1_555 1_555
N6 Cu2 1_555 1_555
C8 H7 1_555 1_555
H8 C8 1_555 1_555
C9 N1 1_555 1_555
C10 C2 1_555 1_555
C11 C8 1_555 1_555
C12 N2 1_555 1_555
C13 N4 1_555 1_555
C14 C12 1_555 1_555
H9 C14 1_555 1_555
H10 C14 1_555 1_555
H11 C14 1_555 1_555
C15 C9 1_555 1_555
H12 C15 1_555 1_555
H13 C15 1_555 1_555
H14 C15 1_555 1_555
C16 C10 1_555 1_555
H15 C16 1_555 1_555
H16 C16 1_555 1_555
H17 C16 1_555 1_555
C17 C13 1_555 1_555
H18 C17 1_555 1_555
H19 C17 1_555 1_555
H20 C17 1_555 1_555
Cu3 N2 1_555 1_555
O8 Cu2 1_555 1_555
C1 N6 1_555 1_555
C2 C9 1_555 1_555
N3 C10 1_555 1_555
C11 C12 1_555 1_555
C11 C13 1_555 1_555
O5 C5 1_555 1_555
C6 C5 1_555 1_555
H3 C6 1_555 1_555
C7 C6 1_555 1_555
H4 C7 1_555 1_555
H5 C7 1_555 1_555
Cu4 O5 1_555 1_555
O4 Cu1 1_555 1_555
C4 O4 1_555 1_555
O6 C4 1_555 1_555
N5 Cu1 1_555 1_555
C18 C4 1_555 1_555
C19 C18 1_555 1_555
H22 C19 1_555 1_555
H23 C19 1_555 1_555
H24 C19 1_555 1_555
Cu5 O6 1_555 1_555
O7 Cu1 1_555 1_555
N5 C18 1_555 1_555
Cu3 O2_2 1_555 1_555
Cu2_2 N1_2 1_555 1_555
N1_2 N3_2 1_555 1_555
O1_2 Cu2_2 1_555 1_555
O2_2 C1_2 1_555 1_555
C1_2 C3_2 1_555 1_555
O3_2 Cu2_2 1_555 1_555
O4_2 Cu3 1_555 1_555
N3_2 H1_2 1_555 1_555
O5_2 C5_2 1_555 1_555
C3_2 O3_2 1_555 1_555
C4_2 O4_2 1_555 1_555
O6_2 C4_2 1_555 1_555
C5_2 O1_2 1_555 1_555
N5_2 Cu3 1_555 1_555
C6_2 C5_2 1_555 1_555
H3_2 C6_2 1_555 1_555
N6_2 Cu2_2 1_555 1_555
C7_2 C6_2 1_555 1_555
H4_2 C7_2 1_555 1_555
H5_2 C7_2 1_555 1_555
H6_2 C7_2 1_555 1_555
C9_2 N1_2 1_555 1_555
C10_2 C2_2 1_555 1_555
C15_2 C9_2 1_555 1_555
H12_2 C15_2 1_555 1_555
H13_2 C15_2 1_555 1_555
C16_2 C10_2 1_555 1_555
H15_2 C16_2 1_555 1_555
H16_2 C16_2 1_555 1_555
H17_2 C16_2 1_555 1_555
C18_2 C4_2 1_555 1_555
H21_2 C18_2 1_555 1_555
C19_2 C18_2 1_555 1_555
H22_2 C19_2 1_555 1_555
H23_2 C19_2 1_555 1_555
H24_2 C19_2 1_555 1_555
Cu4_2 O5_2 1_555 1_555
Cu5_2 O6_2 1_555 1_555
O7_2 Cu3 1_555 1_555
O8_2 Cu2_2 1_555 1_555
C1_2 N6_2 1_555 1_555
C2_2 C9_2 1_555 1_555
N3_2 C10_2 1_555 1_555
C3_2 N5_2 1_555 1_555
N5_2 C18_2 1_555 1_555
C6_2 N6_2 1_555 1_555
H9_2 C14_2 1_555 1_555
H11_2 C14_2 1_555 1_555
N2_2 N4_2 1_555 1_555
C8_2 H7_2 1_555 1_555
H8_2 C8_2 1_555 1_555
C11_2 C8_2 1_555 1_555
C12_2 N2_2 1_555 1_555
C13_2 N4_2 1_555 1_555
C14_3 C12_2 1_555 1_555
H9_3 C14_3 1_555 1_555
H11_3 C14_3 1_555 1_555
C17_2 C13_2 1_555 1_555
H19_2 C17_2 1_555 1_555
H20_2 C17_2 1_555 1_555
C11_2 C12_2 1_555 1_555
C11_2 C13_2 1_555 1_555
C4_3 O4_3 1_555 1_555
O8_2 C4_3 1_555 1_555
O7 C5_3 1_555 1_555
C6_3 C5_3 1_555 1_555
H3_3 C6_3 1_555 1_555
C7_3 C6_3 1_555 1_555
H4_3 C7_3 1_555 1_555
H5_3 C7_3 1_555 1_555
Cu4 O2_3 1_555 1_555
Cu5_2 N1_3 1_555 1_555
N1_3 N3_3 1_555 1_555
O1_3 Cu5_2 1_555 1_555
O2_3 C1_3 1_555 1_555
C1_3 C3_3 1_555 1_555
O3_3 Cu5_2 1_555 1_555
N3_3 H1_3 1_555 1_555
C3_3 O3_3 1_555 1_555
N5_3 Cu4 1_555 1_555
N6_3 Cu5_2 1_555 1_555
C9_3 N1_3 1_555 1_555
C10_3 C2_3 1_555 1_555
C15_3 C9_3 1_555 1_555
H12_3 C15_3 1_555 1_555
H13_3 C15_3 1_555 1_555
C16_3 C10_3 1_555 1_555
H15_3 C16_3 1_555 1_555
H16_3 C16_3 1_555 1_555
H17_3 C16_3 1_555 1_555
H21_3 C18_3 1_555 1_555
C19_3 C18_3 1_555 1_555
H22_3 C19_3 1_555 1_555
H23_3 C19_3 1_555 1_555
H24_3 C19_3 1_555 1_555
C1_3 N6_3 1_555 1_555
C2_3 C9_3 1_555 1_555
N3_3 C10_3 1_555 1_555
C3_3 N5_3 1_555 1_555
N5_3 C18_3 1_555 1_555
N5_4 Cu4_2 1_555 1_555
C19_4 C18_4 1_555 1_555
H22_4 C19_4 1_555 1_555
H23_4 C19_4 1_555 1_555
H24_4 C19_4 1_555 1_555
N5_4 C18_4 1_555 1_555
C4_4 O4_4 1_555 1_555
O8 C4_4 1_555 1_555
Cu5 N1_4 1_555 1_555
N1_4 N3_4 1_555 1_555
O1_4 Cu5 1_555 1_555
O2_4 C1_4 1_555 1_555
C1_4 C3_4 1_555 1_555
O3_4 Cu5 1_555 1_555
C2_4 C8_3 1_555 1_555
N7 N4_3 1_555 1_555
N3_4 H1_4 1_555 1_555
O7_2 C5_4 1_555 1_555
C3_4 O3_4 1_555 1_555
C5_4 O1_4 1_555 1_555
C6_4 C5_4 1_555 1_555
H3_4 C6_4 1_555 1_555
N6_4 Cu5 1_555 1_555
C7_4 C6_4 1_555 1_555
H4_4 C7_4 1_555 1_555
H5_4 C7_4 1_555 1_555
H6_4 C7_4 1_555 1_555
C8_3 H7_3 1_555 1_555
H8_3 C8_3 1_555 1_555
C9_4 N1_4 1_555 1_555
C10_4 C2_4 1_555 1_555
C11_3 C8_3 1_555 1_555
C12_3 N7 1_555 1_555
C13_3 N4_3 1_555 1_555
C15_4 C9_4 1_555 1_555
H12_4 C15_4 1_555 1_555
H13_4 C15_4 1_555 1_555
H14_3 C15_4 1_555 1_555
C16_4 C10_4 1_555 1_555
H15_4 C16_4 1_555 1_555
H16_4 C16_4 1_555 1_555
H17_4 C16_4 1_555 1_555
C17_3 C13_3 1_555 1_555
H19_3 C17_3 1_555 1_555
H20_3 C17_3 1_555 1_555
C1_4 N6_4 1_555 1_555
C2_4 C9_4 1_555 1_555
N3_4 C10_4 1_555 1_555
C6_4 N6_4 1_555 1_555
C11_3 C12_3 1_555 1_555
C11_3 C13_3 1_555 1_555
N7_2 N4_4 1_555 1_555
N4_4 H2_3 1_555 1_555
C8_4 H7_4 1_555 1_555
H8_4 C8_4 1_555 1_555
C11_4 C8_4 1_555 1_555
C12_4 N7_2 1_555 1_555
C13_4 N4_4 1_555 1_555
C17_4 C13_4 1_555 1_555
H18_3 C17_4 1_555 1_555
H19_4 C17_4 1_555 1_555
H20_4 C17_4 1_555 1_555
C11_4 C12_4 1_555 1_555
C11_4 C13_4 1_555 1_555
H9_4 C14_4 1_555 1_555
H10_4 C14_4 1_555 1_555
H11_4 C14_4 1_555 1_555

#END
