
###############################################################################
#
# This file contains modified crystal structure data generated from the
# MOF subset of the Cambridge Structural Database (CSD) v543 
# hosted by the Cambridge Crystallographic Data Centre (CCDC).
#
# This work is licensed under the Creative Commons
# Attribution-NonCommercial-ShareAlike 4.0 International License.
# To view a copy of this license, visit
# http://creativecommons.org/licenses/by-nc-sa/4.0/
# or send a letter to
# Creative Commons, PO Box 1866, Mountain View, CA 94042, USA.
#
# CIF created using the CSD Python API on 29 September 2022
# The structure has been converted into the P1 space group
# The structure has a 3D framework
# The original CSD entry PIZSAU is in the orthorhombic crystal system
# The original CSD entry PIZSAU is in a Sohncke space group
# The framework has been calculated to contain at least 10.0% void space
# The void calculation uses a probe of radius 1.32A, grid spacing 0.4
# H atom positions have been added when not included in the experimental data
#
###############################################################################

data_PIZSAU
_chemical_formula_moiety         '(C76 H96 Cu8 N24 O22)n'
_symmetry_cell_setting           triclinic
_symmetry_space_group_name_H-M   'P 1'
_symmetry_Int_Tables_number      1
_space_group_name_Hall           'P 1'
loop_
_symmetry_equiv_pos_site_id
_symmetry_equiv_pos_as_xyz
1 x,y,z
_cell_length_a                   13.504(4)
_cell_length_b                   14.375(4)
_cell_length_c                   16.193(5)
_cell_angle_alpha                90
_cell_angle_beta                 90
_cell_angle_gamma                90
_cell_volume                     3143.39
loop_
_atom_site_label
_atom_site_type_symbol
_atom_site_fract_x
_atom_site_fract_y
_atom_site_fract_z
Cu1 Cu 0.06970(9) 0.04870(8) 0.08517(7)
N1 N 0.0160(7) 0.1044(6) 0.1828(5)
C1 C 0.0985(16) 0.1286(12) 0.3165(9)
H3 H 0.0597 0.1848 0.3278
H4 H 0.1602 0.1458 0.2884
H5 H 0.1141 0.0972 0.3686
C2 C 0.0394(9) 0.0640(7) 0.2619(6)
O8 O 0.2175(5) 0.1104(6) 0.0586(5)
O3 O 0.1216(5) 0.9576(5) 0.1686(4)
O4 O 0.1278(7) 0.9272(5) 0.3031(5)
C3 C 0.0990(8) 0.9747(6) 0.2440(6)
Cu5 Cu 0.20084(8) 0.79324(8) 0.33607(7)
Cu2 Cu 0.79916(8) 0.29324(8) 0.16393(7)
O1 O 0.8893(6) 0.2016(6) 0.2236(4)
O2 O 0.9924(6) 0.1500(5) 0.0284(4)
O5 O 0.7152(5) 0.3506(5) 0.0752(4)
N2 N 0.8778(6) 0.2602(6) 0.0704(4)
N3 N 0.4332(7) 0.0370(6) 0.4893(5)
N4 N 0.3988(7) 0.0098(7) 0.4148(5)
N5 N 0.7015(6) 0.2967(6) 0.2526(5)
N6 N 0.7187(7) 0.3361(6) 0.3258(5)
H2 H 0.7741 0.3648 0.3389
H6 H 0.9765 0.0469 0.2907
C4 C 0.9481(7) 0.1646(6) 0.1705(6)
C5 C 0.9410(7) 0.1931(6) 0.0812(5)
H9 H 0.9338 0.4253 0.0212
C8 C 0.7543(7) 0.3525(7) 0.0020(6)
C9 C 0.5042(11) 0.1788(9) 0.5510(8)
H11 H 0.5043 0.1401 0.6008
H12 H 0.4635 0.2342 0.5605
H13 H 0.5722 0.1977 0.5380
C10 C 0.4625(8) 0.1245(7) 0.4805(7)
C11 C 0.4486(7) 0.1543(7) 0.3981(6)
C12 C 0.4087(7) 0.0771(8) 0.3577(6)
C13 C 0.3759(13) 0.0571(11) 0.2714(7)
H15 H 0.4318 0.0657 0.2335
H16 H 0.3223 0.0997 0.2563
C14 C 0.6489(13) 0.3657(11) 0.4653(9)
H17 H 0.7117 0.3992 0.4711
H18 H 0.6467 0.3144 0.5051
H19 H 0.5938 0.4084 0.4757
C15 C 0.6405(9) 0.3267(8) 0.3777(7)
C16 C 0.5703(8) 0.2767(6) 0.3363(6)
C17 C 0.6110(8) 0.2598(8) 0.2574(7)
C18 C 0.5679(11) 0.2108(11) 0.1856(7)
H20 H 0.6150 0.2120 0.1396
H21 H 0.5063 0.2416 0.1690
H22 H 0.5538 0.1461 0.2007
C19 C 0.4667(8) 0.2511(7) 0.3649(7)
H23 H 0.4143 0.2951 0.3619
O7 O 0.8722(7) 0.4272(5) 0.1969(5)
H24 H 0.48454 0.275172 0.426906
O6 O 0.7175(5) 0.3896(6) 0.9414(5)
C6 C 0.8550(8) 0.3062(8) 0.9924(6)
H7 H 0.8534 0.2599 0.9464
C7 C 0.9325(10) 0.3808(11) 0.9753(8)
H8 H 0.9977 0.3517 0.9696
H10 H 0.9157 0.4136 0.9241
Cu4 Cu 0.56970(9) 0.45130(8) 0.91483(7)
H1 H 0.3731 0.9547 0.4048
H14 H 0.3522 0.9928 0.2679
Cu3 Cu 0.43030(9) 0.95130(8) 0.58517(7)
O3_2 O 0.3784(5) 0.0424(5) 0.6686(4)
O4_2 O 0.3722(7) 0.0728(5) 0.8031(5)
C3_2 C 0.4010(8) 0.0253(6) 0.7440(6)
Cu5_2 Cu 0.29916(8) 0.20676(8) 0.83607(7)
Cu2_2 Cu 0.70084(8) 0.70676(8) 0.66393(7)
O1_2 O 0.6107(6) 0.7984(6) 0.7236(4)
O2_2 O 0.5076(6) 0.8500(5) 0.5284(4)
O5_2 O 0.7848(5) 0.6494(5) 0.5752(4)
O6_2 O 0.7825(5) 0.6104(6) 0.4414(5)
N1_2 N 0.4840(7) 0.8956(6) 0.6828(5)
N2_2 N 0.6222(6) 0.7398(6) 0.5704(4)
N5_2 N 0.7985(6) 0.7033(6) 0.7526(5)
N6_2 N 0.7813(7) 0.6639(6) 0.8258(5)
H2_2 H 0.7259 0.6352 0.8389
C1_2 C 0.4015(16) 0.8714(12) 0.8165(9)
H3_2 H 0.4403 0.8152 0.8278
H4_2 H 0.3398 0.8542 0.7884
H5_2 H 0.3859 0.9028 0.8686
C2_2 C 0.4606(9) 0.9360(7) 0.7619(6)
H6_2 H 0.5235 0.9531 0.7907
C4_2 C 0.5519(7) 0.8354(6) 0.6705(6)
C5_2 C 0.5590(7) 0.8069(6) 0.5812(5)
C6_2 C 0.6450(8) 0.6938(8) 0.4924(6)
H7_2 H 0.6466 0.7401 0.4464
C7_2 C 0.5675(10) 0.6192(11) 0.4753(8)
H8_2 H 0.5023 0.6483 0.4696
H9_2 H 0.5662 0.5747 0.5212
H10_2 H 0.5843 0.5864 0.4241
C8_2 C 0.7457(7) 0.6475(7) 0.5020(6)
C14_2 C 0.8511(13) 0.6343(11) 0.9653(9)
H17_2 H 0.7883 0.6008 0.9711
H19_2 H 0.9062 0.5916 0.9757
C15_2 C 0.8595(9) 0.6733(8) 0.8777(7)
C16_2 C 0.9297(8) 0.7233(6) 0.8363(6)
C17_2 C 0.8890(8) 0.7402(8) 0.7574(7)
C18_2 C 0.9321(11) 0.7892(11) 0.6856(7)
H20_2 H 0.8850 0.7880 0.6396
H21_2 H 0.9937 0.7584 0.6690
H22_2 H 0.9462 0.8539 0.7007
Cu4_2 Cu 0.93030(9) 0.54870(8) 0.41483(7)
O7_2 O 0.6278(7) 0.5728(5) 0.6969(5)
O8_2 O 0.2825(5) 0.8896(6) 0.5586(5)
C6_3 C 0.3550(8) 0.1938(8) 0.0076(6)
H7_3 H 0.3534 0.2401 0.0536
C7_3 C 0.4325(10) 0.1192(11) 0.0247(8)
H8_3 H 0.4977 0.1483 0.0304
H10_3 H 0.4157 0.0864 0.0759
N7 N 0.5668(7) 0.5370(6) 0.0107(5)
O1_3 O 0.3893(6) 0.2984(6) 0.7764(4)
O2_3 O 0.4924(6) 0.3500(5) 0.9716(4)
O3_3 O 0.6216(5) 0.5424(5) 0.8314(4)
O5_3 O 0.2152(5) 0.1494(5) 0.9248(4)
N1_3 N 0.5160(7) 0.3956(6) 0.8172(5)
N2_3 N 0.3778(6) 0.2398(6) 0.9296(4)
N5_3 N 0.2015(6) 0.2033(6) 0.7474(5)
N6_3 N 0.2187(7) 0.1639(6) 0.6742(5)
H2_3 H 0.2741 0.1352 0.6611
C1_3 C 0.5985(16) 0.3714(12) 0.6835(9)
H3_3 H 0.5597 0.3152 0.6722
H4_3 H 0.6602 0.3542 0.7116
H5_3 H 0.6141 0.4028 0.6314
C2_3 C 0.5394(9) 0.4360(7) 0.7381(6)
H6_3 H 0.4765 0.4531 0.7093
C3_3 C 0.5990(8) 0.5253(6) 0.7560(6)
C4_3 C 0.4481(7) 0.3354(6) 0.8295(6)
C5_3 C 0.4410(7) 0.3069(6) 0.9188(5)
H9_3 H 0.4338 0.0747 0.9788
C8_3 C 0.2543(7) 0.1475(7) 0.9980(6)
C9_2 C 0.0042(11) 0.3212(9) 0.4490(8)
H11_2 H 0.0043 0.3599 0.3992
H13_2 H 0.0722 0.3023 0.4620
C14_3 C 0.1489(13) 0.1343(11) 0.5347(9)
H17_3 H 0.2117 0.1008 0.5289
H18_2 H 0.1467 0.1856 0.4949
H19_3 H 0.0938 0.0916 0.5243
C15_3 C 0.1405(9) 0.1733(8) 0.6223(7)
C16_3 C 0.0703(8) 0.2233(6) 0.6637(6)
C17_3 C 0.1110(8) 0.2402(8) 0.7426(7)
C18_3 C 0.0679(11) 0.2892(11) 0.8144(7)
H20_3 H 0.1150 0.2880 0.8604
H21_3 H 0.0063 0.2584 0.8310
H22_3 H 0.0538 0.3539 0.7993
N3_2 N 0.9332(7) 0.4630(6) 0.5107(5)
N4_2 N 0.8988(7) 0.4902(7) 0.5852(5)
H1_2 H 0.8731 0.5453 0.5952
H12_2 H 0.9635 0.2658 0.4395
C10_2 C 0.9625(8) 0.3755(7) 0.5195(7)
C11_2 C 0.9486(7) 0.3457(7) 0.6019(6)
C12_2 C 0.9087(7) 0.4229(8) 0.6423(6)
C13_2 C 0.8759(13) 0.4429(11) 0.7286(7)
H14_2 H 0.8522 0.5072 0.7321
H15_2 H 0.9318 0.4343 0.7665
H16_2 H 0.8223 0.4003 0.7437
C19_2 C 0.9667(8) 0.2489(7) 0.6351(7)
H23_2 H 0.9143 0.2049 0.6381
H24_2 H 0.98454 0.224828 0.573094
O1_4 O 0.1107(6) 0.7016(6) 0.2764(4)
O2_4 O 0.0076(6) 0.6500(5) 0.4716(4)
O5_4 O 0.2848(5) 0.8506(5) 0.4248(4)
N2_4 N 0.1222(6) 0.7602(6) 0.4296(4)
N4_3 N 0.6012(7) 0.5098(7) 0.0852(5)
H1_3 H 0.6269 0.4547 0.0952
N5_4 N 0.2985(6) 0.7967(6) 0.2474(5)
N6_4 N 0.2813(7) 0.8361(6) 0.1742(5)
H2_4 H 0.2259 0.8648 0.1611
H6_4 H 0.0235 0.5469 0.2093
C4_4 C 0.0519(7) 0.6646(6) 0.3295(6)
C5_4 C 0.0590(7) 0.6931(6) 0.4188(5)
C6_4 C 0.1450(8) 0.8062(8) 0.5076(6)
H7_4 H 0.1466 0.7599 0.5536
C7_4 C 0.0675(10) 0.8808(11) 0.5247(8)
H8_4 H 0.0023 0.8517 0.5304
H9_4 H 0.0662 0.9253 0.4788
H10_4 H 0.0843 0.9136 0.5759
C8_4 C 0.2457(7) 0.8525(7) 0.4980(6)
C10_3 C 0.5375(8) 0.6245(7) 0.0195(7)
C11_3 C 0.5514(7) 0.6543(7) 0.1019(6)
C12_3 C 0.5913(7) 0.5771(8) 0.1423(6)
C13_3 C 0.6241(13) 0.5571(11) 0.2286(7)
H14_3 H 0.6478 0.4928 0.2321
H15_3 H 0.5682 0.5657 0.2665
H16_3 H 0.6777 0.5997 0.2437
C14_4 C 0.3511(13) 0.8657(11) 0.0347(9)
H17_4 H 0.2883 0.8992 0.0289
H19_4 H 0.4062 0.9084 0.0243
C15_4 C 0.3595(9) 0.8267(8) 0.1223(7)
C16_4 C 0.4297(8) 0.7767(6) 0.1637(6)
C17_4 C 0.3890(8) 0.7598(8) 0.2426(7)
C18_4 C 0.4321(11) 0.7108(11) 0.3144(7)
H20_4 H 0.3850 0.7120 0.3604
H21_4 H 0.4937 0.7416 0.3310
H22_4 H 0.4462 0.6461 0.2993
C19_3 C 0.5333(8) 0.7511(7) 0.1351(7)
H23_3 H 0.5857 0.7951 0.1381
H24_3 H 0.51546 0.775172 0.0730942
C9_3 C 0.4958(11) 0.6788(9) 0.9490(8)
H11_3 H 0.4957 0.6401 0.8992
H12_3 H 0.5365 0.7342 0.9395
H13_3 H 0.4278 0.6977 0.9620
H18_3 H 0.3533 0.8144 0.9949
O3_4 O 0.8784(5) 0.4576(5) 0.3314(4)
N1_4 N 0.9840(7) 0.6044(6) 0.3172(5)
C1_4 C 0.9015(16) 0.6286(12) 0.1835(9)
H3_4 H 0.9403 0.6848 0.1722
H4_4 H 0.8398 0.6458 0.2116
H5_4 H 0.8859 0.5972 0.1314
C2_4 C 0.9606(9) 0.5640(7) 0.2381(6)
C3_4 C 0.9010(8) 0.4747(6) 0.2560(6)
N7_2 N 0.0668(7) 0.9630(6) 0.9893(5)
N4_4 N 0.1012(7) 0.9902(7) 0.9148(5)
C10_4 C 0.0375(8) 0.8755(7) 0.9805(7)
C11_4 C 0.0514(7) 0.8457(7) 0.8981(6)
C12_4 C 0.0913(7) 0.9229(8) 0.8577(6)
C13_4 C 0.1241(13) 0.9429(11) 0.7714(7)
H15_4 H 0.0682 0.9343 0.7335
H16_4 H 0.1777 0.9003 0.7563
C19_4 C 0.0333(8) 0.7489(7) 0.8649(7)
H23_4 H 0.0857 0.7049 0.8619
H24_4 H 0.0154595 0.724828 0.926906
H1_4 H 0.1269 0.0453 0.9048
H14_4 H 0.1478 0.0072 0.7679
H12_4 H 0.0365 0.7658 0.0605
C9_4 C 0.9958(11) 0.8212(9) 0.0510(8)
H11_4 H 0.9957 0.8599 0.1008
H13_4 H 0.9278 0.8023 0.0380
H18_4 H 0.8533 0.6856 0.0051
loop_
_geom_bond_atom_site_label_1
_geom_bond_atom_site_label_2
_geom_bond_site_symmetry_1
_geom_bond_site_symmetry_2
N1 Cu1 1_555 1_555
C1 H3 1_555 1_555
H4 C1 1_555 1_555
H5 C1 1_555 1_555
C2 N1 1_555 1_555
O8 Cu1 1_555 1_555
C1 C2 1_555 1_555
O4 C3 1_555 1_555
C3 O3 1_555 1_555
Cu5 O4 1_555 1_555
Cu2 O1 1_555 1_555
O1 C4 1_555 1_555
O2 C5 1_555 1_555
O5 Cu2 1_555 1_555
N2 Cu2 1_555 1_555
N3 N4 1_555 1_555
N5 Cu2 1_555 1_555
N6 N5 1_555 1_555
H2 N6 1_555 1_555
C5 N2 1_555 1_555
C8 O5 1_555 1_555
C9 H11 1_555 1_555
H12 C9 1_555 1_555
H13 C9 1_555 1_555
C10 N3 1_555 1_555
C11 C10 1_555 1_555
C12 N4 1_555 1_555
C13 C12 1_555 1_555
H15 C13 1_555 1_555
H16 C13 1_555 1_555
C14 H17 1_555 1_555
H18 C14 1_555 1_555
H19 C14 1_555 1_555
C15 N6 1_555 1_555
C16 C15 1_555 1_555
C17 N5 1_555 1_555
C18 C17 1_555 1_555
H20 C18 1_555 1_555
H21 C18 1_555 1_555
H22 C18 1_555 1_555
C19 C11 1_555 1_555
H23 C19 1_555 1_555
O7 Cu2 1_555 1_555
C4 C5 1_555 1_555
C9 C10 1_555 1_555
C11 C12 1_555 1_555
C14 C15 1_555 1_555
C16 C17 1_555 1_555
C16 C19 1_555 1_555
C19 H24 1_555 1_555
H7 C6 1_555 1_555
C7 C6 1_555 1_555
H8 C7 1_555 1_555
H10 C7 1_555 1_555
Cu4 O6 1_555 1_555
O4_2 C3_2 1_555 1_555
C3_2 O3_2 1_555 1_555
Cu5_2 O4_2 1_555 1_555
Cu3 O2_2 1_555 1_555
Cu2_2 O1_2 1_555 1_555
O1_2 C4_2 1_555 1_555
O2_2 C5_2 1_555 1_555
O5_2 Cu2_2 1_555 1_555
O6_2 C8_2 1_555 1_555
N1_2 Cu3 1_555 1_555
N2_2 Cu2_2 1_555 1_555
N5_2 Cu2_2 1_555 1_555
N6_2 N5_2 1_555 1_555
H2_2 N6_2 1_555 1_555
C1_2 H3_2 1_555 1_555
H4_2 C1_2 1_555 1_555
H5_2 C1_2 1_555 1_555
C2_2 N1_2 1_555 1_555
H6_2 C2_2 1_555 1_555
C4_2 N1_2 1_555 1_555
C5_2 N2_2 1_555 1_555
C6_2 N2_2 1_555 1_555
H7_2 C6_2 1_555 1_555
C7_2 C6_2 1_555 1_555
H8_2 C7_2 1_555 1_555
H9_2 C7_2 1_555 1_555
H10_2 C7_2 1_555 1_555
C8_2 O5_2 1_555 1_555
C14_2 H17_2 1_555 1_555
H19_2 C14_2 1_555 1_555
C15_2 N6_2 1_555 1_555
C16_2 C15_2 1_555 1_555
C17_2 N5_2 1_555 1_555
C18_2 C17_2 1_555 1_555
H20_2 C18_2 1_555 1_555
H21_2 C18_2 1_555 1_555
H22_2 C18_2 1_555 1_555
Cu4_2 O6_2 1_555 1_555
O7_2 Cu2_2 1_555 1_555
O8_2 Cu3 1_555 1_555
C1_2 C2_2 1_555 1_555
C4_2 C5_2 1_555 1_555
C6_2 C8_2 1_555 1_555
C14_2 C15_2 1_555 1_555
C16_2 C17_2 1_555 1_555
H7_3 C6_3 1_555 1_555
C7_3 C6_3 1_555 1_555
H8_3 C7_3 1_555 1_555
H10_3 C7_3 1_555 1_555
Cu4 O2_3 1_555 1_555
Cu5_2 O1_3 1_555 1_555
O1_3 C4_3 1_555 1_555
O2_3 C5_3 1_555 1_555
O3_3 Cu4 1_555 1_555
O7_2 C3_3 1_555 1_555
O5_3 Cu5_2 1_555 1_555
N1_3 Cu4 1_555 1_555
N2_3 Cu5_2 1_555 1_555
N5_3 Cu5_2 1_555 1_555
N6_3 N5_3 1_555 1_555
H2_3 N6_3 1_555 1_555
C1_3 H3_3 1_555 1_555
H4_3 C1_3 1_555 1_555
H5_3 C1_3 1_555 1_555
C2_3 N1_3 1_555 1_555
H6_3 C2_3 1_555 1_555
C3_3 O3_3 1_555 1_555
C4_3 N1_3 1_555 1_555
C5_3 N2_3 1_555 1_555
C8_3 O5_3 1_555 1_555
C9_2 H11_2 1_555 1_555
H13_2 C9_2 1_555 1_555
C14_3 H17_3 1_555 1_555
H18_2 C14_3 1_555 1_555
H19_3 C14_3 1_555 1_555
C15_3 N6_3 1_555 1_555
C16_3 C15_3 1_555 1_555
C17_3 N5_3 1_555 1_555
C18_3 C17_3 1_555 1_555
H20_3 C18_3 1_555 1_555
H21_3 C18_3 1_555 1_555
H22_3 C18_3 1_555 1_555
C1_3 C2_3 1_555 1_555
C2_3 C3_3 1_555 1_555
C4_3 C5_3 1_555 1_555
C14_3 C15_3 1_555 1_555
C16_3 C17_3 1_555 1_555
N3_2 N4_2 1_555 1_555
N4_2 H1_2 1_555 1_555
C10_2 N3_2 1_555 1_555
C11_2 C10_2 1_555 1_555
C12_2 N4_2 1_555 1_555
C13_2 C12_2 1_555 1_555
H14_2 C13_2 1_555 1_555
H15_2 C13_2 1_555 1_555
H16_2 C13_2 1_555 1_555
C19_2 C11_2 1_555 1_555
H23_2 C19_2 1_555 1_555
Cu4_2 N3_2 1_555 1_555
C11_2 C12_2 1_555 1_555
C19_2 H24_2 1_555 1_555
Cu5 O1_4 1_555 1_555
O1_4 C4_4 1_555 1_555
O2_4 C5_4 1_555 1_555
O5_4 Cu5 1_555 1_555
O8_2 C8_4 1_555 1_555
N2_4 Cu5 1_555 1_555
N7 N4_3 1_555 1_555
N4_3 H1_3 1_555 1_555
N5_4 Cu5 1_555 1_555
N6_4 N5_4 1_555 1_555
H2_4 N6_4 1_555 1_555
C5_4 N2_4 1_555 1_555
C6_4 N2_4 1_555 1_555
H7_4 C6_4 1_555 1_555
C7_4 C6_4 1_555 1_555
H8_4 C7_4 1_555 1_555
H9_4 C7_4 1_555 1_555
H10_4 C7_4 1_555 1_555
C8_4 O5_4 1_555 1_555
C10_3 N7 1_555 1_555
C11_3 C10_3 1_555 1_555
C12_3 N4_3 1_555 1_555
C13_3 C12_3 1_555 1_555
H14_3 C13_3 1_555 1_555
H15_3 C13_3 1_555 1_555
H16_3 C13_3 1_555 1_555
C14_4 H17_4 1_555 1_555
H19_4 C14_4 1_555 1_555
C15_4 N6_4 1_555 1_555
C16_4 C15_4 1_555 1_555
C17_4 N5_4 1_555 1_555
C18_4 C17_4 1_555 1_555
H20_4 C18_4 1_555 1_555
H21_4 C18_4 1_555 1_555
H22_4 C18_4 1_555 1_555
C19_3 C11_3 1_555 1_555
H23_3 C19_3 1_555 1_555
C4_4 C5_4 1_555 1_555
C6_4 C8_4 1_555 1_555
C11_3 C12_3 1_555 1_555
C14_4 C15_4 1_555 1_555
C16_4 C17_4 1_555 1_555
C16_4 C19_3 1_555 1_555
C19_3 H24_3 1_555 1_555
C9_3 H11_3 1_555 1_555
H12_3 C9_3 1_555 1_555
H13_3 C9_3 1_555 1_555
O3_4 Cu4_2 1_555 1_555
O7 C3_4 1_555 1_555
N1_4 Cu4_2 1_555 1_555
C1_4 H3_4 1_555 1_555
H4_4 C1_4 1_555 1_555
H5_4 C1_4 1_555 1_555
C2_4 N1_4 1_555 1_555
C3_4 O3_4 1_555 1_555
C1_4 C2_4 1_555 1_555
C2_4 C3_4 1_555 1_555
N7_2 N4_4 1_555 1_555
C10_4 N7_2 1_555 1_555
C11_4 C10_4 1_555 1_555
C12_4 N4_4 1_555 1_555
C13_4 C12_4 1_555 1_555
H15_4 C13_4 1_555 1_555
H16_4 C13_4 1_555 1_555
C19_4 C11_4 1_555 1_555
H23_4 C19_4 1_555 1_555
C11_4 C12_4 1_555 1_555
C19_4 H24_4 1_555 1_555
C9_4 H11_4 1_555 1_555
H13_4 C9_4 1_555 1_555

#END
