
###############################################################################
#
# This file contains modified crystal structure data generated from the
# MOF subset of the Cambridge Structural Database (CSD) v543 
# hosted by the Cambridge Crystallographic Data Centre (CCDC).
#
# This work is licensed under the Creative Commons
# Attribution-NonCommercial-ShareAlike 4.0 International License.
# To view a copy of this license, visit
# http://creativecommons.org/licenses/by-nc-sa/4.0/
# or send a letter to
# Creative Commons, PO Box 1866, Mountain View, CA 94042, USA.
#
# CIF created using the CSD Python API on 29 September 2022
# The structure has been converted into the P1 space group
# The structure has a 3D framework
# The original CSD entry POBGAQ01 is in the orthorhombic crystal system
# The framework has been calculated to contain at least 10.0% void space
# The void calculation uses a probe of radius 1.32A, grid spacing 0.4
#
###############################################################################

data_POBGAQ01
_chemical_formula_moiety         '(C444 H368 B16 Fe10 N48)n'
_symmetry_cell_setting           triclinic
_symmetry_space_group_name_H-M   'P 1'
_symmetry_Int_Tables_number      1
_space_group_name_Hall           'P 1'
loop_
_symmetry_equiv_pos_site_id
_symmetry_equiv_pos_as_xyz
1 x,y,z
_cell_length_a                   16.9434(6)
_cell_length_b                   40.319(5)
_cell_length_c                   35.6426(11)
_cell_angle_alpha                90
_cell_angle_beta                 90
_cell_angle_gamma                90
_cell_volume                     24348.9
loop_
_atom_site_label
_atom_site_type_symbol
_atom_site_fract_x
_atom_site_fract_y
_atom_site_fract_z
N3 N 0.0535(3) 0.25074(13) 0.29017(10)
C28 C 0.0576(3) 0.27170(16) 0.31939(13)
H27 H 0.0990 0.2869 0.3197
C29 C 0.0040(3) 0.27249(17) 0.34968(11)
H28 H 0.0100 0.2878 0.3690
B3 B 0.018(2) 0.010(13) 0.7590(9)
H47 H 0.0274 0.0268 0.7817
H49 H 0.0577 0.0262 0.7402
Fe3 Fe 0.13469(8) 0.2500 0.2500
H48 H 0.0336 0.9824 0.7556
N7 N 0.2818(2) 0.74954(14) 0.28984(9)
C56 C 0.2246(3) 0.72639(18) 0.28987(11)
H50 H 0.2223 0.7122 0.2693
C57 C 0.1684(3) 0.72170(17) 0.31808(11)
H51 H 0.1305 0.7050 0.3172
C58 C 0.1743(3) 0.74546(18) 0.34927(11)
C59 C 0.2331(3) 0.76898(16) 0.34960(12)
H52 H 0.2381 0.7837 0.3695
C60 C 0.2854(3) 0.77020(16) 0.31911(12)
H53 H 0.3247 0.7863 0.3193
C61 C 0.1150(3) 0.73904(15) 0.38067(12)
H54 H 0.0763 0.7231 0.3767
C62 C 0.1157(2) 0.75484(15) 0.41316(11)
H55 H 0.1566 0.7698 0.4169
C63 C 0.0587(3) 0.75129(17) 0.44396(12)
C64 C 0.0082(3) 0.72460(15) 0.44474(11)
H56 H 0.0137 0.7076 0.4273
C68 C 0.0545(3) 0.77418(14) 0.47278(11)
H59 H 0.0909 0.7914 0.4740
Fe5 Fe 0.36531(8) 0.7500 0.2500
Fe2 Fe 0.7500 -0.0000 0.74209(4)
B1 B 0.1113(3) 0.36139(10) 0.25040(9)
H1 H 0.1046 0.3705 0.2233
H2 H 0.1566 0.3771 0.2589
H3 H 0.0647 0.3741 0.2627
H5 H 0.4664 0.0176 0.7556
N1 N 0.2182(2) 0.25046(14) 0.28984(9)
N2 N 0.7299(5) 0.46282(15) 0.71461(18)
N4 N 0.7310(7) 0.03716(18) 0.69947(17)
N5 N 0.1287(5) 0.2978(3) 0.2480(3)
C1 C 0.2754(3) 0.27361(18) 0.28987(11)
H7 H 0.2777 0.2878 0.2693
C2 C 0.3316(3) 0.27830(17) 0.31808(11)
H8 H 0.3695 0.2950 0.3172
C3 C 0.3257(3) 0.25454(18) 0.34927(11)
C4 C 0.2669(3) 0.23102(16) 0.34960(12)
H9 H 0.2619 0.2163 0.3695
C5 C 0.2146(3) 0.22980(16) 0.31911(12)
H10 H 0.1753 0.2137 0.3193
C6 C 0.3850(3) 0.26096(15) 0.38067(12)
H11 H 0.4237 0.2769 0.3767
C7 C 0.3843(2) 0.24516(15) 0.41316(11)
H12 H 0.3434 0.2302 0.4169
C8 C 0.4413(3) 0.24871(17) 0.44396(12)
C9 C 0.4918(3) 0.27540(15) 0.44474(11)
H13 H 0.4863 0.2924 0.4273
C10 C 0.5523(3) 0.27692(14) 0.47225(12)
H14 H 0.5876 0.2946 0.4713
C11 C 0.5613(3) 0.25384(12) 0.50001(10)
C12 C 0.5040(3) 0.22852(14) 0.49994(10)
H15 H 0.5054 0.2128 0.5190
C13 C 0.4455(3) 0.22582(14) 0.47278(11)
H16 H 0.4091 0.2086 0.4740
C14 C 0.6324(3) 0.25539(12) 0.52537(10)
C15 C 0.6318(3) 0.28507(15) 0.55214(11)
C16 C 0.5773(3) 0.31028(17) 0.55141(12)
H17 H 0.5357 0.3095 0.5344
C17 C 0.5838(4) 0.33755(16) 0.57641(15)
H18 H 0.5479 0.3550 0.5752
C18 C 0.6430(4) 0.33790(18) 0.60219(13)
C19 C 0.6941(4) 0.31274(19) 0.60488(14)
H19 H 0.7330 0.3130 0.6233
C20 C 0.6894(3) 0.28655(16) 0.58047(12)
H20 H 0.7253 0.2692 0.5827
C21 C 0.6457(4) 0.3710(3) 0.62477(17)
H21 H 0.6065 0.3871 0.6224
C22 C 0.6963(6) 0.3744(2) 0.6436(3)
H22 H 0.7319 0.3569 0.6446
C23 C 0.7171(5) 0.40627(16) 0.6704(2)
C24 C 0.6645(4) 0.4324(2) 0.66553(14)
H23 H 0.6250 0.4309 0.6475
C25 C 0.6709(5) 0.46065(16) 0.6876(2)
H24 H 0.6357 0.4781 0.6844
C26 C 0.7761(5) 0.40844(19) 0.6974(2)
H25 H 0.8113 0.3910 0.7006
C27 C 0.7825(4) 0.4367(2) 0.71948(15)
H26 H 0.8220 0.4382 0.7375
C30 C 0.9438(3) 0.25049(16) 0.35009(12)
C31 C 0.9357(3) 0.22728(18) 0.31919(11)
H29 H 0.8951 0.2118 0.3180
C32 C 0.9957(4) 0.23022(17) 0.29045(11)
H30 H 0.9919 0.2158 0.2702
C33 C 0.8842(2) 0.24774(15) 0.38081(11)
H31 H 0.8438 0.2324 0.3773
C34 C 0.8830(3) 0.26488(14) 0.41241(12)
H32 H 0.9229 0.2803 0.4163
C35 C 0.8223(3) 0.26117(14) 0.44221(11)
C36 C 0.8222(3) 0.28269(14) 0.47188(12)
H33 H 0.8616 0.2987 0.4740
C37 C 0.7617(3) 0.28054(14) 0.49956(10)
H34 H 0.7616 0.2954 0.5195
C38 C 0.7043(3) 0.25719(13) 0.49731(11)
C39 C 0.7064(3) 0.23477(14) 0.46746(12)
H35 H 0.6679 0.2184 0.4657
C40 C 0.7654(3) 0.23667(14) 0.44037(12)
H36 H 0.7666 0.2213 0.4209
C41 C 0.6379(3) 0.22376(14) 0.55013(11)
C42 C 0.6980(3) 0.20098(17) 0.54568(12)
H37 H 0.7357 0.2041 0.5270
C43 C 0.7025(3) 0.17387(16) 0.56864(14)
H38 H 0.7422 0.1583 0.5647
C44 C 0.6491(4) 0.16894(17) 0.59775(14)
C45 C 0.5896(4) 0.19157(19) 0.60163(14)
H39 H 0.5515 0.1884 0.6201
C46 C 0.5849(3) 0.21905(15) 0.57877(11)
H40 H 0.5454 0.2346 0.5828
C47 C 0.6520(5) 0.14137(19) 0.62323(17)
H41 H 0.6149 0.1407 0.6424
C48 C 0.7024(5) 0.1176(2) 0.62137(15)
H42 H 0.7368 0.1184 0.6011
C49 C 0.7133(7) 0.0884(2) 0.64765(19)
C50 C 0.7788(7) 0.0671(2) 0.6449(2)
H43 H 0.8157 0.0693 0.6258
C51 C 0.7857(6) 0.0429(2) 0.6718(2)
H44 H 0.8305 0.0295 0.6713
C52 C 0.6546(7) 0.0844(2) 0.6750(2)
H45 H 0.6108 0.0982 0.6763
C53 C 0.6664(8) 0.0575(3) 0.7009(2)
H46 H 0.6287 0.0537 0.7193
C55 C 0.1331(9) 0.3217(4) 0.2513(4)
N11 N 0.8559(8) 0.0093(4) 0.7425(3)
C109 C 0.9125(9) 0.0135(7) 0.7450(5)
B4 B 0.1113(3) 0.13861(10) 0.24960(9)
H90 H 0.1046 0.1295 0.2767
H91 H 0.1566 0.1229 0.2411
H92 H 0.0647 0.1259 0.2373
N12 N 0.1287(5) 0.2022(3) 0.2520(3)
C110 C 0.1331(9) 0.1783(4) 0.2487(4)
Fe7 Fe 0.7500 0.5000 0.75791(4)
N13 N 0.2182(2) 0.24954(14) 0.21016(9)
N14 N 0.7299(5) 0.03718(15) 0.78539(18)
N17 N 0.0535(3) 0.24926(13) 0.20983(10)
Fe2_2 Fe 0.7500 1.0000 0.74209(4)
B2 B 0.482(2) 0.990(13) 0.7590(9)
H4 H 0.4726 0.9732 0.7817
H6 H 0.4423 0.9738 0.7402
N6 N 0.6441(8) 0.9907(4) 0.7425(3)
C54 C 0.5875(9) 0.9865(7) 0.7450(5)
N8 N 0.7701(5) 0.53718(15) 0.71461(18)
N9 N 0.4465(3) 0.74926(13) 0.29017(10)
N10 N 0.7690(7) 0.96284(18) 0.69947(17)
C65 C 0.9477(3) 0.72308(14) 0.47225(12)
H57 H 0.9124 0.7054 0.4713
C66 C 0.9387(3) 0.74616(12) 0.50001(10)
C67 C 0.9960(3) 0.77148(14) 0.49994(10)
H58 H 0.9946 0.7872 0.5190
C69 C 0.8676(3) 0.74461(12) 0.52537(10)
C70 C 0.8682(3) 0.71493(15) 0.55214(11)
C71 C 0.9227(3) 0.68972(17) 0.55141(12)
H60 H 0.9643 0.6905 0.5344
C72 C 0.9162(4) 0.66245(16) 0.57641(15)
H61 H 0.9521 0.6450 0.5752
C73 C 0.8570(4) 0.66210(18) 0.60219(13)
C74 C 0.8059(4) 0.68726(19) 0.60488(14)
H62 H 0.7670 0.6870 0.6233
C75 C 0.8106(3) 0.71345(16) 0.58047(12)
H63 H 0.7747 0.7308 0.5827
C76 C 0.8543(4) 0.6290(3) 0.62477(17)
H64 H 0.8935 0.6129 0.6224
C77 C 0.8037(6) 0.6256(2) 0.6436(3)
H65 H 0.7681 0.6431 0.6446
C78 C 0.7829(5) 0.59373(16) 0.6704(2)
C79 C 0.8355(4) 0.5676(2) 0.66553(14)
H66 H 0.8750 0.5691 0.6475
C80 C 0.8291(5) 0.53935(16) 0.6876(2)
H67 H 0.8643 0.5219 0.6844
C81 C 0.7239(5) 0.59156(19) 0.6974(2)
H68 H 0.6887 0.6090 0.7006
C82 C 0.7175(4) 0.5633(2) 0.71948(15)
H69 H 0.6780 0.5618 0.7375
C83 C 0.4424(3) 0.72830(16) 0.31939(13)
H70 H 0.4010 0.7131 0.3197
C84 C 0.4960(3) 0.72751(17) 0.34968(11)
H71 H 0.4900 0.7122 0.3690
C85 C 0.5562(3) 0.74951(16) 0.35009(12)
C86 C 0.5643(3) 0.77272(18) 0.31919(11)
H72 H 0.6049 0.7882 0.3180
C87 C 0.5043(4) 0.76978(17) 0.29045(11)
H73 H 0.5081 0.7842 0.2702
C88 C 0.6158(2) 0.75226(15) 0.38081(11)
H74 H 0.6562 0.7676 0.3773
C89 C 0.6170(3) 0.73512(14) 0.41241(12)
H75 H 0.5771 0.7197 0.4163
C90 C 0.6777(3) 0.73883(14) 0.44221(11)
C91 C 0.6778(3) 0.71731(14) 0.47188(12)
H76 H 0.6384 0.7013 0.4740
C92 C 0.7383(3) 0.71946(14) 0.49956(10)
H77 H 0.7384 0.7046 0.5195
C93 C 0.7957(3) 0.74281(13) 0.49731(11)
C94 C 0.7936(3) 0.76523(14) 0.46746(12)
H78 H 0.8321 0.7816 0.4657
C95 C 0.7346(3) 0.76333(14) 0.44037(12)
H79 H 0.7334 0.7787 0.4209
C96 C 0.8621(3) 0.77624(14) 0.55013(11)
C97 C 0.8020(3) 0.79902(17) 0.54568(12)
H80 H 0.7643 0.7959 0.5270
C98 C 0.7975(3) 0.82613(16) 0.56864(14)
H81 H 0.7578 0.8417 0.5647
C99 C 0.8509(4) 0.83106(17) 0.59775(14)
C100 C 0.9104(4) 0.80843(19) 0.60163(14)
H82 H 0.9485 0.8116 0.6201
C101 C 0.9151(3) 0.78095(15) 0.57877(11)
H83 H 0.9546 0.7654 0.5828
C102 C 0.8480(5) 0.85863(19) 0.62323(17)
H84 H 0.8851 0.8593 0.6424
C103 C 0.7976(5) 0.8824(2) 0.62137(15)
H85 H 0.7632 0.8816 0.6011
C104 C 0.7867(7) 0.9116(2) 0.64765(19)
C105 C 0.7212(7) 0.9329(2) 0.6449(2)
H86 H 0.6843 0.9307 0.6258
C106 C 0.7143(6) 0.9571(2) 0.6718(2)
H87 H 0.6695 0.9705 0.6713
C107 C 0.8454(7) 0.9156(2) 0.6750(2)
H88 H 0.8892 0.9018 0.6763
C108 C 0.8336(8) 0.9425(3) 0.7009(2)
H89 H 0.8713 0.9463 0.7193
N15 N 0.7701(5) 0.96282(15) 0.78539(18)
B1_2 B 0.3887(3) 0.63861(10) 0.25040(9)
H1_2 H 0.3954 0.6295 0.2233
H2_2 H 0.3434 0.6229 0.2589
H3_2 H 0.4353 0.6259 0.2627
N5_2 N 0.3713(5) 0.7022(3) 0.2480(3)
C55_2 C 0.3669(9) 0.6783(4) 0.2513(4)
B4_2 B 0.3887(3) 0.86139(10) 0.24960(9)
H90_2 H 0.3954 0.8705 0.2767
H91_2 H 0.3434 0.8771 0.2411
H92_2 H 0.4353 0.8741 0.2373
N12_2 N 0.3713(5) 0.7978(3) 0.2520(3)
C110_2 C 0.3669(9) 0.8217(4) 0.2487(4)
N13_2 N 0.2818(2) 0.75046(14) 0.21016(9)
N17_2 N 0.4465(3) 0.75074(13) 0.20983(10)
C28_2 C 0.0576(3) 0.22830(16) 0.18061(13)
H27_2 H 0.0990 0.2131 0.1803
C29_2 C 0.0040(3) 0.22751(17) 0.15032(11)
H28_2 H 0.0100 0.2122 0.1310
C56_2 C 0.2246(3) 0.77361(18) 0.21013(11)
H50_2 H 0.2223 0.7878 0.2307
C57_2 C 0.1684(3) 0.77830(17) 0.18192(11)
H51_2 H 0.1305 0.7950 0.1828
C58_2 C 0.1743(3) 0.75454(18) 0.15073(11)
C59_2 C 0.2331(3) 0.73102(16) 0.15040(12)
H52_2 H 0.2381 0.7163 0.1305
C60_2 C 0.2854(3) 0.72980(16) 0.18089(12)
H53_2 H 0.3247 0.7137 0.1807
C61_2 C 0.1150(3) 0.76096(15) 0.11933(12)
H54_2 H 0.0763 0.7769 0.1233
C62_2 C 0.1157(2) 0.74516(15) 0.08684(11)
H55_2 H 0.1566 0.7302 0.0831
C63_2 C 0.0587(3) 0.74871(17) 0.05604(12)
C64_2 C 0.0082(3) 0.77540(15) 0.05526(11)
H56_2 H 0.0137 0.7924 0.0727
C68_2 C 0.0545(3) 0.72582(14) 0.02722(11)
H59_2 H 0.0909 0.7086 0.0260
C1_2 C 0.2754(3) 0.22639(18) 0.21013(11)
H7_2 H 0.2777 0.2122 0.2307
C2_2 C 0.3316(3) 0.22170(17) 0.18192(11)
H8_2 H 0.3695 0.2050 0.1828
C3_2 C 0.3257(3) 0.24546(18) 0.15073(11)
C4_2 C 0.2669(3) 0.26898(16) 0.15040(12)
H9_2 H 0.2619 0.2837 0.1305
C5_2 C 0.2146(3) 0.27020(16) 0.18089(12)
H10_2 H 0.1753 0.2863 0.1807
C6_2 C 0.3850(3) 0.23904(15) 0.11933(12)
H11_2 H 0.4237 0.2231 0.1233
C7_2 C 0.3843(2) 0.25484(15) 0.08684(11)
H12_2 H 0.3434 0.2698 0.0831
C8_2 C 0.4413(3) 0.25129(17) 0.05604(12)
C9_2 C 0.4918(3) 0.22460(15) 0.05526(11)
H13_2 H 0.4863 0.2076 0.0727
C10_2 C 0.5523(3) 0.22308(14) 0.02775(12)
H14_2 H 0.5876 0.2054 0.0287
C11_2 C 0.5613(3) 0.24616(12) -0.00001(10)
C12_2 C 0.5040(3) 0.27148(14) 0.00006(10)
C13_2 C 0.4455(3) 0.27418(14) 0.02722(11)
H16_2 H 0.4091 0.2914 0.0260
C30_2 C 0.9438(3) 0.24951(16) 0.14991(12)
C31_2 C 0.9357(3) 0.27272(18) 0.18081(11)
H29_2 H 0.8951 0.2882 0.1820
C32_2 C 0.9957(4) 0.26978(17) 0.20955(11)
H30_2 H 0.9919 0.2842 0.2298
C33_2 C 0.8842(2) 0.25226(15) 0.11919(11)
H31_2 H 0.8438 0.2676 0.1227
C34_2 C 0.8830(3) 0.23512(14) 0.08759(12)
H32_2 H 0.9229 0.2197 0.0837
C35_2 C 0.8223(3) 0.23883(14) 0.05779(11)
C36_2 C 0.8222(3) 0.21731(14) 0.02812(12)
H33_2 H 0.8616 0.2013 0.0260
C37_2 C 0.7617(3) 0.21946(14) 0.00044(10)
C38_2 C 0.7043(3) 0.24281(13) 0.00269(11)
C39_2 C 0.7064(3) 0.26523(14) 0.03254(12)
H35_2 H 0.6679 0.2816 0.0343
C40_2 C 0.7654(3) 0.26333(14) 0.05963(12)
H36_2 H 0.7666 0.2787 0.0791
C65_2 C 0.9477(3) 0.77692(14) 0.02775(12)
H57_2 H 0.9124 0.7946 0.0287
C66_2 C 0.9387(3) 0.75384(12) -0.00001(10)
C67_2 C 0.9960(3) 0.72852(14) 0.00006(10)
C83_2 C 0.4424(3) 0.77170(16) 0.18061(13)
H70_2 H 0.4010 0.7869 0.1803
C84_2 C 0.4960(3) 0.77249(17) 0.15032(11)
H71_2 H 0.4900 0.7878 0.1310
C85_2 C 0.5562(3) 0.75049(16) 0.14991(12)
C86_2 C 0.5643(3) 0.72728(18) 0.18081(11)
H72_2 H 0.6049 0.7118 0.1820
C87_2 C 0.5043(4) 0.73022(17) 0.20955(11)
H73_2 H 0.5081 0.7158 0.2298
C88_2 C 0.6158(2) 0.74774(15) 0.11919(11)
H74_2 H 0.6562 0.7324 0.1227
C89_2 C 0.6170(3) 0.76488(14) 0.08759(12)
H75_2 H 0.5771 0.7803 0.0837
C90_2 C 0.6777(3) 0.76117(14) 0.05779(11)
C91_2 C 0.6778(3) 0.78269(14) 0.02812(12)
H76_2 H 0.6384 0.7987 0.0260
C92_2 C 0.7383(3) 0.78054(14) 0.00044(10)
C93_2 C 0.7957(3) 0.75719(13) 0.00269(11)
C94_2 C 0.7936(3) 0.73477(14) 0.03254(12)
H78_2 H 0.8321 0.7184 0.0343
C95_2 C 0.7346(3) 0.73667(14) 0.05963(12)
H79_2 H 0.7334 0.7213 0.0791
B2_2 B 0.482(2) 0.510(13) 0.7410(9)
H4_2 H 0.4726 0.5268 0.7183
H5_2 H 0.4664 0.4824 0.7444
H6_2 H 0.4423 0.5262 0.7598
N4_2 N 0.7310(7) 0.46284(18) 0.80053(17)
N6_2 N 0.6441(8) 0.5093(4) 0.7575(3)
C11_3 C 0.5613(3) 0.24616(12) 0.99999(10)
H15_2 H 0.5054 0.2872 0.9810
C14_2 C 0.6324(3) 0.24461(12) 0.97463(10)
C15_2 C 0.6318(3) 0.21493(15) 0.94786(11)
C16_2 C 0.5773(3) 0.18972(17) 0.94859(12)
H17_2 H 0.5357 0.1905 0.9656
C17_2 C 0.5838(4) 0.16245(16) 0.92359(15)
H18_2 H 0.5479 0.1450 0.9248
C18_2 C 0.6430(4) 0.16210(18) 0.89781(13)
C19_2 C 0.6941(4) 0.18726(19) 0.89512(14)
H19_2 H 0.7330 0.1870 0.8767
C20_2 C 0.6894(3) 0.21345(16) 0.91953(12)
H20_2 H 0.7253 0.2308 0.9173
C21_2 C 0.6457(4) 0.1290(3) 0.87523(17)
H21_2 H 0.6065 0.1129 0.8776
C22_2 C 0.6963(6) 0.1256(2) 0.8564(3)
H22_2 H 0.7319 0.1431 0.8554
C23_2 C 0.7171(5) 0.09373(16) 0.8296(2)
C24_2 C 0.6645(4) 0.0676(2) 0.83447(14)
H23_2 H 0.6250 0.0691 0.8525
C25_2 C 0.6709(5) 0.03935(16) 0.8124(2)
H24_2 H 0.6357 0.0219 0.8156
C26_2 C 0.7761(5) 0.09156(19) 0.8026(2)
H25_2 H 0.8113 0.1090 0.7994
C27_2 C 0.7825(4) 0.0633(2) 0.78052(15)
H26_2 H 0.8220 0.0618 0.7625
H34_2 H 0.7616 0.2046 0.9805
C41_2 C 0.6379(3) 0.27624(14) 0.94987(11)
C42_2 C 0.6980(3) 0.29902(17) 0.95432(12)
H37_2 H 0.7357 0.2959 0.9730
C43_2 C 0.7025(3) 0.32613(16) 0.93136(14)
H38_2 H 0.7422 0.3417 0.9353
C44_2 C 0.6491(4) 0.33106(17) 0.90225(14)
C45_2 C 0.5896(4) 0.30843(19) 0.89837(14)
H39_2 H 0.5515 0.3116 0.8799
C46_2 C 0.5849(3) 0.28095(15) 0.92123(11)
H40_2 H 0.5454 0.2654 0.9172
C47_2 C 0.6520(5) 0.35863(19) 0.87677(17)
H41_2 H 0.6149 0.3593 0.8576
C48_2 C 0.7024(5) 0.3824(2) 0.87863(15)
H42_2 H 0.7368 0.3816 0.8989
C49_2 C 0.7133(7) 0.4116(2) 0.85235(19)
C50_2 C 0.7788(7) 0.4329(2) 0.8551(2)
H43_2 H 0.8157 0.4307 0.8742
C51_2 C 0.7857(6) 0.4571(2) 0.8282(2)
H44_2 H 0.8305 0.4705 0.8287
C52_2 C 0.6546(7) 0.4156(2) 0.8250(2)
H45_2 H 0.6108 0.4018 0.8237
C53_2 C 0.6664(8) 0.4425(3) 0.7991(2)
H46_2 H 0.6287 0.4463 0.7807
C54_2 C 0.5875(9) 0.5135(7) 0.7550(5)
N10_2 N 0.7690(7) 0.53716(18) 0.80053(17)
N11_2 N 0.8559(8) 0.4907(4) 0.7575(3)
C66_3 C 0.9387(3) 0.75384(12) 0.99999(10)
H58_2 H 0.9946 0.7128 0.9810
C69_2 C 0.8676(3) 0.75539(12) 0.97463(10)
C70_2 C 0.8682(3) 0.78507(15) 0.94786(11)
C71_2 C 0.9227(3) 0.81028(17) 0.94859(12)
H60_2 H 0.9643 0.8095 0.9656
C72_2 C 0.9162(4) 0.83755(16) 0.92359(15)
H61_2 H 0.9521 0.8550 0.9248
C73_2 C 0.8570(4) 0.83790(18) 0.89781(13)
C74_2 C 0.8059(4) 0.81274(19) 0.89512(14)
H62_2 H 0.7670 0.8130 0.8767
C75_2 C 0.8106(3) 0.78655(16) 0.91953(12)
H63_2 H 0.7747 0.7692 0.9173
C76_2 C 0.8543(4) 0.8710(3) 0.87523(17)
H64_2 H 0.8935 0.8871 0.8776
C77_2 C 0.8037(6) 0.8744(2) 0.8564(3)
H65_2 H 0.7681 0.8569 0.8554
C78_2 C 0.7829(5) 0.90627(16) 0.8296(2)
C79_2 C 0.8355(4) 0.9324(2) 0.83447(14)
H66_2 H 0.8750 0.9309 0.8525
C80_2 C 0.8291(5) 0.96065(16) 0.8124(2)
H67_2 H 0.8643 0.9781 0.8156
C81_2 C 0.7239(5) 0.90844(19) 0.8026(2)
H68_2 H 0.6887 0.8910 0.7994
C82_2 C 0.7175(4) 0.9367(2) 0.78052(15)
H69_2 H 0.6780 0.9382 0.7625
H77_2 H 0.7384 0.7954 0.9805
C96_2 C 0.8621(3) 0.72376(14) 0.94987(11)
C97_2 C 0.8020(3) 0.70098(17) 0.95432(12)
H80_2 H 0.7643 0.7041 0.9730
C98_2 C 0.7975(3) 0.67387(16) 0.93136(14)
H81_2 H 0.7578 0.6583 0.9353
C99_2 C 0.8509(4) 0.66894(17) 0.90225(14)
C100_2 C 0.9104(4) 0.69157(19) 0.89837(14)
H82_2 H 0.9485 0.6884 0.8799
C101_2 C 0.9151(3) 0.71905(15) 0.92123(11)
H83_2 H 0.9546 0.7346 0.9172
C102_2 C 0.8480(5) 0.64137(19) 0.87677(17)
H84_2 H 0.8851 0.6407 0.8576
C103_2 C 0.7976(5) 0.6176(2) 0.87863(15)
H85_2 H 0.7632 0.6184 0.8989
C104_2 C 0.7867(7) 0.5884(2) 0.85235(19)
C105_2 C 0.7212(7) 0.5671(2) 0.8551(2)
H86_2 H 0.6843 0.5693 0.8742
C106_2 C 0.7143(6) 0.5429(2) 0.8282(2)
H87_2 H 0.6695 0.5295 0.8287
C107_2 C 0.8454(7) 0.5844(2) 0.8250(2)
H88_2 H 0.8892 0.5982 0.8237
C108_2 C 0.8336(8) 0.5575(3) 0.7991(2)
H89_2 H 0.8713 0.5537 0.7807
C109_2 C 0.9125(9) 0.4865(7) 0.7550(5)
B3_2 B 0.018(2) 0.490(13) 0.7410(9)
H47_2 H 0.0274 0.4732 0.7183
H48_2 H 0.0336 0.5176 0.7444
H49_2 H 0.0577 0.4738 0.7598
Fe2_3 Fe 0.2500 0.0000 0.25791(4)
B2_3 B 0.518(2) 0.010(13) 0.2410(9)
H4_3 H 0.5274 0.0268 0.2183
H6_3 H 0.5577 0.0262 0.2598
N6_3 N 0.3559(8) 0.0093(4) 0.2575(3)
C54_3 C 0.4125(9) 0.0135(7) 0.2550(5)
N8_2 N 0.2299(5) 0.46282(15) 0.28539(18)
N9_2 N 0.5535(3) 0.25074(13) 0.70983(10)
N10_3 N 0.2310(7) 0.03716(18) 0.30053(17)
C65_3 C 0.0523(3) 0.27692(14) 0.52775(12)
H57_3 H 0.0876 0.2946 0.5287
C66_4 C 0.0613(3) 0.25384(12) 0.49999(10)
C67_3 C 0.0040(3) 0.22852(14) 0.50006(10)
H58_3 H 0.0054 0.2128 0.4810
C69_3 C 0.1324(3) 0.25539(12) 0.47463(10)
C70_3 C 0.1318(3) 0.28507(15) 0.44786(11)
C71_3 C 0.0773(3) 0.31028(17) 0.44859(12)
H60_3 H 0.0357 0.3095 0.4656
C72_3 C 0.0838(4) 0.33755(16) 0.42359(15)
H61_3 H 0.0479 0.3550 0.4248
C73_3 C 0.1430(4) 0.33790(18) 0.39781(13)
C74_3 C 0.1941(4) 0.31274(19) 0.39512(14)
H62_3 H 0.2330 0.3130 0.3767
C75_3 C 0.1894(3) 0.28655(16) 0.41953(12)
H63_3 H 0.2253 0.2692 0.4173
C76_3 C 0.1457(4) 0.3710(3) 0.37523(17)
H64_3 H 0.1065 0.3871 0.3776
C77_3 C 0.1963(6) 0.3744(2) 0.3564(3)
H65_3 H 0.2319 0.3569 0.3554
C78_3 C 0.2171(5) 0.40627(16) 0.3296(2)
C79_3 C 0.1645(4) 0.4324(2) 0.33447(14)
H66_3 H 0.1250 0.4309 0.3525
C80_3 C 0.1709(5) 0.46065(16) 0.3124(2)
H67_3 H 0.1357 0.4781 0.3156
C81_3 C 0.2761(5) 0.40844(19) 0.3026(2)
H68_3 H 0.3113 0.3910 0.2994
C82_3 C 0.2825(4) 0.4367(2) 0.28052(15)
H69_3 H 0.3220 0.4382 0.2625
C83_3 C 0.5576(3) 0.27170(16) 0.68061(13)
H70_3 H 0.5990 0.2869 0.6803
C84_3 C 0.5040(3) 0.27249(17) 0.65032(11)
H71_3 H 0.5100 0.2878 0.6310
C85_3 C 0.4438(3) 0.25049(16) 0.64991(12)
C86_3 C 0.4357(3) 0.22728(18) 0.68081(11)
H72_3 H 0.3951 0.2118 0.6820
C87_3 C 0.4957(4) 0.23022(17) 0.70955(11)
H73_3 H 0.4919 0.2158 0.7298
C88_3 C 0.3842(2) 0.24774(15) 0.61919(11)
H74_3 H 0.3438 0.2324 0.6227
C89_3 C 0.3830(3) 0.26488(14) 0.58759(12)
H75_3 H 0.4229 0.2803 0.5837
C90_3 C 0.3223(3) 0.26117(14) 0.55779(11)
C91_3 C 0.3222(3) 0.28269(14) 0.52812(12)
H76_3 H 0.3616 0.2987 0.5260
C92_3 C 0.2617(3) 0.28054(14) 0.50044(10)
H77_3 H 0.2616 0.2954 0.4805
C93_3 C 0.2043(3) 0.25719(13) 0.50269(11)
C94_3 C 0.2064(3) 0.23477(14) 0.53254(12)
H78_3 H 0.1679 0.2184 0.5343
C95_3 C 0.2654(3) 0.23667(14) 0.55963(12)
H79_3 H 0.2666 0.2213 0.5791
C96_3 C 0.1379(3) 0.22376(14) 0.44987(11)
C97_3 C 0.1980(3) 0.20098(17) 0.45432(12)
H80_3 H 0.2357 0.2041 0.4730
C98_3 C 0.2025(3) 0.17387(16) 0.43136(14)
H81_3 H 0.2422 0.1583 0.4353
C99_3 C 0.1491(4) 0.16894(17) 0.40225(14)
C100_3 C 0.0896(4) 0.19157(19) 0.39837(14)
H82_3 H 0.0515 0.1884 0.3799
C101_3 C 0.0849(3) 0.21905(15) 0.42123(11)
H83_3 H 0.0454 0.2346 0.4172
C102_3 C 0.1520(5) 0.14137(19) 0.37677(17)
H84_3 H 0.1149 0.1407 0.3576
C103_3 C 0.2024(5) 0.1176(2) 0.37863(15)
H85_3 H 0.2368 0.1184 0.3989
C104_3 C 0.2133(7) 0.0884(2) 0.35235(19)
C105_3 C 0.2788(7) 0.0671(2) 0.3551(2)
H86_3 H 0.3157 0.0693 0.3742
C106_3 C 0.2857(6) 0.0429(2) 0.3282(2)
H87_3 H 0.3305 0.0295 0.3287
C107_3 C 0.1546(7) 0.0844(2) 0.3250(2)
H88_3 H 0.1108 0.0982 0.3237
C108_3 C 0.1664(8) 0.0575(3) 0.2991(2)
H89_3 H 0.1287 0.0537 0.2807
Fe4 Fe 0.63469(8) 0.2500 0.7500
Fe6 Fe 0.2500 0.5000 0.24209(4)
N15_2 N 0.2299(5) 0.03718(15) 0.21461(18)
Fe1 Fe 0.86531(8) 0.7500 0.7500
Fe2_4 Fe 0.2500 1.0000 0.25791(4)
B1_3 B 0.8887(3) 0.63861(10) 0.74960(9)
H1_3 H 0.8954 0.6295 0.7767
H2_3 H 0.8434 0.6229 0.7411
H3_3 H 0.9353 0.6259 0.7373
H5_3 H 0.5336 0.9824 0.2444
N1_2 N 0.7818(2) 0.74954(14) 0.71016(9)
N2_2 N 0.2701(5) 0.53718(15) 0.28539(18)
N4_3 N 0.2690(7) 0.96284(18) 0.30053(17)
N5_3 N 0.8713(5) 0.7022(3) 0.7520(3)
C1_3 C 0.7246(3) 0.72639(18) 0.71013(11)
H7_3 H 0.7223 0.7122 0.7307
C2_3 C 0.6684(3) 0.72170(17) 0.68192(11)
H8_3 H 0.6305 0.7050 0.6828
C3_3 C 0.6743(3) 0.74546(18) 0.65073(11)
C4_3 C 0.7331(3) 0.76898(16) 0.65040(12)
H9_3 H 0.7381 0.7837 0.6305
C5_3 C 0.7854(3) 0.77020(16) 0.68089(12)
H10_3 H 0.8247 0.7863 0.6807
C6_3 C 0.6150(3) 0.73904(15) 0.61933(12)
H11_3 H 0.5763 0.7231 0.6233
C7_3 C 0.6157(2) 0.75484(15) 0.58684(11)
H12_3 H 0.6566 0.7698 0.5831
C8_3 C 0.5587(3) 0.75129(17) 0.55604(12)
C9_3 C 0.5082(3) 0.72460(15) 0.55526(11)
H13_3 H 0.5137 0.7076 0.5727
C10_3 C 0.4477(3) 0.72308(14) 0.52775(12)
H14_3 H 0.4124 0.7054 0.5287
C11_4 C 0.4387(3) 0.74616(12) 0.49999(10)
C12_3 C 0.4960(3) 0.77148(14) 0.50006(10)
H15_3 H 0.4946 0.7872 0.4810
C13_3 C 0.5545(3) 0.77418(14) 0.52722(11)
H16_3 H 0.5909 0.7914 0.5260
C14_3 C 0.3676(3) 0.74461(12) 0.47463(10)
C15_3 C 0.3682(3) 0.71493(15) 0.44786(11)
C16_3 C 0.4227(3) 0.68972(17) 0.44859(12)
H17_3 H 0.4643 0.6905 0.4656
C17_3 C 0.4162(4) 0.66245(16) 0.42359(15)
H18_3 H 0.4521 0.6450 0.4248
C18_3 C 0.3570(4) 0.66210(18) 0.39781(13)
C19_3 C 0.3059(4) 0.68726(19) 0.39512(14)
H19_3 H 0.2670 0.6870 0.3767
C20_3 C 0.3106(3) 0.71345(16) 0.41953(12)
H20_3 H 0.2747 0.7308 0.4173
C21_3 C 0.3543(4) 0.6290(3) 0.37523(17)
H21_3 H 0.3935 0.6129 0.3776
C22_3 C 0.3037(6) 0.6256(2) 0.3564(3)
H22_3 H 0.2681 0.6431 0.3554
C23_3 C 0.2829(5) 0.59373(16) 0.3296(2)
C24_3 C 0.3355(4) 0.5676(2) 0.33447(14)
H23_3 H 0.3750 0.5691 0.3525
C25_3 C 0.3291(5) 0.53935(16) 0.3124(2)
H24_3 H 0.3643 0.5219 0.3156
C26_3 C 0.2239(5) 0.59156(19) 0.3026(2)
H25_3 H 0.1887 0.6090 0.2994
C27_3 C 0.2175(4) 0.5633(2) 0.28052(15)
H26_3 H 0.1780 0.5618 0.2625
C30_3 C 0.0562(3) 0.74951(16) 0.64991(12)
C31_3 C 0.0643(3) 0.77272(18) 0.68081(11)
H29_3 H 0.1049 0.7882 0.6820
C32_3 C 0.0043(4) 0.76978(17) 0.70955(11)
H30_3 H 0.0081 0.7842 0.7298
C33_3 C 0.1158(2) 0.75226(15) 0.61919(11)
H31_3 H 0.1562 0.7676 0.6227
C34_3 C 0.1170(3) 0.73512(14) 0.58759(12)
H32_3 H 0.0771 0.7197 0.5837
C35_3 C 0.1777(3) 0.73883(14) 0.55779(11)
C36_3 C 0.1778(3) 0.71731(14) 0.52812(12)
H33_3 H 0.1384 0.7013 0.5260
C37_3 C 0.2383(3) 0.71946(14) 0.50044(10)
H34_3 H 0.2384 0.7046 0.4805
C38_3 C 0.2957(3) 0.74281(13) 0.50269(11)
C39_3 C 0.2936(3) 0.76523(14) 0.53254(12)
H35_3 H 0.3321 0.7816 0.5343
C40_3 C 0.2346(3) 0.76333(14) 0.55963(12)
H36_3 H 0.2334 0.7787 0.5791
C41_3 C 0.3621(3) 0.77624(14) 0.44987(11)
C42_3 C 0.3020(3) 0.79902(17) 0.45432(12)
H37_3 H 0.2643 0.7959 0.4730
C43_3 C 0.2975(3) 0.82613(16) 0.43136(14)
H38_3 H 0.2578 0.8417 0.4353
C44_3 C 0.3509(4) 0.83106(17) 0.40225(14)
C45_3 C 0.4104(4) 0.80843(19) 0.39837(14)
H39_3 H 0.4485 0.8116 0.3799
C46_3 C 0.4151(3) 0.78095(15) 0.42123(11)
H40_3 H 0.4546 0.7654 0.4172
C47_3 C 0.3480(5) 0.85863(19) 0.37677(17)
H41_3 H 0.3851 0.8593 0.3576
C48_3 C 0.2976(5) 0.8824(2) 0.37863(15)
H42_3 H 0.2632 0.8816 0.3989
C49_3 C 0.2867(7) 0.9116(2) 0.35235(19)
C50_3 C 0.2212(7) 0.9329(2) 0.3551(2)
H43_3 H 0.1843 0.9307 0.3742
C51_3 C 0.2143(6) 0.9571(2) 0.3282(2)
H44_3 H 0.1695 0.9705 0.3287
C52_3 C 0.3454(7) 0.9156(2) 0.3250(2)
H45_3 H 0.3892 0.9018 0.3237
C53_3 C 0.3336(8) 0.9425(3) 0.2991(2)
H46_3 H 0.3713 0.9463 0.2807
C55_3 C 0.8669(9) 0.6783(4) 0.7487(4)
N11_3 N 0.1441(8) 0.9907(4) 0.2575(3)
C109_3 C 0.0875(9) 0.9865(7) 0.2550(5)
B4_3 B 0.8887(3) 0.86139(10) 0.75040(9)
H90_3 H 0.8954 0.8705 0.7233
H91_3 H 0.8434 0.8771 0.7589
H92_3 H 0.9353 0.8741 0.7627
N12_3 N 0.8713(5) 0.7978(3) 0.7480(3)
C110_3 C 0.8669(9) 0.8217(4) 0.7513(4)
N13_3 N 0.7818(2) 0.75046(14) 0.78984(9)
N14_2 N 0.2701(5) 0.96282(15) 0.21461(18)
N16 N 0.9465(3) 0.74926(13) 0.70983(10)
N17_3 N 0.9465(3) 0.75074(13) 0.79017(10)
H48_3 H 0.9664 0.0176 0.2444
N7_2 N 0.7182(2) 0.25046(14) 0.71016(9)
C56_3 C 0.7754(3) 0.27361(18) 0.71013(11)
H50_3 H 0.7777 0.2878 0.7307
C57_3 C 0.8316(3) 0.27830(17) 0.68192(11)
H51_3 H 0.8695 0.2950 0.6828
C58_3 C 0.8257(3) 0.25454(18) 0.65073(11)
C59_3 C 0.7669(3) 0.23102(16) 0.65040(12)
H52_3 H 0.7619 0.2163 0.6305
C60_3 C 0.7146(3) 0.22980(16) 0.68089(12)
H53_3 H 0.6753 0.2137 0.6807
C61_3 C 0.8850(3) 0.26096(15) 0.61933(12)
H54_3 H 0.9237 0.2769 0.6233
C62_3 C 0.8843(2) 0.24516(15) 0.58684(11)
H55_3 H 0.8434 0.2302 0.5831
C63_3 C 0.9413(3) 0.24871(17) 0.55604(12)
C64_3 C 0.9918(3) 0.27540(15) 0.55526(11)
H56_3 H 0.9863 0.2924 0.5727
C68_3 C 0.9455(3) 0.22582(14) 0.52722(11)
H59_3 H 0.9091 0.2086 0.5260
C28_3 C 0.9424(3) 0.72830(16) 0.68061(13)
H27_3 H 0.9010 0.7131 0.6803
C29_3 C 0.9960(3) 0.72751(17) 0.65032(11)
H28_3 H 0.9900 0.7122 0.6310
B3_3 B 0.982(2) 0.990(13) 0.2410(9)
H47_3 H 0.9726 0.9732 0.2183
H49_3 H 0.9423 0.9738 0.2598
B1_4 B 0.6113(3) 0.36139(10) 0.74960(9)
H1_4 H 0.6046 0.3705 0.7767
H2_4 H 0.6566 0.3771 0.7411
H3_4 H 0.5647 0.3741 0.7373
N5_4 N 0.6287(5) 0.2978(3) 0.7520(3)
C55_4 C 0.6331(9) 0.3217(4) 0.7487(4)
B4_4 B 0.6113(3) 0.13861(10) 0.75040(9)
H90_4 H 0.6046 0.1295 0.7233
H91_4 H 0.6566 0.1229 0.7589
H92_4 H 0.5647 0.1259 0.7627
N12_4 N 0.6287(5) 0.2022(3) 0.7480(3)
C110_4 C 0.6331(9) 0.1783(4) 0.7513(4)
N13_4 N 0.7182(2) 0.24954(14) 0.78984(9)
N17_4 N 0.5535(3) 0.24926(13) 0.79017(10)
B2_4 B 0.518(2) 0.490(13) 0.2590(9)
H4_4 H 0.5274 0.4732 0.2817
H5_4 H 0.5336 0.5176 0.2556
H6_4 H 0.5577 0.4738 0.2402
N4_4 N 0.2690(7) 0.53716(18) 0.19947(17)
N6_4 N 0.3559(8) 0.4907(4) 0.2425(3)
C11_5 C 0.4387(3) 0.75384(12) 0.00001(10)
H15_4 H 0.4946 0.7128 0.0190
C14_4 C 0.3676(3) 0.75539(12) 0.02537(10)
C15_4 C 0.3682(3) 0.78507(15) 0.05214(11)
C16_4 C 0.4227(3) 0.81028(17) 0.05141(12)
H17_4 H 0.4643 0.8095 0.0344
C17_4 C 0.4162(4) 0.83755(16) 0.07641(15)
H18_4 H 0.4521 0.8550 0.0752
C18_4 C 0.3570(4) 0.83790(18) 0.10219(13)
C19_4 C 0.3059(4) 0.81274(19) 0.10488(14)
H19_4 H 0.2670 0.8130 0.1233
C20_4 C 0.3106(3) 0.78655(16) 0.08047(12)
H20_4 H 0.2747 0.7692 0.0827
C21_4 C 0.3543(4) 0.8710(3) 0.12477(17)
H21_4 H 0.3935 0.8871 0.1224
C22_4 C 0.3037(6) 0.8744(2) 0.1436(3)
H22_4 H 0.2681 0.8569 0.1446
C23_4 C 0.2829(5) 0.90627(16) 0.1704(2)
C24_4 C 0.3355(4) 0.9324(2) 0.16553(14)
H23_4 H 0.3750 0.9309 0.1475
C25_4 C 0.3291(5) 0.96065(16) 0.1876(2)
H24_4 H 0.3643 0.9781 0.1844
C26_4 C 0.2239(5) 0.90844(19) 0.1974(2)
H25_4 H 0.1887 0.8910 0.2006
C27_4 C 0.2175(4) 0.9367(2) 0.21948(15)
H26_4 H 0.1780 0.9382 0.2375
H34_4 H 0.2384 0.7954 0.0195
C41_4 C 0.3621(3) 0.72376(14) 0.05013(11)
C42_4 C 0.3020(3) 0.70098(17) 0.04568(12)
H37_4 H 0.2643 0.7041 0.0270
C43_4 C 0.2975(3) 0.67387(16) 0.06864(14)
H38_4 H 0.2578 0.6583 0.0647
C44_4 C 0.3509(4) 0.66894(17) 0.09775(14)
C45_4 C 0.4104(4) 0.69157(19) 0.10163(14)
H39_4 H 0.4485 0.6884 0.1201
C46_4 C 0.4151(3) 0.71905(15) 0.07877(11)
H40_4 H 0.4546 0.7346 0.0828
C47_4 C 0.3480(5) 0.64137(19) 0.12323(17)
H41_4 H 0.3851 0.6407 0.1424
C48_4 C 0.2976(5) 0.6176(2) 0.12137(15)
H42_4 H 0.2632 0.6184 0.1011
C49_4 C 0.2867(7) 0.5884(2) 0.14765(19)
C50_4 C 0.2212(7) 0.5671(2) 0.1449(2)
H43_4 H 0.1843 0.5693 0.1258
C51_4 C 0.2143(6) 0.5429(2) 0.1718(2)
H44_4 H 0.1695 0.5295 0.1713
C52_4 C 0.3454(7) 0.5844(2) 0.1750(2)
H45_4 H 0.3892 0.5982 0.1763
C53_4 C 0.3336(8) 0.5575(3) 0.2009(2)
H46_4 H 0.3713 0.5537 0.2193
C54_4 C 0.4125(9) 0.4865(7) 0.2450(5)
N10_4 N 0.2310(7) 0.46284(18) 0.19947(17)
N11_4 N 0.1441(8) 0.5093(4) 0.2425(3)
C66_5 C 0.0613(3) 0.24616(12) 0.00001(10)
H58_4 H 0.0054 0.2872 0.0190
C69_4 C 0.1324(3) 0.24461(12) 0.02537(10)
C70_4 C 0.1318(3) 0.21493(15) 0.05214(11)
C71_4 C 0.0773(3) 0.18972(17) 0.05141(12)
H60_4 H 0.0357 0.1905 0.0344
C72_4 C 0.0838(4) 0.16245(16) 0.07641(15)
H61_4 H 0.0479 0.1450 0.0752
C73_4 C 0.1430(4) 0.16210(18) 0.10219(13)
C74_4 C 0.1941(4) 0.18726(19) 0.10488(14)
H62_4 H 0.2330 0.1870 0.1233
C75_4 C 0.1894(3) 0.21345(16) 0.08047(12)
H63_4 H 0.2253 0.2308 0.0827
C76_4 C 0.1457(4) 0.1290(3) 0.12477(17)
H64_4 H 0.1065 0.1129 0.1224
C77_4 C 0.1963(6) 0.1256(2) 0.1436(3)
H65_4 H 0.2319 0.1431 0.1446
C78_4 C 0.2171(5) 0.09373(16) 0.1704(2)
C79_4 C 0.1645(4) 0.0676(2) 0.16553(14)
H66_4 H 0.1250 0.0691 0.1475
C80_4 C 0.1709(5) 0.03935(16) 0.1876(2)
H67_4 H 0.1357 0.0219 0.1844
C81_4 C 0.2761(5) 0.09156(19) 0.1974(2)
H68_4 H 0.3113 0.1090 0.2006
C82_4 C 0.2825(4) 0.0633(2) 0.21948(15)
H69_4 H 0.3220 0.0618 0.2375
H77_4 H 0.2616 0.2046 0.0195
C96_4 C 0.1379(3) 0.27624(14) 0.05013(11)
C97_4 C 0.1980(3) 0.29902(17) 0.04568(12)
H80_4 H 0.2357 0.2959 0.0270
C98_4 C 0.2025(3) 0.32613(16) 0.06864(14)
H81_4 H 0.2422 0.3417 0.0647
C99_4 C 0.1491(4) 0.33106(17) 0.09775(14)
C100_4 C 0.0896(4) 0.30843(19) 0.10163(14)
H82_4 H 0.0515 0.3116 0.1201
C101_4 C 0.0849(3) 0.28095(15) 0.07877(11)
H83_4 H 0.0454 0.2654 0.0828
C102_4 C 0.1520(5) 0.35863(19) 0.12323(17)
H84_4 H 0.1149 0.3593 0.1424
C103_4 C 0.2024(5) 0.3824(2) 0.12137(15)
H85_4 H 0.2368 0.3816 0.1011
C104_4 C 0.2133(7) 0.4116(2) 0.14765(19)
C105_4 C 0.2788(7) 0.4329(2) 0.1449(2)
H86_4 H 0.3157 0.4307 0.1258
C106_4 C 0.2857(6) 0.4571(2) 0.1718(2)
H87_4 H 0.3305 0.4705 0.1713
C107_4 C 0.1546(7) 0.4156(2) 0.1750(2)
H88_4 H 0.1108 0.4018 0.1763
C108_4 C 0.1664(8) 0.4425(3) 0.2009(2)
H89_4 H 0.1287 0.4463 0.2193
C109_4 C 0.0875(9) 0.5135(7) 0.2450(5)
C1_4 C 0.7246(3) 0.77361(18) 0.78987(11)
H7_4 H 0.7223 0.7878 0.7693
C2_4 C 0.6684(3) 0.77830(17) 0.81808(11)
H8_4 H 0.6305 0.7950 0.8172
C3_4 C 0.6743(3) 0.75454(18) 0.84927(11)
C4_4 C 0.7331(3) 0.73102(16) 0.84960(12)
H9_4 H 0.7381 0.7163 0.8695
C5_4 C 0.7854(3) 0.72980(16) 0.81911(12)
H10_4 H 0.8247 0.7137 0.8193
C6_4 C 0.6150(3) 0.76096(15) 0.88067(12)
H11_4 H 0.5763 0.7769 0.8767
C7_4 C 0.6157(2) 0.74516(15) 0.91316(11)
H12_4 H 0.6566 0.7302 0.9169
C8_4 C 0.5587(3) 0.74871(17) 0.94396(12)
C9_4 C 0.5082(3) 0.77540(15) 0.94474(11)
H13_4 H 0.5137 0.7924 0.9273
C10_4 C 0.4477(3) 0.77692(14) 0.97225(12)
H14_4 H 0.4124 0.7946 0.9713
C11_6 C 0.4387(3) 0.75384(12) 1.00001(10)
C12_4 C 0.4960(3) 0.72852(14) 0.99994(10)
C13_4 C 0.5545(3) 0.72582(14) 0.97278(11)
H16_4 H 0.5909 0.7086 0.9740
C30_4 C 0.0562(3) 0.75049(16) 0.85009(12)
C31_4 C 0.0643(3) 0.72728(18) 0.81919(11)
H29_4 H 0.1049 0.7118 0.8180
C32_4 C 0.0043(4) 0.73022(17) 0.79045(11)
H30_4 H 0.0081 0.7158 0.7702
C33_4 C 0.1158(2) 0.74774(15) 0.88081(11)
H31_4 H 0.1562 0.7324 0.8773
C34_4 C 0.1170(3) 0.76488(14) 0.91241(12)
H32_4 H 0.0771 0.7803 0.9163
C35_4 C 0.1777(3) 0.76117(14) 0.94221(11)
C36_4 C 0.1778(3) 0.78269(14) 0.97188(12)
H33_4 H 0.1384 0.7987 0.9740
C37_4 C 0.2383(3) 0.78054(14) 0.99956(10)
C38_4 C 0.2957(3) 0.75719(13) 0.99731(11)
C39_4 C 0.2936(3) 0.73477(14) 0.96746(12)
H35_4 H 0.3321 0.7184 0.9657
C40_4 C 0.2346(3) 0.73667(14) 0.94037(12)
H36_4 H 0.2334 0.7213 0.9209
C65_4 C 0.0523(3) 0.22308(14) 0.97225(12)
H57_4 H 0.0876 0.2054 0.9713
C66_6 C 0.0613(3) 0.24616(12) 1.00001(10)
C67_4 C 0.0040(3) 0.27148(14) 0.99994(10)
C83_4 C 0.5576(3) 0.22830(16) 0.81939(13)
H70_4 H 0.5990 0.2131 0.8197
C84_4 C 0.5040(3) 0.22751(17) 0.84968(11)
H71_4 H 0.5100 0.2122 0.8690
C85_4 C 0.4438(3) 0.24951(16) 0.85009(12)
C86_4 C 0.4357(3) 0.27272(18) 0.81919(11)
H72_4 H 0.3951 0.2882 0.8180
C87_4 C 0.4957(4) 0.26978(17) 0.79045(11)
H73_4 H 0.4919 0.2842 0.7702
C88_4 C 0.3842(2) 0.25226(15) 0.88081(11)
H74_4 H 0.3438 0.2676 0.8773
C89_4 C 0.3830(3) 0.23512(14) 0.91241(12)
H75_4 H 0.4229 0.2197 0.9163
C90_4 C 0.3223(3) 0.23883(14) 0.94221(11)
C91_4 C 0.3222(3) 0.21731(14) 0.97188(12)
H76_4 H 0.3616 0.2013 0.9740
C92_4 C 0.2617(3) 0.21946(14) 0.99956(10)
C93_4 C 0.2043(3) 0.24281(13) 0.99731(11)
C94_4 C 0.2064(3) 0.26523(14) 0.96746(12)
H78_4 H 0.1679 0.2816 0.9657
C95_4 C 0.2654(3) 0.26333(14) 0.94037(12)
H79_4 H 0.2666 0.2787 0.9209
C28_4 C 0.9424(3) 0.77170(16) 0.81939(13)
H27_4 H 0.9010 0.7869 0.8197
C29_4 C 0.9960(3) 0.77249(17) 0.84968(11)
H28_4 H 0.9900 0.7878 0.8690
C56_4 C 0.7754(3) 0.22639(18) 0.78987(11)
H50_4 H 0.7777 0.2122 0.7693
C57_4 C 0.8316(3) 0.22170(17) 0.81808(11)
H51_4 H 0.8695 0.2050 0.8172
C58_4 C 0.8257(3) 0.24546(18) 0.84927(11)
C59_4 C 0.7669(3) 0.26898(16) 0.84960(12)
H52_4 H 0.7619 0.2837 0.8695
C60_4 C 0.7146(3) 0.27020(16) 0.81911(12)
H53_4 H 0.6753 0.2863 0.8193
C61_4 C 0.8850(3) 0.23904(15) 0.88067(12)
H54_4 H 0.9237 0.2231 0.8767
C62_4 C 0.8843(2) 0.25484(15) 0.91316(11)
H55_4 H 0.8434 0.2698 0.9169
C63_4 C 0.9413(3) 0.25129(17) 0.94396(12)
C64_4 C 0.9918(3) 0.22460(15) 0.94474(11)
H56_4 H 0.9863 0.2076 0.9273
C68_4 C 0.9455(3) 0.27418(14) 0.97278(11)
H59_4 H 0.9091 0.2914 0.9740
B3_4 B 0.982(2) 0.510(13) 0.2590(9)
H47_4 H 0.9726 0.5268 0.2817
H48_4 H 0.9664 0.4824 0.2556
H49_4 H 0.9423 0.5262 0.2402
loop_
_geom_bond_atom_site_label_1
_geom_bond_atom_site_label_2
_geom_bond_site_symmetry_1
_geom_bond_site_symmetry_2
N3 C28 1_555 1_555
C28 H27 1_555 1_555
C29 C28 1_555 1_555
H28 C29 1_555 1_555
B3 H47 1_555 1_555
H49 B3 1_555 1_555
Fe3 N3 1_555 1_555
N7 C56 1_555 1_555
C56 H50 1_555 1_555
C57 C56 1_555 1_555
H51 C57 1_555 1_555
C58 C57 1_555 1_555
C59 C58 1_555 1_555
H52 C59 1_555 1_555
C60 N7 1_555 1_555
H53 C60 1_555 1_555
C61 C58 1_555 1_555
H54 C61 1_555 1_555
C62 C61 1_555 1_555
H55 C62 1_555 1_555
C63 C62 1_555 1_555
C64 C63 1_555 1_555
H56 C64 1_555 1_555
C68 C63 1_555 1_555
H59 C68 1_555 1_555
Fe5 N7 1_555 1_555
C59 C60 1_555 1_555
Fe3 N1 1_555 1_555
Fe2 N4 1_555 1_555
B1 H1 1_555 1_555
H2 B1 1_555 1_555
H3 B1 1_555 1_555
N1 C1 1_555 1_555
N2 C25 1_555 1_555
N4 C51 1_555 1_555
N5 Fe3 1_555 1_555
C1 H7 1_555 1_555
C2 C1 1_555 1_555
H8 C2 1_555 1_555
C3 C2 1_555 1_555
C4 C3 1_555 1_555
H9 C4 1_555 1_555
C5 N1 1_555 1_555
H10 C5 1_555 1_555
C6 C3 1_555 1_555
H11 C6 1_555 1_555
C7 C6 1_555 1_555
H12 C7 1_555 1_555
C8 C7 1_555 1_555
C9 C8 1_555 1_555
H13 C9 1_555 1_555
C10 C9 1_555 1_555
H14 C10 1_555 1_555
C11 C10 1_555 1_555
C12 C11 1_555 1_555
H15 C12 1_555 1_555
C13 C8 1_555 1_555
H16 C13 1_555 1_555
C14 C11 1_555 1_555
C15 C14 1_555 1_555
C16 C15 1_555 1_555
H17 C16 1_555 1_555
C17 C16 1_555 1_555
H18 C17 1_555 1_555
C18 C17 1_555 1_555
C19 C18 1_555 1_555
H19 C19 1_555 1_555
C20 C15 1_555 1_555
H20 C20 1_555 1_555
C21 C18 1_555 1_555
H21 C21 1_555 1_555
C22 C21 1_555 1_555
H22 C22 1_555 1_555
C23 C22 1_555 1_555
C24 C23 1_555 1_555
H23 C24 1_555 1_555
C25 C24 1_555 1_555
H24 C25 1_555 1_555
C26 C23 1_555 1_555
H25 C26 1_555 1_555
C27 N2 1_555 1_555
H26 C27 1_555 1_555
C31 C30 1_555 1_555
H29 C31 1_555 1_555
H30 C32 1_555 1_555
C33 C30 1_555 1_555
H31 C33 1_555 1_555
C34 C33 1_555 1_555
H32 C34 1_555 1_555
C35 C34 1_555 1_555
C36 C35 1_555 1_555
H33 C36 1_555 1_555
C37 C36 1_555 1_555
H34 C37 1_555 1_555
C38 C14 1_555 1_555
C39 C38 1_555 1_555
H35 C39 1_555 1_555
C40 C35 1_555 1_555
H36 C40 1_555 1_555
C41 C14 1_555 1_555
C42 C41 1_555 1_555
H37 C42 1_555 1_555
C43 C42 1_555 1_555
H38 C43 1_555 1_555
C44 C43 1_555 1_555
C45 C44 1_555 1_555
H39 C45 1_555 1_555
C46 C41 1_555 1_555
H40 C46 1_555 1_555
C47 C44 1_555 1_555
H41 C47 1_555 1_555
C48 C47 1_555 1_555
H42 C48 1_555 1_555
C49 C48 1_555 1_555
C50 C49 1_555 1_555
H43 C50 1_555 1_555
C51 C50 1_555 1_555
H44 C51 1_555 1_555
C52 C49 1_555 1_555
H45 C52 1_555 1_555
C53 N4 1_555 1_555
H46 C53 1_555 1_555
C55 B1 1_555 1_555
N11 Fe2 1_555 1_555
B4 H90 1_555 1_555
H91 B4 1_555 1_555
H92 B4 1_555 1_555
N12 Fe3 1_555 1_555
C110 B4 1_555 1_555
Fe7 N2 1_555 1_555
N13 Fe3 1_555 1_555
N14 Fe2 1_555 1_555
N17 Fe3 1_555 1_555
N5 C55 1_555 1_555
C4 C5 1_555 1_555
C12 C13 1_555 1_555
C19 C20 1_555 1_555
C26 C27 1_555 1_555
C31 C32 1_555 1_555
C37 C38 1_555 1_555
C39 C40 1_555 1_555
C45 C46 1_555 1_555
C52 C53 1_555 1_555
N11 C109 1_555 1_555
N12 C110 1_555 1_555
B2 H4 1_555 1_555
H6 B2 1_555 1_555
N6 Fe2_2 1_555 1_555
C54 B2 1_555 1_555
N8 C80 1_555 1_555
N9 C83 1_555 1_555
N10 Fe2_2 1_555 1_555
H57 C65 1_555 1_555
C66 C65 1_555 1_555
C67 C66 1_555 1_555
H58 C67 1_555 1_555
C69 C66 1_555 1_555
C70 C69 1_555 1_555
C71 C70 1_555 1_555
H60 C71 1_555 1_555
C72 C71 1_555 1_555
H61 C72 1_555 1_555
C73 C72 1_555 1_555
C74 C73 1_555 1_555
H62 C74 1_555 1_555
C75 C70 1_555 1_555
H63 C75 1_555 1_555
C76 C73 1_555 1_555
H64 C76 1_555 1_555
C77 C76 1_555 1_555
H65 C77 1_555 1_555
C78 C77 1_555 1_555
C79 C78 1_555 1_555
H66 C79 1_555 1_555
C80 C79 1_555 1_555
H67 C80 1_555 1_555
C81 C78 1_555 1_555
H68 C81 1_555 1_555
C82 N8 1_555 1_555
H69 C82 1_555 1_555
C83 H70 1_555 1_555
C84 C83 1_555 1_555
H71 C84 1_555 1_555
C85 C84 1_555 1_555
C86 C85 1_555 1_555
H72 C86 1_555 1_555
C87 N9 1_555 1_555
H73 C87 1_555 1_555
C88 C85 1_555 1_555
H74 C88 1_555 1_555
C89 C88 1_555 1_555
H75 C89 1_555 1_555
C90 C89 1_555 1_555
C91 C90 1_555 1_555
H76 C91 1_555 1_555
C92 C91 1_555 1_555
H77 C92 1_555 1_555
C93 C69 1_555 1_555
C94 C93 1_555 1_555
H78 C94 1_555 1_555
C95 C90 1_555 1_555
H79 C95 1_555 1_555
C96 C69 1_555 1_555
C97 C96 1_555 1_555
H80 C97 1_555 1_555
C98 C97 1_555 1_555
H81 C98 1_555 1_555
C99 C98 1_555 1_555
C100 C99 1_555 1_555
H82 C100 1_555 1_555
C101 C96 1_555 1_555
H83 C101 1_555 1_555
C102 C99 1_555 1_555
H84 C102 1_555 1_555
C103 C102 1_555 1_555
H85 C103 1_555 1_555
C104 C103 1_555 1_555
C105 C104 1_555 1_555
H86 C105 1_555 1_555
C106 N10 1_555 1_555
H87 C106 1_555 1_555
C107 C104 1_555 1_555
H88 C107 1_555 1_555
C108 N10 1_555 1_555
H89 C108 1_555 1_555
Fe5 N9 1_555 1_555
Fe7 N8 1_555 1_555
N15 Fe2_2 1_555 1_555
N6 C54 1_555 1_555
C74 C75 1_555 1_555
C81 C82 1_555 1_555
C86 C87 1_555 1_555
C92 C93 1_555 1_555
C94 C95 1_555 1_555
C100 C101 1_555 1_555
C105 C106 1_555 1_555
C107 C108 1_555 1_555
B1_2 H1_2 1_555 1_555
H2_2 B1_2 1_555 1_555
H3_2 B1_2 1_555 1_555
N5_2 Fe5 1_555 1_555
C55_2 B1_2 1_555 1_555
B4_2 H90_2 1_555 1_555
H91_2 B4_2 1_555 1_555
H92_2 B4_2 1_555 1_555
N12_2 Fe5 1_555 1_555
C110_2 B4_2 1_555 1_555
N13_2 Fe5 1_555 1_555
N17_2 Fe5 1_555 1_555
N5_2 C55_2 1_555 1_555
N12_2 C110_2 1_555 1_555
N17 C28_2 1_555 1_555
C28_2 H27_2 1_555 1_555
C29_2 C28_2 1_555 1_555
H28_2 C29_2 1_555 1_555
N13_2 C56_2 1_555 1_555
C56_2 H50_2 1_555 1_555
C57_2 C56_2 1_555 1_555
H51_2 C57_2 1_555 1_555
C58_2 C57_2 1_555 1_555
C59_2 C58_2 1_555 1_555
H52_2 C59_2 1_555 1_555
C60_2 N13_2 1_555 1_555
H53_2 C60_2 1_555 1_555
C61_2 C58_2 1_555 1_555
H54_2 C61_2 1_555 1_555
C62_2 C61_2 1_555 1_555
H55_2 C62_2 1_555 1_555
C63_2 C62_2 1_555 1_555
C64_2 C63_2 1_555 1_555
H56_2 C64_2 1_555 1_555
C68_2 C63_2 1_555 1_555
H59_2 C68_2 1_555 1_555
C59_2 C60_2 1_555 1_555
N13 C1_2 1_555 1_555
C1_2 H7_2 1_555 1_555
C2_2 C1_2 1_555 1_555
H8_2 C2_2 1_555 1_555
C3_2 C2_2 1_555 1_555
C4_2 C3_2 1_555 1_555
H9_2 C4_2 1_555 1_555
C5_2 N13 1_555 1_555
H10_2 C5_2 1_555 1_555
C6_2 C3_2 1_555 1_555
H11_2 C6_2 1_555 1_555
C7_2 C6_2 1_555 1_555
H12_2 C7_2 1_555 1_555
C8_2 C7_2 1_555 1_555
C9_2 C8_2 1_555 1_555
H13_2 C9_2 1_555 1_555
C10_2 C9_2 1_555 1_555
H14_2 C10_2 1_555 1_555
C11_2 C10_2 1_555 1_555
C12_2 C11_2 1_555 1_555
C13_2 C8_2 1_555 1_555
H16_2 C13_2 1_555 1_555
C31_2 C30_2 1_555 1_555
H29_2 C31_2 1_555 1_555
H30_2 C32_2 1_555 1_555
C33_2 C30_2 1_555 1_555
H31_2 C33_2 1_555 1_555
C34_2 C33_2 1_555 1_555
H32_2 C34_2 1_555 1_555
C35_2 C34_2 1_555 1_555
C36_2 C35_2 1_555 1_555
H33_2 C36_2 1_555 1_555
C37_2 C36_2 1_555 1_555
C39_2 C38_2 1_555 1_555
H35_2 C39_2 1_555 1_555
C40_2 C35_2 1_555 1_555
H36_2 C40_2 1_555 1_555
N17_2 C83_2 1_555 1_555
H57_2 C65_2 1_555 1_555
C66_2 C65_2 1_555 1_555
C67_2 C66_2 1_555 1_555
C83_2 H70_2 1_555 1_555
C84_2 C83_2 1_555 1_555
H71_2 C84_2 1_555 1_555
C85_2 C84_2 1_555 1_555
C86_2 C85_2 1_555 1_555
H72_2 C86_2 1_555 1_555
C87_2 N17_2 1_555 1_555
H73_2 C87_2 1_555 1_555
C88_2 C85_2 1_555 1_555
H74_2 C88_2 1_555 1_555
C89_2 C88_2 1_555 1_555
H75_2 C89_2 1_555 1_555
C90_2 C89_2 1_555 1_555
C91_2 C90_2 1_555 1_555
H76_2 C91_2 1_555 1_555
C92_2 C91_2 1_555 1_555
C94_2 C93_2 1_555 1_555
H78_2 C94_2 1_555 1_555
C95_2 C90_2 1_555 1_555
H79_2 C95_2 1_555 1_555
C4_2 C5_2 1_555 1_555
C12_2 C13_2 1_555 1_555
C31_2 C32_2 1_555 1_555
C37_2 C38_2 1_555 1_555
C39_2 C40_2 1_555 1_555
C86_2 C87_2 1_555 1_555
C92_2 C93_2 1_555 1_555
C94_2 C95_2 1_555 1_555
Fe7 N4_2 1_555 1_555
B2_2 H4_2 1_555 1_555
H5_2 B2_2 1_555 1_555
H6_2 B2_2 1_555 1_555
N14 C25_2 1_555 1_555
N4_2 C51_2 1_555 1_555
N6_2 Fe7 1_555 1_555
C14_2 C11_3 1_555 1_555
C15_2 C14_2 1_555 1_555
C16_2 C15_2 1_555 1_555
H17_2 C16_2 1_555 1_555
C17_2 C16_2 1_555 1_555
H18_2 C17_2 1_555 1_555
C18_2 C17_2 1_555 1_555
C19_2 C18_2 1_555 1_555
H19_2 C19_2 1_555 1_555
C20_2 C15_2 1_555 1_555
H20_2 C20_2 1_555 1_555
C21_2 C18_2 1_555 1_555
H21_2 C21_2 1_555 1_555
C22_2 C21_2 1_555 1_555
H22_2 C22_2 1_555 1_555
C23_2 C22_2 1_555 1_555
C24_2 C23_2 1_555 1_555
H23_2 C24_2 1_555 1_555
C25_2 C24_2 1_555 1_555
H24_2 C25_2 1_555 1_555
C26_2 C23_2 1_555 1_555
H25_2 C26_2 1_555 1_555
C27_2 N14 1_555 1_555
H26_2 C27_2 1_555 1_555
C41_2 C14_2 1_555 1_555
C42_2 C41_2 1_555 1_555
H37_2 C42_2 1_555 1_555
C43_2 C42_2 1_555 1_555
H38_2 C43_2 1_555 1_555
C44_2 C43_2 1_555 1_555
C45_2 C44_2 1_555 1_555
H39_2 C45_2 1_555 1_555
C46_2 C41_2 1_555 1_555
H40_2 C46_2 1_555 1_555
C47_2 C44_2 1_555 1_555
H41_2 C47_2 1_555 1_555
C48_2 C47_2 1_555 1_555
H42_2 C48_2 1_555 1_555
C49_2 C48_2 1_555 1_555
C50_2 C49_2 1_555 1_555
H43_2 C50_2 1_555 1_555
C51_2 C50_2 1_555 1_555
H44_2 C51_2 1_555 1_555
C52_2 C49_2 1_555 1_555
H45_2 C52_2 1_555 1_555
C53_2 N4_2 1_555 1_555
H46_2 C53_2 1_555 1_555
C54_2 B2_2 1_555 1_555
N15 C80_2 1_555 1_555
N10_2 Fe7 1_555 1_555
N11_2 Fe7 1_555 1_555
C69_2 C66_3 1_555 1_555
C70_2 C69_2 1_555 1_555
C71_2 C70_2 1_555 1_555
H60_2 C71_2 1_555 1_555
C72_2 C71_2 1_555 1_555
H61_2 C72_2 1_555 1_555
C73_2 C72_2 1_555 1_555
C74_2 C73_2 1_555 1_555
H62_2 C74_2 1_555 1_555
C75_2 C70_2 1_555 1_555
H63_2 C75_2 1_555 1_555
C76_2 C73_2 1_555 1_555
H64_2 C76_2 1_555 1_555
C77_2 C76_2 1_555 1_555
H65_2 C77_2 1_555 1_555
C78_2 C77_2 1_555 1_555
C79_2 C78_2 1_555 1_555
H66_2 C79_2 1_555 1_555
C80_2 C79_2 1_555 1_555
H67_2 C80_2 1_555 1_555
C81_2 C78_2 1_555 1_555
H68_2 C81_2 1_555 1_555
C82_2 N15 1_555 1_555
H69_2 C82_2 1_555 1_555
C96_2 C69_2 1_555 1_555
C97_2 C96_2 1_555 1_555
H80_2 C97_2 1_555 1_555
C98_2 C97_2 1_555 1_555
H81_2 C98_2 1_555 1_555
C99_2 C98_2 1_555 1_555
C100_2 C99_2 1_555 1_555
H82_2 C100_2 1_555 1_555
C101_2 C96_2 1_555 1_555
H83_2 C101_2 1_555 1_555
C102_2 C99_2 1_555 1_555
H84_2 C102_2 1_555 1_555
C103_2 C102_2 1_555 1_555
H85_2 C103_2 1_555 1_555
C104_2 C103_2 1_555 1_555
C105_2 C104_2 1_555 1_555
H86_2 C105_2 1_555 1_555
C106_2 N10_2 1_555 1_555
H87_2 C106_2 1_555 1_555
C107_2 C104_2 1_555 1_555
H88_2 C107_2 1_555 1_555
C108_2 N10_2 1_555 1_555
H89_2 C108_2 1_555 1_555
N6_2 C54_2 1_555 1_555
C19_2 C20_2 1_555 1_555
C26_2 C27_2 1_555 1_555
C45_2 C46_2 1_555 1_555
C52_2 C53_2 1_555 1_555
N11_2 C109_2 1_555 1_555
C74_2 C75_2 1_555 1_555
C81_2 C82_2 1_555 1_555
C100_2 C101_2 1_555 1_555
C105_2 C106_2 1_555 1_555
C107_2 C108_2 1_555 1_555
B3_2 H47_2 1_555 1_555
H48_2 B3_2 1_555 1_555
H49_2 B3_2 1_555 1_555
B2_3 H4_3 1_555 1_555
H6_3 B2_3 1_555 1_555
N6_3 Fe2_3 1_555 1_555
C54_3 B2_3 1_555 1_555
N8_2 C80_3 1_555 1_555
N9_2 C83_3 1_555 1_555
N10_3 Fe2_3 1_555 1_555
H57_3 C65_3 1_555 1_555
C66_4 C65_3 1_555 1_555
C67_3 C66_4 1_555 1_555
H58_3 C67_3 1_555 1_555
C69_3 C66_4 1_555 1_555
C70_3 C69_3 1_555 1_555
C71_3 C70_3 1_555 1_555
H60_3 C71_3 1_555 1_555
C72_3 C71_3 1_555 1_555
H61_3 C72_3 1_555 1_555
C73_3 C72_3 1_555 1_555
C74_3 C73_3 1_555 1_555
H62_3 C74_3 1_555 1_555
C75_3 C70_3 1_555 1_555
H63_3 C75_3 1_555 1_555
C76_3 C73_3 1_555 1_555
H64_3 C76_3 1_555 1_555
C77_3 C76_3 1_555 1_555
H65_3 C77_3 1_555 1_555
C78_3 C77_3 1_555 1_555
C79_3 C78_3 1_555 1_555
H66_3 C79_3 1_555 1_555
C80_3 C79_3 1_555 1_555
H67_3 C80_3 1_555 1_555
C81_3 C78_3 1_555 1_555
H68_3 C81_3 1_555 1_555
C82_3 N8_2 1_555 1_555
H69_3 C82_3 1_555 1_555
C83_3 H70_3 1_555 1_555
C84_3 C83_3 1_555 1_555
H71_3 C84_3 1_555 1_555
C85_3 C84_3 1_555 1_555
C86_3 C85_3 1_555 1_555
H72_3 C86_3 1_555 1_555
C87_3 N9_2 1_555 1_555
H73_3 C87_3 1_555 1_555
C88_3 C85_3 1_555 1_555
H74_3 C88_3 1_555 1_555
C89_3 C88_3 1_555 1_555
H75_3 C89_3 1_555 1_555
C90_3 C89_3 1_555 1_555
C91_3 C90_3 1_555 1_555
H76_3 C91_3 1_555 1_555
C92_3 C91_3 1_555 1_555
H77_3 C92_3 1_555 1_555
C93_3 C69_3 1_555 1_555
C94_3 C93_3 1_555 1_555
H78_3 C94_3 1_555 1_555
C95_3 C90_3 1_555 1_555
H79_3 C95_3 1_555 1_555
C96_3 C69_3 1_555 1_555
C97_3 C96_3 1_555 1_555
H80_3 C97_3 1_555 1_555
C98_3 C97_3 1_555 1_555
H81_3 C98_3 1_555 1_555
C99_3 C98_3 1_555 1_555
C100_3 C99_3 1_555 1_555
H82_3 C100_3 1_555 1_555
C101_3 C96_3 1_555 1_555
H83_3 C101_3 1_555 1_555
C102_3 C99_3 1_555 1_555
H84_3 C102_3 1_555 1_555
C103_3 C102_3 1_555 1_555
H85_3 C103_3 1_555 1_555
C104_3 C103_3 1_555 1_555
C105_3 C104_3 1_555 1_555
H86_3 C105_3 1_555 1_555
C106_3 N10_3 1_555 1_555
H87_3 C106_3 1_555 1_555
C107_3 C104_3 1_555 1_555
H88_3 C107_3 1_555 1_555
C108_3 N10_3 1_555 1_555
H89_3 C108_3 1_555 1_555
Fe4 N9_2 1_555 1_555
Fe6 N8_2 1_555 1_555
N15_2 Fe2_3 1_555 1_555
N6_3 C54_3 1_555 1_555
C74_3 C75_3 1_555 1_555
C81_3 C82_3 1_555 1_555
C86_3 C87_3 1_555 1_555
C92_3 C93_3 1_555 1_555
C94_3 C95_3 1_555 1_555
C100_3 C101_3 1_555 1_555
C105_3 C106_3 1_555 1_555
C107_3 C108_3 1_555 1_555
Fe1 N1_2 1_555 1_555
Fe2_4 N4_3 1_555 1_555
B1_3 H1_3 1_555 1_555
H2_3 B1_3 1_555 1_555
H3_3 B1_3 1_555 1_555
N1_2 C1_3 1_555 1_555
N2_2 C25_3 1_555 1_555
N4_3 C51_3 1_555 1_555
N5_3 Fe1 1_555 1_555
C1_3 H7_3 1_555 1_555
C2_3 C1_3 1_555 1_555
H8_3 C2_3 1_555 1_555
C3_3 C2_3 1_555 1_555
C4_3 C3_3 1_555 1_555
H9_3 C4_3 1_555 1_555
C5_3 N1_2 1_555 1_555
H10_3 C5_3 1_555 1_555
C6_3 C3_3 1_555 1_555
H11_3 C6_3 1_555 1_555
C7_3 C6_3 1_555 1_555
H12_3 C7_3 1_555 1_555
C8_3 C7_3 1_555 1_555
C9_3 C8_3 1_555 1_555
H13_3 C9_3 1_555 1_555
C10_3 C9_3 1_555 1_555
H14_3 C10_3 1_555 1_555
C11_4 C10_3 1_555 1_555
C12_3 C11_4 1_555 1_555
H15_3 C12_3 1_555 1_555
C13_3 C8_3 1_555 1_555
H16_3 C13_3 1_555 1_555
C14_3 C11_4 1_555 1_555
C15_3 C14_3 1_555 1_555
C16_3 C15_3 1_555 1_555
H17_3 C16_3 1_555 1_555
C17_3 C16_3 1_555 1_555
H18_3 C17_3 1_555 1_555
C18_3 C17_3 1_555 1_555
C19_3 C18_3 1_555 1_555
H19_3 C19_3 1_555 1_555
C20_3 C15_3 1_555 1_555
H20_3 C20_3 1_555 1_555
C21_3 C18_3 1_555 1_555
H21_3 C21_3 1_555 1_555
C22_3 C21_3 1_555 1_555
H22_3 C22_3 1_555 1_555
C23_3 C22_3 1_555 1_555
C24_3 C23_3 1_555 1_555
H23_3 C24_3 1_555 1_555
C25_3 C24_3 1_555 1_555
H24_3 C25_3 1_555 1_555
C26_3 C23_3 1_555 1_555
H25_3 C26_3 1_555 1_555
C27_3 N2_2 1_555 1_555
H26_3 C27_3 1_555 1_555
C31_3 C30_3 1_555 1_555
H29_3 C31_3 1_555 1_555
H30_3 C32_3 1_555 1_555
C33_3 C30_3 1_555 1_555
H31_3 C33_3 1_555 1_555
C34_3 C33_3 1_555 1_555
H32_3 C34_3 1_555 1_555
C35_3 C34_3 1_555 1_555
C36_3 C35_3 1_555 1_555
H33_3 C36_3 1_555 1_555
C37_3 C36_3 1_555 1_555
H34_3 C37_3 1_555 1_555
C38_3 C14_3 1_555 1_555
C39_3 C38_3 1_555 1_555
H35_3 C39_3 1_555 1_555
C40_3 C35_3 1_555 1_555
H36_3 C40_3 1_555 1_555
C41_3 C14_3 1_555 1_555
C42_3 C41_3 1_555 1_555
H37_3 C42_3 1_555 1_555
C43_3 C42_3 1_555 1_555
H38_3 C43_3 1_555 1_555
C44_3 C43_3 1_555 1_555
C45_3 C44_3 1_555 1_555
H39_3 C45_3 1_555 1_555
C46_3 C41_3 1_555 1_555
H40_3 C46_3 1_555 1_555
C47_3 C44_3 1_555 1_555
H41_3 C47_3 1_555 1_555
C48_3 C47_3 1_555 1_555
H42_3 C48_3 1_555 1_555
C49_3 C48_3 1_555 1_555
C50_3 C49_3 1_555 1_555
H43_3 C50_3 1_555 1_555
C51_3 C50_3 1_555 1_555
H44_3 C51_3 1_555 1_555
C52_3 C49_3 1_555 1_555
H45_3 C52_3 1_555 1_555
C53_3 N4_3 1_555 1_555
H46_3 C53_3 1_555 1_555
C55_3 B1_3 1_555 1_555
N11_3 Fe2_4 1_555 1_555
B4_3 H90_3 1_555 1_555
H91_3 B4_3 1_555 1_555
H92_3 B4_3 1_555 1_555
N12_3 Fe1 1_555 1_555
C110_3 B4_3 1_555 1_555
Fe6 N2_2 1_555 1_555
N13_3 Fe1 1_555 1_555
N14_2 Fe2_4 1_555 1_555
N16 Fe1 1_555 1_555
N17_3 Fe1 1_555 1_555
N5_3 C55_3 1_555 1_555
C4_3 C5_3 1_555 1_555
C12_3 C13_3 1_555 1_555
C19_3 C20_3 1_555 1_555
C26_3 C27_3 1_555 1_555
C31_3 C32_3 1_555 1_555
C37_3 C38_3 1_555 1_555
C39_3 C40_3 1_555 1_555
C45_3 C46_3 1_555 1_555
C52_3 C53_3 1_555 1_555
N11_3 C109_3 1_555 1_555
N12_3 C110_3 1_555 1_555
N7_2 C56_3 1_555 1_555
C56_3 H50_3 1_555 1_555
C57_3 C56_3 1_555 1_555
H51_3 C57_3 1_555 1_555
C58_3 C57_3 1_555 1_555
C59_3 C58_3 1_555 1_555
H52_3 C59_3 1_555 1_555
C60_3 N7_2 1_555 1_555
H53_3 C60_3 1_555 1_555
C61_3 C58_3 1_555 1_555
H54_3 C61_3 1_555 1_555
C62_3 C61_3 1_555 1_555
H55_3 C62_3 1_555 1_555
C63_3 C62_3 1_555 1_555
C64_3 C63_3 1_555 1_555
H56_3 C64_3 1_555 1_555
C68_3 C63_3 1_555 1_555
H59_3 C68_3 1_555 1_555
Fe4 N7_2 1_555 1_555
C59_3 C60_3 1_555 1_555
N16 C28_3 1_555 1_555
C28_3 H27_3 1_555 1_555
C29_3 C28_3 1_555 1_555
H28_3 C29_3 1_555 1_555
B3_3 H47_3 1_555 1_555
H49_3 B3_3 1_555 1_555
B1_4 H1_4 1_555 1_555
H2_4 B1_4 1_555 1_555
H3_4 B1_4 1_555 1_555
N5_4 Fe4 1_555 1_555
C55_4 B1_4 1_555 1_555
B4_4 H90_4 1_555 1_555
H91_4 B4_4 1_555 1_555
H92_4 B4_4 1_555 1_555
N12_4 Fe4 1_555 1_555
C110_4 B4_4 1_555 1_555
N13_4 Fe4 1_555 1_555
N17_4 Fe4 1_555 1_555
N5_4 C55_4 1_555 1_555
N12_4 C110_4 1_555 1_555
Fe6 N4_4 1_555 1_555
B2_4 H4_4 1_555 1_555
H5_4 B2_4 1_555 1_555
H6_4 B2_4 1_555 1_555
N14_2 C25_4 1_555 1_555
N4_4 C51_4 1_555 1_555
N6_4 Fe6 1_555 1_555
C14_4 C11_5 1_555 1_555
C15_4 C14_4 1_555 1_555
C16_4 C15_4 1_555 1_555
H17_4 C16_4 1_555 1_555
C17_4 C16_4 1_555 1_555
H18_4 C17_4 1_555 1_555
C18_4 C17_4 1_555 1_555
C19_4 C18_4 1_555 1_555
H19_4 C19_4 1_555 1_555
C20_4 C15_4 1_555 1_555
H20_4 C20_4 1_555 1_555
C21_4 C18_4 1_555 1_555
H21_4 C21_4 1_555 1_555
C22_4 C21_4 1_555 1_555
H22_4 C22_4 1_555 1_555
C23_4 C22_4 1_555 1_555
C24_4 C23_4 1_555 1_555
H23_4 C24_4 1_555 1_555
C25_4 C24_4 1_555 1_555
H24_4 C25_4 1_555 1_555
C26_4 C23_4 1_555 1_555
H25_4 C26_4 1_555 1_555
C27_4 N14_2 1_555 1_555
H26_4 C27_4 1_555 1_555
C41_4 C14_4 1_555 1_555
C42_4 C41_4 1_555 1_555
H37_4 C42_4 1_555 1_555
C43_4 C42_4 1_555 1_555
H38_4 C43_4 1_555 1_555
C44_4 C43_4 1_555 1_555
C45_4 C44_4 1_555 1_555
H39_4 C45_4 1_555 1_555
C46_4 C41_4 1_555 1_555
H40_4 C46_4 1_555 1_555
C47_4 C44_4 1_555 1_555
H41_4 C47_4 1_555 1_555
C48_4 C47_4 1_555 1_555
H42_4 C48_4 1_555 1_555
C49_4 C48_4 1_555 1_555
C50_4 C49_4 1_555 1_555
H43_4 C50_4 1_555 1_555
C51_4 C50_4 1_555 1_555
H44_4 C51_4 1_555 1_555
C52_4 C49_4 1_555 1_555
H45_4 C52_4 1_555 1_555
C53_4 N4_4 1_555 1_555
H46_4 C53_4 1_555 1_555
C54_4 B2_4 1_555 1_555
N15_2 C80_4 1_555 1_555
N10_4 Fe6 1_555 1_555
N11_4 Fe6 1_555 1_555
C69_4 C66_5 1_555 1_555
C70_4 C69_4 1_555 1_555
C71_4 C70_4 1_555 1_555
H60_4 C71_4 1_555 1_555
C72_4 C71_4 1_555 1_555
H61_4 C72_4 1_555 1_555
C73_4 C72_4 1_555 1_555
C74_4 C73_4 1_555 1_555
H62_4 C74_4 1_555 1_555
C75_4 C70_4 1_555 1_555
H63_4 C75_4 1_555 1_555
C76_4 C73_4 1_555 1_555
H64_4 C76_4 1_555 1_555
C77_4 C76_4 1_555 1_555
H65_4 C77_4 1_555 1_555
C78_4 C77_4 1_555 1_555
C79_4 C78_4 1_555 1_555
H66_4 C79_4 1_555 1_555
C80_4 C79_4 1_555 1_555
H67_4 C80_4 1_555 1_555
C81_4 C78_4 1_555 1_555
H68_4 C81_4 1_555 1_555
C82_4 N15_2 1_555 1_555
H69_4 C82_4 1_555 1_555
C96_4 C69_4 1_555 1_555
C97_4 C96_4 1_555 1_555
H80_4 C97_4 1_555 1_555
C98_4 C97_4 1_555 1_555
H81_4 C98_4 1_555 1_555
C99_4 C98_4 1_555 1_555
C100_4 C99_4 1_555 1_555
H82_4 C100_4 1_555 1_555
C101_4 C96_4 1_555 1_555
H83_4 C101_4 1_555 1_555
C102_4 C99_4 1_555 1_555
H84_4 C102_4 1_555 1_555
C103_4 C102_4 1_555 1_555
H85_4 C103_4 1_555 1_555
C104_4 C103_4 1_555 1_555
C105_4 C104_4 1_555 1_555
H86_4 C105_4 1_555 1_555
C106_4 N10_4 1_555 1_555
H87_4 C106_4 1_555 1_555
C107_4 C104_4 1_555 1_555
H88_4 C107_4 1_555 1_555
C108_4 N10_4 1_555 1_555
H89_4 C108_4 1_555 1_555
N6_4 C54_4 1_555 1_555
C19_4 C20_4 1_555 1_555
C26_4 C27_4 1_555 1_555
C45_4 C46_4 1_555 1_555
C52_4 C53_4 1_555 1_555
N11_4 C109_4 1_555 1_555
C74_4 C75_4 1_555 1_555
C81_4 C82_4 1_555 1_555
C100_4 C101_4 1_555 1_555
C105_4 C106_4 1_555 1_555
C107_4 C108_4 1_555 1_555
N13_3 C1_4 1_555 1_555
C1_4 H7_4 1_555 1_555
C2_4 C1_4 1_555 1_555
H8_4 C2_4 1_555 1_555
C3_4 C2_4 1_555 1_555
C4_4 C3_4 1_555 1_555
H9_4 C4_4 1_555 1_555
C5_4 N13_3 1_555 1_555
H10_4 C5_4 1_555 1_555
C6_4 C3_4 1_555 1_555
H11_4 C6_4 1_555 1_555
C7_4 C6_4 1_555 1_555
H12_4 C7_4 1_555 1_555
C8_4 C7_4 1_555 1_555
C9_4 C8_4 1_555 1_555
H13_4 C9_4 1_555 1_555
C10_4 C9_4 1_555 1_555
H14_4 C10_4 1_555 1_555
C11_6 C10_4 1_555 1_555
C12_4 C11_6 1_555 1_555
C13_4 C8_4 1_555 1_555
H16_4 C13_4 1_555 1_555
C31_4 C30_4 1_555 1_555
H29_4 C31_4 1_555 1_555
H30_4 C32_4 1_555 1_555
C33_4 C30_4 1_555 1_555
H31_4 C33_4 1_555 1_555
C34_4 C33_4 1_555 1_555
H32_4 C34_4 1_555 1_555
C35_4 C34_4 1_555 1_555
C36_4 C35_4 1_555 1_555
H33_4 C36_4 1_555 1_555
C37_4 C36_4 1_555 1_555
C39_4 C38_4 1_555 1_555
H35_4 C39_4 1_555 1_555
C40_4 C35_4 1_555 1_555
H36_4 C40_4 1_555 1_555
N17_4 C83_4 1_555 1_555
H57_4 C65_4 1_555 1_555
C66_6 C65_4 1_555 1_555
C67_4 C66_6 1_555 1_555
C83_4 H70_4 1_555 1_555
C84_4 C83_4 1_555 1_555
H71_4 C84_4 1_555 1_555
C85_4 C84_4 1_555 1_555
C86_4 C85_4 1_555 1_555
H72_4 C86_4 1_555 1_555
C87_4 N17_4 1_555 1_555
H73_4 C87_4 1_555 1_555
C88_4 C85_4 1_555 1_555
H74_4 C88_4 1_555 1_555
C89_4 C88_4 1_555 1_555
H75_4 C89_4 1_555 1_555
C90_4 C89_4 1_555 1_555
C91_4 C90_4 1_555 1_555
H76_4 C91_4 1_555 1_555
C92_4 C91_4 1_555 1_555
C94_4 C93_4 1_555 1_555
H78_4 C94_4 1_555 1_555
C95_4 C90_4 1_555 1_555
H79_4 C95_4 1_555 1_555
C4_4 C5_4 1_555 1_555
C12_4 C13_4 1_555 1_555
C31_4 C32_4 1_555 1_555
C37_4 C38_4 1_555 1_555
C39_4 C40_4 1_555 1_555
C86_4 C87_4 1_555 1_555
C92_4 C93_4 1_555 1_555
C94_4 C95_4 1_555 1_555
N17_3 C28_4 1_555 1_555
C28_4 H27_4 1_555 1_555
C29_4 C28_4 1_555 1_555
H28_4 C29_4 1_555 1_555
N13_4 C56_4 1_555 1_555
C56_4 H50_4 1_555 1_555
C57_4 C56_4 1_555 1_555
H51_4 C57_4 1_555 1_555
C58_4 C57_4 1_555 1_555
C59_4 C58_4 1_555 1_555
H52_4 C59_4 1_555 1_555
C60_4 N13_4 1_555 1_555
H53_4 C60_4 1_555 1_555
C61_4 C58_4 1_555 1_555
H54_4 C61_4 1_555 1_555
C62_4 C61_4 1_555 1_555
H55_4 C62_4 1_555 1_555
C63_4 C62_4 1_555 1_555
C64_4 C63_4 1_555 1_555
H56_4 C64_4 1_555 1_555
C68_4 C63_4 1_555 1_555
H59_4 C68_4 1_555 1_555
C59_4 C60_4 1_555 1_555
B3_4 H47_4 1_555 1_555
H48_4 B3_4 1_555 1_555
H49_4 B3_4 1_555 1_555

#END
