
###############################################################################
#
# This file contains modified crystal structure data generated from the
# MOF subset of the Cambridge Structural Database (CSD) v543 
# hosted by the Cambridge Crystallographic Data Centre (CCDC).
#
# This work is licensed under the Creative Commons
# Attribution-NonCommercial-ShareAlike 4.0 International License.
# To view a copy of this license, visit
# http://creativecommons.org/licenses/by-nc-sa/4.0/
# or send a letter to
# Creative Commons, PO Box 1866, Mountain View, CA 94042, USA.
#
# CIF created using the CSD Python API on 29 September 2022
# The structure has been converted into the P1 space group
# The structure has a 3D framework
# The original CSD entry POBGOE01 is in the orthorhombic crystal system
# The framework has been calculated to contain at least 10.0% void space
# The void calculation uses a probe of radius 1.32A, grid spacing 0.4
#
###############################################################################

data_POBGOE01
_chemical_formula_moiety         '(C444 H320 Fe10 N48 Se16)n'
_symmetry_cell_setting           triclinic
_symmetry_space_group_name_H-M   'P 1'
_symmetry_Int_Tables_number      1
_space_group_name_Hall           'P 1'
loop_
_symmetry_equiv_pos_site_id
_symmetry_equiv_pos_as_xyz
1 x,y,z
_cell_length_a                   16.9134(7)
_cell_length_b                   40.299(4)
_cell_length_c                   35.5326(13)
_cell_angle_alpha                90
_cell_angle_beta                 90
_cell_angle_gamma                90
_cell_volume                     24218.8
loop_
_atom_site_label
_atom_site_type_symbol
_atom_site_fract_x
_atom_site_fract_y
_atom_site_fract_z
C45 C 0.0040(3) 0.27249(17) 0.34968(11)
C51 C 0.0576(3) 0.27170(16) 0.31940(13)
H31 H 0.0099 0.2878 0.3690
H37 H 0.0990 0.2869 0.3197
C101 C 0.0040(3) 0.22751(17) 0.15032(11)
C107 C 0.0576(3) 0.22830(16) 0.18060(13)
H72 H 0.0099 0.2122 0.1310
N10 N 0.0535(3) 0.25073(13) 0.29017(10)
N12 N 0.0535(3) 0.24927(13) 0.20983(10)
H78 H 0.0990 0.2131 0.1803
Fe3 Fe 0.13469(8) 0.2500 0.2500
Se4 Se 0.0182(7) 0.0302(3) 0.75072(19)
Se1 Se 0.1113(3) 0.36549(10) 0.25040(9)
C1 C 0.1330(9) 0.3218(4) 0.2513(4)
N1 N 0.1287(5) 0.2978(3) 0.2480(3)
N2 N 0.2182(2) 0.25047(14) 0.28984(9)
C2 C 0.2754(3) 0.27360(18) 0.28988(11)
C3 C 0.2146(3) 0.22979(16) 0.31911(12)
H1 H 0.2776 0.2878 0.2692
C4 C 0.3316(3) 0.27831(17) 0.31808(11)
C5 C 0.2669(3) 0.23102(16) 0.34960(12)
H2 H 0.1752 0.2137 0.3193
H3 H 0.3695 0.2950 0.3172
C6 C 0.3257(3) 0.25454(18) 0.34927(11)
H4 H 0.2620 0.2163 0.3696
C7 C 0.3850(3) 0.26096(15) 0.38068(12)
H5 H 0.4238 0.2769 0.3767
C8 C 0.3843(2) 0.24516(15) 0.41316(11)
H6 H 0.3433 0.2301 0.4169
C9 C 0.4413(3) 0.24872(17) 0.44396(12)
C10 C 0.4918(3) 0.27540(15) 0.44474(11)
C11 C 0.4455(3) 0.22583(14) 0.47278(11)
H7 H 0.4862 0.2924 0.4273
C12 C 0.5523(3) 0.27691(14) 0.47225(12)
C13 C 0.5040(3) 0.22852(14) 0.49995(10)
H8 H 0.4090 0.2086 0.4740
H9 H 0.5877 0.2946 0.4713
C14 C 0.5613(3) 0.25384(12) 0.50001(10)
H10 H 0.5054 0.2128 0.5191
C15 C 0.6324(3) 0.25538(12) 0.52538(10)
C16 C 0.6318(3) 0.28507(15) 0.55214(11)
C17 C 0.7043(3) 0.25719(13) 0.49731(11)
C18 C 0.6379(3) 0.22375(14) 0.55013(11)
C19 C 0.5773(3) 0.31028(17) 0.55141(12)
C20 C 0.6894(3) 0.28654(16) 0.58048(12)
C21 C 0.7617(3) 0.28054(14) 0.49956(10)
C22 C 0.7064(3) 0.23477(14) 0.46746(12)
C23 C 0.6980(3) 0.20099(17) 0.54568(12)
C24 C 0.5849(3) 0.21905(15) 0.57876(11)
H11 H 0.5356 0.3095 0.5343
C25 C 0.5838(4) 0.33754(16) 0.57641(15)
C26 C 0.6941(4) 0.31273(19) 0.60489(14)
H12 H 0.7254 0.2692 0.5827
C27 C 0.8222(3) 0.28269(14) 0.47189(12)
H13 H 0.7616 0.2954 0.5196
H14 H 0.6679 0.2184 0.4657
C28 C 0.7654(3) 0.23666(14) 0.44037(12)
H15 H 0.7357 0.2041 0.5270
C29 C 0.7025(3) 0.17387(16) 0.56864(14)
C30 C 0.5896(4) 0.19157(19) 0.60162(14)
H16 H 0.5453 0.2346 0.5828
H17 H 0.5479 0.3550 0.5752
C31 C 0.6430(4) 0.33790(18) 0.60218(13)
H18 H 0.7330 0.3130 0.6234
C32 C 0.8222(3) 0.26117(14) 0.44221(11)
H19 H 0.8616 0.2987 0.4740
H20 H 0.7667 0.2213 0.4208
H21 H 0.7423 0.1583 0.5647
C33 C 0.6491(4) 0.16893(17) 0.59775(14)
H22 H 0.5515 0.1884 0.6201
C34 C 0.6456(4) 0.3711(3) 0.62477(17)
C35 C 0.8830(3) 0.26488(14) 0.41240(12)
C36 C 0.6520(5) 0.14137(19) 0.62323(17)
H23 H 0.6064 0.3871 0.6224
C37 C 0.6962(6) 0.3744(2) 0.6436(3)
C38 C 0.8842(2) 0.24774(15) 0.38080(11)
H24 H 0.9230 0.2803 0.4163
H25 H 0.6148 0.1407 0.6425
C39 C 0.7023(5) 0.1176(2) 0.62137(15)
H26 H 0.7319 0.3568 0.6446
C40 C 0.7168(5) 0.40629(16) 0.67030(19)
C41 C 0.9438(3) 0.25050(16) 0.35009(12)
H27 H 0.8438 0.2324 0.3773
H28 H 0.7369 0.1184 0.6010
C42 C 0.7133(7) 0.0884(2) 0.64765(19)
C43 C 0.6643(4) 0.4325(2) 0.66554(14)
C44 C 0.7761(5) 0.40831(19) 0.6973(2)
C46 C 0.9357(3) 0.22728(18) 0.31920(11)
C47 C 0.7788(7) 0.0671(2) 0.6449(2)
C48 C 0.6546(7) 0.0844(2) 0.6750(2)
H29 H 0.6247 0.4312 0.6475
C49 C 0.6711(5) 0.46074(16) 0.6878(2)
H30 H 0.8112 0.3908 0.7005
C50 C 0.7829(4) 0.4365(2) 0.71954(15)
H32 H 0.8951 0.2117 0.3180
C52 C 0.9957(4) 0.23022(17) 0.29044(11)
H33 H 0.8158 0.0693 0.6257
C53 C 0.7858(6) 0.0429(2) 0.6718(2)
H34 H 0.6107 0.0982 0.6763
C54 C 0.6665(8) 0.0575(3) 0.7009(2)
N4 N 0.7304(5) 0.46276(15) 0.71478(18)
H35 H 0.6360 0.4783 0.6846
H36 H 0.8225 0.4379 0.7376
H38 H 0.9920 0.2158 0.2701
N5 N 0.7310(7) 0.03716(18) 0.69948(16)
H39 H 0.8306 0.0295 0.6713
H40 H 0.6286 0.0537 0.7194
Fe2 Fe 0.7500 0.5000 0.75791(4)
N7 N 0.1287(5) 0.2022(3) 0.2520(3)
N8 N 0.2182(2) 0.24953(14) 0.21016(9)
C56 C 0.1330(9) 0.1782(4) 0.2487(4)
C57 C 0.2146(3) 0.27021(16) 0.18089(12)
C58 C 0.2754(3) 0.22640(18) 0.21012(11)
Se3 Se 0.1113(3) 0.13451(10) 0.24960(9)
C59 C 0.2669(3) 0.26898(16) 0.15040(12)
H41 H 0.1752 0.2863 0.1807
C60 C 0.3316(3) 0.22169(17) 0.18192(11)
H42 H 0.2776 0.2122 0.2308
C61 C 0.3257(3) 0.24546(18) 0.15073(11)
H43 H 0.2620 0.2837 0.1304
H44 H 0.3695 0.2050 0.1828
C62 C 0.3850(3) 0.23904(15) 0.11932(12)
H45 H 0.4238 0.2231 0.1233
C63 C 0.3843(2) 0.25484(15) 0.08684(11)
C64 C 0.4413(3) 0.25128(17) 0.05604(12)
H46 H 0.3433 0.2699 0.0831
C65 C 0.4455(3) 0.27417(14) 0.02722(11)
C66 C 0.4918(3) 0.22460(15) 0.05526(11)
C67 C 0.5040(3) 0.27148(14) 0.00005(10)
H47 H 0.4090 0.2914 0.0260
C68 C 0.5523(3) 0.22309(14) 0.02775(12)
H48 H 0.4862 0.2076 0.0727
C69 C 0.5613(3) 0.24616(12) -0.00001(10)
H50 H 0.5877 0.2054 0.0287
C72 C 0.7043(3) 0.24281(13) 0.00269(11)
C76 C 0.7617(3) 0.21946(14) 0.00044(10)
C77 C 0.7064(3) 0.26523(14) 0.03254(12)
C82 C 0.8222(3) 0.21731(14) 0.02811(12)
C83 C 0.7654(3) 0.26334(14) 0.05963(12)
H54 H 0.6679 0.2816 0.0343
H59 H 0.8616 0.2013 0.0260
C87 C 0.8222(3) 0.23883(14) 0.05779(11)
H60 H 0.7667 0.2787 0.0792
C90 C 0.8830(3) 0.23512(14) 0.08760(12)
H64 H 0.9230 0.2197 0.0837
C93 C 0.8842(2) 0.25226(15) 0.11920(11)
H67 H 0.8438 0.2676 0.1227
C96 C 0.9438(3) 0.24950(16) 0.14991(12)
C100 C 0.9357(3) 0.27272(18) 0.18080(11)
C106 C 0.9957(4) 0.26978(17) 0.20956(11)
H71 H 0.8951 0.2883 0.1820
H77 H 0.9920 0.2842 0.2299
Fe4 Fe 0.7500 0.0000 0.74209(4)
N15 N 0.8560(8) 0.0093(4) 0.7425(3)
N16 N 0.7304(5) 0.03724(15) 0.78522(18)
C110 C 0.9125(9) 0.0135(7) 0.7450(5)
C69_2 C 0.5613(3) 0.24616(12) 0.99999(10)
H49 H 0.5054 0.2872 0.9809
C70 C 0.6324(3) 0.24462(12) 0.97462(10)
C71 C 0.6379(3) 0.27625(14) 0.94987(11)
C73 C 0.6318(3) 0.21493(15) 0.94786(11)
C74 C 0.6980(3) 0.29901(17) 0.95432(12)
C75 C 0.5849(3) 0.28095(15) 0.92124(11)
C78 C 0.6894(3) 0.21346(16) 0.91952(12)
C79 C 0.5773(3) 0.18972(17) 0.94859(12)
C80 C 0.7025(3) 0.32613(16) 0.93136(14)
H51 H 0.7357 0.2959 0.9730
C81 C 0.5896(4) 0.30843(19) 0.89838(14)
H52 H 0.5453 0.2654 0.9172
H53 H 0.7616 0.2046 0.9804
C84 C 0.6941(4) 0.18727(19) 0.89511(14)
H55 H 0.7254 0.2308 0.9173
H56 H 0.5356 0.1905 0.9657
C85 C 0.5838(4) 0.16246(16) 0.92359(15)
C86 C 0.6491(4) 0.33107(17) 0.90225(14)
H57 H 0.7423 0.3417 0.9353
H58 H 0.5515 0.3116 0.8799
H61 H 0.7330 0.1870 0.8766
C88 C 0.6430(4) 0.16210(18) 0.89782(13)
H62 H 0.5479 0.1450 0.9248
C89 C 0.6520(5) 0.35863(19) 0.87677(17)
C91 C 0.6456(4) 0.1289(3) 0.87523(17)
C92 C 0.7023(5) 0.3824(2) 0.87863(15)
H63 H 0.6148 0.3593 0.8575
C94 C 0.6962(6) 0.1256(2) 0.8564(3)
H65 H 0.6064 0.1129 0.8776
C95 C 0.7133(7) 0.4116(2) 0.85235(19)
H66 H 0.7369 0.3816 0.8990
C97 C 0.7168(5) 0.09371(16) 0.82970(19)
H68 H 0.7319 0.1432 0.8554
C98 C 0.6546(7) 0.4156(2) 0.8250(2)
C99 C 0.7788(7) 0.4329(2) 0.8551(2)
C102 C 0.6643(4) 0.0675(2) 0.83446(14)
C103 C 0.7761(5) 0.09169(19) 0.8027(2)
C104 C 0.6665(8) 0.4425(3) 0.7991(2)
H69 H 0.6107 0.4018 0.8237
H70 H 0.8158 0.4307 0.8743
C105 C 0.7858(6) 0.4571(2) 0.8282(2)
H73 H 0.6247 0.0688 0.8525
C108 C 0.6711(5) 0.03926(16) 0.8122(2)
H74 H 0.8112 0.1092 0.7995
C109 C 0.7829(4) 0.0635(2) 0.78046(15)
H75 H 0.6286 0.4463 0.7806
N11 N 0.7310(7) 0.46284(18) 0.80052(16)
H76 H 0.8306 0.4705 0.8287
H79 H 0.6360 0.0217 0.8154
H80 H 0.8225 0.0621 0.7624
N6 N 0.6440(8) 0.9907(4) 0.7425(3)
C55 C 0.5875(9) 0.9865(7) 0.7450(5)
Se2 Se 0.4818(7) 0.9698(3) 0.75072(19)
Fe4_2 Fe 0.7500 1.0000 0.74209(4)
N14 N 0.7690(7) 0.96284(18) 0.69948(16)
N17 N 0.7696(5) 0.96276(15) 0.78522(18)
Se1_2 Se 0.3887(3) 0.63451(10) 0.25040(9)
C1_2 C 0.3670(9) 0.6782(4) 0.2513(4)
N1_2 N 0.3713(5) 0.7022(3) 0.2480(3)
Fe1 Fe 0.36531(8) 0.7500 0.2500
N2_2 N 0.2818(2) 0.74953(14) 0.28984(9)
N3 N 0.4465(3) 0.74927(13) 0.29017(10)
C2_2 C 0.2246(3) 0.72640(18) 0.28988(11)
C3_2 C 0.2854(3) 0.77021(16) 0.31911(12)
H1_2 H 0.2224 0.7122 0.2692
C4_2 C 0.1684(3) 0.72169(17) 0.31808(11)
C5_2 C 0.2331(3) 0.76898(16) 0.34960(12)
H2_2 H 0.3248 0.7863 0.3193
H3_2 H 0.1305 0.7050 0.3172
C6_2 C 0.1743(3) 0.74546(18) 0.34927(11)
H4_2 H 0.2380 0.7837 0.3696
C7_2 C 0.1150(3) 0.73904(15) 0.38068(12)
H5_2 H 0.0762 0.7231 0.3767
C8_2 C 0.1157(2) 0.75484(15) 0.41316(11)
H6_2 H 0.1567 0.7699 0.4169
C9_2 C 0.0587(3) 0.75128(17) 0.44396(12)
C10_2 C 0.0082(3) 0.72460(15) 0.44474(11)
C11_2 C 0.0545(3) 0.77417(14) 0.47278(11)
H7_2 H 0.0138 0.7076 0.4273
H8_2 H 0.0910 0.7914 0.4740
N7_2 N 0.3713(5) 0.7978(3) 0.2520(3)
N8_2 N 0.2818(2) 0.75047(14) 0.21016(9)
N9 N 0.4465(3) 0.75073(13) 0.20983(10)
C56_2 C 0.3670(9) 0.8218(4) 0.2487(4)
C57_2 C 0.2854(3) 0.72979(16) 0.18089(12)
C58_2 C 0.2246(3) 0.77360(18) 0.21012(11)
Se3_2 Se 0.3887(3) 0.86549(10) 0.24960(9)
C59_2 C 0.2331(3) 0.73102(16) 0.15040(12)
H41_2 H 0.3248 0.7137 0.1807
C60_2 C 0.1684(3) 0.77831(17) 0.18192(11)
H42_2 H 0.2224 0.7878 0.2308
C61_2 C 0.1743(3) 0.75454(18) 0.15073(11)
H43_2 H 0.2380 0.7163 0.1304
H44_2 H 0.1305 0.7950 0.1828
C62_2 C 0.1150(3) 0.76096(15) 0.11932(12)
H45_2 H 0.0762 0.7769 0.1233
C63_2 C 0.1157(2) 0.74516(15) 0.08684(11)
C64_2 C 0.0587(3) 0.74872(17) 0.05604(12)
H46_2 H 0.1567 0.7301 0.0831
C65_2 C 0.0545(3) 0.72583(14) 0.02722(11)
C66_2 C 0.0082(3) 0.77540(15) 0.05526(11)
H47_2 H 0.0910 0.7086 0.0260
H48_2 H 0.0138 0.7924 0.0727
C12_2 C 0.9477(3) 0.72309(14) 0.47225(12)
C13_2 C 0.9960(3) 0.77148(14) 0.49995(10)
H9_2 H 0.9123 0.7054 0.4713
C14_2 C 0.9387(3) 0.74616(12) 0.50001(10)
H10_2 H 0.9946 0.7872 0.5191
C15_2 C 0.8676(3) 0.74462(12) 0.52538(10)
C16_2 C 0.8682(3) 0.71493(15) 0.55214(11)
C17_2 C 0.7957(3) 0.74281(13) 0.49731(11)
C18_2 C 0.8621(3) 0.77625(14) 0.55013(11)
C19_2 C 0.9227(3) 0.68972(17) 0.55141(12)
C20_2 C 0.8106(3) 0.71346(16) 0.58048(12)
C21_2 C 0.7383(3) 0.71946(14) 0.49956(10)
C22_2 C 0.7936(3) 0.76523(14) 0.46746(12)
C23_2 C 0.8020(3) 0.79901(17) 0.54568(12)
C24_2 C 0.9151(3) 0.78095(15) 0.57876(11)
H11_2 H 0.9644 0.6905 0.5343
C25_2 C 0.9162(4) 0.66246(16) 0.57641(15)
C26_2 C 0.8059(4) 0.68727(19) 0.60489(14)
H12_2 H 0.7746 0.7308 0.5827
C27_2 C 0.6778(3) 0.71731(14) 0.47189(12)
H13_2 H 0.7384 0.7046 0.5196
H14_2 H 0.8321 0.7816 0.4657
C28_2 C 0.7346(3) 0.76334(14) 0.44037(12)
H15_2 H 0.7643 0.7959 0.5270
C29_2 C 0.7975(3) 0.82613(16) 0.56864(14)
C30_2 C 0.9104(4) 0.80843(19) 0.60162(14)
H16_2 H 0.9547 0.7654 0.5828
H17_2 H 0.9521 0.6450 0.5752
C31_2 C 0.8570(4) 0.66210(18) 0.60218(13)
H18_2 H 0.7670 0.6870 0.6234
C32_2 C 0.6778(3) 0.73883(14) 0.44221(11)
H19_2 H 0.6384 0.7013 0.4740
H20_2 H 0.7333 0.7787 0.4208
H21_2 H 0.7577 0.8417 0.5647
C33_2 C 0.8509(4) 0.83107(17) 0.59775(14)
H22_2 H 0.9485 0.8116 0.6201
C34_2 C 0.8544(4) 0.6289(3) 0.62477(17)
C35_2 C 0.6170(3) 0.73512(14) 0.41240(12)
C36_2 C 0.8480(5) 0.85863(19) 0.62323(17)
H23_2 H 0.8936 0.6129 0.6224
C37_2 C 0.8038(6) 0.6256(2) 0.6436(3)
C38_2 C 0.6158(2) 0.75226(15) 0.38080(11)
H24_2 H 0.5770 0.7197 0.4163
H25_2 H 0.8852 0.8593 0.6425
C39_2 C 0.7977(5) 0.8824(2) 0.62137(15)
H26_2 H 0.7681 0.6432 0.6446
C40_2 C 0.7832(5) 0.59371(16) 0.67030(19)
C41_2 C 0.5562(3) 0.74950(16) 0.35009(12)
H27_2 H 0.6562 0.7676 0.3773
H28_2 H 0.7631 0.8816 0.6010
C42_2 C 0.7867(7) 0.9116(2) 0.64765(19)
C43_2 C 0.8357(4) 0.5675(2) 0.66554(14)
C44_2 C 0.7239(5) 0.59169(19) 0.6973(2)
C45_2 C 0.4960(3) 0.72751(17) 0.34968(11)
C46_2 C 0.5643(3) 0.77272(18) 0.31920(11)
C47_2 C 0.7212(7) 0.9329(2) 0.6449(2)
C48_2 C 0.8454(7) 0.9156(2) 0.6750(2)
H29_2 H 0.8753 0.5688 0.6475
C49_2 C 0.8289(5) 0.53926(16) 0.6878(2)
H30_2 H 0.6888 0.6092 0.7005
C50_2 C 0.7171(4) 0.5635(2) 0.71954(15)
C51_2 C 0.4424(3) 0.72830(16) 0.31940(13)
H31_2 H 0.4901 0.7122 0.3690
H32_2 H 0.6049 0.7883 0.3180
C52_2 C 0.5043(4) 0.76978(17) 0.29044(11)
H33_2 H 0.6842 0.9307 0.6257
C53_2 C 0.7142(6) 0.9571(2) 0.6718(2)
H34_2 H 0.8893 0.9018 0.6763
C54_2 C 0.8335(8) 0.9425(3) 0.7009(2)
N4_2 N 0.7696(5) 0.53724(15) 0.71478(18)
H35_2 H 0.8640 0.5217 0.6846
H36_2 H 0.6775 0.5621 0.7376
H37_2 H 0.4010 0.7131 0.3197
H38_2 H 0.5080 0.7842 0.2701
H39_2 H 0.6694 0.9705 0.6713
H40_2 H 0.8714 0.9463 0.7194
C67_2 C 0.9960(3) 0.72852(14) 0.00005(10)
C68_2 C 0.9477(3) 0.77691(14) 0.02775(12)
C69_3 C 0.9387(3) 0.75384(12) -0.00001(10)
H50_2 H 0.9123 0.7946 0.0287
C72_2 C 0.7957(3) 0.75719(13) 0.00269(11)
C76_2 C 0.7383(3) 0.78054(14) 0.00044(10)
C77_2 C 0.7936(3) 0.73477(14) 0.03254(12)
C82_2 C 0.6778(3) 0.78269(14) 0.02811(12)
C83_2 C 0.7346(3) 0.73666(14) 0.05963(12)
H54_2 H 0.8321 0.7184 0.0343
H59_2 H 0.6384 0.7987 0.0260
C87_2 C 0.6778(3) 0.76117(14) 0.05779(11)
H60_2 H 0.7333 0.7213 0.0792
C90_2 C 0.6170(3) 0.76488(14) 0.08760(12)
H64_2 H 0.5770 0.7803 0.0837
C93_2 C 0.6158(2) 0.74774(15) 0.11920(11)
H67_2 H 0.6562 0.7324 0.1227
C96_2 C 0.5562(3) 0.75050(16) 0.14991(12)
C100_2 C 0.5643(3) 0.72728(18) 0.18080(11)
C101_2 C 0.4960(3) 0.77249(17) 0.15032(11)
C106_2 C 0.5043(4) 0.73022(17) 0.20956(11)
H71_2 H 0.6049 0.7117 0.1820
C107_2 C 0.4424(3) 0.77170(16) 0.18060(13)
H72_2 H 0.4901 0.7878 0.1310
H77_2 H 0.5080 0.7158 0.2299
H78_2 H 0.4010 0.7869 0.1803
C69_4 C 0.9387(3) 0.75384(12) 0.99999(10)
H49_2 H 0.9946 0.7128 0.9809
C70_2 C 0.8676(3) 0.75538(12) 0.97462(10)
C71_2 C 0.8621(3) 0.72375(14) 0.94987(11)
C73_2 C 0.8682(3) 0.78507(15) 0.94786(11)
C74_2 C 0.8020(3) 0.70099(17) 0.95432(12)
C75_2 C 0.9151(3) 0.71905(15) 0.92124(11)
C78_2 C 0.8106(3) 0.78654(16) 0.91952(12)
C79_2 C 0.9227(3) 0.81028(17) 0.94859(12)
C80_2 C 0.7975(3) 0.67387(16) 0.93136(14)
H51_2 H 0.7643 0.7041 0.9730
C81_2 C 0.9104(4) 0.69157(19) 0.89838(14)
H52_2 H 0.9547 0.7346 0.9172
H53_2 H 0.7384 0.7954 0.9804
C84_2 C 0.8059(4) 0.81273(19) 0.89511(14)
H55_2 H 0.7746 0.7692 0.9173
H56_2 H 0.9644 0.8095 0.9657
C85_2 C 0.9162(4) 0.83754(16) 0.92359(15)
C86_2 C 0.8509(4) 0.66893(17) 0.90225(14)
H57_2 H 0.7577 0.6583 0.9353
H58_2 H 0.9485 0.6884 0.8799
H61_2 H 0.7670 0.8130 0.8766
C88_2 C 0.8570(4) 0.83790(18) 0.89782(13)
H62_2 H 0.9521 0.8550 0.9248
C89_2 C 0.8480(5) 0.64137(19) 0.87677(17)
C91_2 C 0.8544(4) 0.8711(3) 0.87523(17)
C92_2 C 0.7977(5) 0.6176(2) 0.87863(15)
H63_2 H 0.8852 0.6407 0.8575
C94_2 C 0.8038(6) 0.8744(2) 0.8564(3)
H65_2 H 0.8936 0.8871 0.8776
C95_2 C 0.7867(7) 0.5884(2) 0.85235(19)
H66_2 H 0.7631 0.6184 0.8990
C97_2 C 0.7832(5) 0.90629(16) 0.82970(19)
H68_2 H 0.7681 0.8568 0.8554
C98_2 C 0.8454(7) 0.5844(2) 0.8250(2)
C99_2 C 0.7212(7) 0.5671(2) 0.8551(2)
C102_2 C 0.8357(4) 0.9325(2) 0.83446(14)
C103_2 C 0.7239(5) 0.90831(19) 0.8027(2)
C104_2 C 0.8335(8) 0.5575(3) 0.7991(2)
H69_2 H 0.8893 0.5982 0.8237
H70_2 H 0.6842 0.5693 0.8743
C105_2 C 0.7142(6) 0.5429(2) 0.8282(2)
H73_2 H 0.8753 0.9312 0.8525
C108_2 C 0.8289(5) 0.96074(16) 0.8122(2)
H74_2 H 0.6888 0.8908 0.7995
C109_2 C 0.7171(4) 0.9365(2) 0.78046(15)
H75_2 H 0.8714 0.5537 0.7806
N11_2 N 0.7690(7) 0.53716(18) 0.80052(16)
H76_2 H 0.6694 0.5295 0.8287
H79_2 H 0.8640 0.9783 0.8154
H80_2 H 0.6775 0.9379 0.7624
N6_2 N 0.6440(8) 0.5093(4) 0.7575(3)
C55_2 C 0.5875(9) 0.5135(7) 0.7550(5)
Se2_2 Se 0.4818(7) 0.5302(3) 0.74928(19)
N15_2 N 0.8560(8) 0.4907(4) 0.7575(3)
C110_2 C 0.9125(9) 0.4865(7) 0.7550(5)
Se4_2 Se 0.0182(7) 0.4698(3) 0.74928(19)
Fe6 Fe 0.2500 0.0000 0.25791(4)
N6_3 N 0.3560(8) 0.0093(4) 0.2575(3)
C55_3 C 0.4125(9) 0.0135(7) 0.2550(5)
Se2_3 Se 0.5182(7) 0.0302(3) 0.24928(19)
N14_2 N 0.2310(7) 0.03716(18) 0.30052(16)
N17_2 N 0.2304(5) 0.03724(15) 0.21478(18)
C69_5 C 0.4387(3) 0.75384(12) 0.00001(10)
H49_3 H 0.4946 0.7128 0.0191
C70_3 C 0.3676(3) 0.75538(12) 0.02538(10)
C71_3 C 0.3621(3) 0.72375(14) 0.05013(11)
C73_3 C 0.3682(3) 0.78507(15) 0.05214(11)
C74_3 C 0.3020(3) 0.70099(17) 0.04568(12)
C75_3 C 0.4151(3) 0.71905(15) 0.07876(11)
C78_3 C 0.3106(3) 0.78654(16) 0.08048(12)
C79_3 C 0.4227(3) 0.81028(17) 0.05141(12)
C80_3 C 0.2975(3) 0.67387(16) 0.06864(14)
H51_3 H 0.2643 0.7041 0.0270
C81_3 C 0.4104(4) 0.69157(19) 0.10162(14)
H52_3 H 0.4547 0.7346 0.0828
H53_3 H 0.2384 0.7954 0.0196
C84_3 C 0.3059(4) 0.81273(19) 0.10489(14)
H55_3 H 0.2746 0.7692 0.0827
H56_3 H 0.4644 0.8095 0.0343
C85_3 C 0.4162(4) 0.83754(16) 0.07641(15)
C86_3 C 0.3509(4) 0.66893(17) 0.09775(14)
H57_3 H 0.2577 0.6583 0.0647
H58_3 H 0.4485 0.6884 0.1201
H61_3 H 0.2670 0.8130 0.1234
C88_3 C 0.3570(4) 0.83790(18) 0.10218(13)
H62_3 H 0.4521 0.8550 0.0752
C89_3 C 0.3480(5) 0.64137(19) 0.12323(17)
C91_3 C 0.3544(4) 0.8711(3) 0.12477(17)
C92_3 C 0.2977(5) 0.6176(2) 0.12137(15)
H63_3 H 0.3852 0.6407 0.1425
C94_3 C 0.3038(6) 0.8744(2) 0.1436(3)
H65_3 H 0.3936 0.8871 0.1224
C95_3 C 0.2867(7) 0.5884(2) 0.14765(19)
H66_3 H 0.2631 0.6184 0.1010
C97_3 C 0.2832(5) 0.90629(16) 0.17030(19)
H68_3 H 0.2681 0.8568 0.1446
C98_3 C 0.3454(7) 0.5844(2) 0.1750(2)
C99_3 C 0.2212(7) 0.5671(2) 0.1449(2)
C102_3 C 0.3357(4) 0.9325(2) 0.16554(14)
C103_3 C 0.2239(5) 0.90831(19) 0.1973(2)
C104_3 C 0.3335(8) 0.5575(3) 0.2009(2)
H69_3 H 0.3893 0.5982 0.1763
H70_3 H 0.1842 0.5693 0.1257
C105_3 C 0.2142(6) 0.5429(2) 0.1718(2)
H73_3 H 0.3753 0.9312 0.1475
C108_3 C 0.3289(5) 0.96074(16) 0.1878(2)
H74_3 H 0.1888 0.8908 0.2005
C109_3 C 0.2171(4) 0.9365(2) 0.21954(15)
H75_3 H 0.3714 0.5537 0.2194
N11_3 N 0.2690(7) 0.53716(18) 0.19948(16)
H76_3 H 0.1694 0.5295 0.1713
H79_3 H 0.3640 0.9783 0.1846
N13 N 0.2696(5) 0.96276(15) 0.21478(18)
H80_3 H 0.1775 0.9379 0.2376
Fe5 Fe 0.2500 0.5000 0.24209(4)
Fe6_2 Fe 0.2500 1.0000 0.25791(4)
Se1_3 Se 0.8887(3) 0.63451(10) 0.74960(9)
C1_3 C 0.8670(9) 0.6782(4) 0.7487(4)
N1_3 N 0.8713(5) 0.7022(3) 0.7520(3)
Fe1_2 Fe 0.86531(8) 0.7500 0.7500
N2_3 N 0.7818(2) 0.74953(14) 0.71016(9)
N3_2 N 0.9465(3) 0.74927(13) 0.70983(10)
C2_3 C 0.7246(3) 0.72640(18) 0.71012(11)
C3_3 C 0.7854(3) 0.77021(16) 0.68089(12)
H1_3 H 0.7224 0.7122 0.7308
C4_3 C 0.6684(3) 0.72169(17) 0.68192(11)
C5_3 C 0.7331(3) 0.76898(16) 0.65040(12)
H2_3 H 0.8248 0.7863 0.6807
H3_3 H 0.6305 0.7050 0.6828
C6_3 C 0.6743(3) 0.74546(18) 0.65073(11)
H4_3 H 0.7380 0.7837 0.6304
C7_3 C 0.6150(3) 0.73904(15) 0.61932(12)
H5_3 H 0.5762 0.7231 0.6233
C8_3 C 0.6157(2) 0.75484(15) 0.58684(11)
H6_3 H 0.6567 0.7699 0.5831
C9_3 C 0.5587(3) 0.75128(17) 0.55604(12)
C10_3 C 0.5082(3) 0.72460(15) 0.55526(11)
C11_3 C 0.5545(3) 0.77417(14) 0.52722(11)
H7_3 H 0.5138 0.7076 0.5727
C12_3 C 0.4477(3) 0.72309(14) 0.52775(12)
C13_3 C 0.4960(3) 0.77148(14) 0.50005(10)
H8_3 H 0.5910 0.7914 0.5260
H9_3 H 0.4123 0.7054 0.5287
C14_3 C 0.4387(3) 0.74616(12) 0.49999(10)
H10_3 H 0.4946 0.7872 0.4809
C15_3 C 0.3676(3) 0.74462(12) 0.47462(10)
C16_3 C 0.3682(3) 0.71493(15) 0.44786(11)
C17_3 C 0.2957(3) 0.74281(13) 0.50269(11)
C18_3 C 0.3621(3) 0.77625(14) 0.44987(11)
C19_3 C 0.4227(3) 0.68972(17) 0.44859(12)
C20_3 C 0.3106(3) 0.71346(16) 0.41952(12)
C21_3 C 0.2383(3) 0.71946(14) 0.50044(10)
C22_3 C 0.2936(3) 0.76523(14) 0.53254(12)
C23_3 C 0.3020(3) 0.79901(17) 0.45432(12)
C24_3 C 0.4151(3) 0.78095(15) 0.42124(11)
H11_3 H 0.4644 0.6905 0.4657
C25_3 C 0.4162(4) 0.66246(16) 0.42359(15)
C26_3 C 0.3059(4) 0.68727(19) 0.39511(14)
H12_3 H 0.2746 0.7308 0.4173
C27_3 C 0.1778(3) 0.71731(14) 0.52811(12)
H13_3 H 0.2384 0.7046 0.4804
H14_3 H 0.3321 0.7816 0.5343
C28_3 C 0.2346(3) 0.76334(14) 0.55963(12)
H15_3 H 0.2643 0.7959 0.4730
C29_3 C 0.2975(3) 0.82613(16) 0.43136(14)
C30_3 C 0.4104(4) 0.80843(19) 0.39838(14)
H16_3 H 0.4547 0.7654 0.4172
H17_3 H 0.4521 0.6450 0.4248
C31_3 C 0.3570(4) 0.66210(18) 0.39782(13)
H18_3 H 0.2670 0.6870 0.3766
C32_3 C 0.1778(3) 0.73883(14) 0.55779(11)
H19_3 H 0.1384 0.7013 0.5260
H20_3 H 0.2333 0.7787 0.5792
H21_3 H 0.2577 0.8417 0.4353
C33_3 C 0.3509(4) 0.83107(17) 0.40225(14)
H22_3 H 0.4485 0.8116 0.3799
C34_3 C 0.3544(4) 0.6289(3) 0.37523(17)
C35_3 C 0.1170(3) 0.73512(14) 0.58760(12)
C36_3 C 0.3480(5) 0.85863(19) 0.37677(17)
H23_3 H 0.3936 0.6129 0.3776
C37_3 C 0.3038(6) 0.6256(2) 0.3564(3)
C38_3 C 0.1158(2) 0.75226(15) 0.61920(11)
H24_3 H 0.0770 0.7197 0.5837
H25_3 H 0.3852 0.8593 0.3575
C39_3 C 0.2977(5) 0.8824(2) 0.37863(15)
H26_3 H 0.2681 0.6432 0.3554
C40_3 C 0.2832(5) 0.59371(16) 0.32970(19)
C41_3 C 0.0562(3) 0.74950(16) 0.64991(12)
H27_3 H 0.1562 0.7676 0.6227
H28_3 H 0.2631 0.8816 0.3990
C42_3 C 0.2867(7) 0.9116(2) 0.35235(19)
C43_3 C 0.3357(4) 0.5675(2) 0.33446(14)
C44_3 C 0.2239(5) 0.59169(19) 0.3027(2)
C46_3 C 0.0643(3) 0.77272(18) 0.68080(11)
C47_3 C 0.2212(7) 0.9329(2) 0.3551(2)
C48_3 C 0.3454(7) 0.9156(2) 0.3250(2)
H29_3 H 0.3753 0.5688 0.3525
C49_3 C 0.3289(5) 0.53926(16) 0.3122(2)
H30_3 H 0.1888 0.6092 0.2995
C50_3 C 0.2171(4) 0.5635(2) 0.28046(15)
H32_3 H 0.1049 0.7883 0.6820
C52_3 C 0.0043(4) 0.76978(17) 0.70956(11)
H33_3 H 0.1842 0.9307 0.3743
C53_3 C 0.2142(6) 0.9571(2) 0.3282(2)
H34_3 H 0.3893 0.9018 0.3237
C54_3 C 0.3335(8) 0.9425(3) 0.2991(2)
N4_3 N 0.2696(5) 0.53724(15) 0.28522(18)
H35_3 H 0.3640 0.5217 0.3154
H36_3 H 0.1775 0.5621 0.2624
H38_3 H 0.0080 0.7842 0.7299
N5_2 N 0.2690(7) 0.96284(18) 0.30052(16)
H39_3 H 0.1694 0.9705 0.3287
H40_3 H 0.3714 0.9463 0.2806
N7_3 N 0.8713(5) 0.7978(3) 0.7480(3)
N8_3 N 0.7818(2) 0.75047(14) 0.78984(9)
N9_2 N 0.9465(3) 0.75073(13) 0.79017(10)
C56_3 C 0.8670(9) 0.8218(4) 0.7513(4)
C57_3 C 0.7854(3) 0.72979(16) 0.81911(12)
C58_3 C 0.7246(3) 0.77360(18) 0.78988(11)
Se3_3 Se 0.8887(3) 0.86549(10) 0.75040(9)
C59_3 C 0.7331(3) 0.73102(16) 0.84960(12)
H41_3 H 0.8248 0.7137 0.8193
C60_3 C 0.6684(3) 0.77831(17) 0.81808(11)
H42_3 H 0.7224 0.7878 0.7692
C61_3 C 0.6743(3) 0.75454(18) 0.84927(11)
H43_3 H 0.7380 0.7163 0.8696
H44_3 H 0.6305 0.7950 0.8172
C62_3 C 0.6150(3) 0.76096(15) 0.88068(12)
H45_3 H 0.5762 0.7769 0.8767
C63_3 C 0.6157(2) 0.74516(15) 0.91316(11)
C64_3 C 0.5587(3) 0.74872(17) 0.94396(12)
H46_3 H 0.6567 0.7301 0.9169
C65_3 C 0.5545(3) 0.72583(14) 0.97278(11)
C66_3 C 0.5082(3) 0.77540(15) 0.94474(11)
C67_3 C 0.4960(3) 0.72852(14) 0.99995(10)
H47_3 H 0.5910 0.7086 0.9740
C68_3 C 0.4477(3) 0.77691(14) 0.97225(12)
H48_3 H 0.5138 0.7924 0.9273
C69_6 C 0.4387(3) 0.75384(12) 1.00001(10)
H50_3 H 0.4123 0.7946 0.9713
C72_3 C 0.2957(3) 0.75719(13) 0.99731(11)
C76_3 C 0.2383(3) 0.78054(14) 0.99956(10)
C77_3 C 0.2936(3) 0.73477(14) 0.96746(12)
C82_3 C 0.1778(3) 0.78269(14) 0.97189(12)
C83_3 C 0.2346(3) 0.73666(14) 0.94037(12)
H54_3 H 0.3321 0.7184 0.9657
H59_3 H 0.1384 0.7987 0.9740
C87_3 C 0.1778(3) 0.76117(14) 0.94221(11)
H60_3 H 0.2333 0.7213 0.9208
C90_3 C 0.1170(3) 0.76488(14) 0.91240(12)
H64_3 H 0.0770 0.7803 0.9163
C93_3 C 0.1158(2) 0.74774(15) 0.88080(11)
H67_3 H 0.1562 0.7324 0.8773
C96_3 C 0.0562(3) 0.75050(16) 0.85009(12)
C100_3 C 0.0643(3) 0.72728(18) 0.81920(11)
C106_3 C 0.0043(4) 0.73022(17) 0.79044(11)
H71_3 H 0.1049 0.7117 0.8180
H77_3 H 0.0080 0.7158 0.7701
N15_3 N 0.1440(8) 0.9907(4) 0.2575(3)
C110_3 C 0.0875(9) 0.9865(7) 0.2550(5)
C45_3 C 0.9960(3) 0.72751(17) 0.65032(11)
C51_3 C 0.9424(3) 0.72830(16) 0.68060(13)
H31_3 H 0.9901 0.7122 0.6310
H37_3 H 0.9010 0.7131 0.6803
C101_3 C 0.9960(3) 0.77249(17) 0.84968(11)
C107_3 C 0.9424(3) 0.77170(16) 0.81940(13)
H72_3 H 0.9901 0.7878 0.8690
H78_3 H 0.9010 0.7869 0.8197
Se4_3 Se 0.9818(7) 0.9698(3) 0.24928(19)
C69_7 C 0.0613(3) 0.24616(12) 0.00001(10)
H49_4 H 0.0054 0.2872 0.0191
C70_4 C 0.1324(3) 0.24462(12) 0.02538(10)
C71_4 C 0.1379(3) 0.27625(14) 0.05013(11)
C73_4 C 0.1318(3) 0.21493(15) 0.05214(11)
C74_4 C 0.1980(3) 0.29901(17) 0.04568(12)
C75_4 C 0.0849(3) 0.28095(15) 0.07876(11)
C78_4 C 0.1894(3) 0.21346(16) 0.08048(12)
C79_4 C 0.0773(3) 0.18972(17) 0.05141(12)
C80_4 C 0.2025(3) 0.32613(16) 0.06864(14)
H51_4 H 0.2357 0.2959 0.0270
C81_4 C 0.0896(4) 0.30843(19) 0.10162(14)
H52_4 H 0.0453 0.2654 0.0828
H53_4 H 0.2616 0.2046 0.0196
C84_4 C 0.1941(4) 0.18727(19) 0.10489(14)
H55_4 H 0.2254 0.2308 0.0827
H56_4 H 0.0356 0.1905 0.0343
C85_4 C 0.0838(4) 0.16246(16) 0.07641(15)
C86_4 C 0.1491(4) 0.33107(17) 0.09775(14)
H57_4 H 0.2423 0.3417 0.0647
H58_4 H 0.0515 0.3116 0.1201
H61_4 H 0.2330 0.1870 0.1234
C88_4 C 0.1430(4) 0.16210(18) 0.10218(13)
H62_4 H 0.0479 0.1450 0.0752
C89_4 C 0.1520(5) 0.35863(19) 0.12323(17)
C91_4 C 0.1456(4) 0.1289(3) 0.12477(17)
C92_4 C 0.2023(5) 0.3824(2) 0.12137(15)
H63_4 H 0.1148 0.3593 0.1425
C94_4 C 0.1962(6) 0.1256(2) 0.1436(3)
H65_4 H 0.1064 0.1129 0.1224
C95_4 C 0.2133(7) 0.4116(2) 0.14765(19)
H66_4 H 0.2369 0.3816 0.1010
C97_4 C 0.2168(5) 0.09371(16) 0.17030(19)
H68_4 H 0.2319 0.1432 0.1446
C98_4 C 0.1546(7) 0.4156(2) 0.1750(2)
C99_4 C 0.2788(7) 0.4329(2) 0.1449(2)
C102_4 C 0.1643(4) 0.0675(2) 0.16554(14)
C103_4 C 0.2761(5) 0.09169(19) 0.1973(2)
C104_4 C 0.1665(8) 0.4425(3) 0.2009(2)
H69_4 H 0.1107 0.4018 0.1763
H70_4 H 0.3158 0.4307 0.1257
C105_4 C 0.2858(6) 0.4571(2) 0.1718(2)
H73_4 H 0.1247 0.0688 0.1475
C108_4 C 0.1711(5) 0.03926(16) 0.1878(2)
H74_4 H 0.3112 0.1092 0.2005
C109_4 C 0.2829(4) 0.0635(2) 0.21954(15)
H75_4 H 0.1286 0.4463 0.2194
N11_4 N 0.2310(7) 0.46284(18) 0.19948(16)
H76_4 H 0.3306 0.4705 0.1713
H79_4 H 0.1360 0.0217 0.1846
H80_4 H 0.3225 0.0621 0.2376
C12_4 C 0.0523(3) 0.27691(14) 0.52775(12)
C13_4 C 0.0040(3) 0.22852(14) 0.50005(10)
H9_4 H 0.0877 0.2946 0.5287
C14_4 C 0.0613(3) 0.25384(12) 0.49999(10)
H10_4 H 0.0054 0.2128 0.4809
C15_4 C 0.1324(3) 0.25538(12) 0.47462(10)
C16_4 C 0.1318(3) 0.28507(15) 0.44786(11)
C17_4 C 0.2043(3) 0.25719(13) 0.50269(11)
C18_4 C 0.1379(3) 0.22375(14) 0.44987(11)
C19_4 C 0.0773(3) 0.31028(17) 0.44859(12)
C20_4 C 0.1894(3) 0.28654(16) 0.41952(12)
C21_4 C 0.2617(3) 0.28054(14) 0.50044(10)
C22_4 C 0.2064(3) 0.23477(14) 0.53254(12)
C23_4 C 0.1980(3) 0.20099(17) 0.45432(12)
C24_4 C 0.0849(3) 0.21905(15) 0.42124(11)
H11_4 H 0.0356 0.3095 0.4657
C25_4 C 0.0838(4) 0.33754(16) 0.42359(15)
C26_4 C 0.1941(4) 0.31273(19) 0.39511(14)
H12_4 H 0.2254 0.2692 0.4173
C27_4 C 0.3222(3) 0.28269(14) 0.52811(12)
H13_4 H 0.2616 0.2954 0.4804
H14_4 H 0.1679 0.2184 0.5343
C28_4 C 0.2654(3) 0.23666(14) 0.55963(12)
H15_4 H 0.2357 0.2041 0.4730
C29_4 C 0.2025(3) 0.17387(16) 0.43136(14)
C30_4 C 0.0896(4) 0.19157(19) 0.39838(14)
H16_4 H 0.0453 0.2346 0.4172
H17_4 H 0.0479 0.3550 0.4248
C31_4 C 0.1430(4) 0.33790(18) 0.39782(13)
H18_4 H 0.2330 0.3130 0.3766
C32_4 C 0.3222(3) 0.26117(14) 0.55779(11)
H19_4 H 0.3616 0.2987 0.5260
H20_4 H 0.2667 0.2213 0.5792
H21_4 H 0.2423 0.1583 0.4353
C33_4 C 0.1491(4) 0.16893(17) 0.40225(14)
H22_4 H 0.0515 0.1884 0.3799
C34_4 C 0.1456(4) 0.3711(3) 0.37523(17)
C35_4 C 0.3830(3) 0.26488(14) 0.58760(12)
C36_4 C 0.1520(5) 0.14137(19) 0.37677(17)
H23_4 H 0.1064 0.3871 0.3776
C37_4 C 0.1962(6) 0.3744(2) 0.3564(3)
C38_4 C 0.3842(2) 0.24774(15) 0.61920(11)
H24_4 H 0.4230 0.2803 0.5837
H25_4 H 0.1148 0.1407 0.3575
C39_4 C 0.2023(5) 0.1176(2) 0.37863(15)
H26_4 H 0.2319 0.3568 0.3554
C40_4 C 0.2168(5) 0.40629(16) 0.32970(19)
C41_4 C 0.4438(3) 0.25050(16) 0.64991(12)
H27_4 H 0.3438 0.2324 0.6227
H28_4 H 0.2369 0.1184 0.3990
C42_4 C 0.2133(7) 0.0884(2) 0.35235(19)
C43_4 C 0.1643(4) 0.4325(2) 0.33446(14)
C44_4 C 0.2761(5) 0.40831(19) 0.3027(2)
C45_4 C 0.5040(3) 0.27249(17) 0.65032(11)
C46_4 C 0.4357(3) 0.22728(18) 0.68080(11)
C47_4 C 0.2788(7) 0.0671(2) 0.3551(2)
C48_4 C 0.1546(7) 0.0844(2) 0.3250(2)
H29_4 H 0.1247 0.4312 0.3525
C49_4 C 0.1711(5) 0.46074(16) 0.3122(2)
H30_4 H 0.3112 0.3908 0.2995
C50_4 C 0.2829(4) 0.4365(2) 0.28046(15)
C51_4 C 0.5576(3) 0.27170(16) 0.68060(13)
H31_4 H 0.5099 0.2878 0.6310
H32_4 H 0.3951 0.2117 0.6820
C52_4 C 0.4957(4) 0.23022(17) 0.70956(11)
H33_4 H 0.3158 0.0693 0.3743
C53_4 C 0.2858(6) 0.0429(2) 0.3282(2)
H34_4 H 0.1107 0.0982 0.3237
C54_4 C 0.1665(8) 0.0575(3) 0.2991(2)
N4_4 N 0.2304(5) 0.46276(15) 0.28522(18)
H35_4 H 0.1360 0.4783 0.3154
H36_4 H 0.3225 0.4379 0.2624
H37_4 H 0.5990 0.2869 0.6803
H38_4 H 0.4920 0.2158 0.7299
H39_4 H 0.3306 0.0295 0.3287
H40_4 H 0.1286 0.0537 0.2806
C67_4 C 0.0040(3) 0.27148(14) 0.99995(10)
C68_4 C 0.0523(3) 0.22309(14) 0.97225(12)
C69_8 C 0.0613(3) 0.24616(12) 1.00001(10)
H50_4 H 0.0877 0.2054 0.9713
C72_4 C 0.2043(3) 0.24281(13) 0.99731(11)
C76_4 C 0.2617(3) 0.21946(14) 0.99956(10)
C77_4 C 0.2064(3) 0.26523(14) 0.96746(12)
C82_4 C 0.3222(3) 0.21731(14) 0.97189(12)
C83_4 C 0.2654(3) 0.26334(14) 0.94037(12)
H54_4 H 0.1679 0.2816 0.9657
H59_4 H 0.3616 0.2013 0.9740
C87_4 C 0.3222(3) 0.23883(14) 0.94221(11)
H60_4 H 0.2667 0.2787 0.9208
C90_4 C 0.3830(3) 0.23512(14) 0.91240(12)
H64_4 H 0.4230 0.2197 0.9163
C93_4 C 0.3842(2) 0.25226(15) 0.88080(11)
H67_4 H 0.3438 0.2676 0.8773
C96_4 C 0.4438(3) 0.24950(16) 0.85009(12)
C100_4 C 0.4357(3) 0.27272(18) 0.81920(11)
C101_4 C 0.5040(3) 0.22751(17) 0.84968(11)
C106_4 C 0.4957(4) 0.26978(17) 0.79044(11)
H71_4 H 0.3951 0.2883 0.8180
C107_4 C 0.5576(3) 0.22830(16) 0.81940(13)
H72_4 H 0.5099 0.2122 0.8690
N10_2 N 0.5535(3) 0.25073(13) 0.70983(10)
H77_4 H 0.4920 0.2842 0.7701
N12_2 N 0.5535(3) 0.24927(13) 0.79017(10)
H78_4 H 0.5990 0.2131 0.8197
Fe3_2 Fe 0.63469(8) 0.2500 0.7500
Se1_4 Se 0.6113(3) 0.36549(10) 0.74960(9)
C1_4 C 0.6330(9) 0.3218(4) 0.7487(4)
N1_4 N 0.6287(5) 0.2978(3) 0.7520(3)
N2_4 N 0.7182(2) 0.25047(14) 0.71016(9)
C2_4 C 0.7754(3) 0.27360(18) 0.71012(11)
C3_4 C 0.7146(3) 0.22979(16) 0.68089(12)
H1_4 H 0.7776 0.2878 0.7308
C4_4 C 0.8316(3) 0.27831(17) 0.68192(11)
C5_4 C 0.7669(3) 0.23102(16) 0.65040(12)
H2_4 H 0.6752 0.2137 0.6807
H3_4 H 0.8695 0.2950 0.6828
C6_4 C 0.8257(3) 0.25454(18) 0.65073(11)
H4_4 H 0.7620 0.2163 0.6304
C7_4 C 0.8850(3) 0.26096(15) 0.61932(12)
H5_4 H 0.9238 0.2769 0.6233
C8_4 C 0.8843(2) 0.24516(15) 0.58684(11)
H6_4 H 0.8433 0.2301 0.5831
C9_4 C 0.9413(3) 0.24872(17) 0.55604(12)
C10_4 C 0.9918(3) 0.27540(15) 0.55526(11)
C11_4 C 0.9455(3) 0.22583(14) 0.52722(11)
H7_4 H 0.9862 0.2924 0.5727
H8_4 H 0.9090 0.2086 0.5260
N7_4 N 0.6287(5) 0.2022(3) 0.7480(3)
N8_4 N 0.7182(2) 0.24953(14) 0.78984(9)
C56_4 C 0.6330(9) 0.1782(4) 0.7513(4)
C57_4 C 0.7146(3) 0.27021(16) 0.81911(12)
C58_4 C 0.7754(3) 0.22640(18) 0.78988(11)
Se3_4 Se 0.6113(3) 0.13451(10) 0.75040(9)
C59_4 C 0.7669(3) 0.26898(16) 0.84960(12)
H41_4 H 0.6752 0.2863 0.8193
C60_4 C 0.8316(3) 0.22169(17) 0.81808(11)
H42_4 H 0.7776 0.2122 0.7692
C61_4 C 0.8257(3) 0.24546(18) 0.84927(11)
H43_4 H 0.7620 0.2837 0.8696
H44_4 H 0.8695 0.2050 0.8172
C62_4 C 0.8850(3) 0.23904(15) 0.88068(12)
H45_4 H 0.9238 0.2231 0.8767
C63_4 C 0.8843(2) 0.25484(15) 0.91316(11)
C64_4 C 0.9413(3) 0.25128(17) 0.94396(12)
H46_4 H 0.8433 0.2699 0.9169
C65_4 C 0.9455(3) 0.27417(14) 0.97278(11)
C66_4 C 0.9918(3) 0.22460(15) 0.94474(11)
H47_4 H 0.9090 0.2914 0.9740
H48_4 H 0.9862 0.2076 0.9273
N6_4 N 0.3560(8) 0.4907(4) 0.2425(3)
C55_4 C 0.4125(9) 0.4865(7) 0.2450(5)
Se2_4 Se 0.5182(7) 0.4698(3) 0.25072(19)
N15_4 N 0.1440(8) 0.5093(4) 0.2425(3)
C110_4 C 0.0875(9) 0.5135(7) 0.2450(5)
Se4_4 Se 0.9818(7) 0.5302(3) 0.25072(19)
loop_
_geom_bond_atom_site_label_1
_geom_bond_atom_site_label_2
_geom_bond_site_symmetry_1
_geom_bond_site_symmetry_2
C51 C45 1_555 1_555
H31 C45 1_555 1_555
H37 C51 1_555 1_555
C107 C101 1_555 1_555
H72 C101 1_555 1_555
N10 C51 1_555 1_555
H78 C107 1_555 1_555
Fe3 N10 1_555 1_555
C107 N12 1_555 1_555
N12 Fe3 1_555 1_555
Se1 C1 1_555 1_555
C1 N1 1_555 1_555
N1 Fe3 1_555 1_555
Fe3 N2 1_555 1_555
N2 C2 1_555 1_555
C2 H1 1_555 1_555
C3 N2 1_555 1_555
C4 C2 1_555 1_555
C5 C3 1_555 1_555
H2 C3 1_555 1_555
H3 C4 1_555 1_555
C6 C4 1_555 1_555
H4 C5 1_555 1_555
C7 C6 1_555 1_555
H5 C7 1_555 1_555
C8 C7 1_555 1_555
H6 C8 1_555 1_555
C9 C8 1_555 1_555
C10 C9 1_555 1_555
C11 C9 1_555 1_555
H7 C10 1_555 1_555
C12 C10 1_555 1_555
C13 C11 1_555 1_555
H8 C11 1_555 1_555
H9 C12 1_555 1_555
C14 C12 1_555 1_555
H10 C13 1_555 1_555
C15 C14 1_555 1_555
C16 C15 1_555 1_555
C17 C15 1_555 1_555
C18 C15 1_555 1_555
C19 C16 1_555 1_555
C20 C16 1_555 1_555
C21 C17 1_555 1_555
C22 C17 1_555 1_555
C23 C18 1_555 1_555
C24 C18 1_555 1_555
H11 C19 1_555 1_555
C25 C19 1_555 1_555
C26 C20 1_555 1_555
H12 C20 1_555 1_555
C27 C21 1_555 1_555
H13 C21 1_555 1_555
H14 C22 1_555 1_555
C28 C22 1_555 1_555
H15 C23 1_555 1_555
C29 C23 1_555 1_555
C30 C24 1_555 1_555
H16 C24 1_555 1_555
H17 C25 1_555 1_555
C31 C25 1_555 1_555
H18 C26 1_555 1_555
C32 C27 1_555 1_555
H19 C27 1_555 1_555
H20 C28 1_555 1_555
H21 C29 1_555 1_555
C33 C29 1_555 1_555
H22 C30 1_555 1_555
C34 C31 1_555 1_555
C35 C32 1_555 1_555
C36 C33 1_555 1_555
H23 C34 1_555 1_555
C37 C34 1_555 1_555
C38 C35 1_555 1_555
H24 C35 1_555 1_555
H25 C36 1_555 1_555
C39 C36 1_555 1_555
H26 C37 1_555 1_555
C40 C37 1_555 1_555
C41 C38 1_555 1_555
H27 C38 1_555 1_555
H28 C39 1_555 1_555
C42 C39 1_555 1_555
C43 C40 1_555 1_555
C44 C40 1_555 1_555
C46 C41 1_555 1_555
C47 C42 1_555 1_555
C48 C42 1_555 1_555
H29 C43 1_555 1_555
C49 C43 1_555 1_555
H30 C44 1_555 1_555
C50 C44 1_555 1_555
H32 C46 1_555 1_555
C52 C46 1_555 1_555
H33 C47 1_555 1_555
C53 C47 1_555 1_555
H34 C48 1_555 1_555
C54 C48 1_555 1_555
N4 C49 1_555 1_555
H35 C49 1_555 1_555
H36 C50 1_555 1_555
H38 C52 1_555 1_555
N5 C53 1_555 1_555
H39 C53 1_555 1_555
H40 C54 1_555 1_555
Fe2 N4 1_555 1_555
N7 Fe3 1_555 1_555
N8 Fe3 1_555 1_555
C56 N7 1_555 1_555
C57 N8 1_555 1_555
C58 N8 1_555 1_555
Se3 C56 1_555 1_555
C59 C57 1_555 1_555
H41 C57 1_555 1_555
C60 C58 1_555 1_555
H42 C58 1_555 1_555
C61 C59 1_555 1_555
H43 C59 1_555 1_555
H44 C60 1_555 1_555
C62 C61 1_555 1_555
H45 C62 1_555 1_555
C63 C62 1_555 1_555
C64 C63 1_555 1_555
H46 C63 1_555 1_555
C65 C64 1_555 1_555
C66 C64 1_555 1_555
C67 C65 1_555 1_555
H47 C65 1_555 1_555
C68 C66 1_555 1_555
H48 C66 1_555 1_555
C69 C67 1_555 1_555
H50 C68 1_555 1_555
C76 C72 1_555 1_555
C77 C72 1_555 1_555
C82 C76 1_555 1_555
C83 C77 1_555 1_555
H54 C77 1_555 1_555
H59 C82 1_555 1_555
C87 C82 1_555 1_555
H60 C83 1_555 1_555
C90 C87 1_555 1_555
H64 C90 1_555 1_555
C93 C90 1_555 1_555
H67 C93 1_555 1_555
C96 C93 1_555 1_555
C100 C96 1_555 1_555
C106 C100 1_555 1_555
H71 C100 1_555 1_555
H77 C106 1_555 1_555
Fe4 N5 1_555 1_555
N15 Fe4 1_555 1_555
N16 Fe4 1_555 1_555
C110 N15 1_555 1_555
C5 C6 1_555 1_555
C13 C14 1_555 1_555
C26 C31 1_555 1_555
C28 C32 1_555 1_555
C30 C33 1_555 1_555
C50 N4 1_555 1_555
C54 N5 1_555 1_555
C60 C61 1_555 1_555
C68 C69 1_555 1_555
C83 C87 1_555 1_555
C70 C69_2 1_555 1_555
C71 C70 1_555 1_555
C73 C70 1_555 1_555
C74 C71 1_555 1_555
C75 C71 1_555 1_555
C78 C73 1_555 1_555
C79 C73 1_555 1_555
C80 C74 1_555 1_555
H51 C74 1_555 1_555
C81 C75 1_555 1_555
H52 C75 1_555 1_555
C84 C78 1_555 1_555
H55 C78 1_555 1_555
H56 C79 1_555 1_555
C85 C79 1_555 1_555
C86 C80 1_555 1_555
H57 C80 1_555 1_555
H58 C81 1_555 1_555
H61 C84 1_555 1_555
C88 C84 1_555 1_555
H62 C85 1_555 1_555
C89 C86 1_555 1_555
C91 C88 1_555 1_555
C92 C89 1_555 1_555
H63 C89 1_555 1_555
C94 C91 1_555 1_555
H65 C91 1_555 1_555
C95 C92 1_555 1_555
H66 C92 1_555 1_555
C97 C94 1_555 1_555
H68 C94 1_555 1_555
C98 C95 1_555 1_555
C99 C95 1_555 1_555
C102 C97 1_555 1_555
C103 C97 1_555 1_555
C104 C98 1_555 1_555
H69 C98 1_555 1_555
H70 C99 1_555 1_555
C105 C99 1_555 1_555
H73 C102 1_555 1_555
C108 C102 1_555 1_555
H74 C103 1_555 1_555
C109 C103 1_555 1_555
H75 C104 1_555 1_555
N11 C104 1_555 1_555
H76 C105 1_555 1_555
H79 C108 1_555 1_555
N16 C108 1_555 1_555
H80 C109 1_555 1_555
Fe2 N11 1_555 1_555
C81 C86 1_555 1_555
C85 C88 1_555 1_555
C105 N11 1_555 1_555
C109 N16 1_555 1_555
N6 C55 1_555 1_555
C55 Se2 1_555 1_555
N14 Fe4_2 1_555 1_555
N17 Fe4_2 1_555 1_555
N6 Fe4_2 1_555 1_555
Se1_2 C1_2 1_555 1_555
C1_2 N1_2 1_555 1_555
N1_2 Fe1 1_555 1_555
Fe1 N2_2 1_555 1_555
N2_2 C2_2 1_555 1_555
N3 Fe1 1_555 1_555
C2_2 H1_2 1_555 1_555
C3_2 N2_2 1_555 1_555
C4_2 C2_2 1_555 1_555
C5_2 C3_2 1_555 1_555
H2_2 C3_2 1_555 1_555
H3_2 C4_2 1_555 1_555
C6_2 C4_2 1_555 1_555
H4_2 C5_2 1_555 1_555
C7_2 C6_2 1_555 1_555
H5_2 C7_2 1_555 1_555
C8_2 C7_2 1_555 1_555
H6_2 C8_2 1_555 1_555
C9_2 C8_2 1_555 1_555
C10_2 C9_2 1_555 1_555
C11_2 C9_2 1_555 1_555
H7_2 C10_2 1_555 1_555
H8_2 C11_2 1_555 1_555
N7_2 Fe1 1_555 1_555
N8_2 Fe1 1_555 1_555
N9 Fe1 1_555 1_555
C56_2 N7_2 1_555 1_555
C57_2 N8_2 1_555 1_555
C58_2 N8_2 1_555 1_555
Se3_2 C56_2 1_555 1_555
C59_2 C57_2 1_555 1_555
H41_2 C57_2 1_555 1_555
C60_2 C58_2 1_555 1_555
H42_2 C58_2 1_555 1_555
C61_2 C59_2 1_555 1_555
H43_2 C59_2 1_555 1_555
H44_2 C60_2 1_555 1_555
C62_2 C61_2 1_555 1_555
H45_2 C62_2 1_555 1_555
C63_2 C62_2 1_555 1_555
C64_2 C63_2 1_555 1_555
H46_2 C63_2 1_555 1_555
C65_2 C64_2 1_555 1_555
C66_2 C64_2 1_555 1_555
H47_2 C65_2 1_555 1_555
H48_2 C66_2 1_555 1_555
C5_2 C6_2 1_555 1_555
C60_2 C61_2 1_555 1_555
H9_2 C12_2 1_555 1_555
C14_2 C12_2 1_555 1_555
H10_2 C13_2 1_555 1_555
C15_2 C14_2 1_555 1_555
C16_2 C15_2 1_555 1_555
C17_2 C15_2 1_555 1_555
C18_2 C15_2 1_555 1_555
C19_2 C16_2 1_555 1_555
C20_2 C16_2 1_555 1_555
C21_2 C17_2 1_555 1_555
C22_2 C17_2 1_555 1_555
C23_2 C18_2 1_555 1_555
C24_2 C18_2 1_555 1_555
H11_2 C19_2 1_555 1_555
C25_2 C19_2 1_555 1_555
C26_2 C20_2 1_555 1_555
H12_2 C20_2 1_555 1_555
C27_2 C21_2 1_555 1_555
H13_2 C21_2 1_555 1_555
H14_2 C22_2 1_555 1_555
C28_2 C22_2 1_555 1_555
H15_2 C23_2 1_555 1_555
C29_2 C23_2 1_555 1_555
C30_2 C24_2 1_555 1_555
H16_2 C24_2 1_555 1_555
H17_2 C25_2 1_555 1_555
C31_2 C25_2 1_555 1_555
H18_2 C26_2 1_555 1_555
C32_2 C27_2 1_555 1_555
H19_2 C27_2 1_555 1_555
H20_2 C28_2 1_555 1_555
H21_2 C29_2 1_555 1_555
C33_2 C29_2 1_555 1_555
H22_2 C30_2 1_555 1_555
C34_2 C31_2 1_555 1_555
C35_2 C32_2 1_555 1_555
C36_2 C33_2 1_555 1_555
H23_2 C34_2 1_555 1_555
C37_2 C34_2 1_555 1_555
C38_2 C35_2 1_555 1_555
H24_2 C35_2 1_555 1_555
H25_2 C36_2 1_555 1_555
C39_2 C36_2 1_555 1_555
H26_2 C37_2 1_555 1_555
C40_2 C37_2 1_555 1_555
C41_2 C38_2 1_555 1_555
H27_2 C38_2 1_555 1_555
H28_2 C39_2 1_555 1_555
C42_2 C39_2 1_555 1_555
C43_2 C40_2 1_555 1_555
C44_2 C40_2 1_555 1_555
C45_2 C41_2 1_555 1_555
C46_2 C41_2 1_555 1_555
C47_2 C42_2 1_555 1_555
C48_2 C42_2 1_555 1_555
H29_2 C43_2 1_555 1_555
C49_2 C43_2 1_555 1_555
H30_2 C44_2 1_555 1_555
C50_2 C44_2 1_555 1_555
C51_2 C45_2 1_555 1_555
H31_2 C45_2 1_555 1_555
H32_2 C46_2 1_555 1_555
C52_2 C46_2 1_555 1_555
H33_2 C47_2 1_555 1_555
C53_2 C47_2 1_555 1_555
H34_2 C48_2 1_555 1_555
C54_2 C48_2 1_555 1_555
N4_2 C49_2 1_555 1_555
H35_2 C49_2 1_555 1_555
H36_2 C50_2 1_555 1_555
H37_2 C51_2 1_555 1_555
H38_2 C52_2 1_555 1_555
N14 C53_2 1_555 1_555
H39_2 C53_2 1_555 1_555
H40_2 C54_2 1_555 1_555
Fe2 N4_2 1_555 1_555
C69_3 C67_2 1_555 1_555
H50_2 C68_2 1_555 1_555
C76_2 C72_2 1_555 1_555
C77_2 C72_2 1_555 1_555
C82_2 C76_2 1_555 1_555
C83_2 C77_2 1_555 1_555
H54_2 C77_2 1_555 1_555
H59_2 C82_2 1_555 1_555
C87_2 C82_2 1_555 1_555
H60_2 C83_2 1_555 1_555
C90_2 C87_2 1_555 1_555
H64_2 C90_2 1_555 1_555
C93_2 C90_2 1_555 1_555
H67_2 C93_2 1_555 1_555
C96_2 C93_2 1_555 1_555
C100_2 C96_2 1_555 1_555
C101_2 C96_2 1_555 1_555
C106_2 C100_2 1_555 1_555
H71_2 C100_2 1_555 1_555
C107_2 C101_2 1_555 1_555
H72_2 C101_2 1_555 1_555
N3 C51_2 1_555 1_555
H77_2 C106_2 1_555 1_555
N9 C106_2 1_555 1_555
H78_2 C107_2 1_555 1_555
C13_2 C14_2 1_555 1_555
C26_2 C31_2 1_555 1_555
C28_2 C32_2 1_555 1_555
C30_2 C33_2 1_555 1_555
C50_2 N4_2 1_555 1_555
C52_2 N3 1_555 1_555
C54_2 N14 1_555 1_555
C68_2 C69_3 1_555 1_555
C83_2 C87_2 1_555 1_555
C107_2 N9 1_555 1_555
C70_2 C69_4 1_555 1_555
C71_2 C70_2 1_555 1_555
C73_2 C70_2 1_555 1_555
C74_2 C71_2 1_555 1_555
C75_2 C71_2 1_555 1_555
C78_2 C73_2 1_555 1_555
C79_2 C73_2 1_555 1_555
C80_2 C74_2 1_555 1_555
H51_2 C74_2 1_555 1_555
C81_2 C75_2 1_555 1_555
H52_2 C75_2 1_555 1_555
C84_2 C78_2 1_555 1_555
H55_2 C78_2 1_555 1_555
H56_2 C79_2 1_555 1_555
C85_2 C79_2 1_555 1_555
C86_2 C80_2 1_555 1_555
H57_2 C80_2 1_555 1_555
H58_2 C81_2 1_555 1_555
H61_2 C84_2 1_555 1_555
C88_2 C84_2 1_555 1_555
H62_2 C85_2 1_555 1_555
C89_2 C86_2 1_555 1_555
C91_2 C88_2 1_555 1_555
C92_2 C89_2 1_555 1_555
H63_2 C89_2 1_555 1_555
C94_2 C91_2 1_555 1_555
H65_2 C91_2 1_555 1_555
C95_2 C92_2 1_555 1_555
H66_2 C92_2 1_555 1_555
C97_2 C94_2 1_555 1_555
H68_2 C94_2 1_555 1_555
C98_2 C95_2 1_555 1_555
C99_2 C95_2 1_555 1_555
C102_2 C97_2 1_555 1_555
C103_2 C97_2 1_555 1_555
C104_2 C98_2 1_555 1_555
H69_2 C98_2 1_555 1_555
H70_2 C99_2 1_555 1_555
C105_2 C99_2 1_555 1_555
H73_2 C102_2 1_555 1_555
C108_2 C102_2 1_555 1_555
H74_2 C103_2 1_555 1_555
C109_2 C103_2 1_555 1_555
H75_2 C104_2 1_555 1_555
N11_2 C104_2 1_555 1_555
H76_2 C105_2 1_555 1_555
H79_2 C108_2 1_555 1_555
N17 C108_2 1_555 1_555
H80_2 C109_2 1_555 1_555
Fe2 N11_2 1_555 1_555
C81_2 C86_2 1_555 1_555
C85_2 C88_2 1_555 1_555
C105_2 N11_2 1_555 1_555
C109_2 N17 1_555 1_555
N6_2 C55_2 1_555 1_555
C55_2 Se2_2 1_555 1_555
N15_2 Fe2 1_555 1_555
C110_2 N15_2 1_555 1_555
N6_2 Fe2 1_555 1_555
N6_3 C55_3 1_555 1_555
C55_3 Se2_3 1_555 1_555
N14_2 Fe6 1_555 1_555
N17_2 Fe6 1_555 1_555
N6_3 Fe6 1_555 1_555
C70_3 C69_5 1_555 1_555
C71_3 C70_3 1_555 1_555
C73_3 C70_3 1_555 1_555
C74_3 C71_3 1_555 1_555
C75_3 C71_3 1_555 1_555
C78_3 C73_3 1_555 1_555
C79_3 C73_3 1_555 1_555
C80_3 C74_3 1_555 1_555
H51_3 C74_3 1_555 1_555
C81_3 C75_3 1_555 1_555
H52_3 C75_3 1_555 1_555
C84_3 C78_3 1_555 1_555
H55_3 C78_3 1_555 1_555
H56_3 C79_3 1_555 1_555
C85_3 C79_3 1_555 1_555
C86_3 C80_3 1_555 1_555
H57_3 C80_3 1_555 1_555
H58_3 C81_3 1_555 1_555
H61_3 C84_3 1_555 1_555
C88_3 C84_3 1_555 1_555
H62_3 C85_3 1_555 1_555
C89_3 C86_3 1_555 1_555
C91_3 C88_3 1_555 1_555
C92_3 C89_3 1_555 1_555
H63_3 C89_3 1_555 1_555
C94_3 C91_3 1_555 1_555
H65_3 C91_3 1_555 1_555
C95_3 C92_3 1_555 1_555
H66_3 C92_3 1_555 1_555
C97_3 C94_3 1_555 1_555
H68_3 C94_3 1_555 1_555
C98_3 C95_3 1_555 1_555
C99_3 C95_3 1_555 1_555
C102_3 C97_3 1_555 1_555
C103_3 C97_3 1_555 1_555
C104_3 C98_3 1_555 1_555
H69_3 C98_3 1_555 1_555
H70_3 C99_3 1_555 1_555
C105_3 C99_3 1_555 1_555
H73_3 C102_3 1_555 1_555
C108_3 C102_3 1_555 1_555
H74_3 C103_3 1_555 1_555
C109_3 C103_3 1_555 1_555
H75_3 C104_3 1_555 1_555
N11_3 C104_3 1_555 1_555
H76_3 C105_3 1_555 1_555
H79_3 C108_3 1_555 1_555
N13 C108_3 1_555 1_555
H80_3 C109_3 1_555 1_555
Fe5 N11_3 1_555 1_555
Fe6_2 N13 1_555 1_555
C81_3 C86_3 1_555 1_555
C85_3 C88_3 1_555 1_555
C105_3 N11_3 1_555 1_555
C109_3 N13 1_555 1_555
Se1_3 C1_3 1_555 1_555
C1_3 N1_3 1_555 1_555
N1_3 Fe1_2 1_555 1_555
Fe1_2 N2_3 1_555 1_555
N2_3 C2_3 1_555 1_555
N3_2 Fe1_2 1_555 1_555
C2_3 H1_3 1_555 1_555
C3_3 N2_3 1_555 1_555
C4_3 C2_3 1_555 1_555
C5_3 C3_3 1_555 1_555
H2_3 C3_3 1_555 1_555
H3_3 C4_3 1_555 1_555
C6_3 C4_3 1_555 1_555
H4_3 C5_3 1_555 1_555
C7_3 C6_3 1_555 1_555
H5_3 C7_3 1_555 1_555
C8_3 C7_3 1_555 1_555
H6_3 C8_3 1_555 1_555
C9_3 C8_3 1_555 1_555
C10_3 C9_3 1_555 1_555
C11_3 C9_3 1_555 1_555
H7_3 C10_3 1_555 1_555
C12_3 C10_3 1_555 1_555
C13_3 C11_3 1_555 1_555
H8_3 C11_3 1_555 1_555
H9_3 C12_3 1_555 1_555
C14_3 C12_3 1_555 1_555
H10_3 C13_3 1_555 1_555
C15_3 C14_3 1_555 1_555
C16_3 C15_3 1_555 1_555
C17_3 C15_3 1_555 1_555
C18_3 C15_3 1_555 1_555
C19_3 C16_3 1_555 1_555
C20_3 C16_3 1_555 1_555
C21_3 C17_3 1_555 1_555
C22_3 C17_3 1_555 1_555
C23_3 C18_3 1_555 1_555
C24_3 C18_3 1_555 1_555
H11_3 C19_3 1_555 1_555
C25_3 C19_3 1_555 1_555
C26_3 C20_3 1_555 1_555
H12_3 C20_3 1_555 1_555
C27_3 C21_3 1_555 1_555
H13_3 C21_3 1_555 1_555
H14_3 C22_3 1_555 1_555
C28_3 C22_3 1_555 1_555
H15_3 C23_3 1_555 1_555
C29_3 C23_3 1_555 1_555
C30_3 C24_3 1_555 1_555
H16_3 C24_3 1_555 1_555
H17_3 C25_3 1_555 1_555
C31_3 C25_3 1_555 1_555
H18_3 C26_3 1_555 1_555
C32_3 C27_3 1_555 1_555
H19_3 C27_3 1_555 1_555
H20_3 C28_3 1_555 1_555
H21_3 C29_3 1_555 1_555
C33_3 C29_3 1_555 1_555
H22_3 C30_3 1_555 1_555
C34_3 C31_3 1_555 1_555
C35_3 C32_3 1_555 1_555
C36_3 C33_3 1_555 1_555
H23_3 C34_3 1_555 1_555
C37_3 C34_3 1_555 1_555
C38_3 C35_3 1_555 1_555
H24_3 C35_3 1_555 1_555
H25_3 C36_3 1_555 1_555
C39_3 C36_3 1_555 1_555
H26_3 C37_3 1_555 1_555
C40_3 C37_3 1_555 1_555
C41_3 C38_3 1_555 1_555
H27_3 C38_3 1_555 1_555
H28_3 C39_3 1_555 1_555
C42_3 C39_3 1_555 1_555
C43_3 C40_3 1_555 1_555
C44_3 C40_3 1_555 1_555
C46_3 C41_3 1_555 1_555
C47_3 C42_3 1_555 1_555
C48_3 C42_3 1_555 1_555
H29_3 C43_3 1_555 1_555
C49_3 C43_3 1_555 1_555
H30_3 C44_3 1_555 1_555
C50_3 C44_3 1_555 1_555
H32_3 C46_3 1_555 1_555
C52_3 C46_3 1_555 1_555
H33_3 C47_3 1_555 1_555
C53_3 C47_3 1_555 1_555
H34_3 C48_3 1_555 1_555
C54_3 C48_3 1_555 1_555
N4_3 C49_3 1_555 1_555
H35_3 C49_3 1_555 1_555
H36_3 C50_3 1_555 1_555
H38_3 C52_3 1_555 1_555
N5_2 C53_3 1_555 1_555
H39_3 C53_3 1_555 1_555
H40_3 C54_3 1_555 1_555
Fe5 N4_3 1_555 1_555
N7_3 Fe1_2 1_555 1_555
N8_3 Fe1_2 1_555 1_555
N9_2 Fe1_2 1_555 1_555
C56_3 N7_3 1_555 1_555
C57_3 N8_3 1_555 1_555
C58_3 N8_3 1_555 1_555
Se3_3 C56_3 1_555 1_555
C59_3 C57_3 1_555 1_555
H41_3 C57_3 1_555 1_555
C60_3 C58_3 1_555 1_555
H42_3 C58_3 1_555 1_555
C61_3 C59_3 1_555 1_555
H43_3 C59_3 1_555 1_555
H44_3 C60_3 1_555 1_555
C62_3 C61_3 1_555 1_555
H45_3 C62_3 1_555 1_555
C63_3 C62_3 1_555 1_555
C64_3 C63_3 1_555 1_555
H46_3 C63_3 1_555 1_555
C65_3 C64_3 1_555 1_555
C66_3 C64_3 1_555 1_555
C67_3 C65_3 1_555 1_555
H47_3 C65_3 1_555 1_555
C68_3 C66_3 1_555 1_555
H48_3 C66_3 1_555 1_555
C69_6 C67_3 1_555 1_555
H50_3 C68_3 1_555 1_555
C76_3 C72_3 1_555 1_555
C77_3 C72_3 1_555 1_555
C82_3 C76_3 1_555 1_555
C83_3 C77_3 1_555 1_555
H54_3 C77_3 1_555 1_555
H59_3 C82_3 1_555 1_555
C87_3 C82_3 1_555 1_555
H60_3 C83_3 1_555 1_555
C90_3 C87_3 1_555 1_555
H64_3 C90_3 1_555 1_555
C93_3 C90_3 1_555 1_555
H67_3 C93_3 1_555 1_555
C96_3 C93_3 1_555 1_555
C100_3 C96_3 1_555 1_555
C106_3 C100_3 1_555 1_555
H71_3 C100_3 1_555 1_555
H77_3 C106_3 1_555 1_555
Fe6_2 N5_2 1_555 1_555
N15_3 Fe6_2 1_555 1_555
C110_3 N15_3 1_555 1_555
C5_3 C6_3 1_555 1_555
C13_3 C14_3 1_555 1_555
C26_3 C31_3 1_555 1_555
C28_3 C32_3 1_555 1_555
C30_3 C33_3 1_555 1_555
C50_3 N4_3 1_555 1_555
C54_3 N5_2 1_555 1_555
C60_3 C61_3 1_555 1_555
C68_3 C69_6 1_555 1_555
C83_3 C87_3 1_555 1_555
C51_3 C45_3 1_555 1_555
H31_3 C45_3 1_555 1_555
H37_3 C51_3 1_555 1_555
C107_3 C101_3 1_555 1_555
H72_3 C101_3 1_555 1_555
N3_2 C51_3 1_555 1_555
H78_3 C107_3 1_555 1_555
C107_3 N9_2 1_555 1_555
C70_4 C69_7 1_555 1_555
C71_4 C70_4 1_555 1_555
C73_4 C70_4 1_555 1_555
C74_4 C71_4 1_555 1_555
C75_4 C71_4 1_555 1_555
C78_4 C73_4 1_555 1_555
C79_4 C73_4 1_555 1_555
C80_4 C74_4 1_555 1_555
H51_4 C74_4 1_555 1_555
C81_4 C75_4 1_555 1_555
H52_4 C75_4 1_555 1_555
C84_4 C78_4 1_555 1_555
H55_4 C78_4 1_555 1_555
H56_4 C79_4 1_555 1_555
C85_4 C79_4 1_555 1_555
C86_4 C80_4 1_555 1_555
H57_4 C80_4 1_555 1_555
H58_4 C81_4 1_555 1_555
H61_4 C84_4 1_555 1_555
C88_4 C84_4 1_555 1_555
H62_4 C85_4 1_555 1_555
C89_4 C86_4 1_555 1_555
C91_4 C88_4 1_555 1_555
C92_4 C89_4 1_555 1_555
H63_4 C89_4 1_555 1_555
C94_4 C91_4 1_555 1_555
H65_4 C91_4 1_555 1_555
C95_4 C92_4 1_555 1_555
H66_4 C92_4 1_555 1_555
C97_4 C94_4 1_555 1_555
H68_4 C94_4 1_555 1_555
C98_4 C95_4 1_555 1_555
C99_4 C95_4 1_555 1_555
C102_4 C97_4 1_555 1_555
C103_4 C97_4 1_555 1_555
C104_4 C98_4 1_555 1_555
H69_4 C98_4 1_555 1_555
H70_4 C99_4 1_555 1_555
C105_4 C99_4 1_555 1_555
H73_4 C102_4 1_555 1_555
C108_4 C102_4 1_555 1_555
H74_4 C103_4 1_555 1_555
C109_4 C103_4 1_555 1_555
H75_4 C104_4 1_555 1_555
N11_4 C104_4 1_555 1_555
H76_4 C105_4 1_555 1_555
H79_4 C108_4 1_555 1_555
N17_2 C108_4 1_555 1_555
H80_4 C109_4 1_555 1_555
Fe5 N11_4 1_555 1_555
C81_4 C86_4 1_555 1_555
C85_4 C88_4 1_555 1_555
C105_4 N11_4 1_555 1_555
C109_4 N17_2 1_555 1_555
H9_4 C12_4 1_555 1_555
C14_4 C12_4 1_555 1_555
H10_4 C13_4 1_555 1_555
C15_4 C14_4 1_555 1_555
C16_4 C15_4 1_555 1_555
C17_4 C15_4 1_555 1_555
C18_4 C15_4 1_555 1_555
C19_4 C16_4 1_555 1_555
C20_4 C16_4 1_555 1_555
C21_4 C17_4 1_555 1_555
C22_4 C17_4 1_555 1_555
C23_4 C18_4 1_555 1_555
C24_4 C18_4 1_555 1_555
H11_4 C19_4 1_555 1_555
C25_4 C19_4 1_555 1_555
C26_4 C20_4 1_555 1_555
H12_4 C20_4 1_555 1_555
C27_4 C21_4 1_555 1_555
H13_4 C21_4 1_555 1_555
H14_4 C22_4 1_555 1_555
C28_4 C22_4 1_555 1_555
H15_4 C23_4 1_555 1_555
C29_4 C23_4 1_555 1_555
C30_4 C24_4 1_555 1_555
H16_4 C24_4 1_555 1_555
H17_4 C25_4 1_555 1_555
C31_4 C25_4 1_555 1_555
H18_4 C26_4 1_555 1_555
C32_4 C27_4 1_555 1_555
H19_4 C27_4 1_555 1_555
H20_4 C28_4 1_555 1_555
H21_4 C29_4 1_555 1_555
C33_4 C29_4 1_555 1_555
H22_4 C30_4 1_555 1_555
C34_4 C31_4 1_555 1_555
C35_4 C32_4 1_555 1_555
C36_4 C33_4 1_555 1_555
H23_4 C34_4 1_555 1_555
C37_4 C34_4 1_555 1_555
C38_4 C35_4 1_555 1_555
H24_4 C35_4 1_555 1_555
H25_4 C36_4 1_555 1_555
C39_4 C36_4 1_555 1_555
H26_4 C37_4 1_555 1_555
C40_4 C37_4 1_555 1_555
C41_4 C38_4 1_555 1_555
H27_4 C38_4 1_555 1_555
H28_4 C39_4 1_555 1_555
C42_4 C39_4 1_555 1_555
C43_4 C40_4 1_555 1_555
C44_4 C40_4 1_555 1_555
C45_4 C41_4 1_555 1_555
C46_4 C41_4 1_555 1_555
C47_4 C42_4 1_555 1_555
C48_4 C42_4 1_555 1_555
H29_4 C43_4 1_555 1_555
C49_4 C43_4 1_555 1_555
H30_4 C44_4 1_555 1_555
C50_4 C44_4 1_555 1_555
C51_4 C45_4 1_555 1_555
H31_4 C45_4 1_555 1_555
H32_4 C46_4 1_555 1_555
C52_4 C46_4 1_555 1_555
H33_4 C47_4 1_555 1_555
C53_4 C47_4 1_555 1_555
H34_4 C48_4 1_555 1_555
C54_4 C48_4 1_555 1_555
N4_4 C49_4 1_555 1_555
H35_4 C49_4 1_555 1_555
H36_4 C50_4 1_555 1_555
H37_4 C51_4 1_555 1_555
H38_4 C52_4 1_555 1_555
N14_2 C53_4 1_555 1_555
H39_4 C53_4 1_555 1_555
H40_4 C54_4 1_555 1_555
Fe5 N4_4 1_555 1_555
C69_8 C67_4 1_555 1_555
H50_4 C68_4 1_555 1_555
C76_4 C72_4 1_555 1_555
C77_4 C72_4 1_555 1_555
C82_4 C76_4 1_555 1_555
C83_4 C77_4 1_555 1_555
H54_4 C77_4 1_555 1_555
H59_4 C82_4 1_555 1_555
C87_4 C82_4 1_555 1_555
H60_4 C83_4 1_555 1_555
C90_4 C87_4 1_555 1_555
H64_4 C90_4 1_555 1_555
C93_4 C90_4 1_555 1_555
H67_4 C93_4 1_555 1_555
C96_4 C93_4 1_555 1_555
C100_4 C96_4 1_555 1_555
C101_4 C96_4 1_555 1_555
C106_4 C100_4 1_555 1_555
H71_4 C100_4 1_555 1_555
C107_4 C101_4 1_555 1_555
H72_4 C101_4 1_555 1_555
N10_2 C51_4 1_555 1_555
H77_4 C106_4 1_555 1_555
N12_2 C106_4 1_555 1_555
H78_4 C107_4 1_555 1_555
Fe3_2 N10_2 1_555 1_555
C13_4 C14_4 1_555 1_555
C26_4 C31_4 1_555 1_555
C28_4 C32_4 1_555 1_555
C30_4 C33_4 1_555 1_555
C50_4 N4_4 1_555 1_555
C52_4 N10_2 1_555 1_555
C54_4 N14_2 1_555 1_555
C68_4 C69_8 1_555 1_555
C83_4 C87_4 1_555 1_555
C107_4 N12_2 1_555 1_555
N12_2 Fe3_2 1_555 1_555
Se1_4 C1_4 1_555 1_555
C1_4 N1_4 1_555 1_555
N1_4 Fe3_2 1_555 1_555
Fe3_2 N2_4 1_555 1_555
N2_4 C2_4 1_555 1_555
C2_4 H1_4 1_555 1_555
C3_4 N2_4 1_555 1_555
C4_4 C2_4 1_555 1_555
C5_4 C3_4 1_555 1_555
H2_4 C3_4 1_555 1_555
H3_4 C4_4 1_555 1_555
C6_4 C4_4 1_555 1_555
H4_4 C5_4 1_555 1_555
C7_4 C6_4 1_555 1_555
H5_4 C7_4 1_555 1_555
C8_4 C7_4 1_555 1_555
H6_4 C8_4 1_555 1_555
C9_4 C8_4 1_555 1_555
C10_4 C9_4 1_555 1_555
C11_4 C9_4 1_555 1_555
H7_4 C10_4 1_555 1_555
H8_4 C11_4 1_555 1_555
N7_4 Fe3_2 1_555 1_555
N8_4 Fe3_2 1_555 1_555
C56_4 N7_4 1_555 1_555
C57_4 N8_4 1_555 1_555
C58_4 N8_4 1_555 1_555
Se3_4 C56_4 1_555 1_555
C59_4 C57_4 1_555 1_555
H41_4 C57_4 1_555 1_555
C60_4 C58_4 1_555 1_555
H42_4 C58_4 1_555 1_555
C61_4 C59_4 1_555 1_555
H43_4 C59_4 1_555 1_555
H44_4 C60_4 1_555 1_555
C62_4 C61_4 1_555 1_555
H45_4 C62_4 1_555 1_555
C63_4 C62_4 1_555 1_555
C64_4 C63_4 1_555 1_555
H46_4 C63_4 1_555 1_555
C65_4 C64_4 1_555 1_555
C66_4 C64_4 1_555 1_555
H47_4 C65_4 1_555 1_555
H48_4 C66_4 1_555 1_555
C5_4 C6_4 1_555 1_555
C60_4 C61_4 1_555 1_555
N6_4 C55_4 1_555 1_555
C55_4 Se2_4 1_555 1_555
N15_4 Fe5 1_555 1_555
C110_4 N15_4 1_555 1_555
N6_4 Fe5 1_555 1_555

#END
