
###############################################################################
#
# This file contains modified crystal structure data generated from the
# MOF subset of the Cambridge Structural Database (CSD) v543 
# hosted by the Cambridge Crystallographic Data Centre (CCDC).
#
# This work is licensed under the Creative Commons
# Attribution-NonCommercial-ShareAlike 4.0 International License.
# To view a copy of this license, visit
# http://creativecommons.org/licenses/by-nc-sa/4.0/
# or send a letter to
# Creative Commons, PO Box 1866, Mountain View, CA 94042, USA.
#
# CIF created using the CSD Python API on 29 September 2022
# The structure has been converted into the P1 space group
# The structure has a 3D framework
# The original CSD entry POBNEA is in the hexagonal crystal system
# The framework has been calculated to contain at least 10.0% void space
# The void calculation uses a probe of radius 1.32A, grid spacing 0.4
# The framework is charged, counterions have been retained in the structure
# H atom positions have been added when not included in the experimental data
# Generated hydrogen atom positions removed from atoms on special positions
#
###############################################################################

data_POBNEA
_chemical_formula_moiety         '(C60 H96 Co4 Li26 N12 O48 7+)n'
_symmetry_cell_setting           triclinic
_symmetry_space_group_name_H-M   'P 1'
_symmetry_Int_Tables_number      1
_space_group_name_Hall           'P 1'
loop_
_symmetry_equiv_pos_site_id
_symmetry_equiv_pos_as_xyz
1 x,y,z
_cell_length_a                   18.6580(16)
_cell_length_b                   18.6580(16)
_cell_length_c                   14.8400(12)
_cell_angle_alpha                90
_cell_angle_beta                 90
_cell_angle_gamma                120
_cell_volume                     4473.99
loop_
_atom_site_label
_atom_site_type_symbol
_atom_site_fract_x
_atom_site_fract_y
_atom_site_fract_z
Li3 Li 0.5000 0.0000 0.0000
Li4 Li 0.5000 -0.0000 0.5000
O20 O 0.5907(5) 0.0975(8) 0.0696(6)
O29 O 0.3897(15) 0.0138(21) 0.0995(16)
Li3_2 Li 0.5000 -0.0000 1.0000
O12 O 0.5058(5) 0.0851(7) 0.9179(5)
H19 H 0.626909 0.0250971 0.848819
Co1 Co 0.3333 0.6667 0.01918(12)
Li1 Li 0.5000 0.5000 0.0000
N1 N 0.3444(4) 0.5734(4) 0.0868(4)
O1 O 0.4207(5) 0.5058(5) 0.0821(5)
C1 C 0.3044(5) 0.5351(5) 0.1682(5)
C2 C 0.3465(7) 0.5666(7) 0.2500
C3 C 0.2232(6) 0.4700(6) 0.1693(6)
C4 C 0.1843(9) 0.4387(9) 0.2500
C5 C 0.3980(5) 0.5565(5) 0.0530(6)
O4 O 0.6241(14) 0.6103(15) 0.0995(16)
Co2 Co 0.3333 0.6667 0.48082(12)
Li2 Li 0.5000 0.5000 0.5000
Li3_3 Li 0.5000 1.0000 0.0000
Li4_2 Li 0.5000 1.0000 0.5000
Li5 Li -0.0000 0.5000 0.0000
Li6 Li -0.0000 0.5000 0.5000
N2 N 0.3444(4) 0.5734(4) 0.4132(4)
N3 N 0.4266(4) 0.7710(6) 0.0868(4)
N4 N 0.4266(4) 0.7710(6) 0.4132(4)
N5 N 0.2290(6) 0.6556(4) 0.0868(4)
N6 N 0.2290(6) 0.6556(4) 0.4132(4)
O5 O 0.4207(5) 0.5058(5) 0.4179(5)
O6 O 0.4942(5) 0.9149(7) 0.0821(5)
O7 O 0.4942(5) 0.9149(7) 0.4179(5)
O8 O 0.0851(7) 0.5793(5) 0.0821(5)
O9 O 0.0851(7) 0.5793(5) 0.4179(5)
O11 O 0.5793(5) 0.4942(5) 0.5821(5)
O13 O 0.4932(6) 0.5907(5) 0.5696(6)
O15 O 0.4093(5) 0.9025(8) 0.5696(6)
O17 O 0.0975(8) 0.5068(6) 0.5696(6)
O18 O 0.5068(6) 0.4093(5) 0.0696(6)
O19 O 0.5068(6) 0.4093(5) 0.4304(6)
O21 O 0.4199(4) 0.6539(4) 0.5637(4)
O23 O 0.3461(4) 0.7660(6) 0.5637(4)
O25 O 0.2340(6) 0.5801(4) 0.5637(4)
C7 C 0.3044(5) 0.5351(5) 0.3318(5)
C8 C 0.4649(5) 0.7693(7) 0.1682(5)
C9 C 0.4649(5) 0.7693(7) 0.3318(5)
C10 C 0.2307(7) 0.6956(5) 0.1682(5)
C11 C 0.2307(7) 0.6956(5) 0.3318(5)
C12 C 0.4334(7) 0.7799(10) 0.2500
C13 C 0.2201(10) 0.6535(7) 0.2500
C14 C 0.2232(6) 0.4700(6) 0.3307(6)
C15 C 0.5300(6) 0.7532(8) 0.1693(6)
C16 C 0.5300(6) 0.7532(8) 0.3307(6)
C17 C 0.2468(8) 0.7768(6) 0.1693(6)
C18 C 0.2468(8) 0.7768(6) 0.3307(6)
C19 C 0.5613(9) 0.7456(13) 0.2500
C20 C 0.2544(13) 0.8157(9) 0.2500
C21 C 0.3980(5) 0.5565(5) 0.4470(6)
C22 C 0.4435(5) 0.8415(7) 0.0530(6)
C23 C 0.4435(5) 0.8415(7) 0.4470(6)
C24 C 0.1585(7) 0.6020(5) 0.0530(6)
C25 C 0.1585(7) 0.6020(5) 0.4470(6)
C26 C 0.4384(6) 0.6035(6) 0.5342(6)
C28 C 0.3965(6) 0.8349(8) 0.5342(6)
C30 C 0.1651(8) 0.5616(6) 0.5342(6)
O27 O 0.6241(14) 0.6103(15) 0.4005(16)
O28 O 0.3759(14) 0.3897(15) 0.5995(16)
H1 H 0.120723 0.387544 0.25
H2 H 0.411287 0.615075 0.25
H3 H 0.190588 0.443943 0.106262
H6 H 0.203788 0.588713 0.25
H7 H 0.384925 0.796212 0.25
H8 H 0.266821 0.879277 0.25
H9 H 0.253356 0.809412 0.393738
H10 H 0.556057 0.746644 0.106262
H11 H 0.556057 0.746644 0.393738
H22 H 0.612456 0.733179 0.25
H23 H 0.253356 0.809412 0.106262
H24 H 0.190588 0.443943 0.393738
Li1_2 Li 0.5000 0.5000 1.0000
O2 O 0.4932(6) 0.5907(5) 0.9304(6)
O3 O 0.4199(4) 0.6539(4) 0.9363(4)
C6 C 0.4384(6) 0.6035(6) 0.9658(6)
Li3_4 Li 0.5000 1.0000 1.0000
Li5_2 Li -0.0000 0.5000 1.0000
O10 O 0.5793(5) 0.4942(5) 0.9179(5)
O14 O 0.4093(5) 0.9025(8) 0.9304(6)
O16 O 0.0975(8) 0.5068(6) 0.9304(6)
O22 O 0.3461(4) 0.7660(6) 0.9363(4)
O24 O 0.2340(6) 0.5801(4) 0.9363(4)
C27 C 0.3965(6) 0.8349(8) 0.9658(6)
C29 C 0.1651(8) 0.5616(6) 0.9658(6)
O26 O 0.3759(14) 0.3897(15) 0.9005(16)
O30 O 0.6103(15) 0.9862(21) 0.9005(16)
Li5_3 Li 1.0000 0.5000 0.0000
Li6_2 Li 1.0000 0.5000 0.5000
Li5_4 Li 1.0000 0.5000 1.0000
O11_2 O 0.5058(5) 0.0851(7) 0.5821(5)
O19_2 O 0.5907(5) 0.0975(8) 0.4304(6)
O27_2 O 0.3897(15) 0.0138(21) 0.4005(16)
H21 H 0.626909 0.0250971 0.651181
O28_2 O 0.6103(15) 0.9862(21) 0.5995(16)
H12 H 0.337472 0.959685 0.398469
O30_2 O 0.0138(21) 0.6241(26) 0.9005(16)
O20_2 O 0.9025(8) 0.4932(9) 0.0696(6)
O29_2 O 0.9862(21) 0.3759(26) 0.0995(16)
O12_2 O 0.9149(7) 0.4207(9) 0.9179(5)
H19_2 H 0.974903 0.601812 0.848819
O28_3 O 0.0138(21) 0.6241(14) 0.5995(16)
H12_2 H 0.0403149 0.377787 0.398469
O11_3 O 0.9149(7) 0.4207(5) 0.5821(5)
O19_3 O 0.9025(8) 0.4932(6) 0.4304(6)
O27_3 O 0.9862(21) 0.3759(14) 0.4005(16)
H21_2 H 0.974903 0.601812 0.651181
H21_3 H 0.0250971 0.398188 0.151181
H15 H 0.0250971 0.398188 0.348819
O21_2 O 0.7660(6) 0.4199(4) 0.0637(4)
O23_2 O 0.5801(7) 0.3461(4) 0.0637(4)
O25_2 O 0.6539(7) 0.2340(6) 0.0637(4)
C26_2 C 0.8349(8) 0.4384(6) 0.0342(6)
C28_2 C 0.5616(10) 0.3965(6) 0.0342(6)
C30_2 C 0.6035(10) 0.1651(8) 0.0342(6)
Co1_2 Co 0.6666 0.3333 0.51918(12)
N1_2 N 0.7710(6) 0.3444(4) 0.5868(4)
O3_2 O 0.7660(6) 0.4199(4) 0.4363(4)
C1_2 C 0.7693(7) 0.3044(5) 0.6682(5)
C2_2 C 0.7799(10) 0.3465(7) 0.7500
C3_2 C 0.7532(8) 0.2232(6) 0.6693(6)
C4_2 C 0.7456(13) 0.1843(9) 0.7500
C5_2 C 0.8415(7) 0.3980(5) 0.5530(6)
C6_2 C 0.8349(8) 0.4384(6) 0.4658(6)
Co2_2 Co 0.6666 0.3333 0.98082(12)
N2_2 N 0.7710(6) 0.3444(4) 0.9132(4)
N3_2 N 0.6556(7) 0.4266(4) 0.5868(4)
N4_2 N 0.6556(7) 0.4266(4) 0.9132(4)
N5_2 N 0.5734(7) 0.2290(6) 0.5868(4)
N6_2 N 0.5734(7) 0.2290(6) 0.9132(4)
O22_2 O 0.5801(7) 0.3461(4) 0.4363(4)
O24_2 O 0.6539(7) 0.2340(6) 0.4363(4)
C7_2 C 0.7693(7) 0.3044(5) 0.8318(5)
C8_2 C 0.6956(9) 0.4649(5) 0.6682(5)
C9_2 C 0.6956(9) 0.4649(5) 0.8318(5)
C10_2 C 0.5351(9) 0.2307(7) 0.6682(5)
C11_2 C 0.5351(9) 0.2307(7) 0.8318(5)
C12_2 C 0.6535(12) 0.4334(7) 0.7500
C13_2 C 0.5666(12) 0.2201(10) 0.7500
C14_2 C 0.7532(8) 0.2232(6) 0.8307(6)
C15_2 C 0.7768(10) 0.5300(6) 0.6693(6)
C16_2 C 0.7768(10) 0.5300(6) 0.8307(6)
C17_2 C 0.4700(10) 0.2468(8) 0.6693(6)
C18_2 C 0.4700(10) 0.2468(8) 0.8307(6)
C19_2 C 0.8157(16) 0.5613(9) 0.7500
C20_2 C 0.4387(16) 0.2544(13) 0.7500
C21_2 C 0.8415(7) 0.3980(5) 0.9470(6)
C22_2 C 0.6020(9) 0.4435(5) 0.5530(6)
C23_2 C 0.6020(9) 0.4435(5) 0.9470(6)
C24_2 C 0.5565(9) 0.1585(7) 0.5530(6)
C25_2 C 0.5565(9) 0.1585(7) 0.9470(6)
C27_2 C 0.5616(10) 0.3965(6) 0.4658(6)
C29_2 C 0.6035(10) 0.1651(8) 0.4658(6)
H1_2 H 0.733179 0.120723 0.75
H2_2 H 0.796212 0.411287 0.75
H3_2 H 0.746644 0.190588 0.606262
H6_2 H 0.615075 0.203788 0.75
H7_2 H 0.588713 0.384925 0.75
H8_2 H 0.387544 0.266821 0.75
H9_2 H 0.443943 0.253356 0.893738
H10_2 H 0.809412 0.556057 0.606262
H11_2 H 0.809412 0.556057 0.893738
H12_3 H 0.959685 0.622213 0.898469
H22_2 H 0.879277 0.612456 0.75
H23_2 H 0.443943 0.253356 0.606262
H24_2 H 0.746644 0.190588 0.893738
H12_4 H 0.662528 0.0403149 0.898469
H21_4 H 0.373091 0.974903 0.151181
H15_2 H 0.373091 0.974903 0.348819
H12_5 H 0.662528 0.0403149 0.601531
H12_6 H 0.959685 0.622213 0.601531
H12_7 H 0.0403149 0.377787 0.101531
H12_8 H 0.337472 0.959685 0.101531
Li7 Li 0.445(4) 0.319(4) 0.2500
Li7_2 Li 0.681(4) 0.126(6) 0.2500
Li7_3 Li 0.874(6) 0.555(4) 0.2500
Li7_4 Li 0.126(6) 0.445(4) 0.7500
Li7_5 Li 0.319(4) 0.874(6) 0.7500
Li7_6 Li 0.555(4) 0.681(4) 0.7500
Li8 Li 0.0000 -0.0000 0.2500
Li8_2 Li -0.0000 1.0000 0.2500
Li8_3 Li 1.0000 -0.0000 0.2500
Li8_4 Li 1.0000 1.0000 0.2500
Li8_5 Li 0.0000 -0.0000 0.7500
Li8_6 Li -0.0000 1.0000 0.7500
Li8_7 Li 1.0000 -0.0000 0.7500
Li8_8 Li 1.0000 1.0000 0.7500
loop_
_geom_bond_atom_site_label_1
_geom_bond_atom_site_label_2
_geom_bond_site_symmetry_1
_geom_bond_site_symmetry_2
O20 Li3 1_555 1_555
O29 Li3 1_555 1_555
O12 Li3_2 1_555 1_555
Co1 N1 1_555 1_555
Li1 O1 1_555 1_555
N1 C1 1_555 1_555
O1 C5 1_555 1_555
C1 C2 1_555 1_555
C2 C7 1_555 1_555
C3 C1 1_555 1_555
C4 C3 1_555 1_555
C5 N1 1_555 1_555
O4 Li1 1_555 1_555
Co2 N2 1_555 1_555
Li2 O5 1_555 1_555
Li3_3 O6 1_555 1_555
Li4_2 O7 1_555 1_555
Li5 O8 1_555 1_555
Li6 O9 1_555 1_555
N2 C7 1_555 1_555
N3 Co1 1_555 1_555
N4 Co2 1_555 1_555
N5 Co1 1_555 1_555
N6 Co2 1_555 1_555
O5 C21 1_555 1_555
O6 C22 1_555 1_555
O7 C23 1_555 1_555
O8 C24 1_555 1_555
O9 C25 1_555 1_555
O11 Li2 1_555 1_555
O13 Li2 1_555 1_555
O15 Li4_2 1_555 1_555
O17 Li6 1_555 1_555
O18 Li1 1_555 1_555
O19 Li2 1_555 1_555
O21 Co2 1_555 1_555
O23 Co2 1_555 1_555
O25 Co2 1_555 1_555
C7 C14 1_555 1_555
C8 N3 1_555 1_555
C9 N4 1_555 1_555
C10 N5 1_555 1_555
C11 N6 1_555 1_555
C12 C8 1_555 1_555
C13 C10 1_555 1_555
C14 C4 1_555 1_555
C15 C8 1_555 1_555
C16 C9 1_555 1_555
C17 C10 1_555 1_555
C18 C11 1_555 1_555
C19 C15 1_555 1_555
C20 C17 1_555 1_555
C21 N2 1_555 1_555
C22 N3 1_555 1_555
C23 N4 1_555 1_555
C24 N5 1_555 1_555
C25 N6 1_555 1_555
C26 O13 1_555 1_555
C28 O15 1_555 1_555
C30 O17 1_555 1_555
O27 Li2 1_555 1_555
O28 Li2 1_555 1_555
O21 C26 1_555 1_555
O23 C28 1_555 1_555
O25 C30 1_555 1_555
C9 C12 1_555 1_555
C11 C13 1_555 1_555
C16 C19 1_555 1_555
C18 C20 1_555 1_555
C21 C26 1_555 1_555
C23 C28 1_555 1_555
C25 C30 1_555 1_555
C4 H1 1_555 1_555
C2 H2 1_555 1_555
C3 H3 1_555 1_555
C13 H6 1_555 1_555
C12 H7 1_555 1_555
C20 H8 1_555 1_555
C18 H9 1_555 1_555
C15 H10 1_555 1_555
C16 H11 1_555 1_555
C19 H22 1_555 1_555
C17 H23 1_555 1_555
C14 H24 1_555 1_555
O2 Li1_2 1_555 1_555
C6 O2 1_555 1_555
O10 Li1_2 1_555 1_555
O14 Li3_4 1_555 1_555
O16 Li5_2 1_555 1_555
C27 O14 1_555 1_555
C29 O16 1_555 1_555
O26 Li1_2 1_555 1_555
O30 Li3_4 1_555 1_555
O3 C6 1_555 1_555
O22 C27 1_555 1_555
O24 C29 1_555 1_555
O11_2 Li4 1_555 1_555
O19_2 Li4 1_555 1_555
O27_2 Li4 1_555 1_555
O28_2 Li4_2 1_555 1_555
O30_2 Li5_2 1_555 1_555
O20_2 Li5_3 1_555 1_555
O29_2 Li5_3 1_555 1_555
O12_2 Li5_4 1_555 1_555
O28_3 Li6 1_555 1_555
O11_3 Li6_2 1_555 1_555
O19_3 Li6_2 1_555 1_555
O27_3 Li6_2 1_555 1_555
C26_2 O20_2 1_555 1_555
C28_2 O18 1_555 1_555
C30_2 O20 1_555 1_555
O21_2 C26_2 1_555 1_555
O23_2 C28_2 1_555 1_555
O25_2 C30_2 1_555 1_555
Co1_2 N1_2 1_555 1_555
N1_2 C1_2 1_555 1_555
O11_3 C5_2 1_555 1_555
O3_2 Co1_2 1_555 1_555
C1_2 C2_2 1_555 1_555
C2_2 C7_2 1_555 1_555
C3_2 C1_2 1_555 1_555
C4_2 C3_2 1_555 1_555
C5_2 N1_2 1_555 1_555
C6_2 O19_3 1_555 1_555
Co2_2 N2_2 1_555 1_555
N2_2 C7_2 1_555 1_555
N3_2 Co1_2 1_555 1_555
N4_2 Co2_2 1_555 1_555
N5_2 Co1_2 1_555 1_555
N6_2 Co2_2 1_555 1_555
O12_2 C21_2 1_555 1_555
O11 C22_2 1_555 1_555
O10 C23_2 1_555 1_555
O11_2 C24_2 1_555 1_555
O12 C25_2 1_555 1_555
O22_2 Co1_2 1_555 1_555
O24_2 Co1_2 1_555 1_555
C7_2 C14_2 1_555 1_555
C8_2 N3_2 1_555 1_555
C9_2 N4_2 1_555 1_555
C10_2 N5_2 1_555 1_555
C11_2 N6_2 1_555 1_555
C12_2 C8_2 1_555 1_555
C13_2 C10_2 1_555 1_555
C14_2 C4_2 1_555 1_555
C15_2 C8_2 1_555 1_555
C16_2 C9_2 1_555 1_555
C17_2 C10_2 1_555 1_555
C18_2 C11_2 1_555 1_555
C19_2 C15_2 1_555 1_555
C20_2 C17_2 1_555 1_555
C21_2 N2_2 1_555 1_555
C22_2 N3_2 1_555 1_555
C23_2 N4_2 1_555 1_555
C24_2 N5_2 1_555 1_555
C25_2 N6_2 1_555 1_555
C27_2 O19 1_555 1_555
C29_2 O19_2 1_555 1_555
O3_2 C6_2 1_555 1_555
C5_2 C6_2 1_555 1_555
O22_2 C27_2 1_555 1_555
O24_2 C29_2 1_555 1_555
C9_2 C12_2 1_555 1_555
C11_2 C13_2 1_555 1_555
C16_2 C19_2 1_555 1_555
C18_2 C20_2 1_555 1_555
C22_2 C27_2 1_555 1_555
C24_2 C29_2 1_555 1_555
C4_2 H1_2 1_555 1_555
C2_2 H2_2 1_555 1_555
C3_2 H3_2 1_555 1_555
C13_2 H6_2 1_555 1_555
C12_2 H7_2 1_555 1_555
C20_2 H8_2 1_555 1_555
C18_2 H9_2 1_555 1_555
C15_2 H10_2 1_555 1_555
C16_2 H11_2 1_555 1_555
C19_2 H22_2 1_555 1_555
C17_2 H23_2 1_555 1_555
C14_2 H24_2 1_555 1_555

#END
