
###############################################################################
#
# This file contains modified crystal structure data generated from the
# MOF subset of the Cambridge Structural Database (CSD) v543 
# hosted by the Cambridge Crystallographic Data Centre (CCDC).
#
# This work is licensed under the Creative Commons
# Attribution-NonCommercial-ShareAlike 4.0 International License.
# To view a copy of this license, visit
# http://creativecommons.org/licenses/by-nc-sa/4.0/
# or send a letter to
# Creative Commons, PO Box 1866, Mountain View, CA 94042, USA.
#
# CIF created using the CSD Python API on 29 September 2022
# The structure has been converted into the P1 space group
# The structure has a 3D framework
# The original CSD entry POBYAH is in the tetragonal crystal system
# The original CSD entry POBYAH is in a Sohncke space group
# The framework has been calculated to contain at least 10.0% void space
# The void calculation uses a probe of radius 1.32A, grid spacing 0.4
# H atom positions have been added when not included in the experimental data
#
###############################################################################

data_POBYAH
_chemical_formula_moiety         '(C48 H116 N8 Ni24 O188 P4 W36)n'
_symmetry_cell_setting           triclinic
_symmetry_space_group_name_H-M   'P 1'
_symmetry_Int_Tables_number      1
_space_group_name_Hall           'P 1'
loop_
_symmetry_equiv_pos_site_id
_symmetry_equiv_pos_as_xyz
1 x,y,z
_cell_length_a                   15.5419(4)
_cell_length_b                   15.5419(4)
_cell_length_c                   26.4893(13)
_cell_angle_alpha                90
_cell_angle_beta                 90
_cell_angle_gamma                90
_cell_volume                     6398.51
loop_
_atom_site_label
_atom_site_type_symbol
_atom_site_fract_x
_atom_site_fract_y
_atom_site_fract_z
W4 W 0.02040(3) 0.62651(3) 0.645480(16)
O21 O 0.0473(5) 0.3778(6) 0.7458(4)
O25 O 0.0831(5) 0.8554(5) 0.7483(3)
O28 O 0.1131(5) 0.6391(5) 0.6121(3)
O33 O 0.0331(5) 0.7090(6) 0.8021(3)
O37 O 0.0200(5) 0.5922(6) 0.8823(3)
O40 O 0.0372(5) 0.6961(5) 0.7031(3)
O42 O 0.0549(4) 0.5267(5) 0.6878(3)
O53 O 0.0831(5) 0.8379(6) 0.6283(3)
H21 H 0.00101241 0.995993 0.632064
Ni1 Ni 0.62964(8) 0.84501(8) 0.74741(5)
Ni2 Ni 0.80220(8) 0.84440(9) 0.68707(5)
Ni3 Ni 0.65397(8) 0.71260(8) 0.66830(5)
Ni4 Ni 0.95840(9) 0.83675(9) 0.61428(6)
Ni5 Ni 0.81478(8) 0.70523(8) 0.60101(5)
Ni6 Ni 0.41397(8) 0.67190(8) 0.82941(5)
W1 W 0.64017(3) 0.63483(3) 0.793410(15)
W2 W 0.85895(3) 0.48135(3) 0.621150(16)
W3 W 0.98118(3) 0.46072(3) 0.728900(17)
W5 W 0.96190(3) 0.62405(3) 0.831000(18)
W6 W 0.66302(3) 0.48630(3) 0.698930(16)
W7 W 0.78374(3) 0.46844(3) 0.808490(16)
W8 W 0.99623(3) 0.78807(3) 0.745770(17)
W9 W 0.81404(3) 0.79022(3) 0.819560(16)
P1 P 0.83050(16) 0.63892(17) 0.71847(10)
O1 O 0.7647(4) 0.8371(5) 0.7639(3)
O2 O 0.6773(4) 0.8382(4) 0.6775(3)
H1 H 0.6523 0.8772 0.6524
O3 O 0.6358(5) 0.7127(4) 0.7439(3)
O4 O 0.9307(5) 0.8320(5) 0.6956(3)
O5 O 0.8296(4) 0.8325(5) 0.6121(3)
H2 H 0.8002 0.8716 0.5887
O6 O 0.6861(4) 0.7090(4) 0.5970(3)
H3 H 0.6600 0.7517 0.5744
O7 O 0.6462(5) 0.5777(4) 0.6579(3)
O8 O 0.9447(4) 0.7011(5) 0.6174(3)
O9 O 0.4258(4) 0.7997(4) 0.8500(3)
O10 O 0.7905(4) 0.7033(4) 0.6809(3)
O11 O 0.5092(5) 0.8395(5) 0.7156(3)
O12 O 0.5289(5) 0.7349(5) 0.6586(3)
O13 O 0.3853(5) 0.7106(5) 0.7572(3)
O14 O 0.2955(5) 0.8228(5) 0.7757(3)
O16 O 0.1405(6) 0.8489(12) 0.5507(4)
H4 H 0.0897 0.8536 0.5429
O17 O 0.5448(5) 0.6552(5) 0.8258(3)
O18 O 0.7100(5) 0.4235(5) 0.7582(3)
O19 O 0.8891(5) 0.7101(5) 0.8582(3)
O20 O 0.7271(4) 0.7057(5) 0.8255(3)
O22 O 0.7869(5) 0.8601(5) 0.8674(3)
O23 O 0.9278(5) 0.4152(5) 0.6706(3)
O24 O 0.7635(4) 0.4509(5) 0.6645(3)
O26 O 0.8936(4) 0.5784(5) 0.6912(3)
O27 O 0.9245(5) 0.8370(5) 0.7976(3)
O29 O 0.9643(5) 0.5342(5) 0.6038(3)
O30 O 0.8783(5) 0.4353(5) 0.7651(3)
O31 O 0.5915(5) 0.8495(5) 0.8215(3)
O32 O 0.7617(4) 0.5822(4) 0.7433(3)
O34 O 0.9997(5) 0.5446(5) 0.7810(3)
O35 O 0.6915(5) 0.5396(5) 0.8314(3)
O36 O 0.8631(5) 0.5487(5) 0.8351(3)
O38 O 0.8805(4) 0.6881(5) 0.7600(3)
O39 O 0.5882(5) 0.4117(5) 0.6799(3)
O41 O 0.5977(4) 0.5469(5) 0.7506(3)
O43 O 0.7835(5) 0.3882(5) 0.8524(3)
C1 C 0.3971(6) 0.8038(8) 0.6593(5)
C2 C 0.3854(7) 0.8258(10) 0.6089(5)
H5 H 0.4332 0.8321 0.5881
C3 C 0.3078(8) 0.8381(10) 0.5899(5)
H6 H 0.3017 0.8544 0.5563
C4 C 0.2349(7) 0.8268(8) 0.6199(5)
C5 C 0.2432(6) 0.8053(8) 0.6702(4)
H7 H 0.1946 0.7977 0.6902
C6 C 0.3250(7) 0.7952(7) 0.6908(4)
C7 C 0.4858(6) 0.7903(7) 0.6807(4)
C8 C 0.3371(7) 0.7748(7) 0.7458(4)
C9 C 0.1464(8) 0.8374(10) 0.5971(5)
O44 O 0.6221(9) 0.9774(6) 0.7490(5)
O45 O 0.8073(7) 0.9786(6) 0.6884(5)
O46 O 0.9562(6) 0.9716(6) 0.6095(5)
O47 O 0.9769(5) 0.8178(7) 0.5378(3)
O48 O 0.3997(6) 0.5430(8) 0.8118(5)
Ni8 Ni 0.29477(8) 0.81478(8) 0.85101(5)
Ni9 Ni 0.67190(8) 0.58603(8) 0.57941(5)
W10 W 0.51865(3) 0.85895(3) 0.871150(16)
O49 O 0.2910(4) 0.6861(4) 0.8470(3)
H8 H 0.2483 0.6600 0.8244
O50 O 0.4223(4) 0.6462(5) 0.9079(3)
O51 O 0.7997(4) 0.5742(4) 0.6000(3)
O52 O 0.8228(5) 0.7045(5) 0.5257(3)
O54 O 0.8495(5) 0.4085(5) 0.5715(3)
H22 H 0.967787 0.989489 0.574161
H24 H 0.562036 0.995562 0.741945
H25 H 0.850014 0.997556 0.713963
H27 H 0.92132 0.802135 0.521757
H28 H 0.999212 0.871545 0.522323
H29 H 0.337745 0.527478 0.812776
H30 H 0.422827 0.532079 0.777448
Ni7 Ni 0.04160(9) 0.16325(9) 0.11428(6)
Ni1_2 Ni 0.37036(8) 0.15499(8) 0.24741(5)
Ni2_2 Ni 0.19780(8) 0.15560(9) 0.18707(5)
Ni3_2 Ni 0.34603(8) 0.28740(8) 0.16830(5)
Ni5_2 Ni 0.18522(8) 0.29477(8) 0.10101(5)
Ni6_2 Ni 0.58603(8) 0.32810(8) 0.32941(5)
W1_2 W 0.35983(3) 0.36517(3) 0.293410(15)
W2_2 W 0.14105(3) 0.51865(3) 0.121150(16)
W3_2 W 0.01882(3) 0.53928(3) 0.228900(17)
W5_2 W 0.03810(3) 0.37595(3) 0.331000(18)
W6_2 W 0.33698(3) 0.51370(3) 0.198930(16)
W7_2 W 0.21626(3) 0.53156(3) 0.308490(16)
W8_2 W 0.00377(3) 0.21193(3) 0.245770(17)
W9_2 W 0.18596(3) 0.20978(3) 0.319560(16)
P1_2 P 0.16950(16) 0.36108(17) 0.21847(10)
O1_2 O 0.2353(4) 0.1629(5) 0.2639(3)
O2_2 O 0.3227(4) 0.1618(4) 0.1775(3)
H1_2 H 0.3477 0.1228 0.1524
O3_2 O 0.3642(5) 0.2873(4) 0.2439(3)
O4_2 O 0.0693(5) 0.1680(5) 0.1956(3)
O5_2 O 0.1704(4) 0.1675(5) 0.1121(3)
H2_2 H 0.1998 0.1284 0.0887
O6_2 O 0.3139(4) 0.2910(4) 0.0970(3)
H3_2 H 0.3400 0.2483 0.0744
O7_2 O 0.3538(5) 0.4223(4) 0.1579(3)
O8_2 O 0.0553(4) 0.2989(5) 0.1174(3)
O9_2 O 0.5742(4) 0.2003(4) 0.3500(3)
O10_2 O 0.2095(4) 0.2967(4) 0.1809(3)
O11_2 O 0.4908(5) 0.1605(5) 0.2156(3)
O12_2 O 0.4711(5) 0.2651(5) 0.1586(3)
O13_2 O 0.6147(5) 0.2894(5) 0.2572(3)
O14_2 O 0.7045(5) 0.1772(5) 0.2757(3)
O15 O 0.9169(5) 0.1621(6) 0.1283(3)
O16_2 O 0.8595(6) 0.1511(12) 0.0507(4)
H4_2 H 0.9103 0.1464 0.0429
O17_2 O 0.4552(5) 0.3448(5) 0.3258(3)
O18_2 O 0.2900(5) 0.5765(5) 0.2582(3)
O19_2 O 0.1109(5) 0.2899(5) 0.3582(3)
O20_2 O 0.2729(4) 0.2943(5) 0.3255(3)
O22_2 O 0.2131(5) 0.1399(5) 0.3674(3)
O23_2 O 0.0722(5) 0.5848(5) 0.1706(3)
O24_2 O 0.2365(4) 0.5491(5) 0.1645(3)
O26_2 O 0.1064(4) 0.4216(5) 0.1912(3)
O27_2 O 0.0755(5) 0.1630(5) 0.2976(3)
O29_2 O 0.0357(5) 0.4658(5) 0.1038(3)
O30_2 O 0.1217(5) 0.5647(5) 0.2651(3)
O31_2 O 0.4085(5) 0.1505(5) 0.3215(3)
O32_2 O 0.2383(4) 0.4178(4) 0.2433(3)
O34_2 O 0.0003(5) 0.4554(5) 0.2810(3)
O35_2 O 0.3085(5) 0.4604(5) 0.3314(3)
O36_2 O 0.1369(5) 0.4513(5) 0.3351(3)
O38_2 O 0.1195(4) 0.3119(5) 0.2600(3)
O39_2 O 0.4118(5) 0.5883(5) 0.1799(3)
O41_2 O 0.4023(4) 0.4531(5) 0.2506(3)
O43_2 O 0.2165(5) 0.6118(5) 0.3524(3)
C1_2 C 0.6029(6) 0.1962(8) 0.1593(5)
C2_2 C 0.6146(7) 0.1742(10) 0.1089(5)
H5_2 H 0.5668 0.1679 0.0881
C3_2 C 0.6922(8) 0.1619(10) 0.0899(5)
H6_2 H 0.6983 0.1456 0.0563
C4_2 C 0.7651(7) 0.1732(8) 0.1199(5)
C5_2 C 0.7568(6) 0.1947(8) 0.1702(4)
H7_2 H 0.8054 0.2023 0.1902
C6_2 C 0.6750(7) 0.2048(7) 0.1908(4)
C7_2 C 0.5142(6) 0.2097(7) 0.1807(4)
C8_2 C 0.6629(7) 0.2252(7) 0.2458(4)
C9_2 C 0.8536(8) 0.1626(10) 0.0971(5)
O44_2 O 0.3779(9) 0.0226(6) 0.2490(5)
O45_2 O 0.1927(7) 0.0214(6) 0.1884(5)
O46_2 O 0.0438(6) 0.0284(6) 0.1095(5)
O47_2 O 0.0231(5) 0.1822(7) 0.0378(3)
O48_2 O 0.6003(6) 0.4570(8) 0.3118(5)
Ni8_2 Ni 0.70523(8) 0.18522(8) 0.35101(5)
Ni9_2 Ni 0.32810(8) 0.41397(8) 0.07941(5)
W10_2 W 0.48135(3) 0.14105(3) 0.371150(16)
O49_2 O 0.7090(4) 0.3139(4) 0.3470(3)
H8_2 H 0.7517 0.3400 0.3244
O50_2 O 0.5777(4) 0.3538(5) 0.4079(3)
O51_2 O 0.2003(4) 0.4258(4) 0.1000(3)
O52_2 O 0.1772(5) 0.2955(5) 0.0257(3)
O54_2 O 0.1505(5) 0.5915(5) 0.0715(3)
H22_2 H 0.0322125 0.0105109 0.0741606
H24_2 H 0.437964 0.00443848 0.241945
H25_2 H 0.149986 0.00244354 0.213963
H27_2 H 0.0786798 0.197865 0.0217572
H28_2 H 0.000788487 0.128455 0.0223228
H29_2 H 0.662255 0.472522 0.312776
H30_2 H 0.577173 0.467921 0.277448
W4_2 W 0.97960(3) 0.37349(3) 0.145480(16)
O21_2 O 0.9527(5) 0.6222(6) 0.2458(4)
O25_2 O 0.9169(5) 0.1446(5) 0.2483(3)
O28_2 O 0.8869(5) 0.3609(5) 0.1121(3)
O33_2 O 0.9669(5) 0.2910(6) 0.3021(3)
O37_2 O 0.9800(5) 0.4078(6) 0.3823(3)
O40_2 O 0.9628(5) 0.3039(5) 0.2031(3)
O42_2 O 0.9451(4) 0.4733(5) 0.1878(3)
H21_2 H 0.998988 0.00400659 0.132064
W4_3 W 0.37349(3) 0.02040(3) 0.895480(16)
O21_3 O 0.6222(6) 0.0473(5) 0.9958(4)
O25_3 O 0.1446(5) 0.0831(5) 0.9983(3)
O28_3 O 0.3609(5) 0.1131(5) 0.8621(3)
O40_3 O 0.3039(5) 0.0372(5) 0.9531(3)
O42_3 O 0.4733(5) 0.0549(4) 0.9378(3)
O53_2 O 0.1621(6) 0.0831(5) 0.8783(3)
H21_3 H 0.00400659 0.00101241 0.882064
W1_3 W 0.36517(3) 0.64017(3) 0.043410(15)
W5_3 W 0.37595(3) 0.96190(3) 0.081000(18)
W7_3 W 0.53156(3) 0.78374(3) 0.058490(16)
W9_3 W 0.20978(3) 0.81404(3) 0.069560(16)
O1_3 O 0.1629(5) 0.7647(4) 0.0139(3)
O13_3 O 0.2894(5) 0.3853(5) 0.0072(3)
O17_3 O 0.3448(5) 0.5448(5) 0.0758(3)
O18_3 O 0.5765(5) 0.7100(5) 0.0082(3)
O19_3 O 0.2899(5) 0.8891(5) 0.1082(3)
O20_3 O 0.2943(5) 0.7271(4) 0.0755(3)
O22_3 O 0.1399(5) 0.7869(5) 0.1174(3)
O27_3 O 0.1630(5) 0.9245(5) 0.0476(3)
O30_3 O 0.5647(5) 0.8783(5) 0.0151(3)
O34_3 O 0.4554(5) 0.9997(5) 0.0310(3)
O35_3 O 0.4604(5) 0.6915(5) 0.0814(3)
O36_3 O 0.4513(5) 0.8631(5) 0.0851(3)
O38_3 O 0.3119(5) 0.8805(4) 0.0100(3)
O41_3 O 0.4531(5) 0.5977(4) 0.0006(3)
O43_3 O 0.6118(5) 0.7835(5) 0.1024(3)
O48_3 O 0.4570(8) 0.3997(6) 0.0618(5)
H29_3 H 0.472522 0.337745 0.0627762
H30_3 H 0.467921 0.422827 0.0274476
Ni1_3 Ni 0.15499(8) 0.62964(8) 0.99741(5)
Ni2_3 Ni 0.15560(9) 0.80220(8) 0.93707(5)
Ni3_3 Ni 0.28740(8) 0.65397(8) 0.91830(5)
Ni4_2 Ni 0.16325(9) 0.95840(9) 0.86428(6)
W3_3 W 0.53928(3) 0.98118(3) 0.978900(17)
W6_3 W 0.51370(3) 0.66302(3) 0.948930(16)
W8_3 W 0.21193(3) 0.99623(3) 0.995770(17)
P1_3 P 0.36108(17) 0.83050(16) 0.96847(10)
O2_3 O 0.1618(4) 0.6773(4) 0.9275(3)
H1_3 H 0.1228 0.6523 0.9024
O3_3 O 0.2873(4) 0.6358(5) 0.9939(3)
O4_3 O 0.1680(5) 0.9307(5) 0.9456(3)
O5_3 O 0.1675(5) 0.8296(4) 0.8621(3)
H2_3 H 0.1284 0.8002 0.8387
O8_3 O 0.2989(5) 0.9447(4) 0.8674(3)
O10_3 O 0.2967(4) 0.7905(4) 0.9309(3)
O11_3 O 0.1605(5) 0.5092(5) 0.9656(3)
O12_3 O 0.2651(5) 0.5289(5) 0.9086(3)
O16_3 O 0.1511(12) 0.1405(6) 0.8007(4)
H4_3 H 0.1464 0.0897 0.7929
O23_3 O 0.5848(5) 0.9278(5) 0.9206(3)
O24_3 O 0.5491(5) 0.7635(4) 0.9145(3)
O26_3 O 0.4216(5) 0.8936(4) 0.9412(3)
O29_3 O 0.4658(5) 0.9643(5) 0.8538(3)
O32_3 O 0.4178(4) 0.7617(4) 0.9933(3)
O39_3 O 0.5883(5) 0.5882(5) 0.9299(3)
C1_3 C 0.1962(8) 0.3971(6) 0.9093(5)
C2_3 C 0.1742(10) 0.3854(7) 0.8589(5)
H5_3 H 0.1679 0.4332 0.8381
C3_3 C 0.1619(10) 0.3078(8) 0.8399(5)
H6_3 H 0.1456 0.3017 0.8063
C4_3 C 0.1732(8) 0.2349(7) 0.8699(5)
C5_3 C 0.1947(8) 0.2432(6) 0.9202(4)
H7_3 H 0.2023 0.1946 0.9402
C6_3 C 0.2048(7) 0.3250(7) 0.9408(4)
C7_3 C 0.2097(7) 0.4858(6) 0.9307(4)
C8_3 C 0.2252(7) 0.3371(7) 0.9958(4)
C9_3 C 0.1626(10) 0.1464(8) 0.8471(5)
O44_3 O 0.0226(6) 0.6221(9) 0.9990(5)
O45_3 O 0.0214(6) 0.8073(7) 0.9384(5)
O46_3 O 0.0284(6) 0.9562(6) 0.8595(5)
O47_3 O 0.1822(7) 0.9769(5) 0.7878(3)
H22_3 H 0.0105109 0.967787 0.824161
H24_3 H 0.00443848 0.562036 0.991945
H25_3 H 0.00244354 0.850014 0.963963
H27_3 H 0.197865 0.92132 0.771757
H28_3 H 0.128455 0.999212 0.772323
Ni7_2 Ni 0.83675(9) 0.04160(9) 0.36428(6)
Ni1_4 Ni 0.84501(8) 0.37036(8) 0.49741(5)
Ni2_4 Ni 0.84440(9) 0.19780(8) 0.43707(5)
Ni3_4 Ni 0.71260(8) 0.34603(8) 0.41830(5)
W1_4 W 0.63483(3) 0.35983(3) 0.543410(15)
W3_4 W 0.46072(3) 0.01882(3) 0.478900(17)
W5_4 W 0.62405(3) 0.03810(3) 0.581000(18)
W6_4 W 0.48630(3) 0.33698(3) 0.448930(16)
W7_4 W 0.46844(3) 0.21626(3) 0.558490(16)
W8_4 W 0.78807(3) 0.00377(3) 0.495770(17)
W9_4 W 0.79022(3) 0.18596(3) 0.569560(16)
P1_4 P 0.63892(17) 0.16950(16) 0.46847(10)
O1_4 O 0.8371(5) 0.2353(4) 0.5139(3)
O2_4 O 0.8382(4) 0.3227(4) 0.4275(3)
H1_4 H 0.8772 0.3477 0.4024
O3_4 O 0.7127(4) 0.3642(5) 0.4939(3)
O4_4 O 0.8320(5) 0.0693(5) 0.4456(3)
O5_4 O 0.8325(5) 0.1704(4) 0.3621(3)
H2_4 H 0.8716 0.1998 0.3387
O8_4 O 0.7011(5) 0.0553(4) 0.3674(3)
O10_4 O 0.7033(4) 0.2095(4) 0.4309(3)
O11_4 O 0.8395(5) 0.4908(5) 0.4656(3)
O12_4 O 0.7349(5) 0.4711(5) 0.4086(3)
O13_4 O 0.7106(5) 0.6147(5) 0.5072(3)
O15_2 O 0.8379(6) 0.9169(5) 0.3783(3)
O16_4 O 0.8489(12) 0.8595(6) 0.3007(4)
H4_4 H 0.8536 0.9103 0.2929
O17_4 O 0.6552(5) 0.4552(5) 0.5758(3)
O18_4 O 0.4235(5) 0.2900(5) 0.5082(3)
O19_4 O 0.7101(5) 0.1109(5) 0.6082(3)
O20_4 O 0.7057(5) 0.2729(4) 0.5755(3)
O22_4 O 0.8601(5) 0.2131(5) 0.6174(3)
O23_4 O 0.4152(5) 0.0722(5) 0.4206(3)
O24_4 O 0.4509(5) 0.2365(4) 0.4145(3)
O26_4 O 0.5784(5) 0.1064(4) 0.4412(3)
O27_4 O 0.8370(5) 0.0755(5) 0.5476(3)
O29_4 O 0.5342(5) 0.0357(5) 0.3538(3)
O30_4 O 0.4353(5) 0.1217(5) 0.5151(3)
O32_4 O 0.5822(4) 0.2383(4) 0.4933(3)
O34_4 O 0.5446(5) 0.0003(5) 0.5310(3)
O35_4 O 0.5396(5) 0.3085(5) 0.5814(3)
O36_4 O 0.5487(5) 0.1369(5) 0.5851(3)
O38_4 O 0.6881(5) 0.1195(4) 0.5100(3)
O39_4 O 0.4117(5) 0.4118(5) 0.4299(3)
O41_4 O 0.5469(5) 0.4023(4) 0.5006(3)
O43_4 O 0.3882(5) 0.2165(5) 0.6024(3)
C1_4 C 0.8038(8) 0.6029(6) 0.4093(5)
C2_4 C 0.8258(10) 0.6146(7) 0.3589(5)
H5_4 H 0.8321 0.5668 0.3381
C3_4 C 0.8381(10) 0.6922(8) 0.3399(5)
H6_4 H 0.8544 0.6983 0.3063
C4_4 C 0.8268(8) 0.7651(7) 0.3699(5)
C5_4 C 0.8053(8) 0.7568(6) 0.4202(4)
H7_4 H 0.7977 0.8054 0.4402
C6_4 C 0.7952(7) 0.6750(7) 0.4408(4)
C7_4 C 0.7903(7) 0.5142(6) 0.4307(4)
C8_4 C 0.7748(7) 0.6629(7) 0.4958(4)
C9_4 C 0.8374(10) 0.8536(8) 0.3471(5)
O44_4 O 0.9774(6) 0.3779(9) 0.4990(5)
O45_4 O 0.9786(6) 0.1927(7) 0.4384(5)
O46_4 O 0.9716(6) 0.0438(6) 0.3595(5)
O47_4 O 0.8178(7) 0.0231(5) 0.2878(3)
O48_4 O 0.5430(8) 0.6003(6) 0.5618(5)
H22_4 H 0.989489 0.0322125 0.324161
H24_4 H 0.995562 0.437964 0.491945
H25_4 H 0.997556 0.149986 0.463963
H27_4 H 0.802135 0.0786798 0.271757
H28_4 H 0.871545 0.000788487 0.272323
H29_4 H 0.527478 0.662255 0.562776
H30_4 H 0.532079 0.577173 0.527448
W4_4 W 0.62651(3) 0.97960(3) 0.395480(16)
O21_4 O 0.3778(6) 0.9527(5) 0.4958(4)
O25_4 O 0.8554(5) 0.9169(5) 0.4983(3)
O28_4 O 0.6391(5) 0.8869(5) 0.3621(3)
O33_3 O 0.7090(6) 0.9669(5) 0.5521(3)
O37_3 O 0.5922(6) 0.9800(5) 0.6323(3)
O40_4 O 0.6961(5) 0.9628(5) 0.4531(3)
O42_4 O 0.5267(5) 0.9451(4) 0.4378(3)
H21_4 H 0.995993 0.998988 0.382064
H23 H 0.661032 0.00186161 0.722971
H26 H 0.824578 0.000231684 0.654615
H23_2 H 0.338968 0.998138 0.222971
H26_2 H 0.175422 0.999768 0.154615
O33_4 O 0.2910(6) 0.0331(5) 0.0521(3)
O37_4 O 0.4078(6) 0.0200(5) 0.1323(3)
H23_3 H 0.998138 0.661032 0.972971
H26_3 H 0.999768 0.824578 0.904615
H23_4 H 0.00186161 0.338968 0.472971
H26_4 H 0.000231684 0.175422 0.404615
H10 H 0.3942 0.0160 0.7830
C11 C 0.443(5) 0.004(6) 0.711(2)
C12 C 0.480(3) 0.097(2) 0.7097(17)
H13 H 0.4329 0.1365 0.7023
H14 H 0.5204 0.1010 0.6821
N1 N 0.530(3) 0.132(3) 0.7635(17)
H15 H 0.5804 0.1552 0.7555
H16 H 0.5380 0.0876 0.7842
H17 H 0.4972 0.1712 0.7787
N2 N 0.367(3) 0.044(3) 0.687(2)
H18 H 0.3196 0.0188 0.6985
H19 H 0.3704 0.0363 0.6536
H20 H 0.3660 0.0996 0.6939
C10 C 0.3857(10) 0.9771(10) 0.7553(6)
H9 H 0.3265 0.9786 0.7450
H11 H 0.4005 0.9198 0.7656
H12 H 0.4738 0.9591 0.6926
C10_2 C 0.6143(10) 0.0229(10) 0.2553(6)
H9_2 H 0.6735 0.0214 0.2450
H11_2 H 0.5995 0.0802 0.2656
H12_2 H 0.5262 0.0409 0.1926
H10_2 H 0.6058 0.9840 0.2830
C11_2 C 0.557(5) 0.996(6) 0.211(2)
C12_2 C 0.520(3) 0.903(2) 0.2097(17)
H13_2 H 0.5671 0.8635 0.2023
H14_2 H 0.4796 0.8990 0.1821
N1_2 N 0.470(3) 0.868(3) 0.2635(17)
H15_2 H 0.4196 0.8448 0.2555
H16_2 H 0.4620 0.9124 0.2842
H17_2 H 0.5028 0.8288 0.2787
N2_2 N 0.633(3) 0.956(3) 0.187(2)
H18_2 H 0.6804 0.9812 0.1985
H19_2 H 0.6296 0.9637 0.1536
H20_2 H 0.6340 0.9004 0.1939
C10_3 C 0.0229(10) 0.3857(10) 0.0053(6)
H11_3 H 0.0802 0.4005 0.0156
H9_3 H 0.0214 0.3265 0.9950
H12_3 H 0.0409 0.4738 0.9426
H10_3 H 0.9840 0.3942 0.0330
N1_3 N 0.868(3) 0.530(3) 0.0135(17)
H15_3 H 0.8448 0.5804 0.0055
H16_3 H 0.9124 0.5380 0.0342
H17_3 H 0.8288 0.4972 0.0287
C11_3 C 0.996(6) 0.443(5) 0.961(2)
C12_3 C 0.903(2) 0.480(3) 0.9597(17)
H13_3 H 0.8635 0.4329 0.9523
H14_3 H 0.8990 0.5204 0.9321
N2_3 N 0.956(3) 0.367(3) 0.937(2)
H18_3 H 0.9812 0.3196 0.9485
H19_3 H 0.9637 0.3704 0.9036
H20_3 H 0.9004 0.3660 0.9439
H10_4 H 0.0160 0.6058 0.5330
C11_4 C 0.004(6) 0.557(5) 0.461(2)
C12_4 C 0.097(2) 0.520(3) 0.4597(17)
H13_4 H 0.1365 0.5671 0.4523
H14_4 H 0.1010 0.4796 0.4321
N1_4 N 0.132(3) 0.470(3) 0.5135(17)
H15_4 H 0.1552 0.4196 0.5055
H16_4 H 0.0876 0.4620 0.5342
H17_4 H 0.1712 0.5028 0.5287
N2_4 N 0.044(3) 0.633(3) 0.437(2)
H18_4 H 0.0188 0.6804 0.4485
H19_4 H 0.0363 0.6296 0.4036
H20_4 H 0.0996 0.6340 0.4439
C10_4 C 0.9771(10) 0.6143(10) 0.5053(6)
H9_4 H 0.9786 0.6735 0.4950
H11_4 H 0.9198 0.5995 0.5156
H12_4 H 0.9591 0.5262 0.4426
loop_
_geom_bond_atom_site_label_1
_geom_bond_atom_site_label_2
_geom_bond_site_symmetry_1
_geom_bond_site_symmetry_2
O28 W4 1_555 1_555
O40 W4 1_555 1_555
W4 O42 1_555 1_555
Ni1 O1 1_555 1_555
Ni2 O1 1_555 1_555
Ni3 O2 1_555 1_555
Ni4 O4 1_555 1_555
Ni5 O5 1_555 1_555
Ni6 O9 1_555 1_555
W1 O3 1_555 1_555
W2 O23 1_555 1_555
W5 O19 1_555 1_555
W6 O7 1_555 1_555
W7 O18 1_555 1_555
W8 O4 1_555 1_555
W9 O1 1_555 1_555
P1 O10 1_555 1_555
O2 Ni1 1_555 1_555
H1 O2 1_555 1_555
O3 Ni1 1_555 1_555
O4 Ni2 1_555 1_555
O5 Ni2 1_555 1_555
H2 O5 1_555 1_555
O6 Ni3 1_555 1_555
H3 O6 1_555 1_555
O7 Ni3 1_555 1_555
O8 Ni4 1_555 1_555
O9 Ni8 1_555 1_555
O10 Ni2 1_555 1_555
O11 Ni1 1_555 1_555
O12 Ni3 1_555 1_555
O13 Ni6 1_555 1_555
O14 C8 1_555 1_555
O53 C9 1_555 1_555
O16 H4 1_555 1_555
O17 Ni6 1_555 1_555
O18 W6 1_555 1_555
O19 W9 1_555 1_555
O20 W1 1_555 1_555
O22 W9 1_555 1_555
O23 W3 1_555 1_555
O24 W2 1_555 1_555
O26 W2 1_555 1_555
O27 W8 1_555 1_555
O29 W2 1_555 1_555
O30 W3 1_555 1_555
O31 Ni1 1_555 1_555
O32 W1 1_555 1_555
O34 W3 1_555 1_555
O35 W1 1_555 1_555
O36 W5 1_555 1_555
O38 W5 1_555 1_555
O39 W6 1_555 1_555
O41 W1 1_555 1_555
O43 W7 1_555 1_555
C1 C2 1_555 1_555
C2 H5 1_555 1_555
C3 C2 1_555 1_555
H6 C3 1_555 1_555
C4 C3 1_555 1_555
C5 C4 1_555 1_555
H7 C5 1_555 1_555
C6 C1 1_555 1_555
C7 O11 1_555 1_555
C8 O13 1_555 1_555
C9 O16 1_555 1_555
O44 Ni1 1_555 1_555
O45 Ni2 1_555 1_555
O46 Ni4 1_555 1_555
O47 Ni4 1_555 1_555
O48 Ni6 1_555 1_555
Ni8 O14 1_555 1_555
Ni9 O6 1_555 1_555
W10 O9 1_555 1_555
O49 Ni6 1_555 1_555
H8 O49 1_555 1_555
O50 Ni6 1_555 1_555
O51 Ni5 1_555 1_555
O52 Ni5 1_555 1_555
O54 W2 1_555 1_555
Ni2 O2 1_555 1_555
Ni3 O3 1_555 1_555
Ni3 O10 1_555 1_555
Ni4 O5 1_555 1_555
Ni5 O6 1_555 1_555
Ni5 O8 1_555 1_555
Ni5 O10 1_555 1_555
W1 O17 1_555 1_555
W2 O51 1_555 1_555
W3 O26 1_555 1_555
W5 O34 1_555 1_555
W6 O24 1_555 1_555
W6 O32 1_555 1_555
W6 O41 1_555 1_555
W7 O30 1_555 1_555
W7 O32 1_555 1_555
W7 O35 1_555 1_555
W7 O36 1_555 1_555
W8 O38 1_555 1_555
W9 O20 1_555 1_555
W9 O27 1_555 1_555
W9 O38 1_555 1_555
P1 O26 1_555 1_555
P1 O32 1_555 1_555
P1 O38 1_555 1_555
O7 Ni9 1_555 1_555
O12 C7 1_555 1_555
O31 W10 1_555 1_555
C1 C7 1_555 1_555
C4 C9 1_555 1_555
C5 C6 1_555 1_555
C6 C8 1_555 1_555
Ni8 O49 1_555 1_555
Ni9 O51 1_555 1_555
O46 H22 1_555 1_555
O44 H24 1_555 1_555
O45 H25 1_555 1_555
O47 H27 1_555 1_555
O47 H28 1_555 1_555
O48 H29 1_555 1_555
O48 H30 1_555 1_555
Ni1_2 O1_2 1_555 1_555
Ni2_2 O1_2 1_555 1_555
Ni3_2 O2_2 1_555 1_555
Ni7 O4_2 1_555 1_555
Ni5_2 O5_2 1_555 1_555
Ni6_2 O9_2 1_555 1_555
W1_2 O3_2 1_555 1_555
W2_2 O23_2 1_555 1_555
W5_2 O19_2 1_555 1_555
W6_2 O7_2 1_555 1_555
W7_2 O18_2 1_555 1_555
W8_2 O4_2 1_555 1_555
W9_2 O1_2 1_555 1_555
P1_2 O10_2 1_555 1_555
O2_2 Ni1_2 1_555 1_555
H1_2 O2_2 1_555 1_555
O3_2 Ni1_2 1_555 1_555
O4_2 Ni2_2 1_555 1_555
O5_2 Ni2_2 1_555 1_555
H2_2 O5_2 1_555 1_555
O6_2 Ni3_2 1_555 1_555
H3_2 O6_2 1_555 1_555
O7_2 Ni3_2 1_555 1_555
O8_2 Ni7 1_555 1_555
O9_2 Ni8_2 1_555 1_555
O10_2 Ni2_2 1_555 1_555
O11_2 Ni1_2 1_555 1_555
O12_2 Ni3_2 1_555 1_555
O13_2 Ni6_2 1_555 1_555
O14_2 C8_2 1_555 1_555
O15 C9_2 1_555 1_555
O16_2 H4_2 1_555 1_555
O17_2 Ni6_2 1_555 1_555
O18_2 W6_2 1_555 1_555
O19_2 W9_2 1_555 1_555
O20_2 W1_2 1_555 1_555
O22_2 W9_2 1_555 1_555
O23_2 W3_2 1_555 1_555
O24_2 W2_2 1_555 1_555
O26_2 W2_2 1_555 1_555
O27_2 W8_2 1_555 1_555
O29_2 W2_2 1_555 1_555
O30_2 W3_2 1_555 1_555
O31_2 Ni1_2 1_555 1_555
O32_2 W1_2 1_555 1_555
O34_2 W3_2 1_555 1_555
O35_2 W1_2 1_555 1_555
O36_2 W5_2 1_555 1_555
O38_2 W5_2 1_555 1_555
O39_2 W6_2 1_555 1_555
O41_2 W1_2 1_555 1_555
O43_2 W7_2 1_555 1_555
C1_2 C2_2 1_555 1_555
C2_2 H5_2 1_555 1_555
C3_2 C2_2 1_555 1_555
H6_2 C3_2 1_555 1_555
C4_2 C3_2 1_555 1_555
C5_2 C4_2 1_555 1_555
H7_2 C5_2 1_555 1_555
C6_2 C1_2 1_555 1_555
C7_2 O11_2 1_555 1_555
C8_2 O13_2 1_555 1_555
C9_2 O16_2 1_555 1_555
O44_2 Ni1_2 1_555 1_555
O45_2 Ni2_2 1_555 1_555
O46_2 Ni7 1_555 1_555
O47_2 Ni7 1_555 1_555
O48_2 Ni6_2 1_555 1_555
Ni8_2 O14_2 1_555 1_555
Ni9_2 O6_2 1_555 1_555
W10_2 O9_2 1_555 1_555
O49_2 Ni6_2 1_555 1_555
H8_2 O49_2 1_555 1_555
O50_2 Ni6_2 1_555 1_555
O51_2 Ni5_2 1_555 1_555
O52_2 Ni5_2 1_555 1_555
O54_2 W2_2 1_555 1_555
Ni2_2 O2_2 1_555 1_555
Ni3_2 O3_2 1_555 1_555
Ni3_2 O10_2 1_555 1_555
Ni7 O5_2 1_555 1_555
Ni5_2 O6_2 1_555 1_555
Ni5_2 O8_2 1_555 1_555
Ni5_2 O10_2 1_555 1_555
W1_2 O17_2 1_555 1_555
W2_2 O51_2 1_555 1_555
W3_2 O26_2 1_555 1_555
W5_2 O34_2 1_555 1_555
W6_2 O24_2 1_555 1_555
W6_2 O32_2 1_555 1_555
W6_2 O41_2 1_555 1_555
W7_2 O30_2 1_555 1_555
W7_2 O32_2 1_555 1_555
W7_2 O35_2 1_555 1_555
W7_2 O36_2 1_555 1_555
W8_2 O38_2 1_555 1_555
W9_2 O20_2 1_555 1_555
W9_2 O27_2 1_555 1_555
W9_2 O38_2 1_555 1_555
P1_2 O26_2 1_555 1_555
P1_2 O32_2 1_555 1_555
P1_2 O38_2 1_555 1_555
O7_2 Ni9_2 1_555 1_555
O12_2 C7_2 1_555 1_555
O31_2 W10_2 1_555 1_555
C1_2 C7_2 1_555 1_555
C4_2 C9_2 1_555 1_555
C5_2 C6_2 1_555 1_555
C6_2 C8_2 1_555 1_555
Ni8_2 O49_2 1_555 1_555
Ni9_2 O51_2 1_555 1_555
O46_2 H22_2 1_555 1_555
O44_2 H24_2 1_555 1_555
O45_2 H25_2 1_555 1_555
O47_2 H27_2 1_555 1_555
O47_2 H28_2 1_555 1_555
O48_2 H29_2 1_555 1_555
O48_2 H30_2 1_555 1_555
O28_2 W4_2 1_555 1_555
O40_2 W4_2 1_555 1_555
W4_2 O42_2 1_555 1_555
O28_3 W4_3 1_555 1_555
O40_3 W4_3 1_555 1_555
W4_3 O42_3 1_555 1_555
W5_3 O19_3 1_555 1_555
W7_3 O18_3 1_555 1_555
W9_3 O1_3 1_555 1_555
O13_3 Ni9_2 1_555 1_555
O17_3 Ni9_2 1_555 1_555
O19_3 W9_3 1_555 1_555
O20_3 W1_3 1_555 1_555
O22_3 W9_3 1_555 1_555
O35_3 W1_3 1_555 1_555
O36_3 W5_3 1_555 1_555
O38_3 W5_3 1_555 1_555
O41_3 W1_3 1_555 1_555
O43_3 W7_3 1_555 1_555
O48_3 Ni9_2 1_555 1_555
W1_3 O17_3 1_555 1_555
W5_3 O34_3 1_555 1_555
W7_3 O30_3 1_555 1_555
W7_3 O35_3 1_555 1_555
W7_3 O36_3 1_555 1_555
W9_3 O20_3 1_555 1_555
W9_3 O27_3 1_555 1_555
W9_3 O38_3 1_555 1_555
O48_3 H29_3 1_555 1_555
O48_3 H30_3 1_555 1_555
Ni3_3 O2_3 1_555 1_555
Ni4_2 O4_3 1_555 1_555
Ni8 O5_3 1_555 1_555
W10 O23_3 1_555 1_555
W6_3 O50 1_555 1_555
W8_3 O4_3 1_555 1_555
P1_3 O10_3 1_555 1_555
O2_3 Ni1_3 1_555 1_555
H1_3 O2_3 1_555 1_555
O3_3 Ni1_3 1_555 1_555
O4_3 Ni2_3 1_555 1_555
O5_3 Ni2_3 1_555 1_555
H2_3 O5_3 1_555 1_555
O49 Ni3_3 1_555 1_555
O50 Ni3_3 1_555 1_555
O8_3 Ni4_2 1_555 1_555
O10_3 Ni2_3 1_555 1_555
O11_3 Ni1_3 1_555 1_555
O12_3 Ni3_3 1_555 1_555
O53_2 C9_3 1_555 1_555
O16_3 H4_3 1_555 1_555
O23_3 W3_3 1_555 1_555
O24_3 W10 1_555 1_555
O26_3 W10 1_555 1_555
O29_3 W10 1_555 1_555
O39_3 W6_3 1_555 1_555
C1_3 C2_3 1_555 1_555
C2_3 H5_3 1_555 1_555
C3_3 C2_3 1_555 1_555
H6_3 C3_3 1_555 1_555
C4_3 C3_3 1_555 1_555
C5_3 C4_3 1_555 1_555
H7_3 C5_3 1_555 1_555
C6_3 C1_3 1_555 1_555
C7_3 O11_3 1_555 1_555
C9_3 O16_3 1_555 1_555
O44_3 Ni1_3 1_555 1_555
O45_3 Ni2_3 1_555 1_555
O46_3 Ni4_2 1_555 1_555
O47_3 Ni4_2 1_555 1_555
Ni2_3 O2_3 1_555 1_555
Ni3_3 O3_3 1_555 1_555
Ni3_3 O10_3 1_555 1_555
Ni4_2 O5_3 1_555 1_555
Ni8 O8_3 1_555 1_555
Ni8 O10_3 1_555 1_555
W3_3 O26_3 1_555 1_555
W6_3 O24_3 1_555 1_555
W6_3 O32_3 1_555 1_555
P1_3 O26_3 1_555 1_555
P1_3 O32_3 1_555 1_555
O12_3 C7_3 1_555 1_555
C1_3 C7_3 1_555 1_555
C4_3 C9_3 1_555 1_555
C5_3 C6_3 1_555 1_555
C6_3 C8_3 1_555 1_555
O46_3 H22_3 1_555 1_555
O44_3 H24_3 1_555 1_555
O45_3 H25_3 1_555 1_555
O47_3 H27_3 1_555 1_555
O47_3 H28_3 1_555 1_555
Ni1_4 O1_4 1_555 1_555
Ni2_4 O1_4 1_555 1_555
Ni3_4 O2_4 1_555 1_555
Ni7_2 O4_4 1_555 1_555
Ni8_2 O5_4 1_555 1_555
W1_4 O3_4 1_555 1_555
W10_2 O23_4 1_555 1_555
W5_4 O19_4 1_555 1_555
W6_4 O50_2 1_555 1_555
W7_4 O18_4 1_555 1_555
W8_4 O4_4 1_555 1_555
W9_4 O1_4 1_555 1_555
P1_4 O10_4 1_555 1_555
O2_4 Ni1_4 1_555 1_555
H1_4 O2_4 1_555 1_555
O3_4 Ni1_4 1_555 1_555
O4_4 Ni2_4 1_555 1_555
O5_4 Ni2_4 1_555 1_555
H2_4 O5_4 1_555 1_555
O49_2 Ni3_4 1_555 1_555
O50_2 Ni3_4 1_555 1_555
O8_4 Ni7_2 1_555 1_555
O10_4 Ni2_4 1_555 1_555
O11_4 Ni1_4 1_555 1_555
O12_4 Ni3_4 1_555 1_555
O13_4 Ni9 1_555 1_555
O52 C8_4 1_555 1_555
O15_2 C9_4 1_555 1_555
O16_4 H4_4 1_555 1_555
O17_4 Ni9 1_555 1_555
O18_4 W6_4 1_555 1_555
O19_4 W9_4 1_555 1_555
O20_4 W1_4 1_555 1_555
O22_4 W9_4 1_555 1_555
O23_4 W3_4 1_555 1_555
O24_4 W10_2 1_555 1_555
O26_4 W10_2 1_555 1_555
O27_4 W8_4 1_555 1_555
O29_4 W10_2 1_555 1_555
O30_4 W3_4 1_555 1_555
O54 Ni1_4 1_555 1_555
O32_4 W1_4 1_555 1_555
O34_4 W3_4 1_555 1_555
O35_4 W1_4 1_555 1_555
O36_4 W5_4 1_555 1_555
O38_4 W5_4 1_555 1_555
O39_4 W6_4 1_555 1_555
O41_4 W1_4 1_555 1_555
O43_4 W7_4 1_555 1_555
C1_4 C2_4 1_555 1_555
C2_4 H5_4 1_555 1_555
C3_4 C2_4 1_555 1_555
H6_4 C3_4 1_555 1_555
C4_4 C3_4 1_555 1_555
C5_4 C4_4 1_555 1_555
H7_4 C5_4 1_555 1_555
C6_4 C1_4 1_555 1_555
C7_4 O11_4 1_555 1_555
C8_4 O13_4 1_555 1_555
C9_4 O16_4 1_555 1_555
O44_4 Ni1_4 1_555 1_555
O45_4 Ni2_4 1_555 1_555
O46_4 Ni7_2 1_555 1_555
O47_4 Ni7_2 1_555 1_555
O48_4 Ni9 1_555 1_555
Ni2_4 O2_4 1_555 1_555
Ni3_4 O3_4 1_555 1_555
Ni3_4 O10_4 1_555 1_555
Ni7_2 O5_4 1_555 1_555
Ni8_2 O8_4 1_555 1_555
Ni8_2 O10_4 1_555 1_555
W1_4 O17_4 1_555 1_555
W3_4 O26_4 1_555 1_555
W5_4 O34_4 1_555 1_555
W6_4 O24_4 1_555 1_555
W6_4 O32_4 1_555 1_555
W6_4 O41_4 1_555 1_555
W7_4 O30_4 1_555 1_555
W7_4 O32_4 1_555 1_555
W7_4 O35_4 1_555 1_555
W7_4 O36_4 1_555 1_555
W8_4 O38_4 1_555 1_555
W9_4 O20_4 1_555 1_555
W9_4 O27_4 1_555 1_555
W9_4 O38_4 1_555 1_555
P1_4 O26_4 1_555 1_555
P1_4 O32_4 1_555 1_555
P1_4 O38_4 1_555 1_555
O12_4 C7_4 1_555 1_555
C1_4 C7_4 1_555 1_555
C4_4 C9_4 1_555 1_555
C5_4 C6_4 1_555 1_555
C6_4 C8_4 1_555 1_555
O46_4 H22_4 1_555 1_555
O44_4 H24_4 1_555 1_555
O45_4 H25_4 1_555 1_555
O47_4 H27_4 1_555 1_555
O47_4 H28_4 1_555 1_555
O48_4 H29_4 1_555 1_555
O48_4 H30_4 1_555 1_555
O28_4 W4_4 1_555 1_555
O40_4 W4_4 1_555 1_555
W4_4 O42_4 1_555 1_555
C12 C11 1_555 1_555
H13 C12 1_555 1_555
H14 C12 1_555 1_555
N1 C12 1_555 1_555
H15 N1 1_555 1_555
H16 N1 1_555 1_555
H17 N1 1_555 1_555
N2 C11 1_555 1_555
H18 N2 1_555 1_555
H19 N2 1_555 1_555
H20 N2 1_555 1_555
C10 H9 1_555 1_555
H11 C10 1_555 1_555
C10_2 H9_2 1_555 1_555
H11_2 C10_2 1_555 1_555
C12_2 C11_2 1_555 1_555
H13_2 C12_2 1_555 1_555
H14_2 C12_2 1_555 1_555
N1_2 C12_2 1_555 1_555
H15_2 N1_2 1_555 1_555
H16_2 N1_2 1_555 1_555
H17_2 N1_2 1_555 1_555
N2_2 C11_2 1_555 1_555
H18_2 N2_2 1_555 1_555
H19_2 N2_2 1_555 1_555
H20_2 N2_2 1_555 1_555
H11_3 C10_3 1_555 1_555
H15_3 N1_3 1_555 1_555
H16_3 N1_3 1_555 1_555
H17_3 N1_3 1_555 1_555
C12_3 C11_3 1_555 1_555
H13_3 C12_3 1_555 1_555
H14_3 C12_3 1_555 1_555
N2_3 C11_3 1_555 1_555
H18_3 N2_3 1_555 1_555
H19_3 N2_3 1_555 1_555
H20_3 N2_3 1_555 1_555
C12_4 C11_4 1_555 1_555
H13_4 C12_4 1_555 1_555
H14_4 C12_4 1_555 1_555
N1_4 C12_4 1_555 1_555
H15_4 N1_4 1_555 1_555
H16_4 N1_4 1_555 1_555
H17_4 N1_4 1_555 1_555
N2_4 C11_4 1_555 1_555
H18_4 N2_4 1_555 1_555
H19_4 N2_4 1_555 1_555
H20_4 N2_4 1_555 1_555
C10_4 H9_4 1_555 1_555
H11_4 C10_4 1_555 1_555

#END
