
###############################################################################
#
# This file contains modified crystal structure data generated from the
# MOF subset of the Cambridge Structural Database (CSD) v543 
# hosted by the Cambridge Crystallographic Data Centre (CCDC).
#
# This work is licensed under the Creative Commons
# Attribution-NonCommercial-ShareAlike 4.0 International License.
# To view a copy of this license, visit
# http://creativecommons.org/licenses/by-nc-sa/4.0/
# or send a letter to
# Creative Commons, PO Box 1866, Mountain View, CA 94042, USA.
#
# CIF created using the CSD Python API on 29 September 2022
# The structure has been converted into the P1 space group
# The structure has a 3D framework
# The original CSD entry POCCUI is in the monoclinic crystal system
# The framework has been calculated to contain at least 10.0% void space
# The void calculation uses a probe of radius 1.32A, grid spacing 0.4
# H atom positions have been added when not included in the experimental data
#
###############################################################################

data_POCCUI
_chemical_formula_moiety         '(C320 H192 N16 O68 Pb16)n'
_symmetry_cell_setting           triclinic
_symmetry_space_group_name_H-M   'P 1'
_symmetry_Int_Tables_number      1
_space_group_name_Hall           'P 1'
loop_
_symmetry_equiv_pos_site_id
_symmetry_equiv_pos_as_xyz
1 x,y,z
_cell_length_a                   23.6349(5)
_cell_length_b                   15.2520(5)
_cell_length_c                   24.7219(6)
_cell_angle_alpha                90
_cell_angle_beta                 91.373(2)
_cell_angle_gamma                90
_cell_volume                     8909.18
loop_
_atom_site_label
_atom_site_type_symbol
_atom_site_fract_x
_atom_site_fract_y
_atom_site_fract_z
O20 O 0.0096(3) 0.4500(5) 0.6467(3)
O27 O 0.0243(3) 0.4068(5) 0.5189(3)
O29 O 0.5243(3) 0.0932(5) 0.0189(3)
O30 O 0.3990(2) 0.1295(5) 0.0024(3)
Pb2 Pb 0.96466(2) 0.30769(2) 0.59366(2)
Pb3 Pb 0.45503(2) 0.06486(2) 0.93013(2)
Pb4 Pb 0.46021(2) 0.67964(3) 0.09333(2)
O1 O 0.3618(2) 0.6558(4) 0.0875(2)
O2 O 0.3866(2) 0.6631(4) 0.0014(2)
O9 O 0.0494(3) 0.3613(6) 0.4394(3)
O11 O 0.3754(3) 0.1119(5) 0.8636(2)
O12 O 0.4513(3) 0.1938(4) 0.8730(3)
O13 O 0.8728(3) 0.3707(6) 0.5866(3)
O14 O 0.8990(2) 0.3705(5) 0.5024(3)
O15 O 0.4515(3) 0.5961(6) 0.1714(3)
O16 O 0.4247(4) 0.7793(6) 0.1629(3)
O17 O 0.9087(4) 0.1863(6) 0.6303(3)
O18 O 0.5336(3) 0.5425(4) 0.1429(2)
N3 N 0.4364(3) 0.3700(5) 0.5055(3)
N4 N 0.4865(3) 0.3668(5) 0.5238(3)
C11 C 0.0717(3) 0.6215(6) 0.0038(3)
H6 H 0.079981 0.641899 0.038543
C15 C 0.1922(3) 0.6113(6) 0.0424(3)
H8 H 0.165581 0.600047 0.068638
C16 C 0.2478(3) 0.6277(6) 0.0582(3)
H9 H 0.257731 0.630076 0.094823
C17 C 0.2886(3) 0.6407(5) 0.0199(3)
C20 C 0.3493(3) 0.6552(6) 0.0371(4)
C40 C 0.0620(4) 0.3832(7) 0.4864(4)
C41 C 0.1225(4) 0.3777(6) 0.5054(4)
C42 C 0.1358(4) 0.3821(6) 0.5607(4)
H23 H 0.107183 0.390205 0.585319
C43 C 0.1916(4) 0.3745(6) 0.5790(4)
H24 H 0.200107 0.376532 0.615898
C44 C 0.2348(3) 0.3639(5) 0.5421(3)
C45 C 0.2207(3) 0.3619(6) 0.4863(3)
H25 H 0.249117 0.355649 0.461159
C46 C 0.1644(4) 0.3692(6) 0.4688(4)
H26 H 0.155314 0.368283 0.431939
C47 C 0.2947(3) 0.3517(5) 0.5613(3)
C48 C 0.3068(3) 0.3207(5) 0.6138(4)
H27 H 0.277243 0.309776 0.637119
C49 C 0.3623(3) 0.3061(5) 0.6315(3)
C50 C 0.4063(3) 0.3193(6) 0.5969(4)
H28 H 0.443319 0.308144 0.608464
C51 C 0.3951(3) 0.3500(6) 0.5439(4)
C52 C 0.3398(3) 0.3651(6) 0.5264(3)
H29 H 0.332594 0.384281 0.491155
C53 C 0.3729(3) 0.2716(5) 0.6872(3)
C54 C 0.3342(3) 0.2185(6) 0.7128(3)
H30 H 0.300346 0.204230 0.695024
C55 C 0.3447(3) 0.1868(5) 0.7635(3)
H31 H 0.318527 0.150131 0.779510
C56 C 0.3943(3) 0.2089(5) 0.7914(3)
C57 C 0.4344(4) 0.2616(6) 0.7662(3)
H32 H 0.468282 0.275056 0.784202
C58 C 0.4237(4) 0.2930(6) 0.7157(4)
H33 H 0.450199 0.329008 0.699478
C59 C 0.4068(3) 0.1692(6) 0.8473(3)
C60 C 0.5269(3) 0.3924(6) 0.4848(4)
C61 C 0.5838(3) 0.3871(6) 0.5022(4)
H34 H 0.592911 0.366945 0.536792
C62 C 0.6264(3) 0.4122(6) 0.4676(4)
C63 C 0.6111(4) 0.4418(5) 0.4158(4)
H35 H 0.639078 0.460238 0.392540
C64 C 0.5545(4) 0.4443(5) 0.3985(4)
C65 C 0.5122(4) 0.4197(6) 0.4333(4)
H36 H 0.474353 0.421621 0.421979
C66 C 0.6869(3) 0.4094(6) 0.4858(3)
C67 C 0.7030(4) 0.4126(8) 0.5407(4)
H37 H 0.675810 0.422004 0.566636
C68 C 0.7590(3) 0.4018(6) 0.5564(3)
H38 H 0.768256 0.399047 0.593099
C69 C 0.8019(3) 0.3950(6) 0.5193(3)
C70 C 0.7874(4) 0.3984(6) 0.4656(3)
H39 H 0.815396 0.396739 0.439816
C71 C 0.7301(4) 0.4046(6) 0.4489(4)
H40 H 0.720960 0.405450 0.412135
C72 C 0.8612(4) 0.3798(6) 0.5378(4)
C73 C 0.5386(4) 0.4719(6) 0.3419(3)
C74 C 0.4879(3) 0.5175(6) 0.3300(3)
H41 H 0.463582 0.530993 0.357781
C75 C 0.4740(4) 0.5424(6) 0.2775(3)
H42 H 0.440704 0.573206 0.270204
C76 C 0.5099(3) 0.5213(6) 0.2359(3)
C77 C 0.5600(4) 0.4791(6) 0.2458(3)
H43 H 0.584448 0.467765 0.217662
C78 C 0.5745(4) 0.4528(6) 0.2991(4)
H44 H 0.608100 0.422493 0.305876
C79 C 0.4971(5) 0.5540(6) 0.1792(4)
Pb5 Pb 0.56421(2) 0.43258(2) 0.06485(2)
Pb11 Pb 0.04497(2) 0.56486(2) 0.56987(2)
Pb13 Pb 0.95503(2) 0.43514(2) 0.43013(2)
Pb14 Pb 0.03979(2) 0.17964(3) 0.40667(2)
O22 O 0.9514(3) 0.3569(4) 0.6850(2)
O23 O 0.0157(2) 0.8487(4) 0.4740(2)
O24 O 0.0439(2) 0.9825(4) 0.4523(2)
O25 O 0.4506(3) 0.8613(6) 0.0606(3)
O26 O 0.5494(3) 0.1387(6) 0.9394(3)
H45 H 0.404403 0.744952 0.190507
H46 H 0.456997 0.810779 0.180474
H47 H 0.880614 0.166214 0.602467
H48 H 0.934266 0.136986 0.640408
C5 C 0.0305(3) 0.5185(6) 0.8461(3)
C6 C 0.0645(4) 0.5378(6) 0.8020(4)
H3 H 0.097132 0.571195 0.807105
C7 C 0.0496(4) 0.5072(6) 0.7504(3)
H4 H 0.072887 0.518918 0.721494
C8 C 0.0457(4) 0.5545(5) 0.9012(4)
C9 C 0.0018(4) 0.5787(5) 0.9356(4)
C10 C 0.0153(3) 0.6130(6) 0.9857(3)
C12 C 0.1151(3) 0.5996(6) 0.9698(3)
C13 C 0.1017(4) 0.5643(5) 0.9184(3)
H7 H 0.130580 0.547353 0.895738
C14 C 0.1753(3) 0.6111(6) 0.9877(3)
C18 C 0.2728(3) 0.6422(5) 0.9656(3)
H10 H 0.299712 0.653562 0.939720
C19 C 0.2174(3) 0.6269(6) 0.9498(3)
H11 H 0.207597 0.627112 0.913170
Pb7 Pb 0.43579(2) 0.56742(2) 0.93515(2)
O21 O 0.4904(3) 0.9500(5) 0.8533(3)
O28 O 0.4757(3) 0.9068(5) 0.9811(3)
Pb1 Pb 0.93579(2) 0.93258(2) 0.43515(2)
O7 O 0.8578(2) 0.8829(4) 0.3652(2)
O8 O 0.9400(3) 0.8137(4) 0.3714(2)
N1 N 0.9737(3) 0.6388(5) 0.0245(3)
N2 N 0.9236(3) 0.6334(5) 0.0056(3)
C21 C 0.8930(4) 0.8313(6) 0.3477(3)
C22 C 0.8788(4) 0.7866(6) 0.2936(3)
C23 C 0.8279(3) 0.8090(5) 0.2661(3)
H12 H 0.801256 0.843326 0.283262
C24 C 0.8172(3) 0.7803(6) 0.2136(3)
H13 H 0.783400 0.795367 0.195907
C25 C 0.8571(3) 0.7288(6) 0.1871(3)
C26 C 0.9073(4) 0.7075(6) 0.2150(3)
H14 H 0.933846 0.672228 0.198396
C27 C 0.9181(4) 0.7375(6) 0.2666(3)
H15 H 0.952654 0.724564 0.283648
C28 C 0.8466(3) 0.6996(5) 0.1302(3)
C29 C 0.7912(3) 0.6873(5) 0.1103(3)
H16 H 0.761031 0.698463 0.132836
C30 C 0.7800(3) 0.6582(5) 0.0567(3)
C31 C 0.8261(4) 0.6418(6) 0.0246(3)
C32 C 0.8812(3) 0.6535(6) 0.0435(3)
C33 C 0.8912(3) 0.6840(6) 0.0961(4)
H18 H 0.928099 0.694013 0.108408
C34 C 0.7213(4) 0.6428(5) 0.0362(3)
C35 C 0.6763(3) 0.6891(6) 0.0548(3)
H19 H 0.682406 0.730874 0.081760
C36 C 0.6215(3) 0.6753(6) 0.0344(3)
H20 H 0.591610 0.708141 0.047408
O19 O 0.8866(2) 0.8369(4) 0.5014(2)
O5 O 0.5157(2) 0.6513(4) 0.9740(2)
O6 O 0.5439(2) 0.5175(4) 0.9523(2)
C1 C 0.9861(4) 0.4206(6) 0.6872(4)
C2 C 0.9998(4) 0.4588(6) 0.7420(4)
C3 C 0.9680(4) 0.4365(5) 0.7859(4)
H1 H 0.936774 0.400082 0.781066
C4 C 0.9823(3) 0.4682(6) 0.8380(3)
H2 H 0.959265 0.455242 0.866912
H5 H 0.964170 0.571605 0.924637
H17 H 0.819898 0.622432 0.989250
C37 C 0.6114(3) 0.6109(6) 0.9935(4)
C38 C 0.6572(4) 0.5629(6) 0.9759(4)
H21 H 0.651641 0.518924 0.950257
C39 C 0.7115(4) 0.5802(6) 0.9963(3)
H22 H 0.741924 0.549056 0.982890
C80 C 0.5536(3) 0.5925(6) 0.9718(4)
Pb6 Pb 0.06421(2) 0.06742(2) 0.56485(2)
O1_2 O 0.1382(2) 0.1558(4) 0.4125(2)
O2_2 O 0.1134(2) 0.1631(4) 0.4986(2)
O5_2 O 0.9843(2) 0.1513(4) 0.5260(2)
O6_2 O 0.9561(2) 0.0175(4) 0.5477(2)
O7_2 O 0.6422(2) 0.3829(4) 0.1348(2)
O8_2 O 0.5600(3) 0.3137(4) 0.1286(2)
O15_2 O 0.0485(3) 0.0961(6) 0.3286(3)
O16_2 O 0.0753(4) 0.2793(6) 0.3371(3)
N1_2 N 0.5263(3) 0.1388(5) 0.4755(3)
N2_2 N 0.5764(3) 0.1334(5) 0.4944(3)
C5_2 C 0.4695(3) 0.0185(6) 0.6539(3)
C6_2 C 0.4355(4) 0.0378(6) 0.6980(4)
H3_2 H 0.402868 0.071195 0.692895
C7_2 C 0.4504(4) 0.0072(6) 0.7496(3)
H4_2 H 0.427113 0.018918 0.778506
C8_2 C 0.4543(4) 0.0545(5) 0.5988(4)
C9_2 C 0.4982(4) 0.0787(5) 0.5644(4)
H5_2 H 0.535830 0.071605 0.575363
C10_2 C 0.4847(3) 0.1130(6) 0.5143(3)
C11_2 C 0.4283(3) 0.1215(6) 0.4962(3)
H6_2 H 0.420019 0.141899 0.461457
C12_2 C 0.3849(3) 0.0996(6) 0.5302(3)
C13_2 C 0.3983(4) 0.0643(5) 0.5816(3)
H7_2 H 0.369420 0.047353 0.604262
C14_2 C 0.3247(3) 0.1111(6) 0.5123(3)
C15_2 C 0.3078(3) 0.1113(6) 0.4576(3)
H8_2 H 0.334419 0.100047 0.431362
C16_2 C 0.2522(3) 0.1277(6) 0.4418(3)
H9_2 H 0.242269 0.130076 0.405177
C17_2 C 0.2114(3) 0.1407(5) 0.4801(3)
C18_2 C 0.2272(3) 0.1422(5) 0.5344(3)
H10_2 H 0.200288 0.153562 0.560280
C19_2 C 0.2826(3) 0.1269(6) 0.5502(3)
H11_2 H 0.292403 0.127112 0.586830
C20_2 C 0.1507(3) 0.1552(6) 0.4629(4)
C21_2 C 0.6070(4) 0.3313(6) 0.1523(3)
C22_2 C 0.6212(4) 0.2866(6) 0.2064(3)
C23_2 C 0.6721(3) 0.3090(5) 0.2339(3)
H12_2 H 0.698744 0.343326 0.216738
C24_2 C 0.6828(3) 0.2803(6) 0.2864(3)
H13_2 H 0.716600 0.295367 0.304093
C25_2 C 0.6429(3) 0.2288(6) 0.3129(3)
C26_2 C 0.5927(4) 0.2075(6) 0.2850(3)
H14_2 H 0.566154 0.172228 0.301604
C27_2 C 0.5819(4) 0.2375(6) 0.2334(3)
H15_2 H 0.547346 0.224564 0.216352
C28_2 C 0.6534(3) 0.1996(5) 0.3698(3)
C29_2 C 0.7088(3) 0.1873(5) 0.3897(3)
H16_2 H 0.738969 0.198463 0.367164
C30_2 C 0.7200(3) 0.1582(5) 0.4433(3)
C31_2 C 0.6739(4) 0.1418(6) 0.4754(3)
H17_2 H 0.680102 0.122432 0.510750
C32_2 C 0.6188(3) 0.1535(6) 0.4565(3)
C33_2 C 0.6088(3) 0.1840(6) 0.4039(4)
H18_2 H 0.571901 0.194013 0.391592
C34_2 C 0.7787(4) 0.1428(5) 0.4638(3)
C35_2 C 0.8237(3) 0.1891(6) 0.4452(3)
H19_2 H 0.817594 0.230874 0.418240
C36_2 C 0.8785(3) 0.1753(6) 0.4656(3)
H20_2 H 0.908390 0.208141 0.452592
C37_2 C 0.8886(3) 0.1109(6) 0.5065(4)
C38_2 C 0.8428(4) 0.0629(6) 0.5241(4)
H21_2 H 0.848359 0.018924 0.549743
C39_2 C 0.7885(4) 0.0802(6) 0.5037(3)
H22_2 H 0.758076 0.049056 0.517110
C74_2 C 0.0121(3) 0.0175(6) 0.1700(3)
H41_2 H 0.036418 0.030993 0.142219
C75_2 C 0.0260(4) 0.0424(6) 0.2225(3)
H42_2 H 0.059296 0.073206 0.229796
C79_2 C 0.0029(5) 0.0540(6) 0.3208(4)
C80_2 C 0.9464(3) 0.0925(6) 0.5282(4)
O23_2 O 0.4843(2) 0.3487(4) 0.0260(2)
O24_2 O 0.4561(2) 0.4825(4) 0.0477(2)
H45_2 H 0.0955968 0.244952 0.309493
H46_2 H 0.0430029 0.310779 0.319526
O19_2 O 0.6134(2) 0.3369(4) 0.9986(2)
O4 O 0.5486(3) 0.8569(4) 0.8150(2)
C1_2 C 0.5139(4) 0.9206(6) 0.8128(4)
C2_2 C 0.5002(4) 0.9588(6) 0.7580(4)
C3_2 C 0.5320(4) 0.9365(5) 0.7141(4)
H1_2 H 0.563226 0.900082 0.718934
C4_2 C 0.5177(3) 0.9682(6) 0.6620(3)
H2_2 H 0.540735 0.955242 0.633088
C40_2 C 0.4380(4) 0.8832(7) 0.0136(4)
C45_2 C 0.2793(3) 0.8619(6) 0.0137(3)
H25_2 H 0.250883 0.855649 0.038841
C46_2 C 0.3356(4) 0.8692(6) 0.0312(4)
H26_2 H 0.344686 0.868283 0.068061
H29_2 H 0.167406 0.884281 0.008845
H36_2 H 0.025647 0.921621 0.078021
Pb8 Pb 0.53534(2) 0.80769(2) 0.90634(2)
Pb12 Pb 0.54497(2) 0.93514(2) 0.06987(2)
O11_2 O 0.1246(3) 0.6119(5) 0.6364(2)
O12_2 O 0.0487(3) 0.6938(4) 0.6270(3)
N3_2 N 0.0636(3) 0.8700(5) 0.9945(3)
N4_2 N 0.0135(3) 0.8668(5) 0.9762(3)
C41_2 C 0.3775(4) 0.8777(6) 0.9946(4)
C42_2 C 0.3642(4) 0.8821(6) 0.9393(4)
H23_2 H 0.392817 0.890205 0.914681
C43_2 C 0.3084(4) 0.8745(6) 0.9210(4)
H24_2 H 0.299893 0.876532 0.884102
C44_2 C 0.2652(3) 0.8639(5) 0.9579(3)
C47_2 C 0.2053(3) 0.8517(5) 0.9387(3)
C48_2 C 0.1932(3) 0.8207(5) 0.8862(4)
H27_2 H 0.222757 0.809776 0.862881
C49_2 C 0.1377(3) 0.8061(5) 0.8685(3)
C50_2 C 0.0937(3) 0.8193(6) 0.9031(4)
H28_2 H 0.056681 0.808144 0.891536
C51_2 C 0.1049(3) 0.8500(6) 0.9561(4)
C52_2 C 0.1602(3) 0.8651(6) 0.9736(3)
C53_2 C 0.1271(3) 0.7716(5) 0.8128(3)
C54_2 C 0.1658(3) 0.7185(6) 0.7872(3)
H30_2 H 0.199654 0.704230 0.804976
C55_2 C 0.1553(3) 0.6868(5) 0.7365(3)
H31_2 H 0.181473 0.650131 0.720490
C56_2 C 0.1057(3) 0.7089(5) 0.7086(3)
C57_2 C 0.0656(4) 0.7616(6) 0.7338(3)
H32_2 H 0.031718 0.775056 0.715798
C58_2 C 0.0763(4) 0.7930(6) 0.7843(4)
H33_2 H 0.049801 0.829008 0.800522
C59_2 C 0.0932(3) 0.6692(6) 0.6527(3)
O30_2 O 0.1010(2) 0.6295(5) 0.4976(3)
C60_2 C 0.9731(3) 0.8924(6) 0.0152(4)
C62_2 C 0.8736(3) 0.9122(6) 0.0324(4)
C63_2 C 0.8889(4) 0.9418(5) 0.0842(4)
H35_2 H 0.860922 0.960238 0.107460
C64_2 C 0.9455(4) 0.9443(5) 0.1015(4)
C65_2 C 0.9878(4) 0.9197(6) 0.0667(4)
C66_2 C 0.8131(3) 0.9094(6) 0.0142(3)
C70_2 C 0.7126(4) 0.8984(6) 0.0344(3)
H39_2 H 0.684604 0.896739 0.060184
C71_2 C 0.7699(4) 0.9046(6) 0.0511(4)
H40_2 H 0.779040 0.905450 0.087865
C73_2 C 0.9614(4) 0.9719(6) 0.1581(3)
C77_2 C 0.9400(4) 0.9791(6) 0.2542(3)
H43_2 H 0.915552 0.967765 0.282338
C78_2 C 0.9255(4) 0.9528(6) 0.2009(4)
H44_2 H 0.891900 0.922493 0.194124
O13_2 O 0.6272(3) 0.8707(6) 0.9134(3)
O14_2 O 0.6010(2) 0.8705(5) 0.9976(3)
O17_2 O 0.5913(4) 0.6863(6) 0.8697(3)
C61_2 C 0.9162(3) 0.8871(6) 0.9978(4)
H34_2 H 0.907089 0.866945 0.963208
C67_2 C 0.7970(4) 0.9126(8) 0.9593(4)
H37_2 H 0.824190 0.922004 0.933364
C68_2 C 0.7410(3) 0.9018(6) 0.9436(3)
H38_2 H 0.731744 0.899047 0.906901
C69_2 C 0.6981(3) 0.8950(6) 0.9807(3)
C72_2 C 0.6388(4) 0.8798(6) 0.9622(4)
O26_2 O 0.9506(3) 0.6387(6) 0.5606(3)
O29_2 O 0.9757(3) 0.5932(5) 0.4811(3)
H47_2 H 0.619386 0.666214 0.897533
H48_2 H 0.565734 0.636986 0.859592
O4_2 O 0.0486(3) 0.6431(4) 0.3150(2)
C1_3 C 0.0139(4) 0.5794(6) 0.3128(4)
C2_3 C 0.0002(4) 0.5412(6) 0.2580(4)
C3_3 C 0.0320(4) 0.5635(5) 0.2141(4)
H1_3 H 0.063226 0.599918 0.218934
C4_3 C 0.0177(3) 0.5318(6) 0.1620(3)
H2_3 H 0.040735 0.544758 0.133088
H5_3 H 0.035830 0.428395 0.075363
H17_3 H 0.180102 0.377568 0.010750
C37_3 C 0.3886(3) 0.3891(6) 0.0065(4)
C38_3 C 0.3428(4) 0.4371(6) 0.0241(4)
H21_3 H 0.348359 0.481076 0.049743
C39_3 C 0.2885(4) 0.4198(6) 0.0037(3)
H22_3 H 0.258076 0.450944 0.017110
C80_3 C 0.4464(3) 0.4075(6) 0.0282(4)
Pb8_2 Pb 0.03534(2) 0.69231(2) 0.40634(2)
O7_3 O 0.1422(2) 0.1171(4) 0.6348(2)
O8_3 O 0.0600(3) 0.1863(4) 0.6286(2)
N1_3 N 0.0263(3) 0.3612(5) 0.9755(3)
N2_3 N 0.0764(3) 0.3666(5) 0.9944(3)
C21_3 C 0.1070(4) 0.1687(6) 0.6523(3)
C22_3 C 0.1212(4) 0.2134(6) 0.7064(3)
C23_3 C 0.1721(3) 0.1910(5) 0.7339(3)
H12_3 H 0.198744 0.156674 0.716738
C24_3 C 0.1828(3) 0.2197(6) 0.7864(3)
H13_3 H 0.216600 0.204633 0.804093
C25_3 C 0.1429(3) 0.2712(6) 0.8129(3)
C26_3 C 0.0927(4) 0.2925(6) 0.7850(3)
H14_3 H 0.066154 0.327772 0.801604
C27_3 C 0.0819(4) 0.2625(6) 0.7334(3)
H15_3 H 0.047346 0.275436 0.716352
C28_3 C 0.1534(3) 0.3004(5) 0.8698(3)
C29_3 C 0.2088(3) 0.3127(5) 0.8897(3)
H16_3 H 0.238969 0.301537 0.867164
C30_3 C 0.2200(3) 0.3418(5) 0.9433(3)
C31_3 C 0.1739(4) 0.3582(6) 0.9754(3)
C32_3 C 0.1188(3) 0.3465(6) 0.9565(3)
C33_3 C 0.1088(3) 0.3160(6) 0.9039(4)
H18_3 H 0.071901 0.305987 0.891592
C34_3 C 0.2787(4) 0.3572(5) 0.9638(3)
C35_3 C 0.3237(3) 0.3109(6) 0.9452(3)
H19_3 H 0.317594 0.269126 0.918240
C36_3 C 0.3785(3) 0.3247(6) 0.9656(3)
H20_3 H 0.408390 0.291859 0.952592
O21_2 O 0.5096(3) 0.0500(5) 0.1467(3)
O3 O 0.9904(3) 0.5500(5) 0.3533(3)
C5_3 C 0.9695(3) 0.4815(6) 0.1539(3)
C6_3 C 0.9355(4) 0.4622(6) 0.1980(4)
H3_3 H 0.902868 0.428805 0.192895
C7_3 C 0.9504(4) 0.4928(6) 0.2496(3)
H4_3 H 0.927113 0.481082 0.278506
C8_3 C 0.9543(4) 0.4455(5) 0.0988(4)
C9_3 C 0.9982(4) 0.4213(5) 0.0644(4)
C10_3 C 0.9847(3) 0.3870(6) 0.0143(3)
C12_3 C 0.8849(3) 0.4004(6) 0.0302(3)
C13_3 C 0.8983(4) 0.4357(5) 0.0816(3)
H7_3 H 0.869420 0.452647 0.104262
C14_3 C 0.8247(3) 0.3889(6) 0.0123(3)
C18_3 C 0.7272(3) 0.3578(5) 0.0344(3)
H10_3 H 0.700288 0.346438 0.060280
C19_3 C 0.7826(3) 0.3731(6) 0.0502(3)
H11_3 H 0.792403 0.372888 0.086830
Pb4_2 Pb 0.53979(2) 0.32036(3) 0.90667(2)
O1_3 O 0.6382(2) 0.3442(4) 0.9125(2)
O11_3 O 0.6246(3) 0.8881(5) 0.1364(2)
O12_3 O 0.5487(3) 0.8062(4) 0.1270(3)
O13_3 O 0.1272(3) 0.6293(6) 0.4134(3)
O15_3 O 0.5485(3) 0.4039(6) 0.8286(3)
O16_3 O 0.5753(4) 0.2207(6) 0.8371(3)
O17_3 O 0.0913(4) 0.8137(6) 0.3697(3)
O18_2 O 0.4664(3) 0.4575(4) 0.8571(2)
N3_3 N 0.5636(3) 0.6300(5) 0.4945(3)
N4_3 N 0.5135(3) 0.6332(5) 0.4762(3)
C11_3 C 0.9283(3) 0.3785(6) 0.9962(3)
H6_3 H 0.920019 0.358101 0.961457
C15_3 C 0.8078(3) 0.3887(6) 0.9576(3)
H8_3 H 0.834419 0.399953 0.931362
C16_3 C 0.7522(3) 0.3723(6) 0.9418(3)
H9_3 H 0.742269 0.369924 0.905177
C17_3 C 0.7114(3) 0.3593(5) 0.9801(3)
C20_3 C 0.6507(3) 0.3448(6) 0.9629(4)
C40_3 C 0.9380(4) 0.6168(7) 0.5136(4)
C41_3 C 0.8775(4) 0.6223(6) 0.4946(4)
C42_3 C 0.8642(4) 0.6179(6) 0.4393(4)
H23_3 H 0.892817 0.609795 0.414681
C43_3 C 0.8084(4) 0.6255(6) 0.4210(4)
H24_3 H 0.799893 0.623468 0.384102
C44_3 C 0.7652(3) 0.6361(5) 0.4579(3)
C45_3 C 0.7793(3) 0.6381(6) 0.5137(3)
H25_3 H 0.750883 0.644351 0.538841
C46_3 C 0.8356(4) 0.6308(6) 0.5312(4)
H26_3 H 0.844686 0.631717 0.568061
C47_3 C 0.7053(3) 0.6483(5) 0.4387(3)
C48_3 C 0.6932(3) 0.6793(5) 0.3862(4)
H27_3 H 0.722757 0.690224 0.362881
C49_3 C 0.6377(3) 0.6939(5) 0.3685(3)
C50_3 C 0.5937(3) 0.6807(6) 0.4031(4)
H28_3 H 0.556681 0.691856 0.391536
C51_3 C 0.6049(3) 0.6500(6) 0.4561(4)
C52_3 C 0.6602(3) 0.6349(6) 0.4736(3)
H29_3 H 0.667406 0.615719 0.508845
C53_3 C 0.6271(3) 0.7284(5) 0.3128(3)
C54_3 C 0.6658(3) 0.7815(6) 0.2872(3)
H30_3 H 0.699654 0.795770 0.304976
C55_3 C 0.6553(3) 0.8132(5) 0.2365(3)
H31_3 H 0.681473 0.849869 0.220490
C56_3 C 0.6057(3) 0.7911(5) 0.2086(3)
C57_3 C 0.5656(4) 0.7384(6) 0.2338(3)
H32_3 H 0.531718 0.724944 0.215798
C58_3 C 0.5763(4) 0.7070(6) 0.2843(4)
H33_3 H 0.549801 0.670992 0.300522
C59_3 C 0.5932(3) 0.8308(6) 0.1527(3)
C60_3 C 0.4731(3) 0.6076(6) 0.5152(4)
C61_3 C 0.4162(3) 0.6129(6) 0.4978(4)
H34_3 H 0.407089 0.633055 0.463208
C62_3 C 0.3736(3) 0.5878(6) 0.5324(4)
C63_3 C 0.3889(4) 0.5582(5) 0.5842(4)
H35_3 H 0.360922 0.539762 0.607460
C64_3 C 0.4455(4) 0.5557(5) 0.6015(4)
C65_3 C 0.4878(4) 0.5803(6) 0.5667(4)
H36_3 H 0.525647 0.578379 0.578021
C66_3 C 0.3131(3) 0.5906(6) 0.5142(3)
C67_3 C 0.2970(4) 0.5874(8) 0.4593(4)
H37_3 H 0.324190 0.577996 0.433364
C68_3 C 0.2410(3) 0.5982(6) 0.4436(3)
H38_3 H 0.231744 0.600953 0.406901
C69_3 C 0.1981(3) 0.6050(6) 0.4807(3)
C70_3 C 0.2126(4) 0.6016(6) 0.5344(3)
H39_3 H 0.184604 0.603261 0.560184
C71_3 C 0.2699(4) 0.5954(6) 0.5511(4)
H40_3 H 0.279040 0.594550 0.587865
C72_3 C 0.1388(4) 0.6202(6) 0.4622(4)
C73_3 C 0.4614(4) 0.5281(6) 0.6581(3)
C74_3 C 0.5121(3) 0.4825(6) 0.6700(3)
H41_3 H 0.536418 0.469007 0.642219
C75_3 C 0.5260(4) 0.4576(6) 0.7225(3)
H42_3 H 0.559296 0.426794 0.729796
C76_2 C 0.4901(3) 0.4787(6) 0.7641(3)
C77_3 C 0.4400(4) 0.5209(6) 0.7542(3)
H43_3 H 0.415552 0.532235 0.782338
C78_3 C 0.4255(4) 0.5472(6) 0.7009(4)
H44_3 H 0.391900 0.577507 0.694124
C79_3 C 0.5029(5) 0.4460(6) 0.8208(4)
Pb14_2 Pb 0.96021(2) 0.82036(3) 0.59333(2)
H45_3 H 0.595597 0.255048 0.809493
H46_3 H 0.543003 0.189221 0.819526
H47_3 H 0.119386 0.833786 0.397533
H48_3 H 0.0657336 0.863014 0.359592
Pb2_2 Pb 0.46466(2) 0.19231(2) 0.09366(2)
O13_4 O 0.3728(3) 0.1293(6) 0.0866(3)
O17_4 O 0.4087(4) 0.3137(6) 0.1303(3)
C61_4 C 0.0838(3) 0.1129(6) 0.0022(4)
H34_4 H 0.092911 0.133055 0.036792
C67_4 C 0.2030(4) 0.0874(8) 0.0407(4)
H37_4 H 0.175810 0.077996 0.066636
C68_4 C 0.2590(3) 0.0982(6) 0.0564(3)
H38_4 H 0.268256 0.100953 0.093099
C69_4 C 0.3019(3) 0.1050(6) 0.0193(3)
C72_4 C 0.3612(4) 0.1202(6) 0.0378(4)
O22_2 O 0.4514(3) 0.1431(4) 0.1850(2)
H47_4 H 0.380614 0.333786 0.102467
H48_4 H 0.434266 0.363014 0.140408
C60_4 C 0.0269(3) 0.1076(6) 0.9848(4)
C62_4 C 0.1264(3) 0.0878(6) 0.9676(4)
C63_4 C 0.1111(4) 0.0582(5) 0.9158(4)
H35_4 H 0.139078 0.039762 0.892540
C64_4 C 0.0545(4) 0.0557(5) 0.8985(4)
C65_4 C 0.0122(4) 0.0803(6) 0.9333(4)
C66_4 C 0.1869(3) 0.0906(6) 0.9858(3)
C70_4 C 0.2874(4) 0.1016(6) 0.9656(3)
H39_4 H 0.315396 0.103261 0.939816
C71_4 C 0.2301(4) 0.0954(6) 0.9489(4)
H40_4 H 0.220960 0.094550 0.912135
C73_4 C 0.0386(4) 0.0281(6) 0.8419(3)
C77_4 C 0.0600(4) 0.0209(6) 0.7458(3)
H43_4 H 0.084448 0.032235 0.717662
C78_4 C 0.0745(4) 0.0472(6) 0.7991(4)
H44_4 H 0.108100 0.077507 0.805876
O11_4 O 0.8754(3) 0.3881(5) 0.3636(2)
O12_4 O 0.9513(3) 0.3062(4) 0.3730(3)
N3_4 N 0.9364(3) 0.1300(5) 0.0055(3)
N4_4 N 0.9865(3) 0.1332(5) 0.0238(3)
C41_4 C 0.6225(4) 0.1223(6) 0.0054(4)
C42_4 C 0.6358(4) 0.1179(6) 0.0607(4)
H23_4 H 0.607183 0.109795 0.085319
C43_4 C 0.6916(4) 0.1255(6) 0.0790(4)
H24_4 H 0.700107 0.123468 0.115898
C44_4 C 0.7348(3) 0.1361(5) 0.0421(3)
C47_4 C 0.7947(3) 0.1483(5) 0.0613(3)
C48_4 C 0.8068(3) 0.1793(5) 0.1138(4)
H27_4 H 0.777243 0.190224 0.137119
C49_4 C 0.8623(3) 0.1939(5) 0.1315(3)
C50_4 C 0.9063(3) 0.1807(6) 0.0969(4)
H28_4 H 0.943319 0.191856 0.108464
C51_4 C 0.8951(3) 0.1500(6) 0.0439(4)
C52_4 C 0.8398(3) 0.1349(6) 0.0264(3)
C53_4 C 0.8729(3) 0.2284(5) 0.1872(3)
C54_4 C 0.8342(3) 0.2815(6) 0.2128(3)
H30_4 H 0.800346 0.295770 0.195024
C55_4 C 0.8447(3) 0.3132(5) 0.2635(3)
H31_4 H 0.818527 0.349869 0.279510
C56_4 C 0.8943(3) 0.2911(5) 0.2914(3)
C57_4 C 0.9344(4) 0.2384(6) 0.2662(3)
H32_4 H 0.968282 0.224944 0.284202
C58_4 C 0.9237(4) 0.2070(6) 0.2157(4)
H33_4 H 0.950199 0.170992 0.199478
C59_4 C 0.9068(3) 0.3308(6) 0.3473(3)
C1_4 C 0.4861(4) 0.0794(6) 0.1872(4)
C2_4 C 0.4998(4) 0.0412(6) 0.2420(4)
C3_4 C 0.4680(4) 0.0635(5) 0.2859(4)
H1_4 H 0.436774 0.099918 0.281066
C4_4 C 0.4823(3) 0.0318(6) 0.3380(3)
H2_4 H 0.459265 0.044758 0.366912
C40_4 C 0.5620(4) 0.1168(7) 0.9864(4)
C45_4 C 0.7207(3) 0.1381(6) 0.9863(3)
H25_4 H 0.749117 0.144351 0.961159
C46_4 C 0.6644(4) 0.1308(6) 0.9688(4)
H26_4 H 0.655314 0.131717 0.931939
H29_4 H 0.832594 0.115719 0.991155
H36_4 H 0.974353 0.078379 0.921979
O1_4 O 0.8618(2) 0.8442(4) 0.5875(2)
O7_4 O 0.3578(2) 0.6171(4) 0.8652(2)
O8_4 O 0.4400(3) 0.6863(4) 0.8714(2)
O15_4 O 0.9515(3) 0.9039(6) 0.6714(3)
O16_4 O 0.9247(4) 0.7207(6) 0.6629(3)
N1_4 N 0.4737(3) 0.8612(5) 0.5245(3)
N2_4 N 0.4236(3) 0.8666(5) 0.5056(3)
C5_4 C 0.5305(3) 0.9815(6) 0.3461(3)
C6_4 C 0.5645(4) 0.9622(6) 0.3020(4)
H3_4 H 0.597132 0.928805 0.307105
C7_4 C 0.5496(4) 0.9928(6) 0.2504(3)
H4_4 H 0.572887 0.981082 0.221494
C8_4 C 0.5457(4) 0.9455(5) 0.4012(4)
C9_4 C 0.5018(4) 0.9213(5) 0.4356(4)
H5_4 H 0.464170 0.928395 0.424637
C10_4 C 0.5153(3) 0.8870(6) 0.4857(3)
C11_4 C 0.5717(3) 0.8785(6) 0.5038(3)
H6_4 H 0.579981 0.858101 0.538543
C12_4 C 0.6151(3) 0.9004(6) 0.4698(3)
C13_4 C 0.6017(4) 0.9357(5) 0.4184(3)
H7_4 H 0.630580 0.952647 0.395738
C14_4 C 0.6753(3) 0.8889(6) 0.4877(3)
C15_4 C 0.6922(3) 0.8887(6) 0.5424(3)
H8_4 H 0.665581 0.899953 0.568638
C16_4 C 0.7478(3) 0.8723(6) 0.5582(3)
H9_4 H 0.757731 0.869924 0.594823
C17_4 C 0.7886(3) 0.8593(5) 0.5199(3)
C18_4 C 0.7728(3) 0.8578(5) 0.4656(3)
H10_4 H 0.799712 0.846438 0.439720
C19_4 C 0.7174(3) 0.8731(6) 0.4498(3)
H11_4 H 0.707597 0.872888 0.413170
C20_4 C 0.8493(3) 0.8448(6) 0.5371(4)
C21_4 C 0.3930(4) 0.6687(6) 0.8477(3)
C22_4 C 0.3788(4) 0.7134(6) 0.7936(3)
C23_4 C 0.3279(3) 0.6910(5) 0.7661(3)
H12_4 H 0.301256 0.656674 0.783262
C24_4 C 0.3172(3) 0.7197(6) 0.7136(3)
H13_4 H 0.283400 0.704633 0.695907
C25_4 C 0.3571(3) 0.7712(6) 0.6871(3)
C26_4 C 0.4073(4) 0.7925(6) 0.7150(3)
H14_4 H 0.433846 0.827772 0.698396
C27_4 C 0.4181(4) 0.7625(6) 0.7666(3)
H15_4 H 0.452654 0.775436 0.783648
C28_4 C 0.3466(3) 0.8004(5) 0.6302(3)
C29_4 C 0.2912(3) 0.8127(5) 0.6103(3)
H16_4 H 0.261031 0.801537 0.632836
C30_4 C 0.2800(3) 0.8418(5) 0.5567(3)
C31_4 C 0.3261(4) 0.8582(6) 0.5246(3)
H17_4 H 0.319898 0.877568 0.489250
C32_4 C 0.3812(3) 0.8465(6) 0.5435(3)
C33_4 C 0.3912(3) 0.8160(6) 0.5961(4)
H18_4 H 0.428099 0.805987 0.608408
C34_4 C 0.2213(4) 0.8572(5) 0.5362(3)
C35_4 C 0.1763(3) 0.8109(6) 0.5548(3)
H19_4 H 0.182406 0.769126 0.581760
C36_4 C 0.1215(3) 0.8247(6) 0.5344(3)
H20_4 H 0.091610 0.791859 0.547408
C37_4 C 0.1114(3) 0.8891(6) 0.4935(4)
C38_4 C 0.1572(4) 0.9371(6) 0.4759(4)
H21_4 H 0.151641 0.981076 0.450257
C39_4 C 0.2115(4) 0.9198(6) 0.4963(3)
H22_4 H 0.241924 0.950944 0.482890
C74_4 C 0.9879(3) 0.9825(6) 0.8300(3)
H41_4 H 0.963582 0.969007 0.857781
C75_4 C 0.9740(4) 0.9576(6) 0.7775(3)
H42_4 H 0.940704 0.926794 0.770204
C79_4 C 0.9971(5) 0.9460(6) 0.6792(4)
C80_4 C 0.0536(3) 0.9075(6) 0.4718(4)
H45_4 H 0.904403 0.755048 0.690507
H46_4 H 0.956997 0.689221 0.680474
O31 O 0.9664(3) 0.0425(4) 0.3571(2)
C76_3 C 0.9901(3) 0.0213(6) 0.2641(3)
O31_2 O 0.0336(3) 0.9575(4) 0.6429(2)
C76_4 C 0.0099(3) 0.9787(6) 0.7359(3)
loop_
_geom_bond_atom_site_label_1
_geom_bond_atom_site_label_2
_geom_bond_site_symmetry_1
_geom_bond_site_symmetry_2
Pb2 O13 1_555 1_555
Pb3 O11 1_555 1_555
Pb4 O1 1_555 1_555
O1 C20 1_555 1_555
O2 Pb4 1_555 1_555
O9 C40 1_555 1_555
O27 C40 1_555 1_555
O11 C59 1_555 1_555
O12 Pb3 1_555 1_555
O13 C72 1_555 1_555
O14 Pb2 1_555 1_555
O15 Pb4 1_555 1_555
O16 Pb4 1_555 1_555
O17 Pb2 1_555 1_555
O18 C79 1_555 1_555
N3 N4 1_555 1_555
N4 C60 1_555 1_555
H6 C11 1_555 1_555
H8 C15 1_555 1_555
C16 C15 1_555 1_555
H9 C16 1_555 1_555
C17 C16 1_555 1_555
C20 O2 1_555 1_555
C40 C41 1_555 1_555
C41 C42 1_555 1_555
C42 H23 1_555 1_555
C43 C42 1_555 1_555
H24 C43 1_555 1_555
C44 C43 1_555 1_555
C45 C44 1_555 1_555
H25 C45 1_555 1_555
C46 C41 1_555 1_555
H26 C46 1_555 1_555
C47 C44 1_555 1_555
C48 C47 1_555 1_555
H27 C48 1_555 1_555
C49 C48 1_555 1_555
C50 C49 1_555 1_555
H28 C50 1_555 1_555
C51 N3 1_555 1_555
C52 C47 1_555 1_555
H29 C52 1_555 1_555
C53 C49 1_555 1_555
C54 C53 1_555 1_555
H30 C54 1_555 1_555
C55 C54 1_555 1_555
H31 C55 1_555 1_555
C56 C55 1_555 1_555
C57 C56 1_555 1_555
H32 C57 1_555 1_555
C58 C53 1_555 1_555
H33 C58 1_555 1_555
C59 O12 1_555 1_555
C60 C61 1_555 1_555
C61 H34 1_555 1_555
C62 C61 1_555 1_555
C63 C62 1_555 1_555
H35 C63 1_555 1_555
C64 C63 1_555 1_555
C65 C60 1_555 1_555
H36 C65 1_555 1_555
C66 C62 1_555 1_555
C67 C66 1_555 1_555
H37 C67 1_555 1_555
C68 C67 1_555 1_555
H38 C68 1_555 1_555
C69 C68 1_555 1_555
C70 C69 1_555 1_555
H39 C70 1_555 1_555
C71 C66 1_555 1_555
H40 C71 1_555 1_555
C72 O14 1_555 1_555
C73 C64 1_555 1_555
C74 C73 1_555 1_555
H41 C74 1_555 1_555
C75 C74 1_555 1_555
H42 C75 1_555 1_555
C76 C75 1_555 1_555
C77 C76 1_555 1_555
H43 C77 1_555 1_555
C78 C73 1_555 1_555
H44 C78 1_555 1_555
C79 O15 1_555 1_555
Pb5 O18 1_555 1_555
Pb11 O27 1_555 1_555
Pb13 O14 1_555 1_555
Pb14 O9 1_555 1_555
O22 Pb2 1_555 1_555
O25 Pb4 1_555 1_555
O26 Pb3 1_555 1_555
C17 C20 1_555 1_555
C45 C46 1_555 1_555
C50 C51 1_555 1_555
C51 C52 1_555 1_555
C56 C59 1_555 1_555
C57 C58 1_555 1_555
C64 C65 1_555 1_555
C69 C72 1_555 1_555
C70 C71 1_555 1_555
C76 C79 1_555 1_555
C77 C78 1_555 1_555
O16 H45 1_555 1_555
O16 H46 1_555 1_555
O17 H47 1_555 1_555
O17 H48 1_555 1_555
C6 C5 1_555 1_555
H3 C6 1_555 1_555
H4 C7 1_555 1_555
C8 C5 1_555 1_555
C9 C8 1_555 1_555
C13 C8 1_555 1_555
H7 C13 1_555 1_555
C14 C12 1_555 1_555
H10 C18 1_555 1_555
C19 C14 1_555 1_555
H11 C19 1_555 1_555
Pb11 O20 1_555 1_555
C6 C7 1_555 1_555
C9 C10 1_555 1_555
C12 C13 1_555 1_555
C18 C19 1_555 1_555
Pb1 O7 1_555 1_555
O7 C21 1_555 1_555
O8 Pb1 1_555 1_555
N1 N2 1_555 1_555
N2 C32 1_555 1_555
C21 O8 1_555 1_555
C22 C21 1_555 1_555
C23 C22 1_555 1_555
H12 C23 1_555 1_555
C24 C23 1_555 1_555
H13 C24 1_555 1_555
C25 C24 1_555 1_555
C26 C25 1_555 1_555
H14 C26 1_555 1_555
C27 C22 1_555 1_555
H15 C27 1_555 1_555
C28 C25 1_555 1_555
C29 C28 1_555 1_555
H16 C29 1_555 1_555
C30 C29 1_555 1_555
C31 C30 1_555 1_555
C32 C31 1_555 1_555
C33 C28 1_555 1_555
H18 C33 1_555 1_555
C34 C30 1_555 1_555
C35 C34 1_555 1_555
H19 C35 1_555 1_555
C36 C35 1_555 1_555
H20 C36 1_555 1_555
O19 Pb1 1_555 1_555
C26 C27 1_555 1_555
C32 C33 1_555 1_555
O22 C1 1_555 1_555
O5 C80 1_555 1_555
O6 C80 1_555 1_555
C1 C2 1_555 1_555
C2 C3 1_555 1_555
C3 H1 1_555 1_555
C4 C3 1_555 1_555
H2 C4 1_555 1_555
C38 C37 1_555 1_555
H21 C38 1_555 1_555
H22 C39 1_555 1_555
C80 C37 1_555 1_555
Pb7 O5 1_555 1_555
O6 Pb7 1_555 1_555
C38 C39 1_555 1_555
Pb5 O7_2 1_555 1_555
Pb14 O1_2 1_555 1_555
O1_2 C20_2 1_555 1_555
O2_2 Pb14 1_555 1_555
O5_2 C80_2 1_555 1_555
O6_2 C80_2 1_555 1_555
O7_2 C21_2 1_555 1_555
O8_2 Pb5 1_555 1_555
O15_2 Pb14 1_555 1_555
O16_2 Pb14 1_555 1_555
N1_2 N2_2 1_555 1_555
N2_2 C32_2 1_555 1_555
C6_2 C5_2 1_555 1_555
H3_2 C6_2 1_555 1_555
H4_2 C7_2 1_555 1_555
C8_2 C5_2 1_555 1_555
C9_2 C8_2 1_555 1_555
H5_2 C9_2 1_555 1_555
C10_2 N1_2 1_555 1_555
C11_2 C10_2 1_555 1_555
H6_2 C11_2 1_555 1_555
C12_2 C11_2 1_555 1_555
C13_2 C8_2 1_555 1_555
H7_2 C13_2 1_555 1_555
C14_2 C12_2 1_555 1_555
C15_2 C14_2 1_555 1_555
H8_2 C15_2 1_555 1_555
C16_2 C15_2 1_555 1_555
H9_2 C16_2 1_555 1_555
C17_2 C16_2 1_555 1_555
C18_2 C17_2 1_555 1_555
H10_2 C18_2 1_555 1_555
C19_2 C14_2 1_555 1_555
H11_2 C19_2 1_555 1_555
C20_2 O2_2 1_555 1_555
C21_2 O8_2 1_555 1_555
C22_2 C21_2 1_555 1_555
C23_2 C22_2 1_555 1_555
H12_2 C23_2 1_555 1_555
C24_2 C23_2 1_555 1_555
H13_2 C24_2 1_555 1_555
C25_2 C24_2 1_555 1_555
C26_2 C25_2 1_555 1_555
H14_2 C26_2 1_555 1_555
C27_2 C22_2 1_555 1_555
H15_2 C27_2 1_555 1_555
C28_2 C25_2 1_555 1_555
C29_2 C28_2 1_555 1_555
H16_2 C29_2 1_555 1_555
C30_2 C29_2 1_555 1_555
C31_2 C30_2 1_555 1_555
H17_2 C31_2 1_555 1_555
C32_2 C31_2 1_555 1_555
C33_2 C28_2 1_555 1_555
H18_2 C33_2 1_555 1_555
C34_2 C30_2 1_555 1_555
C35_2 C34_2 1_555 1_555
H19_2 C35_2 1_555 1_555
C36_2 C35_2 1_555 1_555
H20_2 C36_2 1_555 1_555
C37_2 C36_2 1_555 1_555
C38_2 C37_2 1_555 1_555
H21_2 C38_2 1_555 1_555
C39_2 C34_2 1_555 1_555
H22_2 C39_2 1_555 1_555
H41_2 C74_2 1_555 1_555
C75_2 C74_2 1_555 1_555
H42_2 C75_2 1_555 1_555
C79_2 O15_2 1_555 1_555
C80_2 C37_2 1_555 1_555
Pb6 O2_2 1_555 1_555
O23_2 Pb5 1_555 1_555
O24_2 Pb5 1_555 1_555
C6_2 C7_2 1_555 1_555
C9_2 C10_2 1_555 1_555
C12_2 C13_2 1_555 1_555
C17_2 C20_2 1_555 1_555
C18_2 C19_2 1_555 1_555
C26_2 C27_2 1_555 1_555
C32_2 C33_2 1_555 1_555
C38_2 C39_2 1_555 1_555
O16_2 H45_2 1_555 1_555
O16_2 H46_2 1_555 1_555
O21 C1_2 1_555 1_555
O4 C1_2 1_555 1_555
O25 C40_2 1_555 1_555
C1_2 C2_2 1_555 1_555
C2_2 C3_2 1_555 1_555
C3_2 H1_2 1_555 1_555
C4_2 C3_2 1_555 1_555
H2_2 C4_2 1_555 1_555
H25_2 C45_2 1_555 1_555
H26_2 C46_2 1_555 1_555
Pb8 O21 1_555 1_555
Pb12 O25 1_555 1_555
O4 Pb8 1_555 1_555
C45_2 C46_2 1_555 1_555
Pb11 O11_2 1_555 1_555
O11_2 C59_2 1_555 1_555
O12_2 Pb11 1_555 1_555
N3_2 N4_2 1_555 1_555
C41_2 C42_2 1_555 1_555
C42_2 H23_2 1_555 1_555
C43_2 C42_2 1_555 1_555
H24_2 C43_2 1_555 1_555
C44_2 C43_2 1_555 1_555
C47_2 C44_2 1_555 1_555
C48_2 C47_2 1_555 1_555
H27_2 C48_2 1_555 1_555
C49_2 C48_2 1_555 1_555
C50_2 C49_2 1_555 1_555
H28_2 C50_2 1_555 1_555
C51_2 N3_2 1_555 1_555
C52_2 C47_2 1_555 1_555
C53_2 C49_2 1_555 1_555
C54_2 C53_2 1_555 1_555
H30_2 C54_2 1_555 1_555
C55_2 C54_2 1_555 1_555
H31_2 C55_2 1_555 1_555
C56_2 C55_2 1_555 1_555
C57_2 C56_2 1_555 1_555
H32_2 C57_2 1_555 1_555
C58_2 C53_2 1_555 1_555
H33_2 C58_2 1_555 1_555
C59_2 O12_2 1_555 1_555
Pb8 O28 1_555 1_555
O30_2 Pb11 1_555 1_555
C50_2 C51_2 1_555 1_555
C51_2 C52_2 1_555 1_555
C56_2 C59_2 1_555 1_555
C57_2 C58_2 1_555 1_555
C63_2 C62_2 1_555 1_555
H35_2 C63_2 1_555 1_555
C64_2 C63_2 1_555 1_555
C65_2 C60_2 1_555 1_555
C66_2 C62_2 1_555 1_555
H39_2 C70_2 1_555 1_555
C71_2 C66_2 1_555 1_555
H40_2 C71_2 1_555 1_555
C73_2 C64_2 1_555 1_555
H43_2 C77_2 1_555 1_555
C78_2 C73_2 1_555 1_555
H44_2 C78_2 1_555 1_555
C64_2 C65_2 1_555 1_555
C70_2 C71_2 1_555 1_555
C77_2 C78_2 1_555 1_555
Pb8 O13_2 1_555 1_555
O13_2 C72_2 1_555 1_555
O14_2 Pb8 1_555 1_555
O17_2 Pb8 1_555 1_555
C61_2 H34_2 1_555 1_555
H37_2 C67_2 1_555 1_555
C68_2 C67_2 1_555 1_555
H38_2 C68_2 1_555 1_555
C69_2 C68_2 1_555 1_555
C72_2 O14_2 1_555 1_555
C69_2 C72_2 1_555 1_555
O17_2 H47_2 1_555 1_555
O17_2 H48_2 1_555 1_555
O4_2 C1_3 1_555 1_555
O23_2 C80_3 1_555 1_555
O24_2 C80_3 1_555 1_555
C1_3 C2_3 1_555 1_555
C2_3 C3_3 1_555 1_555
C3_3 H1_3 1_555 1_555
C4_3 C3_3 1_555 1_555
H2_3 C4_3 1_555 1_555
C38_3 C37_3 1_555 1_555
H21_3 C38_3 1_555 1_555
H22_3 C39_3 1_555 1_555
C80_3 C37_3 1_555 1_555
O4_2 Pb8_2 1_555 1_555
C38_3 C39_3 1_555 1_555
Pb6 O7_3 1_555 1_555
O7_3 C21_3 1_555 1_555
O8_3 Pb6 1_555 1_555
N1_3 N2_3 1_555 1_555
N2_3 C32_3 1_555 1_555
C21_3 O8_3 1_555 1_555
C22_3 C21_3 1_555 1_555
C23_3 C22_3 1_555 1_555
H12_3 C23_3 1_555 1_555
C24_3 C23_3 1_555 1_555
H13_3 C24_3 1_555 1_555
C25_3 C24_3 1_555 1_555
C26_3 C25_3 1_555 1_555
H14_3 C26_3 1_555 1_555
C27_3 C22_3 1_555 1_555
H15_3 C27_3 1_555 1_555
C28_3 C25_3 1_555 1_555
C29_3 C28_3 1_555 1_555
H16_3 C29_3 1_555 1_555
C30_3 C29_3 1_555 1_555
C31_3 C30_3 1_555 1_555
C32_3 C31_3 1_555 1_555
C33_3 C28_3 1_555 1_555
H18_3 C33_3 1_555 1_555
C34_3 C30_3 1_555 1_555
C35_3 C34_3 1_555 1_555
H19_3 C35_3 1_555 1_555
C36_3 C35_3 1_555 1_555
H20_3 C36_3 1_555 1_555
C26_3 C27_3 1_555 1_555
C32_3 C33_3 1_555 1_555
C6_3 C5_3 1_555 1_555
H3_3 C6_3 1_555 1_555
H4_3 C7_3 1_555 1_555
C8_3 C5_3 1_555 1_555
C9_3 C8_3 1_555 1_555
C13_3 C8_3 1_555 1_555
H7_3 C13_3 1_555 1_555
C14_3 C12_3 1_555 1_555
H10_3 C18_3 1_555 1_555
C19_3 C14_3 1_555 1_555
H11_3 C19_3 1_555 1_555
Pb13 O3 1_555 1_555
C6_3 C7_3 1_555 1_555
C9_3 C10_3 1_555 1_555
C12_3 C13_3 1_555 1_555
C18_3 C19_3 1_555 1_555
Pb8_2 O13_3 1_555 1_555
Pb12 O11_3 1_555 1_555
Pb4_2 O1_3 1_555 1_555
O1_3 C20_3 1_555 1_555
O19_2 Pb4_2 1_555 1_555
O26_2 C40_3 1_555 1_555
O29_2 C40_3 1_555 1_555
O11_3 C59_3 1_555 1_555
O12_3 Pb12 1_555 1_555
O13_3 C72_3 1_555 1_555
O30_2 Pb8_2 1_555 1_555
O15_3 Pb4_2 1_555 1_555
O16_3 Pb4_2 1_555 1_555
O17_3 Pb8_2 1_555 1_555
O18_2 C79_3 1_555 1_555
N3_3 N4_3 1_555 1_555
N4_3 C60_3 1_555 1_555
H6_3 C11_3 1_555 1_555
H8_3 C15_3 1_555 1_555
C16_3 C15_3 1_555 1_555
H9_3 C16_3 1_555 1_555
C17_3 C16_3 1_555 1_555
C20_3 O19_2 1_555 1_555
C40_3 C41_3 1_555 1_555
C41_3 C42_3 1_555 1_555
C42_3 H23_3 1_555 1_555
C43_3 C42_3 1_555 1_555
H24_3 C43_3 1_555 1_555
C44_3 C43_3 1_555 1_555
C45_3 C44_3 1_555 1_555
H25_3 C45_3 1_555 1_555
C46_3 C41_3 1_555 1_555
H26_3 C46_3 1_555 1_555
C47_3 C44_3 1_555 1_555
C48_3 C47_3 1_555 1_555
H27_3 C48_3 1_555 1_555
C49_3 C48_3 1_555 1_555
C50_3 C49_3 1_555 1_555
H28_3 C50_3 1_555 1_555
C51_3 N3_3 1_555 1_555
C52_3 C47_3 1_555 1_555
H29_3 C52_3 1_555 1_555
C53_3 C49_3 1_555 1_555
C54_3 C53_3 1_555 1_555
H30_3 C54_3 1_555 1_555
C55_3 C54_3 1_555 1_555
H31_3 C55_3 1_555 1_555
C56_3 C55_3 1_555 1_555
C57_3 C56_3 1_555 1_555
H32_3 C57_3 1_555 1_555
C58_3 C53_3 1_555 1_555
H33_3 C58_3 1_555 1_555
C59_3 O12_3 1_555 1_555
C60_3 C61_3 1_555 1_555
C61_3 H34_3 1_555 1_555
C62_3 C61_3 1_555 1_555
C63_3 C62_3 1_555 1_555
H35_3 C63_3 1_555 1_555
C64_3 C63_3 1_555 1_555
C65_3 C60_3 1_555 1_555
H36_3 C65_3 1_555 1_555
C66_3 C62_3 1_555 1_555
C67_3 C66_3 1_555 1_555
H37_3 C67_3 1_555 1_555
C68_3 C67_3 1_555 1_555
H38_3 C68_3 1_555 1_555
C69_3 C68_3 1_555 1_555
C70_3 C69_3 1_555 1_555
H39_3 C70_3 1_555 1_555
C71_3 C66_3 1_555 1_555
H40_3 C71_3 1_555 1_555
C72_3 O30_2 1_555 1_555
C73_3 C64_3 1_555 1_555
C74_3 C73_3 1_555 1_555
H41_3 C74_3 1_555 1_555
C75_3 C74_3 1_555 1_555
H42_3 C75_3 1_555 1_555
C76_2 C75_3 1_555 1_555
C77_3 C76_2 1_555 1_555
H43_3 C77_3 1_555 1_555
C78_3 C73_3 1_555 1_555
H44_3 C78_3 1_555 1_555
C79_3 O15_3 1_555 1_555
Pb7 O18_2 1_555 1_555
Pb13 O29_2 1_555 1_555
Pb14_2 O26_2 1_555 1_555
O26 Pb4_2 1_555 1_555
C17_3 C20_3 1_555 1_555
C45_3 C46_3 1_555 1_555
C50_3 C51_3 1_555 1_555
C51_3 C52_3 1_555 1_555
C56_3 C59_3 1_555 1_555
C57_3 C58_3 1_555 1_555
C64_3 C65_3 1_555 1_555
C69_3 C72_3 1_555 1_555
C70_3 C71_3 1_555 1_555
C76_2 C79_3 1_555 1_555
C77_3 C78_3 1_555 1_555
O16_3 H45_3 1_555 1_555
O16_3 H46_3 1_555 1_555
O17_3 H47_3 1_555 1_555
O17_3 H48_3 1_555 1_555
Pb2_2 O13_4 1_555 1_555
O13_4 C72_4 1_555 1_555
O30 Pb2_2 1_555 1_555
O17_4 Pb2_2 1_555 1_555
C61_4 H34_4 1_555 1_555
H37_4 C67_4 1_555 1_555
C68_4 C67_4 1_555 1_555
H38_4 C68_4 1_555 1_555
C69_4 C68_4 1_555 1_555
C72_4 O30 1_555 1_555
O21_2 Pb2_2 1_555 1_555
O22_2 Pb2_2 1_555 1_555
O29 Pb2_2 1_555 1_555
C69_4 C72_4 1_555 1_555
O17_4 H47_4 1_555 1_555
O17_4 H48_4 1_555 1_555
C63_4 C62_4 1_555 1_555
H35_4 C63_4 1_555 1_555
C64_4 C63_4 1_555 1_555
C65_4 C60_4 1_555 1_555
C66_4 C62_4 1_555 1_555
H39_4 C70_4 1_555 1_555
C71_4 C66_4 1_555 1_555
H40_4 C71_4 1_555 1_555
C73_4 C64_4 1_555 1_555
H43_4 C77_4 1_555 1_555
C78_4 C73_4 1_555 1_555
H44_4 C78_4 1_555 1_555
C64_4 C65_4 1_555 1_555
C70_4 C71_4 1_555 1_555
C77_4 C78_4 1_555 1_555
Pb13 O11_4 1_555 1_555
O11_4 C59_4 1_555 1_555
O12_4 Pb13 1_555 1_555
N3_4 N4_4 1_555 1_555
C41_4 C42_4 1_555 1_555
C42_4 H23_4 1_555 1_555
C43_4 C42_4 1_555 1_555
H24_4 C43_4 1_555 1_555
C44_4 C43_4 1_555 1_555
C47_4 C44_4 1_555 1_555
C48_4 C47_4 1_555 1_555
H27_4 C48_4 1_555 1_555
C49_4 C48_4 1_555 1_555
C50_4 C49_4 1_555 1_555
H28_4 C50_4 1_555 1_555
C51_4 N3_4 1_555 1_555
C52_4 C47_4 1_555 1_555
C53_4 C49_4 1_555 1_555
C54_4 C53_4 1_555 1_555
H30_4 C54_4 1_555 1_555
C55_4 C54_4 1_555 1_555
H31_4 C55_4 1_555 1_555
C56_4 C55_4 1_555 1_555
C57_4 C56_4 1_555 1_555
H32_4 C57_4 1_555 1_555
C58_4 C53_4 1_555 1_555
H33_4 C58_4 1_555 1_555
C59_4 O12_4 1_555 1_555
C50_4 C51_4 1_555 1_555
C51_4 C52_4 1_555 1_555
C56_4 C59_4 1_555 1_555
C57_4 C58_4 1_555 1_555
O21_2 C1_4 1_555 1_555
O22_2 C1_4 1_555 1_555
O26 C40_4 1_555 1_555
C1_4 C2_4 1_555 1_555
C2_4 C3_4 1_555 1_555
C3_4 H1_4 1_555 1_555
C4_4 C3_4 1_555 1_555
H2_4 C4_4 1_555 1_555
H25_4 C45_4 1_555 1_555
H26_4 C46_4 1_555 1_555
C45_4 C46_4 1_555 1_555
Pb7 O7_4 1_555 1_555
Pb14_2 O1_4 1_555 1_555
O1_4 C20_4 1_555 1_555
O19 Pb14_2 1_555 1_555
O23 C80_4 1_555 1_555
O24 C80_4 1_555 1_555
O7_4 C21_4 1_555 1_555
O8_4 Pb7 1_555 1_555
O15_4 Pb14_2 1_555 1_555
O16_4 Pb14_2 1_555 1_555
N1_4 N2_4 1_555 1_555
N2_4 C32_4 1_555 1_555
C6_4 C5_4 1_555 1_555
H3_4 C6_4 1_555 1_555
H4_4 C7_4 1_555 1_555
C8_4 C5_4 1_555 1_555
C9_4 C8_4 1_555 1_555
H5_4 C9_4 1_555 1_555
C10_4 N1_4 1_555 1_555
C11_4 C10_4 1_555 1_555
H6_4 C11_4 1_555 1_555
C12_4 C11_4 1_555 1_555
C13_4 C8_4 1_555 1_555
H7_4 C13_4 1_555 1_555
C14_4 C12_4 1_555 1_555
C15_4 C14_4 1_555 1_555
H8_4 C15_4 1_555 1_555
C16_4 C15_4 1_555 1_555
H9_4 C16_4 1_555 1_555
C17_4 C16_4 1_555 1_555
C18_4 C17_4 1_555 1_555
H10_4 C18_4 1_555 1_555
C19_4 C14_4 1_555 1_555
H11_4 C19_4 1_555 1_555
C20_4 O19 1_555 1_555
C21_4 O8_4 1_555 1_555
C22_4 C21_4 1_555 1_555
C23_4 C22_4 1_555 1_555
H12_4 C23_4 1_555 1_555
C24_4 C23_4 1_555 1_555
H13_4 C24_4 1_555 1_555
C25_4 C24_4 1_555 1_555
C26_4 C25_4 1_555 1_555
H14_4 C26_4 1_555 1_555
C27_4 C22_4 1_555 1_555
H15_4 C27_4 1_555 1_555
C28_4 C25_4 1_555 1_555
C29_4 C28_4 1_555 1_555
H16_4 C29_4 1_555 1_555
C30_4 C29_4 1_555 1_555
C31_4 C30_4 1_555 1_555
H17_4 C31_4 1_555 1_555
C32_4 C31_4 1_555 1_555
C33_4 C28_4 1_555 1_555
H18_4 C33_4 1_555 1_555
C34_4 C30_4 1_555 1_555
C35_4 C34_4 1_555 1_555
H19_4 C35_4 1_555 1_555
C36_4 C35_4 1_555 1_555
H20_4 C36_4 1_555 1_555
C37_4 C36_4 1_555 1_555
C38_4 C37_4 1_555 1_555
H21_4 C38_4 1_555 1_555
C39_4 C34_4 1_555 1_555
H22_4 C39_4 1_555 1_555
H41_4 C74_4 1_555 1_555
C75_4 C74_4 1_555 1_555
H42_4 C75_4 1_555 1_555
C79_4 O15_4 1_555 1_555
C80_4 C37_4 1_555 1_555
C6_4 C7_4 1_555 1_555
C9_4 C10_4 1_555 1_555
C12_4 C13_4 1_555 1_555
C17_4 C20_4 1_555 1_555
C18_4 C19_4 1_555 1_555
C26_4 C27_4 1_555 1_555
C32_4 C33_4 1_555 1_555
C38_4 C39_4 1_555 1_555
O16_4 H45_4 1_555 1_555
O16_4 H46_4 1_555 1_555

#END
