
###############################################################################
#
# This file contains modified crystal structure data generated from the
# MOF subset of the Cambridge Structural Database (CSD) v543 
# hosted by the Cambridge Crystallographic Data Centre (CCDC).
#
# This work is licensed under the Creative Commons
# Attribution-NonCommercial-ShareAlike 4.0 International License.
# To view a copy of this license, visit
# http://creativecommons.org/licenses/by-nc-sa/4.0/
# or send a letter to
# Creative Commons, PO Box 1866, Mountain View, CA 94042, USA.
#
# CIF created using the CSD Python API on 29 September 2022
# The structure has been converted into the P1 space group
# The structure has a 3D framework
# The original CSD entry POCCIW is in the monoclinic crystal system
# The framework has been calculated to contain at least 10.0% void space
# The void calculation uses a probe of radius 1.32A, grid spacing 0.4
#
###############################################################################

data_POCCIW
_chemical_formula_moiety         '(C344 H232 N24 O70 Pb14)n'
_symmetry_cell_setting           triclinic
_symmetry_space_group_name_H-M   'P 1'
_symmetry_Int_Tables_number      1
_space_group_name_Hall           'P 1'
loop_
_symmetry_equiv_pos_site_id
_symmetry_equiv_pos_as_xyz
1 x,y,z
_cell_length_a                   23.6168(5)
_cell_length_b                   15.3614(4)
_cell_length_c                   24.7069(4)
_cell_angle_alpha                90
_cell_angle_beta                 91.297(2)
_cell_angle_gamma                90
_cell_volume                     8961.05
loop_
_atom_site_label
_atom_site_type_symbol
_atom_site_fract_x
_atom_site_fract_y
_atom_site_fract_z
Pb5 Pb 0.06297(2) 0.93200(2) 0.56413(2)
Pb2 Pb 0.53542(2) 0.19147(2) 0.90661(2)
O3 O 0.5476(3) 0.1431(5) 0.8150(2)
O4 O 0.4900(3) 0.0488(5) 0.8542(2)
O17 O 0.5881(4) 0.3119(7) 0.8701(4)
N6 N 0.6629(5) 0.3896(10) 0.8454(5)
C14 C 0.5174(3) 0.0320(6) 0.6626(3)
H8 H 0.540587 0.044955 0.633772
C18 C 0.4985(3) 0.0430(6) 0.7577(3)
C19 C 0.5322(3) 0.0622(6) 0.7140(3)
H11 H 0.564837 0.095392 0.719071
C20 C 0.5133(3) 0.0799(6) 0.8127(3)
C81 C 0.6340(10) 0.3192(15) 0.8644(9)
H45 H 0.656060 0.271043 0.873789
C82 C 0.7212(8) 0.3871(13) 0.8461(7)
H46 H 0.734165 0.373154 0.810554
H47 H 0.734286 0.343531 0.871275
H48 H 0.735921 0.442882 0.856892
C83 C 0.6366(9) 0.4679(14) 0.8319(8)
H49 H 0.650845 0.488688 0.798135
H50 H 0.644413 0.510038 0.859738
H51 H 0.596461 0.459048 0.828351
O23 O 0.0328(3) 0.0428(5) 0.6421(2)
O26 O 0.4758(2) 0.0907(5) 0.9804(3)
O29 O 0.6274(3) 0.1293(6) 0.9135(3)
O30 O 0.6008(2) 0.1295(5) 0.9985(3)
O27 O 0.5242(2) 0.9093(5) 0.0196(3)
O31 O 0.3992(2) 0.8705(5) 0.0015(3)
Pb3 Pb 0.45481(2) 0.93560(2) 0.92967(2)
Pb4 Pb 0.03987(2) 0.81425(3) 0.40586(2)
O1 O 0.1379(2) 0.8412(5) 0.4125(2)
O2 O 0.1127(2) 0.8360(4) 0.4984(2)
O5 O 0.9557(2) 0.9807(5) 0.5474(2)
O6 O 0.9837(2) 0.8467(4) 0.5246(2)
O7 O 0.6407(2) 0.6164(4) 0.1341(2)
O8 O 0.5579(2) 0.6842(4) 0.1293(2)
O9 O 0.5328(3) 0.4572(5) 0.1421(2)
O10 O 0.4537(3) 0.3974(6) 0.1724(3)
O11 O 0.0492(3) 0.6382(6) 0.4398(3)
O12 O 0.0242(2) 0.5907(5) 0.5196(3)
O13 O 0.4520(3) 0.8083(4) 0.8716(2)
O14 O 0.3747(2) 0.8892(5) 0.8630(2)
O15 O 0.8726(3) 0.6293(6) 0.5865(3)
O16 O 0.8992(2) 0.6295(5) 0.5015(3)
O18 O 0.0776(4) 0.7210(6) 0.3376(3)
N1 N 0.4366(3) 0.6291(5) 0.5052(3)
N2 N 0.4865(3) 0.6323(5) 0.5234(3)
N3 N 0.5256(3) 0.8619(5) 0.4756(3)
N4 N 0.5756(3) 0.8678(5) 0.4938(2)
N5 N 0.1483(5) 0.6259(10) 0.3200(5)
C1 C 0.1500(3) 0.8440(6) 0.4630(3)
C2 C 0.2103(3) 0.8574(6) 0.4800(3)
C3 C 0.2264(3) 0.8590(6) 0.5345(3)
H1 H 0.199298 0.849878 0.560622
C4 C 0.2820(3) 0.8739(6) 0.5505(3)
H2 H 0.291753 0.873921 0.587165
C5 C 0.3238(3) 0.8890(6) 0.5123(3)
C6 C 0.3081(3) 0.8886(6) 0.4576(3)
H3 H 0.335358 0.898058 0.431666
C7 C 0.2520(3) 0.8741(6) 0.4413(3)
H4 H 0.241961 0.875400 0.404686
C8 C 0.4980(3) 0.9224(6) 0.5647(3)
H5 H 0.535676 0.928341 0.575834
C9 C 0.4544(3) 0.9472(6) 0.5988(3)
C10 C 0.3978(3) 0.9363(6) 0.5812(3)
H6 H 0.368782 0.952674 0.603987
C11 C 0.3841(3) 0.9017(6) 0.5305(3)
C12 C 0.4281(3) 0.8783(6) 0.4966(3)
H7 H 0.419877 0.855713 0.462394
C13 C 0.4841(3) 0.8886(6) 0.5139(3)
C15 C 0.4684(3) 0.9824(6) 0.6532(3)
C16 C 0.4340(3) 0.9655(6) 0.6976(3)
H9 H 0.400397 0.934888 0.692321
C17 C 0.4493(3) 0.9937(6) 0.7490(3)
H10 H 0.426657 0.979711 0.778113
C21 C 0.6184(3) 0.8460(6) 0.4561(3)
C22 C 0.6733(3) 0.8585(6) 0.4752(3)
H12 H 0.679722 0.877938 0.510433
C23 C 0.7192(3) 0.8423(6) 0.4421(3)
C24 C 0.7081(3) 0.8131(6) 0.3895(3)
H13 H 0.738310 0.802314 0.366943
C25 C 0.6530(3) 0.7997(6) 0.3695(3)
C26 C 0.6079(3) 0.8166(6) 0.4032(3)
H14 H 0.570830 0.808470 0.390602
C27 C 0.7781(3) 0.8570(6) 0.4621(3)
C28 C 0.7889(3) 0.9227(6) 0.5012(3)
H15 H 0.759167 0.956867 0.513191
C29 C 0.8426(3) 0.9366(6) 0.5214(3)
H16 H 0.848518 0.979400 0.547585
C30 C 0.8883(3) 0.8886(6) 0.5040(3)
C31 C 0.8785(3) 0.8249(6) 0.4643(3)
H17 H 0.908516 0.792566 0.451295
C32 C 0.8235(3) 0.8100(6) 0.4443(3)
H18 H 0.817484 0.767138 0.418169
C33 C 0.9467(3) 0.9053(6) 0.5269(3)
C34 C 0.6419(3) 0.7704(6) 0.3129(3)
C35 C 0.6820(3) 0.7200(6) 0.2855(3)
H19 H 0.716176 0.705691 0.302733
C36 C 0.6710(3) 0.6918(6) 0.2333(3)
H20 H 0.698380 0.660117 0.215282
C37 C 0.6189(3) 0.7104(6) 0.2069(3)
C38 C 0.5792(3) 0.7604(6) 0.2337(3)
H21 H 0.544786 0.773772 0.216709
C39 C 0.5908(3) 0.7904(6) 0.2857(3)
H22 H 0.564101 0.824459 0.302879
C40 C 0.6052(3) 0.6684(6) 0.1527(3)
C41 C 0.4071(3) 0.8324(6) 0.8454(3)
C42 C 0.3951(3) 0.7945(6) 0.7906(3)
C43 C 0.4347(3) 0.7418(6) 0.7659(3)
H23 H 0.468579 0.728313 0.783941
C44 C 0.4239(3) 0.7093(6) 0.7142(3)
H24 H 0.450559 0.673826 0.698057
C45 C 0.3732(3) 0.7294(6) 0.6862(3)
C46 C 0.3340(3) 0.7816(6) 0.7121(3)
H25 H 0.299903 0.794929 0.694495
C47 C 0.3446(3) 0.8140(6) 0.7636(3)
H26 H 0.317872 0.848947 0.780026
C48 C 0.3622(3) 0.6959(6) 0.6311(3)
C49 C 0.4064(3) 0.6810(6) 0.5957(3)
H27 H 0.443645 0.691811 0.606714
C50 C 0.3944(3) 0.6500(6) 0.5438(3)
C51 C 0.3392(3) 0.6354(6) 0.5261(3)
H28 H 0.332153 0.616482 0.490895
C52 C 0.2942(3) 0.6488(6) 0.5605(3)
C53 C 0.3063(3) 0.6790(6) 0.6129(3)
H29 H 0.276679 0.688228 0.636434
C54 C 0.2344(3) 0.6355(6) 0.5418(3)
C55 C 0.1910(3) 0.6239(6) 0.5789(3)
H30 H 0.199873 0.620401 0.615672
C56 C 0.1355(4) 0.6177(6) 0.5614(3)
H31 H 0.107168 0.611171 0.586564
C57 C 0.1210(3) 0.6212(6) 0.5061(3)
C58 C 0.1644(4) 0.6312(6) 0.4700(4)
H32 H 0.155760 0.633907 0.433110
C59 C 0.2202(3) 0.6372(6) 0.4873(3)
H33 H 0.248517 0.642539 0.461935
C60 C 0.0613(4) 0.6157(6) 0.4874(3)
C61 C 0.5268(3) 0.6066(6) 0.4843(3)
C62 C 0.5830(3) 0.6110(6) 0.5012(3)
H34 H 0.592292 0.631151 0.535807
C63 C 0.6261(3) 0.5853(6) 0.4664(3)
C64 C 0.6110(3) 0.5576(6) 0.4150(3)
H35 H 0.639192 0.540750 0.391530
C65 C 0.5542(3) 0.5540(6) 0.3971(3)
C66 C 0.5117(3) 0.5787(6) 0.4321(3)
H36 H 0.473879 0.576567 0.420958
C67 C 0.6869(3) 0.5902(6) 0.4850(3)
C68 C 0.7024(3) 0.5897(6) 0.5396(3)
H37 H 0.674450 0.583955 0.565279
C69 C 0.7588(3) 0.5977(7) 0.5567(3)
H38 H 0.768142 0.598050 0.593448
C70 C 0.8017(3) 0.6051(6) 0.5184(3)
C71 C 0.7864(3) 0.6012(6) 0.4642(3)
H39 H 0.814551 0.602227 0.438484
C72 C 0.7299(3) 0.5959(6) 0.4471(3)
H40 H 0.720677 0.596104 0.410307
C73 C 0.8617(3) 0.6205(6) 0.5367(3)
C74 C 0.5387(3) 0.5252(6) 0.3415(3)
C75 C 0.5744(3) 0.5455(6) 0.2985(3)
H41 H 0.607573 0.576712 0.305244
C76 C 0.5606(3) 0.5195(6) 0.2464(3)
H42 H 0.585169 0.531956 0.218520
C77 C 0.5100(3) 0.4746(6) 0.2350(3)
C78 C 0.4735(3) 0.4558(6) 0.2772(3)
H43 H 0.439741 0.426333 0.270210
C79 C 0.4882(3) 0.4815(6) 0.3297(3)
H44 H 0.463725 0.469225 0.357653
C80 C 0.4982(4) 0.4419(6) 0.1786(3)
C84 C 0.1930(8) 0.6751(13) 0.3010(7)
H52 H 0.182002 0.735254 0.299157
H53 H 0.202652 0.655174 0.265581
H54 H 0.225149 0.668975 0.325145
C85 C 0.0950(5) 0.6476(9) 0.3337(5)
H55 H 0.069867 0.602454 0.340462
C86 C 0.1517(8) 0.5273(13) 0.3193(7)
H56 H 0.149389 0.505488 0.355627
H57 H 0.187055 0.509681 0.304254
H58 H 0.120970 0.504290 0.297672
Pb6 Pb 0.56297(2) 0.56800(2) 0.06413(2)
Pb8 Pb 0.96458(2) 0.69147(2) 0.59339(2)
Pb9 Pb 0.04519(2) 0.43560(2) 0.57033(2)
Pb11 Pb 0.95481(2) 0.56440(2) 0.42967(2)
Pb12 Pb 0.46013(2) 0.31425(3) 0.09414(2)
Pb13 Pb 0.53987(2) 0.68575(3) 0.90586(2)
O21 O 0.1407(2) 0.8836(4) 0.6341(2)
O22 O 0.0579(2) 0.8158(4) 0.6293(2)
O24 O 0.0463(3) 0.8974(6) 0.3276(3)
O25 O 0.5492(3) 0.8618(6) 0.9398(3)
O28 O 0.9520(3) 0.6917(4) 0.3716(2)
O1_2 O 0.3621(2) 0.3412(5) 0.0875(2)
O2_2 O 0.3873(2) 0.3360(4) 0.0016(2)
O11_2 O 0.4508(3) 0.1382(6) 0.0602(3)
O18_2 O 0.4224(4) 0.2210(6) 0.1624(3)
N5_2 N 0.3517(5) 0.1259(10) 0.1800(5)
C1_2 C 0.3500(3) 0.3440(6) 0.0370(3)
C2_2 C 0.2897(3) 0.3574(6) 0.0200(3)
C6_2 C 0.1919(3) 0.3886(6) 0.0424(3)
H3_2 H 0.164642 0.398058 0.068334
C7_2 C 0.2480(3) 0.3741(6) 0.0587(3)
H4_2 H 0.258039 0.375400 0.095314
C12_2 C 0.0719(3) 0.3783(6) 0.0034(3)
H7_2 H 0.080123 0.355713 0.037606
H28_2 H 0.167847 0.116482 0.009105
C58_2 C 0.3356(4) 0.1312(6) 0.0300(4)
H32_2 H 0.344240 0.133907 0.066890
C59_2 C 0.2798(3) 0.1372(6) 0.0127(3)
H33_2 H 0.251483 0.142539 0.038065
C60_2 C 0.4387(4) 0.1157(6) 0.0126(3)
H36_2 H 0.026121 0.076567 0.079042
C84_2 C 0.3070(8) 0.1751(13) 0.1990(7)
H52_2 H 0.317998 0.235254 0.200843
H53_2 H 0.297348 0.155174 0.234419
H54_2 H 0.274851 0.168975 0.174855
C85_2 C 0.4050(5) 0.1476(9) 0.1663(5)
H55_2 H 0.430133 0.102454 0.159538
C86_2 C 0.3483(8) 0.0273(13) 0.1807(7)
H56_2 H 0.350611 0.005488 0.144373
H57_2 H 0.312945 0.009681 0.195746
H58_2 H 0.379030 0.004290 0.202328
Pb10 Pb 0.54519(2) 0.06440(2) 0.07033(2)
O28_2 O 0.5480(3) 0.1917(4) 0.1284(2)
Pb1 Pb 0.43703(2) 0.43200(2) 0.93587(2)
O4_2 O 0.0100(3) 0.5488(5) 0.6458(2)
O13_2 O 0.0480(3) 0.3083(4) 0.6284(2)
O14_2 O 0.1253(2) 0.3892(5) 0.6370(2)
N1_2 N 0.0634(3) 0.1291(5) 0.9948(3)
N2_2 N 0.0135(3) 0.1323(5) 0.9766(3)
C3_2 C 0.2736(3) 0.3590(6) 0.9655(3)
H1_2 H 0.300702 0.349878 0.939378
C4_2 C 0.2180(3) 0.3739(6) 0.9495(3)
H2_2 H 0.208247 0.373921 0.912835
C5_2 C 0.1762(3) 0.3890(6) 0.9877(3)
C8_2 C 0.0020(3) 0.4224(6) 0.9353(3)
C9_2 C 0.0456(3) 0.4472(6) 0.9012(3)
C10_2 C 0.1022(3) 0.4363(6) 0.9188(3)
H6_2 H 0.131218 0.452674 0.896013
C11_2 C 0.1159(3) 0.4017(6) 0.9695(3)
C13_2 C 0.0159(3) 0.3886(6) 0.9861(3)
C15_2 C 0.0316(3) 0.4824(6) 0.8468(3)
C16_2 C 0.0660(3) 0.4655(6) 0.8024(3)
H9_2 H 0.099603 0.434888 0.807679
C17_2 C 0.0507(3) 0.4937(6) 0.7510(3)
H10_2 H 0.073343 0.479711 0.721887
C18_2 C 0.0015(3) 0.5430(6) 0.7423(3)
C41_2 C 0.0929(3) 0.3324(6) 0.6546(3)
C42_2 C 0.1049(3) 0.2945(6) 0.7094(3)
C43_2 C 0.0653(3) 0.2418(6) 0.7341(3)
H23_2 H 0.031421 0.228313 0.716059
C44_2 C 0.0761(3) 0.2093(6) 0.7858(3)
H24_2 H 0.049441 0.173826 0.801943
C45_2 C 0.1268(3) 0.2294(6) 0.8138(3)
C46_2 C 0.1660(3) 0.2816(6) 0.7879(3)
H25_2 H 0.200097 0.294929 0.805505
C47_2 C 0.1554(3) 0.3140(6) 0.7364(3)
H26_2 H 0.182128 0.348947 0.719974
C48_2 C 0.1378(3) 0.1959(6) 0.8689(3)
C49_2 C 0.0936(3) 0.1810(6) 0.9043(3)
H27_2 H 0.056355 0.191811 0.893286
C50_2 C 0.1056(3) 0.1500(6) 0.9562(3)
C51_2 C 0.1608(3) 0.1354(6) 0.9739(3)
C52_2 C 0.2058(3) 0.1488(6) 0.9395(3)
C53_2 C 0.1937(3) 0.1790(6) 0.8871(3)
H29_2 H 0.223321 0.188228 0.863566
C54_2 C 0.2656(3) 0.1355(6) 0.9582(3)
C55_2 C 0.3090(3) 0.1239(6) 0.9211(3)
H30_2 H 0.300127 0.120401 0.884328
C56_2 C 0.3645(4) 0.1177(6) 0.9386(3)
H31_2 H 0.392832 0.111171 0.913436
C57_2 C 0.3790(3) 0.1212(6) 0.9939(3)
O19 O 0.5443(2) 0.4807(5) 0.9526(2)
O20 O 0.5163(2) 0.3467(4) 0.9754(2)
O21_2 O 0.3593(2) 0.3836(4) 0.8659(2)
O22_2 O 0.4421(2) 0.3158(4) 0.8707(2)
O23_2 O 0.4672(3) 0.5428(5) 0.8579(2)
O31_2 O 0.1008(2) 0.3705(5) 0.4985(3)
C78_2 C 0.0265(3) 0.9558(6) 0.2228(3)
H43_2 H 0.060259 0.926333 0.229790
C79_2 C 0.0118(3) 0.9815(6) 0.1703(3)
H44_2 H 0.036275 0.969225 0.142347
C80_2 C 0.0018(4) 0.9419(6) 0.3214(3)
O7_2 O 0.8593(2) 0.1164(4) 0.3659(2)
O8_2 O 0.9421(2) 0.1842(4) 0.3707(2)
N3_2 N 0.9744(3) 0.3619(5) 0.0244(3)
N4_2 N 0.9244(3) 0.3678(5) 0.0062(2)
C21_2 C 0.8816(3) 0.3460(6) 0.0439(3)
C22_2 C 0.8267(3) 0.3585(6) 0.0248(3)
C23_2 C 0.7808(3) 0.3423(6) 0.0579(3)
C24_2 C 0.7919(3) 0.3131(6) 0.1105(3)
H13_2 H 0.761690 0.302314 0.133057
C25_2 C 0.8470(3) 0.2997(6) 0.1305(3)
C26_2 C 0.8921(3) 0.3166(6) 0.0968(3)
H14_2 H 0.929170 0.308470 0.109398
C27_2 C 0.7219(3) 0.3570(6) 0.0379(3)
C31_2 C 0.6215(3) 0.3249(6) 0.0357(3)
H17_2 H 0.591484 0.292566 0.048705
C32_2 C 0.6765(3) 0.3100(6) 0.0557(3)
H18_2 H 0.682516 0.267138 0.081831
C34_2 C 0.8581(3) 0.2704(6) 0.1871(3)
C35_2 C 0.8180(3) 0.2200(6) 0.2145(3)
H19_2 H 0.783824 0.205691 0.197267
C36_2 C 0.8290(3) 0.1918(6) 0.2667(3)
H20_2 H 0.801620 0.160117 0.284718
C37_2 C 0.8811(3) 0.2104(6) 0.2931(3)
C38_2 C 0.9208(3) 0.2604(6) 0.2663(3)
H21_2 H 0.955214 0.273772 0.283291
C39_2 C 0.9092(3) 0.2904(6) 0.2143(3)
H22_2 H 0.935899 0.324459 0.197121
C40_2 C 0.8948(3) 0.1684(6) 0.3473(3)
C61_2 C 0.9732(3) 0.1066(6) 0.0157(3)
C63_2 C 0.8739(3) 0.0853(6) 0.0336(3)
C64_2 C 0.8890(3) 0.0576(6) 0.0850(3)
H35_2 H 0.860808 0.040750 0.108470
C65_2 C 0.9458(3) 0.0540(6) 0.1029(3)
C66_2 C 0.9883(3) 0.0787(6) 0.0679(3)
C67_2 C 0.8131(3) 0.0902(6) 0.0150(3)
C71_2 C 0.7136(3) 0.1012(6) 0.0358(3)
H39_2 H 0.685449 0.102227 0.061516
C72_2 C 0.7701(3) 0.0959(6) 0.0529(3)
H40_2 H 0.779323 0.096104 0.089693
C74_2 C 0.9613(3) 0.0252(6) 0.1585(3)
C75_2 C 0.9256(3) 0.0455(6) 0.2015(3)
H41_2 H 0.892427 0.076712 0.194756
C76_2 C 0.9394(3) 0.0195(6) 0.2536(3)
H42_2 H 0.914831 0.031956 0.281480
Pb6_2 Pb 0.93703(2) 0.06800(2) 0.43587(2)
O3_2 O 0.9524(3) 0.6431(5) 0.6850(2)
O17_2 O 0.9119(4) 0.8119(7) 0.6299(4)
N6_2 N 0.8371(5) 0.8896(10) 0.6546(5)
H5_2 H 0.964324 0.428341 0.924166
C14_2 C 0.9826(3) 0.5320(6) 0.8374(3)
H8_2 H 0.959413 0.544955 0.866228
C19_2 C 0.9678(3) 0.5622(6) 0.7860(3)
H11_2 H 0.935163 0.595392 0.780929
C20_2 C 0.9867(3) 0.5799(6) 0.6873(3)
H12_2 H 0.820278 0.377938 0.989567
C28_2 C 0.7111(3) 0.4227(6) 0.9988(3)
H15_2 H 0.740833 0.456867 0.986809
C29_2 C 0.6574(3) 0.4366(6) 0.9786(3)
H16_2 H 0.651482 0.479400 0.952415
C30_2 C 0.6117(3) 0.3886(6) 0.9960(3)
C33_2 C 0.5533(3) 0.4053(6) 0.9731(3)
C62_2 C 0.9170(3) 0.1110(6) 0.9988(3)
H34_2 H 0.907708 0.131151 0.964193
C68_2 C 0.7976(3) 0.0897(6) 0.9604(3)
H37_2 H 0.825550 0.083955 0.934721
C69_2 C 0.7412(3) 0.0977(7) 0.9433(3)
H38_2 H 0.731858 0.098050 0.906552
C70_2 C 0.6983(3) 0.1051(6) 0.9816(3)
C73_2 C 0.6383(3) 0.1205(6) 0.9633(3)
C81_2 C 0.8660(10) 0.8192(15) 0.6356(9)
H45_2 H 0.843940 0.771043 0.626211
C82_2 C 0.7788(8) 0.8871(13) 0.6539(7)
H46_2 H 0.765835 0.873154 0.689446
H47_2 H 0.765714 0.843531 0.628725
H48_2 H 0.764079 0.942882 0.643108
C83_2 C 0.8634(9) 0.9679(14) 0.6681(8)
H49_2 H 0.849155 0.988688 0.701865
H51_2 H 0.903539 0.959048 0.671649
Pb13_2 Pb 0.96013(2) 0.18575(3) 0.59414(2)
O25_2 O 0.9508(3) 0.3618(6) 0.5602(3)
O27_2 O 0.9758(2) 0.4093(5) 0.4804(3)
O9_2 O 0.9672(3) 0.9572(5) 0.3579(2)
C77_2 C 0.9900(3) 0.9746(6) 0.2650(3)
Pb7 Pb 0.03542(2) 0.30853(2) 0.40661(2)
O19_2 O 0.0443(2) 0.0193(5) 0.4526(2)
O20_2 O 0.0163(2) 0.1533(4) 0.4754(2)
O1_3 O 0.8621(2) 0.1588(5) 0.5875(2)
O2_3 O 0.8873(2) 0.1640(4) 0.5016(2)
O10_2 O 0.5463(3) 0.6026(6) 0.8276(3)
O14_3 O 0.6253(2) 0.1108(5) 0.1370(2)
O15_2 O 0.1274(3) 0.3707(6) 0.4135(3)
O18_3 O 0.9224(4) 0.2790(6) 0.6624(3)
N1_3 N 0.5634(3) 0.3709(5) 0.4948(3)
N2_3 N 0.5135(3) 0.3677(5) 0.4766(3)
N3_3 N 0.4744(3) 0.1381(5) 0.5244(3)
N4_3 N 0.4244(3) 0.1322(5) 0.5062(2)
N5_3 N 0.8517(5) 0.3741(10) 0.6800(5)
C1_3 C 0.8500(3) 0.1560(6) 0.5370(3)
C2_3 C 0.7897(3) 0.1426(6) 0.5200(3)
C3_3 C 0.7736(3) 0.1410(6) 0.4655(3)
H1_3 H 0.800702 0.150122 0.439378
C4_3 C 0.7180(3) 0.1261(6) 0.4495(3)
H2_3 H 0.708247 0.126079 0.412835
C5_3 C 0.6762(3) 0.1110(6) 0.4877(3)
C6_3 C 0.6919(3) 0.1114(6) 0.5424(3)
H3_3 H 0.664642 0.101942 0.568334
C7_3 C 0.7480(3) 0.1259(6) 0.5587(3)
H4_3 H 0.758039 0.124600 0.595314
C8_3 C 0.5020(3) 0.0776(6) 0.4353(3)
H5_3 H 0.464324 0.071659 0.424166
C9_3 C 0.5456(3) 0.0528(6) 0.4012(3)
C10_3 C 0.6022(3) 0.0637(6) 0.4188(3)
H6_3 H 0.631218 0.047326 0.396013
C11_3 C 0.6159(3) 0.0983(6) 0.4695(3)
C12_3 C 0.5719(3) 0.1217(6) 0.5034(3)
H7_3 H 0.580123 0.144287 0.537606
C13_3 C 0.5159(3) 0.1114(6) 0.4861(3)
C15_3 C 0.5316(3) 0.0176(6) 0.3468(3)
C16_3 C 0.5660(3) 0.0345(6) 0.3024(3)
H9_3 H 0.599603 0.065112 0.307679
C17_3 C 0.5507(3) 0.0063(6) 0.2510(3)
H10_3 H 0.573343 0.020289 0.221887
C21_3 C 0.3816(3) 0.1540(6) 0.5439(3)
C22_3 C 0.3267(3) 0.1415(6) 0.5248(3)
H12_3 H 0.320278 0.122062 0.489567
C23_3 C 0.2808(3) 0.1577(6) 0.5579(3)
C24_3 C 0.2919(3) 0.1869(6) 0.6105(3)
H13_3 H 0.261690 0.197686 0.633057
C25_3 C 0.3470(3) 0.2003(6) 0.6305(3)
C26_3 C 0.3921(3) 0.1834(6) 0.5968(3)
H14_3 H 0.429170 0.191530 0.609398
C27_3 C 0.2219(3) 0.1430(6) 0.5379(3)
C28_3 C 0.2111(3) 0.0773(6) 0.4988(3)
H15_3 H 0.240833 0.043133 0.486809
C29_3 C 0.1574(3) 0.0634(6) 0.4786(3)
H16_3 H 0.151482 0.020600 0.452415
C30_3 C 0.1117(3) 0.1114(6) 0.4960(3)
C31_3 C 0.1215(3) 0.1751(6) 0.5357(3)
H17_3 H 0.091484 0.207434 0.548705
C32_3 C 0.1765(3) 0.1900(6) 0.5557(3)
H18_3 H 0.182516 0.232862 0.581831
C33_3 C 0.0533(3) 0.0947(6) 0.4731(3)
C34_3 C 0.3581(3) 0.2296(6) 0.6871(3)
C35_3 C 0.3180(3) 0.2800(6) 0.7145(3)
H19_3 H 0.283824 0.294309 0.697267
C36_3 C 0.3290(3) 0.3082(6) 0.7667(3)
H20_3 H 0.301620 0.339883 0.784718
C37_3 C 0.3811(3) 0.2896(6) 0.7931(3)
C38_3 C 0.4208(3) 0.2396(6) 0.7663(3)
H21_3 H 0.455214 0.226228 0.783291
C39_3 C 0.4092(3) 0.2096(6) 0.7143(3)
H22_3 H 0.435899 0.175541 0.697121
C40_3 C 0.3948(3) 0.3316(6) 0.8473(3)
C41_3 C 0.5929(3) 0.1676(6) 0.1546(3)
C42_3 C 0.6049(3) 0.2055(6) 0.2094(3)
C43_3 C 0.5653(3) 0.2582(6) 0.2341(3)
H23_3 H 0.531421 0.271687 0.216059
C44_3 C 0.5761(3) 0.2907(6) 0.2858(3)
H24_3 H 0.549441 0.326174 0.301943
C45_3 C 0.6268(3) 0.2706(6) 0.3138(3)
C46_3 C 0.6660(3) 0.2184(6) 0.2879(3)
H25_3 H 0.700097 0.205071 0.305505
C47_3 C 0.6554(3) 0.1860(6) 0.2364(3)
H26_3 H 0.682128 0.151053 0.219974
C48_3 C 0.6378(3) 0.3041(6) 0.3689(3)
C49_3 C 0.5936(3) 0.3190(6) 0.4043(3)
H27_3 H 0.556355 0.308189 0.393286
C50_3 C 0.6056(3) 0.3500(6) 0.4562(3)
C51_3 C 0.6608(3) 0.3646(6) 0.4739(3)
H28_3 H 0.667847 0.383518 0.509105
C52_3 C 0.7058(3) 0.3512(6) 0.4395(3)
C53_3 C 0.6937(3) 0.3210(6) 0.3871(3)
H29_3 H 0.723321 0.311772 0.363566
C54_3 C 0.7656(3) 0.3645(6) 0.4582(3)
C55_3 C 0.8090(3) 0.3761(6) 0.4211(3)
H30_3 H 0.800127 0.379599 0.384328
C56_3 C 0.8645(4) 0.3823(6) 0.4386(3)
H31_3 H 0.892832 0.388829 0.413436
C57_3 C 0.8790(3) 0.3788(6) 0.4939(3)
C58_3 C 0.8356(4) 0.3688(6) 0.5300(4)
H32_3 H 0.844240 0.366093 0.566890
C59_3 C 0.7798(3) 0.3628(6) 0.5127(3)
H33_3 H 0.751483 0.357461 0.538065
C60_3 C 0.9387(4) 0.3843(6) 0.5126(3)
C61_3 C 0.4732(3) 0.3934(6) 0.5157(3)
C62_3 C 0.4170(3) 0.3890(6) 0.4988(3)
H34_3 H 0.407708 0.368849 0.464193
C63_3 C 0.3739(3) 0.4147(6) 0.5336(3)
C64_3 C 0.3890(3) 0.4424(6) 0.5850(3)
H35_3 H 0.360808 0.459250 0.608470
C65_3 C 0.4458(3) 0.4460(6) 0.6029(3)
C66_3 C 0.4883(3) 0.4213(6) 0.5679(3)
H36_3 H 0.526121 0.423433 0.579042
C67_3 C 0.3131(3) 0.4098(6) 0.5150(3)
C68_3 C 0.2976(3) 0.4103(6) 0.4604(3)
H37_3 H 0.325550 0.416045 0.434721
C69_3 C 0.2412(3) 0.4023(7) 0.4433(3)
H38_3 H 0.231858 0.401950 0.406552
C70_3 C 0.1983(3) 0.3949(6) 0.4816(3)
C71_3 C 0.2136(3) 0.3988(6) 0.5358(3)
H39_3 H 0.185449 0.397773 0.561516
C72_3 C 0.2701(3) 0.4041(6) 0.5529(3)
H40_3 H 0.279323 0.403896 0.589693
C73_3 C 0.1383(3) 0.3795(6) 0.4633(3)
C74_3 C 0.4613(3) 0.4748(6) 0.6585(3)
C75_3 C 0.4256(3) 0.4545(6) 0.7015(3)
H41_3 H 0.392427 0.423288 0.694756
C76_3 C 0.4394(3) 0.4805(6) 0.7536(3)
H42_3 H 0.414831 0.468044 0.781480
C77_3 C 0.4900(3) 0.5254(6) 0.7650(3)
C78_3 C 0.5265(3) 0.5442(6) 0.7228(3)
H43_3 H 0.560259 0.573667 0.729790
C79_3 C 0.5118(3) 0.5185(6) 0.6703(3)
H44_3 H 0.536275 0.530775 0.642347
C80_3 C 0.5018(4) 0.5581(6) 0.8214(3)
C84_3 C 0.8070(8) 0.3249(13) 0.6990(7)
H52_3 H 0.817998 0.264746 0.700843
H53_3 H 0.797348 0.344826 0.734419
H54_3 H 0.774851 0.331025 0.674855
C85_3 C 0.9050(5) 0.3524(9) 0.6663(5)
H55_3 H 0.930133 0.397546 0.659538
C86_3 C 0.8483(8) 0.4727(13) 0.6807(7)
H56_3 H 0.850611 0.494512 0.644373
H57_3 H 0.812945 0.490319 0.695746
H58_3 H 0.879030 0.495710 0.702328
O24_2 O 0.9537(3) 0.1026(6) 0.6724(3)
Pb2_2 Pb 0.46458(2) 0.80853(2) 0.09339(2)
O3_3 O 0.4524(3) 0.8569(5) 0.1850(2)
O4_3 O 0.5100(3) 0.9512(5) 0.1458(2)
O17_3 O 0.4119(4) 0.6881(7) 0.1299(4)
N6_3 N 0.3371(5) 0.6104(10) 0.1546(5)
C14_3 C 0.4826(3) 0.9680(6) 0.3374(3)
H8_3 H 0.459413 0.955045 0.366228
C18_3 C 0.5015(3) 0.9570(6) 0.2423(3)
C19_3 C 0.4678(3) 0.9378(6) 0.2860(3)
H11_3 H 0.435163 0.904608 0.280929
C20_3 C 0.4867(3) 0.9201(6) 0.1873(3)
C81_3 C 0.3660(10) 0.6808(15) 0.1356(9)
H45_3 H 0.343940 0.728957 0.126211
C82_3 C 0.2788(8) 0.6129(13) 0.1539(7)
H46_3 H 0.265835 0.626846 0.189446
H47_3 H 0.265714 0.656469 0.128725
H48_3 H 0.264079 0.557118 0.143108
C83_3 C 0.3634(9) 0.5321(14) 0.1681(8)
H49_3 H 0.349155 0.511312 0.201865
H50_2 H 0.355587 0.489962 0.140262
H51_3 H 0.403539 0.540952 0.171649
O29_2 O 0.3726(3) 0.8707(6) 0.0865(3)
C77_4 C 0.0100(3) 0.0254(6) 0.7350(3)
O3_4 O 0.0476(3) 0.3569(5) 0.3150(2)
O5_2 O 0.4557(2) 0.5193(5) 0.0474(2)
O6_2 O 0.4837(2) 0.6533(4) 0.0246(2)
O17_4 O 0.0881(4) 0.1881(7) 0.3701(4)
N6_4 N 0.1629(5) 0.1104(10) 0.3454(5)
H5_4 H 0.035676 0.571659 0.075834
C14_4 C 0.0174(3) 0.4680(6) 0.1626(3)
H8_4 H 0.040587 0.455045 0.133772
C19_4 C 0.0322(3) 0.4378(6) 0.2140(3)
H11_4 H 0.064837 0.404608 0.219071
C20_4 C 0.0133(3) 0.4201(6) 0.3127(3)
H12_4 H 0.179722 0.622062 0.010433
C28_4 C 0.2889(3) 0.5773(6) 0.0012(3)
H15_4 H 0.259167 0.543133 0.013191
C29_4 C 0.3426(3) 0.5634(6) 0.0214(3)
H16_4 H 0.348518 0.520600 0.047585
C30_4 C 0.3883(3) 0.6114(6) 0.0040(3)
C33_4 C 0.4467(3) 0.5947(6) 0.0269(3)
C62_4 C 0.0830(3) 0.8890(6) 0.0012(3)
H34_4 H 0.092292 0.868849 0.035807
C68_4 C 0.2024(3) 0.9103(6) 0.0396(3)
H37_4 H 0.174450 0.916045 0.065279
C69_4 C 0.2588(3) 0.9023(7) 0.0567(3)
H38_4 H 0.268142 0.901950 0.093448
C70_4 C 0.3017(3) 0.8949(6) 0.0184(3)
C73_4 C 0.3617(3) 0.8795(6) 0.0367(3)
C81_4 C 0.1340(10) 0.1808(15) 0.3644(9)
H45_4 H 0.156060 0.228957 0.373789
C82_4 C 0.2212(8) 0.1129(13) 0.3461(7)
H46_4 H 0.234165 0.126846 0.310554
H47_4 H 0.234286 0.156469 0.371275
H48_4 H 0.235921 0.057118 0.356892
C83_4 C 0.1366(9) 0.0321(14) 0.3319(8)
H49_4 H 0.150845 0.011312 0.298135
H51_4 H 0.096461 0.040952 0.328351
N3_4 N 0.0256(3) 0.6381(5) 0.9756(3)
N4_4 N 0.0756(3) 0.6322(5) 0.9938(2)
C21_4 C 0.1184(3) 0.6540(6) 0.9561(3)
C22_4 C 0.1733(3) 0.6415(6) 0.9752(3)
C23_4 C 0.2192(3) 0.6577(6) 0.9421(3)
C24_4 C 0.2081(3) 0.6869(6) 0.8895(3)
H13_4 H 0.238310 0.697686 0.866943
C25_4 C 0.1530(3) 0.7003(6) 0.8695(3)
C26_4 C 0.1079(3) 0.6834(6) 0.9032(3)
H14_4 H 0.070830 0.691530 0.890602
C27_4 C 0.2781(3) 0.6430(6) 0.9621(3)
C31_4 C 0.3785(3) 0.6751(6) 0.9643(3)
H17_4 H 0.408516 0.707434 0.951295
C32_4 C 0.3235(3) 0.6900(6) 0.9443(3)
H18_4 H 0.317484 0.732862 0.918169
C34_4 C 0.1419(3) 0.7296(6) 0.8129(3)
C35_4 C 0.1820(3) 0.7800(6) 0.7855(3)
H19_4 H 0.216176 0.794309 0.802733
C36_4 C 0.1710(3) 0.8082(6) 0.7333(3)
H20_4 H 0.198380 0.839883 0.715282
C37_4 C 0.1189(3) 0.7896(6) 0.7069(3)
C38_4 C 0.0792(3) 0.7396(6) 0.7337(3)
H21_4 H 0.044786 0.726228 0.716709
C39_4 C 0.0908(3) 0.7096(6) 0.7857(3)
H22_4 H 0.064101 0.675541 0.802879
C40_4 C 0.1052(3) 0.8316(6) 0.6527(3)
C61_4 C 0.0268(3) 0.8934(6) 0.9843(3)
C63_4 C 0.1261(3) 0.9147(6) 0.9664(3)
C64_4 C 0.1110(3) 0.9424(6) 0.9150(3)
H35_4 H 0.139192 0.959250 0.891530
C65_4 C 0.0542(3) 0.9460(6) 0.8971(3)
C66_4 C 0.0117(3) 0.9213(6) 0.9321(3)
C67_4 C 0.1869(3) 0.9098(6) 0.9850(3)
C71_4 C 0.2864(3) 0.8988(6) 0.9642(3)
H39_4 H 0.314551 0.897773 0.938484
C72_4 C 0.2299(3) 0.9041(6) 0.9471(3)
H40_4 H 0.220677 0.903896 0.910307
C74_4 C 0.0387(3) 0.9748(6) 0.8415(3)
C75_4 C 0.0744(3) 0.9545(6) 0.7985(3)
H41_4 H 0.107573 0.923288 0.805244
C76_4 C 0.0606(3) 0.9805(6) 0.7464(3)
H42_4 H 0.085169 0.968044 0.718520
C78_4 C 0.9735(3) 0.0442(6) 0.7772(3)
H43_4 H 0.939741 0.073667 0.770210
C79_4 C 0.9882(3) 0.0185(6) 0.8297(3)
H44_4 H 0.963725 0.030775 0.857653
C80_4 C 0.9982(4) 0.0581(6) 0.6786(3)
O4_4 O 0.9900(3) 0.4512(5) 0.3542(2)
O14_4 O 0.8747(2) 0.6108(5) 0.3630(2)
N1_4 N 0.9366(3) 0.8709(5) 0.0052(3)
N2_4 N 0.9865(3) 0.8677(5) 0.0234(3)
C3_4 C 0.7264(3) 0.6410(6) 0.0345(3)
H1_4 H 0.699298 0.650122 0.060622
C4_4 C 0.7820(3) 0.6261(6) 0.0505(3)
H2_4 H 0.791753 0.626079 0.087165
C5_4 C 0.8238(3) 0.6110(6) 0.0123(3)
C8_4 C 0.9980(3) 0.5776(6) 0.0647(3)
C9_4 C 0.9544(3) 0.5528(6) 0.0988(3)
C10_4 C 0.8978(3) 0.5637(6) 0.0812(3)
H6_4 H 0.868782 0.547326 0.103987
C11_4 C 0.8841(3) 0.5983(6) 0.0305(3)
C13_4 C 0.9841(3) 0.6114(6) 0.0139(3)
C15_4 C 0.9684(3) 0.5176(6) 0.1532(3)
C16_4 C 0.9340(3) 0.5345(6) 0.1976(3)
H9_4 H 0.900397 0.565112 0.192321
C17_4 C 0.9493(3) 0.5063(6) 0.2490(3)
H10_4 H 0.926657 0.520289 0.278113
C18_4 C 0.9985(3) 0.4570(6) 0.2577(3)
C41_4 C 0.9071(3) 0.6676(6) 0.3454(3)
C42_4 C 0.8951(3) 0.7055(6) 0.2906(3)
C43_4 C 0.9347(3) 0.7582(6) 0.2659(3)
H23_4 H 0.968579 0.771687 0.283941
C44_4 C 0.9239(3) 0.7907(6) 0.2142(3)
H24_4 H 0.950559 0.826174 0.198057
C45_4 C 0.8732(3) 0.7706(6) 0.1862(3)
C46_4 C 0.8340(3) 0.7184(6) 0.2121(3)
H25_4 H 0.799903 0.705071 0.194495
C47_4 C 0.8446(3) 0.6860(6) 0.2636(3)
H26_4 H 0.817872 0.651053 0.280026
C48_4 C 0.8622(3) 0.8041(6) 0.1311(3)
C49_4 C 0.9064(3) 0.8190(6) 0.0957(3)
H27_4 H 0.943645 0.808189 0.106714
C50_4 C 0.8944(3) 0.8500(6) 0.0438(3)
C51_4 C 0.8392(3) 0.8646(6) 0.0261(3)
C52_4 C 0.7942(3) 0.8512(6) 0.0605(3)
C53_4 C 0.8063(3) 0.8210(6) 0.1129(3)
H29_4 H 0.776679 0.811772 0.136434
C54_4 C 0.7344(3) 0.8645(6) 0.0418(3)
C55_4 C 0.6910(3) 0.8761(6) 0.0789(3)
H30_4 H 0.699873 0.879599 0.115672
C56_4 C 0.6355(4) 0.8823(6) 0.0614(3)
H31_4 H 0.607168 0.888829 0.086564
C57_4 C 0.6210(3) 0.8788(6) 0.0061(3)
O1_4 O 0.6379(2) 0.6588(5) 0.9125(2)
O2_4 O 0.6127(2) 0.6640(4) 0.9984(2)
O18_4 O 0.5776(4) 0.7790(6) 0.8376(3)
N5_4 N 0.6483(5) 0.8741(10) 0.8200(5)
C1_4 C 0.6500(3) 0.6560(6) 0.9630(3)
C2_4 C 0.7103(3) 0.6426(6) 0.9800(3)
C6_4 C 0.8081(3) 0.6114(6) 0.9576(3)
H3_4 H 0.835358 0.601942 0.931666
C7_4 C 0.7520(3) 0.6259(6) 0.9413(3)
H4_4 H 0.741961 0.624600 0.904686
C12_4 C 0.9281(3) 0.6217(6) 0.9966(3)
H7_4 H 0.919877 0.644287 0.962394
H28_4 H 0.832153 0.883518 0.990895
C58_4 C 0.6644(4) 0.8688(6) 0.9700(4)
H32_4 H 0.655760 0.866093 0.933110
C59_4 C 0.7202(3) 0.8628(6) 0.9873(3)
H33_4 H 0.748517 0.857461 0.961935
C60_4 C 0.5613(4) 0.8843(6) 0.9874(3)
H36_4 H 0.973879 0.923433 0.920958
C84_4 C 0.6930(8) 0.8249(13) 0.8010(7)
H52_4 H 0.682002 0.764746 0.799157
H53_4 H 0.702652 0.844826 0.765581
H54_4 H 0.725149 0.831025 0.825145
C85_4 C 0.5950(5) 0.8524(9) 0.8337(5)
H55_4 H 0.569867 0.897546 0.840462
C86_4 C 0.6517(8) 0.9727(13) 0.8193(7)
H56_4 H 0.649389 0.994512 0.855627
H57_4 H 0.687055 0.990319 0.804254
H58_4 H 0.620970 0.995710 0.797672
H50_3 H 0.855587 0.010038 0.640262
H50_4 H 0.144413 0.989962 0.359738
loop_
_geom_bond_atom_site_label_1
_geom_bond_atom_site_label_2
_geom_bond_site_symmetry_1
_geom_bond_site_symmetry_2
Pb2 O3 1_555 1_555
O3 C20 1_555 1_555
O4 Pb2 1_555 1_555
O17 Pb2 1_555 1_555
N6 C81 1_555 1_555
C14 H8 1_555 1_555
C19 C14 1_555 1_555
H11 C19 1_555 1_555
C20 O4 1_555 1_555
C81 O17 1_555 1_555
H45 C81 1_555 1_555
C82 N6 1_555 1_555
H46 C82 1_555 1_555
H47 C82 1_555 1_555
H48 C82 1_555 1_555
C83 N6 1_555 1_555
H49 C83 1_555 1_555
H50 C83 1_555 1_555
H51 C83 1_555 1_555
O26 Pb2 1_555 1_555
O29 Pb2 1_555 1_555
O30 Pb2 1_555 1_555
C18 C19 1_555 1_555
C18 C20 1_555 1_555
Pb5 O2 1_555 1_555
Pb4 O1 1_555 1_555
O1 C1 1_555 1_555
O2 Pb4 1_555 1_555
O5 C33 1_555 1_555
O6 C33 1_555 1_555
O7 C40 1_555 1_555
O8 C40 1_555 1_555
O9 C80 1_555 1_555
O10 C80 1_555 1_555
O11 Pb4 1_555 1_555
O12 C60 1_555 1_555
O13 Pb3 1_555 1_555
O14 Pb3 1_555 1_555
O15 C73 1_555 1_555
O16 C73 1_555 1_555
O18 Pb4 1_555 1_555
N1 N2 1_555 1_555
N2 C61 1_555 1_555
N3 N4 1_555 1_555
N4 C21 1_555 1_555
N5 C84 1_555 1_555
C1 O2 1_555 1_555
C2 C1 1_555 1_555
C3 C2 1_555 1_555
H1 C3 1_555 1_555
C4 C3 1_555 1_555
H2 C4 1_555 1_555
C5 C4 1_555 1_555
C6 C5 1_555 1_555
H3 C6 1_555 1_555
C7 C2 1_555 1_555
H4 C7 1_555 1_555
C8 H5 1_555 1_555
C9 C8 1_555 1_555
C10 C9 1_555 1_555
H6 C10 1_555 1_555
C11 C5 1_555 1_555
C12 C11 1_555 1_555
H7 C12 1_555 1_555
C13 N3 1_555 1_555
C15 C9 1_555 1_555
C16 C15 1_555 1_555
H9 C16 1_555 1_555
C17 C16 1_555 1_555
H10 C17 1_555 1_555
C21 C22 1_555 1_555
C22 H12 1_555 1_555
C23 C22 1_555 1_555
C24 C23 1_555 1_555
H13 C24 1_555 1_555
C25 C24 1_555 1_555
C26 C21 1_555 1_555
H14 C26 1_555 1_555
C27 C23 1_555 1_555
C28 C27 1_555 1_555
H15 C28 1_555 1_555
C29 C28 1_555 1_555
H16 C29 1_555 1_555
C30 C29 1_555 1_555
C31 C30 1_555 1_555
H17 C31 1_555 1_555
C32 C27 1_555 1_555
H18 C32 1_555 1_555
C33 C30 1_555 1_555
C34 C25 1_555 1_555
C35 C34 1_555 1_555
H19 C35 1_555 1_555
C36 C35 1_555 1_555
H20 C36 1_555 1_555
C37 C36 1_555 1_555
C38 C37 1_555 1_555
H21 C38 1_555 1_555
C39 C34 1_555 1_555
H22 C39 1_555 1_555
C40 C37 1_555 1_555
C41 O13 1_555 1_555
C42 C41 1_555 1_555
C43 C42 1_555 1_555
H23 C43 1_555 1_555
C44 C43 1_555 1_555
H24 C44 1_555 1_555
C45 C44 1_555 1_555
C46 C45 1_555 1_555
H25 C46 1_555 1_555
C47 C42 1_555 1_555
H26 C47 1_555 1_555
C48 C45 1_555 1_555
C49 C48 1_555 1_555
H27 C49 1_555 1_555
C50 N1 1_555 1_555
C51 C50 1_555 1_555
H28 C51 1_555 1_555
C52 C51 1_555 1_555
C53 C48 1_555 1_555
H29 C53 1_555 1_555
C54 C52 1_555 1_555
C55 C54 1_555 1_555
H30 C55 1_555 1_555
C56 C55 1_555 1_555
H31 C56 1_555 1_555
C57 C56 1_555 1_555
C58 C57 1_555 1_555
H32 C58 1_555 1_555
C59 C54 1_555 1_555
H33 C59 1_555 1_555
C60 O11 1_555 1_555
C61 C62 1_555 1_555
C62 H34 1_555 1_555
C63 C62 1_555 1_555
C64 C63 1_555 1_555
H35 C64 1_555 1_555
C65 C64 1_555 1_555
C66 C61 1_555 1_555
H36 C66 1_555 1_555
C67 C63 1_555 1_555
C68 C67 1_555 1_555
H37 C68 1_555 1_555
C69 C68 1_555 1_555
H38 C69 1_555 1_555
C70 C69 1_555 1_555
C71 C70 1_555 1_555
H39 C71 1_555 1_555
C72 C67 1_555 1_555
H40 C72 1_555 1_555
C73 C70 1_555 1_555
C74 C65 1_555 1_555
C75 C74 1_555 1_555
H41 C75 1_555 1_555
C76 C75 1_555 1_555
H42 C76 1_555 1_555
C77 C76 1_555 1_555
C78 C77 1_555 1_555
H43 C78 1_555 1_555
C79 C74 1_555 1_555
H44 C79 1_555 1_555
C80 C77 1_555 1_555
C84 H52 1_555 1_555
H53 C84 1_555 1_555
H54 C84 1_555 1_555
C85 O18 1_555 1_555
H55 C85 1_555 1_555
C86 N5 1_555 1_555
H56 C86 1_555 1_555
H57 C86 1_555 1_555
H58 C86 1_555 1_555
Pb6 O7 1_555 1_555
Pb8 O15 1_555 1_555
Pb9 O12 1_555 1_555
Pb11 O16 1_555 1_555
Pb12 O10 1_555 1_555
Pb13 O13 1_555 1_555
O21 Pb5 1_555 1_555
O22 Pb5 1_555 1_555
O24 Pb4 1_555 1_555
O25 Pb3 1_555 1_555
O8 Pb6 1_555 1_555
O9 Pb6 1_555 1_555
O14 C41 1_555 1_555
O16 Pb8 1_555 1_555
N5 C85 1_555 1_555
C6 C7 1_555 1_555
C8 C13 1_555 1_555
C10 C11 1_555 1_555
C12 C13 1_555 1_555
C25 C26 1_555 1_555
C31 C32 1_555 1_555
C38 C39 1_555 1_555
C46 C47 1_555 1_555
C49 C50 1_555 1_555
C52 C53 1_555 1_555
C57 C60 1_555 1_555
C58 C59 1_555 1_555
C65 C66 1_555 1_555
C71 C72 1_555 1_555
C78 C79 1_555 1_555
Pb13 O25 1_555 1_555
Pb11 O28 1_555 1_555
Pb12 O1_2 1_555 1_555
O1_2 C1_2 1_555 1_555
O2_2 Pb12 1_555 1_555
O11_2 Pb12 1_555 1_555
O18_2 Pb12 1_555 1_555
N5_2 C84_2 1_555 1_555
C1_2 O2_2 1_555 1_555
C2_2 C1_2 1_555 1_555
H3_2 C6_2 1_555 1_555
C7_2 C2_2 1_555 1_555
H4_2 C7_2 1_555 1_555
H7_2 C12_2 1_555 1_555
H32_2 C58_2 1_555 1_555
H33_2 C59_2 1_555 1_555
C60_2 O11_2 1_555 1_555
C84_2 H52_2 1_555 1_555
H53_2 C84_2 1_555 1_555
H54_2 C84_2 1_555 1_555
C85_2 O18_2 1_555 1_555
H55_2 C85_2 1_555 1_555
C86_2 N5_2 1_555 1_555
H56_2 C86_2 1_555 1_555
H57_2 C86_2 1_555 1_555
H58_2 C86_2 1_555 1_555
Pb10 O11_2 1_555 1_555
O28_2 Pb12 1_555 1_555
N5_2 C85_2 1_555 1_555
C6_2 C7_2 1_555 1_555
C58_2 C59_2 1_555 1_555
Pb10 O28_2 1_555 1_555
Pb9 O4_2 1_555 1_555
O13_2 Pb9 1_555 1_555
O14_2 Pb9 1_555 1_555
N1_2 N2_2 1_555 1_555
H1_2 C3_2 1_555 1_555
C4_2 C3_2 1_555 1_555
H2_2 C4_2 1_555 1_555
C5_2 C4_2 1_555 1_555
C9_2 C8_2 1_555 1_555
C10_2 C9_2 1_555 1_555
H6_2 C10_2 1_555 1_555
C11_2 C5_2 1_555 1_555
C15_2 C9_2 1_555 1_555
C16_2 C15_2 1_555 1_555
H9_2 C16_2 1_555 1_555
C17_2 C16_2 1_555 1_555
H10_2 C17_2 1_555 1_555
C18_2 C17_2 1_555 1_555
C41_2 O13_2 1_555 1_555
C42_2 C41_2 1_555 1_555
C43_2 C42_2 1_555 1_555
H23_2 C43_2 1_555 1_555
C44_2 C43_2 1_555 1_555
H24_2 C44_2 1_555 1_555
C45_2 C44_2 1_555 1_555
C46_2 C45_2 1_555 1_555
H25_2 C46_2 1_555 1_555
C47_2 C42_2 1_555 1_555
H26_2 C47_2 1_555 1_555
C48_2 C45_2 1_555 1_555
C49_2 C48_2 1_555 1_555
H27_2 C49_2 1_555 1_555
C50_2 N1_2 1_555 1_555
C51_2 C50_2 1_555 1_555
C52_2 C51_2 1_555 1_555
C53_2 C48_2 1_555 1_555
H29_2 C53_2 1_555 1_555
C54_2 C52_2 1_555 1_555
C55_2 C54_2 1_555 1_555
H30_2 C55_2 1_555 1_555
C56_2 C55_2 1_555 1_555
H31_2 C56_2 1_555 1_555
C57_2 C56_2 1_555 1_555
O19 Pb1 1_555 1_555
O20 Pb1 1_555 1_555
O21_2 Pb1 1_555 1_555
O22_2 Pb1 1_555 1_555
O23_2 Pb1 1_555 1_555
O31_2 Pb9 1_555 1_555
O14_2 C41_2 1_555 1_555
C8_2 C13_2 1_555 1_555
C10_2 C11_2 1_555 1_555
C46_2 C47_2 1_555 1_555
C49_2 C50_2 1_555 1_555
C52_2 C53_2 1_555 1_555
O24 C80_2 1_555 1_555
H43_2 C78_2 1_555 1_555
H44_2 C79_2 1_555 1_555
C78_2 C79_2 1_555 1_555
O7_2 C40_2 1_555 1_555
O8_2 C40_2 1_555 1_555
N3_2 N4_2 1_555 1_555
N4_2 C21_2 1_555 1_555
C21_2 C22_2 1_555 1_555
C23_2 C22_2 1_555 1_555
C24_2 C23_2 1_555 1_555
H13_2 C24_2 1_555 1_555
C25_2 C24_2 1_555 1_555
C26_2 C21_2 1_555 1_555
H14_2 C26_2 1_555 1_555
C27_2 C23_2 1_555 1_555
H17_2 C31_2 1_555 1_555
C32_2 C27_2 1_555 1_555
H18_2 C32_2 1_555 1_555
C34_2 C25_2 1_555 1_555
C35_2 C34_2 1_555 1_555
H19_2 C35_2 1_555 1_555
C36_2 C35_2 1_555 1_555
H20_2 C36_2 1_555 1_555
C37_2 C36_2 1_555 1_555
C38_2 C37_2 1_555 1_555
H21_2 C38_2 1_555 1_555
C39_2 C34_2 1_555 1_555
H22_2 C39_2 1_555 1_555
C40_2 C37_2 1_555 1_555
C64_2 C63_2 1_555 1_555
H35_2 C64_2 1_555 1_555
C65_2 C64_2 1_555 1_555
C66_2 C61_2 1_555 1_555
C67_2 C63_2 1_555 1_555
H39_2 C71_2 1_555 1_555
C72_2 C67_2 1_555 1_555
H40_2 C72_2 1_555 1_555
C74_2 C65_2 1_555 1_555
C75_2 C74_2 1_555 1_555
H41_2 C75_2 1_555 1_555
C76_2 C75_2 1_555 1_555
H42_2 C76_2 1_555 1_555
Pb6_2 O7_2 1_555 1_555
O8_2 Pb6_2 1_555 1_555
C25_2 C26_2 1_555 1_555
C31_2 C32_2 1_555 1_555
C38_2 C39_2 1_555 1_555
C65_2 C66_2 1_555 1_555
C71_2 C72_2 1_555 1_555
Pb8 O3_2 1_555 1_555
O3_2 C20_2 1_555 1_555
O19 C33_2 1_555 1_555
O20 C33_2 1_555 1_555
O29 C73_2 1_555 1_555
O30 C73_2 1_555 1_555
O17_2 Pb8 1_555 1_555
N6_2 C81_2 1_555 1_555
C14_2 H8_2 1_555 1_555
C19_2 C14_2 1_555 1_555
H11_2 C19_2 1_555 1_555
H15_2 C28_2 1_555 1_555
C29_2 C28_2 1_555 1_555
H16_2 C29_2 1_555 1_555
C30_2 C29_2 1_555 1_555
C33_2 C30_2 1_555 1_555
C62_2 H34_2 1_555 1_555
H37_2 C68_2 1_555 1_555
C69_2 C68_2 1_555 1_555
H38_2 C69_2 1_555 1_555
C70_2 C69_2 1_555 1_555
C73_2 C70_2 1_555 1_555
C81_2 O17_2 1_555 1_555
H45_2 C81_2 1_555 1_555
C82_2 N6_2 1_555 1_555
H46_2 C82_2 1_555 1_555
H47_2 C82_2 1_555 1_555
H48_2 C82_2 1_555 1_555
C83_2 N6_2 1_555 1_555
H49_2 C83_2 1_555 1_555
H51_2 C83_2 1_555 1_555
Pb13_2 O25_2 1_555 1_555
Pb6_2 O2_3 1_555 1_555
Pb13_2 O1_3 1_555 1_555
O1_3 C1_3 1_555 1_555
O2_3 Pb13_2 1_555 1_555
O19_2 C33_3 1_555 1_555
O20_2 C33_3 1_555 1_555
O21_2 C40_3 1_555 1_555
O22_2 C40_3 1_555 1_555
O23_2 C80_3 1_555 1_555
O10_2 C80_3 1_555 1_555
O27_2 C60_3 1_555 1_555
O14_3 Pb10 1_555 1_555
O15_2 C73_3 1_555 1_555
O31_2 C73_3 1_555 1_555
O18_3 Pb13_2 1_555 1_555
N1_3 N2_3 1_555 1_555
N2_3 C61_3 1_555 1_555
N3_3 N4_3 1_555 1_555
N4_3 C21_3 1_555 1_555
N5_3 C84_3 1_555 1_555
C1_3 O2_3 1_555 1_555
C2_3 C1_3 1_555 1_555
C3_3 C2_3 1_555 1_555
H1_3 C3_3 1_555 1_555
C4_3 C3_3 1_555 1_555
H2_3 C4_3 1_555 1_555
C5_3 C4_3 1_555 1_555
C6_3 C5_3 1_555 1_555
H3_3 C6_3 1_555 1_555
C7_3 C2_3 1_555 1_555
H4_3 C7_3 1_555 1_555
C8_3 H5_3 1_555 1_555
C9_3 C8_3 1_555 1_555
C10_3 C9_3 1_555 1_555
H6_3 C10_3 1_555 1_555
C11_3 C5_3 1_555 1_555
C12_3 C11_3 1_555 1_555
H7_3 C12_3 1_555 1_555
C13_3 N3_3 1_555 1_555
C15_3 C9_3 1_555 1_555
C16_3 C15_3 1_555 1_555
H9_3 C16_3 1_555 1_555
C17_3 C16_3 1_555 1_555
H10_3 C17_3 1_555 1_555
C21_3 C22_3 1_555 1_555
C22_3 H12_3 1_555 1_555
C23_3 C22_3 1_555 1_555
C24_3 C23_3 1_555 1_555
H13_3 C24_3 1_555 1_555
C25_3 C24_3 1_555 1_555
C26_3 C21_3 1_555 1_555
H14_3 C26_3 1_555 1_555
C27_3 C23_3 1_555 1_555
C28_3 C27_3 1_555 1_555
H15_3 C28_3 1_555 1_555
C29_3 C28_3 1_555 1_555
H16_3 C29_3 1_555 1_555
C30_3 C29_3 1_555 1_555
C31_3 C30_3 1_555 1_555
H17_3 C31_3 1_555 1_555
C32_3 C27_3 1_555 1_555
H18_3 C32_3 1_555 1_555
C33_3 C30_3 1_555 1_555
C34_3 C25_3 1_555 1_555
C35_3 C34_3 1_555 1_555
H19_3 C35_3 1_555 1_555
C36_3 C35_3 1_555 1_555
H20_3 C36_3 1_555 1_555
C37_3 C36_3 1_555 1_555
C38_3 C37_3 1_555 1_555
H21_3 C38_3 1_555 1_555
C39_3 C34_3 1_555 1_555
H22_3 C39_3 1_555 1_555
C40_3 C37_3 1_555 1_555
C41_3 O28_2 1_555 1_555
C42_3 C41_3 1_555 1_555
C43_3 C42_3 1_555 1_555
H23_3 C43_3 1_555 1_555
C44_3 C43_3 1_555 1_555
H24_3 C44_3 1_555 1_555
C45_3 C44_3 1_555 1_555
C46_3 C45_3 1_555 1_555
H25_3 C46_3 1_555 1_555
C47_3 C42_3 1_555 1_555
H26_3 C47_3 1_555 1_555
C48_3 C45_3 1_555 1_555
C49_3 C48_3 1_555 1_555
H27_3 C49_3 1_555 1_555
C50_3 N1_3 1_555 1_555
C51_3 C50_3 1_555 1_555
H28_3 C51_3 1_555 1_555
C52_3 C51_3 1_555 1_555
C53_3 C48_3 1_555 1_555
H29_3 C53_3 1_555 1_555
C54_3 C52_3 1_555 1_555
C55_3 C54_3 1_555 1_555
H30_3 C55_3 1_555 1_555
C56_3 C55_3 1_555 1_555
H31_3 C56_3 1_555 1_555
C57_3 C56_3 1_555 1_555
C58_3 C57_3 1_555 1_555
H32_3 C58_3 1_555 1_555
C59_3 C54_3 1_555 1_555
H33_3 C59_3 1_555 1_555
C60_3 O25_2 1_555 1_555
C61_3 C62_3 1_555 1_555
C62_3 H34_3 1_555 1_555
C63_3 C62_3 1_555 1_555
C64_3 C63_3 1_555 1_555
H35_3 C64_3 1_555 1_555
C65_3 C64_3 1_555 1_555
C66_3 C61_3 1_555 1_555
H36_3 C66_3 1_555 1_555
C67_3 C63_3 1_555 1_555
C68_3 C67_3 1_555 1_555
H37_3 C68_3 1_555 1_555
C69_3 C68_3 1_555 1_555
H38_3 C69_3 1_555 1_555
C70_3 C69_3 1_555 1_555
C71_3 C70_3 1_555 1_555
H39_3 C71_3 1_555 1_555
C72_3 C67_3 1_555 1_555
H40_3 C72_3 1_555 1_555
C73_3 C70_3 1_555 1_555
C74_3 C65_3 1_555 1_555
C75_3 C74_3 1_555 1_555
H41_3 C75_3 1_555 1_555
C76_3 C75_3 1_555 1_555
H42_3 C76_3 1_555 1_555
C77_3 C76_3 1_555 1_555
C78_3 C77_3 1_555 1_555
H43_3 C78_3 1_555 1_555
C79_3 C74_3 1_555 1_555
H44_3 C79_3 1_555 1_555
C80_3 C77_3 1_555 1_555
C84_3 H52_3 1_555 1_555
H53_3 C84_3 1_555 1_555
H54_3 C84_3 1_555 1_555
C85_3 O18_3 1_555 1_555
H55_3 C85_3 1_555 1_555
C86_3 N5_3 1_555 1_555
H56_3 C86_3 1_555 1_555
H57_3 C86_3 1_555 1_555
H58_3 C86_3 1_555 1_555
Pb7 O15_2 1_555 1_555
Pb11 O27_2 1_555 1_555
Pb13 O10_2 1_555 1_555
O24_2 Pb13_2 1_555 1_555
O14_3 C41_3 1_555 1_555
O31_2 Pb7 1_555 1_555
N5_3 C85_3 1_555 1_555
C6_3 C7_3 1_555 1_555
C8_3 C13_3 1_555 1_555
C10_3 C11_3 1_555 1_555
C12_3 C13_3 1_555 1_555
C25_3 C26_3 1_555 1_555
C31_3 C32_3 1_555 1_555
C38_3 C39_3 1_555 1_555
C46_3 C47_3 1_555 1_555
C49_3 C50_3 1_555 1_555
C52_3 C53_3 1_555 1_555
C57_3 C60_3 1_555 1_555
C58_3 C59_3 1_555 1_555
C65_3 C66_3 1_555 1_555
C71_3 C72_3 1_555 1_555
C78_3 C79_3 1_555 1_555
Pb2_2 O3_3 1_555 1_555
O3_3 C20_3 1_555 1_555
O4_3 Pb2_2 1_555 1_555
O17_3 Pb2_2 1_555 1_555
N6_3 C81_3 1_555 1_555
C14_3 H8_3 1_555 1_555
C19_3 C14_3 1_555 1_555
H11_3 C19_3 1_555 1_555
C20_3 O4_3 1_555 1_555
C81_3 O17_3 1_555 1_555
H45_3 C81_3 1_555 1_555
C82_3 N6_3 1_555 1_555
H46_3 C82_3 1_555 1_555
H47_3 C82_3 1_555 1_555
H48_3 C82_3 1_555 1_555
C83_3 N6_3 1_555 1_555
H49_3 C83_3 1_555 1_555
H50_2 C83_3 1_555 1_555
H51_3 C83_3 1_555 1_555
O27 Pb2_2 1_555 1_555
O29_2 Pb2_2 1_555 1_555
O31 Pb2_2 1_555 1_555
C18_3 C19_3 1_555 1_555
C18_3 C20_3 1_555 1_555
Pb7 O3_4 1_555 1_555
O3_4 C20_4 1_555 1_555
O5_2 C33_4 1_555 1_555
O6_2 C33_4 1_555 1_555
O29_2 C73_4 1_555 1_555
O31 C73_4 1_555 1_555
O17_4 Pb7 1_555 1_555
N6_4 C81_4 1_555 1_555
C14_4 H8_4 1_555 1_555
C19_4 C14_4 1_555 1_555
H11_4 C19_4 1_555 1_555
H15_4 C28_4 1_555 1_555
C29_4 C28_4 1_555 1_555
H16_4 C29_4 1_555 1_555
C30_4 C29_4 1_555 1_555
C33_4 C30_4 1_555 1_555
C62_4 H34_4 1_555 1_555
H37_4 C68_4 1_555 1_555
C69_4 C68_4 1_555 1_555
H38_4 C69_4 1_555 1_555
C70_4 C69_4 1_555 1_555
C73_4 C70_4 1_555 1_555
C81_4 O17_4 1_555 1_555
H45_4 C81_4 1_555 1_555
C82_4 N6_4 1_555 1_555
H46_4 C82_4 1_555 1_555
H47_4 C82_4 1_555 1_555
H48_4 C82_4 1_555 1_555
C83_4 N6_4 1_555 1_555
H49_4 C83_4 1_555 1_555
H51_4 C83_4 1_555 1_555
Pb6 O5_2 1_555 1_555
O6_2 Pb6 1_555 1_555
O21 C40_4 1_555 1_555
O22 C40_4 1_555 1_555
N3_4 N4_4 1_555 1_555
N4_4 C21_4 1_555 1_555
C21_4 C22_4 1_555 1_555
C23_4 C22_4 1_555 1_555
C24_4 C23_4 1_555 1_555
H13_4 C24_4 1_555 1_555
C25_4 C24_4 1_555 1_555
C26_4 C21_4 1_555 1_555
H14_4 C26_4 1_555 1_555
C27_4 C23_4 1_555 1_555
H17_4 C31_4 1_555 1_555
C32_4 C27_4 1_555 1_555
H18_4 C32_4 1_555 1_555
C34_4 C25_4 1_555 1_555
C35_4 C34_4 1_555 1_555
H19_4 C35_4 1_555 1_555
C36_4 C35_4 1_555 1_555
H20_4 C36_4 1_555 1_555
C37_4 C36_4 1_555 1_555
C38_4 C37_4 1_555 1_555
H21_4 C38_4 1_555 1_555
C39_4 C34_4 1_555 1_555
H22_4 C39_4 1_555 1_555
C40_4 C37_4 1_555 1_555
C64_4 C63_4 1_555 1_555
H35_4 C64_4 1_555 1_555
C65_4 C64_4 1_555 1_555
C66_4 C61_4 1_555 1_555
C67_4 C63_4 1_555 1_555
H39_4 C71_4 1_555 1_555
C72_4 C67_4 1_555 1_555
H40_4 C72_4 1_555 1_555
C74_4 C65_4 1_555 1_555
C75_4 C74_4 1_555 1_555
H41_4 C75_4 1_555 1_555
C76_4 C75_4 1_555 1_555
H42_4 C76_4 1_555 1_555
C25_4 C26_4 1_555 1_555
C31_4 C32_4 1_555 1_555
C38_4 C39_4 1_555 1_555
C65_4 C66_4 1_555 1_555
C71_4 C72_4 1_555 1_555
O24_2 C80_4 1_555 1_555
H43_4 C78_4 1_555 1_555
H44_4 C79_4 1_555 1_555
C78_4 C79_4 1_555 1_555
Pb11 O4_4 1_555 1_555
O14_4 Pb11 1_555 1_555
N1_4 N2_4 1_555 1_555
H1_4 C3_4 1_555 1_555
C4_4 C3_4 1_555 1_555
H2_4 C4_4 1_555 1_555
C5_4 C4_4 1_555 1_555
C9_4 C8_4 1_555 1_555
C10_4 C9_4 1_555 1_555
H6_4 C10_4 1_555 1_555
C11_4 C5_4 1_555 1_555
C15_4 C9_4 1_555 1_555
C16_4 C15_4 1_555 1_555
H9_4 C16_4 1_555 1_555
C17_4 C16_4 1_555 1_555
H10_4 C17_4 1_555 1_555
C18_4 C17_4 1_555 1_555
C41_4 O28 1_555 1_555
C42_4 C41_4 1_555 1_555
C43_4 C42_4 1_555 1_555
H23_4 C43_4 1_555 1_555
C44_4 C43_4 1_555 1_555
H24_4 C44_4 1_555 1_555
C45_4 C44_4 1_555 1_555
C46_4 C45_4 1_555 1_555
H25_4 C46_4 1_555 1_555
C47_4 C42_4 1_555 1_555
H26_4 C47_4 1_555 1_555
C48_4 C45_4 1_555 1_555
C49_4 C48_4 1_555 1_555
H27_4 C49_4 1_555 1_555
C50_4 N1_4 1_555 1_555
C51_4 C50_4 1_555 1_555
C52_4 C51_4 1_555 1_555
C53_4 C48_4 1_555 1_555
H29_4 C53_4 1_555 1_555
C54_4 C52_4 1_555 1_555
C55_4 C54_4 1_555 1_555
H30_4 C55_4 1_555 1_555
C56_4 C55_4 1_555 1_555
H31_4 C56_4 1_555 1_555
C57_4 C56_4 1_555 1_555
O14_4 C41_4 1_555 1_555
C8_4 C13_4 1_555 1_555
C10_4 C11_4 1_555 1_555
C46_4 C47_4 1_555 1_555
C49_4 C50_4 1_555 1_555
C52_4 C53_4 1_555 1_555
Pb13 O1_4 1_555 1_555
O1_4 C1_4 1_555 1_555
O2_4 Pb13 1_555 1_555
O18_4 Pb13 1_555 1_555
N5_4 C84_4 1_555 1_555
C1_4 O2_4 1_555 1_555
C2_4 C1_4 1_555 1_555
H3_4 C6_4 1_555 1_555
C7_4 C2_4 1_555 1_555
H4_4 C7_4 1_555 1_555
H7_4 C12_4 1_555 1_555
H32_4 C58_4 1_555 1_555
H33_4 C59_4 1_555 1_555
C60_4 O25 1_555 1_555
C84_4 H52_4 1_555 1_555
H53_4 C84_4 1_555 1_555
H54_4 C84_4 1_555 1_555
C85_4 O18_4 1_555 1_555
H55_4 C85_4 1_555 1_555
C86_4 N5_4 1_555 1_555
H56_4 C86_4 1_555 1_555
H57_4 C86_4 1_555 1_555
H58_4 C86_4 1_555 1_555
N5_4 C85_4 1_555 1_555
C6_4 C7_4 1_555 1_555
C58_4 C59_4 1_555 1_555

#END
