
###############################################################################
#
# This file contains modified crystal structure data generated from the
# MOF subset of the Cambridge Structural Database (CSD) v543 
# hosted by the Cambridge Crystallographic Data Centre (CCDC).
#
# This work is licensed under the Creative Commons
# Attribution-NonCommercial-ShareAlike 4.0 International License.
# To view a copy of this license, visit
# http://creativecommons.org/licenses/by-nc-sa/4.0/
# or send a letter to
# Creative Commons, PO Box 1866, Mountain View, CA 94042, USA.
#
# CIF created using the CSD Python API on 29 September 2022
# The structure has been converted into the P1 space group
# The structure has a 3D framework
# The original CSD entry POCCOC is in the monoclinic crystal system
# The framework has been calculated to contain at least 10.0% void space
# The void calculation uses a probe of radius 1.32A, grid spacing 0.4
#
###############################################################################

data_POCCOC
_chemical_formula_moiety         '(C164 H100 N8 O32 Pb8)n'
_symmetry_cell_setting           triclinic
_symmetry_space_group_name_H-M   'P 1'
_symmetry_Int_Tables_number      1
_space_group_name_Hall           'P 1'
loop_
_symmetry_equiv_pos_site_id
_symmetry_equiv_pos_as_xyz
1 x,y,z
_cell_length_a                   23.6461(8)
_cell_length_b                   7.1497(3)
_cell_length_c                   25.1158(8)
_cell_angle_alpha                90
_cell_angle_beta                 90.302(3)
_cell_angle_gamma                90
_cell_volume                     4246.08
loop_
_atom_site_label
_atom_site_type_symbol
_atom_site_fract_x
_atom_site_fract_y
_atom_site_fract_z
O15 O 0.04577(17) 0.2155(7) 0.05808(17)
O18 O 0.01925(17) 0.3063(7) 0.97814(17)
O3 O 0.3923(2) 0.7720(9) 0.4881(2)
O4 O 0.36086(19) 0.7319(9) 0.4075(2)
O8 O 0.0205(2) 0.4426(7) 0.85448(18)
C22 C 0.0059(3) 0.4696(9) 0.7600(2)
C25 C 0.0373(2) 0.5694(8) 0.6560(2)
C26 C 0.0745(2) 0.5953(9) 0.6989(2)
H14 H 0.110228 0.645315 0.692925
C27 C 0.0588(3) 0.5476(10) 0.7500(3)
H15 H 0.083899 0.567689 0.778122
C28 C 0.0519(2) 0.6261(8) 0.6015(2)
C29 C 0.0096(2) 0.6814(8) 0.5663(2)
C30 C 0.0225(2) 0.7325(8) 0.5141(2)
C31 C 0.0782(2) 0.7313(8) 0.4974(2)
H17 H 0.086480 0.765390 0.462527
C32 C 0.1220(2) 0.6802(8) 0.5314(2)
C33 C 0.1817(2) 0.6823(8) 0.5123(2)
C34 C 0.2263(2) 0.7112(9) 0.5480(3)
H18 H 0.218990 0.722483 0.584175
C35 C 0.2815(2) 0.7234(9) 0.5298(3)
H19 H 0.310863 0.742552 0.553974
C36 C 0.2935(2) 0.7073(9) 0.4760(3)
C37 C 0.2493(3) 0.6721(9) 0.4403(3)
H20 H 0.256840 0.657507 0.404202
C38 C 0.1942(3) 0.6590(9) 0.4585(3)
H21 H 0.165099 0.634213 0.434506
C39 C 0.3522(3) 0.7378(10) 0.4566(3)
C40 C 0.1083(2) 0.6269(8) 0.5831(2)
H22 H 0.137074 0.590658 0.606277
Pb4 Pb 0.05037(2) 0.64797(3) 0.93279(2)
Pb6 Pb 0.44963(2) 0.64797(3) 0.56721(2)
Pb8 Pb 0.04615(2) 0.86227(3) 0.10117(2)
Pb10 Pb 0.45385(2) 0.86227(3) 0.39883(2)
O10 O 0.04862(17) 0.9108(6) 0.87018(17)
Pb1 Pb 0.94963(2) 0.35203(3) 0.06721(2)
O1 O 0.95138(17) 0.0892(6) 0.12982(17)
O2 O 0.87010(17) 0.2436(7) 0.13085(17)
C1 C 0.9040(2) 0.1296(9) 0.1509(2)
C2 C 0.8901(2) 0.0467(9) 0.2040(2)
C3 C 0.8367(3) 0.0786(11) 0.2260(3)
H1 H 0.808785 0.137731 0.205917
C4 C 0.8254(3) 0.0215(10) 0.2780(3)
H2 H 0.789781 0.042945 0.292163
Pb7 Pb 0.54615(2) 0.13773(3) 0.60117(2)
O16 O 0.98075(17) 0.6937(7) 0.02186(17)
O19 O 0.9795(2) 0.5574(7) 0.14552(18)
O12 O 0.8923(2) 0.2280(9) 0.9881(2)
Pb2 Pb 0.95385(2) 0.13773(3) 0.89883(2)
O5 O 0.54577(17) 0.7845(7) 0.55808(17)
O6 O 0.51925(17) 0.6937(7) 0.47814(17)
O7 O 0.9452(2) 0.3077(9) 0.8182(2)
N1 N 0.98090(19) 0.7803(7) 0.4751(2)
N2 N 0.93120(18) 0.7771(7) 0.49314(19)
C5 C 0.8663(2) 0.9331(9) 0.3090(2)
C6 C 0.9185(3) 0.9002(9) 0.2857(3)
H3 H 0.946060 0.836993 0.305072
C7 C 0.9306(3) 0.9579(9) 0.2348(2)
H4 H 0.966467 0.937036 0.220976
C8 C 0.8550(2) 0.8832(8) 0.3656(2)
C9 C 0.8001(2) 0.8574(8) 0.3838(2)
H5 H 0.770229 0.870101 0.359894
C10 C 0.7883(2) 0.8129(8) 0.4367(2)
C11 C 0.8336(2) 0.7906(8) 0.4717(2)
H6 H 0.826977 0.760538 0.507139
C12 C 0.8890(2) 0.8131(8) 0.4538(2)
C13 C 0.8998(2) 0.8622(8) 0.4009(2)
H7 H 0.936717 0.880540 0.389540
C14 C 0.7286(2) 0.7912(8) 0.4553(2)
C15 C 0.6842(2) 0.7592(8) 0.4194(2)
H8 H 0.692016 0.745782 0.383403
C16 C 0.6289(2) 0.7472(8) 0.4366(2)
H9 H 0.599832 0.729620 0.412052
C17 C 0.6167(2) 0.7615(8) 0.4913(2)
C18 C 0.6605(2) 0.7918(8) 0.5271(2)
H10 H 0.652925 0.800638 0.563288
C19 C 0.7156(2) 0.8089(8) 0.5091(2)
H11 H 0.744475 0.832731 0.533508
C20 C 0.5570(2) 0.7469(8) 0.5102(2)
C21 C 0.9898(3) 0.4067(10) 0.8150(3)
C23 C 0.9692(3) 0.4401(10) 0.7174(3)
H12 H 0.933806 0.387752 0.723403
C24 C 0.9848(2) 0.4877(9) 0.6662(3)
H13 H 0.959957 0.464908 0.638130
H16 H 0.972269 0.684396 0.577673
Pb3 Pb 0.55037(2) 0.35203(3) 0.43279(2)
O13 O 0.86086(19) 0.2681(9) 0.9075(2)
O9 O 0.8963(4) 0.9446(12) 0.8387(4)
C41 C 0.9074(7) 0.800(2) 0.8200(7)
H23 H 0.907072 0.809975 0.781842
H24 H 0.879911 0.708786 0.830824
H25 H 0.944260 0.761519 0.831826
O14 O 0.95423(17) 0.7845(7) 0.94192(17)
O1_2 O 0.54862(17) 0.0892(6) 0.37018(17)
O2_2 O 0.62990(17) 0.2436(7) 0.36915(17)
C1_2 C 0.5960(2) 0.1296(9) 0.3491(2)
C2_2 C 0.6099(2) 0.0467(9) 0.2960(2)
C3_2 C 0.6633(3) 0.0786(11) 0.2740(3)
H1_2 H 0.691215 0.137731 0.294083
C4_2 C 0.6746(3) 0.0215(10) 0.2220(3)
H2_2 H 0.710219 0.042945 0.207837
O12_2 O 0.6077(2) 0.2280(9) 0.5119(2)
O15_2 O 0.45423(17) 0.2155(7) 0.44192(17)
O18_2 O 0.48075(17) 0.3063(7) 0.52186(17)
O19_2 O 0.5205(2) 0.5574(7) 0.35448(18)
O3_2 O 0.1077(2) 0.7720(9) 0.0119(2)
O4_2 O 0.13914(19) 0.7319(9) 0.0925(2)
N1_2 N 0.51910(19) 0.7803(7) 0.0249(2)
N2_2 N 0.56880(18) 0.7771(7) 0.00686(19)
C5_2 C 0.6337(2) 0.9331(9) 0.1910(2)
C6_2 C 0.5815(3) 0.9002(9) 0.2143(3)
H3_2 H 0.553940 0.836993 0.194928
C7_2 C 0.5694(3) 0.9579(9) 0.2652(2)
H4_2 H 0.533533 0.937036 0.279024
C8_2 C 0.6450(2) 0.8832(8) 0.1344(2)
C9_2 C 0.6999(2) 0.8574(8) 0.1162(2)
H5_2 H 0.729771 0.870101 0.140106
C10_2 C 0.7117(2) 0.8129(8) 0.0633(2)
C11_2 C 0.6664(2) 0.7906(8) 0.0283(2)
C12_2 C 0.6110(2) 0.8131(8) 0.0462(2)
C13_2 C 0.6002(2) 0.8622(8) 0.0991(2)
H7_2 H 0.563283 0.880540 0.110460
C14_2 C 0.7714(2) 0.7912(8) 0.0447(2)
C15_2 C 0.8158(2) 0.7592(8) 0.0806(2)
H8_2 H 0.807984 0.745782 0.116597
C16_2 C 0.8711(2) 0.7472(8) 0.0634(2)
H9_2 H 0.900168 0.729620 0.087948
C17_2 C 0.8833(2) 0.7615(8) 0.0087(2)
C31_2 C 0.4218(2) 0.7313(8) 0.0026(2)
H17_2 H 0.413520 0.765390 0.037473
C36_2 C 0.2065(2) 0.7073(9) 0.0240(3)
C37_2 C 0.2507(3) 0.6721(9) 0.0597(3)
H20_2 H 0.243160 0.657507 0.095798
C38_2 C 0.3058(3) 0.6590(9) 0.0415(3)
H21_2 H 0.334901 0.634213 0.065494
C39_2 C 0.1478(3) 0.7378(10) 0.0434(3)
O7_2 O 0.5548(2) 0.3077(9) 0.6818(2)
O8_2 O 0.4795(2) 0.4426(7) 0.64552(18)
H6_2 H 0.673023 0.760538 0.992861
C18_2 C 0.8395(2) 0.7918(8) 0.9729(2)
H10_2 H 0.847075 0.800638 0.936712
C19_2 C 0.7844(2) 0.8089(8) 0.9909(2)
H11_2 H 0.755525 0.832731 0.966492
C20_2 C 0.9430(2) 0.7469(8) 0.9898(2)
C21_2 C 0.5102(3) 0.4067(10) 0.6850(3)
C22_2 C 0.4941(3) 0.4696(9) 0.7400(2)
C23_2 C 0.5308(3) 0.4401(10) 0.7826(3)
H12_2 H 0.566194 0.387752 0.776597
C24_2 C 0.5152(2) 0.4877(9) 0.8338(3)
H13_2 H 0.540043 0.464908 0.861870
C25_2 C 0.4627(2) 0.5694(8) 0.8440(2)
C26_2 C 0.4255(2) 0.5953(9) 0.8011(2)
H14_2 H 0.389772 0.645315 0.807075
C27_2 C 0.4412(3) 0.5476(10) 0.7500(3)
H15_2 H 0.416101 0.567689 0.721878
C28_2 C 0.4481(2) 0.6261(8) 0.8985(2)
C29_2 C 0.4904(2) 0.6814(8) 0.9337(2)
H16_2 H 0.527731 0.684396 0.922327
C30_2 C 0.4775(2) 0.7325(8) 0.9859(2)
C32_2 C 0.3780(2) 0.6802(8) 0.9686(2)
C33_2 C 0.3183(2) 0.6823(8) 0.9877(2)
C34_2 C 0.2737(2) 0.7112(9) 0.9520(3)
H18_2 H 0.281010 0.722483 0.915825
C35_2 C 0.2185(2) 0.7234(9) 0.9702(3)
H19_2 H 0.189137 0.742552 0.946026
C40_2 C 0.3917(2) 0.6269(8) 0.9169(2)
H22_2 H 0.362926 0.590658 0.893723
O13_2 O 0.63914(19) 0.2681(9) 0.5925(2)
O9_2 O 0.6037(4) 0.9446(12) 0.6613(4)
C41_2 C 0.5926(7) 0.800(2) 0.6800(7)
H23_2 H 0.592928 0.809975 0.718158
H24_2 H 0.620089 0.708786 0.669176
H25_2 H 0.555740 0.761519 0.668174
O10_2 O 0.45138(17) 0.9108(6) 0.62982(17)
O9_3 O 0.1037(4) 0.0554(12) 0.1613(4)
C41_3 C 0.0926(7) 0.200(2) 0.1800(7)
H23_3 H 0.092928 0.190025 0.218158
H24_3 H 0.120089 0.291214 0.169176
H25_3 H 0.055740 0.238481 0.168174
O7_3 O 0.0548(2) 0.6923(9) 0.1818(2)
N1_3 N 0.01910(19) 0.2197(7) 0.5249(2)
N2_3 N 0.06880(18) 0.2229(7) 0.50686(19)
C5_3 C 0.1337(2) 0.0669(9) 0.6910(2)
C6_3 C 0.0815(3) 0.0998(9) 0.7143(3)
H3_3 H 0.053940 0.163007 0.694928
C7_3 C 0.0694(3) 0.0421(9) 0.7652(2)
H4_3 H 0.033533 0.062964 0.779024
C8_3 C 0.1450(2) 0.1168(8) 0.6344(2)
C9_3 C 0.1999(2) 0.1426(8) 0.6162(2)
H5_3 H 0.229771 0.129899 0.640106
C10_3 C 0.2117(2) 0.1871(8) 0.5633(2)
C11_3 C 0.1664(2) 0.2094(8) 0.5283(2)
H6_3 H 0.173023 0.239462 0.492861
C12_3 C 0.1110(2) 0.1869(8) 0.5462(2)
C13_3 C 0.1002(2) 0.1378(8) 0.5991(2)
H7_3 H 0.063283 0.119460 0.610460
C14_3 C 0.2714(2) 0.2088(8) 0.5447(2)
C15_3 C 0.3158(2) 0.2408(8) 0.5806(2)
H8_3 H 0.307984 0.254218 0.616597
C16_3 C 0.3711(2) 0.2528(8) 0.5634(2)
H9_3 H 0.400168 0.270380 0.587948
C17_3 C 0.3833(2) 0.2385(8) 0.5087(2)
C18_3 C 0.3395(2) 0.2082(8) 0.4729(2)
H10_3 H 0.347075 0.199362 0.436712
C19_3 C 0.2844(2) 0.1911(8) 0.4909(2)
H11_3 H 0.255525 0.167269 0.466492
C20_3 C 0.4430(2) 0.2531(8) 0.4898(2)
C21_3 C 0.0102(3) 0.5933(10) 0.1850(3)
C23_3 C 0.0308(3) 0.5599(10) 0.2826(3)
H12_3 H 0.066194 0.612248 0.276597
C24_3 C 0.0152(2) 0.5123(9) 0.3338(3)
H13_3 H 0.040043 0.535092 0.361870
H16_3 H 0.027731 0.315604 0.422327
O2_3 O 0.12990(17) 0.7564(7) 0.86915(17)
C1_3 C 0.0960(2) 0.8704(9) 0.8491(2)
C2_3 C 0.1099(2) 0.9533(9) 0.7960(2)
C3_3 C 0.1633(3) 0.9214(11) 0.7740(3)
H1_3 H 0.191215 0.862269 0.794083
C4_3 C 0.1746(3) 0.9785(10) 0.7220(3)
H2_3 H 0.210219 0.957055 0.707837
C22_3 C 0.9941(3) 0.5304(9) 0.2400(2)
C25_3 C 0.9627(2) 0.4306(8) 0.3440(2)
C26_3 C 0.9255(2) 0.4047(9) 0.3011(2)
H14_3 H 0.889772 0.354685 0.307075
C27_3 C 0.9412(3) 0.4524(10) 0.2500(3)
H15_3 H 0.916101 0.432311 0.221878
C28_3 C 0.9481(2) 0.3739(8) 0.3985(2)
C29_3 C 0.9904(2) 0.3186(8) 0.4337(2)
C30_3 C 0.9775(2) 0.2675(8) 0.4859(2)
C31_3 C 0.9218(2) 0.2687(8) 0.5026(2)
H17_3 H 0.913520 0.234610 0.537473
C32_3 C 0.8780(2) 0.3198(8) 0.4686(2)
C33_3 C 0.8183(2) 0.3177(8) 0.4877(2)
C34_3 C 0.7737(2) 0.2888(9) 0.4520(3)
H18_3 H 0.781010 0.277517 0.415825
C35_3 C 0.7185(2) 0.2766(9) 0.4702(3)
H19_3 H 0.689137 0.257448 0.446026
C36_3 C 0.7065(2) 0.2927(9) 0.5240(3)
C37_3 C 0.7507(3) 0.3279(9) 0.5597(3)
H20_3 H 0.743160 0.342493 0.595798
C38_3 C 0.8058(3) 0.3410(9) 0.5415(3)
H21_3 H 0.834901 0.365787 0.565494
C39_3 C 0.6478(3) 0.2622(10) 0.5434(3)
C40_3 C 0.8917(2) 0.3731(8) 0.4169(2)
H22_3 H 0.862926 0.409342 0.393723
O9_4 O 0.3963(4) 0.0554(12) 0.3387(4)
C41_4 C 0.4074(7) 0.200(2) 0.3200(7)
H23_4 H 0.407072 0.190025 0.281842
H24_4 H 0.379911 0.291214 0.330824
H25_4 H 0.444260 0.238481 0.331826
O7_4 O 0.4452(2) 0.6923(9) 0.3182(2)
H6_4 H 0.326977 0.239462 0.007139
C18_4 C 0.1605(2) 0.2082(8) 0.0271(2)
H10_4 H 0.152925 0.199362 0.063288
C19_4 C 0.2156(2) 0.1911(8) 0.0091(2)
H11_4 H 0.244475 0.167269 0.033508
C20_4 C 0.0570(2) 0.2531(8) 0.0102(2)
C21_4 C 0.4898(3) 0.5933(10) 0.3150(3)
C22_4 C 0.5059(3) 0.5304(9) 0.2600(2)
C23_4 C 0.4692(3) 0.5599(10) 0.2174(3)
H12_4 H 0.433806 0.612248 0.223403
C24_4 C 0.4848(2) 0.5123(9) 0.1662(3)
H13_4 H 0.459957 0.535092 0.138130
C25_4 C 0.5373(2) 0.4306(8) 0.1560(2)
C26_4 C 0.5745(2) 0.4047(9) 0.1989(2)
H14_4 H 0.610228 0.354685 0.192925
C27_4 C 0.5588(3) 0.4524(10) 0.2500(3)
H15_4 H 0.583899 0.432311 0.278122
C28_4 C 0.5519(2) 0.3739(8) 0.1015(2)
C29_4 C 0.5096(2) 0.3186(8) 0.0663(2)
H16_4 H 0.472269 0.315604 0.077673
C30_4 C 0.5225(2) 0.2675(8) 0.0141(2)
C32_4 C 0.6220(2) 0.3198(8) 0.0314(2)
C33_4 C 0.6817(2) 0.3177(8) 0.0123(2)
C34_4 C 0.7263(2) 0.2888(9) 0.0480(3)
H18_4 H 0.718990 0.277517 0.084175
C35_4 C 0.7815(2) 0.2766(9) 0.0298(3)
H19_4 H 0.810863 0.257448 0.053974
C40_4 C 0.6083(2) 0.3731(8) 0.0831(2)
H22_4 H 0.637074 0.409342 0.106277
N1_4 N 0.48090(19) 0.2197(7) 0.9751(2)
N2_4 N 0.43120(18) 0.2229(7) 0.99314(19)
C5_4 C 0.3663(2) 0.0669(9) 0.8090(2)
C6_4 C 0.4185(3) 0.0998(9) 0.7857(3)
H3_4 H 0.446060 0.163007 0.805072
C7_4 C 0.4306(3) 0.0421(9) 0.7348(2)
H4_4 H 0.466467 0.062964 0.720976
C8_4 C 0.3550(2) 0.1168(8) 0.8656(2)
C9_4 C 0.3001(2) 0.1426(8) 0.8838(2)
H5_4 H 0.270229 0.129899 0.859894
C10_4 C 0.2883(2) 0.1871(8) 0.9367(2)
C11_4 C 0.3336(2) 0.2094(8) 0.9717(2)
C12_4 C 0.3890(2) 0.1869(8) 0.9538(2)
C13_4 C 0.3998(2) 0.1378(8) 0.9009(2)
H7_4 H 0.436717 0.119460 0.889540
C14_4 C 0.2286(2) 0.2088(8) 0.9553(2)
C15_4 C 0.1842(2) 0.2408(8) 0.9194(2)
H8_4 H 0.192016 0.254218 0.883403
C16_4 C 0.1289(2) 0.2528(8) 0.9366(2)
H9_4 H 0.099832 0.270380 0.912052
C17_4 C 0.1167(2) 0.2385(8) 0.9913(2)
C31_4 C 0.5782(2) 0.2687(8) 0.9974(2)
H17_4 H 0.586480 0.234610 0.962527
C36_4 C 0.7935(2) 0.2927(9) 0.9760(3)
C37_4 C 0.7493(3) 0.3279(9) 0.9403(3)
H20_4 H 0.756840 0.342493 0.904202
C38_4 C 0.6942(3) 0.3410(9) 0.9585(3)
H21_4 H 0.665099 0.365787 0.934506
C39_4 C 0.8522(3) 0.2622(10) 0.9566(3)
O2_4 O 0.37010(17) 0.7564(7) 0.63085(17)
C1_4 C 0.4040(2) 0.8704(9) 0.6509(2)
C2_4 C 0.3901(2) 0.9533(9) 0.7040(2)
C3_4 C 0.3367(3) 0.9214(11) 0.7260(3)
H1_4 H 0.308785 0.862269 0.705917
C4_4 C 0.3254(3) 0.9785(10) 0.7780(3)
H2_4 H 0.289781 0.957055 0.792163
loop_
_geom_bond_atom_site_label_1
_geom_bond_atom_site_label_2
_geom_bond_site_symmetry_1
_geom_bond_site_symmetry_2
O3 C39 1_555 1_555
O4 C39 1_555 1_555
C26 C25 1_555 1_555
H14 C26 1_555 1_555
C27 C22 1_555 1_555
H15 C27 1_555 1_555
C28 C25 1_555 1_555
C29 C28 1_555 1_555
C31 C30 1_555 1_555
H17 C31 1_555 1_555
C32 C31 1_555 1_555
C33 C32 1_555 1_555
C34 C33 1_555 1_555
H18 C34 1_555 1_555
C35 C34 1_555 1_555
H19 C35 1_555 1_555
C36 C35 1_555 1_555
C37 C36 1_555 1_555
H20 C37 1_555 1_555
C38 C33 1_555 1_555
H21 C38 1_555 1_555
C39 C36 1_555 1_555
C40 C28 1_555 1_555
H22 C40 1_555 1_555
Pb4 O8 1_555 1_555
Pb6 O3 1_555 1_555
Pb10 O3 1_555 1_555
O4 Pb10 1_555 1_555
C26 C27 1_555 1_555
C29 C30 1_555 1_555
C32 C40 1_555 1_555
C37 C38 1_555 1_555
Pb4 O18 1_555 1_555
Pb1 O1 1_555 1_555
O1 C1 1_555 1_555
O2 Pb1 1_555 1_555
C1 O2 1_555 1_555
C2 C1 1_555 1_555
C3 C2 1_555 1_555
H1 C3 1_555 1_555
C4 C3 1_555 1_555
H2 C4 1_555 1_555
O16 Pb1 1_555 1_555
O19 Pb1 1_555 1_555
Pb2 O7 1_555 1_555
O5 C20 1_555 1_555
O6 C20 1_555 1_555
O7 C21 1_555 1_555
N1 N2 1_555 1_555
N2 C12 1_555 1_555
C6 C5 1_555 1_555
H3 C6 1_555 1_555
H4 C7 1_555 1_555
C8 C5 1_555 1_555
C9 C8 1_555 1_555
H5 C9 1_555 1_555
C10 C9 1_555 1_555
C11 C10 1_555 1_555
H6 C11 1_555 1_555
C12 C11 1_555 1_555
C13 C8 1_555 1_555
H7 C13 1_555 1_555
C14 C10 1_555 1_555
C15 C14 1_555 1_555
H8 C15 1_555 1_555
C16 C15 1_555 1_555
H9 C16 1_555 1_555
C17 C16 1_555 1_555
C18 C17 1_555 1_555
H10 C18 1_555 1_555
C19 C14 1_555 1_555
H11 C19 1_555 1_555
C20 C17 1_555 1_555
H12 C23 1_555 1_555
C24 C23 1_555 1_555
H13 C24 1_555 1_555
Pb3 O6 1_555 1_555
Pb6 O5 1_555 1_555
Pb10 O6 1_555 1_555
O12 Pb2 1_555 1_555
O13 Pb2 1_555 1_555
O6 Pb6 1_555 1_555
C6 C7 1_555 1_555
C12 C13 1_555 1_555
C18 C19 1_555 1_555
C41 O9 1_555 1_555
H23 C41 1_555 1_555
H24 C41 1_555 1_555
H25 C41 1_555 1_555
Pb3 O1_2 1_555 1_555
O1_2 C1_2 1_555 1_555
O2_2 Pb3 1_555 1_555
C1_2 O2_2 1_555 1_555
C2_2 C1_2 1_555 1_555
C3_2 C2_2 1_555 1_555
H1_2 C3_2 1_555 1_555
C4_2 C3_2 1_555 1_555
H2_2 C4_2 1_555 1_555
O12_2 Pb3 1_555 1_555
O15_2 Pb3 1_555 1_555
O18_2 Pb3 1_555 1_555
O19_2 Pb3 1_555 1_555
O3_2 C39_2 1_555 1_555
O4_2 C39_2 1_555 1_555
N1_2 N2_2 1_555 1_555
N2_2 C12_2 1_555 1_555
C6_2 C5_2 1_555 1_555
H3_2 C6_2 1_555 1_555
H4_2 C7_2 1_555 1_555
C8_2 C5_2 1_555 1_555
C9_2 C8_2 1_555 1_555
H5_2 C9_2 1_555 1_555
C10_2 C9_2 1_555 1_555
C11_2 C10_2 1_555 1_555
C12_2 C11_2 1_555 1_555
C13_2 C8_2 1_555 1_555
H7_2 C13_2 1_555 1_555
C14_2 C10_2 1_555 1_555
C15_2 C14_2 1_555 1_555
H8_2 C15_2 1_555 1_555
C16_2 C15_2 1_555 1_555
H9_2 C16_2 1_555 1_555
C17_2 C16_2 1_555 1_555
H17_2 C31_2 1_555 1_555
C37_2 C36_2 1_555 1_555
H20_2 C37_2 1_555 1_555
H21_2 C38_2 1_555 1_555
C39_2 C36_2 1_555 1_555
Pb8 O3_2 1_555 1_555
O4_2 Pb8 1_555 1_555
C6_2 C7_2 1_555 1_555
C12_2 C13_2 1_555 1_555
C37_2 C38_2 1_555 1_555
Pb7 O7_2 1_555 1_555
O14 C20_2 1_555 1_555
O7_2 C21_2 1_555 1_555
O8_2 Pb7 1_555 1_555
H10_2 C18_2 1_555 1_555
H11_2 C19_2 1_555 1_555
C21_2 O8_2 1_555 1_555
C22_2 C21_2 1_555 1_555
C23_2 C22_2 1_555 1_555
H12_2 C23_2 1_555 1_555
C24_2 C23_2 1_555 1_555
H13_2 C24_2 1_555 1_555
C25_2 C24_2 1_555 1_555
C26_2 C25_2 1_555 1_555
H14_2 C26_2 1_555 1_555
C27_2 C22_2 1_555 1_555
H15_2 C27_2 1_555 1_555
C28_2 C25_2 1_555 1_555
C29_2 C28_2 1_555 1_555
H16_2 C29_2 1_555 1_555
C33_2 C32_2 1_555 1_555
C34_2 C33_2 1_555 1_555
H18_2 C34_2 1_555 1_555
C35_2 C34_2 1_555 1_555
H19_2 C35_2 1_555 1_555
C40_2 C28_2 1_555 1_555
H22_2 C40_2 1_555 1_555
Pb6 O8_2 1_555 1_555
O12_2 Pb7 1_555 1_555
O13_2 Pb7 1_555 1_555
O18_2 Pb7 1_555 1_555
C18_2 C19_2 1_555 1_555
C26_2 C27_2 1_555 1_555
C29_2 C30_2 1_555 1_555
C32_2 C40_2 1_555 1_555
Pb6 O18_2 1_555 1_555
C41_2 O9_2 1_555 1_555
H23_2 C41_2 1_555 1_555
H24_2 C41_2 1_555 1_555
H25_2 C41_2 1_555 1_555
C41_3 O9_3 1_555 1_555
H23_3 C41_3 1_555 1_555
H24_3 C41_3 1_555 1_555
H25_3 C41_3 1_555 1_555
Pb8 O7_3 1_555 1_555
O15_2 C20_3 1_555 1_555
O18_2 C20_3 1_555 1_555
O7_3 C21_3 1_555 1_555
N1_3 N2_3 1_555 1_555
N2_3 C12_3 1_555 1_555
C6_3 C5_3 1_555 1_555
H3_3 C6_3 1_555 1_555
H4_3 C7_3 1_555 1_555
C8_3 C5_3 1_555 1_555
C9_3 C8_3 1_555 1_555
H5_3 C9_3 1_555 1_555
C10_3 C9_3 1_555 1_555
C11_3 C10_3 1_555 1_555
H6_3 C11_3 1_555 1_555
C12_3 C11_3 1_555 1_555
C13_3 C8_3 1_555 1_555
H7_3 C13_3 1_555 1_555
C14_3 C10_3 1_555 1_555
C15_3 C14_3 1_555 1_555
H8_3 C15_3 1_555 1_555
C16_3 C15_3 1_555 1_555
H9_3 C16_3 1_555 1_555
C17_3 C16_3 1_555 1_555
C18_3 C17_3 1_555 1_555
H10_3 C18_3 1_555 1_555
C19_3 C14_3 1_555 1_555
H11_3 C19_3 1_555 1_555
C20_3 C17_3 1_555 1_555
H12_3 C23_3 1_555 1_555
C24_3 C23_3 1_555 1_555
H13_3 C24_3 1_555 1_555
C6_3 C7_3 1_555 1_555
C12_3 C13_3 1_555 1_555
C18_3 C19_3 1_555 1_555
Pb4 O10 1_555 1_555
O10 C1_3 1_555 1_555
O2_3 Pb4 1_555 1_555
C1_3 O2_3 1_555 1_555
C2_3 C1_3 1_555 1_555
C3_3 C2_3 1_555 1_555
H1_3 C3_3 1_555 1_555
C4_3 C3_3 1_555 1_555
H2_3 C4_3 1_555 1_555
O12_2 C39_3 1_555 1_555
O13_2 C39_3 1_555 1_555
C26_3 C25_3 1_555 1_555
H14_3 C26_3 1_555 1_555
C27_3 C22_3 1_555 1_555
H15_3 C27_3 1_555 1_555
C28_3 C25_3 1_555 1_555
C29_3 C28_3 1_555 1_555
C31_3 C30_3 1_555 1_555
H17_3 C31_3 1_555 1_555
C32_3 C31_3 1_555 1_555
C33_3 C32_3 1_555 1_555
C34_3 C33_3 1_555 1_555
H18_3 C34_3 1_555 1_555
C35_3 C34_3 1_555 1_555
H19_3 C35_3 1_555 1_555
C36_3 C35_3 1_555 1_555
C37_3 C36_3 1_555 1_555
H20_3 C37_3 1_555 1_555
C38_3 C33_3 1_555 1_555
H21_3 C38_3 1_555 1_555
C39_3 C36_3 1_555 1_555
C40_3 C28_3 1_555 1_555
H22_3 C40_3 1_555 1_555
C26_3 C27_3 1_555 1_555
C29_3 C30_3 1_555 1_555
C32_3 C40_3 1_555 1_555
C37_3 C38_3 1_555 1_555
C41_4 O9_4 1_555 1_555
H23_4 C41_4 1_555 1_555
H24_4 C41_4 1_555 1_555
H25_4 C41_4 1_555 1_555
Pb10 O7_4 1_555 1_555
O15 C20_4 1_555 1_555
O7_4 C21_4 1_555 1_555
O19_2 Pb10 1_555 1_555
H10_4 C18_4 1_555 1_555
H11_4 C19_4 1_555 1_555
C21_4 O19_2 1_555 1_555
C22_4 C21_4 1_555 1_555
C23_4 C22_4 1_555 1_555
H12_4 C23_4 1_555 1_555
C24_4 C23_4 1_555 1_555
H13_4 C24_4 1_555 1_555
C25_4 C24_4 1_555 1_555
C26_4 C25_4 1_555 1_555
H14_4 C26_4 1_555 1_555
C27_4 C22_4 1_555 1_555
H15_4 C27_4 1_555 1_555
C28_4 C25_4 1_555 1_555
C29_4 C28_4 1_555 1_555
H16_4 C29_4 1_555 1_555
C33_4 C32_4 1_555 1_555
C34_4 C33_4 1_555 1_555
H18_4 C34_4 1_555 1_555
C35_4 C34_4 1_555 1_555
H19_4 C35_4 1_555 1_555
C40_4 C28_4 1_555 1_555
H22_4 C40_4 1_555 1_555
C18_4 C19_4 1_555 1_555
C26_4 C27_4 1_555 1_555
C29_4 C30_4 1_555 1_555
C32_4 C40_4 1_555 1_555
O12 C39_4 1_555 1_555
O13 C39_4 1_555 1_555
N1_4 N2_4 1_555 1_555
N2_4 C12_4 1_555 1_555
C6_4 C5_4 1_555 1_555
H3_4 C6_4 1_555 1_555
H4_4 C7_4 1_555 1_555
C8_4 C5_4 1_555 1_555
C9_4 C8_4 1_555 1_555
H5_4 C9_4 1_555 1_555
C10_4 C9_4 1_555 1_555
C11_4 C10_4 1_555 1_555
C12_4 C11_4 1_555 1_555
C13_4 C8_4 1_555 1_555
H7_4 C13_4 1_555 1_555
C14_4 C10_4 1_555 1_555
C15_4 C14_4 1_555 1_555
H8_4 C15_4 1_555 1_555
C16_4 C15_4 1_555 1_555
H9_4 C16_4 1_555 1_555
C17_4 C16_4 1_555 1_555
H17_4 C31_4 1_555 1_555
C37_4 C36_4 1_555 1_555
H20_4 C37_4 1_555 1_555
H21_4 C38_4 1_555 1_555
C39_4 C36_4 1_555 1_555
C6_4 C7_4 1_555 1_555
C12_4 C13_4 1_555 1_555
C37_4 C38_4 1_555 1_555
Pb6 O10_2 1_555 1_555
O10_2 C1_4 1_555 1_555
O2_4 Pb6 1_555 1_555
C1_4 O2_4 1_555 1_555
C2_4 C1_4 1_555 1_555
C3_4 C2_4 1_555 1_555
H1_4 C3_4 1_555 1_555
C4_4 C3_4 1_555 1_555
H2_4 C4_4 1_555 1_555

#END
