
###############################################################################
#
# This file contains modified crystal structure data generated from the
# MOF subset of the Cambridge Structural Database (CSD) v543 
# hosted by the Cambridge Crystallographic Data Centre (CCDC).
#
# This work is licensed under the Creative Commons
# Attribution-NonCommercial-ShareAlike 4.0 International License.
# To view a copy of this license, visit
# http://creativecommons.org/licenses/by-nc-sa/4.0/
# or send a letter to
# Creative Commons, PO Box 1866, Mountain View, CA 94042, USA.
#
# CIF created using the CSD Python API on 29 September 2022
# The structure has been converted into the P1 space group
# The structure has a 3D framework
# The original CSD entry POCPAZ is in the orthorhombic crystal system
# The framework has been calculated to contain at least 10.0% void space
# The void calculation uses a probe of radius 1.32A, grid spacing 0.4
#
###############################################################################

data_POCPAZ
_chemical_formula_moiety         '(C216 H168 Co8 N48 O100)n'
_symmetry_cell_setting           triclinic
_symmetry_space_group_name_H-M   'P 1'
_symmetry_Int_Tables_number      1
_space_group_name_Hall           'P 1'
loop_
_symmetry_equiv_pos_site_id
_symmetry_equiv_pos_as_xyz
1 x,y,z
_cell_length_a                   21.1573(8)
_cell_length_b                   13.5422(6)
_cell_length_c                   24.0112(10)
_cell_angle_alpha                90
_cell_angle_beta                 90
_cell_angle_gamma                90
_cell_volume                     6879.6
loop_
_atom_site_label
_atom_site_type_symbol
_atom_site_fract_x
_atom_site_fract_y
_atom_site_fract_z
O4 O 0.0966(3) 0.1006(5) 0.9814(3)
O5 O 0.1090(3) 0.0197(5) 0.9051(3)
N1 N 0.0798(3) 0.0397(5) 0.9469(3)
O16 O 0.1378(3) 0.2860(6) 0.0845(3)
O17 O 0.0393(4) 0.2975(6) 0.0667(3)
N5 N 0.0940(4) 0.3123(6) 0.0560(3)
C18 C 0.1087(4) 0.3766(5) 0.0076(3)
H10 H 0.2030 0.3824 0.0205
H15 H 0.0076 0.2650 0.1916
Co3 Co 0.03143(3) 0.36270(6) 0.30160(3)
O14 O 0.03429(18) 0.5545(3) 0.85015(17)
O18 O 0.2591(3) 0.5393(6) 0.9006(3)
O19 O 0.2905(3) 0.4390(5) 0.9638(3)
N6 N 0.2489(3) 0.4813(6) 0.9387(3)
C3 C 0.0040(3) 0.9066(4) 0.9242(3)
H3 H 0.0299 0.8879 0.8947
C4 C 0.0194(3) 0.9873(5) 0.9572(3)
C15 C 0.0210(3) 0.4917(5) 0.8871(3)
C16 C 0.0736(3) 0.4612(4) 0.9265(3)
C17 C 0.0602(3) 0.4052(5) 0.9727(3)
H9 H 0.0188 0.3866 0.9803
C19 C 0.1705(4) 0.4025(6) 0.9970(3)
C20 C 0.1823(3) 0.4581(5) 0.9513(3)
C21 C 0.1361(3) 0.4892(4) 0.9154(3)
H11 H 0.1459 0.5277 0.8846
N13 N 0.0445(2) 0.7073(4) 0.75676(19)
Co2 Co 0.18047(3) 0.36636(6) 0.37593(3)
O1 O 0.10772(19) 0.4462(2) 0.33634(17)
H1 H 0.0902 0.4922 0.3632
H2 H 0.1265 0.4850 0.3067
O2 O 0.02922(17) 0.2605(3) 0.36554(18)
O3 O 0.11508(18) 0.2823(3) 0.41882(16)
O7 O 0.1650(3) 0.0414(4) 0.5603(2)
O8 O 0.09616(18) 0.2734(3) 0.26075(16)
O9 O 0.18278(17) 0.2574(3) 0.31334(17)
O11 O 0.0587(4) 0.0332(6) 0.1135(3)
O15 O 0.03126(19) 0.5470(4) 0.3954(2)
O20 O 0.24854(17) 0.4441(3) 0.32779(17)
O21 O 0.18737(19) 0.5291(4) 0.2699(2)
O22 O 0.4772(3) 0.4430(7) 0.2907(3)
O23 O 0.5160(3) 0.5396(6) 0.2337(4)
O24 O 0.3803(3) 0.7344(4) 0.1128(2)
O25 O 0.2793(3) 0.7260(4) 0.1246(2)
N2 N 0.1133(3) 0.0035(5) 0.5562(3)
N7 N 0.4718(3) 0.5061(5) 0.2563(3)
N8 N 0.3332(4) 0.7021(5) 0.1362(2)
N11 N 0.1813(2) 0.4734(4) 0.4434(2)
N12 N 0.2558(2) 0.2971(4) 0.41914(18)
C1 C 0.0665(3) 0.2366(4) 0.4039(2)
C2 C 0.0508(3) 0.1458(4) 0.4360(2)
C6 C 0.0719(3) 0.0333(5) 0.5103(2)
C7 C 0.0894(3) 0.1159(4) 0.4789(2)
H5 H 0.1265 0.1500 0.4869
C8 C 0.1462(3) 0.2309(4) 0.2755(2)
C9 C 0.1645(2) 0.1390(4) 0.2432(2)
C10 C 0.1290(3) 0.1084(5) 0.1979(2)
H6 H 0.0926 0.1425 0.1877
C11 C 0.1480(3) 0.0277(5) 0.1683(3)
C13 C 0.2350(3) 0.0059(4) 0.2272(3)
C14 C 0.2173(3) 0.0857(4) 0.2582(2)
H8 H 0.2408 0.1040 0.2892
C22 C 0.2390(3) 0.4994(5) 0.2869(2)
C23 C 0.2967(3) 0.5310(4) 0.2547(2)
C24 C 0.3569(3) 0.5027(4) 0.2695(3)
H12 H 0.3628 0.4605 0.2996
C25 C 0.4084(3) 0.5364(5) 0.2401(3)
C26 C 0.4021(3) 0.6024(5) 0.1960(3)
H13 H 0.4370 0.6266 0.1768
C27 C 0.3414(3) 0.6300(5) 0.1824(2)
C28 C 0.2889(3) 0.5960(4) 0.2100(2)
H14 H 0.2487 0.6159 0.1991
C29 C 0.0338(3) 0.7368(5) 0.7045(3)
C30 C 0.0794(3) 0.7694(5) 0.6689(3)
H16 H 0.0689 0.7908 0.6333
C31 C 0.1416(3) 0.7702(4) 0.6867(2)
C32 C 0.1529(3) 0.7407(4) 0.7401(2)
H17 H 0.1939 0.7425 0.7540
C33 C 0.1045(3) 0.7084(5) 0.7737(2)
H18 H 0.1139 0.6866 0.8095
C34 C 0.1944(3) 0.8001(5) 0.6471(2)
H19 H 0.1920 0.8707 0.6406
H20 H 0.2348 0.7862 0.6645
C35 C 0.1914(3) 0.7460(5) 0.5907(2)
H21 H 0.2222 0.7747 0.5655
H22 H 0.1498 0.7551 0.5745
C36 C 0.2042(4) 0.6394(5) 0.5967(3)
H23 H 0.2470 0.6306 0.6103
H24 H 0.1756 0.6122 0.6244
C37 C 0.5213(3) 0.0159(5) 0.7199(3)
H25 H 0.5545 0.0160 0.7453
C38 C 0.5280(3) 0.0705(5) 0.6720(3)
H26 H 0.5653 0.1048 0.6650
C39 C 0.4782(3) 0.0735(6) 0.6342(3)
C40 C 0.4249(3) 0.0184(6) 0.6483(3)
H27 H 0.3902 0.0172 0.6244
C42 C 0.4835(3) 0.1328(7) 0.5819(3)
H29 H 0.5088 0.0963 0.5552
H30 H 0.5055 0.1939 0.5901
C43 C 0.4196(3) 0.1573(6) 0.5553(3)
H31 H 0.3991 0.0965 0.5440
H32 H 0.3929 0.1890 0.5829
C44 C 0.4258(3) 0.2216(6) 0.5075(3)
H33 H 0.4554 0.1917 0.4817
H34 H 0.4439 0.2837 0.5198
C45 C 0.1363(3) 0.4766(6) 0.4827(3)
H35 H 0.0991 0.4416 0.4766
C46 C 0.1422(3) 0.5289(6) 0.5315(3)
H36 H 0.1094 0.5283 0.5572
C47 C 0.1965(3) 0.5824(5) 0.5429(3)
C48 C 0.2421(3) 0.5817(5) 0.5020(3)
H37 H 0.2789 0.6181 0.5070
C49 C 0.2339(3) 0.5282(5) 0.4539(3)
H38 H 0.2659 0.5294 0.4273
C50 C 0.2545(3) 0.2803(5) 0.4736(3)
H39 H 0.2162 0.2859 0.4925
C51 C 0.3077(3) 0.2548(5) 0.5032(3)
H40 H 0.3050 0.2453 0.5414
C52 C 0.3651(3) 0.2433(5) 0.4766(3)
C53 C 0.3652(3) 0.2515(5) 0.4204(3)
H41 H 0.4016 0.2375 0.4001
C54 C 0.3112(3) 0.2806(4) 0.3938(2)
H42 H 0.3131 0.2895 0.3554
N14 N 0.0300(2) 0.4628(4) 0.2324(2)
O6 O 0.4071(3) 0.4426(5) 0.0883(3)
O7_2 O 0.3350(3) 0.5414(4) 0.0603(2)
N2_2 N 0.3867(3) 0.5035(5) 0.0562(3)
C5 C 0.4831(3) 0.4819(5) 0.0009(3)
H4 H 0.4950 0.4287 0.0231
C6_2 C 0.4281(3) 0.5333(5) 0.0103(2)
C39_2 C 0.0218(3) 0.5735(6) 0.1342(3)
C40_2 C 0.0751(3) 0.5184(6) 0.1483(3)
H27_2 H 0.1098 0.5172 0.1244
C41 C 0.0768(3) 0.4670(6) 0.1961(3)
H28 H 0.1135 0.4320 0.2042
C42_2 C 0.0165(3) 0.6328(7) 0.0819(3)
C43_2 C 0.0804(3) 0.6573(6) 0.0553(3)
H31_2 H 0.1009 0.5965 0.0440
H32_2 H 0.1071 0.6890 0.0829
C44_2 C 0.0742(3) 0.7216(6) 0.0075(3)
H34_2 H 0.0561 0.7837 0.0198
C51_2 C 0.1923(3) 0.7548(5) 0.0032(3)
H40_2 H 0.1950 0.7453 0.0414
O6_2 O 0.9071(3) 0.0574(5) 0.0883(3)
N10 N 0.5300(2) 0.0372(4) 0.2324(2)
C5_2 C 0.9831(3) 0.0181(5) 0.0009(3)
H4_2 H 0.9950 0.0713 0.0231
C41_2 C 0.5768(3) 0.0330(6) 0.1961(3)
H28_2 H 0.6135 0.0680 0.2042
Co4 Co 0.53143(3) 0.13730(6) 0.30160(3)
O7_3 O 0.8350(3) 0.9586(4) 0.0603(2)
N2_3 N 0.8867(3) 0.9965(5) 0.0562(3)
N9 N 0.9555(2) 0.2927(4) 0.25676(19)
C6_3 C 0.9281(3) 0.9667(5) 0.0103(2)
C29_2 C 0.9662(3) 0.2632(5) 0.2045(3)
C30_2 C 0.9206(3) 0.2306(5) 0.1689(3)
H16_2 H 0.9311 0.2092 0.1333
C31_2 C 0.8584(3) 0.2298(4) 0.1867(2)
C32_2 C 0.8471(3) 0.2593(4) 0.2401(2)
H17_2 H 0.8061 0.2575 0.2540
C33_2 C 0.8955(3) 0.2916(5) 0.2737(2)
H18_2 H 0.8861 0.3134 0.3095
C34_2 C 0.8056(3) 0.1999(5) 0.1471(2)
H19_2 H 0.8080 0.1293 0.1406
H20_2 H 0.7652 0.2138 0.1645
C35_2 C 0.8086(3) 0.2540(5) 0.0907(2)
H21_2 H 0.7778 0.2253 0.0655
H22_2 H 0.8502 0.2449 0.0745
C36_2 C 0.7958(4) 0.3606(5) 0.0967(3)
H23_2 H 0.7530 0.3694 0.1103
H24_2 H 0.8244 0.3878 0.1244
C37_2 C 0.4787(3) 0.9841(5) 0.2199(3)
H25_2 H 0.4455 0.9840 0.2453
C38_2 C 0.4720(3) 0.9295(5) 0.1720(3)
H26_2 H 0.4347 0.8952 0.1650
C39_3 C 0.5218(3) 0.9265(6) 0.1342(3)
C40_3 C 0.5751(3) 0.9816(6) 0.1483(3)
H27_3 H 0.6098 0.9828 0.1244
C42_3 C 0.5165(3) 0.8672(7) 0.0819(3)
H29_2 H 0.4912 0.9037 0.0552
H30_2 H 0.4945 0.8061 0.0901
C43_3 C 0.5804(3) 0.8427(6) 0.0553(3)
H31_3 H 0.6009 0.9035 0.0440
H32_3 H 0.6071 0.8110 0.0829
C44_3 C 0.5742(3) 0.7784(6) 0.0075(3)
H34_3 H 0.5561 0.7163 0.0198
C46_2 C 0.8578(3) 0.4711(6) 0.0315(3)
H36_2 H 0.8906 0.4717 0.0572
C47_2 C 0.8035(3) 0.4176(5) 0.0429(3)
C48_2 C 0.7579(3) 0.4183(5) 0.0020(3)
H37_2 H 0.7211 0.3819 0.0070
C51_3 C 0.6923(3) 0.7452(5) 0.0032(3)
H40_3 H 0.6950 0.7547 0.0414
Co1 Co 0.96857(3) 0.63730(6) 0.80160(3)
Co2_2 Co 0.81953(3) 0.63364(6) 0.87593(3)
O1_2 O 0.89228(19) 0.5538(2) 0.83634(17)
H1_2 H 0.9098 0.5078 0.8632
H2_2 H 0.8735 0.5150 0.8067
O2_2 O 0.97078(17) 0.7395(3) 0.86554(18)
O3_2 O 0.88492(18) 0.7177(3) 0.91882(16)
O8_2 O 0.90384(18) 0.7266(3) 0.76075(16)
O9_2 O 0.81722(17) 0.7426(3) 0.81334(17)
O11_2 O 0.9413(4) 0.9668(6) 0.6135(3)
O15_2 O 0.96874(19) 0.4530(4) 0.8954(2)
O20_2 O 0.75146(17) 0.5559(3) 0.82779(17)
O21_2 O 0.81263(19) 0.4709(4) 0.7699(2)
O22_2 O 0.5228(3) 0.5570(7) 0.7907(3)
O23_2 O 0.4840(3) 0.4604(6) 0.7337(4)
O24_2 O 0.6197(3) 0.2656(4) 0.6128(2)
O25_2 O 0.7207(3) 0.2740(4) 0.6246(2)
N7_2 N 0.5282(3) 0.4939(5) 0.7563(3)
N8_2 N 0.6668(4) 0.2979(5) 0.6362(2)
N11_2 N 0.8187(2) 0.5266(4) 0.9434(2)
N12_2 N 0.7442(2) 0.7029(4) 0.91914(18)
C1_2 C 0.9335(3) 0.7634(4) 0.9039(2)
C2_2 C 0.9492(3) 0.8542(4) 0.9360(2)
C7_2 C 0.9106(3) 0.8841(4) 0.9789(2)
H5_2 H 0.8735 0.8500 0.9869
C8_2 C 0.8538(3) 0.7691(4) 0.7755(2)
C9_2 C 0.8355(2) 0.8610(4) 0.7432(2)
C10_2 C 0.8710(3) 0.8916(5) 0.6979(2)
H6_2 H 0.9074 0.8575 0.6877
C11_2 C 0.8520(3) 0.9723(5) 0.6683(3)
C13_2 C 0.7650(3) 0.9941(4) 0.7272(3)
C14_2 C 0.7827(3) 0.9143(4) 0.7582(2)
H8_2 H 0.7592 0.8960 0.7892
C22_2 C 0.7610(3) 0.5006(5) 0.7869(2)
C23_2 C 0.7033(3) 0.4690(4) 0.7547(2)
C24_2 C 0.6431(3) 0.4973(4) 0.7695(3)
H12_2 H 0.6372 0.5395 0.7996
C25_2 C 0.5916(3) 0.4636(5) 0.7401(3)
C26_2 C 0.5979(3) 0.3976(5) 0.6960(3)
H13_2 H 0.5630 0.3734 0.6768
C27_2 C 0.6586(3) 0.3700(5) 0.6824(2)
C28_2 C 0.7111(3) 0.4040(4) 0.7100(2)
H14_2 H 0.7513 0.3841 0.6991
H33_2 H 0.5446 0.8083 0.9817
C45_2 C 0.8637(3) 0.5234(6) 0.9827(3)
H35_2 H 0.9009 0.5584 0.9766
C49_2 C 0.7661(3) 0.4718(5) 0.9539(3)
H38_2 H 0.7341 0.4706 0.9273
C50_2 C 0.7455(3) 0.7197(5) 0.9736(3)
H39_2 H 0.7838 0.7141 0.9925
C52_2 C 0.6349(3) 0.7567(5) 0.9766(3)
C53_2 C 0.6348(3) 0.7485(5) 0.9204(3)
H41_2 H 0.5984 0.7625 0.9001
C54_2 C 0.6888(3) 0.7194(4) 0.8938(2)
H42_2 H 0.6869 0.7105 0.8554
N14_2 N 0.9700(2) 0.5372(4) 0.7324(2)
O14_2 O 0.96571(18) 0.4455(3) 0.35015(17)
O16_2 O 0.8622(3) 0.7140(6) 0.5845(3)
O17_2 O 0.9607(4) 0.7025(6) 0.5667(3)
O18_2 O 0.7409(3) 0.4607(6) 0.4006(3)
O19_2 O 0.7095(3) 0.5610(5) 0.4638(3)
N5_2 N 0.9060(4) 0.6877(6) 0.5560(3)
N6_2 N 0.7511(3) 0.5187(6) 0.4387(3)
C3_2 C 0.9960(3) 0.0934(4) 0.4242(3)
H3_2 H 0.9701 0.1121 0.3947
C4_2 C 0.9806(3) 0.0127(5) 0.4572(3)
C15_2 C 0.9790(3) 0.5083(5) 0.3871(3)
C16_2 C 0.9264(3) 0.5388(4) 0.4265(3)
C17_2 C 0.9398(3) 0.5948(5) 0.4727(3)
H9_2 H 0.9812 0.6134 0.4803
C18_2 C 0.8913(4) 0.6234(5) 0.5076(3)
C19_2 C 0.8295(4) 0.5975(6) 0.4970(3)
H10_2 H 0.7970 0.6176 0.5205
C20_2 C 0.8177(3) 0.5419(5) 0.4513(3)
C21_2 C 0.8639(3) 0.5108(4) 0.4154(3)
H11_2 H 0.8541 0.4723 0.3846
H15_2 H 0.9924 0.7350 0.6916
Co2_3 Co 0.68047(3) 0.13364(6) 0.37593(3)
O1_3 O 0.60772(19) 0.0538(2) 0.33634(17)
H1_3 H 0.5902 0.0078 0.3632
H2_3 H 0.6265 0.0150 0.3067
O2_3 O 0.52922(17) 0.2395(3) 0.36554(18)
O3_3 O 0.61508(18) 0.2177(3) 0.41882(16)
O4_2 O 0.4034(3) 0.6006(5) 0.4814(3)
O5_2 O 0.3910(3) 0.5197(5) 0.4051(3)
O6_3 O 0.5929(3) 0.5574(5) 0.5883(3)
O7_4 O 0.6650(3) 0.4586(4) 0.5603(2)
O8_3 O 0.59616(18) 0.2266(3) 0.26075(16)
O9_3 O 0.68278(17) 0.2426(3) 0.31334(17)
O10 O 0.6306(4) 0.5666(6) 0.0899(3)
O11_3 O 0.5587(4) 0.4668(6) 0.1135(3)
O12 O 0.8132(3) 0.6109(5) 0.2095(2)
O13 O 0.8225(3) 0.5209(4) 0.2816(3)
O14_3 O 0.46571(18) 0.0545(3) 0.35015(17)
O18_3 O 0.2409(3) 0.0393(6) 0.4006(3)
O20_3 O 0.74854(17) 0.0559(3) 0.32779(17)
O22_3 O 0.9772(3) 0.0570(7) 0.2907(3)
N1_2 N 0.4202(3) 0.5397(5) 0.4469(3)
N2_4 N 0.6133(3) 0.4965(5) 0.5562(3)
N3 N 0.6093(4) 0.5043(6) 0.1205(3)
N4 N 0.7942(3) 0.5471(5) 0.2404(3)
N11_3 N 0.6813(2) 0.0266(4) 0.4434(2)
N12_3 N 0.7558(2) 0.2029(4) 0.41914(18)
C1_3 C 0.5665(3) 0.2634(4) 0.4039(2)
C2_3 C 0.5508(3) 0.3542(4) 0.4360(2)
C3_3 C 0.4960(3) 0.4066(4) 0.4242(3)
H3_3 H 0.4701 0.3879 0.3947
C4_3 C 0.4806(3) 0.4873(5) 0.4572(3)
C5_3 C 0.5169(3) 0.5181(5) 0.5009(3)
H4_3 H 0.5050 0.5713 0.5231
C6_4 C 0.5719(3) 0.4667(5) 0.5103(2)
C7_3 C 0.5894(3) 0.3841(4) 0.4789(2)
H5_3 H 0.6265 0.3500 0.4869
C8_3 C 0.6462(3) 0.2691(4) 0.2755(2)
C9_3 C 0.6645(2) 0.3610(4) 0.2432(2)
C10_3 C 0.6290(3) 0.3916(5) 0.1979(2)
H6_3 H 0.5926 0.3575 0.1877
C11_3 C 0.6480(3) 0.4723(5) 0.1683(3)
C12 C 0.7017(3) 0.5265(5) 0.1809(3)
H7 H 0.7145 0.5806 0.1598
C13_3 C 0.7350(3) 0.4941(4) 0.2272(3)
C14_3 C 0.7173(3) 0.4143(4) 0.2582(2)
H8_3 H 0.7408 0.3960 0.2892
H11_3 H 0.3541 0.0277 0.3846
C22_3 C 0.7390(3) 0.0006(5) 0.2869(2)
H12_3 H 0.8628 0.0395 0.2996
C39_4 C 0.9782(3) 0.4265(6) 0.6342(3)
C40_4 C 0.9249(3) 0.4816(6) 0.6483(3)
H27_4 H 0.8902 0.4828 0.6244
C41_3 C 0.9232(3) 0.5330(6) 0.6961(3)
H28_3 H 0.8865 0.5680 0.7042
C42_4 C 0.9835(3) 0.3672(7) 0.5819(3)
C43_4 C 0.9196(3) 0.3427(6) 0.5553(3)
H31_4 H 0.8991 0.4035 0.5440
H32_4 H 0.8929 0.3110 0.5829
C44_4 C 0.9258(3) 0.2784(6) 0.5075(3)
H33_3 H 0.9554 0.3083 0.4817
H34_4 H 0.9439 0.2163 0.5198
C45_3 C 0.6363(3) 0.0234(6) 0.4827(3)
H35_3 H 0.5991 0.0584 0.4766
C50_3 C 0.7545(3) 0.2197(5) 0.4736(3)
H39_3 H 0.7162 0.2141 0.4925
C51_4 C 0.8077(3) 0.2452(5) 0.5032(3)
H40_4 H 0.8050 0.2547 0.5414
C52_3 C 0.8651(3) 0.2567(5) 0.4766(3)
C53_3 C 0.8652(3) 0.2485(5) 0.4204(3)
H41_3 H 0.9016 0.2625 0.4001
C54_3 C 0.8112(3) 0.2194(4) 0.3938(2)
H42_3 H 0.8131 0.2105 0.3554
N13_2 N 0.4555(2) 0.2073(4) 0.25676(19)
O16_3 O 0.6378(3) 0.2140(6) 0.0845(3)
O17_3 O 0.5393(4) 0.2025(6) 0.0667(3)
N5_3 N 0.5940(4) 0.1877(6) 0.0560(3)
C18_3 C 0.6087(4) 0.1234(5) 0.0076(3)
H10_3 H 0.7030 0.1176 0.0205
C29_3 C 0.4662(3) 0.2368(5) 0.2045(3)
H15_3 H 0.5076 0.2350 0.1916
C30_3 C 0.4206(3) 0.2694(5) 0.1689(3)
H16_3 H 0.4311 0.2908 0.1333
C31_3 C 0.3584(3) 0.2702(4) 0.1867(2)
C32_3 C 0.3471(3) 0.2407(4) 0.2401(2)
H17_3 H 0.3061 0.2425 0.2540
C33_3 C 0.3955(3) 0.2084(5) 0.2737(2)
H18_3 H 0.3861 0.1866 0.3095
C34_3 C 0.3056(3) 0.3001(5) 0.1471(2)
H19_3 H 0.3080 0.3707 0.1406
H20_3 H 0.2652 0.2862 0.1645
C35_3 C 0.3086(3) 0.2460(5) 0.0907(2)
H21_3 H 0.2778 0.2747 0.0655
H22_3 H 0.3502 0.2551 0.0745
C36_3 C 0.2958(4) 0.1394(5) 0.0967(3)
H23_3 H 0.2530 0.1306 0.1103
H24_3 H 0.3244 0.1122 0.1244
C46_3 C 0.3578(3) 0.0289(6) 0.0315(3)
H36_3 H 0.3906 0.0283 0.0572
C47_3 C 0.3035(3) 0.0824(5) 0.0429(3)
C48_3 C 0.2579(3) 0.0817(5) 0.0020(3)
H37_3 H 0.2211 0.1181 0.0070
O10_2 O 0.8694(4) 0.0666(6) 0.5899(3)
O12_2 O 0.6868(3) 0.1109(5) 0.7095(2)
O13_2 O 0.6775(3) 0.0209(4) 0.7816(3)
N3_2 N 0.8907(4) 0.0043(6) 0.6205(3)
N4_2 N 0.7058(3) 0.0471(5) 0.7404(3)
C12_2 C 0.7983(3) 0.0265(5) 0.6809(3)
H7_2 H 0.7855 0.0806 0.6598
O6_4 O 0.0929(3) 0.9426(5) 0.5883(3)
O10_3 O 0.1306(4) 0.9334(6) 0.0899(3)
O12_3 O 0.3132(3) 0.8891(5) 0.2095(2)
O13_3 O 0.3225(3) 0.9791(4) 0.2816(3)
N3_3 N 0.1093(4) 0.9957(6) 0.1205(3)
N4_3 N 0.2942(3) 0.9529(5) 0.2404(3)
N10_2 N 0.4700(2) 0.9628(4) 0.7324(2)
C5_4 C 0.0169(3) 0.9819(5) 0.5009(3)
H4_4 H 0.0050 0.9287 0.5231
C12_3 C 0.2017(3) 0.9735(5) 0.1809(3)
H7_3 H 0.2145 0.9194 0.1598
C41_4 C 0.4232(3) 0.9670(6) 0.6961(3)
H28_4 H 0.3865 0.9320 0.7042
Co4_2 Co 0.46857(3) 0.86270(6) 0.80160(3)
O15_3 O 0.53126(19) 0.9530(4) 0.3954(2)
O16_4 O 0.3622(3) 0.7860(6) 0.5845(3)
O17_4 O 0.4607(4) 0.7975(6) 0.5667(3)
O19_3 O 0.2095(3) 0.9390(5) 0.4638(3)
O21_3 O 0.68737(19) 0.9709(4) 0.2699(2)
O24_3 O 0.8803(3) 0.7656(4) 0.1128(2)
O25_3 O 0.7793(3) 0.7740(4) 0.1246(2)
N5_4 N 0.4060(4) 0.8123(6) 0.5560(3)
N6_3 N 0.2511(3) 0.9813(6) 0.4387(3)
N7_3 N 0.9718(3) 0.9939(5) 0.2563(3)
N8_3 N 0.8332(4) 0.7979(5) 0.1362(2)
N9_2 N 0.5445(2) 0.7927(4) 0.75676(19)
C15_3 C 0.4790(3) 0.9917(5) 0.3871(3)
C16_3 C 0.4264(3) 0.9612(4) 0.4265(3)
C17_3 C 0.4398(3) 0.9052(5) 0.4727(3)
H9_3 H 0.4812 0.8866 0.4803
C18_4 C 0.3913(4) 0.8766(5) 0.5076(3)
C19_3 C 0.3295(4) 0.9025(6) 0.4970(3)
H10_4 H 0.2970 0.8824 0.5205
C20_3 C 0.3177(3) 0.9581(5) 0.4513(3)
C21_3 C 0.3639(3) 0.9892(4) 0.4154(3)
C23_3 C 0.7967(3) 0.9690(4) 0.2547(2)
C24_3 C 0.8569(3) 0.9973(4) 0.2695(3)
C25_3 C 0.9084(3) 0.9636(5) 0.2401(3)
C26_3 C 0.9021(3) 0.8976(5) 0.1960(3)
H13_3 H 0.9370 0.8734 0.1768
C27_3 C 0.8414(3) 0.8700(5) 0.1824(2)
C28_3 C 0.7889(3) 0.9040(4) 0.2100(2)
H14_3 H 0.7487 0.8841 0.1991
C29_4 C 0.5338(3) 0.7632(5) 0.7045(3)
H15_4 H 0.4924 0.7650 0.6916
C30_4 C 0.5794(3) 0.7306(5) 0.6689(3)
H16_4 H 0.5689 0.7092 0.6333
C31_4 C 0.6416(3) 0.7298(4) 0.6867(2)
C32_4 C 0.6529(3) 0.7593(4) 0.7401(2)
H17_4 H 0.6939 0.7575 0.7540
C33_4 C 0.6045(3) 0.7916(5) 0.7737(2)
H18_4 H 0.6139 0.8134 0.8095
C34_4 C 0.6944(3) 0.6999(5) 0.6471(2)
H19_4 H 0.6920 0.6293 0.6406
H20_4 H 0.7348 0.7138 0.6645
C35_4 C 0.6914(3) 0.7540(5) 0.5907(2)
H21_4 H 0.7222 0.7253 0.5655
H22_4 H 0.6498 0.7449 0.5745
C36_4 C 0.7042(4) 0.8606(5) 0.5967(3)
H23_4 H 0.7470 0.8694 0.6103
H24_4 H 0.6756 0.8878 0.6244
C46_4 C 0.6422(3) 0.9711(6) 0.5315(3)
H36_4 H 0.6094 0.9717 0.5572
C47_4 C 0.6965(3) 0.9176(5) 0.5429(3)
C48_4 C 0.7421(3) 0.9183(5) 0.5020(3)
H37_4 H 0.7789 0.8819 0.5070
C49_3 C 0.7339(3) 0.9718(5) 0.4539(3)
H38_3 H 0.7659 0.9706 0.4273
Co2_4 Co 0.31953(3) 0.86636(6) 0.87593(3)
O1_4 O 0.39228(19) 0.9462(2) 0.83634(17)
H1_4 H 0.4098 0.9922 0.8632
H2_4 H 0.3735 0.9850 0.8067
O2_4 O 0.47078(17) 0.7605(3) 0.86554(18)
O3_4 O 0.38492(18) 0.7823(3) 0.91882(16)
O4_3 O 0.5966(3) 0.3994(5) 0.9814(3)
O5_3 O 0.6090(3) 0.4803(5) 0.9051(3)
O8_4 O 0.40384(18) 0.7734(3) 0.76075(16)
O9_4 O 0.31722(17) 0.7574(3) 0.81334(17)
O10_4 O 0.3694(4) 0.4334(6) 0.5899(3)
O11_4 O 0.4413(4) 0.5332(6) 0.6135(3)
O12_4 O 0.1868(3) 0.3891(5) 0.7095(2)
O13_4 O 0.1775(3) 0.4791(4) 0.7816(3)
O14_4 O 0.53429(18) 0.9455(3) 0.85015(17)
O18_4 O 0.7591(3) 0.9607(6) 0.9006(3)
O20_4 O 0.25146(17) 0.9441(3) 0.82779(17)
O22_4 O 0.0228(3) 0.9430(7) 0.7907(3)
N1_3 N 0.5798(3) 0.4603(5) 0.9469(3)
N3_4 N 0.3907(4) 0.4957(6) 0.6205(3)
N4_4 N 0.2058(3) 0.4529(5) 0.7404(3)
N11_4 N 0.3187(2) 0.9734(4) 0.9434(2)
N12_4 N 0.2442(2) 0.7971(4) 0.91914(18)
C1_4 C 0.4335(3) 0.7366(4) 0.9039(2)
C2_4 C 0.4492(3) 0.6458(4) 0.9360(2)
C3_4 C 0.5040(3) 0.5934(4) 0.9242(3)
H3_4 H 0.5299 0.6121 0.8947
C4_4 C 0.5194(3) 0.5127(5) 0.9572(3)
C7_4 C 0.4106(3) 0.6159(4) 0.9789(2)
H5_4 H 0.3735 0.6500 0.9869
C8_4 C 0.3538(3) 0.7309(4) 0.7755(2)
C9_4 C 0.3355(2) 0.6390(4) 0.7432(2)
C10_4 C 0.3710(3) 0.6084(5) 0.6979(2)
H6_4 H 0.4074 0.6425 0.6877
C11_4 C 0.3520(3) 0.5277(5) 0.6683(3)
C12_4 C 0.2983(3) 0.4735(5) 0.6809(3)
H7_4 H 0.2855 0.4194 0.6598
C13_4 C 0.2650(3) 0.5059(4) 0.7272(3)
C14_4 C 0.2827(3) 0.5857(4) 0.7582(2)
H8_4 H 0.2592 0.6040 0.7892
H11_4 H 0.6459 0.9723 0.8846
C22_4 C 0.2610(3) 0.9994(5) 0.7869(2)
H12_4 H 0.1372 0.9605 0.7996
H33_4 H 0.0446 0.6917 0.9817
C45_4 C 0.3637(3) 0.9766(6) 0.9827(3)
H35_4 H 0.4009 0.9416 0.9766
C50_4 C 0.2455(3) 0.7803(5) 0.9736(3)
H39_4 H 0.2838 0.7859 0.9925
C52_4 C 0.1349(3) 0.7433(5) 0.9766(3)
C53_4 C 0.1348(3) 0.7515(5) 0.9204(3)
H41_4 H 0.0984 0.7375 0.9001
C54_4 C 0.1888(3) 0.7806(4) 0.8938(2)
H42_4 H 0.1869 0.7895 0.8554
O4_4 O 0.9034(3) 0.8994(5) 0.4814(3)
O5_4 O 0.8910(3) 0.9803(5) 0.4051(3)
N1_4 N 0.9202(3) 0.9603(5) 0.4469(3)
C37_3 C 0.0213(3) 0.4841(5) 0.7199(3)
H25_3 H 0.0545 0.4840 0.7453
C38_3 C 0.0280(3) 0.4295(5) 0.6720(3)
H26_3 H 0.0653 0.3952 0.6650
H29_3 H 0.0088 0.4037 0.5552
H30_3 H 0.0055 0.3061 0.5901
O23_3 O 0.0160(3) 0.9604(6) 0.2337(4)
O15_4 O 0.46874(19) 0.0470(4) 0.8954(2)
O19_4 O 0.7905(3) 0.0610(5) 0.9638(3)
O21_4 O 0.31263(19) 0.0291(4) 0.7699(2)
O24_4 O 0.1197(3) 0.2344(4) 0.6128(2)
O25_4 O 0.2207(3) 0.2260(4) 0.6246(2)
N6_4 N 0.7489(3) 0.0187(6) 0.9387(3)
N7_4 N 0.0282(3) 0.0061(5) 0.7563(3)
N8_4 N 0.1668(4) 0.2021(5) 0.6362(2)
C15_4 C 0.5210(3) 0.0083(5) 0.8871(3)
C16_4 C 0.5736(3) 0.0388(4) 0.9265(3)
C17_4 C 0.5602(3) 0.0948(5) 0.9727(3)
H9_4 H 0.5188 0.1134 0.9803
C19_4 C 0.6705(4) 0.0975(6) 0.9970(3)
C20_4 C 0.6823(3) 0.0419(5) 0.9513(3)
C21_4 C 0.6361(3) 0.0108(4) 0.9154(3)
C23_4 C 0.2033(3) 0.0310(4) 0.7547(2)
C24_4 C 0.1431(3) 0.0027(4) 0.7695(3)
C25_4 C 0.0916(3) 0.0364(5) 0.7401(3)
C26_4 C 0.0979(3) 0.1024(5) 0.6960(3)
H13_4 H 0.0630 0.1266 0.6768
C27_4 C 0.1586(3) 0.1300(5) 0.6824(2)
C28_4 C 0.2111(3) 0.0960(4) 0.7100(2)
H14_4 H 0.2513 0.1159 0.6991
C49_4 C 0.2661(3) 0.0282(5) 0.9539(3)
H38_4 H 0.2341 0.0294 0.9273
O23_4 O 0.9840(3) 0.0396(6) 0.7337(4)
C37_4 C 0.9787(3) 0.5159(5) 0.2199(3)
H25_4 H 0.9455 0.5160 0.2453
C38_4 C 0.9720(3) 0.5705(5) 0.1720(3)
H26_4 H 0.9347 0.6048 0.1650
H29_4 H 0.9912 0.5963 0.0552
H30_4 H 0.9945 0.6939 0.0901
loop_
_geom_bond_atom_site_label_1
_geom_bond_atom_site_label_2
_geom_bond_site_symmetry_1
_geom_bond_site_symmetry_2
O4 N1 1_555 1_555
O5 N1 1_555 1_555
O16 N5 1_555 1_555
O17 N5 1_555 1_555
N5 C18 1_555 1_555
O18 N6 1_555 1_555
O19 N6 1_555 1_555
N6 C20 1_555 1_555
H3 C3 1_555 1_555
C4 C3 1_555 1_555
C15 O14 1_555 1_555
C16 C15 1_555 1_555
C17 C16 1_555 1_555
H9 C17 1_555 1_555
C20 C19 1_555 1_555
C21 C16 1_555 1_555
H11 C21 1_555 1_555
C20 C21 1_555 1_555
Co3 O1 1_555 1_555
Co2 O1 1_555 1_555
O1 H1 1_555 1_555
H2 O1 1_555 1_555
O2 Co3 1_555 1_555
O3 Co2 1_555 1_555
O7 N2 1_555 1_555
O8 Co3 1_555 1_555
O9 Co2 1_555 1_555
O20 Co2 1_555 1_555
O21 C22 1_555 1_555
O22 N7 1_555 1_555
O23 N7 1_555 1_555
O24 N8 1_555 1_555
O25 N8 1_555 1_555
N2 C6 1_555 1_555
N7 C25 1_555 1_555
N8 C27 1_555 1_555
N13 C29 1_555 1_555
N11 Co2 1_555 1_555
N12 Co2 1_555 1_555
C1 O2 1_555 1_555
C2 C1 1_555 1_555
C7 C2 1_555 1_555
H5 C7 1_555 1_555
C8 O8 1_555 1_555
C9 C8 1_555 1_555
C10 C9 1_555 1_555
H6 C10 1_555 1_555
C11 C10 1_555 1_555
C14 C9 1_555 1_555
H8 C14 1_555 1_555
C22 O20 1_555 1_555
C23 C22 1_555 1_555
C24 C23 1_555 1_555
H12 C24 1_555 1_555
C25 C24 1_555 1_555
C26 C25 1_555 1_555
H13 C26 1_555 1_555
C27 C26 1_555 1_555
C28 C23 1_555 1_555
H14 C28 1_555 1_555
C30 C29 1_555 1_555
H16 C30 1_555 1_555
C31 C30 1_555 1_555
C32 C31 1_555 1_555
H17 C32 1_555 1_555
C33 N13 1_555 1_555
H18 C33 1_555 1_555
C34 C31 1_555 1_555
H19 C34 1_555 1_555
H20 C34 1_555 1_555
C35 C34 1_555 1_555
H21 C35 1_555 1_555
H22 C35 1_555 1_555
C36 C35 1_555 1_555
H23 C36 1_555 1_555
H24 C36 1_555 1_555
C37 H25 1_555 1_555
C38 C37 1_555 1_555
H26 C38 1_555 1_555
C39 C38 1_555 1_555
C40 C39 1_555 1_555
H27 C40 1_555 1_555
C42 C39 1_555 1_555
H29 C42 1_555 1_555
H30 C42 1_555 1_555
C43 C42 1_555 1_555
H31 C43 1_555 1_555
H32 C43 1_555 1_555
C44 C43 1_555 1_555
H33 C44 1_555 1_555
H34 C44 1_555 1_555
C45 N11 1_555 1_555
H35 C45 1_555 1_555
C46 C45 1_555 1_555
H36 C46 1_555 1_555
C47 C36 1_555 1_555
C48 C47 1_555 1_555
H37 C48 1_555 1_555
C49 N11 1_555 1_555
H38 C49 1_555 1_555
C50 N12 1_555 1_555
H39 C50 1_555 1_555
C51 C50 1_555 1_555
H40 C51 1_555 1_555
C52 C44 1_555 1_555
C53 C52 1_555 1_555
H41 C53 1_555 1_555
C54 N12 1_555 1_555
H42 C54 1_555 1_555
N14 Co3 1_555 1_555
O3 C1 1_555 1_555
O9 C8 1_555 1_555
C6 C7 1_555 1_555
C13 C14 1_555 1_555
C27 C28 1_555 1_555
C32 C33 1_555 1_555
C46 C47 1_555 1_555
C48 C49 1_555 1_555
C51 C52 1_555 1_555
C53 C54 1_555 1_555
O6 N2_2 1_555 1_555
O7_2 N2_2 1_555 1_555
N2_2 C6_2 1_555 1_555
H4 C5 1_555 1_555
C6_2 C5 1_555 1_555
C40_2 C39_2 1_555 1_555
H27_2 C40_2 1_555 1_555
C41 N14 1_555 1_555
H28 C41 1_555 1_555
C42_2 C39_2 1_555 1_555
C43_2 C42_2 1_555 1_555
H31_2 C43_2 1_555 1_555
H32_2 C43_2 1_555 1_555
C44_2 C43_2 1_555 1_555
H34_2 C44_2 1_555 1_555
H40_2 C51_2 1_555 1_555
C40_2 C41 1_555 1_555
H4_2 C5_2 1_555 1_555
C41_2 N10 1_555 1_555
H28_2 C41_2 1_555 1_555
Co4 N10 1_555 1_555
O7_3 N2_3 1_555 1_555
N2_3 C6_3 1_555 1_555
N9 C29_2 1_555 1_555
C30_2 C29_2 1_555 1_555
H16_2 C30_2 1_555 1_555
C31_2 C30_2 1_555 1_555
C32_2 C31_2 1_555 1_555
H17_2 C32_2 1_555 1_555
C33_2 N9 1_555 1_555
H18_2 C33_2 1_555 1_555
C34_2 C31_2 1_555 1_555
H19_2 C34_2 1_555 1_555
H20_2 C34_2 1_555 1_555
C35_2 C34_2 1_555 1_555
H21_2 C35_2 1_555 1_555
H22_2 C35_2 1_555 1_555
C36_2 C35_2 1_555 1_555
H23_2 C36_2 1_555 1_555
H24_2 C36_2 1_555 1_555
C37_2 H25_2 1_555 1_555
C38_2 C37_2 1_555 1_555
H26_2 C38_2 1_555 1_555
C39_3 C38_2 1_555 1_555
C40_3 C39_3 1_555 1_555
H27_3 C40_3 1_555 1_555
C42_3 C39_3 1_555 1_555
H29_2 C42_3 1_555 1_555
H30_2 C42_3 1_555 1_555
C43_3 C42_3 1_555 1_555
H31_3 C43_3 1_555 1_555
H32_3 C43_3 1_555 1_555
C44_3 C43_3 1_555 1_555
H34_3 C44_3 1_555 1_555
H36_2 C46_2 1_555 1_555
C47_2 C36_2 1_555 1_555
C48_2 C47_2 1_555 1_555
H37_2 C48_2 1_555 1_555
H40_3 C51_3 1_555 1_555
C32_2 C33_2 1_555 1_555
C46_2 C47_2 1_555 1_555
Co1 O1_2 1_555 1_555
Co2_2 O1_2 1_555 1_555
O1_2 H1_2 1_555 1_555
H2_2 O1_2 1_555 1_555
O2_2 Co1 1_555 1_555
O3_2 Co2_2 1_555 1_555
O8_2 Co1 1_555 1_555
O9_2 Co2_2 1_555 1_555
O20_2 Co2_2 1_555 1_555
O21_2 C22_2 1_555 1_555
O22_2 N7_2 1_555 1_555
O23_2 N7_2 1_555 1_555
O24_2 N8_2 1_555 1_555
O25_2 N8_2 1_555 1_555
N7_2 C25_2 1_555 1_555
N8_2 C27_2 1_555 1_555
N11_2 Co2_2 1_555 1_555
N12_2 Co2_2 1_555 1_555
C1_2 O2_2 1_555 1_555
C2_2 C1_2 1_555 1_555
C7_2 C2_2 1_555 1_555
H5_2 C7_2 1_555 1_555
C8_2 O8_2 1_555 1_555
C9_2 C8_2 1_555 1_555
C10_2 C9_2 1_555 1_555
H6_2 C10_2 1_555 1_555
C11_2 C10_2 1_555 1_555
C14_2 C9_2 1_555 1_555
H8_2 C14_2 1_555 1_555
C22_2 O20_2 1_555 1_555
C23_2 C22_2 1_555 1_555
C24_2 C23_2 1_555 1_555
H12_2 C24_2 1_555 1_555
C25_2 C24_2 1_555 1_555
C26_2 C25_2 1_555 1_555
H13_2 C26_2 1_555 1_555
C27_2 C26_2 1_555 1_555
C28_2 C23_2 1_555 1_555
H14_2 C28_2 1_555 1_555
C45_2 N11_2 1_555 1_555
H35_2 C45_2 1_555 1_555
C49_2 N11_2 1_555 1_555
H38_2 C49_2 1_555 1_555
C50_2 N12_2 1_555 1_555
H39_2 C50_2 1_555 1_555
C53_2 C52_2 1_555 1_555
H41_2 C53_2 1_555 1_555
C54_2 N12_2 1_555 1_555
H42_2 C54_2 1_555 1_555
N14_2 Co1 1_555 1_555
O3_2 C1_2 1_555 1_555
O9_2 C8_2 1_555 1_555
C13_2 C14_2 1_555 1_555
C27_2 C28_2 1_555 1_555
C53_2 C54_2 1_555 1_555
O16_2 N5_2 1_555 1_555
O17_2 N5_2 1_555 1_555
O18_2 N6_2 1_555 1_555
O19_2 N6_2 1_555 1_555
N5_2 C18_2 1_555 1_555
N6_2 C20_2 1_555 1_555
H3_2 C3_2 1_555 1_555
C4_2 C3_2 1_555 1_555
C15_2 O14_2 1_555 1_555
C16_2 C15_2 1_555 1_555
C17_2 C16_2 1_555 1_555
H9_2 C17_2 1_555 1_555
C18_2 C17_2 1_555 1_555
C19_2 C18_2 1_555 1_555
H10_2 C19_2 1_555 1_555
C20_2 C19_2 1_555 1_555
C21_2 C16_2 1_555 1_555
H11_2 C21_2 1_555 1_555
C20_2 C21_2 1_555 1_555
Co4 O1_3 1_555 1_555
Co2_3 O1_3 1_555 1_555
O1_3 H1_3 1_555 1_555
H2_3 O1_3 1_555 1_555
O2_3 Co4 1_555 1_555
O3_3 Co2_3 1_555 1_555
O4_2 N1_2 1_555 1_555
O5_2 N1_2 1_555 1_555
O6_3 N2_4 1_555 1_555
O7_4 N2_4 1_555 1_555
O8_3 Co4 1_555 1_555
O9_3 Co2_3 1_555 1_555
O10 N3 1_555 1_555
O11_3 N3 1_555 1_555
O12 N4 1_555 1_555
O13 N4 1_555 1_555
O14_3 Co4 1_555 1_555
O20_3 Co2_3 1_555 1_555
N1_2 C4_3 1_555 1_555
N2_4 C6_4 1_555 1_555
N3 C11_3 1_555 1_555
N4 C13_3 1_555 1_555
N11_3 Co2_3 1_555 1_555
N12_3 Co2_3 1_555 1_555
C1_3 O2_3 1_555 1_555
C2_3 C1_3 1_555 1_555
C3_3 C2_3 1_555 1_555
H3_3 C3_3 1_555 1_555
C4_3 C3_3 1_555 1_555
C5_3 C4_3 1_555 1_555
H4_3 C5_3 1_555 1_555
C6_4 C5_3 1_555 1_555
C7_3 C2_3 1_555 1_555
H5_3 C7_3 1_555 1_555
C8_3 O8_3 1_555 1_555
C9_3 C8_3 1_555 1_555
C10_3 C9_3 1_555 1_555
H6_3 C10_3 1_555 1_555
C11_3 C10_3 1_555 1_555
C12 C11_3 1_555 1_555
H7 C12 1_555 1_555
C13_3 C12 1_555 1_555
C14_3 C9_3 1_555 1_555
H8_3 C14_3 1_555 1_555
C22_3 O20_3 1_555 1_555
C40_4 C39_4 1_555 1_555
H27_4 C40_4 1_555 1_555
C41_3 N14_2 1_555 1_555
H28_3 C41_3 1_555 1_555
C42_4 C39_4 1_555 1_555
C43_4 C42_4 1_555 1_555
H31_4 C43_4 1_555 1_555
H32_4 C43_4 1_555 1_555
C44_4 C43_4 1_555 1_555
H33_3 C44_4 1_555 1_555
H34_4 C44_4 1_555 1_555
C45_3 N11_3 1_555 1_555
H35_3 C45_3 1_555 1_555
C50_3 N12_3 1_555 1_555
H39_3 C50_3 1_555 1_555
C51_4 C50_3 1_555 1_555
H40_4 C51_4 1_555 1_555
C52_3 C44_4 1_555 1_555
C53_3 C52_3 1_555 1_555
H41_3 C53_3 1_555 1_555
C54_3 N12_3 1_555 1_555
H42_3 C54_3 1_555 1_555
N13_2 Co4 1_555 1_555
O3_3 C1_3 1_555 1_555
O9_3 C8_3 1_555 1_555
C6_4 C7_3 1_555 1_555
C13_3 C14_3 1_555 1_555
C40_4 C41_3 1_555 1_555
C51_4 C52_3 1_555 1_555
C53_3 C54_3 1_555 1_555
O16_3 N5_3 1_555 1_555
O17_3 N5_3 1_555 1_555
N5_3 C18_3 1_555 1_555
N13_2 C29_3 1_555 1_555
C29_3 H15_3 1_555 1_555
C30_3 C29_3 1_555 1_555
H16_3 C30_3 1_555 1_555
C31_3 C30_3 1_555 1_555
C32_3 C31_3 1_555 1_555
H17_3 C32_3 1_555 1_555
C33_3 N13_2 1_555 1_555
H18_3 C33_3 1_555 1_555
C34_3 C31_3 1_555 1_555
H19_3 C34_3 1_555 1_555
H20_3 C34_3 1_555 1_555
C35_3 C34_3 1_555 1_555
H21_3 C35_3 1_555 1_555
H22_3 C35_3 1_555 1_555
C36_3 C35_3 1_555 1_555
H23_3 C36_3 1_555 1_555
H24_3 C36_3 1_555 1_555
H36_3 C46_3 1_555 1_555
C47_3 C36_3 1_555 1_555
C48_3 C47_3 1_555 1_555
H37_3 C48_3 1_555 1_555
C32_3 C33_3 1_555 1_555
C46_3 C47_3 1_555 1_555
O10_2 N3_2 1_555 1_555
O12_2 N4_2 1_555 1_555
O13_2 N4_2 1_555 1_555
H7_2 C12_2 1_555 1_555
O10_3 N3_3 1_555 1_555
O12_3 N4_3 1_555 1_555
O13_3 N4_3 1_555 1_555
H4_4 C5_4 1_555 1_555
H7_3 C12_3 1_555 1_555
C41_4 N10_2 1_555 1_555
H28_4 C41_4 1_555 1_555
Co4_2 N10_2 1_555 1_555
O15_3 C15_3 1_555 1_555
O16_4 N5_4 1_555 1_555
O17_4 N5_4 1_555 1_555
O19_3 N6_3 1_555 1_555
O24_3 N8_3 1_555 1_555
O25_3 N8_3 1_555 1_555
N5_4 C18_4 1_555 1_555
N6_3 C20_3 1_555 1_555
N7_3 C25_3 1_555 1_555
N8_3 C27_3 1_555 1_555
N9_2 C29_4 1_555 1_555
C16_3 C15_3 1_555 1_555
C17_3 C16_3 1_555 1_555
H9_3 C17_3 1_555 1_555
C18_4 C17_3 1_555 1_555
C19_3 C18_4 1_555 1_555
H10_4 C19_3 1_555 1_555
C20_3 C19_3 1_555 1_555
C21_3 C16_3 1_555 1_555
C24_3 C23_3 1_555 1_555
C25_3 C24_3 1_555 1_555
C26_3 C25_3 1_555 1_555
H13_3 C26_3 1_555 1_555
C27_3 C26_3 1_555 1_555
C28_3 C23_3 1_555 1_555
H14_3 C28_3 1_555 1_555
C29_4 H15_4 1_555 1_555
C30_4 C29_4 1_555 1_555
H16_4 C30_4 1_555 1_555
C31_4 C30_4 1_555 1_555
C32_4 C31_4 1_555 1_555
H17_4 C32_4 1_555 1_555
C33_4 N9_2 1_555 1_555
H18_4 C33_4 1_555 1_555
C34_4 C31_4 1_555 1_555
H19_4 C34_4 1_555 1_555
H20_4 C34_4 1_555 1_555
C35_4 C34_4 1_555 1_555
H21_4 C35_4 1_555 1_555
H22_4 C35_4 1_555 1_555
C36_4 C35_4 1_555 1_555
H23_4 C36_4 1_555 1_555
H24_4 C36_4 1_555 1_555
H36_4 C46_4 1_555 1_555
C47_4 C36_4 1_555 1_555
C48_4 C47_4 1_555 1_555
H37_4 C48_4 1_555 1_555
H38_3 C49_3 1_555 1_555
Co4_2 N9_2 1_555 1_555
C20_3 C21_3 1_555 1_555
C27_3 C28_3 1_555 1_555
C32_4 C33_4 1_555 1_555
C46_4 C47_4 1_555 1_555
C48_4 C49_3 1_555 1_555
Co4_2 O1_4 1_555 1_555
Co2_4 O1_4 1_555 1_555
O1_4 H1_4 1_555 1_555
H2_4 O1_4 1_555 1_555
O2_4 Co4_2 1_555 1_555
O3_4 Co2_4 1_555 1_555
O4_3 N1_3 1_555 1_555
O5_3 N1_3 1_555 1_555
O8_4 Co4_2 1_555 1_555
O9_4 Co2_4 1_555 1_555
O10_4 N3_4 1_555 1_555
O11_4 N3_4 1_555 1_555
O12_4 N4_4 1_555 1_555
O13_4 N4_4 1_555 1_555
O14_4 Co4_2 1_555 1_555
O20_4 Co2_4 1_555 1_555
N1_3 C4_4 1_555 1_555
N3_4 C11_4 1_555 1_555
N4_4 C13_4 1_555 1_555
N11_4 Co2_4 1_555 1_555
N12_4 Co2_4 1_555 1_555
C1_4 O2_4 1_555 1_555
C2_4 C1_4 1_555 1_555
C3_4 C2_4 1_555 1_555
H3_4 C3_4 1_555 1_555
C4_4 C3_4 1_555 1_555
C7_4 C2_4 1_555 1_555
H5_4 C7_4 1_555 1_555
C8_4 O8_4 1_555 1_555
C9_4 C8_4 1_555 1_555
C10_4 C9_4 1_555 1_555
H6_4 C10_4 1_555 1_555
C11_4 C10_4 1_555 1_555
C12_4 C11_4 1_555 1_555
H7_4 C12_4 1_555 1_555
C13_4 C12_4 1_555 1_555
C14_4 C9_4 1_555 1_555
H8_4 C14_4 1_555 1_555
C22_4 O20_4 1_555 1_555
C45_4 N11_4 1_555 1_555
H35_4 C45_4 1_555 1_555
C50_4 N12_4 1_555 1_555
H39_4 C50_4 1_555 1_555
C53_4 C52_4 1_555 1_555
H41_4 C53_4 1_555 1_555
C54_4 N12_4 1_555 1_555
H42_4 C54_4 1_555 1_555
O3_4 C1_4 1_555 1_555
O9_4 C8_4 1_555 1_555
C13_4 C14_4 1_555 1_555
C53_4 C54_4 1_555 1_555
O4_4 N1_4 1_555 1_555
O5_4 N1_4 1_555 1_555
C37_3 H25_3 1_555 1_555
C38_3 C37_3 1_555 1_555
H26_3 C38_3 1_555 1_555
O15_4 C15_4 1_555 1_555
O19_4 N6_4 1_555 1_555
O24_4 N8_4 1_555 1_555
O25_4 N8_4 1_555 1_555
N6_4 C20_4 1_555 1_555
N7_4 C25_4 1_555 1_555
N8_4 C27_4 1_555 1_555
C16_4 C15_4 1_555 1_555
C17_4 C16_4 1_555 1_555
H9_4 C17_4 1_555 1_555
C20_4 C19_4 1_555 1_555
C21_4 C16_4 1_555 1_555
C24_4 C23_4 1_555 1_555
C25_4 C24_4 1_555 1_555
C26_4 C25_4 1_555 1_555
H13_4 C26_4 1_555 1_555
C27_4 C26_4 1_555 1_555
C28_4 C23_4 1_555 1_555
H14_4 C28_4 1_555 1_555
H38_4 C49_4 1_555 1_555
C20_4 C21_4 1_555 1_555
C27_4 C28_4 1_555 1_555
C37_4 H25_4 1_555 1_555
C38_4 C37_4 1_555 1_555
H26_4 C38_4 1_555 1_555

#END
