
###############################################################################
#
# This file contains modified crystal structure data generated from the
# MOF subset of the Cambridge Structural Database (CSD) v543 
# hosted by the Cambridge Crystallographic Data Centre (CCDC).
#
# This work is licensed under the Creative Commons
# Attribution-NonCommercial-ShareAlike 4.0 International License.
# To view a copy of this license, visit
# http://creativecommons.org/licenses/by-nc-sa/4.0/
# or send a letter to
# Creative Commons, PO Box 1866, Mountain View, CA 94042, USA.
#
# CIF created using the CSD Python API on 29 September 2022
# The structure has been converted into the P1 space group
# The structure has a 3D framework
# The original CSD entry PODCUJ is in the tetragonal crystal system
# The framework has been calculated to contain at least 10.0% void space
# The void calculation uses a probe of radius 1.32A, grid spacing 0.4
# H atom positions have been added when not included in the experimental data
# Generated hydrogen atom positions removed from atoms on special positions
#
###############################################################################

data_PODCUJ
_chemical_formula_moiety         '(C192 H168 Cu16 O80)n'
_symmetry_cell_setting           triclinic
_symmetry_space_group_name_H-M   'P 1'
_symmetry_Int_Tables_number      1
_space_group_name_Hall           'P 1'
loop_
_symmetry_equiv_pos_site_id
_symmetry_equiv_pos_as_xyz
1 x,y,z
_cell_length_a                   18.8260(8)
_cell_length_b                   18.8260(8)
_cell_length_c                   27.3427(12)
_cell_angle_alpha                90
_cell_angle_beta                 90
_cell_angle_gamma                90
_cell_volume                     9690.75
loop_
_atom_site_label
_atom_site_type_symbol
_atom_site_fract_x
_atom_site_fract_y
_atom_site_fract_z
Cu1 Cu 0.70314(3) 0.29686(3) 0.71685(2)
Cu2 Cu 0.76738(3) 0.23262(3) 0.79135(2)
O1 O 0.69711(19) 0.20133(16) 0.68995(12)
O2 O 0.75035(19) 0.14577(16) 0.75274(11)
O5 O 0.6528(2) 0.3472(2) 0.65597(18)
O6 O 0.81874(19) 0.18126(19) 0.85104(17)
C1 C 0.7226(3) 0.0788(2) 0.68296(17)
C2 C 0.7353(3) 0.0163(3) 0.70629(16)
H1 H 0.7446 0.0157 0.7404
C5 C 0.7109(5) 0.0182(3) 0.60543(19)
C6 C 0.7107(4) 0.0809(3) 0.63333(18)
H3 H 0.7023 0.1252 0.6177
C7 C 0.7229(3) 0.1486(2) 0.71100(13)
C9 C 0.7046(6) 0.0191(4) 0.5503(3)
C11 C 0.6428(6) 0.0469(4) 0.5251(2)
C12 C 0.5773(6) 0.0777(4) 0.5529(2)
H5 H 0.5852 0.0740 0.5882
H6 H 0.5709 0.1277 0.5439
H7 H 0.5347 0.0508 0.5439
O7 O 0.69711(19) 0.20133(16) 0.31005(12)
O8 O 0.75035(19) 0.14577(16) 0.24726(11)
C13 C 0.7226(3) 0.0788(2) 0.31704(17)
C14 C 0.7353(3) 0.0163(3) 0.29371(16)
H8 H 0.7446 0.0157 0.2596
C17 C 0.7109(5) 0.0182(3) 0.39457(19)
C18 C 0.7107(4) 0.0809(3) 0.36667(18)
H10 H 0.7023 0.1252 0.3823
C19 C 0.7229(3) 0.1486(2) 0.28900(13)
C21 C 0.7046(6) 0.0191(4) 0.4497(3)
C23 C 0.6428(6) 0.0469(4) 0.4749(2)
C24 C 0.5773(6) 0.0777(4) 0.4471(2)
H12 H 0.5852 0.0740 0.4118
H13 H 0.5709 0.1277 0.4561
H14 H 0.5347 0.0508 0.4561
Cu5 Cu 0.70314(3) 0.29686(3) 0.28315(2)
Cu8 Cu 0.76738(3) 0.23262(3) 0.20865(2)
O11 O 0.79867(16) 0.30289(19) 0.68995(12)
O12 O 0.85423(16) 0.24965(19) 0.75274(11)
O13 O 0.7213(2) 0.38349(16) 0.75468(11)
O14 O 0.61651(16) 0.2787(2) 0.75468(11)
O15 O 0.77356(19) 0.32909(16) 0.81810(11)
O16 O 0.67091(16) 0.22644(19) 0.81810(11)
O3 O 0.7787(2) 0.88349(16) 0.74532(11)
O4 O 0.72644(19) 0.82909(16) 0.68190(11)
C3 C 0.7344(3) 0.9528(2) 0.67948(16)
C4 C 0.7239(4) 0.9543(3) 0.62903(17)
H2 H 0.7257 0.9114 0.6108
C8 C 0.7475(3) 0.8827(3) 0.70426(14)
C10 C 0.7564(6) 0.9893(4) 0.5255(3)
H4 H 0.7945 0.9674 0.5426
O9 O 0.7787(2) 0.88349(16) 0.25468(11)
O10 O 0.72644(19) 0.82909(16) 0.31810(11)
C15 C 0.7344(3) 0.9528(2) 0.32052(16)
C16 C 0.7239(4) 0.9543(3) 0.37097(17)
H9 H 0.7257 0.9114 0.3892
C20 C 0.7475(3) 0.8827(3) 0.29574(14)
C22 C 0.7564(6) 0.9893(4) 0.4745(3)
H11 H 0.7945 0.9674 0.4574
Cu3 Cu 0.79686(3) 0.79686(3) 0.21685(2)
Cu4 Cu 0.79686(3) 0.79686(3) 0.78315(2)
Cu6 Cu 0.73262(3) 0.73262(3) 0.29135(2)
Cu7 Cu 0.73262(3) 0.73262(3) 0.70865(2)
O3_2 O 0.2213(2) 0.11651(16) 0.74532(11)
O4_2 O 0.27356(19) 0.17091(16) 0.68190(11)
C3_2 C 0.2656(3) 0.0472(2) 0.67948(16)
C4_2 C 0.2761(4) 0.0457(3) 0.62903(17)
H2_2 H 0.2743 0.0886 0.6108
C8_2 C 0.2525(3) 0.1173(3) 0.70426(14)
C10_2 C 0.2436(6) 0.0107(4) 0.5255(3)
H4_2 H 0.2055 0.0326 0.5426
O9_2 O 0.2213(2) 0.11651(16) 0.25468(11)
O10_2 O 0.27356(19) 0.17091(16) 0.31810(11)
C15_2 C 0.2656(3) 0.0472(2) 0.32052(16)
C16_2 C 0.2761(4) 0.0457(3) 0.37097(17)
H9_2 H 0.2743 0.0886 0.3892
C20_2 C 0.2525(3) 0.1173(3) 0.29574(14)
C22_2 C 0.2436(6) 0.0107(4) 0.4745(3)
H11_2 H 0.2055 0.0326 0.4574
Cu3_2 Cu 0.20314(3) 0.20314(3) 0.21685(2)
Cu4_2 Cu 0.20314(3) 0.20314(3) 0.78315(2)
Cu6_2 Cu 0.26738(3) 0.26738(3) 0.29135(2)
Cu7_2 Cu 0.26738(3) 0.26738(3) 0.70865(2)
Cu1_2 Cu 0.29686(3) 0.70314(3) 0.71685(2)
Cu2_2 Cu 0.23262(3) 0.76738(3) 0.79135(2)
O1_2 O 0.30289(19) 0.79867(16) 0.68995(12)
O2_2 O 0.24965(19) 0.85423(16) 0.75274(11)
O5_2 O 0.3472(2) 0.6528(2) 0.65597(18)
O6_2 O 0.18126(19) 0.81874(19) 0.85104(17)
C1_2 C 0.2774(3) 0.9212(2) 0.68296(17)
C2_2 C 0.2647(3) 0.9837(3) 0.70629(16)
H1_2 H 0.2554 0.9843 0.7404
C5_2 C 0.2891(5) 0.9818(3) 0.60543(19)
C6_2 C 0.2893(4) 0.9191(3) 0.63333(18)
H3_2 H 0.2977 0.8748 0.6177
C7_2 C 0.2771(3) 0.8514(2) 0.71100(13)
C9_2 C 0.2954(6) 0.9809(4) 0.5503(3)
C11_2 C 0.3572(6) 0.9531(4) 0.5251(2)
C12_2 C 0.4227(6) 0.9223(4) 0.5529(2)
H5_2 H 0.4148 0.9260 0.5882
H6_2 H 0.4291 0.8723 0.5439
H7_2 H 0.4653 0.9492 0.5439
O7_2 O 0.30289(19) 0.79867(16) 0.31005(12)
O8_2 O 0.24965(19) 0.85423(16) 0.24726(11)
C13_2 C 0.2774(3) 0.9212(2) 0.31704(17)
C14_2 C 0.2647(3) 0.9837(3) 0.29371(16)
H8_2 H 0.2554 0.9843 0.2596
C17_2 C 0.2891(5) 0.9818(3) 0.39457(19)
C18_2 C 0.2893(4) 0.9191(3) 0.36667(18)
H10_2 H 0.2977 0.8748 0.3823
C19_2 C 0.2771(3) 0.8514(2) 0.28900(13)
C21_2 C 0.2954(6) 0.9809(4) 0.4497(3)
C23_2 C 0.3572(6) 0.9531(4) 0.4749(2)
C24_2 C 0.4227(6) 0.9223(4) 0.4471(2)
H12_2 H 0.4148 0.9260 0.4118
H13_2 H 0.4291 0.8723 0.4561
H14_2 H 0.4653 0.9492 0.4561
Cu5_2 Cu 0.29686(3) 0.70314(3) 0.28315(2)
Cu8_2 Cu 0.23262(3) 0.76738(3) 0.20865(2)
O11_2 O 0.20133(16) 0.69711(19) 0.68995(12)
O12_2 O 0.14577(16) 0.75035(19) 0.75274(11)
O13_2 O 0.2787(2) 0.61651(16) 0.75468(11)
O14_2 O 0.38349(16) 0.7213(2) 0.75468(11)
O15_2 O 0.22644(19) 0.67091(16) 0.81810(11)
O16_2 O 0.32909(16) 0.77356(19) 0.81810(11)
O1_3 O 0.29867(16) 0.19711(19) 0.18995(12)
O2_3 O 0.35423(16) 0.25035(19) 0.25274(11)
O3_3 O 0.61651(16) 0.2787(2) 0.24532(11)
O4_3 O 0.67091(16) 0.22644(19) 0.18190(11)
O5_3 O 0.1528(2) 0.1528(2) 0.15597(18)
O6_3 O 0.31874(19) 0.31874(19) 0.35104(17)
C1_3 C 0.4212(2) 0.2226(3) 0.18296(17)
C2_3 C 0.4837(3) 0.2353(3) 0.20629(16)
H1_3 H 0.4843 0.2446 0.2404
C3_3 C 0.5472(2) 0.2344(3) 0.17948(16)
C4_3 C 0.5457(3) 0.2239(4) 0.12903(17)
H2_3 H 0.5886 0.2257 0.1108
C5_3 C 0.4818(3) 0.2109(5) 0.10543(19)
C6_3 C 0.4191(3) 0.2107(4) 0.13333(18)
H3_3 H 0.3748 0.2023 0.1177
C7_3 C 0.3514(2) 0.2229(3) 0.21100(13)
C8_3 C 0.6173(3) 0.2475(3) 0.20426(14)
C9_3 C 0.4809(4) 0.2046(6) 0.0503(3)
C10_3 C 0.5107(4) 0.2564(6) 0.0255(3)
H4_3 H 0.5326 0.2945 0.0426
C11_3 C 0.4531(4) 0.1428(6) 0.0251(2)
C12_3 C 0.4223(4) 0.0773(6) 0.0529(2)
H5_3 H 0.4260 0.0852 0.0882
H6_3 H 0.3723 0.0709 0.0439
H7_3 H 0.4492 0.0347 0.0439
O11_3 O 0.19711(19) 0.29867(16) 0.18995(12)
O12_3 O 0.25035(19) 0.35423(16) 0.25274(11)
O13_3 O 0.11651(16) 0.2213(2) 0.25468(11)
O15_3 O 0.17091(16) 0.27356(19) 0.31810(11)
O7_3 O 0.29867(16) 0.19711(19) 0.81005(12)
O8_3 O 0.35423(16) 0.25035(19) 0.74726(11)
C13_3 C 0.4212(2) 0.2226(3) 0.81704(17)
C14_3 C 0.4837(3) 0.2353(3) 0.79371(16)
H8_3 H 0.4843 0.2446 0.7596
C15_3 C 0.5472(2) 0.2344(3) 0.82052(16)
C16_3 C 0.5457(3) 0.2239(4) 0.87097(17)
H9_3 H 0.5886 0.2257 0.8892
C17_3 C 0.4818(3) 0.2109(5) 0.89457(19)
C18_3 C 0.4191(3) 0.2107(4) 0.86667(18)
H10_3 H 0.3748 0.2023 0.8823
C19_3 C 0.3514(2) 0.2229(3) 0.78900(13)
C20_3 C 0.6173(3) 0.2475(3) 0.79574(14)
C21_3 C 0.4809(4) 0.2046(6) 0.9497(3)
C22_3 C 0.5107(4) 0.2564(6) 0.9745(3)
H11_3 H 0.5326 0.2945 0.9574
C23_3 C 0.4531(4) 0.1428(6) 0.9749(2)
C24_3 C 0.4223(4) 0.0773(6) 0.9471(2)
H12_3 H 0.4260 0.0852 0.9118
H13_3 H 0.3723 0.0709 0.9561
H14_3 H 0.4492 0.0347 0.9561
O1_4 O 0.70133(16) 0.80289(19) 0.18995(12)
O2_4 O 0.64577(16) 0.74965(19) 0.25274(11)
O3_4 O 0.38349(16) 0.7213(2) 0.24532(11)
O4_4 O 0.32909(16) 0.77356(19) 0.18190(11)
O5_4 O 0.8472(2) 0.8472(2) 0.15597(18)
O6_4 O 0.68126(19) 0.68126(19) 0.35104(17)
C1_4 C 0.5788(2) 0.7774(3) 0.18296(17)
C2_4 C 0.5163(3) 0.7647(3) 0.20629(16)
H1_4 H 0.5157 0.7554 0.2404
C3_4 C 0.4528(2) 0.7656(3) 0.17948(16)
C4_4 C 0.4543(3) 0.7761(4) 0.12903(17)
H2_4 H 0.4114 0.7743 0.1108
C5_4 C 0.5182(3) 0.7891(5) 0.10543(19)
C6_4 C 0.5809(3) 0.7893(4) 0.13333(18)
H3_4 H 0.6252 0.7977 0.1177
C7_4 C 0.6486(2) 0.7771(3) 0.21100(13)
C8_4 C 0.3827(3) 0.7525(3) 0.20426(14)
C9_4 C 0.5191(4) 0.7954(6) 0.0503(3)
C10_4 C 0.4893(4) 0.7436(6) 0.0255(3)
H4_4 H 0.4674 0.7055 0.0426
C11_4 C 0.5469(4) 0.8572(6) 0.0251(2)
C12_4 C 0.5777(4) 0.9227(6) 0.0529(2)
H5_4 H 0.5740 0.9148 0.0882
H6_4 H 0.6277 0.9291 0.0439
H7_4 H 0.5508 0.9653 0.0439
O11_4 O 0.80289(19) 0.70133(16) 0.18995(12)
O12_4 O 0.74965(19) 0.64577(16) 0.25274(11)
O13_4 O 0.88349(16) 0.7787(2) 0.25468(11)
O15_4 O 0.82909(16) 0.72644(19) 0.31810(11)
O7_4 O 0.70133(16) 0.80289(19) 0.81005(12)
O8_4 O 0.64577(16) 0.74965(19) 0.74726(11)
C13_4 C 0.5788(2) 0.7774(3) 0.81704(17)
C14_4 C 0.5163(3) 0.7647(3) 0.79371(16)
H8_4 H 0.5157 0.7554 0.7596
C15_4 C 0.4528(2) 0.7656(3) 0.82052(16)
C16_4 C 0.4543(3) 0.7761(4) 0.87097(17)
H9_4 H 0.4114 0.7743 0.8892
C17_4 C 0.5182(3) 0.7891(5) 0.89457(19)
C18_4 C 0.5809(3) 0.7893(4) 0.86667(18)
H10_4 H 0.6252 0.7977 0.8823
C19_4 C 0.6486(2) 0.7771(3) 0.78900(13)
C20_4 C 0.3827(3) 0.7525(3) 0.79574(14)
C21_4 C 0.5191(4) 0.7954(6) 0.9497(3)
C22_4 C 0.4893(4) 0.7436(6) 0.9745(3)
H11_4 H 0.4674 0.7055 0.9574
C23_4 C 0.5469(4) 0.8572(6) 0.9749(2)
C24_4 C 0.5777(4) 0.9227(6) 0.9471(2)
H12_4 H 0.5740 0.9148 0.9118
H13_4 H 0.6277 0.9291 0.9561
H14_4 H 0.5508 0.9653 0.9561
O9_3 O 0.7213(2) 0.38349(16) 0.24532(11)
O10_3 O 0.77356(19) 0.32909(16) 0.18190(11)
C13_5 C 0.7774(3) 0.5788(2) 0.18296(17)
C14_5 C 0.7647(3) 0.5163(3) 0.20629(16)
H8_5 H 0.7554 0.5157 0.2404
C15_5 C 0.7656(3) 0.4528(2) 0.17948(16)
C16_5 C 0.7761(4) 0.4543(3) 0.12903(17)
H9_5 H 0.7743 0.4114 0.1108
C17_5 C 0.7891(5) 0.5182(3) 0.10543(19)
C18_5 C 0.7893(4) 0.5809(3) 0.13333(18)
H10_5 H 0.7977 0.6252 0.1177
C19_5 C 0.7771(3) 0.6486(2) 0.21100(13)
C20_5 C 0.7525(3) 0.3827(3) 0.20426(14)
C21_5 C 0.7954(6) 0.5191(4) 0.0503(3)
C22_5 C 0.7436(6) 0.4893(4) 0.0255(3)
H11_5 H 0.7055 0.4674 0.0426
C23_5 C 0.8572(6) 0.5469(4) 0.0251(2)
C24_5 C 0.9227(6) 0.5777(4) 0.0529(2)
H12_5 H 0.9148 0.5740 0.0882
H13_5 H 0.9291 0.6277 0.0439
H14_5 H 0.9653 0.5508 0.0439
O1_5 O 0.80289(19) 0.70133(16) 0.81005(12)
O2_5 O 0.74965(19) 0.64577(16) 0.74726(11)
O5_5 O 0.8472(2) 0.8472(2) 0.84403(18)
O6_5 O 0.68126(19) 0.68126(19) 0.64896(17)
C1_5 C 0.7774(3) 0.5788(2) 0.81704(17)
C2_5 C 0.7647(3) 0.5163(3) 0.79371(16)
H1_5 H 0.7554 0.5157 0.7596
C3_5 C 0.7656(3) 0.4528(2) 0.82052(16)
C4_5 C 0.7761(4) 0.4543(3) 0.87097(17)
H2_5 H 0.7743 0.4114 0.8892
C5_5 C 0.7891(5) 0.5182(3) 0.89457(19)
C6_5 C 0.7893(4) 0.5809(3) 0.86667(18)
H3_5 H 0.7977 0.6252 0.8823
C7_5 C 0.7771(3) 0.6486(2) 0.78900(13)
C8_5 C 0.7525(3) 0.3827(3) 0.79574(14)
C9_5 C 0.7954(6) 0.5191(4) 0.9497(3)
C10_5 C 0.7436(6) 0.4893(4) 0.9745(3)
H4_5 H 0.7055 0.4674 0.9574
C11_5 C 0.8572(6) 0.5469(4) 0.9749(2)
C12_5 C 0.9227(6) 0.5777(4) 0.9471(2)
H5_5 H 0.9148 0.5740 0.9118
H6_5 H 0.9291 0.6277 0.9561
H7_5 H 0.9653 0.5508 0.9561
O14_3 O 0.88349(16) 0.7787(2) 0.74532(11)
O16_3 O 0.82909(16) 0.72644(19) 0.68190(11)
O9_4 O 0.2787(2) 0.61651(16) 0.24532(11)
O10_4 O 0.22644(19) 0.67091(16) 0.18190(11)
C13_6 C 0.2226(3) 0.4212(2) 0.18296(17)
C14_6 C 0.2353(3) 0.4837(3) 0.20629(16)
H8_6 H 0.2446 0.4843 0.2404
C15_6 C 0.2344(3) 0.5472(2) 0.17948(16)
C16_6 C 0.2239(4) 0.5457(3) 0.12903(17)
H9_6 H 0.2257 0.5886 0.1108
C17_6 C 0.2109(5) 0.4818(3) 0.10543(19)
C18_6 C 0.2107(4) 0.4191(3) 0.13333(18)
H10_6 H 0.2023 0.3748 0.1177
C19_6 C 0.2229(3) 0.3514(2) 0.21100(13)
C20_6 C 0.2475(3) 0.6173(3) 0.20426(14)
C21_6 C 0.2046(6) 0.4809(4) 0.0503(3)
C22_6 C 0.2564(6) 0.5107(4) 0.0255(3)
H11_6 H 0.2945 0.5326 0.0426
C23_6 C 0.1428(6) 0.4531(4) 0.0251(2)
C24_6 C 0.0773(6) 0.4223(4) 0.0529(2)
H12_6 H 0.0852 0.4260 0.0882
H13_6 H 0.0709 0.3723 0.0439
H14_6 H 0.0347 0.4492 0.0439
O1_6 O 0.19711(19) 0.29867(16) 0.81005(12)
O2_6 O 0.25035(19) 0.35423(16) 0.74726(11)
O5_6 O 0.1528(2) 0.1528(2) 0.84403(18)
O6_6 O 0.31874(19) 0.31874(19) 0.64896(17)
C1_6 C 0.2226(3) 0.4212(2) 0.81704(17)
C2_6 C 0.2353(3) 0.4837(3) 0.79371(16)
H1_6 H 0.2446 0.4843 0.7596
C3_6 C 0.2344(3) 0.5472(2) 0.82052(16)
C4_6 C 0.2239(4) 0.5457(3) 0.87097(17)
H2_6 H 0.2257 0.5886 0.8892
C5_6 C 0.2109(5) 0.4818(3) 0.89457(19)
C6_6 C 0.2107(4) 0.4191(3) 0.86667(18)
H3_6 H 0.2023 0.3748 0.8823
C7_6 C 0.2229(3) 0.3514(2) 0.78900(13)
C8_6 C 0.2475(3) 0.6173(3) 0.79574(14)
C9_6 C 0.2046(6) 0.4809(4) 0.9497(3)
C10_6 C 0.2564(6) 0.5107(4) 0.9745(3)
H4_6 H 0.2945 0.5326 0.9574
C11_6 C 0.1428(6) 0.4531(4) 0.9749(2)
C12_6 C 0.0773(6) 0.4223(4) 0.9471(2)
H5_6 H 0.0852 0.4260 0.9118
H6_6 H 0.0709 0.3723 0.9561
H7_6 H 0.0347 0.4492 0.9561
O14_4 O 0.11651(16) 0.2213(2) 0.74532(11)
O16_4 O 0.17091(16) 0.27356(19) 0.68190(11)
O1_7 O 0.20133(16) 0.69711(19) 0.31005(12)
O2_7 O 0.14577(16) 0.75035(19) 0.24726(11)
O5_7 O 0.3472(2) 0.6528(2) 0.34403(18)
O6_7 O 0.18126(19) 0.81874(19) 0.14896(17)
C1_7 C 0.0788(2) 0.7226(3) 0.31704(17)
C2_7 C 0.0163(3) 0.7353(3) 0.29371(16)
H1_7 H 0.0157 0.7446 0.2596
C5_7 C 0.0182(3) 0.7109(5) 0.39457(19)
C6_7 C 0.0809(3) 0.7107(4) 0.36667(18)
H3_7 H 0.1252 0.7023 0.3823
C7_7 C 0.1486(2) 0.7229(3) 0.28900(13)
C9_7 C 0.0191(4) 0.7046(6) 0.4497(3)
C11_7 C 0.0469(4) 0.6428(6) 0.4749(2)
C12_7 C 0.0777(4) 0.5773(6) 0.4471(2)
H5_7 H 0.0740 0.5852 0.4118
H6_7 H 0.1277 0.5709 0.4561
H7_7 H 0.0508 0.5347 0.4561
C13_7 C 0.0788(2) 0.7226(3) 0.68296(17)
C14_7 C 0.0163(3) 0.7353(3) 0.70629(16)
H8_7 H 0.0157 0.7446 0.7404
C17_7 C 0.0182(3) 0.7109(5) 0.60543(19)
C18_7 C 0.0809(3) 0.7107(4) 0.63333(18)
H10_7 H 0.1252 0.7023 0.6177
C19_7 C 0.1486(2) 0.7229(3) 0.71100(13)
C21_7 C 0.0191(4) 0.7046(6) 0.5503(3)
C23_7 C 0.0469(4) 0.6428(6) 0.5251(2)
C24_7 C 0.0777(4) 0.5773(6) 0.5529(2)
H12_7 H 0.0740 0.5852 0.5882
H13_7 H 0.1277 0.5709 0.5439
H14_7 H 0.0508 0.5347 0.5439
C3_7 C 0.9528(2) 0.7344(3) 0.32052(16)
C4_7 C 0.9543(3) 0.7239(4) 0.37097(17)
H2_7 H 0.9114 0.7257 0.3892
C8_7 C 0.8827(3) 0.7475(3) 0.29574(14)
C10_7 C 0.9893(4) 0.7564(6) 0.4745(3)
H4_7 H 0.9674 0.7945 0.4574
C15_7 C 0.9528(2) 0.7344(3) 0.67948(16)
C16_7 C 0.9543(3) 0.7239(4) 0.62903(17)
H9_7 H 0.9114 0.7257 0.6108
C20_7 C 0.8827(3) 0.7475(3) 0.70426(14)
C22_7 C 0.9893(4) 0.7564(6) 0.5255(3)
H11_7 H 0.9674 0.7945 0.5426
C3_8 C 0.0472(2) 0.2656(3) 0.32052(16)
C4_8 C 0.0457(3) 0.2761(4) 0.37097(17)
H2_8 H 0.0886 0.2743 0.3892
C8_8 C 0.1173(3) 0.2525(3) 0.29574(14)
C10_8 C 0.0107(4) 0.2436(6) 0.4745(3)
H4_8 H 0.0326 0.2055 0.4574
C15_8 C 0.0472(2) 0.2656(3) 0.67948(16)
C16_8 C 0.0457(3) 0.2761(4) 0.62903(17)
H9_8 H 0.0886 0.2743 0.6108
C20_8 C 0.1173(3) 0.2525(3) 0.70426(14)
C22_8 C 0.0107(4) 0.2436(6) 0.5255(3)
H11_8 H 0.0326 0.2055 0.5426
O1_8 O 0.79867(16) 0.30289(19) 0.31005(12)
O2_8 O 0.85423(16) 0.24965(19) 0.24726(11)
O5_8 O 0.6528(2) 0.3472(2) 0.34403(18)
O6_8 O 0.81874(19) 0.18126(19) 0.14896(17)
C1_8 C 0.9212(2) 0.2774(3) 0.31704(17)
C2_8 C 0.9837(3) 0.2647(3) 0.29371(16)
H1_8 H 0.9843 0.2554 0.2596
C5_8 C 0.9818(3) 0.2891(5) 0.39457(19)
C6_8 C 0.9191(3) 0.2893(4) 0.36667(18)
H3_8 H 0.8748 0.2977 0.3823
C7_8 C 0.8514(2) 0.2771(3) 0.28900(13)
C9_8 C 0.9809(4) 0.2954(6) 0.4497(3)
C11_8 C 0.9531(4) 0.3572(6) 0.4749(2)
C12_8 C 0.9223(4) 0.4227(6) 0.4471(2)
H5_8 H 0.9260 0.4148 0.4118
H6_8 H 0.8723 0.4291 0.4561
H7_8 H 0.9492 0.4653 0.4561
C13_8 C 0.9212(2) 0.2774(3) 0.68296(17)
C14_8 C 0.9837(3) 0.2647(3) 0.70629(16)
H8_8 H 0.9843 0.2554 0.7404
C17_8 C 0.9818(3) 0.2891(5) 0.60543(19)
C18_8 C 0.9191(3) 0.2893(4) 0.63333(18)
H10_8 H 0.8748 0.2977 0.6177
C19_8 C 0.8514(2) 0.2771(3) 0.71100(13)
C21_8 C 0.9809(4) 0.2954(6) 0.5503(3)
C23_8 C 0.9531(4) 0.3572(6) 0.5251(2)
C24_8 C 0.9223(4) 0.4227(6) 0.5529(2)
H12_8 H 0.9260 0.4148 0.5882
H13_8 H 0.8723 0.4291 0.5439
H14_8 H 0.9492 0.4653 0.5439
loop_
_geom_bond_atom_site_label_1
_geom_bond_atom_site_label_2
_geom_bond_site_symmetry_1
_geom_bond_site_symmetry_2
Cu1 Cu2 1_555 1_555
Cu2 O2 1_555 1_555
O1 Cu1 1_555 1_555
O2 C7 1_555 1_555
O5 Cu1 1_555 1_555
O6 Cu2 1_555 1_555
C1 C2 1_555 1_555
C2 H1 1_555 1_555
C6 C1 1_555 1_555
H3 C6 1_555 1_555
C7 O1 1_555 1_555
C9 C5 1_555 1_555
C11 C9 1_555 1_555
C12 C11 1_555 1_555
H5 C12 1_555 1_555
H6 C12 1_555 1_555
H7 C12 1_555 1_555
O7 C19 1_555 1_555
O8 C19 1_555 1_555
C13 C14 1_555 1_555
C14 H8 1_555 1_555
C18 C13 1_555 1_555
H10 C18 1_555 1_555
C19 C13 1_555 1_555
C21 C17 1_555 1_555
C23 C11 1_555 1_555
C24 C23 1_555 1_555
H12 C24 1_555 1_555
H13 C24 1_555 1_555
H14 C24 1_555 1_555
Cu5 O7 1_555 1_555
Cu8 O8 1_555 1_555
O11 Cu1 1_555 1_555
O12 Cu2 1_555 1_555
O13 Cu1 1_555 1_555
O14 Cu1 1_555 1_555
O15 Cu2 1_555 1_555
O16 Cu2 1_555 1_555
C1 C7 1_555 1_555
C5 C6 1_555 1_555
C17 C18 1_555 1_555
C21 C23 1_555 1_555
Cu5 Cu8 1_555 1_555
O3 C8 1_555 1_555
O4 C8 1_555 1_555
C4 C3 1_555 1_555
H2 C4 1_555 1_555
C8 C3 1_555 1_555
H4 C10 1_555 1_555
O9 C20 1_555 1_555
O10 C20 1_555 1_555
C16 C15 1_555 1_555
H9 C16 1_555 1_555
C20 C15 1_555 1_555
C22 C10 1_555 1_555
H11 C22 1_555 1_555
Cu3 O9 1_555 1_555
Cu4 O3 1_555 1_555
Cu6 O10 1_555 1_555
Cu7 O4 1_555 1_555
Cu3 Cu6 1_555 1_555
Cu4 Cu7 1_555 1_555
O3_2 C8_2 1_555 1_555
O4_2 C8_2 1_555 1_555
C4_2 C3_2 1_555 1_555
H2_2 C4_2 1_555 1_555
C8_2 C3_2 1_555 1_555
H4_2 C10_2 1_555 1_555
O9_2 C20_2 1_555 1_555
O10_2 C20_2 1_555 1_555
C16_2 C15_2 1_555 1_555
H9_2 C16_2 1_555 1_555
C20_2 C15_2 1_555 1_555
C22_2 C10_2 1_555 1_555
H11_2 C22_2 1_555 1_555
Cu3_2 O9_2 1_555 1_555
Cu4_2 O3_2 1_555 1_555
Cu6_2 O10_2 1_555 1_555
Cu7_2 O4_2 1_555 1_555
Cu3_2 Cu6_2 1_555 1_555
Cu4_2 Cu7_2 1_555 1_555
Cu1_2 Cu2_2 1_555 1_555
Cu2_2 O2_2 1_555 1_555
O1_2 Cu1_2 1_555 1_555
O2_2 C7_2 1_555 1_555
O5_2 Cu1_2 1_555 1_555
O6_2 Cu2_2 1_555 1_555
C1_2 C2_2 1_555 1_555
C2_2 H1_2 1_555 1_555
C6_2 C1_2 1_555 1_555
H3_2 C6_2 1_555 1_555
C7_2 O1_2 1_555 1_555
C9_2 C5_2 1_555 1_555
C11_2 C9_2 1_555 1_555
C12_2 C11_2 1_555 1_555
H5_2 C12_2 1_555 1_555
H6_2 C12_2 1_555 1_555
H7_2 C12_2 1_555 1_555
O7_2 C19_2 1_555 1_555
O8_2 C19_2 1_555 1_555
C13_2 C14_2 1_555 1_555
C14_2 H8_2 1_555 1_555
C18_2 C13_2 1_555 1_555
H10_2 C18_2 1_555 1_555
C19_2 C13_2 1_555 1_555
C21_2 C17_2 1_555 1_555
C23_2 C11_2 1_555 1_555
C24_2 C23_2 1_555 1_555
H12_2 C24_2 1_555 1_555
H13_2 C24_2 1_555 1_555
H14_2 C24_2 1_555 1_555
Cu5_2 O7_2 1_555 1_555
Cu8_2 O8_2 1_555 1_555
O11_2 Cu1_2 1_555 1_555
O12_2 Cu2_2 1_555 1_555
O13_2 Cu1_2 1_555 1_555
O14_2 Cu1_2 1_555 1_555
O15_2 Cu2_2 1_555 1_555
O16_2 Cu2_2 1_555 1_555
C1_2 C7_2 1_555 1_555
C5_2 C6_2 1_555 1_555
C17_2 C18_2 1_555 1_555
C21_2 C23_2 1_555 1_555
Cu5_2 Cu8_2 1_555 1_555
Cu6_2 O2_3 1_555 1_555
O1_3 Cu3_2 1_555 1_555
O2_3 C7_3 1_555 1_555
O3_3 C8_3 1_555 1_555
O4_3 C8_3 1_555 1_555
O5_3 Cu3_2 1_555 1_555
O6_3 Cu6_2 1_555 1_555
C1_3 C2_3 1_555 1_555
C2_3 H1_3 1_555 1_555
C3_3 C2_3 1_555 1_555
C4_3 C3_3 1_555 1_555
H2_3 C4_3 1_555 1_555
C5_3 C4_3 1_555 1_555
C6_3 C1_3 1_555 1_555
H3_3 C6_3 1_555 1_555
C7_3 O1_3 1_555 1_555
C8_3 C3_3 1_555 1_555
C9_3 C5_3 1_555 1_555
C10_3 C9_3 1_555 1_555
H4_3 C10_3 1_555 1_555
C11_3 C9_3 1_555 1_555
C12_3 C11_3 1_555 1_555
H5_3 C12_3 1_555 1_555
H6_3 C12_3 1_555 1_555
H7_3 C12_3 1_555 1_555
Cu5 O3_3 1_555 1_555
Cu8 O4_3 1_555 1_555
O11_3 Cu3_2 1_555 1_555
O12_3 Cu6_2 1_555 1_555
O13_3 Cu3_2 1_555 1_555
O15_3 Cu6_2 1_555 1_555
C1_3 C7_3 1_555 1_555
C5_3 C6_3 1_555 1_555
O7_3 C19_3 1_555 1_555
O8_3 C19_3 1_555 1_555
O14 C20_3 1_555 1_555
O16 C20_3 1_555 1_555
C13_3 C14_3 1_555 1_555
C14_3 H8_3 1_555 1_555
C15_3 C14_3 1_555 1_555
C16_3 C15_3 1_555 1_555
H9_3 C16_3 1_555 1_555
C17_3 C16_3 1_555 1_555
C18_3 C13_3 1_555 1_555
H10_3 C18_3 1_555 1_555
C19_3 C13_3 1_555 1_555
C20_3 C15_3 1_555 1_555
C21_3 C17_3 1_555 1_555
H11_3 C22_3 1_555 1_555
C24_3 C23_3 1_555 1_555
H12_3 C24_3 1_555 1_555
H13_3 C24_3 1_555 1_555
H14_3 C24_3 1_555 1_555
Cu4_2 O7_3 1_555 1_555
Cu7_2 O8_3 1_555 1_555
C17_3 C18_3 1_555 1_555
C21_3 C22_3 1_555 1_555
C21_3 C23_3 1_555 1_555
Cu6 O2_4 1_555 1_555
O1_4 Cu3 1_555 1_555
O2_4 C7_4 1_555 1_555
O3_4 C8_4 1_555 1_555
O4_4 C8_4 1_555 1_555
O5_4 Cu3 1_555 1_555
O6_4 Cu6 1_555 1_555
C1_4 C2_4 1_555 1_555
C2_4 H1_4 1_555 1_555
C3_4 C2_4 1_555 1_555
C4_4 C3_4 1_555 1_555
H2_4 C4_4 1_555 1_555
C5_4 C4_4 1_555 1_555
C6_4 C1_4 1_555 1_555
H3_4 C6_4 1_555 1_555
C7_4 O1_4 1_555 1_555
C8_4 C3_4 1_555 1_555
C9_4 C5_4 1_555 1_555
C10_4 C9_4 1_555 1_555
H4_4 C10_4 1_555 1_555
C11_4 C9_4 1_555 1_555
C12_4 C11_4 1_555 1_555
H5_4 C12_4 1_555 1_555
H6_4 C12_4 1_555 1_555
H7_4 C12_4 1_555 1_555
Cu5_2 O3_4 1_555 1_555
Cu8_2 O4_4 1_555 1_555
O11_4 Cu3 1_555 1_555
O12_4 Cu6 1_555 1_555
O13_4 Cu3 1_555 1_555
O15_4 Cu6 1_555 1_555
C1_4 C7_4 1_555 1_555
C5_4 C6_4 1_555 1_555
O7_4 C19_4 1_555 1_555
O8_4 C19_4 1_555 1_555
O14_2 C20_4 1_555 1_555
O16_2 C20_4 1_555 1_555
C13_4 C14_4 1_555 1_555
C14_4 H8_4 1_555 1_555
C15_4 C14_4 1_555 1_555
C16_4 C15_4 1_555 1_555
H9_4 C16_4 1_555 1_555
C17_4 C16_4 1_555 1_555
C18_4 C13_4 1_555 1_555
H10_4 C18_4 1_555 1_555
C19_4 C13_4 1_555 1_555
C20_4 C15_4 1_555 1_555
C21_4 C17_4 1_555 1_555
H11_4 C22_4 1_555 1_555
C24_4 C23_4 1_555 1_555
H12_4 C24_4 1_555 1_555
H13_4 C24_4 1_555 1_555
H14_4 C24_4 1_555 1_555
Cu4 O7_4 1_555 1_555
Cu7 O8_4 1_555 1_555
C17_4 C18_4 1_555 1_555
C21_4 C22_4 1_555 1_555
C21_4 C23_4 1_555 1_555
O11_4 C19_5 1_555 1_555
O12_4 C19_5 1_555 1_555
O9_3 C20_5 1_555 1_555
O10_3 C20_5 1_555 1_555
C13_5 C14_5 1_555 1_555
C14_5 H8_5 1_555 1_555
C15_5 C14_5 1_555 1_555
C16_5 C15_5 1_555 1_555
H9_5 C16_5 1_555 1_555
C17_5 C16_5 1_555 1_555
C18_5 C13_5 1_555 1_555
H10_5 C18_5 1_555 1_555
C19_5 C13_5 1_555 1_555
C20_5 C15_5 1_555 1_555
C21_5 C17_5 1_555 1_555
H11_5 C22_5 1_555 1_555
C24_5 C23_5 1_555 1_555
H12_5 C24_5 1_555 1_555
H13_5 C24_5 1_555 1_555
H14_5 C24_5 1_555 1_555
Cu5 O9_3 1_555 1_555
Cu8 O10_3 1_555 1_555
C17_5 C18_5 1_555 1_555
C21_5 C22_5 1_555 1_555
C21_5 C23_5 1_555 1_555
Cu7 O2_5 1_555 1_555
O1_5 Cu4 1_555 1_555
O2_5 C7_5 1_555 1_555
O13 C8_5 1_555 1_555
O15 C8_5 1_555 1_555
O5_5 Cu4 1_555 1_555
O6_5 Cu7 1_555 1_555
C1_5 C2_5 1_555 1_555
C2_5 H1_5 1_555 1_555
C3_5 C2_5 1_555 1_555
C4_5 C3_5 1_555 1_555
H2_5 C4_5 1_555 1_555
C5_5 C4_5 1_555 1_555
C6_5 C1_5 1_555 1_555
H3_5 C6_5 1_555 1_555
C7_5 O1_5 1_555 1_555
C8_5 C3_5 1_555 1_555
C9_5 C5_5 1_555 1_555
C10_5 C9_5 1_555 1_555
H4_5 C10_5 1_555 1_555
C11_5 C9_5 1_555 1_555
C12_5 C11_5 1_555 1_555
H5_5 C12_5 1_555 1_555
H6_5 C12_5 1_555 1_555
H7_5 C12_5 1_555 1_555
O14_3 Cu4 1_555 1_555
O16_3 Cu7 1_555 1_555
C1_5 C7_5 1_555 1_555
C5_5 C6_5 1_555 1_555
O11_3 C19_6 1_555 1_555
O12_3 C19_6 1_555 1_555
O9_4 C20_6 1_555 1_555
O10_4 C20_6 1_555 1_555
C13_6 C14_6 1_555 1_555
C14_6 H8_6 1_555 1_555
C15_6 C14_6 1_555 1_555
C16_6 C15_6 1_555 1_555
H9_6 C16_6 1_555 1_555
C17_6 C16_6 1_555 1_555
C18_6 C13_6 1_555 1_555
H10_6 C18_6 1_555 1_555
C19_6 C13_6 1_555 1_555
C20_6 C15_6 1_555 1_555
C21_6 C17_6 1_555 1_555
H11_6 C22_6 1_555 1_555
C24_6 C23_6 1_555 1_555
H12_6 C24_6 1_555 1_555
H13_6 C24_6 1_555 1_555
H14_6 C24_6 1_555 1_555
Cu5_2 O9_4 1_555 1_555
Cu8_2 O10_4 1_555 1_555
C17_6 C18_6 1_555 1_555
C21_6 C22_6 1_555 1_555
C21_6 C23_6 1_555 1_555
Cu7_2 O2_6 1_555 1_555
O1_6 Cu4_2 1_555 1_555
O2_6 C7_6 1_555 1_555
O13_2 C8_6 1_555 1_555
O15_2 C8_6 1_555 1_555
O5_6 Cu4_2 1_555 1_555
O6_6 Cu7_2 1_555 1_555
C1_6 C2_6 1_555 1_555
C2_6 H1_6 1_555 1_555
C3_6 C2_6 1_555 1_555
C4_6 C3_6 1_555 1_555
H2_6 C4_6 1_555 1_555
C5_6 C4_6 1_555 1_555
C6_6 C1_6 1_555 1_555
H3_6 C6_6 1_555 1_555
C7_6 O1_6 1_555 1_555
C8_6 C3_6 1_555 1_555
C9_6 C5_6 1_555 1_555
C10_6 C9_6 1_555 1_555
H4_6 C10_6 1_555 1_555
C11_6 C9_6 1_555 1_555
C12_6 C11_6 1_555 1_555
H5_6 C12_6 1_555 1_555
H6_6 C12_6 1_555 1_555
H7_6 C12_6 1_555 1_555
O14_4 Cu4_2 1_555 1_555
O16_4 Cu7_2 1_555 1_555
C1_6 C7_6 1_555 1_555
C5_6 C6_6 1_555 1_555
Cu8_2 O2_7 1_555 1_555
O1_7 Cu5_2 1_555 1_555
O2_7 C7_7 1_555 1_555
O5_7 Cu5_2 1_555 1_555
O6_7 Cu8_2 1_555 1_555
C1_7 C2_7 1_555 1_555
C2_7 H1_7 1_555 1_555
C6_7 C1_7 1_555 1_555
H3_7 C6_7 1_555 1_555
C7_7 O1_7 1_555 1_555
C9_7 C5_7 1_555 1_555
C11_7 C9_7 1_555 1_555
C12_7 C11_7 1_555 1_555
H5_7 C12_7 1_555 1_555
H6_7 C12_7 1_555 1_555
H7_7 C12_7 1_555 1_555
O11_2 C19_7 1_555 1_555
O12_2 C19_7 1_555 1_555
C13_7 C14_7 1_555 1_555
C14_7 H8_7 1_555 1_555
C18_7 C13_7 1_555 1_555
H10_7 C18_7 1_555 1_555
C19_7 C13_7 1_555 1_555
C21_7 C17_7 1_555 1_555
C23_7 C11_7 1_555 1_555
C24_7 C23_7 1_555 1_555
H12_7 C24_7 1_555 1_555
H13_7 C24_7 1_555 1_555
H14_7 C24_7 1_555 1_555
C1_7 C7_7 1_555 1_555
C5_7 C6_7 1_555 1_555
C17_7 C18_7 1_555 1_555
C21_7 C23_7 1_555 1_555
O13_4 C8_7 1_555 1_555
O15_4 C8_7 1_555 1_555
C4_7 C3_7 1_555 1_555
H2_7 C4_7 1_555 1_555
C8_7 C3_7 1_555 1_555
H4_7 C10_7 1_555 1_555
O14_3 C20_7 1_555 1_555
O16_3 C20_7 1_555 1_555
C16_7 C15_7 1_555 1_555
H9_7 C16_7 1_555 1_555
C20_7 C15_7 1_555 1_555
C22_7 C10_7 1_555 1_555
H11_7 C22_7 1_555 1_555
O13_3 C8_8 1_555 1_555
O15_3 C8_8 1_555 1_555
C4_8 C3_8 1_555 1_555
H2_8 C4_8 1_555 1_555
C8_8 C3_8 1_555 1_555
H4_8 C10_8 1_555 1_555
O14_4 C20_8 1_555 1_555
O16_4 C20_8 1_555 1_555
C16_8 C15_8 1_555 1_555
H9_8 C16_8 1_555 1_555
C20_8 C15_8 1_555 1_555
C22_8 C10_8 1_555 1_555
H11_8 C22_8 1_555 1_555
Cu8 O2_8 1_555 1_555
O1_8 Cu5 1_555 1_555
O2_8 C7_8 1_555 1_555
O5_8 Cu5 1_555 1_555
O6_8 Cu8 1_555 1_555
C1_8 C2_8 1_555 1_555
C2_8 H1_8 1_555 1_555
C6_8 C1_8 1_555 1_555
H3_8 C6_8 1_555 1_555
C7_8 O1_8 1_555 1_555
C9_8 C5_8 1_555 1_555
C11_8 C9_8 1_555 1_555
C12_8 C11_8 1_555 1_555
H5_8 C12_8 1_555 1_555
H6_8 C12_8 1_555 1_555
H7_8 C12_8 1_555 1_555
O11 C19_8 1_555 1_555
O12 C19_8 1_555 1_555
C13_8 C14_8 1_555 1_555
C14_8 H8_8 1_555 1_555
C18_8 C13_8 1_555 1_555
H10_8 C18_8 1_555 1_555
C19_8 C13_8 1_555 1_555
C21_8 C17_8 1_555 1_555
C23_8 C11_8 1_555 1_555
C24_8 C23_8 1_555 1_555
H12_8 C24_8 1_555 1_555
H13_8 C24_8 1_555 1_555
H14_8 C24_8 1_555 1_555
C1_8 C7_8 1_555 1_555
C5_8 C6_8 1_555 1_555
C17_8 C18_8 1_555 1_555
C21_8 C23_8 1_555 1_555

#END
