
###############################################################################
#
# This file contains modified crystal structure data generated from the
# MOF subset of the Cambridge Structural Database (CSD) v543 
# hosted by the Cambridge Crystallographic Data Centre (CCDC).
#
# This work is licensed under the Creative Commons
# Attribution-NonCommercial-ShareAlike 4.0 International License.
# To view a copy of this license, visit
# http://creativecommons.org/licenses/by-nc-sa/4.0/
# or send a letter to
# Creative Commons, PO Box 1866, Mountain View, CA 94042, USA.
#
# CIF created using the CSD Python API on 29 September 2022
# The structure has been converted into the P1 space group
# The structure has a 3D framework
# The original CSD entry PODGEW01 is in the hexagonal crystal system
# The framework has been calculated to contain at least 10.0% void space
# The void calculation uses a probe of radius 1.32A, grid spacing 0.4
#
###############################################################################

data_PODGEW01
_chemical_formula_moiety         '(C108 H65 In11 O41)n'
_symmetry_cell_setting           triclinic
_symmetry_space_group_name_H-M   'P 1'
_symmetry_Int_Tables_number      1
_space_group_name_Hall           'P 1'
loop_
_symmetry_equiv_pos_site_id
_symmetry_equiv_pos_as_xyz
1 x,y,z
_cell_length_a                   32.182(2)
_cell_length_b                   32.182(2)
_cell_length_c                   7.2741(4)
_cell_angle_alpha                90
_cell_angle_beta                 90
_cell_angle_gamma                120
_cell_volume                     6524.33
loop_
_atom_site_label
_atom_site_type_symbol
_atom_site_fract_x
_atom_site_fract_y
_atom_site_fract_z
In1 In 0.5000 -0.0000 0.0000
O2 O 0.4664(8) -0.0000 0.2500
H1 H 0.4401 -0.0000 0.2500
In5 In 0.5000 -0.0000 0.5000
O26 O 0.5668(9) 0.0581(4) 0.0998(13)
In1_2 In 0.5000 -0.0000 1.0000
O22 O 0.4913(8) 0.0581(4) 0.9002(13)
O28 O 0.5336(8) -0.0000 0.7500
In1_3 In 0.5000 1.0000 0.0000
O1 O 0.5087(8) 0.9419(4) 0.0998(13)
O2_2 O 0.4664(8) 1.0000 0.2500
H1_2 H 0.4401 1.0000 0.2500
O3 O 0.4310(7) 0.7246(7) 0.2500
C1 C 0.5055(12) 0.9256(7) 0.2500
C2 C 0.4914(11) 0.8714(12) 0.2500
C3 C 0.4803(6) 0.8467(6) 0.088(2)
C4 C 0.4591(7) 0.7961(7) 0.098(3)
C5 C 0.4537(9) 0.7762(8) 0.2500
C6 C 0.3814(10) 0.6987(9) 0.2500
C7 C 0.3648(6) 0.6482(8) 0.2500
H4 H 0.3860 0.6365 0.2500
O4 O 0.0581(4) 0.5668(9) 0.0998(13)
O5 O 0.2754(7) 0.7064(10) 0.2500
C8 C 0.0744(7) 0.5799(14) 0.2500
C9 C 0.1286(12) 0.6200(16) 0.2500
C10 C 0.1533(6) 0.6336(8) 0.088(2)
C11 C 0.2039(7) 0.6630(10) 0.098(3)
C12 C 0.2238(8) 0.6775(12) 0.2500
C13 C 0.3013(9) 0.6827(13) 0.2500
C14 C 0.3518(8) 0.7166(10) 0.2500
H7 H 0.3635 0.7495 0.2500
O6 O 0.4332(9) 0.4913(8) 0.0998(13)
O7 O 0.2936(10) 0.5690(7) 0.2500
C15 C 0.4201(14) 0.4945(12) 0.2500
C16 C 0.3800(16) 0.5086(11) 0.2500
C17 C 0.3664(8) 0.5197(6) 0.088(2)
C18 C 0.3370(10) 0.5409(7) 0.098(3)
C19 C 0.3225(12) 0.5463(9) 0.2500
C20 C 0.3173(13) 0.6186(10) 0.2500
C21 C 0.2834(10) 0.6352(6) 0.2500
H10 H 0.2505 0.6140 0.2500
O8 O 0.5087(8) 0.9419(4) 0.4002(13)
C22 C 0.4803(6) 0.8467(6) 0.412(2)
H11 H 0.4864 0.8625 0.5246
C23 C 0.4591(7) 0.7961(7) 0.402(3)
H12 H 0.4491 0.7777 0.5088
O9 O 0.0581(4) 0.5668(9) 0.4002(13)
C24 C 0.1533(6) 0.6336(8) 0.412(2)
H13 H 0.1375 0.6239 0.5246
C25 C 0.2039(7) 0.6630(10) 0.402(3)
H14 H 0.2223 0.6714 0.5088
O10 O 0.4332(9) 0.4913(8) 0.4002(13)
C26 C 0.3664(8) 0.5197(6) 0.412(2)
H15 H 0.3761 0.5136 0.5246
C27 C 0.3370(10) 0.5409(7) 0.402(3)
H16 H 0.3286 0.5509 0.5088
In2 In 0.0000 0.5000 0.0000
O11 O -0.0000 0.4664(8) 0.2500
H17 H -0.0000 0.4401 0.2500
In3 In 0.5000 0.5000 0.0000
O12 O 0.5336(8) 0.5336(8) 0.2500
H18 H 0.5599 0.5599 0.2500
H19 H 0.1375 0.5136 0.0246
H20 H 0.2223 0.5509 0.0088
H22 H 0.3761 0.8625 0.0246
H23 H 0.3286 0.7777 0.0088
H25 H 0.4864 0.6239 0.0246
H26 H 0.4491 0.6714 0.0088
In5_2 In 0.5000 1.0000 0.5000
In7 In 0.0000 0.5000 0.5000
In9 In 0.5000 0.5000 0.5000
O27 O 0.4913(8) 0.4332(9) 0.0998(13)
In1_4 In 0.5000 1.0000 1.0000
H2 H 0.4864 0.8625 0.9754
H3 H 0.4491 0.7777 0.9912
H5 H 0.1375 0.6239 0.9754
H6 H 0.2223 0.6714 0.9912
H8 H 0.3761 0.5136 0.9754
H9 H 0.3286 0.5509 0.9912
In2_2 In 0.0000 0.5000 1.0000
In3_2 In 0.5000 0.5000 1.0000
O13 O 0.0581(4) 0.4913(8) 0.9002(13)
O14 O 0.2754(7) 0.5690(7) 0.7500
C28 C 0.0744(7) 0.4945(12) 0.7500
C29 C 0.1286(12) 0.5086(11) 0.7500
C30 C 0.1533(6) 0.5197(6) 0.912(2)
C31 C 0.2039(7) 0.5409(7) 0.902(3)
C32 C 0.2238(8) 0.5463(9) 0.7500
C33 C 0.3013(9) 0.6186(10) 0.7500
C34 C 0.3518(8) 0.6352(6) 0.7500
H21 H 0.3635 0.6140 0.7500
O15 O 0.4332(9) 0.9419(4) 0.9002(13)
O16 O 0.2936(10) 0.7246(7) 0.7500
C35 C 0.4201(14) 0.9256(7) 0.7500
C36 C 0.3800(16) 0.8714(12) 0.7500
C37 C 0.3664(8) 0.8467(6) 0.912(2)
C38 C 0.3370(10) 0.7961(7) 0.902(3)
C39 C 0.3225(12) 0.7762(8) 0.7500
C40 C 0.3173(13) 0.6987(9) 0.7500
C41 C 0.2834(10) 0.6482(8) 0.7500
H24 H 0.2505 0.6365 0.7500
O17 O 0.5087(8) 0.5668(9) 0.9002(13)
O18 O 0.4310(7) 0.7064(10) 0.7500
C42 C 0.5055(12) 0.5799(14) 0.7500
C43 C 0.4914(11) 0.6200(16) 0.7500
C44 C 0.4803(6) 0.6336(8) 0.912(2)
C45 C 0.4591(7) 0.6630(10) 0.902(3)
C46 C 0.4537(9) 0.6775(12) 0.7500
C47 C 0.3814(10) 0.6827(13) 0.7500
C48 C 0.3648(6) 0.7166(10) 0.7500
H27 H 0.3860 0.7495 0.7500
O19 O 0.0581(4) 0.4913(8) 0.5998(13)
C49 C 0.1533(6) 0.5197(6) 0.588(2)
H28 H 0.1375 0.5136 0.4754
C50 C 0.2039(7) 0.5409(7) 0.598(3)
H29 H 0.2223 0.5509 0.4912
O20 O 0.4332(9) 0.9419(4) 0.5998(13)
C51 C 0.3664(8) 0.8467(6) 0.588(2)
H30 H 0.3761 0.8625 0.4754
C52 C 0.3370(10) 0.7961(7) 0.598(3)
H31 H 0.3286 0.7777 0.4912
O21 O 0.5087(8) 0.5668(9) 0.5998(13)
C53 C 0.4803(6) 0.6336(8) 0.588(2)
H32 H 0.4864 0.6239 0.4754
C54 C 0.4591(7) 0.6630(10) 0.598(3)
H33 H 0.4491 0.6714 0.4912
O24 O 0.5668(9) 0.5087(8) 0.9002(13)
O28_2 O 0.5336(8) 1.0000 0.7500
O29 O -0.0000 0.5336(8) 0.7500
O30 O 0.4664(8) 0.4664(8) 0.7500
In2_3 In 1.0000 0.5000 0.0000
O11_2 O 1.0000 0.4664(8) 0.2500
H17_2 H 1.0000 0.4401 0.2500
In7_2 In 1.0000 0.5000 0.5000
O25 O 0.9419(4) 0.5087(8) 0.0998(13)
In2_4 In 1.0000 0.5000 1.0000
O23 O 0.9419(4) 0.4332(9) 0.9002(13)
O29_2 O 1.0000 0.5336(8) 0.7500
H17_3 H -0.0000 0.5599 0.7500
H11_2 H 0.5136 0.1375 0.0246
H12_2 H 0.5509 0.2223 0.0088
H13_2 H 0.8625 0.3761 0.0246
H14_2 H 0.7777 0.3286 0.0088
H15_2 H 0.6239 0.4864 0.0246
H16_2 H 0.6714 0.4491 0.0088
O1_2 O 0.4913(8) 0.0581(4) 0.5998(13)
H1_3 H 0.5599 0.0000 0.7500
O3_2 O 0.5690(7) 0.2754(7) 0.7500
C1_2 C 0.4945(12) 0.0744(7) 0.7500
C2_2 C 0.5086(11) 0.1286(12) 0.7500
C3_2 C 0.5197(6) 0.1533(6) 0.588(2)
H2_2 H 0.5136 0.1375 0.4754
C4_2 C 0.5409(7) 0.2039(7) 0.598(3)
H3_2 H 0.5509 0.2223 0.4912
C5_2 C 0.5463(9) 0.2238(8) 0.7500
C6_2 C 0.6186(10) 0.3013(9) 0.7500
C7_2 C 0.6352(6) 0.3518(8) 0.7500
H4_2 H 0.6140 0.3635 0.7500
O4_2 O 0.9419(4) 0.4332(9) 0.5998(13)
O5_2 O 0.7246(7) 0.2936(10) 0.7500
C8_2 C 0.9256(7) 0.4201(14) 0.7500
C9_2 C 0.8714(12) 0.3800(16) 0.7500
C10_2 C 0.8467(6) 0.3664(8) 0.588(2)
H5_2 H 0.8625 0.3761 0.4754
C11_2 C 0.7961(7) 0.3370(10) 0.598(3)
H6_2 H 0.7777 0.3286 0.4912
C12_2 C 0.7762(8) 0.3225(12) 0.7500
C13_2 C 0.6987(9) 0.3173(13) 0.7500
C14_2 C 0.6482(8) 0.2834(10) 0.7500
H7_2 H 0.6365 0.2505 0.7500
O6_2 O 0.5668(9) 0.5087(8) 0.5998(13)
O7_2 O 0.7064(10) 0.4310(7) 0.7500
C15_2 C 0.5799(14) 0.5055(12) 0.7500
C16_2 C 0.6200(16) 0.4914(11) 0.7500
C17_2 C 0.6336(8) 0.4803(6) 0.588(2)
H8_2 H 0.6239 0.4864 0.4754
C18_2 C 0.6630(10) 0.4591(7) 0.598(3)
H9_2 H 0.6714 0.4491 0.4912
C19_2 C 0.6775(12) 0.4537(9) 0.7500
C20_2 C 0.6827(13) 0.3814(10) 0.7500
C21_2 C 0.7166(10) 0.3648(6) 0.7500
H10_2 H 0.7495 0.3860 0.7500
C22_2 C 0.5197(6) 0.1533(6) 0.912(2)
C23_2 C 0.5409(7) 0.2039(7) 0.902(3)
C24_2 C 0.8467(6) 0.3664(8) 0.912(2)
C25_2 C 0.7961(7) 0.3370(10) 0.902(3)
C26_2 C 0.6336(8) 0.4803(6) 0.912(2)
C27_2 C 0.6630(10) 0.4591(7) 0.902(3)
H17_4 H 1.0000 0.5599 0.7500
H18_2 H 0.4401 0.4401 0.7500
O13_2 O 0.9419(4) 0.5087(8) 0.4002(13)
O14_2 O 0.7246(7) 0.4310(7) 0.2500
C28_2 C 0.9256(7) 0.5055(12) 0.2500
C29_2 C 0.8714(12) 0.4914(11) 0.2500
C30_2 C 0.8467(6) 0.4803(6) 0.412(2)
H19_2 H 0.8625 0.4864 0.5246
C31_2 C 0.7961(7) 0.4591(7) 0.402(3)
H20_2 H 0.7777 0.4491 0.5088
C32_2 C 0.7762(8) 0.4537(9) 0.2500
C33_2 C 0.6987(9) 0.3814(10) 0.2500
C34_2 C 0.6482(8) 0.3648(6) 0.2500
H21_2 H 0.6365 0.3860 0.2500
O15_2 O 0.5668(9) 0.0581(4) 0.4002(13)
O16_2 O 0.7064(10) 0.2754(7) 0.2500
C35_2 C 0.5799(14) 0.0744(7) 0.2500
C36_2 C 0.6200(16) 0.1286(12) 0.2500
C37_2 C 0.6336(8) 0.1533(6) 0.412(2)
H22_2 H 0.6239 0.1375 0.5246
C38_2 C 0.6630(10) 0.2039(7) 0.402(3)
H23_2 H 0.6714 0.2223 0.5088
C39_2 C 0.6775(12) 0.2238(8) 0.2500
C40_2 C 0.6827(13) 0.3013(9) 0.2500
C41_2 C 0.7166(10) 0.3518(8) 0.2500
H24_2 H 0.7495 0.3635 0.2500
O17_2 O 0.4913(8) 0.4332(9) 0.4002(13)
O18_2 O 0.5690(7) 0.2936(10) 0.2500
C42_2 C 0.4945(12) 0.4201(14) 0.2500
C43_2 C 0.5086(11) 0.3800(16) 0.2500
C44_2 C 0.5197(6) 0.3664(8) 0.412(2)
H25_2 H 0.5136 0.3761 0.5246
C45_2 C 0.5409(7) 0.3370(10) 0.402(3)
H26_2 H 0.5509 0.3286 0.5088
C46_2 C 0.5463(9) 0.3225(12) 0.2500
C47_2 C 0.6186(10) 0.3173(13) 0.2500
C48_2 C 0.6352(6) 0.2834(10) 0.2500
H27_2 H 0.6140 0.2505 0.2500
C49_2 C 0.8467(6) 0.4803(6) 0.088(2)
C50_2 C 0.7961(7) 0.4591(7) 0.098(3)
C51_2 C 0.6336(8) 0.1533(6) 0.088(2)
C52_2 C 0.6630(10) 0.2039(7) 0.098(3)
C53_2 C 0.5197(6) 0.3664(8) 0.088(2)
C54_2 C 0.5409(7) 0.3370(10) 0.098(3)
H28_2 H 0.8625 0.4864 0.9754
H29_2 H 0.7777 0.4491 0.9912
H30_2 H 0.6239 0.1375 0.9754
H31_2 H 0.6714 0.2223 0.9912
H32_2 H 0.5136 0.3761 0.9754
H33_2 H 0.5509 0.3286 0.9912
H1_4 H 0.5599 1.0000 0.7500
loop_
_geom_bond_atom_site_label_1
_geom_bond_atom_site_label_2
_geom_bond_site_symmetry_1
_geom_bond_site_symmetry_2
O2 In1 1_555 1_555
H1 O2 1_555 1_555
In5 O2 1_555 1_555
O26 In1 1_555 1_555
O22 In1_2 1_555 1_555
O28 In1_2 1_555 1_555
In5 O28 1_555 1_555
In1_3 O1 1_555 1_555
O1 C1 1_555 1_555
O2_2 In1_3 1_555 1_555
H1_2 O2_2 1_555 1_555
O3 C5 1_555 1_555
C1 C2 1_555 1_555
C2 C3 1_555 1_555
C4 C3 1_555 1_555
C5 C4 1_555 1_555
C6 O3 1_555 1_555
C7 C6 1_555 1_555
H4 C7 1_555 1_555
O4 C8 1_555 1_555
O5 C12 1_555 1_555
C8 C9 1_555 1_555
C9 C10 1_555 1_555
C11 C10 1_555 1_555
C12 C11 1_555 1_555
C13 O5 1_555 1_555
C14 C6 1_555 1_555
H7 C14 1_555 1_555
O6 C15 1_555 1_555
O7 C19 1_555 1_555
C15 C16 1_555 1_555
C16 C17 1_555 1_555
C18 C17 1_555 1_555
C19 C18 1_555 1_555
C20 C7 1_555 1_555
C21 C13 1_555 1_555
H10 C21 1_555 1_555
O8 C1 1_555 1_555
C22 C2 1_555 1_555
H11 C22 1_555 1_555
C23 C5 1_555 1_555
H12 C23 1_555 1_555
O9 C8 1_555 1_555
C24 C9 1_555 1_555
H13 C24 1_555 1_555
C25 C12 1_555 1_555
H14 C25 1_555 1_555
O10 C15 1_555 1_555
C26 C16 1_555 1_555
H15 C26 1_555 1_555
C27 C19 1_555 1_555
H16 C27 1_555 1_555
In2 O4 1_555 1_555
O11 In2 1_555 1_555
H17 O11 1_555 1_555
In3 O6 1_555 1_555
O12 In3 1_555 1_555
H18 O12 1_555 1_555
In5_2 O2_2 1_555 1_555
In7 O9 1_555 1_555
In9 O10 1_555 1_555
O27 In3 1_555 1_555
C13 C14 1_555 1_555
O7 C20 1_555 1_555
C20 C21 1_555 1_555
O8 In5_2 1_555 1_555
C22 C23 1_555 1_555
C24 C25 1_555 1_555
C26 C27 1_555 1_555
O11 In7 1_555 1_555
O12 In9 1_555 1_555
O13 In2_2 1_555 1_555
O14 C32 1_555 1_555
C28 O13 1_555 1_555
C29 C28 1_555 1_555
C30 C29 1_555 1_555
C31 C30 1_555 1_555
C32 C31 1_555 1_555
C33 O14 1_555 1_555
C34 C33 1_555 1_555
H21 C34 1_555 1_555
O15 In1_4 1_555 1_555
O16 C39 1_555 1_555
C35 O15 1_555 1_555
C36 C35 1_555 1_555
C37 C36 1_555 1_555
C38 C37 1_555 1_555
C39 C38 1_555 1_555
C40 O16 1_555 1_555
C41 C33 1_555 1_555
H24 C41 1_555 1_555
O17 In3_2 1_555 1_555
O18 C46 1_555 1_555
C42 O17 1_555 1_555
C43 C42 1_555 1_555
C44 C43 1_555 1_555
C45 C44 1_555 1_555
C46 C45 1_555 1_555
C47 C34 1_555 1_555
C48 C40 1_555 1_555
H27 C48 1_555 1_555
O19 C28 1_555 1_555
C49 C29 1_555 1_555
H28 C49 1_555 1_555
C50 C32 1_555 1_555
H29 C50 1_555 1_555
O20 C35 1_555 1_555
C51 C36 1_555 1_555
H30 C51 1_555 1_555
C52 C39 1_555 1_555
H31 C52 1_555 1_555
O21 C42 1_555 1_555
C53 C43 1_555 1_555
H32 C53 1_555 1_555
C54 C46 1_555 1_555
H33 C54 1_555 1_555
In5_2 O20 1_555 1_555
In7 O19 1_555 1_555
In9 O21 1_555 1_555
O24 In3_2 1_555 1_555
O28_2 In1_4 1_555 1_555
O29 In2_2 1_555 1_555
O30 In3_2 1_555 1_555
C40 C41 1_555 1_555
O18 C47 1_555 1_555
C47 C48 1_555 1_555
C49 C50 1_555 1_555
C51 C52 1_555 1_555
C53 C54 1_555 1_555
In5_2 O28_2 1_555 1_555
In7 O29 1_555 1_555
In9 O30 1_555 1_555
O11_2 In2_3 1_555 1_555
H17_2 O11_2 1_555 1_555
O25 In2_3 1_555 1_555
O11_2 In7_2 1_555 1_555
O23 In2_4 1_555 1_555
O29_2 In2_4 1_555 1_555
In7_2 O29_2 1_555 1_555
H17_3 O29 1_555 1_555
In5 O1_2 1_555 1_555
O1_2 C1_2 1_555 1_555
H1_3 O28 1_555 1_555
O3_2 C5_2 1_555 1_555
C1_2 C2_2 1_555 1_555
C2_2 C3_2 1_555 1_555
C3_2 H2_2 1_555 1_555
C4_2 C3_2 1_555 1_555
H3_2 C4_2 1_555 1_555
C5_2 C4_2 1_555 1_555
C6_2 O3_2 1_555 1_555
C7_2 C6_2 1_555 1_555
H4_2 C7_2 1_555 1_555
O4_2 C8_2 1_555 1_555
O5_2 C12_2 1_555 1_555
C8_2 C9_2 1_555 1_555
C9_2 C10_2 1_555 1_555
C10_2 H5_2 1_555 1_555
C11_2 C10_2 1_555 1_555
H6_2 C11_2 1_555 1_555
C12_2 C11_2 1_555 1_555
C13_2 O5_2 1_555 1_555
C14_2 C6_2 1_555 1_555
H7_2 C14_2 1_555 1_555
O6_2 C15_2 1_555 1_555
O7_2 C19_2 1_555 1_555
C15_2 C16_2 1_555 1_555
C16_2 C17_2 1_555 1_555
C17_2 H8_2 1_555 1_555
C18_2 C17_2 1_555 1_555
H9_2 C18_2 1_555 1_555
C19_2 C18_2 1_555 1_555
C20_2 C7_2 1_555 1_555
C21_2 C13_2 1_555 1_555
H10_2 C21_2 1_555 1_555
O22 C1_2 1_555 1_555
C22_2 C2_2 1_555 1_555
C23_2 C5_2 1_555 1_555
O23 C8_2 1_555 1_555
C24_2 C9_2 1_555 1_555
C25_2 C12_2 1_555 1_555
O24 C15_2 1_555 1_555
C26_2 C16_2 1_555 1_555
C27_2 C19_2 1_555 1_555
In7_2 O4_2 1_555 1_555
H17_4 O29_2 1_555 1_555
In9 O6_2 1_555 1_555
H18_2 O30 1_555 1_555
O13_2 In7_2 1_555 1_555
O14_2 C32_2 1_555 1_555
C28_2 O13_2 1_555 1_555
C29_2 C28_2 1_555 1_555
C30_2 C29_2 1_555 1_555
H19_2 C30_2 1_555 1_555
C31_2 C30_2 1_555 1_555
H20_2 C31_2 1_555 1_555
C32_2 C31_2 1_555 1_555
C33_2 O14_2 1_555 1_555
C34_2 C33_2 1_555 1_555
H21_2 C34_2 1_555 1_555
O15_2 In5 1_555 1_555
O16_2 C39_2 1_555 1_555
C35_2 O15_2 1_555 1_555
C36_2 C35_2 1_555 1_555
C37_2 C36_2 1_555 1_555
H22_2 C37_2 1_555 1_555
C38_2 C37_2 1_555 1_555
H23_2 C38_2 1_555 1_555
C39_2 C38_2 1_555 1_555
C40_2 O16_2 1_555 1_555
C41_2 C33_2 1_555 1_555
H24_2 C41_2 1_555 1_555
O17_2 In9 1_555 1_555
O18_2 C46_2 1_555 1_555
C42_2 O17_2 1_555 1_555
C43_2 C42_2 1_555 1_555
C44_2 C43_2 1_555 1_555
H25_2 C44_2 1_555 1_555
C45_2 C44_2 1_555 1_555
H26_2 C45_2 1_555 1_555
C46_2 C45_2 1_555 1_555
C47_2 C34_2 1_555 1_555
C48_2 C40_2 1_555 1_555
H27_2 C48_2 1_555 1_555
O25 C28_2 1_555 1_555
C49_2 C29_2 1_555 1_555
C50_2 C32_2 1_555 1_555
O26 C35_2 1_555 1_555
C51_2 C36_2 1_555 1_555
C52_2 C39_2 1_555 1_555
O27 C42_2 1_555 1_555
C53_2 C43_2 1_555 1_555
C54_2 C46_2 1_555 1_555
C13_2 C14_2 1_555 1_555
O7_2 C20_2 1_555 1_555
C20_2 C21_2 1_555 1_555
C22_2 C23_2 1_555 1_555
C24_2 C25_2 1_555 1_555
C26_2 C27_2 1_555 1_555
C40_2 C41_2 1_555 1_555
O18_2 C47_2 1_555 1_555
C47_2 C48_2 1_555 1_555
C49_2 C50_2 1_555 1_555
C51_2 C52_2 1_555 1_555
C53_2 C54_2 1_555 1_555
H1_4 O28_2 1_555 1_555

#END
