
###############################################################################
#
# This file contains modified crystal structure data generated from the
# MOF subset of the Cambridge Structural Database (CSD) v543 
# hosted by the Cambridge Crystallographic Data Centre (CCDC).
#
# This work is licensed under the Creative Commons
# Attribution-NonCommercial-ShareAlike 4.0 International License.
# To view a copy of this license, visit
# http://creativecommons.org/licenses/by-nc-sa/4.0/
# or send a letter to
# Creative Commons, PO Box 1866, Mountain View, CA 94042, USA.
#
# CIF created using the CSD Python API on 29 September 2022
# The structure has been converted into the P1 space group
# The structure has a 3D framework
# The original CSD entry PODKOK is in the tetragonal crystal system
# The framework has been calculated to contain at least 10.0% void space
# The void calculation uses a probe of radius 1.32A, grid spacing 0.4
# H atom positions have been added when not included in the experimental data
# Generated hydrogen atom positions removed from atoms on special positions
#
###############################################################################

data_PODKOK
_chemical_formula_moiety         '(C768 H504 Cu56 N160 O248)n'
_symmetry_cell_setting           triclinic
_symmetry_space_group_name_H-M   'P 1'
_symmetry_Int_Tables_number      1
_space_group_name_Hall           'P 1'
loop_
_symmetry_equiv_pos_site_id
_symmetry_equiv_pos_as_xyz
1 x,y,z
_cell_length_a                   34.6853(6)
_cell_length_b                   34.6853(6)
_cell_length_c                   50.6917(13)
_cell_angle_alpha                90
_cell_angle_beta                 90
_cell_angle_gamma                90
_cell_volume                     60985.7
loop_
_atom_site_label
_atom_site_type_symbol
_atom_site_fract_x
_atom_site_fract_y
_atom_site_fract_z
Cu1 Cu 0.08862(3) 0.29021(2) -0.0000
Cu2 Cu 0.06661(3) 0.21673(2) -0.0000
O5 O 0.11173(17) 0.34774(13) -0.0000
O6 O 0.04589(17) 0.15768(15) -0.0000
O31 O 0.12320(10) 0.27085(10) 0.02760(6)
O32 O 0.10530(9) 0.20849(8) 0.02746(5)
O33 O 0.04839(10) 0.29886(9) 0.02678(6)
O34 O 0.03144(10) 0.23609(9) 0.02740(6)
H54 H 0.0681995 0.139738 -1.11022e-16
H60 H 0.0902409 0.366656 -1.11022e-16
Cu1_2 Cu 0.08862(3) 0.29021(2) 1.0000
Cu2_2 Cu 0.06661(3) 0.21673(2) 1.0000
Cu3 Cu 0.14372(2) 0.07323(2) 0.88719(2)
Cu4 Cu 0.19229(2) 0.09868(2) 0.85052(2)
O1 O 0.12320(10) 0.27085(10) 0.97240(6)
O2 O 0.10530(9) 0.20849(8) 0.97254(5)
O3 O 0.15598(9) 0.12162(8) 0.90469(6)
O4 O 0.19217(9) 0.14605(9) 0.87146(6)
O5_2 O 0.11173(17) 0.34774(13) 1.0000
O6_2 O 0.04589(17) 0.15768(15) 1.0000
O7 O 0.10613(11) 0.04895(15) 0.91680(7)
O8 O 0.23068(12) 0.11976(11) 0.82105(8)
O11 O 0.05114(8) 0.81014(9) 0.90263(6)
O12 O 0.07762(9) 0.76842(8) 0.87424(6)
O13 O 0.38385(9) 0.64543(10) 0.66719(6)
O14 O 0.39938(9) 0.60518(8) 0.63406(6)
O15 O 0.36090(8) 0.47161(8) 0.63595(6)
O16 O 0.31535(9) 0.45237(8) 0.66528(6)
N1 N 0.2106(2) 0.28651(14) 0.89563(13)
N2 N 0.2445(3) 0.28469(19) 0.8843(2)
N3 N 0.2543(3) 0.3199(2) 0.8782(2)
N4 N 0.0600(3) 0.64098(15) 0.91948(13)
N5 N 0.0527(4) 0.6132(2) 0.9353(2)
N6 N 0.0722(5) 0.5839(2) 0.9288(2)
N7 N 0.2247(4) 0.50343(18) 0.8675(2)
N8 N 0.3110(3) 0.56239(15) 0.73124(13)
N9 N 0.3140(5) 0.5945(2) 0.74353(19)
N10 N 0.2983(4) 0.5921(2) 0.76588(18)
C1 C 0.12229(14) 0.23736(13) 0.96400(8)
C2 C 0.15005(14) 0.22865(14) 0.94042(9)
C3 C 0.15240(13) 0.19255(13) 0.92977(9)
H1 H 0.1387 0.1717 0.9375
C4 C 0.17508(13) 0.18647(13) 0.90744(9)
C5 C 0.19431(16) 0.21598(16) 0.89634(12)
H2 H 0.2087 0.2120 0.8806
C6 C 0.1931(2) 0.25306(16) 0.90816(13)
C7 C 0.16990(17) 0.25893(15) 0.93015(11)
H3 H 0.1679 0.2838 0.9379
C8 C 0.17343(13) 0.14790(12) 0.89288(9)
C9 C 0.2001(3) 0.3212(2) 0.89759(16)
H4 H 0.1779 0.3311 0.9063
C10 C 0.2282(3) 0.3416(2) 0.8842(2)
C11 C 0.2243(4) 0.3855(2) 0.8793(2)
C12 C 0.1924(4) 0.4050(3) 0.8816(3)
H5 H 0.1696 0.3923 0.8872
C13 C 0.1914(4) 0.4425(3) 0.8765(2)
H6 H 0.1672 0.4553 0.8769
C14 C 0.2227(4) 0.4630(2) 0.8706(2)
C15 C 0.2552(4) 0.4445(3) 0.8693(3)
H7 H 0.2780 0.4580 0.8647
C16 C 0.2569(4) 0.4038(3) 0.8748(3)
H8 H 0.2809 0.3906 0.8752
C18 C 0.00017(17) 0.72112(13) 0.94494(9)
C19 C 0.0134(2) 0.68420(17) 0.94084(12)
H9 H 0.0025 0.6632 0.9502
C20 C 0.0439(3) 0.67776(17) 0.92226(13)
C21 C 0.0571(2) 0.70807(15) 0.90662(12)
H10 H 0.0763 0.7036 0.8936
C22 C 0.04244(15) 0.74414(14) 0.91000(9)
C23 C 0.01552(14) 0.75102(14) 0.92968(9)
H11 H 0.0073 0.7767 0.9329
C24 C 0.05649(13) 0.77770(13) 0.89348(9)
C25 C 0.0873(4) 0.6301(2) 0.9038(2)
H12 H 0.1000 0.6458 0.8912
C26 C 0.0947(5) 0.5920(3) 0.9085(2)
C27 C 0.1328(4) 0.5697(2) 0.8986(2)
C28 C 0.1405(5) 0.5754(3) 0.8748(2)
H13 H 0.1269 0.5940 0.8647
C29 C 0.1683(5) 0.5545(4) 0.8643(3)
H14 H 0.1751 0.5603 0.8466
C30 C 0.1884(4) 0.5253(2) 0.8762(2)
C31 C 0.1793(5) 0.5196(4) 0.9013(3)
H15 H 0.1922 0.5004 0.9113
C32 C 0.1501(5) 0.5426(4) 0.9129(2)
H16 H 0.1430 0.5386 0.9307
C33 C 0.38415(12) 0.61337(13) 0.65527(9)
C34 C 0.36505(14) 0.58056(13) 0.66970(9)
C35 C 0.34967(19) 0.58608(15) 0.69355(11)
H17 H 0.3520 0.6103 0.7021
C36 C 0.3295(2) 0.55490(17) 0.70603(12)
C37 C 0.32694(17) 0.51921(15) 0.69445(11)
H18 H 0.3146 0.4984 0.7032
C38 C 0.34298(13) 0.51448(13) 0.66953(9)
C39 C 0.36263(12) 0.54447(13) 0.65760(8)
H19 H 0.3746 0.5405 0.6410
C40 C 0.33828(13) 0.47527(12) 0.65482(9)
C41 C 0.2722(4) 0.5434(2) 0.7956(2)
C42 C 0.2539(5) 0.5106(3) 0.7947(2)
H20 H 0.2515 0.4969 0.7785
C43 C 0.2382(5) 0.4962(3) 0.8177(3)
H21 H 0.2264 0.4715 0.8175
C44 C 0.2392(4) 0.5164(2) 0.8404(2)
C45 C 0.2555(6) 0.5505(3) 0.8397(2)
H22 H 0.2572 0.5654 0.8553
C46 C 0.2702(6) 0.5649(2) 0.8167(2)
H23 H 0.2791 0.5908 0.8161
C47 C 0.2957(3) 0.53902(19) 0.74736(17)
H24 H 0.2900 0.5127 0.7439
C48 C 0.2890(4) 0.5573(2) 0.76987(19)
O23 O 0.04839(10) 0.29886(9) 0.97322(6)
O24 O 0.03144(10) 0.23609(9) 0.97260(6)
C65 C 0.03087(15) 0.26996(14) 0.96508(8)
Cu10 Cu 0.07323(2) 0.85628(2) 0.88719(2)
Cu11 Cu 0.35628(2) 0.42677(2) 0.61281(2)
Cu14 Cu 0.42677(2) 0.64372(2) 0.61281(2)
Cu16 Cu 0.09868(2) 0.80771(2) 0.85052(2)
Cu17 Cu 0.30771(2) 0.40132(2) 0.64948(2)
Cu20 Cu 0.40132(2) 0.69229(2) 0.64948(2)
O35 O 0.18986(9) 0.05114(8) 0.90263(6)
O37 O 0.23158(8) 0.07762(9) 0.87424(6)
O39 O 0.14543(10) 0.11615(9) 0.83281(6)
O41 O 0.10518(8) 0.10062(9) 0.86594(6)
O43 O 0.13910(8) 0.02839(8) 0.86405(6)
O45 O 0.18465(9) 0.04763(8) 0.83472(6)
H53 H 0.0299958 0.153144 0.984006
H54_2 H 0.0681995 0.139738 1
H55 H 0.121747 0.0399374 0.932015
H56 H 0.0875923 0.0689039 0.922835
H57 H 0.255608 0.126928 0.829341
H58 H 0.235117 0.0993929 0.807622
H59 H 0.12781 0.351565 0.984006
H60_2 H 0.0902409 0.366656 1
Cu7 Cu 0.91138(3) 0.70979(2) -0.0000
Cu8 Cu 0.93339(3) 0.78327(2) -0.0000
O9 O 0.95161(10) 0.70114(9) 0.97322(6)
O10 O 0.96856(10) 0.76391(9) 0.97260(6)
C17 C 0.96913(15) 0.73004(14) 0.96508(8)
Cu5 Cu 0.85628(2) 0.92677(2) 0.88719(2)
Cu6 Cu 0.80771(2) 0.90132(2) 0.85052(2)
O17 O 0.87680(10) 0.72915(10) 0.97240(6)
O18 O 0.89470(9) 0.79151(8) 0.97254(5)
O19 O 0.84402(9) 0.87838(8) 0.90469(6)
O20 O 0.80783(9) 0.85395(9) 0.87146(6)
O21 O 0.89387(11) 0.95105(15) 0.91680(7)
O22 O 0.76932(12) 0.88024(11) 0.82105(8)
O25 O 0.94886(8) 0.18986(9) 0.90263(6)
O26 O 0.92238(9) 0.23158(8) 0.87424(6)
O27 O 0.61615(9) 0.35457(10) 0.66719(6)
O28 O 0.60062(9) 0.39482(8) 0.63406(6)
O29 O 0.63910(8) 0.52839(8) 0.63595(6)
O30 O 0.68465(9) 0.54763(8) 0.66528(6)
N11 N 0.7894(2) 0.71349(14) 0.89563(13)
N12 N 0.7555(3) 0.71531(19) 0.8843(2)
N13 N 0.7457(3) 0.6801(2) 0.8782(2)
N14 N 0.9400(3) 0.35902(15) 0.91948(13)
N15 N 0.9473(4) 0.3868(2) 0.9353(2)
N16 N 0.9278(5) 0.4161(2) 0.9288(2)
N17 N 0.7753(4) 0.49657(18) 0.8675(2)
N18 N 0.6890(3) 0.43761(15) 0.73124(13)
N19 N 0.6860(5) 0.4055(2) 0.74353(19)
N20 N 0.7017(4) 0.4079(2) 0.76588(18)
C49 C 0.87771(14) 0.76264(13) 0.96400(8)
C50 C 0.84995(14) 0.77135(14) 0.94042(9)
C51 C 0.84760(13) 0.80745(13) 0.92977(9)
H25 H 0.8613 0.8283 0.9375
C52 C 0.82492(13) 0.81353(13) 0.90744(9)
C53 C 0.80569(16) 0.78402(16) 0.89634(12)
H26 H 0.7913 0.7880 0.8806
C54 C 0.8069(2) 0.74694(16) 0.90816(13)
C55 C 0.83010(17) 0.74107(15) 0.93015(11)
H27 H 0.8321 0.7162 0.9379
C56 C 0.82657(13) 0.85210(12) 0.89288(9)
C57 C 0.7999(3) 0.6788(2) 0.89759(16)
H28 H 0.8221 0.6689 0.9063
C58 C 0.7718(3) 0.6584(2) 0.8842(2)
C59 C 0.7757(4) 0.6145(2) 0.8793(2)
C60 C 0.8076(4) 0.5950(3) 0.8816(3)
H29 H 0.8304 0.6077 0.8872
C61 C 0.8086(4) 0.5575(3) 0.8765(2)
H30 H 0.8328 0.5447 0.8769
C62 C 0.7773(4) 0.5370(2) 0.8706(2)
C63 C 0.7448(4) 0.5555(3) 0.8693(3)
H31 H 0.7220 0.5420 0.8647
C64 C 0.7431(4) 0.5962(3) 0.8748(3)
H32 H 0.7191 0.6094 0.8752
C66 C 0.99983(17) 0.27888(13) 0.94494(9)
C67 C 0.9866(2) 0.31580(17) 0.94084(12)
H33 H 0.9975 0.3368 0.9502
C68 C 0.9561(3) 0.32224(17) 0.92226(13)
C69 C 0.9429(2) 0.29193(15) 0.90662(12)
H34 H 0.9237 0.2964 0.8936
C70 C 0.95756(15) 0.25586(14) 0.91000(9)
C71 C 0.98448(14) 0.24898(14) 0.92968(9)
H35 H 0.9927 0.2233 0.9329
C72 C 0.94351(13) 0.22230(13) 0.89348(9)
C73 C 0.9127(4) 0.3699(2) 0.9038(2)
H36 H 0.9000 0.3542 0.8912
C74 C 0.9053(5) 0.4080(3) 0.9085(2)
C75 C 0.8672(4) 0.4303(2) 0.8986(2)
C76 C 0.8595(5) 0.4246(3) 0.8748(2)
H37 H 0.8731 0.4060 0.8647
C77 C 0.8317(5) 0.4455(4) 0.8643(3)
H38 H 0.8249 0.4397 0.8466
C78 C 0.8116(4) 0.4747(2) 0.8762(2)
C79 C 0.8207(5) 0.4804(4) 0.9013(3)
H39 H 0.8078 0.4996 0.9113
C80 C 0.8499(5) 0.4574(4) 0.9129(2)
H40 H 0.8570 0.4614 0.9307
C81 C 0.61585(12) 0.38663(13) 0.65527(9)
C82 C 0.63495(14) 0.41944(13) 0.66970(9)
C83 C 0.65033(19) 0.41392(15) 0.69355(11)
H41 H 0.6480 0.3897 0.7021
C84 C 0.6705(2) 0.44510(17) 0.70603(12)
C85 C 0.67306(17) 0.48079(15) 0.69445(11)
H42 H 0.6854 0.5016 0.7032
C86 C 0.65702(13) 0.48552(13) 0.66953(9)
C87 C 0.63737(12) 0.45553(13) 0.65760(8)
H43 H 0.6254 0.4595 0.6410
C88 C 0.66172(13) 0.52473(12) 0.65482(9)
C89 C 0.7278(4) 0.4566(2) 0.7956(2)
C90 C 0.7461(5) 0.4894(3) 0.7947(2)
H44 H 0.7485 0.5031 0.7785
C91 C 0.7618(5) 0.5038(3) 0.8177(3)
H45 H 0.7736 0.5285 0.8175
C92 C 0.7608(4) 0.4836(2) 0.8404(2)
C93 C 0.7445(6) 0.4495(3) 0.8397(2)
H46 H 0.7428 0.4346 0.8553
C94 C 0.7298(6) 0.4351(2) 0.8167(2)
H47 H 0.7209 0.4092 0.8161
C95 C 0.7043(3) 0.46098(19) 0.74736(17)
H48 H 0.7100 0.4873 0.7439
C96 C 0.7110(4) 0.4427(2) 0.76987(19)
Cu7_2 Cu 0.91138(3) 0.70979(2) 1.0000
Cu8_2 Cu 0.93339(3) 0.78327(2) 1.0000
Cu9 Cu 0.92677(2) 0.14372(2) 0.88719(2)
Cu12 Cu 0.64372(2) 0.57323(2) 0.61281(2)
Cu13 Cu 0.57323(2) 0.35628(2) 0.61281(2)
Cu15 Cu 0.90132(2) 0.19229(2) 0.85052(2)
Cu18 Cu 0.69229(2) 0.59868(2) 0.64948(2)
Cu19 Cu 0.59868(2) 0.30771(2) 0.64948(2)
O36 O 0.81014(9) 0.94886(8) 0.90263(6)
O38 O 0.76842(8) 0.92238(9) 0.87424(6)
O40 O 0.85457(10) 0.88385(9) 0.83281(6)
O42 O 0.89482(8) 0.89938(9) 0.86594(6)
O44 O 0.86090(8) 0.97161(8) 0.86405(6)
O46 O 0.81535(9) 0.95237(8) 0.83472(6)
H49 H 0.744392 0.873072 0.829341
H50 H 0.764883 0.900607 0.807622
H51 H 0.878253 0.960063 0.932015
H52 H 0.912408 0.931096 0.922835
O5_3 O 0.88827(17) 0.65226(13) -0.0000
O6_3 O 0.95411(17) 0.84232(15) -0.0000
O31_2 O 0.87680(10) 0.72915(10) 0.02760(6)
O32_2 O 0.89470(9) 0.79151(8) 0.02746(5)
O33_2 O 0.95161(10) 0.70114(9) 0.02678(6)
O34_2 O 0.96856(10) 0.76391(9) 0.02740(6)
H54_3 H 0.931801 0.860262 -1.11022e-16
H60_3 H 0.909759 0.633344 -1.11022e-16
O5_4 O 0.88827(17) 0.65226(13) 1.0000
O6_4 O 0.95411(17) 0.84232(15) 1.0000
H53_2 H 0.970004 0.846856 0.984006
H54_4 H 0.931801 0.860262 1
H59_2 H 0.87219 0.648435 0.984006
H60_4 H 0.909759 0.633344 1
Cu1_3 Cu 0.70979(2) 0.08862(3) -0.0000
Cu2_3 Cu 0.78327(2) 0.06661(3) -0.0000
O5_5 O 0.65226(13) 0.11173(17) -0.0000
O6_5 O 0.84232(15) 0.04589(17) -0.0000
O31_3 O 0.72915(10) 0.12320(10) 0.02760(6)
O32_3 O 0.79151(8) 0.10530(9) 0.02746(5)
O33_3 O 0.70114(9) 0.04839(10) 0.02678(6)
O34_3 O 0.76391(9) 0.03144(10) 0.02740(6)
H54_5 H 0.860262 0.0681995 -1.11022e-16
H60_5 H 0.633344 0.0902409 -1.11022e-16
Cu1_4 Cu 0.70979(2) 0.08862(3) 1.0000
Cu2_4 Cu 0.78327(2) 0.06661(3) 1.0000
O1_2 O 0.72915(10) 0.12320(10) 0.97240(6)
O2_2 O 0.79151(8) 0.10530(9) 0.97254(5)
O3_2 O 0.87838(8) 0.15598(9) 0.90469(6)
O4_2 O 0.85395(9) 0.19217(9) 0.87146(6)
O5_6 O 0.65226(13) 0.11173(17) 1.0000
O6_6 O 0.84232(15) 0.04589(17) 1.0000
O7_2 O 0.95105(15) 0.10613(11) 0.91680(7)
O8_2 O 0.88024(11) 0.23068(12) 0.82105(8)
O13_2 O 0.35457(10) 0.38385(9) 0.66719(6)
O14_2 O 0.39482(8) 0.39938(9) 0.63406(6)
O15_2 O 0.52839(8) 0.36090(8) 0.63595(6)
O16_2 O 0.54763(8) 0.31535(9) 0.66528(6)
N1_2 N 0.71349(14) 0.2106(2) 0.89563(13)
N2_2 N 0.71531(19) 0.2445(3) 0.8843(2)
N3_2 N 0.6801(2) 0.2543(3) 0.8782(2)
N4_2 N 0.35902(15) 0.0600(3) 0.91948(13)
N5_2 N 0.3868(2) 0.0527(4) 0.9353(2)
N6_2 N 0.4161(2) 0.0722(5) 0.9288(2)
N7_2 N 0.49657(18) 0.2247(4) 0.8675(2)
N8_2 N 0.43761(15) 0.3110(3) 0.73124(13)
N9_2 N 0.4055(2) 0.3140(5) 0.74353(19)
N10_2 N 0.4079(2) 0.2983(4) 0.76588(18)
C1_2 C 0.76264(13) 0.12229(14) 0.96400(8)
C2_2 C 0.77135(14) 0.15005(14) 0.94042(9)
C3_2 C 0.80745(13) 0.15240(13) 0.92977(9)
H1_2 H 0.8283 0.1387 0.9375
C4_2 C 0.81353(13) 0.17508(13) 0.90744(9)
C5_2 C 0.78402(16) 0.19431(16) 0.89634(12)
H2_2 H 0.7880 0.2087 0.8806
C6_2 C 0.74694(16) 0.1931(2) 0.90816(13)
C7_2 C 0.74107(15) 0.16990(17) 0.93015(11)
H3_2 H 0.7162 0.1679 0.9379
C8_2 C 0.85210(12) 0.17343(13) 0.89288(9)
C9_2 C 0.6788(2) 0.2001(3) 0.89759(16)
H4_2 H 0.6689 0.1779 0.9063
C10_2 C 0.6584(2) 0.2282(3) 0.8842(2)
C11_2 C 0.6145(2) 0.2243(4) 0.8793(2)
C12_2 C 0.5950(3) 0.1924(4) 0.8816(3)
H5_2 H 0.6077 0.1696 0.8872
C13_2 C 0.5575(3) 0.1914(4) 0.8765(2)
H6_2 H 0.5447 0.1672 0.8769
C14_2 C 0.5370(2) 0.2227(4) 0.8706(2)
C15_2 C 0.5555(3) 0.2552(4) 0.8693(3)
H7_2 H 0.5420 0.2780 0.8647
C16_2 C 0.5962(3) 0.2569(4) 0.8748(3)
H8_2 H 0.6094 0.2809 0.8752
C18_2 C 0.27888(13) 0.00017(17) 0.94494(9)
C19_2 C 0.31580(17) 0.0134(2) 0.94084(12)
H9_2 H 0.3368 0.0025 0.9502
C20_2 C 0.32224(17) 0.0439(3) 0.92226(13)
C21_2 C 0.29193(15) 0.0571(2) 0.90662(12)
H10_2 H 0.2964 0.0763 0.8936
C22_2 C 0.25586(14) 0.04244(15) 0.91000(9)
C23_2 C 0.24898(14) 0.01552(14) 0.92968(9)
H11_2 H 0.2233 0.0073 0.9329
C24_2 C 0.22230(13) 0.05649(13) 0.89348(9)
C25_2 C 0.3699(2) 0.0873(4) 0.9038(2)
H12_2 H 0.3542 0.1000 0.8912
C26_2 C 0.4080(3) 0.0947(5) 0.9085(2)
C27_2 C 0.4303(2) 0.1328(4) 0.8986(2)
C28_2 C 0.4246(3) 0.1405(5) 0.8748(2)
H13_2 H 0.4060 0.1269 0.8647
C29_2 C 0.4455(4) 0.1683(5) 0.8643(3)
H14_2 H 0.4397 0.1751 0.8466
C30_2 C 0.4747(2) 0.1884(4) 0.8762(2)
C31_2 C 0.4804(4) 0.1793(5) 0.9013(3)
H15_2 H 0.4996 0.1922 0.9113
C32_2 C 0.4574(4) 0.1501(5) 0.9129(2)
H16_2 H 0.4614 0.1430 0.9307
C33_2 C 0.38663(13) 0.38415(12) 0.65527(9)
C34_2 C 0.41944(13) 0.36505(14) 0.66970(9)
C35_2 C 0.41392(15) 0.34967(19) 0.69355(11)
H17_2 H 0.3897 0.3520 0.7021
C36_2 C 0.44510(17) 0.3295(2) 0.70603(12)
C37_2 C 0.48079(15) 0.32694(17) 0.69445(11)
H18_2 H 0.5016 0.3146 0.7032
C38_2 C 0.48552(13) 0.34298(13) 0.66953(9)
C39_2 C 0.45553(13) 0.36263(12) 0.65760(8)
H19_2 H 0.4595 0.3746 0.6410
C40_2 C 0.52473(12) 0.33828(13) 0.65482(9)
C41_2 C 0.4566(2) 0.2722(4) 0.7956(2)
C42_2 C 0.4894(3) 0.2539(5) 0.7947(2)
H20_2 H 0.5031 0.2515 0.7785
C43_2 C 0.5038(3) 0.2382(5) 0.8177(3)
H21_2 H 0.5285 0.2264 0.8175
C44_2 C 0.4836(2) 0.2392(4) 0.8404(2)
C45_2 C 0.4495(3) 0.2555(6) 0.8397(2)
H22_2 H 0.4346 0.2572 0.8553
C46_2 C 0.4351(2) 0.2702(6) 0.8167(2)
H23_2 H 0.4092 0.2791 0.8161
C47_2 C 0.46098(19) 0.2957(3) 0.74736(17)
H24_2 H 0.4873 0.2900 0.7439
C48_2 C 0.4427(2) 0.2890(4) 0.76987(19)
O23_2 O 0.70114(9) 0.04839(10) 0.97322(6)
O24_2 O 0.76391(9) 0.03144(10) 0.97260(6)
C65_2 C 0.73004(14) 0.03087(15) 0.96508(8)
O39_2 O 0.88385(9) 0.14543(10) 0.83281(6)
O41_2 O 0.89938(9) 0.10518(8) 0.86594(6)
O43_2 O 0.97161(8) 0.13910(8) 0.86405(6)
O45_2 O 0.95237(8) 0.18465(9) 0.83472(6)
H53_3 H 0.846856 0.0299958 0.984006
H54_6 H 0.860262 0.0681995 1
H55_2 H 0.960063 0.121747 0.932015
H56_2 H 0.931096 0.0875923 0.922835
H57_2 H 0.873072 0.255608 0.829341
H58_2 H 0.900607 0.235117 0.807622
H59_3 H 0.648435 0.12781 0.984006
H60_6 H 0.633344 0.0902409 1
Cu7_3 Cu 0.29021(2) 0.91138(3) -0.0000
Cu8_3 Cu 0.21673(2) 0.93339(3) -0.0000
O9_2 O 0.29886(9) 0.95161(10) 0.97322(6)
O10_2 O 0.23609(9) 0.96856(10) 0.97260(6)
C17_2 C 0.26996(14) 0.96913(15) 0.96508(8)
O17_2 O 0.27085(10) 0.87680(10) 0.97240(6)
O18_2 O 0.20849(8) 0.89470(9) 0.97254(5)
O19_2 O 0.12162(8) 0.84402(9) 0.90469(6)
O20_2 O 0.14605(9) 0.80783(9) 0.87146(6)
O21_2 O 0.04895(15) 0.89387(11) 0.91680(7)
O22_2 O 0.11976(11) 0.76932(12) 0.82105(8)
O27_2 O 0.64543(10) 0.61615(9) 0.66719(6)
O28_2 O 0.60518(8) 0.60062(9) 0.63406(6)
O29_2 O 0.47161(8) 0.63910(8) 0.63595(6)
O30_2 O 0.45237(8) 0.68465(9) 0.66528(6)
N11_2 N 0.28651(14) 0.7894(2) 0.89563(13)
N12_2 N 0.28469(19) 0.7555(3) 0.8843(2)
N13_2 N 0.3199(2) 0.7457(3) 0.8782(2)
N14_2 N 0.64098(15) 0.9400(3) 0.91948(13)
N15_2 N 0.6132(2) 0.9473(4) 0.9353(2)
N16_2 N 0.5839(2) 0.9278(5) 0.9288(2)
N17_2 N 0.50343(18) 0.7753(4) 0.8675(2)
N18_2 N 0.56239(15) 0.6890(3) 0.73124(13)
N19_2 N 0.5945(2) 0.6860(5) 0.74353(19)
N20_2 N 0.5921(2) 0.7017(4) 0.76588(18)
C49_2 C 0.23736(13) 0.87771(14) 0.96400(8)
C50_2 C 0.22865(14) 0.84995(14) 0.94042(9)
C51_2 C 0.19255(13) 0.84760(13) 0.92977(9)
H25_2 H 0.1717 0.8613 0.9375
C52_2 C 0.18647(13) 0.82492(13) 0.90744(9)
C53_2 C 0.21598(16) 0.80569(16) 0.89634(12)
H26_2 H 0.2120 0.7913 0.8806
C54_2 C 0.25306(16) 0.8069(2) 0.90816(13)
C55_2 C 0.25893(15) 0.83010(17) 0.93015(11)
H27_2 H 0.2838 0.8321 0.9379
C56_2 C 0.14790(12) 0.82657(13) 0.89288(9)
C57_2 C 0.3212(2) 0.7999(3) 0.89759(16)
H28_2 H 0.3311 0.8221 0.9063
C58_2 C 0.3416(2) 0.7718(3) 0.8842(2)
C59_2 C 0.3855(2) 0.7757(4) 0.8793(2)
C60_2 C 0.4050(3) 0.8076(4) 0.8816(3)
H29_2 H 0.3923 0.8304 0.8872
C61_2 C 0.4425(3) 0.8086(4) 0.8765(2)
H30_2 H 0.4553 0.8328 0.8769
C62_2 C 0.4630(2) 0.7773(4) 0.8706(2)
C63_2 C 0.4445(3) 0.7448(4) 0.8693(3)
H31_2 H 0.4580 0.7220 0.8647
C64_2 C 0.4038(3) 0.7431(4) 0.8748(3)
H32_2 H 0.3906 0.7191 0.8752
C66_2 C 0.72112(13) 0.99983(17) 0.94494(9)
C67_2 C 0.68420(17) 0.9866(2) 0.94084(12)
H33_2 H 0.6632 0.9975 0.9502
C68_2 C 0.67776(17) 0.9561(3) 0.92226(13)
C69_2 C 0.70807(15) 0.9429(2) 0.90662(12)
H34_2 H 0.7036 0.9237 0.8936
C70_2 C 0.74414(14) 0.95756(15) 0.91000(9)
C71_2 C 0.75102(14) 0.98448(14) 0.92968(9)
H35_2 H 0.7767 0.9927 0.9329
C72_2 C 0.77770(13) 0.94351(13) 0.89348(9)
C73_2 C 0.6301(2) 0.9127(4) 0.9038(2)
H36_2 H 0.6458 0.9000 0.8912
C74_2 C 0.5920(3) 0.9053(5) 0.9085(2)
C75_2 C 0.5697(2) 0.8672(4) 0.8986(2)
C76_2 C 0.5754(3) 0.8595(5) 0.8748(2)
H37_2 H 0.5940 0.8731 0.8647
C77_2 C 0.5545(4) 0.8317(5) 0.8643(3)
H38_2 H 0.5603 0.8249 0.8466
C78_2 C 0.5253(2) 0.8116(4) 0.8762(2)
C79_2 C 0.5196(4) 0.8207(5) 0.9013(3)
H39_2 H 0.5004 0.8078 0.9113
C80_2 C 0.5426(4) 0.8499(5) 0.9129(2)
H40_2 H 0.5386 0.8570 0.9307
C81_2 C 0.61337(13) 0.61585(12) 0.65527(9)
C82_2 C 0.58056(13) 0.63495(14) 0.66970(9)
C83_2 C 0.58608(15) 0.65033(19) 0.69355(11)
H41_2 H 0.6103 0.6480 0.7021
C84_2 C 0.55490(17) 0.6705(2) 0.70603(12)
C85_2 C 0.51921(15) 0.67306(17) 0.69445(11)
H42_2 H 0.4984 0.6854 0.7032
C86_2 C 0.51448(13) 0.65702(13) 0.66953(9)
C87_2 C 0.54447(13) 0.63737(12) 0.65760(8)
H43_2 H 0.5405 0.6254 0.6410
C88_2 C 0.47527(12) 0.66172(13) 0.65482(9)
C89_2 C 0.5434(2) 0.7278(4) 0.7956(2)
C90_2 C 0.5106(3) 0.7461(5) 0.7947(2)
H44_2 H 0.4969 0.7485 0.7785
C91_2 C 0.4962(3) 0.7618(5) 0.8177(3)
H45_2 H 0.4715 0.7736 0.8175
C92_2 C 0.5164(2) 0.7608(4) 0.8404(2)
C93_2 C 0.5505(3) 0.7445(6) 0.8397(2)
H46_2 H 0.5654 0.7428 0.8553
C94_2 C 0.5649(2) 0.7298(6) 0.8167(2)
H47_2 H 0.5908 0.7209 0.8161
C95_2 C 0.53902(19) 0.7043(3) 0.74736(17)
H48_2 H 0.5127 0.7100 0.7439
C96_2 C 0.5573(2) 0.7110(4) 0.76987(19)
Cu7_4 Cu 0.29021(2) 0.91138(3) 1.0000
Cu8_4 Cu 0.21673(2) 0.93339(3) 1.0000
O40_2 O 0.11615(9) 0.85457(10) 0.83281(6)
O42_2 O 0.10062(9) 0.89482(8) 0.86594(6)
O44_2 O 0.02839(8) 0.86090(8) 0.86405(6)
O46_2 O 0.04763(8) 0.81535(9) 0.83472(6)
H49_2 H 0.126928 0.744392 0.829341
H50_2 H 0.0993929 0.764883 0.807622
H51_2 H 0.0399374 0.878253 0.932015
H52_2 H 0.0689039 0.912408 0.922835
O5_7 O 0.34774(13) 0.88827(17) -0.0000
O6_7 O 0.15768(15) 0.95411(17) -0.0000
O31_4 O 0.27085(10) 0.87680(10) 0.02760(6)
O32_4 O 0.20849(8) 0.89470(9) 0.02746(5)
O33_4 O 0.29886(9) 0.95161(10) 0.02678(6)
O34_4 O 0.23609(9) 0.96856(10) 0.02740(6)
H54_7 H 0.139738 0.931801 -1.11022e-16
H60_7 H 0.366656 0.909759 -1.11022e-16
O5_8 O 0.34774(13) 0.88827(17) 1.0000
O6_8 O 0.15768(15) 0.95411(17) 1.0000
H53_4 H 0.153144 0.970004 0.984006
H54_8 H 0.139738 0.931801 1
H59_4 H 0.351565 0.87219 0.984006
H60_8 H 0.366656 0.909759 1
O9_3 O 0.45161(10) 0.20114(9) 0.47322(6)
O10_3 O 0.46856(10) 0.26391(9) 0.47260(6)
O11_2 O 0.55114(8) 0.31014(9) 0.40263(6)
O12_2 O 0.57762(9) 0.26842(8) 0.37424(6)
O13_3 O 0.88385(9) 0.14543(10) 0.16719(6)
O14_3 O 0.89938(9) 0.10518(8) 0.13406(6)
N4_3 N 0.5600(3) 0.14098(15) 0.41948(13)
N5_3 N 0.5527(4) 0.1132(2) 0.4353(2)
N6_3 N 0.5722(5) 0.0839(2) 0.4288(2)
N7_3 N 0.7247(4) 0.00343(18) 0.3675(2)
N8_3 N 0.8110(3) 0.06239(15) 0.23124(13)
N9_3 N 0.8140(5) 0.0945(2) 0.24353(19)
N10_3 N 0.7983(4) 0.0921(2) 0.26588(18)
C17_3 C 0.46913(15) 0.23004(14) 0.46508(8)
C18_3 C 0.50017(17) 0.22112(13) 0.44494(9)
C19_3 C 0.5134(2) 0.18420(17) 0.44084(12)
H9_3 H 0.5025 0.1632 0.4502
C20_3 C 0.5439(3) 0.17776(17) 0.42226(13)
C21_3 C 0.5571(2) 0.20807(15) 0.40662(12)
H10_3 H 0.5763 0.2036 0.3936
C22_3 C 0.54244(15) 0.24414(14) 0.41000(9)
C23_3 C 0.51552(14) 0.25102(14) 0.42968(9)
H11_3 H 0.5073 0.2767 0.4329
C24_3 C 0.55649(13) 0.27770(13) 0.39348(9)
C25_3 C 0.5873(4) 0.1301(2) 0.4038(2)
H12_3 H 0.6000 0.1458 0.3912
C26_3 C 0.5947(5) 0.0920(3) 0.4085(2)
C27_3 C 0.6328(4) 0.0697(2) 0.3986(2)
C28_3 C 0.6405(5) 0.0754(3) 0.3748(2)
H13_3 H 0.6269 0.0940 0.3647
C29_3 C 0.6683(5) 0.0545(4) 0.3643(3)
H14_3 H 0.6751 0.0603 0.3466
C30_3 C 0.6884(4) 0.0253(2) 0.3762(2)
C31_3 C 0.6793(5) 0.0196(4) 0.4013(3)
H15_3 H 0.6922 0.0004 0.4113
C32_3 C 0.6501(5) 0.0426(4) 0.4129(2)
H16_3 H 0.6430 0.0386 0.4307
C33_3 C 0.88415(12) 0.11337(13) 0.15527(9)
C34_3 C 0.86505(14) 0.08056(13) 0.16970(9)
C35_3 C 0.84967(19) 0.08608(15) 0.19355(11)
H17_3 H 0.8520 0.1103 0.2021
C36_3 C 0.8295(2) 0.05490(17) 0.20603(12)
C37_3 C 0.82694(17) 0.01921(15) 0.19445(11)
C38_3 C 0.84298(13) 0.01448(13) 0.16953(9)
C39_3 C 0.86263(12) 0.04447(13) 0.15760(8)
H19_3 H 0.8746 0.0405 0.1410
C41_3 C 0.7722(4) 0.0434(2) 0.2956(2)
C42_3 C 0.7539(5) 0.0106(3) 0.2947(2)
C44_3 C 0.7392(4) 0.0164(2) 0.3404(2)
C45_3 C 0.7555(6) 0.0505(3) 0.3397(2)
H22_3 H 0.7572 0.0654 0.3553
C46_3 C 0.7702(6) 0.0649(2) 0.3167(2)
H23_3 H 0.7791 0.0908 0.3161
C47_3 C 0.7957(3) 0.03902(19) 0.24736(17)
H24_3 H 0.7900 0.0127 0.2439
C48_3 C 0.7890(4) 0.0573(2) 0.26987(19)
Cu5_2 Cu 0.35628(2) 0.42677(2) 0.38719(2)
Cu6_2 Cu 0.30771(2) 0.40132(2) 0.35052(2)
O17_3 O 0.37680(10) 0.22915(10) 0.47240(6)
O18_3 O 0.39470(9) 0.29151(8) 0.47254(5)
O19_3 O 0.34402(9) 0.37838(8) 0.40469(6)
O20_3 O 0.30783(9) 0.35395(9) 0.37146(6)
O21_3 O 0.39387(11) 0.45105(15) 0.41680(7)
O22_3 O 0.26932(12) 0.38024(11) 0.32105(8)
O29_3 O 0.13910(8) 0.02839(8) 0.13595(6)
O30_3 O 0.18465(9) 0.04763(8) 0.16528(6)
N11_3 N 0.2894(2) 0.21349(14) 0.39563(13)
N12_3 N 0.2555(3) 0.21531(19) 0.3843(2)
N13_3 N 0.2457(3) 0.1801(2) 0.3782(2)
C49_3 C 0.37771(14) 0.26264(13) 0.46400(8)
C50_3 C 0.34995(14) 0.27135(14) 0.44042(9)
C51_3 C 0.34760(13) 0.30745(13) 0.42977(9)
H25_3 H 0.3613 0.3283 0.4375
C52_3 C 0.32492(13) 0.31353(13) 0.40744(9)
C53_3 C 0.30569(16) 0.28402(16) 0.39634(12)
H26_3 H 0.2913 0.2880 0.3806
C54_3 C 0.3069(2) 0.24694(16) 0.40816(13)
C55_3 C 0.33010(17) 0.24107(15) 0.43015(11)
H27_3 H 0.3321 0.2162 0.4379
C56_3 C 0.32657(13) 0.35210(12) 0.39288(9)
C57_3 C 0.2999(3) 0.1788(2) 0.39759(16)
H28_3 H 0.3221 0.1689 0.4063
C58_3 C 0.2718(3) 0.1584(2) 0.3842(2)
C59_3 C 0.2757(4) 0.1145(2) 0.3793(2)
C60_3 C 0.3076(4) 0.0950(3) 0.3816(3)
H29_3 H 0.3304 0.1077 0.3872
C61_3 C 0.3086(4) 0.0575(3) 0.3765(2)
H30_3 H 0.3328 0.0447 0.3769
C62_3 C 0.2773(4) 0.0370(2) 0.3706(2)
C63_3 C 0.2448(4) 0.0555(3) 0.3693(3)
H31_3 H 0.2220 0.0420 0.3647
C64_3 C 0.2431(4) 0.0962(3) 0.3748(3)
H32_3 H 0.2191 0.1094 0.3752
H42_3 H 0.1854 0.0016 0.2032
C88_3 C 0.16172(13) 0.02473(12) 0.15482(9)
H44_3 H 0.2485 0.0031 0.2785
C91_3 C 0.2618(5) 0.0038(3) 0.3177(3)
H45_3 H 0.2736 0.0285 0.3175
Cu7_5 Cu 0.41138(3) 0.20979(2) 0.5000
Cu8_5 Cu 0.43339(3) 0.28327(2) 0.5000
Cu10_2 Cu 0.57323(2) 0.35628(2) 0.38719(2)
Cu12_2 Cu 0.14372(2) 0.07323(2) 0.11281(2)
Cu14_2 Cu 0.92677(2) 0.14372(2) 0.11281(2)
Cu16_2 Cu 0.59868(2) 0.30771(2) 0.35052(2)
Cu18_2 Cu 0.19229(2) 0.09868(2) 0.14948(2)
Cu20_2 Cu 0.90132(2) 0.19229(2) 0.14948(2)
O36_2 O 0.31014(9) 0.44886(8) 0.40263(6)
O38_2 O 0.26842(8) 0.42238(9) 0.37424(6)
O40_3 O 0.35457(10) 0.38385(9) 0.33281(6)
O42_3 O 0.39482(8) 0.39938(9) 0.36594(6)
O44_3 O 0.36090(8) 0.47161(8) 0.36405(6)
O46_3 O 0.31535(9) 0.45237(8) 0.33472(6)
H49_3 H 0.244392 0.373072 0.329341
H50_3 H 0.264883 0.400607 0.307622
H51_3 H 0.378253 0.460063 0.432015
H52_3 H 0.412408 0.431096 0.422835
Cu1_5 Cu 0.58862(3) 0.79021(2) 0.5000
Cu2_5 Cu 0.56661(3) 0.71673(2) 0.5000
Cu3_2 Cu 0.64372(2) 0.57323(2) 0.38719(2)
Cu4_2 Cu 0.69229(2) 0.59868(2) 0.35052(2)
O1_3 O 0.62320(10) 0.77085(10) 0.47240(6)
O2_3 O 0.60530(9) 0.70849(8) 0.47254(5)
O3_3 O 0.65598(9) 0.62162(8) 0.40469(6)
O4_3 O 0.69217(9) 0.64605(9) 0.37146(6)
O5_9 O 0.61173(17) 0.84774(13) 0.5000
O6_9 O 0.54589(17) 0.65768(15) 0.5000
O7_3 O 0.60613(11) 0.54895(15) 0.41680(7)
O8_3 O 0.73068(12) 0.61976(11) 0.32105(8)
O15_3 O 0.86090(8) 0.97161(8) 0.13595(6)
O16_3 O 0.81535(9) 0.95237(8) 0.16528(6)
N1_3 N 0.7106(2) 0.78651(14) 0.39563(13)
N2_3 N 0.7445(3) 0.78469(19) 0.3843(2)
N3_3 N 0.7543(3) 0.8199(2) 0.3782(2)
C1_3 C 0.62229(14) 0.73736(13) 0.46400(8)
C2_3 C 0.65005(14) 0.72865(14) 0.44042(9)
C3_3 C 0.65240(13) 0.69255(13) 0.42977(9)
H1_3 H 0.6387 0.6717 0.4375
C4_3 C 0.67508(13) 0.68647(13) 0.40744(9)
C5_3 C 0.69431(16) 0.71598(16) 0.39634(12)
H2_3 H 0.7087 0.7120 0.3806
C6_3 C 0.6931(2) 0.75306(16) 0.40816(13)
C7_3 C 0.66990(17) 0.75893(15) 0.43015(11)
H3_3 H 0.6679 0.7838 0.4379
C8_3 C 0.67343(13) 0.64790(12) 0.39288(9)
C9_3 C 0.7001(3) 0.8212(2) 0.39759(16)
H4_3 H 0.6779 0.8311 0.4063
C10_3 C 0.7282(3) 0.8416(2) 0.3842(2)
C11_3 C 0.7243(4) 0.8855(2) 0.3793(2)
C12_3 C 0.6924(4) 0.9050(3) 0.3816(3)
H5_3 H 0.6696 0.8923 0.3872
C13_3 C 0.6914(4) 0.9425(3) 0.3765(2)
H6_3 H 0.6672 0.9553 0.3769
C14_3 C 0.7227(4) 0.9630(2) 0.3706(2)
C15_3 C 0.7552(4) 0.9445(3) 0.3693(3)
H7_3 H 0.7780 0.9580 0.3647
C16_3 C 0.7569(4) 0.9038(3) 0.3748(3)
H8_3 H 0.7809 0.8906 0.3752
H18_3 H 0.8146 0.9984 0.2032
C40_3 C 0.83828(13) 0.97527(12) 0.15482(9)
H20_3 H 0.7515 0.9969 0.2785
C43_3 C 0.7382(5) 0.9962(3) 0.3177(3)
H21_3 H 0.7264 0.9715 0.3175
O23_3 O 0.54839(10) 0.79886(9) 0.47322(6)
O24_3 O 0.53144(10) 0.73609(9) 0.47260(6)
O25_2 O 0.44886(8) 0.68986(9) 0.40263(6)
O26_2 O 0.42238(9) 0.73158(8) 0.37424(6)
O27_3 O 0.11615(9) 0.85457(10) 0.16719(6)
O28_3 O 0.10062(9) 0.89482(8) 0.13406(6)
N14_3 N 0.4400(3) 0.85902(15) 0.41948(13)
N15_3 N 0.4473(4) 0.8868(2) 0.4353(2)
N16_3 N 0.4278(5) 0.9161(2) 0.4288(2)
N17_3 N 0.2753(4) 0.99657(18) 0.3675(2)
N18_3 N 0.1890(3) 0.93761(15) 0.23124(13)
N19_3 N 0.1860(5) 0.9055(2) 0.24353(19)
N20_3 N 0.2017(4) 0.9079(2) 0.26588(18)
C65_3 C 0.53087(15) 0.76996(14) 0.46508(8)
C66_3 C 0.49983(17) 0.77888(13) 0.44494(9)
C67_3 C 0.4866(2) 0.81580(17) 0.44084(12)
H33_3 H 0.4975 0.8368 0.4502
C68_3 C 0.4561(3) 0.82224(17) 0.42226(13)
C69_3 C 0.4429(2) 0.79193(15) 0.40662(12)
H34_3 H 0.4237 0.7964 0.3936
C70_3 C 0.45756(15) 0.75586(14) 0.41000(9)
C71_3 C 0.48448(14) 0.74898(14) 0.42968(9)
H35_3 H 0.4927 0.7233 0.4329
C72_3 C 0.44351(13) 0.72230(13) 0.39348(9)
C73_3 C 0.4127(4) 0.8699(2) 0.4038(2)
H36_3 H 0.4000 0.8542 0.3912
C74_3 C 0.4053(5) 0.9080(3) 0.4085(2)
C75_3 C 0.3672(4) 0.9303(2) 0.3986(2)
C76_3 C 0.3595(5) 0.9246(3) 0.3748(2)
H37_3 H 0.3731 0.9060 0.3647
C77_3 C 0.3317(5) 0.9455(4) 0.3643(3)
H38_3 H 0.3249 0.9397 0.3466
C78_3 C 0.3116(4) 0.9747(2) 0.3762(2)
C79_3 C 0.3207(5) 0.9804(4) 0.4013(3)
H39_3 H 0.3078 0.9996 0.4113
C80_3 C 0.3499(5) 0.9574(4) 0.4129(2)
H40_3 H 0.3570 0.9614 0.4307
C81_3 C 0.11585(12) 0.88663(13) 0.15527(9)
C82_3 C 0.13495(14) 0.91944(13) 0.16970(9)
C83_3 C 0.15033(19) 0.91392(15) 0.19355(11)
H41_3 H 0.1480 0.8897 0.2021
C84_3 C 0.1705(2) 0.94510(17) 0.20603(12)
C85_3 C 0.17306(17) 0.98079(15) 0.19445(11)
C86_3 C 0.15702(13) 0.98552(13) 0.16953(9)
C87_3 C 0.13737(12) 0.95553(13) 0.15760(8)
H43_3 H 0.1254 0.9595 0.1410
C89_3 C 0.2278(4) 0.9566(2) 0.2956(2)
C90_3 C 0.2461(5) 0.9894(3) 0.2947(2)
C92_3 C 0.2608(4) 0.9836(2) 0.3404(2)
C93_3 C 0.2445(6) 0.9495(3) 0.3397(2)
H46_3 H 0.2428 0.9346 0.3553
C94_3 C 0.2298(6) 0.9351(2) 0.3167(2)
H47_3 H 0.2209 0.9092 0.3161
C95_3 C 0.2043(3) 0.96098(19) 0.24736(17)
H48_3 H 0.2100 0.9873 0.2439
C96_3 C 0.2110(4) 0.9427(2) 0.26987(19)
Cu9_2 Cu 0.42677(2) 0.64372(2) 0.38719(2)
Cu11_2 Cu 0.85628(2) 0.92677(2) 0.11281(2)
Cu13_2 Cu 0.07323(2) 0.85628(2) 0.11281(2)
Cu15_2 Cu 0.40132(2) 0.69229(2) 0.35052(2)
Cu17_2 Cu 0.80771(2) 0.90132(2) 0.14948(2)
Cu19_2 Cu 0.09868(2) 0.80771(2) 0.14948(2)
O31_5 O 0.62320(10) 0.77085(10) 0.52760(6)
O32_5 O 0.60530(9) 0.70849(8) 0.52746(5)
O33_5 O 0.54839(10) 0.79886(9) 0.52678(6)
O34_5 O 0.53144(10) 0.73609(9) 0.52740(6)
O35_2 O 0.68986(9) 0.55114(8) 0.40263(6)
O37_2 O 0.73158(8) 0.57762(9) 0.37424(6)
O39_3 O 0.64543(10) 0.61615(9) 0.33281(6)
O41_3 O 0.60518(8) 0.60062(9) 0.36594(6)
O43_3 O 0.63910(8) 0.52839(8) 0.36405(6)
O45_3 O 0.68465(9) 0.54763(8) 0.33472(6)
H55_3 H 0.621747 0.539937 0.432015
H56_3 H 0.587592 0.568904 0.422835
H57_3 H 0.755608 0.626928 0.329341
H58_3 H 0.735117 0.599393 0.307622
O5_10 O 0.38827(17) 0.15226(13) 0.5000
O6_10 O 0.45411(17) 0.34232(15) 0.5000
O31_6 O 0.37680(10) 0.22915(10) 0.52760(6)
O32_6 O 0.39470(9) 0.29151(8) 0.52746(5)
O33_6 O 0.45161(10) 0.20114(9) 0.52678(6)
O34_6 O 0.46856(10) 0.26391(9) 0.52740(6)
Cu1_6 Cu 0.20979(2) 0.58862(3) 0.5000
Cu2_6 Cu 0.28327(2) 0.56661(3) 0.5000
O1_4 O 0.22915(10) 0.62320(10) 0.47240(6)
O2_4 O 0.29151(8) 0.60530(9) 0.47254(5)
O3_4 O 0.37838(8) 0.65598(9) 0.40469(6)
O4_4 O 0.35395(9) 0.69217(9) 0.37146(6)
O5_11 O 0.15226(13) 0.61173(17) 0.5000
O6_11 O 0.34232(15) 0.54589(17) 0.5000
O7_4 O 0.45105(15) 0.60613(11) 0.41680(7)
O8_4 O 0.38024(11) 0.73068(12) 0.32105(8)
O15_4 O 0.02839(8) 0.86090(8) 0.13595(6)
O16_4 O 0.04763(8) 0.81535(9) 0.16528(6)
N1_4 N 0.21349(14) 0.7106(2) 0.39563(13)
N2_4 N 0.21531(19) 0.7445(3) 0.3843(2)
N3_4 N 0.1801(2) 0.7543(3) 0.3782(2)
C1_4 C 0.26264(13) 0.62229(14) 0.46400(8)
C2_4 C 0.27135(14) 0.65005(14) 0.44042(9)
C3_4 C 0.30745(13) 0.65240(13) 0.42977(9)
H1_4 H 0.3283 0.6387 0.4375
C4_4 C 0.31353(13) 0.67508(13) 0.40744(9)
C5_4 C 0.28402(16) 0.69431(16) 0.39634(12)
H2_4 H 0.2880 0.7087 0.3806
C6_4 C 0.24694(16) 0.6931(2) 0.40816(13)
C7_4 C 0.24107(15) 0.66990(17) 0.43015(11)
H3_4 H 0.2162 0.6679 0.4379
C8_4 C 0.35210(12) 0.67343(13) 0.39288(9)
C9_4 C 0.1788(2) 0.7001(3) 0.39759(16)
H4_4 H 0.1689 0.6779 0.4063
C10_4 C 0.1584(2) 0.7282(3) 0.3842(2)
C11_4 C 0.1145(2) 0.7243(4) 0.3793(2)
C12_4 C 0.0950(3) 0.6924(4) 0.3816(3)
H5_4 H 0.1077 0.6696 0.3872
C13_4 C 0.0575(3) 0.6914(4) 0.3765(2)
H6_4 H 0.0447 0.6672 0.3769
C14_4 C 0.0370(2) 0.7227(4) 0.3706(2)
C15_4 C 0.0555(3) 0.7552(4) 0.3693(3)
H7_4 H 0.0420 0.7780 0.3647
C16_4 C 0.0962(3) 0.7569(4) 0.3748(3)
H8_4 H 0.1094 0.7809 0.3752
H18_4 H 0.0016 0.8146 0.2032
C40_4 C 0.02473(12) 0.83828(13) 0.15482(9)
H20_4 H 0.0031 0.7515 0.2785
C43_4 C 0.0038(3) 0.7382(5) 0.3177(3)
H21_4 H 0.0285 0.7264 0.3175
O23_4 O 0.20114(9) 0.54839(10) 0.47322(6)
O24_4 O 0.26391(9) 0.53144(10) 0.47260(6)
O27_4 O 0.14543(10) 0.11615(9) 0.16719(6)
O28_4 O 0.10518(8) 0.10062(9) 0.13406(6)
N14_4 N 0.14098(15) 0.4400(3) 0.41948(13)
N15_4 N 0.1132(2) 0.4473(4) 0.4353(2)
N16_4 N 0.0839(2) 0.4278(5) 0.4288(2)
N17_4 N 0.00343(18) 0.2753(4) 0.3675(2)
N18_4 N 0.06239(15) 0.1890(3) 0.23124(13)
N19_4 N 0.0945(2) 0.1860(5) 0.24353(19)
N20_4 N 0.0921(2) 0.2017(4) 0.26588(18)
C65_4 C 0.23004(14) 0.53087(15) 0.46508(8)
C66_4 C 0.22112(13) 0.49983(17) 0.44494(9)
C67_4 C 0.18420(17) 0.4866(2) 0.44084(12)
H33_4 H 0.1632 0.4975 0.4502
C68_4 C 0.17776(17) 0.4561(3) 0.42226(13)
C69_4 C 0.20807(15) 0.4429(2) 0.40662(12)
H34_4 H 0.2036 0.4237 0.3936
C70_4 C 0.24414(14) 0.45756(15) 0.41000(9)
C71_4 C 0.25102(14) 0.48448(14) 0.42968(9)
H35_4 H 0.2767 0.4927 0.4329
C72_4 C 0.27770(13) 0.44351(13) 0.39348(9)
C73_4 C 0.1301(2) 0.4127(4) 0.4038(2)
H36_4 H 0.1458 0.4000 0.3912
C74_4 C 0.0920(3) 0.4053(5) 0.4085(2)
C75_4 C 0.0697(2) 0.3672(4) 0.3986(2)
C76_4 C 0.0754(3) 0.3595(5) 0.3748(2)
H37_4 H 0.0940 0.3731 0.3647
C77_4 C 0.0545(4) 0.3317(5) 0.3643(3)
H38_4 H 0.0603 0.3249 0.3466
C78_4 C 0.0253(2) 0.3116(4) 0.3762(2)
C79_4 C 0.0196(4) 0.3207(5) 0.4013(3)
H39_4 H 0.0004 0.3078 0.4113
C80_4 C 0.0426(4) 0.3499(5) 0.4129(2)
H40_4 H 0.0386 0.3570 0.4307
C81_4 C 0.11337(13) 0.11585(12) 0.15527(9)
C82_4 C 0.08056(13) 0.13495(14) 0.16970(9)
C83_4 C 0.08608(15) 0.15033(19) 0.19355(11)
H41_4 H 0.1103 0.1480 0.2021
C84_4 C 0.05490(17) 0.1705(2) 0.20603(12)
C85_4 C 0.01921(15) 0.17306(17) 0.19445(11)
C86_4 C 0.01448(13) 0.15702(13) 0.16953(9)
C87_4 C 0.04447(13) 0.13737(12) 0.15760(8)
H43_4 H 0.0405 0.1254 0.1410
C89_4 C 0.0434(2) 0.2278(4) 0.2956(2)
C90_4 C 0.0106(3) 0.2461(5) 0.2947(2)
C92_4 C 0.0164(2) 0.2608(4) 0.3404(2)
C93_4 C 0.0505(3) 0.2445(6) 0.3397(2)
H46_4 H 0.0654 0.2428 0.3553
C94_4 C 0.0649(2) 0.2298(6) 0.3167(2)
H47_4 H 0.0908 0.2209 0.3161
C95_4 C 0.03902(19) 0.2043(3) 0.24736(17)
H48_4 H 0.0127 0.2100 0.2439
C96_4 C 0.0573(2) 0.2110(4) 0.26987(19)
O31_7 O 0.22915(10) 0.62320(10) 0.52760(6)
O32_7 O 0.29151(8) 0.60530(9) 0.52746(5)
O33_7 O 0.20114(9) 0.54839(10) 0.52678(6)
O34_7 O 0.26391(9) 0.53144(10) 0.52740(6)
O39_4 O 0.38385(9) 0.64543(10) 0.33281(6)
O41_4 O 0.39938(9) 0.60518(8) 0.36594(6)
O43_4 O 0.47161(8) 0.63910(8) 0.36405(6)
O45_4 O 0.45237(8) 0.68465(9) 0.33472(6)
H55_4 H 0.460063 0.621747 0.432015
H56_4 H 0.431096 0.587592 0.422835
H57_4 H 0.373072 0.755608 0.329341
H58_4 H 0.400607 0.735117 0.307622
O9_4 O 0.79886(9) 0.45161(10) 0.47322(6)
O10_4 O 0.73609(9) 0.46856(10) 0.47260(6)
O13_4 O 0.85457(10) 0.88385(9) 0.16719(6)
O14_4 O 0.89482(8) 0.89938(9) 0.13406(6)
N4_4 N 0.85902(15) 0.5600(3) 0.41948(13)
N5_4 N 0.8868(2) 0.5527(4) 0.4353(2)
N6_4 N 0.9161(2) 0.5722(5) 0.4288(2)
N7_4 N 0.99657(18) 0.7247(4) 0.3675(2)
N8_4 N 0.93761(15) 0.8110(3) 0.23124(13)
N9_4 N 0.9055(2) 0.8140(5) 0.24353(19)
N10_4 N 0.9079(2) 0.7983(4) 0.26588(18)
C17_4 C 0.76996(14) 0.46913(15) 0.46508(8)
C18_4 C 0.77888(13) 0.50017(17) 0.44494(9)
C19_4 C 0.81580(17) 0.5134(2) 0.44084(12)
H9_4 H 0.8368 0.5025 0.4502
C20_4 C 0.82224(17) 0.5439(3) 0.42226(13)
C21_4 C 0.79193(15) 0.5571(2) 0.40662(12)
H10_4 H 0.7964 0.5763 0.3936
C22_4 C 0.75586(14) 0.54244(15) 0.41000(9)
C23_4 C 0.74898(14) 0.51552(14) 0.42968(9)
H11_4 H 0.7233 0.5073 0.4329
C24_4 C 0.72230(13) 0.55649(13) 0.39348(9)
C25_4 C 0.8699(2) 0.5873(4) 0.4038(2)
H12_4 H 0.8542 0.6000 0.3912
C26_4 C 0.9080(3) 0.5947(5) 0.4085(2)
C27_4 C 0.9303(2) 0.6328(4) 0.3986(2)
C28_4 C 0.9246(3) 0.6405(5) 0.3748(2)
H13_4 H 0.9060 0.6269 0.3647
C29_4 C 0.9455(4) 0.6683(5) 0.3643(3)
H14_4 H 0.9397 0.6751 0.3466
C30_4 C 0.9747(2) 0.6884(4) 0.3762(2)
C31_4 C 0.9804(4) 0.6793(5) 0.4013(3)
H15_4 H 0.9996 0.6922 0.4113
C32_4 C 0.9574(4) 0.6501(5) 0.4129(2)
H16_4 H 0.9614 0.6430 0.4307
C33_4 C 0.88663(13) 0.88415(12) 0.15527(9)
C34_4 C 0.91944(13) 0.86505(14) 0.16970(9)
C35_4 C 0.91392(15) 0.84967(19) 0.19355(11)
H17_4 H 0.8897 0.8520 0.2021
C36_4 C 0.94510(17) 0.8295(2) 0.20603(12)
C37_4 C 0.98079(15) 0.82694(17) 0.19445(11)
C38_4 C 0.98552(13) 0.84298(13) 0.16953(9)
C39_4 C 0.95553(13) 0.86263(12) 0.15760(8)
H19_4 H 0.9595 0.8746 0.1410
C41_4 C 0.9566(2) 0.7722(4) 0.2956(2)
C42_4 C 0.9894(3) 0.7539(5) 0.2947(2)
C44_4 C 0.9836(2) 0.7392(4) 0.3404(2)
C45_4 C 0.9495(3) 0.7555(6) 0.3397(2)
H22_4 H 0.9346 0.7572 0.3553
C46_4 C 0.9351(2) 0.7702(6) 0.3167(2)
H23_4 H 0.9092 0.7791 0.3161
C47_4 C 0.96098(19) 0.7957(3) 0.24736(17)
H24_4 H 0.9873 0.7900 0.2439
C48_4 C 0.9427(2) 0.7890(4) 0.26987(19)
O17_4 O 0.77085(10) 0.37680(10) 0.47240(6)
O18_4 O 0.70849(8) 0.39470(9) 0.47254(5)
O19_4 O 0.62162(8) 0.34402(9) 0.40469(6)
O20_4 O 0.64605(9) 0.30783(9) 0.37146(6)
O21_4 O 0.54895(15) 0.39387(11) 0.41680(7)
O22_4 O 0.61976(11) 0.26932(12) 0.32105(8)
O29_4 O 0.97161(8) 0.13910(8) 0.13595(6)
O30_4 O 0.95237(8) 0.18465(9) 0.16528(6)
N11_4 N 0.78651(14) 0.2894(2) 0.39563(13)
N12_4 N 0.78469(19) 0.2555(3) 0.3843(2)
N13_4 N 0.8199(2) 0.2457(3) 0.3782(2)
C49_4 C 0.73736(13) 0.37771(14) 0.46400(8)
C50_4 C 0.72865(14) 0.34995(14) 0.44042(9)
C51_4 C 0.69255(13) 0.34760(13) 0.42977(9)
H25_4 H 0.6717 0.3613 0.4375
C52_4 C 0.68647(13) 0.32492(13) 0.40744(9)
C53_4 C 0.71598(16) 0.30569(16) 0.39634(12)
H26_4 H 0.7120 0.2913 0.3806
C54_4 C 0.75306(16) 0.3069(2) 0.40816(13)
C55_4 C 0.75893(15) 0.33010(17) 0.43015(11)
H27_4 H 0.7838 0.3321 0.4379
C56_4 C 0.64790(12) 0.32657(13) 0.39288(9)
C57_4 C 0.8212(2) 0.2999(3) 0.39759(16)
H28_4 H 0.8311 0.3221 0.4063
C58_4 C 0.8416(2) 0.2718(3) 0.3842(2)
C59_4 C 0.8855(2) 0.2757(4) 0.3793(2)
C60_4 C 0.9050(3) 0.3076(4) 0.3816(3)
H29_4 H 0.8923 0.3304 0.3872
C61_4 C 0.9425(3) 0.3086(4) 0.3765(2)
H30_4 H 0.9553 0.3328 0.3769
C62_4 C 0.9630(2) 0.2773(4) 0.3706(2)
C63_4 C 0.9445(3) 0.2448(4) 0.3693(3)
H31_4 H 0.9580 0.2220 0.3647
C64_4 C 0.9038(3) 0.2431(4) 0.3748(3)
H32_4 H 0.8906 0.2191 0.3752
H42_4 H 0.9984 0.1854 0.2032
C88_4 C 0.97527(12) 0.16172(13) 0.15482(9)
H44_4 H 0.9969 0.2485 0.2785
C91_4 C 0.9962(3) 0.2618(5) 0.3177(3)
H45_4 H 0.9715 0.2736 0.3175
Cu7_6 Cu 0.79021(2) 0.41138(3) 0.5000
Cu8_6 Cu 0.71673(2) 0.43339(3) 0.5000
O40_4 O 0.61615(9) 0.35457(10) 0.33281(6)
O42_4 O 0.60062(9) 0.39482(8) 0.36594(6)
O44_4 O 0.52839(8) 0.36090(8) 0.36405(6)
O46_4 O 0.54763(8) 0.31535(9) 0.33472(6)
H49_4 H 0.626928 0.244392 0.329341
H50_4 H 0.599393 0.264883 0.307622
H51_4 H 0.539937 0.378253 0.432015
H52_4 H 0.568904 0.412408 0.422835
O5_12 O 0.84774(13) 0.38827(17) 0.5000
O6_12 O 0.65768(15) 0.45411(17) 0.5000
O31_8 O 0.77085(10) 0.37680(10) 0.52760(6)
O32_8 O 0.70849(8) 0.39470(9) 0.52746(5)
O33_8 O 0.79886(9) 0.45161(10) 0.52678(6)
O34_8 O 0.73609(9) 0.46856(10) 0.52740(6)
C17_5 C 0.03087(15) 0.26996(14) 0.03492(8)
O19_5 O 0.15598(9) 0.12162(8) 0.09531(6)
O20_5 O 0.19217(9) 0.14605(9) 0.12854(6)
O21_5 O 0.10613(11) 0.04895(15) 0.08320(7)
O22_5 O 0.23068(12) 0.11976(11) 0.17895(8)
O25_3 O 0.05114(8) 0.81014(9) 0.09737(6)
O26_3 O 0.07762(9) 0.76842(8) 0.12576(6)
N11_5 N 0.2106(2) 0.28651(14) 0.10437(13)
N12_5 N 0.2445(3) 0.28469(19) 0.1157(2)
N13_5 N 0.2543(3) 0.3199(2) 0.1218(2)
N14_5 N 0.0600(3) 0.64098(15) 0.08052(13)
N15_5 N 0.0527(4) 0.6132(2) 0.0647(2)
N16_5 N 0.0722(5) 0.5839(2) 0.0712(2)
N17_5 N 0.2247(4) 0.50343(18) 0.1325(2)
N18_5 N 0.3110(3) 0.56239(15) 0.26876(13)
N19_5 N 0.3140(5) 0.5945(2) 0.25647(19)
N20_5 N 0.2983(4) 0.5921(2) 0.23412(18)
C49_5 C 0.12229(14) 0.23736(13) 0.03600(8)
C50_5 C 0.15005(14) 0.22865(14) 0.05958(9)
C51_5 C 0.15240(13) 0.19255(13) 0.07023(9)
H25_5 H 0.1387 0.1717 0.0625
C52_5 C 0.17508(13) 0.18647(13) 0.09256(9)
C53_5 C 0.19431(16) 0.21598(16) 0.10366(12)
H26_5 H 0.2087 0.2120 0.1194
C54_5 C 0.1931(2) 0.25306(16) 0.09184(13)
C55_5 C 0.16990(17) 0.25893(15) 0.06985(11)
H27_5 H 0.1679 0.2838 0.0621
C56_5 C 0.17343(13) 0.14790(12) 0.10712(9)
C57_5 C 0.2001(3) 0.3212(2) 0.10241(16)
H28_5 H 0.1779 0.3311 0.0937
C58_5 C 0.2282(3) 0.3416(2) 0.1158(2)
C59_5 C 0.2243(4) 0.3855(2) 0.1207(2)
C60_5 C 0.1924(4) 0.4050(3) 0.1184(3)
H29_5 H 0.1696 0.3923 0.1128
C61_5 C 0.1914(4) 0.4425(3) 0.1235(2)
H30_5 H 0.1672 0.4553 0.1231
C62_5 C 0.2227(4) 0.4630(2) 0.1294(2)
C63_5 C 0.2552(4) 0.4445(3) 0.1307(3)
H31_5 H 0.2780 0.4580 0.1353
C64_5 C 0.2569(4) 0.4038(3) 0.1252(3)
H32_5 H 0.2809 0.3906 0.1248
C66_5 C 0.00017(17) 0.72112(13) 0.05506(9)
C67_5 C 0.0134(2) 0.68420(17) 0.05916(12)
H33_5 H 0.0025 0.6632 0.0498
C68_5 C 0.0439(3) 0.67776(17) 0.07774(13)
C69_5 C 0.0571(2) 0.70807(15) 0.09338(12)
H34_5 H 0.0763 0.7036 0.1064
C70_5 C 0.04244(15) 0.74414(14) 0.09000(9)
C71_5 C 0.01552(14) 0.75102(14) 0.07032(9)
H35_5 H 0.0073 0.7767 0.0671
C72_5 C 0.05649(13) 0.77770(13) 0.10652(9)
C73_5 C 0.0873(4) 0.6301(2) 0.0962(2)
H36_5 H 0.1000 0.6458 0.1088
C74_5 C 0.0947(5) 0.5920(3) 0.0915(2)
C75_5 C 0.1328(4) 0.5697(2) 0.1014(2)
C76_5 C 0.1405(5) 0.5754(3) 0.1252(2)
H37_5 H 0.1269 0.5940 0.1353
C77_5 C 0.1683(5) 0.5545(4) 0.1357(3)
H38_5 H 0.1751 0.5603 0.1534
C78_5 C 0.1884(4) 0.5253(2) 0.1238(2)
C79_5 C 0.1793(5) 0.5196(4) 0.0987(3)
H39_5 H 0.1922 0.5004 0.0887
C80_5 C 0.1501(5) 0.5426(4) 0.0871(2)
H40_5 H 0.1430 0.5386 0.0693
C81_5 C 0.38415(12) 0.61337(13) 0.34473(9)
C82_5 C 0.36505(14) 0.58056(13) 0.33030(9)
C83_5 C 0.34967(19) 0.58608(15) 0.30645(11)
H41_5 H 0.3520 0.6103 0.2979
C84_5 C 0.3295(2) 0.55490(17) 0.29397(12)
C85_5 C 0.32694(17) 0.51921(15) 0.30555(11)
H42_5 H 0.3146 0.4984 0.2968
C86_5 C 0.34298(13) 0.51448(13) 0.33047(9)
C87_5 C 0.36263(12) 0.54447(13) 0.34240(8)
H43_5 H 0.3746 0.5405 0.3590
C88_5 C 0.33828(13) 0.47527(12) 0.34518(9)
C89_5 C 0.2722(4) 0.5434(2) 0.2044(2)
C90_5 C 0.2539(5) 0.5106(3) 0.2053(2)
H44_5 H 0.2515 0.4969 0.2215
C91_5 C 0.2382(5) 0.4962(3) 0.1823(3)
H45_5 H 0.2264 0.4715 0.1825
C92_5 C 0.2392(4) 0.5164(2) 0.1596(2)
C93_5 C 0.2555(6) 0.5505(3) 0.1603(2)
H46_5 H 0.2572 0.5654 0.1447
C94_5 C 0.2702(6) 0.5649(2) 0.1833(2)
H47_5 H 0.2791 0.5908 0.1839
C95_5 C 0.2957(3) 0.53902(19) 0.25264(17)
H48_5 H 0.2900 0.5127 0.2561
C96_5 C 0.2890(4) 0.5573(2) 0.23013(19)
O36_3 O 0.18986(9) 0.05114(8) 0.09737(6)
O38_3 O 0.23158(8) 0.07762(9) 0.12576(6)
H49_5 H 0.255608 0.126928 0.170659
H50_5 H 0.235117 0.0993929 0.192378
H51_5 H 0.121747 0.0399374 0.0679846
H52_5 H 0.0875923 0.0689039 0.0771646
O3_5 O 0.84402(9) 0.87838(8) 0.09531(6)
O4_5 O 0.80783(9) 0.85395(9) 0.12854(6)
O7_5 O 0.89387(11) 0.95105(15) 0.08320(7)
O8_5 O 0.76932(12) 0.88024(11) 0.17895(8)
O11_3 O 0.94886(8) 0.18986(9) 0.09737(6)
O12_3 O 0.92238(9) 0.23158(8) 0.12576(6)
N1_5 N 0.7894(2) 0.71349(14) 0.10437(13)
N2_5 N 0.7555(3) 0.71531(19) 0.1157(2)
N3_5 N 0.7457(3) 0.6801(2) 0.1218(2)
N4_5 N 0.9400(3) 0.35902(15) 0.08052(13)
N5_5 N 0.9473(4) 0.3868(2) 0.0647(2)
N6_5 N 0.9278(5) 0.4161(2) 0.0712(2)
N7_5 N 0.7753(4) 0.49657(18) 0.1325(2)
N8_5 N 0.6890(3) 0.43761(15) 0.26876(13)
N9_5 N 0.6860(5) 0.4055(2) 0.25647(19)
N10_5 N 0.7017(4) 0.4079(2) 0.23412(18)
C1_5 C 0.87771(14) 0.76264(13) 0.03600(8)
C2_5 C 0.84995(14) 0.77135(14) 0.05958(9)
C3_5 C 0.84760(13) 0.80745(13) 0.07023(9)
H1_5 H 0.8613 0.8283 0.0625
C4_5 C 0.82492(13) 0.81353(13) 0.09256(9)
C5_5 C 0.80569(16) 0.78402(16) 0.10366(12)
H2_5 H 0.7913 0.7880 0.1194
C6_5 C 0.8069(2) 0.74694(16) 0.09184(13)
C7_5 C 0.83010(17) 0.74107(15) 0.06985(11)
H3_5 H 0.8321 0.7162 0.0621
C8_5 C 0.82657(13) 0.85210(12) 0.10712(9)
C9_5 C 0.7999(3) 0.6788(2) 0.10241(16)
H4_5 H 0.8221 0.6689 0.0937
C10_5 C 0.7718(3) 0.6584(2) 0.1158(2)
C11_5 C 0.7757(4) 0.6145(2) 0.1207(2)
C12_5 C 0.8076(4) 0.5950(3) 0.1184(3)
H5_5 H 0.8304 0.6077 0.1128
C13_5 C 0.8086(4) 0.5575(3) 0.1235(2)
H6_5 H 0.8328 0.5447 0.1231
C14_5 C 0.7773(4) 0.5370(2) 0.1294(2)
C15_5 C 0.7448(4) 0.5555(3) 0.1307(3)
H7_5 H 0.7220 0.5420 0.1353
C16_5 C 0.7431(4) 0.5962(3) 0.1252(3)
H8_5 H 0.7191 0.6094 0.1248
C18_5 C 0.99983(17) 0.27888(13) 0.05506(9)
C19_5 C 0.9866(2) 0.31580(17) 0.05916(12)
H9_5 H 0.9975 0.3368 0.0498
C20_5 C 0.9561(3) 0.32224(17) 0.07774(13)
C21_5 C 0.9429(2) 0.29193(15) 0.09338(12)
H10_5 H 0.9237 0.2964 0.1064
C22_5 C 0.95756(15) 0.25586(14) 0.09000(9)
C23_5 C 0.98448(14) 0.24898(14) 0.07032(9)
H11_5 H 0.9927 0.2233 0.0671
C24_5 C 0.94351(13) 0.22230(13) 0.10652(9)
C25_5 C 0.9127(4) 0.3699(2) 0.0962(2)
H12_5 H 0.9000 0.3542 0.1088
C26_5 C 0.9053(5) 0.4080(3) 0.0915(2)
C27_5 C 0.8672(4) 0.4303(2) 0.1014(2)
C28_5 C 0.8595(5) 0.4246(3) 0.1252(2)
H13_5 H 0.8731 0.4060 0.1353
C29_5 C 0.8317(5) 0.4455(4) 0.1357(3)
H14_5 H 0.8249 0.4397 0.1534
C30_5 C 0.8116(4) 0.4747(2) 0.1238(2)
C31_5 C 0.8207(5) 0.4804(4) 0.0987(3)
H15_5 H 0.8078 0.4996 0.0887
C32_5 C 0.8499(5) 0.4574(4) 0.0871(2)
H16_5 H 0.8570 0.4614 0.0693
C33_5 C 0.61585(12) 0.38663(13) 0.34473(9)
C34_5 C 0.63495(14) 0.41944(13) 0.33030(9)
C35_5 C 0.65033(19) 0.41392(15) 0.30645(11)
H17_5 H 0.6480 0.3897 0.2979
C36_5 C 0.6705(2) 0.44510(17) 0.29397(12)
C37_5 C 0.67306(17) 0.48079(15) 0.30555(11)
H18_5 H 0.6854 0.5016 0.2968
C38_5 C 0.65702(13) 0.48552(13) 0.33047(9)
C39_5 C 0.63737(12) 0.45553(13) 0.34240(8)
H19_5 H 0.6254 0.4595 0.3590
C40_5 C 0.66172(13) 0.52473(12) 0.34518(9)
C41_5 C 0.7278(4) 0.4566(2) 0.2044(2)
C42_5 C 0.7461(5) 0.4894(3) 0.2053(2)
H20_5 H 0.7485 0.5031 0.2215
C43_5 C 0.7618(5) 0.5038(3) 0.1823(3)
H21_5 H 0.7736 0.5285 0.1825
C44_5 C 0.7608(4) 0.4836(2) 0.1596(2)
C45_5 C 0.7445(6) 0.4495(3) 0.1603(2)
H22_5 H 0.7428 0.4346 0.1447
C46_5 C 0.7298(6) 0.4351(2) 0.1833(2)
H23_5 H 0.7209 0.4092 0.1839
C47_5 C 0.7043(3) 0.46098(19) 0.25264(17)
H24_5 H 0.7100 0.4873 0.2561
C48_5 C 0.7110(4) 0.4427(2) 0.23013(19)
C65_5 C 0.96913(15) 0.73004(14) 0.03492(8)
O35_3 O 0.81014(9) 0.94886(8) 0.09737(6)
O37_3 O 0.76842(8) 0.92238(9) 0.12576(6)
H53_5 H 0.970004 0.846856 0.0159944
H55_5 H 0.878253 0.960063 0.0679846
H56_5 H 0.912408 0.931096 0.0771646
H57_5 H 0.744392 0.873072 0.170659
H58_5 H 0.764883 0.900607 0.192378
H59_5 H 0.87219 0.648435 0.0159944
H53_6 H 0.0299958 0.153144 0.0159944
H59_6 H 0.12781 0.351565 0.0159944
C17_6 C 0.73004(14) 0.03087(15) 0.03492(8)
O19_6 O 0.87838(8) 0.15598(9) 0.09531(6)
O20_6 O 0.85395(9) 0.19217(9) 0.12854(6)
O21_6 O 0.95105(15) 0.10613(11) 0.08320(7)
O22_6 O 0.88024(11) 0.23068(12) 0.17895(8)
N11_6 N 0.71349(14) 0.2106(2) 0.10437(13)
N12_6 N 0.71531(19) 0.2445(3) 0.1157(2)
N13_6 N 0.6801(2) 0.2543(3) 0.1218(2)
N14_6 N 0.35902(15) 0.0600(3) 0.08052(13)
N15_6 N 0.3868(2) 0.0527(4) 0.0647(2)
N16_6 N 0.4161(2) 0.0722(5) 0.0712(2)
N17_6 N 0.49657(18) 0.2247(4) 0.1325(2)
N18_6 N 0.43761(15) 0.3110(3) 0.26876(13)
N19_6 N 0.4055(2) 0.3140(5) 0.25647(19)
N20_6 N 0.4079(2) 0.2983(4) 0.23412(18)
C49_6 C 0.76264(13) 0.12229(14) 0.03600(8)
C50_6 C 0.77135(14) 0.15005(14) 0.05958(9)
C51_6 C 0.80745(13) 0.15240(13) 0.07023(9)
H25_6 H 0.8283 0.1387 0.0625
C52_6 C 0.81353(13) 0.17508(13) 0.09256(9)
C53_6 C 0.78402(16) 0.19431(16) 0.10366(12)
H26_6 H 0.7880 0.2087 0.1194
C54_6 C 0.74694(16) 0.1931(2) 0.09184(13)
C55_6 C 0.74107(15) 0.16990(17) 0.06985(11)
H27_6 H 0.7162 0.1679 0.0621
C56_6 C 0.85210(12) 0.17343(13) 0.10712(9)
C57_6 C 0.6788(2) 0.2001(3) 0.10241(16)
H28_6 H 0.6689 0.1779 0.0937
C58_6 C 0.6584(2) 0.2282(3) 0.1158(2)
C59_6 C 0.6145(2) 0.2243(4) 0.1207(2)
C60_6 C 0.5950(3) 0.1924(4) 0.1184(3)
H29_6 H 0.6077 0.1696 0.1128
C61_6 C 0.5575(3) 0.1914(4) 0.1235(2)
H30_6 H 0.5447 0.1672 0.1231
C62_6 C 0.5370(2) 0.2227(4) 0.1294(2)
C63_6 C 0.5555(3) 0.2552(4) 0.1307(3)
H31_6 H 0.5420 0.2780 0.1353
C64_6 C 0.5962(3) 0.2569(4) 0.1252(3)
H32_6 H 0.6094 0.2809 0.1248
C66_6 C 0.27888(13) 0.00017(17) 0.05506(9)
C67_6 C 0.31580(17) 0.0134(2) 0.05916(12)
H33_6 H 0.3368 0.0025 0.0498
C68_6 C 0.32224(17) 0.0439(3) 0.07774(13)
C69_6 C 0.29193(15) 0.0571(2) 0.09338(12)
H34_6 H 0.2964 0.0763 0.1064
C70_6 C 0.25586(14) 0.04244(15) 0.09000(9)
C71_6 C 0.24898(14) 0.01552(14) 0.07032(9)
H35_6 H 0.2233 0.0073 0.0671
C72_6 C 0.22230(13) 0.05649(13) 0.10652(9)
C73_6 C 0.3699(2) 0.0873(4) 0.0962(2)
H36_6 H 0.3542 0.1000 0.1088
C74_6 C 0.4080(3) 0.0947(5) 0.0915(2)
C75_6 C 0.4303(2) 0.1328(4) 0.1014(2)
C76_6 C 0.4246(3) 0.1405(5) 0.1252(2)
H37_6 H 0.4060 0.1269 0.1353
C77_6 C 0.4455(4) 0.1683(5) 0.1357(3)
H38_6 H 0.4397 0.1751 0.1534
C78_6 C 0.4747(2) 0.1884(4) 0.1238(2)
C79_6 C 0.4804(4) 0.1793(5) 0.0987(3)
H39_6 H 0.4996 0.1922 0.0887
C80_6 C 0.4574(4) 0.1501(5) 0.0871(2)
H40_6 H 0.4614 0.1430 0.0693
C81_6 C 0.38663(13) 0.38415(12) 0.34473(9)
C82_6 C 0.41944(13) 0.36505(14) 0.33030(9)
C83_6 C 0.41392(15) 0.34967(19) 0.30645(11)
H41_6 H 0.3897 0.3520 0.2979
C84_6 C 0.44510(17) 0.3295(2) 0.29397(12)
C85_6 C 0.48079(15) 0.32694(17) 0.30555(11)
H42_6 H 0.5016 0.3146 0.2968
C86_6 C 0.48552(13) 0.34298(13) 0.33047(9)
C87_6 C 0.45553(13) 0.36263(12) 0.34240(8)
H43_6 H 0.4595 0.3746 0.3590
C88_6 C 0.52473(12) 0.33828(13) 0.34518(9)
C89_6 C 0.4566(2) 0.2722(4) 0.2044(2)
C90_6 C 0.4894(3) 0.2539(5) 0.2053(2)
H44_6 H 0.5031 0.2515 0.2215
C91_6 C 0.5038(3) 0.2382(5) 0.1823(3)
H45_6 H 0.5285 0.2264 0.1825
C92_6 C 0.4836(2) 0.2392(4) 0.1596(2)
C93_6 C 0.4495(3) 0.2555(6) 0.1603(2)
H46_6 H 0.4346 0.2572 0.1447
C94_6 C 0.4351(2) 0.2702(6) 0.1833(2)
H47_6 H 0.4092 0.2791 0.1839
C95_6 C 0.46098(19) 0.2957(3) 0.25264(17)
H48_6 H 0.4873 0.2900 0.2561
C96_6 C 0.4427(2) 0.2890(4) 0.23013(19)
H49_6 H 0.873072 0.255608 0.170659
H50_6 H 0.900607 0.235117 0.192378
H51_6 H 0.960063 0.121747 0.0679846
H52_6 H 0.931096 0.0875923 0.0771646
O3_6 O 0.12162(8) 0.84402(9) 0.09531(6)
O4_6 O 0.14605(9) 0.80783(9) 0.12854(6)
O7_6 O 0.04895(15) 0.89387(11) 0.08320(7)
O8_6 O 0.11976(11) 0.76932(12) 0.17895(8)
N1_6 N 0.28651(14) 0.7894(2) 0.10437(13)
N2_6 N 0.28469(19) 0.7555(3) 0.1157(2)
N3_6 N 0.3199(2) 0.7457(3) 0.1218(2)
N4_6 N 0.64098(15) 0.9400(3) 0.08052(13)
N5_6 N 0.6132(2) 0.9473(4) 0.0647(2)
N6_6 N 0.5839(2) 0.9278(5) 0.0712(2)
N7_6 N 0.50343(18) 0.7753(4) 0.1325(2)
N8_6 N 0.56239(15) 0.6890(3) 0.26876(13)
N9_6 N 0.5945(2) 0.6860(5) 0.25647(19)
N10_6 N 0.5921(2) 0.7017(4) 0.23412(18)
C1_6 C 0.23736(13) 0.87771(14) 0.03600(8)
C2_6 C 0.22865(14) 0.84995(14) 0.05958(9)
C3_6 C 0.19255(13) 0.84760(13) 0.07023(9)
H1_6 H 0.1717 0.8613 0.0625
C4_6 C 0.18647(13) 0.82492(13) 0.09256(9)
C5_6 C 0.21598(16) 0.80569(16) 0.10366(12)
H2_6 H 0.2120 0.7913 0.1194
C6_6 C 0.25306(16) 0.8069(2) 0.09184(13)
C7_6 C 0.25893(15) 0.83010(17) 0.06985(11)
H3_6 H 0.2838 0.8321 0.0621
C8_6 C 0.14790(12) 0.82657(13) 0.10712(9)
C9_6 C 0.3212(2) 0.7999(3) 0.10241(16)
H4_6 H 0.3311 0.8221 0.0937
C10_6 C 0.3416(2) 0.7718(3) 0.1158(2)
C11_6 C 0.3855(2) 0.7757(4) 0.1207(2)
C12_6 C 0.4050(3) 0.8076(4) 0.1184(3)
H5_6 H 0.3923 0.8304 0.1128
C13_6 C 0.4425(3) 0.8086(4) 0.1235(2)
H6_6 H 0.4553 0.8328 0.1231
C14_6 C 0.4630(2) 0.7773(4) 0.1294(2)
C15_6 C 0.4445(3) 0.7448(4) 0.1307(3)
H7_6 H 0.4580 0.7220 0.1353
C16_6 C 0.4038(3) 0.7431(4) 0.1252(3)
H8_6 H 0.3906 0.7191 0.1248
C18_6 C 0.72112(13) 0.99983(17) 0.05506(9)
C19_6 C 0.68420(17) 0.9866(2) 0.05916(12)
H9_6 H 0.6632 0.9975 0.0498
C20_6 C 0.67776(17) 0.9561(3) 0.07774(13)
C21_6 C 0.70807(15) 0.9429(2) 0.09338(12)
H10_6 H 0.7036 0.9237 0.1064
C22_6 C 0.74414(14) 0.95756(15) 0.09000(9)
C23_6 C 0.75102(14) 0.98448(14) 0.07032(9)
H11_6 H 0.7767 0.9927 0.0671
C24_6 C 0.77770(13) 0.94351(13) 0.10652(9)
C25_6 C 0.6301(2) 0.9127(4) 0.0962(2)
H12_6 H 0.6458 0.9000 0.1088
C26_6 C 0.5920(3) 0.9053(5) 0.0915(2)
C27_6 C 0.5697(2) 0.8672(4) 0.1014(2)
C28_6 C 0.5754(3) 0.8595(5) 0.1252(2)
H13_6 H 0.5940 0.8731 0.1353
C29_6 C 0.5545(4) 0.8317(5) 0.1357(3)
H14_6 H 0.5603 0.8249 0.1534
C30_6 C 0.5253(2) 0.8116(4) 0.1238(2)
C31_6 C 0.5196(4) 0.8207(5) 0.0987(3)
H15_6 H 0.5004 0.8078 0.0887
C32_6 C 0.5426(4) 0.8499(5) 0.0871(2)
H16_6 H 0.5386 0.8570 0.0693
C33_6 C 0.61337(13) 0.61585(12) 0.34473(9)
C34_6 C 0.58056(13) 0.63495(14) 0.33030(9)
C35_6 C 0.58608(15) 0.65033(19) 0.30645(11)
H17_6 H 0.6103 0.6480 0.2979
C36_6 C 0.55490(17) 0.6705(2) 0.29397(12)
C37_6 C 0.51921(15) 0.67306(17) 0.30555(11)
H18_6 H 0.4984 0.6854 0.2968
C38_6 C 0.51448(13) 0.65702(13) 0.33047(9)
C39_6 C 0.54447(13) 0.63737(12) 0.34240(8)
H19_6 H 0.5405 0.6254 0.3590
C40_6 C 0.47527(12) 0.66172(13) 0.34518(9)
C41_6 C 0.5434(2) 0.7278(4) 0.2044(2)
C42_6 C 0.5106(3) 0.7461(5) 0.2053(2)
H20_6 H 0.4969 0.7485 0.2215
C43_6 C 0.4962(3) 0.7618(5) 0.1823(3)
H21_6 H 0.4715 0.7736 0.1825
C44_6 C 0.5164(2) 0.7608(4) 0.1596(2)
C45_6 C 0.5505(3) 0.7445(6) 0.1603(2)
H22_6 H 0.5654 0.7428 0.1447
C46_6 C 0.5649(2) 0.7298(6) 0.1833(2)
H23_6 H 0.5908 0.7209 0.1839
C47_6 C 0.53902(19) 0.7043(3) 0.25264(17)
H24_6 H 0.5127 0.7100 0.2561
C48_6 C 0.5573(2) 0.7110(4) 0.23013(19)
C65_6 C 0.26996(14) 0.96913(15) 0.03492(8)
H53_7 H 0.153144 0.970004 0.0159944
H55_6 H 0.0399374 0.878253 0.0679846
H56_6 H 0.0689039 0.912408 0.0771646
H57_6 H 0.126928 0.744392 0.170659
H58_6 H 0.0993929 0.764883 0.192378
H59_7 H 0.351565 0.87219 0.0159944
H53_8 H 0.846856 0.0299958 0.0159944
H59_8 H 0.648435 0.12781 0.0159944
O3_7 O 0.34402(9) 0.37838(8) 0.59531(6)
O4_7 O 0.30783(9) 0.35395(9) 0.62854(6)
O7_7 O 0.39387(11) 0.45105(15) 0.58320(7)
O8_7 O 0.26932(12) 0.38024(11) 0.67895(8)
N1_7 N 0.2894(2) 0.21349(14) 0.60437(13)
N2_7 N 0.2555(3) 0.21531(19) 0.6157(2)
N3_7 N 0.2457(3) 0.1801(2) 0.6218(2)
C1_7 C 0.37771(14) 0.26264(13) 0.53600(8)
C2_7 C 0.34995(14) 0.27135(14) 0.55958(9)
C3_7 C 0.34760(13) 0.30745(13) 0.57023(9)
H1_7 H 0.3613 0.3283 0.5625
C4_7 C 0.32492(13) 0.31353(13) 0.59256(9)
C5_7 C 0.30569(16) 0.28402(16) 0.60366(12)
H2_7 H 0.2913 0.2880 0.6194
C6_7 C 0.3069(2) 0.24694(16) 0.59184(13)
C7_7 C 0.33010(17) 0.24107(15) 0.56985(11)
H3_7 H 0.3321 0.2162 0.5621
C8_7 C 0.32657(13) 0.35210(12) 0.60712(9)
C9_7 C 0.2999(3) 0.1788(2) 0.60241(16)
H4_7 H 0.3221 0.1689 0.5937
C10_7 C 0.2718(3) 0.1584(2) 0.6158(2)
C11_7 C 0.2757(4) 0.1145(2) 0.6207(2)
C12_7 C 0.3076(4) 0.0950(3) 0.6184(3)
H5_7 H 0.3304 0.1077 0.6128
C13_7 C 0.3086(4) 0.0575(3) 0.6235(2)
H6_7 H 0.3328 0.0447 0.6231
C14_7 C 0.2773(4) 0.0370(2) 0.6294(2)
C15_7 C 0.2448(4) 0.0555(3) 0.6307(3)
H7_7 H 0.2220 0.0420 0.6353
C16_7 C 0.2431(4) 0.0962(3) 0.6252(3)
H8_7 H 0.2191 0.1094 0.6248
H18_7 H 0.1854 0.0016 0.7968
C40_7 C 0.16172(13) 0.02473(12) 0.84518(9)
H20_7 H 0.2485 0.0031 0.7215
C43_7 C 0.2618(5) 0.0038(3) 0.6823(3)
H21_7 H 0.2736 0.0285 0.6825
O25_4 O 0.55114(8) 0.31014(9) 0.59737(6)
O26_4 O 0.57762(9) 0.26842(8) 0.62576(6)
N14_7 N 0.5600(3) 0.14098(15) 0.58052(13)
N15_7 N 0.5527(4) 0.1132(2) 0.5647(2)
N16_7 N 0.5722(5) 0.0839(2) 0.5712(2)
N17_7 N 0.7247(4) 0.00343(18) 0.6325(2)
N18_7 N 0.8110(3) 0.06239(15) 0.76876(13)
N19_7 N 0.8140(5) 0.0945(2) 0.75647(19)
N20_7 N 0.7983(4) 0.0921(2) 0.73412(18)
C65_7 C 0.46913(15) 0.23004(14) 0.53492(8)
C66_7 C 0.50017(17) 0.22112(13) 0.55506(9)
C67_7 C 0.5134(2) 0.18420(17) 0.55916(12)
H33_7 H 0.5025 0.1632 0.5498
C68_7 C 0.5439(3) 0.17776(17) 0.57774(13)
C69_7 C 0.5571(2) 0.20807(15) 0.59338(12)
H34_7 H 0.5763 0.2036 0.6064
C70_7 C 0.54244(15) 0.24414(14) 0.59000(9)
C71_7 C 0.51552(14) 0.25102(14) 0.57032(9)
H35_7 H 0.5073 0.2767 0.5671
C72_7 C 0.55649(13) 0.27770(13) 0.60652(9)
C73_7 C 0.5873(4) 0.1301(2) 0.5962(2)
H36_7 H 0.6000 0.1458 0.6088
C74_7 C 0.5947(5) 0.0920(3) 0.5915(2)
C75_7 C 0.6328(4) 0.0697(2) 0.6014(2)
C76_7 C 0.6405(5) 0.0754(3) 0.6252(2)
H37_7 H 0.6269 0.0940 0.6353
C77_7 C 0.6683(5) 0.0545(4) 0.6357(3)
H38_7 H 0.6751 0.0603 0.6534
C78_7 C 0.6884(4) 0.0253(2) 0.6238(2)
C79_7 C 0.6793(5) 0.0196(4) 0.5987(3)
H39_7 H 0.6922 0.0004 0.5887
C80_7 C 0.6501(5) 0.0426(4) 0.5871(2)
H40_7 H 0.6430 0.0386 0.5693
C81_7 C 0.88415(12) 0.11337(13) 0.84473(9)
C82_7 C 0.86505(14) 0.08056(13) 0.83030(9)
C83_7 C 0.84967(19) 0.08608(15) 0.80645(11)
H41_7 H 0.8520 0.1103 0.7979
C84_7 C 0.8295(2) 0.05490(17) 0.79397(12)
C85_7 C 0.82694(17) 0.01921(15) 0.80555(11)
C86_7 C 0.84298(13) 0.01448(13) 0.83047(9)
C87_7 C 0.86263(12) 0.04447(13) 0.84240(8)
H43_7 H 0.8746 0.0405 0.8590
C89_7 C 0.7722(4) 0.0434(2) 0.7044(2)
C90_7 C 0.7539(5) 0.0106(3) 0.7053(2)
C92_7 C 0.7392(4) 0.0164(2) 0.6596(2)
C93_7 C 0.7555(6) 0.0505(3) 0.6603(2)
H46_7 H 0.7572 0.0654 0.6447
C94_7 C 0.7702(6) 0.0649(2) 0.6833(2)
H47_7 H 0.7791 0.0908 0.6839
C95_7 C 0.7957(3) 0.03902(19) 0.75264(17)
H48_7 H 0.7900 0.0127 0.7561
C96_7 C 0.7890(4) 0.0573(2) 0.73013(19)
O35_4 O 0.31014(9) 0.44886(8) 0.59737(6)
O37_4 O 0.26842(8) 0.42238(9) 0.62576(6)
H55_7 H 0.378253 0.460063 0.567985
H56_7 H 0.412408 0.431096 0.577165
H57_7 H 0.244392 0.373072 0.670659
H58_7 H 0.264883 0.400607 0.692378
O11_4 O 0.44886(8) 0.68986(9) 0.59737(6)
O12_4 O 0.42238(9) 0.73158(8) 0.62576(6)
N4_7 N 0.4400(3) 0.85902(15) 0.58052(13)
N5_7 N 0.4473(4) 0.8868(2) 0.5647(2)
N6_7 N 0.4278(5) 0.9161(2) 0.5712(2)
N7_7 N 0.2753(4) 0.99657(18) 0.6325(2)
N8_7 N 0.1890(3) 0.93761(15) 0.76876(13)
N9_7 N 0.1860(5) 0.9055(2) 0.75647(19)
N10_7 N 0.2017(4) 0.9079(2) 0.73412(18)
C17_7 C 0.53087(15) 0.76996(14) 0.53492(8)
C18_7 C 0.49983(17) 0.77888(13) 0.55506(9)
C19_7 C 0.4866(2) 0.81580(17) 0.55916(12)
H9_7 H 0.4975 0.8368 0.5498
C20_7 C 0.4561(3) 0.82224(17) 0.57774(13)
C21_7 C 0.4429(2) 0.79193(15) 0.59338(12)
H10_7 H 0.4237 0.7964 0.6064
C22_7 C 0.45756(15) 0.75586(14) 0.59000(9)
C23_7 C 0.48448(14) 0.74898(14) 0.57032(9)
H11_7 H 0.4927 0.7233 0.5671
C24_7 C 0.44351(13) 0.72230(13) 0.60652(9)
C25_7 C 0.4127(4) 0.8699(2) 0.5962(2)
H12_7 H 0.4000 0.8542 0.6088
C26_7 C 0.4053(5) 0.9080(3) 0.5915(2)
C27_7 C 0.3672(4) 0.9303(2) 0.6014(2)
C28_7 C 0.3595(5) 0.9246(3) 0.6252(2)
H13_7 H 0.3731 0.9060 0.6353
C29_7 C 0.3317(5) 0.9455(4) 0.6357(3)
H14_7 H 0.3249 0.9397 0.6534
C30_7 C 0.3116(4) 0.9747(2) 0.6238(2)
C31_7 C 0.3207(5) 0.9804(4) 0.5987(3)
H15_7 H 0.3078 0.9996 0.5887
C32_7 C 0.3499(5) 0.9574(4) 0.5871(2)
H16_7 H 0.3570 0.9614 0.5693
C33_7 C 0.11585(12) 0.88663(13) 0.84473(9)
C34_7 C 0.13495(14) 0.91944(13) 0.83030(9)
C35_7 C 0.15033(19) 0.91392(15) 0.80645(11)
H17_7 H 0.1480 0.8897 0.7979
C36_7 C 0.1705(2) 0.94510(17) 0.79397(12)
C37_7 C 0.17306(17) 0.98079(15) 0.80555(11)
C38_7 C 0.15702(13) 0.98552(13) 0.83047(9)
C39_7 C 0.13737(12) 0.95553(13) 0.84240(8)
H19_7 H 0.1254 0.9595 0.8590
C41_7 C 0.2278(4) 0.9566(2) 0.7044(2)
C42_7 C 0.2461(5) 0.9894(3) 0.7053(2)
C44_7 C 0.2608(4) 0.9836(2) 0.6596(2)
C45_7 C 0.2445(6) 0.9495(3) 0.6603(2)
H22_7 H 0.2428 0.9346 0.6447
C46_7 C 0.2298(6) 0.9351(2) 0.6833(2)
H23_7 H 0.2209 0.9092 0.6839
C47_7 C 0.2043(3) 0.96098(19) 0.75264(17)
H24_7 H 0.2100 0.9873 0.7561
C48_7 C 0.2110(4) 0.9427(2) 0.73013(19)
O19_7 O 0.65598(9) 0.62162(8) 0.59531(6)
O20_7 O 0.69217(9) 0.64605(9) 0.62854(6)
O21_7 O 0.60613(11) 0.54895(15) 0.58320(7)
O22_7 O 0.73068(12) 0.61976(11) 0.67895(8)
N11_7 N 0.7106(2) 0.78651(14) 0.60437(13)
N12_7 N 0.7445(3) 0.78469(19) 0.6157(2)
N13_7 N 0.7543(3) 0.8199(2) 0.6218(2)
C49_7 C 0.62229(14) 0.73736(13) 0.53600(8)
C50_7 C 0.65005(14) 0.72865(14) 0.55958(9)
C51_7 C 0.65240(13) 0.69255(13) 0.57023(9)
H25_7 H 0.6387 0.6717 0.5625
C52_7 C 0.67508(13) 0.68647(13) 0.59256(9)
C53_7 C 0.69431(16) 0.71598(16) 0.60366(12)
H26_7 H 0.7087 0.7120 0.6194
C54_7 C 0.6931(2) 0.75306(16) 0.59184(13)
C55_7 C 0.66990(17) 0.75893(15) 0.56985(11)
H27_7 H 0.6679 0.7838 0.5621
C56_7 C 0.67343(13) 0.64790(12) 0.60712(9)
C57_7 C 0.7001(3) 0.8212(2) 0.60241(16)
H28_7 H 0.6779 0.8311 0.5937
C58_7 C 0.7282(3) 0.8416(2) 0.6158(2)
C59_7 C 0.7243(4) 0.8855(2) 0.6207(2)
C60_7 C 0.6924(4) 0.9050(3) 0.6184(3)
H29_7 H 0.6696 0.8923 0.6128
C61_7 C 0.6914(4) 0.9425(3) 0.6235(2)
H30_7 H 0.6672 0.9553 0.6231
C62_7 C 0.7227(4) 0.9630(2) 0.6294(2)
C63_7 C 0.7552(4) 0.9445(3) 0.6307(3)
H31_7 H 0.7780 0.9580 0.6353
C64_7 C 0.7569(4) 0.9038(3) 0.6252(3)
H32_7 H 0.7809 0.8906 0.6248
H42_7 H 0.8146 0.9984 0.7968
C88_7 C 0.83828(13) 0.97527(12) 0.84518(9)
H44_7 H 0.7515 0.9969 0.7215
C91_7 C 0.7382(5) 0.9962(3) 0.6823(3)
H45_7 H 0.7264 0.9715 0.6825
O36_4 O 0.68986(9) 0.55114(8) 0.59737(6)
O38_4 O 0.73158(8) 0.57762(9) 0.62576(6)
H49_7 H 0.755608 0.626928 0.670659
H50_7 H 0.735117 0.599393 0.692378
H51_7 H 0.621747 0.539937 0.567985
H52_7 H 0.587592 0.568904 0.577165
N4_8 N 0.14098(15) 0.4400(3) 0.58052(13)
N5_8 N 0.1132(2) 0.4473(4) 0.5647(2)
N6_8 N 0.0839(2) 0.4278(5) 0.5712(2)
N7_8 N 0.00343(18) 0.2753(4) 0.6325(2)
N8_8 N 0.06239(15) 0.1890(3) 0.76876(13)
N9_8 N 0.0945(2) 0.1860(5) 0.75647(19)
N10_8 N 0.0921(2) 0.2017(4) 0.73412(18)
C17_8 C 0.23004(14) 0.53087(15) 0.53492(8)
C18_8 C 0.22112(13) 0.49983(17) 0.55506(9)
C19_8 C 0.18420(17) 0.4866(2) 0.55916(12)
H9_8 H 0.1632 0.4975 0.5498
C20_8 C 0.17776(17) 0.4561(3) 0.57774(13)
C21_8 C 0.20807(15) 0.4429(2) 0.59338(12)
H10_8 H 0.2036 0.4237 0.6064
C22_8 C 0.24414(14) 0.45756(15) 0.59000(9)
C23_8 C 0.25102(14) 0.48448(14) 0.57032(9)
H11_8 H 0.2767 0.4927 0.5671
C24_8 C 0.27770(13) 0.44351(13) 0.60652(9)
C25_8 C 0.1301(2) 0.4127(4) 0.5962(2)
H12_8 H 0.1458 0.4000 0.6088
C26_8 C 0.0920(3) 0.4053(5) 0.5915(2)
C27_8 C 0.0697(2) 0.3672(4) 0.6014(2)
C28_8 C 0.0754(3) 0.3595(5) 0.6252(2)
H13_8 H 0.0940 0.3731 0.6353
C29_8 C 0.0545(4) 0.3317(5) 0.6357(3)
H14_8 H 0.0603 0.3249 0.6534
C30_8 C 0.0253(2) 0.3116(4) 0.6238(2)
C31_8 C 0.0196(4) 0.3207(5) 0.5987(3)
H15_8 H 0.0004 0.3078 0.5887
C32_8 C 0.0426(4) 0.3499(5) 0.5871(2)
H16_8 H 0.0386 0.3570 0.5693
C33_8 C 0.11337(13) 0.11585(12) 0.84473(9)
C34_8 C 0.08056(13) 0.13495(14) 0.83030(9)
C35_8 C 0.08608(15) 0.15033(19) 0.80645(11)
H17_8 H 0.1103 0.1480 0.7979
C36_8 C 0.05490(17) 0.1705(2) 0.79397(12)
C37_8 C 0.01921(15) 0.17306(17) 0.80555(11)
C38_8 C 0.01448(13) 0.15702(13) 0.83047(9)
C39_8 C 0.04447(13) 0.13737(12) 0.84240(8)
H19_8 H 0.0405 0.1254 0.8590
C41_8 C 0.0434(2) 0.2278(4) 0.7044(2)
C42_8 C 0.0106(3) 0.2461(5) 0.7053(2)
C44_8 C 0.0164(2) 0.2608(4) 0.6596(2)
C45_8 C 0.0505(3) 0.2445(6) 0.6603(2)
H22_8 H 0.0654 0.2428 0.6447
C46_8 C 0.0649(2) 0.2298(6) 0.6833(2)
H23_8 H 0.0908 0.2209 0.6839
C47_8 C 0.03902(19) 0.2043(3) 0.75264(17)
H24_8 H 0.0127 0.2100 0.7561
C48_8 C 0.0573(2) 0.2110(4) 0.73013(19)
O19_8 O 0.37838(8) 0.65598(9) 0.59531(6)
O20_8 O 0.35395(9) 0.69217(9) 0.62854(6)
O21_8 O 0.45105(15) 0.60613(11) 0.58320(7)
O22_8 O 0.38024(11) 0.73068(12) 0.67895(8)
N11_8 N 0.21349(14) 0.7106(2) 0.60437(13)
N12_8 N 0.21531(19) 0.7445(3) 0.6157(2)
N13_8 N 0.1801(2) 0.7543(3) 0.6218(2)
C49_8 C 0.26264(13) 0.62229(14) 0.53600(8)
C50_8 C 0.27135(14) 0.65005(14) 0.55958(9)
C51_8 C 0.30745(13) 0.65240(13) 0.57023(9)
H25_8 H 0.3283 0.6387 0.5625
C52_8 C 0.31353(13) 0.67508(13) 0.59256(9)
C53_8 C 0.28402(16) 0.69431(16) 0.60366(12)
H26_8 H 0.2880 0.7087 0.6194
C54_8 C 0.24694(16) 0.6931(2) 0.59184(13)
C55_8 C 0.24107(15) 0.66990(17) 0.56985(11)
H27_8 H 0.2162 0.6679 0.5621
C56_8 C 0.35210(12) 0.67343(13) 0.60712(9)
C57_8 C 0.1788(2) 0.7001(3) 0.60241(16)
H28_8 H 0.1689 0.6779 0.5937
C58_8 C 0.1584(2) 0.7282(3) 0.6158(2)
C59_8 C 0.1145(2) 0.7243(4) 0.6207(2)
C60_8 C 0.0950(3) 0.6924(4) 0.6184(3)
H29_8 H 0.1077 0.6696 0.6128
C61_8 C 0.0575(3) 0.6914(4) 0.6235(2)
H30_8 H 0.0447 0.6672 0.6231
C62_8 C 0.0370(2) 0.7227(4) 0.6294(2)
C63_8 C 0.0555(3) 0.7552(4) 0.6307(3)
H31_8 H 0.0420 0.7780 0.6353
C64_8 C 0.0962(3) 0.7569(4) 0.6252(3)
H32_8 H 0.1094 0.7809 0.6248
H42_8 H 0.0016 0.8146 0.7968
C88_8 C 0.02473(12) 0.83828(13) 0.84518(9)
H44_8 H 0.0031 0.7515 0.7215
C91_8 C 0.0038(3) 0.7382(5) 0.6823(3)
H45_8 H 0.0285 0.7264 0.6825
H49_8 H 0.373072 0.755608 0.670659
H50_8 H 0.400607 0.735117 0.692378
H51_8 H 0.460063 0.621747 0.567985
H52_8 H 0.431096 0.587592 0.577165
O3_8 O 0.62162(8) 0.34402(9) 0.59531(6)
O4_8 O 0.64605(9) 0.30783(9) 0.62854(6)
O7_8 O 0.54895(15) 0.39387(11) 0.58320(7)
O8_8 O 0.61976(11) 0.26932(12) 0.67895(8)
N1_8 N 0.78651(14) 0.2894(2) 0.60437(13)
N2_8 N 0.78469(19) 0.2555(3) 0.6157(2)
N3_8 N 0.8199(2) 0.2457(3) 0.6218(2)
C1_8 C 0.73736(13) 0.37771(14) 0.53600(8)
C2_8 C 0.72865(14) 0.34995(14) 0.55958(9)
C3_8 C 0.69255(13) 0.34760(13) 0.57023(9)
H1_8 H 0.6717 0.3613 0.5625
C4_8 C 0.68647(13) 0.32492(13) 0.59256(9)
C5_8 C 0.71598(16) 0.30569(16) 0.60366(12)
H2_8 H 0.7120 0.2913 0.6194
C6_8 C 0.75306(16) 0.3069(2) 0.59184(13)
C7_8 C 0.75893(15) 0.33010(17) 0.56985(11)
H3_8 H 0.7838 0.3321 0.5621
C8_8 C 0.64790(12) 0.32657(13) 0.60712(9)
C9_8 C 0.8212(2) 0.2999(3) 0.60241(16)
H4_8 H 0.8311 0.3221 0.5937
C10_8 C 0.8416(2) 0.2718(3) 0.6158(2)
C11_8 C 0.8855(2) 0.2757(4) 0.6207(2)
C12_8 C 0.9050(3) 0.3076(4) 0.6184(3)
H5_8 H 0.8923 0.3304 0.6128
C13_8 C 0.9425(3) 0.3086(4) 0.6235(2)
H6_8 H 0.9553 0.3328 0.6231
C14_8 C 0.9630(2) 0.2773(4) 0.6294(2)
C15_8 C 0.9445(3) 0.2448(4) 0.6307(3)
H7_8 H 0.9580 0.2220 0.6353
C16_8 C 0.9038(3) 0.2431(4) 0.6252(3)
H8_8 H 0.8906 0.2191 0.6248
H18_8 H 0.9984 0.1854 0.7968
C40_8 C 0.97527(12) 0.16172(13) 0.84518(9)
H20_8 H 0.9969 0.2485 0.7215
C43_8 C 0.9962(3) 0.2618(5) 0.6823(3)
H21_8 H 0.9715 0.2736 0.6825
N14_8 N 0.85902(15) 0.5600(3) 0.58052(13)
N15_8 N 0.8868(2) 0.5527(4) 0.5647(2)
N16_8 N 0.9161(2) 0.5722(5) 0.5712(2)
N17_8 N 0.99657(18) 0.7247(4) 0.6325(2)
N18_8 N 0.93761(15) 0.8110(3) 0.76876(13)
N19_8 N 0.9055(2) 0.8140(5) 0.75647(19)
N20_8 N 0.9079(2) 0.7983(4) 0.73412(18)
C65_8 C 0.76996(14) 0.46913(15) 0.53492(8)
C66_8 C 0.77888(13) 0.50017(17) 0.55506(9)
C67_8 C 0.81580(17) 0.5134(2) 0.55916(12)
H33_8 H 0.8368 0.5025 0.5498
C68_8 C 0.82224(17) 0.5439(3) 0.57774(13)
C69_8 C 0.79193(15) 0.5571(2) 0.59338(12)
H34_8 H 0.7964 0.5763 0.6064
C70_8 C 0.75586(14) 0.54244(15) 0.59000(9)
C71_8 C 0.74898(14) 0.51552(14) 0.57032(9)
H35_8 H 0.7233 0.5073 0.5671
C72_8 C 0.72230(13) 0.55649(13) 0.60652(9)
C73_8 C 0.8699(2) 0.5873(4) 0.5962(2)
H36_8 H 0.8542 0.6000 0.6088
C74_8 C 0.9080(3) 0.5947(5) 0.5915(2)
C75_8 C 0.9303(2) 0.6328(4) 0.6014(2)
C76_8 C 0.9246(3) 0.6405(5) 0.6252(2)
H37_8 H 0.9060 0.6269 0.6353
C77_8 C 0.9455(4) 0.6683(5) 0.6357(3)
H38_8 H 0.9397 0.6751 0.6534
C78_8 C 0.9747(2) 0.6884(4) 0.6238(2)
C79_8 C 0.9804(4) 0.6793(5) 0.5987(3)
H39_8 H 0.9996 0.6922 0.5887
C80_8 C 0.9574(4) 0.6501(5) 0.5871(2)
H40_8 H 0.9614 0.6430 0.5693
C81_8 C 0.88663(13) 0.88415(12) 0.84473(9)
C82_8 C 0.91944(13) 0.86505(14) 0.83030(9)
C83_8 C 0.91392(15) 0.84967(19) 0.80645(11)
H41_8 H 0.8897 0.8520 0.7979
C84_8 C 0.94510(17) 0.8295(2) 0.79397(12)
C85_8 C 0.98079(15) 0.82694(17) 0.80555(11)
C86_8 C 0.98552(13) 0.84298(13) 0.83047(9)
C87_8 C 0.95553(13) 0.86263(12) 0.84240(8)
H43_8 H 0.9595 0.8746 0.8590
C89_8 C 0.9566(2) 0.7722(4) 0.7044(2)
C90_8 C 0.9894(3) 0.7539(5) 0.7053(2)
C92_8 C 0.9836(2) 0.7392(4) 0.6596(2)
C93_8 C 0.9495(3) 0.7555(6) 0.6603(2)
H46_8 H 0.9346 0.7572 0.6447
C94_8 C 0.9351(2) 0.7702(6) 0.6833(2)
H47_8 H 0.9092 0.7791 0.6839
C95_8 C 0.96098(19) 0.7957(3) 0.75264(17)
H48_8 H 0.9873 0.7900 0.7561
C96_8 C 0.9427(2) 0.7890(4) 0.73013(19)
H55_8 H 0.539937 0.378253 0.567985
H56_8 H 0.568904 0.412408 0.577165
H57_8 H 0.626928 0.244392 0.670659
H58_8 H 0.599393 0.264883 0.692378
loop_
_geom_bond_atom_site_label_1
_geom_bond_atom_site_label_2
_geom_bond_site_symmetry_1
_geom_bond_site_symmetry_2
Cu1 Cu2 1_555 1_555
O5 Cu1 1_555 1_555
O6 Cu2 1_555 1_555
O31 Cu1 1_555 1_555
O32 Cu2 1_555 1_555
O33 Cu1 1_555 1_555
O34 Cu2 1_555 1_555
O6 H54 1_555 1_555
O5 H60 1_555 1_555
Cu1_2 Cu2_2 1_555 1_555
Cu2_2 O2 1_555 1_555
Cu3 Cu4 1_555 1_555
Cu4 O4 1_555 1_555
O1 Cu1_2 1_555 1_555
O2 C1 1_555 1_555
O3 Cu3 1_555 1_555
O4 C8 1_555 1_555
O5_2 Cu1_2 1_555 1_555
O6_2 Cu2_2 1_555 1_555
O7 Cu3 1_555 1_555
O8 Cu4 1_555 1_555
O11 C24 1_555 1_555
O12 C24 1_555 1_555
O13 C33 1_555 1_555
O14 C33 1_555 1_555
O15 C40 1_555 1_555
O16 C40 1_555 1_555
N1 N2 1_555 1_555
N2 N3 1_555 1_555
N3 C10 1_555 1_555
N4 N5 1_555 1_555
N5 N6 1_555 1_555
N6 C26 1_555 1_555
N7 C14 1_555 1_555
N8 N9 1_555 1_555
N9 N10 1_555 1_555
N10 C48 1_555 1_555
C1 O1 1_555 1_555
C2 C1 1_555 1_555
C3 C2 1_555 1_555
H1 C3 1_555 1_555
C4 C3 1_555 1_555
C5 C4 1_555 1_555
H2 C5 1_555 1_555
C6 N1 1_555 1_555
C7 C2 1_555 1_555
H3 C7 1_555 1_555
C8 O3 1_555 1_555
C9 N1 1_555 1_555
H4 C9 1_555 1_555
C10 C9 1_555 1_555
C11 C10 1_555 1_555
C12 C11 1_555 1_555
H5 C12 1_555 1_555
C13 C12 1_555 1_555
H6 C13 1_555 1_555
C14 C13 1_555 1_555
C15 C14 1_555 1_555
H7 C15 1_555 1_555
C16 C11 1_555 1_555
H8 C16 1_555 1_555
C18 C19 1_555 1_555
C19 H9 1_555 1_555
C20 N4 1_555 1_555
C21 C20 1_555 1_555
H10 C21 1_555 1_555
C22 C21 1_555 1_555
C23 C18 1_555 1_555
H11 C23 1_555 1_555
C24 C22 1_555 1_555
C25 N4 1_555 1_555
H12 C25 1_555 1_555
C26 C25 1_555 1_555
C27 C26 1_555 1_555
C28 C27 1_555 1_555
H13 C28 1_555 1_555
C29 C28 1_555 1_555
H14 C29 1_555 1_555
C30 N7 1_555 1_555
C31 C30 1_555 1_555
H15 C31 1_555 1_555
C32 C27 1_555 1_555
H16 C32 1_555 1_555
C33 C34 1_555 1_555
C34 C35 1_555 1_555
C35 H17 1_555 1_555
C36 N8 1_555 1_555
C37 C36 1_555 1_555
H18 C37 1_555 1_555
C38 C37 1_555 1_555
C39 C34 1_555 1_555
H19 C39 1_555 1_555
C40 C38 1_555 1_555
C41 C42 1_555 1_555
C42 H20 1_555 1_555
C43 C42 1_555 1_555
H21 C43 1_555 1_555
C44 N7 1_555 1_555
C45 C44 1_555 1_555
H22 C45 1_555 1_555
C46 C41 1_555 1_555
H23 C46 1_555 1_555
C47 N8 1_555 1_555
H24 C47 1_555 1_555
C48 C41 1_555 1_555
O23 Cu1_2 1_555 1_555
O24 Cu2_2 1_555 1_555
C65 O23 1_555 1_555
Cu10 O11 1_555 1_555
Cu11 O15 1_555 1_555
Cu14 O14 1_555 1_555
Cu16 O12 1_555 1_555
Cu17 O16 1_555 1_555
Cu20 O13 1_555 1_555
O35 Cu3 1_555 1_555
O37 Cu4 1_555 1_555
O39 Cu4 1_555 1_555
O41 Cu3 1_555 1_555
O43 Cu3 1_555 1_555
O45 Cu4 1_555 1_555
C4 C8 1_555 1_555
C5 C6 1_555 1_555
C6 C7 1_555 1_555
C15 C16 1_555 1_555
C19 C20 1_555 1_555
C22 C23 1_555 1_555
C29 C30 1_555 1_555
C31 C32 1_555 1_555
C35 C36 1_555 1_555
C38 C39 1_555 1_555
C43 C44 1_555 1_555
C45 C46 1_555 1_555
C47 C48 1_555 1_555
O24 C65 1_555 1_555
Cu10 Cu16 1_555 1_555
Cu11 Cu17 1_555 1_555
Cu14 Cu20 1_555 1_555
O6_2 H53 1_555 1_555
O6_2 H54_2 1_555 1_555
O7 H55 1_555 1_555
O7 H56 1_555 1_555
O8 H57 1_555 1_555
O8 H58 1_555 1_555
O5_2 H59 1_555 1_555
O5_2 H60_2 1_555 1_555
Cu7 Cu8 1_555 1_555
O9 C17 1_555 1_555
O10 C17 1_555 1_555
Cu5 Cu6 1_555 1_555
Cu6 O20 1_555 1_555
O17 C49 1_555 1_555
O18 C49 1_555 1_555
O19 Cu5 1_555 1_555
O20 C56 1_555 1_555
O21 Cu5 1_555 1_555
O22 Cu6 1_555 1_555
O25 C72 1_555 1_555
O26 C72 1_555 1_555
O27 C81 1_555 1_555
O28 C81 1_555 1_555
O29 C88 1_555 1_555
O30 C88 1_555 1_555
N11 N12 1_555 1_555
N12 N13 1_555 1_555
N13 C58 1_555 1_555
N14 N15 1_555 1_555
N15 N16 1_555 1_555
N16 C74 1_555 1_555
N17 C62 1_555 1_555
N18 N19 1_555 1_555
N19 N20 1_555 1_555
N20 C96 1_555 1_555
C49 C50 1_555 1_555
C50 C51 1_555 1_555
C51 H25 1_555 1_555
C52 C51 1_555 1_555
C53 C52 1_555 1_555
H26 C53 1_555 1_555
C54 N11 1_555 1_555
C55 C50 1_555 1_555
H27 C55 1_555 1_555
C56 O19 1_555 1_555
C57 N11 1_555 1_555
H28 C57 1_555 1_555
C58 C57 1_555 1_555
C59 C58 1_555 1_555
C60 C59 1_555 1_555
H29 C60 1_555 1_555
C61 C60 1_555 1_555
H30 C61 1_555 1_555
C62 C61 1_555 1_555
C63 C62 1_555 1_555
H31 C63 1_555 1_555
C64 C59 1_555 1_555
H32 C64 1_555 1_555
C67 C66 1_555 1_555
H33 C67 1_555 1_555
C68 N14 1_555 1_555
C69 C68 1_555 1_555
H34 C69 1_555 1_555
C70 C69 1_555 1_555
C71 C66 1_555 1_555
H35 C71 1_555 1_555
C72 C70 1_555 1_555
C73 N14 1_555 1_555
H36 C73 1_555 1_555
C74 C73 1_555 1_555
C75 C74 1_555 1_555
C76 C75 1_555 1_555
H37 C76 1_555 1_555
C77 C76 1_555 1_555
H38 C77 1_555 1_555
C78 N17 1_555 1_555
C79 C78 1_555 1_555
H39 C79 1_555 1_555
C80 C75 1_555 1_555
H40 C80 1_555 1_555
C81 C82 1_555 1_555
C82 C83 1_555 1_555
C83 H41 1_555 1_555
C84 N18 1_555 1_555
C85 C84 1_555 1_555
H42 C85 1_555 1_555
C86 C85 1_555 1_555
C87 C82 1_555 1_555
H43 C87 1_555 1_555
C88 C86 1_555 1_555
C89 C90 1_555 1_555
C90 H44 1_555 1_555
C91 C90 1_555 1_555
H45 C91 1_555 1_555
C92 N17 1_555 1_555
C93 C92 1_555 1_555
H46 C93 1_555 1_555
C94 C89 1_555 1_555
H47 C94 1_555 1_555
C95 N18 1_555 1_555
H48 C95 1_555 1_555
C96 C89 1_555 1_555
Cu7_2 O9 1_555 1_555
Cu8_2 O10 1_555 1_555
Cu9 O25 1_555 1_555
Cu12 O29 1_555 1_555
Cu13 O28 1_555 1_555
Cu15 O26 1_555 1_555
Cu18 O30 1_555 1_555
Cu19 O27 1_555 1_555
O36 Cu5 1_555 1_555
O38 Cu6 1_555 1_555
O40 Cu6 1_555 1_555
O42 Cu5 1_555 1_555
O44 Cu5 1_555 1_555
O46 Cu6 1_555 1_555
O17 Cu7_2 1_555 1_555
O18 Cu8_2 1_555 1_555
C52 C56 1_555 1_555
C53 C54 1_555 1_555
C54 C55 1_555 1_555
C63 C64 1_555 1_555
C67 C68 1_555 1_555
C70 C71 1_555 1_555
C77 C78 1_555 1_555
C79 C80 1_555 1_555
C83 C84 1_555 1_555
C86 C87 1_555 1_555
C91 C92 1_555 1_555
C93 C94 1_555 1_555
C95 C96 1_555 1_555
Cu7_2 Cu8_2 1_555 1_555
Cu9 Cu15 1_555 1_555
Cu12 Cu18 1_555 1_555
Cu13 Cu19 1_555 1_555
O22 H49 1_555 1_555
O22 H50 1_555 1_555
O21 H51 1_555 1_555
O21 H52 1_555 1_555
O5_3 Cu7 1_555 1_555
O6_3 Cu8 1_555 1_555
O31_2 Cu7 1_555 1_555
O32_2 Cu8 1_555 1_555
O33_2 Cu7 1_555 1_555
O34_2 Cu8 1_555 1_555
O6_3 H54_3 1_555 1_555
O5_3 H60_3 1_555 1_555
O5_4 Cu7_2 1_555 1_555
O6_4 Cu8_2 1_555 1_555
O6_4 H53_2 1_555 1_555
O6_4 H54_4 1_555 1_555
O5_4 H59_2 1_555 1_555
O5_4 H60_4 1_555 1_555
Cu1_3 Cu2_3 1_555 1_555
O5_5 Cu1_3 1_555 1_555
O6_5 Cu2_3 1_555 1_555
O31_3 Cu1_3 1_555 1_555
O32_3 Cu2_3 1_555 1_555
O33_3 Cu1_3 1_555 1_555
O34_3 Cu2_3 1_555 1_555
O6_5 H54_5 1_555 1_555
O5_5 H60_5 1_555 1_555
Cu1_4 Cu2_4 1_555 1_555
Cu2_4 O2_2 1_555 1_555
Cu15 O4_2 1_555 1_555
O1_2 Cu1_4 1_555 1_555
O2_2 C1_2 1_555 1_555
O3_2 Cu9 1_555 1_555
O4_2 C8_2 1_555 1_555
O5_6 Cu1_4 1_555 1_555
O6_6 Cu2_4 1_555 1_555
O7_2 Cu9 1_555 1_555
O8_2 Cu15 1_555 1_555
O35 C24_2 1_555 1_555
O37 C24_2 1_555 1_555
O13_2 C33_2 1_555 1_555
O14_2 C33_2 1_555 1_555
O15_2 C40_2 1_555 1_555
O16_2 C40_2 1_555 1_555
N1_2 N2_2 1_555 1_555
N2_2 N3_2 1_555 1_555
N3_2 C10_2 1_555 1_555
N4_2 N5_2 1_555 1_555
N5_2 N6_2 1_555 1_555
N6_2 C26_2 1_555 1_555
N7_2 C14_2 1_555 1_555
N8_2 N9_2 1_555 1_555
N9_2 N10_2 1_555 1_555
N10_2 C48_2 1_555 1_555
C1_2 O1_2 1_555 1_555
C2_2 C1_2 1_555 1_555
C3_2 C2_2 1_555 1_555
H1_2 C3_2 1_555 1_555
C4_2 C3_2 1_555 1_555
C5_2 C4_2 1_555 1_555
H2_2 C5_2 1_555 1_555
C6_2 N1_2 1_555 1_555
C7_2 C2_2 1_555 1_555
H3_2 C7_2 1_555 1_555
C8_2 O3_2 1_555 1_555
C9_2 N1_2 1_555 1_555
H4_2 C9_2 1_555 1_555
C10_2 C9_2 1_555 1_555
C11_2 C10_2 1_555 1_555
C12_2 C11_2 1_555 1_555
H5_2 C12_2 1_555 1_555
C13_2 C12_2 1_555 1_555
H6_2 C13_2 1_555 1_555
C14_2 C13_2 1_555 1_555
C15_2 C14_2 1_555 1_555
H7_2 C15_2 1_555 1_555
C16_2 C11_2 1_555 1_555
H8_2 C16_2 1_555 1_555
C18_2 C19_2 1_555 1_555
C19_2 H9_2 1_555 1_555
C20_2 N4_2 1_555 1_555
C21_2 C20_2 1_555 1_555
H10_2 C21_2 1_555 1_555
C22_2 C21_2 1_555 1_555
C23_2 C18_2 1_555 1_555
H11_2 C23_2 1_555 1_555
C24_2 C22_2 1_555 1_555
C25_2 N4_2 1_555 1_555
H12_2 C25_2 1_555 1_555
C26_2 C25_2 1_555 1_555
C27_2 C26_2 1_555 1_555
C28_2 C27_2 1_555 1_555
H13_2 C28_2 1_555 1_555
C29_2 C28_2 1_555 1_555
H14_2 C29_2 1_555 1_555
C30_2 N7_2 1_555 1_555
C31_2 C30_2 1_555 1_555
H15_2 C31_2 1_555 1_555
C32_2 C27_2 1_555 1_555
H16_2 C32_2 1_555 1_555
C33_2 C34_2 1_555 1_555
C34_2 C35_2 1_555 1_555
C35_2 H17_2 1_555 1_555
C36_2 N8_2 1_555 1_555
C37_2 C36_2 1_555 1_555
H18_2 C37_2 1_555 1_555
C38_2 C37_2 1_555 1_555
C39_2 C34_2 1_555 1_555
H19_2 C39_2 1_555 1_555
C40_2 C38_2 1_555 1_555
C41_2 C42_2 1_555 1_555
C42_2 H20_2 1_555 1_555
C43_2 C42_2 1_555 1_555
H21_2 C43_2 1_555 1_555
C44_2 N7_2 1_555 1_555
C45_2 C44_2 1_555 1_555
H22_2 C45_2 1_555 1_555
C46_2 C41_2 1_555 1_555
H23_2 C46_2 1_555 1_555
C47_2 N8_2 1_555 1_555
H24_2 C47_2 1_555 1_555
C48_2 C41_2 1_555 1_555
O23_2 Cu1_4 1_555 1_555
O24_2 Cu2_4 1_555 1_555
C65_2 O23_2 1_555 1_555
Cu13 O15_2 1_555 1_555
Cu11 O14_2 1_555 1_555
Cu19 O16_2 1_555 1_555
Cu17 O13_2 1_555 1_555
O39_2 Cu15 1_555 1_555
O41_2 Cu9 1_555 1_555
O43_2 Cu9 1_555 1_555
O45_2 Cu15 1_555 1_555
C4_2 C8_2 1_555 1_555
C5_2 C6_2 1_555 1_555
C6_2 C7_2 1_555 1_555
C15_2 C16_2 1_555 1_555
C19_2 C20_2 1_555 1_555
C22_2 C23_2 1_555 1_555
C29_2 C30_2 1_555 1_555
C31_2 C32_2 1_555 1_555
C35_2 C36_2 1_555 1_555
C38_2 C39_2 1_555 1_555
C43_2 C44_2 1_555 1_555
C45_2 C46_2 1_555 1_555
C47_2 C48_2 1_555 1_555
O24_2 C65_2 1_555 1_555
O6_6 H53_3 1_555 1_555
O6_6 H54_6 1_555 1_555
O7_2 H55_2 1_555 1_555
O7_2 H56_2 1_555 1_555
O8_2 H57_2 1_555 1_555
O8_2 H58_2 1_555 1_555
O5_6 H59_3 1_555 1_555
O5_6 H60_6 1_555 1_555
Cu7_3 Cu8_3 1_555 1_555
O9_2 C17_2 1_555 1_555
O10_2 C17_2 1_555 1_555
Cu16 O20_2 1_555 1_555
O17_2 C49_2 1_555 1_555
O18_2 C49_2 1_555 1_555
O19_2 Cu10 1_555 1_555
O20_2 C56_2 1_555 1_555
O21_2 Cu10 1_555 1_555
O22_2 Cu16 1_555 1_555
O36 C72_2 1_555 1_555
O38 C72_2 1_555 1_555
O27_2 C81_2 1_555 1_555
O28_2 C81_2 1_555 1_555
O29_2 C88_2 1_555 1_555
O30_2 C88_2 1_555 1_555
N11_2 N12_2 1_555 1_555
N12_2 N13_2 1_555 1_555
N13_2 C58_2 1_555 1_555
N14_2 N15_2 1_555 1_555
N15_2 N16_2 1_555 1_555
N16_2 C74_2 1_555 1_555
N17_2 C62_2 1_555 1_555
N18_2 N19_2 1_555 1_555
N19_2 N20_2 1_555 1_555
N20_2 C96_2 1_555 1_555
C49_2 C50_2 1_555 1_555
C50_2 C51_2 1_555 1_555
C51_2 H25_2 1_555 1_555
C52_2 C51_2 1_555 1_555
C53_2 C52_2 1_555 1_555
H26_2 C53_2 1_555 1_555
C54_2 N11_2 1_555 1_555
C55_2 C50_2 1_555 1_555
H27_2 C55_2 1_555 1_555
C56_2 O19_2 1_555 1_555
C57_2 N11_2 1_555 1_555
H28_2 C57_2 1_555 1_555
C58_2 C57_2 1_555 1_555
C59_2 C58_2 1_555 1_555
C60_2 C59_2 1_555 1_555
H29_2 C60_2 1_555 1_555
C61_2 C60_2 1_555 1_555
H30_2 C61_2 1_555 1_555
C62_2 C61_2 1_555 1_555
C63_2 C62_2 1_555 1_555
H31_2 C63_2 1_555 1_555
C64_2 C59_2 1_555 1_555
H32_2 C64_2 1_555 1_555
C67_2 C66_2 1_555 1_555
H33_2 C67_2 1_555 1_555
C68_2 N14_2 1_555 1_555
C69_2 C68_2 1_555 1_555
H34_2 C69_2 1_555 1_555
C70_2 C69_2 1_555 1_555
C71_2 C66_2 1_555 1_555
H35_2 C71_2 1_555 1_555
C72_2 C70_2 1_555 1_555
C73_2 N14_2 1_555 1_555
H36_2 C73_2 1_555 1_555
C74_2 C73_2 1_555 1_555
C75_2 C74_2 1_555 1_555
C76_2 C75_2 1_555 1_555
H37_2 C76_2 1_555 1_555
C77_2 C76_2 1_555 1_555
H38_2 C77_2 1_555 1_555
C78_2 N17_2 1_555 1_555
C79_2 C78_2 1_555 1_555
H39_2 C79_2 1_555 1_555
C80_2 C75_2 1_555 1_555
H40_2 C80_2 1_555 1_555
C81_2 C82_2 1_555 1_555
C82_2 C83_2 1_555 1_555
C83_2 H41_2 1_555 1_555
C84_2 N18_2 1_555 1_555
C85_2 C84_2 1_555 1_555
H42_2 C85_2 1_555 1_555
C86_2 C85_2 1_555 1_555
C87_2 C82_2 1_555 1_555
H43_2 C87_2 1_555 1_555
C88_2 C86_2 1_555 1_555
C89_2 C90_2 1_555 1_555
C90_2 H44_2 1_555 1_555
C91_2 C90_2 1_555 1_555
H45_2 C91_2 1_555 1_555
C92_2 N17_2 1_555 1_555
C93_2 C92_2 1_555 1_555
H46_2 C93_2 1_555 1_555
C94_2 C89_2 1_555 1_555
H47_2 C94_2 1_555 1_555
C95_2 N18_2 1_555 1_555
H48_2 C95_2 1_555 1_555
C96_2 C89_2 1_555 1_555
Cu7_4 O9_2 1_555 1_555
Cu8_4 O10_2 1_555 1_555
Cu14 O29_2 1_555 1_555
Cu12 O28_2 1_555 1_555
Cu20 O30_2 1_555 1_555
Cu18 O27_2 1_555 1_555
O40_2 Cu16 1_555 1_555
O42_2 Cu10 1_555 1_555
O44_2 Cu10 1_555 1_555
O46_2 Cu16 1_555 1_555
O17_2 Cu7_4 1_555 1_555
O18_2 Cu8_4 1_555 1_555
C52_2 C56_2 1_555 1_555
C53_2 C54_2 1_555 1_555
C54_2 C55_2 1_555 1_555
C63_2 C64_2 1_555 1_555
C67_2 C68_2 1_555 1_555
C70_2 C71_2 1_555 1_555
C77_2 C78_2 1_555 1_555
C79_2 C80_2 1_555 1_555
C83_2 C84_2 1_555 1_555
C86_2 C87_2 1_555 1_555
C91_2 C92_2 1_555 1_555
C93_2 C94_2 1_555 1_555
C95_2 C96_2 1_555 1_555
Cu7_4 Cu8_4 1_555 1_555
O22_2 H49_2 1_555 1_555
O22_2 H50_2 1_555 1_555
O21_2 H51_2 1_555 1_555
O21_2 H52_2 1_555 1_555
O5_7 Cu7_3 1_555 1_555
O6_7 Cu8_3 1_555 1_555
O31_4 Cu7_3 1_555 1_555
O32_4 Cu8_3 1_555 1_555
O33_4 Cu7_3 1_555 1_555
O34_4 Cu8_3 1_555 1_555
O6_7 H54_7 1_555 1_555
O5_7 H60_7 1_555 1_555
O5_8 Cu7_4 1_555 1_555
O6_8 Cu8_4 1_555 1_555
O6_8 H53_4 1_555 1_555
O6_8 H54_8 1_555 1_555
O5_8 H59_4 1_555 1_555
O5_8 H60_8 1_555 1_555
O9_3 C17_3 1_555 1_555
O10_3 C17_3 1_555 1_555
O11_2 C24_3 1_555 1_555
O12_2 C24_3 1_555 1_555
O13_3 C33_3 1_555 1_555
O14_3 C33_3 1_555 1_555
N4_3 N5_3 1_555 1_555
N5_3 N6_3 1_555 1_555
N6_3 C26_3 1_555 1_555
N8_3 N9_3 1_555 1_555
N9_3 N10_3 1_555 1_555
N10_3 C48_3 1_555 1_555
C17_3 C18_3 1_555 1_555
C18_3 C19_3 1_555 1_555
C19_3 H9_3 1_555 1_555
C20_3 N4_3 1_555 1_555
C21_3 C20_3 1_555 1_555
H10_3 C21_3 1_555 1_555
C22_3 C21_3 1_555 1_555
C23_3 C18_3 1_555 1_555
H11_3 C23_3 1_555 1_555
C24_3 C22_3 1_555 1_555
C25_3 N4_3 1_555 1_555
H12_3 C25_3 1_555 1_555
C26_3 C25_3 1_555 1_555
C27_3 C26_3 1_555 1_555
C28_3 C27_3 1_555 1_555
H13_3 C28_3 1_555 1_555
C29_3 C28_3 1_555 1_555
H14_3 C29_3 1_555 1_555
C30_3 N7_3 1_555 1_555
C31_3 C30_3 1_555 1_555
H15_3 C31_3 1_555 1_555
C32_3 C27_3 1_555 1_555
H16_3 C32_3 1_555 1_555
C33_3 C34_3 1_555 1_555
C34_3 C35_3 1_555 1_555
C35_3 H17_3 1_555 1_555
C36_3 N8_3 1_555 1_555
C37_3 C36_3 1_555 1_555
C38_3 C37_3 1_555 1_555
C39_3 C34_3 1_555 1_555
H19_3 C39_3 1_555 1_555
C41_3 C42_3 1_555 1_555
C44_3 N7_3 1_555 1_555
C45_3 C44_3 1_555 1_555
H22_3 C45_3 1_555 1_555
C46_3 C41_3 1_555 1_555
H23_3 C46_3 1_555 1_555
C47_3 N8_3 1_555 1_555
H24_3 C47_3 1_555 1_555
C48_3 C41_3 1_555 1_555
Cu5_2 Cu6_2 1_555 1_555
Cu6_2 O20_3 1_555 1_555
O17_3 C49_3 1_555 1_555
O18_3 C49_3 1_555 1_555
O19_3 Cu5_2 1_555 1_555
O20_3 C56_3 1_555 1_555
O21_3 Cu5_2 1_555 1_555
O22_3 Cu6_2 1_555 1_555
O29_3 C88_3 1_555 1_555
O30_3 C88_3 1_555 1_555
N11_3 N12_3 1_555 1_555
N12_3 N13_3 1_555 1_555
N13_3 C58_3 1_555 1_555
C49_3 C50_3 1_555 1_555
C50_3 C51_3 1_555 1_555
C51_3 H25_3 1_555 1_555
C52_3 C51_3 1_555 1_555
C53_3 C52_3 1_555 1_555
H26_3 C53_3 1_555 1_555
C54_3 N11_3 1_555 1_555
C55_3 C50_3 1_555 1_555
H27_3 C55_3 1_555 1_555
C56_3 O19_3 1_555 1_555
C57_3 N11_3 1_555 1_555
H28_3 C57_3 1_555 1_555
C58_3 C57_3 1_555 1_555
C59_3 C58_3 1_555 1_555
C60_3 C59_3 1_555 1_555
H29_3 C60_3 1_555 1_555
C61_3 C60_3 1_555 1_555
H30_3 C61_3 1_555 1_555
C62_3 C61_3 1_555 1_555
C63_3 C62_3 1_555 1_555
H31_3 C63_3 1_555 1_555
C64_3 C59_3 1_555 1_555
H32_3 C64_3 1_555 1_555
H45_3 C91_3 1_555 1_555
Cu7_5 O9_3 1_555 1_555
Cu8_5 O10_3 1_555 1_555
Cu10_2 O11_2 1_555 1_555
Cu12_2 O29_3 1_555 1_555
Cu14_2 O14_3 1_555 1_555
Cu16_2 O12_2 1_555 1_555
Cu18_2 O30_3 1_555 1_555
Cu20_2 O13_3 1_555 1_555
O36_2 Cu5_2 1_555 1_555
O38_2 Cu6_2 1_555 1_555
O40_3 Cu6_2 1_555 1_555
O42_3 Cu5_2 1_555 1_555
O44_3 Cu5_2 1_555 1_555
O46_3 Cu6_2 1_555 1_555
C19_3 C20_3 1_555 1_555
C22_3 C23_3 1_555 1_555
C29_3 C30_3 1_555 1_555
C31_3 C32_3 1_555 1_555
C35_3 C36_3 1_555 1_555
C38_3 C39_3 1_555 1_555
C45_3 C46_3 1_555 1_555
C47_3 C48_3 1_555 1_555
O17_3 Cu7_5 1_555 1_555
O18_3 Cu8_5 1_555 1_555
C52_3 C56_3 1_555 1_555
C53_3 C54_3 1_555 1_555
C54_3 C55_3 1_555 1_555
C63_3 C64_3 1_555 1_555
Cu7_5 Cu8_5 1_555 1_555
Cu10_2 Cu16_2 1_555 1_555
Cu12_2 Cu18_2 1_555 1_555
Cu14_2 Cu20_2 1_555 1_555
O22_3 H49_3 1_555 1_555
O22_3 H50_3 1_555 1_555
O21_3 H51_3 1_555 1_555
O21_3 H52_3 1_555 1_555
Cu1_5 Cu2_5 1_555 1_555
Cu2_5 O2_3 1_555 1_555
Cu3_2 Cu4_2 1_555 1_555
Cu4_2 O4_3 1_555 1_555
O1_3 Cu1_5 1_555 1_555
O2_3 C1_3 1_555 1_555
O3_3 Cu3_2 1_555 1_555
O4_3 C8_3 1_555 1_555
O5_9 Cu1_5 1_555 1_555
O6_9 Cu2_5 1_555 1_555
O7_3 Cu3_2 1_555 1_555
O8_3 Cu4_2 1_555 1_555
O15_3 C40_3 1_555 1_555
O16_3 C40_3 1_555 1_555
N1_3 N2_3 1_555 1_555
N2_3 N3_3 1_555 1_555
N3_3 C10_3 1_555 1_555
C1_3 O1_3 1_555 1_555
C2_3 C1_3 1_555 1_555
C3_3 C2_3 1_555 1_555
H1_3 C3_3 1_555 1_555
C4_3 C3_3 1_555 1_555
C5_3 C4_3 1_555 1_555
H2_3 C5_3 1_555 1_555
C6_3 N1_3 1_555 1_555
C7_3 C2_3 1_555 1_555
H3_3 C7_3 1_555 1_555
C8_3 O3_3 1_555 1_555
C9_3 N1_3 1_555 1_555
H4_3 C9_3 1_555 1_555
C10_3 C9_3 1_555 1_555
C11_3 C10_3 1_555 1_555
C12_3 C11_3 1_555 1_555
H5_3 C12_3 1_555 1_555
C13_3 C12_3 1_555 1_555
H6_3 C13_3 1_555 1_555
C14_3 C13_3 1_555 1_555
C15_3 C14_3 1_555 1_555
H7_3 C15_3 1_555 1_555
C16_3 C11_3 1_555 1_555
H8_3 C16_3 1_555 1_555
H21_3 C43_3 1_555 1_555
O23_3 Cu1_5 1_555 1_555
O24_3 Cu2_5 1_555 1_555
O25_2 C72_3 1_555 1_555
O26_2 C72_3 1_555 1_555
O27_3 C81_3 1_555 1_555
O28_3 C81_3 1_555 1_555
N14_3 N15_3 1_555 1_555
N15_3 N16_3 1_555 1_555
N16_3 C74_3 1_555 1_555
N18_3 N19_3 1_555 1_555
N19_3 N20_3 1_555 1_555
N20_3 C96_3 1_555 1_555
C65_3 O23_3 1_555 1_555
C66_3 C65_3 1_555 1_555
C67_3 C66_3 1_555 1_555
H33_3 C67_3 1_555 1_555
C68_3 N14_3 1_555 1_555
C69_3 C68_3 1_555 1_555
H34_3 C69_3 1_555 1_555
C70_3 C69_3 1_555 1_555
C71_3 C66_3 1_555 1_555
H35_3 C71_3 1_555 1_555
C72_3 C70_3 1_555 1_555
C73_3 N14_3 1_555 1_555
H36_3 C73_3 1_555 1_555
C74_3 C73_3 1_555 1_555
C75_3 C74_3 1_555 1_555
C76_3 C75_3 1_555 1_555
H37_3 C76_3 1_555 1_555
C77_3 C76_3 1_555 1_555
H38_3 C77_3 1_555 1_555
C78_3 N17_3 1_555 1_555
C79_3 C78_3 1_555 1_555
H39_3 C79_3 1_555 1_555
C80_3 C75_3 1_555 1_555
H40_3 C80_3 1_555 1_555
C81_3 C82_3 1_555 1_555
C82_3 C83_3 1_555 1_555
C83_3 H41_3 1_555 1_555
C84_3 N18_3 1_555 1_555
C85_3 C84_3 1_555 1_555
C86_3 C85_3 1_555 1_555
C87_3 C82_3 1_555 1_555
H43_3 C87_3 1_555 1_555
C89_3 C90_3 1_555 1_555
C92_3 N17_3 1_555 1_555
C93_3 C92_3 1_555 1_555
H46_3 C93_3 1_555 1_555
C94_3 C89_3 1_555 1_555
H47_3 C94_3 1_555 1_555
C95_3 N18_3 1_555 1_555
H48_3 C95_3 1_555 1_555
C96_3 C89_3 1_555 1_555
Cu9_2 O25_2 1_555 1_555
Cu11_2 O15_3 1_555 1_555
Cu13_2 O28_3 1_555 1_555
Cu15_2 O26_2 1_555 1_555
Cu17_2 O16_3 1_555 1_555
Cu19_2 O27_3 1_555 1_555
O31_5 Cu1_5 1_555 1_555
O32_5 Cu2_5 1_555 1_555
O33_5 Cu1_5 1_555 1_555
O34_5 Cu2_5 1_555 1_555
O35_2 Cu3_2 1_555 1_555
O37_2 Cu4_2 1_555 1_555
O39_3 Cu4_2 1_555 1_555
O41_3 Cu3_2 1_555 1_555
O43_3 Cu3_2 1_555 1_555
O45_3 Cu4_2 1_555 1_555
C4_3 C8_3 1_555 1_555
C5_3 C6_3 1_555 1_555
C6_3 C7_3 1_555 1_555
C15_3 C16_3 1_555 1_555
O24_3 C65_3 1_555 1_555
C67_3 C68_3 1_555 1_555
C70_3 C71_3 1_555 1_555
C77_3 C78_3 1_555 1_555
C79_3 C80_3 1_555 1_555
C83_3 C84_3 1_555 1_555
C86_3 C87_3 1_555 1_555
C93_3 C94_3 1_555 1_555
C95_3 C96_3 1_555 1_555
Cu9_2 Cu15_2 1_555 1_555
Cu11_2 Cu17_2 1_555 1_555
Cu13_2 Cu19_2 1_555 1_555
O7_3 H55_3 1_555 1_555
O7_3 H56_3 1_555 1_555
O8_3 H57_3 1_555 1_555
O8_3 H58_3 1_555 1_555
O5_10 Cu7_5 1_555 1_555
O6_10 Cu8_5 1_555 1_555
O31_6 Cu7_5 1_555 1_555
O32_6 Cu8_5 1_555 1_555
O33_6 Cu7_5 1_555 1_555
O34_6 Cu8_5 1_555 1_555
Cu1_6 Cu2_6 1_555 1_555
Cu2_6 O2_4 1_555 1_555
Cu15_2 O4_4 1_555 1_555
O1_4 Cu1_6 1_555 1_555
O2_4 C1_4 1_555 1_555
O3_4 Cu9_2 1_555 1_555
O4_4 C8_4 1_555 1_555
O5_11 Cu1_6 1_555 1_555
O6_11 Cu2_6 1_555 1_555
O7_4 Cu9_2 1_555 1_555
O8_4 Cu15_2 1_555 1_555
O15_4 C40_4 1_555 1_555
O16_4 C40_4 1_555 1_555
N1_4 N2_4 1_555 1_555
N2_4 N3_4 1_555 1_555
N3_4 C10_4 1_555 1_555
C1_4 O1_4 1_555 1_555
C2_4 C1_4 1_555 1_555
C3_4 C2_4 1_555 1_555
H1_4 C3_4 1_555 1_555
C4_4 C3_4 1_555 1_555
C5_4 C4_4 1_555 1_555
H2_4 C5_4 1_555 1_555
C6_4 N1_4 1_555 1_555
C7_4 C2_4 1_555 1_555
H3_4 C7_4 1_555 1_555
C8_4 O3_4 1_555 1_555
C9_4 N1_4 1_555 1_555
H4_4 C9_4 1_555 1_555
C10_4 C9_4 1_555 1_555
C11_4 C10_4 1_555 1_555
C12_4 C11_4 1_555 1_555
H5_4 C12_4 1_555 1_555
C13_4 C12_4 1_555 1_555
H6_4 C13_4 1_555 1_555
C14_4 C13_4 1_555 1_555
C15_4 C14_4 1_555 1_555
H7_4 C15_4 1_555 1_555
C16_4 C11_4 1_555 1_555
H8_4 C16_4 1_555 1_555
H21_4 C43_4 1_555 1_555
O23_4 Cu1_6 1_555 1_555
O24_4 Cu2_6 1_555 1_555
O36_2 C72_4 1_555 1_555
O38_2 C72_4 1_555 1_555
O27_4 C81_4 1_555 1_555
O28_4 C81_4 1_555 1_555
N14_4 N15_4 1_555 1_555
N15_4 N16_4 1_555 1_555
N16_4 C74_4 1_555 1_555
N18_4 N19_4 1_555 1_555
N19_4 N20_4 1_555 1_555
N20_4 C96_4 1_555 1_555
C65_4 O23_4 1_555 1_555
C66_4 C65_4 1_555 1_555
C67_4 C66_4 1_555 1_555
H33_4 C67_4 1_555 1_555
C68_4 N14_4 1_555 1_555
C69_4 C68_4 1_555 1_555
H34_4 C69_4 1_555 1_555
C70_4 C69_4 1_555 1_555
C71_4 C66_4 1_555 1_555
H35_4 C71_4 1_555 1_555
C72_4 C70_4 1_555 1_555
C73_4 N14_4 1_555 1_555
H36_4 C73_4 1_555 1_555
C74_4 C73_4 1_555 1_555
C75_4 C74_4 1_555 1_555
C76_4 C75_4 1_555 1_555
H37_4 C76_4 1_555 1_555
C77_4 C76_4 1_555 1_555
H38_4 C77_4 1_555 1_555
C78_4 N17_4 1_555 1_555
C79_4 C78_4 1_555 1_555
H39_4 C79_4 1_555 1_555
C80_4 C75_4 1_555 1_555
H40_4 C80_4 1_555 1_555
C81_4 C82_4 1_555 1_555
C82_4 C83_4 1_555 1_555
C83_4 H41_4 1_555 1_555
C84_4 N18_4 1_555 1_555
C85_4 C84_4 1_555 1_555
C86_4 C85_4 1_555 1_555
C87_4 C82_4 1_555 1_555
H43_4 C87_4 1_555 1_555
C89_4 C90_4 1_555 1_555
C92_4 N17_4 1_555 1_555
C93_4 C92_4 1_555 1_555
H46_4 C93_4 1_555 1_555
C94_4 C89_4 1_555 1_555
H47_4 C94_4 1_555 1_555
C95_4 N18_4 1_555 1_555
H48_4 C95_4 1_555 1_555
C96_4 C89_4 1_555 1_555
Cu13_2 O15_4 1_555 1_555
Cu12_2 O28_4 1_555 1_555
Cu19_2 O16_4 1_555 1_555
Cu18_2 O27_4 1_555 1_555
O31_7 Cu1_6 1_555 1_555
O32_7 Cu2_6 1_555 1_555
O33_7 Cu1_6 1_555 1_555
O34_7 Cu2_6 1_555 1_555
O39_4 Cu15_2 1_555 1_555
O41_4 Cu9_2 1_555 1_555
O43_4 Cu9_2 1_555 1_555
O45_4 Cu15_2 1_555 1_555
C4_4 C8_4 1_555 1_555
C5_4 C6_4 1_555 1_555
C6_4 C7_4 1_555 1_555
C15_4 C16_4 1_555 1_555
O24_4 C65_4 1_555 1_555
C67_4 C68_4 1_555 1_555
C70_4 C71_4 1_555 1_555
C77_4 C78_4 1_555 1_555
C79_4 C80_4 1_555 1_555
C83_4 C84_4 1_555 1_555
C86_4 C87_4 1_555 1_555
C93_4 C94_4 1_555 1_555
C95_4 C96_4 1_555 1_555
O7_4 H55_4 1_555 1_555
O7_4 H56_4 1_555 1_555
O8_4 H57_4 1_555 1_555
O8_4 H58_4 1_555 1_555
O9_4 C17_4 1_555 1_555
O10_4 C17_4 1_555 1_555
O35_2 C24_4 1_555 1_555
O37_2 C24_4 1_555 1_555
O13_4 C33_4 1_555 1_555
O14_4 C33_4 1_555 1_555
N4_4 N5_4 1_555 1_555
N5_4 N6_4 1_555 1_555
N6_4 C26_4 1_555 1_555
N8_4 N9_4 1_555 1_555
N9_4 N10_4 1_555 1_555
N10_4 C48_4 1_555 1_555
C17_4 C18_4 1_555 1_555
C18_4 C19_4 1_555 1_555
C19_4 H9_4 1_555 1_555
C20_4 N4_4 1_555 1_555
C21_4 C20_4 1_555 1_555
H10_4 C21_4 1_555 1_555
C22_4 C21_4 1_555 1_555
C23_4 C18_4 1_555 1_555
H11_4 C23_4 1_555 1_555
C24_4 C22_4 1_555 1_555
C25_4 N4_4 1_555 1_555
H12_4 C25_4 1_555 1_555
C26_4 C25_4 1_555 1_555
C27_4 C26_4 1_555 1_555
C28_4 C27_4 1_555 1_555
H13_4 C28_4 1_555 1_555
C29_4 C28_4 1_555 1_555
H14_4 C29_4 1_555 1_555
C30_4 N7_4 1_555 1_555
C31_4 C30_4 1_555 1_555
H15_4 C31_4 1_555 1_555
C32_4 C27_4 1_555 1_555
H16_4 C32_4 1_555 1_555
C33_4 C34_4 1_555 1_555
C34_4 C35_4 1_555 1_555
C35_4 H17_4 1_555 1_555
C36_4 N8_4 1_555 1_555
C37_4 C36_4 1_555 1_555
C38_4 C37_4 1_555 1_555
C39_4 C34_4 1_555 1_555
H19_4 C39_4 1_555 1_555
C41_4 C42_4 1_555 1_555
C44_4 N7_4 1_555 1_555
C45_4 C44_4 1_555 1_555
H22_4 C45_4 1_555 1_555
C46_4 C41_4 1_555 1_555
H23_4 C46_4 1_555 1_555
C47_4 N8_4 1_555 1_555
H24_4 C47_4 1_555 1_555
C48_4 C41_4 1_555 1_555
Cu16_2 O20_4 1_555 1_555
O17_4 C49_4 1_555 1_555
O18_4 C49_4 1_555 1_555
O19_4 Cu10_2 1_555 1_555
O20_4 C56_4 1_555 1_555
O21_4 Cu10_2 1_555 1_555
O22_4 Cu16_2 1_555 1_555
O29_4 C88_4 1_555 1_555
O30_4 C88_4 1_555 1_555
N11_4 N12_4 1_555 1_555
N12_4 N13_4 1_555 1_555
N13_4 C58_4 1_555 1_555
C49_4 C50_4 1_555 1_555
C50_4 C51_4 1_555 1_555
C51_4 H25_4 1_555 1_555
C52_4 C51_4 1_555 1_555
C53_4 C52_4 1_555 1_555
H26_4 C53_4 1_555 1_555
C54_4 N11_4 1_555 1_555
C55_4 C50_4 1_555 1_555
H27_4 C55_4 1_555 1_555
C56_4 O19_4 1_555 1_555
C57_4 N11_4 1_555 1_555
H28_4 C57_4 1_555 1_555
C58_4 C57_4 1_555 1_555
C59_4 C58_4 1_555 1_555
C60_4 C59_4 1_555 1_555
H29_4 C60_4 1_555 1_555
C61_4 C60_4 1_555 1_555
H30_4 C61_4 1_555 1_555
C62_4 C61_4 1_555 1_555
C63_4 C62_4 1_555 1_555
H31_4 C63_4 1_555 1_555
C64_4 C59_4 1_555 1_555
H32_4 C64_4 1_555 1_555
H45_4 C91_4 1_555 1_555
Cu7_6 O9_4 1_555 1_555
Cu8_6 O10_4 1_555 1_555
Cu14_2 O29_4 1_555 1_555
Cu11_2 O14_4 1_555 1_555
Cu20_2 O30_4 1_555 1_555
Cu17_2 O13_4 1_555 1_555
O40_4 Cu16_2 1_555 1_555
O42_4 Cu10_2 1_555 1_555
O44_4 Cu10_2 1_555 1_555
O46_4 Cu16_2 1_555 1_555
C19_4 C20_4 1_555 1_555
C22_4 C23_4 1_555 1_555
C29_4 C30_4 1_555 1_555
C31_4 C32_4 1_555 1_555
C35_4 C36_4 1_555 1_555
C38_4 C39_4 1_555 1_555
C45_4 C46_4 1_555 1_555
C47_4 C48_4 1_555 1_555
O17_4 Cu7_6 1_555 1_555
O18_4 Cu8_6 1_555 1_555
C52_4 C56_4 1_555 1_555
C53_4 C54_4 1_555 1_555
C54_4 C55_4 1_555 1_555
C63_4 C64_4 1_555 1_555
Cu7_6 Cu8_6 1_555 1_555
O22_4 H49_4 1_555 1_555
O22_4 H50_4 1_555 1_555
O21_4 H51_4 1_555 1_555
O21_4 H52_4 1_555 1_555
O5_12 Cu7_6 1_555 1_555
O6_12 Cu8_6 1_555 1_555
O31_8 Cu7_6 1_555 1_555
O32_8 Cu8_6 1_555 1_555
O33_8 Cu7_6 1_555 1_555
O34_8 Cu8_6 1_555 1_555
O33 C17_5 1_555 1_555
O34 C17_5 1_555 1_555
Cu18_2 O20_5 1_555 1_555
O31 C49_5 1_555 1_555
O32 C49_5 1_555 1_555
O19_5 Cu12_2 1_555 1_555
O20_5 C56_5 1_555 1_555
O21_5 Cu12_2 1_555 1_555
O22_5 Cu18_2 1_555 1_555
O25_3 C72_5 1_555 1_555
O26_3 C72_5 1_555 1_555
O39_4 C81_5 1_555 1_555
O41_4 C81_5 1_555 1_555
O44_3 C88_5 1_555 1_555
O46_3 C88_5 1_555 1_555
N11_5 N12_5 1_555 1_555
N12_5 N13_5 1_555 1_555
N13_5 C58_5 1_555 1_555
N14_5 N15_5 1_555 1_555
N15_5 N16_5 1_555 1_555
N16_5 C74_5 1_555 1_555
N17_5 C62_5 1_555 1_555
N18_5 N19_5 1_555 1_555
N19_5 N20_5 1_555 1_555
N20_5 C96_5 1_555 1_555
C49_5 C50_5 1_555 1_555
C50_5 C51_5 1_555 1_555
C51_5 H25_5 1_555 1_555
C52_5 C51_5 1_555 1_555
C53_5 C52_5 1_555 1_555
H26_5 C53_5 1_555 1_555
C54_5 N11_5 1_555 1_555
C55_5 C50_5 1_555 1_555
H27_5 C55_5 1_555 1_555
C56_5 O19_5 1_555 1_555
C57_5 N11_5 1_555 1_555
H28_5 C57_5 1_555 1_555
C58_5 C57_5 1_555 1_555
C59_5 C58_5 1_555 1_555
C60_5 C59_5 1_555 1_555
H29_5 C60_5 1_555 1_555
C61_5 C60_5 1_555 1_555
H30_5 C61_5 1_555 1_555
C62_5 C61_5 1_555 1_555
C63_5 C62_5 1_555 1_555
H31_5 C63_5 1_555 1_555
C64_5 C59_5 1_555 1_555
H32_5 C64_5 1_555 1_555
C67_5 C66_5 1_555 1_555
H33_5 C67_5 1_555 1_555
C68_5 N14_5 1_555 1_555
C69_5 C68_5 1_555 1_555
H34_5 C69_5 1_555 1_555
C70_5 C69_5 1_555 1_555
C71_5 C66_5 1_555 1_555
H35_5 C71_5 1_555 1_555
C72_5 C70_5 1_555 1_555
C73_5 N14_5 1_555 1_555
H36_5 C73_5 1_555 1_555
C74_5 C73_5 1_555 1_555
C75_5 C74_5 1_555 1_555
C76_5 C75_5 1_555 1_555
H37_5 C76_5 1_555 1_555
C77_5 C76_5 1_555 1_555
H38_5 C77_5 1_555 1_555
C78_5 N17_5 1_555 1_555
C79_5 C78_5 1_555 1_555
H39_5 C79_5 1_555 1_555
C80_5 C75_5 1_555 1_555
H40_5 C80_5 1_555 1_555
C81_5 C82_5 1_555 1_555
C82_5 C83_5 1_555 1_555
C83_5 H41_5 1_555 1_555
C84_5 N18_5 1_555 1_555
C85_5 C84_5 1_555 1_555
H42_5 C85_5 1_555 1_555
C86_5 C85_5 1_555 1_555
C87_5 C82_5 1_555 1_555
H43_5 C87_5 1_555 1_555
C88_5 C86_5 1_555 1_555
C89_5 C90_5 1_555 1_555
C90_5 H44_5 1_555 1_555
C91_5 C90_5 1_555 1_555
H45_5 C91_5 1_555 1_555
C92_5 N17_5 1_555 1_555
C93_5 C92_5 1_555 1_555
H46_5 C93_5 1_555 1_555
C94_5 C89_5 1_555 1_555
H47_5 C94_5 1_555 1_555
C95_5 N18_5 1_555 1_555
H48_5 C95_5 1_555 1_555
C96_5 C89_5 1_555 1_555
Cu13_2 O25_3 1_555 1_555
Cu19_2 O26_3 1_555 1_555
O36_3 Cu12_2 1_555 1_555
O38_3 Cu18_2 1_555 1_555
C52_5 C56_5 1_555 1_555
C53_5 C54_5 1_555 1_555
C54_5 C55_5 1_555 1_555
C63_5 C64_5 1_555 1_555
C67_5 C68_5 1_555 1_555
C70_5 C71_5 1_555 1_555
C77_5 C78_5 1_555 1_555
C79_5 C80_5 1_555 1_555
C83_5 C84_5 1_555 1_555
C86_5 C87_5 1_555 1_555
C91_5 C92_5 1_555 1_555
C93_5 C94_5 1_555 1_555
C95_5 C96_5 1_555 1_555
O22_5 H49_5 1_555 1_555
O22_5 H50_5 1_555 1_555
O21_5 H51_5 1_555 1_555
O21_5 H52_5 1_555 1_555
Cu17_2 O4_5 1_555 1_555
O32_2 C1_5 1_555 1_555
O3_5 Cu11_2 1_555 1_555
O4_5 C8_5 1_555 1_555
O7_5 Cu11_2 1_555 1_555
O8_5 Cu17_2 1_555 1_555
O11_3 C24_5 1_555 1_555
O12_3 C24_5 1_555 1_555
O40_4 C33_5 1_555 1_555
O42_4 C33_5 1_555 1_555
O43_3 C40_5 1_555 1_555
O45_3 C40_5 1_555 1_555
N1_5 N2_5 1_555 1_555
N2_5 N3_5 1_555 1_555
N3_5 C10_5 1_555 1_555
N4_5 N5_5 1_555 1_555
N5_5 N6_5 1_555 1_555
N6_5 C26_5 1_555 1_555
N7_5 C14_5 1_555 1_555
N8_5 N9_5 1_555 1_555
N9_5 N10_5 1_555 1_555
N10_5 C48_5 1_555 1_555
C1_5 O31_2 1_555 1_555
C2_5 C1_5 1_555 1_555
C3_5 C2_5 1_555 1_555
H1_5 C3_5 1_555 1_555
C4_5 C3_5 1_555 1_555
C5_5 C4_5 1_555 1_555
H2_5 C5_5 1_555 1_555
C6_5 N1_5 1_555 1_555
C7_5 C2_5 1_555 1_555
H3_5 C7_5 1_555 1_555
C8_5 O3_5 1_555 1_555
C9_5 N1_5 1_555 1_555
H4_5 C9_5 1_555 1_555
C10_5 C9_5 1_555 1_555
C11_5 C10_5 1_555 1_555
C12_5 C11_5 1_555 1_555
H5_5 C12_5 1_555 1_555
C13_5 C12_5 1_555 1_555
H6_5 C13_5 1_555 1_555
C14_5 C13_5 1_555 1_555
C15_5 C14_5 1_555 1_555
H7_5 C15_5 1_555 1_555
C16_5 C11_5 1_555 1_555
H8_5 C16_5 1_555 1_555
C18_5 C19_5 1_555 1_555
C19_5 H9_5 1_555 1_555
C20_5 N4_5 1_555 1_555
C21_5 C20_5 1_555 1_555
H10_5 C21_5 1_555 1_555
C22_5 C21_5 1_555 1_555
C23_5 C18_5 1_555 1_555
H11_5 C23_5 1_555 1_555
C24_5 C22_5 1_555 1_555
C25_5 N4_5 1_555 1_555
H12_5 C25_5 1_555 1_555
C26_5 C25_5 1_555 1_555
C27_5 C26_5 1_555 1_555
C28_5 C27_5 1_555 1_555
H13_5 C28_5 1_555 1_555
C29_5 C28_5 1_555 1_555
H14_5 C29_5 1_555 1_555
C30_5 N7_5 1_555 1_555
C31_5 C30_5 1_555 1_555
H15_5 C31_5 1_555 1_555
C32_5 C27_5 1_555 1_555
H16_5 C32_5 1_555 1_555
C33_5 C34_5 1_555 1_555
C34_5 C35_5 1_555 1_555
C35_5 H17_5 1_555 1_555
C36_5 N8_5 1_555 1_555
C37_5 C36_5 1_555 1_555
H18_5 C37_5 1_555 1_555
C38_5 C37_5 1_555 1_555
C39_5 C34_5 1_555 1_555
H19_5 C39_5 1_555 1_555
C40_5 C38_5 1_555 1_555
C41_5 C42_5 1_555 1_555
C42_5 H20_5 1_555 1_555
C43_5 C42_5 1_555 1_555
H21_5 C43_5 1_555 1_555
C44_5 N7_5 1_555 1_555
C45_5 C44_5 1_555 1_555
H22_5 C45_5 1_555 1_555
C46_5 C41_5 1_555 1_555
H23_5 C46_5 1_555 1_555
C47_5 N8_5 1_555 1_555
H24_5 C47_5 1_555 1_555
C48_5 C41_5 1_555 1_555
C65_5 O33_2 1_555 1_555
Cu14_2 O11_3 1_555 1_555
Cu20_2 O12_3 1_555 1_555
O35_3 Cu11_2 1_555 1_555
O37_3 Cu17_2 1_555 1_555
C4_5 C8_5 1_555 1_555
C5_5 C6_5 1_555 1_555
C6_5 C7_5 1_555 1_555
C15_5 C16_5 1_555 1_555
C19_5 C20_5 1_555 1_555
C22_5 C23_5 1_555 1_555
C29_5 C30_5 1_555 1_555
C31_5 C32_5 1_555 1_555
C35_5 C36_5 1_555 1_555
C38_5 C39_5 1_555 1_555
C43_5 C44_5 1_555 1_555
C45_5 C46_5 1_555 1_555
C47_5 C48_5 1_555 1_555
O34_2 C65_5 1_555 1_555
O6_3 H53_5 1_555 1_555
O7_5 H55_5 1_555 1_555
O7_5 H56_5 1_555 1_555
O8_5 H57_5 1_555 1_555
O8_5 H58_5 1_555 1_555
O5_3 H59_5 1_555 1_555
O6 H53_6 1_555 1_555
O5 H59_6 1_555 1_555
O33_3 C17_6 1_555 1_555
O34_3 C17_6 1_555 1_555
Cu20_2 O20_6 1_555 1_555
O31_3 C49_6 1_555 1_555
O32_3 C49_6 1_555 1_555
O19_6 Cu14_2 1_555 1_555
O20_6 C56_6 1_555 1_555
O21_6 Cu14_2 1_555 1_555
O22_6 Cu20_2 1_555 1_555
O36_3 C72_6 1_555 1_555
O38_3 C72_6 1_555 1_555
O40_3 C81_6 1_555 1_555
O42_3 C81_6 1_555 1_555
O44_4 C88_6 1_555 1_555
O46_4 C88_6 1_555 1_555
N11_6 N12_6 1_555 1_555
N12_6 N13_6 1_555 1_555
N13_6 C58_6 1_555 1_555
N14_6 N15_6 1_555 1_555
N15_6 N16_6 1_555 1_555
N16_6 C74_6 1_555 1_555
N17_6 C62_6 1_555 1_555
N18_6 N19_6 1_555 1_555
N19_6 N20_6 1_555 1_555
N20_6 C96_6 1_555 1_555
C49_6 C50_6 1_555 1_555
C50_6 C51_6 1_555 1_555
C51_6 H25_6 1_555 1_555
C52_6 C51_6 1_555 1_555
C53_6 C52_6 1_555 1_555
H26_6 C53_6 1_555 1_555
C54_6 N11_6 1_555 1_555
C55_6 C50_6 1_555 1_555
H27_6 C55_6 1_555 1_555
C56_6 O19_6 1_555 1_555
C57_6 N11_6 1_555 1_555
H28_6 C57_6 1_555 1_555
C58_6 C57_6 1_555 1_555
C59_6 C58_6 1_555 1_555
C60_6 C59_6 1_555 1_555
H29_6 C60_6 1_555 1_555
C61_6 C60_6 1_555 1_555
H30_6 C61_6 1_555 1_555
C62_6 C61_6 1_555 1_555
C63_6 C62_6 1_555 1_555
H31_6 C63_6 1_555 1_555
C64_6 C59_6 1_555 1_555
H32_6 C64_6 1_555 1_555
C67_6 C66_6 1_555 1_555
H33_6 C67_6 1_555 1_555
C68_6 N14_6 1_555 1_555
C69_6 C68_6 1_555 1_555
H34_6 C69_6 1_555 1_555
C70_6 C69_6 1_555 1_555
C71_6 C66_6 1_555 1_555
H35_6 C71_6 1_555 1_555
C72_6 C70_6 1_555 1_555
C73_6 N14_6 1_555 1_555
H36_6 C73_6 1_555 1_555
C74_6 C73_6 1_555 1_555
C75_6 C74_6 1_555 1_555
C76_6 C75_6 1_555 1_555
H37_6 C76_6 1_555 1_555
C77_6 C76_6 1_555 1_555
H38_6 C77_6 1_555 1_555
C78_6 N17_6 1_555 1_555
C79_6 C78_6 1_555 1_555
H39_6 C79_6 1_555 1_555
C80_6 C75_6 1_555 1_555
H40_6 C80_6 1_555 1_555
C81_6 C82_6 1_555 1_555
C82_6 C83_6 1_555 1_555
C83_6 H41_6 1_555 1_555
C84_6 N18_6 1_555 1_555
C85_6 C84_6 1_555 1_555
H42_6 C85_6 1_555 1_555
C86_6 C85_6 1_555 1_555
C87_6 C82_6 1_555 1_555
H43_6 C87_6 1_555 1_555
C88_6 C86_6 1_555 1_555
C89_6 C90_6 1_555 1_555
C90_6 H44_6 1_555 1_555
C91_6 C90_6 1_555 1_555
H45_6 C91_6 1_555 1_555
C92_6 N17_6 1_555 1_555
C93_6 C92_6 1_555 1_555
H46_6 C93_6 1_555 1_555
C94_6 C89_6 1_555 1_555
H47_6 C94_6 1_555 1_555
C95_6 N18_6 1_555 1_555
H48_6 C95_6 1_555 1_555
C96_6 C89_6 1_555 1_555
C52_6 C56_6 1_555 1_555
C53_6 C54_6 1_555 1_555
C54_6 C55_6 1_555 1_555
C63_6 C64_6 1_555 1_555
C67_6 C68_6 1_555 1_555
C70_6 C71_6 1_555 1_555
C77_6 C78_6 1_555 1_555
C79_6 C80_6 1_555 1_555
C83_6 C84_6 1_555 1_555
C86_6 C87_6 1_555 1_555
C91_6 C92_6 1_555 1_555
C93_6 C94_6 1_555 1_555
C95_6 C96_6 1_555 1_555
O22_6 H49_6 1_555 1_555
O22_6 H50_6 1_555 1_555
O21_6 H51_6 1_555 1_555
O21_6 H52_6 1_555 1_555
Cu19_2 O4_6 1_555 1_555
O32_4 C1_6 1_555 1_555
O3_6 Cu13_2 1_555 1_555
O4_6 C8_6 1_555 1_555
O7_6 Cu13_2 1_555 1_555
O8_6 Cu19_2 1_555 1_555
O35_3 C24_6 1_555 1_555
O37_3 C24_6 1_555 1_555
O39_3 C33_6 1_555 1_555
O41_3 C33_6 1_555 1_555
O43_4 C40_6 1_555 1_555
O45_4 C40_6 1_555 1_555
N1_6 N2_6 1_555 1_555
N2_6 N3_6 1_555 1_555
N3_6 C10_6 1_555 1_555
N4_6 N5_6 1_555 1_555
N5_6 N6_6 1_555 1_555
N6_6 C26_6 1_555 1_555
N7_6 C14_6 1_555 1_555
N8_6 N9_6 1_555 1_555
N9_6 N10_6 1_555 1_555
N10_6 C48_6 1_555 1_555
C1_6 O31_4 1_555 1_555
C2_6 C1_6 1_555 1_555
C3_6 C2_6 1_555 1_555
H1_6 C3_6 1_555 1_555
C4_6 C3_6 1_555 1_555
C5_6 C4_6 1_555 1_555
H2_6 C5_6 1_555 1_555
C6_6 N1_6 1_555 1_555
C7_6 C2_6 1_555 1_555
H3_6 C7_6 1_555 1_555
C8_6 O3_6 1_555 1_555
C9_6 N1_6 1_555 1_555
H4_6 C9_6 1_555 1_555
C10_6 C9_6 1_555 1_555
C11_6 C10_6 1_555 1_555
C12_6 C11_6 1_555 1_555
H5_6 C12_6 1_555 1_555
C13_6 C12_6 1_555 1_555
H6_6 C13_6 1_555 1_555
C14_6 C13_6 1_555 1_555
C15_6 C14_6 1_555 1_555
H7_6 C15_6 1_555 1_555
C16_6 C11_6 1_555 1_555
H8_6 C16_6 1_555 1_555
C18_6 C19_6 1_555 1_555
C19_6 H9_6 1_555 1_555
C20_6 N4_6 1_555 1_555
C21_6 C20_6 1_555 1_555
H10_6 C21_6 1_555 1_555
C22_6 C21_6 1_555 1_555
C23_6 C18_6 1_555 1_555
H11_6 C23_6 1_555 1_555
C24_6 C22_6 1_555 1_555
C25_6 N4_6 1_555 1_555
H12_6 C25_6 1_555 1_555
C26_6 C25_6 1_555 1_555
C27_6 C26_6 1_555 1_555
C28_6 C27_6 1_555 1_555
H13_6 C28_6 1_555 1_555
C29_6 C28_6 1_555 1_555
H14_6 C29_6 1_555 1_555
C30_6 N7_6 1_555 1_555
C31_6 C30_6 1_555 1_555
H15_6 C31_6 1_555 1_555
C32_6 C27_6 1_555 1_555
H16_6 C32_6 1_555 1_555
C33_6 C34_6 1_555 1_555
C34_6 C35_6 1_555 1_555
C35_6 H17_6 1_555 1_555
C36_6 N8_6 1_555 1_555
C37_6 C36_6 1_555 1_555
H18_6 C37_6 1_555 1_555
C38_6 C37_6 1_555 1_555
C39_6 C34_6 1_555 1_555
H19_6 C39_6 1_555 1_555
C40_6 C38_6 1_555 1_555
C41_6 C42_6 1_555 1_555
C42_6 H20_6 1_555 1_555
C43_6 C42_6 1_555 1_555
H21_6 C43_6 1_555 1_555
C44_6 N7_6 1_555 1_555
C45_6 C44_6 1_555 1_555
H22_6 C45_6 1_555 1_555
C46_6 C41_6 1_555 1_555
H23_6 C46_6 1_555 1_555
C47_6 N8_6 1_555 1_555
H24_6 C47_6 1_555 1_555
C48_6 C41_6 1_555 1_555
C65_6 O33_4 1_555 1_555
C4_6 C8_6 1_555 1_555
C5_6 C6_6 1_555 1_555
C6_6 C7_6 1_555 1_555
C15_6 C16_6 1_555 1_555
C19_6 C20_6 1_555 1_555
C22_6 C23_6 1_555 1_555
C29_6 C30_6 1_555 1_555
C31_6 C32_6 1_555 1_555
C35_6 C36_6 1_555 1_555
C38_6 C39_6 1_555 1_555
C43_6 C44_6 1_555 1_555
C45_6 C46_6 1_555 1_555
C47_6 C48_6 1_555 1_555
O34_4 C65_6 1_555 1_555
O6_7 H53_7 1_555 1_555
O7_6 H55_6 1_555 1_555
O7_6 H56_6 1_555 1_555
O8_6 H57_6 1_555 1_555
O8_6 H58_6 1_555 1_555
O5_7 H59_7 1_555 1_555
O6_5 H53_8 1_555 1_555
O5_5 H59_8 1_555 1_555
Cu17 O4_7 1_555 1_555
O32_6 C1_7 1_555 1_555
O3_7 Cu11 1_555 1_555
O4_7 C8_7 1_555 1_555
O7_7 Cu11 1_555 1_555
O8_7 Cu17 1_555 1_555
O43 C40_7 1_555 1_555
O45 C40_7 1_555 1_555
N1_7 N2_7 1_555 1_555
N2_7 N3_7 1_555 1_555
N3_7 C10_7 1_555 1_555
C1_7 O31_6 1_555 1_555
C2_7 C1_7 1_555 1_555
C3_7 C2_7 1_555 1_555
H1_7 C3_7 1_555 1_555
C4_7 C3_7 1_555 1_555
C5_7 C4_7 1_555 1_555
H2_7 C5_7 1_555 1_555
C6_7 N1_7 1_555 1_555
C7_7 C2_7 1_555 1_555
H3_7 C7_7 1_555 1_555
C8_7 O3_7 1_555 1_555
C9_7 N1_7 1_555 1_555
H4_7 C9_7 1_555 1_555
C10_7 C9_7 1_555 1_555
C11_7 C10_7 1_555 1_555
C12_7 C11_7 1_555 1_555
H5_7 C12_7 1_555 1_555
C13_7 C12_7 1_555 1_555
H6_7 C13_7 1_555 1_555
C14_7 C13_7 1_555 1_555
C15_7 C14_7 1_555 1_555
H7_7 C15_7 1_555 1_555
C16_7 C11_7 1_555 1_555
H8_7 C16_7 1_555 1_555
H21_7 C43_7 1_555 1_555
O25_4 C72_7 1_555 1_555
O26_4 C72_7 1_555 1_555
O39_2 C81_7 1_555 1_555
O41_2 C81_7 1_555 1_555
N14_7 N15_7 1_555 1_555
N15_7 N16_7 1_555 1_555
N16_7 C74_7 1_555 1_555
N18_7 N19_7 1_555 1_555
N19_7 N20_7 1_555 1_555
N20_7 C96_7 1_555 1_555
C65_7 O33_6 1_555 1_555
C66_7 C65_7 1_555 1_555
C67_7 C66_7 1_555 1_555
H33_7 C67_7 1_555 1_555
C68_7 N14_7 1_555 1_555
C69_7 C68_7 1_555 1_555
H34_7 C69_7 1_555 1_555
C70_7 C69_7 1_555 1_555
C71_7 C66_7 1_555 1_555
H35_7 C71_7 1_555 1_555
C72_7 C70_7 1_555 1_555
C73_7 N14_7 1_555 1_555
H36_7 C73_7 1_555 1_555
C74_7 C73_7 1_555 1_555
C75_7 C74_7 1_555 1_555
C76_7 C75_7 1_555 1_555
H37_7 C76_7 1_555 1_555
C77_7 C76_7 1_555 1_555
H38_7 C77_7 1_555 1_555
C78_7 N17_7 1_555 1_555
C79_7 C78_7 1_555 1_555
H39_7 C79_7 1_555 1_555
C80_7 C75_7 1_555 1_555
H40_7 C80_7 1_555 1_555
C81_7 C82_7 1_555 1_555
C82_7 C83_7 1_555 1_555
C83_7 H41_7 1_555 1_555
C84_7 N18_7 1_555 1_555
C85_7 C84_7 1_555 1_555
C86_7 C85_7 1_555 1_555
C87_7 C82_7 1_555 1_555
H43_7 C87_7 1_555 1_555
C89_7 C90_7 1_555 1_555
C92_7 N17_7 1_555 1_555
C93_7 C92_7 1_555 1_555
H46_7 C93_7 1_555 1_555
C94_7 C89_7 1_555 1_555
H47_7 C94_7 1_555 1_555
C95_7 N18_7 1_555 1_555
H48_7 C95_7 1_555 1_555
C96_7 C89_7 1_555 1_555
Cu13 O25_4 1_555 1_555
Cu19 O26_4 1_555 1_555
O35_4 Cu11 1_555 1_555
O37_4 Cu17 1_555 1_555
C4_7 C8_7 1_555 1_555
C5_7 C6_7 1_555 1_555
C6_7 C7_7 1_555 1_555
C15_7 C16_7 1_555 1_555
O34_6 C65_7 1_555 1_555
C67_7 C68_7 1_555 1_555
C70_7 C71_7 1_555 1_555
C77_7 C78_7 1_555 1_555
C79_7 C80_7 1_555 1_555
C83_7 C84_7 1_555 1_555
C86_7 C87_7 1_555 1_555
C93_7 C94_7 1_555 1_555
C95_7 C96_7 1_555 1_555
O7_7 H55_7 1_555 1_555
O7_7 H56_7 1_555 1_555
O8_7 H57_7 1_555 1_555
O8_7 H58_7 1_555 1_555
O33_5 C17_7 1_555 1_555
O34_5 C17_7 1_555 1_555
O11_4 C24_7 1_555 1_555
O12_4 C24_7 1_555 1_555
O40_2 C33_7 1_555 1_555
O42_2 C33_7 1_555 1_555
N4_7 N5_7 1_555 1_555
N5_7 N6_7 1_555 1_555
N6_7 C26_7 1_555 1_555
N8_7 N9_7 1_555 1_555
N9_7 N10_7 1_555 1_555
N10_7 C48_7 1_555 1_555
C17_7 C18_7 1_555 1_555
C18_7 C19_7 1_555 1_555
C19_7 H9_7 1_555 1_555
C20_7 N4_7 1_555 1_555
C21_7 C20_7 1_555 1_555
H10_7 C21_7 1_555 1_555
C22_7 C21_7 1_555 1_555
C23_7 C18_7 1_555 1_555
H11_7 C23_7 1_555 1_555
C24_7 C22_7 1_555 1_555
C25_7 N4_7 1_555 1_555
H12_7 C25_7 1_555 1_555
C26_7 C25_7 1_555 1_555
C27_7 C26_7 1_555 1_555
C28_7 C27_7 1_555 1_555
H13_7 C28_7 1_555 1_555
C29_7 C28_7 1_555 1_555
H14_7 C29_7 1_555 1_555
C30_7 N7_7 1_555 1_555
C31_7 C30_7 1_555 1_555
H15_7 C31_7 1_555 1_555
C32_7 C27_7 1_555 1_555
H16_7 C32_7 1_555 1_555
C33_7 C34_7 1_555 1_555
C34_7 C35_7 1_555 1_555
C35_7 H17_7 1_555 1_555
C36_7 N8_7 1_555 1_555
C37_7 C36_7 1_555 1_555
C38_7 C37_7 1_555 1_555
C39_7 C34_7 1_555 1_555
H19_7 C39_7 1_555 1_555
C41_7 C42_7 1_555 1_555
C44_7 N7_7 1_555 1_555
C45_7 C44_7 1_555 1_555
H22_7 C45_7 1_555 1_555
C46_7 C41_7 1_555 1_555
H23_7 C46_7 1_555 1_555
C47_7 N8_7 1_555 1_555
H24_7 C47_7 1_555 1_555
C48_7 C41_7 1_555 1_555
Cu18 O20_7 1_555 1_555
O31_5 C49_7 1_555 1_555
O32_5 C49_7 1_555 1_555
O19_7 Cu12 1_555 1_555
O20_7 C56_7 1_555 1_555
O21_7 Cu12 1_555 1_555
O22_7 Cu18 1_555 1_555
O44 C88_7 1_555 1_555
O46 C88_7 1_555 1_555
N11_7 N12_7 1_555 1_555
N12_7 N13_7 1_555 1_555
N13_7 C58_7 1_555 1_555
C49_7 C50_7 1_555 1_555
C50_7 C51_7 1_555 1_555
C51_7 H25_7 1_555 1_555
C52_7 C51_7 1_555 1_555
C53_7 C52_7 1_555 1_555
H26_7 C53_7 1_555 1_555
C54_7 N11_7 1_555 1_555
C55_7 C50_7 1_555 1_555
H27_7 C55_7 1_555 1_555
C56_7 O19_7 1_555 1_555
C57_7 N11_7 1_555 1_555
H28_7 C57_7 1_555 1_555
C58_7 C57_7 1_555 1_555
C59_7 C58_7 1_555 1_555
C60_7 C59_7 1_555 1_555
H29_7 C60_7 1_555 1_555
C61_7 C60_7 1_555 1_555
H30_7 C61_7 1_555 1_555
C62_7 C61_7 1_555 1_555
C63_7 C62_7 1_555 1_555
H31_7 C63_7 1_555 1_555
C64_7 C59_7 1_555 1_555
H32_7 C64_7 1_555 1_555
H45_7 C91_7 1_555 1_555
Cu14 O11_4 1_555 1_555
Cu20 O12_4 1_555 1_555
O36_4 Cu12 1_555 1_555
O38_4 Cu18 1_555 1_555
C19_7 C20_7 1_555 1_555
C22_7 C23_7 1_555 1_555
C29_7 C30_7 1_555 1_555
C31_7 C32_7 1_555 1_555
C35_7 C36_7 1_555 1_555
C38_7 C39_7 1_555 1_555
C45_7 C46_7 1_555 1_555
C47_7 C48_7 1_555 1_555
C52_7 C56_7 1_555 1_555
C53_7 C54_7 1_555 1_555
C54_7 C55_7 1_555 1_555
C63_7 C64_7 1_555 1_555
O22_7 H49_7 1_555 1_555
O22_7 H50_7 1_555 1_555
O21_7 H51_7 1_555 1_555
O21_7 H52_7 1_555 1_555
O33_7 C17_8 1_555 1_555
O34_7 C17_8 1_555 1_555
O35_4 C24_8 1_555 1_555
O37_4 C24_8 1_555 1_555
O39 C33_8 1_555 1_555
O41 C33_8 1_555 1_555
N4_8 N5_8 1_555 1_555
N5_8 N6_8 1_555 1_555
N6_8 C26_8 1_555 1_555
N8_8 N9_8 1_555 1_555
N9_8 N10_8 1_555 1_555
N10_8 C48_8 1_555 1_555
C17_8 C18_8 1_555 1_555
C18_8 C19_8 1_555 1_555
C19_8 H9_8 1_555 1_555
C20_8 N4_8 1_555 1_555
C21_8 C20_8 1_555 1_555
H10_8 C21_8 1_555 1_555
C22_8 C21_8 1_555 1_555
C23_8 C18_8 1_555 1_555
H11_8 C23_8 1_555 1_555
C24_8 C22_8 1_555 1_555
C25_8 N4_8 1_555 1_555
H12_8 C25_8 1_555 1_555
C26_8 C25_8 1_555 1_555
C27_8 C26_8 1_555 1_555
C28_8 C27_8 1_555 1_555
H13_8 C28_8 1_555 1_555
C29_8 C28_8 1_555 1_555
H14_8 C29_8 1_555 1_555
C30_8 N7_8 1_555 1_555
C31_8 C30_8 1_555 1_555
H15_8 C31_8 1_555 1_555
C32_8 C27_8 1_555 1_555
H16_8 C32_8 1_555 1_555
C33_8 C34_8 1_555 1_555
C34_8 C35_8 1_555 1_555
C35_8 H17_8 1_555 1_555
C36_8 N8_8 1_555 1_555
C37_8 C36_8 1_555 1_555
C38_8 C37_8 1_555 1_555
C39_8 C34_8 1_555 1_555
H19_8 C39_8 1_555 1_555
C41_8 C42_8 1_555 1_555
C44_8 N7_8 1_555 1_555
C45_8 C44_8 1_555 1_555
H22_8 C45_8 1_555 1_555
C46_8 C41_8 1_555 1_555
H23_8 C46_8 1_555 1_555
C47_8 N8_8 1_555 1_555
H24_8 C47_8 1_555 1_555
C48_8 C41_8 1_555 1_555
Cu20 O20_8 1_555 1_555
O31_7 C49_8 1_555 1_555
O32_7 C49_8 1_555 1_555
O19_8 Cu14 1_555 1_555
O20_8 C56_8 1_555 1_555
O21_8 Cu14 1_555 1_555
O22_8 Cu20 1_555 1_555
O44_2 C88_8 1_555 1_555
O46_2 C88_8 1_555 1_555
N11_8 N12_8 1_555 1_555
N12_8 N13_8 1_555 1_555
N13_8 C58_8 1_555 1_555
C49_8 C50_8 1_555 1_555
C50_8 C51_8 1_555 1_555
C51_8 H25_8 1_555 1_555
C52_8 C51_8 1_555 1_555
C53_8 C52_8 1_555 1_555
H26_8 C53_8 1_555 1_555
C54_8 N11_8 1_555 1_555
C55_8 C50_8 1_555 1_555
H27_8 C55_8 1_555 1_555
C56_8 O19_8 1_555 1_555
C57_8 N11_8 1_555 1_555
H28_8 C57_8 1_555 1_555
C58_8 C57_8 1_555 1_555
C59_8 C58_8 1_555 1_555
C60_8 C59_8 1_555 1_555
H29_8 C60_8 1_555 1_555
C61_8 C60_8 1_555 1_555
H30_8 C61_8 1_555 1_555
C62_8 C61_8 1_555 1_555
C63_8 C62_8 1_555 1_555
H31_8 C63_8 1_555 1_555
C64_8 C59_8 1_555 1_555
H32_8 C64_8 1_555 1_555
H45_8 C91_8 1_555 1_555
C19_8 C20_8 1_555 1_555
C22_8 C23_8 1_555 1_555
C29_8 C30_8 1_555 1_555
C31_8 C32_8 1_555 1_555
C35_8 C36_8 1_555 1_555
C38_8 C39_8 1_555 1_555
C45_8 C46_8 1_555 1_555
C47_8 C48_8 1_555 1_555
C52_8 C56_8 1_555 1_555
C53_8 C54_8 1_555 1_555
C54_8 C55_8 1_555 1_555
C63_8 C64_8 1_555 1_555
O22_8 H49_8 1_555 1_555
O22_8 H50_8 1_555 1_555
O21_8 H51_8 1_555 1_555
O21_8 H52_8 1_555 1_555
Cu19 O4_8 1_555 1_555
O32_8 C1_8 1_555 1_555
O3_8 Cu13 1_555 1_555
O4_8 C8_8 1_555 1_555
O7_8 Cu13 1_555 1_555
O8_8 Cu19 1_555 1_555
O43_2 C40_8 1_555 1_555
O45_2 C40_8 1_555 1_555
N1_8 N2_8 1_555 1_555
N2_8 N3_8 1_555 1_555
N3_8 C10_8 1_555 1_555
C1_8 O31_8 1_555 1_555
C2_8 C1_8 1_555 1_555
C3_8 C2_8 1_555 1_555
H1_8 C3_8 1_555 1_555
C4_8 C3_8 1_555 1_555
C5_8 C4_8 1_555 1_555
H2_8 C5_8 1_555 1_555
C6_8 N1_8 1_555 1_555
C7_8 C2_8 1_555 1_555
H3_8 C7_8 1_555 1_555
C8_8 O3_8 1_555 1_555
C9_8 N1_8 1_555 1_555
H4_8 C9_8 1_555 1_555
C10_8 C9_8 1_555 1_555
C11_8 C10_8 1_555 1_555
C12_8 C11_8 1_555 1_555
H5_8 C12_8 1_555 1_555
C13_8 C12_8 1_555 1_555
H6_8 C13_8 1_555 1_555
C14_8 C13_8 1_555 1_555
C15_8 C14_8 1_555 1_555
H7_8 C15_8 1_555 1_555
C16_8 C11_8 1_555 1_555
H8_8 C16_8 1_555 1_555
H21_8 C43_8 1_555 1_555
O36_4 C72_8 1_555 1_555
O38_4 C72_8 1_555 1_555
O40 C81_8 1_555 1_555
O42 C81_8 1_555 1_555
N14_8 N15_8 1_555 1_555
N15_8 N16_8 1_555 1_555
N16_8 C74_8 1_555 1_555
N18_8 N19_8 1_555 1_555
N19_8 N20_8 1_555 1_555
N20_8 C96_8 1_555 1_555
C65_8 O33_8 1_555 1_555
C66_8 C65_8 1_555 1_555
C67_8 C66_8 1_555 1_555
H33_8 C67_8 1_555 1_555
C68_8 N14_8 1_555 1_555
C69_8 C68_8 1_555 1_555
H34_8 C69_8 1_555 1_555
C70_8 C69_8 1_555 1_555
C71_8 C66_8 1_555 1_555
H35_8 C71_8 1_555 1_555
C72_8 C70_8 1_555 1_555
C73_8 N14_8 1_555 1_555
H36_8 C73_8 1_555 1_555
C74_8 C73_8 1_555 1_555
C75_8 C74_8 1_555 1_555
C76_8 C75_8 1_555 1_555
H37_8 C76_8 1_555 1_555
C77_8 C76_8 1_555 1_555
H38_8 C77_8 1_555 1_555
C78_8 N17_8 1_555 1_555
C79_8 C78_8 1_555 1_555
H39_8 C79_8 1_555 1_555
C80_8 C75_8 1_555 1_555
H40_8 C80_8 1_555 1_555
C81_8 C82_8 1_555 1_555
C82_8 C83_8 1_555 1_555
C83_8 H41_8 1_555 1_555
C84_8 N18_8 1_555 1_555
C85_8 C84_8 1_555 1_555
C86_8 C85_8 1_555 1_555
C87_8 C82_8 1_555 1_555
H43_8 C87_8 1_555 1_555
C89_8 C90_8 1_555 1_555
C92_8 N17_8 1_555 1_555
C93_8 C92_8 1_555 1_555
H46_8 C93_8 1_555 1_555
C94_8 C89_8 1_555 1_555
H47_8 C94_8 1_555 1_555
C95_8 N18_8 1_555 1_555
H48_8 C95_8 1_555 1_555
C96_8 C89_8 1_555 1_555
C4_8 C8_8 1_555 1_555
C5_8 C6_8 1_555 1_555
C6_8 C7_8 1_555 1_555
C15_8 C16_8 1_555 1_555
O34_8 C65_8 1_555 1_555
C67_8 C68_8 1_555 1_555
C70_8 C71_8 1_555 1_555
C77_8 C78_8 1_555 1_555
C79_8 C80_8 1_555 1_555
C83_8 C84_8 1_555 1_555
C86_8 C87_8 1_555 1_555
C93_8 C94_8 1_555 1_555
C95_8 C96_8 1_555 1_555
O7_8 H55_8 1_555 1_555
O7_8 H56_8 1_555 1_555
O8_8 H57_8 1_555 1_555
O8_8 H58_8 1_555 1_555

#END
