
###############################################################################
#
# This file contains modified crystal structure data generated from the
# MOF subset of the Cambridge Structural Database (CSD) v543 
# hosted by the Cambridge Crystallographic Data Centre (CCDC).
#
# This work is licensed under the Creative Commons
# Attribution-NonCommercial-ShareAlike 4.0 International License.
# To view a copy of this license, visit
# http://creativecommons.org/licenses/by-nc-sa/4.0/
# or send a letter to
# Creative Commons, PO Box 1866, Mountain View, CA 94042, USA.
#
# CIF created using the CSD Python API on 29 September 2022
# The structure has been converted into the P1 space group
# The structure has a 3D framework
# The original CSD entry PODKUQ is in the tetragonal crystal system
# The framework has been calculated to contain at least 10.0% void space
# The void calculation uses a probe of radius 1.32A, grid spacing 0.4
# H atom positions have been added when not included in the experimental data
# Generated hydrogen atom positions removed from atoms on special positions
#
###############################################################################

data_PODKUQ
_chemical_formula_moiety         '(C864 H552 Cu56 N144 O248)n'
_symmetry_cell_setting           triclinic
_symmetry_space_group_name_H-M   'P 1'
_symmetry_Int_Tables_number      1
_space_group_name_Hall           'P 1'
loop_
_symmetry_equiv_pos_site_id
_symmetry_equiv_pos_as_xyz
1 x,y,z
_cell_length_a                   36.7876(13)
_cell_length_b                   36.7876(13)
_cell_length_c                   54.618(2)
_cell_angle_alpha                90
_cell_angle_beta                 90
_cell_angle_gamma                90
_cell_volume                     73916
loop_
_atom_site_label
_atom_site_type_symbol
_atom_site_fract_x
_atom_site_fract_y
_atom_site_fract_z
O3 O 0.04343(7) 0.77815(7) 0.52528(4)
O4 O 0.06237(7) 0.71968(7) 0.52473(4)
H1 H 0.0041 0.7884 0.5600
C4 C 0.01475(11) 0.73629(10) 0.55154(7)
C5 C 0.00499(15) 0.70118(12) 0.55577(8)
H2 H 0.0155 0.6820 0.5465
C8 C 0.04250(12) 0.74605(12) 0.53272(7)
Cu16 Cu 0.09943(2) 0.72961(2) 0.5000
Cu19 Cu 0.07501(2) 0.79762(2) 0.5000
O19 O 0.22185(7) 0.04343(7) 0.52528(4)
O20 O 0.28032(7) 0.06237(7) 0.52473(4)
H28 H 0.2116 0.0041 0.5600
C58 C 0.26371(10) 0.01475(11) 0.55154(7)
C59 C 0.29882(12) 0.00499(15) 0.55577(8)
H29 H 0.3180 0.0155 0.5465
C62 C 0.25395(12) 0.04250(12) 0.53272(7)
Cu17 Cu 0.27039(2) 0.09943(2) 0.5000
Cu20 Cu 0.20238(2) 0.07501(2) 0.5000
Cu1 Cu 0.93769(2) 0.86085(2) 0.60397(2)
Cu2 Cu 0.91632(2) 0.81393(2) 0.63811(2)
Cu3 Cu 0.90057(2) 0.27039(2) 0.5000
Cu4 Cu 0.92499(2) 0.20238(2) 0.5000
O1 O 0.93808(7) 0.77876(6) 0.61600(4)
O2 O 0.96138(7) 0.81927(7) 0.58915(4)
O5 O 0.90037(8) 0.77430(9) 0.66472(5)
O6 O 0.95531(13) 0.89843(8) 0.57673(5)
O7 O 0.86906(7) 0.24976(8) 0.52536(4)
O8 O 0.88894(7) 0.19236(7) 0.52504(4)
O9 O 0.84692(7) 0.10786(7) 0.58854(4)
O10 O 0.81142(7) 0.12893(6) 0.61912(4)
O11 O 0.87502(13) 0.32335(11) 0.5000
O12 O 0.94893(12) 0.14948(11) 0.5000
O13 O 0.67585(7) 0.46403(7) 0.84751(4)
O14 O 0.63281(7) 0.47988(6) 0.87442(5)
O15 O 0.58984(7) 0.60448(6) 0.87628(4)
O16 O 0.60283(7) 0.64347(7) 0.84539(4)
N1 N 0.96700(17) 0.65746(11) 0.57966(9)
N2 N 0.9848(2) 0.62892(16) 0.57302(16)
N3 N 0.9667(3) 0.60122(15) 0.57993(18)
N4 N 0.78968(13) 0.26100(10) 0.59906(8)
N5 N 0.76185(17) 0.25713(13) 0.61384(12)
N6 N 0.7546(2) 0.29008(14) 0.62128(13)
N7 N 0.68050(15) 0.56897(11) 0.78819(8)
N8 N 0.6800(2) 0.60203(14) 0.77852(10)
N9 N 0.6987(2) 0.59906(15) 0.75798(11)
C1 C 0.95689(10) 0.78722(11) 0.59739(7)
C2 C 0.97359(11) 0.75663(11) 0.58323(7)
C3 C 0.99854(10) 0.76395(11) 0.56413(7)
C6 C 0.97886(16) 0.69370(12) 0.57429(10)
C7 C 0.96399(13) 0.72144(12) 0.58797(8)
H3 H 0.9471 0.7161 0.6006
C9 C 0.9400(2) 0.64806(15) 0.59184(13)
H4 H 0.9238 0.6641 0.6000
C10 C 0.9375(3) 0.61182(18) 0.59170(15)
C11 C 0.9071(3) 0.58691(16) 0.60048(16)
C12 C 0.9077(3) 0.55247(19) 0.5994(2)
H5 H 0.9266 0.5415 0.5901
C13 C 0.8830(4) 0.52993(19) 0.6107(2)
H6 H 0.8856 0.5044 0.6090
C14 C 0.8553(3) 0.54320(17) 0.62397(17)
C15 C 0.8510(3) 0.58116(19) 0.62288(18)
H7 H 0.8302 0.5926 0.6297
C16 C 0.8780(3) 0.6016(2) 0.61145(19)
H8 H 0.8757 0.6273 0.6114
C17 C 0.8271(3) 0.52017(16) 0.63657(16)
C18 C 0.8179(3) 0.48559(16) 0.62780(16)
H9 H 0.8274 0.4777 0.6125
C19 C 0.7960(3) 0.46326(16) 0.64057(16)
C20 C 0.7782(3) 0.47794(17) 0.66110(17)
H10 H 0.7647 0.4622 0.6715
C21 C 0.7797(3) 0.51359(16) 0.66645(15)
C22 C 0.8087(3) 0.53473(16) 0.65554(15)
H11 H 0.8146 0.5582 0.6616
C23 C 0.7898(3) 0.42608(16) 0.63385(19)
C24 C 0.8064(3) 0.4116(2) 0.61513(16)
H12 H 0.8201 0.4266 0.6045
C25 C 0.8042(3) 0.37347(18) 0.61033(17)
H13 H 0.8217 0.3632 0.5995
C26 C 0.7805(3) 0.35233(17) 0.61952(14)
C27 C 0.7563(4) 0.3698(2) 0.6336(2)
H14 H 0.7344 0.3579 0.6381
C28 C 0.7624(4) 0.4035(2) 0.6415(2)
H15 H 0.7462 0.4128 0.6535
C29 C 0.7790(2) 0.31343(13) 0.61310(13)
C30 C 0.79941(18) 0.29602(14) 0.59787(11)
H16 H 0.8178 0.3061 0.5877
C31 C 0.80760(13) 0.23076(11) 0.58667(9)
C32 C 0.82654(12) 0.23719(11) 0.56544(7)
H17 H 0.8264 0.2607 0.5582
C33 C 0.84546(10) 0.20975(10) 0.55488(6)
C34 C 0.84528(10) 0.17534(11) 0.56502(6)
H18 H 0.8585 0.1563 0.5574
C35 C 0.82565(10) 0.16843(10) 0.58665(6)
C36 C 0.80700(12) 0.19646(12) 0.59728(7)
H19 H 0.7936 0.1925 0.6119
C37 C 0.87001(11) 0.21720(11) 0.53326(6)
C38 C 0.82829(10) 0.13244(10) 0.59893(7)
C39 C 0.7612(3) 0.52672(15) 0.68981(14)
C40 C 0.7533(3) 0.50395(15) 0.70844(14)
H20 H 0.7607 0.4792 0.7077
C41 C 0.7344(2) 0.51658(16) 0.72869(13)
H21 H 0.7255 0.4996 0.7403
C42 C 0.7284(3) 0.55180(16) 0.73233(13)
C43 C 0.7331(3) 0.57651(17) 0.71198(15)
H22 H 0.7241 0.6007 0.7127
C44 C 0.7517(3) 0.56359(18) 0.69100(14)
H23 H 0.7577 0.5796 0.6780
C45 C 0.7085(2) 0.56517(15) 0.75419(12)
C46 C 0.69600(17) 0.54602(13) 0.77307(10)
H24 H 0.6979 0.5205 0.7752
C47 C 0.66239(14) 0.56158(13) 0.81071(8)
C48 C 0.66542(12) 0.52790(12) 0.82143(7)
H25 H 0.6793 0.5094 0.8138
C49 C 0.64805(10) 0.52103(10) 0.84354(7)
C50 C 0.62725(10) 0.54832(11) 0.85466(7)
H26 H 0.6149 0.5436 0.8696
C51 C 0.62476(11) 0.58210(11) 0.84382(7)
C52 C 0.64186(13) 0.58951(12) 0.82122(7)
H27 H 0.6395 0.6125 0.8135
C53 C 0.65258(10) 0.48621(10) 0.85599(7)
C54 C 0.60426(10) 0.61361(12) 0.85603(7)
Cu5 Cu 0.13915(2) 0.93769(2) 0.60397(2)
Cu6 Cu 0.18607(2) 0.91632(2) 0.63811(2)
O17 O 0.22124(6) 0.93808(7) 0.61600(4)
O18 O 0.18073(7) 0.96138(7) 0.58915(4)
O21 O 0.22570(9) 0.90037(8) 0.66472(5)
O22 O 0.10157(8) 0.95531(13) 0.57673(5)
O23 O 0.75024(8) 0.86906(7) 0.52536(4)
O24 O 0.80764(7) 0.88894(7) 0.52504(4)
O25 O 0.89214(7) 0.84692(7) 0.58854(4)
O26 O 0.87107(6) 0.81142(7) 0.61912(4)
O27 O 0.53597(7) 0.67585(7) 0.84751(4)
O28 O 0.52012(6) 0.63281(7) 0.87442(5)
O29 O 0.39552(6) 0.58984(7) 0.87628(4)
O30 O 0.35653(7) 0.60283(7) 0.84539(4)
N10 N 0.34254(11) 0.96700(17) 0.57966(9)
N11 N 0.37108(16) 0.9848(2) 0.57302(16)
N12 N 0.39878(15) 0.9667(3) 0.57993(18)
N13 N 0.73900(10) 0.78968(13) 0.59906(8)
N14 N 0.74287(13) 0.76185(17) 0.61384(12)
N15 N 0.70992(14) 0.7546(2) 0.62128(13)
N16 N 0.43103(11) 0.68050(15) 0.78819(8)
N17 N 0.39797(14) 0.6800(2) 0.77852(10)
N18 N 0.40094(15) 0.6987(2) 0.75798(11)
C55 C 0.21278(11) 0.95689(10) 0.59739(7)
C56 C 0.24337(11) 0.97359(11) 0.58323(7)
C57 C 0.23605(11) 0.99854(10) 0.56413(7)
C60 C 0.30630(12) 0.97886(16) 0.57429(10)
C61 C 0.27856(12) 0.96399(13) 0.58797(8)
H30 H 0.2839 0.9471 0.6006
C63 C 0.35194(15) 0.9400(2) 0.59184(13)
H31 H 0.3359 0.9238 0.6000
C64 C 0.38818(18) 0.9375(3) 0.59170(15)
C65 C 0.41309(16) 0.9071(3) 0.60048(16)
C66 C 0.44753(19) 0.9077(3) 0.5994(2)
H32 H 0.4585 0.9266 0.5901
C67 C 0.47007(19) 0.8830(4) 0.6107(2)
H33 H 0.4956 0.8856 0.6090
C68 C 0.45680(17) 0.8553(3) 0.62397(17)
C69 C 0.41884(19) 0.8510(3) 0.62288(18)
H34 H 0.4074 0.8302 0.6297
C70 C 0.3984(2) 0.8780(3) 0.61145(19)
H35 H 0.3727 0.8757 0.6114
C71 C 0.47983(16) 0.8271(3) 0.63657(16)
C72 C 0.51441(16) 0.8179(3) 0.62780(16)
H36 H 0.5223 0.8274 0.6125
C73 C 0.53674(16) 0.7960(3) 0.64057(16)
C74 C 0.52206(17) 0.7782(3) 0.66110(17)
H37 H 0.5378 0.7647 0.6715
C75 C 0.48641(16) 0.7797(3) 0.66645(15)
C76 C 0.46527(16) 0.8087(3) 0.65554(15)
H38 H 0.4418 0.8146 0.6616
C77 C 0.57392(16) 0.7898(3) 0.63385(19)
C78 C 0.5884(2) 0.8064(3) 0.61513(16)
H39 H 0.5734 0.8201 0.6045
C79 C 0.62653(18) 0.8042(3) 0.61033(17)
H40 H 0.6368 0.8217 0.5995
C80 C 0.64767(17) 0.7805(3) 0.61952(14)
C81 C 0.6302(2) 0.7563(4) 0.6336(2)
H41 H 0.6421 0.7344 0.6381
C82 C 0.5965(2) 0.7624(4) 0.6415(2)
H42 H 0.5872 0.7462 0.6535
C83 C 0.68657(13) 0.7790(2) 0.61310(13)
C84 C 0.70398(14) 0.79941(18) 0.59787(11)
H43 H 0.6939 0.8178 0.5877
C85 C 0.76924(11) 0.80760(13) 0.58667(9)
C86 C 0.76281(11) 0.82654(12) 0.56544(7)
H44 H 0.7393 0.8264 0.5582
C87 C 0.79025(10) 0.84546(10) 0.55488(6)
C88 C 0.82466(11) 0.84528(10) 0.56502(6)
H45 H 0.8437 0.8585 0.5574
C89 C 0.83157(10) 0.82565(10) 0.58665(6)
C90 C 0.80354(12) 0.80700(12) 0.59728(7)
H46 H 0.8075 0.7936 0.6119
C91 C 0.78280(11) 0.87001(11) 0.53326(6)
C92 C 0.86756(10) 0.82829(10) 0.59893(7)
C93 C 0.47328(15) 0.7612(3) 0.68981(14)
C94 C 0.49605(15) 0.7533(3) 0.70844(14)
H47 H 0.5208 0.7607 0.7077
C95 C 0.48342(16) 0.7344(2) 0.72869(13)
H48 H 0.5004 0.7255 0.7403
C96 C 0.44820(16) 0.7284(3) 0.73233(13)
C97 C 0.42349(17) 0.7331(3) 0.71198(15)
H49 H 0.3993 0.7241 0.7127
C98 C 0.43641(18) 0.7517(3) 0.69100(14)
H50 H 0.4204 0.7577 0.6780
C99 C 0.43483(15) 0.7085(2) 0.75419(12)
C100 C 0.45398(13) 0.69600(17) 0.77307(10)
H51 H 0.4795 0.6979 0.7752
C101 C 0.43842(13) 0.66239(14) 0.81071(8)
C102 C 0.47210(12) 0.66542(12) 0.82143(7)
H52 H 0.4906 0.6793 0.8138
C103 C 0.47897(10) 0.64805(10) 0.84354(7)
C104 C 0.45168(11) 0.62725(10) 0.85466(7)
H53 H 0.4564 0.6149 0.8696
C105 C 0.41790(11) 0.62476(11) 0.84382(7)
C106 C 0.41049(12) 0.64186(13) 0.82122(7)
H54 H 0.3875 0.6395 0.8135
C107 C 0.51379(10) 0.65258(10) 0.85599(7)
C108 C 0.38639(12) 0.60426(10) 0.85603(7)
Cu7 Cu 0.86085(2) 0.06231(2) 0.60397(2)
Cu8 Cu 0.56231(2) 0.63915(2) 0.89603(2)
Cu9 Cu 0.36085(2) 0.56231(2) 0.89603(2)
Cu10 Cu 0.63915(2) 0.43769(2) 0.89603(2)
Cu11 Cu 0.81393(2) 0.08368(2) 0.63811(2)
Cu12 Cu 0.58368(2) 0.68607(2) 0.86189(2)
Cu13 Cu 0.31393(2) 0.58368(2) 0.86189(2)
Cu14 Cu 0.68607(2) 0.41632(2) 0.86189(2)
Cu15 Cu 0.72961(2) 0.90057(2) 0.5000
Cu18 Cu 0.79762(2) 0.92499(2) 0.5000
O31 O 0.95657(7) 0.22185(7) 0.52528(4)
O32 O 0.95657(7) 0.22185(7) 0.47472(4)
O33 O 0.93763(7) 0.28032(7) 0.52473(4)
O34 O 0.93763(7) 0.28032(7) 0.47527(4)
O35 O 0.86906(7) 0.24976(8) 0.47464(4)
O36 O 0.88894(7) 0.19236(7) 0.47496(4)
O37 O 0.15308(7) 0.89214(7) 0.58854(4)
O38 O 0.18858(7) 0.87107(6) 0.61912(4)
O39 O 0.96403(7) 0.82415(7) 0.65249(4)
O40 O 0.17585(7) 0.96403(7) 0.65249(4)
O41 O 0.97988(6) 0.86719(7) 0.62558(5)
O42 O 0.13281(7) 0.97988(6) 0.62558(5)
O43 O 0.91016(7) 0.89552(6) 0.62372(4)
O44 O 0.10448(6) 0.91016(7) 0.62372(4)
O45 O 0.89717(7) 0.85653(7) 0.65461(4)
O46 O 0.14347(7) 0.89717(7) 0.65461(4)
H55 H 0.236604 0.922377 0.672263
H56 H 0.213842 0.885473 0.677607
H57 H 0.109256 0.945937 0.560485
H58 H 0.0769596 0.94591 0.58069
H59 H 0.922377 0.763396 0.672263
H60 H 0.885473 0.786158 0.677607
H63 H 0.945937 0.890744 0.560485
H64 H 0.94591 0.92304 0.58069
O11_2 O 0.67665(11) 0.87502(13) 0.5000
O12_2 O 0.85052(11) 0.94893(12) 0.5000
Cu5_2 Cu 0.06231(2) 0.13915(2) 0.60397(2)
Cu6_2 Cu 0.08368(2) 0.18607(2) 0.63811(2)
O17_2 O 0.06192(7) 0.22124(6) 0.61600(4)
O18_2 O 0.03862(7) 0.18073(7) 0.58915(4)
O21_2 O 0.09963(8) 0.22570(9) 0.66472(5)
O22_2 O 0.04469(13) 0.10157(8) 0.57673(5)
O23_2 O 0.13094(7) 0.75024(8) 0.52536(4)
O24_2 O 0.11106(7) 0.80764(7) 0.52504(4)
O27_2 O 0.32415(7) 0.53597(7) 0.84751(4)
O28_2 O 0.36719(7) 0.52012(6) 0.87442(5)
O29_2 O 0.41016(7) 0.39552(6) 0.87628(4)
O30_2 O 0.39717(7) 0.35653(7) 0.84539(4)
N10_2 N 0.03300(17) 0.34254(11) 0.57966(9)
N11_2 N 0.0152(2) 0.37108(16) 0.57302(16)
N12_2 N 0.0333(3) 0.39878(15) 0.57993(18)
N13_2 N 0.21032(13) 0.73900(10) 0.59906(8)
N14_2 N 0.23815(17) 0.74287(13) 0.61384(12)
N15_2 N 0.2454(2) 0.70992(14) 0.62128(13)
N16_2 N 0.31950(15) 0.43103(11) 0.78819(8)
N17_2 N 0.3200(2) 0.39797(14) 0.77852(10)
N18_2 N 0.3013(2) 0.40094(15) 0.75798(11)
C55_2 C 0.04311(10) 0.21278(11) 0.59739(7)
C56_2 C 0.02641(11) 0.24337(11) 0.58323(7)
C57_2 C 0.00146(10) 0.23605(11) 0.56413(7)
C60_2 C 0.02114(16) 0.30630(12) 0.57429(10)
C61_2 C 0.03601(13) 0.27856(12) 0.58797(8)
H30_2 H 0.0529 0.2839 0.6006
C63_2 C 0.0600(2) 0.35194(15) 0.59184(13)
H31_2 H 0.0762 0.3359 0.6000
C64_2 C 0.0625(3) 0.38818(18) 0.59170(15)
C65_2 C 0.0929(3) 0.41309(16) 0.60048(16)
C66_2 C 0.0923(3) 0.44753(19) 0.5994(2)
H32_2 H 0.0734 0.4585 0.5901
C67_2 C 0.1170(4) 0.47007(19) 0.6107(2)
H33_2 H 0.1144 0.4956 0.6090
C68_2 C 0.1447(3) 0.45680(17) 0.62397(17)
C69_2 C 0.1490(3) 0.41884(19) 0.62288(18)
H34_2 H 0.1698 0.4074 0.6297
C70_2 C 0.1220(3) 0.3984(2) 0.61145(19)
H35_2 H 0.1243 0.3727 0.6114
C71_2 C 0.1729(3) 0.47983(16) 0.63657(16)
C72_2 C 0.1821(3) 0.51441(16) 0.62780(16)
H36_2 H 0.1726 0.5223 0.6125
C73_2 C 0.2040(3) 0.53674(16) 0.64057(16)
C74_2 C 0.2218(3) 0.52206(17) 0.66110(17)
H37_2 H 0.2353 0.5378 0.6715
C75_2 C 0.2203(3) 0.48641(16) 0.66645(15)
C76_2 C 0.1913(3) 0.46527(16) 0.65554(15)
H38_2 H 0.1854 0.4418 0.6616
C77_2 C 0.2102(3) 0.57392(16) 0.63385(19)
C78_2 C 0.1936(3) 0.5884(2) 0.61513(16)
H39_2 H 0.1799 0.5734 0.6045
C79_2 C 0.1958(3) 0.62653(18) 0.61033(17)
H40_2 H 0.1783 0.6368 0.5995
C80_2 C 0.2195(3) 0.64767(17) 0.61952(14)
C81_2 C 0.2437(4) 0.6302(2) 0.6336(2)
H41_2 H 0.2656 0.6421 0.6381
C82_2 C 0.2376(4) 0.5965(2) 0.6415(2)
H42_2 H 0.2538 0.5872 0.6535
C83_2 C 0.2210(2) 0.68657(13) 0.61310(13)
C84_2 C 0.20059(18) 0.70398(14) 0.59787(11)
H43_2 H 0.1822 0.6939 0.5877
C85_2 C 0.19240(13) 0.76924(11) 0.58667(9)
C86_2 C 0.17346(12) 0.76281(11) 0.56544(7)
H44_2 H 0.1736 0.7393 0.5582
C87_2 C 0.15454(10) 0.79025(10) 0.55488(6)
C88_2 C 0.15472(10) 0.82466(11) 0.56502(6)
H45_2 H 0.1415 0.8437 0.5574
C89_2 C 0.17435(10) 0.83157(10) 0.58665(6)
C90_2 C 0.19300(12) 0.80354(12) 0.59728(7)
H46_2 H 0.2064 0.8075 0.6119
C91_2 C 0.12999(11) 0.78280(11) 0.53326(6)
C92_2 C 0.17171(10) 0.86756(10) 0.59893(7)
C93_2 C 0.2388(3) 0.47328(15) 0.68981(14)
C94_2 C 0.2467(3) 0.49605(15) 0.70844(14)
H47_2 H 0.2393 0.5208 0.7077
C95_2 C 0.2656(2) 0.48342(16) 0.72869(13)
H48_2 H 0.2745 0.5004 0.7403
C96_2 C 0.2716(3) 0.44820(16) 0.73233(13)
C97_2 C 0.2669(3) 0.42349(17) 0.71198(15)
H49_2 H 0.2759 0.3993 0.7127
C98_2 C 0.2483(3) 0.43641(18) 0.69100(14)
H50_2 H 0.2423 0.4204 0.6780
C99_2 C 0.2915(2) 0.43483(15) 0.75419(12)
C100_2 C 0.30400(17) 0.45398(13) 0.77307(10)
H51_2 H 0.3021 0.4795 0.7752
C101_2 C 0.33761(14) 0.43842(13) 0.81071(8)
C102_2 C 0.33458(12) 0.47210(12) 0.82143(7)
H52_2 H 0.3207 0.4906 0.8138
C103_2 C 0.35195(10) 0.47897(10) 0.84354(7)
C104_2 C 0.37275(10) 0.45168(11) 0.85466(7)
H53_2 H 0.3851 0.4564 0.8696
C105_2 C 0.37524(11) 0.41790(11) 0.84382(7)
C106_2 C 0.35814(13) 0.41049(12) 0.82122(7)
H54_2 H 0.3605 0.3875 0.8135
C107_2 C 0.34742(10) 0.51379(10) 0.85599(7)
C108_2 C 0.39574(10) 0.38639(12) 0.85603(7)
Cu9_2 Cu 0.43769(2) 0.36085(2) 0.89603(2)
Cu13_2 Cu 0.41632(2) 0.31393(2) 0.86189(2)
O31_2 O 0.77815(7) 0.95657(7) 0.52528(4)
O32_2 O 0.77815(7) 0.95657(7) 0.47472(4)
O33_2 O 0.71968(7) 0.93763(7) 0.52473(4)
O34_2 O 0.71968(7) 0.93763(7) 0.47527(4)
O35_2 O 0.75024(8) 0.86906(7) 0.47464(4)
O36_2 O 0.80764(7) 0.88894(7) 0.47496(4)
O37_2 O 0.10786(7) 0.15308(7) 0.58854(4)
O38_2 O 0.12893(6) 0.18858(7) 0.61912(4)
O40_2 O 0.03597(7) 0.17585(7) 0.65249(4)
O42_2 O 0.02012(6) 0.13281(7) 0.62558(5)
O44_2 O 0.08984(7) 0.10448(6) 0.62372(4)
O46_2 O 0.10283(7) 0.14347(7) 0.65461(4)
H55_2 H 0.0776231 0.236604 0.672263
H56_2 H 0.114527 0.213842 0.677607
H57_2 H 0.0540625 0.109256 0.560485
H58_2 H 0.0540903 0.0769596 0.58069
H28_2 H 0.9959 0.2116 0.5600
C58_2 C 0.98525(11) 0.26371(10) 0.55154(7)
C59_2 C 0.99501(15) 0.29882(12) 0.55577(8)
H29_2 H 0.9845 0.3180 0.5465
C62_2 C 0.95750(12) 0.25395(12) 0.53272(7)
O11_3 O 0.12498(13) 0.67665(11) 0.5000
O12_3 O 0.05107(12) 0.85052(11) 0.5000
O17_3 O 0.77876(6) 0.06192(7) 0.61600(4)
O18_3 O 0.81927(7) 0.03862(7) 0.58915(4)
O21_3 O 0.77430(9) 0.09963(8) 0.66472(5)
O22_3 O 0.89843(8) 0.04469(13) 0.57673(5)
O23_3 O 0.24976(8) 0.13094(7) 0.52536(4)
O24_3 O 0.19236(7) 0.11106(7) 0.52504(4)
O27_3 O 0.46403(7) 0.32415(7) 0.84751(4)
O28_3 O 0.47988(6) 0.36719(7) 0.87442(5)
O29_3 O 0.60448(6) 0.41016(7) 0.87628(4)
O30_3 O 0.64347(7) 0.39717(7) 0.84539(4)
N10_3 N 0.65746(11) 0.03300(17) 0.57966(9)
N11_3 N 0.62892(16) 0.0152(2) 0.57302(16)
N12_3 N 0.60122(15) 0.0333(3) 0.57993(18)
N13_3 N 0.26100(10) 0.21032(13) 0.59906(8)
N14_3 N 0.25713(13) 0.23815(17) 0.61384(12)
N15_3 N 0.29008(14) 0.2454(2) 0.62128(13)
N16_3 N 0.56897(11) 0.31950(15) 0.78819(8)
N17_3 N 0.60203(14) 0.3200(2) 0.77852(10)
N18_3 N 0.59906(15) 0.3013(2) 0.75798(11)
C55_3 C 0.78722(11) 0.04311(10) 0.59739(7)
C56_3 C 0.75663(11) 0.02641(11) 0.58323(7)
C57_3 C 0.76395(11) 0.00146(10) 0.56413(7)
C60_3 C 0.69370(12) 0.02114(16) 0.57429(10)
C61_3 C 0.72144(12) 0.03601(13) 0.58797(8)
H30_3 H 0.7161 0.0529 0.6006
C63_3 C 0.64806(15) 0.0600(2) 0.59184(13)
H31_3 H 0.6641 0.0762 0.6000
C64_3 C 0.61182(18) 0.0625(3) 0.59170(15)
C65_3 C 0.58691(16) 0.0929(3) 0.60048(16)
C66_3 C 0.55247(19) 0.0923(3) 0.5994(2)
H32_3 H 0.5415 0.0734 0.5901
C67_3 C 0.52993(19) 0.1170(4) 0.6107(2)
H33_3 H 0.5044 0.1144 0.6090
C68_3 C 0.54320(17) 0.1447(3) 0.62397(17)
C69_3 C 0.58116(19) 0.1490(3) 0.62288(18)
H34_3 H 0.5926 0.1698 0.6297
C70_3 C 0.6016(2) 0.1220(3) 0.61145(19)
H35_3 H 0.6273 0.1243 0.6114
C71_3 C 0.52017(16) 0.1729(3) 0.63657(16)
C72_3 C 0.48559(16) 0.1821(3) 0.62780(16)
H36_3 H 0.4777 0.1726 0.6125
C73_3 C 0.46326(16) 0.2040(3) 0.64057(16)
C74_3 C 0.47794(17) 0.2218(3) 0.66110(17)
H37_3 H 0.4622 0.2353 0.6715
C75_3 C 0.51359(16) 0.2203(3) 0.66645(15)
C76_3 C 0.53473(16) 0.1913(3) 0.65554(15)
H38_3 H 0.5582 0.1854 0.6616
C77_3 C 0.42608(16) 0.2102(3) 0.63385(19)
C78_3 C 0.4116(2) 0.1936(3) 0.61513(16)
H39_3 H 0.4266 0.1799 0.6045
C79_3 C 0.37347(18) 0.1958(3) 0.61033(17)
H40_3 H 0.3632 0.1783 0.5995
C80_3 C 0.35233(17) 0.2195(3) 0.61952(14)
C81_3 C 0.3698(2) 0.2437(4) 0.6336(2)
H41_3 H 0.3579 0.2656 0.6381
C82_3 C 0.4035(2) 0.2376(4) 0.6415(2)
H42_3 H 0.4128 0.2538 0.6535
C83_3 C 0.31343(13) 0.2210(2) 0.61310(13)
C84_3 C 0.29602(14) 0.20059(18) 0.59787(11)
H43_3 H 0.3061 0.1822 0.5877
C85_3 C 0.23076(11) 0.19240(13) 0.58667(9)
C86_3 C 0.23719(11) 0.17346(12) 0.56544(7)
H44_3 H 0.2607 0.1736 0.5582
C87_3 C 0.20975(10) 0.15454(10) 0.55488(6)
C88_3 C 0.17534(11) 0.15472(10) 0.56502(6)
H45_3 H 0.1563 0.1415 0.5574
C89_3 C 0.16843(10) 0.17435(10) 0.58665(6)
C90_3 C 0.19646(12) 0.19300(12) 0.59728(7)
H46_3 H 0.1925 0.2064 0.6119
C91_3 C 0.21720(11) 0.12999(11) 0.53326(6)
C92_3 C 0.13244(10) 0.17171(10) 0.59893(7)
C93_3 C 0.52672(15) 0.2388(3) 0.68981(14)
C94_3 C 0.50395(15) 0.2467(3) 0.70844(14)
H47_3 H 0.4792 0.2393 0.7077
C95_3 C 0.51658(16) 0.2656(2) 0.72869(13)
H48_3 H 0.4996 0.2745 0.7403
C96_3 C 0.55180(16) 0.2716(3) 0.73233(13)
C97_3 C 0.57651(17) 0.2669(3) 0.71198(15)
H49_3 H 0.6007 0.2759 0.7127
C98_3 C 0.56359(18) 0.2483(3) 0.69100(14)
H50_3 H 0.5796 0.2423 0.6780
C99_3 C 0.56517(15) 0.2915(2) 0.75419(12)
C100_3 C 0.54602(13) 0.30400(17) 0.77307(10)
H51_3 H 0.5205 0.3021 0.7752
C101_3 C 0.56158(13) 0.33761(14) 0.81071(8)
C102_3 C 0.52790(12) 0.33458(12) 0.82143(7)
H52_3 H 0.5094 0.3207 0.8138
C103_3 C 0.52103(10) 0.35195(10) 0.84354(7)
C104_3 C 0.54832(11) 0.37275(10) 0.85466(7)
H53_3 H 0.5436 0.3851 0.8696
C105_3 C 0.58210(11) 0.37524(11) 0.84382(7)
C106_3 C 0.58951(12) 0.35814(13) 0.82122(7)
H54_3 H 0.6125 0.3605 0.8135
C107_3 C 0.48621(10) 0.34742(10) 0.85599(7)
C108_3 C 0.61361(12) 0.39574(10) 0.85603(7)
O32_3 O 0.04343(7) 0.77815(7) 0.47472(4)
O34_3 O 0.06237(7) 0.71968(7) 0.47527(4)
O35_3 O 0.13094(7) 0.75024(8) 0.47464(4)
O36_3 O 0.11106(7) 0.80764(7) 0.47496(4)
O40_3 O 0.82415(7) 0.03597(7) 0.65249(4)
O42_3 O 0.86719(7) 0.02012(6) 0.62558(5)
O44_3 O 0.89552(6) 0.08984(7) 0.62372(4)
O46_3 O 0.85653(7) 0.10283(7) 0.65461(4)
H55_3 H 0.763396 0.0776231 0.672263
H56_3 H 0.786158 0.114527 0.677607
H57_3 H 0.890744 0.0540625 0.560485
H58_3 H 0.92304 0.0540903 0.58069
H28_3 H 0.7884 0.9959 0.5600
C58_3 C 0.73629(10) 0.98525(11) 0.55154(7)
C59_3 C 0.70118(12) 0.99501(15) 0.55577(8)
H29_3 H 0.6820 0.9845 0.5465
C62_3 C 0.74605(12) 0.95750(12) 0.53272(7)
O11_4 O 0.32335(11) 0.12498(13) 0.5000
O12_4 O 0.14948(11) 0.05107(12) 0.5000
O32_4 O 0.22185(7) 0.04343(7) 0.47472(4)
O34_4 O 0.28032(7) 0.06237(7) 0.47527(4)
O35_4 O 0.24976(8) 0.13094(7) 0.47464(4)
O36_4 O 0.19236(7) 0.11106(7) 0.47496(4)
Cu1_2 Cu 0.43769(2) 0.36085(2) 0.10397(2)
Cu2_2 Cu 0.41632(2) 0.31393(2) 0.13811(2)
O1_2 O 0.43808(7) 0.27876(6) 0.11600(4)
O2_2 O 0.46138(7) 0.31927(7) 0.08915(4)
O3_2 O 0.54343(7) 0.27815(7) 0.02528(4)
O4_2 O 0.56237(7) 0.21968(7) 0.02473(4)
O5_2 O 0.40037(8) 0.27430(9) 0.16472(5)
O6_2 O 0.45531(13) 0.39843(8) 0.07673(5)
O15_2 O 0.08984(7) 0.10448(6) 0.37628(4)
O16_2 O 0.10283(7) 0.14347(7) 0.34539(4)
N1_2 N 0.46700(17) 0.15746(11) 0.07966(9)
N2_2 N 0.4848(2) 0.12892(16) 0.07302(16)
N3_2 N 0.4667(3) 0.10122(15) 0.07993(18)
N7_2 N 0.18050(15) 0.06897(11) 0.28819(8)
N8_2 N 0.1800(2) 0.10203(14) 0.27852(10)
N9_2 N 0.1987(2) 0.09906(15) 0.25798(11)
C1_2 C 0.45689(10) 0.28722(11) 0.09739(7)
C2_2 C 0.47359(11) 0.25663(11) 0.08323(7)
C3_2 C 0.49854(10) 0.26395(11) 0.06413(7)
H1_2 H 0.5041 0.2884 0.0600
C4_2 C 0.51475(11) 0.23629(10) 0.05154(7)
C5_2 C 0.50499(15) 0.20118(12) 0.05577(8)
H2_2 H 0.5155 0.1820 0.0465
C6_2 C 0.47886(16) 0.19370(12) 0.07429(10)
C7_2 C 0.46399(13) 0.22144(12) 0.08797(8)
H3_2 H 0.4471 0.2161 0.1006
C8_2 C 0.54250(12) 0.24605(12) 0.03272(7)
C9_2 C 0.4400(2) 0.14806(15) 0.09184(13)
H4_2 H 0.4238 0.1641 0.1000
C10_2 C 0.4375(3) 0.11182(18) 0.09170(15)
C11_2 C 0.4071(3) 0.08691(16) 0.10048(16)
C12_2 C 0.4077(3) 0.05247(19) 0.0994(2)
H5_2 H 0.4266 0.0415 0.0901
C13_2 C 0.3830(4) 0.02993(19) 0.1107(2)
H6_2 H 0.3856 0.0044 0.1090
C14_2 C 0.3553(3) 0.04320(17) 0.12397(17)
C15_2 C 0.3510(3) 0.08116(19) 0.12288(18)
H7_2 H 0.3302 0.0926 0.1297
C16_2 C 0.3780(3) 0.1016(2) 0.11145(19)
H8_2 H 0.3757 0.1273 0.1114
C17_2 C 0.3271(3) 0.02017(16) 0.13657(16)
C21_2 C 0.2797(3) 0.01359(16) 0.16645(15)
C22_2 C 0.3087(3) 0.03473(16) 0.15554(15)
H11_2 H 0.3146 0.0582 0.1616
C39_2 C 0.2612(3) 0.02672(15) 0.18981(14)
C40_2 C 0.2533(3) 0.00395(15) 0.20844(14)
C41_2 C 0.2344(2) 0.01658(16) 0.22869(13)
C42_2 C 0.2284(3) 0.05180(16) 0.23233(13)
C43_2 C 0.2331(3) 0.07651(17) 0.21198(15)
H22_2 H 0.2241 0.1007 0.2127
C44_2 C 0.2517(3) 0.06359(18) 0.19100(14)
H23_2 H 0.2577 0.0796 0.1780
C45_2 C 0.2085(2) 0.06517(15) 0.25419(12)
C46_2 C 0.19600(17) 0.04602(13) 0.27307(10)
H24_2 H 0.1979 0.0205 0.2752
C47_2 C 0.16239(14) 0.06158(13) 0.31071(8)
C48_2 C 0.16542(12) 0.02790(12) 0.32143(7)
H25_2 H 0.1793 0.0094 0.3138
C49_2 C 0.14805(10) 0.02103(10) 0.34354(7)
C50_2 C 0.12725(10) 0.04832(11) 0.35466(7)
H26_2 H 0.1149 0.0436 0.3696
C51_2 C 0.12476(11) 0.08210(11) 0.34382(7)
C52_2 C 0.14186(13) 0.08951(12) 0.32122(7)
H27_2 H 0.1395 0.1125 0.3135
C54_2 C 0.10426(10) 0.11361(12) 0.35603(7)
O23_4 O 0.25024(8) 0.36906(7) 0.02536(4)
O24_4 O 0.30764(7) 0.38894(7) 0.02504(4)
O25_2 O 0.39214(7) 0.34692(7) 0.08854(4)
O26_2 O 0.37107(6) 0.31142(7) 0.11912(4)
O27_4 O 0.03597(7) 0.17585(7) 0.34751(4)
O28_4 O 0.02012(6) 0.13281(7) 0.37442(5)
N13_4 N 0.23900(10) 0.28968(13) 0.09906(8)
N14_4 N 0.24287(13) 0.26185(17) 0.11384(12)
N15_4 N 0.20992(14) 0.2546(2) 0.12128(13)
C72_4 C 0.01441(16) 0.3179(3) 0.12780(16)
H36_4 H 0.0223 0.3274 0.1125
C73_4 C 0.03674(16) 0.2960(3) 0.14057(16)
C74_4 C 0.02206(17) 0.2782(3) 0.16110(17)
H37_4 H 0.0378 0.2647 0.1715
C77_4 C 0.07392(16) 0.2898(3) 0.13385(19)
C78_4 C 0.0884(2) 0.3064(3) 0.11513(16)
H39_4 H 0.0734 0.3201 0.1045
C79_4 C 0.12653(18) 0.3042(3) 0.11033(17)
H40_4 H 0.1368 0.3217 0.0995
C80_4 C 0.14767(17) 0.2805(3) 0.11952(14)
C81_4 C 0.1302(2) 0.2563(4) 0.1336(2)
H41_4 H 0.1421 0.2344 0.1381
C82_4 C 0.0965(2) 0.2624(4) 0.1415(2)
H42_4 H 0.0872 0.2462 0.1535
C83_4 C 0.18657(13) 0.2790(2) 0.11310(13)
C84_4 C 0.20398(14) 0.29941(18) 0.09787(11)
H43_4 H 0.1939 0.3178 0.0877
C85_4 C 0.26924(11) 0.30760(13) 0.08667(9)
C86_4 C 0.26281(11) 0.32654(12) 0.06544(7)
H44_4 H 0.2393 0.3264 0.0582
C87_4 C 0.29025(10) 0.34546(10) 0.05488(6)
C88_4 C 0.32466(11) 0.34528(10) 0.06502(6)
H45_4 H 0.3437 0.3585 0.0574
C89_4 C 0.33157(10) 0.32565(10) 0.08665(6)
C90_4 C 0.30354(12) 0.30700(12) 0.09728(7)
H46_4 H 0.3075 0.2936 0.1119
C91_4 C 0.28280(11) 0.37001(11) 0.03326(6)
C92_4 C 0.36756(10) 0.32829(10) 0.09893(7)
H47_4 H 0.0208 0.2607 0.2077
H48_4 H 0.0004 0.2255 0.2403
C107_4 C 0.01379(10) 0.15258(10) 0.35599(7)
Cu8_2 Cu 0.06231(2) 0.13915(2) 0.39603(2)
Cu12_2 Cu 0.08368(2) 0.18607(2) 0.36189(2)
Cu15_2 Cu 0.22961(2) 0.40057(2) 0.0000
Cu16_2 Cu 0.59943(2) 0.22961(2) 0.0000
Cu18_2 Cu 0.29762(2) 0.42499(2) 0.0000
Cu19_2 Cu 0.57501(2) 0.29762(2) 0.0000
O39_2 O 0.46403(7) 0.32415(7) 0.15249(4)
O41_2 O 0.47988(6) 0.36719(7) 0.12558(5)
O43_2 O 0.41016(7) 0.39552(6) 0.12372(4)
O45_2 O 0.39717(7) 0.35653(7) 0.15461(4)
H59_2 H 0.422377 0.263396 0.172263
H60_2 H 0.385473 0.286158 0.177607
H63_2 H 0.445937 0.390744 0.0604853
H64_2 H 0.44591 0.42304 0.0806904
Cu15_3 Cu 0.22961(2) 0.40057(2) 1.0000
Cu16_3 Cu 0.59943(2) 0.22961(2) 1.0000
Cu18_3 Cu 0.29762(2) 0.42499(2) 1.0000
Cu19_3 Cu 0.57501(2) 0.29762(2) 1.0000
Cu3_2 Cu 0.40057(2) 0.77039(2) 0.0000
Cu4_2 Cu 0.42499(2) 0.70238(2) 0.0000
O7_2 O 0.36906(7) 0.74976(8) 0.02536(4)
O8_2 O 0.38894(7) 0.69236(7) 0.02504(4)
O9_2 O 0.34692(7) 0.60786(7) 0.08854(4)
O10_2 O 0.31142(7) 0.62893(6) 0.11912(4)
O11_5 O 0.37502(13) 0.82335(11) 0.0000
O12_5 O 0.44893(12) 0.64948(11) 0.0000
O13_2 O 0.17585(7) 0.96403(7) 0.34751(4)
O14_2 O 0.13281(7) 0.97988(6) 0.37442(5)
N4_2 N 0.28968(13) 0.76100(10) 0.09906(8)
N5_2 N 0.26185(17) 0.75713(13) 0.11384(12)
N6_2 N 0.2546(2) 0.79008(14) 0.12128(13)
C18_2 C 0.3179(3) 0.98559(16) 0.12780(16)
H9_2 H 0.3274 0.9777 0.1125
C19_2 C 0.2960(3) 0.96326(16) 0.14057(16)
C20_2 C 0.2782(3) 0.97794(17) 0.16110(17)
H10_2 H 0.2647 0.9622 0.1715
C23_2 C 0.2898(3) 0.92608(16) 0.13385(19)
C24_2 C 0.3064(3) 0.9116(2) 0.11513(16)
H12_2 H 0.3201 0.9266 0.1045
C25_2 C 0.3042(3) 0.87347(18) 0.11033(17)
H13_2 H 0.3217 0.8632 0.0995
C26_2 C 0.2805(3) 0.85233(17) 0.11952(14)
C27_2 C 0.2563(4) 0.8698(2) 0.1336(2)
H14_2 H 0.2344 0.8579 0.1381
C28_2 C 0.2624(4) 0.9035(2) 0.1415(2)
H15_2 H 0.2462 0.9128 0.1535
C29_2 C 0.2790(2) 0.81343(13) 0.11310(13)
C30_2 C 0.29941(18) 0.79602(14) 0.09787(11)
H16_2 H 0.3178 0.8061 0.0877
C31_2 C 0.30760(13) 0.73076(11) 0.08667(9)
C32_2 C 0.32654(12) 0.73719(11) 0.06544(7)
H17_2 H 0.3264 0.7607 0.0582
C33_2 C 0.34546(10) 0.70975(10) 0.05488(6)
C34_2 C 0.34528(10) 0.67534(11) 0.06502(6)
H18_2 H 0.3585 0.6563 0.0574
C35_2 C 0.32565(10) 0.66843(10) 0.08665(6)
C36_2 C 0.30700(12) 0.69646(12) 0.09728(7)
H19_2 H 0.2936 0.6925 0.1119
C37_2 C 0.37001(11) 0.71720(11) 0.03326(6)
C38_2 C 0.32829(10) 0.63244(10) 0.09893(7)
H20_2 H 0.2607 0.9792 0.2077
H21_2 H 0.2255 0.9996 0.2403
C53_2 C 0.15258(10) 0.98621(10) 0.35599(7)
Cu7_2 Cu 0.36085(2) 0.56231(2) 0.10397(2)
Cu10_2 Cu 0.13915(2) 0.93769(2) 0.39603(2)
Cu11_2 Cu 0.31393(2) 0.58368(2) 0.13811(2)
Cu14_2 Cu 0.18607(2) 0.91632(2) 0.36189(2)
O31_3 O 0.45657(7) 0.72185(7) 0.02528(4)
O33_3 O 0.43763(7) 0.78032(7) 0.02473(4)
H61 H 0.464232 0.646529 0.0148446
H62 H 0.429454 0.63079 0
H65 H 0.35965 0.825925 0.0148446
H66 H 0.394031 0.842512 0
Cu3_3 Cu 0.40057(2) 0.77039(2) 1.0000
Cu4_3 Cu 0.42499(2) 0.70238(2) 1.0000
O11_6 O 0.37502(13) 0.82335(11) 1.0000
O12_6 O 0.44893(12) 0.64948(11) 1.0000
O32_5 O 0.45657(7) 0.72185(7) 0.97472(4)
O34_5 O 0.43763(7) 0.78032(7) 0.97527(4)
O35_5 O 0.36906(7) 0.74976(8) 0.97464(4)
O36_5 O 0.38894(7) 0.69236(7) 0.97496(4)
H62_2 H 0.429454 0.63079 1
H66_2 H 0.394031 0.842512 1
Cu5_3 Cu 0.63915(2) 0.43769(2) 0.10397(2)
Cu6_3 Cu 0.68607(2) 0.41632(2) 0.13811(2)
O17_4 O 0.72124(6) 0.43808(7) 0.11600(4)
O18_4 O 0.68073(7) 0.46138(7) 0.08915(4)
O19_2 O 0.72185(7) 0.54343(7) 0.02528(4)
O20_2 O 0.78032(7) 0.56237(7) 0.02473(4)
O21_4 O 0.72570(9) 0.40037(8) 0.16472(5)
O22_4 O 0.60157(8) 0.45531(13) 0.07673(5)
O29_4 O 0.89552(6) 0.08984(7) 0.37628(4)
O30_4 O 0.85653(7) 0.10283(7) 0.34539(4)
N10_4 N 0.84254(11) 0.46700(17) 0.07966(9)
N11_4 N 0.87108(16) 0.4848(2) 0.07302(16)
N12_4 N 0.89878(15) 0.4667(3) 0.07993(18)
N16_4 N 0.93103(11) 0.18050(15) 0.28819(8)
N17_4 N 0.89797(14) 0.1800(2) 0.27852(10)
N18_4 N 0.90094(15) 0.1987(2) 0.25798(11)
C55_4 C 0.71278(11) 0.45689(10) 0.09739(7)
C56_4 C 0.74337(11) 0.47359(11) 0.08323(7)
C57_4 C 0.73605(11) 0.49854(10) 0.06413(7)
H28_4 H 0.7116 0.5041 0.0600
C58_4 C 0.76371(10) 0.51475(11) 0.05154(7)
C59_4 C 0.79882(12) 0.50499(15) 0.05577(8)
H29_4 H 0.8180 0.5155 0.0465
C60_4 C 0.80630(12) 0.47886(16) 0.07429(10)
C61_4 C 0.77856(12) 0.46399(13) 0.08797(8)
H30_4 H 0.7839 0.4471 0.1006
C62_4 C 0.75395(12) 0.54250(12) 0.03272(7)
C63_4 C 0.85194(15) 0.4400(2) 0.09184(13)
H31_4 H 0.8359 0.4238 0.1000
C64_4 C 0.88818(18) 0.4375(3) 0.09170(15)
C65_4 C 0.91309(16) 0.4071(3) 0.10048(16)
C66_4 C 0.94753(19) 0.4077(3) 0.0994(2)
H32_4 H 0.9585 0.4266 0.0901
C67_4 C 0.97007(19) 0.3830(4) 0.1107(2)
H33_4 H 0.9956 0.3856 0.1090
C68_4 C 0.95680(17) 0.3553(3) 0.12397(17)
C69_4 C 0.91884(19) 0.3510(3) 0.12288(18)
H34_4 H 0.9074 0.3302 0.1297
C70_4 C 0.8984(2) 0.3780(3) 0.11145(19)
H35_4 H 0.8727 0.3757 0.1114
C71_4 C 0.97983(16) 0.3271(3) 0.13657(16)
C75_4 C 0.98641(16) 0.2797(3) 0.16645(15)
C76_4 C 0.96527(16) 0.3087(3) 0.15554(15)
H38_4 H 0.9418 0.3146 0.1616
C93_4 C 0.97328(15) 0.2612(3) 0.18981(14)
C94_4 C 0.99605(15) 0.2533(3) 0.20844(14)
C95_4 C 0.98342(16) 0.2344(2) 0.22869(13)
C96_4 C 0.94820(16) 0.2284(3) 0.23233(13)
C97_4 C 0.92349(17) 0.2331(3) 0.21198(15)
H49_4 H 0.8993 0.2241 0.2127
C98_4 C 0.93641(18) 0.2517(3) 0.19100(14)
H50_4 H 0.9204 0.2577 0.1780
C99_4 C 0.93483(15) 0.2085(2) 0.25419(12)
C100_4 C 0.95398(13) 0.19600(17) 0.27307(10)
H51_4 H 0.9795 0.1979 0.2752
C101_4 C 0.93842(13) 0.16239(14) 0.31071(8)
C102_4 C 0.97210(12) 0.16542(12) 0.32143(7)
H52_4 H 0.9906 0.1793 0.3138
C103_4 C 0.97897(10) 0.14805(10) 0.34354(7)
C104_4 C 0.95168(11) 0.12725(10) 0.35466(7)
H53_4 H 0.9564 0.1149 0.3696
C105_4 C 0.91790(11) 0.12476(11) 0.34382(7)
C106_4 C 0.91049(12) 0.14186(13) 0.32122(7)
H54_4 H 0.8875 0.1395 0.3135
C108_4 C 0.88639(12) 0.10426(10) 0.35603(7)
Cu9_3 Cu 0.86085(2) 0.06231(2) 0.39603(2)
Cu13_3 Cu 0.81393(2) 0.08368(2) 0.36189(2)
Cu17_2 Cu 0.77039(2) 0.59943(2) 0.0000
Cu20_2 Cu 0.70238(2) 0.57501(2) 0.0000
O37_3 O 0.65308(7) 0.39214(7) 0.08854(4)
O38_3 O 0.68858(7) 0.37107(6) 0.11912(4)
O40_4 O 0.67585(7) 0.46403(7) 0.15249(4)
O42_4 O 0.63281(7) 0.47988(6) 0.12558(5)
O44_4 O 0.60448(6) 0.41016(7) 0.12372(4)
O46_4 O 0.64347(7) 0.39717(7) 0.15461(4)
H55_4 H 0.736604 0.422377 0.172263
H56_4 H 0.713842 0.385473 0.177607
H57_4 H 0.609256 0.445937 0.0604853
H58_4 H 0.57696 0.44591 0.0806904
Cu17_3 Cu 0.77039(2) 0.59943(2) 1.0000
Cu20_3 Cu 0.70238(2) 0.57501(2) 1.0000
O11_7 O 0.17665(11) 0.37502(13) 0.0000
O12_7 O 0.35052(11) 0.44893(12) 0.0000
O31_4 O 0.27815(7) 0.45657(7) 0.02528(4)
O33_4 O 0.21968(7) 0.43763(7) 0.02473(4)
H61_2 H 0.353471 0.464232 0.0148446
H62_3 H 0.36921 0.429454 0
H65_2 H 0.174075 0.35965 0.0148446
H66_3 H 0.157488 0.394031 0
O11_8 O 0.17665(11) 0.37502(13) 1.0000
O12_8 O 0.35052(11) 0.44893(12) 1.0000
O32_6 O 0.27815(7) 0.45657(7) 0.97472(4)
O34_6 O 0.21968(7) 0.43763(7) 0.97527(4)
O35_6 O 0.25024(8) 0.36906(7) 0.97464(4)
O36_6 O 0.30764(7) 0.38894(7) 0.97496(4)
H62_4 H 0.36921 0.429454 1
H66_4 H 0.157488 0.394031 1
O23_5 O 0.63094(7) 0.25024(8) 0.02536(4)
O24_5 O 0.61106(7) 0.30764(7) 0.02504(4)
O27_5 O 0.82415(7) 0.03597(7) 0.34751(4)
O28_5 O 0.86719(7) 0.02012(6) 0.37442(5)
N13_5 N 0.71032(13) 0.23900(10) 0.09906(8)
N14_5 N 0.73815(17) 0.24287(13) 0.11384(12)
N15_5 N 0.7454(2) 0.20992(14) 0.12128(13)
C72_5 C 0.6821(3) 0.01441(16) 0.12780(16)
H36_5 H 0.6726 0.0223 0.1125
C73_5 C 0.7040(3) 0.03674(16) 0.14057(16)
C74_5 C 0.7218(3) 0.02206(17) 0.16110(17)
H37_5 H 0.7353 0.0378 0.1715
C77_5 C 0.7102(3) 0.07392(16) 0.13385(19)
C78_5 C 0.6936(3) 0.0884(2) 0.11513(16)
H39_5 H 0.6799 0.0734 0.1045
C79_5 C 0.6958(3) 0.12653(18) 0.11033(17)
H40_5 H 0.6783 0.1368 0.0995
C80_5 C 0.7195(3) 0.14767(17) 0.11952(14)
C81_5 C 0.7437(4) 0.1302(2) 0.1336(2)
H41_5 H 0.7656 0.1421 0.1381
C82_5 C 0.7376(4) 0.0965(2) 0.1415(2)
H42_5 H 0.7538 0.0872 0.1535
C83_5 C 0.7210(2) 0.18657(13) 0.11310(13)
C84_5 C 0.70059(18) 0.20398(14) 0.09787(11)
H43_5 H 0.6822 0.1939 0.0877
C85_5 C 0.69240(13) 0.26924(11) 0.08667(9)
C86_5 C 0.67346(12) 0.26281(11) 0.06544(7)
H44_5 H 0.6736 0.2393 0.0582
C87_5 C 0.65454(10) 0.29025(10) 0.05488(6)
C88_5 C 0.65472(10) 0.32466(11) 0.06502(6)
H45_5 H 0.6415 0.3437 0.0574
C89_5 C 0.67435(10) 0.33157(10) 0.08665(6)
C90_5 C 0.69300(12) 0.30354(12) 0.09728(7)
H46_5 H 0.7064 0.3075 0.1119
C91_5 C 0.62999(11) 0.28280(11) 0.03326(6)
C92_5 C 0.67171(10) 0.36756(10) 0.09893(7)
H47_5 H 0.7393 0.0208 0.2077
H48_5 H 0.7745 0.0004 0.2403
C107_5 C 0.84742(10) 0.01379(10) 0.35599(7)
Cu5_4 Cu 0.56231(2) 0.63915(2) 0.10397(2)
Cu6_4 Cu 0.58368(2) 0.68607(2) 0.13811(2)
O17_5 O 0.56192(7) 0.72124(6) 0.11600(4)
O18_5 O 0.53862(7) 0.68073(7) 0.08915(4)
O21_5 O 0.59963(8) 0.72570(9) 0.16472(5)
O22_5 O 0.54469(13) 0.60157(8) 0.07673(5)
O29_5 O 0.91016(7) 0.89552(6) 0.37628(4)
O30_5 O 0.89717(7) 0.85653(7) 0.34539(4)
N10_5 N 0.53300(17) 0.84254(11) 0.07966(9)
N11_5 N 0.5152(2) 0.87108(16) 0.07302(16)
N12_5 N 0.5333(3) 0.89878(15) 0.07993(18)
N16_5 N 0.81950(15) 0.93103(11) 0.28819(8)
N17_5 N 0.8200(2) 0.89797(14) 0.27852(10)
N18_5 N 0.8013(2) 0.90094(15) 0.25798(11)
C55_5 C 0.54311(10) 0.71278(11) 0.09739(7)
C56_5 C 0.52641(11) 0.74337(11) 0.08323(7)
C57_5 C 0.50146(10) 0.73605(11) 0.06413(7)
H28_5 H 0.4959 0.7116 0.0600
C58_5 C 0.48525(11) 0.76371(10) 0.05154(7)
C59_5 C 0.49501(15) 0.79882(12) 0.05577(8)
H29_5 H 0.4845 0.8180 0.0465
C60_5 C 0.52114(16) 0.80630(12) 0.07429(10)
C61_5 C 0.53601(13) 0.77856(12) 0.08797(8)
H30_5 H 0.5529 0.7839 0.1006
C62_5 C 0.45750(12) 0.75395(12) 0.03272(7)
C63_5 C 0.5600(2) 0.85194(15) 0.09184(13)
H31_5 H 0.5762 0.8359 0.1000
C64_5 C 0.5625(3) 0.88818(18) 0.09170(15)
C65_5 C 0.5929(3) 0.91309(16) 0.10048(16)
C66_5 C 0.5923(3) 0.94753(19) 0.0994(2)
H32_5 H 0.5734 0.9585 0.0901
C67_5 C 0.6170(4) 0.97007(19) 0.1107(2)
H33_5 H 0.6144 0.9956 0.1090
C68_5 C 0.6447(3) 0.95680(17) 0.12397(17)
C69_5 C 0.6490(3) 0.91884(19) 0.12288(18)
H34_5 H 0.6698 0.9074 0.1297
C70_5 C 0.6220(3) 0.8984(2) 0.11145(19)
H35_5 H 0.6243 0.8727 0.1114
C71_5 C 0.6729(3) 0.97983(16) 0.13657(16)
C75_5 C 0.7203(3) 0.98641(16) 0.16645(15)
C76_5 C 0.6913(3) 0.96527(16) 0.15554(15)
H38_5 H 0.6854 0.9418 0.1616
C93_5 C 0.7388(3) 0.97328(15) 0.18981(14)
C94_5 C 0.7467(3) 0.99605(15) 0.20844(14)
C95_5 C 0.7656(2) 0.98342(16) 0.22869(13)
C96_5 C 0.7716(3) 0.94820(16) 0.23233(13)
C97_5 C 0.7669(3) 0.92349(17) 0.21198(15)
H49_5 H 0.7759 0.8993 0.2127
C98_5 C 0.7483(3) 0.93641(18) 0.19100(14)
H50_5 H 0.7423 0.9204 0.1780
C99_5 C 0.7915(2) 0.93483(15) 0.25419(12)
C100_5 C 0.80400(17) 0.95398(13) 0.27307(10)
H51_5 H 0.8021 0.9795 0.2752
C101_5 C 0.83761(14) 0.93842(13) 0.31071(8)
C102_5 C 0.83458(12) 0.97210(12) 0.32143(7)
H52_5 H 0.8207 0.9906 0.3138
C103_5 C 0.85195(10) 0.97897(10) 0.34354(7)
C104_5 C 0.87275(10) 0.95168(11) 0.35466(7)
H53_5 H 0.8851 0.9564 0.3696
C105_5 C 0.87524(11) 0.91790(11) 0.34382(7)
C106_5 C 0.85814(13) 0.91049(12) 0.32122(7)
H54_5 H 0.8605 0.8875 0.3135
C108_5 C 0.89574(10) 0.88639(12) 0.35603(7)
Cu9_4 Cu 0.93769(2) 0.86085(2) 0.39603(2)
Cu13_4 Cu 0.91632(2) 0.81393(2) 0.36189(2)
O37_4 O 0.60786(7) 0.65308(7) 0.08854(4)
O38_4 O 0.62893(6) 0.68858(7) 0.11912(4)
O40_5 O 0.53597(7) 0.67585(7) 0.15249(4)
O42_5 O 0.52012(6) 0.63281(7) 0.12558(5)
O44_5 O 0.58984(7) 0.60448(6) 0.12372(4)
O46_5 O 0.60283(7) 0.64347(7) 0.15461(4)
H55_5 H 0.577623 0.736604 0.172263
H56_5 H 0.614527 0.713842 0.177607
H57_5 H 0.554063 0.609256 0.0604853
H58_5 H 0.55409 0.57696 0.0806904
O17_6 O 0.27876(6) 0.56192(7) 0.11600(4)
O18_6 O 0.31927(7) 0.53862(7) 0.08915(4)
O21_6 O 0.27430(9) 0.59963(8) 0.16472(5)
O22_6 O 0.39843(8) 0.54469(13) 0.07673(5)
O29_6 O 0.10448(6) 0.91016(7) 0.37628(4)
O30_6 O 0.14347(7) 0.89717(7) 0.34539(4)
N10_6 N 0.15746(11) 0.53300(17) 0.07966(9)
N11_6 N 0.12892(16) 0.5152(2) 0.07302(16)
N12_6 N 0.10122(15) 0.5333(3) 0.07993(18)
N16_6 N 0.06897(11) 0.81950(15) 0.28819(8)
N17_6 N 0.10203(14) 0.8200(2) 0.27852(10)
N18_6 N 0.09906(15) 0.8013(2) 0.25798(11)
C55_6 C 0.28722(11) 0.54311(10) 0.09739(7)
C56_6 C 0.25663(11) 0.52641(11) 0.08323(7)
C57_6 C 0.26395(11) 0.50146(10) 0.06413(7)
H28_6 H 0.2884 0.4959 0.0600
C58_6 C 0.23629(10) 0.48525(11) 0.05154(7)
C59_6 C 0.20118(12) 0.49501(15) 0.05577(8)
H29_6 H 0.1820 0.4845 0.0465
C60_6 C 0.19370(12) 0.52114(16) 0.07429(10)
C61_6 C 0.22144(12) 0.53601(13) 0.08797(8)
H30_6 H 0.2161 0.5529 0.1006
C62_6 C 0.24605(12) 0.45750(12) 0.03272(7)
C63_6 C 0.14806(15) 0.5600(2) 0.09184(13)
H31_6 H 0.1641 0.5762 0.1000
C64_6 C 0.11182(18) 0.5625(3) 0.09170(15)
C65_6 C 0.08691(16) 0.5929(3) 0.10048(16)
C66_6 C 0.05247(19) 0.5923(3) 0.0994(2)
H32_6 H 0.0415 0.5734 0.0901
C67_6 C 0.02993(19) 0.6170(4) 0.1107(2)
H33_6 H 0.0044 0.6144 0.1090
C68_6 C 0.04320(17) 0.6447(3) 0.12397(17)
C69_6 C 0.08116(19) 0.6490(3) 0.12288(18)
H34_6 H 0.0926 0.6698 0.1297
C70_6 C 0.1016(2) 0.6220(3) 0.11145(19)
H35_6 H 0.1273 0.6243 0.1114
C71_6 C 0.02017(16) 0.6729(3) 0.13657(16)
C75_6 C 0.01359(16) 0.7203(3) 0.16645(15)
C76_6 C 0.03473(16) 0.6913(3) 0.15554(15)
H38_6 H 0.0582 0.6854 0.1616
C93_6 C 0.02672(15) 0.7388(3) 0.18981(14)
C94_6 C 0.00395(15) 0.7467(3) 0.20844(14)
C95_6 C 0.01658(16) 0.7656(2) 0.22869(13)
C96_6 C 0.05180(16) 0.7716(3) 0.23233(13)
C97_6 C 0.07651(17) 0.7669(3) 0.21198(15)
H49_6 H 0.1007 0.7759 0.2127
C98_6 C 0.06359(18) 0.7483(3) 0.19100(14)
H50_6 H 0.0796 0.7423 0.1780
C99_6 C 0.06517(15) 0.7915(2) 0.25419(12)
C100_6 C 0.04602(13) 0.80400(17) 0.27307(10)
H51_6 H 0.0205 0.8021 0.2752
C101_6 C 0.06158(13) 0.83761(14) 0.31071(8)
C102_6 C 0.02790(12) 0.83458(12) 0.32143(7)
H52_6 H 0.0094 0.8207 0.3138
C103_6 C 0.02103(10) 0.85195(10) 0.34354(7)
C104_6 C 0.04832(11) 0.87275(10) 0.35466(7)
H53_6 H 0.0436 0.8851 0.3696
C105_6 C 0.08210(11) 0.87524(11) 0.34382(7)
C106_6 C 0.08951(12) 0.85814(13) 0.32122(7)
H54_6 H 0.1125 0.8605 0.3135
C108_6 C 0.11361(12) 0.89574(10) 0.35603(7)
O40_6 O 0.32415(7) 0.53597(7) 0.15249(4)
O42_6 O 0.36719(7) 0.52012(6) 0.12558(5)
O44_6 O 0.39552(6) 0.58984(7) 0.12372(4)
O46_6 O 0.35653(7) 0.60283(7) 0.15461(4)
H55_6 H 0.263396 0.577623 0.172263
H56_6 H 0.286158 0.614527 0.177607
H57_6 H 0.390744 0.554063 0.0604853
H58_6 H 0.42304 0.55409 0.0806904
O11_9 O 0.62498(13) 0.17665(11) 0.0000
O12_9 O 0.55107(12) 0.35052(11) 0.0000
H61_3 H 0.535768 0.353471 0.0148446
H62_5 H 0.570546 0.36921 0
H65_3 H 0.64035 0.174075 0.0148446
H66_5 H 0.605969 0.157488 0
O11_10 O 0.62498(13) 0.17665(11) 1.0000
O12_10 O 0.55107(12) 0.35052(11) 1.0000
O32_7 O 0.54343(7) 0.27815(7) 0.97472(4)
O34_7 O 0.56237(7) 0.21968(7) 0.97527(4)
O35_7 O 0.63094(7) 0.25024(8) 0.97464(4)
O36_7 O 0.61106(7) 0.30764(7) 0.97496(4)
H62_6 H 0.570546 0.36921 1
H66_6 H 0.605969 0.157488 1
O23_6 O 0.74976(8) 0.63094(7) 0.02536(4)
O24_6 O 0.69236(7) 0.61106(7) 0.02504(4)
O27_6 O 0.96403(7) 0.82415(7) 0.34751(4)
O28_6 O 0.97988(6) 0.86719(7) 0.37442(5)
N13_6 N 0.76100(10) 0.71032(13) 0.09906(8)
N14_6 N 0.75713(13) 0.73815(17) 0.11384(12)
N15_6 N 0.79008(14) 0.7454(2) 0.12128(13)
C72_6 C 0.98559(16) 0.6821(3) 0.12780(16)
H36_6 H 0.9777 0.6726 0.1125
C73_6 C 0.96326(16) 0.7040(3) 0.14057(16)
C74_6 C 0.97794(17) 0.7218(3) 0.16110(17)
H37_6 H 0.9622 0.7353 0.1715
C77_6 C 0.92608(16) 0.7102(3) 0.13385(19)
C78_6 C 0.9116(2) 0.6936(3) 0.11513(16)
H39_6 H 0.9266 0.6799 0.1045
C79_6 C 0.87347(18) 0.6958(3) 0.11033(17)
H40_6 H 0.8632 0.6783 0.0995
C80_6 C 0.85233(17) 0.7195(3) 0.11952(14)
C81_6 C 0.8698(2) 0.7437(4) 0.1336(2)
H41_6 H 0.8579 0.7656 0.1381
C82_6 C 0.9035(2) 0.7376(4) 0.1415(2)
H42_6 H 0.9128 0.7538 0.1535
C83_6 C 0.81343(13) 0.7210(2) 0.11310(13)
C84_6 C 0.79602(14) 0.70059(18) 0.09787(11)
H43_6 H 0.8061 0.6822 0.0877
C85_6 C 0.73076(11) 0.69240(13) 0.08667(9)
C86_6 C 0.73719(11) 0.67346(12) 0.06544(7)
H44_6 H 0.7607 0.6736 0.0582
C87_6 C 0.70975(10) 0.65454(10) 0.05488(6)
C88_6 C 0.67534(11) 0.65472(10) 0.06502(6)
H45_6 H 0.6563 0.6415 0.0574
C89_6 C 0.66843(10) 0.67435(10) 0.08665(6)
C90_6 C 0.69646(12) 0.69300(12) 0.09728(7)
H46_6 H 0.6925 0.7064 0.1119
C91_6 C 0.71720(11) 0.62999(11) 0.03326(6)
C92_6 C 0.63244(10) 0.67171(10) 0.09893(7)
H47_6 H 0.9792 0.7393 0.2077
H48_6 H 0.9996 0.7745 0.2403
C107_6 C 0.98621(10) 0.84742(10) 0.35599(7)
O11_11 O 0.82335(11) 0.62498(13) 0.0000
O12_11 O 0.64948(11) 0.55107(12) 0.0000
H61_4 H 0.646529 0.535768 0.0148446
H62_7 H 0.63079 0.570546 0
H65_4 H 0.825925 0.64035 0.0148446
H66_7 H 0.842512 0.605969 0
O11_12 O 0.82335(11) 0.62498(13) 1.0000
O12_12 O 0.64948(11) 0.55107(12) 1.0000
O32_8 O 0.72185(7) 0.54343(7) 0.97472(4)
O34_8 O 0.78032(7) 0.56237(7) 0.97527(4)
O35_8 O 0.74976(8) 0.63094(7) 0.97464(4)
O36_8 O 0.69236(7) 0.61106(7) 0.97496(4)
H62_8 H 0.63079 0.570546 1
H66_8 H 0.842512 0.605969 1
O1_3 O 0.06192(7) 0.22124(6) 0.38400(4)
O2_3 O 0.03862(7) 0.18073(7) 0.41085(4)
O5_3 O 0.09963(8) 0.22570(9) 0.33528(5)
O6_3 O 0.04469(13) 0.10157(8) 0.42327(5)
O9_3 O 0.15308(7) 0.89214(7) 0.41146(4)
O10_3 O 0.18858(7) 0.87107(6) 0.38088(4)
N1_3 N 0.03300(17) 0.34254(11) 0.42034(9)
N2_3 N 0.0152(2) 0.37108(16) 0.42698(16)
N3_3 N 0.0333(3) 0.39878(15) 0.42007(18)
N4_3 N 0.21032(13) 0.73900(10) 0.40094(8)
N5_3 N 0.23815(17) 0.74287(13) 0.38616(12)
N6_3 N 0.2454(2) 0.70992(14) 0.37872(13)
N7_3 N 0.31950(15) 0.43103(11) 0.21181(8)
N8_3 N 0.3200(2) 0.39797(14) 0.22148(10)
N9_3 N 0.3013(2) 0.40094(15) 0.24202(11)
C1_3 C 0.04311(10) 0.21278(11) 0.40261(7)
C2_3 C 0.02641(11) 0.24337(11) 0.41677(7)
C3_3 C 0.00146(10) 0.23605(11) 0.43587(7)
C6_3 C 0.02114(16) 0.30630(12) 0.42571(10)
C7_3 C 0.03601(13) 0.27856(12) 0.41203(8)
H3_3 H 0.0529 0.2839 0.3994
C9_3 C 0.0600(2) 0.35194(15) 0.40816(13)
H4_3 H 0.0762 0.3359 0.4000
C10_3 C 0.0625(3) 0.38818(18) 0.40830(15)
C11_3 C 0.0929(3) 0.41309(16) 0.39952(16)
C12_3 C 0.0923(3) 0.44753(19) 0.4006(2)
H5_3 H 0.0734 0.4585 0.4099
C13_3 C 0.1170(4) 0.47007(19) 0.3893(2)
H6_3 H 0.1144 0.4956 0.3910
C14_3 C 0.1447(3) 0.45680(17) 0.37603(17)
C15_3 C 0.1490(3) 0.41884(19) 0.37712(18)
H7_3 H 0.1698 0.4074 0.3703
C16_3 C 0.1220(3) 0.3984(2) 0.38855(19)
H8_3 H 0.1243 0.3727 0.3886
C17_3 C 0.1729(3) 0.47983(16) 0.36343(16)
C18_3 C 0.1821(3) 0.51441(16) 0.37220(16)
H9_3 H 0.1726 0.5223 0.3875
C19_3 C 0.2040(3) 0.53674(16) 0.35943(16)
C20_3 C 0.2218(3) 0.52206(17) 0.33890(17)
H10_3 H 0.2353 0.5378 0.3285
C21_3 C 0.2203(3) 0.48641(16) 0.33355(15)
C22_3 C 0.1913(3) 0.46527(16) 0.34446(15)
H11_3 H 0.1854 0.4418 0.3384
C23_3 C 0.2102(3) 0.57392(16) 0.36615(19)
C24_3 C 0.1936(3) 0.5884(2) 0.38487(16)
H12_3 H 0.1799 0.5734 0.3955
C25_3 C 0.1958(3) 0.62653(18) 0.38967(17)
H13_3 H 0.1783 0.6368 0.4005
C26_3 C 0.2195(3) 0.64767(17) 0.38048(14)
C27_3 C 0.2437(4) 0.6302(2) 0.3664(2)
H14_3 H 0.2656 0.6421 0.3619
C28_3 C 0.2376(4) 0.5965(2) 0.3585(2)
H15_3 H 0.2538 0.5872 0.3465
C29_3 C 0.2210(2) 0.68657(13) 0.38690(13)
C30_3 C 0.20059(18) 0.70398(14) 0.40213(11)
H16_3 H 0.1822 0.6939 0.4123
C31_3 C 0.19240(13) 0.76924(11) 0.41333(9)
C32_3 C 0.17346(12) 0.76281(11) 0.43456(7)
H17_3 H 0.1736 0.7393 0.4418
C33_3 C 0.15454(10) 0.79025(10) 0.44512(6)
C34_3 C 0.15472(10) 0.82466(11) 0.43498(6)
H18_3 H 0.1415 0.8437 0.4426
C35_3 C 0.17435(10) 0.83157(10) 0.41335(6)
C36_3 C 0.19300(12) 0.80354(12) 0.40272(7)
H19_3 H 0.2064 0.8075 0.3881
C37_3 C 0.12999(11) 0.78280(11) 0.46674(6)
C38_3 C 0.17171(10) 0.86756(10) 0.40107(7)
C39_3 C 0.2388(3) 0.47328(15) 0.31019(14)
C40_3 C 0.2467(3) 0.49605(15) 0.29156(14)
H20_3 H 0.2393 0.5208 0.2923
C41_3 C 0.2656(2) 0.48342(16) 0.27131(13)
H21_3 H 0.2745 0.5004 0.2597
C42_3 C 0.2716(3) 0.44820(16) 0.26767(13)
C43_3 C 0.2669(3) 0.42349(17) 0.28802(15)
H22_3 H 0.2759 0.3993 0.2873
C44_3 C 0.2483(3) 0.43641(18) 0.30900(14)
H23_3 H 0.2423 0.4204 0.3220
C45_3 C 0.2915(2) 0.43483(15) 0.24581(12)
C46_3 C 0.30400(17) 0.45398(13) 0.22693(10)
H24_3 H 0.3021 0.4795 0.2248
C47_3 C 0.33761(14) 0.43842(13) 0.18929(8)
C48_3 C 0.33458(12) 0.47210(12) 0.17857(7)
H25_3 H 0.3207 0.4906 0.1862
C49_3 C 0.35195(10) 0.47897(10) 0.15646(7)
C50_3 C 0.37275(10) 0.45168(11) 0.14534(7)
H26_3 H 0.3851 0.4564 0.1304
C51_3 C 0.37524(11) 0.41790(11) 0.15618(7)
C52_3 C 0.35814(13) 0.41049(12) 0.17878(7)
H27_3 H 0.3605 0.3875 0.1865
C53_3 C 0.34742(10) 0.51379(10) 0.14401(7)
C54_3 C 0.39574(10) 0.38639(12) 0.14397(7)
O17_7 O 0.77876(6) 0.06192(7) 0.38400(4)
O18_7 O 0.81927(7) 0.03862(7) 0.41085(4)
O21_7 O 0.77430(9) 0.09963(8) 0.33528(5)
O22_7 O 0.89843(8) 0.04469(13) 0.42327(5)
O25_3 O 0.10786(7) 0.15308(7) 0.41146(4)
O26_3 O 0.12893(6) 0.18858(7) 0.38088(4)
N10_7 N 0.65746(11) 0.03300(17) 0.42034(9)
N11_7 N 0.62892(16) 0.0152(2) 0.42698(16)
N12_7 N 0.60122(15) 0.0333(3) 0.42007(18)
N13_7 N 0.26100(10) 0.21032(13) 0.40094(8)
N14_7 N 0.25713(13) 0.23815(17) 0.38616(12)
N15_7 N 0.29008(14) 0.2454(2) 0.37872(13)
N16_7 N 0.56897(11) 0.31950(15) 0.21181(8)
N17_7 N 0.60203(14) 0.3200(2) 0.22148(10)
N18_7 N 0.59906(15) 0.3013(2) 0.24202(11)
C55_7 C 0.78722(11) 0.04311(10) 0.40261(7)
C56_7 C 0.75663(11) 0.02641(11) 0.41677(7)
C57_7 C 0.76395(11) 0.00146(10) 0.43587(7)
C60_7 C 0.69370(12) 0.02114(16) 0.42571(10)
C61_7 C 0.72144(12) 0.03601(13) 0.41203(8)
H30_7 H 0.7161 0.0529 0.3994
C63_7 C 0.64806(15) 0.0600(2) 0.40816(13)
H31_7 H 0.6641 0.0762 0.4000
C64_7 C 0.61182(18) 0.0625(3) 0.40830(15)
C65_7 C 0.58691(16) 0.0929(3) 0.39952(16)
C66_7 C 0.55247(19) 0.0923(3) 0.4006(2)
H32_7 H 0.5415 0.0734 0.4099
C67_7 C 0.52993(19) 0.1170(4) 0.3893(2)
H33_7 H 0.5044 0.1144 0.3910
C68_7 C 0.54320(17) 0.1447(3) 0.37603(17)
C69_7 C 0.58116(19) 0.1490(3) 0.37712(18)
H34_7 H 0.5926 0.1698 0.3703
C70_7 C 0.6016(2) 0.1220(3) 0.38855(19)
H35_7 H 0.6273 0.1243 0.3886
C71_7 C 0.52017(16) 0.1729(3) 0.36343(16)
C72_7 C 0.48559(16) 0.1821(3) 0.37220(16)
H36_7 H 0.4777 0.1726 0.3875
C73_7 C 0.46326(16) 0.2040(3) 0.35943(16)
C74_7 C 0.47794(17) 0.2218(3) 0.33890(17)
H37_7 H 0.4622 0.2353 0.3285
C75_7 C 0.51359(16) 0.2203(3) 0.33355(15)
C76_7 C 0.53473(16) 0.1913(3) 0.34446(15)
H38_7 H 0.5582 0.1854 0.3384
C77_7 C 0.42608(16) 0.2102(3) 0.36615(19)
C78_7 C 0.4116(2) 0.1936(3) 0.38487(16)
H39_7 H 0.4266 0.1799 0.3955
C79_7 C 0.37347(18) 0.1958(3) 0.38967(17)
H40_7 H 0.3632 0.1783 0.4005
C80_7 C 0.35233(17) 0.2195(3) 0.38048(14)
C81_7 C 0.3698(2) 0.2437(4) 0.3664(2)
H41_7 H 0.3579 0.2656 0.3619
C82_7 C 0.4035(2) 0.2376(4) 0.3585(2)
H42_7 H 0.4128 0.2538 0.3465
C83_7 C 0.31343(13) 0.2210(2) 0.38690(13)
C84_7 C 0.29602(14) 0.20059(18) 0.40213(11)
H43_7 H 0.3061 0.1822 0.4123
C85_7 C 0.23076(11) 0.19240(13) 0.41333(9)
C86_7 C 0.23719(11) 0.17346(12) 0.43456(7)
H44_7 H 0.2607 0.1736 0.4418
C87_7 C 0.20975(10) 0.15454(10) 0.44512(6)
C88_7 C 0.17534(11) 0.15472(10) 0.43498(6)
H45_7 H 0.1563 0.1415 0.4426
C89_7 C 0.16843(10) 0.17435(10) 0.41335(6)
C90_7 C 0.19646(12) 0.19300(12) 0.40272(7)
H46_7 H 0.1925 0.2064 0.3881
C91_7 C 0.21720(11) 0.12999(11) 0.46674(6)
C92_7 C 0.13244(10) 0.17171(10) 0.40107(7)
C93_7 C 0.52672(15) 0.2388(3) 0.31019(14)
C94_7 C 0.50395(15) 0.2467(3) 0.29156(14)
H47_7 H 0.4792 0.2393 0.2923
C95_7 C 0.51658(16) 0.2656(2) 0.27131(13)
H48_7 H 0.4996 0.2745 0.2597
C96_7 C 0.55180(16) 0.2716(3) 0.26767(13)
C97_7 C 0.57651(17) 0.2669(3) 0.28802(15)
H49_7 H 0.6007 0.2759 0.2873
C98_7 C 0.56359(18) 0.2483(3) 0.30900(14)
H50_7 H 0.5796 0.2423 0.3220
C99_7 C 0.56517(15) 0.2915(2) 0.24581(12)
C100_7 C 0.54602(13) 0.30400(17) 0.22693(10)
H51_7 H 0.5205 0.3021 0.2248
C101_7 C 0.56158(13) 0.33761(14) 0.18929(8)
C102_7 C 0.52790(12) 0.33458(12) 0.17857(7)
H52_7 H 0.5094 0.3207 0.1862
C103_7 C 0.52103(10) 0.35195(10) 0.15646(7)
C104_7 C 0.54832(11) 0.37275(10) 0.14534(7)
H53_7 H 0.5436 0.3851 0.1304
C105_7 C 0.58210(11) 0.37524(11) 0.15618(7)
C106_7 C 0.58951(12) 0.35814(13) 0.17878(7)
H54_7 H 0.6125 0.3605 0.1865
C107_7 C 0.48621(10) 0.34742(10) 0.14401(7)
C108_7 C 0.61361(12) 0.39574(10) 0.14397(7)
O37_5 O 0.84692(7) 0.10786(7) 0.41146(4)
O38_5 O 0.81142(7) 0.12893(6) 0.38088(4)
H55_7 H 0.763396 0.0776231 0.327737
H56_7 H 0.786158 0.114527 0.322393
H57_7 H 0.890744 0.0540625 0.439515
H58_7 H 0.92304 0.0540903 0.41931
H59_3 H 0.0776231 0.236604 0.327737
H60_3 H 0.114527 0.213842 0.322393
H63_3 H 0.0540625 0.109256 0.439515
H64_3 H 0.0540903 0.0769596 0.41931
H28_7 H 0.7884 0.9959 0.4400
C58_7 C 0.73629(10) 0.98525(11) 0.44846(7)
C59_7 C 0.70118(12) 0.99501(15) 0.44423(8)
H29_7 H 0.6820 0.9845 0.4535
C62_7 C 0.74605(12) 0.95750(12) 0.46728(7)
H1_3 H 0.9959 0.2116 0.4400
C4_3 C 0.98525(11) 0.26371(10) 0.44846(7)
C5_3 C 0.99501(15) 0.29882(12) 0.44423(8)
H2_3 H 0.9845 0.3180 0.4535
C8_3 C 0.95750(12) 0.25395(12) 0.46728(7)
H28_8 H 0.0041 0.7884 0.4400
C58_8 C 0.01475(11) 0.73629(10) 0.44846(7)
C59_8 C 0.00499(15) 0.70118(12) 0.44423(8)
H29_8 H 0.0155 0.6820 0.4535
C62_8 C 0.04250(12) 0.74605(12) 0.46728(7)
O17_8 O 0.93808(7) 0.77876(6) 0.38400(4)
O18_8 O 0.96138(7) 0.81927(7) 0.41085(4)
O21_8 O 0.90037(8) 0.77430(9) 0.33528(5)
O22_8 O 0.95531(13) 0.89843(8) 0.42327(5)
N10_8 N 0.96700(17) 0.65746(11) 0.42034(9)
N11_8 N 0.9848(2) 0.62892(16) 0.42698(16)
N12_8 N 0.9667(3) 0.60122(15) 0.42007(18)
N13_8 N 0.78968(13) 0.26100(10) 0.40094(8)
N14_8 N 0.76185(17) 0.25713(13) 0.38616(12)
N15_8 N 0.7546(2) 0.29008(14) 0.37872(13)
N16_8 N 0.68050(15) 0.56897(11) 0.21181(8)
N17_8 N 0.6800(2) 0.60203(14) 0.22148(10)
N18_8 N 0.6987(2) 0.59906(15) 0.24202(11)
C55_8 C 0.95689(10) 0.78722(11) 0.40261(7)
C56_8 C 0.97359(11) 0.75663(11) 0.41677(7)
C57_8 C 0.99854(10) 0.76395(11) 0.43587(7)
C60_8 C 0.97886(16) 0.69370(12) 0.42571(10)
C61_8 C 0.96399(13) 0.72144(12) 0.41203(8)
H30_8 H 0.9471 0.7161 0.3994
C63_8 C 0.9400(2) 0.64806(15) 0.40816(13)
H31_8 H 0.9238 0.6641 0.4000
C64_8 C 0.9375(3) 0.61182(18) 0.40830(15)
C65_8 C 0.9071(3) 0.58691(16) 0.39952(16)
C66_8 C 0.9077(3) 0.55247(19) 0.4006(2)
H32_8 H 0.9266 0.5415 0.4099
C67_8 C 0.8830(4) 0.52993(19) 0.3893(2)
H33_8 H 0.8856 0.5044 0.3910
C68_8 C 0.8553(3) 0.54320(17) 0.37603(17)
C69_8 C 0.8510(3) 0.58116(19) 0.37712(18)
H34_8 H 0.8302 0.5926 0.3703
C70_8 C 0.8780(3) 0.6016(2) 0.38855(19)
H35_8 H 0.8757 0.6273 0.3886
C71_8 C 0.8271(3) 0.52017(16) 0.36343(16)
C72_8 C 0.8179(3) 0.48559(16) 0.37220(16)
H36_8 H 0.8274 0.4777 0.3875
C73_8 C 0.7960(3) 0.46326(16) 0.35943(16)
C74_8 C 0.7782(3) 0.47794(17) 0.33890(17)
H37_8 H 0.7647 0.4622 0.3285
C75_8 C 0.7797(3) 0.51359(16) 0.33355(15)
C76_8 C 0.8087(3) 0.53473(16) 0.34446(15)
H38_8 H 0.8146 0.5582 0.3384
C77_8 C 0.7898(3) 0.42608(16) 0.36615(19)
C78_8 C 0.8064(3) 0.4116(2) 0.38487(16)
H39_8 H 0.8201 0.4266 0.3955
C79_8 C 0.8042(3) 0.37347(18) 0.38967(17)
H40_8 H 0.8217 0.3632 0.4005
C80_8 C 0.7805(3) 0.35233(17) 0.38048(14)
C81_8 C 0.7563(4) 0.3698(2) 0.3664(2)
H41_8 H 0.7344 0.3579 0.3619
C82_8 C 0.7624(4) 0.4035(2) 0.3585(2)
H42_8 H 0.7462 0.4128 0.3465
C83_8 C 0.7790(2) 0.31343(13) 0.38690(13)
C84_8 C 0.79941(18) 0.29602(14) 0.40213(11)
H43_8 H 0.8178 0.3061 0.4123
C85_8 C 0.80760(13) 0.23076(11) 0.41333(9)
C86_8 C 0.82654(12) 0.23719(11) 0.43456(7)
H44_8 H 0.8264 0.2607 0.4418
C87_8 C 0.84546(10) 0.20975(10) 0.44512(6)
C88_8 C 0.84528(10) 0.17534(11) 0.43498(6)
H45_8 H 0.8585 0.1563 0.4426
C89_8 C 0.82565(10) 0.16843(10) 0.41335(6)
C90_8 C 0.80700(12) 0.19646(12) 0.40272(7)
H46_8 H 0.7936 0.1925 0.3881
C91_8 C 0.87001(11) 0.21720(11) 0.46674(6)
C92_8 C 0.82829(10) 0.13244(10) 0.40107(7)
C93_8 C 0.7612(3) 0.52672(15) 0.31019(14)
C94_8 C 0.7533(3) 0.50395(15) 0.29156(14)
H47_8 H 0.7607 0.4792 0.2923
C95_8 C 0.7344(2) 0.51658(16) 0.27131(13)
H48_8 H 0.7255 0.4996 0.2597
C96_8 C 0.7284(3) 0.55180(16) 0.26767(13)
C97_8 C 0.7331(3) 0.57651(17) 0.28802(15)
H49_8 H 0.7241 0.6007 0.2873
C98_8 C 0.7517(3) 0.56359(18) 0.30900(14)
H50_8 H 0.7577 0.5796 0.3220
C99_8 C 0.7085(2) 0.56517(15) 0.24581(12)
C100_8 C 0.69600(17) 0.54602(13) 0.22693(10)
H51_8 H 0.6979 0.5205 0.2248
C101_8 C 0.66239(14) 0.56158(13) 0.18929(8)
C102_8 C 0.66542(12) 0.52790(12) 0.17857(7)
H52_8 H 0.6793 0.5094 0.1862
C103_8 C 0.64805(10) 0.52103(10) 0.15646(7)
C104_8 C 0.62725(10) 0.54832(11) 0.14534(7)
H53_8 H 0.6149 0.5436 0.1304
C105_8 C 0.62476(11) 0.58210(11) 0.15618(7)
C106_8 C 0.64186(13) 0.58951(12) 0.17878(7)
H54_8 H 0.6395 0.6125 0.1865
C107_8 C 0.65258(10) 0.48621(10) 0.14401(7)
C108_8 C 0.60426(10) 0.61361(12) 0.14397(7)
O37_6 O 0.89214(7) 0.84692(7) 0.41146(4)
O38_6 O 0.87107(6) 0.81142(7) 0.38088(4)
H55_8 H 0.922377 0.763396 0.327737
H56_8 H 0.885473 0.786158 0.322393
H57_8 H 0.945937 0.890744 0.439515
H58_8 H 0.94591 0.92304 0.41931
H28_9 H 0.2116 0.0041 0.4400
C58_9 C 0.26371(10) 0.01475(11) 0.44846(7)
C59_9 C 0.29882(12) 0.00499(15) 0.44423(8)
H29_9 H 0.3180 0.0155 0.4535
C62_9 C 0.25395(12) 0.04250(12) 0.46728(7)
O17_9 O 0.22124(6) 0.93808(7) 0.38400(4)
O18_9 O 0.18073(7) 0.96138(7) 0.41085(4)
O21_9 O 0.22570(9) 0.90037(8) 0.33528(5)
O22_9 O 0.10157(8) 0.95531(13) 0.42327(5)
N10_9 N 0.34254(11) 0.96700(17) 0.42034(9)
N11_9 N 0.37108(16) 0.9848(2) 0.42698(16)
N12_9 N 0.39878(15) 0.9667(3) 0.42007(18)
N13_9 N 0.73900(10) 0.78968(13) 0.40094(8)
N14_9 N 0.74287(13) 0.76185(17) 0.38616(12)
N15_9 N 0.70992(14) 0.7546(2) 0.37872(13)
N16_9 N 0.43103(11) 0.68050(15) 0.21181(8)
N17_9 N 0.39797(14) 0.6800(2) 0.22148(10)
N18_9 N 0.40094(15) 0.6987(2) 0.24202(11)
C55_9 C 0.21278(11) 0.95689(10) 0.40261(7)
C56_9 C 0.24337(11) 0.97359(11) 0.41677(7)
C57_9 C 0.23605(11) 0.99854(10) 0.43587(7)
C60_9 C 0.30630(12) 0.97886(16) 0.42571(10)
C61_9 C 0.27856(12) 0.96399(13) 0.41203(8)
H30_9 H 0.2839 0.9471 0.3994
C63_9 C 0.35194(15) 0.9400(2) 0.40816(13)
H31_9 H 0.3359 0.9238 0.4000
C64_9 C 0.38818(18) 0.9375(3) 0.40830(15)
C65_9 C 0.41309(16) 0.9071(3) 0.39952(16)
C66_9 C 0.44753(19) 0.9077(3) 0.4006(2)
H32_9 H 0.4585 0.9266 0.4099
C67_9 C 0.47007(19) 0.8830(4) 0.3893(2)
H33_9 H 0.4956 0.8856 0.3910
C68_9 C 0.45680(17) 0.8553(3) 0.37603(17)
C69_9 C 0.41884(19) 0.8510(3) 0.37712(18)
H34_9 H 0.4074 0.8302 0.3703
C70_9 C 0.3984(2) 0.8780(3) 0.38855(19)
H35_9 H 0.3727 0.8757 0.3886
C71_9 C 0.47983(16) 0.8271(3) 0.36343(16)
C72_9 C 0.51441(16) 0.8179(3) 0.37220(16)
H36_9 H 0.5223 0.8274 0.3875
C73_9 C 0.53674(16) 0.7960(3) 0.35943(16)
C74_9 C 0.52206(17) 0.7782(3) 0.33890(17)
H37_9 H 0.5378 0.7647 0.3285
C75_9 C 0.48641(16) 0.7797(3) 0.33355(15)
C76_9 C 0.46527(16) 0.8087(3) 0.34446(15)
H38_9 H 0.4418 0.8146 0.3384
C77_9 C 0.57392(16) 0.7898(3) 0.36615(19)
C78_9 C 0.5884(2) 0.8064(3) 0.38487(16)
H39_9 H 0.5734 0.8201 0.3955
C79_9 C 0.62653(18) 0.8042(3) 0.38967(17)
H40_9 H 0.6368 0.8217 0.4005
C80_9 C 0.64767(17) 0.7805(3) 0.38048(14)
C81_9 C 0.6302(2) 0.7563(4) 0.3664(2)
H41_9 H 0.6421 0.7344 0.3619
C82_9 C 0.5965(2) 0.7624(4) 0.3585(2)
H42_9 H 0.5872 0.7462 0.3465
C83_9 C 0.68657(13) 0.7790(2) 0.38690(13)
C84_9 C 0.70398(14) 0.79941(18) 0.40213(11)
H43_9 H 0.6939 0.8178 0.4123
C85_9 C 0.76924(11) 0.80760(13) 0.41333(9)
C86_9 C 0.76281(11) 0.82654(12) 0.43456(7)
H44_9 H 0.7393 0.8264 0.4418
C87_9 C 0.79025(10) 0.84546(10) 0.44512(6)
C88_9 C 0.82466(11) 0.84528(10) 0.43498(6)
H45_9 H 0.8437 0.8585 0.4426
C89_9 C 0.83157(10) 0.82565(10) 0.41335(6)
C90_9 C 0.80354(12) 0.80700(12) 0.40272(7)
H46_9 H 0.8075 0.7936 0.3881
C91_9 C 0.78280(11) 0.87001(11) 0.46674(6)
C92_9 C 0.86756(10) 0.82829(10) 0.40107(7)
C93_9 C 0.47328(15) 0.7612(3) 0.31019(14)
C94_9 C 0.49605(15) 0.7533(3) 0.29156(14)
H47_9 H 0.5208 0.7607 0.2923
C95_9 C 0.48342(16) 0.7344(2) 0.27131(13)
H48_9 H 0.5004 0.7255 0.2597
C96_9 C 0.44820(16) 0.7284(3) 0.26767(13)
C97_9 C 0.42349(17) 0.7331(3) 0.28802(15)
H49_9 H 0.3993 0.7241 0.2873
C98_9 C 0.43641(18) 0.7517(3) 0.30900(14)
H50_9 H 0.4204 0.7577 0.3220
C99_9 C 0.43483(15) 0.7085(2) 0.24581(12)
C100_9 C 0.45398(13) 0.69600(17) 0.22693(10)
H51_9 H 0.4795 0.6979 0.2248
C101_9 C 0.43842(13) 0.66239(14) 0.18929(8)
C102_9 C 0.47210(12) 0.66542(12) 0.17857(7)
H52_9 H 0.4906 0.6793 0.1862
C103_9 C 0.47897(10) 0.64805(10) 0.15646(7)
C104_9 C 0.45168(11) 0.62725(10) 0.14534(7)
H53_9 H 0.4564 0.6149 0.1304
C105_9 C 0.41790(11) 0.62476(11) 0.15618(7)
C106_9 C 0.41049(12) 0.64186(13) 0.17878(7)
H54_9 H 0.3875 0.6395 0.1865
C107_9 C 0.51379(10) 0.65258(10) 0.14401(7)
C108_9 C 0.38639(12) 0.60426(10) 0.14397(7)
H55_9 H 0.236604 0.922377 0.327737
H56_9 H 0.213842 0.885473 0.322393
H57_9 H 0.109256 0.945937 0.439515
H58_9 H 0.0769596 0.94591 0.41931
O17_10 O 0.27876(6) 0.56192(7) 0.88400(4)
O18_10 O 0.31927(7) 0.53862(7) 0.91085(4)
O21_10 O 0.27430(9) 0.59963(8) 0.83528(5)
O22_10 O 0.39843(8) 0.54469(13) 0.92327(5)
N10_10 N 0.15746(11) 0.53300(17) 0.92034(9)
N11_10 N 0.12892(16) 0.5152(2) 0.92698(16)
N12_10 N 0.10122(15) 0.5333(3) 0.92007(18)
N16_10 N 0.06897(11) 0.81950(15) 0.71181(8)
N17_10 N 0.10203(14) 0.8200(2) 0.72148(10)
N18_10 N 0.09906(15) 0.8013(2) 0.74202(11)
C55_10 C 0.28722(11) 0.54311(10) 0.90261(7)
C56_10 C 0.25663(11) 0.52641(11) 0.91677(7)
C57_10 C 0.26395(11) 0.50146(10) 0.93587(7)
H28_10 H 0.2884 0.4959 0.9400
C58_10 C 0.23629(10) 0.48525(11) 0.94846(7)
C59_10 C 0.20118(12) 0.49501(15) 0.94423(8)
H29_10 H 0.1820 0.4845 0.9535
C60_10 C 0.19370(12) 0.52114(16) 0.92571(10)
C61_10 C 0.22144(12) 0.53601(13) 0.91203(8)
H30_10 H 0.2161 0.5529 0.8994
C62_10 C 0.24605(12) 0.45750(12) 0.96728(7)
C63_10 C 0.14806(15) 0.5600(2) 0.90816(13)
H31_10 H 0.1641 0.5762 0.9000
C64_10 C 0.11182(18) 0.5625(3) 0.90830(15)
C65_10 C 0.08691(16) 0.5929(3) 0.89952(16)
C66_10 C 0.05247(19) 0.5923(3) 0.9006(2)
H32_10 H 0.0415 0.5734 0.9099
C67_10 C 0.02993(19) 0.6170(4) 0.8893(2)
H33_10 H 0.0044 0.6144 0.8910
C68_10 C 0.04320(17) 0.6447(3) 0.87603(17)
C69_10 C 0.08116(19) 0.6490(3) 0.87712(18)
H34_10 H 0.0926 0.6698 0.8703
C70_10 C 0.1016(2) 0.6220(3) 0.88855(19)
H35_10 H 0.1273 0.6243 0.8886
C71_10 C 0.02017(16) 0.6729(3) 0.86343(16)
C75_10 C 0.01359(16) 0.7203(3) 0.83355(15)
C76_10 C 0.03473(16) 0.6913(3) 0.84446(15)
H38_10 H 0.0582 0.6854 0.8384
C93_10 C 0.02672(15) 0.7388(3) 0.81019(14)
C94_10 C 0.00395(15) 0.7467(3) 0.79156(14)
C95_10 C 0.01658(16) 0.7656(2) 0.77131(13)
C96_10 C 0.05180(16) 0.7716(3) 0.76767(13)
C97_10 C 0.07651(17) 0.7669(3) 0.78802(15)
H49_10 H 0.1007 0.7759 0.7873
C98_10 C 0.06359(18) 0.7483(3) 0.80900(14)
H50_10 H 0.0796 0.7423 0.8220
C99_10 C 0.06517(15) 0.7915(2) 0.74581(12)
C100_10 C 0.04602(13) 0.80400(17) 0.72693(10)
H51_10 H 0.0205 0.8021 0.7248
C101_10 C 0.06158(13) 0.83761(14) 0.68929(8)
C102_10 C 0.02790(12) 0.83458(12) 0.67857(7)
H52_10 H 0.0094 0.8207 0.6862
C103_10 C 0.02103(10) 0.85195(10) 0.65646(7)
C104_10 C 0.04832(11) 0.87275(10) 0.64534(7)
H53_10 H 0.0436 0.8851 0.6304
C105_10 C 0.08210(11) 0.87524(11) 0.65618(7)
C106_10 C 0.08951(12) 0.85814(13) 0.67878(7)
H54_10 H 0.1125 0.8605 0.6865
C108_10 C 0.11361(12) 0.89574(10) 0.64397(7)
O37_7 O 0.34692(7) 0.60786(7) 0.91146(4)
O38_7 O 0.31142(7) 0.62893(6) 0.88088(4)
H55_10 H 0.263396 0.577623 0.827737
H56_10 H 0.286158 0.614527 0.822393
H57_10 H 0.390744 0.554063 0.939515
H58_10 H 0.42304 0.55409 0.91931
O9_4 O 0.65308(7) 0.39214(7) 0.91146(4)
O10_4 O 0.68858(7) 0.37107(6) 0.88088(4)
N4_4 N 0.71032(13) 0.23900(10) 0.90094(8)
N5_4 N 0.73815(17) 0.24287(13) 0.88616(12)
N6_4 N 0.7454(2) 0.20992(14) 0.87872(13)
C18_4 C 0.6821(3) 0.01441(16) 0.87220(16)
H9_4 H 0.6726 0.0223 0.8875
C19_4 C 0.7040(3) 0.03674(16) 0.85943(16)
C20_4 C 0.7218(3) 0.02206(17) 0.83890(17)
H10_4 H 0.7353 0.0378 0.8285
C23_4 C 0.7102(3) 0.07392(16) 0.86615(19)
C24_4 C 0.6936(3) 0.0884(2) 0.88487(16)
H12_4 H 0.6799 0.0734 0.8955
C25_4 C 0.6958(3) 0.12653(18) 0.88967(17)
H13_4 H 0.6783 0.1368 0.9005
C26_4 C 0.7195(3) 0.14767(17) 0.88048(14)
C27_4 C 0.7437(4) 0.1302(2) 0.8664(2)
H14_4 H 0.7656 0.1421 0.8619
C28_4 C 0.7376(4) 0.0965(2) 0.8585(2)
H15_4 H 0.7538 0.0872 0.8465
C29_4 C 0.7210(2) 0.18657(13) 0.88690(13)
C30_4 C 0.70059(18) 0.20398(14) 0.90213(11)
H16_4 H 0.6822 0.1939 0.9123
C31_4 C 0.69240(13) 0.26924(11) 0.91333(9)
C32_4 C 0.67346(12) 0.26281(11) 0.93456(7)
H17_4 H 0.6736 0.2393 0.9418
C33_4 C 0.65454(10) 0.29025(10) 0.94512(6)
C34_4 C 0.65472(10) 0.32466(11) 0.93498(6)
H18_4 H 0.6415 0.3437 0.9426
C35_4 C 0.67435(10) 0.33157(10) 0.91335(6)
C36_4 C 0.69300(12) 0.30354(12) 0.90272(7)
H19_4 H 0.7064 0.3075 0.8881
C37_4 C 0.62999(11) 0.28280(11) 0.96674(6)
C38_4 C 0.67171(10) 0.36756(10) 0.90107(7)
H20_4 H 0.7393 0.0208 0.7923
H21_4 H 0.7745 0.0004 0.7597
C53_4 C 0.84742(10) 0.01379(10) 0.64401(7)
H61_5 H 0.535768 0.353471 0.985155
H65_5 H 0.64035 0.174075 0.985155
O1_4 O 0.56192(7) 0.72124(6) 0.88400(4)
O2_4 O 0.53862(7) 0.68073(7) 0.91085(4)
O5_4 O 0.59963(8) 0.72570(9) 0.83528(5)
O6_4 O 0.54469(13) 0.60157(8) 0.92327(5)
N1_4 N 0.53300(17) 0.84254(11) 0.92034(9)
N2_4 N 0.5152(2) 0.87108(16) 0.92698(16)
N3_4 N 0.5333(3) 0.89878(15) 0.92007(18)
N7_4 N 0.81950(15) 0.93103(11) 0.71181(8)
N8_4 N 0.8200(2) 0.89797(14) 0.72148(10)
N9_4 N 0.8013(2) 0.90094(15) 0.74202(11)
C1_4 C 0.54311(10) 0.71278(11) 0.90261(7)
C2_4 C 0.52641(11) 0.74337(11) 0.91677(7)
C3_4 C 0.50146(10) 0.73605(11) 0.93587(7)
H1_4 H 0.4959 0.7116 0.9400
C4_4 C 0.48525(11) 0.76371(10) 0.94846(7)
C5_4 C 0.49501(15) 0.79882(12) 0.94423(8)
H2_4 H 0.4845 0.8180 0.9535
C6_4 C 0.52114(16) 0.80630(12) 0.92571(10)
C7_4 C 0.53601(13) 0.77856(12) 0.91203(8)
H3_4 H 0.5529 0.7839 0.8994
C8_4 C 0.45750(12) 0.75395(12) 0.96728(7)
C9_4 C 0.5600(2) 0.85194(15) 0.90816(13)
H4_4 H 0.5762 0.8359 0.9000
C10_4 C 0.5625(3) 0.88818(18) 0.90830(15)
C11_4 C 0.5929(3) 0.91309(16) 0.89952(16)
C12_4 C 0.5923(3) 0.94753(19) 0.9006(2)
H5_4 H 0.5734 0.9585 0.9099
C13_4 C 0.6170(4) 0.97007(19) 0.8893(2)
H6_4 H 0.6144 0.9956 0.8910
C14_4 C 0.6447(3) 0.95680(17) 0.87603(17)
C15_4 C 0.6490(3) 0.91884(19) 0.87712(18)
H7_4 H 0.6698 0.9074 0.8703
C16_4 C 0.6220(3) 0.8984(2) 0.88855(19)
H8_4 H 0.6243 0.8727 0.8886
C17_4 C 0.6729(3) 0.97983(16) 0.86343(16)
C21_4 C 0.7203(3) 0.98641(16) 0.83355(15)
C22_4 C 0.6913(3) 0.96527(16) 0.84446(15)
H11_4 H 0.6854 0.9418 0.8384
C39_4 C 0.7388(3) 0.97328(15) 0.81019(14)
C40_4 C 0.7467(3) 0.99605(15) 0.79156(14)
C41_4 C 0.7656(2) 0.98342(16) 0.77131(13)
C42_4 C 0.7716(3) 0.94820(16) 0.76767(13)
C43_4 C 0.7669(3) 0.92349(17) 0.78802(15)
H22_4 H 0.7759 0.8993 0.7873
C44_4 C 0.7483(3) 0.93641(18) 0.80900(14)
H23_4 H 0.7423 0.9204 0.8220
C45_4 C 0.7915(2) 0.93483(15) 0.74581(12)
C46_4 C 0.80400(17) 0.95398(13) 0.72693(10)
H24_4 H 0.8021 0.9795 0.7248
C47_4 C 0.83761(14) 0.93842(13) 0.68929(8)
C48_4 C 0.83458(12) 0.97210(12) 0.67857(7)
H25_4 H 0.8207 0.9906 0.6862
C49_4 C 0.85195(10) 0.97897(10) 0.65646(7)
C50_4 C 0.87275(10) 0.95168(11) 0.64534(7)
H26_4 H 0.8851 0.9564 0.6304
C51_4 C 0.87524(11) 0.91790(11) 0.65618(7)
C52_4 C 0.85814(13) 0.91049(12) 0.67878(7)
H27_4 H 0.8605 0.8875 0.6865
C54_4 C 0.89574(10) 0.88639(12) 0.64397(7)
O25_4 O 0.60786(7) 0.65308(7) 0.91146(4)
O26_4 O 0.62893(6) 0.68858(7) 0.88088(4)
N13_10 N 0.76100(10) 0.71032(13) 0.90094(8)
N14_10 N 0.75713(13) 0.73815(17) 0.88616(12)
N15_10 N 0.79008(14) 0.7454(2) 0.87872(13)
C72_10 C 0.98559(16) 0.6821(3) 0.87220(16)
H36_10 H 0.9777 0.6726 0.8875
C73_10 C 0.96326(16) 0.7040(3) 0.85943(16)
C74_10 C 0.97794(17) 0.7218(3) 0.83890(17)
H37_10 H 0.9622 0.7353 0.8285
C77_10 C 0.92608(16) 0.7102(3) 0.86615(19)
C78_10 C 0.9116(2) 0.6936(3) 0.88487(16)
H39_10 H 0.9266 0.6799 0.8955
C79_10 C 0.87347(18) 0.6958(3) 0.88967(17)
H40_10 H 0.8632 0.6783 0.9005
C80_10 C 0.85233(17) 0.7195(3) 0.88048(14)
C81_10 C 0.8698(2) 0.7437(4) 0.8664(2)
H41_10 H 0.8579 0.7656 0.8619
C82_10 C 0.9035(2) 0.7376(4) 0.8585(2)
H42_10 H 0.9128 0.7538 0.8465
C83_10 C 0.81343(13) 0.7210(2) 0.88690(13)
C84_10 C 0.79602(14) 0.70059(18) 0.90213(11)
H43_10 H 0.8061 0.6822 0.9123
C85_10 C 0.73076(11) 0.69240(13) 0.91333(9)
C86_10 C 0.73719(11) 0.67346(12) 0.93456(7)
H44_10 H 0.7607 0.6736 0.9418
C87_10 C 0.70975(10) 0.65454(10) 0.94512(6)
C88_10 C 0.67534(11) 0.65472(10) 0.93498(6)
H45_10 H 0.6563 0.6415 0.9426
C89_10 C 0.66843(10) 0.67435(10) 0.91335(6)
C90_10 C 0.69646(12) 0.69300(12) 0.90272(7)
H46_10 H 0.6925 0.7064 0.8881
C91_10 C 0.71720(11) 0.62999(11) 0.96674(6)
C92_10 C 0.63244(10) 0.67171(10) 0.90107(7)
H47_10 H 0.9792 0.7393 0.7923
H48_10 H 0.9996 0.7745 0.7597
C107_10 C 0.98621(10) 0.84742(10) 0.64401(7)
H59_4 H 0.577623 0.736604 0.827737
H60_4 H 0.614527 0.713842 0.822393
H63_4 H 0.554063 0.609256 0.939515
H64_4 H 0.55409 0.57696 0.91931
O17_11 O 0.43808(7) 0.27876(6) 0.88400(4)
O18_11 O 0.46138(7) 0.31927(7) 0.91085(4)
O21_11 O 0.40037(8) 0.27430(9) 0.83528(5)
O22_11 O 0.45531(13) 0.39843(8) 0.92327(5)
N10_11 N 0.46700(17) 0.15746(11) 0.92034(9)
N11_11 N 0.4848(2) 0.12892(16) 0.92698(16)
N12_11 N 0.4667(3) 0.10122(15) 0.92007(18)
N16_11 N 0.18050(15) 0.06897(11) 0.71181(8)
N17_11 N 0.1800(2) 0.10203(14) 0.72148(10)
N18_11 N 0.1987(2) 0.09906(15) 0.74202(11)
C55_11 C 0.45689(10) 0.28722(11) 0.90261(7)
C56_11 C 0.47359(11) 0.25663(11) 0.91677(7)
C57_11 C 0.49854(10) 0.26395(11) 0.93587(7)
H28_11 H 0.5041 0.2884 0.9400
C58_11 C 0.51475(11) 0.23629(10) 0.94846(7)
C59_11 C 0.50499(15) 0.20118(12) 0.94423(8)
H29_11 H 0.5155 0.1820 0.9535
C60_11 C 0.47886(16) 0.19370(12) 0.92571(10)
C61_11 C 0.46399(13) 0.22144(12) 0.91203(8)
H30_11 H 0.4471 0.2161 0.8994
C62_11 C 0.54250(12) 0.24605(12) 0.96728(7)
C63_11 C 0.4400(2) 0.14806(15) 0.90816(13)
H31_11 H 0.4238 0.1641 0.9000
C64_11 C 0.4375(3) 0.11182(18) 0.90830(15)
C65_11 C 0.4071(3) 0.08691(16) 0.89952(16)
C66_11 C 0.4077(3) 0.05247(19) 0.9006(2)
H32_11 H 0.4266 0.0415 0.9099
C67_11 C 0.3830(4) 0.02993(19) 0.8893(2)
H33_11 H 0.3856 0.0044 0.8910
C68_11 C 0.3553(3) 0.04320(17) 0.87603(17)
C69_11 C 0.3510(3) 0.08116(19) 0.87712(18)
H34_11 H 0.3302 0.0926 0.8703
C70_11 C 0.3780(3) 0.1016(2) 0.88855(19)
H35_11 H 0.3757 0.1273 0.8886
C71_11 C 0.3271(3) 0.02017(16) 0.86343(16)
C75_11 C 0.2797(3) 0.01359(16) 0.83355(15)
C76_11 C 0.3087(3) 0.03473(16) 0.84446(15)
H38_11 H 0.3146 0.0582 0.8384
C93_11 C 0.2612(3) 0.02672(15) 0.81019(14)
C94_11 C 0.2533(3) 0.00395(15) 0.79156(14)
C95_11 C 0.2344(2) 0.01658(16) 0.77131(13)
C96_11 C 0.2284(3) 0.05180(16) 0.76767(13)
C97_11 C 0.2331(3) 0.07651(17) 0.78802(15)
H49_11 H 0.2241 0.1007 0.7873
C98_11 C 0.2517(3) 0.06359(18) 0.80900(14)
H50_11 H 0.2577 0.0796 0.8220
C99_11 C 0.2085(2) 0.06517(15) 0.74581(12)
C100_11 C 0.19600(17) 0.04602(13) 0.72693(10)
H51_11 H 0.1979 0.0205 0.7248
C101_11 C 0.16239(14) 0.06158(13) 0.68929(8)
C102_11 C 0.16542(12) 0.02790(12) 0.67857(7)
H52_11 H 0.1793 0.0094 0.6862
C103_11 C 0.14805(10) 0.02103(10) 0.65646(7)
C104_11 C 0.12725(10) 0.04832(11) 0.64534(7)
H53_11 H 0.1149 0.0436 0.6304
C105_11 C 0.12476(11) 0.08210(11) 0.65618(7)
C106_11 C 0.14186(13) 0.08951(12) 0.67878(7)
H54_11 H 0.1395 0.1125 0.6865
C108_11 C 0.10426(10) 0.11361(12) 0.64397(7)
O37_8 O 0.39214(7) 0.34692(7) 0.91146(4)
O38_8 O 0.37107(6) 0.31142(7) 0.88088(4)
H55_11 H 0.422377 0.263396 0.827737
H56_11 H 0.385473 0.286158 0.822393
H57_11 H 0.445937 0.390744 0.939515
H58_11 H 0.44591 0.42304 0.91931
N13_11 N 0.28968(13) 0.76100(10) 0.90094(8)
N14_11 N 0.26185(17) 0.75713(13) 0.88616(12)
N15_11 N 0.2546(2) 0.79008(14) 0.87872(13)
C72_11 C 0.3179(3) 0.98559(16) 0.87220(16)
H36_11 H 0.3274 0.9777 0.8875
C73_11 C 0.2960(3) 0.96326(16) 0.85943(16)
C74_11 C 0.2782(3) 0.97794(17) 0.83890(17)
H37_11 H 0.2647 0.9622 0.8285
C77_11 C 0.2898(3) 0.92608(16) 0.86615(19)
C78_11 C 0.3064(3) 0.9116(2) 0.88487(16)
H39_11 H 0.3201 0.9266 0.8955
C79_11 C 0.3042(3) 0.87347(18) 0.88967(17)
H40_11 H 0.3217 0.8632 0.9005
C80_11 C 0.2805(3) 0.85233(17) 0.88048(14)
C81_11 C 0.2563(4) 0.8698(2) 0.8664(2)
H41_11 H 0.2344 0.8579 0.8619
C82_11 C 0.2624(4) 0.9035(2) 0.8585(2)
H42_11 H 0.2462 0.9128 0.8465
C83_11 C 0.2790(2) 0.81343(13) 0.88690(13)
C84_11 C 0.29941(18) 0.79602(14) 0.90213(11)
H43_11 H 0.3178 0.8061 0.9123
C85_11 C 0.30760(13) 0.73076(11) 0.91333(9)
C86_11 C 0.32654(12) 0.73719(11) 0.93456(7)
H44_11 H 0.3264 0.7607 0.9418
C87_11 C 0.34546(10) 0.70975(10) 0.94512(6)
C88_11 C 0.34528(10) 0.67534(11) 0.93498(6)
H45_11 H 0.3585 0.6563 0.9426
C89_11 C 0.32565(10) 0.66843(10) 0.91335(6)
C90_11 C 0.30700(12) 0.69646(12) 0.90272(7)
H46_11 H 0.2936 0.6925 0.8881
C91_11 C 0.37001(11) 0.71720(11) 0.96674(6)
C92_11 C 0.32829(10) 0.63244(10) 0.90107(7)
H47_11 H 0.2607 0.9792 0.7923
H48_11 H 0.2255 0.9996 0.7597
C107_11 C 0.15258(10) 0.98621(10) 0.64401(7)
H61_6 H 0.646529 0.535768 0.985155
H65_6 H 0.825925 0.64035 0.985155
N13_12 N 0.23900(10) 0.28968(13) 0.90094(8)
N14_12 N 0.24287(13) 0.26185(17) 0.88616(12)
N15_12 N 0.20992(14) 0.2546(2) 0.87872(13)
C72_12 C 0.01441(16) 0.3179(3) 0.87220(16)
H36_12 H 0.0223 0.3274 0.8875
C73_12 C 0.03674(16) 0.2960(3) 0.85943(16)
C74_12 C 0.02206(17) 0.2782(3) 0.83890(17)
H37_12 H 0.0378 0.2647 0.8285
C77_12 C 0.07392(16) 0.2898(3) 0.86615(19)
C78_12 C 0.0884(2) 0.3064(3) 0.88487(16)
H39_12 H 0.0734 0.3201 0.8955
C79_12 C 0.12653(18) 0.3042(3) 0.88967(17)
H40_12 H 0.1368 0.3217 0.9005
C80_12 C 0.14767(17) 0.2805(3) 0.88048(14)
C81_12 C 0.1302(2) 0.2563(4) 0.8664(2)
H41_12 H 0.1421 0.2344 0.8619
C82_12 C 0.0965(2) 0.2624(4) 0.8585(2)
H42_12 H 0.0872 0.2462 0.8465
C83_12 C 0.18657(13) 0.2790(2) 0.88690(13)
C84_12 C 0.20398(14) 0.29941(18) 0.90213(11)
H43_12 H 0.1939 0.3178 0.9123
C85_12 C 0.26924(11) 0.30760(13) 0.91333(9)
C86_12 C 0.26281(11) 0.32654(12) 0.93456(7)
H44_12 H 0.2393 0.3264 0.9418
C87_12 C 0.29025(10) 0.34546(10) 0.94512(6)
C88_12 C 0.32466(11) 0.34528(10) 0.93498(6)
H45_12 H 0.3437 0.3585 0.9426
C89_12 C 0.33157(10) 0.32565(10) 0.91335(6)
C90_12 C 0.30354(12) 0.30700(12) 0.90272(7)
H46_12 H 0.3075 0.2936 0.8881
C91_12 C 0.28280(11) 0.37001(11) 0.96674(6)
C92_12 C 0.36756(10) 0.32829(10) 0.90107(7)
H47_12 H 0.0208 0.2607 0.7923
H48_12 H 0.0004 0.2255 0.7597
C107_12 C 0.01379(10) 0.15258(10) 0.64401(7)
H61_7 H 0.464232 0.646529 0.985155
H65_7 H 0.35965 0.825925 0.985155
O17_12 O 0.72124(6) 0.43808(7) 0.88400(4)
O18_12 O 0.68073(7) 0.46138(7) 0.91085(4)
O21_12 O 0.72570(9) 0.40037(8) 0.83528(5)
O22_12 O 0.60157(8) 0.45531(13) 0.92327(5)
N10_12 N 0.84254(11) 0.46700(17) 0.92034(9)
N11_12 N 0.87108(16) 0.4848(2) 0.92698(16)
N12_12 N 0.89878(15) 0.4667(3) 0.92007(18)
N16_12 N 0.93103(11) 0.18050(15) 0.71181(8)
N17_12 N 0.89797(14) 0.1800(2) 0.72148(10)
N18_12 N 0.90094(15) 0.1987(2) 0.74202(11)
C55_12 C 0.71278(11) 0.45689(10) 0.90261(7)
C56_12 C 0.74337(11) 0.47359(11) 0.91677(7)
C57_12 C 0.73605(11) 0.49854(10) 0.93587(7)
H28_12 H 0.7116 0.5041 0.9400
C58_12 C 0.76371(10) 0.51475(11) 0.94846(7)
C59_12 C 0.79882(12) 0.50499(15) 0.94423(8)
H29_12 H 0.8180 0.5155 0.9535
C60_12 C 0.80630(12) 0.47886(16) 0.92571(10)
C61_12 C 0.77856(12) 0.46399(13) 0.91203(8)
H30_12 H 0.7839 0.4471 0.8994
C62_12 C 0.75395(12) 0.54250(12) 0.96728(7)
C63_12 C 0.85194(15) 0.4400(2) 0.90816(13)
H31_12 H 0.8359 0.4238 0.9000
C64_12 C 0.88818(18) 0.4375(3) 0.90830(15)
C65_12 C 0.91309(16) 0.4071(3) 0.89952(16)
C66_12 C 0.94753(19) 0.4077(3) 0.9006(2)
H32_12 H 0.9585 0.4266 0.9099
C67_12 C 0.97007(19) 0.3830(4) 0.8893(2)
H33_12 H 0.9956 0.3856 0.8910
C68_12 C 0.95680(17) 0.3553(3) 0.87603(17)
C69_12 C 0.91884(19) 0.3510(3) 0.87712(18)
H34_12 H 0.9074 0.3302 0.8703
C70_12 C 0.8984(2) 0.3780(3) 0.88855(19)
H35_12 H 0.8727 0.3757 0.8886
C71_12 C 0.97983(16) 0.3271(3) 0.86343(16)
C75_12 C 0.98641(16) 0.2797(3) 0.83355(15)
C76_12 C 0.96527(16) 0.3087(3) 0.84446(15)
H38_12 H 0.9418 0.3146 0.8384
C93_12 C 0.97328(15) 0.2612(3) 0.81019(14)
C94_12 C 0.99605(15) 0.2533(3) 0.79156(14)
C95_12 C 0.98342(16) 0.2344(2) 0.77131(13)
C96_12 C 0.94820(16) 0.2284(3) 0.76767(13)
C97_12 C 0.92349(17) 0.2331(3) 0.78802(15)
H49_12 H 0.8993 0.2241 0.7873
C98_12 C 0.93641(18) 0.2517(3) 0.80900(14)
H50_12 H 0.9204 0.2577 0.8220
C99_12 C 0.93483(15) 0.2085(2) 0.74581(12)
C100_12 C 0.95398(13) 0.19600(17) 0.72693(10)
H51_12 H 0.9795 0.1979 0.7248
C101_12 C 0.93842(13) 0.16239(14) 0.68929(8)
C102_12 C 0.97210(12) 0.16542(12) 0.67857(7)
H52_12 H 0.9906 0.1793 0.6862
C103_12 C 0.97897(10) 0.14805(10) 0.65646(7)
C104_12 C 0.95168(11) 0.12725(10) 0.64534(7)
H53_12 H 0.9564 0.1149 0.6304
C105_12 C 0.91790(11) 0.12476(11) 0.65618(7)
C106_12 C 0.91049(12) 0.14186(13) 0.67878(7)
H54_12 H 0.8875 0.1395 0.6865
C108_12 C 0.88639(12) 0.10426(10) 0.64397(7)
H55_12 H 0.736604 0.422377 0.827737
H56_12 H 0.713842 0.385473 0.822393
H57_12 H 0.609256 0.445937 0.939515
H58_12 H 0.57696 0.44591 0.91931
H61_8 H 0.353471 0.464232 0.985155
H65_8 H 0.174075 0.35965 0.985155
loop_
_geom_bond_atom_site_label_1
_geom_bond_atom_site_label_2
_geom_bond_site_symmetry_1
_geom_bond_site_symmetry_2
O3 C8 1_555 1_555
O4 C8 1_555 1_555
C5 C4 1_555 1_555
H2 C5 1_555 1_555
C8 C4 1_555 1_555
Cu16 O4 1_555 1_555
Cu19 O3 1_555 1_555
Cu16 Cu19 1_555 1_555
O19 C62 1_555 1_555
O20 C62 1_555 1_555
C59 C58 1_555 1_555
H29 C59 1_555 1_555
C62 C58 1_555 1_555
Cu17 O20 1_555 1_555
Cu20 O19 1_555 1_555
Cu17 Cu20 1_555 1_555
Cu1 Cu2 1_555 1_555
Cu2 O1 1_555 1_555
Cu3 Cu4 1_555 1_555
Cu4 O8 1_555 1_555
O1 C1 1_555 1_555
O2 Cu1 1_555 1_555
O5 Cu2 1_555 1_555
O6 Cu1 1_555 1_555
O7 Cu3 1_555 1_555
O8 C37 1_555 1_555
O9 C38 1_555 1_555
O10 C38 1_555 1_555
O11 Cu3 1_555 1_555
O12 Cu4 1_555 1_555
O13 C53 1_555 1_555
O14 C53 1_555 1_555
O15 C54 1_555 1_555
O16 C54 1_555 1_555
N1 N2 1_555 1_555
N2 N3 1_555 1_555
N3 C10 1_555 1_555
N4 N5 1_555 1_555
N5 N6 1_555 1_555
N6 C29 1_555 1_555
N7 N8 1_555 1_555
N8 N9 1_555 1_555
N9 C45 1_555 1_555
C1 O2 1_555 1_555
C2 C1 1_555 1_555
C3 C2 1_555 1_555
C6 N1 1_555 1_555
C7 C2 1_555 1_555
H3 C7 1_555 1_555
C9 N1 1_555 1_555
H4 C9 1_555 1_555
C10 C9 1_555 1_555
C11 C10 1_555 1_555
C12 C11 1_555 1_555
H5 C12 1_555 1_555
C13 C12 1_555 1_555
H6 C13 1_555 1_555
C14 C13 1_555 1_555
C15 C14 1_555 1_555
H7 C15 1_555 1_555
C16 C11 1_555 1_555
H8 C16 1_555 1_555
C17 C14 1_555 1_555
C18 C17 1_555 1_555
H9 C18 1_555 1_555
C19 C18 1_555 1_555
C20 C19 1_555 1_555
H10 C20 1_555 1_555
C21 C20 1_555 1_555
C22 C17 1_555 1_555
H11 C22 1_555 1_555
C23 C19 1_555 1_555
C24 C23 1_555 1_555
H12 C24 1_555 1_555
C25 C24 1_555 1_555
H13 C25 1_555 1_555
C26 C25 1_555 1_555
C27 C26 1_555 1_555
H14 C27 1_555 1_555
C28 C23 1_555 1_555
H15 C28 1_555 1_555
C29 C26 1_555 1_555
C30 N4 1_555 1_555
H16 C30 1_555 1_555
C31 N4 1_555 1_555
C32 C31 1_555 1_555
H17 C32 1_555 1_555
C33 C32 1_555 1_555
C34 C33 1_555 1_555
H18 C34 1_555 1_555
C35 C34 1_555 1_555
C36 C31 1_555 1_555
H19 C36 1_555 1_555
C37 O7 1_555 1_555
C38 C35 1_555 1_555
C39 C21 1_555 1_555
C40 C39 1_555 1_555
H20 C40 1_555 1_555
C41 C40 1_555 1_555
H21 C41 1_555 1_555
C42 C41 1_555 1_555
C43 C42 1_555 1_555
H22 C43 1_555 1_555
C44 C39 1_555 1_555
H23 C44 1_555 1_555
C45 C42 1_555 1_555
C46 N7 1_555 1_555
H24 C46 1_555 1_555
C47 N7 1_555 1_555
C48 C47 1_555 1_555
H25 C48 1_555 1_555
C49 C48 1_555 1_555
C50 C49 1_555 1_555
H26 C50 1_555 1_555
C51 C50 1_555 1_555
C52 C47 1_555 1_555
H27 C52 1_555 1_555
C53 C49 1_555 1_555
C54 C51 1_555 1_555
Cu5 Cu6 1_555 1_555
Cu6 O17 1_555 1_555
O17 C55 1_555 1_555
O18 Cu5 1_555 1_555
O21 Cu6 1_555 1_555
O22 Cu5 1_555 1_555
O23 C91 1_555 1_555
O24 C91 1_555 1_555
O25 Cu1 1_555 1_555
O26 Cu2 1_555 1_555
O27 C107 1_555 1_555
O28 C107 1_555 1_555
O29 C108 1_555 1_555
O30 C108 1_555 1_555
N10 N11 1_555 1_555
N11 N12 1_555 1_555
N12 C64 1_555 1_555
N13 N14 1_555 1_555
N14 N15 1_555 1_555
N15 C83 1_555 1_555
N16 N17 1_555 1_555
N17 N18 1_555 1_555
N18 C99 1_555 1_555
C55 O18 1_555 1_555
C56 C55 1_555 1_555
C57 C56 1_555 1_555
C60 N10 1_555 1_555
C61 C56 1_555 1_555
H30 C61 1_555 1_555
C63 N10 1_555 1_555
H31 C63 1_555 1_555
C64 C63 1_555 1_555
C65 C64 1_555 1_555
C66 C65 1_555 1_555
H32 C66 1_555 1_555
C67 C66 1_555 1_555
H33 C67 1_555 1_555
C68 C67 1_555 1_555
C69 C68 1_555 1_555
H34 C69 1_555 1_555
C70 C65 1_555 1_555
H35 C70 1_555 1_555
C71 C68 1_555 1_555
C72 C71 1_555 1_555
H36 C72 1_555 1_555
C73 C72 1_555 1_555
C74 C73 1_555 1_555
H37 C74 1_555 1_555
C75 C74 1_555 1_555
C76 C71 1_555 1_555
H38 C76 1_555 1_555
C77 C73 1_555 1_555
C78 C77 1_555 1_555
H39 C78 1_555 1_555
C79 C78 1_555 1_555
H40 C79 1_555 1_555
C80 C79 1_555 1_555
C81 C80 1_555 1_555
H41 C81 1_555 1_555
C82 C77 1_555 1_555
H42 C82 1_555 1_555
C83 C80 1_555 1_555
C84 N13 1_555 1_555
H43 C84 1_555 1_555
C85 N13 1_555 1_555
C86 C85 1_555 1_555
H44 C86 1_555 1_555
C87 C86 1_555 1_555
C88 C87 1_555 1_555
H45 C88 1_555 1_555
C89 C88 1_555 1_555
C90 C85 1_555 1_555
H46 C90 1_555 1_555
C91 C87 1_555 1_555
C92 O25 1_555 1_555
C93 C75 1_555 1_555
C94 C93 1_555 1_555
H47 C94 1_555 1_555
C95 C94 1_555 1_555
H48 C95 1_555 1_555
C96 C95 1_555 1_555
C97 C96 1_555 1_555
H49 C97 1_555 1_555
C98 C93 1_555 1_555
H50 C98 1_555 1_555
C99 C96 1_555 1_555
C100 N16 1_555 1_555
H51 C100 1_555 1_555
C101 N16 1_555 1_555
C102 C101 1_555 1_555
H52 C102 1_555 1_555
C103 C102 1_555 1_555
C104 C103 1_555 1_555
H53 C104 1_555 1_555
C105 C104 1_555 1_555
C106 C101 1_555 1_555
H54 C106 1_555 1_555
C107 C103 1_555 1_555
C108 C105 1_555 1_555
Cu7 O9 1_555 1_555
Cu8 O15 1_555 1_555
Cu9 O29 1_555 1_555
Cu10 O14 1_555 1_555
Cu11 O10 1_555 1_555
Cu12 O16 1_555 1_555
Cu13 O30 1_555 1_555
Cu14 O13 1_555 1_555
Cu15 O23 1_555 1_555
Cu18 O24 1_555 1_555
O31 Cu4 1_555 1_555
O32 Cu4 1_555 1_555
O33 Cu3 1_555 1_555
O34 Cu3 1_555 1_555
O35 Cu3 1_555 1_555
O36 Cu4 1_555 1_555
O37 Cu5 1_555 1_555
O38 Cu6 1_555 1_555
O39 Cu2 1_555 1_555
O40 Cu6 1_555 1_555
O41 Cu1 1_555 1_555
O42 Cu5 1_555 1_555
O43 Cu1 1_555 1_555
O44 Cu5 1_555 1_555
O45 Cu2 1_555 1_555
O46 Cu6 1_555 1_555
C6 C7 1_555 1_555
C15 C16 1_555 1_555
C21 C22 1_555 1_555
C27 C28 1_555 1_555
C29 C30 1_555 1_555
C33 C37 1_555 1_555
C35 C36 1_555 1_555
C43 C44 1_555 1_555
C45 C46 1_555 1_555
C51 C52 1_555 1_555
O26 C92 1_555 1_555
O27 Cu12 1_555 1_555
O28 Cu8 1_555 1_555
C60 C61 1_555 1_555
C69 C70 1_555 1_555
C75 C76 1_555 1_555
C81 C82 1_555 1_555
C83 C84 1_555 1_555
C89 C90 1_555 1_555
C89 C92 1_555 1_555
C97 C98 1_555 1_555
C99 C100 1_555 1_555
C105 C106 1_555 1_555
Cu7 Cu11 1_555 1_555
Cu8 Cu12 1_555 1_555
Cu9 Cu13 1_555 1_555
Cu10 Cu14 1_555 1_555
Cu15 Cu18 1_555 1_555
O21 H55 1_555 1_555
O21 H56 1_555 1_555
O22 H57 1_555 1_555
O22 H58 1_555 1_555
O5 H59 1_555 1_555
O5 H60 1_555 1_555
O6 H63 1_555 1_555
O6 H64 1_555 1_555
O11_2 Cu15 1_555 1_555
O12_2 Cu18 1_555 1_555
Cu5_2 Cu6_2 1_555 1_555
Cu6_2 O17_2 1_555 1_555
O17_2 C55_2 1_555 1_555
O18_2 Cu5_2 1_555 1_555
O21_2 Cu6_2 1_555 1_555
O22_2 Cu5_2 1_555 1_555
O23_2 C91_2 1_555 1_555
O24_2 C91_2 1_555 1_555
O27_2 C107_2 1_555 1_555
O28_2 C107_2 1_555 1_555
O29_2 C108_2 1_555 1_555
O30_2 C108_2 1_555 1_555
N10_2 N11_2 1_555 1_555
N11_2 N12_2 1_555 1_555
N12_2 C64_2 1_555 1_555
N13_2 N14_2 1_555 1_555
N14_2 N15_2 1_555 1_555
N15_2 C83_2 1_555 1_555
N16_2 N17_2 1_555 1_555
N17_2 N18_2 1_555 1_555
N18_2 C99_2 1_555 1_555
C55_2 O18_2 1_555 1_555
C56_2 C55_2 1_555 1_555
C57_2 C56_2 1_555 1_555
C60_2 N10_2 1_555 1_555
C61_2 C56_2 1_555 1_555
H30_2 C61_2 1_555 1_555
C63_2 N10_2 1_555 1_555
H31_2 C63_2 1_555 1_555
C64_2 C63_2 1_555 1_555
C65_2 C64_2 1_555 1_555
C66_2 C65_2 1_555 1_555
H32_2 C66_2 1_555 1_555
C67_2 C66_2 1_555 1_555
H33_2 C67_2 1_555 1_555
C68_2 C67_2 1_555 1_555
C69_2 C68_2 1_555 1_555
H34_2 C69_2 1_555 1_555
C70_2 C65_2 1_555 1_555
H35_2 C70_2 1_555 1_555
C71_2 C68_2 1_555 1_555
C72_2 C71_2 1_555 1_555
H36_2 C72_2 1_555 1_555
C73_2 C72_2 1_555 1_555
C74_2 C73_2 1_555 1_555
H37_2 C74_2 1_555 1_555
C75_2 C74_2 1_555 1_555
C76_2 C71_2 1_555 1_555
H38_2 C76_2 1_555 1_555
C77_2 C73_2 1_555 1_555
C78_2 C77_2 1_555 1_555
H39_2 C78_2 1_555 1_555
C79_2 C78_2 1_555 1_555
H40_2 C79_2 1_555 1_555
C80_2 C79_2 1_555 1_555
C81_2 C80_2 1_555 1_555
H41_2 C81_2 1_555 1_555
C82_2 C77_2 1_555 1_555
H42_2 C82_2 1_555 1_555
C83_2 C80_2 1_555 1_555
C84_2 N13_2 1_555 1_555
H43_2 C84_2 1_555 1_555
C85_2 N13_2 1_555 1_555
C86_2 C85_2 1_555 1_555
H44_2 C86_2 1_555 1_555
C87_2 C86_2 1_555 1_555
C88_2 C87_2 1_555 1_555
H45_2 C88_2 1_555 1_555
C89_2 C88_2 1_555 1_555
C90_2 C85_2 1_555 1_555
H46_2 C90_2 1_555 1_555
C91_2 C87_2 1_555 1_555
C92_2 O37 1_555 1_555
C93_2 C75_2 1_555 1_555
C94_2 C93_2 1_555 1_555
H47_2 C94_2 1_555 1_555
C95_2 C94_2 1_555 1_555
H48_2 C95_2 1_555 1_555
C96_2 C95_2 1_555 1_555
C97_2 C96_2 1_555 1_555
H49_2 C97_2 1_555 1_555
C98_2 C93_2 1_555 1_555
H50_2 C98_2 1_555 1_555
C99_2 C96_2 1_555 1_555
C100_2 N16_2 1_555 1_555
H51_2 C100_2 1_555 1_555
C101_2 N16_2 1_555 1_555
C102_2 C101_2 1_555 1_555
H52_2 C102_2 1_555 1_555
C103_2 C102_2 1_555 1_555
C104_2 C103_2 1_555 1_555
H53_2 C104_2 1_555 1_555
C105_2 C104_2 1_555 1_555
C106_2 C101_2 1_555 1_555
H54_2 C106_2 1_555 1_555
C107_2 C103_2 1_555 1_555
C108_2 C105_2 1_555 1_555
Cu9_2 O29_2 1_555 1_555
Cu13_2 O30_2 1_555 1_555
Cu16 O23_2 1_555 1_555
Cu19 O24_2 1_555 1_555
O31_2 Cu18 1_555 1_555
O32_2 Cu18 1_555 1_555
O33_2 Cu15 1_555 1_555
O34_2 Cu15 1_555 1_555
O35_2 Cu15 1_555 1_555
O36_2 Cu18 1_555 1_555
O37_2 Cu5_2 1_555 1_555
O38_2 Cu6_2 1_555 1_555
O40_2 Cu6_2 1_555 1_555
O42_2 Cu5_2 1_555 1_555
O44_2 Cu5_2 1_555 1_555
O46_2 Cu6_2 1_555 1_555
O38 C92_2 1_555 1_555
O27_2 Cu13 1_555 1_555
O28_2 Cu9 1_555 1_555
C60_2 C61_2 1_555 1_555
C69_2 C70_2 1_555 1_555
C75_2 C76_2 1_555 1_555
C81_2 C82_2 1_555 1_555
C83_2 C84_2 1_555 1_555
C89_2 C90_2 1_555 1_555
C89_2 C92_2 1_555 1_555
C97_2 C98_2 1_555 1_555
C99_2 C100_2 1_555 1_555
C105_2 C106_2 1_555 1_555
Cu9_2 Cu13_2 1_555 1_555
O21_2 H55_2 1_555 1_555
O21_2 H56_2 1_555 1_555
O22_2 H57_2 1_555 1_555
O22_2 H58_2 1_555 1_555
O31 C62_2 1_555 1_555
O33 C62_2 1_555 1_555
C59_2 C58_2 1_555 1_555
H29_2 C59_2 1_555 1_555
C62_2 C58_2 1_555 1_555
O11_3 Cu16 1_555 1_555
O12_3 Cu19 1_555 1_555
Cu11 O17_3 1_555 1_555
O17_3 C55_3 1_555 1_555
O18_3 Cu7 1_555 1_555
O21_3 Cu11 1_555 1_555
O22_3 Cu7 1_555 1_555
O23_3 C91_3 1_555 1_555
O24_3 C91_3 1_555 1_555
O27_3 C107_3 1_555 1_555
O28_3 C107_3 1_555 1_555
O29_3 C108_3 1_555 1_555
O30_3 C108_3 1_555 1_555
N10_3 N11_3 1_555 1_555
N11_3 N12_3 1_555 1_555
N12_3 C64_3 1_555 1_555
N13_3 N14_3 1_555 1_555
N14_3 N15_3 1_555 1_555
N15_3 C83_3 1_555 1_555
N16_3 N17_3 1_555 1_555
N17_3 N18_3 1_555 1_555
N18_3 C99_3 1_555 1_555
C55_3 O18_3 1_555 1_555
C56_3 C55_3 1_555 1_555
C57_3 C56_3 1_555 1_555
C60_3 N10_3 1_555 1_555
C61_3 C56_3 1_555 1_555
H30_3 C61_3 1_555 1_555
C63_3 N10_3 1_555 1_555
H31_3 C63_3 1_555 1_555
C64_3 C63_3 1_555 1_555
C65_3 C64_3 1_555 1_555
C66_3 C65_3 1_555 1_555
H32_3 C66_3 1_555 1_555
C67_3 C66_3 1_555 1_555
H33_3 C67_3 1_555 1_555
C68_3 C67_3 1_555 1_555
C69_3 C68_3 1_555 1_555
H34_3 C69_3 1_555 1_555
C70_3 C65_3 1_555 1_555
H35_3 C70_3 1_555 1_555
C71_3 C68_3 1_555 1_555
C72_3 C71_3 1_555 1_555
H36_3 C72_3 1_555 1_555
C73_3 C72_3 1_555 1_555
C74_3 C73_3 1_555 1_555
H37_3 C74_3 1_555 1_555
C75_3 C74_3 1_555 1_555
C76_3 C71_3 1_555 1_555
H38_3 C76_3 1_555 1_555
C77_3 C73_3 1_555 1_555
C78_3 C77_3 1_555 1_555
H39_3 C78_3 1_555 1_555
C79_3 C78_3 1_555 1_555
H40_3 C79_3 1_555 1_555
C80_3 C79_3 1_555 1_555
C81_3 C80_3 1_555 1_555
H41_3 C81_3 1_555 1_555
C82_3 C77_3 1_555 1_555
H42_3 C82_3 1_555 1_555
C83_3 C80_3 1_555 1_555
C84_3 N13_3 1_555 1_555
H43_3 C84_3 1_555 1_555
C85_3 N13_3 1_555 1_555
C86_3 C85_3 1_555 1_555
H44_3 C86_3 1_555 1_555
C87_3 C86_3 1_555 1_555
C88_3 C87_3 1_555 1_555
H45_3 C88_3 1_555 1_555
C89_3 C88_3 1_555 1_555
C90_3 C85_3 1_555 1_555
H46_3 C90_3 1_555 1_555
C91_3 C87_3 1_555 1_555
C92_3 O37_2 1_555 1_555
C93_3 C75_3 1_555 1_555
C94_3 C93_3 1_555 1_555
H47_3 C94_3 1_555 1_555
C95_3 C94_3 1_555 1_555
H48_3 C95_3 1_555 1_555
C96_3 C95_3 1_555 1_555
C97_3 C96_3 1_555 1_555
H49_3 C97_3 1_555 1_555
C98_3 C93_3 1_555 1_555
H50_3 C98_3 1_555 1_555
C99_3 C96_3 1_555 1_555
C100_3 N16_3 1_555 1_555
H51_3 C100_3 1_555 1_555
C101_3 N16_3 1_555 1_555
C102_3 C101_3 1_555 1_555
H52_3 C102_3 1_555 1_555
C103_3 C102_3 1_555 1_555
C104_3 C103_3 1_555 1_555
H53_3 C104_3 1_555 1_555
C105_3 C104_3 1_555 1_555
C106_3 C101_3 1_555 1_555
H54_3 C106_3 1_555 1_555
C107_3 C103_3 1_555 1_555
C108_3 C105_3 1_555 1_555
Cu10 O29_3 1_555 1_555
Cu14 O30_3 1_555 1_555
Cu17 O23_3 1_555 1_555
Cu20 O24_3 1_555 1_555
O32_3 Cu19 1_555 1_555
O34_3 Cu16 1_555 1_555
O35_3 Cu16 1_555 1_555
O36_3 Cu19 1_555 1_555
O40_3 Cu11 1_555 1_555
O42_3 Cu7 1_555 1_555
O44_3 Cu7 1_555 1_555
O46_3 Cu11 1_555 1_555
O38_2 C92_3 1_555 1_555
O27_3 Cu13_2 1_555 1_555
O28_3 Cu9_2 1_555 1_555
C60_3 C61_3 1_555 1_555
C69_3 C70_3 1_555 1_555
C75_3 C76_3 1_555 1_555
C81_3 C82_3 1_555 1_555
C83_3 C84_3 1_555 1_555
C89_3 C90_3 1_555 1_555
C89_3 C92_3 1_555 1_555
C97_3 C98_3 1_555 1_555
C99_3 C100_3 1_555 1_555
C105_3 C106_3 1_555 1_555
O21_3 H55_3 1_555 1_555
O21_3 H56_3 1_555 1_555
O22_3 H57_3 1_555 1_555
O22_3 H58_3 1_555 1_555
O31_2 C62_3 1_555 1_555
O33_2 C62_3 1_555 1_555
C59_3 C58_3 1_555 1_555
H29_3 C59_3 1_555 1_555
C62_3 C58_3 1_555 1_555
O11_4 Cu17 1_555 1_555
O12_4 Cu20 1_555 1_555
O32_4 Cu20 1_555 1_555
O34_4 Cu17 1_555 1_555
O35_4 Cu17 1_555 1_555
O36_4 Cu20 1_555 1_555
Cu1_2 Cu2_2 1_555 1_555
Cu2_2 O1_2 1_555 1_555
O1_2 C1_2 1_555 1_555
O2_2 Cu1_2 1_555 1_555
O3_2 C8_2 1_555 1_555
O4_2 C8_2 1_555 1_555
O5_2 Cu2_2 1_555 1_555
O6_2 Cu1_2 1_555 1_555
O15_2 C54_2 1_555 1_555
O16_2 C54_2 1_555 1_555
N1_2 N2_2 1_555 1_555
N2_2 N3_2 1_555 1_555
N3_2 C10_2 1_555 1_555
N7_2 N8_2 1_555 1_555
N8_2 N9_2 1_555 1_555
N9_2 C45_2 1_555 1_555
C1_2 O2_2 1_555 1_555
C2_2 C1_2 1_555 1_555
C3_2 C2_2 1_555 1_555
H1_2 C3_2 1_555 1_555
C4_2 C3_2 1_555 1_555
C5_2 C4_2 1_555 1_555
H2_2 C5_2 1_555 1_555
C6_2 N1_2 1_555 1_555
C7_2 C2_2 1_555 1_555
H3_2 C7_2 1_555 1_555
C8_2 C4_2 1_555 1_555
C9_2 N1_2 1_555 1_555
H4_2 C9_2 1_555 1_555
C10_2 C9_2 1_555 1_555
C11_2 C10_2 1_555 1_555
C12_2 C11_2 1_555 1_555
H5_2 C12_2 1_555 1_555
C13_2 C12_2 1_555 1_555
H6_2 C13_2 1_555 1_555
C14_2 C13_2 1_555 1_555
C15_2 C14_2 1_555 1_555
H7_2 C15_2 1_555 1_555
C16_2 C11_2 1_555 1_555
H8_2 C16_2 1_555 1_555
C17_2 C14_2 1_555 1_555
C22_2 C17_2 1_555 1_555
H11_2 C22_2 1_555 1_555
C39_2 C21_2 1_555 1_555
C40_2 C39_2 1_555 1_555
C41_2 C40_2 1_555 1_555
C42_2 C41_2 1_555 1_555
C43_2 C42_2 1_555 1_555
H22_2 C43_2 1_555 1_555
C44_2 C39_2 1_555 1_555
H23_2 C44_2 1_555 1_555
C45_2 C42_2 1_555 1_555
C46_2 N7_2 1_555 1_555
H24_2 C46_2 1_555 1_555
C47_2 N7_2 1_555 1_555
C48_2 C47_2 1_555 1_555
H25_2 C48_2 1_555 1_555
C49_2 C48_2 1_555 1_555
C50_2 C49_2 1_555 1_555
H26_2 C50_2 1_555 1_555
C51_2 C50_2 1_555 1_555
C52_2 C47_2 1_555 1_555
H27_2 C52_2 1_555 1_555
C54_2 C51_2 1_555 1_555
O23_4 C91_4 1_555 1_555
O24_4 C91_4 1_555 1_555
O25_2 Cu1_2 1_555 1_555
O26_2 Cu2_2 1_555 1_555
O27_4 C107_4 1_555 1_555
O28_4 C107_4 1_555 1_555
N13_4 N14_4 1_555 1_555
N14_4 N15_4 1_555 1_555
N15_4 C83_4 1_555 1_555
H36_4 C72_4 1_555 1_555
C73_4 C72_4 1_555 1_555
C74_4 C73_4 1_555 1_555
H37_4 C74_4 1_555 1_555
C77_4 C73_4 1_555 1_555
C78_4 C77_4 1_555 1_555
H39_4 C78_4 1_555 1_555
C79_4 C78_4 1_555 1_555
H40_4 C79_4 1_555 1_555
C80_4 C79_4 1_555 1_555
C81_4 C80_4 1_555 1_555
H41_4 C81_4 1_555 1_555
C82_4 C77_4 1_555 1_555
H42_4 C82_4 1_555 1_555
C83_4 C80_4 1_555 1_555
C84_4 N13_4 1_555 1_555
H43_4 C84_4 1_555 1_555
C85_4 N13_4 1_555 1_555
C86_4 C85_4 1_555 1_555
H44_4 C86_4 1_555 1_555
C87_4 C86_4 1_555 1_555
C88_4 C87_4 1_555 1_555
H45_4 C88_4 1_555 1_555
C89_4 C88_4 1_555 1_555
C90_4 C85_4 1_555 1_555
H46_4 C90_4 1_555 1_555
C91_4 C87_4 1_555 1_555
C92_4 O25_2 1_555 1_555
Cu8_2 O15_2 1_555 1_555
Cu12_2 O16_2 1_555 1_555
Cu15_2 O23_4 1_555 1_555
Cu16_2 O4_2 1_555 1_555
Cu18_2 O24_4 1_555 1_555
Cu19_2 O3_2 1_555 1_555
O39_2 Cu2_2 1_555 1_555
O41_2 Cu1_2 1_555 1_555
O43_2 Cu1_2 1_555 1_555
O45_2 Cu2_2 1_555 1_555
C5_2 C6_2 1_555 1_555
C6_2 C7_2 1_555 1_555
C15_2 C16_2 1_555 1_555
C21_2 C22_2 1_555 1_555
C43_2 C44_2 1_555 1_555
C45_2 C46_2 1_555 1_555
C51_2 C52_2 1_555 1_555
O26_2 C92_4 1_555 1_555
O27_4 Cu12_2 1_555 1_555
O28_4 Cu8_2 1_555 1_555
C81_4 C82_4 1_555 1_555
C83_4 C84_4 1_555 1_555
C89_4 C90_4 1_555 1_555
C89_4 C92_4 1_555 1_555
Cu8_2 Cu12_2 1_555 1_555
Cu15_2 Cu18_2 1_555 1_555
Cu16_2 Cu19_2 1_555 1_555
O5_2 H59_2 1_555 1_555
O5_2 H60_2 1_555 1_555
O6_2 H63_2 1_555 1_555
O6_2 H64_2 1_555 1_555
Cu15_3 Cu18_3 1_555 1_555
Cu16_3 Cu19_3 1_555 1_555
Cu3_2 Cu4_2 1_555 1_555
Cu4_2 O8_2 1_555 1_555
O7_2 Cu3_2 1_555 1_555
O8_2 C37_2 1_555 1_555
O9_2 C38_2 1_555 1_555
O10_2 C38_2 1_555 1_555
O11_5 Cu3_2 1_555 1_555
O12_5 Cu4_2 1_555 1_555
O13_2 C53_2 1_555 1_555
O14_2 C53_2 1_555 1_555
N4_2 N5_2 1_555 1_555
N5_2 N6_2 1_555 1_555
N6_2 C29_2 1_555 1_555
H9_2 C18_2 1_555 1_555
C19_2 C18_2 1_555 1_555
C20_2 C19_2 1_555 1_555
H10_2 C20_2 1_555 1_555
C23_2 C19_2 1_555 1_555
C24_2 C23_2 1_555 1_555
H12_2 C24_2 1_555 1_555
C25_2 C24_2 1_555 1_555
H13_2 C25_2 1_555 1_555
C26_2 C25_2 1_555 1_555
C27_2 C26_2 1_555 1_555
H14_2 C27_2 1_555 1_555
C28_2 C23_2 1_555 1_555
H15_2 C28_2 1_555 1_555
C29_2 C26_2 1_555 1_555
C30_2 N4_2 1_555 1_555
H16_2 C30_2 1_555 1_555
C31_2 N4_2 1_555 1_555
C32_2 C31_2 1_555 1_555
H17_2 C32_2 1_555 1_555
C33_2 C32_2 1_555 1_555
C34_2 C33_2 1_555 1_555
H18_2 C34_2 1_555 1_555
C35_2 C34_2 1_555 1_555
C36_2 C31_2 1_555 1_555
H19_2 C36_2 1_555 1_555
C37_2 O7_2 1_555 1_555
C38_2 C35_2 1_555 1_555
Cu7_2 O9_2 1_555 1_555
Cu10_2 O14_2 1_555 1_555
Cu11_2 O10_2 1_555 1_555
Cu14_2 O13_2 1_555 1_555
O31_3 Cu4_2 1_555 1_555
O33_3 Cu3_2 1_555 1_555
C27_2 C28_2 1_555 1_555
C29_2 C30_2 1_555 1_555
C33_2 C37_2 1_555 1_555
C35_2 C36_2 1_555 1_555
Cu7_2 Cu11_2 1_555 1_555
Cu10_2 Cu14_2 1_555 1_555
O12_5 H61 1_555 1_555
O12_5 H62 1_555 1_555
O11_5 H65 1_555 1_555
O11_5 H66 1_555 1_555
Cu3_3 Cu4_3 1_555 1_555
O11_6 Cu3_3 1_555 1_555
O12_6 Cu4_3 1_555 1_555
O32_5 Cu4_3 1_555 1_555
O34_5 Cu3_3 1_555 1_555
O35_5 Cu3_3 1_555 1_555
O36_5 Cu4_3 1_555 1_555
O12_6 H62_2 1_555 1_555
O11_6 H66_2 1_555 1_555
Cu5_3 Cu6_3 1_555 1_555
Cu6_3 O17_4 1_555 1_555
O17_4 C55_4 1_555 1_555
O18_4 Cu5_3 1_555 1_555
O19_2 C62_4 1_555 1_555
O20_2 C62_4 1_555 1_555
O21_4 Cu6_3 1_555 1_555
O22_4 Cu5_3 1_555 1_555
O29_4 C108_4 1_555 1_555
O30_4 C108_4 1_555 1_555
N10_4 N11_4 1_555 1_555
N11_4 N12_4 1_555 1_555
N12_4 C64_4 1_555 1_555
N16_4 N17_4 1_555 1_555
N17_4 N18_4 1_555 1_555
N18_4 C99_4 1_555 1_555
C55_4 O18_4 1_555 1_555
C56_4 C55_4 1_555 1_555
C57_4 C56_4 1_555 1_555
H28_4 C57_4 1_555 1_555
C58_4 C57_4 1_555 1_555
C59_4 C58_4 1_555 1_555
H29_4 C59_4 1_555 1_555
C60_4 N10_4 1_555 1_555
C61_4 C56_4 1_555 1_555
H30_4 C61_4 1_555 1_555
C62_4 C58_4 1_555 1_555
C63_4 N10_4 1_555 1_555
H31_4 C63_4 1_555 1_555
C64_4 C63_4 1_555 1_555
C65_4 C64_4 1_555 1_555
C66_4 C65_4 1_555 1_555
H32_4 C66_4 1_555 1_555
C67_4 C66_4 1_555 1_555
H33_4 C67_4 1_555 1_555
C68_4 C67_4 1_555 1_555
C69_4 C68_4 1_555 1_555
H34_4 C69_4 1_555 1_555
C70_4 C65_4 1_555 1_555
H35_4 C70_4 1_555 1_555
C71_4 C68_4 1_555 1_555
C76_4 C71_4 1_555 1_555
H38_4 C76_4 1_555 1_555
C93_4 C75_4 1_555 1_555
C94_4 C93_4 1_555 1_555
C95_4 C94_4 1_555 1_555
C96_4 C95_4 1_555 1_555
C97_4 C96_4 1_555 1_555
H49_4 C97_4 1_555 1_555
C98_4 C93_4 1_555 1_555
H50_4 C98_4 1_555 1_555
C99_4 C96_4 1_555 1_555
C100_4 N16_4 1_555 1_555
H51_4 C100_4 1_555 1_555
C101_4 N16_4 1_555 1_555
C102_4 C101_4 1_555 1_555
H52_4 C102_4 1_555 1_555
C103_4 C102_4 1_555 1_555
C104_4 C103_4 1_555 1_555
H53_4 C104_4 1_555 1_555
C105_4 C104_4 1_555 1_555
C106_4 C101_4 1_555 1_555
H54_4 C106_4 1_555 1_555
C108_4 C105_4 1_555 1_555
Cu9_3 O29_4 1_555 1_555
Cu13_3 O30_4 1_555 1_555
Cu17_2 O20_2 1_555 1_555
Cu20_2 O19_2 1_555 1_555
O37_3 Cu5_3 1_555 1_555
O38_3 Cu6_3 1_555 1_555
O40_4 Cu6_3 1_555 1_555
O42_4 Cu5_3 1_555 1_555
O44_4 Cu5_3 1_555 1_555
O46_4 Cu6_3 1_555 1_555
C59_4 C60_4 1_555 1_555
C60_4 C61_4 1_555 1_555
C69_4 C70_4 1_555 1_555
C75_4 C76_4 1_555 1_555
C97_4 C98_4 1_555 1_555
C99_4 C100_4 1_555 1_555
C105_4 C106_4 1_555 1_555
Cu9_3 Cu13_3 1_555 1_555
Cu17_2 Cu20_2 1_555 1_555
O21_4 H55_4 1_555 1_555
O21_4 H56_4 1_555 1_555
O22_4 H57_4 1_555 1_555
O22_4 H58_4 1_555 1_555
Cu17_3 Cu20_3 1_555 1_555
O11_7 Cu15_2 1_555 1_555
O12_7 Cu18_2 1_555 1_555
O31_4 Cu18_2 1_555 1_555
O33_4 Cu15_2 1_555 1_555
O12_7 H61_2 1_555 1_555
O12_7 H62_3 1_555 1_555
O11_7 H65_2 1_555 1_555
O11_7 H66_3 1_555 1_555
O11_8 Cu15_3 1_555 1_555
O12_8 Cu18_3 1_555 1_555
O32_6 Cu18_3 1_555 1_555
O34_6 Cu15_3 1_555 1_555
O35_6 Cu15_3 1_555 1_555
O36_6 Cu18_3 1_555 1_555
O12_8 H62_4 1_555 1_555
O11_8 H66_4 1_555 1_555
O23_5 C91_5 1_555 1_555
O24_5 C91_5 1_555 1_555
O27_5 C107_5 1_555 1_555
O28_5 C107_5 1_555 1_555
N13_5 N14_5 1_555 1_555
N14_5 N15_5 1_555 1_555
N15_5 C83_5 1_555 1_555
H36_5 C72_5 1_555 1_555
C73_5 C72_5 1_555 1_555
C74_5 C73_5 1_555 1_555
H37_5 C74_5 1_555 1_555
C77_5 C73_5 1_555 1_555
C78_5 C77_5 1_555 1_555
H39_5 C78_5 1_555 1_555
C79_5 C78_5 1_555 1_555
H40_5 C79_5 1_555 1_555
C80_5 C79_5 1_555 1_555
C81_5 C80_5 1_555 1_555
H41_5 C81_5 1_555 1_555
C82_5 C77_5 1_555 1_555
H42_5 C82_5 1_555 1_555
C83_5 C80_5 1_555 1_555
C84_5 N13_5 1_555 1_555
H43_5 C84_5 1_555 1_555
C85_5 N13_5 1_555 1_555
C86_5 C85_5 1_555 1_555
H44_5 C86_5 1_555 1_555
C87_5 C86_5 1_555 1_555
C88_5 C87_5 1_555 1_555
H45_5 C88_5 1_555 1_555
C89_5 C88_5 1_555 1_555
C90_5 C85_5 1_555 1_555
H46_5 C90_5 1_555 1_555
C91_5 C87_5 1_555 1_555
C92_5 O37_3 1_555 1_555
Cu16_2 O23_5 1_555 1_555
Cu19_2 O24_5 1_555 1_555
O38_3 C92_5 1_555 1_555
O27_5 Cu13_3 1_555 1_555
O28_5 Cu9_3 1_555 1_555
C81_5 C82_5 1_555 1_555
C83_5 C84_5 1_555 1_555
C89_5 C90_5 1_555 1_555
C89_5 C92_5 1_555 1_555
Cu5_4 Cu6_4 1_555 1_555
Cu6_4 O17_5 1_555 1_555
O17_5 C55_5 1_555 1_555
O18_5 Cu5_4 1_555 1_555
O31_3 C62_5 1_555 1_555
O33_3 C62_5 1_555 1_555
O21_5 Cu6_4 1_555 1_555
O22_5 Cu5_4 1_555 1_555
O29_5 C108_5 1_555 1_555
O30_5 C108_5 1_555 1_555
N10_5 N11_5 1_555 1_555
N11_5 N12_5 1_555 1_555
N12_5 C64_5 1_555 1_555
N16_5 N17_5 1_555 1_555
N17_5 N18_5 1_555 1_555
N18_5 C99_5 1_555 1_555
C55_5 O18_5 1_555 1_555
C56_5 C55_5 1_555 1_555
C57_5 C56_5 1_555 1_555
H28_5 C57_5 1_555 1_555
C58_5 C57_5 1_555 1_555
C59_5 C58_5 1_555 1_555
H29_5 C59_5 1_555 1_555
C60_5 N10_5 1_555 1_555
C61_5 C56_5 1_555 1_555
H30_5 C61_5 1_555 1_555
C62_5 C58_5 1_555 1_555
C63_5 N10_5 1_555 1_555
H31_5 C63_5 1_555 1_555
C64_5 C63_5 1_555 1_555
C65_5 C64_5 1_555 1_555
C66_5 C65_5 1_555 1_555
H32_5 C66_5 1_555 1_555
C67_5 C66_5 1_555 1_555
H33_5 C67_5 1_555 1_555
C68_5 C67_5 1_555 1_555
C69_5 C68_5 1_555 1_555
H34_5 C69_5 1_555 1_555
C70_5 C65_5 1_555 1_555
H35_5 C70_5 1_555 1_555
C71_5 C68_5 1_555 1_555
C76_5 C71_5 1_555 1_555
H38_5 C76_5 1_555 1_555
C93_5 C75_5 1_555 1_555
C94_5 C93_5 1_555 1_555
C95_5 C94_5 1_555 1_555
C96_5 C95_5 1_555 1_555
C97_5 C96_5 1_555 1_555
H49_5 C97_5 1_555 1_555
C98_5 C93_5 1_555 1_555
H50_5 C98_5 1_555 1_555
C99_5 C96_5 1_555 1_555
C100_5 N16_5 1_555 1_555
H51_5 C100_5 1_555 1_555
C101_5 N16_5 1_555 1_555
C102_5 C101_5 1_555 1_555
H52_5 C102_5 1_555 1_555
C103_5 C102_5 1_555 1_555
C104_5 C103_5 1_555 1_555
H53_5 C104_5 1_555 1_555
C105_5 C104_5 1_555 1_555
C106_5 C101_5 1_555 1_555
H54_5 C106_5 1_555 1_555
C108_5 C105_5 1_555 1_555
Cu9_4 O29_5 1_555 1_555
Cu13_4 O30_5 1_555 1_555
O37_4 Cu5_4 1_555 1_555
O38_4 Cu6_4 1_555 1_555
O40_5 Cu6_4 1_555 1_555
O42_5 Cu5_4 1_555 1_555
O44_5 Cu5_4 1_555 1_555
O46_5 Cu6_4 1_555 1_555
C59_5 C60_5 1_555 1_555
C60_5 C61_5 1_555 1_555
C69_5 C70_5 1_555 1_555
C75_5 C76_5 1_555 1_555
C97_5 C98_5 1_555 1_555
C99_5 C100_5 1_555 1_555
C105_5 C106_5 1_555 1_555
Cu9_4 Cu13_4 1_555 1_555
O21_5 H55_5 1_555 1_555
O21_5 H56_5 1_555 1_555
O22_5 H57_5 1_555 1_555
O22_5 H58_5 1_555 1_555
Cu11_2 O17_6 1_555 1_555
O17_6 C55_6 1_555 1_555
O18_6 Cu7_2 1_555 1_555
O31_4 C62_6 1_555 1_555
O33_4 C62_6 1_555 1_555
O21_6 Cu11_2 1_555 1_555
O22_6 Cu7_2 1_555 1_555
O29_6 C108_6 1_555 1_555
O30_6 C108_6 1_555 1_555
N10_6 N11_6 1_555 1_555
N11_6 N12_6 1_555 1_555
N12_6 C64_6 1_555 1_555
N16_6 N17_6 1_555 1_555
N17_6 N18_6 1_555 1_555
N18_6 C99_6 1_555 1_555
C55_6 O18_6 1_555 1_555
C56_6 C55_6 1_555 1_555
C57_6 C56_6 1_555 1_555
H28_6 C57_6 1_555 1_555
C58_6 C57_6 1_555 1_555
C59_6 C58_6 1_555 1_555
H29_6 C59_6 1_555 1_555
C60_6 N10_6 1_555 1_555
C61_6 C56_6 1_555 1_555
H30_6 C61_6 1_555 1_555
C62_6 C58_6 1_555 1_555
C63_6 N10_6 1_555 1_555
H31_6 C63_6 1_555 1_555
C64_6 C63_6 1_555 1_555
C65_6 C64_6 1_555 1_555
C66_6 C65_6 1_555 1_555
H32_6 C66_6 1_555 1_555
C67_6 C66_6 1_555 1_555
H33_6 C67_6 1_555 1_555
C68_6 C67_6 1_555 1_555
C69_6 C68_6 1_555 1_555
H34_6 C69_6 1_555 1_555
C70_6 C65_6 1_555 1_555
H35_6 C70_6 1_555 1_555
C71_6 C68_6 1_555 1_555
C76_6 C71_6 1_555 1_555
H38_6 C76_6 1_555 1_555
C93_6 C75_6 1_555 1_555
C94_6 C93_6 1_555 1_555
C95_6 C94_6 1_555 1_555
C96_6 C95_6 1_555 1_555
C97_6 C96_6 1_555 1_555
H49_6 C97_6 1_555 1_555
C98_6 C93_6 1_555 1_555
H50_6 C98_6 1_555 1_555
C99_6 C96_6 1_555 1_555
C100_6 N16_6 1_555 1_555
H51_6 C100_6 1_555 1_555
C101_6 N16_6 1_555 1_555
C102_6 C101_6 1_555 1_555
H52_6 C102_6 1_555 1_555
C103_6 C102_6 1_555 1_555
C104_6 C103_6 1_555 1_555
H53_6 C104_6 1_555 1_555
C105_6 C104_6 1_555 1_555
C106_6 C101_6 1_555 1_555
H54_6 C106_6 1_555 1_555
C108_6 C105_6 1_555 1_555
Cu10_2 O29_6 1_555 1_555
Cu14_2 O30_6 1_555 1_555
O40_6 Cu11_2 1_555 1_555
O42_6 Cu7_2 1_555 1_555
O44_6 Cu7_2 1_555 1_555
O46_6 Cu11_2 1_555 1_555
C59_6 C60_6 1_555 1_555
C60_6 C61_6 1_555 1_555
C69_6 C70_6 1_555 1_555
C75_6 C76_6 1_555 1_555
C97_6 C98_6 1_555 1_555
C99_6 C100_6 1_555 1_555
C105_6 C106_6 1_555 1_555
O21_6 H55_6 1_555 1_555
O21_6 H56_6 1_555 1_555
O22_6 H57_6 1_555 1_555
O22_6 H58_6 1_555 1_555
O11_9 Cu16_2 1_555 1_555
O12_9 Cu19_2 1_555 1_555
O12_9 H61_3 1_555 1_555
O12_9 H62_5 1_555 1_555
O11_9 H65_3 1_555 1_555
O11_9 H66_5 1_555 1_555
O11_10 Cu16_3 1_555 1_555
O12_10 Cu19_3 1_555 1_555
O32_7 Cu19_3 1_555 1_555
O34_7 Cu16_3 1_555 1_555
O35_7 Cu16_3 1_555 1_555
O36_7 Cu19_3 1_555 1_555
O12_10 H62_6 1_555 1_555
O11_10 H66_6 1_555 1_555
O23_6 C91_6 1_555 1_555
O24_6 C91_6 1_555 1_555
O27_6 C107_6 1_555 1_555
O28_6 C107_6 1_555 1_555
N13_6 N14_6 1_555 1_555
N14_6 N15_6 1_555 1_555
N15_6 C83_6 1_555 1_555
H36_6 C72_6 1_555 1_555
C73_6 C72_6 1_555 1_555
C74_6 C73_6 1_555 1_555
H37_6 C74_6 1_555 1_555
C77_6 C73_6 1_555 1_555
C78_6 C77_6 1_555 1_555
H39_6 C78_6 1_555 1_555
C79_6 C78_6 1_555 1_555
H40_6 C79_6 1_555 1_555
C80_6 C79_6 1_555 1_555
C81_6 C80_6 1_555 1_555
H41_6 C81_6 1_555 1_555
C82_6 C77_6 1_555 1_555
H42_6 C82_6 1_555 1_555
C83_6 C80_6 1_555 1_555
C84_6 N13_6 1_555 1_555
H43_6 C84_6 1_555 1_555
C85_6 N13_6 1_555 1_555
C86_6 C85_6 1_555 1_555
H44_6 C86_6 1_555 1_555
C87_6 C86_6 1_555 1_555
C88_6 C87_6 1_555 1_555
H45_6 C88_6 1_555 1_555
C89_6 C88_6 1_555 1_555
C90_6 C85_6 1_555 1_555
H46_6 C90_6 1_555 1_555
C91_6 C87_6 1_555 1_555
C92_6 O37_4 1_555 1_555
Cu17_2 O23_6 1_555 1_555
Cu20_2 O24_6 1_555 1_555
O38_4 C92_6 1_555 1_555
O27_6 Cu13_4 1_555 1_555
O28_6 Cu9_4 1_555 1_555
C81_6 C82_6 1_555 1_555
C83_6 C84_6 1_555 1_555
C89_6 C90_6 1_555 1_555
C89_6 C92_6 1_555 1_555
O11_11 Cu17_2 1_555 1_555
O12_11 Cu20_2 1_555 1_555
O12_11 H61_4 1_555 1_555
O12_11 H62_7 1_555 1_555
O11_11 H65_4 1_555 1_555
O11_11 H66_7 1_555 1_555
O11_12 Cu17_3 1_555 1_555
O12_12 Cu20_3 1_555 1_555
O32_8 Cu20_3 1_555 1_555
O34_8 Cu17_3 1_555 1_555
O35_8 Cu17_3 1_555 1_555
O36_8 Cu20_3 1_555 1_555
O12_12 H62_8 1_555 1_555
O11_12 H66_8 1_555 1_555
Cu12_2 O1_3 1_555 1_555
O1_3 C1_3 1_555 1_555
O2_3 Cu8_2 1_555 1_555
O5_3 Cu12_2 1_555 1_555
O6_3 Cu8_2 1_555 1_555
O36_3 C37_3 1_555 1_555
O9_3 C38_3 1_555 1_555
O10_3 C38_3 1_555 1_555
O40_6 C53_3 1_555 1_555
O42_6 C53_3 1_555 1_555
O43_2 C54_3 1_555 1_555
O45_2 C54_3 1_555 1_555
N1_3 N2_3 1_555 1_555
N2_3 N3_3 1_555 1_555
N3_3 C10_3 1_555 1_555
N4_3 N5_3 1_555 1_555
N5_3 N6_3 1_555 1_555
N6_3 C29_3 1_555 1_555
N7_3 N8_3 1_555 1_555
N8_3 N9_3 1_555 1_555
N9_3 C45_3 1_555 1_555
C1_3 O2_3 1_555 1_555
C2_3 C1_3 1_555 1_555
C3_3 C2_3 1_555 1_555
C6_3 N1_3 1_555 1_555
C7_3 C2_3 1_555 1_555
H3_3 C7_3 1_555 1_555
C9_3 N1_3 1_555 1_555
H4_3 C9_3 1_555 1_555
C10_3 C9_3 1_555 1_555
C11_3 C10_3 1_555 1_555
C12_3 C11_3 1_555 1_555
H5_3 C12_3 1_555 1_555
C13_3 C12_3 1_555 1_555
H6_3 C13_3 1_555 1_555
C14_3 C13_3 1_555 1_555
C15_3 C14_3 1_555 1_555
H7_3 C15_3 1_555 1_555
C16_3 C11_3 1_555 1_555
H8_3 C16_3 1_555 1_555
C17_3 C14_3 1_555 1_555
C18_3 C17_3 1_555 1_555
H9_3 C18_3 1_555 1_555
C19_3 C18_3 1_555 1_555
C20_3 C19_3 1_555 1_555
H10_3 C20_3 1_555 1_555
C21_3 C20_3 1_555 1_555
C22_3 C17_3 1_555 1_555
H11_3 C22_3 1_555 1_555
C23_3 C19_3 1_555 1_555
C24_3 C23_3 1_555 1_555
H12_3 C24_3 1_555 1_555
C25_3 C24_3 1_555 1_555
H13_3 C25_3 1_555 1_555
C26_3 C25_3 1_555 1_555
C27_3 C26_3 1_555 1_555
H14_3 C27_3 1_555 1_555
C28_3 C23_3 1_555 1_555
H15_3 C28_3 1_555 1_555
C29_3 C26_3 1_555 1_555
C30_3 N4_3 1_555 1_555
H16_3 C30_3 1_555 1_555
C31_3 N4_3 1_555 1_555
C32_3 C31_3 1_555 1_555
H17_3 C32_3 1_555 1_555
C33_3 C32_3 1_555 1_555
C34_3 C33_3 1_555 1_555
H18_3 C34_3 1_555 1_555
C35_3 C34_3 1_555 1_555
C36_3 C31_3 1_555 1_555
H19_3 C36_3 1_555 1_555
C37_3 O35_3 1_555 1_555
C38_3 C35_3 1_555 1_555
C39_3 C21_3 1_555 1_555
C40_3 C39_3 1_555 1_555
H20_3 C40_3 1_555 1_555
C41_3 C40_3 1_555 1_555
H21_3 C41_3 1_555 1_555
C42_3 C41_3 1_555 1_555
C43_3 C42_3 1_555 1_555
H22_3 C43_3 1_555 1_555
C44_3 C39_3 1_555 1_555
H23_3 C44_3 1_555 1_555
C45_3 C42_3 1_555 1_555
C46_3 N7_3 1_555 1_555
H24_3 C46_3 1_555 1_555
C47_3 N7_3 1_555 1_555
C48_3 C47_3 1_555 1_555
H25_3 C48_3 1_555 1_555
C49_3 C48_3 1_555 1_555
C50_3 C49_3 1_555 1_555
H26_3 C50_3 1_555 1_555
C51_3 C50_3 1_555 1_555
C52_3 C47_3 1_555 1_555
H27_3 C52_3 1_555 1_555
C53_3 C49_3 1_555 1_555
C54_3 C51_3 1_555 1_555
Cu13_3 O17_7 1_555 1_555
O17_7 C55_7 1_555 1_555
O18_7 Cu9_3 1_555 1_555
O21_7 Cu13_3 1_555 1_555
O22_7 Cu9_3 1_555 1_555
O35_4 C91_7 1_555 1_555
O36_4 C91_7 1_555 1_555
O25_3 Cu8_2 1_555 1_555
O26_3 Cu12_2 1_555 1_555
O39_2 C107_7 1_555 1_555
O41_2 C107_7 1_555 1_555
O44_4 C108_7 1_555 1_555
O46_4 C108_7 1_555 1_555
N10_7 N11_7 1_555 1_555
N11_7 N12_7 1_555 1_555
N12_7 C64_7 1_555 1_555
N13_7 N14_7 1_555 1_555
N14_7 N15_7 1_555 1_555
N15_7 C83_7 1_555 1_555
N16_7 N17_7 1_555 1_555
N17_7 N18_7 1_555 1_555
N18_7 C99_7 1_555 1_555
C55_7 O18_7 1_555 1_555
C56_7 C55_7 1_555 1_555
C57_7 C56_7 1_555 1_555
C60_7 N10_7 1_555 1_555
C61_7 C56_7 1_555 1_555
H30_7 C61_7 1_555 1_555
C63_7 N10_7 1_555 1_555
H31_7 C63_7 1_555 1_555
C64_7 C63_7 1_555 1_555
C65_7 C64_7 1_555 1_555
C66_7 C65_7 1_555 1_555
H32_7 C66_7 1_555 1_555
C67_7 C66_7 1_555 1_555
H33_7 C67_7 1_555 1_555
C68_7 C67_7 1_555 1_555
C69_7 C68_7 1_555 1_555
H34_7 C69_7 1_555 1_555
C70_7 C65_7 1_555 1_555
H35_7 C70_7 1_555 1_555
C71_7 C68_7 1_555 1_555
C72_7 C71_7 1_555 1_555
H36_7 C72_7 1_555 1_555
C73_7 C72_7 1_555 1_555
C74_7 C73_7 1_555 1_555
H37_7 C74_7 1_555 1_555
C75_7 C74_7 1_555 1_555
C76_7 C71_7 1_555 1_555
H38_7 C76_7 1_555 1_555
C77_7 C73_7 1_555 1_555
C78_7 C77_7 1_555 1_555
H39_7 C78_7 1_555 1_555
C79_7 C78_7 1_555 1_555
H40_7 C79_7 1_555 1_555
C80_7 C79_7 1_555 1_555
C81_7 C80_7 1_555 1_555
H41_7 C81_7 1_555 1_555
C82_7 C77_7 1_555 1_555
H42_7 C82_7 1_555 1_555
C83_7 C80_7 1_555 1_555
C84_7 N13_7 1_555 1_555
H43_7 C84_7 1_555 1_555
C85_7 N13_7 1_555 1_555
C86_7 C85_7 1_555 1_555
H44_7 C86_7 1_555 1_555
C87_7 C86_7 1_555 1_555
C88_7 C87_7 1_555 1_555
H45_7 C88_7 1_555 1_555
C89_7 C88_7 1_555 1_555
C90_7 C85_7 1_555 1_555
H46_7 C90_7 1_555 1_555
C91_7 C87_7 1_555 1_555
C92_7 O25_3 1_555 1_555
C93_7 C75_7 1_555 1_555
C94_7 C93_7 1_555 1_555
H47_7 C94_7 1_555 1_555
C95_7 C94_7 1_555 1_555
H48_7 C95_7 1_555 1_555
C96_7 C95_7 1_555 1_555
C97_7 C96_7 1_555 1_555
H49_7 C97_7 1_555 1_555
C98_7 C93_7 1_555 1_555
H50_7 C98_7 1_555 1_555
C99_7 C96_7 1_555 1_555
C100_7 N16_7 1_555 1_555
H51_7 C100_7 1_555 1_555
C101_7 N16_7 1_555 1_555
C102_7 C101_7 1_555 1_555
H52_7 C102_7 1_555 1_555
C103_7 C102_7 1_555 1_555
C104_7 C103_7 1_555 1_555
H53_7 C104_7 1_555 1_555
C105_7 C104_7 1_555 1_555
C106_7 C101_7 1_555 1_555
H54_7 C106_7 1_555 1_555
C107_7 C103_7 1_555 1_555
C108_7 C105_7 1_555 1_555
Cu10_2 O9_3 1_555 1_555
Cu14_2 O10_3 1_555 1_555
O37_5 Cu9_3 1_555 1_555
O38_5 Cu13_3 1_555 1_555
C6_3 C7_3 1_555 1_555
C15_3 C16_3 1_555 1_555
C21_3 C22_3 1_555 1_555
C27_3 C28_3 1_555 1_555
C29_3 C30_3 1_555 1_555
C33_3 C37_3 1_555 1_555
C35_3 C36_3 1_555 1_555
C43_3 C44_3 1_555 1_555
C45_3 C46_3 1_555 1_555
C51_3 C52_3 1_555 1_555
O26_3 C92_7 1_555 1_555
C60_7 C61_7 1_555 1_555
C69_7 C70_7 1_555 1_555
C75_7 C76_7 1_555 1_555
C81_7 C82_7 1_555 1_555
C83_7 C84_7 1_555 1_555
C89_7 C90_7 1_555 1_555
C89_7 C92_7 1_555 1_555
C97_7 C98_7 1_555 1_555
C99_7 C100_7 1_555 1_555
C105_7 C106_7 1_555 1_555
O21_7 H55_7 1_555 1_555
O21_7 H56_7 1_555 1_555
O22_7 H57_7 1_555 1_555
O22_7 H58_7 1_555 1_555
O5_3 H59_3 1_555 1_555
O5_3 H60_3 1_555 1_555
O6_3 H63_3 1_555 1_555
O6_3 H64_3 1_555 1_555
O32_2 C62_7 1_555 1_555
O34_2 C62_7 1_555 1_555
C59_7 C58_7 1_555 1_555
H29_7 C59_7 1_555 1_555
C62_7 C58_7 1_555 1_555
O32 C8_3 1_555 1_555
O34 C8_3 1_555 1_555
C5_3 C4_3 1_555 1_555
H2_3 C5_3 1_555 1_555
C8_3 C4_3 1_555 1_555
O32_3 C62_8 1_555 1_555
O34_3 C62_8 1_555 1_555
C59_8 C58_8 1_555 1_555
H29_8 C59_8 1_555 1_555
C62_8 C58_8 1_555 1_555
Cu13_4 O17_8 1_555 1_555
O17_8 C55_8 1_555 1_555
O18_8 Cu9_4 1_555 1_555
O21_8 Cu13_4 1_555 1_555
O22_8 Cu9_4 1_555 1_555
O35 C91_8 1_555 1_555
O36 C91_8 1_555 1_555
O40_4 C107_8 1_555 1_555
O42_4 C107_8 1_555 1_555
O44_5 C108_8 1_555 1_555
O46_5 C108_8 1_555 1_555
N10_8 N11_8 1_555 1_555
N11_8 N12_8 1_555 1_555
N12_8 C64_8 1_555 1_555
N13_8 N14_8 1_555 1_555
N14_8 N15_8 1_555 1_555
N15_8 C83_8 1_555 1_555
N16_8 N17_8 1_555 1_555
N17_8 N18_8 1_555 1_555
N18_8 C99_8 1_555 1_555
C55_8 O18_8 1_555 1_555
C56_8 C55_8 1_555 1_555
C57_8 C56_8 1_555 1_555
C60_8 N10_8 1_555 1_555
C61_8 C56_8 1_555 1_555
H30_8 C61_8 1_555 1_555
C63_8 N10_8 1_555 1_555
H31_8 C63_8 1_555 1_555
C64_8 C63_8 1_555 1_555
C65_8 C64_8 1_555 1_555
C66_8 C65_8 1_555 1_555
H32_8 C66_8 1_555 1_555
C67_8 C66_8 1_555 1_555
H33_8 C67_8 1_555 1_555
C68_8 C67_8 1_555 1_555
C69_8 C68_8 1_555 1_555
H34_8 C69_8 1_555 1_555
C70_8 C65_8 1_555 1_555
H35_8 C70_8 1_555 1_555
C71_8 C68_8 1_555 1_555
C72_8 C71_8 1_555 1_555
H36_8 C72_8 1_555 1_555
C73_8 C72_8 1_555 1_555
C74_8 C73_8 1_555 1_555
H37_8 C74_8 1_555 1_555
C75_8 C74_8 1_555 1_555
C76_8 C71_8 1_555 1_555
H38_8 C76_8 1_555 1_555
C77_8 C73_8 1_555 1_555
C78_8 C77_8 1_555 1_555
H39_8 C78_8 1_555 1_555
C79_8 C78_8 1_555 1_555
H40_8 C79_8 1_555 1_555
C80_8 C79_8 1_555 1_555
C81_8 C80_8 1_555 1_555
H41_8 C81_8 1_555 1_555
C82_8 C77_8 1_555 1_555
H42_8 C82_8 1_555 1_555
C83_8 C80_8 1_555 1_555
C84_8 N13_8 1_555 1_555
H43_8 C84_8 1_555 1_555
C85_8 N13_8 1_555 1_555
C86_8 C85_8 1_555 1_555
H44_8 C86_8 1_555 1_555
C87_8 C86_8 1_555 1_555
C88_8 C87_8 1_555 1_555
H45_8 C88_8 1_555 1_555
C89_8 C88_8 1_555 1_555
C90_8 C85_8 1_555 1_555
H46_8 C90_8 1_555 1_555
C91_8 C87_8 1_555 1_555
C92_8 O37_5 1_555 1_555
C93_8 C75_8 1_555 1_555
C94_8 C93_8 1_555 1_555
H47_8 C94_8 1_555 1_555
C95_8 C94_8 1_555 1_555
H48_8 C95_8 1_555 1_555
C96_8 C95_8 1_555 1_555
C97_8 C96_8 1_555 1_555
H49_8 C97_8 1_555 1_555
C98_8 C93_8 1_555 1_555
H50_8 C98_8 1_555 1_555
C99_8 C96_8 1_555 1_555
C100_8 N16_8 1_555 1_555
H51_8 C100_8 1_555 1_555
C101_8 N16_8 1_555 1_555
C102_8 C101_8 1_555 1_555
H52_8 C102_8 1_555 1_555
C103_8 C102_8 1_555 1_555
C104_8 C103_8 1_555 1_555
H53_8 C104_8 1_555 1_555
C105_8 C104_8 1_555 1_555
C106_8 C101_8 1_555 1_555
H54_8 C106_8 1_555 1_555
C107_8 C103_8 1_555 1_555
C108_8 C105_8 1_555 1_555
O37_6 Cu9_4 1_555 1_555
O38_6 Cu13_4 1_555 1_555
O38_5 C92_8 1_555 1_555
C60_8 C61_8 1_555 1_555
C69_8 C70_8 1_555 1_555
C75_8 C76_8 1_555 1_555
C81_8 C82_8 1_555 1_555
C83_8 C84_8 1_555 1_555
C89_8 C90_8 1_555 1_555
C89_8 C92_8 1_555 1_555
C97_8 C98_8 1_555 1_555
C99_8 C100_8 1_555 1_555
C105_8 C106_8 1_555 1_555
O21_8 H55_8 1_555 1_555
O21_8 H56_8 1_555 1_555
O22_8 H57_8 1_555 1_555
O22_8 H58_8 1_555 1_555
O32_4 C62_9 1_555 1_555
O34_4 C62_9 1_555 1_555
C59_9 C58_9 1_555 1_555
H29_9 C59_9 1_555 1_555
C62_9 C58_9 1_555 1_555
Cu14_2 O17_9 1_555 1_555
O17_9 C55_9 1_555 1_555
O18_9 Cu10_2 1_555 1_555
O21_9 Cu14_2 1_555 1_555
O22_9 Cu10_2 1_555 1_555
O35_2 C91_9 1_555 1_555
O36_2 C91_9 1_555 1_555
O40_5 C107_9 1_555 1_555
O42_5 C107_9 1_555 1_555
O44_6 C108_9 1_555 1_555
O46_6 C108_9 1_555 1_555
N10_9 N11_9 1_555 1_555
N11_9 N12_9 1_555 1_555
N12_9 C64_9 1_555 1_555
N13_9 N14_9 1_555 1_555
N14_9 N15_9 1_555 1_555
N15_9 C83_9 1_555 1_555
N16_9 N17_9 1_555 1_555
N17_9 N18_9 1_555 1_555
N18_9 C99_9 1_555 1_555
C55_9 O18_9 1_555 1_555
C56_9 C55_9 1_555 1_555
C57_9 C56_9 1_555 1_555
C60_9 N10_9 1_555 1_555
C61_9 C56_9 1_555 1_555
H30_9 C61_9 1_555 1_555
C63_9 N10_9 1_555 1_555
H31_9 C63_9 1_555 1_555
C64_9 C63_9 1_555 1_555
C65_9 C64_9 1_555 1_555
C66_9 C65_9 1_555 1_555
H32_9 C66_9 1_555 1_555
C67_9 C66_9 1_555 1_555
H33_9 C67_9 1_555 1_555
C68_9 C67_9 1_555 1_555
C69_9 C68_9 1_555 1_555
H34_9 C69_9 1_555 1_555
C70_9 C65_9 1_555 1_555
H35_9 C70_9 1_555 1_555
C71_9 C68_9 1_555 1_555
C72_9 C71_9 1_555 1_555
H36_9 C72_9 1_555 1_555
C73_9 C72_9 1_555 1_555
C74_9 C73_9 1_555 1_555
H37_9 C74_9 1_555 1_555
C75_9 C74_9 1_555 1_555
C76_9 C71_9 1_555 1_555
H38_9 C76_9 1_555 1_555
C77_9 C73_9 1_555 1_555
C78_9 C77_9 1_555 1_555
H39_9 C78_9 1_555 1_555
C79_9 C78_9 1_555 1_555
H40_9 C79_9 1_555 1_555
C80_9 C79_9 1_555 1_555
C81_9 C80_9 1_555 1_555
H41_9 C81_9 1_555 1_555
C82_9 C77_9 1_555 1_555
H42_9 C82_9 1_555 1_555
C83_9 C80_9 1_555 1_555
C84_9 N13_9 1_555 1_555
H43_9 C84_9 1_555 1_555
C85_9 N13_9 1_555 1_555
C86_9 C85_9 1_555 1_555
H44_9 C86_9 1_555 1_555
C87_9 C86_9 1_555 1_555
C88_9 C87_9 1_555 1_555
H45_9 C88_9 1_555 1_555
C89_9 C88_9 1_555 1_555
C90_9 C85_9 1_555 1_555
H46_9 C90_9 1_555 1_555
C91_9 C87_9 1_555 1_555
C92_9 O37_6 1_555 1_555
C93_9 C75_9 1_555 1_555
C94_9 C93_9 1_555 1_555
H47_9 C94_9 1_555 1_555
C95_9 C94_9 1_555 1_555
H48_9 C95_9 1_555 1_555
C96_9 C95_9 1_555 1_555
C97_9 C96_9 1_555 1_555
H49_9 C97_9 1_555 1_555
C98_9 C93_9 1_555 1_555
H50_9 C98_9 1_555 1_555
C99_9 C96_9 1_555 1_555
C100_9 N16_9 1_555 1_555
H51_9 C100_9 1_555 1_555
C101_9 N16_9 1_555 1_555
C102_9 C101_9 1_555 1_555
H52_9 C102_9 1_555 1_555
C103_9 C102_9 1_555 1_555
C104_9 C103_9 1_555 1_555
H53_9 C104_9 1_555 1_555
C105_9 C104_9 1_555 1_555
C106_9 C101_9 1_555 1_555
H54_9 C106_9 1_555 1_555
C107_9 C103_9 1_555 1_555
C108_9 C105_9 1_555 1_555
O38_6 C92_9 1_555 1_555
C60_9 C61_9 1_555 1_555
C69_9 C70_9 1_555 1_555
C75_9 C76_9 1_555 1_555
C81_9 C82_9 1_555 1_555
C83_9 C84_9 1_555 1_555
C89_9 C90_9 1_555 1_555
C89_9 C92_9 1_555 1_555
C97_9 C98_9 1_555 1_555
C99_9 C100_9 1_555 1_555
C105_9 C106_9 1_555 1_555
O21_9 H55_9 1_555 1_555
O21_9 H56_9 1_555 1_555
O22_9 H57_9 1_555 1_555
O22_9 H58_9 1_555 1_555
Cu13 O17_10 1_555 1_555
O17_10 C55_10 1_555 1_555
O18_10 Cu9 1_555 1_555
O32_6 C62_10 1_555 1_555
O34_6 C62_10 1_555 1_555
O21_10 Cu13 1_555 1_555
O22_10 Cu9 1_555 1_555
O44 C108_10 1_555 1_555
O46 C108_10 1_555 1_555
N10_10 N11_10 1_555 1_555
N11_10 N12_10 1_555 1_555
N12_10 C64_10 1_555 1_555
N16_10 N17_10 1_555 1_555
N17_10 N18_10 1_555 1_555
N18_10 C99_10 1_555 1_555
C55_10 O18_10 1_555 1_555
C56_10 C55_10 1_555 1_555
C57_10 C56_10 1_555 1_555
H28_10 C57_10 1_555 1_555
C58_10 C57_10 1_555 1_555
C59_10 C58_10 1_555 1_555
H29_10 C59_10 1_555 1_555
C60_10 N10_10 1_555 1_555
C61_10 C56_10 1_555 1_555
H30_10 C61_10 1_555 1_555
C62_10 C58_10 1_555 1_555
C63_10 N10_10 1_555 1_555
H31_10 C63_10 1_555 1_555
C64_10 C63_10 1_555 1_555
C65_10 C64_10 1_555 1_555
C66_10 C65_10 1_555 1_555
H32_10 C66_10 1_555 1_555
C67_10 C66_10 1_555 1_555
H33_10 C67_10 1_555 1_555
C68_10 C67_10 1_555 1_555
C69_10 C68_10 1_555 1_555
H34_10 C69_10 1_555 1_555
C70_10 C65_10 1_555 1_555
H35_10 C70_10 1_555 1_555
C71_10 C68_10 1_555 1_555
C76_10 C71_10 1_555 1_555
H38_10 C76_10 1_555 1_555
C93_10 C75_10 1_555 1_555
C94_10 C93_10 1_555 1_555
C95_10 C94_10 1_555 1_555
C96_10 C95_10 1_555 1_555
C97_10 C96_10 1_555 1_555
H49_10 C97_10 1_555 1_555
C98_10 C93_10 1_555 1_555
H50_10 C98_10 1_555 1_555
C99_10 C96_10 1_555 1_555
C100_10 N16_10 1_555 1_555
H51_10 C100_10 1_555 1_555
C101_10 N16_10 1_555 1_555
C102_10 C101_10 1_555 1_555
H52_10 C102_10 1_555 1_555
C103_10 C102_10 1_555 1_555
C104_10 C103_10 1_555 1_555
H53_10 C104_10 1_555 1_555
C105_10 C104_10 1_555 1_555
C106_10 C101_10 1_555 1_555
H54_10 C106_10 1_555 1_555
C108_10 C105_10 1_555 1_555
O37_7 Cu9 1_555 1_555
O38_7 Cu13 1_555 1_555
C59_10 C60_10 1_555 1_555
C60_10 C61_10 1_555 1_555
C69_10 C70_10 1_555 1_555
C75_10 C76_10 1_555 1_555
C97_10 C98_10 1_555 1_555
C99_10 C100_10 1_555 1_555
C105_10 C106_10 1_555 1_555
O21_10 H55_10 1_555 1_555
O21_10 H56_10 1_555 1_555
O22_10 H57_10 1_555 1_555
O22_10 H58_10 1_555 1_555
O36_7 C37_4 1_555 1_555
O9_4 C38_4 1_555 1_555
O10_4 C38_4 1_555 1_555
O40_3 C53_4 1_555 1_555
O42_3 C53_4 1_555 1_555
N4_4 N5_4 1_555 1_555
N5_4 N6_4 1_555 1_555
N6_4 C29_4 1_555 1_555
H9_4 C18_4 1_555 1_555
C19_4 C18_4 1_555 1_555
C20_4 C19_4 1_555 1_555
H10_4 C20_4 1_555 1_555
C23_4 C19_4 1_555 1_555
C24_4 C23_4 1_555 1_555
H12_4 C24_4 1_555 1_555
C25_4 C24_4 1_555 1_555
H13_4 C25_4 1_555 1_555
C26_4 C25_4 1_555 1_555
C27_4 C26_4 1_555 1_555
H14_4 C27_4 1_555 1_555
C28_4 C23_4 1_555 1_555
H15_4 C28_4 1_555 1_555
C29_4 C26_4 1_555 1_555
C30_4 N4_4 1_555 1_555
H16_4 C30_4 1_555 1_555
C31_4 N4_4 1_555 1_555
C32_4 C31_4 1_555 1_555
H17_4 C32_4 1_555 1_555
C33_4 C32_4 1_555 1_555
C34_4 C33_4 1_555 1_555
H18_4 C34_4 1_555 1_555
C35_4 C34_4 1_555 1_555
C36_4 C31_4 1_555 1_555
H19_4 C36_4 1_555 1_555
C37_4 O35_7 1_555 1_555
C38_4 C35_4 1_555 1_555
Cu10 O9_4 1_555 1_555
Cu14 O10_4 1_555 1_555
C27_4 C28_4 1_555 1_555
C29_4 C30_4 1_555 1_555
C33_4 C37_4 1_555 1_555
C35_4 C36_4 1_555 1_555
O12_10 H61_5 1_555 1_555
O11_10 H65_5 1_555 1_555
Cu12 O1_4 1_555 1_555
O1_4 C1_4 1_555 1_555
O2_4 Cu8 1_555 1_555
O32_5 C8_4 1_555 1_555
O34_5 C8_4 1_555 1_555
O5_4 Cu12 1_555 1_555
O6_4 Cu8 1_555 1_555
O43 C54_4 1_555 1_555
O45 C54_4 1_555 1_555
N1_4 N2_4 1_555 1_555
N2_4 N3_4 1_555 1_555
N3_4 C10_4 1_555 1_555
N7_4 N8_4 1_555 1_555
N8_4 N9_4 1_555 1_555
N9_4 C45_4 1_555 1_555
C1_4 O2_4 1_555 1_555
C2_4 C1_4 1_555 1_555
C3_4 C2_4 1_555 1_555
H1_4 C3_4 1_555 1_555
C4_4 C3_4 1_555 1_555
C5_4 C4_4 1_555 1_555
H2_4 C5_4 1_555 1_555
C6_4 N1_4 1_555 1_555
C7_4 C2_4 1_555 1_555
H3_4 C7_4 1_555 1_555
C8_4 C4_4 1_555 1_555
C9_4 N1_4 1_555 1_555
H4_4 C9_4 1_555 1_555
C10_4 C9_4 1_555 1_555
C11_4 C10_4 1_555 1_555
C12_4 C11_4 1_555 1_555
H5_4 C12_4 1_555 1_555
C13_4 C12_4 1_555 1_555
H6_4 C13_4 1_555 1_555
C14_4 C13_4 1_555 1_555
C15_4 C14_4 1_555 1_555
H7_4 C15_4 1_555 1_555
C16_4 C11_4 1_555 1_555
H8_4 C16_4 1_555 1_555
C17_4 C14_4 1_555 1_555
C22_4 C17_4 1_555 1_555
H11_4 C22_4 1_555 1_555
C39_4 C21_4 1_555 1_555
C40_4 C39_4 1_555 1_555
C41_4 C40_4 1_555 1_555
C42_4 C41_4 1_555 1_555
C43_4 C42_4 1_555 1_555
H22_4 C43_4 1_555 1_555
C44_4 C39_4 1_555 1_555
H23_4 C44_4 1_555 1_555
C45_4 C42_4 1_555 1_555
C46_4 N7_4 1_555 1_555
H24_4 C46_4 1_555 1_555
C47_4 N7_4 1_555 1_555
C48_4 C47_4 1_555 1_555
H25_4 C48_4 1_555 1_555
C49_4 C48_4 1_555 1_555
C50_4 C49_4 1_555 1_555
H26_4 C50_4 1_555 1_555
C51_4 C50_4 1_555 1_555
C52_4 C47_4 1_555 1_555
H27_4 C52_4 1_555 1_555
C54_4 C51_4 1_555 1_555
O35_8 C91_10 1_555 1_555
O36_8 C91_10 1_555 1_555
O25_4 Cu8 1_555 1_555
O26_4 Cu12 1_555 1_555
O39 C107_10 1_555 1_555
O41 C107_10 1_555 1_555
N13_10 N14_10 1_555 1_555
N14_10 N15_10 1_555 1_555
N15_10 C83_10 1_555 1_555
H36_10 C72_10 1_555 1_555
C73_10 C72_10 1_555 1_555
C74_10 C73_10 1_555 1_555
H37_10 C74_10 1_555 1_555
C77_10 C73_10 1_555 1_555
C78_10 C77_10 1_555 1_555
H39_10 C78_10 1_555 1_555
C79_10 C78_10 1_555 1_555
H40_10 C79_10 1_555 1_555
C80_10 C79_10 1_555 1_555
C81_10 C80_10 1_555 1_555
H41_10 C81_10 1_555 1_555
C82_10 C77_10 1_555 1_555
H42_10 C82_10 1_555 1_555
C83_10 C80_10 1_555 1_555
C84_10 N13_10 1_555 1_555
H43_10 C84_10 1_555 1_555
C85_10 N13_10 1_555 1_555
C86_10 C85_10 1_555 1_555
H44_10 C86_10 1_555 1_555
C87_10 C86_10 1_555 1_555
C88_10 C87_10 1_555 1_555
H45_10 C88_10 1_555 1_555
C89_10 C88_10 1_555 1_555
C90_10 C85_10 1_555 1_555
H46_10 C90_10 1_555 1_555
C91_10 C87_10 1_555 1_555
C92_10 O25_4 1_555 1_555
C5_4 C6_4 1_555 1_555
C6_4 C7_4 1_555 1_555
C15_4 C16_4 1_555 1_555
C21_4 C22_4 1_555 1_555
C43_4 C44_4 1_555 1_555
C45_4 C46_4 1_555 1_555
C51_4 C52_4 1_555 1_555
O26_4 C92_10 1_555 1_555
C81_10 C82_10 1_555 1_555
C83_10 C84_10 1_555 1_555
C89_10 C90_10 1_555 1_555
C89_10 C92_10 1_555 1_555
O5_4 H59_4 1_555 1_555
O5_4 H60_4 1_555 1_555
O6_4 H63_4 1_555 1_555
O6_4 H64_4 1_555 1_555
Cu13_2 O17_11 1_555 1_555
O17_11 C55_11 1_555 1_555
O18_11 Cu9_2 1_555 1_555
O32_7 C62_11 1_555 1_555
O34_7 C62_11 1_555 1_555
O21_11 Cu13_2 1_555 1_555
O22_11 Cu9_2 1_555 1_555
O44_2 C108_11 1_555 1_555
O46_2 C108_11 1_555 1_555
N10_11 N11_11 1_555 1_555
N11_11 N12_11 1_555 1_555
N12_11 C64_11 1_555 1_555
N16_11 N17_11 1_555 1_555
N17_11 N18_11 1_555 1_555
N18_11 C99_11 1_555 1_555
C55_11 O18_11 1_555 1_555
C56_11 C55_11 1_555 1_555
C57_11 C56_11 1_555 1_555
H28_11 C57_11 1_555 1_555
C58_11 C57_11 1_555 1_555
C59_11 C58_11 1_555 1_555
H29_11 C59_11 1_555 1_555
C60_11 N10_11 1_555 1_555
C61_11 C56_11 1_555 1_555
H30_11 C61_11 1_555 1_555
C62_11 C58_11 1_555 1_555
C63_11 N10_11 1_555 1_555
H31_11 C63_11 1_555 1_555
C64_11 C63_11 1_555 1_555
C65_11 C64_11 1_555 1_555
C66_11 C65_11 1_555 1_555
H32_11 C66_11 1_555 1_555
C67_11 C66_11 1_555 1_555
H33_11 C67_11 1_555 1_555
C68_11 C67_11 1_555 1_555
C69_11 C68_11 1_555 1_555
H34_11 C69_11 1_555 1_555
C70_11 C65_11 1_555 1_555
H35_11 C70_11 1_555 1_555
C71_11 C68_11 1_555 1_555
C76_11 C71_11 1_555 1_555
H38_11 C76_11 1_555 1_555
C93_11 C75_11 1_555 1_555
C94_11 C93_11 1_555 1_555
C95_11 C94_11 1_555 1_555
C96_11 C95_11 1_555 1_555
C97_11 C96_11 1_555 1_555
H49_11 C97_11 1_555 1_555
C98_11 C93_11 1_555 1_555
H50_11 C98_11 1_555 1_555
C99_11 C96_11 1_555 1_555
C100_11 N16_11 1_555 1_555
H51_11 C100_11 1_555 1_555
C101_11 N16_11 1_555 1_555
C102_11 C101_11 1_555 1_555
H52_11 C102_11 1_555 1_555
C103_11 C102_11 1_555 1_555
C104_11 C103_11 1_555 1_555
H53_11 C104_11 1_555 1_555
C105_11 C104_11 1_555 1_555
C106_11 C101_11 1_555 1_555
H54_11 C106_11 1_555 1_555
C108_11 C105_11 1_555 1_555
O37_8 Cu9_2 1_555 1_555
O38_8 Cu13_2 1_555 1_555
C59_11 C60_11 1_555 1_555
C60_11 C61_11 1_555 1_555
C69_11 C70_11 1_555 1_555
C75_11 C76_11 1_555 1_555
C97_11 C98_11 1_555 1_555
C99_11 C100_11 1_555 1_555
C105_11 C106_11 1_555 1_555
O21_11 H55_11 1_555 1_555
O21_11 H56_11 1_555 1_555
O22_11 H57_11 1_555 1_555
O22_11 H58_11 1_555 1_555
O35_5 C91_11 1_555 1_555
O36_5 C91_11 1_555 1_555
O40 C107_11 1_555 1_555
O42 C107_11 1_555 1_555
N13_11 N14_11 1_555 1_555
N14_11 N15_11 1_555 1_555
N15_11 C83_11 1_555 1_555
H36_11 C72_11 1_555 1_555
C73_11 C72_11 1_555 1_555
C74_11 C73_11 1_555 1_555
H37_11 C74_11 1_555 1_555
C77_11 C73_11 1_555 1_555
C78_11 C77_11 1_555 1_555
H39_11 C78_11 1_555 1_555
C79_11 C78_11 1_555 1_555
H40_11 C79_11 1_555 1_555
C80_11 C79_11 1_555 1_555
C81_11 C80_11 1_555 1_555
H41_11 C81_11 1_555 1_555
C82_11 C77_11 1_555 1_555
H42_11 C82_11 1_555 1_555
C83_11 C80_11 1_555 1_555
C84_11 N13_11 1_555 1_555
H43_11 C84_11 1_555 1_555
C85_11 N13_11 1_555 1_555
C86_11 C85_11 1_555 1_555
H44_11 C86_11 1_555 1_555
C87_11 C86_11 1_555 1_555
C88_11 C87_11 1_555 1_555
H45_11 C88_11 1_555 1_555
C89_11 C88_11 1_555 1_555
C90_11 C85_11 1_555 1_555
H46_11 C90_11 1_555 1_555
C91_11 C87_11 1_555 1_555
C92_11 O37_7 1_555 1_555
O38_7 C92_11 1_555 1_555
C81_11 C82_11 1_555 1_555
C83_11 C84_11 1_555 1_555
C89_11 C90_11 1_555 1_555
C89_11 C92_11 1_555 1_555
O12_12 H61_6 1_555 1_555
O11_12 H65_6 1_555 1_555
O35_6 C91_12 1_555 1_555
O36_6 C91_12 1_555 1_555
O40_2 C107_12 1_555 1_555
O42_2 C107_12 1_555 1_555
N13_12 N14_12 1_555 1_555
N14_12 N15_12 1_555 1_555
N15_12 C83_12 1_555 1_555
H36_12 C72_12 1_555 1_555
C73_12 C72_12 1_555 1_555
C74_12 C73_12 1_555 1_555
H37_12 C74_12 1_555 1_555
C77_12 C73_12 1_555 1_555
C78_12 C77_12 1_555 1_555
H39_12 C78_12 1_555 1_555
C79_12 C78_12 1_555 1_555
H40_12 C79_12 1_555 1_555
C80_12 C79_12 1_555 1_555
C81_12 C80_12 1_555 1_555
H41_12 C81_12 1_555 1_555
C82_12 C77_12 1_555 1_555
H42_12 C82_12 1_555 1_555
C83_12 C80_12 1_555 1_555
C84_12 N13_12 1_555 1_555
H43_12 C84_12 1_555 1_555
C85_12 N13_12 1_555 1_555
C86_12 C85_12 1_555 1_555
H44_12 C86_12 1_555 1_555
C87_12 C86_12 1_555 1_555
C88_12 C87_12 1_555 1_555
H45_12 C88_12 1_555 1_555
C89_12 C88_12 1_555 1_555
C90_12 C85_12 1_555 1_555
H46_12 C90_12 1_555 1_555
C91_12 C87_12 1_555 1_555
C92_12 O37_8 1_555 1_555
O38_8 C92_12 1_555 1_555
C81_12 C82_12 1_555 1_555
C83_12 C84_12 1_555 1_555
C89_12 C90_12 1_555 1_555
C89_12 C92_12 1_555 1_555
O12_6 H61_7 1_555 1_555
O11_6 H65_7 1_555 1_555
Cu14 O17_12 1_555 1_555
O17_12 C55_12 1_555 1_555
O18_12 Cu10 1_555 1_555
O32_8 C62_12 1_555 1_555
O34_8 C62_12 1_555 1_555
O21_12 Cu14 1_555 1_555
O22_12 Cu10 1_555 1_555
O44_3 C108_12 1_555 1_555
O46_3 C108_12 1_555 1_555
N10_12 N11_12 1_555 1_555
N11_12 N12_12 1_555 1_555
N12_12 C64_12 1_555 1_555
N16_12 N17_12 1_555 1_555
N17_12 N18_12 1_555 1_555
N18_12 C99_12 1_555 1_555
C55_12 O18_12 1_555 1_555
C56_12 C55_12 1_555 1_555
C57_12 C56_12 1_555 1_555
H28_12 C57_12 1_555 1_555
C58_12 C57_12 1_555 1_555
C59_12 C58_12 1_555 1_555
H29_12 C59_12 1_555 1_555
C60_12 N10_12 1_555 1_555
C61_12 C56_12 1_555 1_555
H30_12 C61_12 1_555 1_555
C62_12 C58_12 1_555 1_555
C63_12 N10_12 1_555 1_555
H31_12 C63_12 1_555 1_555
C64_12 C63_12 1_555 1_555
C65_12 C64_12 1_555 1_555
C66_12 C65_12 1_555 1_555
H32_12 C66_12 1_555 1_555
C67_12 C66_12 1_555 1_555
H33_12 C67_12 1_555 1_555
C68_12 C67_12 1_555 1_555
C69_12 C68_12 1_555 1_555
H34_12 C69_12 1_555 1_555
C70_12 C65_12 1_555 1_555
H35_12 C70_12 1_555 1_555
C71_12 C68_12 1_555 1_555
C76_12 C71_12 1_555 1_555
H38_12 C76_12 1_555 1_555
C93_12 C75_12 1_555 1_555
C94_12 C93_12 1_555 1_555
C95_12 C94_12 1_555 1_555
C96_12 C95_12 1_555 1_555
C97_12 C96_12 1_555 1_555
H49_12 C97_12 1_555 1_555
C98_12 C93_12 1_555 1_555
H50_12 C98_12 1_555 1_555
C99_12 C96_12 1_555 1_555
C100_12 N16_12 1_555 1_555
H51_12 C100_12 1_555 1_555
C101_12 N16_12 1_555 1_555
C102_12 C101_12 1_555 1_555
H52_12 C102_12 1_555 1_555
C103_12 C102_12 1_555 1_555
C104_12 C103_12 1_555 1_555
H53_12 C104_12 1_555 1_555
C105_12 C104_12 1_555 1_555
C106_12 C101_12 1_555 1_555
H54_12 C106_12 1_555 1_555
C108_12 C105_12 1_555 1_555
C59_12 C60_12 1_555 1_555
C60_12 C61_12 1_555 1_555
C69_12 C70_12 1_555 1_555
C75_12 C76_12 1_555 1_555
C97_12 C98_12 1_555 1_555
C99_12 C100_12 1_555 1_555
C105_12 C106_12 1_555 1_555
O21_12 H55_12 1_555 1_555
O21_12 H56_12 1_555 1_555
O22_12 H57_12 1_555 1_555
O22_12 H58_12 1_555 1_555
O12_8 H61_8 1_555 1_555
O11_8 H65_8 1_555 1_555

#END
