
###############################################################################
#
# This file contains modified crystal structure data generated from the
# MOF subset of the Cambridge Structural Database (CSD) v543 
# hosted by the Cambridge Crystallographic Data Centre (CCDC).
#
# This work is licensed under the Creative Commons
# Attribution-NonCommercial-ShareAlike 4.0 International License.
# To view a copy of this license, visit
# http://creativecommons.org/licenses/by-nc-sa/4.0/
# or send a letter to
# Creative Commons, PO Box 1866, Mountain View, CA 94042, USA.
#
# CIF created using the CSD Python API on 29 September 2022
# The structure has been converted into the P1 space group
# The structure has a 3D framework
# The original CSD entry PODXIR is in the orthorhombic crystal system
# The framework has been calculated to contain at least 10.0% void space
# The void calculation uses a probe of radius 1.32A, grid spacing 0.4
#
###############################################################################

data_PODXIR
_chemical_formula_moiety         '(C216 H168 Cd8 Cl12 N56)n'
_symmetry_cell_setting           triclinic
_symmetry_space_group_name_H-M   'P 1'
_symmetry_Int_Tables_number      1
_space_group_name_Hall           'P 1'
loop_
_symmetry_equiv_pos_site_id
_symmetry_equiv_pos_as_xyz
1 x,y,z
_cell_length_a                   25.6632(5)
_cell_length_b                   15.0315(3)
_cell_length_c                   17.7572(3)
_cell_angle_alpha                90
_cell_angle_beta                 90
_cell_angle_gamma                90
_cell_volume                     6849.95
loop_
_atom_site_label
_atom_site_type_symbol
_atom_site_fract_x
_atom_site_fract_y
_atom_site_fract_z
H21 H 0.0081 0.0248 0.8982
Cd1 Cd 0.190304(10) 0.424848(18) 0.456955(14)
Cl1 Cl 0.17484(4) 0.25149(7) 0.45555(5)
Cl2 Cl 0.29405(4) 0.40222(8) 0.46037(6)
N3 N 0.19260(14) 0.4275(2) 0.3279(2)
N5 N 0.18749(17) 0.4684(3) 0.2089(2)
C2 C 0.16533(16) 0.6235(3) 0.0147(2)
C3 C 0.1981(5) 0.3803(4) 0.2101(3)
H2 H 0.2029 0.3437 0.1685
C4 C 0.1748(2) 0.5342(3) 0.0094(2)
C5 C 0.18188(19) 0.4835(3) 0.0739(2)
H4 H 0.1874 0.4226 0.0698
C6 C 0.18599(15) 0.4944(3) 0.2813(2)
H5 H 0.1809 0.5529 0.2966
C8 C 0.18084(17) 0.5223(3) 0.1430(2)
C20 C 0.2004(4) 0.3554(4) 0.2837(3)
H14 H 0.2064 0.2979 0.3009
C21 C 0.1744(4) 0.6126(4) 0.1484(3)
H15 H 0.1747 0.6401 0.1954
C23 C 0.1674(4) 0.6628(4) 0.0836(3)
H17 H 0.1641 0.7243 0.0873
H20 H 0.0699 0.6701 0.0230
Cd3 Cd 0.309696(10) 0.575152(18) 0.456955(14)
Cl3 Cl 0.20595(4) 0.59778(8) 0.46037(6)
N8 N 0.09870(13) 0.4445(2) 0.44689(19)
N9 N 0.18523(13) 0.4170(2) 0.5864(2)
N1 N 0.28970(12) 0.6096(2) 0.70328(17)
N2 N 0.15637(14) 0.6743(3) 0.94810(18)
N7 N 0.31477(13) 0.5830(2) 0.5864(2)
H3 H 0.1765 0.5073 0.9624
C7 C 0.35728(16) 0.5789(3) 0.6332(2)
H6 H 0.3911 0.5668 0.6176
C9 C 0.18948(15) 0.6599(3) 0.8850(2)
C10 C 0.27526(15) 0.6032(2) 0.6303(2)
H7 H 0.2414 0.6120 0.6131
C11 C 0.27587(15) 0.6592(3) 0.8323(2)
H8 H 0.3114 0.6701 0.8371
C12 C 0.17019(15) 0.6266(3) 0.8181(2)
H9 H 0.1347 0.6154 0.8133
C13 C 0.34301(16) 0.5950(3) 0.7050(2)
H10 H 0.3645 0.5960 0.7471
C14 C 0.24265(16) 0.6758(3) 0.8925(2)
H11 H 0.2559 0.6975 0.9377
C15 C 0.25618(14) 0.6267(2) 0.76544(19)
C16 C 0.11200(17) 0.7294(3) 0.9423(2)
C17 C 0.06737(16) 0.8533(3) 0.8850(3)
H12 H 0.0667 0.8986 0.8494
C18 C 0.11033(16) 0.7980(3) 0.8902(2)
H13 H 0.1385 0.8070 0.8582
C19 C 0.02575(17) 0.8412(3) 0.9327(3)
C22 C 0.20318(15) 0.6098(3) 0.7580(2)
H16 H 0.1900 0.5874 0.7130
C25 C 0.0266(2) 0.7731(4) 0.9843(4)
C26 C 0.0698(2) 0.7167(4) 0.9886(3)
N4 N 0.90130(13) 0.9445(2) 0.94689(19)
N6 N 0.98140(15) 0.8990(3) 0.9301(2)
C1 C 0.93315(15) 0.8759(3) 0.9505(2)
H1 H 0.9234 0.8190 0.9652
C27 C 0.9802(2) 0.9895(4) 0.9132(5)
Cd4 Cd 0.809696(10) 0.924848(18) 0.956955(14)
Cl1_2 Cl 0.32516(4) 0.74851(7) 0.45555(5)
N3_2 N 0.30740(14) 0.5725(2) 0.3279(2)
N5_2 N 0.31251(17) 0.5316(3) 0.2089(2)
C2_2 C 0.33467(16) 0.3765(3) 0.0147(2)
C3_2 C 0.3019(5) 0.6197(4) 0.2101(3)
H2_2 H 0.2971 0.6563 0.1685
C4_2 C 0.3252(2) 0.4658(3) 0.0094(2)
C5_2 C 0.31812(19) 0.5165(3) 0.0739(2)
H4_2 H 0.3126 0.5774 0.0698
C6_2 C 0.31401(15) 0.5056(3) 0.2813(2)
H5_2 H 0.3191 0.4471 0.2966
C8_2 C 0.31916(17) 0.4777(3) 0.1430(2)
C20_2 C 0.2996(4) 0.6446(4) 0.2837(3)
H14_2 H 0.2936 0.7021 0.3009
C21_2 C 0.3256(4) 0.3874(4) 0.1484(3)
H15_2 H 0.3253 0.3599 0.1954
C23_2 C 0.3326(4) 0.3372(4) 0.0836(3)
H17_2 H 0.3359 0.2757 0.0873
H19 H 0.5015 0.2354 0.0164
H20_2 H 0.4301 0.3299 0.0230
N8_2 N 0.40130(13) 0.5555(2) 0.44689(19)
N1_2 N 0.21030(12) 0.3904(2) 0.70328(17)
N2_2 N 0.34363(14) 0.3257(3) 0.94810(18)
N4_2 N 0.59870(13) 0.0555(2) 0.94689(19)
N6_2 N 0.51860(15) 0.1010(3) 0.9301(2)
C1_2 C 0.56685(15) 0.1241(3) 0.9505(2)
H1_2 H 0.5766 0.1810 0.9652
H3_2 H 0.3235 0.4927 0.9624
C7_2 C 0.14272(16) 0.4211(3) 0.6332(2)
H6_2 H 0.1089 0.4332 0.6176
C9_2 C 0.31052(15) 0.3401(3) 0.8850(2)
C10_2 C 0.22474(15) 0.3968(2) 0.6303(2)
H7_2 H 0.2586 0.3880 0.6131
C11_2 C 0.22413(15) 0.3408(3) 0.8323(2)
H8_2 H 0.1886 0.3299 0.8371
C12_2 C 0.32981(15) 0.3734(3) 0.8181(2)
H9_2 H 0.3653 0.3846 0.8133
C13_2 C 0.15699(16) 0.4050(3) 0.7050(2)
H10_2 H 0.1355 0.4040 0.7471
C14_2 C 0.25735(16) 0.3242(3) 0.8925(2)
H11_2 H 0.2441 0.3025 0.9377
C15_2 C 0.24382(14) 0.3733(2) 0.76544(19)
C16_2 C 0.38800(17) 0.2706(3) 0.9423(2)
C17_2 C 0.43263(16) 0.1467(3) 0.8850(3)
H12_2 H 0.4333 0.1014 0.8494
C18_2 C 0.38967(16) 0.2020(3) 0.8902(2)
H13_2 H 0.3615 0.1930 0.8582
C19_2 C 0.47425(17) 0.1588(3) 0.9327(3)
C22_2 C 0.29682(15) 0.3902(3) 0.7580(2)
H16_2 H 0.3100 0.4126 0.7130
C25_2 C 0.4734(2) 0.2269(4) 0.9843(4)
C26_2 C 0.4302(2) 0.2833(4) 0.9886(3)
C27_2 C 0.5198(2) 0.0105(4) 0.9132(5)
Cd4_2 Cd 0.690304(10) 0.075152(18) 0.956955(14)
N6_3 N 0.01860(15) 0.3990(3) 0.4301(2)
C1_3 C 0.06685(15) 0.3759(3) 0.4505(2)
H1_3 H 0.0766 0.3190 0.4652
C24 C 0.0701(2) 0.5156(3) 0.4230(4)
H18 H 0.0829 0.5726 0.4147
H19_2 H 0.0015 0.2646 0.5164
C27_3 C 0.0198(2) 0.4895(4) 0.4132(5)
N1_3 N 0.71030(12) 0.1096(2) 0.20328(17)
N2_3 N 0.84363(14) 0.1743(3) 0.44810(18)
N7_2 N 0.68523(13) 0.0830(2) 0.0864(2)
C2_3 C 0.83467(16) 0.1235(3) 0.5147(2)
C4_3 C 0.8252(2) 0.0342(3) 0.5094(2)
H3_3 H 0.8235 0.0073 0.4624
H5_3 H 0.8191 0.0529 0.7966
C7_3 C 0.64272(16) 0.0789(3) 0.1332(2)
H6_3 H 0.6089 0.0668 0.1176
C8_3 C 0.81916(17) 0.0223(3) 0.6430(2)
C9_3 C 0.81052(15) 0.1599(3) 0.3850(2)
C10_3 C 0.72474(15) 0.1032(2) 0.1303(2)
H7_3 H 0.7586 0.1120 0.1131
C11_3 C 0.72413(15) 0.1592(3) 0.3323(2)
H8_3 H 0.6886 0.1701 0.3371
C12_3 C 0.82981(15) 0.1266(3) 0.3181(2)
H9_3 H 0.8653 0.1154 0.3133
C13_3 C 0.65699(16) 0.0950(3) 0.2050(2)
H10_3 H 0.6355 0.0960 0.2471
C14_3 C 0.75735(16) 0.1758(3) 0.3925(2)
H11_3 H 0.7441 0.1975 0.4377
C15_3 C 0.74382(14) 0.1267(2) 0.26544(19)
C16_3 C 0.88800(17) 0.2294(3) 0.4423(2)
C17_3 C 0.93263(16) 0.3533(3) 0.3850(3)
H12_3 H 0.9333 0.3986 0.3494
C18_3 C 0.88967(16) 0.2980(3) 0.3902(2)
H13_3 H 0.8615 0.3070 0.3582
C19_3 C 0.97425(17) 0.3412(3) 0.4327(3)
C21_3 C 0.8256(4) 0.1126(4) 0.6484(3)
H15_3 H 0.8253 0.1401 0.6954
C22_3 C 0.79682(15) 0.1098(3) 0.2580(2)
H16_3 H 0.8100 0.0874 0.2130
C23_3 C 0.8326(4) 0.1628(4) 0.5836(3)
H17_3 H 0.8359 0.2243 0.5873
C25_3 C 0.9734(2) 0.2731(4) 0.4843(4)
C26_3 C 0.9302(2) 0.2167(4) 0.4886(3)
H20_3 H 0.9301 0.1701 0.5230
H21_2 H 0.9919 0.5248 0.3982
Cl3_2 Cl 0.79405(4) 0.09778(8) 0.96037(6)
N9_2 N 0.81477(13) 0.9170(2) 0.0864(2)
Cl1_3 Cl 0.82516(4) 0.75149(7) 0.95555(5)
Cl2_2 Cl 0.70595(4) 0.90222(8) 0.96037(6)
N3_3 N 0.80740(14) 0.9275(2) 0.8279(2)
N5_3 N 0.81251(17) 0.9684(3) 0.7089(2)
C3_3 C 0.8019(5) 0.8803(4) 0.7101(3)
H2_3 H 0.7971 0.8437 0.6685
C5_3 C 0.81812(19) 0.9835(3) 0.5739(2)
H4_3 H 0.8126 0.9226 0.5698
C6_3 C 0.81401(15) 0.9944(3) 0.7813(2)
C20_3 C 0.7996(4) 0.8554(4) 0.7837(3)
H14_3 H 0.7936 0.7979 0.8009
Cl1_4 Cl 0.67484(4) 0.24851(7) 0.95555(5)
N3_4 N 0.69260(14) 0.0725(2) 0.8279(2)
N5_4 N 0.68749(17) 0.0316(3) 0.7089(2)
C3_4 C 0.6981(5) 0.1197(4) 0.7101(3)
H2_4 H 0.7029 0.1563 0.6685
C5_4 C 0.68188(19) 0.0165(3) 0.5739(2)
H4_4 H 0.6874 0.0774 0.5698
C6_4 C 0.68599(15) 0.0056(3) 0.7813(2)
C20_4 C 0.7004(4) 0.1446(4) 0.7837(3)
H14_4 H 0.7064 0.2021 0.8009
N1_4 N 0.78970(12) 0.8904(2) 0.20328(17)
N2_4 N 0.65637(14) 0.8257(3) 0.44810(18)
N6_4 N 0.48140(15) 0.6010(3) 0.4301(2)
C1_4 C 0.43315(15) 0.6241(3) 0.4505(2)
H1_4 H 0.4234 0.6810 0.4652
C2_4 C 0.66533(16) 0.8765(3) 0.5147(2)
C4_4 C 0.6748(2) 0.9658(3) 0.5094(2)
H3_4 H 0.6765 0.9927 0.4624
H5_4 H 0.6809 0.9471 0.7966
C7_4 C 0.85728(16) 0.9211(3) 0.1332(2)
H6_4 H 0.8911 0.9332 0.1176
C8_4 C 0.68084(17) 0.9777(3) 0.6430(2)
C9_4 C 0.68948(15) 0.8401(3) 0.3850(2)
C10_4 C 0.77526(15) 0.8968(2) 0.1303(2)
H7_4 H 0.7414 0.8880 0.1131
C11_4 C 0.77587(15) 0.8408(3) 0.3323(2)
H8_4 H 0.8114 0.8299 0.3371
C12_4 C 0.67019(15) 0.8734(3) 0.3181(2)
H9_4 H 0.6347 0.8846 0.3133
C13_4 C 0.84301(16) 0.9050(3) 0.2050(2)
H10_4 H 0.8645 0.9040 0.2471
C14_4 C 0.74265(16) 0.8242(3) 0.3925(2)
H11_4 H 0.7559 0.8025 0.4377
C15_4 C 0.75618(14) 0.8733(2) 0.26544(19)
C16_4 C 0.61200(17) 0.7706(3) 0.4423(2)
C17_4 C 0.56737(16) 0.6467(3) 0.3850(3)
H12_4 H 0.5667 0.6014 0.3494
C18_4 C 0.61033(16) 0.7020(3) 0.3902(2)
H13_4 H 0.6385 0.6930 0.3582
C19_4 C 0.52575(17) 0.6588(3) 0.4327(3)
C21_4 C 0.6744(4) 0.8874(4) 0.6484(3)
H15_4 H 0.6747 0.8599 0.6954
C22_4 C 0.70318(15) 0.8902(3) 0.2580(2)
H16_4 H 0.6900 0.9126 0.2130
C23_4 C 0.6674(4) 0.8372(4) 0.5836(3)
H17_4 H 0.6641 0.7757 0.5873
C24_2 C 0.4299(2) 0.4844(3) 0.4230(4)
H18_2 H 0.4171 0.4274 0.4147
C25_4 C 0.5266(2) 0.7269(4) 0.4843(4)
H19_3 H 0.4985 0.7354 0.5164
C26_4 C 0.5698(2) 0.7833(4) 0.4886(3)
H20_4 H 0.5699 0.8299 0.5230
C27_4 C 0.4802(2) 0.5105(4) 0.4132(5)
H21_3 H 0.5081 0.4752 0.3982
C24_3 C 0.9299(2) 0.0156(3) 0.9230(4)
H18_3 H 0.9171 0.0726 0.9147
H19_4 H 0.9985 0.7646 0.0164
C24_4 C 0.5701(2) 0.9844(3) 0.9230(4)
H18_4 H 0.5829 0.9274 0.9147
H21_4 H 0.4919 0.9752 0.8982
Cd1_2 Cd 0.190304(10) 0.075152(18) 0.043045(14)
Cl1_5 Cl 0.17484(4) 0.24851(7) 0.04445(5)
Cl2_3 Cl 0.29405(4) 0.09778(8) 0.03963(6)
N3_5 N 0.19260(14) 0.0725(2) 0.1721(2)
N5_5 N 0.18749(17) 0.0316(3) 0.2911(2)
C3_5 C 0.1981(5) 0.1197(4) 0.2899(3)
H2_5 H 0.2029 0.1563 0.3315
C5_5 C 0.18188(19) 0.0165(3) 0.4261(2)
H4_5 H 0.1874 0.0774 0.4302
C6_5 C 0.18599(15) 0.0056(3) 0.2187(2)
C20_5 C 0.2004(4) 0.1446(4) 0.2163(3)
H14_5 H 0.2064 0.2021 0.1991
N8_3 N 0.09870(13) 0.0555(2) 0.05311(19)
N9_3 N 0.18523(13) 0.0830(2) 0.9136(2)
Cd2 Cd 0.309696(10) 0.924848(18) 0.043045(14)
N1_5 N 0.28970(12) 0.8904(2) 0.79672(17)
N2_5 N 0.15637(14) 0.8257(3) 0.55190(18)
N7_3 N 0.31477(13) 0.9170(2) 0.9136(2)
C2_5 C 0.16533(16) 0.8765(3) 0.4853(2)
C4_5 C 0.1748(2) 0.9658(3) 0.4906(2)
H3_5 H 0.1765 0.9927 0.5376
H5_5 H 0.1809 0.9471 0.2034
C7_5 C 0.35728(16) 0.9211(3) 0.8668(2)
H6_5 H 0.3911 0.9332 0.8824
C8_5 C 0.18084(17) 0.9777(3) 0.3570(2)
C9_5 C 0.18948(15) 0.8401(3) 0.6150(2)
C10_5 C 0.27526(15) 0.8968(2) 0.8697(2)
H7_5 H 0.2414 0.8880 0.8869
C11_5 C 0.27587(15) 0.8408(3) 0.6677(2)
H8_5 H 0.3114 0.8299 0.6629
C12_5 C 0.17019(15) 0.8734(3) 0.6819(2)
H9_5 H 0.1347 0.8846 0.6867
C13_5 C 0.34301(16) 0.9050(3) 0.7950(2)
H10_5 H 0.3645 0.9040 0.7529
C14_5 C 0.24265(16) 0.8242(3) 0.6075(2)
H11_5 H 0.2559 0.8025 0.5623
C15_5 C 0.25618(14) 0.8733(2) 0.73456(19)
C16_5 C 0.11200(17) 0.7706(3) 0.5577(2)
C17_5 C 0.06737(16) 0.6467(3) 0.6150(3)
H12_5 H 0.0667 0.6014 0.6506
C18_5 C 0.11033(16) 0.7020(3) 0.6098(2)
H13_5 H 0.1385 0.6930 0.6418
C19_5 C 0.02575(17) 0.6588(3) 0.5673(3)
C21_5 C 0.1744(4) 0.8874(4) 0.3516(3)
H15_5 H 0.1747 0.8599 0.3046
C22_5 C 0.20318(15) 0.8902(3) 0.7420(2)
H16_5 H 0.1900 0.9126 0.7870
C23_5 C 0.1674(4) 0.8372(4) 0.4164(3)
H17_5 H 0.1641 0.7757 0.4127
C25_5 C 0.0266(2) 0.7269(4) 0.5157(4)
C26_5 C 0.0698(2) 0.7833(4) 0.5114(3)
H20_5 H 0.0699 0.8299 0.4770
H21_5 H 0.0081 0.4752 0.6018
Cl3_3 Cl 0.20595(4) 0.90222(8) 0.03963(6)
N4_3 N 0.90130(13) 0.5555(2) 0.55311(19)
N6_5 N 0.98140(15) 0.6010(3) 0.5699(2)
C1_5 C 0.93315(15) 0.6241(3) 0.5495(2)
H1_5 H 0.9234 0.6810 0.5348
C24_5 C 0.9299(2) 0.4844(3) 0.5770(4)
H18_5 H 0.9171 0.4274 0.5853
H19_5 H 0.9985 0.7354 0.4836
C27_5 C 0.9802(2) 0.5105(4) 0.5868(5)
Cd4_3 Cd 0.809696(10) 0.575152(18) 0.543045(14)
N1_6 N 0.21030(12) 0.1096(2) 0.79672(17)
N2_6 N 0.34363(14) 0.1743(3) 0.55190(18)
N4_4 N 0.59870(13) 0.4445(2) 0.55311(19)
N6_6 N 0.51860(15) 0.3990(3) 0.5699(2)
C1_6 C 0.56685(15) 0.3759(3) 0.5495(2)
H1_6 H 0.5766 0.3190 0.5348
C2_6 C 0.33467(16) 0.1235(3) 0.4853(2)
C4_6 C 0.3252(2) 0.0342(3) 0.4906(2)
H3_6 H 0.3235 0.0073 0.5376
H5_6 H 0.3191 0.0529 0.2034
C7_6 C 0.14272(16) 0.0789(3) 0.8668(2)
H6_6 H 0.1089 0.0668 0.8824
C8_6 C 0.31916(17) 0.0223(3) 0.3570(2)
C9_6 C 0.31052(15) 0.1599(3) 0.6150(2)
C10_6 C 0.22474(15) 0.1032(2) 0.8697(2)
H7_6 H 0.2586 0.1120 0.8869
C11_6 C 0.22413(15) 0.1592(3) 0.6677(2)
H8_6 H 0.1886 0.1701 0.6629
C12_6 C 0.32981(15) 0.1266(3) 0.6819(2)
H9_6 H 0.3653 0.1154 0.6867
C13_6 C 0.15699(16) 0.0950(3) 0.7950(2)
H10_6 H 0.1355 0.0960 0.7529
C14_6 C 0.25735(16) 0.1758(3) 0.6075(2)
H11_6 H 0.2441 0.1975 0.5623
C15_6 C 0.24382(14) 0.1267(2) 0.73456(19)
C16_6 C 0.38800(17) 0.2294(3) 0.5577(2)
C17_6 C 0.43263(16) 0.3533(3) 0.6150(3)
H12_6 H 0.4333 0.3986 0.6506
C18_6 C 0.38967(16) 0.2980(3) 0.6098(2)
H13_6 H 0.3615 0.3070 0.6418
C19_6 C 0.47425(17) 0.3412(3) 0.5673(3)
C21_6 C 0.3256(4) 0.1126(4) 0.3516(3)
H15_6 H 0.3253 0.1401 0.3046
C22_6 C 0.29682(15) 0.1098(3) 0.7420(2)
H16_6 H 0.3100 0.0874 0.7870
C23_6 C 0.3326(4) 0.1628(4) 0.4164(3)
H17_6 H 0.3359 0.2243 0.4127
C24_6 C 0.5701(2) 0.5156(3) 0.5770(4)
H18_6 H 0.5829 0.5726 0.5853
C25_6 C 0.4734(2) 0.2731(4) 0.5157(4)
H19_6 H 0.5015 0.2646 0.4836
C26_6 C 0.4302(2) 0.2167(4) 0.5114(3)
H20_6 H 0.4301 0.1701 0.4770
C27_6 C 0.5198(2) 0.4895(4) 0.5868(5)
H21_6 H 0.4919 0.5248 0.6018
Cd4_4 Cd 0.690304(10) 0.424848(18) 0.543045(14)
Cl1_6 Cl 0.32516(4) 0.75149(7) 0.04445(5)
N3_6 N 0.30740(14) 0.9275(2) 0.1721(2)
N5_6 N 0.31251(17) 0.9684(3) 0.2911(2)
C3_6 C 0.3019(5) 0.8803(4) 0.2899(3)
H2_6 H 0.2971 0.8437 0.3315
C5_6 C 0.31812(19) 0.9835(3) 0.4261(2)
H4_6 H 0.3126 0.9226 0.4302
C6_6 C 0.31401(15) 0.9944(3) 0.2187(2)
C20_6 C 0.2996(4) 0.8554(4) 0.2163(3)
H14_6 H 0.2936 0.7979 0.1991
N8_4 N 0.40130(13) 0.9445(2) 0.05311(19)
N6_7 N 0.01860(15) 0.1010(3) 0.0699(2)
C1_7 C 0.06685(15) 0.1241(3) 0.0495(2)
H1_7 H 0.0766 0.1810 0.0348
C27_7 C 0.0198(2) 0.0105(4) 0.0868(5)
N1_7 N 0.71030(12) 0.3904(2) 0.29672(17)
N2_7 N 0.84363(14) 0.3257(3) 0.05190(18)
N7_4 N 0.68523(13) 0.4170(2) 0.4136(2)
H3_7 H 0.8235 0.4927 0.0376
C7_7 C 0.64272(16) 0.4211(3) 0.3668(2)
H6_7 H 0.6089 0.4332 0.3824
C9_7 C 0.81052(15) 0.3401(3) 0.1150(2)
C10_7 C 0.72474(15) 0.3968(2) 0.3697(2)
H7_7 H 0.7586 0.3880 0.3869
C11_7 C 0.72413(15) 0.3408(3) 0.1677(2)
H8_7 H 0.6886 0.3299 0.1629
C12_7 C 0.82981(15) 0.3734(3) 0.1819(2)
H9_7 H 0.8653 0.3846 0.1867
C13_7 C 0.65699(16) 0.4050(3) 0.2950(2)
H10_7 H 0.6355 0.4040 0.2529
C14_7 C 0.75735(16) 0.3242(3) 0.1075(2)
H11_7 H 0.7441 0.3025 0.0623
C15_7 C 0.74382(14) 0.3733(2) 0.23456(19)
C16_7 C 0.88800(17) 0.2706(3) 0.0577(2)
C17_7 C 0.93263(16) 0.1467(3) 0.1150(3)
H12_7 H 0.9333 0.1014 0.1506
C18_7 C 0.88967(16) 0.2020(3) 0.1098(2)
H13_7 H 0.8615 0.1930 0.1418
C19_7 C 0.97425(17) 0.1588(3) 0.0673(3)
C22_7 C 0.79682(15) 0.3902(3) 0.2420(2)
H16_7 H 0.8100 0.4126 0.2870
C25_7 C 0.9734(2) 0.2269(4) 0.0157(4)
C26_7 C 0.9302(2) 0.2833(4) 0.0114(3)
Cl1_7 Cl 0.82516(4) 0.74851(7) 0.54445(5)
Cl2_4 Cl 0.70595(4) 0.59778(8) 0.53963(6)
N3_7 N 0.80740(14) 0.5725(2) 0.6721(2)
N5_7 N 0.81251(17) 0.5316(3) 0.7911(2)
C2_7 C 0.83467(16) 0.3765(3) 0.9853(2)
C3_7 C 0.8019(5) 0.6197(4) 0.7899(3)
H2_7 H 0.7971 0.6563 0.8315
C4_7 C 0.8252(2) 0.4658(3) 0.9906(2)
C5_7 C 0.81812(19) 0.5165(3) 0.9261(2)
H4_7 H 0.8126 0.5774 0.9302
C6_7 C 0.81401(15) 0.5056(3) 0.7187(2)
H5_7 H 0.8191 0.4471 0.7034
C8_7 C 0.81916(17) 0.4777(3) 0.8570(2)
C20_7 C 0.7996(4) 0.6446(4) 0.7163(3)
H14_7 H 0.7936 0.7021 0.6991
C21_7 C 0.8256(4) 0.3874(4) 0.8516(3)
H15_7 H 0.8253 0.3599 0.8046
C23_7 C 0.8326(4) 0.3372(4) 0.9164(3)
H17_7 H 0.8359 0.2757 0.9127
H20_7 H 0.9301 0.3299 0.9770
Cl3_4 Cl 0.79405(4) 0.40222(8) 0.53963(6)
N9_4 N 0.81477(13) 0.5830(2) 0.4136(2)
N1_8 N 0.78970(12) 0.6096(2) 0.29672(17)
N2_8 N 0.65637(14) 0.6743(3) 0.05190(18)
N6_8 N 0.48140(15) 0.8990(3) 0.0699(2)
C1_8 C 0.43315(15) 0.8759(3) 0.0495(2)
H1_8 H 0.4234 0.8190 0.0348
H3_8 H 0.6765 0.5073 0.0376
C7_8 C 0.85728(16) 0.5789(3) 0.3668(2)
H6_8 H 0.8911 0.5668 0.3824
C9_8 C 0.68948(15) 0.6599(3) 0.1150(2)
C10_8 C 0.77526(15) 0.6032(2) 0.3697(2)
H7_8 H 0.7414 0.6120 0.3869
C11_8 C 0.77587(15) 0.6592(3) 0.1677(2)
H8_8 H 0.8114 0.6701 0.1629
C12_8 C 0.67019(15) 0.6266(3) 0.1819(2)
H9_8 H 0.6347 0.6154 0.1867
C13_8 C 0.84301(16) 0.5950(3) 0.2950(2)
H10_8 H 0.8645 0.5960 0.2529
C14_8 C 0.74265(16) 0.6758(3) 0.1075(2)
H11_8 H 0.7559 0.6975 0.0623
C15_8 C 0.75618(14) 0.6267(2) 0.23456(19)
C16_8 C 0.61200(17) 0.7294(3) 0.0577(2)
C17_8 C 0.56737(16) 0.8533(3) 0.1150(3)
H12_8 H 0.5667 0.8986 0.1506
C18_8 C 0.61033(16) 0.7980(3) 0.1098(2)
H13_8 H 0.6385 0.8070 0.1418
C19_8 C 0.52575(17) 0.8412(3) 0.0673(3)
C22_8 C 0.70318(15) 0.6098(3) 0.2420(2)
H16_8 H 0.6900 0.5874 0.2870
C25_8 C 0.5266(2) 0.7731(4) 0.0157(4)
C26_8 C 0.5698(2) 0.7167(4) 0.0114(3)
C27_8 C 0.4802(2) 0.9895(4) 0.0868(5)
Cl1_8 Cl 0.67484(4) 0.25149(7) 0.54445(5)
N3_8 N 0.69260(14) 0.4275(2) 0.6721(2)
N5_8 N 0.68749(17) 0.4684(3) 0.7911(2)
C2_8 C 0.66533(16) 0.6235(3) 0.9853(2)
C3_8 C 0.6981(5) 0.3803(4) 0.7899(3)
H2_8 H 0.7029 0.3437 0.8315
C4_8 C 0.6748(2) 0.5342(3) 0.9906(2)
C5_8 C 0.68188(19) 0.4835(3) 0.9261(2)
H4_8 H 0.6874 0.4226 0.9302
C6_8 C 0.68599(15) 0.4944(3) 0.7187(2)
H5_8 H 0.6809 0.5529 0.7034
C8_8 C 0.68084(17) 0.5223(3) 0.8570(2)
C20_8 C 0.7004(4) 0.3554(4) 0.7163(3)
H14_8 H 0.7064 0.2979 0.6991
C21_8 C 0.6744(4) 0.6126(4) 0.8516(3)
H15_8 H 0.6747 0.6401 0.8046
C23_8 C 0.6674(4) 0.6628(4) 0.9164(3)
H17_8 H 0.6641 0.7243 0.9127
H19_7 H 0.4985 0.7646 0.9836
H20_8 H 0.5699 0.6701 0.9770
H19_8 H 0.0015 0.2354 0.9836
C24_7 C 0.0701(2) 0.9844(3) 0.0770(4)
H18_7 H 0.0829 0.9274 0.0853
H21_7 H 0.9919 0.9752 0.1018
C24_8 C 0.4299(2) 0.0156(3) 0.0770(4)
H18_8 H 0.4171 0.0726 0.0853
H21_8 H 0.5081 0.0248 0.1018
loop_
_geom_bond_atom_site_label_1
_geom_bond_atom_site_label_2
_geom_bond_site_symmetry_1
_geom_bond_site_symmetry_2
Cd1 Cl1 1_555 1_555
Cl2 Cd1 1_555 1_555
N3 Cd1 1_555 1_555
N5 C3 1_555 1_555
C2 C4 1_555 1_555
C3 H2 1_555 1_555
C5 C4 1_555 1_555
H4 C5 1_555 1_555
C6 N3 1_555 1_555
H5 C6 1_555 1_555
C8 N5 1_555 1_555
C20 N3 1_555 1_555
H14 C20 1_555 1_555
C21 C8 1_555 1_555
H15 C21 1_555 1_555
C23 C2 1_555 1_555
H17 C23 1_555 1_555
Cd3 Cl2 1_555 1_555
Cl3 Cd1 1_555 1_555
N8 Cd1 1_555 1_555
N9 Cd1 1_555 1_555
N5 C6 1_555 1_555
C3 C20 1_555 1_555
C5 C8 1_555 1_555
C21 C23 1_555 1_555
Cd3 Cl3 1_555 1_555
N1 C10 1_555 1_555
N7 C7 1_555 1_555
C7 H6 1_555 1_555
C9 N2 1_555 1_555
C10 N7 1_555 1_555
H7 C10 1_555 1_555
C11 H8 1_555 1_555
C12 C9 1_555 1_555
H9 C12 1_555 1_555
C13 N1 1_555 1_555
H10 C13 1_555 1_555
C14 C9 1_555 1_555
H11 C14 1_555 1_555
C15 N1 1_555 1_555
C16 N2 1_555 1_555
C17 H12 1_555 1_555
C18 C16 1_555 1_555
H13 C18 1_555 1_555
C22 C12 1_555 1_555
H16 C22 1_555 1_555
C25 C19 1_555 1_555
C26 C16 1_555 1_555
Cd3 N7 1_555 1_555
C7 C13 1_555 1_555
C11 C14 1_555 1_555
C11 C15 1_555 1_555
C15 C22 1_555 1_555
C17 C18 1_555 1_555
C17 C19 1_555 1_555
C25 C26 1_555 1_555
N4 C1 1_555 1_555
N6 C1 1_555 1_555
C1 H1 1_555 1_555
C27 N6 1_555 1_555
Cd4 N4 1_555 1_555
Cd3 Cl1_2 1_555 1_555
N3_2 Cd3 1_555 1_555
N5_2 C3_2 1_555 1_555
C2_2 C4_2 1_555 1_555
C3_2 H2_2 1_555 1_555
C5_2 C4_2 1_555 1_555
H4_2 C5_2 1_555 1_555
C6_2 N3_2 1_555 1_555
H5_2 C6_2 1_555 1_555
C8_2 N5_2 1_555 1_555
C20_2 N3_2 1_555 1_555
H14_2 C20_2 1_555 1_555
C21_2 C8_2 1_555 1_555
H15_2 C21_2 1_555 1_555
C23_2 C2_2 1_555 1_555
H17_2 C23_2 1_555 1_555
N8_2 Cd3 1_555 1_555
N5_2 C6_2 1_555 1_555
C3_2 C20_2 1_555 1_555
C5_2 C8_2 1_555 1_555
C21_2 C23_2 1_555 1_555
N1_2 C10_2 1_555 1_555
N4_2 C1_2 1_555 1_555
N6_2 C1_2 1_555 1_555
N9 C7_2 1_555 1_555
C1_2 H1_2 1_555 1_555
C7_2 H6_2 1_555 1_555
C9_2 N2_2 1_555 1_555
C10_2 N9 1_555 1_555
H7_2 C10_2 1_555 1_555
C11_2 H8_2 1_555 1_555
C12_2 C9_2 1_555 1_555
H9_2 C12_2 1_555 1_555
C13_2 N1_2 1_555 1_555
H10_2 C13_2 1_555 1_555
C14_2 C9_2 1_555 1_555
H11_2 C14_2 1_555 1_555
C15_2 N1_2 1_555 1_555
C16_2 N2_2 1_555 1_555
C17_2 H12_2 1_555 1_555
C18_2 C16_2 1_555 1_555
H13_2 C18_2 1_555 1_555
C19_2 N6_2 1_555 1_555
C22_2 C12_2 1_555 1_555
H16_2 C22_2 1_555 1_555
C25_2 C19_2 1_555 1_555
C26_2 C16_2 1_555 1_555
C27_2 N6_2 1_555 1_555
Cd4_2 N4_2 1_555 1_555
C7_2 C13_2 1_555 1_555
C11_2 C14_2 1_555 1_555
C11_2 C15_2 1_555 1_555
C15_2 C22_2 1_555 1_555
C17_2 C18_2 1_555 1_555
C17_2 C19_2 1_555 1_555
C25_2 C26_2 1_555 1_555
N8 C1_3 1_555 1_555
N6_3 C1_3 1_555 1_555
C1_3 H1_3 1_555 1_555
C24 N8 1_555 1_555
H18 C24 1_555 1_555
C27_3 N6_3 1_555 1_555
C24 C27_3 1_555 1_555
N1_3 C10_3 1_555 1_555
N2_3 C2_3 1_555 1_555
N7_2 C7_3 1_555 1_555
C2_3 C4_3 1_555 1_555
C4_3 H3_3 1_555 1_555
C7_3 H6_3 1_555 1_555
C9_3 N2_3 1_555 1_555
C10_3 N7_2 1_555 1_555
H7_3 C10_3 1_555 1_555
C11_3 H8_3 1_555 1_555
C12_3 C9_3 1_555 1_555
H9_3 C12_3 1_555 1_555
C13_3 N1_3 1_555 1_555
H10_3 C13_3 1_555 1_555
C14_3 C9_3 1_555 1_555
H11_3 C14_3 1_555 1_555
C15_3 N1_3 1_555 1_555
C16_3 N2_3 1_555 1_555
C17_3 H12_3 1_555 1_555
C18_3 C16_3 1_555 1_555
H13_3 C18_3 1_555 1_555
C21_3 C8_3 1_555 1_555
H15_3 C21_3 1_555 1_555
C22_3 C12_3 1_555 1_555
H16_3 C22_3 1_555 1_555
C23_3 C2_3 1_555 1_555
H17_3 C23_3 1_555 1_555
C25_3 C19_3 1_555 1_555
C26_3 C16_3 1_555 1_555
H20_3 C26_3 1_555 1_555
C7_3 C13_3 1_555 1_555
C11_3 C14_3 1_555 1_555
C11_3 C15_3 1_555 1_555
C15_3 C22_3 1_555 1_555
C17_3 C18_3 1_555 1_555
C17_3 C19_3 1_555 1_555
C21_3 C23_3 1_555 1_555
C25_3 C26_3 1_555 1_555
Cd4_2 Cl3_2 1_555 1_555
Cd4 Cl1_3 1_555 1_555
Cl2_2 Cd4 1_555 1_555
N3_3 Cd4 1_555 1_555
N5_3 C3_3 1_555 1_555
C3_3 H2_3 1_555 1_555
H4_3 C5_3 1_555 1_555
C6_3 N3_3 1_555 1_555
C20_3 N3_3 1_555 1_555
H14_3 C20_3 1_555 1_555
N5_3 C6_3 1_555 1_555
C3_3 C20_3 1_555 1_555
Cd4_2 Cl1_4 1_555 1_555
N3_4 Cd4_2 1_555 1_555
N5_4 C3_4 1_555 1_555
C3_4 H2_4 1_555 1_555
H4_4 C5_4 1_555 1_555
C6_4 N3_4 1_555 1_555
C20_4 N3_4 1_555 1_555
H14_4 C20_4 1_555 1_555
N5_4 C6_4 1_555 1_555
C3_4 C20_4 1_555 1_555
N1_4 C10_4 1_555 1_555
N2_4 C2_4 1_555 1_555
N8_2 C1_4 1_555 1_555
N6_4 C1_4 1_555 1_555
N9_2 C7_4 1_555 1_555
C1_4 H1_4 1_555 1_555
C2_4 C4_4 1_555 1_555
C4_4 H3_4 1_555 1_555
C7_4 H6_4 1_555 1_555
C9_4 N2_4 1_555 1_555
C10_4 N9_2 1_555 1_555
H7_4 C10_4 1_555 1_555
C11_4 H8_4 1_555 1_555
C12_4 C9_4 1_555 1_555
H9_4 C12_4 1_555 1_555
C13_4 N1_4 1_555 1_555
H10_4 C13_4 1_555 1_555
C14_4 C9_4 1_555 1_555
H11_4 C14_4 1_555 1_555
C15_4 N1_4 1_555 1_555
C16_4 N2_4 1_555 1_555
C17_4 H12_4 1_555 1_555
C18_4 C16_4 1_555 1_555
H13_4 C18_4 1_555 1_555
C19_4 N6_4 1_555 1_555
C21_4 C8_4 1_555 1_555
H15_4 C21_4 1_555 1_555
C22_4 C12_4 1_555 1_555
H16_4 C22_4 1_555 1_555
C23_4 C2_4 1_555 1_555
H17_4 C23_4 1_555 1_555
C24_2 N8_2 1_555 1_555
H18_2 C24_2 1_555 1_555
C25_4 C19_4 1_555 1_555
H19_3 C25_4 1_555 1_555
C26_4 C16_4 1_555 1_555
H20_4 C26_4 1_555 1_555
C27_4 N6_4 1_555 1_555
H21_3 C27_4 1_555 1_555
C7_4 C13_4 1_555 1_555
C11_4 C14_4 1_555 1_555
C11_4 C15_4 1_555 1_555
C15_4 C22_4 1_555 1_555
C17_4 C18_4 1_555 1_555
C17_4 C19_4 1_555 1_555
C21_4 C23_4 1_555 1_555
C24_2 C27_4 1_555 1_555
C25_4 C26_4 1_555 1_555
H18_3 C24_3 1_555 1_555
H18_4 C24_4 1_555 1_555
Cd1_2 Cl1_5 1_555 1_555
Cl2_3 Cd1_2 1_555 1_555
N3_5 Cd1_2 1_555 1_555
N5_5 C3_5 1_555 1_555
C3_5 H2_5 1_555 1_555
H4_5 C5_5 1_555 1_555
C6_5 N3_5 1_555 1_555
C20_5 N3_5 1_555 1_555
H14_5 C20_5 1_555 1_555
N8_3 Cd1_2 1_555 1_555
N5_5 C6_5 1_555 1_555
C3_5 C20_5 1_555 1_555
N1_5 C10_5 1_555 1_555
N2_5 C2_5 1_555 1_555
N7_3 C7_5 1_555 1_555
C2_5 C4_5 1_555 1_555
C4_5 H3_5 1_555 1_555
C7_5 H6_5 1_555 1_555
C9_5 N2_5 1_555 1_555
C10_5 N7_3 1_555 1_555
H7_5 C10_5 1_555 1_555
C11_5 H8_5 1_555 1_555
C12_5 C9_5 1_555 1_555
H9_5 C12_5 1_555 1_555
C13_5 N1_5 1_555 1_555
H10_5 C13_5 1_555 1_555
C14_5 C9_5 1_555 1_555
H11_5 C14_5 1_555 1_555
C15_5 N1_5 1_555 1_555
C16_5 N2_5 1_555 1_555
C17_5 H12_5 1_555 1_555
C18_5 C16_5 1_555 1_555
H13_5 C18_5 1_555 1_555
C21_5 C8_5 1_555 1_555
H15_5 C21_5 1_555 1_555
C22_5 C12_5 1_555 1_555
H16_5 C22_5 1_555 1_555
C23_5 C2_5 1_555 1_555
H17_5 C23_5 1_555 1_555
C25_5 C19_5 1_555 1_555
C26_5 C16_5 1_555 1_555
H20_5 C26_5 1_555 1_555
C7_5 C13_5 1_555 1_555
C11_5 C14_5 1_555 1_555
C11_5 C15_5 1_555 1_555
C15_5 C22_5 1_555 1_555
C17_5 C18_5 1_555 1_555
C17_5 C19_5 1_555 1_555
C21_5 C23_5 1_555 1_555
C25_5 C26_5 1_555 1_555
Cd2 Cl3_3 1_555 1_555
N4_3 C1_5 1_555 1_555
N6_5 C1_5 1_555 1_555
C1_5 H1_5 1_555 1_555
C24_5 N4_3 1_555 1_555
H18_5 C24_5 1_555 1_555
C27_5 N6_5 1_555 1_555
Cd4_3 N4_3 1_555 1_555
C24_5 C27_5 1_555 1_555
N1_6 C10_6 1_555 1_555
N2_6 C2_6 1_555 1_555
N4_4 C1_6 1_555 1_555
N6_6 C1_6 1_555 1_555
N9_3 C7_6 1_555 1_555
C1_6 H1_6 1_555 1_555
C2_6 C4_6 1_555 1_555
C4_6 H3_6 1_555 1_555
C7_6 H6_6 1_555 1_555
C9_6 N2_6 1_555 1_555
C10_6 N9_3 1_555 1_555
H7_6 C10_6 1_555 1_555
C11_6 H8_6 1_555 1_555
C12_6 C9_6 1_555 1_555
H9_6 C12_6 1_555 1_555
C13_6 N1_6 1_555 1_555
H10_6 C13_6 1_555 1_555
C14_6 C9_6 1_555 1_555
H11_6 C14_6 1_555 1_555
C15_6 N1_6 1_555 1_555
C16_6 N2_6 1_555 1_555
C17_6 H12_6 1_555 1_555
C18_6 C16_6 1_555 1_555
H13_6 C18_6 1_555 1_555
C19_6 N6_6 1_555 1_555
C21_6 C8_6 1_555 1_555
H15_6 C21_6 1_555 1_555
C22_6 C12_6 1_555 1_555
H16_6 C22_6 1_555 1_555
C23_6 C2_6 1_555 1_555
H17_6 C23_6 1_555 1_555
C24_6 N4_4 1_555 1_555
H18_6 C24_6 1_555 1_555
C25_6 C19_6 1_555 1_555
H19_6 C25_6 1_555 1_555
C26_6 C16_6 1_555 1_555
H20_6 C26_6 1_555 1_555
C27_6 N6_6 1_555 1_555
H21_6 C27_6 1_555 1_555
Cd4_4 N4_4 1_555 1_555
C7_6 C13_6 1_555 1_555
C11_6 C14_6 1_555 1_555
C11_6 C15_6 1_555 1_555
C15_6 C22_6 1_555 1_555
C17_6 C18_6 1_555 1_555
C17_6 C19_6 1_555 1_555
C21_6 C23_6 1_555 1_555
C24_6 C27_6 1_555 1_555
C25_6 C26_6 1_555 1_555
Cd2 Cl1_6 1_555 1_555
N3_6 Cd2 1_555 1_555
N5_6 C3_6 1_555 1_555
C3_6 H2_6 1_555 1_555
H4_6 C5_6 1_555 1_555
C6_6 N3_6 1_555 1_555
C20_6 N3_6 1_555 1_555
H14_6 C20_6 1_555 1_555
N8_4 Cd2 1_555 1_555
N5_6 C6_6 1_555 1_555
C3_6 C20_6 1_555 1_555
N8_3 C1_7 1_555 1_555
N6_7 C1_7 1_555 1_555
C1_7 H1_7 1_555 1_555
C27_7 N6_7 1_555 1_555
N1_7 C10_7 1_555 1_555
N7_4 C7_7 1_555 1_555
C7_7 H6_7 1_555 1_555
C9_7 N2_7 1_555 1_555
C10_7 N7_4 1_555 1_555
H7_7 C10_7 1_555 1_555
C11_7 H8_7 1_555 1_555
C12_7 C9_7 1_555 1_555
H9_7 C12_7 1_555 1_555
C13_7 N1_7 1_555 1_555
H10_7 C13_7 1_555 1_555
C14_7 C9_7 1_555 1_555
H11_7 C14_7 1_555 1_555
C15_7 N1_7 1_555 1_555
C16_7 N2_7 1_555 1_555
C17_7 H12_7 1_555 1_555
C18_7 C16_7 1_555 1_555
H13_7 C18_7 1_555 1_555
C22_7 C12_7 1_555 1_555
H16_7 C22_7 1_555 1_555
C25_7 C19_7 1_555 1_555
C26_7 C16_7 1_555 1_555
Cd4_4 N7_4 1_555 1_555
C7_7 C13_7 1_555 1_555
C11_7 C14_7 1_555 1_555
C11_7 C15_7 1_555 1_555
C15_7 C22_7 1_555 1_555
C17_7 C18_7 1_555 1_555
C17_7 C19_7 1_555 1_555
C25_7 C26_7 1_555 1_555
Cd4_3 Cl1_7 1_555 1_555
Cl2_4 Cd4_3 1_555 1_555
N3_7 Cd4_3 1_555 1_555
N5_7 C3_7 1_555 1_555
C2_7 C4_7 1_555 1_555
C3_7 H2_7 1_555 1_555
C5_7 C4_7 1_555 1_555
H4_7 C5_7 1_555 1_555
C6_7 N3_7 1_555 1_555
H5_7 C6_7 1_555 1_555
C8_7 N5_7 1_555 1_555
C20_7 N3_7 1_555 1_555
H14_7 C20_7 1_555 1_555
C21_7 C8_7 1_555 1_555
H15_7 C21_7 1_555 1_555
C23_7 C2_7 1_555 1_555
H17_7 C23_7 1_555 1_555
Cd4_4 Cl2_4 1_555 1_555
Cl3_4 Cd4_3 1_555 1_555
N9_4 Cd4_3 1_555 1_555
N5_7 C6_7 1_555 1_555
C3_7 C20_7 1_555 1_555
C5_7 C8_7 1_555 1_555
C21_7 C23_7 1_555 1_555
Cd4_4 Cl3_4 1_555 1_555
N1_8 C10_8 1_555 1_555
N8_4 C1_8 1_555 1_555
N6_8 C1_8 1_555 1_555
N9_4 C7_8 1_555 1_555
C1_8 H1_8 1_555 1_555
C7_8 H6_8 1_555 1_555
C9_8 N2_8 1_555 1_555
C10_8 N9_4 1_555 1_555
H7_8 C10_8 1_555 1_555
C11_8 H8_8 1_555 1_555
C12_8 C9_8 1_555 1_555
H9_8 C12_8 1_555 1_555
C13_8 N1_8 1_555 1_555
H10_8 C13_8 1_555 1_555
C14_8 C9_8 1_555 1_555
H11_8 C14_8 1_555 1_555
C15_8 N1_8 1_555 1_555
C16_8 N2_8 1_555 1_555
C17_8 H12_8 1_555 1_555
C18_8 C16_8 1_555 1_555
H13_8 C18_8 1_555 1_555
C19_8 N6_8 1_555 1_555
C22_8 C12_8 1_555 1_555
H16_8 C22_8 1_555 1_555
C25_8 C19_8 1_555 1_555
C26_8 C16_8 1_555 1_555
C27_8 N6_8 1_555 1_555
C7_8 C13_8 1_555 1_555
C11_8 C14_8 1_555 1_555
C11_8 C15_8 1_555 1_555
C15_8 C22_8 1_555 1_555
C17_8 C18_8 1_555 1_555
C17_8 C19_8 1_555 1_555
C25_8 C26_8 1_555 1_555
Cd4_4 Cl1_8 1_555 1_555
N3_8 Cd4_4 1_555 1_555
N5_8 C3_8 1_555 1_555
C2_8 C4_8 1_555 1_555
C3_8 H2_8 1_555 1_555
C5_8 C4_8 1_555 1_555
H4_8 C5_8 1_555 1_555
C6_8 N3_8 1_555 1_555
H5_8 C6_8 1_555 1_555
C8_8 N5_8 1_555 1_555
C20_8 N3_8 1_555 1_555
H14_8 C20_8 1_555 1_555
C21_8 C8_8 1_555 1_555
H15_8 C21_8 1_555 1_555
C23_8 C2_8 1_555 1_555
H17_8 C23_8 1_555 1_555
N5_8 C6_8 1_555 1_555
C3_8 C20_8 1_555 1_555
C5_8 C8_8 1_555 1_555
C21_8 C23_8 1_555 1_555
H18_7 C24_7 1_555 1_555
H18_8 C24_8 1_555 1_555

#END
