
###############################################################################
#
# This file contains modified crystal structure data generated from the
# MOF subset of the Cambridge Structural Database (CSD) v543 
# hosted by the Cambridge Crystallographic Data Centre (CCDC).
#
# This work is licensed under the Creative Commons
# Attribution-NonCommercial-ShareAlike 4.0 International License.
# To view a copy of this license, visit
# http://creativecommons.org/licenses/by-nc-sa/4.0/
# or send a letter to
# Creative Commons, PO Box 1866, Mountain View, CA 94042, USA.
#
# CIF created using the CSD Python API on 29 September 2022
# The structure has been converted into the P1 space group
# The structure has a 3D framework
# The original CSD entry PODXEN is in the triclinic crystal system
# The framework has been calculated to contain at least 10.0% void space
# The void calculation uses a probe of radius 1.32A, grid spacing 0.4
#
###############################################################################

data_PODXEN
_chemical_formula_moiety         '(C98 H70 N12 O14 Zn4)n'
_symmetry_cell_setting           triclinic
_symmetry_space_group_name_H-M   'P 1'
_symmetry_Int_Tables_number      1
_space_group_name_Hall           'P 1'
loop_
_symmetry_equiv_pos_site_id
_symmetry_equiv_pos_as_xyz
1 x,y,z
_cell_length_a                   8.4804(3)
_cell_length_b                   14.1017(6)
_cell_length_c                   20.7617(9)
_cell_angle_alpha                83.472(4)
_cell_angle_beta                 81.241(4)
_cell_angle_gamma                82.823(3)
_cell_volume                     2423.3
loop_
_atom_site_label
_atom_site_type_symbol
_atom_site_fract_x
_atom_site_fract_y
_atom_site_fract_z
O9 O 0.1276(4) 0.7905(3) 0.96869(19)
Zn7 Zn 0.19760(6) 0.61472(4) 0.91547(2)
N3 N 0.7143(4) 0.4304(3) 0.00018(19)
Zn5 Zn 0.80240(6) 0.38528(4) 0.08453(2)
Zn2 Zn 0.95977(7) 0.36078(4) 0.27634(3)
N1 N 0.6391(4) 0.4172(3) 0.90455(18)
N5 N 0.5166(5) 0.1985(3) 0.71210(18)
O5 O 0.9937(6) 0.2406(3) 0.2368(2)
C2 C 0.5393(5) 0.2602(3) 0.7589(2)
C3 C 0.5037(6) 0.0993(4) 0.7314(2)
C7 C 0.6520(6) 0.3765(3) 0.9654(2)
H6 H 0.6201 0.3164 0.9812
C10 C 0.6498(6) 0.3256(4) 0.7445(2)
H7 H 0.7058 0.3329 0.7024
N6 N 0.6390(5) 0.3345(3) 0.44586(19)
N7 N 0.7748(6) 0.3645(3) 0.3484(2)
C15 C 0.6794(6) 0.3810(4) 0.7917(2)
H10 H 0.7552 0.4246 0.7818
C16 C 0.5942(5) 0.3700(3) 0.8535(2)
C19 C 0.4993(7) 0.3517(4) 0.5563(3)
H12 H 0.4499 0.4112 0.5416
C20 C 0.9984(7) 0.0589(4) 0.1973(3)
H13 H 0.9918 0.1113 0.1659
C21 C 0.4769(5) 0.3090(4) 0.8677(2)
H14 H 0.4167 0.3047 0.9091
C22 C 0.5438(6) 0.2303(4) 0.6442(2)
C25 C 0.5781(6) 0.0518(4) 0.7827(2)
H15 H 0.6389 0.0848 0.8044
C28 C 0.6014(6) 0.2985(4) 0.5132(2)
C29 C 0.6449(6) 0.1765(4) 0.6004(2)
H17 H 0.6946 0.1171 0.6151
C30 C 0.4480(6) 0.2540(4) 0.8208(2)
H18 H 0.3680 0.2130 0.8303
C33 C 0.7461(6) 0.5120(3) 0.9585(2)
H21 H 0.7905 0.5641 0.9693
C35 C 0.7026(6) 0.5039(4) 0.9001(3)
H22 H 0.7132 0.5483 0.8634
C39 C 0.4147(7) 0.0492(4) 0.6988(3)
H26 H 0.3643 0.0805 0.6643
C40 C 0.4691(7) 0.3178(4) 0.6210(2)
H27 H 0.3977 0.3540 0.6497
C41 C 0.5398(7) 0.3989(5) 0.4111(3)
H28 H 0.4360 0.4252 0.4254
C43 C 0.6735(7) 0.2093(4) 0.5349(3)
H30 H 0.7405 0.1718 0.5057
C44 C 0.6275(7) 0.4154(5) 0.3512(3)
H31 H 0.5913 0.4560 0.3167
C45 C 0.7754(7) 0.3169(4) 0.4067(2)
H32 H 0.8622 0.2753 0.4190
O16 O 0.8600(5) 0.4470(3) 0.20733(17)
O1 O 0.8452(4) 0.5111(2) 0.10704(15)
C1 C 0.8722(5) 0.5161(3) 0.1641(2)
N2 N 0.3514(4) 0.6861(3) 0.85015(19)
O4 O 0.8724(4) 0.2095(3) 0.03131(19)
N4 N 0.4512(5) 0.8084(3) 0.7905(2)
C4 C 1.0000(6) 0.7656(3) 0.1467(2)
C5 C 0.9151(6) 0.7211(3) 0.2597(2)
H4 H 0.8961 0.7353 0.3030
C6 C 0.8876(5) 0.6330(3) 0.2452(2)
H5 H 0.8533 0.5876 0.2789
C9 C 0.9715(6) 0.7909(3) 0.2106(2)
C11 C 0.9689(5) 0.6776(3) 0.1316(2)
H8 H 0.9874 0.6634 0.0882
C12 C 0.9104(5) 0.6101(3) 0.1803(2)
C13 C 0.4736(6) 0.9071(4) 0.7685(2)
C14 C 0.3517(6) 0.7791(4) 0.8435(2)
H9 H 0.2904 0.8201 0.8721
C18 C 0.9965(6) 0.8867(3) 0.2267(2)
C26 C 0.9840(7) 0.9673(4) 0.1810(3)
H16 H 0.9657 0.9597 0.1390
C36 C 0.5630(6) 0.9556(4) 0.8021(3)
H23 H 0.6119 0.9241 0.8369
C38 C 0.4008(7) 0.9530(4) 0.7174(3)
H25 H 0.3419 0.9195 0.6952
C42 C 0.4596(6) 0.6531(4) 0.7992(3)
H29 H 0.4864 0.5889 0.7917
C46 C 0.5198(7) 0.7267(4) 0.7622(3)
H33 H 0.5942 0.7237 0.7244
O10 O 0.1548(4) 0.4889(2) 0.89296(15)
C56 C 0.1278(5) 0.4839(3) 0.8359(2)
N9 N 0.6486(4) 0.3139(3) 0.14985(19)
O11 O 0.1400(5) 0.5530(3) 0.79267(17)
N11 N 0.5488(5) 0.1916(3) 0.2095(2)
C59 C -0.0000(6) 0.2344(3) 0.8533(2)
C60 C 0.0849(6) 0.2789(3) 0.7403(2)
H43 H 0.1039 0.2647 0.6970
C61 C 0.1124(5) 0.3670(3) 0.7548(2)
H44 H 0.1467 0.4124 0.7211
C63 C 0.0285(6) 0.2091(3) 0.7894(2)
C65 C 0.0311(5) 0.3224(3) 0.8684(2)
H47 H 0.0126 0.3366 0.9118
C66 C 0.0896(5) 0.3899(3) 0.8197(2)
C67 C 0.5264(6) 0.0929(4) 0.2315(2)
C68 C 0.6483(6) 0.2209(4) 0.1565(2)
H48 H 0.7096 0.1799 0.1279
C72 C 0.0035(6) 0.1133(3) 0.7733(2)
C79 C 0.0160(7) 0.0327(4) 0.8190(3)
H55 H 0.0343 0.0403 0.8610
C87 C 0.4370(6) 0.0444(4) 0.1979(3)
H61 H 0.3881 0.0759 0.1631
C88 C 0.5992(7) 0.0470(4) 0.2826(3)
H62 H 0.6581 0.0805 0.3048
C92 C 0.5404(6) 0.3469(4) 0.2008(3)
H66 H 0.5136 0.4111 0.2083
C96 C 0.4802(7) 0.2733(4) 0.2378(3)
H70 H 0.4058 0.2763 0.2756
Zn9 Zn 0.04023(7) 0.63922(4) 0.72366(3)
N16 N 0.2857(4) 0.5696(3) 0.99982(19)
N8 N 0.3609(4) 0.5828(3) 0.09545(18)
N12 N 0.4834(5) 0.8015(3) 0.28790(18)
O12 O 0.0063(6) 0.7594(3) 0.7632(2)
C57 C 0.4607(5) 0.7398(3) 0.2411(2)
C58 C 0.4963(6) 0.9007(4) 0.2686(2)
C62 C 0.3480(6) 0.6235(3) 0.0346(2)
H45 H 0.3799 0.6836 0.0188
C64 C 0.3502(6) 0.6744(4) 0.2555(2)
H46 H 0.2942 0.6671 0.2976
N13 N 0.3610(5) 0.6655(3) 0.55414(19)
N14 N 0.2252(6) 0.6355(3) 0.6516(2)
C69 C 0.3206(6) 0.6190(4) 0.2083(2)
H49 H 0.2448 0.5754 0.2182
C70 C 0.4058(5) 0.6300(3) 0.1465(2)
C73 C 0.5007(7) 0.6483(4) 0.4437(3)
H51 H 0.5501 0.5888 0.4584
C74 C 0.0016(7) 0.9411(4) 0.8027(3)
H52 H 0.0082 0.8887 0.8341
C75 C 0.5231(5) 0.6910(4) 0.1323(2)
H53 H 0.5833 0.6953 0.0909
C76 C 0.4562(6) 0.7697(4) 0.3558(2)
C78 C 0.4219(6) 0.9482(4) 0.2173(2)
H54 H 0.3611 0.9152 0.1956
C80 C 0.3986(6) 0.7015(4) 0.4868(2)
C81 C 0.3551(6) 0.8235(4) 0.3996(2)
H56 H 0.3054 0.8829 0.3849
C82 C 0.5520(6) 0.7460(4) 0.1792(2)
H57 H 0.6320 0.7870 0.1697
C84 C 0.2539(6) 0.4880(3) 0.0415(2)
H59 H 0.2095 0.4359 0.0307
C86 C 0.2974(6) 0.4961(4) 0.0999(3)
H60 H 0.2868 0.4517 0.1366
C89 C 0.5853(7) 0.9508(4) 0.3012(3)
H63 H 0.6357 0.9195 0.3357
C90 C 0.5309(7) 0.6822(4) 0.3790(2)
H64 H 0.6023 0.6460 0.3503
C91 C 0.4602(7) 0.6011(5) 0.5889(3)
H65 H 0.5640 0.5748 0.5746
C93 C 0.3265(7) 0.7907(4) 0.4651(3)
H67 H 0.2595 0.8282 0.4943
C94 C 0.3725(7) 0.5846(5) 0.6488(3)
H68 H 0.4087 0.5440 0.6833
C95 C 0.2246(7) 0.6831(4) 0.5933(2)
H69 H 0.1378 0.7247 0.5810
O6 O 0.1592(4) 0.4242(3) 0.30197(19)
H1 H 0.1499 0.4475 0.3411
H2 H 0.2507 0.4274 0.2738
C24 C 0.0246(7) 0.1709(4) 0.2794(3)
O7 O 0.0506(7) 0.1824(3) 0.3341(2)
C34 C 0.0225(6) 0.0721(3) 0.2604(3)
O2 O 0.0141(4) 0.3137(2) 0.06294(17)
C4_2 C 0.0000(6) 0.7656(3) 0.1467(2)
H3 H 0.0412 0.8092 0.1132
C8 C 0.0017(6) 0.2341(4) 0.0411(2)
C17 C 0.0385(6) 0.9922(4) 0.3045(3)
H11 H 0.0582 0.9999 0.3463
C23 C 0.1518(6) 0.1683(3) 0.0268(2)
C27 C 0.4283(6) 0.0358(4) 0.0052(2)
C31 C 0.4355(6) 0.1242(4) 0.0244(3)
H19 H 0.5348 0.1414 0.0297
C32 C 0.0264(6) 0.9016(3) 0.2891(2)
H20 H 0.0382 0.8495 0.3204
C37 C 0.3001(6) 0.1897(4) 0.0362(3)
H24 H 0.3099 0.2485 0.0507
C48 C 0.1439(8) 0.0815(5) 0.0052(4)
H38 H 0.7329 0.0438 0.0185
C47 C 0.2776(8) 0.0153(5) 0.9952(5)
H35 H 0.0457 0.0664 0.9969
C54 C 0.7224(8) 0.9847(5) 0.0048(5)
H39 H 0.9543 0.9336 0.0031
H34 H 0.2671 0.9562 0.9815
O8 O 0.9859(4) 0.6863(2) 0.93706(17)
C49 C 0.9983(6) 0.7659(4) 0.9589(2)
C50 C 0.8482(6) 0.8317(3) 0.9732(2)
C51 C 0.5717(6) 0.9642(4) 0.9948(2)
C52 C 0.5645(6) 0.8758(4) 0.9756(3)
H36 H 0.4652 0.8586 0.9703
C53 C 0.6999(6) 0.8103(4) 0.9638(3)
H37 H 0.6901 0.7515 0.9493
C55 C 0.8561(8) 0.9185(5) 0.9948(4)
C59_2 C 1.0000(6) 0.2344(3) 0.8533(2)
H42 H 0.9588 0.1908 0.8868
C71 C 0.9615(6) 0.0078(4) 0.6955(3)
H50 H 0.9418 0.0001 0.6537
C83 C 0.9736(6) 0.0984(3) 0.7109(2)
H58 H 0.9618 0.1505 0.6796
O13 O 0.8408(4) 0.5758(3) 0.69803(19)
H40 H 0.8501 0.5525 0.6589
H41 H 0.7493 0.5726 0.7262
C77 C 0.9754(7) 0.8291(4) 0.7206(3)
O14 O 0.9494(7) 0.8176(3) 0.6659(2)
C85 C 0.9775(6) 0.9279(3) 0.7396(3)
loop_
_geom_bond_atom_site_label_1
_geom_bond_atom_site_label_2
_geom_bond_site_symmetry_1
_geom_bond_site_symmetry_2
Zn5 N3 1_555 1_555
Zn2 O5 1_555 1_555
N1 C7 1_555 1_555
N5 C2 1_555 1_555
C2 C10 1_555 1_555
C3 N5 1_555 1_555
C7 H6 1_555 1_555
C10 H7 1_555 1_555
N6 C28 1_555 1_555
N7 Zn2 1_555 1_555
C15 C10 1_555 1_555
H10 C15 1_555 1_555
C16 N1 1_555 1_555
C19 H12 1_555 1_555
C20 H13 1_555 1_555
C21 C16 1_555 1_555
H14 C21 1_555 1_555
C22 N5 1_555 1_555
C25 C3 1_555 1_555
H15 C25 1_555 1_555
C28 C19 1_555 1_555
C29 C22 1_555 1_555
H17 C29 1_555 1_555
C30 C2 1_555 1_555
H18 C30 1_555 1_555
H21 C33 1_555 1_555
C35 N1 1_555 1_555
H22 C35 1_555 1_555
C39 C3 1_555 1_555
H26 C39 1_555 1_555
C40 C19 1_555 1_555
H27 C40 1_555 1_555
C41 N6 1_555 1_555
H28 C41 1_555 1_555
C43 C28 1_555 1_555
H30 C43 1_555 1_555
C44 N7 1_555 1_555
H31 C44 1_555 1_555
C45 N6 1_555 1_555
H32 C45 1_555 1_555
O16 Zn2 1_555 1_555
N7 C45 1_555 1_555
C15 C16 1_555 1_555
C21 C30 1_555 1_555
C22 C40 1_555 1_555
C29 C43 1_555 1_555
C33 C35 1_555 1_555
C41 C44 1_555 1_555
Zn5 O1 1_555 1_555
O1 C1 1_555 1_555
C1 O16 1_555 1_555
N2 C14 1_555 1_555
N4 C13 1_555 1_555
C5 H4 1_555 1_555
C6 C5 1_555 1_555
H5 C6 1_555 1_555
C9 C4 1_555 1_555
C11 C4 1_555 1_555
H8 C11 1_555 1_555
C12 C1 1_555 1_555
C13 C36 1_555 1_555
C14 N4 1_555 1_555
H9 C14 1_555 1_555
C18 C9 1_555 1_555
C26 C18 1_555 1_555
H16 C26 1_555 1_555
H23 C36 1_555 1_555
C38 C13 1_555 1_555
H25 C38 1_555 1_555
C42 N2 1_555 1_555
H29 C42 1_555 1_555
C46 N4 1_555 1_555
H33 C46 1_555 1_555
Zn7 N2 1_555 1_555
O10 Zn7 1_555 1_555
C56 O10 1_555 1_555
N9 Zn5 1_555 1_555
O11 C56 1_555 1_555
N11 C67 1_555 1_555
C60 H43 1_555 1_555
C61 C60 1_555 1_555
H44 C61 1_555 1_555
C63 C59 1_555 1_555
C65 C59 1_555 1_555
H47 C65 1_555 1_555
C66 C56 1_555 1_555
C67 C87 1_555 1_555
C68 N9 1_555 1_555
H48 C68 1_555 1_555
C72 C63 1_555 1_555
C79 C72 1_555 1_555
H55 C79 1_555 1_555
H61 C87 1_555 1_555
C88 C67 1_555 1_555
H62 C88 1_555 1_555
C92 N9 1_555 1_555
H66 C92 1_555 1_555
C96 N11 1_555 1_555
H70 C96 1_555 1_555
Zn9 O11 1_555 1_555
N16 Zn7 1_555 1_555
C5 C9 1_555 1_555
C6 C12 1_555 1_555
C11 C12 1_555 1_555
C42 C46 1_555 1_555
N11 C68 1_555 1_555
C60 C63 1_555 1_555
C61 C66 1_555 1_555
C65 C66 1_555 1_555
C92 C96 1_555 1_555
Zn9 O12 1_555 1_555
N8 C62 1_555 1_555
N12 C57 1_555 1_555
C57 C64 1_555 1_555
C58 N12 1_555 1_555
C62 H45 1_555 1_555
C64 H46 1_555 1_555
N13 C80 1_555 1_555
N14 Zn9 1_555 1_555
C69 C64 1_555 1_555
H49 C69 1_555 1_555
C70 N8 1_555 1_555
C73 H51 1_555 1_555
C74 H52 1_555 1_555
C75 C70 1_555 1_555
H53 C75 1_555 1_555
C76 N12 1_555 1_555
C78 C58 1_555 1_555
H54 C78 1_555 1_555
C80 C73 1_555 1_555
C81 C76 1_555 1_555
H56 C81 1_555 1_555
C82 C57 1_555 1_555
H57 C82 1_555 1_555
H59 C84 1_555 1_555
C86 N8 1_555 1_555
H60 C86 1_555 1_555
C89 C58 1_555 1_555
H63 C89 1_555 1_555
C90 C73 1_555 1_555
H64 C90 1_555 1_555
C91 N13 1_555 1_555
H65 C91 1_555 1_555
C93 C80 1_555 1_555
H67 C93 1_555 1_555
C94 N14 1_555 1_555
H68 C94 1_555 1_555
C95 N13 1_555 1_555
H69 C95 1_555 1_555
N14 C95 1_555 1_555
C69 C70 1_555 1_555
C75 C82 1_555 1_555
C76 C90 1_555 1_555
C81 C93 1_555 1_555
C84 C86 1_555 1_555
C91 C94 1_555 1_555
H1 O6 1_555 1_555
H2 O6 1_555 1_555
C24 O7 1_555 1_555
C24 C34 1_555 1_555
C4_2 H3 1_555 1_555
C8 O2 1_555 1_555
C17 H11 1_555 1_555
C23 C8 1_555 1_555
C27 C31 1_555 1_555
C31 H19 1_555 1_555
C32 C17 1_555 1_555
H20 C32 1_555 1_555
C37 C23 1_555 1_555
H24 C37 1_555 1_555
C48 C23 1_555 1_555
C31 C37 1_555 1_555
O8 C49 1_555 1_555
C49 C50 1_555 1_555
C50 C53 1_555 1_555
C52 C51 1_555 1_555
H36 C52 1_555 1_555
C53 C52 1_555 1_555
H37 C53 1_555 1_555
C55 C50 1_555 1_555
C59_2 H42 1_555 1_555
C71 H50 1_555 1_555
C83 C71 1_555 1_555
H58 C83 1_555 1_555
H40 O13 1_555 1_555
H41 O13 1_555 1_555
C77 O14 1_555 1_555
C77 C85 1_555 1_555

#END
