
###############################################################################
#
# This file contains modified crystal structure data generated from the
# MOF subset of the Cambridge Structural Database (CSD) v543 
# hosted by the Cambridge Crystallographic Data Centre (CCDC).
#
# This work is licensed under the Creative Commons
# Attribution-NonCommercial-ShareAlike 4.0 International License.
# To view a copy of this license, visit
# http://creativecommons.org/licenses/by-nc-sa/4.0/
# or send a letter to
# Creative Commons, PO Box 1866, Mountain View, CA 94042, USA.
#
# CIF created using the CSD Python API on 29 September 2022
# The structure has been converted into the P1 space group
# The structure has a 3D framework
# The original CSD entry POFGUO is in the cubic crystal system
# The framework has been calculated to contain at least 10.0% void space
# The void calculation uses a probe of radius 1.32A, grid spacing 0.4
#
###############################################################################

data_POFGUO
_chemical_formula_moiety         '(C252 H84 Li22 O144)n'
_symmetry_cell_setting           triclinic
_symmetry_space_group_name_H-M   'P 1'
_symmetry_Int_Tables_number      1
_space_group_name_Hall           'P 1'
loop_
_symmetry_equiv_pos_site_id
_symmetry_equiv_pos_as_xyz
1 x,y,z
_cell_length_a                   21.1288(4)
_cell_length_b                   21.1288(4)
_cell_length_c                   21.1288(4)
_cell_angle_alpha                90
_cell_angle_beta                 90
_cell_angle_gamma                90
_cell_volume                     9432.45
loop_
_atom_site_label
_atom_site_type_symbol
_atom_site_fract_x
_atom_site_fract_y
_atom_site_fract_z
O2 O 0.0918(2) 0.60847(16) 0.36050(17)
O3 O 0.0779(2) 0.65757(18) 0.26842(16)
C1 C 0.0000 0.7500 0.4606(3)
C2 C 0.0706(3) 0.6518(2) 0.3271(2)
C3 C 0.0000 0.7500 0.3299(3)
C4 C 0.0330(2) 0.7044(2) 0.4276(2)
C5 C 0.0000 0.7500 0.5318(3)
C6 C 0.0337(2) 0.7038(2) 0.3613(2)
Li1 Li 0.0282(4) 0.8420(4) 0.6277(4)
H1 H 0.0000 0.7500 0.275(5)
H2 H 0.059(2) 0.666(2) 0.454(3)
O4 O 0.02245(16) 0.70235(15) 0.55950(14)
O8 O 0.04765(15) 0.77245(16) 0.69050(14)
O10 O 0.10847(16) 0.86050(17) 0.5918(2)
Li4 Li 0.1223(4) 0.5920(4) 0.2218(4)
Li6 Li 0.1277(4) 0.5282(4) 0.3420(4)
Li7 Li 0.0920(4) 0.7218(4) 0.6223(4)
O7 O 0.94050(14) 0.02245(16) 0.29765(15)
O11 O 0.8279(2) 0.01842(16) 0.40757(18)
O1 O 0.97755(16) 0.79765(15) 0.55950(14)
C1_2 C 1.0000 0.7500 0.4606(3)
C3_2 C 1.0000 0.7500 0.3299(3)
C5_2 C 1.0000 0.7500 0.5318(3)
H1_2 H 1.0000 0.7500 0.275(5)
O5 O 0.9082(2) 0.89153(16) 0.36050(17)
O6 O 0.9221(2) 0.84243(18) 0.26842(16)
C7 C 0.9294(3) 0.8482(2) 0.3271(2)
C8 C 0.9670(2) 0.7956(2) 0.4276(2)
C9 C 0.9663(2) 0.7962(2) 0.3613(2)
H3 H 0.941(2) 0.834(2) 0.454(3)
Li2 Li 0.8723(4) 0.9718(4) 0.3420(4)
O9 O 0.80950(14) 0.95235(15) 0.27245(16)
O12 O 0.98158(16) 0.90757(18) 0.6721(2)
Li3 Li 0.9080(4) 0.7782(4) 0.6223(4)
Li5 Li 0.9718(4) 0.6580(4) 0.6277(4)
Li8 Li 0.8777(4) 0.9080(4) 0.2218(4)
O1_2 O 0.52245(16) 0.20235(15) 0.05950(14)
C5_3 C 0.5000 0.2500 0.0318(3)
Li1_2 Li 0.4718(4) 0.1580(4) 0.1277(4)
O4_2 O 0.47755(16) 0.29765(15) 0.05950(14)
O8_2 O 0.45235(15) 0.22755(16) 0.19050(14)
O10_2 O 0.39153(16) 0.13950(17) 0.0918(2)
O12_2 O 0.51842(16) 0.09243(18) 0.1721(2)
Li3_2 Li 0.5920(4) 0.2218(4) 0.1223(4)
Li5_2 Li 0.5282(4) 0.3420(4) 0.1277(4)
Li7_2 Li 0.4080(4) 0.2782(4) 0.1223(4)
O2_2 O 0.4082(2) 0.39153(16) 0.86050(17)
O3_2 O 0.4221(2) 0.34243(18) 0.76842(16)
C1_3 C 0.5000 0.2500 0.9606(3)
C2_2 C 0.4294(3) 0.3482(2) 0.8271(2)
C3_3 C 0.5000 0.2500 0.8299(3)
C4_2 C 0.4670(2) 0.2956(2) 0.9276(2)
C6_2 C 0.4663(2) 0.2962(2) 0.8613(2)
H1_3 H 0.5000 0.2500 0.775(5)
H2_2 H 0.441(2) 0.334(2) 0.954(3)
O5_2 O 0.5918(2) 0.10847(16) 0.86050(17)
O6_2 O 0.5779(2) 0.15757(18) 0.76842(16)
C7_2 C 0.5706(3) 0.1518(2) 0.8271(2)
C8_2 C 0.5330(2) 0.2044(2) 0.9276(2)
C9_2 C 0.5337(2) 0.2038(2) 0.8613(2)
H3_2 H 0.559(2) 0.166(2) 0.954(3)
Li2_2 Li 0.6277(4) 0.0282(4) 0.8420(4)
O9_2 O 0.69050(14) 0.04765(15) 0.77245(16)
Li4_2 Li 0.3777(4) 0.4080(4) 0.7218(4)
Li6_2 Li 0.3723(4) 0.4718(4) 0.8420(4)
Li8_2 Li 0.6223(4) 0.0920(4) 0.7218(4)
O7_2 O 0.55950(14) 0.97755(16) 0.79765(15)
O11_2 O 0.6721(2) 0.98158(16) 0.90757(18)
C1_4 C -0.0000 0.2500 0.0394(3)
C3_4 C -0.0000 0.2500 0.1701(3)
H1_4 H -0.0000 0.2500 0.225(5)
O5_3 O 0.0918(2) 0.39153(16) 0.13950(17)
O6_3 O 0.0779(2) 0.34243(18) 0.23158(16)
C7_3 C 0.0706(3) 0.3482(2) 0.1729(2)
C8_3 C 0.0330(2) 0.2956(2) 0.0724(2)
C9_3 C 0.0337(2) 0.2962(2) 0.1387(2)
H3_3 H 0.059(2) 0.334(2) 0.046(3)
Li2_3 Li 0.1277(4) 0.4718(4) 0.1580(4)
O7_3 O 0.05950(14) 0.52245(16) 0.20235(15)
O9_3 O 0.19050(14) 0.45235(15) 0.22755(16)
O11_3 O 0.1721(2) 0.51842(16) 0.09243(18)
Li8_3 Li 0.1223(4) 0.4080(4) 0.2782(4)
O1_3 O 0.02245(16) 0.29765(15) 0.94050(14)
C5_4 C -0.0000 0.2500 0.9682(3)
O12_3 O 0.01842(16) 0.40757(18) 0.8279(2)
Li3_3 Li 0.0920(4) 0.2782(4) 0.8777(4)
Li5_3 Li 0.0282(4) 0.1580(4) 0.8723(4)
O2_3 O 0.9082(2) 0.10847(16) 0.13950(17)
O3_3 O 0.9221(2) 0.15757(18) 0.23158(16)
C1_5 C 1.0000 0.2500 0.0394(3)
C2_3 C 0.9294(3) 0.1518(2) 0.1729(2)
C3_5 C 1.0000 0.2500 0.1701(3)
C4_3 C 0.9670(2) 0.2044(2) 0.0724(2)
C6_3 C 0.9663(2) 0.2038(2) 0.1387(2)
H1_5 H 1.0000 0.2500 0.225(5)
H2_3 H 0.941(2) 0.166(2) 0.046(3)
Li4_3 Li 0.8777(4) 0.0920(4) 0.2782(4)
Li6_3 Li 0.8723(4) 0.0282(4) 0.1580(4)
C5_5 C 1.0000 0.2500 0.9682(3)
Li1_3 Li 0.9718(4) 0.3420(4) 0.8723(4)
O4_3 O 0.97755(16) 0.20235(15) 0.94050(14)
O8_3 O 0.95235(15) 0.27245(16) 0.80950(14)
O10_3 O 0.89153(16) 0.36050(17) 0.9082(2)
Li7_3 Li 0.9080(4) 0.2218(4) 0.8777(4)
O1_4 O 0.47755(16) 0.70235(15) 0.44050(14)
O2_4 O 0.5918(2) 0.89153(16) 0.63950(17)
O3_4 O 0.5779(2) 0.84243(18) 0.73158(16)
C1_6 C 0.5000 0.7500 0.5394(3)
C2_4 C 0.5706(3) 0.8482(2) 0.6729(2)
C3_6 C 0.5000 0.7500 0.6701(3)
C4_4 C 0.5330(2) 0.7956(2) 0.5724(2)
C5_6 C 0.5000 0.7500 0.4682(3)
C6_4 C 0.5337(2) 0.7962(2) 0.6387(2)
Li1_4 Li 0.5282(4) 0.6580(4) 0.3723(4)
H1_6 H 0.5000 0.7500 0.725(5)
H2_4 H 0.559(2) 0.834(2) 0.546(3)
O4_4 O 0.52245(16) 0.79765(15) 0.44050(14)
O5_4 O 0.4082(2) 0.60847(16) 0.63950(17)
O6_4 O 0.4221(2) 0.65757(18) 0.73158(16)
C7_4 C 0.4294(3) 0.6518(2) 0.6729(2)
C8_4 C 0.4670(2) 0.7044(2) 0.5724(2)
C9_4 C 0.4663(2) 0.7038(2) 0.6387(2)
H3_4 H 0.441(2) 0.666(2) 0.546(3)
Li2_4 Li 0.3723(4) 0.5282(4) 0.6580(4)
O7_4 O 0.44050(14) 0.47755(16) 0.70235(15)
O8_4 O 0.54765(15) 0.72755(16) 0.30950(14)
O9_4 O 0.30950(14) 0.54765(15) 0.72755(16)
O10_4 O 0.60847(16) 0.63950(17) 0.4082(2)
O11_4 O 0.3279(2) 0.48158(16) 0.59243(18)
O12_4 O 0.48158(16) 0.59243(18) 0.3279(2)
Li3_4 Li 0.4080(4) 0.7218(4) 0.3777(4)
Li4_4 Li 0.6223(4) 0.9080(4) 0.7782(4)
Li5_4 Li 0.4718(4) 0.8420(4) 0.3723(4)
Li6_4 Li 0.6277(4) 0.9718(4) 0.6580(4)
Li7_4 Li 0.5920(4) 0.7782(4) 0.3777(4)
Li8_4 Li 0.3777(4) 0.5920(4) 0.7782(4)
O2_5 O 0.36050(17) 0.0918(2) 0.60847(16)
O3_5 O 0.26842(16) 0.0779(2) 0.65757(18)
C1_7 C 0.4606(3) 0.0000 0.7500
C2_5 C 0.3271(2) 0.0706(3) 0.6518(2)
C3_7 C 0.3299(3) 0.0000 0.7500
C4_5 C 0.4276(2) 0.0330(2) 0.7044(2)
C5_7 C 0.5318(3) 0.0000 0.7500
C6_5 C 0.3613(2) 0.0337(2) 0.7038(2)
H1_7 H 0.275(5) 0.0000 0.7500
H2_5 H 0.454(3) 0.059(2) 0.666(2)
O4_5 O 0.55950(14) 0.02245(16) 0.70235(15)
Li4_5 Li 0.2218(4) 0.1223(4) 0.5920(4)
Li6_5 Li 0.3420(4) 0.1277(4) 0.5282(4)
O7_5 O 0.29765(15) 0.94050(14) 0.02245(16)
O11_5 O 0.40757(18) 0.8279(2) 0.01842(16)
C1_8 C 0.4606(3) 1.0000 0.7500
C3_8 C 0.3299(3) 1.0000 0.7500
C5_8 C 0.5318(3) 1.0000 0.7500
H1_8 H 0.275(5) 1.0000 0.7500
O5_5 O 0.36050(17) 0.9082(2) 0.89153(16)
O6_5 O 0.26842(16) 0.9221(2) 0.84243(18)
C7_5 C 0.3271(2) 0.9294(3) 0.8482(2)
C8_5 C 0.4276(2) 0.9670(2) 0.7956(2)
C9_5 C 0.3613(2) 0.9663(2) 0.7962(2)
H3_5 H 0.454(3) 0.941(2) 0.834(2)
Li2_5 Li 0.3420(4) 0.8723(4) 0.9718(4)
O9_5 O 0.27245(16) 0.80950(14) 0.95235(15)
Li8_5 Li 0.2218(4) 0.8777(4) 0.9080(4)
C5_9 C 0.0318(3) 0.5000 0.2500
O4_6 O 0.05950(14) 0.47755(16) 0.29765(15)
O2_6 O 0.86050(17) 0.4082(2) 0.39153(16)
O3_6 O 0.76842(16) 0.4221(2) 0.34243(18)
C1_9 C 0.9606(3) 0.5000 0.2500
C2_6 C 0.8271(2) 0.4294(3) 0.3482(2)
C3_9 C 0.8299(3) 0.5000 0.2500
C4_6 C 0.9276(2) 0.4670(2) 0.2956(2)
C6_6 C 0.8613(2) 0.4663(2) 0.2962(2)
H1_9 H 0.775(5) 0.5000 0.2500
H2_6 H 0.954(3) 0.441(2) 0.334(2)
O5_6 O 0.86050(17) 0.5918(2) 0.10847(16)
O6_6 O 0.76842(16) 0.5779(2) 0.15757(18)
C7_6 C 0.8271(2) 0.5706(3) 0.1518(2)
C8_6 C 0.9276(2) 0.5330(2) 0.2044(2)
C9_6 C 0.8613(2) 0.5337(2) 0.2038(2)
H3_6 H 0.954(3) 0.559(2) 0.166(2)
Li2_6 Li 0.8420(4) 0.6277(4) 0.0282(4)
O9_6 O 0.77245(16) 0.69050(14) 0.04765(15)
Li4_6 Li 0.7218(4) 0.3777(4) 0.4080(4)
Li6_6 Li 0.8420(4) 0.3723(4) 0.4718(4)
Li8_6 Li 0.7218(4) 0.6223(4) 0.0920(4)
O7_6 O 0.79765(15) 0.55950(14) 0.97755(16)
O11_6 O 0.90757(18) 0.6721(2) 0.98158(16)
C1_10 C 0.0394(3) -0.0000 0.2500
C3_10 C 0.1701(3) -0.0000 0.2500
H1_10 H 0.225(5) -0.0000 0.2500
O5_7 O 0.13950(17) 0.0918(2) 0.39153(16)
O6_7 O 0.23158(16) 0.0779(2) 0.34243(18)
C7_7 C 0.1729(2) 0.0706(3) 0.3482(2)
C8_7 C 0.0724(2) 0.0330(2) 0.2956(2)
C9_7 C 0.1387(2) 0.0337(2) 0.2962(2)
H3_7 H 0.046(3) 0.059(2) 0.334(2)
Li2_7 Li 0.1580(4) 0.1277(4) 0.4718(4)
O7_7 O 0.20235(15) 0.05950(14) 0.52245(16)
O9_7 O 0.22755(16) 0.19050(14) 0.45235(15)
O11_7 O 0.09243(18) 0.1721(2) 0.51842(16)
Li8_7 Li 0.2782(4) 0.1223(4) 0.4080(4)
O2_7 O 0.13950(17) 0.9082(2) 0.10847(16)
O3_7 O 0.23158(16) 0.9221(2) 0.15757(18)
C1_11 C 0.0394(3) 1.0000 0.2500
C2_7 C 0.1729(2) 0.9294(3) 0.1518(2)
C3_11 C 0.1701(3) 1.0000 0.2500
C4_7 C 0.0724(2) 0.9670(2) 0.2044(2)
C6_7 C 0.1387(2) 0.9663(2) 0.2038(2)
H1_11 H 0.225(5) 1.0000 0.2500
H2_7 H 0.046(3) 0.941(2) 0.166(2)
Li4_7 Li 0.2782(4) 0.8777(4) 0.0920(4)
Li6_7 Li 0.1580(4) 0.8723(4) 0.0282(4)
C5_10 C 0.9682(3) -0.0000 0.2500
C5_11 C 0.9682(3) 1.0000 0.2500
O4_7 O 0.94050(14) 0.97755(16) 0.20235(15)
O2_8 O 0.63950(17) 0.5918(2) 0.89153(16)
O3_8 O 0.73158(16) 0.5779(2) 0.84243(18)
C1_12 C 0.5394(3) 0.5000 0.7500
C2_8 C 0.6729(2) 0.5706(3) 0.8482(2)
C3_12 C 0.6701(3) 0.5000 0.7500
C4_8 C 0.5724(2) 0.5330(2) 0.7956(2)
C5_12 C 0.4682(3) 0.5000 0.7500
C6_8 C 0.6387(2) 0.5337(2) 0.7962(2)
H1_12 H 0.725(5) 0.5000 0.7500
H2_8 H 0.546(3) 0.559(2) 0.834(2)
O4_8 O 0.44050(14) 0.52245(16) 0.79765(15)
O5_8 O 0.63950(17) 0.4082(2) 0.60847(16)
O6_8 O 0.73158(16) 0.4221(2) 0.65757(18)
C7_8 C 0.6729(2) 0.4294(3) 0.6518(2)
C8_8 C 0.5724(2) 0.4670(2) 0.7044(2)
C9_8 C 0.6387(2) 0.4663(2) 0.7038(2)
H3_8 H 0.546(3) 0.441(2) 0.666(2)
Li2_8 Li 0.6580(4) 0.3723(4) 0.5282(4)
O7_8 O 0.70235(15) 0.44050(14) 0.47755(16)
O9_8 O 0.72755(16) 0.30950(14) 0.54765(15)
O11_8 O 0.59243(18) 0.3279(2) 0.48158(16)
Li4_8 Li 0.7782(4) 0.6223(4) 0.9080(4)
Li6_8 Li 0.6580(4) 0.6277(4) 0.9718(4)
Li8_8 Li 0.7782(4) 0.3777(4) 0.5920(4)
O2_9 O 0.60847(16) 0.36050(17) 0.0918(2)
O3_9 O 0.65757(18) 0.26842(16) 0.0779(2)
C1_13 C 0.7500 0.4606(3) 0.0000
C2_9 C 0.6518(2) 0.3271(2) 0.0706(3)
C3_13 C 0.7500 0.3299(3) 0.0000
C4_9 C 0.7044(2) 0.4276(2) 0.0330(2)
C5_13 C 0.7500 0.5318(3) 0.0000
C6_9 C 0.7038(2) 0.3613(2) 0.0337(2)
H1_13 H 0.7500 0.275(5) 0.0000
H2_9 H 0.666(2) 0.454(3) 0.059(2)
O4_9 O 0.70235(15) 0.55950(14) 0.02245(16)
C1_14 C 0.7500 0.4606(3) 1.0000
C3_14 C 0.7500 0.3299(3) 1.0000
C5_14 C 0.7500 0.5318(3) 1.0000
H1_14 H 0.7500 0.275(5) 1.0000
O6_9 O 0.84243(18) 0.26842(16) 0.9221(2)
C7_9 C 0.8482(2) 0.3271(2) 0.9294(3)
C8_9 C 0.7956(2) 0.4276(2) 0.9670(2)
C9_9 C 0.7962(2) 0.3613(2) 0.9663(2)
H3_9 H 0.834(2) 0.454(3) 0.941(2)
C5_15 C 0.2500 0.0318(3) 0.5000
O4_10 O 0.29765(15) 0.05950(14) 0.47755(16)
O2_10 O 0.39153(16) 0.86050(17) 0.4082(2)
O3_10 O 0.34243(18) 0.76842(16) 0.4221(2)
C1_15 C 0.2500 0.9606(3) 0.5000
C2_10 C 0.3482(2) 0.8271(2) 0.4294(3)
C3_15 C 0.2500 0.8299(3) 0.5000
C4_10 C 0.2956(2) 0.9276(2) 0.4670(2)
C6_10 C 0.2962(2) 0.8613(2) 0.4663(2)
H1_15 H 0.2500 0.775(5) 0.5000
H2_10 H 0.334(2) 0.954(3) 0.441(2)
O6_10 O 0.15757(18) 0.76842(16) 0.5779(2)
C7_10 C 0.1518(2) 0.8271(2) 0.5706(3)
C8_10 C 0.2044(2) 0.9276(2) 0.5330(2)
C9_10 C 0.2038(2) 0.8613(2) 0.5337(2)
H3_10 H 0.166(2) 0.954(3) 0.559(2)
C1_16 C 0.2500 0.0394(3) -0.0000
C3_16 C 0.2500 0.1701(3) -0.0000
H1_16 H 0.2500 0.225(5) -0.0000
O6_11 O 0.34243(18) 0.23158(16) 0.0779(2)
C7_11 C 0.3482(2) 0.1729(2) 0.0706(3)
C8_11 C 0.2956(2) 0.0724(2) 0.0330(2)
C9_11 C 0.2962(2) 0.1387(2) 0.0337(2)
H3_11 H 0.334(2) 0.046(3) 0.059(2)
O2_11 O 0.10847(16) 0.13950(17) 0.9082(2)
O3_11 O 0.15757(18) 0.23158(16) 0.9221(2)
C1_17 C 0.2500 0.0394(3) 1.0000
C2_11 C 0.1518(2) 0.1729(2) 0.9294(3)
C3_17 C 0.2500 0.1701(3) 1.0000
C4_11 C 0.2044(2) 0.0724(2) 0.9670(2)
C6_11 C 0.2038(2) 0.1387(2) 0.9663(2)
H1_17 H 0.2500 0.225(5) 1.0000
H2_11 H 0.166(2) 0.046(3) 0.941(2)
C5_16 C 0.2500 0.9682(3) -0.0000
C5_17 C 0.2500 0.9682(3) 1.0000
O4_11 O 0.20235(15) 0.94050(14) 0.97755(16)
O2_12 O 0.89153(16) 0.63950(17) 0.5918(2)
O3_12 O 0.84243(18) 0.73158(16) 0.5779(2)
C1_18 C 0.7500 0.5394(3) 0.5000
C2_12 C 0.8482(2) 0.6729(2) 0.5706(3)
C3_18 C 0.7500 0.6701(3) 0.5000
C4_12 C 0.7956(2) 0.5724(2) 0.5330(2)
C5_18 C 0.7500 0.4682(3) 0.5000
C6_12 C 0.7962(2) 0.6387(2) 0.5337(2)
H1_18 H 0.7500 0.725(5) 0.5000
H2_12 H 0.834(2) 0.546(3) 0.559(2)
O4_12 O 0.79765(15) 0.44050(14) 0.52245(16)
O6_12 O 0.65757(18) 0.73158(16) 0.4221(2)
C7_12 C 0.6518(2) 0.6729(2) 0.4294(3)
C8_12 C 0.7044(2) 0.5724(2) 0.4670(2)
C9_12 C 0.7038(2) 0.6387(2) 0.4663(2)
H3_12 H 0.666(2) 0.546(3) 0.441(2)
O1_5 O 0.04765(15) 0.22755(16) 0.80950(14)
C1_19 C 0.0000 0.2500 0.7106(3)
C3_19 C 0.0000 0.2500 0.5799(3)
C5_19 C 0.0000 0.2500 0.7818(3)
H1_19 H 0.0000 0.2500 0.525(5)
O5_9 O 0.14153(16) 0.1582(2) 0.61050(17)
C7_13 C 0.0982(2) 0.1794(3) 0.5771(2)
C8_13 C 0.0456(2) 0.2170(2) 0.6776(2)
C9_13 C 0.0462(2) 0.2163(2) 0.6113(2)
H3_13 H 0.084(2) 0.191(2) 0.704(3)
O7_9 O 0.27245(16) 0.19050(14) 0.54765(15)
O10_5 O 0.11050(17) 0.35847(16) 0.8418(2)
O2_13 O 0.85847(16) 0.3418(2) 0.61050(17)
O3_13 O 0.90757(18) 0.3279(2) 0.51842(16)
C1_20 C 1.0000 0.2500 0.7106(3)
C2_13 C 0.9018(2) 0.3206(3) 0.5771(2)
C3_20 C 1.0000 0.2500 0.5799(3)
C4_13 C 0.9544(2) 0.2830(2) 0.6776(2)
C5_20 C 1.0000 0.2500 0.7818(3)
C6_13 C 0.9538(2) 0.2837(2) 0.6113(2)
H1_20 H 1.0000 0.2500 0.525(5)
H2_13 H 0.916(2) 0.309(2) 0.704(3)
O1_6 O 0.45235(15) 0.77245(16) 0.30950(14)
O2_14 O 0.64153(16) 0.6582(2) 0.11050(17)
O3_14 O 0.59243(18) 0.6721(2) 0.01842(16)
C1_21 C 0.5000 0.7500 0.2106(3)
C2_14 C 0.5982(2) 0.6794(3) 0.0771(2)
C3_21 C 0.5000 0.7500 0.0799(3)
C4_14 C 0.5456(2) 0.7170(2) 0.1776(2)
C5_21 C 0.5000 0.7500 0.2818(3)
C6_14 C 0.5462(2) 0.7163(2) 0.1113(2)
H1_21 H 0.5000 0.7500 0.025(5)
H2_14 H 0.584(2) 0.691(2) 0.204(3)
O5_10 O 0.35847(16) 0.8418(2) 0.11050(17)
C7_14 C 0.4018(2) 0.8206(3) 0.0771(2)
C8_14 C 0.4544(2) 0.7830(2) 0.1776(2)
C9_14 C 0.4538(2) 0.7837(2) 0.1113(2)
H3_14 H 0.416(2) 0.809(2) 0.204(3)
O7_10 O 0.22755(16) 0.80950(14) 0.04765(15)
O10_6 O 0.38950(17) 0.64153(16) 0.3418(2)
O1_7 O 0.54765(15) 0.27245(16) 0.19050(14)
O2_15 O 0.35847(16) 0.1582(2) 0.38950(17)
O3_15 O 0.40757(18) 0.1721(2) 0.48158(16)
C1_22 C 0.5000 0.2500 0.2894(3)
C2_15 C 0.4018(2) 0.1794(3) 0.4229(2)
C3_22 C 0.5000 0.2500 0.4201(3)
C4_15 C 0.4544(2) 0.2170(2) 0.3224(2)
C5_22 C 0.5000 0.2500 0.2182(3)
C6_15 C 0.4538(2) 0.2163(2) 0.3887(2)
H1_22 H 0.5000 0.2500 0.475(5)
H2_15 H 0.416(2) 0.191(2) 0.296(3)
O5_11 O 0.64153(16) 0.3418(2) 0.38950(17)
C7_15 C 0.5982(2) 0.3206(3) 0.4229(2)
C8_15 C 0.5456(2) 0.2830(2) 0.3224(2)
C9_15 C 0.5462(2) 0.2837(2) 0.3887(2)
H3_15 H 0.584(2) 0.309(2) 0.296(3)
O7_11 O 0.77245(16) 0.30950(14) 0.45235(15)
O10_7 O 0.61050(17) 0.14153(16) 0.1582(2)
O2_16 O 0.14153(16) 0.8418(2) 0.88950(17)
O3_16 O 0.09243(18) 0.8279(2) 0.98158(16)
C1_23 C -0.0000 0.7500 0.7894(3)
C2_16 C 0.0982(2) 0.8206(3) 0.9229(2)
C3_23 C -0.0000 0.7500 0.9201(3)
C4_16 C 0.0456(2) 0.7830(2) 0.8224(2)
C5_23 C -0.0000 0.7500 0.7182(3)
C6_16 C 0.0462(2) 0.7837(2) 0.8887(2)
H1_23 H -0.0000 0.7500 0.975(5)
H2_16 H 0.084(2) 0.809(2) 0.796(3)
O1_8 O 0.95235(15) 0.72755(16) 0.69050(14)
C1_24 C 1.0000 0.7500 0.7894(3)
C3_24 C 1.0000 0.7500 0.9201(3)
C5_24 C 1.0000 0.7500 0.7182(3)
H1_24 H 1.0000 0.7500 0.975(5)
O5_12 O 0.85847(16) 0.6582(2) 0.88950(17)
C7_16 C 0.9018(2) 0.6794(3) 0.9229(2)
C8_16 C 0.9544(2) 0.7170(2) 0.8224(2)
C9_16 C 0.9538(2) 0.7163(2) 0.8887(2)
H3_16 H 0.916(2) 0.691(2) 0.796(3)
O7_12 O 0.72755(16) 0.69050(14) 0.95235(15)
O10_8 O 0.88950(17) 0.85847(16) 0.6582(2)
C1_25 C 0.2500 0.7106(3) 0.0000
C3_25 C 0.2500 0.5799(3) 0.0000
C5_25 C 0.2500 0.7818(3) 0.0000
H1_25 H 0.2500 0.525(5) 0.0000
O5_13 O 0.1582(2) 0.61050(17) 0.14153(16)
C7_17 C 0.1794(3) 0.5771(2) 0.0982(2)
C8_17 C 0.2170(2) 0.6776(2) 0.0456(2)
C9_17 C 0.2163(2) 0.6113(2) 0.0462(2)
H3_17 H 0.191(2) 0.704(3) 0.084(2)
O7_13 O 0.19050(14) 0.54765(15) 0.27245(16)
O2_17 O 0.3418(2) 0.61050(17) 0.85847(16)
O3_17 O 0.3279(2) 0.51842(16) 0.90757(18)
C1_26 C 0.2500 0.7106(3) 1.0000
C2_17 C 0.3206(3) 0.5771(2) 0.9018(2)
C3_26 C 0.2500 0.5799(3) 1.0000
C4_17 C 0.2830(2) 0.6776(2) 0.9544(2)
C5_26 C 0.2500 0.7818(3) 1.0000
C6_17 C 0.2837(2) 0.6113(2) 0.9538(2)
H1_26 H 0.2500 0.525(5) 1.0000
H2_17 H 0.309(2) 0.704(3) 0.916(2)
O2_18 O 0.6582(2) 0.11050(17) 0.64153(16)
O3_18 O 0.6721(2) 0.01842(16) 0.59243(18)
C1_27 C 0.7500 0.2106(3) 0.5000
C2_18 C 0.6794(3) 0.0771(2) 0.5982(2)
C3_27 C 0.7500 0.0799(3) 0.5000
C4_18 C 0.7170(2) 0.1776(2) 0.5456(2)
C5_27 C 0.7500 0.2818(3) 0.5000
C6_18 C 0.7163(2) 0.1113(2) 0.5462(2)
H1_27 H 0.7500 0.025(5) 0.5000
H2_18 H 0.691(2) 0.204(3) 0.584(2)
O5_14 O 0.8418(2) 0.11050(17) 0.35847(16)
C7_18 C 0.8206(3) 0.0771(2) 0.4018(2)
C8_18 C 0.7830(2) 0.1776(2) 0.4544(2)
C9_18 C 0.7837(2) 0.1113(2) 0.4538(2)
H3_18 H 0.809(2) 0.204(3) 0.416(2)
O7_14 O 0.80950(14) 0.04765(15) 0.22755(16)
O2_19 O 0.1582(2) 0.38950(17) 0.35847(16)
O3_19 O 0.1721(2) 0.48158(16) 0.40757(18)
C1_28 C 0.2500 0.2894(3) 0.5000
C2_19 C 0.1794(3) 0.4229(2) 0.4018(2)
C3_28 C 0.2500 0.4201(3) 0.5000
C4_19 C 0.2170(2) 0.3224(2) 0.4544(2)
C5_28 C 0.2500 0.2182(3) 0.5000
C6_19 C 0.2163(2) 0.3887(2) 0.4538(2)
H1_28 H 0.2500 0.475(5) 0.5000
H2_19 H 0.191(2) 0.296(3) 0.416(2)
O5_15 O 0.3418(2) 0.38950(17) 0.64153(16)
C7_19 C 0.3206(3) 0.4229(2) 0.5982(2)
C8_19 C 0.2830(2) 0.3224(2) 0.5456(2)
C9_19 C 0.2837(2) 0.3887(2) 0.5462(2)
H3_19 H 0.309(2) 0.296(3) 0.584(2)
O7_15 O 0.30950(14) 0.45235(15) 0.77245(16)
O2_20 O 0.8418(2) 0.88950(17) 0.14153(16)
O3_20 O 0.8279(2) 0.98158(16) 0.09243(18)
C1_29 C 0.7500 0.7894(3) -0.0000
C2_20 C 0.8206(3) 0.9229(2) 0.0982(2)
C3_29 C 0.7500 0.9201(3) -0.0000
C4_20 C 0.7830(2) 0.8224(2) 0.0456(2)
C5_29 C 0.7500 0.7182(3) -0.0000
C6_20 C 0.7837(2) 0.8887(2) 0.0462(2)
H1_29 H 0.7500 0.975(5) -0.0000
H2_20 H 0.809(2) 0.796(3) 0.084(2)
C1_30 C 0.7500 0.7894(3) 1.0000
C3_30 C 0.7500 0.9201(3) 1.0000
C5_30 C 0.7500 0.7182(3) 1.0000
H1_30 H 0.7500 0.975(5) 1.0000
O5_16 O 0.6582(2) 0.88950(17) 0.85847(16)
C7_20 C 0.6794(3) 0.9229(2) 0.9018(2)
C8_20 C 0.7170(2) 0.8224(2) 0.9544(2)
C9_20 C 0.7163(2) 0.8887(2) 0.9538(2)
H3_20 H 0.691(2) 0.796(3) 0.916(2)
O7_16 O 0.69050(14) 0.95235(15) 0.72755(16)
C1_31 C 0.7106(3) 0.0000 0.2500
C3_31 C 0.5799(3) 0.0000 0.2500
C5_31 C 0.7818(3) 0.0000 0.2500
H1_31 H 0.525(5) 0.0000 0.2500
C7_21 C 0.5771(2) 0.0982(2) 0.1794(3)
C8_21 C 0.6776(2) 0.0456(2) 0.2170(2)
C9_21 C 0.6113(2) 0.0462(2) 0.2163(2)
H3_21 H 0.704(3) 0.084(2) 0.191(2)
O2_21 O 0.61050(17) 0.85847(16) 0.3418(2)
O3_21 O 0.51842(16) 0.90757(18) 0.3279(2)
C1_32 C 0.7106(3) 1.0000 0.2500
C2_21 C 0.5771(2) 0.9018(2) 0.3206(3)
C3_32 C 0.5799(3) 1.0000 0.2500
C4_21 C 0.6776(2) 0.9544(2) 0.2830(2)
C5_32 C 0.7818(3) 1.0000 0.2500
C6_21 C 0.6113(2) 0.9538(2) 0.2837(2)
H1_32 H 0.525(5) 1.0000 0.2500
H2_21 H 0.704(3) 0.916(2) 0.309(2)
O2_22 O 0.11050(17) 0.64153(16) 0.6582(2)
O3_22 O 0.01842(16) 0.59243(18) 0.6721(2)
C1_33 C 0.2106(3) 0.5000 0.7500
C2_22 C 0.0771(2) 0.5982(2) 0.6794(3)
C3_33 C 0.0799(3) 0.5000 0.7500
C4_22 C 0.1776(2) 0.5456(2) 0.7170(2)
C5_33 C 0.2818(3) 0.5000 0.7500
C6_22 C 0.1113(2) 0.5462(2) 0.7163(2)
H1_33 H 0.025(5) 0.5000 0.7500
H2_22 H 0.204(3) 0.584(2) 0.691(2)
C7_22 C 0.0771(2) 0.4018(2) 0.8206(3)
C8_22 C 0.1776(2) 0.4544(2) 0.7830(2)
C9_22 C 0.1113(2) 0.4538(2) 0.7837(2)
H3_22 H 0.204(3) 0.416(2) 0.809(2)
O2_23 O 0.38950(17) 0.35847(16) 0.1582(2)
O3_23 O 0.48158(16) 0.40757(18) 0.1721(2)
C1_34 C 0.2894(3) 0.5000 0.2500
C2_23 C 0.4229(2) 0.4018(2) 0.1794(3)
C3_34 C 0.4201(3) 0.5000 0.2500
C4_23 C 0.3224(2) 0.4544(2) 0.2170(2)
C5_34 C 0.2182(3) 0.5000 0.2500
C6_23 C 0.3887(2) 0.4538(2) 0.2163(2)
H1_34 H 0.475(5) 0.5000 0.2500
H2_23 H 0.296(3) 0.416(2) 0.191(2)
C7_23 C 0.4229(2) 0.5982(2) 0.3206(3)
C8_23 C 0.3224(2) 0.5456(2) 0.2830(2)
C9_23 C 0.3887(2) 0.5462(2) 0.2837(2)
H3_23 H 0.296(3) 0.584(2) 0.309(2)
O2_24 O 0.88950(17) 0.14153(16) 0.8418(2)
O3_24 O 0.98158(16) 0.09243(18) 0.8279(2)
C1_35 C 0.7894(3) -0.0000 0.7500
C2_24 C 0.9229(2) 0.0982(2) 0.8206(3)
C3_35 C 0.9201(3) -0.0000 0.7500
C4_24 C 0.8224(2) 0.0456(2) 0.7830(2)
C5_35 C 0.7182(3) -0.0000 0.7500
C6_24 C 0.8887(2) 0.0462(2) 0.7837(2)
H1_35 H 0.975(5) -0.0000 0.7500
H2_24 H 0.796(3) 0.084(2) 0.809(2)
C1_36 C 0.7894(3) 1.0000 0.7500
C3_36 C 0.9201(3) 1.0000 0.7500
C5_36 C 0.7182(3) 1.0000 0.7500
H1_36 H 0.975(5) 1.0000 0.7500
C7_24 C 0.9229(2) 0.9018(2) 0.6794(3)
C8_24 C 0.8224(2) 0.9544(2) 0.7170(2)
C9_24 C 0.8887(2) 0.9538(2) 0.7163(2)
H3_24 H 0.796(3) 0.916(2) 0.691(2)
loop_
_geom_bond_atom_site_label_1
_geom_bond_atom_site_label_2
_geom_bond_site_symmetry_1
_geom_bond_site_symmetry_2
O2 C2 1_555 1_555
O3 C2 1_555 1_555
C1 C4 1_555 1_555
C2 C6 1_555 1_555
C3 C6 1_555 1_555
C4 C6 1_555 1_555
C5 C1 1_555 1_555
H1 C3 1_555 1_555
H2 C4 1_555 1_555
O4 C5 1_555 1_555
O8 Li1 1_555 1_555
O10 Li1 1_555 1_555
Li4 O3 1_555 1_555
Li6 O2 1_555 1_555
Li7 O4 1_555 1_555
O8 Li7 1_555 1_555
O1 C5_2 1_555 1_555
C5_2 C1_2 1_555 1_555
H1_2 C3_2 1_555 1_555
O5 C7 1_555 1_555
O6 C7 1_555 1_555
C7 C9 1_555 1_555
C8 C1_2 1_555 1_555
C9 C3_2 1_555 1_555
H3 C8 1_555 1_555
Li2 O5 1_555 1_555
O9 Li2 1_555 1_555
Li3 O1 1_555 1_555
Li8 O6 1_555 1_555
C8 C9 1_555 1_555
O9 Li8 1_555 1_555
O1_2 C5_3 1_555 1_555
Li1_2 O1_2 1_555 1_555
O4_2 C5_3 1_555 1_555
O8_2 Li1_2 1_555 1_555
O10_2 Li1_2 1_555 1_555
O12_2 Li1_2 1_555 1_555
Li3_2 O1_2 1_555 1_555
Li5_2 O4_2 1_555 1_555
Li7_2 O4_2 1_555 1_555
O8_2 Li7_2 1_555 1_555
O2_2 C2_2 1_555 1_555
O3_2 C2_2 1_555 1_555
C1_3 C4_2 1_555 1_555
C2_2 C6_2 1_555 1_555
C3_3 C6_2 1_555 1_555
C4_2 C6_2 1_555 1_555
H1_3 C3_3 1_555 1_555
H2_2 C4_2 1_555 1_555
O5_2 C7_2 1_555 1_555
O6_2 C7_2 1_555 1_555
C7_2 C9_2 1_555 1_555
C8_2 C1_3 1_555 1_555
C9_2 C3_3 1_555 1_555
H3_2 C8_2 1_555 1_555
Li2_2 O5_2 1_555 1_555
O9_2 Li2_2 1_555 1_555
Li4_2 O3_2 1_555 1_555
Li6_2 O2_2 1_555 1_555
Li8_2 O6_2 1_555 1_555
C8_2 C9_2 1_555 1_555
O9_2 Li8_2 1_555 1_555
H1_4 C3_4 1_555 1_555
O5_3 C7_3 1_555 1_555
O6_3 C7_3 1_555 1_555
C7_3 C9_3 1_555 1_555
C8_3 C1_4 1_555 1_555
C9_3 C3_4 1_555 1_555
H3_3 C8_3 1_555 1_555
Li2_3 O5_3 1_555 1_555
O7_3 Li2_3 1_555 1_555
O9_3 Li2_3 1_555 1_555
O11_3 Li2_3 1_555 1_555
Li8_3 O6_3 1_555 1_555
C8_3 C9_3 1_555 1_555
O9_3 Li8_3 1_555 1_555
O1_3 C5_4 1_555 1_555
Li3_3 O1_3 1_555 1_555
O2_3 C2_3 1_555 1_555
O3_3 C2_3 1_555 1_555
C1_5 C4_3 1_555 1_555
C2_3 C6_3 1_555 1_555
C3_5 C6_3 1_555 1_555
C4_3 C6_3 1_555 1_555
H1_5 C3_5 1_555 1_555
H2_3 C4_3 1_555 1_555
Li4_3 O3_3 1_555 1_555
Li6_3 O2_3 1_555 1_555
O4_3 C5_5 1_555 1_555
O8_3 Li1_3 1_555 1_555
O10_3 Li1_3 1_555 1_555
Li7_3 O4_3 1_555 1_555
O8_3 Li7_3 1_555 1_555
O1_4 C5_6 1_555 1_555
O2_4 C2_4 1_555 1_555
O3_4 C2_4 1_555 1_555
C1_6 C4_4 1_555 1_555
C2_4 C6_4 1_555 1_555
C3_6 C6_4 1_555 1_555
C4_4 C6_4 1_555 1_555
C5_6 C1_6 1_555 1_555
Li1_4 O1_4 1_555 1_555
H1_6 C3_6 1_555 1_555
H2_4 C4_4 1_555 1_555
O4_4 C5_6 1_555 1_555
O5_4 C7_4 1_555 1_555
O6_4 C7_4 1_555 1_555
C7_4 C9_4 1_555 1_555
C8_4 C1_6 1_555 1_555
C9_4 C3_6 1_555 1_555
H3_4 C8_4 1_555 1_555
Li2_4 O5_4 1_555 1_555
O7_4 Li2_4 1_555 1_555
O8_4 Li1_4 1_555 1_555
O9_4 Li2_4 1_555 1_555
O10_4 Li1_4 1_555 1_555
O11_4 Li2_4 1_555 1_555
O12_4 Li1_4 1_555 1_555
Li3_4 O1_4 1_555 1_555
Li4_4 O3_4 1_555 1_555
Li5_4 O4_4 1_555 1_555
Li6_4 O2_4 1_555 1_555
Li7_4 O4_4 1_555 1_555
Li8_4 O6_4 1_555 1_555
C8_4 C9_4 1_555 1_555
O8_4 Li7_4 1_555 1_555
O9_4 Li8_4 1_555 1_555
O2_5 C2_5 1_555 1_555
O3_5 C2_5 1_555 1_555
C1_7 C4_5 1_555 1_555
C2_5 C6_5 1_555 1_555
C3_7 C6_5 1_555 1_555
C4_5 C6_5 1_555 1_555
C5_7 C1_7 1_555 1_555
H1_7 C3_7 1_555 1_555
H2_5 C4_5 1_555 1_555
O4_5 C5_7 1_555 1_555
Li4_5 O3_5 1_555 1_555
Li6_5 O2_5 1_555 1_555
Li8_2 O4_5 1_555 1_555
O7_2 C5_8 1_555 1_555
C5_8 C1_8 1_555 1_555
H1_8 C3_8 1_555 1_555
O5_5 C7_5 1_555 1_555
O6_5 C7_5 1_555 1_555
C7_5 C9_5 1_555 1_555
C8_5 C1_8 1_555 1_555
C9_5 C3_8 1_555 1_555
H3_5 C8_5 1_555 1_555
Li2_5 O5_5 1_555 1_555
O9_5 Li2_5 1_555 1_555
Li4_4 O7_2 1_555 1_555
Li8_5 O6_5 1_555 1_555
C8_5 C9_5 1_555 1_555
O9_5 Li8_5 1_555 1_555
O7_3 C5_9 1_555 1_555
O4_6 C5_9 1_555 1_555
Li4 O7_3 1_555 1_555
Li6 O4_6 1_555 1_555
Li8_3 O4_6 1_555 1_555
O2_6 C2_6 1_555 1_555
O3_6 C2_6 1_555 1_555
C1_9 C4_6 1_555 1_555
C2_6 C6_6 1_555 1_555
C3_9 C6_6 1_555 1_555
C4_6 C6_6 1_555 1_555
H1_9 C3_9 1_555 1_555
H2_6 C4_6 1_555 1_555
O5_6 C7_6 1_555 1_555
O6_6 C7_6 1_555 1_555
C7_6 C9_6 1_555 1_555
C8_6 C1_9 1_555 1_555
C9_6 C3_9 1_555 1_555
H3_6 C8_6 1_555 1_555
Li2_6 O5_6 1_555 1_555
O9_6 Li2_6 1_555 1_555
Li4_6 O3_6 1_555 1_555
Li6_6 O2_6 1_555 1_555
Li8_6 O6_6 1_555 1_555
C8_6 C9_6 1_555 1_555
O9_6 Li8_6 1_555 1_555
H1_10 C3_10 1_555 1_555
O5_7 C7_7 1_555 1_555
O6_7 C7_7 1_555 1_555
C7_7 C9_7 1_555 1_555
C8_7 C1_10 1_555 1_555
C9_7 C3_10 1_555 1_555
H3_7 C8_7 1_555 1_555
Li2_7 O5_7 1_555 1_555
O7_7 Li2_7 1_555 1_555
O9_7 Li2_7 1_555 1_555
O11_7 Li2_7 1_555 1_555
Li8_7 O6_7 1_555 1_555
C8_7 C9_7 1_555 1_555
O9_7 Li8_7 1_555 1_555
O2_7 C2_7 1_555 1_555
O3_7 C2_7 1_555 1_555
C1_11 C4_7 1_555 1_555
C2_7 C6_7 1_555 1_555
C3_11 C6_7 1_555 1_555
C4_7 C6_7 1_555 1_555
H1_11 C3_11 1_555 1_555
H2_7 C4_7 1_555 1_555
Li4_7 O3_7 1_555 1_555
Li6_7 O2_7 1_555 1_555
O7 C5_10 1_555 1_555
Li4_3 O7 1_555 1_555
O4_7 C5_11 1_555 1_555
Li8 O4_7 1_555 1_555
O7_4 C5_12 1_555 1_555
O2_8 C2_8 1_555 1_555
O3_8 C2_8 1_555 1_555
C1_12 C4_8 1_555 1_555
C2_8 C6_8 1_555 1_555
C3_12 C6_8 1_555 1_555
C4_8 C6_8 1_555 1_555
C5_12 C1_12 1_555 1_555
H1_12 C3_12 1_555 1_555
H2_8 C4_8 1_555 1_555
O4_8 C5_12 1_555 1_555
O5_8 C7_8 1_555 1_555
O6_8 C7_8 1_555 1_555
C7_8 C9_8 1_555 1_555
C8_8 C1_12 1_555 1_555
C9_8 C3_12 1_555 1_555
H3_8 C8_8 1_555 1_555
Li2_8 O5_8 1_555 1_555
O7_8 Li2_8 1_555 1_555
O9_8 Li2_8 1_555 1_555
O11_8 Li2_8 1_555 1_555
Li4_2 O7_4 1_555 1_555
Li4_8 O3_8 1_555 1_555
Li6_2 O4_8 1_555 1_555
Li6_8 O2_8 1_555 1_555
Li8_4 O4_8 1_555 1_555
Li8_8 O6_8 1_555 1_555
C8_8 C9_8 1_555 1_555
O9_8 Li8_8 1_555 1_555
O2_9 C2_9 1_555 1_555
O3_9 C2_9 1_555 1_555
C1_13 C4_9 1_555 1_555
C2_9 C6_9 1_555 1_555
C3_13 C6_9 1_555 1_555
C4_9 C6_9 1_555 1_555
C5_13 C1_13 1_555 1_555
H1_13 C3_13 1_555 1_555
H2_9 C4_9 1_555 1_555
O4_9 C5_13 1_555 1_555
Li3_2 O3_9 1_555 1_555
Li5_2 O2_9 1_555 1_555
Li8_6 O4_9 1_555 1_555
O7_6 C5_14 1_555 1_555
C5_14 C1_14 1_555 1_555
H1_14 C3_14 1_555 1_555
O10_3 C7_9 1_555 1_555
O6_9 C7_9 1_555 1_555
C7_9 C9_9 1_555 1_555
C8_9 C1_14 1_555 1_555
C9_9 C3_14 1_555 1_555
H3_9 C8_9 1_555 1_555
Li4_8 O7_6 1_555 1_555
Li7_3 O6_9 1_555 1_555
C8_9 C9_9 1_555 1_555
O7_7 C5_15 1_555 1_555
O4_10 C5_15 1_555 1_555
Li4_5 O7_7 1_555 1_555
Li6_5 O4_10 1_555 1_555
Li8_7 O4_10 1_555 1_555
O2_10 C2_10 1_555 1_555
O3_10 C2_10 1_555 1_555
C1_15 C4_10 1_555 1_555
C2_10 C6_10 1_555 1_555
C3_15 C6_10 1_555 1_555
C4_10 C6_10 1_555 1_555
H1_15 C3_15 1_555 1_555
H2_10 C4_10 1_555 1_555
O10 C7_10 1_555 1_555
O6_10 C7_10 1_555 1_555
C7_10 C9_10 1_555 1_555
C8_10 C1_15 1_555 1_555
C9_10 C3_15 1_555 1_555
H3_10 C8_10 1_555 1_555
Li3_4 O3_10 1_555 1_555
Li5_4 O2_10 1_555 1_555
Li7 O6_10 1_555 1_555
C8_10 C9_10 1_555 1_555
H1_16 C3_16 1_555 1_555
O10_2 C7_11 1_555 1_555
O6_11 C7_11 1_555 1_555
C7_11 C9_11 1_555 1_555
C8_11 C1_16 1_555 1_555
C9_11 C3_16 1_555 1_555
H3_11 C8_11 1_555 1_555
Li7_2 O6_11 1_555 1_555
C8_11 C9_11 1_555 1_555
O2_11 C2_11 1_555 1_555
O3_11 C2_11 1_555 1_555
C1_17 C4_11 1_555 1_555
C2_11 C6_11 1_555 1_555
C3_17 C6_11 1_555 1_555
C4_11 C6_11 1_555 1_555
H1_17 C3_17 1_555 1_555
H2_11 C4_11 1_555 1_555
Li3_3 O3_11 1_555 1_555
Li5_3 O2_11 1_555 1_555
O7_5 C5_16 1_555 1_555
Li4_7 O7_5 1_555 1_555
O4_11 C5_17 1_555 1_555
Li8_5 O4_11 1_555 1_555
O7_8 C5_18 1_555 1_555
O2_12 C2_12 1_555 1_555
O3_12 C2_12 1_555 1_555
C1_18 C4_12 1_555 1_555
C2_12 C6_12 1_555 1_555
C3_18 C6_12 1_555 1_555
C4_12 C6_12 1_555 1_555
C5_18 C1_18 1_555 1_555
H1_18 C3_18 1_555 1_555
H2_12 C4_12 1_555 1_555
O4_12 C5_18 1_555 1_555
O10_4 C7_12 1_555 1_555
O6_12 C7_12 1_555 1_555
C7_12 C9_12 1_555 1_555
C8_12 C1_18 1_555 1_555
C9_12 C3_18 1_555 1_555
H3_12 C8_12 1_555 1_555
Li4_6 O7_8 1_555 1_555
Li3 O3_12 1_555 1_555
Li6_6 O4_12 1_555 1_555
Li5 O2_12 1_555 1_555
Li8_8 O4_12 1_555 1_555
Li7_4 O6_12 1_555 1_555
C8_12 C9_12 1_555 1_555
O1_5 C5_19 1_555 1_555
C5_19 C1_19 1_555 1_555
Li3_3 O1_5 1_555 1_555
H1_19 C3_19 1_555 1_555
O5_9 C7_13 1_555 1_555
O11_7 C7_13 1_555 1_555
C7_13 C9_13 1_555 1_555
C8_13 C1_19 1_555 1_555
C9_13 C3_19 1_555 1_555
H3_13 C8_13 1_555 1_555
Li4_5 O5_9 1_555 1_555
O7_9 Li4_5 1_555 1_555
O10_5 Li3_3 1_555 1_555
Li5_3 O1_5 1_555 1_555
C8_13 C9_13 1_555 1_555
O2_13 C2_13 1_555 1_555
O3_13 C2_13 1_555 1_555
C1_20 C4_13 1_555 1_555
C2_13 C6_13 1_555 1_555
C3_20 C6_13 1_555 1_555
C4_13 C6_13 1_555 1_555
C5_20 C1_20 1_555 1_555
H1_20 C3_20 1_555 1_555
H2_13 C4_13 1_555 1_555
O8_3 C5_20 1_555 1_555
Li6_6 O3_13 1_555 1_555
Li8_8 O2_13 1_555 1_555
O1_6 C5_21 1_555 1_555
O2_14 C2_14 1_555 1_555
O3_14 C2_14 1_555 1_555
C1_21 C4_14 1_555 1_555
C2_14 C6_14 1_555 1_555
C3_21 C6_14 1_555 1_555
C4_14 C6_14 1_555 1_555
C5_21 C1_21 1_555 1_555
Li3_4 O1_6 1_555 1_555
H1_21 C3_21 1_555 1_555
H2_14 C4_14 1_555 1_555
O8_4 C5_21 1_555 1_555
O5_10 C7_14 1_555 1_555
O11_5 C7_14 1_555 1_555
C7_14 C9_14 1_555 1_555
C8_14 C1_21 1_555 1_555
C9_14 C3_21 1_555 1_555
H3_14 C8_14 1_555 1_555
Li4_7 O5_10 1_555 1_555
O7_10 Li4_7 1_555 1_555
O10_6 Li3_4 1_555 1_555
Li5_4 O1_6 1_555 1_555
Li8_6 O2_14 1_555 1_555
C8_14 C9_14 1_555 1_555
O1_7 C5_22 1_555 1_555
O2_15 C2_15 1_555 1_555
O3_15 C2_15 1_555 1_555
C1_22 C4_15 1_555 1_555
C2_15 C6_15 1_555 1_555
C3_22 C6_15 1_555 1_555
C4_15 C6_15 1_555 1_555
C5_22 C1_22 1_555 1_555
Li3_2 O1_7 1_555 1_555
H1_22 C3_22 1_555 1_555
H2_15 C4_15 1_555 1_555
O8_2 C5_22 1_555 1_555
O5_11 C7_15 1_555 1_555
O11_8 C7_15 1_555 1_555
C7_15 C9_15 1_555 1_555
C8_15 C1_22 1_555 1_555
C9_15 C3_22 1_555 1_555
H3_15 C8_15 1_555 1_555
Li4_6 O5_11 1_555 1_555
O7_11 Li4_6 1_555 1_555
O10_7 Li3_2 1_555 1_555
Li5_2 O1_7 1_555 1_555
Li6_5 O3_15 1_555 1_555
Li8_7 O2_15 1_555 1_555
C8_15 C9_15 1_555 1_555
O2_16 C2_16 1_555 1_555
O3_16 C2_16 1_555 1_555
C1_23 C4_16 1_555 1_555
C2_16 C6_16 1_555 1_555
C3_23 C6_16 1_555 1_555
C4_16 C6_16 1_555 1_555
C5_23 C1_23 1_555 1_555
H1_23 C3_23 1_555 1_555
H2_16 C4_16 1_555 1_555
O8 C5_23 1_555 1_555
Li8_5 O2_16 1_555 1_555
O1_8 C5_24 1_555 1_555
C5_24 C1_24 1_555 1_555
Li3 O1_8 1_555 1_555
H1_24 C3_24 1_555 1_555
O5_12 C7_16 1_555 1_555
O11_6 C7_16 1_555 1_555
C7_16 C9_16 1_555 1_555
C8_16 C1_24 1_555 1_555
C9_16 C3_24 1_555 1_555
H3_16 C8_16 1_555 1_555
Li4_8 O5_12 1_555 1_555
O7_12 Li4_8 1_555 1_555
O10_8 Li3 1_555 1_555
Li5 O1_8 1_555 1_555
C8_16 C9_16 1_555 1_555
O7_10 C5_25 1_555 1_555
C5_25 C1_25 1_555 1_555
H1_25 C3_25 1_555 1_555
O5_13 C7_17 1_555 1_555
O11_3 C7_17 1_555 1_555
C7_17 C9_17 1_555 1_555
C8_17 C1_25 1_555 1_555
C9_17 C3_25 1_555 1_555
H3_17 C8_17 1_555 1_555
Li4 O5_13 1_555 1_555
O7_13 Li4 1_555 1_555
Li6_7 O7_10 1_555 1_555
C8_17 C9_17 1_555 1_555
O2_17 C2_17 1_555 1_555
O3_17 C2_17 1_555 1_555
C1_26 C4_17 1_555 1_555
C2_17 C6_17 1_555 1_555
C3_26 C6_17 1_555 1_555
C4_17 C6_17 1_555 1_555
C5_26 C1_26 1_555 1_555
H1_26 C3_26 1_555 1_555
H2_17 C4_17 1_555 1_555
O9_5 C5_26 1_555 1_555
Li6_2 O3_17 1_555 1_555
Li8_4 O2_17 1_555 1_555
O7_11 C5_27 1_555 1_555
O2_18 C2_18 1_555 1_555
O3_18 C2_18 1_555 1_555
C1_27 C4_18 1_555 1_555
C2_18 C6_18 1_555 1_555
C3_27 C6_18 1_555 1_555
C4_18 C6_18 1_555 1_555
C5_27 C1_27 1_555 1_555
H1_27 C3_27 1_555 1_555
H2_18 C4_18 1_555 1_555
O9_8 C5_27 1_555 1_555
O5_14 C7_18 1_555 1_555
O11 C7_18 1_555 1_555
C7_18 C9_18 1_555 1_555
C8_18 C1_27 1_555 1_555
C9_18 C3_27 1_555 1_555
H3_18 C8_18 1_555 1_555
Li4_3 O5_14 1_555 1_555
O7_14 Li4_3 1_555 1_555
Li6_6 O7_11 1_555 1_555
Li8_2 O2_18 1_555 1_555
C8_18 C9_18 1_555 1_555
O7_9 C5_28 1_555 1_555
O2_19 C2_19 1_555 1_555
O3_19 C2_19 1_555 1_555
C1_28 C4_19 1_555 1_555
C2_19 C6_19 1_555 1_555
C3_28 C6_19 1_555 1_555
C4_19 C6_19 1_555 1_555
C5_28 C1_28 1_555 1_555
H1_28 C3_28 1_555 1_555
H2_19 C4_19 1_555 1_555
O9_7 C5_28 1_555 1_555
O5_15 C7_19 1_555 1_555
O11_4 C7_19 1_555 1_555
C7_19 C9_19 1_555 1_555
C8_19 C1_28 1_555 1_555
C9_19 C3_28 1_555 1_555
H3_19 C8_19 1_555 1_555
Li4_2 O5_15 1_555 1_555
O7_15 Li4_2 1_555 1_555
Li6_5 O7_9 1_555 1_555
Li6 O3_19 1_555 1_555
Li8_3 O2_19 1_555 1_555
C8_19 C9_19 1_555 1_555
O2_20 C2_20 1_555 1_555
O3_20 C2_20 1_555 1_555
C1_29 C4_20 1_555 1_555
C2_20 C6_20 1_555 1_555
C3_29 C6_20 1_555 1_555
C4_20 C6_20 1_555 1_555
C5_29 C1_29 1_555 1_555
H1_29 C3_29 1_555 1_555
H2_20 C4_20 1_555 1_555
O9_6 C5_29 1_555 1_555
Li8 O2_20 1_555 1_555
O7_12 C5_30 1_555 1_555
C5_30 C1_30 1_555 1_555
H1_30 C3_30 1_555 1_555
O5_16 C7_20 1_555 1_555
O11_2 C7_20 1_555 1_555
C7_20 C9_20 1_555 1_555
C8_20 C1_30 1_555 1_555
C9_20 C3_30 1_555 1_555
H3_20 C8_20 1_555 1_555
Li4_4 O5_16 1_555 1_555
O7_16 Li4_4 1_555 1_555
Li6_8 O7_12 1_555 1_555
C8_20 C9_20 1_555 1_555
O7_14 C5_31 1_555 1_555
C5_31 C1_31 1_555 1_555
H1_31 C3_31 1_555 1_555
O10_7 C7_21 1_555 1_555
O12_2 C7_21 1_555 1_555
C7_21 C9_21 1_555 1_555
C8_21 C1_31 1_555 1_555
C9_21 C3_31 1_555 1_555
H3_21 C8_21 1_555 1_555
Li6_3 O7_14 1_555 1_555
C8_21 C9_21 1_555 1_555
O2_21 C2_21 1_555 1_555
O3_21 C2_21 1_555 1_555
C1_32 C4_21 1_555 1_555
C2_21 C6_21 1_555 1_555
C3_32 C6_21 1_555 1_555
C4_21 C6_21 1_555 1_555
C5_32 C1_32 1_555 1_555
H1_32 C3_32 1_555 1_555
H2_21 C4_21 1_555 1_555
O9 C5_32 1_555 1_555
Li5_4 O3_21 1_555 1_555
Li7_4 O2_21 1_555 1_555
O7_15 C5_33 1_555 1_555
O2_22 C2_22 1_555 1_555
O3_22 C2_22 1_555 1_555
C1_33 C4_22 1_555 1_555
C2_22 C6_22 1_555 1_555
C3_33 C6_22 1_555 1_555
C4_22 C6_22 1_555 1_555
C5_33 C1_33 1_555 1_555
H1_33 C3_33 1_555 1_555
H2_22 C4_22 1_555 1_555
O9_4 C5_33 1_555 1_555
O10_5 C7_22 1_555 1_555
O12_3 C7_22 1_555 1_555
C7_22 C9_22 1_555 1_555
C8_22 C1_33 1_555 1_555
C9_22 C3_33 1_555 1_555
H3_22 C8_22 1_555 1_555
Li6_2 O7_15 1_555 1_555
Li7 O2_22 1_555 1_555
C8_22 C9_22 1_555 1_555
O7_13 C5_34 1_555 1_555
O2_23 C2_23 1_555 1_555
O3_23 C2_23 1_555 1_555
C1_34 C4_23 1_555 1_555
C2_23 C6_23 1_555 1_555
C3_34 C6_23 1_555 1_555
C4_23 C6_23 1_555 1_555
C5_34 C1_34 1_555 1_555
H1_34 C3_34 1_555 1_555
H2_23 C4_23 1_555 1_555
O9_3 C5_34 1_555 1_555
O10_6 C7_23 1_555 1_555
O12_4 C7_23 1_555 1_555
C7_23 C9_23 1_555 1_555
C8_23 C1_34 1_555 1_555
C9_23 C3_34 1_555 1_555
H3_23 C8_23 1_555 1_555
Li6 O7_13 1_555 1_555
Li5_2 O3_23 1_555 1_555
Li7_2 O2_23 1_555 1_555
C8_23 C9_23 1_555 1_555
O2_24 C2_24 1_555 1_555
O3_24 C2_24 1_555 1_555
C1_35 C4_24 1_555 1_555
C2_24 C6_24 1_555 1_555
C3_35 C6_24 1_555 1_555
C4_24 C6_24 1_555 1_555
C5_35 C1_35 1_555 1_555
H1_35 C3_35 1_555 1_555
H2_24 C4_24 1_555 1_555
O9_2 C5_35 1_555 1_555
Li7_3 O2_24 1_555 1_555
O7_16 C5_36 1_555 1_555
C5_36 C1_36 1_555 1_555
H1_36 C3_36 1_555 1_555
O10_8 C7_24 1_555 1_555
O12 C7_24 1_555 1_555
C7_24 C9_24 1_555 1_555
C8_24 C1_36 1_555 1_555
C9_24 C3_36 1_555 1_555
H3_24 C8_24 1_555 1_555
Li6_4 O7_16 1_555 1_555
C8_24 C9_24 1_555 1_555

#END
