
###############################################################################
#
# This file contains modified crystal structure data generated from the
# MOF subset of the Cambridge Structural Database (CSD) v543 
# hosted by the Cambridge Crystallographic Data Centre (CCDC).
#
# This work is licensed under the Creative Commons
# Attribution-NonCommercial-ShareAlike 4.0 International License.
# To view a copy of this license, visit
# http://creativecommons.org/licenses/by-nc-sa/4.0/
# or send a letter to
# Creative Commons, PO Box 1866, Mountain View, CA 94042, USA.
#
# CIF created using the CSD Python API on 29 September 2022
# The structure has been converted into the P1 space group
# The structure has a 3D framework
# The original CSD entry POFHAV is in the rhombohedral crystal system
# The original CSD entry POFHAV is in a Sohncke space group
# The framework has been calculated to contain at least 10.0% void space
# The void calculation uses a probe of radius 1.32A, grid spacing 0.4
#
###############################################################################

data_POFHAV
_chemical_formula_moiety         '(C486 H306 Li14 O108)n'
_symmetry_cell_setting           triclinic
_symmetry_space_group_name_H-M   'P 1'
_symmetry_Int_Tables_number      1
_space_group_name_Hall           'P 1'
loop_
_symmetry_equiv_pos_site_id
_symmetry_equiv_pos_as_xyz
1 x,y,z
_cell_length_a                   28.0967(8)
_cell_length_b                   28.0967(8)
_cell_length_c                   22.9666(14)
_cell_angle_alpha                90
_cell_angle_beta                 90
_cell_angle_gamma                120
_cell_volume                     15701.4
loop_
_atom_site_label
_atom_site_type_symbol
_atom_site_fract_x
_atom_site_fract_y
_atom_site_fract_z
O1 O 0.34221(14) 0.35145(16) 0.7395(2)
C1 C 0.42040(19) 0.4342(2) 0.7688(2)
C2 C 0.45281(19) 0.4299(2) 0.7235(3)
H1 H 0.4372 0.3999 0.6984
C3 C 0.5079(2) 0.4705(2) 0.7163(2)
H2 H 0.5290 0.4675 0.6869
C4 C 0.53091(19) 0.51591(18) 0.7541(2)
C5 C 0.62928(19) 0.5476(2) 0.7286(2)
H3 H 0.6192 0.5114 0.7203
C6 C 0.59033(18) 0.56009(19) 0.7461(2)
C7 C 0.3617(2) 0.3915(2) 0.7737(3)
C8 C 0.72976(19) 0.5771(2) 0.7016(3)
C9 C 0.6779(2) 0.71691(19) 0.7552(2)
C10 C 0.7289(2) 0.7551(2) 0.7787(2)
H4 H 0.7530 0.7434 0.7908
C11 C 0.4454(2) 0.4776(2) 0.8059(2)
H5 H 0.4257 0.4795 0.8374
C12 C 0.6048(2) 0.6155(2) 0.7541(2)
H6 H 0.5778 0.6245 0.7626
C13 C 0.4995(2) 0.5192(2) 0.7984(2)
H7 H 0.5146 0.5493 0.8233
C14 C 0.7097(2) 0.8275(2) 0.7711(2)
C15 C 0.6598(2) 0.6569(2) 0.7492(2)
C16 C 0.6618(3) 0.7948(3) 0.7486(2)
H8 H 0.6398 0.8093 0.7377
C17 C 0.6416(2) 0.73746(19) 0.7401(2)
H9 H 0.6066 0.7144 0.7254
C18 C 0.7432(3) 0.8067(2) 0.7840(2)
H10 H 0.7784 0.8309 0.7974
C19 C 0.69854(18) 0.64381(19) 0.7318(2)
H11 H 0.7346 0.6716 0.7257
C20 C 0.68420(18) 0.58893(18) 0.7230(2)
C21 C 0.72183(17) 0.5423(2) 0.6566(3)
H12 H 0.6860 0.5202 0.6434
O2 O 0.33400(15) 0.39829(16) 0.8138(2)
C22 C 0.76182(19) 0.53732(18) 0.6294(2)
H13 H 0.7543 0.5128 0.5989
O3 O 0.7676(3) 0.91402(19) 0.8105(3)
H14 H 0.7837 0.9451 0.7969
O4 O 0.69488(15) 0.90340(13) 0.76672(17)
C23 C 0.81602(19) 0.5719(2) 0.6505(3)
C24 C 0.7244(3) 0.8849(3) 0.7821(3)
C25 C 0.7799(2) 0.6064(2) 0.7247(3)
H15 H 0.7854 0.6290 0.7566
O5 O 0.91180(15) 0.60395(15) 0.6358(2)
O6 O 0.85090(18) 0.5380(3) 0.5806(2)
H16 H 0.8713 0.5518 0.5525
C26 C 0.8235(3) 0.6034(3) 0.7016(4)
H17 H 0.8578 0.6219 0.7194
C27 C 0.8635(2) 0.5718(3) 0.6183(4)
Li1 Li 0.3117(2) 0.3788(2) 0.8935(3)
O7 O 0.32409(21) 0.31522(16) 0.9272(2)
O8 O 0.23673(13) 0.36155(15) 0.89995(17)
O9 O 0.35882(21) 0.42153(15) 0.9691(2)
Li2 Li 0.9545(2) 0.5996(3) 0.5602(3)
Li3 Li 0.7121(2) 0.9784(2) 0.7732(3)
Li4 Li 0.2662(3) 0.2879(2) 0.7732(3)
C2_2 C 0.5701(2) 0.02291(28) 0.7235(3)
H1_2 H 0.6001 0.0373 0.6984
C3_2 C 0.5295(2) 0.0374(3) 0.7163(2)
H2_2 H 0.5325 0.0615 0.6869
C4_2 C 0.48409(18) 0.01500(26) 0.7541(2)
C5_2 C 0.4524(2) 0.08168(28) 0.7286(2)
H3_2 H 0.4886 0.1078 0.7203
C6_2 C 0.43991(19) 0.03024(26) 0.7461(2)
C8_2 C 0.4229(2) 0.15266(28) 0.7016(3)
H4_2 H 0.2566 0.0096 0.7908
C15_2 C 0.3431(2) 0.0029(3) 0.7492(2)
C19_2 C 0.35619(19) 0.05473(26) 0.7318(2)
H11_2 H 0.3284 0.0630 0.7257
C20_2 C 0.41107(18) 0.09527(25) 0.7230(2)
C21_2 C 0.4577(2) 0.17953(26) 0.6566(3)
H12_2 H 0.4798 0.1658 0.6434
C22_2 C 0.46268(18) 0.22450(26) 0.6294(2)
H13_2 H 0.4872 0.2415 0.5989
C23_2 C 0.4281(2) 0.24412(28) 0.6505(3)
C25_2 C 0.3936(2) 0.1735(3) 0.7247(3)
H15_2 H 0.3710 0.1564 0.7566
O5_2 O 0.39605(15) 0.30785(21) 0.6358(2)
O6_2 O 0.4620(3) 0.31290(35) 0.5806(2)
H16_2 H 0.4482 0.3195 0.5525
C26_2 C 0.3966(3) 0.2201(4) 0.7016(4)
H17_2 H 0.3781 0.2359 0.7194
C27_2 C 0.4282(3) 0.2917(4) 0.6183(4)
O7_2 O 0.68478(16) 0.00888(26) 0.9272(2)
Li2_2 Li 0.4004(3) 0.3550(4) 0.5602(3)
O1_2 O 0.64855(16) 0.99076(21) 0.7395(2)
C1_2 C 0.5658(2) 0.98620(28) 0.7688(2)
C7_2 C 0.6085(2) 0.9702(3) 0.7737(3)
C9_2 C 0.28309(19) 0.96099(28) 0.7552(2)
C10_2 C 0.2449(2) 0.9738(3) 0.7787(2)
C11_2 C 0.5224(2) 0.9678(3) 0.8059(2)
H5_2 H 0.5205 0.9462 0.8374
C12_2 C 0.3845(2) 0.9893(3) 0.7541(2)
H6_2 H 0.3755 0.9533 0.7626
C13_2 C 0.4808(2) 0.9803(3) 0.7984(2)
H7_2 H 0.4507 0.9653 0.8233
C14_2 C 0.1725(2) 0.8822(3) 0.7711(2)
C16_2 C 0.2052(3) 0.8670(4) 0.7486(2)
H8_2 H 0.1907 0.8305 0.7377
C17_2 C 0.26254(19) 0.90414(28) 0.7401(2)
H9_2 H 0.2856 0.8922 0.7254
C18_2 C 0.1933(2) 0.9365(4) 0.7840(2)
H10_2 H 0.1691 0.9475 0.7974
O2_2 O 0.60171(16) 0.93571(22) 0.8138(2)
O3_2 O 0.08598(19) 0.85358(36) 0.8105(3)
H14_2 H 0.0549 0.8386 0.7969
O4_2 O 0.09660(13) 0.79148(20) 0.76672(17)
C24_2 C 0.1151(3) 0.8395(4) 0.7821(3)
Li1_2 Li 0.6212(2) 0.9329(3) 0.8935(3)
O8_2 O 0.63845(15) 0.87519(20) 0.89995(17)
O9_2 O 0.57847(15) 0.93728(26) 0.9691(2)
Li3_2 Li 0.0216(2) 0.7338(3) 0.7732(3)
O1_3 O 0.00924(21) 0.65779(14) 0.7395(2)
C1_3 C 0.01380(28) 0.57960(19) 0.7688(2)
C7_3 C 0.0298(3) 0.6383(2) 0.7737(3)
C9_3 C 0.03901(28) 0.3221(2) 0.7552(2)
C10_3 C 0.0262(3) 0.2711(2) 0.7787(2)
C11_3 C 0.0322(3) 0.5546(2) 0.8059(2)
H5_3 H 0.0538 0.5743 0.8374
C12_3 C 0.0107(3) 0.3952(2) 0.7541(2)
H6_3 H 0.0467 0.4222 0.7626
C13_3 C 0.0197(3) 0.5005(2) 0.7984(2)
H7_3 H 0.0347 0.4854 0.8233
C14_3 C 0.1178(3) 0.2903(2) 0.7711(2)
C16_3 C 0.1330(4) 0.3382(3) 0.7486(2)
H8_3 H 0.1695 0.3602 0.7377
C17_3 C 0.09586(28) 0.3584(2) 0.7401(2)
H9_3 H 0.1078 0.3934 0.7254
C18_3 C 0.0635(4) 0.2568(3) 0.7840(2)
H10_3 H 0.0525 0.2216 0.7974
O2_3 O 0.06429(22) 0.66600(15) 0.8138(2)
O3_3 O 0.14642(36) 0.2324(3) 0.8105(3)
H14_3 H 0.1614 0.2163 0.7969
O4_3 O 0.20852(20) 0.30512(15) 0.76672(17)
C24_3 C 0.1605(4) 0.2756(3) 0.7821(3)
Li1_3 Li 0.0671(3) 0.6883(2) 0.8935(3)
O8_3 O 0.12481(20) 0.76327(13) 0.89995(17)
O9_3 O 0.06272(26) 0.64118(21) 0.9691(2)
C2_3 C 0.97709(28) 0.54719(19) 0.7235(3)
H1_3 H 0.9627 0.5628 0.6984
C3_3 C 0.9626(3) 0.4921(2) 0.7163(2)
H2_3 H 0.9385 0.4710 0.6869
C4_3 C 0.98500(26) 0.46909(19) 0.7541(2)
C5_3 C 0.91832(28) 0.37072(19) 0.7286(2)
H3_3 H 0.8922 0.3808 0.7203
C6_3 C 0.96976(26) 0.40967(18) 0.7461(2)
C8_3 C 0.84734(28) 0.27024(19) 0.7016(3)
H4_3 H 0.9904 0.2470 0.7908
C15_3 C 0.9971(3) 0.3402(2) 0.7492(2)
C19_3 C 0.94527(26) 0.30146(18) 0.7318(2)
H11_3 H 0.9370 0.2654 0.7257
C20_3 C 0.90473(25) 0.31580(18) 0.7230(2)
C21_3 C 0.82047(26) 0.27817(17) 0.6566(3)
H12_3 H 0.8342 0.3140 0.6434
C22_3 C 0.77550(26) 0.23818(19) 0.6294(2)
H13_3 H 0.7585 0.2457 0.5989
C23_3 C 0.75588(28) 0.18398(19) 0.6505(3)
C25_3 C 0.8265(3) 0.2201(2) 0.7247(3)
H15_3 H 0.8436 0.2146 0.7566
O5_3 O 0.69215(21) 0.08820(15) 0.6358(2)
O6_3 O 0.68710(35) 0.14910(18) 0.5806(2)
H16_3 H 0.6805 0.1287 0.5525
C26_3 C 0.7799(4) 0.1765(3) 0.7016(4)
H17_3 H 0.7641 0.1422 0.7194
C27_3 C 0.7083(4) 0.1365(2) 0.6183(4)
O7_3 O 0.99112(26) 0.67591(21) 0.9272(2)
Li2_3 Li 0.6450(4) 0.0455(2) 0.5602(3)
O1_4 O 0.35145(16) 0.34221(14) 0.2605(2)
C1_4 C 0.4342(2) 0.42040(19) 0.2312(2)
C2_4 C 0.4299(2) 0.45281(19) 0.2765(3)
H1_4 H 0.3999 0.4372 0.3016
C3_4 C 0.4705(2) 0.5079(2) 0.2837(2)
H2_4 H 0.4675 0.5290 0.3131
C4_4 C 0.51591(18) 0.53091(19) 0.2459(2)
C5_4 C 0.5476(2) 0.62928(19) 0.2714(2)
H3_4 H 0.5114 0.6192 0.2797
C6_4 C 0.56009(19) 0.59033(18) 0.2539(2)
C7_4 C 0.3915(2) 0.3617(2) 0.2263(3)
C8_4 C 0.5771(2) 0.72976(19) 0.2984(3)
C9_4 C 0.71691(19) 0.6779(2) 0.2448(2)
C10_4 C 0.7551(2) 0.7289(2) 0.2213(2)
H4_4 H 0.7434 0.7530 0.2092
C11_4 C 0.4776(2) 0.4454(2) 0.1941(2)
H5_4 H 0.4795 0.4257 0.1626
C12_4 C 0.6155(2) 0.6048(2) 0.2459(2)
H6_4 H 0.6245 0.5778 0.2374
C13_4 C 0.5192(2) 0.4995(2) 0.2016(2)
H7_4 H 0.5493 0.5146 0.1767
C14_4 C 0.8275(2) 0.7097(2) 0.2289(2)
C15_4 C 0.6569(2) 0.6598(2) 0.2508(2)
C16_4 C 0.7948(3) 0.6618(3) 0.2514(2)
H8_4 H 0.8093 0.6398 0.2623
C17_4 C 0.73746(19) 0.6416(2) 0.2599(2)
H9_4 H 0.7144 0.6066 0.2746
C18_4 C 0.8067(2) 0.7432(3) 0.2160(2)
H10_4 H 0.8309 0.7784 0.2026
C19_4 C 0.64381(19) 0.69854(18) 0.2682(2)
H11_4 H 0.6716 0.7346 0.2743
C20_4 C 0.58893(18) 0.68420(18) 0.2770(2)
C21_4 C 0.5423(2) 0.72183(17) 0.3434(3)
H12_4 H 0.5202 0.6860 0.3566
O2_4 O 0.39829(16) 0.33400(15) 0.1862(2)
C22_4 C 0.53732(18) 0.76182(19) 0.3706(2)
H13_4 H 0.5128 0.7543 0.4011
O3_4 O 0.91402(19) 0.7676(3) 0.1895(3)
H14_4 H 0.9451 0.7837 0.2031
O4_4 O 0.90340(13) 0.69488(15) 0.23328(17)
C23_4 C 0.5719(2) 0.81602(19) 0.3495(3)
C24_4 C 0.8849(3) 0.7244(3) 0.2179(3)
C25_4 C 0.6064(2) 0.7799(2) 0.2753(3)
H15_4 H 0.6290 0.7854 0.2434
O5_4 O 0.60395(15) 0.91180(15) 0.3642(2)
O6_4 O 0.5380(3) 0.85090(18) 0.4194(2)
H16_4 H 0.5518 0.8713 0.4475
C26_4 C 0.6034(3) 0.8235(3) 0.2984(4)
H17_4 H 0.6219 0.8578 0.2806
C27_4 C 0.5718(3) 0.8635(2) 0.3817(4)
Li1_4 Li 0.3788(2) 0.3117(2) 0.1065(3)
O7_4 O 0.31522(16) 0.32409(21) 0.0728(2)
O8_4 O 0.36155(15) 0.23673(13) 0.10005(17)
O9_4 O 0.42153(15) 0.35882(21) 0.0309(2)
Li2_4 Li 0.5996(3) 0.9545(2) 0.4398(3)
Li3_3 Li 0.9784(2) 0.7121(2) 0.2268(3)
Li4_2 Li 0.2879(2) 0.2662(3) 0.2268(3)
C2_5 C 0.02291(28) 0.5701(2) 0.2765(3)
H1_5 H 0.0373 0.6001 0.3016
C3_5 C 0.0374(3) 0.5295(2) 0.2837(2)
H2_5 H 0.0615 0.5325 0.3131
C4_5 C 0.01500(26) 0.48409(18) 0.2459(2)
C5_5 C 0.08168(28) 0.4524(2) 0.2714(2)
H3_5 H 0.1078 0.4886 0.2797
C6_5 C 0.03024(26) 0.43991(19) 0.2539(2)
C8_5 C 0.15266(28) 0.4229(2) 0.2984(3)
H4_5 H 0.0096 0.2566 0.2092
C15_5 C 0.0029(3) 0.3431(2) 0.2508(2)
C19_5 C 0.05473(26) 0.35619(19) 0.2682(2)
H11_5 H 0.0630 0.3284 0.2743
C20_5 C 0.09527(25) 0.41107(18) 0.2770(2)
C21_5 C 0.17953(26) 0.4577(2) 0.3434(3)
H12_5 H 0.1658 0.4798 0.3566
C22_5 C 0.22450(26) 0.46268(18) 0.3706(2)
H13_5 H 0.2415 0.4872 0.4011
C23_5 C 0.24412(28) 0.4281(2) 0.3495(3)
C25_5 C 0.1735(3) 0.3936(2) 0.2753(3)
H15_5 H 0.1564 0.3710 0.2434
O5_5 O 0.30785(21) 0.39605(15) 0.3642(2)
O6_5 O 0.31290(35) 0.4620(3) 0.4194(2)
H16_5 H 0.3195 0.4482 0.4475
C26_5 C 0.2201(4) 0.3966(3) 0.2984(4)
H17_5 H 0.2359 0.3781 0.2806
C27_5 C 0.2917(4) 0.4282(3) 0.3817(4)
O7_5 O 0.00888(26) 0.68478(16) 0.0728(2)
Li2_5 Li 0.3550(4) 0.4004(3) 0.4398(3)
O1_5 O 0.99076(21) 0.64855(16) 0.2605(2)
C1_5 C 0.98620(28) 0.5658(2) 0.2312(2)
C7_5 C 0.9702(3) 0.6085(2) 0.2263(3)
C9_5 C 0.96099(28) 0.28309(19) 0.2448(2)
C10_5 C 0.9738(3) 0.2449(2) 0.2213(2)
C11_5 C 0.9678(3) 0.5224(2) 0.1941(2)
H5_5 H 0.9462 0.5205 0.1626
C12_5 C 0.9893(3) 0.3845(2) 0.2459(2)
H6_5 H 0.9533 0.3755 0.2374
C13_5 C 0.9803(3) 0.4808(2) 0.2016(2)
H7_5 H 0.9653 0.4507 0.1767
C14_5 C 0.8822(3) 0.1725(2) 0.2289(2)
C16_5 C 0.8670(4) 0.2052(3) 0.2514(2)
H8_5 H 0.8305 0.1907 0.2623
C17_5 C 0.90414(28) 0.26254(19) 0.2599(2)
H9_5 H 0.8922 0.2856 0.2746
C18_5 C 0.9365(4) 0.1933(2) 0.2160(2)
H10_5 H 0.9475 0.1691 0.2026
O2_5 O 0.93571(22) 0.60171(16) 0.1862(2)
O3_5 O 0.85358(36) 0.08598(19) 0.1895(3)
H14_5 H 0.8386 0.0549 0.2031
O4_5 O 0.79148(20) 0.09660(13) 0.23328(17)
C24_5 C 0.8395(4) 0.1151(3) 0.2179(3)
Li1_5 Li 0.9329(3) 0.6212(2) 0.1065(3)
O8_5 O 0.87519(20) 0.63845(15) 0.10005(17)
O9_5 O 0.93728(26) 0.57847(15) 0.0309(2)
Li3_4 Li 0.7338(3) 0.0216(2) 0.2268(3)
O1_6 O 0.65779(14) 0.00924(21) 0.2605(2)
C1_6 C 0.57960(19) 0.01380(28) 0.2312(2)
C7_6 C 0.6383(2) 0.0298(3) 0.2263(3)
C9_6 C 0.3221(2) 0.03901(28) 0.2448(2)
C10_6 C 0.2711(2) 0.0262(3) 0.2213(2)
C11_6 C 0.5546(2) 0.0322(3) 0.1941(2)
H5_6 H 0.5743 0.0538 0.1626
C12_6 C 0.3952(2) 0.0107(3) 0.2459(2)
H6_6 H 0.4222 0.0467 0.2374
C13_6 C 0.5005(2) 0.0197(3) 0.2016(2)
H7_6 H 0.4854 0.0347 0.1767
C14_6 C 0.2903(2) 0.1178(3) 0.2289(2)
C16_6 C 0.3382(3) 0.1330(4) 0.2514(2)
H8_6 H 0.3602 0.1695 0.2623
C17_6 C 0.3584(2) 0.09586(28) 0.2599(2)
H9_6 H 0.3934 0.1078 0.2746
C18_6 C 0.2568(3) 0.0635(4) 0.2160(2)
H10_6 H 0.2216 0.0525 0.2026
O2_6 O 0.66600(15) 0.06429(22) 0.1862(2)
O3_6 O 0.2324(3) 0.14642(36) 0.1895(3)
H14_6 H 0.2163 0.1614 0.2031
O4_6 O 0.30512(15) 0.20852(20) 0.23328(17)
C24_6 C 0.2756(3) 0.1605(4) 0.2179(3)
Li1_6 Li 0.6883(2) 0.0671(3) 0.1065(3)
O8_6 O 0.76327(13) 0.12481(20) 0.10005(17)
O9_6 O 0.64118(21) 0.06272(26) 0.0309(2)
C2_6 C 0.54719(19) 0.97709(28) 0.2765(3)
H1_6 H 0.5628 0.9627 0.3016
C3_6 C 0.4921(2) 0.9626(3) 0.2837(2)
H2_6 H 0.4710 0.9385 0.3131
C4_6 C 0.46909(19) 0.98500(26) 0.2459(2)
C5_6 C 0.37072(19) 0.91832(28) 0.2714(2)
H3_6 H 0.3808 0.8922 0.2797
C6_6 C 0.40967(18) 0.96976(26) 0.2539(2)
C8_6 C 0.27024(19) 0.84734(28) 0.2984(3)
H4_6 H 0.2470 0.9904 0.2092
C15_6 C 0.3402(2) 0.9971(3) 0.2508(2)
C19_6 C 0.30146(18) 0.94527(26) 0.2682(2)
H11_6 H 0.2654 0.9370 0.2743
C20_6 C 0.31580(18) 0.90473(25) 0.2770(2)
C21_6 C 0.27817(17) 0.82047(26) 0.3434(3)
H12_6 H 0.3140 0.8342 0.3566
C22_6 C 0.23818(19) 0.77550(26) 0.3706(2)
H13_6 H 0.2457 0.7585 0.4011
C23_6 C 0.18398(19) 0.75588(28) 0.3495(3)
C25_6 C 0.2201(2) 0.8265(3) 0.2753(3)
H15_6 H 0.2146 0.8436 0.2434
O5_6 O 0.08820(15) 0.69215(21) 0.3642(2)
O6_6 O 0.14910(18) 0.68710(35) 0.4194(2)
H16_6 H 0.1287 0.6805 0.4475
C26_6 C 0.1765(3) 0.7799(4) 0.2984(4)
H17_6 H 0.1422 0.7641 0.2806
C27_6 C 0.1365(2) 0.7083(4) 0.3817(4)
O7_6 O 0.67591(21) 0.99112(26) 0.0728(2)
Li2_6 Li 0.0455(2) 0.6450(4) 0.4398(3)
C9_7 C 0.3446(2) 0.05024(19) 0.0885(2)
C10_7 C 0.3956(2) 0.0884(2) 0.1120(2)
H4_7 H 0.4197 0.0767 0.1241
C14_7 C 0.3764(2) 0.1608(2) 0.1044(2)
C16_7 C 0.3285(3) 0.1281(3) 0.0819(2)
H8_7 H 0.3065 0.1426 0.0710
C17_7 C 0.3083(2) 0.07079(19) 0.0734(2)
H9_7 H 0.2733 0.0477 0.0587
C18_7 C 0.4099(3) 0.1400(2) 0.1173(2)
H10_7 H 0.4451 0.1642 0.1307
H11_7 H 0.4013 0.0049 0.0590
O3_7 O 0.4343(3) 0.24735(19) 0.1438(3)
H14_7 H 0.4504 0.2784 0.1302
C24_7 C 0.3911(3) 0.2182(3) 0.1154(3)
C1_7 C 0.08707(19) 0.7675(2) 0.1021(2)
C2_7 C 0.11948(19) 0.7632(2) 0.0568(3)
H1_7 H 0.1039 0.7332 0.0317
C3_7 C 0.1746(2) 0.8038(2) 0.0496(2)
H2_7 H 0.1957 0.8008 0.0202
C4_7 C 0.19758(19) 0.84924(18) 0.0874(2)
C5_7 C 0.29595(19) 0.8809(2) 0.0619(2)
H3_7 H 0.2859 0.8447 0.0536
C6_7 C 0.25700(18) 0.89342(19) 0.0794(2)
C7_7 C 0.0284(2) 0.7248(2) 0.1070(3)
C8_7 C 0.39643(19) 0.9104(2) 0.0349(3)
C11_7 C 0.1121(2) 0.8109(2) 0.1392(2)
H5_7 H 0.0924 0.8128 0.1707
C12_7 C 0.2715(2) 0.9488(2) 0.0874(2)
H6_7 H 0.2445 0.9578 0.0959
C13_7 C 0.1662(2) 0.8525(2) 0.1317(2)
H7_7 H 0.1813 0.8826 0.1566
C15_7 C 0.3265(2) 0.9902(2) 0.0825(2)
C19_7 C 0.36521(18) 0.97714(19) 0.0651(2)
C20_7 C 0.35087(18) 0.92226(18) 0.0563(2)
O2_7 O 0.00067(15) 0.73162(16) 0.1471(2)
C25_7 C 0.4466(2) 0.9397(2) 0.0580(3)
H15_7 H 0.4521 0.9623 0.0899
C26_7 C 0.4902(3) 0.9367(3) 0.0349(4)
H17_7 H 0.5245 0.9552 0.0527
O9_7 O 0.02548(21) 0.75487(15) 0.3025(2)
C21_7 C 0.38850(17) 0.8756(2) 0.9899(3)
H12_7 H 0.3527 0.8535 0.9767
C22_7 C 0.42849(19) 0.87065(18) 0.9627(2)
H13_7 H 0.4210 0.8461 0.9322
C23_7 C 0.48269(19) 0.9052(2) 0.9838(3)
O6_7 O 0.51757(18) 0.8713(3) 0.9139(2)
H16_7 H 0.5380 0.8851 0.8858
C27_7 C 0.5302(2) 0.9051(3) 0.9516(4)
C1_8 C 0.2325(2) 0.31953(28) 0.1021(2)
C2_8 C 0.2368(2) 0.35624(28) 0.0568(3)
H1_8 H 0.2668 0.3706 0.0317
C3_8 C 0.1962(2) 0.3707(3) 0.0496(2)
H2_8 H 0.1992 0.3948 0.0202
C4_8 C 0.15076(18) 0.34833(26) 0.0874(2)
C5_8 C 0.1191(2) 0.41501(28) 0.0619(2)
H3_8 H 0.1553 0.4411 0.0536
C6_8 C 0.10658(19) 0.36357(26) 0.0794(2)
C7_8 C 0.2752(2) 0.3035(3) 0.1070(3)
C8_8 C 0.0896(2) 0.48599(28) 0.0349(3)
C11_8 C 0.1891(2) 0.3011(3) 0.1392(2)
H5_8 H 0.1872 0.2795 0.1707
C12_8 C 0.0512(2) 0.3226(3) 0.0874(2)
H6_8 H 0.0422 0.2866 0.0959
C13_8 C 0.1475(2) 0.3136(3) 0.1317(2)
H7_8 H 0.1174 0.2986 0.1566
C15_8 C 0.0098(2) 0.3362(3) 0.0825(2)
C19_8 C 0.02286(19) 0.38806(26) 0.0651(2)
C20_8 C 0.07774(18) 0.42860(25) 0.0563(2)
O2_8 O 0.26838(16) 0.26904(22) 0.1471(2)
C25_8 C 0.0603(2) 0.5068(3) 0.0580(3)
H15_8 H 0.0377 0.4897 0.0899
C26_8 C 0.0633(3) 0.5534(4) 0.0349(4)
H17_8 H 0.0448 0.5692 0.0527
O9_8 O 0.24513(15) 0.27062(26) 0.3025(2)
C21_8 C 0.1244(2) 0.51286(26) 0.9899(3)
H12_8 H 0.1465 0.4991 0.9767
C22_8 C 0.12935(18) 0.55783(26) 0.9627(2)
H13_8 H 0.1539 0.5748 0.9322
C23_8 C 0.0948(2) 0.57745(28) 0.9838(3)
O6_8 O 0.1287(3) 0.64623(35) 0.9139(2)
H16_8 H 0.1149 0.6528 0.8858
C27_8 C 0.0949(3) 0.6250(4) 0.9516(4)
C9_8 C 0.94976(19) 0.29432(28) 0.0885(2)
C10_8 C 0.9116(2) 0.3071(3) 0.1120(2)
H4_8 H 0.9233 0.3429 0.1241
C14_8 C 0.8392(2) 0.2155(3) 0.1044(2)
C16_8 C 0.8719(3) 0.2003(4) 0.0819(2)
H8_8 H 0.8574 0.1638 0.0710
C17_8 C 0.92921(19) 0.23747(28) 0.0734(2)
H9_8 H 0.9523 0.2255 0.0587
C18_8 C 0.8600(2) 0.2698(4) 0.1173(2)
H10_8 H 0.8358 0.2808 0.1307
H11_8 H 0.9951 0.3963 0.0590
O3_8 O 0.75265(19) 0.18691(36) 0.1438(3)
H14_8 H 0.7216 0.1719 0.1302
C24_8 C 0.7818(3) 0.1728(4) 0.1154(3)
C1_9 C 0.68047(28) 0.91293(19) 0.1021(2)
C2_9 C 0.64376(28) 0.88052(19) 0.0568(3)
H1_9 H 0.6294 0.8961 0.0317
C3_9 C 0.6293(3) 0.8254(2) 0.0496(2)
H2_9 H 0.6052 0.8043 0.0202
C4_9 C 0.65167(26) 0.80242(19) 0.0874(2)
C5_9 C 0.58499(28) 0.70405(19) 0.0619(2)
H3_9 H 0.5589 0.7141 0.0536
C6_9 C 0.63643(26) 0.74300(18) 0.0794(2)
C7_9 C 0.6965(3) 0.9716(2) 0.1070(3)
C8_9 C 0.51401(28) 0.60357(19) 0.0349(3)
C9_9 C 0.70568(28) 0.6554(2) 0.0885(2)
C10_9 C 0.6929(3) 0.6044(2) 0.1120(2)
H4_9 H 0.6571 0.5803 0.1241
C11_9 C 0.6989(3) 0.8879(2) 0.1392(2)
H5_9 H 0.7205 0.9076 0.1707
C12_9 C 0.6774(3) 0.7285(2) 0.0874(2)
H6_9 H 0.7134 0.7555 0.0959
C13_9 C 0.6864(3) 0.8338(2) 0.1317(2)
H7_9 H 0.7014 0.8187 0.1566
C14_9 C 0.7845(3) 0.6236(2) 0.1044(2)
C15_9 C 0.6638(3) 0.6735(2) 0.0825(2)
C16_9 C 0.7997(4) 0.6715(3) 0.0819(2)
H8_9 H 0.8362 0.6935 0.0710
C17_9 C 0.76253(28) 0.6917(2) 0.0734(2)
H9_9 H 0.7745 0.7267 0.0587
C18_9 C 0.7302(4) 0.5901(3) 0.1173(2)
H10_9 H 0.7192 0.5549 0.1307
C19_9 C 0.61194(26) 0.63479(18) 0.0651(2)
H11_9 H 0.6037 0.5987 0.0590
C20_9 C 0.57140(25) 0.64913(18) 0.0563(2)
O2_9 O 0.73096(22) 0.99933(15) 0.1471(2)
O3_9 O 0.81309(36) 0.5657(3) 0.1438(3)
H14_9 H 0.8281 0.5496 0.1302
C24_9 C 0.8272(4) 0.6089(3) 0.1154(3)
C25_9 C 0.4932(3) 0.5534(2) 0.0580(3)
H15_9 H 0.5103 0.5479 0.0899
C26_9 C 0.4466(4) 0.5098(3) 0.0349(4)
H17_9 H 0.4308 0.4755 0.0527
O9_9 O 0.72938(26) 0.97452(21) 0.3025(2)
C21_9 C 0.48714(26) 0.61150(17) 0.9899(3)
H12_9 H 0.5009 0.6473 0.9767
C22_9 C 0.44217(26) 0.57151(19) 0.9627(2)
H13_9 H 0.4252 0.5790 0.9322
C23_9 C 0.42255(28) 0.51731(19) 0.9838(3)
O6_9 O 0.35377(35) 0.48243(18) 0.9139(2)
H16_9 H 0.3472 0.4620 0.8858
C27_9 C 0.3750(4) 0.4698(2) 0.9516(4)
C8_10 C 0.2438(2) 0.06309(19) 0.6317(3)
C9_10 C 0.38358(19) 0.0112(2) 0.5781(2)
C10_10 C 0.4218(2) 0.0622(2) 0.5546(2)
H4_10 H 0.4101 0.0863 0.5425
C14_10 C 0.4942(2) 0.0430(2) 0.5622(2)
C18_10 C 0.4734(2) 0.0765(3) 0.5493(2)
H10_10 H 0.4976 0.1117 0.5359
C19_10 C 0.31048(19) 0.03187(18) 0.6015(2)
H11_10 H 0.3383 0.0679 0.6076
C20_10 C 0.25560(18) 0.01753(18) 0.6103(2)
C21_10 C 0.2090(2) 0.05516(17) 0.6767(3)
H12_10 H 0.1869 0.0193 0.6899
C22_10 C 0.20399(18) 0.09515(19) 0.7039(2)
H13_10 H 0.1795 0.0876 0.7344
O3_10 O 0.58069(19) 0.1009(3) 0.5228(3)
H14_10 H 0.6118 0.1170 0.5364
O4_7 O 0.57007(13) 0.02821(15) 0.56661(17)
C23_10 C 0.2386(2) 0.14935(19) 0.6828(3)
C24_10 C 0.5516(3) 0.0577(3) 0.5512(3)
C25_10 C 0.2731(2) 0.1132(2) 0.6086(3)
H15_10 H 0.2957 0.1187 0.5767
O5_7 O 0.27062(15) 0.24513(15) 0.6975(2)
O6_10 O 0.2047(3) 0.18423(18) 0.7527(2)
H16_10 H 0.2185 0.2046 0.7808
C26_10 C 0.2701(3) 0.1568(3) 0.6317(4)
H17_10 H 0.2886 0.1911 0.6139
C27_10 C 0.2385(3) 0.1968(2) 0.7150(4)
O1_7 O 0.01812(16) 0.67554(14) 0.5938(2)
C1_10 C 0.1009(2) 0.75373(19) 0.5645(2)
C2_10 C 0.0966(2) 0.78614(19) 0.6098(3)
H1_10 H 0.0666 0.7705 0.6349
C3_10 C 0.1372(2) 0.8412(2) 0.6170(2)
H2_10 H 0.1342 0.8623 0.6464
C4_10 C 0.18258(18) 0.86424(19) 0.5792(2)
C5_10 C 0.2143(2) 0.96261(19) 0.6047(2)
H3_10 H 0.1781 0.9525 0.6130
C6_10 C 0.22676(19) 0.92366(18) 0.5872(2)
C7_10 C 0.0582(2) 0.6950(2) 0.5596(3)
C11_10 C 0.1443(2) 0.7787(2) 0.5274(2)
H5_10 H 0.1462 0.7590 0.4959
C12_10 C 0.2822(2) 0.9381(2) 0.5792(2)
H6_10 H 0.2912 0.9111 0.5707
C13_10 C 0.1859(2) 0.8328(2) 0.5349(2)
H7_10 H 0.2160 0.8479 0.5100
C15_10 C 0.3236(2) 0.9931(2) 0.5841(2)
C16_10 C 0.4615(3) 0.9951(3) 0.5847(2)
H8_10 H 0.4760 0.9731 0.5956
C17_10 C 0.40413(19) 0.9749(2) 0.5932(2)
H9_10 H 0.3811 0.9399 0.6079
O2_10 O 0.06496(16) 0.66733(15) 0.5195(2)
O8_7 O 0.02821(15) 0.57007(13) 0.43339(17)
O7_7 O 0.98188(16) 0.65743(21) 0.4062(2)
O7_8 O 0.67554(26) 0.01812(16) 0.4062(2)
O1_8 O 0.65743(21) 0.98188(16) 0.5938(2)
C1_11 C 0.65287(28) 0.8991(2) 0.5645(2)
C2_11 C 0.68958(28) 0.9034(2) 0.6098(3)
H1_11 H 0.7040 0.9334 0.6349
C3_11 C 0.7041(3) 0.8628(2) 0.6170(2)
H2_11 H 0.7282 0.8658 0.6464
C4_11 C 0.68167(26) 0.81742(18) 0.5792(2)
C5_11 C 0.74835(28) 0.7857(2) 0.6047(2)
H3_11 H 0.7745 0.8219 0.6130
C6_11 C 0.69691(26) 0.77324(19) 0.5872(2)
C7_11 C 0.6369(3) 0.9418(2) 0.5596(3)
C8_11 C 0.81933(28) 0.7562(2) 0.6317(3)
C9_11 C 0.62766(28) 0.61642(19) 0.5781(2)
C10_11 C 0.6405(3) 0.5782(2) 0.5546(2)
H4_11 H 0.6763 0.5899 0.5425
C11_11 C 0.6345(3) 0.8557(2) 0.5274(2)
H5_11 H 0.6129 0.8538 0.4959
C12_11 C 0.6560(3) 0.7178(2) 0.5792(2)
H6_11 H 0.6200 0.7088 0.5707
C13_11 C 0.6470(3) 0.8141(2) 0.5349(2)
H7_11 H 0.6320 0.7840 0.5100
C14_11 C 0.5489(3) 0.5058(2) 0.5622(2)
C15_11 C 0.6696(3) 0.6764(2) 0.5841(2)
C16_11 C 0.5337(4) 0.5385(3) 0.5847(2)
H8_11 H 0.4972 0.5240 0.5956
C17_11 C 0.57081(28) 0.59587(19) 0.5932(2)
H9_11 H 0.5589 0.6189 0.6079
C18_11 C 0.6032(4) 0.5266(2) 0.5493(2)
H10_11 H 0.6142 0.5024 0.5359
C19_11 C 0.72140(26) 0.68952(19) 0.6015(2)
H11_11 H 0.7297 0.6617 0.6076
C20_11 C 0.76194(25) 0.74440(18) 0.6103(2)
C21_11 C 0.84620(26) 0.7910(2) 0.6767(3)
H12_11 H 0.8325 0.8131 0.6899
O2_11 O 0.60238(22) 0.93504(16) 0.5195(2)
C22_11 C 0.89117(26) 0.79601(18) 0.7039(2)
H13_11 H 0.9082 0.8205 0.7344
O3_11 O 0.52025(36) 0.41931(19) 0.5228(3)
H14_11 H 0.5053 0.3882 0.5364
O4_8 O 0.45815(20) 0.42993(13) 0.56661(17)
C23_11 C 0.91079(28) 0.7614(2) 0.6828(3)
C24_11 C 0.5062(4) 0.4484(3) 0.5512(3)
C25_11 C 0.8402(3) 0.7269(2) 0.6086(3)
H15_11 H 0.8231 0.7043 0.5767
O5_8 O 0.97452(21) 0.72938(15) 0.6975(2)
O6_11 O 0.97957(35) 0.7953(3) 0.7527(2)
H16_11 H 0.9862 0.7815 0.7808
C26_11 C 0.8868(4) 0.7299(3) 0.6317(4)
H17_11 H 0.9026 0.7114 0.6139
C27_11 C 0.9584(4) 0.7615(3) 0.7150(4)
O8_8 O 0.54185(20) 0.97179(15) 0.43339(17)
O1_9 O 0.32446(14) 0.34257(21) 0.5938(2)
C1_12 C 0.24627(19) 0.34713(28) 0.5645(2)
C2_12 C 0.21386(19) 0.31042(28) 0.6098(3)
H1_12 H 0.2295 0.2960 0.6349
C3_12 C 0.1588(2) 0.2959(3) 0.6170(2)
H2_12 H 0.1377 0.2718 0.6464
C4_12 C 0.13576(19) 0.31833(26) 0.5792(2)
C5_12 C 0.03739(19) 0.25165(28) 0.6047(2)
H3_12 H 0.0475 0.2255 0.6130
C6_12 C 0.07634(18) 0.30309(26) 0.5872(2)
C7_12 C 0.3050(2) 0.3631(3) 0.5596(3)
C11_12 C 0.2213(2) 0.3655(3) 0.5274(2)
H5_12 H 0.2410 0.3871 0.4959
C12_12 C 0.0619(2) 0.3440(3) 0.5792(2)
H6_12 H 0.0889 0.3800 0.5707
C13_12 C 0.1672(2) 0.3530(3) 0.5349(2)
H7_12 H 0.1521 0.3680 0.5100
C15_12 C 0.0069(2) 0.3304(3) 0.5841(2)
C16_12 C 0.0049(3) 0.4663(4) 0.5847(2)
H8_12 H 0.0269 0.5028 0.5956
C17_12 C 0.0251(2) 0.42919(28) 0.5932(2)
H9_12 H 0.0601 0.4411 0.6079
O2_12 O 0.33267(15) 0.39762(22) 0.5195(2)
O7_9 O 0.34257(21) 0.32446(26) 0.4062(2)
O8_9 O 0.42993(13) 0.45815(20) 0.43339(17)
C8_12 C 0.93691(19) 0.18067(28) 0.6317(3)
C9_12 C 0.9888(2) 0.37234(28) 0.5781(2)
C10_12 C 0.9378(2) 0.3595(3) 0.5546(2)
H4_12 H 0.9137 0.3237 0.5425
C14_12 C 0.9570(2) 0.4511(3) 0.5622(2)
C18_12 C 0.9235(3) 0.3968(4) 0.5493(2)
H10_12 H 0.8883 0.3858 0.5359
C19_12 C 0.96813(18) 0.27860(26) 0.6015(2)
H11_12 H 0.9321 0.2703 0.6076
C20_12 C 0.98247(18) 0.23806(25) 0.6103(2)
C21_12 C 0.94484(17) 0.15380(26) 0.6767(3)
H12_12 H 0.9807 0.1675 0.6899
C22_12 C 0.90485(19) 0.10883(26) 0.7039(2)
H13_12 H 0.9124 0.0918 0.7344
O3_12 O 0.8991(3) 0.47975(36) 0.5228(3)
H14_12 H 0.8830 0.4947 0.5364
O4_9 O 0.97179(15) 0.54185(20) 0.56661(17)
C23_12 C 0.85065(19) 0.08921(28) 0.6828(3)
C24_12 C 0.9423(3) 0.4938(4) 0.5512(3)
C25_12 C 0.8868(2) 0.1598(3) 0.6086(3)
H15_12 H 0.8813 0.1769 0.5767
O5_9 O 0.75487(15) 0.02548(21) 0.6975(2)
O6_12 O 0.81577(18) 0.02043(35) 0.7527(2)
H16_12 H 0.7954 0.0138 0.7808
C26_12 C 0.8432(3) 0.1132(4) 0.6317(4)
H17_12 H 0.8089 0.0974 0.6139
C27_12 C 0.8032(2) 0.0416(4) 0.7150(4)
C8_13 C 0.06309(19) 0.2438(2) 0.3683(3)
C9_13 C 0.0112(2) 0.38358(19) 0.4219(2)
C10_13 C 0.0622(2) 0.4218(2) 0.4454(2)
H4_13 H 0.0863 0.4101 0.4575
C14_13 C 0.0430(2) 0.4942(2) 0.4378(2)
C18_13 C 0.0765(3) 0.4734(2) 0.4507(2)
H10_13 H 0.1117 0.4976 0.4641
C19_13 C 0.03187(18) 0.31048(19) 0.3985(2)
H11_13 H 0.0679 0.3383 0.3924
C20_13 C 0.01753(18) 0.25560(18) 0.3897(2)
C21_13 C 0.05516(17) 0.2090(2) 0.3233(3)
H12_13 H 0.0193 0.1869 0.3101
C22_13 C 0.09515(19) 0.20399(18) 0.2961(2)
H13_13 H 0.0876 0.1795 0.2656
O3_13 O 0.1009(3) 0.58069(19) 0.4772(3)
H14_13 H 0.1170 0.6118 0.4636
C23_13 C 0.14935(19) 0.2386(2) 0.3172(3)
C24_13 C 0.0577(3) 0.5516(3) 0.4488(3)
C25_13 C 0.1132(2) 0.2731(2) 0.3914(3)
H15_13 H 0.1187 0.2957 0.4233
O6_13 O 0.18423(18) 0.2047(3) 0.2473(2)
H16_13 H 0.2046 0.2185 0.2192
C26_13 C 0.1568(3) 0.2701(3) 0.3683(4)
H17_13 H 0.1911 0.2886 0.3861
C27_13 C 0.1968(2) 0.2385(3) 0.2850(4)
C1_13 C 0.75373(19) 0.1009(2) 0.4355(2)
C2_13 C 0.78614(19) 0.0966(2) 0.3902(3)
H1_13 H 0.7705 0.0666 0.3651
C3_13 C 0.8412(2) 0.1372(2) 0.3830(2)
H2_13 H 0.8623 0.1342 0.3536
C4_13 C 0.86424(19) 0.18258(18) 0.4208(2)
C5_13 C 0.96261(19) 0.2143(2) 0.3953(2)
H3_13 H 0.9525 0.1781 0.3870
C6_13 C 0.92366(18) 0.22676(19) 0.4128(2)
C7_13 C 0.6950(2) 0.0582(2) 0.4404(3)
C11_13 C 0.7787(2) 0.1443(2) 0.4726(2)
H5_13 H 0.7590 0.1462 0.5041
C12_13 C 0.9381(2) 0.2822(2) 0.4208(2)
H6_13 H 0.9111 0.2912 0.4293
C13_13 C 0.8328(2) 0.1859(2) 0.4651(2)
H7_13 H 0.8479 0.2160 0.4900
C15_13 C 0.9931(2) 0.3236(2) 0.4159(2)
C16_13 C 0.9951(3) 0.4615(3) 0.4153(2)
H8_13 H 0.9731 0.4760 0.4044
C17_13 C 0.9749(2) 0.40413(19) 0.4068(2)
H9_13 H 0.9399 0.3811 0.3921
O2_13 O 0.66733(15) 0.06496(16) 0.4805(2)
C1_14 C 0.8991(2) 0.65287(28) 0.4355(2)
C2_14 C 0.9034(2) 0.68958(28) 0.3902(3)
H1_14 H 0.9334 0.7040 0.3651
C3_14 C 0.8628(2) 0.7041(3) 0.3830(2)
H2_14 H 0.8658 0.7282 0.3536
C4_14 C 0.81742(18) 0.68167(26) 0.4208(2)
C5_14 C 0.7857(2) 0.74835(28) 0.3953(2)
H3_14 H 0.8219 0.7745 0.3870
C6_14 C 0.77324(19) 0.69691(26) 0.4128(2)
C7_14 C 0.9418(2) 0.6369(3) 0.4404(3)
C8_14 C 0.7562(2) 0.81933(28) 0.3683(3)
C9_14 C 0.61642(19) 0.62766(28) 0.4219(2)
C10_14 C 0.5782(2) 0.6405(3) 0.4454(2)
H4_14 H 0.5899 0.6763 0.4575
C11_14 C 0.8557(2) 0.6345(3) 0.4726(2)
H5_14 H 0.8538 0.6129 0.5041
C12_14 C 0.7178(2) 0.6560(3) 0.4208(2)
H6_14 H 0.7088 0.6200 0.4293
C13_14 C 0.8141(2) 0.6470(3) 0.4651(2)
H7_14 H 0.7840 0.6320 0.4900
C14_14 C 0.5058(2) 0.5489(3) 0.4378(2)
C15_14 C 0.6764(2) 0.6696(3) 0.4159(2)
C16_14 C 0.5385(3) 0.5337(4) 0.4153(2)
H8_14 H 0.5240 0.4972 0.4044
C17_14 C 0.59587(19) 0.57081(28) 0.4068(2)
H9_14 H 0.6189 0.5589 0.3921
C18_14 C 0.5266(2) 0.6032(4) 0.4507(2)
H10_14 H 0.5024 0.6142 0.4641
C19_14 C 0.68952(19) 0.72140(26) 0.3985(2)
H11_14 H 0.6617 0.7297 0.3924
C20_14 C 0.74440(18) 0.76194(25) 0.3897(2)
C21_14 C 0.7910(2) 0.84620(26) 0.3233(3)
H12_14 H 0.8131 0.8325 0.3101
O2_14 O 0.93504(16) 0.60238(22) 0.4805(2)
C22_14 C 0.79601(18) 0.89117(26) 0.2961(2)
H13_14 H 0.8205 0.9082 0.2656
O3_14 O 0.41931(19) 0.52025(36) 0.4772(3)
H14_14 H 0.3882 0.5053 0.4636
C23_14 C 0.7614(2) 0.91079(28) 0.3172(3)
C24_14 C 0.4484(3) 0.5062(4) 0.4488(3)
C25_14 C 0.7269(2) 0.8402(3) 0.3914(3)
H15_14 H 0.7043 0.8231 0.4233
O6_14 O 0.7953(3) 0.97957(35) 0.2473(2)
H16_14 H 0.7815 0.9862 0.2192
C26_14 C 0.7299(3) 0.8868(4) 0.3683(4)
H17_14 H 0.7114 0.9026 0.3861
C27_14 C 0.7615(3) 0.9584(4) 0.2850(4)
C1_15 C 0.34713(28) 0.24627(19) 0.4355(2)
C2_15 C 0.31042(28) 0.21386(19) 0.3902(3)
H1_15 H 0.2960 0.2295 0.3651
C3_15 C 0.2959(3) 0.1588(2) 0.3830(2)
H2_15 H 0.2718 0.1377 0.3536
C4_15 C 0.31833(26) 0.13576(19) 0.4208(2)
C5_15 C 0.25165(28) 0.03739(19) 0.3953(2)
H3_15 H 0.2255 0.0475 0.3870
C6_15 C 0.30309(26) 0.07634(18) 0.4128(2)
C7_15 C 0.3631(3) 0.3050(2) 0.4404(3)
C11_15 C 0.3655(3) 0.2213(2) 0.4726(2)
H5_15 H 0.3871 0.2410 0.5041
C12_15 C 0.3440(3) 0.0619(2) 0.4208(2)
H6_15 H 0.3800 0.0889 0.4293
C13_15 C 0.3530(3) 0.1672(2) 0.4651(2)
H7_15 H 0.3680 0.1521 0.4900
C15_15 C 0.3304(3) 0.0069(2) 0.4159(2)
C16_15 C 0.4663(4) 0.0049(3) 0.4153(2)
H8_15 H 0.5028 0.0269 0.4044
C17_15 C 0.42919(28) 0.0251(2) 0.4068(2)
H9_15 H 0.4411 0.0601 0.3921
O2_15 O 0.39762(22) 0.33267(15) 0.4805(2)
C8_15 C 0.18067(28) 0.93691(19) 0.3683(3)
C9_15 C 0.37234(28) 0.9888(2) 0.4219(2)
C10_15 C 0.3595(3) 0.9378(2) 0.4454(2)
H4_15 H 0.3237 0.9137 0.4575
C14_15 C 0.4511(3) 0.9570(2) 0.4378(2)
C18_15 C 0.3968(4) 0.9235(3) 0.4507(2)
H10_15 H 0.3858 0.8883 0.4641
C19_15 C 0.27860(26) 0.96813(18) 0.3985(2)
H11_15 H 0.2703 0.9321 0.3924
C20_15 C 0.23806(25) 0.98247(18) 0.3897(2)
C21_15 C 0.15380(26) 0.94484(17) 0.3233(3)
H12_15 H 0.1675 0.9807 0.3101
C22_15 C 0.10883(26) 0.90485(19) 0.2961(2)
H13_15 H 0.0918 0.9124 0.2656
O3_15 O 0.47975(36) 0.8991(3) 0.4772(3)
H14_15 H 0.4947 0.8830 0.4636
C23_15 C 0.08921(28) 0.85065(19) 0.3172(3)
C24_15 C 0.4938(4) 0.9423(3) 0.4488(3)
C25_15 C 0.1598(3) 0.8868(2) 0.3914(3)
H15_15 H 0.1769 0.8813 0.4233
O6_15 O 0.02043(35) 0.81577(18) 0.2473(2)
H16_15 H 0.0138 0.7954 0.2192
C26_15 C 0.1132(4) 0.8432(3) 0.3683(4)
H17_15 H 0.0974 0.8089 0.3861
C27_15 C 0.0416(4) 0.8032(2) 0.2850(4)
C9_16 C 0.05024(19) 0.3446(2) 0.9115(2)
C10_16 C 0.0884(2) 0.3956(2) 0.8880(2)
H4_16 H 0.0767 0.4197 0.8759
C14_16 C 0.1608(2) 0.3764(2) 0.8956(2)
C16_16 C 0.1281(3) 0.3285(3) 0.9181(2)
H8_16 H 0.1426 0.3065 0.9290
C17_16 C 0.07079(19) 0.3083(2) 0.9266(2)
H9_16 H 0.0477 0.2733 0.9413
C18_16 C 0.1400(2) 0.4099(3) 0.8827(2)
H10_16 H 0.1642 0.4451 0.8693
H11_16 H 0.0049 0.4013 0.9410
O3_16 O 0.24735(19) 0.4343(3) 0.8562(3)
H14_16 H 0.2784 0.4504 0.8698
C24_16 C 0.2182(3) 0.3911(3) 0.8846(3)
C21_16 C 0.8756(2) 0.38850(17) 0.0101(3)
H12_16 H 0.8535 0.3527 0.0233
C22_16 C 0.87065(18) 0.42849(19) 0.0373(2)
H13_16 H 0.8461 0.4210 0.0678
C23_16 C 0.9052(2) 0.48269(19) 0.0162(3)
O6_16 O 0.8713(3) 0.51757(18) 0.0861(2)
H16_16 H 0.8851 0.5380 0.1142
C27_16 C 0.9051(3) 0.5302(2) 0.0484(4)
C1_16 C 0.7675(2) 0.08707(19) 0.8979(2)
C2_16 C 0.7632(2) 0.11948(19) 0.9432(3)
H1_16 H 0.7332 0.1039 0.9683
C3_16 C 0.8038(2) 0.1746(2) 0.9504(2)
H2_16 H 0.8008 0.1957 0.9798
C4_16 C 0.84924(18) 0.19758(19) 0.9126(2)
C5_16 C 0.8809(2) 0.29595(19) 0.9381(2)
H3_16 H 0.8447 0.2859 0.9464
C6_16 C 0.89342(19) 0.25700(18) 0.9206(2)
C7_16 C 0.7248(2) 0.0284(2) 0.8930(3)
C8_16 C 0.9104(2) 0.39643(19) 0.9651(3)
C11_16 C 0.8109(2) 0.1121(2) 0.8608(2)
H5_16 H 0.8128 0.0924 0.8293
C12_16 C 0.9488(2) 0.2715(2) 0.9126(2)
H6_16 H 0.9578 0.2445 0.9041
C13_16 C 0.8525(2) 0.1662(2) 0.8683(2)
H7_16 H 0.8826 0.1813 0.8434
C15_16 C 0.9902(2) 0.3265(2) 0.9175(2)
C19_16 C 0.97714(19) 0.36521(18) 0.9349(2)
C20_16 C 0.92226(18) 0.35087(18) 0.9437(2)
O2_16 O 0.73162(16) 0.00067(15) 0.8529(2)
C25_16 C 0.9397(2) 0.4466(2) 0.9420(3)
H15_16 H 0.9623 0.4521 0.9101
C26_16 C 0.9367(3) 0.4902(3) 0.9651(4)
H17_16 H 0.9552 0.5245 0.9473
C21_17 C 0.51286(26) 0.1244(2) 0.0101(3)
H12_17 H 0.4991 0.1465 0.0233
C22_17 C 0.55783(26) 0.12935(18) 0.0373(2)
H13_17 H 0.5748 0.1539 0.0678
C23_17 C 0.57745(28) 0.0948(2) 0.0162(3)
O6_17 O 0.64623(35) 0.1287(3) 0.0861(2)
H16_17 H 0.6528 0.1149 0.1142
C27_17 C 0.6250(4) 0.0949(3) 0.0484(4)
C1_17 C 0.31953(28) 0.2325(2) 0.8979(2)
C2_17 C 0.35624(28) 0.2368(2) 0.9432(3)
H1_17 H 0.3706 0.2668 0.9683
C3_17 C 0.3707(3) 0.1962(2) 0.9504(2)
H2_17 H 0.3948 0.1992 0.9798
C4_17 C 0.34833(26) 0.15076(18) 0.9126(2)
C5_17 C 0.41501(28) 0.1191(2) 0.9381(2)
H3_17 H 0.4411 0.1553 0.9464
C6_17 C 0.36357(26) 0.10658(19) 0.9206(2)
C7_17 C 0.3035(3) 0.2752(2) 0.8930(3)
C8_17 C 0.48599(28) 0.0896(2) 0.9651(3)
C11_17 C 0.3011(3) 0.1891(2) 0.8608(2)
H5_17 H 0.2795 0.1872 0.8293
C12_17 C 0.3226(3) 0.0512(2) 0.9126(2)
H6_17 H 0.2866 0.0422 0.9041
C13_17 C 0.3136(3) 0.1475(2) 0.8683(2)
H7_17 H 0.2986 0.1174 0.8434
C15_17 C 0.3362(3) 0.0098(2) 0.9175(2)
C19_17 C 0.38806(26) 0.02286(19) 0.9349(2)
C20_17 C 0.42860(25) 0.07774(18) 0.9437(2)
O2_17 O 0.26904(22) 0.26838(16) 0.8529(2)
C25_17 C 0.5068(3) 0.0603(2) 0.9420(3)
H15_17 H 0.4897 0.0377 0.9101
C26_17 C 0.5534(4) 0.0633(3) 0.9651(4)
H17_17 H 0.5692 0.0448 0.9473
C9_17 C 0.29432(28) 0.94976(19) 0.9115(2)
C10_17 C 0.3071(3) 0.9116(2) 0.8880(2)
H4_17 H 0.3429 0.9233 0.8759
C14_17 C 0.2155(3) 0.8392(2) 0.8956(2)
C16_17 C 0.2003(4) 0.8719(3) 0.9181(2)
H8_17 H 0.1638 0.8574 0.9290
C17_17 C 0.23747(28) 0.92921(19) 0.9266(2)
H9_17 H 0.2255 0.9523 0.9413
C18_17 C 0.2698(4) 0.8600(2) 0.8827(2)
H10_17 H 0.2808 0.8358 0.8693
H11_17 H 0.3963 0.9951 0.9410
O3_17 O 0.18691(36) 0.75265(19) 0.8562(3)
H14_17 H 0.1719 0.7216 0.8698
C24_17 C 0.1728(4) 0.7818(3) 0.8846(3)
C21_18 C 0.61150(17) 0.48714(26) 0.0101(3)
H12_18 H 0.6473 0.5009 0.0233
C22_18 C 0.57151(19) 0.44217(26) 0.0373(2)
H13_18 H 0.5790 0.4252 0.0678
C23_18 C 0.51731(19) 0.42255(28) 0.0162(3)
O6_18 O 0.48243(18) 0.35377(35) 0.0861(2)
H16_18 H 0.4620 0.3472 0.1142
C27_18 C 0.4698(2) 0.3750(4) 0.0484(4)
C1_18 C 0.91293(19) 0.68047(28) 0.8979(2)
C2_18 C 0.88052(19) 0.64376(28) 0.9432(3)
H1_18 H 0.8961 0.6294 0.9683
C3_18 C 0.8254(2) 0.6293(3) 0.9504(2)
H2_18 H 0.8043 0.6052 0.9798
C4_18 C 0.80242(19) 0.65167(26) 0.9126(2)
C5_18 C 0.70405(19) 0.58499(28) 0.9381(2)
H3_18 H 0.7141 0.5589 0.9464
C6_18 C 0.74300(18) 0.63643(26) 0.9206(2)
C7_18 C 0.9716(2) 0.6965(3) 0.8930(3)
C8_18 C 0.60357(19) 0.51401(28) 0.9651(3)
C9_18 C 0.6554(2) 0.70568(28) 0.9115(2)
C10_18 C 0.6044(2) 0.6929(3) 0.8880(2)
H4_18 H 0.5803 0.6571 0.8759
C11_18 C 0.8879(2) 0.6989(3) 0.8608(2)
H5_18 H 0.9076 0.7205 0.8293
C12_18 C 0.7285(2) 0.6774(3) 0.9126(2)
H6_18 H 0.7555 0.7134 0.9041
C13_18 C 0.8338(2) 0.6864(3) 0.8683(2)
H7_18 H 0.8187 0.7014 0.8434
C14_18 C 0.6236(2) 0.7845(3) 0.8956(2)
C15_18 C 0.6735(2) 0.6638(3) 0.9175(2)
C16_18 C 0.6715(3) 0.7997(4) 0.9181(2)
H8_18 H 0.6935 0.8362 0.9290
C17_18 C 0.6917(2) 0.76253(28) 0.9266(2)
H9_18 H 0.7267 0.7745 0.9413
C18_18 C 0.5901(3) 0.7302(4) 0.8827(2)
H10_18 H 0.5549 0.7192 0.8693
C19_18 C 0.63479(18) 0.61194(26) 0.9349(2)
H11_18 H 0.5987 0.6037 0.9410
C20_18 C 0.64913(18) 0.57140(25) 0.9437(2)
O2_18 O 0.99933(15) 0.73096(22) 0.8529(2)
O3_18 O 0.5657(3) 0.81309(36) 0.8562(3)
H14_18 H 0.5496 0.8281 0.8698
C24_18 C 0.6089(3) 0.8272(4) 0.8846(3)
C25_18 C 0.5534(2) 0.4932(3) 0.9420(3)
H15_18 H 0.5479 0.5103 0.9101
C26_18 C 0.5098(3) 0.4466(4) 0.9651(4)
H17_18 H 0.4755 0.4308 0.9473
loop_
_geom_bond_atom_site_label_1
_geom_bond_atom_site_label_2
_geom_bond_site_symmetry_1
_geom_bond_site_symmetry_2
O1 C7 1_555 1_555
C1 C2 1_555 1_555
C2 H1 1_555 1_555
C3 C2 1_555 1_555
H2 C3 1_555 1_555
C4 C3 1_555 1_555
C5 H3 1_555 1_555
C6 C4 1_555 1_555
C7 C1 1_555 1_555
C8 C20 1_555 1_555
C9 C10 1_555 1_555
C10 H4 1_555 1_555
C11 C1 1_555 1_555
H5 C11 1_555 1_555
C12 C6 1_555 1_555
H6 C12 1_555 1_555
C13 C4 1_555 1_555
H7 C13 1_555 1_555
C14 C16 1_555 1_555
C15 C9 1_555 1_555
C16 H8 1_555 1_555
C17 C9 1_555 1_555
H9 C17 1_555 1_555
C18 C10 1_555 1_555
H10 C18 1_555 1_555
C19 C15 1_555 1_555
H11 C19 1_555 1_555
C20 C5 1_555 1_555
C21 C8 1_555 1_555
H12 C21 1_555 1_555
O2 C7 1_555 1_555
C22 C21 1_555 1_555
H13 C22 1_555 1_555
O3 H14 1_555 1_555
O4 C24 1_555 1_555
C23 C22 1_555 1_555
C24 C14 1_555 1_555
C25 C8 1_555 1_555
H15 C25 1_555 1_555
O5 C27 1_555 1_555
O6 H16 1_555 1_555
C26 C23 1_555 1_555
H17 C26 1_555 1_555
C27 C23 1_555 1_555
Li1 O2 1_555 1_555
O7 Li1 1_555 1_555
O8 Li1 1_555 1_555
O9 Li1 1_555 1_555
Li2 O5 1_555 1_555
Li3 O4 1_555 1_555
Li4 O1 1_555 1_555
C5 C6 1_555 1_555
C11 C13 1_555 1_555
C12 C15 1_555 1_555
C14 C18 1_555 1_555
C16 C17 1_555 1_555
C19 C20 1_555 1_555
O3 C24 1_555 1_555
C25 C26 1_555 1_555
O6 C27 1_555 1_555
C2_2 H1_2 1_555 1_555
C3_2 C2_2 1_555 1_555
H2_2 C3_2 1_555 1_555
C4_2 C3_2 1_555 1_555
C5_2 H3_2 1_555 1_555
C6_2 C4_2 1_555 1_555
C8_2 C20_2 1_555 1_555
C19_2 C15_2 1_555 1_555
H11_2 C19_2 1_555 1_555
C20_2 C5_2 1_555 1_555
C21_2 C8_2 1_555 1_555
H12_2 C21_2 1_555 1_555
C22_2 C21_2 1_555 1_555
H13_2 C22_2 1_555 1_555
C23_2 C22_2 1_555 1_555
C25_2 C8_2 1_555 1_555
H15_2 C25_2 1_555 1_555
O5_2 C27_2 1_555 1_555
O6_2 H16_2 1_555 1_555
C26_2 C23_2 1_555 1_555
H17_2 C26_2 1_555 1_555
C27_2 C23_2 1_555 1_555
Li2_2 O5_2 1_555 1_555
C5_2 C6_2 1_555 1_555
C19_2 C20_2 1_555 1_555
C25_2 C26_2 1_555 1_555
O6_2 C27_2 1_555 1_555
O1_2 C7_2 1_555 1_555
C7_2 C1_2 1_555 1_555
C9_2 C10_2 1_555 1_555
C11_2 C1_2 1_555 1_555
H5_2 C11_2 1_555 1_555
H6_2 C12_2 1_555 1_555
H7_2 C13_2 1_555 1_555
C14_2 C16_2 1_555 1_555
C16_2 H8_2 1_555 1_555
C17_2 C9_2 1_555 1_555
H9_2 C17_2 1_555 1_555
C18_2 C10_2 1_555 1_555
H10_2 C18_2 1_555 1_555
O2_2 C7_2 1_555 1_555
O3_2 H14_2 1_555 1_555
O4_2 C24_2 1_555 1_555
C24_2 C14_2 1_555 1_555
Li1_2 O2_2 1_555 1_555
O8_2 Li1_2 1_555 1_555
O9_2 Li1_2 1_555 1_555
Li3_2 O4_2 1_555 1_555
Li3 O1_2 1_555 1_555
C11_2 C13_2 1_555 1_555
C14_2 C18_2 1_555 1_555
C16_2 C17_2 1_555 1_555
O3_2 C24_2 1_555 1_555
O1_3 C7_3 1_555 1_555
C7_3 C1_3 1_555 1_555
C9_3 C10_3 1_555 1_555
C11_3 C1_3 1_555 1_555
H5_3 C11_3 1_555 1_555
H6_3 C12_3 1_555 1_555
H7_3 C13_3 1_555 1_555
C14_3 C16_3 1_555 1_555
C16_3 H8_3 1_555 1_555
C17_3 C9_3 1_555 1_555
H9_3 C17_3 1_555 1_555
C18_3 C10_3 1_555 1_555
H10_3 C18_3 1_555 1_555
O2_3 C7_3 1_555 1_555
O3_3 H14_3 1_555 1_555
O4_3 C24_3 1_555 1_555
C24_3 C14_3 1_555 1_555
Li1_3 O2_3 1_555 1_555
O8_3 Li1_3 1_555 1_555
O9_3 Li1_3 1_555 1_555
Li4 O4_3 1_555 1_555
Li3_2 O1_3 1_555 1_555
C11_3 C13_3 1_555 1_555
C14_3 C18_3 1_555 1_555
C16_3 C17_3 1_555 1_555
O3_3 C24_3 1_555 1_555
C2_3 H1_3 1_555 1_555
C3_3 C2_3 1_555 1_555
H2_3 C3_3 1_555 1_555
C4_3 C3_3 1_555 1_555
C5_3 H3_3 1_555 1_555
C6_3 C4_3 1_555 1_555
C8_3 C20_3 1_555 1_555
C19_3 C15_3 1_555 1_555
H11_3 C19_3 1_555 1_555
C20_3 C5_3 1_555 1_555
C21_3 C8_3 1_555 1_555
H12_3 C21_3 1_555 1_555
C22_3 C21_3 1_555 1_555
H13_3 C22_3 1_555 1_555
C23_3 C22_3 1_555 1_555
C25_3 C8_3 1_555 1_555
H15_3 C25_3 1_555 1_555
O5_3 C27_3 1_555 1_555
O6_3 H16_3 1_555 1_555
C26_3 C23_3 1_555 1_555
H17_3 C26_3 1_555 1_555
C27_3 C23_3 1_555 1_555
Li2_3 O5_3 1_555 1_555
C5_3 C6_3 1_555 1_555
C19_3 C20_3 1_555 1_555
C25_3 C26_3 1_555 1_555
O6_3 C27_3 1_555 1_555
O1_4 C7_4 1_555 1_555
C1_4 C2_4 1_555 1_555
C2_4 H1_4 1_555 1_555
C3_4 C2_4 1_555 1_555
H2_4 C3_4 1_555 1_555
C4_4 C3_4 1_555 1_555
C5_4 H3_4 1_555 1_555
C6_4 C4_4 1_555 1_555
C7_4 C1_4 1_555 1_555
C8_4 C20_4 1_555 1_555
C9_4 C10_4 1_555 1_555
C10_4 H4_4 1_555 1_555
C11_4 C1_4 1_555 1_555
H5_4 C11_4 1_555 1_555
C12_4 C6_4 1_555 1_555
H6_4 C12_4 1_555 1_555
C13_4 C4_4 1_555 1_555
H7_4 C13_4 1_555 1_555
C14_4 C16_4 1_555 1_555
C15_4 C9_4 1_555 1_555
C16_4 H8_4 1_555 1_555
C17_4 C9_4 1_555 1_555
H9_4 C17_4 1_555 1_555
C18_4 C10_4 1_555 1_555
H10_4 C18_4 1_555 1_555
C19_4 C15_4 1_555 1_555
H11_4 C19_4 1_555 1_555
C20_4 C5_4 1_555 1_555
C21_4 C8_4 1_555 1_555
H12_4 C21_4 1_555 1_555
O2_4 C7_4 1_555 1_555
C22_4 C21_4 1_555 1_555
H13_4 C22_4 1_555 1_555
O3_4 H14_4 1_555 1_555
O4_4 C24_4 1_555 1_555
C23_4 C22_4 1_555 1_555
C24_4 C14_4 1_555 1_555
C25_4 C8_4 1_555 1_555
H15_4 C25_4 1_555 1_555
O5_4 C27_4 1_555 1_555
O6_4 H16_4 1_555 1_555
C26_4 C23_4 1_555 1_555
H17_4 C26_4 1_555 1_555
C27_4 C23_4 1_555 1_555
Li1_4 O2_4 1_555 1_555
O7_4 Li1_4 1_555 1_555
O8_4 Li1_4 1_555 1_555
O9_4 Li1_4 1_555 1_555
Li2_4 O5_4 1_555 1_555
Li3_3 O4_4 1_555 1_555
Li4_2 O1_4 1_555 1_555
C5_4 C6_4 1_555 1_555
C11_4 C13_4 1_555 1_555
C12_4 C15_4 1_555 1_555
C14_4 C18_4 1_555 1_555
C16_4 C17_4 1_555 1_555
C19_4 C20_4 1_555 1_555
O3_4 C24_4 1_555 1_555
C25_4 C26_4 1_555 1_555
O6_4 C27_4 1_555 1_555
C2_5 H1_5 1_555 1_555
C3_5 C2_5 1_555 1_555
H2_5 C3_5 1_555 1_555
C4_5 C3_5 1_555 1_555
C5_5 H3_5 1_555 1_555
C6_5 C4_5 1_555 1_555
C8_5 C20_5 1_555 1_555
C19_5 C15_5 1_555 1_555
H11_5 C19_5 1_555 1_555
C20_5 C5_5 1_555 1_555
C21_5 C8_5 1_555 1_555
H12_5 C21_5 1_555 1_555
C22_5 C21_5 1_555 1_555
H13_5 C22_5 1_555 1_555
C23_5 C22_5 1_555 1_555
C25_5 C8_5 1_555 1_555
H15_5 C25_5 1_555 1_555
O5_5 C27_5 1_555 1_555
O6_5 H16_5 1_555 1_555
C26_5 C23_5 1_555 1_555
H17_5 C26_5 1_555 1_555
C27_5 C23_5 1_555 1_555
Li2_5 O5_5 1_555 1_555
C5_5 C6_5 1_555 1_555
C19_5 C20_5 1_555 1_555
C25_5 C26_5 1_555 1_555
O6_5 C27_5 1_555 1_555
O1_5 C7_5 1_555 1_555
C7_5 C1_5 1_555 1_555
C9_5 C10_5 1_555 1_555
C11_5 C1_5 1_555 1_555
H5_5 C11_5 1_555 1_555
H6_5 C12_5 1_555 1_555
H7_5 C13_5 1_555 1_555
C14_5 C16_5 1_555 1_555
C16_5 H8_5 1_555 1_555
C17_5 C9_5 1_555 1_555
H9_5 C17_5 1_555 1_555
C18_5 C10_5 1_555 1_555
H10_5 C18_5 1_555 1_555
O2_5 C7_5 1_555 1_555
O3_5 H14_5 1_555 1_555
O4_5 C24_5 1_555 1_555
C24_5 C14_5 1_555 1_555
Li1_5 O2_5 1_555 1_555
O8_5 Li1_5 1_555 1_555
O9_5 Li1_5 1_555 1_555
Li3_4 O4_5 1_555 1_555
Li3_3 O1_5 1_555 1_555
C11_5 C13_5 1_555 1_555
C14_5 C18_5 1_555 1_555
C16_5 C17_5 1_555 1_555
O3_5 C24_5 1_555 1_555
O1_6 C7_6 1_555 1_555
C7_6 C1_6 1_555 1_555
C9_6 C10_6 1_555 1_555
C11_6 C1_6 1_555 1_555
H5_6 C11_6 1_555 1_555
H6_6 C12_6 1_555 1_555
H7_6 C13_6 1_555 1_555
C14_6 C16_6 1_555 1_555
C16_6 H8_6 1_555 1_555
C17_6 C9_6 1_555 1_555
H9_6 C17_6 1_555 1_555
C18_6 C10_6 1_555 1_555
H10_6 C18_6 1_555 1_555
O2_6 C7_6 1_555 1_555
O3_6 H14_6 1_555 1_555
O4_6 C24_6 1_555 1_555
C24_6 C14_6 1_555 1_555
Li1_6 O2_6 1_555 1_555
O8_6 Li1_6 1_555 1_555
O9_6 Li1_6 1_555 1_555
Li4_2 O4_6 1_555 1_555
Li3_4 O1_6 1_555 1_555
C11_6 C13_6 1_555 1_555
C14_6 C18_6 1_555 1_555
C16_6 C17_6 1_555 1_555
O3_6 C24_6 1_555 1_555
C2_6 H1_6 1_555 1_555
C3_6 C2_6 1_555 1_555
H2_6 C3_6 1_555 1_555
C4_6 C3_6 1_555 1_555
C5_6 H3_6 1_555 1_555
C6_6 C4_6 1_555 1_555
C8_6 C20_6 1_555 1_555
C19_6 C15_6 1_555 1_555
H11_6 C19_6 1_555 1_555
C20_6 C5_6 1_555 1_555
C21_6 C8_6 1_555 1_555
H12_6 C21_6 1_555 1_555
C22_6 C21_6 1_555 1_555
H13_6 C22_6 1_555 1_555
C23_6 C22_6 1_555 1_555
C25_6 C8_6 1_555 1_555
H15_6 C25_6 1_555 1_555
O5_6 C27_6 1_555 1_555
O6_6 H16_6 1_555 1_555
C26_6 C23_6 1_555 1_555
H17_6 C26_6 1_555 1_555
C27_6 C23_6 1_555 1_555
Li2_6 O5_6 1_555 1_555
C5_6 C6_6 1_555 1_555
C19_6 C20_6 1_555 1_555
C25_6 C26_6 1_555 1_555
O6_6 C27_6 1_555 1_555
C9_7 C10_7 1_555 1_555
C10_7 H4_7 1_555 1_555
C14_7 C16_7 1_555 1_555
C16_7 H8_7 1_555 1_555
C17_7 C9_7 1_555 1_555
H9_7 C17_7 1_555 1_555
C18_7 C10_7 1_555 1_555
H10_7 C18_7 1_555 1_555
O3_7 H14_7 1_555 1_555
O8_4 C24_7 1_555 1_555
C24_7 C14_7 1_555 1_555
C14_7 C18_7 1_555 1_555
C16_7 C17_7 1_555 1_555
O3_7 C24_7 1_555 1_555
O7_5 C7_7 1_555 1_555
C1_7 C2_7 1_555 1_555
C2_7 H1_7 1_555 1_555
C3_7 C2_7 1_555 1_555
H2_7 C3_7 1_555 1_555
C4_7 C3_7 1_555 1_555
C5_7 H3_7 1_555 1_555
C6_7 C4_7 1_555 1_555
C7_7 C1_7 1_555 1_555
C8_7 C20_7 1_555 1_555
C11_7 C1_7 1_555 1_555
H5_7 C11_7 1_555 1_555
C12_7 C6_7 1_555 1_555
H6_7 C12_7 1_555 1_555
C13_7 C4_7 1_555 1_555
H7_7 C13_7 1_555 1_555
C19_7 C15_7 1_555 1_555
C20_7 C5_7 1_555 1_555
O2_7 C7_7 1_555 1_555
C25_7 C8_7 1_555 1_555
H15_7 C25_7 1_555 1_555
H17_7 C26_7 1_555 1_555
C5_7 C6_7 1_555 1_555
C11_7 C13_7 1_555 1_555
C12_7 C15_7 1_555 1_555
C19_7 C20_7 1_555 1_555
C25_7 C26_7 1_555 1_555
H12_7 C21_7 1_555 1_555
C22_7 C21_7 1_555 1_555
H13_7 C22_7 1_555 1_555
C23_7 C22_7 1_555 1_555
O9_2 C27_7 1_555 1_555
O6_7 H16_7 1_555 1_555
C27_7 C23_7 1_555 1_555
O6_7 C27_7 1_555 1_555
O7_4 C7_8 1_555 1_555
C1_8 C2_8 1_555 1_555
C2_8 H1_8 1_555 1_555
C3_8 C2_8 1_555 1_555
H2_8 C3_8 1_555 1_555
C4_8 C3_8 1_555 1_555
C5_8 H3_8 1_555 1_555
C6_8 C4_8 1_555 1_555
C7_8 C1_8 1_555 1_555
C8_8 C20_8 1_555 1_555
C11_8 C1_8 1_555 1_555
H5_8 C11_8 1_555 1_555
C12_8 C6_8 1_555 1_555
H6_8 C12_8 1_555 1_555
C13_8 C4_8 1_555 1_555
H7_8 C13_8 1_555 1_555
C19_8 C15_8 1_555 1_555
C20_8 C5_8 1_555 1_555
O2_8 C7_8 1_555 1_555
C25_8 C8_8 1_555 1_555
H15_8 C25_8 1_555 1_555
H17_8 C26_8 1_555 1_555
Li4_2 O2_8 1_555 1_555
O9_8 Li4_2 1_555 1_555
C5_8 C6_8 1_555 1_555
C11_8 C13_8 1_555 1_555
C12_8 C15_8 1_555 1_555
C19_8 C20_8 1_555 1_555
C25_8 C26_8 1_555 1_555
H12_8 C21_8 1_555 1_555
C22_8 C21_8 1_555 1_555
H13_8 C22_8 1_555 1_555
C23_8 C22_8 1_555 1_555
O9_3 C27_8 1_555 1_555
O6_8 H16_8 1_555 1_555
C27_8 C23_8 1_555 1_555
O6_8 C27_8 1_555 1_555
C9_8 C10_8 1_555 1_555
C10_8 H4_8 1_555 1_555
C14_8 C16_8 1_555 1_555
C16_8 H8_8 1_555 1_555
C17_8 C9_8 1_555 1_555
H9_8 C17_8 1_555 1_555
C18_8 C10_8 1_555 1_555
H10_8 C18_8 1_555 1_555
O3_8 H14_8 1_555 1_555
O8_6 C24_8 1_555 1_555
C24_8 C14_8 1_555 1_555
C14_8 C18_8 1_555 1_555
C16_8 C17_8 1_555 1_555
O3_8 C24_8 1_555 1_555
O7_6 C7_9 1_555 1_555
C1_9 C2_9 1_555 1_555
C2_9 H1_9 1_555 1_555
C3_9 C2_9 1_555 1_555
H2_9 C3_9 1_555 1_555
C4_9 C3_9 1_555 1_555
C5_9 H3_9 1_555 1_555
C6_9 C4_9 1_555 1_555
C7_9 C1_9 1_555 1_555
C8_9 C20_9 1_555 1_555
C9_9 C10_9 1_555 1_555
C10_9 H4_9 1_555 1_555
C11_9 C1_9 1_555 1_555
H5_9 C11_9 1_555 1_555
C12_9 C6_9 1_555 1_555
H6_9 C12_9 1_555 1_555
C13_9 C4_9 1_555 1_555
H7_9 C13_9 1_555 1_555
C14_9 C16_9 1_555 1_555
C15_9 C9_9 1_555 1_555
C16_9 H8_9 1_555 1_555
C17_9 C9_9 1_555 1_555
H9_9 C17_9 1_555 1_555
C18_9 C10_9 1_555 1_555
H10_9 C18_9 1_555 1_555
C19_9 C15_9 1_555 1_555
H11_9 C19_9 1_555 1_555
C20_9 C5_9 1_555 1_555
O2_9 C7_9 1_555 1_555
O3_9 H14_9 1_555 1_555
O8_5 C24_9 1_555 1_555
C24_9 C14_9 1_555 1_555
C25_9 C8_9 1_555 1_555
H15_9 C25_9 1_555 1_555
H17_9 C26_9 1_555 1_555
C5_9 C6_9 1_555 1_555
C11_9 C13_9 1_555 1_555
C12_9 C15_9 1_555 1_555
C14_9 C18_9 1_555 1_555
C16_9 C17_9 1_555 1_555
C19_9 C20_9 1_555 1_555
O3_9 C24_9 1_555 1_555
C25_9 C26_9 1_555 1_555
H12_9 C21_9 1_555 1_555
C22_9 C21_9 1_555 1_555
H13_9 C22_9 1_555 1_555
C23_9 C22_9 1_555 1_555
O9 C27_9 1_555 1_555
O6_9 H16_9 1_555 1_555
C27_9 C23_9 1_555 1_555
O6_9 C27_9 1_555 1_555
C8_10 C20_10 1_555 1_555
C9_10 C10_10 1_555 1_555
C10_10 H4_10 1_555 1_555
C18_10 C10_10 1_555 1_555
H10_10 C18_10 1_555 1_555
H11_10 C19_10 1_555 1_555
C21_10 C8_10 1_555 1_555
H12_10 C21_10 1_555 1_555
C22_10 C21_10 1_555 1_555
H13_10 C22_10 1_555 1_555
O3_10 H14_10 1_555 1_555
O4_7 C24_10 1_555 1_555
C23_10 C22_10 1_555 1_555
C24_10 C14_10 1_555 1_555
C25_10 C8_10 1_555 1_555
H15_10 C25_10 1_555 1_555
O5_7 C27_10 1_555 1_555
O6_10 H16_10 1_555 1_555
C26_10 C23_10 1_555 1_555
H17_10 C26_10 1_555 1_555
C27_10 C23_10 1_555 1_555
Li4 O5_7 1_555 1_555
Li2_3 O4_7 1_555 1_555
C14_10 C18_10 1_555 1_555
C19_10 C20_10 1_555 1_555
O3_10 C24_10 1_555 1_555
C25_10 C26_10 1_555 1_555
O6_10 C27_10 1_555 1_555
O1_7 C7_10 1_555 1_555
C1_10 C2_10 1_555 1_555
C2_10 H1_10 1_555 1_555
C3_10 C2_10 1_555 1_555
H2_10 C3_10 1_555 1_555
C4_10 C3_10 1_555 1_555
C5_10 H3_10 1_555 1_555
C6_10 C4_10 1_555 1_555
C7_10 C1_10 1_555 1_555
C11_10 C1_10 1_555 1_555
H5_10 C11_10 1_555 1_555
C12_10 C6_10 1_555 1_555
H6_10 C12_10 1_555 1_555
C13_10 C4_10 1_555 1_555
H7_10 C13_10 1_555 1_555
C16_10 H8_10 1_555 1_555
H9_10 C17_10 1_555 1_555
O2_10 C7_10 1_555 1_555
Li2_6 O2_10 1_555 1_555
O8_7 Li2_6 1_555 1_555
C5_10 C6_10 1_555 1_555
C11_10 C13_10 1_555 1_555
C12_10 C15_10 1_555 1_555
C16_10 C17_10 1_555 1_555
O1_8 C7_11 1_555 1_555
C1_11 C2_11 1_555 1_555
C2_11 H1_11 1_555 1_555
C3_11 C2_11 1_555 1_555
H2_11 C3_11 1_555 1_555
C4_11 C3_11 1_555 1_555
C5_11 H3_11 1_555 1_555
C6_11 C4_11 1_555 1_555
C7_11 C1_11 1_555 1_555
C8_11 C20_11 1_555 1_555
C9_11 C10_11 1_555 1_555
C10_11 H4_11 1_555 1_555
C11_11 C1_11 1_555 1_555
H5_11 C11_11 1_555 1_555
C12_11 C6_11 1_555 1_555
H6_11 C12_11 1_555 1_555
C13_11 C4_11 1_555 1_555
H7_11 C13_11 1_555 1_555
C14_11 C16_11 1_555 1_555
C15_11 C9_11 1_555 1_555
C16_11 H8_11 1_555 1_555
C17_11 C9_11 1_555 1_555
H9_11 C17_11 1_555 1_555
C18_11 C10_11 1_555 1_555
H10_11 C18_11 1_555 1_555
C19_11 C15_11 1_555 1_555
H11_11 C19_11 1_555 1_555
C20_11 C5_11 1_555 1_555
C21_11 C8_11 1_555 1_555
H12_11 C21_11 1_555 1_555
O2_11 C7_11 1_555 1_555
C22_11 C21_11 1_555 1_555
H13_11 C22_11 1_555 1_555
O3_11 H14_11 1_555 1_555
O4_8 C24_11 1_555 1_555
C23_11 C22_11 1_555 1_555
C24_11 C14_11 1_555 1_555
C25_11 C8_11 1_555 1_555
H15_11 C25_11 1_555 1_555
O5_8 C27_11 1_555 1_555
O6_11 H16_11 1_555 1_555
C26_11 C23_11 1_555 1_555
H17_11 C26_11 1_555 1_555
C27_11 C23_11 1_555 1_555
Li2_4 O2_11 1_555 1_555
O8_8 Li2_4 1_555 1_555
Li2_2 O4_8 1_555 1_555
C5_11 C6_11 1_555 1_555
C11_11 C13_11 1_555 1_555
C12_11 C15_11 1_555 1_555
C14_11 C18_11 1_555 1_555
C16_11 C17_11 1_555 1_555
C19_11 C20_11 1_555 1_555
O3_11 C24_11 1_555 1_555
C25_11 C26_11 1_555 1_555
O6_11 C27_11 1_555 1_555
O1_9 C7_12 1_555 1_555
C1_12 C2_12 1_555 1_555
C2_12 H1_12 1_555 1_555
C3_12 C2_12 1_555 1_555
H2_12 C3_12 1_555 1_555
C4_12 C3_12 1_555 1_555
C5_12 H3_12 1_555 1_555
C6_12 C4_12 1_555 1_555
C7_12 C1_12 1_555 1_555
C11_12 C1_12 1_555 1_555
H5_12 C11_12 1_555 1_555
C12_12 C6_12 1_555 1_555
H6_12 C12_12 1_555 1_555
C13_12 C4_12 1_555 1_555
H7_12 C13_12 1_555 1_555
C16_12 H8_12 1_555 1_555
H9_12 C17_12 1_555 1_555
O2_12 C7_12 1_555 1_555
Li2_5 O2_12 1_555 1_555
O7_9 Li2_5 1_555 1_555
O8_9 Li2_5 1_555 1_555
Li2_2 O1_9 1_555 1_555
C5_12 C6_12 1_555 1_555
C11_12 C13_12 1_555 1_555
C12_12 C15_12 1_555 1_555
C16_12 C17_12 1_555 1_555
C8_12 C20_12 1_555 1_555
C9_12 C10_12 1_555 1_555
C10_12 H4_12 1_555 1_555
C18_12 C10_12 1_555 1_555
H10_12 C18_12 1_555 1_555
H11_12 C19_12 1_555 1_555
C21_12 C8_12 1_555 1_555
H12_12 C21_12 1_555 1_555
C22_12 C21_12 1_555 1_555
H13_12 C22_12 1_555 1_555
O3_12 H14_12 1_555 1_555
O4_9 C24_12 1_555 1_555
C23_12 C22_12 1_555 1_555
C24_12 C14_12 1_555 1_555
C25_12 C8_12 1_555 1_555
H15_12 C25_12 1_555 1_555
O5_9 C27_12 1_555 1_555
O6_12 H16_12 1_555 1_555
C26_12 C23_12 1_555 1_555
H17_12 C26_12 1_555 1_555
C27_12 C23_12 1_555 1_555
Li2 O4_9 1_555 1_555
C14_12 C18_12 1_555 1_555
C19_12 C20_12 1_555 1_555
O3_12 C24_12 1_555 1_555
C25_12 C26_12 1_555 1_555
O6_12 C27_12 1_555 1_555
C8_13 C20_13 1_555 1_555
C9_13 C10_13 1_555 1_555
C10_13 H4_13 1_555 1_555
C18_13 C10_13 1_555 1_555
H10_13 C18_13 1_555 1_555
H11_13 C19_13 1_555 1_555
C21_13 C8_13 1_555 1_555
H12_13 C21_13 1_555 1_555
C22_13 C21_13 1_555 1_555
H13_13 C22_13 1_555 1_555
O3_13 H14_13 1_555 1_555
O8_7 C24_13 1_555 1_555
C23_13 C22_13 1_555 1_555
C24_13 C14_13 1_555 1_555
C25_13 C8_13 1_555 1_555
H15_13 C25_13 1_555 1_555
O9_8 C27_13 1_555 1_555
O6_13 H16_13 1_555 1_555
C26_13 C23_13 1_555 1_555
H17_13 C26_13 1_555 1_555
C27_13 C23_13 1_555 1_555
C14_13 C18_13 1_555 1_555
C19_13 C20_13 1_555 1_555
O3_13 C24_13 1_555 1_555
C25_13 C26_13 1_555 1_555
O6_13 C27_13 1_555 1_555
O7_8 C7_13 1_555 1_555
C1_13 C2_13 1_555 1_555
C2_13 H1_13 1_555 1_555
C3_13 C2_13 1_555 1_555
H2_13 C3_13 1_555 1_555
C4_13 C3_13 1_555 1_555
C5_13 H3_13 1_555 1_555
C6_13 C4_13 1_555 1_555
C7_13 C1_13 1_555 1_555
C11_13 C1_13 1_555 1_555
H5_13 C11_13 1_555 1_555
C12_13 C6_13 1_555 1_555
H6_13 C12_13 1_555 1_555
C13_13 C4_13 1_555 1_555
H7_13 C13_13 1_555 1_555
C16_13 H8_13 1_555 1_555
H9_13 C17_13 1_555 1_555
O2_13 C7_13 1_555 1_555
Li2_3 O2_13 1_555 1_555
C5_13 C6_13 1_555 1_555
C11_13 C13_13 1_555 1_555
C12_13 C15_13 1_555 1_555
C16_13 C17_13 1_555 1_555
O7_7 C7_14 1_555 1_555
C1_14 C2_14 1_555 1_555
C2_14 H1_14 1_555 1_555
C3_14 C2_14 1_555 1_555
H2_14 C3_14 1_555 1_555
C4_14 C3_14 1_555 1_555
C5_14 H3_14 1_555 1_555
C6_14 C4_14 1_555 1_555
C7_14 C1_14 1_555 1_555
C8_14 C20_14 1_555 1_555
C9_14 C10_14 1_555 1_555
C10_14 H4_14 1_555 1_555
C11_14 C1_14 1_555 1_555
H5_14 C11_14 1_555 1_555
C12_14 C6_14 1_555 1_555
H6_14 C12_14 1_555 1_555
C13_14 C4_14 1_555 1_555
H7_14 C13_14 1_555 1_555
C14_14 C16_14 1_555 1_555
C15_14 C9_14 1_555 1_555
C16_14 H8_14 1_555 1_555
C17_14 C9_14 1_555 1_555
H9_14 C17_14 1_555 1_555
C18_14 C10_14 1_555 1_555
H10_14 C18_14 1_555 1_555
C19_14 C15_14 1_555 1_555
H11_14 C19_14 1_555 1_555
C20_14 C5_14 1_555 1_555
C21_14 C8_14 1_555 1_555
H12_14 C21_14 1_555 1_555
O2_14 C7_14 1_555 1_555
C22_14 C21_14 1_555 1_555
H13_14 C22_14 1_555 1_555
O3_14 H14_14 1_555 1_555
O8_9 C24_14 1_555 1_555
C23_14 C22_14 1_555 1_555
C24_14 C14_14 1_555 1_555
C25_14 C8_14 1_555 1_555
H15_14 C25_14 1_555 1_555
O9_9 C27_14 1_555 1_555
O6_14 H16_14 1_555 1_555
C26_14 C23_14 1_555 1_555
H17_14 C26_14 1_555 1_555
C27_14 C23_14 1_555 1_555
Li2 O2_14 1_555 1_555
C5_14 C6_14 1_555 1_555
C11_14 C13_14 1_555 1_555
C12_14 C15_14 1_555 1_555
C14_14 C18_14 1_555 1_555
C16_14 C17_14 1_555 1_555
C19_14 C20_14 1_555 1_555
O3_14 C24_14 1_555 1_555
C25_14 C26_14 1_555 1_555
O6_14 C27_14 1_555 1_555
O7_9 C7_15 1_555 1_555
C1_15 C2_15 1_555 1_555
C2_15 H1_15 1_555 1_555
C3_15 C2_15 1_555 1_555
H2_15 C3_15 1_555 1_555
C4_15 C3_15 1_555 1_555
C5_15 H3_15 1_555 1_555
C6_15 C4_15 1_555 1_555
C7_15 C1_15 1_555 1_555
C11_15 C1_15 1_555 1_555
H5_15 C11_15 1_555 1_555
C12_15 C6_15 1_555 1_555
H6_15 C12_15 1_555 1_555
C13_15 C4_15 1_555 1_555
H7_15 C13_15 1_555 1_555
C16_15 H8_15 1_555 1_555
H9_15 C17_15 1_555 1_555
O2_15 C7_15 1_555 1_555
Li2_2 O2_15 1_555 1_555
C5_15 C6_15 1_555 1_555
C11_15 C13_15 1_555 1_555
C12_15 C15_15 1_555 1_555
C16_15 C17_15 1_555 1_555
C8_15 C20_15 1_555 1_555
C9_15 C10_15 1_555 1_555
C10_15 H4_15 1_555 1_555
C18_15 C10_15 1_555 1_555
H10_15 C18_15 1_555 1_555
H11_15 C19_15 1_555 1_555
C21_15 C8_15 1_555 1_555
H12_15 C21_15 1_555 1_555
C22_15 C21_15 1_555 1_555
H13_15 C22_15 1_555 1_555
O3_15 H14_15 1_555 1_555
O8_8 C24_15 1_555 1_555
C23_15 C22_15 1_555 1_555
C24_15 C14_15 1_555 1_555
C25_15 C8_15 1_555 1_555
H15_15 C25_15 1_555 1_555
O9_7 C27_15 1_555 1_555
O6_15 H16_15 1_555 1_555
C26_15 C23_15 1_555 1_555
H17_15 C26_15 1_555 1_555
C27_15 C23_15 1_555 1_555
C14_15 C18_15 1_555 1_555
C19_15 C20_15 1_555 1_555
O3_15 C24_15 1_555 1_555
C25_15 C26_15 1_555 1_555
O6_15 C27_15 1_555 1_555
C9_16 C10_16 1_555 1_555
C10_16 H4_16 1_555 1_555
C14_16 C16_16 1_555 1_555
C16_16 H8_16 1_555 1_555
C17_16 C9_16 1_555 1_555
H9_16 C17_16 1_555 1_555
C18_16 C10_16 1_555 1_555
H10_16 C18_16 1_555 1_555
O3_16 H14_16 1_555 1_555
O8 C24_16 1_555 1_555
C24_16 C14_16 1_555 1_555
C14_16 C18_16 1_555 1_555
C16_16 C17_16 1_555 1_555
O3_16 C24_16 1_555 1_555
H12_16 C21_16 1_555 1_555
C22_16 C21_16 1_555 1_555
H13_16 C22_16 1_555 1_555
C23_16 C22_16 1_555 1_555
O9_5 C27_16 1_555 1_555
O6_16 H16_16 1_555 1_555
C27_16 C23_16 1_555 1_555
O6_16 C27_16 1_555 1_555
O7_2 C7_16 1_555 1_555
C1_16 C2_16 1_555 1_555
C2_16 H1_16 1_555 1_555
C3_16 C2_16 1_555 1_555
H2_16 C3_16 1_555 1_555
C4_16 C3_16 1_555 1_555
C5_16 H3_16 1_555 1_555
C6_16 C4_16 1_555 1_555
C7_16 C1_16 1_555 1_555
C8_16 C20_16 1_555 1_555
C11_16 C1_16 1_555 1_555
H5_16 C11_16 1_555 1_555
C12_16 C6_16 1_555 1_555
H6_16 C12_16 1_555 1_555
C13_16 C4_16 1_555 1_555
H7_16 C13_16 1_555 1_555
C19_16 C15_16 1_555 1_555
C20_16 C5_16 1_555 1_555
O2_16 C7_16 1_555 1_555
C25_16 C8_16 1_555 1_555
H15_16 C25_16 1_555 1_555
H17_16 C26_16 1_555 1_555
C5_16 C6_16 1_555 1_555
C11_16 C13_16 1_555 1_555
C12_16 C15_16 1_555 1_555
C19_16 C20_16 1_555 1_555
C25_16 C26_16 1_555 1_555
H12_17 C21_17 1_555 1_555
C22_17 C21_17 1_555 1_555
H13_17 C22_17 1_555 1_555
C23_17 C22_17 1_555 1_555
O9_6 C27_17 1_555 1_555
O6_17 H16_17 1_555 1_555
C27_17 C23_17 1_555 1_555
O6_17 C27_17 1_555 1_555
O7 C7_17 1_555 1_555
C1_17 C2_17 1_555 1_555
C2_17 H1_17 1_555 1_555
C3_17 C2_17 1_555 1_555
H2_17 C3_17 1_555 1_555
C4_17 C3_17 1_555 1_555
C5_17 H3_17 1_555 1_555
C6_17 C4_17 1_555 1_555
C7_17 C1_17 1_555 1_555
C8_17 C20_17 1_555 1_555
C11_17 C1_17 1_555 1_555
H5_17 C11_17 1_555 1_555
C12_17 C6_17 1_555 1_555
H6_17 C12_17 1_555 1_555
C13_17 C4_17 1_555 1_555
H7_17 C13_17 1_555 1_555
C19_17 C15_17 1_555 1_555
C20_17 C5_17 1_555 1_555
O2_17 C7_17 1_555 1_555
C25_17 C8_17 1_555 1_555
H15_17 C25_17 1_555 1_555
H17_17 C26_17 1_555 1_555
Li4 O2_17 1_555 1_555
C5_17 C6_17 1_555 1_555
C11_17 C13_17 1_555 1_555
C12_17 C15_17 1_555 1_555
C19_17 C20_17 1_555 1_555
C25_17 C26_17 1_555 1_555
C9_17 C10_17 1_555 1_555
C10_17 H4_17 1_555 1_555
C14_17 C16_17 1_555 1_555
C16_17 H8_17 1_555 1_555
C17_17 C9_17 1_555 1_555
H9_17 C17_17 1_555 1_555
C18_17 C10_17 1_555 1_555
H10_17 C18_17 1_555 1_555
O3_17 H14_17 1_555 1_555
O8_3 C24_17 1_555 1_555
C24_17 C14_17 1_555 1_555
C14_17 C18_17 1_555 1_555
C16_17 C17_17 1_555 1_555
O3_17 C24_17 1_555 1_555
H12_18 C21_18 1_555 1_555
C22_18 C21_18 1_555 1_555
H13_18 C22_18 1_555 1_555
C23_18 C22_18 1_555 1_555
O9_4 C27_18 1_555 1_555
O6_18 H16_18 1_555 1_555
C27_18 C23_18 1_555 1_555
O6_18 C27_18 1_555 1_555
O7_3 C7_18 1_555 1_555
C1_18 C2_18 1_555 1_555
C2_18 H1_18 1_555 1_555
C3_18 C2_18 1_555 1_555
H2_18 C3_18 1_555 1_555
C4_18 C3_18 1_555 1_555
C5_18 H3_18 1_555 1_555
C6_18 C4_18 1_555 1_555
C7_18 C1_18 1_555 1_555
C8_18 C20_18 1_555 1_555
C9_18 C10_18 1_555 1_555
C10_18 H4_18 1_555 1_555
C11_18 C1_18 1_555 1_555
H5_18 C11_18 1_555 1_555
C12_18 C6_18 1_555 1_555
H6_18 C12_18 1_555 1_555
C13_18 C4_18 1_555 1_555
H7_18 C13_18 1_555 1_555
C14_18 C16_18 1_555 1_555
C15_18 C9_18 1_555 1_555
C16_18 H8_18 1_555 1_555
C17_18 C9_18 1_555 1_555
H9_18 C17_18 1_555 1_555
C18_18 C10_18 1_555 1_555
H10_18 C18_18 1_555 1_555
C19_18 C15_18 1_555 1_555
H11_18 C19_18 1_555 1_555
C20_18 C5_18 1_555 1_555
O2_18 C7_18 1_555 1_555
O3_18 H14_18 1_555 1_555
O8_2 C24_18 1_555 1_555
C24_18 C14_18 1_555 1_555
C25_18 C8_18 1_555 1_555
H15_18 C25_18 1_555 1_555
H17_18 C26_18 1_555 1_555
C5_18 C6_18 1_555 1_555
C11_18 C13_18 1_555 1_555
C12_18 C15_18 1_555 1_555
C14_18 C18_18 1_555 1_555
C16_18 C17_18 1_555 1_555
C19_18 C20_18 1_555 1_555
O3_18 C24_18 1_555 1_555
C25_18 C26_18 1_555 1_555

#END
