
###############################################################################
#
# This file contains modified crystal structure data generated from the
# MOF subset of the Cambridge Structural Database (CSD) v543 
# hosted by the Cambridge Crystallographic Data Centre (CCDC).
#
# This work is licensed under the Creative Commons
# Attribution-NonCommercial-ShareAlike 4.0 International License.
# To view a copy of this license, visit
# http://creativecommons.org/licenses/by-nc-sa/4.0/
# or send a letter to
# Creative Commons, PO Box 1866, Mountain View, CA 94042, USA.
#
# CIF created using the CSD Python API on 29 September 2022
# The structure has been converted into the P1 space group
# The structure has a 3D framework
# The original CSD entry POFHUQ is in the hexagonal crystal system
# The original CSD entry POFHUQ is in a Sohncke space group
# The framework has been calculated to contain at least 10.0% void space
# The void calculation uses a probe of radius 1.32A, grid spacing 0.4
#
###############################################################################

data_POFHUQ
_chemical_formula_moiety         '(C252 H216 N24 O48 Zn12)n'
_symmetry_cell_setting           triclinic
_symmetry_space_group_name_H-M   'P 1'
_symmetry_Int_Tables_number      1
_space_group_name_Hall           'P 1'
loop_
_symmetry_equiv_pos_site_id
_symmetry_equiv_pos_as_xyz
1 x,y,z
_cell_length_a                   12.1988(6)
_cell_length_b                   12.1988(6)
_cell_length_c                   49.197(4)
_cell_angle_alpha                90
_cell_angle_beta                 90
_cell_angle_gamma                120
_cell_volume                     6340.21
loop_
_atom_site_label
_atom_site_type_symbol
_atom_site_fract_x
_atom_site_fract_y
_atom_site_fract_z
O6 O 0.0538(15) 0.0321(17) 0.0356(7)
O7 O 0.276(3) 0.096(3) 0.0774(8)
O8 O 0.418(2) 0.194(3) 0.0476(5)
C29 C 0.0466(16) 0.512(2) 0.1423(6)
H27 H 0.0984 0.4813 0.1504
H28 H 0.0069 0.5340 0.1567
C30 C 0.2124(14) 0.6294(9) 0.1052(3)
H29 H 0.2219 0.5587 0.1034
C31 C 0.1305(12) 0.6310(12) 0.1246(3)
C32 C 0.1163(11) 0.7367(16) 0.1272(2)
H30 H 0.0615 0.7378 0.1402
C33 C 0.1840(11) 0.8408(11) 0.1103(3)
H31 H 0.1745 0.9115 0.1121
N4 N 0.2659(9) 0.8391(8) 0.0909(2)
C34 C 0.2800(11) 0.7334(11) 0.0883(2)
H32 H 0.3348 0.7323 0.0753
C35 C 0.0503(16) 0.1001(14) 0.0508(5)
C36 C 0.1469(7) 0.2252(7) 0.0514(3)
C37 C 0.1160(10) 0.3195(11) 0.0478(3)
H33 H 0.0318 0.2982 0.0458
C38 C 0.2111(15) 0.4458(9) 0.0470(3)
H34 H 0.1904 0.5089 0.0446
C39 C 0.3369(13) 0.4777(8) 0.0500(3)
H35 H 0.4005 0.5622 0.0495
C40 C 0.3678(7) 0.3833(12) 0.0536(3)
H36 H 0.4520 0.4047 0.0555
C41 C 0.2728(9) 0.2571(10) 0.0543(3)
C42 C 0.310(2) 0.154(3) 0.0567(6)
Zn5 Zn 0.37822(15) 0.99256(17) 0.06751(4)
H1 H 0.0146 0.8068 0.0516
H2 H 0.0016 0.6076 0.0508
O5 O 0.953(2) 0.0565(14) 0.0612(5)
N3 N 0.5319(7) 0.0730(8) 0.0931(2)
C22 C 0.6463(9) 0.0920(9) 0.08284(19)
H19 H 0.6491 0.0598 0.0659
C23 C 0.7566(7) 0.1590(9) 0.0980(3)
H20 H 0.8332 0.1717 0.0911
C24 C 0.7525(10) 0.2071(8) 0.1233(2)
C25 C 0.6381(13) 0.1881(10) 0.13355(18)
H21 H 0.6353 0.2203 0.1505
C26 C 0.5278(10) 0.1211(10) 0.1184(2)
H22 H 0.4512 0.1084 0.1253
C27 C 0.8674(16) 0.2895(14) 0.1402(4)
H23 H 0.9155 0.2471 0.1435
H24 H 0.8425 0.3077 0.1576
C28 C 0.9466(15) 0.4108(14) 0.1245(4)
H25 H 0.9868 0.3942 0.1093
H26 H 0.8920 0.4405 0.1173
Zn1 Zn 0.81371(13) 0.89284(13) 0.05465(3)
N1 N 0.8328(11) 0.7370(9) 0.0460(2)
O1 O 0.7267(11) 0.9192(11) 0.0245(3)
O2 O 0.5496(13) 0.7638(13) 0.0387(3)
O3 O 0.4536(12) 0.9555(13) 0.0365(3)
O4 O 0.2671(16) 0.807(3) 0.0239(4)
C1 C 0.9376(16) 0.7335(16) 0.0486(5)
C2 C 0.929(2) 0.612(2) 0.0466(5)
C3 C 0.8311(15) 0.5095(13) 0.0397(3)
C4 C 0.7340(14) 0.5211(14) 0.0368(3)
H3 H 0.6586 0.4488 0.0321
C5 C 0.7306(12) 0.6355(12) 0.0402(3)
H4 H 0.6551 0.6360 0.0381
C6 C 0.8294(19) 0.3878(17) 0.0389(5)
H5 H 0.7535 0.3225 0.0477
H6 H 0.9023 0.3953 0.0485
C7 C 0.832(2) 0.3532(15) 0.0102(4)
H7 H 0.9159 0.4086 0.0029
C8 C 0.798(2) 0.2081(14) 0.0061(4)
H9 H 0.8488 0.1905 0.0185
H10 H 0.7097 0.1530 0.0109
C14 C 0.6150(17) 0.8408(15) 0.0228(4)
C21 C 0.3878(17) 0.875(2) 0.0214(5)
N5 N 0.7387(13) 0.8589(9) 0.0927(2)
N1_2 N 0.0958(14) 0.8328(11) 0.2127(2)
C1_2 C 0.2041(23) 0.9376(16) 0.2153(5)
C2_2 C 0.317(3) 0.929(2) 0.2133(5)
C3_2 C 0.3216(20) 0.8311(15) 0.2064(3)
C4_2 C 0.2129(20) 0.7340(14) 0.2035(3)
H3_2 H 0.2098 0.6586 0.1988
C5_2 C 0.0951(17) 0.7306(12) 0.2069(3)
H4_2 H 0.0191 0.6551 0.2048
C6_2 C 0.4416(25) 0.8294(19) 0.2056(5)
H5_2 H 0.4310 0.7535 0.2144
H6_2 H 0.5070 0.9023 0.2152
C7_2 C 0.4788(25) 0.832(2) 0.1769(4)
H7_2 H 0.5073 0.9159 0.1696
H8 H 0.4052 0.7726 0.1666
C8_2 C 0.5899(24) 0.798(2) 0.1728(4)
H9_2 H 0.6583 0.8488 0.1852
H10_2 H 0.5567 0.7097 0.1776
C9 C 0.6397(21) 0.8174(16) 0.1457(3)
C10 C 0.5637(23) 0.7576(16) 0.1245(4)
H11 H 0.4777 0.7022 0.1270
C11 C 0.6188(22) 0.7814(16) 0.0975(3)
H12 H 0.5660 0.7393 0.0828
C12 C 0.8107(19) 0.9160(15) 0.1151(4)
H13 H 0.8966 0.9709 0.1123
C13 C 0.7679(17) 0.8996(12) 0.1407(4)
H14 H 0.8230 0.9424 0.1550
N2 N 0.8589(9) 0.1202(9) 0.9260(2)
H8_2 H 0.7726 0.3674 0.9999
C9_2 C 0.8174(16) 0.1777(13) 0.9790(3)
C10_2 C 0.7576(16) 0.1939(17) 0.9578(4)
H11_2 H 0.7022 0.2245 0.9603
C11_2 C 0.7814(16) 0.1626(15) 0.9308(3)
H12_2 H 0.7393 0.1733 0.9161
C12_2 C 0.9160(15) 0.1053(12) 0.9484(4)
H13_2 H 0.9709 0.0743 0.9456
C13_2 C 0.8996(12) 0.1317(12) 0.9740(4)
H14_2 H 0.9424 0.1194 0.9883
C15 C 0.5551(10) 0.8542(9) 0.9945(2)
C16 C 0.6076(11) 0.8434(12) 0.9703(3)
H15 H 0.6807 0.8375 0.9705
C17 C 0.5508(18) 0.8414(16) 0.9456(2)
H16 H 0.5859 0.8342 0.9294
C18 C 0.4416(18) 0.8503(15) 0.9452(3)
H17 H 0.4036 0.8490 0.9287
C19 C 0.3891(11) 0.8611(12) 0.9695(4)
H18 H 0.3160 0.8671 0.9692
C20 C 0.4459(10) 0.8631(10) 0.9941(3)
Zn3 Zn 0.89284(13) 0.07913(18) 0.88798(3)
Zn1_2 Zn 0.07913(18) 0.18629(13) 0.72132(3)
Zn2 Zn 0.61434(23) 0.62178(15) 0.73418(4)
O1_2 O 0.1925(16) 0.2733(11) 0.6912(3)
O2_2 O 0.2142(18) 0.4504(13) 0.7054(3)
O3_2 O 0.5019(18) 0.5464(12) 0.7032(3)
O4_2 O 0.5399(34) 0.7329(16) 0.6906(4)
O5_2 O 0.1035(24) 0.047(2) 0.7279(5)
C14_2 C 0.2258(23) 0.3850(17) 0.6895(4)
C15_2 C 0.2991(13) 0.4449(10) 0.6612(2)
C16_2 C 0.2358(16) 0.3924(11) 0.6370(3)
H15_2 H 0.1568 0.3193 0.6372
C17_2 C 0.2906(24) 0.4492(18) 0.6123(2)
H16_2 H 0.2483 0.4141 0.5961
C18_2 C 0.4087(23) 0.5584(18) 0.6119(3)
H17_2 H 0.4454 0.5964 0.5954
C19_2 C 0.4720(16) 0.6109(11) 0.6362(4)
H18_2 H 0.5511 0.6840 0.6359
C20_2 C 0.4172(14) 0.5541(10) 0.6608(3)
C21_2 C 0.4872(26) 0.6122(17) 0.6881(5)
N3_2 N 0.5411(11) 0.4681(7) 0.7598(2)
C22_2 C 0.4457(13) 0.3537(9) 0.74951(19)
H19_2 H 0.4107 0.3509 0.7326
C23_2 C 0.4024(11) 0.2434(7) 0.7647(3)
H20_2 H 0.3385 0.1668 0.7578
C24_2 C 0.4546(13) 0.2475(10) 0.7900(2)
C25_2 C 0.5500(16) 0.3619(13) 0.80022(18)
H21_2 H 0.5850 0.3647 0.8172
C26_2 C 0.5933(14) 0.4722(10) 0.7851(2)
H22_2 H 0.6572 0.5488 0.7920
C27_2 C 0.4221(21) 0.1326(16) 0.8069(4)
H23_2 H 0.3316 0.0845 0.8102
H24_2 H 0.4652 0.1575 0.8243
C28_2 C 0.4642(21) 0.0534(15) 0.7912(4)
H25_2 H 0.4074 0.0132 0.7760
H26_2 H 0.5485 0.1080 0.7840
N5_2 N 0.1202(16) 0.2613(13) 0.7593(2)
O9 O 0.820(4) 0.724(3) 0.7441(8)
O10 O 0.776(4) 0.582(2) 0.7143(5)
N6 N 0.5732(12) 0.7341(9) 0.7576(2)
C29_2 C 0.4654(26) 0.9534(16) 0.8090(6)
H27_2 H 0.3829 0.9016 0.8171
H28_2 H 0.5271 0.9931 0.8234
C30_2 C 0.4170(17) 0.7876(14) 0.7719(3)
H29_2 H 0.3368 0.7781 0.7701
C31_2 C 0.5005(17) 0.8695(12) 0.7913(3)
C32_2 C 0.6204(19) 0.8837(11) 0.7939(2)
H30_2 H 0.6763 0.9385 0.8069
C33_2 C 0.6568(16) 0.8160(11) 0.7770(3)
H31_2 H 0.7370 0.8255 0.7788
C34_2 C 0.4534(16) 0.7200(11) 0.7550(2)
H32_2 H 0.3975 0.6652 0.7420
C35_2 C 0.0498(21) 0.9497(16) 0.7175(5)
C36_2 C 0.0783(10) 0.8531(7) 0.7181(3)
C37_2 C 0.2035(15) 0.8840(10) 0.7145(3)
H33_2 H 0.2664 0.9682 0.7125
C38_2 C 0.2347(17) 0.7889(15) 0.7137(3)
H34_2 H 0.3185 0.8096 0.7113
C39_2 C 0.1408(15) 0.6631(13) 0.7167(3)
H35_2 H 0.1617 0.5995 0.7162
C40_2 C 0.0155(14) 0.6322(7) 0.7203(3)
O6_2 O 0.9783(23) 0.9462(15) 0.7023(7)
H1_2 H 0.7922 0.9854 0.7183
H2_2 H 0.6060 0.9984 0.7175
H36_2 H 0.9527 0.5480 0.7222
C41_2 C 0.9843(13) 0.7272(9) 0.7210(3)
C42_2 C 0.844(4) 0.690(2) 0.7234(6)
O5_3 O 0.0565(14) 0.1035(24) 0.8945(5)
N3_3 N 0.0730(8) 0.5411(11) 0.9264(2)
C22_3 C 0.0920(9) 0.4457(13) 0.91617(19)
H19_3 H 0.0598 0.4107 0.8992
C23_3 C 0.1590(9) 0.4024(11) 0.9313(3)
H20_3 H 0.1717 0.3385 0.9244
C24_3 C 0.2071(8) 0.4546(13) 0.9566(2)
C25_3 C 0.1881(10) 0.5500(16) 0.96688(18)
H21_3 H 0.2203 0.5850 0.9838
C26_3 C 0.1211(10) 0.5933(14) 0.9517(2)
H22_3 H 0.1084 0.6572 0.9586
C27_3 C 0.2895(14) 0.4221(21) 0.9735(4)
H23_3 H 0.2471 0.3316 0.9768
H24_3 H 0.3077 0.4652 0.9909
C28_3 C 0.4108(14) 0.4642(21) 0.9578(4)
H25_3 H 0.3942 0.4074 0.9426
H26_3 H 0.4405 0.5485 0.9506
C29_3 C 0.512(2) 0.4654(26) 0.9756(6)
H27_3 H 0.4813 0.3829 0.9837
H28_3 H 0.5340 0.5271 0.9900
C30_3 C 0.6294(9) 0.4170(17) 0.9385(3)
H29_3 H 0.5587 0.3368 0.9367
C31_3 C 0.6310(12) 0.5005(17) 0.9579(3)
C32_3 C 0.7367(16) 0.6204(19) 0.9605(2)
H30_3 H 0.7378 0.6763 0.9735
C33_3 C 0.8408(11) 0.6568(16) 0.9436(3)
H31_3 H 0.9115 0.7370 0.9454
N4_2 N 0.8391(8) 0.5732(12) 0.9242(2)
C34_3 C 0.7334(11) 0.4534(16) 0.9216(2)
H32_3 H 0.7323 0.3975 0.9086
C35_3 C 0.1001(14) 0.0498(21) 0.8841(5)
C36_3 C 0.2252(7) 0.0783(10) 0.8847(3)
C37_3 C 0.3195(11) 0.2035(15) 0.8811(3)
H33_3 H 0.2982 0.2664 0.8791
C38_3 C 0.4458(9) 0.2347(17) 0.8803(3)
H34_3 H 0.5089 0.3185 0.8779
C39_3 C 0.4777(8) 0.1408(15) 0.8833(3)
H35_3 H 0.5622 0.1617 0.8828
C40_3 C 0.3833(12) 0.0155(14) 0.8869(3)
Zn5_2 Zn 0.99256(17) 0.61434(23) 0.90084(4)
O9_2 O 0.096(3) 0.820(4) 0.9107(8)
O10_2 O 0.194(3) 0.776(4) 0.8809(5)
O6_3 O 0.0321(17) 0.9783(23) 0.8689(7)
H36_3 H 0.4047 0.9527 0.8888
C41_3 C 0.2571(10) 0.9843(13) 0.8876(3)
C42_3 C 0.154(3) 0.844(4) 0.8900(6)
O1_3 O 0.9192(11) 0.1925(16) 0.8578(3)
O2_3 O 0.7638(13) 0.2142(18) 0.8720(3)
O3_3 O 0.9555(13) 0.5019(18) 0.8698(3)
O4_3 O 0.807(3) 0.5399(34) 0.8572(4)
C14_3 C 0.8408(15) 0.2258(23) 0.8561(4)
C15_3 C 0.8542(9) 0.2991(13) 0.8278(2)
C16_3 C 0.8434(12) 0.2358(16) 0.8036(3)
H15_3 H 0.8375 0.1568 0.8038
C17_3 C 0.8414(16) 0.2906(24) 0.7789(2)
H16_3 H 0.8342 0.2483 0.7627
C18_3 C 0.8503(15) 0.4087(23) 0.7785(3)
H17_3 H 0.8490 0.4454 0.7620
C19_3 C 0.8611(12) 0.4720(16) 0.8028(4)
H18_3 H 0.8671 0.5511 0.8025
C20_3 C 0.8631(10) 0.4172(14) 0.8274(3)
C21_3 C 0.875(2) 0.4872(26) 0.8547(5)
N1_3 N 0.7370(9) 0.9042(14) 0.8793(2)
C1_3 C 0.7335(16) 0.7959(23) 0.8819(5)
H1_3 H 0.8068 0.7922 0.8849
C2_3 C 0.612(2) 0.683(3) 0.8799(5)
H2_3 H 0.6076 0.6060 0.8841
C3_3 C 0.5095(13) 0.6784(20) 0.8730(3)
C4_3 C 0.5211(14) 0.7871(20) 0.8701(3)
H3_3 H 0.4488 0.7902 0.8654
C5_3 C 0.6355(12) 0.9049(17) 0.8735(3)
H4_3 H 0.6360 0.9809 0.8714
C6_3 C 0.3878(17) 0.5584(25) 0.8722(5)
H5_3 H 0.3225 0.5690 0.8810
H6_3 H 0.3953 0.4930 0.8818
C7_3 C 0.3532(15) 0.5212(25) 0.8435(4)
H7_3 H 0.4086 0.4927 0.8362
H8_3 H 0.3674 0.5948 0.8332
C8_3 C 0.2081(14) 0.4101(24) 0.8394(4)
H9_3 H 0.1905 0.3417 0.8518
H10_3 H 0.1530 0.4433 0.8442
C9_3 C 0.1777(13) 0.3603(21) 0.8123(3)
C10_3 C 0.1939(17) 0.4363(23) 0.7911(4)
H11_3 H 0.2245 0.5223 0.7936
C11_3 C 0.1626(15) 0.3812(22) 0.7641(3)
H12_3 H 0.1733 0.4340 0.7494
C12_3 C 0.1053(12) 0.1893(19) 0.7817(4)
H13_3 H 0.0743 0.1034 0.7789
C13_3 C 0.1317(12) 0.2321(17) 0.8073(4)
H14_3 H 0.1194 0.1770 0.8216
O6_4 O 0.0217(23) 0.0538(15) 0.2023(7)
O7_2 O 0.180(4) 0.276(3) 0.2441(8)
O8_2 O 0.224(4) 0.418(2) 0.2143(5)
H1_4 H 0.2078 0.0146 0.2183
H2_4 H 0.3940 0.0016 0.2175
H36_4 H 0.0473 0.4520 0.2222
C41_4 C 0.0157(13) 0.2728(9) 0.2210(3)
C42_4 C 0.156(4) 0.310(2) 0.2234(6)
Zn4 Zn 0.38566(23) 0.37822(15) 0.23418(4)
C29_4 C 0.5346(26) 0.0466(16) 0.3090(6)
H27_4 H 0.6171 0.0984 0.3171
H28_4 H 0.4729 0.0069 0.3234
C30_4 C 0.5830(17) 0.2124(14) 0.2719(3)
H29_4 H 0.6632 0.2219 0.2701
C31_4 C 0.4995(17) 0.1305(12) 0.2913(3)
C32_4 C 0.3796(19) 0.1163(11) 0.2939(2)
H30_4 H 0.3237 0.0615 0.3069
C33_4 C 0.3432(16) 0.1840(11) 0.2770(3)
H31_4 H 0.2630 0.1745 0.2788
N4_3 N 0.4268(12) 0.2659(9) 0.2576(2)
C34_4 C 0.5466(16) 0.2800(11) 0.2550(2)
H32_4 H 0.6025 0.3348 0.2420
C35_4 C 0.9502(21) 0.0503(16) 0.2175(5)
C36_4 C 0.9217(10) 0.1469(7) 0.2181(3)
C37_4 C 0.7965(15) 0.1160(10) 0.2145(3)
H33_4 H 0.7336 0.0318 0.2125
C38_4 C 0.7653(17) 0.2111(15) 0.2137(3)
H34_4 H 0.6815 0.1904 0.2113
C39_4 C 0.8592(15) 0.3369(13) 0.2167(3)
H35_4 H 0.8383 0.4005 0.2162
C40_4 C 0.9845(14) 0.3678(7) 0.2203(3)
Zn1_3 Zn 0.92087(18) 0.81371(13) 0.22132(3)
O1_4 O 0.8075(16) 0.7267(11) 0.1912(3)
O2_4 O 0.7858(18) 0.5496(13) 0.2054(3)
O3_4 O 0.4981(18) 0.4536(12) 0.2032(3)
O4_4 O 0.4601(34) 0.2671(16) 0.1906(4)
O5_4 O 0.8965(24) 0.953(2) 0.2279(5)
C14_4 C 0.7742(23) 0.6150(17) 0.1895(4)
C15_4 C 0.7009(13) 0.5551(10) 0.1612(2)
C16_4 C 0.7642(16) 0.6076(11) 0.1370(3)
H15_4 H 0.8432 0.6807 0.1372
C17_4 C 0.7094(24) 0.5508(18) 0.1123(2)
H16_4 H 0.7517 0.5859 0.0961
C18_4 C 0.5913(23) 0.4416(18) 0.1119(3)
H17_4 H 0.5546 0.4036 0.0954
C19_4 C 0.5280(16) 0.3891(11) 0.1362(4)
H18_4 H 0.4489 0.3160 0.1359
C20_4 C 0.5828(14) 0.4459(10) 0.1608(3)
C21_4 C 0.5128(26) 0.3878(17) 0.1881(5)
N3_4 N 0.4589(11) 0.5319(7) 0.2598(2)
C22_4 C 0.5543(13) 0.6463(9) 0.24951(19)
H19_4 H 0.5893 0.6491 0.2326
C23_4 C 0.5976(11) 0.7566(7) 0.2647(3)
H20_4 H 0.6615 0.8332 0.2578
C24_4 C 0.5454(13) 0.7525(10) 0.2900(2)
C25_4 C 0.4500(16) 0.6381(13) 0.30022(18)
H21_4 H 0.4150 0.6353 0.3172
C26_4 C 0.4067(14) 0.5278(10) 0.2851(2)
H22_4 H 0.3428 0.4512 0.2920
C27_4 C 0.5779(21) 0.8674(16) 0.3069(4)
H23_4 H 0.6684 0.9155 0.3102
H24_4 H 0.5348 0.8425 0.3243
C28_4 C 0.5358(21) 0.9466(15) 0.2912(4)
H25_4 H 0.5926 0.9868 0.2760
H26_4 H 0.4515 0.8920 0.2840
N5_3 N 0.8798(16) 0.7387(13) 0.2593(2)
N1_4 N 0.2630(9) 0.0958(14) 0.3793(2)
C1_4 C 0.2665(16) 0.2041(23) 0.3819(5)
H1_5 H 0.1932 0.2078 0.3849
C2_4 C 0.388(2) 0.317(3) 0.3799(5)
H2_5 H 0.3924 0.3940 0.3841
C3_4 C 0.4905(13) 0.3216(20) 0.3730(3)
C4_4 C 0.4789(14) 0.2129(20) 0.3701(3)
H3_4 H 0.5512 0.2098 0.3654
C5_4 C 0.3645(12) 0.0951(17) 0.3735(3)
H4_4 H 0.3640 0.0191 0.3714
C6_4 C 0.6122(17) 0.4416(25) 0.3722(5)
H5_4 H 0.6775 0.4310 0.3810
H6_4 H 0.6047 0.5070 0.3818
C7_4 C 0.6468(15) 0.4788(25) 0.3435(4)
H7_4 H 0.5914 0.5073 0.3362
H8_4 H 0.6326 0.4052 0.3332
C8_4 C 0.7919(14) 0.5899(24) 0.3394(4)
H9_4 H 0.8095 0.6583 0.3518
H10_4 H 0.8470 0.5567 0.3442
C9_4 C 0.8223(13) 0.6397(21) 0.3123(3)
C10_4 C 0.8061(17) 0.5637(23) 0.2911(4)
H11_4 H 0.7755 0.4777 0.2936
C11_4 C 0.8374(15) 0.6188(22) 0.2641(3)
H12_4 H 0.8267 0.5660 0.2494
C12_4 C 0.8947(12) 0.8107(19) 0.2817(4)
H13_4 H 0.9257 0.8966 0.2789
C13_4 C 0.8683(12) 0.7679(17) 0.3073(4)
H14_4 H 0.8806 0.8230 0.3216
Zn4_2 Zn 0.00744(17) 0.38566(23) 0.40084(4)
Zn1_4 Zn 0.10716(13) 0.92087(18) 0.38798(3)
O1_5 O 0.0808(11) 0.8075(16) 0.3578(3)
O2_5 O 0.2362(13) 0.7858(18) 0.3720(3)
O3_5 O 0.0445(13) 0.4981(18) 0.3698(3)
O4_5 O 0.193(3) 0.4601(34) 0.3572(4)
C14_5 C 0.1592(15) 0.7742(23) 0.3561(4)
C15_5 C 0.1458(9) 0.7009(13) 0.3278(2)
C16_5 C 0.1566(12) 0.7642(16) 0.3036(3)
H15_5 H 0.1625 0.8432 0.3038
C17_5 C 0.1586(16) 0.7094(24) 0.2789(2)
H16_5 H 0.1658 0.7517 0.2627
C18_5 C 0.1497(15) 0.5913(23) 0.2785(3)
H17_5 H 0.1510 0.5546 0.2620
C19_5 C 0.1389(12) 0.5280(16) 0.3028(4)
H18_5 H 0.1329 0.4489 0.3025
C20_5 C 0.1369(10) 0.5828(14) 0.3274(3)
C21_5 C 0.125(2) 0.5128(26) 0.3547(5)
N5_4 N 0.1411(9) 0.8798(16) 0.4260(2)
N6_2 N 0.1609(8) 0.4268(12) 0.4242(2)
O6_5 O 0.9679(17) 0.0217(23) 0.3689(7)
O7_3 O 0.904(3) 0.180(4) 0.4107(8)
O8_3 O 0.806(3) 0.224(4) 0.3809(5)
H36_5 H 0.5953 0.0473 0.3888
C41_5 C 0.7429(10) 0.0157(13) 0.3876(3)
C42_5 C 0.846(3) 0.156(4) 0.3900(6)
O5_5 O 0.9435(14) 0.8965(24) 0.3945(5)
N3_5 N 0.9270(8) 0.4589(11) 0.4264(2)
C22_5 C 0.9080(9) 0.5543(13) 0.41617(19)
H19_5 H 0.9402 0.5893 0.3992
C23_5 C 0.8410(9) 0.5976(11) 0.4313(3)
H20_5 H 0.8283 0.6615 0.4244
C24_5 C 0.7929(8) 0.5454(13) 0.4566(2)
C25_5 C 0.8119(10) 0.4500(16) 0.46688(18)
H21_5 H 0.7797 0.4150 0.4838
C26_5 C 0.8789(10) 0.4067(14) 0.4517(2)
H22_5 H 0.8916 0.3428 0.4586
C27_5 C 0.7105(14) 0.5779(21) 0.4735(4)
H23_5 H 0.7529 0.6684 0.4768
H24_5 H 0.6923 0.5348 0.4909
C28_5 C 0.5892(14) 0.5358(21) 0.4578(4)
H25_5 H 0.6058 0.5926 0.4426
H26_5 H 0.5595 0.4515 0.4506
C29_5 C 0.488(2) 0.5346(26) 0.4756(6)
H27_5 H 0.5187 0.6171 0.4837
H28_5 H 0.4660 0.4729 0.4900
C30_5 C 0.3706(9) 0.5830(17) 0.4385(3)
H29_5 H 0.4413 0.6632 0.4367
C31_5 C 0.3690(12) 0.4995(17) 0.4579(3)
C32_5 C 0.2633(16) 0.3796(19) 0.4605(2)
H30_5 H 0.2622 0.3237 0.4735
C33_5 C 0.1592(11) 0.3432(16) 0.4436(3)
H31_5 H 0.0885 0.2630 0.4454
C34_5 C 0.2666(11) 0.5466(16) 0.4216(2)
H32_5 H 0.2677 0.6025 0.4086
C35_5 C 0.8999(14) 0.9502(21) 0.3841(5)
C36_5 C 0.7748(7) 0.9217(10) 0.3847(3)
C37_5 C 0.6805(11) 0.7965(15) 0.3811(3)
H33_5 H 0.7018 0.7336 0.3791
C38_5 C 0.5542(9) 0.7653(17) 0.3803(3)
H34_5 H 0.4911 0.6815 0.3779
C39_5 C 0.5223(8) 0.8592(15) 0.3833(3)
H35_5 H 0.4378 0.8383 0.3828
C40_5 C 0.6167(12) 0.9845(14) 0.3869(3)
Zn1_5 Zn 0.18629(13) 0.10716(13) 0.55465(3)
Zn2_2 Zn 0.62178(15) 0.00744(17) 0.56751(4)
N1_5 N 0.1672(11) 0.2630(9) 0.5460(2)
O1_6 O 0.2733(11) 0.0808(11) 0.5245(3)
O2_6 O 0.4504(13) 0.2362(13) 0.5387(3)
O3_6 O 0.5464(12) 0.0445(13) 0.5365(3)
O4_6 O 0.7329(16) 0.193(3) 0.5239(4)
C1_5 C 0.0624(16) 0.2665(16) 0.5486(5)
C2_5 C 0.071(2) 0.388(2) 0.5466(5)
C3_5 C 0.1689(15) 0.4905(13) 0.5397(3)
C4_5 C 0.2660(14) 0.4789(14) 0.5368(3)
H3_5 H 0.3414 0.5512 0.5321
C5_5 C 0.2694(12) 0.3645(12) 0.5402(3)
H4_5 H 0.3449 0.3640 0.5381
C6_5 C 0.1706(19) 0.6122(17) 0.5389(5)
H5_5 H 0.2465 0.6775 0.5477
H6_5 H 0.0977 0.6047 0.5485
C7_5 C 0.168(2) 0.6468(15) 0.5102(4)
H7_5 H 0.0841 0.5914 0.5029
H8_5 H 0.2274 0.6326 0.4999
C8_5 C 0.202(2) 0.7919(14) 0.5061(4)
H9_5 H 0.1512 0.8095 0.5185
H10_5 H 0.2903 0.8470 0.5109
C9_5 C 0.1826(16) 0.8223(13) 0.4790(3)
C10_5 C 0.2424(16) 0.8061(17) 0.4578(4)
H11_5 H 0.2978 0.7755 0.4603
C11_5 C 0.2186(16) 0.8374(15) 0.4308(3)
H12_5 H 0.2607 0.8267 0.4161
C12_5 C 0.0840(15) 0.8947(12) 0.4484(4)
H13_5 H 0.0291 0.9257 0.4456
C13_5 C 0.1004(12) 0.8683(12) 0.4740(4)
H14_5 H 0.0576 0.8806 0.4883
C14_6 C 0.3850(17) 0.1592(15) 0.5228(4)
C15_6 C 0.4449(10) 0.1458(9) 0.4945(2)
C16_6 C 0.3924(11) 0.1566(12) 0.4703(3)
H15_6 H 0.3193 0.1625 0.4705
C17_6 C 0.4492(18) 0.1586(16) 0.4456(2)
H16_6 H 0.4141 0.1658 0.4294
C18_6 C 0.5584(18) 0.1497(15) 0.4452(3)
H17_6 H 0.5964 0.1510 0.4287
C19_6 C 0.6109(11) 0.1389(12) 0.4695(4)
H18_6 H 0.6840 0.1329 0.4692
C20_6 C 0.5541(10) 0.1369(10) 0.4941(3)
C21_6 C 0.6122(17) 0.125(2) 0.5214(5)
N5_5 N 0.2613(13) 0.1411(9) 0.5927(2)
N6_3 N 0.7341(9) 0.1609(8) 0.5909(2)
O5_6 O 0.047(2) 0.9435(14) 0.5612(5)
N3_6 N 0.4681(7) 0.9270(8) 0.5931(2)
C22_6 C 0.3537(9) 0.9080(9) 0.58284(19)
H19_6 H 0.3509 0.9402 0.5659
C23_6 C 0.2434(7) 0.8410(9) 0.5980(3)
H20_6 H 0.1668 0.8283 0.5911
C24_6 C 0.2475(10) 0.7929(8) 0.6233(2)
C25_6 C 0.3619(13) 0.8119(10) 0.63355(18)
H21_6 H 0.3647 0.7797 0.6505
C26_6 C 0.4722(10) 0.8789(10) 0.6184(2)
H22_6 H 0.5488 0.8916 0.6253
C27_6 C 0.1326(16) 0.7105(14) 0.6402(4)
H23_6 H 0.0845 0.7529 0.6435
H24_6 H 0.1575 0.6923 0.6576
C28_6 C 0.0534(15) 0.5892(14) 0.6245(4)
H25_6 H 0.0132 0.6058 0.6093
H26_6 H 0.1080 0.5595 0.6173
O9_3 O 0.724(3) 0.904(3) 0.5774(8)
O10_3 O 0.582(2) 0.806(3) 0.5476(5)
H1_6 H 0.9854 0.1932 0.5516
H2_6 H 0.9984 0.3924 0.5508
O6_6 O 0.9462(15) 0.9679(17) 0.5356(7)
C29_6 C 0.9534(16) 0.488(2) 0.6423(6)
H27_6 H 0.9016 0.5187 0.6504
H28_6 H 0.9931 0.4660 0.6567
C30_6 C 0.7876(14) 0.3706(9) 0.6052(3)
H29_6 H 0.7781 0.4413 0.6034
C31_6 C 0.8695(12) 0.3690(12) 0.6246(3)
C32_6 C 0.8837(11) 0.2633(16) 0.6272(2)
H30_6 H 0.9385 0.2622 0.6402
C33_6 C 0.8160(11) 0.1592(11) 0.6103(3)
H31_6 H 0.8255 0.0885 0.6121
C34_6 C 0.7200(11) 0.2666(11) 0.5883(2)
H32_6 H 0.6652 0.2677 0.5753
C35_6 C 0.9497(16) 0.8999(14) 0.5508(5)
C36_6 C 0.8531(7) 0.7748(7) 0.5514(3)
C37_6 C 0.8840(10) 0.6805(11) 0.5478(3)
H33_6 H 0.9682 0.7018 0.5458
C38_6 C 0.7889(15) 0.5542(9) 0.5470(3)
H34_6 H 0.8096 0.4911 0.5446
C39_6 C 0.6631(13) 0.5223(8) 0.5500(3)
H35_6 H 0.5995 0.4378 0.5495
C40_6 C 0.6322(7) 0.6167(12) 0.5536(3)
H36_6 H 0.5480 0.5953 0.5555
C41_6 C 0.7272(9) 0.7429(10) 0.5543(3)
C42_6 C 0.690(2) 0.846(3) 0.5567(6)
N1_6 N 0.9042(14) 0.1672(11) 0.7127(2)
C1_6 C 0.7959(23) 0.0624(16) 0.7153(5)
C2_6 C 0.683(3) 0.071(2) 0.7133(5)
C3_6 C 0.6784(20) 0.1689(15) 0.7064(3)
C4_6 C 0.7871(20) 0.2660(14) 0.7035(3)
H3_6 H 0.7902 0.3414 0.6988
C5_6 C 0.9049(17) 0.2694(12) 0.7069(3)
H4_6 H 0.9809 0.3449 0.7048
C6_6 C 0.5584(25) 0.1706(19) 0.7056(5)
H5_6 H 0.5690 0.2465 0.7144
H6_6 H 0.4930 0.0977 0.7152
C7_6 C 0.5212(25) 0.168(2) 0.6769(4)
H7_6 H 0.4927 0.0841 0.6696
H8_6 H 0.5948 0.2274 0.6666
C8_6 C 0.4101(24) 0.202(2) 0.6728(4)
H9_6 H 0.3417 0.1512 0.6852
H10_6 H 0.4433 0.2903 0.6776
C9_6 C 0.3603(21) 0.1826(16) 0.6457(3)
C10_6 C 0.4363(23) 0.2424(16) 0.6245(4)
H11_6 H 0.5223 0.2978 0.6270
C11_6 C 0.3812(22) 0.2186(16) 0.5975(3)
H12_6 H 0.4340 0.2607 0.5828
C12_6 C 0.1893(19) 0.0840(15) 0.6151(4)
H13_6 H 0.1034 0.0291 0.6123
C13_6 C 0.2321(17) 0.1004(12) 0.6407(4)
H14_6 H 0.1770 0.0576 0.6550
loop_
_geom_bond_atom_site_label_1
_geom_bond_atom_site_label_2
_geom_bond_site_symmetry_1
_geom_bond_site_symmetry_2
O6 C35 1_555 1_555
O7 C42 1_555 1_555
O8 C42 1_555 1_555
H27 C29 1_555 1_555
H28 C29 1_555 1_555
C30 H29 1_555 1_555
C31 C29 1_555 1_555
C32 C31 1_555 1_555
H30 C32 1_555 1_555
C33 C32 1_555 1_555
H31 C33 1_555 1_555
N4 C33 1_555 1_555
C34 C30 1_555 1_555
H32 C34 1_555 1_555
C36 C35 1_555 1_555
C37 C36 1_555 1_555
H33 C37 1_555 1_555
C38 C37 1_555 1_555
H34 C38 1_555 1_555
C39 C38 1_555 1_555
H35 C39 1_555 1_555
C40 C39 1_555 1_555
H36 C40 1_555 1_555
C41 C36 1_555 1_555
C42 C41 1_555 1_555
Zn5 N4 1_555 1_555
C30 C31 1_555 1_555
N4 C34 1_555 1_555
C40 C41 1_555 1_555
C22 N3 1_555 1_555
H19 C22 1_555 1_555
C23 C22 1_555 1_555
H20 C23 1_555 1_555
C24 C23 1_555 1_555
C25 C24 1_555 1_555
H21 C25 1_555 1_555
C26 N3 1_555 1_555
H22 C26 1_555 1_555
C27 C24 1_555 1_555
H23 C27 1_555 1_555
H24 C27 1_555 1_555
C28 C27 1_555 1_555
H25 C28 1_555 1_555
H26 C28 1_555 1_555
C25 C26 1_555 1_555
Zn1 N1 1_555 1_555
Zn5 O3 1_555 1_555
N1 C1 1_555 1_555
O1 Zn1 1_555 1_555
O2 C14 1_555 1_555
O3 C21 1_555 1_555
O4 C21 1_555 1_555
C2 C1 1_555 1_555
C3 C2 1_555 1_555
C4 C3 1_555 1_555
H3 C4 1_555 1_555
C5 N1 1_555 1_555
H4 C5 1_555 1_555
C6 C3 1_555 1_555
H5 C6 1_555 1_555
H6 C6 1_555 1_555
C7 C6 1_555 1_555
H7 C7 1_555 1_555
C8 C7 1_555 1_555
H9 C8 1_555 1_555
H10 C8 1_555 1_555
C14 O1 1_555 1_555
N5 Zn1 1_555 1_555
C4 C5 1_555 1_555
N1_2 C1_2 1_555 1_555
N5 C11 1_555 1_555
C2_2 C1_2 1_555 1_555
C3_2 C2_2 1_555 1_555
C4_2 C3_2 1_555 1_555
H3_2 C4_2 1_555 1_555
C5_2 N1_2 1_555 1_555
H4_2 C5_2 1_555 1_555
C6_2 C3_2 1_555 1_555
H5_2 C6_2 1_555 1_555
H6_2 C6_2 1_555 1_555
C7_2 C6_2 1_555 1_555
H7_2 C7_2 1_555 1_555
H8 C7_2 1_555 1_555
C8_2 C7_2 1_555 1_555
H9_2 C8_2 1_555 1_555
H10_2 C8_2 1_555 1_555
C9 C8_2 1_555 1_555
C10 C9 1_555 1_555
H11 C10 1_555 1_555
C11 C10 1_555 1_555
H12 C11 1_555 1_555
C12 N5 1_555 1_555
H13 C12 1_555 1_555
C13 C9 1_555 1_555
H14 C13 1_555 1_555
C4_2 C5_2 1_555 1_555
C12 C13 1_555 1_555
N2 C11_2 1_555 1_555
C10_2 C9_2 1_555 1_555
H11_2 C10_2 1_555 1_555
C11_2 C10_2 1_555 1_555
H12_2 C11_2 1_555 1_555
C12_2 N2 1_555 1_555
H13_2 C12_2 1_555 1_555
C13_2 C9_2 1_555 1_555
H14_2 C13_2 1_555 1_555
C16 C15 1_555 1_555
H15 C16 1_555 1_555
C17 C16 1_555 1_555
H16 C17 1_555 1_555
C18 C17 1_555 1_555
H17 C18 1_555 1_555
C19 C18 1_555 1_555
H18 C19 1_555 1_555
C20 C15 1_555 1_555
Zn3 N2 1_555 1_555
C12_2 C13_2 1_555 1_555
C19 C20 1_555 1_555
Zn2 O3_2 1_555 1_555
O1_2 Zn1_2 1_555 1_555
O2_2 C14_2 1_555 1_555
O3_2 C21_2 1_555 1_555
O4_2 C21_2 1_555 1_555
O5_2 Zn1_2 1_555 1_555
C14_2 O1_2 1_555 1_555
C15_2 C14_2 1_555 1_555
C16_2 C15_2 1_555 1_555
H15_2 C16_2 1_555 1_555
C17_2 C16_2 1_555 1_555
H16_2 C17_2 1_555 1_555
C18_2 C17_2 1_555 1_555
H17_2 C18_2 1_555 1_555
C19_2 C18_2 1_555 1_555
H18_2 C19_2 1_555 1_555
C20_2 C15_2 1_555 1_555
C21_2 C20_2 1_555 1_555
N3_2 Zn2 1_555 1_555
C22_2 N3_2 1_555 1_555
H19_2 C22_2 1_555 1_555
C23_2 C22_2 1_555 1_555
H20_2 C23_2 1_555 1_555
C24_2 C23_2 1_555 1_555
C25_2 C24_2 1_555 1_555
H21_2 C25_2 1_555 1_555
C26_2 N3_2 1_555 1_555
H22_2 C26_2 1_555 1_555
C27_2 C24_2 1_555 1_555
H23_2 C27_2 1_555 1_555
H24_2 C27_2 1_555 1_555
C28_2 C27_2 1_555 1_555
H25_2 C28_2 1_555 1_555
H26_2 C28_2 1_555 1_555
N5_2 Zn1_2 1_555 1_555
O9 Zn2 1_555 1_555
O10 Zn2 1_555 1_555
N6 Zn2 1_555 1_555
C19_2 C20_2 1_555 1_555
C25_2 C26_2 1_555 1_555
H27_2 C29_2 1_555 1_555
H28_2 C29_2 1_555 1_555
C30_2 H29_2 1_555 1_555
C31_2 C29_2 1_555 1_555
C32_2 C31_2 1_555 1_555
H30_2 C32_2 1_555 1_555
C33_2 C32_2 1_555 1_555
H31_2 C33_2 1_555 1_555
N6 C33_2 1_555 1_555
C34_2 C30_2 1_555 1_555
H32_2 C34_2 1_555 1_555
C36_2 C35_2 1_555 1_555
C37_2 C36_2 1_555 1_555
H33_2 C37_2 1_555 1_555
C38_2 C37_2 1_555 1_555
H34_2 C38_2 1_555 1_555
C39_2 C38_2 1_555 1_555
H35_2 C39_2 1_555 1_555
C40_2 C39_2 1_555 1_555
C30_2 C31_2 1_555 1_555
N6 C34_2 1_555 1_555
O9 C42_2 1_555 1_555
O10 C42_2 1_555 1_555
C42_2 C41_2 1_555 1_555
C22_3 N3_3 1_555 1_555
H19_3 C22_3 1_555 1_555
C23_3 C22_3 1_555 1_555
H20_3 C23_3 1_555 1_555
C24_3 C23_3 1_555 1_555
C25_3 C24_3 1_555 1_555
H21_3 C25_3 1_555 1_555
C26_3 N3_3 1_555 1_555
H22_3 C26_3 1_555 1_555
C27_3 C24_3 1_555 1_555
H23_3 C27_3 1_555 1_555
H24_3 C27_3 1_555 1_555
C28_3 C27_3 1_555 1_555
H25_3 C28_3 1_555 1_555
H26_3 C28_3 1_555 1_555
C29_3 C28_3 1_555 1_555
H27_3 C29_3 1_555 1_555
H28_3 C29_3 1_555 1_555
C30_3 H29_3 1_555 1_555
C31_3 C29_3 1_555 1_555
C32_3 C31_3 1_555 1_555
H30_3 C32_3 1_555 1_555
C33_3 C32_3 1_555 1_555
H31_3 C33_3 1_555 1_555
N4_2 C33_3 1_555 1_555
C34_3 C30_3 1_555 1_555
H32_3 C34_3 1_555 1_555
C35_3 O5_3 1_555 1_555
C36_3 C35_3 1_555 1_555
C37_3 C36_3 1_555 1_555
H33_3 C37_3 1_555 1_555
C38_3 C37_3 1_555 1_555
H34_3 C38_3 1_555 1_555
C39_3 C38_3 1_555 1_555
H35_3 C39_3 1_555 1_555
C40_3 C39_3 1_555 1_555
Zn5_2 N4_2 1_555 1_555
C25_3 C26_3 1_555 1_555
C30_3 C31_3 1_555 1_555
N4_2 C34_3 1_555 1_555
O9_2 C42_3 1_555 1_555
O10_2 C42_3 1_555 1_555
C42_3 C41_3 1_555 1_555
Zn5_2 O3_3 1_555 1_555
O1_3 Zn3 1_555 1_555
O2_3 C14_3 1_555 1_555
O3_3 C21_3 1_555 1_555
O4_3 C21_3 1_555 1_555
C14_3 O1_3 1_555 1_555
C15_3 C14_3 1_555 1_555
C16_3 C15_3 1_555 1_555
H15_3 C16_3 1_555 1_555
C17_3 C16_3 1_555 1_555
H16_3 C17_3 1_555 1_555
C18_3 C17_3 1_555 1_555
H17_3 C18_3 1_555 1_555
C19_3 C18_3 1_555 1_555
H18_3 C19_3 1_555 1_555
C20_3 C15_3 1_555 1_555
C21_3 C20_3 1_555 1_555
C19_3 C20_3 1_555 1_555
N1_3 C1_3 1_555 1_555
N5_2 C11_3 1_555 1_555
C1_3 H1_3 1_555 1_555
C2_3 C1_3 1_555 1_555
H2_3 C2_3 1_555 1_555
C3_3 C2_3 1_555 1_555
C4_3 C3_3 1_555 1_555
H3_3 C4_3 1_555 1_555
C5_3 N1_3 1_555 1_555
H4_3 C5_3 1_555 1_555
C6_3 C3_3 1_555 1_555
H5_3 C6_3 1_555 1_555
H6_3 C6_3 1_555 1_555
C7_3 C6_3 1_555 1_555
H7_3 C7_3 1_555 1_555
H8_3 C7_3 1_555 1_555
C8_3 C7_3 1_555 1_555
H9_3 C8_3 1_555 1_555
H10_3 C8_3 1_555 1_555
C9_3 C8_3 1_555 1_555
C10_3 C9_3 1_555 1_555
H11_3 C10_3 1_555 1_555
C11_3 C10_3 1_555 1_555
H12_3 C11_3 1_555 1_555
C12_3 N5_2 1_555 1_555
H13_3 C12_3 1_555 1_555
C13_3 C9_3 1_555 1_555
H14_3 C13_3 1_555 1_555
C4_3 C5_3 1_555 1_555
C12_3 C13_3 1_555 1_555
O7_2 C42_4 1_555 1_555
O8_2 C42_4 1_555 1_555
C42_4 C41_4 1_555 1_555
Zn4 O7_2 1_555 1_555
O8_2 Zn4 1_555 1_555
H27_4 C29_4 1_555 1_555
H28_4 C29_4 1_555 1_555
C30_4 H29_4 1_555 1_555
C31_4 C29_4 1_555 1_555
C32_4 C31_4 1_555 1_555
H30_4 C32_4 1_555 1_555
C33_4 C32_4 1_555 1_555
H31_4 C33_4 1_555 1_555
N4_3 C33_4 1_555 1_555
C34_4 C30_4 1_555 1_555
H32_4 C34_4 1_555 1_555
C36_4 C35_4 1_555 1_555
C37_4 C36_4 1_555 1_555
H33_4 C37_4 1_555 1_555
C38_4 C37_4 1_555 1_555
H34_4 C38_4 1_555 1_555
C39_4 C38_4 1_555 1_555
H35_4 C39_4 1_555 1_555
C40_4 C39_4 1_555 1_555
Zn4 N4_3 1_555 1_555
C30_4 C31_4 1_555 1_555
N4_3 C34_4 1_555 1_555
Zn4 O3_4 1_555 1_555
O1_4 Zn1_3 1_555 1_555
O2_4 C14_4 1_555 1_555
O3_4 C21_4 1_555 1_555
O4_4 C21_4 1_555 1_555
O5_4 Zn1_3 1_555 1_555
C14_4 O1_4 1_555 1_555
C15_4 C14_4 1_555 1_555
C16_4 C15_4 1_555 1_555
H15_4 C16_4 1_555 1_555
C17_4 C16_4 1_555 1_555
H16_4 C17_4 1_555 1_555
C18_4 C17_4 1_555 1_555
H17_4 C18_4 1_555 1_555
C19_4 C18_4 1_555 1_555
H18_4 C19_4 1_555 1_555
C20_4 C15_4 1_555 1_555
C21_4 C20_4 1_555 1_555
N3_4 Zn4 1_555 1_555
C22_4 N3_4 1_555 1_555
H19_4 C22_4 1_555 1_555
C23_4 C22_4 1_555 1_555
H20_4 C23_4 1_555 1_555
C24_4 C23_4 1_555 1_555
C25_4 C24_4 1_555 1_555
H21_4 C25_4 1_555 1_555
C26_4 N3_4 1_555 1_555
H22_4 C26_4 1_555 1_555
C27_4 C24_4 1_555 1_555
H23_4 C27_4 1_555 1_555
H24_4 C27_4 1_555 1_555
C28_4 C27_4 1_555 1_555
H25_4 C28_4 1_555 1_555
H26_4 C28_4 1_555 1_555
N5_3 Zn1_3 1_555 1_555
C19_4 C20_4 1_555 1_555
C25_4 C26_4 1_555 1_555
N1_4 C1_4 1_555 1_555
N5_3 C11_4 1_555 1_555
C1_4 H1_5 1_555 1_555
C2_4 C1_4 1_555 1_555
H2_5 C2_4 1_555 1_555
C3_4 C2_4 1_555 1_555
C4_4 C3_4 1_555 1_555
H3_4 C4_4 1_555 1_555
C5_4 N1_4 1_555 1_555
H4_4 C5_4 1_555 1_555
C6_4 C3_4 1_555 1_555
H5_4 C6_4 1_555 1_555
H6_4 C6_4 1_555 1_555
C7_4 C6_4 1_555 1_555
H7_4 C7_4 1_555 1_555
H8_4 C7_4 1_555 1_555
C8_4 C7_4 1_555 1_555
H9_4 C8_4 1_555 1_555
H10_4 C8_4 1_555 1_555
C9_4 C8_4 1_555 1_555
C10_4 C9_4 1_555 1_555
H11_4 C10_4 1_555 1_555
C11_4 C10_4 1_555 1_555
H12_4 C11_4 1_555 1_555
C12_4 N5_3 1_555 1_555
H13_4 C12_4 1_555 1_555
C13_4 C9_4 1_555 1_555
H14_4 C13_4 1_555 1_555
C4_4 C5_4 1_555 1_555
C12_4 C13_4 1_555 1_555
Zn4_2 O3_5 1_555 1_555
O1_5 Zn1_4 1_555 1_555
O2_5 C14_5 1_555 1_555
O3_5 C21_5 1_555 1_555
O4_5 C21_5 1_555 1_555
C14_5 O1_5 1_555 1_555
C15_5 C14_5 1_555 1_555
C16_5 C15_5 1_555 1_555
H15_5 C16_5 1_555 1_555
C17_5 C16_5 1_555 1_555
H16_5 C17_5 1_555 1_555
C18_5 C17_5 1_555 1_555
H17_5 C18_5 1_555 1_555
C19_5 C18_5 1_555 1_555
H18_5 C19_5 1_555 1_555
C20_5 C15_5 1_555 1_555
C21_5 C20_5 1_555 1_555
N5_4 Zn1_4 1_555 1_555
N6_2 Zn4_2 1_555 1_555
C19_5 C20_5 1_555 1_555
O7_3 C42_5 1_555 1_555
O8_3 C42_5 1_555 1_555
C42_5 C41_5 1_555 1_555
C22_5 N3_5 1_555 1_555
H19_5 C22_5 1_555 1_555
C23_5 C22_5 1_555 1_555
H20_5 C23_5 1_555 1_555
C24_5 C23_5 1_555 1_555
C25_5 C24_5 1_555 1_555
H21_5 C25_5 1_555 1_555
C26_5 N3_5 1_555 1_555
H22_5 C26_5 1_555 1_555
C27_5 C24_5 1_555 1_555
H23_5 C27_5 1_555 1_555
H24_5 C27_5 1_555 1_555
C28_5 C27_5 1_555 1_555
H25_5 C28_5 1_555 1_555
H26_5 C28_5 1_555 1_555
C29_5 C28_5 1_555 1_555
H27_5 C29_5 1_555 1_555
H28_5 C29_5 1_555 1_555
C30_5 H29_5 1_555 1_555
C31_5 C29_5 1_555 1_555
C32_5 C31_5 1_555 1_555
H30_5 C32_5 1_555 1_555
C33_5 C32_5 1_555 1_555
H31_5 C33_5 1_555 1_555
N6_2 C33_5 1_555 1_555
C34_5 C30_5 1_555 1_555
H32_5 C34_5 1_555 1_555
C35_5 O5_5 1_555 1_555
C36_5 C35_5 1_555 1_555
C37_5 C36_5 1_555 1_555
H33_5 C37_5 1_555 1_555
C38_5 C37_5 1_555 1_555
H34_5 C38_5 1_555 1_555
C39_5 C38_5 1_555 1_555
H35_5 C39_5 1_555 1_555
C40_5 C39_5 1_555 1_555
C25_5 C26_5 1_555 1_555
C30_5 C31_5 1_555 1_555
N6_2 C34_5 1_555 1_555
Zn1_5 N1_5 1_555 1_555
Zn2_2 O3_6 1_555 1_555
N1_5 C1_5 1_555 1_555
N5_4 C11_5 1_555 1_555
O1_6 Zn1_5 1_555 1_555
O2_6 C14_6 1_555 1_555
O3_6 C21_6 1_555 1_555
O4_6 C21_6 1_555 1_555
C2_5 C1_5 1_555 1_555
C3_5 C2_5 1_555 1_555
C4_5 C3_5 1_555 1_555
H3_5 C4_5 1_555 1_555
C5_5 N1_5 1_555 1_555
H4_5 C5_5 1_555 1_555
C6_5 C3_5 1_555 1_555
H5_5 C6_5 1_555 1_555
H6_5 C6_5 1_555 1_555
C7_5 C6_5 1_555 1_555
H7_5 C7_5 1_555 1_555
H8_5 C7_5 1_555 1_555
C8_5 C7_5 1_555 1_555
H9_5 C8_5 1_555 1_555
H10_5 C8_5 1_555 1_555
C9_5 C8_5 1_555 1_555
C10_5 C9_5 1_555 1_555
H11_5 C10_5 1_555 1_555
C11_5 C10_5 1_555 1_555
H12_5 C11_5 1_555 1_555
C12_5 N5_4 1_555 1_555
H13_5 C12_5 1_555 1_555
C13_5 C9_5 1_555 1_555
H14_5 C13_5 1_555 1_555
C14_6 O1_6 1_555 1_555
C15_6 C14_6 1_555 1_555
C16_6 C15_6 1_555 1_555
H15_6 C16_6 1_555 1_555
C17_6 C16_6 1_555 1_555
H16_6 C17_6 1_555 1_555
C18_6 C17_6 1_555 1_555
H17_6 C18_6 1_555 1_555
C19_6 C18_6 1_555 1_555
H18_6 C19_6 1_555 1_555
C20_6 C15_6 1_555 1_555
C21_6 C20_6 1_555 1_555
N5_5 Zn1_5 1_555 1_555
N6_3 Zn2_2 1_555 1_555
C4_5 C5_5 1_555 1_555
C12_5 C13_5 1_555 1_555
C19_6 C20_6 1_555 1_555
C22_6 N3_6 1_555 1_555
H19_6 C22_6 1_555 1_555
C23_6 C22_6 1_555 1_555
H20_6 C23_6 1_555 1_555
C24_6 C23_6 1_555 1_555
C25_6 C24_6 1_555 1_555
H21_6 C25_6 1_555 1_555
C26_6 N3_6 1_555 1_555
H22_6 C26_6 1_555 1_555
C27_6 C24_6 1_555 1_555
H23_6 C27_6 1_555 1_555
H24_6 C27_6 1_555 1_555
C28_6 C27_6 1_555 1_555
H25_6 C28_6 1_555 1_555
H26_6 C28_6 1_555 1_555
C25_6 C26_6 1_555 1_555
O6_6 C35_6 1_555 1_555
O9_3 C42_6 1_555 1_555
O10_3 C42_6 1_555 1_555
H27_6 C29_6 1_555 1_555
H28_6 C29_6 1_555 1_555
C30_6 H29_6 1_555 1_555
C31_6 C29_6 1_555 1_555
C32_6 C31_6 1_555 1_555
H30_6 C32_6 1_555 1_555
C33_6 C32_6 1_555 1_555
H31_6 C33_6 1_555 1_555
N6_3 C33_6 1_555 1_555
C34_6 C30_6 1_555 1_555
H32_6 C34_6 1_555 1_555
C36_6 C35_6 1_555 1_555
C37_6 C36_6 1_555 1_555
H33_6 C37_6 1_555 1_555
C38_6 C37_6 1_555 1_555
H34_6 C38_6 1_555 1_555
C39_6 C38_6 1_555 1_555
H35_6 C39_6 1_555 1_555
C40_6 C39_6 1_555 1_555
H36_6 C40_6 1_555 1_555
C41_6 C36_6 1_555 1_555
C42_6 C41_6 1_555 1_555
C30_6 C31_6 1_555 1_555
N6_3 C34_6 1_555 1_555
C40_6 C41_6 1_555 1_555
N1_6 C1_6 1_555 1_555
N5_5 C11_6 1_555 1_555
C2_6 C1_6 1_555 1_555
C3_6 C2_6 1_555 1_555
C4_6 C3_6 1_555 1_555
H3_6 C4_6 1_555 1_555
C5_6 N1_6 1_555 1_555
H4_6 C5_6 1_555 1_555
C6_6 C3_6 1_555 1_555
H5_6 C6_6 1_555 1_555
H6_6 C6_6 1_555 1_555
C7_6 C6_6 1_555 1_555
H7_6 C7_6 1_555 1_555
H8_6 C7_6 1_555 1_555
C8_6 C7_6 1_555 1_555
H9_6 C8_6 1_555 1_555
H10_6 C8_6 1_555 1_555
C9_6 C8_6 1_555 1_555
C10_6 C9_6 1_555 1_555
H11_6 C10_6 1_555 1_555
C11_6 C10_6 1_555 1_555
H12_6 C11_6 1_555 1_555
C12_6 N5_5 1_555 1_555
H13_6 C12_6 1_555 1_555
C13_6 C9_6 1_555 1_555
H14_6 C13_6 1_555 1_555
C4_6 C5_6 1_555 1_555
C12_6 C13_6 1_555 1_555

#END
