
###############################################################################
#
# This file contains modified crystal structure data generated from the
# MOF subset of the Cambridge Structural Database (CSD) v543 
# hosted by the Cambridge Crystallographic Data Centre (CCDC).
#
# This work is licensed under the Creative Commons
# Attribution-NonCommercial-ShareAlike 4.0 International License.
# To view a copy of this license, visit
# http://creativecommons.org/licenses/by-nc-sa/4.0/
# or send a letter to
# Creative Commons, PO Box 1866, Mountain View, CA 94042, USA.
#
# CIF created using the CSD Python API on 29 September 2022
# The structure has been converted into the P1 space group
# The structure has a 3D framework
# The original CSD entry POGCOF is in the hexagonal crystal system
# The original CSD entry POGCOF is in a Sohncke space group
# The framework has been calculated to contain at least 10.0% void space
# The void calculation uses a probe of radius 1.32A, grid spacing 0.4
# The framework is charged, counterions have been retained in the structure
#
###############################################################################

data_POGCOF
_chemical_formula_moiety         '(C552 H624 Ag24 F72 N144 O94 P12 12+)n'
_symmetry_cell_setting           triclinic
_symmetry_space_group_name_H-M   'P 1'
_symmetry_Int_Tables_number      1
_space_group_name_Hall           'P 1'
loop_
_symmetry_equiv_pos_site_id
_symmetry_equiv_pos_as_xyz
1 x,y,z
_cell_length_a                   37.2943(17)
_cell_length_b                   37.2943(17)
_cell_length_c                   23.893(2)
_cell_angle_alpha                90
_cell_angle_beta                 90
_cell_angle_gamma                120
_cell_volume                     28779.7
loop_
_atom_site_label
_atom_site_type_symbol
_atom_site_fract_x
_atom_site_fract_y
_atom_site_fract_z
P1 P 0.5243(2) 0.9027(2) 0.8187(3)
F1 F 0.4894(5) 0.8666(5) 0.8589(6)
F2 F 0.4908(5) 0.9084(4) 0.7917(6)
F3 F 0.5578(5) 0.8944(5) 0.8476(8)
F4 F 0.5284(6) 0.9332(5) 0.8666(8)
F5 F 0.5158(4) 0.8670(4) 0.7734(5)
F6 F 0.5563(5) 0.9374(5) 0.7833(8)
P1_2 P 0.0973(2) 0.6216(3) 0.4854(3)
F1_2 F 0.1334(5) 0.6228(7) 0.5256(6)
F2_2 F 0.0916(4) 0.5824(6) 0.4584(6)
F3_2 F 0.1056(5) 0.6634(7) 0.5143(8)
F4_2 F 0.0668(5) 0.5952(8) 0.5333(8)
F5_2 F 0.1330(4) 0.6488(6) 0.4401(5)
F6_2 F 0.0626(5) 0.6189(7) 0.4500(8)
P1_3 P 0.3784(3) 0.4757(2) 0.1520(3)
F1_3 F 0.3772(7) 0.5106(5) 0.1922(6)
F2_3 F 0.4176(6) 0.5092(5) 0.1250(6)
F3_3 F 0.3366(7) 0.4422(5) 0.1809(8)
F4_3 F 0.4048(8) 0.4716(6) 0.1999(8)
F5_3 F 0.3512(6) 0.4842(4) 0.1067(5)
F6_3 F 0.3811(7) 0.4437(5) 0.1166(8)
P1_4 P 0.4757(2) 0.0973(2) 0.3187(3)
F1_4 F 0.5106(5) 0.1334(5) 0.3589(6)
F2_4 F 0.5092(5) 0.0916(4) 0.2917(6)
F3_4 F 0.4422(5) 0.1056(5) 0.3476(8)
F4_4 F 0.4716(6) 0.0668(5) 0.3666(8)
F5_4 F 0.4842(4) 0.1330(4) 0.2734(5)
F6_4 F 0.4437(5) 0.0626(5) 0.2833(8)
F1_5 F 0.8666(5) 0.3772(7) 0.0256(6)
F3_5 F 0.8944(5) 0.3366(7) 0.0143(8)
F4_5 F 0.9332(5) 0.4048(8) 0.0333(8)
P1_5 P 0.9027(2) 0.3784(3) 0.9854(3)
F2_5 F 0.9084(4) 0.4176(6) 0.9584(6)
F5_5 F 0.8670(4) 0.3512(6) 0.9401(5)
F6_5 F 0.9374(5) 0.3811(7) 0.9500(8)
P1_6 P 0.6216(3) 0.5243(2) 0.6520(3)
F1_6 F 0.6228(7) 0.4894(5) 0.6922(6)
F2_6 F 0.5824(6) 0.4908(5) 0.6250(6)
F3_6 F 0.6634(7) 0.5578(5) 0.6809(8)
F4_6 F 0.5952(8) 0.5284(6) 0.6999(8)
F5_6 F 0.6488(6) 0.5158(4) 0.6067(5)
F6_6 F 0.6189(7) 0.5563(5) 0.6166(8)
P1_7 P 0.9027(2) 0.5243(2) 0.8480(3)
F1_7 F 0.8666(5) 0.4894(5) 0.8078(6)
F2_7 F 0.9084(4) 0.4908(5) 0.8750(6)
F3_7 F 0.8944(5) 0.5578(5) 0.8191(8)
F4_7 F 0.9332(5) 0.5284(6) 0.8001(8)
F5_7 F 0.8670(4) 0.5158(4) 0.8933(5)
F6_7 F 0.9374(5) 0.5563(5) 0.8834(8)
P1_8 P 0.6216(3) 0.0973(2) 0.1813(3)
F1_8 F 0.6228(7) 0.1334(5) 0.1411(6)
F2_8 F 0.5824(6) 0.0916(4) 0.2083(6)
F3_8 F 0.6634(7) 0.1056(5) 0.1524(8)
F4_8 F 0.5952(8) 0.0668(5) 0.1334(8)
F5_8 F 0.6488(6) 0.1330(4) 0.2266(5)
F6_8 F 0.6189(7) 0.0626(5) 0.2167(8)
P1_9 P 0.4757(2) 0.3784(3) 0.5146(3)
F1_9 F 0.5106(5) 0.3772(7) 0.4744(6)
F2_9 F 0.5092(5) 0.4176(6) 0.5416(6)
F3_9 F 0.4422(5) 0.3366(7) 0.4857(8)
F4_9 F 0.4716(6) 0.4048(8) 0.4667(8)
F5_9 F 0.4842(4) 0.3512(6) 0.5599(5)
F6_9 F 0.4437(5) 0.3811(7) 0.5500(8)
P1_10 P 0.0973(2) 0.4757(2) 0.3480(3)
F1_10 F 0.1334(5) 0.5106(5) 0.3078(6)
F2_10 F 0.0916(4) 0.5092(5) 0.3750(6)
F3_10 F 0.1056(5) 0.4422(5) 0.3191(8)
F4_10 F 0.0668(5) 0.4716(6) 0.3001(8)
F5_10 F 0.1330(4) 0.4842(4) 0.3933(5)
F6_10 F 0.0626(5) 0.4437(5) 0.3834(8)
P1_11 P 0.3784(3) 0.9027(2) 0.6813(3)
F1_11 F 0.3772(7) 0.8666(5) 0.6411(6)
F2_11 F 0.4176(6) 0.9084(4) 0.7083(6)
F3_11 F 0.3366(7) 0.8944(5) 0.6524(8)
F4_11 F 0.4048(8) 0.9332(5) 0.6334(8)
F5_11 F 0.3512(6) 0.8670(4) 0.7266(5)
F6_11 F 0.3811(7) 0.9374(5) 0.7167(8)
P1_12 P 0.5243(2) 0.6216(3) 0.0146(3)
F2_12 F 0.4908(5) 0.5824(6) 0.0416(6)
F5_12 F 0.5158(4) 0.6488(6) 0.0599(5)
F6_12 F 0.5563(5) 0.6189(7) 0.0500(8)
F1_12 F 0.4894(5) 0.6228(7) 0.9744(6)
F3_12 F 0.5578(5) 0.6634(7) 0.9857(8)
F4_12 F 0.5284(6) 0.5952(8) 0.9667(8)
C1 C 0.7935(5) 0.2898(6) 0.0940(8)
H1 H 0.8032 0.2716 0.1051
N1 N 0.7911(5) 0.2954(5) 0.0367(7)
C2 C 0.7766(8) 0.3203(6) 0.0198(10)
C3 C 0.7663(9) 0.3425(9) 0.0615(10)
H3 H 0.7576 0.3615 0.0506
C4 C 0.7698(8) 0.3348(8) 0.1181(10)
H4 H 0.7627 0.3482 0.1461
C5 C 0.7835(6) 0.3074(6) 0.1341(10)
C6 C 0.7863(5) 0.2980(8) 0.1918(9)
O1 O 0.7996(4) 0.2755(4) 0.2037(5)
N2 N 0.7730(5) 0.3149(5) 0.2330(8)
H5 H 0.7642 0.3320 0.2238
C7 C 0.7738(7) 0.3047(8) 0.2885(11)
H6 H 0.7704 0.3245 0.3125
H7 H 0.8011 0.3078 0.2969
C8 C 0.7408(8) 0.2617(9) 0.3028(11)
O2 O 0.7155(5) 0.2363(5) 0.2692(6)
N3 N 0.7418(5) 0.2487(7) 0.3575(8)
C9 C 0.7684(6) 0.2767(9) 0.4006(9)
H8 H 0.7657 0.3018 0.4026
H9 H 0.7977 0.2851 0.3938
C10 C 0.7522(8) 0.2507(11) 0.4545(10)
H10 H 0.7305 0.2548 0.4726
H11 H 0.7749 0.2578 0.4816
C11 C 0.7323(8) 0.2015(10) 0.4305(9)
H12 H 0.7537 0.1933 0.4280
H13 H 0.7090 0.1813 0.4540
C12 C 0.7172(7) 0.2063(9) 0.3712(10)
H14 H 0.7210 0.1887 0.3431
C13 C 0.6728(8) 0.1925(9) 0.3782(10)
O3 O 0.6590(4) 0.2169(5) 0.3880(7)
N4 N 0.6463(6) 0.1508(7) 0.3725(9)
C14 C 0.6574(7) 0.1194(8) 0.3620(11)
H15 H 0.6773 0.1205 0.3902
H16 H 0.6693 0.1223 0.3241
C15 C 0.6133(8) 0.0775(9) 0.3676(11)
H17 H 0.6104 0.0572 0.3387
H18 H 0.6103 0.0649 0.4050
C16 C 0.5820(8) 0.0904(10) 0.3593(13)
H19 H 0.5754 0.0894 0.3190
H20 H 0.5563 0.0712 0.3795
C17 C 0.5984(8) 0.1335(9) 0.3809(12)
H21 H 0.5878 0.1495 0.3599
C18 C 0.5883(9) 0.1290(7) 0.4382(11)
O4 O 0.6132(6) 0.1332(7) 0.4756(9)
N5 N 0.5523(6) 0.1236(5) 0.4523(8)
H22 H 0.5363 0.1201 0.4233
C19 C 0.5336(7) 0.1224(6) 0.5026(10)
C20 C 0.5498(7) 0.1248(6) 0.5554(9)
H23 H 0.5767 0.1281 0.5579
C21 C 0.5302(7) 0.1227(7) 0.6027(9)
H24 H 0.5429 0.1244 0.6379
C22 C 0.4929(7) 0.1184(6) 0.6004(9)
H25 H 0.4787 0.1169 0.6341
N6 N 0.4744(5) 0.1160(5) 0.5506(7)
C23 C 0.4945(6) 0.1174(5) 0.5029(8)
H26 H 0.4811 0.1149 0.4681
Ag4 Ag 0.87792(7) 0.29842(5) 0.21342(7)
Ag5 Ag 0.42050(5) 0.12208(7) 0.54675(7)
Ag6 Ag 0.73387(5) 0.19291(5) 0.19545(7)
Ag2 Ag 0.80709(5) 0.26613(5) 0.97122(7)
H2 H 0.7730 0.3233 0.9811
C33 C 0.6249(11) 0.0128(11) 0.9262(15)
H36 H 0.5987 0.0024 0.9473
H37 H 0.6464 0.0386 0.9443
C34 C 0.6191(9) 0.0208(9) 0.8677(14)
H38 H 0.6299 0.0507 0.8612
H39 H 0.5895 0.0052 0.8571
C35 C 0.6433(8) 0.0060(7) 0.8357(11)
C36 C 0.6823(10) 0.0424(9) 0.8156(12)
O7 O 0.7156(6) 0.0525(4) 0.8345(9)
N10 N 0.6772(8) 0.0652(6) 0.7737(9)
C37 C 0.6401(11) 0.0603(8) 0.7431(10)
H41 H 0.6249 0.0703 0.7663
H42 H 0.6212 0.0309 0.7337
C38 C 0.6569(12) 0.0867(9) 0.6890(13)
H43 H 0.6590 0.0707 0.6574
H44 H 0.6401 0.0994 0.6777
C39 C 0.6997(11) 0.1191(8) 0.7120(11)
H45 H 0.6979 0.1429 0.7269
H46 H 0.7198 0.1293 0.6807
C40 C 0.7167(9) 0.1025(6) 0.7589(9)
H47 H 0.7374 0.0953 0.7440
C41 C 0.7356(8) 0.1357(7) 0.8073(10)
O8 O 0.7160(6) 0.1404(5) 0.8432(7)
N11 N 0.7799(7) 0.1556(6) 0.8001(10)
H48 H 0.7898 0.1476 0.7723
C42 C 0.8098(8) 0.1892(6) 0.8382(11)
C43 C 0.8497(8) 0.2015(6) 0.8286(12)
H49 H 0.8578 0.1871 0.8032
C44 C 0.8775(8) 0.2346(8) 0.8563(11)
H50 H 0.9059 0.2470 0.8466
C45 C 0.8657(6) 0.2513(6) 0.8991(7)
H51 H 0.8859 0.2717 0.9231
N12 N 0.8253(5) 0.2386(5) 0.9065(6)
C46 C 0.7989(6) 0.2081(6) 0.8757(8)
H52 H 0.7703 0.1988 0.8804
Ag3 Ag 0.70158(5) 0.12208(7) 0.95325(7)
O10 O 0.7637(5) 0.2845(5) 0.8975(6)
Ag1 Ag 0.57950(5) 0.70158(5) 0.78658(7)
C24 C 0.6258(9) 0.7867(7) 0.8263(11)
H27 H 0.5991 0.7765 0.8422
N7 N 0.6344(5) 0.7610(5) 0.7981(7)
C25 C 0.6710(7) 0.7738(7) 0.7751(13)
H28 H 0.6756 0.7550 0.7537
C26 C 0.7018(8) 0.8126(9) 0.7814(18)
H29 H 0.7290 0.8203 0.7697
C27 C 0.6934(9) 0.8426(8) 0.8058(18)
H30 H 0.7131 0.8713 0.8036
C28 C 0.6561(8) 0.8289(7) 0.8326(11)
C29 C 0.6404(13) 0.8538(11) 0.8637(10)
O5 O 0.6056(7) 0.8411(6) 0.8810(7)
N8 N 0.6718(12) 0.8937(8) 0.8677(11)
H31 H 0.6975 0.9024 0.8576
C30 C 0.6561(11) 0.9222(8) 0.8924(14)
H32 H 0.6271 0.9050 0.9049
H33 H 0.6732 0.9372 0.9253
C31 C 0.6587(8) 0.9519(7) 0.8505(15)
O6 O 0.6692(5) 0.9530(5) 0.7995(8)
N9 N 0.6490(8) 0.9792(6) 0.8703(8)
C32 C 0.6379(13) 0.9815(8) 0.9253(11)
H34 H 0.6618 0.9897 0.9507
H35 H 0.6149 0.9543 0.9376
H40 H 0.6267 0.9901 0.8024
O9 O 0.5241(6) 0.7245(4) 0.7963(5)
N13 N 0.5256(5) 0.6416(7) 0.7827(7)
O11 O 0.5756(8) 0.7160(6) 0.6765(7)
Ag1_2 Ag 0.29842(5) 0.87792(7) 0.45325(7)
C24_2 C 0.2133(7) 0.8391(11) 0.4930(11)
H27_2 H 0.2235 0.8226 0.5089
N7_2 N 0.2390(5) 0.8734(7) 0.4648(7)
C25_2 C 0.2262(7) 0.8972(10) 0.4418(13)
H28_2 H 0.2450 0.9206 0.4204
C26_2 C 0.1874(9) 0.8892(12) 0.4481(18)
H29_2 H 0.1797 0.9087 0.4364
C27_2 C 0.1574(8) 0.8508(12) 0.4725(18)
H30_2 H 0.1287 0.8418 0.4703
C28_2 C 0.1711(7) 0.8272(11) 0.4993(11)
C29_2 C 0.1462(11) 0.7866(17) 0.5304(10)
O5_2 O 0.1589(6) 0.7645(9) 0.5477(7)
N8_2 N 0.1063(8) 0.7781(14) 0.5344(11)
H31_2 H 0.0976 0.7951 0.5243
C30_2 C 0.0778(8) 0.7339(14) 0.5591(14)
H32_2 H 0.0950 0.7221 0.5716
H33_2 H 0.0628 0.7360 0.5920
C31_2 C 0.0481(7) 0.7068(11) 0.5172(15)
O6_2 O 0.0470(5) 0.7162(7) 0.4662(8)
N9_2 N 0.0208(6) 0.6698(10) 0.5370(8)
C32_2 C 0.0185(8) 0.6564(15) 0.5920(11)
H34_2 H 0.0103 0.6721 0.6174
H35_2 H 0.0457 0.6606 0.6043
H40_2 H 0.0099 0.6366 0.4691
O9_2 O 0.2755(4) 0.7996(7) 0.4630(5)
N13_2 N 0.3584(7) 0.8840(9) 0.4494(7)
O11_2 O 0.2840(6) 0.8596(10) 0.3432(7)
N3_2 N 0.7513(7) 0.4931(9) 0.0242(8)
C9_2 C 0.7233(9) 0.4917(11) 0.0673(9)
H8_2 H 0.6982 0.4639 0.0693
H9_2 H 0.7149 0.5126 0.0605
C10_2 C 0.7493(11) 0.5015(14) 0.1212(10)
H10_2 H 0.7452 0.4757 0.1393
H11_2 H 0.7422 0.5171 0.1483
C11_2 C 0.7985(10) 0.5308(13) 0.0972(9)
H12_2 H 0.8067 0.5604 0.0947
H13_2 H 0.8187 0.5277 0.1207
C12_2 C 0.7937(9) 0.5109(11) 0.0379(10)
H14_2 H 0.8113 0.5323 0.0098
C13_2 C 0.8075(9) 0.4803(12) 0.0449(10)
O3_2 O 0.7831(5) 0.4421(6) 0.0547(7)
N4_2 N 0.8492(7) 0.4955(9) 0.0392(9)
C14_2 C 0.8806(8) 0.5380(11) 0.0287(11)
H15_2 H 0.8795 0.5568 0.0569
C15_2 C 0.9225(9) 0.5358(12) 0.0343(11)
H17_2 H 0.9428 0.5532 0.0054
H18_2 H 0.9351 0.5454 0.0717
C16_2 C 0.9096(10) 0.4916(13) 0.0260(13)
H20_2 H 0.9288 0.4851 0.0462
C17_2 C 0.8665(9) 0.4649(12) 0.0476(12)
H21_2 H 0.8505 0.4383 0.0266
C18_2 C 0.8710(7) 0.4593(11) 0.1049(11)
O4_2 O 0.8668(7) 0.4800(9) 0.1423(9)
N5_2 N 0.8764(5) 0.4287(8) 0.1190(8)
H22_2 H 0.8799 0.4162 0.0900
C19_2 C 0.8776(6) 0.4112(9) 0.1693(10)
C20_2 C 0.8752(6) 0.4250(9) 0.2221(9)
H23_2 H 0.8719 0.4486 0.2246
C21_2 C 0.8773(7) 0.4075(10) 0.2694(9)
H24_2 H 0.8756 0.4185 0.3046
C22_2 C 0.8816(6) 0.3745(9) 0.2671(9)
H25_2 H 0.8831 0.3618 0.3008
N6_2 N 0.8840(5) 0.3584(7) 0.2173(7)
C23_2 C 0.8826(5) 0.3771(8) 0.1696(8)
H26_2 H 0.8851 0.3662 0.1348
Ag2_2 Ag 0.73387(5) 0.54096(7) 0.63789(7)
C1_2 C 0.7102(6) 0.5037(8) 0.7607(8)
H1_2 H 0.7284 0.5316 0.7718
N1_2 N 0.7046(5) 0.4957(7) 0.7034(7)
C2_2 C 0.6797(6) 0.4563(10) 0.6865(10)
H2_2 H 0.6767 0.4497 0.6478
C3_2 C 0.6575(9) 0.4238(13) 0.7282(10)
H3_2 H 0.6385 0.3961 0.7173
C4_2 C 0.6652(8) 0.4350(11) 0.7848(10)
H4_2 H 0.6518 0.4145 0.8128
C5_2 C 0.6926(6) 0.4761(8) 0.8008(10)
C6_2 C 0.7020(8) 0.4883(9) 0.8585(9)
O1_2 O 0.7245(4) 0.5241(6) 0.8704(5)
N2_2 N 0.6851(5) 0.4581(7) 0.8997(8)
H5_2 H 0.6680 0.4322 0.8905
C7_2 C 0.6953(8) 0.4691(11) 0.9552(11)
H6_2 H 0.6755 0.4459 0.9792
H7_2 H 0.6922 0.4933 0.9636
C8_2 C 0.7383(9) 0.4791(12) 0.9695(11)
O2_2 O 0.7637(5) 0.4792(7) 0.9359(6)
H16_2 H 0.8777 0.5470 0.9908
H19_2 H 0.9106 0.4860 0.9857
C33_2 C 0.9872(11) 0.6121(16) 0.5929(15)
H36_2 H 0.9976 0.5963 0.6140
H37_2 H 0.9614 0.6078 0.6110
C34_2 C 0.9792(9) 0.5983(13) 0.5344(14)
H38_2 H 0.9493 0.5792 0.5279
H39_2 H 0.9948 0.5843 0.5238
C35_2 C 0.9940(7) 0.6373(11) 0.5024(11)
C36_2 C 0.9576(9) 0.6399(13) 0.4823(12)
O7_2 O 0.9475(4) 0.6631(7) 0.5012(9)
N10_2 N 0.9348(6) 0.6120(10) 0.4404(9)
C37_2 C 0.9397(8) 0.5798(14) 0.4098(10)
H41_2 H 0.9297 0.5546 0.4330
H42_2 H 0.9691 0.5903 0.4004
C38_2 C 0.9133(9) 0.5702(15) 0.3557(13)
H43_2 H 0.9293 0.5883 0.3241
H44_2 H 0.9006 0.5407 0.3444
C39_2 C 0.8809(8) 0.5806(14) 0.3787(11)
H45_2 H 0.8571 0.5550 0.3936
H46_2 H 0.8707 0.5905 0.3474
C40_2 C 0.8975(6) 0.6142(11) 0.4256(9)
H47_2 H 0.9047 0.6421 0.4107
C41_2 C 0.8643(7) 0.5999(11) 0.4740(10)
O8_2 O 0.8596(5) 0.5756(8) 0.5099(7)
N11_2 N 0.8444(6) 0.6243(9) 0.4668(10)
H48_2 H 0.8524 0.6422 0.4390
C42_2 C 0.8108(6) 0.6206(10) 0.5049(11)
C43_2 C 0.7985(6) 0.6482(10) 0.4953(12)
H49_2 H 0.8129 0.6707 0.4699
C44_2 C 0.7654(8) 0.6429(11) 0.5230(11)
H50_2 H 0.7530 0.6589 0.5133
C45_2 C 0.7487(6) 0.6144(8) 0.5658(7)
H51_2 H 0.7283 0.6142 0.5898
N12_2 N 0.7614(5) 0.5867(7) 0.5732(6)
C46_2 C 0.7919(6) 0.5908(8) 0.5424(8)
H52_2 H 0.8012 0.5715 0.5471
Ag3_2 Ag 0.87792(7) 0.57950(9) 0.61991(7)
Ag4_2 Ag 0.70158(5) 0.57950(9) 0.88009(7)
Ag6_2 Ag 0.80709(5) 0.54096(7) 0.86211(7)
O10_2 O 0.7155(5) 0.4792(7) 0.5641(6)
Ag1_3 Ag 0.12208(7) 0.42050(5) 0.11991(7)
Ag2_3 Ag 0.45904(7) 0.19291(5) 0.30455(7)
C1_3 C 0.4963(8) 0.2065(5) 0.4273(8)
H1_3 H 0.4684 0.1968 0.4384
N1_3 N 0.5043(7) 0.2089(5) 0.3700(7)
C2_3 C 0.5437(10) 0.2234(8) 0.3531(10)
H2_3 H 0.5503 0.2270 0.3144
C3_3 C 0.5762(13) 0.2337(9) 0.3948(10)
H3_3 H 0.6039 0.2424 0.3839
C4_3 C 0.5650(11) 0.2302(8) 0.4514(10)
H4_3 H 0.5855 0.2373 0.4794
C5_3 C 0.5239(8) 0.2165(6) 0.4674(10)
C6_3 C 0.5117(9) 0.2137(5) 0.5251(9)
O1_3 O 0.4759(6) 0.2004(4) 0.5370(5)
N2_3 N 0.5419(7) 0.2270(5) 0.5663(8)
H5_3 H 0.5678 0.2358 0.5571
C7_3 C 0.5309(11) 0.2262(7) 0.6218(11)
H6_3 H 0.5541 0.2296 0.6458
H7_3 H 0.5067 0.1989 0.6302
C8_3 C 0.5209(12) 0.2592(8) 0.6361(11)
O2_3 O 0.5208(7) 0.2845(5) 0.6025(6)
N3_3 N 0.5069(9) 0.2582(5) 0.6908(8)
C9_3 C 0.5083(11) 0.2316(6) 0.7339(9)
H8_3 H 0.5361 0.2343 0.7359
H9_3 H 0.4874 0.2023 0.7271
C10_3 C 0.4985(14) 0.2478(8) 0.7878(10)
H10_3 H 0.5243 0.2695 0.8059
H11_3 H 0.4829 0.2251 0.8149
C11_3 C 0.4692(13) 0.2677(8) 0.7638(9)
H12_3 H 0.4396 0.2463 0.7613
H13_3 H 0.4723 0.2910 0.7873
C12_3 C 0.4891(11) 0.2828(7) 0.7045(10)
H14_3 H 0.4677 0.2790 0.6764
C13_3 C 0.5197(12) 0.3272(8) 0.7115(10)
O3_3 O 0.5579(6) 0.3410(4) 0.7213(7)
N4_3 N 0.5045(9) 0.3537(6) 0.7058(9)
C14_3 C 0.4620(11) 0.3426(7) 0.6953(11)
H15_3 H 0.4432 0.3227 0.7235
H16_3 H 0.4530 0.3307 0.6574
C15_3 C 0.4642(12) 0.3867(8) 0.7009(11)
H17_3 H 0.4468 0.3896 0.6720
H18_3 H 0.4546 0.3897 0.7383
C16_3 C 0.5084(13) 0.4180(8) 0.6926(13)
H19_3 H 0.5140 0.4246 0.6523
H20_3 H 0.5149 0.4437 0.7128
C17_3 C 0.5351(12) 0.4016(8) 0.7142(12)
H21_3 H 0.5617 0.4122 0.6932
C18_3 C 0.5407(11) 0.4117(9) 0.7715(11)
O4_3 O 0.5200(9) 0.3868(6) 0.8089(9)
N5_3 N 0.5713(8) 0.4477(6) 0.7856(8)
H22_3 H 0.5838 0.4637 0.7566
C19_3 C 0.5888(9) 0.4664(7) 0.8359(10)
C20_3 C 0.5750(9) 0.4502(7) 0.8887(9)
H23_3 H 0.5514 0.4233 0.8912
C21_3 C 0.5925(10) 0.4698(7) 0.9360(9)
H24_3 H 0.5815 0.4571 0.9712
C22_3 C 0.6255(9) 0.5071(7) 0.9337(9)
H25_3 H 0.6382 0.5213 0.9674
N6_3 N 0.6416(7) 0.5256(5) 0.8839(7)
C23_3 C 0.6229(8) 0.5055(6) 0.8362(8)
H26_3 H 0.6338 0.5189 0.8014
C24_3 C 0.1609(11) 0.3742(9) 0.1596(11)
H27_3 H 0.1774 0.4009 0.1755
N7_3 N 0.1266(7) 0.3656(5) 0.1314(7)
C25_3 C 0.1028(10) 0.3290(7) 0.1084(13)
H28_3 H 0.0794 0.3244 0.0870
C26_3 C 0.1108(12) 0.2982(8) 0.1147(18)
H29_3 H 0.0913 0.2710 0.1030
C27_3 C 0.1492(12) 0.3066(9) 0.1391(18)
H30_3 H 0.1582 0.2869 0.1369
C28_3 C 0.1728(11) 0.3439(8) 0.1659(11)
C29_3 C 0.2134(17) 0.3596(13) 0.1970(10)
O5_3 O 0.2355(9) 0.3944(7) 0.2143(7)
N8_3 N 0.2219(14) 0.3282(12) 0.2010(11)
H31_3 H 0.2049 0.3025 0.1909
C30_3 C 0.2661(14) 0.3439(11) 0.2257(14)
H32_3 H 0.2779 0.3729 0.2382
H33_3 H 0.2640 0.3268 0.2586
C31_3 C 0.2932(11) 0.3413(8) 0.1838(15)
O6_3 O 0.2838(7) 0.3308(5) 0.1328(8)
N9_3 N 0.3302(10) 0.3510(8) 0.2036(8)
C32_3 C 0.3436(15) 0.3621(13) 0.2586(11)
H34_3 H 0.3279 0.3382 0.2840
H35_3 H 0.3394 0.3851 0.2709
C33_3 C 0.3879(16) 0.3751(11) 0.2595(15)
H36_3 H 0.4037 0.4013 0.2806
H37_3 H 0.3922 0.3536 0.2776
C34_3 C 0.4017(13) 0.3809(9) 0.2010(14)
H38_3 H 0.4208 0.3701 0.1945
H39_3 H 0.4157 0.4105 0.1904
C35_3 C 0.3627(11) 0.3567(8) 0.1690(11)
H40_3 H 0.3634 0.3733 0.1357
C36_3 C 0.3601(13) 0.3177(10) 0.1489(12)
O7_3 O 0.3369(7) 0.2844(6) 0.1678(9)
N10_3 N 0.3880(10) 0.3228(8) 0.1070(9)
C37_3 C 0.4202(14) 0.3599(11) 0.0764(10)
H41_3 H 0.4454 0.3751 0.0996
H42_3 H 0.4097 0.3788 0.0670
C38_3 C 0.4298(15) 0.3431(12) 0.0223(13)
H44_3 H 0.4593 0.3599 0.0110
C39_3 C 0.4194(14) 0.3003(11) 0.0453(11)
H45_3 H 0.4450 0.3021 0.0602
H46_3 H 0.4095 0.2802 0.0140
C40_3 C 0.3858(11) 0.2833(9) 0.0922(9)
H47_3 H 0.3579 0.2626 0.0773
C41_3 C 0.4001(11) 0.2644(8) 0.1406(10)
O8_3 O 0.4244(8) 0.2840(6) 0.1765(7)
N11_3 N 0.3757(9) 0.2201(7) 0.1334(10)
H48_3 H 0.3578 0.2102 0.1056
C42_3 C 0.3794(10) 0.1902(8) 0.1715(11)
C43_3 C 0.3518(10) 0.1503(8) 0.1619(12)
H49_3 H 0.3293 0.1422 0.1365
C44_3 C 0.3571(11) 0.1225(8) 0.1896(11)
H50_3 H 0.3411 0.0941 0.1799
C45_3 C 0.3856(8) 0.1343(6) 0.2324(7)
H51_3 H 0.3858 0.1141 0.2564
N12_3 N 0.4133(7) 0.1747(5) 0.2398(6)
C46_3 C 0.4092(8) 0.2011(6) 0.2090(8)
H52_3 H 0.4285 0.2297 0.2137
Ag3_3 Ag 0.42050(9) 0.29842(5) 0.28658(7)
Ag6_3 Ag 0.45904(7) 0.26613(5) 0.52878(7)
O9_3 O 0.2004(7) 0.4759(6) 0.1296(5)
O10_3 O 0.5208(7) 0.2363(5) 0.2308(6)
N13_3 N 0.1160(9) 0.4744(5) 0.1161(7)
O11_3 O 0.1404(10) 0.4244(8) 0.0099(7)
C24_4 C 0.3742(9) 0.2133(7) 0.3263(11)
H27_4 H 0.4009 0.2235 0.3422
N7_4 N 0.3656(5) 0.2390(5) 0.2981(7)
C25_4 C 0.3290(7) 0.2262(7) 0.2751(13)
H28_4 H 0.3244 0.2450 0.2537
C26_4 C 0.2982(8) 0.1874(9) 0.2814(18)
H29_4 H 0.2710 0.1797 0.2697
C27_4 C 0.3066(9) 0.1574(8) 0.3058(18)
H30_4 H 0.2869 0.1287 0.3036
C28_4 C 0.3439(8) 0.1711(7) 0.3326(11)
C29_4 C 0.3596(13) 0.1462(11) 0.3637(10)
O5_4 O 0.3944(7) 0.1589(6) 0.3810(7)
N8_4 N 0.3282(12) 0.1063(8) 0.3677(11)
H31_4 H 0.3025 0.0976 0.3576
C30_4 C 0.3439(11) 0.0778(8) 0.3924(14)
H32_4 H 0.3729 0.0950 0.4049
H33_4 H 0.3268 0.0628 0.4253
C31_4 C 0.3413(8) 0.0481(7) 0.3505(15)
O6_4 O 0.3308(5) 0.0470(5) 0.2995(8)
N9_4 N 0.3510(8) 0.0208(6) 0.3703(8)
C32_4 C 0.3621(13) 0.0185(8) 0.4253(11)
H34_4 H 0.3382 0.0103 0.4507
H35_4 H 0.3851 0.0457 0.4376
H40_4 H 0.3733 0.0099 0.3024
O9_4 O 0.4759(6) 0.2755(4) 0.2963(5)
N13_4 N 0.4744(5) 0.3584(7) 0.2827(7)
C19_4 C 0.4664(7) 0.8776(6) 0.0026(10)
C20_4 C 0.4502(7) 0.8752(6) 0.0554(9)
H23_4 H 0.4233 0.8719 0.0579
C21_4 C 0.4698(7) 0.8773(7) 0.1027(9)
H24_4 H 0.4571 0.8756 0.1379
C22_4 C 0.5071(7) 0.8816(6) 0.1004(9)
H25_4 H 0.5213 0.8831 0.1341
N6_4 N 0.5256(5) 0.8840(5) 0.0506(7)
C23_4 C 0.5055(6) 0.8826(5) 0.0029(8)
Ag5_2 Ag 0.57950(5) 0.87792(7) 0.04675(7)
Ag2_4 Ag 0.19291(5) 0.73387(5) 0.47122(7)
C1_4 C 0.2065(5) 0.7102(6) 0.5940(8)
H1_4 H 0.1968 0.7284 0.6051
N1_4 N 0.2089(5) 0.7046(5) 0.5367(7)
C2_4 C 0.2234(8) 0.6797(6) 0.5198(10)
H2_4 H 0.2270 0.6767 0.4811
C3_4 C 0.2337(9) 0.6575(9) 0.5615(10)
H3_4 H 0.2424 0.6385 0.5506
C4_4 C 0.2302(8) 0.6652(8) 0.6181(10)
H4_4 H 0.2373 0.6518 0.6461
C5_4 C 0.2165(6) 0.6926(6) 0.6341(10)
C6_4 C 0.2137(5) 0.7020(8) 0.6918(9)
O1_4 O 0.2004(4) 0.7245(4) 0.7037(5)
N2_4 N 0.2270(5) 0.6851(5) 0.7330(8)
H5_4 H 0.2358 0.6680 0.7238
C7_4 C 0.2262(7) 0.6953(8) 0.7885(11)
H6_4 H 0.2296 0.6755 0.8125
H7_4 H 0.1989 0.6922 0.7969
C8_4 C 0.2592(8) 0.7383(9) 0.8028(11)
O2_4 O 0.2845(5) 0.7637(5) 0.7692(6)
N3_4 N 0.2582(5) 0.7513(7) 0.8575(8)
C9_4 C 0.2316(6) 0.7233(9) 0.9006(9)
H8_4 H 0.2343 0.6982 0.9026
H9_4 H 0.2023 0.7149 0.8938
C10_4 C 0.2478(8) 0.7493(11) 0.9545(10)
H10_4 H 0.2695 0.7452 0.9726
H11_4 H 0.2251 0.7422 0.9816
C11_4 C 0.2677(8) 0.7985(10) 0.9305(9)
H12_4 H 0.2463 0.8067 0.9280
H13_4 H 0.2910 0.8187 0.9540
C12_4 C 0.2828(7) 0.7937(9) 0.8712(10)
H14_4 H 0.2790 0.8113 0.8431
C13_4 C 0.3272(8) 0.8075(9) 0.8782(10)
O3_4 O 0.3410(4) 0.7831(5) 0.8880(7)
N4_4 N 0.3537(6) 0.8492(7) 0.8725(9)
C14_4 C 0.3426(7) 0.8806(8) 0.8620(11)
H15_4 H 0.3227 0.8795 0.8902
H16_4 H 0.3307 0.8777 0.8241
C15_4 C 0.3867(8) 0.9225(9) 0.8676(11)
H17_4 H 0.3896 0.9428 0.8387
H18_4 H 0.3897 0.9351 0.9050
C16_4 C 0.4180(8) 0.9096(10) 0.8593(13)
H19_4 H 0.4246 0.9106 0.8190
H20_4 H 0.4437 0.9288 0.8795
C17_4 C 0.4016(8) 0.8665(9) 0.8809(12)
H21_4 H 0.4122 0.8505 0.8599
C18_4 C 0.4117(9) 0.8710(7) 0.9382(11)
O4_4 O 0.3868(6) 0.8668(7) 0.9756(9)
N5_4 N 0.4477(6) 0.8764(5) 0.9523(8)
H22_4 H 0.4637 0.8799 0.9233
H26_4 H 0.5189 0.8851 0.9681
C33_4 C 0.3751(11) 0.9872(11) 0.4262(15)
H36_4 H 0.4013 0.9976 0.4473
H37_4 H 0.3536 0.9614 0.4443
C34_4 C 0.3809(9) 0.9792(9) 0.3677(14)
H38_4 H 0.3701 0.9493 0.3612
H39_4 H 0.4105 0.9948 0.3571
C35_4 C 0.3567(8) 0.9940(7) 0.3357(11)
C36_4 C 0.3177(10) 0.9576(9) 0.3156(12)
O7_4 O 0.2844(6) 0.9475(4) 0.3345(9)
N10_4 N 0.3228(8) 0.9348(6) 0.2737(9)
C37_4 C 0.3599(11) 0.9397(8) 0.2431(10)
H41_4 H 0.3751 0.9297 0.2663
H42_4 H 0.3788 0.9691 0.2337
C38_4 C 0.3431(12) 0.9133(9) 0.1890(13)
H43_3 H 0.3410 0.9293 0.1574
H44_4 H 0.3599 0.9006 0.1777
C39_4 C 0.3003(11) 0.8809(8) 0.2120(11)
H45_4 H 0.3021 0.8571 0.2269
H46_4 H 0.2802 0.8707 0.1807
C40_4 C 0.2833(9) 0.8975(6) 0.2589(9)
H47_4 H 0.2626 0.9047 0.2440
C41_4 C 0.2644(8) 0.8643(7) 0.3073(10)
N11_4 N 0.2201(7) 0.8444(6) 0.3001(10)
H48_4 H 0.2102 0.8524 0.2723
C42_4 C 0.1902(8) 0.8108(6) 0.3382(11)
C43_4 C 0.1503(8) 0.7985(6) 0.3286(12)
H49_4 H 0.1422 0.8129 0.3032
C44_4 C 0.1225(8) 0.7654(8) 0.3563(11)
H50_4 H 0.0941 0.7530 0.3466
C45_4 C 0.1343(6) 0.7487(6) 0.3991(7)
H51_4 H 0.1141 0.7283 0.4231
N12_4 N 0.1747(5) 0.7614(5) 0.4065(6)
C46_4 C 0.2011(6) 0.7919(6) 0.3757(8)
H52_4 H 0.2297 0.8012 0.3804
Ag4_3 Ag 0.12208(7) 0.70158(5) 0.71342(7)
Ag6_4 Ag 0.26613(5) 0.80709(5) 0.69545(7)
O10_4 O 0.2363(5) 0.7155(5) 0.3975(6)
Ag2_5 Ag 0.26613(5) 0.45904(7) 0.13789(7)
C1_5 C 0.2898(6) 0.4963(8) 0.2607(8)
H1_5 H 0.2716 0.4684 0.2718
N1_5 N 0.2954(5) 0.5043(7) 0.2034(7)
C2_5 C 0.3203(6) 0.5437(10) 0.1865(10)
H2_5 H 0.3233 0.5503 0.1478
C3_5 C 0.3425(9) 0.5762(13) 0.2282(10)
H3_5 H 0.3615 0.6039 0.2173
C4_5 C 0.3348(8) 0.5650(11) 0.2848(10)
H4_5 H 0.3482 0.5855 0.3128
C5_5 C 0.3074(6) 0.5239(8) 0.3008(10)
C6_5 C 0.2980(8) 0.5117(9) 0.3585(9)
O1_5 O 0.2755(4) 0.4759(6) 0.3704(5)
N2_5 N 0.3149(5) 0.5419(7) 0.3997(8)
H5_5 H 0.3320 0.5678 0.3905
C7_5 C 0.3047(8) 0.5309(11) 0.4552(11)
H6_5 H 0.3245 0.5541 0.4792
H7_5 H 0.3078 0.5067 0.4636
C8_5 C 0.2617(9) 0.5209(12) 0.4695(11)
O2_5 O 0.2363(5) 0.5208(7) 0.4359(6)
N3_5 N 0.2487(7) 0.5069(9) 0.5242(8)
C9_5 C 0.2767(9) 0.5083(11) 0.5673(9)
H8_5 H 0.3018 0.5361 0.5693
H9_5 H 0.2851 0.4874 0.5605
C10_5 C 0.2507(11) 0.4985(14) 0.6212(10)
H10_5 H 0.2548 0.5243 0.6393
H11_5 H 0.2578 0.4829 0.6483
C11_5 C 0.2015(10) 0.4692(13) 0.5972(9)
H12_5 H 0.1933 0.4396 0.5947
H13_5 H 0.1813 0.4723 0.6207
C12_5 C 0.2063(9) 0.4891(11) 0.5379(10)
H14_5 H 0.1887 0.4677 0.5098
C13_5 C 0.1925(9) 0.5197(12) 0.5449(10)
O3_5 O 0.2169(5) 0.5579(6) 0.5547(7)
N4_5 N 0.1508(7) 0.5045(9) 0.5392(9)
C14_5 C 0.1194(8) 0.4620(11) 0.5287(11)
H15_5 H 0.1205 0.4432 0.5569
H16_5 H 0.1223 0.4530 0.4908
C15_5 C 0.0775(9) 0.4642(12) 0.5343(11)
H17_5 H 0.0572 0.4468 0.5054
H18_5 H 0.0649 0.4546 0.5717
C16_5 C 0.0904(10) 0.5084(13) 0.5260(13)
H19_5 H 0.0894 0.5140 0.4857
H20_5 H 0.0712 0.5149 0.5462
C17_5 C 0.1335(9) 0.5351(12) 0.5476(12)
H21_5 H 0.1495 0.5617 0.5266
C18_5 C 0.1290(7) 0.5407(11) 0.6049(11)
O4_5 O 0.1332(7) 0.5200(9) 0.6423(9)
N5_5 N 0.1236(5) 0.5713(8) 0.6190(8)
H22_5 H 0.1201 0.5838 0.5900
C19_5 C 0.1224(6) 0.5888(9) 0.6693(10)
C20_5 C 0.1248(6) 0.5750(9) 0.7221(9)
H23_5 H 0.1281 0.5514 0.7246
C21_5 C 0.1227(7) 0.5925(10) 0.7694(9)
H24_5 H 0.1244 0.5815 0.8046
C22_5 C 0.1184(6) 0.6255(9) 0.7671(9)
H25_5 H 0.1169 0.6382 0.8008
N6_5 N 0.1160(5) 0.6416(7) 0.7173(7)
C23_5 C 0.1174(5) 0.6229(8) 0.6696(8)
H26_5 H 0.1149 0.6338 0.6348
C33_5 C 0.0128(11) 0.3879(16) 0.0929(15)
H36_5 H 0.0024 0.4037 0.1140
H37_5 H 0.0386 0.3922 0.1110
C34_5 C 0.0208(9) 0.4017(13) 0.0344(14)
H38_5 H 0.0507 0.4208 0.0279
H39_5 H 0.0052 0.4157 0.0238
C35_5 C 0.0060(7) 0.3627(11) 0.0024(11)
O7_5 O 0.0525(4) 0.3369(7) 0.0012(9)
C42_5 C 0.1892(6) 0.3794(10) 0.0049(11)
C44_5 C 0.2346(8) 0.3571(11) 0.0230(11)
H50_5 H 0.2470 0.3411 0.0133
C45_5 C 0.2513(6) 0.3856(8) 0.0658(7)
H51_5 H 0.2717 0.3858 0.0898
N12_5 N 0.2386(5) 0.4133(7) 0.0732(6)
C46_5 C 0.2081(6) 0.4092(8) 0.0424(8)
H52_5 H 0.1988 0.4285 0.0471
Ag4_4 Ag 0.29842(5) 0.42050(9) 0.38009(7)
Ag6_5 Ag 0.19291(5) 0.45904(7) 0.36211(7)
O10_5 O 0.2845(5) 0.5208(7) 0.0641(6)
C24_5 C 0.7867(7) 0.1609(11) 0.9930(11)
N7_5 N 0.7610(5) 0.1266(7) 0.9648(7)
C25_5 C 0.7738(7) 0.1028(10) 0.9418(13)
H28_5 H 0.7550 0.0794 0.9204
C26_5 C 0.8126(9) 0.1108(12) 0.9481(18)
H29_5 H 0.8203 0.0913 0.9364
C27_5 C 0.8426(8) 0.1492(12) 0.9725(18)
H30_5 H 0.8713 0.1582 0.9703
C28_5 C 0.8289(7) 0.1728(11) 0.9993(11)
O6_5 O 0.9530(5) 0.2838(7) 0.9662(8)
H40_5 H 0.9901 0.3634 0.9691
O9_5 O 0.7245(4) 0.2004(7) 0.9630(5)
N13_5 N 0.6416(7) 0.1160(9) 0.9494(7)
C6_6 C 0.4883(9) 0.7863(5) 0.0251(9)
O1_6 O 0.5241(6) 0.7996(4) 0.0370(5)
N2_6 N 0.4581(7) 0.7730(5) 0.0663(8)
H5_6 H 0.4322 0.7642 0.0571
C7_6 C 0.4691(11) 0.7738(7) 0.1218(11)
H6_6 H 0.4459 0.7704 0.1458
H7_6 H 0.4933 0.8011 0.1302
C8_6 C 0.4791(12) 0.7408(8) 0.1361(11)
O2_6 O 0.4792(7) 0.7155(5) 0.1025(6)
N3_6 N 0.4931(9) 0.7418(5) 0.1908(8)
C9_6 C 0.4917(11) 0.7684(6) 0.2339(9)
H8_6 H 0.4639 0.7657 0.2359
H9_6 H 0.5126 0.7977 0.2271
C10_6 C 0.5015(14) 0.7522(8) 0.2878(10)
H10_6 H 0.4757 0.7305 0.3059
H11_6 H 0.5171 0.7749 0.3149
C11_6 C 0.5308(13) 0.7323(8) 0.2638(9)
H12_6 H 0.5604 0.7537 0.2613
H13_6 H 0.5277 0.7090 0.2873
C12_6 C 0.5109(11) 0.7172(7) 0.2045(10)
H14_6 H 0.5323 0.7210 0.1764
C13_6 C 0.4803(12) 0.6728(8) 0.2115(10)
O3_6 O 0.4421(6) 0.6590(4) 0.2213(7)
N4_6 N 0.4955(9) 0.6463(6) 0.2058(9)
C14_6 C 0.5380(11) 0.6574(7) 0.1953(11)
H15_6 H 0.5568 0.6773 0.2235
H16_6 H 0.5470 0.6693 0.1574
C15_6 C 0.5358(12) 0.6133(8) 0.2009(11)
H17_6 H 0.5532 0.6104 0.1720
H18_6 H 0.5454 0.6103 0.2383
C16_6 C 0.4916(13) 0.5820(8) 0.1926(13)
H19_6 H 0.4860 0.5754 0.1523
H20_6 H 0.4851 0.5563 0.2128
C17_6 C 0.4649(12) 0.5984(8) 0.2142(12)
H21_6 H 0.4383 0.5878 0.1932
C18_6 C 0.4593(11) 0.5883(9) 0.2715(11)
O4_6 O 0.4800(9) 0.6132(6) 0.3089(9)
N5_6 N 0.4287(8) 0.5523(6) 0.2856(8)
H22_6 H 0.4162 0.5363 0.2566
C19_6 C 0.4112(9) 0.5336(7) 0.3359(10)
C20_6 C 0.4250(9) 0.5498(7) 0.3887(9)
H23_6 H 0.4486 0.5767 0.3912
C21_6 C 0.4075(10) 0.5302(7) 0.4360(9)
H24_6 H 0.4185 0.5429 0.4712
C22_6 C 0.3745(9) 0.4929(7) 0.4337(9)
H25_6 H 0.3618 0.4787 0.4674
N6_6 N 0.3584(7) 0.4744(5) 0.3839(7)
C23_6 C 0.3771(8) 0.4945(6) 0.3362(8)
H26_6 H 0.3662 0.4811 0.3014
Ag6_6 Ag 0.54096(7) 0.73387(5) 0.02878(7)
Ag2_6 Ag 0.54096(7) 0.80709(5) 0.80455(7)
C1_6 C 0.5037(8) 0.7935(5) 0.9273(8)
H1_6 H 0.5316 0.8032 0.9384
N1_6 N 0.4957(7) 0.7911(5) 0.8700(7)
C2_6 C 0.4563(10) 0.7766(8) 0.8531(10)
H2_6 H 0.4497 0.7730 0.8144
C3_6 C 0.4238(13) 0.7663(9) 0.8948(10)
H3_6 H 0.3961 0.7576 0.8839
C4_6 C 0.4350(11) 0.7698(8) 0.9514(10)
H4_6 H 0.4145 0.7627 0.9794
C5_6 C 0.4761(8) 0.7835(6) 0.9674(10)
C24_6 C 0.8391(11) 0.6258(9) 0.6596(11)
H27_5 H 0.8226 0.5991 0.6755
N7_6 N 0.8734(7) 0.6344(5) 0.6314(7)
C25_6 C 0.8972(10) 0.6710(7) 0.6084(13)
H28_6 H 0.9206 0.6756 0.5870
C26_6 C 0.8892(12) 0.7018(8) 0.6147(18)
H29_6 H 0.9087 0.7290 0.6030
C27_6 C 0.8508(12) 0.6934(9) 0.6391(18)
H30_6 H 0.8418 0.7131 0.6369
C28_6 C 0.8272(11) 0.6561(8) 0.6659(11)
C29_5 C 0.7866(17) 0.6404(13) 0.6970(10)
O5_5 O 0.7645(9) 0.6056(7) 0.7143(7)
N8_5 N 0.7781(14) 0.6718(12) 0.7010(11)
H31_5 H 0.7951 0.6975 0.6909
C30_5 C 0.7339(14) 0.6561(11) 0.7257(14)
H32_5 H 0.7221 0.6271 0.7382
H33_5 H 0.7360 0.6732 0.7586
C31_5 C 0.7068(11) 0.6587(8) 0.6838(15)
O6_6 O 0.7162(7) 0.6692(5) 0.6328(8)
N9_5 N 0.6698(10) 0.6490(8) 0.7036(8)
C32_5 C 0.6564(15) 0.6379(13) 0.7586(11)
H34_5 H 0.6721 0.6618 0.7840
H35_5 H 0.6606 0.6149 0.7709
C33_6 C 0.6121(16) 0.6249(11) 0.7595(15)
H36_6 H 0.5963 0.5987 0.7806
H37_6 H 0.6078 0.6464 0.7776
C34_6 C 0.5983(13) 0.6191(9) 0.7010(14)
H38_6 H 0.5792 0.6299 0.6945
H39_6 H 0.5843 0.5895 0.6904
C35_6 C 0.6373(11) 0.6433(8) 0.6690(11)
H40_6 H 0.6366 0.6267 0.6357
C36_5 C 0.6399(13) 0.6823(10) 0.6489(12)
O7_6 O 0.6631(7) 0.7156(6) 0.6678(9)
N10_5 N 0.6120(10) 0.6772(8) 0.6070(9)
C37_5 C 0.5798(14) 0.6401(11) 0.5764(10)
H41_5 H 0.5546 0.6249 0.5996
H42_5 H 0.5903 0.6212 0.5670
C38_5 C 0.5702(15) 0.6569(12) 0.5223(13)
H43_4 H 0.5883 0.6590 0.4907
H44_5 H 0.5407 0.6401 0.5110
C39_5 C 0.5806(14) 0.6997(11) 0.5453(11)
H45_5 H 0.5550 0.6979 0.5602
H46_5 H 0.5905 0.7198 0.5140
C40_5 C 0.6142(11) 0.7167(9) 0.5922(9)
H47_5 H 0.6421 0.7374 0.5773
C41_5 C 0.5999(11) 0.7356(8) 0.6406(10)
N11_5 N 0.6243(9) 0.7799(7) 0.6334(10)
H48_5 H 0.6422 0.7898 0.6056
C42_6 C 0.6206(10) 0.8098(8) 0.6715(11)
C43_5 C 0.6482(10) 0.8497(8) 0.6619(12)
H49_5 H 0.6707 0.8578 0.6365
C44_6 C 0.6429(11) 0.8775(8) 0.6896(11)
H50_6 H 0.6589 0.9059 0.6799
C45_6 C 0.6144(8) 0.8657(6) 0.7324(7)
H51_6 H 0.6142 0.8859 0.7564
N12_6 N 0.5867(7) 0.8253(5) 0.7398(6)
C46_6 C 0.5908(8) 0.7989(6) 0.7090(8)
H52_6 H 0.5715 0.7703 0.7137
O9_6 O 0.7996(7) 0.5241(6) 0.6296(5)
O10_6 O 0.4792(7) 0.7637(5) 0.7308(6)
N13_6 N 0.8840(9) 0.5256(5) 0.6161(7)
C1_7 C 0.2898(6) 0.7935(5) 0.5727(8)
H1_7 H 0.2716 0.8032 0.5616
N1_7 N 0.2954(5) 0.7911(5) 0.6300(7)
C2_7 C 0.3203(6) 0.7766(8) 0.6469(10)
H2_7 H 0.3233 0.7730 0.6856
C3_7 C 0.3425(9) 0.7663(9) 0.6052(10)
H3_7 H 0.3615 0.7576 0.6161
C4_7 C 0.3348(8) 0.7698(8) 0.5486(10)
H4_7 H 0.3482 0.7627 0.5206
C5_7 C 0.3074(6) 0.7835(6) 0.5326(10)
C6_7 C 0.2980(8) 0.7863(5) 0.4749(9)
N2_7 N 0.3149(5) 0.7730(5) 0.4337(8)
H5_7 H 0.3320 0.7642 0.4429
C7_7 C 0.3047(8) 0.7738(7) 0.3782(11)
H6_7 H 0.3245 0.7704 0.3542
H7_7 H 0.3078 0.8011 0.3698
C8_7 C 0.2617(9) 0.7408(8) 0.3639(11)
N3_7 N 0.2487(7) 0.7418(5) 0.3092(8)
C9_7 C 0.2767(9) 0.7684(6) 0.2661(9)
H8_7 H 0.3018 0.7657 0.2641
H9_7 H 0.2851 0.7977 0.2729
C10_7 C 0.2507(11) 0.7522(8) 0.2122(10)
H10_7 H 0.2548 0.7305 0.1941
H11_7 H 0.2578 0.7749 0.1851
C11_7 C 0.2015(10) 0.7323(8) 0.2362(9)
H12_7 H 0.1933 0.7537 0.2387
H13_7 H 0.1813 0.7090 0.2127
C12_7 C 0.2063(9) 0.7172(7) 0.2955(10)
H14_7 H 0.1887 0.7210 0.3236
C13_7 C 0.1925(9) 0.6728(8) 0.2885(10)
O3_7 O 0.2169(5) 0.6590(4) 0.2787(7)
N4_7 N 0.1508(7) 0.6463(6) 0.2942(9)
C14_7 C 0.1194(8) 0.6574(7) 0.3047(11)
H15_7 H 0.1205 0.6773 0.2765
H16_7 H 0.1223 0.6693 0.3426
C15_7 C 0.0775(9) 0.6133(8) 0.2991(11)
H17_7 H 0.0572 0.6104 0.3280
H18_7 H 0.0649 0.6103 0.2617
C16_7 C 0.0904(10) 0.5820(8) 0.3074(13)
H19_7 H 0.0894 0.5754 0.3477
H20_7 H 0.0712 0.5563 0.2872
C17_7 C 0.1335(9) 0.5984(8) 0.2858(12)
H21_7 H 0.1495 0.5878 0.3068
C18_7 C 0.1290(7) 0.5883(9) 0.2285(11)
O4_7 O 0.1332(7) 0.6132(6) 0.1911(9)
N5_7 N 0.1236(5) 0.5523(6) 0.2144(8)
H22_7 H 0.1201 0.5363 0.2434
C19_7 C 0.1224(6) 0.5336(7) 0.1641(10)
C20_7 C 0.1248(6) 0.5498(7) 0.1113(9)
H23_7 H 0.1281 0.5767 0.1088
C21_7 C 0.1227(7) 0.5302(7) 0.0640(9)
H24_7 H 0.1244 0.5429 0.0288
C22_7 C 0.1184(6) 0.4929(7) 0.0663(9)
H25_7 H 0.1169 0.4787 0.0326
C23_7 C 0.1174(5) 0.4945(6) 0.1638(8)
H26_7 H 0.1149 0.4811 0.1986
C33_7 C 0.0128(11) 0.6249(11) 0.7405(15)
H36_7 H 0.0024 0.5987 0.7194
H37_7 H 0.0386 0.6464 0.7224
C34_7 C 0.0208(9) 0.6191(9) 0.7990(14)
H38_7 H 0.0507 0.6299 0.8055
H39_7 H 0.0052 0.5895 0.8096
C35_7 C 0.0060(7) 0.6433(8) 0.8310(11)
C36_6 C 0.0424(9) 0.6823(10) 0.8511(12)
O7_7 O 0.0525(4) 0.7156(6) 0.8322(9)
N10_6 N 0.0652(6) 0.6772(8) 0.8930(9)
C37_6 C 0.0603(8) 0.6401(11) 0.9236(10)
H41_6 H 0.0703 0.6249 0.9004
H42_6 H 0.0309 0.6212 0.9330
C38_6 C 0.0867(9) 0.6569(12) 0.9777(13)
H44_6 H 0.0994 0.6401 0.9890
C39_6 C 0.1191(8) 0.6997(11) 0.9547(11)
H45_6 H 0.1429 0.6979 0.9398
H46_6 H 0.1293 0.7198 0.9860
C40_6 C 0.1025(6) 0.7167(9) 0.9078(9)
H47_6 H 0.0953 0.7374 0.9227
C41_6 C 0.1357(7) 0.7356(8) 0.8594(10)
O8_4 O 0.1404(5) 0.7160(6) 0.8235(7)
N11_6 N 0.1556(6) 0.7799(7) 0.8666(10)
H48_6 H 0.1476 0.7898 0.8944
C42_7 C 0.1892(6) 0.8098(8) 0.8285(11)
C43_6 C 0.2015(6) 0.8497(8) 0.8381(12)
H49_6 H 0.1871 0.8578 0.8635
C44_7 C 0.2346(8) 0.8775(8) 0.8104(11)
H50_7 H 0.2470 0.9059 0.8201
C45_7 C 0.2513(6) 0.8657(6) 0.7676(7)
H51_7 H 0.2717 0.8859 0.7436
N12_7 N 0.2386(5) 0.8253(5) 0.7602(6)
C46_7 C 0.2081(6) 0.7989(6) 0.7910(8)
H52_7 H 0.1988 0.7703 0.7863
C24_7 C 0.7867(7) 0.6258(9) 0.8404(11)
H27_6 H 0.7765 0.5991 0.8245
N7_7 N 0.7610(5) 0.6344(5) 0.8686(7)
C25_7 C 0.7738(7) 0.6710(7) 0.8916(13)
H28_7 H 0.7550 0.6756 0.9130
C26_7 C 0.8126(9) 0.7018(8) 0.8853(18)
H29_7 H 0.8203 0.7290 0.8970
C27_7 C 0.8426(8) 0.6934(9) 0.8609(18)
H30_7 H 0.8713 0.7131 0.8631
C28_7 C 0.8289(7) 0.6561(8) 0.8341(11)
C29_6 C 0.8538(11) 0.6404(13) 0.8030(10)
O5_6 O 0.8411(6) 0.6056(7) 0.7857(7)
N8_6 N 0.8937(8) 0.6718(12) 0.7990(11)
H31_6 H 0.9024 0.6975 0.8091
C30_6 C 0.9222(8) 0.6561(11) 0.7743(14)
H32_6 H 0.9050 0.6271 0.7618
H33_6 H 0.9372 0.6732 0.7414
C31_6 C 0.9519(7) 0.6587(8) 0.8162(15)
O6_7 O 0.9530(5) 0.6692(5) 0.8672(8)
N9_6 N 0.9792(6) 0.6490(8) 0.7964(8)
C32_6 C 0.9815(8) 0.6379(13) 0.7414(11)
H34_6 H 0.9897 0.6618 0.7160
H35_6 H 0.9543 0.6149 0.7291
H40_7 H 0.9901 0.6267 0.8643
O11_4 O 0.7160(6) 0.5756(8) 0.9901(7)
C24_8 C 0.8391(11) 0.2133(7) 0.1737(11)
H27_7 H 0.8226 0.2235 0.1578
N7_8 N 0.8734(7) 0.2390(5) 0.2019(7)
C25_8 C 0.8972(10) 0.2262(7) 0.2249(13)
H28_8 H 0.9206 0.2450 0.2463
C26_8 C 0.8892(12) 0.1874(9) 0.2186(18)
H29_8 H 0.9087 0.1797 0.2303
C27_8 C 0.8508(12) 0.1574(8) 0.1942(18)
H30_8 H 0.8418 0.1287 0.1964
C28_8 C 0.8272(11) 0.1711(7) 0.1674(11)
C29_7 C 0.7866(17) 0.1462(11) 0.1363(10)
O5_7 O 0.7645(9) 0.1589(6) 0.1190(7)
N8_7 N 0.7781(14) 0.1063(8) 0.1323(11)
H31_7 H 0.7951 0.0976 0.1424
C30_7 C 0.7339(14) 0.0778(8) 0.1076(14)
H32_7 H 0.7221 0.0950 0.0951
H33_7 H 0.7360 0.0628 0.0747
C31_7 C 0.7068(11) 0.0481(7) 0.1495(15)
O6_8 O 0.7162(7) 0.0470(5) 0.2005(8)
N9_7 N 0.6698(10) 0.0208(6) 0.1297(8)
C32_7 C 0.6564(15) 0.0185(8) 0.0747(11)
H34_7 H 0.6721 0.0103 0.0493
H35_7 H 0.6606 0.0457 0.0624
H40_8 H 0.6366 0.0099 0.1976
O11_5 O 0.8596(10) 0.2840(6) 0.3235(7)
H2_8 H 0.4497 0.6767 0.0189
C33_8 C 0.6121(16) 0.9872(11) 0.0738(15)
H36_8 H 0.5963 0.9976 0.0527
H37_8 H 0.6078 0.9614 0.0557
C34_8 C 0.5983(13) 0.9792(9) 0.1323(14)
H38_8 H 0.5792 0.9493 0.1388
H39_8 H 0.5843 0.9948 0.1429
C35_8 C 0.6373(11) 0.9940(7) 0.1643(11)
C36_7 C 0.6399(13) 0.9576(9) 0.1844(12)
O7_8 O 0.6631(7) 0.9475(4) 0.1655(9)
N10_7 N 0.6120(10) 0.9348(6) 0.2263(9)
C37_7 C 0.5798(14) 0.9397(8) 0.2569(10)
H41_7 H 0.5546 0.9297 0.2337
H42_7 H 0.5903 0.9691 0.2663
C38_7 C 0.5702(15) 0.9133(9) 0.3110(13)
H43_5 H 0.5883 0.9293 0.3426
H44_7 H 0.5407 0.9006 0.3223
C39_7 C 0.5806(14) 0.8809(8) 0.2880(11)
H45_7 H 0.5550 0.8571 0.2731
H46_7 H 0.5905 0.8707 0.3193
C40_7 C 0.6142(11) 0.8975(6) 0.2411(9)
H47_7 H 0.6421 0.9047 0.2560
C41_7 C 0.5999(11) 0.8643(7) 0.1927(10)
O8_5 O 0.5756(8) 0.8596(5) 0.1568(7)
N11_7 N 0.6243(9) 0.8444(6) 0.1999(10)
H48_7 H 0.6422 0.8524 0.2277
C42_8 C 0.6206(10) 0.8108(6) 0.1618(11)
C43_7 C 0.6482(10) 0.7985(6) 0.1714(12)
H49_7 H 0.6707 0.8129 0.1968
C44_8 C 0.6429(11) 0.7654(8) 0.1437(11)
H50_8 H 0.6589 0.7530 0.1534
C45_8 C 0.6144(8) 0.7487(6) 0.1009(7)
H51_8 H 0.6142 0.7283 0.0769
N12_8 N 0.5867(7) 0.7614(5) 0.0935(6)
C46_8 C 0.5908(8) 0.7919(6) 0.1243(8)
H52_8 H 0.5715 0.8012 0.1196
C1_8 C 0.5037(8) 0.7102(6) 0.9060(8)
H1_8 H 0.5316 0.7284 0.8949
N1_8 N 0.4957(7) 0.7046(5) 0.9633(7)
C2_8 C 0.4563(10) 0.6797(6) 0.9802(10)
C3_8 C 0.4238(13) 0.6575(9) 0.9385(10)
H3_8 H 0.3961 0.6385 0.9494
C4_8 C 0.4350(11) 0.6652(8) 0.8819(10)
H4_8 H 0.4145 0.6518 0.8539
C5_8 C 0.4761(8) 0.6926(6) 0.8659(10)
C6_8 C 0.4883(9) 0.7020(8) 0.8082(9)
N2_8 N 0.4581(7) 0.6851(5) 0.7670(8)
H5_8 H 0.4322 0.6680 0.7762
C7_8 C 0.4691(11) 0.6953(8) 0.7115(11)
H6_8 H 0.4459 0.6755 0.6875
H7_8 H 0.4933 0.6922 0.7031
C8_8 C 0.4791(12) 0.7383(9) 0.6972(11)
N3_8 N 0.4931(9) 0.7513(7) 0.6425(8)
C9_8 C 0.4917(11) 0.7233(9) 0.5994(9)
H8_8 H 0.4639 0.6982 0.5974
H9_8 H 0.5126 0.7149 0.6062
C10_8 C 0.5015(14) 0.7493(11) 0.5455(10)
H10_8 H 0.4757 0.7452 0.5274
H11_8 H 0.5171 0.7422 0.5184
C11_8 C 0.5308(13) 0.7985(10) 0.5695(9)
H12_8 H 0.5604 0.8067 0.5720
H13_8 H 0.5277 0.8187 0.5460
C12_8 C 0.5109(11) 0.7937(9) 0.6288(10)
H14_8 H 0.5323 0.8113 0.6569
C13_8 C 0.4803(12) 0.8075(9) 0.6218(10)
O3_8 O 0.4421(6) 0.7831(5) 0.6120(7)
N4_8 N 0.4955(9) 0.8492(7) 0.6275(9)
C14_8 C 0.5380(11) 0.8806(8) 0.6380(11)
H15_8 H 0.5568 0.8795 0.6098
H16_8 H 0.5470 0.8777 0.6759
C15_8 C 0.5358(12) 0.9225(9) 0.6324(11)
H17_8 H 0.5532 0.9428 0.6613
H18_8 H 0.5454 0.9351 0.5950
C16_8 C 0.4916(13) 0.9096(10) 0.6407(13)
H19_8 H 0.4860 0.9106 0.6810
H20_8 H 0.4851 0.9288 0.6205
C17_8 C 0.4649(12) 0.8665(9) 0.6191(12)
H21_8 H 0.4383 0.8505 0.6401
C18_8 C 0.4593(11) 0.8710(7) 0.5618(11)
O4_8 O 0.4800(9) 0.8668(7) 0.5244(9)
N5_8 N 0.4287(8) 0.8764(5) 0.5477(8)
H22_8 H 0.4162 0.8799 0.5767
C19_8 C 0.4112(9) 0.8776(6) 0.4974(10)
C20_8 C 0.4250(9) 0.8752(6) 0.4446(9)
H23_8 H 0.4486 0.8719 0.4421
C21_8 C 0.4075(10) 0.8773(7) 0.3973(9)
H24_8 H 0.4185 0.8756 0.3621
C22_8 C 0.3745(9) 0.8816(6) 0.3996(9)
H25_8 H 0.3618 0.8831 0.3659
C23_8 C 0.3771(8) 0.8826(5) 0.4971(8)
H26_8 H 0.3662 0.8851 0.5319
C1_9 C 0.2065(5) 0.4963(8) 0.2393(8)
H1_9 H 0.1968 0.4684 0.2282
N1_9 N 0.2089(5) 0.5043(7) 0.2966(7)
C2_9 C 0.2234(8) 0.5437(10) 0.3135(10)
H2_9 H 0.2270 0.5503 0.3522
C3_9 C 0.2337(9) 0.5762(13) 0.2718(10)
H3_9 H 0.2424 0.6039 0.2827
C4_9 C 0.2302(8) 0.5650(11) 0.2152(10)
H4_9 H 0.2373 0.5855 0.1872
C5_9 C 0.2165(6) 0.5239(8) 0.1992(10)
C6_9 C 0.2137(5) 0.5117(9) 0.1415(9)
N2_9 N 0.2270(5) 0.5419(7) 0.1003(8)
H5_9 H 0.2358 0.5678 0.1095
C7_9 C 0.2262(7) 0.5309(11) 0.0448(11)
H6_9 H 0.2296 0.5541 0.0208
H7_9 H 0.1989 0.5067 0.0364
C8_9 C 0.2592(8) 0.5209(12) 0.0305(11)
H16_9 H 0.3307 0.4530 0.0092
H19_9 H 0.4246 0.5140 0.0143
C24_9 C 0.3742(9) 0.1609(11) 0.5070(11)
H27_8 H 0.4009 0.1774 0.4911
N7_9 N 0.3656(5) 0.1266(7) 0.5352(7)
C25_9 C 0.3290(7) 0.1028(10) 0.5582(13)
H28_9 H 0.3244 0.0794 0.5796
C26_9 C 0.2982(8) 0.1108(12) 0.5519(18)
H29_9 H 0.2710 0.0913 0.5636
C27_9 C 0.3066(9) 0.1492(12) 0.5275(18)
H30_9 H 0.2869 0.1582 0.5297
C28_9 C 0.3439(8) 0.1728(11) 0.5007(11)
C29_8 C 0.3596(13) 0.2134(17) 0.4696(10)
O5_8 O 0.3944(7) 0.2355(9) 0.4523(7)
N8_8 N 0.3282(12) 0.2219(14) 0.4656(11)
H31_8 H 0.3025 0.2049 0.4757
C30_8 C 0.3439(11) 0.2661(14) 0.4409(14)
H32_8 H 0.3729 0.2779 0.4284
H33_8 H 0.3268 0.2640 0.4080
C31_8 C 0.3413(8) 0.2932(11) 0.4828(15)
O6_9 O 0.3308(5) 0.2838(7) 0.5338(8)
N9_8 N 0.3510(8) 0.3302(10) 0.4630(8)
C32_8 C 0.3621(13) 0.3436(15) 0.4080(11)
H34_8 H 0.3382 0.3279 0.3826
H35_8 H 0.3851 0.3394 0.3957
C33_9 C 0.3751(11) 0.3879(16) 0.4071(15)
H36_9 H 0.4013 0.4037 0.3860
H37_9 H 0.3536 0.3922 0.3890
C34_9 C 0.3809(9) 0.4017(13) 0.4656(14)
H38_9 H 0.3701 0.4208 0.4721
H39_9 H 0.4105 0.4157 0.4762
C35_9 C 0.3567(8) 0.3627(11) 0.4976(11)
H40_9 H 0.3733 0.3634 0.5309
C36_8 C 0.3177(10) 0.3601(13) 0.5177(12)
O7_9 O 0.2844(6) 0.3369(7) 0.4988(9)
N10_8 N 0.3228(8) 0.3880(10) 0.5596(9)
C37_8 C 0.3599(11) 0.4202(14) 0.5902(10)
H41_8 H 0.3751 0.4454 0.5670
H42_8 H 0.3788 0.4097 0.5996
C38_8 C 0.3431(12) 0.4298(15) 0.6443(13)
H43_6 H 0.3410 0.4117 0.6759
H44_8 H 0.3599 0.4593 0.6556
C39_8 C 0.3003(11) 0.4194(14) 0.6213(11)
H45_8 H 0.3021 0.4450 0.6064
H46_8 H 0.2802 0.4095 0.6526
C40_8 C 0.2833(9) 0.3858(11) 0.5744(9)
H47_8 H 0.2626 0.3579 0.5893
C41_8 C 0.2644(8) 0.4001(11) 0.5260(10)
O8_6 O 0.2840(6) 0.4244(8) 0.4901(7)
N11_8 N 0.2201(7) 0.3757(9) 0.5332(10)
H48_8 H 0.2102 0.3578 0.5610
C42_9 C 0.1902(8) 0.3794(10) 0.4951(11)
C43_8 C 0.1503(8) 0.3518(10) 0.5047(12)
H49_8 H 0.1422 0.3293 0.5301
C44_9 C 0.1225(8) 0.3571(11) 0.4770(11)
H50_9 H 0.0941 0.3411 0.4867
C45_9 C 0.1343(6) 0.3856(8) 0.4342(7)
H51_9 H 0.1141 0.3858 0.4102
N12_9 N 0.1747(5) 0.4133(7) 0.4268(6)
C46_9 C 0.2011(6) 0.4092(8) 0.4576(8)
H52_9 H 0.2297 0.4285 0.4529
O11_6 O 0.4244(8) 0.1404(10) 0.6568(7)
N3_9 N 0.2582(5) 0.5069(9) 0.9758(8)
C9_9 C 0.2316(6) 0.5083(11) 0.9327(9)
H8_9 H 0.2343 0.5361 0.9307
H9_9 H 0.2023 0.4874 0.9395
C10_9 C 0.2478(8) 0.4985(14) 0.8788(10)
H10_9 H 0.2695 0.5243 0.8607
H11_9 H 0.2251 0.4829 0.8517
C11_9 C 0.2677(8) 0.4692(13) 0.9028(9)
H12_9 H 0.2463 0.4396 0.9053
H13_9 H 0.2910 0.4723 0.8793
C12_9 C 0.2828(7) 0.4891(11) 0.9621(10)
H14_9 H 0.2790 0.4677 0.9902
C13_9 C 0.3272(8) 0.5197(12) 0.9551(10)
O3_9 O 0.3410(4) 0.5579(6) 0.9453(7)
N4_9 N 0.3537(6) 0.5045(9) 0.9608(9)
C14_9 C 0.3426(7) 0.4620(11) 0.9713(11)
H15_9 H 0.3227 0.4432 0.9431
C15_9 C 0.3867(8) 0.4642(12) 0.9657(11)
H17_9 H 0.3896 0.4468 0.9946
H18_9 H 0.3897 0.4546 0.9283
C16_9 C 0.4180(8) 0.5084(13) 0.9740(13)
H20_9 H 0.4437 0.5149 0.9538
C17_9 C 0.4016(8) 0.5351(12) 0.9524(12)
H21_9 H 0.4122 0.5617 0.9734
C18_9 C 0.4117(9) 0.5407(11) 0.8951(11)
O4_9 O 0.3868(6) 0.5200(9) 0.8577(9)
N5_9 N 0.4477(6) 0.5713(8) 0.8810(8)
H22_9 H 0.4637 0.5838 0.9100
C19_9 C 0.4664(7) 0.5888(9) 0.8307(10)
C20_9 C 0.4502(7) 0.5750(9) 0.7779(9)
H23_9 H 0.4233 0.5514 0.7754
C21_9 C 0.4698(7) 0.5925(10) 0.7306(9)
H24_9 H 0.4571 0.5815 0.6954
C22_9 C 0.5071(7) 0.6255(9) 0.7329(9)
H25_9 H 0.5213 0.6382 0.6992
C23_9 C 0.5055(6) 0.6229(8) 0.8304(8)
H26_9 H 0.5189 0.6338 0.8652
C24_10 C 0.2133(7) 0.3742(9) 0.3404(11)
H27_9 H 0.2235 0.4009 0.3245
N7_10 N 0.2390(5) 0.3656(5) 0.3686(7)
C25_10 C 0.2262(7) 0.3290(7) 0.3916(13)
H28_10 H 0.2450 0.3244 0.4130
C26_10 C 0.1874(9) 0.2982(8) 0.3853(18)
H29_10 H 0.1797 0.2710 0.3970
C27_10 C 0.1574(8) 0.3066(9) 0.3609(18)
H30_10 H 0.1287 0.2869 0.3631
C28_10 C 0.1711(7) 0.3439(8) 0.3341(11)
C29_9 C 0.1462(11) 0.3596(13) 0.3030(10)
O5_9 O 0.1589(6) 0.3944(7) 0.2857(7)
N8_9 N 0.1063(8) 0.3282(12) 0.2990(11)
H31_9 H 0.0976 0.3025 0.3091
C30_9 C 0.0778(8) 0.3439(11) 0.2743(14)
H32_9 H 0.0950 0.3729 0.2618
H33_9 H 0.0628 0.3268 0.2414
C31_9 C 0.0481(7) 0.3413(8) 0.3162(15)
O6_10 O 0.0470(5) 0.3308(5) 0.3672(8)
N9_9 N 0.0208(6) 0.3510(8) 0.2964(8)
C32_9 C 0.0185(8) 0.3621(13) 0.2414(11)
H34_9 H 0.0103 0.3382 0.2160
H35_9 H 0.0457 0.3851 0.2291
H40_10 H 0.0099 0.3733 0.3643
C1_10 C 0.7102(6) 0.2065(5) 0.0727(8)
H1_10 H 0.7284 0.1968 0.0616
N1_10 N 0.7046(5) 0.2089(5) 0.1300(7)
C2_10 C 0.6797(6) 0.2234(8) 0.1469(10)
H2_10 H 0.6767 0.2270 0.1856
C3_10 C 0.6575(9) 0.2337(9) 0.1052(10)
H3_10 H 0.6385 0.2424 0.1161
C4_10 C 0.6652(8) 0.2302(8) 0.0486(10)
H4_10 H 0.6518 0.2373 0.0206
C5_10 C 0.6926(6) 0.2165(6) 0.0326(10)
C33_10 C 0.9872(11) 0.3751(11) 0.2405(15)
H36_10 H 0.9976 0.4013 0.2194
H37_10 H 0.9614 0.3536 0.2224
C34_10 C 0.9792(9) 0.3809(9) 0.2990(14)
H38_10 H 0.9493 0.3701 0.3055
H39_10 H 0.9948 0.4105 0.3096
C35_10 C 0.9940(7) 0.3567(8) 0.3310(11)
C36_9 C 0.9576(9) 0.3177(10) 0.3511(12)
O7_10 O 0.9475(4) 0.2844(6) 0.3322(9)
N10_9 N 0.9348(6) 0.3228(8) 0.3930(9)
C37_9 C 0.9397(8) 0.3599(11) 0.4236(10)
H41_9 H 0.9297 0.3751 0.4004
H42_9 H 0.9691 0.3788 0.4330
C38_9 C 0.9133(9) 0.3431(12) 0.4777(13)
H43_7 H 0.9293 0.3410 0.5093
H44_9 H 0.9006 0.3599 0.4890
C39_9 C 0.8809(8) 0.3003(11) 0.4547(11)
H45_9 H 0.8571 0.3021 0.4398
H46_9 H 0.8707 0.2802 0.4860
C40_9 C 0.8975(6) 0.2833(9) 0.4078(9)
H47_9 H 0.9047 0.2626 0.4227
C41_9 C 0.8643(7) 0.2644(8) 0.3594(10)
N11_9 N 0.8444(6) 0.2201(7) 0.3666(10)
H48_9 H 0.8524 0.2102 0.3944
C42_10 C 0.8108(6) 0.1902(8) 0.3285(11)
C43_9 C 0.7985(6) 0.1503(8) 0.3381(12)
H49_9 H 0.8129 0.1422 0.3635
C44_10 C 0.7654(8) 0.1225(8) 0.3104(11)
H50_10 H 0.7530 0.0941 0.3201
C45_10 C 0.7487(6) 0.1343(6) 0.2676(7)
H51_10 H 0.7283 0.1141 0.2436
N12_10 N 0.7614(5) 0.1747(5) 0.2602(6)
C46_10 C 0.7919(6) 0.2011(6) 0.2910(8)
H52_10 H 0.8012 0.2297 0.2863
C6_10 C 0.7020(8) 0.2137(5) 0.9749(9)
N2_10 N 0.6851(5) 0.2270(5) 0.9337(8)
H5_10 H 0.6680 0.2358 0.9429
C7_10 C 0.6953(8) 0.2262(7) 0.8782(11)
H6_10 H 0.6755 0.2296 0.8542
H7_10 H 0.6922 0.1989 0.8698
C8_10 C 0.7383(9) 0.2592(8) 0.8639(11)
N3_10 N 0.7513(7) 0.2582(5) 0.8092(8)
C9_10 C 0.7233(9) 0.2316(6) 0.7661(9)
H8_10 H 0.6982 0.2343 0.7641
H9_10 H 0.7149 0.2023 0.7729
C10_10 C 0.7493(11) 0.2478(8) 0.7122(10)
H10_10 H 0.7452 0.2695 0.6941
H11_10 H 0.7422 0.2251 0.6851
C11_10 C 0.7985(10) 0.2677(8) 0.7362(9)
H12_10 H 0.8067 0.2463 0.7387
H13_10 H 0.8187 0.2910 0.7127
C12_10 C 0.7937(9) 0.2828(7) 0.7955(10)
H14_10 H 0.8113 0.2790 0.8236
C13_10 C 0.8075(9) 0.3272(8) 0.7885(10)
O3_10 O 0.7831(5) 0.3410(4) 0.7787(7)
N4_10 N 0.8492(7) 0.3537(6) 0.7942(9)
C14_10 C 0.8806(8) 0.3426(7) 0.8047(11)
H15_10 H 0.8795 0.3227 0.7765
H16_10 H 0.8777 0.3307 0.8426
C15_10 C 0.9225(9) 0.3867(8) 0.7991(11)
H17_10 H 0.9428 0.3896 0.8280
H18_10 H 0.9351 0.3897 0.7617
C16_10 C 0.9096(10) 0.4180(8) 0.8074(13)
H19_10 H 0.9106 0.4246 0.8477
H20_10 H 0.9288 0.4437 0.7872
C17_10 C 0.8665(9) 0.4016(8) 0.7858(12)
H21_10 H 0.8505 0.4122 0.8068
C18_10 C 0.8710(7) 0.4117(9) 0.7285(11)
O4_10 O 0.8668(7) 0.3868(6) 0.6911(9)
N5_10 N 0.8764(5) 0.4477(6) 0.7144(8)
H22_10 H 0.8799 0.4637 0.7434
C19_10 C 0.8776(6) 0.4664(7) 0.6641(10)
C20_10 C 0.8752(6) 0.4502(7) 0.6113(9)
H23_10 H 0.8719 0.4233 0.6088
C21_10 C 0.8773(7) 0.4698(7) 0.5640(9)
H24_10 H 0.8756 0.4571 0.5288
C22_10 C 0.8816(6) 0.5071(7) 0.5663(9)
H25_10 H 0.8831 0.5213 0.5326
C23_10 C 0.8826(5) 0.5055(6) 0.6638(8)
H26_10 H 0.8851 0.5189 0.6986
C1_11 C 0.4963(8) 0.2898(6) 0.4060(8)
H1_11 H 0.4684 0.2716 0.3949
N1_11 N 0.5043(7) 0.2954(5) 0.4633(7)
C2_11 C 0.5437(10) 0.3203(6) 0.4802(10)
H2_11 H 0.5503 0.3233 0.5189
C3_11 C 0.5762(13) 0.3425(9) 0.4385(10)
H3_11 H 0.6039 0.3615 0.4494
C4_11 C 0.5650(11) 0.3348(8) 0.3819(10)
H4_11 H 0.5855 0.3482 0.3539
C5_11 C 0.5239(8) 0.3074(6) 0.3659(10)
C6_11 C 0.5117(9) 0.2980(8) 0.3082(9)
N2_11 N 0.5419(7) 0.3149(5) 0.2670(8)
H5_11 H 0.5678 0.3320 0.2762
C7_11 C 0.5309(11) 0.3047(8) 0.2115(11)
H6_11 H 0.5541 0.3245 0.1875
H7_11 H 0.5067 0.3078 0.2031
C8_11 C 0.5209(12) 0.2617(9) 0.1972(11)
N3_11 N 0.5069(9) 0.2487(7) 0.1425(8)
C9_11 C 0.5083(11) 0.2767(9) 0.0994(9)
H8_11 H 0.5361 0.3018 0.0974
H9_11 H 0.4874 0.2851 0.1062
C10_11 C 0.4985(14) 0.2507(11) 0.0455(10)
H10_11 H 0.5243 0.2548 0.0274
H11_11 H 0.4829 0.2578 0.0184
C11_11 C 0.4692(13) 0.2015(10) 0.0695(9)
H12_11 H 0.4396 0.1933 0.0720
H13_11 H 0.4723 0.1813 0.0460
C12_11 C 0.4891(11) 0.2063(9) 0.1288(10)
H14_11 H 0.4677 0.1887 0.1569
C13_11 C 0.5197(12) 0.1925(9) 0.1218(10)
O3_11 O 0.5579(6) 0.2169(5) 0.1120(7)
N4_11 N 0.5045(9) 0.1508(7) 0.1275(9)
C14_11 C 0.4620(11) 0.1194(8) 0.1380(11)
H15_11 H 0.4432 0.1205 0.1098
H16_11 H 0.4530 0.1223 0.1759
C15_11 C 0.4642(12) 0.0775(9) 0.1324(11)
H17_11 H 0.4468 0.0572 0.1613
H18_11 H 0.4546 0.0649 0.0950
C16_11 C 0.5084(13) 0.0904(10) 0.1407(13)
H19_11 H 0.5140 0.0894 0.1810
H20_11 H 0.5149 0.0712 0.1205
C17_11 C 0.5351(12) 0.1335(9) 0.1191(12)
H21_11 H 0.5617 0.1495 0.1401
C18_11 C 0.5407(11) 0.1290(7) 0.0618(11)
O4_11 O 0.5200(9) 0.1332(7) 0.0244(9)
N5_11 N 0.5713(8) 0.1236(5) 0.0477(8)
H22_11 H 0.5838 0.1201 0.0767
H26_11 H 0.6338 0.1149 0.0319
C33_11 C 0.3879(16) 0.0128(11) 0.5738(15)
H36_11 H 0.4037 0.0024 0.5527
H37_11 H 0.3922 0.0386 0.5557
C34_11 C 0.4017(13) 0.0208(9) 0.6323(14)
H38_11 H 0.4208 0.0507 0.6388
H39_11 H 0.4157 0.0052 0.6429
C35_11 C 0.3627(11) 0.0060(7) 0.6643(11)
C36_10 C 0.3601(13) 0.0424(9) 0.6844(12)
O7_11 O 0.3369(7) 0.0525(4) 0.6655(9)
N10_10 N 0.3880(10) 0.0652(6) 0.7263(9)
C37_10 C 0.4202(14) 0.0603(8) 0.7569(10)
H41_10 H 0.4454 0.0703 0.7337
H42_10 H 0.4097 0.0309 0.7663
C38_10 C 0.4298(15) 0.0867(9) 0.8110(13)
H43_8 H 0.4117 0.0707 0.8426
H44_10 H 0.4593 0.0994 0.8223
C39_10 C 0.4194(14) 0.1191(8) 0.7880(11)
H45_10 H 0.4450 0.1429 0.7731
H46_10 H 0.4095 0.1293 0.8193
C40_10 C 0.3858(11) 0.1025(6) 0.7411(9)
H47_10 H 0.3579 0.0953 0.7560
C41_10 C 0.4001(11) 0.1357(7) 0.6927(10)
N11_10 N 0.3757(9) 0.1556(6) 0.6999(10)
H48_10 H 0.3578 0.1476 0.7277
C42_11 C 0.3794(10) 0.1892(6) 0.6618(11)
C43_10 C 0.3518(10) 0.2015(6) 0.6714(12)
H49_10 H 0.3293 0.1871 0.6968
C44_11 C 0.3571(11) 0.2346(8) 0.6437(11)
H50_11 H 0.3411 0.2470 0.6534
C45_11 C 0.3856(8) 0.2513(6) 0.6009(7)
H51_11 H 0.3858 0.2717 0.5769
N12_11 N 0.4133(7) 0.2386(5) 0.5935(6)
C46_11 C 0.4092(8) 0.2081(6) 0.6243(8)
H52_11 H 0.4285 0.1988 0.6196
C19_11 C 0.5888(9) 0.1224(6) 0.9974(10)
C20_11 C 0.5750(9) 0.1248(6) 0.9446(9)
H23_11 H 0.5514 0.1281 0.9421
C21_11 C 0.5925(10) 0.1227(7) 0.8973(9)
H24_11 H 0.5815 0.1244 0.8621
C22_11 C 0.6255(9) 0.1184(6) 0.8996(9)
H25_11 H 0.6382 0.1169 0.8659
C23_11 C 0.6229(8) 0.1174(5) 0.9971(8)
C24_11 C 0.1609(11) 0.7867(7) 0.6737(11)
H27_10 H 0.1774 0.7765 0.6578
N7_11 N 0.1266(7) 0.7610(5) 0.7019(7)
C25_11 C 0.1028(10) 0.7738(7) 0.7249(13)
H28_11 H 0.0794 0.7550 0.7463
C26_11 C 0.1108(12) 0.8126(9) 0.7186(18)
H29_11 H 0.0913 0.8203 0.7303
C27_11 C 0.1492(12) 0.8426(8) 0.6942(18)
H30_11 H 0.1582 0.8713 0.6964
C28_11 C 0.1728(11) 0.8289(7) 0.6674(11)
C29_10 C 0.2134(17) 0.8538(11) 0.6363(10)
O5_10 O 0.2355(9) 0.8411(6) 0.6190(7)
N8_10 N 0.2219(14) 0.8937(8) 0.6323(11)
H31_10 H 0.2049 0.9024 0.6424
C30_10 C 0.2661(14) 0.9222(8) 0.6076(14)
H32_10 H 0.2779 0.9050 0.5951
H33_10 H 0.2640 0.9372 0.5747
C31_10 C 0.2932(11) 0.9519(7) 0.6495(15)
O6_11 O 0.2838(7) 0.9530(5) 0.7005(8)
N9_10 N 0.3302(10) 0.9792(6) 0.6297(8)
C32_10 C 0.3436(15) 0.9815(8) 0.5747(11)
H34_10 H 0.3279 0.9897 0.5493
H35_10 H 0.3394 0.9543 0.5624
H40_11 H 0.3634 0.9901 0.6976
C24_12 C 0.6258(9) 0.8391(11) 0.0070(11)
N7_12 N 0.6344(5) 0.8734(7) 0.0352(7)
C25_12 C 0.6710(7) 0.8972(10) 0.0582(13)
H28_12 H 0.6756 0.9206 0.0796
C26_12 C 0.7018(8) 0.8892(12) 0.0519(18)
H29_12 H 0.7290 0.9087 0.0636
C27_12 C 0.6934(9) 0.8508(12) 0.0275(18)
H30_12 H 0.7131 0.8418 0.0297
C28_12 C 0.6561(8) 0.8272(11) 0.0007(11)
O6_12 O 0.6692(5) 0.7162(7) 0.0338(8)
H40_12 H 0.6267 0.6366 0.0309
C36_11 C 0.6823(10) 0.6399(13) 0.0177(12)
N10_11 N 0.6772(8) 0.6120(10) 0.0596(9)
C37_11 C 0.6401(11) 0.5798(14) 0.0902(10)
H41_11 H 0.6249 0.5546 0.0670
H42_11 H 0.6212 0.5903 0.0996
C38_11 C 0.6569(12) 0.5702(15) 0.1443(13)
H43_9 H 0.6590 0.5883 0.1759
H44_11 H 0.6401 0.5407 0.1556
C39_11 C 0.6997(11) 0.5806(14) 0.1213(11)
H45_11 H 0.6979 0.5550 0.1064
H46_11 H 0.7198 0.5905 0.1526
C40_11 C 0.7167(9) 0.6142(11) 0.0744(9)
H47_11 H 0.7374 0.6421 0.0893
C41_11 C 0.7356(8) 0.5999(11) 0.0260(10)
N11_11 N 0.7799(7) 0.6243(9) 0.0332(10)
H48_11 H 0.7898 0.6422 0.0610
C43_11 C 0.8497(8) 0.6482(10) 0.0047(12)
H49_11 H 0.8578 0.6707 0.0301
C1_12 C 0.7935(5) 0.5037(8) 0.7393(8)
H1_12 H 0.8032 0.5316 0.7282
N1_12 N 0.7911(5) 0.4957(7) 0.7966(7)
C2_12 C 0.7766(8) 0.4563(10) 0.8135(10)
H2_12 H 0.7730 0.4497 0.8522
C3_12 C 0.7663(9) 0.4238(13) 0.7718(10)
H3_12 H 0.7576 0.3961 0.7827
C4_12 C 0.7698(8) 0.4350(11) 0.7152(10)
H4_12 H 0.7627 0.4145 0.6872
C5_12 C 0.7835(6) 0.4761(8) 0.6992(10)
C6_12 C 0.7863(5) 0.4883(9) 0.6415(9)
N2_12 N 0.7730(5) 0.4581(7) 0.6003(8)
H5_12 H 0.7642 0.4322 0.6095
C7_12 C 0.7738(7) 0.4691(11) 0.5448(11)
H6_12 H 0.7704 0.4459 0.5208
H7_12 H 0.8011 0.4933 0.5364
C8_12 C 0.7408(8) 0.4791(12) 0.5305(11)
N3_12 N 0.7418(5) 0.4931(9) 0.4758(8)
C9_12 C 0.7684(6) 0.4917(11) 0.4327(9)
H8_12 H 0.7657 0.4639 0.4307
H9_12 H 0.7977 0.5126 0.4395
C10_12 C 0.7522(8) 0.5015(14) 0.3788(10)
H10_12 H 0.7305 0.4757 0.3607
H11_12 H 0.7749 0.5171 0.3517
C11_12 C 0.7323(8) 0.5308(13) 0.4028(9)
H12_12 H 0.7537 0.5604 0.4053
H13_12 H 0.7090 0.5277 0.3793
C12_12 C 0.7172(7) 0.5109(11) 0.4621(10)
H14_12 H 0.7210 0.5323 0.4902
C13_12 C 0.6728(8) 0.4803(12) 0.4551(10)
O3_12 O 0.6590(4) 0.4421(6) 0.4453(7)
N4_12 N 0.6463(6) 0.4955(9) 0.4608(9)
C14_12 C 0.6574(7) 0.5380(11) 0.4713(11)
H15_12 H 0.6773 0.5568 0.4431
H16_12 H 0.6693 0.5470 0.5092
C15_12 C 0.6133(8) 0.5358(12) 0.4657(11)
H17_12 H 0.6104 0.5532 0.4946
H18_12 H 0.6103 0.5454 0.4283
C16_12 C 0.5820(8) 0.4916(13) 0.4740(13)
H19_12 H 0.5754 0.4860 0.5143
H20_12 H 0.5563 0.4851 0.4538
C17_12 C 0.5984(8) 0.4649(12) 0.4524(12)
H21_12 H 0.5878 0.4383 0.4734
C18_12 C 0.5883(9) 0.4593(11) 0.3951(11)
O4_12 O 0.6132(6) 0.4800(9) 0.3577(9)
N5_12 N 0.5523(6) 0.4287(8) 0.3810(8)
H22_12 H 0.5363 0.4162 0.4100
C19_12 C 0.5336(7) 0.4112(9) 0.3307(10)
C20_12 C 0.5498(7) 0.4250(9) 0.2779(9)
H23_12 H 0.5767 0.4486 0.2754
C21_12 C 0.5302(7) 0.4075(10) 0.2306(9)
H24_12 H 0.5429 0.4185 0.1954
C22_12 C 0.4929(7) 0.3745(9) 0.2329(9)
H25_12 H 0.4787 0.3618 0.1992
C23_12 C 0.4945(6) 0.3771(8) 0.3304(8)
H26_12 H 0.4811 0.3662 0.3652
H27_11 H 0.5991 0.8226 0.9911
C29_11 C 0.6404(13) 0.7866(17) 0.9696(10)
O5_11 O 0.6056(7) 0.7645(9) 0.9523(7)
N8_11 N 0.6718(12) 0.7781(14) 0.9656(11)
H31_11 H 0.6975 0.7951 0.9757
C30_11 C 0.6561(11) 0.7339(14) 0.9409(14)
H32_11 H 0.6271 0.7221 0.9284
H33_11 H 0.6732 0.7360 0.9080
C31_11 C 0.6587(8) 0.7068(11) 0.9828(15)
N9_11 N 0.6490(8) 0.6698(10) 0.9630(8)
C32_11 C 0.6379(13) 0.6564(15) 0.9080(11)
H34_11 H 0.6618 0.6721 0.8826
H35_11 H 0.6149 0.6606 0.8957
C33_12 C 0.6249(11) 0.6121(16) 0.9071(15)
H36_12 H 0.5987 0.5963 0.8860
H37_12 H 0.6464 0.6078 0.8890
C34_12 C 0.6191(9) 0.5983(13) 0.9656(14)
H38_12 H 0.6299 0.5792 0.9721
H39_12 H 0.5895 0.5843 0.9762
C35_12 C 0.6433(8) 0.6373(11) 0.9976(11)
O7_12 O 0.7156(6) 0.6631(7) 0.9988(9)
C42_12 C 0.8098(8) 0.6206(10) 0.9951(11)
C44_12 C 0.8775(8) 0.6429(11) 0.9770(11)
H50_12 H 0.9059 0.6589 0.9867
C45_12 C 0.8657(6) 0.6144(8) 0.9342(7)
H51_12 H 0.8859 0.6142 0.9102
N12_12 N 0.8253(5) 0.5867(7) 0.9268(6)
C46_12 C 0.7989(6) 0.5908(8) 0.9576(8)
H52_12 H 0.7703 0.5715 0.9529
H43_10 H 0.4117 0.3410 0.9907
C36_12 C 0.0424(9) 0.3601(13) 0.9823(12)
N10_12 N 0.0652(6) 0.3880(10) 0.9404(9)
C37_12 C 0.0603(8) 0.4202(14) 0.9098(10)
H41_12 H 0.0703 0.4454 0.9330
H42_12 H 0.0309 0.4097 0.9004
C38_12 C 0.0867(9) 0.4298(15) 0.8557(13)
H43_11 H 0.0707 0.4117 0.8241
H44_12 H 0.0994 0.4593 0.8444
C39_12 C 0.1191(8) 0.4194(14) 0.8787(11)
H45_12 H 0.1429 0.4450 0.8936
H46_12 H 0.1293 0.4095 0.8474
C40_12 C 0.1025(6) 0.3858(11) 0.9256(9)
H47_12 H 0.0953 0.3579 0.9107
C41_12 C 0.1357(7) 0.4001(11) 0.9740(10)
N11_12 N 0.1556(6) 0.3757(9) 0.9668(10)
H48_12 H 0.1476 0.3578 0.9390
C43_12 C 0.2015(6) 0.3518(10) 0.9953(12)
H49_12 H 0.1871 0.3293 0.9699
H27_12 H 0.7765 0.1774 0.0089
C29_12 C 0.8538(11) 0.2134(17) 0.0304(10)
O5_12 O 0.8411(6) 0.2355(9) 0.0477(7)
N8_12 N 0.8937(8) 0.2219(14) 0.0344(11)
H31_12 H 0.9024 0.2049 0.0243
C30_12 C 0.9222(8) 0.2661(14) 0.0591(14)
H32_12 H 0.9050 0.2779 0.0716
H33_12 H 0.9372 0.2640 0.0920
C31_12 C 0.9519(7) 0.2932(11) 0.0172(15)
N9_12 N 0.9792(6) 0.3302(10) 0.0370(8)
C32_12 C 0.9815(8) 0.3436(15) 0.0920(11)
H34_12 H 0.9897 0.3279 0.1174
H35_12 H 0.9543 0.3394 0.1043
H43_12 H 0.0707 0.6590 0.0093
loop_
_geom_bond_atom_site_label_1
_geom_bond_atom_site_label_2
_geom_bond_site_symmetry_1
_geom_bond_site_symmetry_2
P1 F1 1_555 1_555
F2 P1 1_555 1_555
F3 P1 1_555 1_555
F4 P1 1_555 1_555
F5 P1 1_555 1_555
F6 P1 1_555 1_555
P1_2 F1_2 1_555 1_555
F2_2 P1_2 1_555 1_555
F3_2 P1_2 1_555 1_555
F4_2 P1_2 1_555 1_555
F5_2 P1_2 1_555 1_555
F6_2 P1_2 1_555 1_555
P1_3 F1_3 1_555 1_555
F2_3 P1_3 1_555 1_555
F3_3 P1_3 1_555 1_555
F4_3 P1_3 1_555 1_555
F5_3 P1_3 1_555 1_555
F6_3 P1_3 1_555 1_555
P1_4 F1_4 1_555 1_555
F2_4 P1_4 1_555 1_555
F3_4 P1_4 1_555 1_555
F4_4 P1_4 1_555 1_555
F5_4 P1_4 1_555 1_555
F6_4 P1_4 1_555 1_555
F2_5 P1_5 1_555 1_555
F5_5 P1_5 1_555 1_555
F6_5 P1_5 1_555 1_555
P1_6 F1_6 1_555 1_555
F2_6 P1_6 1_555 1_555
F3_6 P1_6 1_555 1_555
F4_6 P1_6 1_555 1_555
F5_6 P1_6 1_555 1_555
F6_6 P1_6 1_555 1_555
P1_7 F1_7 1_555 1_555
F2_7 P1_7 1_555 1_555
F3_7 P1_7 1_555 1_555
F4_7 P1_7 1_555 1_555
F5_7 P1_7 1_555 1_555
F6_7 P1_7 1_555 1_555
P1_8 F1_8 1_555 1_555
F2_8 P1_8 1_555 1_555
F3_8 P1_8 1_555 1_555
F4_8 P1_8 1_555 1_555
F5_8 P1_8 1_555 1_555
F6_8 P1_8 1_555 1_555
P1_9 F1_9 1_555 1_555
F2_9 P1_9 1_555 1_555
F3_9 P1_9 1_555 1_555
F4_9 P1_9 1_555 1_555
F5_9 P1_9 1_555 1_555
F6_9 P1_9 1_555 1_555
P1_10 F1_10 1_555 1_555
F2_10 P1_10 1_555 1_555
F3_10 P1_10 1_555 1_555
F4_10 P1_10 1_555 1_555
F5_10 P1_10 1_555 1_555
F6_10 P1_10 1_555 1_555
P1_11 F1_11 1_555 1_555
F2_11 P1_11 1_555 1_555
F3_11 P1_11 1_555 1_555
F4_11 P1_11 1_555 1_555
F5_11 P1_11 1_555 1_555
F6_11 P1_11 1_555 1_555
F2_12 P1_12 1_555 1_555
F5_12 P1_12 1_555 1_555
F6_12 P1_12 1_555 1_555
C1 H1 1_555 1_555
N1 C1 1_555 1_555
C2 N1 1_555 1_555
C3 C2 1_555 1_555
H3 C3 1_555 1_555
C4 C3 1_555 1_555
H4 C4 1_555 1_555
C5 C1 1_555 1_555
C6 C5 1_555 1_555
O1 C6 1_555 1_555
N2 C6 1_555 1_555
H5 N2 1_555 1_555
C7 N2 1_555 1_555
H6 C7 1_555 1_555
H7 C7 1_555 1_555
C8 C7 1_555 1_555
O2 C8 1_555 1_555
N3 C8 1_555 1_555
C9 N3 1_555 1_555
H8 C9 1_555 1_555
H9 C9 1_555 1_555
C10 C9 1_555 1_555
H10 C10 1_555 1_555
H11 C10 1_555 1_555
C11 C10 1_555 1_555
H12 C11 1_555 1_555
H13 C11 1_555 1_555
C12 N3 1_555 1_555
H14 C12 1_555 1_555
C13 C12 1_555 1_555
O3 C13 1_555 1_555
N4 C13 1_555 1_555
C14 N4 1_555 1_555
H15 C14 1_555 1_555
H16 C14 1_555 1_555
C15 C14 1_555 1_555
H17 C15 1_555 1_555
H18 C15 1_555 1_555
C16 C15 1_555 1_555
H19 C16 1_555 1_555
H20 C16 1_555 1_555
C17 N4 1_555 1_555
H21 C17 1_555 1_555
C18 C17 1_555 1_555
O4 C18 1_555 1_555
N5 C18 1_555 1_555
H22 N5 1_555 1_555
C19 N5 1_555 1_555
C20 C19 1_555 1_555
H23 C20 1_555 1_555
C21 C20 1_555 1_555
H24 C21 1_555 1_555
C22 C21 1_555 1_555
H25 C22 1_555 1_555
N6 C22 1_555 1_555
C23 C19 1_555 1_555
H26 C23 1_555 1_555
Ag4 O1 1_555 1_555
Ag5 N6 1_555 1_555
Ag6 O2 1_555 1_555
C4 C5 1_555 1_555
C11 C12 1_555 1_555
C16 C17 1_555 1_555
N6 C23 1_555 1_555
H36 C33 1_555 1_555
H37 C33 1_555 1_555
C34 C33 1_555 1_555
H38 C34 1_555 1_555
H39 C34 1_555 1_555
C36 C35 1_555 1_555
O7 C36 1_555 1_555
N10 C36 1_555 1_555
C37 N10 1_555 1_555
H41 C37 1_555 1_555
H42 C37 1_555 1_555
C38 C37 1_555 1_555
H43 C38 1_555 1_555
H44 C38 1_555 1_555
C39 C38 1_555 1_555
H45 C39 1_555 1_555
H46 C39 1_555 1_555
C40 N10 1_555 1_555
H47 C40 1_555 1_555
C41 C40 1_555 1_555
O8 C41 1_555 1_555
N11 C41 1_555 1_555
H48 N11 1_555 1_555
C42 N11 1_555 1_555
C43 C42 1_555 1_555
H49 C43 1_555 1_555
C44 C43 1_555 1_555
H50 C44 1_555 1_555
C45 C44 1_555 1_555
H51 C45 1_555 1_555
N12 Ag2 1_555 1_555
C46 C42 1_555 1_555
H52 C46 1_555 1_555
Ag3 O8 1_555 1_555
O10 Ag2 1_555 1_555
C34 C35 1_555 1_555
C39 C40 1_555 1_555
C45 N12 1_555 1_555
N12 C46 1_555 1_555
Ag1 N7 1_555 1_555
C24 H27 1_555 1_555
N7 C24 1_555 1_555
C25 N7 1_555 1_555
H28 C25 1_555 1_555
C26 C25 1_555 1_555
H29 C26 1_555 1_555
C27 C26 1_555 1_555
H30 C27 1_555 1_555
C28 C24 1_555 1_555
C29 C28 1_555 1_555
O5 C29 1_555 1_555
N8 C29 1_555 1_555
H31 N8 1_555 1_555
C30 N8 1_555 1_555
H32 C30 1_555 1_555
H33 C30 1_555 1_555
C31 C30 1_555 1_555
O6 C31 1_555 1_555
N9 C31 1_555 1_555
C32 N9 1_555 1_555
H34 C32 1_555 1_555
H35 C32 1_555 1_555
O9 Ag1 1_555 1_555
N13 Ag1 1_555 1_555
O11 Ag1 1_555 1_555
C27 C28 1_555 1_555
Ag1_2 N7_2 1_555 1_555
C24_2 H27_2 1_555 1_555
N7_2 C24_2 1_555 1_555
C25_2 N7_2 1_555 1_555
H28_2 C25_2 1_555 1_555
C26_2 C25_2 1_555 1_555
H29_2 C26_2 1_555 1_555
C27_2 C26_2 1_555 1_555
H30_2 C27_2 1_555 1_555
C28_2 C24_2 1_555 1_555
C29_2 C28_2 1_555 1_555
O5_2 C29_2 1_555 1_555
N8_2 C29_2 1_555 1_555
H31_2 N8_2 1_555 1_555
C30_2 N8_2 1_555 1_555
H32_2 C30_2 1_555 1_555
H33_2 C30_2 1_555 1_555
C31_2 C30_2 1_555 1_555
O6_2 C31_2 1_555 1_555
N9_2 C31_2 1_555 1_555
C32_2 N9_2 1_555 1_555
H34_2 C32_2 1_555 1_555
H35_2 C32_2 1_555 1_555
O9_2 Ag1_2 1_555 1_555
N13_2 Ag1_2 1_555 1_555
O11_2 Ag1_2 1_555 1_555
C27_2 C28_2 1_555 1_555
C9_2 N3_2 1_555 1_555
H8_2 C9_2 1_555 1_555
H9_2 C9_2 1_555 1_555
C10_2 C9_2 1_555 1_555
H10_2 C10_2 1_555 1_555
H11_2 C10_2 1_555 1_555
C11_2 C10_2 1_555 1_555
H12_2 C11_2 1_555 1_555
H13_2 C11_2 1_555 1_555
C12_2 N3_2 1_555 1_555
H14_2 C12_2 1_555 1_555
C13_2 C12_2 1_555 1_555
O3_2 C13_2 1_555 1_555
N4_2 C13_2 1_555 1_555
C14_2 N4_2 1_555 1_555
H15_2 C14_2 1_555 1_555
C15_2 C14_2 1_555 1_555
H17_2 C15_2 1_555 1_555
H18_2 C15_2 1_555 1_555
C16_2 C15_2 1_555 1_555
H20_2 C16_2 1_555 1_555
C17_2 N4_2 1_555 1_555
H21_2 C17_2 1_555 1_555
C18_2 C17_2 1_555 1_555
O4_2 C18_2 1_555 1_555
N5_2 C18_2 1_555 1_555
H22_2 N5_2 1_555 1_555
C19_2 N5_2 1_555 1_555
C20_2 C19_2 1_555 1_555
H23_2 C20_2 1_555 1_555
C21_2 C20_2 1_555 1_555
H24_2 C21_2 1_555 1_555
C22_2 C21_2 1_555 1_555
H25_2 C22_2 1_555 1_555
N6_2 C22_2 1_555 1_555
C23_2 C19_2 1_555 1_555
H26_2 C23_2 1_555 1_555
Ag4 N6_2 1_555 1_555
C11_2 C12_2 1_555 1_555
C16_2 C17_2 1_555 1_555
N6_2 C23_2 1_555 1_555
Ag2_2 N1_2 1_555 1_555
C1_2 H1_2 1_555 1_555
N1_2 C1_2 1_555 1_555
C2_2 N1_2 1_555 1_555
H2_2 C2_2 1_555 1_555
C3_2 C2_2 1_555 1_555
H3_2 C3_2 1_555 1_555
C4_2 C3_2 1_555 1_555
H4_2 C4_2 1_555 1_555
C5_2 C1_2 1_555 1_555
C6_2 C5_2 1_555 1_555
O1_2 C6_2 1_555 1_555
N2_2 C6_2 1_555 1_555
H5_2 N2_2 1_555 1_555
C7_2 N2_2 1_555 1_555
H6_2 C7_2 1_555 1_555
H7_2 C7_2 1_555 1_555
C8_2 C7_2 1_555 1_555
O2_2 C8_2 1_555 1_555
H36_2 C33_2 1_555 1_555
H37_2 C33_2 1_555 1_555
C34_2 C33_2 1_555 1_555
H38_2 C34_2 1_555 1_555
H39_2 C34_2 1_555 1_555
C36_2 C35_2 1_555 1_555
O7_2 C36_2 1_555 1_555
N10_2 C36_2 1_555 1_555
C37_2 N10_2 1_555 1_555
H41_2 C37_2 1_555 1_555
H42_2 C37_2 1_555 1_555
C38_2 C37_2 1_555 1_555
H43_2 C38_2 1_555 1_555
H44_2 C38_2 1_555 1_555
C39_2 C38_2 1_555 1_555
H45_2 C39_2 1_555 1_555
H46_2 C39_2 1_555 1_555
C40_2 N10_2 1_555 1_555
H47_2 C40_2 1_555 1_555
C41_2 C40_2 1_555 1_555
O8_2 C41_2 1_555 1_555
N11_2 C41_2 1_555 1_555
H48_2 N11_2 1_555 1_555
C42_2 N11_2 1_555 1_555
C43_2 C42_2 1_555 1_555
H49_2 C43_2 1_555 1_555
C44_2 C43_2 1_555 1_555
H50_2 C44_2 1_555 1_555
C45_2 C44_2 1_555 1_555
H51_2 C45_2 1_555 1_555
N12_2 Ag2_2 1_555 1_555
C46_2 C42_2 1_555 1_555
H52_2 C46_2 1_555 1_555
Ag3_2 O8_2 1_555 1_555
Ag4_2 O1_2 1_555 1_555
Ag6_2 O2_2 1_555 1_555
O10_2 Ag2_2 1_555 1_555
C4_2 C5_2 1_555 1_555
C34_2 C35_2 1_555 1_555
C39_2 C40_2 1_555 1_555
C45_2 N12_2 1_555 1_555
N12_2 C46_2 1_555 1_555
Ag1_3 N7_3 1_555 1_555
Ag2_3 N1_3 1_555 1_555
C1_3 H1_3 1_555 1_555
N1_3 C1_3 1_555 1_555
C2_3 N1_3 1_555 1_555
H2_3 C2_3 1_555 1_555
C3_3 C2_3 1_555 1_555
H3_3 C3_3 1_555 1_555
C4_3 C3_3 1_555 1_555
H4_3 C4_3 1_555 1_555
C5_3 C1_3 1_555 1_555
C6_3 C5_3 1_555 1_555
O1_3 C6_3 1_555 1_555
N2_3 C6_3 1_555 1_555
H5_3 N2_3 1_555 1_555
C7_3 N2_3 1_555 1_555
H6_3 C7_3 1_555 1_555
H7_3 C7_3 1_555 1_555
C8_3 C7_3 1_555 1_555
O2_3 C8_3 1_555 1_555
N3_3 C8_3 1_555 1_555
C9_3 N3_3 1_555 1_555
H8_3 C9_3 1_555 1_555
H9_3 C9_3 1_555 1_555
C10_3 C9_3 1_555 1_555
H10_3 C10_3 1_555 1_555
H11_3 C10_3 1_555 1_555
C11_3 C10_3 1_555 1_555
H12_3 C11_3 1_555 1_555
H13_3 C11_3 1_555 1_555
C12_3 N3_3 1_555 1_555
H14_3 C12_3 1_555 1_555
C13_3 C12_3 1_555 1_555
O3_3 C13_3 1_555 1_555
N4_3 C13_3 1_555 1_555
C14_3 N4_3 1_555 1_555
H15_3 C14_3 1_555 1_555
H16_3 C14_3 1_555 1_555
C15_3 C14_3 1_555 1_555
H17_3 C15_3 1_555 1_555
H18_3 C15_3 1_555 1_555
C16_3 C15_3 1_555 1_555
H19_3 C16_3 1_555 1_555
H20_3 C16_3 1_555 1_555
C17_3 N4_3 1_555 1_555
H21_3 C17_3 1_555 1_555
C18_3 C17_3 1_555 1_555
O4_3 C18_3 1_555 1_555
N5_3 C18_3 1_555 1_555
H22_3 N5_3 1_555 1_555
C19_3 N5_3 1_555 1_555
C20_3 C19_3 1_555 1_555
H23_3 C20_3 1_555 1_555
C21_3 C20_3 1_555 1_555
H24_3 C21_3 1_555 1_555
C22_3 C21_3 1_555 1_555
H25_3 C22_3 1_555 1_555
N6_3 C22_3 1_555 1_555
C23_3 C19_3 1_555 1_555
H26_3 C23_3 1_555 1_555
C24_3 H27_3 1_555 1_555
N7_3 C24_3 1_555 1_555
C25_3 N7_3 1_555 1_555
H28_3 C25_3 1_555 1_555
C26_3 C25_3 1_555 1_555
H29_3 C26_3 1_555 1_555
C27_3 C26_3 1_555 1_555
H30_3 C27_3 1_555 1_555
C28_3 C24_3 1_555 1_555
C29_3 C28_3 1_555 1_555
O5_3 C29_3 1_555 1_555
N8_3 C29_3 1_555 1_555
H31_3 N8_3 1_555 1_555
C30_3 N8_3 1_555 1_555
H32_3 C30_3 1_555 1_555
H33_3 C30_3 1_555 1_555
C31_3 C30_3 1_555 1_555
O6_3 C31_3 1_555 1_555
N9_3 C31_3 1_555 1_555
C32_3 N9_3 1_555 1_555
H34_3 C32_3 1_555 1_555
H35_3 C32_3 1_555 1_555
C33_3 C32_3 1_555 1_555
H36_3 C33_3 1_555 1_555
H37_3 C33_3 1_555 1_555
C34_3 C33_3 1_555 1_555
H38_3 C34_3 1_555 1_555
H39_3 C34_3 1_555 1_555
C35_3 N9_3 1_555 1_555
H40_3 C35_3 1_555 1_555
C36_3 C35_3 1_555 1_555
O7_3 C36_3 1_555 1_555
N10_3 C36_3 1_555 1_555
C37_3 N10_3 1_555 1_555
H41_3 C37_3 1_555 1_555
H42_3 C37_3 1_555 1_555
C38_3 C37_3 1_555 1_555
H44_3 C38_3 1_555 1_555
C39_3 C38_3 1_555 1_555
H45_3 C39_3 1_555 1_555
H46_3 C39_3 1_555 1_555
C40_3 N10_3 1_555 1_555
H47_3 C40_3 1_555 1_555
C41_3 C40_3 1_555 1_555
O8_3 C41_3 1_555 1_555
N11_3 C41_3 1_555 1_555
H48_3 N11_3 1_555 1_555
C42_3 N11_3 1_555 1_555
C43_3 C42_3 1_555 1_555
H49_3 C43_3 1_555 1_555
C44_3 C43_3 1_555 1_555
H50_3 C44_3 1_555 1_555
C45_3 C44_3 1_555 1_555
H51_3 C45_3 1_555 1_555
N12_3 Ag2_3 1_555 1_555
C46_3 C42_3 1_555 1_555
H52_3 C46_3 1_555 1_555
Ag3_3 O8_3 1_555 1_555
Ag5 O1_3 1_555 1_555
Ag4_2 N6_3 1_555 1_555
Ag6_3 O2_3 1_555 1_555
O9_3 Ag1_3 1_555 1_555
O10_3 Ag2_3 1_555 1_555
N13_3 Ag1_3 1_555 1_555
O11_3 Ag1_3 1_555 1_555
C4_3 C5_3 1_555 1_555
C11_3 C12_3 1_555 1_555
C16_3 C17_3 1_555 1_555
N6_3 C23_3 1_555 1_555
C27_3 C28_3 1_555 1_555
C34_3 C35_3 1_555 1_555
C39_3 C40_3 1_555 1_555
C45_3 N12_3 1_555 1_555
N12_3 C46_3 1_555 1_555
Ag3_3 N7_4 1_555 1_555
C24_4 H27_4 1_555 1_555
N7_4 C24_4 1_555 1_555
C25_4 N7_4 1_555 1_555
H28_4 C25_4 1_555 1_555
C26_4 C25_4 1_555 1_555
H29_4 C26_4 1_555 1_555
C27_4 C26_4 1_555 1_555
H30_4 C27_4 1_555 1_555
C28_4 C24_4 1_555 1_555
C29_4 C28_4 1_555 1_555
O5_4 C29_4 1_555 1_555
N8_4 C29_4 1_555 1_555
H31_4 N8_4 1_555 1_555
C30_4 N8_4 1_555 1_555
H32_4 C30_4 1_555 1_555
H33_4 C30_4 1_555 1_555
C31_4 C30_4 1_555 1_555
O6_4 C31_4 1_555 1_555
N9_4 C31_4 1_555 1_555
C32_4 N9_4 1_555 1_555
H34_4 C32_4 1_555 1_555
H35_4 C32_4 1_555 1_555
O9_4 Ag3_3 1_555 1_555
N13_4 Ag3_3 1_555 1_555
C27_4 C28_4 1_555 1_555
C20_4 C19_4 1_555 1_555
H23_4 C20_4 1_555 1_555
C21_4 C20_4 1_555 1_555
H24_4 C21_4 1_555 1_555
C22_4 C21_4 1_555 1_555
H25_4 C22_4 1_555 1_555
N6_4 C22_4 1_555 1_555
C23_4 C19_4 1_555 1_555
Ag5_2 N6_4 1_555 1_555
N6_4 C23_4 1_555 1_555
Ag2_4 N1_4 1_555 1_555
C1_4 H1_4 1_555 1_555
N1_4 C1_4 1_555 1_555
C2_4 N1_4 1_555 1_555
H2_4 C2_4 1_555 1_555
C3_4 C2_4 1_555 1_555
H3_4 C3_4 1_555 1_555
C4_4 C3_4 1_555 1_555
H4_4 C4_4 1_555 1_555
C5_4 C1_4 1_555 1_555
C6_4 C5_4 1_555 1_555
O1_4 C6_4 1_555 1_555
N2_4 C6_4 1_555 1_555
H5_4 N2_4 1_555 1_555
C7_4 N2_4 1_555 1_555
H6_4 C7_4 1_555 1_555
H7_4 C7_4 1_555 1_555
C8_4 C7_4 1_555 1_555
O2_4 C8_4 1_555 1_555
N3_4 C8_4 1_555 1_555
C9_4 N3_4 1_555 1_555
H8_4 C9_4 1_555 1_555
H9_4 C9_4 1_555 1_555
C10_4 C9_4 1_555 1_555
H10_4 C10_4 1_555 1_555
H11_4 C10_4 1_555 1_555
C11_4 C10_4 1_555 1_555
H12_4 C11_4 1_555 1_555
H13_4 C11_4 1_555 1_555
C12_4 N3_4 1_555 1_555
H14_4 C12_4 1_555 1_555
C13_4 C12_4 1_555 1_555
O3_4 C13_4 1_555 1_555
N4_4 C13_4 1_555 1_555
C14_4 N4_4 1_555 1_555
H15_4 C14_4 1_555 1_555
H16_4 C14_4 1_555 1_555
C15_4 C14_4 1_555 1_555
H17_4 C15_4 1_555 1_555
H18_4 C15_4 1_555 1_555
C16_4 C15_4 1_555 1_555
H19_4 C16_4 1_555 1_555
H20_4 C16_4 1_555 1_555
C17_4 N4_4 1_555 1_555
H21_4 C17_4 1_555 1_555
C18_4 C17_4 1_555 1_555
O4_4 C18_4 1_555 1_555
N5_4 C18_4 1_555 1_555
H22_4 N5_4 1_555 1_555
H36_4 C33_4 1_555 1_555
H37_4 C33_4 1_555 1_555
C34_4 C33_4 1_555 1_555
H38_4 C34_4 1_555 1_555
H39_4 C34_4 1_555 1_555
C36_4 C35_4 1_555 1_555
O7_4 C36_4 1_555 1_555
N10_4 C36_4 1_555 1_555
C37_4 N10_4 1_555 1_555
H41_4 C37_4 1_555 1_555
H42_4 C37_4 1_555 1_555
C38_4 C37_4 1_555 1_555
H43_3 C38_4 1_555 1_555
H44_4 C38_4 1_555 1_555
C39_4 C38_4 1_555 1_555
H45_4 C39_4 1_555 1_555
H46_4 C39_4 1_555 1_555
C40_4 N10_4 1_555 1_555
H47_4 C40_4 1_555 1_555
C41_4 C40_4 1_555 1_555
O11_2 C41_4 1_555 1_555
N11_4 C41_4 1_555 1_555
H48_4 N11_4 1_555 1_555
C42_4 N11_4 1_555 1_555
C43_4 C42_4 1_555 1_555
H49_4 C43_4 1_555 1_555
C44_4 C43_4 1_555 1_555
H50_4 C44_4 1_555 1_555
C45_4 C44_4 1_555 1_555
H51_4 C45_4 1_555 1_555
N12_4 Ag2_4 1_555 1_555
C46_4 C42_4 1_555 1_555
H52_4 C46_4 1_555 1_555
Ag4_3 O1_4 1_555 1_555
Ag6_4 O2_4 1_555 1_555
O10_4 Ag2_4 1_555 1_555
C4_4 C5_4 1_555 1_555
C11_4 C12_4 1_555 1_555
C16_4 C17_4 1_555 1_555
C34_4 C35_4 1_555 1_555
C39_4 C40_4 1_555 1_555
C45_4 N12_4 1_555 1_555
N12_4 C46_4 1_555 1_555
Ag2_5 N1_5 1_555 1_555
C1_5 H1_5 1_555 1_555
N1_5 C1_5 1_555 1_555
C2_5 N1_5 1_555 1_555
H2_5 C2_5 1_555 1_555
C3_5 C2_5 1_555 1_555
H3_5 C3_5 1_555 1_555
C4_5 C3_5 1_555 1_555
H4_5 C4_5 1_555 1_555
C5_5 C1_5 1_555 1_555
C6_5 C5_5 1_555 1_555
O1_5 C6_5 1_555 1_555
N2_5 C6_5 1_555 1_555
H5_5 N2_5 1_555 1_555
C7_5 N2_5 1_555 1_555
H6_5 C7_5 1_555 1_555
H7_5 C7_5 1_555 1_555
C8_5 C7_5 1_555 1_555
O2_5 C8_5 1_555 1_555
N3_5 C8_5 1_555 1_555
C9_5 N3_5 1_555 1_555
H8_5 C9_5 1_555 1_555
H9_5 C9_5 1_555 1_555
C10_5 C9_5 1_555 1_555
H10_5 C10_5 1_555 1_555
H11_5 C10_5 1_555 1_555
C11_5 C10_5 1_555 1_555
H12_5 C11_5 1_555 1_555
H13_5 C11_5 1_555 1_555
C12_5 N3_5 1_555 1_555
H14_5 C12_5 1_555 1_555
C13_5 C12_5 1_555 1_555
O3_5 C13_5 1_555 1_555
N4_5 C13_5 1_555 1_555
C14_5 N4_5 1_555 1_555
H15_5 C14_5 1_555 1_555
H16_5 C14_5 1_555 1_555
C15_5 C14_5 1_555 1_555
H17_5 C15_5 1_555 1_555
H18_5 C15_5 1_555 1_555
C16_5 C15_5 1_555 1_555
H19_5 C16_5 1_555 1_555
H20_5 C16_5 1_555 1_555
C17_5 N4_5 1_555 1_555
H21_5 C17_5 1_555 1_555
C18_5 C17_5 1_555 1_555
O4_5 C18_5 1_555 1_555
N5_5 C18_5 1_555 1_555
H22_5 N5_5 1_555 1_555
C19_5 N5_5 1_555 1_555
C20_5 C19_5 1_555 1_555
H23_5 C20_5 1_555 1_555
C21_5 C20_5 1_555 1_555
H24_5 C21_5 1_555 1_555
C22_5 C21_5 1_555 1_555
H25_5 C22_5 1_555 1_555
N6_5 C22_5 1_555 1_555
C23_5 C19_5 1_555 1_555
H26_5 C23_5 1_555 1_555
H36_5 C33_5 1_555 1_555
H37_5 C33_5 1_555 1_555
C34_5 C33_5 1_555 1_555
H38_5 C34_5 1_555 1_555
H39_5 C34_5 1_555 1_555
H50_5 C44_5 1_555 1_555
C45_5 C44_5 1_555 1_555
H51_5 C45_5 1_555 1_555
N12_5 Ag2_5 1_555 1_555
C46_5 C42_5 1_555 1_555
H52_5 C46_5 1_555 1_555
Ag4_4 O1_5 1_555 1_555
Ag4_3 N6_5 1_555 1_555
Ag6_5 O2_5 1_555 1_555
O10_5 Ag2_5 1_555 1_555
C4_5 C5_5 1_555 1_555
C11_5 C12_5 1_555 1_555
C16_5 C17_5 1_555 1_555
N6_5 C23_5 1_555 1_555
C34_5 C35_5 1_555 1_555
C45_5 N12_5 1_555 1_555
N12_5 C46_5 1_555 1_555
Ag3 N7_5 1_555 1_555
N7_5 C24_5 1_555 1_555
C25_5 N7_5 1_555 1_555
H28_5 C25_5 1_555 1_555
C26_5 C25_5 1_555 1_555
H29_5 C26_5 1_555 1_555
C27_5 C26_5 1_555 1_555
H30_5 C27_5 1_555 1_555
C28_5 C24_5 1_555 1_555
O9_5 Ag3 1_555 1_555
N13_5 Ag3 1_555 1_555
C27_5 C28_5 1_555 1_555
O1_6 C6_6 1_555 1_555
N2_6 C6_6 1_555 1_555
H5_6 N2_6 1_555 1_555
C7_6 N2_6 1_555 1_555
H6_6 C7_6 1_555 1_555
H7_6 C7_6 1_555 1_555
C8_6 C7_6 1_555 1_555
O2_6 C8_6 1_555 1_555
N3_6 C8_6 1_555 1_555
C9_6 N3_6 1_555 1_555
H8_6 C9_6 1_555 1_555
H9_6 C9_6 1_555 1_555
C10_6 C9_6 1_555 1_555
H10_6 C10_6 1_555 1_555
H11_6 C10_6 1_555 1_555
C11_6 C10_6 1_555 1_555
H12_6 C11_6 1_555 1_555
H13_6 C11_6 1_555 1_555
C12_6 N3_6 1_555 1_555
H14_6 C12_6 1_555 1_555
C13_6 C12_6 1_555 1_555
O3_6 C13_6 1_555 1_555
N4_6 C13_6 1_555 1_555
C14_6 N4_6 1_555 1_555
H15_6 C14_6 1_555 1_555
H16_6 C14_6 1_555 1_555
C15_6 C14_6 1_555 1_555
H17_6 C15_6 1_555 1_555
H18_6 C15_6 1_555 1_555
C16_6 C15_6 1_555 1_555
H19_6 C16_6 1_555 1_555
H20_6 C16_6 1_555 1_555
C17_6 N4_6 1_555 1_555
H21_6 C17_6 1_555 1_555
C18_6 C17_6 1_555 1_555
O4_6 C18_6 1_555 1_555
N5_6 C18_6 1_555 1_555
H22_6 N5_6 1_555 1_555
C19_6 N5_6 1_555 1_555
C20_6 C19_6 1_555 1_555
H23_6 C20_6 1_555 1_555
C21_6 C20_6 1_555 1_555
H24_6 C21_6 1_555 1_555
C22_6 C21_6 1_555 1_555
H25_6 C22_6 1_555 1_555
N6_6 C22_6 1_555 1_555
C23_6 C19_6 1_555 1_555
H26_6 C23_6 1_555 1_555
Ag5_2 O1_6 1_555 1_555
Ag4_4 N6_6 1_555 1_555
Ag6_6 O2_6 1_555 1_555
C11_6 C12_6 1_555 1_555
C16_6 C17_6 1_555 1_555
N6_6 C23_6 1_555 1_555
Ag3_2 N7_6 1_555 1_555
Ag2_6 N1_6 1_555 1_555
C1_6 H1_6 1_555 1_555
N1_6 C1_6 1_555 1_555
C2_6 N1_6 1_555 1_555
H2_6 C2_6 1_555 1_555
C3_6 C2_6 1_555 1_555
H3_6 C3_6 1_555 1_555
C4_6 C3_6 1_555 1_555
H4_6 C4_6 1_555 1_555
C5_6 C1_6 1_555 1_555
C24_6 H27_5 1_555 1_555
N7_6 C24_6 1_555 1_555
C25_6 N7_6 1_555 1_555
H28_6 C25_6 1_555 1_555
C26_6 C25_6 1_555 1_555
H29_6 C26_6 1_555 1_555
C27_6 C26_6 1_555 1_555
H30_6 C27_6 1_555 1_555
C28_6 C24_6 1_555 1_555
C29_5 C28_6 1_555 1_555
O5_5 C29_5 1_555 1_555
N8_5 C29_5 1_555 1_555
H31_5 N8_5 1_555 1_555
C30_5 N8_5 1_555 1_555
H32_5 C30_5 1_555 1_555
H33_5 C30_5 1_555 1_555
C31_5 C30_5 1_555 1_555
O6_6 C31_5 1_555 1_555
N9_5 C31_5 1_555 1_555
C32_5 N9_5 1_555 1_555
H34_5 C32_5 1_555 1_555
H35_5 C32_5 1_555 1_555
C33_6 C32_5 1_555 1_555
H36_6 C33_6 1_555 1_555
H37_6 C33_6 1_555 1_555
C34_6 C33_6 1_555 1_555
H38_6 C34_6 1_555 1_555
H39_6 C34_6 1_555 1_555
C35_6 N9_5 1_555 1_555
H40_6 C35_6 1_555 1_555
C36_5 C35_6 1_555 1_555
O7_6 C36_5 1_555 1_555
N10_5 C36_5 1_555 1_555
C37_5 N10_5 1_555 1_555
H41_5 C37_5 1_555 1_555
H42_5 C37_5 1_555 1_555
C38_5 C37_5 1_555 1_555
H43_4 C38_5 1_555 1_555
H44_5 C38_5 1_555 1_555
C39_5 C38_5 1_555 1_555
H45_5 C39_5 1_555 1_555
H46_5 C39_5 1_555 1_555
C40_5 N10_5 1_555 1_555
H47_5 C40_5 1_555 1_555
C41_5 C40_5 1_555 1_555
O11 C41_5 1_555 1_555
N11_5 C41_5 1_555 1_555
H48_5 N11_5 1_555 1_555
C42_6 N11_5 1_555 1_555
C43_5 C42_6 1_555 1_555
H49_5 C43_5 1_555 1_555
C44_6 C43_5 1_555 1_555
H50_6 C44_6 1_555 1_555
C45_6 C44_6 1_555 1_555
H51_6 C45_6 1_555 1_555
N12_6 Ag2_6 1_555 1_555
C46_6 C42_6 1_555 1_555
H52_6 C46_6 1_555 1_555
O9_6 Ag3_2 1_555 1_555
O10_6 Ag2_6 1_555 1_555
N13_6 Ag3_2 1_555 1_555
C4_6 C5_6 1_555 1_555
C27_6 C28_6 1_555 1_555
C34_6 C35_6 1_555 1_555
C39_5 C40_5 1_555 1_555
C45_6 N12_6 1_555 1_555
N12_6 C46_6 1_555 1_555
Ag6_4 N1_7 1_555 1_555
C1_7 H1_7 1_555 1_555
N1_7 C1_7 1_555 1_555
C2_7 N1_7 1_555 1_555
H2_7 C2_7 1_555 1_555
C3_7 C2_7 1_555 1_555
H3_7 C3_7 1_555 1_555
C4_7 C3_7 1_555 1_555
H4_7 C4_7 1_555 1_555
C5_7 C1_7 1_555 1_555
C6_7 C5_7 1_555 1_555
O9_2 C6_7 1_555 1_555
N2_7 C6_7 1_555 1_555
H5_7 N2_7 1_555 1_555
C7_7 N2_7 1_555 1_555
H6_7 C7_7 1_555 1_555
H7_7 C7_7 1_555 1_555
C8_7 C7_7 1_555 1_555
O10_4 C8_7 1_555 1_555
N3_7 C8_7 1_555 1_555
C9_7 N3_7 1_555 1_555
H8_7 C9_7 1_555 1_555
H9_7 C9_7 1_555 1_555
C10_7 C9_7 1_555 1_555
H10_7 C10_7 1_555 1_555
H11_7 C10_7 1_555 1_555
C11_7 C10_7 1_555 1_555
H12_7 C11_7 1_555 1_555
H13_7 C11_7 1_555 1_555
C12_7 N3_7 1_555 1_555
H14_7 C12_7 1_555 1_555
C13_7 C12_7 1_555 1_555
O3_7 C13_7 1_555 1_555
N4_7 C13_7 1_555 1_555
C14_7 N4_7 1_555 1_555
H15_7 C14_7 1_555 1_555
H16_7 C14_7 1_555 1_555
C15_7 C14_7 1_555 1_555
H17_7 C15_7 1_555 1_555
H18_7 C15_7 1_555 1_555
C16_7 C15_7 1_555 1_555
H19_7 C16_7 1_555 1_555
H20_7 C16_7 1_555 1_555
C17_7 N4_7 1_555 1_555
H21_7 C17_7 1_555 1_555
C18_7 C17_7 1_555 1_555
O4_7 C18_7 1_555 1_555
N5_7 C18_7 1_555 1_555
H22_7 N5_7 1_555 1_555
C19_7 N5_7 1_555 1_555
C20_7 C19_7 1_555 1_555
H23_7 C20_7 1_555 1_555
C21_7 C20_7 1_555 1_555
H24_7 C21_7 1_555 1_555
C22_7 C21_7 1_555 1_555
H25_7 C22_7 1_555 1_555
N13_3 C22_7 1_555 1_555
C23_7 C19_7 1_555 1_555
H26_7 C23_7 1_555 1_555
H36_7 C33_7 1_555 1_555
H37_7 C33_7 1_555 1_555
C34_7 C33_7 1_555 1_555
H38_7 C34_7 1_555 1_555
H39_7 C34_7 1_555 1_555
C36_6 C35_7 1_555 1_555
O7_7 C36_6 1_555 1_555
N10_6 C36_6 1_555 1_555
C37_6 N10_6 1_555 1_555
H41_6 C37_6 1_555 1_555
H42_6 C37_6 1_555 1_555
C38_6 C37_6 1_555 1_555
H44_6 C38_6 1_555 1_555
C39_6 C38_6 1_555 1_555
H45_6 C39_6 1_555 1_555
H46_6 C39_6 1_555 1_555
C40_6 N10_6 1_555 1_555
H47_6 C40_6 1_555 1_555
C41_6 C40_6 1_555 1_555
O8_4 C41_6 1_555 1_555
N11_6 C41_6 1_555 1_555
H48_6 N11_6 1_555 1_555
C42_7 N11_6 1_555 1_555
C43_6 C42_7 1_555 1_555
H49_6 C43_6 1_555 1_555
C44_7 C43_6 1_555 1_555
H50_7 C44_7 1_555 1_555
C45_7 C44_7 1_555 1_555
H51_7 C45_7 1_555 1_555
N12_7 Ag6_4 1_555 1_555
C46_7 C42_7 1_555 1_555
H52_7 C46_7 1_555 1_555
Ag4_3 O8_4 1_555 1_555
C4_7 C5_7 1_555 1_555
C11_7 C12_7 1_555 1_555
C16_7 C17_7 1_555 1_555
N13_3 C23_7 1_555 1_555
C34_7 C35_7 1_555 1_555
C39_6 C40_6 1_555 1_555
C45_7 N12_7 1_555 1_555
N12_7 C46_7 1_555 1_555
Ag4_2 N7_7 1_555 1_555
C24_7 H27_6 1_555 1_555
N7_7 C24_7 1_555 1_555
C25_7 N7_7 1_555 1_555
H28_7 C25_7 1_555 1_555
C26_7 C25_7 1_555 1_555
H29_7 C26_7 1_555 1_555
C27_7 C26_7 1_555 1_555
H30_7 C27_7 1_555 1_555
C28_7 C24_7 1_555 1_555
C29_6 C28_7 1_555 1_555
O5_6 C29_6 1_555 1_555
N8_6 C29_6 1_555 1_555
H31_6 N8_6 1_555 1_555
C30_6 N8_6 1_555 1_555
H32_6 C30_6 1_555 1_555
H33_6 C30_6 1_555 1_555
C31_6 C30_6 1_555 1_555
O6_7 C31_6 1_555 1_555
N9_6 C31_6 1_555 1_555
C32_6 N9_6 1_555 1_555
H34_6 C32_6 1_555 1_555
H35_6 C32_6 1_555 1_555
O11_4 Ag4_2 1_555 1_555
C27_7 C28_7 1_555 1_555
Ag4 N7_8 1_555 1_555
C24_8 H27_7 1_555 1_555
N7_8 C24_8 1_555 1_555
C25_8 N7_8 1_555 1_555
H28_8 C25_8 1_555 1_555
C26_8 C25_8 1_555 1_555
H29_8 C26_8 1_555 1_555
C27_8 C26_8 1_555 1_555
H30_8 C27_8 1_555 1_555
C28_8 C24_8 1_555 1_555
C29_7 C28_8 1_555 1_555
O5_7 C29_7 1_555 1_555
N8_7 C29_7 1_555 1_555
H31_7 N8_7 1_555 1_555
C30_7 N8_7 1_555 1_555
H32_7 C30_7 1_555 1_555
H33_7 C30_7 1_555 1_555
C31_7 C30_7 1_555 1_555
O6_8 C31_7 1_555 1_555
N9_7 C31_7 1_555 1_555
C32_7 N9_7 1_555 1_555
H34_7 C32_7 1_555 1_555
H35_7 C32_7 1_555 1_555
O11_5 Ag4 1_555 1_555
C27_8 C28_8 1_555 1_555
H36_8 C33_8 1_555 1_555
H37_8 C33_8 1_555 1_555
C34_8 C33_8 1_555 1_555
H38_8 C34_8 1_555 1_555
H39_8 C34_8 1_555 1_555
C36_7 C35_8 1_555 1_555
O7_8 C36_7 1_555 1_555
N10_7 C36_7 1_555 1_555
C37_7 N10_7 1_555 1_555
H41_7 C37_7 1_555 1_555
H42_7 C37_7 1_555 1_555
C38_7 C37_7 1_555 1_555
H43_5 C38_7 1_555 1_555
H44_7 C38_7 1_555 1_555
C39_7 C38_7 1_555 1_555
H45_7 C39_7 1_555 1_555
H46_7 C39_7 1_555 1_555
C40_7 N10_7 1_555 1_555
H47_7 C40_7 1_555 1_555
C41_7 C40_7 1_555 1_555
O8_5 C41_7 1_555 1_555
N11_7 C41_7 1_555 1_555
H48_7 N11_7 1_555 1_555
C42_8 N11_7 1_555 1_555
C43_7 C42_8 1_555 1_555
H49_7 C43_7 1_555 1_555
C44_8 C43_7 1_555 1_555
H50_8 C44_8 1_555 1_555
C45_8 C44_8 1_555 1_555
H51_8 C45_8 1_555 1_555
N12_8 Ag6_6 1_555 1_555
C46_8 C42_8 1_555 1_555
H52_8 C46_8 1_555 1_555
Ag5_2 O8_5 1_555 1_555
C34_8 C35_8 1_555 1_555
C39_7 C40_7 1_555 1_555
C45_8 N12_8 1_555 1_555
N12_8 C46_8 1_555 1_555
C1_8 H1_8 1_555 1_555
N1_8 C1_8 1_555 1_555
C2_8 N1_8 1_555 1_555
C3_8 C2_8 1_555 1_555
H3_8 C3_8 1_555 1_555
C4_8 C3_8 1_555 1_555
H4_8 C4_8 1_555 1_555
C5_8 C1_8 1_555 1_555
C6_8 C5_8 1_555 1_555
O9 C6_8 1_555 1_555
N2_8 C6_8 1_555 1_555
H5_8 N2_8 1_555 1_555
C7_8 N2_8 1_555 1_555
H6_8 C7_8 1_555 1_555
H7_8 C7_8 1_555 1_555
C8_8 C7_8 1_555 1_555
O10_6 C8_8 1_555 1_555
N3_8 C8_8 1_555 1_555
C9_8 N3_8 1_555 1_555
H8_8 C9_8 1_555 1_555
H9_8 C9_8 1_555 1_555
C10_8 C9_8 1_555 1_555
H10_8 C10_8 1_555 1_555
H11_8 C10_8 1_555 1_555
C11_8 C10_8 1_555 1_555
H12_8 C11_8 1_555 1_555
H13_8 C11_8 1_555 1_555
C12_8 N3_8 1_555 1_555
H14_8 C12_8 1_555 1_555
C13_8 C12_8 1_555 1_555
O3_8 C13_8 1_555 1_555
N4_8 C13_8 1_555 1_555
C14_8 N4_8 1_555 1_555
H15_8 C14_8 1_555 1_555
H16_8 C14_8 1_555 1_555
C15_8 C14_8 1_555 1_555
H17_8 C15_8 1_555 1_555
H18_8 C15_8 1_555 1_555
C16_8 C15_8 1_555 1_555
H19_8 C16_8 1_555 1_555
H20_8 C16_8 1_555 1_555
C17_8 N4_8 1_555 1_555
H21_8 C17_8 1_555 1_555
C18_8 C17_8 1_555 1_555
O4_8 C18_8 1_555 1_555
N5_8 C18_8 1_555 1_555
H22_8 N5_8 1_555 1_555
C19_8 N5_8 1_555 1_555
C20_8 C19_8 1_555 1_555
H23_8 C20_8 1_555 1_555
C21_8 C20_8 1_555 1_555
H24_8 C21_8 1_555 1_555
C22_8 C21_8 1_555 1_555
H25_8 C22_8 1_555 1_555
N13_2 C22_8 1_555 1_555
C23_8 C19_8 1_555 1_555
H26_8 C23_8 1_555 1_555
C4_8 C5_8 1_555 1_555
C11_8 C12_8 1_555 1_555
C16_8 C17_8 1_555 1_555
N13_2 C23_8 1_555 1_555
Ag5 N7_9 1_555 1_555
Ag6_5 N1_9 1_555 1_555
C1_9 H1_9 1_555 1_555
N1_9 C1_9 1_555 1_555
C2_9 N1_9 1_555 1_555
H2_9 C2_9 1_555 1_555
C3_9 C2_9 1_555 1_555
H3_9 C3_9 1_555 1_555
C4_9 C3_9 1_555 1_555
H4_9 C4_9 1_555 1_555
C5_9 C1_9 1_555 1_555
C6_9 C5_9 1_555 1_555
O9_3 C6_9 1_555 1_555
N2_9 C6_9 1_555 1_555
H5_9 N2_9 1_555 1_555
C7_9 N2_9 1_555 1_555
H6_9 C7_9 1_555 1_555
H7_9 C7_9 1_555 1_555
C8_9 C7_9 1_555 1_555
O10_5 C8_9 1_555 1_555
C24_9 H27_8 1_555 1_555
N7_9 C24_9 1_555 1_555
C25_9 N7_9 1_555 1_555
H28_9 C25_9 1_555 1_555
C26_9 C25_9 1_555 1_555
H29_9 C26_9 1_555 1_555
C27_9 C26_9 1_555 1_555
H30_9 C27_9 1_555 1_555
C28_9 C24_9 1_555 1_555
C29_8 C28_9 1_555 1_555
O5_8 C29_8 1_555 1_555
N8_8 C29_8 1_555 1_555
H31_8 N8_8 1_555 1_555
C30_8 N8_8 1_555 1_555
H32_8 C30_8 1_555 1_555
H33_8 C30_8 1_555 1_555
C31_8 C30_8 1_555 1_555
O6_9 C31_8 1_555 1_555
N9_8 C31_8 1_555 1_555
C32_8 N9_8 1_555 1_555
H34_8 C32_8 1_555 1_555
H35_8 C32_8 1_555 1_555
C33_9 C32_8 1_555 1_555
H36_9 C33_9 1_555 1_555
H37_9 C33_9 1_555 1_555
C34_9 C33_9 1_555 1_555
H38_9 C34_9 1_555 1_555
H39_9 C34_9 1_555 1_555
C35_9 N9_8 1_555 1_555
H40_9 C35_9 1_555 1_555
C36_8 C35_9 1_555 1_555
O7_9 C36_8 1_555 1_555
N10_8 C36_8 1_555 1_555
C37_8 N10_8 1_555 1_555
H41_8 C37_8 1_555 1_555
H42_8 C37_8 1_555 1_555
C38_8 C37_8 1_555 1_555
H43_6 C38_8 1_555 1_555
H44_8 C38_8 1_555 1_555
C39_8 C38_8 1_555 1_555
H45_8 C39_8 1_555 1_555
H46_8 C39_8 1_555 1_555
C40_8 N10_8 1_555 1_555
H47_8 C40_8 1_555 1_555
C41_8 C40_8 1_555 1_555
O8_6 C41_8 1_555 1_555
N11_8 C41_8 1_555 1_555
H48_8 N11_8 1_555 1_555
C42_9 N11_8 1_555 1_555
C43_8 C42_9 1_555 1_555
H49_8 C43_8 1_555 1_555
C44_9 C43_8 1_555 1_555
H50_9 C44_9 1_555 1_555
C45_9 C44_9 1_555 1_555
H51_9 C45_9 1_555 1_555
N12_9 Ag6_5 1_555 1_555
C46_9 C42_9 1_555 1_555
H52_9 C46_9 1_555 1_555
Ag4_4 O8_6 1_555 1_555
O11_6 Ag5 1_555 1_555
C4_9 C5_9 1_555 1_555
C27_9 C28_9 1_555 1_555
C34_9 C35_9 1_555 1_555
C39_8 C40_8 1_555 1_555
C45_9 N12_9 1_555 1_555
N12_9 C46_9 1_555 1_555
C9_9 N3_9 1_555 1_555
H8_9 C9_9 1_555 1_555
H9_9 C9_9 1_555 1_555
C10_9 C9_9 1_555 1_555
H10_9 C10_9 1_555 1_555
H11_9 C10_9 1_555 1_555
C11_9 C10_9 1_555 1_555
H12_9 C11_9 1_555 1_555
H13_9 C11_9 1_555 1_555
C12_9 N3_9 1_555 1_555
H14_9 C12_9 1_555 1_555
C13_9 C12_9 1_555 1_555
O3_9 C13_9 1_555 1_555
N4_9 C13_9 1_555 1_555
C14_9 N4_9 1_555 1_555
H15_9 C14_9 1_555 1_555
C15_9 C14_9 1_555 1_555
H17_9 C15_9 1_555 1_555
H18_9 C15_9 1_555 1_555
C16_9 C15_9 1_555 1_555
H20_9 C16_9 1_555 1_555
C17_9 N4_9 1_555 1_555
H21_9 C17_9 1_555 1_555
C18_9 C17_9 1_555 1_555
O4_9 C18_9 1_555 1_555
N5_9 C18_9 1_555 1_555
H22_9 N5_9 1_555 1_555
C19_9 N5_9 1_555 1_555
C20_9 C19_9 1_555 1_555
H23_9 C20_9 1_555 1_555
C21_9 C20_9 1_555 1_555
H24_9 C21_9 1_555 1_555
C22_9 C21_9 1_555 1_555
H25_9 C22_9 1_555 1_555
N13 C22_9 1_555 1_555
C23_9 C19_9 1_555 1_555
H26_9 C23_9 1_555 1_555
C11_9 C12_9 1_555 1_555
C16_9 C17_9 1_555 1_555
N13 C23_9 1_555 1_555
Ag4_4 N7_10 1_555 1_555
C24_10 H27_9 1_555 1_555
N7_10 C24_10 1_555 1_555
C25_10 N7_10 1_555 1_555
H28_10 C25_10 1_555 1_555
C26_10 C25_10 1_555 1_555
H29_10 C26_10 1_555 1_555
C27_10 C26_10 1_555 1_555
H30_10 C27_10 1_555 1_555
C28_10 C24_10 1_555 1_555
C29_9 C28_10 1_555 1_555
O5_9 C29_9 1_555 1_555
N8_9 C29_9 1_555 1_555
H31_9 N8_9 1_555 1_555
C30_9 N8_9 1_555 1_555
H32_9 C30_9 1_555 1_555
H33_9 C30_9 1_555 1_555
C31_9 C30_9 1_555 1_555
O6_10 C31_9 1_555 1_555
N9_9 C31_9 1_555 1_555
C32_9 N9_9 1_555 1_555
H34_9 C32_9 1_555 1_555
H35_9 C32_9 1_555 1_555
C27_10 C28_10 1_555 1_555
Ag6 N1_10 1_555 1_555
C1_10 H1_10 1_555 1_555
N1_10 C1_10 1_555 1_555
C2_10 N1_10 1_555 1_555
H2_10 C2_10 1_555 1_555
C3_10 C2_10 1_555 1_555
H3_10 C3_10 1_555 1_555
C4_10 C3_10 1_555 1_555
H4_10 C4_10 1_555 1_555
C5_10 C1_10 1_555 1_555
H36_10 C33_10 1_555 1_555
H37_10 C33_10 1_555 1_555
C34_10 C33_10 1_555 1_555
H38_10 C34_10 1_555 1_555
H39_10 C34_10 1_555 1_555
C36_9 C35_10 1_555 1_555
O7_10 C36_9 1_555 1_555
N10_9 C36_9 1_555 1_555
C37_9 N10_9 1_555 1_555
H41_9 C37_9 1_555 1_555
H42_9 C37_9 1_555 1_555
C38_9 C37_9 1_555 1_555
H43_7 C38_9 1_555 1_555
H44_9 C38_9 1_555 1_555
C39_9 C38_9 1_555 1_555
H45_9 C39_9 1_555 1_555
H46_9 C39_9 1_555 1_555
C40_9 N10_9 1_555 1_555
H47_9 C40_9 1_555 1_555
C41_9 C40_9 1_555 1_555
O11_5 C41_9 1_555 1_555
N11_9 C41_9 1_555 1_555
H48_9 N11_9 1_555 1_555
C42_10 N11_9 1_555 1_555
C43_9 C42_10 1_555 1_555
H49_9 C43_9 1_555 1_555
C44_10 C43_9 1_555 1_555
H50_10 C44_10 1_555 1_555
C45_10 C44_10 1_555 1_555
H51_10 C45_10 1_555 1_555
N12_10 Ag6 1_555 1_555
C46_10 C42_10 1_555 1_555
H52_10 C46_10 1_555 1_555
C4_10 C5_10 1_555 1_555
C34_10 C35_10 1_555 1_555
C39_9 C40_9 1_555 1_555
C45_10 N12_10 1_555 1_555
N12_10 C46_10 1_555 1_555
O9_5 C6_10 1_555 1_555
N2_10 C6_10 1_555 1_555
H5_10 N2_10 1_555 1_555
C7_10 N2_10 1_555 1_555
H6_10 C7_10 1_555 1_555
H7_10 C7_10 1_555 1_555
C8_10 C7_10 1_555 1_555
O10 C8_10 1_555 1_555
N3_10 C8_10 1_555 1_555
C9_10 N3_10 1_555 1_555
H8_10 C9_10 1_555 1_555
H9_10 C9_10 1_555 1_555
C10_10 C9_10 1_555 1_555
H10_10 C10_10 1_555 1_555
H11_10 C10_10 1_555 1_555
C11_10 C10_10 1_555 1_555
H12_10 C11_10 1_555 1_555
H13_10 C11_10 1_555 1_555
C12_10 N3_10 1_555 1_555
H14_10 C12_10 1_555 1_555
C13_10 C12_10 1_555 1_555
O3_10 C13_10 1_555 1_555
N4_10 C13_10 1_555 1_555
C14_10 N4_10 1_555 1_555
H15_10 C14_10 1_555 1_555
H16_10 C14_10 1_555 1_555
C15_10 C14_10 1_555 1_555
H17_10 C15_10 1_555 1_555
H18_10 C15_10 1_555 1_555
C16_10 C15_10 1_555 1_555
H19_10 C16_10 1_555 1_555
H20_10 C16_10 1_555 1_555
C17_10 N4_10 1_555 1_555
H21_10 C17_10 1_555 1_555
C18_10 C17_10 1_555 1_555
O4_10 C18_10 1_555 1_555
N5_10 C18_10 1_555 1_555
H22_10 N5_10 1_555 1_555
C19_10 N5_10 1_555 1_555
C20_10 C19_10 1_555 1_555
H23_10 C20_10 1_555 1_555
C21_10 C20_10 1_555 1_555
H24_10 C21_10 1_555 1_555
C22_10 C21_10 1_555 1_555
H25_10 C22_10 1_555 1_555
N13_6 C22_10 1_555 1_555
C23_10 C19_10 1_555 1_555
H26_10 C23_10 1_555 1_555
C11_10 C12_10 1_555 1_555
C16_10 C17_10 1_555 1_555
N13_6 C23_10 1_555 1_555
Ag6_3 N1_11 1_555 1_555
C1_11 H1_11 1_555 1_555
N1_11 C1_11 1_555 1_555
C2_11 N1_11 1_555 1_555
H2_11 C2_11 1_555 1_555
C3_11 C2_11 1_555 1_555
H3_11 C3_11 1_555 1_555
C4_11 C3_11 1_555 1_555
H4_11 C4_11 1_555 1_555
C5_11 C1_11 1_555 1_555
C6_11 C5_11 1_555 1_555
O9_4 C6_11 1_555 1_555
N2_11 C6_11 1_555 1_555
H5_11 N2_11 1_555 1_555
C7_11 N2_11 1_555 1_555
H6_11 C7_11 1_555 1_555
H7_11 C7_11 1_555 1_555
C8_11 C7_11 1_555 1_555
O10_3 C8_11 1_555 1_555
N3_11 C8_11 1_555 1_555
C9_11 N3_11 1_555 1_555
H8_11 C9_11 1_555 1_555
H9_11 C9_11 1_555 1_555
C10_11 C9_11 1_555 1_555
H10_11 C10_11 1_555 1_555
H11_11 C10_11 1_555 1_555
C11_11 C10_11 1_555 1_555
H12_11 C11_11 1_555 1_555
H13_11 C11_11 1_555 1_555
C12_11 N3_11 1_555 1_555
H14_11 C12_11 1_555 1_555
C13_11 C12_11 1_555 1_555
O3_11 C13_11 1_555 1_555
N4_11 C13_11 1_555 1_555
C14_11 N4_11 1_555 1_555
H15_11 C14_11 1_555 1_555
H16_11 C14_11 1_555 1_555
C15_11 C14_11 1_555 1_555
H17_11 C15_11 1_555 1_555
H18_11 C15_11 1_555 1_555
C16_11 C15_11 1_555 1_555
H19_11 C16_11 1_555 1_555
H20_11 C16_11 1_555 1_555
C17_11 N4_11 1_555 1_555
H21_11 C17_11 1_555 1_555
C18_11 C17_11 1_555 1_555
O4_11 C18_11 1_555 1_555
N5_11 C18_11 1_555 1_555
H22_11 N5_11 1_555 1_555
H36_11 C33_11 1_555 1_555
H37_11 C33_11 1_555 1_555
C34_11 C33_11 1_555 1_555
H38_11 C34_11 1_555 1_555
H39_11 C34_11 1_555 1_555
C36_10 C35_11 1_555 1_555
O7_11 C36_10 1_555 1_555
N10_10 C36_10 1_555 1_555
C37_10 N10_10 1_555 1_555
H41_10 C37_10 1_555 1_555
H42_10 C37_10 1_555 1_555
C38_10 C37_10 1_555 1_555
H43_8 C38_10 1_555 1_555
H44_10 C38_10 1_555 1_555
C39_10 C38_10 1_555 1_555
H45_10 C39_10 1_555 1_555
H46_10 C39_10 1_555 1_555
C40_10 N10_10 1_555 1_555
H47_10 C40_10 1_555 1_555
C41_10 C40_10 1_555 1_555
O11_6 C41_10 1_555 1_555
N11_10 C41_10 1_555 1_555
H48_10 N11_10 1_555 1_555
C42_11 N11_10 1_555 1_555
C43_10 C42_11 1_555 1_555
H49_10 C43_10 1_555 1_555
C44_11 C43_10 1_555 1_555
H50_11 C44_11 1_555 1_555
C45_11 C44_11 1_555 1_555
H51_11 C45_11 1_555 1_555
N12_11 Ag6_3 1_555 1_555
C46_11 C42_11 1_555 1_555
H52_11 C46_11 1_555 1_555
C4_11 C5_11 1_555 1_555
C11_11 C12_11 1_555 1_555
C16_11 C17_11 1_555 1_555
C34_11 C35_11 1_555 1_555
C39_10 C40_10 1_555 1_555
C45_11 N12_11 1_555 1_555
N12_11 C46_11 1_555 1_555
C20_11 C19_11 1_555 1_555
H23_11 C20_11 1_555 1_555
C21_11 C20_11 1_555 1_555
H24_11 C21_11 1_555 1_555
C22_11 C21_11 1_555 1_555
H25_11 C22_11 1_555 1_555
N13_5 C22_11 1_555 1_555
C23_11 C19_11 1_555 1_555
N13_5 C23_11 1_555 1_555
Ag4_3 N7_11 1_555 1_555
C24_11 H27_10 1_555 1_555
N7_11 C24_11 1_555 1_555
C25_11 N7_11 1_555 1_555
H28_11 C25_11 1_555 1_555
C26_11 C25_11 1_555 1_555
H29_11 C26_11 1_555 1_555
C27_11 C26_11 1_555 1_555
H30_11 C27_11 1_555 1_555
C28_11 C24_11 1_555 1_555
C29_10 C28_11 1_555 1_555
O5_10 C29_10 1_555 1_555
N8_10 C29_10 1_555 1_555
H31_10 N8_10 1_555 1_555
C30_10 N8_10 1_555 1_555
H32_10 C30_10 1_555 1_555
H33_10 C30_10 1_555 1_555
C31_10 C30_10 1_555 1_555
O6_11 C31_10 1_555 1_555
N9_10 C31_10 1_555 1_555
C32_10 N9_10 1_555 1_555
H34_10 C32_10 1_555 1_555
H35_10 C32_10 1_555 1_555
C27_11 C28_11 1_555 1_555
Ag5_2 N7_12 1_555 1_555
N7_12 C24_12 1_555 1_555
C25_12 N7_12 1_555 1_555
H28_12 C25_12 1_555 1_555
C26_12 C25_12 1_555 1_555
H29_12 C26_12 1_555 1_555
C27_12 C26_12 1_555 1_555
H30_12 C27_12 1_555 1_555
C28_12 C24_12 1_555 1_555
N10_11 C36_11 1_555 1_555
C37_11 N10_11 1_555 1_555
H41_11 C37_11 1_555 1_555
H42_11 C37_11 1_555 1_555
C38_11 C37_11 1_555 1_555
H43_9 C38_11 1_555 1_555
H44_11 C38_11 1_555 1_555
C39_11 C38_11 1_555 1_555
H45_11 C39_11 1_555 1_555
H46_11 C39_11 1_555 1_555
C40_11 N10_11 1_555 1_555
H47_11 C40_11 1_555 1_555
C41_11 C40_11 1_555 1_555
N11_11 C41_11 1_555 1_555
H48_11 N11_11 1_555 1_555
H49_11 C43_11 1_555 1_555
C27_12 C28_12 1_555 1_555
C39_11 C40_11 1_555 1_555
Ag6_2 N1_12 1_555 1_555
C1_12 H1_12 1_555 1_555
N1_12 C1_12 1_555 1_555
C2_12 N1_12 1_555 1_555
H2_12 C2_12 1_555 1_555
C3_12 C2_12 1_555 1_555
H3_12 C3_12 1_555 1_555
C4_12 C3_12 1_555 1_555
H4_12 C4_12 1_555 1_555
C5_12 C1_12 1_555 1_555
C6_12 C5_12 1_555 1_555
O9_6 C6_12 1_555 1_555
N2_12 C6_12 1_555 1_555
H5_12 N2_12 1_555 1_555
C7_12 N2_12 1_555 1_555
H6_12 C7_12 1_555 1_555
H7_12 C7_12 1_555 1_555
C8_12 C7_12 1_555 1_555
O10_2 C8_12 1_555 1_555
N3_12 C8_12 1_555 1_555
C9_12 N3_12 1_555 1_555
H8_12 C9_12 1_555 1_555
H9_12 C9_12 1_555 1_555
C10_12 C9_12 1_555 1_555
H10_12 C10_12 1_555 1_555
H11_12 C10_12 1_555 1_555
C11_12 C10_12 1_555 1_555
H12_12 C11_12 1_555 1_555
H13_12 C11_12 1_555 1_555
C12_12 N3_12 1_555 1_555
H14_12 C12_12 1_555 1_555
C13_12 C12_12 1_555 1_555
O3_12 C13_12 1_555 1_555
N4_12 C13_12 1_555 1_555
C14_12 N4_12 1_555 1_555
H15_12 C14_12 1_555 1_555
H16_12 C14_12 1_555 1_555
C15_12 C14_12 1_555 1_555
H17_12 C15_12 1_555 1_555
H18_12 C15_12 1_555 1_555
C16_12 C15_12 1_555 1_555
H19_12 C16_12 1_555 1_555
H20_12 C16_12 1_555 1_555
C17_12 N4_12 1_555 1_555
H21_12 C17_12 1_555 1_555
C18_12 C17_12 1_555 1_555
O4_12 C18_12 1_555 1_555
N5_12 C18_12 1_555 1_555
H22_12 N5_12 1_555 1_555
C19_12 N5_12 1_555 1_555
C20_12 C19_12 1_555 1_555
H23_12 C20_12 1_555 1_555
C21_12 C20_12 1_555 1_555
H24_12 C21_12 1_555 1_555
C22_12 C21_12 1_555 1_555
H25_12 C22_12 1_555 1_555
N13_4 C22_12 1_555 1_555
C23_12 C19_12 1_555 1_555
H26_12 C23_12 1_555 1_555
O5_11 C29_11 1_555 1_555
N8_11 C29_11 1_555 1_555
H31_11 N8_11 1_555 1_555
C30_11 N8_11 1_555 1_555
H32_11 C30_11 1_555 1_555
H33_11 C30_11 1_555 1_555
C31_11 C30_11 1_555 1_555
N9_11 C31_11 1_555 1_555
C32_11 N9_11 1_555 1_555
H34_11 C32_11 1_555 1_555
H35_11 C32_11 1_555 1_555
C33_12 C32_11 1_555 1_555
H36_12 C33_12 1_555 1_555
H37_12 C33_12 1_555 1_555
C34_12 C33_12 1_555 1_555
H38_12 C34_12 1_555 1_555
H39_12 C34_12 1_555 1_555
C35_12 N9_11 1_555 1_555
H50_12 C44_12 1_555 1_555
C45_12 C44_12 1_555 1_555
H51_12 C45_12 1_555 1_555
N12_12 Ag6_2 1_555 1_555
C46_12 C42_12 1_555 1_555
H52_12 C46_12 1_555 1_555
C4_12 C5_12 1_555 1_555
C11_12 C12_12 1_555 1_555
C16_12 C17_12 1_555 1_555
N13_4 C23_12 1_555 1_555
C34_12 C35_12 1_555 1_555
C45_12 N12_12 1_555 1_555
N12_12 C46_12 1_555 1_555
N10_12 C36_12 1_555 1_555
C37_12 N10_12 1_555 1_555
H41_12 C37_12 1_555 1_555
H42_12 C37_12 1_555 1_555
C38_12 C37_12 1_555 1_555
H43_11 C38_12 1_555 1_555
H44_12 C38_12 1_555 1_555
C39_12 C38_12 1_555 1_555
H45_12 C39_12 1_555 1_555
H46_12 C39_12 1_555 1_555
C40_12 N10_12 1_555 1_555
H47_12 C40_12 1_555 1_555
C41_12 C40_12 1_555 1_555
N11_12 C41_12 1_555 1_555
H48_12 N11_12 1_555 1_555
H49_12 C43_12 1_555 1_555
C39_12 C40_12 1_555 1_555
O5_12 C29_12 1_555 1_555
N8_12 C29_12 1_555 1_555
H31_12 N8_12 1_555 1_555
C30_12 N8_12 1_555 1_555
H32_12 C30_12 1_555 1_555
H33_12 C30_12 1_555 1_555
C31_12 C30_12 1_555 1_555
N9_12 C31_12 1_555 1_555
C32_12 N9_12 1_555 1_555
H34_12 C32_12 1_555 1_555
H35_12 C32_12 1_555 1_555

#END
