
###############################################################################
#
# This file contains modified crystal structure data generated from the
# MOF subset of the Cambridge Structural Database (CSD) v543 
# hosted by the Cambridge Crystallographic Data Centre (CCDC).
#
# This work is licensed under the Creative Commons
# Attribution-NonCommercial-ShareAlike 4.0 International License.
# To view a copy of this license, visit
# http://creativecommons.org/licenses/by-nc-sa/4.0/
# or send a letter to
# Creative Commons, PO Box 1866, Mountain View, CA 94042, USA.
#
# CIF created using the CSD Python API on 29 September 2022
# The structure has been converted into the P1 space group
# The structure has a 3D framework
# The original CSD entry POGDAS is in the hexagonal crystal system
# The original CSD entry POGDAS is in a Sohncke space group
# The framework has been calculated to contain at least 10.0% void space
# The void calculation uses a probe of radius 1.32A, grid spacing 0.4
# The framework is charged, counterions have been retained in the structure
# H atom positions have been added when not included in the experimental data
#
###############################################################################

data_POGDAS
_chemical_formula_moiety         '(C564 H648 Ag24 F36 N144 O144 S12 12+)n'
_symmetry_cell_setting           triclinic
_symmetry_space_group_name_H-M   'P 1'
_symmetry_Int_Tables_number      1
_space_group_name_Hall           'P 1'
loop_
_symmetry_equiv_pos_site_id
_symmetry_equiv_pos_as_xyz
1 x,y,z
_cell_length_a                   37.693(2)
_cell_length_b                   37.693(2)
_cell_length_c                   23.893(3)
_cell_angle_alpha                90
_cell_angle_beta                 90
_cell_angle_gamma                120
_cell_volume                     29398.3
loop_
_atom_site_label
_atom_site_type_symbol
_atom_site_fract_x
_atom_site_fract_y
_atom_site_fract_z
F1 F 0.3959(8) 0.4359(5) 0.0936(7)
F2 F 0.4367(5) 0.4994(5) 0.1039(5)
F3 F 0.4396(5) 0.4610(8) 0.1684(9)
C1 C 0.4178(6) 0.4662(7) 0.1299(10)
S1 S 0.37406(15) 0.46675(15) 0.1710(3)
O1 O 0.3597(6) 0.4786(6) 0.0993(8)
O2 O 0.3443(8) 0.4306(6) 0.1910(13)
O3 O 0.3846(5) 0.5026(5) 0.1975(7)
F1_2 F 0.5641(5) 0.9600(9) 0.7603(7)
F2_2 F 0.5006(5) 0.9373(7) 0.7706(5)
F3_2 F 0.5390(8) 0.9786(9) 0.8351(9)
C1_2 C 0.5338(7) 0.9516(9) 0.7966(10)
S1_2 S 0.53325(15) 0.90731(21) 0.8377(3)
O1_2 O 0.5214(6) 0.8811(8) 0.7660(8)
O2_2 O 0.5694(6) 0.9137(10) 0.8577(13)
O3_2 O 0.4974(5) 0.8820(7) 0.8642(7)
F1_3 F 0.0400(9) 0.6041(8) 0.4269(7)
F2_3 F 0.0627(7) 0.5633(5) 0.4372(5)
F3_3 F 0.0214(9) 0.5604(5) 0.5017(9)
C1_3 C 0.0484(9) 0.5822(6) 0.4632(10)
S1_3 S 0.09269(21) 0.62594(15) 0.5043(3)
O1_3 O 0.1189(8) 0.6403(6) 0.4326(8)
O2_3 O 0.0863(10) 0.6557(8) 0.5243(13)
O3_3 O 0.1180(7) 0.6154(5) 0.5308(7)
F1_4 F 0.6041(8) 0.5641(5) 0.5936(7)
F2_4 F 0.5633(5) 0.5006(5) 0.6039(5)
F3_4 F 0.5604(5) 0.5390(8) 0.6684(9)
C1_4 C 0.5822(6) 0.5338(7) 0.6299(10)
S1_4 S 0.62594(15) 0.53325(15) 0.6710(3)
O1_4 O 0.6403(6) 0.5214(6) 0.5993(8)
O2_4 O 0.6557(8) 0.5694(6) 0.6910(13)
O3_4 O 0.6154(5) 0.4974(5) 0.6975(7)
F1_5 F 0.4359(5) 0.0400(9) 0.2603(7)
F2_5 F 0.4994(5) 0.0627(7) 0.2706(5)
F3_5 F 0.4610(8) 0.0214(9) 0.3351(9)
C1_5 C 0.4662(7) 0.0484(9) 0.2966(10)
S1_5 S 0.46675(15) 0.09269(21) 0.3377(3)
O1_5 O 0.4786(6) 0.1189(8) 0.2660(8)
O2_5 O 0.4306(6) 0.0863(10) 0.3577(13)
O3_5 O 0.5026(5) 0.1180(7) 0.3642(7)
F3_6 F 0.9786(9) 0.4396(5) 0.0017(9)
S1_6 S 0.90731(21) 0.37406(15) 0.0043(3)
O2_6 O 0.9137(10) 0.3443(8) 0.0243(13)
O3_6 O 0.8820(7) 0.3846(5) 0.0308(7)
F1_6 F 0.9600(9) 0.3959(8) 0.9269(7)
F2_6 F 0.9373(7) 0.4367(5) 0.9372(5)
C1_6 C 0.9516(9) 0.4178(6) 0.9632(10)
O1_6 O 0.8811(8) 0.3597(6) 0.9326(8)
F1_7 F 0.4359(5) 0.3959(8) 0.5731(7)
F2_7 F 0.4994(5) 0.4367(5) 0.5628(5)
F3_7 F 0.4610(8) 0.4396(5) 0.4983(9)
C1_7 C 0.4662(7) 0.4178(6) 0.5368(10)
S1_7 S 0.46675(15) 0.37406(15) 0.4957(3)
O1_7 O 0.4786(6) 0.3597(6) 0.5674(8)
O2_7 O 0.4306(6) 0.3443(8) 0.4757(13)
O3_7 O 0.5026(5) 0.3846(5) 0.4692(7)
F1_8 F 0.9600(9) 0.5641(5) 0.9064(7)
F2_8 F 0.9373(7) 0.5006(5) 0.8961(5)
F3_8 F 0.9786(9) 0.5390(8) 0.8316(9)
C1_8 C 0.9516(9) 0.5338(7) 0.8701(10)
S1_8 S 0.90731(21) 0.53325(15) 0.8290(3)
O1_8 O 0.8811(8) 0.5214(6) 0.9007(8)
O2_8 O 0.9137(10) 0.5694(6) 0.8090(13)
O3_8 O 0.8820(7) 0.4974(5) 0.8025(7)
F1_9 F 0.6041(8) 0.0400(9) 0.2397(7)
F2_9 F 0.5633(5) 0.0627(7) 0.2294(5)
F3_9 F 0.5604(5) 0.0214(9) 0.1649(9)
C1_9 C 0.5822(6) 0.0484(9) 0.2034(10)
S1_9 S 0.62594(15) 0.09269(21) 0.1623(3)
O1_9 O 0.6403(6) 0.1189(8) 0.2340(8)
O2_9 O 0.6557(8) 0.0863(10) 0.1423(13)
O3_9 O 0.6154(5) 0.1180(7) 0.1358(7)
F1_10 F 0.5641(5) 0.6041(8) 0.0731(7)
F2_10 F 0.5006(5) 0.5633(5) 0.0628(5)
C1_10 C 0.5338(7) 0.5822(6) 0.0368(10)
O1_10 O 0.5214(6) 0.6403(6) 0.0674(8)
F3_10 F 0.5390(8) 0.5604(5) 0.9983(9)
S1_10 S 0.53325(15) 0.62594(15) 0.9957(3)
O2_10 O 0.5694(6) 0.6557(8) 0.9757(13)
O3_10 O 0.4974(5) 0.6154(5) 0.9692(7)
F1_11 F 0.0400(9) 0.4359(5) 0.4064(7)
F2_11 F 0.0627(7) 0.4994(5) 0.3961(5)
F3_11 F 0.0214(9) 0.4610(8) 0.3316(9)
C1_11 C 0.0484(9) 0.4662(7) 0.3701(10)
S1_11 S 0.09269(21) 0.46675(15) 0.3290(3)
O1_11 O 0.1189(8) 0.4786(6) 0.4007(8)
O2_11 O 0.0863(10) 0.4306(6) 0.3090(13)
O3_11 O 0.1180(7) 0.5026(5) 0.3025(7)
F1_12 F 0.3959(8) 0.9600(9) 0.7397(7)
F2_12 F 0.4367(5) 0.9373(7) 0.7294(5)
F3_12 F 0.4396(5) 0.9786(9) 0.6649(9)
C1_12 C 0.4178(6) 0.9516(9) 0.7034(10)
S1_12 S 0.37406(15) 0.90731(21) 0.6623(3)
O1_12 O 0.3597(6) 0.8811(8) 0.7340(8)
O2_12 O 0.3443(8) 0.9137(10) 0.6423(13)
O3_12 O 0.3846(5) 0.8820(7) 0.6358(7)
Ag1 Ag 0.18143(3) 0.45395(3) 0.36073(5)
C2 C 0.2044(4) 0.4912(4) 0.2419(6)
H1 H 0.1958 0.4637 0.2320
N1 N 0.2017(4) 0.4987(3) 0.2946(5)
C3 C 0.2110(9) 0.5373(6) 0.3059(7)
H2 H 0.2037 0.5427 0.3417
C4 C 0.2294(13) 0.5683(8) 0.2708(10)
H3 H 0.2400 0.5956 0.2836
C5 C 0.2331(8) 0.5606(5) 0.2146(7)
H4 H 0.2449 0.5820 0.1876
C6 C 0.2184(5) 0.5193(4) 0.2000(7)
C7 C 0.2210(4) 0.5060(5) 0.1385(5)
O4 O 0.2071(3) 0.4699(3) 0.1293(4)
N2 N 0.2359(4) 0.5354(4) 0.1005(5)
H5 H 0.2466 0.5612 0.1105
C8 C 0.2343(5) 0.5246(5) 0.0435(6)
H6 H 0.2379 0.5478 0.0199
H7 H 0.2070 0.5008 0.0351
C9 C 0.2684(4) 0.5136(4) 0.0285(8)
O5 O 0.2945(3) 0.5164(3) 0.0647(5)
C25 C 0.3701(5) 0.1656(4) 0.5056(5)
H27 H 0.3969 0.1845 0.4926
N7 N 0.3637(3) 0.1326(4) 0.5314(6)
C26 C 0.3278(5) 0.1053(7) 0.5495(14)
H28 H 0.3234 0.0820 0.5704
C27 C 0.2956(8) 0.1127(12) 0.5361(19)
H29 H 0.2682 0.0910 0.5412
C28 C 0.3007(8) 0.1457(10) 0.5181(18)
H30 H 0.2790 0.1516 0.5190
C29 C 0.3384(8) 0.1739(6) 0.4967(8)
C30 C 0.3545(9) 0.2152(7) 0.4685(9)
O8 O 0.3848(8) 0.2360(5) 0.4497(7)
N8 N 0.3226(11) 0.2247(9) 0.4611(8)
H31 H 0.2988 0.2065 0.4754
C31 C 0.3228(17) 0.2579(13) 0.4350(14)
H32 H 0.2954 0.2496 0.4197
H33 H 0.3428 0.2680 0.4039
C32 C 0.3362(11) 0.2957(11) 0.4844(15)
O9 O 0.3236(6) 0.2819(5) 0.5330(8)
N9 N 0.3389(8) 0.3253(7) 0.4613(8)
C33 C 0.3504(17) 0.3395(14) 0.4040(10)
H34 H 0.3285 0.3213 0.3777
H35 H 0.3760 0.3397 0.3937
C34 C 0.3570(14) 0.3832(13) 0.4017(11)
H36 H 0.3796 0.4010 0.3761
H37 H 0.3317 0.3831 0.3903
C35 C 0.3671(10) 0.3954(11) 0.4582(12)
H38 H 0.3607 0.4172 0.4671
H39 H 0.3969 0.4066 0.4640
C36 C 0.3425(11) 0.3581(9) 0.4983(10)
H40 H 0.3604 0.3605 0.5308
C37 C 0.3054(9) 0.3541(8) 0.5190(12)
O10 O 0.2733(6) 0.3309(5) 0.4930(9)
N10 N 0.3061(6) 0.3787(7) 0.5557(7)
C38 C 0.3425(8) 0.4085(10) 0.5893(10)
H41 H 0.3587 0.3960 0.6021
H42 H 0.3603 0.4334 0.5673
C39 C 0.3276(18) 0.416(2) 0.628(3)
H43 H 0.3466 0.4450 0.6393
H44 H 0.3257 0.3986 0.6597
C40 C 0.2844(10) 0.4113(12) 0.6185(10)
H45 H 0.2862 0.4367 0.6037
H46 H 0.2679 0.4031 0.6533
C41 C 0.2657(8) 0.3743(8) 0.5716(8)
H47 H 0.2457 0.3468 0.5872
C42 C 0.2484(5) 0.3889(5) 0.5281(7)
O11 O 0.2703(4) 0.4192(4) 0.4943(5)
N11 N 0.2095(6) 0.3707(5) 0.5275(6)
H48 H 0.1983 0.3503 0.5515
C43 C 0.1812(6) 0.3754(6) 0.4985(9)
C44 C 0.1378(7) 0.3437(8) 0.5014(12)
H49 H 0.1287 0.3206 0.5251
C45 C 0.1101(7) 0.3491(7) 0.4674(12)
H50 H 0.0816 0.3304 0.4708
C46 C 0.1227(5) 0.3792(6) 0.4313(8)
H51 H 0.1029 0.3812 0.4091
N12 N 0.1643(3) 0.4087(3) 0.4241(5)
C47 C 0.1927(4) 0.4060(4) 0.4571(6)
H52 H 0.2210 0.4253 0.4518
Ag3 Ag 0.12870(4) 0.41823(3) 0.11690(5)
Ag4 Ag 0.41823(3) 0.12870(4) 0.54976(5)
Ag2 Ag 0.58177(3) 0.71047(3) 0.78357(5)
N3 N 0.2666(4) 0.4998(4) 0.9760(5)
C10 C 0.2385(6) 0.4968(9) 0.9317(7)
H8 H 0.2098 0.4765 0.9408
H9 H 0.2408 0.5237 0.9239
C11 C 0.2538(5) 0.4832(8) 0.8850(8)
H10 H 0.2744 0.5072 0.8637
H11 H 0.2309 0.4658 0.8594
C12 C 0.2721(8) 0.4600(6) 0.9062(9)
H12 H 0.2930 0.4610 0.8801
H13 H 0.2512 0.4311 0.9135
C13 C 0.2909(5) 0.4823(5) 0.9588(7)
H14 H 0.2889 0.4623 0.9878
C14 C 0.3360(6) 0.5151(6) 0.9514(7)
O6 O 0.3462(3) 0.5515(4) 0.9421(4)
N4 N 0.3628(5) 0.5034(5) 0.9505(6)
C15 C 0.3536(7) 0.4594(7) 0.9582(13)
H15 H 0.3326 0.4405 0.9314
H16 H 0.3444 0.4495 0.9968
C16 C 0.3974(7) 0.4639(7) 0.9456(11)
H17 H 0.4015 0.4445 0.9689
H18 H 0.3993 0.4579 0.9057
C17 C 0.4296(7) 0.5076(8) 0.9592(11)
H19 H 0.4550 0.5163 0.9373
H20 H 0.4363 0.5110 0.9996
C18 C 0.4069(5) 0.5333(7) 0.9406(9)
H21 H 0.4163 0.5584 0.9642
C19 C 0.4139(5) 0.5443(6) 0.8790(7)
O7 O 0.3900(4) 0.5234(4) 0.8431(5)
N5 N 0.4500(4) 0.5776(4) 0.8690(5)
H22 H 0.4648 0.5901 0.8987
C20 C 0.4676(4) 0.5954(5) 0.8167(7)
C21 C 0.4500(5) 0.5834(5) 0.7649(7)
H23 H 0.4231 0.5606 0.7614
C22 C 0.4715(5) 0.6046(6) 0.7175(7)
H24 H 0.4606 0.5959 0.6810
C23 C 0.5095(5) 0.6388(4) 0.7261(8)
H25 H 0.5233 0.6546 0.6940
N6 N 0.5279(4) 0.6513(3) 0.7731(6)
C24 C 0.5073(5) 0.6308(5) 0.8190(7)
H26 H 0.5198 0.6402 0.8545
O12 O 0.5900(8) 0.6971(8) 0.8918(10)
O13 O 0.5301(3) 0.7372(4) 0.7960(4)
N13 N 0.6363(3) 0.7689(5) 0.8019(6)
H53 H 0.593611 0.672835 0.895174
H54 H 0.614328 0.721489 0.907631
C25_2 C 0.8344(4) 0.2045(6) 0.1723(5)
H27_2 H 0.8155 0.2124 0.1593
N7_2 N 0.8674(4) 0.2311(5) 0.1981(6)
C26_2 C 0.8947(7) 0.2225(9) 0.2162(14)
H28_2 H 0.9180 0.2414 0.2371
C27_2 C 0.8873(12) 0.1829(14) 0.2028(19)
H29_2 H 0.9090 0.1772 0.2079
C28_2 C 0.8543(10) 0.1550(13) 0.1848(18)
H30_2 H 0.8484 0.1274 0.1857
C29_2 C 0.8261(6) 0.1645(10) 0.1634(8)
C30_2 C 0.7848(7) 0.1393(11) 0.1352(9)
O8_2 O 0.7640(5) 0.1488(9) 0.1164(7)
N8_2 N 0.7753(9) 0.0979(14) 0.1278(8)
H31_2 H 0.7935 0.0923 0.1421
C31_2 C 0.7421(13) 0.0649(21) 0.1017(14)
H32_2 H 0.7504 0.0458 0.0864
H33_2 H 0.7320 0.0748 0.0706
C32_2 C 0.7043(11) 0.0405(16) 0.1511(15)
O9_2 O 0.7181(5) 0.0417(8) 0.1997(8)
N9_2 N 0.6747(7) 0.0136(11) 0.1280(8)
C33_2 C 0.6605(14) 0.0109(22) 0.0707(10)
H34_2 H 0.6787 0.0072 0.0444
H35_2 H 0.6603 0.0363 0.0604
Ag4_2 Ag 0.87130(4) 0.28953(5) 0.21643(5)
Ag2_2 Ag 0.28953(3) 0.87130(4) 0.45024(5)
C2_2 C 0.5088(4) 0.7132(6) 0.9086(6)
H1_2 H 0.5363 0.7321 0.8987
N1_2 N 0.5013(3) 0.7030(5) 0.9613(5)
C3_2 C 0.4627(6) 0.6737(11) 0.9726(7)
C4_2 C 0.4317(8) 0.6611(15) 0.9375(10)
H3_2 H 0.4044 0.6444 0.9503
C5_2 C 0.4394(5) 0.6725(9) 0.8813(7)
H4_2 H 0.4180 0.6629 0.8543
C6_2 C 0.4807(4) 0.6991(6) 0.8667(7)
C7_2 C 0.4940(5) 0.7150(6) 0.8052(5)
N2_2 N 0.4646(4) 0.7005(6) 0.7672(5)
H5_2 H 0.4388 0.6854 0.7772
C8_2 C 0.4754(5) 0.7097(7) 0.7102(6)
H6_2 H 0.4522 0.6901 0.6866
H7_2 H 0.4992 0.7062 0.7018
C9_2 C 0.4864(4) 0.7548(6) 0.6952(8)
O5_2 O 0.4836(3) 0.7781(4) 0.7314(5)
N3_2 N 0.5002(4) 0.7668(6) 0.6427(5)
C10_2 C 0.5032(9) 0.7417(11) 0.5984(7)
H8_2 H 0.5235 0.7333 0.6075
H9_2 H 0.4763 0.7171 0.5906
C11_2 C 0.5168(8) 0.7706(9) 0.5517(8)
H10_2 H 0.4928 0.7672 0.5304
H11_2 H 0.5342 0.7651 0.5261
C12_2 C 0.5400(6) 0.8121(10) 0.5729(9)
H12_2 H 0.5390 0.8320 0.5468
H13_2 H 0.5689 0.8201 0.5802
C13_2 C 0.5177(5) 0.8086(7) 0.6255(7)
H14_2 H 0.5377 0.8266 0.6545
C14_2 C 0.4849(6) 0.8209(8) 0.6181(7)
O6_2 O 0.4485(4) 0.7947(5) 0.6088(4)
N4_2 N 0.4966(5) 0.8594(7) 0.6172(6)
C15_2 C 0.5406(7) 0.8942(10) 0.6249(13)
H15_2 H 0.5595 0.8921 0.5981
H16_2 H 0.5505 0.8949 0.6635
C16_2 C 0.5361(7) 0.9335(10) 0.6123(11)
H17_2 H 0.5555 0.9570 0.6356
H18_2 H 0.5421 0.9414 0.5724
C17_2 C 0.4924(8) 0.9220(11) 0.6259(11)
H19_2 H 0.4837 0.9387 0.6040
H20_2 H 0.4890 0.9253 0.6663
C18_2 C 0.4667(7) 0.8736(9) 0.6073(9)
H21_2 H 0.4416 0.8579 0.6309
C19_2 C 0.4557(6) 0.8696(8) 0.5457(7)
O7_2 O 0.4766(4) 0.8666(6) 0.5098(5)
N5_2 N 0.4224(4) 0.8724(6) 0.5357(5)
H22_2 H 0.4099 0.8747 0.5654
C20_2 C 0.4046(5) 0.8722(6) 0.4834(7)
C21_2 C 0.4166(5) 0.8666(7) 0.4316(7)
H23_2 H 0.4394 0.8625 0.4281
C22_2 C 0.3954(6) 0.8669(8) 0.3842(7)
H24_2 H 0.4041 0.8647 0.3477
C23_2 C 0.3612(4) 0.8707(6) 0.3928(8)
H25_2 H 0.3454 0.8687 0.3607
N6_2 N 0.3487(3) 0.8766(5) 0.4398(6)
C24_2 C 0.3692(5) 0.8765(7) 0.4857(7)
H26_2 H 0.3598 0.8796 0.5212
O12_2 O 0.3029(8) 0.8929(11) 0.5585(10)
O13_2 O 0.2628(4) 0.7929(5) 0.4626(4)
N13_2 N 0.2311(5) 0.8674(6) 0.4686(6)
H53_2 H 0.327165 0.920776 0.561841
H54_2 H 0.278511 0.89284 0.574297
Ag1_2 Ag 0.27252(4) 0.81857(3) 0.69406(5)
C2_3 C 0.2868(6) 0.7956(4) 0.5752(6)
H1_3 H 0.2679 0.8042 0.5653
N1_3 N 0.2970(5) 0.7983(4) 0.6279(5)
C3_3 C 0.3263(11) 0.7890(9) 0.6392(7)
H2_2 H 0.3390 0.7963 0.6750
C4_3 C 0.3389(15) 0.7706(13) 0.6041(10)
H3_3 H 0.3556 0.7600 0.6169
C5_3 C 0.3275(9) 0.7669(8) 0.5479(7)
H4_3 H 0.3371 0.7551 0.5209
C6_3 C 0.3009(6) 0.7816(5) 0.5333(7)
C7_3 C 0.2850(6) 0.7790(4) 0.4718(5)
N2_3 N 0.2995(6) 0.7641(4) 0.4338(5)
H5_3 H 0.3146 0.7534 0.4438
C8_3 C 0.2903(7) 0.7657(5) 0.3768(6)
H6_3 H 0.3099 0.7621 0.3532
H7_3 H 0.2938 0.7930 0.3684
C9_3 C 0.2452(6) 0.7316(4) 0.3618(8)
O5_3 O 0.2219(4) 0.7055(3) 0.3980(5)
N3_3 N 0.2332(6) 0.7334(4) 0.3093(5)
C10_3 C 0.2583(11) 0.7615(6) 0.2650(7)
H8_3 H 0.2667 0.7902 0.2741
H9_3 H 0.2829 0.7592 0.2572
C11_3 C 0.2294(9) 0.7462(5) 0.2183(8)
H10_3 H 0.2328 0.7256 0.1970
H11_3 H 0.2349 0.7691 0.1927
C12_3 C 0.1879(10) 0.7279(8) 0.2395(9)
H12_3 H 0.1680 0.7070 0.2134
H13_3 H 0.1799 0.7488 0.2468
C13_3 C 0.1914(7) 0.7091(5) 0.2921(7)
H14_3 H 0.1734 0.7111 0.3211
C14_3 C 0.1791(8) 0.6640(6) 0.2847(7)
O6_3 O 0.2053(5) 0.6538(3) 0.2754(4)
N4_3 N 0.1406(7) 0.6372(5) 0.2838(6)
C15_3 C 0.1058(10) 0.6464(7) 0.2915(13)
H15_3 H 0.1079 0.6674 0.2647
H16_3 H 0.1051 0.6556 0.3301
C16_3 C 0.0665(10) 0.6026(7) 0.2789(11)
H17_3 H 0.0430 0.5985 0.3022
H18_3 H 0.0586 0.6007 0.2390
C17_3 C 0.0780(11) 0.5704(7) 0.2925(11)
H19_3 H 0.0613 0.5450 0.2706
H20_3 H 0.0747 0.5637 0.3329
C18_3 C 0.1264(9) 0.5931(5) 0.2739(9)
H21_3 H 0.1421 0.5837 0.2975
C19_3 C 0.1304(8) 0.5861(5) 0.2123(7)
O7_3 O 0.1334(6) 0.6100(4) 0.1764(5)
N5_3 N 0.1276(6) 0.5500(4) 0.2023(5)
H22_3 H 0.1253 0.5352 0.2320
C20_3 C 0.1278(6) 0.5324(4) 0.1500(7)
C21_3 C 0.1334(7) 0.5500(5) 0.0982(7)
H23_3 H 0.1375 0.5769 0.0947
C22_3 C 0.1331(8) 0.5285(5) 0.0508(7)
H24_3 H 0.1353 0.5394 0.0143
C23_3 C 0.1293(6) 0.4905(5) 0.0594(8)
H25_3 H 0.1313 0.4767 0.0273
N6_3 N 0.1234(5) 0.4721(4) 0.1064(6)
C24_3 C 0.1235(7) 0.4927(5) 0.1523(7)
H26_3 H 0.1204 0.4802 0.1878
C34_2 C 0.0262(19) 0.6430(14) 0.7350(11)
H36_2 H 0.0214 0.6204 0.7094
H37_2 H 0.0514 0.6683 0.7236
C35_2 C 0.0283(15) 0.6329(10) 0.7915(12)
H38_2 H 0.0565 0.6393 0.8004
H39_2 H 0.0097 0.6031 0.7973
C36_2 C 0.0156(14) 0.6575(11) 0.8316(10)
H40_2 H 0.0001 0.6396 0.8641
C37_2 C 0.0487(12) 0.6946(9) 0.8523(12)
O10_2 O 0.0576(8) 0.7267(6) 0.8263(9)
N10_2 N 0.0726(9) 0.6939(6) 0.8890(7)
C38_2 C 0.0660(13) 0.6575(8) 0.9226(10)
H41_2 H 0.0373 0.6413 0.9354
H42_2 H 0.0731 0.6397 0.9006
C39_2 C 0.0884(27) 0.6724(18) 0.961(3)
H43_2 H 0.0984 0.6534 0.9726
H44_2 H 0.0729 0.6743 0.9930
C40_2 C 0.1269(16) 0.7156(10) 0.9518(10)
H45_2 H 0.1505 0.7138 0.9370
H46_2 H 0.1352 0.7321 0.9866
C41_2 C 0.1086(11) 0.7343(8) 0.9049(8)
H47_2 H 0.1011 0.7543 0.9205
C42_2 C 0.1405(7) 0.7516(5) 0.8614(7)
O11_2 O 0.1489(6) 0.7297(4) 0.8276(5)
N11_2 N 0.1612(8) 0.7905(6) 0.8608(6)
H48_2 H 0.1520 0.8017 0.8848
C43_2 C 0.1942(8) 0.8188(6) 0.8318(9)
C44_2 C 0.2059(11) 0.8622(7) 0.8347(12)
H49_2 H 0.1919 0.8713 0.8584
C45_2 C 0.2390(10) 0.8899(7) 0.8007(12)
H50_2 H 0.2488 0.9184 0.8041
C46_2 C 0.2565(8) 0.8773(5) 0.7646(8)
H51_2 H 0.2783 0.8971 0.7424
N12_2 N 0.2444(4) 0.8357(3) 0.7574(5)
C47_2 C 0.2133(6) 0.8073(4) 0.7904(6)
H52_2 H 0.2043 0.7790 0.7851
O12_3 O 0.1071(11) 0.4100(8) 0.2251(10)
N13_3 N 0.1326(6) 0.3637(3) 0.1353(6)
H53_3 H 0.0792238 0.406389 0.228507
H54_3 H 0.10716 0.385672 0.240964
C25_3 C 0.7955(6) 0.6299(5) 0.8389(5)
H27_3 H 0.7876 0.6031 0.8259
N7_3 N 0.7689(5) 0.6363(3) 0.8647(6)
C26_3 C 0.7775(9) 0.6722(5) 0.8828(14)
H28_3 H 0.7586 0.6766 0.9037
C27_3 C 0.8171(14) 0.7044(8) 0.8694(19)
H29_3 H 0.8228 0.7318 0.8745
C28_3 C 0.8450(13) 0.6993(8) 0.8514(18)
H30_3 H 0.8726 0.7210 0.8523
C29_3 C 0.8355(10) 0.6616(8) 0.8300(8)
C30_3 C 0.8607(11) 0.6455(9) 0.8018(9)
O8_3 O 0.8512(9) 0.6152(8) 0.7830(7)
N8_3 N 0.9021(14) 0.6774(11) 0.7944(8)
H31_3 H 0.9077 0.7012 0.8087
C31_3 C 0.9351(21) 0.6772(17) 0.7683(14)
H32_3 H 0.9542 0.7046 0.7530
H33_3 H 0.9252 0.6572 0.7372
C32_3 C 0.9595(16) 0.6638(11) 0.8177(15)
O9_3 O 0.9583(8) 0.6764(6) 0.8663(8)
N9_3 N 0.9864(11) 0.6611(8) 0.7946(8)
C33_3 C 0.9891(22) 0.6496(17) 0.7373(10)
H34_3 H 0.9928 0.6715 0.7110
H35_3 H 0.9637 0.6240 0.7270
Ag4_3 Ag 0.71047(5) 0.58177(3) 0.88310(5)
Ag1_3 Ag 0.45395(3) 0.18143(3) 0.30594(5)
C2_4 C 0.4912(4) 0.2044(4) 0.4248(6)
H1_4 H 0.4637 0.1958 0.4347
N1_4 N 0.4987(3) 0.2017(4) 0.3721(5)
C3_4 C 0.5373(6) 0.2110(9) 0.3608(7)
H2_3 H 0.5427 0.2037 0.3250
C4_4 C 0.5683(8) 0.2294(13) 0.3959(10)
H3_4 H 0.5956 0.2400 0.3831
C5_4 C 0.5606(5) 0.2331(8) 0.4521(7)
H4_4 H 0.5820 0.2449 0.4791
C6_4 C 0.5193(4) 0.2184(5) 0.4667(7)
C7_4 C 0.5060(5) 0.2210(4) 0.5282(5)
O4_2 O 0.4699(3) 0.2071(3) 0.5374(4)
N2_4 N 0.5354(4) 0.2359(4) 0.5662(5)
H5_4 H 0.5612 0.2466 0.5562
C8_4 C 0.5246(5) 0.2343(5) 0.6232(6)
H6_4 H 0.5478 0.2379 0.6468
H7_4 H 0.5008 0.2070 0.6316
C9_4 C 0.5136(4) 0.2684(4) 0.6382(8)
O5_4 O 0.5164(3) 0.2945(3) 0.6020(5)
N3_4 N 0.4998(4) 0.2666(4) 0.6907(5)
C10_4 C 0.4968(9) 0.2385(6) 0.7350(7)
H8_4 H 0.4765 0.2098 0.7259
H9_4 H 0.5237 0.2408 0.7428
C11_4 C 0.4832(8) 0.2538(5) 0.7817(8)
H10_4 H 0.5072 0.2744 0.8030
H11_4 H 0.4658 0.2309 0.8073
C12_4 C 0.4600(6) 0.2721(8) 0.7605(9)
H12_4 H 0.4610 0.2930 0.7866
H13_4 H 0.4311 0.2512 0.7532
C13_4 C 0.4823(5) 0.2909(5) 0.7079(7)
H14_4 H 0.4623 0.2889 0.6789
C14_4 C 0.5151(6) 0.3360(6) 0.7153(7)
O6_4 O 0.5515(4) 0.3462(3) 0.7246(4)
N4_4 N 0.5034(5) 0.3628(5) 0.7162(6)
C15_4 C 0.4594(7) 0.3536(7) 0.7085(13)
H15_4 H 0.4405 0.3326 0.7353
H16_4 H 0.4495 0.3444 0.6699
C16_4 C 0.4639(7) 0.3974(7) 0.7211(11)
H17_4 H 0.4445 0.4015 0.6978
H18_4 H 0.4579 0.3993 0.7610
C17_4 C 0.5076(8) 0.4296(7) 0.7075(11)
H19_4 H 0.5163 0.4550 0.7294
H20_4 H 0.5110 0.4363 0.6671
C18_4 C 0.5333(7) 0.4069(5) 0.7261(9)
H21_4 H 0.5584 0.4163 0.7025
C19_4 C 0.5443(6) 0.4139(5) 0.7877(7)
O7_4 O 0.5234(4) 0.3900(4) 0.8236(5)
N5_4 N 0.5776(4) 0.4500(4) 0.7977(5)
H22_4 H 0.5901 0.4648 0.7680
C20_4 C 0.5954(5) 0.4676(4) 0.8500(7)
C21_4 C 0.5834(5) 0.4500(5) 0.9018(7)
H23_4 H 0.5606 0.4231 0.9053
C22_4 C 0.6046(6) 0.4715(5) 0.9492(7)
H24_4 H 0.5959 0.4606 0.9857
C23_4 C 0.6388(4) 0.5095(5) 0.9406(8)
H25_4 H 0.6546 0.5233 0.9727
N6_4 N 0.6513(3) 0.5279(4) 0.8936(6)
C24_4 C 0.6308(5) 0.5073(5) 0.8477(7)
H26_4 H 0.6402 0.5198 0.8122
C25_4 C 0.1656(4) 0.3701(5) 0.1611(5)
H27_4 H 0.1845 0.3969 0.1741
C26_4 C 0.1053(7) 0.3278(5) 0.1172(14)
H28_4 H 0.0820 0.3234 0.0963
C27_4 C 0.1127(12) 0.2956(8) 0.1306(19)
H29_4 H 0.0910 0.2682 0.1255
C28_4 C 0.1457(10) 0.3007(8) 0.1486(18)
H30_4 H 0.1516 0.2790 0.1477
C29_4 C 0.1739(6) 0.3384(8) 0.1700(8)
C30_4 C 0.2152(7) 0.3545(9) 0.1982(9)
O8_4 O 0.2360(5) 0.3848(8) 0.2170(7)
N8_4 N 0.2247(9) 0.3226(11) 0.2056(8)
H31_4 H 0.2065 0.2988 0.1913
C31_4 C 0.2579(13) 0.3228(17) 0.2317(14)
H32_4 H 0.2496 0.2954 0.2470
H33_4 H 0.2680 0.3428 0.2628
C32_4 C 0.2957(11) 0.3362(11) 0.1823(15)
O9_4 O 0.2819(5) 0.3236(6) 0.1337(8)
N9_4 N 0.3253(7) 0.3389(8) 0.2054(8)
C33_4 C 0.3395(14) 0.3504(17) 0.2627(10)
H34_4 H 0.3213 0.3285 0.2890
H35_4 H 0.3397 0.3760 0.2730
C34_3 C 0.3832(13) 0.3570(14) 0.2650(11)
H36_3 H 0.4010 0.3796 0.2906
H37_3 H 0.3831 0.3317 0.2764
C35_3 C 0.3954(11) 0.3671(10) 0.2085(12)
H38_3 H 0.4172 0.3607 0.1996
H39_3 H 0.4066 0.3969 0.2027
C36_3 C 0.3581(9) 0.3425(11) 0.1684(10)
H40_3 H 0.3605 0.3604 0.1359
C37_3 C 0.3541(8) 0.3054(9) 0.1477(12)
O10_3 O 0.3309(5) 0.2733(6) 0.1737(9)
N10_3 N 0.3787(7) 0.3061(6) 0.1110(7)
C38_3 C 0.4085(10) 0.3425(8) 0.0774(10)
H41_3 H 0.3960 0.3587 0.0646
H42_3 H 0.4334 0.3603 0.0994
C39_3 C 0.416(2) 0.3276(18) 0.039(3)
H43_3 H 0.4450 0.3466 0.0274
H44_3 H 0.3986 0.3257 0.0070
C40_3 C 0.4113(12) 0.2844(10) 0.0482(10)
H45_3 H 0.4367 0.2862 0.0630
H46_3 H 0.4031 0.2679 0.0134
C41_3 C 0.3743(8) 0.2657(8) 0.0951(8)
H47_3 H 0.3468 0.2457 0.0795
C42_3 C 0.3889(5) 0.2484(5) 0.1386(7)
O11_3 O 0.4192(4) 0.2703(4) 0.1724(5)
N11_3 N 0.3707(5) 0.2095(6) 0.1392(6)
H48_3 H 0.3503 0.1983 0.1152
C43_3 C 0.3754(6) 0.1812(6) 0.1682(9)
C44_3 C 0.3437(8) 0.1378(7) 0.1653(12)
H49_3 H 0.3206 0.1287 0.1416
C45_3 C 0.3491(7) 0.1101(7) 0.1993(12)
H50_3 H 0.3304 0.0816 0.1959
C46_3 C 0.3792(6) 0.1227(5) 0.2354(8)
H51_3 H 0.3812 0.1029 0.2576
N12_3 N 0.4087(3) 0.1643(3) 0.2426(5)
C47_3 C 0.4060(4) 0.1927(4) 0.2096(6)
H52_3 H 0.4253 0.2210 0.2149
O12_4 O 0.6971(8) 0.5900(8) 0.7749(10)
O13_3 O 0.7372(4) 0.5301(3) 0.8707(4)
H53_4 H 0.672835 0.593611 0.771493
H54_4 H 0.721489 0.614328 0.759036
C25_5 C 0.2045(6) 0.8344(4) 0.4944(5)
H27_5 H 0.2124 0.8155 0.5074
C26_5 C 0.2225(9) 0.8947(7) 0.4505(14)
H28_5 H 0.2414 0.9180 0.4296
C27_5 C 0.1829(14) 0.8873(12) 0.4639(19)
H29_5 H 0.1772 0.9090 0.4588
C28_5 C 0.1550(13) 0.8543(10) 0.4819(18)
H30_5 H 0.1274 0.8484 0.4810
C29_5 C 0.1645(10) 0.8261(6) 0.5033(8)
C30_5 C 0.1393(11) 0.7848(7) 0.5315(9)
O8_5 O 0.1488(9) 0.7640(5) 0.5503(7)
N8_5 N 0.0979(14) 0.7753(9) 0.5389(8)
H31_5 H 0.0923 0.7935 0.5246
C31_5 C 0.0649(21) 0.7421(13) 0.5650(14)
H32_5 H 0.0458 0.7504 0.5803
H33_5 H 0.0748 0.7320 0.5961
C32_5 C 0.0405(16) 0.7043(11) 0.5156(15)
O9_5 O 0.0417(8) 0.7181(5) 0.4670(8)
N9_5 N 0.0136(11) 0.6747(7) 0.5387(8)
C33_5 C 0.0109(22) 0.6605(14) 0.5960(10)
H34_5 H 0.0072 0.6787 0.6223
H35_5 H 0.0363 0.6603 0.6063
N3_5 N 0.7668(6) 0.5002(4) 0.0240(5)
C10_5 C 0.7417(11) 0.5032(9) 0.0683(7)
H8_5 H 0.7333 0.5235 0.0592
H9_5 H 0.7171 0.4763 0.0761
C11_5 C 0.7706(9) 0.5168(8) 0.1150(8)
H10_5 H 0.7672 0.4928 0.1363
H11_5 H 0.7651 0.5342 0.1406
C12_5 C 0.8121(10) 0.5400(6) 0.0938(9)
H12_5 H 0.8320 0.5390 0.1199
H13_5 H 0.8201 0.5689 0.0865
C13_5 C 0.8086(7) 0.5177(5) 0.0412(7)
H14_5 H 0.8266 0.5377 0.0122
C14_5 C 0.8209(8) 0.4849(6) 0.0486(7)
O6_5 O 0.7947(5) 0.4485(4) 0.0579(4)
N4_5 N 0.8594(7) 0.4966(5) 0.0495(6)
C15_5 C 0.8942(10) 0.5406(7) 0.0418(13)
H15_5 H 0.8921 0.5595 0.0686
H16_5 H 0.8949 0.5505 0.0032
C16_5 C 0.9335(10) 0.5361(7) 0.0544(11)
H17_5 H 0.9570 0.5555 0.0311
H18_5 H 0.9414 0.5421 0.0943
C17_5 C 0.9220(11) 0.4924(8) 0.0408(11)
H19_5 H 0.9387 0.4837 0.0627
H20_5 H 0.9253 0.4890 0.0004
C18_5 C 0.8736(9) 0.4667(7) 0.0594(9)
H21_5 H 0.8579 0.4416 0.0358
C19_5 C 0.8696(8) 0.4557(6) 0.1210(7)
O7_5 O 0.8666(6) 0.4766(4) 0.1569(5)
N5_5 N 0.8724(6) 0.4224(4) 0.1310(5)
H22_5 H 0.8747 0.4099 0.1013
C20_5 C 0.8722(6) 0.4046(5) 0.1833(7)
C21_5 C 0.8666(7) 0.4166(5) 0.2351(7)
H23_5 H 0.8625 0.4394 0.2386
C22_5 C 0.8669(8) 0.3954(6) 0.2825(7)
H24_5 H 0.8647 0.4041 0.3190
C23_5 C 0.8707(6) 0.3612(4) 0.2739(8)
H25_5 H 0.8687 0.3454 0.3060
N6_5 N 0.8766(5) 0.3487(3) 0.2269(6)
C24_5 C 0.8765(7) 0.3692(5) 0.1810(7)
H26_5 H 0.8796 0.3598 0.1455
O12_5 O 0.8929(11) 0.3029(8) 0.1082(10)
O13_4 O 0.7929(5) 0.2628(4) 0.2040(4)
H53_5 H 0.920776 0.327165 0.104826
H54_5 H 0.89284 0.278511 0.0923695
Ag1_4 Ag 0.72748(4) 0.54605(3) 0.63927(5)
C2_5 C 0.7132(6) 0.5088(4) 0.7581(6)
H1_5 H 0.7321 0.5363 0.7680
N1_5 N 0.7030(5) 0.5013(3) 0.7054(5)
C3_5 C 0.6737(11) 0.4627(6) 0.6941(7)
H2_4 H 0.6610 0.4573 0.6583
C4_5 C 0.6611(15) 0.4317(8) 0.7292(10)
H3_5 H 0.6444 0.4044 0.7164
C5_5 C 0.6725(9) 0.4394(5) 0.7854(7)
H4_5 H 0.6629 0.4180 0.8124
C6_5 C 0.6991(6) 0.4807(4) 0.8000(7)
C7_5 C 0.7150(6) 0.4940(5) 0.8615(5)
N2_5 N 0.7005(6) 0.4646(4) 0.8995(5)
H5_5 H 0.6854 0.4388 0.8895
C8_5 C 0.7097(7) 0.4754(5) 0.9565(6)
H6_5 H 0.6901 0.4522 0.9801
H7_5 H 0.7062 0.4992 0.9649
C9_5 C 0.7548(6) 0.4864(4) 0.9715(8)
O5_5 O 0.7781(4) 0.4836(3) 0.9353(5)
C34_4 C 0.9738(19) 0.6168(13) 0.5983(11)
H36_4 H 0.9786 0.5990 0.6239
H37_4 H 0.9486 0.6169 0.6097
C35_4 C 0.9717(15) 0.6046(11) 0.5418(12)
H38_4 H 0.9435 0.5828 0.5329
H39_4 H 0.9903 0.5934 0.5360
C36_4 C 0.9844(14) 0.6419(9) 0.5017(10)
H40_4 H 0.9999 0.6395 0.4692
C37_4 C 0.9513(12) 0.6459(8) 0.4810(12)
O10_4 O 0.9424(8) 0.6691(5) 0.5070(9)
N10_4 N 0.9274(9) 0.6213(7) 0.4443(7)
C38_4 C 0.9340(13) 0.5915(10) 0.4107(10)
H41_4 H 0.9627 0.6040 0.3979
H42_4 H 0.9269 0.5666 0.4327
C39_4 C 0.9116(27) 0.584(2) 0.372(3)
H43_4 H 0.9016 0.5550 0.3607
H44_4 H 0.9271 0.6014 0.3403
C40_4 C 0.8731(16) 0.5887(12) 0.3815(10)
H45_4 H 0.8495 0.5633 0.3963
H46_4 H 0.8648 0.5969 0.3467
C41_4 C 0.8914(11) 0.6257(8) 0.4284(8)
H47_4 H 0.8989 0.6532 0.4128
C42_4 C 0.8595(7) 0.6111(5) 0.4719(7)
O11_4 O 0.8511(6) 0.5808(4) 0.5057(5)
N11_4 N 0.8388(8) 0.6293(5) 0.4725(6)
H48_4 H 0.8480 0.6497 0.4485
C43_4 C 0.8058(8) 0.6246(6) 0.5015(9)
C44_4 C 0.7941(11) 0.6563(8) 0.4986(12)
H49_4 H 0.8081 0.6794 0.4749
C45_4 C 0.7610(10) 0.6509(7) 0.5326(12)
H50_4 H 0.7512 0.6696 0.5292
C46_4 C 0.7435(8) 0.6208(6) 0.5687(8)
H51_4 H 0.7217 0.6188 0.5909
N12_4 N 0.7556(4) 0.5913(3) 0.5759(5)
C47_4 C 0.7867(6) 0.5940(4) 0.5429(6)
H52_4 H 0.7957 0.5747 0.5482
C2_6 C 0.7956(4) 0.2868(6) 0.0914(6)
H1_6 H 0.8042 0.2679 0.1013
N1_6 N 0.7983(4) 0.2970(5) 0.0387(5)
C3_6 C 0.7890(9) 0.3263(11) 0.0274(7)
C4_6 C 0.7706(13) 0.3389(15) 0.0625(10)
H3_6 H 0.7600 0.3556 0.0497
C5_6 C 0.7669(8) 0.3275(9) 0.1187(7)
H4_6 H 0.7551 0.3371 0.1457
C6_6 C 0.7816(5) 0.3009(6) 0.1333(7)
C7_6 C 0.7790(4) 0.2850(6) 0.1948(5)
N2_6 N 0.7641(4) 0.2995(6) 0.2328(5)
H5_6 H 0.7534 0.3146 0.2228
C8_6 C 0.7657(5) 0.2903(7) 0.2898(6)
H6_6 H 0.7621 0.3099 0.3134
H7_6 H 0.7930 0.2938 0.2982
C9_6 C 0.7316(4) 0.2452(6) 0.3048(8)
O5_6 O 0.7055(3) 0.2219(4) 0.2686(5)
N3_6 N 0.7334(4) 0.2332(6) 0.3573(5)
C10_6 C 0.7615(6) 0.2583(11) 0.4016(7)
H8_6 H 0.7902 0.2667 0.3925
H9_6 H 0.7592 0.2829 0.4094
C11_6 C 0.7462(5) 0.2294(9) 0.4483(8)
H10_6 H 0.7256 0.2328 0.4696
H11_6 H 0.7691 0.2349 0.4739
C12_6 C 0.7279(8) 0.1879(10) 0.4271(9)
H12_6 H 0.7070 0.1680 0.4532
H13_6 H 0.7488 0.1799 0.4198
C13_6 C 0.7091(5) 0.1914(7) 0.3745(7)
H14_6 H 0.7111 0.1734 0.3455
C14_6 C 0.6640(6) 0.1791(8) 0.3819(7)
O6_6 O 0.6538(3) 0.2053(5) 0.3912(4)
N4_6 N 0.6372(5) 0.1406(7) 0.3828(6)
C15_6 C 0.6464(7) 0.1058(10) 0.3751(13)
H15_6 H 0.6674 0.1079 0.4019
H16_6 H 0.6556 0.1051 0.3365
C16_6 C 0.6026(7) 0.0665(10) 0.3877(11)
H17_6 H 0.5985 0.0430 0.3644
H18_6 H 0.6007 0.0586 0.4276
C17_6 C 0.5704(7) 0.0780(11) 0.3741(11)
H19_6 H 0.5450 0.0613 0.3960
H20_6 H 0.5637 0.0747 0.3337
C18_6 C 0.5931(5) 0.1264(9) 0.3927(9)
H21_6 H 0.5837 0.1421 0.3691
C19_6 C 0.5861(5) 0.1304(8) 0.4543(7)
O7_6 O 0.6100(4) 0.1334(6) 0.4902(5)
N5_6 N 0.5500(4) 0.1276(6) 0.4643(5)
H22_6 H 0.5352 0.1253 0.4346
C20_6 C 0.5324(4) 0.1278(6) 0.5166(7)
C21_6 C 0.5500(5) 0.1334(7) 0.5684(7)
H23_6 H 0.5769 0.1375 0.5719
C22_6 C 0.5285(5) 0.1331(8) 0.6158(7)
H24_6 H 0.5394 0.1353 0.6523
C23_6 C 0.4905(5) 0.1293(6) 0.6072(8)
H25_6 H 0.4767 0.1313 0.6393
N6_6 N 0.4721(4) 0.1234(5) 0.5602(6)
C24_6 C 0.4927(5) 0.1235(7) 0.5143(7)
H26_6 H 0.4802 0.1204 0.4788
O12_6 O 0.4100(8) 0.1071(11) 0.4415(10)
H53_6 H 0.406389 0.0792238 0.438159
H54_6 H 0.385672 0.10716 0.425703
C25_6 C 0.6299(5) 0.7955(6) 0.8277(5)
H27_6 H 0.6031 0.7876 0.8407
C26_6 C 0.6722(5) 0.7775(9) 0.7838(14)
H28_6 H 0.6766 0.7586 0.7629
C27_6 C 0.7044(8) 0.8171(14) 0.7972(19)
H29_6 H 0.7318 0.8228 0.7921
C28_6 C 0.6993(8) 0.8450(13) 0.8152(18)
H30_6 H 0.7210 0.8726 0.8143
C29_6 C 0.6616(8) 0.8355(10) 0.8366(8)
C30_6 C 0.6455(9) 0.8607(11) 0.8648(9)
O8_6 O 0.6152(8) 0.8512(9) 0.8836(7)
N8_6 N 0.6774(11) 0.9021(14) 0.8722(8)
H31_6 H 0.7012 0.9077 0.8579
C31_6 C 0.6772(17) 0.9351(21) 0.8983(14)
H32_6 H 0.7046 0.9542 0.9136
H33_6 H 0.6572 0.9252 0.9294
C32_6 C 0.6638(11) 0.9595(16) 0.8489(15)
O9_6 O 0.6764(6) 0.9583(8) 0.8003(8)
N9_6 N 0.6611(8) 0.9864(11) 0.8720(8)
C33_6 C 0.6496(17) 0.9891(22) 0.9293(10)
H34_6 H 0.6715 0.9928 0.9556
H35_6 H 0.6240 0.9637 0.9396
Ag1_5 Ag 0.54605(3) 0.72748(4) 0.02740(5)
H2_5 H 0.4573 0.6610 0.0084
C34_5 C 0.6168(13) 0.9738(19) 0.0684(11)
H36_5 H 0.5990 0.9786 0.0428
H37_5 H 0.6169 0.9486 0.0570
C35_5 C 0.6046(11) 0.9717(15) 0.1249(12)
H38_5 H 0.5828 0.9435 0.1338
H39_5 H 0.5934 0.9903 0.1307
C36_5 C 0.6419(9) 0.9844(14) 0.1650(10)
H40_5 H 0.6395 0.9999 0.1975
C37_5 C 0.6459(8) 0.9513(12) 0.1857(12)
O10_5 O 0.6691(5) 0.9424(8) 0.1597(9)
N10_5 N 0.6213(7) 0.9274(9) 0.2224(7)
C38_5 C 0.5915(10) 0.9340(13) 0.2560(10)
H41_5 H 0.6040 0.9627 0.2688
H42_5 H 0.5666 0.9269 0.2340
C39_5 C 0.584(2) 0.9116(27) 0.295(3)
H43_5 H 0.5550 0.9016 0.3060
H44_5 H 0.6014 0.9271 0.3264
C40_5 C 0.5887(12) 0.8731(16) 0.2852(10)
H45_5 H 0.5633 0.8495 0.2704
H46_5 H 0.5969 0.8648 0.3200
C41_5 C 0.6257(8) 0.8914(11) 0.2383(8)
H47_5 H 0.6532 0.8989 0.2539
C42_5 C 0.6111(5) 0.8595(7) 0.1948(7)
O11_5 O 0.5808(4) 0.8511(6) 0.1610(5)
N11_5 N 0.6293(5) 0.8388(8) 0.1942(6)
H48_5 H 0.6497 0.8480 0.2182
C43_5 C 0.6246(6) 0.8058(8) 0.1652(9)
C44_5 C 0.6563(8) 0.7941(11) 0.1681(12)
H49_5 H 0.6794 0.8081 0.1918
C45_5 C 0.6509(7) 0.7610(10) 0.1341(12)
H50_5 H 0.6696 0.7512 0.1375
C46_5 C 0.6208(6) 0.7435(8) 0.0980(8)
H51_5 H 0.6188 0.7217 0.0758
N12_5 N 0.5913(3) 0.7556(4) 0.0908(5)
C47_5 C 0.5940(4) 0.7867(6) 0.1238(6)
H52_5 H 0.5747 0.7957 0.1185
C25_7 C 0.6299(5) 0.8344(4) 0.0056(5)
N7_4 N 0.6363(3) 0.8674(4) 0.0314(6)
C26_7 C 0.6722(5) 0.8947(7) 0.0495(14)
H28_7 H 0.6766 0.9180 0.0704
C27_7 C 0.7044(8) 0.8873(12) 0.0361(19)
H29_7 H 0.7318 0.9090 0.0412
C28_7 C 0.6993(8) 0.8543(10) 0.0181(18)
H30_7 H 0.7210 0.8484 0.0190
O9_7 O 0.6764(6) 0.7181(5) 0.0330(8)
H40_6 H 0.6396 0.6395 0.0308
C37_6 C 0.6946(9) 0.6459(8) 0.0190(12)
N10_6 N 0.6939(6) 0.6213(7) 0.0557(7)
C38_6 C 0.6575(8) 0.5915(10) 0.0893(10)
H41_6 H 0.6413 0.6040 0.1021
H42_6 H 0.6397 0.5666 0.0673
C39_6 C 0.6724(18) 0.584(2) 0.128(3)
H43_6 H 0.6534 0.5550 0.1393
H44_6 H 0.6743 0.6014 0.1597
C40_6 C 0.7156(10) 0.5887(12) 0.1185(10)
H45_6 H 0.7138 0.5633 0.1037
H46_6 H 0.7321 0.5969 0.1533
C41_6 C 0.7343(8) 0.6257(8) 0.0716(8)
H47_6 H 0.7543 0.6532 0.0872
C42_6 C 0.7516(5) 0.6111(5) 0.0281(7)
N11_6 N 0.7905(6) 0.6293(5) 0.0275(6)
H48_6 H 0.8017 0.6497 0.0515
C44_6 C 0.8622(7) 0.6563(8) 0.0014(12)
H49_6 H 0.8713 0.6794 0.0251
Ag4_4 Ag 0.58177(3) 0.87130(4) 0.04976(5)
C25_8 C 0.1656(4) 0.7955(6) 0.6723(5)
H27_7 H 0.1845 0.7876 0.6593
N7_5 N 0.1326(4) 0.7689(5) 0.6981(6)
C26_8 C 0.1053(7) 0.7775(9) 0.7162(14)
H28_8 H 0.0820 0.7586 0.7371
C27_8 C 0.1127(12) 0.8171(14) 0.7028(19)
H29_8 H 0.0910 0.8228 0.7079
C28_8 C 0.1457(10) 0.8450(13) 0.6848(18)
H30_8 H 0.1516 0.8726 0.6857
C29_7 C 0.1739(6) 0.8355(10) 0.6634(8)
C30_7 C 0.2152(7) 0.8607(11) 0.6352(9)
O8_7 O 0.2360(5) 0.8512(9) 0.6164(7)
N8_7 N 0.2247(9) 0.9021(14) 0.6278(8)
H31_7 H 0.2065 0.9077 0.6421
C31_7 C 0.2579(13) 0.9351(21) 0.6017(14)
H32_7 H 0.2496 0.9542 0.5864
H33_7 H 0.2680 0.9252 0.5706
C32_7 C 0.2957(11) 0.9595(16) 0.6511(15)
O9_8 O 0.2819(5) 0.9583(8) 0.6997(8)
N9_7 N 0.3253(7) 0.9864(11) 0.6280(8)
C33_7 C 0.3395(14) 0.9891(22) 0.5707(10)
H34_7 H 0.3213 0.9928 0.5444
H35_7 H 0.3397 0.9637 0.5604
Ag4_5 Ag 0.12870(4) 0.71047(5) 0.71643(5)
C25_9 C 0.2045(6) 0.3701(5) 0.3389(5)
H27_8 H 0.2124 0.3969 0.3259
N7_6 N 0.2311(5) 0.3637(3) 0.3647(6)
C26_9 C 0.2225(9) 0.3278(5) 0.3828(14)
H28_9 H 0.2414 0.3234 0.4037
C27_9 C 0.1829(14) 0.2956(8) 0.3694(19)
H29_9 H 0.1772 0.2682 0.3745
C28_9 C 0.1550(13) 0.3007(8) 0.3514(18)
H30_9 H 0.1274 0.2790 0.3523
C29_8 C 0.1645(10) 0.3384(8) 0.3300(8)
C30_8 C 0.1393(11) 0.3545(9) 0.3018(9)
O8_8 O 0.1488(9) 0.3848(8) 0.2830(7)
N8_8 N 0.0979(14) 0.3226(11) 0.2944(8)
H31_8 H 0.0923 0.2988 0.3087
C31_8 C 0.0649(21) 0.3228(17) 0.2683(14)
H32_8 H 0.0458 0.2954 0.2530
H33_8 H 0.0748 0.3428 0.2372
C32_8 C 0.0405(16) 0.3362(11) 0.3177(15)
O9_9 O 0.0417(8) 0.3236(6) 0.3663(8)
N9_8 N 0.0136(11) 0.3389(8) 0.2946(8)
C33_8 C 0.0109(22) 0.3504(17) 0.2373(10)
H34_8 H 0.0072 0.3285 0.2110
H35_8 H 0.0363 0.3760 0.2270
Ag4_6 Ag 0.28953(5) 0.41823(3) 0.38310(5)
C7_7 C 0.4940(5) 0.7790(4) 0.0282(5)
O4_3 O 0.5301(3) 0.7929(3) 0.0374(4)
N2_7 N 0.4646(4) 0.7641(4) 0.0662(5)
H5_7 H 0.4388 0.7534 0.0562
C8_7 C 0.4754(5) 0.7657(5) 0.1232(6)
H6_7 H 0.4522 0.7621 0.1468
H7_7 H 0.4992 0.7930 0.1316
C9_7 C 0.4864(4) 0.7316(4) 0.1382(8)
O5_7 O 0.4836(3) 0.7055(3) 0.1020(5)
N3_7 N 0.5002(4) 0.7334(4) 0.1907(5)
C10_7 C 0.5032(9) 0.7615(6) 0.2350(7)
H8_7 H 0.5235 0.7902 0.2259
H9_7 H 0.4763 0.7592 0.2428
C11_7 C 0.5168(8) 0.7462(5) 0.2817(8)
H10_7 H 0.4928 0.7256 0.3030
H11_7 H 0.5342 0.7691 0.3073
C12_7 C 0.5400(6) 0.7279(8) 0.2605(9)
H12_7 H 0.5390 0.7070 0.2866
H13_7 H 0.5689 0.7488 0.2532
C13_7 C 0.5177(5) 0.7091(5) 0.2079(7)
H14_7 H 0.5377 0.7111 0.1789
C14_7 C 0.4849(6) 0.6640(6) 0.2153(7)
O6_7 O 0.4485(4) 0.6538(3) 0.2246(4)
N4_7 N 0.4966(5) 0.6372(5) 0.2162(6)
C15_7 C 0.5406(7) 0.6464(7) 0.2085(13)
H15_7 H 0.5595 0.6674 0.2353
H16_7 H 0.5505 0.6556 0.1699
C16_7 C 0.5361(7) 0.6026(7) 0.2211(11)
H17_7 H 0.5555 0.5985 0.1978
H18_7 H 0.5421 0.6007 0.2610
C17_7 C 0.4924(8) 0.5704(7) 0.2075(11)
H19_7 H 0.4837 0.5450 0.2294
H20_7 H 0.4890 0.5637 0.1671
C18_7 C 0.4667(7) 0.5931(5) 0.2261(9)
H21_7 H 0.4416 0.5837 0.2025
C19_7 C 0.4557(6) 0.5861(5) 0.2877(7)
O7_7 O 0.4766(4) 0.6100(4) 0.3236(5)
N5_7 N 0.4224(4) 0.5500(4) 0.2977(5)
H22_7 H 0.4099 0.5352 0.2680
C20_7 C 0.4046(5) 0.5324(4) 0.3500(7)
C21_7 C 0.4166(5) 0.5500(5) 0.4018(7)
H23_7 H 0.4394 0.5769 0.4053
C22_7 C 0.3954(6) 0.5285(5) 0.4492(7)
H24_7 H 0.4041 0.5394 0.4857
C23_7 C 0.3612(4) 0.4905(5) 0.4406(8)
H25_7 H 0.3454 0.4767 0.4727
N6_7 N 0.3487(3) 0.4721(4) 0.3936(6)
C24_7 C 0.3692(5) 0.4927(5) 0.3477(7)
H26_7 H 0.3598 0.4802 0.3122
O12_7 O 0.3029(8) 0.4100(8) 0.2749(10)
O13_5 O 0.2628(4) 0.4699(3) 0.3707(4)
H53_7 H 0.327165 0.406389 0.271493
H54_7 H 0.278511 0.385672 0.259036
Ag1_6 Ag 0.27252(4) 0.45395(3) 0.13927(5)
C2_7 C 0.2868(6) 0.4912(4) 0.2581(6)
H1_7 H 0.2679 0.4637 0.2680
N1_7 N 0.2970(5) 0.4987(3) 0.2054(5)
C3_7 C 0.3263(11) 0.5373(6) 0.1941(7)
H2_6 H 0.3390 0.5427 0.1583
C4_7 C 0.3389(15) 0.5683(8) 0.2292(10)
H3_7 H 0.3556 0.5956 0.2164
C5_7 C 0.3275(9) 0.5606(5) 0.2854(7)
H4_7 H 0.3371 0.5820 0.3124
C6_7 C 0.3009(6) 0.5193(4) 0.3000(7)
C7_8 C 0.2850(6) 0.5060(5) 0.3615(5)
N2_8 N 0.2995(6) 0.5354(4) 0.3995(5)
H5_8 H 0.3146 0.5612 0.3895
C8_8 C 0.2903(7) 0.5246(5) 0.4565(6)
H6_8 H 0.3099 0.5478 0.4801
H7_8 H 0.2938 0.5008 0.4649
C9_8 C 0.2452(6) 0.5136(4) 0.4715(8)
O5_8 O 0.2219(4) 0.5164(3) 0.4353(5)
N3_8 N 0.2332(6) 0.4998(4) 0.5240(5)
C10_8 C 0.2583(11) 0.4968(9) 0.5683(7)
H8_8 H 0.2667 0.4765 0.5592
H9_8 H 0.2829 0.5237 0.5761
C11_8 C 0.2294(9) 0.4832(8) 0.6150(8)
H10_8 H 0.2328 0.5072 0.6363
H11_8 H 0.2349 0.4658 0.6406
C12_8 C 0.1879(10) 0.4600(6) 0.5938(9)
H12_8 H 0.1680 0.4610 0.6199
H13_8 H 0.1799 0.4311 0.5865
C13_8 C 0.1914(7) 0.4823(5) 0.5412(7)
H14_8 H 0.1734 0.4623 0.5122
C14_8 C 0.1791(8) 0.5151(6) 0.5486(7)
O6_8 O 0.2053(5) 0.5515(4) 0.5579(4)
N4_8 N 0.1406(7) 0.5034(5) 0.5495(6)
C15_8 C 0.1058(10) 0.4594(7) 0.5418(13)
H15_8 H 0.1079 0.4405 0.5686
H16_8 H 0.1051 0.4495 0.5032
C16_8 C 0.0665(10) 0.4639(7) 0.5544(11)
H17_8 H 0.0430 0.4445 0.5311
H18_8 H 0.0586 0.4579 0.5943
C17_8 C 0.0780(11) 0.5076(8) 0.5408(11)
H19_8 H 0.0613 0.5163 0.5627
H20_8 H 0.0747 0.5110 0.5004
C18_8 C 0.1264(9) 0.5333(7) 0.5594(9)
H21_8 H 0.1421 0.5584 0.5358
C19_8 C 0.1304(8) 0.5443(6) 0.6210(7)
O7_8 O 0.1334(6) 0.5234(4) 0.6569(5)
N5_8 N 0.1276(6) 0.5776(4) 0.6310(5)
H22_8 H 0.1253 0.5901 0.6013
C20_8 C 0.1278(6) 0.5954(5) 0.6833(7)
C21_8 C 0.1334(7) 0.5834(5) 0.7351(7)
H23_8 H 0.1375 0.5606 0.7386
C22_8 C 0.1331(8) 0.6046(6) 0.7825(7)
H24_8 H 0.1353 0.5959 0.8190
C23_8 C 0.1293(6) 0.6388(4) 0.7739(8)
H25_8 H 0.1313 0.6546 0.8060
N6_8 N 0.1234(5) 0.6513(3) 0.7269(6)
C24_8 C 0.1235(7) 0.6308(5) 0.6810(7)
H26_8 H 0.1204 0.6402 0.6455
C34_6 C 0.0262(19) 0.3832(13) 0.0983(11)
H36_6 H 0.0214 0.4010 0.1239
H37_6 H 0.0514 0.3831 0.1097
C35_6 C 0.0283(15) 0.3954(11) 0.0418(12)
H38_6 H 0.0565 0.4172 0.0329
H39_6 H 0.0097 0.4066 0.0360
C36_6 C 0.0156(14) 0.3581(9) 0.0017(10)
O10_6 O 0.0576(8) 0.3309(5) 0.0070(9)
O11_6 O 0.1489(6) 0.4192(4) 0.0057(5)
C43_6 C 0.1942(8) 0.3754(6) 0.0015(9)
C45_6 C 0.2390(10) 0.3491(7) 0.0326(12)
H50_6 H 0.2488 0.3304 0.0292
C46_6 C 0.2565(8) 0.3792(6) 0.0687(8)
H51_6 H 0.2783 0.3812 0.0909
N12_6 N 0.2444(4) 0.4087(3) 0.0759(5)
C47_6 C 0.2133(6) 0.4060(4) 0.0429(6)
H52_6 H 0.2043 0.4253 0.0482
O12_8 O 0.1071(11) 0.6971(8) 0.6082(10)
O13_6 O 0.2071(5) 0.7372(4) 0.7040(4)
H53_8 H 0.0792238 0.672835 0.604826
H54_8 H 0.10716 0.721489 0.592369
C20_9 C 0.4676(4) 0.8722(6) 0.0166(7)
C21_9 C 0.4500(5) 0.8666(7) 0.0684(7)
H23_9 H 0.4231 0.8625 0.0719
C22_9 C 0.4715(5) 0.8669(8) 0.1158(7)
H24_9 H 0.4606 0.8647 0.1523
C23_9 C 0.5095(5) 0.8707(6) 0.1072(8)
H25_9 H 0.5233 0.8687 0.1393
N6_9 N 0.5279(4) 0.8766(5) 0.0602(6)
C24_9 C 0.5073(5) 0.8765(7) 0.0143(7)
Ag1_7 Ag 0.18143(3) 0.72748(4) 0.47260(5)
C2_8 C 0.2044(4) 0.7132(6) 0.5914(6)
H1_8 H 0.1958 0.7321 0.6013
N1_8 N 0.2017(4) 0.7030(5) 0.5387(5)
C3_8 C 0.2110(9) 0.6737(11) 0.5274(7)
H2_7 H 0.2037 0.6610 0.4916
C4_8 C 0.2294(13) 0.6611(15) 0.5625(10)
H3_8 H 0.2400 0.6444 0.5497
C5_8 C 0.2331(8) 0.6725(9) 0.6187(7)
H4_8 H 0.2449 0.6629 0.6457
C6_8 C 0.2184(5) 0.6991(6) 0.6333(7)
C7_9 C 0.2210(4) 0.7150(6) 0.6948(5)
N2_9 N 0.2359(4) 0.7005(6) 0.7328(5)
H5_9 H 0.2466 0.6854 0.7228
C8_9 C 0.2343(5) 0.7097(7) 0.7898(6)
H6_9 H 0.2379 0.6901 0.8134
H7_9 H 0.2070 0.7062 0.7982
C9_9 C 0.2684(4) 0.7548(6) 0.8048(8)
O5_9 O 0.2945(3) 0.7781(4) 0.7686(5)
N3_9 N 0.2666(4) 0.7668(6) 0.8573(5)
C10_9 C 0.2385(6) 0.7417(11) 0.9016(7)
H8_9 H 0.2098 0.7333 0.8925
H9_9 H 0.2408 0.7171 0.9094
C11_9 C 0.2538(5) 0.7706(9) 0.9483(8)
H10_9 H 0.2744 0.7672 0.9696
H11_9 H 0.2309 0.7651 0.9739
C12_9 C 0.2721(8) 0.8121(10) 0.9271(9)
H12_9 H 0.2930 0.8320 0.9532
H13_9 H 0.2512 0.8201 0.9198
C13_9 C 0.2909(5) 0.8086(7) 0.8745(7)
H14_9 H 0.2889 0.8266 0.8455
C14_9 C 0.3360(6) 0.8209(8) 0.8819(7)
O6_9 O 0.3462(3) 0.7947(5) 0.8912(4)
N4_9 N 0.3628(5) 0.8594(7) 0.8828(6)
C15_9 C 0.3536(7) 0.8942(10) 0.8751(13)
H15_9 H 0.3326 0.8921 0.9019
H16_9 H 0.3444 0.8949 0.8365
C16_9 C 0.3974(7) 0.9335(10) 0.8877(11)
H17_9 H 0.4015 0.9570 0.8644
H18_9 H 0.3993 0.9414 0.9276
C17_9 C 0.4296(7) 0.9220(11) 0.8741(11)
H19_9 H 0.4550 0.9387 0.8960
H20_9 H 0.4363 0.9253 0.8337
C18_9 C 0.4069(5) 0.8736(9) 0.8927(9)
H21_9 H 0.4163 0.8579 0.8691
C19_9 C 0.4139(5) 0.8696(8) 0.9543(7)
O7_9 O 0.3900(4) 0.8666(6) 0.9902(5)
N5_9 N 0.4500(4) 0.8724(6) 0.9643(5)
H22_9 H 0.4648 0.8747 0.9346
H26_9 H 0.5198 0.8796 0.9788
C34_7 C 0.3570(14) 0.9738(19) 0.4316(11)
H36_7 H 0.3796 0.9786 0.4572
H37_7 H 0.3317 0.9486 0.4430
C35_7 C 0.3671(10) 0.9717(15) 0.3751(12)
H38_7 H 0.3607 0.9435 0.3662
H39_7 H 0.3969 0.9903 0.3693
C36_7 C 0.3425(11) 0.9844(14) 0.3350(10)
H40_7 H 0.3604 0.9999 0.3025
C37_7 C 0.3054(9) 0.9513(12) 0.3143(12)
O10_7 O 0.2733(6) 0.9424(8) 0.3403(9)
N10_7 N 0.3061(6) 0.9274(9) 0.2776(7)
C38_7 C 0.3425(8) 0.9340(13) 0.2440(10)
H41_7 H 0.3587 0.9627 0.2312
H42_7 H 0.3603 0.9269 0.2660
C39_7 C 0.3276(18) 0.9116(27) 0.205(3)
H43_7 H 0.3466 0.9016 0.1940
H44_7 H 0.3257 0.9271 0.1736
C40_7 C 0.2844(10) 0.8731(16) 0.2148(10)
H45_7 H 0.2862 0.8495 0.2296
H46_7 H 0.2679 0.8648 0.1800
C41_7 C 0.2657(8) 0.8914(11) 0.2617(8)
H47_7 H 0.2457 0.8989 0.2461
C42_7 C 0.2484(5) 0.8595(7) 0.3052(7)
O11_7 O 0.2703(4) 0.8511(6) 0.3390(5)
N11_7 N 0.2095(6) 0.8388(8) 0.3058(6)
H48_7 H 0.1983 0.8480 0.2818
C43_7 C 0.1812(6) 0.8058(8) 0.3348(9)
C44_7 C 0.1378(7) 0.7941(11) 0.3319(12)
H49_7 H 0.1287 0.8081 0.3082
C45_7 C 0.1101(7) 0.7610(10) 0.3659(12)
H50_7 H 0.0816 0.7512 0.3625
C46_7 C 0.1227(5) 0.7435(8) 0.4020(8)
H51_7 H 0.1029 0.7217 0.4242
N12_7 N 0.1643(3) 0.7556(4) 0.4092(5)
C47_7 C 0.1927(4) 0.7867(6) 0.3762(6)
H52_7 H 0.2210 0.7957 0.3815
O12_9 O 0.5900(8) 0.8929(11) 0.9415(10)
H53_9 H 0.593611 0.920776 0.938159
H54_9 H 0.614328 0.89284 0.925703
Ag1_8 Ag 0.81857(3) 0.54605(3) 0.86073(5)
Ag2_3 Ag 0.41823(3) 0.28953(3) 0.28357(5)
C2_9 C 0.7956(4) 0.5088(4) 0.7419(6)
H1_9 H 0.8042 0.5363 0.7320
N1_9 N 0.7983(4) 0.5013(3) 0.7946(5)
C3_9 C 0.7890(9) 0.4627(6) 0.8059(7)
H2_8 H 0.7963 0.4573 0.8417
C4_9 C 0.7706(13) 0.4317(8) 0.7708(10)
H3_9 H 0.7600 0.4044 0.7836
C5_9 C 0.7669(8) 0.4394(5) 0.7146(7)
H4_9 H 0.7551 0.4180 0.6876
C6_9 C 0.7816(5) 0.4807(4) 0.7000(7)
C7_10 C 0.7790(4) 0.4940(5) 0.6385(5)
O4_4 O 0.7929(3) 0.5301(3) 0.6293(4)
N2_10 N 0.7641(4) 0.4646(4) 0.6005(5)
H5_10 H 0.7534 0.4388 0.6105
C8_10 C 0.7657(5) 0.4754(5) 0.5435(6)
H6_10 H 0.7621 0.4522 0.5199
H7_10 H 0.7930 0.4992 0.5351
C9_10 C 0.7316(4) 0.4864(4) 0.5285(8)
O5_10 O 0.7055(3) 0.4836(3) 0.5647(5)
N3_10 N 0.7334(4) 0.5002(4) 0.4760(5)
C10_10 C 0.7615(6) 0.5032(9) 0.4317(7)
H8_10 H 0.7902 0.5235 0.4408
H9_10 H 0.7592 0.4763 0.4239
C11_10 C 0.7462(5) 0.5168(8) 0.3850(8)
H10_10 H 0.7256 0.4928 0.3637
H11_10 H 0.7691 0.5342 0.3594
C12_10 C 0.7279(8) 0.5400(6) 0.4062(9)
H12_10 H 0.7070 0.5390 0.3801
H13_10 H 0.7488 0.5689 0.4135
C13_10 C 0.7091(5) 0.5177(5) 0.4588(7)
H14_10 H 0.7111 0.5377 0.4878
C14_10 C 0.6640(6) 0.4849(6) 0.4514(7)
O6_10 O 0.6538(3) 0.4485(4) 0.4421(4)
N4_10 N 0.6372(5) 0.4966(5) 0.4505(6)
C15_10 C 0.6464(7) 0.5406(7) 0.4582(13)
H15_10 H 0.6674 0.5595 0.4314
H16_10 H 0.6556 0.5505 0.4968
C16_10 C 0.6026(7) 0.5361(7) 0.4456(11)
H17_10 H 0.5985 0.5555 0.4689
H18_10 H 0.6007 0.5421 0.4057
C17_10 C 0.5704(7) 0.4924(8) 0.4592(11)
H19_10 H 0.5450 0.4837 0.4373
H20_10 H 0.5637 0.4890 0.4996
C18_10 C 0.5931(5) 0.4667(7) 0.4406(9)
H21_10 H 0.5837 0.4416 0.4642
C19_10 C 0.5861(5) 0.4557(6) 0.3790(7)
O7_10 O 0.6100(4) 0.4766(4) 0.3431(5)
N5_10 N 0.5500(4) 0.4224(4) 0.3690(5)
H22_10 H 0.5352 0.4099 0.3987
C20_10 C 0.5324(4) 0.4046(5) 0.3167(7)
C21_10 C 0.5500(5) 0.4166(5) 0.2649(7)
H23_10 H 0.5769 0.4394 0.2614
C22_10 C 0.5285(5) 0.3954(6) 0.2175(7)
H24_10 H 0.5394 0.4041 0.1810
C23_10 C 0.4905(5) 0.3612(4) 0.2261(8)
H25_10 H 0.4767 0.3454 0.1940
N6_10 N 0.4721(4) 0.3487(3) 0.2731(6)
C24_10 C 0.4927(5) 0.3692(5) 0.3190(7)
H26_10 H 0.4802 0.3598 0.3545
H27_9 H 0.6031 0.8155 0.9926
C29_9 C 0.6616(8) 0.8261(6) 0.9967(8)
C30_9 C 0.6455(9) 0.7848(7) 0.9685(9)
O8_9 O 0.6152(8) 0.7640(5) 0.9497(7)
N8_9 N 0.6774(11) 0.7753(9) 0.9611(8)
H31_9 H 0.7012 0.7935 0.9754
C31_9 C 0.6772(17) 0.7421(13) 0.9350(14)
H32_9 H 0.7046 0.7504 0.9197
H33_9 H 0.6572 0.7320 0.9039
C32_9 C 0.6638(11) 0.7043(11) 0.9844(15)
N9_9 N 0.6611(8) 0.6747(7) 0.9613(8)
C33_9 C 0.6496(17) 0.6605(14) 0.9040(10)
H34_9 H 0.6715 0.6787 0.8777
H35_9 H 0.6240 0.6603 0.8937
C34_8 C 0.6430(14) 0.6168(13) 0.9017(11)
H36_8 H 0.6204 0.5990 0.8761
H37_8 H 0.6683 0.6169 0.8903
C35_8 C 0.6329(10) 0.6046(11) 0.9582(12)
H38_8 H 0.6393 0.5828 0.9671
H39_8 H 0.6031 0.5934 0.9640
C36_8 C 0.6575(11) 0.6419(9) 0.9983(10)
O10_8 O 0.7267(6) 0.6691(5) 0.9930(9)
O11_8 O 0.7297(4) 0.5808(4) 0.9943(5)
C43_8 C 0.8188(6) 0.6246(6) 0.9985(9)
C45_8 C 0.8899(7) 0.6509(7) 0.9674(12)
H50_8 H 0.9184 0.6696 0.9708
C46_8 C 0.8773(5) 0.6208(6) 0.9313(8)
H51_8 H 0.8971 0.6188 0.9091
N12_8 N 0.8357(3) 0.5913(3) 0.9241(5)
C47_8 C 0.8073(4) 0.5940(4) 0.9571(6)
H52_8 H 0.7790 0.5747 0.9518
O12_10 O 0.4100(8) 0.3029(8) 0.3918(10)
Ag3_2 Ag 0.87130(4) 0.58177(3) 0.61690(5)
O13_7 O 0.4699(3) 0.2628(4) 0.2960(4)
N13_4 N 0.3637(3) 0.2311(5) 0.3019(6)
H53_10 H 0.406389 0.327165 0.395174
H54_10 H 0.385672 0.278511 0.407631
Ag1_9 Ag 0.45395(3) 0.27252(4) 0.52740(5)
C2_10 C 0.4912(4) 0.2868(6) 0.4086(6)
H1_10 H 0.4637 0.2679 0.3987
N1_10 N 0.4987(3) 0.2970(5) 0.4613(5)
C3_10 C 0.5373(6) 0.3263(11) 0.4726(7)
H2_9 H 0.5427 0.3390 0.5084
C4_10 C 0.5683(8) 0.3389(15) 0.4375(10)
H3_10 H 0.5956 0.3556 0.4503
C5_10 C 0.5606(5) 0.3275(9) 0.3813(7)
H4_10 H 0.5820 0.3371 0.3543
C6_10 C 0.5193(4) 0.3009(6) 0.3667(7)
C7_11 C 0.5060(5) 0.2850(6) 0.3052(5)
N2_11 N 0.5354(4) 0.2995(6) 0.2672(5)
H5_11 H 0.5612 0.3146 0.2772
C8_11 C 0.5246(5) 0.2903(7) 0.2102(6)
H6_11 H 0.5478 0.3099 0.1866
H7_11 H 0.5008 0.2938 0.2018
C9_11 C 0.5136(4) 0.2452(6) 0.1952(8)
O5_11 O 0.5164(3) 0.2219(4) 0.2314(5)
N3_11 N 0.4998(4) 0.2332(6) 0.1427(5)
C10_11 C 0.4968(9) 0.2583(11) 0.0984(7)
H8_11 H 0.4765 0.2667 0.1075
H9_11 H 0.5237 0.2829 0.0906
C11_11 C 0.4832(8) 0.2294(9) 0.0517(8)
H10_11 H 0.5072 0.2328 0.0304
H11_11 H 0.4658 0.2349 0.0261
C12_11 C 0.4600(6) 0.1879(10) 0.0729(9)
H12_11 H 0.4610 0.1680 0.0468
H13_11 H 0.4311 0.1799 0.0802
C13_11 C 0.4823(5) 0.1914(7) 0.1255(7)
H14_11 H 0.4623 0.1734 0.1545
C14_11 C 0.5151(6) 0.1791(8) 0.1181(7)
O6_11 O 0.5515(4) 0.2053(5) 0.1088(4)
N4_11 N 0.5034(5) 0.1406(7) 0.1172(6)
C15_11 C 0.4594(7) 0.1058(10) 0.1249(13)
H15_11 H 0.4405 0.1079 0.0981
H16_11 H 0.4495 0.1051 0.1635
C16_11 C 0.4639(7) 0.0665(10) 0.1123(11)
H17_11 H 0.4445 0.0430 0.1356
H18_11 H 0.4579 0.0586 0.0724
C17_11 C 0.5076(8) 0.0780(11) 0.1259(11)
H19_11 H 0.5163 0.0613 0.1040
H20_11 H 0.5110 0.0747 0.1663
C18_11 C 0.5333(7) 0.1264(9) 0.1073(9)
H21_11 H 0.5584 0.1421 0.1309
C19_11 C 0.5443(6) 0.1304(8) 0.0457(7)
O7_11 O 0.5234(4) 0.1334(6) 0.0098(5)
N5_11 N 0.5776(4) 0.1276(6) 0.0357(5)
H22_11 H 0.5901 0.1253 0.0654
H26_11 H 0.6402 0.1204 0.0212
C34_9 C 0.3832(13) 0.0262(19) 0.5684(11)
H36_9 H 0.4010 0.0214 0.5428
H37_9 H 0.3831 0.0514 0.5570
C35_9 C 0.3954(11) 0.0283(15) 0.6249(12)
H38_9 H 0.4172 0.0565 0.6338
H39_9 H 0.4066 0.0097 0.6307
C36_9 C 0.3581(9) 0.0156(14) 0.6650(10)
H40_8 H 0.3605 0.0001 0.6975
C37_8 C 0.3541(8) 0.0487(12) 0.6857(12)
O10_9 O 0.3309(5) 0.0576(8) 0.6597(9)
N10_8 N 0.3787(7) 0.0726(9) 0.7224(7)
C38_8 C 0.4085(10) 0.0660(13) 0.7560(10)
H41_8 H 0.3960 0.0373 0.7688
H42_8 H 0.4334 0.0731 0.7340
C39_8 C 0.416(2) 0.0884(27) 0.795(3)
H43_8 H 0.4450 0.0984 0.8060
H44_8 H 0.3986 0.0729 0.8264
C40_8 C 0.4113(12) 0.1269(16) 0.7852(10)
H45_8 H 0.4367 0.1505 0.7704
H46_8 H 0.4031 0.1352 0.8200
C41_8 C 0.3743(8) 0.1086(11) 0.7383(8)
H47_8 H 0.3468 0.1011 0.7539
C42_8 C 0.3889(5) 0.1405(7) 0.6948(7)
O11_9 O 0.4192(4) 0.1489(6) 0.6610(5)
N11_8 N 0.3707(5) 0.1612(8) 0.6942(6)
H48_8 H 0.3503 0.1520 0.7182
C43_9 C 0.3754(6) 0.1942(8) 0.6652(9)
C44_8 C 0.3437(8) 0.2059(11) 0.6681(12)
H49_8 H 0.3206 0.1919 0.6918
C45_9 C 0.3491(7) 0.2390(10) 0.6341(12)
H50_9 H 0.3304 0.2488 0.6375
C46_9 C 0.3792(6) 0.2565(8) 0.5980(8)
H51_9 H 0.3812 0.2783 0.5758
N12_9 N 0.4087(3) 0.2444(4) 0.5908(5)
C47_9 C 0.4060(4) 0.2133(6) 0.6238(6)
H52_9 H 0.4253 0.2043 0.6185
O12_11 O 0.6971(8) 0.1071(11) 0.0585(10)
H53_11 H 0.672835 0.0792238 0.0618405
H54_11 H 0.721489 0.10716 0.0742972
Ag2_4 Ag 0.71047(3) 0.12870(4) 0.95024(5)
C20_11 C 0.5954(5) 0.1278(6) 0.9834(7)
C21_11 C 0.5834(5) 0.1334(7) 0.9316(7)
H23_11 H 0.5606 0.1375 0.9281
C22_11 C 0.6046(6) 0.1331(8) 0.8842(7)
H24_11 H 0.5959 0.1353 0.8477
C23_11 C 0.6388(4) 0.1293(6) 0.8928(8)
H25_11 H 0.6546 0.1313 0.8607
N6_11 N 0.6513(3) 0.1234(5) 0.9398(6)
C24_11 C 0.6308(5) 0.1235(7) 0.9857(7)
O13_8 O 0.7372(4) 0.2071(5) 0.9626(4)
N13_5 N 0.7689(5) 0.1326(6) 0.9686(6)
C7_12 C 0.7150(6) 0.2210(4) 0.9718(5)
N2_12 N 0.7005(6) 0.2359(4) 0.9338(5)
H5_12 H 0.6854 0.2466 0.9438
C8_12 C 0.7097(7) 0.2343(5) 0.8768(6)
H6_12 H 0.6901 0.2379 0.8532
H7_12 H 0.7062 0.2070 0.8684
C9_12 C 0.7548(6) 0.2684(4) 0.8618(8)
O5_12 O 0.7781(4) 0.2945(3) 0.8980(5)
N3_12 N 0.7668(6) 0.2666(4) 0.8093(5)
C10_12 C 0.7417(11) 0.2385(6) 0.7650(7)
H8_12 H 0.7333 0.2098 0.7741
H9_12 H 0.7171 0.2408 0.7572
C11_12 C 0.7706(9) 0.2538(5) 0.7183(8)
H10_12 H 0.7672 0.2744 0.6970
H11_12 H 0.7651 0.2309 0.6927
C12_12 C 0.8121(10) 0.2721(8) 0.7395(9)
H12_12 H 0.8320 0.2930 0.7134
H13_12 H 0.8201 0.2512 0.7468
C13_12 C 0.8086(7) 0.2909(5) 0.7921(7)
H14_12 H 0.8266 0.2889 0.8211
C14_12 C 0.8209(8) 0.3360(6) 0.7847(7)
O6_12 O 0.7947(5) 0.3462(3) 0.7754(4)
N4_12 N 0.8594(7) 0.3628(5) 0.7838(6)
C15_12 C 0.8942(10) 0.3536(7) 0.7915(13)
H15_12 H 0.8921 0.3326 0.7647
H16_12 H 0.8949 0.3444 0.8301
C16_12 C 0.9335(10) 0.3974(7) 0.7789(11)
H17_12 H 0.9570 0.4015 0.8022
H18_12 H 0.9414 0.3993 0.7390
C17_12 C 0.9220(11) 0.4296(7) 0.7925(11)
H19_12 H 0.9387 0.4550 0.7706
H20_12 H 0.9253 0.4363 0.8329
C18_12 C 0.8736(9) 0.4069(5) 0.7739(9)
H21_12 H 0.8579 0.4163 0.7975
C19_12 C 0.8696(8) 0.4139(5) 0.7123(7)
O7_12 O 0.8666(6) 0.3900(4) 0.6764(5)
N5_12 N 0.8724(6) 0.4500(4) 0.7023(5)
H22_12 H 0.8747 0.4648 0.7320
C20_12 C 0.8722(6) 0.4676(4) 0.6500(7)
C21_12 C 0.8666(7) 0.4500(5) 0.5982(7)
H23_12 H 0.8625 0.4231 0.5947
C22_12 C 0.8669(8) 0.4715(5) 0.5508(7)
H24_12 H 0.8647 0.4606 0.5143
C23_12 C 0.8707(6) 0.5095(5) 0.5594(8)
H25_12 H 0.8687 0.5233 0.5273
N6_12 N 0.8766(5) 0.5279(4) 0.6064(6)
C24_12 C 0.8765(7) 0.5073(5) 0.6523(7)
H26_12 H 0.8796 0.5198 0.6878
O12_12 O 0.8929(11) 0.5900(8) 0.7251(10)
N13_6 N 0.8674(6) 0.6363(3) 0.6353(6)
H53_12 H 0.920776 0.593611 0.728507
H54_12 H 0.89284 0.614328 0.740964
Ag1_10 Ag 0.54605(3) 0.81857(3) 0.80594(5)
C2_11 C 0.5088(4) 0.7956(4) 0.9248(6)
H1_11 H 0.5363 0.8042 0.9347
N1_11 N 0.5013(3) 0.7983(4) 0.8721(5)
C3_11 C 0.4627(6) 0.7890(9) 0.8608(7)
H2_10 H 0.4573 0.7963 0.8250
C4_11 C 0.4317(8) 0.7706(13) 0.8959(10)
H3_11 H 0.4044 0.7600 0.8831
C5_11 C 0.4394(5) 0.7669(8) 0.9521(7)
H4_11 H 0.4180 0.7551 0.9791
C6_11 C 0.4807(4) 0.7816(5) 0.9667(7)
C25_10 C 0.8344(4) 0.6299(5) 0.6611(5)
H27_10 H 0.8155 0.6031 0.6741
C26_10 C 0.8947(7) 0.6722(5) 0.6172(14)
H28_10 H 0.9180 0.6766 0.5963
C27_10 C 0.8873(12) 0.7044(8) 0.6306(19)
H29_10 H 0.9090 0.7318 0.6255
C28_10 C 0.8543(10) 0.6993(8) 0.6486(18)
H30_10 H 0.8484 0.7210 0.6477
C29_10 C 0.8261(6) 0.6616(8) 0.6700(8)
C30_10 C 0.7848(7) 0.6455(9) 0.6982(9)
O8_10 O 0.7640(5) 0.6152(8) 0.7170(7)
N8_10 N 0.7753(9) 0.6774(11) 0.7056(8)
H31_10 H 0.7935 0.7012 0.6913
C31_10 C 0.7421(13) 0.6772(17) 0.7317(14)
H32_10 H 0.7504 0.7046 0.7470
H33_10 H 0.7320 0.6572 0.7628
C32_10 C 0.7043(11) 0.6638(11) 0.6823(15)
O9_10 O 0.7181(5) 0.6764(6) 0.6337(8)
N9_10 N 0.6747(7) 0.6611(8) 0.7054(8)
C33_10 C 0.6605(14) 0.6496(17) 0.7627(10)
H34_10 H 0.6787 0.6715 0.7890
H35_10 H 0.6603 0.6240 0.7730
C34_10 C 0.6168(13) 0.6430(14) 0.7650(11)
H36_10 H 0.5990 0.6204 0.7906
H37_10 H 0.6169 0.6683 0.7764
C35_10 C 0.6046(11) 0.6329(10) 0.7085(12)
H38_10 H 0.5828 0.6393 0.6996
H39_10 H 0.5934 0.6031 0.7027
C36_10 C 0.6419(9) 0.6575(11) 0.6684(10)
H40_9 H 0.6395 0.6396 0.6359
C37_9 C 0.6459(8) 0.6946(9) 0.6477(12)
O10_10 O 0.6691(5) 0.7267(6) 0.6737(9)
N10_9 N 0.6213(7) 0.6939(6) 0.6110(7)
C38_9 C 0.5915(10) 0.6575(8) 0.5774(10)
H41_9 H 0.6040 0.6413 0.5646
H42_9 H 0.5666 0.6397 0.5994
C39_9 C 0.584(2) 0.6724(18) 0.539(3)
H43_9 H 0.5550 0.6534 0.5274
H44_9 H 0.6014 0.6743 0.5070
C40_9 C 0.5887(12) 0.7156(10) 0.5482(10)
H45_9 H 0.5633 0.7138 0.5630
H46_9 H 0.5969 0.7321 0.5134
C41_9 C 0.6257(8) 0.7343(8) 0.5951(8)
H47_9 H 0.6532 0.7543 0.5795
C42_9 C 0.6111(5) 0.7516(5) 0.6386(7)
O11_10 O 0.5808(4) 0.7297(4) 0.6724(5)
N11_9 N 0.6293(5) 0.7905(6) 0.6392(6)
H48_9 H 0.6497 0.8017 0.6152
C43_10 C 0.6246(6) 0.8188(6) 0.6682(9)
C44_9 C 0.6563(8) 0.8622(7) 0.6653(12)
H49_9 H 0.6794 0.8713 0.6416
C45_10 C 0.6509(7) 0.8899(7) 0.6993(12)
H50_10 H 0.6696 0.9184 0.6959
C46_10 C 0.6208(6) 0.8773(5) 0.7354(8)
H51_10 H 0.6188 0.8971 0.7576
N12_10 N 0.5913(3) 0.8357(3) 0.7426(5)
C47_10 C 0.5940(4) 0.8073(4) 0.7096(6)
H52_10 H 0.5747 0.7790 0.7149
C25_11 C 0.7955(6) 0.1656(4) 0.9944(5)
C26_11 C 0.7775(9) 0.1053(7) 0.9505(14)
H28_11 H 0.7586 0.0820 0.9296
C27_11 C 0.8171(14) 0.1127(12) 0.9639(19)
H29_11 H 0.8228 0.0910 0.9588
C28_11 C 0.8450(13) 0.1457(10) 0.9819(18)
H30_11 H 0.8726 0.1516 0.9810
O9_11 O 0.9583(8) 0.2819(5) 0.9670(8)
C25_12 C 0.3701(5) 0.2045(6) 0.3277(5)
H27_11 H 0.3969 0.2124 0.3407
C26_12 C 0.3278(5) 0.2225(9) 0.2838(14)
H28_12 H 0.3234 0.2414 0.2629
C27_12 C 0.2956(8) 0.1829(14) 0.2972(19)
H29_12 H 0.2682 0.1772 0.2921
C28_12 C 0.3007(8) 0.1550(13) 0.3152(18)
H30_12 H 0.2790 0.1274 0.3143
C29_11 C 0.3384(8) 0.1645(10) 0.3366(8)
C30_11 C 0.3545(9) 0.1393(11) 0.3648(9)
O8_11 O 0.3848(8) 0.1488(9) 0.3836(7)
N8_11 N 0.3226(11) 0.0979(14) 0.3722(8)
H31_11 H 0.2988 0.0923 0.3579
C31_11 C 0.3228(17) 0.0649(21) 0.3983(14)
H32_11 H 0.2954 0.0458 0.4136
H33_11 H 0.3428 0.0748 0.4294
C32_11 C 0.3362(11) 0.0405(16) 0.3489(15)
O9_12 O 0.3236(6) 0.0417(8) 0.3003(8)
N9_11 N 0.3389(8) 0.0136(11) 0.3720(8)
C33_11 C 0.3504(17) 0.0109(22) 0.4293(10)
H34_11 H 0.3285 0.0072 0.4556
H35_11 H 0.3760 0.0363 0.4396
Ag1_11 Ag 0.72748(4) 0.18143(3) 0.19406(5)
C2_12 C 0.7132(6) 0.2044(4) 0.0752(6)
H1_12 H 0.7321 0.1958 0.0653
N1_12 N 0.7030(5) 0.2017(4) 0.1279(5)
C3_12 C 0.6737(11) 0.2110(9) 0.1392(7)
H2_11 H 0.6610 0.2037 0.1750
C4_12 C 0.6611(15) 0.2294(13) 0.1041(10)
H3_12 H 0.6444 0.2400 0.1169
C5_12 C 0.6725(9) 0.2331(8) 0.0479(7)
H4_12 H 0.6629 0.2449 0.0209
C6_12 C 0.6991(6) 0.2184(5) 0.0333(7)
C34_11 C 0.9738(19) 0.3570(14) 0.2350(11)
H36_11 H 0.9786 0.3796 0.2094
H37_11 H 0.9486 0.3317 0.2236
C35_11 C 0.9717(15) 0.3671(10) 0.2915(12)
H38_11 H 0.9435 0.3607 0.3004
H39_11 H 0.9903 0.3969 0.2973
C36_11 C 0.9844(14) 0.3425(11) 0.3316(10)
H40_10 H 0.9999 0.3604 0.3641
C37_10 C 0.9513(12) 0.3054(9) 0.3523(12)
O10_11 O 0.9424(8) 0.2733(6) 0.3263(9)
N10_10 N 0.9274(9) 0.3061(6) 0.3890(7)
C38_10 C 0.9340(13) 0.3425(8) 0.4226(10)
H41_10 H 0.9627 0.3587 0.4354
H42_10 H 0.9269 0.3603 0.4006
C39_10 C 0.9116(27) 0.3276(18) 0.461(3)
H43_10 H 0.9016 0.3466 0.4726
H44_10 H 0.9271 0.3257 0.4930
C40_10 C 0.8731(16) 0.2844(10) 0.4518(10)
H45_10 H 0.8495 0.2862 0.4370
H46_10 H 0.8648 0.2679 0.4866
C41_10 C 0.8914(11) 0.2657(8) 0.4049(8)
H47_10 H 0.8989 0.2457 0.4205
C42_10 C 0.8595(7) 0.2484(5) 0.3614(7)
O11_11 O 0.8511(6) 0.2703(4) 0.3276(5)
N11_10 N 0.8388(8) 0.2095(6) 0.3608(6)
H48_10 H 0.8480 0.1983 0.3848
C43_11 C 0.8058(8) 0.1812(6) 0.3318(9)
C44_10 C 0.7941(11) 0.1378(7) 0.3347(12)
H49_10 H 0.8081 0.1287 0.3584
C45_11 C 0.7610(10) 0.1101(7) 0.3007(12)
H50_11 H 0.7512 0.0816 0.3041
C46_11 C 0.7435(8) 0.1227(5) 0.2646(8)
H51_11 H 0.7217 0.1029 0.2424
N12_11 N 0.7556(4) 0.1643(3) 0.2574(5)
C47_11 C 0.7867(6) 0.1927(4) 0.2904(6)
H52_11 H 0.7957 0.2210 0.2851
Ag1_12 Ag 0.81857(3) 0.27252(4) 0.97260(5)
H2_12 H 0.7963 0.3390 0.9916
C34_12 C 0.6430(14) 0.0262(19) 0.9316(11)
H36_12 H 0.6204 0.0214 0.9572
H37_12 H 0.6683 0.0514 0.9430
C35_12 C 0.6329(10) 0.0283(15) 0.8751(12)
H38_12 H 0.6393 0.0565 0.8662
H39_12 H 0.6031 0.0097 0.8693
C36_12 C 0.6575(11) 0.0156(14) 0.8350(10)
H40_11 H 0.6396 0.0001 0.8025
C37_11 C 0.6946(9) 0.0487(12) 0.8143(12)
O10_12 O 0.7267(6) 0.0576(8) 0.8403(9)
N10_11 N 0.6939(6) 0.0726(9) 0.7776(7)
C38_11 C 0.6575(8) 0.0660(13) 0.7440(10)
H41_11 H 0.6413 0.0373 0.7312
H42_11 H 0.6397 0.0731 0.7660
C39_11 C 0.6724(18) 0.0884(27) 0.705(3)
H43_11 H 0.6534 0.0984 0.6940
H44_11 H 0.6743 0.0729 0.6736
C40_11 C 0.7156(10) 0.1269(16) 0.7148(10)
H45_11 H 0.7138 0.1505 0.7296
H46_11 H 0.7321 0.1352 0.6800
C41_11 C 0.7343(8) 0.1086(11) 0.7617(8)
H47_11 H 0.7543 0.1011 0.7461
C42_11 C 0.7516(5) 0.1405(7) 0.8052(7)
O11_12 O 0.7297(4) 0.1489(6) 0.8390(5)
N11_11 N 0.7905(6) 0.1612(8) 0.8058(6)
H48_11 H 0.8017 0.1520 0.7818
C43_12 C 0.8188(6) 0.1942(8) 0.8348(9)
C44_11 C 0.8622(7) 0.2059(11) 0.8319(12)
H49_11 H 0.8713 0.1919 0.8082
C45_12 C 0.8899(7) 0.2390(10) 0.8659(12)
H50_12 H 0.9184 0.2488 0.8625
C46_12 C 0.8773(5) 0.2565(8) 0.9020(8)
H51_12 H 0.8971 0.2783 0.9242
N12_12 N 0.8357(3) 0.2444(4) 0.9092(5)
C47_12 C 0.8073(4) 0.2133(6) 0.8762(6)
H52_12 H 0.7790 0.2043 0.8815
H40_12 H 0.0001 0.3605 0.9692
C37_12 C 0.0487(12) 0.3541(8) 0.9810(12)
N10_12 N 0.0726(9) 0.3787(7) 0.9443(7)
C38_12 C 0.0660(13) 0.4085(10) 0.9107(10)
H41_12 H 0.0373 0.3960 0.8979
H42_12 H 0.0731 0.4334 0.9327
C39_12 C 0.0884(27) 0.416(2) 0.872(3)
H43_12 H 0.0984 0.4450 0.8607
H44_12 H 0.0729 0.3986 0.8403
C40_12 C 0.1269(16) 0.4113(12) 0.8815(10)
H45_12 H 0.1505 0.4367 0.8963
H46_12 H 0.1352 0.4031 0.8467
C41_12 C 0.1086(11) 0.3743(8) 0.9284(8)
H47_12 H 0.1011 0.3468 0.9128
C42_12 C 0.1405(7) 0.3889(5) 0.9719(7)
N11_12 N 0.1612(8) 0.3707(5) 0.9725(6)
H48_12 H 0.1520 0.3503 0.9485
C44_12 C 0.2059(11) 0.3437(8) 0.9986(12)
H49_12 H 0.1919 0.3206 0.9749
H27_12 H 0.7876 0.1845 0.0074
C29_12 C 0.8355(10) 0.1739(6) 0.0033(8)
C30_12 C 0.8607(11) 0.2152(7) 0.0315(9)
O8_12 O 0.8512(9) 0.2360(5) 0.0503(7)
N8_12 N 0.9021(14) 0.2247(9) 0.0389(8)
H31_12 H 0.9077 0.2065 0.0246
C31_12 C 0.9351(21) 0.2579(13) 0.0650(14)
H32_12 H 0.9542 0.2496 0.0803
H33_12 H 0.9252 0.2680 0.0961
C32_12 C 0.9595(16) 0.2957(11) 0.0156(15)
N9_12 N 0.9864(11) 0.3253(7) 0.0387(8)
C33_12 C 0.9891(22) 0.3395(14) 0.0960(10)
H34_12 H 0.9928 0.3213 0.1223
H35_12 H 0.9637 0.3397 0.1063
loop_
_geom_bond_atom_site_label_1
_geom_bond_atom_site_label_2
_geom_bond_site_symmetry_1
_geom_bond_site_symmetry_2
F1 C1 1_555 1_555
F2 C1 1_555 1_555
F3 C1 1_555 1_555
C1 S1 1_555 1_555
S1 O1 1_555 1_555
O2 S1 1_555 1_555
O3 S1 1_555 1_555
F1_2 C1_2 1_555 1_555
F2_2 C1_2 1_555 1_555
F3_2 C1_2 1_555 1_555
C1_2 S1_2 1_555 1_555
S1_2 O1_2 1_555 1_555
O2_2 S1_2 1_555 1_555
O3_2 S1_2 1_555 1_555
F1_3 C1_3 1_555 1_555
F2_3 C1_3 1_555 1_555
F3_3 C1_3 1_555 1_555
C1_3 S1_3 1_555 1_555
S1_3 O1_3 1_555 1_555
O2_3 S1_3 1_555 1_555
O3_3 S1_3 1_555 1_555
F1_4 C1_4 1_555 1_555
F2_4 C1_4 1_555 1_555
F3_4 C1_4 1_555 1_555
C1_4 S1_4 1_555 1_555
S1_4 O1_4 1_555 1_555
O2_4 S1_4 1_555 1_555
O3_4 S1_4 1_555 1_555
F1_5 C1_5 1_555 1_555
F2_5 C1_5 1_555 1_555
F3_5 C1_5 1_555 1_555
C1_5 S1_5 1_555 1_555
S1_5 O1_5 1_555 1_555
O2_5 S1_5 1_555 1_555
O3_5 S1_5 1_555 1_555
O2_6 S1_6 1_555 1_555
O3_6 S1_6 1_555 1_555
F1_6 C1_6 1_555 1_555
F2_6 C1_6 1_555 1_555
F1_7 C1_7 1_555 1_555
F2_7 C1_7 1_555 1_555
F3_7 C1_7 1_555 1_555
C1_7 S1_7 1_555 1_555
S1_7 O1_7 1_555 1_555
O2_7 S1_7 1_555 1_555
O3_7 S1_7 1_555 1_555
F1_8 C1_8 1_555 1_555
F2_8 C1_8 1_555 1_555
F3_8 C1_8 1_555 1_555
C1_8 S1_8 1_555 1_555
S1_8 O1_8 1_555 1_555
O2_8 S1_8 1_555 1_555
O3_8 S1_8 1_555 1_555
F1_9 C1_9 1_555 1_555
F2_9 C1_9 1_555 1_555
F3_9 C1_9 1_555 1_555
C1_9 S1_9 1_555 1_555
S1_9 O1_9 1_555 1_555
O2_9 S1_9 1_555 1_555
O3_9 S1_9 1_555 1_555
F1_10 C1_10 1_555 1_555
F2_10 C1_10 1_555 1_555
O2_10 S1_10 1_555 1_555
O3_10 S1_10 1_555 1_555
F1_11 C1_11 1_555 1_555
F2_11 C1_11 1_555 1_555
F3_11 C1_11 1_555 1_555
C1_11 S1_11 1_555 1_555
S1_11 O1_11 1_555 1_555
O2_11 S1_11 1_555 1_555
O3_11 S1_11 1_555 1_555
F1_12 C1_12 1_555 1_555
F2_12 C1_12 1_555 1_555
F3_12 C1_12 1_555 1_555
C1_12 S1_12 1_555 1_555
S1_12 O1_12 1_555 1_555
O2_12 S1_12 1_555 1_555
O3_12 S1_12 1_555 1_555
Ag1 N1 1_555 1_555
C2 H1 1_555 1_555
N1 C2 1_555 1_555
C3 N1 1_555 1_555
H2 C3 1_555 1_555
C4 C3 1_555 1_555
H3 C4 1_555 1_555
C5 C4 1_555 1_555
H4 C5 1_555 1_555
C6 C2 1_555 1_555
C7 C6 1_555 1_555
O4 C7 1_555 1_555
N2 C7 1_555 1_555
H5 N2 1_555 1_555
C8 N2 1_555 1_555
H6 C8 1_555 1_555
H7 C8 1_555 1_555
C9 C8 1_555 1_555
O5 C9 1_555 1_555
C25 H27 1_555 1_555
N7 C25 1_555 1_555
C26 N7 1_555 1_555
H28 C26 1_555 1_555
C27 C26 1_555 1_555
H29 C27 1_555 1_555
C28 C27 1_555 1_555
H30 C28 1_555 1_555
C29 C25 1_555 1_555
C30 C29 1_555 1_555
O8 C30 1_555 1_555
N8 C30 1_555 1_555
H31 N8 1_555 1_555
C31 N8 1_555 1_555
H32 C31 1_555 1_555
H33 C31 1_555 1_555
C32 C31 1_555 1_555
O9 C32 1_555 1_555
N9 C32 1_555 1_555
C33 N9 1_555 1_555
H34 C33 1_555 1_555
H35 C33 1_555 1_555
C34 C33 1_555 1_555
H36 C34 1_555 1_555
H37 C34 1_555 1_555
C35 C34 1_555 1_555
H38 C35 1_555 1_555
H39 C35 1_555 1_555
C36 N9 1_555 1_555
H40 C36 1_555 1_555
C37 C36 1_555 1_555
O10 C37 1_555 1_555
N10 C37 1_555 1_555
C38 N10 1_555 1_555
H41 C38 1_555 1_555
H42 C38 1_555 1_555
C39 C38 1_555 1_555
H43 C39 1_555 1_555
H44 C39 1_555 1_555
C40 C39 1_555 1_555
H45 C40 1_555 1_555
H46 C40 1_555 1_555
C41 N10 1_555 1_555
H47 C41 1_555 1_555
C42 C41 1_555 1_555
O11 C42 1_555 1_555
N11 C42 1_555 1_555
H48 N11 1_555 1_555
C43 N11 1_555 1_555
C44 C43 1_555 1_555
H49 C44 1_555 1_555
C45 C44 1_555 1_555
H50 C45 1_555 1_555
C46 C45 1_555 1_555
H51 C46 1_555 1_555
N12 Ag1 1_555 1_555
C47 C43 1_555 1_555
H52 C47 1_555 1_555
Ag3 O4 1_555 1_555
Ag4 N7 1_555 1_555
C5 C6 1_555 1_555
C28 C29 1_555 1_555
C35 C36 1_555 1_555
C40 C41 1_555 1_555
C46 N12 1_555 1_555
N12 C47 1_555 1_555
Ag2 N6 1_555 1_555
C10 N3 1_555 1_555
H8 C10 1_555 1_555
H9 C10 1_555 1_555
C11 C10 1_555 1_555
H10 C11 1_555 1_555
H11 C11 1_555 1_555
C12 C11 1_555 1_555
H12 C12 1_555 1_555
H13 C12 1_555 1_555
C13 N3 1_555 1_555
H14 C13 1_555 1_555
C14 C13 1_555 1_555
O6 C14 1_555 1_555
N4 C14 1_555 1_555
C15 N4 1_555 1_555
H15 C15 1_555 1_555
H16 C15 1_555 1_555
C16 C15 1_555 1_555
H17 C16 1_555 1_555
H18 C16 1_555 1_555
C17 C16 1_555 1_555
H19 C17 1_555 1_555
H20 C17 1_555 1_555
C18 N4 1_555 1_555
H21 C18 1_555 1_555
C19 C18 1_555 1_555
O7 C19 1_555 1_555
N5 C19 1_555 1_555
H22 N5 1_555 1_555
C20 N5 1_555 1_555
C21 C20 1_555 1_555
H23 C21 1_555 1_555
C22 C21 1_555 1_555
H24 C22 1_555 1_555
C23 C22 1_555 1_555
H25 C23 1_555 1_555
N6 C23 1_555 1_555
C24 C20 1_555 1_555
H26 C24 1_555 1_555
O12 Ag2 1_555 1_555
O13 Ag2 1_555 1_555
N13 Ag2 1_555 1_555
C12 C13 1_555 1_555
C17 C18 1_555 1_555
N6 C24 1_555 1_555
O12 H53 1_555 1_555
O12 H54 1_555 1_555
C25_2 H27_2 1_555 1_555
N7_2 C25_2 1_555 1_555
C26_2 N7_2 1_555 1_555
H28_2 C26_2 1_555 1_555
C27_2 C26_2 1_555 1_555
H29_2 C27_2 1_555 1_555
C28_2 C27_2 1_555 1_555
H30_2 C28_2 1_555 1_555
C29_2 C25_2 1_555 1_555
C30_2 C29_2 1_555 1_555
O8_2 C30_2 1_555 1_555
N8_2 C30_2 1_555 1_555
H31_2 N8_2 1_555 1_555
C31_2 N8_2 1_555 1_555
H32_2 C31_2 1_555 1_555
H33_2 C31_2 1_555 1_555
C32_2 C31_2 1_555 1_555
O9_2 C32_2 1_555 1_555
N9_2 C32_2 1_555 1_555
C33_2 N9_2 1_555 1_555
H34_2 C33_2 1_555 1_555
H35_2 C33_2 1_555 1_555
Ag4_2 N7_2 1_555 1_555
C28_2 C29_2 1_555 1_555
Ag2_2 N6_2 1_555 1_555
C2_2 H1_2 1_555 1_555
N1_2 C2_2 1_555 1_555
C3_2 N1_2 1_555 1_555
C4_2 C3_2 1_555 1_555
H3_2 C4_2 1_555 1_555
C5_2 C4_2 1_555 1_555
H4_2 C5_2 1_555 1_555
C6_2 C2_2 1_555 1_555
C7_2 C6_2 1_555 1_555
O13 C7_2 1_555 1_555
N2_2 C7_2 1_555 1_555
H5_2 N2_2 1_555 1_555
C8_2 N2_2 1_555 1_555
H6_2 C8_2 1_555 1_555
H7_2 C8_2 1_555 1_555
C9_2 C8_2 1_555 1_555
O5_2 C9_2 1_555 1_555
N3_2 C9_2 1_555 1_555
C10_2 N3_2 1_555 1_555
H8_2 C10_2 1_555 1_555
H9_2 C10_2 1_555 1_555
C11_2 C10_2 1_555 1_555
H10_2 C11_2 1_555 1_555
H11_2 C11_2 1_555 1_555
C12_2 C11_2 1_555 1_555
H12_2 C12_2 1_555 1_555
H13_2 C12_2 1_555 1_555
C13_2 N3_2 1_555 1_555
H14_2 C13_2 1_555 1_555
C14_2 C13_2 1_555 1_555
O6_2 C14_2 1_555 1_555
N4_2 C14_2 1_555 1_555
C15_2 N4_2 1_555 1_555
H15_2 C15_2 1_555 1_555
H16_2 C15_2 1_555 1_555
C16_2 C15_2 1_555 1_555
H17_2 C16_2 1_555 1_555
H18_2 C16_2 1_555 1_555
C17_2 C16_2 1_555 1_555
H19_2 C17_2 1_555 1_555
H20_2 C17_2 1_555 1_555
C18_2 N4_2 1_555 1_555
H21_2 C18_2 1_555 1_555
C19_2 C18_2 1_555 1_555
O7_2 C19_2 1_555 1_555
N5_2 C19_2 1_555 1_555
H22_2 N5_2 1_555 1_555
C20_2 N5_2 1_555 1_555
C21_2 C20_2 1_555 1_555
H23_2 C21_2 1_555 1_555
C22_2 C21_2 1_555 1_555
H24_2 C22_2 1_555 1_555
C23_2 C22_2 1_555 1_555
H25_2 C23_2 1_555 1_555
N6_2 C23_2 1_555 1_555
C24_2 C20_2 1_555 1_555
H26_2 C24_2 1_555 1_555
O12_2 Ag2_2 1_555 1_555
O13_2 Ag2_2 1_555 1_555
N13_2 Ag2_2 1_555 1_555
C5_2 C6_2 1_555 1_555
C12_2 C13_2 1_555 1_555
C17_2 C18_2 1_555 1_555
N6_2 C24_2 1_555 1_555
O12_2 H53_2 1_555 1_555
O12_2 H54_2 1_555 1_555
Ag1_2 N1_3 1_555 1_555
Ag3 N6_3 1_555 1_555
C2_3 H1_3 1_555 1_555
N1_3 C2_3 1_555 1_555
C3_3 N1_3 1_555 1_555
H2_2 C3_3 1_555 1_555
C4_3 C3_3 1_555 1_555
H3_3 C4_3 1_555 1_555
C5_3 C4_3 1_555 1_555
H4_3 C5_3 1_555 1_555
C6_3 C2_3 1_555 1_555
C7_3 C6_3 1_555 1_555
O13_2 C7_3 1_555 1_555
N2_3 C7_3 1_555 1_555
H5_3 N2_3 1_555 1_555
C8_3 N2_3 1_555 1_555
H6_3 C8_3 1_555 1_555
H7_3 C8_3 1_555 1_555
C9_3 C8_3 1_555 1_555
O5_3 C9_3 1_555 1_555
N3_3 C9_3 1_555 1_555
C10_3 N3_3 1_555 1_555
H8_3 C10_3 1_555 1_555
H9_3 C10_3 1_555 1_555
C11_3 C10_3 1_555 1_555
H10_3 C11_3 1_555 1_555
H11_3 C11_3 1_555 1_555
C12_3 C11_3 1_555 1_555
H12_3 C12_3 1_555 1_555
H13_3 C12_3 1_555 1_555
C13_3 N3_3 1_555 1_555
H14_3 C13_3 1_555 1_555
C14_3 C13_3 1_555 1_555
O6_3 C14_3 1_555 1_555
N4_3 C14_3 1_555 1_555
C15_3 N4_3 1_555 1_555
H15_3 C15_3 1_555 1_555
H16_3 C15_3 1_555 1_555
C16_3 C15_3 1_555 1_555
H17_3 C16_3 1_555 1_555
H18_3 C16_3 1_555 1_555
C17_3 C16_3 1_555 1_555
H19_3 C17_3 1_555 1_555
H20_3 C17_3 1_555 1_555
C18_3 N4_3 1_555 1_555
H21_3 C18_3 1_555 1_555
C19_3 C18_3 1_555 1_555
O7_3 C19_3 1_555 1_555
N5_3 C19_3 1_555 1_555
H22_3 N5_3 1_555 1_555
C20_3 N5_3 1_555 1_555
C21_3 C20_3 1_555 1_555
H23_3 C21_3 1_555 1_555
C22_3 C21_3 1_555 1_555
H24_3 C22_3 1_555 1_555
C23_3 C22_3 1_555 1_555
H25_3 C23_3 1_555 1_555
N6_3 C23_3 1_555 1_555
C24_3 C20_3 1_555 1_555
H26_3 C24_3 1_555 1_555
H36_2 C34_2 1_555 1_555
H37_2 C34_2 1_555 1_555
C35_2 C34_2 1_555 1_555
H38_2 C35_2 1_555 1_555
H39_2 C35_2 1_555 1_555
H40_2 C36_2 1_555 1_555
C37_2 C36_2 1_555 1_555
O10_2 C37_2 1_555 1_555
N10_2 C37_2 1_555 1_555
C38_2 N10_2 1_555 1_555
H41_2 C38_2 1_555 1_555
H42_2 C38_2 1_555 1_555
C39_2 C38_2 1_555 1_555
H43_2 C39_2 1_555 1_555
H44_2 C39_2 1_555 1_555
C40_2 C39_2 1_555 1_555
H45_2 C40_2 1_555 1_555
H46_2 C40_2 1_555 1_555
C41_2 N10_2 1_555 1_555
H47_2 C41_2 1_555 1_555
C42_2 C41_2 1_555 1_555
O11_2 C42_2 1_555 1_555
N11_2 C42_2 1_555 1_555
H48_2 N11_2 1_555 1_555
C43_2 N11_2 1_555 1_555
C44_2 C43_2 1_555 1_555
H49_2 C44_2 1_555 1_555
C45_2 C44_2 1_555 1_555
H50_2 C45_2 1_555 1_555
C46_2 C45_2 1_555 1_555
H51_2 C46_2 1_555 1_555
N12_2 Ag1_2 1_555 1_555
C47_2 C43_2 1_555 1_555
H52_2 C47_2 1_555 1_555
O12_3 Ag3 1_555 1_555
N13_3 Ag3 1_555 1_555
C5_3 C6_3 1_555 1_555
C12_3 C13_3 1_555 1_555
C17_3 C18_3 1_555 1_555
N6_3 C24_3 1_555 1_555
C35_2 C36_2 1_555 1_555
C40_2 C41_2 1_555 1_555
C46_2 N12_2 1_555 1_555
N12_2 C47_2 1_555 1_555
O12_3 H53_3 1_555 1_555
O12_3 H54_3 1_555 1_555
C25_3 H27_3 1_555 1_555
N7_3 C25_3 1_555 1_555
C26_3 N7_3 1_555 1_555
H28_3 C26_3 1_555 1_555
C27_3 C26_3 1_555 1_555
H29_3 C27_3 1_555 1_555
C28_3 C27_3 1_555 1_555
H30_3 C28_3 1_555 1_555
C29_3 C25_3 1_555 1_555
C30_3 C29_3 1_555 1_555
O8_3 C30_3 1_555 1_555
N8_3 C30_3 1_555 1_555
H31_3 N8_3 1_555 1_555
C31_3 N8_3 1_555 1_555
H32_3 C31_3 1_555 1_555
H33_3 C31_3 1_555 1_555
C32_3 C31_3 1_555 1_555
O9_3 C32_3 1_555 1_555
N9_3 C32_3 1_555 1_555
C33_3 N9_3 1_555 1_555
H34_3 C33_3 1_555 1_555
H35_3 C33_3 1_555 1_555
Ag4_3 N7_3 1_555 1_555
C28_3 C29_3 1_555 1_555
Ag1_3 N1_4 1_555 1_555
Ag4_3 N6_4 1_555 1_555
C2_4 H1_4 1_555 1_555
N1_4 C2_4 1_555 1_555
C3_4 N1_4 1_555 1_555
H2_3 C3_4 1_555 1_555
C4_4 C3_4 1_555 1_555
H3_4 C4_4 1_555 1_555
C5_4 C4_4 1_555 1_555
H4_4 C5_4 1_555 1_555
C6_4 C2_4 1_555 1_555
C7_4 C6_4 1_555 1_555
O4_2 C7_4 1_555 1_555
N2_4 C7_4 1_555 1_555
H5_4 N2_4 1_555 1_555
C8_4 N2_4 1_555 1_555
H6_4 C8_4 1_555 1_555
H7_4 C8_4 1_555 1_555
C9_4 C8_4 1_555 1_555
O5_4 C9_4 1_555 1_555
N3_4 C9_4 1_555 1_555
C10_4 N3_4 1_555 1_555
H8_4 C10_4 1_555 1_555
H9_4 C10_4 1_555 1_555
C11_4 C10_4 1_555 1_555
H10_4 C11_4 1_555 1_555
H11_4 C11_4 1_555 1_555
C12_4 C11_4 1_555 1_555
H12_4 C12_4 1_555 1_555
H13_4 C12_4 1_555 1_555
C13_4 N3_4 1_555 1_555
H14_4 C13_4 1_555 1_555
C14_4 C13_4 1_555 1_555
O6_4 C14_4 1_555 1_555
N4_4 C14_4 1_555 1_555
C15_4 N4_4 1_555 1_555
H15_4 C15_4 1_555 1_555
H16_4 C15_4 1_555 1_555
C16_4 C15_4 1_555 1_555
H17_4 C16_4 1_555 1_555
H18_4 C16_4 1_555 1_555
C17_4 C16_4 1_555 1_555
H19_4 C17_4 1_555 1_555
H20_4 C17_4 1_555 1_555
C18_4 N4_4 1_555 1_555
H21_4 C18_4 1_555 1_555
C19_4 C18_4 1_555 1_555
O7_4 C19_4 1_555 1_555
N5_4 C19_4 1_555 1_555
H22_4 N5_4 1_555 1_555
C20_4 N5_4 1_555 1_555
C21_4 C20_4 1_555 1_555
H23_4 C21_4 1_555 1_555
C22_4 C21_4 1_555 1_555
H24_4 C22_4 1_555 1_555
C23_4 C22_4 1_555 1_555
H25_4 C23_4 1_555 1_555
N6_4 C23_4 1_555 1_555
C24_4 C20_4 1_555 1_555
H26_4 C24_4 1_555 1_555
C25_4 H27_4 1_555 1_555
N13_3 C25_4 1_555 1_555
C26_4 N13_3 1_555 1_555
H28_4 C26_4 1_555 1_555
C27_4 C26_4 1_555 1_555
H29_4 C27_4 1_555 1_555
C28_4 C27_4 1_555 1_555
H30_4 C28_4 1_555 1_555
C29_4 C25_4 1_555 1_555
C30_4 C29_4 1_555 1_555
O8_4 C30_4 1_555 1_555
N8_4 C30_4 1_555 1_555
H31_4 N8_4 1_555 1_555
C31_4 N8_4 1_555 1_555
H32_4 C31_4 1_555 1_555
H33_4 C31_4 1_555 1_555
C32_4 C31_4 1_555 1_555
O9_4 C32_4 1_555 1_555
N9_4 C32_4 1_555 1_555
C33_4 N9_4 1_555 1_555
H34_4 C33_4 1_555 1_555
H35_4 C33_4 1_555 1_555
C34_3 C33_4 1_555 1_555
H36_3 C34_3 1_555 1_555
H37_3 C34_3 1_555 1_555
C35_3 C34_3 1_555 1_555
H38_3 C35_3 1_555 1_555
H39_3 C35_3 1_555 1_555
C36_3 N9_4 1_555 1_555
H40_3 C36_3 1_555 1_555
C37_3 C36_3 1_555 1_555
O10_3 C37_3 1_555 1_555
N10_3 C37_3 1_555 1_555
C38_3 N10_3 1_555 1_555
H41_3 C38_3 1_555 1_555
H42_3 C38_3 1_555 1_555
C39_3 C38_3 1_555 1_555
H43_3 C39_3 1_555 1_555
H44_3 C39_3 1_555 1_555
C40_3 C39_3 1_555 1_555
H45_3 C40_3 1_555 1_555
H46_3 C40_3 1_555 1_555
C41_3 N10_3 1_555 1_555
H47_3 C41_3 1_555 1_555
C42_3 C41_3 1_555 1_555
O11_3 C42_3 1_555 1_555
N11_3 C42_3 1_555 1_555
H48_3 N11_3 1_555 1_555
C43_3 N11_3 1_555 1_555
C44_3 C43_3 1_555 1_555
H49_3 C44_3 1_555 1_555
C45_3 C44_3 1_555 1_555
H50_3 C45_3 1_555 1_555
C46_3 C45_3 1_555 1_555
H51_3 C46_3 1_555 1_555
N12_3 Ag1_3 1_555 1_555
C47_3 C43_3 1_555 1_555
H52_3 C47_3 1_555 1_555
O12_4 Ag4_3 1_555 1_555
Ag4 O4_2 1_555 1_555
O13_3 Ag4_3 1_555 1_555
C5_4 C6_4 1_555 1_555
C12_4 C13_4 1_555 1_555
C17_4 C18_4 1_555 1_555
N6_4 C24_4 1_555 1_555
C28_4 C29_4 1_555 1_555
C35_3 C36_3 1_555 1_555
C40_3 C41_3 1_555 1_555
C46_3 N12_3 1_555 1_555
N12_3 C47_3 1_555 1_555
O12_4 H53_4 1_555 1_555
O12_4 H54_4 1_555 1_555
C25_5 H27_5 1_555 1_555
N13_2 C25_5 1_555 1_555
C26_5 N13_2 1_555 1_555
H28_5 C26_5 1_555 1_555
C27_5 C26_5 1_555 1_555
H29_5 C27_5 1_555 1_555
C28_5 C27_5 1_555 1_555
H30_5 C28_5 1_555 1_555
C29_5 C25_5 1_555 1_555
C30_5 C29_5 1_555 1_555
O8_5 C30_5 1_555 1_555
N8_5 C30_5 1_555 1_555
H31_5 N8_5 1_555 1_555
C31_5 N8_5 1_555 1_555
H32_5 C31_5 1_555 1_555
H33_5 C31_5 1_555 1_555
C32_5 C31_5 1_555 1_555
O9_5 C32_5 1_555 1_555
N9_5 C32_5 1_555 1_555
C33_5 N9_5 1_555 1_555
H34_5 C33_5 1_555 1_555
H35_5 C33_5 1_555 1_555
C28_5 C29_5 1_555 1_555
Ag4_2 N6_5 1_555 1_555
C10_5 N3_5 1_555 1_555
H8_5 C10_5 1_555 1_555
H9_5 C10_5 1_555 1_555
C11_5 C10_5 1_555 1_555
H10_5 C11_5 1_555 1_555
H11_5 C11_5 1_555 1_555
C12_5 C11_5 1_555 1_555
H12_5 C12_5 1_555 1_555
H13_5 C12_5 1_555 1_555
C13_5 N3_5 1_555 1_555
H14_5 C13_5 1_555 1_555
C14_5 C13_5 1_555 1_555
O6_5 C14_5 1_555 1_555
N4_5 C14_5 1_555 1_555
C15_5 N4_5 1_555 1_555
H15_5 C15_5 1_555 1_555
H16_5 C15_5 1_555 1_555
C16_5 C15_5 1_555 1_555
H17_5 C16_5 1_555 1_555
H18_5 C16_5 1_555 1_555
C17_5 C16_5 1_555 1_555
H19_5 C17_5 1_555 1_555
H20_5 C17_5 1_555 1_555
C18_5 N4_5 1_555 1_555
H21_5 C18_5 1_555 1_555
C19_5 C18_5 1_555 1_555
O7_5 C19_5 1_555 1_555
N5_5 C19_5 1_555 1_555
H22_5 N5_5 1_555 1_555
C20_5 N5_5 1_555 1_555
C21_5 C20_5 1_555 1_555
H23_5 C21_5 1_555 1_555
C22_5 C21_5 1_555 1_555
H24_5 C22_5 1_555 1_555
C23_5 C22_5 1_555 1_555
H25_5 C23_5 1_555 1_555
N6_5 C23_5 1_555 1_555
C24_5 C20_5 1_555 1_555
H26_5 C24_5 1_555 1_555
O12_5 Ag4_2 1_555 1_555
O13_4 Ag4_2 1_555 1_555
C12_5 C13_5 1_555 1_555
C17_5 C18_5 1_555 1_555
N6_5 C24_5 1_555 1_555
O12_5 H53_5 1_555 1_555
O12_5 H54_5 1_555 1_555
Ag1_4 N1_5 1_555 1_555
C2_5 H1_5 1_555 1_555
N1_5 C2_5 1_555 1_555
C3_5 N1_5 1_555 1_555
H2_4 C3_5 1_555 1_555
C4_5 C3_5 1_555 1_555
H3_5 C4_5 1_555 1_555
C5_5 C4_5 1_555 1_555
H4_5 C5_5 1_555 1_555
C6_5 C2_5 1_555 1_555
C7_5 C6_5 1_555 1_555
O13_3 C7_5 1_555 1_555
N2_5 C7_5 1_555 1_555
H5_5 N2_5 1_555 1_555
C8_5 N2_5 1_555 1_555
H6_5 C8_5 1_555 1_555
H7_5 C8_5 1_555 1_555
C9_5 C8_5 1_555 1_555
O5_5 C9_5 1_555 1_555
H36_4 C34_4 1_555 1_555
H37_4 C34_4 1_555 1_555
C35_4 C34_4 1_555 1_555
H38_4 C35_4 1_555 1_555
H39_4 C35_4 1_555 1_555
H40_4 C36_4 1_555 1_555
C37_4 C36_4 1_555 1_555
O10_4 C37_4 1_555 1_555
N10_4 C37_4 1_555 1_555
C38_4 N10_4 1_555 1_555
H41_4 C38_4 1_555 1_555
H42_4 C38_4 1_555 1_555
C39_4 C38_4 1_555 1_555
H43_4 C39_4 1_555 1_555
H44_4 C39_4 1_555 1_555
C40_4 C39_4 1_555 1_555
H45_4 C40_4 1_555 1_555
H46_4 C40_4 1_555 1_555
C41_4 N10_4 1_555 1_555
H47_4 C41_4 1_555 1_555
C42_4 C41_4 1_555 1_555
O11_4 C42_4 1_555 1_555
N11_4 C42_4 1_555 1_555
H48_4 N11_4 1_555 1_555
C43_4 N11_4 1_555 1_555
C44_4 C43_4 1_555 1_555
H49_4 C44_4 1_555 1_555
C45_4 C44_4 1_555 1_555
H50_4 C45_4 1_555 1_555
C46_4 C45_4 1_555 1_555
H51_4 C46_4 1_555 1_555
N12_4 Ag1_4 1_555 1_555
C47_4 C43_4 1_555 1_555
H52_4 C47_4 1_555 1_555
C5_5 C6_5 1_555 1_555
C35_4 C36_4 1_555 1_555
C40_4 C41_4 1_555 1_555
C46_4 N12_4 1_555 1_555
N12_4 C47_4 1_555 1_555
Ag4 N6_6 1_555 1_555
C2_6 H1_6 1_555 1_555
N1_6 C2_6 1_555 1_555
C3_6 N1_6 1_555 1_555
C4_6 C3_6 1_555 1_555
H3_6 C4_6 1_555 1_555
C5_6 C4_6 1_555 1_555
H4_6 C5_6 1_555 1_555
C6_6 C2_6 1_555 1_555
C7_6 C6_6 1_555 1_555
O13_4 C7_6 1_555 1_555
N2_6 C7_6 1_555 1_555
H5_6 N2_6 1_555 1_555
C8_6 N2_6 1_555 1_555
H6_6 C8_6 1_555 1_555
H7_6 C8_6 1_555 1_555
C9_6 C8_6 1_555 1_555
O5_6 C9_6 1_555 1_555
N3_6 C9_6 1_555 1_555
C10_6 N3_6 1_555 1_555
H8_6 C10_6 1_555 1_555
H9_6 C10_6 1_555 1_555
C11_6 C10_6 1_555 1_555
H10_6 C11_6 1_555 1_555
H11_6 C11_6 1_555 1_555
C12_6 C11_6 1_555 1_555
H12_6 C12_6 1_555 1_555
H13_6 C12_6 1_555 1_555
C13_6 N3_6 1_555 1_555
H14_6 C13_6 1_555 1_555
C14_6 C13_6 1_555 1_555
O6_6 C14_6 1_555 1_555
N4_6 C14_6 1_555 1_555
C15_6 N4_6 1_555 1_555
H15_6 C15_6 1_555 1_555
H16_6 C15_6 1_555 1_555
C16_6 C15_6 1_555 1_555
H17_6 C16_6 1_555 1_555
H18_6 C16_6 1_555 1_555
C17_6 C16_6 1_555 1_555
H19_6 C17_6 1_555 1_555
H20_6 C17_6 1_555 1_555
C18_6 N4_6 1_555 1_555
H21_6 C18_6 1_555 1_555
C19_6 C18_6 1_555 1_555
O7_6 C19_6 1_555 1_555
N5_6 C19_6 1_555 1_555
H22_6 N5_6 1_555 1_555
C20_6 N5_6 1_555 1_555
C21_6 C20_6 1_555 1_555
H23_6 C21_6 1_555 1_555
C22_6 C21_6 1_555 1_555
H24_6 C22_6 1_555 1_555
C23_6 C22_6 1_555 1_555
H25_6 C23_6 1_555 1_555
N6_6 C23_6 1_555 1_555
C24_6 C20_6 1_555 1_555
H26_6 C24_6 1_555 1_555
O12_6 Ag4 1_555 1_555
C5_6 C6_6 1_555 1_555
C12_6 C13_6 1_555 1_555
C17_6 C18_6 1_555 1_555
N6_6 C24_6 1_555 1_555
O12_6 H53_6 1_555 1_555
O12_6 H54_6 1_555 1_555
C25_6 H27_6 1_555 1_555
N13 C25_6 1_555 1_555
C26_6 N13 1_555 1_555
H28_6 C26_6 1_555 1_555
C27_6 C26_6 1_555 1_555
H29_6 C27_6 1_555 1_555
C28_6 C27_6 1_555 1_555
H30_6 C28_6 1_555 1_555
C29_6 C25_6 1_555 1_555
C30_6 C29_6 1_555 1_555
O8_6 C30_6 1_555 1_555
N8_6 C30_6 1_555 1_555
H31_6 N8_6 1_555 1_555
C31_6 N8_6 1_555 1_555
H32_6 C31_6 1_555 1_555
H33_6 C31_6 1_555 1_555
C32_6 C31_6 1_555 1_555
O9_6 C32_6 1_555 1_555
N9_6 C32_6 1_555 1_555
C33_6 N9_6 1_555 1_555
H34_6 C33_6 1_555 1_555
H35_6 C33_6 1_555 1_555
C28_6 C29_6 1_555 1_555
H36_5 C34_5 1_555 1_555
H37_5 C34_5 1_555 1_555
C35_5 C34_5 1_555 1_555
H38_5 C35_5 1_555 1_555
H39_5 C35_5 1_555 1_555
H40_5 C36_5 1_555 1_555
C37_5 C36_5 1_555 1_555
O10_5 C37_5 1_555 1_555
N10_5 C37_5 1_555 1_555
C38_5 N10_5 1_555 1_555
H41_5 C38_5 1_555 1_555
H42_5 C38_5 1_555 1_555
C39_5 C38_5 1_555 1_555
H43_5 C39_5 1_555 1_555
H44_5 C39_5 1_555 1_555
C40_5 C39_5 1_555 1_555
H45_5 C40_5 1_555 1_555
H46_5 C40_5 1_555 1_555
C41_5 N10_5 1_555 1_555
H47_5 C41_5 1_555 1_555
C42_5 C41_5 1_555 1_555
O11_5 C42_5 1_555 1_555
N11_5 C42_5 1_555 1_555
H48_5 N11_5 1_555 1_555
C43_5 N11_5 1_555 1_555
C44_5 C43_5 1_555 1_555
H49_5 C44_5 1_555 1_555
C45_5 C44_5 1_555 1_555
H50_5 C45_5 1_555 1_555
C46_5 C45_5 1_555 1_555
H51_5 C46_5 1_555 1_555
N12_5 Ag1_5 1_555 1_555
C47_5 C43_5 1_555 1_555
H52_5 C47_5 1_555 1_555
C35_5 C36_5 1_555 1_555
C40_5 C41_5 1_555 1_555
C46_5 N12_5 1_555 1_555
N12_5 C47_5 1_555 1_555
N7_4 C25_7 1_555 1_555
C26_7 N7_4 1_555 1_555
H28_7 C26_7 1_555 1_555
C27_7 C26_7 1_555 1_555
H29_7 C27_7 1_555 1_555
C28_7 C27_7 1_555 1_555
H30_7 C28_7 1_555 1_555
N10_6 C37_6 1_555 1_555
C38_6 N10_6 1_555 1_555
H41_6 C38_6 1_555 1_555
H42_6 C38_6 1_555 1_555
C39_6 C38_6 1_555 1_555
H43_6 C39_6 1_555 1_555
H44_6 C39_6 1_555 1_555
C40_6 C39_6 1_555 1_555
H45_6 C40_6 1_555 1_555
H46_6 C40_6 1_555 1_555
C41_6 N10_6 1_555 1_555
H47_6 C41_6 1_555 1_555
C42_6 C41_6 1_555 1_555
N11_6 C42_6 1_555 1_555
H48_6 N11_6 1_555 1_555
H49_6 C44_6 1_555 1_555
Ag4_4 N7_4 1_555 1_555
C40_6 C41_6 1_555 1_555
C25_8 H27_7 1_555 1_555
N7_5 C25_8 1_555 1_555
C26_8 N7_5 1_555 1_555
H28_8 C26_8 1_555 1_555
C27_8 C26_8 1_555 1_555
H29_8 C27_8 1_555 1_555
C28_8 C27_8 1_555 1_555
H30_8 C28_8 1_555 1_555
C29_7 C25_8 1_555 1_555
C30_7 C29_7 1_555 1_555
O8_7 C30_7 1_555 1_555
N8_7 C30_7 1_555 1_555
H31_7 N8_7 1_555 1_555
C31_7 N8_7 1_555 1_555
H32_7 C31_7 1_555 1_555
H33_7 C31_7 1_555 1_555
C32_7 C31_7 1_555 1_555
O9_8 C32_7 1_555 1_555
N9_7 C32_7 1_555 1_555
C33_7 N9_7 1_555 1_555
H34_7 C33_7 1_555 1_555
H35_7 C33_7 1_555 1_555
Ag4_5 N7_5 1_555 1_555
C28_8 C29_7 1_555 1_555
C25_9 H27_8 1_555 1_555
N7_6 C25_9 1_555 1_555
C26_9 N7_6 1_555 1_555
H28_9 C26_9 1_555 1_555
C27_9 C26_9 1_555 1_555
H29_9 C27_9 1_555 1_555
C28_9 C27_9 1_555 1_555
H30_9 C28_9 1_555 1_555
C29_8 C25_9 1_555 1_555
C30_8 C29_8 1_555 1_555
O8_8 C30_8 1_555 1_555
N8_8 C30_8 1_555 1_555
H31_8 N8_8 1_555 1_555
C31_8 N8_8 1_555 1_555
H32_8 C31_8 1_555 1_555
H33_8 C31_8 1_555 1_555
C32_8 C31_8 1_555 1_555
O9_9 C32_8 1_555 1_555
N9_8 C32_8 1_555 1_555
C33_8 N9_8 1_555 1_555
H34_8 C33_8 1_555 1_555
H35_8 C33_8 1_555 1_555
Ag4_6 N7_6 1_555 1_555
C28_9 C29_8 1_555 1_555
Ag4_6 N6_7 1_555 1_555
O4_3 C7_7 1_555 1_555
N2_7 C7_7 1_555 1_555
H5_7 N2_7 1_555 1_555
C8_7 N2_7 1_555 1_555
H6_7 C8_7 1_555 1_555
H7_7 C8_7 1_555 1_555
C9_7 C8_7 1_555 1_555
O5_7 C9_7 1_555 1_555
N3_7 C9_7 1_555 1_555
C10_7 N3_7 1_555 1_555
H8_7 C10_7 1_555 1_555
H9_7 C10_7 1_555 1_555
C11_7 C10_7 1_555 1_555
H10_7 C11_7 1_555 1_555
H11_7 C11_7 1_555 1_555
C12_7 C11_7 1_555 1_555
H12_7 C12_7 1_555 1_555
H13_7 C12_7 1_555 1_555
C13_7 N3_7 1_555 1_555
H14_7 C13_7 1_555 1_555
C14_7 C13_7 1_555 1_555
O6_7 C14_7 1_555 1_555
N4_7 C14_7 1_555 1_555
C15_7 N4_7 1_555 1_555
H15_7 C15_7 1_555 1_555
H16_7 C15_7 1_555 1_555
C16_7 C15_7 1_555 1_555
H17_7 C16_7 1_555 1_555
H18_7 C16_7 1_555 1_555
C17_7 C16_7 1_555 1_555
H19_7 C17_7 1_555 1_555
H20_7 C17_7 1_555 1_555
C18_7 N4_7 1_555 1_555
H21_7 C18_7 1_555 1_555
C19_7 C18_7 1_555 1_555
O7_7 C19_7 1_555 1_555
N5_7 C19_7 1_555 1_555
H22_7 N5_7 1_555 1_555
C20_7 N5_7 1_555 1_555
C21_7 C20_7 1_555 1_555
H23_7 C21_7 1_555 1_555
C22_7 C21_7 1_555 1_555
H24_7 C22_7 1_555 1_555
C23_7 C22_7 1_555 1_555
H25_7 C23_7 1_555 1_555
N6_7 C23_7 1_555 1_555
C24_7 C20_7 1_555 1_555
H26_7 C24_7 1_555 1_555
O12_7 Ag4_6 1_555 1_555
Ag4_4 O4_3 1_555 1_555
O13_5 Ag4_6 1_555 1_555
C12_7 C13_7 1_555 1_555
C17_7 C18_7 1_555 1_555
N6_7 C24_7 1_555 1_555
O12_7 H53_7 1_555 1_555
O12_7 H54_7 1_555 1_555
Ag1_6 N1_7 1_555 1_555
Ag4_5 N6_8 1_555 1_555
C2_7 H1_7 1_555 1_555
N1_7 C2_7 1_555 1_555
C3_7 N1_7 1_555 1_555
H2_6 C3_7 1_555 1_555
C4_7 C3_7 1_555 1_555
H3_7 C4_7 1_555 1_555
C5_7 C4_7 1_555 1_555
H4_7 C5_7 1_555 1_555
C6_7 C2_7 1_555 1_555
C7_8 C6_7 1_555 1_555
O13_5 C7_8 1_555 1_555
N2_8 C7_8 1_555 1_555
H5_8 N2_8 1_555 1_555
C8_8 N2_8 1_555 1_555
H6_8 C8_8 1_555 1_555
H7_8 C8_8 1_555 1_555
C9_8 C8_8 1_555 1_555
O5_8 C9_8 1_555 1_555
N3_8 C9_8 1_555 1_555
C10_8 N3_8 1_555 1_555
H8_8 C10_8 1_555 1_555
H9_8 C10_8 1_555 1_555
C11_8 C10_8 1_555 1_555
H10_8 C11_8 1_555 1_555
H11_8 C11_8 1_555 1_555
C12_8 C11_8 1_555 1_555
H12_8 C12_8 1_555 1_555
H13_8 C12_8 1_555 1_555
C13_8 N3_8 1_555 1_555
H14_8 C13_8 1_555 1_555
C14_8 C13_8 1_555 1_555
O6_8 C14_8 1_555 1_555
N4_8 C14_8 1_555 1_555
C15_8 N4_8 1_555 1_555
H15_8 C15_8 1_555 1_555
H16_8 C15_8 1_555 1_555
C16_8 C15_8 1_555 1_555
H17_8 C16_8 1_555 1_555
H18_8 C16_8 1_555 1_555
C17_8 C16_8 1_555 1_555
H19_8 C17_8 1_555 1_555
H20_8 C17_8 1_555 1_555
C18_8 N4_8 1_555 1_555
H21_8 C18_8 1_555 1_555
C19_8 C18_8 1_555 1_555
O7_8 C19_8 1_555 1_555
N5_8 C19_8 1_555 1_555
H22_8 N5_8 1_555 1_555
C20_8 N5_8 1_555 1_555
C21_8 C20_8 1_555 1_555
H23_8 C21_8 1_555 1_555
C22_8 C21_8 1_555 1_555
H24_8 C22_8 1_555 1_555
C23_8 C22_8 1_555 1_555
H25_8 C23_8 1_555 1_555
N6_8 C23_8 1_555 1_555
C24_8 C20_8 1_555 1_555
H26_8 C24_8 1_555 1_555
H36_6 C34_6 1_555 1_555
H37_6 C34_6 1_555 1_555
C35_6 C34_6 1_555 1_555
H38_6 C35_6 1_555 1_555
H39_6 C35_6 1_555 1_555
H50_6 C45_6 1_555 1_555
C46_6 C45_6 1_555 1_555
H51_6 C46_6 1_555 1_555
N12_6 Ag1_6 1_555 1_555
C47_6 C43_6 1_555 1_555
H52_6 C47_6 1_555 1_555
O12_8 Ag4_5 1_555 1_555
O13_6 Ag4_5 1_555 1_555
C5_7 C6_7 1_555 1_555
C12_8 C13_8 1_555 1_555
C17_8 C18_8 1_555 1_555
N6_8 C24_8 1_555 1_555
C35_6 C36_6 1_555 1_555
C46_6 N12_6 1_555 1_555
N12_6 C47_6 1_555 1_555
O12_8 H53_8 1_555 1_555
O12_8 H54_8 1_555 1_555
Ag4_4 N6_9 1_555 1_555
C21_9 C20_9 1_555 1_555
H23_9 C21_9 1_555 1_555
C22_9 C21_9 1_555 1_555
H24_9 C22_9 1_555 1_555
C23_9 C22_9 1_555 1_555
H25_9 C23_9 1_555 1_555
N6_9 C23_9 1_555 1_555
C24_9 C20_9 1_555 1_555
N6_9 C24_9 1_555 1_555
Ag1_7 N1_8 1_555 1_555
C2_8 H1_8 1_555 1_555
N1_8 C2_8 1_555 1_555
C3_8 N1_8 1_555 1_555
H2_7 C3_8 1_555 1_555
C4_8 C3_8 1_555 1_555
H3_8 C4_8 1_555 1_555
C5_8 C4_8 1_555 1_555
H4_8 C5_8 1_555 1_555
C6_8 C2_8 1_555 1_555
C7_9 C6_8 1_555 1_555
O13_6 C7_9 1_555 1_555
N2_9 C7_9 1_555 1_555
H5_9 N2_9 1_555 1_555
C8_9 N2_9 1_555 1_555
H6_9 C8_9 1_555 1_555
H7_9 C8_9 1_555 1_555
C9_9 C8_9 1_555 1_555
O5_9 C9_9 1_555 1_555
N3_9 C9_9 1_555 1_555
C10_9 N3_9 1_555 1_555
H8_9 C10_9 1_555 1_555
H9_9 C10_9 1_555 1_555
C11_9 C10_9 1_555 1_555
H10_9 C11_9 1_555 1_555
H11_9 C11_9 1_555 1_555
C12_9 C11_9 1_555 1_555
H12_9 C12_9 1_555 1_555
H13_9 C12_9 1_555 1_555
C13_9 N3_9 1_555 1_555
H14_9 C13_9 1_555 1_555
C14_9 C13_9 1_555 1_555
O6_9 C14_9 1_555 1_555
N4_9 C14_9 1_555 1_555
C15_9 N4_9 1_555 1_555
H15_9 C15_9 1_555 1_555
H16_9 C15_9 1_555 1_555
C16_9 C15_9 1_555 1_555
H17_9 C16_9 1_555 1_555
H18_9 C16_9 1_555 1_555
C17_9 C16_9 1_555 1_555
H19_9 C17_9 1_555 1_555
H20_9 C17_9 1_555 1_555
C18_9 N4_9 1_555 1_555
H21_9 C18_9 1_555 1_555
C19_9 C18_9 1_555 1_555
O7_9 C19_9 1_555 1_555
N5_9 C19_9 1_555 1_555
H22_9 N5_9 1_555 1_555
H36_7 C34_7 1_555 1_555
H37_7 C34_7 1_555 1_555
C35_7 C34_7 1_555 1_555
H38_7 C35_7 1_555 1_555
H39_7 C35_7 1_555 1_555
H40_7 C36_7 1_555 1_555
C37_7 C36_7 1_555 1_555
O10_7 C37_7 1_555 1_555
N10_7 C37_7 1_555 1_555
C38_7 N10_7 1_555 1_555
H41_7 C38_7 1_555 1_555
H42_7 C38_7 1_555 1_555
C39_7 C38_7 1_555 1_555
H43_7 C39_7 1_555 1_555
H44_7 C39_7 1_555 1_555
C40_7 C39_7 1_555 1_555
H45_7 C40_7 1_555 1_555
H46_7 C40_7 1_555 1_555
C41_7 N10_7 1_555 1_555
H47_7 C41_7 1_555 1_555
C42_7 C41_7 1_555 1_555
O11_7 C42_7 1_555 1_555
N11_7 C42_7 1_555 1_555
H48_7 N11_7 1_555 1_555
C43_7 N11_7 1_555 1_555
C44_7 C43_7 1_555 1_555
H49_7 C44_7 1_555 1_555
C45_7 C44_7 1_555 1_555
H50_7 C45_7 1_555 1_555
C46_7 C45_7 1_555 1_555
H51_7 C46_7 1_555 1_555
N12_7 Ag1_7 1_555 1_555
C47_7 C43_7 1_555 1_555
H52_7 C47_7 1_555 1_555
C5_8 C6_8 1_555 1_555
C12_9 C13_9 1_555 1_555
C17_9 C18_9 1_555 1_555
C35_7 C36_7 1_555 1_555
C40_7 C41_7 1_555 1_555
C46_7 N12_7 1_555 1_555
N12_7 C47_7 1_555 1_555
O12_9 H53_9 1_555 1_555
O12_9 H54_9 1_555 1_555
Ag1_8 N1_9 1_555 1_555
Ag2_3 N6_10 1_555 1_555
C2_9 H1_9 1_555 1_555
N1_9 C2_9 1_555 1_555
C3_9 N1_9 1_555 1_555
H2_8 C3_9 1_555 1_555
C4_9 C3_9 1_555 1_555
H3_9 C4_9 1_555 1_555
C5_9 C4_9 1_555 1_555
H4_9 C5_9 1_555 1_555
C6_9 C2_9 1_555 1_555
C7_10 C6_9 1_555 1_555
O4_4 C7_10 1_555 1_555
N2_10 C7_10 1_555 1_555
H5_10 N2_10 1_555 1_555
C8_10 N2_10 1_555 1_555
H6_10 C8_10 1_555 1_555
H7_10 C8_10 1_555 1_555
C9_10 C8_10 1_555 1_555
O5_10 C9_10 1_555 1_555
N3_10 C9_10 1_555 1_555
C10_10 N3_10 1_555 1_555
H8_10 C10_10 1_555 1_555
H9_10 C10_10 1_555 1_555
C11_10 C10_10 1_555 1_555
H10_10 C11_10 1_555 1_555
H11_10 C11_10 1_555 1_555
C12_10 C11_10 1_555 1_555
H12_10 C12_10 1_555 1_555
H13_10 C12_10 1_555 1_555
C13_10 N3_10 1_555 1_555
H14_10 C13_10 1_555 1_555
C14_10 C13_10 1_555 1_555
O6_10 C14_10 1_555 1_555
N4_10 C14_10 1_555 1_555
C15_10 N4_10 1_555 1_555
H15_10 C15_10 1_555 1_555
H16_10 C15_10 1_555 1_555
C16_10 C15_10 1_555 1_555
H17_10 C16_10 1_555 1_555
H18_10 C16_10 1_555 1_555
C17_10 C16_10 1_555 1_555
H19_10 C17_10 1_555 1_555
H20_10 C17_10 1_555 1_555
C18_10 N4_10 1_555 1_555
H21_10 C18_10 1_555 1_555
C19_10 C18_10 1_555 1_555
O7_10 C19_10 1_555 1_555
N5_10 C19_10 1_555 1_555
H22_10 N5_10 1_555 1_555
C20_10 N5_10 1_555 1_555
C21_10 C20_10 1_555 1_555
H23_10 C21_10 1_555 1_555
C22_10 C21_10 1_555 1_555
H24_10 C22_10 1_555 1_555
C23_10 C22_10 1_555 1_555
H25_10 C23_10 1_555 1_555
N6_10 C23_10 1_555 1_555
C24_10 C20_10 1_555 1_555
H26_10 C24_10 1_555 1_555
C30_9 C29_9 1_555 1_555
O8_9 C30_9 1_555 1_555
N8_9 C30_9 1_555 1_555
H31_9 N8_9 1_555 1_555
C31_9 N8_9 1_555 1_555
H32_9 C31_9 1_555 1_555
H33_9 C31_9 1_555 1_555
C32_9 C31_9 1_555 1_555
N9_9 C32_9 1_555 1_555
C33_9 N9_9 1_555 1_555
H34_9 C33_9 1_555 1_555
H35_9 C33_9 1_555 1_555
C34_8 C33_9 1_555 1_555
H36_8 C34_8 1_555 1_555
H37_8 C34_8 1_555 1_555
C35_8 C34_8 1_555 1_555
H38_8 C35_8 1_555 1_555
H39_8 C35_8 1_555 1_555
C36_8 N9_9 1_555 1_555
H50_8 C45_8 1_555 1_555
C46_8 C45_8 1_555 1_555
H51_8 C46_8 1_555 1_555
N12_8 Ag1_8 1_555 1_555
C47_8 C43_8 1_555 1_555
H52_8 C47_8 1_555 1_555
O12_10 Ag2_3 1_555 1_555
Ag3_2 O4_4 1_555 1_555
O13_7 Ag2_3 1_555 1_555
N13_4 Ag2_3 1_555 1_555
C5_9 C6_9 1_555 1_555
C12_10 C13_10 1_555 1_555
C17_10 C18_10 1_555 1_555
N6_10 C24_10 1_555 1_555
C35_8 C36_8 1_555 1_555
C46_8 N12_8 1_555 1_555
N12_8 C47_8 1_555 1_555
O12_10 H53_10 1_555 1_555
O12_10 H54_10 1_555 1_555
Ag1_9 N1_10 1_555 1_555
C2_10 H1_10 1_555 1_555
N1_10 C2_10 1_555 1_555
C3_10 N1_10 1_555 1_555
H2_9 C3_10 1_555 1_555
C4_10 C3_10 1_555 1_555
H3_10 C4_10 1_555 1_555
C5_10 C4_10 1_555 1_555
H4_10 C5_10 1_555 1_555
C6_10 C2_10 1_555 1_555
C7_11 C6_10 1_555 1_555
O13_7 C7_11 1_555 1_555
N2_11 C7_11 1_555 1_555
H5_11 N2_11 1_555 1_555
C8_11 N2_11 1_555 1_555
H6_11 C8_11 1_555 1_555
H7_11 C8_11 1_555 1_555
C9_11 C8_11 1_555 1_555
O5_11 C9_11 1_555 1_555
N3_11 C9_11 1_555 1_555
C10_11 N3_11 1_555 1_555
H8_11 C10_11 1_555 1_555
H9_11 C10_11 1_555 1_555
C11_11 C10_11 1_555 1_555
H10_11 C11_11 1_555 1_555
H11_11 C11_11 1_555 1_555
C12_11 C11_11 1_555 1_555
H12_11 C12_11 1_555 1_555
H13_11 C12_11 1_555 1_555
C13_11 N3_11 1_555 1_555
H14_11 C13_11 1_555 1_555
C14_11 C13_11 1_555 1_555
O6_11 C14_11 1_555 1_555
N4_11 C14_11 1_555 1_555
C15_11 N4_11 1_555 1_555
H15_11 C15_11 1_555 1_555
H16_11 C15_11 1_555 1_555
C16_11 C15_11 1_555 1_555
H17_11 C16_11 1_555 1_555
H18_11 C16_11 1_555 1_555
C17_11 C16_11 1_555 1_555
H19_11 C17_11 1_555 1_555
H20_11 C17_11 1_555 1_555
C18_11 N4_11 1_555 1_555
H21_11 C18_11 1_555 1_555
C19_11 C18_11 1_555 1_555
O7_11 C19_11 1_555 1_555
N5_11 C19_11 1_555 1_555
H22_11 N5_11 1_555 1_555
H36_9 C34_9 1_555 1_555
H37_9 C34_9 1_555 1_555
C35_9 C34_9 1_555 1_555
H38_9 C35_9 1_555 1_555
H39_9 C35_9 1_555 1_555
H40_8 C36_9 1_555 1_555
C37_8 C36_9 1_555 1_555
O10_9 C37_8 1_555 1_555
N10_8 C37_8 1_555 1_555
C38_8 N10_8 1_555 1_555
H41_8 C38_8 1_555 1_555
H42_8 C38_8 1_555 1_555
C39_8 C38_8 1_555 1_555
H43_8 C39_8 1_555 1_555
H44_8 C39_8 1_555 1_555
C40_8 C39_8 1_555 1_555
H45_8 C40_8 1_555 1_555
H46_8 C40_8 1_555 1_555
C41_8 N10_8 1_555 1_555
H47_8 C41_8 1_555 1_555
C42_8 C41_8 1_555 1_555
O11_9 C42_8 1_555 1_555
N11_8 C42_8 1_555 1_555
H48_8 N11_8 1_555 1_555
C43_9 N11_8 1_555 1_555
C44_8 C43_9 1_555 1_555
H49_8 C44_8 1_555 1_555
C45_9 C44_8 1_555 1_555
H50_9 C45_9 1_555 1_555
C46_9 C45_9 1_555 1_555
H51_9 C46_9 1_555 1_555
N12_9 Ag1_9 1_555 1_555
C47_9 C43_9 1_555 1_555
H52_9 C47_9 1_555 1_555
C5_10 C6_10 1_555 1_555
C12_11 C13_11 1_555 1_555
C17_11 C18_11 1_555 1_555
C35_9 C36_9 1_555 1_555
C40_8 C41_8 1_555 1_555
C46_9 N12_9 1_555 1_555
N12_9 C47_9 1_555 1_555
O12_11 H53_11 1_555 1_555
O12_11 H54_11 1_555 1_555
Ag2_4 N6_11 1_555 1_555
C21_11 C20_11 1_555 1_555
H23_11 C21_11 1_555 1_555
C22_11 C21_11 1_555 1_555
H24_11 C22_11 1_555 1_555
C23_11 C22_11 1_555 1_555
H25_11 C23_11 1_555 1_555
N6_11 C23_11 1_555 1_555
C24_11 C20_11 1_555 1_555
O13_8 Ag2_4 1_555 1_555
N13_5 Ag2_4 1_555 1_555
N6_11 C24_11 1_555 1_555
Ag3_2 N6_12 1_555 1_555
O13_8 C7_12 1_555 1_555
N2_12 C7_12 1_555 1_555
H5_12 N2_12 1_555 1_555
C8_12 N2_12 1_555 1_555
H6_12 C8_12 1_555 1_555
H7_12 C8_12 1_555 1_555
C9_12 C8_12 1_555 1_555
O5_12 C9_12 1_555 1_555
N3_12 C9_12 1_555 1_555
C10_12 N3_12 1_555 1_555
H8_12 C10_12 1_555 1_555
H9_12 C10_12 1_555 1_555
C11_12 C10_12 1_555 1_555
H10_12 C11_12 1_555 1_555
H11_12 C11_12 1_555 1_555
C12_12 C11_12 1_555 1_555
H12_12 C12_12 1_555 1_555
H13_12 C12_12 1_555 1_555
C13_12 N3_12 1_555 1_555
H14_12 C13_12 1_555 1_555
C14_12 C13_12 1_555 1_555
O6_12 C14_12 1_555 1_555
N4_12 C14_12 1_555 1_555
C15_12 N4_12 1_555 1_555
H15_12 C15_12 1_555 1_555
H16_12 C15_12 1_555 1_555
C16_12 C15_12 1_555 1_555
H17_12 C16_12 1_555 1_555
H18_12 C16_12 1_555 1_555
C17_12 C16_12 1_555 1_555
H19_12 C17_12 1_555 1_555
H20_12 C17_12 1_555 1_555
C18_12 N4_12 1_555 1_555
H21_12 C18_12 1_555 1_555
C19_12 C18_12 1_555 1_555
O7_12 C19_12 1_555 1_555
N5_12 C19_12 1_555 1_555
H22_12 N5_12 1_555 1_555
C20_12 N5_12 1_555 1_555
C21_12 C20_12 1_555 1_555
H23_12 C21_12 1_555 1_555
C22_12 C21_12 1_555 1_555
H24_12 C22_12 1_555 1_555
C23_12 C22_12 1_555 1_555
H25_12 C23_12 1_555 1_555
N6_12 C23_12 1_555 1_555
C24_12 C20_12 1_555 1_555
H26_12 C24_12 1_555 1_555
O12_12 Ag3_2 1_555 1_555
N13_6 Ag3_2 1_555 1_555
C12_12 C13_12 1_555 1_555
C17_12 C18_12 1_555 1_555
N6_12 C24_12 1_555 1_555
O12_12 H53_12 1_555 1_555
O12_12 H54_12 1_555 1_555
Ag1_10 N1_11 1_555 1_555
C2_11 H1_11 1_555 1_555
N1_11 C2_11 1_555 1_555
C3_11 N1_11 1_555 1_555
H2_10 C3_11 1_555 1_555
C4_11 C3_11 1_555 1_555
H3_11 C4_11 1_555 1_555
C5_11 C4_11 1_555 1_555
H4_11 C5_11 1_555 1_555
C6_11 C2_11 1_555 1_555
C25_10 H27_10 1_555 1_555
N13_6 C25_10 1_555 1_555
C26_10 N13_6 1_555 1_555
H28_10 C26_10 1_555 1_555
C27_10 C26_10 1_555 1_555
H29_10 C27_10 1_555 1_555
C28_10 C27_10 1_555 1_555
H30_10 C28_10 1_555 1_555
C29_10 C25_10 1_555 1_555
C30_10 C29_10 1_555 1_555
O8_10 C30_10 1_555 1_555
N8_10 C30_10 1_555 1_555
H31_10 N8_10 1_555 1_555
C31_10 N8_10 1_555 1_555
H32_10 C31_10 1_555 1_555
H33_10 C31_10 1_555 1_555
C32_10 C31_10 1_555 1_555
O9_10 C32_10 1_555 1_555
N9_10 C32_10 1_555 1_555
C33_10 N9_10 1_555 1_555
H34_10 C33_10 1_555 1_555
H35_10 C33_10 1_555 1_555
C34_10 C33_10 1_555 1_555
H36_10 C34_10 1_555 1_555
H37_10 C34_10 1_555 1_555
C35_10 C34_10 1_555 1_555
H38_10 C35_10 1_555 1_555
H39_10 C35_10 1_555 1_555
C36_10 N9_10 1_555 1_555
H40_9 C36_10 1_555 1_555
C37_9 C36_10 1_555 1_555
O10_10 C37_9 1_555 1_555
N10_9 C37_9 1_555 1_555
C38_9 N10_9 1_555 1_555
H41_9 C38_9 1_555 1_555
H42_9 C38_9 1_555 1_555
C39_9 C38_9 1_555 1_555
H43_9 C39_9 1_555 1_555
H44_9 C39_9 1_555 1_555
C40_9 C39_9 1_555 1_555
H45_9 C40_9 1_555 1_555
H46_9 C40_9 1_555 1_555
C41_9 N10_9 1_555 1_555
H47_9 C41_9 1_555 1_555
C42_9 C41_9 1_555 1_555
O11_10 C42_9 1_555 1_555
N11_9 C42_9 1_555 1_555
H48_9 N11_9 1_555 1_555
C43_10 N11_9 1_555 1_555
C44_9 C43_10 1_555 1_555
H49_9 C44_9 1_555 1_555
C45_10 C44_9 1_555 1_555
H50_10 C45_10 1_555 1_555
C46_10 C45_10 1_555 1_555
H51_10 C46_10 1_555 1_555
N12_10 Ag1_10 1_555 1_555
C47_10 C43_10 1_555 1_555
H52_10 C47_10 1_555 1_555
C5_11 C6_11 1_555 1_555
C28_10 C29_10 1_555 1_555
C35_10 C36_10 1_555 1_555
C40_9 C41_9 1_555 1_555
C46_10 N12_10 1_555 1_555
N12_10 C47_10 1_555 1_555
N13_5 C25_11 1_555 1_555
C26_11 N13_5 1_555 1_555
H28_11 C26_11 1_555 1_555
C27_11 C26_11 1_555 1_555
H29_11 C27_11 1_555 1_555
C28_11 C27_11 1_555 1_555
H30_11 C28_11 1_555 1_555
C25_12 H27_11 1_555 1_555
N13_4 C25_12 1_555 1_555
C26_12 N13_4 1_555 1_555
H28_12 C26_12 1_555 1_555
C27_12 C26_12 1_555 1_555
H29_12 C27_12 1_555 1_555
C28_12 C27_12 1_555 1_555
H30_12 C28_12 1_555 1_555
C29_11 C25_12 1_555 1_555
C30_11 C29_11 1_555 1_555
O8_11 C30_11 1_555 1_555
N8_11 C30_11 1_555 1_555
H31_11 N8_11 1_555 1_555
C31_11 N8_11 1_555 1_555
H32_11 C31_11 1_555 1_555
H33_11 C31_11 1_555 1_555
C32_11 C31_11 1_555 1_555
O9_12 C32_11 1_555 1_555
N9_11 C32_11 1_555 1_555
C33_11 N9_11 1_555 1_555
H34_11 C33_11 1_555 1_555
H35_11 C33_11 1_555 1_555
C28_12 C29_11 1_555 1_555
Ag1_11 N1_12 1_555 1_555
C2_12 H1_12 1_555 1_555
N1_12 C2_12 1_555 1_555
C3_12 N1_12 1_555 1_555
H2_11 C3_12 1_555 1_555
C4_12 C3_12 1_555 1_555
H3_12 C4_12 1_555 1_555
C5_12 C4_12 1_555 1_555
H4_12 C5_12 1_555 1_555
C6_12 C2_12 1_555 1_555
H36_11 C34_11 1_555 1_555
H37_11 C34_11 1_555 1_555
C35_11 C34_11 1_555 1_555
H38_11 C35_11 1_555 1_555
H39_11 C35_11 1_555 1_555
H40_10 C36_11 1_555 1_555
C37_10 C36_11 1_555 1_555
O10_11 C37_10 1_555 1_555
N10_10 C37_10 1_555 1_555
C38_10 N10_10 1_555 1_555
H41_10 C38_10 1_555 1_555
H42_10 C38_10 1_555 1_555
C39_10 C38_10 1_555 1_555
H43_10 C39_10 1_555 1_555
H44_10 C39_10 1_555 1_555
C40_10 C39_10 1_555 1_555
H45_10 C40_10 1_555 1_555
H46_10 C40_10 1_555 1_555
C41_10 N10_10 1_555 1_555
H47_10 C41_10 1_555 1_555
C42_10 C41_10 1_555 1_555
O11_11 C42_10 1_555 1_555
N11_10 C42_10 1_555 1_555
H48_10 N11_10 1_555 1_555
C43_11 N11_10 1_555 1_555
C44_10 C43_11 1_555 1_555
H49_10 C44_10 1_555 1_555
C45_11 C44_10 1_555 1_555
H50_11 C45_11 1_555 1_555
C46_11 C45_11 1_555 1_555
H51_11 C46_11 1_555 1_555
N12_11 Ag1_11 1_555 1_555
C47_11 C43_11 1_555 1_555
H52_11 C47_11 1_555 1_555
C5_12 C6_12 1_555 1_555
C35_11 C36_11 1_555 1_555
C40_10 C41_10 1_555 1_555
C46_11 N12_11 1_555 1_555
N12_11 C47_11 1_555 1_555
H36_12 C34_12 1_555 1_555
H37_12 C34_12 1_555 1_555
C35_12 C34_12 1_555 1_555
H38_12 C35_12 1_555 1_555
H39_12 C35_12 1_555 1_555
H40_11 C36_12 1_555 1_555
C37_11 C36_12 1_555 1_555
O10_12 C37_11 1_555 1_555
N10_11 C37_11 1_555 1_555
C38_11 N10_11 1_555 1_555
H41_11 C38_11 1_555 1_555
H42_11 C38_11 1_555 1_555
C39_11 C38_11 1_555 1_555
H43_11 C39_11 1_555 1_555
H44_11 C39_11 1_555 1_555
C40_11 C39_11 1_555 1_555
H45_11 C40_11 1_555 1_555
H46_11 C40_11 1_555 1_555
C41_11 N10_11 1_555 1_555
H47_11 C41_11 1_555 1_555
C42_11 C41_11 1_555 1_555
O11_12 C42_11 1_555 1_555
N11_11 C42_11 1_555 1_555
H48_11 N11_11 1_555 1_555
C43_12 N11_11 1_555 1_555
C44_11 C43_12 1_555 1_555
H49_11 C44_11 1_555 1_555
C45_12 C44_11 1_555 1_555
H50_12 C45_12 1_555 1_555
C46_12 C45_12 1_555 1_555
H51_12 C46_12 1_555 1_555
N12_12 Ag1_12 1_555 1_555
C47_12 C43_12 1_555 1_555
H52_12 C47_12 1_555 1_555
C35_12 C36_12 1_555 1_555
C40_11 C41_11 1_555 1_555
C46_12 N12_12 1_555 1_555
N12_12 C47_12 1_555 1_555
N10_12 C37_12 1_555 1_555
C38_12 N10_12 1_555 1_555
H41_12 C38_12 1_555 1_555
H42_12 C38_12 1_555 1_555
C39_12 C38_12 1_555 1_555
H43_12 C39_12 1_555 1_555
H44_12 C39_12 1_555 1_555
C40_12 C39_12 1_555 1_555
H45_12 C40_12 1_555 1_555
H46_12 C40_12 1_555 1_555
C41_12 N10_12 1_555 1_555
H47_12 C41_12 1_555 1_555
C42_12 C41_12 1_555 1_555
N11_12 C42_12 1_555 1_555
H48_12 N11_12 1_555 1_555
H49_12 C44_12 1_555 1_555
C40_12 C41_12 1_555 1_555
C30_12 C29_12 1_555 1_555
O8_12 C30_12 1_555 1_555
N8_12 C30_12 1_555 1_555
H31_12 N8_12 1_555 1_555
C31_12 N8_12 1_555 1_555
H32_12 C31_12 1_555 1_555
H33_12 C31_12 1_555 1_555
C32_12 C31_12 1_555 1_555
N9_12 C32_12 1_555 1_555
C33_12 N9_12 1_555 1_555
H34_12 C33_12 1_555 1_555
H35_12 C33_12 1_555 1_555

#END
