
###############################################################################
#
# This file contains modified crystal structure data generated from the
# MOF subset of the Cambridge Structural Database (CSD) v543 
# hosted by the Cambridge Crystallographic Data Centre (CCDC).
#
# This work is licensed under the Creative Commons
# Attribution-NonCommercial-ShareAlike 4.0 International License.
# To view a copy of this license, visit
# http://creativecommons.org/licenses/by-nc-sa/4.0/
# or send a letter to
# Creative Commons, PO Box 1866, Mountain View, CA 94042, USA.
#
# CIF created using the CSD Python API on 29 September 2022
# The structure has been converted into the P1 space group
# The structure has a 3D framework
# The original CSD entry POGMOQ is in the rhombohedral crystal system
# The framework has been calculated to contain at least 10.0% void space
# The void calculation uses a probe of radius 1.32A, grid spacing 0.4
#
###############################################################################

data_POGMOQ
_chemical_formula_moiety         '(C216 H198 N18 O60 Zn9)n'
_symmetry_cell_setting           triclinic
_symmetry_space_group_name_H-M   'P 1'
_symmetry_Int_Tables_number      1
_space_group_name_Hall           'P 1'
loop_
_symmetry_equiv_pos_site_id
_symmetry_equiv_pos_as_xyz
1 x,y,z
_cell_length_a                   28.868(7)
_cell_length_b                   28.868(7)
_cell_length_c                   8.261(3)
_cell_angle_alpha                90
_cell_angle_beta                 90
_cell_angle_gamma                120
_cell_volume                     5962.06
loop_
_atom_site_label
_atom_site_type_symbol
_atom_site_fract_x
_atom_site_fract_y
_atom_site_fract_z
Zn1 Zn 0.333333 0.04129(2) 0.666667
O1 O 0.31763(11) 0.07509(11) 0.4883(3)
O2 O 0.28482(11) 0.01960(10) 0.2780(3)
C1 C 0.27837(13) 0.09788(13) 0.2769(4)
C2 C 0.29176(19) 0.14588(10) 0.3513(6)
H1 H 0.309564 0.154781 0.450109
C3 C 0.25167(14) 0.08441(14) 0.1298(4)
H2 H 0.243025 0.052037 0.080984
C4 C 0.29472(14) 0.06144(14) 0.3541(4)
C5 C 0.2376(2) 0.11881(10) 0.0542(6)
O3 O 0.31763(11) 0.24254(16) 0.4883(3)
O4 O 0.28482(11) 0.26522(15) 0.2780(3)
C8 C 0.27837(13) 0.18049(18) 0.2769(4)
C9 C 0.25167(14) 0.16726(20) 0.1298(4)
H7 H 0.243025 0.190988 0.080984
C10 C 0.29472(14) 0.23328(20) 0.3541(4)
Zn3 Zn 0.292043(20) 0.333333 0.333333
Zn4 Zn 0.333333 0.292043(20) 0.666667
O5 O 0.34904(11) 0.09079(16) 0.8450(3)
O7 O 0.40145(15) 0.04851(11) 0.6113(3)
Zn2 Zn 0.292043(20) 0.95871(2) 0.333333
O6 O 0.26522(15) 0.98040(10) 0.7220(3)
Zn2_2 Zn 0.04129(2) 0.333333(28) 0.333333
O6_2 O 0.01960(10) 0.28482(18) 0.7220(3)
Zn1_2 Zn 0.95871(2) 0.292043(20) 0.666667
O1_2 O 0.92491(11) 0.24254(16) 0.4883(3)
O2_2 O 0.98040(10) 0.26522(15) 0.2780(3)
C1_2 C 0.90212(13) 0.18049(18) 0.2769(4)
C2_2 C 0.85412(10) 0.14588(21) 0.3513(6)
H1_2 H 0.845219 0.154783 0.450109
C3_2 C 0.91559(14) 0.16726(20) 0.1298(4)
H2_2 H 0.947963 0.190988 0.080984
C4_2 C 0.93856(14) 0.23328(20) 0.3541(4)
C5_2 C 0.88119(10) 0.11879(22) 0.0542(6)
O3_2 O 0.75746(16) 0.07509(19) 0.4883(3)
O4_2 O 0.73478(15) 0.01960(19) 0.2780(3)
C8_2 C 0.81951(18) 0.09788(22) 0.2769(4)
C9_2 C 0.83274(20) 0.08441(24) 0.1298(4)
H7_2 H 0.809012 0.052037 0.080984
C10_2 C 0.76672(20) 0.06144(24) 0.3541(4)
Zn4_2 Zn 0.707957(20) 0.041290(20) 0.666667
O5_2 O 0.90921(16) 0.25824(19) 0.8450(3)
O7_2 O 0.95149(11) 0.35293(19) 0.6113(3)
Zn3_2 Zn 0.666667 0.958710(20) 0.333333
Zn3_3 Zn 0.041290(20) 0.707957(20) 0.333333
Zn1_3 Zn 0.707957(20) 0.666667 0.666667
O1_3 O 0.75746(16) 0.68237(11) 0.4883(3)
O2_3 O 0.73478(15) 0.71518(11) 0.2780(3)
C1_3 C 0.81951(18) 0.72163(13) 0.2769(4)
C2_3 C 0.85412(21) 0.70824(19) 0.3513(6)
H1_3 H 0.845217 0.690436 0.450109
C3_3 C 0.83274(20) 0.74833(14) 0.1298(4)
H2_3 H 0.809012 0.756975 0.080984
C4_3 C 0.76672(20) 0.70528(14) 0.3541(4)
C5_3 C 0.88121(22) 0.7624(2) 0.0542(6)
O3_3 O 0.92491(19) 0.68237(11) 0.4883(3)
O4_3 O 0.98040(19) 0.71518(11) 0.2780(3)
C8_3 C 0.90212(22) 0.72163(13) 0.2769(4)
C9_3 C 0.91559(24) 0.74833(14) 0.1298(4)
H7_3 H 0.947963 0.756975 0.080984
C10_3 C 0.93856(24) 0.70528(14) 0.3541(4)
Zn2_3 Zn 0.666667(28) 0.707957(20) 0.333333
Zn4_3 Zn 0.958710(20) 0.666667 0.666667
O5_3 O 0.74176(19) 0.65096(11) 0.8450(3)
O6_3 O 0.71518(18) 0.73478(15) 0.7220(3)
O7_3 O 0.64707(19) 0.59855(15) 0.6113(3)
O1_4 O 0.07509(11) 0.31763(11) 0.5117(3)
C1_4 C 0.09788(13) 0.27837(13) 0.7231(4)
C2_4 C 0.14588(10) 0.29176(19) 0.6487(6)
H1_4 H 0.154781 0.309564 0.549891
C3_4 C 0.08441(14) 0.25167(14) 0.8702(4)
H2_4 H 0.052037 0.243025 0.919016
C4_4 C 0.06144(14) 0.29472(14) 0.6459(4)
C5_4 C 0.11881(10) 0.2376(2) 0.9458(6)
O3_4 O 0.24254(16) 0.31763(11) 0.5117(3)
O4_4 O 0.26522(15) 0.28482(11) 0.7220(3)
C8_4 C 0.18049(18) 0.27837(13) 0.7231(4)
C9_4 C 0.16726(20) 0.25167(14) 0.8702(4)
H7_4 H 0.190988 0.243025 0.919016
C10_4 C 0.23328(20) 0.29472(14) 0.6459(4)
O5_4 O 0.09079(16) 0.34904(11) 0.1550(3)
O7_4 O 0.04851(11) 0.40145(15) 0.3887(3)
O1_5 O 0.68237(11) 0.75746(16) 0.5117(3)
C1_5 C 0.72163(13) 0.81951(18) 0.7231(4)
C2_5 C 0.70824(19) 0.85412(21) 0.6487(6)
H1_5 H 0.690436 0.845217 0.549891
C3_5 C 0.74833(14) 0.83274(20) 0.8702(4)
H2_5 H 0.756975 0.809012 0.919016
C4_5 C 0.70528(14) 0.76672(20) 0.6459(4)
C5_5 C 0.7624(2) 0.88121(22) 0.9458(6)
O3_5 O 0.68237(11) 0.92491(19) 0.5117(3)
O4_5 O 0.71518(11) 0.98040(19) 0.7220(3)
C8_5 C 0.72163(13) 0.90212(22) 0.7231(4)
C9_5 C 0.74833(14) 0.91559(24) 0.8702(4)
H7_5 H 0.756975 0.947963 0.919016
C10_5 C 0.70528(14) 0.93856(24) 0.6459(4)
O5_5 O 0.65096(11) 0.74176(19) 0.1550(3)
O7_5 O 0.59855(15) 0.64707(19) 0.3887(3)
O1_6 O 0.24254(16) 0.92491(11) 0.5117(3)
C1_6 C 0.18049(18) 0.90212(13) 0.7231(4)
C2_6 C 0.14588(21) 0.85412(10) 0.6487(6)
H1_6 H 0.154783 0.845219 0.549891
C3_6 C 0.16726(20) 0.91559(14) 0.8702(4)
H2_6 H 0.190988 0.947963 0.919016
C4_6 C 0.23328(20) 0.93856(14) 0.6459(4)
C5_6 C 0.11879(22) 0.88119(10) 0.9458(6)
O3_6 O 0.07509(19) 0.75746(16) 0.5117(3)
O4_6 O 0.01960(19) 0.73478(15) 0.7220(3)
C8_6 C 0.09788(22) 0.81951(18) 0.7231(4)
C9_6 C 0.08441(24) 0.83274(20) 0.8702(4)
H7_6 H 0.052037 0.809012 0.919016
C10_6 C 0.06144(24) 0.76672(20) 0.6459(4)
O5_6 O 0.25824(19) 0.90921(16) 0.1550(3)
O7_6 O 0.35293(19) 0.95149(11) 0.3887(3)
Zn1_4 Zn -0.000000 0.37462(2) 0.000000
Zn4_4 Zn -0.000000 0.625376(20) 0.000000
O5_7 O 0.01570(11) 0.42413(16) 0.1784(3)
Zn1_5 Zn -0.000000 0.37462(2) 1.000000
Zn4_5 Zn -0.000000 0.625376(20) 1.000000
O7_7 O 0.06811(15) 0.38185(11) 0.9447(3)
Zn1_6 Zn 1.000000 0.37462(2) 0.000000
Zn4_6 Zn 1.000000 0.625376(20) 0.000000
O6_4 O 0.93189(15) 0.31373(10) 0.0553(3)
Zn1_7 Zn 1.000000 0.37462(2) 1.000000
O1_7 O 0.98430(11) 0.40842(11) 0.8216(3)
N1 N 0.8783(2) 0.43914(10) 0.2396(6)
C1_7 C 0.94504(13) 0.43121(13) 0.6102(4)
C2_7 C 0.95843(19) 0.47921(10) 0.6846(6)
H1_7 H 0.976231 0.488114 0.783442
C3_7 C 0.91834(14) 0.41774(14) 0.4631(4)
H2_7 H 0.909692 0.385370 0.414317
C4_7 C 0.96139(14) 0.39477(14) 0.6874(4)
C5_7 C 0.9043(2) 0.45214(10) 0.3875(6)
C6 C 0.8697(3) 0.4764(2) 0.1476(6)
H3 H 0.903087 0.509195 0.127959
H4 H 0.845357 0.485023 0.203709
O3_7 O 0.98430(11) 0.57587(16) 0.8216(3)
O4_7 O 0.95149(11) 0.59855(15) 0.6113(3)
C8_7 C 0.94504(13) 0.51382(18) 0.6102(4)
C9_7 C 0.91834(14) 0.50059(20) 0.4631(4)
H7_7 H 0.909692 0.524321 0.414317
C10_7 C 0.96139(14) 0.56661(20) 0.6874(4)
C11 C 0.8697(3) 0.3932(4) 0.1476(6)
H8 H 0.903087 0.393891 0.127959
H9 H 0.845357 0.360333 0.203709
Zn4_7 Zn 1.000000 0.625376(20) 1.000000
Zn1_8 Zn 0.62538(2) 0.625376(20) 0.000000
Zn4_8 Zn 0.374624(20) 0.374623(20) 0.000000
O5_8 O 0.57587(16) 0.59158(19) 0.1784(3)
O6_5 O 0.68627(10) 0.61815(18) 0.0553(3)
Zn1_9 Zn 0.62538(2) 0.625376(20) 1.000000
O1_8 O 0.59158(11) 0.57587(16) 0.8216(3)
N1_2 N 0.56086(10) 0.43912(22) 0.2396(6)
C1_8 C 0.56879(13) 0.51382(18) 0.6102(4)
C2_8 C 0.52079(10) 0.47921(21) 0.6846(6)
H1_8 H 0.511886 0.488116 0.783442
C3_8 C 0.58226(14) 0.50059(20) 0.4631(4)
H2_8 H 0.614630 0.524321 0.414317
C4_8 C 0.60523(14) 0.56661(20) 0.6874(4)
C5_8 C 0.54786(10) 0.45212(22) 0.3875(6)
C6_2 C 0.5236(2) 0.3932(4) 0.1476(6)
H3_2 H 0.490805 0.393891 0.127959
H4_2 H 0.514977 0.360333 0.203709
O3_8 O 0.42413(16) 0.40842(19) 0.8216(3)
O4_8 O 0.40145(15) 0.35293(19) 0.6113(3)
C8_8 C 0.48618(18) 0.43121(22) 0.6102(4)
C9_8 C 0.49941(20) 0.41774(24) 0.4631(4)
H7_8 H 0.475679 0.385370 0.414317
C10_8 C 0.43339(20) 0.39477(24) 0.6874(4)
C11_2 C 0.6068(4) 0.4764(5) 0.1476(6)
H8_2 H 0.606109 0.509195 0.127959
H9_2 H 0.639667 0.485023 0.203709
Zn4_9 Zn 0.374624(20) 0.374623(20) 1.000000
O7_8 O 0.61815(11) 0.68627(19) 0.9447(3)
Zn1_10 Zn 0.374624(20) 0.000000 0.000000
Zn4_10 Zn 0.625377(20) 0.000000 0.000000
O6_6 O 0.38185(18) 0.06811(15) 0.0553(3)
Zn1_11 Zn 0.374624(20) 0.000000 1.000000
O1_9 O 0.42413(16) 0.01570(11) 0.8216(3)
N1_3 N 0.56088(22) 0.1217(2) 0.2396(6)
C1_9 C 0.48618(18) 0.05496(13) 0.6102(4)
C2_9 C 0.52079(21) 0.04157(19) 0.6846(6)
H1_9 H 0.511884 0.023769 0.783442
C3_9 C 0.49941(20) 0.08166(14) 0.4631(4)
H2_9 H 0.475679 0.090308 0.414317
C4_9 C 0.43339(20) 0.03861(14) 0.6874(4)
C5_9 C 0.54788(22) 0.0957(2) 0.3875(6)
C6_3 C 0.6068(4) 0.1303(3) 0.1476(6)
H3_3 H 0.606109 0.096913 0.127959
H4_3 H 0.639667 0.154643 0.203709
O3_9 O 0.59158(19) 0.01570(11) 0.8216(3)
O4_9 O 0.64707(19) 0.04851(11) 0.6113(3)
C8_9 C 0.56879(22) 0.05496(13) 0.6102(4)
C9_9 C 0.58226(24) 0.08166(14) 0.4631(4)
H7_9 H 0.614630 0.090308 0.414317
C10_9 C 0.60523(24) 0.03861(14) 0.6874(4)
C11_3 C 0.5236(5) 0.1303(3) 0.1476(6)
H8_3 H 0.490805 0.096913 0.127959
H9_3 H 0.514977 0.154643 0.203709
Zn4_11 Zn 0.625377(20) 0.000000 1.000000
Zn1_12 Zn 0.374624(20) 1.000000 0.000000
Zn4_12 Zn 0.625377(20) 1.000000 0.000000
O5_9 O 0.40842(19) 0.98430(11) 0.1784(3)
Zn1_13 Zn 0.374624(20) 1.000000 1.000000
Zn4_13 Zn 0.625377(20) 1.000000 1.000000
O7_9 O 0.31373(19) 0.93189(15) 0.9447(3)
N1_4 N 0.77248(10) 0.5449(2) 0.4270(6)
C1_10 C 0.76455(13) 0.61170(13) 0.0564(4)
C3_10 C 0.75108(14) 0.58500(14) 0.2035(4)
H2_10 H 0.718704 0.576358 0.252349
C5_10 C 0.78548(10) 0.5709(2) 0.2791(6)
C6_4 C 0.8098(2) 0.5363(3) 0.5190(6)
H3_4 H 0.842529 0.569753 0.538707
H4_4 H 0.818357 0.512023 0.462957
C7 C 0.7807(3) 0.5120(3) 0.6757(7)
H5 H 0.773991 0.475675 0.685992
H6 H 0.802470 0.532629 0.766823
O4_10 O 0.93189(15) 0.61815(11) 0.0553(3)
C8_10 C 0.84716(18) 0.61170(13) 0.0564(4)
C9_10 C 0.83393(20) 0.58500(14) 0.2035(4)
H7_10 H 0.857655 0.576358 0.252349
C11_4 C 0.7266(4) 0.5363(3) 0.5190(6)
H8_4 H 0.727225 0.569753 0.538707
H9_4 H 0.693667 0.512023 0.462957
C12 C 0.7314(4) 0.5120(3) 0.6757(7)
H10 H 0.701685 0.475675 0.685992
H11 H 0.730160 0.532629 0.766823
C2_10 C 0.81255(10) 0.62509(19) 0.9820(6)
H1_10 H 0.821448 0.642897 0.883224
C4_10 C 0.72811(14) 0.62805(14) 0.9792(4)
O3_10 O 0.90921(16) 0.65096(11) 0.8450(3)
C10_10 C 0.89995(20) 0.62805(14) 0.9792(4)
N1_5 N 0.4551(2) 0.22754(22) 0.4270(6)
C1_11 C 0.38830(13) 0.15284(18) 0.0564(4)
C3_11 C 0.41500(14) 0.16607(20) 0.2035(4)
H2_11 H 0.423642 0.142345 0.252349
C5_11 C 0.4291(2) 0.21454(22) 0.2791(6)
C6_5 C 0.4637(3) 0.2734(4) 0.5190(6)
H3_5 H 0.430247 0.272775 0.538707
H4_5 H 0.487977 0.306333 0.462957
C7_2 C 0.4880(3) 0.2686(4) 0.6757(7)
H5_2 H 0.524325 0.298315 0.685992
H6_2 H 0.467371 0.269840 0.766823
O4_11 O 0.38185(11) 0.31373(19) 0.0553(3)
C8_11 C 0.38830(13) 0.23545(22) 0.0564(4)
C9_11 C 0.41500(14) 0.24892(24) 0.2035(4)
H7_11 H 0.423642 0.281296 0.252349
C11_5 C 0.4637(3) 0.1902(5) 0.5190(6)
H8_5 H 0.430247 0.157471 0.538707
H9_5 H 0.487977 0.181643 0.462957
C12_2 C 0.4880(3) 0.2193(5) 0.6757(7)
H10_2 H 0.524325 0.226009 0.685992
H11_2 H 0.467371 0.197530 0.766823
C2_11 C 0.37491(19) 0.18745(21) 0.9820(6)
H1_11 H 0.357103 0.178550 0.883224
C4_11 C 0.37195(14) 0.10005(20) 0.9792(4)
O3_11 O 0.34904(11) 0.25824(19) 0.8450(3)
C10_11 C 0.37195(14) 0.27189(24) 0.9792(4)
N1_6 N 0.77246(22) 0.22752(10) 0.4270(6)
C1_12 C 0.84716(18) 0.23545(13) 0.0564(4)
C3_12 C 0.83393(20) 0.24892(14) 0.2035(4)
H2_12 H 0.857655 0.281296 0.252349
C5_12 C 0.78546(22) 0.21452(10) 0.2791(6)
C6_6 C 0.7266(4) 0.1902(2) 0.5190(6)
H3_6 H 0.727225 0.157471 0.538707
H4_6 H 0.693667 0.181643 0.462957
C7_3 C 0.7314(4) 0.2193(3) 0.6757(7)
H5_3 H 0.701685 0.226009 0.685992
H6_3 H 0.730160 0.197530 0.766823
O4_12 O 0.68627(19) 0.06811(15) 0.0553(3)
C8_12 C 0.76455(22) 0.15284(18) 0.0564(4)
C9_12 C 0.75108(24) 0.16607(20) 0.2035(4)
H7_12 H 0.718704 0.142345 0.252349
C11_6 C 0.8098(5) 0.2734(4) 0.5190(6)
H8_6 H 0.842529 0.272775 0.538707
H9_6 H 0.818357 0.306333 0.462957
C12_3 C 0.7807(5) 0.2686(4) 0.6757(7)
H10_3 H 0.773991 0.298315 0.685992
H11_3 H 0.802470 0.269840 0.766823
C2_12 C 0.81255(21) 0.18745(10) 0.9820(6)
H1_12 H 0.821450 0.178552 0.883224
C4_12 C 0.89995(20) 0.27189(14) 0.9792(4)
O3_12 O 0.74176(19) 0.09079(16) 0.8450(3)
C10_12 C 0.72811(24) 0.10005(20) 0.9792(4)
C2_13 C 0.62509(19) 0.81255(10) 0.0180(6)
H1_13 H 0.642897 0.821448 0.116776
C4_13 C 0.62805(14) 0.72811(14) 0.0208(4)
O3_13 O 0.65096(11) 0.90921(16) 0.1550(3)
C10_13 C 0.62805(14) 0.89995(20) 0.0208(4)
N1_7 N 0.5449(2) 0.77248(10) 0.5730(6)
C1_13 C 0.61170(13) 0.76455(13) 0.9436(4)
C3_13 C 0.58500(14) 0.75108(14) 0.7965(4)
H2_13 H 0.576358 0.718704 0.747651
C5_13 C 0.5709(2) 0.78548(10) 0.7209(6)
C6_7 C 0.5363(3) 0.8098(2) 0.4810(6)
H3_7 H 0.569753 0.842529 0.461293
H4_7 H 0.512023 0.818357 0.537043
C7_4 C 0.5120(3) 0.7807(3) 0.3243(7)
H5_4 H 0.475675 0.773991 0.314008
H6_4 H 0.532629 0.802470 0.233177
O4_13 O 0.61815(11) 0.93189(15) 0.9447(3)
C8_13 C 0.61170(13) 0.84716(18) 0.9436(4)
C9_13 C 0.58500(14) 0.83393(20) 0.7965(4)
H7_13 H 0.576358 0.857655 0.747651
C11_7 C 0.5363(3) 0.7266(4) 0.4810(6)
H8_7 H 0.569753 0.727225 0.461293
H9_7 H 0.512023 0.693667 0.537043
C12_4 C 0.5120(3) 0.7314(4) 0.3243(7)
H10_4 H 0.475675 0.701685 0.314008
H11_4 H 0.532629 0.730160 0.233177
C2_14 C 0.18745(10) 0.81255(21) 0.0180(6)
H1_14 H 0.178552 0.821450 0.116776
C4_14 C 0.27189(14) 0.89995(20) 0.0208(4)
O3_14 O 0.09079(16) 0.74176(19) 0.1550(3)
C10_14 C 0.10005(20) 0.72811(24) 0.0208(4)
N1_8 N 0.22752(10) 0.77246(22) 0.5730(6)
C1_14 C 0.23545(13) 0.84716(18) 0.9436(4)
C3_14 C 0.24892(14) 0.83393(20) 0.7965(4)
H2_14 H 0.281296 0.857655 0.747651
C5_14 C 0.21452(10) 0.78546(22) 0.7209(6)
C6_8 C 0.1902(2) 0.7266(4) 0.4810(6)
H3_8 H 0.157471 0.727225 0.461293
H4_8 H 0.181643 0.693667 0.537043
C7_5 C 0.2193(3) 0.7314(4) 0.3243(7)
H5_5 H 0.226009 0.701685 0.314008
H6_5 H 0.197530 0.730160 0.233177
O4_14 O 0.06811(15) 0.68627(19) 0.9447(3)
C8_14 C 0.15284(18) 0.76455(22) 0.9436(4)
C9_14 C 0.16607(20) 0.75108(24) 0.7965(4)
H7_14 H 0.142345 0.718704 0.747651
C11_8 C 0.2734(4) 0.8098(5) 0.4810(6)
H8_8 H 0.272775 0.842529 0.461293
H9_8 H 0.306333 0.818357 0.537043
C12_5 C 0.2686(4) 0.7807(5) 0.3243(7)
H10_5 H 0.298315 0.773991 0.314008
H11_5 H 0.269840 0.802470 0.233177
C2_15 C 0.18745(21) 0.37491(19) 0.0180(6)
H1_15 H 0.178550 0.357103 0.116776
C4_15 C 0.10005(20) 0.37195(14) 0.0208(4)
O3_15 O 0.25824(19) 0.34904(11) 0.1550(3)
C10_15 C 0.27189(24) 0.37195(14) 0.0208(4)
N1_9 N 0.22754(22) 0.4551(2) 0.5730(6)
C1_15 C 0.15284(18) 0.38830(13) 0.9436(4)
C3_15 C 0.16607(20) 0.41500(14) 0.7965(4)
H2_15 H 0.142345 0.423642 0.747651
C5_15 C 0.21454(22) 0.4291(2) 0.7209(6)
C6_9 C 0.2734(4) 0.4637(3) 0.4810(6)
H3_9 H 0.272775 0.430247 0.461293
H4_9 H 0.306333 0.487977 0.537043
C7_6 C 0.2686(4) 0.4880(3) 0.3243(7)
H5_6 H 0.298315 0.524325 0.314008
H6_6 H 0.269840 0.467371 0.233177
O4_15 O 0.31373(19) 0.38185(11) 0.9447(3)
C8_15 C 0.23545(22) 0.38830(13) 0.9436(4)
C9_15 C 0.24892(24) 0.41500(14) 0.7965(4)
H7_15 H 0.281296 0.423642 0.747651
C11_9 C 0.1902(5) 0.4637(3) 0.4810(6)
H8_9 H 0.157471 0.430247 0.461293
H9_9 H 0.181643 0.487977 0.537043
C12_6 C 0.2193(5) 0.4880(3) 0.3243(7)
H10_6 H 0.226009 0.524325 0.314008
H11_6 H 0.197530 0.467371 0.233177
N1_10 N 0.43914(10) 0.8783(2) 0.7604(6)
C1_16 C 0.43121(13) 0.94504(13) 0.3898(4)
C2_16 C 0.47921(10) 0.95843(19) 0.3154(6)
H1_16 H 0.488114 0.976231 0.216558
C3_16 C 0.41774(14) 0.91834(14) 0.5369(4)
H2_16 H 0.385370 0.909692 0.585683
C4_16 C 0.39477(14) 0.96139(14) 0.3126(4)
C5_16 C 0.45214(10) 0.9043(2) 0.6125(6)
C6_10 C 0.4764(2) 0.8697(3) 0.8524(6)
H3_10 H 0.509195 0.903087 0.872041
H4_10 H 0.485023 0.845357 0.796291
O3_16 O 0.57587(16) 0.98430(11) 0.1784(3)
O4_16 O 0.59855(15) 0.95149(11) 0.3887(3)
C8_16 C 0.51382(18) 0.94504(13) 0.3898(4)
C9_16 C 0.50059(20) 0.91834(14) 0.5369(4)
H7_16 H 0.524321 0.909692 0.585683
C10_16 C 0.56661(20) 0.96139(14) 0.3126(4)
C11_10 C 0.3932(4) 0.8697(3) 0.8524(6)
H8_10 H 0.393891 0.903087 0.872041
H9_10 H 0.360333 0.845357 0.796291
N1_11 N 0.1217(2) 0.56088(22) 0.7604(6)
C1_17 C 0.05496(13) 0.48618(18) 0.3898(4)
C2_17 C 0.04157(19) 0.52079(21) 0.3154(6)
H1_17 H 0.023769 0.511884 0.216558
C3_17 C 0.08166(14) 0.49941(20) 0.5369(4)
H2_17 H 0.090308 0.475679 0.585683
C4_17 C 0.03861(14) 0.43339(20) 0.3126(4)
C5_17 C 0.0957(2) 0.54788(22) 0.6125(6)
C6_11 C 0.1303(3) 0.6068(4) 0.8524(6)
H3_11 H 0.096913 0.606109 0.872041
H4_11 H 0.154643 0.639667 0.796291
O3_17 O 0.01570(11) 0.59158(19) 0.1784(3)
O4_17 O 0.04851(11) 0.64707(19) 0.3887(3)
C8_17 C 0.05496(13) 0.56879(22) 0.3898(4)
C9_17 C 0.08166(14) 0.58226(24) 0.5369(4)
H7_17 H 0.090308 0.614630 0.585683
C10_17 C 0.03861(14) 0.60523(24) 0.3126(4)
C11_11 C 0.1303(3) 0.5236(5) 0.8524(6)
H8_11 H 0.096913 0.490805 0.872041
H9_11 H 0.154643 0.514977 0.796291
N1_12 N 0.43912(22) 0.56086(10) 0.7604(6)
C1_18 C 0.51382(18) 0.56879(13) 0.3898(4)
C2_18 C 0.47921(21) 0.52079(10) 0.3154(6)
H1_18 H 0.488116 0.511886 0.216558
C3_18 C 0.50059(20) 0.58226(14) 0.5369(4)
H2_18 H 0.524321 0.614630 0.585683
C4_18 C 0.56661(20) 0.60523(14) 0.3126(4)
C5_18 C 0.45212(22) 0.54786(10) 0.6125(6)
C6_12 C 0.3932(4) 0.5236(2) 0.8524(6)
H3_12 H 0.393891 0.490805 0.872041
H4_12 H 0.360333 0.514977 0.796291
O3_18 O 0.40842(19) 0.42413(16) 0.1784(3)
O4_18 O 0.35293(19) 0.40145(15) 0.3887(3)
C8_18 C 0.43121(22) 0.48618(18) 0.3898(4)
C9_18 C 0.41774(24) 0.49941(20) 0.5369(4)
H7_18 H 0.385370 0.475679 0.585683
C10_18 C 0.39477(24) 0.43339(20) 0.3126(4)
C11_12 C 0.4764(5) 0.6068(4) 0.8524(6)
H8_12 H 0.509195 0.606109 0.872041
H9_12 H 0.485023 0.639667 0.796291
N1_13 N 0.2116(2) 0.10581(10) 0.9063(6)
C6_13 C 0.2030(3) 0.1431(2) 0.8143(6)
H3_13 H 0.236420 0.175862 0.794626
H4_13 H 0.178690 0.151690 0.870376
C7_7 C 0.1787(3) 0.1140(3) 0.6576(7)
H5_7 H 0.142342 0.107324 0.647341
H6_7 H 0.199296 0.135803 0.566510
C11_13 C 0.2030(3) 0.0599(4) 0.8143(6)
H8_13 H 0.236420 0.060558 0.794626
H9_13 H 0.178690 0.027000 0.870376
C12_7 C 0.1787(3) 0.0647(4) 0.6576(7)
H10_7 H 0.142342 0.035018 0.647341
H11_7 H 0.199296 0.063493 0.566510
N1_14 N 0.89419(10) 0.10579(22) 0.9063(6)
C6_14 C 0.8569(2) 0.0599(4) 0.8143(6)
H3_14 H 0.824138 0.060558 0.794626
H4_14 H 0.848310 0.027000 0.870376
C7_8 C 0.8860(3) 0.0647(4) 0.6576(7)
H5_8 H 0.892676 0.035018 0.647341
H6_8 H 0.864197 0.063493 0.566510
C11_14 C 0.9401(4) 0.1431(5) 0.8143(6)
H8_14 H 0.939442 0.175862 0.794626
H9_14 H 0.973000 0.151690 0.870376
C12_8 C 0.9353(4) 0.1140(5) 0.6576(7)
H10_8 H 0.964982 0.107324 0.647341
H11_8 H 0.936507 0.135803 0.566510
N1_15 N 0.89421(22) 0.7884(2) 0.9063(6)
C6_15 C 0.9401(4) 0.7970(3) 0.8143(6)
H3_15 H 0.939442 0.763580 0.794626
H4_15 H 0.973000 0.821310 0.870376
C7_9 C 0.9353(4) 0.8213(3) 0.6576(7)
H5_9 H 0.964982 0.857658 0.647341
H6_9 H 0.936507 0.800704 0.566510
C11_15 C 0.8569(5) 0.7970(3) 0.8143(6)
H8_15 H 0.824138 0.763580 0.794626
H9_15 H 0.848310 0.821310 0.870376
C12_9 C 0.8860(5) 0.8213(3) 0.6576(7)
H10_9 H 0.892676 0.857658 0.647341
H11_9 H 0.864197 0.800704 0.566510
N1_16 N 0.10581(10) 0.2116(2) 0.0937(6)
C6_16 C 0.1431(2) 0.2030(3) 0.1857(6)
H3_16 H 0.175862 0.236420 0.205374
H4_16 H 0.151690 0.178690 0.129624
C7_10 C 0.1140(3) 0.1787(3) 0.3424(7)
H5_10 H 0.107324 0.142342 0.352659
H6_10 H 0.135803 0.199296 0.433490
C11_16 C 0.0599(4) 0.2030(3) 0.1857(6)
H8_16 H 0.060558 0.236420 0.205374
H9_16 H 0.027000 0.178690 0.129624
C12_10 C 0.0647(4) 0.1787(3) 0.3424(7)
H10_10 H 0.035018 0.142342 0.352659
H11_10 H 0.063493 0.199296 0.433490
N1_17 N 0.7884(2) 0.89421(22) 0.0937(6)
C6_17 C 0.7970(3) 0.9401(4) 0.1857(6)
H3_17 H 0.763580 0.939442 0.205374
H4_17 H 0.821310 0.973000 0.129624
C7_11 C 0.8213(3) 0.9353(4) 0.3424(7)
H5_11 H 0.857658 0.964982 0.352659
H6_11 H 0.800704 0.936507 0.433490
C11_17 C 0.7970(3) 0.8569(5) 0.1857(6)
H8_17 H 0.763580 0.824138 0.205374
H9_17 H 0.821310 0.848310 0.129624
C12_11 C 0.8213(3) 0.8860(5) 0.3424(7)
H10_11 H 0.857658 0.892676 0.352659
H11_11 H 0.800704 0.864197 0.433490
N1_18 N 0.10579(22) 0.89419(10) 0.0937(6)
C6_18 C 0.0599(4) 0.8569(2) 0.1857(6)
H3_18 H 0.060558 0.824138 0.205374
H4_18 H 0.027000 0.848310 0.129624
C7_12 C 0.0647(4) 0.8860(3) 0.3424(7)
H5_12 H 0.035018 0.892676 0.352659
H6_12 H 0.063493 0.864197 0.433490
C11_18 C 0.1431(5) 0.9401(4) 0.1857(6)
H8_18 H 0.175862 0.939442 0.205374
H9_18 H 0.151690 0.973000 0.129624
C12_12 C 0.1140(5) 0.9353(4) 0.3424(7)
H10_12 H 0.107324 0.964982 0.352659
H11_12 H 0.135803 0.936507 0.433490
C7_13 C 0.8454(3) 0.4473(3) 0.9909(7)
H5_13 H 0.809009 0.440657 0.980674
H6_13 H 0.865963 0.469136 0.899843
C12_13 C 0.8454(3) 0.3980(4) 0.9909(7)
H10_13 H 0.809009 0.368351 0.980674
H11_13 H 0.865963 0.396826 0.899843
C7_14 C 0.5527(3) 0.3980(4) 0.9909(7)
H5_14 H 0.559343 0.368351 0.980674
H6_14 H 0.530864 0.396826 0.899843
C12_14 C 0.6020(4) 0.4473(5) 0.9909(7)
H10_14 H 0.631649 0.440657 0.980674
H11_14 H 0.603174 0.469136 0.899843
C7_15 C 0.6020(4) 0.1546(3) 0.9909(7)
H5_15 H 0.631649 0.190991 0.980674
H6_15 H 0.603174 0.134037 0.899843
C12_15 C 0.5527(5) 0.1546(3) 0.9909(7)
H10_15 H 0.559343 0.190991 0.980674
H11_15 H 0.530864 0.134037 0.899843
C7_16 C 0.4473(3) 0.8454(3) 0.0091(7)
H5_16 H 0.440657 0.809009 0.019326
H6_16 H 0.469136 0.865963 0.100157
C12_16 C 0.3980(4) 0.8454(3) 0.0091(7)
H10_16 H 0.368351 0.809009 0.019326
H11_16 H 0.396826 0.865963 0.100157
C7_17 C 0.1546(3) 0.6020(4) 0.0091(7)
H5_17 H 0.190991 0.631649 0.019326
H6_17 H 0.134037 0.603174 0.100157
C12_17 C 0.1546(3) 0.5527(5) 0.0091(7)
H10_17 H 0.190991 0.559343 0.019326
H11_17 H 0.134037 0.530864 0.100157
C7_18 C 0.3980(4) 0.5527(3) 0.0091(7)
H5_18 H 0.368351 0.559343 0.019326
H6_18 H 0.396826 0.530864 0.100157
C12_18 C 0.4473(5) 0.6020(4) 0.0091(7)
H10_18 H 0.440657 0.631649 0.019326
H11_18 H 0.469136 0.603174 0.100157
loop_
_geom_bond_atom_site_label_1
_geom_bond_atom_site_label_2
_geom_bond_site_symmetry_1
_geom_bond_site_symmetry_2
Zn1 O1 1_555 1_555
O1 C4 1_555 1_555
O2 C4 1_555 1_555
C1 C2 1_555 1_555
C2 H1 1_555 1_555
C3 C1 1_555 1_555
H2 C3 1_555 1_555
C4 C1 1_555 1_555
C5 C3 1_555 1_555
O3 C10 1_555 1_555
O4 C10 1_555 1_555
C8 C2 1_555 1_555
C9 C5 1_555 1_555
H7 C9 1_555 1_555
C10 C8 1_555 1_555
Zn3 O4 1_555 1_555
Zn4 O3 1_555 1_555
O5 Zn1 1_555 1_555
O7 Zn1 1_555 1_555
C8 C9 1_555 1_555
Zn1_2 O1_2 1_555 1_555
O1_2 C4_2 1_555 1_555
O2_2 C4_2 1_555 1_555
C1_2 C2_2 1_555 1_555
C2_2 H1_2 1_555 1_555
C3_2 C1_2 1_555 1_555
H2_2 C3_2 1_555 1_555
C4_2 C1_2 1_555 1_555
C5_2 C3_2 1_555 1_555
O3_2 C10_2 1_555 1_555
O4_2 C10_2 1_555 1_555
C8_2 C2_2 1_555 1_555
C9_2 C5_2 1_555 1_555
H7_2 C9_2 1_555 1_555
C10_2 C8_2 1_555 1_555
Zn4_2 O3_2 1_555 1_555
O5_2 Zn1_2 1_555 1_555
O7_2 Zn1_2 1_555 1_555
C8_2 C9_2 1_555 1_555
Zn1_3 O1_3 1_555 1_555
O1_3 C4_3 1_555 1_555
O2_3 C4_3 1_555 1_555
C1_3 C2_3 1_555 1_555
C2_3 H1_3 1_555 1_555
C3_3 C1_3 1_555 1_555
H2_3 C3_3 1_555 1_555
C4_3 C1_3 1_555 1_555
C5_3 C3_3 1_555 1_555
O3_3 C10_3 1_555 1_555
O4_3 C10_3 1_555 1_555
C8_3 C2_3 1_555 1_555
C9_3 C5_3 1_555 1_555
H7_3 C9_3 1_555 1_555
C10_3 C8_3 1_555 1_555
Zn2_3 O2_3 1_555 1_555
Zn4_3 O3_3 1_555 1_555
O5_3 Zn1_3 1_555 1_555
O6_3 Zn1_3 1_555 1_555
O7_3 Zn1_3 1_555 1_555
C8_3 C9_3 1_555 1_555
Zn2_2 O1_4 1_555 1_555
O1_4 C4_4 1_555 1_555
O6_2 C4_4 1_555 1_555
C1_4 C2_4 1_555 1_555
C2_4 H1_4 1_555 1_555
C3_4 C1_4 1_555 1_555
H2_4 C3_4 1_555 1_555
C4_4 C1_4 1_555 1_555
C5_4 C3_4 1_555 1_555
O3_4 C10_4 1_555 1_555
O4_4 C10_4 1_555 1_555
C8_4 C2_4 1_555 1_555
C9_4 C5_4 1_555 1_555
H7_4 C9_4 1_555 1_555
C10_4 C8_4 1_555 1_555
Zn4 O4_4 1_555 1_555
Zn3 O3_4 1_555 1_555
O5_4 Zn2_2 1_555 1_555
O7_4 Zn2_2 1_555 1_555
C8_4 C9_4 1_555 1_555
Zn2_3 O1_5 1_555 1_555
O1_5 C4_5 1_555 1_555
O6_3 C4_5 1_555 1_555
C1_5 C2_5 1_555 1_555
C2_5 H1_5 1_555 1_555
C3_5 C1_5 1_555 1_555
H2_5 C3_5 1_555 1_555
C4_5 C1_5 1_555 1_555
C5_5 C3_5 1_555 1_555
O3_5 C10_5 1_555 1_555
O4_5 C10_5 1_555 1_555
C8_5 C2_5 1_555 1_555
C9_5 C5_5 1_555 1_555
H7_5 C9_5 1_555 1_555
C10_5 C8_5 1_555 1_555
Zn3_2 O3_5 1_555 1_555
O5_5 Zn2_3 1_555 1_555
O7_5 Zn2_3 1_555 1_555
C8_5 C9_5 1_555 1_555
Zn2 O1_6 1_555 1_555
O1_6 C4_6 1_555 1_555
O6 C4_6 1_555 1_555
C1_6 C2_6 1_555 1_555
C2_6 H1_6 1_555 1_555
C3_6 C1_6 1_555 1_555
H2_6 C3_6 1_555 1_555
C4_6 C1_6 1_555 1_555
C5_6 C3_6 1_555 1_555
O3_6 C10_6 1_555 1_555
O4_6 C10_6 1_555 1_555
C8_6 C2_6 1_555 1_555
C9_6 C5_6 1_555 1_555
H7_6 C9_6 1_555 1_555
C10_6 C8_6 1_555 1_555
Zn3_3 O3_6 1_555 1_555
O5_6 Zn2 1_555 1_555
O7_6 Zn2 1_555 1_555
C8_6 C9_6 1_555 1_555
O5_7 Zn1_4 1_555 1_555
O7_7 Zn1_5 1_555 1_555
O6_4 Zn1_6 1_555 1_555
Zn1_7 O1_7 1_555 1_555
O1_7 C4_7 1_555 1_555
O7_2 C4_7 1_555 1_555
N1 C5_7 1_555 1_555
C1_7 C2_7 1_555 1_555
C2_7 H1_7 1_555 1_555
C3_7 C1_7 1_555 1_555
H2_7 C3_7 1_555 1_555
C4_7 C1_7 1_555 1_555
C5_7 C3_7 1_555 1_555
C6 N1 1_555 1_555
H3 C6 1_555 1_555
H4 C6 1_555 1_555
O3_7 C10_7 1_555 1_555
O4_7 C10_7 1_555 1_555
C8_7 C2_7 1_555 1_555
C9_7 C5_7 1_555 1_555
H7_7 C9_7 1_555 1_555
C10_7 C8_7 1_555 1_555
C11 N1 1_555 1_555
H8 C11 1_555 1_555
H9 C11 1_555 1_555
Zn4_3 O4_7 1_555 1_555
Zn4_7 O3_7 1_555 1_555
C8_7 C9_7 1_555 1_555
O5_8 Zn1_8 1_555 1_555
O6_5 Zn1_8 1_555 1_555
Zn1_9 O1_8 1_555 1_555
O1_8 C4_8 1_555 1_555
O7_3 C4_8 1_555 1_555
N1_2 C5_8 1_555 1_555
C1_8 C2_8 1_555 1_555
C2_8 H1_8 1_555 1_555
C3_8 C1_8 1_555 1_555
H2_8 C3_8 1_555 1_555
C4_8 C1_8 1_555 1_555
C5_8 C3_8 1_555 1_555
C6_2 N1_2 1_555 1_555
H3_2 C6_2 1_555 1_555
H4_2 C6_2 1_555 1_555
O3_8 C10_8 1_555 1_555
O4_8 C10_8 1_555 1_555
C8_8 C2_8 1_555 1_555
C9_8 C5_8 1_555 1_555
H7_8 C9_8 1_555 1_555
C10_8 C8_8 1_555 1_555
C11_2 N1_2 1_555 1_555
H8_2 C11_2 1_555 1_555
H9_2 C11_2 1_555 1_555
Zn4 O4_8 1_555 1_555
Zn4_9 O3_8 1_555 1_555
O7_8 Zn1_9 1_555 1_555
C8_8 C9_8 1_555 1_555
O6_6 Zn1_10 1_555 1_555
Zn1_11 O1_9 1_555 1_555
O1_9 C4_9 1_555 1_555
O7 C4_9 1_555 1_555
N1_3 C5_9 1_555 1_555
C1_9 C2_9 1_555 1_555
C2_9 H1_9 1_555 1_555
C3_9 C1_9 1_555 1_555
H2_9 C3_9 1_555 1_555
C4_9 C1_9 1_555 1_555
C5_9 C3_9 1_555 1_555
C6_3 N1_3 1_555 1_555
H3_3 C6_3 1_555 1_555
H4_3 C6_3 1_555 1_555
O3_9 C10_9 1_555 1_555
O4_9 C10_9 1_555 1_555
C8_9 C2_9 1_555 1_555
C9_9 C5_9 1_555 1_555
H7_9 C9_9 1_555 1_555
C10_9 C8_9 1_555 1_555
C11_3 N1_3 1_555 1_555
H8_3 C11_3 1_555 1_555
H9_3 C11_3 1_555 1_555
Zn4_2 O4_9 1_555 1_555
Zn4_11 O3_9 1_555 1_555
C8_9 C9_9 1_555 1_555
O5_9 Zn1_12 1_555 1_555
O7_9 Zn1_13 1_555 1_555
N1_4 C5_10 1_555 1_555
C3_10 C1_10 1_555 1_555
H2_10 C3_10 1_555 1_555
C5_10 C3_10 1_555 1_555
C6_4 N1_4 1_555 1_555
H3_4 C6_4 1_555 1_555
H4_4 C6_4 1_555 1_555
C7 C6_4 1_555 1_555
H5 C7 1_555 1_555
H6 C7 1_555 1_555
C9_10 C5_10 1_555 1_555
H7_10 C9_10 1_555 1_555
C11_4 N1_4 1_555 1_555
H8_4 C11_4 1_555 1_555
H9_4 C11_4 1_555 1_555
C12 C7 1_555 1_555
H10 C12 1_555 1_555
H11 C12 1_555 1_555
Zn4_6 O4_10 1_555 1_555
C8_10 C9_10 1_555 1_555
C11_4 C12 1_555 1_555
O5_3 C4_10 1_555 1_555
C2_10 H1_10 1_555 1_555
O3_10 C10_10 1_555 1_555
Zn4_3 O3_10 1_555 1_555
N1_5 C5_11 1_555 1_555
C3_11 C1_11 1_555 1_555
H2_11 C3_11 1_555 1_555
C5_11 C3_11 1_555 1_555
C6_5 N1_5 1_555 1_555
H3_5 C6_5 1_555 1_555
H4_5 C6_5 1_555 1_555
C7_2 C6_5 1_555 1_555
H5_2 C7_2 1_555 1_555
H6_2 C7_2 1_555 1_555
C9_11 C5_11 1_555 1_555
H7_11 C9_11 1_555 1_555
C11_5 N1_5 1_555 1_555
H8_5 C11_5 1_555 1_555
H9_5 C11_5 1_555 1_555
C12_2 C7_2 1_555 1_555
H10_2 C12_2 1_555 1_555
H11_2 C12_2 1_555 1_555
Zn4_8 O4_11 1_555 1_555
C8_11 C9_11 1_555 1_555
C11_5 C12_2 1_555 1_555
O5 C4_11 1_555 1_555
C2_11 H1_11 1_555 1_555
O3_11 C10_11 1_555 1_555
Zn4 O3_11 1_555 1_555
N1_6 C5_12 1_555 1_555
C3_12 C1_12 1_555 1_555
H2_12 C3_12 1_555 1_555
C5_12 C3_12 1_555 1_555
C6_6 N1_6 1_555 1_555
H3_6 C6_6 1_555 1_555
H4_6 C6_6 1_555 1_555
C7_3 C6_6 1_555 1_555
H5_3 C7_3 1_555 1_555
H6_3 C7_3 1_555 1_555
C9_12 C5_12 1_555 1_555
H7_12 C9_12 1_555 1_555
C11_6 N1_6 1_555 1_555
H8_6 C11_6 1_555 1_555
H9_6 C11_6 1_555 1_555
C12_3 C7_3 1_555 1_555
H10_3 C12_3 1_555 1_555
H11_3 C12_3 1_555 1_555
Zn4_10 O4_12 1_555 1_555
C8_12 C9_12 1_555 1_555
C11_6 C12_3 1_555 1_555
O5_2 C4_12 1_555 1_555
C2_12 H1_12 1_555 1_555
O3_12 C10_12 1_555 1_555
Zn4_2 O3_12 1_555 1_555
O5_5 C4_13 1_555 1_555
C2_13 H1_13 1_555 1_555
O3_13 C10_13 1_555 1_555
Zn3_2 O3_13 1_555 1_555
N1_7 C5_13 1_555 1_555
C3_13 C1_13 1_555 1_555
H2_13 C3_13 1_555 1_555
C5_13 C3_13 1_555 1_555
C6_7 N1_7 1_555 1_555
H3_7 C6_7 1_555 1_555
H4_7 C6_7 1_555 1_555
C7_4 C6_7 1_555 1_555
H5_4 C7_4 1_555 1_555
H6_4 C7_4 1_555 1_555
C9_13 C5_13 1_555 1_555
H7_13 C9_13 1_555 1_555
C11_7 N1_7 1_555 1_555
H8_7 C11_7 1_555 1_555
H9_7 C11_7 1_555 1_555
C12_4 C7_4 1_555 1_555
H10_4 C12_4 1_555 1_555
H11_4 C12_4 1_555 1_555
Zn4_13 O4_13 1_555 1_555
C8_13 C9_13 1_555 1_555
C11_7 C12_4 1_555 1_555
O5_6 C4_14 1_555 1_555
C2_14 H1_14 1_555 1_555
O3_14 C10_14 1_555 1_555
Zn3_3 O3_14 1_555 1_555
N1_8 C5_14 1_555 1_555
C3_14 C1_14 1_555 1_555
H2_14 C3_14 1_555 1_555
C5_14 C3_14 1_555 1_555
C6_8 N1_8 1_555 1_555
H3_8 C6_8 1_555 1_555
H4_8 C6_8 1_555 1_555
C7_5 C6_8 1_555 1_555
H5_5 C7_5 1_555 1_555
H6_5 C7_5 1_555 1_555
C9_14 C5_14 1_555 1_555
H7_14 C9_14 1_555 1_555
C11_8 N1_8 1_555 1_555
H8_8 C11_8 1_555 1_555
H9_8 C11_8 1_555 1_555
C12_5 C7_5 1_555 1_555
H10_5 C12_5 1_555 1_555
H11_5 C12_5 1_555 1_555
Zn4_5 O4_14 1_555 1_555
C8_14 C9_14 1_555 1_555
C11_8 C12_5 1_555 1_555
O5_4 C4_15 1_555 1_555
C2_15 H1_15 1_555 1_555
O3_15 C10_15 1_555 1_555
Zn3 O3_15 1_555 1_555
N1_9 C5_15 1_555 1_555
C3_15 C1_15 1_555 1_555
H2_15 C3_15 1_555 1_555
C5_15 C3_15 1_555 1_555
C6_9 N1_9 1_555 1_555
H3_9 C6_9 1_555 1_555
H4_9 C6_9 1_555 1_555
C7_6 C6_9 1_555 1_555
H5_6 C7_6 1_555 1_555
H6_6 C7_6 1_555 1_555
C9_15 C5_15 1_555 1_555
H7_15 C9_15 1_555 1_555
C11_9 N1_9 1_555 1_555
H8_9 C11_9 1_555 1_555
H9_9 C11_9 1_555 1_555
C12_6 C7_6 1_555 1_555
H10_6 C12_6 1_555 1_555
H11_6 C12_6 1_555 1_555
Zn4_9 O4_15 1_555 1_555
C8_15 C9_15 1_555 1_555
C11_9 C12_6 1_555 1_555
O5_9 C4_16 1_555 1_555
O7_6 C4_16 1_555 1_555
N1_10 C5_16 1_555 1_555
C1_16 C2_16 1_555 1_555
C2_16 H1_16 1_555 1_555
C3_16 C1_16 1_555 1_555
H2_16 C3_16 1_555 1_555
C4_16 C1_16 1_555 1_555
C5_16 C3_16 1_555 1_555
C6_10 N1_10 1_555 1_555
H3_10 C6_10 1_555 1_555
H4_10 C6_10 1_555 1_555
O3_16 C10_16 1_555 1_555
O4_16 C10_16 1_555 1_555
C8_16 C2_16 1_555 1_555
C9_16 C5_16 1_555 1_555
H7_16 C9_16 1_555 1_555
C10_16 C8_16 1_555 1_555
C11_10 N1_10 1_555 1_555
H8_10 C11_10 1_555 1_555
H9_10 C11_10 1_555 1_555
Zn3_2 O4_16 1_555 1_555
Zn4_12 O3_16 1_555 1_555
C8_16 C9_16 1_555 1_555
O5_7 C4_17 1_555 1_555
O7_4 C4_17 1_555 1_555
N1_11 C5_17 1_555 1_555
C1_17 C2_17 1_555 1_555
C2_17 H1_17 1_555 1_555
C3_17 C1_17 1_555 1_555
H2_17 C3_17 1_555 1_555
C4_17 C1_17 1_555 1_555
C5_17 C3_17 1_555 1_555
C6_11 N1_11 1_555 1_555
H3_11 C6_11 1_555 1_555
H4_11 C6_11 1_555 1_555
O3_17 C10_17 1_555 1_555
O4_17 C10_17 1_555 1_555
C8_17 C2_17 1_555 1_555
C9_17 C5_17 1_555 1_555
H7_17 C9_17 1_555 1_555
C10_17 C8_17 1_555 1_555
C11_11 N1_11 1_555 1_555
H8_11 C11_11 1_555 1_555
H9_11 C11_11 1_555 1_555
Zn3_3 O4_17 1_555 1_555
Zn4_4 O3_17 1_555 1_555
C8_17 C9_17 1_555 1_555
O5_8 C4_18 1_555 1_555
O7_5 C4_18 1_555 1_555
N1_12 C5_18 1_555 1_555
C1_18 C2_18 1_555 1_555
C2_18 H1_18 1_555 1_555
C3_18 C1_18 1_555 1_555
H2_18 C3_18 1_555 1_555
C4_18 C1_18 1_555 1_555
C5_18 C3_18 1_555 1_555
C6_12 N1_12 1_555 1_555
H3_12 C6_12 1_555 1_555
H4_12 C6_12 1_555 1_555
O3_18 C10_18 1_555 1_555
O4_18 C10_18 1_555 1_555
C8_18 C2_18 1_555 1_555
C9_18 C5_18 1_555 1_555
H7_18 C9_18 1_555 1_555
C10_18 C8_18 1_555 1_555
C11_12 N1_12 1_555 1_555
H8_12 C11_12 1_555 1_555
H9_12 C11_12 1_555 1_555
Zn3 O4_18 1_555 1_555
Zn4_8 O3_18 1_555 1_555
C8_18 C9_18 1_555 1_555
C6_13 N1_13 1_555 1_555
H3_13 C6_13 1_555 1_555
H4_13 C6_13 1_555 1_555
C7_7 C6_13 1_555 1_555
H5_7 C7_7 1_555 1_555
H6_7 C7_7 1_555 1_555
C11_13 N1_13 1_555 1_555
H8_13 C11_13 1_555 1_555
H9_13 C11_13 1_555 1_555
C12_7 C7_7 1_555 1_555
H10_7 C12_7 1_555 1_555
H11_7 C12_7 1_555 1_555
C11_13 C12_7 1_555 1_555
C6_14 N1_14 1_555 1_555
H3_14 C6_14 1_555 1_555
H4_14 C6_14 1_555 1_555
C7_8 C6_14 1_555 1_555
H5_8 C7_8 1_555 1_555
H6_8 C7_8 1_555 1_555
C11_14 N1_14 1_555 1_555
H8_14 C11_14 1_555 1_555
H9_14 C11_14 1_555 1_555
C12_8 C7_8 1_555 1_555
H10_8 C12_8 1_555 1_555
H11_8 C12_8 1_555 1_555
C11_14 C12_8 1_555 1_555
C6_15 N1_15 1_555 1_555
H3_15 C6_15 1_555 1_555
H4_15 C6_15 1_555 1_555
C7_9 C6_15 1_555 1_555
H5_9 C7_9 1_555 1_555
H6_9 C7_9 1_555 1_555
C11_15 N1_15 1_555 1_555
H8_15 C11_15 1_555 1_555
H9_15 C11_15 1_555 1_555
C12_9 C7_9 1_555 1_555
H10_9 C12_9 1_555 1_555
H11_9 C12_9 1_555 1_555
C11_15 C12_9 1_555 1_555
C6_16 N1_16 1_555 1_555
H3_16 C6_16 1_555 1_555
H4_16 C6_16 1_555 1_555
C7_10 C6_16 1_555 1_555
H5_10 C7_10 1_555 1_555
H6_10 C7_10 1_555 1_555
C11_16 N1_16 1_555 1_555
H8_16 C11_16 1_555 1_555
H9_16 C11_16 1_555 1_555
C12_10 C7_10 1_555 1_555
H10_10 C12_10 1_555 1_555
H11_10 C12_10 1_555 1_555
C11_16 C12_10 1_555 1_555
C6_17 N1_17 1_555 1_555
H3_17 C6_17 1_555 1_555
H4_17 C6_17 1_555 1_555
C7_11 C6_17 1_555 1_555
H5_11 C7_11 1_555 1_555
H6_11 C7_11 1_555 1_555
C11_17 N1_17 1_555 1_555
H8_17 C11_17 1_555 1_555
H9_17 C11_17 1_555 1_555
C12_11 C7_11 1_555 1_555
H10_11 C12_11 1_555 1_555
H11_11 C12_11 1_555 1_555
C11_17 C12_11 1_555 1_555
C6_18 N1_18 1_555 1_555
H3_18 C6_18 1_555 1_555
H4_18 C6_18 1_555 1_555
C7_12 C6_18 1_555 1_555
H5_12 C7_12 1_555 1_555
H6_12 C7_12 1_555 1_555
C11_18 N1_18 1_555 1_555
H8_18 C11_18 1_555 1_555
H9_18 C11_18 1_555 1_555
C12_12 C7_12 1_555 1_555
H10_12 C12_12 1_555 1_555
H11_12 C12_12 1_555 1_555
C11_18 C12_12 1_555 1_555
H5_13 C7_13 1_555 1_555
H6_13 C7_13 1_555 1_555
C12_13 C7_13 1_555 1_555
H10_13 C12_13 1_555 1_555
H11_13 C12_13 1_555 1_555
H5_14 C7_14 1_555 1_555
H6_14 C7_14 1_555 1_555
C12_14 C7_14 1_555 1_555
H10_14 C12_14 1_555 1_555
H11_14 C12_14 1_555 1_555
H5_15 C7_15 1_555 1_555
H6_15 C7_15 1_555 1_555
C12_15 C7_15 1_555 1_555
H10_15 C12_15 1_555 1_555
H11_15 C12_15 1_555 1_555
H5_16 C7_16 1_555 1_555
H6_16 C7_16 1_555 1_555
C12_16 C7_16 1_555 1_555
H10_16 C12_16 1_555 1_555
H11_16 C12_16 1_555 1_555
H5_17 C7_17 1_555 1_555
H6_17 C7_17 1_555 1_555
C12_17 C7_17 1_555 1_555
H10_17 C12_17 1_555 1_555
H11_17 C12_17 1_555 1_555
H5_18 C7_18 1_555 1_555
H6_18 C7_18 1_555 1_555
C12_18 C7_18 1_555 1_555
H10_18 C12_18 1_555 1_555
H11_18 C12_18 1_555 1_555

#END
