
###############################################################################
#
# This file contains modified crystal structure data generated from the
# MOF subset of the Cambridge Structural Database (CSD) v543 
# hosted by the Cambridge Crystallographic Data Centre (CCDC).
#
# This work is licensed under the Creative Commons
# Attribution-NonCommercial-ShareAlike 4.0 International License.
# To view a copy of this license, visit
# http://creativecommons.org/licenses/by-nc-sa/4.0/
# or send a letter to
# Creative Commons, PO Box 1866, Mountain View, CA 94042, USA.
#
# CIF created using the CSD Python API on 29 September 2022
# The structure has been converted into the P1 space group
# The structure has a 3D framework
# The original CSD entry POGMUW is in the rhombohedral crystal system
# The framework has been calculated to contain at least 10.0% void space
# The void calculation uses a probe of radius 1.32A, grid spacing 0.4
#
###############################################################################

data_POGMUW
_chemical_formula_moiety         '(C360 H324 O194 Zn36)n'
_symmetry_cell_setting           triclinic
_symmetry_space_group_name_H-M   'P 1'
_symmetry_Int_Tables_number      1
_space_group_name_Hall           'P 1'
loop_
_symmetry_equiv_pos_site_id
_symmetry_equiv_pos_as_xyz
1 x,y,z
_cell_length_a                   27.684(5)
_cell_length_b                   27.684(5)
_cell_length_c                   18.006(5)
_cell_angle_alpha                90
_cell_angle_beta                 90
_cell_angle_gamma                120
_cell_volume                     11951
loop_
_atom_site_label
_atom_site_type_symbol
_atom_site_fract_x
_atom_site_fract_y
_atom_site_fract_z
Zn1 Zn 0.35748(2) 0.27915(2) 0.41388(2)
Zn2 Zn 0.34253(2) 0.34310(2) 0.23173(2)
C1 C 0.39017(13) 0.26773(13) 0.2742(2)
C2 C 0.40194(13) 0.23916(13) 0.21229(18)
C3 C 0.41534(13) 0.26332(14) 0.1419(2)
H1 H 0.419097 0.298278 0.134458
C4 C 0.42310(14) 0.23585(14) 0.08317(19)
C5 C 0.41554(14) 0.18285(14) 0.09318(19)
H2 H 0.418358 0.163172 0.053155
C6 C 0.40364(13) 0.15941(13) 0.16425(18)
C7 C 0.39758(14) 0.18768(13) 0.22353(19)
H3 H 0.390578 0.172134 0.270831
C8 C 0.39468(13) 0.10223(14) 0.17443(19)
C11 C 0.26496(14) 0.29919(14) 0.4184(2)
C12 C 0.20729(14) 0.28301(14) 0.39422(19)
C13 C 0.17664(14) 0.30158(14) 0.43325(19)
H9 H 0.191651 0.323918 0.475056
C14 C 0.12370(15) 0.28665(14) 0.40958(19)
C15 C 0.10079(16) 0.25260(17) 0.3482(2)
H10 H 0.064522 0.241607 0.333519
C16 C 0.13206(17) 0.23498(19) 0.3086(2)
C17 C 0.18509(15) 0.24986(15) 0.3325(2)
H11 H 0.205900 0.237395 0.306759
C18 C 0.09016(14) 0.30707(14) 0.4500(2)
C19 C 0.0687(3) 0.2035(4) 0.2032(5)
H12 H 0.069022 0.238218 0.211855
H13 H 0.033083 0.173240 0.220228
C20 C 0.0744(5) 0.1968(8) 0.1200(7)
H14 H 0.044272 0.197034 0.094031
H15 H 0.109274 0.227029 0.102660
H16 H 0.073344 0.162066 0.111030
O1 O 0.37694(10) 0.24294(10) 0.33571(13)
O2 O 0.39391(10) 0.31387(10) 0.26240(14)
O3 O 0.39915(11) 0.08732(10) 0.23974(13)
O4 O 0.38348(10) 0.07164(9) 0.11888(13)
O5 O 0.28926(10) 0.27763(12) 0.38412(15)
O6 O 0.28585(10) 0.33281(10) 0.47162(14)
O7 O 0.11189(11) 0.33609(12) 0.50742(15)
O8 O 0.04331(10) 0.29500(11) 0.42342(15)
O9 O 0.43706(11) 0.26387(11) 0.01686(13)
O10 O 0.11313(15) 0.20343(18) 0.2460(2)
O11 O 0.39144(14) 0.40320(12) 0.30722(17)
H17 H 0.4070(19) 0.3932(19) 0.337(2)
H18 H 0.383(2) 0.4268(19) 0.313(3)
Zn3 Zn 0.07833(3) 0.35748(2) 0.58612(2)
Zn4 Zn 0.41166(3) 0.02415(2) 0.25279(2)
Zn5 Zn 0.32357(2) 0.33276(3) 0.56506(2)
O12 O 0.42065(10) 0.35484(15) 0.42693(13)
O13 O 0.28319(10) 0.26169(9) 0.21445(13)
O14 O 0.38029(14) 0.38082(10) 0.13829(14)
O15 O 0.33609(12) 0.22420(16) 0.49258(15)
O16 O 0.29002(10) 0.37167(11) 0.24325(15)
Zn6 Zn 0.32414(2) 0.99023(2) 0.10160(2)
Zn7 Zn 0.99080(2) 0.32357(2) 0.43494(2)
Zn6_2 Zn 0.00977(2) 0.33390(3) 0.10160(2)
Zn1_2 Zn 0.72085(2) 0.07833(3) 0.41388(2)
C1_2 C 0.73227(13) 0.12244(18) 0.2742(2)
C2_2 C 0.76084(13) 0.16278(18) 0.21229(18)
C3_2 C 0.73668(14) 0.15202(19) 0.1419(2)
H1_2 H 0.701722 0.120819 0.134458
C4_2 C 0.76415(14) 0.18725(20) 0.08317(19)
C5_2 C 0.81715(14) 0.23269(20) 0.09318(19)
H2_2 H 0.836828 0.255186 0.053155
C6_2 C 0.84059(13) 0.24423(18) 0.16425(18)
C7_2 C 0.81232(13) 0.20990(19) 0.22353(19)
H3_2 H 0.827866 0.218444 0.270831
C8_2 C 0.89777(14) 0.29245(19) 0.17443(19)
O1_2 O 0.75706(10) 0.13400(14) 0.33571(13)
O2_2 O 0.68613(10) 0.08004(14) 0.26240(14)
O3_2 O 0.91268(10) 0.31183(15) 0.23974(13)
O4_2 O 0.92836(9) 0.31184(13) 0.11888(13)
O5_2 O 0.72237(12) 0.01163(16) 0.38412(15)
O9_2 O 0.73613(11) 0.17319(16) 0.01686(13)
H17_2 H 0.6068(19) 0.0138(27) 0.337(2)
Zn4_2 Zn 0.97585(2) 0.38752(4) 0.25279(2)
O12_2 O 0.64516(15) 0.06582(18) 0.42693(13)
O13_2 O 0.73831(9) 0.02149(13) 0.21445(13)
O15_2 O 0.77580(16) 0.11189(20) 0.49258(15)
Zn2_2 Zn 0.65690(2) 0.99943(3) 0.23173(2)
C11_2 C 0.70081(14) 0.96577(20) 0.4184(2)
C12_2 C 0.71699(14) 0.92428(20) 0.39422(19)
C13_2 C 0.69842(14) 0.87506(20) 0.43325(19)
H9_2 H 0.676082 0.867733 0.475056
C14_2 C 0.71335(14) 0.83705(21) 0.40958(19)
C15_2 C 0.74740(17) 0.84819(23) 0.3482(2)
H10_2 H 0.758393 0.822915 0.333519
C16_2 C 0.76502(19) 0.89708(25) 0.3086(2)
C17_2 C 0.75014(15) 0.93523(21) 0.3325(2)
H11_2 H 0.762605 0.968505 0.306759
C18_2 C 0.69293(14) 0.78309(20) 0.4500(2)
C19_2 C 0.7965(4) 0.8652(5) 0.2032(5)
H12_2 H 0.761782 0.830804 0.211855
H13_2 H 0.826760 0.859843 0.220228
C20_2 C 0.8032(8) 0.8776(9) 0.1200(7)
H14_2 H 0.802966 0.847238 0.094031
H15_2 H 0.772971 0.882245 0.102660
H16_2 H 0.837934 0.911278 0.111030
O6_2 O 0.66719(10) 0.95304(14) 0.47162(14)
O7_2 O 0.66391(12) 0.77580(16) 0.50742(15)
O8_2 O 0.70500(11) 0.74831(15) 0.42342(15)
O10_2 O 0.79657(18) 0.90970(23) 0.2460(2)
O11_2 O 0.59680(12) 0.98824(18) 0.30722(17)
H18_2 H 0.5732(19) 0.9562(28) 0.313(3)
Zn3_2 Zn 0.64252(2) 0.72085(4) 0.58612(2)
Zn5_2 Zn 0.66724(3) 0.99080(4) 0.56506(2)
Zn7_2 Zn 0.67643(2) 0.66724(3) 0.43494(2)
O14_2 O 0.61918(10) 0.99948(17) 0.13829(14)
O16_2 O 0.62833(11) 0.91836(15) 0.24325(15)
Zn7_3 Zn 0.33276(3) 0.00920(2) 0.43494(2)
Zn2_3 Zn 0.00057(3) 0.65747(2) 0.23173(2)
C11_3 C 0.03423(20) 0.73504(14) 0.4184(2)
C12_3 C 0.07572(20) 0.79271(14) 0.39422(19)
C13_3 C 0.12494(20) 0.82336(14) 0.43325(19)
H9_3 H 0.132267 0.808349 0.475056
C14_3 C 0.16295(21) 0.87630(15) 0.40958(19)
C15_3 C 0.15181(23) 0.89921(16) 0.3482(2)
H10_3 H 0.177085 0.935478 0.333519
C16_3 C 0.10292(25) 0.86794(17) 0.3086(2)
C17_3 C 0.06477(21) 0.81491(15) 0.3325(2)
H11_3 H 0.031495 0.794100 0.306759
C18_3 C 0.21691(20) 0.90984(14) 0.4500(2)
C19_3 C 0.1348(5) 0.9313(3) 0.2032(5)
H12_3 H 0.169196 0.930978 0.211855
H13_3 H 0.140157 0.966917 0.220228
C20_3 C 0.1224(9) 0.9256(5) 0.1200(7)
H14_3 H 0.152762 0.955728 0.094031
H15_3 H 0.117755 0.890726 0.102660
H16_3 H 0.088722 0.926656 0.111030
O6_3 O 0.04696(14) 0.71415(10) 0.47162(14)
O7_3 O 0.22420(16) 0.88811(11) 0.50742(15)
O8_3 O 0.25169(15) 0.95669(10) 0.42342(15)
O10_3 O 0.09030(23) 0.88687(15) 0.2460(2)
O11_3 O 0.01176(18) 0.60856(14) 0.30722(17)
H18_3 H 0.0438(28) 0.617(2) 0.313(3)
Zn3_3 Zn 0.27915(4) 0.92167(3) 0.58612(2)
Zn5_3 Zn 0.00920(4) 0.67643(2) 0.56506(2)
O14_3 O 0.00052(17) 0.61971(14) 0.13829(14)
O16_3 O 0.08164(15) 0.70998(10) 0.24325(15)
Zn1_3 Zn 0.92167(3) 0.64252(2) 0.41388(2)
C1_3 C 0.87756(18) 0.60983(13) 0.2742(2)
C2_3 C 0.83722(18) 0.59806(13) 0.21229(18)
C3_3 C 0.84798(19) 0.58466(13) 0.1419(2)
H1_3 H 0.879181 0.580903 0.134458
C4_3 C 0.81275(20) 0.57690(14) 0.08317(19)
C5_3 C 0.76731(20) 0.58446(14) 0.09318(19)
H2_3 H 0.744814 0.581642 0.053155
C6_3 C 0.75577(18) 0.59636(13) 0.16425(18)
C7_3 C 0.79010(19) 0.60242(14) 0.22353(19)
H3_3 H 0.781556 0.609422 0.270831
C8_3 C 0.70755(19) 0.60532(13) 0.17443(19)
O1_3 O 0.86600(14) 0.62306(10) 0.33571(13)
O2_3 O 0.91996(14) 0.60609(10) 0.26240(14)
O3_3 O 0.68817(15) 0.60085(11) 0.23974(13)
O4_3 O 0.68816(13) 0.61652(10) 0.11888(13)
O5_3 O 0.98837(16) 0.71074(10) 0.38412(15)
O9_3 O 0.82681(16) 0.56294(11) 0.01686(13)
H17_3 H 0.9862(27) 0.5930(19) 0.337(2)
Zn4_3 Zn 0.61248(4) 0.58834(3) 0.25279(2)
Zn6_3 Zn 0.66610(3) 0.67586(2) 0.10160(2)
O12_3 O 0.93418(18) 0.57935(10) 0.42693(13)
O13_3 O 0.97851(13) 0.71681(10) 0.21445(13)
O15_3 O 0.88811(20) 0.66391(12) 0.49258(15)
Zn1_4 Zn 0.02415(2) 0.61248(2) 0.74721(2)
C1_4 C 0.05684(13) 0.60106(13) 0.6075(2)
C2_4 C 0.06861(13) 0.57249(13) 0.54562(18)
C3_4 C 0.08201(13) 0.59665(14) 0.4752(2)
H1_4 H 0.085764 0.631611 0.467791
C4_4 C 0.08977(14) 0.56918(14) 0.41650(19)
C5_4 C 0.08221(14) 0.51618(14) 0.42651(19)
H2_4 H 0.085025 0.496505 0.386488
C6_4 C 0.07031(13) 0.49274(13) 0.49758(18)
C7_4 C 0.06425(14) 0.52101(13) 0.55686(19)
H3_4 H 0.057245 0.505467 0.604164
C8_4 C 0.06135(13) 0.43556(14) 0.50776(19)
C9 C 0.1176(2) 0.5732(2) 0.2880(2)
H4 H 0.084273 0.540731 0.269499
H5 H 0.143907 0.561713 0.303466
C10 C 0.1428(3) 0.6169(3) 0.2287(3)
H6 H 0.117422 0.629807 0.216368
H7 H 0.149896 0.601225 0.185347
H8 H 0.177187 0.647598 0.246403
O1_4 O 0.04361(10) 0.57627(10) 0.66904(13)
O2_4 O 0.06058(10) 0.64720(10) 0.59573(14)
O3_4 O 0.06582(11) 0.42065(10) 0.57307(13)
O4_4 O 0.05015(10) 0.40497(9) 0.45221(13)
O9_4 O 0.10373(11) 0.59720(11) 0.35019(13)
O11_4 O 0.05811(14) 0.73653(12) 0.64055(17)
H17_4 H 0.0737(19) 0.7265(19) 0.670(2)
H18_4 H 0.050(2) 0.7601(19) 0.646(3)
O12_4 O 0.08732(10) 0.68817(15) 0.76026(13)
O15_4 O 0.00276(12) 0.55753(16) 0.82591(15)
C11_4 C 0.93163(14) 0.63252(14) 0.7517(2)
C12_4 C 0.87396(14) 0.61634(14) 0.72755(19)
C13_4 C 0.84331(14) 0.63491(14) 0.76658(19)
H9_4 H 0.858318 0.657251 0.808389
C14_4 C 0.79037(15) 0.61998(14) 0.74291(19)
C15_4 C 0.76746(16) 0.58593(17) 0.6815(2)
H10_4 H 0.731189 0.574940 0.666852
C16_4 C 0.79873(17) 0.56831(19) 0.6419(2)
C17_4 C 0.85176(15) 0.58319(15) 0.6658(2)
H11_4 H 0.872567 0.570728 0.640092
C18_4 C 0.75683(14) 0.64040(14) 0.7833(2)
C19_4 C 0.7354(3) 0.5368(4) 0.5365(5)
H12_4 H 0.735689 0.571551 0.545188
H13_4 H 0.699750 0.506573 0.553561
C20_4 C 0.7411(5) 0.5301(8) 0.4533(7)
H14_4 H 0.710939 0.530367 0.427364
H15_4 H 0.775941 0.560362 0.435993
H16_4 H 0.740011 0.495399 0.444363
O5_4 O 0.95593(10) 0.61096(12) 0.71745(15)
O6_4 O 0.95252(10) 0.66614(10) 0.80495(14)
O7_4 O 0.77856(11) 0.66942(12) 0.84075(15)
O8_4 O 0.70998(10) 0.62833(11) 0.75675(15)
O10_4 O 0.77980(15) 0.53676(18) 0.5793(2)
Zn3_4 Zn 0.74500(3) 0.69081(2) 0.91945(2)
Zn5_4 Zn 0.99023(2) 0.66610(3) 0.89840(2)
Zn7_4 Zn 0.65747(2) 0.65690(2) 0.76827(2)
O13_4 O 0.94985(10) 0.59503(9) 0.54779(13)
O16_4 O 0.95669(10) 0.70500(11) 0.57658(15)
Zn1_5 Zn 0.38752(2) 0.41166(3) 0.74721(2)
C1_5 C 0.39894(13) 0.45577(18) 0.6075(2)
C2_5 C 0.42751(13) 0.49611(18) 0.54562(18)
C3_5 C 0.40335(14) 0.48535(19) 0.4752(2)
H1_5 H 0.368389 0.454152 0.467791
C4_5 C 0.43082(14) 0.52058(20) 0.41650(19)
C5_5 C 0.48382(14) 0.56602(20) 0.42651(19)
H2_5 H 0.503495 0.588519 0.386488
C6_5 C 0.50726(13) 0.57756(18) 0.49758(18)
C7_5 C 0.47899(13) 0.54323(19) 0.55686(19)
H3_5 H 0.494533 0.551777 0.604164
C8_5 C 0.56444(14) 0.62578(19) 0.50776(19)
C9_2 C 0.4268(2) 0.5443(3) 0.2880(2)
H4_2 H 0.459269 0.543541 0.269499
H5_2 H 0.438287 0.582193 0.303466
C10_2 C 0.3831(3) 0.5258(4) 0.2287(3)
H6_2 H 0.370193 0.487614 0.216368
H7_2 H 0.398775 0.548670 0.185347
H8_2 H 0.352402 0.529588 0.246403
C11_5 C 0.36748(14) 0.29910(20) 0.7517(2)
C12_5 C 0.38366(14) 0.25761(20) 0.72755(19)
C13_5 C 0.36509(14) 0.20839(20) 0.76658(19)
H9_5 H 0.342749 0.201066 0.808389
C14_5 C 0.38002(14) 0.17038(21) 0.74291(19)
C15_5 C 0.41407(17) 0.18152(23) 0.6815(2)
H10_5 H 0.425060 0.156248 0.666852
C16_5 C 0.43169(19) 0.23041(25) 0.6419(2)
C17_5 C 0.41681(15) 0.26856(21) 0.6658(2)
H11_5 H 0.429272 0.301838 0.640092
C18_5 C 0.35960(14) 0.11642(20) 0.7833(2)
C19_5 C 0.4632(4) 0.1985(5) 0.5365(5)
H12_5 H 0.428449 0.164137 0.545188
H13_5 H 0.493427 0.193176 0.553561
C20_5 C 0.4699(8) 0.2109(9) 0.4533(7)
H14_5 H 0.469633 0.180571 0.427364
H15_5 H 0.439638 0.215578 0.435993
H16_5 H 0.504601 0.244611 0.444363
O1_5 O 0.42373(10) 0.46733(14) 0.66904(13)
O2_5 O 0.35280(10) 0.41337(14) 0.59573(14)
O3_5 O 0.57935(10) 0.64516(15) 0.57307(13)
O4_5 O 0.59503(9) 0.64517(13) 0.45221(13)
O5_5 O 0.38904(12) 0.34496(16) 0.71745(15)
O6_5 O 0.33386(10) 0.28637(14) 0.80495(14)
O7_5 O 0.33058(12) 0.10913(16) 0.84075(15)
O8_5 O 0.37167(11) 0.08164(15) 0.75675(15)
O9_5 O 0.40280(11) 0.50652(16) 0.35019(13)
O10_5 O 0.46324(18) 0.24303(23) 0.5793(2)
O11_5 O 0.26347(12) 0.32157(18) 0.64055(17)
H17_5 H 0.2735(19) 0.3471(27) 0.670(2)
H18_5 H 0.2399(19) 0.2895(28) 0.646(3)
Zn3_5 Zn 0.30919(2) 0.05418(4) 0.91945(2)
Zn5_5 Zn 0.33390(3) 0.32414(4) 0.89840(2)
Zn7_5 Zn 0.34310(2) 0.00057(3) 0.76827(2)
O12_5 O 0.31183(15) 0.39915(18) 0.76026(13)
O13_5 O 0.40497(9) 0.35483(13) 0.54779(13)
O15_5 O 0.44247(16) 0.44522(20) 0.82591(15)
O16_5 O 0.29500(11) 0.25169(15) 0.57658(15)
C11_6 C 0.70090(20) 0.06837(14) 0.7517(2)
C12_6 C 0.74239(20) 0.12604(14) 0.72755(19)
C13_6 C 0.79161(20) 0.15669(14) 0.76658(19)
H9_6 H 0.798934 0.141682 0.808389
C14_6 C 0.82962(21) 0.20963(15) 0.74291(19)
C15_6 C 0.81848(23) 0.23254(16) 0.6815(2)
H10_6 H 0.843752 0.268811 0.666852
C16_6 C 0.76959(25) 0.20127(17) 0.6419(2)
C17_6 C 0.73144(21) 0.14824(15) 0.6658(2)
H11_6 H 0.698162 0.127433 0.640092
C18_6 C 0.88358(20) 0.24317(14) 0.7833(2)
C19_6 C 0.8015(5) 0.2646(3) 0.5365(5)
H12_6 H 0.835863 0.264311 0.545188
H13_6 H 0.806824 0.300250 0.553561
C20_6 C 0.7891(9) 0.2589(5) 0.4533(7)
H14_6 H 0.819429 0.289061 0.427364
H15_6 H 0.784422 0.224059 0.435993
H16_6 H 0.755389 0.259989 0.444363
O5_6 O 0.65504(16) 0.04407(10) 0.71745(15)
O6_6 O 0.71363(14) 0.04748(10) 0.80495(14)
O7_6 O 0.89087(16) 0.22144(11) 0.84075(15)
O8_6 O 0.91836(15) 0.29002(10) 0.75675(15)
O10_6 O 0.75697(23) 0.22020(15) 0.5793(2)
Zn3_6 Zn 0.94582(4) 0.25500(3) 0.91945(2)
Zn5_6 Zn 0.67586(4) 0.00977(2) 0.89840(2)
Zn7_6 Zn 0.99943(3) 0.34253(2) 0.76827(2)
O13_6 O 0.64517(13) 0.05015(10) 0.54779(13)
O16_6 O 0.74831(15) 0.04331(10) 0.57658(15)
Zn1_6 Zn 0.58834(3) 0.97585(2) 0.74721(2)
C1_6 C 0.54423(18) 0.94316(13) 0.6075(2)
C2_6 C 0.50389(18) 0.93139(13) 0.54562(18)
C3_6 C 0.51465(19) 0.91799(13) 0.4752(2)
H1_6 H 0.545848 0.914236 0.467791
C4_6 C 0.47942(20) 0.91023(14) 0.41650(19)
C5_6 C 0.43398(20) 0.91779(14) 0.42651(19)
H2_6 H 0.411481 0.914975 0.386488
C6_6 C 0.42244(18) 0.92969(13) 0.49758(18)
C7_6 C 0.45677(19) 0.93575(14) 0.55686(19)
H3_6 H 0.448223 0.942755 0.604164
C8_6 C 0.37422(19) 0.93865(13) 0.50776(19)
C9_3 C 0.4557(3) 0.8824(2) 0.2880(2)
H4_3 H 0.456459 0.915727 0.269499
H5_3 H 0.417807 0.856093 0.303466
C10_3 C 0.4742(4) 0.8572(3) 0.2287(3)
H6_3 H 0.512386 0.882578 0.216368
H7_3 H 0.451330 0.850104 0.185347
H8_3 H 0.470412 0.822813 0.246403
O1_6 O 0.53267(14) 0.95639(10) 0.66904(13)
O2_6 O 0.58663(14) 0.93942(10) 0.59573(14)
O3_6 O 0.35484(15) 0.93418(11) 0.57307(13)
O4_6 O 0.35483(13) 0.94985(10) 0.45221(13)
O9_6 O 0.49348(16) 0.89627(11) 0.35019(13)
O11_6 O 0.67843(18) 0.94189(14) 0.64055(17)
H17_6 H 0.6529(27) 0.9263(19) 0.670(2)
H18_6 H 0.7105(28) 0.950(2) 0.646(3)
O12_6 O 0.60085(18) 0.91268(10) 0.76026(13)
O15_6 O 0.55478(20) 0.99724(12) 0.82591(15)
O7_7 O 0.44522(11) 0.00276(12) 0.17409(15)
H17_7 H 0.7403(19) 0.0599(19) 0.004(2)
O12_7 O 0.75399(10) 0.02150(15) 0.09359(13)
O11_7 O 0.72477(14) 0.06987(12) 0.97389(17)
H18_7 H 0.716(2) 0.0935(19) 0.980(3)
O16_7 O 0.62336(10) 0.03833(11) 0.90991(15)
Zn1_7 Zn 0.69081(2) 0.94582(2) 0.08055(2)
C11_7 C 0.59829(14) 0.96586(14) 0.0851(2)
C12_7 C 0.54062(14) 0.94968(14) 0.06089(19)
C13_7 C 0.50997(14) 0.96825(14) 0.09992(19)
H9_7 H 0.524984 0.990585 0.141723
C14_7 C 0.45703(15) 0.95332(14) 0.07625(19)
C15_7 C 0.43412(16) 0.91927(17) 0.0149(2)
H10_7 H 0.397855 0.908274 0.000186
C18_7 C 0.42349(14) 0.97374(14) 0.1167(2)
O1_7 O 0.71027(10) 0.90961(10) 0.00238(13)
O5_7 O 0.62259(10) 0.94430(12) 0.05079(15)
O8_7 O 0.37664(10) 0.96167(11) 0.09009(15)
O15_7 O 0.66942(12) 0.89087(16) 0.15925(15)
C1_7 C 0.72350(13) 0.93440(13) 0.9409(2)
C2_7 C 0.73527(13) 0.90583(13) 0.87896(18)
C3_7 C 0.74867(13) 0.92999(14) 0.8086(2)
H1_7 H 0.752430 0.964945 0.801125
C4_7 C 0.75643(14) 0.90252(14) 0.74984(19)
C5_7 C 0.74887(14) 0.84952(14) 0.75985(19)
H2_7 H 0.751691 0.829839 0.719822
C6_7 C 0.73697(13) 0.82608(13) 0.83092(18)
C7_7 C 0.73091(14) 0.85435(13) 0.89020(19)
H3_7 H 0.723911 0.838801 0.937498
C8_7 C 0.72801(13) 0.76890(14) 0.84110(19)
C9_4 C 0.7842(2) 0.9066(2) 0.6214(2)
H4_4 H 0.750939 0.874065 0.602833
H5_4 H 0.810573 0.895047 0.636800
C10_4 C 0.8094(3) 0.9503(3) 0.5621(3)
H6_4 H 0.784088 0.963141 0.549702
H7_4 H 0.816562 0.934559 0.518681
H8_4 H 0.843853 0.980932 0.579737
C16_7 C 0.46539(17) 0.90165(19) 0.9753(2)
C17_7 C 0.51842(15) 0.91653(15) 0.9992(2)
H11_7 H 0.539233 0.904062 0.973426
C19_7 C 0.4020(3) 0.8702(4) 0.8699(5)
H12_7 H 0.402355 0.904885 0.878522
H13_7 H 0.366416 0.839907 0.886895
C20_7 C 0.4077(5) 0.8635(8) 0.7867(7)
H14_7 H 0.377605 0.863701 0.760698
H15_7 H 0.442607 0.893696 0.769327
H16_7 H 0.406677 0.828733 0.777697
O2_7 O 0.72724(10) 0.98054(10) 0.92907(14)
O3_7 O 0.73248(11) 0.75399(10) 0.90641(13)
O4_7 O 0.71681(10) 0.73831(9) 0.78555(13)
O9_7 O 0.77039(11) 0.93054(11) 0.68353(13)
O10_7 O 0.44646(15) 0.87010(18) 0.9127(2)
O13_7 O 0.61652(10) 0.92836(9) 0.88112(13)
Zn1_8 Zn 0.05418(2) 0.74500(3) 0.08055(2)
C11_8 C 0.03414(14) 0.63244(20) 0.0851(2)
C12_8 C 0.05032(14) 0.59095(20) 0.06089(19)
C13_8 C 0.03175(14) 0.54173(20) 0.09992(19)
H9_8 H 0.009415 0.534400 0.141723
C14_8 C 0.04668(14) 0.50372(21) 0.07625(19)
C15_8 C 0.08073(17) 0.51486(23) 0.0149(2)
H10_8 H 0.091726 0.489582 0.000186
C18_8 C 0.02626(14) 0.44976(20) 0.1167(2)
O1_8 O 0.09039(10) 0.80067(14) 0.00238(13)
O5_8 O 0.05570(12) 0.67830(16) 0.05079(15)
O8_8 O 0.03833(11) 0.41498(15) 0.09009(15)
O15_8 O 0.10913(16) 0.77856(20) 0.15925(15)
C1_8 C 0.06560(13) 0.78911(18) 0.9409(2)
C2_8 C 0.09417(13) 0.82945(18) 0.87896(18)
C3_8 C 0.07001(14) 0.81869(19) 0.8086(2)
H1_8 H 0.035055 0.787486 0.801125
C4_8 C 0.09748(14) 0.85392(20) 0.74984(19)
C5_8 C 0.15048(14) 0.89936(20) 0.75985(19)
H2_8 H 0.170161 0.921853 0.719822
C6_8 C 0.17392(13) 0.91090(18) 0.83092(18)
C7_8 C 0.14565(13) 0.87657(19) 0.89020(19)
H3_8 H 0.161199 0.885111 0.937498
C8_8 C 0.23110(14) 0.95912(19) 0.84110(19)
C9_5 C 0.0934(2) 0.8777(3) 0.6214(2)
H4_5 H 0.125935 0.876875 0.602833
H5_5 H 0.104953 0.915527 0.636800
C10_5 C 0.0497(3) 0.8592(4) 0.5621(3)
H6_5 H 0.036859 0.820948 0.549702
H7_5 H 0.065441 0.882004 0.518681
H8_5 H 0.019068 0.862922 0.579737
C16_8 C 0.09835(19) 0.56375(25) 0.9753(2)
C17_8 C 0.08347(15) 0.60190(21) 0.9992(2)
H11_8 H 0.095938 0.635172 0.973426
C19_8 C 0.1298(4) 0.5319(5) 0.8699(5)
H12_8 H 0.095115 0.497471 0.878522
H13_8 H 0.160093 0.526510 0.886895
C20_8 C 0.1365(8) 0.5443(9) 0.7867(7)
H14_8 H 0.136299 0.513905 0.760698
H15_8 H 0.106304 0.548912 0.769327
H16_8 H 0.171267 0.577945 0.777697
O2_8 O 0.01946(10) 0.74671(14) 0.92907(14)
O3_8 O 0.24601(10) 0.97850(15) 0.90641(13)
O4_8 O 0.26169(9) 0.97851(13) 0.78555(13)
O9_8 O 0.06946(11) 0.83986(16) 0.68353(13)
O10_8 O 0.12990(18) 0.57637(23) 0.9127(2)
O13_8 O 0.07164(9) 0.68816(13) 0.88112(13)
O7_8 O 0.99724(12) 0.44247(16) 0.17409(15)
H17_8 H 0.9401(19) 0.6805(27) 0.004(2)
O12_8 O 0.97850(15) 0.73248(18) 0.09359(13)
O11_8 O 0.93013(12) 0.65491(18) 0.97389(17)
H18_8 H 0.9065(19) 0.6229(28) 0.980(3)
O16_8 O 0.96167(11) 0.58502(15) 0.90991(15)
Zn1_9 Zn 0.25500(3) 0.30919(2) 0.08055(2)
C11_9 C 0.36756(20) 0.40171(14) 0.0851(2)
C12_9 C 0.40905(20) 0.45938(14) 0.06089(19)
C13_9 C 0.45827(20) 0.49003(14) 0.09992(19)
H9_9 H 0.465600 0.475016 0.141723
C14_9 C 0.49628(21) 0.54297(15) 0.07625(19)
C15_9 C 0.48514(23) 0.56588(16) 0.0149(2)
H10_9 H 0.510418 0.602145 0.000186
C18_9 C 0.55024(20) 0.57651(14) 0.1167(2)
O1_9 O 0.19933(14) 0.28973(10) 0.00238(13)
O5_9 O 0.32170(16) 0.37741(10) 0.05079(15)
O7_9 O 0.55753(16) 0.55478(11) 0.17409(15)
O8_9 O 0.58502(15) 0.62336(10) 0.09009(15)
H17_9 H 0.3195(27) 0.2597(19) 0.004(2)
O12_9 O 0.26752(18) 0.24601(10) 0.09359(13)
O15_9 O 0.22144(20) 0.33058(12) 0.15925(15)
C1_9 C 0.21089(18) 0.27650(13) 0.9409(2)
C2_9 C 0.17055(18) 0.26473(13) 0.87896(18)
C3_9 C 0.18131(19) 0.25133(13) 0.8086(2)
H1_9 H 0.212514 0.247570 0.801125
C4_9 C 0.14608(20) 0.24357(14) 0.74984(19)
C5_9 C 0.10064(20) 0.25113(14) 0.75985(19)
H2_9 H 0.078147 0.248309 0.719822
C6_9 C 0.08910(18) 0.26303(13) 0.83092(18)
C7_9 C 0.12343(19) 0.26909(14) 0.89020(19)
H3_9 H 0.114889 0.276089 0.937498
C8_9 C 0.04088(19) 0.27199(13) 0.84110(19)
C9_6 C 0.1223(3) 0.2158(2) 0.6214(2)
H4_6 H 0.123125 0.249061 0.602833
H5_6 H 0.084473 0.189427 0.636800
C10_6 C 0.1408(4) 0.1906(3) 0.5621(3)
H6_6 H 0.179052 0.215912 0.549702
H7_6 H 0.117996 0.183438 0.518681
H8_6 H 0.137078 0.156147 0.579737
C16_9 C 0.43625(25) 0.53461(17) 0.9753(2)
C17_9 C 0.39810(21) 0.48158(15) 0.9992(2)
H11_9 H 0.364828 0.460767 0.973426
C19_9 C 0.4681(5) 0.5980(3) 0.8699(5)
H12_9 H 0.502529 0.597645 0.878522
H13_9 H 0.473490 0.633584 0.886895
C20_9 C 0.4557(9) 0.5923(5) 0.7867(7)
H14_9 H 0.486095 0.622395 0.760698
H15_9 H 0.451088 0.557393 0.769327
H16_9 H 0.422055 0.593323 0.777697
O2_9 O 0.25329(14) 0.27276(10) 0.92907(14)
O3_9 O 0.02150(15) 0.26752(11) 0.90641(13)
O4_9 O 0.02149(13) 0.28319(10) 0.78555(13)
O9_9 O 0.16014(16) 0.22961(11) 0.68353(13)
O10_9 O 0.42363(23) 0.55354(15) 0.9127(2)
O11_9 O 0.34509(18) 0.27523(14) 0.97389(17)
H18_9 H 0.3771(28) 0.284(2) 0.980(3)
O13_9 O 0.31184(13) 0.38348(10) 0.88112(13)
O16_9 O 0.41498(15) 0.37664(10) 0.90991(15)
C1_10 C 0.60983(13) 0.73227(13) 0.7258(2)
C2_10 C 0.59806(13) 0.76084(13) 0.78771(18)
C3_10 C 0.58466(13) 0.73668(14) 0.8581(2)
H1_10 H 0.580903 0.701722 0.865542
C4_10 C 0.57690(14) 0.76415(14) 0.91683(19)
C5_10 C 0.58446(14) 0.81715(14) 0.90682(19)
H2_10 H 0.581642 0.836828 0.946845
C6_10 C 0.59636(13) 0.84059(13) 0.83575(18)
C7_10 C 0.60242(14) 0.81232(13) 0.77647(19)
H3_10 H 0.609422 0.827866 0.729169
C8_10 C 0.60532(13) 0.89777(14) 0.82557(19)
C11_10 C 0.73504(14) 0.70081(14) 0.5816(2)
C12_10 C 0.79271(14) 0.71699(14) 0.60578(19)
C13_10 C 0.82336(14) 0.69842(14) 0.56675(19)
H9_10 H 0.808349 0.676082 0.524944
C14_10 C 0.87630(15) 0.71335(14) 0.59042(19)
C15_10 C 0.89921(16) 0.74740(17) 0.6518(2)
H10_10 H 0.935478 0.758393 0.666481
C16_10 C 0.86794(17) 0.76502(19) 0.6914(2)
C17_10 C 0.81491(15) 0.75014(15) 0.6675(2)
H11_10 H 0.794100 0.762605 0.693241
C18_10 C 0.90984(14) 0.69293(14) 0.5500(2)
C19_10 C 0.9313(3) 0.7965(4) 0.7968(5)
H12_10 H 0.930978 0.761782 0.788145
H13_10 H 0.966917 0.826760 0.779772
C20_10 C 0.9256(5) 0.8032(8) 0.8800(7)
H14_10 H 0.955728 0.802966 0.905969
H15_10 H 0.890726 0.772971 0.897340
H16_10 H 0.926656 0.837934 0.888970
O1_10 O 0.62306(10) 0.75706(10) 0.66429(13)
O2_10 O 0.60609(10) 0.68613(10) 0.73760(14)
O5_10 O 0.71074(10) 0.72237(12) 0.61588(15)
O6_7 O 0.71415(10) 0.66719(10) 0.52838(14)
O9_10 O 0.56294(11) 0.73613(11) 0.98314(13)
O10_10 O 0.88687(15) 0.79657(18) 0.7540(2)
O11_10 O 0.60856(14) 0.59680(12) 0.69278(17)
H17_10 H 0.5930(19) 0.6068(19) 0.663(2)
H18_10 H 0.617(2) 0.5732(19) 0.687(3)
O14_4 O 0.61971(14) 0.61918(10) 0.86171(14)
C11_11 C 0.29919(14) 0.03423(20) 0.5816(2)
C12_11 C 0.28301(14) 0.07572(20) 0.60578(19)
C13_11 C 0.30158(14) 0.12494(20) 0.56675(19)
H9_11 H 0.323918 0.132267 0.524944
C14_11 C 0.28665(14) 0.16295(21) 0.59042(19)
C15_11 C 0.25260(17) 0.15181(23) 0.6518(2)
H10_11 H 0.241607 0.177085 0.666481
C16_11 C 0.23498(19) 0.10292(25) 0.6914(2)
C17_11 C 0.24986(15) 0.06477(21) 0.6675(2)
H11_11 H 0.237395 0.031495 0.693241
C18_11 C 0.30707(14) 0.21691(20) 0.5500(2)
C19_11 C 0.2035(4) 0.1348(5) 0.7968(5)
H12_11 H 0.238218 0.169196 0.788145
H13_11 H 0.173240 0.140157 0.779772
C20_11 C 0.1968(8) 0.1224(9) 0.8800(7)
H14_11 H 0.197034 0.152762 0.905969
H15_11 H 0.227029 0.117755 0.897340
H16_11 H 0.162066 0.088722 0.888970
O6_8 O 0.33281(10) 0.04696(14) 0.52838(14)
O10_11 O 0.20343(18) 0.09030(23) 0.7540(2)
O11_11 O 0.40320(12) 0.01176(18) 0.69278(17)
H18_11 H 0.4268(19) 0.0438(28) 0.687(3)
O14_5 O 0.38082(10) 0.00052(17) 0.86171(14)
C1_11 C 0.26773(13) 0.87756(18) 0.7258(2)
C2_11 C 0.23916(13) 0.83722(18) 0.78771(18)
C3_11 C 0.26332(14) 0.84798(19) 0.8581(2)
H1_11 H 0.298278 0.879181 0.865542
C4_11 C 0.23585(14) 0.81275(20) 0.91683(19)
C5_11 C 0.18285(14) 0.76731(20) 0.90682(19)
H2_11 H 0.163172 0.744814 0.946845
C6_11 C 0.15941(13) 0.75577(18) 0.83575(18)
C7_11 C 0.18768(13) 0.79010(19) 0.77647(19)
H3_11 H 0.172134 0.781556 0.729169
C8_11 C 0.10223(14) 0.70755(19) 0.82557(19)
O1_11 O 0.24294(10) 0.86600(14) 0.66429(13)
O2_11 O 0.31387(10) 0.91996(14) 0.73760(14)
O5_11 O 0.27763(12) 0.98837(16) 0.61588(15)
O9_11 O 0.26387(11) 0.82681(16) 0.98314(13)
H17_11 H 0.3932(19) 0.9862(27) 0.663(2)
C1_12 C 0.12244(18) 0.39017(13) 0.7258(2)
C2_12 C 0.16278(18) 0.40194(13) 0.78771(18)
C3_12 C 0.15202(19) 0.41534(13) 0.8581(2)
H1_12 H 0.120819 0.419097 0.865542
C4_12 C 0.18725(20) 0.42310(14) 0.91683(19)
C5_12 C 0.23269(20) 0.41554(14) 0.90682(19)
H2_12 H 0.255186 0.418358 0.946845
C6_12 C 0.24423(18) 0.40364(13) 0.83575(18)
C7_12 C 0.20990(19) 0.39758(14) 0.77647(19)
H3_12 H 0.218444 0.390578 0.729169
C8_12 C 0.29245(19) 0.39468(13) 0.82557(19)
O1_12 O 0.13400(14) 0.37694(10) 0.66429(13)
O2_12 O 0.08004(14) 0.39391(10) 0.73760(14)
O5_12 O 0.01163(16) 0.28926(10) 0.61588(15)
O9_12 O 0.17319(16) 0.43706(11) 0.98314(13)
H17_12 H 0.0138(27) 0.4070(19) 0.663(2)
C11_12 C 0.96577(20) 0.26496(14) 0.5816(2)
C12_12 C 0.92428(20) 0.20729(14) 0.60578(19)
C13_12 C 0.87506(20) 0.17664(14) 0.56675(19)
H9_12 H 0.867733 0.191651 0.524944
C14_12 C 0.83705(21) 0.12370(15) 0.59042(19)
C15_12 C 0.84819(23) 0.10079(16) 0.6518(2)
H10_12 H 0.822915 0.064522 0.666481
C16_12 C 0.89708(25) 0.13206(17) 0.6914(2)
C17_12 C 0.93523(21) 0.18509(15) 0.6675(2)
H11_12 H 0.968505 0.205900 0.693241
C18_12 C 0.78309(20) 0.09016(14) 0.5500(2)
C19_12 C 0.8652(5) 0.0687(3) 0.7968(5)
H12_12 H 0.830804 0.069022 0.788145
H13_12 H 0.859843 0.033083 0.779772
C20_12 C 0.8776(9) 0.0744(5) 0.8800(7)
H14_12 H 0.847238 0.044272 0.905969
H15_12 H 0.882245 0.109274 0.897340
H16_12 H 0.911278 0.073344 0.888970
O6_9 O 0.95304(14) 0.28585(10) 0.52838(14)
O10_12 O 0.90970(23) 0.11313(15) 0.7540(2)
O11_12 O 0.98824(18) 0.39144(14) 0.69278(17)
H18_12 H 0.9562(28) 0.383(2) 0.687(3)
O14_6 O 0.99948(17) 0.38029(14) 0.86171(14)
C11_13 C 0.06837(14) 0.36748(14) 0.2483(2)
C12_13 C 0.12604(14) 0.38366(14) 0.27245(19)
C13_13 C 0.15669(14) 0.36509(14) 0.23342(19)
H9_13 H 0.141682 0.342749 0.191611
C14_13 C 0.20963(15) 0.38002(14) 0.25709(19)
C15_13 C 0.23254(16) 0.41407(17) 0.3185(2)
H10_13 H 0.268811 0.425060 0.333148
C16_13 C 0.20127(17) 0.43169(19) 0.3581(2)
C17_13 C 0.14824(15) 0.41681(15) 0.3342(2)
H11_13 H 0.127433 0.429272 0.359908
C18_13 C 0.24317(14) 0.35960(14) 0.2167(2)
C19_13 C 0.2646(3) 0.4632(4) 0.4635(5)
H12_13 H 0.264311 0.428449 0.454812
H13_13 H 0.300250 0.493427 0.446439
C20_13 C 0.2589(5) 0.4699(8) 0.5467(7)
H14_13 H 0.289061 0.469633 0.572636
H15_13 H 0.224059 0.439638 0.564007
H16_13 H 0.259989 0.504601 0.555637
O5_13 O 0.04407(10) 0.38904(12) 0.28255(15)
O6_10 O 0.04748(10) 0.33386(10) 0.19505(14)
O10_13 O 0.22020(15) 0.46324(18) 0.4207(2)
C1_13 C 0.94316(13) 0.39894(13) 0.3925(2)
C2_13 C 0.93139(13) 0.42751(13) 0.45438(18)
C3_13 C 0.91799(13) 0.40335(14) 0.5248(2)
H1_13 H 0.914236 0.368389 0.532209
C4_13 C 0.91023(14) 0.43082(14) 0.58350(19)
C5_13 C 0.91779(14) 0.48382(14) 0.57349(19)
H2_13 H 0.914975 0.503495 0.613512
C6_13 C 0.92969(13) 0.50726(13) 0.50242(18)
C7_13 C 0.93575(14) 0.47899(13) 0.44314(19)
H3_13 H 0.942755 0.494533 0.395836
C8_13 C 0.93865(13) 0.56444(14) 0.49224(19)
C9_7 C 0.8824(2) 0.4268(2) 0.7120(2)
H4_7 H 0.915727 0.459269 0.730501
H5_7 H 0.856093 0.438287 0.696534
C10_7 C 0.8572(3) 0.3831(3) 0.7713(3)
H6_7 H 0.882578 0.370193 0.783632
H7_7 H 0.850104 0.398775 0.814653
H8_7 H 0.822813 0.352402 0.753597
O1_13 O 0.95639(10) 0.42373(10) 0.33096(13)
O2_13 O 0.93942(10) 0.35280(10) 0.40427(14)
O9_13 O 0.89627(11) 0.40280(11) 0.64981(13)
O11_13 O 0.94189(14) 0.26347(12) 0.35945(17)
H17_13 H 0.9263(19) 0.2735(19) 0.330(2)
H18_13 H 0.950(2) 0.2399(19) 0.354(3)
C1_14 C 0.60106(13) 0.54423(18) 0.3925(2)
C2_14 C 0.57249(13) 0.50389(18) 0.45438(18)
C3_14 C 0.59665(14) 0.51465(19) 0.5248(2)
H1_14 H 0.631611 0.545848 0.532209
C4_14 C 0.56918(14) 0.47942(20) 0.58350(19)
C5_14 C 0.51618(14) 0.43398(20) 0.57349(19)
H2_14 H 0.496505 0.411481 0.613512
C6_14 C 0.49274(13) 0.42244(18) 0.50242(18)
C7_14 C 0.52101(13) 0.45677(19) 0.44314(19)
H3_14 H 0.505467 0.448223 0.395836
C8_14 C 0.43556(14) 0.37422(19) 0.49224(19)
C9_8 C 0.5732(2) 0.4557(3) 0.7120(2)
H4_8 H 0.540731 0.456459 0.730501
H5_8 H 0.561713 0.417807 0.696534
C10_8 C 0.6169(3) 0.4742(4) 0.7713(3)
H6_8 H 0.629807 0.512386 0.783632
H7_8 H 0.601225 0.451330 0.814653
H8_8 H 0.647598 0.470412 0.753597
C11_14 C 0.63252(14) 0.70090(20) 0.2483(2)
C12_14 C 0.61634(14) 0.74239(20) 0.27245(19)
C13_14 C 0.63491(14) 0.79161(20) 0.23342(19)
H9_14 H 0.657251 0.798934 0.191611
C14_14 C 0.61998(14) 0.82962(21) 0.25709(19)
C15_14 C 0.58593(17) 0.81848(23) 0.3185(2)
H10_14 H 0.574940 0.843752 0.333148
C16_14 C 0.56831(19) 0.76959(25) 0.3581(2)
C17_14 C 0.58319(15) 0.73144(21) 0.3342(2)
H11_14 H 0.570728 0.698162 0.359908
C18_14 C 0.64040(14) 0.88358(20) 0.2167(2)
C19_14 C 0.5368(4) 0.8015(5) 0.4635(5)
H12_14 H 0.571551 0.835863 0.454812
H13_14 H 0.506573 0.806824 0.446439
C20_14 C 0.5301(8) 0.7891(9) 0.5467(7)
H14_14 H 0.530367 0.819429 0.572636
H15_14 H 0.560362 0.784422 0.564007
H16_14 H 0.495399 0.755389 0.555637
O1_14 O 0.57627(10) 0.53267(14) 0.33096(13)
O2_14 O 0.64720(10) 0.58663(14) 0.40427(14)
O5_14 O 0.61096(12) 0.65504(16) 0.28255(15)
O6_11 O 0.66614(10) 0.71363(14) 0.19505(14)
O9_14 O 0.59720(11) 0.49348(16) 0.64981(13)
O10_14 O 0.53676(18) 0.75697(23) 0.4207(2)
O11_14 O 0.73653(12) 0.67843(18) 0.35945(17)
H17_14 H 0.7265(19) 0.6529(27) 0.330(2)
H18_14 H 0.7601(19) 0.7105(28) 0.354(3)
C1_15 C 0.45577(18) 0.05684(13) 0.3925(2)
C2_15 C 0.49611(18) 0.06861(13) 0.45438(18)
C3_15 C 0.48535(19) 0.08201(13) 0.5248(2)
H1_15 H 0.454152 0.085764 0.532209
C4_15 C 0.52058(20) 0.08977(14) 0.58350(19)
C5_15 C 0.56602(20) 0.08221(14) 0.57349(19)
H2_15 H 0.588519 0.085025 0.613512
C6_15 C 0.57756(18) 0.07031(13) 0.50242(18)
C7_15 C 0.54323(19) 0.06425(14) 0.44314(19)
H3_15 H 0.551777 0.057245 0.395836
C8_15 C 0.62578(19) 0.06135(13) 0.49224(19)
C9_9 C 0.5443(3) 0.1176(2) 0.7120(2)
H4_9 H 0.543541 0.084273 0.730501
H5_9 H 0.582193 0.143907 0.696534
C10_9 C 0.5258(4) 0.1428(3) 0.7713(3)
H6_9 H 0.487614 0.117422 0.783632
H7_9 H 0.548670 0.149896 0.814653
H8_9 H 0.529588 0.177187 0.753597
O1_15 O 0.46733(14) 0.04361(10) 0.33096(13)
O2_15 O 0.41337(14) 0.06058(10) 0.40427(14)
O9_15 O 0.50652(16) 0.10373(11) 0.64981(13)
O11_15 O 0.32157(18) 0.05811(14) 0.35945(17)
H17_15 H 0.3471(27) 0.0737(19) 0.330(2)
H18_15 H 0.2895(28) 0.050(2) 0.354(3)
C11_15 C 0.29910(20) 0.93163(14) 0.2483(2)
C12_15 C 0.25761(20) 0.87396(14) 0.27245(19)
C13_15 C 0.20839(20) 0.84331(14) 0.23342(19)
H9_15 H 0.201066 0.858318 0.191611
C14_15 C 0.17038(21) 0.79037(15) 0.25709(19)
C15_15 C 0.18152(23) 0.76746(16) 0.3185(2)
H10_15 H 0.156248 0.731189 0.333148
C16_15 C 0.23041(25) 0.79873(17) 0.3581(2)
C17_15 C 0.26856(21) 0.85176(15) 0.3342(2)
H11_15 H 0.301838 0.872567 0.359908
C18_15 C 0.11642(20) 0.75683(14) 0.2167(2)
C19_15 C 0.1985(5) 0.7354(3) 0.4635(5)
H12_15 H 0.164137 0.735689 0.454812
H13_15 H 0.193176 0.699750 0.446439
C20_15 C 0.2109(9) 0.7411(5) 0.5467(7)
H14_15 H 0.180571 0.710939 0.572636
H15_15 H 0.215578 0.775941 0.564007
H16_15 H 0.244611 0.740011 0.555637
O5_15 O 0.34496(16) 0.95593(10) 0.28255(15)
O6_12 O 0.28637(14) 0.95252(10) 0.19505(14)
O10_15 O 0.24303(23) 0.77980(15) 0.4207(2)
C1_16 C 0.27650(13) 0.06560(13) 0.0591(2)
C2_16 C 0.26473(13) 0.09417(13) 0.12104(18)
C3_16 C 0.25133(13) 0.07001(14) 0.1914(2)
H1_16 H 0.247570 0.035055 0.198875
C4_16 C 0.24357(14) 0.09748(14) 0.25016(19)
C5_16 C 0.25113(14) 0.15048(14) 0.24015(19)
H2_16 H 0.248309 0.170161 0.280178
C6_16 C 0.26303(13) 0.17392(13) 0.16908(18)
C7_16 C 0.26909(14) 0.14565(13) 0.10980(19)
H3_16 H 0.276089 0.161199 0.062502
C8_16 C 0.27199(13) 0.23110(14) 0.15890(19)
C9_10 C 0.2158(2) 0.0934(2) 0.3786(2)
H4_10 H 0.249061 0.125935 0.397167
H5_10 H 0.189427 0.104953 0.363200
C10_10 C 0.1906(3) 0.0497(3) 0.4379(3)
H6_10 H 0.215912 0.036859 0.450298
H7_10 H 0.183438 0.065441 0.481319
H8_10 H 0.156147 0.019068 0.420263
C16_16 C 0.53461(17) 0.09835(19) 0.0247(2)
C17_16 C 0.48158(15) 0.08347(15) 0.0008(2)
H11_16 H 0.460767 0.095938 0.026574
C19_16 C 0.5980(3) 0.1298(4) 0.1301(5)
H12_16 H 0.597645 0.095115 0.121478
H13_16 H 0.633584 0.160093 0.113105
C20_16 C 0.5923(5) 0.1365(8) 0.2133(7)
H14_16 H 0.622395 0.136299 0.239302
H15_16 H 0.557393 0.106304 0.230673
H16_16 H 0.593323 0.171267 0.222303
O2_16 O 0.27276(10) 0.01946(10) 0.07093(14)
O9_16 O 0.22961(11) 0.06946(11) 0.31647(13)
O10_16 O 0.55354(15) 0.12990(18) 0.0873(2)
C11_16 C 0.40171(14) 0.03414(14) 0.9149(2)
C12_16 C 0.45938(14) 0.05032(14) 0.93911(19)
C13_16 C 0.49003(14) 0.03175(14) 0.90008(19)
H9_16 H 0.475016 0.009415 0.858277
C14_16 C 0.54297(15) 0.04668(14) 0.92375(19)
C15_16 C 0.56588(16) 0.08073(17) 0.9851(2)
H10_16 H 0.602145 0.091726 0.999814
C18_16 C 0.57651(14) 0.02626(14) 0.8833(2)
O1_16 O 0.28973(10) 0.09039(10) 0.99762(13)
O5_16 O 0.37741(10) 0.05570(12) 0.94921(15)
O11_16 O 0.27523(14) 0.93013(12) 0.02611(17)
H18_16 H 0.284(2) 0.9065(19) 0.020(3)
H17_16 H 0.2597(19) 0.9401(19) 0.996(2)
O11_17 O 0.06987(12) 0.34509(18) 0.02611(17)
H18_17 H 0.0935(19) 0.3771(28) 0.020(3)
H17_17 H 0.0599(19) 0.3195(27) 0.996(2)
C1_17 C 0.93440(13) 0.21089(18) 0.0591(2)
C2_17 C 0.90583(13) 0.17055(18) 0.12104(18)
C3_17 C 0.92999(14) 0.18131(19) 0.1914(2)
H1_17 H 0.964945 0.212514 0.198875
C4_17 C 0.90252(14) 0.14608(20) 0.25016(19)
C5_17 C 0.84952(14) 0.10064(20) 0.24015(19)
H2_17 H 0.829839 0.078147 0.280178
C6_17 C 0.82608(13) 0.08910(18) 0.16908(18)
C7_17 C 0.85435(13) 0.12343(19) 0.10980(19)
H3_17 H 0.838801 0.114889 0.062502
C8_17 C 0.76890(14) 0.04088(19) 0.15890(19)
C9_11 C 0.9066(2) 0.1223(3) 0.3786(2)
H4_11 H 0.874065 0.123125 0.397167
H5_11 H 0.895047 0.084473 0.363200
C10_11 C 0.9503(3) 0.1408(4) 0.4379(3)
H6_11 H 0.963141 0.179052 0.450298
H7_11 H 0.934559 0.117996 0.481319
H8_11 H 0.980932 0.137078 0.420263
C16_17 C 0.90165(19) 0.43625(25) 0.0247(2)
C17_17 C 0.91653(15) 0.39810(21) 0.0008(2)
H11_17 H 0.904062 0.364828 0.026574
C19_17 C 0.8702(4) 0.4681(5) 0.1301(5)
H12_17 H 0.904885 0.502529 0.121478
H13_17 H 0.839907 0.473490 0.113105
C20_17 C 0.8635(8) 0.4557(9) 0.2133(7)
H14_17 H 0.863701 0.486095 0.239302
H15_17 H 0.893696 0.451088 0.230673
H16_17 H 0.828733 0.422055 0.222303
O2_17 O 0.98054(10) 0.25329(14) 0.07093(14)
O9_17 O 0.93054(11) 0.16014(16) 0.31647(13)
O10_17 O 0.87010(18) 0.42363(23) 0.0873(2)
C11_17 C 0.96586(14) 0.36756(20) 0.9149(2)
C12_17 C 0.94968(14) 0.40905(20) 0.93911(19)
C13_17 C 0.96825(14) 0.45827(20) 0.90008(19)
H9_17 H 0.990585 0.465600 0.858277
C14_17 C 0.95332(14) 0.49628(21) 0.92375(19)
C15_17 C 0.91927(17) 0.48514(23) 0.9851(2)
H10_17 H 0.908274 0.510418 0.999814
C18_17 C 0.97374(14) 0.55024(20) 0.8833(2)
O1_17 O 0.90961(10) 0.19933(14) 0.99762(13)
O5_17 O 0.94430(12) 0.32170(16) 0.94921(15)
C1_18 C 0.78911(18) 0.72350(13) 0.0591(2)
C2_18 C 0.82945(18) 0.73527(13) 0.12104(18)
C3_18 C 0.81869(19) 0.74867(13) 0.1914(2)
H1_18 H 0.787486 0.752430 0.198875
C4_18 C 0.85392(20) 0.75643(14) 0.25016(19)
C5_18 C 0.89936(20) 0.74887(14) 0.24015(19)
H2_18 H 0.921853 0.751691 0.280178
C6_18 C 0.91090(18) 0.73697(13) 0.16908(18)
C7_18 C 0.87657(19) 0.73091(14) 0.10980(19)
H3_18 H 0.885111 0.723911 0.062502
C8_18 C 0.95912(19) 0.72801(13) 0.15890(19)
C9_12 C 0.8777(3) 0.7842(2) 0.3786(2)
H4_12 H 0.876875 0.750939 0.397167
H5_12 H 0.915527 0.810573 0.363200
C10_12 C 0.8592(4) 0.8094(3) 0.4379(3)
H6_12 H 0.820948 0.784088 0.450298
H7_12 H 0.882004 0.816562 0.481319
H8_12 H 0.862922 0.843853 0.420263
C16_18 C 0.56375(25) 0.46539(17) 0.0247(2)
C17_18 C 0.60190(21) 0.51842(15) 0.0008(2)
H11_18 H 0.635172 0.539233 0.026574
C19_18 C 0.5319(5) 0.4020(3) 0.1301(5)
H12_18 H 0.497471 0.402355 0.121478
H13_18 H 0.526510 0.366416 0.113105
C20_18 C 0.5443(9) 0.4077(5) 0.2133(7)
H14_18 H 0.513905 0.377605 0.239302
H15_18 H 0.548912 0.442607 0.230673
H16_18 H 0.577945 0.406677 0.222303
O2_18 O 0.74671(14) 0.72724(10) 0.07093(14)
O9_18 O 0.83986(16) 0.77039(11) 0.31647(13)
O10_18 O 0.57637(23) 0.44646(15) 0.0873(2)
O11_18 O 0.65491(18) 0.72477(14) 0.02611(17)
H18_18 H 0.6229(28) 0.716(2) 0.020(3)
C11_18 C 0.63244(20) 0.59829(14) 0.9149(2)
C12_18 C 0.59095(20) 0.54062(14) 0.93911(19)
C13_18 C 0.54173(20) 0.50997(14) 0.90008(19)
H9_18 H 0.534400 0.524984 0.858277
C14_18 C 0.50372(21) 0.45703(15) 0.92375(19)
C15_18 C 0.51486(23) 0.43412(16) 0.9851(2)
H10_18 H 0.489582 0.397855 0.999814
C18_18 C 0.44976(20) 0.42349(14) 0.8833(2)
O1_18 O 0.80067(14) 0.71027(10) 0.99762(13)
O5_18 O 0.67830(16) 0.62259(10) 0.94921(15)
H17_18 H 0.6805(27) 0.7403(19) 0.996(2)
C9_13 C 0.4509(2) 0.2399(2) 0.9547(2)
H4_13 H 0.417606 0.207398 0.936166
H5_13 H 0.477240 0.228380 0.970133
C10_13 C 0.4761(3) 0.2836(3) 0.8954(3)
H6_13 H 0.450755 0.296474 0.883035
H7_13 H 0.483229 0.267892 0.852014
H8_13 H 0.510520 0.314265 0.913070
C9_14 C 0.7601(2) 0.2110(3) 0.9547(2)
H4_14 H 0.792602 0.210208 0.936166
H5_14 H 0.771620 0.248860 0.970133
C10_14 C 0.7164(3) 0.1925(4) 0.8954(3)
H6_14 H 0.703526 0.154281 0.883035
H7_14 H 0.732108 0.215337 0.852014
H8_14 H 0.685735 0.196255 0.913070
C9_15 C 0.7890(3) 0.5491(2) 0.9547(2)
H4_15 H 0.789792 0.582394 0.936166
H5_15 H 0.751140 0.522760 0.970133
C10_15 C 0.8075(4) 0.5239(3) 0.8954(3)
H6_15 H 0.845719 0.549245 0.883035
H7_15 H 0.784663 0.516771 0.852014
H8_15 H 0.803745 0.489480 0.913070
C9_16 C 0.5491(2) 0.7601(2) 0.0453(2)
H4_16 H 0.582394 0.792602 0.063834
H5_16 H 0.522760 0.771620 0.029867
C10_16 C 0.5239(3) 0.7164(3) 0.1046(3)
H6_16 H 0.549245 0.703526 0.116965
H7_16 H 0.516771 0.732108 0.147986
H8_16 H 0.489480 0.685735 0.086930
C9_17 C 0.2399(2) 0.7890(3) 0.0453(2)
H4_17 H 0.207398 0.789792 0.063834
H5_17 H 0.228380 0.751140 0.029867
C10_17 C 0.2836(3) 0.8075(4) 0.1046(3)
H6_17 H 0.296474 0.845719 0.116965
H7_17 H 0.267892 0.784663 0.147986
H8_17 H 0.314265 0.803745 0.086930
C9_18 C 0.2110(3) 0.4509(2) 0.0453(2)
H4_18 H 0.210208 0.417606 0.063834
H5_18 H 0.248860 0.477240 0.029867
C10_18 C 0.1925(4) 0.4761(3) 0.1046(3)
H6_18 H 0.154281 0.450755 0.116965
H7_18 H 0.215337 0.483229 0.147986
H8_18 H 0.196255 0.510520 0.086930
loop_
_geom_bond_atom_site_label_1
_geom_bond_atom_site_label_2
_geom_bond_site_symmetry_1
_geom_bond_site_symmetry_2
Zn1 O1 1_555 1_555
Zn2 O2 1_555 1_555
C1 C2 1_555 1_555
C2 C3 1_555 1_555
C3 H1 1_555 1_555
C4 C3 1_555 1_555
C5 C4 1_555 1_555
H2 C5 1_555 1_555
C6 C5 1_555 1_555
C7 C2 1_555 1_555
H3 C7 1_555 1_555
C8 C6 1_555 1_555
C11 C12 1_555 1_555
C12 C13 1_555 1_555
C13 H9 1_555 1_555
C14 C13 1_555 1_555
C15 C14 1_555 1_555
H10 C15 1_555 1_555
C16 C15 1_555 1_555
C17 C12 1_555 1_555
H11 C17 1_555 1_555
C18 C14 1_555 1_555
C19 H12 1_555 1_555
H13 C19 1_555 1_555
C20 C19 1_555 1_555
H14 C20 1_555 1_555
H15 C20 1_555 1_555
H16 C20 1_555 1_555
O1 C1 1_555 1_555
O2 C1 1_555 1_555
O3 C8 1_555 1_555
O4 C8 1_555 1_555
O5 Zn1 1_555 1_555
O6 C11 1_555 1_555
O7 C18 1_555 1_555
O8 C18 1_555 1_555
O9 C4 1_555 1_555
O10 C16 1_555 1_555
O11 Zn2 1_555 1_555
H17 O11 1_555 1_555
H18 O11 1_555 1_555
Zn3 O7 1_555 1_555
Zn4 O3 1_555 1_555
Zn5 O6 1_555 1_555
O12 Zn1 1_555 1_555
O13 Zn2 1_555 1_555
O14 Zn2 1_555 1_555
O15 Zn1 1_555 1_555
O16 Zn2 1_555 1_555
C6 C7 1_555 1_555
C11 O5 1_555 1_555
C16 C17 1_555 1_555
C19 O10 1_555 1_555
Zn1_2 O1_2 1_555 1_555
C1_2 C2_2 1_555 1_555
C2_2 C3_2 1_555 1_555
C3_2 H1_2 1_555 1_555
C4_2 C3_2 1_555 1_555
C5_2 C4_2 1_555 1_555
H2_2 C5_2 1_555 1_555
C6_2 C5_2 1_555 1_555
C7_2 C2_2 1_555 1_555
H3_2 C7_2 1_555 1_555
C8_2 C6_2 1_555 1_555
O1_2 C1_2 1_555 1_555
O2_2 C1_2 1_555 1_555
O3_2 C8_2 1_555 1_555
O4_2 C8_2 1_555 1_555
O5_2 Zn1_2 1_555 1_555
O9_2 C4_2 1_555 1_555
Zn4_2 O3_2 1_555 1_555
O12_2 Zn1_2 1_555 1_555
O15_2 Zn1_2 1_555 1_555
C6_2 C7_2 1_555 1_555
C11_2 C12_2 1_555 1_555
C12_2 C13_2 1_555 1_555
C13_2 H9_2 1_555 1_555
C14_2 C13_2 1_555 1_555
C15_2 C14_2 1_555 1_555
H10_2 C15_2 1_555 1_555
C16_2 C15_2 1_555 1_555
C17_2 C12_2 1_555 1_555
H11_2 C17_2 1_555 1_555
C18_2 C14_2 1_555 1_555
C19_2 H12_2 1_555 1_555
H13_2 C19_2 1_555 1_555
C20_2 C19_2 1_555 1_555
H14_2 C20_2 1_555 1_555
H15_2 C20_2 1_555 1_555
H16_2 C20_2 1_555 1_555
O6_2 C11_2 1_555 1_555
O7_2 C18_2 1_555 1_555
O8_2 C18_2 1_555 1_555
O10_2 C16_2 1_555 1_555
O11_2 Zn2_2 1_555 1_555
H18_2 O11_2 1_555 1_555
Zn3_2 O7_2 1_555 1_555
Zn5_2 O6_2 1_555 1_555
Zn7_2 O8_2 1_555 1_555
O14_2 Zn2_2 1_555 1_555
O16_2 Zn2_2 1_555 1_555
C16_2 C17_2 1_555 1_555
C19_2 O10_2 1_555 1_555
C11_3 C12_3 1_555 1_555
C12_3 C13_3 1_555 1_555
C13_3 H9_3 1_555 1_555
C14_3 C13_3 1_555 1_555
C15_3 C14_3 1_555 1_555
H10_3 C15_3 1_555 1_555
C16_3 C15_3 1_555 1_555
C17_3 C12_3 1_555 1_555
H11_3 C17_3 1_555 1_555
C18_3 C14_3 1_555 1_555
C19_3 H12_3 1_555 1_555
H13_3 C19_3 1_555 1_555
C20_3 C19_3 1_555 1_555
H14_3 C20_3 1_555 1_555
H15_3 C20_3 1_555 1_555
H16_3 C20_3 1_555 1_555
O6_3 C11_3 1_555 1_555
O7_3 C18_3 1_555 1_555
O8_3 C18_3 1_555 1_555
O10_3 C16_3 1_555 1_555
O11_3 Zn2_3 1_555 1_555
H18_3 O11_3 1_555 1_555
Zn3_3 O7_3 1_555 1_555
Zn5_3 O6_3 1_555 1_555
O14_3 Zn2_3 1_555 1_555
O16_3 Zn2_3 1_555 1_555
C16_3 C17_3 1_555 1_555
C19_3 O10_3 1_555 1_555
Zn1_3 O1_3 1_555 1_555
C1_3 C2_3 1_555 1_555
C2_3 C3_3 1_555 1_555
C3_3 H1_3 1_555 1_555
C4_3 C3_3 1_555 1_555
C5_3 C4_3 1_555 1_555
H2_3 C5_3 1_555 1_555
C6_3 C5_3 1_555 1_555
C7_3 C2_3 1_555 1_555
H3_3 C7_3 1_555 1_555
C8_3 C6_3 1_555 1_555
O1_3 C1_3 1_555 1_555
O2_3 C1_3 1_555 1_555
O3_3 C8_3 1_555 1_555
O4_3 C8_3 1_555 1_555
O5_3 Zn1_3 1_555 1_555
O9_3 C4_3 1_555 1_555
Zn4_3 O3_3 1_555 1_555
Zn6_3 O4_3 1_555 1_555
O12_3 Zn1_3 1_555 1_555
O15_3 Zn1_3 1_555 1_555
C6_3 C7_3 1_555 1_555
Zn1_4 O1_4 1_555 1_555
Zn5_3 O2_4 1_555 1_555
C1_4 C2_4 1_555 1_555
C2_4 C3_4 1_555 1_555
C3_4 H1_4 1_555 1_555
C4_4 C3_4 1_555 1_555
C5_4 C4_4 1_555 1_555
H2_4 C5_4 1_555 1_555
C6_4 C5_4 1_555 1_555
C7_4 C2_4 1_555 1_555
H3_4 C7_4 1_555 1_555
C8_4 C6_4 1_555 1_555
C9 H4 1_555 1_555
H5 C9 1_555 1_555
C10 C9 1_555 1_555
H6 C10 1_555 1_555
H7 C10 1_555 1_555
H8 C10 1_555 1_555
O1_4 C1_4 1_555 1_555
O2_4 C1_4 1_555 1_555
O3_4 C8_4 1_555 1_555
O4_4 C8_4 1_555 1_555
O9_4 C4_4 1_555 1_555
O11_4 Zn5_3 1_555 1_555
H17_4 O11_4 1_555 1_555
H18_4 O11_4 1_555 1_555
Zn3 O3_4 1_555 1_555
O12_4 Zn1_4 1_555 1_555
O15_4 Zn1_4 1_555 1_555
C6_4 C7_4 1_555 1_555
C9 O9_4 1_555 1_555
C11_4 C12_4 1_555 1_555
C12_4 C13_4 1_555 1_555
C13_4 H9_4 1_555 1_555
C14_4 C13_4 1_555 1_555
C15_4 C14_4 1_555 1_555
H10_4 C15_4 1_555 1_555
C16_4 C15_4 1_555 1_555
C17_4 C12_4 1_555 1_555
H11_4 C17_4 1_555 1_555
C18_4 C14_4 1_555 1_555
C19_4 H12_4 1_555 1_555
H13_4 C19_4 1_555 1_555
C20_4 C19_4 1_555 1_555
H14_4 C20_4 1_555 1_555
H15_4 C20_4 1_555 1_555
H16_4 C20_4 1_555 1_555
O6_4 C11_4 1_555 1_555
O7_4 C18_4 1_555 1_555
O8_4 C18_4 1_555 1_555
O10_4 C16_4 1_555 1_555
Zn3_4 O7_4 1_555 1_555
Zn5_4 O6_4 1_555 1_555
Zn7_4 O8_4 1_555 1_555
C11_4 O5_4 1_555 1_555
C16_4 C17_4 1_555 1_555
C19_4 O10_4 1_555 1_555
Zn1_5 O1_5 1_555 1_555
Zn5 O2_5 1_555 1_555
C1_5 C2_5 1_555 1_555
C2_5 C3_5 1_555 1_555
C3_5 H1_5 1_555 1_555
C4_5 C3_5 1_555 1_555
C5_5 C4_5 1_555 1_555
H2_5 C5_5 1_555 1_555
C6_5 C5_5 1_555 1_555
C7_5 C2_5 1_555 1_555
H3_5 C7_5 1_555 1_555
C8_5 C6_5 1_555 1_555
C9_2 H4_2 1_555 1_555
H5_2 C9_2 1_555 1_555
C10_2 C9_2 1_555 1_555
H6_2 C10_2 1_555 1_555
H7_2 C10_2 1_555 1_555
H8_2 C10_2 1_555 1_555
C11_5 C12_5 1_555 1_555
C12_5 C13_5 1_555 1_555
C13_5 H9_5 1_555 1_555
C14_5 C13_5 1_555 1_555
C15_5 C14_5 1_555 1_555
H10_5 C15_5 1_555 1_555
C16_5 C15_5 1_555 1_555
C17_5 C12_5 1_555 1_555
H11_5 C17_5 1_555 1_555
C18_5 C14_5 1_555 1_555
C19_5 H12_5 1_555 1_555
H13_5 C19_5 1_555 1_555
C20_5 C19_5 1_555 1_555
H14_5 C20_5 1_555 1_555
H15_5 C20_5 1_555 1_555
H16_5 C20_5 1_555 1_555
O1_5 C1_5 1_555 1_555
O2_5 C1_5 1_555 1_555
O3_5 C8_5 1_555 1_555
O4_5 C8_5 1_555 1_555
O5_5 Zn1_5 1_555 1_555
O6_5 C11_5 1_555 1_555
O7_5 C18_5 1_555 1_555
O8_5 C18_5 1_555 1_555
O9_5 C4_5 1_555 1_555
O10_5 C16_5 1_555 1_555
O11_5 Zn5 1_555 1_555
H17_5 O11_5 1_555 1_555
H18_5 O11_5 1_555 1_555
Zn3_5 O7_5 1_555 1_555
Zn3_2 O3_5 1_555 1_555
Zn5_5 O6_5 1_555 1_555
Zn7_2 O4_5 1_555 1_555
Zn7_5 O8_5 1_555 1_555
O12_5 Zn1_5 1_555 1_555
O13_5 Zn5 1_555 1_555
O15_5 Zn1_5 1_555 1_555
O16_5 Zn5 1_555 1_555
C6_5 C7_5 1_555 1_555
C9_2 O9_5 1_555 1_555
C11_5 O5_5 1_555 1_555
C16_5 C17_5 1_555 1_555
C19_5 O10_5 1_555 1_555
C11_6 C12_6 1_555 1_555
C12_6 C13_6 1_555 1_555
C13_6 H9_6 1_555 1_555
C14_6 C13_6 1_555 1_555
C15_6 C14_6 1_555 1_555
H10_6 C15_6 1_555 1_555
C16_6 C15_6 1_555 1_555
C17_6 C12_6 1_555 1_555
H11_6 C17_6 1_555 1_555
C18_6 C14_6 1_555 1_555
C19_6 H12_6 1_555 1_555
H13_6 C19_6 1_555 1_555
C20_6 C19_6 1_555 1_555
H14_6 C20_6 1_555 1_555
H15_6 C20_6 1_555 1_555
H16_6 C20_6 1_555 1_555
O6_6 C11_6 1_555 1_555
O7_6 C18_6 1_555 1_555
O8_6 C18_6 1_555 1_555
O10_6 C16_6 1_555 1_555
Zn3_6 O7_6 1_555 1_555
Zn5_6 O6_6 1_555 1_555
Zn7_6 O8_6 1_555 1_555
C11_6 O5_6 1_555 1_555
C16_6 C17_6 1_555 1_555
C19_6 O10_6 1_555 1_555
Zn1_6 O1_6 1_555 1_555
Zn5_2 O2_6 1_555 1_555
C1_6 C2_6 1_555 1_555
C2_6 C3_6 1_555 1_555
C3_6 H1_6 1_555 1_555
C4_6 C3_6 1_555 1_555
C5_6 C4_6 1_555 1_555
H2_6 C5_6 1_555 1_555
C6_6 C5_6 1_555 1_555
C7_6 C2_6 1_555 1_555
H3_6 C7_6 1_555 1_555
C8_6 C6_6 1_555 1_555
C9_3 H4_3 1_555 1_555
H5_3 C9_3 1_555 1_555
C10_3 C9_3 1_555 1_555
H6_3 C10_3 1_555 1_555
H7_3 C10_3 1_555 1_555
H8_3 C10_3 1_555 1_555
O1_6 C1_6 1_555 1_555
O2_6 C1_6 1_555 1_555
O3_6 C8_6 1_555 1_555
O4_6 C8_6 1_555 1_555
O9_6 C4_6 1_555 1_555
O11_6 Zn5_2 1_555 1_555
H17_6 O11_6 1_555 1_555
H18_6 O11_6 1_555 1_555
Zn3_3 O3_6 1_555 1_555
O12_6 Zn1_6 1_555 1_555
O15_6 Zn1_6 1_555 1_555
C6_6 C7_6 1_555 1_555
C9_3 O9_6 1_555 1_555
Zn4 O7_7 1_555 1_555
O11_7 Zn5_6 1_555 1_555
H18_7 O11_7 1_555 1_555
O16_7 Zn5_6 1_555 1_555
Zn1_7 O1_7 1_555 1_555
C11_7 C12_7 1_555 1_555
C12_7 C13_7 1_555 1_555
C13_7 H9_7 1_555 1_555
C14_7 C13_7 1_555 1_555
C15_7 C14_7 1_555 1_555
H10_7 C15_7 1_555 1_555
C18_7 C14_7 1_555 1_555
O5_7 Zn1_7 1_555 1_555
O14_2 C11_7 1_555 1_555
O8_7 C18_7 1_555 1_555
Zn6 O8_7 1_555 1_555
O15_7 Zn1_7 1_555 1_555
C11_7 O5_7 1_555 1_555
C1_7 C2_7 1_555 1_555
C2_7 C3_7 1_555 1_555
C3_7 H1_7 1_555 1_555
C4_7 C3_7 1_555 1_555
C5_7 C4_7 1_555 1_555
H2_7 C5_7 1_555 1_555
C6_7 C5_7 1_555 1_555
C7_7 C2_7 1_555 1_555
H3_7 C7_7 1_555 1_555
C8_7 C6_7 1_555 1_555
C9_4 H4_4 1_555 1_555
H5_4 C9_4 1_555 1_555
C10_4 C9_4 1_555 1_555
H6_4 C10_4 1_555 1_555
H7_4 C10_4 1_555 1_555
H8_4 C10_4 1_555 1_555
H11_7 C17_7 1_555 1_555
C19_7 H12_7 1_555 1_555
H13_7 C19_7 1_555 1_555
C20_7 C19_7 1_555 1_555
H14_7 C20_7 1_555 1_555
H15_7 C20_7 1_555 1_555
H16_7 C20_7 1_555 1_555
O2_7 C1_7 1_555 1_555
O3_7 C8_7 1_555 1_555
O4_7 C8_7 1_555 1_555
O9_7 C4_7 1_555 1_555
O10_7 C16_7 1_555 1_555
Zn3_4 O3_7 1_555 1_555
Zn7_4 O4_7 1_555 1_555
C6_7 C7_7 1_555 1_555
C9_4 O9_7 1_555 1_555
C16_7 C17_7 1_555 1_555
C19_7 O10_7 1_555 1_555
Zn1_8 O1_8 1_555 1_555
C11_8 C12_8 1_555 1_555
C12_8 C13_8 1_555 1_555
C13_8 H9_8 1_555 1_555
C14_8 C13_8 1_555 1_555
C15_8 C14_8 1_555 1_555
H10_8 C15_8 1_555 1_555
C18_8 C14_8 1_555 1_555
O5_8 Zn1_8 1_555 1_555
O14_3 C11_8 1_555 1_555
O8_8 C18_8 1_555 1_555
Zn6_2 O8_8 1_555 1_555
O15_8 Zn1_8 1_555 1_555
C11_8 O5_8 1_555 1_555
C1_8 C2_8 1_555 1_555
C2_8 C3_8 1_555 1_555
C3_8 H1_8 1_555 1_555
C4_8 C3_8 1_555 1_555
C5_8 C4_8 1_555 1_555
H2_8 C5_8 1_555 1_555
C6_8 C5_8 1_555 1_555
C7_8 C2_8 1_555 1_555
H3_8 C7_8 1_555 1_555
C8_8 C6_8 1_555 1_555
C9_5 H4_5 1_555 1_555
H5_5 C9_5 1_555 1_555
C10_5 C9_5 1_555 1_555
H6_5 C10_5 1_555 1_555
H7_5 C10_5 1_555 1_555
H8_5 C10_5 1_555 1_555
H11_8 C17_8 1_555 1_555
C19_8 H12_8 1_555 1_555
H13_8 C19_8 1_555 1_555
C20_8 C19_8 1_555 1_555
H14_8 C20_8 1_555 1_555
H15_8 C20_8 1_555 1_555
H16_8 C20_8 1_555 1_555
O2_8 C1_8 1_555 1_555
O3_8 C8_8 1_555 1_555
O4_8 C8_8 1_555 1_555
O9_8 C4_8 1_555 1_555
O10_8 C16_8 1_555 1_555
C6_8 C7_8 1_555 1_555
C9_5 O9_8 1_555 1_555
C16_8 C17_8 1_555 1_555
C19_8 O10_8 1_555 1_555
Zn4_2 O7_8 1_555 1_555
O11_8 Zn5_4 1_555 1_555
H18_8 O11_8 1_555 1_555
O16_8 Zn5_4 1_555 1_555
Zn1_9 O1_9 1_555 1_555
C11_9 C12_9 1_555 1_555
C12_9 C13_9 1_555 1_555
C13_9 H9_9 1_555 1_555
C14_9 C13_9 1_555 1_555
C15_9 C14_9 1_555 1_555
H10_9 C15_9 1_555 1_555
C18_9 C14_9 1_555 1_555
O5_9 Zn1_9 1_555 1_555
O14 C11_9 1_555 1_555
O7_9 C18_9 1_555 1_555
O8_9 C18_9 1_555 1_555
Zn4_3 O7_9 1_555 1_555
Zn6_3 O8_9 1_555 1_555
O12_9 Zn1_9 1_555 1_555
O15_9 Zn1_9 1_555 1_555
C11_9 O5_9 1_555 1_555
Zn5_5 O2_9 1_555 1_555
C1_9 C2_9 1_555 1_555
C2_9 C3_9 1_555 1_555
C3_9 H1_9 1_555 1_555
C4_9 C3_9 1_555 1_555
C5_9 C4_9 1_555 1_555
H2_9 C5_9 1_555 1_555
C6_9 C5_9 1_555 1_555
C7_9 C2_9 1_555 1_555
H3_9 C7_9 1_555 1_555
C8_9 C6_9 1_555 1_555
C9_6 H4_6 1_555 1_555
H5_6 C9_6 1_555 1_555
C10_6 C9_6 1_555 1_555
H6_6 C10_6 1_555 1_555
H7_6 C10_6 1_555 1_555
H8_6 C10_6 1_555 1_555
H11_9 C17_9 1_555 1_555
C19_9 H12_9 1_555 1_555
H13_9 C19_9 1_555 1_555
C20_9 C19_9 1_555 1_555
H14_9 C20_9 1_555 1_555
H15_9 C20_9 1_555 1_555
H16_9 C20_9 1_555 1_555
O2_9 C1_9 1_555 1_555
O3_9 C8_9 1_555 1_555
O4_9 C8_9 1_555 1_555
O9_9 C4_9 1_555 1_555
O10_9 C16_9 1_555 1_555
O11_9 Zn5_5 1_555 1_555
H18_9 O11_9 1_555 1_555
O13_9 Zn5_5 1_555 1_555
O16_9 Zn5_5 1_555 1_555
C6_9 C7_9 1_555 1_555
C9_6 O9_9 1_555 1_555
C16_9 C17_9 1_555 1_555
C19_9 O10_9 1_555 1_555
Zn3_2 O1_10 1_555 1_555
Zn7_4 O2_10 1_555 1_555
C1_10 C2_10 1_555 1_555
C2_10 C3_10 1_555 1_555
C3_10 H1_10 1_555 1_555
C4_10 C3_10 1_555 1_555
C5_10 C4_10 1_555 1_555
H2_10 C5_10 1_555 1_555
C6_10 C5_10 1_555 1_555
C7_10 C2_10 1_555 1_555
H3_10 C7_10 1_555 1_555
C8_10 C6_10 1_555 1_555
C11_10 C12_10 1_555 1_555
C12_10 C13_10 1_555 1_555
C13_10 H9_10 1_555 1_555
C14_10 C13_10 1_555 1_555
C15_10 C14_10 1_555 1_555
H10_10 C15_10 1_555 1_555
C16_10 C15_10 1_555 1_555
C17_10 C12_10 1_555 1_555
H11_10 C17_10 1_555 1_555
C18_10 C14_10 1_555 1_555
C19_10 H12_10 1_555 1_555
H13_10 C19_10 1_555 1_555
C20_10 C19_10 1_555 1_555
H14_10 C20_10 1_555 1_555
H15_10 C20_10 1_555 1_555
H16_10 C20_10 1_555 1_555
O1_10 C1_10 1_555 1_555
O2_10 C1_10 1_555 1_555
O12_6 C8_10 1_555 1_555
O13_7 C8_10 1_555 1_555
O5_10 Zn3_2 1_555 1_555
O6_7 C11_10 1_555 1_555
O15_3 C18_10 1_555 1_555
O16_4 C18_10 1_555 1_555
O9_10 C4_10 1_555 1_555
O10_10 C16_10 1_555 1_555
O11_10 Zn7_4 1_555 1_555
H17_10 O11_10 1_555 1_555
H18_10 O11_10 1_555 1_555
Zn7_2 O6_7 1_555 1_555
O14_4 Zn7_4 1_555 1_555
C6_10 C7_10 1_555 1_555
C11_10 O5_10 1_555 1_555
C16_10 C17_10 1_555 1_555
C19_10 O10_10 1_555 1_555
C11_11 C12_11 1_555 1_555
C12_11 C13_11 1_555 1_555
C13_11 H9_11 1_555 1_555
C14_11 C13_11 1_555 1_555
C15_11 C14_11 1_555 1_555
H10_11 C15_11 1_555 1_555
C16_11 C15_11 1_555 1_555
C17_11 C12_11 1_555 1_555
H11_11 C17_11 1_555 1_555
C18_11 C14_11 1_555 1_555
C19_11 H12_11 1_555 1_555
H13_11 C19_11 1_555 1_555
C20_11 C19_11 1_555 1_555
H14_11 C20_11 1_555 1_555
H15_11 C20_11 1_555 1_555
H16_11 C20_11 1_555 1_555
O6_8 C11_11 1_555 1_555
O15 C18_11 1_555 1_555
O16_5 C18_11 1_555 1_555
O10_11 C16_11 1_555 1_555
O11_11 Zn7_5 1_555 1_555
H18_11 O11_11 1_555 1_555
Zn7_3 O6_8 1_555 1_555
O14_5 Zn7_5 1_555 1_555
C16_11 C17_11 1_555 1_555
C19_11 O10_11 1_555 1_555
Zn3_3 O1_11 1_555 1_555
C1_11 C2_11 1_555 1_555
C2_11 C3_11 1_555 1_555
C3_11 H1_11 1_555 1_555
C4_11 C3_11 1_555 1_555
C5_11 C4_11 1_555 1_555
H2_11 C5_11 1_555 1_555
C6_11 C5_11 1_555 1_555
C7_11 C2_11 1_555 1_555
H3_11 C7_11 1_555 1_555
C8_11 C6_11 1_555 1_555
O1_11 C1_11 1_555 1_555
O2_11 C1_11 1_555 1_555
O12_4 C8_11 1_555 1_555
O13_8 C8_11 1_555 1_555
O5_11 Zn3_3 1_555 1_555
O9_11 C4_11 1_555 1_555
C6_11 C7_11 1_555 1_555
Zn3 O1_12 1_555 1_555
C1_12 C2_12 1_555 1_555
C2_12 C3_12 1_555 1_555
C3_12 H1_12 1_555 1_555
C4_12 C3_12 1_555 1_555
C5_12 C4_12 1_555 1_555
H2_12 C5_12 1_555 1_555
C6_12 C5_12 1_555 1_555
C7_12 C2_12 1_555 1_555
H3_12 C7_12 1_555 1_555
C8_12 C6_12 1_555 1_555
O1_12 C1_12 1_555 1_555
O2_12 C1_12 1_555 1_555
O12_5 C8_12 1_555 1_555
O13_9 C8_12 1_555 1_555
O5_12 Zn3 1_555 1_555
O9_12 C4_12 1_555 1_555
C6_12 C7_12 1_555 1_555
C11_12 C12_12 1_555 1_555
C12_12 C13_12 1_555 1_555
C13_12 H9_12 1_555 1_555
C14_12 C13_12 1_555 1_555
C15_12 C14_12 1_555 1_555
H10_12 C15_12 1_555 1_555
C16_12 C15_12 1_555 1_555
C17_12 C12_12 1_555 1_555
H11_12 C17_12 1_555 1_555
C18_12 C14_12 1_555 1_555
C19_12 H12_12 1_555 1_555
H13_12 C19_12 1_555 1_555
C20_12 C19_12 1_555 1_555
H14_12 C20_12 1_555 1_555
H15_12 C20_12 1_555 1_555
H16_12 C20_12 1_555 1_555
O6_9 C11_12 1_555 1_555
O15_2 C18_12 1_555 1_555
O16_6 C18_12 1_555 1_555
O10_12 C16_12 1_555 1_555
O11_12 Zn7_6 1_555 1_555
H18_12 O11_12 1_555 1_555
Zn7 O6_9 1_555 1_555
O14_6 Zn7_6 1_555 1_555
C16_12 C17_12 1_555 1_555
C19_12 O10_12 1_555 1_555
C11_13 C12_13 1_555 1_555
C12_13 C13_13 1_555 1_555
C13_13 H9_13 1_555 1_555
C14_13 C13_13 1_555 1_555
C15_13 C14_13 1_555 1_555
H10_13 C15_13 1_555 1_555
C16_13 C15_13 1_555 1_555
C17_13 C12_13 1_555 1_555
H11_13 C17_13 1_555 1_555
C18_13 C14_13 1_555 1_555
C19_13 H12_13 1_555 1_555
H13_13 C19_13 1_555 1_555
C20_13 C19_13 1_555 1_555
H14_13 C20_13 1_555 1_555
H15_13 C20_13 1_555 1_555
H16_13 C20_13 1_555 1_555
O6_10 C11_13 1_555 1_555
O15_9 C18_13 1_555 1_555
O16 C18_13 1_555 1_555
O10_13 C16_13 1_555 1_555
Zn6_2 O6_10 1_555 1_555
C11_13 O5_13 1_555 1_555
C16_13 C17_13 1_555 1_555
C19_13 O10_13 1_555 1_555
Zn4_2 O1_13 1_555 1_555
Zn7 O2_13 1_555 1_555
C1_13 C2_13 1_555 1_555
C2_13 C3_13 1_555 1_555
C3_13 H1_13 1_555 1_555
C4_13 C3_13 1_555 1_555
C5_13 C4_13 1_555 1_555
H2_13 C5_13 1_555 1_555
C6_13 C5_13 1_555 1_555
C7_13 C2_13 1_555 1_555
H3_13 C7_13 1_555 1_555
C8_13 C6_13 1_555 1_555
C9_7 H4_7 1_555 1_555
H5_7 C9_7 1_555 1_555
C10_7 C9_7 1_555 1_555
H6_7 C10_7 1_555 1_555
H7_7 C10_7 1_555 1_555
H8_7 C10_7 1_555 1_555
O1_13 C1_13 1_555 1_555
O2_13 C1_13 1_555 1_555
O12_3 C8_13 1_555 1_555
O13_4 C8_13 1_555 1_555
O9_13 C4_13 1_555 1_555
O11_13 Zn7 1_555 1_555
H17_13 O11_13 1_555 1_555
H18_13 O11_13 1_555 1_555
C6_13 C7_13 1_555 1_555
C9_7 O9_13 1_555 1_555
Zn4_3 O1_14 1_555 1_555
Zn7_2 O2_14 1_555 1_555
C1_14 C2_14 1_555 1_555
C2_14 C3_14 1_555 1_555
C3_14 H1_14 1_555 1_555
C4_14 C3_14 1_555 1_555
C5_14 C4_14 1_555 1_555
H2_14 C5_14 1_555 1_555
C6_14 C5_14 1_555 1_555
C7_14 C2_14 1_555 1_555
H3_14 C7_14 1_555 1_555
C8_14 C6_14 1_555 1_555
C9_8 H4_8 1_555 1_555
H5_8 C9_8 1_555 1_555
C10_8 C9_8 1_555 1_555
H6_8 C10_8 1_555 1_555
H7_8 C10_8 1_555 1_555
H8_8 C10_8 1_555 1_555
C11_14 C12_14 1_555 1_555
C12_14 C13_14 1_555 1_555
C13_14 H9_14 1_555 1_555
C14_14 C13_14 1_555 1_555
C15_14 C14_14 1_555 1_555
H10_14 C15_14 1_555 1_555
C16_14 C15_14 1_555 1_555
C17_14 C12_14 1_555 1_555
H11_14 C17_14 1_555 1_555
C18_14 C14_14 1_555 1_555
C19_14 H12_14 1_555 1_555
H13_14 C19_14 1_555 1_555
C20_14 C19_14 1_555 1_555
H14_14 C20_14 1_555 1_555
H15_14 C20_14 1_555 1_555
H16_14 C20_14 1_555 1_555
O1_14 C1_14 1_555 1_555
O2_14 C1_14 1_555 1_555
O12 C8_14 1_555 1_555
O13_5 C8_14 1_555 1_555
O5_14 Zn4_3 1_555 1_555
O6_11 C11_14 1_555 1_555
O15_7 C18_14 1_555 1_555
O16_2 C18_14 1_555 1_555
O9_14 C4_14 1_555 1_555
O10_14 C16_14 1_555 1_555
O11_14 Zn7_2 1_555 1_555
H17_14 O11_14 1_555 1_555
H18_14 O11_14 1_555 1_555
Zn6_3 O6_11 1_555 1_555
C6_14 C7_14 1_555 1_555
C9_8 O9_14 1_555 1_555
C11_14 O5_14 1_555 1_555
C16_14 C17_14 1_555 1_555
C19_14 O10_14 1_555 1_555
Zn4 O1_15 1_555 1_555
Zn7_3 O2_15 1_555 1_555
C1_15 C2_15 1_555 1_555
C2_15 C3_15 1_555 1_555
C3_15 H1_15 1_555 1_555
C4_15 C3_15 1_555 1_555
C5_15 C4_15 1_555 1_555
H2_15 C5_15 1_555 1_555
C6_15 C5_15 1_555 1_555
C7_15 C2_15 1_555 1_555
H3_15 C7_15 1_555 1_555
C8_15 C6_15 1_555 1_555
C9_9 H4_9 1_555 1_555
H5_9 C9_9 1_555 1_555
C10_9 C9_9 1_555 1_555
H6_9 C10_9 1_555 1_555
H7_9 C10_9 1_555 1_555
H8_9 C10_9 1_555 1_555
O1_15 C1_15 1_555 1_555
O2_15 C1_15 1_555 1_555
O12_2 C8_15 1_555 1_555
O13_6 C8_15 1_555 1_555
O9_15 C4_15 1_555 1_555
O11_15 Zn7_3 1_555 1_555
H17_15 O11_15 1_555 1_555
H18_15 O11_15 1_555 1_555
C6_15 C7_15 1_555 1_555
C9_9 O9_15 1_555 1_555
C11_15 C12_15 1_555 1_555
C12_15 C13_15 1_555 1_555
C13_15 H9_15 1_555 1_555
C14_15 C13_15 1_555 1_555
C15_15 C14_15 1_555 1_555
H10_15 C15_15 1_555 1_555
C16_15 C15_15 1_555 1_555
C17_15 C12_15 1_555 1_555
H11_15 C17_15 1_555 1_555
C18_15 C14_15 1_555 1_555
C19_15 H12_15 1_555 1_555
H13_15 C19_15 1_555 1_555
C20_15 C19_15 1_555 1_555
H14_15 C20_15 1_555 1_555
H15_15 C20_15 1_555 1_555
H16_15 C20_15 1_555 1_555
O6_12 C11_15 1_555 1_555
O15_8 C18_15 1_555 1_555
O16_3 C18_15 1_555 1_555
O10_15 C16_15 1_555 1_555
Zn6 O6_12 1_555 1_555
C11_15 O5_15 1_555 1_555
C16_15 C17_15 1_555 1_555
C19_15 O10_15 1_555 1_555
C1_16 C2_16 1_555 1_555
C2_16 C3_16 1_555 1_555
C3_16 H1_16 1_555 1_555
C4_16 C3_16 1_555 1_555
C5_16 C4_16 1_555 1_555
H2_16 C5_16 1_555 1_555
C6_16 C5_16 1_555 1_555
C7_16 C2_16 1_555 1_555
H3_16 C7_16 1_555 1_555
C8_16 C6_16 1_555 1_555
C9_10 H4_10 1_555 1_555
H5_10 C9_10 1_555 1_555
C10_10 C9_10 1_555 1_555
H6_10 C10_10 1_555 1_555
H7_10 C10_10 1_555 1_555
H8_10 C10_10 1_555 1_555
H11_16 C17_16 1_555 1_555
C19_16 H12_16 1_555 1_555
H13_16 C19_16 1_555 1_555
C20_16 C19_16 1_555 1_555
H14_16 C20_16 1_555 1_555
H15_16 C20_16 1_555 1_555
H16_16 C20_16 1_555 1_555
O2_16 C1_16 1_555 1_555
O12_9 C8_16 1_555 1_555
O13 C8_16 1_555 1_555
O9_16 C4_16 1_555 1_555
O10_16 C16_16 1_555 1_555
C6_16 C7_16 1_555 1_555
C9_10 O9_16 1_555 1_555
C16_16 C17_16 1_555 1_555
C19_16 O10_16 1_555 1_555
Zn3_5 O1_16 1_555 1_555
C11_16 C12_16 1_555 1_555
C12_16 C13_16 1_555 1_555
C13_16 H9_16 1_555 1_555
C14_16 C13_16 1_555 1_555
C15_16 C14_16 1_555 1_555
H10_16 C15_16 1_555 1_555
C18_16 C14_16 1_555 1_555
O5_16 Zn3_5 1_555 1_555
O14_5 C11_16 1_555 1_555
O16_7 C18_16 1_555 1_555
C11_16 O5_16 1_555 1_555
O11_16 Zn6 1_555 1_555
H18_16 O11_16 1_555 1_555
O11_17 Zn6_2 1_555 1_555
H18_17 O11_17 1_555 1_555
C1_17 C2_17 1_555 1_555
C2_17 C3_17 1_555 1_555
C3_17 H1_17 1_555 1_555
C4_17 C3_17 1_555 1_555
C5_17 C4_17 1_555 1_555
H2_17 C5_17 1_555 1_555
C6_17 C5_17 1_555 1_555
C7_17 C2_17 1_555 1_555
H3_17 C7_17 1_555 1_555
C8_17 C6_17 1_555 1_555
C9_11 H4_11 1_555 1_555
H5_11 C9_11 1_555 1_555
C10_11 C9_11 1_555 1_555
H6_11 C10_11 1_555 1_555
H7_11 C10_11 1_555 1_555
H8_11 C10_11 1_555 1_555
H11_17 C17_17 1_555 1_555
C19_17 H12_17 1_555 1_555
H13_17 C19_17 1_555 1_555
C20_17 C19_17 1_555 1_555
H14_17 C20_17 1_555 1_555
H15_17 C20_17 1_555 1_555
H16_17 C20_17 1_555 1_555
O2_17 C1_17 1_555 1_555
O12_7 C8_17 1_555 1_555
O13_2 C8_17 1_555 1_555
O9_17 C4_17 1_555 1_555
O10_17 C16_17 1_555 1_555
C6_17 C7_17 1_555 1_555
C9_11 O9_17 1_555 1_555
C16_17 C17_17 1_555 1_555
C19_17 O10_17 1_555 1_555
Zn3_6 O1_17 1_555 1_555
C11_17 C12_17 1_555 1_555
C12_17 C13_17 1_555 1_555
C13_17 H9_17 1_555 1_555
C14_17 C13_17 1_555 1_555
C15_17 C14_17 1_555 1_555
H10_17 C15_17 1_555 1_555
C18_17 C14_17 1_555 1_555
O5_17 Zn3_6 1_555 1_555
O14_6 C11_17 1_555 1_555
O16_8 C18_17 1_555 1_555
C11_17 O5_17 1_555 1_555
Zn6_3 O2_18 1_555 1_555
C1_18 C2_18 1_555 1_555
C2_18 C3_18 1_555 1_555
C3_18 H1_18 1_555 1_555
C4_18 C3_18 1_555 1_555
C5_18 C4_18 1_555 1_555
H2_18 C5_18 1_555 1_555
C6_18 C5_18 1_555 1_555
C7_18 C2_18 1_555 1_555
H3_18 C7_18 1_555 1_555
C8_18 C6_18 1_555 1_555
C9_12 H4_12 1_555 1_555
H5_12 C9_12 1_555 1_555
C10_12 C9_12 1_555 1_555
H6_12 C10_12 1_555 1_555
H7_12 C10_12 1_555 1_555
H8_12 C10_12 1_555 1_555
H11_18 C17_18 1_555 1_555
C19_18 H12_18 1_555 1_555
H13_18 C19_18 1_555 1_555
C20_18 C19_18 1_555 1_555
H14_18 C20_18 1_555 1_555
H15_18 C20_18 1_555 1_555
H16_18 C20_18 1_555 1_555
O2_18 C1_18 1_555 1_555
O12_8 C8_18 1_555 1_555
O13_3 C8_18 1_555 1_555
O9_18 C4_18 1_555 1_555
O10_18 C16_18 1_555 1_555
O11_18 Zn6_3 1_555 1_555
H18_18 O11_18 1_555 1_555
C6_18 C7_18 1_555 1_555
C9_12 O9_18 1_555 1_555
C16_18 C17_18 1_555 1_555
C19_18 O10_18 1_555 1_555
Zn3_4 O1_18 1_555 1_555
C11_18 C12_18 1_555 1_555
C12_18 C13_18 1_555 1_555
C13_18 H9_18 1_555 1_555
C14_18 C13_18 1_555 1_555
C15_18 C14_18 1_555 1_555
H10_18 C15_18 1_555 1_555
C18_18 C14_18 1_555 1_555
O5_18 Zn3_4 1_555 1_555
O14_4 C11_18 1_555 1_555
O15_5 C18_18 1_555 1_555
O16_9 C18_18 1_555 1_555
C11_18 O5_18 1_555 1_555
C9_13 H4_13 1_555 1_555
H5_13 C9_13 1_555 1_555
C10_13 C9_13 1_555 1_555
H6_13 C10_13 1_555 1_555
H7_13 C10_13 1_555 1_555
H8_13 C10_13 1_555 1_555
C9_14 H4_14 1_555 1_555
H5_14 C9_14 1_555 1_555
C10_14 C9_14 1_555 1_555
H6_14 C10_14 1_555 1_555
H7_14 C10_14 1_555 1_555
H8_14 C10_14 1_555 1_555
C9_15 H4_15 1_555 1_555
H5_15 C9_15 1_555 1_555
C10_15 C9_15 1_555 1_555
H6_15 C10_15 1_555 1_555
H7_15 C10_15 1_555 1_555
H8_15 C10_15 1_555 1_555
C9_16 H4_16 1_555 1_555
H5_16 C9_16 1_555 1_555
C10_16 C9_16 1_555 1_555
H6_16 C10_16 1_555 1_555
H7_16 C10_16 1_555 1_555
H8_16 C10_16 1_555 1_555
C9_17 H4_17 1_555 1_555
H5_17 C9_17 1_555 1_555
C10_17 C9_17 1_555 1_555
H6_17 C10_17 1_555 1_555
H7_17 C10_17 1_555 1_555
H8_17 C10_17 1_555 1_555
C9_18 H4_18 1_555 1_555
H5_18 C9_18 1_555 1_555
C10_18 C9_18 1_555 1_555
H6_18 C10_18 1_555 1_555
H7_18 C10_18 1_555 1_555
H8_18 C10_18 1_555 1_555

#END
