
###############################################################################
#
# This file contains modified crystal structure data generated from the
# MOF subset of the Cambridge Structural Database (CSD) v543 
# hosted by the Cambridge Crystallographic Data Centre (CCDC).
#
# This work is licensed under the Creative Commons
# Attribution-NonCommercial-ShareAlike 4.0 International License.
# To view a copy of this license, visit
# http://creativecommons.org/licenses/by-nc-sa/4.0/
# or send a letter to
# Creative Commons, PO Box 1866, Mountain View, CA 94042, USA.
#
# CIF created using the CSD Python API on 29 September 2022
# The structure has been converted into the P1 space group
# The structure has a 3D framework
# The original CSD entry POHCOG02 is in the orthorhombic crystal system
# The framework has been calculated to contain at least 10.0% void space
# The void calculation uses a probe of radius 1.32A, grid spacing 0.4
#
###############################################################################

data_POHCOG02
_chemical_formula_moiety         '(C184 H96 Ag24 Fe12 N58)n'
_symmetry_cell_setting           triclinic
_symmetry_space_group_name_H-M   'P 1'
_symmetry_Int_Tables_number      1
_space_group_name_Hall           'P 1'
loop_
_symmetry_equiv_pos_site_id
_symmetry_equiv_pos_as_xyz
1 x,y,z
_cell_length_a                   12.0545(4)
_cell_length_b                   17.2800(6)
_cell_length_c                   31.6186(9)
_cell_angle_alpha                90
_cell_angle_beta                 90
_cell_angle_gamma                90
_cell_volume                     6586.21
loop_
_atom_site_label
_atom_site_type_symbol
_atom_site_fract_x
_atom_site_fract_y
_atom_site_fract_z
N14 N 0.1242(9) 0.5891(6) 0.5713(3)
C42 C 0.0543(13) 0.6305(9) 0.5613(4)
Ag7 Ag 0.09611(8) 0.82424(6) 0.54524(4)
Fe6 Fe 0.2500 0.5000 0.57294(6)
Ag1 Ag 0.48618(8) 0.25745(5) 0.43210(4)
Fe1 Fe 0.2500 0.0000 0.42317(6)
Fe2 Fe 0.7500 0.5000 0.42706(6)
N1 N 0.3641(8) 0.0958(5) 0.4251(3)
N2 N 0.6215(8) 0.4122(5) 0.4273(3)
N3 N 0.1131(8) 0.0813(6) 0.4218(3)
N6 N 0.2500 0.0000 0.3531(4)
N8 N 0.7500 0.5000 0.3576(4)
C1 C 0.4078(9) 0.1498(6) 0.4276(4)
C2 C 0.5695(10) 0.3610(6) 0.4291(4)
C3 C 0.0391(10) 0.1190(7) 0.4306(4)
C6 C 0.3380(10) 0.0259(8) 0.3319(3)
H1 H 0.4004 0.0445 0.3472
C7 C 0.3407(10) 0.0262(7) 0.2873(4)
H2 H 0.4045 0.0445 0.2728
C8 C 0.2500 0.0000 0.2650(4)
C9 C 0.2500 0.0000 0.2176(5)
C12 C 0.2500 0.0000 0.1291(5)
C13 C 0.2500 0.0000 0.0828(5)
C14 C 0.3435(10) 0.0208(7) 0.0598(3)
H5 H 0.4089 0.0367 0.0742
C15 C 0.3421(10) 0.0186(7) 0.0169(3)
H6 H 0.4085 0.0306 0.0021
C16 C 0.6592(10) 0.5176(7) 0.3356(3)
H7 H 0.5935 0.5310 0.3504
C17 C 0.6574(10) 0.5170(8) 0.2920(4)
H8 H 0.5902 0.5287 0.2776
C18 C 0.7500 0.5000 0.2691(5)
C19 C 0.7500 0.5000 0.2237(5)
C20 C 0.6647(10) 0.4649(7) 0.1995(3)
H9 H 0.6057 0.4396 0.2138
C21 C 0.6642(9) 0.4662(8) 0.1559(4)
H10 H 0.6039 0.4434 0.1411
C22 C 0.7500 0.5000 0.1331(5)
C23 C 0.7500 0.5000 0.0860(4)
C24 C 0.6584(15) 0.4957(10) 0.0645(5)
H11 H 0.5894 0.4936 0.0790
C25 C 0.6603(14) 0.4941(11) 0.0189(5)
H12 H 0.5915 0.4884 0.0045
C28 C 0.1584(9) 0.0248(7) 0.1955(3)
H15 H 0.0948 0.0426 0.2104
C29 C 0.1584(9) 0.0239(7) 0.1516(4)
H16 H 0.0939 0.0400 0.1368
C32 C 0.8408(10) 0.4824(7) 0.3356(3)
H19 H 0.9065 0.4690 0.3504
C33 C 0.8426(10) 0.4830(8) 0.2920(4)
H20 H 0.9098 0.4713 0.2776
C34 C 0.8353(10) 0.5351(7) 0.1995(3)
H21 H 0.8943 0.5604 0.2138
C35 C 0.8358(9) 0.5338(8) 0.1559(4)
H22 H 0.8961 0.5566 0.1411
C36 C 0.8416(15) 0.5043(10) 0.0645(5)
H23 H 0.9106 0.5064 0.0790
C37 C 0.8397(14) 0.5059(11) 0.0189(5)
H24 H 0.9085 0.5116 0.0045
Ag10 Ag 0.07125(8) 0.30804(6) 0.46666(3)
N15 N 0.8785(8) 0.5878(5) 0.4273(3)
N16 N 0.6242(9) 0.5891(6) 0.4287(3)
N17 N 0.8758(9) 0.4109(6) 0.4287(3)
N18 N 0.2500 0.0000 0.4939(4)
N19 N 0.7500 0.5000 0.4960(4)
N7 N 0.2500 0.0000 0.9939(4)
N9 N 0.7500 0.5000 0.9960(4)
Fe3 Fe 0.2500 0.0000 0.92317(6)
Fe7 Fe 0.7500 0.5000 0.92706(6)
Fe1_2 Fe 0.2500 1.0000 0.42317(6)
N6_2 N 0.2500 1.0000 0.3531(4)
C8_2 C 0.2500 1.0000 0.2650(4)
C9_2 C 0.2500 1.0000 0.2176(5)
C10 C 0.3416(9) 0.9752(7) 0.1955(3)
H3 H 0.4052 0.9574 0.2104
C11 C 0.3416(9) 0.9761(7) 0.1516(4)
H4 H 0.4061 0.9600 0.1368
C12_2 C 0.2500 1.0000 0.1291(5)
C13_2 C 0.2500 1.0000 0.0828(5)
C26 C 0.1620(10) 0.9741(8) 0.3319(3)
H13 H 0.0996 0.9555 0.3472
C27 C 0.1593(10) 0.9738(7) 0.2873(4)
H14 H 0.0955 0.9555 0.2728
C30 C 0.1565(10) 0.9792(7) 0.0598(3)
H17 H 0.0911 0.9633 0.0742
C31 C 0.1579(10) 0.9814(7) 0.0169(3)
H18 H 0.0915 0.9694 0.0021
Ag4 Ag 0.01382(8) 0.74255(5) 0.43210(4)
Ag5 Ag 0.59611(8) 0.82424(6) 0.45476(4)
Ag6 Ag 0.92875(8) 0.69196(6) 0.53334(3)
N10 N 0.1359(8) 0.9042(5) 0.4251(3)
N12 N 0.3869(8) 0.9187(6) 0.4218(3)
N13 N 0.7333(11) 0.7770(7) 0.4875(4)
C38 C 0.0922(9) 0.8502(6) 0.4276(4)
C40 C 0.4609(10) 0.8810(7) 0.4306(4)
C41 C 0.8014(12) 0.7481(8) 0.5042(4)
Ag9 Ag 0.42875(8) 0.69196(6) 0.46666(3)
N18_2 N 0.2500 1.0000 0.4939(4)
N7_2 N 0.2500 1.0000 0.9939(4)
Fe3_2 Fe 0.2500 1.0000 0.92317(6)
Ag2 Ag 0.90389(8) 0.17576(6) 0.45476(4)
Ag3 Ag 0.57125(8) 0.30804(6) 0.53334(3)
N4 N 0.7667(11) 0.2230(7) 0.4875(4)
N5 N 0.3758(9) 0.4109(6) 0.5713(3)
C4 C 0.6986(12) 0.2519(8) 0.5042(4)
C5 C 0.4457(13) 0.3695(9) 0.5613(4)
Ag8 Ag 0.40389(8) 0.17576(6) 0.54524(4)
C39 C 0.9305(10) 0.6390(6) 0.4291(4)
Ag2_2 Ag 0.09611(8) 0.17576(6) 0.04524(4)
N4_2 N 0.2333(11) 0.2230(7) 0.0125(4)
Ag3_2 Ag 0.42875(8) 0.30804(6) 0.96666(3)
N5_2 N 0.6242(9) 0.4109(6) 0.9287(3)
C4_2 C 0.3014(12) 0.2519(8) 0.9958(4)
C5_2 C 0.5543(13) 0.3695(9) 0.9387(4)
Ag8_2 Ag 0.59611(8) 0.17576(6) 0.95476(4)
N11 N 0.1215(8) 0.5878(5) 0.0727(3)
C39_2 C 0.0695(10) 0.6390(6) 0.0709(4)
Fe4 Fe 0.2500 0.5000 0.07294(6)
Ag1_2 Ag 0.51382(8) 0.25745(5) 0.06790(4)
Fe1_3 Fe 0.7500 0.0000 0.07683(6)
N1_2 N 0.6359(8) 0.0958(5) 0.0749(3)
N2_2 N 0.3785(8) 0.4122(5) 0.0727(3)
N3_2 N 0.8869(8) 0.0813(6) 0.0782(3)
N6_3 N 0.7500 0.0000 0.1469(4)
N7_3 N 0.7500 0.0000 0.5061(4)
N8_2 N 0.2500 0.5000 0.1424(4)
N9_2 N 0.2500 0.5000 0.5040(4)
C1_2 C 0.5922(9) 0.1498(6) 0.0724(4)
C2_2 C 0.4305(10) 0.3610(6) 0.0709(4)
C3_2 C 0.9609(10) 0.1190(7) 0.0694(4)
C6_2 C 0.6620(10) 0.0259(8) 0.1681(3)
H1_2 H 0.5996 0.0445 0.1528
C7_2 C 0.6593(10) 0.0262(7) 0.2127(4)
H2_2 H 0.5955 0.0445 0.2272
C8_3 C 0.7500 0.0000 0.2350(4)
C9_3 C 0.7500 -0.0000 0.2824(5)
C12_3 C 0.7500 0.0000 0.3709(5)
C13_3 C 0.7500 0.0000 0.4172(5)
C14_2 C 0.6565(10) 0.0208(7) 0.4402(3)
H5_2 H 0.5911 0.0367 0.4258
C15_2 C 0.6579(10) 0.0186(7) 0.4831(3)
H6_2 H 0.5915 0.0306 0.4979
C16_2 C 0.3408(10) 0.5176(7) 0.1644(3)
H7_2 H 0.4065 0.5310 0.1496
C17_2 C 0.3426(10) 0.5170(8) 0.2080(4)
H8_2 H 0.4098 0.5287 0.2224
C18_2 C 0.2500 0.5000 0.2309(5)
C19_2 C 0.2500 0.5000 0.2763(5)
C20_2 C 0.3353(10) 0.4649(7) 0.3005(3)
H9_2 H 0.3943 0.4396 0.2862
C21_2 C 0.3358(9) 0.4662(8) 0.3441(4)
H10_2 H 0.3961 0.4434 0.3589
C22_2 C 0.2500 0.5000 0.3669(5)
C23_2 C 0.2500 0.5000 0.4140(4)
C24_2 C 0.3416(15) 0.4957(10) 0.4355(5)
H11_2 H 0.4106 0.4936 0.4210
C25_2 C 0.3397(14) 0.4941(11) 0.4811(5)
H12_2 H 0.4085 0.4884 0.4955
C28_2 C 0.8416(9) 0.0248(7) 0.3045(3)
H15_2 H 0.9052 0.0426 0.2896
C29_2 C 0.8416(9) 0.0239(7) 0.3484(4)
H16_2 H 0.9061 0.0400 0.3632
C32_2 C 0.1592(10) 0.4824(7) 0.1644(3)
H19_2 H 0.0935 0.4690 0.1496
C33_2 C 0.1574(10) 0.4830(8) 0.2080(4)
H20_2 H 0.0902 0.4713 0.2224
C34_2 C 0.1647(10) 0.5351(7) 0.3005(3)
H21_2 H 0.1057 0.5604 0.2862
C35_2 C 0.1642(9) 0.5338(8) 0.3441(4)
H22_2 H 0.1039 0.5566 0.3589
C36_2 C 0.1584(15) 0.5043(10) 0.4355(5)
H23_2 H 0.0894 0.5064 0.4210
C37_2 C 0.1603(14) 0.5059(11) 0.4811(5)
H24_2 H 0.0915 0.5116 0.4955
Ag10_2 Ag 0.92875(8) 0.30804(6) 0.03334(3)
Fe3_3 Fe 0.7500 0.0000 0.57683(6)
N16_2 N 0.3758(9) 0.5891(6) 0.0713(3)
N17_2 N 0.1242(9) 0.4109(6) 0.0713(3)
N18_3 N 0.7500 0.0000 0.0061(4)
N19_2 N 0.2500 0.5000 0.0040(4)
Fe1_4 Fe 0.7500 1.0000 0.07683(6)
N6_4 N 0.7500 1.0000 0.1469(4)
N7_4 N 0.7500 1.0000 0.5061(4)
C8_4 C 0.7500 1.0000 0.2350(4)
C9_4 C 0.7500 1.0000 0.2824(5)
C10_2 C 0.6584(9) 0.9752(7) 0.3045(3)
H3_2 H 0.5948 0.9574 0.2896
C11_2 C 0.6584(9) 0.9761(7) 0.3484(4)
H4_2 H 0.5939 0.9600 0.3632
C12_4 C 0.7500 1.0000 0.3709(5)
C13_4 C 0.7500 1.0000 0.4172(5)
C26_2 C 0.8380(10) 0.9741(8) 0.1681(3)
H13_2 H 0.9004 0.9555 0.1528
C27_2 C 0.8407(10) 0.9738(7) 0.2127(4)
H14_2 H 0.9045 0.9555 0.2272
C30_2 C 0.8435(10) 0.9792(7) 0.4402(3)
H17_2 H 0.9089 0.9633 0.4258
C31_2 C 0.8421(10) 0.9814(7) 0.4831(3)
H18_2 H 0.9085 0.9694 0.4979
Ag4_2 Ag 0.98618(8) 0.74255(5) 0.06790(4)
Ag5_2 Ag 0.40389(8) 0.82424(6) 0.04524(4)
N10_2 N 0.8641(8) 0.9042(5) 0.0749(3)
N12_2 N 0.6131(8) 0.9187(6) 0.0782(3)
N13_2 N 0.2667(11) 0.7770(7) 0.0125(4)
C38_2 C 0.9078(9) 0.8502(6) 0.0724(4)
C40_2 C 0.5391(10) 0.8810(7) 0.0694(4)
Ag9_2 Ag 0.57125(8) 0.69196(6) 0.03334(3)
Fe3_4 Fe 0.7500 1.0000 0.57683(6)
N18_4 N 0.7500 1.0000 0.0061(4)
Ag6_2 Ag 0.07125(8) 0.69196(6) 0.96666(3)
C41_2 C 0.1986(12) 0.7481(8) 0.9958(4)
N14_2 N 0.8758(9) 0.5891(6) 0.9287(3)
C42_2 C 0.9457(13) 0.6305(9) 0.9387(4)
Ag7_2 Ag 0.90389(8) 0.82424(6) 0.95476(4)
N11_2 N 0.1215(8) 0.4122(5) 0.5727(3)
C39_3 C 0.0695(10) 0.3610(6) 0.5709(4)
N4_3 N 0.2333(11) 0.7770(7) 0.5125(4)
C4_3 C 0.3014(12) 0.7481(8) 0.4958(4)
C5_3 C 0.5543(13) 0.6305(9) 0.4387(4)
N6_5 N 0.7500 0.0000 0.6469(4)
C8_5 C 0.7500 0.0000 0.7350(4)
C9_5 C 0.7500 0.0000 0.7824(5)
C10_3 C 0.6584(9) 0.0248(7) 0.8045(3)
H3_3 H 0.5948 0.0426 0.7896
C11_3 C 0.6584(9) 0.0239(7) 0.8484(4)
H4_3 H 0.5939 0.0400 0.8632
C12_5 C 0.7500 0.0000 0.8709(5)
C13_5 C 0.7500 0.0000 0.9172(5)
C26_3 C 0.8380(10) 0.0259(8) 0.6681(3)
H13_3 H 0.9004 0.0445 0.6528
C27_3 C 0.8407(10) 0.0262(7) 0.7127(4)
H14_3 H 0.9045 0.0445 0.7272
C30_3 C 0.8435(10) 0.0208(7) 0.9402(3)
H17_3 H 0.9089 0.0367 0.9258
C31_3 C 0.8421(10) 0.0186(7) 0.9831(3)
H18_3 H 0.9085 0.0306 0.9979
Ag4_3 Ag 0.98618(8) 0.25745(5) 0.56790(4)
N10_3 N 0.8641(8) 0.0958(5) 0.5749(3)
N12_3 N 0.6131(8) 0.0813(6) 0.5782(3)
N13_3 N 0.2667(11) 0.2230(7) 0.5125(4)
C38_3 C 0.9078(9) 0.1498(6) 0.5724(4)
C40_3 C 0.5391(10) 0.1190(7) 0.5694(4)
C41_3 C 0.1986(12) 0.2519(8) 0.4958(4)
Ag1_3 Ag 0.51382(8) 0.74255(5) 0.56790(4)
N1_3 N 0.6359(8) 0.9042(5) 0.5749(3)
N2_3 N 0.3785(8) 0.5878(5) 0.5727(3)
N3_3 N 0.8869(8) 0.9187(6) 0.5782(3)
N6_6 N 0.7500 1.0000 0.6469(4)
N8_3 N 0.2500 0.5000 0.6424(4)
C1_3 C 0.5922(9) 0.8502(6) 0.5724(4)
C2_3 C 0.4305(10) 0.6390(6) 0.5709(4)
C3_3 C 0.9609(10) 0.8810(7) 0.5694(4)
C6_3 C 0.6620(10) 0.9741(8) 0.6681(3)
H1_3 H 0.5996 0.9555 0.6528
C7_3 C 0.6593(10) 0.9738(7) 0.7127(4)
H2_3 H 0.5955 0.9555 0.7272
C8_6 C 0.7500 1.0000 0.7350(4)
C9_6 C 0.7500 1.0000 0.7824(5)
C12_6 C 0.7500 1.0000 0.8709(5)
C13_6 C 0.7500 1.0000 0.9172(5)
C14_3 C 0.6565(10) 0.9792(7) 0.9402(3)
H5_3 H 0.5911 0.9633 0.9258
C15_3 C 0.6579(10) 0.9814(7) 0.9831(3)
H6_3 H 0.5915 0.9694 0.9979
C16_3 C 0.3408(10) 0.4824(7) 0.6644(3)
H7_3 H 0.4065 0.4690 0.6496
C17_3 C 0.3426(10) 0.4830(8) 0.7080(4)
H8_3 H 0.4098 0.4713 0.7224
C18_3 C 0.2500 0.5000 0.7309(5)
C19_3 C 0.2500 0.5000 0.7763(5)
C20_3 C 0.3353(10) 0.5351(7) 0.8005(3)
H9_3 H 0.3943 0.5604 0.7862
C21_3 C 0.3358(9) 0.5338(8) 0.8441(4)
H10_3 H 0.3961 0.5566 0.8589
C22_3 C 0.2500 0.5000 0.8669(5)
C23_3 C 0.2500 0.5000 0.9140(4)
C24_3 C 0.3416(15) 0.5043(10) 0.9355(5)
H11_3 H 0.4106 0.5064 0.9210
C25_3 C 0.3397(14) 0.5059(11) 0.9811(5)
H12_3 H 0.4085 0.5116 0.9955
C28_3 C 0.8416(9) 0.9752(7) 0.8045(3)
H15_3 H 0.9052 0.9574 0.7896
C29_3 C 0.8416(9) 0.9761(7) 0.8484(4)
H16_3 H 0.9061 0.9600 0.8632
C32_3 C 0.1592(10) 0.5176(7) 0.6644(3)
H19_3 H 0.0935 0.5310 0.6496
C33_3 C 0.1574(10) 0.5170(8) 0.7080(4)
H20_3 H 0.0902 0.5287 0.7224
C34_3 C 0.1647(10) 0.4649(7) 0.8005(3)
H21_3 H 0.1057 0.4396 0.7862
C35_3 C 0.1642(9) 0.4662(8) 0.8441(4)
H22_3 H 0.1039 0.4434 0.8589
C36_3 C 0.1584(15) 0.4957(10) 0.9355(5)
H23_3 H 0.0894 0.4936 0.9210
C37_3 C 0.1603(14) 0.4941(11) 0.9811(5)
H24_3 H 0.0915 0.4884 0.9955
C42_3 C 0.9457(13) 0.3695(9) 0.4387(4)
C42_4 C 0.0543(13) 0.3695(9) 0.0613(4)
C41_4 C 0.8014(12) 0.2519(8) 0.0042(4)
N6_7 N 0.2500 -0.0000 0.8531(4)
C8_7 C 0.2500 0.0000 0.7650(4)
C9_7 C 0.2500 0.0000 0.7176(5)
C10_4 C 0.3416(9) 0.0248(7) 0.6955(3)
H3_4 H 0.4052 0.0426 0.7104
C11_4 C 0.3416(9) 0.0239(7) 0.6516(4)
H4_4 H 0.4061 0.0400 0.6368
C12_7 C 0.2500 0.0000 0.6291(5)
C13_7 C 0.2500 0.0000 0.5828(5)
C26_4 C 0.1620(10) 0.0259(8) 0.8319(3)
H13_4 H 0.0996 0.0445 0.8472
C27_4 C 0.1593(10) 0.0262(7) 0.7873(4)
H14_4 H 0.0955 0.0445 0.7728
C30_4 C 0.1565(10) 0.0208(7) 0.5598(3)
H17_4 H 0.0911 0.0367 0.5742
C31_4 C 0.1579(10) 0.0186(7) 0.5169(3)
H18_4 H 0.0915 0.0306 0.5021
Ag4_4 Ag 0.01382(8) 0.25745(5) 0.93210(4)
N10_4 N 0.1359(8) 0.0958(5) 0.9251(3)
N12_4 N 0.3869(8) 0.0813(6) 0.9218(3)
N13_4 N 0.7333(11) 0.2230(7) 0.9875(4)
C38_4 C 0.0922(9) 0.1498(6) 0.9276(4)
C40_4 C 0.4609(10) 0.1190(7) 0.9306(4)
Ag1_4 Ag 0.48618(8) 0.74255(5) 0.93210(4)
N1_4 N 0.3641(8) 0.9042(5) 0.9251(3)
N2_4 N 0.6215(8) 0.5878(5) 0.9273(3)
N3_4 N 0.1131(8) 0.9187(6) 0.9218(3)
N6_8 N 0.2500 1.0000 0.8531(4)
N8_4 N 0.7500 0.5000 0.8576(4)
C1_4 C 0.4078(9) 0.8502(6) 0.9276(4)
C2_4 C 0.5695(10) 0.6390(6) 0.9291(4)
C3_4 C 0.0391(10) 0.8810(7) 0.9306(4)
C6_4 C 0.3380(10) 0.9741(8) 0.8319(3)
H1_4 H 0.4004 0.9555 0.8472
C7_4 C 0.3407(10) 0.9738(7) 0.7873(4)
H2_4 H 0.4045 0.9555 0.7728
C8_8 C 0.2500 1.0000 0.7650(4)
C9_8 C 0.2500 1.0000 0.7176(5)
C12_8 C 0.2500 1.0000 0.6291(5)
C13_8 C 0.2500 1.0000 0.5828(5)
C14_4 C 0.3435(10) 0.9792(7) 0.5598(3)
H5_4 H 0.4089 0.9633 0.5742
C15_4 C 0.3421(10) 0.9814(7) 0.5169(3)
H6_4 H 0.4085 0.9694 0.5021
C16_4 C 0.6592(10) 0.4824(7) 0.8356(3)
H7_4 H 0.5935 0.4690 0.8504
C17_4 C 0.6574(10) 0.4830(8) 0.7920(4)
H8_4 H 0.5902 0.4713 0.7776
C18_4 C 0.7500 0.5000 0.7691(5)
C19_4 C 0.7500 0.5000 0.7237(5)
C20_4 C 0.6647(10) 0.5351(7) 0.6995(3)
H9_4 H 0.6057 0.5604 0.7138
C21_4 C 0.6642(9) 0.5338(8) 0.6559(4)
H10_4 H 0.6039 0.5566 0.6411
C22_4 C 0.7500 0.5000 0.6331(5)
C23_4 C 0.7500 0.5000 0.5860(4)
C24_4 C 0.6584(15) 0.5043(10) 0.5645(5)
H11_4 H 0.5894 0.5064 0.5790
C25_4 C 0.6603(14) 0.5059(11) 0.5189(5)
H12_4 H 0.5915 0.5116 0.5045
C28_4 C 0.1584(9) 0.9752(7) 0.6955(3)
H15_4 H 0.0948 0.9574 0.7104
C29_4 C 0.1584(9) 0.9761(7) 0.6516(4)
H16_4 H 0.0939 0.9600 0.6368
C32_4 C 0.8408(10) 0.5176(7) 0.8356(3)
H19_4 H 0.9065 0.5310 0.8504
C33_4 C 0.8426(10) 0.5170(8) 0.7920(4)
H20_4 H 0.9098 0.5287 0.7776
C34_4 C 0.8353(10) 0.4649(7) 0.6995(3)
H21_4 H 0.8943 0.4396 0.7138
C35_4 C 0.8358(9) 0.4662(8) 0.6559(4)
H22_4 H 0.8961 0.4434 0.6411
C36_4 C 0.8416(15) 0.4957(10) 0.5645(5)
H23_4 H 0.9106 0.4936 0.5790
C37_4 C 0.8397(14) 0.4941(11) 0.5189(5)
H24_4 H 0.9085 0.4884 0.5045
N15_2 N 0.8785(8) 0.4122(5) 0.9273(3)
C39_4 C 0.9305(10) 0.3610(6) 0.9291(4)
C4_4 C 0.6986(12) 0.7481(8) 0.0042(4)
C5_4 C 0.4457(13) 0.6305(9) 0.0613(4)
N4_4 N 0.7667(11) 0.7770(7) 0.9875(4)
loop_
_geom_bond_atom_site_label_1
_geom_bond_atom_site_label_2
_geom_bond_site_symmetry_1
_geom_bond_site_symmetry_2
N14 C42 1_555 1_555
Fe6 N14 1_555 1_555
Ag1 C1 1_555 1_555
Fe1 N1 1_555 1_555
Fe2 N2 1_555 1_555
N1 C1 1_555 1_555
N2 C2 1_555 1_555
N3 Fe1 1_555 1_555
N6 Fe1 1_555 1_555
N8 Fe2 1_555 1_555
C2 Ag1 1_555 1_555
C6 N6 1_555 1_555
H1 C6 1_555 1_555
C7 C6 1_555 1_555
H2 C7 1_555 1_555
C8 C7 1_555 1_555
C9 C8 1_555 1_555
C13 C12 1_555 1_555
C14 C13 1_555 1_555
H5 C14 1_555 1_555
C15 C14 1_555 1_555
H6 C15 1_555 1_555
C16 N8 1_555 1_555
H7 C16 1_555 1_555
C17 C16 1_555 1_555
H8 C17 1_555 1_555
C18 C17 1_555 1_555
C19 C18 1_555 1_555
C20 C19 1_555 1_555
H9 C20 1_555 1_555
C21 C20 1_555 1_555
H10 C21 1_555 1_555
C22 C21 1_555 1_555
C23 C22 1_555 1_555
C24 C23 1_555 1_555
H11 C24 1_555 1_555
C25 C24 1_555 1_555
H12 C25 1_555 1_555
C28 C9 1_555 1_555
H15 C28 1_555 1_555
C29 C12 1_555 1_555
H16 C29 1_555 1_555
C32 N8 1_555 1_555
H19 C32 1_555 1_555
C33 C18 1_555 1_555
H20 C33 1_555 1_555
C34 C19 1_555 1_555
H21 C34 1_555 1_555
C35 C22 1_555 1_555
H22 C35 1_555 1_555
C36 C23 1_555 1_555
H23 C36 1_555 1_555
H24 C37 1_555 1_555
N15 Fe2 1_555 1_555
N16 Fe2 1_555 1_555
N17 Fe2 1_555 1_555
N18 Fe1 1_555 1_555
N19 Fe2 1_555 1_555
N3 C3 1_555 1_555
C28 C29 1_555 1_555
C32 C33 1_555 1_555
C34 C35 1_555 1_555
C36 C37 1_555 1_555
Fe3 N7 1_555 1_555
Fe7 N9 1_555 1_555
N6_2 Fe1_2 1_555 1_555
C9_2 C8_2 1_555 1_555
C10 C9_2 1_555 1_555
H3 C10 1_555 1_555
C11 C10 1_555 1_555
H4 C11 1_555 1_555
C12_2 C11 1_555 1_555
C13_2 C12_2 1_555 1_555
C26 N6_2 1_555 1_555
H13 C26 1_555 1_555
C27 C8_2 1_555 1_555
H14 C27 1_555 1_555
C30 C13_2 1_555 1_555
H17 C30 1_555 1_555
H18 C31 1_555 1_555
Ag4 C38 1_555 1_555
Ag5 N13 1_555 1_555
Ag6 C41 1_555 1_555
N10 Fe1_2 1_555 1_555
N12 Fe1_2 1_555 1_555
N13 C41 1_555 1_555
C38 N10 1_555 1_555
C40 Ag5 1_555 1_555
Ag9 Ag5 1_555 1_555
N18_2 Fe1_2 1_555 1_555
C26 C27 1_555 1_555
C30 C31 1_555 1_555
N12 C40 1_555 1_555
Fe3_2 N7_2 1_555 1_555
Ag2 N4 1_555 1_555
Ag3 C4 1_555 1_555
N4 C4 1_555 1_555
N5 C5 1_555 1_555
C5 Ag3 1_555 1_555
Ag8 Ag3 1_555 1_555
Fe6 N5 1_555 1_555
N15 C39 1_555 1_555
Ag2_2 N4_2 1_555 1_555
Ag3_2 C4_2 1_555 1_555
N5_2 C5_2 1_555 1_555
C5_2 Ag3_2 1_555 1_555
Ag8_2 Ag3_2 1_555 1_555
Fe7 N5_2 1_555 1_555
N11 C39_2 1_555 1_555
Fe4 N11 1_555 1_555
Ag1_2 C1_2 1_555 1_555
Fe1_3 N1_2 1_555 1_555
Fe4 N2_2 1_555 1_555
N1_2 C1_2 1_555 1_555
N2_2 C2_2 1_555 1_555
N3_2 Fe1_3 1_555 1_555
N6_3 Fe1_3 1_555 1_555
N7_3 C15_2 1_555 1_555
N8_2 Fe4 1_555 1_555
N9_2 C25_2 1_555 1_555
C2_2 Ag1_2 1_555 1_555
C6_2 N6_3 1_555 1_555
H1_2 C6_2 1_555 1_555
C7_2 C6_2 1_555 1_555
H2_2 C7_2 1_555 1_555
C8_3 C7_2 1_555 1_555
C9_3 C8_3 1_555 1_555
C13_3 C12_3 1_555 1_555
C14_2 C13_3 1_555 1_555
H5_2 C14_2 1_555 1_555
C15_2 C14_2 1_555 1_555
H6_2 C15_2 1_555 1_555
C16_2 N8_2 1_555 1_555
H7_2 C16_2 1_555 1_555
C17_2 C16_2 1_555 1_555
H8_2 C17_2 1_555 1_555
C18_2 C17_2 1_555 1_555
C19_2 C18_2 1_555 1_555
C20_2 C19_2 1_555 1_555
H9_2 C20_2 1_555 1_555
C21_2 C20_2 1_555 1_555
H10_2 C21_2 1_555 1_555
C22_2 C21_2 1_555 1_555
C23_2 C22_2 1_555 1_555
C24_2 C23_2 1_555 1_555
H11_2 C24_2 1_555 1_555
C25_2 C24_2 1_555 1_555
H12_2 C25_2 1_555 1_555
C28_2 C9_3 1_555 1_555
H15_2 C28_2 1_555 1_555
C29_2 C12_3 1_555 1_555
H16_2 C29_2 1_555 1_555
C32_2 N8_2 1_555 1_555
H19_2 C32_2 1_555 1_555
C33_2 C18_2 1_555 1_555
H20_2 C33_2 1_555 1_555
C34_2 C19_2 1_555 1_555
H21_2 C34_2 1_555 1_555
C35_2 C22_2 1_555 1_555
H22_2 C35_2 1_555 1_555
C36_2 C23_2 1_555 1_555
H23_2 C36_2 1_555 1_555
C37_2 N9_2 1_555 1_555
H24_2 C37_2 1_555 1_555
Fe3_3 N7_3 1_555 1_555
Fe6 N9_2 1_555 1_555
N16_2 Fe4 1_555 1_555
N17_2 Fe4 1_555 1_555
N18_3 Fe1_3 1_555 1_555
N19_2 Fe4 1_555 1_555
N3_2 C3_2 1_555 1_555
C28_2 C29_2 1_555 1_555
C32_2 C33_2 1_555 1_555
C34_2 C35_2 1_555 1_555
C36_2 C37_2 1_555 1_555
N6_4 Fe1_4 1_555 1_555
C9_4 C8_4 1_555 1_555
C10_2 C9_4 1_555 1_555
H3_2 C10_2 1_555 1_555
C11_2 C10_2 1_555 1_555
H4_2 C11_2 1_555 1_555
C12_4 C11_2 1_555 1_555
C13_4 C12_4 1_555 1_555
C26_2 N6_4 1_555 1_555
H13_2 C26_2 1_555 1_555
C27_2 C8_4 1_555 1_555
H14_2 C27_2 1_555 1_555
C30_2 C13_4 1_555 1_555
H17_2 C30_2 1_555 1_555
C31_2 N7_4 1_555 1_555
H18_2 C31_2 1_555 1_555
Ag4_2 C38_2 1_555 1_555
Ag5_2 N13_2 1_555 1_555
N10_2 Fe1_4 1_555 1_555
N12_2 Fe1_4 1_555 1_555
C38_2 N10_2 1_555 1_555
C40_2 Ag5_2 1_555 1_555
Ag9_2 Ag5_2 1_555 1_555
Fe3_4 N7_4 1_555 1_555
N18_4 Fe1_4 1_555 1_555
C26_2 C27_2 1_555 1_555
C30_2 C31_2 1_555 1_555
N12_2 C40_2 1_555 1_555
Ag6_2 C41_2 1_555 1_555
N14_2 C42_2 1_555 1_555
Fe7 N14_2 1_555 1_555
N11_2 C39_3 1_555 1_555
Fe6 N11_2 1_555 1_555
Ag7 N4_3 1_555 1_555
Ag9 C4_3 1_555 1_555
N4_3 C4_3 1_555 1_555
N16 C5_3 1_555 1_555
C5_3 Ag9 1_555 1_555
N6_5 Fe3_3 1_555 1_555
C9_5 C8_5 1_555 1_555
C10_3 C9_5 1_555 1_555
H3_3 C10_3 1_555 1_555
C11_3 C10_3 1_555 1_555
H4_3 C11_3 1_555 1_555
C12_5 C11_3 1_555 1_555
C13_5 C12_5 1_555 1_555
C26_3 N6_5 1_555 1_555
H13_3 C26_3 1_555 1_555
C27_3 C8_5 1_555 1_555
H14_3 C27_3 1_555 1_555
C30_3 C13_5 1_555 1_555
H17_3 C30_3 1_555 1_555
H18_3 C31_3 1_555 1_555
Ag4_3 C38_3 1_555 1_555
Ag8 N13_3 1_555 1_555
Ag10 C41_3 1_555 1_555
N10_3 Fe3_3 1_555 1_555
N12_3 Fe3_3 1_555 1_555
N13_3 C41_3 1_555 1_555
C38_3 N10_3 1_555 1_555
C40_3 Ag8 1_555 1_555
C26_3 C27_3 1_555 1_555
C30_3 C31_3 1_555 1_555
N12_3 C40_3 1_555 1_555
Ag1_3 C1_3 1_555 1_555
Fe3_4 N1_3 1_555 1_555
Fe6 N2_3 1_555 1_555
N1_3 C1_3 1_555 1_555
N2_3 C2_3 1_555 1_555
N3_3 Fe3_4 1_555 1_555
N6_6 Fe3_4 1_555 1_555
N8_3 Fe6 1_555 1_555
C2_3 Ag1_3 1_555 1_555
C6_3 N6_6 1_555 1_555
H1_3 C6_3 1_555 1_555
C7_3 C6_3 1_555 1_555
H2_3 C7_3 1_555 1_555
C8_6 C7_3 1_555 1_555
C9_6 C8_6 1_555 1_555
C13_6 C12_6 1_555 1_555
C14_3 C13_6 1_555 1_555
H5_3 C14_3 1_555 1_555
C15_3 C14_3 1_555 1_555
H6_3 C15_3 1_555 1_555
C16_3 N8_3 1_555 1_555
H7_3 C16_3 1_555 1_555
C17_3 C16_3 1_555 1_555
H8_3 C17_3 1_555 1_555
C18_3 C17_3 1_555 1_555
C19_3 C18_3 1_555 1_555
C20_3 C19_3 1_555 1_555
H9_3 C20_3 1_555 1_555
C21_3 C20_3 1_555 1_555
H10_3 C21_3 1_555 1_555
C22_3 C21_3 1_555 1_555
C23_3 C22_3 1_555 1_555
C24_3 C23_3 1_555 1_555
H11_3 C24_3 1_555 1_555
C25_3 C24_3 1_555 1_555
H12_3 C25_3 1_555 1_555
C28_3 C9_6 1_555 1_555
H15_3 C28_3 1_555 1_555
C29_3 C12_6 1_555 1_555
H16_3 C29_3 1_555 1_555
C32_3 N8_3 1_555 1_555
H19_3 C32_3 1_555 1_555
C33_3 C18_3 1_555 1_555
H20_3 C33_3 1_555 1_555
C34_3 C19_3 1_555 1_555
H21_3 C34_3 1_555 1_555
C35_3 C22_3 1_555 1_555
H22_3 C35_3 1_555 1_555
C36_3 C23_3 1_555 1_555
H23_3 C36_3 1_555 1_555
H24_3 C37_3 1_555 1_555
N3_3 C3_3 1_555 1_555
C28_3 C29_3 1_555 1_555
C32_3 C33_3 1_555 1_555
C34_3 C35_3 1_555 1_555
C36_3 C37_3 1_555 1_555
N17 C42_3 1_555 1_555
N17_2 C42_4 1_555 1_555
Ag10_2 C41_4 1_555 1_555
N6_7 Fe3 1_555 1_555
C9_7 C8_7 1_555 1_555
C10_4 C9_7 1_555 1_555
H3_4 C10_4 1_555 1_555
C11_4 C10_4 1_555 1_555
H4_4 C11_4 1_555 1_555
C12_7 C11_4 1_555 1_555
C13_7 C12_7 1_555 1_555
C26_4 N6_7 1_555 1_555
H13_4 C26_4 1_555 1_555
C27_4 C8_7 1_555 1_555
H14_4 C27_4 1_555 1_555
C30_4 C13_7 1_555 1_555
H17_4 C30_4 1_555 1_555
C31_4 N18 1_555 1_555
H18_4 C31_4 1_555 1_555
Ag4_4 C38_4 1_555 1_555
Ag8_2 N13_4 1_555 1_555
N10_4 Fe3 1_555 1_555
N12_4 Fe3 1_555 1_555
C38_4 N10_4 1_555 1_555
C40_4 Ag8_2 1_555 1_555
C26_4 C27_4 1_555 1_555
C30_4 C31_4 1_555 1_555
N12_4 C40_4 1_555 1_555
Ag1_4 C1_4 1_555 1_555
Fe3_2 N1_4 1_555 1_555
Fe7 N2_4 1_555 1_555
N1_4 C1_4 1_555 1_555
N2_4 C2_4 1_555 1_555
N3_4 Fe3_2 1_555 1_555
N6_8 Fe3_2 1_555 1_555
N18_2 C15_4 1_555 1_555
N8_4 Fe7 1_555 1_555
N19 C25_4 1_555 1_555
C2_4 Ag1_4 1_555 1_555
C6_4 N6_8 1_555 1_555
H1_4 C6_4 1_555 1_555
C7_4 C6_4 1_555 1_555
H2_4 C7_4 1_555 1_555
C8_8 C7_4 1_555 1_555
C9_8 C8_8 1_555 1_555
C13_8 C12_8 1_555 1_555
C14_4 C13_8 1_555 1_555
H5_4 C14_4 1_555 1_555
C15_4 C14_4 1_555 1_555
H6_4 C15_4 1_555 1_555
C16_4 N8_4 1_555 1_555
H7_4 C16_4 1_555 1_555
C17_4 C16_4 1_555 1_555
H8_4 C17_4 1_555 1_555
C18_4 C17_4 1_555 1_555
C19_4 C18_4 1_555 1_555
C20_4 C19_4 1_555 1_555
H9_4 C20_4 1_555 1_555
C21_4 C20_4 1_555 1_555
H10_4 C21_4 1_555 1_555
C22_4 C21_4 1_555 1_555
C23_4 C22_4 1_555 1_555
C24_4 C23_4 1_555 1_555
H11_4 C24_4 1_555 1_555
C25_4 C24_4 1_555 1_555
H12_4 C25_4 1_555 1_555
C28_4 C9_8 1_555 1_555
H15_4 C28_4 1_555 1_555
C29_4 C12_8 1_555 1_555
H16_4 C29_4 1_555 1_555
C32_4 N8_4 1_555 1_555
H19_4 C32_4 1_555 1_555
C33_4 C18_4 1_555 1_555
H20_4 C33_4 1_555 1_555
C34_4 C19_4 1_555 1_555
H21_4 C34_4 1_555 1_555
C35_4 C22_4 1_555 1_555
H22_4 C35_4 1_555 1_555
C36_4 C23_4 1_555 1_555
H23_4 C36_4 1_555 1_555
C37_4 N19 1_555 1_555
H24_4 C37_4 1_555 1_555
N15_2 Fe7 1_555 1_555
N3_4 C3_4 1_555 1_555
C28_4 C29_4 1_555 1_555
C32_4 C33_4 1_555 1_555
C34_4 C35_4 1_555 1_555
C36_4 C37_4 1_555 1_555
N15_2 C39_4 1_555 1_555
Ag9_2 C4_4 1_555 1_555
N16_2 C5_4 1_555 1_555
C5_4 Ag9_2 1_555 1_555
Ag7_2 N4_4 1_555 1_555

#END
