
###############################################################################
#
# This file contains modified crystal structure data generated from the
# MOF subset of the Cambridge Structural Database (CSD) v543 
# hosted by the Cambridge Crystallographic Data Centre (CCDC).
#
# This work is licensed under the Creative Commons
# Attribution-NonCommercial-ShareAlike 4.0 International License.
# To view a copy of this license, visit
# http://creativecommons.org/licenses/by-nc-sa/4.0/
# or send a letter to
# Creative Commons, PO Box 1866, Mountain View, CA 94042, USA.
#
# CIF created using the CSD Python API on 29 September 2022
# The structure has been converted into the P1 space group
# The structure has a 3D framework
# The original CSD entry POHCOG01 is in the orthorhombic crystal system
# The framework has been calculated to contain at least 10.0% void space
# The void calculation uses a probe of radius 1.32A, grid spacing 0.4
#
###############################################################################

data_POHCOG01
_chemical_formula_moiety         '(C184 H96 Ag24 Fe12 N58)n'
_symmetry_cell_setting           triclinic
_symmetry_space_group_name_H-M   'P 1'
_symmetry_Int_Tables_number      1
_space_group_name_Hall           'P 1'
loop_
_symmetry_equiv_pos_site_id
_symmetry_equiv_pos_as_xyz
1 x,y,z
_cell_length_a                   12.0015(5)
_cell_length_b                   17.0849(8)
_cell_length_c                   31.3706(16)
_cell_angle_alpha                90
_cell_angle_beta                 90
_cell_angle_gamma                90
_cell_volume                     6432.37
loop_
_atom_site_label
_atom_site_type_symbol
_atom_site_fract_x
_atom_site_fract_y
_atom_site_fract_z
N14 N 0.1267(7) 0.5855(5) 0.5704(3)
C42 C 0.0589(10) 0.6275(7) 0.5610(3)
Ag7 Ag 0.09517(7) 0.82472(5) 0.54587(3)
Fe6 Fe 0.2500 0.5000 0.57225(6)
Ag1 Ag 0.48760(7) 0.25723(4) 0.43198(3)
Fe1 Fe 0.2500 0.0000 0.42320(6)
Fe2 Fe 0.7500 0.5000 0.42775(6)
N1 N 0.3606(7) 0.0949(5) 0.4247(2)
N2 N 0.6252(7) 0.4132(5) 0.4278(2)
N3 N 0.1164(7) 0.0804(5) 0.4226(2)
N6 N 0.2500 0.0000 0.3539(3)
N8 N 0.7500 0.5000 0.3583(4)
C1 C 0.4083(8) 0.1483(6) 0.4283(3)
C2 C 0.5677(9) 0.3619(5) 0.4291(3)
C3 C 0.0419(8) 0.1196(6) 0.4297(3)
C6 C 0.3387(11) 0.0245(7) 0.3341(4)
H1 H 0.4010 0.0433 0.3497
C7 C 0.3407(10) 0.0226(7) 0.2886(4)
H2 H 0.4071 0.0375 0.2743
C8 C 0.2500 -0.0000 0.2649(4)
C9 C 0.2500 0.0000 0.2176(5)
C12 C 0.2500 0.0000 0.1296(5)
C13 C 0.2500 0.0000 0.0830(5)
C14 C 0.3442(7) 0.0189(6) 0.0580(3)
H5 H 0.4116 0.0328 0.0719
C15 C 0.3415(8) 0.0178(6) 0.0140(3)
C16 C 0.6585(9) 0.5135(7) 0.3382(3)
H7 H 0.5923 0.5226 0.3540
C17 C 0.6540(8) 0.5152(7) 0.2935(4)
H8 H 0.5859 0.5267 0.2795
C18 C 0.7500 0.5000 0.2699(4)
C19 C 0.7500 0.5000 0.2240(5)
C20 C 0.6637(8) 0.4627(6) 0.2001(3)
H9 H 0.6050 0.4369 0.2147
C21 C 0.6640(8) 0.4634(6) 0.1569(3)
H10 H 0.6050 0.4387 0.1418
C22 C 0.7500 0.5000 0.1341(5)
C23 C 0.7500 0.5000 0.0865(4)
C24 C 0.6560(12) 0.4972(9) 0.0622(4)
H11 H 0.5857 0.4956 0.0761
C25 C 0.6586(14) 0.4964(9) 0.0175(5)
H12 H 0.5903 0.4932 0.0022
C28 C 0.1593(8) 0.0252(6) 0.1952(3)
H15 H 0.0954 0.0432 0.2102
C29 C 0.1588(8) 0.0251(6) 0.1524(3)
H16 H 0.0944 0.0426 0.1376
C32 C 0.8415(9) 0.4865(7) 0.3382(3)
H19 H 0.9077 0.4774 0.3540
C33 C 0.8460(8) 0.4848(7) 0.2935(4)
H20 H 0.9141 0.4733 0.2795
C34 C 0.8363(8) 0.5373(6) 0.2001(3)
H21 H 0.8950 0.5631 0.2147
C35 C 0.8360(8) 0.5366(6) 0.1569(3)
H22 H 0.8950 0.5613 0.1418
C36 C 0.8440(12) 0.5028(9) 0.0622(4)
H23 H 0.9143 0.5044 0.0761
C37 C 0.8414(14) 0.5036(9) 0.0175(5)
H24 H 0.9097 0.5068 0.0022
Ag10 Ag 0.07005(7) 0.30804(5) 0.46587(3)
N15 N 0.8748(7) 0.5868(5) 0.4278(2)
N16 N 0.6267(7) 0.5855(5) 0.4296(3)
N17 N 0.8733(7) 0.4145(5) 0.4296(3)
N18 N 0.2500 0.0000 0.4925(4)
N19 N 0.7500 0.5000 0.4964(4)
N7 N 0.2500 0.0000 0.9925(4)
N9 N 0.7500 0.5000 0.9964(4)
H6 H 0.4074 0.0303 0.9986
Fe3 Fe 0.2500 0.0000 0.92320(6)
Fe7 Fe 0.7500 0.5000 0.92775(6)
Fe1_2 Fe 0.2500 1.0000 0.42320(6)
N6_2 N 0.2500 1.0000 0.3539(3)
C8_2 C 0.2500 1.0000 0.2649(4)
C9_2 C 0.2500 1.0000 0.2176(5)
C10 C 0.3407(8) 0.9748(6) 0.1952(3)
H3 H 0.4046 0.9568 0.2102
C11 C 0.3412(8) 0.9749(6) 0.1524(3)
H4 H 0.4056 0.9574 0.1376
C12_2 C 0.2500 1.0000 0.1296(5)
C13_2 C 0.2500 1.0000 0.0830(5)
C26 C 0.1613(11) 0.9755(7) 0.3341(4)
H13 H 0.0990 0.9567 0.3497
C27 C 0.1593(10) 0.9774(7) 0.2886(4)
H14 H 0.0929 0.9625 0.2743
C30 C 0.1558(7) 0.9811(6) 0.0580(3)
H17 H 0.0884 0.9672 0.0719
C31 C 0.1585(8) 0.9822(6) 0.0140(3)
Ag4 Ag 0.01240(7) 0.74277(4) 0.43198(3)
Ag5 Ag 0.59517(7) 0.82472(5) 0.45413(3)
Ag6 Ag 0.92995(7) 0.69196(5) 0.53413(3)
N10 N 0.1394(7) 0.9051(5) 0.4247(2)
N12 N 0.3836(7) 0.9196(5) 0.4226(2)
N13 N 0.7322(11) 0.7767(6) 0.4867(4)
C38 C 0.0917(8) 0.8517(6) 0.4283(3)
C40 C 0.4581(8) 0.8804(6) 0.4297(3)
C41 C 0.8003(10) 0.7475(6) 0.5049(3)
Ag9 Ag 0.42995(7) 0.69196(5) 0.46587(3)
N18_2 N 0.2500 1.0000 0.4925(4)
N7_2 N 0.2500 1.0000 0.9925(4)
H18 H 0.0926 0.9697 0.9986
Fe3_2 Fe 0.2500 1.0000 0.92320(6)
Ag2 Ag 0.90483(7) 0.17528(5) 0.45413(3)
Ag3 Ag 0.57005(7) 0.30804(5) 0.53413(3)
N4 N 0.7678(11) 0.2233(6) 0.4867(4)
N5 N 0.3733(7) 0.4145(5) 0.5704(3)
C4 C 0.6997(10) 0.2525(6) 0.5049(3)
C5 C 0.4411(10) 0.3725(7) 0.5610(3)
Ag8 Ag 0.40483(7) 0.17528(5) 0.54587(3)
C39 C 0.9323(9) 0.6381(5) 0.4291(3)
Ag2_2 Ag 0.09517(7) 0.17528(5) 0.04587(3)
N4_2 N 0.2322(11) 0.2233(6) 0.0133(4)
Ag3_2 Ag 0.42995(7) 0.30804(5) 0.96587(3)
N5_2 N 0.6267(7) 0.4145(5) 0.9296(3)
C4_2 C 0.3003(10) 0.2525(6) 0.9951(3)
C5_2 C 0.5589(10) 0.3725(7) 0.9390(3)
Ag8_2 Ag 0.59517(7) 0.17528(5) 0.95413(3)
N11 N 0.1252(7) 0.5868(5) 0.0722(2)
C39_2 C 0.0677(9) 0.6381(5) 0.0709(3)
Fe4 Fe 0.2500 0.5000 0.07225(6)
Ag1_2 Ag 0.51240(7) 0.25723(4) 0.06802(3)
Fe1_3 Fe 0.7500 0.0000 0.07680(6)
N1_2 N 0.6394(7) 0.0949(5) 0.0753(2)
N2_2 N 0.3748(7) 0.4132(5) 0.0722(2)
N3_2 N 0.8836(7) 0.0804(5) 0.0774(2)
N6_3 N 0.7500 0.0000 0.1461(3)
N7_3 N 0.7500 0.0000 0.5075(4)
N8_2 N 0.2500 0.5000 0.1417(4)
N9_2 N 0.2500 0.5000 0.5036(4)
C1_2 C 0.5917(8) 0.1483(6) 0.0717(3)
C2_2 C 0.4323(9) 0.3619(5) 0.0709(3)
C3_2 C 0.9581(8) 0.1196(6) 0.0703(3)
C6_2 C 0.6613(11) 0.0245(7) 0.1659(4)
H1_2 H 0.5990 0.0433 0.1503
C7_2 C 0.6593(10) 0.0226(7) 0.2114(4)
H2_2 H 0.5929 0.0375 0.2257
C8_3 C 0.7500 -0.0000 0.2351(4)
C9_3 C 0.7500 0.0000 0.2824(5)
C12_3 C 0.7500 0.0000 0.3704(5)
C13_3 C 0.7500 0.0000 0.4170(5)
C14_2 C 0.6558(7) 0.0189(6) 0.4420(3)
H5_2 H 0.5884 0.0328 0.4281
C15_2 C 0.6585(8) 0.0178(6) 0.4860(3)
H6_2 H 0.5926 0.0303 0.5014
C16_2 C 0.3415(9) 0.5135(7) 0.1618(3)
H7_2 H 0.4077 0.5226 0.1460
C17_2 C 0.3460(8) 0.5152(7) 0.2065(4)
H8_2 H 0.4141 0.5267 0.2205
C18_2 C 0.2500 0.5000 0.2301(4)
C19_2 C 0.2500 0.5000 0.2760(5)
C20_2 C 0.3363(8) 0.4627(6) 0.2999(3)
H9_2 H 0.3950 0.4369 0.2853
C21_2 C 0.3360(8) 0.4634(6) 0.3431(3)
H10_2 H 0.3950 0.4387 0.3582
C22_2 C 0.2500 0.5000 0.3659(5)
C23_2 C 0.2500 0.5000 0.4135(4)
C24_2 C 0.3440(12) 0.4972(9) 0.4378(4)
H11_2 H 0.4143 0.4956 0.4239
C25_2 C 0.3414(14) 0.4964(9) 0.4825(5)
H12_2 H 0.4097 0.4932 0.4978
C28_2 C 0.8407(8) 0.0252(6) 0.3048(3)
H15_2 H 0.9046 0.0432 0.2898
C29_2 C 0.8412(8) 0.0251(6) 0.3476(3)
H16_2 H 0.9056 0.0426 0.3624
C32_2 C 0.1585(9) 0.4865(7) 0.1618(3)
H19_2 H 0.0923 0.4774 0.1460
C33_2 C 0.1540(8) 0.4848(7) 0.2065(4)
H20_2 H 0.0859 0.4733 0.2205
C34_2 C 0.1637(8) 0.5373(6) 0.2999(3)
H21_2 H 0.1050 0.5631 0.2853
C35_2 C 0.1640(8) 0.5366(6) 0.3431(3)
H22_2 H 0.1050 0.5613 0.3582
C36_2 C 0.1560(12) 0.5028(9) 0.4378(4)
H23_2 H 0.0857 0.5044 0.4239
C37_2 C 0.1586(14) 0.5036(9) 0.4825(5)
H24_2 H 0.0903 0.5068 0.4978
Ag10_2 Ag 0.92995(7) 0.30804(5) 0.03413(3)
Fe3_3 Fe 0.7500 0.0000 0.57680(6)
N16_2 N 0.3733(7) 0.5855(5) 0.0704(3)
N17_2 N 0.1267(7) 0.4145(5) 0.0704(3)
N18_3 N 0.7500 0.0000 0.0075(4)
N19_2 N 0.2500 0.5000 0.0036(4)
Fe1_4 Fe 0.7500 1.0000 0.07680(6)
N6_4 N 0.7500 1.0000 0.1461(3)
N7_4 N 0.7500 1.0000 0.5075(4)
C8_4 C 0.7500 1.0000 0.2351(4)
C9_4 C 0.7500 1.0000 0.2824(5)
C10_2 C 0.6593(8) 0.9748(6) 0.3048(3)
H3_2 H 0.5954 0.9568 0.2898
C11_2 C 0.6588(8) 0.9749(6) 0.3476(3)
H4_2 H 0.5944 0.9574 0.3624
C12_4 C 0.7500 1.0000 0.3704(5)
C13_4 C 0.7500 1.0000 0.4170(5)
C26_2 C 0.8387(11) 0.9755(7) 0.1659(4)
H13_2 H 0.9010 0.9567 0.1503
C27_2 C 0.8407(10) 0.9774(7) 0.2114(4)
H14_2 H 0.9071 0.9625 0.2257
C30_2 C 0.8442(7) 0.9811(6) 0.4420(3)
H17_2 H 0.9116 0.9672 0.4281
C31_2 C 0.8415(8) 0.9822(6) 0.4860(3)
H18_2 H 0.9074 0.9697 0.5014
Ag4_2 Ag 0.98760(7) 0.74277(4) 0.06802(3)
Ag5_2 Ag 0.40483(7) 0.82472(5) 0.04587(3)
N10_2 N 0.8606(7) 0.9051(5) 0.0753(2)
N12_2 N 0.6164(7) 0.9196(5) 0.0774(2)
N13_2 N 0.2678(11) 0.7767(6) 0.0133(4)
C38_2 C 0.9083(8) 0.8517(6) 0.0717(3)
C40_2 C 0.5419(8) 0.8804(6) 0.0703(3)
Ag9_2 Ag 0.57005(7) 0.69196(5) 0.03413(3)
Fe3_4 Fe 0.7500 1.0000 0.57680(6)
N18_4 N 0.7500 1.0000 0.0075(4)
Ag6_2 Ag 0.07005(7) 0.69196(5) 0.96587(3)
C41_2 C 0.1997(10) 0.7475(6) 0.9951(3)
N14_2 N 0.8733(7) 0.5855(5) 0.9296(3)
C42_2 C 0.9411(10) 0.6275(7) 0.9390(3)
Ag7_2 Ag 0.90483(7) 0.82472(5) 0.95413(3)
N11_2 N 0.1252(7) 0.4132(5) 0.5722(2)
C39_3 C 0.0677(9) 0.3619(5) 0.5709(3)
N4_3 N 0.2322(11) 0.7767(6) 0.5133(4)
C4_3 C 0.3003(10) 0.7475(6) 0.4951(3)
C5_3 C 0.5589(10) 0.6275(7) 0.4390(3)
H18_3 H 0.9074 0.0303 0.0014
N6_5 N 0.7500 0.0000 0.6461(3)
C8_5 C 0.7500 0.0000 0.7351(4)
C9_5 C 0.7500 -0.0000 0.7824(5)
C10_3 C 0.6593(8) 0.0252(6) 0.8048(3)
H3_3 H 0.5954 0.0432 0.7898
C11_3 C 0.6588(8) 0.0251(6) 0.8476(3)
H4_3 H 0.5944 0.0426 0.8624
C12_5 C 0.7500 0.0000 0.8704(5)
C13_5 C 0.7500 0.0000 0.9170(5)
C26_3 C 0.8387(11) 0.0245(7) 0.6659(4)
H13_3 H 0.9010 0.0433 0.6503
C27_3 C 0.8407(10) 0.0226(7) 0.7114(4)
H14_3 H 0.9071 0.0375 0.7257
C30_3 C 0.8442(7) 0.0189(6) 0.9420(3)
H17_3 H 0.9116 0.0328 0.9281
C31_3 C 0.8415(8) 0.0178(6) 0.9860(3)
Ag4_3 Ag 0.98760(7) 0.25723(4) 0.56802(3)
N10_3 N 0.8606(7) 0.0949(5) 0.5753(2)
N12_3 N 0.6164(7) 0.0804(5) 0.5774(2)
N13_3 N 0.2678(11) 0.2233(6) 0.5133(4)
C38_3 C 0.9083(8) 0.1483(6) 0.5717(3)
C40_3 C 0.5419(8) 0.1196(6) 0.5703(3)
C41_3 C 0.1997(10) 0.2525(6) 0.4951(3)
H6_3 H 0.5926 0.9697 0.0014
Ag1_3 Ag 0.51240(7) 0.74277(4) 0.56802(3)
N1_3 N 0.6394(7) 0.9051(5) 0.5753(2)
N2_3 N 0.3748(7) 0.5868(5) 0.5722(2)
N3_3 N 0.8836(7) 0.9196(5) 0.5774(2)
N6_6 N 0.7500 1.0000 0.6461(3)
N8_3 N 0.2500 0.5000 0.6417(4)
C1_3 C 0.5917(8) 0.8517(6) 0.5717(3)
C2_3 C 0.4323(9) 0.6381(5) 0.5709(3)
C3_3 C 0.9581(8) 0.8804(6) 0.5703(3)
C6_3 C 0.6613(11) 0.9755(7) 0.6659(4)
H1_3 H 0.5990 0.9567 0.6503
C7_3 C 0.6593(10) 0.9774(7) 0.7114(4)
H2_3 H 0.5929 0.9625 0.7257
C8_6 C 0.7500 1.0000 0.7351(4)
C9_6 C 0.7500 1.0000 0.7824(5)
C12_6 C 0.7500 1.0000 0.8704(5)
C13_6 C 0.7500 1.0000 0.9170(5)
C14_3 C 0.6558(7) 0.9811(6) 0.9420(3)
H5_3 H 0.5884 0.9672 0.9281
C15_3 C 0.6585(8) 0.9822(6) 0.9860(3)
C16_3 C 0.3415(9) 0.4865(7) 0.6618(3)
H7_3 H 0.4077 0.4774 0.6460
C17_3 C 0.3460(8) 0.4848(7) 0.7065(4)
H8_3 H 0.4141 0.4733 0.7205
C18_3 C 0.2500 0.5000 0.7301(4)
C19_3 C 0.2500 0.5000 0.7760(5)
C20_3 C 0.3363(8) 0.5373(6) 0.7999(3)
H9_3 H 0.3950 0.5631 0.7853
C21_3 C 0.3360(8) 0.5366(6) 0.8431(3)
H10_3 H 0.3950 0.5613 0.8582
C22_3 C 0.2500 0.5000 0.8659(5)
C23_3 C 0.2500 0.5000 0.9135(4)
C24_3 C 0.3440(12) 0.5028(9) 0.9378(4)
H11_3 H 0.4143 0.5044 0.9239
C25_3 C 0.3414(14) 0.5036(9) 0.9825(5)
H12_3 H 0.4097 0.5068 0.9978
C28_3 C 0.8407(8) 0.9748(6) 0.8048(3)
H15_3 H 0.9046 0.9568 0.7898
C29_3 C 0.8412(8) 0.9749(6) 0.8476(3)
H16_3 H 0.9056 0.9574 0.8624
C32_3 C 0.1585(9) 0.5135(7) 0.6618(3)
H19_3 H 0.0923 0.5226 0.6460
C33_3 C 0.1540(8) 0.5152(7) 0.7065(4)
H20_3 H 0.0859 0.5267 0.7205
C34_3 C 0.1637(8) 0.4627(6) 0.7999(3)
H21_3 H 0.1050 0.4369 0.7853
C35_3 C 0.1640(8) 0.4634(6) 0.8431(3)
H22_3 H 0.1050 0.4387 0.8582
C36_3 C 0.1560(12) 0.4972(9) 0.9378(4)
H23_3 H 0.0857 0.4956 0.9239
C37_3 C 0.1586(14) 0.4964(9) 0.9825(5)
H24_3 H 0.0903 0.4932 0.9978
C42_3 C 0.9411(10) 0.3725(7) 0.4390(3)
C42_4 C 0.0589(10) 0.3725(7) 0.0610(3)
C41_4 C 0.8003(10) 0.2525(6) 0.0049(3)
N6_7 N 0.2500 0.0000 0.8539(3)
C8_7 C 0.2500 0.0000 0.7649(4)
C9_7 C 0.2500 0.0000 0.7176(5)
C10_4 C 0.3407(8) 0.0252(6) 0.6952(3)
H3_4 H 0.4046 0.0432 0.7102
C11_4 C 0.3412(8) 0.0251(6) 0.6524(3)
H4_4 H 0.4056 0.0426 0.6376
C12_7 C 0.2500 -0.0000 0.6296(5)
C13_7 C 0.2500 0.0000 0.5830(5)
C26_4 C 0.1613(11) 0.0245(7) 0.8341(4)
H13_4 H 0.0990 0.0433 0.8497
C27_4 C 0.1593(10) 0.0226(7) 0.7886(4)
H14_4 H 0.0929 0.0375 0.7743
C30_4 C 0.1558(7) 0.0189(6) 0.5580(3)
H17_4 H 0.0884 0.0328 0.5719
C31_4 C 0.1585(8) 0.0178(6) 0.5140(3)
H18_4 H 0.0926 0.0303 0.4986
Ag4_4 Ag 0.01240(7) 0.25723(4) 0.93198(3)
N10_4 N 0.1394(7) 0.0949(5) 0.9247(2)
N12_4 N 0.3836(7) 0.0804(5) 0.9226(2)
N13_4 N 0.7322(11) 0.2233(6) 0.9867(4)
C38_4 C 0.0917(8) 0.1483(6) 0.9283(3)
C40_4 C 0.4581(8) 0.1196(6) 0.9297(3)
Ag1_4 Ag 0.48760(7) 0.74277(4) 0.93198(3)
N1_4 N 0.3606(7) 0.9051(5) 0.9247(2)
N2_4 N 0.6252(7) 0.5868(5) 0.9278(2)
N3_4 N 0.1164(7) 0.9196(5) 0.9226(2)
N6_8 N 0.2500 1.0000 0.8539(3)
N8_4 N 0.7500 0.5000 0.8583(4)
C1_4 C 0.4083(8) 0.8517(6) 0.9283(3)
C2_4 C 0.5677(9) 0.6381(5) 0.9291(3)
C3_4 C 0.0419(8) 0.8804(6) 0.9297(3)
C6_4 C 0.3387(11) 0.9755(7) 0.8341(4)
H1_4 H 0.4010 0.9567 0.8497
C7_4 C 0.3407(10) 0.9774(7) 0.7886(4)
H2_4 H 0.4071 0.9625 0.7743
C8_8 C 0.2500 1.0000 0.7649(4)
C9_8 C 0.2500 1.0000 0.7176(5)
C12_8 C 0.2500 1.0000 0.6296(5)
C13_8 C 0.2500 1.0000 0.5830(5)
C14_4 C 0.3442(7) 0.9811(6) 0.5580(3)
H5_4 H 0.4116 0.9672 0.5719
C15_4 C 0.3415(8) 0.9822(6) 0.5140(3)
H6_4 H 0.4074 0.9697 0.4986
C16_4 C 0.6585(9) 0.4865(7) 0.8382(3)
H7_4 H 0.5923 0.4774 0.8540
C17_4 C 0.6540(8) 0.4848(7) 0.7935(4)
H8_4 H 0.5859 0.4733 0.7795
C18_4 C 0.7500 0.5000 0.7699(4)
C19_4 C 0.7500 0.5000 0.7240(5)
C20_4 C 0.6637(8) 0.5373(6) 0.7001(3)
H9_4 H 0.6050 0.5631 0.7147
C21_4 C 0.6640(8) 0.5366(6) 0.6569(3)
H10_4 H 0.6050 0.5613 0.6418
C22_4 C 0.7500 0.5000 0.6341(5)
C23_4 C 0.7500 0.5000 0.5865(4)
C24_4 C 0.6560(12) 0.5028(9) 0.5622(4)
H11_4 H 0.5857 0.5044 0.5761
C25_4 C 0.6586(14) 0.5036(9) 0.5175(5)
H12_4 H 0.5903 0.5068 0.5022
C28_4 C 0.1593(8) 0.9748(6) 0.6952(3)
H15_4 H 0.0954 0.9568 0.7102
C29_4 C 0.1588(8) 0.9749(6) 0.6524(3)
H16_4 H 0.0944 0.9574 0.6376
C32_4 C 0.8415(9) 0.5135(7) 0.8382(3)
H19_4 H 0.9077 0.5226 0.8540
C33_4 C 0.8460(8) 0.5152(7) 0.7935(4)
H20_4 H 0.9141 0.5267 0.7795
C34_4 C 0.8363(8) 0.4627(6) 0.7001(3)
H21_4 H 0.8950 0.4369 0.7147
C35_4 C 0.8360(8) 0.4634(6) 0.6569(3)
H22_4 H 0.8950 0.4387 0.6418
C36_4 C 0.8440(12) 0.4972(9) 0.5622(4)
H23_4 H 0.9143 0.4956 0.5761
C37_4 C 0.8414(14) 0.4964(9) 0.5175(5)
H24_4 H 0.9097 0.4932 0.5022
N15_2 N 0.8748(7) 0.4132(5) 0.9278(2)
C39_4 C 0.9323(9) 0.3619(5) 0.9291(3)
C4_4 C 0.6997(10) 0.7475(6) 0.0049(3)
C5_4 C 0.4411(10) 0.6275(7) 0.0610(3)
N4_4 N 0.7678(11) 0.7767(6) 0.9867(4)
loop_
_geom_bond_atom_site_label_1
_geom_bond_atom_site_label_2
_geom_bond_site_symmetry_1
_geom_bond_site_symmetry_2
N14 C42 1_555 1_555
Fe6 N14 1_555 1_555
Ag1 C1 1_555 1_555
Fe1 N1 1_555 1_555
Fe2 N2 1_555 1_555
N1 C1 1_555 1_555
N2 C2 1_555 1_555
N3 Fe1 1_555 1_555
N6 Fe1 1_555 1_555
N8 Fe2 1_555 1_555
C2 Ag1 1_555 1_555
C6 N6 1_555 1_555
H1 C6 1_555 1_555
C7 C6 1_555 1_555
H2 C7 1_555 1_555
C8 C7 1_555 1_555
C9 C8 1_555 1_555
C13 C12 1_555 1_555
C14 C13 1_555 1_555
H5 C14 1_555 1_555
C15 C14 1_555 1_555
C16 N8 1_555 1_555
H7 C16 1_555 1_555
C17 C16 1_555 1_555
H8 C17 1_555 1_555
C18 C17 1_555 1_555
C19 C18 1_555 1_555
C20 C19 1_555 1_555
H9 C20 1_555 1_555
C21 C20 1_555 1_555
H10 C21 1_555 1_555
C22 C21 1_555 1_555
C23 C22 1_555 1_555
C24 C23 1_555 1_555
H11 C24 1_555 1_555
C25 C24 1_555 1_555
H12 C25 1_555 1_555
C28 C9 1_555 1_555
H15 C28 1_555 1_555
C29 C12 1_555 1_555
H16 C29 1_555 1_555
C32 N8 1_555 1_555
H19 C32 1_555 1_555
C33 C18 1_555 1_555
H20 C33 1_555 1_555
C34 C19 1_555 1_555
H21 C34 1_555 1_555
C35 C22 1_555 1_555
H22 C35 1_555 1_555
C36 C23 1_555 1_555
H23 C36 1_555 1_555
H24 C37 1_555 1_555
N15 Fe2 1_555 1_555
N16 Fe2 1_555 1_555
N17 Fe2 1_555 1_555
N18 Fe1 1_555 1_555
N19 Fe2 1_555 1_555
N3 C3 1_555 1_555
C28 C29 1_555 1_555
C32 C33 1_555 1_555
C34 C35 1_555 1_555
C36 C37 1_555 1_555
Fe3 N7 1_555 1_555
Fe7 N9 1_555 1_555
N6_2 Fe1_2 1_555 1_555
C9_2 C8_2 1_555 1_555
C10 C9_2 1_555 1_555
H3 C10 1_555 1_555
C11 C10 1_555 1_555
H4 C11 1_555 1_555
C12_2 C11 1_555 1_555
C13_2 C12_2 1_555 1_555
C26 N6_2 1_555 1_555
H13 C26 1_555 1_555
C27 C8_2 1_555 1_555
H14 C27 1_555 1_555
C30 C13_2 1_555 1_555
H17 C30 1_555 1_555
Ag4 C38 1_555 1_555
Ag5 N13 1_555 1_555
Ag6 C41 1_555 1_555
N10 Fe1_2 1_555 1_555
N12 Fe1_2 1_555 1_555
N13 C41 1_555 1_555
C38 N10 1_555 1_555
C40 Ag5 1_555 1_555
Ag9 Ag5 1_555 1_555
N18_2 Fe1_2 1_555 1_555
C26 C27 1_555 1_555
C30 C31 1_555 1_555
N12 C40 1_555 1_555
Fe3_2 N7_2 1_555 1_555
Ag2 N4 1_555 1_555
Ag3 C4 1_555 1_555
N4 C4 1_555 1_555
N5 C5 1_555 1_555
C5 Ag3 1_555 1_555
Ag8 Ag3 1_555 1_555
Fe6 N5 1_555 1_555
N15 C39 1_555 1_555
Ag2_2 N4_2 1_555 1_555
Ag3_2 C4_2 1_555 1_555
N5_2 C5_2 1_555 1_555
C5_2 Ag3_2 1_555 1_555
Ag8_2 Ag3_2 1_555 1_555
Fe7 N5_2 1_555 1_555
N11 C39_2 1_555 1_555
Fe4 N11 1_555 1_555
Ag1_2 C1_2 1_555 1_555
Fe1_3 N1_2 1_555 1_555
Fe4 N2_2 1_555 1_555
N1_2 C1_2 1_555 1_555
N2_2 C2_2 1_555 1_555
N3_2 Fe1_3 1_555 1_555
N6_3 Fe1_3 1_555 1_555
N7_3 C15_2 1_555 1_555
N8_2 Fe4 1_555 1_555
N9_2 C25_2 1_555 1_555
C2_2 Ag1_2 1_555 1_555
C6_2 N6_3 1_555 1_555
H1_2 C6_2 1_555 1_555
C7_2 C6_2 1_555 1_555
H2_2 C7_2 1_555 1_555
C8_3 C7_2 1_555 1_555
C9_3 C8_3 1_555 1_555
C13_3 C12_3 1_555 1_555
C14_2 C13_3 1_555 1_555
H5_2 C14_2 1_555 1_555
C15_2 C14_2 1_555 1_555
H6_2 C15_2 1_555 1_555
C16_2 N8_2 1_555 1_555
H7_2 C16_2 1_555 1_555
C17_2 C16_2 1_555 1_555
H8_2 C17_2 1_555 1_555
C18_2 C17_2 1_555 1_555
C19_2 C18_2 1_555 1_555
C20_2 C19_2 1_555 1_555
H9_2 C20_2 1_555 1_555
C21_2 C20_2 1_555 1_555
H10_2 C21_2 1_555 1_555
C22_2 C21_2 1_555 1_555
C23_2 C22_2 1_555 1_555
C24_2 C23_2 1_555 1_555
H11_2 C24_2 1_555 1_555
C25_2 C24_2 1_555 1_555
H12_2 C25_2 1_555 1_555
C28_2 C9_3 1_555 1_555
H15_2 C28_2 1_555 1_555
C29_2 C12_3 1_555 1_555
H16_2 C29_2 1_555 1_555
C32_2 N8_2 1_555 1_555
H19_2 C32_2 1_555 1_555
C33_2 C18_2 1_555 1_555
H20_2 C33_2 1_555 1_555
C34_2 C19_2 1_555 1_555
H21_2 C34_2 1_555 1_555
C35_2 C22_2 1_555 1_555
H22_2 C35_2 1_555 1_555
C36_2 C23_2 1_555 1_555
H23_2 C36_2 1_555 1_555
C37_2 N9_2 1_555 1_555
H24_2 C37_2 1_555 1_555
Fe3_3 N7_3 1_555 1_555
Fe6 N9_2 1_555 1_555
N16_2 Fe4 1_555 1_555
N17_2 Fe4 1_555 1_555
N18_3 Fe1_3 1_555 1_555
N19_2 Fe4 1_555 1_555
N3_2 C3_2 1_555 1_555
C28_2 C29_2 1_555 1_555
C32_2 C33_2 1_555 1_555
C34_2 C35_2 1_555 1_555
C36_2 C37_2 1_555 1_555
N6_4 Fe1_4 1_555 1_555
C9_4 C8_4 1_555 1_555
C10_2 C9_4 1_555 1_555
H3_2 C10_2 1_555 1_555
C11_2 C10_2 1_555 1_555
H4_2 C11_2 1_555 1_555
C12_4 C11_2 1_555 1_555
C13_4 C12_4 1_555 1_555
C26_2 N6_4 1_555 1_555
H13_2 C26_2 1_555 1_555
C27_2 C8_4 1_555 1_555
H14_2 C27_2 1_555 1_555
C30_2 C13_4 1_555 1_555
H17_2 C30_2 1_555 1_555
C31_2 N7_4 1_555 1_555
H18_2 C31_2 1_555 1_555
Ag4_2 C38_2 1_555 1_555
Ag5_2 N13_2 1_555 1_555
N10_2 Fe1_4 1_555 1_555
N12_2 Fe1_4 1_555 1_555
C38_2 N10_2 1_555 1_555
C40_2 Ag5_2 1_555 1_555
Ag9_2 Ag5_2 1_555 1_555
Fe3_4 N7_4 1_555 1_555
N18_4 Fe1_4 1_555 1_555
C26_2 C27_2 1_555 1_555
C30_2 C31_2 1_555 1_555
N12_2 C40_2 1_555 1_555
Ag6_2 C41_2 1_555 1_555
N14_2 C42_2 1_555 1_555
Fe7 N14_2 1_555 1_555
N11_2 C39_3 1_555 1_555
Fe6 N11_2 1_555 1_555
Ag7 N4_3 1_555 1_555
Ag9 C4_3 1_555 1_555
N4_3 C4_3 1_555 1_555
N16 C5_3 1_555 1_555
C5_3 Ag9 1_555 1_555
N6_5 Fe3_3 1_555 1_555
C9_5 C8_5 1_555 1_555
C10_3 C9_5 1_555 1_555
H3_3 C10_3 1_555 1_555
C11_3 C10_3 1_555 1_555
H4_3 C11_3 1_555 1_555
C12_5 C11_3 1_555 1_555
C13_5 C12_5 1_555 1_555
C26_3 N6_5 1_555 1_555
H13_3 C26_3 1_555 1_555
C27_3 C8_5 1_555 1_555
H14_3 C27_3 1_555 1_555
C30_3 C13_5 1_555 1_555
H17_3 C30_3 1_555 1_555
Ag4_3 C38_3 1_555 1_555
Ag8 N13_3 1_555 1_555
Ag10 C41_3 1_555 1_555
N10_3 Fe3_3 1_555 1_555
N12_3 Fe3_3 1_555 1_555
N13_3 C41_3 1_555 1_555
C38_3 N10_3 1_555 1_555
C40_3 Ag8 1_555 1_555
C26_3 C27_3 1_555 1_555
C30_3 C31_3 1_555 1_555
N12_3 C40_3 1_555 1_555
Ag1_3 C1_3 1_555 1_555
Fe3_4 N1_3 1_555 1_555
Fe6 N2_3 1_555 1_555
N1_3 C1_3 1_555 1_555
N2_3 C2_3 1_555 1_555
N3_3 Fe3_4 1_555 1_555
N6_6 Fe3_4 1_555 1_555
N8_3 Fe6 1_555 1_555
C2_3 Ag1_3 1_555 1_555
C6_3 N6_6 1_555 1_555
H1_3 C6_3 1_555 1_555
C7_3 C6_3 1_555 1_555
H2_3 C7_3 1_555 1_555
C8_6 C7_3 1_555 1_555
C9_6 C8_6 1_555 1_555
C13_6 C12_6 1_555 1_555
C14_3 C13_6 1_555 1_555
H5_3 C14_3 1_555 1_555
C15_3 C14_3 1_555 1_555
C16_3 N8_3 1_555 1_555
H7_3 C16_3 1_555 1_555
C17_3 C16_3 1_555 1_555
H8_3 C17_3 1_555 1_555
C18_3 C17_3 1_555 1_555
C19_3 C18_3 1_555 1_555
C20_3 C19_3 1_555 1_555
H9_3 C20_3 1_555 1_555
C21_3 C20_3 1_555 1_555
H10_3 C21_3 1_555 1_555
C22_3 C21_3 1_555 1_555
C23_3 C22_3 1_555 1_555
C24_3 C23_3 1_555 1_555
H11_3 C24_3 1_555 1_555
C25_3 C24_3 1_555 1_555
H12_3 C25_3 1_555 1_555
C28_3 C9_6 1_555 1_555
H15_3 C28_3 1_555 1_555
C29_3 C12_6 1_555 1_555
H16_3 C29_3 1_555 1_555
C32_3 N8_3 1_555 1_555
H19_3 C32_3 1_555 1_555
C33_3 C18_3 1_555 1_555
H20_3 C33_3 1_555 1_555
C34_3 C19_3 1_555 1_555
H21_3 C34_3 1_555 1_555
C35_3 C22_3 1_555 1_555
H22_3 C35_3 1_555 1_555
C36_3 C23_3 1_555 1_555
H23_3 C36_3 1_555 1_555
H24_3 C37_3 1_555 1_555
N3_3 C3_3 1_555 1_555
C28_3 C29_3 1_555 1_555
C32_3 C33_3 1_555 1_555
C34_3 C35_3 1_555 1_555
C36_3 C37_3 1_555 1_555
N17 C42_3 1_555 1_555
N17_2 C42_4 1_555 1_555
Ag10_2 C41_4 1_555 1_555
N6_7 Fe3 1_555 1_555
C9_7 C8_7 1_555 1_555
C10_4 C9_7 1_555 1_555
H3_4 C10_4 1_555 1_555
C11_4 C10_4 1_555 1_555
H4_4 C11_4 1_555 1_555
C12_7 C11_4 1_555 1_555
C13_7 C12_7 1_555 1_555
C26_4 N6_7 1_555 1_555
H13_4 C26_4 1_555 1_555
C27_4 C8_7 1_555 1_555
H14_4 C27_4 1_555 1_555
C30_4 C13_7 1_555 1_555
H17_4 C30_4 1_555 1_555
C31_4 N18 1_555 1_555
H18_4 C31_4 1_555 1_555
Ag4_4 C38_4 1_555 1_555
Ag8_2 N13_4 1_555 1_555
N10_4 Fe3 1_555 1_555
N12_4 Fe3 1_555 1_555
C38_4 N10_4 1_555 1_555
C40_4 Ag8_2 1_555 1_555
C26_4 C27_4 1_555 1_555
C30_4 C31_4 1_555 1_555
N12_4 C40_4 1_555 1_555
Ag1_4 C1_4 1_555 1_555
Fe3_2 N1_4 1_555 1_555
Fe7 N2_4 1_555 1_555
N1_4 C1_4 1_555 1_555
N2_4 C2_4 1_555 1_555
N3_4 Fe3_2 1_555 1_555
N6_8 Fe3_2 1_555 1_555
N18_2 C15_4 1_555 1_555
N8_4 Fe7 1_555 1_555
N19 C25_4 1_555 1_555
C2_4 Ag1_4 1_555 1_555
C6_4 N6_8 1_555 1_555
H1_4 C6_4 1_555 1_555
C7_4 C6_4 1_555 1_555
H2_4 C7_4 1_555 1_555
C8_8 C7_4 1_555 1_555
C9_8 C8_8 1_555 1_555
C13_8 C12_8 1_555 1_555
C14_4 C13_8 1_555 1_555
H5_4 C14_4 1_555 1_555
C15_4 C14_4 1_555 1_555
H6_4 C15_4 1_555 1_555
C16_4 N8_4 1_555 1_555
H7_4 C16_4 1_555 1_555
C17_4 C16_4 1_555 1_555
H8_4 C17_4 1_555 1_555
C18_4 C17_4 1_555 1_555
C19_4 C18_4 1_555 1_555
C20_4 C19_4 1_555 1_555
H9_4 C20_4 1_555 1_555
C21_4 C20_4 1_555 1_555
H10_4 C21_4 1_555 1_555
C22_4 C21_4 1_555 1_555
C23_4 C22_4 1_555 1_555
C24_4 C23_4 1_555 1_555
H11_4 C24_4 1_555 1_555
C25_4 C24_4 1_555 1_555
H12_4 C25_4 1_555 1_555
C28_4 C9_8 1_555 1_555
H15_4 C28_4 1_555 1_555
C29_4 C12_8 1_555 1_555
H16_4 C29_4 1_555 1_555
C32_4 N8_4 1_555 1_555
H19_4 C32_4 1_555 1_555
C33_4 C18_4 1_555 1_555
H20_4 C33_4 1_555 1_555
C34_4 C19_4 1_555 1_555
H21_4 C34_4 1_555 1_555
C35_4 C22_4 1_555 1_555
H22_4 C35_4 1_555 1_555
C36_4 C23_4 1_555 1_555
H23_4 C36_4 1_555 1_555
C37_4 N19 1_555 1_555
H24_4 C37_4 1_555 1_555
N15_2 Fe7 1_555 1_555
N3_4 C3_4 1_555 1_555
C28_4 C29_4 1_555 1_555
C32_4 C33_4 1_555 1_555
C34_4 C35_4 1_555 1_555
C36_4 C37_4 1_555 1_555
N15_2 C39_4 1_555 1_555
Ag9_2 C4_4 1_555 1_555
N16_2 C5_4 1_555 1_555
C5_4 Ag9_2 1_555 1_555
Ag7_2 N4_4 1_555 1_555

#END
