
###############################################################################
#
# This file contains modified crystal structure data generated from the
# MOF subset of the Cambridge Structural Database (CSD) v543 
# hosted by the Cambridge Crystallographic Data Centre (CCDC).
#
# This work is licensed under the Creative Commons
# Attribution-NonCommercial-ShareAlike 4.0 International License.
# To view a copy of this license, visit
# http://creativecommons.org/licenses/by-nc-sa/4.0/
# or send a letter to
# Creative Commons, PO Box 1866, Mountain View, CA 94042, USA.
#
# CIF created using the CSD Python API on 29 September 2022
# The structure has been converted into the P1 space group
# The structure has a 3D framework
# The original CSD entry POHCOG is in the orthorhombic crystal system
# The framework has been calculated to contain at least 10.0% void space
# The void calculation uses a probe of radius 1.32A, grid spacing 0.4
#
###############################################################################

data_POHCOG
_chemical_formula_moiety         '(C184 H96 Ag24 Fe12 N58)n'
_symmetry_cell_setting           triclinic
_symmetry_space_group_name_H-M   'P 1'
_symmetry_Int_Tables_number      1
_space_group_name_Hall           'P 1'
loop_
_symmetry_equiv_pos_site_id
_symmetry_equiv_pos_as_xyz
1 x,y,z
_cell_length_a                   12.0144(4)
_cell_length_b                   16.9892(6)
_cell_length_c                   31.2716(13)
_cell_angle_alpha                90
_cell_angle_beta                 90
_cell_angle_gamma                90
_cell_volume                     6383
loop_
_atom_site_label
_atom_site_type_symbol
_atom_site_fract_x
_atom_site_fract_y
_atom_site_fract_z
N14 N 0.1293(13) 0.5842(9) 0.5699(5)
C42 C 0.0575(18) 0.6278(15) 0.5604(7)
Ag7 Ag 0.09370(11) 0.82403(8) 0.54634(5)
Fe6 Fe 0.2500 0.5000 0.57180(11)
Ag1 Ag 0.48790(10) 0.25694(8) 0.43223(5)
Fe1 Fe 0.2500 0.0000 0.42348(10)
Fe2 Fe 0.7500 0.5000 0.42820(11)
N1 N 0.3562(11) 0.0945(9) 0.4252(4)
N2 N 0.6312(11) 0.4131(8) 0.4286(4)
N3 N 0.1210(12) 0.0782(8) 0.4228(4)
N6 N 0.2500 0.0000 0.3556(6)
N8 N 0.7500 0.5000 0.3605(6)
C1 C 0.4061(11) 0.1489(10) 0.4279(5)
C2 C 0.5715(13) 0.3613(9) 0.4298(5)
C3 C 0.0460(15) 0.1189(10) 0.4299(5)
C6 C 0.3395(16) 0.0228(12) 0.3344(6)
H1 H 0.4035 0.0395 0.3497
C7 C 0.3414(15) 0.0228(11) 0.2896(6)
H2 H 0.4073 0.0388 0.2753
C8 C 0.2500 0.0000 0.2656(7)
C9 C 0.2500 0.0000 0.2179(8)
C12 C 0.2500 0.0000 0.1288(7)
C13 C 0.2500 0.0000 0.0821(7)
C14 C 0.3458(13) 0.0176(10) 0.0579(5)
H5 H 0.4134 0.0302 0.0721
C15 C 0.3420(14) 0.0165(10) 0.0134(5)
C16 C 0.6570(14) 0.5138(10) 0.3385(6)
H7 H 0.5902 0.5238 0.3538
C17 C 0.6538(13) 0.5143(11) 0.2947(6)
H8 H 0.5855 0.5244 0.2804
C18 C 0.7500 0.5000 0.2708(8)
C19 C 0.7500 0.5000 0.2245(8)
C20 C 0.6664(13) 0.4622(9) 0.2013(6)
H9 H 0.6090 0.4352 0.2162
C21 C 0.6652(13) 0.4633(10) 0.1566(6)
H10 H 0.6060 0.4389 0.1415
C22 C 0.7500 0.5000 0.1343(8)
C23 C 0.7500 0.5000 0.0865(8)
C24 C 0.658(2) 0.4950(15) 0.0632(7)
H11 H 0.5885 0.4919 0.0775
C25 C 0.659(2) 0.4940(16) 0.0174(8)
H12 H 0.5909 0.4887 0.0025
C28 C 0.1588(13) 0.0280(10) 0.1953(5)
H15 H 0.0966 0.0482 0.2105
C29 C 0.1569(13) 0.0272(11) 0.1519(6)
H16 H 0.0926 0.0449 0.1371
C32 C 0.8430(14) 0.4862(10) 0.3385(6)
H19 H 0.9098 0.4762 0.3538
C33 C 0.8462(13) 0.4857(11) 0.2947(6)
H20 H 0.9145 0.4756 0.2804
C34 C 0.8336(13) 0.5378(9) 0.2013(6)
H21 H 0.8910 0.5648 0.2162
C35 C 0.8348(13) 0.5367(10) 0.1566(6)
H22 H 0.8940 0.5611 0.1415
C36 C 0.842(2) 0.5050(15) 0.0632(7)
H23 H 0.9115 0.5081 0.0775
C37 C 0.841(2) 0.5060(16) 0.0174(8)
H24 H 0.9091 0.5113 0.0025
Ag10 Ag 0.07111(12) 0.30894(8) 0.46557(5)
N15 N 0.8688(11) 0.5869(8) 0.4286(4)
N16 N 0.6293(13) 0.5842(9) 0.4301(5)
N17 N 0.8707(13) 0.4158(9) 0.4301(5)
N18 N 0.2500 0.0000 0.4908(6)
N19 N 0.7500 0.5000 0.4960(6)
N7 N 0.2500 0.0000 0.9908(6)
N9 N 0.7500 0.5000 0.9960(6)
H6 H 0.4085 0.0281 0.9982
Fe3 Fe 0.2500 0.0000 0.92348(10)
Fe7 Fe 0.7500 0.5000 0.92820(11)
Fe1_2 Fe 0.2500 1.0000 0.42348(10)
N6_2 N 0.2500 1.0000 0.3556(6)
C8_2 C 0.2500 1.0000 0.2656(7)
C9_2 C 0.2500 1.0000 0.2179(8)
C10 C 0.3412(13) 0.9720(10) 0.1953(5)
H3 H 0.4034 0.9518 0.2105
C11 C 0.3431(13) 0.9728(11) 0.1519(6)
H4 H 0.4074 0.9551 0.1371
C12_2 C 0.2500 1.0000 0.1288(7)
C13_2 C 0.2500 1.0000 0.0821(7)
C26 C 0.1605(16) 0.9772(12) 0.3344(6)
H13 H 0.0965 0.9605 0.3497
C27 C 0.1586(15) 0.9772(11) 0.2896(6)
H14 H 0.0927 0.9612 0.2753
C30 C 0.1542(13) 0.9824(10) 0.0579(5)
H17 H 0.0866 0.9698 0.0721
C31 C 0.1580(14) 0.9835(10) 0.0134(5)
Ag4 Ag 0.01210(10) 0.74306(8) 0.43223(5)
Ag5 Ag 0.59370(11) 0.82403(8) 0.45366(5)
Ag6 Ag 0.92889(12) 0.69106(8) 0.53443(5)
N10 N 0.1438(11) 0.9055(9) 0.4252(4)
N12 N 0.3790(12) 0.9218(8) 0.4228(4)
N13 N 0.7304(18) 0.7756(11) 0.4868(6)
C38 C 0.0939(11) 0.8511(10) 0.4279(5)
C40 C 0.4540(15) 0.8811(10) 0.4299(5)
C41 C 0.7995(17) 0.7489(12) 0.5062(7)
Ag9 Ag 0.42889(12) 0.69106(8) 0.46557(5)
N18_2 N 0.2500 1.0000 0.4908(6)
N7_2 N 0.2500 1.0000 0.9908(6)
H18 H 0.0915 0.9719 0.9982
Fe3_2 Fe 0.2500 1.0000 0.92348(10)
Ag2 Ag 0.90630(11) 0.17597(8) 0.45366(5)
Ag3 Ag 0.57111(12) 0.30894(8) 0.53443(5)
N4 N 0.7696(18) 0.2244(11) 0.4868(6)
N5 N 0.3707(13) 0.4158(9) 0.5699(5)
C4 C 0.7005(17) 0.2511(12) 0.5062(7)
C5 C 0.4425(18) 0.3722(15) 0.5604(7)
Ag8 Ag 0.40630(11) 0.17597(8) 0.54634(5)
C39 C 0.9285(13) 0.6387(9) 0.4298(5)
Ag2_2 Ag 0.09370(11) 0.17597(8) 0.04634(5)
N4_2 N 0.2304(18) 0.2244(11) 0.0132(6)
Ag3_2 Ag 0.42889(12) 0.30894(8) 0.96557(5)
N5_2 N 0.6293(13) 0.4158(9) 0.9301(5)
C4_2 C 0.2995(17) 0.2511(12) 0.9938(7)
C5_2 C 0.5575(18) 0.3722(15) 0.9396(7)
Ag8_2 Ag 0.59370(11) 0.17597(8) 0.95366(5)
N11 N 0.1312(11) 0.5869(8) 0.0714(4)
C39_2 C 0.0715(13) 0.6387(9) 0.0702(5)
Fe4 Fe 0.2500 0.5000 0.07180(11)
Ag1_2 Ag 0.51210(10) 0.25694(8) 0.06777(5)
Fe1_3 Fe 0.7500 0.0000 0.07652(10)
N1_2 N 0.6438(11) 0.0945(9) 0.0748(4)
N2_2 N 0.3688(11) 0.4131(8) 0.0714(4)
N3_2 N 0.8790(12) 0.0782(8) 0.0772(4)
N6_3 N 0.7500 0.0000 0.1444(6)
N7_3 N 0.7500 0.0000 0.5092(6)
N8_2 N 0.2500 0.5000 0.1395(6)
N9_2 N 0.2500 0.5000 0.5040(6)
C1_2 C 0.5939(11) 0.1489(10) 0.0721(5)
C2_2 C 0.4285(13) 0.3613(9) 0.0702(5)
C3_2 C 0.9540(15) 0.1189(10) 0.0701(5)
C6_2 C 0.6605(16) 0.0228(12) 0.1656(6)
H1_2 H 0.5965 0.0395 0.1503
C7_2 C 0.6586(15) 0.0228(11) 0.2104(6)
H2_2 H 0.5927 0.0388 0.2247
C8_3 C 0.7500 -0.0000 0.2344(7)
C9_3 C 0.7500 0.0000 0.2821(8)
C12_3 C 0.7500 0.0000 0.3712(7)
C13_3 C 0.7500 0.0000 0.4179(7)
C14_2 C 0.6542(13) 0.0176(10) 0.4421(5)
H5_2 H 0.5866 0.0302 0.4279
C15_2 C 0.6580(14) 0.0165(10) 0.4866(5)
H6_2 H 0.5915 0.0281 0.5018
C16_2 C 0.3430(14) 0.5138(10) 0.1615(6)
H7_2 H 0.4098 0.5238 0.1462
C17_2 C 0.3462(13) 0.5143(11) 0.2053(6)
H8_2 H 0.4145 0.5244 0.2196
C18_2 C 0.2500 0.5000 0.2292(8)
C19_2 C 0.2500 0.5000 0.2755(8)
C20_2 C 0.3336(13) 0.4622(9) 0.2987(6)
H9_2 H 0.3910 0.4352 0.2838
C21_2 C 0.3348(13) 0.4633(10) 0.3434(6)
H10_2 H 0.3940 0.4389 0.3585
C22_2 C 0.2500 0.5000 0.3657(8)
C23_2 C 0.2500 0.5000 0.4135(8)
C24_2 C 0.342(2) 0.4950(15) 0.4368(7)
H11_2 H 0.4115 0.4919 0.4225
C25_2 C 0.341(2) 0.4940(16) 0.4826(8)
H12_2 H 0.4091 0.4887 0.4975
C28_2 C 0.8412(13) 0.0280(10) 0.3047(5)
H15_2 H 0.9034 0.0482 0.2895
C29_2 C 0.8431(13) 0.0272(11) 0.3481(6)
H16_2 H 0.9074 0.0449 0.3629
C32_2 C 0.1570(14) 0.4862(10) 0.1615(6)
H19_2 H 0.0902 0.4762 0.1462
C33_2 C 0.1538(13) 0.4857(11) 0.2053(6)
H20_2 H 0.0855 0.4756 0.2196
C34_2 C 0.1664(13) 0.5378(9) 0.2987(6)
H21_2 H 0.1090 0.5648 0.2838
C35_2 C 0.1652(13) 0.5367(10) 0.3434(6)
H22_2 H 0.1060 0.5611 0.3585
C36_2 C 0.158(2) 0.5050(15) 0.4368(7)
H23_2 H 0.0885 0.5081 0.4225
C37_2 C 0.159(2) 0.5060(16) 0.4826(8)
H24_2 H 0.0909 0.5113 0.4975
Ag10_2 Ag 0.92889(12) 0.30894(8) 0.03443(5)
Fe3_3 Fe 0.7500 0.0000 0.57652(10)
N16_2 N 0.3707(13) 0.5842(9) 0.0699(5)
N17_2 N 0.1293(13) 0.4158(9) 0.0699(5)
N18_3 N 0.7500 -0.0000 0.0092(6)
N19_2 N 0.2500 0.5000 0.0040(6)
Fe1_4 Fe 0.7500 1.0000 0.07652(10)
N6_4 N 0.7500 1.0000 0.1444(6)
N7_4 N 0.7500 1.0000 0.5092(6)
C8_4 C 0.7500 1.0000 0.2344(7)
C9_4 C 0.7500 1.0000 0.2821(8)
C10_2 C 0.6588(13) 0.9720(10) 0.3047(5)
H3_2 H 0.5966 0.9518 0.2895
C11_2 C 0.6569(13) 0.9728(11) 0.3481(6)
H4_2 H 0.5926 0.9551 0.3629
C12_4 C 0.7500 1.0000 0.3712(7)
C13_4 C 0.7500 1.0000 0.4179(7)
C26_2 C 0.8395(16) 0.9772(12) 0.1656(6)
H13_2 H 0.9035 0.9605 0.1503
C27_2 C 0.8414(15) 0.9772(11) 0.2104(6)
H14_2 H 0.9073 0.9612 0.2247
C30_2 C 0.8458(13) 0.9824(10) 0.4421(5)
H17_2 H 0.9134 0.9698 0.4279
C31_2 C 0.8420(14) 0.9835(10) 0.4866(5)
H18_2 H 0.9085 0.9719 0.5018
Ag4_2 Ag 0.98790(10) 0.74306(8) 0.06777(5)
Ag5_2 Ag 0.40630(11) 0.82403(8) 0.04634(5)
N10_2 N 0.8562(11) 0.9055(9) 0.0748(4)
N12_2 N 0.6210(12) 0.9218(8) 0.0772(4)
N13_2 N 0.2696(18) 0.7756(11) 0.0132(6)
C38_2 C 0.9061(11) 0.8511(10) 0.0721(5)
C40_2 C 0.5460(15) 0.8811(10) 0.0701(5)
Ag9_2 Ag 0.57111(12) 0.69106(8) 0.03443(5)
Fe3_4 Fe 0.7500 1.0000 0.57652(10)
N18_4 N 0.7500 1.0000 0.0092(6)
Ag6_2 Ag 0.07111(12) 0.69106(8) 0.96557(5)
C41_2 C 0.2005(17) 0.7489(12) 0.9938(7)
N14_2 N 0.8707(13) 0.5842(9) 0.9301(5)
C42_2 C 0.9425(18) 0.6278(15) 0.9396(7)
Ag7_2 Ag 0.90630(11) 0.82403(8) 0.95366(5)
N11_2 N 0.1312(11) 0.4131(8) 0.5714(4)
C39_3 C 0.0715(13) 0.3613(9) 0.5702(5)
N4_3 N 0.2304(18) 0.7756(11) 0.5132(6)
C4_3 C 0.2995(17) 0.7489(12) 0.4938(7)
C5_3 C 0.5575(18) 0.6278(15) 0.4396(7)
H18_3 H 0.9085 0.0281 0.0018
N6_5 N 0.7500 0.0000 0.6444(6)
C8_5 C 0.7500 0.0000 0.7344(7)
C9_5 C 0.7500 0.0000 0.7821(8)
C10_3 C 0.6588(13) 0.0280(10) 0.8047(5)
H3_3 H 0.5966 0.0482 0.7895
C11_3 C 0.6569(13) 0.0272(11) 0.8481(6)
H4_3 H 0.5926 0.0449 0.8629
C12_5 C 0.7500 0.0000 0.8712(7)
C13_5 C 0.7500 0.0000 0.9179(7)
C26_3 C 0.8395(16) 0.0228(12) 0.6656(6)
H13_3 H 0.9035 0.0395 0.6503
C27_3 C 0.8414(15) 0.0228(11) 0.7104(6)
H14_3 H 0.9073 0.0388 0.7247
C30_3 C 0.8458(13) 0.0176(10) 0.9421(5)
H17_3 H 0.9134 0.0302 0.9279
C31_3 C 0.8420(14) 0.0165(10) 0.9866(5)
Ag4_3 Ag 0.98790(10) 0.25694(8) 0.56777(5)
N10_3 N 0.8562(11) 0.0945(9) 0.5748(4)
N12_3 N 0.6210(12) 0.0782(8) 0.5772(4)
N13_3 N 0.2696(18) 0.2244(11) 0.5132(6)
C38_3 C 0.9061(11) 0.1489(10) 0.5721(5)
C40_3 C 0.5460(15) 0.1189(10) 0.5701(5)
C41_3 C 0.2005(17) 0.2511(12) 0.4938(7)
H6_3 H 0.5915 0.9719 0.0018
Ag1_3 Ag 0.51210(10) 0.74306(8) 0.56777(5)
N1_3 N 0.6438(11) 0.9055(9) 0.5748(4)
N2_3 N 0.3688(11) 0.5869(8) 0.5714(4)
N3_3 N 0.8790(12) 0.9218(8) 0.5772(4)
N6_6 N 0.7500 1.0000 0.6444(6)
N8_3 N 0.2500 0.5000 0.6395(6)
C1_3 C 0.5939(11) 0.8511(10) 0.5721(5)
C2_3 C 0.4285(13) 0.6387(9) 0.5702(5)
C3_3 C 0.9540(15) 0.8811(10) 0.5701(5)
C6_3 C 0.6605(16) 0.9772(12) 0.6656(6)
H1_3 H 0.5965 0.9605 0.6503
C7_3 C 0.6586(15) 0.9772(11) 0.7104(6)
H2_3 H 0.5927 0.9612 0.7247
C8_6 C 0.7500 1.0000 0.7344(7)
C9_6 C 0.7500 1.0000 0.7821(8)
C12_6 C 0.7500 1.0000 0.8712(7)
C13_6 C 0.7500 1.0000 0.9179(7)
C14_3 C 0.6542(13) 0.9824(10) 0.9421(5)
H5_3 H 0.5866 0.9698 0.9279
C15_3 C 0.6580(14) 0.9835(10) 0.9866(5)
C16_3 C 0.3430(14) 0.4862(10) 0.6615(6)
H7_3 H 0.4098 0.4762 0.6462
C17_3 C 0.3462(13) 0.4857(11) 0.7053(6)
H8_3 H 0.4145 0.4756 0.7196
C18_3 C 0.2500 0.5000 0.7292(8)
C19_3 C 0.2500 0.5000 0.7755(8)
C20_3 C 0.3336(13) 0.5378(9) 0.7987(6)
H9_3 H 0.3910 0.5648 0.7838
C21_3 C 0.3348(13) 0.5367(10) 0.8434(6)
H10_3 H 0.3940 0.5611 0.8585
C22_3 C 0.2500 0.5000 0.8657(8)
C23_3 C 0.2500 0.5000 0.9135(8)
C24_3 C 0.342(2) 0.5050(15) 0.9368(7)
H11_3 H 0.4115 0.5081 0.9225
C25_3 C 0.341(2) 0.5060(16) 0.9826(8)
H12_3 H 0.4091 0.5113 0.9975
C28_3 C 0.8412(13) 0.9720(10) 0.8047(5)
H15_3 H 0.9034 0.9518 0.7895
C29_3 C 0.8431(13) 0.9728(11) 0.8481(6)
H16_3 H 0.9074 0.9551 0.8629
C32_3 C 0.1570(14) 0.5138(10) 0.6615(6)
H19_3 H 0.0902 0.5238 0.6462
C33_3 C 0.1538(13) 0.5143(11) 0.7053(6)
H20_3 H 0.0855 0.5244 0.7196
C34_3 C 0.1664(13) 0.4622(9) 0.7987(6)
H21_3 H 0.1090 0.4352 0.7838
C35_3 C 0.1652(13) 0.4633(10) 0.8434(6)
H22_3 H 0.1060 0.4389 0.8585
C36_3 C 0.158(2) 0.4950(15) 0.9368(7)
H23_3 H 0.0885 0.4919 0.9225
C37_3 C 0.159(2) 0.4940(16) 0.9826(8)
H24_3 H 0.0909 0.4887 0.9975
C42_3 C 0.9425(18) 0.3722(15) 0.4396(7)
C42_4 C 0.0575(18) 0.3722(15) 0.0604(7)
C41_4 C 0.7995(17) 0.2511(12) 0.0062(7)
N6_7 N 0.2500 0.0000 0.8556(6)
C8_7 C 0.2500 0.0000 0.7656(7)
C9_7 C 0.2500 0.0000 0.7179(8)
C10_4 C 0.3412(13) 0.0280(10) 0.6953(5)
H3_4 H 0.4034 0.0482 0.7105
C11_4 C 0.3431(13) 0.0272(11) 0.6519(6)
H4_4 H 0.4074 0.0449 0.6371
C12_7 C 0.2500 0.0000 0.6288(7)
C13_7 C 0.2500 0.0000 0.5821(7)
C26_4 C 0.1605(16) 0.0228(12) 0.8344(6)
H13_4 H 0.0965 0.0395 0.8497
C27_4 C 0.1586(15) 0.0228(11) 0.7896(6)
H14_4 H 0.0927 0.0388 0.7753
C30_4 C 0.1542(13) 0.0176(10) 0.5579(5)
H17_4 H 0.0866 0.0302 0.5721
C31_4 C 0.1580(14) 0.0165(10) 0.5134(5)
H18_4 H 0.0915 0.0281 0.4982
Ag4_4 Ag 0.01210(10) 0.25694(8) 0.93223(5)
N10_4 N 0.1438(11) 0.0945(9) 0.9252(4)
N12_4 N 0.3790(12) 0.0782(8) 0.9228(4)
N13_4 N 0.7304(18) 0.2244(11) 0.9868(6)
C38_4 C 0.0939(11) 0.1489(10) 0.9279(5)
C40_4 C 0.4540(15) 0.1189(10) 0.9299(5)
Ag1_4 Ag 0.48790(10) 0.74306(8) 0.93223(5)
N1_4 N 0.3562(11) 0.9055(9) 0.9252(4)
N2_4 N 0.6312(11) 0.5869(8) 0.9286(4)
N3_4 N 0.1210(12) 0.9218(8) 0.9228(4)
N6_8 N 0.2500 1.0000 0.8556(6)
N8_4 N 0.7500 0.5000 0.8605(6)
C1_4 C 0.4061(11) 0.8511(10) 0.9279(5)
C2_4 C 0.5715(13) 0.6387(9) 0.9298(5)
C3_4 C 0.0460(15) 0.8811(10) 0.9299(5)
C6_4 C 0.3395(16) 0.9772(12) 0.8344(6)
H1_4 H 0.4035 0.9605 0.8497
C7_4 C 0.3414(15) 0.9772(11) 0.7896(6)
H2_4 H 0.4073 0.9612 0.7753
C8_8 C 0.2500 1.0000 0.7656(7)
C9_8 C 0.2500 1.0000 0.7179(8)
C12_8 C 0.2500 1.0000 0.6288(7)
C13_8 C 0.2500 1.0000 0.5821(7)
C14_4 C 0.3458(13) 0.9824(10) 0.5579(5)
H5_4 H 0.4134 0.9698 0.5721
C15_4 C 0.3420(14) 0.9835(10) 0.5134(5)
H6_4 H 0.4085 0.9719 0.4982
C16_4 C 0.6570(14) 0.4862(10) 0.8385(6)
H7_4 H 0.5902 0.4762 0.8538
C17_4 C 0.6538(13) 0.4857(11) 0.7947(6)
H8_4 H 0.5855 0.4756 0.7804
C18_4 C 0.7500 0.5000 0.7708(8)
C19_4 C 0.7500 0.5000 0.7245(8)
C20_4 C 0.6664(13) 0.5378(9) 0.7013(6)
H9_4 H 0.6090 0.5648 0.7162
C21_4 C 0.6652(13) 0.5367(10) 0.6566(6)
H10_4 H 0.6060 0.5611 0.6415
C22_4 C 0.7500 0.5000 0.6343(8)
C23_4 C 0.7500 0.5000 0.5865(8)
C24_4 C 0.658(2) 0.5050(15) 0.5632(7)
H11_4 H 0.5885 0.5081 0.5775
C25_4 C 0.659(2) 0.5060(16) 0.5174(8)
H12_4 H 0.5909 0.5113 0.5025
C28_4 C 0.1588(13) 0.9720(10) 0.6953(5)
H15_4 H 0.0966 0.9518 0.7105
C29_4 C 0.1569(13) 0.9728(11) 0.6519(6)
H16_4 H 0.0926 0.9551 0.6371
C32_4 C 0.8430(14) 0.5138(10) 0.8385(6)
H19_4 H 0.9098 0.5238 0.8538
C33_4 C 0.8462(13) 0.5143(11) 0.7947(6)
H20_4 H 0.9145 0.5244 0.7804
C34_4 C 0.8336(13) 0.4622(9) 0.7013(6)
H21_4 H 0.8910 0.4352 0.7162
C35_4 C 0.8348(13) 0.4633(10) 0.6566(6)
H22_4 H 0.8940 0.4389 0.6415
C36_4 C 0.842(2) 0.4950(15) 0.5632(7)
H23_4 H 0.9115 0.4919 0.5775
C37_4 C 0.841(2) 0.4940(16) 0.5174(8)
H24_4 H 0.9091 0.4887 0.5025
N15_2 N 0.8688(11) 0.4131(8) 0.9286(4)
C39_4 C 0.9285(13) 0.3613(9) 0.9298(5)
C4_4 C 0.7005(17) 0.7489(12) 0.0062(7)
C5_4 C 0.4425(18) 0.6278(15) 0.0604(7)
N4_4 N 0.7696(18) 0.7756(11) 0.9868(6)
loop_
_geom_bond_atom_site_label_1
_geom_bond_atom_site_label_2
_geom_bond_site_symmetry_1
_geom_bond_site_symmetry_2
N14 C42 1_555 1_555
Fe6 N14 1_555 1_555
Ag1 C1 1_555 1_555
Fe1 N1 1_555 1_555
Fe2 N2 1_555 1_555
N1 C1 1_555 1_555
N2 C2 1_555 1_555
N3 Fe1 1_555 1_555
N6 Fe1 1_555 1_555
N8 Fe2 1_555 1_555
C2 Ag1 1_555 1_555
C6 N6 1_555 1_555
H1 C6 1_555 1_555
C7 C6 1_555 1_555
H2 C7 1_555 1_555
C8 C7 1_555 1_555
C9 C8 1_555 1_555
C13 C12 1_555 1_555
C14 C13 1_555 1_555
H5 C14 1_555 1_555
C15 C14 1_555 1_555
C16 N8 1_555 1_555
H7 C16 1_555 1_555
C17 C16 1_555 1_555
H8 C17 1_555 1_555
C18 C17 1_555 1_555
C19 C18 1_555 1_555
C20 C19 1_555 1_555
H9 C20 1_555 1_555
C21 C20 1_555 1_555
H10 C21 1_555 1_555
C22 C21 1_555 1_555
C23 C22 1_555 1_555
C24 C23 1_555 1_555
H11 C24 1_555 1_555
C25 C24 1_555 1_555
H12 C25 1_555 1_555
C28 C9 1_555 1_555
H15 C28 1_555 1_555
C29 C12 1_555 1_555
H16 C29 1_555 1_555
C32 N8 1_555 1_555
H19 C32 1_555 1_555
C33 C18 1_555 1_555
H20 C33 1_555 1_555
C34 C19 1_555 1_555
H21 C34 1_555 1_555
C35 C22 1_555 1_555
H22 C35 1_555 1_555
C36 C23 1_555 1_555
H23 C36 1_555 1_555
H24 C37 1_555 1_555
N15 Fe2 1_555 1_555
N16 Fe2 1_555 1_555
N17 Fe2 1_555 1_555
N18 Fe1 1_555 1_555
N19 Fe2 1_555 1_555
N3 C3 1_555 1_555
C28 C29 1_555 1_555
C32 C33 1_555 1_555
C34 C35 1_555 1_555
C36 C37 1_555 1_555
Fe3 N7 1_555 1_555
Fe7 N9 1_555 1_555
N6_2 Fe1_2 1_555 1_555
C9_2 C8_2 1_555 1_555
C10 C9_2 1_555 1_555
H3 C10 1_555 1_555
C11 C10 1_555 1_555
H4 C11 1_555 1_555
C12_2 C11 1_555 1_555
C13_2 C12_2 1_555 1_555
C26 N6_2 1_555 1_555
H13 C26 1_555 1_555
C27 C8_2 1_555 1_555
H14 C27 1_555 1_555
C30 C13_2 1_555 1_555
H17 C30 1_555 1_555
Ag4 C38 1_555 1_555
Ag5 N13 1_555 1_555
Ag6 C41 1_555 1_555
N10 Fe1_2 1_555 1_555
N12 Fe1_2 1_555 1_555
N13 C41 1_555 1_555
C38 N10 1_555 1_555
C40 Ag5 1_555 1_555
Ag9 Ag5 1_555 1_555
N18_2 Fe1_2 1_555 1_555
C26 C27 1_555 1_555
C30 C31 1_555 1_555
N12 C40 1_555 1_555
Fe3_2 N7_2 1_555 1_555
Ag2 N4 1_555 1_555
Ag3 C4 1_555 1_555
N4 C4 1_555 1_555
N5 C5 1_555 1_555
C5 Ag3 1_555 1_555
Ag8 Ag3 1_555 1_555
Fe6 N5 1_555 1_555
N15 C39 1_555 1_555
Ag2_2 N4_2 1_555 1_555
Ag3_2 C4_2 1_555 1_555
N5_2 C5_2 1_555 1_555
C5_2 Ag3_2 1_555 1_555
Ag8_2 Ag3_2 1_555 1_555
Fe7 N5_2 1_555 1_555
N11 C39_2 1_555 1_555
Fe4 N11 1_555 1_555
Ag1_2 C1_2 1_555 1_555
Fe1_3 N1_2 1_555 1_555
Fe4 N2_2 1_555 1_555
N1_2 C1_2 1_555 1_555
N2_2 C2_2 1_555 1_555
N3_2 Fe1_3 1_555 1_555
N6_3 Fe1_3 1_555 1_555
N7_3 C15_2 1_555 1_555
N8_2 Fe4 1_555 1_555
N9_2 C25_2 1_555 1_555
C2_2 Ag1_2 1_555 1_555
C6_2 N6_3 1_555 1_555
H1_2 C6_2 1_555 1_555
C7_2 C6_2 1_555 1_555
H2_2 C7_2 1_555 1_555
C8_3 C7_2 1_555 1_555
C9_3 C8_3 1_555 1_555
C13_3 C12_3 1_555 1_555
C14_2 C13_3 1_555 1_555
H5_2 C14_2 1_555 1_555
C15_2 C14_2 1_555 1_555
H6_2 C15_2 1_555 1_555
C16_2 N8_2 1_555 1_555
H7_2 C16_2 1_555 1_555
C17_2 C16_2 1_555 1_555
H8_2 C17_2 1_555 1_555
C18_2 C17_2 1_555 1_555
C19_2 C18_2 1_555 1_555
C20_2 C19_2 1_555 1_555
H9_2 C20_2 1_555 1_555
C21_2 C20_2 1_555 1_555
H10_2 C21_2 1_555 1_555
C22_2 C21_2 1_555 1_555
C23_2 C22_2 1_555 1_555
C24_2 C23_2 1_555 1_555
H11_2 C24_2 1_555 1_555
C25_2 C24_2 1_555 1_555
H12_2 C25_2 1_555 1_555
C28_2 C9_3 1_555 1_555
H15_2 C28_2 1_555 1_555
C29_2 C12_3 1_555 1_555
H16_2 C29_2 1_555 1_555
C32_2 N8_2 1_555 1_555
H19_2 C32_2 1_555 1_555
C33_2 C18_2 1_555 1_555
H20_2 C33_2 1_555 1_555
C34_2 C19_2 1_555 1_555
H21_2 C34_2 1_555 1_555
C35_2 C22_2 1_555 1_555
H22_2 C35_2 1_555 1_555
C36_2 C23_2 1_555 1_555
H23_2 C36_2 1_555 1_555
C37_2 N9_2 1_555 1_555
H24_2 C37_2 1_555 1_555
Fe3_3 N7_3 1_555 1_555
Fe6 N9_2 1_555 1_555
N16_2 Fe4 1_555 1_555
N17_2 Fe4 1_555 1_555
N18_3 Fe1_3 1_555 1_555
N19_2 Fe4 1_555 1_555
N3_2 C3_2 1_555 1_555
C28_2 C29_2 1_555 1_555
C32_2 C33_2 1_555 1_555
C34_2 C35_2 1_555 1_555
C36_2 C37_2 1_555 1_555
N6_4 Fe1_4 1_555 1_555
C9_4 C8_4 1_555 1_555
C10_2 C9_4 1_555 1_555
H3_2 C10_2 1_555 1_555
C11_2 C10_2 1_555 1_555
H4_2 C11_2 1_555 1_555
C12_4 C11_2 1_555 1_555
C13_4 C12_4 1_555 1_555
C26_2 N6_4 1_555 1_555
H13_2 C26_2 1_555 1_555
C27_2 C8_4 1_555 1_555
H14_2 C27_2 1_555 1_555
C30_2 C13_4 1_555 1_555
H17_2 C30_2 1_555 1_555
C31_2 N7_4 1_555 1_555
H18_2 C31_2 1_555 1_555
Ag4_2 C38_2 1_555 1_555
Ag5_2 N13_2 1_555 1_555
N10_2 Fe1_4 1_555 1_555
N12_2 Fe1_4 1_555 1_555
C38_2 N10_2 1_555 1_555
C40_2 Ag5_2 1_555 1_555
Ag9_2 Ag5_2 1_555 1_555
Fe3_4 N7_4 1_555 1_555
N18_4 Fe1_4 1_555 1_555
C26_2 C27_2 1_555 1_555
C30_2 C31_2 1_555 1_555
N12_2 C40_2 1_555 1_555
Ag6_2 C41_2 1_555 1_555
N14_2 C42_2 1_555 1_555
Fe7 N14_2 1_555 1_555
N11_2 C39_3 1_555 1_555
Fe6 N11_2 1_555 1_555
Ag7 N4_3 1_555 1_555
Ag9 C4_3 1_555 1_555
N4_3 C4_3 1_555 1_555
N16 C5_3 1_555 1_555
C5_3 Ag9 1_555 1_555
N6_5 Fe3_3 1_555 1_555
C9_5 C8_5 1_555 1_555
C10_3 C9_5 1_555 1_555
H3_3 C10_3 1_555 1_555
C11_3 C10_3 1_555 1_555
H4_3 C11_3 1_555 1_555
C12_5 C11_3 1_555 1_555
C13_5 C12_5 1_555 1_555
C26_3 N6_5 1_555 1_555
H13_3 C26_3 1_555 1_555
C27_3 C8_5 1_555 1_555
H14_3 C27_3 1_555 1_555
C30_3 C13_5 1_555 1_555
H17_3 C30_3 1_555 1_555
Ag4_3 C38_3 1_555 1_555
Ag8 N13_3 1_555 1_555
Ag10 C41_3 1_555 1_555
N10_3 Fe3_3 1_555 1_555
N12_3 Fe3_3 1_555 1_555
N13_3 C41_3 1_555 1_555
C38_3 N10_3 1_555 1_555
C40_3 Ag8 1_555 1_555
C26_3 C27_3 1_555 1_555
C30_3 C31_3 1_555 1_555
N12_3 C40_3 1_555 1_555
Ag1_3 C1_3 1_555 1_555
Fe3_4 N1_3 1_555 1_555
Fe6 N2_3 1_555 1_555
N1_3 C1_3 1_555 1_555
N2_3 C2_3 1_555 1_555
N3_3 Fe3_4 1_555 1_555
N6_6 Fe3_4 1_555 1_555
N8_3 Fe6 1_555 1_555
C2_3 Ag1_3 1_555 1_555
C6_3 N6_6 1_555 1_555
H1_3 C6_3 1_555 1_555
C7_3 C6_3 1_555 1_555
H2_3 C7_3 1_555 1_555
C8_6 C7_3 1_555 1_555
C9_6 C8_6 1_555 1_555
C13_6 C12_6 1_555 1_555
C14_3 C13_6 1_555 1_555
H5_3 C14_3 1_555 1_555
C15_3 C14_3 1_555 1_555
C16_3 N8_3 1_555 1_555
H7_3 C16_3 1_555 1_555
C17_3 C16_3 1_555 1_555
H8_3 C17_3 1_555 1_555
C18_3 C17_3 1_555 1_555
C19_3 C18_3 1_555 1_555
C20_3 C19_3 1_555 1_555
H9_3 C20_3 1_555 1_555
C21_3 C20_3 1_555 1_555
H10_3 C21_3 1_555 1_555
C22_3 C21_3 1_555 1_555
C23_3 C22_3 1_555 1_555
C24_3 C23_3 1_555 1_555
H11_3 C24_3 1_555 1_555
C25_3 C24_3 1_555 1_555
H12_3 C25_3 1_555 1_555
C28_3 C9_6 1_555 1_555
H15_3 C28_3 1_555 1_555
C29_3 C12_6 1_555 1_555
H16_3 C29_3 1_555 1_555
C32_3 N8_3 1_555 1_555
H19_3 C32_3 1_555 1_555
C33_3 C18_3 1_555 1_555
H20_3 C33_3 1_555 1_555
C34_3 C19_3 1_555 1_555
H21_3 C34_3 1_555 1_555
C35_3 C22_3 1_555 1_555
H22_3 C35_3 1_555 1_555
C36_3 C23_3 1_555 1_555
H23_3 C36_3 1_555 1_555
H24_3 C37_3 1_555 1_555
N3_3 C3_3 1_555 1_555
C28_3 C29_3 1_555 1_555
C32_3 C33_3 1_555 1_555
C34_3 C35_3 1_555 1_555
C36_3 C37_3 1_555 1_555
N17 C42_3 1_555 1_555
N17_2 C42_4 1_555 1_555
Ag10_2 C41_4 1_555 1_555
N6_7 Fe3 1_555 1_555
C9_7 C8_7 1_555 1_555
C10_4 C9_7 1_555 1_555
H3_4 C10_4 1_555 1_555
C11_4 C10_4 1_555 1_555
H4_4 C11_4 1_555 1_555
C12_7 C11_4 1_555 1_555
C13_7 C12_7 1_555 1_555
C26_4 N6_7 1_555 1_555
H13_4 C26_4 1_555 1_555
C27_4 C8_7 1_555 1_555
H14_4 C27_4 1_555 1_555
C30_4 C13_7 1_555 1_555
H17_4 C30_4 1_555 1_555
C31_4 N18 1_555 1_555
H18_4 C31_4 1_555 1_555
Ag4_4 C38_4 1_555 1_555
Ag8_2 N13_4 1_555 1_555
N10_4 Fe3 1_555 1_555
N12_4 Fe3 1_555 1_555
C38_4 N10_4 1_555 1_555
C40_4 Ag8_2 1_555 1_555
C26_4 C27_4 1_555 1_555
C30_4 C31_4 1_555 1_555
N12_4 C40_4 1_555 1_555
Ag1_4 C1_4 1_555 1_555
Fe3_2 N1_4 1_555 1_555
Fe7 N2_4 1_555 1_555
N1_4 C1_4 1_555 1_555
N2_4 C2_4 1_555 1_555
N3_4 Fe3_2 1_555 1_555
N6_8 Fe3_2 1_555 1_555
N18_2 C15_4 1_555 1_555
N8_4 Fe7 1_555 1_555
N19 C25_4 1_555 1_555
C2_4 Ag1_4 1_555 1_555
C6_4 N6_8 1_555 1_555
H1_4 C6_4 1_555 1_555
C7_4 C6_4 1_555 1_555
H2_4 C7_4 1_555 1_555
C8_8 C7_4 1_555 1_555
C9_8 C8_8 1_555 1_555
C13_8 C12_8 1_555 1_555
C14_4 C13_8 1_555 1_555
H5_4 C14_4 1_555 1_555
C15_4 C14_4 1_555 1_555
H6_4 C15_4 1_555 1_555
C16_4 N8_4 1_555 1_555
H7_4 C16_4 1_555 1_555
C17_4 C16_4 1_555 1_555
H8_4 C17_4 1_555 1_555
C18_4 C17_4 1_555 1_555
C19_4 C18_4 1_555 1_555
C20_4 C19_4 1_555 1_555
H9_4 C20_4 1_555 1_555
C21_4 C20_4 1_555 1_555
H10_4 C21_4 1_555 1_555
C22_4 C21_4 1_555 1_555
C23_4 C22_4 1_555 1_555
C24_4 C23_4 1_555 1_555
H11_4 C24_4 1_555 1_555
C25_4 C24_4 1_555 1_555
H12_4 C25_4 1_555 1_555
C28_4 C9_8 1_555 1_555
H15_4 C28_4 1_555 1_555
C29_4 C12_8 1_555 1_555
H16_4 C29_4 1_555 1_555
C32_4 N8_4 1_555 1_555
H19_4 C32_4 1_555 1_555
C33_4 C18_4 1_555 1_555
H20_4 C33_4 1_555 1_555
C34_4 C19_4 1_555 1_555
H21_4 C34_4 1_555 1_555
C35_4 C22_4 1_555 1_555
H22_4 C35_4 1_555 1_555
C36_4 C23_4 1_555 1_555
H23_4 C36_4 1_555 1_555
C37_4 N19 1_555 1_555
H24_4 C37_4 1_555 1_555
N15_2 Fe7 1_555 1_555
N3_4 C3_4 1_555 1_555
C28_4 C29_4 1_555 1_555
C32_4 C33_4 1_555 1_555
C34_4 C35_4 1_555 1_555
C36_4 C37_4 1_555 1_555
N15_2 C39_4 1_555 1_555
Ag9_2 C4_4 1_555 1_555
N16_2 C5_4 1_555 1_555
C5_4 Ag9_2 1_555 1_555
Ag7_2 N4_4 1_555 1_555

#END
