
###############################################################################
#
# This file contains modified crystal structure data generated from the
# MOF subset of the Cambridge Structural Database (CSD) v543 
# hosted by the Cambridge Crystallographic Data Centre (CCDC).
#
# This work is licensed under the Creative Commons
# Attribution-NonCommercial-ShareAlike 4.0 International License.
# To view a copy of this license, visit
# http://creativecommons.org/licenses/by-nc-sa/4.0/
# or send a letter to
# Creative Commons, PO Box 1866, Mountain View, CA 94042, USA.
#
# CIF created using the CSD Python API on 29 September 2022
# The structure has been converted into the P1 space group
# The structure has a 3D framework
# The original CSD entry POHWIU is in the tetragonal crystal system
# The framework has been calculated to contain at least 10.0% void space
# The void calculation uses a probe of radius 1.32A, grid spacing 0.4
# H atom positions have been added when not included in the experimental data
# Generated hydrogen atom positions removed from atoms on special positions
#
###############################################################################

data_POHWIU
_chemical_formula_moiety         '(C206 H216 Co20 N16 O60)n'
_symmetry_cell_setting           triclinic
_symmetry_space_group_name_H-M   'P 1'
_symmetry_Int_Tables_number      1
_space_group_name_Hall           'P 1'
loop_
_symmetry_equiv_pos_site_id
_symmetry_equiv_pos_as_xyz
1 x,y,z
_cell_length_a                   21.8729(7)
_cell_length_b                   21.8729(7)
_cell_length_c                   28.6804(17)
_cell_angle_alpha                90
_cell_angle_beta                 90
_cell_angle_gamma                90
_cell_volume                     13721.4
loop_
_atom_site_label
_atom_site_type_symbol
_atom_site_fract_x
_atom_site_fract_y
_atom_site_fract_z
Co1 Co -0.0000 -0.0000 0.2500
Co2 Co 0.5000 0.13862(12) 0.5000
Co3 Co 0.5000 0.27216(13) 0.5000
O1 O -0.0000 -0.0000 0.1689(10)
O2 O 0.4359(4) 0.1549(5) 0.4510(3)
O3 O 0.4358(5) 0.2581(6) 0.4511(3)
O4 O 0.5000 0.0481(8) 0.5000
O5 O 0.5000 0.3664(10) 0.5000
N1 N 0.0904(7) 0.0000 0.2487(5)
C1 C 0.1276(7) 0.0493(7) 0.2464(5)
C2 C 0.5000 -0.0000 0.5000
C3 C 0.1897(8) 0.0299(7) 0.2389(6)
H1 H 0.2242 0.0557 0.2348
C4 C 0.1089(6) 0.1089(6) 0.2500
C5 C 0.1584(6) 0.1584(6) 0.2500
C6 C 0.2000(7) 0.1618(7) 0.2868(5)
H2 H 0.1969 0.1341 0.3122
C7 C 0.2455(7) 0.2052(6) 0.2863(5)
C8 C 0.2479(6) 0.2479(6) 0.2500
H3 H 0.2786 0.2786 0.2500
C9 C 0.2904(7) 0.2062(7) 0.3246(5)
C10 C 0.3131(7) 0.1493(7) 0.3421(5)
H4 H 0.3005 0.1117 0.3284
C11 C 0.3535(8) 0.1496(7) 0.3793(6)
H5 H 0.3664 0.1122 0.3929
C12 C 0.3747(7) 0.2045(8) 0.3962(5)
C13 C 0.3544(7) 0.2623(7) 0.3778(6)
H6 H 0.3693 0.2998 0.3901
C14 C 0.3137(7) 0.2615(7) 0.3426(6)
H7 H 0.3004 0.2991 0.3295
C15 C 0.4192(7) 0.2063(9) 0.4366(5)
O6 O 0.1549(5) 0.4359(4) 0.0490(3)
O7 O 0.2581(6) 0.4358(5) 0.0489(3)
N2 N -0.0000 0.0904(7) 0.2513(5)
C16 C 0.0493(7) 0.1276(7) 0.2536(5)
C17 C 0.0299(7) 0.1897(8) 0.2611(6)
H8 H 0.0557 0.2242 0.2652
C18 C 0.1618(7) 0.2000(7) 0.2132(5)
H9 H 0.1341 0.1969 0.1878
C19 C 0.2052(6) 0.2455(7) 0.2137(5)
C20 C 0.2062(7) 0.2904(7) 0.1754(5)
C21 C 0.1493(7) 0.3131(7) 0.1579(5)
H10 H 0.1117 0.3005 0.1716
C22 C 0.1496(7) 0.3535(8) 0.1207(6)
H11 H 0.1122 0.3664 0.1071
C23 C 0.2045(8) 0.3747(7) 0.1038(5)
C24 C 0.2623(7) 0.3544(7) 0.1222(6)
H12 H 0.2998 0.3693 0.1099
C25 C 0.2615(7) 0.3137(7) 0.1574(6)
H13 H 0.2991 0.3004 0.1705
C26 C 0.2063(9) 0.4192(7) 0.0634(5)
O22 O -0.0000 0.0000 0.3311(10)
Co11 Co 0.13862(12) 0.5000 0.0000
Co17 Co 0.27216(13) 0.5000 0.0000
O24 O 0.5641(4) 0.1549(5) 0.5490(3)
O27 O 0.4359(4) 0.1549(5) 0.5490(3)
O28 O 0.5641(4) 0.1549(5) 0.4510(3)
O30 O 0.5642(5) 0.2581(6) 0.5489(3)
O33 O 0.4358(5) 0.2581(6) 0.5489(3)
O34 O 0.5642(5) 0.2581(6) 0.4511(3)
Co11_2 Co 0.13862(12) 0.5000 1.0000
Co17_2 Co 0.27216(13) 0.5000 1.0000
Co1_2 Co -0.0000 1.0000 0.2500
O1_2 O -0.0000 1.0000 0.1689(10)
N1_2 N 0.0904(7) 1.0000 0.2487(5)
C2_2 C 0.5000 1.0000 0.5000
O8 O 0.4359(4) 0.8451(5) 0.4510(3)
O9 O 0.4358(5) 0.7419(6) 0.4511(3)
C27 C 0.1276(7) 0.9507(7) 0.2464(5)
C28 C 0.1897(8) 0.9701(7) 0.2389(6)
H14 H 0.2242 0.9443 0.2348
C29 C 0.1089(6) 0.8911(6) 0.2500
C30 C 0.1584(6) 0.8416(6) 0.2500
C31 C 0.2000(7) 0.8382(7) 0.2868(5)
H15 H 0.1969 0.8659 0.3122
C32 C 0.2455(7) 0.7948(6) 0.2863(5)
C33 C 0.2479(6) 0.7521(6) 0.2500
H16 H 0.2786 0.7214 0.2500
C34 C 0.2904(7) 0.7938(7) 0.3246(5)
C35 C 0.3131(7) 0.8507(7) 0.3421(5)
H17 H 0.3005 0.8883 0.3284
C36 C 0.3535(8) 0.8504(7) 0.3793(6)
H18 H 0.3664 0.8878 0.3929
C37 C 0.3747(7) 0.7955(8) 0.3962(5)
C38 C 0.3544(7) 0.7377(7) 0.3778(6)
H19 H 0.3693 0.7002 0.3901
C39 C 0.3137(7) 0.7385(7) 0.3426(6)
H20 H 0.3004 0.7009 0.3295
C40 C 0.4192(7) 0.7937(9) 0.4366(5)
O10 O 0.1549(5) 0.5641(4) 0.0490(3)
O11 O 0.2581(6) 0.5642(5) 0.0489(3)
N3 N -0.0000 0.9096(7) 0.2513(5)
C41 C 0.0493(7) 0.8724(7) 0.2536(5)
C42 C 0.0299(7) 0.8103(8) 0.2611(6)
H21 H 0.0557 0.7758 0.2652
C43 C 0.1618(7) 0.8000(7) 0.2132(5)
H22 H 0.1341 0.8031 0.1878
C44 C 0.2052(6) 0.7545(7) 0.2137(5)
C45 C 0.2062(7) 0.7096(7) 0.1754(5)
C46 C 0.1493(7) 0.6869(7) 0.1579(5)
H23 H 0.1117 0.6995 0.1716
C47 C 0.1496(7) 0.6465(8) 0.1207(6)
H24 H 0.1122 0.6336 0.1071
C48 C 0.2045(8) 0.6253(7) 0.1038(5)
C49 C 0.2623(7) 0.6456(7) 0.1222(6)
H25 H 0.2998 0.6307 0.1099
C50 C 0.2615(7) 0.6863(7) 0.1574(6)
H26 H 0.2991 0.6996 0.1705
C51 C 0.2063(9) 0.5808(7) 0.0634(5)
O20 O 0.5000 0.9519(8) 0.5000
Co4 Co 0.5000 0.86138(12) 0.5000
Co5 Co 0.5000 0.72784(13) 0.5000
O21 O 0.5000 0.6336(10) 0.5000
O22_2 O -0.0000 1.0000 0.3311(10)
O23 O 0.5641(4) 0.8451(5) 0.4510(3)
O25 O 0.4359(4) 0.8451(5) 0.5490(3)
O26 O 0.5641(4) 0.8451(5) 0.5490(3)
O29 O 0.5642(5) 0.7419(6) 0.4511(3)
O31 O 0.4358(5) 0.7419(6) 0.5489(3)
O32 O 0.5642(5) 0.7419(6) 0.5489(3)
Co1_3 Co 1.0000 -0.0000 0.2500
O1_3 O 1.0000 -0.0000 0.1689(10)
N2_2 N 1.0000 0.0904(7) 0.2513(5)
O12 O 0.8451(5) 0.4359(4) 0.0490(3)
O13 O 0.7419(6) 0.4358(5) 0.0489(3)
C52 C 0.9507(7) 0.1276(7) 0.2536(5)
C53 C 0.9701(7) 0.1897(8) 0.2611(6)
H27 H 0.9443 0.2242 0.2652
C54 C 0.8911(6) 0.1089(6) 0.2500
C55 C 0.8416(6) 0.1584(6) 0.2500
C56 C 0.8382(7) 0.2000(7) 0.2132(5)
H28 H 0.8659 0.1969 0.1878
C57 C 0.7948(6) 0.2455(7) 0.2137(5)
C58 C 0.7521(6) 0.2479(6) 0.2500
H29 H 0.7214 0.2786 0.2500
C59 C 0.7938(7) 0.2904(7) 0.1754(5)
C60 C 0.8507(7) 0.3131(7) 0.1579(5)
H30 H 0.8883 0.3005 0.1716
C61 C 0.8504(7) 0.3535(8) 0.1207(6)
H31 H 0.8878 0.3664 0.1071
C62 C 0.7955(8) 0.3747(7) 0.1038(5)
C63 C 0.7377(7) 0.3544(7) 0.1222(6)
H32 H 0.7002 0.3693 0.1099
C64 C 0.7385(7) 0.3137(7) 0.1574(6)
H33 H 0.7009 0.3004 0.1705
C65 C 0.7937(9) 0.4192(7) 0.0634(5)
N4 N 0.9096(7) 0.0000 0.2487(5)
C80 C 0.8724(7) 0.0493(7) 0.2464(5)
C81 C 0.8103(8) 0.0299(7) 0.2389(6)
H41 H 0.7758 0.0557 0.2348
C82 C 0.8000(7) 0.1618(7) 0.2868(5)
H42 H 0.8031 0.1341 0.3122
C83 C 0.7545(7) 0.2052(6) 0.2863(5)
C84 C 0.7096(7) 0.2062(7) 0.3246(5)
C85 C 0.6869(7) 0.1493(7) 0.3421(5)
H43 H 0.6995 0.1117 0.3284
C86 C 0.6465(8) 0.1496(7) 0.3793(6)
H44 H 0.6336 0.1122 0.3929
C87 C 0.6253(7) 0.2045(8) 0.3962(5)
C88 C 0.6456(7) 0.2623(7) 0.3778(6)
H45 H 0.6307 0.2998 0.3901
C89 C 0.6863(7) 0.2615(7) 0.3426(6)
H46 H 0.6996 0.2991 0.3295
C90 C 0.5808(7) 0.2063(9) 0.4366(5)
O22_3 O 1.0000 0.0000 0.3311(10)
Co9 Co 0.86138(12) 0.5000 0.0000
Co15 Co 0.72784(13) 0.5000 0.0000
Co9_2 Co 0.86138(12) 0.5000 1.0000
Co15_2 Co 0.72784(13) 0.5000 1.0000
Co1_4 Co 1.0000 1.0000 0.2500
O1_4 O 1.0000 1.0000 0.1689(10)
N3_2 N 1.0000 0.9096(7) 0.2513(5)
O14 O 0.8451(5) 0.5641(4) 0.0490(3)
O15 O 0.7419(6) 0.5642(5) 0.0489(3)
C66 C 0.9507(7) 0.8724(7) 0.2536(5)
C67 C 0.9701(7) 0.8103(8) 0.2611(6)
H34 H 0.9443 0.7758 0.2652
C68 C 0.8911(6) 0.8911(6) 0.2500
C69 C 0.8416(6) 0.8416(6) 0.2500
C70 C 0.8382(7) 0.8000(7) 0.2132(5)
H35 H 0.8659 0.8031 0.1878
C71 C 0.7948(6) 0.7545(7) 0.2137(5)
C72 C 0.7521(6) 0.7521(6) 0.2500
H36 H 0.7214 0.7214 0.2500
C73 C 0.7938(7) 0.7096(7) 0.1754(5)
C74 C 0.8507(7) 0.6869(7) 0.1579(5)
H37 H 0.8883 0.6995 0.1716
C75 C 0.8504(7) 0.6465(8) 0.1207(6)
H38 H 0.8878 0.6336 0.1071
C76 C 0.7955(8) 0.6253(7) 0.1038(5)
C77 C 0.7377(7) 0.6456(7) 0.1222(6)
H39 H 0.7002 0.6307 0.1099
C78 C 0.7385(7) 0.6863(7) 0.1574(6)
H40 H 0.7009 0.6996 0.1705
C79 C 0.7937(9) 0.5808(7) 0.0634(5)
N4_2 N 0.9096(7) 1.0000 0.2487(5)
C91 C 0.8724(7) 0.9507(7) 0.2464(5)
C92 C 0.8103(8) 0.9701(7) 0.2389(6)
H47 H 0.7758 0.9443 0.2348
C93 C 0.8000(7) 0.8382(7) 0.2868(5)
H48 H 0.8031 0.8659 0.3122
C94 C 0.7545(7) 0.7948(6) 0.2863(5)
C95 C 0.7096(7) 0.7938(7) 0.3246(5)
C96 C 0.6869(7) 0.8507(7) 0.3421(5)
H49 H 0.6995 0.8883 0.3284
C97 C 0.6465(8) 0.8504(7) 0.3793(6)
H50 H 0.6336 0.8878 0.3929
C98 C 0.6253(7) 0.7955(8) 0.3962(5)
C99 C 0.6456(7) 0.7377(7) 0.3778(6)
H51 H 0.6307 0.7002 0.3901
C100 C 0.6863(7) 0.7385(7) 0.3426(6)
H52 H 0.6996 0.7009 0.3295
C101 C 0.5808(7) 0.7937(9) 0.4366(5)
O22_4 O 1.0000 1.0000 0.3311(10)
C2_3 C 0.0000 0.5000 0.0000
O20_2 O 0.0481(8) 0.5000 0.0000
O21_2 O 0.3664(10) 0.5000 0.0000
Co1_5 Co -0.0000 -0.0000 0.7500
O1_5 O -0.0000 -0.0000 0.6689(10)
N1_3 N -0.0000 0.0904(7) 0.7487(5)
C2_4 C -0.0000 0.5000 1.0000
O8_2 O 0.1549(5) 0.4359(4) 0.9510(3)
O9_2 O 0.2581(6) 0.4358(5) 0.9511(3)
C27_2 C 0.0493(7) 0.1276(7) 0.7464(5)
C28_2 C 0.0299(7) 0.1897(8) 0.7389(6)
H14_2 H 0.0557 0.2242 0.7348
C29_2 C 0.1089(6) 0.1089(6) 0.7500
C30_2 C 0.1584(6) 0.1584(6) 0.7500
C31_2 C 0.1618(7) 0.2000(7) 0.7868(5)
H15_2 H 0.1341 0.1969 0.8122
C32_2 C 0.2052(6) 0.2455(7) 0.7863(5)
C33_2 C 0.2479(6) 0.2479(6) 0.7500
H16_2 H 0.2786 0.2786 0.7500
C34_2 C 0.2062(7) 0.2904(7) 0.8246(5)
C35_2 C 0.1493(7) 0.3131(7) 0.8421(5)
H17_2 H 0.1117 0.3005 0.8284
C36_2 C 0.1496(7) 0.3535(8) 0.8793(6)
H18_2 H 0.1122 0.3664 0.8929
C37_2 C 0.2045(8) 0.3747(7) 0.8962(5)
C38_2 C 0.2623(7) 0.3544(7) 0.8778(6)
H19_2 H 0.2998 0.3693 0.8901
C39_2 C 0.2615(7) 0.3137(7) 0.8426(6)
H20_2 H 0.2991 0.3004 0.8295
C40_2 C 0.2063(9) 0.4192(7) 0.9366(5)
N3_3 N 0.0904(7) -0.0000 0.7513(5)
C41_2 C 0.1276(7) 0.0493(7) 0.7536(5)
C42_2 C 0.1897(8) 0.0299(7) 0.7611(6)
H21_2 H 0.2242 0.0557 0.7652
C43_2 C 0.2000(7) 0.1618(7) 0.7132(5)
H22_2 H 0.1969 0.1341 0.6878
C44_2 C 0.2455(7) 0.2052(6) 0.7137(5)
C45_2 C 0.2904(7) 0.2062(7) 0.6754(5)
C46_2 C 0.3131(7) 0.1493(7) 0.6579(5)
H23_2 H 0.3005 0.1117 0.6716
C47_2 C 0.3535(8) 0.1496(7) 0.6207(6)
H24_2 H 0.3664 0.1122 0.6071
C48_2 C 0.3747(7) 0.2045(8) 0.6038(5)
C49_2 C 0.3544(7) 0.2623(7) 0.6222(6)
H25_2 H 0.3693 0.2998 0.6099
C50_2 C 0.3137(7) 0.2615(7) 0.6574(6)
H26_2 H 0.3004 0.2991 0.6705
C51_2 C 0.4192(7) 0.2063(9) 0.5634(5)
O20_3 O 0.0481(8) 0.5000 1.0000
O21_3 O 0.3664(10) 0.5000 1.0000
O22_5 O 0.0000 0.0000 0.8311(10)
O23_2 O 0.1549(5) 0.5641(4) 0.9510(3)
O29_2 O 0.2581(6) 0.5642(5) 0.9511(3)
Co1_6 Co -0.0000 1.0000 0.7500
O1_6 O -0.0000 1.0000 0.6689(10)
N3_4 N 0.0904(7) 1.0000 0.7513(5)
C66_2 C 0.1276(7) 0.9507(7) 0.7536(5)
C67_2 C 0.1897(8) 0.9701(7) 0.7611(6)
H34_2 H 0.2242 0.9443 0.7652
C68_2 C 0.1089(6) 0.8911(6) 0.7500
C69_2 C 0.1584(6) 0.8416(6) 0.7500
C70_2 C 0.2000(7) 0.8382(7) 0.7132(5)
H35_2 H 0.1969 0.8659 0.6878
C71_2 C 0.2455(7) 0.7948(6) 0.7137(5)
C72_2 C 0.2479(6) 0.7521(6) 0.7500
H36_2 H 0.2786 0.7214 0.7500
C73_2 C 0.2904(7) 0.7938(7) 0.6754(5)
C74_2 C 0.3131(7) 0.8507(7) 0.6579(5)
H37_2 H 0.3005 0.8883 0.6716
C75_2 C 0.3535(8) 0.8504(7) 0.6207(6)
H38_2 H 0.3664 0.8878 0.6071
C76_2 C 0.3747(7) 0.7955(8) 0.6038(5)
C77_2 C 0.3544(7) 0.7377(7) 0.6222(6)
H39_2 H 0.3693 0.7002 0.6099
C78_2 C 0.3137(7) 0.7385(7) 0.6574(6)
H40_2 H 0.3004 0.7009 0.6705
C79_2 C 0.4192(7) 0.7937(9) 0.5634(5)
N4_3 N -0.0000 0.9096(7) 0.7487(5)
C91_2 C 0.0493(7) 0.8724(7) 0.7464(5)
C92_2 C 0.0299(7) 0.8103(8) 0.7389(6)
H47_2 H 0.0557 0.7758 0.7348
C93_2 C 0.1618(7) 0.8000(7) 0.7868(5)
H48_2 H 0.1341 0.8031 0.8122
C94_2 C 0.2052(6) 0.7545(7) 0.7863(5)
C95_2 C 0.2062(7) 0.7096(7) 0.8246(5)
C96_2 C 0.1493(7) 0.6869(7) 0.8421(5)
H49_2 H 0.1117 0.6995 0.8284
C97_2 C 0.1496(7) 0.6465(8) 0.8793(6)
H50_2 H 0.1122 0.6336 0.8929
C98_2 C 0.2045(8) 0.6253(7) 0.8962(5)
C99_2 C 0.2623(7) 0.6456(7) 0.8778(6)
H51_2 H 0.2998 0.6307 0.8901
C100_2 C 0.2615(7) 0.6863(7) 0.8426(6)
H52_2 H 0.2991 0.6996 0.8295
C101_2 C 0.2063(9) 0.5808(7) 0.9366(5)
O22_6 O -0.0000 1.0000 0.8311(10)
O4_2 O 0.9519(8) 0.5000 0.0000
O5_2 O 0.6336(10) 0.5000 0.0000
C2_5 C 1.0000 0.5000 0.0000
Co1_7 Co 1.0000 -0.0000 0.7500
O1_7 O 1.0000 -0.0000 0.6689(10)
O2_2 O 0.8451(5) 0.4359(4) 0.9510(3)
O3_2 O 0.7419(6) 0.4358(5) 0.9511(3)
O4_3 O 0.9519(8) 0.5000 1.0000
O5_3 O 0.6336(10) 0.5000 1.0000
N1_4 N 1.0000 0.0904(7) 0.7487(5)
C1_2 C 0.9507(7) 0.1276(7) 0.7464(5)
C2_6 C 1.0000 0.5000 1.0000
C3_2 C 0.9701(7) 0.1897(8) 0.7389(6)
H1_2 H 0.9443 0.2242 0.7348
C4_2 C 0.8911(6) 0.1089(6) 0.7500
C5_2 C 0.8416(6) 0.1584(6) 0.7500
C6_2 C 0.8382(7) 0.2000(7) 0.7868(5)
H2_2 H 0.8659 0.1969 0.8122
C7_2 C 0.7948(6) 0.2455(7) 0.7863(5)
C8_2 C 0.7521(6) 0.2479(6) 0.7500
H3_2 H 0.7214 0.2786 0.7500
C9_2 C 0.7938(7) 0.2904(7) 0.8246(5)
C10_2 C 0.8507(7) 0.3131(7) 0.8421(5)
H4_2 H 0.8883 0.3005 0.8284
C11_2 C 0.8504(7) 0.3535(8) 0.8793(6)
H5_2 H 0.8878 0.3664 0.8929
C12_2 C 0.7955(8) 0.3747(7) 0.8962(5)
C13_2 C 0.7377(7) 0.3544(7) 0.8778(6)
H6_2 H 0.7002 0.3693 0.8901
C14_2 C 0.7385(7) 0.3137(7) 0.8426(6)
H7_2 H 0.7009 0.3004 0.8295
C15_2 C 0.7937(9) 0.4192(7) 0.9366(5)
N2_3 N 0.9096(7) -0.0000 0.7513(5)
C16_2 C 0.8724(7) 0.0493(7) 0.7536(5)
C17_2 C 0.8103(8) 0.0299(7) 0.7611(6)
H8_2 H 0.7758 0.0557 0.7652
C18_2 C 0.8000(7) 0.1618(7) 0.7132(5)
H9_2 H 0.8031 0.1341 0.6878
C19_2 C 0.7545(7) 0.2052(6) 0.7137(5)
C20_2 C 0.7096(7) 0.2062(7) 0.6754(5)
C21_2 C 0.6869(7) 0.1493(7) 0.6579(5)
H10_2 H 0.6995 0.1117 0.6716
C22_2 C 0.6465(8) 0.1496(7) 0.6207(6)
H11_2 H 0.6336 0.1122 0.6071
C23_2 C 0.6253(7) 0.2045(8) 0.6038(5)
C24_2 C 0.6456(7) 0.2623(7) 0.6222(6)
H12_2 H 0.6307 0.2998 0.6099
C25_2 C 0.6863(7) 0.2615(7) 0.6574(6)
H13_2 H 0.6996 0.2991 0.6705
C26_2 C 0.5808(7) 0.2063(9) 0.5634(5)
O22_7 O 1.0000 0.0000 0.8311(10)
O28_2 O 0.8451(5) 0.5641(4) 0.9510(3)
O34_2 O 0.7419(6) 0.5642(5) 0.9511(3)
Co1_8 Co 1.0000 1.0000 0.7500
O1_8 O 1.0000 1.0000 0.6689(10)
N2_4 N 0.9096(7) 1.0000 0.7513(5)
C52_2 C 0.8724(7) 0.9507(7) 0.7536(5)
C53_2 C 0.8103(8) 0.9701(7) 0.7611(6)
H27_2 H 0.7758 0.9443 0.7652
C54_2 C 0.8911(6) 0.8911(6) 0.7500
C55_2 C 0.8416(6) 0.8416(6) 0.7500
C56_2 C 0.8000(7) 0.8382(7) 0.7132(5)
H28_2 H 0.8031 0.8659 0.6878
C57_2 C 0.7545(7) 0.7948(6) 0.7137(5)
C58_2 C 0.7521(6) 0.7521(6) 0.7500
H29_2 H 0.7214 0.7214 0.7500
C59_2 C 0.7096(7) 0.7938(7) 0.6754(5)
C60_2 C 0.6869(7) 0.8507(7) 0.6579(5)
H30_2 H 0.6995 0.8883 0.6716
C61_2 C 0.6465(8) 0.8504(7) 0.6207(6)
H31_2 H 0.6336 0.8878 0.6071
C62_2 C 0.6253(7) 0.7955(8) 0.6038(5)
C63_2 C 0.6456(7) 0.7377(7) 0.6222(6)
H32_2 H 0.6307 0.7002 0.6099
C64_2 C 0.6863(7) 0.7385(7) 0.6574(6)
H33_2 H 0.6996 0.7009 0.6705
C65_2 C 0.5808(7) 0.7937(9) 0.5634(5)
N4_4 N 1.0000 0.9096(7) 0.7487(5)
C80_2 C 0.9507(7) 0.8724(7) 0.7464(5)
C81_2 C 0.9701(7) 0.8103(8) 0.7389(6)
H41_2 H 0.9443 0.7758 0.7348
C82_2 C 0.8382(7) 0.8000(7) 0.7868(5)
H42_2 H 0.8659 0.8031 0.8122
C83_2 C 0.7948(6) 0.7545(7) 0.7863(5)
C84_2 C 0.7938(7) 0.7096(7) 0.8246(5)
C85_2 C 0.8507(7) 0.6869(7) 0.8421(5)
H43_2 H 0.8883 0.6995 0.8284
C86_2 C 0.8504(7) 0.6465(8) 0.8793(6)
H44_2 H 0.8878 0.6336 0.8929
C87_2 C 0.7955(8) 0.6253(7) 0.8962(5)
C88_2 C 0.7377(7) 0.6456(7) 0.8778(6)
H45_2 H 0.7002 0.6307 0.8901
C89_2 C 0.7385(7) 0.6863(7) 0.8426(6)
H46_2 H 0.7009 0.6996 0.8295
C90_2 C 0.7937(9) 0.5808(7) 0.9366(5)
O22_8 O 1.0000 1.0000 0.8311(10)
loop_
_geom_bond_atom_site_label_1
_geom_bond_atom_site_label_2
_geom_bond_site_symmetry_1
_geom_bond_site_symmetry_2
Co1 O1 1_555 1_555
Co2 Co3 1_555 1_555
Co3 O3 1_555 1_555
O2 Co2 1_555 1_555
O3 C15 1_555 1_555
O4 Co2 1_555 1_555
O5 Co3 1_555 1_555
N1 Co1 1_555 1_555
C1 N1 1_555 1_555
C2 O4 1_555 1_555
C3 C1 1_555 1_555
H1 C3 1_555 1_555
C4 C1 1_555 1_555
C5 C4 1_555 1_555
C6 C5 1_555 1_555
H2 C6 1_555 1_555
C7 C6 1_555 1_555
C8 C7 1_555 1_555
H3 C8 1_555 1_555
C9 C7 1_555 1_555
C10 C9 1_555 1_555
H4 C10 1_555 1_555
C11 C10 1_555 1_555
H5 C11 1_555 1_555
C12 C11 1_555 1_555
C13 C12 1_555 1_555
H6 C13 1_555 1_555
C14 C9 1_555 1_555
H7 C14 1_555 1_555
C15 O2 1_555 1_555
O6 C26 1_555 1_555
O7 C26 1_555 1_555
N2 Co1 1_555 1_555
C16 C4 1_555 1_555
C17 C16 1_555 1_555
H8 C17 1_555 1_555
C18 C5 1_555 1_555
H9 C18 1_555 1_555
C19 C8 1_555 1_555
C20 C19 1_555 1_555
C21 C20 1_555 1_555
H10 C21 1_555 1_555
C22 C21 1_555 1_555
H11 C22 1_555 1_555
C23 C22 1_555 1_555
C24 C23 1_555 1_555
H12 C24 1_555 1_555
C25 C20 1_555 1_555
H13 C25 1_555 1_555
C26 C23 1_555 1_555
O22 Co1 1_555 1_555
Co11 O6 1_555 1_555
Co17 O7 1_555 1_555
O24 Co2 1_555 1_555
O27 Co2 1_555 1_555
O28 Co2 1_555 1_555
O30 Co3 1_555 1_555
O33 Co3 1_555 1_555
O34 Co3 1_555 1_555
C12 C15 1_555 1_555
C13 C14 1_555 1_555
N2 C16 1_555 1_555
C18 C19 1_555 1_555
C24 C25 1_555 1_555
Co11 Co17 1_555 1_555
Co11_2 Co17_2 1_555 1_555
Co1_2 O1_2 1_555 1_555
N1_2 Co1_2 1_555 1_555
O8 C40 1_555 1_555
O9 C40 1_555 1_555
C27 N1_2 1_555 1_555
H14 C28 1_555 1_555
C29 C27 1_555 1_555
C30 C29 1_555 1_555
C31 C30 1_555 1_555
H15 C31 1_555 1_555
C32 C31 1_555 1_555
C33 C32 1_555 1_555
H16 C33 1_555 1_555
C34 C32 1_555 1_555
C35 C34 1_555 1_555
H17 C35 1_555 1_555
C36 C35 1_555 1_555
H18 C36 1_555 1_555
C37 C36 1_555 1_555
C38 C37 1_555 1_555
H19 C38 1_555 1_555
C39 C34 1_555 1_555
H20 C39 1_555 1_555
C40 C37 1_555 1_555
O10 C51 1_555 1_555
O11 C51 1_555 1_555
N3 Co1_2 1_555 1_555
C41 C29 1_555 1_555
C42 C41 1_555 1_555
H21 C42 1_555 1_555
C43 C30 1_555 1_555
H22 C43 1_555 1_555
C44 C33 1_555 1_555
C45 C44 1_555 1_555
C46 C45 1_555 1_555
H23 C46 1_555 1_555
C47 C46 1_555 1_555
H24 C47 1_555 1_555
C48 C47 1_555 1_555
C49 C48 1_555 1_555
H25 C49 1_555 1_555
C50 C45 1_555 1_555
H26 C50 1_555 1_555
C51 C48 1_555 1_555
O20 C2_2 1_555 1_555
Co4 O8 1_555 1_555
Co5 O9 1_555 1_555
O21 Co5 1_555 1_555
O22_2 Co1_2 1_555 1_555
Co11 O10 1_555 1_555
Co17 O11 1_555 1_555
O23 Co4 1_555 1_555
O25 Co4 1_555 1_555
O26 Co4 1_555 1_555
O29 Co5 1_555 1_555
O31 Co5 1_555 1_555
O32 Co5 1_555 1_555
C27 C28 1_555 1_555
C38 C39 1_555 1_555
N3 C41 1_555 1_555
C43 C44 1_555 1_555
C49 C50 1_555 1_555
O20 Co4 1_555 1_555
Co4 Co5 1_555 1_555
Co1_3 O1_3 1_555 1_555
N2_2 Co1_3 1_555 1_555
O12 C65 1_555 1_555
O13 C65 1_555 1_555
C52 N2_2 1_555 1_555
H27 C53 1_555 1_555
C54 C52 1_555 1_555
C55 C54 1_555 1_555
C56 C55 1_555 1_555
H28 C56 1_555 1_555
C57 C56 1_555 1_555
C58 C57 1_555 1_555
H29 C58 1_555 1_555
C59 C57 1_555 1_555
C60 C59 1_555 1_555
H30 C60 1_555 1_555
C61 C60 1_555 1_555
H31 C61 1_555 1_555
C62 C61 1_555 1_555
C63 C62 1_555 1_555
H32 C63 1_555 1_555
C64 C59 1_555 1_555
H33 C64 1_555 1_555
C65 C62 1_555 1_555
O28 C90 1_555 1_555
O34 C90 1_555 1_555
N4 Co1_3 1_555 1_555
C80 C54 1_555 1_555
C81 C80 1_555 1_555
H41 C81 1_555 1_555
C82 C55 1_555 1_555
H42 C82 1_555 1_555
C83 C58 1_555 1_555
C84 C83 1_555 1_555
C85 C84 1_555 1_555
H43 C85 1_555 1_555
C86 C85 1_555 1_555
H44 C86 1_555 1_555
C87 C86 1_555 1_555
C88 C87 1_555 1_555
H45 C88 1_555 1_555
C89 C84 1_555 1_555
H46 C89 1_555 1_555
C90 C87 1_555 1_555
O22_3 Co1_3 1_555 1_555
Co9 O12 1_555 1_555
Co15 O13 1_555 1_555
C52 C53 1_555 1_555
C63 C64 1_555 1_555
N4 C80 1_555 1_555
C82 C83 1_555 1_555
C88 C89 1_555 1_555
Co9 Co15 1_555 1_555
Co9_2 Co15_2 1_555 1_555
Co1_4 O1_4 1_555 1_555
N3_2 Co1_4 1_555 1_555
O14 C79 1_555 1_555
O15 C79 1_555 1_555
C66 N3_2 1_555 1_555
H34 C67 1_555 1_555
C68 C66 1_555 1_555
C69 C68 1_555 1_555
C70 C69 1_555 1_555
H35 C70 1_555 1_555
C71 C70 1_555 1_555
C72 C71 1_555 1_555
H36 C72 1_555 1_555
C73 C71 1_555 1_555
C74 C73 1_555 1_555
H37 C74 1_555 1_555
C75 C74 1_555 1_555
H38 C75 1_555 1_555
C76 C75 1_555 1_555
C77 C76 1_555 1_555
H39 C77 1_555 1_555
C78 C73 1_555 1_555
H40 C78 1_555 1_555
C79 C76 1_555 1_555
N4_2 Co1_4 1_555 1_555
O23 C101 1_555 1_555
O29 C101 1_555 1_555
C91 C68 1_555 1_555
H47 C92 1_555 1_555
C93 C69 1_555 1_555
H48 C93 1_555 1_555
C94 C72 1_555 1_555
C95 C94 1_555 1_555
C96 C95 1_555 1_555
H49 C96 1_555 1_555
C97 C96 1_555 1_555
H50 C97 1_555 1_555
C98 C97 1_555 1_555
C99 C98 1_555 1_555
H51 C99 1_555 1_555
C100 C95 1_555 1_555
H52 C100 1_555 1_555
C101 C98 1_555 1_555
O22_4 Co1_4 1_555 1_555
Co9 O14 1_555 1_555
Co15 O15 1_555 1_555
C66 C67 1_555 1_555
C77 C78 1_555 1_555
N4_2 C91 1_555 1_555
C91 C92 1_555 1_555
C93 C94 1_555 1_555
C99 C100 1_555 1_555
O20_2 C2_3 1_555 1_555
O21_2 Co17 1_555 1_555
O20_2 Co11 1_555 1_555
Co1_5 O1_5 1_555 1_555
N1_3 Co1_5 1_555 1_555
O8_2 C40_2 1_555 1_555
O9_2 C40_2 1_555 1_555
C27_2 N1_3 1_555 1_555
H14_2 C28_2 1_555 1_555
C29_2 C27_2 1_555 1_555
C30_2 C29_2 1_555 1_555
C31_2 C30_2 1_555 1_555
H15_2 C31_2 1_555 1_555
C32_2 C31_2 1_555 1_555
C33_2 C32_2 1_555 1_555
H16_2 C33_2 1_555 1_555
C34_2 C32_2 1_555 1_555
C35_2 C34_2 1_555 1_555
H17_2 C35_2 1_555 1_555
C36_2 C35_2 1_555 1_555
H18_2 C36_2 1_555 1_555
C37_2 C36_2 1_555 1_555
C38_2 C37_2 1_555 1_555
H19_2 C38_2 1_555 1_555
C39_2 C34_2 1_555 1_555
H20_2 C39_2 1_555 1_555
C40_2 C37_2 1_555 1_555
O27 C51_2 1_555 1_555
O33 C51_2 1_555 1_555
N3_3 Co1_5 1_555 1_555
C41_2 C29_2 1_555 1_555
C42_2 C41_2 1_555 1_555
H21_2 C42_2 1_555 1_555
C43_2 C30_2 1_555 1_555
H22_2 C43_2 1_555 1_555
C44_2 C33_2 1_555 1_555
C45_2 C44_2 1_555 1_555
C46_2 C45_2 1_555 1_555
H23_2 C46_2 1_555 1_555
C47_2 C46_2 1_555 1_555
H24_2 C47_2 1_555 1_555
C48_2 C47_2 1_555 1_555
C49_2 C48_2 1_555 1_555
H25_2 C49_2 1_555 1_555
C50_2 C45_2 1_555 1_555
H26_2 C50_2 1_555 1_555
C51_2 C48_2 1_555 1_555
O20_3 C2_4 1_555 1_555
Co11_2 O8_2 1_555 1_555
Co17_2 O9_2 1_555 1_555
O21_3 Co17_2 1_555 1_555
O22_5 Co1_5 1_555 1_555
O23_2 Co11_2 1_555 1_555
O29_2 Co17_2 1_555 1_555
C27_2 C28_2 1_555 1_555
C38_2 C39_2 1_555 1_555
N3_3 C41_2 1_555 1_555
C43_2 C44_2 1_555 1_555
C49_2 C50_2 1_555 1_555
O20_3 Co11_2 1_555 1_555
Co1_6 O1_6 1_555 1_555
N3_4 Co1_6 1_555 1_555
O25 C79_2 1_555 1_555
O31 C79_2 1_555 1_555
C66_2 N3_4 1_555 1_555
H34_2 C67_2 1_555 1_555
C68_2 C66_2 1_555 1_555
C69_2 C68_2 1_555 1_555
C70_2 C69_2 1_555 1_555
H35_2 C70_2 1_555 1_555
C71_2 C70_2 1_555 1_555
C72_2 C71_2 1_555 1_555
H36_2 C72_2 1_555 1_555
C73_2 C71_2 1_555 1_555
C74_2 C73_2 1_555 1_555
H37_2 C74_2 1_555 1_555
C75_2 C74_2 1_555 1_555
H38_2 C75_2 1_555 1_555
C76_2 C75_2 1_555 1_555
C77_2 C76_2 1_555 1_555
H39_2 C77_2 1_555 1_555
C78_2 C73_2 1_555 1_555
H40_2 C78_2 1_555 1_555
C79_2 C76_2 1_555 1_555
N4_3 Co1_6 1_555 1_555
O23_2 C101_2 1_555 1_555
O29_2 C101_2 1_555 1_555
C91_2 C68_2 1_555 1_555
H47_2 C92_2 1_555 1_555
C93_2 C69_2 1_555 1_555
H48_2 C93_2 1_555 1_555
C94_2 C72_2 1_555 1_555
C95_2 C94_2 1_555 1_555
C96_2 C95_2 1_555 1_555
H49_2 C96_2 1_555 1_555
C97_2 C96_2 1_555 1_555
H50_2 C97_2 1_555 1_555
C98_2 C97_2 1_555 1_555
C99_2 C98_2 1_555 1_555
H51_2 C99_2 1_555 1_555
C100_2 C95_2 1_555 1_555
H52_2 C100_2 1_555 1_555
C101_2 C98_2 1_555 1_555
O22_6 Co1_6 1_555 1_555
C66_2 C67_2 1_555 1_555
C77_2 C78_2 1_555 1_555
N4_3 C91_2 1_555 1_555
C91_2 C92_2 1_555 1_555
C93_2 C94_2 1_555 1_555
C99_2 C100_2 1_555 1_555
O4_2 Co9 1_555 1_555
O5_2 Co15 1_555 1_555
C2_5 O4_2 1_555 1_555
Co1_7 O1_7 1_555 1_555
Co15_2 O3_2 1_555 1_555
O2_2 Co9_2 1_555 1_555
O3_2 C15_2 1_555 1_555
O4_3 Co9_2 1_555 1_555
O5_3 Co15_2 1_555 1_555
N1_4 Co1_7 1_555 1_555
C1_2 N1_4 1_555 1_555
C2_6 O4_3 1_555 1_555
C3_2 C1_2 1_555 1_555
H1_2 C3_2 1_555 1_555
C4_2 C1_2 1_555 1_555
C5_2 C4_2 1_555 1_555
C6_2 C5_2 1_555 1_555
H2_2 C6_2 1_555 1_555
C7_2 C6_2 1_555 1_555
C8_2 C7_2 1_555 1_555
H3_2 C8_2 1_555 1_555
C9_2 C7_2 1_555 1_555
C10_2 C9_2 1_555 1_555
H4_2 C10_2 1_555 1_555
C11_2 C10_2 1_555 1_555
H5_2 C11_2 1_555 1_555
C12_2 C11_2 1_555 1_555
C13_2 C12_2 1_555 1_555
H6_2 C13_2 1_555 1_555
C14_2 C9_2 1_555 1_555
H7_2 C14_2 1_555 1_555
C15_2 O2_2 1_555 1_555
O24 C26_2 1_555 1_555
O30 C26_2 1_555 1_555
N2_3 Co1_7 1_555 1_555
C16_2 C4_2 1_555 1_555
C17_2 C16_2 1_555 1_555
H8_2 C17_2 1_555 1_555
C18_2 C5_2 1_555 1_555
H9_2 C18_2 1_555 1_555
C19_2 C8_2 1_555 1_555
C20_2 C19_2 1_555 1_555
C21_2 C20_2 1_555 1_555
H10_2 C21_2 1_555 1_555
C22_2 C21_2 1_555 1_555
H11_2 C22_2 1_555 1_555
C23_2 C22_2 1_555 1_555
C24_2 C23_2 1_555 1_555
H12_2 C24_2 1_555 1_555
C25_2 C20_2 1_555 1_555
H13_2 C25_2 1_555 1_555
C26_2 C23_2 1_555 1_555
O22_7 Co1_7 1_555 1_555
O28_2 Co9_2 1_555 1_555
O34_2 Co15_2 1_555 1_555
C12_2 C15_2 1_555 1_555
C13_2 C14_2 1_555 1_555
N2_3 C16_2 1_555 1_555
C18_2 C19_2 1_555 1_555
C24_2 C25_2 1_555 1_555
Co1_8 O1_8 1_555 1_555
N2_4 Co1_8 1_555 1_555
O26 C65_2 1_555 1_555
O32 C65_2 1_555 1_555
C52_2 N2_4 1_555 1_555
H27_2 C53_2 1_555 1_555
C54_2 C52_2 1_555 1_555
C55_2 C54_2 1_555 1_555
C56_2 C55_2 1_555 1_555
H28_2 C56_2 1_555 1_555
C57_2 C56_2 1_555 1_555
C58_2 C57_2 1_555 1_555
H29_2 C58_2 1_555 1_555
C59_2 C57_2 1_555 1_555
C60_2 C59_2 1_555 1_555
H30_2 C60_2 1_555 1_555
C61_2 C60_2 1_555 1_555
H31_2 C61_2 1_555 1_555
C62_2 C61_2 1_555 1_555
C63_2 C62_2 1_555 1_555
H32_2 C63_2 1_555 1_555
C64_2 C59_2 1_555 1_555
H33_2 C64_2 1_555 1_555
C65_2 C62_2 1_555 1_555
O28_2 C90_2 1_555 1_555
O34_2 C90_2 1_555 1_555
N4_4 Co1_8 1_555 1_555
C80_2 C54_2 1_555 1_555
C81_2 C80_2 1_555 1_555
H41_2 C81_2 1_555 1_555
C82_2 C55_2 1_555 1_555
H42_2 C82_2 1_555 1_555
C83_2 C58_2 1_555 1_555
C84_2 C83_2 1_555 1_555
C85_2 C84_2 1_555 1_555
H43_2 C85_2 1_555 1_555
C86_2 C85_2 1_555 1_555
H44_2 C86_2 1_555 1_555
C87_2 C86_2 1_555 1_555
C88_2 C87_2 1_555 1_555
H45_2 C88_2 1_555 1_555
C89_2 C84_2 1_555 1_555
H46_2 C89_2 1_555 1_555
C90_2 C87_2 1_555 1_555
O22_8 Co1_8 1_555 1_555
C52_2 C53_2 1_555 1_555
C63_2 C64_2 1_555 1_555
N4_4 C80_2 1_555 1_555
C82_2 C83_2 1_555 1_555
C88_2 C89_2 1_555 1_555

#END
