
###############################################################################
#
# This file contains modified crystal structure data generated from the
# MOF subset of the Cambridge Structural Database (CSD) v543 
# hosted by the Cambridge Crystallographic Data Centre (CCDC).
#
# This work is licensed under the Creative Commons
# Attribution-NonCommercial-ShareAlike 4.0 International License.
# To view a copy of this license, visit
# http://creativecommons.org/licenses/by-nc-sa/4.0/
# or send a letter to
# Creative Commons, PO Box 1866, Mountain View, CA 94042, USA.
#
# CIF created using the CSD Python API on 29 September 2022
# The structure has been converted into the P1 space group
# The structure has a 3D framework
# The original CSD entry POJNIM is in the monoclinic crystal system
# The framework has been calculated to contain at least 10.0% void space
# The void calculation uses a probe of radius 1.32A, grid spacing 0.4
# The framework is charged, counterions have been retained in the structure
#
###############################################################################

data_POJNIM
_chemical_formula_moiety         '(C40 H8 Co1 K8 O32)n'
_symmetry_cell_setting           triclinic
_symmetry_space_group_name_H-M   'P 1'
_symmetry_Int_Tables_number      1
_space_group_name_Hall           'P 1'
loop_
_symmetry_equiv_pos_site_id
_symmetry_equiv_pos_as_xyz
1 x,y,z
_cell_length_a                   11.3346(13)
_cell_length_b                   15.368(3)
_cell_length_c                   11.167(2)
_cell_angle_alpha                90
_cell_angle_beta                 90.949(13)
_cell_angle_gamma                90
_cell_volume                     1944.91
loop_
_atom_site_label
_atom_site_type_symbol
_atom_site_fract_x
_atom_site_fract_y
_atom_site_fract_z
Co3 Co -0.0000 0.49718(4) 0.7500
Co4 Co -0.0000 0.50282(4) 0.2500
O5 O 0.0280(2) 0.64807(19) 0.6003(3)
Co1 Co 0.5000 0.00282(4) 0.2500
O9 O 0.5887(2) 0.06261(16) 0.1208(2)
O10 O 0.4113(2) 0.06261(16) 0.3792(2)
O1 O 0.4720(2) 0.85193(19) 0.3997(3)
O2 O 0.6200(2) 0.93693(16) 0.3455(2)
O3 O 0.6477(3) 0.8565(2) 0.7734(2)
O4 O 0.5887(2) 0.93739(16) 0.6208(2)
C1 C 0.7221(3) 0.7514(2) 0.3797(3)
H1 H 0.7034 0.7524 0.2983
C2 C 0.6673(3) 0.8100(2) 0.4554(3)
C3 C 0.6956(3) 0.8091(2) 0.5774(3)
C4 C 0.5777(3) 0.8706(2) 0.3993(3)
C5 C 0.6411(3) 0.8713(2) 0.6645(3)
Co2 Co 0.5000 0.99718(4) 0.7500
Co3_2 Co 1.0000 0.49718(4) 0.7500
Co4_2 Co 1.0000 0.50282(4) 0.2500
O6 O 0.3800(2) 0.93693(16) 0.1545(2)
O7 O 0.8800(2) 0.56307(16) 0.6545(2)
O8 O 0.8523(3) 0.6435(2) 0.2266(2)
O11 O 0.9113(2) 0.56261(16) 0.3792(2)
C6 C 0.7779(3) 0.7486(2) 0.6203(3)
H2 H 0.7966 0.7476 0.7017
C7 C 0.8327(3) 0.6900(2) 0.5446(3)
C8 C 0.8044(3) 0.6909(2) 0.4226(3)
C9 C 0.9223(3) 0.6294(2) 0.6007(3)
C10 C 0.8589(3) 0.6287(2) 0.3355(3)
O2_2 O 0.1200(2) 0.43693(16) 0.3455(2)
O3_2 O 0.1477(3) 0.3565(2) 0.7734(2)
O4_2 O 0.0887(2) 0.43739(16) 0.6208(2)
C1_2 C 0.2221(3) 0.2514(2) 0.3797(3)
H1_2 H 0.2034 0.2524 0.2983
C2_2 C 0.1673(3) 0.3100(2) 0.4554(3)
C3_2 C 0.1956(3) 0.3091(2) 0.5774(3)
C4_2 C 0.0777(3) 0.3706(2) 0.3993(3)
C5_2 C 0.1411(3) 0.3713(2) 0.6645(3)
O5_2 O 0.5280(2) 0.14807(19) 0.6003(3)
O7_2 O 0.3800(2) 0.06307(16) 0.6545(2)
O8_2 O 0.3523(3) 0.1435(2) 0.2266(2)
O9_2 O 0.0887(2) 0.56261(16) 0.1208(2)
C6_2 C 0.2779(3) 0.2486(2) 0.6203(3)
H2_2 H 0.2966 0.2476 0.7017
C7_2 C 0.3327(3) 0.1900(2) 0.5446(3)
C8_2 C 0.3044(3) 0.1909(2) 0.4226(3)
C9_2 C 0.4223(3) 0.1294(2) 0.6007(3)
C10_2 C 0.3589(3) 0.1287(2) 0.3355(3)
O1_2 O 0.9720(2) 0.35193(19) 0.3997(3)
O6_2 O 0.8800(2) 0.43693(16) 0.1545(2)
O1_3 O 0.5280(2) 0.85193(19) 0.1003(3)
C1_3 C 0.2779(3) 0.7514(2) 0.1203(3)
H1_3 H 0.2966 0.7524 0.2017
C2_3 C 0.3327(3) 0.8100(2) 0.0446(3)
C4_3 C 0.4223(3) 0.8706(2) 0.1007(3)
O8_3 O 0.1477(3) 0.6435(2) 0.2734(2)
C8_3 C 0.1956(3) 0.6909(2) 0.0774(3)
C10_3 C 0.1411(3) 0.6287(2) 0.1645(3)
O3_3 O 0.3523(3) 0.8565(2) 0.7266(2)
O4_3 O 0.4113(2) 0.93739(16) 0.8792(2)
C3_3 C 0.3044(3) 0.8091(2) 0.9226(3)
C5_3 C 0.3589(3) 0.8713(2) 0.8355(3)
O7_3 O 0.1200(2) 0.56307(16) 0.8455(2)
C6_3 C 0.2221(3) 0.7486(2) 0.8797(3)
H2_3 H 0.2034 0.7476 0.7983
C7_3 C 0.1673(3) 0.6900(2) 0.9554(3)
C9_3 C 0.0777(3) 0.6294(2) 0.8993(3)
O5_3 O 0.9720(2) 0.64807(19) 0.8997(3)
O1_4 O 0.0280(2) 0.35193(19) 0.1003(3)
C1_4 C 0.7779(3) 0.2514(2) 0.1203(3)
H1_4 H 0.7966 0.2524 0.2017
C2_4 C 0.8327(3) 0.3100(2) 0.0446(3)
C4_4 C 0.9223(3) 0.3706(2) 0.1007(3)
O8_4 O 0.6477(3) 0.1435(2) 0.2734(2)
C8_4 C 0.6956(3) 0.1909(2) 0.0774(3)
C10_4 C 0.6411(3) 0.1287(2) 0.1645(3)
O3_4 O 0.8523(3) 0.3565(2) 0.7266(2)
O4_4 O 0.9113(2) 0.43739(16) 0.8792(2)
C3_4 C 0.8044(3) 0.3091(2) 0.9226(3)
C5_4 C 0.8589(3) 0.3713(2) 0.8355(3)
O5_4 O 0.4720(2) 0.14807(19) 0.8997(3)
O7_4 O 0.6200(2) 0.06307(16) 0.8455(2)
C6_4 C 0.7221(3) 0.2486(2) 0.8797(3)
H2_4 H 0.7034 0.2476 0.7983
C7_4 C 0.6673(3) 0.1900(2) 0.9554(3)
C9_4 C 0.5777(3) 0.1294(2) 0.8993(3)
K1 K 0.28584(10) 0.07458(7) 0.01047(9)
K1_2 K 0.78584(10) 0.57458(7) 0.01047(9)
K1_3 K 0.71416(10) 0.07458(7) 0.48953(9)
K1_4 K 0.21416(10) 0.57458(7) 0.48953(9)
K1_5 K 0.71416(10) 0.92542(7) 0.98953(9)
K1_6 K 0.21416(10) 0.42542(7) 0.98953(9)
K1_7 K 0.28584(10) 0.92542(7) 0.51047(9)
K1_8 K 0.78584(10) 0.42542(7) 0.51047(9)
loop_
_geom_bond_atom_site_label_1
_geom_bond_atom_site_label_2
_geom_bond_site_symmetry_1
_geom_bond_site_symmetry_2
O9 Co1 1_555 1_555
O10 Co1 1_555 1_555
O1 C4 1_555 1_555
O2 C4 1_555 1_555
O3 C5 1_555 1_555
O4 C5 1_555 1_555
C1 H1 1_555 1_555
C2 C1 1_555 1_555
C3 C2 1_555 1_555
C4 C2 1_555 1_555
C5 C3 1_555 1_555
Co2 O4 1_555 1_555
Co3_2 O7 1_555 1_555
Co4_2 O11 1_555 1_555
O7 C9 1_555 1_555
O8 C10 1_555 1_555
O11 C10 1_555 1_555
C6 C3 1_555 1_555
H2 C6 1_555 1_555
C7 C6 1_555 1_555
C8 C1 1_555 1_555
C9 C7 1_555 1_555
C10 C8 1_555 1_555
C7 C8 1_555 1_555
Co4 O2_2 1_555 1_555
O2_2 C4_2 1_555 1_555
O3_2 C5_2 1_555 1_555
O4_2 C5_2 1_555 1_555
C1_2 H1_2 1_555 1_555
C2_2 C1_2 1_555 1_555
C3_2 C2_2 1_555 1_555
C4_2 C2_2 1_555 1_555
C5_2 C3_2 1_555 1_555
Co3 O4_2 1_555 1_555
O5_2 C9_2 1_555 1_555
O7_2 C9_2 1_555 1_555
O8_2 C10_2 1_555 1_555
O9_2 Co4 1_555 1_555
O10 C10_2 1_555 1_555
C6_2 C3_2 1_555 1_555
H2_2 C6_2 1_555 1_555
C7_2 C6_2 1_555 1_555
C8_2 C1_2 1_555 1_555
C9_2 C7_2 1_555 1_555
C10_2 C8_2 1_555 1_555
C7_2 C8_2 1_555 1_555
O6_2 Co4_2 1_555 1_555
O1_3 C4_3 1_555 1_555
O6 C4_3 1_555 1_555
C1_3 H1_3 1_555 1_555
C2_3 C1_3 1_555 1_555
C4_3 C2_3 1_555 1_555
O8_3 C10_3 1_555 1_555
O9_2 C10_3 1_555 1_555
C8_3 C1_3 1_555 1_555
C10_3 C8_3 1_555 1_555
O3_3 C5_3 1_555 1_555
O4_3 C5_3 1_555 1_555
C5_3 C3_3 1_555 1_555
Co2 O4_3 1_555 1_555
Co3 O7_3 1_555 1_555
O7_3 C9_3 1_555 1_555
C6_3 C3_3 1_555 1_555
H2_3 C6_3 1_555 1_555
C7_3 C6_3 1_555 1_555
C9_3 C7_3 1_555 1_555
O6_2 C4_4 1_555 1_555
C1_4 H1_4 1_555 1_555
C2_4 C1_4 1_555 1_555
C4_4 C2_4 1_555 1_555
O8_4 C10_4 1_555 1_555
O9 C10_4 1_555 1_555
C8_4 C1_4 1_555 1_555
C10_4 C8_4 1_555 1_555
O3_4 C5_4 1_555 1_555
O4_4 C5_4 1_555 1_555
C5_4 C3_4 1_555 1_555
Co3_2 O4_4 1_555 1_555
O5_4 C9_4 1_555 1_555
O7_4 C9_4 1_555 1_555
C6_4 C3_4 1_555 1_555
H2_4 C6_4 1_555 1_555
C7_4 C6_4 1_555 1_555
C9_4 C7_4 1_555 1_555

#END
