
###############################################################################
#
# This file contains modified crystal structure data generated from the
# MOF subset of the Cambridge Structural Database (CSD) v543 
# hosted by the Cambridge Crystallographic Data Centre (CCDC).
#
# This work is licensed under the Creative Commons
# Attribution-NonCommercial-ShareAlike 4.0 International License.
# To view a copy of this license, visit
# http://creativecommons.org/licenses/by-nc-sa/4.0/
# or send a letter to
# Creative Commons, PO Box 1866, Mountain View, CA 94042, USA.
#
# CIF created using the CSD Python API on 29 September 2022
# The structure has been converted into the P1 space group
# The structure has a 3D framework
# The original CSD entry POJNEI is in the monoclinic crystal system
# The framework has been calculated to contain at least 10.0% void space
# The void calculation uses a probe of radius 1.32A, grid spacing 0.4
# The framework is charged, counterions have been retained in the structure
# H atom positions have been added when not included in the experimental data
# Generated hydrogen atom positions removed from atoms on special positions
#
###############################################################################

data_POJNEI
_chemical_formula_moiety         '(C40 H38 Co11 O43 4-)n'
_symmetry_cell_setting           triclinic
_symmetry_space_group_name_H-M   'P 1'
_symmetry_Int_Tables_number      1
_space_group_name_Hall           'P 1'
loop_
_symmetry_equiv_pos_site_id
_symmetry_equiv_pos_as_xyz
1 x,y,z
_cell_length_a                   15.737(2)
_cell_length_b                   11.9010(14)
_cell_length_c                   9.4667(12)
_cell_angle_alpha                90
_cell_angle_beta                 113.293(10)
_cell_angle_gamma                90
_cell_volume                     1628.47
loop_
_atom_site_label
_atom_site_type_symbol
_atom_site_fract_x
_atom_site_fract_y
_atom_site_fract_z
Co3 Co 0.5000 0.5000 -0.0000
Co5 Co 0.27131(5) 0.5000 0.00453(8)
O21 O 0.2456(2) 0.3818(3) 0.1482(3)
O22 O 0.2456(2) 0.6182(3) 0.1482(3)
O27 O 0.4178(3) 0.5000 0.1350(5)
H9 H 0.422(5) 0.443(6) 0.171(8)
H10 H 0.422(5) 0.557(6) 0.171(8)
Co1 Co 0.0000 0.0000 0.0000
O1 O 0.2149(2) 0.1269(3) 0.1322(4)
O2 O 0.0780(2) 0.1230(3) 0.1517(4)
O4 O 0.3900(2) 0.3271(4) 0.2834(4)
O6 O 0.3693(3) 0.0000 0.1512(5)
C1 C 0.1789(3) 0.1740(4) 0.4687(5)
C2 C 0.2056(3) 0.2067(3) 0.3518(4)
C3 C 0.2771(3) 0.2845(4) 0.3821(5)
C4 C 0.1621(3) 0.1476(3) 0.1984(5)
C5 C 0.3058(3) 0.3325(4) 0.2601(5)
H1 H 0.137(4) 0.115(5) 0.450(6)
Co3_2 Co 0.5000 0.5000 1.0000
Co8 Co 0.22869(5) 0.0000 0.99547(8)
O7 O 0.2851(2) 0.3731(3) 0.8678(4)
O10 O 0.2851(2) 0.6269(3) 0.8678(4)
O11 O 0.4220(2) 0.3770(3) 0.8483(4)
O16 O 0.2544(2) 0.1182(3) 0.8518(3)
O23 O 0.1100(2) 0.1729(4) 0.7166(4)
O28 O 0.1307(3) 0.5000 0.8488(5)
C6 C 0.3211(3) 0.3260(4) 0.5313(5)
C9 C 0.2944(3) 0.2933(3) 0.6482(4)
C12 C 0.2229(3) 0.2155(4) 0.6179(5)
C15 C 0.3379(3) 0.3524(3) 0.8016(5)
C18 C 0.1942(3) 0.1675(4) 0.7399(5)
H3 H 0.363(4) 0.385(5) 0.550(6)
Co1_2 Co 0.0000 0.0000 1.0000
O26 O 0.0822(3) 0.0000 0.8650(5)
H7 H 0.078(5) 0.057(6) 0.829(8)
Co1_3 Co -0.0000 1.0000 0.0000
O6_2 O 0.3693(3) 1.0000 0.1512(5)
Co8_2 Co 0.22869(5) 1.0000 0.99547(8)
O8 O 0.2149(2) 0.8731(3) 0.1322(4)
O12 O 0.0780(2) 0.8770(3) 0.1517(4)
O13 O 0.4220(2) 0.6230(3) 0.8483(4)
O18 O 0.2544(2) 0.8818(3) 0.8518(3)
O24 O 0.3900(2) 0.6729(4) 0.2834(4)
O25 O 0.1100(2) 0.8271(4) 0.7166(4)
C7 C 0.1789(3) 0.8260(4) 0.4687(5)
C8 C 0.3211(3) 0.6740(4) 0.5313(5)
C10 C 0.2056(3) 0.7933(3) 0.3518(4)
C11 C 0.2944(3) 0.7067(3) 0.6482(4)
C13 C 0.2771(3) 0.7155(4) 0.3821(5)
C14 C 0.2229(3) 0.7845(4) 0.6179(5)
C16 C 0.1621(3) 0.8524(3) 0.1984(5)
C17 C 0.3379(3) 0.6476(3) 0.8016(5)
C19 C 0.3058(3) 0.6675(4) 0.2601(5)
C20 C 0.1942(3) 0.8325(4) 0.7399(5)
H4 H 0.137(4) 0.885(5) 0.450(6)
H5 H 0.363(4) 0.615(5) 0.550(6)
Co1_4 Co 0.0000 1.0000 1.0000
O26_2 O 0.0822(3) 1.0000 0.8650(5)
H8 H 0.078(5) 0.943(6) 0.829(8)
Co1_5 Co 1.0000 0.0000 0.0000
O5 O 0.9178(3) 0.0000 0.1350(5)
Co7 Co 0.77131(5) 0.0000 0.00453(8)
H6 H 0.922(5) 0.057(6) 0.171(8)
Co1_6 Co 1.0000 0.0000 1.0000
O15 O 0.9220(2) 0.1230(3) 0.8483(4)
Co1_7 Co 1.0000 1.0000 0.0000
O5_2 O 0.9178(3) 1.0000 0.1350(5)
H2 H 0.922(5) 0.943(6) 0.171(8)
Co7_2 Co 0.77131(5) 1.0000 0.00453(8)
Co1_8 Co 1.0000 1.0000 1.0000
O14 O 0.9220(2) 0.8770(3) 0.8483(4)
O22_2 O 0.7456(2) 0.1182(3) 0.1482(3)
O10_2 O 0.7851(2) 0.1269(3) 0.8678(4)
O28_2 O 0.6307(3) -0.0000 0.8488(5)
O21_2 O 0.7456(2) 0.8818(3) 0.1482(3)
O1_2 O 0.7149(2) 0.6269(3) 0.1322(4)
O2_2 O 0.5780(2) 0.6230(3) 0.1517(4)
O4_2 O 0.8900(2) 0.8271(4) 0.2834(4)
O6_3 O 0.8693(3) 0.5000 0.1512(5)
C1_2 C 0.6789(3) 0.6740(4) 0.4687(5)
C2_2 C 0.7056(3) 0.7067(3) 0.3518(4)
C3_2 C 0.7771(3) 0.7845(4) 0.3821(5)
C4_2 C 0.6621(3) 0.6476(3) 0.1984(5)
C5_2 C 0.8058(3) 0.8325(4) 0.2601(5)
H1_2 H 0.637(4) 0.615(5) 0.450(6)
Co8_3 Co 0.72869(5) 0.5000 0.99547(8)
O7_2 O 0.7851(2) 0.8731(3) 0.8678(4)
O8_2 O 0.7149(2) 0.3731(3) 0.1322(4)
O12_2 O 0.5780(2) 0.3770(3) 0.1517(4)
O16_2 O 0.7544(2) 0.6182(3) 0.8518(3)
O18_2 O 0.7544(2) 0.3818(3) 0.8518(3)
O23_2 O 0.6100(2) 0.6729(4) 0.7166(4)
O24_2 O 0.8900(2) 0.1729(4) 0.2834(4)
O25_2 O 0.6100(2) 0.3271(4) 0.7166(4)
O28_3 O 0.6307(3) 1.0000 0.8488(5)
C6_2 C 0.8211(3) 0.8260(4) 0.5313(5)
C7_2 C 0.6789(3) 0.3260(4) 0.4687(5)
C8_2 C 0.8211(3) 0.1740(4) 0.5313(5)
C9_2 C 0.7944(3) 0.7933(3) 0.6482(4)
C10_2 C 0.7056(3) 0.2933(3) 0.3518(4)
C11_2 C 0.7944(3) 0.2067(3) 0.6482(4)
C12_2 C 0.7229(3) 0.7155(4) 0.6179(5)
C13_2 C 0.7771(3) 0.2155(4) 0.3821(5)
C14_2 C 0.7229(3) 0.2845(4) 0.6179(5)
C15_2 C 0.8379(3) 0.8524(3) 0.8016(5)
C16_2 C 0.6621(3) 0.3524(3) 0.1984(5)
C17_2 C 0.8379(3) 0.1476(3) 0.8016(5)
C18_2 C 0.6942(3) 0.6675(4) 0.7399(5)
C19_2 C 0.8058(3) 0.1675(4) 0.2601(5)
C20_2 C 0.6942(3) 0.3325(4) 0.7399(5)
H3_2 H 0.863(4) 0.885(5) 0.550(6)
H4_2 H 0.637(4) 0.385(5) 0.450(6)
H5_2 H 0.863(4) 0.115(5) 0.550(6)
O26_3 O 0.5822(3) 0.5000 0.8650(5)
H7_2 H 0.578(5) 0.557(6) 0.829(8)
H8_2 H 0.578(5) 0.443(6) 0.829(8)
loop_
_geom_bond_atom_site_label_1
_geom_bond_atom_site_label_2
_geom_bond_site_symmetry_1
_geom_bond_site_symmetry_2
O21 Co5 1_555 1_555
O22 Co5 1_555 1_555
O27 Co3 1_555 1_555
H9 O27 1_555 1_555
H10 O27 1_555 1_555
Co5 O27 1_555 1_555
Co1 O2 1_555 1_555
O1 C4 1_555 1_555
O2 C4 1_555 1_555
O21 C5 1_555 1_555
O4 C5 1_555 1_555
C1 C2 1_555 1_555
C2 C3 1_555 1_555
C3 C5 1_555 1_555
C4 C2 1_555 1_555
H1 C1 1_555 1_555
Co3_2 O11 1_555 1_555
Co8 O16 1_555 1_555
O7 C15 1_555 1_555
O11 C15 1_555 1_555
O16 C18 1_555 1_555
O23 C18 1_555 1_555
C6 C3 1_555 1_555
C9 C6 1_555 1_555
C12 C1 1_555 1_555
C15 C9 1_555 1_555
C18 C12 1_555 1_555
H3 C6 1_555 1_555
C9 C12 1_555 1_555
O26 Co1_2 1_555 1_555
H7 O26 1_555 1_555
Co8 O26 1_555 1_555
Co3_2 O13 1_555 1_555
O10 C17 1_555 1_555
O12 Co1_3 1_555 1_555
O13 C17 1_555 1_555
O22 C19 1_555 1_555
O18 Co8_2 1_555 1_555
O24 C19 1_555 1_555
O25 C20 1_555 1_555
C7 C10 1_555 1_555
C8 C11 1_555 1_555
C10 C13 1_555 1_555
C11 C14 1_555 1_555
C13 C8 1_555 1_555
C14 C7 1_555 1_555
C16 O8 1_555 1_555
C17 C11 1_555 1_555
C19 C13 1_555 1_555
C20 O18 1_555 1_555
H4 C7 1_555 1_555
H5 C8 1_555 1_555
O12 C16 1_555 1_555
C10 C16 1_555 1_555
C14 C20 1_555 1_555
O26_2 Co1_4 1_555 1_555
H8 O26_2 1_555 1_555
Co8_2 O26_2 1_555 1_555
O5 Co1_5 1_555 1_555
Co7 O5 1_555 1_555
H6 O5 1_555 1_555
O15 Co1_6 1_555 1_555
O5_2 Co1_7 1_555 1_555
H2 O5_2 1_555 1_555
Co7_2 O5_2 1_555 1_555
O14 Co1_8 1_555 1_555
O22_2 Co7 1_555 1_555
O21_2 Co7_2 1_555 1_555
Co3 O2_2 1_555 1_555
O1_2 C4_2 1_555 1_555
O2_2 C4_2 1_555 1_555
O21_2 C5_2 1_555 1_555
O4_2 C5_2 1_555 1_555
C1_2 C2_2 1_555 1_555
C2_2 C3_2 1_555 1_555
C3_2 C5_2 1_555 1_555
C4_2 C2_2 1_555 1_555
H1_2 C1_2 1_555 1_555
Co8_3 O16_2 1_555 1_555
O7_2 C15_2 1_555 1_555
O10_2 C17_2 1_555 1_555
O14 C15_2 1_555 1_555
O12_2 Co3 1_555 1_555
O15 C17_2 1_555 1_555
O16_2 C18_2 1_555 1_555
O22_2 C19_2 1_555 1_555
O18_2 Co8_3 1_555 1_555
O23_2 C18_2 1_555 1_555
O24_2 C19_2 1_555 1_555
O25_2 C20_2 1_555 1_555
C6_2 C3_2 1_555 1_555
C7_2 C10_2 1_555 1_555
C8_2 C11_2 1_555 1_555
C9_2 C6_2 1_555 1_555
C10_2 C13_2 1_555 1_555
C11_2 C14_2 1_555 1_555
C12_2 C1_2 1_555 1_555
C13_2 C8_2 1_555 1_555
C14_2 C7_2 1_555 1_555
C15_2 C9_2 1_555 1_555
C16_2 O8_2 1_555 1_555
C17_2 C11_2 1_555 1_555
C18_2 C12_2 1_555 1_555
C19_2 C13_2 1_555 1_555
C20_2 O18_2 1_555 1_555
H3_2 C6_2 1_555 1_555
H4_2 C7_2 1_555 1_555
H5_2 C8_2 1_555 1_555
O12_2 C16_2 1_555 1_555
C9_2 C12_2 1_555 1_555
C10_2 C16_2 1_555 1_555
C14_2 C20_2 1_555 1_555
O26_3 Co3_2 1_555 1_555
H7_2 O26_3 1_555 1_555
H8_2 O26_3 1_555 1_555
Co8_3 O26_3 1_555 1_555

#END
