
###############################################################################
#
# This file contains modified crystal structure data generated from the
# MOF subset of the Cambridge Structural Database (CSD) v543 
# hosted by the Cambridge Crystallographic Data Centre (CCDC).
#
# This work is licensed under the Creative Commons
# Attribution-NonCommercial-ShareAlike 4.0 International License.
# To view a copy of this license, visit
# http://creativecommons.org/licenses/by-nc-sa/4.0/
# or send a letter to
# Creative Commons, PO Box 1866, Mountain View, CA 94042, USA.
#
# CIF created using the CSD Python API on 29 September 2022
# The structure has been converted into the P1 space group
# The structure has a 3D framework
# The original CSD entry POKDIF01 is in the triclinic crystal system
# The framework has been calculated to contain at least 10.0% void space
# The void calculation uses a probe of radius 1.32A, grid spacing 0.4
# H atom positions have been added when not included in the experimental data
# Generated hydrogen atom positions removed from atoms on special positions
#
###############################################################################

data_POKDIF01
_chemical_formula_moiety         '(C62 H42 Cu2 N6 O14)n'
_symmetry_cell_setting           triclinic
_symmetry_space_group_name_H-M   'P 1'
_symmetry_Int_Tables_number      1
_space_group_name_Hall           'P 1'
loop_
_symmetry_equiv_pos_site_id
_symmetry_equiv_pos_as_xyz
1 x,y,z
_cell_length_a                   11.072(2)
_cell_length_b                   13.535(3)
_cell_length_c                   14.475(3)
_cell_angle_alpha                66.229(7)
_cell_angle_beta                 77.520(7)
_cell_angle_gamma                80.473(7)
_cell_volume                     1930.8
loop_
_atom_site_label
_atom_site_type_symbol
_atom_site_fract_x
_atom_site_fract_y
_atom_site_fract_z
O7 O 0.67731(13) 0.07203(11) 0.09423(10)
O8 O 0.63844(17) 0.13137(12) 0.22027(11)
O4 O 0.7224(3) 0.66062(17) 0.22360(15)
C1 C 0.7150(2) 0.73588(17) 0.13839(18)
C2 C 0.65472(19) 0.14893(17) 0.12723(15)
C3 C 0.6982(2) 0.69687(18) 0.05660(16)
O5 O 0.72184(15) 0.83130(13) 0.11624(12)
C7 C 0.6712(2) 0.55591(16) 0.00563(15)
C8 C 0.6843(2) 0.58868(17) 0.08190(16)
C9 C 0.6605(2) 0.45225(17) 0.00407(15)
C10 C 0.6575(2) 0.34748(16) 0.07818(15)
H2 H 0.660010 0.334744 0.145881
C11 C 0.6506(2) 0.26232(16) 0.05006(15)
H17 H 0.681(2) 0.540(2) 0.1476(19)
Cu4 Cu 0.67622(2) 0.93960(2) 0.22096(2)
O3 O 0.65415(15) 0.84839(15) 0.36682(11)
N1 N 0.6606(2) 0.57984(15) 0.84268(13)
N2 N 0.49517(15) 0.93461(14) 0.22397(12)
C4 C 0.6998(2) 0.77084(19) 0.95580(18)
C5 C 0.6868(3) 0.74137(18) 0.87891(17)
H1 H 0.687808 0.791688 0.812155
C6 C 0.6718(2) 0.63264(17) 0.90479(15)
O6 O 0.7806(2) 0.70424(18) 0.36161(14)
C12 C 0.6415(2) 0.28304(18) 0.94883(17)
H3 H 0.634364 0.225419 0.931461
C13 C 0.6428(3) 0.38595(19) 0.87416(17)
H4 H 0.635851 0.398600 0.807354
C14 C 0.6549(2) 0.47026(17) 0.90214(15)
C15 C 0.6728(2) 0.62648(18) 0.73417(16)
C16 C 0.5994(3) 0.7194(2) 0.68623(18)
H5 H 0.541035 0.751814 0.724518
C17 C 0.6148(3) 0.7632(2) 0.57999(18)
H6 H 0.567640 0.826565 0.547077
C18 C 0.7710(3) 0.6217(2) 0.57190(18)
H7 H 0.828031 0.588338 0.533654
C19 C 0.7596(3) 0.5782(2) 0.67706(18)
H8 H 0.809776 0.516857 0.709472
C20 C 0.6990(2) 0.71419(19) 0.52249(16)
C21 C 0.7120(2) 0.7584(2) 0.40838(17)
C22 C 0.4088(2) 0.9353(3) 0.30357(18)
H9 H 0.434084 0.933742 0.361440
C23 C 0.2847(2) 0.9384(3) 0.30401(19)
H10 H 0.227729 0.939025 0.361328
C24 C 0.24365(19) 0.94039(19) 0.21949(16)
C25 C 0.33352(18) 0.94158(17) 0.13577(15)
H11 H 0.310755 0.944394 0.076503
C26 C 0.45654(18) 0.93855(17) 0.14139(15)
H12 H 0.515742 0.939288 0.084765
C27 C 0.10985(19) 0.94253(19) 0.21739(16)
C28 C 0.0196(2) 0.9643(3) 0.2881(3)
H13 H 0.041373 0.980168 0.338845
C31 C 0.0701(2) 0.9187(3) 0.1455(2)
H16 H 0.127921 0.902505 0.095406
H18 H 0.717(2) 0.841(2) 0.937(2)
N4 N 0.85804(15) 0.94223(15) 0.21670(13)
C29 C 0.8960(2) 0.9633(3) 0.2858(3)
H14 H 0.836744 0.978381 0.335742
C30 C 0.9449(2) 0.9187(3) 0.1475(2)
H15 H 0.920304 0.901605 0.098563
N3 N 0.14196(15) 0.05777(15) 0.78330(13)
C29_2 C 0.1040(2) 0.0367(3) 0.7142(3)
H14_2 H 0.163256 0.021619 0.664258
C30_2 C 0.0551(2) 0.0813(3) 0.8525(2)
H15_2 H 0.079696 0.098395 0.901437
Cu2 Cu 0.32378(2) 0.06040(2) 0.77904(2)
O3_2 O 0.34585(15) 0.15161(15) 0.63318(11)
N1_2 N 0.3394(2) 0.42016(15) 0.15732(13)
N2_2 N 0.50483(15) 0.06539(14) 0.77603(12)
C4_2 C 0.3002(2) 0.22916(19) 0.04420(18)
C5_2 C 0.3132(3) 0.25863(18) 0.12109(17)
H1_2 H 0.312192 0.208312 0.187845
C6_2 C 0.3282(2) 0.36736(17) 0.09521(15)
O6_2 O 0.2194(2) 0.29576(18) 0.63839(14)
C12_2 C 0.3585(2) 0.71696(18) 0.05117(17)
H3_2 H 0.365636 0.774581 0.068539
C13_2 C 0.3572(3) 0.61405(19) 0.12584(17)
H4_2 H 0.364149 0.601400 0.192646
C14_2 C 0.3451(2) 0.52974(17) 0.09786(15)
C15_2 C 0.3272(2) 0.37352(18) 0.26583(16)
C16_2 C 0.4006(3) 0.2806(2) 0.31377(18)
H5_2 H 0.458965 0.248186 0.275482
C17_2 C 0.3852(3) 0.2368(2) 0.42001(18)
H6_2 H 0.432360 0.173435 0.452923
C18_2 C 0.2290(3) 0.3783(2) 0.42810(18)
H7_2 H 0.171969 0.411662 0.466346
C19_2 C 0.2404(3) 0.4218(2) 0.32294(18)
H8_2 H 0.190224 0.483143 0.290528
C20_2 C 0.3010(2) 0.28581(19) 0.47751(16)
C21_2 C 0.2880(2) 0.2416(2) 0.59162(17)
C22_2 C 0.5912(2) 0.0647(3) 0.69643(18)
H9_2 H 0.565916 0.066258 0.638560
C23_2 C 0.7153(2) 0.0616(3) 0.69599(19)
H10_2 H 0.772271 0.060975 0.638672
C24_2 C 0.75635(19) 0.05961(19) 0.78051(16)
C25_2 C 0.66648(18) 0.05842(17) 0.86423(15)
H11_2 H 0.689245 0.055606 0.923497
C26_2 C 0.54346(18) 0.06145(17) 0.85861(15)
H12_2 H 0.484258 0.060712 0.915235
C27_2 C 0.89015(19) 0.05747(19) 0.78261(16)
C28_2 C 0.9804(2) 0.0357(3) 0.7119(3)
H13_2 H 0.958627 0.019832 0.661155
C31_2 C 0.9299(2) 0.0813(3) 0.8545(2)
H16_2 H 0.872079 0.097495 0.904594
H18_2 H 0.283(2) 0.159(2) 0.063(2)
O9 O 0.27816(15) 0.16870(13) 0.88376(12)
O1 O 0.32269(13) 0.92797(11) 0.90577(10)
O2 O 0.36156(17) 0.86863(12) 0.77973(11)
O4_2 O 0.2776(3) 0.33938(17) 0.77640(15)
C1_2 C 0.2850(2) 0.26412(17) 0.86161(18)
C2_2 C 0.34528(19) 0.85107(17) 0.87277(15)
C3_2 C 0.3018(2) 0.30313(18) 0.94340(16)
C7_2 C 0.3288(2) 0.44409(16) 0.99437(15)
C8_2 C 0.3157(2) 0.41132(17) 0.91810(16)
C9_2 C 0.3395(2) 0.54775(17) 0.99593(15)
C10_2 C 0.3425(2) 0.65252(16) 0.92182(15)
H2_2 H 0.339990 0.665256 0.854119
C11_2 C 0.3494(2) 0.73768(16) 0.94994(15)
H17_2 H 0.319(2) 0.460(2) 0.8524(19)
O10 O 0.6391(7) 0.0557(6) 0.4418(6)
O10_2 O 0.3609(7) 0.9443(6) 0.5582(6)
loop_
_geom_bond_atom_site_label_1
_geom_bond_atom_site_label_2
_geom_bond_site_symmetry_1
_geom_bond_site_symmetry_2
O7 C2 1_555 1_555
O8 C2 1_555 1_555
O4 C1 1_555 1_555
C1 C3 1_555 1_555
C2 C11 1_555 1_555
O5 C1 1_555 1_555
C8 C3 1_555 1_555
C9 C7 1_555 1_555
C10 C9 1_555 1_555
H2 C10 1_555 1_555
C11 C10 1_555 1_555
H17 C8 1_555 1_555
Cu4 O5 1_555 1_555
C7 C8 1_555 1_555
Cu4 O3 1_555 1_555
O3 C21 1_555 1_555
N1 C6 1_555 1_555
N2 Cu4 1_555 1_555
C4 C5 1_555 1_555
C5 H1 1_555 1_555
C6 C5 1_555 1_555
O6 C21 1_555 1_555
H3 C12 1_555 1_555
C13 C12 1_555 1_555
H4 C13 1_555 1_555
C14 N1 1_555 1_555
C15 N1 1_555 1_555
C16 C15 1_555 1_555
H5 C16 1_555 1_555
C17 C16 1_555 1_555
H6 C17 1_555 1_555
C18 H7 1_555 1_555
C19 C15 1_555 1_555
H8 C19 1_555 1_555
C20 C17 1_555 1_555
C21 C20 1_555 1_555
C22 N2 1_555 1_555
H9 C22 1_555 1_555
C23 C22 1_555 1_555
H10 C23 1_555 1_555
C24 C23 1_555 1_555
C25 C24 1_555 1_555
H11 C25 1_555 1_555
C26 N2 1_555 1_555
H12 C26 1_555 1_555
C27 C24 1_555 1_555
C28 C27 1_555 1_555
H13 C28 1_555 1_555
C31 C27 1_555 1_555
H16 C31 1_555 1_555
H18 C4 1_555 1_555
N4 Cu4 1_555 1_555
C13 C14 1_555 1_555
C18 C19 1_555 1_555
C18 C20 1_555 1_555
C25 C26 1_555 1_555
N4 C29 1_555 1_555
H14 C29 1_555 1_555
C30 N4 1_555 1_555
H15 C30 1_555 1_555
N3 C29_2 1_555 1_555
H14_2 C29_2 1_555 1_555
C30_2 N3 1_555 1_555
H15_2 C30_2 1_555 1_555
Cu2 N3 1_555 1_555
Cu2 O3_2 1_555 1_555
O3_2 C21_2 1_555 1_555
N1_2 C6_2 1_555 1_555
N2_2 Cu2 1_555 1_555
C4_2 C5_2 1_555 1_555
C5_2 H1_2 1_555 1_555
C6_2 C5_2 1_555 1_555
O6_2 C21_2 1_555 1_555
H3_2 C12_2 1_555 1_555
C13_2 C12_2 1_555 1_555
H4_2 C13_2 1_555 1_555
C14_2 N1_2 1_555 1_555
C15_2 N1_2 1_555 1_555
C16_2 C15_2 1_555 1_555
H5_2 C16_2 1_555 1_555
C17_2 C16_2 1_555 1_555
H6_2 C17_2 1_555 1_555
C18_2 H7_2 1_555 1_555
C19_2 C15_2 1_555 1_555
H8_2 C19_2 1_555 1_555
C20_2 C17_2 1_555 1_555
C21_2 C20_2 1_555 1_555
C22_2 N2_2 1_555 1_555
H9_2 C22_2 1_555 1_555
C23_2 C22_2 1_555 1_555
H10_2 C23_2 1_555 1_555
C24_2 C23_2 1_555 1_555
C25_2 C24_2 1_555 1_555
H11_2 C25_2 1_555 1_555
C26_2 N2_2 1_555 1_555
H12_2 C26_2 1_555 1_555
C27_2 C24_2 1_555 1_555
C28_2 C27_2 1_555 1_555
H13_2 C28_2 1_555 1_555
C31_2 C27_2 1_555 1_555
H16_2 C31_2 1_555 1_555
H18_2 C4_2 1_555 1_555
O9 Cu2 1_555 1_555
C13_2 C14_2 1_555 1_555
C18_2 C19_2 1_555 1_555
C18_2 C20_2 1_555 1_555
C25_2 C26_2 1_555 1_555
O1 C2_2 1_555 1_555
O2 C2_2 1_555 1_555
O4_2 C1_2 1_555 1_555
C1_2 C3_2 1_555 1_555
C2_2 C11_2 1_555 1_555
O9 C1_2 1_555 1_555
C8_2 C3_2 1_555 1_555
C9_2 C7_2 1_555 1_555
C10_2 C9_2 1_555 1_555
H2_2 C10_2 1_555 1_555
C11_2 C10_2 1_555 1_555
H17_2 C8_2 1_555 1_555
C7_2 C8_2 1_555 1_555

#END
