
###############################################################################
#
# This file contains modified crystal structure data generated from the
# MOF subset of the Cambridge Structural Database (CSD) v543 
# hosted by the Cambridge Crystallographic Data Centre (CCDC).
#
# This work is licensed under the Creative Commons
# Attribution-NonCommercial-ShareAlike 4.0 International License.
# To view a copy of this license, visit
# http://creativecommons.org/licenses/by-nc-sa/4.0/
# or send a letter to
# Creative Commons, PO Box 1866, Mountain View, CA 94042, USA.
#
# CIF created using the CSD Python API on 29 September 2022
# The structure has been converted into the P1 space group
# The structure has a 3D framework
# The original CSD entry POKDIF is in the triclinic crystal system
# The framework has been calculated to contain at least 10.0% void space
# The void calculation uses a probe of radius 1.32A, grid spacing 0.4
# H atom positions have been added when not included in the experimental data
# Generated hydrogen atom positions removed from atoms on special positions
#
###############################################################################

data_POKDIF
_chemical_formula_moiety         '(C62 H42 Cu2 N6 O14)n'
_symmetry_cell_setting           triclinic
_symmetry_space_group_name_H-M   'P 1'
_symmetry_Int_Tables_number      1
_space_group_name_Hall           'P 1'
loop_
_symmetry_equiv_pos_site_id
_symmetry_equiv_pos_as_xyz
1 x,y,z
_cell_length_a                   11.088(2)
_cell_length_b                   13.556(2)
_cell_length_c                   14.480(3)
_cell_angle_alpha                66.300(7)
_cell_angle_beta                 77.995(8)
_cell_angle_gamma                80.839(8)
_cell_volume                     1942.37
loop_
_atom_site_label
_atom_site_type_symbol
_atom_site_fract_x
_atom_site_fract_y
_atom_site_fract_z
N4 N 0.00305(17) 0.06436(16) 0.77697(14)
Cu4 Cu 0.82202(2) 0.05970(2) 0.77937(2)
O5 O 0.84317(17) 0.15046(17) 0.63336(13)
O6 O 0.7178(3) 0.2938(2) 0.63708(16)
N1 N 0.8401(2) 0.41956(16) 0.15654(15)
N2 N 0.64015(17) 0.05634(17) 0.78384(15)
C5 C 0.8459(3) 0.52933(18) 0.09712(17)
C6 C 0.8577(3) 0.6132(2) 0.12565(19)
H2 H 0.864971 0.600434 0.192410
C7 C 0.8582(3) 0.71637(19) 0.05079(19)
H3 H 0.865110 0.774053 0.068095
C11 C 0.8025(3) 0.22814(19) 0.0430(2)
H5 H 0.792417 0.156151 0.058272
C12 C 0.8164(3) 0.2577(2) 0.1199(2)
H6 H 0.816753 0.207262 0.186364
C13 C 0.8299(3) 0.36657(18) 0.09455(17)
C15 C 0.8275(3) 0.37282(19) 0.26537(18)
C16 C 0.9018(3) 0.2812(2) 0.3135(2)
H7 H 0.961087 0.249927 0.275374
C17 C 0.8864(3) 0.2369(2) 0.4196(2)
H8 H 0.934256 0.174367 0.452570
C18 C 0.8004(3) 0.2848(2) 0.47705(19)
C19 C 0.7284(3) 0.3770(2) 0.4270(2)
H9 H 0.671200 0.410267 0.464675
C20 C 0.7408(3) 0.4200(2) 0.3213(2)
H10 H 0.690615 0.480812 0.288338
C21 C 0.7859(3) 0.2405(2) 0.59118(19)
C22 C 0.6003(3) 0.0353(4) 0.7159(3)
H11 H 0.658692 0.020627 0.665796
C23 C 0.4771(3) 0.0333(4) 0.7133(3)
H12 H 0.455002 0.016569 0.663152
C24 C 0.3883(2) 0.0557(2) 0.78355(18)
C25 C 0.4299(3) 0.0814(4) 0.8538(3)
H13 H 0.372929 0.099138 0.902941
C26 C 0.5549(3) 0.0813(4) 0.8522(3)
H14 H 0.580235 0.099291 0.900364
C27 C 0.2547(2) 0.0586(2) 0.78133(18)
C28 C 0.2128(2) 0.0592(3) 0.6969(2)
H15 H 0.269252 0.057657 0.640092
C29 C 0.0873(2) 0.0621(3) 0.6974(2)
H16 H 0.061071 0.062399 0.640350
C30 C 0.0429(2) 0.06198(19) 0.85861(17)
C31 C 0.1664(2) 0.05909(18) 0.86382(17)
H18 H 0.189833 0.057502 0.922469
O9 O 0.77898(17) 0.16732(14) 0.88301(14)
O1 O 0.82187(15) 0.92659(12) 0.90569(12)
O2 O 0.86029(19) 0.86765(14) 0.77953(13)
O3 O 0.7814(4) 0.33816(19) 0.77445(18)
C1 C 0.8437(2) 0.85043(17) 0.87212(17)
C2 C 0.8485(2) 0.73665(18) 0.94948(17)
C3 C 0.8421(2) 0.65152(18) 0.92130(16)
H1 H 0.839272 0.664077 0.853705
C4 C 0.8398(2) 0.54771(18) 0.99488(17)
C8 C 0.8296(2) 0.44317(18) 0.99332(17)
C9 C 0.8162(2) 0.41103(18) 0.91718(17)
H4 H 0.816003 0.460913 0.850510
C10 C 0.8030(2) 0.30238(18) 0.94214(18)
C14 C 0.7861(2) 0.26336(19) 0.8626(2)
H17 H 0.984556 0.062276 0.914895
H17_2 H 0.015444 0.937724 0.085105
Cu2 Cu 0.17798(2) 0.94030(2) 0.22063(2)
O7 O 0.17813(15) 0.07341(12) 0.09431(12)
O8 O 0.13971(19) 0.13235(14) 0.22047(13)
O3_2 O 0.2186(4) 0.66184(19) 0.22555(18)
O4 O 0.22102(17) 0.83268(14) 0.11699(14)
C1_2 C 0.1563(2) 0.14957(17) 0.12788(17)
C2_2 C 0.1515(2) 0.26335(18) 0.05052(17)
C3_2 C 0.1579(2) 0.34848(18) 0.07870(16)
H1_2 H 0.160728 0.335923 0.146295
C4_2 C 0.1602(2) 0.45229(18) 0.00512(17)
C8_2 C 0.1704(2) 0.55683(18) 0.00668(17)
C9_2 C 0.1838(2) 0.58897(18) 0.08282(17)
H4_2 H 0.183997 0.539087 0.149490
C10_2 C 0.1970(2) 0.69762(18) 0.05786(18)
C14_2 C 0.2139(2) 0.73664(19) 0.1374(2)
O5_2 O 0.15683(17) 0.84954(17) 0.36664(13)
O6_2 O 0.2822(3) 0.7062(2) 0.36292(16)
N1_2 N 0.1599(2) 0.58044(16) 0.84346(15)
N2_2 N 0.35985(17) 0.94366(17) 0.21616(15)
N3 N 0.99695(17) 0.93564(16) 0.22303(14)
C5_2 C 0.1541(3) 0.47067(18) 0.90288(17)
C6_2 C 0.1423(3) 0.3868(2) 0.87435(19)
H2_2 H 0.135029 0.399566 0.807590
C7_2 C 0.1418(3) 0.28363(19) 0.94921(19)
H3_2 H 0.134890 0.225947 0.931905
C11_2 C 0.1975(3) 0.77186(19) 0.9570(2)
H5_2 H 0.207583 0.843849 0.941728
C12_2 C 0.1836(3) 0.7423(2) 0.8801(2)
H6_2 H 0.183247 0.792738 0.813636
C13_2 C 0.1701(3) 0.63343(18) 0.90545(17)
C15_2 C 0.1725(3) 0.62718(19) 0.73463(18)
C16_2 C 0.0982(3) 0.7188(2) 0.6865(2)
H7_2 H 0.038913 0.750073 0.724626
C17_2 C 0.1136(3) 0.7631(2) 0.5804(2)
H8_2 H 0.065744 0.825633 0.547430
C18_2 C 0.1996(3) 0.7152(2) 0.52295(19)
C19_2 C 0.2716(3) 0.6230(2) 0.5730(2)
H9_2 H 0.328800 0.589733 0.535325
C20_2 C 0.2592(3) 0.5800(2) 0.6787(2)
H10_2 H 0.309385 0.519188 0.711662
C21_2 C 0.2141(3) 0.7595(2) 0.40882(19)
C22_2 C 0.3997(3) 0.9647(4) 0.2841(3)
H11_2 H 0.341308 0.979373 0.334204
C23_2 C 0.5229(3) 0.9667(4) 0.2867(3)
H12_2 H 0.544998 0.983431 0.336848
C24_2 C 0.6117(2) 0.9443(2) 0.21645(18)
C25_2 C 0.5701(3) 0.9186(4) 0.1462(3)
H13_2 H 0.627071 0.900862 0.097059
C26_2 C 0.4451(3) 0.9187(4) 0.1478(3)
H14_2 H 0.419765 0.900709 0.099636
C27_2 C 0.7453(2) 0.9414(2) 0.21867(18)
C28_2 C 0.7872(2) 0.9408(3) 0.3031(2)
H15_2 H 0.730748 0.942343 0.359908
C29_2 C 0.9127(2) 0.9379(3) 0.3026(2)
H16_2 H 0.938929 0.937601 0.359650
C30_2 C 0.9571(2) 0.93802(19) 0.14139(17)
C31_2 C 0.8336(2) 0.94091(18) 0.13618(17)
H18_2 H 0.810167 0.942498 0.077531
O10 O 0.1387(7) 0.0552(6) 0.4421(6)
O10_2 O 0.8613(7) 0.9448(6) 0.5579(6)
loop_
_geom_bond_atom_site_label_1
_geom_bond_atom_site_label_2
_geom_bond_site_symmetry_1
_geom_bond_site_symmetry_2
Cu4 O5 1_555 1_555
O5 C21 1_555 1_555
O6 C21 1_555 1_555
N1 C5 1_555 1_555
N2 Cu4 1_555 1_555
N4 C29 1_555 1_555
C6 C5 1_555 1_555
H2 C6 1_555 1_555
H3 C7 1_555 1_555
H5 C11 1_555 1_555
C12 C11 1_555 1_555
H6 C12 1_555 1_555
C13 N1 1_555 1_555
C15 N1 1_555 1_555
C16 C15 1_555 1_555
H7 C16 1_555 1_555
C17 C16 1_555 1_555
H8 C17 1_555 1_555
C18 C17 1_555 1_555
C19 C18 1_555 1_555
H9 C19 1_555 1_555
C20 C15 1_555 1_555
H10 C20 1_555 1_555
C21 C18 1_555 1_555
C22 N2 1_555 1_555
H11 C22 1_555 1_555
C23 C22 1_555 1_555
H12 C23 1_555 1_555
C24 C23 1_555 1_555
C25 C24 1_555 1_555
H13 C25 1_555 1_555
C26 N2 1_555 1_555
H14 C26 1_555 1_555
C27 C24 1_555 1_555
C28 C27 1_555 1_555
H15 C28 1_555 1_555
C29 C28 1_555 1_555
H16 C29 1_555 1_555
C30 N4 1_555 1_555
C31 C27 1_555 1_555
H18 C31 1_555 1_555
O9 Cu4 1_555 1_555
C6 C7 1_555 1_555
C12 C13 1_555 1_555
C19 C20 1_555 1_555
C25 C26 1_555 1_555
C30 C31 1_555 1_555
O1 C1 1_555 1_555
O2 C1 1_555 1_555
O3 C14 1_555 1_555
O9 C14 1_555 1_555
C1 C2 1_555 1_555
C2 C3 1_555 1_555
C3 H1 1_555 1_555
C4 C3 1_555 1_555
C8 C4 1_555 1_555
C9 C8 1_555 1_555
H4 C9 1_555 1_555
C10 C9 1_555 1_555
C14 C10 1_555 1_555
O7 C1_2 1_555 1_555
O8 C1_2 1_555 1_555
O3_2 C14_2 1_555 1_555
O4 C14_2 1_555 1_555
C1_2 C2_2 1_555 1_555
C2_2 C3_2 1_555 1_555
C3_2 H1_2 1_555 1_555
C4_2 C3_2 1_555 1_555
C8_2 C4_2 1_555 1_555
C9_2 C8_2 1_555 1_555
H4_2 C9_2 1_555 1_555
C10_2 C9_2 1_555 1_555
C14_2 C10_2 1_555 1_555
Cu2 O4 1_555 1_555
Cu2 O5_2 1_555 1_555
O5_2 C21_2 1_555 1_555
O6_2 C21_2 1_555 1_555
N1_2 C5_2 1_555 1_555
N2_2 Cu2 1_555 1_555
N3 C29_2 1_555 1_555
C6_2 C5_2 1_555 1_555
H2_2 C6_2 1_555 1_555
H3_2 C7_2 1_555 1_555
H5_2 C11_2 1_555 1_555
C12_2 C11_2 1_555 1_555
H6_2 C12_2 1_555 1_555
C13_2 N1_2 1_555 1_555
C15_2 N1_2 1_555 1_555
C16_2 C15_2 1_555 1_555
H7_2 C16_2 1_555 1_555
C17_2 C16_2 1_555 1_555
H8_2 C17_2 1_555 1_555
C18_2 C17_2 1_555 1_555
C19_2 C18_2 1_555 1_555
H9_2 C19_2 1_555 1_555
C20_2 C15_2 1_555 1_555
H10_2 C20_2 1_555 1_555
C21_2 C18_2 1_555 1_555
C22_2 N2_2 1_555 1_555
H11_2 C22_2 1_555 1_555
C23_2 C22_2 1_555 1_555
H12_2 C23_2 1_555 1_555
C24_2 C23_2 1_555 1_555
C25_2 C24_2 1_555 1_555
H13_2 C25_2 1_555 1_555
C26_2 N2_2 1_555 1_555
H14_2 C26_2 1_555 1_555
C27_2 C24_2 1_555 1_555
C28_2 C27_2 1_555 1_555
H15_2 C28_2 1_555 1_555
C29_2 C28_2 1_555 1_555
H16_2 C29_2 1_555 1_555
C30_2 N3 1_555 1_555
C31_2 C27_2 1_555 1_555
H18_2 C31_2 1_555 1_555
C6_2 C7_2 1_555 1_555
C12_2 C13_2 1_555 1_555
C19_2 C20_2 1_555 1_555
C25_2 C26_2 1_555 1_555
C30_2 C31_2 1_555 1_555

#END
