
###############################################################################
#
# This file contains modified crystal structure data generated from the
# MOF subset of the Cambridge Structural Database (CSD) v543 
# hosted by the Cambridge Crystallographic Data Centre (CCDC).
#
# This work is licensed under the Creative Commons
# Attribution-NonCommercial-ShareAlike 4.0 International License.
# To view a copy of this license, visit
# http://creativecommons.org/licenses/by-nc-sa/4.0/
# or send a letter to
# Creative Commons, PO Box 1866, Mountain View, CA 94042, USA.
#
# CIF created using the CSD Python API on 29 September 2022
# The structure has been converted into the P1 space group
# The structure has a 3D framework
# The original CSD entry POKFOL is in the triclinic crystal system
# The framework has been calculated to contain at least 10.0% void space
# The void calculation uses a probe of radius 1.32A, grid spacing 0.4
#
###############################################################################

data_POKFOL
_chemical_formula_moiety         '(C42 H31 N4 O17 Zn4)n'
_symmetry_cell_setting           triclinic
_symmetry_space_group_name_H-M   'P 1'
_symmetry_Int_Tables_number      1
_space_group_name_Hall           'P 1'
loop_
_symmetry_equiv_pos_site_id
_symmetry_equiv_pos_as_xyz
1 x,y,z
_cell_length_a                   9.820(2)
_cell_length_b                   11.824(2)
_cell_length_c                   12.050(2)
_cell_angle_alpha                116.65(3)
_cell_angle_beta                 102.36(3)
_cell_angle_gamma                96.21(3)
_cell_volume                     1187.64
loop_
_atom_site_label
_atom_site_type_symbol
_atom_site_fract_x
_atom_site_fract_y
_atom_site_fract_z
H14 H 0.0008 0.6860 0.1750
Zn8 Zn 0.07205(3) 0.51493(3) 0.28386(3)
C19 C 0.8135(3) 0.4057(3) 0.0578(3)
H13 H 0.8134 0.3301 0.0642
C20 C 0.9234(3) 0.6146(3) 0.1231(3)
C21 C 0.8132(3) 0.6231(3) 0.0361(3)
H15 H 0.8173 0.6991 0.0301
N2 N 0.9230(2) 0.5083(2) 0.1353(2)
Zn1 Zn 0.16973(3) 0.55460(3) 0.56523(2)
C1 C 0.2628(3) 0.2095(2) 0.2544(2)
C2 C 0.2176(3) 0.1189(3) 0.1227(2)
H1 H 0.1480 0.1296 0.0647
C3 C 0.2786(3) 0.0116(3) 0.0793(3)
C5 C 0.4278(3) 0.0890(3) 0.2977(3)
C6 C 0.3659(3) 0.1958(3) 0.3430(3)
H3 H 0.3933 0.2565 0.4310
C7 C 0.2025(3) 0.3288(2) 0.3025(2)
C8 C 0.5862(3) 0.1533(3) 0.5092(3)
H4 H 0.6345 0.1097 0.5519
H5 H 0.5065 0.1766 0.5433
C9 C 0.6897(3) 0.2768(3) 0.5436(3)
C12 C 0.3570(3) 0.4287(3) 0.6901(3)
H8 H 0.2885 0.3539 0.6262
C13 C 0.4689(3) 0.4158(3) 0.7716(3)
H9 H 0.4752 0.3343 0.7625
C14 C 0.5725(3) 0.5270(3) 0.8680(3)
C15 C 0.5540(3) 0.6447(3) 0.8787(3)
H10 H 0.6185 0.7213 0.9442
C16 C 0.4391(3) 0.6492(3) 0.7918(3)
H11 H 0.4298 0.7296 0.7994
C17 C 0.6962(3) 0.5177(3) 0.9576(2)
C18 C 0.7002(3) 0.4069(3) 0.9686(3)
H12 H 0.6262 0.3328 0.9157
O1 O 0.2240(2) 0.39587(19) 0.42091(18)
O2 O 0.1339(2) 0.35215(19) 0.21625(18)
O6 O 0.5315(2) 0.06496(19) 0.3742(2)
O7 O 0.6912(2) 0.3094(2) 0.45995(19)
O8 O 0.7674(2) 0.3374(2) 0.66132(18)
O9 O 0.00315(18) 0.43449(17) 0.56905(16)
H16 H 0.0164 0.3454 0.5364
N1 N 0.3415(2) 0.5426(2) 0.6979(2)
Zn4 Zn 0.83027(3) 0.44540(3) 0.43477(2)
Zn6 Zn 0.92795(3) 0.48507(3) 0.71614(3)
O10 O 0.1505(2) 0.71232(18) 0.72341(17)
O11 O 0.3088(2) 0.6906(2) 0.54005(19)
O12 O 0.2326(2) 0.6626(2) 0.33868(18)
C10 C 0.1557(3) 0.9335(3) 0.8586(3)
H7 H 0.0682 0.9529 0.8800
C11 C 0.1184(3) 0.8129(3) 0.7263(3)
O3 O 0.2426(3) 0.9146(2) 0.95457(19)
O4 O 0.0558(3) 0.8235(2) 0.6312(2)
O13 O 0.99685(18) 0.56551(17) 0.43095(16)
H17 H 0.9836 0.6546 0.4636
N3 N 0.0770(2) 0.4917(2) 0.8647(2)
C10_2 C 0.8443(3) 0.0665(3) 0.1414(3)
H7_2 H 0.9318 0.0471 0.1200
C11_2 C 0.8816(3) 0.1871(3) 0.2737(3)
O3_2 O 0.7574(3) 0.0854(2) 0.04543(19)
O4_2 O 0.9442(3) 0.1765(2) 0.3688(2)
O5 O 0.8495(2) 0.28768(18) 0.27659(17)
C1_2 C 0.7372(3) 0.7905(2) 0.7456(2)
C2_2 C 0.7824(3) 0.8811(3) 0.8773(2)
H1_2 H 0.8520 0.8704 0.9353
C3_2 C 0.7214(3) 0.9884(3) 0.9207(3)
C5_2 C 0.5722(3) 0.9110(3) 0.7023(3)
C6_2 C 0.6341(3) 0.8042(3) 0.6570(3)
H3_2 H 0.6067 0.7435 0.5690
C7_2 C 0.7975(3) 0.6712(2) 0.6975(2)
C8_2 C 0.4138(3) 0.8467(3) 0.4908(3)
H4_2 H 0.3655 0.8903 0.4481
H5_2 H 0.4935 0.8234 0.4567
C9_2 C 0.3103(3) 0.7232(3) 0.4564(3)
C12_2 C 0.6430(3) 0.5713(3) 0.3099(3)
H8_2 H 0.7115 0.6461 0.3738
C13_2 C 0.5311(3) 0.5842(3) 0.2284(3)
H9_2 H 0.5248 0.6657 0.2375
C14_2 C 0.4275(3) 0.4730(3) 0.1320(3)
C15_2 C 0.4460(3) 0.3553(3) 0.1213(3)
H10_2 H 0.3815 0.2787 0.0558
C16_2 C 0.5609(3) 0.3508(3) 0.2082(3)
H11_2 H 0.5702 0.2704 0.2006
C17_2 C 0.3038(3) 0.4823(3) 0.0424(2)
C18_2 C 0.2998(3) 0.5931(3) 0.0314(3)
H12_2 H 0.3738 0.6672 0.0843
O1_2 O 0.7760(2) 0.60413(19) 0.57909(18)
O2_2 O 0.8661(2) 0.64785(19) 0.78375(18)
O6_2 O 0.4685(2) 0.93504(19) 0.6258(2)
N1_2 N 0.6585(2) 0.4574(2) 0.3021(2)
C19_2 C 0.1865(3) 0.5943(3) 0.9422(3)
H13_2 H 0.1866 0.6699 0.9358
C20_2 C 0.0766(3) 0.3854(3) 0.8769(3)
C21_2 C 0.1868(3) 0.3769(3) 0.9639(3)
H15_2 H 0.1827 0.3009 0.9699
H14_2 H 0.9992 0.3140 0.8250
H6 H 0.2056 0.0072 0.8558
C4 C 0.3838(3) 0.9974(3) 0.1668(3)
H2 H 0.4247 0.9261 0.1373
C4_2 C 0.6162(3) 0.0026(3) 0.8332(3)
H2_2 H 0.5753 0.0739 0.8627
H6_2 H 0.7944 0.9928 0.1442
loop_
_geom_bond_atom_site_label_1
_geom_bond_atom_site_label_2
_geom_bond_site_symmetry_1
_geom_bond_site_symmetry_2
H13 C19 1_555 1_555
H15 C21 1_555 1_555
N2 C19 1_555 1_555
C20 C21 1_555 1_555
C20 N2 1_555 1_555
Zn1 O1 1_555 1_555
Zn8 O2 1_555 1_555
C1 C2 1_555 1_555
C2 H1 1_555 1_555
C3 C2 1_555 1_555
C6 C1 1_555 1_555
H3 C6 1_555 1_555
C7 C1 1_555 1_555
C8 H4 1_555 1_555
H5 C8 1_555 1_555
C9 C8 1_555 1_555
C12 H8 1_555 1_555
C13 C12 1_555 1_555
H9 C13 1_555 1_555
C14 C13 1_555 1_555
C15 C14 1_555 1_555
H10 C15 1_555 1_555
C16 C15 1_555 1_555
H11 C16 1_555 1_555
C17 C14 1_555 1_555
C18 C17 1_555 1_555
H12 C18 1_555 1_555
O1 C7 1_555 1_555
O2 C7 1_555 1_555
O6 C5 1_555 1_555
O7 C9 1_555 1_555
O8 C9 1_555 1_555
O9 Zn1 1_555 1_555
H16 O9 1_555 1_555
N1 Zn1 1_555 1_555
Zn4 O7 1_555 1_555
Zn6 O8 1_555 1_555
O10 Zn1 1_555 1_555
O11 Zn1 1_555 1_555
O12 Zn8 1_555 1_555
C5 C6 1_555 1_555
C8 O6 1_555 1_555
C12 N1 1_555 1_555
C16 N1 1_555 1_555
H7 C10 1_555 1_555
C11 C10 1_555 1_555
O4 C11 1_555 1_555
O10 C11 1_555 1_555
C10 O3 1_555 1_555
H17 O13 1_555 1_555
Zn4 O13 1_555 1_555
H7_2 C10_2 1_555 1_555
C11_2 C10_2 1_555 1_555
O4_2 C11_2 1_555 1_555
O5 C11_2 1_555 1_555
Zn4 O5 1_555 1_555
C10_2 O3_2 1_555 1_555
Zn4 O1_2 1_555 1_555
Zn6 O2_2 1_555 1_555
C1_2 C2_2 1_555 1_555
C2_2 H1_2 1_555 1_555
C3_2 C2_2 1_555 1_555
C6_2 C1_2 1_555 1_555
H3_2 C6_2 1_555 1_555
C7_2 C1_2 1_555 1_555
C8_2 H4_2 1_555 1_555
H5_2 C8_2 1_555 1_555
C9_2 C8_2 1_555 1_555
C12_2 H8_2 1_555 1_555
C13_2 C12_2 1_555 1_555
H9_2 C13_2 1_555 1_555
C14_2 C13_2 1_555 1_555
C15_2 C14_2 1_555 1_555
H10_2 C15_2 1_555 1_555
C16_2 C15_2 1_555 1_555
H11_2 C16_2 1_555 1_555
C17_2 C14_2 1_555 1_555
C18_2 C17_2 1_555 1_555
H12_2 C18_2 1_555 1_555
O1_2 C7_2 1_555 1_555
O2_2 C7_2 1_555 1_555
O6_2 C5_2 1_555 1_555
O11 C9_2 1_555 1_555
O12 C9_2 1_555 1_555
N1_2 Zn4 1_555 1_555
C5_2 C6_2 1_555 1_555
C8_2 O6_2 1_555 1_555
C12_2 N1_2 1_555 1_555
C16_2 N1_2 1_555 1_555
H13_2 C19_2 1_555 1_555
H15_2 C21_2 1_555 1_555
N3 C19_2 1_555 1_555
C20_2 C21_2 1_555 1_555
C20_2 N3 1_555 1_555
H2 C4 1_555 1_555
H2_2 C4_2 1_555 1_555

#END
