
###############################################################################
#
# This file contains modified crystal structure data generated from the
# MOF subset of the Cambridge Structural Database (CSD) v543 
# hosted by the Cambridge Crystallographic Data Centre (CCDC).
#
# This work is licensed under the Creative Commons
# Attribution-NonCommercial-ShareAlike 4.0 International License.
# To view a copy of this license, visit
# http://creativecommons.org/licenses/by-nc-sa/4.0/
# or send a letter to
# Creative Commons, PO Box 1866, Mountain View, CA 94042, USA.
#
# CIF created using the CSD Python API on 29 September 2022
# The structure has been converted into the P1 space group
# The structure has a 3D framework
# The original CSD entry POKGEC is in the monoclinic crystal system
# The framework has been calculated to contain at least 10.0% void space
# The void calculation uses a probe of radius 1.32A, grid spacing 0.4
# H atom positions have been added when not included in the experimental data
# Generated hydrogen atom positions removed from atoms on special positions
#
###############################################################################

data_POKGEC
_chemical_formula_moiety         '(C216 H176 N44 Ni14 O56)n'
_symmetry_cell_setting           triclinic
_symmetry_space_group_name_H-M   'P 1'
_symmetry_Int_Tables_number      1
_space_group_name_Hall           'P 1'
loop_
_symmetry_equiv_pos_site_id
_symmetry_equiv_pos_as_xyz
1 x,y,z
_cell_length_a                   19.631(4)
_cell_length_b                   21.335(4)
_cell_length_c                   16.114(3)
_cell_angle_alpha                90
_cell_angle_beta                 91.58(3)
_cell_angle_gamma                90
_cell_volume                     6746.42
loop_
_atom_site_label
_atom_site_type_symbol
_atom_site_fract_x
_atom_site_fract_y
_atom_site_fract_z
H8 H 0.1868 0.2193 0.0075
N3 N 0.1265(2) 0.2962(2) 0.0235(3)
Ni4 Ni 0.16674(3) 0.35357(3) 0.11428(3)
C14 C 0.0685(3) 0.3088(3) 0.9852(3)
H7 H 0.0432 0.3449 0.9944
C15 C 0.1468(3) 0.2401(3) 0.9923(3)
C16 C 0.0997(3) 0.2190(3) 0.9357(4)
H9 H 0.1011 0.1818 0.9058
N4 N 0.0496(2) 0.2638(2) 0.9314(3)
C38 C 0.2083(3) 0.0047(2) 0.7112(3)
H23 H 0.1922 0.0226 0.7595
C39 C 0.2709(3) 0.0222(3) 0.6826(3)
H24 H 0.3378 0.0075 0.5908
C45 C 0.3147(3) 0.0680(3) 0.7317(3)
N11 N 0.3735(2) 0.2038(2) 0.9765(3)
N14 N 0.2859(2) 0.2156(2) 0.8187(2)
Ni3 Ni 0.33326(3) 0.14643(3) 0.88572(3)
O12 O 0.25048(18) 0.12384(17) 0.9594(2)
O15 O 0.34527(18) 0.07051(17) 0.9722(2)
O16 O 0.42605(18) 0.14657(17) 0.8266(2)
O17 O 0.3666(3) 0.0905(3) 0.6987(3)
O18 O 0.29565(19) 0.08166(18) 0.8023(2)
C31 C 0.3858(3) 0.6729(3) 0.1395(3)
H20 H 0.3577 0.6379 0.1437
C35 C 0.4706(3) 0.7356(3) 0.1524(4)
H22 H 0.5129 0.7517 0.1685
C44 C 0.3086(3) 0.7372(3) 0.0468(3)
C47 C 0.2753(3) 0.6898(3) 0.0033(4)
H29 H 0.2923 0.6491 0.0053
C49 C 0.2831(3) 0.7972(3) 0.0431(4)
H31 H 0.3053 0.8292 0.0721
C50 C 0.4246(3) 0.7647(3) 0.1014(4)
H32 H 0.4292 0.8039 0.0768
N7 N 0.4453(2) 0.6784(2) 0.1769(2)
N9 N 0.3700(2) 0.7247(2) 0.0934(3)
Ni8 Ni 0.5000 0.61660(4) 0.2500
C4 C 0.1142(3) 0.8271(3) 0.8605(3)
H2 H 0.1423 0.8621 0.8563
C8 C 0.0294(3) 0.7644(3) 0.8476(4)
C17 C 0.1914(3) 0.7628(3) 0.9532(3)
C20 C 0.2247(3) 0.8102(3) 0.9967(4)
H11 H 0.2077 0.8509 0.9947
C22 C 0.2169(3) 0.7028(3) 0.9569(4)
H13 H 0.1947 0.6708 0.9279
C23 C 0.0754(3) 0.7353(3) 0.8986(4)
H14 H 0.0708 0.6961 0.9232
N1 N 0.0547(2) 0.8216(2) 0.8231(2)
N2 N 0.1300(2) 0.7753(2) 0.9066(3)
Ni2 Ni -0.0000 0.88340(4) 0.7500
C29 C 0.1030(2) 0.9380(2) 0.7013(3)
C30 C 0.2852(2) 0.9175(2) 0.4954(3)
C33 C 0.1936(3) 0.9341(2) 0.5973(3)
H21 H 0.1671 0.9051 0.5679
C34 C 0.1691(2) 0.9605(2) 0.6686(3)
C37 C 0.2574(3) 0.9503(2) 0.5686(3)
C40 C 0.2958(3) 0.9953(3) 0.6106(3)
Ni6 Ni 0.33326(3) 0.85357(3) 0.38572(3)
O8 O 0.06938(17) 0.89735(17) 0.6602(2)
O9 O 0.08197(18) 0.95607(17) 0.7704(2)
O10 O 0.25048(18) 0.87616(17) 0.4594(2)
O13 O 0.34527(18) 0.92949(17) 0.4722(2)
C1 C 0.7743(3) 0.2040(3) 0.7155(3)
H1 H 0.7957 0.1651 0.7153
C5 C 0.8655(3) 0.2585(3) 0.7958(3)
C9 C 0.9870(3) 0.2618(3) 0.8836(3)
C11 C 0.7917(3) 0.0047(2) 0.7888(3)
H5 H 0.8078 0.0226 0.7405
C12 C 0.7291(3) 0.0222(3) 0.8174(3)
H6 H 0.6622 0.0075 0.9092
C18 C 0.6853(3) 0.0680(3) 0.7683(3)
C19 C 0.7018(3) 0.2773(3) 0.6946(4)
H10 H 0.6628 0.2986 0.6766
C21 C 0.7546(3) 0.3033(3) 0.7381(4)
H12 H 0.7587 0.3447 0.7556
C24 C 0.8938(4) 0.2056(4) 0.8257(6)
H15 H 0.8719 0.1675 0.8167
C25 C 0.9589(4) 0.3145(3) 0.8527(5)
H16 H 0.9809 0.3526 0.8618
C26 C 0.8980(4) 0.3133(4) 0.8078(6)
H17 H 0.8796 0.3502 0.7860
C27 C 0.9554(4) 0.2072(3) 0.8699(6)
H18 H 0.9746 0.1702 0.8900
N5 N 0.7141(2) 0.2156(2) 0.6813(2)
N6 N 0.8010(2) 0.2560(2) 0.7509(3)
Ni1 Ni 0.66674(3) 0.14643(3) 0.61428(3)
O5 O 0.57395(18) 0.14657(17) 0.6734(2)
O6 O 0.6334(3) 0.0905(3) 0.8013(3)
O7 O 0.70435(19) 0.08166(18) 0.6977(2)
C28 C 0.2743(3) 0.2960(3) 0.2155(3)
H19 H 0.2957 0.3349 0.2153
C32 C 0.3655(3) 0.2415(3) 0.2958(3)
C36 C 0.4870(3) 0.2382(3) 0.3836(3)
C41 C 0.5685(3) 0.1912(3) 0.4852(3)
H25 H 0.5432 0.1551 0.4944
C42 C 0.6468(3) 0.2599(3) 0.4923(3)
H26 H 0.6868 0.2807 0.5075
C43 C 0.5997(3) 0.2810(3) 0.4357(4)
H27 H 0.6011 0.3182 0.4058
C46 C 0.2018(3) 0.2227(3) 0.1946(4)
H28 H 0.1628 0.2014 0.1766
C48 C 0.2546(3) 0.1967(3) 0.2381(4)
H30 H 0.2587 0.1553 0.2556
C51 C 0.3938(4) 0.2944(4) 0.3257(6)
H33 H 0.3719 0.3325 0.3167
C52 C 0.4589(4) 0.1855(3) 0.3527(5)
H34 H 0.4809 0.1474 0.3618
C53 C 0.3980(4) 0.1867(4) 0.3078(6)
H35 H 0.3796 0.1498 0.2860
C54 C 0.4554(4) 0.2928(3) 0.3699(6)
H36 H 0.4746 0.3298 0.3900
N10 N 0.6265(2) 0.2038(2) 0.5235(3)
N12 N 0.5496(2) 0.2362(2) 0.4314(3)
N13 N 0.2141(2) 0.2844(2) 0.1813(2)
N15 N 0.3010(2) 0.2440(2) 0.2509(3)
O11 O 0.74952(18) 0.12384(17) 0.5406(2)
O14 O 0.65473(18) 0.07051(17) 0.5278(2)
C3 C 0.7148(2) 0.9175(2) 0.0046(3)
O3 O 0.74952(18) 0.87616(17) 0.0406(2)
O4 O 0.65473(18) 0.92949(17) 0.0278(2)
Ni5 Ni 0.66674(3) 0.85357(3) 0.11428(3)
C2 C 0.8970(2) 0.9380(2) 0.7987(3)
C6 C 0.8064(3) 0.9341(2) 0.9027(3)
H3 H 0.8329 0.9051 0.9321
C7 C 0.8309(2) 0.9605(2) 0.8314(3)
H4 H 0.9871 0.7483 0.8315
C10 C 0.7426(3) 0.9503(2) 0.9314(3)
C13 C 0.7042(3) 0.9953(3) 0.8894(3)
Ni2_2 Ni 1.0000 0.88340(4) 0.7500
O1 O 0.93062(17) 0.89735(17) 0.8398(2)
O2 O 0.91803(18) 0.95607(17) 0.7296(2)
N8 N 0.9453(2) 0.8216(2) 0.6769(2)
H22_2 H 0.0129 0.2517 0.1685
Ni8_2 Ni -0.0000 0.11660(4) 0.2500
C3_2 C 0.2148(2) 0.4175(2) 0.0046(3)
H8_2 H 0.6868 0.7193 0.0075
N3_2 N 0.6265(2) 0.7962(2) 0.0235(3)
O3_2 O 0.24952(18) 0.37616(17) 0.0406(2)
O4_2 O 0.15473(18) 0.42949(17) 0.0278(2)
C31_2 C 0.8858(3) 0.1729(3) 0.1395(3)
H20_2 H 0.8577 0.1379 0.1437
C35_2 C 0.9706(3) 0.2356(3) 0.1524(4)
C44_2 C 0.8086(3) 0.2372(3) 0.0468(3)
C47_2 C 0.7753(3) 0.1898(3) 0.0033(4)
H29_2 H 0.7923 0.1491 0.0053
C49_2 C 0.7831(3) 0.2972(3) 0.0431(4)
H31_2 H 0.8053 0.3292 0.0721
C50_2 C 0.9246(3) 0.2647(3) 0.1014(4)
H32_2 H 0.9292 0.3039 0.0768
N7_2 N 0.9453(2) 0.1784(2) 0.1769(2)
N9_2 N 0.8700(2) 0.2247(2) 0.0934(3)
Ni8_3 Ni 1.0000 0.11660(4) 0.2500
C1_2 C 0.2743(3) 0.7040(3) 0.7155(3)
H1_2 H 0.2957 0.6651 0.7153
C2_2 C 0.3970(2) 0.4380(2) 0.7987(3)
C4_2 C 0.6142(3) 0.3271(3) 0.8605(3)
H2_2 H 0.6423 0.3621 0.8563
C5_2 C 0.3655(3) 0.7585(3) 0.7958(3)
C6_2 C 0.3064(3) 0.4341(2) 0.9027(3)
H3_2 H 0.3329 0.4051 0.9321
C7_2 C 0.3309(2) 0.4605(2) 0.8314(3)
C8_2 C 0.5294(3) 0.2644(3) 0.8476(4)
H4_2 H 0.4871 0.2483 0.8315
C9_2 C 0.4870(3) 0.7618(3) 0.8836(3)
C10_2 C 0.2426(3) 0.4503(2) 0.9314(3)
C11_2 C 0.2917(3) 0.5047(2) 0.7888(3)
H5_2 H 0.3078 0.5226 0.7405
C12_2 C 0.2291(3) 0.5222(3) 0.8174(3)
C13_2 C 0.2042(3) 0.4953(3) 0.8894(3)
H6_2 H 0.1622 0.5075 0.9092
C14_2 C 0.5685(3) 0.8088(3) 0.9852(3)
H7_2 H 0.5432 0.8449 0.9944
C15_2 C 0.6468(3) 0.7401(3) 0.9923(3)
C16_2 C 0.5997(3) 0.7190(3) 0.9357(4)
H9_2 H 0.6011 0.6818 0.9058
C17_2 C 0.6914(3) 0.2628(3) 0.9532(3)
C18_2 C 0.1853(3) 0.5680(3) 0.7683(3)
C19_2 C 0.2018(3) 0.7773(3) 0.6946(4)
H10_2 H 0.1628 0.7986 0.6766
C20_2 C 0.7247(3) 0.3102(3) 0.9967(4)
H11_2 H 0.7077 0.3509 0.9947
C21_2 C 0.2546(3) 0.8033(3) 0.7381(4)
H12_2 H 0.2587 0.8447 0.7556
C22_2 C 0.7169(3) 0.2028(3) 0.9569(4)
H13_2 H 0.6947 0.1708 0.9279
C23_2 C 0.5754(3) 0.2353(3) 0.8986(4)
H14_2 H 0.5708 0.1961 0.9232
C24_2 C 0.3938(4) 0.7056(4) 0.8257(6)
H15_2 H 0.3719 0.6675 0.8167
C25_2 C 0.4589(4) 0.8145(3) 0.8527(5)
H16_2 H 0.4809 0.8526 0.8618
C26_2 C 0.3980(4) 0.8133(4) 0.8078(6)
H17_2 H 0.3796 0.8502 0.7860
C27_2 C 0.4554(4) 0.7072(3) 0.8699(6)
H18_2 H 0.4746 0.6702 0.8900
N1_2 N 0.5547(2) 0.3216(2) 0.8231(2)
N2_2 N 0.6300(2) 0.2753(2) 0.9066(3)
N4_2 N 0.5496(2) 0.7638(2) 0.9314(3)
N5_2 N 0.2141(2) 0.7156(2) 0.6813(2)
N6_2 N 0.3010(2) 0.7560(2) 0.7509(3)
Ni1_2 Ni 0.16674(3) 0.64643(3) 0.61428(3)
Ni2_3 Ni 0.5000 0.38340(4) 0.7500
O1_2 O 0.43062(17) 0.39735(17) 0.8398(2)
O2_2 O 0.41803(18) 0.45607(17) 0.7296(2)
O5_2 O 0.07395(18) 0.64657(17) 0.6734(2)
O6_2 O 0.1334(3) 0.5905(3) 0.8013(3)
O7_2 O 0.20435(19) 0.58166(18) 0.6977(2)
C29_2 C 0.6030(2) 0.4380(2) 0.7013(3)
C30_2 C 0.7852(2) 0.4175(2) 0.4954(3)
C33_2 C 0.6936(3) 0.4341(2) 0.5973(3)
H21_2 H 0.6671 0.4051 0.5679
C34_2 C 0.6691(2) 0.4605(2) 0.6686(3)
C37_2 C 0.7574(3) 0.4503(2) 0.5686(3)
C38_2 C 0.7083(3) 0.5047(2) 0.7112(3)
H23_2 H 0.6922 0.5226 0.7595
C39_2 C 0.7709(3) 0.5222(3) 0.6826(3)
C40_2 C 0.7958(3) 0.4953(3) 0.6106(3)
H24_2 H 0.8378 0.5075 0.5908
C41_2 C 0.0685(3) 0.6912(3) 0.4852(3)
H25_2 H 0.0432 0.6551 0.4944
C42_2 C 0.1468(3) 0.7599(3) 0.4923(3)
H26_2 H 0.1868 0.7807 0.5075
C43_2 C 0.0997(3) 0.7810(3) 0.4357(4)
H27_2 H 0.1011 0.8182 0.4058
C45_2 C 0.8147(3) 0.5680(3) 0.7317(3)
N8_2 N 0.4453(2) 0.3216(2) 0.6769(2)
N10_2 N 0.1265(2) 0.7038(2) 0.5235(3)
N11_2 N 0.8735(2) 0.7038(2) 0.9765(3)
N12_2 N 0.0496(2) 0.7362(2) 0.4314(3)
N14_2 N 0.7859(2) 0.7156(2) 0.8187(2)
Ni3_2 Ni 0.83326(3) 0.64643(3) 0.88572(3)
Ni6_2 Ni 0.83326(3) 0.35357(3) 0.38572(3)
O8_2 O 0.56938(17) 0.39735(17) 0.6602(2)
O9_2 O 0.58197(18) 0.45607(17) 0.7704(2)
O10_2 O 0.75048(18) 0.37616(17) 0.4594(2)
O11_2 O 0.24952(18) 0.62384(17) 0.5406(2)
O12_2 O 0.75048(18) 0.62384(17) 0.9594(2)
O13_2 O 0.84527(18) 0.42949(17) 0.4722(2)
O14_2 O 0.15473(18) 0.57051(17) 0.5278(2)
O15_2 O 0.84527(18) 0.57051(17) 0.9722(2)
O16_2 O 0.92605(18) 0.64657(17) 0.8266(2)
O17_2 O 0.8666(3) 0.5905(3) 0.6987(3)
O18_2 O 0.79565(19) 0.58166(18) 0.8023(2)
C28_2 C 0.7743(3) 0.7960(3) 0.2155(3)
H19_2 H 0.7957 0.8349 0.2153
C32_2 C 0.8655(3) 0.7415(3) 0.2958(3)
C36_2 C 0.9870(3) 0.7382(3) 0.3836(3)
C46_2 C 0.7018(3) 0.7227(3) 0.1946(4)
H28_2 H 0.6628 0.7014 0.1766
C48_2 C 0.7546(3) 0.6967(3) 0.2381(4)
H30_2 H 0.7587 0.6553 0.2556
C51_2 C 0.8938(4) 0.7944(4) 0.3257(6)
H33_2 H 0.8719 0.8325 0.3167
C52_2 C 0.9589(4) 0.6855(3) 0.3527(5)
H34_2 H 0.9809 0.6474 0.3618
C53_2 C 0.8980(4) 0.6867(4) 0.3078(6)
H35_2 H 0.8796 0.6498 0.2860
C54_2 C 0.9554(4) 0.7928(3) 0.3699(6)
H36_2 H 0.9746 0.8298 0.3900
N13_2 N 0.7141(2) 0.7844(2) 0.1813(2)
N15_2 N 0.8010(2) 0.7440(2) 0.2509(3)
C28_3 C 0.7257(3) 0.2960(3) 0.2845(3)
H19_3 H 0.7043 0.3349 0.2847
C32_3 C 0.6345(3) 0.2415(3) 0.2042(3)
C36_3 C 0.5130(3) 0.2382(3) 0.1164(3)
C41_3 C 0.4315(3) 0.1912(3) 0.0148(3)
H25_3 H 0.4568 0.1551 0.0056
C42_3 C 0.3532(3) 0.2599(3) 0.0077(3)
C43_3 C 0.4003(3) 0.2810(3) 0.0643(4)
H27_3 H 0.3989 0.3182 0.0942
C46_3 C 0.7982(3) 0.2227(3) 0.3054(4)
H28_3 H 0.8372 0.2014 0.3234
C48_3 C 0.7454(3) 0.1967(3) 0.2619(4)
H30_3 H 0.7413 0.1553 0.2444
C51_3 C 0.6062(4) 0.2944(4) 0.1743(6)
H33_3 H 0.6281 0.3325 0.1833
C52_3 C 0.5411(4) 0.1855(3) 0.1473(5)
H34_3 H 0.5191 0.1474 0.1382
C53_3 C 0.6020(4) 0.1867(4) 0.1922(6)
H35_3 H 0.6204 0.1498 0.2140
C54_3 C 0.5446(4) 0.2928(3) 0.1301(6)
H36_3 H 0.5254 0.3298 0.1100
N12_3 N 0.4504(2) 0.2362(2) 0.0686(3)
N13_3 N 0.7859(2) 0.2844(2) 0.3187(2)
N15_3 N 0.6990(2) 0.2440(2) 0.2491(3)
C1_3 C 0.2257(3) 0.2040(3) 0.7845(3)
H1_3 H 0.2043 0.1651 0.7847
C5_3 C 0.1345(3) 0.2585(3) 0.7042(3)
C9_3 C 0.0130(3) 0.2618(3) 0.6164(3)
C19_3 C 0.2982(3) 0.2773(3) 0.8054(4)
H10_3 H 0.3372 0.2986 0.8234
C21_3 C 0.2454(3) 0.3033(3) 0.7619(4)
H12_3 H 0.2413 0.3447 0.7444
C24_3 C 0.1062(4) 0.2056(4) 0.6743(6)
H15_3 H 0.1281 0.1675 0.6833
C25_3 C 0.0411(4) 0.3145(3) 0.6473(5)
H16_3 H 0.0191 0.3526 0.6382
C26_3 C 0.1020(4) 0.3133(4) 0.6922(6)
H17_3 H 0.1204 0.3502 0.7140
C27_3 C 0.0446(4) 0.2072(3) 0.6301(6)
H18_3 H 0.0254 0.1702 0.6100
N6_3 N 0.1990(2) 0.2560(2) 0.7491(3)
H26_3 H 0.3132 0.2807 0.9925
H4_3 H 0.0129 0.7483 0.6685
C14_3 C 0.9315(3) 0.3088(3) 0.5148(3)
H7_3 H 0.9568 0.3449 0.5056
C15_3 C 0.8532(3) 0.2401(3) 0.5077(3)
H8_3 H 0.8132 0.2193 0.4925
C16_3 C 0.9003(3) 0.2190(3) 0.5643(4)
H9_3 H 0.8989 0.1818 0.5942
N3_3 N 0.8735(2) 0.2962(2) 0.4765(3)
N4_3 N 0.9504(2) 0.2638(2) 0.5686(3)
C4_3 C 0.8858(3) 0.8271(3) 0.6395(3)
H2_3 H 0.8577 0.8621 0.6437
C8_3 C 0.9706(3) 0.7644(3) 0.6524(4)
C17_3 C 0.8086(3) 0.7628(3) 0.5468(3)
C20_3 C 0.7753(3) 0.8102(3) 0.5033(4)
H11_3 H 0.7923 0.8509 0.5053
C22_3 C 0.7831(3) 0.7028(3) 0.5431(4)
H13_3 H 0.8053 0.6708 0.5721
C23_3 C 0.9246(3) 0.7353(3) 0.6014(4)
H14_3 H 0.9292 0.6961 0.5768
N2_3 N 0.8700(2) 0.7753(2) 0.5934(3)
C31_3 C 0.6142(3) 0.6729(3) 0.3605(3)
H20_3 H 0.6423 0.6379 0.3563
C35_3 C 0.5294(3) 0.7356(3) 0.3476(4)
H22_3 H 0.4871 0.7517 0.3315
C44_3 C 0.6914(3) 0.7372(3) 0.4532(3)
C47_3 C 0.7247(3) 0.6898(3) 0.4967(4)
H29_3 H 0.7077 0.6491 0.4947
C49_3 C 0.7169(3) 0.7972(3) 0.4569(4)
H31_3 H 0.6947 0.8292 0.4279
C50_3 C 0.5754(3) 0.7647(3) 0.3986(4)
H32_3 H 0.5708 0.8039 0.4232
N7_3 N 0.5547(2) 0.6784(2) 0.3231(2)
N9_3 N 0.6300(2) 0.7247(2) 0.4066(3)
C28_4 C 0.2257(3) 0.7960(3) 0.2845(3)
H19_4 H 0.2043 0.8349 0.2847
C32_4 C 0.1345(3) 0.7415(3) 0.2042(3)
C36_4 C 0.0130(3) 0.7382(3) 0.1164(3)
C46_4 C 0.2982(3) 0.7227(3) 0.3054(4)
H28_4 H 0.3372 0.7014 0.3234
C48_4 C 0.2454(3) 0.6967(3) 0.2619(4)
H30_4 H 0.2413 0.6553 0.2444
C51_4 C 0.1062(4) 0.7944(4) 0.1743(6)
H33_4 H 0.1281 0.8325 0.1833
C52_4 C 0.0411(4) 0.6855(3) 0.1473(5)
H34_4 H 0.0191 0.6474 0.1382
C53_4 C 0.1020(4) 0.6867(4) 0.1922(6)
H35_4 H 0.1204 0.6498 0.2140
C54_4 C 0.0446(4) 0.7928(3) 0.1301(6)
H36_4 H 0.0254 0.8298 0.1100
N13_4 N 0.2859(2) 0.7844(2) 0.3187(2)
N15_4 N 0.1990(2) 0.7440(2) 0.2491(3)
C41_4 C 0.9315(3) 0.6912(3) 0.0148(3)
H25_4 H 0.9568 0.6551 0.0056
C42_4 C 0.8532(3) 0.7599(3) 0.0077(3)
C43_4 C 0.9003(3) 0.7810(3) 0.0643(4)
H27_4 H 0.8989 0.8182 0.0942
N12_4 N 0.9504(2) 0.7362(2) 0.0686(3)
C1_4 C 0.7257(3) 0.7040(3) 0.7845(3)
H1_4 H 0.7043 0.6651 0.7847
C4_4 C 0.3858(3) 0.3271(3) 0.6395(3)
H2_4 H 0.3577 0.3621 0.6437
C5_4 C 0.6345(3) 0.7585(3) 0.7042(3)
C8_4 C 0.4706(3) 0.2644(3) 0.6524(4)
H4_4 H 0.5129 0.2483 0.6685
C9_4 C 0.5130(3) 0.7618(3) 0.6164(3)
C14_4 C 0.4315(3) 0.8088(3) 0.5148(3)
H7_4 H 0.4568 0.8449 0.5056
C15_4 C 0.3532(3) 0.7401(3) 0.5077(3)
H8_4 H 0.3132 0.7193 0.4925
C16_4 C 0.4003(3) 0.7190(3) 0.5643(4)
H9_4 H 0.3989 0.6818 0.5942
C17_4 C 0.3086(3) 0.2628(3) 0.5468(3)
C19_4 C 0.7982(3) 0.7773(3) 0.8054(4)
H10_4 H 0.8372 0.7986 0.8234
C20_4 C 0.2753(3) 0.3102(3) 0.5033(4)
H11_4 H 0.2923 0.3509 0.5053
C21_4 C 0.7454(3) 0.8033(3) 0.7619(4)
H12_4 H 0.7413 0.8447 0.7444
C22_4 C 0.2831(3) 0.2028(3) 0.5431(4)
H13_4 H 0.3053 0.1708 0.5721
C23_4 C 0.4246(3) 0.2353(3) 0.6014(4)
H14_4 H 0.4292 0.1961 0.5768
C24_4 C 0.6062(4) 0.7056(4) 0.6743(6)
H15_4 H 0.6281 0.6675 0.6833
C25_4 C 0.5411(4) 0.8145(3) 0.6473(5)
H16_4 H 0.5191 0.8526 0.6382
C26_4 C 0.6020(4) 0.8133(4) 0.6922(6)
H17_4 H 0.6204 0.8502 0.7140
C27_4 C 0.5446(4) 0.7072(3) 0.6301(6)
H18_4 H 0.5254 0.6702 0.6100
N2_4 N 0.3700(2) 0.2753(2) 0.5934(3)
N3_4 N 0.3735(2) 0.7962(2) 0.4765(3)
N4_4 N 0.4504(2) 0.7638(2) 0.5686(3)
N6_4 N 0.6990(2) 0.7560(2) 0.7491(3)
C31_4 C 0.1142(3) 0.1729(3) 0.3605(3)
H20_4 H 0.1423 0.1379 0.3563
C35_4 C 0.0294(3) 0.2356(3) 0.3476(4)
H26_4 H 0.8132 0.7807 0.9925
C44_4 C 0.1914(3) 0.2372(3) 0.4532(3)
C47_4 C 0.2247(3) 0.1898(3) 0.4967(4)
H29_4 H 0.2077 0.1491 0.4947
C49_4 C 0.2169(3) 0.2972(3) 0.4569(4)
H31_4 H 0.1947 0.3292 0.4279
C50_4 C 0.0754(3) 0.2647(3) 0.3986(4)
H32_4 H 0.0708 0.3039 0.4232
N7_4 N 0.0547(2) 0.1784(2) 0.3231(2)
N9_4 N 0.1300(2) 0.2247(2) 0.4066(3)
H22_4 H 0.9871 0.2517 0.3315
C2_3 C 0.1030(2) 0.0620(2) 0.2013(3)
C6_3 C 0.1936(3) 0.0659(2) 0.0973(3)
H3_3 H 0.1671 0.0949 0.0679
C7_3 C 0.1691(2) 0.0395(2) 0.1686(3)
C10_3 C 0.2574(3) 0.0497(2) 0.0686(3)
C13_3 C 0.2958(3) 0.0047(3) 0.1106(3)
O1_3 O 0.06938(17) 0.10265(17) 0.1602(2)
O2_3 O 0.08197(18) 0.04393(17) 0.2704(2)
C3_3 C 0.2852(2) 0.0825(2) 0.9954(3)
C11_3 C 0.2083(3) 0.9953(2) 0.2112(3)
H5_3 H 0.1922 0.9774 0.2595
C12_3 C 0.2709(3) 0.9778(3) 0.1826(3)
H6_3 H 0.3378 0.9925 0.0908
C18_3 C 0.3147(3) 0.9320(3) 0.2317(3)
O5_3 O 0.42605(18) 0.85343(17) 0.3266(2)
O6_3 O 0.3666(3) 0.9095(3) 0.1987(3)
O7_3 O 0.29565(19) 0.91834(18) 0.3023(2)
C29_3 C 0.8970(2) 0.0620(2) 0.2987(3)
C30_3 C 0.7148(2) 0.0825(2) 0.5046(3)
C33_3 C 0.8064(3) 0.0659(2) 0.4027(3)
H21_3 H 0.8329 0.0949 0.4321
C34_3 C 0.8309(2) 0.0395(2) 0.3314(3)
C37_3 C 0.7426(3) 0.0497(2) 0.4314(3)
C40_3 C 0.7042(3) 0.0047(3) 0.3894(3)
O8_3 O 0.93062(17) 0.10265(17) 0.3398(2)
O9_3 O 0.91803(18) 0.04393(17) 0.2296(2)
C38_3 C 0.7917(3) 0.9953(2) 0.2888(3)
H23_3 H 0.8078 0.9774 0.2405
C39_3 C 0.7291(3) 0.9778(3) 0.3174(3)
H24_3 H 0.6622 0.9925 0.4092
C45_3 C 0.6853(3) 0.9320(3) 0.2683(3)
O16_3 O 0.57395(18) 0.85343(17) 0.1734(2)
O17_3 O 0.6334(3) 0.9095(3) 0.3013(3)
O18_3 O 0.70435(19) 0.91834(18) 0.1977(2)
C2_4 C 0.6030(2) 0.5620(2) 0.2013(3)
C6_4 C 0.6936(3) 0.5659(2) 0.0973(3)
H3_4 H 0.6671 0.5949 0.0679
C7_4 C 0.6691(2) 0.5395(2) 0.1686(3)
C10_4 C 0.7574(3) 0.5497(2) 0.0686(3)
C11_4 C 0.7083(3) 0.4953(2) 0.2112(3)
H5_4 H 0.6922 0.4774 0.2595
C12_4 C 0.7709(3) 0.4778(3) 0.1826(3)
C13_4 C 0.7958(3) 0.5047(3) 0.1106(3)
H6_4 H 0.8378 0.4925 0.0908
C18_4 C 0.8147(3) 0.4320(3) 0.2317(3)
O1_4 O 0.56938(17) 0.60265(17) 0.1602(2)
O2_4 O 0.58197(18) 0.54393(17) 0.2704(2)
O5_4 O 0.92605(18) 0.35343(17) 0.3266(2)
O6_4 O 0.8666(3) 0.4095(3) 0.1987(3)
O7_4 O 0.79565(19) 0.41834(18) 0.3023(2)
C29_4 C 0.3970(2) 0.5620(2) 0.2987(3)
C30_4 C 0.2148(2) 0.5825(2) 0.5046(3)
C33_4 C 0.3064(3) 0.5659(2) 0.4027(3)
H21_4 H 0.3329 0.5949 0.4321
C34_4 C 0.3309(2) 0.5395(2) 0.3314(3)
C37_4 C 0.2426(3) 0.5497(2) 0.4314(3)
C38_4 C 0.2917(3) 0.4953(2) 0.2888(3)
H23_4 H 0.3078 0.4774 0.2405
C39_4 C 0.2291(3) 0.4778(3) 0.3174(3)
C40_4 C 0.2042(3) 0.5047(3) 0.3894(3)
H24_4 H 0.1622 0.4925 0.4092
C45_4 C 0.1853(3) 0.4320(3) 0.2683(3)
O8_4 O 0.43062(17) 0.60265(17) 0.3398(2)
O9_4 O 0.41803(18) 0.54393(17) 0.2296(2)
O16_4 O 0.07395(18) 0.35343(17) 0.1734(2)
O17_4 O 0.1334(3) 0.4095(3) 0.3013(3)
O18_4 O 0.20435(19) 0.41834(18) 0.1977(2)
C3_4 C 0.7852(2) 0.5825(2) 0.9954(3)
loop_
_geom_bond_atom_site_label_1
_geom_bond_atom_site_label_2
_geom_bond_site_symmetry_1
_geom_bond_site_symmetry_2
Ni4 N3 1_555 1_555
C14 H7 1_555 1_555
C16 C15 1_555 1_555
H9 C16 1_555 1_555
H23 C38 1_555 1_555
C39 C38 1_555 1_555
C45 C39 1_555 1_555
N11 Ni3 1_555 1_555
N14 Ni3 1_555 1_555
Ni3 O12 1_555 1_555
O15 Ni3 1_555 1_555
O16 Ni3 1_555 1_555
O17 C45 1_555 1_555
O18 C45 1_555 1_555
C14 N4 1_555 1_555
C16 N4 1_555 1_555
Ni3 O18 1_555 1_555
C31 H20 1_555 1_555
C35 H22 1_555 1_555
C44 C47 1_555 1_555
H29 C47 1_555 1_555
H31 C49 1_555 1_555
C50 C35 1_555 1_555
H32 C50 1_555 1_555
N7 C31 1_555 1_555
N9 C31 1_555 1_555
Ni8 N7 1_555 1_555
C35 N7 1_555 1_555
C44 C49 1_555 1_555
C44 N9 1_555 1_555
C50 N9 1_555 1_555
C4 H2 1_555 1_555
C17 C20 1_555 1_555
C20 H11 1_555 1_555
C22 C17 1_555 1_555
H13 C22 1_555 1_555
C23 C8 1_555 1_555
H14 C23 1_555 1_555
N1 C4 1_555 1_555
N2 C4 1_555 1_555
Ni2 N1 1_555 1_555
C29 C34 1_555 1_555
C30 C37 1_555 1_555
C33 H21 1_555 1_555
C34 C33 1_555 1_555
C37 C33 1_555 1_555
C40 C37 1_555 1_555
Ni6 O10 1_555 1_555
O8 Ni2 1_555 1_555
O9 Ni2 1_555 1_555
O10 C30 1_555 1_555
O13 C30 1_555 1_555
C8 N1 1_555 1_555
C17 N2 1_555 1_555
C23 N2 1_555 1_555
C29 O8 1_555 1_555
C29 O9 1_555 1_555
Ni6 O13 1_555 1_555
C1 H1 1_555 1_555
C5 C24 1_555 1_555
C9 C25 1_555 1_555
H5 C11 1_555 1_555
C12 C11 1_555 1_555
C18 C12 1_555 1_555
C19 H10 1_555 1_555
C21 C19 1_555 1_555
H12 C21 1_555 1_555
C24 H15 1_555 1_555
C25 H16 1_555 1_555
C26 C5 1_555 1_555
H17 C26 1_555 1_555
C27 C9 1_555 1_555
H18 C27 1_555 1_555
N5 C1 1_555 1_555
N6 C1 1_555 1_555
Ni1 N5 1_555 1_555
O5 Ni1 1_555 1_555
O6 C18 1_555 1_555
O7 C18 1_555 1_555
C28 H19 1_555 1_555
C32 C51 1_555 1_555
C36 C52 1_555 1_555
C41 H25 1_555 1_555
C42 H26 1_555 1_555
C43 C42 1_555 1_555
H27 C43 1_555 1_555
C46 H28 1_555 1_555
C48 C46 1_555 1_555
H30 C48 1_555 1_555
C51 H33 1_555 1_555
C52 H34 1_555 1_555
C53 C32 1_555 1_555
H35 C53 1_555 1_555
C54 C36 1_555 1_555
H36 C54 1_555 1_555
N10 Ni1 1_555 1_555
N12 C36 1_555 1_555
N13 C28 1_555 1_555
N15 C28 1_555 1_555
Ni4 N13 1_555 1_555
O11 Ni1 1_555 1_555
O14 Ni1 1_555 1_555
C5 N6 1_555 1_555
C19 N5 1_555 1_555
C21 N6 1_555 1_555
C24 C27 1_555 1_555
C25 C26 1_555 1_555
Ni1 O7 1_555 1_555
C32 N15 1_555 1_555
C41 N10 1_555 1_555
C41 N12 1_555 1_555
C42 N10 1_555 1_555
C43 N12 1_555 1_555
C46 N13 1_555 1_555
C48 N15 1_555 1_555
C51 C54 1_555 1_555
C52 C53 1_555 1_555
O3 C3 1_555 1_555
O4 C3 1_555 1_555
Ni5 O3 1_555 1_555
O4 Ni5 1_555 1_555
C2 C7 1_555 1_555
C6 H3 1_555 1_555
C7 C6 1_555 1_555
C10 C6 1_555 1_555
C13 C10 1_555 1_555
O1 C2 1_555 1_555
O2 C2 1_555 1_555
N8 Ni2_2 1_555 1_555
Ni2_2 O1 1_555 1_555
Ni2_2 O2 1_555 1_555
O3_2 C3_2 1_555 1_555
O4_2 C3_2 1_555 1_555
C31_2 H20_2 1_555 1_555
C44_2 C47_2 1_555 1_555
H29_2 C47_2 1_555 1_555
H31_2 C49_2 1_555 1_555
C50_2 C35_2 1_555 1_555
H32_2 C50_2 1_555 1_555
N7_2 C31_2 1_555 1_555
N9_2 C31_2 1_555 1_555
Ni5 N3_2 1_555 1_555
Ni4 O3_2 1_555 1_555
Ni8_3 N7_2 1_555 1_555
O4_2 Ni4 1_555 1_555
C35_2 N7_2 1_555 1_555
C44_2 C49_2 1_555 1_555
C44_2 N9_2 1_555 1_555
C50_2 N9_2 1_555 1_555
C1_2 H1_2 1_555 1_555
C2_2 C7_2 1_555 1_555
C4_2 H2_2 1_555 1_555
C5_2 C24_2 1_555 1_555
C6_2 H3_2 1_555 1_555
C7_2 C6_2 1_555 1_555
C8_2 H4_2 1_555 1_555
C9_2 C25_2 1_555 1_555
C10_2 C6_2 1_555 1_555
C11_2 C7_2 1_555 1_555
H5_2 C11_2 1_555 1_555
C12_2 C11_2 1_555 1_555
C13_2 C10_2 1_555 1_555
H6_2 C13_2 1_555 1_555
C14_2 H7_2 1_555 1_555
C16_2 C15_2 1_555 1_555
H9_2 C16_2 1_555 1_555
C17_2 C20_2 1_555 1_555
C18_2 C12_2 1_555 1_555
C19_2 H10_2 1_555 1_555
C20_2 H11_2 1_555 1_555
C21_2 C19_2 1_555 1_555
H12_2 C21_2 1_555 1_555
C22_2 C17_2 1_555 1_555
H13_2 C22_2 1_555 1_555
C23_2 C8_2 1_555 1_555
H14_2 C23_2 1_555 1_555
C24_2 H15_2 1_555 1_555
C25_2 H16_2 1_555 1_555
C26_2 C5_2 1_555 1_555
H17_2 C26_2 1_555 1_555
C27_2 C9_2 1_555 1_555
H18_2 C27_2 1_555 1_555
N1_2 C4_2 1_555 1_555
N2_2 C4_2 1_555 1_555
N4_2 C9_2 1_555 1_555
N5_2 C1_2 1_555 1_555
N6_2 C1_2 1_555 1_555
Ni1_2 N5_2 1_555 1_555
Ni2_3 N1_2 1_555 1_555
O1_2 C2_2 1_555 1_555
O2_2 C2_2 1_555 1_555
O5_2 Ni1_2 1_555 1_555
O6_2 C18_2 1_555 1_555
O7_2 C18_2 1_555 1_555
C29_2 C34_2 1_555 1_555
C30_2 C37_2 1_555 1_555
C33_2 H21_2 1_555 1_555
C34_2 C33_2 1_555 1_555
C37_2 C33_2 1_555 1_555
C38_2 C34_2 1_555 1_555
H23_2 C38_2 1_555 1_555
C39_2 C38_2 1_555 1_555
C40_2 C37_2 1_555 1_555
H24_2 C40_2 1_555 1_555
C41_2 H25_2 1_555 1_555
C42_2 H26_2 1_555 1_555
C43_2 C42_2 1_555 1_555
H27_2 C43_2 1_555 1_555
C45_2 C39_2 1_555 1_555
N8_2 Ni2_3 1_555 1_555
N10_2 Ni1_2 1_555 1_555
N11_2 Ni3_2 1_555 1_555
N14_2 Ni3_2 1_555 1_555
Ni3_2 O12_2 1_555 1_555
Ni6_2 O10_2 1_555 1_555
O8_2 Ni2_3 1_555 1_555
O9_2 Ni2_3 1_555 1_555
O10_2 C30_2 1_555 1_555
O11_2 Ni1_2 1_555 1_555
O13_2 C30_2 1_555 1_555
O14_2 Ni1_2 1_555 1_555
O15_2 Ni3_2 1_555 1_555
O16_2 Ni3_2 1_555 1_555
O17_2 C45_2 1_555 1_555
O18_2 C45_2 1_555 1_555
C5_2 N6_2 1_555 1_555
C8_2 N1_2 1_555 1_555
C12_2 C13_2 1_555 1_555
C14_2 N4_2 1_555 1_555
C16_2 N4_2 1_555 1_555
C17_2 N2_2 1_555 1_555
C19_2 N5_2 1_555 1_555
C21_2 N6_2 1_555 1_555
C23_2 N2_2 1_555 1_555
C24_2 C27_2 1_555 1_555
C25_2 C26_2 1_555 1_555
Ni1_2 O7_2 1_555 1_555
Ni2_3 O1_2 1_555 1_555
Ni2_3 O2_2 1_555 1_555
C29_2 O8_2 1_555 1_555
C29_2 O9_2 1_555 1_555
C39_2 C40_2 1_555 1_555
C41_2 N10_2 1_555 1_555
C41_2 N12_2 1_555 1_555
C42_2 N10_2 1_555 1_555
C43_2 N12_2 1_555 1_555
Ni3_2 O18_2 1_555 1_555
Ni6_2 O13_2 1_555 1_555
C28_2 H19_2 1_555 1_555
C32_2 C51_2 1_555 1_555
C36_2 C52_2 1_555 1_555
C46_2 H28_2 1_555 1_555
C48_2 C46_2 1_555 1_555
H30_2 C48_2 1_555 1_555
C51_2 H33_2 1_555 1_555
C52_2 H34_2 1_555 1_555
C53_2 C32_2 1_555 1_555
H35_2 C53_2 1_555 1_555
C54_2 C36_2 1_555 1_555
H36_2 C54_2 1_555 1_555
N13_2 C28_2 1_555 1_555
N15_2 C28_2 1_555 1_555
Ni5 N13_2 1_555 1_555
C32_2 N15_2 1_555 1_555
C46_2 N13_2 1_555 1_555
C48_2 N15_2 1_555 1_555
C51_2 C54_2 1_555 1_555
C52_2 C53_2 1_555 1_555
C28_3 H19_3 1_555 1_555
C32_3 C51_3 1_555 1_555
C36_3 C52_3 1_555 1_555
C41_3 H25_3 1_555 1_555
C43_3 C42_3 1_555 1_555
H27_3 C43_3 1_555 1_555
C46_3 H28_3 1_555 1_555
C48_3 C46_3 1_555 1_555
H30_3 C48_3 1_555 1_555
C51_3 H33_3 1_555 1_555
C52_3 H34_3 1_555 1_555
C53_3 C32_3 1_555 1_555
H35_3 C53_3 1_555 1_555
C54_3 C36_3 1_555 1_555
H36_3 C54_3 1_555 1_555
N12_3 C36_3 1_555 1_555
N13_3 C28_3 1_555 1_555
N15_3 C28_3 1_555 1_555
Ni6_2 N13_3 1_555 1_555
C32_3 N15_3 1_555 1_555
C41_3 N12_3 1_555 1_555
C43_3 N12_3 1_555 1_555
C46_3 N13_3 1_555 1_555
C48_3 N15_3 1_555 1_555
C51_3 C54_3 1_555 1_555
C52_3 C53_3 1_555 1_555
C1_3 H1_3 1_555 1_555
C5_3 C24_3 1_555 1_555
C9_3 C25_3 1_555 1_555
C19_3 H10_3 1_555 1_555
C21_3 C19_3 1_555 1_555
H12_3 C21_3 1_555 1_555
C24_3 H15_3 1_555 1_555
C25_3 H16_3 1_555 1_555
C26_3 C5_3 1_555 1_555
H17_3 C26_3 1_555 1_555
C27_3 C9_3 1_555 1_555
H18_3 C27_3 1_555 1_555
N14 C1_3 1_555 1_555
N6_3 C1_3 1_555 1_555
C5_3 N6_3 1_555 1_555
C19_3 N14 1_555 1_555
C21_3 N6_3 1_555 1_555
C24_3 C27_3 1_555 1_555
C25_3 C26_3 1_555 1_555
C14_3 H7_3 1_555 1_555
C15_3 H8_3 1_555 1_555
C16_3 C15_3 1_555 1_555
H9_3 C16_3 1_555 1_555
N3_3 C14_3 1_555 1_555
Ni6_2 N3_3 1_555 1_555
C14_3 N4_3 1_555 1_555
C15_3 N3_3 1_555 1_555
C16_3 N4_3 1_555 1_555
C4_3 H2_3 1_555 1_555
C17_3 C20_3 1_555 1_555
C20_3 H11_3 1_555 1_555
C22_3 C17_3 1_555 1_555
H13_3 C22_3 1_555 1_555
C23_3 C8_3 1_555 1_555
H14_3 C23_3 1_555 1_555
N8 C4_3 1_555 1_555
N2_3 C4_3 1_555 1_555
C31_3 H20_3 1_555 1_555
C35_3 H22_3 1_555 1_555
C44_3 C47_3 1_555 1_555
C47_3 C22_3 1_555 1_555
H29_3 C47_3 1_555 1_555
C49_3 C20_3 1_555 1_555
H31_3 C49_3 1_555 1_555
C50_3 C35_3 1_555 1_555
H32_3 C50_3 1_555 1_555
N7_3 C31_3 1_555 1_555
N9_3 C31_3 1_555 1_555
Ni8 N7_3 1_555 1_555
C8_3 N8 1_555 1_555
C17_3 N2_3 1_555 1_555
C23_3 N2_3 1_555 1_555
C35_3 N7_3 1_555 1_555
C44_3 C49_3 1_555 1_555
C44_3 N9_3 1_555 1_555
C50_3 N9_3 1_555 1_555
C28_4 H19_4 1_555 1_555
C32_4 C51_4 1_555 1_555
C36_4 C52_4 1_555 1_555
C46_4 H28_4 1_555 1_555
C48_4 C46_4 1_555 1_555
H30_4 C48_4 1_555 1_555
C51_4 H33_4 1_555 1_555
C52_4 H34_4 1_555 1_555
C53_4 C32_4 1_555 1_555
H35_4 C53_4 1_555 1_555
C54_4 C36_4 1_555 1_555
H36_4 C54_4 1_555 1_555
N13_4 C28_4 1_555 1_555
N15_4 C28_4 1_555 1_555
Ni6 N13_4 1_555 1_555
C32_4 N15_4 1_555 1_555
C46_4 N13_4 1_555 1_555
C48_4 N15_4 1_555 1_555
C51_4 C54_4 1_555 1_555
C52_4 C53_4 1_555 1_555
C41_4 H25_4 1_555 1_555
C43_4 C42_4 1_555 1_555
H27_4 C43_4 1_555 1_555
C41_4 N12_4 1_555 1_555
C43_4 N12_4 1_555 1_555
C1_4 H1_4 1_555 1_555
C4_4 H2_4 1_555 1_555
C5_4 C24_4 1_555 1_555
C8_4 H4_4 1_555 1_555
C9_4 C25_4 1_555 1_555
C14_4 H7_4 1_555 1_555
C15_4 H8_4 1_555 1_555
C16_4 C15_4 1_555 1_555
H9_4 C16_4 1_555 1_555
C17_4 C20_4 1_555 1_555
C19_4 H10_4 1_555 1_555
C20_4 H11_4 1_555 1_555
C21_4 C19_4 1_555 1_555
H12_4 C21_4 1_555 1_555
C22_4 C17_4 1_555 1_555
H13_4 C22_4 1_555 1_555
C23_4 C8_4 1_555 1_555
H14_4 C23_4 1_555 1_555
C24_4 H15_4 1_555 1_555
C25_4 H16_4 1_555 1_555
C26_4 C5_4 1_555 1_555
H17_4 C26_4 1_555 1_555
C27_4 C9_4 1_555 1_555
H18_4 C27_4 1_555 1_555
N8_2 C4_4 1_555 1_555
N2_4 C4_4 1_555 1_555
N3_4 C14_4 1_555 1_555
N4_4 C9_4 1_555 1_555
N14_2 C1_4 1_555 1_555
N6_4 C1_4 1_555 1_555
C31_4 H20_4 1_555 1_555
C44_4 C47_4 1_555 1_555
C47_4 C22_4 1_555 1_555
H29_4 C47_4 1_555 1_555
C49_4 C20_4 1_555 1_555
H31_4 C49_4 1_555 1_555
C50_4 C35_4 1_555 1_555
H32_4 C50_4 1_555 1_555
N7_4 C31_4 1_555 1_555
N9_4 C31_4 1_555 1_555
Ni6 N3_4 1_555 1_555
Ni8_2 N7_4 1_555 1_555
C5_4 N6_4 1_555 1_555
C8_4 N8_2 1_555 1_555
C14_4 N4_4 1_555 1_555
C15_4 N3_4 1_555 1_555
C16_4 N4_4 1_555 1_555
C17_4 N2_4 1_555 1_555
C19_4 N14_2 1_555 1_555
C21_4 N6_4 1_555 1_555
C23_4 N2_4 1_555 1_555
C24_4 C27_4 1_555 1_555
C25_4 C26_4 1_555 1_555
C35_4 N7_4 1_555 1_555
C44_4 C49_4 1_555 1_555
C44_4 N9_4 1_555 1_555
C50_4 N9_4 1_555 1_555
C2_3 C7_3 1_555 1_555
C6_3 H3_3 1_555 1_555
C7_3 C6_3 1_555 1_555
C10_3 C6_3 1_555 1_555
C13_3 C10_3 1_555 1_555
O1_3 C2_3 1_555 1_555
O2_3 C2_3 1_555 1_555
Ni8_2 O1_3 1_555 1_555
Ni8_2 O2_3 1_555 1_555
O12 C3_3 1_555 1_555
O15 C3_3 1_555 1_555
H5_3 C11_3 1_555 1_555
C12_3 C11_3 1_555 1_555
C18_3 C12_3 1_555 1_555
O5_3 Ni6 1_555 1_555
O6_3 C18_3 1_555 1_555
O7_3 C18_3 1_555 1_555
Ni6 O7_3 1_555 1_555
C29_3 C34_3 1_555 1_555
C30_3 C37_3 1_555 1_555
C33_3 H21_3 1_555 1_555
C34_3 C33_3 1_555 1_555
C37_3 C33_3 1_555 1_555
C40_3 C37_3 1_555 1_555
O8_3 Ni8_3 1_555 1_555
O9_3 Ni8_3 1_555 1_555
O11 C30_3 1_555 1_555
O14 C30_3 1_555 1_555
C29_3 O8_3 1_555 1_555
C29_3 O9_3 1_555 1_555
H23_3 C38_3 1_555 1_555
C39_3 C38_3 1_555 1_555
C45_3 C39_3 1_555 1_555
O16_3 Ni5 1_555 1_555
O17_3 C45_3 1_555 1_555
O18_3 C45_3 1_555 1_555
Ni5 O18_3 1_555 1_555
C2_4 C7_4 1_555 1_555
C6_4 H3_4 1_555 1_555
C7_4 C6_4 1_555 1_555
C10_4 C6_4 1_555 1_555
C11_4 C7_4 1_555 1_555
H5_4 C11_4 1_555 1_555
C12_4 C11_4 1_555 1_555
C13_4 C10_4 1_555 1_555
H6_4 C13_4 1_555 1_555
C18_4 C12_4 1_555 1_555
O1_4 C2_4 1_555 1_555
O2_4 C2_4 1_555 1_555
O5_4 Ni6_2 1_555 1_555
O6_4 C18_4 1_555 1_555
O7_4 C18_4 1_555 1_555
C29_4 C34_4 1_555 1_555
C30_4 C37_4 1_555 1_555
C33_4 H21_4 1_555 1_555
C34_4 C33_4 1_555 1_555
C37_4 C33_4 1_555 1_555
C38_4 C34_4 1_555 1_555
H23_4 C38_4 1_555 1_555
C39_4 C38_4 1_555 1_555
C40_4 C37_4 1_555 1_555
H24_4 C40_4 1_555 1_555
C45_4 C39_4 1_555 1_555
O8_4 Ni8 1_555 1_555
O9_4 Ni8 1_555 1_555
O11_2 C30_4 1_555 1_555
O14_2 C30_4 1_555 1_555
O16_4 Ni4 1_555 1_555
O17_4 C45_4 1_555 1_555
O18_4 C45_4 1_555 1_555
C12_4 C13_4 1_555 1_555
Ni6_2 O7_4 1_555 1_555
Ni8 O1_4 1_555 1_555
Ni8 O2_4 1_555 1_555
C29_4 O8_4 1_555 1_555
C29_4 O9_4 1_555 1_555
C39_4 C40_4 1_555 1_555
Ni4 O18_4 1_555 1_555
O12_2 C3_4 1_555 1_555
O15_2 C3_4 1_555 1_555

#END
