
###############################################################################
#
# This file contains modified crystal structure data generated from the
# MOF subset of the Cambridge Structural Database (CSD) v543 
# hosted by the Cambridge Crystallographic Data Centre (CCDC).
#
# This work is licensed under the Creative Commons
# Attribution-NonCommercial-ShareAlike 4.0 International License.
# To view a copy of this license, visit
# http://creativecommons.org/licenses/by-nc-sa/4.0/
# or send a letter to
# Creative Commons, PO Box 1866, Mountain View, CA 94042, USA.
#
# CIF created using the CSD Python API on 29 September 2022
# The structure has been converted into the P1 space group
# The structure has a 3D framework
# The original CSD entry POKSAL is in the monoclinic crystal system
# The framework has been calculated to contain at least 10.0% void space
# The void calculation uses a probe of radius 1.32A, grid spacing 0.4
#
###############################################################################

data_POKSAL
_chemical_formula_moiety         '(C48 H32 Cu8 N16 O36 Yb4)n'
_symmetry_cell_setting           triclinic
_symmetry_space_group_name_H-M   'P 1'
_symmetry_Int_Tables_number      1
_space_group_name_Hall           'P 1'
loop_
_symmetry_equiv_pos_site_id
_symmetry_equiv_pos_as_xyz
1 x,y,z
_cell_length_a                   6.0214(8)
_cell_length_b                   23.592(3)
_cell_length_c                   13.3244(16)
_cell_angle_alpha                90
_cell_angle_beta                 112.782(5)
_cell_angle_gamma                90
_cell_volume                     1745.15
loop_
_atom_site_label
_atom_site_type_symbol
_atom_site_fract_x
_atom_site_fract_y
_atom_site_fract_z
O2 O 0.0124(7) 0.56026(18) 0.1527(3)
O9 O 0.0446(9) 0.6214(2) 0.5487(4)
H1 H 0.1254 0.6192 0.6166
Cu3 Cu 0.0000 0.5000 0.0000
N10 N 0.1849(7) 0.74251(17) 0.5404(3)
O26 O 0.3149(7) 0.66296(15) 0.4306(3)
Cu3_2 Cu 0.0000 0.5000 1.0000
Yb1 Yb 0.90236(3) 0.672177(8) 0.390211(15)
N2 N 0.5776(9) 0.63935(18) 0.0124(4)
N3 N 0.5307(7) 0.71226(16) 0.2299(3)
N4 N 0.1849(7) 0.75749(17) 0.0404(3)
O1 O 0.9147(7) 0.62400(18) 0.2514(3)
O3 O 0.6375(8) 0.50483(17) 0.2326(3)
O4 O 0.2915(6) 0.47055(14) 0.1140(3)
O5 O 0.9784(7) 0.74956(15) 0.3101(3)
O6 O 0.8762(8) 0.82521(15) 0.2034(4)
H2 H 0.9618 0.5908 0.5293
O10 O 0.6204(7) 0.60029(16) 0.3595(3)
H3 H 0.6272 0.5813 0.3066
H4 H 0.4945 0.5900 0.3689
C1 C 0.8676(9) 0.5919(2) 0.1687(4)
C2 C 0.6160(9) 0.5957(2) 0.0816(4)
C5 C 0.4379(9) 0.5558(2) 0.0708(4)
C6 C 0.4621(9) 0.5073(2) 0.1465(4)
C7 C 0.8350(9) 0.7783(2) 0.2314(4)
C8 C 0.5874(9) 0.7525(2) 0.1729(4)
C9 C 0.3017(9) 0.6940(2) 0.1908(4)
H7 H 0.2586 0.6644 0.2256
C10 C 0.1285(9) 0.7185(2) 0.0994(4)
C11 C 0.4204(9) 0.7703(2) 0.0731(4)
Cu3_3 Cu 1.0000 0.5000 0.0000
Yb4 Yb 0.09764(3) 0.172177(8) 0.109789(15)
O24 O 0.6701(6) 0.70642(15) 0.4777(3)
N1 N 0.2219(8) 0.55931(17) 0.9866(3)
O7 O 0.6701(6) 0.79358(15) 0.9777(3)
O8 O 0.3149(7) 0.83704(15) 0.9306(3)
C3 C 0.3608(10) 0.6421(2) 0.9290(5)
H5 H 0.3294 0.6715 0.8788
C4 C 0.1833(11) 0.6019(2) 0.9169(4)
H6 H 0.0351 0.6048 0.8588
C12 C 0.4750(8) 0.80351(19) 0.9886(4)
H16 H 0.0315 0.2926 0.9215
Cu3_4 Cu 1.0000 0.5000 1.0000
Yb6 Yb 0.90236(3) 0.827823(8) 0.890211(15)
H8 H 0.9685 0.7074 0.0785
N5 N 0.7781(8) 0.44069(17) 0.0134(3)
O17 O 0.3299(6) 0.20642(15) 0.0223(3)
O18 O 0.6851(7) 0.16296(15) 0.0694(3)
C15 C 0.6392(10) 0.3579(2) 0.0710(5)
H13 H 0.6706 0.3285 0.1212
C16 C 0.8167(11) 0.3981(2) 0.0831(4)
H14 H 0.9649 0.3952 0.1412
C24 C 0.5250(8) 0.19649(19) 0.0114(4)
Yb2 Yb 0.09764(3) 0.327823(8) 0.609789(15)
N6 N 0.4224(9) 0.36065(18) 0.9876(4)
N7 N 0.4693(7) 0.28774(16) 0.7701(3)
N8 N 0.8151(7) 0.24251(17) 0.9596(3)
O11 O 0.0853(7) 0.37600(18) 0.7486(3)
O13 O 0.3625(8) 0.49517(17) 0.7674(3)
O14 O 0.7085(6) 0.52945(14) 0.8860(3)
O15 O 0.0216(7) 0.25044(15) 0.6899(3)
O16 O 0.1238(8) 0.17479(15) 0.7966(4)
H10 H 0.0382 0.4092 0.4707
O20 O 0.3796(7) 0.39971(16) 0.6405(3)
H11 H 0.3728 0.4187 0.6934
H12 H 0.5055 0.4100 0.6311
C13 C 0.1324(9) 0.4081(2) 0.8313(4)
C14 C 0.3840(9) 0.4043(2) 0.9184(4)
C17 C 0.5621(9) 0.4442(2) 0.9292(4)
C18 C 0.5379(9) 0.4927(2) 0.8535(4)
C19 C 0.1650(9) 0.2217(2) 0.7686(4)
C20 C 0.4126(9) 0.2475(2) 0.8271(4)
C21 C 0.6983(9) 0.3060(2) 0.8092(4)
H15 H 0.7414 0.3356 0.7744
C22 C 0.8715(9) 0.2815(2) 0.9006(4)
C23 C 0.5796(9) 0.2297(2) 0.9269(4)
O22 O 0.9876(7) 0.43974(18) 0.8473(3)
O23 O 0.3299(6) 0.29358(15) 0.5223(3)
O19 O 0.9554(9) 0.3786(2) 0.4513(4)
H9 H 0.8746 0.3808 0.3834
N9 N 0.8151(7) 0.25749(17) 0.4596(3)
O25 O 0.6851(7) 0.33704(15) 0.5694(3)
Cu2 Cu 0.0000 0.0000 0.5000
O19_2 O 0.0446(9) 0.8786(2) 0.0487(4)
H9_2 H 0.1254 0.8808 0.1166
O12 O 0.0124(7) 0.93974(18) 0.6527(3)
Cu2_2 Cu 0.0000 1.0000 0.5000
H8_2 H 0.0315 0.2074 0.4215
O14_2 O 0.2915(6) 0.02945(14) 0.6140(3)
Cu2_3 Cu 1.0000 0.0000 0.5000
N5_2 N 0.2219(8) 0.94069(17) 0.4866(3)
N6_2 N 0.5776(9) 0.86065(18) 0.5124(4)
N7_2 N 0.5307(7) 0.78774(16) 0.7299(3)
O11_2 O 0.9147(7) 0.87600(18) 0.7514(3)
O13_2 O 0.6375(8) 0.99517(17) 0.7326(3)
O15_2 O 0.9784(7) 0.75044(15) 0.8101(3)
O16_2 O 0.8762(8) 0.67479(15) 0.7034(4)
O20_2 O 0.6204(7) 0.89971(16) 0.8595(3)
H11_2 H 0.6272 0.9187 0.8066
H12_2 H 0.4945 0.9100 0.8689
C13_2 C 0.8676(9) 0.9081(2) 0.6687(4)
C14_2 C 0.6160(9) 0.9043(2) 0.5816(4)
C15_2 C 0.3608(10) 0.8579(2) 0.4290(5)
H13_2 H 0.3294 0.8285 0.3788
C16_2 C 0.1833(11) 0.8981(2) 0.4169(4)
H14_2 H 0.0351 0.8952 0.3588
C17_2 C 0.4379(9) 0.9442(2) 0.5708(4)
C18_2 C 0.4621(9) 0.9927(2) 0.6465(4)
C19_2 C 0.8350(9) 0.7217(2) 0.7314(4)
C20_2 C 0.5874(9) 0.7475(2) 0.6729(4)
C21_2 C 0.3017(9) 0.8060(2) 0.6908(4)
H15_2 H 0.2586 0.8356 0.7256
C22_2 C 0.1285(9) 0.7815(2) 0.5994(4)
C23_2 C 0.4204(9) 0.7297(2) 0.5731(4)
C24_2 C 0.4750(8) 0.69649(19) 0.4886(4)
Cu2_4 Cu 1.0000 1.0000 0.5000
N1_2 N 0.7781(8) 0.05931(17) 0.5134(3)
N2_2 N 0.4224(9) 0.13935(18) 0.4876(4)
N3_2 N 0.4693(7) 0.21226(16) 0.2701(3)
O1_2 O 0.0853(7) 0.12400(18) 0.2486(3)
O3_2 O 0.3625(8) 0.00483(17) 0.2674(3)
O5_2 O 0.0216(7) 0.24956(15) 0.1899(3)
O6_2 O 0.1238(8) 0.32521(15) 0.2966(4)
O10_2 O 0.3796(7) 0.10029(16) 0.1405(3)
H3_2 H 0.3728 0.0813 0.1934
H4_2 H 0.5055 0.0900 0.1311
C1_2 C 0.1324(9) 0.0919(2) 0.3313(4)
C2_2 C 0.3840(9) 0.0957(2) 0.4184(4)
C3_2 C 0.6392(10) 0.1421(2) 0.5710(5)
H5_2 H 0.6706 0.1715 0.6212
C4_2 C 0.8167(11) 0.1019(2) 0.5831(4)
H6_2 H 0.9649 0.1048 0.6412
C5_2 C 0.5621(9) 0.0558(2) 0.4292(4)
C6_2 C 0.5379(9) 0.0073(2) 0.3535(4)
C7_2 C 0.1650(9) 0.2783(2) 0.2686(4)
C8_2 C 0.4126(9) 0.2525(2) 0.3271(4)
C9_2 C 0.6983(9) 0.1940(2) 0.3092(4)
H7_2 H 0.7414 0.1644 0.2744
C10_2 C 0.8715(9) 0.2185(2) 0.4006(4)
C11_2 C 0.5796(9) 0.2703(2) 0.4269(4)
C12_2 C 0.5250(8) 0.30351(19) 0.5114(4)
O21 O 0.9876(7) 0.06026(18) 0.3473(3)
O4_2 O 0.7085(6) 0.97055(14) 0.3860(3)
H16_2 H 0.9685 0.7926 0.5785
O9_2 O 0.9554(9) 0.1214(2) 0.9513(4)
H1_2 H 0.8746 0.1192 0.8834
H10_2 H 0.9618 0.9092 0.0293
H2_2 H 0.0382 0.0908 0.9707
loop_
_geom_bond_atom_site_label_1
_geom_bond_atom_site_label_2
_geom_bond_site_symmetry_1
_geom_bond_site_symmetry_2
H1 O9 1_555 1_555
Cu3 O2 1_555 1_555
Yb1 N3 1_555 1_555
N2 C2 1_555 1_555
N3 C8 1_555 1_555
N4 C10 1_555 1_555
O1 Yb1 1_555 1_555
O3 C6 1_555 1_555
O4 Cu3 1_555 1_555
O5 Yb1 1_555 1_555
O6 C7 1_555 1_555
O10 Yb1 1_555 1_555
H3 O10 1_555 1_555
H4 O10 1_555 1_555
C1 O1 1_555 1_555
C2 C1 1_555 1_555
C6 O4 1_555 1_555
C7 O5 1_555 1_555
C8 C7 1_555 1_555
C9 N3 1_555 1_555
H7 C9 1_555 1_555
C10 C9 1_555 1_555
C11 N4 1_555 1_555
O24 Yb1 1_555 1_555
C2 C5 1_555 1_555
C5 C6 1_555 1_555
C8 C11 1_555 1_555
Cu3_2 N1 1_555 1_555
N1 C4 1_555 1_555
O7 C12 1_555 1_555
O8 C12 1_555 1_555
H5 C3 1_555 1_555
C4 C3 1_555 1_555
H6 C4 1_555 1_555
Yb6 O7 1_555 1_555
N5 Cu3_3 1_555 1_555
O17 C24 1_555 1_555
O18 C24 1_555 1_555
H13 C15 1_555 1_555
C16 N5 1_555 1_555
H14 C16 1_555 1_555
Yb4 O17 1_555 1_555
C15 C16 1_555 1_555
Yb2 N7 1_555 1_555
N6 C14 1_555 1_555
N7 C20 1_555 1_555
N8 C22 1_555 1_555
O11 Yb2 1_555 1_555
O13 C18 1_555 1_555
O14 Cu3_4 1_555 1_555
O15 Yb2 1_555 1_555
O16 C19 1_555 1_555
O20 Yb2 1_555 1_555
H11 O20 1_555 1_555
H12 O20 1_555 1_555
C13 O11 1_555 1_555
C14 C13 1_555 1_555
C18 O14 1_555 1_555
C19 O15 1_555 1_555
C20 C19 1_555 1_555
C21 N7 1_555 1_555
H15 C21 1_555 1_555
C22 C21 1_555 1_555
C23 N8 1_555 1_555
O22 Cu3_4 1_555 1_555
O23 Yb2 1_555 1_555
C14 C17 1_555 1_555
C17 C18 1_555 1_555
C20 C23 1_555 1_555
H9 O19 1_555 1_555
H9_2 O19_2 1_555 1_555
Cu2_2 O12 1_555 1_555
O14_2 Cu2 1_555 1_555
Yb6 N7_2 1_555 1_555
N5_2 Cu2_2 1_555 1_555
N6_2 C14_2 1_555 1_555
N7_2 C20_2 1_555 1_555
N10 C22_2 1_555 1_555
O11_2 Yb6 1_555 1_555
O13_2 C18_2 1_555 1_555
O15_2 Yb6 1_555 1_555
O16_2 C19_2 1_555 1_555
O24 C24_2 1_555 1_555
O26 C24_2 1_555 1_555
O20_2 Yb6 1_555 1_555
H11_2 O20_2 1_555 1_555
H12_2 O20_2 1_555 1_555
C13_2 O11_2 1_555 1_555
C14_2 C13_2 1_555 1_555
C15_2 N6_2 1_555 1_555
H13_2 C15_2 1_555 1_555
C16_2 N5_2 1_555 1_555
H14_2 C16_2 1_555 1_555
C17_2 N5_2 1_555 1_555
C19_2 O15_2 1_555 1_555
C20_2 C19_2 1_555 1_555
C21_2 N7_2 1_555 1_555
H15_2 C21_2 1_555 1_555
C22_2 C21_2 1_555 1_555
C23_2 N10 1_555 1_555
C24_2 C23_2 1_555 1_555
C14_2 C17_2 1_555 1_555
C15_2 C16_2 1_555 1_555
C17_2 C18_2 1_555 1_555
C20_2 C23_2 1_555 1_555
Cu2_3 N1_2 1_555 1_555
Yb4 N3_2 1_555 1_555
N1_2 C4_2 1_555 1_555
N2_2 C2_2 1_555 1_555
N3_2 C8_2 1_555 1_555
N9 C10_2 1_555 1_555
O1_2 Yb4 1_555 1_555
O3_2 C6_2 1_555 1_555
O5_2 Yb4 1_555 1_555
O6_2 C7_2 1_555 1_555
O23 C12_2 1_555 1_555
O25 C12_2 1_555 1_555
O10_2 Yb4 1_555 1_555
H3_2 O10_2 1_555 1_555
H4_2 O10_2 1_555 1_555
C1_2 O1_2 1_555 1_555
C2_2 C1_2 1_555 1_555
C3_2 N2_2 1_555 1_555
H5_2 C3_2 1_555 1_555
C4_2 C3_2 1_555 1_555
H6_2 C4_2 1_555 1_555
C5_2 N1_2 1_555 1_555
C7_2 O5_2 1_555 1_555
C8_2 C7_2 1_555 1_555
C9_2 N3_2 1_555 1_555
H7_2 C9_2 1_555 1_555
C10_2 C9_2 1_555 1_555
C11_2 N9 1_555 1_555
C12_2 C11_2 1_555 1_555
O21 Cu2_3 1_555 1_555
C2_2 C5_2 1_555 1_555
C5_2 C6_2 1_555 1_555
C8_2 C11_2 1_555 1_555
O4_2 Cu2_4 1_555 1_555
H1_2 O9_2 1_555 1_555

#END
