
###############################################################################
#
# This file contains modified crystal structure data generated from the
# MOF subset of the Cambridge Structural Database (CSD) v543 
# hosted by the Cambridge Crystallographic Data Centre (CCDC).
#
# This work is licensed under the Creative Commons
# Attribution-NonCommercial-ShareAlike 4.0 International License.
# To view a copy of this license, visit
# http://creativecommons.org/licenses/by-nc-sa/4.0/
# or send a letter to
# Creative Commons, PO Box 1866, Mountain View, CA 94042, USA.
#
# CIF created using the CSD Python API on 29 September 2022
# The structure has been converted into the P1 space group
# The structure has a 3D framework
# The original CSD entry POKSIT is in the monoclinic crystal system
# The framework has been calculated to contain at least 10.0% void space
# The void calculation uses a probe of radius 1.32A, grid spacing 0.4
#
###############################################################################

data_POKSIT
_chemical_formula_moiety         '(C48 H32 Cu8 N16 O36 Tm4)n'
_symmetry_cell_setting           triclinic
_symmetry_space_group_name_H-M   'P 1'
_symmetry_Int_Tables_number      1
_space_group_name_Hall           'P 1'
loop_
_symmetry_equiv_pos_site_id
_symmetry_equiv_pos_as_xyz
1 x,y,z
_cell_length_a                   6.0408(8)
_cell_length_b                   23.577(3)
_cell_length_c                   13.3379(15)
_cell_angle_alpha                90
_cell_angle_beta                 112.745(5)
_cell_angle_gamma                90
_cell_volume                     1751.91
loop_
_atom_site_label
_atom_site_type_symbol
_atom_site_fract_x
_atom_site_fract_y
_atom_site_fract_z
O4 O 0.0410(10) 0.3768(2) 0.0525(5)
H4 H 0.1528 0.3548 0.0914
N10 N 0.1838(8) 0.25652(19) 0.0401(4)
O6 O 0.0083(9) 0.4387(2) 0.6502(4)
Cu3 Cu 0.0000 0.5000 0.5000
O26 O 0.3123(8) 0.33738(17) 0.9312(4)
Tm1 Tm 0.90044(4) 0.328546(10) 0.890271(19)
O1 O 0.6381(9) 0.4949(2) 0.7308(4)
O2 O 0.6147(9) 0.40043(19) 0.8602(4)
H1 H 0.4647 0.3941 0.8371
H2 H 0.6420 0.4178 0.8103
O3 O 0.2907(7) 0.52879(17) 0.6127(4)
O5 O 0.9085(9) 0.3747(2) 0.7474(4)
O7 O 0.9726(8) 0.25086(18) 0.8094(4)
O8 O 0.8681(9) 0.17401(17) 0.7044(4)
O9 O 0.6662(7) 0.20657(17) 0.4783(3)
O10 O 0.3123(8) 0.16262(17) 0.4312(4)
N1 N 0.2211(9) 0.44057(19) 0.4865(4)
N2 N 0.5733(10) 0.3604(2) 0.5086(5)
N3 N 0.5272(8) 0.28774(19) 0.7297(4)
N4 N 0.1838(8) 0.24348(19) 0.5401(4)
C1 C 0.3598(13) 0.3578(3) 0.4269(6)
H5 H 0.3279 0.3285 0.3766
C2 C 0.1797(13) 0.3988(3) 0.4151(5)
H6 H 0.0319 0.3963 0.3571
C3 C 0.4348(11) 0.4438(2) 0.5691(5)
C4 C 0.4623(11) 0.4921(2) 0.6459(5)
C5 C 0.6119(10) 0.4043(2) 0.5794(5)
C6 C 0.2982(10) 0.3062(2) 0.6907(5)
H7 H 0.2550 0.3358 0.7255
C7 C 0.1257(10) 0.2816(2) 0.5988(5)
C8 C 0.4169(10) 0.2300(2) 0.5724(5)
C9 C 0.5835(11) 0.2480(2) 0.6724(5)
C10 C 0.8286(10) 0.2221(2) 0.7312(4)
C11 C 0.4739(10) 0.1964(2) 0.4888(4)
C12 C 0.8643(10) 0.4073(2) 0.6667(5)
H16 H 0.0342 0.7079 0.4218
Tm4 Tm 0.09956(4) 0.828546(10) 0.609729(19)
Tm6 Tm 0.90044(4) 0.171454(10) 0.390271(19)
Cu3_2 Cu 1.0000 0.5000 0.5000
O24 O 0.6662(7) 0.29343(17) 0.9783(3)
H8 H 0.9658 0.2921 0.5782
Tm2 Tm 0.09956(4) 0.671454(10) 0.109729(19)
O11 O 0.3619(9) 0.5051(2) 0.2692(4)
O12 O 0.3853(9) 0.59957(19) 0.1398(4)
H9 H 0.5353 0.6059 0.1629
H10 H 0.3580 0.5822 0.1897
O13 O 0.7093(7) 0.47121(17) 0.3873(4)
O15 O 0.0915(9) 0.6253(2) 0.2526(4)
O17 O 0.0274(8) 0.74914(18) 0.1906(4)
O18 O 0.1319(9) 0.82599(17) 0.2956(4)
O19 O 0.3338(7) 0.79343(17) 0.5217(3)
O20 O 0.6877(8) 0.83738(17) 0.5688(4)
N5 N 0.7789(9) 0.55943(19) 0.5135(4)
N6 N 0.4267(10) 0.6396(2) 0.4914(5)
N7 N 0.4728(8) 0.71226(19) 0.2703(4)
N8 N 0.8162(8) 0.75652(19) 0.4599(4)
C13 C 0.6402(13) 0.6422(3) 0.5731(6)
H13 H 0.6721 0.6715 0.6234
C14 C 0.8203(13) 0.6012(3) 0.5849(5)
H14 H 0.9681 0.6037 0.6429
C15 C 0.5652(11) 0.5562(2) 0.4309(5)
C16 C 0.5377(11) 0.5079(2) 0.3541(5)
C17 C 0.3881(10) 0.5957(2) 0.4206(5)
C18 C 0.7018(10) 0.6938(2) 0.3093(5)
H15 H 0.7450 0.6642 0.2745
C19 C 0.8743(10) 0.7184(2) 0.4012(5)
C20 C 0.5831(10) 0.7700(2) 0.4276(5)
C21 C 0.4165(11) 0.7520(2) 0.3276(5)
C22 C 0.1714(10) 0.7779(2) 0.2688(4)
C23 C 0.5261(10) 0.8036(2) 0.5112(4)
C24 C 0.1357(10) 0.5927(2) 0.3333(5)
O22 O 0.9917(9) 0.5613(2) 0.3498(4)
O23 O 0.3338(7) 0.70657(17) 0.0217(3)
O25 O 0.6877(8) 0.66262(17) 0.0688(4)
O14 O 0.9590(10) 0.6232(2) 0.9475(5)
H12 H 0.8472 0.6452 0.9086
N9 N 0.8162(8) 0.74348(19) 0.9599(4)
O14_2 O 0.0410(10) 0.1232(2) 0.5525(5)
H12_2 H 0.1528 0.1452 0.5914
O16 O 0.0083(9) 0.0613(2) 0.1502(4)
Cu2 Cu 0.0000 0.0000 0.0000
Cu2_2 Cu 0.0000 -0.0000 1.0000
Cu2_3 Cu 0.0000 1.0000 0.0000
Cu2_4 Cu 0.0000 1.0000 1.0000
O11_2 O 0.6381(9) 0.0051(2) 0.2308(4)
O12_2 O 0.6147(9) 0.09957(19) 0.3602(4)
H9_2 H 0.4647 0.1059 0.3371
H10_2 H 0.6420 0.0822 0.3103
H11 H 0.9618 0.1132 0.5902
O15_2 O 0.9085(9) 0.1253(2) 0.2474(4)
O17_2 O 0.9726(8) 0.24914(18) 0.3094(4)
O18_2 O 0.8681(9) 0.32599(17) 0.2044(4)
N6_2 N 0.5733(10) 0.1396(2) 0.0086(5)
N7_2 N 0.5272(8) 0.21226(19) 0.2297(4)
C15_2 C 0.4348(11) 0.0562(2) 0.0691(5)
C16_2 C 0.4623(11) 0.0079(2) 0.1459(5)
C17_2 C 0.6119(10) 0.0957(2) 0.0794(5)
C18_2 C 0.2982(10) 0.1938(2) 0.1907(5)
H15_2 H 0.2550 0.1642 0.2255
C19_2 C 0.1257(10) 0.2184(2) 0.0988(5)
C20_2 C 0.4169(10) 0.2700(2) 0.0724(5)
C21_2 C 0.5835(11) 0.2520(2) 0.1724(5)
C22_2 C 0.8286(10) 0.2779(2) 0.2312(4)
C24_2 C 0.8643(10) 0.0927(2) 0.1667(5)
Cu2_5 Cu 1.0000 0.0000 0.0000
N5_2 N 0.2211(9) 0.05943(19) 0.9865(4)
C13_2 C 0.3598(13) 0.1422(3) 0.9269(6)
H13_2 H 0.3279 0.1715 0.8766
C14_2 C 0.1797(13) 0.1012(3) 0.9151(5)
H14_2 H 0.0319 0.1037 0.8571
C23_2 C 0.4739(10) 0.3036(2) 0.9888(4)
Cu2_6 Cu 1.0000 -0.0000 1.0000
O13_2 O 0.2907(7) 0.97121(17) 0.1127(4)
Cu2_7 Cu 1.0000 1.0000 0.0000
H8_2 H 0.0342 0.7921 0.9218
Cu2_8 Cu 1.0000 1.0000 1.0000
H16_2 H 0.9658 0.2079 0.0782
O3_2 O 0.7093(7) 0.02879(17) 0.8873(4)
N1_2 N 0.7789(9) 0.94057(19) 0.0135(4)
C1_2 C 0.6402(13) 0.8578(3) 0.0731(6)
H5_2 H 0.6721 0.8285 0.1234
C2_2 C 0.8203(13) 0.8988(3) 0.0849(5)
H6_2 H 0.9681 0.8963 0.1429
C11_2 C 0.5261(10) 0.6964(2) 0.0112(4)
O1_2 O 0.3619(9) 0.9949(2) 0.7692(4)
O2_2 O 0.3853(9) 0.90043(19) 0.6398(4)
H1_2 H 0.5353 0.8941 0.6629
H2_2 H 0.3580 0.9178 0.6897
H3 H 0.0382 0.8868 0.4098
O5_2 O 0.0915(9) 0.8747(2) 0.7526(4)
O7_2 O 0.0274(8) 0.75086(18) 0.6906(4)
O8_2 O 0.1319(9) 0.67401(17) 0.7956(4)
N2_2 N 0.4267(10) 0.8604(2) 0.9914(5)
N3_2 N 0.4728(8) 0.78774(19) 0.7703(4)
C3_2 C 0.5652(11) 0.9438(2) 0.9309(5)
C4_2 C 0.5377(11) 0.9921(2) 0.8541(5)
C5_2 C 0.3881(10) 0.9043(2) 0.9206(5)
C6_2 C 0.7018(10) 0.8062(2) 0.8093(5)
H7_2 H 0.7450 0.8358 0.7745
C7_2 C 0.8743(10) 0.7816(2) 0.9012(5)
C8_2 C 0.5831(10) 0.7300(2) 0.9276(5)
C9_2 C 0.4165(11) 0.7480(2) 0.8276(5)
C10_2 C 0.1714(10) 0.7221(2) 0.7688(4)
C12_2 C 0.1357(10) 0.9073(2) 0.8333(5)
O21 O 0.9917(9) 0.9387(2) 0.8498(4)
O4_2 O 0.9590(10) 0.8768(2) 0.4475(5)
H4_2 H 0.8472 0.8548 0.4086
H3_2 H 0.9618 0.3868 0.0902
H11_2 H 0.0382 0.6132 0.9098
loop_
_geom_bond_atom_site_label_1
_geom_bond_atom_site_label_2
_geom_bond_site_symmetry_1
_geom_bond_site_symmetry_2
H4 O4 1_555 1_555
Cu3 O6 1_555 1_555
Tm1 O2 1_555 1_555
Cu3 O3 1_555 1_555
O1 C4 1_555 1_555
O2 H1 1_555 1_555
H2 O2 1_555 1_555
O3 C4 1_555 1_555
O5 Tm1 1_555 1_555
O7 Tm1 1_555 1_555
O8 C10 1_555 1_555
O9 C11 1_555 1_555
O10 C11 1_555 1_555
N1 Cu3 1_555 1_555
N2 C1 1_555 1_555
N3 Tm1 1_555 1_555
N4 C7 1_555 1_555
C1 H5 1_555 1_555
C2 N1 1_555 1_555
H6 C2 1_555 1_555
C3 N1 1_555 1_555
C4 C3 1_555 1_555
C5 N2 1_555 1_555
C6 N3 1_555 1_555
H7 C6 1_555 1_555
C7 C6 1_555 1_555
C8 N4 1_555 1_555
C9 N3 1_555 1_555
C10 O7 1_555 1_555
C11 C8 1_555 1_555
C12 O5 1_555 1_555
Tm6 O9 1_555 1_555
O24 Tm1 1_555 1_555
C1 C2 1_555 1_555
C3 C5 1_555 1_555
C5 C12 1_555 1_555
C8 C9 1_555 1_555
C9 C10 1_555 1_555
Tm2 O12 1_555 1_555
O11 C16 1_555 1_555
O12 H9 1_555 1_555
H10 O12 1_555 1_555
O13 Cu3_2 1_555 1_555
O15 Tm2 1_555 1_555
O17 Tm2 1_555 1_555
O18 C22 1_555 1_555
O19 C23 1_555 1_555
O20 C23 1_555 1_555
N5 Cu3_2 1_555 1_555
N6 C13 1_555 1_555
N7 Tm2 1_555 1_555
N8 C19 1_555 1_555
C13 H13 1_555 1_555
C14 N5 1_555 1_555
H14 C14 1_555 1_555
C15 N5 1_555 1_555
C16 O13 1_555 1_555
C17 N6 1_555 1_555
C18 N7 1_555 1_555
H15 C18 1_555 1_555
C19 C18 1_555 1_555
C20 N8 1_555 1_555
C21 N7 1_555 1_555
C22 O17 1_555 1_555
C23 C20 1_555 1_555
C24 O15 1_555 1_555
Tm4 O19 1_555 1_555
O22 Cu3_2 1_555 1_555
O23 Tm2 1_555 1_555
C13 C14 1_555 1_555
C15 C16 1_555 1_555
C15 C17 1_555 1_555
C17 C24 1_555 1_555
C20 C21 1_555 1_555
C21 C22 1_555 1_555
H12 O14 1_555 1_555
H12_2 O14_2 1_555 1_555
Cu2 O16 1_555 1_555
Tm6 O12_2 1_555 1_555
O11_2 C16_2 1_555 1_555
O12_2 H9_2 1_555 1_555
H10_2 O12_2 1_555 1_555
O15_2 Tm6 1_555 1_555
O17_2 Tm6 1_555 1_555
O18_2 C22_2 1_555 1_555
N7_2 Tm6 1_555 1_555
N10 C19_2 1_555 1_555
C17_2 N6_2 1_555 1_555
C18_2 N7_2 1_555 1_555
H15_2 C18_2 1_555 1_555
C19_2 C18_2 1_555 1_555
C20_2 N10 1_555 1_555
C21_2 N7_2 1_555 1_555
C22_2 O17_2 1_555 1_555
C24_2 O15_2 1_555 1_555
C15_2 C16_2 1_555 1_555
C15_2 C17_2 1_555 1_555
C17_2 C24_2 1_555 1_555
C20_2 C21_2 1_555 1_555
C21_2 C22_2 1_555 1_555
O24 C23_2 1_555 1_555
O26 C23_2 1_555 1_555
N5_2 Cu2_2 1_555 1_555
C13_2 H13_2 1_555 1_555
C14_2 N5_2 1_555 1_555
H14_2 C14_2 1_555 1_555
C13_2 C14_2 1_555 1_555
O13_2 Cu2_3 1_555 1_555
Cu2_6 O3_2 1_555 1_555
O23 C11_2 1_555 1_555
O25 C11_2 1_555 1_555
N1_2 Cu2_7 1_555 1_555
C1_2 H5_2 1_555 1_555
C2_2 N1_2 1_555 1_555
H6_2 C2_2 1_555 1_555
C1_2 C2_2 1_555 1_555
Tm4 O2_2 1_555 1_555
O1_2 C4_2 1_555 1_555
O2_2 H1_2 1_555 1_555
H2_2 O2_2 1_555 1_555
O5_2 Tm4 1_555 1_555
O7_2 Tm4 1_555 1_555
O8_2 C10_2 1_555 1_555
N3_2 Tm4 1_555 1_555
N9 C7_2 1_555 1_555
C4_2 C3_2 1_555 1_555
C5_2 N2_2 1_555 1_555
C6_2 N3_2 1_555 1_555
H7_2 C6_2 1_555 1_555
C7_2 C6_2 1_555 1_555
C8_2 N9 1_555 1_555
C9_2 N3_2 1_555 1_555
C10_2 O7_2 1_555 1_555
C12_2 O5_2 1_555 1_555
O21 Cu2_8 1_555 1_555
C3_2 C5_2 1_555 1_555
C5_2 C12_2 1_555 1_555
C8_2 C9_2 1_555 1_555
C9_2 C10_2 1_555 1_555
H4_2 O4_2 1_555 1_555

#END
