
###############################################################################
#
# This file contains modified crystal structure data generated from the
# MOF subset of the Cambridge Structural Database (CSD) v543 
# hosted by the Cambridge Crystallographic Data Centre (CCDC).
#
# This work is licensed under the Creative Commons
# Attribution-NonCommercial-ShareAlike 4.0 International License.
# To view a copy of this license, visit
# http://creativecommons.org/licenses/by-nc-sa/4.0/
# or send a letter to
# Creative Commons, PO Box 1866, Mountain View, CA 94042, USA.
#
# CIF created using the CSD Python API on 29 September 2022
# The structure has been converted into the P1 space group
# The structure has a 3D framework
# The original CSD entry POKTUG is in the monoclinic crystal system
# The framework has been calculated to contain at least 10.0% void space
# The void calculation uses a probe of radius 1.32A, grid spacing 0.4
#
###############################################################################

data_POKTUG
_chemical_formula_moiety         '(C48 H32 Cu3 Ho4 N16 O36)n'
_symmetry_cell_setting           triclinic
_symmetry_space_group_name_H-M   'P 1'
_symmetry_Int_Tables_number      1
_space_group_name_Hall           'P 1'
loop_
_symmetry_equiv_pos_site_id
_symmetry_equiv_pos_as_xyz
1 x,y,z
_cell_length_a                   6.0812(8)
_cell_length_b                   23.472(3)
_cell_length_c                   13.3830(16)
_cell_angle_alpha                90
_cell_angle_beta                 112.621(5)
_cell_angle_gamma                90
_cell_volume                     1763.3
loop_
_atom_site_label
_atom_site_type_symbol
_atom_site_fract_x
_atom_site_fract_y
_atom_site_fract_z
Cu3 Cu 0.5000 -0.0000 0.0000
Cu3_2 Cu 0.5000 -0.0000 1.0000
Ho1 Ho 0.39952(5) 0.831002(16) 0.39083(3)
O2 O 0.1389(10) 0.9957(2) 0.2282(5)
O3 O 0.5014(9) 0.9374(3) 0.1463(5)
O4 O 0.3973(9) 0.8726(2) 0.2404(5)
O7 O 0.3582(10) 0.6730(2) 0.2051(4)
O8 O 0.4667(9) 0.7501(2) 0.3092(4)
O9 O 0.1043(11) 0.9009(2) 0.3592(5)
H1 H 0.0608 0.9364 0.3483
H2 H 0.0648 0.8853 0.4072
O10 O 0.5356(10) 0.8756(3) 0.5612(5)
H3 H 0.6712 0.8602 0.5761
H4 H 0.4732 0.8604 0.6017
N2 N 0.0658(12) 0.8602(3) 0.0039(6)
N4 N 0.0197(10) 0.7880(2) 0.2296(5)
C5 C 0.1077(12) 0.9035(3) 0.0749(6)
C6 C 0.3568(13) 0.9055(3) 0.1628(7)
C11 C 0.0783(12) 0.7482(3) 0.1734(5)
C12 C 0.3220(13) 0.7218(3) 0.2321(6)
Cu3_3 Cu 0.5000 1.0000 0.0000
O24 O 0.8115(8) 0.8377(2) 0.4323(4)
O26 O 0.1631(8) 0.7936(2) 0.4790(4)
N10 N 0.6835(10) 0.7561(3) 0.5398(5)
O6 O 0.1631(8) 0.7064(2) 0.9790(4)
Cu3_4 Cu 0.5000 1.0000 1.0000
Ho6 Ho 0.39952(5) 0.668998(16) 0.89083(3)
O1 O 0.7894(9) 0.0284(2) 0.1139(4)
O15 O 0.1885(8) 0.3377(2) 0.0677(4)
N5 N 0.2808(10) 0.0596(3) 0.0157(5)
C15 C 0.3212(14) 0.1015(3) 0.0860(7)
H13 H 0.4680 0.1041 0.1435
C16 C 0.1467(15) 0.1418(4) 0.0752(7)
H14 H 0.1807 0.1713 0.1253
C19 C 0.0264(11) 0.3039(3) 0.0103(5)
Ho4 Ho 0.60048(5) 0.331002(16) 0.10917(3)
N7 N 0.3165(10) 0.2561(3) 0.9602(5)
C13 C 0.0378(13) 0.0074(3) 0.8561(6)
C14 C 0.0701(12) 0.0564(3) 0.9340(6)
C20 C 0.0855(12) 0.2702(3) 0.9271(6)
C21 C 0.3760(13) 0.2174(3) 0.9015(6)
H15 H 0.5346 0.2066 0.9223
C22 C 0.2032(13) 0.1929(3) 0.8095(6)
H16 H 0.2449 0.1628 0.7751
O22 O 0.4986(9) 0.0626(3) 0.8537(5)
N3 N 0.6835(10) 0.7439(3) 0.0398(5)
C1 C 0.9622(13) 0.9926(3) 0.1439(6)
C2 C 0.9299(12) 0.9436(3) 0.0660(6)
C8 C 0.9145(12) 0.7298(3) 0.0729(6)
C9 C 0.6240(13) 0.7826(3) 0.0985(6)
H7 H 0.4654 0.7934 0.0777
C10 C 0.7968(13) 0.8071(3) 0.1905(6)
H8 H 0.7551 0.8372 0.2249
O5 O 0.8115(8) 0.6623(2) 0.9323(4)
N1 N 0.7192(10) 0.9404(3) 0.9843(5)
C3 C 0.6788(14) 0.8985(3) 0.9140(7)
H5 H 0.5320 0.8959 0.8565
C4 C 0.8533(15) 0.8582(4) 0.9248(7)
H6 H 0.8193 0.8287 0.8747
C7 C 0.9736(11) 0.6961(3) 0.9897(5)
O11 O 0.2106(9) 0.9716(2) 0.8861(4)
O16 O 0.8369(8) 0.2936(2) 0.0210(4)
Ho2 Ho 0.60048(5) 0.168998(16) 0.60917(3)
O12 O 0.8611(10) 0.0043(2) 0.7718(5)
O14 O 0.6027(9) 0.1274(2) 0.7596(5)
O17 O 0.6418(10) 0.3270(2) 0.7949(4)
O18 O 0.5333(9) 0.2499(2) 0.6908(4)
O19 O 0.8957(11) 0.0991(2) 0.6408(5)
H9 H 0.9392 0.0636 0.6517
H10 H 0.9352 0.1147 0.5928
O20 O 0.4644(10) 0.1244(3) 0.4388(5)
H11 H 0.3288 0.1398 0.4239
H12 H 0.5268 0.1396 0.3983
N6 N 0.9342(12) 0.1398(3) 0.9961(6)
N8 N 0.9803(10) 0.2120(2) 0.7704(5)
C17 C 0.8923(12) 0.0965(3) 0.9251(6)
C18 C 0.6432(13) 0.0945(3) 0.8372(7)
C23 C 0.9217(12) 0.2518(3) 0.8266(5)
C24 C 0.6780(13) 0.2782(3) 0.7679(6)
O23 O 0.1885(8) 0.1623(2) 0.5677(4)
O25 O 0.8369(8) 0.2064(2) 0.5210(4)
N9 N 0.3165(10) 0.2439(3) 0.4602(5)
O20_2 O 0.5356(10) 0.6244(3) 0.0612(5)
H11_2 H 0.6712 0.6398 0.0761
H12_2 H 0.4732 0.6396 0.1017
O12_2 O 0.1389(10) 0.5043(2) 0.7282(5)
O13 O 0.5014(9) 0.5626(3) 0.6463(5)
O14_2 O 0.3973(9) 0.6274(2) 0.7404(5)
O17_2 O 0.3582(10) 0.8270(2) 0.7051(4)
O18_2 O 0.4667(9) 0.7499(2) 0.8092(4)
O19_2 O 0.1043(11) 0.5991(2) 0.8592(5)
H9_2 H 0.0608 0.5636 0.8483
H10_2 H 0.0648 0.6147 0.9072
N6_2 N 0.0658(12) 0.6398(3) 0.5039(6)
N8_2 N 0.0197(10) 0.7120(2) 0.7296(5)
C17_2 C 0.1077(12) 0.5965(3) 0.5749(6)
C18_2 C 0.3568(13) 0.5945(3) 0.6628(7)
C23_2 C 0.0783(12) 0.7518(3) 0.6734(5)
C24_2 C 0.3220(13) 0.7782(3) 0.7321(6)
Cu2 Cu 0.5000 0.5000 0.5000
O1_2 O 0.2106(9) 0.5284(2) 0.3861(4)
N1_2 N 0.2808(10) 0.4404(3) 0.5157(5)
C1_2 C 0.0378(13) 0.4926(3) 0.3561(6)
C2_2 C 0.0701(12) 0.4436(3) 0.4340(6)
C3_2 C 0.3212(14) 0.3985(3) 0.5860(7)
H5_2 H 0.4680 0.3959 0.6435
C4_2 C 0.1467(15) 0.3582(4) 0.5752(7)
H6_2 H 0.1807 0.3287 0.6253
C7_2 C 0.0264(11) 0.1961(3) 0.5103(5)
C8_2 C 0.0855(12) 0.2298(3) 0.4271(6)
C9_2 C 0.3760(13) 0.2826(3) 0.4015(6)
H7_2 H 0.5346 0.2934 0.4223
C10_2 C 0.2032(13) 0.3071(3) 0.3095(6)
H8_2 H 0.2449 0.3372 0.2751
O11_2 O 0.7894(9) 0.4716(2) 0.6139(4)
N5_2 N 0.7192(10) 0.5596(3) 0.4843(5)
C13_2 C 0.9622(13) 0.5074(3) 0.6439(6)
C14_2 C 0.9299(12) 0.5564(3) 0.5660(6)
C15_2 C 0.6788(14) 0.6015(3) 0.4140(7)
H13_2 H 0.5320 0.6041 0.3565
C16_2 C 0.8533(15) 0.6418(4) 0.4248(7)
H14_2 H 0.8193 0.6713 0.3747
C19_2 C 0.9736(11) 0.8039(3) 0.4897(5)
C20_2 C 0.9145(12) 0.7702(3) 0.5729(6)
C21_2 C 0.6240(13) 0.7174(3) 0.5985(6)
H15_2 H 0.4654 0.7066 0.5777
C22_2 C 0.7968(13) 0.6929(3) 0.6905(6)
H16_2 H 0.7551 0.6628 0.7249
O21 O 0.4986(9) 0.4374(3) 0.3537(5)
O2_2 O 0.8611(10) 0.4957(2) 0.2718(5)
O4_2 O 0.6027(9) 0.3726(2) 0.2596(5)
O7_2 O 0.6418(10) 0.1730(2) 0.2949(4)
O8_2 O 0.5333(9) 0.2501(2) 0.1908(4)
O9_2 O 0.8957(11) 0.4009(2) 0.1408(5)
H1_2 H 0.9392 0.4364 0.1517
H2_2 H 0.9352 0.3853 0.0928
N2_2 N 0.9342(12) 0.3602(3) 0.4961(6)
N4_2 N 0.9803(10) 0.2880(2) 0.2704(5)
C5_2 C 0.8923(12) 0.4035(3) 0.4251(6)
C6_2 C 0.6432(13) 0.4055(3) 0.3372(7)
C11_2 C 0.9217(12) 0.2482(3) 0.3266(5)
C12_2 C 0.6780(13) 0.2218(3) 0.2679(6)
O10_2 O 0.4644(10) 0.3756(3) 0.9388(5)
H3_2 H 0.3288 0.3602 0.9239
H4_2 H 0.5268 0.3604 0.8983
loop_
_geom_bond_atom_site_label_1
_geom_bond_atom_site_label_2
_geom_bond_site_symmetry_1
_geom_bond_site_symmetry_2
Ho1 O4 1_555 1_555
O3 C6 1_555 1_555
O4 C6 1_555 1_555
O7 C12 1_555 1_555
O8 Ho1 1_555 1_555
O9 Ho1 1_555 1_555
H1 O9 1_555 1_555
H2 O9 1_555 1_555
O10 Ho1 1_555 1_555
H3 O10 1_555 1_555
H4 O10 1_555 1_555
N4 Ho1 1_555 1_555
C5 N2 1_555 1_555
C6 C5 1_555 1_555
C11 N4 1_555 1_555
C12 O8 1_555 1_555
Cu3_3 O3 1_555 1_555
O24 Ho1 1_555 1_555
O26 Ho1 1_555 1_555
N10 Ho1 1_555 1_555
C11 C12 1_555 1_555
Ho6 O6 1_555 1_555
Cu3 O1 1_555 1_555
O15 C19 1_555 1_555
N5 Cu3 1_555 1_555
C15 N5 1_555 1_555
H13 C15 1_555 1_555
C16 C15 1_555 1_555
H14 C16 1_555 1_555
Ho4 O15 1_555 1_555
N7 C20 1_555 1_555
C21 N7 1_555 1_555
H15 C21 1_555 1_555
H16 C22 1_555 1_555
O22 Cu3_2 1_555 1_555
C13 C14 1_555 1_555
C21 C22 1_555 1_555
N3 C8 1_555 1_555
C1 C2 1_555 1_555
C9 N3 1_555 1_555
H7 C9 1_555 1_555
H8 C10 1_555 1_555
C9 C10 1_555 1_555
O5 C7 1_555 1_555
N1 Cu3_4 1_555 1_555
C3 N1 1_555 1_555
H5 C3 1_555 1_555
C4 C3 1_555 1_555
H6 C4 1_555 1_555
O11 Cu3_4 1_555 1_555
Ho6 O5 1_555 1_555
Ho4 O16 1_555 1_555
Ho2 O14 1_555 1_555
O22 C18 1_555 1_555
O14 C18 1_555 1_555
O17 C24 1_555 1_555
O18 Ho2 1_555 1_555
O19 Ho2 1_555 1_555
H9 O19 1_555 1_555
H10 O19 1_555 1_555
O20 Ho2 1_555 1_555
H11 O20 1_555 1_555
H12 O20 1_555 1_555
N8 Ho2 1_555 1_555
C17 N6 1_555 1_555
C18 C17 1_555 1_555
C23 N8 1_555 1_555
C24 O18 1_555 1_555
O23 Ho2 1_555 1_555
O25 Ho2 1_555 1_555
N9 Ho2 1_555 1_555
C23 C24 1_555 1_555
H11_2 O20_2 1_555 1_555
H12_2 O20_2 1_555 1_555
Ho6 O14_2 1_555 1_555
O13 C18_2 1_555 1_555
O14_2 C18_2 1_555 1_555
O17_2 C24_2 1_555 1_555
O18_2 Ho6 1_555 1_555
O19_2 Ho6 1_555 1_555
H9_2 O19_2 1_555 1_555
H10_2 O19_2 1_555 1_555
N8_2 Ho6 1_555 1_555
C17_2 N6_2 1_555 1_555
C18_2 C17_2 1_555 1_555
C23_2 N8_2 1_555 1_555
C24_2 O18_2 1_555 1_555
Cu2 O13 1_555 1_555
C23_2 C24_2 1_555 1_555
Cu2 O1_2 1_555 1_555
O1_2 C1_2 1_555 1_555
O23 C7_2 1_555 1_555
N1_2 Cu2 1_555 1_555
N9 C8_2 1_555 1_555
C1_2 C2_2 1_555 1_555
C2_2 N1_2 1_555 1_555
C3_2 N1_2 1_555 1_555
H5_2 C3_2 1_555 1_555
C4_2 C3_2 1_555 1_555
H6_2 C4_2 1_555 1_555
C7_2 C8_2 1_555 1_555
C9_2 N9 1_555 1_555
H7_2 C9_2 1_555 1_555
H8_2 C10_2 1_555 1_555
O11_2 Cu2 1_555 1_555
O24 C19_2 1_555 1_555
N5_2 Cu2 1_555 1_555
N10 C20_2 1_555 1_555
C13_2 O11_2 1_555 1_555
C14_2 N5_2 1_555 1_555
C15_2 N5_2 1_555 1_555
H13_2 C15_2 1_555 1_555
C16_2 C15_2 1_555 1_555
H14_2 C16_2 1_555 1_555
C19_2 C20_2 1_555 1_555
C21_2 N10 1_555 1_555
H15_2 C21_2 1_555 1_555
H16_2 C22_2 1_555 1_555
O21 Cu2 1_555 1_555
C9_2 C10_2 1_555 1_555
C13_2 C14_2 1_555 1_555
C21_2 C22_2 1_555 1_555
Ho4 O4_2 1_555 1_555
O21 C6_2 1_555 1_555
O4_2 C6_2 1_555 1_555
O7_2 C12_2 1_555 1_555
O8_2 Ho4 1_555 1_555
O9_2 Ho4 1_555 1_555
H1_2 O9_2 1_555 1_555
H2_2 O9_2 1_555 1_555
N4_2 Ho4 1_555 1_555
C5_2 N2_2 1_555 1_555
C6_2 C5_2 1_555 1_555
C11_2 N4_2 1_555 1_555
C12_2 O8_2 1_555 1_555
C11_2 C12_2 1_555 1_555
H3_2 O10_2 1_555 1_555
H4_2 O10_2 1_555 1_555

#END
