
###############################################################################
#
# This file contains modified crystal structure data generated from the
# MOF subset of the Cambridge Structural Database (CSD) v543 
# hosted by the Cambridge Crystallographic Data Centre (CCDC).
#
# This work is licensed under the Creative Commons
# Attribution-NonCommercial-ShareAlike 4.0 International License.
# To view a copy of this license, visit
# http://creativecommons.org/licenses/by-nc-sa/4.0/
# or send a letter to
# Creative Commons, PO Box 1866, Mountain View, CA 94042, USA.
#
# CIF created using the CSD Python API on 29 September 2022
# The structure has been converted into the P1 space group
# The structure has a 3D framework
# The original CSD entry POKVAO is in the monoclinic crystal system
# The framework has been calculated to contain at least 10.0% void space
# The void calculation uses a probe of radius 1.32A, grid spacing 0.4
#
###############################################################################

data_POKVAO
_chemical_formula_moiety         '(C48 H32 Cu7 Gd4 N16 O37)n'
_symmetry_cell_setting           triclinic
_symmetry_space_group_name_H-M   'P 1'
_symmetry_Int_Tables_number      1
_space_group_name_Hall           'P 1'
loop_
_symmetry_equiv_pos_site_id
_symmetry_equiv_pos_as_xyz
1 x,y,z
_cell_length_a                   6.0407(6)
_cell_length_b                   23.580(2)
_cell_length_c                   13.3410(12)
_cell_angle_alpha                90
_cell_angle_beta                 112.797(4)
_cell_angle_gamma                90
_cell_volume                     1751.84
loop_
_atom_site_label
_atom_site_type_symbol
_atom_site_fract_x
_atom_site_fract_y
_atom_site_fract_z
O20 O 0.0456(12) 0.3768(3) 0.0524(6)
H11 H 0.0703 0.3574 0.1095
N10 N 0.1869(10) 0.2574(2) 0.0407(5)
Cu1 Cu 0.0000 0.5000 0.5000
H5 H 0.0330 0.7076 0.4249
O16 O 0.0095(10) 0.4383(2) 0.6505(5)
Gd6 Gd 0.09826(5) 0.828614(13) 0.60983(2)
O23 O 0.3123(9) 0.3371(2) 0.9309(5)
O26 O 0.2917(9) 0.5290(2) 0.6133(5)
N9 N 0.2221(11) 0.4407(3) 0.4872(5)
Gd1 Gd 0.09826(5) 0.671386(13) 0.10983(2)
Cu1_2 Cu 1.0000 0.5000 0.5000
O1 O 0.0252(9) 0.7495(2) 0.1908(4)
O2 O 0.1303(11) 0.8258(2) 0.2959(5)
O3 O 0.3320(8) 0.7931(2) 0.5224(4)
O4 O 0.6877(9) 0.8371(2) 0.5691(5)
O5 O 0.0901(10) 0.6253(3) 0.2535(5)
O7 O 0.3612(12) 0.5052(3) 0.2696(5)
O8 O 0.7083(9) 0.4710(2) 0.3867(5)
O9 O 0.3823(11) 0.5997(2) 0.1397(5)
H1 H 0.5324 0.6029 0.1559
H2 H 0.3626 0.5767 0.1846
N1 N 0.7779(11) 0.5593(3) 0.5128(5)
N2 N 0.4270(12) 0.6399(3) 0.4915(6)
N3 N 0.4709(10) 0.7122(2) 0.2701(5)
N4 N 0.8131(10) 0.7574(2) 0.4593(5)
C1 C 0.1678(13) 0.7780(3) 0.2684(6)
C2 C 0.4143(13) 0.7523(3) 0.3279(6)
C3 C 0.5835(12) 0.7703(3) 0.4278(6)
C4 C 0.8733(13) 0.7186(3) 0.4027(6)
C5 C 0.6988(13) 0.6937(3) 0.3091(6)
H6 H 0.7423 0.6642 0.2741
C6 C 0.5259(12) 0.8031(3) 0.5107(5)
C7 C 0.1342(12) 0.5929(3) 0.3334(6)
C8 C 0.3859(13) 0.5957(3) 0.4204(6)
C9 C 0.6402(15) 0.6415(3) 0.5737(7)
H7 H 0.6718 0.6702 0.6251
C10 C 0.8177(16) 0.6014(3) 0.5849(7)
H8 H 0.9652 0.6039 0.6432
C11 C 0.5634(14) 0.5558(3) 0.4312(6)
C12 C 0.5383(14) 0.5080(3) 0.3549(7)
Gd2 Gd 0.90174(5) 0.328614(13) 0.89017(2)
O11 O 0.9748(9) 0.2505(2) 0.8092(4)
O12 O 0.8697(11) 0.1742(2) 0.7041(5)
O13 O 0.6680(8) 0.2069(2) 0.4776(4)
O14 O 0.3123(9) 0.1629(2) 0.4309(5)
O15 O 0.9099(10) 0.3747(3) 0.7465(5)
O17 O 0.6388(12) 0.4948(3) 0.7304(5)
O19 O 0.6177(11) 0.4003(2) 0.8603(5)
H9 H 0.4676 0.3971 0.8441
H10 H 0.6374 0.4233 0.8154
N6 N 0.5730(12) 0.3601(3) 0.5085(6)
N7 N 0.5291(10) 0.2878(2) 0.7299(5)
N8 N 0.1869(10) 0.2426(2) 0.5407(5)
C13 C 0.8322(13) 0.2220(3) 0.7316(6)
C14 C 0.5857(13) 0.2477(3) 0.6721(6)
C15 C 0.4165(12) 0.2297(3) 0.5722(6)
C16 C 0.1267(13) 0.2814(3) 0.5973(6)
C17 C 0.3012(13) 0.3063(3) 0.6909(6)
H14 H 0.2577 0.3358 0.7259
C18 C 0.4741(12) 0.1969(3) 0.4893(5)
C19 C 0.8658(12) 0.4071(3) 0.6666(6)
C20 C 0.6141(13) 0.4043(3) 0.5796(6)
C21 C 0.3598(15) 0.3585(3) 0.4263(7)
H15 H 0.3282 0.3298 0.3749
C22 C 0.1823(16) 0.3986(3) 0.4151(7)
H16 H 0.0348 0.3961 0.3568
C23 C 0.4366(14) 0.4442(3) 0.5688(6)
C24 C 0.4617(14) 0.4920(3) 0.6451(7)
Gd4 Gd 0.90174(5) 0.171386(13) 0.39017(2)
O21 O 0.6680(8) 0.2931(2) 0.9776(4)
O22 O 0.3320(8) 0.7069(2) 0.0224(4)
O25 O 0.9905(10) 0.5617(2) 0.3495(5)
H13 H 0.9670 0.2924 0.5751
O24 O 0.6877(9) 0.6629(2) 0.0691(5)
O10 O 0.9544(12) 0.6232(3) 0.9476(6)
H3 H 0.9297 0.6426 0.8905
N11 N 0.8131(10) 0.7426(2) 0.9593(5)
O6 O 0.0095(10) 0.0617(2) 0.1505(5)
O10_2 O 0.0456(12) 0.1232(3) 0.5524(6)
H3_2 H 0.0703 0.1426 0.6095
Cu2 Cu -0.0000 -0.0000 -0.0000
Cu2_2 Cu -0.0000 0.0000 1.0000
Cu2_3 Cu -0.0000 1.0000 -0.0000
H13_2 H 0.0330 0.7924 0.9249
Cu2_4 Cu -0.0000 1.0000 1.0000
O1_2 O 0.9748(9) 0.2495(2) 0.3092(4)
O2_2 O 0.8697(11) 0.3258(2) 0.2041(5)
O5_2 O 0.9099(10) 0.1253(3) 0.2465(5)
O7_2 O 0.6388(12) 0.0052(3) 0.2304(5)
O9_2 O 0.6177(11) 0.0997(2) 0.3603(5)
H1_2 H 0.4676 0.1029 0.3441
H2_2 H 0.6374 0.0767 0.3154
H4 H 0.9376 0.0989 0.5469
N2_2 N 0.5730(12) 0.1399(3) 0.0085(6)
N3_2 N 0.5291(10) 0.2122(2) 0.2299(5)
C1_2 C 0.8322(13) 0.2780(3) 0.2316(6)
C2_2 C 0.5857(13) 0.2523(3) 0.1721(6)
C3_2 C 0.4165(12) 0.2703(3) 0.0722(6)
C4_2 C 0.1267(13) 0.2186(3) 0.0973(6)
C5_2 C 0.3012(13) 0.1937(3) 0.1909(6)
H6_2 H 0.2577 0.1642 0.2259
C7_2 C 0.8658(12) 0.0929(3) 0.1666(6)
C8_2 C 0.6141(13) 0.0957(3) 0.0796(6)
C11_2 C 0.4366(14) 0.0558(3) 0.0688(6)
C12_2 C 0.4617(14) 0.0080(3) 0.1451(7)
Cu2_5 Cu 1.0000 -0.0000 -0.0000
N1_2 N 0.2221(11) 0.0593(3) 0.9872(5)
C6_2 C 0.4741(12) 0.3031(3) 0.9893(5)
C9_2 C 0.3598(15) 0.1415(3) 0.9263(7)
H7_2 H 0.3282 0.1702 0.8749
C10_2 C 0.1823(16) 0.1014(3) 0.9151(7)
H8_2 H 0.0348 0.1039 0.8568
O18 O 0.7083(9) 0.0290(2) 0.8867(5)
Cu2_6 Cu 1.0000 0.0000 1.0000
O8_2 O 0.2917(9) 0.9710(2) 0.1133(5)
N5 N 0.7779(11) 0.9407(3) 0.0128(5)
C18_2 C 0.5259(12) 0.6969(3) 0.0107(5)
C21_2 C 0.6402(15) 0.8585(3) 0.0737(7)
H15_2 H 0.6718 0.8298 0.1251
C22_2 C 0.8177(16) 0.8986(3) 0.0849(7)
H16_2 H 0.9652 0.8961 0.1432
Cu2_7 Cu 1.0000 1.0000 -0.0000
O11_2 O 0.0252(9) 0.7505(2) 0.6908(4)
O12_2 O 0.1303(11) 0.6742(2) 0.7959(5)
O15_2 O 0.0901(10) 0.8747(3) 0.7535(5)
O17_2 O 0.3612(12) 0.9948(3) 0.7696(5)
O19_2 O 0.3823(11) 0.9003(2) 0.6397(5)
H9_2 H 0.5324 0.8971 0.6559
H10_2 H 0.3626 0.9233 0.6846
H12 H 0.0624 0.9011 0.4531
N6_2 N 0.4270(12) 0.8601(3) 0.9915(6)
N7_2 N 0.4709(10) 0.7878(2) 0.7701(5)
C13_2 C 0.1678(13) 0.7220(3) 0.7684(6)
C14_2 C 0.4143(13) 0.7477(3) 0.8279(6)
C15_2 C 0.5835(12) 0.7297(3) 0.9278(6)
C16_2 C 0.8733(13) 0.7814(3) 0.9027(6)
C17_2 C 0.6988(13) 0.8063(3) 0.8091(6)
H14_2 H 0.7423 0.8358 0.7741
C19_2 C 0.1342(12) 0.9071(3) 0.8334(6)
C20_2 C 0.3859(13) 0.9043(3) 0.9204(6)
C23_2 C 0.5634(14) 0.9442(3) 0.9312(6)
C24_2 C 0.5383(14) 0.9920(3) 0.8549(7)
Cu2_8 Cu 1.0000 1.0000 1.0000
H5_2 H 0.9670 0.2076 0.0751
O16_2 O 0.9905(10) 0.9383(2) 0.8495(5)
O20_2 O 0.9544(12) 0.8768(3) 0.4476(6)
H11_2 H 0.9297 0.8574 0.3905
H12_2 H 0.9376 0.4011 0.0469
H4_2 H 0.0624 0.5989 0.9531
loop_
_geom_bond_atom_site_label_1
_geom_bond_atom_site_label_2
_geom_bond_site_symmetry_1
_geom_bond_site_symmetry_2
H11 O20 1_555 1_555
O16 Cu1 1_555 1_555
O26 Cu1 1_555 1_555
N9 Cu1 1_555 1_555
Gd1 O1 1_555 1_555
Cu1_2 O8 1_555 1_555
O1 C1 1_555 1_555
O2 C1 1_555 1_555
O3 C6 1_555 1_555
O4 C6 1_555 1_555
O5 Gd1 1_555 1_555
O7 C12 1_555 1_555
O8 C12 1_555 1_555
O9 Gd1 1_555 1_555
H1 O9 1_555 1_555
H2 O9 1_555 1_555
N1 Cu1_2 1_555 1_555
N2 C8 1_555 1_555
N3 Gd1 1_555 1_555
N4 C3 1_555 1_555
C1 C2 1_555 1_555
C2 N3 1_555 1_555
C3 C2 1_555 1_555
C4 N4 1_555 1_555
C5 N3 1_555 1_555
H6 C5 1_555 1_555
C6 C3 1_555 1_555
C7 O5 1_555 1_555
C8 C7 1_555 1_555
C9 N2 1_555 1_555
H7 C9 1_555 1_555
C10 N1 1_555 1_555
H8 C10 1_555 1_555
C11 N1 1_555 1_555
C12 C11 1_555 1_555
Gd2 O11 1_555 1_555
O11 C13 1_555 1_555
O12 C13 1_555 1_555
O13 C18 1_555 1_555
O14 C18 1_555 1_555
O15 Gd2 1_555 1_555
O17 C24 1_555 1_555
O26 C24 1_555 1_555
O19 Gd2 1_555 1_555
H9 O19 1_555 1_555
H10 O19 1_555 1_555
N9 C22 1_555 1_555
N6 C20 1_555 1_555
N7 Gd2 1_555 1_555
N8 C15 1_555 1_555
C13 C14 1_555 1_555
C14 N7 1_555 1_555
C15 C14 1_555 1_555
C16 N8 1_555 1_555
C17 N7 1_555 1_555
H14 C17 1_555 1_555
C18 C15 1_555 1_555
C19 O15 1_555 1_555
C20 C19 1_555 1_555
C21 N6 1_555 1_555
H15 C21 1_555 1_555
C22 C21 1_555 1_555
H16 C22 1_555 1_555
C23 N9 1_555 1_555
C24 C23 1_555 1_555
Gd4 O13 1_555 1_555
Gd6 O3 1_555 1_555
O21 Gd2 1_555 1_555
O22 Gd1 1_555 1_555
O25 Cu1_2 1_555 1_555
C4 C5 1_555 1_555
C8 C11 1_555 1_555
C9 C10 1_555 1_555
C16 C17 1_555 1_555
C20 C23 1_555 1_555
H3 O10 1_555 1_555
H3_2 O10_2 1_555 1_555
Cu2 O6 1_555 1_555
Gd4 O1_2 1_555 1_555
O1_2 C1_2 1_555 1_555
O2_2 C1_2 1_555 1_555
O5_2 Gd4 1_555 1_555
O7_2 C12_2 1_555 1_555
O9_2 Gd4 1_555 1_555
H1_2 O9_2 1_555 1_555
H2_2 O9_2 1_555 1_555
N2_2 C8_2 1_555 1_555
N3_2 Gd4 1_555 1_555
N10 C3_2 1_555 1_555
C1_2 C2_2 1_555 1_555
C2_2 N3_2 1_555 1_555
C3_2 C2_2 1_555 1_555
C4_2 N10 1_555 1_555
C5_2 N3_2 1_555 1_555
H6_2 C5_2 1_555 1_555
C7_2 O5_2 1_555 1_555
C8_2 C7_2 1_555 1_555
C12_2 C11_2 1_555 1_555
C4_2 C5_2 1_555 1_555
C8_2 C11_2 1_555 1_555
O21 C6_2 1_555 1_555
O23 C6_2 1_555 1_555
N1_2 Cu2_2 1_555 1_555
H7_2 C9_2 1_555 1_555
C10_2 N1_2 1_555 1_555
H8_2 C10_2 1_555 1_555
C9_2 C10_2 1_555 1_555
O18 Cu2_6 1_555 1_555
Cu2_3 O8_2 1_555 1_555
O22 C18_2 1_555 1_555
O24 C18_2 1_555 1_555
N5 C22_2 1_555 1_555
H15_2 C21_2 1_555 1_555
C22_2 C21_2 1_555 1_555
H16_2 C22_2 1_555 1_555
N5 Cu2_7 1_555 1_555
Gd6 O11_2 1_555 1_555
O11_2 C13_2 1_555 1_555
O12_2 C13_2 1_555 1_555
O15_2 Gd6 1_555 1_555
O17_2 C24_2 1_555 1_555
O19_2 Gd6 1_555 1_555
H9_2 O19_2 1_555 1_555
H10_2 O19_2 1_555 1_555
N6_2 C20_2 1_555 1_555
N7_2 Gd6 1_555 1_555
N11 C15_2 1_555 1_555
C13_2 C14_2 1_555 1_555
C14_2 N7_2 1_555 1_555
C15_2 C14_2 1_555 1_555
C16_2 N11 1_555 1_555
C17_2 N7_2 1_555 1_555
H14_2 C17_2 1_555 1_555
C19_2 O15_2 1_555 1_555
C20_2 C19_2 1_555 1_555
C24_2 C23_2 1_555 1_555
C16_2 C17_2 1_555 1_555
C20_2 C23_2 1_555 1_555
O16_2 Cu2_8 1_555 1_555
H11_2 O20_2 1_555 1_555

#END
