
###############################################################################
#
# This file contains modified crystal structure data generated from the
# MOF subset of the Cambridge Structural Database (CSD) v543 
# hosted by the Cambridge Crystallographic Data Centre (CCDC).
#
# This work is licensed under the Creative Commons
# Attribution-NonCommercial-ShareAlike 4.0 International License.
# To view a copy of this license, visit
# http://creativecommons.org/licenses/by-nc-sa/4.0/
# or send a letter to
# Creative Commons, PO Box 1866, Mountain View, CA 94042, USA.
#
# CIF created using the CSD Python API on 29 September 2022
# The structure has been converted into the P1 space group
# The structure has a 3D framework
# The original CSD entry POKWIX is in the monoclinic crystal system
# The framework has been calculated to contain at least 10.0% void space
# The void calculation uses a probe of radius 1.32A, grid spacing 0.4
#
###############################################################################

data_POKWIX
_chemical_formula_moiety         '(C192 H164 Co8 N16 O51 S8)n'
_symmetry_cell_setting           triclinic
_symmetry_space_group_name_H-M   'P 1'
_symmetry_Int_Tables_number      1
_space_group_name_Hall           'P 1'
loop_
_symmetry_equiv_pos_site_id
_symmetry_equiv_pos_as_xyz
1 x,y,z
_cell_length_a                   30.2107(6)
_cell_length_b                   8.2982(2)
_cell_length_c                   24.0244(5)
_cell_angle_alpha                90
_cell_angle_beta                 120.259(2)
_cell_angle_gamma                90
_cell_volume                     5202.22
loop_
_atom_site_label
_atom_site_type_symbol
_atom_site_fract_x
_atom_site_fract_y
_atom_site_fract_z
H9 H 0.3130 0.0487 0.6510
Co7 Co 0.431912(13) 0.03068(4) 0.721606(15)
Co1 Co 0.068088(13) 0.46932(4) 0.278394(15)
N2 N 0.36441(9) 0.8773(3) 0.67980(11)
O1 O 0.04978(8) 0.1647(3) 0.36008(9)
O2 O 0.10940(7) 0.3047(2) 0.35216(9)
O3 O 0.14882(10) 0.0022(3) 0.60013(11)
O4 O 0.23240(14) 0.4549(4) 0.58482(13)
O5 O 0.03234(7) 0.6467(2) 0.20890(9)
O7 O 0.0000 0.3194(3) 0.2500
H1 H 0.0132 0.2603 0.2835
C1 C 0.12777(10) 0.2225(3) 0.45558(12)
C2 C 0.12104(10) 0.1073(3) 0.49223(13)
H2 H 0.0959 0.0285 0.4724
C3 C 0.15215(11) 0.1101(4) 0.55904(13)
C4 C 0.18886(14) 0.2270(5) 0.58852(15)
H3 H 0.2094 0.2291 0.6332
C5 C 0.19500(15) 0.3411(5) 0.55153(16)
C6 C 0.16473(13) 0.3398(4) 0.48464(14)
H4 H 0.1694 0.4169 0.4600
C12 C 0.31742(13) 0.9395(4) 0.64658(19)
C13 C 0.27480(15) 0.8477(5) 0.6057(2)
H10 H 0.2426 0.8950 0.5827
C14 C 0.28107(16) 0.6850(5) 0.5997(2)
C15 C 0.32912(15) 0.6206(5) 0.6354(2)
H11 H 0.3344 0.5106 0.6338
C16 C 0.36939(13) 0.7203(4) 0.67355(17)
H12 H 0.4020 0.6755 0.6963
C17 C 0.09275(10) 0.2294(3) 0.38362(12)
C19 C 0.23612(19) 0.5824(6) 0.5521(2)
H15 H 0.2047 0.6450 0.5331
H16 H 0.2417 0.5453 0.5178
C20 C 0.00421(12) 0.6368(4) 0.03636(13)
S1 S 0.01463(4) 0.81437(9) 0.08189(4)
N6 N 0.09063(9) 0.3532(3) 0.21796(11)
N7 N 0.13559(9) 0.6227(3) 0.32020(11)
O15 O 0.05084(7) 0.5841(3) 0.34052(9)
O9 O 0.05084(7) 0.4159(3) 0.84052(9)
C26 C 0.02121(14) 0.4992(4) 0.96092(16)
H21 H 0.0355 0.5001 0.9345
C27 C 0.02550(13) 0.6330(4) 0.99722(15)
H22 H 0.0431 0.7228 0.9953
C28 C 0.02685(12) 0.2090(3) 0.88557(14)
H23 H 0.0284 0.1063 0.8673
H24 H 0.0610 0.2316 0.9211
C29 C 0.01340(11) 0.3378(3) 0.83451(12)
Co6 Co 0.068088(13) 0.53068(4) 0.778394(15)
N1 N 0.09063(9) 0.6468(3) 0.71796(11)
C7 C 0.09792(13) 0.5599(4) 0.67545(16)
H5 H 0.0960 0.4482 0.6762
C8 C 0.10807(14) 0.6298(4) 0.63143(16)
H6 H 0.1140 0.5660 0.6041
C9 C 0.10936(12) 0.7963(4) 0.62798(14)
C10 C 0.10373(14) 0.8834(4) 0.67188(16)
H7 H 0.1063 0.9951 0.6725
C11 C 0.09409(13) 0.8060(4) 0.71586(16)
H8 H 0.0899 0.8681 0.7451
C18 C 0.11357(15) 0.8757(5) 0.57471(16)
H13 H 0.1248 0.7976 0.5543
H14 H 0.0804 0.9167 0.5424
H33 H 0.6870 0.0487 0.8490
Co8 Co 0.568088(13) 0.03068(4) 0.778394(15)
O6 O 0.94916(7) 0.5841(3) 0.15948(9)
O7_2 O 1.0000 0.3194(3) 0.2500
C21 C 0.97879(14) 0.5008(4) 0.03908(16)
H17 H 0.9645 0.4999 0.0655
C22 C 0.97450(13) 0.3670(4) 0.00278(15)
H18 H 0.9569 0.2772 0.0047
C23 C 0.97315(12) 0.7910(3) 0.11443(14)
H19 H 0.9716 0.8937 0.1327
H20 H 0.9390 0.7684 0.0789
C24 C 0.98660(11) 0.6622(3) 0.16549(12)
H25 H 0.9868 0.2603 0.2165
Co2 Co 0.931912(13) 0.46932(4) 0.221606(15)
O10 O 0.95022(8) 0.1647(3) 0.13992(9)
O11 O 0.89060(7) 0.3047(2) 0.14784(9)
C30 C 0.87223(10) 0.2225(3) 0.04442(12)
C31 C 0.87896(10) 0.1073(3) 0.00777(13)
H26 H 0.9041 0.0285 0.0276
C35 C 0.83527(13) 0.3398(4) 0.01536(14)
H28 H 0.8306 0.4169 0.0400
C46 C 0.90725(10) 0.2294(3) 0.11638(12)
N5 N 0.90937(9) 0.3532(3) 0.28204(11)
N8 N 0.86441(9) 0.6227(3) 0.17980(11)
O14 O 0.96766(7) 0.6467(2) 0.29110(9)
O8 O 0.96766(7) 0.3533(2) 0.79110(9)
C25 C 0.99579(12) 0.3632(4) 0.96364(13)
S2 S 0.98537(4) 0.18563(9) 0.91811(4)
N4 N 0.63559(9) 0.8773(3) 0.82020(11)
O12 O 0.85118(10) 0.0022(3) 0.89987(11)
O13 O 0.76760(14) 0.4549(4) 0.91518(13)
C32 C 0.84785(11) 0.1101(4) 0.94096(13)
C33 C 0.81114(14) 0.2270(5) 0.91148(15)
H27 H 0.7906 0.2291 0.8668
C34 C 0.80500(15) 0.3411(5) 0.94847(16)
C41 C 0.68258(13) 0.9395(4) 0.85342(19)
C42 C 0.72520(15) 0.8477(5) 0.8943(2)
H34 H 0.7574 0.8950 0.9173
C43 C 0.71893(16) 0.6850(5) 0.9003(2)
C44 C 0.67088(15) 0.6206(5) 0.8646(2)
H35 H 0.6656 0.5106 0.8662
C45 C 0.63061(13) 0.7203(4) 0.82645(17)
H36 H 0.5980 0.6755 0.8037
C48 C 0.76388(19) 0.5824(6) 0.9479(2)
H39 H 0.7953 0.6450 0.9669
H40 H 0.7583 0.5453 0.9822
Co4 Co 0.931912(13) 0.53068(4) 0.721606(15)
N3 N 0.90937(9) 0.6468(3) 0.78204(11)
C36 C 0.90208(13) 0.5599(4) 0.82455(16)
H29 H 0.9040 0.4482 0.8238
C37 C 0.89193(14) 0.6298(4) 0.86857(16)
H30 H 0.8860 0.5660 0.8959
C38 C 0.89064(12) 0.7963(4) 0.87202(14)
C39 C 0.89627(14) 0.8834(4) 0.82812(16)
H31 H 0.8937 0.9951 0.8275
C40 C 0.90591(13) 0.8060(4) 0.78414(16)
H32 H 0.9101 0.8681 0.7549
C47 C 0.88643(15) 0.8757(5) 0.92529(16)
H37 H 0.8752 0.7976 0.9457
H38 H 0.9196 0.9167 0.9576
C21_2 C 0.02121(14) 0.5008(4) 0.46092(16)
H17_2 H 0.0355 0.4999 0.4345
C22_2 C 0.02550(13) 0.3670(4) 0.49722(15)
H18_2 H 0.0431 0.2772 0.4953
C23_2 C 0.02685(12) 0.7910(3) 0.38557(14)
H19_2 H 0.0284 0.8937 0.3673
H20_2 H 0.0610 0.7684 0.4211
C24_2 C 0.01340(11) 0.6622(3) 0.33451(12)
O8_2 O 0.03234(7) 0.3533(2) 0.70890(9)
C25_2 C 0.00421(12) 0.3632(4) 0.53636(13)
S2_2 S 0.01463(4) 0.18563(9) 0.58189(4)
C20_2 C 0.99579(12) 0.6368(4) 0.46364(13)
S1_2 S 0.98537(4) 0.81437(9) 0.41811(4)
O9_2 O 0.94916(7) 0.4159(3) 0.65948(9)
C26_2 C 0.97879(14) 0.4992(4) 0.53908(16)
H21_2 H 0.9645 0.5001 0.5655
C27_2 C 0.97450(13) 0.6330(4) 0.50278(15)
H22_2 H 0.9569 0.7228 0.5047
C28_2 C 0.97315(12) 0.2090(3) 0.61443(14)
H23_2 H 0.9716 0.1063 0.6327
H24_2 H 0.9390 0.2316 0.5789
C29_2 C 0.98660(11) 0.3378(3) 0.66549(12)
N2_2 N 0.86441(9) 0.3773(3) 0.67980(11)
O5_2 O 0.53234(7) 0.1467(2) 0.20890(9)
O6_2 O 0.44916(7) 0.0841(3) 0.15948(9)
C12_2 C 0.81742(13) 0.4395(4) 0.64658(19)
H9_2 H 0.8130 0.5487 0.6510
C13_2 C 0.77480(15) 0.3477(5) 0.6057(2)
H10_2 H 0.7426 0.3950 0.5827
C14_2 C 0.78107(16) 0.1850(5) 0.5997(2)
C15_2 C 0.82912(15) 0.1206(5) 0.6354(2)
H11_2 H 0.8344 0.0106 0.6338
C16_2 C 0.86939(13) 0.2203(4) 0.67355(17)
H12_2 H 0.9020 0.1755 0.6963
C19_2 C 0.73612(19) 0.0824(6) 0.5521(2)
H15_2 H 0.7047 0.1450 0.5331
H16_2 H 0.7417 0.0453 0.5178
C20_3 C 0.50421(12) 0.1368(4) 0.03636(13)
C21_3 C 0.47879(14) 0.0008(4) 0.03908(16)
H17_3 H 0.4645 -0.0001 0.0655
C23_3 C 0.47315(12) 0.2910(3) 0.11443(14)
H19_3 H 0.4716 0.3937 0.1327
H20_3 H 0.4390 0.2684 0.0789
C24_3 C 0.48660(11) 0.1622(3) 0.16549(12)
S1_3 S 0.51463(4) 0.31437(9) 0.08189(4)
N7_2 N 0.63559(9) 0.1227(3) 0.32020(11)
N8_2 N 0.36441(9) 0.1227(3) 0.17980(11)
O14_2 O 0.46766(7) 0.1467(2) 0.29110(9)
O15_2 O 0.55084(7) 0.0841(3) 0.34052(9)
H21_3 H 0.5355 0.0001 0.9345
C27_3 C 0.52550(13) 0.1330(4) 0.99722(15)
H22_3 H 0.5431 0.2228 0.9953
N4_2 N 0.13559(9) 0.3773(3) 0.82020(11)
C41_2 C 0.18258(13) 0.4395(4) 0.85342(19)
H33_2 H 0.1870 0.5487 0.8490
C42_2 C 0.22520(15) 0.3477(5) 0.8943(2)
H34_2 H 0.2574 0.3950 0.9173
C43_2 C 0.21893(16) 0.1850(5) 0.9003(2)
C44_2 C 0.17088(15) 0.1206(5) 0.8646(2)
H35_2 H 0.1656 0.0106 0.8662
C45_2 C 0.13061(13) 0.2203(4) 0.82645(17)
H36_2 H 0.0980 0.1755 0.8037
C48_2 C 0.26388(19) 0.0824(6) 0.9479(2)
H39_2 H 0.2953 0.1450 0.9669
H40_2 H 0.2583 0.0453 0.9822
Co1_2 Co 0.568088(13) 0.96932(4) 0.278394(15)
N1_2 N 0.59063(9) 0.1468(3) 0.71796(11)
O1_2 O 0.54978(8) 0.6647(3) 0.36008(9)
O2_2 O 0.60940(7) 0.8047(2) 0.35216(9)
O3_2 O 0.64882(10) 0.5022(3) 0.60013(11)
O4_2 O 0.73240(14) 0.9549(4) 0.58482(13)
O7_3 O 0.5000 0.8194(3) 0.2500
H1_2 H 0.5132 0.7603 0.2835
C1_2 C 0.62777(10) 0.7225(3) 0.45558(12)
C2_2 C 0.62104(10) 0.6073(3) 0.49223(13)
H2_2 H 0.5959 0.5285 0.4724
C3_2 C 0.65215(11) 0.6101(4) 0.55904(13)
C4_2 C 0.68886(14) 0.7270(5) 0.58852(15)
H3_2 H 0.7094 0.7291 0.6332
C5_2 C 0.69500(15) 0.8411(5) 0.55153(16)
C6_2 C 0.66473(13) 0.8398(4) 0.48464(14)
H4_2 H 0.6694 0.9169 0.4600
C7_2 C 0.59792(13) 0.0599(4) 0.67545(16)
C8_2 C 0.60807(14) 0.1298(4) 0.63143(16)
H6_2 H 0.6140 0.0660 0.6041
C9_2 C 0.60936(12) 0.2963(4) 0.62798(14)
C10_2 C 0.60373(14) 0.3834(4) 0.67188(16)
H7_2 H 0.6063 0.4951 0.6725
C11_2 C 0.59409(13) 0.3060(4) 0.71586(16)
H8_2 H 0.5899 0.3681 0.7451
C17_2 C 0.59275(10) 0.7294(3) 0.38362(12)
C18_2 C 0.61357(15) 0.3757(5) 0.57471(16)
H13_2 H 0.6248 0.2976 0.5543
H14_2 H 0.5804 0.4167 0.5424
H17_4 H 0.4645 0.9999 0.0655
C22_3 C 0.47450(13) 0.8670(4) 0.00278(15)
H18_3 H 0.4569 0.7772 0.0047
H25_2 H 0.4868 0.7603 0.2165
Co2_2 Co 0.431912(13) 0.96932(4) 0.221606(15)
O10_2 O 0.45022(8) 0.6647(3) 0.13992(9)
O11_2 O 0.39060(7) 0.8047(2) 0.14784(9)
C30_2 C 0.37223(10) 0.7225(3) 0.04442(12)
C31_2 C 0.37896(10) 0.6073(3) 0.00777(13)
H26_2 H 0.4041 0.5285 0.0276
C35_2 C 0.33527(13) 0.8398(4) 0.01536(14)
H28_2 H 0.3306 0.9169 0.0400
C46_2 C 0.40725(10) 0.7294(3) 0.11638(12)
N5_2 N 0.40937(9) 0.8532(3) 0.28204(11)
N6_2 N 0.59063(9) 0.8532(3) 0.21796(11)
O8_3 O 0.46766(7) 0.8533(2) 0.79110(9)
O9_3 O 0.55084(7) 0.9159(3) 0.84052(9)
C25_3 C 0.49579(12) 0.8632(4) 0.96364(13)
C26_3 C 0.52121(14) 0.9992(4) 0.96092(16)
H21_4 H 0.5355 1.0001 0.9345
C28_3 C 0.52685(12) 0.7090(3) 0.88557(14)
H23_3 H 0.5284 0.6063 0.8673
H24_3 H 0.5610 0.7316 0.9211
C29_3 C 0.51340(11) 0.8378(3) 0.83451(12)
S2_3 S 0.48537(4) 0.68563(9) 0.91811(4)
N3_2 N 0.40937(9) 0.1468(3) 0.78204(11)
O12_2 O 0.35118(10) 0.5022(3) 0.89987(11)
O13_2 O 0.26760(14) 0.9549(4) 0.91518(13)
C32_2 C 0.34785(11) 0.6101(4) 0.94096(13)
C33_2 C 0.31114(14) 0.7270(5) 0.91148(15)
H27_2 H 0.2906 0.7291 0.8668
C34_2 C 0.30500(15) 0.8411(5) 0.94847(16)
C36_2 C 0.40208(13) 0.0599(4) 0.82455(16)
C37_2 C 0.39193(14) 0.1298(4) 0.86857(16)
H30_2 H 0.3860 0.0660 0.8959
C38_2 C 0.39064(12) 0.2963(4) 0.87202(14)
C39_2 C 0.39627(14) 0.3834(4) 0.82812(16)
H31_2 H 0.3937 0.4951 0.8275
C40_2 C 0.40591(13) 0.3060(4) 0.78414(16)
H32_2 H 0.4101 0.3681 0.7549
C47_2 C 0.38643(15) 0.3757(5) 0.92529(16)
H37_2 H 0.3752 0.2976 0.9457
H38_2 H 0.4196 0.4167 0.9576
C20_4 C 0.49579(12) 0.1368(4) 0.46364(13)
C21_4 C 0.52121(14) 0.0008(4) 0.46092(16)
H17_5 H 0.5355 -0.0001 0.4345
C23_4 C 0.52685(12) 0.2910(3) 0.38557(14)
H19_4 H 0.5284 0.3937 0.3673
H20_4 H 0.5610 0.2684 0.4211
C24_4 C 0.51340(11) 0.1622(3) 0.33451(12)
S1_4 S 0.48537(4) 0.31437(9) 0.41811(4)
H21_5 H 0.4645 0.0001 0.5655
C27_4 C 0.47450(13) 0.1330(4) 0.50278(15)
H22_4 H 0.4569 0.2228 0.5047
H17_6 H 0.5355 0.9999 0.4345
C22_4 C 0.52550(13) 0.8670(4) 0.49722(15)
H18_4 H 0.5431 0.7772 0.4953
O8_4 O 0.53234(7) 0.8533(2) 0.70890(9)
O9_4 O 0.44916(7) 0.9159(3) 0.65948(9)
C25_4 C 0.50421(12) 0.8632(4) 0.53636(13)
C26_4 C 0.47879(14) 0.9992(4) 0.53908(16)
H21_6 H 0.4645 1.0001 0.5655
C28_4 C 0.47315(12) 0.7090(3) 0.61443(14)
H23_4 H 0.4716 0.6063 0.6327
H24_4 H 0.4390 0.7316 0.5789
C29_4 C 0.48660(11) 0.8378(3) 0.66549(12)
S2_4 S 0.51463(4) 0.68563(9) 0.58189(4)
C36_3 C 0.09792(13) 0.4401(4) 0.17545(16)
H29_2 H 0.0960 0.5518 0.1762
C37_3 C 0.10807(14) 0.3702(4) 0.13143(16)
H30_3 H 0.1140 0.4340 0.1041
C38_3 C 0.10936(12) 0.2037(4) 0.12798(14)
C39_3 C 0.10373(14) 0.1166(4) 0.17188(16)
H31_3 H 0.1063 0.0049 0.1725
C40_3 C 0.09409(13) 0.1940(4) 0.21586(16)
H32_3 H 0.0899 0.1319 0.2451
C47_3 C 0.11357(15) 0.1243(5) 0.07471(16)
H37_3 H 0.1248 0.2024 0.0543
H38_3 H 0.0804 0.0833 0.0424
O12_3 O 0.14882(10) 0.9978(3) 0.10013(11)
O13_3 O 0.23240(14) 0.5451(4) 0.08482(13)
C32_3 C 0.15215(11) 0.8899(4) 0.05904(13)
C33_3 C 0.18886(14) 0.7730(5) 0.08852(15)
H27_3 H 0.2094 0.7709 0.1332
C34_3 C 0.19500(15) 0.6589(5) 0.05153(16)
C41_3 C 0.31742(13) 0.0605(4) 0.14658(19)
C42_3 C 0.27480(15) 0.1523(5) 0.1057(2)
H34_3 H 0.2426 0.1050 0.0827
C43_3 C 0.28107(16) 0.3150(5) 0.0997(2)
C44_3 C 0.32912(15) 0.3794(5) 0.1354(2)
H35_3 H 0.3344 0.4894 0.1338
C45_3 C 0.36939(13) 0.2797(4) 0.17355(17)
H36_3 H 0.4020 0.3245 0.1963
C48_3 C 0.23612(19) 0.4176(6) 0.0521(2)
H39_3 H 0.2047 0.3550 0.0331
H40_3 H 0.2417 0.4547 0.0178
O7_4 O 0.0000 0.6806(3) 0.7500
H25_3 H 0.0132 0.7397 0.7835
O10_3 O 0.04978(8) 0.8353(3) 0.86008(9)
O11_3 O 0.10940(7) 0.6953(2) 0.85216(9)
C30_3 C 0.12777(10) 0.7775(3) 0.95558(12)
C31_3 C 0.12104(10) 0.8927(3) 0.99223(13)
H26_3 H 0.0959 0.9715 0.9724
C35_3 C 0.16473(13) 0.6602(4) 0.98464(14)
H28_3 H 0.1694 0.5831 0.9600
C46_3 C 0.09275(10) 0.7706(3) 0.88362(12)
H33_3 H 0.3130 0.9513 0.1510
C7_3 C 0.90208(13) 0.4401(4) 0.32455(16)
H5_2 H 0.9040 0.5518 0.3238
C8_3 C 0.89193(14) 0.3702(4) 0.36857(16)
H6_3 H 0.8860 0.4340 0.3959
C9_3 C 0.89064(12) 0.2037(4) 0.37202(14)
C10_3 C 0.89627(14) 0.1166(4) 0.32812(16)
H7_3 H 0.8937 0.0049 0.3275
C11_3 C 0.90591(13) 0.1940(4) 0.28414(16)
H8_3 H 0.9101 0.1319 0.2549
C18_3 C 0.88643(15) 0.1243(5) 0.42529(16)
H13_3 H 0.8752 0.2024 0.4457
H14_3 H 0.9196 0.0833 0.4576
O1_3 O 0.95022(8) 0.8353(3) 0.63992(9)
O2_3 O 0.89060(7) 0.6953(2) 0.64784(9)
O3_3 O 0.85118(10) 0.9978(3) 0.39987(11)
O4_3 O 0.76760(14) 0.5451(4) 0.41518(13)
O7_5 O 1.0000 0.6806(3) 0.7500
H1_3 H 0.9868 0.7397 0.7165
C1_3 C 0.87223(10) 0.7775(3) 0.54442(12)
C2_3 C 0.87896(10) 0.8927(3) 0.50777(13)
H2_3 H 0.9041 0.9715 0.5276
C3_3 C 0.84785(11) 0.8899(4) 0.44096(13)
C4_3 C 0.81114(14) 0.7730(5) 0.41148(15)
H3_3 H 0.7906 0.7709 0.3668
C5_3 C 0.80500(15) 0.6589(5) 0.44847(16)
C6_3 C 0.83527(13) 0.6602(4) 0.51536(14)
H4_3 H 0.8306 0.5831 0.5400
C12_3 C 0.68258(13) 0.0605(4) 0.35342(19)
C13_3 C 0.72520(15) 0.1523(5) 0.3943(2)
H10_3 H 0.7574 0.1050 0.4173
C14_3 C 0.71893(16) 0.3150(5) 0.4003(2)
C15_3 C 0.67088(15) 0.3794(5) 0.3646(2)
H11_3 H 0.6656 0.4894 0.3662
C16_3 C 0.63061(13) 0.2797(4) 0.32645(17)
H12_3 H 0.5980 0.3245 0.3037
C17_3 C 0.90725(10) 0.7706(3) 0.61638(12)
C19_3 C 0.76388(19) 0.4176(6) 0.4479(2)
H15_3 H 0.7953 0.3550 0.4669
H16_3 H 0.7583 0.4547 0.4822
H9_3 H 0.6870 0.9513 0.3490
O12_4 O 0.64882(10) 0.4978(3) 0.10013(11)
O13_4 O 0.73240(14) 0.0451(4) 0.08482(13)
C32_4 C 0.65215(11) 0.3899(4) 0.05904(13)
C33_4 C 0.68886(14) 0.2730(5) 0.08852(15)
H27_4 H 0.7094 0.2709 0.1332
C34_4 C 0.69500(15) 0.1589(5) 0.05153(16)
C36_4 C 0.59792(13) 0.9401(4) 0.17545(16)
C37_4 C 0.60807(14) 0.8702(4) 0.13143(16)
H30_4 H 0.6140 0.9340 0.1041
C38_4 C 0.60936(12) 0.7037(4) 0.12798(14)
C39_4 C 0.60373(14) 0.6166(4) 0.17188(16)
H31_4 H 0.6063 0.5049 0.1725
C40_4 C 0.59409(13) 0.6940(4) 0.21586(16)
H32_4 H 0.5899 0.6319 0.2451
C47_4 C 0.61357(15) 0.6243(5) 0.07471(16)
H37_4 H 0.6248 0.7024 0.0543
H38_4 H 0.5804 0.5833 0.0424
O1_4 O 0.45022(8) 0.3353(3) 0.63992(9)
O2_4 O 0.39060(7) 0.1953(2) 0.64784(9)
O3_4 O 0.35118(10) 0.4978(3) 0.39987(11)
O4_4 O 0.26760(14) 0.0451(4) 0.41518(13)
O7_6 O 0.5000 0.1806(3) 0.7500
H1_4 H 0.4868 0.2397 0.7165
C1_4 C 0.37223(10) 0.2775(3) 0.54442(12)
C2_4 C 0.37896(10) 0.3927(3) 0.50777(13)
H2_4 H 0.4041 0.4715 0.5276
C3_4 C 0.34785(11) 0.3899(4) 0.44096(13)
C4_4 C 0.31114(14) 0.2730(5) 0.41148(15)
H3_4 H 0.2906 0.2709 0.3668
C5_4 C 0.30500(15) 0.1589(5) 0.44847(16)
C6_4 C 0.33527(13) 0.1602(4) 0.51536(14)
H4_4 H 0.3306 0.0831 0.5400
C7_4 C 0.40208(13) 0.9401(4) 0.32455(16)
C8_4 C 0.39193(14) 0.8702(4) 0.36857(16)
H6_4 H 0.3860 0.9340 0.3959
C9_4 C 0.39064(12) 0.7037(4) 0.37202(14)
C10_4 C 0.39627(14) 0.6166(4) 0.32812(16)
H7_4 H 0.3937 0.5049 0.3275
C11_4 C 0.40591(13) 0.6940(4) 0.28414(16)
H8_4 H 0.4101 0.6319 0.2549
C17_4 C 0.40725(10) 0.2706(3) 0.61638(12)
C18_4 C 0.38643(15) 0.6243(5) 0.42529(16)
H13_4 H 0.3752 0.7024 0.4457
H14_4 H 0.4196 0.5833 0.4576
H25_4 H 0.5132 0.2397 0.7835
O10_4 O 0.54978(8) 0.3353(3) 0.86008(9)
O11_4 O 0.60940(7) 0.1953(2) 0.85216(9)
C30_4 C 0.62777(10) 0.2775(3) 0.95558(12)
C31_4 C 0.62104(10) 0.3927(3) 0.99223(13)
H26_4 H 0.5959 0.4715 0.9724
C35_4 C 0.66473(13) 0.1602(4) 0.98464(14)
H28_4 H 0.6694 0.0831 0.9600
C46_4 C 0.59275(10) 0.2706(3) 0.88362(12)
C41_4 C 0.81742(13) 0.5605(4) 0.14658(19)
H33_4 H 0.8130 0.4513 0.1510
C42_4 C 0.77480(15) 0.6523(5) 0.1057(2)
H34_4 H 0.7426 0.6050 0.0827
C43_4 C 0.78107(16) 0.8150(5) 0.0997(2)
C44_4 C 0.82912(15) 0.8794(5) 0.1354(2)
H35_4 H 0.8344 0.9894 0.1338
C45_4 C 0.86939(13) 0.7797(4) 0.17355(17)
H36_4 H 0.9020 0.8245 0.1963
C48_4 C 0.73612(19) 0.9176(6) 0.0521(2)
H39_4 H 0.7047 0.8550 0.0331
H40_4 H 0.7417 0.9547 0.0178
C12_4 C 0.18258(13) 0.5605(4) 0.35342(19)
H9_4 H 0.1870 0.4513 0.3490
C13_4 C 0.22520(15) 0.6523(5) 0.3943(2)
H10_4 H 0.2574 0.6050 0.4173
C14_4 C 0.21893(16) 0.8150(5) 0.4003(2)
C15_4 C 0.17088(15) 0.8794(5) 0.3646(2)
H11_4 H 0.1656 0.9894 0.3662
C16_4 C 0.13061(13) 0.7797(4) 0.32645(17)
H12_4 H 0.0980 0.8245 0.3037
C19_4 C 0.26388(19) 0.9176(6) 0.4479(2)
H15_4 H 0.2953 0.8550 0.4669
H16_4 H 0.2583 0.9547 0.4822
H5_3 H 0.5960 0.9482 0.6762
H29_3 H 0.4040 0.9482 0.8238
H29_4 H 0.5960 0.0518 0.1762
H5_4 H 0.4040 0.0518 0.3238
loop_
_geom_bond_atom_site_label_1
_geom_bond_atom_site_label_2
_geom_bond_site_symmetry_1
_geom_bond_site_symmetry_2
Co1 O2 1_555 1_555
N2 C12 1_555 1_555
O1 C17 1_555 1_555
O2 C17 1_555 1_555
O3 C3 1_555 1_555
O4 C5 1_555 1_555
O5 Co1 1_555 1_555
O7 Co1 1_555 1_555
H1 O7 1_555 1_555
C1 C2 1_555 1_555
C2 H2 1_555 1_555
C3 C2 1_555 1_555
C4 C3 1_555 1_555
H3 C4 1_555 1_555
C5 C4 1_555 1_555
C6 C1 1_555 1_555
H4 C6 1_555 1_555
C13 C12 1_555 1_555
H10 C13 1_555 1_555
C14 C13 1_555 1_555
C15 C14 1_555 1_555
H11 C15 1_555 1_555
C16 N2 1_555 1_555
H12 C16 1_555 1_555
C17 C1 1_555 1_555
C19 O4 1_555 1_555
H15 C19 1_555 1_555
H16 C19 1_555 1_555
S1 C20 1_555 1_555
N6 Co1 1_555 1_555
N7 Co1 1_555 1_555
O15 Co1 1_555 1_555
C5 C6 1_555 1_555
C14 C19 1_555 1_555
C15 C16 1_555 1_555
O9 C29 1_555 1_555
H21 C26 1_555 1_555
H22 C27 1_555 1_555
C28 H23 1_555 1_555
H24 C28 1_555 1_555
C29 C28 1_555 1_555
Co6 O9 1_555 1_555
C26 C27 1_555 1_555
N1 C7 1_555 1_555
C7 H5 1_555 1_555
C8 C7 1_555 1_555
H6 C8 1_555 1_555
C9 C8 1_555 1_555
C10 C9 1_555 1_555
H7 C10 1_555 1_555
C11 N1 1_555 1_555
H8 C11 1_555 1_555
H13 C18 1_555 1_555
H14 C18 1_555 1_555
Co6 N1 1_555 1_555
C9 C18 1_555 1_555
C10 C11 1_555 1_555
O6 C24 1_555 1_555
C21 H17 1_555 1_555
C22 C21 1_555 1_555
H18 C22 1_555 1_555
C23 H19 1_555 1_555
H20 C23 1_555 1_555
H25 O7_2 1_555 1_555
Co2 O6 1_555 1_555
O10 C46 1_555 1_555
O11 Co2 1_555 1_555
C30 C31 1_555 1_555
C31 H26 1_555 1_555
C35 C30 1_555 1_555
H28 C35 1_555 1_555
C46 O11 1_555 1_555
N5 Co2 1_555 1_555
N8 Co2 1_555 1_555
O14 Co2 1_555 1_555
O7_2 Co2 1_555 1_555
C23 C24 1_555 1_555
C30 C46 1_555 1_555
S2 C25 1_555 1_555
N4 C41 1_555 1_555
O12 C32 1_555 1_555
O13 C34 1_555 1_555
C33 C32 1_555 1_555
H27 C33 1_555 1_555
C34 C33 1_555 1_555
C42 C41 1_555 1_555
H34 C42 1_555 1_555
C43 C42 1_555 1_555
C44 C43 1_555 1_555
H35 C44 1_555 1_555
C45 N4 1_555 1_555
H36 C45 1_555 1_555
C48 O13 1_555 1_555
H39 C48 1_555 1_555
H40 C48 1_555 1_555
Co4 O8 1_555 1_555
C43 C48 1_555 1_555
C44 C45 1_555 1_555
N3 C36 1_555 1_555
C36 H29 1_555 1_555
C37 C36 1_555 1_555
H30 C37 1_555 1_555
C38 C37 1_555 1_555
C39 C38 1_555 1_555
H31 C39 1_555 1_555
C40 N3 1_555 1_555
H32 C40 1_555 1_555
H37 C47 1_555 1_555
H38 C47 1_555 1_555
Co4 N3 1_555 1_555
C38 C47 1_555 1_555
C39 C40 1_555 1_555
O15 C24_2 1_555 1_555
C21_2 H17_2 1_555 1_555
C22_2 C21_2 1_555 1_555
H18_2 C22_2 1_555 1_555
C23_2 H19_2 1_555 1_555
H20_2 C23_2 1_555 1_555
C25_2 C22_2 1_555 1_555
S2_2 C25_2 1_555 1_555
Co6 O8_2 1_555 1_555
C23_2 C24_2 1_555 1_555
S1_2 C20_2 1_555 1_555
O9_2 C29_2 1_555 1_555
H21_2 C26_2 1_555 1_555
C27_2 C20_2 1_555 1_555
H22_2 C27_2 1_555 1_555
C28_2 H23_2 1_555 1_555
H24_2 C28_2 1_555 1_555
C29_2 C28_2 1_555 1_555
Co4 O9_2 1_555 1_555
C26_2 C27_2 1_555 1_555
N2_2 C12_2 1_555 1_555
O6_2 C24_3 1_555 1_555
C12_2 H9_2 1_555 1_555
C13_2 C12_2 1_555 1_555
H10_2 C13_2 1_555 1_555
C14_2 C13_2 1_555 1_555
C15_2 C14_2 1_555 1_555
H11_2 C15_2 1_555 1_555
C16_2 N2_2 1_555 1_555
H12_2 C16_2 1_555 1_555
H15_2 C19_2 1_555 1_555
H16_2 C19_2 1_555 1_555
C20_3 C21_3 1_555 1_555
C21_3 H17_3 1_555 1_555
C23_3 H19_3 1_555 1_555
H20_3 C23_3 1_555 1_555
C24_3 O5_2 1_555 1_555
S1_3 C20_3 1_555 1_555
Co4 N2_2 1_555 1_555
C14_2 C19_2 1_555 1_555
C15_2 C16_2 1_555 1_555
C23_3 C24_3 1_555 1_555
C23_3 S1_3 1_555 1_555
H22_3 C27_3 1_555 1_555
N4_2 C41_2 1_555 1_555
C41_2 H33_2 1_555 1_555
C42_2 C41_2 1_555 1_555
H34_2 C42_2 1_555 1_555
C43_2 C42_2 1_555 1_555
C44_2 C43_2 1_555 1_555
H35_2 C44_2 1_555 1_555
C45_2 N4_2 1_555 1_555
H36_2 C45_2 1_555 1_555
H39_2 C48_2 1_555 1_555
H40_2 C48_2 1_555 1_555
Co6 N4_2 1_555 1_555
C43_2 C48_2 1_555 1_555
C44_2 C45_2 1_555 1_555
Co1_2 O2_2 1_555 1_555
N1_2 C7_2 1_555 1_555
O1_2 C17_2 1_555 1_555
O2_2 C17_2 1_555 1_555
O3_2 C3_2 1_555 1_555
O4_2 C5_2 1_555 1_555
O7_3 Co1_2 1_555 1_555
H1_2 O7_3 1_555 1_555
C1_2 C2_2 1_555 1_555
C2_2 H2_2 1_555 1_555
C3_2 C2_2 1_555 1_555
C4_2 C3_2 1_555 1_555
H3_2 C4_2 1_555 1_555
C5_2 C4_2 1_555 1_555
C6_2 C1_2 1_555 1_555
H4_2 C6_2 1_555 1_555
C8_2 C7_2 1_555 1_555
H6_2 C8_2 1_555 1_555
C9_2 C8_2 1_555 1_555
C10_2 C9_2 1_555 1_555
H7_2 C10_2 1_555 1_555
C11_2 N1_2 1_555 1_555
H8_2 C11_2 1_555 1_555
C17_2 C1_2 1_555 1_555
C18_2 O3_2 1_555 1_555
H13_2 C18_2 1_555 1_555
H14_2 C18_2 1_555 1_555
H18_3 C22_3 1_555 1_555
H25_2 O7_3 1_555 1_555
O10_2 C46_2 1_555 1_555
O11_2 Co2_2 1_555 1_555
C30_2 C31_2 1_555 1_555
C31_2 H26_2 1_555 1_555
C35_2 C30_2 1_555 1_555
H28_2 C35_2 1_555 1_555
C46_2 O11_2 1_555 1_555
Co8 N1_2 1_555 1_555
N5_2 Co2_2 1_555 1_555
N6_2 Co1_2 1_555 1_555
O7_3 Co2_2 1_555 1_555
C5_2 C6_2 1_555 1_555
C9_2 C18_2 1_555 1_555
C10_2 C11_2 1_555 1_555
C30_2 C46_2 1_555 1_555
O8_3 C29_3 1_555 1_555
O9_3 C29_3 1_555 1_555
C26_3 C25_3 1_555 1_555
H21_4 C26_3 1_555 1_555
C28_3 H23_3 1_555 1_555
H24_3 C28_3 1_555 1_555
C29_3 C28_3 1_555 1_555
S2_3 C25_3 1_555 1_555
N3_2 C36_2 1_555 1_555
O12_2 C32_2 1_555 1_555
O13_2 C34_2 1_555 1_555
C33_2 C32_2 1_555 1_555
H27_2 C33_2 1_555 1_555
C34_2 C33_2 1_555 1_555
C37_2 C36_2 1_555 1_555
H30_2 C37_2 1_555 1_555
C38_2 C37_2 1_555 1_555
C39_2 C38_2 1_555 1_555
H31_2 C39_2 1_555 1_555
C40_2 N3_2 1_555 1_555
H32_2 C40_2 1_555 1_555
C47_2 O12_2 1_555 1_555
H37_2 C47_2 1_555 1_555
H38_2 C47_2 1_555 1_555
Co7 N3_2 1_555 1_555
C28_3 S2_3 1_555 1_555
C38_2 C47_2 1_555 1_555
C39_2 C40_2 1_555 1_555
O15_2 C24_4 1_555 1_555
C20_4 C21_4 1_555 1_555
C21_4 H17_5 1_555 1_555
C23_4 H19_4 1_555 1_555
H20_4 C23_4 1_555 1_555
C24_4 O14_2 1_555 1_555
S1_4 C20_4 1_555 1_555
C27_4 C20_4 1_555 1_555
H22_4 C27_4 1_555 1_555
C23_4 C24_4 1_555 1_555
C23_4 S1_4 1_555 1_555
H18_4 C22_4 1_555 1_555
O8_4 C29_4 1_555 1_555
O9_4 C29_4 1_555 1_555
C25_4 C22_4 1_555 1_555
C26_4 C25_4 1_555 1_555
H21_6 C26_4 1_555 1_555
C28_4 H23_4 1_555 1_555
H24_4 C28_4 1_555 1_555
C29_4 C28_4 1_555 1_555
S2_4 C25_4 1_555 1_555
C28_4 S2_4 1_555 1_555
N6 C36_3 1_555 1_555
C36_3 H29_2 1_555 1_555
C37_3 C36_3 1_555 1_555
H30_3 C37_3 1_555 1_555
C38_3 C37_3 1_555 1_555
C39_3 C38_3 1_555 1_555
H31_3 C39_3 1_555 1_555
C40_3 N6 1_555 1_555
H32_3 C40_3 1_555 1_555
H37_3 C47_3 1_555 1_555
H38_3 C47_3 1_555 1_555
C38_3 C47_3 1_555 1_555
C39_3 C40_3 1_555 1_555
N8_2 C41_3 1_555 1_555
O12_3 C32_3 1_555 1_555
O13_3 C34_3 1_555 1_555
C33_3 C32_3 1_555 1_555
H27_3 C33_3 1_555 1_555
C34_3 C33_3 1_555 1_555
C42_3 C41_3 1_555 1_555
H34_3 C42_3 1_555 1_555
C43_3 C42_3 1_555 1_555
C44_3 C43_3 1_555 1_555
H35_3 C44_3 1_555 1_555
C45_3 N8_2 1_555 1_555
H36_3 C45_3 1_555 1_555
C48_3 O13_3 1_555 1_555
H39_3 C48_3 1_555 1_555
H40_3 C48_3 1_555 1_555
C43_3 C48_3 1_555 1_555
C44_3 C45_3 1_555 1_555
H25_3 O7_4 1_555 1_555
O10_3 C46_3 1_555 1_555
O11_3 Co6 1_555 1_555
C30_3 C31_3 1_555 1_555
C31_3 H26_3 1_555 1_555
C35_3 C30_3 1_555 1_555
H28_3 C35_3 1_555 1_555
C46_3 O11_3 1_555 1_555
O7_4 Co6 1_555 1_555
C30_3 C46_3 1_555 1_555
N5 C7_3 1_555 1_555
C7_3 H5_2 1_555 1_555
C8_3 C7_3 1_555 1_555
H6_3 C8_3 1_555 1_555
C9_3 C8_3 1_555 1_555
C10_3 C9_3 1_555 1_555
H7_3 C10_3 1_555 1_555
C11_3 N5 1_555 1_555
H8_3 C11_3 1_555 1_555
H13_3 C18_3 1_555 1_555
H14_3 C18_3 1_555 1_555
C9_3 C18_3 1_555 1_555
C10_3 C11_3 1_555 1_555
Co4 O2_3 1_555 1_555
N7_2 C12_3 1_555 1_555
O1_3 C17_3 1_555 1_555
O2_3 C17_3 1_555 1_555
O3_3 C3_3 1_555 1_555
O4_3 C5_3 1_555 1_555
O7_5 Co4 1_555 1_555
H1_3 O7_5 1_555 1_555
C1_3 C2_3 1_555 1_555
C2_3 H2_3 1_555 1_555
C3_3 C2_3 1_555 1_555
C4_3 C3_3 1_555 1_555
H3_3 C4_3 1_555 1_555
C5_3 C4_3 1_555 1_555
C6_3 C1_3 1_555 1_555
H4_3 C6_3 1_555 1_555
C13_3 C12_3 1_555 1_555
H10_3 C13_3 1_555 1_555
C14_3 C13_3 1_555 1_555
C15_3 C14_3 1_555 1_555
H11_3 C15_3 1_555 1_555
C16_3 N7_2 1_555 1_555
H12_3 C16_3 1_555 1_555
C17_3 C1_3 1_555 1_555
C19_3 O4_3 1_555 1_555
H15_3 C19_3 1_555 1_555
H16_3 C19_3 1_555 1_555
C5_3 C6_3 1_555 1_555
C14_3 C19_3 1_555 1_555
C15_3 C16_3 1_555 1_555
N6_2 C36_4 1_555 1_555
O12_4 C32_4 1_555 1_555
O13_4 C34_4 1_555 1_555
C33_4 C32_4 1_555 1_555
H27_4 C33_4 1_555 1_555
C34_4 C33_4 1_555 1_555
C37_4 C36_4 1_555 1_555
H30_4 C37_4 1_555 1_555
C38_4 C37_4 1_555 1_555
C39_4 C38_4 1_555 1_555
H31_4 C39_4 1_555 1_555
C40_4 N6_2 1_555 1_555
H32_4 C40_4 1_555 1_555
C47_4 O12_4 1_555 1_555
H37_4 C47_4 1_555 1_555
H38_4 C47_4 1_555 1_555
C38_4 C47_4 1_555 1_555
C39_4 C40_4 1_555 1_555
Co7 O2_4 1_555 1_555
N5_2 C7_4 1_555 1_555
O1_4 C17_4 1_555 1_555
O2_4 C17_4 1_555 1_555
O3_4 C3_4 1_555 1_555
O4_4 C5_4 1_555 1_555
O7_6 Co7 1_555 1_555
H1_4 O7_6 1_555 1_555
C1_4 C2_4 1_555 1_555
C2_4 H2_4 1_555 1_555
C3_4 C2_4 1_555 1_555
C4_4 C3_4 1_555 1_555
H3_4 C4_4 1_555 1_555
C5_4 C4_4 1_555 1_555
C6_4 C1_4 1_555 1_555
H4_4 C6_4 1_555 1_555
C8_4 C7_4 1_555 1_555
H6_4 C8_4 1_555 1_555
C9_4 C8_4 1_555 1_555
C10_4 C9_4 1_555 1_555
H7_4 C10_4 1_555 1_555
C11_4 N5_2 1_555 1_555
H8_4 C11_4 1_555 1_555
C17_4 C1_4 1_555 1_555
C18_4 O3_4 1_555 1_555
H13_4 C18_4 1_555 1_555
H14_4 C18_4 1_555 1_555
H25_4 O7_6 1_555 1_555
O10_4 C46_4 1_555 1_555
O11_4 Co8 1_555 1_555
C30_4 C31_4 1_555 1_555
C31_4 H26_4 1_555 1_555
C35_4 C30_4 1_555 1_555
H28_4 C35_4 1_555 1_555
C46_4 O11_4 1_555 1_555
O7_6 Co8 1_555 1_555
C5_4 C6_4 1_555 1_555
C9_4 C18_4 1_555 1_555
C10_4 C11_4 1_555 1_555
C30_4 C46_4 1_555 1_555
N8 C41_4 1_555 1_555
C41_4 H33_4 1_555 1_555
C42_4 C41_4 1_555 1_555
H34_4 C42_4 1_555 1_555
C43_4 C42_4 1_555 1_555
C44_4 C43_4 1_555 1_555
H35_4 C44_4 1_555 1_555
C45_4 N8 1_555 1_555
H36_4 C45_4 1_555 1_555
H39_4 C48_4 1_555 1_555
H40_4 C48_4 1_555 1_555
C43_4 C48_4 1_555 1_555
C44_4 C45_4 1_555 1_555
N7 C12_4 1_555 1_555
C12_4 H9_4 1_555 1_555
C13_4 C12_4 1_555 1_555
H10_4 C13_4 1_555 1_555
C14_4 C13_4 1_555 1_555
C15_4 C14_4 1_555 1_555
H11_4 C15_4 1_555 1_555
C16_4 N7 1_555 1_555
H12_4 C16_4 1_555 1_555
H15_4 C19_4 1_555 1_555
H16_4 C19_4 1_555 1_555
C14_4 C19_4 1_555 1_555
C15_4 C16_4 1_555 1_555

#END
