
###############################################################################
#
# This file contains modified crystal structure data generated from the
# MOF subset of the Cambridge Structural Database (CSD) v543 
# hosted by the Cambridge Crystallographic Data Centre (CCDC).
#
# This work is licensed under the Creative Commons
# Attribution-NonCommercial-ShareAlike 4.0 International License.
# To view a copy of this license, visit
# http://creativecommons.org/licenses/by-nc-sa/4.0/
# or send a letter to
# Creative Commons, PO Box 1866, Mountain View, CA 94042, USA.
#
# CIF created using the CSD Python API on 29 September 2022
# The structure has been converted into the P1 space group
# The structure has a 3D framework
# The original CSD entry POLYEW is in the monoclinic crystal system
# The framework has been calculated to contain at least 10.0% void space
# The void calculation uses a probe of radius 1.32A, grid spacing 0.4
#
###############################################################################

data_POLYEW
_chemical_formula_moiety         '(C208 H160 N8 O32 Zn8)n'
_symmetry_cell_setting           triclinic
_symmetry_space_group_name_H-M   'P 1'
_symmetry_Int_Tables_number      1
_space_group_name_Hall           'P 1'
loop_
_symmetry_equiv_pos_site_id
_symmetry_equiv_pos_as_xyz
1 x,y,z
_cell_length_a                   15.281(3)
_cell_length_b                   21.460(4)
_cell_length_c                   15.867(3)
_cell_angle_alpha                90
_cell_angle_beta                 94.63(3)
_cell_angle_gamma                90
_cell_volume                     5186.29
loop_
_atom_site_label
_atom_site_type_symbol
_atom_site_fract_x
_atom_site_fract_y
_atom_site_fract_z
Zn6 Zn 0.06761(3) 0.50481(2) 0.43922(3)
O10 O 0.0037(2) 0.41655(17) 0.5884(2)
O14 O 0.0223(2) 0.54460(17) 0.6338(2)
H12 H 0.6358 0.3784 0.0376
N2 N 0.1654(3) 0.5186(3) 0.3608(2)
C27 C 0.2463(3) 0.5002(3) 0.3872(3)
H21 H 0.2571 0.4855 0.4428
C28 C 0.3149(4) 0.5019(4) 0.3354(4)
H22 H 0.3715 0.4892 0.3563
C29 C 0.2999(4) 0.5226(5) 0.2517(4)
C30 C 0.2154(3) 0.5362(3) 0.2249(3)
H23 H 0.2007 0.5469 0.1681
C31 C 0.1516(3) 0.5342(3) 0.2808(3)
H24 H 0.0940 0.5447 0.2605
C32 C 0.3714(4) 0.5184(5) 0.1949(4)
H25 H 0.4289 0.5203 0.2207
C33 C 0.3641(3) 0.5124(3) 0.1148(3)
H26 H 0.3065 0.5120 0.0891
C34 C 0.4356(3) 0.5059(3) 0.0566(3)
C35 C 0.4797(4) 0.4495(4) 0.0509(4)
C36 C 0.4551(4) 0.5562(4) 0.0064(4)
C37 C 0.4595(6) 0.3938(4) 0.1047(6)
H27 H 0.4086 0.4028 0.1354
H28 H 0.4474 0.3579 0.0686
H29 H 0.5096 0.3850 0.1444
C38 C 0.4066(6) 0.6176(4) 0.0111(6)
H30 H 0.3763 0.6189 0.0624
H31 H 0.4482 0.6518 0.0113
O5 O 0.1075(2) 0.42324(15) 0.4972(2)
O7 O 0.3760(2) 0.05047(17) 0.95872(19)
O8 O 0.4777(2) 0.04460(17) 0.8662(2)
C39 C 0.1141(3) 0.3397(2) 0.5947(3)
C40 C 0.1945(3) 0.3206(2) 0.5729(3)
H33 H 0.2204 0.3409 0.5288
C41 C 0.2382(3) 0.2719(2) 0.6148(3)
H34 H 0.2940 0.2603 0.5993
C42 C 0.2016(3) 0.2397(3) 0.6794(3)
C43 C 0.1161(4) 0.2561(3) 0.6955(4)
H35 H 0.0871 0.2329 0.7351
C44 C 0.0737(4) 0.3052(3) 0.6550(4)
H36 H 0.0166 0.3157 0.6680
C45 C 0.2522(3) 0.1920(3) 0.7301(3)
C46 C 0.3220(3) 0.1590(3) 0.7001(3)
H37 H 0.3351 0.1648 0.6438
C47 C 0.3720(3) 0.1184(2) 0.7505(3)
H38 H 0.4199 0.0980 0.7289
C48 C 0.3523(3) 0.1073(2) 0.8330(3)
C49 C 0.2810(4) 0.1378(3) 0.8628(3)
H39 H 0.2660 0.1302 0.9182
C50 C 0.2323(4) 0.1788(3) 0.8125(4)
H40 H 0.1840 0.1987 0.8341
C51 C 0.0716(3) 0.3974(2) 0.5566(3)
C52 C 0.4062(3) 0.0643(2) 0.8904(3)
O12 O 0.1240(2) 0.55047(17) 0.54128(19)
Zn5 Zn 0.56761(3) 0.99519(2) 0.93922(3)
O6 O 0.4963(2) 0.91655(17) 0.9116(2)
C39_2 C 0.3859(3) 0.8397(2) 0.9053(3)
C40_2 C 0.3055(3) 0.8206(2) 0.9271(3)
H33_2 H 0.2796 0.8409 0.9712
C41_2 C 0.2618(3) 0.7719(2) 0.8852(3)
H34_2 H 0.2060 0.7603 0.9007
C42_2 C 0.2984(3) 0.7397(3) 0.8206(3)
C43_2 C 0.3839(4) 0.7561(3) 0.8045(4)
H35_2 H 0.4129 0.7329 0.7649
C44_2 C 0.4263(4) 0.8052(3) 0.8450(4)
H36_2 H 0.4834 0.8157 0.8320
C45_2 C 0.2478(3) 0.6920(3) 0.7699(3)
C46_2 C 0.1780(3) 0.6590(3) 0.7999(3)
H37_2 H 0.1649 0.6648 0.8562
C47_2 C 0.1280(3) 0.6184(2) 0.7495(3)
H38_2 H 0.0801 0.5980 0.7711
C48_2 C 0.1477(3) 0.6073(2) 0.6670(3)
C49_2 C 0.2190(4) 0.6378(3) 0.6372(3)
H39_2 H 0.2340 0.6302 0.5818
C50_2 C 0.2677(4) 0.6788(3) 0.6875(4)
H40_2 H 0.3160 0.6987 0.6659
C51_2 C 0.4284(3) 0.8974(2) 0.9434(3)
C52_2 C 0.0938(3) 0.5643(2) 0.6096(3)
O1 O 0.6075(2) 0.07676(15) 0.9972(2)
H1 H 0.7571 0.0145 0.9428
H2 H 0.8715 0.0108 0.8563
C9 C 0.9797(4) 0.0505(4) 0.5509(4)
C11 C 0.9595(6) 0.1062(4) 0.6047(6)
H7 H 0.9086 0.0972 0.6354
H8 H 0.9474 0.1421 0.5686
N1 N 0.6654(3) 0.9814(3) 0.8608(2)
C1 C 0.7463(3) 0.9998(3) 0.8872(3)
C2 C 0.8149(4) 0.9981(4) 0.8354(4)
C3 C 0.7999(4) 0.9774(5) 0.7517(4)
C4 C 0.7154(3) 0.9638(3) 0.7249(3)
H3 H 0.7007 0.9531 0.6681
C5 C 0.6516(3) 0.9658(3) 0.7808(3)
H4 H 0.5940 0.9553 0.7605
C6 C 0.8714(4) 0.9816(5) 0.6949(4)
H5 H 0.9289 0.9797 0.7207
C7 C 0.8641(3) 0.9876(3) 0.6148(3)
H6 H 0.8065 0.9880 0.5891
C8 C 0.9356(3) 0.9941(3) 0.5566(3)
C10 C 0.9551(4) 0.9438(4) 0.5064(4)
C12 C 0.9066(6) 0.8824(4) 0.5111(6)
H10 H 0.8763 0.8811 0.5624
H11 H 0.9482 0.8482 0.5113
H12_2 H 0.8642 0.8784 0.4624
H29_2 H 0.9904 0.8850 0.3556
Zn8 Zn 0.43239(3) 0.00481(2) 0.06078(3)
Zn1 Zn 0.93239(3) 0.49519(2) 0.56078(3)
N1_2 N 0.8346(3) 0.4814(3) 0.6392(2)
O1_2 O 0.8925(2) 0.57676(15) 0.5028(2)
O2 O 0.9963(2) 0.58345(17) 0.4116(2)
O3 O 0.6240(2) 0.94953(17) 0.04128(19)
O4 O 0.5223(2) 0.95540(17) 0.1338(2)
C1_2 C 0.7537(3) 0.4998(3) 0.6128(3)
H1_2 H 0.7429 0.5145 0.5572
C2_2 C 0.6851(4) 0.4981(4) 0.6646(4)
H2_2 H 0.6285 0.5108 0.6437
C3_2 C 0.7001(4) 0.4774(5) 0.7483(4)
C4_2 C 0.7846(3) 0.4638(3) 0.7751(3)
H3_2 H 0.7993 0.4531 0.8319
C5_2 C 0.8484(3) 0.4658(3) 0.7192(3)
H4_2 H 0.9060 0.4553 0.7395
C6_2 C 0.6286(4) 0.4816(5) 0.8051(4)
H5_2 H 0.5711 0.4797 0.7793
C7_2 C 0.6359(3) 0.4876(3) 0.8852(3)
H6_2 H 0.6935 0.4880 0.9109
C8_2 C 0.5644(3) 0.4941(3) 0.9434(3)
C9_2 C 0.5203(4) 0.5505(4) 0.9491(4)
C10_2 C 0.5449(4) 0.4438(4) 0.9936(4)
C11_2 C 0.5405(6) 0.6062(4) 0.8953(6)
H7_2 H 0.5914 0.5972 0.8646
H8_2 H 0.5526 0.6421 0.9314
H9 H 0.4904 0.6150 0.8556
C12_2 C 0.5934(6) 0.3824(4) 0.9889(6)
H10_2 H 0.6237 0.3811 0.9376
H11_2 H 0.5518 0.3482 0.9887
C13 C 0.8859(3) 0.6603(2) 0.4053(3)
C14 C 0.8055(3) 0.6794(2) 0.4271(3)
H13 H 0.7796 0.6591 0.4712
C15 C 0.7618(3) 0.7281(2) 0.3852(3)
H14 H 0.7060 0.7397 0.4007
C16 C 0.7984(3) 0.7603(3) 0.3206(3)
C17 C 0.8839(4) 0.7439(3) 0.3045(4)
H15 H 0.9129 0.7671 0.2649
C18 C 0.9263(4) 0.6948(3) 0.3450(4)
H16 H 0.9834 0.6843 0.3320
C19 C 0.7478(3) 0.8080(3) 0.2699(3)
C20 C 0.6780(3) 0.8410(3) 0.2999(3)
H17 H 0.6649 0.8352 0.3562
C21 C 0.6280(3) 0.8816(2) 0.2495(3)
H18 H 0.5801 0.9020 0.2711
C22 C 0.6477(3) 0.8927(2) 0.1670(3)
C23 C 0.7190(4) 0.8622(3) 0.1372(3)
H19 H 0.7340 0.8698 0.0818
C24 C 0.7677(4) 0.8212(3) 0.1875(4)
H20 H 0.8160 0.8013 0.1659
C25 C 0.9284(3) 0.6026(2) 0.4434(3)
C26 C 0.5938(3) 0.9357(2) 0.1096(3)
H32 H 0.3642 0.6216 0.9624
O11 O 0.8760(2) 0.44953(17) 0.45872(19)
O13 O 0.9777(2) 0.45540(17) 0.3662(2)
H9_2 H 0.0096 0.1150 0.6444
N2_2 N 0.3346(3) 0.0186(3) 0.1392(2)
C27_2 C 0.2537(3) 0.0002(3) 0.1128(3)
C28_2 C 0.1851(4) 0.0019(4) 0.1646(4)
C29_2 C 0.2001(4) 0.0226(5) 0.2483(4)
C30_2 C 0.2846(3) 0.0362(3) 0.2751(3)
H23_2 H 0.2993 0.0469 0.3319
C31_2 C 0.3484(3) 0.0342(3) 0.2192(3)
H24_2 H 0.4060 0.0447 0.2395
C32_2 C 0.1286(4) 0.0184(5) 0.3051(4)
H25_2 H 0.0711 0.0203 0.2793
C33_2 C 0.1359(3) 0.0124(3) 0.3852(3)
H26_2 H 0.1935 0.0120 0.4109
C34_2 C 0.0644(3) 0.0059(3) 0.4434(3)
C36_2 C 0.0449(4) 0.0562(4) 0.4936(4)
C38_2 C 0.0934(6) 0.1176(4) 0.4889(6)
H30_2 H 0.1237 0.1189 0.4376
H31_2 H 0.0518 0.1518 0.4887
H32_2 H 0.1358 0.1216 0.5376
O9 O 0.5037(2) 0.08345(17) 0.0884(2)
H21_2 H 0.2429 0.9855 0.0572
H22_2 H 0.1285 0.9892 0.1437
C35_2 C 0.0203(4) 0.9495(4) 0.4491(4)
C37_2 C 0.0405(6) 0.8938(4) 0.3953(6)
H27_2 H 0.0914 0.9028 0.3646
H28_2 H 0.0526 0.8579 0.4314
O5_2 O 0.3925(2) 0.92324(15) 0.0028(2)
C13_2 C 0.6141(3) 0.1603(2) 0.0947(3)
C14_2 C 0.6945(3) 0.1794(2) 0.0729(3)
H13_2 H 0.7204 0.1591 0.0288
C15_2 C 0.7382(3) 0.2281(2) 0.1148(3)
H14_2 H 0.7940 0.2397 0.0993
C16_2 C 0.7016(3) 0.2603(3) 0.1794(3)
C17_2 C 0.6161(4) 0.2439(3) 0.1955(4)
H15_2 H 0.5871 0.2671 0.2351
C18_2 C 0.5737(4) 0.1948(3) 0.1550(4)
H16_2 H 0.5166 0.1843 0.1680
C19_2 C 0.7522(3) 0.3080(3) 0.2301(3)
C20_2 C 0.8220(3) 0.3410(3) 0.2001(3)
H17_2 H 0.8351 0.3352 0.1438
C21_2 C 0.8720(3) 0.3816(2) 0.2505(3)
H18_2 H 0.9199 0.4020 0.2289
C22_2 C 0.8523(3) 0.3927(2) 0.3330(3)
C23_2 C 0.7810(4) 0.3622(3) 0.3628(3)
H19_2 H 0.7660 0.3698 0.4182
C24_2 C 0.7323(4) 0.3212(3) 0.3125(4)
H20_2 H 0.6840 0.3013 0.3341
C25_2 C 0.5716(3) 0.1026(2) 0.0566(3)
C26_2 C 0.9062(3) 0.4357(2) 0.3904(3)
O9_2 O 0.0037(2) 0.58345(17) 0.0884(2)
O13_2 O 0.0223(2) 0.45540(17) 0.1338(2)
Zn8_2 Zn 0.56761(3) 0.00481(2) 0.43922(3)
O3_2 O 0.3760(2) 0.94953(17) 0.45872(19)
O4_2 O 0.4777(2) 0.95540(17) 0.3662(2)
C13_3 C 0.1141(3) 0.6603(2) 0.0947(3)
C14_3 C 0.1945(3) 0.6794(2) 0.0729(3)
H13_3 H 0.2204 0.6591 0.0288
C15_3 C 0.2382(3) 0.7281(2) 0.1148(3)
H14_3 H 0.2940 0.7397 0.0993
C16_3 C 0.2016(3) 0.7603(3) 0.1794(3)
C17_3 C 0.1161(4) 0.7439(3) 0.1955(4)
H15_3 H 0.0871 0.7671 0.2351
C18_3 C 0.0737(4) 0.6948(3) 0.1550(4)
H16_3 H 0.0166 0.6843 0.1680
C19_3 C 0.2522(3) 0.8080(3) 0.2301(3)
C20_3 C 0.3220(3) 0.8410(3) 0.2001(3)
H17_3 H 0.3351 0.8352 0.1438
C21_3 C 0.3720(3) 0.8816(2) 0.2505(3)
H18_3 H 0.4199 0.9020 0.2289
C22_3 C 0.3523(3) 0.8927(2) 0.3330(3)
C23_3 C 0.2810(4) 0.8622(3) 0.3628(3)
H19_3 H 0.2660 0.8698 0.4182
C24_3 C 0.2323(4) 0.8212(3) 0.3125(4)
H20_3 H 0.1840 0.8013 0.3341
C25_3 C 0.0716(3) 0.6026(2) 0.0566(3)
C26_3 C 0.4062(3) 0.9357(2) 0.3904(3)
Zn5_2 Zn 0.43239(3) 0.99519(2) 0.56078(3)
O11_2 O 0.1240(2) 0.44953(17) 0.04128(19)
O6_2 O 0.9963(2) 0.41655(17) 0.9116(2)
O7_2 O 0.6240(2) 0.05047(17) 0.54128(19)
O8_2 O 0.5223(2) 0.04460(17) 0.6338(2)
C39_3 C 0.8859(3) 0.3397(2) 0.9053(3)
C40_3 C 0.8055(3) 0.3206(2) 0.9271(3)
H33_3 H 0.7796 0.3409 0.9712
C41_3 C 0.7618(3) 0.2719(2) 0.8852(3)
H34_3 H 0.7060 0.2603 0.9007
C42_3 C 0.7984(3) 0.2397(3) 0.8206(3)
C43_3 C 0.8839(4) 0.2561(3) 0.8045(4)
H35_3 H 0.9129 0.2329 0.7649
C44_3 C 0.9263(4) 0.3052(3) 0.8450(4)
H36_3 H 0.9834 0.3157 0.8320
C45_3 C 0.7478(3) 0.1920(3) 0.7699(3)
C46_3 C 0.6780(3) 0.1590(3) 0.7999(3)
H37_3 H 0.6649 0.1648 0.8562
C47_3 C 0.6280(3) 0.1184(2) 0.7495(3)
H38_3 H 0.5801 0.0980 0.7711
C48_3 C 0.6477(3) 0.1073(2) 0.6670(3)
C49_3 C 0.7190(4) 0.1378(3) 0.6372(3)
H39_3 H 0.7340 0.1302 0.5818
C50_3 C 0.7677(4) 0.1788(3) 0.6875(4)
H40_3 H 0.8160 0.1987 0.6659
C51_3 C 0.9284(3) 0.3974(2) 0.9434(3)
C52_3 C 0.5938(3) 0.0643(2) 0.6096(3)
O12_2 O 0.8760(2) 0.55047(17) 0.95872(19)
O14_2 O 0.9777(2) 0.54460(17) 0.8662(2)
O1_3 O 0.3925(2) 0.07676(15) 0.5028(2)
O2_2 O 0.4963(2) 0.08345(17) 0.4116(2)
H1_3 H 0.2429 0.0145 0.5572
H2_3 H 0.1285 0.0108 0.6437
C9_3 C 0.0203(4) 0.0505(4) 0.9491(4)
C11_3 C 0.0405(6) 0.1062(4) 0.8953(6)
H7_3 H 0.0914 0.0972 0.8646
H8_3 H 0.0526 0.1421 0.9314
C13_4 C 0.3859(3) 0.1603(2) 0.4053(3)
C14_4 C 0.3055(3) 0.1794(2) 0.4271(3)
H13_4 H 0.2796 0.1591 0.4712
C15_4 C 0.2618(3) 0.2281(2) 0.3852(3)
H14_4 H 0.2060 0.2397 0.4007
C16_4 C 0.2984(3) 0.2603(3) 0.3206(3)
C17_4 C 0.3839(4) 0.2439(3) 0.3045(4)
H15_4 H 0.4129 0.2671 0.2649
C18_4 C 0.4263(4) 0.1948(3) 0.3450(4)
H16_4 H 0.4834 0.1843 0.3320
C19_4 C 0.2478(3) 0.3080(3) 0.2699(3)
C20_4 C 0.1780(3) 0.3410(3) 0.2999(3)
H17_4 H 0.1649 0.3352 0.3562
C21_4 C 0.1280(3) 0.3816(2) 0.2495(3)
H18_4 H 0.0801 0.4020 0.2711
C22_4 C 0.1477(3) 0.3927(2) 0.1670(3)
C23_4 C 0.2190(4) 0.3622(3) 0.1372(3)
H19_4 H 0.2340 0.3698 0.0818
C24_4 C 0.2677(4) 0.3212(3) 0.1875(4)
H20_4 H 0.3160 0.3013 0.1659
C25_4 C 0.4284(3) 0.1026(2) 0.4434(3)
C26_4 C 0.0938(3) 0.4357(2) 0.1096(3)
N1_3 N 0.3346(3) 0.9814(3) 0.6392(2)
C1_3 C 0.2537(3) 0.9998(3) 0.6128(3)
C2_3 C 0.1851(4) 0.9981(4) 0.6646(4)
C3_3 C 0.2001(4) 0.9774(5) 0.7483(4)
C4_3 C 0.2846(3) 0.9638(3) 0.7751(3)
H3_3 H 0.2993 0.9531 0.8319
C5_3 C 0.3484(3) 0.9658(3) 0.7192(3)
H4_3 H 0.4060 0.9553 0.7395
C6_3 C 0.1286(4) 0.9816(5) 0.8051(4)
H5_3 H 0.0711 0.9797 0.7793
C7_3 C 0.1359(3) 0.9876(3) 0.8852(3)
H6_3 H 0.1935 0.9880 0.9109
C8_3 C 0.0644(3) 0.9941(3) 0.9434(3)
C10_3 C 0.0449(4) 0.9438(4) 0.9936(4)
C12_3 C 0.0934(6) 0.8824(4) 0.9889(6)
H10_3 H 0.1237 0.8811 0.9376
H11_3 H 0.0518 0.8482 0.9887
O10_2 O 0.5037(2) 0.91655(17) 0.5884(2)
N2_3 N 0.6654(3) 0.0186(3) 0.3608(2)
C27_3 C 0.7463(3) 0.0002(3) 0.3872(3)
C28_3 C 0.8149(4) 0.0019(4) 0.3354(4)
C29_3 C 0.7999(4) 0.0226(5) 0.2517(4)
C30_3 C 0.7154(3) 0.0362(3) 0.2249(3)
H23_3 H 0.7007 0.0469 0.1681
C31_3 C 0.6516(3) 0.0342(3) 0.2808(3)
H24_3 H 0.5940 0.0447 0.2605
C32_3 C 0.8714(4) 0.0184(5) 0.1949(4)
H25_3 H 0.9289 0.0203 0.2207
C33_3 C 0.8641(3) 0.0124(3) 0.1148(3)
H26_3 H 0.8065 0.0120 0.0891
C34_3 C 0.9356(3) 0.0059(3) 0.0566(3)
C36_3 C 0.9551(4) 0.0562(4) 0.0064(4)
C38_3 C 0.9066(6) 0.1176(4) 0.0111(6)
H30_3 H 0.8763 0.1189 0.0624
H31_3 H 0.9482 0.1518 0.0113
H21_3 H 0.7571 0.9855 0.4428
H22_3 H 0.8715 0.9892 0.3563
C35_3 C 0.9797(4) 0.9495(4) 0.0509(4)
C37_3 C 0.9595(6) 0.8938(4) 0.1047(6)
H27_3 H 0.9086 0.9028 0.1354
H28_3 H 0.9474 0.8579 0.0686
O5_3 O 0.6075(2) 0.92324(15) 0.4972(2)
C39_4 C 0.6141(3) 0.8397(2) 0.5947(3)
C40_4 C 0.6945(3) 0.8206(2) 0.5729(3)
H33_4 H 0.7204 0.8409 0.5288
C41_4 C 0.7382(3) 0.7719(2) 0.6148(3)
H34_4 H 0.7940 0.7603 0.5993
C42_4 C 0.7016(3) 0.7397(3) 0.6794(3)
C43_4 C 0.6161(4) 0.7561(3) 0.6955(4)
H35_4 H 0.5871 0.7329 0.7351
C44_4 C 0.5737(4) 0.8052(3) 0.6550(4)
H36_4 H 0.5166 0.8157 0.6680
C45_4 C 0.7522(3) 0.6920(3) 0.7301(3)
C46_4 C 0.8220(3) 0.6590(3) 0.7001(3)
H37_4 H 0.8351 0.6648 0.6438
C47_4 C 0.8720(3) 0.6184(2) 0.7505(3)
H38_4 H 0.9199 0.5980 0.7289
C48_4 C 0.8523(3) 0.6073(2) 0.8330(3)
C49_4 C 0.7810(4) 0.6378(3) 0.8628(3)
H39_4 H 0.7660 0.6302 0.9182
C50_4 C 0.7323(4) 0.6788(3) 0.8125(4)
H40_4 H 0.6840 0.6987 0.8341
C51_4 C 0.5716(3) 0.8974(2) 0.5566(3)
C52_4 C 0.9062(3) 0.5643(2) 0.8904(3)
Zn3 Zn 0.06761(3) 0.49519(2) 0.93922(3)
N1_4 N 0.1654(3) 0.4814(3) 0.8608(2)
O1_4 O 0.1075(2) 0.57676(15) 0.9972(2)
C1_4 C 0.2463(3) 0.4998(3) 0.8872(3)
H1_4 H 0.2571 0.5145 0.9428
C2_4 C 0.3149(4) 0.4981(4) 0.8354(4)
H2_4 H 0.3715 0.5108 0.8563
C3_4 C 0.2999(4) 0.4774(5) 0.7517(4)
C4_4 C 0.2154(3) 0.4638(3) 0.7249(3)
H3_4 H 0.2007 0.4531 0.6681
C5_4 C 0.1516(3) 0.4658(3) 0.7808(3)
H4_4 H 0.0940 0.4553 0.7605
C6_4 C 0.3714(4) 0.4816(5) 0.6949(4)
H5_4 H 0.4289 0.4797 0.7207
C7_4 C 0.3641(3) 0.4876(3) 0.6148(3)
H6_4 H 0.3065 0.4880 0.5891
C8_4 C 0.4356(3) 0.4941(3) 0.5566(3)
C9_4 C 0.4797(4) 0.5505(4) 0.5509(4)
C10_4 C 0.4551(4) 0.4438(4) 0.5064(4)
C11_4 C 0.4595(6) 0.6062(4) 0.6047(6)
H7_4 H 0.4086 0.5972 0.6354
H8_4 H 0.4474 0.6421 0.5686
H9_3 H 0.5096 0.6150 0.6444
C12_4 C 0.4066(6) 0.3824(4) 0.5111(6)
H10_4 H 0.3763 0.3811 0.5624
H11_4 H 0.4482 0.3482 0.5113
H12_3 H 0.3642 0.3784 0.4624
N2_4 N 0.8346(3) 0.5186(3) 0.1392(2)
C27_4 C 0.7537(3) 0.5002(3) 0.1128(3)
H21_4 H 0.7429 0.4855 0.0572
C28_4 C 0.6851(4) 0.5019(4) 0.1646(4)
H22_4 H 0.6285 0.4892 0.1437
C29_4 C 0.7001(4) 0.5226(5) 0.2483(4)
C30_4 C 0.7846(3) 0.5362(3) 0.2751(3)
H23_4 H 0.7993 0.5469 0.3319
C31_4 C 0.8484(3) 0.5342(3) 0.2192(3)
H24_4 H 0.9060 0.5447 0.2395
C32_4 C 0.6286(4) 0.5184(5) 0.3051(4)
H25_4 H 0.5711 0.5203 0.2793
C33_4 C 0.6359(3) 0.5124(3) 0.3852(3)
H26_4 H 0.6935 0.5120 0.4109
C34_4 C 0.5644(3) 0.5059(3) 0.4434(3)
C35_4 C 0.5203(4) 0.4495(4) 0.4491(4)
C36_4 C 0.5449(4) 0.5562(4) 0.4936(4)
C37_4 C 0.5405(6) 0.3938(4) 0.3953(6)
H27_4 H 0.5914 0.4028 0.3646
H28_4 H 0.5526 0.3579 0.4314
H29_3 H 0.4904 0.3850 0.3556
C38_4 C 0.5934(6) 0.6176(4) 0.4889(6)
H30_4 H 0.6237 0.6189 0.4376
H31_4 H 0.5518 0.6518 0.4887
H32_3 H 0.6358 0.6216 0.5376
Zn2 Zn 0.93239(3) 0.50481(2) 0.06078(3)
O5_4 O 0.8925(2) 0.42324(15) 0.0028(2)
H12_4 H 0.1358 0.8784 0.0376
H29_4 H 0.0096 0.8850 0.1444
H9_4 H 0.9904 0.1150 0.8556
H32_4 H 0.8642 0.1216 0.9624
loop_
_geom_bond_atom_site_label_1
_geom_bond_atom_site_label_2
_geom_bond_site_symmetry_1
_geom_bond_site_symmetry_2
N2 C27 1_555 1_555
C27 H21 1_555 1_555
C28 C27 1_555 1_555
H22 C28 1_555 1_555
C29 C28 1_555 1_555
C30 C29 1_555 1_555
H23 C30 1_555 1_555
C31 N2 1_555 1_555
H24 C31 1_555 1_555
C32 C29 1_555 1_555
H25 C32 1_555 1_555
C33 C32 1_555 1_555
H26 C33 1_555 1_555
C34 C33 1_555 1_555
C37 C35 1_555 1_555
H27 C37 1_555 1_555
H28 C37 1_555 1_555
H29 C37 1_555 1_555
C38 C36 1_555 1_555
H30 C38 1_555 1_555
H31 C38 1_555 1_555
Zn6 N2 1_555 1_555
O5 Zn6 1_555 1_555
O10 C51 1_555 1_555
O7 C52 1_555 1_555
O8 C52 1_555 1_555
C39 C40 1_555 1_555
C40 H33 1_555 1_555
C41 C40 1_555 1_555
H34 C41 1_555 1_555
C42 C41 1_555 1_555
C43 C42 1_555 1_555
H35 C43 1_555 1_555
C44 C39 1_555 1_555
H36 C44 1_555 1_555
C45 C42 1_555 1_555
C46 C45 1_555 1_555
H37 C46 1_555 1_555
C47 C46 1_555 1_555
H38 C47 1_555 1_555
C48 C47 1_555 1_555
C49 C48 1_555 1_555
H39 C49 1_555 1_555
C50 C45 1_555 1_555
H40 C50 1_555 1_555
C51 O5 1_555 1_555
C52 C48 1_555 1_555
O12 Zn6 1_555 1_555
C30 C31 1_555 1_555
C34 C35 1_555 1_555
C34 C36 1_555 1_555
C39 C51 1_555 1_555
C43 C44 1_555 1_555
C49 C50 1_555 1_555
O6 C51_2 1_555 1_555
O12 C52_2 1_555 1_555
O14 C52_2 1_555 1_555
C39_2 C40_2 1_555 1_555
C40_2 H33_2 1_555 1_555
C41_2 C40_2 1_555 1_555
H34_2 C41_2 1_555 1_555
C42_2 C41_2 1_555 1_555
C43_2 C42_2 1_555 1_555
H35_2 C43_2 1_555 1_555
C44_2 C39_2 1_555 1_555
H36_2 C44_2 1_555 1_555
C45_2 C42_2 1_555 1_555
C46_2 C45_2 1_555 1_555
H37_2 C46_2 1_555 1_555
C47_2 C46_2 1_555 1_555
H38_2 C47_2 1_555 1_555
C48_2 C47_2 1_555 1_555
C49_2 C48_2 1_555 1_555
H39_2 C49_2 1_555 1_555
C50_2 C45_2 1_555 1_555
H40_2 C50_2 1_555 1_555
C52_2 C48_2 1_555 1_555
Zn5 O6 1_555 1_555
C39_2 C51_2 1_555 1_555
C43_2 C44_2 1_555 1_555
C49_2 C50_2 1_555 1_555
C11 C9 1_555 1_555
H7 C11 1_555 1_555
H8 C11 1_555 1_555
Zn5 N1 1_555 1_555
N1 C1 1_555 1_555
C2 C1 1_555 1_555
C3 C2 1_555 1_555
C4 C3 1_555 1_555
H3 C4 1_555 1_555
C5 N1 1_555 1_555
H4 C5 1_555 1_555
C6 C3 1_555 1_555
H5 C6 1_555 1_555
C7 C6 1_555 1_555
H6 C7 1_555 1_555
C8 C7 1_555 1_555
C10 C8 1_555 1_555
C12 C10 1_555 1_555
H10 C12 1_555 1_555
H11 C12 1_555 1_555
H12_2 C12 1_555 1_555
C4 C5 1_555 1_555
Zn1 N1_2 1_555 1_555
N1_2 C1_2 1_555 1_555
O1_2 Zn1 1_555 1_555
O2 C25 1_555 1_555
O3 C26 1_555 1_555
O4 C26 1_555 1_555
C1_2 H1_2 1_555 1_555
C2_2 C1_2 1_555 1_555
H2_2 C2_2 1_555 1_555
C3_2 C2_2 1_555 1_555
C4_2 C3_2 1_555 1_555
H3_2 C4_2 1_555 1_555
C5_2 N1_2 1_555 1_555
H4_2 C5_2 1_555 1_555
C6_2 C3_2 1_555 1_555
H5_2 C6_2 1_555 1_555
C7_2 C6_2 1_555 1_555
H6_2 C7_2 1_555 1_555
C8_2 C7_2 1_555 1_555
C9_2 C8_2 1_555 1_555
C10_2 C8_2 1_555 1_555
C11_2 C9_2 1_555 1_555
H7_2 C11_2 1_555 1_555
H8_2 C11_2 1_555 1_555
H9 C11_2 1_555 1_555
C12_2 C10_2 1_555 1_555
H10_2 C12_2 1_555 1_555
H11_2 C12_2 1_555 1_555
C13 C14 1_555 1_555
C14 H13 1_555 1_555
C15 C14 1_555 1_555
H14 C15 1_555 1_555
C16 C15 1_555 1_555
C17 C16 1_555 1_555
H15 C17 1_555 1_555
C18 C13 1_555 1_555
H16 C18 1_555 1_555
C19 C16 1_555 1_555
C20 C19 1_555 1_555
H17 C20 1_555 1_555
C21 C20 1_555 1_555
H18 C21 1_555 1_555
C22 C21 1_555 1_555
C23 C22 1_555 1_555
H19 C23 1_555 1_555
C24 C19 1_555 1_555
H20 C24 1_555 1_555
C25 O1_2 1_555 1_555
C26 C22 1_555 1_555
O11 Zn1 1_555 1_555
C4_2 C5_2 1_555 1_555
C13 C25 1_555 1_555
C17 C18 1_555 1_555
C23 C24 1_555 1_555
N2_2 C27_2 1_555 1_555
C28_2 C27_2 1_555 1_555
C29_2 C28_2 1_555 1_555
C30_2 C29_2 1_555 1_555
H23_2 C30_2 1_555 1_555
C31_2 N2_2 1_555 1_555
H24_2 C31_2 1_555 1_555
C32_2 C29_2 1_555 1_555
H25_2 C32_2 1_555 1_555
C33_2 C32_2 1_555 1_555
H26_2 C33_2 1_555 1_555
C34_2 C33_2 1_555 1_555
C38_2 C36_2 1_555 1_555
H30_2 C38_2 1_555 1_555
H31_2 C38_2 1_555 1_555
H32_2 C38_2 1_555 1_555
Zn8 N2_2 1_555 1_555
O9 Zn8 1_555 1_555
C30_2 C31_2 1_555 1_555
C34_2 C36_2 1_555 1_555
C37_2 C35_2 1_555 1_555
H27_2 C37_2 1_555 1_555
H28_2 C37_2 1_555 1_555
O9 C25_2 1_555 1_555
O11 C26_2 1_555 1_555
O13 C26_2 1_555 1_555
C13_2 C14_2 1_555 1_555
C14_2 H13_2 1_555 1_555
C15_2 C14_2 1_555 1_555
H14_2 C15_2 1_555 1_555
C16_2 C15_2 1_555 1_555
C17_2 C16_2 1_555 1_555
H15_2 C17_2 1_555 1_555
C18_2 C13_2 1_555 1_555
H16_2 C18_2 1_555 1_555
C19_2 C16_2 1_555 1_555
C20_2 C19_2 1_555 1_555
H17_2 C20_2 1_555 1_555
C21_2 C20_2 1_555 1_555
H18_2 C21_2 1_555 1_555
C22_2 C21_2 1_555 1_555
C23_2 C22_2 1_555 1_555
H19_2 C23_2 1_555 1_555
C24_2 C19_2 1_555 1_555
H20_2 C24_2 1_555 1_555
C26_2 C22_2 1_555 1_555
C13_2 C25_2 1_555 1_555
C17_2 C18_2 1_555 1_555
C23_2 C24_2 1_555 1_555
O9_2 C25_3 1_555 1_555
O3_2 C26_3 1_555 1_555
O4_2 C26_3 1_555 1_555
C13_3 C14_3 1_555 1_555
C14_3 H13_3 1_555 1_555
C15_3 C14_3 1_555 1_555
H14_3 C15_3 1_555 1_555
C16_3 C15_3 1_555 1_555
C17_3 C16_3 1_555 1_555
H15_3 C17_3 1_555 1_555
C18_3 C13_3 1_555 1_555
H16_3 C18_3 1_555 1_555
C19_3 C16_3 1_555 1_555
C20_3 C19_3 1_555 1_555
H17_3 C20_3 1_555 1_555
C21_3 C20_3 1_555 1_555
H18_3 C21_3 1_555 1_555
C22_3 C21_3 1_555 1_555
C23_3 C22_3 1_555 1_555
H19_3 C23_3 1_555 1_555
C24_3 C19_3 1_555 1_555
H20_3 C24_3 1_555 1_555
C26_3 C22_3 1_555 1_555
Zn5_2 O3_2 1_555 1_555
C13_3 C25_3 1_555 1_555
C17_3 C18_3 1_555 1_555
C23_3 C24_3 1_555 1_555
O6_2 C51_3 1_555 1_555
O7_2 C52_3 1_555 1_555
O8_2 C52_3 1_555 1_555
C39_3 C40_3 1_555 1_555
C40_3 H33_3 1_555 1_555
C41_3 C40_3 1_555 1_555
H34_3 C41_3 1_555 1_555
C42_3 C41_3 1_555 1_555
C43_3 C42_3 1_555 1_555
H35_3 C43_3 1_555 1_555
C44_3 C39_3 1_555 1_555
H36_3 C44_3 1_555 1_555
C45_3 C42_3 1_555 1_555
C46_3 C45_3 1_555 1_555
H37_3 C46_3 1_555 1_555
C47_3 C46_3 1_555 1_555
H38_3 C47_3 1_555 1_555
C48_3 C47_3 1_555 1_555
C49_3 C48_3 1_555 1_555
H39_3 C49_3 1_555 1_555
C50_3 C45_3 1_555 1_555
H40_3 C50_3 1_555 1_555
C52_3 C48_3 1_555 1_555
Zn8_2 O7_2 1_555 1_555
C39_3 C51_3 1_555 1_555
C43_3 C44_3 1_555 1_555
C49_3 C50_3 1_555 1_555
O2_2 C25_4 1_555 1_555
O11_2 C26_4 1_555 1_555
O13_2 C26_4 1_555 1_555
C11_3 C9_3 1_555 1_555
H7_3 C11_3 1_555 1_555
H8_3 C11_3 1_555 1_555
C13_4 C14_4 1_555 1_555
C14_4 H13_4 1_555 1_555
C15_4 C14_4 1_555 1_555
H14_4 C15_4 1_555 1_555
C16_4 C15_4 1_555 1_555
C17_4 C16_4 1_555 1_555
H15_4 C17_4 1_555 1_555
C18_4 C13_4 1_555 1_555
H16_4 C18_4 1_555 1_555
C19_4 C16_4 1_555 1_555
C20_4 C19_4 1_555 1_555
H17_4 C20_4 1_555 1_555
C21_4 C20_4 1_555 1_555
H18_4 C21_4 1_555 1_555
C22_4 C21_4 1_555 1_555
C23_4 C22_4 1_555 1_555
H19_4 C23_4 1_555 1_555
C24_4 C19_4 1_555 1_555
H20_4 C24_4 1_555 1_555
C25_4 O1_3 1_555 1_555
C26_4 C22_4 1_555 1_555
Zn8_2 O2_2 1_555 1_555
C13_4 C25_4 1_555 1_555
C17_4 C18_4 1_555 1_555
C23_4 C24_4 1_555 1_555
Zn5_2 N1_3 1_555 1_555
N1_3 C1_3 1_555 1_555
C2_3 C1_3 1_555 1_555
C3_3 C2_3 1_555 1_555
C4_3 C3_3 1_555 1_555
H3_3 C4_3 1_555 1_555
C5_3 N1_3 1_555 1_555
H4_3 C5_3 1_555 1_555
C6_3 C3_3 1_555 1_555
H5_3 C6_3 1_555 1_555
C7_3 C6_3 1_555 1_555
H6_3 C7_3 1_555 1_555
C8_3 C7_3 1_555 1_555
C10_3 C8_3 1_555 1_555
C12_3 C10_3 1_555 1_555
H10_3 C12_3 1_555 1_555
H11_3 C12_3 1_555 1_555
O10_2 Zn5_2 1_555 1_555
C4_3 C5_3 1_555 1_555
N2_3 C27_3 1_555 1_555
C28_3 C27_3 1_555 1_555
C29_3 C28_3 1_555 1_555
C30_3 C29_3 1_555 1_555
H23_3 C30_3 1_555 1_555
C31_3 N2_3 1_555 1_555
H24_3 C31_3 1_555 1_555
C32_3 C29_3 1_555 1_555
H25_3 C32_3 1_555 1_555
C33_3 C32_3 1_555 1_555
H26_3 C33_3 1_555 1_555
C34_3 C33_3 1_555 1_555
C38_3 C36_3 1_555 1_555
H30_3 C38_3 1_555 1_555
H31_3 C38_3 1_555 1_555
Zn8_2 N2_3 1_555 1_555
C30_3 C31_3 1_555 1_555
C34_3 C36_3 1_555 1_555
C37_3 C35_3 1_555 1_555
H27_3 C37_3 1_555 1_555
H28_3 C37_3 1_555 1_555
O10_2 C51_4 1_555 1_555
O12_2 C52_4 1_555 1_555
O14_2 C52_4 1_555 1_555
C39_4 C40_4 1_555 1_555
C40_4 H33_4 1_555 1_555
C41_4 C40_4 1_555 1_555
H34_4 C41_4 1_555 1_555
C42_4 C41_4 1_555 1_555
C43_4 C42_4 1_555 1_555
H35_4 C43_4 1_555 1_555
C44_4 C39_4 1_555 1_555
H36_4 C44_4 1_555 1_555
C45_4 C42_4 1_555 1_555
C46_4 C45_4 1_555 1_555
H37_4 C46_4 1_555 1_555
C47_4 C46_4 1_555 1_555
H38_4 C47_4 1_555 1_555
C48_4 C47_4 1_555 1_555
C49_4 C48_4 1_555 1_555
H39_4 C49_4 1_555 1_555
C50_4 C45_4 1_555 1_555
H40_4 C50_4 1_555 1_555
C51_4 O5_3 1_555 1_555
C52_4 C48_4 1_555 1_555
C39_4 C51_4 1_555 1_555
C43_4 C44_4 1_555 1_555
C49_4 C50_4 1_555 1_555
Zn3 N1_4 1_555 1_555
N1_4 C1_4 1_555 1_555
O1_4 Zn3 1_555 1_555
C1_4 H1_4 1_555 1_555
C2_4 C1_4 1_555 1_555
H2_4 C2_4 1_555 1_555
C3_4 C2_4 1_555 1_555
C4_4 C3_4 1_555 1_555
H3_4 C4_4 1_555 1_555
C5_4 N1_4 1_555 1_555
H4_4 C5_4 1_555 1_555
C6_4 C3_4 1_555 1_555
H5_4 C6_4 1_555 1_555
C7_4 C6_4 1_555 1_555
H6_4 C7_4 1_555 1_555
C8_4 C7_4 1_555 1_555
C9_4 C8_4 1_555 1_555
C10_4 C8_4 1_555 1_555
C11_4 C9_4 1_555 1_555
H7_4 C11_4 1_555 1_555
H8_4 C11_4 1_555 1_555
H9_3 C11_4 1_555 1_555
C12_4 C10_4 1_555 1_555
H10_4 C12_4 1_555 1_555
H11_4 C12_4 1_555 1_555
H12_3 C12_4 1_555 1_555
N2_4 C27_4 1_555 1_555
C27_4 H21_4 1_555 1_555
C28_4 C27_4 1_555 1_555
H22_4 C28_4 1_555 1_555
C29_4 C28_4 1_555 1_555
C30_4 C29_4 1_555 1_555
H23_4 C30_4 1_555 1_555
C31_4 N2_4 1_555 1_555
H24_4 C31_4 1_555 1_555
C32_4 C29_4 1_555 1_555
H25_4 C32_4 1_555 1_555
C33_4 C32_4 1_555 1_555
H26_4 C33_4 1_555 1_555
C34_4 C33_4 1_555 1_555
C35_4 C10_4 1_555 1_555
C36_4 C9_4 1_555 1_555
C37_4 C35_4 1_555 1_555
H27_4 C37_4 1_555 1_555
H28_4 C37_4 1_555 1_555
H29_3 C37_4 1_555 1_555
C38_4 C36_4 1_555 1_555
H30_4 C38_4 1_555 1_555
H31_4 C38_4 1_555 1_555
H32_3 C38_4 1_555 1_555
Zn2 N2_4 1_555 1_555
O5_4 Zn2 1_555 1_555
C4_4 C5_4 1_555 1_555
C30_4 C31_4 1_555 1_555
C34_4 C35_4 1_555 1_555
C34_4 C36_4 1_555 1_555

#END
