
###############################################################################
#
# This file contains modified crystal structure data generated from the
# MOF subset of the Cambridge Structural Database (CSD) v543 
# hosted by the Cambridge Crystallographic Data Centre (CCDC).
#
# This work is licensed under the Creative Commons
# Attribution-NonCommercial-ShareAlike 4.0 International License.
# To view a copy of this license, visit
# http://creativecommons.org/licenses/by-nc-sa/4.0/
# or send a letter to
# Creative Commons, PO Box 1866, Mountain View, CA 94042, USA.
#
# CIF created using the CSD Python API on 29 September 2022
# The structure has been converted into the P1 space group
# The structure has a 3D framework
# The original CSD entry POMCUR is in the orthorhombic crystal system
# The framework has been calculated to contain at least 10.0% void space
# The void calculation uses a probe of radius 1.32A, grid spacing 0.4
#
###############################################################################

data_POMCUR
_chemical_formula_moiety         '(C352 H308 Cd12 F96 N58 Si31)n'
_symmetry_cell_setting           triclinic
_symmetry_space_group_name_H-M   'P 1'
_symmetry_Int_Tables_number      1
_space_group_name_Hall           'P 1'
loop_
_symmetry_equiv_pos_site_id
_symmetry_equiv_pos_as_xyz
1 x,y,z
_cell_length_a                   17.3656(8)
_cell_length_b                   24.5676(16)
_cell_length_c                   24.9693(16)
_cell_angle_alpha                90
_cell_angle_beta                 90
_cell_angle_gamma                90
_cell_volume                     10652.7
loop_
_atom_site_label
_atom_site_type_symbol
_atom_site_fract_x
_atom_site_fract_y
_atom_site_fract_z
C1 C 0.2119(5) 0.3562(4) 0.7065(3)
H1 H 0.1851 0.3360 0.7319
C2 C 0.3035(4) 0.4275(3) 0.6878(3)
C3 C 0.2634(5) 0.3966(4) 0.7241(4)
H2 H 0.2704 0.4024 0.7605
C4 C 0.2893(5) 0.4166(3) 0.6341(3)
H3 H 0.3139 0.4369 0.6077
C5 C 0.2387(5) 0.3759(3) 0.6198(3)
H4 H 0.2308 0.3690 0.5836
C6 C 0.3607(4) 0.4686(3) 0.7049(3)
C7 C 0.4148(4) 0.4883(3) 0.6696(3)
H5 H 0.4126 0.4781 0.6337
C8 C 0.4736(4) 0.5238(3) 0.6870(3)
C9 C 0.4748(6) 0.5399(4) 0.7395(4)
H6 H 0.5135 0.5631 0.7515
C10 C 0.4193(7) 0.5221(5) 0.7748(4)
H7 H 0.4196 0.5345 0.8099
C11 C 0.3628(6) 0.4858(4) 0.7582(4)
H8 H 0.3266 0.4729 0.7826
Cd1 Cd 0.1250 0.27428(3) 0.6250
F1 F 0.0706(3) 0.27256(19) 0.70852(19)
N1 N 0.2005(4) 0.3458(2) 0.6557(3)
N2 N 0.5317(3) 0.5404(3) 0.6501(2)
H9 H 0.5550 0.5683 0.6611
H10 H 0.5190 0.5445 0.6179
Si1 Si 0.0000 0.2500 0.7500
F5 F 0.0612(3) 0.2070(2) 0.7789(2)
F6 F 0.0228(3) 0.2990(2) 0.7931(2)
C12 C 0.5381(5) 0.3938(4) 0.7065(3)
H11 H 0.5649 0.4140 0.7319
C13 C 0.4465(4) 0.3225(3) 0.6878(3)
C14 C 0.4866(5) 0.3534(4) 0.7241(4)
H12 H 0.4796 0.3476 0.7605
C15 C 0.4607(5) 0.3334(3) 0.6341(3)
H13 H 0.4361 0.3131 0.6077
C16 C 0.5113(5) 0.3741(3) 0.6198(3)
H14 H 0.5192 0.3810 0.5836
C17 C 0.3893(4) 0.2814(3) 0.7049(3)
C18 C 0.3352(4) 0.2617(3) 0.6696(3)
H15 H 0.3374 0.2719 0.6337
C19 C 0.2764(4) 0.2262(3) 0.6870(3)
C20 C 0.2752(6) 0.2101(4) 0.7395(4)
H16 H 0.2365 0.1869 0.7515
C21 C 0.3307(7) 0.2279(5) 0.7748(4)
H17 H 0.3304 0.2155 0.8099
C22 C 0.3872(6) 0.2642(4) 0.7582(4)
H18 H 0.4234 0.2771 0.7826
N3 N 0.5495(4) 0.4042(2) 0.6557(3)
N4 N 0.2183(3) 0.2096(3) 0.6501(2)
H19 H 0.1950 0.1817 0.6611
H20 H 0.2310 0.2055 0.6179
Cd2 Cd 0.6250 0.47572(3) 0.6250
F7 F 0.1794(3) 0.27256(19) 0.54148(19)
N5 N 0.0495(4) 0.3458(2) 0.5943(3)
N6 N 0.0317(3) 0.2096(3) 0.5999(2)
F1_2 F 0.6794(3) 0.47744(19) 0.70852(19)
F2 F 0.8112(3) 0.4570(2) 0.7211(2)
F3 F 0.7728(3) 0.5490(2) 0.7069(2)
Si1_2 Si 0.7500 0.5000 0.7500
F4 F 0.8206(3) 0.52256(19) 0.79148(19)
F5_2 F 0.6888(3) 0.5430(2) 0.7789(2)
F6_2 F 0.7272(3) 0.4510(2) 0.7931(2)
Cd3 Cd 0.8750 0.52428(3) 0.8750
F7_2 F 0.5706(3) 0.47744(19) 0.54148(19)
N5_2 N 0.7005(4) 0.4042(2) 0.5943(3)
N6_2 N 0.7183(3) 0.5404(3) 0.5999(2)
C1_2 C 0.5381(5) 0.3562(4) 0.0435(3)
H1_2 H 0.5649 0.3360 0.0181
C2_2 C 0.4465(4) 0.4275(3) 0.0622(3)
C3_2 C 0.4866(5) 0.3966(4) 0.0259(4)
C4_2 C 0.4607(5) 0.4166(3) 0.1159(3)
H3_2 H 0.4361 0.4369 0.1423
C5_2 C 0.5113(5) 0.3759(3) 0.1302(3)
H4_2 H 0.5192 0.3690 0.1664
C6_2 C 0.3893(4) 0.4686(3) 0.0451(3)
C7_2 C 0.3352(4) 0.4883(3) 0.0804(3)
H5_2 H 0.3374 0.4781 0.1163
C8_2 C 0.2764(4) 0.5238(3) 0.0630(3)
C9_2 C 0.2752(6) 0.5399(4) 0.0105(4)
Cd1_2 Cd 0.6250 0.27428(3) 0.1250
F1_3 F 0.6794(3) 0.27256(19) 0.04148(19)
F2_2 F 0.8112(3) 0.2930(2) 0.0289(2)
F3_2 F 0.7728(3) 0.2010(2) 0.0431(2)
N1_2 N 0.5495(4) 0.3458(2) 0.0943(3)
N2_2 N 0.2183(3) 0.5404(3) 0.0999(2)
H9_2 H 0.1950 0.5683 0.0889
H10_2 H 0.2310 0.5445 0.1321
Si1_3 Si 0.7500 0.2500 0.0000
C12_2 C 0.2119(5) 0.3938(4) 0.0435(3)
H11_2 H 0.1851 0.4140 0.0181
C13_2 C 0.3035(4) 0.3225(3) 0.0622(3)
C14_2 C 0.2634(5) 0.3534(4) 0.0259(4)
C15_2 C 0.2893(5) 0.3334(3) 0.1159(3)
H13_2 H 0.3139 0.3131 0.1423
C16_2 C 0.2387(5) 0.3741(3) 0.1302(3)
H14_2 H 0.2308 0.3810 0.1664
C17_2 C 0.3607(4) 0.2814(3) 0.0451(3)
C18_2 C 0.4148(4) 0.2617(3) 0.0804(3)
H15_2 H 0.4126 0.2719 0.1163
C19_2 C 0.4736(4) 0.2262(3) 0.0630(3)
C20_2 C 0.4748(6) 0.2101(4) 0.0105(4)
N3_2 N 0.2005(4) 0.4042(2) 0.0943(3)
N4_2 N 0.5317(3) 0.2096(3) 0.0999(2)
H19_2 H 0.5550 0.1817 0.0889
H20_2 H 0.5190 0.2055 0.1321
Cd2_2 Cd 0.1250 0.47572(3) 0.1250
F7_3 F 0.5706(3) 0.27256(19) 0.20852(19)
N5_3 N 0.7005(4) 0.3458(2) 0.1557(3)
N6_3 N 0.7183(3) 0.2096(3) 0.1501(2)
F1_4 F 0.0706(3) 0.47744(19) 0.04148(19)
Si1_4 Si 0.0000 0.5000 0.0000
F7_4 F 0.1794(3) 0.47744(19) 0.20852(19)
N5_4 N 0.0495(4) 0.4042(2) 0.1557(3)
N6_4 N 0.0317(3) 0.5404(3) 0.1501(2)
Si1_5 Si 1.0000 0.5000 1.0000
F4_2 F 0.9294(3) 0.52256(19) 0.95852(19)
C8_3 C 0.4736(4) 0.0238(3) 0.1870(3)
C9_3 C 0.4748(6) 0.0399(4) 0.2395(4)
H6_2 H 0.5135 0.0631 0.2515
C10_2 C 0.4193(7) 0.0221(5) 0.2748(4)
H7_2 H 0.4196 0.0345 0.3099
N2_3 N 0.5317(3) 0.0404(3) 0.1501(2)
H9_3 H 0.5550 0.0683 0.1611
H10_3 H 0.5190 0.0445 0.1179
F2_3 F 0.9388(3) 0.7930(2) 0.2211(2)
F3_3 F 0.9772(3) 0.7010(2) 0.2069(2)
Si1_6 Si 1.0000 0.7500 0.2500
F4_3 F 0.9294(3) 0.72744(19) 0.29148(19)
Cd3_2 Cd 0.8750 0.72572(3) 0.3750
F3_4 F 0.7728(3) 0.0490(2) 0.2069(2)
Si1_7 Si 0.7500 0.0000 0.2500
F4_4 F 0.8206(3) 0.02256(19) 0.29148(19)
F5_3 F 0.6888(3) 0.0430(2) 0.2789(2)
Cd3_3 Cd 0.8750 0.02428(3) 0.3750
N6_5 N 0.7183(3) 0.0404(3) 0.0999(2)
C1_3 C 0.5381(5) 0.8562(4) 0.5435(3)
H1_3 H 0.5649 0.8360 0.5181
C2_3 C 0.4465(4) 0.9275(3) 0.5622(3)
C3_3 C 0.4866(5) 0.8966(4) 0.5259(4)
H2_2 H 0.4796 0.9024 0.4895
C4_3 C 0.4607(5) 0.9166(3) 0.6159(3)
H3_3 H 0.4361 0.9369 0.6423
C5_3 C 0.5113(5) 0.8759(3) 0.6302(3)
H4_3 H 0.5192 0.8690 0.6664
C6_3 C 0.3893(4) 0.9686(3) 0.5451(3)
C7_3 C 0.3352(4) 0.9883(3) 0.5804(3)
H5_3 H 0.3374 0.9781 0.6163
C11_2 C 0.3872(6) 0.9858(4) 0.4918(4)
H8_2 H 0.4234 0.9729 0.4674
Cd1_3 Cd 0.6250 0.77428(3) 0.6250
F1_5 F 0.6794(3) 0.77256(19) 0.54148(19)
F2_4 F 0.8112(3) 0.7930(2) 0.5289(2)
F3_5 F 0.7728(3) 0.7010(2) 0.5431(2)
N1_3 N 0.5495(4) 0.8458(2) 0.5943(3)
Si1_8 Si 0.7500 0.7500 0.5000
F4_5 F 0.8206(3) 0.72744(19) 0.45852(19)
F5_4 F 0.6888(3) 0.7070(2) 0.4711(2)
F6_3 F 0.7272(3) 0.7990(2) 0.4569(2)
C12_3 C 0.2119(5) 0.8938(4) 0.5435(3)
H11_3 H 0.1851 0.9140 0.5181
C13_3 C 0.3035(4) 0.8225(3) 0.5622(3)
C14_3 C 0.2634(5) 0.8534(4) 0.5259(4)
H12_2 H 0.2704 0.8476 0.4895
C15_3 C 0.2893(5) 0.8334(3) 0.6159(3)
H13_3 H 0.3139 0.8131 0.6423
C16_3 C 0.2387(5) 0.8741(3) 0.6302(3)
H14_3 H 0.2308 0.8810 0.6664
C17_3 C 0.3607(4) 0.7814(3) 0.5451(3)
C18_3 C 0.4148(4) 0.7617(3) 0.5804(3)
H15_3 H 0.4126 0.7719 0.6163
C19_3 C 0.4736(4) 0.7262(3) 0.5630(3)
C20_3 C 0.4748(6) 0.7101(4) 0.5105(4)
H16_2 H 0.5135 0.6869 0.4985
C21_2 C 0.4193(7) 0.7279(5) 0.4752(4)
H17_2 H 0.4196 0.7155 0.4401
C22_2 C 0.3628(6) 0.7642(4) 0.4918(4)
H18_2 H 0.3266 0.7771 0.4674
N3_3 N 0.2005(4) 0.9042(2) 0.5943(3)
N4_3 N 0.5317(3) 0.7096(3) 0.5999(2)
H19_3 H 0.5550 0.6817 0.5889
H20_3 H 0.5190 0.7055 0.6321
Cd2_3 Cd 0.1250 0.97572(3) 0.6250
F7_5 F 0.5706(3) 0.77256(19) 0.70852(19)
N5_5 N 0.7005(4) 0.8458(2) 0.6557(3)
N6_6 N 0.7183(3) 0.7096(3) 0.6501(2)
F1_6 F 0.0706(3) 0.97744(19) 0.54148(19)
Si1_9 Si 0.0000 1.0000 0.5000
F6_4 F 0.0228(3) 0.9510(2) 0.4569(2)
F7_6 F 0.1794(3) 0.97744(19) 0.70852(19)
N5_6 N 0.0495(4) 0.9042(2) 0.6557(3)
F3_6 F 0.9772(3) 0.0490(2) 0.5431(2)
Si1_10 Si 1.0000 0.0000 0.5000
F4_6 F 0.9294(3) 0.02256(19) 0.45852(19)
H6_3 H 0.0135 0.5631 0.2515
H9_4 H 0.0550 0.5683 0.1611
H10_4 H 0.0190 0.5445 0.1179
C12_4 C 0.0381(5) 0.3938(4) 0.2065(3)
H11_4 H 0.0649 0.4140 0.2319
C16_4 C 0.0113(5) 0.3741(3) 0.1198(3)
H14_4 H 0.0192 0.3810 0.0836
C1_4 C 0.7119(5) 0.3562(4) 0.2065(3)
H1_4 H 0.6851 0.3360 0.2319
C2_4 C 0.8035(4) 0.4275(3) 0.1878(3)
C3_4 C 0.7634(5) 0.3966(4) 0.2241(4)
H2_3 H 0.7704 0.4024 0.2605
C4_4 C 0.7893(5) 0.4166(3) 0.1341(3)
H3_4 H 0.8139 0.4369 0.1077
C5_4 C 0.7387(5) 0.3759(3) 0.1198(3)
H4_4 H 0.7308 0.3690 0.0836
C6_4 C 0.8607(4) 0.4686(3) 0.2049(3)
C7_4 C 0.9148(4) 0.4883(3) 0.1696(3)
H5_4 H 0.9126 0.4781 0.1337
C8_4 C 0.9736(4) 0.5238(3) 0.1870(3)
C9_4 C 0.9748(6) 0.5399(4) 0.2395(4)
C10_3 C 0.9193(7) 0.5221(5) 0.2748(4)
H7_3 H 0.9196 0.5345 0.3099
C11_3 C 0.8628(6) 0.4858(4) 0.2582(4)
H8_3 H 0.8266 0.4729 0.2826
F2_5 F 0.4388(3) 0.2930(2) 0.2211(2)
F3_7 F 0.4772(3) 0.2010(2) 0.2069(2)
Si1_11 Si 0.5000 0.2500 0.2500
F4_7 F 0.4294(3) 0.22744(19) 0.29148(19)
F5_5 F 0.5612(3) 0.2070(2) 0.2789(2)
F6_5 F 0.5228(3) 0.2990(2) 0.2931(2)
C13_4 C 0.9465(4) 0.3225(3) 0.1878(3)
C14_4 C 0.9866(5) 0.3534(4) 0.2241(4)
H12_3 H 0.9796 0.3476 0.2605
C15_4 C 0.9607(5) 0.3334(3) 0.1341(3)
H13_4 H 0.9361 0.3131 0.1077
C17_4 C 0.8893(4) 0.2814(3) 0.2049(3)
C18_4 C 0.8352(4) 0.2617(3) 0.1696(3)
H15_4 H 0.8374 0.2719 0.1337
C19_4 C 0.7764(4) 0.2262(3) 0.1870(3)
C20_4 C 0.7752(6) 0.2101(4) 0.2395(4)
H16_3 H 0.7365 0.1869 0.2515
C21_3 C 0.8307(7) 0.2279(5) 0.2748(4)
H17_3 H 0.8304 0.2155 0.3099
C22_3 C 0.8872(6) 0.2642(4) 0.2582(4)
H18_3 H 0.9234 0.2771 0.2826
H19_4 H 0.6950 0.1817 0.1611
H20_4 H 0.7310 0.2055 0.1179
Cd3_4 Cd 0.3750 0.22572(3) 0.3750
F2_6 F 0.3112(3) 0.4570(2) 0.2211(2)
F3_8 F 0.2728(3) 0.5490(2) 0.2069(2)
Si1_12 Si 0.2500 0.5000 0.2500
F4_8 F 0.3206(3) 0.52256(19) 0.29148(19)
F5_6 F 0.1888(3) 0.5430(2) 0.2789(2)
F6_6 F 0.2272(3) 0.4510(2) 0.2931(2)
Cd3_5 Cd 0.3750 0.52428(3) 0.3750
C1_5 C 0.0381(5) 0.3562(4) 0.5435(3)
H1_5 H 0.0649 0.3360 0.5181
C5_5 C 0.0113(5) 0.3759(3) 0.6302(3)
H4_5 H 0.0192 0.3690 0.6664
F2_7 F 0.3112(3) 0.2930(2) 0.5289(2)
F3_9 F 0.2728(3) 0.2010(2) 0.5431(2)
Si1_13 Si 0.2500 0.2500 0.5000
F4_9 F 0.3206(3) 0.22744(19) 0.45852(19)
F5_7 F 0.1888(3) 0.2070(2) 0.4711(2)
F6_7 F 0.2272(3) 0.2990(2) 0.4569(2)
H16_4 H 0.0135 0.1869 0.4985
H19_5 H 0.0550 0.1817 0.5889
H20_5 H 0.0190 0.2055 0.6321
C2_5 C 0.9465(4) 0.4275(3) 0.5622(3)
C3_5 C 0.9866(5) 0.3966(4) 0.5259(4)
H2_4 H 0.9796 0.4024 0.4895
C4_5 C 0.9607(5) 0.4166(3) 0.6159(3)
H3_5 H 0.9361 0.4369 0.6423
C6_5 C 0.8893(4) 0.4686(3) 0.5451(3)
C7_5 C 0.8352(4) 0.4883(3) 0.5804(3)
H5_5 H 0.8374 0.4781 0.6163
C8_5 C 0.7764(4) 0.5238(3) 0.5630(3)
C9_5 C 0.7752(6) 0.5399(4) 0.5105(4)
H6_4 H 0.7365 0.5631 0.4985
C10_4 C 0.8307(7) 0.5221(5) 0.4752(4)
H7_4 H 0.8304 0.5345 0.4401
C11_4 C 0.8872(6) 0.4858(4) 0.4918(4)
H8_4 H 0.9234 0.4729 0.4674
H9_5 H 0.6950 0.5683 0.5889
H10_5 H 0.7310 0.5445 0.6321
C12_5 C 0.7119(5) 0.3938(4) 0.5435(3)
H11_5 H 0.6851 0.4140 0.5181
C13_5 C 0.8035(4) 0.3225(3) 0.5622(3)
C14_5 C 0.7634(5) 0.3534(4) 0.5259(4)
H12_4 H 0.7704 0.3476 0.4895
C15_5 C 0.7893(5) 0.3334(3) 0.6159(3)
H13_5 H 0.8139 0.3131 0.6423
C16_5 C 0.7387(5) 0.3741(3) 0.6302(3)
H14_5 H 0.7308 0.3810 0.6664
C17_5 C 0.8607(4) 0.2814(3) 0.5451(3)
C18_5 C 0.9148(4) 0.2617(3) 0.5804(3)
H15_5 H 0.9126 0.2719 0.6163
C19_5 C 0.9736(4) 0.2262(3) 0.5630(3)
C20_5 C 0.9748(6) 0.2101(4) 0.5105(4)
C21_4 C 0.9193(7) 0.2279(5) 0.4752(4)
H17_4 H 0.9196 0.2155 0.4401
C22_4 C 0.8628(6) 0.2642(4) 0.4918(4)
H18_4 H 0.8266 0.2771 0.4674
F2_8 F 0.4388(3) 0.4570(2) 0.5289(2)
F3_10 F 0.4772(3) 0.5490(2) 0.5431(2)
Si1_14 Si 0.5000 0.5000 0.5000
F4_10 F 0.4294(3) 0.52256(19) 0.45852(19)
F5_8 F 0.5612(3) 0.5430(2) 0.4711(2)
F6_8 F 0.5228(3) 0.4510(2) 0.4569(2)
C12_6 C 0.0381(5) 0.8938(4) 0.7065(3)
H11_6 H 0.0649 0.9140 0.7319
C16_6 C 0.0113(5) 0.8741(3) 0.6198(3)
H14_6 H 0.0192 0.8810 0.5836
C1_6 C 0.7119(5) 0.8562(4) 0.7065(3)
H1_6 H 0.6851 0.8360 0.7319
C2_6 C 0.8035(4) 0.9275(3) 0.6878(3)
C3_6 C 0.7634(5) 0.8966(4) 0.7241(4)
H2_5 H 0.7704 0.9024 0.7605
C4_6 C 0.7893(5) 0.9166(3) 0.6341(3)
H3_6 H 0.8139 0.9369 0.6077
C5_6 C 0.7387(5) 0.8759(3) 0.6198(3)
H4_6 H 0.7308 0.8690 0.5836
C6_6 C 0.8607(4) 0.9686(3) 0.7049(3)
C7_6 C 0.9148(4) 0.9883(3) 0.6696(3)
H5_6 H 0.9126 0.9781 0.6337
C11_5 C 0.8628(6) 0.9858(4) 0.7582(4)
H8_5 H 0.8266 0.9729 0.7826
F2_9 F 0.4388(3) 0.7930(2) 0.7211(2)
F3_11 F 0.4772(3) 0.7010(2) 0.7069(2)
Si1_15 Si 0.5000 0.7500 0.7500
F4_11 F 0.4294(3) 0.72744(19) 0.79148(19)
F5_9 F 0.5612(3) 0.7070(2) 0.7789(2)
F6_9 F 0.5228(3) 0.7990(2) 0.7931(2)
C13_6 C 0.9465(4) 0.8225(3) 0.6878(3)
C14_6 C 0.9866(5) 0.8534(4) 0.7241(4)
H12_5 H 0.9796 0.8476 0.7605
C15_6 C 0.9607(5) 0.8334(3) 0.6341(3)
H13_6 H 0.9361 0.8131 0.6077
C17_6 C 0.8893(4) 0.7814(3) 0.7049(3)
C18_6 C 0.8352(4) 0.7617(3) 0.6696(3)
H15_6 H 0.8374 0.7719 0.6337
C19_6 C 0.7764(4) 0.7262(3) 0.6870(3)
C20_6 C 0.7752(6) 0.7101(4) 0.7395(4)
H16_5 H 0.7365 0.6869 0.7515
C21_5 C 0.8307(7) 0.7279(5) 0.7748(4)
H17_5 H 0.8304 0.7155 0.8099
C22_5 C 0.8872(6) 0.7642(4) 0.7582(4)
H18_5 H 0.9234 0.7771 0.7826
H19_6 H 0.6950 0.6817 0.6611
H20_6 H 0.7310 0.7055 0.6179
Cd3_6 Cd 0.3750 0.72572(3) 0.8750
F2_10 F 0.3112(3) 0.9570(2) 0.7211(2)
Si1_16 Si 0.2500 1.0000 0.7500
F6_10 F 0.2272(3) 0.9510(2) 0.7931(2)
Si1_17 Si 0.2500 0.7500 1.0000
F4_12 F 0.3206(3) 0.72744(19) 0.95852(19)
F5_10 F 0.1888(3) 0.7070(2) 0.9711(2)
F6_11 F 0.2272(3) 0.7990(2) 0.9569(2)
H16_6 H 0.0135 0.6869 0.9985
C8_6 C 0.7764(4) 0.0238(3) 0.0630(3)
C9_6 C 0.7752(6) 0.0399(4) 0.0105(4)
H9_6 H 0.6950 0.0683 0.0889
H10_6 H 0.7310 0.0445 0.1321
H2_6 H 0.9796 0.9024 0.9895
C11_6 C 0.8872(6) 0.9858(4) 0.9918(4)
H8_6 H 0.9234 0.9729 0.9674
H12_6 H 0.7704 0.8476 0.9895
C21_6 C 0.9193(7) 0.7279(5) 0.9752(4)
H17_6 H 0.9196 0.7155 0.9401
C22_6 C 0.8628(6) 0.7642(4) 0.9918(4)
H18_6 H 0.8266 0.7771 0.9674
F3_12 F 0.4772(3) 0.0490(2) 0.0431(2)
Si1_18 Si 0.5000 0.0000 0.0000
Si1_19 Si 0.5000 1.0000 1.0000
F6_12 F 0.5228(3) 0.9510(2) 0.9569(2)
C1_7 C 0.7881(5) 0.6438(4) 0.2935(3)
H1_7 H 0.8149 0.6640 0.2681
C2_7 C 0.6965(4) 0.5725(3) 0.3122(3)
C3_7 C 0.7366(5) 0.6034(4) 0.2759(4)
H2_7 H 0.7296 0.5976 0.2395
C4_7 C 0.7107(5) 0.5834(3) 0.3659(3)
H3_7 H 0.6861 0.5631 0.3923
C5_7 C 0.7613(5) 0.6241(3) 0.3802(3)
H4_7 H 0.7692 0.6310 0.4164
C6_7 C 0.6393(4) 0.5314(3) 0.2951(3)
C7_7 C 0.5852(4) 0.5117(3) 0.3304(3)
H5_7 H 0.5874 0.5219 0.3663
C8_7 C 0.5264(4) 0.4762(3) 0.3130(3)
C9_7 C 0.5252(6) 0.4601(4) 0.2605(4)
H6_5 H 0.4865 0.4369 0.2485
C10_5 C 0.5807(7) 0.4779(5) 0.2252(4)
H7_5 H 0.5804 0.4655 0.1901
C11_7 C 0.6372(6) 0.5142(4) 0.2418(4)
H8_7 H 0.6734 0.5271 0.2174
N1_4 N 0.7995(4) 0.6542(2) 0.3443(3)
N2_4 N 0.4683(3) 0.4596(3) 0.3499(2)
H9_7 H 0.4450 0.4317 0.3389
H10_7 H 0.4810 0.4555 0.3821
C12_7 C 0.4619(5) 0.6062(4) 0.2935(3)
H11_7 H 0.4351 0.5860 0.2681
C13_7 C 0.5535(4) 0.6775(3) 0.3122(3)
C14_7 C 0.5134(5) 0.6466(4) 0.2759(4)
H12_7 H 0.5204 0.6524 0.2395
C15_7 C 0.5393(5) 0.6666(3) 0.3659(3)
H13_7 H 0.5639 0.6869 0.3923
C16_7 C 0.4887(5) 0.6259(3) 0.3802(3)
H14_7 H 0.4808 0.6190 0.4164
C17_7 C 0.6107(4) 0.7186(3) 0.2951(3)
C18_7 C 0.6648(4) 0.7383(3) 0.3304(3)
H15_7 H 0.6626 0.7281 0.3663
C19_7 C 0.7236(4) 0.7738(3) 0.3130(3)
C20_7 C 0.7248(6) 0.7899(4) 0.2605(4)
H16_7 H 0.7635 0.8131 0.2485
C21_7 C 0.6693(7) 0.7721(5) 0.2252(4)
H17_7 H 0.6696 0.7845 0.1901
C22_7 C 0.6128(6) 0.7358(4) 0.2418(4)
H18_7 H 0.5766 0.7229 0.2174
N3_4 N 0.4505(4) 0.5958(2) 0.3443(3)
N4_4 N 0.7817(3) 0.7904(3) 0.3499(2)
H19_7 H 0.8050 0.8183 0.3389
H20_7 H 0.7690 0.7945 0.3821
N5_7 N 0.9505(4) 0.6542(2) 0.4057(3)
N6_7 N 0.9683(3) 0.7904(3) 0.4001(2)
N5_8 N 0.2995(4) 0.5958(2) 0.4057(3)
N6_8 N 0.2817(3) 0.4596(3) 0.4001(2)
C1_8 C 0.4619(5) 0.6438(4) 0.9565(3)
H1_8 H 0.4351 0.6640 0.9819
C2_8 C 0.5535(4) 0.5725(3) 0.9378(3)
C3_8 C 0.5134(5) 0.6034(4) 0.9741(4)
C4_8 C 0.5393(5) 0.5834(3) 0.8841(3)
H3_8 H 0.5639 0.5631 0.8577
C5_8 C 0.4887(5) 0.6241(3) 0.8698(3)
H4_8 H 0.4808 0.6310 0.8336
C6_8 C 0.6107(4) 0.5314(3) 0.9549(3)
C7_8 C 0.6648(4) 0.5117(3) 0.9196(3)
H5_8 H 0.6626 0.5219 0.8837
C8_8 C 0.7236(4) 0.4762(3) 0.9370(3)
C9_8 C 0.7248(6) 0.4601(4) 0.9895(4)
N1_5 N 0.4505(4) 0.6542(2) 0.9057(3)
N2_5 N 0.7817(3) 0.4596(3) 0.9001(2)
H9_8 H 0.8050 0.4317 0.9111
H10_8 H 0.7690 0.4555 0.8679
C12_8 C 0.7881(5) 0.6062(4) 0.9565(3)
H11_8 H 0.8149 0.5860 0.9819
C13_8 C 0.6965(4) 0.6775(3) 0.9378(3)
C14_8 C 0.7366(5) 0.6466(4) 0.9741(4)
C15_8 C 0.7107(5) 0.6666(3) 0.8841(3)
H13_8 H 0.6861 0.6869 0.8577
C16_8 C 0.7613(5) 0.6259(3) 0.8698(3)
H14_8 H 0.7692 0.6190 0.8336
C17_8 C 0.6393(4) 0.7186(3) 0.9549(3)
C18_8 C 0.5852(4) 0.7383(3) 0.9196(3)
H15_8 H 0.5874 0.7281 0.8837
C19_8 C 0.5264(4) 0.7738(3) 0.9370(3)
C20_8 C 0.5252(6) 0.7899(4) 0.9895(4)
N3_5 N 0.7995(4) 0.5958(2) 0.9057(3)
N4_5 N 0.4683(3) 0.7904(3) 0.9001(2)
H19_8 H 0.4450 0.8183 0.9111
H20_8 H 0.4810 0.7945 0.8679
N5_9 N 0.2995(4) 0.6542(2) 0.8443(3)
N6_9 N 0.2817(3) 0.7904(3) 0.8499(2)
N5_10 N 0.9505(4) 0.5958(2) 0.8443(3)
N6_10 N 0.9683(3) 0.4596(3) 0.8499(2)
C8_9 C 0.5264(4) 0.9762(3) 0.8130(3)
C9_9 C 0.5252(6) 0.9601(4) 0.7605(4)
H6_6 H 0.4865 0.9369 0.7485
C10_6 C 0.5807(7) 0.9779(5) 0.7252(4)
H7_6 H 0.5804 0.9655 0.6901
N2_6 N 0.4683(3) 0.9596(3) 0.8499(2)
H9_9 H 0.4450 0.9317 0.8389
H10_9 H 0.4810 0.9555 0.8821
N6_11 N 0.2817(3) 0.9596(3) 0.9001(2)
C1_9 C 0.4619(5) 0.1438(4) 0.4565(3)
H1_9 H 0.4351 0.1640 0.4819
C2_9 C 0.5535(4) 0.0725(3) 0.4378(3)
C3_9 C 0.5134(5) 0.1034(4) 0.4741(4)
H2_8 H 0.5204 0.0976 0.5105
C4_9 C 0.5393(5) 0.0834(3) 0.3841(3)
H3_9 H 0.5639 0.0631 0.3577
C5_9 C 0.4887(5) 0.1241(3) 0.3698(3)
H4_9 H 0.4808 0.1310 0.3336
C6_9 C 0.6107(4) 0.0314(3) 0.4549(3)
C7_9 C 0.6648(4) 0.0117(3) 0.4196(3)
H5_9 H 0.6626 0.0219 0.3837
C11_8 C 0.6128(6) 0.0142(4) 0.5082(4)
H8_8 H 0.5766 0.0271 0.5326
N1_6 N 0.4505(4) 0.1542(2) 0.4057(3)
C12_9 C 0.7881(5) 0.1062(4) 0.4565(3)
H11_9 H 0.8149 0.0860 0.4819
C13_9 C 0.6965(4) 0.1775(3) 0.4378(3)
C14_9 C 0.7366(5) 0.1466(4) 0.4741(4)
H12_8 H 0.7296 0.1524 0.5105
C15_9 C 0.7107(5) 0.1666(3) 0.3841(3)
H13_9 H 0.6861 0.1869 0.3577
C16_9 C 0.7613(5) 0.1259(3) 0.3698(3)
H14_9 H 0.7692 0.1190 0.3336
C17_9 C 0.6393(4) 0.2186(3) 0.4549(3)
C18_9 C 0.5852(4) 0.2383(3) 0.4196(3)
H15_9 H 0.5874 0.2281 0.3837
C19_9 C 0.5264(4) 0.2738(3) 0.4370(3)
C20_9 C 0.5252(6) 0.2899(4) 0.4895(4)
H16_8 H 0.4865 0.3131 0.5015
C21_8 C 0.5807(7) 0.2721(5) 0.5248(4)
H17_8 H 0.5804 0.2845 0.5599
C22_8 C 0.6372(6) 0.2358(4) 0.5082(4)
H18_8 H 0.6734 0.2229 0.5326
N3_6 N 0.7995(4) 0.0958(2) 0.4057(3)
N4_6 N 0.4683(3) 0.2904(3) 0.4001(2)
H19_9 H 0.4450 0.3183 0.4111
H20_9 H 0.4810 0.2945 0.3679
N5_11 N 0.2995(4) 0.1542(2) 0.3443(3)
N6_12 N 0.2817(3) 0.2904(3) 0.3499(2)
N5_12 N 0.9505(4) 0.0958(2) 0.3443(3)
C1_10 C 0.2881(5) 0.6438(4) 0.7935(3)
H1_10 H 0.3149 0.6640 0.7681
C2_10 C 0.1965(4) 0.5725(3) 0.8122(3)
C3_10 C 0.2366(5) 0.6034(4) 0.7759(4)
H2_9 H 0.2296 0.5976 0.7395
C4_10 C 0.2107(5) 0.5834(3) 0.8659(3)
H3_10 H 0.1861 0.5631 0.8923
C5_10 C 0.2613(5) 0.6241(3) 0.8802(3)
H4_10 H 0.2692 0.6310 0.9164
C6_10 C 0.1393(4) 0.5314(3) 0.7951(3)
C7_10 C 0.0852(4) 0.5117(3) 0.8304(3)
H5_10 H 0.0874 0.5219 0.8663
C8_10 C 0.0264(4) 0.4762(3) 0.8130(3)
C9_10 C 0.0252(6) 0.4601(4) 0.7605(4)
C10_7 C 0.0807(7) 0.4779(5) 0.7252(4)
H7_7 H 0.0804 0.4655 0.6901
C11_9 C 0.1372(6) 0.5142(4) 0.7418(4)
H8_9 H 0.1734 0.5271 0.7174
C13_10 C 0.0535(4) 0.6775(3) 0.8122(3)
C14_10 C 0.0134(5) 0.6466(4) 0.7759(4)
H12_9 H 0.0204 0.6524 0.7395
C15_10 C 0.0393(5) 0.6666(3) 0.8659(3)
H13_10 H 0.0639 0.6869 0.8923
C17_10 C 0.1107(4) 0.7186(3) 0.7951(3)
C18_10 C 0.1648(4) 0.7383(3) 0.8304(3)
H15_10 H 0.1626 0.7281 0.8663
C19_10 C 0.2236(4) 0.7738(3) 0.8130(3)
C20_10 C 0.2248(6) 0.7899(4) 0.7605(4)
H16_9 H 0.2635 0.8131 0.7485
C21_9 C 0.1693(7) 0.7721(5) 0.7252(4)
H17_9 H 0.1696 0.7845 0.6901
C22_9 C 0.1128(6) 0.7358(4) 0.7418(4)
H18_9 H 0.0766 0.7229 0.7174
H19_10 H 0.3050 0.8183 0.8389
H20_10 H 0.2690 0.7945 0.8821
H6_7 H 0.9865 0.4369 0.7485
H9_10 H 0.9450 0.4317 0.8389
H10_10 H 0.9810 0.4555 0.8821
C12_10 C 0.9619(5) 0.6062(4) 0.7935(3)
H11_10 H 0.9351 0.5860 0.7681
C16_10 C 0.9887(5) 0.6259(3) 0.8802(3)
H14_10 H 0.9808 0.6190 0.9164
C2_11 C 0.0535(4) 0.5725(3) 0.4378(3)
C3_11 C 0.0134(5) 0.6034(4) 0.4741(4)
H2_10 H 0.0204 0.5976 0.5105
C4_11 C 0.0393(5) 0.5834(3) 0.3841(3)
H3_11 H 0.0639 0.5631 0.3577
C6_11 C 0.1107(4) 0.5314(3) 0.4549(3)
C7_11 C 0.1648(4) 0.5117(3) 0.4196(3)
H5_11 H 0.1626 0.5219 0.3837
C8_11 C 0.2236(4) 0.4762(3) 0.4370(3)
C9_11 C 0.2248(6) 0.4601(4) 0.4895(4)
H6_8 H 0.2635 0.4369 0.5015
C10_8 C 0.1693(7) 0.4779(5) 0.5248(4)
H7_8 H 0.1696 0.4655 0.5599
C11_10 C 0.1128(6) 0.5142(4) 0.5082(4)
H8_10 H 0.0766 0.5271 0.5326
H9_11 H 0.3050 0.4317 0.4111
H10_11 H 0.2690 0.4555 0.3679
C12_11 C 0.2881(5) 0.6062(4) 0.4565(3)
H11_11 H 0.3149 0.5860 0.4819
C13_11 C 0.1965(4) 0.6775(3) 0.4378(3)
C14_11 C 0.2366(5) 0.6466(4) 0.4741(4)
H12_10 H 0.2296 0.6524 0.5105
C15_11 C 0.2107(5) 0.6666(3) 0.3841(3)
H13_11 H 0.1861 0.6869 0.3577
C16_11 C 0.2613(5) 0.6259(3) 0.3698(3)
H14_11 H 0.2692 0.6190 0.3336
C17_11 C 0.1393(4) 0.7186(3) 0.4549(3)
C18_11 C 0.0852(4) 0.7383(3) 0.4196(3)
H15_11 H 0.0874 0.7281 0.3837
C19_11 C 0.0264(4) 0.7738(3) 0.4370(3)
C20_11 C 0.0252(6) 0.7899(4) 0.4895(4)
C21_10 C 0.0807(7) 0.7721(5) 0.5248(4)
H17_10 H 0.0804 0.7845 0.5599
C22_10 C 0.1372(6) 0.7358(4) 0.5082(4)
H18_10 H 0.1734 0.7229 0.5326
C1_11 C 0.9619(5) 0.6438(4) 0.4565(3)
H1_11 H 0.9351 0.6640 0.4819
C5_11 C 0.9887(5) 0.6241(3) 0.3698(3)
H4_11 H 0.9808 0.6310 0.3336
H16_10 H 0.9865 0.8131 0.5015
H19_11 H 0.9450 0.8183 0.4111
H20_11 H 0.9810 0.7945 0.3679
C1_12 C 0.2881(5) 0.1438(4) 0.2935(3)
H1_12 H 0.3149 0.1640 0.2681
C2_12 C 0.1965(4) 0.0725(3) 0.3122(3)
C3_12 C 0.2366(5) 0.1034(4) 0.2759(4)
H2_11 H 0.2296 0.0976 0.2395
C4_12 C 0.2107(5) 0.0834(3) 0.3659(3)
H3_12 H 0.1861 0.0631 0.3923
C5_12 C 0.2613(5) 0.1241(3) 0.3802(3)
H4_12 H 0.2692 0.1310 0.4164
C6_12 C 0.1393(4) 0.0314(3) 0.2951(3)
C7_12 C 0.0852(4) 0.0117(3) 0.3304(3)
H5_12 H 0.0874 0.0219 0.3663
C11_11 C 0.1372(6) 0.0142(4) 0.2418(4)
H8_11 H 0.1734 0.0271 0.2174
C13_12 C 0.0535(4) 0.1775(3) 0.3122(3)
C14_12 C 0.0134(5) 0.1466(4) 0.2759(4)
H12_11 H 0.0204 0.1524 0.2395
C15_12 C 0.0393(5) 0.1666(3) 0.3659(3)
H13_12 H 0.0639 0.1869 0.3923
C17_12 C 0.1107(4) 0.2186(3) 0.2951(3)
C18_12 C 0.1648(4) 0.2383(3) 0.3304(3)
H15_12 H 0.1626 0.2281 0.3663
C19_12 C 0.2236(4) 0.2738(3) 0.3130(3)
C20_12 C 0.2248(6) 0.2899(4) 0.2605(4)
H16_11 H 0.2635 0.3131 0.2485
C21_11 C 0.1693(7) 0.2721(5) 0.2252(4)
H17_11 H 0.1696 0.2845 0.1901
C22_11 C 0.1128(6) 0.2358(4) 0.2418(4)
H18_11 H 0.0766 0.2229 0.2174
H19_12 H 0.3050 0.3183 0.3389
H20_12 H 0.2690 0.2945 0.3821
C12_12 C 0.9619(5) 0.1062(4) 0.2935(3)
H11_12 H 0.9351 0.0860 0.2681
C16_12 C 0.9887(5) 0.1259(3) 0.3802(3)
H14_12 H 0.9808 0.1190 0.4164
H2_12 H 0.0204 0.0976 0.0105
C11_12 C 0.1128(6) 0.0142(4) 0.0082(4)
H8_12 H 0.0766 0.0271 0.0326
H12_12 H 0.2296 0.1524 0.0105
C21_12 C 0.0807(7) 0.2721(5) 0.0248(4)
H17_12 H 0.0804 0.2845 0.0599
C22_12 C 0.1372(6) 0.2358(4) 0.0082(4)
H18_12 H 0.1734 0.2229 0.0326
C8_12 C 0.2236(4) 0.9762(3) 0.9370(3)
C9_12 C 0.2248(6) 0.9601(4) 0.9895(4)
H9_12 H 0.3050 0.9317 0.9111
H10_12 H 0.2690 0.9555 0.8679
H16_12 H 0.9865 0.3131 0.0015
F2_11 F 0.9388(3) 0.2930(2) 0.7211(2)
F3_13 F 0.9772(3) 0.2010(2) 0.7069(2)
Si1_20 Si 1.0000 0.2500 0.7500
F4_13 F 0.9294(3) 0.22744(19) 0.79148(19)
Cd3_7 Cd 0.8750 0.22572(3) 0.8750
H2_13 H 0.4796 0.4024 0.9895
H6_9 H 0.2365 0.5631 0.9985
C10_9 C 0.3307(7) 0.5221(5) 0.9752(4)
H7_9 H 0.3304 0.5345 0.9401
C11_13 C 0.3872(6) 0.4858(4) 0.9918(4)
H8_13 H 0.4234 0.4729 0.9674
Si1_21 Si 0.7500 0.2500 1.0000
F4_14 F 0.8206(3) 0.22744(19) 0.95852(19)
F5_11 F 0.6888(3) 0.2070(2) 0.9711(2)
F6_13 F 0.7272(3) 0.2990(2) 0.9569(2)
H12_13 H 0.2704 0.3476 0.9895
H16_13 H 0.5135 0.1869 0.9985
C21_13 C 0.4193(7) 0.2279(5) 0.9752(4)
H17_13 H 0.4196 0.2155 0.9401
C22_13 C 0.3628(6) 0.2642(4) 0.9918(4)
H18_13 H 0.3266 0.2771 0.9674
Si1_22 Si 0.0000 0.5000 1.0000
F5_12 F 0.0612(3) 0.5430(2) 0.9711(2)
F6_14 F 0.0228(3) 0.4510(2) 0.9569(2)
C8_13 C 0.2764(4) 0.0238(3) 0.5630(3)
C9_13 C 0.2752(6) 0.0399(4) 0.5105(4)
H6_10 H 0.2365 0.0631 0.4985
C10_10 C 0.3307(7) 0.0221(5) 0.4752(4)
H7_10 H 0.3304 0.0345 0.4401
N2_7 N 0.2183(3) 0.0404(3) 0.5999(2)
H9_13 H 0.1950 0.0683 0.5889
H10_13 H 0.2310 0.0445 0.6321
Si1_23 Si 0.0000 0.0000 0.5000
F5_13 F 0.0612(3) 0.0430(2) 0.4711(2)
N6_13 N 0.0317(3) 0.0404(3) 0.6501(2)
H6_11 H 0.0135 0.0631 0.7515
H9_14 H 0.0550 0.0683 0.6611
H10_14 H 0.0190 0.0445 0.6179
F3_14 F 0.2728(3) 0.0490(2) 0.7069(2)
Si1_24 Si 0.2500 0.0000 0.7500
F4_15 F 0.3206(3) 0.02256(19) 0.79148(19)
F5_14 F 0.1888(3) 0.0430(2) 0.7789(2)
Cd3_8 Cd 0.3750 0.02428(3) 0.8750
H6_12 H 0.7365 0.0631 0.9985
C10_11 C 0.8307(7) 0.0221(5) 0.9752(4)
H7_11 H 0.8304 0.0345 0.9401
Si1_25 Si 0.5000 0.0000 1.0000
F4_16 F 0.4294(3) 0.02256(19) 0.95852(19)
F5_15 F 0.5612(3) 0.0430(2) 0.9711(2)
C1_13 C 0.7881(5) 0.1438(4) 0.7935(3)
H1_13 H 0.8149 0.1640 0.7681
C2_13 C 0.6965(4) 0.0725(3) 0.8122(3)
C3_13 C 0.7366(5) 0.1034(4) 0.7759(4)
H2_14 H 0.7296 0.0976 0.7395
C4_13 C 0.7107(5) 0.0834(3) 0.8659(3)
H3_13 H 0.6861 0.0631 0.8923
C5_13 C 0.7613(5) 0.1241(3) 0.8802(3)
H4_13 H 0.7692 0.1310 0.9164
C6_13 C 0.6393(4) 0.0314(3) 0.7951(3)
C7_13 C 0.5852(4) 0.0117(3) 0.8304(3)
H5_13 H 0.5874 0.0219 0.8663
C11_14 C 0.6372(6) 0.0142(4) 0.7418(4)
H8_14 H 0.6734 0.0271 0.7174
N1_7 N 0.7995(4) 0.1542(2) 0.8443(3)
C12_13 C 0.4619(5) 0.1062(4) 0.7935(3)
H11_13 H 0.4351 0.0860 0.7681
C13_13 C 0.5535(4) 0.1775(3) 0.8122(3)
C14_13 C 0.5134(5) 0.1466(4) 0.7759(4)
H12_14 H 0.5204 0.1524 0.7395
C15_13 C 0.5393(5) 0.1666(3) 0.8659(3)
H13_13 H 0.5639 0.1869 0.8923
C16_13 C 0.4887(5) 0.1259(3) 0.8802(3)
H14_13 H 0.4808 0.1190 0.9164
C17_13 C 0.6107(4) 0.2186(3) 0.7951(3)
C18_13 C 0.6648(4) 0.2383(3) 0.8304(3)
H15_13 H 0.6626 0.2281 0.8663
C19_13 C 0.7236(4) 0.2738(3) 0.8130(3)
C20_13 C 0.7248(6) 0.2899(4) 0.7605(4)
H16_14 H 0.7635 0.3131 0.7485
C21_14 C 0.6693(7) 0.2721(5) 0.7252(4)
H17_14 H 0.6696 0.2845 0.6901
C22_14 C 0.6128(6) 0.2358(4) 0.7418(4)
H18_14 H 0.5766 0.2229 0.7174
N3_7 N 0.4505(4) 0.0958(2) 0.8443(3)
N4_7 N 0.7817(3) 0.2904(3) 0.8499(2)
H19_13 H 0.8050 0.3183 0.8389
H20_13 H 0.7690 0.2945 0.8821
N5_13 N 0.9505(4) 0.1542(2) 0.9057(3)
N6_14 N 0.9683(3) 0.2904(3) 0.9001(2)
N5_14 N 0.2995(4) 0.0958(2) 0.9057(3)
C2_14 C 0.0535(4) 0.0725(3) 0.9378(3)
C3_14 C 0.0134(5) 0.1034(4) 0.9741(4)
C4_14 C 0.0393(5) 0.0834(3) 0.8841(3)
H3_14 H 0.0639 0.0631 0.8577
C6_14 C 0.1107(4) 0.0314(3) 0.9549(3)
C7_14 C 0.1648(4) 0.0117(3) 0.9196(3)
H5_14 H 0.1626 0.0219 0.8837
C12_14 C 0.2881(5) 0.1062(4) 0.9565(3)
H11_14 H 0.3149 0.0860 0.9819
C13_14 C 0.1965(4) 0.1775(3) 0.9378(3)
C14_14 C 0.2366(5) 0.1466(4) 0.9741(4)
C15_14 C 0.2107(5) 0.1666(3) 0.8841(3)
H13_14 H 0.1861 0.1869 0.8577
C16_14 C 0.2613(5) 0.1259(3) 0.8698(3)
H14_14 H 0.2692 0.1190 0.8336
C17_14 C 0.1393(4) 0.2186(3) 0.9549(3)
C18_14 C 0.0852(4) 0.2383(3) 0.9196(3)
H15_14 H 0.0874 0.2281 0.8837
C19_14 C 0.0264(4) 0.2738(3) 0.9370(3)
C20_14 C 0.0252(6) 0.2899(4) 0.9895(4)
C1_14 C 0.9619(5) 0.1438(4) 0.9565(3)
H1_14 H 0.9351 0.1640 0.9819
C5_14 C 0.9887(5) 0.1241(3) 0.8698(3)
H4_14 H 0.9808 0.1310 0.8336
H19_14 H 0.9450 0.3183 0.9111
H20_14 H 0.9810 0.2945 0.8679
F2_12 F 0.9388(3) 0.4570(2) 0.0289(2)
F3_15 F 0.9772(3) 0.5490(2) 0.0431(2)
Si1_26 Si 1.0000 0.5000 0.0000
C1_15 C 0.2119(5) 0.8562(4) 0.2065(3)
H1_15 H 0.1851 0.8360 0.2319
C2_15 C 0.3035(4) 0.9275(3) 0.1878(3)
C3_15 C 0.2634(5) 0.8966(4) 0.2241(4)
H2_15 H 0.2704 0.9024 0.2605
C4_15 C 0.2893(5) 0.9166(3) 0.1341(3)
H3_15 H 0.3139 0.9369 0.1077
C5_15 C 0.2387(5) 0.8759(3) 0.1198(3)
H4_15 H 0.2308 0.8690 0.0836
C6_15 C 0.3607(4) 0.9686(3) 0.2049(3)
C7_15 C 0.4148(4) 0.9883(3) 0.1696(3)
H5_15 H 0.4126 0.9781 0.1337
C11_15 C 0.3628(6) 0.9858(4) 0.2582(4)
H8_15 H 0.3266 0.9729 0.2826
Cd1_4 Cd 0.1250 0.77428(3) 0.1250
F1_7 F 0.0706(3) 0.77256(19) 0.20852(19)
N1_8 N 0.2005(4) 0.8458(2) 0.1557(3)
Si1_27 Si 0.0000 0.7500 0.2500
F5_16 F 0.0612(3) 0.7070(2) 0.2789(2)
F6_15 F 0.0228(3) 0.7990(2) 0.2931(2)
C12_15 C 0.5381(5) 0.8938(4) 0.2065(3)
H11_15 H 0.5649 0.9140 0.2319
C13_15 C 0.4465(4) 0.8225(3) 0.1878(3)
C14_15 C 0.4866(5) 0.8534(4) 0.2241(4)
H12_15 H 0.4796 0.8476 0.2605
C15_15 C 0.4607(5) 0.8334(3) 0.1341(3)
H13_15 H 0.4361 0.8131 0.1077
C16_15 C 0.5113(5) 0.8741(3) 0.1198(3)
H14_15 H 0.5192 0.8810 0.0836
C17_15 C 0.3893(4) 0.7814(3) 0.2049(3)
C18_15 C 0.3352(4) 0.7617(3) 0.1696(3)
H15_15 H 0.3374 0.7719 0.1337
C19_15 C 0.2764(4) 0.7262(3) 0.1870(3)
C20_15 C 0.2752(6) 0.7101(4) 0.2395(4)
H16_15 H 0.2365 0.6869 0.2515
C21_15 C 0.3307(7) 0.7279(5) 0.2748(4)
H17_15 H 0.3304 0.7155 0.3099
C22_15 C 0.3872(6) 0.7642(4) 0.2582(4)
H18_15 H 0.4234 0.7771 0.2826
N3_8 N 0.5495(4) 0.9042(2) 0.1557(3)
N4_8 N 0.2183(3) 0.7096(3) 0.1501(2)
H19_15 H 0.1950 0.6817 0.1611
H20_15 H 0.2310 0.7055 0.1179
Cd2_4 Cd 0.6250 0.97572(3) 0.1250
F7_7 F 0.1794(3) 0.77256(19) 0.04148(19)
N5_15 N 0.0495(4) 0.8458(2) 0.0943(3)
N6_15 N 0.0317(3) 0.7096(3) 0.0999(2)
F1_8 F 0.6794(3) 0.97744(19) 0.20852(19)
F2_13 F 0.8112(3) 0.9570(2) 0.2211(2)
Si1_28 Si 0.7500 1.0000 0.2500
F6_16 F 0.7272(3) 0.9510(2) 0.2931(2)
F7_8 F 0.5706(3) 0.97744(19) 0.04148(19)
N5_16 N 0.7005(4) 0.9042(2) 0.0943(3)
F2_14 F 0.9388(3) 0.9570(2) 0.5289(2)
Si1_29 Si 1.0000 1.0000 0.5000
C1_16 C 0.0381(5) 0.8562(4) 0.0435(3)
H1_16 H 0.0649 0.8360 0.0181
C5_16 C 0.0113(5) 0.8759(3) 0.1302(3)
H4_16 H 0.0192 0.8690 0.1664
F2_15 F 0.3112(3) 0.7930(2) 0.0289(2)
F3_16 F 0.2728(3) 0.7010(2) 0.0431(2)
Si1_30 Si 0.2500 0.7500 0.0000
H19_16 H 0.0550 0.6817 0.0889
H20_16 H 0.0190 0.7055 0.1321
C2_16 C 0.9465(4) 0.9275(3) 0.0622(3)
C3_16 C 0.9866(5) 0.8966(4) 0.0259(4)
C4_16 C 0.9607(5) 0.9166(3) 0.1159(3)
H3_16 H 0.9361 0.9369 0.1423
C6_16 C 0.8893(4) 0.9686(3) 0.0451(3)
C7_16 C 0.8352(4) 0.9883(3) 0.0804(3)
H5_16 H 0.8374 0.9781 0.1163
C12_16 C 0.7119(5) 0.8938(4) 0.0435(3)
H11_16 H 0.6851 0.9140 0.0181
C13_16 C 0.8035(4) 0.8225(3) 0.0622(3)
C14_16 C 0.7634(5) 0.8534(4) 0.0259(4)
C15_16 C 0.7893(5) 0.8334(3) 0.1159(3)
H13_16 H 0.8139 0.8131 0.1423
C16_16 C 0.7387(5) 0.8741(3) 0.1302(3)
H14_16 H 0.7308 0.8810 0.1664
C17_16 C 0.8607(4) 0.7814(3) 0.0451(3)
C18_16 C 0.9148(4) 0.7617(3) 0.0804(3)
H15_16 H 0.9126 0.7719 0.1163
C19_16 C 0.9736(4) 0.7262(3) 0.0630(3)
C20_16 C 0.9748(6) 0.7101(4) 0.0105(4)
F2_16 F 0.4388(3) 0.9570(2) 0.0289(2)
Si1_31 Si 0.5000 1.0000 0.0000
H2_16 H 0.5204 0.5976 0.0105
H6_13 H 0.7635 0.4369 0.0015
C10_12 C 0.6693(7) 0.4779(5) 0.0248(4)
H7_12 H 0.6696 0.4655 0.0599
C11_16 C 0.6128(6) 0.5142(4) 0.0082(4)
H8_16 H 0.5766 0.5271 0.0326
H12_16 H 0.7296 0.6524 0.0105
H16_16 H 0.4865 0.8131 0.0015
C21_16 C 0.5807(7) 0.7721(5) 0.0248(4)
H17_16 H 0.5804 0.7845 0.0599
C22_16 C 0.6372(6) 0.7358(4) 0.0082(4)
H18_16 H 0.6734 0.7229 0.0326
C8_14 C 0.7236(4) 0.9762(3) 0.4370(3)
C9_14 C 0.7248(6) 0.9601(4) 0.4895(4)
H6_14 H 0.7635 0.9369 0.5015
C10_13 C 0.6693(7) 0.9779(5) 0.5248(4)
H7_13 H 0.6696 0.9655 0.5599
N2_8 N 0.7817(3) 0.9596(3) 0.4001(2)
H9_15 H 0.8050 0.9317 0.4111
H10_15 H 0.7690 0.9555 0.3679
N6_16 N 0.9683(3) 0.9596(3) 0.3499(2)
H6_15 H 0.9865 0.9369 0.2485
H9_16 H 0.9450 0.9317 0.3389
H10_16 H 0.9810 0.9555 0.3821
H6_16 H 0.2635 0.9369 0.0015
C10_14 C 0.1693(7) 0.9779(5) 0.0248(4)
H7_14 H 0.1696 0.9655 0.0599
C8_15 C 0.9736(4) 0.0238(3) 0.6870(3)
C9_15 C 0.9748(6) 0.0399(4) 0.7395(4)
C10_15 C 0.9193(7) 0.0221(5) 0.7748(4)
H7_15 H 0.9196 0.0345 0.8099
C8_16 C 0.0264(4) 0.9762(3) 0.3130(3)
C9_16 C 0.0252(6) 0.9601(4) 0.2605(4)
C10_16 C 0.0807(7) 0.9779(5) 0.2252(4)
H7_16 H 0.0804 0.9655 0.1901
loop_
_geom_bond_atom_site_label_1
_geom_bond_atom_site_label_2
_geom_bond_site_symmetry_1
_geom_bond_site_symmetry_2
C1 H1 1_555 1_555
C2 C3 1_555 1_555
C3 C1 1_555 1_555
H2 C3 1_555 1_555
C4 C2 1_555 1_555
H3 C4 1_555 1_555
C5 C4 1_555 1_555
H4 C5 1_555 1_555
C6 C2 1_555 1_555
C7 C6 1_555 1_555
H5 C7 1_555 1_555
C8 C7 1_555 1_555
C9 C8 1_555 1_555
H6 C9 1_555 1_555
C10 C9 1_555 1_555
H7 C10 1_555 1_555
C11 C6 1_555 1_555
H8 C11 1_555 1_555
Cd1 F1 1_555 1_555
F1 Si1 1_555 1_555
N1 C1 1_555 1_555
N2 C8 1_555 1_555
H9 N2 1_555 1_555
H10 N2 1_555 1_555
F5 Si1 1_555 1_555
F6 Si1 1_555 1_555
C12 H11 1_555 1_555
C13 C14 1_555 1_555
C14 C12 1_555 1_555
H12 C14 1_555 1_555
C15 C13 1_555 1_555
H13 C15 1_555 1_555
C16 C15 1_555 1_555
H14 C16 1_555 1_555
C17 C13 1_555 1_555
C18 C17 1_555 1_555
H15 C18 1_555 1_555
C19 C18 1_555 1_555
C20 C19 1_555 1_555
H16 C20 1_555 1_555
C21 C20 1_555 1_555
H17 C21 1_555 1_555
C22 C17 1_555 1_555
H18 C22 1_555 1_555
N3 C12 1_555 1_555
N4 Cd1 1_555 1_555
H19 N4 1_555 1_555
H20 N4 1_555 1_555
Cd2 N2 1_555 1_555
F7 Cd1 1_555 1_555
N5 Cd1 1_555 1_555
N6 Cd1 1_555 1_555
C5 N1 1_555 1_555
C10 C11 1_555 1_555
Cd1 N1 1_555 1_555
C16 N3 1_555 1_555
C19 N4 1_555 1_555
C21 C22 1_555 1_555
N3 Cd2 1_555 1_555
Cd2 F1_2 1_555 1_555
F1_2 Si1_2 1_555 1_555
F2 Si1_2 1_555 1_555
F3 Si1_2 1_555 1_555
Si1_2 F4 1_555 1_555
F4 Cd3 1_555 1_555
F5_2 Si1_2 1_555 1_555
F6_2 Si1_2 1_555 1_555
F7_2 Cd2 1_555 1_555
N5_2 Cd2 1_555 1_555
N6_2 Cd2 1_555 1_555
C1_2 H1_2 1_555 1_555
C2_2 C3_2 1_555 1_555
C3_2 C1_2 1_555 1_555
C4_2 C2_2 1_555 1_555
H3_2 C4_2 1_555 1_555
C5_2 C4_2 1_555 1_555
H4_2 C5_2 1_555 1_555
C6_2 C2_2 1_555 1_555
C7_2 C6_2 1_555 1_555
H5_2 C7_2 1_555 1_555
C8_2 C7_2 1_555 1_555
C9_2 C8_2 1_555 1_555
Cd1_2 F1_3 1_555 1_555
F1_3 Si1_3 1_555 1_555
F2_2 Si1_3 1_555 1_555
F3_2 Si1_3 1_555 1_555
N1_2 C1_2 1_555 1_555
N2_2 C8_2 1_555 1_555
H9_2 N2_2 1_555 1_555
H10_2 N2_2 1_555 1_555
C12_2 H11_2 1_555 1_555
C13_2 C14_2 1_555 1_555
C14_2 C12_2 1_555 1_555
C15_2 C13_2 1_555 1_555
H13_2 C15_2 1_555 1_555
C16_2 C15_2 1_555 1_555
H14_2 C16_2 1_555 1_555
C17_2 C13_2 1_555 1_555
C18_2 C17_2 1_555 1_555
H15_2 C18_2 1_555 1_555
C19_2 C18_2 1_555 1_555
C20_2 C19_2 1_555 1_555
N3_2 C12_2 1_555 1_555
N4_2 Cd1_2 1_555 1_555
H19_2 N4_2 1_555 1_555
H20_2 N4_2 1_555 1_555
Cd2_2 N2_2 1_555 1_555
F7_3 Cd1_2 1_555 1_555
N5_3 Cd1_2 1_555 1_555
N6_3 Cd1_2 1_555 1_555
C5_2 N1_2 1_555 1_555
Cd1_2 N1_2 1_555 1_555
C16_2 N3_2 1_555 1_555
C19_2 N4_2 1_555 1_555
N3_2 Cd2_2 1_555 1_555
Cd2_2 F1_4 1_555 1_555
F1_4 Si1_4 1_555 1_555
F7_4 Cd2_2 1_555 1_555
N5_4 Cd2_2 1_555 1_555
N6_4 Cd2_2 1_555 1_555
Si1_5 F4_2 1_555 1_555
F4_2 Cd3 1_555 1_555
C9_3 C8_3 1_555 1_555
H6_2 C9_3 1_555 1_555
C10_2 C9_3 1_555 1_555
H7_2 C10_2 1_555 1_555
N2_3 C8_3 1_555 1_555
H9_3 N2_3 1_555 1_555
H10_3 N2_3 1_555 1_555
F2_3 Si1_6 1_555 1_555
F3_3 Si1_6 1_555 1_555
Si1_6 F4_3 1_555 1_555
F4_3 Cd3_2 1_555 1_555
F3_4 Si1_7 1_555 1_555
Si1_7 F4_4 1_555 1_555
F4_4 Cd3_3 1_555 1_555
F5_3 Si1_7 1_555 1_555
C1_3 H1_3 1_555 1_555
C2_3 C3_3 1_555 1_555
C3_3 C1_3 1_555 1_555
H2_2 C3_3 1_555 1_555
C4_3 C2_3 1_555 1_555
H3_3 C4_3 1_555 1_555
C5_3 C4_3 1_555 1_555
H4_3 C5_3 1_555 1_555
C6_3 C2_3 1_555 1_555
C7_3 C6_3 1_555 1_555
H5_3 C7_3 1_555 1_555
C11_2 C6_3 1_555 1_555
H8_2 C11_2 1_555 1_555
Cd1_3 F1_5 1_555 1_555
F1_5 Si1_8 1_555 1_555
F2_4 Si1_8 1_555 1_555
F3_5 Si1_8 1_555 1_555
N1_3 C1_3 1_555 1_555
Si1_8 F4_5 1_555 1_555
F4_5 Cd3_2 1_555 1_555
F5_4 Si1_8 1_555 1_555
F6_3 Si1_8 1_555 1_555
C12_3 H11_3 1_555 1_555
C13_3 C14_3 1_555 1_555
C14_3 C12_3 1_555 1_555
H12_2 C14_3 1_555 1_555
C15_3 C13_3 1_555 1_555
H13_3 C15_3 1_555 1_555
C16_3 C15_3 1_555 1_555
H14_3 C16_3 1_555 1_555
C17_3 C13_3 1_555 1_555
C18_3 C17_3 1_555 1_555
H15_3 C18_3 1_555 1_555
C19_3 C18_3 1_555 1_555
C20_3 C19_3 1_555 1_555
H16_2 C20_3 1_555 1_555
C21_2 C20_3 1_555 1_555
H17_2 C21_2 1_555 1_555
C22_2 C17_3 1_555 1_555
H18_2 C22_2 1_555 1_555
N3_3 C12_3 1_555 1_555
N4_3 Cd1_3 1_555 1_555
H19_3 N4_3 1_555 1_555
H20_3 N4_3 1_555 1_555
F7_5 Cd1_3 1_555 1_555
N5_5 Cd1_3 1_555 1_555
N6_6 Cd1_3 1_555 1_555
C5_3 N1_3 1_555 1_555
Cd1_3 N1_3 1_555 1_555
C16_3 N3_3 1_555 1_555
C19_3 N4_3 1_555 1_555
C21_2 C22_2 1_555 1_555
N3_3 Cd2_3 1_555 1_555
Cd2_3 F1_6 1_555 1_555
F1_6 Si1_9 1_555 1_555
F6_4 Si1_9 1_555 1_555
F7_6 Cd2_3 1_555 1_555
N5_6 Cd2_3 1_555 1_555
F3_6 Si1_10 1_555 1_555
Si1_10 F4_6 1_555 1_555
F4_6 Cd3_3 1_555 1_555
H9_4 N6_4 1_555 1_555
H10_4 N6_4 1_555 1_555
C12_4 H11_4 1_555 1_555
H14_4 C16_4 1_555 1_555
N5_4 C12_4 1_555 1_555
C16_4 N5_4 1_555 1_555
C1_4 H1_4 1_555 1_555
C2_4 C3_4 1_555 1_555
C3_4 C1_4 1_555 1_555
H2_3 C3_4 1_555 1_555
C4_4 C2_4 1_555 1_555
H3_4 C4_4 1_555 1_555
C5_4 C4_4 1_555 1_555
H4_4 C5_4 1_555 1_555
C6_4 C2_4 1_555 1_555
C7_4 C6_4 1_555 1_555
H5_4 C7_4 1_555 1_555
C8_4 C7_4 1_555 1_555
C9_4 C8_4 1_555 1_555
C10_3 C9_4 1_555 1_555
H7_3 C10_3 1_555 1_555
C11_3 C6_4 1_555 1_555
H8_3 C11_3 1_555 1_555
F7_3 Si1_11 1_555 1_555
F2_5 Si1_11 1_555 1_555
F3_7 Si1_11 1_555 1_555
N5_3 C1_4 1_555 1_555
Si1_11 F4_7 1_555 1_555
F4_7 Cd3_4 1_555 1_555
F5_5 Si1_11 1_555 1_555
F6_5 Si1_11 1_555 1_555
C13_4 C14_4 1_555 1_555
H12_3 C14_4 1_555 1_555
C15_4 C13_4 1_555 1_555
H13_4 C15_4 1_555 1_555
C17_4 C13_4 1_555 1_555
C18_4 C17_4 1_555 1_555
H15_4 C18_4 1_555 1_555
C19_4 C18_4 1_555 1_555
C20_4 C19_4 1_555 1_555
H16_3 C20_4 1_555 1_555
C21_3 C20_4 1_555 1_555
H17_3 C21_3 1_555 1_555
C22_3 C17_4 1_555 1_555
H18_3 C22_3 1_555 1_555
H19_4 N6_3 1_555 1_555
H20_4 N6_3 1_555 1_555
C5_4 N5_3 1_555 1_555
C10_3 C11_3 1_555 1_555
C19_4 N6_3 1_555 1_555
C21_3 C22_3 1_555 1_555
F7_4 Si1_12 1_555 1_555
F2_6 Si1_12 1_555 1_555
F3_8 Si1_12 1_555 1_555
Si1_12 F4_8 1_555 1_555
F4_8 Cd3_5 1_555 1_555
F5_6 Si1_12 1_555 1_555
F6_6 Si1_12 1_555 1_555
C1_5 H1_5 1_555 1_555
H4_5 C5_5 1_555 1_555
F7 Si1_13 1_555 1_555
F2_7 Si1_13 1_555 1_555
F3_9 Si1_13 1_555 1_555
N5 C1_5 1_555 1_555
Si1_13 F4_9 1_555 1_555
F4_9 Cd3_4 1_555 1_555
F5_7 Si1_13 1_555 1_555
F6_7 Si1_13 1_555 1_555
H19_5 N6 1_555 1_555
H20_5 N6 1_555 1_555
C5_5 N5 1_555 1_555
C2_5 C3_5 1_555 1_555
H2_4 C3_5 1_555 1_555
C4_5 C2_5 1_555 1_555
H3_5 C4_5 1_555 1_555
C6_5 C2_5 1_555 1_555
C7_5 C6_5 1_555 1_555
H5_5 C7_5 1_555 1_555
C8_5 C7_5 1_555 1_555
C9_5 C8_5 1_555 1_555
H6_4 C9_5 1_555 1_555
C10_4 C9_5 1_555 1_555
H7_4 C10_4 1_555 1_555
C11_4 C6_5 1_555 1_555
H8_4 C11_4 1_555 1_555
N6_2 C8_5 1_555 1_555
H9_5 N6_2 1_555 1_555
H10_5 N6_2 1_555 1_555
C12_5 H11_5 1_555 1_555
C13_5 C14_5 1_555 1_555
C14_5 C12_5 1_555 1_555
H12_4 C14_5 1_555 1_555
C15_5 C13_5 1_555 1_555
H13_5 C15_5 1_555 1_555
C16_5 C15_5 1_555 1_555
H14_5 C16_5 1_555 1_555
C17_5 C13_5 1_555 1_555
C18_5 C17_5 1_555 1_555
H15_5 C18_5 1_555 1_555
C19_5 C18_5 1_555 1_555
C20_5 C19_5 1_555 1_555
C21_4 C20_5 1_555 1_555
H17_4 C21_4 1_555 1_555
C22_4 C17_5 1_555 1_555
H18_4 C22_4 1_555 1_555
N5_2 C12_5 1_555 1_555
C10_4 C11_4 1_555 1_555
C16_5 N5_2 1_555 1_555
C21_4 C22_4 1_555 1_555
F7_2 Si1_14 1_555 1_555
F2_8 Si1_14 1_555 1_555
F3_10 Si1_14 1_555 1_555
Si1_14 F4_10 1_555 1_555
F4_10 Cd3_5 1_555 1_555
F5_8 Si1_14 1_555 1_555
F6_8 Si1_14 1_555 1_555
C12_6 H11_6 1_555 1_555
H14_6 C16_6 1_555 1_555
N5_6 C12_6 1_555 1_555
C16_6 N5_6 1_555 1_555
C1_6 H1_6 1_555 1_555
C2_6 C3_6 1_555 1_555
C3_6 C1_6 1_555 1_555
H2_5 C3_6 1_555 1_555
C4_6 C2_6 1_555 1_555
H3_6 C4_6 1_555 1_555
C5_6 C4_6 1_555 1_555
H4_6 C5_6 1_555 1_555
C6_6 C2_6 1_555 1_555
C7_6 C6_6 1_555 1_555
H5_6 C7_6 1_555 1_555
C11_5 C6_6 1_555 1_555
H8_5 C11_5 1_555 1_555
F7_5 Si1_15 1_555 1_555
F2_9 Si1_15 1_555 1_555
F3_11 Si1_15 1_555 1_555
N5_5 C1_6 1_555 1_555
Si1_15 F4_11 1_555 1_555
F4_11 Cd3_6 1_555 1_555
F5_9 Si1_15 1_555 1_555
F6_9 Si1_15 1_555 1_555
C13_6 C14_6 1_555 1_555
H12_5 C14_6 1_555 1_555
C15_6 C13_6 1_555 1_555
H13_6 C15_6 1_555 1_555
C17_6 C13_6 1_555 1_555
C18_6 C17_6 1_555 1_555
H15_6 C18_6 1_555 1_555
C19_6 C18_6 1_555 1_555
C20_6 C19_6 1_555 1_555
H16_5 C20_6 1_555 1_555
C21_5 C20_6 1_555 1_555
H17_5 C21_5 1_555 1_555
C22_5 C17_6 1_555 1_555
H18_5 C22_5 1_555 1_555
H19_6 N6_6 1_555 1_555
H20_6 N6_6 1_555 1_555
C5_6 N5_5 1_555 1_555
C19_6 N6_6 1_555 1_555
C21_5 C22_5 1_555 1_555
F7_6 Si1_16 1_555 1_555
F2_10 Si1_16 1_555 1_555
F6_10 Si1_16 1_555 1_555
Si1_17 F4_12 1_555 1_555
F4_12 Cd3_6 1_555 1_555
F5_10 Si1_17 1_555 1_555
F6_11 Si1_17 1_555 1_555
C9_6 C8_6 1_555 1_555
N6_5 C8_6 1_555 1_555
H9_6 N6_5 1_555 1_555
H10_6 N6_5 1_555 1_555
H8_6 C11_6 1_555 1_555
H17_6 C21_6 1_555 1_555
H18_6 C22_6 1_555 1_555
C21_6 C22_6 1_555 1_555
F3_12 Si1_18 1_555 1_555
F6_12 Si1_19 1_555 1_555
C1_7 H1_7 1_555 1_555
C2_7 C3_7 1_555 1_555
C3_7 C1_7 1_555 1_555
H2_7 C3_7 1_555 1_555
C4_7 C2_7 1_555 1_555
H3_7 C4_7 1_555 1_555
C5_7 C4_7 1_555 1_555
H4_7 C5_7 1_555 1_555
C6_7 C2_7 1_555 1_555
C7_7 C6_7 1_555 1_555
H5_7 C7_7 1_555 1_555
C8_7 C7_7 1_555 1_555
C9_7 C8_7 1_555 1_555
H6_5 C9_7 1_555 1_555
C10_5 C9_7 1_555 1_555
H7_5 C10_5 1_555 1_555
C11_7 C6_7 1_555 1_555
H8_7 C11_7 1_555 1_555
N1_4 C1_7 1_555 1_555
N2_4 C8_7 1_555 1_555
H9_7 N2_4 1_555 1_555
H10_7 N2_4 1_555 1_555
C12_7 H11_7 1_555 1_555
C13_7 C14_7 1_555 1_555
C14_7 C12_7 1_555 1_555
H12_7 C14_7 1_555 1_555
C15_7 C13_7 1_555 1_555
H13_7 C15_7 1_555 1_555
C16_7 C15_7 1_555 1_555
H14_7 C16_7 1_555 1_555
C17_7 C13_7 1_555 1_555
C18_7 C17_7 1_555 1_555
H15_7 C18_7 1_555 1_555
C19_7 C18_7 1_555 1_555
C20_7 C19_7 1_555 1_555
H16_7 C20_7 1_555 1_555
C21_7 C20_7 1_555 1_555
H17_7 C21_7 1_555 1_555
C22_7 C17_7 1_555 1_555
H18_7 C22_7 1_555 1_555
N3_4 C12_7 1_555 1_555
N4_4 Cd3_2 1_555 1_555
H19_7 N4_4 1_555 1_555
H20_7 N4_4 1_555 1_555
Cd3_5 N2_4 1_555 1_555
N5_7 Cd3_2 1_555 1_555
N6_7 Cd3_2 1_555 1_555
C5_7 N1_4 1_555 1_555
C10_5 C11_7 1_555 1_555
Cd3_2 N1_4 1_555 1_555
C16_7 N3_4 1_555 1_555
C19_7 N4_4 1_555 1_555
C21_7 C22_7 1_555 1_555
N3_4 Cd3_5 1_555 1_555
N5_8 Cd3_5 1_555 1_555
N6_8 Cd3_5 1_555 1_555
C1_8 H1_8 1_555 1_555
C2_8 C3_8 1_555 1_555
C3_8 C1_8 1_555 1_555
C4_8 C2_8 1_555 1_555
H3_8 C4_8 1_555 1_555
C5_8 C4_8 1_555 1_555
H4_8 C5_8 1_555 1_555
C6_8 C2_8 1_555 1_555
C7_8 C6_8 1_555 1_555
H5_8 C7_8 1_555 1_555
C8_8 C7_8 1_555 1_555
C9_8 C8_8 1_555 1_555
N1_5 C1_8 1_555 1_555
N2_5 C8_8 1_555 1_555
H9_8 N2_5 1_555 1_555
H10_8 N2_5 1_555 1_555
C12_8 H11_8 1_555 1_555
C13_8 C14_8 1_555 1_555
C14_8 C12_8 1_555 1_555
C15_8 C13_8 1_555 1_555
H13_8 C15_8 1_555 1_555
C16_8 C15_8 1_555 1_555
H14_8 C16_8 1_555 1_555
C17_8 C13_8 1_555 1_555
C18_8 C17_8 1_555 1_555
H15_8 C18_8 1_555 1_555
C19_8 C18_8 1_555 1_555
C20_8 C19_8 1_555 1_555
N3_5 C12_8 1_555 1_555
N4_5 Cd3_6 1_555 1_555
H19_8 N4_5 1_555 1_555
H20_8 N4_5 1_555 1_555
Cd3 N2_5 1_555 1_555
N5_9 Cd3_6 1_555 1_555
N6_9 Cd3_6 1_555 1_555
C5_8 N1_5 1_555 1_555
Cd3_6 N1_5 1_555 1_555
C16_8 N3_5 1_555 1_555
C19_8 N4_5 1_555 1_555
N3_5 Cd3 1_555 1_555
N5_10 Cd3 1_555 1_555
N6_10 Cd3 1_555 1_555
C9_9 C8_9 1_555 1_555
H6_6 C9_9 1_555 1_555
C10_6 C9_9 1_555 1_555
H7_6 C10_6 1_555 1_555
N2_6 C8_9 1_555 1_555
H9_9 N2_6 1_555 1_555
H10_9 N2_6 1_555 1_555
C1_9 H1_9 1_555 1_555
C2_9 C3_9 1_555 1_555
C3_9 C1_9 1_555 1_555
H2_8 C3_9 1_555 1_555
C4_9 C2_9 1_555 1_555
H3_9 C4_9 1_555 1_555
C5_9 C4_9 1_555 1_555
H4_9 C5_9 1_555 1_555
C6_9 C2_9 1_555 1_555
C7_9 C6_9 1_555 1_555
H5_9 C7_9 1_555 1_555
C11_8 C6_9 1_555 1_555
H8_8 C11_8 1_555 1_555
N1_6 C1_9 1_555 1_555
C12_9 H11_9 1_555 1_555
C13_9 C14_9 1_555 1_555
C14_9 C12_9 1_555 1_555
H12_8 C14_9 1_555 1_555
C15_9 C13_9 1_555 1_555
H13_9 C15_9 1_555 1_555
C16_9 C15_9 1_555 1_555
H14_9 C16_9 1_555 1_555
C17_9 C13_9 1_555 1_555
C18_9 C17_9 1_555 1_555
H15_9 C18_9 1_555 1_555
C19_9 C18_9 1_555 1_555
C20_9 C19_9 1_555 1_555
H16_8 C20_9 1_555 1_555
C21_8 C20_9 1_555 1_555
H17_8 C21_8 1_555 1_555
C22_8 C17_9 1_555 1_555
H18_8 C22_8 1_555 1_555
N3_6 C12_9 1_555 1_555
N4_6 Cd3_4 1_555 1_555
H19_9 N4_6 1_555 1_555
H20_9 N4_6 1_555 1_555
N5_11 Cd3_4 1_555 1_555
N6_12 Cd3_4 1_555 1_555
C5_9 N1_6 1_555 1_555
Cd3_4 N1_6 1_555 1_555
C16_9 N3_6 1_555 1_555
C19_9 N4_6 1_555 1_555
C21_8 C22_8 1_555 1_555
N3_6 Cd3_3 1_555 1_555
N5_12 Cd3_3 1_555 1_555
C1_10 H1_10 1_555 1_555
C2_10 C3_10 1_555 1_555
C3_10 C1_10 1_555 1_555
H2_9 C3_10 1_555 1_555
C4_10 C2_10 1_555 1_555
H3_10 C4_10 1_555 1_555
C5_10 C4_10 1_555 1_555
H4_10 C5_10 1_555 1_555
C6_10 C2_10 1_555 1_555
C7_10 C6_10 1_555 1_555
H5_10 C7_10 1_555 1_555
C8_10 C7_10 1_555 1_555
C9_10 C8_10 1_555 1_555
C10_7 C9_10 1_555 1_555
H7_7 C10_7 1_555 1_555
C11_9 C6_10 1_555 1_555
H8_9 C11_9 1_555 1_555
N5_9 C1_10 1_555 1_555
C13_10 C14_10 1_555 1_555
H12_9 C14_10 1_555 1_555
C15_10 C13_10 1_555 1_555
H13_10 C15_10 1_555 1_555
C17_10 C13_10 1_555 1_555
C18_10 C17_10 1_555 1_555
H15_10 C18_10 1_555 1_555
C19_10 C18_10 1_555 1_555
C20_10 C19_10 1_555 1_555
H16_9 C20_10 1_555 1_555
C21_9 C20_10 1_555 1_555
H17_9 C21_9 1_555 1_555
C22_9 C17_10 1_555 1_555
H18_9 C22_9 1_555 1_555
H19_10 N6_9 1_555 1_555
H20_10 N6_9 1_555 1_555
C5_10 N5_9 1_555 1_555
C10_7 C11_9 1_555 1_555
C19_10 N6_9 1_555 1_555
C21_9 C22_9 1_555 1_555
H9_10 N6_10 1_555 1_555
H10_10 N6_10 1_555 1_555
C12_10 H11_10 1_555 1_555
H14_10 C16_10 1_555 1_555
N5_10 C12_10 1_555 1_555
C16_10 N5_10 1_555 1_555
C2_11 C3_11 1_555 1_555
H2_10 C3_11 1_555 1_555
C4_11 C2_11 1_555 1_555
H3_11 C4_11 1_555 1_555
C6_11 C2_11 1_555 1_555
C7_11 C6_11 1_555 1_555
H5_11 C7_11 1_555 1_555
C8_11 C7_11 1_555 1_555
C9_11 C8_11 1_555 1_555
H6_8 C9_11 1_555 1_555
C10_8 C9_11 1_555 1_555
H7_8 C10_8 1_555 1_555
C11_10 C6_11 1_555 1_555
H8_10 C11_10 1_555 1_555
N6_8 C8_11 1_555 1_555
H9_11 N6_8 1_555 1_555
H10_11 N6_8 1_555 1_555
C12_11 H11_11 1_555 1_555
C13_11 C14_11 1_555 1_555
C14_11 C12_11 1_555 1_555
H12_10 C14_11 1_555 1_555
C15_11 C13_11 1_555 1_555
H13_11 C15_11 1_555 1_555
C16_11 C15_11 1_555 1_555
H14_11 C16_11 1_555 1_555
C17_11 C13_11 1_555 1_555
C18_11 C17_11 1_555 1_555
H15_11 C18_11 1_555 1_555
C19_11 C18_11 1_555 1_555
C20_11 C19_11 1_555 1_555
C21_10 C20_11 1_555 1_555
H17_10 C21_10 1_555 1_555
C22_10 C17_11 1_555 1_555
H18_10 C22_10 1_555 1_555
N5_8 C12_11 1_555 1_555
C10_8 C11_10 1_555 1_555
C16_11 N5_8 1_555 1_555
C21_10 C22_10 1_555 1_555
C1_11 H1_11 1_555 1_555
H4_11 C5_11 1_555 1_555
N5_7 C1_11 1_555 1_555
H19_11 N6_7 1_555 1_555
H20_11 N6_7 1_555 1_555
C5_11 N5_7 1_555 1_555
C1_12 H1_12 1_555 1_555
C2_12 C3_12 1_555 1_555
C3_12 C1_12 1_555 1_555
H2_11 C3_12 1_555 1_555
C4_12 C2_12 1_555 1_555
H3_12 C4_12 1_555 1_555
C5_12 C4_12 1_555 1_555
H4_12 C5_12 1_555 1_555
C6_12 C2_12 1_555 1_555
C7_12 C6_12 1_555 1_555
H5_12 C7_12 1_555 1_555
C11_11 C6_12 1_555 1_555
H8_11 C11_11 1_555 1_555
N5_11 C1_12 1_555 1_555
C13_12 C14_12 1_555 1_555
H12_11 C14_12 1_555 1_555
C15_12 C13_12 1_555 1_555
H13_12 C15_12 1_555 1_555
C17_12 C13_12 1_555 1_555
C18_12 C17_12 1_555 1_555
H15_12 C18_12 1_555 1_555
C19_12 C18_12 1_555 1_555
C20_12 C19_12 1_555 1_555
H16_11 C20_12 1_555 1_555
C21_11 C20_12 1_555 1_555
H17_11 C21_11 1_555 1_555
C22_11 C17_12 1_555 1_555
H18_11 C22_11 1_555 1_555
H19_12 N6_12 1_555 1_555
H20_12 N6_12 1_555 1_555
C5_12 N5_11 1_555 1_555
C19_12 N6_12 1_555 1_555
C21_11 C22_11 1_555 1_555
C12_12 H11_12 1_555 1_555
H14_12 C16_12 1_555 1_555
N5_12 C12_12 1_555 1_555
C16_12 N5_12 1_555 1_555
H8_12 C11_12 1_555 1_555
H17_12 C21_12 1_555 1_555
H18_12 C22_12 1_555 1_555
C21_12 C22_12 1_555 1_555
C9_12 C8_12 1_555 1_555
N6_11 C8_12 1_555 1_555
H9_12 N6_11 1_555 1_555
H10_12 N6_11 1_555 1_555
F2_11 Si1_20 1_555 1_555
F3_13 Si1_20 1_555 1_555
Si1_20 F4_13 1_555 1_555
F4_13 Cd3_7 1_555 1_555
H7_9 C10_9 1_555 1_555
H8_13 C11_13 1_555 1_555
Si1_21 F4_14 1_555 1_555
F4_14 Cd3_7 1_555 1_555
F5_11 Si1_21 1_555 1_555
F6_13 Si1_21 1_555 1_555
H17_13 C21_13 1_555 1_555
H18_13 C22_13 1_555 1_555
C10_9 C11_13 1_555 1_555
C21_13 C22_13 1_555 1_555
F5_12 Si1_22 1_555 1_555
F6_14 Si1_22 1_555 1_555
C9_13 C8_13 1_555 1_555
H6_10 C9_13 1_555 1_555
C10_10 C9_13 1_555 1_555
H7_10 C10_10 1_555 1_555
N2_7 C8_13 1_555 1_555
H9_13 N2_7 1_555 1_555
H10_13 N2_7 1_555 1_555
F5_13 Si1_23 1_555 1_555
H9_14 N6_13 1_555 1_555
H10_14 N6_13 1_555 1_555
F3_14 Si1_24 1_555 1_555
Si1_24 F4_15 1_555 1_555
F4_15 Cd3_8 1_555 1_555
F5_14 Si1_24 1_555 1_555
H7_11 C10_11 1_555 1_555
Si1_25 F4_16 1_555 1_555
F4_16 Cd3_8 1_555 1_555
F5_15 Si1_25 1_555 1_555
C1_13 H1_13 1_555 1_555
C2_13 C3_13 1_555 1_555
C3_13 C1_13 1_555 1_555
H2_14 C3_13 1_555 1_555
C4_13 C2_13 1_555 1_555
H3_13 C4_13 1_555 1_555
C5_13 C4_13 1_555 1_555
H4_13 C5_13 1_555 1_555
C6_13 C2_13 1_555 1_555
C7_13 C6_13 1_555 1_555
H5_13 C7_13 1_555 1_555
C11_14 C6_13 1_555 1_555
H8_14 C11_14 1_555 1_555
N1_7 C1_13 1_555 1_555
C12_13 H11_13 1_555 1_555
C13_13 C14_13 1_555 1_555
C14_13 C12_13 1_555 1_555
H12_14 C14_13 1_555 1_555
C15_13 C13_13 1_555 1_555
H13_13 C15_13 1_555 1_555
C16_13 C15_13 1_555 1_555
H14_13 C16_13 1_555 1_555
C17_13 C13_13 1_555 1_555
C18_13 C17_13 1_555 1_555
H15_13 C18_13 1_555 1_555
C19_13 C18_13 1_555 1_555
C20_13 C19_13 1_555 1_555
H16_14 C20_13 1_555 1_555
C21_14 C20_13 1_555 1_555
H17_14 C21_14 1_555 1_555
C22_14 C17_13 1_555 1_555
H18_14 C22_14 1_555 1_555
N3_7 C12_13 1_555 1_555
N4_7 Cd3_7 1_555 1_555
H19_13 N4_7 1_555 1_555
H20_13 N4_7 1_555 1_555
N5_13 Cd3_7 1_555 1_555
N6_14 Cd3_7 1_555 1_555
C5_13 N1_7 1_555 1_555
Cd3_7 N1_7 1_555 1_555
C16_13 N3_7 1_555 1_555
C19_13 N4_7 1_555 1_555
C21_14 C22_14 1_555 1_555
N3_7 Cd3_8 1_555 1_555
N5_14 Cd3_8 1_555 1_555
C2_14 C3_14 1_555 1_555
C4_14 C2_14 1_555 1_555
H3_14 C4_14 1_555 1_555
C6_14 C2_14 1_555 1_555
C7_14 C6_14 1_555 1_555
H5_14 C7_14 1_555 1_555
C12_14 H11_14 1_555 1_555
C13_14 C14_14 1_555 1_555
C14_14 C12_14 1_555 1_555
C15_14 C13_14 1_555 1_555
H13_14 C15_14 1_555 1_555
C16_14 C15_14 1_555 1_555
H14_14 C16_14 1_555 1_555
C17_14 C13_14 1_555 1_555
C18_14 C17_14 1_555 1_555
H15_14 C18_14 1_555 1_555
C19_14 C18_14 1_555 1_555
C20_14 C19_14 1_555 1_555
N5_14 C12_14 1_555 1_555
C16_14 N5_14 1_555 1_555
C1_14 H1_14 1_555 1_555
H4_14 C5_14 1_555 1_555
N5_13 C1_14 1_555 1_555
H19_14 N6_14 1_555 1_555
H20_14 N6_14 1_555 1_555
C5_14 N5_13 1_555 1_555
F2_12 Si1_26 1_555 1_555
F3_15 Si1_26 1_555 1_555
C1_15 H1_15 1_555 1_555
C2_15 C3_15 1_555 1_555
C3_15 C1_15 1_555 1_555
H2_15 C3_15 1_555 1_555
C4_15 C2_15 1_555 1_555
H3_15 C4_15 1_555 1_555
C5_15 C4_15 1_555 1_555
H4_15 C5_15 1_555 1_555
C6_15 C2_15 1_555 1_555
C7_15 C6_15 1_555 1_555
H5_15 C7_15 1_555 1_555
C11_15 C6_15 1_555 1_555
H8_15 C11_15 1_555 1_555
Cd1_4 F1_7 1_555 1_555
F1_7 Si1_27 1_555 1_555
N1_8 C1_15 1_555 1_555
F5_16 Si1_27 1_555 1_555
F6_15 Si1_27 1_555 1_555
C12_15 H11_15 1_555 1_555
C13_15 C14_15 1_555 1_555
C14_15 C12_15 1_555 1_555
H12_15 C14_15 1_555 1_555
C15_15 C13_15 1_555 1_555
H13_15 C15_15 1_555 1_555
C16_15 C15_15 1_555 1_555
H14_15 C16_15 1_555 1_555
C17_15 C13_15 1_555 1_555
C18_15 C17_15 1_555 1_555
H15_15 C18_15 1_555 1_555
C19_15 C18_15 1_555 1_555
C20_15 C19_15 1_555 1_555
H16_15 C20_15 1_555 1_555
C21_15 C20_15 1_555 1_555
H17_15 C21_15 1_555 1_555
C22_15 C17_15 1_555 1_555
H18_15 C22_15 1_555 1_555
N3_8 C12_15 1_555 1_555
N4_8 Cd1_4 1_555 1_555
H19_15 N4_8 1_555 1_555
H20_15 N4_8 1_555 1_555
F7_7 Cd1_4 1_555 1_555
N5_15 Cd1_4 1_555 1_555
N6_15 Cd1_4 1_555 1_555
C5_15 N1_8 1_555 1_555
Cd1_4 N1_8 1_555 1_555
C16_15 N3_8 1_555 1_555
C19_15 N4_8 1_555 1_555
C21_15 C22_15 1_555 1_555
N3_8 Cd2_4 1_555 1_555
Cd2_4 F1_8 1_555 1_555
F1_8 Si1_28 1_555 1_555
F2_13 Si1_28 1_555 1_555
F6_16 Si1_28 1_555 1_555
F7_8 Cd2_4 1_555 1_555
N5_16 Cd2_4 1_555 1_555
F2_14 Si1_29 1_555 1_555
C1_16 H1_16 1_555 1_555
H4_16 C5_16 1_555 1_555
F7_7 Si1_30 1_555 1_555
F2_15 Si1_30 1_555 1_555
F3_16 Si1_30 1_555 1_555
N5_15 C1_16 1_555 1_555
H19_16 N6_15 1_555 1_555
H20_16 N6_15 1_555 1_555
C5_16 N5_15 1_555 1_555
C2_16 C3_16 1_555 1_555
C4_16 C2_16 1_555 1_555
H3_16 C4_16 1_555 1_555
C6_16 C2_16 1_555 1_555
C7_16 C6_16 1_555 1_555
H5_16 C7_16 1_555 1_555
C12_16 H11_16 1_555 1_555
C13_16 C14_16 1_555 1_555
C14_16 C12_16 1_555 1_555
C15_16 C13_16 1_555 1_555
H13_16 C15_16 1_555 1_555
C16_16 C15_16 1_555 1_555
H14_16 C16_16 1_555 1_555
C17_16 C13_16 1_555 1_555
C18_16 C17_16 1_555 1_555
H15_16 C18_16 1_555 1_555
C19_16 C18_16 1_555 1_555
C20_16 C19_16 1_555 1_555
N5_16 C12_16 1_555 1_555
C16_16 N5_16 1_555 1_555
F7_8 Si1_31 1_555 1_555
F2_16 Si1_31 1_555 1_555
H7_12 C10_12 1_555 1_555
H8_16 C11_16 1_555 1_555
H17_16 C21_16 1_555 1_555
H18_16 C22_16 1_555 1_555
C10_12 C11_16 1_555 1_555
C21_16 C22_16 1_555 1_555
C9_14 C8_14 1_555 1_555
H6_14 C9_14 1_555 1_555
C10_13 C9_14 1_555 1_555
H7_13 C10_13 1_555 1_555
N2_8 C8_14 1_555 1_555
H9_15 N2_8 1_555 1_555
H10_15 N2_8 1_555 1_555
H9_16 N6_16 1_555 1_555
H10_16 N6_16 1_555 1_555
H7_14 C10_14 1_555 1_555
C9_15 C8_15 1_555 1_555
C10_15 C9_15 1_555 1_555
H7_15 C10_15 1_555 1_555
C9_16 C8_16 1_555 1_555
C10_16 C9_16 1_555 1_555
H7_16 C10_16 1_555 1_555

#END
