
###############################################################################
#
# This file contains modified crystal structure data generated from the
# MOF subset of the Cambridge Structural Database (CSD) v543 
# hosted by the Cambridge Crystallographic Data Centre (CCDC).
#
# This work is licensed under the Creative Commons
# Attribution-NonCommercial-ShareAlike 4.0 International License.
# To view a copy of this license, visit
# http://creativecommons.org/licenses/by-nc-sa/4.0/
# or send a letter to
# Creative Commons, PO Box 1866, Mountain View, CA 94042, USA.
#
# CIF created using the CSD Python API on 29 September 2022
# The structure has been converted into the P1 space group
# The structure has a 3D framework
# The original CSD entry POMDIH is in the orthorhombic crystal system
# The framework has been calculated to contain at least 10.0% void space
# The void calculation uses a probe of radius 1.32A, grid spacing 0.4
#
###############################################################################

data_POMDIH
_chemical_formula_moiety         '(C192 H96 Fe12 N32 O64)n'
_symmetry_cell_setting           triclinic
_symmetry_space_group_name_H-M   'P 1'
_symmetry_Int_Tables_number      1
_space_group_name_Hall           'P 1'
loop_
_symmetry_equiv_pos_site_id
_symmetry_equiv_pos_as_xyz
1 x,y,z
_cell_length_a                   16.224(2)
_cell_length_b                   18.154(3)
_cell_length_c                   23.985(4)
_cell_angle_alpha                90
_cell_angle_beta                 90
_cell_angle_gamma                90
_cell_volume                     7064.31
loop_
_atom_site_label
_atom_site_type_symbol
_atom_site_fract_x
_atom_site_fract_y
_atom_site_fract_z
Fe1 Fe 0.23792(3) 0.625000 0.125000
O1 O 0.47345(11) 0.45542(9) 0.31955(6)
O2 O 0.33566(11) 0.45074(9) 0.31164(6)
N1 N 0.34773(12) 0.58303(10) 0.17031(8)
C1 C 0.40514(16) 0.47118(12) 0.29696(8)
C2 C 0.34429(16) 0.54277(13) 0.21698(9)
H1 H 0.291586 0.529288 0.230894
C3 C 0.41290(16) 0.51979(13) 0.24597(9)
C4 C 0.42130(17) 0.60280(17) 0.15112(11)
C5 C 0.48823(19) 0.5397(2) 0.22565(15)
H2 H 0.537040 0.525094 0.244534
C6 C 0.4932(2) 0.5814(3) 0.17722(18)
H3 H 0.545261 0.595067 0.162316
N2 N 0.34773(12) 0.66697(10) 0.07969(8)
C8 C 0.34429(16) 0.70723(13) 0.03302(9)
H4 H 0.291586 0.720712 0.019106
C9 C 0.41290(16) 0.73021(13) 0.00403(9)
C10 C 0.42130(17) 0.64720(17) 0.09888(11)
C11 C 0.48823(19) 0.7103(2) 0.02435(15)
H5 H 0.537040 0.724906 0.005466
C12 C 0.4932(2) 0.6686(3) 0.07278(18)
H6 H 0.545261 0.654933 0.087684
Fe3 Fe 0.48792(3) 0.375000 0.375000
Fe4 Fe 0.26208(3) 0.375000 0.375000
O5 O 0.22345(11) 0.70542(9) 0.18045(6)
O6 O 0.22345(11) 0.54458(9) 0.06955(6)
O7 O 0.16434(11) 0.54926(9) 0.18836(6)
O8 O 0.16434(11) 0.70074(9) 0.06164(6)
O3 O 0.47345(11) 0.79458(9) 0.93045(6)
O4 O 0.33566(11) 0.79926(9) 0.93836(6)
C7 C 0.40514(16) 0.77882(12) 0.95304(8)
Fe2 Fe 0.48792(3) 0.875000 0.875000
Fe5 Fe 0.26208(3) 0.875000 0.875000
Fe1_2 Fe 0.51208(3) 0.125000 0.125000
O1_2 O 0.27655(11) 0.29458(9) 0.31955(6)
O2_2 O 0.41434(11) 0.29926(9) 0.31164(6)
N1_2 N 0.40227(12) 0.16697(10) 0.17031(8)
C1_2 C 0.34486(16) 0.27882(12) 0.29696(8)
C2_2 C 0.40571(16) 0.20723(13) 0.21698(9)
H1_2 H 0.458414 0.220712 0.230894
C3_2 C 0.33710(16) 0.23021(13) 0.24597(9)
C4_2 C 0.32870(17) 0.14720(17) 0.15112(11)
C5_2 C 0.26177(19) 0.2103(2) 0.22565(15)
H2_2 H 0.212960 0.224906 0.244534
C6_2 C 0.2568(2) 0.1686(3) 0.17722(18)
H3_2 H 0.204739 0.154933 0.162316
N2_2 N 0.40227(12) 0.08303(10) 0.07969(8)
C8_2 C 0.40571(16) 0.04277(13) 0.03302(9)
H4_2 H 0.458414 0.029288 0.019106
C9_2 C 0.33710(16) 0.01979(13) 0.00403(9)
C10_2 C 0.32870(17) 0.10280(17) 0.09888(11)
C11_2 C 0.26177(19) 0.0397(2) 0.02435(15)
H5_2 H 0.212960 0.025094 0.005466
C12_2 C 0.2568(2) 0.0814(3) 0.07278(18)
H6_2 H 0.204739 0.095067 0.087684
O5_2 O 0.52655(11) 0.04458(9) 0.18045(6)
O6_2 O 0.52655(11) 0.20542(9) 0.06955(6)
O7_2 O 0.58566(11) 0.20074(9) 0.18836(6)
O8_2 O 0.58566(11) 0.04926(9) 0.06164(6)
O3_2 O 0.27655(11) 0.95542(9) 0.93045(6)
O4_2 O 0.41434(11) 0.95074(9) 0.93836(6)
C7_2 C 0.34486(16) 0.97118(12) 0.95304(8)
Fe1_3 Fe 0.51208(3) 0.625000 0.625000
O1_3 O 0.27655(11) 0.45542(9) 0.43045(6)
O2_3 O 0.41434(11) 0.45074(9) 0.43836(6)
N1_3 N 0.40227(12) 0.58303(10) 0.57969(8)
C1_3 C 0.34486(16) 0.47118(12) 0.45304(8)
C2_3 C 0.40571(16) 0.54277(13) 0.53302(9)
H1_3 H 0.458414 0.529288 0.519106
C3_3 C 0.33710(16) 0.51979(13) 0.50403(9)
C4_3 C 0.32870(17) 0.60280(17) 0.59888(11)
C5_3 C 0.26177(19) 0.5397(2) 0.52435(15)
H2_3 H 0.212960 0.525094 0.505466
C6_3 C 0.2568(2) 0.5814(3) 0.57278(18)
H3_3 H 0.204739 0.595067 0.587684
O3_3 O 0.27655(11) 0.79458(9) 0.81955(6)
O4_3 O 0.41434(11) 0.79926(9) 0.81164(6)
N2_3 N 0.40227(12) 0.66697(10) 0.67031(8)
C7_3 C 0.34486(16) 0.77882(12) 0.79696(8)
C8_3 C 0.40571(16) 0.70723(13) 0.71698(9)
H4_3 H 0.458414 0.720712 0.730894
C9_3 C 0.33710(16) 0.73021(13) 0.74597(9)
C10_3 C 0.32870(17) 0.64720(17) 0.65112(11)
C11_3 C 0.26177(19) 0.7103(2) 0.72565(15)
H5_3 H 0.212960 0.724906 0.744534
C12_3 C 0.2568(2) 0.6686(3) 0.67722(18)
H6_3 H 0.204739 0.654933 0.662316
O5_3 O 0.52655(11) 0.70542(9) 0.56955(6)
O6_3 O 0.52655(11) 0.54458(9) 0.68045(6)
O7_3 O 0.58566(11) 0.54926(9) 0.56164(6)
O8_3 O 0.58566(11) 0.70074(9) 0.68836(6)
Fe1_4 Fe 0.23792(3) 0.125000 0.625000
O1_4 O 0.47345(11) 0.29458(9) 0.43045(6)
O2_4 O 0.33566(11) 0.29926(9) 0.43836(6)
N1_4 N 0.34773(12) 0.16697(10) 0.57969(8)
C1_4 C 0.40514(16) 0.27882(12) 0.45304(8)
C2_4 C 0.34429(16) 0.20723(13) 0.53302(9)
H1_4 H 0.291586 0.220712 0.519106
C3_4 C 0.41290(16) 0.23021(13) 0.50403(9)
C4_4 C 0.42130(17) 0.14720(17) 0.59888(11)
C5_4 C 0.48823(19) 0.2103(2) 0.52435(15)
H2_4 H 0.537040 0.224906 0.505466
C6_4 C 0.4932(2) 0.1686(3) 0.57278(18)
H3_4 H 0.545261 0.154933 0.587684
N2_4 N 0.34773(12) 0.08303(10) 0.67031(8)
C8_4 C 0.34429(16) 0.04277(13) 0.71698(9)
H4_4 H 0.291586 0.029288 0.730894
C9_4 C 0.41290(16) 0.01979(13) 0.74597(9)
C10_4 C 0.42130(17) 0.10280(17) 0.65112(11)
C11_4 C 0.48823(19) 0.0397(2) 0.72565(15)
H5_4 H 0.537040 0.025094 0.744534
C12_4 C 0.4932(2) 0.0814(3) 0.67722(18)
H6_4 H 0.545261 0.095067 0.662316
O5_4 O 0.22345(11) 0.04458(9) 0.56955(6)
O6_4 O 0.22345(11) 0.20542(9) 0.68045(6)
O7_4 O 0.16434(11) 0.20074(9) 0.56164(6)
O8_4 O 0.16434(11) 0.04926(9) 0.68836(6)
O3_4 O 0.47345(11) 0.95542(9) 0.81955(6)
O4_4 O 0.33566(11) 0.95074(9) 0.81164(6)
C7_4 C 0.40514(16) 0.97118(12) 0.79696(8)
Fe1_5 Fe 0.73792(3) 0.625000 0.625000
O1_5 O 0.97345(11) 0.45542(9) 0.81955(6)
O2_5 O 0.83566(11) 0.45074(9) 0.81164(6)
N1_5 N 0.84773(12) 0.58303(10) 0.67031(8)
C1_5 C 0.90514(16) 0.47118(12) 0.79696(8)
C2_5 C 0.84429(16) 0.54277(13) 0.71698(9)
H1_5 H 0.791586 0.529288 0.730894
C3_5 C 0.91290(16) 0.51979(13) 0.74597(9)
C4_5 C 0.92130(17) 0.60280(17) 0.65112(11)
C5_5 C 0.98823(19) 0.5397(2) 0.72565(15)
C6_5 C 0.9932(2) 0.5814(3) 0.67722(18)
O3_5 O 0.97345(11) 0.79458(9) 0.43045(6)
O4_5 O 0.83566(11) 0.79926(9) 0.43836(6)
N2_5 N 0.84773(12) 0.66697(10) 0.57969(8)
C7_5 C 0.90514(16) 0.77882(12) 0.45304(8)
C8_5 C 0.84429(16) 0.70723(13) 0.53302(9)
H4_5 H 0.791586 0.720712 0.519106
C9_5 C 0.91290(16) 0.73021(13) 0.50403(9)
C10_5 C 0.92130(17) 0.64720(17) 0.59888(11)
C11_5 C 0.98823(19) 0.7103(2) 0.52435(15)
C12_5 C 0.9932(2) 0.6686(3) 0.57278(18)
Fe2_2 Fe 0.98792(3) 0.875000 0.375000
Fe3_2 Fe 0.98792(3) 0.375000 0.875000
Fe4_2 Fe 0.76208(3) 0.375000 0.875000
Fe5_2 Fe 0.76208(3) 0.875000 0.375000
O5_5 O 0.72345(11) 0.70542(9) 0.68045(6)
O6_5 O 0.72345(11) 0.54458(9) 0.56955(6)
O7_5 O 0.66434(11) 0.54926(9) 0.68836(6)
O8_5 O 0.66434(11) 0.70074(9) 0.56164(6)
Fe1_6 Fe 0.01208(3) 0.125000 0.625000
O5_6 O 0.02655(11) 0.04458(9) 0.68045(6)
O6_6 O 0.02655(11) 0.20542(9) 0.56955(6)
O7_6 O 0.08566(11) 0.20074(9) 0.68836(6)
O8_6 O 0.08566(11) 0.04926(9) 0.56164(6)
O1_6 O 0.77655(11) 0.29458(9) 0.81955(6)
O2_6 O 0.91434(11) 0.29926(9) 0.81164(6)
N1_6 N 0.90227(12) 0.16697(10) 0.67031(8)
C1_6 C 0.84486(16) 0.27882(12) 0.79696(8)
C2_6 C 0.90571(16) 0.20723(13) 0.71698(9)
H1_6 H 0.958414 0.220712 0.730894
C3_6 C 0.83710(16) 0.23021(13) 0.74597(9)
C4_6 C 0.82870(17) 0.14720(17) 0.65112(11)
C5_6 C 0.76177(19) 0.2103(2) 0.72565(15)
H2_5 H 0.712960 0.224906 0.744534
C6_6 C 0.7568(2) 0.1686(3) 0.67722(18)
H3_5 H 0.704739 0.154933 0.662316
N2_6 N 0.90227(12) 0.08303(10) 0.57969(8)
C8_6 C 0.90571(16) 0.04277(13) 0.53302(9)
H4_6 H 0.958414 0.029288 0.519106
C9_6 C 0.83710(16) 0.01979(13) 0.50403(9)
C10_6 C 0.82870(17) 0.10280(17) 0.59888(11)
C11_6 C 0.76177(19) 0.0397(2) 0.52435(15)
H5_5 H 0.712960 0.025094 0.505466
C12_6 C 0.7568(2) 0.0814(3) 0.57278(18)
H6_5 H 0.704739 0.095067 0.587684
O3_6 O 0.77655(11) 0.95542(9) 0.43045(6)
O4_6 O 0.91434(11) 0.95074(9) 0.43836(6)
C7_6 C 0.84486(16) 0.97118(12) 0.45304(8)
Fe1_7 Fe 0.01208(3) 0.625000 0.125000
O5_7 O 0.02655(11) 0.70542(9) 0.06955(6)
O6_7 O 0.02655(11) 0.54458(9) 0.18045(6)
O7_7 O 0.08566(11) 0.54926(9) 0.06164(6)
O8_7 O 0.08566(11) 0.70074(9) 0.18836(6)
N1_7 N 0.90227(12) 0.58303(10) 0.07969(8)
C2_7 C 0.90571(16) 0.54277(13) 0.03302(9)
H1_7 H 0.958414 0.529288 0.019106
C3_7 C 0.83710(16) 0.51979(13) 0.00403(9)
C4_7 C 0.82870(17) 0.60280(17) 0.09888(11)
C5_7 C 0.76177(19) 0.5397(2) 0.02435(15)
H2_6 H 0.712960 0.525094 0.005466
C6_7 C 0.7568(2) 0.5814(3) 0.07278(18)
H3_6 H 0.704739 0.595067 0.087684
O3_7 O 0.77655(11) 0.79458(9) 0.31955(6)
O4_7 O 0.91434(11) 0.79926(9) 0.31164(6)
N2_7 N 0.90227(12) 0.66697(10) 0.17031(8)
C7_7 C 0.84486(16) 0.77882(12) 0.29696(8)
C8_7 C 0.90571(16) 0.70723(13) 0.21698(9)
H4_7 H 0.958414 0.720712 0.230894
C9_7 C 0.83710(16) 0.73021(13) 0.24597(9)
C10_7 C 0.82870(17) 0.64720(17) 0.15112(11)
C11_7 C 0.76177(19) 0.7103(2) 0.22565(15)
H5_6 H 0.712960 0.724906 0.244534
C12_7 C 0.7568(2) 0.6686(3) 0.17722(18)
H6_6 H 0.704739 0.654933 0.162316
O1_7 O 0.77655(11) 0.45542(9) 0.93045(6)
O2_7 O 0.91434(11) 0.45074(9) 0.93836(6)
C1_7 C 0.84486(16) 0.47118(12) 0.95304(8)
Fe1_8 Fe 0.73792(3) 0.125000 0.125000
N1_8 N 0.84773(12) 0.16697(10) 0.07969(8)
C2_8 C 0.84429(16) 0.20723(13) 0.03302(9)
H1_8 H 0.791586 0.220712 0.019106
C3_8 C 0.91290(16) 0.23021(13) 0.00403(9)
C4_8 C 0.92130(17) 0.14720(17) 0.09888(11)
C5_8 C 0.98823(19) 0.2103(2) 0.02435(15)
C6_8 C 0.9932(2) 0.1686(3) 0.07278(18)
N2_8 N 0.84773(12) 0.08303(10) 0.17031(8)
C8_8 C 0.84429(16) 0.04277(13) 0.21698(9)
H4_8 H 0.791586 0.029288 0.230894
C9_8 C 0.91290(16) 0.01979(13) 0.24597(9)
C10_8 C 0.92130(17) 0.10280(17) 0.15112(11)
C11_8 C 0.98823(19) 0.0397(2) 0.22565(15)
C12_8 C 0.9932(2) 0.0814(3) 0.17722(18)
O5_8 O 0.72345(11) 0.04458(9) 0.06955(6)
O6_8 O 0.72345(11) 0.20542(9) 0.18045(6)
O7_8 O 0.66434(11) 0.20074(9) 0.06164(6)
O8_8 O 0.66434(11) 0.04926(9) 0.18836(6)
O1_8 O 0.97345(11) 0.29458(9) 0.93045(6)
O2_8 O 0.83566(11) 0.29926(9) 0.93836(6)
C1_8 C 0.90514(16) 0.27882(12) 0.95304(8)
O3_8 O 0.97345(11) 0.95542(9) 0.31955(6)
O4_8 O 0.83566(11) 0.95074(9) 0.31164(6)
C7_8 C 0.90514(16) 0.97118(12) 0.29696(8)
C7_9 C 0.59486(16) 0.22118(12) 0.04696(8)
N1_9 N 0.65227(12) 0.41697(10) 0.82969(8)
C1_9 C 0.59486(16) 0.52882(12) 0.70304(8)
C2_9 C 0.65571(16) 0.45723(13) 0.78302(9)
H1_9 H 0.708414 0.470712 0.769106
C3_9 C 0.58710(16) 0.48021(13) 0.75403(9)
C4_9 C 0.57870(17) 0.39720(17) 0.84888(11)
C5_9 C 0.51177(19) 0.4603(2) 0.77435(15)
H2_7 H 0.462960 0.474906 0.755466
C6_9 C 0.5068(2) 0.4186(3) 0.82278(18)
H3_7 H 0.454739 0.404933 0.837684
N2_9 N 0.65227(12) 0.33303(10) 0.92031(8)
C8_9 C 0.65571(16) 0.29277(13) 0.96698(9)
H4_9 H 0.708414 0.279288 0.980894
C9_9 C 0.58710(16) 0.26979(13) 0.99597(9)
C10_9 C 0.57870(17) 0.35280(17) 0.90112(11)
C11_9 C 0.51177(19) 0.2897(2) 0.97565(15)
H5_7 H 0.462960 0.275094 0.994534
C12_9 C 0.5068(2) 0.3314(3) 0.92722(18)
H6_7 H 0.454739 0.345067 0.912316
C7_10 C 0.65514(16) 0.02882(12) 0.04696(8)
N1_10 N 0.59773(12) 0.83303(10) 0.82969(8)
C1_10 C 0.65514(16) 0.72118(12) 0.70304(8)
C2_10 C 0.59429(16) 0.79277(13) 0.78302(9)
H1_10 H 0.541586 0.779288 0.769106
C3_10 C 0.66290(16) 0.76979(13) 0.75403(9)
C4_10 C 0.67130(17) 0.85280(17) 0.84888(11)
C5_10 C 0.73823(19) 0.7897(2) 0.77435(15)
H2_8 H 0.787040 0.775094 0.755466
C6_10 C 0.7432(2) 0.8314(3) 0.82278(18)
H3_8 H 0.795261 0.845067 0.837684
N2_10 N 0.59773(12) 0.91697(10) 0.92031(8)
C8_10 C 0.59429(16) 0.95723(13) 0.96698(9)
H4_10 H 0.541586 0.970712 0.980894
C9_10 C 0.66290(16) 0.98021(13) 0.99597(9)
C10_10 C 0.67130(17) 0.89720(17) 0.90112(11)
C11_10 C 0.73823(19) 0.9603(2) 0.97565(15)
H5_8 H 0.787040 0.974906 0.994534
C12_10 C 0.7432(2) 0.9186(3) 0.92722(18)
H6_8 H 0.795261 0.904933 0.912316
N1_11 N 0.59773(12) 0.41697(10) 0.42031(8)
C1_11 C 0.65514(16) 0.52882(12) 0.54696(8)
C2_11 C 0.59429(16) 0.45723(13) 0.46698(9)
H1_11 H 0.541586 0.470712 0.480894
C3_11 C 0.66290(16) 0.48021(13) 0.49597(9)
C4_11 C 0.67130(17) 0.39720(17) 0.40112(11)
C5_11 C 0.73823(19) 0.4603(2) 0.47565(15)
H2_9 H 0.787040 0.474906 0.494534
C6_11 C 0.7432(2) 0.4186(3) 0.42722(18)
H3_9 H 0.795261 0.404933 0.412316
N2_11 N 0.59773(12) 0.33303(10) 0.32969(8)
C7_11 C 0.65514(16) 0.22118(12) 0.20304(8)
C8_11 C 0.59429(16) 0.29277(13) 0.28302(9)
H4_11 H 0.541586 0.279288 0.269106
C9_11 C 0.66290(16) 0.26979(13) 0.25403(9)
C10_11 C 0.67130(17) 0.35280(17) 0.34888(11)
C11_11 C 0.73823(19) 0.2897(2) 0.27435(15)
H5_9 H 0.787040 0.275094 0.255466
C12_11 C 0.7432(2) 0.3314(3) 0.32278(18)
H6_9 H 0.795261 0.345067 0.337684
C7_12 C 0.59486(16) 0.02882(12) 0.20304(8)
N1_12 N 0.65227(12) 0.83303(10) 0.42031(8)
C1_12 C 0.59486(16) 0.72118(12) 0.54696(8)
C2_12 C 0.65571(16) 0.79277(13) 0.46698(9)
H1_12 H 0.708414 0.779288 0.480894
C3_12 C 0.58710(16) 0.76979(13) 0.49597(9)
C4_12 C 0.57870(17) 0.85280(17) 0.40112(11)
C5_12 C 0.51177(19) 0.7897(2) 0.47565(15)
H2_10 H 0.462960 0.775094 0.494534
C6_12 C 0.5068(2) 0.8314(3) 0.42722(18)
H3_10 H 0.454739 0.845067 0.412316
N2_12 N 0.65227(12) 0.91697(10) 0.32969(8)
C8_12 C 0.65571(16) 0.95723(13) 0.28302(9)
H4_12 H 0.708414 0.970712 0.269106
C9_12 C 0.58710(16) 0.98021(13) 0.25403(9)
C10_12 C 0.57870(17) 0.89720(17) 0.34888(11)
C11_12 C 0.51177(19) 0.9603(2) 0.27435(15)
H5_10 H 0.462960 0.974906 0.255466
C12_12 C 0.5068(2) 0.9186(3) 0.32278(18)
H6_10 H 0.454739 0.904933 0.337684
N1_13 N 0.15227(12) 0.41697(10) 0.32969(8)
C1_13 C 0.09486(16) 0.52882(12) 0.20304(8)
C2_13 C 0.15571(16) 0.45723(13) 0.28302(9)
H1_13 H 0.208414 0.470712 0.269106
C3_13 C 0.08710(16) 0.48021(13) 0.25403(9)
C4_13 C 0.07870(17) 0.39720(17) 0.34888(11)
C5_13 C 0.01177(19) 0.4603(2) 0.27435(15)
C6_13 C 0.0068(2) 0.4186(3) 0.32278(18)
N2_13 N 0.15227(12) 0.33303(10) 0.42031(8)
C7_13 C 0.09486(16) 0.22118(12) 0.54696(8)
C8_13 C 0.15571(16) 0.29277(13) 0.46698(9)
H4_13 H 0.208414 0.279288 0.480894
C9_13 C 0.08710(16) 0.26979(13) 0.49597(9)
C10_13 C 0.07870(17) 0.35280(17) 0.40112(11)
C11_13 C 0.01177(19) 0.2897(2) 0.47565(15)
C12_13 C 0.0068(2) 0.3314(3) 0.42722(18)
C7_14 C 0.15514(16) 0.02882(12) 0.54696(8)
N1_14 N 0.09773(12) 0.83303(10) 0.32969(8)
C1_14 C 0.15514(16) 0.72118(12) 0.20304(8)
C2_14 C 0.09429(16) 0.79277(13) 0.28302(9)
H1_14 H 0.041586 0.779288 0.269106
C3_14 C 0.16290(16) 0.76979(13) 0.25403(9)
C4_14 C 0.17130(17) 0.85280(17) 0.34888(11)
C5_14 C 0.23823(19) 0.7897(2) 0.27435(15)
H2_11 H 0.287040 0.775094 0.255466
C6_14 C 0.2432(2) 0.8314(3) 0.32278(18)
H3_11 H 0.295261 0.845067 0.337684
N2_14 N 0.09773(12) 0.91697(10) 0.42031(8)
C8_14 C 0.09429(16) 0.95723(13) 0.46698(9)
H4_14 H 0.041586 0.970712 0.480894
C9_14 C 0.16290(16) 0.98021(13) 0.49597(9)
C10_14 C 0.17130(17) 0.89720(17) 0.40112(11)
C11_14 C 0.23823(19) 0.9603(2) 0.47565(15)
H5_11 H 0.287040 0.974906 0.494534
C12_14 C 0.2432(2) 0.9186(3) 0.42722(18)
H6_11 H 0.295261 0.904933 0.412316
C1_15 C 0.15514(16) 0.52882(12) 0.04696(8)
N1_15 N 0.09773(12) 0.41697(10) 0.92031(8)
C2_15 C 0.09429(16) 0.45723(13) 0.96698(9)
H1_15 H 0.041586 0.470712 0.980894
C3_15 C 0.16290(16) 0.48021(13) 0.99597(9)
C4_15 C 0.17130(17) 0.39720(17) 0.90112(11)
C5_15 C 0.23823(19) 0.4603(2) 0.97565(15)
H2_12 H 0.287040 0.474906 0.994534
C6_15 C 0.2432(2) 0.4186(3) 0.92722(18)
H3_12 H 0.295261 0.404933 0.912316
N2_15 N 0.09773(12) 0.33303(10) 0.82969(8)
C7_15 C 0.15514(16) 0.22118(12) 0.70304(8)
C8_15 C 0.09429(16) 0.29277(13) 0.78302(9)
H4_15 H 0.041586 0.279288 0.769106
C9_15 C 0.16290(16) 0.26979(13) 0.75403(9)
C10_15 C 0.17130(17) 0.35280(17) 0.84888(11)
C11_15 C 0.23823(19) 0.2897(2) 0.77435(15)
H5_12 H 0.287040 0.275094 0.755466
C12_15 C 0.2432(2) 0.3314(3) 0.82278(18)
H6_12 H 0.295261 0.345067 0.837684
C7_16 C 0.09486(16) 0.02882(12) 0.70304(8)
C1_16 C 0.09486(16) 0.72118(12) 0.04696(8)
N1_16 N 0.15227(12) 0.83303(10) 0.92031(8)
C2_16 C 0.15571(16) 0.79277(13) 0.96698(9)
H1_16 H 0.208414 0.779288 0.980894
C3_16 C 0.08710(16) 0.76979(13) 0.99597(9)
C4_16 C 0.07870(17) 0.85280(17) 0.90112(11)
C5_16 C 0.01177(19) 0.7897(2) 0.97565(15)
C6_16 C 0.0068(2) 0.8314(3) 0.92722(18)
N2_16 N 0.15227(12) 0.91697(10) 0.82969(8)
C8_16 C 0.15571(16) 0.95723(13) 0.78302(9)
H4_16 H 0.208414 0.970712 0.769106
C9_16 C 0.08710(16) 0.98021(13) 0.75403(9)
C10_16 C 0.07870(17) 0.89720(17) 0.84888(11)
C11_16 C 0.01177(19) 0.9603(2) 0.77435(15)
C12_16 C 0.0068(2) 0.9186(3) 0.82278(18)
H2_13 H 0.037040 0.525094 0.744534
H3_13 H 0.045261 0.595067 0.662316
H5_13 H 0.037040 0.724906 0.505466
H6_13 H 0.045261 0.654933 0.587684
H2_14 H 0.037040 0.224906 0.005466
H3_14 H 0.045261 0.154933 0.087684
H5_14 H 0.037040 0.025094 0.244534
H6_14 H 0.045261 0.095067 0.162316
H2_15 H 0.962960 0.474906 0.255466
H3_15 H 0.954739 0.404933 0.337684
H5_15 H 0.962960 0.275094 0.494534
H6_15 H 0.954739 0.345067 0.412316
H2_16 H 0.962960 0.775094 0.994534
H3_16 H 0.954739 0.845067 0.912316
H5_16 H 0.962960 0.974906 0.755466
H6_16 H 0.954739 0.904933 0.837684
loop_
_geom_bond_atom_site_label_1
_geom_bond_atom_site_label_2
_geom_bond_site_symmetry_1
_geom_bond_site_symmetry_2
Fe1 N1 1_555 1_555
O1 C1 1_555 1_555
O2 C1 1_555 1_555
N1 C2 1_555 1_555
C1 C3 1_555 1_555
C2 H1 1_555 1_555
C3 C2 1_555 1_555
C4 N1 1_555 1_555
C5 C3 1_555 1_555
H2 C5 1_555 1_555
C6 C4 1_555 1_555
H3 C6 1_555 1_555
N2 Fe1 1_555 1_555
C8 N2 1_555 1_555
H4 C8 1_555 1_555
C9 C8 1_555 1_555
C10 C4 1_555 1_555
C11 C9 1_555 1_555
H5 C11 1_555 1_555
C12 C10 1_555 1_555
H6 C12 1_555 1_555
Fe3 O1 1_555 1_555
Fe4 O2 1_555 1_555
O5 Fe1 1_555 1_555
O6 Fe1 1_555 1_555
O7 Fe1 1_555 1_555
O8 Fe1 1_555 1_555
C5 C6 1_555 1_555
N2 C10 1_555 1_555
C11 C12 1_555 1_555
O3 C7 1_555 1_555
O4 C7 1_555 1_555
Fe2 O3 1_555 1_555
Fe5 O4 1_555 1_555
Fe1_2 N1_2 1_555 1_555
O1_2 C1_2 1_555 1_555
O2_2 C1_2 1_555 1_555
N1_2 C2_2 1_555 1_555
C1_2 C3_2 1_555 1_555
C2_2 H1_2 1_555 1_555
C3_2 C2_2 1_555 1_555
C4_2 N1_2 1_555 1_555
C5_2 C3_2 1_555 1_555
H2_2 C5_2 1_555 1_555
C6_2 C4_2 1_555 1_555
H3_2 C6_2 1_555 1_555
N2_2 Fe1_2 1_555 1_555
C8_2 N2_2 1_555 1_555
H4_2 C8_2 1_555 1_555
C9_2 C8_2 1_555 1_555
C10_2 C4_2 1_555 1_555
C11_2 C9_2 1_555 1_555
H5_2 C11_2 1_555 1_555
C12_2 C10_2 1_555 1_555
H6_2 C12_2 1_555 1_555
Fe4 O1_2 1_555 1_555
Fe3 O2_2 1_555 1_555
O5_2 Fe1_2 1_555 1_555
O6_2 Fe1_2 1_555 1_555
O7_2 Fe1_2 1_555 1_555
O8_2 Fe1_2 1_555 1_555
C5_2 C6_2 1_555 1_555
N2_2 C10_2 1_555 1_555
C11_2 C12_2 1_555 1_555
O3_2 C7_2 1_555 1_555
O4_2 C7_2 1_555 1_555
Fe5 O3_2 1_555 1_555
Fe2 O4_2 1_555 1_555
Fe1_3 N1_3 1_555 1_555
O1_3 C1_3 1_555 1_555
O2_3 C1_3 1_555 1_555
N1_3 C2_3 1_555 1_555
C1_3 C3_3 1_555 1_555
C2_3 H1_3 1_555 1_555
C3_3 C2_3 1_555 1_555
C4_3 N1_3 1_555 1_555
C5_3 C3_3 1_555 1_555
H2_3 C5_3 1_555 1_555
C6_3 C4_3 1_555 1_555
H3_3 C6_3 1_555 1_555
O3_3 C7_3 1_555 1_555
O4_3 C7_3 1_555 1_555
N2_3 Fe1_3 1_555 1_555
C7_3 C9_3 1_555 1_555
C8_3 N2_3 1_555 1_555
H4_3 C8_3 1_555 1_555
C9_3 C8_3 1_555 1_555
C10_3 C4_3 1_555 1_555
C11_3 C9_3 1_555 1_555
H5_3 C11_3 1_555 1_555
C12_3 C10_3 1_555 1_555
H6_3 C12_3 1_555 1_555
Fe5 O3_3 1_555 1_555
Fe4 O1_3 1_555 1_555
Fe3 O2_3 1_555 1_555
Fe2 O4_3 1_555 1_555
O5_3 Fe1_3 1_555 1_555
O6_3 Fe1_3 1_555 1_555
O7_3 Fe1_3 1_555 1_555
O8_3 Fe1_3 1_555 1_555
C5_3 C6_3 1_555 1_555
N2_3 C10_3 1_555 1_555
C11_3 C12_3 1_555 1_555
Fe1_4 N1_4 1_555 1_555
O1_4 C1_4 1_555 1_555
O2_4 C1_4 1_555 1_555
N1_4 C2_4 1_555 1_555
C1_4 C3_4 1_555 1_555
C2_4 H1_4 1_555 1_555
C3_4 C2_4 1_555 1_555
C4_4 N1_4 1_555 1_555
C5_4 C3_4 1_555 1_555
H2_4 C5_4 1_555 1_555
C6_4 C4_4 1_555 1_555
H3_4 C6_4 1_555 1_555
N2_4 Fe1_4 1_555 1_555
C8_4 N2_4 1_555 1_555
H4_4 C8_4 1_555 1_555
C9_4 C8_4 1_555 1_555
C10_4 C4_4 1_555 1_555
C11_4 C9_4 1_555 1_555
H5_4 C11_4 1_555 1_555
C12_4 C10_4 1_555 1_555
H6_4 C12_4 1_555 1_555
Fe3 O1_4 1_555 1_555
Fe4 O2_4 1_555 1_555
O5_4 Fe1_4 1_555 1_555
O6_4 Fe1_4 1_555 1_555
O7_4 Fe1_4 1_555 1_555
O8_4 Fe1_4 1_555 1_555
C5_4 C6_4 1_555 1_555
N2_4 C10_4 1_555 1_555
C11_4 C12_4 1_555 1_555
O3_4 C7_4 1_555 1_555
O4_4 C7_4 1_555 1_555
Fe2 O3_4 1_555 1_555
Fe5 O4_4 1_555 1_555
Fe1_5 N1_5 1_555 1_555
O1_5 C1_5 1_555 1_555
O2_5 C1_5 1_555 1_555
N1_5 C2_5 1_555 1_555
C1_5 C3_5 1_555 1_555
C2_5 H1_5 1_555 1_555
C3_5 C2_5 1_555 1_555
C4_5 N1_5 1_555 1_555
C5_5 C3_5 1_555 1_555
C6_5 C4_5 1_555 1_555
O3_5 C7_5 1_555 1_555
O4_5 C7_5 1_555 1_555
N2_5 Fe1_5 1_555 1_555
C7_5 C9_5 1_555 1_555
C8_5 N2_5 1_555 1_555
H4_5 C8_5 1_555 1_555
C9_5 C8_5 1_555 1_555
C10_5 C4_5 1_555 1_555
C11_5 C9_5 1_555 1_555
C12_5 C10_5 1_555 1_555
Fe2_2 O3_5 1_555 1_555
Fe3_2 O1_5 1_555 1_555
Fe4_2 O2_5 1_555 1_555
Fe5_2 O4_5 1_555 1_555
O5_5 Fe1_5 1_555 1_555
O6_5 Fe1_5 1_555 1_555
O7_5 Fe1_5 1_555 1_555
O8_5 Fe1_5 1_555 1_555
C5_5 C6_5 1_555 1_555
N2_5 C10_5 1_555 1_555
C11_5 C12_5 1_555 1_555
O5_6 Fe1_6 1_555 1_555
O6_6 Fe1_6 1_555 1_555
O7_6 Fe1_6 1_555 1_555
O8_6 Fe1_6 1_555 1_555
O1_6 C1_6 1_555 1_555
O2_6 C1_6 1_555 1_555
N1_6 C2_6 1_555 1_555
C1_6 C3_6 1_555 1_555
C2_6 H1_6 1_555 1_555
C3_6 C2_6 1_555 1_555
C4_6 N1_6 1_555 1_555
C5_6 C3_6 1_555 1_555
H2_5 C5_6 1_555 1_555
C6_6 C4_6 1_555 1_555
H3_5 C6_6 1_555 1_555
C8_6 N2_6 1_555 1_555
H4_6 C8_6 1_555 1_555
C9_6 C8_6 1_555 1_555
C10_6 C4_6 1_555 1_555
C11_6 C9_6 1_555 1_555
H5_5 C11_6 1_555 1_555
C12_6 C10_6 1_555 1_555
H6_5 C12_6 1_555 1_555
Fe4_2 O1_6 1_555 1_555
Fe3_2 O2_6 1_555 1_555
C5_6 C6_6 1_555 1_555
N2_6 C10_6 1_555 1_555
C11_6 C12_6 1_555 1_555
O3_6 C7_6 1_555 1_555
O4_6 C7_6 1_555 1_555
Fe5_2 O3_6 1_555 1_555
Fe2_2 O4_6 1_555 1_555
O5_7 Fe1_7 1_555 1_555
O6_7 Fe1_7 1_555 1_555
O7_7 Fe1_7 1_555 1_555
O8_7 Fe1_7 1_555 1_555
N1_7 C2_7 1_555 1_555
C2_7 H1_7 1_555 1_555
C3_7 C2_7 1_555 1_555
C4_7 N1_7 1_555 1_555
C5_7 C3_7 1_555 1_555
H2_6 C5_7 1_555 1_555
C6_7 C4_7 1_555 1_555
H3_6 C6_7 1_555 1_555
O3_7 C7_7 1_555 1_555
O4_7 C7_7 1_555 1_555
C7_7 C9_7 1_555 1_555
C8_7 N2_7 1_555 1_555
H4_7 C8_7 1_555 1_555
C9_7 C8_7 1_555 1_555
C10_7 C4_7 1_555 1_555
C11_7 C9_7 1_555 1_555
H5_6 C11_7 1_555 1_555
C12_7 C10_7 1_555 1_555
H6_6 C12_7 1_555 1_555
Fe5_2 O3_7 1_555 1_555
Fe2_2 O4_7 1_555 1_555
C5_7 C6_7 1_555 1_555
N2_7 C10_7 1_555 1_555
C11_7 C12_7 1_555 1_555
O1_7 C1_7 1_555 1_555
O2_7 C1_7 1_555 1_555
Fe4_2 O1_7 1_555 1_555
Fe3_2 O2_7 1_555 1_555
Fe1_8 N1_8 1_555 1_555
N1_8 C2_8 1_555 1_555
C2_8 H1_8 1_555 1_555
C3_8 C2_8 1_555 1_555
C4_8 N1_8 1_555 1_555
C5_8 C3_8 1_555 1_555
C6_8 C4_8 1_555 1_555
N2_8 Fe1_8 1_555 1_555
C8_8 N2_8 1_555 1_555
H4_8 C8_8 1_555 1_555
C9_8 C8_8 1_555 1_555
C10_8 C4_8 1_555 1_555
C11_8 C9_8 1_555 1_555
C12_8 C10_8 1_555 1_555
O5_8 Fe1_8 1_555 1_555
O6_8 Fe1_8 1_555 1_555
O7_8 Fe1_8 1_555 1_555
O8_8 Fe1_8 1_555 1_555
C5_8 C6_8 1_555 1_555
N2_8 C10_8 1_555 1_555
C11_8 C12_8 1_555 1_555
O1_8 C1_8 1_555 1_555
O2_8 C1_8 1_555 1_555
Fe3_2 O1_8 1_555 1_555
Fe4_2 O2_8 1_555 1_555
O3_8 C7_8 1_555 1_555
O4_8 C7_8 1_555 1_555
Fe2_2 O3_8 1_555 1_555
Fe5_2 O4_8 1_555 1_555
O6_2 C7_9 1_555 1_555
O7_8 C7_9 1_555 1_555
Fe4_2 N1_9 1_555 1_555
O6_3 C1_9 1_555 1_555
O7_5 C1_9 1_555 1_555
N1_9 C2_9 1_555 1_555
C1_9 C3_9 1_555 1_555
C2_9 H1_9 1_555 1_555
C3_9 C2_9 1_555 1_555
C4_9 N1_9 1_555 1_555
C5_9 C3_9 1_555 1_555
H2_7 C5_9 1_555 1_555
C6_9 C4_9 1_555 1_555
H3_7 C6_9 1_555 1_555
N2_9 Fe4_2 1_555 1_555
C8_9 N2_9 1_555 1_555
H4_9 C8_9 1_555 1_555
C9_9 C8_9 1_555 1_555
C10_9 C4_9 1_555 1_555
C11_9 C9_9 1_555 1_555
H5_7 C11_9 1_555 1_555
C12_9 C10_9 1_555 1_555
H6_7 C12_9 1_555 1_555
C5_9 C6_9 1_555 1_555
N2_9 C10_9 1_555 1_555
C11_9 C12_9 1_555 1_555
O5_8 C7_10 1_555 1_555
O8_2 C7_10 1_555 1_555
Fe2 N1_10 1_555 1_555
O5_5 C1_10 1_555 1_555
O8_3 C1_10 1_555 1_555
N1_10 C2_10 1_555 1_555
C1_10 C3_10 1_555 1_555
C2_10 H1_10 1_555 1_555
C3_10 C2_10 1_555 1_555
C4_10 N1_10 1_555 1_555
C5_10 C3_10 1_555 1_555
H2_8 C5_10 1_555 1_555
C6_10 C4_10 1_555 1_555
H3_8 C6_10 1_555 1_555
N2_10 Fe2 1_555 1_555
C8_10 N2_10 1_555 1_555
H4_10 C8_10 1_555 1_555
C9_10 C8_10 1_555 1_555
C10_10 C4_10 1_555 1_555
C11_10 C9_10 1_555 1_555
H5_8 C11_10 1_555 1_555
C12_10 C10_10 1_555 1_555
H6_8 C12_10 1_555 1_555
C5_10 C6_10 1_555 1_555
N2_10 C10_10 1_555 1_555
C11_10 C12_10 1_555 1_555
Fe3 N1_11 1_555 1_555
O6_5 C1_11 1_555 1_555
O7_3 C1_11 1_555 1_555
N1_11 C2_11 1_555 1_555
C1_11 C3_11 1_555 1_555
C2_11 H1_11 1_555 1_555
C3_11 C2_11 1_555 1_555
C4_11 N1_11 1_555 1_555
C5_11 C3_11 1_555 1_555
H2_9 C5_11 1_555 1_555
C6_11 C4_11 1_555 1_555
H3_9 C6_11 1_555 1_555
O6_8 C7_11 1_555 1_555
O7_2 C7_11 1_555 1_555
N2_11 Fe3 1_555 1_555
C7_11 C9_11 1_555 1_555
C8_11 N2_11 1_555 1_555
H4_11 C8_11 1_555 1_555
C9_11 C8_11 1_555 1_555
C10_11 C4_11 1_555 1_555
C11_11 C9_11 1_555 1_555
H5_9 C11_11 1_555 1_555
C12_11 C10_11 1_555 1_555
H6_9 C12_11 1_555 1_555
C5_11 C6_11 1_555 1_555
N2_11 C10_11 1_555 1_555
C11_11 C12_11 1_555 1_555
O5_2 C7_12 1_555 1_555
O8_8 C7_12 1_555 1_555
Fe5_2 N1_12 1_555 1_555
O5_3 C1_12 1_555 1_555
O8_5 C1_12 1_555 1_555
N1_12 C2_12 1_555 1_555
C1_12 C3_12 1_555 1_555
C2_12 H1_12 1_555 1_555
C3_12 C2_12 1_555 1_555
C4_12 N1_12 1_555 1_555
C5_12 C3_12 1_555 1_555
H2_10 C5_12 1_555 1_555
C6_12 C4_12 1_555 1_555
H3_10 C6_12 1_555 1_555
N2_12 Fe5_2 1_555 1_555
C8_12 N2_12 1_555 1_555
H4_12 C8_12 1_555 1_555
C9_12 C8_12 1_555 1_555
C10_12 C4_12 1_555 1_555
C11_12 C9_12 1_555 1_555
H5_10 C11_12 1_555 1_555
C12_12 C10_12 1_555 1_555
H6_10 C12_12 1_555 1_555
C5_12 C6_12 1_555 1_555
N2_12 C10_12 1_555 1_555
C11_12 C12_12 1_555 1_555
Fe4 N1_13 1_555 1_555
O6_7 C1_13 1_555 1_555
O7 C1_13 1_555 1_555
N1_13 C2_13 1_555 1_555
C1_13 C3_13 1_555 1_555
C2_13 H1_13 1_555 1_555
C3_13 C2_13 1_555 1_555
C4_13 N1_13 1_555 1_555
C5_13 C3_13 1_555 1_555
C6_13 C4_13 1_555 1_555
O6_6 C7_13 1_555 1_555
O7_4 C7_13 1_555 1_555
N2_13 Fe4 1_555 1_555
C7_13 C9_13 1_555 1_555
C8_13 N2_13 1_555 1_555
H4_13 C8_13 1_555 1_555
C9_13 C8_13 1_555 1_555
C10_13 C4_13 1_555 1_555
C11_13 C9_13 1_555 1_555
C12_13 C10_13 1_555 1_555
C5_13 C6_13 1_555 1_555
N2_13 C10_13 1_555 1_555
C11_13 C12_13 1_555 1_555
O5_4 C7_14 1_555 1_555
O8_6 C7_14 1_555 1_555
O5 C1_14 1_555 1_555
O8_7 C1_14 1_555 1_555
N1_14 C2_14 1_555 1_555
C1_14 C3_14 1_555 1_555
C2_14 H1_14 1_555 1_555
C3_14 C2_14 1_555 1_555
C4_14 N1_14 1_555 1_555
C5_14 C3_14 1_555 1_555
H2_11 C5_14 1_555 1_555
C6_14 C4_14 1_555 1_555
H3_11 C6_14 1_555 1_555
C8_14 N2_14 1_555 1_555
H4_14 C8_14 1_555 1_555
C9_14 C8_14 1_555 1_555
C10_14 C4_14 1_555 1_555
C11_14 C9_14 1_555 1_555
H5_11 C11_14 1_555 1_555
C12_14 C10_14 1_555 1_555
H6_11 C12_14 1_555 1_555
C5_14 C6_14 1_555 1_555
N2_14 C10_14 1_555 1_555
C11_14 C12_14 1_555 1_555
O6 C1_15 1_555 1_555
O7_7 C1_15 1_555 1_555
N1_15 C2_15 1_555 1_555
C2_15 H1_15 1_555 1_555
C3_15 C2_15 1_555 1_555
C4_15 N1_15 1_555 1_555
C5_15 C3_15 1_555 1_555
H2_12 C5_15 1_555 1_555
C6_15 C4_15 1_555 1_555
H3_12 C6_15 1_555 1_555
O6_4 C7_15 1_555 1_555
O7_6 C7_15 1_555 1_555
C7_15 C9_15 1_555 1_555
C8_15 N2_15 1_555 1_555
H4_15 C8_15 1_555 1_555
C9_15 C8_15 1_555 1_555
C10_15 C4_15 1_555 1_555
C11_15 C9_15 1_555 1_555
H5_12 C11_15 1_555 1_555
C12_15 C10_15 1_555 1_555
H6_12 C12_15 1_555 1_555
C5_15 C6_15 1_555 1_555
N2_15 C10_15 1_555 1_555
C11_15 C12_15 1_555 1_555
O5_6 C7_16 1_555 1_555
O8_4 C7_16 1_555 1_555
O5_7 C1_16 1_555 1_555
O8 C1_16 1_555 1_555
Fe5 N1_16 1_555 1_555
N1_16 C2_16 1_555 1_555
C2_16 H1_16 1_555 1_555
C3_16 C2_16 1_555 1_555
C4_16 N1_16 1_555 1_555
C5_16 C3_16 1_555 1_555
C6_16 C4_16 1_555 1_555
N2_16 Fe5 1_555 1_555
C8_16 N2_16 1_555 1_555
H4_16 C8_16 1_555 1_555
C9_16 C8_16 1_555 1_555
C10_16 C4_16 1_555 1_555
C11_16 C9_16 1_555 1_555
C12_16 C10_16 1_555 1_555
C5_16 C6_16 1_555 1_555
N2_16 C10_16 1_555 1_555
C11_16 C12_16 1_555 1_555

#END
