
###############################################################################
#
# This file contains modified crystal structure data generated from the
# MOF subset of the Cambridge Structural Database (CSD) v543 
# hosted by the Cambridge Crystallographic Data Centre (CCDC).
#
# This work is licensed under the Creative Commons
# Attribution-NonCommercial-ShareAlike 4.0 International License.
# To view a copy of this license, visit
# http://creativecommons.org/licenses/by-nc-sa/4.0/
# or send a letter to
# Creative Commons, PO Box 1866, Mountain View, CA 94042, USA.
#
# CIF created using the CSD Python API on 29 September 2022
# The structure has been converted into the P1 space group
# The structure has a 3D framework
# The original CSD entry POMMAH is in the hexagonal crystal system
# The framework has been calculated to contain at least 10.0% void space
# The void calculation uses a probe of radius 1.32A, grid spacing 0.4
# The framework is charged, counterions have been retained in the structure
# H atom positions have been added when not included in the experimental data
# Generated hydrogen atom positions removed from atoms on special positions
#
###############################################################################

data_POMMAH
_chemical_formula_moiety         '(C144 H192 Cu24 I12 In18 N24 O72 2+)n'
_symmetry_cell_setting           triclinic
_symmetry_space_group_name_H-M   'P 1'
_symmetry_Int_Tables_number      1
_space_group_name_Hall           'P 1'
loop_
_symmetry_equiv_pos_site_id
_symmetry_equiv_pos_as_xyz
1 x,y,z
_cell_length_a                   21.9173(4)
_cell_length_b                   21.9173(4)
_cell_length_c                   28.2685(4)
_cell_angle_alpha                90
_cell_angle_beta                 90
_cell_angle_gamma                120
_cell_volume                     11760
loop_
_atom_site_label
_atom_site_type_symbol
_atom_site_fract_x
_atom_site_fract_y
_atom_site_fract_z
I7 I 0.61236(12) 0.07657(8) 0.19169(5)
I12 I 0.46421(9) 0.07657(8) 0.30831(5)
Cu7 Cu 0.56817(24) 0.05067(13) 0.28233(8)
Cu12 Cu 0.4825(2) 0.05067(13) 0.21767(8)
In1 In 0.23073(5) 0.64358(5) 0.5000
O1 O 0.3333 0.6667 0.5000
O2 O 0.2031(4) 0.5665(4) 0.4435(2)
O3 O 0.1240(9) 0.6191(8) 0.5000
O4 O 0.2810(5) 0.5276(6) 0.4454(3)
I1 I 0.07657(8) 0.46421(9) 0.19169(5)
Cu1 Cu 0.05067(13) 0.4825(2) 0.28233(8)
C1 C 0.2303(5) 0.5320(7) 0.4283(4)
C2 C 0.1498(7) 0.5028(11) 0.3592(5)
H1 H 0.1376 0.5362 0.3705
C3 C 0.1327(13) 0.4107(13) 0.3079(9)
H2 H 0.1015 0.3753 0.2866
C4 C 0.1988(7) 0.4894(12) 0.3856(6)
N1 N 0.1213(9) 0.4669(8) 0.3178(6)
C5 C 0.2229(15) 0.4468(12) 0.3682(10)
H3 H 0.2614 0.4448 0.3820
C6 C 0.1845(17) 0.4044(16) 0.3265(12)
H4 H 0.1971 0.3724 0.3131
In2 In 0.35642(5) 0.58715(7) 0.5000
O5 O 0.4335(4) 0.6366(6) 0.4435(2)
O6 O 0.3809(8) 0.5049(12) 0.5000
O7 O 0.4724(6) 0.7534(8) 0.4454(3)
I2 I 0.53579(9) 0.61236(12) 0.19169(5)
Cu2 Cu 0.5175(2) 0.56817(24) 0.28233(8)
C7 C 0.4680(7) 0.6983(9) 0.4283(4)
C8 C 0.4972(11) 0.6470(13) 0.3592(5)
H5 H 0.4638 0.6014 0.3705
C9 C 0.5893(13) 0.7220(18) 0.3079(9)
H6 H 0.6247 0.7262 0.2866
C10 C 0.5106(12) 0.7094(14) 0.3856(6)
N2 N 0.5331(8) 0.6544(12) 0.3178(6)
C11 C 0.5532(12) 0.7761(19) 0.3682(10)
H7 H 0.5552 0.8166 0.3820
C12 C 0.5956(16) 0.7801(23) 0.3265(12)
H8 H 0.6276 0.8247 0.3131
In3 In 0.41285(7) 0.76927(5) 0.5000
O8 O 0.3634(6) 0.7969(4) 0.4435(2)
O9 O 0.4951(12) 0.8760(9) 0.5000
O10 O 0.2466(8) 0.7190(5) 0.4454(3)
I3 I 0.38764(12) 0.92343(8) 0.19169(5)
Cu3 Cu 0.43183(24) 0.94933(13) 0.28233(8)
C13 C 0.3017(9) 0.7697(5) 0.4283(4)
C14 C 0.3530(13) 0.8502(7) 0.3592(5)
H9 H 0.3986 0.8624 0.3705
C15 C 0.2780(18) 0.8673(13) 0.3079(9)
H10 H 0.2738 0.8985 0.2866
C16 C 0.2906(14) 0.8012(7) 0.3856(6)
N3 N 0.3456(12) 0.8787(9) 0.3178(6)
C17 C 0.2239(19) 0.7771(15) 0.3682(10)
H11 H 0.1834 0.7386 0.3820
C18 C 0.2199(23) 0.8155(17) 0.3265(12)
H12 H 0.1753 0.8029 0.3131
O11 O 0.4335(4) 0.7969(4) 0.0565(2)
O12 O 0.4724(6) 0.7190(5) 0.0546(3)
I4 I 0.53579(9) 0.92343(8) 0.30831(5)
Cu4 Cu 0.5175(2) 0.94933(13) 0.21767(8)
C19 C 0.4680(7) 0.7697(5) 0.0717(4)
C20 C 0.4972(11) 0.8502(7) 0.1408(5)
H13 H 0.4638 0.8624 0.1295
C21 C 0.5893(13) 0.8673(13) 0.1921(9)
H14 H 0.6247 0.8985 0.2134
C22 C 0.5106(12) 0.8012(7) 0.1144(6)
N4 N 0.5331(8) 0.8787(9) 0.1822(6)
C23 C 0.5532(12) 0.7771(15) 0.1318(10)
H15 H 0.5552 0.7386 0.1180
C24 C 0.5956(16) 0.8155(17) 0.1735(12)
H16 H 0.6276 0.8029 0.1869
O13 O 0.3634(6) 0.5665(4) 0.0565(2)
O14 O 0.2466(8) 0.5276(6) 0.0546(3)
I5 I 0.38764(12) 0.46421(9) 0.30831(5)
Cu5 Cu 0.43183(24) 0.4825(2) 0.21767(8)
C25 C 0.3017(9) 0.5320(7) 0.0717(4)
C26 C 0.3530(13) 0.5028(11) 0.1408(5)
H17 H 0.3986 0.5362 0.1295
C27 C 0.2780(18) 0.4107(13) 0.1921(9)
H18 H 0.2738 0.3753 0.2134
C28 C 0.2906(14) 0.4894(12) 0.1144(6)
N5 N 0.3456(12) 0.4669(8) 0.1822(6)
C29 C 0.2239(19) 0.4468(12) 0.1318(10)
H19 H 0.1834 0.4448 0.1180
C30 C 0.2199(23) 0.4044(16) 0.1735(12)
H20 H 0.1753 0.3724 0.1869
O15 O 0.2031(4) 0.6366(6) 0.0565(2)
O16 O 0.2810(5) 0.7534(8) 0.0546(3)
I6 I 0.07657(8) 0.61236(12) 0.30831(5)
Cu6 Cu 0.05067(13) 0.56817(24) 0.21767(8)
C31 C 0.2303(5) 0.6983(9) 0.0717(4)
C32 C 0.1498(7) 0.6470(13) 0.1408(5)
H21 H 0.1376 0.6014 0.1295
C33 C 0.1327(13) 0.7220(18) 0.1921(9)
H22 H 0.1015 0.7262 0.2134
C34 C 0.1988(7) 0.7094(14) 0.1144(6)
N6 N 0.1213(9) 0.6544(12) 0.1822(6)
C35 C 0.2229(15) 0.7761(19) 0.1318(10)
H23 H 0.2614 0.8166 0.1180
C36 C 0.1845(17) 0.7801(23) 0.1735(12)
H24 H 0.1971 0.8247 0.1869
In4 In 0.35642(5) 0.76927(5) 0.0000
In5 In 0.41285(7) 0.64358(5) 0.0000
In6 In 0.23073(5) 0.58715(7) 0.0000
O17 O 0.3634(6) 0.7969(4) 0.5565(2)
O18 O 0.2031(4) 0.5665(4) 0.5565(2)
O19 O 0.4335(4) 0.6366(6) 0.5565(2)
O20 O 0.2466(8) 0.7190(5) 0.5546(3)
O21 O 0.2810(5) 0.5276(6) 0.5546(3)
O22 O 0.4724(6) 0.7534(8) 0.5546(3)
I9 I 0.46421(9) 0.38764(12) 0.19169(5)
I10 I 0.61236(12) 0.53579(9) 0.30831(5)
Cu9 Cu 0.4825(2) 0.43183(24) 0.28233(8)
Cu10 Cu 0.56817(24) 0.5175(2) 0.21767(8)
In4_2 In 0.35642(5) 0.76927(5) 1.0000
In5_2 In 0.41285(7) 0.64358(5) 1.0000
In6_2 In 0.23073(5) 0.58715(7) 1.0000
I8 I 0.92343(8) 0.53579(9) 0.19169(5)
I11 I 0.92343(8) 0.38764(12) 0.30831(5)
Cu8 Cu 0.94933(13) 0.5175(2) 0.28233(8)
Cu11 Cu 0.94933(13) 0.43183(24) 0.21767(8)
In1_2 In 0.58715(7) 0.23073(5) 0.5000
O1_2 O 0.6666 0.3333 0.5000
O2_2 O 0.6366(6) 0.2031(4) 0.4435(2)
O3_2 O 0.5049(12) 0.1240(9) 0.5000
O4_2 O 0.7534(8) 0.2810(5) 0.4454(3)
C1_2 C 0.6983(9) 0.2303(5) 0.4283(4)
C2_2 C 0.6470(13) 0.1498(7) 0.3592(5)
H1_2 H 0.6014 0.1376 0.3705
C3_2 C 0.7220(18) 0.1327(13) 0.3079(9)
H2_2 H 0.7262 0.1015 0.2866
C4_2 C 0.7094(14) 0.1988(7) 0.3856(6)
N1_2 N 0.6544(12) 0.1213(9) 0.3178(6)
C5_2 C 0.7761(19) 0.2229(15) 0.3682(10)
H3_2 H 0.8166 0.2614 0.3820
C6_2 C 0.7801(23) 0.1845(17) 0.3265(12)
H4_2 H 0.8247 0.1971 0.3131
In2_2 In 0.76927(9) 0.35642(5) 0.5000
O5_2 O 0.7969(7) 0.4335(4) 0.4435(2)
O6_2 O 0.8760(14) 0.3809(8) 0.5000
O7_2 O 0.7190(10) 0.4724(6) 0.4454(3)
C7_2 C 0.7697(11) 0.4680(7) 0.4283(4)
C8_2 C 0.8502(17) 0.4972(11) 0.3592(5)
H5_2 H 0.8624 0.4638 0.3705
C9_2 C 0.8673(22) 0.5893(13) 0.3079(9)
H6_2 H 0.8985 0.6247 0.2866
C10_2 C 0.8012(18) 0.5106(12) 0.3856(6)
N2_2 N 0.8787(14) 0.5331(8) 0.3178(6)
C11_2 C 0.7771(22) 0.5532(12) 0.3682(10)
H7_2 H 0.7386 0.5552 0.3820
C12_2 C 0.8155(28) 0.5956(16) 0.3265(12)
H8_2 H 0.8029 0.6276 0.3131
In3_2 In 0.64358(9) 0.41285(7) 0.5000
O8_2 O 0.5665(7) 0.3634(6) 0.4435(2)
O9_2 O 0.6191(15) 0.4951(12) 0.5000
O10_2 O 0.5276(9) 0.2466(8) 0.4454(3)
C13_2 C 0.5320(10) 0.3017(9) 0.4283(4)
C14_2 C 0.5028(15) 0.3530(13) 0.3592(5)
H9_2 H 0.5362 0.3986 0.3705
C15_2 C 0.4107(22) 0.2780(18) 0.3079(9)
H10_2 H 0.3753 0.2738 0.2866
C16_2 C 0.4894(16) 0.2906(14) 0.3856(6)
N3_2 N 0.4669(15) 0.3456(12) 0.3178(6)
C17_2 C 0.4468(24) 0.2239(19) 0.3682(10)
H11_2 H 0.4448 0.1834 0.3820
C18_2 C 0.4044(29) 0.2199(23) 0.3265(12)
H12_2 H 0.3724 0.1753 0.3131
O11_2 O 0.6366(6) 0.4335(4) 0.0565(2)
O12_2 O 0.7534(8) 0.4724(6) 0.0546(3)
C19_2 C 0.6983(9) 0.4680(7) 0.0717(4)
C20_2 C 0.6470(13) 0.4972(11) 0.1408(5)
H13_2 H 0.6014 0.4638 0.1295
C21_2 C 0.7220(18) 0.5893(13) 0.1921(9)
H14_2 H 0.7262 0.6247 0.2134
C22_2 C 0.7094(14) 0.5106(12) 0.1144(6)
N4_2 N 0.6544(12) 0.5331(8) 0.1822(6)
C23_2 C 0.7761(19) 0.5532(12) 0.1318(10)
H15_2 H 0.8166 0.5552 0.1180
C24_2 C 0.7801(23) 0.5956(16) 0.1735(12)
H16_2 H 0.8247 0.6276 0.1869
O13_2 O 0.7969(7) 0.3634(6) 0.0565(2)
O14_2 O 0.7190(10) 0.2466(8) 0.0546(3)
C25_2 C 0.7697(11) 0.3017(9) 0.0717(4)
C26_2 C 0.8502(17) 0.3530(13) 0.1408(5)
H17_2 H 0.8624 0.3986 0.1295
C27_2 C 0.8673(22) 0.2780(18) 0.1921(9)
H18_2 H 0.8985 0.2738 0.2134
C28_2 C 0.8012(18) 0.2906(14) 0.1144(6)
N5_2 N 0.8787(14) 0.3456(12) 0.1822(6)
C29_2 C 0.7771(22) 0.2239(19) 0.1318(10)
H19_2 H 0.7386 0.1834 0.1180
C30_2 C 0.8155(28) 0.2199(23) 0.1735(12)
H20_2 H 0.8029 0.1753 0.1869
O15_2 O 0.5665(7) 0.2031(4) 0.0565(2)
O16_2 O 0.5276(9) 0.2810(5) 0.0546(3)
C31_2 C 0.5320(10) 0.2303(5) 0.0717(4)
C32_2 C 0.5028(15) 0.1498(7) 0.1408(5)
H21_2 H 0.5362 0.1376 0.1295
C33_2 C 0.4107(22) 0.1327(13) 0.1921(9)
H22_2 H 0.3753 0.1015 0.2134
C34_2 C 0.4894(16) 0.1988(7) 0.1144(6)
N6_2 N 0.4669(15) 0.1213(9) 0.1822(6)
C35_2 C 0.4468(24) 0.2229(15) 0.1318(10)
H23_2 H 0.4448 0.2614 0.1180
C36_2 C 0.4044(29) 0.1845(17) 0.1735(12)
H24_2 H 0.3724 0.1971 0.1869
In4_3 In 0.58715(7) 0.35642(5) 0.0000
In5_3 In 0.76927(9) 0.41285(7) 0.0000
In6_3 In 0.64358(9) 0.23073(5) 0.0000
O17_2 O 0.5665(7) 0.3634(6) 0.5565(2)
O18_2 O 0.6366(6) 0.2031(4) 0.5565(2)
O19_2 O 0.7969(7) 0.4335(4) 0.5565(2)
O20_2 O 0.5276(9) 0.2466(8) 0.5546(3)
O21_2 O 0.7534(8) 0.2810(5) 0.5546(3)
O22_2 O 0.7190(10) 0.4724(6) 0.5546(3)
In4_4 In 0.58715(7) 0.35642(5) 1.0000
In5_4 In 0.76927(9) 0.41285(7) 1.0000
In6_4 In 0.64358(9) 0.23073(5) 1.0000
O1_3 O 0.6666 0.3333 0.0000
O3_3 O 0.5049(12) 0.3809(8) 0.0000
O6_3 O 0.8760(14) 0.4951(12) 0.0000
O9_3 O 0.6191(15) 0.1240(9) 0.0000
O1_4 O 0.6666 0.3333 1.0000
O3_4 O 0.5049(12) 0.3809(8) 1.0000
O6_4 O 0.8760(14) 0.4951(12) 1.0000
O9_4 O 0.6191(15) 0.1240(9) 1.0000
O17_3 O 0.5665(7) 0.2031(4) 0.9435(2)
O18_3 O 0.6366(6) 0.4335(4) 0.9435(2)
O19_3 O 0.7969(7) 0.3634(6) 0.9435(2)
O20_3 O 0.5276(9) 0.2810(5) 0.9454(3)
O21_3 O 0.7534(8) 0.4724(6) 0.9454(3)
O22_3 O 0.7190(10) 0.2466(8) 0.9454(3)
O1_5 O 0.3333 0.6667 0.0000
O3_5 O 0.3809(8) 0.8760(9) 0.0000
O6_5 O 0.4951(12) 0.6191(8) 0.0000
O9_5 O 0.1240(9) 0.5049(12) 0.0000
O1_6 O 0.3333 0.6667 1.0000
O3_6 O 0.3809(8) 0.8760(9) 1.0000
O6_6 O 0.4951(12) 0.6191(8) 1.0000
O9_6 O 0.1240(9) 0.5049(12) 1.0000
O17_4 O 0.2031(4) 0.6366(6) 0.9435(2)
O18_4 O 0.4335(4) 0.7969(4) 0.9435(2)
O19_4 O 0.3634(6) 0.5665(4) 0.9435(2)
O20_4 O 0.2810(5) 0.7534(8) 0.9454(3)
O21_4 O 0.4724(6) 0.7190(5) 0.9454(3)
O22_4 O 0.2466(8) 0.5276(6) 0.9454(3)
I8_2 I 0.07657(8) 0.46421(9) 0.80831(5)
I11_2 I 0.07657(8) 0.61236(12) 0.69169(5)
Cu8_2 Cu 0.05067(13) 0.4825(2) 0.71767(8)
Cu11_2 Cu 0.05067(13) 0.56817(24) 0.78233(8)
I1_2 I 0.92343(8) 0.53579(9) 0.80831(5)
Cu1_2 Cu 0.94933(13) 0.5175(2) 0.71767(8)
C1_3 C 0.7697(5) 0.4680(7) 0.5717(4)
C2_3 C 0.8502(7) 0.4972(11) 0.6408(5)
H1_3 H 0.8624 0.4638 0.6295
C3_3 C 0.8673(13) 0.5893(13) 0.6921(9)
H2_3 H 0.8985 0.6247 0.7134
C4_3 C 0.8012(7) 0.5106(12) 0.6144(6)
N1_3 N 0.8787(9) 0.5331(8) 0.6822(6)
C5_3 C 0.7771(15) 0.5532(12) 0.6318(10)
H3_3 H 0.7386 0.5552 0.6180
C6_3 C 0.8155(17) 0.5956(16) 0.6735(12)
H4_3 H 0.8029 0.6276 0.6869
I2_2 I 0.46421(9) 0.38764(12) 0.80831(5)
Cu2_2 Cu 0.4825(2) 0.43183(24) 0.71767(8)
C7_3 C 0.5320(7) 0.3017(9) 0.5717(4)
C8_3 C 0.5028(11) 0.3530(13) 0.6408(5)
H5_3 H 0.5362 0.3986 0.6295
C9_3 C 0.4107(13) 0.2780(18) 0.6921(9)
H6_3 H 0.3753 0.2738 0.7134
C10_3 C 0.4894(12) 0.2906(14) 0.6144(6)
N2_3 N 0.4669(8) 0.3456(12) 0.6822(6)
C11_3 C 0.4468(12) 0.2239(19) 0.6318(10)
H7_3 H 0.4448 0.1834 0.6180
C12_3 C 0.4044(16) 0.2199(23) 0.6735(12)
H8_3 H 0.3724 0.1753 0.6869
I3_2 I 0.61236(12) 0.07657(8) 0.80831(5)
Cu3_2 Cu 0.56817(24) 0.05067(13) 0.71767(8)
C13_3 C 0.6983(9) 0.2303(5) 0.5717(4)
C14_3 C 0.6470(13) 0.1498(7) 0.6408(5)
H9_3 H 0.6014 0.1376 0.6295
C15_3 C 0.7220(18) 0.1327(13) 0.6921(9)
H10_3 H 0.7262 0.1015 0.7134
C16_3 C 0.7094(14) 0.1988(7) 0.6144(6)
N3_3 N 0.6544(12) 0.1213(9) 0.6822(6)
C17_3 C 0.7761(19) 0.2229(15) 0.6318(10)
H11_3 H 0.8166 0.2614 0.6180
C18_3 C 0.7801(23) 0.1845(17) 0.6735(12)
H12_3 H 0.8247 0.1971 0.6869
I4_2 I 0.46421(9) 0.07657(8) 0.69169(5)
Cu4_2 Cu 0.4825(2) 0.05067(13) 0.78233(8)
C19_3 C 0.5320(7) 0.2303(5) 0.9283(4)
C20_3 C 0.5028(11) 0.1498(7) 0.8592(5)
H13_3 H 0.5362 0.1376 0.8705
C21_3 C 0.4107(13) 0.1327(13) 0.8079(9)
H14_3 H 0.3753 0.1015 0.7866
C22_3 C 0.4894(12) 0.1988(7) 0.8856(6)
N4_3 N 0.4669(8) 0.1213(9) 0.8178(6)
C23_3 C 0.4468(12) 0.2229(15) 0.8682(10)
H15_3 H 0.4448 0.2614 0.8820
C24_3 C 0.4044(16) 0.1845(17) 0.8265(12)
H16_3 H 0.3724 0.1971 0.8131
I5_2 I 0.61236(12) 0.53579(9) 0.69169(5)
Cu5_2 Cu 0.56817(24) 0.5175(2) 0.78233(8)
C25_3 C 0.6983(9) 0.4680(7) 0.9283(4)
C26_3 C 0.6470(13) 0.4972(11) 0.8592(5)
H17_3 H 0.6014 0.4638 0.8705
C27_3 C 0.7220(18) 0.5893(13) 0.8079(9)
H18_3 H 0.7262 0.6247 0.7866
C28_3 C 0.7094(14) 0.5106(12) 0.8856(6)
N5_3 N 0.6544(12) 0.5331(8) 0.8178(6)
C29_3 C 0.7761(19) 0.5532(12) 0.8682(10)
H19_3 H 0.8166 0.5552 0.8820
C30_3 C 0.7801(23) 0.5956(16) 0.8265(12)
H20_3 H 0.8247 0.6276 0.8131
I6_2 I 0.92343(8) 0.38764(12) 0.69169(5)
Cu6_2 Cu 0.94933(13) 0.43183(24) 0.78233(8)
C31_3 C 0.7697(5) 0.3017(9) 0.9283(4)
C32_3 C 0.8502(7) 0.3530(13) 0.8592(5)
H21_3 H 0.8624 0.3986 0.8705
C33_3 C 0.8673(13) 0.2780(18) 0.8079(9)
H22_3 H 0.8985 0.2738 0.7866
C34_3 C 0.8012(7) 0.2906(14) 0.8856(6)
N6_3 N 0.8787(9) 0.3456(12) 0.8178(6)
C35_3 C 0.7771(15) 0.2239(19) 0.8682(10)
H23_3 H 0.7386 0.1834 0.8820
C36_3 C 0.8155(17) 0.2199(23) 0.8265(12)
H24_3 H 0.8029 0.1753 0.8131
I9_2 I 0.53579(9) 0.61236(12) 0.80831(5)
I10_2 I 0.38764(12) 0.46421(9) 0.69169(5)
Cu9_2 Cu 0.5175(2) 0.56817(24) 0.71767(8)
Cu10_2 Cu 0.43183(24) 0.4825(2) 0.78233(8)
I7_2 I 0.38764(12) 0.92343(8) 0.80831(5)
I12_2 I 0.53579(9) 0.92343(8) 0.69169(5)
Cu7_2 Cu 0.43183(24) 0.94933(13) 0.71767(8)
Cu12_2 Cu 0.5175(2) 0.94933(13) 0.78233(8)
C1_4 C 0.3017(9) 0.7697(5) 0.5717(4)
C2_4 C 0.3530(13) 0.8502(7) 0.6408(5)
H1_4 H 0.3986 0.8624 0.6295
C3_4 C 0.2780(18) 0.8673(13) 0.6921(9)
H2_4 H 0.2738 0.8985 0.7134
C4_4 C 0.2906(14) 0.8012(7) 0.6144(6)
N1_4 N 0.3456(12) 0.8787(9) 0.6822(6)
C5_4 C 0.2239(19) 0.7771(15) 0.6318(10)
H3_4 H 0.1834 0.7386 0.6180
C6_4 C 0.2199(23) 0.8155(17) 0.6735(12)
H4_4 H 0.1753 0.8029 0.6869
C7_4 C 0.2303(11) 0.5320(7) 0.5717(4)
C8_4 C 0.1498(17) 0.5028(11) 0.6408(5)
H5_4 H 0.1376 0.5362 0.6295
C9_4 C 0.1327(22) 0.4107(13) 0.6921(9)
H6_4 H 0.1015 0.3753 0.7134
C10_4 C 0.1988(18) 0.4894(12) 0.6144(6)
N2_4 N 0.1213(14) 0.4669(8) 0.6822(6)
C11_4 C 0.2229(22) 0.4468(12) 0.6318(10)
H7_4 H 0.2614 0.4448 0.6180
C12_4 C 0.1845(28) 0.4044(16) 0.6735(12)
H8_4 H 0.1971 0.3724 0.6869
C13_4 C 0.4680(10) 0.6983(9) 0.5717(4)
C14_4 C 0.4972(15) 0.6470(13) 0.6408(5)
H9_4 H 0.4638 0.6014 0.6295
C15_4 C 0.5893(22) 0.7220(18) 0.6921(9)
H10_4 H 0.6247 0.7262 0.7134
C16_4 C 0.5106(16) 0.7094(14) 0.6144(6)
N3_4 N 0.5331(15) 0.6544(12) 0.6822(6)
C17_4 C 0.5532(24) 0.7761(19) 0.6318(10)
H11_4 H 0.5552 0.8166 0.6180
C18_4 C 0.5956(29) 0.7801(23) 0.6735(12)
H12_4 H 0.6276 0.8247 0.6869
C19_4 C 0.3017(9) 0.5320(7) 0.9283(4)
C20_4 C 0.3530(13) 0.5028(11) 0.8592(5)
H13_4 H 0.3986 0.5362 0.8705
C21_4 C 0.2780(18) 0.4107(13) 0.8079(9)
H14_4 H 0.2738 0.3753 0.7866
C22_4 C 0.2906(14) 0.4894(12) 0.8856(6)
N4_4 N 0.3456(12) 0.4669(8) 0.8178(6)
C23_4 C 0.2239(19) 0.4468(12) 0.8682(10)
H15_4 H 0.1834 0.4448 0.8820
C24_4 C 0.2199(23) 0.4044(16) 0.8265(12)
H16_4 H 0.1753 0.3724 0.8131
C25_4 C 0.2303(11) 0.6983(9) 0.9283(4)
C26_4 C 0.1498(17) 0.6470(13) 0.8592(5)
H17_4 H 0.1376 0.6014 0.8705
C27_4 C 0.1327(22) 0.7220(18) 0.8079(9)
H18_4 H 0.1015 0.7262 0.7866
C28_4 C 0.1988(18) 0.7094(14) 0.8856(6)
N5_4 N 0.1213(14) 0.6544(12) 0.8178(6)
C29_4 C 0.2229(22) 0.7761(19) 0.8682(10)
H19_4 H 0.2614 0.8166 0.8820
C30_4 C 0.1845(28) 0.7801(23) 0.8265(12)
H20_4 H 0.1971 0.8247 0.8131
C31_4 C 0.4680(10) 0.7697(5) 0.9283(4)
C32_4 C 0.4972(15) 0.8502(7) 0.8592(5)
H21_4 H 0.4638 0.8624 0.8705
C33_4 C 0.5893(22) 0.8673(13) 0.8079(9)
H22_4 H 0.6247 0.8985 0.7866
C34_4 C 0.5106(16) 0.8012(7) 0.8856(6)
N6_4 N 0.5331(15) 0.8787(9) 0.8178(6)
C35_4 C 0.5532(24) 0.7771(15) 0.8682(10)
H23_4 H 0.5552 0.7386 0.8820
C36_4 C 0.5956(29) 0.8155(17) 0.8265(12)
H24_4 H 0.6276 0.8029 0.8131
loop_
_geom_bond_atom_site_label_1
_geom_bond_atom_site_label_2
_geom_bond_site_symmetry_1
_geom_bond_site_symmetry_2
I7 Cu7 1_555 1_555
I7 Cu12 1_555 1_555
I12 Cu7 1_555 1_555
I12 Cu12 1_555 1_555
In1 O1 1_555 1_555
O1 In2 1_555 1_555
O2 In1 1_555 1_555
O3 In1 1_555 1_555
O4 C1 1_555 1_555
I1 Cu1 1_555 1_555
Cu1 N1 1_555 1_555
C1 O2 1_555 1_555
C2 H1 1_555 1_555
C3 H2 1_555 1_555
C4 C1 1_555 1_555
N1 C2 1_555 1_555
C5 C4 1_555 1_555
H3 C5 1_555 1_555
C6 C3 1_555 1_555
H4 C6 1_555 1_555
In2 O4 1_555 1_555
O5 In2 1_555 1_555
O6 In2 1_555 1_555
O7 C7 1_555 1_555
I2 Cu2 1_555 1_555
Cu2 N2 1_555 1_555
C7 O5 1_555 1_555
C8 H5 1_555 1_555
C9 H6 1_555 1_555
C10 C7 1_555 1_555
N2 C8 1_555 1_555
C11 C10 1_555 1_555
H7 C11 1_555 1_555
C12 C9 1_555 1_555
H8 C12 1_555 1_555
In3 O1 1_555 1_555
O8 In3 1_555 1_555
O9 In3 1_555 1_555
O10 In1 1_555 1_555
I3 Cu3 1_555 1_555
Cu3 N3 1_555 1_555
C13 O8 1_555 1_555
C14 H9 1_555 1_555
C15 H10 1_555 1_555
C16 C13 1_555 1_555
N3 C14 1_555 1_555
C17 C16 1_555 1_555
H11 C17 1_555 1_555
C18 C15 1_555 1_555
H12 C18 1_555 1_555
O11 C19 1_555 1_555
O12 C19 1_555 1_555
I4 Cu3 1_555 1_555
Cu4 I3 1_555 1_555
C19 C22 1_555 1_555
C20 H13 1_555 1_555
C21 H14 1_555 1_555
C22 C20 1_555 1_555
N4 Cu4 1_555 1_555
C23 C22 1_555 1_555
H15 C23 1_555 1_555
C24 C21 1_555 1_555
H16 C24 1_555 1_555
O13 C25 1_555 1_555
O14 C25 1_555 1_555
I5 Cu2 1_555 1_555
Cu5 I2 1_555 1_555
C25 C28 1_555 1_555
C26 H17 1_555 1_555
C27 H18 1_555 1_555
C28 C26 1_555 1_555
N5 Cu5 1_555 1_555
C29 C28 1_555 1_555
H19 C29 1_555 1_555
C30 C27 1_555 1_555
H20 C30 1_555 1_555
O15 C31 1_555 1_555
O16 C31 1_555 1_555
I6 Cu1 1_555 1_555
Cu6 I1 1_555 1_555
C31 C34 1_555 1_555
C32 H21 1_555 1_555
C33 H22 1_555 1_555
C34 C32 1_555 1_555
N6 Cu6 1_555 1_555
C35 C34 1_555 1_555
H23 C35 1_555 1_555
C36 C33 1_555 1_555
H24 C36 1_555 1_555
In4 O11 1_555 1_555
In5 O12 1_555 1_555
In6 O14 1_555 1_555
O17 In3 1_555 1_555
O18 In1 1_555 1_555
O19 In2 1_555 1_555
O20 In1 1_555 1_555
O21 In2 1_555 1_555
O22 In3 1_555 1_555
I9 Cu5 1_555 1_555
I10 Cu2 1_555 1_555
Cu9 I5 1_555 1_555
Cu10 I2 1_555 1_555
C2 C4 1_555 1_555
C3 N1 1_555 1_555
C5 C6 1_555 1_555
O7 In3 1_555 1_555
C8 C10 1_555 1_555
C9 N2 1_555 1_555
C11 C12 1_555 1_555
O10 C13 1_555 1_555
C14 C16 1_555 1_555
C15 N3 1_555 1_555
C17 C18 1_555 1_555
I4 Cu4 1_555 1_555
C20 N4 1_555 1_555
C21 N4 1_555 1_555
C23 C24 1_555 1_555
O13 In5 1_555 1_555
I5 Cu5 1_555 1_555
C26 N5 1_555 1_555
C27 N5 1_555 1_555
C29 C30 1_555 1_555
O15 In6 1_555 1_555
O16 In4 1_555 1_555
I6 Cu6 1_555 1_555
C32 N6 1_555 1_555
C33 N6 1_555 1_555
C35 C36 1_555 1_555
I9 Cu9 1_555 1_555
I9 Cu10 1_555 1_555
I10 Cu9 1_555 1_555
I10 Cu10 1_555 1_555
I8 Cu8 1_555 1_555
I8 Cu11 1_555 1_555
I11 Cu8 1_555 1_555
I11 Cu11 1_555 1_555
In1_2 O1_2 1_555 1_555
O1_2 In2_2 1_555 1_555
O2_2 In1_2 1_555 1_555
O3_2 In1_2 1_555 1_555
O4_2 C1_2 1_555 1_555
Cu7 N1_2 1_555 1_555
C1_2 O2_2 1_555 1_555
C2_2 H1_2 1_555 1_555
C3_2 H2_2 1_555 1_555
C4_2 C1_2 1_555 1_555
N1_2 C2_2 1_555 1_555
C5_2 C4_2 1_555 1_555
H3_2 C5_2 1_555 1_555
C6_2 C3_2 1_555 1_555
H4_2 C6_2 1_555 1_555
In2_2 O4_2 1_555 1_555
O5_2 In2_2 1_555 1_555
O6_2 In2_2 1_555 1_555
O7_2 C7_2 1_555 1_555
Cu8 N2_2 1_555 1_555
C7_2 O5_2 1_555 1_555
C8_2 H5_2 1_555 1_555
C9_2 H6_2 1_555 1_555
C10_2 C7_2 1_555 1_555
N2_2 C8_2 1_555 1_555
C11_2 C10_2 1_555 1_555
H7_2 C11_2 1_555 1_555
C12_2 C9_2 1_555 1_555
H8_2 C12_2 1_555 1_555
In3_2 O1_2 1_555 1_555
O8_2 In3_2 1_555 1_555
O9_2 In3_2 1_555 1_555
O10_2 In1_2 1_555 1_555
Cu9 N3_2 1_555 1_555
C13_2 O8_2 1_555 1_555
C14_2 H9_2 1_555 1_555
C15_2 H10_2 1_555 1_555
C16_2 C13_2 1_555 1_555
N3_2 C14_2 1_555 1_555
C17_2 C16_2 1_555 1_555
H11_2 C17_2 1_555 1_555
C18_2 C15_2 1_555 1_555
H12_2 C18_2 1_555 1_555
O11_2 C19_2 1_555 1_555
O12_2 C19_2 1_555 1_555
C19_2 C22_2 1_555 1_555
C20_2 H13_2 1_555 1_555
C21_2 H14_2 1_555 1_555
C22_2 C20_2 1_555 1_555
N4_2 Cu10 1_555 1_555
C23_2 C22_2 1_555 1_555
H15_2 C23_2 1_555 1_555
C24_2 C21_2 1_555 1_555
H16_2 C24_2 1_555 1_555
O13_2 C25_2 1_555 1_555
O14_2 C25_2 1_555 1_555
C25_2 C28_2 1_555 1_555
C26_2 H17_2 1_555 1_555
C27_2 H18_2 1_555 1_555
C28_2 C26_2 1_555 1_555
N5_2 Cu11 1_555 1_555
C29_2 C28_2 1_555 1_555
H19_2 C29_2 1_555 1_555
C30_2 C27_2 1_555 1_555
H20_2 C30_2 1_555 1_555
O15_2 C31_2 1_555 1_555
O16_2 C31_2 1_555 1_555
C31_2 C34_2 1_555 1_555
C32_2 H21_2 1_555 1_555
C33_2 H22_2 1_555 1_555
C34_2 C32_2 1_555 1_555
N6_2 Cu12 1_555 1_555
C35_2 C34_2 1_555 1_555
H23_2 C35_2 1_555 1_555
C36_2 C33_2 1_555 1_555
H24_2 C36_2 1_555 1_555
In4_3 O11_2 1_555 1_555
In5_3 O12_2 1_555 1_555
In6_3 O14_2 1_555 1_555
O17_2 In3_2 1_555 1_555
O18_2 In1_2 1_555 1_555
O19_2 In2_2 1_555 1_555
O20_2 In1_2 1_555 1_555
O21_2 In2_2 1_555 1_555
O22_2 In3_2 1_555 1_555
C2_2 C4_2 1_555 1_555
C3_2 N1_2 1_555 1_555
C5_2 C6_2 1_555 1_555
O7_2 In3_2 1_555 1_555
C8_2 C10_2 1_555 1_555
C9_2 N2_2 1_555 1_555
C11_2 C12_2 1_555 1_555
O10_2 C13_2 1_555 1_555
C14_2 C16_2 1_555 1_555
C15_2 N3_2 1_555 1_555
C17_2 C18_2 1_555 1_555
C20_2 N4_2 1_555 1_555
C21_2 N4_2 1_555 1_555
C23_2 C24_2 1_555 1_555
O13_2 In5_3 1_555 1_555
C26_2 N5_2 1_555 1_555
C27_2 N5_2 1_555 1_555
C29_2 C30_2 1_555 1_555
O15_2 In6_3 1_555 1_555
O16_2 In4_3 1_555 1_555
C32_2 N6_2 1_555 1_555
C33_2 N6_2 1_555 1_555
C35_2 C36_2 1_555 1_555
In4_3 O1_3 1_555 1_555
O1_3 In5_3 1_555 1_555
O3_3 In4_3 1_555 1_555
O6_3 In5_3 1_555 1_555
In6_3 O1_3 1_555 1_555
O9_3 In6_3 1_555 1_555
In4_4 O1_4 1_555 1_555
O1_4 In5_4 1_555 1_555
O3_4 In4_4 1_555 1_555
O6_4 In5_4 1_555 1_555
In6_4 O1_4 1_555 1_555
O9_4 In6_4 1_555 1_555
O17_3 In6_4 1_555 1_555
O18_3 In4_4 1_555 1_555
O19_3 In5_4 1_555 1_555
O20_3 In4_4 1_555 1_555
O21_3 In5_4 1_555 1_555
O22_3 In6_4 1_555 1_555
In4 O1_5 1_555 1_555
O1_5 In5 1_555 1_555
O3_5 In4 1_555 1_555
O6_5 In5 1_555 1_555
In6 O1_5 1_555 1_555
O9_5 In6 1_555 1_555
In4_2 O1_6 1_555 1_555
O1_6 In5_2 1_555 1_555
O3_6 In4_2 1_555 1_555
O6_6 In5_2 1_555 1_555
In6_2 O1_6 1_555 1_555
O9_6 In6_2 1_555 1_555
O17_4 In6_2 1_555 1_555
O18_4 In4_2 1_555 1_555
O19_4 In5_2 1_555 1_555
O20_4 In4_2 1_555 1_555
O21_4 In5_2 1_555 1_555
O22_4 In6_2 1_555 1_555
I8_2 Cu8_2 1_555 1_555
I8_2 Cu11_2 1_555 1_555
I11_2 Cu8_2 1_555 1_555
I11_2 Cu11_2 1_555 1_555
O22_2 C1_3 1_555 1_555
I1_2 Cu1_2 1_555 1_555
Cu1_2 N1_3 1_555 1_555
C1_3 O19_2 1_555 1_555
C2_3 H1_3 1_555 1_555
C3_3 H2_3 1_555 1_555
C4_3 C1_3 1_555 1_555
N1_3 C2_3 1_555 1_555
C5_3 C4_3 1_555 1_555
H3_3 C5_3 1_555 1_555
C6_3 C3_3 1_555 1_555
H4_3 C6_3 1_555 1_555
O20_2 C7_3 1_555 1_555
I2_2 Cu2_2 1_555 1_555
Cu2_2 N2_3 1_555 1_555
C7_3 O17_2 1_555 1_555
C8_3 H5_3 1_555 1_555
C9_3 H6_3 1_555 1_555
C10_3 C7_3 1_555 1_555
N2_3 C8_3 1_555 1_555
C11_3 C10_3 1_555 1_555
H7_3 C11_3 1_555 1_555
C12_3 C9_3 1_555 1_555
H8_3 C12_3 1_555 1_555
I3_2 Cu3_2 1_555 1_555
Cu3_2 N3_3 1_555 1_555
C13_3 O18_2 1_555 1_555
C14_3 H9_3 1_555 1_555
C15_3 H10_3 1_555 1_555
C16_3 C13_3 1_555 1_555
N3_3 C14_3 1_555 1_555
C17_3 C16_3 1_555 1_555
H11_3 C17_3 1_555 1_555
C18_3 C15_3 1_555 1_555
H12_3 C18_3 1_555 1_555
O17_3 C19_3 1_555 1_555
O20_3 C19_3 1_555 1_555
I4_2 Cu3_2 1_555 1_555
Cu4_2 I3_2 1_555 1_555
C19_3 C22_3 1_555 1_555
C20_3 H13_3 1_555 1_555
C21_3 H14_3 1_555 1_555
C22_3 C20_3 1_555 1_555
N4_3 Cu4_2 1_555 1_555
C23_3 C22_3 1_555 1_555
H15_3 C23_3 1_555 1_555
C24_3 C21_3 1_555 1_555
H16_3 C24_3 1_555 1_555
O18_3 C25_3 1_555 1_555
O21_3 C25_3 1_555 1_555
I5_2 Cu2_2 1_555 1_555
Cu5_2 I2_2 1_555 1_555
C25_3 C28_3 1_555 1_555
C26_3 H17_3 1_555 1_555
C27_3 H18_3 1_555 1_555
C28_3 C26_3 1_555 1_555
N5_3 Cu5_2 1_555 1_555
C29_3 C28_3 1_555 1_555
H19_3 C29_3 1_555 1_555
C30_3 C27_3 1_555 1_555
H20_3 C30_3 1_555 1_555
O19_3 C31_3 1_555 1_555
O22_3 C31_3 1_555 1_555
I6_2 Cu1_2 1_555 1_555
Cu6_2 I1_2 1_555 1_555
C31_3 C34_3 1_555 1_555
C32_3 H21_3 1_555 1_555
C33_3 H22_3 1_555 1_555
C34_3 C32_3 1_555 1_555
N6_3 Cu6_2 1_555 1_555
C35_3 C34_3 1_555 1_555
H23_3 C35_3 1_555 1_555
C36_3 C33_3 1_555 1_555
H24_3 C36_3 1_555 1_555
I9_2 Cu5_2 1_555 1_555
I10_2 Cu2_2 1_555 1_555
Cu9_2 I5_2 1_555 1_555
Cu10_2 I2_2 1_555 1_555
C2_3 C4_3 1_555 1_555
C3_3 N1_3 1_555 1_555
C5_3 C6_3 1_555 1_555
C8_3 C10_3 1_555 1_555
C9_3 N2_3 1_555 1_555
C11_3 C12_3 1_555 1_555
O21_2 C13_3 1_555 1_555
C14_3 C16_3 1_555 1_555
C15_3 N3_3 1_555 1_555
C17_3 C18_3 1_555 1_555
I4_2 Cu4_2 1_555 1_555
C20_3 N4_3 1_555 1_555
C21_3 N4_3 1_555 1_555
C23_3 C24_3 1_555 1_555
I5_2 Cu5_2 1_555 1_555
C26_3 N5_3 1_555 1_555
C27_3 N5_3 1_555 1_555
C29_3 C30_3 1_555 1_555
I6_2 Cu6_2 1_555 1_555
C32_3 N6_3 1_555 1_555
C33_3 N6_3 1_555 1_555
C35_3 C36_3 1_555 1_555
I9_2 Cu9_2 1_555 1_555
I9_2 Cu10_2 1_555 1_555
I10_2 Cu9_2 1_555 1_555
I10_2 Cu10_2 1_555 1_555
I7_2 Cu7_2 1_555 1_555
I7_2 Cu12_2 1_555 1_555
I12_2 Cu7_2 1_555 1_555
I12_2 Cu12_2 1_555 1_555
O20 C1_4 1_555 1_555
Cu7_2 N1_4 1_555 1_555
C1_4 O17 1_555 1_555
C2_4 H1_4 1_555 1_555
C3_4 H2_4 1_555 1_555
C4_4 C1_4 1_555 1_555
N1_4 C2_4 1_555 1_555
C5_4 C4_4 1_555 1_555
H3_4 C5_4 1_555 1_555
C6_4 C3_4 1_555 1_555
H4_4 C6_4 1_555 1_555
O21 C7_4 1_555 1_555
Cu8_2 N2_4 1_555 1_555
C7_4 O18 1_555 1_555
C8_4 H5_4 1_555 1_555
C9_4 H6_4 1_555 1_555
C10_4 C7_4 1_555 1_555
N2_4 C8_4 1_555 1_555
C11_4 C10_4 1_555 1_555
H7_4 C11_4 1_555 1_555
C12_4 C9_4 1_555 1_555
H8_4 C12_4 1_555 1_555
Cu9_2 N3_4 1_555 1_555
C13_4 O19 1_555 1_555
C14_4 H9_4 1_555 1_555
C15_4 H10_4 1_555 1_555
C16_4 C13_4 1_555 1_555
N3_4 C14_4 1_555 1_555
C17_4 C16_4 1_555 1_555
H11_4 C17_4 1_555 1_555
C18_4 C15_4 1_555 1_555
H12_4 C18_4 1_555 1_555
O19_4 C19_4 1_555 1_555
O22_4 C19_4 1_555 1_555
C19_4 C22_4 1_555 1_555
C20_4 H13_4 1_555 1_555
C21_4 H14_4 1_555 1_555
C22_4 C20_4 1_555 1_555
N4_4 Cu10_2 1_555 1_555
C23_4 C22_4 1_555 1_555
H15_4 C23_4 1_555 1_555
C24_4 C21_4 1_555 1_555
H16_4 C24_4 1_555 1_555
O17_4 C25_4 1_555 1_555
O20_4 C25_4 1_555 1_555
C25_4 C28_4 1_555 1_555
C26_4 H17_4 1_555 1_555
C27_4 H18_4 1_555 1_555
C28_4 C26_4 1_555 1_555
N5_4 Cu11_2 1_555 1_555
C29_4 C28_4 1_555 1_555
H19_4 C29_4 1_555 1_555
C30_4 C27_4 1_555 1_555
H20_4 C30_4 1_555 1_555
O18_4 C31_4 1_555 1_555
O21_4 C31_4 1_555 1_555
C31_4 C34_4 1_555 1_555
C32_4 H21_4 1_555 1_555
C33_4 H22_4 1_555 1_555
C34_4 C32_4 1_555 1_555
N6_4 Cu12_2 1_555 1_555
C35_4 C34_4 1_555 1_555
H23_4 C35_4 1_555 1_555
C36_4 C33_4 1_555 1_555
H24_4 C36_4 1_555 1_555
C2_4 C4_4 1_555 1_555
C3_4 N1_4 1_555 1_555
C5_4 C6_4 1_555 1_555
C8_4 C10_4 1_555 1_555
C9_4 N2_4 1_555 1_555
C11_4 C12_4 1_555 1_555
O22 C13_4 1_555 1_555
C14_4 C16_4 1_555 1_555
C15_4 N3_4 1_555 1_555
C17_4 C18_4 1_555 1_555
C20_4 N4_4 1_555 1_555
C21_4 N4_4 1_555 1_555
C23_4 C24_4 1_555 1_555
C26_4 N5_4 1_555 1_555
C27_4 N5_4 1_555 1_555
C29_4 C30_4 1_555 1_555
C32_4 N6_4 1_555 1_555
C33_4 N6_4 1_555 1_555
C35_4 C36_4 1_555 1_555

#END
