
###############################################################################
#
# This file contains modified crystal structure data generated from the
# MOF subset of the Cambridge Structural Database (CSD) v543 
# hosted by the Cambridge Crystallographic Data Centre (CCDC).
#
# This work is licensed under the Creative Commons
# Attribution-NonCommercial-ShareAlike 4.0 International License.
# To view a copy of this license, visit
# http://creativecommons.org/licenses/by-nc-sa/4.0/
# or send a letter to
# Creative Commons, PO Box 1866, Mountain View, CA 94042, USA.
#
# CIF created using the CSD Python API on 29 September 2022
# The structure has been converted into the P1 space group
# The structure has a 3D framework
# The original CSD entry POMSER is in the monoclinic crystal system
# The framework has been calculated to contain at least 10.0% void space
# The void calculation uses a probe of radius 1.32A, grid spacing 0.4
#
###############################################################################

data_POMSER
_chemical_formula_moiety         '(C84 H68 Ca3 N4 O36)n'
_symmetry_cell_setting           triclinic
_symmetry_space_group_name_H-M   'P 1'
_symmetry_Int_Tables_number      1
_space_group_name_Hall           'P 1'
loop_
_symmetry_equiv_pos_site_id
_symmetry_equiv_pos_as_xyz
1 x,y,z
_cell_length_a                   10.9251(4)
_cell_length_b                   9.9892(4)
_cell_length_c                   22.6123(9)
_cell_angle_alpha                90
_cell_angle_beta                 94.870(4)
_cell_angle_gamma                90
_cell_volume                     2458.84
loop_
_atom_site_label
_atom_site_type_symbol
_atom_site_fract_x
_atom_site_fract_y
_atom_site_fract_z
Ca2 Ca 0.0000 0.0000 0.5000
O16 O 0.3272(4) 0.0343(5) 0.0477(2)
O17 O 0.3414(4) 0.0205(5) 0.1464(2)
C31 C 0.2830(5) 0.0408(6) 0.0965(3)
C33 C 0.0810(4) 0.0386(5) 0.1436(2)
H22 H 0.1219 0.0092 0.1789
C34 C 0.1471(4) 0.0702(5) 0.0955(2)
C35 C 0.0856(5) 0.1204(5) 0.0438(2)
H23 H 0.1296 0.1440 0.0120
Ca8 Ca 0.55178(7) 0.01879(9) 0.16128(4)
Ca13 Ca 0.5000 0.0000 0.0000
O19 O 0.0699(3) 0.1371(3) 0.57862(13)
O25 O 0.1728(4) 0.0343(5) 0.4523(2)
O27 O 0.1586(4) 0.0205(5) 0.3536(2)
Ca13_2 Ca 0.5000 0.0000 1.0000
Ca2_2 Ca 0.0000 1.0000 0.5000
H27 H 0.0309 0.7473 0.1237
C40 C 0.0061(11) 0.5819(11) 0.0717(5)
H28 H 0.0925 0.5939 0.0662
H31 H 0.0623 0.4012 0.1071
Ca13_3 Ca 0.5000 1.0000 0.0000
O22 O 0.0817(3) 0.8422(3) 0.56997(15)
Ca13_4 Ca 0.5000 1.0000 1.0000
Ca1 Ca 0.94822(7) 0.01879(9) 0.33872(4)
Ca2_3 Ca 1.0000 0.0000 0.5000
C9 C 0.6188(4) 0.0050(4) 0.31177(19)
C10 C 0.2170(5) 0.0408(6) 0.4035(3)
C11 C 0.5460(4) 0.0510(4) 0.36129(19)
C12 C 0.4190(4) 0.0386(5) 0.3564(2)
H5 H 0.3781 0.0092 0.3211
C13 C 0.3529(4) 0.0702(5) 0.4045(2)
C14 C 0.4144(5) 0.1204(5) 0.4562(2)
H6 H 0.3704 0.1440 0.4880
C15 C 0.5406(5) 0.1354(5) 0.4605(2)
H7 H 0.5812 0.1704 0.4949
C16 C 0.6063(4) 0.0982(5) 0.4134(2)
H8 H 0.6915 0.1050 0.4168
C30 C 0.8812(4) 0.0050(4) 0.18823(19)
C32 C 0.9540(4) 0.0510(4) 0.13871(19)
C36 C 0.9594(5) 0.1354(5) 0.0395(2)
H24 H 0.9188 0.1704 0.0051
C37 C 0.8937(4) 0.0982(5) 0.0866(2)
H25 H 0.8085 0.1050 0.0832
O20 O 0.9183(3) 0.1578(3) 0.43003(15)
O21 O 0.5817(3) 0.1578(3) 0.06997(15)
O23 O 0.9108(4) 0.2538(3) 0.34267(16)
O24 O 0.5892(4) 0.2538(3) 0.15733(16)
Ca2_4 Ca 1.0000 1.0000 0.5000
Ca3 Ca 0.7500 0.80628(12) 0.2500
O1 O 0.9301(3) 0.8629(3) 0.42138(13)
O2 O 0.8962(3) 0.7656(3) 0.33470(13)
O5 O 0.7329(3) 0.9924(3) 0.32186(15)
O6 O 0.5627(3) 0.9780(4) 0.26250(14)
O9 O 0.6271(5) 0.6683(6) 0.2962(2)
N1 N 0.5617(6) 0.4892(5) 0.3428(3)
C1 C 0.9019(4) 0.7615(4) 0.39066(18)
C2 C 0.9045(4) 0.2598(4) 0.3971(2)
C3 C 0.8761(4) 0.6335(4) 0.42179(18)
C4 C 0.8462(4) 0.6374(4) 0.4805(2)
H1 H 0.8372 0.7193 0.4992
C5 C 0.8300(5) 0.5194(5) 0.5109(2)
H2 H 0.8077 0.5221 0.5497
C6 C 0.8469(5) 0.3976(5) 0.4839(2)
H3 H 0.8372 0.3187 0.5049
C7 C 0.8782(4) 0.3916(4) 0.42558(19)
C8 C 0.8902(4) 0.5107(4) 0.3941(2)
H4 H 0.9077 0.5078 0.3546
C17 C 0.5798(5) 0.6145(6) 0.3362(3)
C18 C 0.5360(8) 0.6871(8) 0.3888(4)
H9 H 0.6023 0.7386 0.4089
H10 H 0.4691 0.7473 0.3763
C19 C 0.4939(11) 0.5819(11) 0.4283(5)
H11 H 0.4075 0.5939 0.4338
H12 H 0.5401 0.5862 0.4668
C20 C 0.5140(10) 0.4508(9) 0.3996(4)
H13 H 0.5732 0.3970 0.4235
H14 H 0.4377 0.4012 0.3929
C21 C 0.6026(10) 0.3815(10) 0.3017(4)
H15 H 0.6318 0.4223 0.2672
H16 H 0.5345 0.3239 0.2900
H17 H 0.6675 0.3300 0.3220
O10 O 0.5699(3) 0.8629(3) 0.07862(13)
O11 O 0.6038(3) 0.7656(3) 0.16530(13)
O14 O 0.7671(3) 0.9924(3) 0.17814(15)
O15 O 0.9373(3) 0.9780(4) 0.23750(14)
O18 O 0.8729(5) 0.6683(6) 0.2038(2)
N2 N 0.9383(6) 0.4892(5) 0.1572(3)
C22 C 0.5981(4) 0.7615(4) 0.10934(18)
C23 C 0.5955(4) 0.2598(4) 0.1029(2)
C24 C 0.6239(4) 0.6335(4) 0.07821(18)
C25 C 0.6538(4) 0.6374(4) 0.0195(2)
H18 H 0.6628 0.7193 0.0008
C27 C 0.6531(5) 0.3976(5) 0.0161(2)
C28 C 0.6218(4) 0.3916(4) 0.07442(19)
C29 C 0.6098(4) 0.5107(4) 0.1059(2)
H21 H 0.5923 0.5078 0.1454
C38 C 0.9202(5) 0.6145(6) 0.1638(3)
C39 C 0.9640(8) 0.6871(8) 0.1112(4)
H26 H 0.8977 0.7386 0.0911
H29 H 0.9599 0.5862 0.0332
C41 C 0.9860(10) 0.4508(9) 0.1004(4)
H30 H 0.9268 0.3970 0.0765
C42 C 0.8974(10) 0.3815(10) 0.1983(4)
H32 H 0.8682 0.4223 0.2328
H33 H 0.9655 0.3239 0.2100
H34 H 0.8325 0.3300 0.1780
O26 O 0.8272(4) 0.9657(5) 0.5477(2)
C26 C 0.6700(5) 0.5194(5) 0.9891(2)
H19 H 0.6923 0.5221 0.9503
H20 H 0.6628 0.3187 0.9951
O19_2 O 0.4301(3) 0.1371(3) 0.92138(13)
O22_2 O 0.4183(3) 0.8422(3) 0.93003(15)
O26_2 O 0.6728(4) 0.9657(5) 0.9523(2)
Ca5 Ca 0.05178(7) 0.98121(9) 0.66128(4)
C26_2 C 0.3300(5) 0.4806(5) 0.0109(2)
H19_2 H 0.3077 0.4779 0.0497
H20_2 H 0.3372 0.6813 0.0049
Ca3_2 Ca 0.2500 0.19372(12) 0.7500
O2_2 O 0.1038(3) 0.2344(3) 0.66530(13)
O4 O 0.0892(4) 0.7462(3) 0.65733(16)
O5_2 O 0.2671(3) 0.0076(3) 0.67814(15)
O6_2 O 0.4373(3) 0.0220(4) 0.73750(14)
O9_2 O 0.3729(5) 0.3317(6) 0.7038(2)
N1_2 N 0.4383(6) 0.5108(5) 0.6572(3)
C1_2 C 0.0981(4) 0.2385(4) 0.60934(18)
C2_2 C 0.0955(4) 0.7402(4) 0.6029(2)
C3_2 C 0.1239(4) 0.3665(4) 0.57821(18)
C4_2 C 0.1538(4) 0.3626(4) 0.5195(2)
H1_2 H 0.1628 0.2807 0.5008
C5_2 C 0.1700(5) 0.4806(5) 0.4891(2)
H2_2 H 0.1923 0.4779 0.4503
C6_2 C 0.1531(5) 0.6024(5) 0.5161(2)
H3_2 H 0.1628 0.6813 0.4951
C7_2 C 0.1218(4) 0.6084(4) 0.57442(19)
C8_2 C 0.1098(4) 0.4893(4) 0.6059(2)
H4_2 H 0.0923 0.4922 0.6454
C17_2 C 0.4202(5) 0.3855(6) 0.6638(3)
C18_2 C 0.4640(8) 0.3129(8) 0.6112(4)
H9_2 H 0.3977 0.2614 0.5911
H10_2 H 0.5309 0.2527 0.6237
C19_2 C 0.5061(11) 0.4181(11) 0.5717(5)
H11_2 H 0.5925 0.4061 0.5662
H12_2 H 0.4599 0.4138 0.5332
C20_2 C 0.4860(10) 0.5492(9) 0.6004(4)
H13_2 H 0.4268 0.6030 0.5765
H14_2 H 0.5623 0.5988 0.6071
C21_2 C 0.3974(10) 0.6185(10) 0.6983(4)
H15_2 H 0.3682 0.5777 0.7328
H16_2 H 0.4655 0.6761 0.7100
H17_2 H 0.3325 0.6700 0.6780
O11_2 O 0.3962(3) 0.2344(3) 0.83470(13)
O13 O 0.4108(4) 0.7462(3) 0.84267(16)
O14_2 O 0.2329(3) 0.0076(3) 0.82186(15)
O15_2 O 0.0627(3) 0.0220(4) 0.76250(14)
O18_2 O 0.1271(5) 0.3317(6) 0.7962(2)
N2_2 N 0.0617(6) 0.5108(5) 0.8428(3)
C22_2 C 0.4019(4) 0.2385(4) 0.89066(18)
C23_2 C 0.4045(4) 0.7402(4) 0.8971(2)
C24_2 C 0.3761(4) 0.3665(4) 0.92179(18)
C25_2 C 0.3462(4) 0.3626(4) 0.9805(2)
H18_2 H 0.3372 0.2807 0.9992
C27_2 C 0.3469(5) 0.6024(5) 0.9839(2)
C28_2 C 0.3782(4) 0.6084(4) 0.92558(19)
C29_2 C 0.3902(4) 0.4893(4) 0.8941(2)
H21_2 H 0.4077 0.4922 0.8546
C38_2 C 0.0798(5) 0.3855(6) 0.8362(3)
C39_2 C 0.0360(8) 0.3129(8) 0.8888(4)
H26_2 H 0.1023 0.2614 0.9089
H29_2 H 0.0401 0.4138 0.9668
C41_2 C 0.0140(10) 0.5492(9) 0.8996(4)
H30_2 H 0.0732 0.6030 0.9235
C42_2 C 0.1026(10) 0.6185(10) 0.8017(4)
H32_2 H 0.1318 0.5777 0.7672
H33_2 H 0.0345 0.6761 0.7900
H34_2 H 0.1675 0.6700 0.8220
Ca7 Ca 0.44822(7) 0.98121(9) 0.83872(4)
O8 O 0.8414(4) 0.9795(5) 0.6464(2)
C9_2 C 0.3812(4) 0.9950(4) 0.68823(19)
C10_2 C 0.7830(5) 0.9592(6) 0.5965(3)
C11_2 C 0.4540(4) 0.9490(4) 0.63871(19)
C12_2 C 0.5810(4) 0.9614(5) 0.6436(2)
H5_2 H 0.6219 0.9908 0.6789
C13_2 C 0.6471(4) 0.9298(5) 0.5955(2)
C14_2 C 0.5856(5) 0.8796(5) 0.5438(2)
H6_2 H 0.6296 0.8560 0.5120
C15_2 C 0.4594(5) 0.8646(5) 0.5395(2)
H7_2 H 0.4188 0.8296 0.5051
C16_2 C 0.3937(4) 0.9018(5) 0.5866(2)
H8_2 H 0.3085 0.8950 0.5832
C30_2 C 0.1188(4) 0.9950(4) 0.81177(19)
C32_2 C 0.0460(4) 0.9490(4) 0.86129(19)
C36_2 C 0.0406(5) 0.8646(5) 0.9605(2)
H24_2 H 0.0812 0.8296 0.9949
C37_2 C 0.1063(4) 0.9018(5) 0.9134(2)
H25_2 H 0.1915 0.8950 0.9168
O28 O 0.6586(4) 0.9795(5) 0.8536(2)
H27_2 H 0.9691 0.2527 0.8763
C40_2 C 0.9939(11) 0.4181(11) 0.9283(5)
H28_2 H 0.9075 0.4061 0.9338
H31_2 H 0.9377 0.5988 0.8929
C31_2 C 0.7170(5) 0.9592(6) 0.9035(3)
C33_2 C 0.9190(4) 0.9614(5) 0.8564(2)
H22_2 H 0.8781 0.9908 0.8211
C34_2 C 0.8529(4) 0.9298(5) 0.9045(2)
C35_2 C 0.9144(5) 0.8796(5) 0.9562(2)
H23_2 H 0.8704 0.8560 0.9880
loop_
_geom_bond_atom_site_label_1
_geom_bond_atom_site_label_2
_geom_bond_site_symmetry_1
_geom_bond_site_symmetry_2
O16 C31 1_555 1_555
O17 C31 1_555 1_555
C31 C34 1_555 1_555
H22 C33 1_555 1_555
C34 C33 1_555 1_555
C35 C34 1_555 1_555
H23 C35 1_555 1_555
Ca8 O17 1_555 1_555
Ca13 O16 1_555 1_555
O19 Ca2 1_555 1_555
O25 Ca2 1_555 1_555
H28 C40 1_555 1_555
O22 Ca2_2 1_555 1_555
O25 C10 1_555 1_555
O27 C10 1_555 1_555
C10 C13 1_555 1_555
C11 C9 1_555 1_555
C12 C11 1_555 1_555
H5 C12 1_555 1_555
C13 C12 1_555 1_555
C14 C13 1_555 1_555
H6 C14 1_555 1_555
C15 C14 1_555 1_555
H7 C15 1_555 1_555
C16 C11 1_555 1_555
H8 C16 1_555 1_555
C32 C30 1_555 1_555
H24 C36 1_555 1_555
C37 C32 1_555 1_555
H25 C37 1_555 1_555
O20 Ca1 1_555 1_555
O21 Ca8 1_555 1_555
O23 Ca1 1_555 1_555
O24 Ca8 1_555 1_555
Ca2_3 O20 1_555 1_555
C15 C16 1_555 1_555
C36 C37 1_555 1_555
Ca13 O21 1_555 1_555
Ca2_4 O1 1_555 1_555
Ca3 O2 1_555 1_555
O1 C1 1_555 1_555
O20 C2 1_555 1_555
O23 C2 1_555 1_555
O6 Ca3 1_555 1_555
O9 Ca3 1_555 1_555
N1 C17 1_555 1_555
C1 O2 1_555 1_555
C2 C7 1_555 1_555
C3 C1 1_555 1_555
C4 C3 1_555 1_555
H1 C4 1_555 1_555
C5 C4 1_555 1_555
H2 C5 1_555 1_555
C6 C5 1_555 1_555
H3 C6 1_555 1_555
C7 C6 1_555 1_555
C8 C3 1_555 1_555
H4 C8 1_555 1_555
C17 O9 1_555 1_555
C18 C17 1_555 1_555
H9 C18 1_555 1_555
H10 C18 1_555 1_555
C19 C18 1_555 1_555
H11 C19 1_555 1_555
H12 C19 1_555 1_555
C20 N1 1_555 1_555
H13 C20 1_555 1_555
H14 C20 1_555 1_555
C21 N1 1_555 1_555
H15 C21 1_555 1_555
H16 C21 1_555 1_555
H17 C21 1_555 1_555
O11 Ca3 1_555 1_555
O21 C23 1_555 1_555
O24 C23 1_555 1_555
O14 Ca3 1_555 1_555
O18 Ca3 1_555 1_555
N2 C38 1_555 1_555
C22 O10 1_555 1_555
C23 C28 1_555 1_555
C24 C22 1_555 1_555
C25 C24 1_555 1_555
H18 C25 1_555 1_555
C28 C27 1_555 1_555
C29 C24 1_555 1_555
H21 C29 1_555 1_555
C38 O18 1_555 1_555
C39 C38 1_555 1_555
H26 C39 1_555 1_555
C41 N2 1_555 1_555
H30 C41 1_555 1_555
C42 N2 1_555 1_555
H32 C42 1_555 1_555
H33 C42 1_555 1_555
H34 C42 1_555 1_555
Ca13_3 O10 1_555 1_555
O26 Ca2_4 1_555 1_555
Ca3 O5 1_555 1_555
Ca3 O15 1_555 1_555
C7 C8 1_555 1_555
C19 C20 1_555 1_555
O11 C22 1_555 1_555
C28 C29 1_555 1_555
H19 C26 1_555 1_555
O19_2 Ca13_2 1_555 1_555
O22_2 Ca13_4 1_555 1_555
O26_2 Ca13_4 1_555 1_555
H19_2 C26_2 1_555 1_555
Ca3_2 O2_2 1_555 1_555
O19 C1_2 1_555 1_555
O22 C2_2 1_555 1_555
O4 C2_2 1_555 1_555
O6_2 Ca3_2 1_555 1_555
O9_2 Ca3_2 1_555 1_555
N1_2 C17_2 1_555 1_555
C1_2 O2_2 1_555 1_555
C2_2 C7_2 1_555 1_555
C3_2 C1_2 1_555 1_555
C4_2 C3_2 1_555 1_555
H1_2 C4_2 1_555 1_555
C5_2 C4_2 1_555 1_555
H2_2 C5_2 1_555 1_555
C6_2 C5_2 1_555 1_555
H3_2 C6_2 1_555 1_555
C7_2 C6_2 1_555 1_555
C8_2 C3_2 1_555 1_555
H4_2 C8_2 1_555 1_555
C17_2 O9_2 1_555 1_555
C18_2 C17_2 1_555 1_555
H9_2 C18_2 1_555 1_555
H10_2 C18_2 1_555 1_555
C19_2 C18_2 1_555 1_555
H11_2 C19_2 1_555 1_555
H12_2 C19_2 1_555 1_555
C20_2 N1_2 1_555 1_555
H13_2 C20_2 1_555 1_555
H14_2 C20_2 1_555 1_555
C21_2 N1_2 1_555 1_555
H15_2 C21_2 1_555 1_555
H16_2 C21_2 1_555 1_555
H17_2 C21_2 1_555 1_555
O11_2 Ca3_2 1_555 1_555
O22_2 C23_2 1_555 1_555
O13 C23_2 1_555 1_555
O14_2 Ca3_2 1_555 1_555
O18_2 Ca3_2 1_555 1_555
N2_2 C38_2 1_555 1_555
C22_2 O19_2 1_555 1_555
C23_2 C28_2 1_555 1_555
C24_2 C22_2 1_555 1_555
C25_2 C24_2 1_555 1_555
H18_2 C25_2 1_555 1_555
C28_2 C27_2 1_555 1_555
C29_2 C24_2 1_555 1_555
H21_2 C29_2 1_555 1_555
C38_2 O18_2 1_555 1_555
C39_2 C38_2 1_555 1_555
H26_2 C39_2 1_555 1_555
C41_2 N2_2 1_555 1_555
H30_2 C41_2 1_555 1_555
C42_2 N2_2 1_555 1_555
H32_2 C42_2 1_555 1_555
H33_2 C42_2 1_555 1_555
H34_2 C42_2 1_555 1_555
Ca5 O22 1_555 1_555
Ca7 O22_2 1_555 1_555
Ca3_2 O5_2 1_555 1_555
Ca3_2 O15_2 1_555 1_555
O4 Ca5 1_555 1_555
C7_2 C8_2 1_555 1_555
C19_2 C20_2 1_555 1_555
O11_2 C22_2 1_555 1_555
O13 Ca7 1_555 1_555
C28_2 C29_2 1_555 1_555
O26 C10_2 1_555 1_555
O8 C10_2 1_555 1_555
C10_2 C13_2 1_555 1_555
C11_2 C9_2 1_555 1_555
C12_2 C11_2 1_555 1_555
H5_2 C12_2 1_555 1_555
C13_2 C12_2 1_555 1_555
C14_2 C13_2 1_555 1_555
H6_2 C14_2 1_555 1_555
C15_2 C14_2 1_555 1_555
H7_2 C15_2 1_555 1_555
C16_2 C11_2 1_555 1_555
H8_2 C16_2 1_555 1_555
C32_2 C30_2 1_555 1_555
H24_2 C36_2 1_555 1_555
C37_2 C32_2 1_555 1_555
H25_2 C37_2 1_555 1_555
O28 Ca7 1_555 1_555
C15_2 C16_2 1_555 1_555
C36_2 C37_2 1_555 1_555
H28_2 C40_2 1_555 1_555
O26_2 C31_2 1_555 1_555
O28 C31_2 1_555 1_555
C31_2 C34_2 1_555 1_555
H22_2 C33_2 1_555 1_555
C34_2 C33_2 1_555 1_555
C35_2 C34_2 1_555 1_555
H23_2 C35_2 1_555 1_555

#END
