
###############################################################################
#
# This file contains modified crystal structure data generated from the
# MOF subset of the Cambridge Structural Database (CSD) v543 
# hosted by the Cambridge Crystallographic Data Centre (CCDC).
#
# This work is licensed under the Creative Commons
# Attribution-NonCommercial-ShareAlike 4.0 International License.
# To view a copy of this license, visit
# http://creativecommons.org/licenses/by-nc-sa/4.0/
# or send a letter to
# Creative Commons, PO Box 1866, Mountain View, CA 94042, USA.
#
# CIF created using the CSD Python API on 29 September 2022
# The structure has been converted into the P1 space group
# The structure has a 3D framework
# The original CSD entry POMXIA is in the orthorhombic crystal system
# The framework has been calculated to contain at least 10.0% void space
# The void calculation uses a probe of radius 1.32A, grid spacing 0.4
# H atom positions have been added when not included in the experimental data
#
###############################################################################

data_POMXIA
_chemical_formula_moiety         '(C240 H184 N8 O88 Zn22)n'
_symmetry_cell_setting           triclinic
_symmetry_space_group_name_H-M   'P 1'
_symmetry_Int_Tables_number      1
_space_group_name_Hall           'P 1'
loop_
_symmetry_equiv_pos_site_id
_symmetry_equiv_pos_as_xyz
1 x,y,z
_cell_length_a                   19.2420(9)
_cell_length_b                   25.5073(10)
_cell_length_c                   16.0702(7)
_cell_angle_alpha                90
_cell_angle_beta                 90
_cell_angle_gamma                90
_cell_volume                     7887.44
loop_
_atom_site_label
_atom_site_type_symbol
_atom_site_fract_x
_atom_site_fract_y
_atom_site_fract_z
C29 C 0.1297(9) 0.1716(7) 0.0218(14)
C30 C 0.0426(12) 0.2361(11) 0.0450(15)
Zn9 Zn 0.0000 0.71945(4) 0.2500
H33 H 0.184255 0.180494 0.0330178
H34 H 0.104903 0.160623 0.0801693
H41 H 0.0382401 0.209902 0.0982514
H42 H 0.056738 0.275188 0.0663621
Zn1 Zn 0.12956(3) 0.19714(3) 0.69741(4)
Zn2 Zn 0.0000 0.28055(4) 0.7500
Zn3 Zn 0.12191(3) 0.25133(3) 0.88360(4)
O1 O 0.1168(2) 0.12413(16) 0.6653(3)
O2 O 0.0068(3) 0.14535(18) 0.6415(3)
O11 O 0.06940(18) 0.22169(14) 0.7901(2)
C1 C 0.0383(3) 0.0561(2) 0.6320(3)
C6 C 0.0896(3) 0.0199(2) 0.6281(4)
H4 H 0.1354 0.0308 0.6342
C7 C 0.0534(4) 0.1116(3) 0.6490(4)
N1 N 0.0961(5) 0.2165(4) 0.9884(5)
O17 O 0.1401(2) 0.24932(16) 0.6111(2)
O18 O 0.0331(2) 0.28157(19) 0.6268(3)
O19 O 0.0755(3) 0.66373(18) 0.2719(3)
O20 O 0.1249(2) 0.67339(18) 0.3948(3)
O21 O 0.1546(4) 0.4298(2) 0.3447(4)
C32 C 0.0291(4) 0.0399(3) 0.8798(4)
H17 H 0.0647 0.0645 0.8790
C45 C 0.1090(3) 0.3228(2) 0.5295(4)
C46 C 0.0639(4) 0.3624(3) 0.5137(5)
H25 H 0.0217 0.3638 0.5420
C47 C 0.0799(5) 0.4005(3) 0.4561(6)
H26 H 0.0501 0.4287 0.4476
C48 C 0.1392(5) 0.3964(3) 0.4124(5)
C49 C 0.1866(5) 0.3571(3) 0.4262(5)
H27 H 0.2276 0.3553 0.3958
C50 C 0.1715(4) 0.3204(3) 0.4865(4)
H28 H 0.2032 0.2939 0.4984
C51 C 0.0927(4) 0.2814(3) 0.5948(4)
C52 C 0.1136(3) 0.5888(3) 0.3430(5)
C53 C 0.0949(6) 0.5570(3) 0.2778(6)
H29 H 0.0732 0.5716 0.2316
C54 C 0.1083(7) 0.5021(4) 0.2793(7)
H30 H 0.0982 0.4810 0.2338
C55 C 0.1365(6) 0.4818(3) 0.3503(6)
C56 C 0.1516(6) 0.5109(3) 0.4138(6)
H31 H 0.1689 0.4953 0.4619
C57 C 0.1423(5) 0.5659(3) 0.4113(6)
H32 H 0.1558 0.5864 0.4564
C58 C 0.1027(4) 0.6458(3) 0.3365(5)
Zn13 Zn 0.12191(3) 0.74867(3) 0.38360(4)
O24 O 0.2192(2) 0.22916(18) 0.8693(3)
O26 O 0.2235(2) 0.19020(19) 0.7454(3)
O27 O 0.0755(3) 0.33627(18) 0.7719(3)
O29 O 0.1249(2) 0.32661(18) 0.8948(3)
H35 H 0.125702 0.13926 0.977819
H39 H 0.0608719 0.193687 0.958419
H44 H 0.0070325 0.237811 0.48745
O8 O 0.9245(3) 0.66373(18) 0.2281(3)
O9 O 0.8751(2) 0.67339(18) 0.1052(3)
O10 O 0.8454(4) 0.4298(2) 0.1553(4)
C17 C 0.9201(5) 0.4005(3) 0.0439(6)
H10 H 0.9499 0.4287 0.0524
C18 C 0.8608(5) 0.3964(3) 0.0876(5)
C19 C 0.8134(5) 0.3571(3) 0.0738(5)
H11 H 0.7724 0.3553 0.1042
C20 C 0.8285(4) 0.3204(3) 0.0135(4)
H12 H 0.7968 0.2939 0.0016
C22 C 0.8864(3) 0.5888(3) 0.1570(5)
C23 C 0.9051(6) 0.5570(3) 0.2222(6)
H13 H 0.9268 0.5716 0.2684
C24 C 0.8917(7) 0.5021(4) 0.2207(7)
H14 H 0.9018 0.4810 0.2662
C25 C 0.8635(6) 0.4818(3) 0.1497(6)
C26 C 0.8484(6) 0.5109(3) 0.0862(6)
H15 H 0.8311 0.4953 0.0381
C27 C 0.8577(5) 0.5659(3) 0.0887(6)
H16 H 0.8442 0.5864 0.0436
C28 C 0.8973(4) 0.6458(3) 0.1635(5)
Zn9_2 Zn 1.0000 0.71945(4) 0.2500
Zn12 Zn 0.87809(3) 0.74867(3) 0.11640(4)
H40 H 0.992967 0.237811 0.0125502
Zn2_2 Zn 1.0000 0.28055(4) 0.7500
O6 O 0.8599(2) 0.24932(16) 0.8889(2)
O7 O 0.9669(2) 0.28157(19) 0.8732(3)
C2 C 0.9709(4) 0.0399(3) 0.6202(4)
H1 H 0.9353 0.0645 0.6210
C15 C 0.8910(3) 0.3228(2) 0.9705(4)
C16 C 0.9361(4) 0.3624(3) 0.9863(5)
H9 H 0.9783 0.3638 0.9580
C21 C 0.9073(4) 0.2814(3) 0.9052(4)
Zn4 Zn 0.87044(3) 0.19714(3) 0.80259(4)
Zn5 Zn 0.87809(3) 0.25133(3) 0.61640(4)
O12 O 0.8832(2) 0.12413(16) 0.8347(3)
O13 O 0.9932(3) 0.14535(18) 0.8585(3)
O22 O 0.93060(18) 0.22169(14) 0.7099(2)
C31 C 0.9617(3) 0.0561(2) 0.8680(3)
C36 C 0.9104(3) 0.0199(2) 0.8719(4)
H20 H 0.8646 0.0308 0.8658
C37 C 0.9466(4) 0.1116(3) 0.8510(4)
C59 C 0.8703(9) 0.1716(7) 0.4782(14)
C60 C 0.9574(12) 0.2361(11) 0.4550(15)
N2 N 0.9039(5) 0.2165(4) 0.5116(5)
O23 O 0.7808(2) 0.22916(18) 0.6307(3)
O25 O 0.7765(2) 0.19020(19) 0.7546(3)
O28 O 0.9245(3) 0.33627(18) 0.7281(3)
O30 O 0.8751(2) 0.32661(18) 0.6052(3)
H36 H 0.815745 0.180494 0.466982
H37 H 0.895097 0.160623 0.419831
H38 H 0.874298 0.13926 0.522181
H43 H 0.939128 0.193687 0.541581
H45 H 0.96176 0.209902 0.401749
H46 H 0.943262 0.275188 0.433638
O5 O 0.5029(2) 0.10100(18) 0.5899(3)
C3 C 0.5446(3) 0.0112(3) 0.6074(5)
H2 H 0.5906 0.0214 0.5998
C4 C 0.4925(3) 0.0483(3) 0.6056(4)
C5 C 0.4239(3) 0.0335(3) 0.6151(4)
H3 H 0.3882 0.0580 0.6130
C8 C 0.6851(3) 0.1751(2) 0.6615(3)
C9 C 0.6588(4) 0.1809(3) 0.5821(4)
H5 H 0.6819 0.2025 0.5446
C10 C 0.5991(3) 0.1554(3) 0.5572(4)
H6 H 0.5819 0.1591 0.5034
C11 C 0.5655(3) 0.1239(3) 0.6154(4)
C12 C 0.5900(3) 0.1181(3) 0.6936(4)
H7 H 0.5668 0.0966 0.7312
C13 C 0.6497(3) 0.1444(3) 0.7175(4)
H8 H 0.6660 0.1413 0.7718
C14 C 0.7528(3) 0.2002(2) 0.6838(4)
O16 O 0.4971(2) 0.10100(18) 0.9101(3)
C33 C 0.4554(3) 0.0112(3) 0.8926(5)
H18 H 0.4094 0.0214 0.9002
C34 C 0.5075(3) 0.0483(3) 0.8944(4)
C35 C 0.5761(3) 0.0335(3) 0.8849(4)
H19 H 0.6118 0.0580 0.8870
C38 C 0.3149(3) 0.1751(2) 0.8385(3)
C39 C 0.3412(4) 0.1809(3) 0.9179(4)
H21 H 0.3181 0.2025 0.9554
C40 C 0.4009(3) 0.1554(3) 0.9428(4)
H22 H 0.4181 0.1591 0.9966
C41 C 0.4345(3) 0.1239(3) 0.8846(4)
C42 C 0.4100(3) 0.1181(3) 0.8064(4)
H23 H 0.4332 0.0966 0.7688
C43 C 0.3503(3) 0.1444(3) 0.7825(4)
H24 H 0.3340 0.1413 0.7282
C44 C 0.2472(3) 0.2002(2) 0.8162(4)
O6_2 O 0.1401(2) 0.75068(16) 0.1111(2)
O7_2 O 0.0331(2) 0.71843(19) 0.1268(3)
C2_2 C 0.0291(4) 0.9601(3) 0.3798(4)
H1_2 H 0.0647 0.9355 0.3790
C15_2 C 0.1090(3) 0.6772(2) 0.0295(4)
C16_2 C 0.0639(4) 0.6376(3) 0.0137(5)
H9_2 H 0.0217 0.6362 0.0420
C21_2 C 0.0927(4) 0.7186(3) 0.0948(4)
Zn4_2 Zn 0.12956(3) 0.80286(3) 0.19741(4)
O12_2 O 0.1168(2) 0.87587(16) 0.1653(3)
O13_2 O 0.0068(3) 0.85465(18) 0.1415(3)
O22_2 O 0.06940(18) 0.77831(14) 0.2901(2)
C31_2 C 0.0383(3) 0.9439(2) 0.1320(3)
C36_2 C 0.0896(3) 0.9801(2) 0.1281(4)
H20_2 H 0.1354 0.9692 0.1342
C37_2 C 0.0534(4) 0.8884(3) 0.1490(4)
C59_2 C 0.1297(9) 0.8284(7) 0.5218(14)
C60_2 C 0.0426(12) 0.7639(11) 0.5450(15)
N2_2 N 0.0961(5) 0.7835(4) 0.4884(5)
O23_2 O 0.2192(2) 0.77084(18) 0.3693(3)
O25_2 O 0.2235(2) 0.80980(19) 0.2454(3)
H36_2 H 0.184255 0.819506 0.533018
H37_2 H 0.104903 0.839377 0.580169
H38_2 H 0.125702 0.86074 0.477819
H43_2 H 0.0608719 0.806313 0.458419
H45_2 H 0.0382401 0.790098 0.598251
H46_2 H 0.056738 0.724812 0.566362
O10_2 O 0.1546(4) 0.5702(2) 0.8447(4)
C17_2 C 0.0799(5) 0.5995(3) 0.9561(6)
H10_2 H 0.0501 0.5713 0.9476
C18_2 C 0.1392(5) 0.6036(3) 0.9124(5)
C19_2 C 0.1866(5) 0.6429(3) 0.9262(5)
H11_2 H 0.2276 0.6447 0.8958
C20_2 C 0.1715(4) 0.6796(3) 0.9865(4)
H12_2 H 0.2032 0.7061 0.9984
C22_2 C 0.1136(3) 0.4112(3) 0.8430(5)
C23_2 C 0.0949(6) 0.4430(3) 0.7778(6)
H13_2 H 0.0732 0.4284 0.7316
C24_2 C 0.1083(7) 0.4979(4) 0.7793(7)
H14_2 H 0.0982 0.5190 0.7338
C25_2 C 0.1365(6) 0.5182(3) 0.8503(6)
C26_2 C 0.1516(6) 0.4891(3) 0.9138(6)
H15_2 H 0.1689 0.5047 0.9619
C27_2 C 0.1423(5) 0.4341(3) 0.9113(6)
H16_2 H 0.1558 0.4136 0.9564
C28_2 C 0.1027(4) 0.3542(3) 0.8365(5)
H40_2 H 0.0070325 0.762189 0.98745
Zn1_2 Zn 0.87044(3) 0.80286(3) 0.30259(4)
O1_2 O 0.8832(2) 0.87587(16) 0.3347(3)
O2_2 O 0.9932(3) 0.85465(18) 0.3585(3)
O11_2 O 0.93060(18) 0.77831(14) 0.2099(2)
C1_2 C 0.9617(3) 0.9439(2) 0.3680(3)
C6_2 C 0.9104(3) 0.9801(2) 0.3719(4)
H4_2 H 0.8646 0.9692 0.3658
C7_2 C 0.9466(4) 0.8884(3) 0.3510(4)
N1_2 N 0.9039(5) 0.7835(4) 0.0116(5)
O17_2 O 0.8599(2) 0.75068(16) 0.3889(2)
O18_2 O 0.9669(2) 0.71843(19) 0.3732(3)
O21_2 O 0.8454(4) 0.5702(2) 0.6553(4)
C32_2 C 0.9709(4) 0.9601(3) 0.1202(4)
H17_2 H 0.9353 0.9355 0.1210
C45_2 C 0.8910(3) 0.6772(2) 0.4705(4)
C46_2 C 0.9361(4) 0.6376(3) 0.4863(5)
H25_2 H 0.9783 0.6362 0.4580
C47_2 C 0.9201(5) 0.5995(3) 0.5439(6)
H26_2 H 0.9499 0.5713 0.5524
C48_2 C 0.8608(5) 0.6036(3) 0.5876(5)
C49_2 C 0.8134(5) 0.6429(3) 0.5738(5)
H27_2 H 0.7724 0.6447 0.6042
C50_2 C 0.8285(4) 0.6796(3) 0.5135(4)
H28_2 H 0.7968 0.7061 0.5016
C51_2 C 0.9073(4) 0.7186(3) 0.4052(4)
C52_2 C 0.8864(3) 0.4112(3) 0.6570(5)
C53_2 C 0.9051(6) 0.4430(3) 0.7222(6)
H29_2 H 0.9268 0.4284 0.7684
C54_2 C 0.8917(7) 0.4979(4) 0.7207(7)
H30_2 H 0.9018 0.5190 0.7662
C55_2 C 0.8635(6) 0.5182(3) 0.6497(6)
C56_2 C 0.8484(6) 0.4891(3) 0.5862(6)
H31_2 H 0.8311 0.5047 0.5381
C57_2 C 0.8577(5) 0.4341(3) 0.5887(6)
H32_2 H 0.8442 0.4136 0.5436
C58_2 C 0.8973(4) 0.3542(3) 0.6635(5)
O24_2 O 0.7808(2) 0.77084(18) 0.1307(3)
O26_2 O 0.7765(2) 0.80980(19) 0.2546(3)
H35_2 H 0.874298 0.86074 0.0221812
H39_2 H 0.939128 0.806313 0.0415814
H44_2 H 0.992967 0.762189 0.51255
C29_2 C 0.8703(9) 0.8284(7) 0.9782(14)
C30_2 C 0.9574(12) 0.7639(11) 0.9550(15)
H33_2 H 0.815745 0.819506 0.966982
H34_2 H 0.895097 0.839377 0.919831
H41_2 H 0.96176 0.790098 0.901749
H42_2 H 0.943262 0.724812 0.933638
O5_2 O 0.4971(2) 0.89900(18) 0.4101(3)
C3_2 C 0.4554(3) 0.9888(3) 0.3926(5)
H2_2 H 0.4094 0.9786 0.4002
C4_2 C 0.5075(3) 0.9517(3) 0.3944(4)
C5_2 C 0.5761(3) 0.9665(3) 0.3849(4)
H3_2 H 0.6118 0.9420 0.3870
C8_2 C 0.3149(3) 0.8249(2) 0.3385(3)
C9_2 C 0.3412(4) 0.8191(3) 0.4179(4)
H5_2 H 0.3181 0.7975 0.4554
C10_2 C 0.4009(3) 0.8446(3) 0.4428(4)
H6_2 H 0.4181 0.8409 0.4966
C11_2 C 0.4345(3) 0.8761(3) 0.3846(4)
C12_2 C 0.4100(3) 0.8819(3) 0.3064(4)
H7_2 H 0.4332 0.9034 0.2688
C13_2 C 0.3503(3) 0.8556(3) 0.2825(4)
H8_2 H 0.3340 0.8587 0.2282
C14_2 C 0.2472(3) 0.7998(2) 0.3162(4)
O16_2 O 0.5029(2) 0.89900(18) 0.0899(3)
C33_2 C 0.5446(3) 0.9888(3) 0.1074(5)
H18_2 H 0.5906 0.9786 0.0998
C34_2 C 0.4925(3) 0.9517(3) 0.1056(4)
C35_2 C 0.4239(3) 0.9665(3) 0.1151(4)
H19_2 H 0.3882 0.9420 0.1130
C38_2 C 0.6851(3) 0.8249(2) 0.1615(3)
C39_2 C 0.6588(4) 0.8191(3) 0.0821(4)
H21_2 H 0.6819 0.7975 0.0446
C40_2 C 0.5991(3) 0.8446(3) 0.0572(4)
H22_2 H 0.5819 0.8409 0.0034
C41_2 C 0.5655(3) 0.8761(3) 0.1154(4)
C42_2 C 0.5900(3) 0.8819(3) 0.1936(4)
H23_2 H 0.5668 0.9034 0.2312
C43_2 C 0.6497(3) 0.8556(3) 0.2175(4)
H24_2 H 0.6660 0.8587 0.2718
C44_2 C 0.7528(3) 0.7998(2) 0.1838(4)
C4_3 C 0.0075(3) 0.9517(3) 0.6056(4)
C5_3 C 0.0761(3) 0.9665(3) 0.6151(4)
H3_3 H 0.1118 0.9420 0.6130
O14 O 0.2808(2) 0.77084(18) 0.8693(3)
O15 O 0.2765(2) 0.80980(19) 0.7454(3)
O16_3 O 0.0029(2) 0.89900(18) 0.9101(3)
C33_3 C 0.0446(3) 0.9888(3) 0.8926(5)
H18_3 H 0.0906 0.9786 0.9002
C38_3 C 0.1851(3) 0.8249(2) 0.8385(3)
C39_3 C 0.1588(4) 0.8191(3) 0.9179(4)
H21_3 H 0.1819 0.7975 0.9554
C40_3 C 0.0991(3) 0.8446(3) 0.9428(4)
H22_3 H 0.0819 0.8409 0.9966
C41_3 C 0.0655(3) 0.8761(3) 0.8846(4)
C42_3 C 0.0900(3) 0.8819(3) 0.8064(4)
H23_3 H 0.0668 0.9034 0.7688
C43_3 C 0.1497(3) 0.8556(3) 0.7825(4)
H24_3 H 0.1660 0.8587 0.7282
C44_3 C 0.2528(3) 0.7998(2) 0.8162(4)
Zn6 Zn 0.37044(3) 0.80286(3) 0.69741(4)
Zn10 Zn 0.37809(3) 0.74867(3) 0.88360(4)
O3 O 0.7192(2) 0.77084(18) 0.6307(3)
O4 O 0.7235(2) 0.80980(19) 0.7546(3)
O5_3 O 0.9971(2) 0.89900(18) 0.5899(3)
C3_3 C 0.9554(3) 0.9888(3) 0.6074(5)
H2_3 H 0.9094 0.9786 0.5998
C8_3 C 0.8149(3) 0.8249(2) 0.6615(3)
C9_3 C 0.8412(4) 0.8191(3) 0.5821(4)
H5_3 H 0.8181 0.7975 0.5446
C10_3 C 0.9009(3) 0.8446(3) 0.5572(4)
H6_3 H 0.9181 0.8409 0.5034
C11_3 C 0.9345(3) 0.8761(3) 0.6154(4)
C12_3 C 0.9100(3) 0.8819(3) 0.6936(4)
H7_3 H 0.9332 0.9034 0.7312
C13_3 C 0.8503(3) 0.8556(3) 0.7175(4)
H8_3 H 0.8340 0.8587 0.7718
C14_3 C 0.7472(3) 0.7998(2) 0.6838(4)
C34_3 C 0.9925(3) 0.9517(3) 0.8944(4)
C35_3 C 0.9239(3) 0.9665(3) 0.8849(4)
H19_3 H 0.8882 0.9420 0.8870
Zn7 Zn 0.62956(3) 0.80286(3) 0.80259(4)
Zn11 Zn 0.62191(3) 0.74867(3) 0.61640(4)
O8_2 O 0.5755(3) 0.33627(18) 0.2281(3)
O9_2 O 0.6249(2) 0.32661(18) 0.1052(3)
O10_3 O 0.6546(4) 0.5702(2) 0.1553(4)
C17_3 C 0.5799(5) 0.5995(3) 0.0439(6)
H10_3 H 0.5501 0.5713 0.0524
C18_3 C 0.6392(5) 0.6036(3) 0.0876(5)
C19_3 C 0.6866(5) 0.6429(3) 0.0738(5)
H11_3 H 0.7276 0.6447 0.1042
C20_3 C 0.6715(4) 0.6796(3) 0.0135(4)
H12_3 H 0.7032 0.7061 0.0016
C22_3 C 0.6136(3) 0.4112(3) 0.1570(5)
C23_3 C 0.5949(6) 0.4430(3) 0.2222(6)
H13_3 H 0.5732 0.4284 0.2684
C24_3 C 0.6083(7) 0.4979(4) 0.2207(7)
H14_3 H 0.5982 0.5190 0.2662
C25_3 C 0.6365(6) 0.5182(3) 0.1497(6)
C26_3 C 0.6516(6) 0.4891(3) 0.0862(6)
H15_3 H 0.6689 0.5047 0.0381
C27_3 C 0.6423(5) 0.4341(3) 0.0887(6)
H16_3 H 0.6558 0.4136 0.0436
C28_3 C 0.6027(4) 0.3542(3) 0.1635(5)
C29_3 C 0.3703(9) 0.8284(7) 0.0218(14)
C30_3 C 0.4574(12) 0.7639(11) 0.0450(15)
Zn9_3 Zn 0.5000 0.28055(4) 0.2500
Zn12_2 Zn 0.62191(3) 0.25133(3) 0.11640(4)
H33_3 H 0.315745 0.819506 0.0330178
H34_3 H 0.395097 0.839377 0.0801693
H40_3 H 0.507033 0.762189 0.0125502
H41_3 H 0.46176 0.790098 0.0982514
H42_3 H 0.443262 0.724812 0.0663621
Zn2_3 Zn 0.5000 0.71945(4) 0.7500
O1_3 O 0.3832(2) 0.87587(16) 0.6653(3)
O2_3 O 0.4932(3) 0.85465(18) 0.6415(3)
O6_3 O 0.6401(2) 0.75068(16) 0.8889(2)
O7_3 O 0.5331(2) 0.71843(19) 0.8732(3)
O11_3 O 0.43060(18) 0.77831(14) 0.7901(2)
C1_3 C 0.4617(3) 0.9439(2) 0.6320(3)
C2_3 C 0.5291(4) 0.9601(3) 0.6202(4)
H1_3 H 0.5647 0.9355 0.6210
C6_3 C 0.4104(3) 0.9801(2) 0.6281(4)
H4_3 H 0.3646 0.9692 0.6342
C7_3 C 0.4466(4) 0.8884(3) 0.6490(4)
C15_3 C 0.6090(3) 0.6772(2) 0.9705(4)
C16_3 C 0.5639(4) 0.6376(3) 0.9863(5)
H9_3 H 0.5217 0.6362 0.9580
C21_3 C 0.5927(4) 0.7186(3) 0.9052(4)
N1_3 N 0.4039(5) 0.7835(4) 0.9884(5)
O12_3 O 0.6168(2) 0.87587(16) 0.8347(3)
O13_3 O 0.5068(3) 0.85465(18) 0.8585(3)
O17_3 O 0.3599(2) 0.75068(16) 0.6111(2)
O18_3 O 0.4669(2) 0.71843(19) 0.6268(3)
O19_2 O 0.4245(3) 0.33627(18) 0.2719(3)
O20_2 O 0.3751(2) 0.32661(18) 0.3948(3)
O21_3 O 0.3454(4) 0.5702(2) 0.3447(4)
O22_3 O 0.56940(18) 0.77831(14) 0.7099(2)
C31_3 C 0.5383(3) 0.9439(2) 0.8680(3)
C32_3 C 0.4709(4) 0.9601(3) 0.8798(4)
H17_3 H 0.4353 0.9355 0.8790
C36_3 C 0.5896(3) 0.9801(2) 0.8719(4)
H20_3 H 0.6354 0.9692 0.8658
C37_3 C 0.5534(4) 0.8884(3) 0.8510(4)
C45_3 C 0.3910(3) 0.6772(2) 0.5295(4)
C46_3 C 0.4361(4) 0.6376(3) 0.5137(5)
H25_3 H 0.4783 0.6362 0.5420
C47_3 C 0.4201(5) 0.5995(3) 0.4561(6)
H26_3 H 0.4499 0.5713 0.4476
C48_3 C 0.3608(5) 0.6036(3) 0.4124(5)
C49_3 C 0.3134(5) 0.6429(3) 0.4262(5)
H27_3 H 0.2724 0.6447 0.3958
C50_3 C 0.3285(4) 0.6796(3) 0.4865(4)
H28_3 H 0.2968 0.7061 0.4984
C51_3 C 0.4073(4) 0.7186(3) 0.5948(4)
C52_3 C 0.3864(3) 0.4112(3) 0.3430(5)
C53_3 C 0.4051(6) 0.4430(3) 0.2778(6)
H29_3 H 0.4268 0.4284 0.2316
C54_3 C 0.3917(7) 0.4979(4) 0.2793(7)
H30_3 H 0.4018 0.5190 0.2338
C55_3 C 0.3635(6) 0.5182(3) 0.3503(6)
C56_3 C 0.3484(6) 0.4891(3) 0.4138(6)
H31_3 H 0.3311 0.5047 0.4619
C57_3 C 0.3577(5) 0.4341(3) 0.4113(6)
H32_3 H 0.3442 0.4136 0.4564
C58_3 C 0.3973(4) 0.3542(3) 0.3365(5)
C59_3 C 0.6297(9) 0.8284(7) 0.4782(14)
C60_3 C 0.5426(12) 0.7639(11) 0.4550(15)
N2_3 N 0.5961(5) 0.7835(4) 0.5116(5)
Zn13_2 Zn 0.37809(3) 0.25133(3) 0.38360(4)
O27_2 O 0.4245(3) 0.66373(18) 0.7719(3)
O28_2 O 0.5755(3) 0.66373(18) 0.7281(3)
O29_2 O 0.3751(2) 0.67339(18) 0.8948(3)
O30_2 O 0.6249(2) 0.67339(18) 0.6052(3)
H35_3 H 0.374298 0.86074 0.977819
H36_3 H 0.684255 0.819506 0.466982
H37_3 H 0.604903 0.839377 0.419831
H38_3 H 0.625702 0.86074 0.522181
H39_3 H 0.439128 0.806313 0.958419
H43_3 H 0.560872 0.806313 0.541581
H44_3 H 0.492967 0.762189 0.48745
H45_3 H 0.53824 0.790098 0.401749
H46_3 H 0.556738 0.724812 0.433638
O3_2 O 0.2808(2) 0.22916(18) 0.3693(3)
O4_2 O 0.2765(2) 0.19020(19) 0.2454(3)
O5_4 O 0.0029(2) 0.10100(18) 0.4101(3)
C3_4 C 0.0446(3) 0.0112(3) 0.3926(5)
H2_4 H 0.0906 0.0214 0.4002
C8_4 C 0.1851(3) 0.1751(2) 0.3385(3)
C9_4 C 0.1588(4) 0.1809(3) 0.4179(4)
H5_4 H 0.1819 0.2025 0.4554
C10_4 C 0.0991(3) 0.1554(3) 0.4428(4)
H6_4 H 0.0819 0.1591 0.4966
C11_4 C 0.0655(3) 0.1239(3) 0.3846(4)
C12_4 C 0.0900(3) 0.1181(3) 0.3064(4)
H7_4 H 0.0668 0.0966 0.2688
C13_4 C 0.1497(3) 0.1444(3) 0.2825(4)
H8_4 H 0.1660 0.1413 0.2282
C14_4 C 0.2528(3) 0.2002(2) 0.3162(4)
C34_4 C 0.0075(3) 0.0483(3) 0.1056(4)
C35_4 C 0.0761(3) 0.0335(3) 0.1151(4)
H19_4 H 0.1118 0.0580 0.1130
Zn7_2 Zn 0.37044(3) 0.19714(3) 0.19741(4)
C4_4 C 0.9925(3) 0.0483(3) 0.3944(4)
C5_4 C 0.9239(3) 0.0335(3) 0.3849(4)
H3_4 H 0.8882 0.0580 0.3870
O14_2 O 0.7192(2) 0.22916(18) 0.1307(3)
O15_2 O 0.7235(2) 0.19020(19) 0.2546(3)
O16_4 O 0.9971(2) 0.10100(18) 0.0899(3)
C33_4 C 0.9554(3) 0.0112(3) 0.1074(5)
H18_4 H 0.9094 0.0214 0.0998
C38_4 C 0.8149(3) 0.1751(2) 0.1615(3)
C39_4 C 0.8412(4) 0.1809(3) 0.0821(4)
H21_4 H 0.8181 0.2025 0.0446
C40_4 C 0.9009(3) 0.1554(3) 0.0572(4)
H22_4 H 0.9181 0.1591 0.0034
C41_4 C 0.9345(3) 0.1239(3) 0.1154(4)
C42_4 C 0.9100(3) 0.1181(3) 0.1936(4)
H23_4 H 0.9332 0.0966 0.2312
C43_4 C 0.8503(3) 0.1444(3) 0.2175(4)
H24_4 H 0.8340 0.1413 0.2718
C44_4 C 0.7472(3) 0.2002(2) 0.1838(4)
Zn6_2 Zn 0.62956(3) 0.19714(3) 0.30259(4)
O1_4 O 0.6168(2) 0.12413(16) 0.3347(3)
O2_4 O 0.5068(3) 0.14535(18) 0.3585(3)
O6_4 O 0.3599(2) 0.24932(16) 0.1111(2)
O7_4 O 0.4669(2) 0.28157(19) 0.1268(3)
O11_4 O 0.56940(18) 0.22169(14) 0.2099(2)
C1_4 C 0.5383(3) 0.0561(2) 0.3680(3)
C2_4 C 0.4709(4) 0.0399(3) 0.3798(4)
H1_4 H 0.4353 0.0645 0.3790
C6_4 C 0.5896(3) 0.0199(2) 0.3719(4)
H4_4 H 0.6354 0.0308 0.3658
C7_4 C 0.5534(4) 0.1116(3) 0.3510(4)
C15_4 C 0.3910(3) 0.3228(2) 0.0295(4)
C16_4 C 0.4361(4) 0.3624(3) 0.0137(5)
H9_4 H 0.4783 0.3638 0.0420
C21_4 C 0.4073(4) 0.2814(3) 0.0948(4)
N1_4 N 0.5961(5) 0.2165(4) 0.0116(5)
O12_4 O 0.3832(2) 0.12413(16) 0.1653(3)
O13_4 O 0.4932(3) 0.14535(18) 0.1415(3)
O17_4 O 0.6401(2) 0.24932(16) 0.3889(2)
O18_4 O 0.5331(2) 0.28157(19) 0.3732(3)
O21_4 O 0.6546(4) 0.4298(2) 0.6553(4)
O22_4 O 0.43060(18) 0.22169(14) 0.2901(2)
C31_4 C 0.4617(3) 0.0561(2) 0.1320(3)
C32_4 C 0.5291(4) 0.0399(3) 0.1202(4)
H17_4 H 0.5647 0.0645 0.1210
C36_4 C 0.4104(3) 0.0199(2) 0.1281(4)
H20_4 H 0.3646 0.0308 0.1342
C37_4 C 0.4466(4) 0.1116(3) 0.1490(4)
C45_4 C 0.6090(3) 0.3228(2) 0.4705(4)
C46_4 C 0.5639(4) 0.3624(3) 0.4863(5)
H25_4 H 0.5217 0.3638 0.4580
C47_4 C 0.5799(5) 0.4005(3) 0.5439(6)
H26_4 H 0.5501 0.4287 0.5524
C48_4 C 0.6392(5) 0.3964(3) 0.5876(5)
C49_4 C 0.6866(5) 0.3571(3) 0.5738(5)
H27_4 H 0.7276 0.3553 0.6042
C50_4 C 0.6715(4) 0.3204(3) 0.5135(4)
H28_4 H 0.7032 0.2939 0.5016
C51_4 C 0.5927(4) 0.2814(3) 0.4052(4)
C52_4 C 0.6136(3) 0.5888(3) 0.6570(5)
C53_4 C 0.5949(6) 0.5570(3) 0.7222(6)
H29_4 H 0.5732 0.5716 0.7684
C54_4 C 0.6083(7) 0.5021(4) 0.7207(7)
H30_4 H 0.5982 0.4810 0.7662
C55_4 C 0.6365(6) 0.4818(3) 0.6497(6)
C56_4 C 0.6516(6) 0.5109(3) 0.5862(6)
H31_4 H 0.6689 0.4953 0.5381
C57_4 C 0.6423(5) 0.5659(3) 0.5887(6)
H32_4 H 0.6558 0.5864 0.5436
C58_4 C 0.6027(4) 0.6458(3) 0.6635(5)
C59_4 C 0.3703(9) 0.1716(7) 0.5218(14)
C60_4 C 0.4574(12) 0.2361(11) 0.5450(15)
N2_4 N 0.4039(5) 0.2165(4) 0.4884(5)
H35_4 H 0.625702 0.13926 0.0221812
H36_4 H 0.315745 0.180494 0.533018
H37_4 H 0.395097 0.160623 0.580169
H38_4 H 0.374298 0.13926 0.477819
H39_4 H 0.560872 0.193687 0.0415814
H43_4 H 0.439128 0.193687 0.458419
H44_4 H 0.507033 0.237811 0.51255
H45_4 H 0.46176 0.209902 0.598251
H46_4 H 0.443262 0.275188 0.566362
O10_4 O 0.3454(4) 0.4298(2) 0.8447(4)
C17_4 C 0.4201(5) 0.4005(3) 0.9561(6)
H10_4 H 0.4499 0.4287 0.9476
C18_4 C 0.3608(5) 0.3964(3) 0.9124(5)
C19_4 C 0.3134(5) 0.3571(3) 0.9262(5)
H11_4 H 0.2724 0.3553 0.8958
C20_4 C 0.3285(4) 0.3204(3) 0.9865(4)
H12_4 H 0.2968 0.2939 0.9984
C22_4 C 0.3864(3) 0.5888(3) 0.8430(5)
C23_4 C 0.4051(6) 0.5570(3) 0.7778(6)
H13_4 H 0.4268 0.5716 0.7316
C24_4 C 0.3917(7) 0.5021(4) 0.7793(7)
H14_4 H 0.4018 0.4810 0.7338
C25_4 C 0.3635(6) 0.4818(3) 0.8503(6)
C26_4 C 0.3484(6) 0.5109(3) 0.9138(6)
H15_4 H 0.3311 0.4953 0.9619
C27_4 C 0.3577(5) 0.5659(3) 0.9113(6)
H16_4 H 0.3442 0.5864 0.9564
C28_4 C 0.3973(4) 0.6458(3) 0.8365(5)
C29_4 C 0.6297(9) 0.1716(7) 0.9782(14)
C30_4 C 0.5426(12) 0.2361(11) 0.9550(15)
H33_4 H 0.684255 0.180494 0.966982
H34_4 H 0.604903 0.160623 0.919831
H40_4 H 0.492967 0.237811 0.98745
H41_4 H 0.53824 0.209902 0.901749
H42_4 H 0.556738 0.275188 0.933638
loop_
_geom_bond_atom_site_label_1
_geom_bond_atom_site_label_2
_geom_bond_site_symmetry_1
_geom_bond_site_symmetry_2
C29 H33 1_555 1_555
C29 H34 1_555 1_555
C30 H41 1_555 1_555
C30 H42 1_555 1_555
Zn1 O1 1_555 1_555
Zn3 O11 1_555 1_555
O1 C7 1_555 1_555
O2 C7 1_555 1_555
O11 Zn1 1_555 1_555
C6 C1 1_555 1_555
H4 C6 1_555 1_555
C7 C1 1_555 1_555
N1 Zn3 1_555 1_555
O17 Zn1 1_555 1_555
O18 Zn2 1_555 1_555
O19 C58 1_555 1_555
O20 C58 1_555 1_555
O21 C48 1_555 1_555
C32 H17 1_555 1_555
C45 C46 1_555 1_555
C46 H25 1_555 1_555
C47 C46 1_555 1_555
H26 C47 1_555 1_555
C48 C47 1_555 1_555
C49 C48 1_555 1_555
H27 C49 1_555 1_555
C50 C45 1_555 1_555
H28 C50 1_555 1_555
C51 O17 1_555 1_555
C52 C53 1_555 1_555
C53 H29 1_555 1_555
C54 C53 1_555 1_555
H30 C54 1_555 1_555
C55 O21 1_555 1_555
C56 C55 1_555 1_555
H31 C56 1_555 1_555
C57 C52 1_555 1_555
H32 C57 1_555 1_555
C58 C52 1_555 1_555
Zn9 O19 1_555 1_555
Zn13 O20 1_555 1_555
O24 Zn3 1_555 1_555
O26 Zn1 1_555 1_555
O27 Zn2 1_555 1_555
O29 Zn3 1_555 1_555
Zn2 O11 1_555 1_555
O18 C51 1_555 1_555
C45 C51 1_555 1_555
C49 C50 1_555 1_555
C54 C55 1_555 1_555
C56 C57 1_555 1_555
N1 H39 1_555 1_555
O8 C28 1_555 1_555
O9 C28 1_555 1_555
O10 C18 1_555 1_555
H10 C17 1_555 1_555
C18 C17 1_555 1_555
C19 C18 1_555 1_555
H11 C19 1_555 1_555
H12 C20 1_555 1_555
C22 C23 1_555 1_555
C23 H13 1_555 1_555
C24 C23 1_555 1_555
H14 C24 1_555 1_555
C25 O10 1_555 1_555
C26 C25 1_555 1_555
H15 C26 1_555 1_555
C27 C22 1_555 1_555
H16 C27 1_555 1_555
C28 C22 1_555 1_555
Zn9_2 O8 1_555 1_555
Zn12 O9 1_555 1_555
C19 C20 1_555 1_555
C24 C25 1_555 1_555
C26 C27 1_555 1_555
Zn2_2 O7 1_555 1_555
O6 C21 1_555 1_555
O7 C21 1_555 1_555
C2 H1 1_555 1_555
C15 C16 1_555 1_555
C16 H9 1_555 1_555
C21 C15 1_555 1_555
Zn4 O6 1_555 1_555
Zn5 O22 1_555 1_555
O12 Zn4 1_555 1_555
O13 C37 1_555 1_555
O22 Zn2_2 1_555 1_555
C36 C31 1_555 1_555
H20 C36 1_555 1_555
C37 O12 1_555 1_555
C59 N2 1_555 1_555
C60 N2 1_555 1_555
N2 Zn5 1_555 1_555
O23 Zn5 1_555 1_555
O25 Zn4 1_555 1_555
O28 Zn2_2 1_555 1_555
O30 Zn5 1_555 1_555
Zn4 O22 1_555 1_555
C31 C37 1_555 1_555
C59 H36 1_555 1_555
C59 H37 1_555 1_555
C59 H38 1_555 1_555
N2 H43 1_555 1_555
C60 H45 1_555 1_555
C60 H46 1_555 1_555
O23 C14 1_555 1_555
O25 C14 1_555 1_555
O5 C4 1_555 1_555
H2 C3 1_555 1_555
C4 C3 1_555 1_555
C5 C4 1_555 1_555
H3 C5 1_555 1_555
C8 C9 1_555 1_555
C9 H5 1_555 1_555
C10 C9 1_555 1_555
H6 C10 1_555 1_555
C11 O5 1_555 1_555
C12 C11 1_555 1_555
H7 C12 1_555 1_555
C13 C8 1_555 1_555
H8 C13 1_555 1_555
C14 C8 1_555 1_555
O24 C44 1_555 1_555
O26 C44 1_555 1_555
O16 C34 1_555 1_555
H18 C33 1_555 1_555
C34 C33 1_555 1_555
C35 C34 1_555 1_555
H19 C35 1_555 1_555
C38 C39 1_555 1_555
C39 H21 1_555 1_555
C40 C39 1_555 1_555
H22 C40 1_555 1_555
C41 O16 1_555 1_555
C42 C41 1_555 1_555
H23 C42 1_555 1_555
C43 C38 1_555 1_555
H24 C43 1_555 1_555
C44 C38 1_555 1_555
C10 C11 1_555 1_555
C12 C13 1_555 1_555
C40 C41 1_555 1_555
C42 C43 1_555 1_555
Zn9 O7_2 1_555 1_555
O6_2 C21_2 1_555 1_555
O7_2 C21_2 1_555 1_555
C2_2 H1_2 1_555 1_555
C15_2 C16_2 1_555 1_555
C16_2 H9_2 1_555 1_555
C21_2 C15_2 1_555 1_555
Zn4_2 O6_2 1_555 1_555
Zn13 O22_2 1_555 1_555
O12_2 Zn4_2 1_555 1_555
O13_2 C37_2 1_555 1_555
O22_2 Zn9 1_555 1_555
C36_2 C31_2 1_555 1_555
H20_2 C36_2 1_555 1_555
C37_2 O12_2 1_555 1_555
C59_2 N2_2 1_555 1_555
C60_2 N2_2 1_555 1_555
N2_2 Zn13 1_555 1_555
O23_2 Zn13 1_555 1_555
O25_2 Zn4_2 1_555 1_555
Zn4_2 O22_2 1_555 1_555
C31_2 C37_2 1_555 1_555
C59_2 H36_2 1_555 1_555
C59_2 H37_2 1_555 1_555
C59_2 H38_2 1_555 1_555
N2_2 H43_2 1_555 1_555
C60_2 H45_2 1_555 1_555
C60_2 H46_2 1_555 1_555
O27 C28_2 1_555 1_555
O29 C28_2 1_555 1_555
O10_2 C18_2 1_555 1_555
H10_2 C17_2 1_555 1_555
C18_2 C17_2 1_555 1_555
C19_2 C18_2 1_555 1_555
H11_2 C19_2 1_555 1_555
H12_2 C20_2 1_555 1_555
C22_2 C23_2 1_555 1_555
C23_2 H13_2 1_555 1_555
C24_2 C23_2 1_555 1_555
H14_2 C24_2 1_555 1_555
C25_2 O10_2 1_555 1_555
C26_2 C25_2 1_555 1_555
H15_2 C26_2 1_555 1_555
C27_2 C22_2 1_555 1_555
H16_2 C27_2 1_555 1_555
C28_2 C22_2 1_555 1_555
C19_2 C20_2 1_555 1_555
C24_2 C25_2 1_555 1_555
C26_2 C27_2 1_555 1_555
Zn1_2 O1_2 1_555 1_555
Zn12 O11_2 1_555 1_555
O1_2 C7_2 1_555 1_555
O2_2 C7_2 1_555 1_555
O11_2 Zn1_2 1_555 1_555
C6_2 C1_2 1_555 1_555
H4_2 C6_2 1_555 1_555
C7_2 C1_2 1_555 1_555
N1_2 Zn12 1_555 1_555
O17_2 Zn1_2 1_555 1_555
O18_2 Zn9_2 1_555 1_555
O28 C58_2 1_555 1_555
O30 C58_2 1_555 1_555
O21_2 C48_2 1_555 1_555
C32_2 H17_2 1_555 1_555
C45_2 C46_2 1_555 1_555
C46_2 H25_2 1_555 1_555
C47_2 C46_2 1_555 1_555
H26_2 C47_2 1_555 1_555
C48_2 C47_2 1_555 1_555
C49_2 C48_2 1_555 1_555
H27_2 C49_2 1_555 1_555
C50_2 C45_2 1_555 1_555
H28_2 C50_2 1_555 1_555
C51_2 O17_2 1_555 1_555
C52_2 C53_2 1_555 1_555
C53_2 H29_2 1_555 1_555
C54_2 C53_2 1_555 1_555
H30_2 C54_2 1_555 1_555
C55_2 O21_2 1_555 1_555
C56_2 C55_2 1_555 1_555
H31_2 C56_2 1_555 1_555
C57_2 C52_2 1_555 1_555
H32_2 C57_2 1_555 1_555
C58_2 C52_2 1_555 1_555
O24_2 Zn12 1_555 1_555
O26_2 Zn1_2 1_555 1_555
Zn9_2 O11_2 1_555 1_555
O18_2 C51_2 1_555 1_555
C45_2 C51_2 1_555 1_555
C49_2 C50_2 1_555 1_555
C54_2 C55_2 1_555 1_555
C56_2 C57_2 1_555 1_555
N1_2 H39_2 1_555 1_555
C29_2 H33_2 1_555 1_555
C29_2 H34_2 1_555 1_555
C30_2 H41_2 1_555 1_555
C30_2 H42_2 1_555 1_555
O23_2 C14_2 1_555 1_555
O25_2 C14_2 1_555 1_555
O5_2 C4_2 1_555 1_555
H2_2 C3_2 1_555 1_555
C4_2 C3_2 1_555 1_555
C5_2 C4_2 1_555 1_555
H3_2 C5_2 1_555 1_555
C8_2 C9_2 1_555 1_555
C9_2 H5_2 1_555 1_555
C10_2 C9_2 1_555 1_555
H6_2 C10_2 1_555 1_555
C11_2 O5_2 1_555 1_555
C12_2 C11_2 1_555 1_555
H7_2 C12_2 1_555 1_555
C13_2 C8_2 1_555 1_555
H8_2 C13_2 1_555 1_555
C14_2 C8_2 1_555 1_555
O24_2 C44_2 1_555 1_555
O26_2 C44_2 1_555 1_555
O16_2 C34_2 1_555 1_555
H18_2 C33_2 1_555 1_555
C34_2 C33_2 1_555 1_555
C35_2 C34_2 1_555 1_555
H19_2 C35_2 1_555 1_555
C38_2 C39_2 1_555 1_555
C39_2 H21_2 1_555 1_555
C40_2 C39_2 1_555 1_555
H22_2 C40_2 1_555 1_555
C41_2 O16_2 1_555 1_555
C42_2 C41_2 1_555 1_555
H23_2 C42_2 1_555 1_555
C43_2 C38_2 1_555 1_555
H24_2 C43_2 1_555 1_555
C44_2 C38_2 1_555 1_555
C10_2 C11_2 1_555 1_555
C12_2 C13_2 1_555 1_555
C40_2 C41_2 1_555 1_555
C42_2 C43_2 1_555 1_555
C5_3 C4_3 1_555 1_555
H3_3 C5_3 1_555 1_555
O14 C44_3 1_555 1_555
O15 C44_3 1_555 1_555
H18_3 C33_3 1_555 1_555
C38_3 C39_3 1_555 1_555
C39_3 H21_3 1_555 1_555
C40_3 C39_3 1_555 1_555
H22_3 C40_3 1_555 1_555
C41_3 O16_3 1_555 1_555
C42_3 C41_3 1_555 1_555
H23_3 C42_3 1_555 1_555
C43_3 C38_3 1_555 1_555
H24_3 C43_3 1_555 1_555
C44_3 C38_3 1_555 1_555
Zn6 O15 1_555 1_555
Zn10 O14 1_555 1_555
C40_3 C41_3 1_555 1_555
C42_3 C43_3 1_555 1_555
O3 C14_3 1_555 1_555
O4 C14_3 1_555 1_555
H2_3 C3_3 1_555 1_555
C8_3 C9_3 1_555 1_555
C9_3 H5_3 1_555 1_555
C10_3 C9_3 1_555 1_555
H6_3 C10_3 1_555 1_555
C11_3 O5_3 1_555 1_555
C12_3 C11_3 1_555 1_555
H7_3 C12_3 1_555 1_555
C13_3 C8_3 1_555 1_555
H8_3 C13_3 1_555 1_555
C14_3 C8_3 1_555 1_555
C35_3 C34_3 1_555 1_555
H19_3 C35_3 1_555 1_555
Zn7 O4 1_555 1_555
Zn11 O3 1_555 1_555
C10_3 C11_3 1_555 1_555
C12_3 C13_3 1_555 1_555
O8_2 C28_3 1_555 1_555
O9_2 C28_3 1_555 1_555
O10_3 C18_3 1_555 1_555
H10_3 C17_3 1_555 1_555
C18_3 C17_3 1_555 1_555
C19_3 C18_3 1_555 1_555
H11_3 C19_3 1_555 1_555
H12_3 C20_3 1_555 1_555
C22_3 C23_3 1_555 1_555
C23_3 H13_3 1_555 1_555
C24_3 C23_3 1_555 1_555
H14_3 C24_3 1_555 1_555
C25_3 O10_3 1_555 1_555
C26_3 C25_3 1_555 1_555
H15_3 C26_3 1_555 1_555
C27_3 C22_3 1_555 1_555
H16_3 C27_3 1_555 1_555
C28_3 C22_3 1_555 1_555
Zn9_3 O8_2 1_555 1_555
Zn12_2 O9_2 1_555 1_555
C19_3 C20_3 1_555 1_555
C24_3 C25_3 1_555 1_555
C26_3 C27_3 1_555 1_555
C29_3 H33_3 1_555 1_555
C29_3 H34_3 1_555 1_555
C30_3 H40_3 1_555 1_555
C30_3 H41_3 1_555 1_555
C30_3 H42_3 1_555 1_555
Zn6 O1_3 1_555 1_555
Zn2_3 O7_3 1_555 1_555
Zn10 O11_3 1_555 1_555
O1_3 C7_3 1_555 1_555
O2_3 C7_3 1_555 1_555
O6_3 C21_3 1_555 1_555
O7_3 C21_3 1_555 1_555
O11_3 Zn6 1_555 1_555
C1_3 C2_3 1_555 1_555
C2_3 H1_3 1_555 1_555
C6_3 C1_3 1_555 1_555
H4_3 C6_3 1_555 1_555
C7_3 C1_3 1_555 1_555
C15_3 C16_3 1_555 1_555
C16_3 H9_3 1_555 1_555
C21_3 C15_3 1_555 1_555
N1_3 Zn10 1_555 1_555
Zn7 O6_3 1_555 1_555
Zn11 O22_3 1_555 1_555
O12_3 Zn7 1_555 1_555
O13_3 C37_3 1_555 1_555
O17_3 Zn6 1_555 1_555
O18_3 Zn2_3 1_555 1_555
O19_2 C58_3 1_555 1_555
O20_2 C58_3 1_555 1_555
O21_3 C48_3 1_555 1_555
O22_3 Zn2_3 1_555 1_555
C31_3 C32_3 1_555 1_555
C32_3 H17_3 1_555 1_555
C36_3 C31_3 1_555 1_555
H20_3 C36_3 1_555 1_555
C37_3 O12_3 1_555 1_555
C45_3 C46_3 1_555 1_555
C46_3 H25_3 1_555 1_555
C47_3 C46_3 1_555 1_555
H26_3 C47_3 1_555 1_555
C48_3 C47_3 1_555 1_555
C49_3 C48_3 1_555 1_555
H27_3 C49_3 1_555 1_555
C50_3 C45_3 1_555 1_555
H28_3 C50_3 1_555 1_555
C51_3 O17_3 1_555 1_555
C52_3 C53_3 1_555 1_555
C53_3 H29_3 1_555 1_555
C54_3 C53_3 1_555 1_555
H30_3 C54_3 1_555 1_555
C55_3 O21_3 1_555 1_555
C56_3 C55_3 1_555 1_555
H31_3 C56_3 1_555 1_555
C57_3 C52_3 1_555 1_555
H32_3 C57_3 1_555 1_555
C58_3 C52_3 1_555 1_555
C59_3 N2_3 1_555 1_555
C60_3 N2_3 1_555 1_555
N2_3 Zn11 1_555 1_555
Zn9_3 O19_2 1_555 1_555
Zn13_2 O20_2 1_555 1_555
O27_2 Zn2_3 1_555 1_555
O28_2 Zn2_3 1_555 1_555
O29_2 Zn10 1_555 1_555
O30_2 Zn11 1_555 1_555
Zn2_3 O11_3 1_555 1_555
Zn7 O22_3 1_555 1_555
O18_3 C51_3 1_555 1_555
C31_3 C37_3 1_555 1_555
C45_3 C51_3 1_555 1_555
C49_3 C50_3 1_555 1_555
C54_3 C55_3 1_555 1_555
C56_3 C57_3 1_555 1_555
C59_3 H36_3 1_555 1_555
C59_3 H37_3 1_555 1_555
C59_3 H38_3 1_555 1_555
N1_3 H39_3 1_555 1_555
N2_3 H43_3 1_555 1_555
C60_3 H44_3 1_555 1_555
C60_3 H45_3 1_555 1_555
C60_3 H46_3 1_555 1_555
O3_2 C14_4 1_555 1_555
O4_2 C14_4 1_555 1_555
H2_4 C3_4 1_555 1_555
C8_4 C9_4 1_555 1_555
C9_4 H5_4 1_555 1_555
C10_4 C9_4 1_555 1_555
H6_4 C10_4 1_555 1_555
C11_4 O5_4 1_555 1_555
C12_4 C11_4 1_555 1_555
H7_4 C12_4 1_555 1_555
C13_4 C8_4 1_555 1_555
H8_4 C13_4 1_555 1_555
C14_4 C8_4 1_555 1_555
C35_4 C34_4 1_555 1_555
H19_4 C35_4 1_555 1_555
Zn7_2 O4_2 1_555 1_555
Zn13_2 O3_2 1_555 1_555
C10_4 C11_4 1_555 1_555
C12_4 C13_4 1_555 1_555
C5_4 C4_4 1_555 1_555
H3_4 C5_4 1_555 1_555
O14_2 C44_4 1_555 1_555
O15_2 C44_4 1_555 1_555
H18_4 C33_4 1_555 1_555
C38_4 C39_4 1_555 1_555
C39_4 H21_4 1_555 1_555
C40_4 C39_4 1_555 1_555
H22_4 C40_4 1_555 1_555
C41_4 O16_4 1_555 1_555
C42_4 C41_4 1_555 1_555
H23_4 C42_4 1_555 1_555
C43_4 C38_4 1_555 1_555
H24_4 C43_4 1_555 1_555
C44_4 C38_4 1_555 1_555
Zn6_2 O15_2 1_555 1_555
Zn12_2 O14_2 1_555 1_555
C40_4 C41_4 1_555 1_555
C42_4 C43_4 1_555 1_555
Zn6_2 O1_4 1_555 1_555
Zn9_3 O7_4 1_555 1_555
Zn12_2 O11_4 1_555 1_555
O1_4 C7_4 1_555 1_555
O2_4 C7_4 1_555 1_555
O6_4 C21_4 1_555 1_555
O7_4 C21_4 1_555 1_555
O11_4 Zn6_2 1_555 1_555
C1_4 C2_4 1_555 1_555
C2_4 H1_4 1_555 1_555
C6_4 C1_4 1_555 1_555
H4_4 C6_4 1_555 1_555
C7_4 C1_4 1_555 1_555
C15_4 C16_4 1_555 1_555
C16_4 H9_4 1_555 1_555
C21_4 C15_4 1_555 1_555
N1_4 Zn12_2 1_555 1_555
Zn7_2 O6_4 1_555 1_555
Zn13_2 O22_4 1_555 1_555
O12_4 Zn7_2 1_555 1_555
O13_4 C37_4 1_555 1_555
O17_4 Zn6_2 1_555 1_555
O18_4 Zn9_3 1_555 1_555
O28_2 C58_4 1_555 1_555
O30_2 C58_4 1_555 1_555
O21_4 C48_4 1_555 1_555
O22_4 Zn9_3 1_555 1_555
C31_4 C32_4 1_555 1_555
C32_4 H17_4 1_555 1_555
C36_4 C31_4 1_555 1_555
H20_4 C36_4 1_555 1_555
C37_4 O12_4 1_555 1_555
C45_4 C46_4 1_555 1_555
C46_4 H25_4 1_555 1_555
C47_4 C46_4 1_555 1_555
H26_4 C47_4 1_555 1_555
C48_4 C47_4 1_555 1_555
C49_4 C48_4 1_555 1_555
H27_4 C49_4 1_555 1_555
C50_4 C45_4 1_555 1_555
H28_4 C50_4 1_555 1_555
C51_4 O17_4 1_555 1_555
C52_4 C53_4 1_555 1_555
C53_4 H29_4 1_555 1_555
C54_4 C53_4 1_555 1_555
H30_4 C54_4 1_555 1_555
C55_4 O21_4 1_555 1_555
C56_4 C55_4 1_555 1_555
H31_4 C56_4 1_555 1_555
C57_4 C52_4 1_555 1_555
H32_4 C57_4 1_555 1_555
C58_4 C52_4 1_555 1_555
C59_4 N2_4 1_555 1_555
C60_4 N2_4 1_555 1_555
N2_4 Zn13_2 1_555 1_555
Zn9_3 O11_4 1_555 1_555
Zn7_2 O22_4 1_555 1_555
O18_4 C51_4 1_555 1_555
C31_4 C37_4 1_555 1_555
C45_4 C51_4 1_555 1_555
C49_4 C50_4 1_555 1_555
C54_4 C55_4 1_555 1_555
C56_4 C57_4 1_555 1_555
C59_4 H36_4 1_555 1_555
C59_4 H37_4 1_555 1_555
C59_4 H38_4 1_555 1_555
N1_4 H39_4 1_555 1_555
N2_4 H43_4 1_555 1_555
C60_4 H44_4 1_555 1_555
C60_4 H45_4 1_555 1_555
C60_4 H46_4 1_555 1_555
O27_2 C28_4 1_555 1_555
O29_2 C28_4 1_555 1_555
O10_4 C18_4 1_555 1_555
H10_4 C17_4 1_555 1_555
C18_4 C17_4 1_555 1_555
C19_4 C18_4 1_555 1_555
H11_4 C19_4 1_555 1_555
H12_4 C20_4 1_555 1_555
C22_4 C23_4 1_555 1_555
C23_4 H13_4 1_555 1_555
C24_4 C23_4 1_555 1_555
H14_4 C24_4 1_555 1_555
C25_4 O10_4 1_555 1_555
C26_4 C25_4 1_555 1_555
H15_4 C26_4 1_555 1_555
C27_4 C22_4 1_555 1_555
H16_4 C27_4 1_555 1_555
C28_4 C22_4 1_555 1_555
C19_4 C20_4 1_555 1_555
C24_4 C25_4 1_555 1_555
C26_4 C27_4 1_555 1_555
C29_4 H33_4 1_555 1_555
C29_4 H34_4 1_555 1_555
C30_4 H40_4 1_555 1_555
C30_4 H41_4 1_555 1_555
C30_4 H42_4 1_555 1_555

#END
