
###############################################################################
#
# This file contains modified crystal structure data generated from the
# MOF subset of the Cambridge Structural Database (CSD) v543 
# hosted by the Cambridge Crystallographic Data Centre (CCDC).
#
# This work is licensed under the Creative Commons
# Attribution-NonCommercial-ShareAlike 4.0 International License.
# To view a copy of this license, visit
# http://creativecommons.org/licenses/by-nc-sa/4.0/
# or send a letter to
# Creative Commons, PO Box 1866, Mountain View, CA 94042, USA.
#
# CIF created using the CSD Python API on 29 September 2022
# The structure has been converted into the P1 space group
# The structure has a 3D framework
# The original CSD entry PONRES is in the tetragonal crystal system
# The framework has been calculated to contain at least 10.0% void space
# The void calculation uses a probe of radius 1.32A, grid spacing 0.4
# H atom positions have been added when not included in the experimental data
# Generated hydrogen atom positions removed from atoms on special positions
#
###############################################################################

data_PONRES
_chemical_formula_moiety         '(C160 H224 N8 O88 S8 Zr20)n'
_symmetry_cell_setting           triclinic
_symmetry_space_group_name_H-M   'P 1'
_symmetry_Int_Tables_number      1
_space_group_name_Hall           'P 1'
loop_
_symmetry_equiv_pos_site_id
_symmetry_equiv_pos_as_xyz
1 x,y,z
_cell_length_a                   28.154(4)
_cell_length_b                   28.154(4)
_cell_length_c                   15.455(3)
_cell_angle_alpha                90
_cell_angle_beta                 90
_cell_angle_gamma                90
_cell_volume                     12250.4
loop_
_atom_site_label
_atom_site_type_symbol
_atom_site_fract_x
_atom_site_fract_y
_atom_site_fract_z
Zr2 Zr 0.0000 0.56190(11) 0.61434(19)
O4 O 0.0000 0.6432(6) 0.6096(9)
O5 O 0.0000 0.5600(5) 0.7574(11)
Zr3 Zr 0.0000 0.43810(11) 0.61434(19)
O15 O 0.0391(7) 0.4382(7) 0.5000
O16 O 0.0000 0.3568(6) 0.6096(9)
O17 O 0.0000 0.4400(5) 0.7574(11)
O18 O 0.0402(6) 0.5000 0.6142(10)
Zr5 Zr 0.08630(15) 0.5000 0.5000
Zr10 Zr 0.0000 0.56190(11) 0.38566(19)
Zr11 Zr 0.0000 0.43810(11) 0.38566(19)
O19 O 0.0708(4) 0.4144(5) 0.6560(8)
O21 O 0.0708(4) 0.5856(5) 0.6560(8)
O26 O 0.0391(7) 0.5618(7) 0.5000
Zr1 Zr 0.91370(15) 0.5000 0.5000
Zr2_2 Zr 1.0000 0.56190(11) 0.61434(19)
S1 S 0.6422(5) 0.3578(5) 0.0000
O1 O 0.9292(4) 0.4144(5) 0.3440(8)
O2 O 0.8768(5) 0.4556(4) 0.4165(8)
O3 O 0.9609(7) 0.5618(7) 0.5000
O4_2 O 1.0000 0.6432(6) 0.6096(9)
O5_2 O 1.0000 0.5600(5) 0.7574(11)
O6 O 0.9598(6) 0.5000 0.6142(10)
O7 O 0.5948(9) 0.3489(10) 0.0000
N1 N 0.7357(5) 0.2643(5) 0.2980(11)
C1 C 0.7122(4) 0.2878(4) 0.2278(9)
C2 C 0.7096(3) 0.3521(3) 0.1208(7)
H1 H 0.7229 0.3802 0.0969
C3 C 0.7315(3) 0.3298(3) 0.1922(8)
C4 C 0.7714(4) 0.3522(4) 0.2327(8)
C5 C 0.6675(4) 0.3325(4) 0.0846(10)
C6 C 0.8007(4) 0.4162(5) 0.3270(9)
H2 H 0.7954 0.4432 0.3624
C7 C 0.8856(4) 0.4224(5) 0.3604(9)
C8 C 0.8570(4) 0.3588(6) 0.2627(11)
H3 H 0.8887 0.3483 0.2545
C9 C 0.7621(4) 0.3931(5) 0.2843(9)
H4 H 0.7307 0.4048 0.2903
C10 C 0.8175(4) 0.3345(5) 0.2208(11)
H5 H 0.8229 0.3072 0.1861
C11 C 0.8468(4) 0.3977(5) 0.3153(8)
O10 O 0.6511(10) 0.4052(9) 0.0000
O13 O 0.5856(5) 0.0708(4) 0.3440(8)
O14 O 0.5444(4) 0.1232(5) 0.4165(8)
C32 C 0.6479(3) 0.2904(3) 0.1208(7)
H16 H 0.6198 0.2771 0.0969
C33 C 0.6702(3) 0.2685(3) 0.1922(8)
C34 C 0.6478(4) 0.2286(4) 0.2327(8)
C35 C 0.5838(5) 0.1993(4) 0.3270(9)
H17 H 0.5568 0.2046 0.3624
C36 C 0.5776(5) 0.1144(4) 0.3604(9)
C37 C 0.6412(6) 0.1430(4) 0.2627(11)
H18 H 0.6517 0.1113 0.2545
C38 C 0.6069(5) 0.2379(4) 0.2843(9)
H19 H 0.5952 0.2693 0.2903
C39 C 0.6655(5) 0.1825(4) 0.2208(11)
H20 H 0.6928 0.1771 0.1861
C40 C 0.6023(5) 0.1532(4) 0.3153(8)
Zr3_2 Zr 1.0000 0.43810(11) 0.61434(19)
O16_2 O 1.0000 0.3568(6) 0.6096(9)
O17_2 O 1.0000 0.4400(5) 0.7574(11)
Zr7 Zr 0.5000 0.08630(15) 0.5000
Zr10_2 Zr 1.0000 0.56190(11) 0.38566(19)
Zr11_2 Zr 1.0000 0.43810(11) 0.38566(19)
Zr12 Zr 0.56190(11) 0.0000 0.38566(19)
O20 O 0.9292(4) 0.5856(5) 0.6560(8)
O22 O 0.9292(4) 0.4144(5) 0.6560(8)
O23 O 0.8768(5) 0.5444(4) 0.5835(8)
O24 O 0.8768(5) 0.4556(4) 0.5835(8)
O25 O 0.8768(5) 0.5444(4) 0.4165(8)
O27 O 0.9609(7) 0.4382(7) 0.5000
O28 O 0.9598(6) 0.5000 0.3858(10)
H25 H 0.721715 0.234135 0.323388
H26 H 0.766334 0.277816 0.322346
S1_2 S 0.6422(5) 0.3578(5) 1.0000
O7_2 O 0.5948(9) 0.3489(10) 1.0000
O8 O 0.5856(5) 0.0708(4) 0.6560(8)
O9 O 0.5444(4) 0.1232(5) 0.5835(8)
O10_2 O 0.6511(10) 0.4052(9) 1.0000
N2 N 0.7357(5) 0.2643(5) 0.7020(11)
C12 C 0.7122(4) 0.2878(4) 0.7722(9)
C13 C 0.6479(3) 0.2904(3) 0.8792(7)
H6 H 0.6198 0.2771 0.9031
C14 C 0.6702(3) 0.2685(3) 0.8078(8)
C15 C 0.6478(4) 0.2286(4) 0.7673(8)
C16 C 0.6675(4) 0.3325(4) 0.9154(10)
C17 C 0.5838(5) 0.1993(4) 0.6730(9)
H7 H 0.5568 0.2046 0.6376
C18 C 0.5776(5) 0.1144(4) 0.6396(9)
C19 C 0.6412(6) 0.1430(4) 0.7373(11)
H8 H 0.6517 0.1113 0.7455
C20 C 0.6069(5) 0.2379(4) 0.7157(9)
H9 H 0.5952 0.2693 0.7097
C21 C 0.6655(5) 0.1825(4) 0.7792(11)
H10 H 0.6928 0.1771 0.8139
C22 C 0.6023(5) 0.1532(4) 0.6847(8)
C23 C 0.7096(3) 0.3521(3) 0.8792(7)
H11 H 0.7229 0.3802 0.9031
C24 C 0.7315(3) 0.3298(3) 0.8078(8)
C25 C 0.7714(4) 0.3522(4) 0.7673(8)
C26 C 0.8007(4) 0.4162(5) 0.6730(9)
H12 H 0.7954 0.4432 0.6376
C27 C 0.8856(4) 0.4224(5) 0.6396(9)
C28 C 0.8570(4) 0.3588(6) 0.7373(11)
H13 H 0.8887 0.3483 0.7455
C29 C 0.7621(4) 0.3931(5) 0.7157(9)
H14 H 0.7307 0.4048 0.7097
C30 C 0.8175(4) 0.3345(5) 0.7792(11)
H15 H 0.8229 0.3072 0.8139
C31 C 0.8468(4) 0.3977(5) 0.6847(8)
Zr9 Zr 0.56190(11) 0.0000 0.61434(19)
H27 H 0.765865 0.278285 0.676612
H28 H 0.722184 0.233666 0.677654
Zr12_2 Zr 0.56190(11) 1.0000 0.38566(19)
Zr9_2 Zr 0.56190(11) 1.0000 0.61434(19)
Zr12_3 Zr 0.43810(11) 0.0000 0.38566(19)
Zr9_3 Zr 0.43810(11) 0.0000 0.61434(19)
S1_3 S 0.3578(5) 0.6422(5) 0.0000
O1_2 O 0.0708(4) 0.5856(5) 0.3440(8)
O2_2 O 0.1232(5) 0.5444(4) 0.4165(8)
O7_3 O 0.4052(9) 0.6511(10) 0.0000
N1_2 N 0.2643(5) 0.7357(5) 0.2980(11)
C1_2 C 0.2878(4) 0.7122(4) 0.2278(9)
C2_2 C 0.2904(3) 0.6479(3) 0.1208(7)
H1_2 H 0.2771 0.6198 0.0969
C3_2 C 0.2685(3) 0.6702(3) 0.1922(8)
C4_2 C 0.2286(4) 0.6478(4) 0.2327(8)
C5_2 C 0.3325(4) 0.6675(4) 0.0846(10)
C6_2 C 0.1993(4) 0.5838(5) 0.3270(9)
H2_2 H 0.2046 0.5568 0.3624
C7_2 C 0.1144(4) 0.5776(5) 0.3604(9)
C8_2 C 0.1430(4) 0.6412(6) 0.2627(11)
H3_2 H 0.1113 0.6517 0.2545
C9_2 C 0.2379(4) 0.6069(5) 0.2843(9)
H4_2 H 0.2693 0.5952 0.2903
C10_2 C 0.1825(4) 0.6655(5) 0.2208(11)
H5_2 H 0.1771 0.6928 0.1861
C11_2 C 0.1532(4) 0.6023(5) 0.3153(8)
O10_3 O 0.3489(10) 0.5948(9) 0.0000
O13_2 O 0.4144(5) 0.9292(4) 0.3440(8)
O14_2 O 0.4556(4) 0.8768(5) 0.4165(8)
C32_2 C 0.3521(3) 0.7096(3) 0.1208(7)
H16_2 H 0.3802 0.7229 0.0969
C33_2 C 0.3298(3) 0.7315(3) 0.1922(8)
C34_2 C 0.3522(4) 0.7714(4) 0.2327(8)
C35_2 C 0.4162(5) 0.8007(4) 0.3270(9)
H17_2 H 0.4432 0.7954 0.3624
C36_2 C 0.4224(5) 0.8856(4) 0.3604(9)
C37_2 C 0.3588(6) 0.8570(4) 0.2627(11)
H18_2 H 0.3483 0.8887 0.2545
C38_2 C 0.3931(5) 0.7621(4) 0.2843(9)
H19_2 H 0.4048 0.7307 0.2903
C39_2 C 0.3345(5) 0.8175(4) 0.2208(11)
H20_2 H 0.3072 0.8229 0.1861
C40_2 C 0.3977(5) 0.8468(4) 0.3153(8)
Zr7_2 Zr 0.5000 0.91370(15) 0.5000
Zr12_4 Zr 0.43810(11) 1.0000 0.38566(19)
O23_2 O 0.1232(5) 0.4556(4) 0.5835(8)
O24_2 O 0.1232(5) 0.5444(4) 0.5835(8)
O25_2 O 0.1232(5) 0.4556(4) 0.4165(8)
O28_2 O 0.0402(6) 0.5000 0.3858(10)
H25_2 H 0.278285 0.765865 0.323388
H26_2 H 0.233666 0.722184 0.322346
S1_4 S 0.3578(5) 0.6422(5) 1.0000
O7_4 O 0.4052(9) 0.6511(10) 1.0000
O8_2 O 0.4144(5) 0.9292(4) 0.6560(8)
O9_2 O 0.4556(4) 0.8768(5) 0.5835(8)
O10_4 O 0.3489(10) 0.5948(9) 1.0000
N2_2 N 0.2643(5) 0.7357(5) 0.7020(11)
C12_2 C 0.2878(4) 0.7122(4) 0.7722(9)
C13_2 C 0.3521(3) 0.7096(3) 0.8792(7)
H6_2 H 0.3802 0.7229 0.9031
C14_2 C 0.3298(3) 0.7315(3) 0.8078(8)
C15_2 C 0.3522(4) 0.7714(4) 0.7673(8)
C16_2 C 0.3325(4) 0.6675(4) 0.9154(10)
C17_2 C 0.4162(5) 0.8007(4) 0.6730(9)
H7_2 H 0.4432 0.7954 0.6376
C18_2 C 0.4224(5) 0.8856(4) 0.6396(9)
C19_2 C 0.3588(6) 0.8570(4) 0.7373(11)
H8_2 H 0.3483 0.8887 0.7455
C20_2 C 0.3931(5) 0.7621(4) 0.7157(9)
H9_2 H 0.4048 0.7307 0.7097
C21_2 C 0.3345(5) 0.8175(4) 0.7792(11)
H10_2 H 0.3072 0.8229 0.8139
C22_2 C 0.3977(5) 0.8468(4) 0.6847(8)
C23_2 C 0.2904(3) 0.6479(3) 0.8792(7)
H11_2 H 0.2771 0.6198 0.9031
C24_2 C 0.2685(3) 0.6702(3) 0.8078(8)
C25_2 C 0.2286(4) 0.6478(4) 0.7673(8)
C26_2 C 0.1993(4) 0.5838(5) 0.6730(9)
H12_2 H 0.2046 0.5568 0.6376
C27_2 C 0.1144(4) 0.5776(5) 0.6396(9)
C28_2 C 0.1430(4) 0.6412(6) 0.7373(11)
H13_2 H 0.1113 0.6517 0.7455
C29_2 C 0.2379(4) 0.6069(5) 0.7157(9)
H14_2 H 0.2693 0.5952 0.7097
C30_2 C 0.1825(4) 0.6655(5) 0.7792(11)
H15_2 H 0.1771 0.6928 0.8139
C31_2 C 0.1532(4) 0.6023(5) 0.6847(8)
Zr9_4 Zr 0.43810(11) 1.0000 0.61434(19)
H27_2 H 0.234135 0.721715 0.676612
H28_2 H 0.277816 0.766334 0.677654
O4_3 O 0.3568(6) 0.0000 0.6096(9)
O5_3 O 0.4400(5) 0.0000 0.7574(11)
O15_2 O 0.5618(7) 0.0391(7) 0.5000
O16_3 O 0.6432(6) 0.0000 0.6096(9)
O17_3 O 0.5600(5) 0.0000 0.7574(11)
O18_2 O 0.5000 0.0402(6) 0.6142(10)
O21_2 O 0.4144(5) 0.0708(4) 0.6560(8)
O26_2 O 0.4382(7) 0.0391(7) 0.5000
S1_5 S 0.6422(5) 0.6422(5) 0.0000
O1_3 O 0.5856(5) 0.9292(4) 0.3440(8)
O2_3 O 0.5444(4) 0.8768(5) 0.4165(8)
O3_2 O 0.4382(7) 0.9609(7) 0.5000
O4_4 O 0.3568(6) 1.0000 0.6096(9)
O5_4 O 0.4400(5) 1.0000 0.7574(11)
O6_2 O 0.5000 0.9598(6) 0.6142(10)
O7_5 O 0.6511(10) 0.5948(9) 0.0000
N1_3 N 0.7357(5) 0.7357(5) 0.2980(11)
C1_3 C 0.7122(4) 0.7122(4) 0.2278(9)
C2_3 C 0.6479(3) 0.7096(3) 0.1208(7)
H1_3 H 0.6198 0.7229 0.0969
C3_3 C 0.6702(3) 0.7315(3) 0.1922(8)
C4_3 C 0.6478(4) 0.7714(4) 0.2327(8)
C5_3 C 0.6675(4) 0.6675(4) 0.0846(10)
C6_3 C 0.5838(5) 0.8007(4) 0.3270(9)
H2_3 H 0.5568 0.7954 0.3624
C7_3 C 0.5776(5) 0.8856(4) 0.3604(9)
C8_3 C 0.6412(6) 0.8570(4) 0.2627(11)
H3_3 H 0.6517 0.8887 0.2545
C9_3 C 0.6069(5) 0.7621(4) 0.2843(9)
H4_3 H 0.5952 0.7307 0.2903
C10_3 C 0.6655(5) 0.8175(4) 0.2208(11)
H5_3 H 0.6928 0.8229 0.1861
C11_3 C 0.6023(5) 0.8468(4) 0.3153(8)
O10_5 O 0.5948(9) 0.6511(10) 0.0000
O13_3 O 0.9292(4) 0.5856(5) 0.3440(8)
C32_3 C 0.7096(3) 0.6479(3) 0.1208(7)
H16_3 H 0.7229 0.6198 0.0969
C33_3 C 0.7315(3) 0.6702(3) 0.1922(8)
C34_3 C 0.7714(4) 0.6478(4) 0.2327(8)
C35_3 C 0.8007(4) 0.5838(5) 0.3270(9)
H17_3 H 0.7954 0.5568 0.3624
C36_3 C 0.8856(4) 0.5776(5) 0.3604(9)
C37_3 C 0.8570(4) 0.6412(6) 0.2627(11)
H18_3 H 0.8887 0.6517 0.2545
C38_3 C 0.7621(4) 0.6069(5) 0.2843(9)
H19_3 H 0.7307 0.5952 0.2903
C39_3 C 0.8175(4) 0.6655(5) 0.2208(11)
H20_3 H 0.8229 0.6928 0.1861
C40_3 C 0.8468(4) 0.6023(5) 0.3153(8)
O16_4 O 0.6432(6) 1.0000 0.6096(9)
O17_4 O 0.5600(5) 1.0000 0.7574(11)
O22_2 O 0.5856(5) 0.9292(4) 0.6560(8)
O24_3 O 0.5444(4) 0.8768(5) 0.5835(8)
O27_2 O 0.5618(7) 0.9609(7) 0.5000
O28_3 O 0.5000 0.9598(6) 0.3858(10)
H25_3 H 0.765865 0.721715 0.323388
H26_3 H 0.722184 0.766334 0.322346
S1_6 S 0.6422(5) 0.6422(5) 1.0000
O7_6 O 0.6511(10) 0.5948(9) 1.0000
O10_6 O 0.5948(9) 0.6511(10) 1.0000
N2_3 N 0.7357(5) 0.7357(5) 0.7020(11)
C12_3 C 0.7122(4) 0.7122(4) 0.7722(9)
C13_3 C 0.7096(3) 0.6479(3) 0.8792(7)
H6_3 H 0.7229 0.6198 0.9031
C14_3 C 0.7315(3) 0.6702(3) 0.8078(8)
C15_3 C 0.7714(4) 0.6478(4) 0.7673(8)
C16_3 C 0.6675(4) 0.6675(4) 0.9154(10)
C17_3 C 0.8007(4) 0.5838(5) 0.6730(9)
H7_3 H 0.7954 0.5568 0.6376
C18_3 C 0.8856(4) 0.5776(5) 0.6396(9)
C19_3 C 0.8570(4) 0.6412(6) 0.7373(11)
H8_3 H 0.8887 0.6517 0.7455
C20_3 C 0.7621(4) 0.6069(5) 0.7157(9)
H9_3 H 0.7307 0.5952 0.7097
C21_3 C 0.8175(4) 0.6655(5) 0.7792(11)
H10_3 H 0.8229 0.6928 0.8139
C22_3 C 0.8468(4) 0.6023(5) 0.6847(8)
C23_3 C 0.6479(3) 0.7096(3) 0.8792(7)
H11_3 H 0.6198 0.7229 0.9031
C24_3 C 0.6702(3) 0.7315(3) 0.8078(8)
C25_3 C 0.6478(4) 0.7714(4) 0.7673(8)
C26_3 C 0.5838(5) 0.8007(4) 0.6730(9)
H12_3 H 0.5568 0.7954 0.6376
C27_3 C 0.5776(5) 0.8856(4) 0.6396(9)
C28_3 C 0.6412(6) 0.8570(4) 0.7373(11)
H13_3 H 0.6517 0.8887 0.7455
C29_3 C 0.6069(5) 0.7621(4) 0.7157(9)
H14_3 H 0.5952 0.7307 0.7097
C30_3 C 0.6655(5) 0.8175(4) 0.7792(11)
H15_3 H 0.6928 0.8229 0.8139
C31_3 C 0.6023(5) 0.8468(4) 0.6847(8)
H27_3 H 0.721715 0.765865 0.676612
H28_3 H 0.766334 0.722184 0.677654
S1_7 S 0.3578(5) 0.3578(5) 0.0000
O1_4 O 0.4144(5) 0.0708(4) 0.3440(8)
O2_4 O 0.4556(4) 0.1232(5) 0.4165(8)
O7_7 O 0.3489(10) 0.4052(9) 0.0000
N1_4 N 0.2643(5) 0.2643(5) 0.2980(11)
C1_4 C 0.2878(4) 0.2878(4) 0.2278(9)
C2_4 C 0.3521(3) 0.2904(3) 0.1208(7)
H1_4 H 0.3802 0.2771 0.0969
C3_4 C 0.3298(3) 0.2685(3) 0.1922(8)
C4_4 C 0.3522(4) 0.2286(4) 0.2327(8)
C5_4 C 0.3325(4) 0.3325(4) 0.0846(10)
C6_4 C 0.4162(5) 0.1993(4) 0.3270(9)
H2_4 H 0.4432 0.2046 0.3624
C7_4 C 0.4224(5) 0.1144(4) 0.3604(9)
C8_4 C 0.3588(6) 0.1430(4) 0.2627(11)
H3_4 H 0.3483 0.1113 0.2545
C9_4 C 0.3931(5) 0.2379(4) 0.2843(9)
H4_4 H 0.4048 0.2693 0.2903
C10_4 C 0.3345(5) 0.1825(4) 0.2208(11)
H5_4 H 0.3072 0.1771 0.1861
C11_4 C 0.3977(5) 0.1532(4) 0.3153(8)
O10_7 O 0.4052(9) 0.3489(10) 0.0000
O13_4 O 0.0708(4) 0.4144(5) 0.3440(8)
C32_4 C 0.2904(3) 0.3521(3) 0.1208(7)
H16_4 H 0.2771 0.3802 0.0969
C33_4 C 0.2685(3) 0.3298(3) 0.1922(8)
C34_4 C 0.2286(4) 0.3522(4) 0.2327(8)
C35_4 C 0.1993(4) 0.4162(5) 0.3270(9)
H17_4 H 0.2046 0.4432 0.3624
C36_4 C 0.1144(4) 0.4224(5) 0.3604(9)
C37_4 C 0.1430(4) 0.3588(6) 0.2627(11)
H18_4 H 0.1113 0.3483 0.2545
C38_4 C 0.2379(4) 0.3931(5) 0.2843(9)
H19_4 H 0.2693 0.4048 0.2903
C39_4 C 0.1825(4) 0.3345(5) 0.2208(11)
H20_4 H 0.1771 0.3072 0.1861
C40_4 C 0.1532(4) 0.3977(5) 0.3153(8)
O24_4 O 0.4556(4) 0.1232(5) 0.5835(8)
O28_4 O 0.5000 0.0402(6) 0.3858(10)
H25_4 H 0.234135 0.278285 0.323388
H26_4 H 0.277816 0.233666 0.322346
S1_8 S 0.3578(5) 0.3578(5) 1.0000
O7_8 O 0.3489(10) 0.4052(9) 1.0000
O10_8 O 0.4052(9) 0.3489(10) 1.0000
N2_4 N 0.2643(5) 0.2643(5) 0.7020(11)
C12_4 C 0.2878(4) 0.2878(4) 0.7722(9)
C13_4 C 0.2904(3) 0.3521(3) 0.8792(7)
H6_4 H 0.2771 0.3802 0.9031
C14_4 C 0.2685(3) 0.3298(3) 0.8078(8)
C15_4 C 0.2286(4) 0.3522(4) 0.7673(8)
C16_4 C 0.3325(4) 0.3325(4) 0.9154(10)
C17_4 C 0.1993(4) 0.4162(5) 0.6730(9)
H7_4 H 0.2046 0.4432 0.6376
C18_4 C 0.1144(4) 0.4224(5) 0.6396(9)
C19_4 C 0.1430(4) 0.3588(6) 0.7373(11)
H8_4 H 0.1113 0.3483 0.7455
C20_4 C 0.2379(4) 0.3931(5) 0.7157(9)
H9_4 H 0.2693 0.4048 0.7097
C21_4 C 0.1825(4) 0.3345(5) 0.7792(11)
H10_4 H 0.1771 0.3072 0.8139
C22_4 C 0.1532(4) 0.3977(5) 0.6847(8)
C23_4 C 0.3521(3) 0.2904(3) 0.8792(7)
H11_4 H 0.3802 0.2771 0.9031
C24_4 C 0.3298(3) 0.2685(3) 0.8078(8)
C25_4 C 0.3522(4) 0.2286(4) 0.7673(8)
C26_4 C 0.4162(5) 0.1993(4) 0.6730(9)
H12_4 H 0.4432 0.2046 0.6376
C27_4 C 0.4224(5) 0.1144(4) 0.6396(9)
C28_4 C 0.3588(6) 0.1430(4) 0.7373(11)
H13_4 H 0.3483 0.1113 0.7455
C29_4 C 0.3931(5) 0.2379(4) 0.7157(9)
H14_4 H 0.4048 0.2693 0.7097
C30_4 C 0.3345(5) 0.1825(4) 0.7792(11)
H15_4 H 0.3072 0.1771 0.8139
C31_4 C 0.3977(5) 0.1532(4) 0.6847(8)
H27_4 H 0.278285 0.234135 0.676612
H28_4 H 0.233666 0.277816 0.677654
O4_5 O -0.0000 0.6432(6) 0.3904(9)
O5_5 O -0.0000 0.5600(5) 0.2426(11)
O16_5 O -0.0000 0.3568(6) 0.3904(9)
O17_5 O -0.0000 0.4400(5) 0.2426(11)
O4_6 O 1.0000 0.6432(6) 0.3904(9)
O5_6 O 1.0000 0.5600(5) 0.2426(11)
O16_6 O 1.0000 0.3568(6) 0.3904(9)
O17_6 O 1.0000 0.4400(5) 0.2426(11)
O4_7 O 0.6432(6) 0.0000 0.3904(9)
O5_7 O 0.5600(5) 0.0000 0.2426(11)
O16_7 O 0.3568(6) 0.0000 0.3904(9)
O17_7 O 0.4400(5) 0.0000 0.2426(11)
O4_8 O 0.6432(6) 1.0000 0.3904(9)
O5_8 O 0.5600(5) 1.0000 0.2426(11)
O16_8 O 0.3568(6) 1.0000 0.3904(9)
O17_8 O 0.4400(5) 1.0000 0.2426(11)
H27_5 H 0.234135 0.721715 0.323388
H28_5 H 0.277816 0.766334 0.322346
H25_5 H 0.278285 0.765865 0.676612
H26_5 H 0.233666 0.722184 0.677654
H27_6 H 0.765865 0.278285 0.323388
H28_6 H 0.722184 0.233666 0.322346
H25_6 H 0.721715 0.234135 0.676612
H26_6 H 0.766334 0.277816 0.677654
H27_7 H 0.278285 0.234135 0.323388
H28_7 H 0.233666 0.277816 0.322346
H25_7 H 0.234135 0.278285 0.676612
H26_7 H 0.277816 0.233666 0.677654
H27_8 H 0.721715 0.765865 0.323388
H28_8 H 0.766334 0.722184 0.322346
H25_8 H 0.765865 0.721715 0.676612
H26_8 H 0.722184 0.766334 0.677654
loop_
_geom_bond_atom_site_label_1
_geom_bond_atom_site_label_2
_geom_bond_site_symmetry_1
_geom_bond_site_symmetry_2
O4 Zr2 1_555 1_555
O5 Zr2 1_555 1_555
O15 Zr3 1_555 1_555
O16 Zr3 1_555 1_555
O17 Zr3 1_555 1_555
O18 Zr2 1_555 1_555
Zr5 O15 1_555 1_555
O19 Zr3 1_555 1_555
O21 Zr2 1_555 1_555
O26 Zr2 1_555 1_555
Zr3 O18 1_555 1_555
O15 Zr11 1_555 1_555
O18 Zr5 1_555 1_555
Zr5 O26 1_555 1_555
Zr10 O26 1_555 1_555
Zr1 O2 1_555 1_555
Zr2_2 O3 1_555 1_555
S1 O7 1_555 1_555
O1 C7 1_555 1_555
O2 C7 1_555 1_555
O3 Zr1 1_555 1_555
O4_2 Zr2_2 1_555 1_555
O5_2 Zr2_2 1_555 1_555
O6 Zr1 1_555 1_555
N1 C1 1_555 1_555
C1 C3 1_555 1_555
C2 H1 1_555 1_555
C3 C2 1_555 1_555
C4 C3 1_555 1_555
C5 S1 1_555 1_555
C6 H2 1_555 1_555
C7 C11 1_555 1_555
C8 H3 1_555 1_555
C9 C4 1_555 1_555
H4 C9 1_555 1_555
C10 C4 1_555 1_555
H5 C10 1_555 1_555
C11 C6 1_555 1_555
O10 S1 1_555 1_555
O13 C36 1_555 1_555
O14 C36 1_555 1_555
C32 C5 1_555 1_555
H16 C32 1_555 1_555
C33 C1 1_555 1_555
C34 C33 1_555 1_555
C35 H17 1_555 1_555
C36 C40 1_555 1_555
C37 H18 1_555 1_555
C38 C34 1_555 1_555
H19 C38 1_555 1_555
C39 C34 1_555 1_555
H20 C39 1_555 1_555
C40 C35 1_555 1_555
Zr3_2 O6 1_555 1_555
O16_2 Zr3_2 1_555 1_555
O17_2 Zr3_2 1_555 1_555
Zr7 O14 1_555 1_555
Zr10_2 O3 1_555 1_555
Zr11_2 O1 1_555 1_555
Zr12 O13 1_555 1_555
O20 Zr2_2 1_555 1_555
O22 Zr3_2 1_555 1_555
O23 Zr1 1_555 1_555
O24 Zr1 1_555 1_555
O25 Zr1 1_555 1_555
O27 Zr1 1_555 1_555
O28 Zr1 1_555 1_555
Zr2_2 O6 1_555 1_555
C2 C5 1_555 1_555
C6 C9 1_555 1_555
C8 C10 1_555 1_555
C8 C11 1_555 1_555
C32 C33 1_555 1_555
C35 C38 1_555 1_555
C37 C39 1_555 1_555
C37 C40 1_555 1_555
Zr3_2 O27 1_555 1_555
Zr10_2 O28 1_555 1_555
Zr11_2 O27 1_555 1_555
Zr11_2 O28 1_555 1_555
N1 H25 1_555 1_555
N1 H26 1_555 1_555
S1_2 O7_2 1_555 1_555
O8 C18 1_555 1_555
O9 C18 1_555 1_555
O10_2 S1_2 1_555 1_555
N2 C12 1_555 1_555
C12 C14 1_555 1_555
C13 H6 1_555 1_555
C14 C13 1_555 1_555
C15 C14 1_555 1_555
C16 S1_2 1_555 1_555
C17 H7 1_555 1_555
C18 C22 1_555 1_555
C19 H8 1_555 1_555
C20 C15 1_555 1_555
H9 C20 1_555 1_555
C21 C15 1_555 1_555
H10 C21 1_555 1_555
C22 C17 1_555 1_555
O22 C27 1_555 1_555
O24 C27 1_555 1_555
C23 C16 1_555 1_555
H11 C23 1_555 1_555
C24 C12 1_555 1_555
C25 C24 1_555 1_555
C26 H12 1_555 1_555
C27 C31 1_555 1_555
C28 H13 1_555 1_555
C29 C25 1_555 1_555
H14 C29 1_555 1_555
C30 C25 1_555 1_555
H15 C30 1_555 1_555
C31 C26 1_555 1_555
Zr7 O9 1_555 1_555
Zr9 O8 1_555 1_555
C13 C16 1_555 1_555
C17 C20 1_555 1_555
C19 C21 1_555 1_555
C19 C22 1_555 1_555
C23 C24 1_555 1_555
C26 C29 1_555 1_555
C28 C30 1_555 1_555
C28 C31 1_555 1_555
N2 H27 1_555 1_555
N2 H28 1_555 1_555
Zr5 O2_2 1_555 1_555
S1_3 O7_3 1_555 1_555
O1_2 C7_2 1_555 1_555
O2_2 C7_2 1_555 1_555
N1_2 C1_2 1_555 1_555
C1_2 C3_2 1_555 1_555
C2_2 H1_2 1_555 1_555
C3_2 C2_2 1_555 1_555
C4_2 C3_2 1_555 1_555
C5_2 S1_3 1_555 1_555
C6_2 H2_2 1_555 1_555
C7_2 C11_2 1_555 1_555
C8_2 H3_2 1_555 1_555
C9_2 C4_2 1_555 1_555
H4_2 C9_2 1_555 1_555
C10_2 C4_2 1_555 1_555
H5_2 C10_2 1_555 1_555
C11_2 C6_2 1_555 1_555
O10_3 S1_3 1_555 1_555
O13_2 C36_2 1_555 1_555
O14_2 C36_2 1_555 1_555
C32_2 C5_2 1_555 1_555
H16_2 C32_2 1_555 1_555
C33_2 C1_2 1_555 1_555
C34_2 C33_2 1_555 1_555
C35_2 H17_2 1_555 1_555
C36_2 C40_2 1_555 1_555
C37_2 H18_2 1_555 1_555
C38_2 C34_2 1_555 1_555
H19_2 C38_2 1_555 1_555
C39_2 C34_2 1_555 1_555
H20_2 C39_2 1_555 1_555
C40_2 C35_2 1_555 1_555
Zr7_2 O14_2 1_555 1_555
Zr10 O1_2 1_555 1_555
Zr12_4 O13_2 1_555 1_555
O23_2 Zr5 1_555 1_555
O24_2 Zr5 1_555 1_555
O25_2 Zr5 1_555 1_555
O28_2 Zr5 1_555 1_555
C2_2 C5_2 1_555 1_555
C6_2 C9_2 1_555 1_555
C8_2 C10_2 1_555 1_555
C8_2 C11_2 1_555 1_555
C32_2 C33_2 1_555 1_555
C35_2 C38_2 1_555 1_555
C37_2 C39_2 1_555 1_555
C37_2 C40_2 1_555 1_555
Zr11 O28_2 1_555 1_555
Zr10 O28_2 1_555 1_555
N1_2 H25_2 1_555 1_555
N1_2 H26_2 1_555 1_555
S1_4 O7_4 1_555 1_555
O8_2 C18_2 1_555 1_555
O9_2 C18_2 1_555 1_555
O10_4 S1_4 1_555 1_555
N2_2 C12_2 1_555 1_555
C12_2 C14_2 1_555 1_555
C13_2 H6_2 1_555 1_555
C14_2 C13_2 1_555 1_555
C15_2 C14_2 1_555 1_555
C16_2 S1_4 1_555 1_555
C17_2 H7_2 1_555 1_555
C18_2 C22_2 1_555 1_555
C19_2 H8_2 1_555 1_555
C20_2 C15_2 1_555 1_555
H9_2 C20_2 1_555 1_555
C21_2 C15_2 1_555 1_555
H10_2 C21_2 1_555 1_555
C22_2 C17_2 1_555 1_555
O21 C27_2 1_555 1_555
O24_2 C27_2 1_555 1_555
C23_2 C16_2 1_555 1_555
H11_2 C23_2 1_555 1_555
C24_2 C12_2 1_555 1_555
C25_2 C24_2 1_555 1_555
C26_2 H12_2 1_555 1_555
C27_2 C31_2 1_555 1_555
C28_2 H13_2 1_555 1_555
C29_2 C25_2 1_555 1_555
H14_2 C29_2 1_555 1_555
C30_2 C25_2 1_555 1_555
H15_2 C30_2 1_555 1_555
C31_2 C26_2 1_555 1_555
Zr7_2 O9_2 1_555 1_555
Zr9_4 O8_2 1_555 1_555
C13_2 C16_2 1_555 1_555
C17_2 C20_2 1_555 1_555
C19_2 C21_2 1_555 1_555
C19_2 C22_2 1_555 1_555
C23_2 C24_2 1_555 1_555
C26_2 C29_2 1_555 1_555
C28_2 C30_2 1_555 1_555
C28_2 C31_2 1_555 1_555
N2_2 H27_2 1_555 1_555
N2_2 H28_2 1_555 1_555
O4_3 Zr9_3 1_555 1_555
O5_3 Zr9_3 1_555 1_555
O15_2 Zr9 1_555 1_555
O16_3 Zr9 1_555 1_555
O17_3 Zr9 1_555 1_555
O18_2 Zr9_3 1_555 1_555
Zr7 O15_2 1_555 1_555
O21_2 Zr9_3 1_555 1_555
O26_2 Zr9_3 1_555 1_555
Zr9 O18_2 1_555 1_555
O15_2 Zr12 1_555 1_555
O18_2 Zr7 1_555 1_555
Zr7 O26_2 1_555 1_555
Zr12_3 O26_2 1_555 1_555
Zr7_2 O2_3 1_555 1_555
Zr9_4 O3_2 1_555 1_555
S1_5 O7_5 1_555 1_555
O1_3 C7_3 1_555 1_555
O2_3 C7_3 1_555 1_555
O3_2 Zr7_2 1_555 1_555
O4_4 Zr9_4 1_555 1_555
O5_4 Zr9_4 1_555 1_555
O6_2 Zr7_2 1_555 1_555
N1_3 C1_3 1_555 1_555
C1_3 C3_3 1_555 1_555
C2_3 H1_3 1_555 1_555
C3_3 C2_3 1_555 1_555
C4_3 C3_3 1_555 1_555
C5_3 S1_5 1_555 1_555
C6_3 H2_3 1_555 1_555
C7_3 C11_3 1_555 1_555
C8_3 H3_3 1_555 1_555
C9_3 C4_3 1_555 1_555
H4_3 C9_3 1_555 1_555
C10_3 C4_3 1_555 1_555
H5_3 C10_3 1_555 1_555
C11_3 C6_3 1_555 1_555
O10_5 S1_5 1_555 1_555
O13_3 C36_3 1_555 1_555
O25 C36_3 1_555 1_555
C32_3 C5_3 1_555 1_555
H16_3 C32_3 1_555 1_555
C33_3 C1_3 1_555 1_555
C34_3 C33_3 1_555 1_555
C35_3 H17_3 1_555 1_555
C36_3 C40_3 1_555 1_555
C37_3 H18_3 1_555 1_555
C38_3 C34_3 1_555 1_555
H19_3 C38_3 1_555 1_555
C39_3 C34_3 1_555 1_555
H20_3 C39_3 1_555 1_555
C40_3 C35_3 1_555 1_555
Zr9_2 O6_2 1_555 1_555
O16_4 Zr9_2 1_555 1_555
O17_4 Zr9_2 1_555 1_555
Zr12_4 O3_2 1_555 1_555
Zr12_2 O1_3 1_555 1_555
Zr10_2 O13_3 1_555 1_555
O22_2 Zr9_2 1_555 1_555
O24_3 Zr7_2 1_555 1_555
O27_2 Zr7_2 1_555 1_555
O28_3 Zr7_2 1_555 1_555
Zr9_4 O6_2 1_555 1_555
C2_3 C5_3 1_555 1_555
C6_3 C9_3 1_555 1_555
C8_3 C10_3 1_555 1_555
C8_3 C11_3 1_555 1_555
C32_3 C33_3 1_555 1_555
C35_3 C38_3 1_555 1_555
C37_3 C39_3 1_555 1_555
C37_3 C40_3 1_555 1_555
Zr9_2 O27_2 1_555 1_555
Zr12_4 O28_3 1_555 1_555
Zr12_2 O27_2 1_555 1_555
Zr12_2 O28_3 1_555 1_555
N1_3 H25_3 1_555 1_555
N1_3 H26_3 1_555 1_555
S1_6 O7_6 1_555 1_555
O20 C18_3 1_555 1_555
O23 C18_3 1_555 1_555
O10_6 S1_6 1_555 1_555
N2_3 C12_3 1_555 1_555
C12_3 C14_3 1_555 1_555
C13_3 H6_3 1_555 1_555
C14_3 C13_3 1_555 1_555
C15_3 C14_3 1_555 1_555
C16_3 S1_6 1_555 1_555
C17_3 H7_3 1_555 1_555
C18_3 C22_3 1_555 1_555
C19_3 H8_3 1_555 1_555
C20_3 C15_3 1_555 1_555
H9_3 C20_3 1_555 1_555
C21_3 C15_3 1_555 1_555
H10_3 C21_3 1_555 1_555
C22_3 C17_3 1_555 1_555
O22_2 C27_3 1_555 1_555
O24_3 C27_3 1_555 1_555
C23_3 C16_3 1_555 1_555
H11_3 C23_3 1_555 1_555
C24_3 C12_3 1_555 1_555
C25_3 C24_3 1_555 1_555
C26_3 H12_3 1_555 1_555
C27_3 C31_3 1_555 1_555
C28_3 H13_3 1_555 1_555
C29_3 C25_3 1_555 1_555
H14_3 C29_3 1_555 1_555
C30_3 C25_3 1_555 1_555
H15_3 C30_3 1_555 1_555
C31_3 C26_3 1_555 1_555
C13_3 C16_3 1_555 1_555
C17_3 C20_3 1_555 1_555
C19_3 C21_3 1_555 1_555
C19_3 C22_3 1_555 1_555
C23_3 C24_3 1_555 1_555
C26_3 C29_3 1_555 1_555
C28_3 C30_3 1_555 1_555
C28_3 C31_3 1_555 1_555
N2_3 H27_3 1_555 1_555
N2_3 H28_3 1_555 1_555
Zr7 O2_4 1_555 1_555
S1_7 O7_7 1_555 1_555
O1_4 C7_4 1_555 1_555
O2_4 C7_4 1_555 1_555
N1_4 C1_4 1_555 1_555
C1_4 C3_4 1_555 1_555
C2_4 H1_4 1_555 1_555
C3_4 C2_4 1_555 1_555
C4_4 C3_4 1_555 1_555
C5_4 S1_7 1_555 1_555
C6_4 H2_4 1_555 1_555
C7_4 C11_4 1_555 1_555
C8_4 H3_4 1_555 1_555
C9_4 C4_4 1_555 1_555
H4_4 C9_4 1_555 1_555
C10_4 C4_4 1_555 1_555
H5_4 C10_4 1_555 1_555
C11_4 C6_4 1_555 1_555
O10_7 S1_7 1_555 1_555
O13_4 C36_4 1_555 1_555
O25_2 C36_4 1_555 1_555
C32_4 C5_4 1_555 1_555
H16_4 C32_4 1_555 1_555
C33_4 C1_4 1_555 1_555
C34_4 C33_4 1_555 1_555
C35_4 H17_4 1_555 1_555
C36_4 C40_4 1_555 1_555
C37_4 H18_4 1_555 1_555
C38_4 C34_4 1_555 1_555
H19_4 C38_4 1_555 1_555
C39_4 C34_4 1_555 1_555
H20_4 C39_4 1_555 1_555
C40_4 C35_4 1_555 1_555
Zr12_3 O1_4 1_555 1_555
Zr11 O13_4 1_555 1_555
O24_4 Zr7 1_555 1_555
O28_4 Zr7 1_555 1_555
C2_4 C5_4 1_555 1_555
C6_4 C9_4 1_555 1_555
C8_4 C10_4 1_555 1_555
C8_4 C11_4 1_555 1_555
C32_4 C33_4 1_555 1_555
C35_4 C38_4 1_555 1_555
C37_4 C39_4 1_555 1_555
C37_4 C40_4 1_555 1_555
Zr12 O28_4 1_555 1_555
Zr12_3 O28_4 1_555 1_555
N1_4 H25_4 1_555 1_555
N1_4 H26_4 1_555 1_555
S1_8 O7_8 1_555 1_555
O19 C18_4 1_555 1_555
O23_2 C18_4 1_555 1_555
O10_8 S1_8 1_555 1_555
N2_4 C12_4 1_555 1_555
C12_4 C14_4 1_555 1_555
C13_4 H6_4 1_555 1_555
C14_4 C13_4 1_555 1_555
C15_4 C14_4 1_555 1_555
C16_4 S1_8 1_555 1_555
C17_4 H7_4 1_555 1_555
C18_4 C22_4 1_555 1_555
C19_4 H8_4 1_555 1_555
C20_4 C15_4 1_555 1_555
H9_4 C20_4 1_555 1_555
C21_4 C15_4 1_555 1_555
H10_4 C21_4 1_555 1_555
C22_4 C17_4 1_555 1_555
O21_2 C27_4 1_555 1_555
O24_4 C27_4 1_555 1_555
C23_4 C16_4 1_555 1_555
H11_4 C23_4 1_555 1_555
C24_4 C12_4 1_555 1_555
C25_4 C24_4 1_555 1_555
C26_4 H12_4 1_555 1_555
C27_4 C31_4 1_555 1_555
C28_4 H13_4 1_555 1_555
C29_4 C25_4 1_555 1_555
H14_4 C29_4 1_555 1_555
C30_4 C25_4 1_555 1_555
H15_4 C30_4 1_555 1_555
C31_4 C26_4 1_555 1_555
C13_4 C16_4 1_555 1_555
C17_4 C20_4 1_555 1_555
C19_4 C21_4 1_555 1_555
C19_4 C22_4 1_555 1_555
C23_4 C24_4 1_555 1_555
C26_4 C29_4 1_555 1_555
C28_4 C30_4 1_555 1_555
C28_4 C31_4 1_555 1_555
N2_4 H27_4 1_555 1_555
N2_4 H28_4 1_555 1_555
O4_5 Zr10 1_555 1_555
O5_5 Zr10 1_555 1_555
O16_5 Zr11 1_555 1_555
O17_5 Zr11 1_555 1_555
O4_6 Zr10_2 1_555 1_555
O5_6 Zr10_2 1_555 1_555
O16_6 Zr11_2 1_555 1_555
O17_6 Zr11_2 1_555 1_555
O4_7 Zr12 1_555 1_555
O5_7 Zr12 1_555 1_555
O16_7 Zr12_3 1_555 1_555
O17_7 Zr12_3 1_555 1_555
O4_8 Zr12_2 1_555 1_555
O5_8 Zr12_2 1_555 1_555
O16_8 Zr12_4 1_555 1_555
O17_8 Zr12_4 1_555 1_555
N1_2 H27_5 1_555 1_555
N1_2 H28_5 1_555 1_555
N2_2 H25_5 1_555 1_555
N2_2 H26_5 1_555 1_555
N1 H27_6 1_555 1_555
N1 H28_6 1_555 1_555
N2 H25_6 1_555 1_555
N2 H26_6 1_555 1_555
N1_4 H27_7 1_555 1_555
N1_4 H28_7 1_555 1_555
N2_4 H25_7 1_555 1_555
N2_4 H26_7 1_555 1_555
N1_3 H27_8 1_555 1_555
N1_3 H28_8 1_555 1_555
N2_3 H25_8 1_555 1_555
N2_3 H26_8 1_555 1_555

#END
