
###############################################################################
#
# This file contains modified crystal structure data generated from the
# MOF subset of the Cambridge Structural Database (CSD) v543 
# hosted by the Cambridge Crystallographic Data Centre (CCDC).
#
# This work is licensed under the Creative Commons
# Attribution-NonCommercial-ShareAlike 4.0 International License.
# To view a copy of this license, visit
# http://creativecommons.org/licenses/by-nc-sa/4.0/
# or send a letter to
# Creative Commons, PO Box 1866, Mountain View, CA 94042, USA.
#
# CIF created using the CSD Python API on 29 September 2022
# The structure has been converted into the P1 space group
# The structure has a 3D framework
# The original CSD entry PONRUI is in the monoclinic crystal system
# The framework has been calculated to contain at least 10.0% void space
# The void calculation uses a probe of radius 1.32A, grid spacing 0.4
# The framework is charged, counterions have been retained in the structure
#
###############################################################################

data_PONRUI
_chemical_formula_moiety         '(C272 H256 N48 O24 P8 Zn8 4+)n'
_symmetry_cell_setting           triclinic
_symmetry_space_group_name_H-M   'P 1'
_symmetry_Int_Tables_number      1
_space_group_name_Hall           'P 1'
loop_
_symmetry_equiv_pos_site_id
_symmetry_equiv_pos_as_xyz
1 x,y,z
_cell_length_a                   28.74(2)
_cell_length_b                   14.488(12)
_cell_length_c                   26.95(3)
_cell_angle_alpha                90
_cell_angle_beta                 109.95(3)
_cell_angle_gamma                90
_cell_volume                     10548.2
loop_
_atom_site_label
_atom_site_type_symbol
_atom_site_fract_x
_atom_site_fract_y
_atom_site_fract_z
C1 C 0.45317(17) 0.2735(3) 0.37579(18)
C2 C 0.40691(19) 0.2935(5) 0.3427(2)
H1 H 0.3802 0.2601 0.3452
C3 C 0.3987(2) 0.3624(5) 0.3052(3)
H2 H 0.3665 0.3770 0.2840
C4 C 0.4368(2) 0.4078(4) 0.2996(2)
C5 C 0.4832(2) 0.3883(4) 0.3303(2)
H3 H 0.5098 0.4195 0.3260
C6 C 0.4909(2) 0.3207(4) 0.3687(2)
H4 H 0.5231 0.3075 0.3903
C7 C 0.4460(3) 0.5698(5) 0.2771(3)
H5 H 0.4643 0.5900 0.3109
C8 C 0.4313(3) 0.6205(5) 0.2328(3)
H6 H 0.4373 0.6833 0.2309
C9 C 0.40519(18) 0.4837(4) 0.2108(2)
C10 C 0.3824(3) 0.4030(4) 0.1783(2)
H7 H 0.3856 0.3500 0.2007
H8 H 0.3479 0.4151 0.1599
H9 H 0.3986 0.3913 0.1532
C11 C 0.49775(16) 0.1012(3) 0.41729(18)
C12 C 0.4908(3) 0.0685(5) 0.3687(2)
H10 H 0.4668 0.0960 0.3401
C16 C 0.5339(3) 0.0620(5) 0.4576(2)
H13 H 0.5402 0.0841 0.4916
N1 N 0.42848(18) 0.4827(3) 0.26252(17)
N2 N 0.40676(16) 0.5669(3) 0.19168(17)
O1 O 0.49763(11) 0.2421(2) 0.48177(12)
C21 C 0.0742(2) 0.0430(4) 0.4526(3)
C24 C 0.0515(2) 0.0039(4) 0.5323(2)
H22 H 0.0554 0.0683 0.5427
C25 C 0.2110(2) 0.0772(5) 0.4735(2)
H24 H 0.1943 0.0651 0.4968
C26 C 0.2590(2) 0.0865(5) 0.4878(2)
H25 H 0.2818 0.0854 0.5219
C27 C 0.22491(19) 0.0991(3) 0.40143(19)
C28 C 0.2190(2) 0.1133(5) 0.3453(2)
H26 H 0.2510 0.1200 0.3419
H27 H 0.2023 0.0612 0.3250
H28 H 0.1999 0.1681 0.3326
C29 C 0.31610(18) 0.1191(4) 0.43843(19)
C30 C 0.34045(19) 0.1930(4) 0.4643(2)
H29 H 0.3264 0.2295 0.4838
C31 C 0.38679(18) 0.2153(3) 0.46221(19)
H30 H 0.4035 0.2670 0.4801
C32 C 0.40813(16) 0.1609(3) 0.43365(17)
C33 C 0.38277(19) 0.0850(4) 0.4082(2)
H31 H 0.3971 0.0469 0.3896
C34 C 0.33554(19) 0.0634(4) 0.4095(2)
H32 H 0.3180 0.0128 0.3912
N5 N 0.18823(14) 0.0875(3) 0.41993(16)
N6 N 0.26856(16) 0.0985(3) 0.44140(17)
O2 O 0.10751(17) 0.0925(3) 0.4812(2)
O3 O 0.06893(15) 0.0292(3) 0.4058(2)
P1 P 0.46705(5) 0.19795(9) 0.43188(5)
Zn1 Zn 0.11505(2) 0.10470(4) 0.38545(2)
N13 N 0.09324(16) 0.0669(3) 0.30832(17)
N15 N 0.10590(14) 0.2423(3) 0.38372(14)
Zn4 Zn 0.38495(2) 0.60470(4) 0.11455(2)
C13 C 0.4824(3) 0.9959(5) 0.1407(3)
H11 H 0.4878 0.9763 0.1751
C14 C 0.44902(18) 0.9543(3) 0.1008(2)
C15 C 0.4383(3) 0.9899(5) 0.0505(2)
H12 H 0.4126 0.9654 0.0224
C17 C 0.3728(2) 0.8895(4) 0.1109(2)
H14 H 0.3553 0.9440 0.1094
C18 C 0.3580(2) 0.8034(4) 0.1159(2)
H15 H 0.3276 0.7877 0.1187
C19 C 0.43136(18) 0.7906(3) 0.11165(18)
C20 C 0.47867(19) 0.7538(4) 0.1100(2)
H16 H 0.4992 0.8039 0.1064
H17 H 0.4953 0.7207 0.1421
H18 H 0.4724 0.7128 0.0805
N3 N 0.41944(15) 0.8797(3) 0.10834(16)
N4 N 0.39410(14) 0.7423(3) 0.11628(14)
C22 C 0.9627(2) 0.9977(4) 0.0263(2)
H19 H 0.9646 0.9322 0.0358
H3_2 H 0.0098 0.9195 0.3260
H4_2 H 0.0231 0.8075 0.3903
C13_2 C 0.0176(3) 0.4959(5) 0.3593(3)
H11_2 H 0.0122 0.4763 0.3249
C14_2 C 0.05098(18) 0.4543(3) 0.3992(2)
C15_2 C 0.0617(3) 0.4899(5) 0.4495(2)
H12_2 H 0.0874 0.4654 0.4776
C16_2 C 0.0339(3) 0.5620(5) 0.4576(2)
H13_2 H 0.0402 0.5841 0.4916
C17_2 C 0.1272(2) 0.3895(4) 0.3891(2)
H14_2 H 0.1447 0.4440 0.3906
C18_2 C 0.1420(2) 0.3034(4) 0.3841(2)
H15_2 H 0.1724 0.2877 0.3813
C19_2 C 0.06864(18) 0.2906(3) 0.38835(18)
C20_2 C 0.02133(19) 0.2538(4) 0.3900(2)
H16_2 H 0.0008 0.3039 0.3936
H17_2 H 0.0047 0.2207 0.3579
H18_2 H 0.0276 0.2128 0.4195
N3_2 N 0.08056(15) 0.3797(3) 0.39166(16)
C7_2 C 0.0540(3) 0.0698(5) 0.2229(3)
H5_2 H 0.0357 0.0900 0.1891
C8_2 C 0.0687(3) 0.1205(5) 0.2672(3)
H6_2 H 0.0627 0.1833 0.2691
C1_2 C 0.04683(17) 0.7735(3) 0.12421(18)
C2_2 C 0.09309(19) 0.7935(5) 0.1573(2)
H1_2 H 0.1198 0.7601 0.1548
C3_2 C 0.1013(2) 0.8624(5) 0.1948(3)
H2_2 H 0.1335 0.8770 0.2160
C4_2 C 0.0632(2) 0.9078(4) 0.2004(2)
C5_2 C 0.0168(2) 0.8883(4) 0.1697(2)
C6_2 C 0.0091(2) 0.8207(4) 0.1313(2)
C9_2 C 0.09481(18) 0.9837(4) 0.2892(2)
C10_2 C 0.1176(3) 0.9030(4) 0.3217(2)
H7_2 H 0.1144 0.8500 0.2993
H8_2 H 0.1521 0.9151 0.3401
H9_2 H 0.1014 0.8913 0.3468
C11_2 C 0.00225(16) 0.6012(3) 0.08271(18)
C12_2 C 0.0092(3) 0.5685(5) 0.1313(2)
H10_2 H 0.0332 0.5960 0.1599
N1_2 N 0.07152(18) 0.9827(3) 0.23748(17)
O1_2 O 0.00237(11) 0.7421(2) 0.01823(12)
C21_2 C 0.4258(2) 0.5430(4) 0.0474(3)
C22_2 C 0.4627(2) 0.4977(4) 0.0263(2)
H19_2 H 0.4646 0.4322 0.0358
C23 C 0.51388(19) 0.5397(4) 0.0523(2)
H20 H 0.5124 0.6055 0.0453
H21 H 0.5240 0.5312 0.0903
C25_2 C 0.2890(2) 0.5772(5) 0.0265(2)
H24_2 H 0.3057 0.5651 0.0032
C26_2 C 0.2410(2) 0.5865(5) 0.0122(2)
C27_2 C 0.27509(19) 0.5991(3) 0.09857(19)
C28_2 C 0.2810(2) 0.6133(5) 0.1547(2)
H26_2 H 0.2490 0.6200 0.1581
H27_2 H 0.2977 0.5612 0.1750
H28_2 H 0.3001 0.6681 0.1674
C29_2 C 0.18390(18) 0.6191(4) 0.06157(19)
C30_2 C 0.15955(19) 0.6930(4) 0.0357(2)
H29_2 H 0.1736 0.7295 0.0162
C31_2 C 0.11321(18) 0.7153(3) 0.03779(19)
H30_2 H 0.0965 0.7670 0.0199
C32_2 C 0.09187(16) 0.6609(3) 0.06635(17)
C33_2 C 0.11723(19) 0.5850(4) 0.0918(2)
H31_2 H 0.1029 0.5469 0.1104
C34_2 C 0.16446(19) 0.5634(4) 0.0905(2)
H32_2 H 0.1820 0.5128 0.1088
N5_2 N 0.31177(14) 0.5875(3) 0.08007(16)
N6_2 N 0.23144(16) 0.5985(3) 0.05860(17)
O2_2 O 0.39249(17) 0.5925(3) 0.0188(2)
O3_2 O 0.43107(15) 0.5292(3) 0.0942(2)
P1_2 P 0.03295(5) 0.69795(9) 0.06812(5)
C38 C 0.5515(2) 0.4961(4) 0.0323(2)
H36 H 0.5554 0.4317 0.0427
H37 H 0.5832 0.5264 0.0485
H57 H 0.7818 0.4146 0.0219
C13_3 C 0.5176(3) 0.9959(5) 0.3593(3)
H11_3 H 0.5122 0.9763 0.3249
C14_3 C 0.55098(18) 0.9543(3) 0.3992(2)
C15_3 C 0.5617(3) 0.9899(5) 0.4495(2)
H12_3 H 0.5874 0.9654 0.4776
C17_3 C 0.6272(2) 0.8895(4) 0.3891(2)
H14_3 H 0.6447 0.9440 0.3906
C18_3 C 0.6420(2) 0.8034(4) 0.3841(2)
H15_3 H 0.6724 0.7877 0.3813
C19_3 C 0.56864(18) 0.7906(3) 0.38835(18)
C20_3 C 0.52133(19) 0.7538(4) 0.3900(2)
H16_3 H 0.5008 0.8039 0.3936
H17_3 H 0.5047 0.7207 0.3579
H18_3 H 0.5276 0.7128 0.4195
N3_3 N 0.58056(15) 0.8797(3) 0.39166(16)
N4_2 N 0.60590(14) 0.7423(3) 0.38372(14)
C22_3 C 0.0373(2) 0.9977(4) 0.4737(2)
H19_3 H 0.0354 0.9322 0.4642
H23 H 0.0832 0.9736 0.5485
C37 C 0.01388(19) 0.9603(4) 0.5523(2)
H34 H 0.0124 0.8945 0.5453
H35 H 0.0240 0.9688 0.5903
Zn3 Zn 0.61505(2) 0.60470(4) 0.38545(2)
C23_2 C 0.98612(19) 0.0397(4) 0.4477(2)
H20_2 H 0.9876 0.1055 0.4547
H21_2 H 0.9760 0.0312 0.4097
C36 C 0.9627(2) 0.0023(4) 0.5263(2)
H33 H 0.9646 0.0678 0.5358
H37_2 H 0.9168 0.0264 0.4515
C51 C 0.4824(3) 0.0041(5) 0.6407(3)
H48 H 0.4878 0.0237 0.6751
C52 C 0.44902(18) 0.0457(3) 0.6008(2)
C53 C 0.4383(3) 0.0101(5) 0.5505(2)
H49 H 0.4126 0.0346 0.5224
C55 C 0.3728(2) 0.1105(4) 0.6109(2)
H51 H 0.3553 0.0560 0.6094
C56 C 0.3580(2) 0.1966(4) 0.6159(2)
H52 H 0.3276 0.2123 0.6187
C57 C 0.43136(18) 0.2094(3) 0.61165(18)
C58 C 0.47867(19) 0.2462(4) 0.6100(2)
H53 H 0.4992 0.1961 0.6064
H54 H 0.4953 0.2793 0.6421
H55 H 0.4724 0.2872 0.5805
N9 N 0.41944(15) 0.1203(3) 0.60834(16)
N10 N 0.39410(14) 0.2577(3) 0.61628(14)
Zn5 Zn 0.38495(2) 0.39530(4) 0.61455(2)
C35 C 0.0742(2) 0.9570(4) 0.9526(3)
O4 O 0.10751(17) 0.9075(3) 0.9812(2)
O5 O 0.06893(15) 0.9708(3) 0.9058(2)
C39 C 0.45317(17) 0.7265(3) 0.87579(18)
C40 C 0.40691(19) 0.7065(5) 0.8427(2)
H38 H 0.3802 0.7399 0.8452
C41 C 0.3987(2) 0.6376(5) 0.8052(3)
H39 H 0.3665 0.6230 0.7840
C42 C 0.4368(2) 0.5922(4) 0.7996(2)
C43 C 0.4832(2) 0.6117(4) 0.8303(2)
H40 H 0.5098 0.5805 0.8260
C44 C 0.4909(2) 0.6793(4) 0.8687(2)
H41 H 0.5231 0.6925 0.8903
C45 C 0.4460(3) 0.4302(5) 0.7771(3)
H42 H 0.4643 0.4100 0.8109
C46 C 0.4313(3) 0.3795(5) 0.7328(3)
H43 H 0.4373 0.3167 0.7309
C47 C 0.40519(18) 0.5163(4) 0.7108(2)
C48 C 0.3824(3) 0.5970(4) 0.6783(2)
H44 H 0.3856 0.6500 0.7007
H45 H 0.3479 0.5849 0.6599
H46 H 0.3986 0.6087 0.6532
C49 C 0.49775(16) 0.8988(3) 0.91729(18)
C50 C 0.4908(3) 0.9315(5) 0.8687(2)
H47 H 0.4668 0.9040 0.8401
C54 C 0.5339(3) 0.9380(5) 0.9576(2)
H50 H 0.5402 0.9159 0.9916
N7 N 0.42848(18) 0.5173(3) 0.76252(17)
N8 N 0.40676(16) 0.4331(3) 0.69168(17)
O6 O 0.49763(11) 0.7579(2) 0.98177(12)
C59 C 0.2110(2) 0.9228(5) 0.9735(2)
H56 H 0.1943 0.9349 0.9968
C60 C 0.2590(2) 0.9135(5) 0.9878(2)
C61 C 0.22491(19) 0.9009(3) 0.90143(19)
C62 C 0.2190(2) 0.8867(5) 0.8453(2)
H58 H 0.2510 0.8800 0.8419
H59 H 0.2023 0.9388 0.8250
H60 H 0.1999 0.8319 0.8326
C63 C 0.31610(18) 0.8809(4) 0.93843(19)
C64 C 0.34045(19) 0.8070(4) 0.9643(2)
H61 H 0.3264 0.7705 0.9838
C65 C 0.38679(18) 0.7847(3) 0.96221(19)
H62 H 0.4035 0.7330 0.9801
C66 C 0.40813(16) 0.8391(3) 0.93365(17)
C67 C 0.38277(19) 0.9150(4) 0.9082(2)
H63 H 0.3971 0.9531 0.8896
C68 C 0.33554(19) 0.9366(4) 0.9095(2)
H64 H 0.3180 0.9872 0.8912
N11 N 0.18823(14) 0.9125(3) 0.91993(16)
N12 N 0.26856(16) 0.9015(3) 0.94140(17)
P2 P 0.46705(5) 0.80205(9) 0.93188(5)
Zn2 Zn 0.11505(2) 0.89530(4) 0.88545(2)
N14 N 0.09324(16) 0.9331(3) 0.80832(17)
N16 N 0.10590(14) 0.7577(3) 0.88372(14)
C1_3 C 0.54683(17) 0.2735(3) 0.12421(18)
C2_3 C 0.59309(19) 0.2935(5) 0.1573(2)
H1_3 H 0.6198 0.2601 0.1548
C3_3 C 0.6013(2) 0.3624(5) 0.1948(3)
H2_3 H 0.6335 0.3770 0.2160
C4_3 C 0.5632(2) 0.4078(4) 0.2004(2)
C5_3 C 0.5168(2) 0.3883(4) 0.1697(2)
H3_3 H 0.4902 0.4195 0.1740
C6_3 C 0.5091(2) 0.3207(4) 0.1313(2)
H4_3 H 0.4769 0.3075 0.1097
C7_3 C 0.5540(3) 0.5698(5) 0.2229(3)
H5_3 H 0.5357 0.5900 0.1891
C8_3 C 0.5687(3) 0.6205(5) 0.2672(3)
H6_3 H 0.5627 0.6833 0.2691
C9_3 C 0.59481(18) 0.4837(4) 0.2892(2)
C10_3 C 0.6176(3) 0.4030(4) 0.3217(2)
H7_3 H 0.6144 0.3500 0.2993
H8_3 H 0.6521 0.4151 0.3401
H9_3 H 0.6014 0.3913 0.3468
C11_3 C 0.50225(16) 0.1012(3) 0.08271(18)
C12_3 C 0.5092(3) 0.0685(5) 0.1313(2)
H10_3 H 0.5332 0.0960 0.1599
C16_3 C 0.4661(3) 0.0620(5) 0.0424(2)
H13_3 H 0.4598 0.0841 0.0084
N1_3 N 0.57152(18) 0.4827(3) 0.23748(17)
N2_2 N 0.59324(16) 0.5669(3) 0.30832(17)
O1_3 O 0.50237(11) 0.2421(2) 0.01823(12)
C21_3 C 0.9258(2) 0.0430(4) 0.0474(3)
C25_3 C 0.7890(2) 0.0772(5) 0.0265(2)
H24_3 H 0.8057 0.0651 0.0032
C26_3 C 0.7410(2) 0.0865(5) 0.0122(2)
C27_3 C 0.77509(19) 0.0991(3) 0.09857(19)
C28_3 C 0.7810(2) 0.1133(5) 0.1547(2)
H26_3 H 0.7490 0.1200 0.1581
H27_3 H 0.7977 0.0612 0.1750
H28_3 H 0.8001 0.1681 0.1674
C29_3 C 0.68390(18) 0.1191(4) 0.06157(19)
C30_3 C 0.65955(19) 0.1930(4) 0.0357(2)
H29_3 H 0.6736 0.2295 0.0162
C31_3 C 0.61321(18) 0.2153(3) 0.03779(19)
H30_3 H 0.5965 0.2670 0.0199
C32_3 C 0.59187(16) 0.1609(3) 0.06635(17)
C33_3 C 0.61723(19) 0.0850(4) 0.0918(2)
H31_3 H 0.6029 0.0469 0.1104
C34_3 C 0.66446(19) 0.0634(4) 0.0905(2)
H32_3 H 0.6820 0.0128 0.1088
N5_3 N 0.81177(14) 0.0875(3) 0.08007(16)
N6_3 N 0.73144(16) 0.0985(3) 0.05860(17)
O2_3 O 0.89249(17) 0.0925(3) 0.0188(2)
O3_3 O 0.93107(15) 0.0292(3) 0.0942(2)
P1_3 P 0.53295(5) 0.19795(9) 0.06812(5)
Zn1_2 Zn 0.88495(2) 0.10470(4) 0.11455(2)
N13_2 N 0.90676(16) 0.0669(3) 0.19168(17)
N15_2 N 0.89410(14) 0.2423(3) 0.11628(14)
C7_4 C 0.9460(3) 0.0698(5) 0.2771(3)
H5_4 H 0.9643 0.0900 0.3109
C8_4 C 0.9313(3) 0.1205(5) 0.2328(3)
H6_4 H 0.9373 0.1833 0.2309
C1_4 C 0.95317(17) 0.7735(3) 0.37579(18)
C2_4 C 0.90691(19) 0.7935(5) 0.3427(2)
H1_4 H 0.8802 0.7601 0.3452
C3_4 C 0.8987(2) 0.8624(5) 0.3052(3)
H2_4 H 0.8665 0.8770 0.2840
C4_4 C 0.9368(2) 0.9078(4) 0.2996(2)
C5_4 C 0.9832(2) 0.8883(4) 0.3303(2)
C6_4 C 0.9909(2) 0.8207(4) 0.3687(2)
C9_4 C 0.90519(18) 0.9837(4) 0.2108(2)
C10_4 C 0.8824(3) 0.9030(4) 0.1783(2)
H7_4 H 0.8856 0.8500 0.2007
H8_4 H 0.8479 0.9151 0.1599
H9_4 H 0.8986 0.8913 0.1532
C11_4 C 0.99775(16) 0.6012(3) 0.41729(18)
C12_4 C 0.9908(3) 0.5685(5) 0.3687(2)
H10_4 H 0.9668 0.5960 0.3401
N1_4 N 0.92848(18) 0.9827(3) 0.26252(17)
O1_4 O 0.99763(11) 0.7421(2) 0.48177(12)
C21_4 C 0.5742(2) 0.5430(4) 0.4526(3)
C22_4 C 0.5373(2) 0.4977(4) 0.4737(2)
H19_4 H 0.5354 0.4322 0.4642
C23_3 C 0.48612(19) 0.5397(4) 0.4477(2)
H20_3 H 0.4876 0.6055 0.4547
H21_3 H 0.4760 0.5312 0.4097
C24_2 C 0.5515(2) 0.5039(4) 0.5323(2)
H22_2 H 0.5554 0.5683 0.5427
H23_2 H 0.5832 0.4736 0.5485
C25_4 C 0.7110(2) 0.5772(5) 0.4735(2)
H24_4 H 0.6943 0.5651 0.4968
C26_4 C 0.7590(2) 0.5865(5) 0.4878(2)
H25_2 H 0.7818 0.5854 0.5219
C27_4 C 0.72491(19) 0.5991(3) 0.40143(19)
C28_4 C 0.7190(2) 0.6133(5) 0.3453(2)
H26_4 H 0.7510 0.6200 0.3419
H27_4 H 0.7023 0.5612 0.3250
H28_4 H 0.6999 0.6681 0.3326
C29_4 C 0.81610(18) 0.6191(4) 0.43843(19)
C30_4 C 0.84045(19) 0.6930(4) 0.4643(2)
H29_4 H 0.8264 0.7295 0.4838
C31_4 C 0.88679(18) 0.7153(3) 0.46221(19)
H30_4 H 0.9035 0.7670 0.4801
C32_4 C 0.90813(16) 0.6609(3) 0.43365(17)
C33_4 C 0.88277(19) 0.5850(4) 0.4082(2)
H31_4 H 0.8971 0.5469 0.3896
C34_4 C 0.83554(19) 0.5634(4) 0.4095(2)
H32_4 H 0.8180 0.5128 0.3912
N5_4 N 0.68823(14) 0.5875(3) 0.41993(16)
N6_4 N 0.76856(16) 0.5985(3) 0.44140(17)
O2_4 O 0.60751(17) 0.5925(3) 0.4812(2)
O3_4 O 0.56893(15) 0.5292(3) 0.4058(2)
P1_4 P 0.96705(5) 0.69795(9) 0.43188(5)
C35_2 C 0.4258(2) 0.4570(4) 0.5474(3)
C36_2 C 0.4627(2) 0.5023(4) 0.5263(2)
H33_2 H 0.4646 0.5678 0.5358
C37_2 C 0.51388(19) 0.4603(4) 0.5523(2)
H34_2 H 0.5124 0.3945 0.5453
H35_2 H 0.5240 0.4688 0.5903
C38_2 C 0.4485(2) 0.4961(4) 0.4677(2)
H36_2 H 0.4446 0.4317 0.4573
H37_3 H 0.4168 0.5264 0.4515
O4_2 O 0.39249(17) 0.4075(3) 0.5188(2)
O5_2 O 0.43107(15) 0.4708(3) 0.5942(2)
C39_2 C 0.04683(17) 0.2265(3) 0.62421(18)
C40_2 C 0.09309(19) 0.2065(5) 0.6573(2)
H38_2 H 0.1198 0.2399 0.6548
C41_2 C 0.1013(2) 0.1376(5) 0.6948(3)
H39_2 H 0.1335 0.1230 0.7160
C42_2 C 0.0632(2) 0.0922(4) 0.7004(2)
C43_2 C 0.0168(2) 0.1117(4) 0.6697(2)
C44_2 C 0.0091(2) 0.1793(4) 0.6313(2)
C47_2 C 0.09481(18) 0.0163(4) 0.7892(2)
C48_2 C 0.1176(3) 0.0970(4) 0.8217(2)
H44_2 H 0.1144 0.1500 0.7993
H45_2 H 0.1521 0.0849 0.8401
H46_2 H 0.1014 0.1087 0.8468
C49_2 C 0.00225(16) 0.3988(3) 0.58271(18)
C50_2 C 0.0092(3) 0.4315(5) 0.6313(2)
H47_2 H 0.0332 0.4040 0.6599
N7_2 N 0.07152(18) 0.0173(3) 0.73748(17)
O6_2 O 0.00237(11) 0.2579(2) 0.51823(12)
C59_2 C 0.2890(2) 0.4228(5) 0.5265(2)
H56_2 H 0.3057 0.4349 0.5032
C60_2 C 0.2410(2) 0.4135(5) 0.5122(2)
H57_2 H 0.2182 0.4146 0.4781
C61_2 C 0.27509(19) 0.4009(3) 0.59857(19)
C62_2 C 0.2810(2) 0.3867(5) 0.6547(2)
H58_2 H 0.2490 0.3800 0.6581
H59_2 H 0.2977 0.4388 0.6750
H60_2 H 0.3001 0.3319 0.6674
C63_2 C 0.18390(18) 0.3809(4) 0.56157(19)
C64_2 C 0.15955(19) 0.3070(4) 0.5357(2)
H61_2 H 0.1736 0.2705 0.5162
C65_2 C 0.11321(18) 0.2847(3) 0.53779(19)
H62_2 H 0.0965 0.2330 0.5199
C66_2 C 0.09187(16) 0.3391(3) 0.56635(17)
C67_2 C 0.11723(19) 0.4150(4) 0.5918(2)
H63_2 H 0.1029 0.4531 0.6104
C68_2 C 0.16446(19) 0.4366(4) 0.5905(2)
H64_2 H 0.1820 0.4872 0.6088
N11_2 N 0.31177(14) 0.4125(3) 0.58007(16)
N12_2 N 0.23144(16) 0.4015(3) 0.55860(17)
P2_2 P 0.03295(5) 0.30205(9) 0.56812(5)
C45_2 C 0.0540(3) 0.9302(5) 0.7229(3)
H42_2 H 0.0357 0.9100 0.6891
C46_2 C 0.0687(3) 0.8795(5) 0.7672(3)
H43_2 H 0.0627 0.8167 0.7691
H40_2 H 0.0098 0.0805 0.8260
H41_2 H 0.0231 0.1925 0.8903
C51_2 C 0.0176(3) 0.5041(5) 0.8593(3)
H48_2 H 0.0122 0.5237 0.8249
C52_2 C 0.05098(18) 0.5457(3) 0.8992(2)
C53_2 C 0.0617(3) 0.5101(5) 0.9495(2)
H49_2 H 0.0874 0.5346 0.9776
C54_2 C 0.0339(3) 0.4380(5) 0.9576(2)
H50_2 H 0.0402 0.4159 0.9916
C55_2 C 0.1272(2) 0.6105(4) 0.8891(2)
H51_2 H 0.1447 0.5560 0.8906
C56_2 C 0.1420(2) 0.6966(4) 0.8841(2)
H52_2 H 0.1724 0.7123 0.8813
C57_2 C 0.06864(18) 0.7094(3) 0.88835(18)
C58_2 C 0.02133(19) 0.7462(4) 0.8900(2)
H53_2 H 0.0008 0.6961 0.8936
H54_2 H 0.0047 0.7793 0.8579
H55_2 H 0.0276 0.7872 0.9195
N9_2 N 0.08056(15) 0.6203(3) 0.89166(16)
H3_4 H 0.9902 0.9195 0.1740
H4_4 H 0.9769 0.8075 0.1097
C13_4 C 0.9824(3) 0.4959(5) 0.1407(3)
H11_4 H 0.9878 0.4763 0.1751
C14_4 C 0.94902(18) 0.4543(3) 0.1008(2)
C15_4 C 0.9383(3) 0.4899(5) 0.0505(2)
H12_4 H 0.9126 0.4654 0.0224
C16_4 C 0.9661(3) 0.5620(5) 0.0424(2)
H13_4 H 0.9598 0.5841 0.0084
C17_4 C 0.8728(2) 0.3895(4) 0.1109(2)
H14_4 H 0.8553 0.4440 0.1094
C18_4 C 0.8580(2) 0.3034(4) 0.1159(2)
H15_4 H 0.8276 0.2877 0.1187
C19_4 C 0.93136(18) 0.2906(3) 0.11165(18)
C20_4 C 0.97867(19) 0.2538(4) 0.1100(2)
H16_4 H 0.9992 0.3039 0.1064
H17_4 H 0.9953 0.2207 0.1421
H18_4 H 0.9724 0.2128 0.0805
N3_4 N 0.91944(15) 0.3797(3) 0.10834(16)
C35_3 C 0.9258(2) 0.9570(4) 0.5474(3)
C38_3 C 0.9485(2) 0.9961(4) 0.4677(2)
H36_3 H 0.9446 0.9317 0.4573
O4_3 O 0.89249(17) 0.9075(3) 0.5188(2)
O5_3 O 0.93107(15) 0.9708(3) 0.5942(2)
C39_3 C 0.54683(17) 0.7265(3) 0.62421(18)
C40_3 C 0.59309(19) 0.7065(5) 0.6573(2)
H38_3 H 0.6198 0.7399 0.6548
C41_3 C 0.6013(2) 0.6376(5) 0.6948(3)
H39_3 H 0.6335 0.6230 0.7160
C42_3 C 0.5632(2) 0.5922(4) 0.7004(2)
C43_3 C 0.5168(2) 0.6117(4) 0.6697(2)
H40_3 H 0.4902 0.5805 0.6740
C44_3 C 0.5091(2) 0.6793(4) 0.6313(2)
H41_3 H 0.4769 0.6925 0.6097
C45_3 C 0.5540(3) 0.4302(5) 0.7229(3)
H42_3 H 0.5357 0.4100 0.6891
C46_3 C 0.5687(3) 0.3795(5) 0.7672(3)
H43_3 H 0.5627 0.3167 0.7691
C47_3 C 0.59481(18) 0.5163(4) 0.7892(2)
C48_3 C 0.6176(3) 0.5970(4) 0.8217(2)
H44_3 H 0.6144 0.6500 0.7993
H45_3 H 0.6521 0.5849 0.8401
H46_3 H 0.6014 0.6087 0.8468
C49_3 C 0.50225(16) 0.8988(3) 0.58271(18)
C50_3 C 0.5092(3) 0.9315(5) 0.6313(2)
H47_3 H 0.5332 0.9040 0.6599
C54_3 C 0.4661(3) 0.9380(5) 0.5424(2)
H50_3 H 0.4598 0.9159 0.5084
N7_3 N 0.57152(18) 0.5173(3) 0.73748(17)
N8_2 N 0.59324(16) 0.4331(3) 0.80832(17)
O6_3 O 0.50237(11) 0.7579(2) 0.51823(12)
C59_3 C 0.7890(2) 0.9228(5) 0.5265(2)
H56_3 H 0.8057 0.9349 0.5032
C60_3 C 0.7410(2) 0.9135(5) 0.5122(2)
H57_3 H 0.7182 0.9146 0.4781
C61_3 C 0.77509(19) 0.9009(3) 0.59857(19)
C62_3 C 0.7810(2) 0.8867(5) 0.6547(2)
H58_3 H 0.7490 0.8800 0.6581
H59_3 H 0.7977 0.9388 0.6750
H60_3 H 0.8001 0.8319 0.6674
C63_3 C 0.68390(18) 0.8809(4) 0.56157(19)
C64_3 C 0.65955(19) 0.8070(4) 0.5357(2)
H61_3 H 0.6736 0.7705 0.5162
C65_3 C 0.61321(18) 0.7847(3) 0.53779(19)
H62_3 H 0.5965 0.7330 0.5199
C66_3 C 0.59187(16) 0.8391(3) 0.56635(17)
C67_3 C 0.61723(19) 0.9150(4) 0.5918(2)
H63_3 H 0.6029 0.9531 0.6104
C68_3 C 0.66446(19) 0.9366(4) 0.5905(2)
H64_3 H 0.6820 0.9872 0.6088
N11_3 N 0.81177(14) 0.9125(3) 0.58007(16)
N12_3 N 0.73144(16) 0.9015(3) 0.55860(17)
P2_3 P 0.53295(5) 0.80205(9) 0.56812(5)
Zn2_2 Zn 0.88495(2) 0.89530(4) 0.61455(2)
N14_2 N 0.90676(16) 0.9331(3) 0.69168(17)
N16_2 N 0.89410(14) 0.7577(3) 0.61628(14)
Zn6 Zn 0.61505(2) 0.39530(4) 0.88545(2)
C36_3 C 0.0373(2) 0.0023(4) 0.9737(2)
H33_3 H 0.0354 0.0678 0.9642
C51_3 C 0.5176(3) 0.0041(5) 0.8593(3)
H48_3 H 0.5122 0.0237 0.8249
C52_3 C 0.55098(18) 0.0457(3) 0.8992(2)
C53_3 C 0.5617(3) 0.0101(5) 0.9495(2)
H49_3 H 0.5874 0.0346 0.9776
C55_3 C 0.6272(2) 0.1105(4) 0.8891(2)
H51_3 H 0.6447 0.0560 0.8906
C56_3 C 0.6420(2) 0.1966(4) 0.8841(2)
H52_3 H 0.6724 0.2123 0.8813
C57_3 C 0.56864(18) 0.2094(3) 0.88835(18)
C58_3 C 0.52133(19) 0.2462(4) 0.8900(2)
H53_3 H 0.5008 0.1961 0.8936
H54_3 H 0.5047 0.2793 0.8579
H55_3 H 0.5276 0.2872 0.9195
N9_3 N 0.58056(15) 0.1203(3) 0.89166(16)
N10_2 N 0.60590(14) 0.2577(3) 0.88372(14)
H40_4 H 0.9902 0.0805 0.6740
H41_4 H 0.9769 0.1925 0.6097
C51_4 C 0.9824(3) 0.5041(5) 0.6407(3)
H48_4 H 0.9878 0.5237 0.6751
C52_4 C 0.94902(18) 0.5457(3) 0.6008(2)
C53_4 C 0.9383(3) 0.5101(5) 0.5505(2)
H49_4 H 0.9126 0.5346 0.5224
C54_4 C 0.9661(3) 0.4380(5) 0.5424(2)
H50_4 H 0.9598 0.4159 0.5084
C55_4 C 0.8728(2) 0.6105(4) 0.6109(2)
H51_4 H 0.8553 0.5560 0.6094
C56_4 C 0.8580(2) 0.6966(4) 0.6159(2)
H52_4 H 0.8276 0.7123 0.6187
C57_4 C 0.93136(18) 0.7094(3) 0.61165(18)
C58_4 C 0.97867(19) 0.7462(4) 0.6100(2)
H53_4 H 0.9992 0.6961 0.6064
H54_4 H 0.9953 0.7793 0.6421
H55_4 H 0.9724 0.7872 0.5805
N9_4 N 0.91944(15) 0.6203(3) 0.60834(16)
C24_3 C 0.4485(2) 0.5039(4) 0.9677(2)
H22_3 H 0.4446 0.5683 0.9573
H23_3 H 0.4168 0.4736 0.9515
H25_3 H 0.2182 0.5854 0.9781
C35_4 C 0.5742(2) 0.4570(4) 0.9526(3)
C36_4 C 0.5373(2) 0.5023(4) 0.9737(2)
H33_4 H 0.5354 0.5678 0.9642
C37_3 C 0.48612(19) 0.4603(4) 0.9477(2)
H34_3 H 0.4876 0.3945 0.9547
H35_3 H 0.4760 0.4688 0.9097
O4_4 O 0.60751(17) 0.4075(3) 0.9812(2)
O5_4 O 0.56893(15) 0.4708(3) 0.9058(2)
C39_4 C 0.95317(17) 0.2265(3) 0.87579(18)
C40_4 C 0.90691(19) 0.2065(5) 0.8427(2)
H38_4 H 0.8802 0.2399 0.8452
C41_4 C 0.8987(2) 0.1376(5) 0.8052(3)
H39_4 H 0.8665 0.1230 0.7840
C42_4 C 0.9368(2) 0.0922(4) 0.7996(2)
C43_4 C 0.9832(2) 0.1117(4) 0.8303(2)
C44_4 C 0.9909(2) 0.1793(4) 0.8687(2)
C47_4 C 0.90519(18) 0.0163(4) 0.7108(2)
C48_4 C 0.8824(3) 0.0970(4) 0.6783(2)
H44_4 H 0.8856 0.1500 0.7007
H45_4 H 0.8479 0.0849 0.6599
H46_4 H 0.8986 0.1087 0.6532
C49_4 C 0.99775(16) 0.3988(3) 0.91729(18)
C50_4 C 0.9908(3) 0.4315(5) 0.8687(2)
H47_4 H 0.9668 0.4040 0.8401
N7_4 N 0.92848(18) 0.0173(3) 0.76252(17)
O6_4 O 0.99763(11) 0.2579(2) 0.98177(12)
C59_4 C 0.7110(2) 0.4228(5) 0.9735(2)
H56_4 H 0.6943 0.4349 0.9968
C60_4 C 0.7590(2) 0.4135(5) 0.9878(2)
C61_4 C 0.72491(19) 0.4009(3) 0.90143(19)
C62_4 C 0.7190(2) 0.3867(5) 0.8453(2)
H58_4 H 0.7510 0.3800 0.8419
H59_4 H 0.7023 0.4388 0.8250
H60_4 H 0.6999 0.3319 0.8326
C63_4 C 0.81610(18) 0.3809(4) 0.93843(19)
C64_4 C 0.84045(19) 0.3070(4) 0.9643(2)
H61_4 H 0.8264 0.2705 0.9838
C65_4 C 0.88679(18) 0.2847(3) 0.96221(19)
H62_4 H 0.9035 0.2330 0.9801
C66_4 C 0.90813(16) 0.3391(3) 0.93365(17)
C67_4 C 0.88277(19) 0.4150(4) 0.9082(2)
H63_4 H 0.8971 0.4531 0.8896
C68_4 C 0.83554(19) 0.4366(4) 0.9095(2)
H64_4 H 0.8180 0.4872 0.8912
N11_4 N 0.68823(14) 0.4125(3) 0.91993(16)
N12_4 N 0.76856(16) 0.4015(3) 0.94140(17)
P2_4 P 0.96705(5) 0.30205(9) 0.93188(5)
C45_4 C 0.9460(3) 0.9302(5) 0.7771(3)
H42_4 H 0.9643 0.9100 0.8109
C46_4 C 0.9313(3) 0.8795(5) 0.7328(3)
H43_4 H 0.9373 0.8167 0.7309
C23_4 C 0.01388(19) 0.0397(4) 0.0523(2)
H20_4 H 0.0124 0.1055 0.0453
H21_4 H 0.0240 0.0312 0.0903
H37_4 H 0.0832 0.0264 0.0485
C38_4 C 0.0515(2) 0.9961(4) 0.0323(2)
H36_4 H 0.0554 0.9317 0.0427
H57_4 H 0.2818 0.9146 0.0219
C24_4 C 0.9485(2) 0.0039(4) 0.9677(2)
H22_4 H 0.9446 0.0683 0.9573
H25_4 H 0.7182 0.0854 0.9781
H23_4 H 0.9168 0.9736 0.9515
C37_4 C 0.98612(19) 0.9603(4) 0.9477(2)
H34_4 H 0.9876 0.8945 0.9547
H35_4 H 0.9760 0.9688 0.9097
loop_
_geom_bond_atom_site_label_1
_geom_bond_atom_site_label_2
_geom_bond_site_symmetry_1
_geom_bond_site_symmetry_2
C1 C2 1_555 1_555
C2 H1 1_555 1_555
C3 C2 1_555 1_555
H2 C3 1_555 1_555
C4 C3 1_555 1_555
C5 C4 1_555 1_555
H3 C5 1_555 1_555
C6 C1 1_555 1_555
H4 C6 1_555 1_555
C7 H5 1_555 1_555
C8 C7 1_555 1_555
H6 C8 1_555 1_555
C9 C10 1_555 1_555
C10 H7 1_555 1_555
H8 C10 1_555 1_555
H9 C10 1_555 1_555
C11 C12 1_555 1_555
C12 H10 1_555 1_555
C16 C11 1_555 1_555
H13 C16 1_555 1_555
N1 C4 1_555 1_555
N2 C8 1_555 1_555
O1 P1 1_555 1_555
H22 C24 1_555 1_555
C25 H24 1_555 1_555
C26 C25 1_555 1_555
H25 C26 1_555 1_555
C27 C28 1_555 1_555
C28 H26 1_555 1_555
H27 C28 1_555 1_555
H28 C28 1_555 1_555
C29 C30 1_555 1_555
C30 H29 1_555 1_555
C31 C30 1_555 1_555
H30 C31 1_555 1_555
C32 C31 1_555 1_555
C33 C32 1_555 1_555
H31 C33 1_555 1_555
C34 C29 1_555 1_555
H32 C34 1_555 1_555
N5 C25 1_555 1_555
N6 C26 1_555 1_555
O2 C21 1_555 1_555
O3 C21 1_555 1_555
P1 C1 1_555 1_555
Zn1 N5 1_555 1_555
N13 Zn1 1_555 1_555
N15 Zn1 1_555 1_555
Zn4 N2 1_555 1_555
C5 C6 1_555 1_555
C7 N1 1_555 1_555
C9 N1 1_555 1_555
C9 N2 1_555 1_555
C11 P1 1_555 1_555
C27 N5 1_555 1_555
C27 N6 1_555 1_555
C29 N6 1_555 1_555
C32 P1 1_555 1_555
C33 C34 1_555 1_555
O3 Zn1 1_555 1_555
H11 C13 1_555 1_555
C14 C13 1_555 1_555
C15 C14 1_555 1_555
H12 C15 1_555 1_555
C17 H14 1_555 1_555
C18 C17 1_555 1_555
H15 C18 1_555 1_555
C19 C20 1_555 1_555
C20 H16 1_555 1_555
H17 C20 1_555 1_555
H18 C20 1_555 1_555
N3 C14 1_555 1_555
N4 C18 1_555 1_555
C22 H19 1_555 1_555
Zn4 N4 1_555 1_555
C17 N3 1_555 1_555
C19 N3 1_555 1_555
C19 N4 1_555 1_555
H11_2 C13_2 1_555 1_555
C14_2 C13_2 1_555 1_555
C15_2 C14_2 1_555 1_555
H12_2 C15_2 1_555 1_555
H13_2 C16_2 1_555 1_555
C17_2 H14_2 1_555 1_555
C18_2 C17_2 1_555 1_555
H15_2 C18_2 1_555 1_555
C19_2 C20_2 1_555 1_555
C20_2 H16_2 1_555 1_555
H17_2 C20_2 1_555 1_555
H18_2 C20_2 1_555 1_555
N3_2 C14_2 1_555 1_555
N15 C18_2 1_555 1_555
C15_2 C16_2 1_555 1_555
C17_2 N3_2 1_555 1_555
C19_2 N3_2 1_555 1_555
C19_2 N15 1_555 1_555
C7_2 H5_2 1_555 1_555
C8_2 C7_2 1_555 1_555
H6_2 C8_2 1_555 1_555
N13 C8_2 1_555 1_555
C1_2 C2_2 1_555 1_555
C2_2 H1_2 1_555 1_555
C3_2 C2_2 1_555 1_555
H2_2 C3_2 1_555 1_555
C4_2 C3_2 1_555 1_555
C5_2 C4_2 1_555 1_555
C6_2 C1_2 1_555 1_555
C9_2 C10_2 1_555 1_555
C10_2 H7_2 1_555 1_555
H8_2 C10_2 1_555 1_555
H9_2 C10_2 1_555 1_555
C11_2 C12_2 1_555 1_555
C12_2 H10_2 1_555 1_555
N1_2 C4_2 1_555 1_555
O1_2 P1_2 1_555 1_555
C21_2 C22_2 1_555 1_555
C22_2 H19_2 1_555 1_555
C23 C22_2 1_555 1_555
H20 C23 1_555 1_555
H21 C23 1_555 1_555
C25_2 H24_2 1_555 1_555
C26_2 C25_2 1_555 1_555
C27_2 C28_2 1_555 1_555
C28_2 H26_2 1_555 1_555
H27_2 C28_2 1_555 1_555
H28_2 C28_2 1_555 1_555
C29_2 C30_2 1_555 1_555
C30_2 H29_2 1_555 1_555
C31_2 C30_2 1_555 1_555
H30_2 C31_2 1_555 1_555
C32_2 C31_2 1_555 1_555
C33_2 C32_2 1_555 1_555
H31_2 C33_2 1_555 1_555
C34_2 C29_2 1_555 1_555
H32_2 C34_2 1_555 1_555
N5_2 C25_2 1_555 1_555
N6_2 C26_2 1_555 1_555
O2_2 C21_2 1_555 1_555
O3_2 C21_2 1_555 1_555
P1_2 C1_2 1_555 1_555
Zn4 N5_2 1_555 1_555
C38 C23 1_555 1_555
H36 C38 1_555 1_555
H37 C38 1_555 1_555
C5_2 C6_2 1_555 1_555
C9_2 N1_2 1_555 1_555
C11_2 P1_2 1_555 1_555
C27_2 N5_2 1_555 1_555
C27_2 N6_2 1_555 1_555
C29_2 N6_2 1_555 1_555
C32_2 P1_2 1_555 1_555
C33_2 C34_2 1_555 1_555
O3_2 Zn4 1_555 1_555
H11_3 C13_3 1_555 1_555
C14_3 C13_3 1_555 1_555
C15_3 C14_3 1_555 1_555
H12_3 C15_3 1_555 1_555
C17_3 H14_3 1_555 1_555
C18_3 C17_3 1_555 1_555
H15_3 C18_3 1_555 1_555
C19_3 C20_3 1_555 1_555
C20_3 H16_3 1_555 1_555
H17_3 C20_3 1_555 1_555
H18_3 C20_3 1_555 1_555
N3_3 C14_3 1_555 1_555
N4_2 C18_3 1_555 1_555
C22_3 H19_3 1_555 1_555
H34 C37 1_555 1_555
H35 C37 1_555 1_555
Zn3 N4_2 1_555 1_555
C17_3 N3_3 1_555 1_555
C19_3 N3_3 1_555 1_555
C19_3 N4_2 1_555 1_555
H20_2 C23_2 1_555 1_555
H21_2 C23_2 1_555 1_555
C36 H33 1_555 1_555
H48 C51 1_555 1_555
C52 C51 1_555 1_555
C53 C52 1_555 1_555
H49 C53 1_555 1_555
C55 H51 1_555 1_555
C56 C55 1_555 1_555
H52 C56 1_555 1_555
C57 C58 1_555 1_555
C58 H53 1_555 1_555
H54 C58 1_555 1_555
H55 C58 1_555 1_555
N9 C52 1_555 1_555
N10 C56 1_555 1_555
Zn5 N10 1_555 1_555
C55 N9 1_555 1_555
C57 N9 1_555 1_555
C57 N10 1_555 1_555
O4 C35 1_555 1_555
O5 C35 1_555 1_555
C39 C40 1_555 1_555
C40 H38 1_555 1_555
C41 C40 1_555 1_555
H39 C41 1_555 1_555
C42 C41 1_555 1_555
C43 C42 1_555 1_555
H40 C43 1_555 1_555
C44 C39 1_555 1_555
H41 C44 1_555 1_555
C45 H42 1_555 1_555
C46 C45 1_555 1_555
H43 C46 1_555 1_555
C47 C48 1_555 1_555
C48 H44 1_555 1_555
H45 C48 1_555 1_555
H46 C48 1_555 1_555
C49 C50 1_555 1_555
C50 H47 1_555 1_555
C54 C49 1_555 1_555
H50 C54 1_555 1_555
N7 C42 1_555 1_555
N8 C46 1_555 1_555
O6 P2 1_555 1_555
C59 H56 1_555 1_555
C60 C59 1_555 1_555
C61 C62 1_555 1_555
C62 H58 1_555 1_555
H59 C62 1_555 1_555
H60 C62 1_555 1_555
C63 C64 1_555 1_555
C64 H61 1_555 1_555
C65 C64 1_555 1_555
H62 C65 1_555 1_555
C66 C65 1_555 1_555
C67 C66 1_555 1_555
H63 C67 1_555 1_555
C68 C63 1_555 1_555
H64 C68 1_555 1_555
N11 C59 1_555 1_555
N12 C60 1_555 1_555
P2 C39 1_555 1_555
Zn2 O5 1_555 1_555
N14 Zn2 1_555 1_555
N16 Zn2 1_555 1_555
Zn5 N8 1_555 1_555
C43 C44 1_555 1_555
C45 N7 1_555 1_555
C47 N7 1_555 1_555
C47 N8 1_555 1_555
C49 P2 1_555 1_555
C61 N11 1_555 1_555
C61 N12 1_555 1_555
C63 N12 1_555 1_555
C66 P2 1_555 1_555
C67 C68 1_555 1_555
N11 Zn2 1_555 1_555
C1_3 C2_3 1_555 1_555
C2_3 H1_3 1_555 1_555
C3_3 C2_3 1_555 1_555
H2_3 C3_3 1_555 1_555
C4_3 C3_3 1_555 1_555
C5_3 C4_3 1_555 1_555
H3_3 C5_3 1_555 1_555
C6_3 C1_3 1_555 1_555
H4_3 C6_3 1_555 1_555
C7_3 H5_3 1_555 1_555
C8_3 C7_3 1_555 1_555
H6_3 C8_3 1_555 1_555
C9_3 C10_3 1_555 1_555
C10_3 H7_3 1_555 1_555
H8_3 C10_3 1_555 1_555
H9_3 C10_3 1_555 1_555
C11_3 C12_3 1_555 1_555
C12_3 H10_3 1_555 1_555
C16_3 C11_3 1_555 1_555
H13_3 C16_3 1_555 1_555
N1_3 C4_3 1_555 1_555
N2_2 C8_3 1_555 1_555
O1_3 P1_3 1_555 1_555
C25_3 H24_3 1_555 1_555
C26_3 C25_3 1_555 1_555
C27_3 C28_3 1_555 1_555
C28_3 H26_3 1_555 1_555
H27_3 C28_3 1_555 1_555
H28_3 C28_3 1_555 1_555
C29_3 C30_3 1_555 1_555
C30_3 H29_3 1_555 1_555
C31_3 C30_3 1_555 1_555
H30_3 C31_3 1_555 1_555
C32_3 C31_3 1_555 1_555
C33_3 C32_3 1_555 1_555
H31_3 C33_3 1_555 1_555
C34_3 C29_3 1_555 1_555
H32_3 C34_3 1_555 1_555
N5_3 C25_3 1_555 1_555
N6_3 C26_3 1_555 1_555
O2_3 C21_3 1_555 1_555
O3_3 C21_3 1_555 1_555
P1_3 C1_3 1_555 1_555
Zn1_2 N5_3 1_555 1_555
N13_2 Zn1_2 1_555 1_555
N15_2 Zn1_2 1_555 1_555
Zn3 N2_2 1_555 1_555
C5_3 C6_3 1_555 1_555
C7_3 N1_3 1_555 1_555
C9_3 N1_3 1_555 1_555
C9_3 N2_2 1_555 1_555
C11_3 P1_3 1_555 1_555
C27_3 N5_3 1_555 1_555
C27_3 N6_3 1_555 1_555
C29_3 N6_3 1_555 1_555
C32_3 P1_3 1_555 1_555
C33_3 C34_3 1_555 1_555
O3_3 Zn1_2 1_555 1_555
C7_4 H5_4 1_555 1_555
C8_4 C7_4 1_555 1_555
H6_4 C8_4 1_555 1_555
N13_2 C8_4 1_555 1_555
C1_4 C2_4 1_555 1_555
C2_4 H1_4 1_555 1_555
C3_4 C2_4 1_555 1_555
H2_4 C3_4 1_555 1_555
C4_4 C3_4 1_555 1_555
C5_4 C4_4 1_555 1_555
C6_4 C1_4 1_555 1_555
C9_4 C10_4 1_555 1_555
C10_4 H7_4 1_555 1_555
H8_4 C10_4 1_555 1_555
H9_4 C10_4 1_555 1_555
C11_4 C12_4 1_555 1_555
C12_4 H10_4 1_555 1_555
N1_4 C4_4 1_555 1_555
O1_4 P1_4 1_555 1_555
C21_4 C22_4 1_555 1_555
C22_4 H19_4 1_555 1_555
C23_3 C22_4 1_555 1_555
H20_3 C23_3 1_555 1_555
H21_3 C23_3 1_555 1_555
C24_2 C22_4 1_555 1_555
H22_2 C24_2 1_555 1_555
H23_2 C24_2 1_555 1_555
C25_4 H24_4 1_555 1_555
C26_4 C25_4 1_555 1_555
H25_2 C26_4 1_555 1_555
C27_4 C28_4 1_555 1_555
C28_4 H26_4 1_555 1_555
H27_4 C28_4 1_555 1_555
H28_4 C28_4 1_555 1_555
C29_4 C30_4 1_555 1_555
C30_4 H29_4 1_555 1_555
C31_4 C30_4 1_555 1_555
H30_4 C31_4 1_555 1_555
C32_4 C31_4 1_555 1_555
C33_4 C32_4 1_555 1_555
H31_4 C33_4 1_555 1_555
C34_4 C29_4 1_555 1_555
H32_4 C34_4 1_555 1_555
N5_4 C25_4 1_555 1_555
N6_4 C26_4 1_555 1_555
O2_4 C21_4 1_555 1_555
O3_4 C21_4 1_555 1_555
P1_4 C1_4 1_555 1_555
Zn3 N5_4 1_555 1_555
C35_2 C36_2 1_555 1_555
C36_2 H33_2 1_555 1_555
C37_2 C24_2 1_555 1_555
H34_2 C37_2 1_555 1_555
H35_2 C37_2 1_555 1_555
C38_2 C23_3 1_555 1_555
H36_2 C38_2 1_555 1_555
H37_3 C38_2 1_555 1_555
O4_2 C35_2 1_555 1_555
O5_2 C35_2 1_555 1_555
C39_2 C40_2 1_555 1_555
C40_2 H38_2 1_555 1_555
C41_2 C40_2 1_555 1_555
H39_2 C41_2 1_555 1_555
C42_2 C41_2 1_555 1_555
C43_2 C42_2 1_555 1_555
C44_2 C39_2 1_555 1_555
C47_2 C48_2 1_555 1_555
C48_2 H44_2 1_555 1_555
H45_2 C48_2 1_555 1_555
H46_2 C48_2 1_555 1_555
C49_2 C50_2 1_555 1_555
C50_2 H47_2 1_555 1_555
N7_2 C42_2 1_555 1_555
O6_2 P2_2 1_555 1_555
C59_2 H56_2 1_555 1_555
C60_2 C59_2 1_555 1_555
H57_2 C60_2 1_555 1_555
C61_2 C62_2 1_555 1_555
C62_2 H58_2 1_555 1_555
H59_2 C62_2 1_555 1_555
H60_2 C62_2 1_555 1_555
C63_2 C64_2 1_555 1_555
C64_2 H61_2 1_555 1_555
C65_2 C64_2 1_555 1_555
H62_2 C65_2 1_555 1_555
C66_2 C65_2 1_555 1_555
C67_2 C66_2 1_555 1_555
H63_2 C67_2 1_555 1_555
C68_2 C63_2 1_555 1_555
H64_2 C68_2 1_555 1_555
N11_2 C59_2 1_555 1_555
N12_2 C60_2 1_555 1_555
P2_2 C39_2 1_555 1_555
Zn5 O5_2 1_555 1_555
C5_4 C6_4 1_555 1_555
C9_4 N1_4 1_555 1_555
C11_4 P1_4 1_555 1_555
C27_4 N5_4 1_555 1_555
C27_4 N6_4 1_555 1_555
C29_4 N6_4 1_555 1_555
C32_4 P1_4 1_555 1_555
C33_4 C34_4 1_555 1_555
O3_4 Zn3 1_555 1_555
C36_2 C37_2 1_555 1_555
C36_2 C38_2 1_555 1_555
C43_2 C44_2 1_555 1_555
C47_2 N7_2 1_555 1_555
C49_2 P2_2 1_555 1_555
C61_2 N11_2 1_555 1_555
C61_2 N12_2 1_555 1_555
C63_2 N12_2 1_555 1_555
C66_2 P2_2 1_555 1_555
C67_2 C68_2 1_555 1_555
N11_2 Zn5 1_555 1_555
C45_2 H42_2 1_555 1_555
C46_2 C45_2 1_555 1_555
H43_2 C46_2 1_555 1_555
N14 C46_2 1_555 1_555
H48_2 C51_2 1_555 1_555
C52_2 C51_2 1_555 1_555
C53_2 C52_2 1_555 1_555
H49_2 C53_2 1_555 1_555
H50_2 C54_2 1_555 1_555
C55_2 H51_2 1_555 1_555
C56_2 C55_2 1_555 1_555
H52_2 C56_2 1_555 1_555
C57_2 C58_2 1_555 1_555
C58_2 H53_2 1_555 1_555
H54_2 C58_2 1_555 1_555
H55_2 C58_2 1_555 1_555
N9_2 C52_2 1_555 1_555
N16 C56_2 1_555 1_555
C53_2 C54_2 1_555 1_555
C55_2 N9_2 1_555 1_555
C57_2 N9_2 1_555 1_555
C57_2 N16 1_555 1_555
H11_4 C13_4 1_555 1_555
C14_4 C13_4 1_555 1_555
C15_4 C14_4 1_555 1_555
H12_4 C15_4 1_555 1_555
H13_4 C16_4 1_555 1_555
C17_4 H14_4 1_555 1_555
C18_4 C17_4 1_555 1_555
H15_4 C18_4 1_555 1_555
C19_4 C20_4 1_555 1_555
C20_4 H16_4 1_555 1_555
H17_4 C20_4 1_555 1_555
H18_4 C20_4 1_555 1_555
N3_4 C14_4 1_555 1_555
N15_2 C18_4 1_555 1_555
C15_4 C16_4 1_555 1_555
C17_4 N3_4 1_555 1_555
C19_4 N3_4 1_555 1_555
C19_4 N15_2 1_555 1_555
H36_3 C38_3 1_555 1_555
O4_3 C35_3 1_555 1_555
O5_3 C35_3 1_555 1_555
C39_3 C40_3 1_555 1_555
C40_3 H38_3 1_555 1_555
C41_3 C40_3 1_555 1_555
H39_3 C41_3 1_555 1_555
C42_3 C41_3 1_555 1_555
C43_3 C42_3 1_555 1_555
H40_3 C43_3 1_555 1_555
C44_3 C39_3 1_555 1_555
H41_3 C44_3 1_555 1_555
C45_3 H42_3 1_555 1_555
C46_3 C45_3 1_555 1_555
H43_3 C46_3 1_555 1_555
C47_3 C48_3 1_555 1_555
C48_3 H44_3 1_555 1_555
H45_3 C48_3 1_555 1_555
H46_3 C48_3 1_555 1_555
C49_3 C50_3 1_555 1_555
C50_3 H47_3 1_555 1_555
C54_3 C49_3 1_555 1_555
H50_3 C54_3 1_555 1_555
N7_3 C42_3 1_555 1_555
N8_2 C46_3 1_555 1_555
O6_3 P2_3 1_555 1_555
C59_3 H56_3 1_555 1_555
C60_3 C59_3 1_555 1_555
H57_3 C60_3 1_555 1_555
C61_3 C62_3 1_555 1_555
C62_3 H58_3 1_555 1_555
H59_3 C62_3 1_555 1_555
H60_3 C62_3 1_555 1_555
C63_3 C64_3 1_555 1_555
C64_3 H61_3 1_555 1_555
C65_3 C64_3 1_555 1_555
H62_3 C65_3 1_555 1_555
C66_3 C65_3 1_555 1_555
C67_3 C66_3 1_555 1_555
H63_3 C67_3 1_555 1_555
C68_3 C63_3 1_555 1_555
H64_3 C68_3 1_555 1_555
N11_3 C59_3 1_555 1_555
N12_3 C60_3 1_555 1_555
P2_3 C39_3 1_555 1_555
Zn2_2 O5_3 1_555 1_555
N14_2 Zn2_2 1_555 1_555
N16_2 Zn2_2 1_555 1_555
Zn6 N8_2 1_555 1_555
C43_3 C44_3 1_555 1_555
C45_3 N7_3 1_555 1_555
C47_3 N7_3 1_555 1_555
C47_3 N8_2 1_555 1_555
C49_3 P2_3 1_555 1_555
C61_3 N11_3 1_555 1_555
C61_3 N12_3 1_555 1_555
C63_3 N12_3 1_555 1_555
C66_3 P2_3 1_555 1_555
C67_3 C68_3 1_555 1_555
N11_3 Zn2_2 1_555 1_555
C36_3 H33_3 1_555 1_555
H48_3 C51_3 1_555 1_555
C52_3 C51_3 1_555 1_555
C53_3 C52_3 1_555 1_555
H49_3 C53_3 1_555 1_555
C55_3 H51_3 1_555 1_555
C56_3 C55_3 1_555 1_555
H52_3 C56_3 1_555 1_555
C57_3 C58_3 1_555 1_555
C58_3 H53_3 1_555 1_555
H54_3 C58_3 1_555 1_555
H55_3 C58_3 1_555 1_555
N9_3 C52_3 1_555 1_555
N10_2 C56_3 1_555 1_555
Zn6 N10_2 1_555 1_555
C55_3 N9_3 1_555 1_555
C57_3 N9_3 1_555 1_555
C57_3 N10_2 1_555 1_555
H48_4 C51_4 1_555 1_555
C52_4 C51_4 1_555 1_555
C53_4 C52_4 1_555 1_555
H49_4 C53_4 1_555 1_555
H50_4 C54_4 1_555 1_555
C55_4 H51_4 1_555 1_555
C56_4 C55_4 1_555 1_555
H52_4 C56_4 1_555 1_555
C57_4 C58_4 1_555 1_555
C58_4 H53_4 1_555 1_555
H54_4 C58_4 1_555 1_555
H55_4 C58_4 1_555 1_555
N9_4 C52_4 1_555 1_555
N16_2 C56_4 1_555 1_555
C53_4 C54_4 1_555 1_555
C55_4 N9_4 1_555 1_555
C57_4 N9_4 1_555 1_555
C57_4 N16_2 1_555 1_555
H22_3 C24_3 1_555 1_555
H23_3 C24_3 1_555 1_555
C35_4 C36_4 1_555 1_555
C36_4 H33_4 1_555 1_555
C37_3 C24_3 1_555 1_555
H34_3 C37_3 1_555 1_555
H35_3 C37_3 1_555 1_555
O4_4 C35_4 1_555 1_555
O5_4 C35_4 1_555 1_555
C39_4 C40_4 1_555 1_555
C40_4 H38_4 1_555 1_555
C41_4 C40_4 1_555 1_555
H39_4 C41_4 1_555 1_555
C42_4 C41_4 1_555 1_555
C43_4 C42_4 1_555 1_555
C44_4 C39_4 1_555 1_555
C47_4 C48_4 1_555 1_555
C48_4 H44_4 1_555 1_555
H45_4 C48_4 1_555 1_555
H46_4 C48_4 1_555 1_555
C49_4 C50_4 1_555 1_555
C50_4 H47_4 1_555 1_555
N7_4 C42_4 1_555 1_555
O6_4 P2_4 1_555 1_555
C59_4 H56_4 1_555 1_555
C60_4 C59_4 1_555 1_555
C61_4 C62_4 1_555 1_555
C62_4 H58_4 1_555 1_555
H59_4 C62_4 1_555 1_555
H60_4 C62_4 1_555 1_555
C63_4 C64_4 1_555 1_555
C64_4 H61_4 1_555 1_555
C65_4 C64_4 1_555 1_555
H62_4 C65_4 1_555 1_555
C66_4 C65_4 1_555 1_555
C67_4 C66_4 1_555 1_555
H63_4 C67_4 1_555 1_555
C68_4 C63_4 1_555 1_555
H64_4 C68_4 1_555 1_555
N11_4 C59_4 1_555 1_555
N12_4 C60_4 1_555 1_555
P2_4 C39_4 1_555 1_555
Zn6 O5_4 1_555 1_555
C36_4 C37_3 1_555 1_555
C43_4 C44_4 1_555 1_555
C47_4 N7_4 1_555 1_555
C49_4 P2_4 1_555 1_555
C61_4 N11_4 1_555 1_555
C61_4 N12_4 1_555 1_555
C63_4 N12_4 1_555 1_555
C66_4 P2_4 1_555 1_555
C67_4 C68_4 1_555 1_555
N11_4 Zn6 1_555 1_555
C45_4 H42_4 1_555 1_555
C46_4 C45_4 1_555 1_555
H43_4 C46_4 1_555 1_555
N14_2 C46_4 1_555 1_555
H20_4 C23_4 1_555 1_555
H21_4 C23_4 1_555 1_555
H36_4 C38_4 1_555 1_555
H22_4 C24_4 1_555 1_555
H34_4 C37_4 1_555 1_555
H35_4 C37_4 1_555 1_555

#END
