
###############################################################################
#
# This file contains modified crystal structure data generated from the
# MOF subset of the Cambridge Structural Database (CSD) v543 
# hosted by the Cambridge Crystallographic Data Centre (CCDC).
#
# This work is licensed under the Creative Commons
# Attribution-NonCommercial-ShareAlike 4.0 International License.
# To view a copy of this license, visit
# http://creativecommons.org/licenses/by-nc-sa/4.0/
# or send a letter to
# Creative Commons, PO Box 1866, Mountain View, CA 94042, USA.
#
# CIF created using the CSD Python API on 29 September 2022
# The structure has been converted into the P1 space group
# The structure has a 3D framework
# The original CSD entry POPPAO is in the triclinic crystal system
# The framework has been calculated to contain at least 10.0% void space
# The void calculation uses a probe of radius 1.32A, grid spacing 0.4
# The framework is charged, counterions have been retained in the structure
# H atom positions have been added when not included in the experimental data
#
###############################################################################

data_POPPAO
_chemical_formula_moiety         '(C50 H42 F2 O36 P8 U6 2-)n'
_symmetry_cell_setting           triclinic
_symmetry_space_group_name_H-M   'P 1'
_symmetry_Int_Tables_number      1
_space_group_name_Hall           'P 1'
loop_
_symmetry_equiv_pos_site_id
_symmetry_equiv_pos_as_xyz
1 x,y,z
_cell_length_a                   11.9974(15)
_cell_length_b                   13.7795(17)
_cell_length_c                   15.0397(19)
_cell_angle_alpha                99.357(3)
_cell_angle_beta                 92.188(3)
_cell_angle_gamma                109.935(3)
_cell_volume                     2294.48
loop_
_atom_site_label
_atom_site_type_symbol
_atom_site_fract_x
_atom_site_fract_y
_atom_site_fract_z
O18 O 0.0307(4) 0.1276(3) 0.7086(3)
U1 U 0.01343(2) 0.11383(2) 0.10567(2)
U2 U 0.11206(2) 0.56192(2) 0.12028(2)
P2 P 0.00315(12) 0.85397(10) 0.53102(9)
O4 O 0.0750(4) 0.8123(4) 0.5971(3)
O6 O 0.0894(4) 0.9081(3) 0.4700(3)
O14 O 0.1569(4) 0.1843(4) 0.0768(3)
O16 O 0.2257(3) 0.5249(3) 0.0691(2)
U11 U 0.11804(2) 0.95753(2) 0.32709(2)
F4 F 0.0947(3) 0.0615(2) 0.2246(2)
O21 O 0.1947(3) 0.7291(3) 0.0661(2)
O23 O 0.0434(3) 0.2486(3) 0.2301(3)
O24 O 0.0956(4) 0.4396(3) 0.2109(3)
O26 O 0.2497(3) 0.6746(3) 0.2358(2)
H18 H 0.0192103 0.768908 0.634448
O20 O 0.0343(3) 0.5896(3) 0.9712(2)
F3 F 0.0468(4) 0.9579(3) 0.0498(2)
U3 U 0.88196(2) 0.04247(2) 0.67291(2)
O19 O 0.8319(5) 0.0971(4) 0.8281(3)
O22 O 0.9106(4) 0.0919(3) 0.5300(3)
O25 O 0.8135(4) 0.1837(3) 0.6762(3)
H20 H 0.903056 0.11598 0.872226
H21 H 0.806759 0.158889 0.829523
P1 P 0.87468(11) 0.29887(9) 0.02819(8)
P3 P 0.11270(11) 0.36382(10) 0.26578(8)
P4 P 0.71952(12) 0.23268(10) 0.68757(8)
F2 F 0.9053(3) 0.9385(2) 0.7754(2)
O1 O 0.9318(3) 0.2215(3) 0.0460(2)
O2 O 0.9657(3) 0.4104(3) 0.0288(2)
O5 O 0.9453(4) 0.9184(3) 0.5879(3)
O8 O 0.0701(4) 0.3924(4) 0.3613(3)
O10 O 0.5972(4) 0.1523(3) 0.7048(3)
O12 O 0.7503(3) 0.3254(3) 0.7642(2)
O13 O 0.8707(4) 0.0423(3) 0.1359(3)
O15 O 0.9993(3) 0.5982(3) 0.1720(3)
O17 O 0.7332(4) 0.9554(3) 0.6379(3)
C1 C 0.7820(4) 0.3142(4) 0.1168(3)
C2 C 0.7230(6) 0.3850(5) 0.1178(4)
H1 H 0.718946 0.414447 0.066930
C3 C 0.6706(6) 0.4123(5) 0.1925(4)
H2 H 0.628918 0.457861 0.190686
C4 C 0.6788(4) 0.3729(4) 0.2713(3)
C5 C 0.7281(5) 0.2948(4) 0.2672(3)
H3 H 0.727088 0.261636 0.316456
C6 C 0.7785(5) 0.2655(4) 0.1912(4)
H4 H 0.810515 0.212637 0.189725
C7 C 0.8898(5) 0.7364(4) 0.4688(3)
C8 C 0.9123(5) 0.6778(4) 0.3929(4)
H5 H 0.983550 0.704251 0.367719
C9 C 0.8307(5) 0.5805(4) 0.3536(3)
H6 H 0.847553 0.542848 0.301983
C10 C 0.7239(4) 0.5381(4) 0.3901(3)
C11 C 0.7002(5) 0.5986(4) 0.4656(3)
H7 H 0.629105 0.572071 0.491060
C12 C 0.7805(5) 0.6973(4) 0.5035(3)
H8 H 0.761494 0.737716 0.552183
C13 C 0.2679(5) 0.3821(4) 0.2844(3)
C14 C 0.3535(5) 0.4833(4) 0.3073(4)
H9 H 0.330572 0.541164 0.306110
C15 C 0.4730(5) 0.4990(4) 0.3320(4)
H10 H 0.528371 0.566905 0.348030
C16 C 0.5092(4) 0.4122(4) 0.3324(3)
C17 C 0.4237(5) 0.3115(4) 0.3026(3)
H11 H 0.447204 0.253248 0.297438
C18 C 0.3059(5) 0.2971(4) 0.2808(3)
H12 H 0.250792 0.229228 0.263343
C19 C 0.6909(5) 0.2771(4) 0.5862(3)
C20 C 0.7860(5) 0.3379(5) 0.5459(4)
H13 H 0.863612 0.348384 0.567730
C21 C 0.7669(5) 0.3829(5) 0.4739(4)
H14 H 0.831892 0.424207 0.448793
C22 C 0.6519(4) 0.3677(4) 0.4382(3)
C23 C 0.5583(5) 0.3076(5) 0.4790(4)
H15 H 0.480648 0.297122 0.457235
C24 C 0.5771(5) 0.2624(4) 0.5517(4)
H16 H 0.512167 0.221756 0.577303
C25 C 0.6389(4) 0.4225(4) 0.3580(3)
U6 U 0.98657(2) 0.88617(2) 0.89433(2)
U9 U 0.88794(2) 0.43808(2) 0.87972(2)
H17 H 0.60763 0.125499 0.760802
H19 H 0.0865812 0.348404 0.402544
F1 F 0.9532(4) 0.0421(3) 0.9502(2)
O3 O 0.8053(3) 0.2709(3) 0.9339(2)
P1_2 P 0.12532(11) 0.70113(9) 0.97181(8)
P3_2 P 0.88730(11) 0.63618(10) 0.73422(8)
P4_2 P 0.28048(12) 0.76732(10) 0.31243(8)
O1_2 O 0.0682(3) 0.7785(3) 0.9540(2)
O5_2 O 0.0547(4) 0.0816(3) 0.4121(3)
O7 O 0.9566(3) 0.7514(3) 0.7699(3)
O8_2 O 0.9299(4) 0.6076(4) 0.6387(3)
O9 O 0.9044(4) 0.5604(3) 0.7891(3)
O10_2 O 0.4028(4) 0.8477(3) 0.2952(3)
O11 O 0.1865(4) 0.8163(3) 0.3238(3)
O13_2 O 0.1293(4) 0.9577(3) 0.8641(3)
O15_2 O 0.0007(3) 0.4018(3) 0.8280(3)
O17_2 O 0.2668(4) 0.0446(3) 0.3621(3)
C1_2 C 0.2180(4) 0.6858(4) 0.8832(3)
C2_2 C 0.2770(6) 0.6150(5) 0.8822(4)
H1_2 H 0.281054 0.585553 0.933070
C3_2 C 0.3294(6) 0.5877(5) 0.8075(4)
H2_2 H 0.371082 0.542139 0.809314
C4_2 C 0.3212(4) 0.6271(4) 0.7287(3)
C5_2 C 0.2719(5) 0.7052(4) 0.7328(3)
H3_2 H 0.272912 0.738364 0.683544
C6_2 C 0.2215(5) 0.7345(4) 0.8088(4)
H4_2 H 0.189485 0.787363 0.810275
C7_2 C 0.1102(5) 0.2636(4) 0.5312(3)
C8_2 C 0.0877(5) 0.3222(4) 0.6071(4)
H5_2 H 0.016450 0.295749 0.632281
C9_2 C 0.1693(5) 0.4195(4) 0.6464(3)
H6_2 H 0.152447 0.457152 0.698017
C10_2 C 0.2761(4) 0.4619(4) 0.6099(3)
C11_2 C 0.2998(5) 0.4014(4) 0.5344(3)
H7_2 H 0.370895 0.427929 0.508940
C12_2 C 0.2195(5) 0.3027(4) 0.4965(3)
H8_2 H 0.238506 0.262284 0.447817
C13_2 C 0.7321(5) 0.6179(4) 0.7156(3)
C14_2 C 0.6465(5) 0.5167(4) 0.6927(4)
H9_2 H 0.669428 0.458836 0.693890
C15_2 C 0.5270(5) 0.5010(4) 0.6680(4)
H10_2 H 0.471629 0.433095 0.651970
C16_2 C 0.4908(4) 0.5878(4) 0.6676(3)
C17_2 C 0.5763(5) 0.6885(4) 0.6974(3)
H11_2 H 0.552796 0.746752 0.702562
C18_2 C 0.6941(5) 0.7029(4) 0.7192(3)
H12_2 H 0.749208 0.770772 0.736657
C19_2 C 0.3091(5) 0.7229(4) 0.4138(3)
C20_2 C 0.2140(5) 0.6621(5) 0.4541(4)
H13_2 H 0.136388 0.651616 0.432270
C21_2 C 0.2331(5) 0.6171(5) 0.5261(4)
H14_2 H 0.168108 0.575793 0.551207
C22_2 C 0.3481(4) 0.6323(4) 0.5618(3)
C23_2 C 0.4417(5) 0.6924(5) 0.5210(4)
H15_2 H 0.519352 0.702878 0.542765
C24_2 C 0.4229(5) 0.7376(4) 0.4483(4)
H16_2 H 0.487833 0.778244 0.422697
C25_2 C 0.3611(4) 0.5775(4) 0.6420(3)
H17_2 H 0.39237 0.874501 0.239198
H19_2 H 0.913419 0.651596 0.597456
O19_2 O 0.1681(5) 0.9029(4) 0.1719(3)
H20_2 H 0.0969435 0.88402 0.127774
H21_2 H 0.193241 0.841111 0.170477
P2_2 P 0.99685(12) 0.14603(10) 0.46898(9)
O4_2 O 0.9250(4) 0.1877(4) 0.4029(3)
O14_2 O 0.8431(4) 0.8157(4) 0.9232(3)
O16_2 O 0.7743(3) 0.4751(3) 0.9309(2)
H18_2 H 0.98079 0.231092 0.365552
O18_2 O 0.9693(4) 0.8724(3) 0.2914(3)
loop_
_geom_bond_atom_site_label_1
_geom_bond_atom_site_label_2
_geom_bond_site_symmetry_1
_geom_bond_site_symmetry_2
P2 O4 1_555 1_555
O6 P2 1_555 1_555
O14 U1 1_555 1_555
O16 U2 1_555 1_555
U11 O6 1_555 1_555
F4 U1 1_555 1_555
O21 U2 1_555 1_555
O23 U1 1_555 1_555
O24 U2 1_555 1_555
O26 U2 1_555 1_555
O4 H18 1_555 1_555
O19 U3 1_555 1_555
O22 U3 1_555 1_555
O25 U3 1_555 1_555
O19 H20 1_555 1_555
O19 H21 1_555 1_555
P1 O1 1_555 1_555
P3 O23 1_555 1_555
P4 O10 1_555 1_555
F2 U6 1_555 1_555
O2 P1 1_555 1_555
O8 P3 1_555 1_555
O24 P3 1_555 1_555
O25 P4 1_555 1_555
O12 P4 1_555 1_555
C1 P1 1_555 1_555
C2 C1 1_555 1_555
H1 C2 1_555 1_555
C3 C2 1_555 1_555
H2 C3 1_555 1_555
C4 C3 1_555 1_555
C5 C4 1_555 1_555
H3 C5 1_555 1_555
C6 C1 1_555 1_555
H4 C6 1_555 1_555
C8 C7 1_555 1_555
H5 C8 1_555 1_555
C9 C8 1_555 1_555
H6 C9 1_555 1_555
C10 C9 1_555 1_555
C11 C10 1_555 1_555
H7 C11 1_555 1_555
C12 C7 1_555 1_555
H8 C12 1_555 1_555
C13 P3 1_555 1_555
C14 C13 1_555 1_555
H9 C14 1_555 1_555
C15 C14 1_555 1_555
H10 C15 1_555 1_555
C16 C15 1_555 1_555
C17 C16 1_555 1_555
H11 C17 1_555 1_555
C18 C13 1_555 1_555
H12 C18 1_555 1_555
C19 P4 1_555 1_555
C20 C19 1_555 1_555
H13 C20 1_555 1_555
C21 C20 1_555 1_555
H14 C21 1_555 1_555
C22 C21 1_555 1_555
C23 C22 1_555 1_555
H15 C23 1_555 1_555
C24 C19 1_555 1_555
H16 C24 1_555 1_555
C25 C4 1_555 1_555
U9 O12 1_555 1_555
C5 C6 1_555 1_555
C10 C25 1_555 1_555
C11 C12 1_555 1_555
C16 C25 1_555 1_555
C17 C18 1_555 1_555
C22 C25 1_555 1_555
C23 C24 1_555 1_555
O10 H17 1_555 1_555
O8 H19 1_555 1_555
O3 U9 1_555 1_555
P1_2 O1_2 1_555 1_555
P3_2 O7 1_555 1_555
P4_2 O10_2 1_555 1_555
O20 P1_2 1_555 1_555
O7 U6 1_555 1_555
O8_2 P3_2 1_555 1_555
O9 P3_2 1_555 1_555
O11 P4_2 1_555 1_555
O26 P4_2 1_555 1_555
C1_2 P1_2 1_555 1_555
C2_2 C1_2 1_555 1_555
H1_2 C2_2 1_555 1_555
C3_2 C2_2 1_555 1_555
H2_2 C3_2 1_555 1_555
C4_2 C3_2 1_555 1_555
C5_2 C4_2 1_555 1_555
H3_2 C5_2 1_555 1_555
C6_2 C1_2 1_555 1_555
H4_2 C6_2 1_555 1_555
C8_2 C7_2 1_555 1_555
H5_2 C8_2 1_555 1_555
C9_2 C8_2 1_555 1_555
H6_2 C9_2 1_555 1_555
C10_2 C9_2 1_555 1_555
C11_2 C10_2 1_555 1_555
H7_2 C11_2 1_555 1_555
C12_2 C7_2 1_555 1_555
H8_2 C12_2 1_555 1_555
C13_2 P3_2 1_555 1_555
C14_2 C13_2 1_555 1_555
H9_2 C14_2 1_555 1_555
C15_2 C14_2 1_555 1_555
H10_2 C15_2 1_555 1_555
C16_2 C15_2 1_555 1_555
C17_2 C16_2 1_555 1_555
H11_2 C17_2 1_555 1_555
C18_2 C13_2 1_555 1_555
H12_2 C18_2 1_555 1_555
C19_2 P4_2 1_555 1_555
C20_2 C19_2 1_555 1_555
H13_2 C20_2 1_555 1_555
C21_2 C20_2 1_555 1_555
H14_2 C21_2 1_555 1_555
C22_2 C21_2 1_555 1_555
C23_2 C22_2 1_555 1_555
H15_2 C23_2 1_555 1_555
C24_2 C19_2 1_555 1_555
H16_2 C24_2 1_555 1_555
C25_2 C4_2 1_555 1_555
U9 O9 1_555 1_555
U11 O11 1_555 1_555
C5_2 C6_2 1_555 1_555
C10_2 C25_2 1_555 1_555
C11_2 C12_2 1_555 1_555
C16_2 C25_2 1_555 1_555
C17_2 C18_2 1_555 1_555
C22_2 C25_2 1_555 1_555
C23_2 C24_2 1_555 1_555
O10_2 H17_2 1_555 1_555
O8_2 H19_2 1_555 1_555
O19_2 U11 1_555 1_555
O19_2 H20_2 1_555 1_555
O19_2 H21_2 1_555 1_555
P2_2 O4_2 1_555 1_555
O22 P2_2 1_555 1_555
O14_2 U6 1_555 1_555
O16_2 U9 1_555 1_555
O4_2 H18_2 1_555 1_555

#END
