
###############################################################################
#
# This file contains modified crystal structure data generated from the
# MOF subset of the Cambridge Structural Database (CSD) v543 
# hosted by the Cambridge Crystallographic Data Centre (CCDC).
#
# This work is licensed under the Creative Commons
# Attribution-NonCommercial-ShareAlike 4.0 International License.
# To view a copy of this license, visit
# http://creativecommons.org/licenses/by-nc-sa/4.0/
# or send a letter to
# Creative Commons, PO Box 1866, Mountain View, CA 94042, USA.
#
# CIF created using the CSD Python API on 29 September 2022
# The structure has been converted into the P1 space group
# The structure has a 3D framework
# The original CSD entry POPXOK is in the cubic crystal system
# The framework has been calculated to contain at least 10.0% void space
# The void calculation uses a probe of radius 1.32A, grid spacing 0.4
#
###############################################################################

data_POPXOK
_chemical_formula_moiety         '(C864 H768 N192 O492 Th96)n'
_symmetry_cell_setting           triclinic
_symmetry_space_group_name_H-M   'P 1'
_symmetry_Int_Tables_number      1
_space_group_name_Hall           'P 1'
loop_
_symmetry_equiv_pos_site_id
_symmetry_equiv_pos_as_xyz
1 x,y,z
_cell_length_a                   35.1727(7)
_cell_length_b                   35.1727(7)
_cell_length_c                   35.1727(7)
_cell_angle_alpha                90
_cell_angle_beta                 90
_cell_angle_gamma                90
_cell_volume                     43512.8
loop_
_atom_site_label
_atom_site_type_symbol
_atom_site_fract_x
_atom_site_fract_y
_atom_site_fract_z
O1 O 0.4344(4) 0.0040(4) 0.1071(4)
H6 H 0.348743 0.000417 0.209393
H7 H 0.391657 0.013884 0.162561
O10 O 0.2460(4) 0.1429(4) 0.4344(4)
O11 O 0.3054(4) 0.1669(4) 0.4253(4)
N5 N 0.3125(4) 0.0334(5) 0.3060(5)
H14 H 0.334029 0.037998 0.295498
C18 C 0.2793(6) 0.1436(5) 0.4191(5)
C19 C 0.2866(5) 0.1144(4) 0.3888(5)
C20 C 0.3210(5) 0.1135(5) 0.3705(6)
H15 H 0.339056 0.132021 0.376143
C21 C 0.3295(6) 0.0861(5) 0.3442(7)
H16 H 0.353500 0.085230 0.333249
C22 C 0.3016(5) 0.0590(6) 0.3339(6)
C23 C 0.2675(6) 0.0594(6) 0.3535(6)
H17 H 0.249583 0.040607 0.348743
C24 C 0.2597(5) 0.0870(5) 0.3797(6)
H18 H 0.236116 0.087439 0.391657
C25 C 0.2940(5) 0.0016(5) 0.2926(5)
Th3 Th 0.31389(2) 0.22597(2) 0.45999(2)
O16 O 0.2506(4) 0.2271(4) 0.4368(8)
O17 O 0.3795(5) 0.2051(4) 0.4198(5)
H22 H 0.3879(15) 0.2196(16) 0.4035(7)
H23 H 0.384(6) 0.1824(6) 0.416(5)
O18 O 0.3592(4) 0.3203(5) 0.5017(5)
O19 O 0.3709(4) 0.2689(5) 0.4630(5)
C27 C 0.3809(9) 0.3005(9) 0.4773(8)
H24 H 0.404474 0.310459 0.470575
Th4 Th 0.22597(2) 0.29001(2) 0.43611(2)
Th6 Th 0.29001(2) 0.31389(2) 0.52403(2)
Th11 Th 0.20999(2) 0.18611(2) 0.47597(2)
Th12 Th 0.47597(2) 0.04001(2) 0.06389(2)
O21 O 0.3571(4) 0.1844(4) 0.4960(4)
O24 O 0.3132(8) 0.2506(4) 0.5229(4)
O27 O 0.2729(4) 0.1868(8) 0.5006(4)
O30 O 0.2889(4) 0.2889(4) 0.4611(4)
O31 O 0.3203(5) 0.2483(5) 0.3908(4)
Th7 Th 0.43611(2) 0.02403(2) 0.95999(2)
Th1 Th 0.45999(2) 0.93611(2) 0.02403(2)
O2 O 0.4253(4) 0.9446(4) 0.0831(4)
O3 O 0.4368(8) 0.9994(4) 0.0229(4)
O5 O 0.4198(5) 0.8705(5) 0.0449(4)
H1 H 0.4035(7) 0.8621(15) 0.0304(16)
H2 H 0.416(5) 0.866(6) 0.0676(6)
N1 N 0.3060(5) 0.9375(4) 0.2166(5)
H3 H 0.295498 0.915971 0.212002
N2 N 0.3101(4) 0.9872(4) 0.2609(4)
C1 C 0.4191(5) 0.9707(6) 0.1064(5)
C2 C 0.3888(5) 0.9634(5) 0.1356(4)
C3 C 0.3705(6) 0.9290(5) 0.1365(5)
H4 H 0.376143 0.910944 0.117979
C4 C 0.3442(7) 0.9205(6) 0.1639(5)
H5 H 0.333249 0.896500 0.164770
C5 C 0.3339(6) 0.9484(5) 0.1910(6)
C6 C 0.3535(6) 0.9825(6) 0.1906(6)
C7 C 0.3797(6) 0.9903(5) 0.1630(5)
C8 C 0.2926(5) 0.9560(5) 0.2484(5)
O8 O 0.1071(4) 0.8156(4) 0.2460(4)
O9 O 0.0831(4) 0.8247(4) 0.3054(4)
N3 N 0.2166(5) 0.9440(5) 0.3125(4)
H9 H 0.212002 0.954502 0.334029
N4 N 0.2609(4) 0.9399(4) 0.2628(4)
C10 C 0.1064(5) 0.8309(5) 0.2793(6)
C11 C 0.1356(4) 0.8612(5) 0.2866(5)
C12 C 0.1365(5) 0.8795(6) 0.3210(5)
H10 H 0.117979 0.873857 0.339056
C13 C 0.1639(5) 0.9058(7) 0.3295(6)
H11 H 0.164770 0.916751 0.353500
C14 C 0.1910(6) 0.9161(6) 0.3016(5)
C15 C 0.1906(6) 0.8965(6) 0.2675(6)
H12 H 0.209393 0.901257 0.249583
C16 C 0.1630(5) 0.8703(6) 0.2597(5)
H13 H 0.162561 0.858343 0.236116
C17 C 0.2484(5) 0.9574(5) 0.2940(5)
N6 N 0.2628(4) 0.9891(4) 0.3101(4)
Th2 Th 0.02403(2) 0.79001(2) 0.31389(2)
O12 O 0.0229(4) 0.8132(8) 0.2506(4)
O13 O 0.0449(4) 0.8302(5) 0.3795(5)
H19 H 0.0304(16) 0.8465(7) 0.3879(15)
H20 H 0.0676(6) 0.834(5) 0.384(6)
Th10 Th 0.06389(2) 0.77403(2) 0.20999(2)
O20 O 0.0656(4) 0.7540(4) 0.3571(4)
O22 O 0.4960(4) 0.8929(4) 0.0656(4)
O26 O 0.0632(8) 0.7494(4) 0.2729(4)
O28 O 0.5006(4) 0.9771(4) 0.0632(8)
O32 O 0.3908(4) 0.9297(5) 0.0017(5)
O33 O 0.0017(5) 0.8592(4) 0.3203(5)
O4 O 0.4611(4) 0.9611(4) 0.9611(4)
O6 O 0.5017(5) 0.8908(4) 0.9297(5)
O7 O 0.4630(5) 0.8791(4) 0.9811(5)
C9 C 0.4773(8) 0.8691(9) 0.9495(9)
H8 H 0.470575 0.845526 0.939541
Th9 Th 0.52403(2) 0.95999(2) 0.93611(2)
O25 O 0.5229(4) 0.9368(8) 0.9994(4)
O14 O 0.9297(5) 0.7483(5) 0.3592(4)
O15 O 0.9811(5) 0.7870(5) 0.3709(4)
C26 C 0.9495(9) 0.7727(8) 0.3809(9)
H21 H 0.939541 0.779425 0.404474
Th5 Th 0.93611(2) 0.72597(2) 0.29001(2)
Th8 Th 0.95999(2) 0.81389(2) 0.22597(2)
O23 O 0.9994(4) 0.7271(4) 0.3132(8)
O29 O 0.9611(4) 0.7889(4) 0.2889(4)
O8_2 O 0.1429(4) 0.4344(4) 0.2460(4)
O9_2 O 0.1669(4) 0.4253(4) 0.3054(4)
N3_2 N 0.0334(5) 0.3060(5) 0.3125(4)
H9_2 H 0.037998 0.295498 0.334029
C10_2 C 0.1436(5) 0.4191(5) 0.2793(6)
C11_2 C 0.1144(4) 0.3888(5) 0.2866(5)
C12_2 C 0.1135(5) 0.3705(6) 0.3210(5)
H10_2 H 0.132021 0.376143 0.339056
C13_2 C 0.0861(5) 0.3442(7) 0.3295(6)
H11_2 H 0.085230 0.333249 0.353500
C14_2 C 0.0590(6) 0.3339(6) 0.3016(5)
C15_2 C 0.0594(6) 0.3535(6) 0.2675(6)
H12_2 H 0.040607 0.348743 0.249583
C16_2 C 0.0870(5) 0.3797(6) 0.2597(5)
H13_2 H 0.087439 0.391657 0.236116
C17_2 C 0.0016(5) 0.2926(5) 0.2940(5)
O10_2 O 0.0040(4) 0.1071(4) 0.4344(4)
H17_2 H 0.000417 0.209393 0.348743
H18_2 H 0.013884 0.162561 0.391657
Th2_2 Th 0.22597(2) 0.45999(2) 0.31389(2)
O12_2 O 0.2271(4) 0.4368(8) 0.2506(4)
O13_2 O 0.2051(4) 0.4198(5) 0.3795(5)
H19_2 H 0.2196(16) 0.4035(7) 0.3879(15)
H20_2 H 0.1824(6) 0.416(5) 0.384(6)
O14_2 O 0.3203(5) 0.5017(5) 0.3592(4)
O15_2 O 0.2689(5) 0.4630(5) 0.3709(4)
C26_2 C 0.3005(9) 0.4773(8) 0.3809(9)
H21_2 H 0.310459 0.470575 0.404474
Th5_2 Th 0.31389(2) 0.52403(2) 0.29001(2)
Th8_2 Th 0.29001(2) 0.43611(2) 0.22597(2)
Th10_2 Th 0.18611(2) 0.47597(2) 0.20999(2)
Th11_2 Th 0.04001(2) 0.06389(2) 0.47597(2)
O20_2 O 0.1844(4) 0.4960(4) 0.3571(4)
O23_2 O 0.2506(4) 0.5229(4) 0.3132(8)
O26_2 O 0.1868(8) 0.5006(4) 0.2729(4)
O29_2 O 0.2889(4) 0.4611(4) 0.2889(4)
O33_2 O 0.2483(5) 0.3908(4) 0.3203(5)
Th4_2 Th 0.02403(2) 0.95999(2) 0.43611(2)
Th1_2 Th 0.79001(2) 0.31389(2) 0.02403(2)
O1_2 O 0.8156(4) 0.2460(4) 0.1071(4)
O2_2 O 0.8247(4) 0.3054(4) 0.0831(4)
O3_2 O 0.8132(8) 0.2506(4) 0.0229(4)
O5_2 O 0.8302(5) 0.3795(5) 0.0449(4)
H1_2 H 0.8465(7) 0.3879(15) 0.0304(16)
H2_2 H 0.834(5) 0.384(6) 0.0676(6)
N1_2 N 0.9440(5) 0.3125(4) 0.2166(5)
H3_2 H 0.954502 0.334029 0.212002
N2_2 N 0.9399(4) 0.2628(4) 0.2609(4)
C1_2 C 0.8309(5) 0.2793(6) 0.1064(5)
C2_2 C 0.8612(5) 0.2866(5) 0.1356(4)
C3_2 C 0.8795(6) 0.3210(5) 0.1365(5)
H4_2 H 0.873857 0.339056 0.117979
C4_2 C 0.9058(7) 0.3295(6) 0.1639(5)
H5_2 H 0.916751 0.353500 0.164770
C5_2 C 0.9161(6) 0.3016(5) 0.1910(6)
C6_2 C 0.8965(6) 0.2675(6) 0.1906(6)
H6_2 H 0.901257 0.249583 0.209393
C7_2 C 0.8703(6) 0.2597(5) 0.1630(5)
H7_2 H 0.858343 0.236116 0.162561
C8_2 C 0.9574(5) 0.2940(5) 0.2484(5)
N4_2 N 0.9891(4) 0.3101(4) 0.2628(4)
O11_2 O 0.9446(4) 0.0831(4) 0.4253(4)
N5_2 N 0.9375(4) 0.2166(5) 0.3060(5)
H14_2 H 0.915971 0.212002 0.295498
N6_2 N 0.9872(4) 0.2609(4) 0.3101(4)
C18_2 C 0.9707(6) 0.1064(5) 0.4191(5)
C19_2 C 0.9634(5) 0.1356(4) 0.3888(5)
C20_2 C 0.9290(5) 0.1365(5) 0.3705(6)
H15_2 H 0.910944 0.117979 0.376143
C21_2 C 0.9205(6) 0.1639(5) 0.3442(7)
H16_2 H 0.896500 0.164770 0.333249
C22_2 C 0.9484(5) 0.1910(6) 0.3339(6)
C23_2 C 0.9825(6) 0.1906(6) 0.3535(6)
C24_2 C 0.9903(5) 0.1630(5) 0.3797(6)
C25_2 C 0.9560(5) 0.2484(5) 0.2926(5)
Th3_2 Th 0.93611(2) 0.02403(2) 0.45999(2)
O16_2 O 0.9994(4) 0.0229(4) 0.4368(8)
O17_2 O 0.8705(5) 0.0449(4) 0.4198(5)
H22_2 H 0.8621(15) 0.0304(16) 0.4035(7)
H23_2 H 0.866(6) 0.0676(6) 0.416(5)
Th12_2 Th 0.77403(2) 0.20999(2) 0.06389(2)
O21_2 O 0.8929(4) 0.0656(4) 0.4960(4)
O22_2 O 0.7540(4) 0.3571(4) 0.0656(4)
O27_2 O 0.9771(4) 0.0632(8) 0.5006(4)
O28_2 O 0.7494(4) 0.2729(4) 0.0632(8)
O31_2 O 0.9297(5) 0.0017(5) 0.3908(4)
O32_2 O 0.8592(4) 0.3203(5) 0.0017(5)
O4_2 O 0.7889(4) 0.2889(4) 0.9611(4)
O6_2 O 0.7483(5) 0.3592(4) 0.9297(5)
O7_2 O 0.7870(5) 0.3709(4) 0.9811(5)
C9_2 C 0.7727(8) 0.3809(9) 0.9495(9)
H8_2 H 0.779425 0.404474 0.939541
Th7_2 Th 0.81389(2) 0.22597(2) 0.95999(2)
Th9_2 Th 0.72597(2) 0.29001(2) 0.93611(2)
O25_2 O 0.7271(4) 0.3132(8) 0.9994(4)
O18_2 O 0.8908(4) 0.9297(5) 0.5017(5)
O19_2 O 0.8791(4) 0.9811(5) 0.4630(5)
C27_2 C 0.8691(9) 0.9495(9) 0.4773(8)
H24_2 H 0.845526 0.939541 0.470575
Th6_2 Th 0.95999(2) 0.93611(2) 0.52403(2)
O24_2 O 0.9368(8) 0.9994(4) 0.5229(4)
O30_2 O 0.9611(4) 0.9611(4) 0.4611(4)
O10_3 O 0.0040(4) 0.1429(4) 0.8156(4)
H17_3 H 0.000417 0.040607 0.901257
H18_3 H 0.013884 0.087439 0.858343
Th4_3 Th 0.02403(2) 0.29001(2) 0.81389(2)
Th11_3 Th 0.04001(2) 0.18611(2) 0.77403(2)
O8_3 O 0.1429(4) 0.8156(4) 0.0040(4)
H12_3 H 0.040607 0.901257 0.000417
H13_3 H 0.087439 0.858343 0.013884
Th8_3 Th 0.29001(2) 0.81389(2) 0.02403(2)
Th10_3 Th 0.18611(2) 0.77403(2) 0.04001(2)
O9_3 O 0.1669(4) 0.8247(4) 0.9446(4)
N3_3 N 0.0334(5) 0.9440(5) 0.9375(4)
H9_3 H 0.037998 0.954502 0.915971
C10_3 C 0.1436(5) 0.8309(5) 0.9707(6)
C11_3 C 0.1144(4) 0.8612(5) 0.9634(5)
C12_3 C 0.1135(5) 0.8795(6) 0.9290(5)
H10_3 H 0.132021 0.873857 0.910944
C13_3 C 0.0861(5) 0.9058(7) 0.9205(6)
H11_3 H 0.085230 0.916751 0.896500
C14_3 C 0.0590(6) 0.9161(6) 0.9484(5)
C15_3 C 0.0594(6) 0.8965(6) 0.9825(6)
C16_3 C 0.0870(5) 0.8703(6) 0.9903(5)
C17_3 C 0.0016(5) 0.9574(5) 0.9560(5)
Th2_3 Th 0.22597(2) 0.79001(2) 0.93611(2)
O12_3 O 0.2271(4) 0.8132(8) 0.9994(4)
O13_3 O 0.2051(4) 0.8302(5) 0.8705(5)
H19_3 H 0.2196(16) 0.8465(7) 0.8621(15)
H20_3 H 0.1824(6) 0.834(5) 0.866(6)
O14_3 O 0.3203(5) 0.7483(5) 0.8908(4)
O15_3 O 0.2689(5) 0.7870(5) 0.8791(4)
C26_3 C 0.3005(9) 0.7727(8) 0.8691(9)
H21_3 H 0.310459 0.779425 0.845526
Th5_3 Th 0.31389(2) 0.72597(2) 0.95999(2)
O20_3 O 0.1844(4) 0.7540(4) 0.8929(4)
O23_3 O 0.2506(4) 0.7271(4) 0.9368(8)
O26_3 O 0.1868(8) 0.7494(4) 0.9771(4)
O29_3 O 0.2889(4) 0.7889(4) 0.9611(4)
O33_3 O 0.2483(5) 0.8592(4) 0.9297(5)
O1_3 O 0.8156(4) 0.0040(4) 0.1429(4)
H6_3 H 0.901257 0.000417 0.040607
H7_3 H 0.858343 0.013884 0.087439
Th7_3 Th 0.81389(2) 0.02403(2) 0.29001(2)
Th12_3 Th 0.77403(2) 0.04001(2) 0.18611(2)
O11_3 O 0.9446(4) 0.1669(4) 0.8247(4)
N5_3 N 0.9375(4) 0.0334(5) 0.9440(5)
H14_3 H 0.915971 0.037998 0.954502
C18_3 C 0.9707(6) 0.1436(5) 0.8309(5)
C19_3 C 0.9634(5) 0.1144(4) 0.8612(5)
C20_3 C 0.9290(5) 0.1135(5) 0.8795(6)
H15_3 H 0.910944 0.132021 0.873857
C21_3 C 0.9205(6) 0.0861(5) 0.9058(7)
H16_3 H 0.896500 0.085230 0.916751
C22_3 C 0.9484(5) 0.0590(6) 0.9161(6)
C23_3 C 0.9825(6) 0.0594(6) 0.8965(6)
C24_3 C 0.9903(5) 0.0870(5) 0.8703(6)
C25_3 C 0.9560(5) 0.0016(5) 0.9574(5)
Th3_3 Th 0.93611(2) 0.22597(2) 0.79001(2)
O16_3 O 0.9994(4) 0.2271(4) 0.8132(8)
O17_3 O 0.8705(5) 0.2051(4) 0.8302(5)
H22_3 H 0.8621(15) 0.2196(16) 0.8465(7)
H23_3 H 0.866(6) 0.1824(6) 0.834(5)
O18_3 O 0.8908(4) 0.3203(5) 0.7483(5)
O19_3 O 0.8791(4) 0.2689(5) 0.7870(5)
C27_3 C 0.8691(9) 0.3005(9) 0.7727(8)
H24_3 H 0.845526 0.310459 0.779425
Th6_3 Th 0.95999(2) 0.31389(2) 0.72597(2)
O21_3 O 0.8929(4) 0.1844(4) 0.7540(4)
O24_3 O 0.9368(8) 0.2506(4) 0.7271(4)
O27_3 O 0.9771(4) 0.1868(8) 0.7494(4)
O30_3 O 0.9611(4) 0.2889(4) 0.7889(4)
O31_3 O 0.9297(5) 0.2483(5) 0.8592(4)
Th1_3 Th 0.79001(2) 0.93611(2) 0.22597(2)
O2_3 O 0.8247(4) 0.9446(4) 0.1669(4)
O3_3 O 0.8132(8) 0.9994(4) 0.2271(4)
O4_3 O 0.7889(4) 0.9611(4) 0.2889(4)
O5_3 O 0.8302(5) 0.8705(5) 0.2051(4)
H1_3 H 0.8465(7) 0.8621(15) 0.2196(16)
H2_3 H 0.834(5) 0.866(6) 0.1824(6)
O6_3 O 0.7483(5) 0.8908(4) 0.3203(5)
O7_3 O 0.7870(5) 0.8791(4) 0.2689(5)
N1_3 N 0.9440(5) 0.9375(4) 0.0334(5)
H3_3 H 0.954502 0.915971 0.037998
C1_3 C 0.8309(5) 0.9707(6) 0.1436(5)
C2_3 C 0.8612(5) 0.9634(5) 0.1144(4)
C3_3 C 0.8795(6) 0.9290(5) 0.1135(5)
H4_3 H 0.873857 0.910944 0.132021
C4_3 C 0.9058(7) 0.9205(6) 0.0861(5)
H5_3 H 0.916751 0.896500 0.085230
C5_3 C 0.9161(6) 0.9484(5) 0.0590(6)
C6_3 C 0.8965(6) 0.9825(6) 0.0594(6)
C7_3 C 0.8703(6) 0.9903(5) 0.0870(5)
C8_3 C 0.9574(5) 0.9560(5) 0.0016(5)
C9_3 C 0.7727(8) 0.8691(9) 0.3005(9)
H8_3 H 0.779425 0.845526 0.310459
Th9_3 Th 0.72597(2) 0.95999(2) 0.31389(2)
O22_3 O 0.7540(4) 0.8929(4) 0.1844(4)
O25_3 O 0.7271(4) 0.9368(8) 0.2506(4)
O28_3 O 0.7494(4) 0.9771(4) 0.1868(8)
O32_3 O 0.8592(4) 0.9297(5) 0.2483(5)
Th1_4 Th 0.45999(2) 0.31389(2) 0.22597(2)
O1_4 O 0.4344(4) 0.2460(4) 0.1429(4)
O2_4 O 0.4253(4) 0.3054(4) 0.1669(4)
O3_4 O 0.4368(8) 0.2506(4) 0.2271(4)
O4_4 O 0.4611(4) 0.2889(4) 0.2889(4)
O5_4 O 0.4198(5) 0.3795(5) 0.2051(4)
H1_4 H 0.4035(7) 0.3879(15) 0.2196(16)
H2_4 H 0.416(5) 0.384(6) 0.1824(6)
O6_4 O 0.5017(5) 0.3592(4) 0.3203(5)
O7_4 O 0.4630(5) 0.3709(4) 0.2689(5)
N1_4 N 0.3060(5) 0.3125(4) 0.0334(5)
H3_4 H 0.295498 0.334029 0.037998
C1_4 C 0.4191(5) 0.2793(6) 0.1436(5)
C2_4 C 0.3888(5) 0.2866(5) 0.1144(4)
C3_4 C 0.3705(6) 0.3210(5) 0.1135(5)
H4_4 H 0.376143 0.339056 0.132021
C4_4 C 0.3442(7) 0.3295(6) 0.0861(5)
H5_4 H 0.333249 0.353500 0.085230
C5_4 C 0.3339(6) 0.3016(5) 0.0590(6)
C6_4 C 0.3535(6) 0.2675(6) 0.0594(6)
H6_4 H 0.348743 0.249583 0.040607
C7_4 C 0.3797(6) 0.2597(5) 0.0870(5)
H7_4 H 0.391657 0.236116 0.087439
C8_4 C 0.2926(5) 0.2940(5) 0.0016(5)
C9_4 C 0.4773(8) 0.3809(9) 0.3005(9)
H8_4 H 0.470575 0.404474 0.310459
O8_4 O 0.1071(4) 0.4344(4) 0.0040(4)
H12_4 H 0.209393 0.348743 0.000417
H13_4 H 0.162561 0.391657 0.013884
Th7_4 Th 0.43611(2) 0.22597(2) 0.29001(2)
Th9_4 Th 0.52403(2) 0.29001(2) 0.31389(2)
Th10_4 Th 0.06389(2) 0.47597(2) 0.04001(2)
Th12_4 Th 0.47597(2) 0.20999(2) 0.18611(2)
O22_4 O 0.4960(4) 0.3571(4) 0.1844(4)
O25_4 O 0.5229(4) 0.3132(8) 0.2506(4)
O28_4 O 0.5006(4) 0.2729(4) 0.1868(8)
O32_4 O 0.3908(4) 0.3203(5) 0.2483(5)
N2_3 N 0.3101(4) 0.2628(4) 0.9891(4)
O9_4 O 0.0831(4) 0.4253(4) 0.9446(4)
N3_4 N 0.2166(5) 0.3060(5) 0.9375(4)
H9_4 H 0.212002 0.295498 0.915971
N4_3 N 0.2609(4) 0.3101(4) 0.9872(4)
C10_4 C 0.1064(5) 0.4191(5) 0.9707(6)
C11_4 C 0.1356(4) 0.3888(5) 0.9634(5)
C12_4 C 0.1365(5) 0.3705(6) 0.9290(5)
H10_4 H 0.117979 0.376143 0.910944
C13_4 C 0.1639(5) 0.3442(7) 0.9205(6)
H11_4 H 0.164770 0.333249 0.896500
C14_4 C 0.1910(6) 0.3339(6) 0.9484(5)
C15_4 C 0.1906(6) 0.3535(6) 0.9825(6)
C16_4 C 0.1630(5) 0.3797(6) 0.9903(5)
C17_4 C 0.2484(5) 0.2926(5) 0.9560(5)
O10_4 O 0.2460(4) 0.1071(4) 0.8156(4)
O11_4 O 0.3054(4) 0.0831(4) 0.8247(4)
N5_4 N 0.3125(4) 0.2166(5) 0.9440(5)
H14_4 H 0.334029 0.212002 0.954502
N6_3 N 0.2628(4) 0.2609(4) 0.9399(4)
C18_4 C 0.2793(6) 0.1064(5) 0.8309(5)
C19_4 C 0.2866(5) 0.1356(4) 0.8612(5)
C20_4 C 0.3210(5) 0.1365(5) 0.8795(6)
H15_4 H 0.339056 0.117979 0.873857
C21_4 C 0.3295(6) 0.1639(5) 0.9058(7)
H16_4 H 0.353500 0.164770 0.916751
C22_4 C 0.3016(5) 0.1910(6) 0.9161(6)
C23_4 C 0.2675(6) 0.1906(6) 0.8965(6)
H17_4 H 0.249583 0.209393 0.901257
C24_4 C 0.2597(5) 0.1630(5) 0.8703(6)
H18_4 H 0.236116 0.162561 0.858343
C25_4 C 0.2940(5) 0.2484(5) 0.9574(5)
Th2_4 Th 0.02403(2) 0.45999(2) 0.93611(2)
O12_4 O 0.0229(4) 0.4368(8) 0.9994(4)
O13_4 O 0.0449(4) 0.4198(5) 0.8705(5)
H19_4 H 0.0304(16) 0.4035(7) 0.8621(15)
H20_4 H 0.0676(6) 0.416(5) 0.866(6)
Th3_4 Th 0.31389(2) 0.02403(2) 0.79001(2)
O16_4 O 0.2506(4) 0.0229(4) 0.8132(8)
O17_4 O 0.3795(5) 0.0449(4) 0.8302(5)
H22_4 H 0.3879(15) 0.0304(16) 0.8465(7)
H23_4 H 0.384(6) 0.0676(6) 0.834(5)
Th11_4 Th 0.20999(2) 0.06389(2) 0.77403(2)
O20_4 O 0.0656(4) 0.4960(4) 0.8929(4)
O21_4 O 0.3571(4) 0.0656(4) 0.7540(4)
O26_4 O 0.0632(8) 0.5006(4) 0.9771(4)
O27_4 O 0.2729(4) 0.0632(8) 0.7494(4)
O31_4 O 0.3203(5) 0.0017(5) 0.8592(4)
O33_4 O 0.0017(5) 0.3908(4) 0.9297(5)
O18_4 O 0.3592(4) 0.9297(5) 0.7483(5)
O19_4 O 0.3709(4) 0.9811(5) 0.7870(5)
C27_4 C 0.3809(9) 0.9495(9) 0.7727(8)
H24_4 H 0.404474 0.939541 0.779425
Th4_4 Th 0.22597(2) 0.95999(2) 0.81389(2)
Th6_4 Th 0.29001(2) 0.93611(2) 0.72597(2)
O24_4 O 0.3132(8) 0.9994(4) 0.7271(4)
O30_4 O 0.2889(4) 0.9611(4) 0.7889(4)
Th8_4 Th 0.95999(2) 0.43611(2) 0.02403(2)
O14_4 O 0.9297(5) 0.5017(5) 0.8908(4)
O15_4 O 0.9811(5) 0.4630(5) 0.8791(4)
C26_4 C 0.9495(9) 0.4773(8) 0.8691(9)
H21_4 H 0.939541 0.470575 0.845526
Th5_4 Th 0.93611(2) 0.52403(2) 0.95999(2)
O23_4 O 0.9994(4) 0.5229(4) 0.9368(8)
O29_4 O 0.9611(4) 0.4611(4) 0.9611(4)
O18_5 O 0.3592(4) 0.8203(5) 0.0017(5)
O24_5 O 0.3132(8) 0.7506(4) 0.0229(4)
O27_5 O 0.2729(4) 0.6868(8) 0.0006(4)
Th1_5 Th 0.45999(2) 0.43611(2) 0.52403(2)
O1_5 O 0.4344(4) 0.5040(4) 0.6071(4)
O2_5 O 0.4253(4) 0.4446(4) 0.5831(4)
O3_5 O 0.4368(8) 0.4994(4) 0.5229(4)
O4_5 O 0.4611(4) 0.4611(4) 0.4611(4)
O5_5 O 0.4198(5) 0.3705(5) 0.5449(4)
H1_5 H 0.4035(7) 0.3621(15) 0.5304(16)
H2_5 H 0.416(5) 0.366(6) 0.5676(6)
O6_5 O 0.5017(5) 0.3908(4) 0.4297(5)
O7_5 O 0.4630(5) 0.3791(4) 0.4811(5)
N1_5 N 0.3060(5) 0.4375(4) 0.7166(5)
H3_5 H 0.295498 0.415971 0.712002
N2_4 N 0.3101(4) 0.4872(4) 0.7609(4)
C1_5 C 0.4191(5) 0.4707(6) 0.6064(5)
C2_5 C 0.3888(5) 0.4634(5) 0.6356(4)
C3_5 C 0.3705(6) 0.4290(5) 0.6365(5)
H4_5 H 0.376143 0.410944 0.617979
C4_5 C 0.3442(7) 0.4205(6) 0.6639(5)
H5_5 H 0.333249 0.396500 0.664770
C5_5 C 0.3339(6) 0.4484(5) 0.6910(6)
C6_5 C 0.3535(6) 0.4825(6) 0.6906(6)
H6_5 H 0.348743 0.500417 0.709393
C7_5 C 0.3797(6) 0.4903(5) 0.6630(5)
H7_5 H 0.391657 0.513884 0.662561
C8_5 C 0.2926(5) 0.4560(5) 0.7484(5)
C9_5 C 0.4773(8) 0.3691(9) 0.4495(9)
H8_5 H 0.470575 0.345526 0.439541
O8_5 O 0.1071(4) 0.3156(4) 0.7460(4)
O9_5 O 0.0831(4) 0.3247(4) 0.8054(4)
N3_5 N 0.2166(5) 0.4440(5) 0.8125(4)
H9_5 H 0.212002 0.454502 0.834029
N4_4 N 0.2609(4) 0.4399(4) 0.7628(4)
C10_5 C 0.1064(5) 0.3309(5) 0.7793(6)
C11_5 C 0.1356(4) 0.3612(5) 0.7866(5)
C12_5 C 0.1365(5) 0.3795(6) 0.8210(5)
H10_5 H 0.117979 0.373857 0.839056
C13_5 C 0.1639(5) 0.4058(7) 0.8295(6)
H11_5 H 0.164770 0.416751 0.853500
C14_5 C 0.1910(6) 0.4161(6) 0.8016(5)
C15_5 C 0.1906(6) 0.3965(6) 0.7675(6)
H12_5 H 0.209393 0.401257 0.749583
C16_5 C 0.1630(5) 0.3703(6) 0.7597(5)
H13_5 H 0.162561 0.358343 0.736116
C17_5 C 0.2484(5) 0.4574(5) 0.7940(5)
O10_5 O 0.2460(4) 0.6429(4) 0.9344(4)
O11_5 O 0.3054(4) 0.6669(4) 0.9253(4)
N5_5 N 0.3125(4) 0.5334(5) 0.8060(5)
H14_5 H 0.334029 0.537998 0.795498
N6_4 N 0.2628(4) 0.4891(4) 0.8101(4)
C18_5 C 0.2793(6) 0.6436(5) 0.9191(5)
C19_5 C 0.2866(5) 0.6144(4) 0.8888(5)
C20_5 C 0.3210(5) 0.6135(5) 0.8705(6)
H15_5 H 0.339056 0.632021 0.876143
C21_5 C 0.3295(6) 0.5861(5) 0.8442(7)
H16_5 H 0.353500 0.585230 0.833249
C22_5 C 0.3016(5) 0.5590(6) 0.8339(6)
C23_5 C 0.2675(6) 0.5594(6) 0.8535(6)
H17_5 H 0.249583 0.540607 0.848743
C24_5 C 0.2597(5) 0.5870(5) 0.8797(6)
H18_5 H 0.236116 0.587439 0.891657
C25_5 C 0.2940(5) 0.5016(5) 0.7926(5)
O12_5 O 0.0229(4) 0.3132(8) 0.7506(4)
O13_5 O 0.0449(4) 0.3302(5) 0.8795(5)
H19_5 H 0.0304(16) 0.3465(7) 0.8879(15)
H20_5 H 0.0676(6) 0.334(5) 0.884(6)
O17_5 O 0.3795(5) 0.7051(4) 0.9198(5)
H22_5 H 0.3879(15) 0.7196(16) 0.9035(7)
H23_5 H 0.384(6) 0.6824(6) 0.916(5)
O19_5 O 0.3709(4) 0.7689(5) 0.9630(5)
C27_5 C 0.3809(9) 0.8005(9) 0.9773(8)
H24_5 H 0.404474 0.810459 0.970575
Th7_5 Th 0.43611(2) 0.52403(2) 0.45999(2)
Th9_5 Th 0.52403(2) 0.45999(2) 0.43611(2)
Th10_5 Th 0.06389(2) 0.27403(2) 0.70999(2)
Th11_5 Th 0.20999(2) 0.68611(2) 0.97597(2)
Th12_5 Th 0.47597(2) 0.54001(2) 0.56389(2)
O20_5 O 0.0656(4) 0.2540(4) 0.8571(4)
O21_5 O 0.3571(4) 0.6844(4) 0.9960(4)
O22_5 O 0.4960(4) 0.3929(4) 0.5656(4)
O25_5 O 0.5229(4) 0.4368(8) 0.4994(4)
O26_5 O 0.0632(8) 0.2494(4) 0.7729(4)
O28_5 O 0.5006(4) 0.4771(4) 0.5632(8)
O32_5 O 0.3908(4) 0.4297(5) 0.5017(5)
O33_5 O 0.0017(5) 0.3592(4) 0.8203(5)
O15_5 O 0.9811(5) 0.2870(5) 0.8709(4)
C26_5 C 0.9495(9) 0.2727(8) 0.8809(9)
H21_5 H 0.939541 0.279425 0.904474
O26_6 O 0.1868(8) 0.0006(4) 0.7729(4)
O8_6 O 0.1429(4) 0.9344(4) 0.7460(4)
O9_6 O 0.1669(4) 0.9253(4) 0.8054(4)
N3_6 N 0.0334(5) 0.8060(5) 0.8125(4)
H9_6 H 0.037998 0.795498 0.834029
C10_6 C 0.1436(5) 0.9191(5) 0.7793(6)
C11_6 C 0.1144(4) 0.8888(5) 0.7866(5)
C12_6 C 0.1135(5) 0.8705(6) 0.8210(5)
H10_6 H 0.132021 0.876143 0.839056
C13_6 C 0.0861(5) 0.8442(7) 0.8295(6)
H11_6 H 0.085230 0.833249 0.853500
C14_6 C 0.0590(6) 0.8339(6) 0.8016(5)
C15_6 C 0.0594(6) 0.8535(6) 0.7675(6)
H12_6 H 0.040607 0.848743 0.749583
C16_6 C 0.0870(5) 0.8797(6) 0.7597(5)
H13_6 H 0.087439 0.891657 0.736116
C17_6 C 0.0016(5) 0.7926(5) 0.7940(5)
O10_6 O 0.0040(4) 0.6071(4) 0.9344(4)
H17_6 H 0.000417 0.709393 0.848743
H18_6 H 0.013884 0.662561 0.891657
O12_6 O 0.2271(4) 0.9368(8) 0.7506(4)
O13_6 O 0.2051(4) 0.9198(5) 0.8795(5)
H19_6 H 0.2196(16) 0.9035(7) 0.8879(15)
H20_6 H 0.1824(6) 0.916(5) 0.884(6)
O15_6 O 0.2689(5) 0.9630(5) 0.8709(4)
C26_6 C 0.3005(9) 0.9773(8) 0.8809(9)
H21_6 H 0.310459 0.970575 0.904474
Th10_6 Th 0.18611(2) 0.97597(2) 0.70999(2)
Th11_6 Th 0.04001(2) 0.56389(2) 0.97597(2)
O20_6 O 0.1844(4) 0.9960(4) 0.8571(4)
O33_6 O 0.2483(5) 0.8908(4) 0.8203(5)
O18_6 O 0.8908(4) 0.4297(5) 0.0017(5)
O24_6 O 0.9368(8) 0.4994(4) 0.0229(4)
O27_6 O 0.9771(4) 0.5632(8) 0.0006(4)
Th1_6 Th 0.79001(2) 0.81389(2) 0.52403(2)
O1_6 O 0.8156(4) 0.7460(4) 0.6071(4)
O2_6 O 0.8247(4) 0.8054(4) 0.5831(4)
O3_6 O 0.8132(8) 0.7506(4) 0.5229(4)
O4_6 O 0.7889(4) 0.7889(4) 0.4611(4)
O5_6 O 0.8302(5) 0.8795(5) 0.5449(4)
H1_6 H 0.8465(7) 0.8879(15) 0.5304(16)
H2_6 H 0.834(5) 0.884(6) 0.5676(6)
O6_6 O 0.7483(5) 0.8592(4) 0.4297(5)
O7_6 O 0.7870(5) 0.8709(4) 0.4811(5)
N1_6 N 0.9440(5) 0.8125(4) 0.7166(5)
H3_6 H 0.954502 0.834029 0.712002
N2_5 N 0.9399(4) 0.7628(4) 0.7609(4)
C1_6 C 0.8309(5) 0.7793(6) 0.6064(5)
C2_6 C 0.8612(5) 0.7866(5) 0.6356(4)
C3_6 C 0.8795(6) 0.8210(5) 0.6365(5)
H4_6 H 0.873857 0.839056 0.617979
C4_6 C 0.9058(7) 0.8295(6) 0.6639(5)
H5_6 H 0.916751 0.853500 0.664770
C5_6 C 0.9161(6) 0.8016(5) 0.6910(6)
C6_6 C 0.8965(6) 0.7675(6) 0.6906(6)
H6_6 H 0.901257 0.749583 0.709393
C7_6 C 0.8703(6) 0.7597(5) 0.6630(5)
H7_6 H 0.858343 0.736116 0.662561
C8_6 C 0.9574(5) 0.7940(5) 0.7484(5)
C9_6 C 0.7727(8) 0.8809(9) 0.4495(9)
H8_6 H 0.779425 0.904474 0.439541
N4_5 N 0.9891(4) 0.8101(4) 0.7628(4)
O11_6 O 0.9446(4) 0.5831(4) 0.9253(4)
N5_6 N 0.9375(4) 0.7166(5) 0.8060(5)
H14_6 H 0.915971 0.712002 0.795498
N6_5 N 0.9872(4) 0.7609(4) 0.8101(4)
C18_6 C 0.9707(6) 0.6064(5) 0.9191(5)
C19_6 C 0.9634(5) 0.6356(4) 0.8888(5)
C20_6 C 0.9290(5) 0.6365(5) 0.8705(6)
H15_6 H 0.910944 0.617979 0.876143
C21_6 C 0.9205(6) 0.6639(5) 0.8442(7)
H16_6 H 0.896500 0.664770 0.833249
C22_6 C 0.9484(5) 0.6910(6) 0.8339(6)
C23_6 C 0.9825(6) 0.6906(6) 0.8535(6)
C24_6 C 0.9903(5) 0.6630(5) 0.8797(6)
C25_6 C 0.9560(5) 0.7484(5) 0.7926(5)
O17_6 O 0.8705(5) 0.5449(4) 0.9198(5)
H22_6 H 0.8621(15) 0.5304(16) 0.9035(7)
H23_6 H 0.866(6) 0.5676(6) 0.916(5)
O19_6 O 0.8791(4) 0.4811(5) 0.9630(5)
C27_6 C 0.8691(9) 0.4495(9) 0.9773(8)
H24_6 H 0.845526 0.439541 0.970575
Th7_6 Th 0.81389(2) 0.72597(2) 0.45999(2)
Th9_6 Th 0.72597(2) 0.79001(2) 0.43611(2)
Th12_6 Th 0.77403(2) 0.70999(2) 0.56389(2)
O21_6 O 0.8929(4) 0.5656(4) 0.9960(4)
O22_6 O 0.7540(4) 0.8571(4) 0.5656(4)
O25_6 O 0.7271(4) 0.8132(8) 0.4994(4)
O28_6 O 0.7494(4) 0.7729(4) 0.5632(8)
O32_6 O 0.8592(4) 0.8203(5) 0.5017(5)
O8_7 O 0.1429(4) 0.3156(4) 0.5040(4)
O9_7 O 0.1669(4) 0.3247(4) 0.4446(4)
N3_7 N 0.0334(5) 0.4440(5) 0.4375(4)
H9_7 H 0.037998 0.454502 0.415971
C10_7 C 0.1436(5) 0.3309(5) 0.4707(6)
C11_7 C 0.1144(4) 0.3612(5) 0.4634(5)
C12_7 C 0.1135(5) 0.3795(6) 0.4290(5)
H10_7 H 0.132021 0.373857 0.410944
C13_7 C 0.0861(5) 0.4058(7) 0.4205(6)
H11_7 H 0.085230 0.416751 0.396500
C14_7 C 0.0590(6) 0.4161(6) 0.4484(5)
C15_7 C 0.0594(6) 0.3965(6) 0.4825(6)
H12_7 H 0.040607 0.401257 0.500417
C16_7 C 0.0870(5) 0.3703(6) 0.4903(5)
H13_7 H 0.087439 0.358343 0.513884
C17_7 C 0.0016(5) 0.4574(5) 0.4560(5)
O10_7 O 0.0040(4) 0.6429(4) 0.3156(4)
H17_7 H 0.000417 0.540607 0.401257
H18_7 H 0.013884 0.587439 0.358343
O12_7 O 0.2271(4) 0.3132(8) 0.4994(4)
O13_7 O 0.2051(4) 0.3302(5) 0.3705(5)
H19_7 H 0.2196(16) 0.3465(7) 0.3621(15)
H20_7 H 0.1824(6) 0.334(5) 0.366(6)
O15_7 O 0.2689(5) 0.2870(5) 0.3791(4)
C26_7 C 0.3005(9) 0.2727(8) 0.3691(9)
H21_7 H 0.310459 0.279425 0.345526
Th10_7 Th 0.18611(2) 0.27403(2) 0.54001(2)
Th11_7 Th 0.04001(2) 0.68611(2) 0.27403(2)
O20_7 O 0.1844(4) 0.2540(4) 0.3929(4)
O26_7 O 0.1868(8) 0.2494(4) 0.4771(4)
O33_7 O 0.2483(5) 0.3592(4) 0.4297(5)
Th1_7 Th 0.79001(2) 0.43611(2) 0.72597(2)
O1_7 O 0.8156(4) 0.5040(4) 0.6429(4)
O2_7 O 0.8247(4) 0.4446(4) 0.6669(4)
O3_7 O 0.8132(8) 0.4994(4) 0.7271(4)
O4_7 O 0.7889(4) 0.4611(4) 0.7889(4)
O5_7 O 0.8302(5) 0.3705(5) 0.7051(4)
H1_7 H 0.8465(7) 0.3621(15) 0.7196(16)
H2_7 H 0.834(5) 0.366(6) 0.6824(6)
O6_7 O 0.7483(5) 0.3908(4) 0.8203(5)
O7_7 O 0.7870(5) 0.3791(4) 0.7689(5)
N1_7 N 0.9440(5) 0.4375(4) 0.5334(5)
H3_7 H 0.954502 0.415971 0.537998
N2_6 N 0.9399(4) 0.4872(4) 0.4891(4)
C1_7 C 0.8309(5) 0.4707(6) 0.6436(5)
C2_7 C 0.8612(5) 0.4634(5) 0.6144(4)
C3_7 C 0.8795(6) 0.4290(5) 0.6135(5)
H4_7 H 0.873857 0.410944 0.632021
C4_7 C 0.9058(7) 0.4205(6) 0.5861(5)
H5_7 H 0.916751 0.396500 0.585230
C5_7 C 0.9161(6) 0.4484(5) 0.5590(6)
C6_7 C 0.8965(6) 0.4825(6) 0.5594(6)
H6_7 H 0.901257 0.500417 0.540607
C7_7 C 0.8703(6) 0.4903(5) 0.5870(5)
H7_7 H 0.858343 0.513884 0.587439
C8_7 C 0.9574(5) 0.4560(5) 0.5016(5)
C9_7 C 0.7727(8) 0.3691(9) 0.8005(9)
H8_7 H 0.779425 0.345526 0.810459
N4_6 N 0.9891(4) 0.4399(4) 0.4872(4)
O11_7 O 0.9446(4) 0.6669(4) 0.3247(4)
N5_7 N 0.9375(4) 0.5334(5) 0.4440(5)
H14_7 H 0.915971 0.537998 0.454502
N6_6 N 0.9872(4) 0.4891(4) 0.4399(4)
C18_7 C 0.9707(6) 0.6436(5) 0.3309(5)
C19_7 C 0.9634(5) 0.6144(4) 0.3612(5)
C20_7 C 0.9290(5) 0.6135(5) 0.3795(6)
H15_7 H 0.910944 0.632021 0.373857
C21_7 C 0.9205(6) 0.5861(5) 0.4058(7)
H16_7 H 0.896500 0.585230 0.416751
C22_7 C 0.9484(5) 0.5590(6) 0.4161(6)
C23_7 C 0.9825(6) 0.5594(6) 0.3965(6)
C24_7 C 0.9903(5) 0.5870(5) 0.3703(6)
C25_7 C 0.9560(5) 0.5016(5) 0.4574(5)
O17_7 O 0.8705(5) 0.7051(4) 0.3302(5)
H22_7 H 0.8621(15) 0.7196(16) 0.3465(7)
H23_7 H 0.866(6) 0.6824(6) 0.334(5)
O18_7 O 0.8908(4) 0.8203(5) 0.2483(5)
O19_7 O 0.8791(4) 0.7689(5) 0.2870(5)
C27_7 C 0.8691(9) 0.8005(9) 0.2727(8)
H24_7 H 0.845526 0.810459 0.279425
Th7_7 Th 0.81389(2) 0.52403(2) 0.79001(2)
Th9_7 Th 0.72597(2) 0.45999(2) 0.81389(2)
Th12_7 Th 0.77403(2) 0.54001(2) 0.68611(2)
O21_7 O 0.8929(4) 0.6844(4) 0.2540(4)
O22_7 O 0.7540(4) 0.3929(4) 0.6844(4)
O24_7 O 0.9368(8) 0.7506(4) 0.2271(4)
O25_7 O 0.7271(4) 0.4368(8) 0.7506(4)
O27_7 O 0.9771(4) 0.6868(8) 0.2494(4)
O28_7 O 0.7494(4) 0.4771(4) 0.6868(8)
O32_7 O 0.8592(4) 0.4297(5) 0.7483(5)
O26_8 O 0.0632(8) 0.0006(4) 0.4771(4)
Th1_8 Th 0.45999(2) 0.81389(2) 0.72597(2)
O1_8 O 0.4344(4) 0.7460(4) 0.6429(4)
O2_8 O 0.4253(4) 0.8054(4) 0.6669(4)
O3_8 O 0.4368(8) 0.7506(4) 0.7271(4)
O4_8 O 0.4611(4) 0.7889(4) 0.7889(4)
O5_8 O 0.4198(5) 0.8795(5) 0.7051(4)
H1_8 H 0.4035(7) 0.8879(15) 0.7196(16)
H2_8 H 0.416(5) 0.884(6) 0.6824(6)
O6_8 O 0.5017(5) 0.8592(4) 0.8203(5)
O7_8 O 0.4630(5) 0.8709(4) 0.7689(5)
N1_8 N 0.3060(5) 0.8125(4) 0.5334(5)
H3_8 H 0.295498 0.834029 0.537998
N2_7 N 0.3101(4) 0.7628(4) 0.4891(4)
C1_8 C 0.4191(5) 0.7793(6) 0.6436(5)
C2_8 C 0.3888(5) 0.7866(5) 0.6144(4)
C3_8 C 0.3705(6) 0.8210(5) 0.6135(5)
H4_8 H 0.376143 0.839056 0.632021
C4_8 C 0.3442(7) 0.8295(6) 0.5861(5)
H5_8 H 0.333249 0.853500 0.585230
C5_8 C 0.3339(6) 0.8016(5) 0.5590(6)
C6_8 C 0.3535(6) 0.7675(6) 0.5594(6)
H6_8 H 0.348743 0.749583 0.540607
C7_8 C 0.3797(6) 0.7597(5) 0.5870(5)
H7_8 H 0.391657 0.736116 0.587439
C8_8 C 0.2926(5) 0.7940(5) 0.5016(5)
C9_8 C 0.4773(8) 0.8809(9) 0.8005(9)
H8_8 H 0.470575 0.904474 0.810459
O8_8 O 0.1071(4) 0.9344(4) 0.5040(4)
O9_8 O 0.0831(4) 0.9253(4) 0.4446(4)
N3_8 N 0.2166(5) 0.8060(5) 0.4375(4)
H9_8 H 0.212002 0.795498 0.415971
N4_7 N 0.2609(4) 0.8101(4) 0.4872(4)
C10_8 C 0.1064(5) 0.9191(5) 0.4707(6)
C11_8 C 0.1356(4) 0.8888(5) 0.4634(5)
C12_8 C 0.1365(5) 0.8705(6) 0.4290(5)
H10_8 H 0.117979 0.876143 0.410944
C13_8 C 0.1639(5) 0.8442(7) 0.4205(6)
H11_8 H 0.164770 0.833249 0.396500
C14_8 C 0.1910(6) 0.8339(6) 0.4484(5)
C15_8 C 0.1906(6) 0.8535(6) 0.4825(6)
H12_8 H 0.209393 0.848743 0.500417
C16_8 C 0.1630(5) 0.8797(6) 0.4903(5)
H13_8 H 0.162561 0.891657 0.513884
C17_8 C 0.2484(5) 0.7926(5) 0.4560(5)
O10_8 O 0.2460(4) 0.6071(4) 0.3156(4)
O11_8 O 0.3054(4) 0.5831(4) 0.3247(4)
N5_8 N 0.3125(4) 0.7166(5) 0.4440(5)
H14_8 H 0.334029 0.712002 0.454502
N6_7 N 0.2628(4) 0.7609(4) 0.4399(4)
C18_8 C 0.2793(6) 0.6064(5) 0.3309(5)
C19_8 C 0.2866(5) 0.6356(4) 0.3612(5)
C20_8 C 0.3210(5) 0.6365(5) 0.3795(6)
H15_8 H 0.339056 0.617979 0.373857
C21_8 C 0.3295(6) 0.6639(5) 0.4058(7)
H16_8 H 0.353500 0.664770 0.416751
C22_8 C 0.3016(5) 0.6910(6) 0.4161(6)
C23_8 C 0.2675(6) 0.6906(6) 0.3965(6)
H17_8 H 0.249583 0.709393 0.401257
C24_8 C 0.2597(5) 0.6630(5) 0.3703(6)
H18_8 H 0.236116 0.662561 0.358343
C25_8 C 0.2940(5) 0.7484(5) 0.4574(5)
O12_8 O 0.0229(4) 0.9368(8) 0.4994(4)
O13_8 O 0.0449(4) 0.9198(5) 0.3705(5)
H19_8 H 0.0304(16) 0.9035(7) 0.3621(15)
H20_8 H 0.0676(6) 0.916(5) 0.366(6)
O17_8 O 0.3795(5) 0.5449(4) 0.3302(5)
H22_8 H 0.3879(15) 0.5304(16) 0.3465(7)
H23_8 H 0.384(6) 0.5676(6) 0.334(5)
O18_8 O 0.3592(4) 0.4297(5) 0.2483(5)
O19_8 O 0.3709(4) 0.4811(5) 0.2870(5)
C27_8 C 0.3809(9) 0.4495(9) 0.2727(8)
H24_8 H 0.404474 0.439541 0.279425
Th7_8 Th 0.43611(2) 0.72597(2) 0.79001(2)
Th9_8 Th 0.52403(2) 0.79001(2) 0.81389(2)
Th10_8 Th 0.06389(2) 0.97597(2) 0.54001(2)
Th11_8 Th 0.20999(2) 0.56389(2) 0.27403(2)
Th12_8 Th 0.47597(2) 0.70999(2) 0.68611(2)
O20_8 O 0.0656(4) 0.9960(4) 0.3929(4)
O21_8 O 0.3571(4) 0.5656(4) 0.2540(4)
O22_8 O 0.4960(4) 0.8571(4) 0.6844(4)
O24_8 O 0.3132(8) 0.4994(4) 0.2271(4)
O25_8 O 0.5229(4) 0.8132(8) 0.7506(4)
O27_8 O 0.2729(4) 0.5632(8) 0.2494(4)
O28_8 O 0.5006(4) 0.7729(4) 0.6868(8)
O32_8 O 0.3908(4) 0.8203(5) 0.7483(5)
O33_8 O 0.0017(5) 0.8908(4) 0.4297(5)
O15_8 O 0.9811(5) 0.9630(5) 0.3791(4)
C26_8 C 0.9495(9) 0.9773(8) 0.3691(9)
H21_8 H 0.939541 0.970575 0.345526
O28_9 O 0.0006(4) 0.9771(4) 0.5632(8)
O27_9 O 0.7729(4) 0.1868(8) 0.0006(4)
O1_9 O 0.9344(4) 0.0040(4) 0.6071(4)
H6_9 H 0.848743 0.000417 0.709393
H7_9 H 0.891657 0.013884 0.662561
O10_9 O 0.7460(4) 0.1429(4) 0.9344(4)
O11_9 O 0.8054(4) 0.1669(4) 0.9253(4)
N5_9 N 0.8125(4) 0.0334(5) 0.8060(5)
H14_9 H 0.834029 0.037998 0.795498
C18_9 C 0.7793(6) 0.1436(5) 0.9191(5)
C19_9 C 0.7866(5) 0.1144(4) 0.8888(5)
C20_9 C 0.8210(5) 0.1135(5) 0.8705(6)
H15_9 H 0.839056 0.132021 0.876143
C21_9 C 0.8295(6) 0.0861(5) 0.8442(7)
H16_9 H 0.853500 0.085230 0.833249
C22_9 C 0.8016(5) 0.0590(6) 0.8339(6)
C23_9 C 0.7675(6) 0.0594(6) 0.8535(6)
H17_9 H 0.749583 0.040607 0.848743
C24_9 C 0.7597(5) 0.0870(5) 0.8797(6)
H18_9 H 0.736116 0.087439 0.891657
C25_9 C 0.7940(5) 0.0016(5) 0.7926(5)
O16_5 O 0.7506(4) 0.2271(4) 0.9368(8)
O17_9 O 0.8795(5) 0.2051(4) 0.9198(5)
H22_9 H 0.8879(15) 0.2196(16) 0.9035(7)
H23_9 H 0.884(6) 0.1824(6) 0.916(5)
O19_9 O 0.8709(4) 0.2689(5) 0.9630(5)
C27_9 C 0.8809(9) 0.3005(9) 0.9773(8)
H24_9 H 0.904474 0.310459 0.970575
Th11_9 Th 0.70999(2) 0.18611(2) 0.97597(2)
Th12_9 Th 0.97597(2) 0.04001(2) 0.56389(2)
O21_9 O 0.8571(4) 0.1844(4) 0.9960(4)
O31_5 O 0.8203(5) 0.2483(5) 0.8908(4)
O2_9 O 0.9253(4) 0.9446(4) 0.5831(4)
O5_9 O 0.9198(5) 0.8705(5) 0.5449(4)
H1_9 H 0.9035(7) 0.8621(15) 0.5304(16)
H2_9 H 0.916(5) 0.866(6) 0.5676(6)
O7_9 O 0.9630(5) 0.8791(4) 0.4811(5)
N1_9 N 0.8060(5) 0.9375(4) 0.7166(5)
H3_9 H 0.795498 0.915971 0.712002
N2_8 N 0.8101(4) 0.9872(4) 0.7609(4)
C1_9 C 0.9191(5) 0.9707(6) 0.6064(5)
C2_9 C 0.8888(5) 0.9634(5) 0.6356(4)
C3_9 C 0.8705(6) 0.9290(5) 0.6365(5)
H4_9 H 0.876143 0.910944 0.617979
C4_9 C 0.8442(7) 0.9205(6) 0.6639(5)
H5_9 H 0.833249 0.896500 0.664770
C5_9 C 0.8339(6) 0.9484(5) 0.6910(6)
C6_9 C 0.8535(6) 0.9825(6) 0.6906(6)
C7_9 C 0.8797(6) 0.9903(5) 0.6630(5)
C8_9 C 0.7926(5) 0.9560(5) 0.7484(5)
C9_9 C 0.9773(8) 0.8691(9) 0.4495(9)
H8_9 H 0.970575 0.845526 0.439541
O8_9 O 0.6071(4) 0.8156(4) 0.7460(4)
O9_9 O 0.5831(4) 0.8247(4) 0.8054(4)
N3_9 N 0.7166(5) 0.9440(5) 0.8125(4)
H9_9 H 0.712002 0.954502 0.834029
N4_8 N 0.7609(4) 0.9399(4) 0.7628(4)
C10_9 C 0.6064(5) 0.8309(5) 0.7793(6)
C11_9 C 0.6356(4) 0.8612(5) 0.7866(5)
C12_9 C 0.6365(5) 0.8795(6) 0.8210(5)
H10_9 H 0.617979 0.873857 0.839056
C13_9 C 0.6639(5) 0.9058(7) 0.8295(6)
H11_9 H 0.664770 0.916751 0.853500
C14_9 C 0.6910(6) 0.9161(6) 0.8016(5)
C15_9 C 0.6906(6) 0.8965(6) 0.7675(6)
H12_9 H 0.709393 0.901257 0.749583
C16_9 C 0.6630(5) 0.8703(6) 0.7597(5)
H13_9 H 0.662561 0.858343 0.736116
C17_9 C 0.7484(5) 0.9574(5) 0.7940(5)
N6_8 N 0.7628(4) 0.9891(4) 0.8101(4)
O13_9 O 0.5449(4) 0.8302(5) 0.8795(5)
H19_9 H 0.5304(16) 0.8465(7) 0.8879(15)
H20_9 H 0.5676(6) 0.834(5) 0.884(6)
O14_5 O 0.4297(5) 0.7483(5) 0.8592(4)
O15_9 O 0.4811(5) 0.7870(5) 0.8709(4)
C26_9 C 0.4495(9) 0.7727(8) 0.8809(9)
H21_9 H 0.439541 0.779425 0.904474
Th10_9 Th 0.56389(2) 0.77403(2) 0.70999(2)
O20_9 O 0.5656(4) 0.7540(4) 0.8571(4)
O22_9 O 0.9960(4) 0.8929(4) 0.5656(4)
O23_5 O 0.4994(4) 0.7271(4) 0.8132(8)
O26_9 O 0.5632(8) 0.7494(4) 0.7729(4)
O27_10 O 0.4771(4) 0.0632(8) 0.0006(4)
O1_10 O 0.3156(4) 0.2460(4) 0.6071(4)
O2_10 O 0.3247(4) 0.3054(4) 0.5831(4)
O5_10 O 0.3302(5) 0.3795(5) 0.5449(4)
H1_10 H 0.3465(7) 0.3879(15) 0.5304(16)
H2_10 H 0.334(5) 0.384(6) 0.5676(6)
O7_10 O 0.2870(5) 0.3709(4) 0.4811(5)
N1_10 N 0.4440(5) 0.3125(4) 0.7166(5)
H3_10 H 0.454502 0.334029 0.712002
N2_9 N 0.4399(4) 0.2628(4) 0.7609(4)
C1_10 C 0.3309(5) 0.2793(6) 0.6064(5)
C2_10 C 0.3612(5) 0.2866(5) 0.6356(4)
C3_10 C 0.3795(6) 0.3210(5) 0.6365(5)
H4_10 H 0.373857 0.339056 0.617979
C4_10 C 0.4058(7) 0.3295(6) 0.6639(5)
H5_10 H 0.416751 0.353500 0.664770
C5_10 C 0.4161(6) 0.3016(5) 0.6910(6)
C6_10 C 0.3965(6) 0.2675(6) 0.6906(6)
H6_10 H 0.401257 0.249583 0.709393
C7_10 C 0.3703(6) 0.2597(5) 0.6630(5)
H7_10 H 0.358343 0.236116 0.662561
C8_10 C 0.4574(5) 0.2940(5) 0.7484(5)
C9_10 C 0.2727(8) 0.3809(9) 0.4495(9)
H8_10 H 0.279425 0.404474 0.439541
O8_10 O 0.6429(4) 0.4344(4) 0.7460(4)
O9_10 O 0.6669(4) 0.4253(4) 0.8054(4)
N3_10 N 0.5334(5) 0.3060(5) 0.8125(4)
H9_10 H 0.537998 0.295498 0.834029
N4_9 N 0.4891(4) 0.3101(4) 0.7628(4)
C10_10 C 0.6436(5) 0.4191(5) 0.7793(6)
C11_10 C 0.6144(4) 0.3888(5) 0.7866(5)
C12_10 C 0.6135(5) 0.3705(6) 0.8210(5)
H10_10 H 0.632021 0.376143 0.839056
C13_10 C 0.5861(5) 0.3442(7) 0.8295(6)
H11_10 H 0.585230 0.333249 0.853500
C14_10 C 0.5590(6) 0.3339(6) 0.8016(5)
C15_10 C 0.5594(6) 0.3535(6) 0.7675(6)
H12_10 H 0.540607 0.348743 0.749583
C16_10 C 0.5870(5) 0.3797(6) 0.7597(5)
H13_10 H 0.587439 0.391657 0.736116
C17_10 C 0.5016(5) 0.2926(5) 0.7940(5)
O10_10 O 0.5040(4) 0.1071(4) 0.9344(4)
O11_10 O 0.4446(4) 0.0831(4) 0.9253(4)
N5_10 N 0.4375(4) 0.2166(5) 0.8060(5)
H14_10 H 0.415971 0.212002 0.795498
N6_9 N 0.4872(4) 0.2609(4) 0.8101(4)
C18_10 C 0.4707(6) 0.1064(5) 0.9191(5)
C19_10 C 0.4634(5) 0.1356(4) 0.8888(5)
C20_10 C 0.4290(5) 0.1365(5) 0.8705(6)
H15_10 H 0.410944 0.117979 0.876143
C21_10 C 0.4205(6) 0.1639(5) 0.8442(7)
H16_10 H 0.396500 0.164770 0.833249
C22_10 C 0.4484(5) 0.1910(6) 0.8339(6)
C23_10 C 0.4825(6) 0.1906(6) 0.8535(6)
H17_10 H 0.500417 0.209393 0.848743
C24_10 C 0.4903(5) 0.1630(5) 0.8797(6)
H18_10 H 0.513884 0.162561 0.891657
C25_10 C 0.4560(5) 0.2484(5) 0.7926(5)
O13_10 O 0.7051(4) 0.4198(5) 0.8795(5)
H19_10 H 0.7196(16) 0.4035(7) 0.8879(15)
H20_10 H 0.6824(6) 0.416(5) 0.884(6)
O14_6 O 0.8203(5) 0.5017(5) 0.8592(4)
O15_10 O 0.7689(5) 0.4630(5) 0.8709(4)
C26_10 C 0.8005(9) 0.4773(8) 0.8809(9)
H21_10 H 0.810459 0.470575 0.904474
O16_6 O 0.4994(4) 0.0229(4) 0.9368(8)
O17_10 O 0.3705(5) 0.0449(4) 0.9198(5)
H22_10 H 0.3621(15) 0.0304(16) 0.9035(7)
H23_10 H 0.366(6) 0.0676(6) 0.916(5)
Th10_10 Th 0.68611(2) 0.47597(2) 0.70999(2)
Th11_10 Th 0.54001(2) 0.06389(2) 0.97597(2)
Th12_10 Th 0.27403(2) 0.20999(2) 0.56389(2)
O20_10 O 0.6844(4) 0.4960(4) 0.8571(4)
O21_10 O 0.3929(4) 0.0656(4) 0.9960(4)
O22_10 O 0.2540(4) 0.3571(4) 0.5656(4)
O23_6 O 0.7506(4) 0.5229(4) 0.8132(8)
O26_10 O 0.6868(8) 0.5006(4) 0.7729(4)
O28_10 O 0.2494(4) 0.2729(4) 0.5632(8)
O31_6 O 0.4297(5) 0.0017(5) 0.8908(4)
O19_10 O 0.3791(4) 0.9811(5) 0.9630(5)
C27_10 C 0.3691(9) 0.9495(9) 0.9773(8)
H24_10 H 0.345526 0.939541 0.970575
O1_11 O 0.3156(4) 0.0040(4) 0.6429(4)
H6_11 H 0.401257 0.000417 0.540607
H7_11 H 0.358343 0.013884 0.587439
O10_11 O 0.5040(4) 0.1429(4) 0.3156(4)
O11_11 O 0.4446(4) 0.1669(4) 0.3247(4)
N5_11 N 0.4375(4) 0.0334(5) 0.4440(5)
H14_11 H 0.415971 0.037998 0.454502
C18_11 C 0.4707(6) 0.1436(5) 0.3309(5)
C19_11 C 0.4634(5) 0.1144(4) 0.3612(5)
C20_11 C 0.4290(5) 0.1135(5) 0.3795(6)
H15_11 H 0.410944 0.132021 0.373857
C21_11 C 0.4205(6) 0.0861(5) 0.4058(7)
H16_11 H 0.396500 0.085230 0.416751
C22_11 C 0.4484(5) 0.0590(6) 0.4161(6)
C23_11 C 0.4825(6) 0.0594(6) 0.3965(6)
H17_11 H 0.500417 0.040607 0.401257
C24_11 C 0.4903(5) 0.0870(5) 0.3703(6)
H18_11 H 0.513884 0.087439 0.358343
C25_11 C 0.4560(5) 0.0016(5) 0.4574(5)
O16_7 O 0.4994(4) 0.2271(4) 0.3132(8)
O17_11 O 0.3705(5) 0.2051(4) 0.3302(5)
H22_11 H 0.3621(15) 0.2196(16) 0.3465(7)
H23_11 H 0.366(6) 0.1824(6) 0.334(5)
O19_11 O 0.3791(4) 0.2689(5) 0.2870(5)
C27_11 C 0.3691(9) 0.3005(9) 0.2727(8)
H24_11 H 0.345526 0.310459 0.279425
Th11_11 Th 0.54001(2) 0.18611(2) 0.27403(2)
Th12_11 Th 0.27403(2) 0.04001(2) 0.68611(2)
O21_11 O 0.3929(4) 0.1844(4) 0.2540(4)
O27_11 O 0.4771(4) 0.1868(8) 0.2494(4)
O31_7 O 0.4297(5) 0.2483(5) 0.3592(4)
O2_11 O 0.3247(4) 0.9446(4) 0.6669(4)
O5_11 O 0.3302(5) 0.8705(5) 0.7051(4)
H1_11 H 0.3465(7) 0.8621(15) 0.7196(16)
H2_11 H 0.334(5) 0.866(6) 0.6824(6)
O7_11 O 0.2870(5) 0.8791(4) 0.7689(5)
N1_11 N 0.4440(5) 0.9375(4) 0.5334(5)
H3_11 H 0.454502 0.915971 0.537998
N2_10 N 0.4399(4) 0.9872(4) 0.4891(4)
C1_11 C 0.3309(5) 0.9707(6) 0.6436(5)
C2_11 C 0.3612(5) 0.9634(5) 0.6144(4)
C3_11 C 0.3795(6) 0.9290(5) 0.6135(5)
H4_11 H 0.373857 0.910944 0.632021
C4_11 C 0.4058(7) 0.9205(6) 0.5861(5)
H5_11 H 0.416751 0.896500 0.585230
C5_11 C 0.4161(6) 0.9484(5) 0.5590(6)
C6_11 C 0.3965(6) 0.9825(6) 0.5594(6)
C7_11 C 0.3703(6) 0.9903(5) 0.5870(5)
C8_11 C 0.4574(5) 0.9560(5) 0.5016(5)
C9_11 C 0.2727(8) 0.8691(9) 0.8005(9)
H8_11 H 0.279425 0.845526 0.810459
O8_11 O 0.6429(4) 0.8156(4) 0.5040(4)
O9_11 O 0.6669(4) 0.8247(4) 0.4446(4)
N3_11 N 0.5334(5) 0.9440(5) 0.4375(4)
H9_11 H 0.537998 0.954502 0.415971
N4_10 N 0.4891(4) 0.9399(4) 0.4872(4)
C10_11 C 0.6436(5) 0.8309(5) 0.4707(6)
C11_11 C 0.6144(4) 0.8612(5) 0.4634(5)
C12_11 C 0.6135(5) 0.8795(6) 0.4290(5)
H10_11 H 0.632021 0.873857 0.410944
C13_11 C 0.5861(5) 0.9058(7) 0.4205(6)
H11_11 H 0.585230 0.916751 0.396500
C14_11 C 0.5590(6) 0.9161(6) 0.4484(5)
C15_11 C 0.5594(6) 0.8965(6) 0.4825(6)
H12_11 H 0.540607 0.901257 0.500417
C16_11 C 0.5870(5) 0.8703(6) 0.4903(5)
H13_11 H 0.587439 0.858343 0.513884
C17_11 C 0.5016(5) 0.9574(5) 0.4560(5)
N6_10 N 0.4872(4) 0.9891(4) 0.4399(4)
O13_11 O 0.7051(4) 0.8302(5) 0.3705(5)
H19_11 H 0.7196(16) 0.8465(7) 0.3621(15)
H20_11 H 0.6824(6) 0.834(5) 0.366(6)
O14_7 O 0.8203(5) 0.7483(5) 0.3908(4)
O15_11 O 0.7689(5) 0.7870(5) 0.3791(4)
C26_11 C 0.8005(9) 0.7727(8) 0.3691(9)
H21_11 H 0.810459 0.779425 0.345526
Th10_11 Th 0.68611(2) 0.77403(2) 0.54001(2)
O20_11 O 0.6844(4) 0.7540(4) 0.3929(4)
O22_11 O 0.2540(4) 0.8929(4) 0.6844(4)
O23_7 O 0.7506(4) 0.7271(4) 0.4368(8)
O26_11 O 0.6868(8) 0.7494(4) 0.4771(4)
O28_11 O 0.2494(4) 0.9771(4) 0.6868(8)
O28_12 O 0.0006(4) 0.2729(4) 0.6868(8)
O1_12 O 0.9344(4) 0.2460(4) 0.6429(4)
O2_12 O 0.9253(4) 0.3054(4) 0.6669(4)
O5_12 O 0.9198(5) 0.3795(5) 0.7051(4)
H1_12 H 0.9035(7) 0.3879(15) 0.7196(16)
H2_12 H 0.916(5) 0.384(6) 0.6824(6)
O7_12 O 0.9630(5) 0.3709(4) 0.7689(5)
N1_12 N 0.8060(5) 0.3125(4) 0.5334(5)
H3_12 H 0.795498 0.334029 0.537998
N2_11 N 0.8101(4) 0.2628(4) 0.4891(4)
C1_12 C 0.9191(5) 0.2793(6) 0.6436(5)
C2_12 C 0.8888(5) 0.2866(5) 0.6144(4)
C3_12 C 0.8705(6) 0.3210(5) 0.6135(5)
H4_12 H 0.876143 0.339056 0.632021
C4_12 C 0.8442(7) 0.3295(6) 0.5861(5)
H5_12 H 0.833249 0.353500 0.585230
C5_12 C 0.8339(6) 0.3016(5) 0.5590(6)
C6_12 C 0.8535(6) 0.2675(6) 0.5594(6)
H6_12 H 0.848743 0.249583 0.540607
C7_12 C 0.8797(6) 0.2597(5) 0.5870(5)
H7_12 H 0.891657 0.236116 0.587439
C8_12 C 0.7926(5) 0.2940(5) 0.5016(5)
C9_12 C 0.9773(8) 0.3809(9) 0.8005(9)
H8_12 H 0.970575 0.404474 0.810459
O8_12 O 0.6071(4) 0.4344(4) 0.5040(4)
O9_12 O 0.5831(4) 0.4253(4) 0.4446(4)
N3_12 N 0.7166(5) 0.3060(5) 0.4375(4)
H9_12 H 0.712002 0.295498 0.415971
N4_11 N 0.7609(4) 0.3101(4) 0.4872(4)
C10_12 C 0.6064(5) 0.4191(5) 0.4707(6)
C11_12 C 0.6356(4) 0.3888(5) 0.4634(5)
C12_12 C 0.6365(5) 0.3705(6) 0.4290(5)
H10_12 H 0.617979 0.376143 0.410944
C13_12 C 0.6639(5) 0.3442(7) 0.4205(6)
H11_12 H 0.664770 0.333249 0.396500
C14_12 C 0.6910(6) 0.3339(6) 0.4484(5)
C15_12 C 0.6906(6) 0.3535(6) 0.4825(6)
H12_12 H 0.709393 0.348743 0.500417
C16_12 C 0.6630(5) 0.3797(6) 0.4903(5)
H13_12 H 0.662561 0.391657 0.513884
C17_12 C 0.7484(5) 0.2926(5) 0.4560(5)
O10_12 O 0.7460(4) 0.1071(4) 0.3156(4)
O11_12 O 0.8054(4) 0.0831(4) 0.3247(4)
N5_12 N 0.8125(4) 0.2166(5) 0.4440(5)
H14_12 H 0.834029 0.212002 0.454502
N6_11 N 0.7628(4) 0.2609(4) 0.4399(4)
C18_12 C 0.7793(6) 0.1064(5) 0.3309(5)
C19_12 C 0.7866(5) 0.1356(4) 0.3612(5)
C20_12 C 0.8210(5) 0.1365(5) 0.3795(6)
H15_12 H 0.839056 0.117979 0.373857
C21_12 C 0.8295(6) 0.1639(5) 0.4058(7)
H16_12 H 0.853500 0.164770 0.416751
C22_12 C 0.8016(5) 0.1910(6) 0.4161(6)
C23_12 C 0.7675(6) 0.1906(6) 0.3965(6)
H17_12 H 0.749583 0.209393 0.401257
C24_12 C 0.7597(5) 0.1630(5) 0.3703(6)
H18_12 H 0.736116 0.162561 0.358343
C25_12 C 0.7940(5) 0.2484(5) 0.4574(5)
O13_12 O 0.5449(4) 0.4198(5) 0.3705(5)
H19_12 H 0.5304(16) 0.4035(7) 0.3621(15)
H20_12 H 0.5676(6) 0.416(5) 0.366(6)
O14_8 O 0.4297(5) 0.5017(5) 0.3908(4)
O15_12 O 0.4811(5) 0.4630(5) 0.3791(4)
C26_12 C 0.4495(9) 0.4773(8) 0.3691(9)
H21_12 H 0.439541 0.470575 0.345526
O16_8 O 0.7506(4) 0.0229(4) 0.3132(8)
O17_12 O 0.8795(5) 0.0449(4) 0.3302(5)
H22_12 H 0.8879(15) 0.0304(16) 0.3465(7)
H23_12 H 0.884(6) 0.0676(6) 0.334(5)
Th10_12 Th 0.56389(2) 0.47597(2) 0.54001(2)
Th11_12 Th 0.70999(2) 0.06389(2) 0.27403(2)
Th12_12 Th 0.97597(2) 0.20999(2) 0.68611(2)
O20_12 O 0.5656(4) 0.4960(4) 0.3929(4)
O21_12 O 0.8571(4) 0.0656(4) 0.2540(4)
O22_12 O 0.9960(4) 0.3571(4) 0.6844(4)
O23_8 O 0.4994(4) 0.5229(4) 0.4368(8)
O26_12 O 0.5632(8) 0.5006(4) 0.4771(4)
O27_12 O 0.7729(4) 0.0632(8) 0.2494(4)
O31_8 O 0.8203(5) 0.0017(5) 0.3592(4)
O19_12 O 0.8709(4) 0.9811(5) 0.2870(5)
C27_12 C 0.8809(9) 0.9495(9) 0.2727(8)
H24_12 H 0.904474 0.939541 0.279425
O28_13 O 0.0006(4) 0.4771(4) 0.0632(8)
O1_13 O 0.9344(4) 0.5040(4) 0.1071(4)
O2_13 O 0.9253(4) 0.4446(4) 0.0831(4)
O5_13 O 0.9198(5) 0.3705(5) 0.0449(4)
H1_13 H 0.9035(7) 0.3621(15) 0.0304(16)
H2_13 H 0.916(5) 0.366(6) 0.0676(6)
N1_13 N 0.8060(5) 0.4375(4) 0.2166(5)
H3_13 H 0.795498 0.415971 0.212002
N2_12 N 0.8101(4) 0.4872(4) 0.2609(4)
C1_13 C 0.9191(5) 0.4707(6) 0.1064(5)
C2_13 C 0.8888(5) 0.4634(5) 0.1356(4)
C3_13 C 0.8705(6) 0.4290(5) 0.1365(5)
H4_13 H 0.876143 0.410944 0.117979
C4_13 C 0.8442(7) 0.4205(6) 0.1639(5)
H5_13 H 0.833249 0.396500 0.164770
C5_13 C 0.8339(6) 0.4484(5) 0.1910(6)
C6_13 C 0.8535(6) 0.4825(6) 0.1906(6)
H6_13 H 0.848743 0.500417 0.209393
C7_13 C 0.8797(6) 0.4903(5) 0.1630(5)
H7_13 H 0.891657 0.513884 0.162561
C8_13 C 0.7926(5) 0.4560(5) 0.2484(5)
O8_13 O 0.6071(4) 0.3156(4) 0.2460(4)
O9_13 O 0.5831(4) 0.3247(4) 0.3054(4)
N3_13 N 0.7166(5) 0.4440(5) 0.3125(4)
H9_13 H 0.712002 0.454502 0.334029
N4_12 N 0.7609(4) 0.4399(4) 0.2628(4)
C10_13 C 0.6064(5) 0.3309(5) 0.2793(6)
C11_13 C 0.6356(4) 0.3612(5) 0.2866(5)
C12_13 C 0.6365(5) 0.3795(6) 0.3210(5)
H10_13 H 0.617979 0.373857 0.339056
C13_13 C 0.6639(5) 0.4058(7) 0.3295(6)
H11_13 H 0.664770 0.416751 0.353500
C14_13 C 0.6910(6) 0.4161(6) 0.3016(5)
C15_13 C 0.6906(6) 0.3965(6) 0.2675(6)
H12_13 H 0.709393 0.401257 0.249583
C16_13 C 0.6630(5) 0.3703(6) 0.2597(5)
H13_13 H 0.662561 0.358343 0.236116
C17_13 C 0.7484(5) 0.4574(5) 0.2940(5)
O10_13 O 0.7460(4) 0.6429(4) 0.4344(4)
O11_13 O 0.8054(4) 0.6669(4) 0.4253(4)
N5_13 N 0.8125(4) 0.5334(5) 0.3060(5)
H14_13 H 0.834029 0.537998 0.295498
N6_12 N 0.7628(4) 0.4891(4) 0.3101(4)
C18_13 C 0.7793(6) 0.6436(5) 0.4191(5)
C19_13 C 0.7866(5) 0.6144(4) 0.3888(5)
C20_13 C 0.8210(5) 0.6135(5) 0.3705(6)
H15_13 H 0.839056 0.632021 0.376143
C21_13 C 0.8295(6) 0.5861(5) 0.3442(7)
H16_13 H 0.853500 0.585230 0.333249
C22_13 C 0.8016(5) 0.5590(6) 0.3339(6)
C23_13 C 0.7675(6) 0.5594(6) 0.3535(6)
H17_13 H 0.749583 0.540607 0.348743
C24_13 C 0.7597(5) 0.5870(5) 0.3797(6)
H18_13 H 0.736116 0.587439 0.391657
C25_13 C 0.7940(5) 0.5016(5) 0.2926(5)
O13_13 O 0.5449(4) 0.3302(5) 0.3795(5)
H19_13 H 0.5304(16) 0.3465(7) 0.3879(15)
H20_13 H 0.5676(6) 0.334(5) 0.384(6)
O15_13 O 0.4811(5) 0.2870(5) 0.3709(4)
C26_13 C 0.4495(9) 0.2727(8) 0.3809(9)
H21_13 H 0.439541 0.279425 0.404474
O17_13 O 0.8795(5) 0.7051(4) 0.4198(5)
H22_13 H 0.8879(15) 0.7196(16) 0.4035(7)
H23_13 H 0.884(6) 0.6824(6) 0.416(5)
O19_13 O 0.8709(4) 0.7689(5) 0.4630(5)
C27_13 C 0.8809(9) 0.8005(9) 0.4773(8)
H24_13 H 0.904474 0.810459 0.470575
Th10_13 Th 0.56389(2) 0.27403(2) 0.20999(2)
Th11_13 Th 0.70999(2) 0.68611(2) 0.47597(2)
Th12_13 Th 0.97597(2) 0.54001(2) 0.06389(2)
O20_13 O 0.5656(4) 0.2540(4) 0.3571(4)
O21_13 O 0.8571(4) 0.6844(4) 0.4960(4)
O22_13 O 0.9960(4) 0.3929(4) 0.0656(4)
O26_13 O 0.5632(8) 0.2494(4) 0.2729(4)
O27_13 O 0.7729(4) 0.6868(8) 0.5006(4)
O7_13 O 0.9630(5) 0.3791(4) 0.9811(5)
C9_13 C 0.9773(8) 0.3691(9) 0.9495(9)
H8_13 H 0.970575 0.345526 0.939541
O26_14 O 0.6868(8) 0.0006(4) 0.2729(4)
O1_14 O 0.3156(4) 0.7460(4) 0.1071(4)
O2_14 O 0.3247(4) 0.8054(4) 0.0831(4)
O5_14 O 0.3302(5) 0.8795(5) 0.0449(4)
H1_14 H 0.3465(7) 0.8879(15) 0.0304(16)
H2_14 H 0.334(5) 0.884(6) 0.0676(6)
N1_14 N 0.4440(5) 0.8125(4) 0.2166(5)
H3_14 H 0.454502 0.834029 0.212002
N2_13 N 0.4399(4) 0.7628(4) 0.2609(4)
C1_14 C 0.3309(5) 0.7793(6) 0.1064(5)
C2_14 C 0.3612(5) 0.7866(5) 0.1356(4)
C3_14 C 0.3795(6) 0.8210(5) 0.1365(5)
H4_14 H 0.373857 0.839056 0.117979
C4_14 C 0.4058(7) 0.8295(6) 0.1639(5)
H5_14 H 0.416751 0.853500 0.164770
C5_14 C 0.4161(6) 0.8016(5) 0.1910(6)
C6_14 C 0.3965(6) 0.7675(6) 0.1906(6)
H6_14 H 0.401257 0.749583 0.209393
C7_14 C 0.3703(6) 0.7597(5) 0.1630(5)
H7_14 H 0.358343 0.736116 0.162561
C8_14 C 0.4574(5) 0.7940(5) 0.2484(5)
O8_14 O 0.6429(4) 0.9344(4) 0.2460(4)
O9_14 O 0.6669(4) 0.9253(4) 0.3054(4)
N3_14 N 0.5334(5) 0.8060(5) 0.3125(4)
H9_14 H 0.537998 0.795498 0.334029
N4_13 N 0.4891(4) 0.8101(4) 0.2628(4)
C10_14 C 0.6436(5) 0.9191(5) 0.2793(6)
C11_14 C 0.6144(4) 0.8888(5) 0.2866(5)
C12_14 C 0.6135(5) 0.8705(6) 0.3210(5)
H10_14 H 0.632021 0.876143 0.339056
C13_14 C 0.5861(5) 0.8442(7) 0.3295(6)
H11_14 H 0.585230 0.833249 0.353500
C14_14 C 0.5590(6) 0.8339(6) 0.3016(5)
C15_14 C 0.5594(6) 0.8535(6) 0.2675(6)
H12_14 H 0.540607 0.848743 0.249583
C16_14 C 0.5870(5) 0.8797(6) 0.2597(5)
H13_14 H 0.587439 0.891657 0.236116
C17_14 C 0.5016(5) 0.7926(5) 0.2940(5)
O10_14 O 0.5040(4) 0.6071(4) 0.4344(4)
O11_14 O 0.4446(4) 0.5831(4) 0.4253(4)
N5_14 N 0.4375(4) 0.7166(5) 0.3060(5)
H14_14 H 0.415971 0.712002 0.295498
N6_13 N 0.4872(4) 0.7609(4) 0.3101(4)
C18_14 C 0.4707(6) 0.6064(5) 0.4191(5)
C19_14 C 0.4634(5) 0.6356(4) 0.3888(5)
C20_14 C 0.4290(5) 0.6365(5) 0.3705(6)
H15_14 H 0.410944 0.617979 0.376143
C21_14 C 0.4205(6) 0.6639(5) 0.3442(7)
H16_14 H 0.396500 0.664770 0.333249
C22_14 C 0.4484(5) 0.6910(6) 0.3339(6)
C23_14 C 0.4825(6) 0.6906(6) 0.3535(6)
H17_14 H 0.500417 0.709393 0.348743
C24_14 C 0.4903(5) 0.6630(5) 0.3797(6)
H18_14 H 0.513884 0.662561 0.391657
C25_14 C 0.4560(5) 0.7484(5) 0.2926(5)
O13_14 O 0.7051(4) 0.9198(5) 0.3795(5)
H19_14 H 0.7196(16) 0.9035(7) 0.3879(15)
H20_14 H 0.6824(6) 0.916(5) 0.384(6)
O15_14 O 0.7689(5) 0.9630(5) 0.3709(4)
C26_14 C 0.8005(9) 0.9773(8) 0.3809(9)
H21_14 H 0.810459 0.970575 0.404474
O17_14 O 0.3705(5) 0.5449(4) 0.4198(5)
H22_14 H 0.3621(15) 0.5304(16) 0.4035(7)
H23_14 H 0.366(6) 0.5676(6) 0.416(5)
O19_14 O 0.3791(4) 0.4811(5) 0.4630(5)
C27_14 C 0.3691(9) 0.4495(9) 0.4773(8)
H24_14 H 0.345526 0.439541 0.470575
Th10_14 Th 0.68611(2) 0.97597(2) 0.20999(2)
Th11_14 Th 0.54001(2) 0.56389(2) 0.47597(2)
Th12_14 Th 0.27403(2) 0.70999(2) 0.06389(2)
O20_14 O 0.6844(4) 0.9960(4) 0.3571(4)
O21_14 O 0.3929(4) 0.5656(4) 0.4960(4)
O22_14 O 0.2540(4) 0.8571(4) 0.0656(4)
O27_14 O 0.4771(4) 0.5632(8) 0.5006(4)
O28_14 O 0.2494(4) 0.7729(4) 0.0632(8)
O7_14 O 0.2870(5) 0.8709(4) 0.9811(5)
C9_14 C 0.2727(8) 0.8809(9) 0.9495(9)
H8_14 H 0.279425 0.904474 0.939541
O1_15 O 0.3156(4) 0.5040(4) 0.1429(4)
O2_15 O 0.3247(4) 0.4446(4) 0.1669(4)
O5_15 O 0.3302(5) 0.3705(5) 0.2051(4)
H1_15 H 0.3465(7) 0.3621(15) 0.2196(16)
H2_15 H 0.334(5) 0.366(6) 0.1824(6)
O7_15 O 0.2870(5) 0.3791(4) 0.2689(5)
N1_15 N 0.4440(5) 0.4375(4) 0.0334(5)
H3_15 H 0.454502 0.415971 0.037998
C1_15 C 0.3309(5) 0.4707(6) 0.1436(5)
C2_15 C 0.3612(5) 0.4634(5) 0.1144(4)
C3_15 C 0.3795(6) 0.4290(5) 0.1135(5)
H4_15 H 0.373857 0.410944 0.132021
C4_15 C 0.4058(7) 0.4205(6) 0.0861(5)
H5_15 H 0.416751 0.396500 0.085230
C5_15 C 0.4161(6) 0.4484(5) 0.0590(6)
C6_15 C 0.3965(6) 0.4825(6) 0.0594(6)
H6_15 H 0.401257 0.500417 0.040607
C7_15 C 0.3703(6) 0.4903(5) 0.0870(5)
H7_15 H 0.358343 0.513884 0.087439
C8_15 C 0.4574(5) 0.4560(5) 0.0016(5)
C9_15 C 0.2727(8) 0.3691(9) 0.3005(9)
H8_15 H 0.279425 0.345526 0.310459
O8_15 O 0.6429(4) 0.3156(4) 0.0040(4)
H12_15 H 0.540607 0.401257 0.000417
H13_15 H 0.587439 0.358343 0.013884
Th10_15 Th 0.68611(2) 0.27403(2) 0.04001(2)
Th12_15 Th 0.27403(2) 0.54001(2) 0.18611(2)
O22_15 O 0.2540(4) 0.3929(4) 0.1844(4)
O28_15 O 0.2494(4) 0.4771(4) 0.1868(8)
N2_14 N 0.4399(4) 0.4872(4) 0.9891(4)
O9_15 O 0.6669(4) 0.3247(4) 0.9446(4)
N3_15 N 0.5334(5) 0.4440(5) 0.9375(4)
H9_15 H 0.537998 0.454502 0.915971
N4_14 N 0.4891(4) 0.4399(4) 0.9872(4)
C10_15 C 0.6436(5) 0.3309(5) 0.9707(6)
C11_15 C 0.6144(4) 0.3612(5) 0.9634(5)
C12_15 C 0.6135(5) 0.3795(6) 0.9290(5)
H10_15 H 0.632021 0.373857 0.910944
C13_15 C 0.5861(5) 0.4058(7) 0.9205(6)
H11_15 H 0.585230 0.416751 0.896500
C14_15 C 0.5590(6) 0.4161(6) 0.9484(5)
C15_15 C 0.5594(6) 0.3965(6) 0.9825(6)
C16_15 C 0.5870(5) 0.3703(6) 0.9903(5)
C17_15 C 0.5016(5) 0.4574(5) 0.9560(5)
O10_15 O 0.5040(4) 0.6429(4) 0.8156(4)
O11_15 O 0.4446(4) 0.6669(4) 0.8247(4)
N5_15 N 0.4375(4) 0.5334(5) 0.9440(5)
H14_15 H 0.415971 0.537998 0.954502
N6_14 N 0.4872(4) 0.4891(4) 0.9399(4)
C18_15 C 0.4707(6) 0.6436(5) 0.8309(5)
C19_15 C 0.4634(5) 0.6144(4) 0.8612(5)
C20_15 C 0.4290(5) 0.6135(5) 0.8795(6)
H15_15 H 0.410944 0.632021 0.873857
C21_15 C 0.4205(6) 0.5861(5) 0.9058(7)
H16_15 H 0.396500 0.585230 0.916751
C22_15 C 0.4484(5) 0.5590(6) 0.9161(6)
C23_15 C 0.4825(6) 0.5594(6) 0.8965(6)
H17_15 H 0.500417 0.540607 0.901257
C24_15 C 0.4903(5) 0.5870(5) 0.8703(6)
H18_15 H 0.513884 0.587439 0.858343
C25_15 C 0.4560(5) 0.5016(5) 0.9574(5)
O13_15 O 0.7051(4) 0.3302(5) 0.8705(5)
H19_15 H 0.7196(16) 0.3465(7) 0.8621(15)
H20_15 H 0.6824(6) 0.334(5) 0.866(6)
O15_15 O 0.7689(5) 0.2870(5) 0.8791(4)
C26_15 C 0.8005(9) 0.2727(8) 0.8691(9)
H21_15 H 0.810459 0.279425 0.845526
O17_15 O 0.3705(5) 0.7051(4) 0.8302(5)
H22_15 H 0.3621(15) 0.7196(16) 0.8465(7)
H23_15 H 0.366(6) 0.6824(6) 0.834(5)
O19_15 O 0.3791(4) 0.7689(5) 0.7870(5)
C27_15 C 0.3691(9) 0.8005(9) 0.7727(8)
H24_15 H 0.345526 0.810459 0.779425
Th11_15 Th 0.54001(2) 0.68611(2) 0.77403(2)
O20_15 O 0.6844(4) 0.2540(4) 0.8929(4)
O21_15 O 0.3929(4) 0.6844(4) 0.7540(4)
O26_15 O 0.6868(8) 0.2494(4) 0.9771(4)
O27_15 O 0.4771(4) 0.6868(8) 0.7494(4)
O28_16 O 0.0006(4) 0.7729(4) 0.1868(8)
O26_16 O 0.5632(8) 0.0006(4) 0.9771(4)
O1_16 O 0.9344(4) 0.7460(4) 0.1429(4)
O2_16 O 0.9253(4) 0.8054(4) 0.1669(4)
O5_16 O 0.9198(5) 0.8795(5) 0.2051(4)
H1_16 H 0.9035(7) 0.8879(15) 0.2196(16)
H2_16 H 0.916(5) 0.884(6) 0.1824(6)
O7_16 O 0.9630(5) 0.8709(4) 0.2689(5)
N1_16 N 0.8060(5) 0.8125(4) 0.0334(5)
H3_16 H 0.795498 0.834029 0.037998
C1_16 C 0.9191(5) 0.7793(6) 0.1436(5)
C2_16 C 0.8888(5) 0.7866(5) 0.1144(4)
C3_16 C 0.8705(6) 0.8210(5) 0.1135(5)
H4_16 H 0.876143 0.839056 0.132021
C4_16 C 0.8442(7) 0.8295(6) 0.0861(5)
H5_16 H 0.833249 0.853500 0.085230
C5_16 C 0.8339(6) 0.8016(5) 0.0590(6)
C6_16 C 0.8535(6) 0.7675(6) 0.0594(6)
H6_16 H 0.848743 0.749583 0.040607
C7_16 C 0.8797(6) 0.7597(5) 0.0870(5)
H7_16 H 0.891657 0.736116 0.087439
C8_16 C 0.7926(5) 0.7940(5) 0.0016(5)
C9_16 C 0.9773(8) 0.8809(9) 0.3005(9)
H8_16 H 0.970575 0.904474 0.310459
O8_16 O 0.6071(4) 0.9344(4) 0.0040(4)
H12_16 H 0.709393 0.848743 0.000417
H13_16 H 0.662561 0.891657 0.013884
Th10_16 Th 0.56389(2) 0.97597(2) 0.04001(2)
Th12_16 Th 0.97597(2) 0.70999(2) 0.18611(2)
O22_16 O 0.9960(4) 0.8571(4) 0.1844(4)
N2_15 N 0.8101(4) 0.7628(4) 0.9891(4)
O9_16 O 0.5831(4) 0.9253(4) 0.9446(4)
N3_16 N 0.7166(5) 0.8060(5) 0.9375(4)
H9_16 H 0.712002 0.795498 0.915971
N4_15 N 0.7609(4) 0.8101(4) 0.9872(4)
C10_16 C 0.6064(5) 0.9191(5) 0.9707(6)
C11_16 C 0.6356(4) 0.8888(5) 0.9634(5)
C12_16 C 0.6365(5) 0.8705(6) 0.9290(5)
H10_16 H 0.617979 0.876143 0.910944
C13_16 C 0.6639(5) 0.8442(7) 0.9205(6)
H11_16 H 0.664770 0.833249 0.896500
C14_16 C 0.6910(6) 0.8339(6) 0.9484(5)
C15_16 C 0.6906(6) 0.8535(6) 0.9825(6)
C16_16 C 0.6630(5) 0.8797(6) 0.9903(5)
C17_16 C 0.7484(5) 0.7926(5) 0.9560(5)
O10_16 O 0.7460(4) 0.6071(4) 0.8156(4)
O11_16 O 0.8054(4) 0.5831(4) 0.8247(4)
N5_16 N 0.8125(4) 0.7166(5) 0.9440(5)
H14_16 H 0.834029 0.712002 0.954502
N6_15 N 0.7628(4) 0.7609(4) 0.9399(4)
C18_16 C 0.7793(6) 0.6064(5) 0.8309(5)
C19_16 C 0.7866(5) 0.6356(4) 0.8612(5)
C20_16 C 0.8210(5) 0.6365(5) 0.8795(6)
H15_16 H 0.839056 0.617979 0.873857
C21_16 C 0.8295(6) 0.6639(5) 0.9058(7)
H16_16 H 0.853500 0.664770 0.916751
C22_16 C 0.8016(5) 0.6910(6) 0.9161(6)
C23_16 C 0.7675(6) 0.6906(6) 0.8965(6)
H17_16 H 0.749583 0.709393 0.901257
C24_16 C 0.7597(5) 0.6630(5) 0.8703(6)
H18_16 H 0.736116 0.662561 0.858343
C25_16 C 0.7940(5) 0.7484(5) 0.9574(5)
O13_16 O 0.5449(4) 0.9198(5) 0.8705(5)
H19_16 H 0.5304(16) 0.9035(7) 0.8621(15)
H20_16 H 0.5676(6) 0.916(5) 0.866(6)
O15_16 O 0.4811(5) 0.9630(5) 0.8791(4)
C26_16 C 0.4495(9) 0.9773(8) 0.8691(9)
H21_16 H 0.439541 0.970575 0.845526
O17_16 O 0.8795(5) 0.5449(4) 0.8302(5)
H22_16 H 0.8879(15) 0.5304(16) 0.8465(7)
H23_16 H 0.884(6) 0.5676(6) 0.834(5)
O19_16 O 0.8709(4) 0.4811(5) 0.7870(5)
C27_16 C 0.8809(9) 0.4495(9) 0.7727(8)
H24_16 H 0.904474 0.439541 0.779425
Th11_16 Th 0.70999(2) 0.56389(2) 0.77403(2)
O20_16 O 0.5656(4) 0.9960(4) 0.8929(4)
O21_16 O 0.8571(4) 0.5656(4) 0.7540(4)
O27_16 O 0.7729(4) 0.5632(8) 0.7494(4)
O14_9 O 0.0703(5) 0.2517(5) 0.6408(4)
O15_17 O 0.0189(5) 0.2130(5) 0.6291(4)
C26_17 C 0.0505(9) 0.2273(8) 0.6191(9)
H21_17 H 0.060459 0.220575 0.595526
O29_5 O 0.0389(4) 0.2111(4) 0.7111(4)
O4_9 O 0.5389(4) 0.0389(4) 0.0389(4)
O6_9 O 0.4983(5) 0.1092(4) 0.0703(5)
O7_17 O 0.5370(5) 0.1209(4) 0.0189(5)
C9_17 C 0.5227(8) 0.1309(9) 0.0505(9)
H8_17 H 0.529425 0.154474 0.060459
O2_17 O 0.5747(4) 0.0554(4) 0.9169(4)
O5_17 O 0.5802(5) 0.1295(5) 0.9551(4)
H1_17 H 0.5965(7) 0.1379(15) 0.9696(16)
H2_17 H 0.584(5) 0.134(6) 0.9324(6)
N1_17 N 0.6940(5) 0.0625(4) 0.7834(5)
H3_17 H 0.704502 0.084029 0.787998
N2_16 N 0.6899(4) 0.0128(4) 0.7391(4)
C1_17 C 0.5809(5) 0.0293(6) 0.8936(5)
C2_17 C 0.6112(5) 0.0366(5) 0.8644(4)
C3_17 C 0.6295(6) 0.0710(5) 0.8635(5)
H4_17 H 0.623857 0.089056 0.882021
C4_17 C 0.6558(7) 0.0795(6) 0.8361(5)
H5_17 H 0.666751 0.103500 0.835230
C5_17 C 0.6661(6) 0.0516(5) 0.8090(6)
C6_17 C 0.6465(6) 0.0175(6) 0.8094(6)
C7_17 C 0.6203(6) 0.0097(5) 0.8370(5)
C8_17 C 0.7074(5) 0.0440(5) 0.7516(5)
O9_17 O 0.9169(4) 0.1753(4) 0.6946(4)
N3_17 N 0.7834(5) 0.0560(5) 0.6875(4)
H9_17 H 0.787998 0.045498 0.665971
N4_16 N 0.7391(4) 0.0601(4) 0.7372(4)
C10_17 C 0.8936(5) 0.1691(5) 0.7207(6)
C11_17 C 0.8644(4) 0.1388(5) 0.7134(5)
C12_17 C 0.8635(5) 0.1205(6) 0.6790(5)
H10_17 H 0.882021 0.126143 0.660944
C13_17 C 0.8361(5) 0.0942(7) 0.6705(6)
H11_17 H 0.835230 0.083249 0.646500
C14_17 C 0.8090(6) 0.0839(6) 0.6984(5)
C15_17 C 0.8094(6) 0.1035(6) 0.7325(6)
H12_17 H 0.790607 0.098743 0.750417
C16_17 C 0.8370(5) 0.1297(6) 0.7403(5)
H13_17 H 0.837439 0.141657 0.763884
C17_17 C 0.7516(5) 0.0426(5) 0.7060(5)
N6_16 N 0.7372(4) 0.0109(4) 0.6899(4)
O13_17 O 0.9551(4) 0.1698(5) 0.6205(5)
H19_17 H 0.9696(16) 0.1535(7) 0.6121(15)
H20_17 H 0.9324(6) 0.166(5) 0.616(6)
O32_9 O 0.6092(4) 0.0703(5) 0.9983(5)
O33_9 O 0.9983(5) 0.1408(4) 0.6797(5)
H6_17 H 0.651257 0.999583 0.790607
H7_17 H 0.608343 0.986116 0.837439
O11_17 O 0.6946(4) 0.8331(4) 0.5747(4)
N5_17 N 0.6875(4) 0.9666(5) 0.6940(5)
H14_17 H 0.665971 0.962002 0.704502
C18_17 C 0.7207(6) 0.8564(5) 0.5809(5)
C19_17 C 0.7134(5) 0.8856(4) 0.6112(5)
C20_17 C 0.6790(5) 0.8865(5) 0.6295(6)
H15_17 H 0.660944 0.867979 0.623857
C21_17 C 0.6705(6) 0.9139(5) 0.6558(7)
H16_17 H 0.646500 0.914770 0.666751
C22_17 C 0.6984(5) 0.9410(6) 0.6661(6)
C23_17 C 0.7325(6) 0.9406(6) 0.6465(6)
H17_17 H 0.750417 0.959393 0.651257
C24_17 C 0.7403(5) 0.9130(5) 0.6203(6)
H18_17 H 0.763884 0.912561 0.608343
C25_17 C 0.7060(5) 0.9984(5) 0.7074(5)
O17_17 O 0.6205(5) 0.7949(4) 0.5802(5)
H22_17 H 0.6121(15) 0.7804(16) 0.5965(7)
H23_17 H 0.616(6) 0.8176(6) 0.584(5)
O18_9 O 0.6408(4) 0.6797(5) 0.4983(5)
O19_17 O 0.6291(4) 0.7311(5) 0.5370(5)
C27_17 C 0.6191(9) 0.6995(9) 0.5227(8)
H24_17 H 0.595526 0.689541 0.529425
O30_5 O 0.7111(4) 0.7111(4) 0.5389(4)
O31_9 O 0.6797(5) 0.7517(5) 0.6092(4)
O18_10 O 0.1092(4) 0.0703(5) 0.4983(5)
O19_18 O 0.1209(4) 0.0189(5) 0.5370(5)
C27_18 C 0.1309(9) 0.0505(9) 0.5227(8)
H24_18 H 0.154474 0.060459 0.529425
O30_6 O 0.0389(4) 0.0389(4) 0.5389(4)
O4_10 O 0.2111(4) 0.7111(4) 0.0389(4)
O6_10 O 0.2517(5) 0.6408(4) 0.0703(5)
O7_18 O 0.2130(5) 0.6291(4) 0.0189(5)
C9_18 C 0.2273(8) 0.6191(9) 0.0505(9)
H8_18 H 0.220575 0.595526 0.060459
O2_18 O 0.1753(4) 0.6946(4) 0.9169(4)
O5_18 O 0.1698(5) 0.6205(5) 0.9551(4)
H1_18 H 0.1535(7) 0.6121(15) 0.9696(16)
H2_18 H 0.166(5) 0.616(6) 0.9324(6)
N1_18 N 0.0560(5) 0.6875(4) 0.7834(5)
H3_18 H 0.045498 0.665971 0.787998
N2_17 N 0.0601(4) 0.7372(4) 0.7391(4)
C1_18 C 0.1691(5) 0.7207(6) 0.8936(5)
C2_18 C 0.1388(5) 0.7134(5) 0.8644(4)
C3_18 C 0.1205(6) 0.6790(5) 0.8635(5)
H4_18 H 0.126143 0.660944 0.882021
C4_18 C 0.0942(7) 0.6705(6) 0.8361(5)
H5_18 H 0.083249 0.646500 0.835230
C5_18 C 0.0839(6) 0.6984(5) 0.8090(6)
C6_18 C 0.1035(6) 0.7325(6) 0.8094(6)
H6_18 H 0.098743 0.750417 0.790607
C7_18 C 0.1297(6) 0.7403(5) 0.8370(5)
H7_18 H 0.141657 0.763884 0.837439
C8_18 C 0.0426(5) 0.7060(5) 0.7516(5)
N4_17 N 0.0109(4) 0.6899(4) 0.7372(4)
O11_18 O 0.0554(4) 0.9169(4) 0.5747(4)
N5_18 N 0.0625(4) 0.7834(5) 0.6940(5)
H14_18 H 0.084029 0.787998 0.704502
N6_17 N 0.0128(4) 0.7391(4) 0.6899(4)
C18_18 C 0.0293(6) 0.8936(5) 0.5809(5)
C19_18 C 0.0366(5) 0.8644(4) 0.6112(5)
C20_18 C 0.0710(5) 0.8635(5) 0.6295(6)
H15_18 H 0.089056 0.882021 0.623857
C21_18 C 0.0795(6) 0.8361(5) 0.6558(7)
H16_18 H 0.103500 0.835230 0.666751
C22_18 C 0.0516(5) 0.8090(6) 0.6661(6)
C23_18 C 0.0175(6) 0.8094(6) 0.6465(6)
C24_18 C 0.0097(5) 0.8370(5) 0.6203(6)
C25_18 C 0.0440(5) 0.7516(5) 0.7074(5)
O17_18 O 0.1295(5) 0.9551(4) 0.5802(5)
H22_18 H 0.1379(15) 0.9696(16) 0.5965(7)
H23_18 H 0.134(6) 0.9324(6) 0.584(5)
O31_10 O 0.0703(5) 0.9983(5) 0.6092(4)
O32_10 O 0.1408(4) 0.6797(5) 0.9983(5)
O9_18 O 0.8331(4) 0.5747(4) 0.6946(4)
N3_18 N 0.9666(5) 0.6940(5) 0.6875(4)
H9_18 H 0.962002 0.704502 0.665971
C10_18 C 0.8564(5) 0.5809(5) 0.7207(6)
C11_18 C 0.8856(4) 0.6112(5) 0.7134(5)
C12_18 C 0.8865(5) 0.6295(6) 0.6790(5)
H10_18 H 0.867979 0.623857 0.660944
C13_18 C 0.9139(5) 0.6558(7) 0.6705(6)
H11_18 H 0.914770 0.666751 0.646500
C14_18 C 0.9410(6) 0.6661(6) 0.6984(5)
C15_18 C 0.9406(6) 0.6465(6) 0.7325(6)
H12_18 H 0.959393 0.651257 0.750417
C16_18 C 0.9130(5) 0.6203(6) 0.7403(5)
H13_18 H 0.912561 0.608343 0.763884
C17_18 C 0.9984(5) 0.7074(5) 0.7060(5)
H17_18 H 0.999583 0.790607 0.651257
H18_18 H 0.986116 0.837439 0.608343
O13_18 O 0.7949(4) 0.5802(5) 0.6205(5)
H19_18 H 0.7804(16) 0.5965(7) 0.6121(15)
H20_18 H 0.8176(6) 0.584(5) 0.616(6)
O14_10 O 0.6797(5) 0.4983(5) 0.6408(4)
O15_18 O 0.7311(5) 0.5370(5) 0.6291(4)
C26_18 C 0.6995(9) 0.5227(8) 0.6191(9)
H21_18 H 0.689541 0.529425 0.595526
O29_6 O 0.7111(4) 0.5389(4) 0.7111(4)
O33_10 O 0.7517(5) 0.6092(4) 0.6797(5)
O2_19 O 0.1753(4) 0.0554(4) 0.8331(4)
O4_11 O 0.2111(4) 0.0389(4) 0.7111(4)
O5_19 O 0.1698(5) 0.1295(5) 0.7949(4)
H1_19 H 0.1535(7) 0.1379(15) 0.7804(16)
H2_19 H 0.166(5) 0.134(6) 0.8176(6)
O6_11 O 0.2517(5) 0.1092(4) 0.6797(5)
O7_19 O 0.2130(5) 0.1209(4) 0.7311(5)
N1_19 N 0.0560(5) 0.0625(4) 0.9666(5)
H3_19 H 0.045498 0.084029 0.962002
C1_19 C 0.1691(5) 0.0293(6) 0.8564(5)
C2_19 C 0.1388(5) 0.0366(5) 0.8856(4)
C3_19 C 0.1205(6) 0.0710(5) 0.8865(5)
H4_19 H 0.126143 0.089056 0.867979
C4_19 C 0.0942(7) 0.0795(6) 0.9139(5)
H5_19 H 0.083249 0.103500 0.914770
C5_19 C 0.0839(6) 0.0516(5) 0.9410(6)
C6_19 C 0.1035(6) 0.0175(6) 0.9406(6)
C7_19 C 0.1297(6) 0.0097(5) 0.9130(5)
C8_19 C 0.0426(5) 0.0440(5) 0.9984(5)
C9_19 C 0.2273(8) 0.1309(9) 0.6995(9)
H8_19 H 0.220575 0.154474 0.689541
O32_11 O 0.1408(4) 0.0703(5) 0.7517(5)
O11_19 O 0.0554(4) 0.8331(4) 0.1753(4)
N5_19 N 0.0625(4) 0.9666(5) 0.0560(5)
H14_19 H 0.084029 0.962002 0.045498
C18_19 C 0.0293(6) 0.8564(5) 0.1691(5)
C19_19 C 0.0366(5) 0.8856(4) 0.1388(5)
C20_19 C 0.0710(5) 0.8865(5) 0.1205(6)
H15_19 H 0.089056 0.867979 0.126143
C21_19 C 0.0795(6) 0.9139(5) 0.0942(7)
H16_19 H 0.103500 0.914770 0.083249
C22_19 C 0.0516(5) 0.9410(6) 0.0839(6)
C23_19 C 0.0175(6) 0.9406(6) 0.1035(6)
C24_19 C 0.0097(5) 0.9130(5) 0.1297(6)
C25_19 C 0.0440(5) 0.9984(5) 0.0426(5)
O17_19 O 0.1295(5) 0.7949(4) 0.1698(5)
H22_19 H 0.1379(15) 0.7804(16) 0.1535(7)
H23_19 H 0.134(6) 0.8176(6) 0.166(5)
O18_11 O 0.1092(4) 0.6797(5) 0.2517(5)
O19_19 O 0.1209(4) 0.7311(5) 0.2130(5)
C27_19 C 0.1309(9) 0.6995(9) 0.2273(8)
H24_19 H 0.154474 0.689541 0.220575
O30_7 O 0.0389(4) 0.7111(4) 0.2111(4)
O31_11 O 0.0703(5) 0.7517(5) 0.1408(4)
H6_19 H 0.098743 0.999583 0.959393
H7_19 H 0.141657 0.986116 0.912561
O9_19 O 0.8331(4) 0.1753(4) 0.0554(4)
N3_19 N 0.9666(5) 0.0560(5) 0.0625(4)
H9_19 H 0.962002 0.045498 0.084029
C10_19 C 0.8564(5) 0.1691(5) 0.0293(6)
C11_19 C 0.8856(4) 0.1388(5) 0.0366(5)
C12_19 C 0.8865(5) 0.1205(6) 0.0710(5)
H10_19 H 0.867979 0.126143 0.089056
C13_19 C 0.9139(5) 0.0942(7) 0.0795(6)
H11_19 H 0.914770 0.083249 0.103500
C14_19 C 0.9410(6) 0.0839(6) 0.0516(5)
C15_19 C 0.9406(6) 0.1035(6) 0.0175(6)
C16_19 C 0.9130(5) 0.1297(6) 0.0097(5)
C17_19 C 0.9984(5) 0.0426(5) 0.0440(5)
O13_19 O 0.7949(4) 0.1698(5) 0.1295(5)
H19_19 H 0.7804(16) 0.1535(7) 0.1379(15)
H20_19 H 0.8176(6) 0.166(5) 0.134(6)
O14_11 O 0.6797(5) 0.2517(5) 0.1092(4)
O15_19 O 0.7311(5) 0.2130(5) 0.1209(4)
C26_19 C 0.6995(9) 0.2273(8) 0.1309(9)
H21_19 H 0.689541 0.220575 0.154474
O29_7 O 0.7111(4) 0.2111(4) 0.0389(4)
O33_11 O 0.7517(5) 0.1408(4) 0.0703(5)
H12_19 H 0.959393 0.098743 0.999583
H13_19 H 0.912561 0.141657 0.986116
H17_19 H 0.999583 0.959393 0.098743
H18_19 H 0.986116 0.912561 0.141657
O14_12 O 0.0703(5) 0.4983(5) 0.1092(4)
O15_20 O 0.0189(5) 0.5370(5) 0.1209(4)
C26_20 C 0.0505(9) 0.5227(8) 0.1309(9)
H21_20 H 0.060459 0.529425 0.154474
O29_8 O 0.0389(4) 0.5389(4) 0.0389(4)
O18_12 O 0.6408(4) 0.0703(5) 0.2517(5)
O19_20 O 0.6291(4) 0.0189(5) 0.2130(5)
C27_20 C 0.6191(9) 0.0505(9) 0.2273(8)
H24_20 H 0.595526 0.060459 0.220575
O30_8 O 0.7111(4) 0.0389(4) 0.2111(4)
N2_18 N 0.6899(4) 0.7372(4) 0.0109(4)
O9_20 O 0.9169(4) 0.5747(4) 0.0554(4)
N3_20 N 0.7834(5) 0.6940(5) 0.0625(4)
H9_20 H 0.787998 0.704502 0.084029
N4_18 N 0.7391(4) 0.6899(4) 0.0128(4)
C10_20 C 0.8936(5) 0.5809(5) 0.0293(6)
C11_20 C 0.8644(4) 0.6112(5) 0.0366(5)
C12_20 C 0.8635(5) 0.6295(6) 0.0710(5)
H10_20 H 0.882021 0.623857 0.089056
C13_20 C 0.8361(5) 0.6558(7) 0.0795(6)
H11_20 H 0.835230 0.666751 0.103500
C14_20 C 0.8090(6) 0.6661(6) 0.0516(5)
C15_20 C 0.8094(6) 0.6465(6) 0.0175(6)
C16_20 C 0.8370(5) 0.6203(6) 0.0097(5)
C17_20 C 0.7516(5) 0.7074(5) 0.0440(5)
O11_20 O 0.6946(4) 0.9169(4) 0.1753(4)
N5_20 N 0.6875(4) 0.7834(5) 0.0560(5)
H14_20 H 0.665971 0.787998 0.045498
N6_18 N 0.7372(4) 0.7391(4) 0.0601(4)
C18_20 C 0.7207(6) 0.8936(5) 0.1691(5)
C19_20 C 0.7134(5) 0.8644(4) 0.1388(5)
C20_20 C 0.6790(5) 0.8635(5) 0.1205(6)
H15_20 H 0.660944 0.882021 0.126143
C21_20 C 0.6705(6) 0.8361(5) 0.0942(7)
H16_20 H 0.646500 0.835230 0.083249
C22_20 C 0.6984(5) 0.8090(6) 0.0839(6)
C23_20 C 0.7325(6) 0.8094(6) 0.1035(6)
H17_20 H 0.750417 0.790607 0.098743
C24_20 C 0.7403(5) 0.8370(5) 0.1297(6)
H18_20 H 0.763884 0.837439 0.141657
C25_20 C 0.7060(5) 0.7516(5) 0.0426(5)
O13_20 O 0.9551(4) 0.5802(5) 0.1295(5)
H19_20 H 0.9696(16) 0.5965(7) 0.1379(15)
H20_20 H 0.9324(6) 0.584(5) 0.134(6)
O17_20 O 0.6205(5) 0.9551(4) 0.1698(5)
H22_20 H 0.6121(15) 0.9696(16) 0.1535(7)
H23_20 H 0.616(6) 0.9324(6) 0.166(5)
O31_12 O 0.6797(5) 0.9983(5) 0.1408(4)
O33_12 O 0.9983(5) 0.6092(4) 0.0703(5)
O2_20 O 0.5747(4) 0.6946(4) 0.8331(4)
O4_12 O 0.5389(4) 0.7111(4) 0.7111(4)
O5_20 O 0.5802(5) 0.6205(5) 0.7949(4)
H1_20 H 0.5965(7) 0.6121(15) 0.7804(16)
H2_20 H 0.584(5) 0.616(6) 0.8176(6)
O6_12 O 0.4983(5) 0.6408(4) 0.6797(5)
O7_20 O 0.5370(5) 0.6291(4) 0.7311(5)
N1_20 N 0.6940(5) 0.6875(4) 0.9666(5)
H3_20 H 0.704502 0.665971 0.962002
C1_20 C 0.5809(5) 0.7207(6) 0.8564(5)
C2_20 C 0.6112(5) 0.7134(5) 0.8856(4)
C3_20 C 0.6295(6) 0.6790(5) 0.8865(5)
H4_20 H 0.623857 0.660944 0.867979
C4_20 C 0.6558(7) 0.6705(6) 0.9139(5)
H5_20 H 0.666751 0.646500 0.914770
C5_20 C 0.6661(6) 0.6984(5) 0.9410(6)
C6_20 C 0.6465(6) 0.7325(6) 0.9406(6)
H6_20 H 0.651257 0.750417 0.959393
C7_20 C 0.6203(6) 0.7403(5) 0.9130(5)
H7_20 H 0.608343 0.763884 0.912561
C8_20 C 0.7074(5) 0.7060(5) 0.9984(5)
C9_20 C 0.5227(8) 0.6191(9) 0.6995(9)
H8_20 H 0.529425 0.595526 0.689541
H12_20 H 0.790607 0.651257 0.999583
H13_20 H 0.837439 0.608343 0.986116
O32_12 O 0.6092(4) 0.6797(5) 0.7517(5)
O15_21 O 0.0189(5) 0.7130(5) 0.1291(4)
C26_21 C 0.0505(9) 0.7273(8) 0.1191(9)
H21_21 H 0.060459 0.720575 0.095526
O2_21 O 0.5747(4) 0.5554(4) 0.4169(4)
O4_13 O 0.5389(4) 0.5389(4) 0.5389(4)
O5_21 O 0.5802(5) 0.6295(5) 0.4551(4)
H1_21 H 0.5965(7) 0.6379(15) 0.4696(16)
H2_21 H 0.584(5) 0.634(6) 0.4324(6)
O6_13 O 0.4983(5) 0.6092(4) 0.5703(5)
O7_21 O 0.5370(5) 0.6209(4) 0.5189(5)
N1_21 N 0.6940(5) 0.5625(4) 0.2834(5)
H3_21 H 0.704502 0.584029 0.287998
N2_19 N 0.6899(4) 0.5128(4) 0.2391(4)
C1_21 C 0.5809(5) 0.5293(6) 0.3936(5)
C2_21 C 0.6112(5) 0.5366(5) 0.3644(4)
C3_21 C 0.6295(6) 0.5710(5) 0.3635(5)
H4_21 H 0.623857 0.589056 0.382021
C4_21 C 0.6558(7) 0.5795(6) 0.3361(5)
H5_21 H 0.666751 0.603500 0.335230
C5_21 C 0.6661(6) 0.5516(5) 0.3090(6)
C6_21 C 0.6465(6) 0.5175(6) 0.3094(6)
H6_21 H 0.651257 0.499583 0.290607
C7_21 C 0.6203(6) 0.5097(5) 0.3370(5)
H7_21 H 0.608343 0.486116 0.337439
C8_21 C 0.7074(5) 0.5440(5) 0.2516(5)
C9_21 C 0.5227(8) 0.6309(9) 0.5505(9)
H8_21 H 0.529425 0.654474 0.560459
O9_21 O 0.9169(4) 0.6753(4) 0.1946(4)
N3_21 N 0.7834(5) 0.5560(5) 0.1875(4)
H9_21 H 0.787998 0.545498 0.165971
N4_19 N 0.7391(4) 0.5601(4) 0.2372(4)
C10_21 C 0.8936(5) 0.6691(5) 0.2207(6)
C11_21 C 0.8644(4) 0.6388(5) 0.2134(5)
C12_21 C 0.8635(5) 0.6205(6) 0.1790(5)
H10_21 H 0.882021 0.626143 0.160944
C13_21 C 0.8361(5) 0.5942(7) 0.1705(6)
H11_21 H 0.835230 0.583249 0.146500
C14_21 C 0.8090(6) 0.5839(6) 0.1984(5)
C15_21 C 0.8094(6) 0.6035(6) 0.2325(6)
H12_21 H 0.790607 0.598743 0.250417
C16_21 C 0.8370(5) 0.6297(6) 0.2403(5)
H13_21 H 0.837439 0.641657 0.263884
C17_21 C 0.7516(5) 0.5426(5) 0.2060(5)
O11_21 O 0.6946(4) 0.3331(4) 0.0747(4)
N5_21 N 0.6875(4) 0.4666(5) 0.1940(5)
H14_21 H 0.665971 0.462002 0.204502
N6_19 N 0.7372(4) 0.5109(4) 0.1899(4)
C18_21 C 0.7207(6) 0.3564(5) 0.0809(5)
C19_21 C 0.7134(5) 0.3856(4) 0.1112(5)
C20_21 C 0.6790(5) 0.3865(5) 0.1295(6)
H15_21 H 0.660944 0.367979 0.123857
C21_21 C 0.6705(6) 0.4139(5) 0.1558(7)
H16_21 H 0.646500 0.414770 0.166751
C22_21 C 0.6984(5) 0.4410(6) 0.1661(6)
C23_21 C 0.7325(6) 0.4406(6) 0.1465(6)
H17_21 H 0.750417 0.459393 0.151257
C24_21 C 0.7403(5) 0.4130(5) 0.1203(6)
H18_21 H 0.763884 0.412561 0.108343
C25_21 C 0.7060(5) 0.4984(5) 0.2074(5)
O13_21 O 0.9551(4) 0.6698(5) 0.1205(5)
H19_21 H 0.9696(16) 0.6535(7) 0.1121(15)
H20_21 H 0.9324(6) 0.666(5) 0.116(6)
O17_21 O 0.6205(5) 0.2949(4) 0.0802(5)
H22_21 H 0.6121(15) 0.2804(16) 0.0965(7)
H23_21 H 0.616(6) 0.3176(6) 0.084(5)
O19_21 O 0.6291(4) 0.2311(5) 0.0370(5)
C27_21 C 0.6191(9) 0.1995(9) 0.0227(8)
H24_21 H 0.595526 0.189541 0.029425
O32_13 O 0.6092(4) 0.5703(5) 0.4983(5)
O33_13 O 0.9983(5) 0.6408(4) 0.1797(5)
O18_13 O 0.6408(4) 0.1797(5) 0.9983(5)
O2_22 O 0.1753(4) 0.1946(4) 0.4169(4)
O4_14 O 0.2111(4) 0.2111(4) 0.5389(4)
O5_22 O 0.1698(5) 0.1205(5) 0.4551(4)
H1_22 H 0.1535(7) 0.1121(15) 0.4696(16)
H2_22 H 0.166(5) 0.116(6) 0.4324(6)
O6_14 O 0.2517(5) 0.1408(4) 0.5703(5)
O7_22 O 0.2130(5) 0.1291(4) 0.5189(5)
N1_22 N 0.0560(5) 0.1875(4) 0.2834(5)
H3_22 H 0.045498 0.165971 0.287998
N2_20 N 0.0601(4) 0.2372(4) 0.2391(4)
C1_22 C 0.1691(5) 0.2207(6) 0.3936(5)
C2_22 C 0.1388(5) 0.2134(5) 0.3644(4)
C3_22 C 0.1205(6) 0.1790(5) 0.3635(5)
H4_22 H 0.126143 0.160944 0.382021
C4_22 C 0.0942(7) 0.1705(6) 0.3361(5)
H5_22 H 0.083249 0.146500 0.335230
C5_22 C 0.0839(6) 0.1984(5) 0.3090(6)
C6_22 C 0.1035(6) 0.2325(6) 0.3094(6)
H6_22 H 0.098743 0.250417 0.290607
C7_22 C 0.1297(6) 0.2403(5) 0.3370(5)
H7_22 H 0.141657 0.263884 0.337439
C8_22 C 0.0426(5) 0.2060(5) 0.2516(5)
C9_22 C 0.2273(8) 0.1191(9) 0.5505(9)
H8_22 H 0.220575 0.095526 0.560459
N4_20 N 0.0109(4) 0.1899(4) 0.2372(4)
O11_22 O 0.0554(4) 0.4169(4) 0.0747(4)
N5_22 N 0.0625(4) 0.2834(5) 0.1940(5)
H14_22 H 0.084029 0.287998 0.204502
N6_20 N 0.0128(4) 0.2391(4) 0.1899(4)
C18_22 C 0.0293(6) 0.3936(5) 0.0809(5)
C19_22 C 0.0366(5) 0.3644(4) 0.1112(5)
C20_22 C 0.0710(5) 0.3635(5) 0.1295(6)
H15_22 H 0.089056 0.382021 0.123857
C21_22 C 0.0795(6) 0.3361(5) 0.1558(7)
H16_22 H 0.103500 0.335230 0.166751
C22_22 C 0.0516(5) 0.3090(6) 0.1661(6)
C23_22 C 0.0175(6) 0.3094(6) 0.1465(6)
C24_22 C 0.0097(5) 0.3370(5) 0.1203(6)
C25_22 C 0.0440(5) 0.2516(5) 0.2074(5)
O17_22 O 0.1295(5) 0.4551(4) 0.0802(5)
H22_22 H 0.1379(15) 0.4696(16) 0.0965(7)
H23_22 H 0.134(6) 0.4324(6) 0.084(5)
O19_22 O 0.1209(4) 0.5189(5) 0.0370(5)
C27_22 C 0.1309(9) 0.5505(9) 0.0227(8)
H24_22 H 0.154474 0.560459 0.029425
O32_14 O 0.1408(4) 0.1797(5) 0.4983(5)
O18_14 O 0.1092(4) 0.5703(5) 0.9983(5)
O9_22 O 0.8331(4) 0.0747(4) 0.1946(4)
N3_22 N 0.9666(5) 0.1940(5) 0.1875(4)
H9_22 H 0.962002 0.204502 0.165971
C10_22 C 0.8564(5) 0.0809(5) 0.2207(6)
C11_22 C 0.8856(4) 0.1112(5) 0.2134(5)
C12_22 C 0.8865(5) 0.1295(6) 0.1790(5)
H10_22 H 0.867979 0.123857 0.160944
C13_22 C 0.9139(5) 0.1558(7) 0.1705(6)
H11_22 H 0.914770 0.166751 0.146500
C14_22 C 0.9410(6) 0.1661(6) 0.1984(5)
C15_22 C 0.9406(6) 0.1465(6) 0.2325(6)
H12_22 H 0.959393 0.151257 0.250417
C16_22 C 0.9130(5) 0.1203(6) 0.2403(5)
H13_22 H 0.912561 0.108343 0.263884
C17_22 C 0.9984(5) 0.2074(5) 0.2060(5)
H17_22 H 0.999583 0.290607 0.151257
H18_22 H 0.986116 0.337439 0.108343
O13_22 O 0.7949(4) 0.0802(5) 0.1205(5)
H19_22 H 0.7804(16) 0.0965(7) 0.1121(15)
H20_22 H 0.8176(6) 0.084(5) 0.116(6)
O15_22 O 0.7311(5) 0.0370(5) 0.1291(4)
C26_22 C 0.6995(9) 0.0227(8) 0.1191(9)
H21_22 H 0.689541 0.029425 0.095526
O33_14 O 0.7517(5) 0.1092(4) 0.1797(5)
O2_23 O 0.1753(4) 0.5554(4) 0.3331(4)
O4_15 O 0.2111(4) 0.5389(4) 0.2111(4)
O5_23 O 0.1698(5) 0.6295(5) 0.2949(4)
H1_23 H 0.1535(7) 0.6379(15) 0.2804(16)
H2_23 H 0.166(5) 0.634(6) 0.3176(6)
O6_15 O 0.2517(5) 0.6092(4) 0.1797(5)
O7_23 O 0.2130(5) 0.6209(4) 0.2311(5)
N1_23 N 0.0560(5) 0.5625(4) 0.4666(5)
H3_23 H 0.045498 0.584029 0.462002
N2_21 N 0.0601(4) 0.5128(4) 0.5109(4)
C1_23 C 0.1691(5) 0.5293(6) 0.3564(5)
C2_23 C 0.1388(5) 0.5366(5) 0.3856(4)
C3_23 C 0.1205(6) 0.5710(5) 0.3865(5)
H4_23 H 0.126143 0.589056 0.367979
C4_23 C 0.0942(7) 0.5795(6) 0.4139(5)
H5_23 H 0.083249 0.603500 0.414770
C5_23 C 0.0839(6) 0.5516(5) 0.4410(6)
C6_23 C 0.1035(6) 0.5175(6) 0.4406(6)
H6_23 H 0.098743 0.499583 0.459393
C7_23 C 0.1297(6) 0.5097(5) 0.4130(5)
H7_23 H 0.141657 0.486116 0.412561
C8_23 C 0.0426(5) 0.5440(5) 0.4984(5)
C9_23 C 0.2273(8) 0.6309(9) 0.1995(9)
H8_23 H 0.220575 0.654474 0.189541
N4_21 N 0.0109(4) 0.5601(4) 0.5128(4)
O11_23 O 0.0554(4) 0.3331(4) 0.6753(4)
N5_23 N 0.0625(4) 0.4666(5) 0.5560(5)
H14_23 H 0.084029 0.462002 0.545498
N6_21 N 0.0128(4) 0.5109(4) 0.5601(4)
C18_23 C 0.0293(6) 0.3564(5) 0.6691(5)
C19_23 C 0.0366(5) 0.3856(4) 0.6388(5)
C20_23 C 0.0710(5) 0.3865(5) 0.6205(6)
H15_23 H 0.089056 0.367979 0.626143
C21_23 C 0.0795(6) 0.4139(5) 0.5942(7)
H16_23 H 0.103500 0.414770 0.583249
C22_23 C 0.0516(5) 0.4410(6) 0.5839(6)
C23_23 C 0.0175(6) 0.4406(6) 0.6035(6)
C24_23 C 0.0097(5) 0.4130(5) 0.6297(6)
C25_23 C 0.0440(5) 0.4984(5) 0.5426(5)
O17_23 O 0.1295(5) 0.2949(4) 0.6698(5)
H22_23 H 0.1379(15) 0.2804(16) 0.6535(7)
H23_23 H 0.134(6) 0.3176(6) 0.666(5)
O18_15 O 0.1092(4) 0.1797(5) 0.7517(5)
O19_23 O 0.1209(4) 0.2311(5) 0.7130(5)
C27_23 C 0.1309(9) 0.1995(9) 0.7273(8)
H24_23 H 0.154474 0.189541 0.720575
O32_15 O 0.1408(4) 0.5703(5) 0.2517(5)
O9_23 O 0.8331(4) 0.6753(4) 0.5554(4)
N3_23 N 0.9666(5) 0.5560(5) 0.5625(4)
H9_23 H 0.962002 0.545498 0.584029
C10_23 C 0.8564(5) 0.6691(5) 0.5293(6)
C11_23 C 0.8856(4) 0.6388(5) 0.5366(5)
C12_23 C 0.8865(5) 0.6205(6) 0.5710(5)
H10_23 H 0.867979 0.626143 0.589056
C13_23 C 0.9139(5) 0.5942(7) 0.5795(6)
H11_23 H 0.914770 0.583249 0.603500
C14_23 C 0.9410(6) 0.5839(6) 0.5516(5)
C15_23 C 0.9406(6) 0.6035(6) 0.5175(6)
H12_23 H 0.959393 0.598743 0.499583
C16_23 C 0.9130(5) 0.6297(6) 0.5097(5)
H13_23 H 0.912561 0.641657 0.486116
C17_23 C 0.9984(5) 0.5426(5) 0.5440(5)
H17_23 H 0.999583 0.459393 0.598743
H18_23 H 0.986116 0.412561 0.641657
O13_23 O 0.7949(4) 0.6698(5) 0.6295(5)
H19_23 H 0.7804(16) 0.6535(7) 0.6379(15)
H20_23 H 0.8176(6) 0.666(5) 0.634(6)
O15_23 O 0.7311(5) 0.7130(5) 0.6209(4)
C26_23 C 0.6995(9) 0.7273(8) 0.6309(9)
H21_23 H 0.689541 0.720575 0.654474
O33_15 O 0.7517(5) 0.6408(4) 0.5703(5)
O15_24 O 0.0189(5) 0.0370(5) 0.6209(4)
C26_24 C 0.0505(9) 0.0227(8) 0.6309(9)
H21_24 H 0.060459 0.029425 0.654474
O2_24 O 0.5747(4) 0.1946(4) 0.3331(4)
O4_16 O 0.5389(4) 0.2111(4) 0.2111(4)
O5_24 O 0.5802(5) 0.1205(5) 0.2949(4)
H1_24 H 0.5965(7) 0.1121(15) 0.2804(16)
H2_24 H 0.584(5) 0.116(6) 0.3176(6)
O6_16 O 0.4983(5) 0.1408(4) 0.1797(5)
O7_24 O 0.5370(5) 0.1291(4) 0.2311(5)
N1_24 N 0.6940(5) 0.1875(4) 0.4666(5)
H3_24 H 0.704502 0.165971 0.462002
N2_22 N 0.6899(4) 0.2372(4) 0.5109(4)
C1_24 C 0.5809(5) 0.2207(6) 0.3564(5)
C2_24 C 0.6112(5) 0.2134(5) 0.3856(4)
C3_24 C 0.6295(6) 0.1790(5) 0.3865(5)
H4_24 H 0.623857 0.160944 0.367979
C4_24 C 0.6558(7) 0.1705(6) 0.4139(5)
H5_24 H 0.666751 0.146500 0.414770
C5_24 C 0.6661(6) 0.1984(5) 0.4410(6)
C6_24 C 0.6465(6) 0.2325(6) 0.4406(6)
H6_24 H 0.651257 0.250417 0.459393
C7_24 C 0.6203(6) 0.2403(5) 0.4130(5)
H7_24 H 0.608343 0.263884 0.412561
C8_24 C 0.7074(5) 0.2060(5) 0.4984(5)
C9_24 C 0.5227(8) 0.1191(9) 0.1995(9)
H8_24 H 0.529425 0.095526 0.189541
O9_24 O 0.9169(4) 0.0747(4) 0.5554(4)
N3_24 N 0.7834(5) 0.1940(5) 0.5625(4)
H9_24 H 0.787998 0.204502 0.584029
N4_22 N 0.7391(4) 0.1899(4) 0.5128(4)
C10_24 C 0.8936(5) 0.0809(5) 0.5293(6)
C11_24 C 0.8644(4) 0.1112(5) 0.5366(5)
C12_24 C 0.8635(5) 0.1295(6) 0.5710(5)
H10_24 H 0.882021 0.123857 0.589056
C13_24 C 0.8361(5) 0.1558(7) 0.5795(6)
H11_24 H 0.835230 0.166751 0.603500
C14_24 C 0.8090(6) 0.1661(6) 0.5516(5)
C15_24 C 0.8094(6) 0.1465(6) 0.5175(6)
H12_24 H 0.790607 0.151257 0.499583
C16_24 C 0.8370(5) 0.1203(6) 0.5097(5)
H13_24 H 0.837439 0.108343 0.486116
C17_24 C 0.7516(5) 0.2074(5) 0.5440(5)
O11_24 O 0.6946(4) 0.4169(4) 0.6753(4)
N5_24 N 0.6875(4) 0.2834(5) 0.5560(5)
H14_24 H 0.665971 0.287998 0.545498
N6_22 N 0.7372(4) 0.2391(4) 0.5601(4)
C18_24 C 0.7207(6) 0.3936(5) 0.6691(5)
C19_24 C 0.7134(5) 0.3644(4) 0.6388(5)
C20_24 C 0.6790(5) 0.3635(5) 0.6205(6)
H15_24 H 0.660944 0.382021 0.626143
C21_24 C 0.6705(6) 0.3361(5) 0.5942(7)
H16_24 H 0.646500 0.335230 0.583249
C22_24 C 0.6984(5) 0.3090(6) 0.5839(6)
C23_24 C 0.7325(6) 0.3094(6) 0.6035(6)
H17_24 H 0.750417 0.290607 0.598743
C24_24 C 0.7403(5) 0.3370(5) 0.6297(6)
H18_24 H 0.763884 0.337439 0.641657
C25_24 C 0.7060(5) 0.2516(5) 0.5426(5)
O13_24 O 0.9551(4) 0.0802(5) 0.6295(5)
H19_24 H 0.9696(16) 0.0965(7) 0.6379(15)
H20_24 H 0.9324(6) 0.084(5) 0.634(6)
O17_24 O 0.6205(5) 0.4551(4) 0.6698(5)
H22_24 H 0.6121(15) 0.4696(16) 0.6535(7)
H23_24 H 0.616(6) 0.4324(6) 0.666(5)
O18_16 O 0.6408(4) 0.5703(5) 0.7517(5)
O19_24 O 0.6291(4) 0.5189(5) 0.7130(5)
C27_24 C 0.6191(9) 0.5505(9) 0.7273(8)
H24_24 H 0.595526 0.560459 0.720575
O32_16 O 0.6092(4) 0.1797(5) 0.2517(5)
O33_16 O 0.9983(5) 0.1092(4) 0.5703(5)
O2_25 O 0.0747(4) 0.0554(4) 0.4169(4)
O5_25 O 0.0802(5) 0.1295(5) 0.4551(4)
H1_25 H 0.0965(7) 0.1379(15) 0.4696(16)
H2_25 H 0.084(5) 0.134(6) 0.4324(6)
O7_25 O 0.0370(5) 0.1209(4) 0.5189(5)
N1_25 N 0.1940(5) 0.0625(4) 0.2834(5)
H3_25 H 0.204502 0.084029 0.287998
N2_23 N 0.1899(4) 0.0128(4) 0.2391(4)
C1_25 C 0.0809(5) 0.0293(6) 0.3936(5)
C2_25 C 0.1112(5) 0.0366(5) 0.3644(4)
C3_25 C 0.1295(6) 0.0710(5) 0.3635(5)
H4_25 H 0.123857 0.089056 0.382021
C4_25 C 0.1558(7) 0.0795(6) 0.3361(5)
H5_25 H 0.166751 0.103500 0.335230
C5_25 C 0.1661(6) 0.0516(5) 0.3090(6)
C6_25 C 0.1465(6) 0.0175(6) 0.3094(6)
C7_25 C 0.1203(6) 0.0097(5) 0.3370(5)
C8_25 C 0.2074(5) 0.0440(5) 0.2516(5)
C9_25 C 0.0227(8) 0.1309(9) 0.5505(9)
H8_25 H 0.029425 0.154474 0.560459
O9_25 O 0.4169(4) 0.1753(4) 0.1946(4)
N3_25 N 0.2834(5) 0.0560(5) 0.1875(4)
H9_25 H 0.287998 0.045498 0.165971
N4_23 N 0.2391(4) 0.0601(4) 0.2372(4)
C10_25 C 0.3936(5) 0.1691(5) 0.2207(6)
C11_25 C 0.3644(4) 0.1388(5) 0.2134(5)
C12_25 C 0.3635(5) 0.1205(6) 0.1790(5)
H10_25 H 0.382021 0.126143 0.160944
C13_25 C 0.3361(5) 0.0942(7) 0.1705(6)
H11_25 H 0.335230 0.083249 0.146500
C14_25 C 0.3090(6) 0.0839(6) 0.1984(5)
C15_25 C 0.3094(6) 0.1035(6) 0.2325(6)
H12_25 H 0.290607 0.098743 0.250417
C16_25 C 0.3370(5) 0.1297(6) 0.2403(5)
H13_25 H 0.337439 0.141657 0.263884
C17_25 C 0.2516(5) 0.0426(5) 0.2060(5)
N6_23 N 0.2372(4) 0.0109(4) 0.1899(4)
O13_25 O 0.4551(4) 0.1698(5) 0.1205(5)
H19_25 H 0.4696(16) 0.1535(7) 0.1121(15)
H20_25 H 0.4324(6) 0.166(5) 0.116(6)
O14_13 O 0.5703(5) 0.2517(5) 0.1408(4)
O15_25 O 0.5189(5) 0.2130(5) 0.1291(4)
C26_25 C 0.5505(9) 0.2273(8) 0.1191(9)
H21_25 H 0.560459 0.220575 0.095526
H6_25 H 0.151257 0.999583 0.290607
H7_25 H 0.108343 0.986116 0.337439
O11_25 O 0.1946(4) 0.8331(4) 0.0747(4)
N5_25 N 0.1875(4) 0.9666(5) 0.1940(5)
H14_25 H 0.165971 0.962002 0.204502
C18_25 C 0.2207(6) 0.8564(5) 0.0809(5)
C19_25 C 0.2134(5) 0.8856(4) 0.1112(5)
C20_25 C 0.1790(5) 0.8865(5) 0.1295(6)
H15_25 H 0.160944 0.867979 0.123857
C21_25 C 0.1705(6) 0.9139(5) 0.1558(7)
H16_25 H 0.146500 0.914770 0.166751
C22_25 C 0.1984(5) 0.9410(6) 0.1661(6)
C23_25 C 0.2325(6) 0.9406(6) 0.1465(6)
H17_25 H 0.250417 0.959393 0.151257
C24_25 C 0.2403(5) 0.9130(5) 0.1203(6)
H18_25 H 0.263884 0.912561 0.108343
C25_25 C 0.2060(5) 0.9984(5) 0.2074(5)
O17_25 O 0.1205(5) 0.7949(4) 0.0802(5)
H22_25 H 0.1121(15) 0.7804(16) 0.0965(7)
H23_25 H 0.116(6) 0.8176(6) 0.084(5)
O19_25 O 0.1291(4) 0.7311(5) 0.0370(5)
C27_25 C 0.1191(9) 0.6995(9) 0.0227(8)
H24_25 H 0.095526 0.689541 0.029425
O31_13 O 0.1797(5) 0.7517(5) 0.1092(4)
O19_26 O 0.6209(4) 0.0189(5) 0.0370(5)
C27_26 C 0.6309(9) 0.0505(9) 0.0227(8)
H24_26 H 0.654474 0.060459 0.029425
O2_26 O 0.6753(4) 0.6946(4) 0.4169(4)
O5_26 O 0.6698(5) 0.6205(5) 0.4551(4)
H1_26 H 0.6535(7) 0.6121(15) 0.4696(16)
H2_26 H 0.666(5) 0.616(6) 0.4324(6)
O7_26 O 0.7130(5) 0.6291(4) 0.5189(5)
N1_26 N 0.5560(5) 0.6875(4) 0.2834(5)
H3_26 H 0.545498 0.665971 0.287998
N2_24 N 0.5601(4) 0.7372(4) 0.2391(4)
C1_26 C 0.6691(5) 0.7207(6) 0.3936(5)
C2_26 C 0.6388(5) 0.7134(5) 0.3644(4)
C3_26 C 0.6205(6) 0.6790(5) 0.3635(5)
H4_26 H 0.626143 0.660944 0.382021
C4_26 C 0.5942(7) 0.6705(6) 0.3361(5)
H5_26 H 0.583249 0.646500 0.335230
C5_26 C 0.5839(6) 0.6984(5) 0.3090(6)
C6_26 C 0.6035(6) 0.7325(6) 0.3094(6)
H6_26 H 0.598743 0.750417 0.290607
C7_26 C 0.6297(6) 0.7403(5) 0.3370(5)
H7_26 H 0.641657 0.763884 0.337439
C8_26 C 0.5426(5) 0.7060(5) 0.2516(5)
C9_26 C 0.7273(8) 0.6191(9) 0.5505(9)
H8_26 H 0.720575 0.595526 0.560459
O9_26 O 0.3331(4) 0.5747(4) 0.1946(4)
N3_26 N 0.4666(5) 0.6940(5) 0.1875(4)
H9_26 H 0.462002 0.704502 0.165971
N4_24 N 0.5109(4) 0.6899(4) 0.2372(4)
C10_26 C 0.3564(5) 0.5809(5) 0.2207(6)
C11_26 C 0.3856(4) 0.6112(5) 0.2134(5)
C12_26 C 0.3865(5) 0.6295(6) 0.1790(5)
H10_26 H 0.367979 0.623857 0.160944
C13_26 C 0.4139(5) 0.6558(7) 0.1705(6)
H11_26 H 0.414770 0.666751 0.146500
C14_26 C 0.4410(6) 0.6661(6) 0.1984(5)
C15_26 C 0.4406(6) 0.6465(6) 0.2325(6)
H12_26 H 0.459393 0.651257 0.250417
C16_26 C 0.4130(5) 0.6203(6) 0.2403(5)
H13_26 H 0.412561 0.608343 0.263884
C17_26 C 0.4984(5) 0.7074(5) 0.2060(5)
O11_26 O 0.5554(4) 0.9169(4) 0.0747(4)
N5_26 N 0.5625(4) 0.7834(5) 0.1940(5)
H14_26 H 0.584029 0.787998 0.204502
N6_24 N 0.5128(4) 0.7391(4) 0.1899(4)
C18_26 C 0.5293(6) 0.8936(5) 0.0809(5)
C19_26 C 0.5366(5) 0.8644(4) 0.1112(5)
C20_26 C 0.5710(5) 0.8635(5) 0.1295(6)
H15_26 H 0.589056 0.882021 0.123857
C21_26 C 0.5795(6) 0.8361(5) 0.1558(7)
H16_26 H 0.603500 0.835230 0.166751
C22_26 C 0.5516(5) 0.8090(6) 0.1661(6)
C23_26 C 0.5175(6) 0.8094(6) 0.1465(6)
H17_26 H 0.499583 0.790607 0.151257
C24_26 C 0.5097(5) 0.8370(5) 0.1203(6)
H18_26 H 0.486116 0.837439 0.108343
C25_26 C 0.5440(5) 0.7516(5) 0.2074(5)
O13_26 O 0.2949(4) 0.5802(5) 0.1205(5)
H19_26 H 0.2804(16) 0.5965(7) 0.1121(15)
H20_26 H 0.3176(6) 0.584(5) 0.116(6)
O14_14 O 0.1797(5) 0.4983(5) 0.1408(4)
O15_26 O 0.2311(5) 0.5370(5) 0.1291(4)
C26_26 C 0.1995(9) 0.5227(8) 0.1191(9)
H21_26 H 0.189541 0.529425 0.095526
O17_26 O 0.6295(5) 0.9551(4) 0.0802(5)
H22_26 H 0.6379(15) 0.9696(16) 0.0965(7)
H23_26 H 0.634(6) 0.9324(6) 0.084(5)
O31_14 O 0.5703(5) 0.9983(5) 0.1092(4)
O2_27 O 0.6753(4) 0.0554(4) 0.3331(4)
O5_27 O 0.6698(5) 0.1295(5) 0.2949(4)
H1_27 H 0.6535(7) 0.1379(15) 0.2804(16)
H2_27 H 0.666(5) 0.134(6) 0.3176(6)
O7_27 O 0.7130(5) 0.1209(4) 0.2311(5)
N1_27 N 0.5560(5) 0.0625(4) 0.4666(5)
H3_27 H 0.545498 0.084029 0.462002
N2_25 N 0.5601(4) 0.0128(4) 0.5109(4)
C1_27 C 0.6691(5) 0.0293(6) 0.3564(5)
C2_27 C 0.6388(5) 0.0366(5) 0.3856(4)
C3_27 C 0.6205(6) 0.0710(5) 0.3865(5)
H4_27 H 0.626143 0.089056 0.367979
C4_27 C 0.5942(7) 0.0795(6) 0.4139(5)
H5_27 H 0.583249 0.103500 0.414770
C5_27 C 0.5839(6) 0.0516(5) 0.4410(6)
C6_27 C 0.6035(6) 0.0175(6) 0.4406(6)
C7_27 C 0.6297(6) 0.0097(5) 0.4130(5)
C8_27 C 0.5426(5) 0.0440(5) 0.4984(5)
C9_27 C 0.7273(8) 0.1309(9) 0.1995(9)
H8_27 H 0.720575 0.154474 0.189541
O9_27 O 0.3331(4) 0.1753(4) 0.5554(4)
N3_27 N 0.4666(5) 0.0560(5) 0.5625(4)
H9_27 H 0.462002 0.045498 0.584029
N4_25 N 0.5109(4) 0.0601(4) 0.5128(4)
C10_27 C 0.3564(5) 0.1691(5) 0.5293(6)
C11_27 C 0.3856(4) 0.1388(5) 0.5366(5)
C12_27 C 0.3865(5) 0.1205(6) 0.5710(5)
H10_27 H 0.367979 0.126143 0.589056
C13_27 C 0.4139(5) 0.0942(7) 0.5795(6)
H11_27 H 0.414770 0.083249 0.603500
C14_27 C 0.4410(6) 0.0839(6) 0.5516(5)
C15_27 C 0.4406(6) 0.1035(6) 0.5175(6)
H12_27 H 0.459393 0.098743 0.499583
C16_27 C 0.4130(5) 0.1297(6) 0.5097(5)
H13_27 H 0.412561 0.141657 0.486116
C17_27 C 0.4984(5) 0.0426(5) 0.5440(5)
N6_25 N 0.5128(4) 0.0109(4) 0.5601(4)
O13_27 O 0.2949(4) 0.1698(5) 0.6295(5)
H19_27 H 0.2804(16) 0.1535(7) 0.6379(15)
H20_27 H 0.3176(6) 0.166(5) 0.634(6)
O14_15 O 0.1797(5) 0.2517(5) 0.6092(4)
O15_27 O 0.2311(5) 0.2130(5) 0.6209(4)
C26_27 C 0.1995(9) 0.2273(8) 0.6309(9)
H21_27 H 0.189541 0.220575 0.654474
H6_27 H 0.598743 0.999583 0.459393
H7_27 H 0.641657 0.986116 0.412561
O11_27 O 0.5554(4) 0.8331(4) 0.6753(4)
N5_27 N 0.5625(4) 0.9666(5) 0.5560(5)
H14_27 H 0.584029 0.962002 0.545498
C18_27 C 0.5293(6) 0.8564(5) 0.6691(5)
C19_27 C 0.5366(5) 0.8856(4) 0.6388(5)
C20_27 C 0.5710(5) 0.8865(5) 0.6205(6)
H15_27 H 0.589056 0.867979 0.626143
C21_27 C 0.5795(6) 0.9139(5) 0.5942(7)
H16_27 H 0.603500 0.914770 0.583249
C22_27 C 0.5516(5) 0.9410(6) 0.5839(6)
C23_27 C 0.5175(6) 0.9406(6) 0.6035(6)
H17_27 H 0.499583 0.959393 0.598743
C24_27 C 0.5097(5) 0.9130(5) 0.6297(6)
H18_27 H 0.486116 0.912561 0.641657
C25_27 C 0.5440(5) 0.9984(5) 0.5426(5)
O17_27 O 0.6295(5) 0.7949(4) 0.6698(5)
H22_27 H 0.6379(15) 0.7804(16) 0.6535(7)
H23_27 H 0.634(6) 0.8176(6) 0.666(5)
O19_27 O 0.6209(4) 0.7311(5) 0.7130(5)
C27_27 C 0.6309(9) 0.6995(9) 0.7273(8)
H24_27 H 0.654474 0.689541 0.720575
O31_15 O 0.5703(5) 0.7517(5) 0.6408(4)
O19_28 O 0.1291(4) 0.0189(5) 0.7130(5)
C27_28 C 0.1191(9) 0.0505(9) 0.7273(8)
H24_28 H 0.095526 0.060459 0.720575
O2_28 O 0.0747(4) 0.6946(4) 0.3331(4)
O5_28 O 0.0802(5) 0.6205(5) 0.2949(4)
H1_28 H 0.0965(7) 0.6121(15) 0.2804(16)
H2_28 H 0.084(5) 0.616(6) 0.3176(6)
O7_28 O 0.0370(5) 0.6291(4) 0.2311(5)
N1_28 N 0.1940(5) 0.6875(4) 0.4666(5)
H3_28 H 0.204502 0.665971 0.462002
N2_26 N 0.1899(4) 0.7372(4) 0.5109(4)
C1_28 C 0.0809(5) 0.7207(6) 0.3564(5)
C2_28 C 0.1112(5) 0.7134(5) 0.3856(4)
C3_28 C 0.1295(6) 0.6790(5) 0.3865(5)
H4_28 H 0.123857 0.660944 0.367979
C4_28 C 0.1558(7) 0.6705(6) 0.4139(5)
H5_28 H 0.166751 0.646500 0.414770
C5_28 C 0.1661(6) 0.6984(5) 0.4410(6)
C6_28 C 0.1465(6) 0.7325(6) 0.4406(6)
H6_28 H 0.151257 0.750417 0.459393
C7_28 C 0.1203(6) 0.7403(5) 0.4130(5)
H7_28 H 0.108343 0.763884 0.412561
C8_28 C 0.2074(5) 0.7060(5) 0.4984(5)
C9_28 C 0.0227(8) 0.6191(9) 0.1995(9)
H8_28 H 0.029425 0.595526 0.189541
O9_28 O 0.4169(4) 0.5747(4) 0.5554(4)
N3_28 N 0.2834(5) 0.6940(5) 0.5625(4)
H9_28 H 0.287998 0.704502 0.584029
N4_26 N 0.2391(4) 0.6899(4) 0.5128(4)
C10_28 C 0.3936(5) 0.5809(5) 0.5293(6)
C11_28 C 0.3644(4) 0.6112(5) 0.5366(5)
C12_28 C 0.3635(5) 0.6295(6) 0.5710(5)
H10_28 H 0.382021 0.623857 0.589056
C13_28 C 0.3361(5) 0.6558(7) 0.5795(6)
H11_28 H 0.335230 0.666751 0.603500
C14_28 C 0.3090(6) 0.6661(6) 0.5516(5)
C15_28 C 0.3094(6) 0.6465(6) 0.5175(6)
H12_28 H 0.290607 0.651257 0.499583
C16_28 C 0.3370(5) 0.6203(6) 0.5097(5)
H13_28 H 0.337439 0.608343 0.486116
C17_28 C 0.2516(5) 0.7074(5) 0.5440(5)
O11_28 O 0.1946(4) 0.9169(4) 0.6753(4)
N5_28 N 0.1875(4) 0.7834(5) 0.5560(5)
H14_28 H 0.165971 0.787998 0.545498
N6_26 N 0.2372(4) 0.7391(4) 0.5601(4)
C18_28 C 0.2207(6) 0.8936(5) 0.6691(5)
C19_28 C 0.2134(5) 0.8644(4) 0.6388(5)
C20_28 C 0.1790(5) 0.8635(5) 0.6205(6)
H15_28 H 0.160944 0.882021 0.626143
C21_28 C 0.1705(6) 0.8361(5) 0.5942(7)
H16_28 H 0.146500 0.835230 0.583249
C22_28 C 0.1984(5) 0.8090(6) 0.5839(6)
C23_28 C 0.2325(6) 0.8094(6) 0.6035(6)
H17_28 H 0.250417 0.790607 0.598743
C24_28 C 0.2403(5) 0.8370(5) 0.6297(6)
H18_28 H 0.263884 0.837439 0.641657
C25_28 C 0.2060(5) 0.7516(5) 0.5426(5)
O13_28 O 0.4551(4) 0.5802(5) 0.6295(5)
H19_28 H 0.4696(16) 0.5965(7) 0.6379(15)
H20_28 H 0.4324(6) 0.584(5) 0.634(6)
O14_16 O 0.5703(5) 0.4983(5) 0.6092(4)
O15_28 O 0.5189(5) 0.5370(5) 0.6209(4)
C26_28 C 0.5505(9) 0.5227(8) 0.6309(9)
H21_28 H 0.560459 0.529425 0.654474
O17_28 O 0.1205(5) 0.9551(4) 0.6698(5)
H22_28 H 0.1121(15) 0.9696(16) 0.6535(7)
H23_28 H 0.116(6) 0.9324(6) 0.666(5)
O31_16 O 0.1797(5) 0.9983(5) 0.6408(4)
O7_29 O 0.0370(5) 0.6209(4) 0.0189(5)
C9_29 C 0.0227(8) 0.6309(9) 0.0505(9)
H8_29 H 0.029425 0.654474 0.060459
O2_29 O 0.0747(4) 0.5554(4) 0.9169(4)
O5_29 O 0.0802(5) 0.6295(5) 0.9551(4)
H1_29 H 0.0965(7) 0.6379(15) 0.9696(16)
H2_29 H 0.084(5) 0.634(6) 0.9324(6)
N1_29 N 0.1940(5) 0.5625(4) 0.7834(5)
H3_29 H 0.204502 0.584029 0.787998
N2_27 N 0.1899(4) 0.5128(4) 0.7391(4)
C1_29 C 0.0809(5) 0.5293(6) 0.8936(5)
C2_29 C 0.1112(5) 0.5366(5) 0.8644(4)
C3_29 C 0.1295(6) 0.5710(5) 0.8635(5)
H4_29 H 0.123857 0.589056 0.882021
C4_29 C 0.1558(7) 0.5795(6) 0.8361(5)
H5_29 H 0.166751 0.603500 0.835230
C5_29 C 0.1661(6) 0.5516(5) 0.8090(6)
C6_29 C 0.1465(6) 0.5175(6) 0.8094(6)
H6_29 H 0.151257 0.499583 0.790607
C7_29 C 0.1203(6) 0.5097(5) 0.8370(5)
H7_29 H 0.108343 0.486116 0.837439
C8_29 C 0.2074(5) 0.5440(5) 0.7516(5)
O9_29 O 0.4169(4) 0.6753(4) 0.6946(4)
N3_29 N 0.2834(5) 0.5560(5) 0.6875(4)
H9_29 H 0.287998 0.545498 0.665971
N4_27 N 0.2391(4) 0.5601(4) 0.7372(4)
C10_29 C 0.3936(5) 0.6691(5) 0.7207(6)
C11_29 C 0.3644(4) 0.6388(5) 0.7134(5)
C12_29 C 0.3635(5) 0.6205(6) 0.6790(5)
H10_29 H 0.382021 0.626143 0.660944
C13_29 C 0.3361(5) 0.5942(7) 0.6705(6)
H11_29 H 0.335230 0.583249 0.646500
C14_29 C 0.3090(6) 0.5839(6) 0.6984(5)
C15_29 C 0.3094(6) 0.6035(6) 0.7325(6)
H12_29 H 0.290607 0.598743 0.750417
C16_29 C 0.3370(5) 0.6297(6) 0.7403(5)
H13_29 H 0.337439 0.641657 0.763884
C17_29 C 0.2516(5) 0.5426(5) 0.7060(5)
O11_29 O 0.1946(4) 0.3331(4) 0.5747(4)
N5_29 N 0.1875(4) 0.4666(5) 0.6940(5)
H14_29 H 0.165971 0.462002 0.704502
N6_27 N 0.2372(4) 0.5109(4) 0.6899(4)
C18_29 C 0.2207(6) 0.3564(5) 0.5809(5)
C19_29 C 0.2134(5) 0.3856(4) 0.6112(5)
C20_29 C 0.1790(5) 0.3865(5) 0.6295(6)
H15_29 H 0.160944 0.367979 0.623857
C21_29 C 0.1705(6) 0.4139(5) 0.6558(7)
H16_29 H 0.146500 0.414770 0.666751
C22_29 C 0.1984(5) 0.4410(6) 0.6661(6)
C23_29 C 0.2325(6) 0.4406(6) 0.6465(6)
H17_29 H 0.250417 0.459393 0.651257
C24_29 C 0.2403(5) 0.4130(5) 0.6203(6)
H18_29 H 0.263884 0.412561 0.608343
C25_29 C 0.2060(5) 0.4984(5) 0.7074(5)
O13_29 O 0.4551(4) 0.6698(5) 0.6205(5)
H19_29 H 0.4696(16) 0.6535(7) 0.6121(15)
H20_29 H 0.4324(6) 0.666(5) 0.616(6)
O15_29 O 0.5189(5) 0.7130(5) 0.6291(4)
C26_29 C 0.5505(9) 0.7273(8) 0.6191(9)
H21_29 H 0.560459 0.720575 0.595526
O17_29 O 0.1205(5) 0.2949(4) 0.5802(5)
H22_29 H 0.1121(15) 0.2804(16) 0.5965(7)
H23_29 H 0.116(6) 0.3176(6) 0.584(5)
O19_29 O 0.1291(4) 0.2311(5) 0.5370(5)
C27_29 C 0.1191(9) 0.1995(9) 0.5227(8)
H24_29 H 0.095526 0.189541 0.529425
O7_30 O 0.7130(5) 0.1291(4) 0.0189(5)
C9_30 C 0.7273(8) 0.1191(9) 0.0505(9)
H8_30 H 0.720575 0.095526 0.060459
O2_30 O 0.6753(4) 0.1946(4) 0.9169(4)
O5_30 O 0.6698(5) 0.1205(5) 0.9551(4)
H1_30 H 0.6535(7) 0.1121(15) 0.9696(16)
H2_30 H 0.666(5) 0.116(6) 0.9324(6)
N1_30 N 0.5560(5) 0.1875(4) 0.7834(5)
H3_30 H 0.545498 0.165971 0.787998
N2_28 N 0.5601(4) 0.2372(4) 0.7391(4)
C1_30 C 0.6691(5) 0.2207(6) 0.8936(5)
C2_30 C 0.6388(5) 0.2134(5) 0.8644(4)
C3_30 C 0.6205(6) 0.1790(5) 0.8635(5)
H4_30 H 0.626143 0.160944 0.882021
C4_30 C 0.5942(7) 0.1705(6) 0.8361(5)
H5_30 H 0.583249 0.146500 0.835230
C5_30 C 0.5839(6) 0.1984(5) 0.8090(6)
C6_30 C 0.6035(6) 0.2325(6) 0.8094(6)
H6_30 H 0.598743 0.250417 0.790607
C7_30 C 0.6297(6) 0.2403(5) 0.8370(5)
H7_30 H 0.641657 0.263884 0.837439
C8_30 C 0.5426(5) 0.2060(5) 0.7516(5)
O9_30 O 0.3331(4) 0.0747(4) 0.6946(4)
N3_30 N 0.4666(5) 0.1940(5) 0.6875(4)
H9_30 H 0.462002 0.204502 0.665971
N4_28 N 0.5109(4) 0.1899(4) 0.7372(4)
C10_30 C 0.3564(5) 0.0809(5) 0.7207(6)
C11_30 C 0.3856(4) 0.1112(5) 0.7134(5)
C12_30 C 0.3865(5) 0.1295(6) 0.6790(5)
H10_30 H 0.367979 0.123857 0.660944
C13_30 C 0.4139(5) 0.1558(7) 0.6705(6)
H11_30 H 0.414770 0.166751 0.646500
C14_30 C 0.4410(6) 0.1661(6) 0.6984(5)
C15_30 C 0.4406(6) 0.1465(6) 0.7325(6)
H12_30 H 0.459393 0.151257 0.750417
C16_30 C 0.4130(5) 0.1203(6) 0.7403(5)
H13_30 H 0.412561 0.108343 0.763884
C17_30 C 0.4984(5) 0.2074(5) 0.7060(5)
O11_30 O 0.5554(4) 0.4169(4) 0.5747(4)
N5_30 N 0.5625(4) 0.2834(5) 0.6940(5)
H14_30 H 0.584029 0.287998 0.704502
N6_28 N 0.5128(4) 0.2391(4) 0.6899(4)
C18_30 C 0.5293(6) 0.3936(5) 0.5809(5)
C19_30 C 0.5366(5) 0.3644(4) 0.6112(5)
C20_30 C 0.5710(5) 0.3635(5) 0.6295(6)
H15_30 H 0.589056 0.382021 0.623857
C21_30 C 0.5795(6) 0.3361(5) 0.6558(7)
H16_30 H 0.603500 0.335230 0.666751
C22_30 C 0.5516(5) 0.3090(6) 0.6661(6)
C23_30 C 0.5175(6) 0.3094(6) 0.6465(6)
H17_30 H 0.499583 0.290607 0.651257
C24_30 C 0.5097(5) 0.3370(5) 0.6203(6)
H18_30 H 0.486116 0.337439 0.608343
C25_30 C 0.5440(5) 0.2516(5) 0.7074(5)
O13_30 O 0.2949(4) 0.0802(5) 0.6205(5)
H19_30 H 0.2804(16) 0.0965(7) 0.6121(15)
H20_30 H 0.3176(6) 0.084(5) 0.616(6)
O15_30 O 0.2311(5) 0.0370(5) 0.6291(4)
C26_30 C 0.1995(9) 0.0227(8) 0.6191(9)
H21_30 H 0.189541 0.029425 0.595526
O17_30 O 0.6295(5) 0.4551(4) 0.5802(5)
H22_30 H 0.6379(15) 0.4696(16) 0.5965(7)
H23_30 H 0.634(6) 0.4324(6) 0.584(5)
O19_30 O 0.6209(4) 0.5189(5) 0.5370(5)
C27_30 C 0.6309(9) 0.5505(9) 0.5227(8)
H24_30 H 0.654474 0.560459 0.529425
N2_29 N 0.5601(4) 0.5128(4) 0.0109(4)
O9_31 O 0.3331(4) 0.6753(4) 0.0554(4)
N3_31 N 0.4666(5) 0.5560(5) 0.0625(4)
H9_31 H 0.462002 0.545498 0.084029
N4_29 N 0.5109(4) 0.5601(4) 0.0128(4)
C10_31 C 0.3564(5) 0.6691(5) 0.0293(6)
C11_31 C 0.3856(4) 0.6388(5) 0.0366(5)
C12_31 C 0.3865(5) 0.6205(6) 0.0710(5)
H10_31 H 0.367979 0.626143 0.089056
C13_31 C 0.4139(5) 0.5942(7) 0.0795(6)
H11_31 H 0.414770 0.583249 0.103500
C14_31 C 0.4410(6) 0.5839(6) 0.0516(5)
C15_31 C 0.4406(6) 0.6035(6) 0.0175(6)
C16_31 C 0.4130(5) 0.6297(6) 0.0097(5)
C17_31 C 0.4984(5) 0.5426(5) 0.0440(5)
O11_31 O 0.5554(4) 0.3331(4) 0.1753(4)
N5_31 N 0.5625(4) 0.4666(5) 0.0560(5)
H14_31 H 0.584029 0.462002 0.045498
N6_29 N 0.5128(4) 0.5109(4) 0.0601(4)
C18_31 C 0.5293(6) 0.3564(5) 0.1691(5)
C19_31 C 0.5366(5) 0.3856(4) 0.1388(5)
C20_31 C 0.5710(5) 0.3865(5) 0.1205(6)
H15_31 H 0.589056 0.367979 0.126143
C21_31 C 0.5795(6) 0.4139(5) 0.0942(7)
H16_31 H 0.603500 0.414770 0.083249
C22_31 C 0.5516(5) 0.4410(6) 0.0839(6)
C23_31 C 0.5175(6) 0.4406(6) 0.1035(6)
H17_31 H 0.499583 0.459393 0.098743
C24_31 C 0.5097(5) 0.4130(5) 0.1297(6)
H18_31 H 0.486116 0.412561 0.141657
C25_31 C 0.5440(5) 0.4984(5) 0.0426(5)
O13_31 O 0.2949(4) 0.6698(5) 0.1295(5)
H19_31 H 0.2804(16) 0.6535(7) 0.1379(15)
H20_31 H 0.3176(6) 0.666(5) 0.134(6)
O15_31 O 0.2311(5) 0.7130(5) 0.1209(4)
C26_31 C 0.1995(9) 0.7273(8) 0.1309(9)
H21_31 H 0.189541 0.720575 0.154474
O17_31 O 0.6295(5) 0.2949(4) 0.1698(5)
H22_31 H 0.6379(15) 0.2804(16) 0.1535(7)
H23_31 H 0.634(6) 0.3176(6) 0.166(5)
O19_31 O 0.6209(4) 0.2311(5) 0.2130(5)
C27_31 C 0.6309(9) 0.1995(9) 0.2273(8)
H24_31 H 0.654474 0.189541 0.220575
O2_31 O 0.6753(4) 0.5554(4) 0.8331(4)
O5_31 O 0.6698(5) 0.6295(5) 0.7949(4)
H1_31 H 0.6535(7) 0.6379(15) 0.7804(16)
H2_31 H 0.666(5) 0.634(6) 0.8176(6)
O7_31 O 0.7130(5) 0.6209(4) 0.7311(5)
N1_31 N 0.5560(5) 0.5625(4) 0.9666(5)
H3_31 H 0.545498 0.584029 0.962002
C1_31 C 0.6691(5) 0.5293(6) 0.8564(5)
C2_31 C 0.6388(5) 0.5366(5) 0.8856(4)
C3_31 C 0.6205(6) 0.5710(5) 0.8865(5)
H4_31 H 0.626143 0.589056 0.867979
C4_31 C 0.5942(7) 0.5795(6) 0.9139(5)
H5_31 H 0.583249 0.603500 0.914770
C5_31 C 0.5839(6) 0.5516(5) 0.9410(6)
C6_31 C 0.6035(6) 0.5175(6) 0.9406(6)
H6_31 H 0.598743 0.499583 0.959393
C7_31 C 0.6297(6) 0.5097(5) 0.9130(5)
H7_31 H 0.641657 0.486116 0.912561
C8_31 C 0.5426(5) 0.5440(5) 0.9984(5)
C9_31 C 0.7273(8) 0.6309(9) 0.6995(9)
H8_31 H 0.720575 0.654474 0.689541
H12_31 H 0.459393 0.598743 0.999583
H13_31 H 0.412561 0.641657 0.986116
N2_30 N 0.1899(4) 0.2372(4) 0.0109(4)
O9_32 O 0.4169(4) 0.0747(4) 0.0554(4)
N3_32 N 0.2834(5) 0.1940(5) 0.0625(4)
H9_32 H 0.287998 0.204502 0.084029
N4_30 N 0.2391(4) 0.1899(4) 0.0128(4)
C10_32 C 0.3936(5) 0.0809(5) 0.0293(6)
C11_32 C 0.3644(4) 0.1112(5) 0.0366(5)
C12_32 C 0.3635(5) 0.1295(6) 0.0710(5)
H10_32 H 0.382021 0.123857 0.089056
C13_32 C 0.3361(5) 0.1558(7) 0.0795(6)
H11_32 H 0.335230 0.166751 0.103500
C14_32 C 0.3090(6) 0.1661(6) 0.0516(5)
C15_32 C 0.3094(6) 0.1465(6) 0.0175(6)
C16_32 C 0.3370(5) 0.1203(6) 0.0097(5)
C17_32 C 0.2516(5) 0.2074(5) 0.0440(5)
O11_32 O 0.1946(4) 0.4169(4) 0.1753(4)
N5_32 N 0.1875(4) 0.2834(5) 0.0560(5)
H14_32 H 0.165971 0.287998 0.045498
N6_30 N 0.2372(4) 0.2391(4) 0.0601(4)
C18_32 C 0.2207(6) 0.3936(5) 0.1691(5)
C19_32 C 0.2134(5) 0.3644(4) 0.1388(5)
C20_32 C 0.1790(5) 0.3635(5) 0.1205(6)
H15_32 H 0.160944 0.382021 0.126143
C21_32 C 0.1705(6) 0.3361(5) 0.0942(7)
H16_32 H 0.146500 0.335230 0.083249
C22_32 C 0.1984(5) 0.3090(6) 0.0839(6)
C23_32 C 0.2325(6) 0.3094(6) 0.1035(6)
H17_32 H 0.250417 0.290607 0.098743
C24_32 C 0.2403(5) 0.3370(5) 0.1297(6)
H18_32 H 0.263884 0.337439 0.141657
C25_32 C 0.2060(5) 0.2516(5) 0.0426(5)
O13_32 O 0.4551(4) 0.0802(5) 0.1295(5)
H19_32 H 0.4696(16) 0.0965(7) 0.1379(15)
H20_32 H 0.4324(6) 0.084(5) 0.134(6)
O15_32 O 0.5189(5) 0.0370(5) 0.1209(4)
C26_32 C 0.5505(9) 0.0227(8) 0.1309(9)
H21_32 H 0.560459 0.029425 0.154474
O17_32 O 0.1205(5) 0.4551(4) 0.1698(5)
H22_32 H 0.1121(15) 0.4696(16) 0.1535(7)
H23_32 H 0.116(6) 0.4324(6) 0.166(5)
O19_32 O 0.1291(4) 0.5189(5) 0.2130(5)
C27_32 C 0.1191(9) 0.5505(9) 0.2273(8)
H24_32 H 0.095526 0.560459 0.220575
O2_32 O 0.0747(4) 0.1946(4) 0.8331(4)
O5_32 O 0.0802(5) 0.1205(5) 0.7949(4)
H1_32 H 0.0965(7) 0.1121(15) 0.7804(16)
H2_32 H 0.084(5) 0.116(6) 0.8176(6)
O7_32 O 0.0370(5) 0.1291(4) 0.7311(5)
N1_32 N 0.1940(5) 0.1875(4) 0.9666(5)
H3_32 H 0.204502 0.165971 0.962002
C1_32 C 0.0809(5) 0.2207(6) 0.8564(5)
C2_32 C 0.1112(5) 0.2134(5) 0.8856(4)
C3_32 C 0.1295(6) 0.1790(5) 0.8865(5)
H4_32 H 0.123857 0.160944 0.867979
C4_32 C 0.1558(7) 0.1705(6) 0.9139(5)
H5_32 H 0.166751 0.146500 0.914770
C5_32 C 0.1661(6) 0.1984(5) 0.9410(6)
C6_32 C 0.1465(6) 0.2325(6) 0.9406(6)
H6_32 H 0.151257 0.250417 0.959393
C7_32 C 0.1203(6) 0.2403(5) 0.9130(5)
H7_32 H 0.108343 0.263884 0.912561
C8_32 C 0.2074(5) 0.2060(5) 0.9984(5)
C9_32 C 0.0227(8) 0.1191(9) 0.6995(9)
H8_32 H 0.029425 0.095526 0.689541
H12_32 H 0.290607 0.151257 0.999583
H13_32 H 0.337439 0.108343 0.986116
N2_31 N 0.9399(4) 0.9872(4) 0.9891(4)
N4_31 N 0.9891(4) 0.9399(4) 0.9872(4)
N6_31 N 0.9872(4) 0.9891(4) 0.9399(4)
N2_32 N 0.0601(4) 0.0128(4) 0.0109(4)
N4_32 N 0.0109(4) 0.0601(4) 0.0128(4)
N6_32 N 0.0128(4) 0.0109(4) 0.0601(4)
loop_
_geom_bond_atom_site_label_1
_geom_bond_atom_site_label_2
_geom_bond_site_symmetry_1
_geom_bond_site_symmetry_2
O10 C18 1_555 1_555
O11 C18 1_555 1_555
N5 H14 1_555 1_555
C18 C19 1_555 1_555
C19 C20 1_555 1_555
C20 H15 1_555 1_555
C21 C20 1_555 1_555
H16 C21 1_555 1_555
C22 N5 1_555 1_555
C23 C22 1_555 1_555
H17 C23 1_555 1_555
C24 C19 1_555 1_555
H18 C24 1_555 1_555
Th3 O11 1_555 1_555
O16 Th3 1_555 1_555
O17 Th3 1_555 1_555
H22 O17 1_555 1_555
H23 O17 1_555 1_555
O18 C27 1_555 1_555
O19 Th3 1_555 1_555
C27 O19 1_555 1_555
H24 C27 1_555 1_555
Th4 O16 1_555 1_555
Th6 O18 1_555 1_555
Th11 O10 1_555 1_555
Th12 O1 1_555 1_555
O21 Th3 1_555 1_555
O24 Th3 1_555 1_555
O27 Th3 1_555 1_555
O30 Th3 1_555 1_555
O31 Th3 1_555 1_555
N5 C25 1_555 1_555
C21 C22 1_555 1_555
C23 C24 1_555 1_555
O16 Th11 1_555 1_555
Th4 O30 1_555 1_555
Th6 O24 1_555 1_555
Th6 O30 1_555 1_555
Th11 O27 1_555 1_555
Th1 O2 1_555 1_555
O2 C1 1_555 1_555
O3 Th1 1_555 1_555
O5 Th1 1_555 1_555
H1 O5 1_555 1_555
H2 O5 1_555 1_555
N1 H3 1_555 1_555
N2 C8 1_555 1_555
C1 C2 1_555 1_555
C2 C3 1_555 1_555
C3 H4 1_555 1_555
C4 C3 1_555 1_555
H5 C4 1_555 1_555
C5 N1 1_555 1_555
C6 C5 1_555 1_555
C7 C2 1_555 1_555
C8 N1 1_555 1_555
O8 C10 1_555 1_555
O9 C10 1_555 1_555
N3 H9 1_555 1_555
N4 C8 1_555 1_555
C10 C11 1_555 1_555
C11 C12 1_555 1_555
C12 H10 1_555 1_555
C13 C12 1_555 1_555
H11 C13 1_555 1_555
C14 N3 1_555 1_555
C15 C14 1_555 1_555
H12 C15 1_555 1_555
C16 C11 1_555 1_555
H13 C16 1_555 1_555
C17 N3 1_555 1_555
N6 C17 1_555 1_555
Th2 O9 1_555 1_555
O12 Th2 1_555 1_555
O13 Th2 1_555 1_555
H19 O13 1_555 1_555
H20 O13 1_555 1_555
Th10 O8 1_555 1_555
O20 Th2 1_555 1_555
O22 Th1 1_555 1_555
O26 Th2 1_555 1_555
O28 Th1 1_555 1_555
O32 Th1 1_555 1_555
O33 Th2 1_555 1_555
C4 C5 1_555 1_555
C6 C7 1_555 1_555
N4 C17 1_555 1_555
C13 C14 1_555 1_555
C15 C16 1_555 1_555
O12 Th10 1_555 1_555
Th10 O26 1_555 1_555
O6 C9 1_555 1_555
C9 O7 1_555 1_555
H8 C9 1_555 1_555
Th9 O4 1_555 1_555
O6 Th9 1_555 1_555
Th9 O25 1_555 1_555
O14 C26 1_555 1_555
C26 O15 1_555 1_555
H21 C26 1_555 1_555
Th5 O14 1_555 1_555
Th5 O23 1_555 1_555
Th5 O29 1_555 1_555
Th8 O29 1_555 1_555
O8_2 C10_2 1_555 1_555
O9_2 C10_2 1_555 1_555
N3_2 H9_2 1_555 1_555
C10_2 C11_2 1_555 1_555
C11_2 C12_2 1_555 1_555
C12_2 H10_2 1_555 1_555
C13_2 C12_2 1_555 1_555
H11_2 C13_2 1_555 1_555
C14_2 N3_2 1_555 1_555
C15_2 C14_2 1_555 1_555
H12_2 C15_2 1_555 1_555
C16_2 C11_2 1_555 1_555
H13_2 C16_2 1_555 1_555
C17_2 N3_2 1_555 1_555
Th2_2 O9_2 1_555 1_555
O12_2 Th2_2 1_555 1_555
O13_2 Th2_2 1_555 1_555
H19_2 O13_2 1_555 1_555
H20_2 O13_2 1_555 1_555
O14_2 C26_2 1_555 1_555
O15_2 Th2_2 1_555 1_555
C26_2 O15_2 1_555 1_555
H21_2 C26_2 1_555 1_555
Th5_2 O14_2 1_555 1_555
Th8_2 O12_2 1_555 1_555
Th10_2 O8_2 1_555 1_555
Th11_2 O10_2 1_555 1_555
O20_2 Th2_2 1_555 1_555
O23_2 Th2_2 1_555 1_555
O26_2 Th2_2 1_555 1_555
O29_2 Th2_2 1_555 1_555
O33_2 Th2_2 1_555 1_555
C13_2 C14_2 1_555 1_555
C15_2 C16_2 1_555 1_555
O12_2 Th10_2 1_555 1_555
Th5_2 O23_2 1_555 1_555
Th5_2 O29_2 1_555 1_555
Th8_2 O29_2 1_555 1_555
Th10_2 O26_2 1_555 1_555
Th1_2 O2_2 1_555 1_555
O1_2 C1_2 1_555 1_555
O2_2 C1_2 1_555 1_555
O3_2 Th1_2 1_555 1_555
O5_2 Th1_2 1_555 1_555
H1_2 O5_2 1_555 1_555
H2_2 O5_2 1_555 1_555
N1_2 H3_2 1_555 1_555
N2_2 C8_2 1_555 1_555
C1_2 C2_2 1_555 1_555
C2_2 C3_2 1_555 1_555
C3_2 H4_2 1_555 1_555
C4_2 C3_2 1_555 1_555
H5_2 C4_2 1_555 1_555
C5_2 N1_2 1_555 1_555
C6_2 C5_2 1_555 1_555
H6_2 C6_2 1_555 1_555
C7_2 C2_2 1_555 1_555
H7_2 C7_2 1_555 1_555
C8_2 N1_2 1_555 1_555
N4_2 C8_2 1_555 1_555
O11_2 C18_2 1_555 1_555
N5_2 H14_2 1_555 1_555
C18_2 C19_2 1_555 1_555
C19_2 C20_2 1_555 1_555
C20_2 H15_2 1_555 1_555
C21_2 C20_2 1_555 1_555
H16_2 C21_2 1_555 1_555
C22_2 N5_2 1_555 1_555
C23_2 C22_2 1_555 1_555
C24_2 C19_2 1_555 1_555
C25_2 N2_2 1_555 1_555
Th3_2 O11_2 1_555 1_555
O16_2 Th3_2 1_555 1_555
O17_2 Th3_2 1_555 1_555
H22_2 O17_2 1_555 1_555
H23_2 O17_2 1_555 1_555
Th12_2 O1_2 1_555 1_555
O21_2 Th3_2 1_555 1_555
O22_2 Th1_2 1_555 1_555
O27_2 Th3_2 1_555 1_555
O28_2 Th1_2 1_555 1_555
O31_2 Th3_2 1_555 1_555
O32_2 Th1_2 1_555 1_555
O3_2 Th12_2 1_555 1_555
C4_2 C5_2 1_555 1_555
C6_2 C7_2 1_555 1_555
N5_2 C25_2 1_555 1_555
N6_2 C25_2 1_555 1_555
C21_2 C22_2 1_555 1_555
C23_2 C24_2 1_555 1_555
Th12_2 O28_2 1_555 1_555
O6_2 C9_2 1_555 1_555
C9_2 O7_2 1_555 1_555
H8_2 C9_2 1_555 1_555
Th9_2 O4_2 1_555 1_555
O4_2 Th7_2 1_555 1_555
O6_2 Th9_2 1_555 1_555
Th9_2 O25_2 1_555 1_555
O18_2 C27_2 1_555 1_555
C27_2 O19_2 1_555 1_555
H24_2 C27_2 1_555 1_555
Th6_2 O18_2 1_555 1_555
Th6_2 O24_2 1_555 1_555
Th6_2 O30_2 1_555 1_555
Th11_3 O10_3 1_555 1_555
Th10_3 O8_3 1_555 1_555
O9_3 C10_3 1_555 1_555
N3_3 H9_3 1_555 1_555
C10_3 C11_3 1_555 1_555
C11_3 C12_3 1_555 1_555
C12_3 H10_3 1_555 1_555
C13_3 C12_3 1_555 1_555
H11_3 C13_3 1_555 1_555
C14_3 N3_3 1_555 1_555
C15_3 C14_3 1_555 1_555
C16_3 C11_3 1_555 1_555
C17_3 N3_3 1_555 1_555
Th2_3 O9_3 1_555 1_555
O12_3 Th2_3 1_555 1_555
O13_3 Th2_3 1_555 1_555
H19_3 O13_3 1_555 1_555
H20_3 O13_3 1_555 1_555
O14_3 C26_3 1_555 1_555
O15_3 Th2_3 1_555 1_555
C26_3 O15_3 1_555 1_555
H21_3 C26_3 1_555 1_555
Th5_3 O14_3 1_555 1_555
O20_3 Th2_3 1_555 1_555
O23_3 Th2_3 1_555 1_555
O26_3 Th2_3 1_555 1_555
O29_3 Th2_3 1_555 1_555
O33_3 Th2_3 1_555 1_555
C13_3 C14_3 1_555 1_555
C15_3 C16_3 1_555 1_555
Th5_3 O23_3 1_555 1_555
Th5_3 O29_3 1_555 1_555
Th12_3 O1_3 1_555 1_555
O11_3 C18_3 1_555 1_555
N5_3 H14_3 1_555 1_555
C18_3 C19_3 1_555 1_555
C19_3 C20_3 1_555 1_555
C20_3 H15_3 1_555 1_555
C21_3 C20_3 1_555 1_555
H16_3 C21_3 1_555 1_555
C22_3 N5_3 1_555 1_555
C23_3 C22_3 1_555 1_555
C24_3 C19_3 1_555 1_555
Th3_3 O11_3 1_555 1_555
O16_3 Th3_3 1_555 1_555
O17_3 Th3_3 1_555 1_555
H22_3 O17_3 1_555 1_555
H23_3 O17_3 1_555 1_555
O18_3 C27_3 1_555 1_555
O19_3 Th3_3 1_555 1_555
C27_3 O19_3 1_555 1_555
H24_3 C27_3 1_555 1_555
Th6_3 O18_3 1_555 1_555
O21_3 Th3_3 1_555 1_555
O24_3 Th3_3 1_555 1_555
O27_3 Th3_3 1_555 1_555
O30_3 Th3_3 1_555 1_555
O31_3 Th3_3 1_555 1_555
N5_3 C25_3 1_555 1_555
C21_3 C22_3 1_555 1_555
C23_3 C24_3 1_555 1_555
Th6_3 O24_3 1_555 1_555
Th6_3 O30_3 1_555 1_555
Th1_3 O2_3 1_555 1_555
O2_3 C1_3 1_555 1_555
O3_3 Th1_3 1_555 1_555
O4_3 Th1_3 1_555 1_555
O5_3 Th1_3 1_555 1_555
H1_3 O5_3 1_555 1_555
H2_3 O5_3 1_555 1_555
O6_3 C9_3 1_555 1_555
O7_3 Th1_3 1_555 1_555
N1_3 H3_3 1_555 1_555
C1_3 C2_3 1_555 1_555
C2_3 C3_3 1_555 1_555
C3_3 H4_3 1_555 1_555
C4_3 C3_3 1_555 1_555
H5_3 C4_3 1_555 1_555
C5_3 N1_3 1_555 1_555
C6_3 C5_3 1_555 1_555
C7_3 C2_3 1_555 1_555
C8_3 N1_3 1_555 1_555
C9_3 O7_3 1_555 1_555
H8_3 C9_3 1_555 1_555
Th9_3 O4_3 1_555 1_555
O22_3 Th1_3 1_555 1_555
O25_3 Th1_3 1_555 1_555
O28_3 Th1_3 1_555 1_555
O32_3 Th1_3 1_555 1_555
O6_3 Th9_3 1_555 1_555
C4_3 C5_3 1_555 1_555
C6_3 C7_3 1_555 1_555
Th9_3 O25_3 1_555 1_555
Th1_4 O2_4 1_555 1_555
O1_4 C1_4 1_555 1_555
O2_4 C1_4 1_555 1_555
O3_4 Th1_4 1_555 1_555
O4_4 Th1_4 1_555 1_555
O5_4 Th1_4 1_555 1_555
H1_4 O5_4 1_555 1_555
H2_4 O5_4 1_555 1_555
O6_4 C9_4 1_555 1_555
O7_4 Th1_4 1_555 1_555
N1_4 H3_4 1_555 1_555
C1_4 C2_4 1_555 1_555
C2_4 C3_4 1_555 1_555
C3_4 H4_4 1_555 1_555
C4_4 C3_4 1_555 1_555
H5_4 C4_4 1_555 1_555
C5_4 N1_4 1_555 1_555
C6_4 C5_4 1_555 1_555
H6_4 C6_4 1_555 1_555
C7_4 C2_4 1_555 1_555
H7_4 C7_4 1_555 1_555
C8_4 N1_4 1_555 1_555
C9_4 O7_4 1_555 1_555
H8_4 C9_4 1_555 1_555
Th7_4 O3_4 1_555 1_555
Th9_4 O4_4 1_555 1_555
Th10_4 O8_4 1_555 1_555
Th12_4 O1_4 1_555 1_555
O22_4 Th1_4 1_555 1_555
O25_4 Th1_4 1_555 1_555
O28_4 Th1_4 1_555 1_555
O32_4 Th1_4 1_555 1_555
O3_4 Th12_4 1_555 1_555
O4_4 Th7_4 1_555 1_555
O6_4 Th9_4 1_555 1_555
C4_4 C5_4 1_555 1_555
C6_4 C7_4 1_555 1_555
Th9_4 O25_4 1_555 1_555
Th12_4 O28_4 1_555 1_555
O9_4 C10_4 1_555 1_555
N3_4 H9_4 1_555 1_555
C10_4 C11_4 1_555 1_555
C11_4 C12_4 1_555 1_555
C12_4 H10_4 1_555 1_555
C13_4 C12_4 1_555 1_555
H11_4 C13_4 1_555 1_555
C14_4 N3_4 1_555 1_555
C15_4 C14_4 1_555 1_555
C16_4 C11_4 1_555 1_555
C17_4 N3_4 1_555 1_555
O10_4 C18_4 1_555 1_555
O11_4 C18_4 1_555 1_555
N5_4 H14_4 1_555 1_555
N6_3 C17_4 1_555 1_555
C18_4 C19_4 1_555 1_555
C19_4 C20_4 1_555 1_555
C20_4 H15_4 1_555 1_555
C21_4 C20_4 1_555 1_555
H16_4 C21_4 1_555 1_555
C22_4 N5_4 1_555 1_555
C23_4 C22_4 1_555 1_555
H17_4 C23_4 1_555 1_555
C24_4 C19_4 1_555 1_555
H18_4 C24_4 1_555 1_555
C25_4 N2_3 1_555 1_555
Th2_4 O9_4 1_555 1_555
O12_4 Th2_4 1_555 1_555
O13_4 Th2_4 1_555 1_555
H19_4 O13_4 1_555 1_555
H20_4 O13_4 1_555 1_555
Th3_4 O11_4 1_555 1_555
O16_4 Th3_4 1_555 1_555
O17_4 Th3_4 1_555 1_555
H22_4 O17_4 1_555 1_555
H23_4 O17_4 1_555 1_555
Th11_4 O10_4 1_555 1_555
O20_4 Th2_4 1_555 1_555
O21_4 Th3_4 1_555 1_555
O26_4 Th2_4 1_555 1_555
O27_4 Th3_4 1_555 1_555
O31_4 Th3_4 1_555 1_555
O33_4 Th2_4 1_555 1_555
N4_3 C17_4 1_555 1_555
C13_4 C14_4 1_555 1_555
C15_4 C16_4 1_555 1_555
N5_4 C25_4 1_555 1_555
N6_3 C25_4 1_555 1_555
C21_4 C22_4 1_555 1_555
C23_4 C24_4 1_555 1_555
O16_4 Th11_4 1_555 1_555
Th11_4 O27_4 1_555 1_555
O18_4 C27_4 1_555 1_555
C27_4 O19_4 1_555 1_555
H24_4 C27_4 1_555 1_555
Th6_4 O18_4 1_555 1_555
Th4_4 O30_4 1_555 1_555
Th6_4 O24_4 1_555 1_555
Th6_4 O30_4 1_555 1_555
O14_4 C26_4 1_555 1_555
C26_4 O15_4 1_555 1_555
H21_4 C26_4 1_555 1_555
Th5_4 O14_4 1_555 1_555
Th5_4 O23_4 1_555 1_555
Th5_4 O29_4 1_555 1_555
Th8_3 O18_5 1_555 1_555
Th8_3 O24_5 1_555 1_555
Th1_5 O2_5 1_555 1_555
O1_5 C1_5 1_555 1_555
O2_5 C1_5 1_555 1_555
O3_5 Th1_5 1_555 1_555
O4_5 Th1_5 1_555 1_555
O5_5 Th1_5 1_555 1_555
H1_5 O5_5 1_555 1_555
H2_5 O5_5 1_555 1_555
O6_5 C9_5 1_555 1_555
O7_5 Th1_5 1_555 1_555
N1_5 H3_5 1_555 1_555
N2_4 C8_5 1_555 1_555
C1_5 C2_5 1_555 1_555
C2_5 C3_5 1_555 1_555
C3_5 H4_5 1_555 1_555
C4_5 C3_5 1_555 1_555
H5_5 C4_5 1_555 1_555
C5_5 N1_5 1_555 1_555
C6_5 C5_5 1_555 1_555
H6_5 C6_5 1_555 1_555
C7_5 C2_5 1_555 1_555
H7_5 C7_5 1_555 1_555
C8_5 N1_5 1_555 1_555
C9_5 O7_5 1_555 1_555
H8_5 C9_5 1_555 1_555
O8_5 C10_5 1_555 1_555
O9_5 C10_5 1_555 1_555
N3_5 H9_5 1_555 1_555
N4_4 C8_5 1_555 1_555
C10_5 C11_5 1_555 1_555
C11_5 C12_5 1_555 1_555
C12_5 H10_5 1_555 1_555
C13_5 C12_5 1_555 1_555
H11_5 C13_5 1_555 1_555
C14_5 N3_5 1_555 1_555
C15_5 C14_5 1_555 1_555
H12_5 C15_5 1_555 1_555
C16_5 C11_5 1_555 1_555
H13_5 C16_5 1_555 1_555
C17_5 N3_5 1_555 1_555
O10_5 C18_5 1_555 1_555
O11_5 C18_5 1_555 1_555
N5_5 H14_5 1_555 1_555
N6_4 C17_5 1_555 1_555
C18_5 C19_5 1_555 1_555
C19_5 C20_5 1_555 1_555
C20_5 H15_5 1_555 1_555
C21_5 C20_5 1_555 1_555
H16_5 C21_5 1_555 1_555
C22_5 N5_5 1_555 1_555
C23_5 C22_5 1_555 1_555
H17_5 C23_5 1_555 1_555
C24_5 C19_5 1_555 1_555
H18_5 C24_5 1_555 1_555
C25_5 N2_4 1_555 1_555
Th4_3 O9_5 1_555 1_555
O12_5 Th4_3 1_555 1_555
O13_5 Th4_3 1_555 1_555
H19_5 O13_5 1_555 1_555
H20_5 O13_5 1_555 1_555
Th5_3 O11_5 1_555 1_555
O17_5 Th5_3 1_555 1_555
H22_5 O17_5 1_555 1_555
H23_5 O17_5 1_555 1_555
O19_5 Th5_3 1_555 1_555
C27_5 O19_5 1_555 1_555
H24_5 C27_5 1_555 1_555
Th7_5 O3_5 1_555 1_555
Th9_5 O4_5 1_555 1_555
Th10_5 O8_5 1_555 1_555
Th11_5 O10_5 1_555 1_555
Th12_5 O1_5 1_555 1_555
O20_5 Th4_3 1_555 1_555
O21_5 Th5_3 1_555 1_555
O22_5 Th1_5 1_555 1_555
O25_5 Th1_5 1_555 1_555
O26_5 Th4_3 1_555 1_555
O28_5 Th1_5 1_555 1_555
O32_5 Th1_5 1_555 1_555
O33_5 Th4_3 1_555 1_555
O3_5 Th12_5 1_555 1_555
O4_5 Th7_5 1_555 1_555
O6_5 Th9_5 1_555 1_555
C4_5 C5_5 1_555 1_555
C6_5 C7_5 1_555 1_555
N4_4 C17_5 1_555 1_555
C13_5 C14_5 1_555 1_555
C15_5 C16_5 1_555 1_555
N5_5 C25_5 1_555 1_555
N6_4 C25_5 1_555 1_555
C21_5 C22_5 1_555 1_555
C23_5 C24_5 1_555 1_555
O12_5 Th10_5 1_555 1_555
O23_3 Th11_5 1_555 1_555
Th9_5 O25_5 1_555 1_555
Th10_5 O26_5 1_555 1_555
Th12_5 O28_5 1_555 1_555
O31_3 C26_5 1_555 1_555
C26_5 O15_5 1_555 1_555
H21_5 C26_5 1_555 1_555
O8_6 C10_6 1_555 1_555
O9_6 C10_6 1_555 1_555
N3_6 H9_6 1_555 1_555
C10_6 C11_6 1_555 1_555
C11_6 C12_6 1_555 1_555
C12_6 H10_6 1_555 1_555
C13_6 C12_6 1_555 1_555
H11_6 C13_6 1_555 1_555
C14_6 N3_6 1_555 1_555
C15_6 C14_6 1_555 1_555
H12_6 C15_6 1_555 1_555
C16_6 C11_6 1_555 1_555
H13_6 C16_6 1_555 1_555
C17_6 N3_6 1_555 1_555
Th4_4 O9_6 1_555 1_555
O12_6 Th4_4 1_555 1_555
O13_6 Th4_4 1_555 1_555
H19_6 O13_6 1_555 1_555
H20_6 O13_6 1_555 1_555
O15_6 Th4_4 1_555 1_555
C26_6 O15_6 1_555 1_555
H21_6 C26_6 1_555 1_555
Th6_4 O12_6 1_555 1_555
Th10_6 O8_6 1_555 1_555
Th11_6 O10_6 1_555 1_555
O20_6 Th4_4 1_555 1_555
O33_6 Th4_4 1_555 1_555
C13_6 C14_6 1_555 1_555
C15_6 C16_6 1_555 1_555
O12_6 Th10_6 1_555 1_555
Th8_4 O18_6 1_555 1_555
Th8_4 O24_6 1_555 1_555
Th1_6 O2_6 1_555 1_555
O1_6 C1_6 1_555 1_555
O2_6 C1_6 1_555 1_555
O3_6 Th1_6 1_555 1_555
O4_6 Th1_6 1_555 1_555
O5_6 Th1_6 1_555 1_555
H1_6 O5_6 1_555 1_555
H2_6 O5_6 1_555 1_555
O6_6 C9_6 1_555 1_555
O7_6 Th1_6 1_555 1_555
N1_6 H3_6 1_555 1_555
N2_5 C8_6 1_555 1_555
C1_6 C2_6 1_555 1_555
C2_6 C3_6 1_555 1_555
C3_6 H4_6 1_555 1_555
C4_6 C3_6 1_555 1_555
H5_6 C4_6 1_555 1_555
C5_6 N1_6 1_555 1_555
C6_6 C5_6 1_555 1_555
H6_6 C6_6 1_555 1_555
C7_6 C2_6 1_555 1_555
H7_6 C7_6 1_555 1_555
C8_6 N1_6 1_555 1_555
C9_6 O7_6 1_555 1_555
H8_6 C9_6 1_555 1_555
N4_5 C8_6 1_555 1_555
O11_6 C18_6 1_555 1_555
N5_6 H14_6 1_555 1_555
C18_6 C19_6 1_555 1_555
C19_6 C20_6 1_555 1_555
C20_6 H15_6 1_555 1_555
C21_6 C20_6 1_555 1_555
H16_6 C21_6 1_555 1_555
C22_6 N5_6 1_555 1_555
C23_6 C22_6 1_555 1_555
C24_6 C19_6 1_555 1_555
C25_6 N2_5 1_555 1_555
Th5_4 O11_6 1_555 1_555
O17_6 Th5_4 1_555 1_555
H22_6 O17_6 1_555 1_555
H23_6 O17_6 1_555 1_555
O19_6 Th5_4 1_555 1_555
C27_6 O19_6 1_555 1_555
H24_6 C27_6 1_555 1_555
Th7_6 O3_6 1_555 1_555
Th9_6 O4_6 1_555 1_555
Th12_6 O1_6 1_555 1_555
O21_6 Th5_4 1_555 1_555
O22_6 Th1_6 1_555 1_555
O25_6 Th1_6 1_555 1_555
O28_6 Th1_6 1_555 1_555
O32_6 Th1_6 1_555 1_555
O3_6 Th12_6 1_555 1_555
O4_6 Th7_6 1_555 1_555
O6_6 Th9_6 1_555 1_555
C4_6 C5_6 1_555 1_555
C6_6 C7_6 1_555 1_555
N5_6 C25_6 1_555 1_555
N6_5 C25_6 1_555 1_555
C21_6 C22_6 1_555 1_555
C23_6 C24_6 1_555 1_555
Th9_6 O25_6 1_555 1_555
Th12_6 O28_6 1_555 1_555
O8_7 C10_7 1_555 1_555
O9_7 C10_7 1_555 1_555
N3_7 H9_7 1_555 1_555
C10_7 C11_7 1_555 1_555
C11_7 C12_7 1_555 1_555
C12_7 H10_7 1_555 1_555
C13_7 C12_7 1_555 1_555
H11_7 C13_7 1_555 1_555
C14_7 N3_7 1_555 1_555
C15_7 C14_7 1_555 1_555
H12_7 C15_7 1_555 1_555
C16_7 C11_7 1_555 1_555
H13_7 C16_7 1_555 1_555
C17_7 N3_7 1_555 1_555
Th4 O9_7 1_555 1_555
O12_7 Th4 1_555 1_555
O13_7 Th4 1_555 1_555
H19_7 O13_7 1_555 1_555
H20_7 O13_7 1_555 1_555
O31 C26_7 1_555 1_555
O15_7 Th4 1_555 1_555
C26_7 O15_7 1_555 1_555
H21_7 C26_7 1_555 1_555
Th6 O12_7 1_555 1_555
Th10_7 O8_7 1_555 1_555
Th11_7 O10_7 1_555 1_555
O20_7 Th4 1_555 1_555
O26_7 Th4 1_555 1_555
O33_7 Th4 1_555 1_555
C13_7 C14_7 1_555 1_555
C15_7 C16_7 1_555 1_555
O12_7 Th10_7 1_555 1_555
Th10_7 O26_7 1_555 1_555
Th1_7 O2_7 1_555 1_555
O1_7 C1_7 1_555 1_555
O2_7 C1_7 1_555 1_555
O3_7 Th1_7 1_555 1_555
O4_7 Th1_7 1_555 1_555
O5_7 Th1_7 1_555 1_555
H1_7 O5_7 1_555 1_555
H2_7 O5_7 1_555 1_555
O6_7 C9_7 1_555 1_555
O7_7 Th1_7 1_555 1_555
N1_7 H3_7 1_555 1_555
N2_6 C8_7 1_555 1_555
C1_7 C2_7 1_555 1_555
C2_7 C3_7 1_555 1_555
C3_7 H4_7 1_555 1_555
C4_7 C3_7 1_555 1_555
H5_7 C4_7 1_555 1_555
C5_7 N1_7 1_555 1_555
C6_7 C5_7 1_555 1_555
H6_7 C6_7 1_555 1_555
C7_7 C2_7 1_555 1_555
H7_7 C7_7 1_555 1_555
C8_7 N1_7 1_555 1_555
C9_7 O7_7 1_555 1_555
H8_7 C9_7 1_555 1_555
N4_6 C8_7 1_555 1_555
O11_7 C18_7 1_555 1_555
N5_7 H14_7 1_555 1_555
C18_7 C19_7 1_555 1_555
C19_7 C20_7 1_555 1_555
C20_7 H15_7 1_555 1_555
C21_7 C20_7 1_555 1_555
H16_7 C21_7 1_555 1_555
C22_7 N5_7 1_555 1_555
C23_7 C22_7 1_555 1_555
C24_7 C19_7 1_555 1_555
C25_7 N2_6 1_555 1_555
Th5 O11_7 1_555 1_555
O17_7 Th5 1_555 1_555
H22_7 O17_7 1_555 1_555
H23_7 O17_7 1_555 1_555
O18_7 C27_7 1_555 1_555
O19_7 Th5 1_555 1_555
C27_7 O19_7 1_555 1_555
H24_7 C27_7 1_555 1_555
Th8 O18_7 1_555 1_555
Th7_7 O3_7 1_555 1_555
Th9_7 O4_7 1_555 1_555
Th12_7 O1_7 1_555 1_555
O21_7 Th5 1_555 1_555
O22_7 Th1_7 1_555 1_555
O24_7 Th5 1_555 1_555
O25_7 Th1_7 1_555 1_555
O27_7 Th5 1_555 1_555
O28_7 Th1_7 1_555 1_555
O32_7 Th1_7 1_555 1_555
O3_7 Th12_7 1_555 1_555
O4_7 Th7_7 1_555 1_555
O6_7 Th9_7 1_555 1_555
C4_7 C5_7 1_555 1_555
C6_7 C7_7 1_555 1_555
N5_7 C25_7 1_555 1_555
N6_6 C25_7 1_555 1_555
C21_7 C22_7 1_555 1_555
C23_7 C24_7 1_555 1_555
Th8 O24_7 1_555 1_555
Th9_7 O25_7 1_555 1_555
Th12_7 O28_7 1_555 1_555
Th1_8 O2_8 1_555 1_555
O1_8 C1_8 1_555 1_555
O2_8 C1_8 1_555 1_555
O3_8 Th1_8 1_555 1_555
O4_8 Th1_8 1_555 1_555
O5_8 Th1_8 1_555 1_555
H1_8 O5_8 1_555 1_555
H2_8 O5_8 1_555 1_555
O6_8 C9_8 1_555 1_555
O7_8 Th1_8 1_555 1_555
N1_8 H3_8 1_555 1_555
N2_7 C8_8 1_555 1_555
C1_8 C2_8 1_555 1_555
C2_8 C3_8 1_555 1_555
C3_8 H4_8 1_555 1_555
C4_8 C3_8 1_555 1_555
H5_8 C4_8 1_555 1_555
C5_8 N1_8 1_555 1_555
C6_8 C5_8 1_555 1_555
H6_8 C6_8 1_555 1_555
C7_8 C2_8 1_555 1_555
H7_8 C7_8 1_555 1_555
C8_8 N1_8 1_555 1_555
C9_8 O7_8 1_555 1_555
H8_8 C9_8 1_555 1_555
O8_8 C10_8 1_555 1_555
O9_8 C10_8 1_555 1_555
N3_8 H9_8 1_555 1_555
N4_7 C8_8 1_555 1_555
C10_8 C11_8 1_555 1_555
C11_8 C12_8 1_555 1_555
C12_8 H10_8 1_555 1_555
C13_8 C12_8 1_555 1_555
H11_8 C13_8 1_555 1_555
C14_8 N3_8 1_555 1_555
C15_8 C14_8 1_555 1_555
H12_8 C15_8 1_555 1_555
C16_8 C11_8 1_555 1_555
H13_8 C16_8 1_555 1_555
C17_8 N3_8 1_555 1_555
O10_8 C18_8 1_555 1_555
O11_8 C18_8 1_555 1_555
N5_8 H14_8 1_555 1_555
N6_7 C17_8 1_555 1_555
C18_8 C19_8 1_555 1_555
C19_8 C20_8 1_555 1_555
C20_8 H15_8 1_555 1_555
C21_8 C20_8 1_555 1_555
H16_8 C21_8 1_555 1_555
C22_8 N5_8 1_555 1_555
C23_8 C22_8 1_555 1_555
H17_8 C23_8 1_555 1_555
C24_8 C19_8 1_555 1_555
H18_8 C24_8 1_555 1_555
C25_8 N2_7 1_555 1_555
Th4_2 O9_8 1_555 1_555
O12_8 Th4_2 1_555 1_555
O13_8 Th4_2 1_555 1_555
H19_8 O13_8 1_555 1_555
H20_8 O13_8 1_555 1_555
Th5_2 O11_8 1_555 1_555
O17_8 Th5_2 1_555 1_555
H22_8 O17_8 1_555 1_555
H23_8 O17_8 1_555 1_555
O18_8 C27_8 1_555 1_555
O19_8 Th5_2 1_555 1_555
C27_8 O19_8 1_555 1_555
H24_8 C27_8 1_555 1_555
Th8_2 O18_8 1_555 1_555
Th7_8 O3_8 1_555 1_555
Th9_8 O4_8 1_555 1_555
Th10_8 O8_8 1_555 1_555
Th11_8 O10_8 1_555 1_555
Th12_8 O1_8 1_555 1_555
O20_8 Th4_2 1_555 1_555
O21_8 Th5_2 1_555 1_555
O22_8 Th1_8 1_555 1_555
O24_8 Th5_2 1_555 1_555
O25_8 Th1_8 1_555 1_555
O27_8 Th5_2 1_555 1_555
O28_8 Th1_8 1_555 1_555
O32_8 Th1_8 1_555 1_555
O33_8 Th4_2 1_555 1_555
O3_8 Th12_8 1_555 1_555
O4_8 Th7_8 1_555 1_555
O6_8 Th9_8 1_555 1_555
C4_8 C5_8 1_555 1_555
C6_8 C7_8 1_555 1_555
N4_7 C17_8 1_555 1_555
C13_8 C14_8 1_555 1_555
C15_8 C16_8 1_555 1_555
N5_8 C25_8 1_555 1_555
N6_7 C25_8 1_555 1_555
C21_8 C22_8 1_555 1_555
C23_8 C24_8 1_555 1_555
O12_8 Th10_8 1_555 1_555
O23_2 Th11_8 1_555 1_555
Th8_2 O24_8 1_555 1_555
Th9_8 O25_8 1_555 1_555
Th11_8 O27_8 1_555 1_555
Th12_8 O28_8 1_555 1_555
C26_8 O15_8 1_555 1_555
H21_8 C26_8 1_555 1_555
O10_9 C18_9 1_555 1_555
O11_9 C18_9 1_555 1_555
N5_9 H14_9 1_555 1_555
C18_9 C19_9 1_555 1_555
C19_9 C20_9 1_555 1_555
C20_9 H15_9 1_555 1_555
C21_9 C20_9 1_555 1_555
H16_9 C21_9 1_555 1_555
C22_9 N5_9 1_555 1_555
C23_9 C22_9 1_555 1_555
H17_9 C23_9 1_555 1_555
C24_9 C19_9 1_555 1_555
H18_9 C24_9 1_555 1_555
Th7_2 O11_9 1_555 1_555
O16_5 Th7_2 1_555 1_555
O17_9 Th7_2 1_555 1_555
H22_9 O17_9 1_555 1_555
H23_9 O17_9 1_555 1_555
O19_9 Th7_2 1_555 1_555
C27_9 O19_9 1_555 1_555
H24_9 C27_9 1_555 1_555
Th9_2 O16_5 1_555 1_555
Th11_9 O10_9 1_555 1_555
Th12_9 O1_9 1_555 1_555
O21_9 Th7_2 1_555 1_555
O31_5 Th7_2 1_555 1_555
N5_9 C25_9 1_555 1_555
C21_9 C22_9 1_555 1_555
C23_9 C24_9 1_555 1_555
O16_5 Th11_9 1_555 1_555
Th6_2 O2_9 1_555 1_555
O2_9 C1_9 1_555 1_555
O5_9 Th6_2 1_555 1_555
H1_9 O5_9 1_555 1_555
H2_9 O5_9 1_555 1_555
O7_9 Th6_2 1_555 1_555
N1_9 H3_9 1_555 1_555
N2_8 C8_9 1_555 1_555
C1_9 C2_9 1_555 1_555
C2_9 C3_9 1_555 1_555
C3_9 H4_9 1_555 1_555
C4_9 C3_9 1_555 1_555
H5_9 C4_9 1_555 1_555
C5_9 N1_9 1_555 1_555
C6_9 C5_9 1_555 1_555
C7_9 C2_9 1_555 1_555
C8_9 N1_9 1_555 1_555
C9_9 O7_9 1_555 1_555
H8_9 C9_9 1_555 1_555
O8_9 C10_9 1_555 1_555
O9_9 C10_9 1_555 1_555
N3_9 H9_9 1_555 1_555
N4_8 C8_9 1_555 1_555
C10_9 C11_9 1_555 1_555
C11_9 C12_9 1_555 1_555
C12_9 H10_9 1_555 1_555
C13_9 C12_9 1_555 1_555
H11_9 C13_9 1_555 1_555
C14_9 N3_9 1_555 1_555
C15_9 C14_9 1_555 1_555
H12_9 C15_9 1_555 1_555
C16_9 C11_9 1_555 1_555
H13_9 C16_9 1_555 1_555
C17_9 N3_9 1_555 1_555
N6_8 C17_9 1_555 1_555
Th9_8 O9_9 1_555 1_555
O13_9 Th9_8 1_555 1_555
H19_9 O13_9 1_555 1_555
H20_9 O13_9 1_555 1_555
O14_5 C26_9 1_555 1_555
O15_9 Th9_8 1_555 1_555
C26_9 O15_9 1_555 1_555
H21_9 C26_9 1_555 1_555
Th7_8 O14_5 1_555 1_555
Th10_9 O8_9 1_555 1_555
O20_9 Th9_8 1_555 1_555
O22_9 Th6_2 1_555 1_555
O23_5 Th9_8 1_555 1_555
O26_9 Th9_8 1_555 1_555
C4_9 C5_9 1_555 1_555
C6_9 C7_9 1_555 1_555
N4_8 C17_9 1_555 1_555
C13_9 C14_9 1_555 1_555
C15_9 C16_9 1_555 1_555
O25_8 Th10_9 1_555 1_555
Th7_8 O23_5 1_555 1_555
Th10_9 O26_9 1_555 1_555
Th6 O2_10 1_555 1_555
O1_10 C1_10 1_555 1_555
O2_10 C1_10 1_555 1_555
O5_10 Th6 1_555 1_555
H1_10 O5_10 1_555 1_555
H2_10 O5_10 1_555 1_555
O33_7 C9_10 1_555 1_555
O7_10 Th6 1_555 1_555
N1_10 H3_10 1_555 1_555
N2_9 C8_10 1_555 1_555
C1_10 C2_10 1_555 1_555
C2_10 C3_10 1_555 1_555
C3_10 H4_10 1_555 1_555
C4_10 C3_10 1_555 1_555
H5_10 C4_10 1_555 1_555
C5_10 N1_10 1_555 1_555
C6_10 C5_10 1_555 1_555
H6_10 C6_10 1_555 1_555
C7_10 C2_10 1_555 1_555
H7_10 C7_10 1_555 1_555
C8_10 N1_10 1_555 1_555
C9_10 O7_10 1_555 1_555
H8_10 C9_10 1_555 1_555
O8_10 C10_10 1_555 1_555
O9_10 C10_10 1_555 1_555
N3_10 H9_10 1_555 1_555
N4_9 C8_10 1_555 1_555
C10_10 C11_10 1_555 1_555
C11_10 C12_10 1_555 1_555
C12_10 H10_10 1_555 1_555
C13_10 C12_10 1_555 1_555
H11_10 C13_10 1_555 1_555
C14_10 N3_10 1_555 1_555
C15_10 C14_10 1_555 1_555
H12_10 C15_10 1_555 1_555
C16_10 C11_10 1_555 1_555
H13_10 C16_10 1_555 1_555
C17_10 N3_10 1_555 1_555
O10_10 C18_10 1_555 1_555
O11_10 C18_10 1_555 1_555
N5_10 H14_10 1_555 1_555
N6_9 C17_10 1_555 1_555
C18_10 C19_10 1_555 1_555
C19_10 C20_10 1_555 1_555
C20_10 H15_10 1_555 1_555
C21_10 C20_10 1_555 1_555
H16_10 C21_10 1_555 1_555
C22_10 N5_10 1_555 1_555
C23_10 C22_10 1_555 1_555
H17_10 C23_10 1_555 1_555
C24_10 C19_10 1_555 1_555
H18_10 C24_10 1_555 1_555
C25_10 N2_9 1_555 1_555
Th9_7 O9_10 1_555 1_555
O13_10 Th9_7 1_555 1_555
H19_10 O13_10 1_555 1_555
H20_10 O13_10 1_555 1_555
O14_6 C26_10 1_555 1_555
O15_10 Th9_7 1_555 1_555
C26_10 O15_10 1_555 1_555
H21_10 C26_10 1_555 1_555
Th7 O11_10 1_555 1_555
O16_6 Th7 1_555 1_555
O17_10 Th7 1_555 1_555
H22_10 O17_10 1_555 1_555
H23_10 O17_10 1_555 1_555
Th7_7 O14_6 1_555 1_555
Th10_10 O8_10 1_555 1_555
Th11_10 O10_10 1_555 1_555
Th12_10 O1_10 1_555 1_555
O20_10 Th9_7 1_555 1_555
O21_10 Th7 1_555 1_555
O22_10 Th6 1_555 1_555
O23_6 Th9_7 1_555 1_555
O26_10 Th9_7 1_555 1_555
O28_10 Th6 1_555 1_555
O31_6 Th7 1_555 1_555
O24 Th12_10 1_555 1_555
C4_10 C5_10 1_555 1_555
C6_10 C7_10 1_555 1_555
N4_9 C17_10 1_555 1_555
C13_10 C14_10 1_555 1_555
C15_10 C16_10 1_555 1_555
N5_10 C25_10 1_555 1_555
N6_9 C25_10 1_555 1_555
C21_10 C22_10 1_555 1_555
C23_10 C24_10 1_555 1_555
O25_7 Th10_10 1_555 1_555
O16_6 Th11_10 1_555 1_555
Th7_7 O23_6 1_555 1_555
Th10_10 O26_10 1_555 1_555
Th12_10 O28_10 1_555 1_555
C27_10 O19_10 1_555 1_555
H24_10 C27_10 1_555 1_555
O10_11 C18_11 1_555 1_555
O11_11 C18_11 1_555 1_555
N5_11 H14_11 1_555 1_555
C18_11 C19_11 1_555 1_555
C19_11 C20_11 1_555 1_555
C20_11 H15_11 1_555 1_555
C21_11 C20_11 1_555 1_555
H16_11 C21_11 1_555 1_555
C22_11 N5_11 1_555 1_555
C23_11 C22_11 1_555 1_555
H17_11 C23_11 1_555 1_555
C24_11 C19_11 1_555 1_555
H18_11 C24_11 1_555 1_555
Th7_4 O11_11 1_555 1_555
O16_7 Th7_4 1_555 1_555
O17_11 Th7_4 1_555 1_555
H22_11 O17_11 1_555 1_555
H23_11 O17_11 1_555 1_555
O32_4 C27_11 1_555 1_555
O19_11 Th7_4 1_555 1_555
C27_11 O19_11 1_555 1_555
H24_11 C27_11 1_555 1_555
Th9_4 O16_7 1_555 1_555
Th11_11 O10_11 1_555 1_555
Th12_11 O1_11 1_555 1_555
O21_11 Th7_4 1_555 1_555
O27_11 Th7_4 1_555 1_555
O31_7 Th7_4 1_555 1_555
N5_11 C25_11 1_555 1_555
C21_11 C22_11 1_555 1_555
C23_11 C24_11 1_555 1_555
O16_7 Th11_11 1_555 1_555
Th11_11 O27_11 1_555 1_555
Th6_4 O2_11 1_555 1_555
O2_11 C1_11 1_555 1_555
O5_11 Th6_4 1_555 1_555
H1_11 O5_11 1_555 1_555
H2_11 O5_11 1_555 1_555
O33_6 C9_11 1_555 1_555
O7_11 Th6_4 1_555 1_555
N1_11 H3_11 1_555 1_555
N2_10 C8_11 1_555 1_555
C1_11 C2_11 1_555 1_555
C2_11 C3_11 1_555 1_555
C3_11 H4_11 1_555 1_555
C4_11 C3_11 1_555 1_555
H5_11 C4_11 1_555 1_555
C5_11 N1_11 1_555 1_555
C6_11 C5_11 1_555 1_555
C7_11 C2_11 1_555 1_555
C8_11 N1_11 1_555 1_555
C9_11 O7_11 1_555 1_555
H8_11 C9_11 1_555 1_555
O8_11 C10_11 1_555 1_555
O9_11 C10_11 1_555 1_555
N3_11 H9_11 1_555 1_555
N4_10 C8_11 1_555 1_555
C10_11 C11_11 1_555 1_555
C11_11 C12_11 1_555 1_555
C12_11 H10_11 1_555 1_555
C13_11 C12_11 1_555 1_555
H11_11 C13_11 1_555 1_555
C14_11 N3_11 1_555 1_555
C15_11 C14_11 1_555 1_555
H12_11 C15_11 1_555 1_555
C16_11 C11_11 1_555 1_555
H13_11 C16_11 1_555 1_555
C17_11 N3_11 1_555 1_555
N6_10 C17_11 1_555 1_555
Th9_6 O9_11 1_555 1_555
O13_11 Th9_6 1_555 1_555
H19_11 O13_11 1_555 1_555
H20_11 O13_11 1_555 1_555
O14_7 C26_11 1_555 1_555
O15_11 Th9_6 1_555 1_555
C26_11 O15_11 1_555 1_555
H21_11 C26_11 1_555 1_555
Th7_6 O14_7 1_555 1_555
Th10_11 O8_11 1_555 1_555
O20_11 Th9_6 1_555 1_555
O22_11 Th6_4 1_555 1_555
O23_7 Th9_6 1_555 1_555
O26_11 Th9_6 1_555 1_555
O28_11 Th6_4 1_555 1_555
C4_11 C5_11 1_555 1_555
C6_11 C7_11 1_555 1_555
N4_10 C17_11 1_555 1_555
C13_11 C14_11 1_555 1_555
C15_11 C16_11 1_555 1_555
O25_6 Th10_11 1_555 1_555
Th7_6 O23_7 1_555 1_555
Th10_11 O26_11 1_555 1_555
Th6_3 O2_12 1_555 1_555
O1_12 C1_12 1_555 1_555
O2_12 C1_12 1_555 1_555
O5_12 Th6_3 1_555 1_555
H1_12 O5_12 1_555 1_555
H2_12 O5_12 1_555 1_555
O7_12 Th6_3 1_555 1_555
N1_12 H3_12 1_555 1_555
N2_11 C8_12 1_555 1_555
C1_12 C2_12 1_555 1_555
C2_12 C3_12 1_555 1_555
C3_12 H4_12 1_555 1_555
C4_12 C3_12 1_555 1_555
H5_12 C4_12 1_555 1_555
C5_12 N1_12 1_555 1_555
C6_12 C5_12 1_555 1_555
H6_12 C6_12 1_555 1_555
C7_12 C2_12 1_555 1_555
H7_12 C7_12 1_555 1_555
C8_12 N1_12 1_555 1_555
C9_12 O7_12 1_555 1_555
H8_12 C9_12 1_555 1_555
O8_12 C10_12 1_555 1_555
O9_12 C10_12 1_555 1_555
N3_12 H9_12 1_555 1_555
N4_11 C8_12 1_555 1_555
C10_12 C11_12 1_555 1_555
C11_12 C12_12 1_555 1_555
C12_12 H10_12 1_555 1_555
C13_12 C12_12 1_555 1_555
H11_12 C13_12 1_555 1_555
C14_12 N3_12 1_555 1_555
C15_12 C14_12 1_555 1_555
H12_12 C15_12 1_555 1_555
C16_12 C11_12 1_555 1_555
H13_12 C16_12 1_555 1_555
C17_12 N3_12 1_555 1_555
O10_12 C18_12 1_555 1_555
O11_12 C18_12 1_555 1_555
N5_12 H14_12 1_555 1_555
N6_11 C17_12 1_555 1_555
C18_12 C19_12 1_555 1_555
C19_12 C20_12 1_555 1_555
C20_12 H15_12 1_555 1_555
C21_12 C20_12 1_555 1_555
H16_12 C21_12 1_555 1_555
C22_12 N5_12 1_555 1_555
C23_12 C22_12 1_555 1_555
H17_12 C23_12 1_555 1_555
C24_12 C19_12 1_555 1_555
H18_12 C24_12 1_555 1_555
C25_12 N2_11 1_555 1_555
Th9_5 O9_12 1_555 1_555
O13_12 Th9_5 1_555 1_555
H19_12 O13_12 1_555 1_555
H20_12 O13_12 1_555 1_555
O14_8 C26_12 1_555 1_555
O15_12 Th9_5 1_555 1_555
C26_12 O15_12 1_555 1_555
H21_12 C26_12 1_555 1_555
Th7_3 O11_12 1_555 1_555
O16_8 Th7_3 1_555 1_555
O17_12 Th7_3 1_555 1_555
H22_12 O17_12 1_555 1_555
H23_12 O17_12 1_555 1_555
Th7_5 O14_8 1_555 1_555
Th10_12 O8_12 1_555 1_555
Th11_12 O10_12 1_555 1_555
Th12_12 O1_12 1_555 1_555
O20_12 Th9_5 1_555 1_555
O21_12 Th7_3 1_555 1_555
O22_12 Th6_3 1_555 1_555
O23_8 Th9_5 1_555 1_555
O26_12 Th9_5 1_555 1_555
O27_12 Th7_3 1_555 1_555
O31_8 Th7_3 1_555 1_555
O24_3 Th12_12 1_555 1_555
C4_12 C5_12 1_555 1_555
C6_12 C7_12 1_555 1_555
N4_11 C17_12 1_555 1_555
C13_12 C14_12 1_555 1_555
C15_12 C16_12 1_555 1_555
N5_12 C25_12 1_555 1_555
N6_11 C25_12 1_555 1_555
C21_12 C22_12 1_555 1_555
C23_12 C24_12 1_555 1_555
O25_5 Th10_12 1_555 1_555
O16_8 Th11_12 1_555 1_555
Th7_5 O23_8 1_555 1_555
Th10_12 O26_12 1_555 1_555
Th11_12 O27_12 1_555 1_555
O32_3 C27_12 1_555 1_555
C27_12 O19_12 1_555 1_555
H24_12 C27_12 1_555 1_555
Th8_4 O2_13 1_555 1_555
O1_13 C1_13 1_555 1_555
O2_13 C1_13 1_555 1_555
O5_13 Th8_4 1_555 1_555
H1_13 O5_13 1_555 1_555
H2_13 O5_13 1_555 1_555
N1_13 H3_13 1_555 1_555
N2_12 C8_13 1_555 1_555
C1_13 C2_13 1_555 1_555
C2_13 C3_13 1_555 1_555
C3_13 H4_13 1_555 1_555
C4_13 C3_13 1_555 1_555
H5_13 C4_13 1_555 1_555
C5_13 N1_13 1_555 1_555
C6_13 C5_13 1_555 1_555
H6_13 C6_13 1_555 1_555
C7_13 C2_13 1_555 1_555
H7_13 C7_13 1_555 1_555
C8_13 N1_13 1_555 1_555
O8_13 C10_13 1_555 1_555
O9_13 C10_13 1_555 1_555
N3_13 H9_13 1_555 1_555
N4_12 C8_13 1_555 1_555
C10_13 C11_13 1_555 1_555
C11_13 C12_13 1_555 1_555
C12_13 H10_13 1_555 1_555
C13_13 C12_13 1_555 1_555
H11_13 C13_13 1_555 1_555
C14_13 N3_13 1_555 1_555
C15_13 C14_13 1_555 1_555
H12_13 C15_13 1_555 1_555
C16_13 C11_13 1_555 1_555
H13_13 C16_13 1_555 1_555
C17_13 N3_13 1_555 1_555
O10_13 C18_13 1_555 1_555
O11_13 C18_13 1_555 1_555
N5_13 H14_13 1_555 1_555
N6_12 C17_13 1_555 1_555
C18_13 C19_13 1_555 1_555
C19_13 C20_13 1_555 1_555
C20_13 H15_13 1_555 1_555
C21_13 C20_13 1_555 1_555
H16_13 C21_13 1_555 1_555
C22_13 N5_13 1_555 1_555
C23_13 C22_13 1_555 1_555
H17_13 C23_13 1_555 1_555
C24_13 C19_13 1_555 1_555
H18_13 C24_13 1_555 1_555
C25_13 N2_12 1_555 1_555
Th9_4 O9_13 1_555 1_555
O13_13 Th9_4 1_555 1_555
H19_13 O13_13 1_555 1_555
H20_13 O13_13 1_555 1_555
O31_7 C26_13 1_555 1_555
O15_13 Th9_4 1_555 1_555
C26_13 O15_13 1_555 1_555
H21_13 C26_13 1_555 1_555
Th7_6 O11_13 1_555 1_555
O17_13 Th7_6 1_555 1_555
H22_13 O17_13 1_555 1_555
H23_13 O17_13 1_555 1_555
O32_6 C27_13 1_555 1_555
O19_13 Th7_6 1_555 1_555
C27_13 O19_13 1_555 1_555
H24_13 C27_13 1_555 1_555
Th10_13 O8_13 1_555 1_555
Th11_13 O10_13 1_555 1_555
Th12_13 O1_13 1_555 1_555
O20_13 Th9_4 1_555 1_555
O21_13 Th7_6 1_555 1_555
O22_13 Th8_4 1_555 1_555
O26_13 Th9_4 1_555 1_555
O27_13 Th7_6 1_555 1_555
O24_6 Th12_13 1_555 1_555
C4_13 C5_13 1_555 1_555
C6_13 C7_13 1_555 1_555
N4_12 C17_13 1_555 1_555
C13_13 C14_13 1_555 1_555
C15_13 C16_13 1_555 1_555
N5_13 C25_13 1_555 1_555
N6_12 C25_13 1_555 1_555
C21_13 C22_13 1_555 1_555
C23_13 C24_13 1_555 1_555
O25_4 Th10_13 1_555 1_555
O23_7 Th11_13 1_555 1_555
Th10_13 O26_13 1_555 1_555
Th11_13 O27_13 1_555 1_555
C9_13 O7_13 1_555 1_555
H8_13 C9_13 1_555 1_555
Th8_3 O2_14 1_555 1_555
O1_14 C1_14 1_555 1_555
O2_14 C1_14 1_555 1_555
O5_14 Th8_3 1_555 1_555
H1_14 O5_14 1_555 1_555
H2_14 O5_14 1_555 1_555
N1_14 H3_14 1_555 1_555
N2_13 C8_14 1_555 1_555
C1_14 C2_14 1_555 1_555
C2_14 C3_14 1_555 1_555
C3_14 H4_14 1_555 1_555
C4_14 C3_14 1_555 1_555
H5_14 C4_14 1_555 1_555
C5_14 N1_14 1_555 1_555
C6_14 C5_14 1_555 1_555
H6_14 C6_14 1_555 1_555
C7_14 C2_14 1_555 1_555
H7_14 C7_14 1_555 1_555
C8_14 N1_14 1_555 1_555
O8_14 C10_14 1_555 1_555
O9_14 C10_14 1_555 1_555
N3_14 H9_14 1_555 1_555
N4_13 C8_14 1_555 1_555
C10_14 C11_14 1_555 1_555
C11_14 C12_14 1_555 1_555
C12_14 H10_14 1_555 1_555
C13_14 C12_14 1_555 1_555
H11_14 C13_14 1_555 1_555
C14_14 N3_14 1_555 1_555
C15_14 C14_14 1_555 1_555
H12_14 C15_14 1_555 1_555
C16_14 C11_14 1_555 1_555
H13_14 C16_14 1_555 1_555
C17_14 N3_14 1_555 1_555
O10_14 C18_14 1_555 1_555
O11_14 C18_14 1_555 1_555
N5_14 H14_14 1_555 1_555
N6_13 C17_14 1_555 1_555
C18_14 C19_14 1_555 1_555
C19_14 C20_14 1_555 1_555
C20_14 H15_14 1_555 1_555
C21_14 C20_14 1_555 1_555
H16_14 C21_14 1_555 1_555
C22_14 N5_14 1_555 1_555
C23_14 C22_14 1_555 1_555
H17_14 C23_14 1_555 1_555
C24_14 C19_14 1_555 1_555
H18_14 C24_14 1_555 1_555
C25_14 N2_13 1_555 1_555
Th9_3 O9_14 1_555 1_555
O13_14 Th9_3 1_555 1_555
H19_14 O13_14 1_555 1_555
H20_14 O13_14 1_555 1_555
O15_14 Th9_3 1_555 1_555
C26_14 O15_14 1_555 1_555
H21_14 C26_14 1_555 1_555
Th7_5 O11_14 1_555 1_555
O17_14 Th7_5 1_555 1_555
H22_14 O17_14 1_555 1_555
H23_14 O17_14 1_555 1_555
O32_5 C27_14 1_555 1_555
O19_14 Th7_5 1_555 1_555
C27_14 O19_14 1_555 1_555
H24_14 C27_14 1_555 1_555
Th10_14 O8_14 1_555 1_555
Th11_14 O10_14 1_555 1_555
Th12_14 O1_14 1_555 1_555
O20_14 Th9_3 1_555 1_555
O21_14 Th7_5 1_555 1_555
O22_14 Th8_3 1_555 1_555
O27_14 Th7_5 1_555 1_555
O28_14 Th8_3 1_555 1_555
O24_5 Th12_14 1_555 1_555
C4_14 C5_14 1_555 1_555
C6_14 C7_14 1_555 1_555
N4_13 C17_14 1_555 1_555
C13_14 C14_14 1_555 1_555
C15_14 C16_14 1_555 1_555
N5_14 C25_14 1_555 1_555
N6_13 C25_14 1_555 1_555
C21_14 C22_14 1_555 1_555
C23_14 C24_14 1_555 1_555
O25_3 Th10_14 1_555 1_555
O23_8 Th11_14 1_555 1_555
Th11_14 O27_14 1_555 1_555
Th12_14 O28_14 1_555 1_555
O33_3 C9_14 1_555 1_555
C9_14 O7_14 1_555 1_555
H8_14 C9_14 1_555 1_555
Th8_2 O2_15 1_555 1_555
O1_15 C1_15 1_555 1_555
O2_15 C1_15 1_555 1_555
O5_15 Th8_2 1_555 1_555
H1_15 O5_15 1_555 1_555
H2_15 O5_15 1_555 1_555
O33_2 C9_15 1_555 1_555
O7_15 Th8_2 1_555 1_555
N1_15 H3_15 1_555 1_555
C1_15 C2_15 1_555 1_555
C2_15 C3_15 1_555 1_555
C3_15 H4_15 1_555 1_555
C4_15 C3_15 1_555 1_555
H5_15 C4_15 1_555 1_555
C5_15 N1_15 1_555 1_555
C6_15 C5_15 1_555 1_555
H6_15 C6_15 1_555 1_555
C7_15 C2_15 1_555 1_555
H7_15 C7_15 1_555 1_555
C8_15 N1_15 1_555 1_555
C9_15 O7_15 1_555 1_555
H8_15 C9_15 1_555 1_555
Th10_15 O8_15 1_555 1_555
Th12_15 O1_15 1_555 1_555
O22_15 Th8_2 1_555 1_555
O28_15 Th8_2 1_555 1_555
O24_8 Th12_15 1_555 1_555
C4_15 C5_15 1_555 1_555
C6_15 C7_15 1_555 1_555
Th12_15 O28_15 1_555 1_555
O9_15 C10_15 1_555 1_555
N3_15 H9_15 1_555 1_555
C10_15 C11_15 1_555 1_555
C11_15 C12_15 1_555 1_555
C12_15 H10_15 1_555 1_555
C13_15 C12_15 1_555 1_555
H11_15 C13_15 1_555 1_555
C14_15 N3_15 1_555 1_555
C15_15 C14_15 1_555 1_555
C16_15 C11_15 1_555 1_555
C17_15 N3_15 1_555 1_555
O10_15 C18_15 1_555 1_555
O11_15 C18_15 1_555 1_555
N5_15 H14_15 1_555 1_555
N6_14 C17_15 1_555 1_555
C18_15 C19_15 1_555 1_555
C19_15 C20_15 1_555 1_555
C20_15 H15_15 1_555 1_555
C21_15 C20_15 1_555 1_555
H16_15 C21_15 1_555 1_555
C22_15 N5_15 1_555 1_555
C23_15 C22_15 1_555 1_555
H17_15 C23_15 1_555 1_555
C24_15 C19_15 1_555 1_555
H18_15 C24_15 1_555 1_555
C25_15 N2_14 1_555 1_555
Th9_2 O9_15 1_555 1_555
O13_15 Th9_2 1_555 1_555
H19_15 O13_15 1_555 1_555
H20_15 O13_15 1_555 1_555
O31_5 C26_15 1_555 1_555
O15_15 Th9_2 1_555 1_555
C26_15 O15_15 1_555 1_555
H21_15 C26_15 1_555 1_555
Th7_8 O11_15 1_555 1_555
O17_15 Th7_8 1_555 1_555
H22_15 O17_15 1_555 1_555
H23_15 O17_15 1_555 1_555
O32_8 C27_15 1_555 1_555
O19_15 Th7_8 1_555 1_555
C27_15 O19_15 1_555 1_555
H24_15 C27_15 1_555 1_555
Th11_15 O10_15 1_555 1_555
O20_15 Th9_2 1_555 1_555
O21_15 Th7_8 1_555 1_555
O26_15 Th9_2 1_555 1_555
O27_15 Th7_8 1_555 1_555
N4_14 C17_15 1_555 1_555
C13_15 C14_15 1_555 1_555
C15_15 C16_15 1_555 1_555
N5_15 C25_15 1_555 1_555
N6_14 C25_15 1_555 1_555
C21_15 C22_15 1_555 1_555
C23_15 C24_15 1_555 1_555
O23_5 Th11_15 1_555 1_555
Th11_15 O27_15 1_555 1_555
Th8 O2_16 1_555 1_555
O1_16 C1_16 1_555 1_555
O2_16 C1_16 1_555 1_555
O5_16 Th8 1_555 1_555
H1_16 O5_16 1_555 1_555
H2_16 O5_16 1_555 1_555
O7_16 Th8 1_555 1_555
N1_16 H3_16 1_555 1_555
C1_16 C2_16 1_555 1_555
C2_16 C3_16 1_555 1_555
C3_16 H4_16 1_555 1_555
C4_16 C3_16 1_555 1_555
H5_16 C4_16 1_555 1_555
C5_16 N1_16 1_555 1_555
C6_16 C5_16 1_555 1_555
H6_16 C6_16 1_555 1_555
C7_16 C2_16 1_555 1_555
H7_16 C7_16 1_555 1_555
C8_16 N1_16 1_555 1_555
C9_16 O7_16 1_555 1_555
H8_16 C9_16 1_555 1_555
Th10_16 O8_16 1_555 1_555
Th12_16 O1_16 1_555 1_555
O22_16 Th8 1_555 1_555
O24_7 Th12_16 1_555 1_555
C4_16 C5_16 1_555 1_555
C6_16 C7_16 1_555 1_555
O9_16 C10_16 1_555 1_555
N3_16 H9_16 1_555 1_555
C10_16 C11_16 1_555 1_555
C11_16 C12_16 1_555 1_555
C12_16 H10_16 1_555 1_555
C13_16 C12_16 1_555 1_555
H11_16 C13_16 1_555 1_555
C14_16 N3_16 1_555 1_555
C15_16 C14_16 1_555 1_555
C16_16 C11_16 1_555 1_555
C17_16 N3_16 1_555 1_555
O10_16 C18_16 1_555 1_555
O11_16 C18_16 1_555 1_555
N5_16 H14_16 1_555 1_555
N6_15 C17_16 1_555 1_555
C18_16 C19_16 1_555 1_555
C19_16 C20_16 1_555 1_555
C20_16 H15_16 1_555 1_555
C21_16 C20_16 1_555 1_555
H16_16 C21_16 1_555 1_555
C22_16 N5_16 1_555 1_555
C23_16 C22_16 1_555 1_555
H17_16 C23_16 1_555 1_555
C24_16 C19_16 1_555 1_555
H18_16 C24_16 1_555 1_555
C25_16 N2_15 1_555 1_555
Th9 O9_16 1_555 1_555
O13_16 Th9 1_555 1_555
H19_16 O13_16 1_555 1_555
H20_16 O13_16 1_555 1_555
O15_16 Th9 1_555 1_555
C26_16 O15_16 1_555 1_555
H21_16 C26_16 1_555 1_555
Th7_7 O11_16 1_555 1_555
O17_16 Th7_7 1_555 1_555
H22_16 O17_16 1_555 1_555
H23_16 O17_16 1_555 1_555
O32_7 C27_16 1_555 1_555
O19_16 Th7_7 1_555 1_555
C27_16 O19_16 1_555 1_555
H24_16 C27_16 1_555 1_555
Th11_16 O10_16 1_555 1_555
O20_16 Th9 1_555 1_555
O21_16 Th7_7 1_555 1_555
O27_16 Th7_7 1_555 1_555
N4_15 C17_16 1_555 1_555
C13_16 C14_16 1_555 1_555
C15_16 C16_16 1_555 1_555
N5_16 C25_16 1_555 1_555
N6_15 C25_16 1_555 1_555
C21_16 C22_16 1_555 1_555
C23_16 C24_16 1_555 1_555
O23_6 Th11_16 1_555 1_555
Th11_16 O27_16 1_555 1_555
O14_9 C26_17 1_555 1_555
C26_17 O15_17 1_555 1_555
H21_17 C26_17 1_555 1_555
Th10_5 O14_9 1_555 1_555
Th10_5 O28_12 1_555 1_555
Th10_5 O29_5 1_555 1_555
Th11_3 O29_5 1_555 1_555
O6_9 C9_17 1_555 1_555
C9_17 O7_17 1_555 1_555
H8_17 C9_17 1_555 1_555
Th12 O4_9 1_555 1_555
O6_9 Th12 1_555 1_555
Th12 O27_10 1_555 1_555
Th11_10 O2_17 1_555 1_555
O2_17 C1_17 1_555 1_555
O26_16 Th11_10 1_555 1_555
O5_17 Th11_10 1_555 1_555
H1_17 O5_17 1_555 1_555
H2_17 O5_17 1_555 1_555
N1_17 H3_17 1_555 1_555
N2_16 C8_17 1_555 1_555
C1_17 C2_17 1_555 1_555
C2_17 C3_17 1_555 1_555
C3_17 H4_17 1_555 1_555
C4_17 C3_17 1_555 1_555
H5_17 C4_17 1_555 1_555
C5_17 N1_17 1_555 1_555
C6_17 C5_17 1_555 1_555
C7_17 C2_17 1_555 1_555
C8_17 N1_17 1_555 1_555
O21_3 C10_17 1_555 1_555
O9_17 C10_17 1_555 1_555
N3_17 H9_17 1_555 1_555
N4_16 C8_17 1_555 1_555
C10_17 C11_17 1_555 1_555
C11_17 C12_17 1_555 1_555
C12_17 H10_17 1_555 1_555
C13_17 C12_17 1_555 1_555
H11_17 C13_17 1_555 1_555
C14_17 N3_17 1_555 1_555
C15_17 C14_17 1_555 1_555
H12_17 C15_17 1_555 1_555
C16_17 C11_17 1_555 1_555
H13_17 C16_17 1_555 1_555
C17_17 N3_17 1_555 1_555
N6_16 C17_17 1_555 1_555
Th12_12 O9_17 1_555 1_555
O27_3 Th12_12 1_555 1_555
O13_17 Th12_12 1_555 1_555
H19_17 O13_17 1_555 1_555
H20_17 O13_17 1_555 1_555
O32_9 Th11_10 1_555 1_555
O33_9 Th12_12 1_555 1_555
C4_17 C5_17 1_555 1_555
C6_17 C7_17 1_555 1_555
N4_16 C17_17 1_555 1_555
C13_17 C14_17 1_555 1_555
C15_17 C16_17 1_555 1_555
O22_6 C18_17 1_555 1_555
O11_17 C18_17 1_555 1_555
N5_17 H14_17 1_555 1_555
C18_17 C19_17 1_555 1_555
C19_17 C20_17 1_555 1_555
C20_17 H15_17 1_555 1_555
C21_17 C20_17 1_555 1_555
H16_17 C21_17 1_555 1_555
C22_17 N5_17 1_555 1_555
C23_17 C22_17 1_555 1_555
H17_17 C23_17 1_555 1_555
C24_17 C19_17 1_555 1_555
H18_17 C24_17 1_555 1_555
Th10_11 O11_17 1_555 1_555
O28_6 Th10_11 1_555 1_555
O17_17 Th10_11 1_555 1_555
H22_17 O17_17 1_555 1_555
H23_17 O17_17 1_555 1_555
O18_9 C27_17 1_555 1_555
O19_17 Th10_11 1_555 1_555
C27_17 O19_17 1_555 1_555
H24_17 C27_17 1_555 1_555
Th11_13 O18_9 1_555 1_555
O30_5 Th10_11 1_555 1_555
O31_9 Th10_11 1_555 1_555
N5_17 C25_17 1_555 1_555
C21_17 C22_17 1_555 1_555
C23_17 C24_17 1_555 1_555
Th12_6 O30_5 1_555 1_555
Th11_13 O26_11 1_555 1_555
Th11_13 O30_5 1_555 1_555
O18_10 C27_18 1_555 1_555
C27_18 O19_18 1_555 1_555
H24_18 C27_18 1_555 1_555
Th11_2 O18_10 1_555 1_555
Th11_2 O26_8 1_555 1_555
Th11_2 O30_6 1_555 1_555
O6_10 C9_18 1_555 1_555
C9_18 O7_18 1_555 1_555
H8_18 C9_18 1_555 1_555
Th12_14 O4_10 1_555 1_555
O4_10 Th10_3 1_555 1_555
O6_10 Th12_14 1_555 1_555
Th12_14 O27_5 1_555 1_555
Th11_5 O2_18 1_555 1_555
O20_3 C1_18 1_555 1_555
O2_18 C1_18 1_555 1_555
O26_3 Th11_5 1_555 1_555
O5_18 Th11_5 1_555 1_555
H1_18 O5_18 1_555 1_555
H2_18 O5_18 1_555 1_555
N1_18 H3_18 1_555 1_555
N2_17 C8_18 1_555 1_555
C1_18 C2_18 1_555 1_555
C2_18 C3_18 1_555 1_555
C3_18 H4_18 1_555 1_555
C4_18 C3_18 1_555 1_555
H5_18 C4_18 1_555 1_555
C5_18 N1_18 1_555 1_555
C6_18 C5_18 1_555 1_555
H6_18 C6_18 1_555 1_555
C7_18 C2_18 1_555 1_555
H7_18 C7_18 1_555 1_555
C8_18 N1_18 1_555 1_555
N4_17 C8_18 1_555 1_555
O11_18 C18_18 1_555 1_555
N5_18 H14_18 1_555 1_555
C18_18 C19_18 1_555 1_555
C19_18 C20_18 1_555 1_555
C20_18 H15_18 1_555 1_555
C21_18 C20_18 1_555 1_555
H16_18 C21_18 1_555 1_555
C22_18 N5_18 1_555 1_555
C23_18 C22_18 1_555 1_555
C24_18 C19_18 1_555 1_555
C25_18 N2_17 1_555 1_555
Th10_8 O11_18 1_555 1_555
O28_9 Th10_8 1_555 1_555
O17_18 Th10_8 1_555 1_555
H22_18 O17_18 1_555 1_555
H23_18 O17_18 1_555 1_555
O31_10 Th10_8 1_555 1_555
O32_10 Th11_5 1_555 1_555
C4_18 C5_18 1_555 1_555
C6_18 C7_18 1_555 1_555
N5_18 C25_18 1_555 1_555
N6_17 C25_18 1_555 1_555
C21_18 C22_18 1_555 1_555
C23_18 C24_18 1_555 1_555
O21_16 C10_18 1_555 1_555
O9_18 C10_18 1_555 1_555
N3_18 H9_18 1_555 1_555
C10_18 C11_18 1_555 1_555
C11_18 C12_18 1_555 1_555
C12_18 H10_18 1_555 1_555
C13_18 C12_18 1_555 1_555
H11_18 C13_18 1_555 1_555
C14_18 N3_18 1_555 1_555
C15_18 C14_18 1_555 1_555
H12_18 C15_18 1_555 1_555
C16_18 C11_18 1_555 1_555
H13_18 C16_18 1_555 1_555
C17_18 N3_18 1_555 1_555
Th12_7 O9_18 1_555 1_555
O27_16 Th12_7 1_555 1_555
O13_18 Th12_7 1_555 1_555
H19_18 O13_18 1_555 1_555
H20_18 O13_18 1_555 1_555
O14_10 C26_18 1_555 1_555
O15_18 Th12_7 1_555 1_555
C26_18 O15_18 1_555 1_555
H21_18 C26_18 1_555 1_555
Th10_10 O14_10 1_555 1_555
O29_6 Th12_7 1_555 1_555
O33_10 Th12_7 1_555 1_555
C13_18 C14_18 1_555 1_555
C15_18 C16_18 1_555 1_555
Th10_10 O28_7 1_555 1_555
Th10_10 O29_6 1_555 1_555
Th11_16 O29_6 1_555 1_555
Th11_4 O2_19 1_555 1_555
O2_19 C1_19 1_555 1_555
O26_6 Th11_4 1_555 1_555
O4_11 Th11_4 1_555 1_555
O5_19 Th11_4 1_555 1_555
H1_19 O5_19 1_555 1_555
H2_19 O5_19 1_555 1_555
O6_11 C9_19 1_555 1_555
O7_19 Th11_4 1_555 1_555
N1_19 H3_19 1_555 1_555
C1_19 C2_19 1_555 1_555
C2_19 C3_19 1_555 1_555
C3_19 H4_19 1_555 1_555
C4_19 C3_19 1_555 1_555
H5_19 C4_19 1_555 1_555
C5_19 N1_19 1_555 1_555
C6_19 C5_19 1_555 1_555
C7_19 C2_19 1_555 1_555
C8_19 N1_19 1_555 1_555
C9_19 O7_19 1_555 1_555
H8_19 C9_19 1_555 1_555
Th12_11 O4_11 1_555 1_555
O32_11 Th11_4 1_555 1_555
O6_11 Th12_11 1_555 1_555
C4_19 C5_19 1_555 1_555
C6_19 C7_19 1_555 1_555
Th12_11 O27_4 1_555 1_555
O11_19 C18_19 1_555 1_555
N5_19 H14_19 1_555 1_555
C18_19 C19_19 1_555 1_555
C19_19 C20_19 1_555 1_555
C20_19 H15_19 1_555 1_555
C21_19 C20_19 1_555 1_555
H16_19 C21_19 1_555 1_555
C22_19 N5_19 1_555 1_555
C23_19 C22_19 1_555 1_555
C24_19 C19_19 1_555 1_555
Th10 O11_19 1_555 1_555
O28_16 Th10 1_555 1_555
O17_19 Th10 1_555 1_555
H22_19 O17_19 1_555 1_555
H23_19 O17_19 1_555 1_555
O18_11 C27_19 1_555 1_555
O19_19 Th10 1_555 1_555
C27_19 O19_19 1_555 1_555
H24_19 C27_19 1_555 1_555
Th11_7 O18_11 1_555 1_555
O30_7 Th10 1_555 1_555
O31_11 Th10 1_555 1_555
N5_19 C25_19 1_555 1_555
C21_19 C22_19 1_555 1_555
C23_19 C24_19 1_555 1_555
Th11_7 O26 1_555 1_555
Th11_7 O30_7 1_555 1_555
O9_19 C10_19 1_555 1_555
N3_19 H9_19 1_555 1_555
C10_19 C11_19 1_555 1_555
C11_19 C12_19 1_555 1_555
C12_19 H10_19 1_555 1_555
C13_19 C12_19 1_555 1_555
H11_19 C13_19 1_555 1_555
C14_19 N3_19 1_555 1_555
C15_19 C14_19 1_555 1_555
C16_19 C11_19 1_555 1_555
C17_19 N3_19 1_555 1_555
Th12_2 O9_19 1_555 1_555
O27_9 Th12_2 1_555 1_555
O13_19 Th12_2 1_555 1_555
H19_19 O13_19 1_555 1_555
H20_19 O13_19 1_555 1_555
O14_11 C26_19 1_555 1_555
O15_19 Th12_2 1_555 1_555
C26_19 O15_19 1_555 1_555
H21_19 C26_19 1_555 1_555
Th10_15 O14_11 1_555 1_555
O29_7 Th12_2 1_555 1_555
O33_11 Th12_2 1_555 1_555
C13_19 C14_19 1_555 1_555
C15_19 C16_19 1_555 1_555
Th10_15 O28_2 1_555 1_555
Th10_15 O29_7 1_555 1_555
O14_12 C26_20 1_555 1_555
C26_20 O15_20 1_555 1_555
H21_20 C26_20 1_555 1_555
Th10_4 O14_12 1_555 1_555
Th10_4 O28_13 1_555 1_555
Th10_4 O29_8 1_555 1_555
O18_12 C27_20 1_555 1_555
C27_20 O19_20 1_555 1_555
H24_20 C27_20 1_555 1_555
Th11_12 O18_12 1_555 1_555
Th12_3 O30_8 1_555 1_555
Th11_12 O26_14 1_555 1_555
Th11_12 O30_8 1_555 1_555
O9_20 C10_20 1_555 1_555
N3_20 H9_20 1_555 1_555
C10_20 C11_20 1_555 1_555
C11_20 C12_20 1_555 1_555
C12_20 H10_20 1_555 1_555
C13_20 C12_20 1_555 1_555
H11_20 C13_20 1_555 1_555
C14_20 N3_20 1_555 1_555
C15_20 C14_20 1_555 1_555
C16_20 C11_20 1_555 1_555
C17_20 N3_20 1_555 1_555
O22_3 C18_20 1_555 1_555
O11_20 C18_20 1_555 1_555
N5_20 H14_20 1_555 1_555
N6_18 C17_20 1_555 1_555
C18_20 C19_20 1_555 1_555
C19_20 C20_20 1_555 1_555
C20_20 H15_20 1_555 1_555
C21_20 C20_20 1_555 1_555
H16_20 C21_20 1_555 1_555
C22_20 N5_20 1_555 1_555
C23_20 C22_20 1_555 1_555
H17_20 C23_20 1_555 1_555
C24_20 C19_20 1_555 1_555
H18_20 C24_20 1_555 1_555
C25_20 N2_18 1_555 1_555
Th12_13 O9_20 1_555 1_555
O27_6 Th12_13 1_555 1_555
O13_20 Th12_13 1_555 1_555
H19_20 O13_20 1_555 1_555
H20_20 O13_20 1_555 1_555
Th10_14 O11_20 1_555 1_555
O28_3 Th10_14 1_555 1_555
O17_20 Th10_14 1_555 1_555
H22_20 O17_20 1_555 1_555
H23_20 O17_20 1_555 1_555
O31_12 Th10_14 1_555 1_555
O33_12 Th12_13 1_555 1_555
N4_18 C17_20 1_555 1_555
C13_20 C14_20 1_555 1_555
C15_20 C16_20 1_555 1_555
N5_20 C25_20 1_555 1_555
N6_18 C25_20 1_555 1_555
C21_20 C22_20 1_555 1_555
C23_20 C24_20 1_555 1_555
Th11_15 O2_20 1_555 1_555
O20_9 C1_20 1_555 1_555
O2_20 C1_20 1_555 1_555
O26_9 Th11_15 1_555 1_555
O4_12 Th11_15 1_555 1_555
O5_20 Th11_15 1_555 1_555
H1_20 O5_20 1_555 1_555
H2_20 O5_20 1_555 1_555
O6_12 C9_20 1_555 1_555
O7_20 Th11_15 1_555 1_555
N1_20 H3_20 1_555 1_555
C1_20 C2_20 1_555 1_555
C2_20 C3_20 1_555 1_555
C3_20 H4_20 1_555 1_555
C4_20 C3_20 1_555 1_555
H5_20 C4_20 1_555 1_555
C5_20 N1_20 1_555 1_555
C6_20 C5_20 1_555 1_555
H6_20 C6_20 1_555 1_555
C7_20 C2_20 1_555 1_555
H7_20 C7_20 1_555 1_555
C8_20 N1_20 1_555 1_555
C9_20 O7_20 1_555 1_555
H8_20 C9_20 1_555 1_555
Th12_8 O4_12 1_555 1_555
O32_12 Th11_15 1_555 1_555
O4_12 Th10_9 1_555 1_555
O6_12 Th12_8 1_555 1_555
C4_20 C5_20 1_555 1_555
C6_20 C7_20 1_555 1_555
Th12_8 O27_15 1_555 1_555
O31_11 C26_21 1_555 1_555
C26_21 O15_21 1_555 1_555
H21_21 C26_21 1_555 1_555
Th11_14 O2_21 1_555 1_555
O20_12 C1_21 1_555 1_555
O2_21 C1_21 1_555 1_555
O26_12 Th11_14 1_555 1_555
O4_13 Th11_14 1_555 1_555
O5_21 Th11_14 1_555 1_555
H1_21 O5_21 1_555 1_555
H2_21 O5_21 1_555 1_555
O6_13 C9_21 1_555 1_555
O7_21 Th11_14 1_555 1_555
N1_21 H3_21 1_555 1_555
N2_19 C8_21 1_555 1_555
C1_21 C2_21 1_555 1_555
C2_21 C3_21 1_555 1_555
C3_21 H4_21 1_555 1_555
C4_21 C3_21 1_555 1_555
H5_21 C4_21 1_555 1_555
C5_21 N1_21 1_555 1_555
C6_21 C5_21 1_555 1_555
H6_21 C6_21 1_555 1_555
C7_21 C2_21 1_555 1_555
H7_21 C7_21 1_555 1_555
C8_21 N1_21 1_555 1_555
C9_21 O7_21 1_555 1_555
H8_21 C9_21 1_555 1_555
O21_7 C10_21 1_555 1_555
O9_21 C10_21 1_555 1_555
N3_21 H9_21 1_555 1_555
N4_19 C8_21 1_555 1_555
C10_21 C11_21 1_555 1_555
C11_21 C12_21 1_555 1_555
C12_21 H10_21 1_555 1_555
C13_21 C12_21 1_555 1_555
H11_21 C13_21 1_555 1_555
C14_21 N3_21 1_555 1_555
C15_21 C14_21 1_555 1_555
H12_21 C15_21 1_555 1_555
C16_21 C11_21 1_555 1_555
H13_21 C16_21 1_555 1_555
C17_21 N3_21 1_555 1_555
O22_2 C18_21 1_555 1_555
O11_21 C18_21 1_555 1_555
N5_21 H14_21 1_555 1_555
N6_19 C17_21 1_555 1_555
C18_21 C19_21 1_555 1_555
C19_21 C20_21 1_555 1_555
C20_21 H15_21 1_555 1_555
C21_21 C20_21 1_555 1_555
H16_21 C21_21 1_555 1_555
C22_21 N5_21 1_555 1_555
C23_21 C22_21 1_555 1_555
H17_21 C23_21 1_555 1_555
C24_21 C19_21 1_555 1_555
H18_21 C24_21 1_555 1_555
C25_21 N2_19 1_555 1_555
Th12_16 O9_21 1_555 1_555
O27_7 Th12_16 1_555 1_555
O13_21 Th12_16 1_555 1_555
H19_21 O13_21 1_555 1_555
H20_21 O13_21 1_555 1_555
Th10_15 O11_21 1_555 1_555
O17_21 Th10_15 1_555 1_555
H22_21 O17_21 1_555 1_555
H23_21 O17_21 1_555 1_555
O19_21 Th10_15 1_555 1_555
C27_21 O19_21 1_555 1_555
H24_21 C27_21 1_555 1_555
Th12_5 O4_13 1_555 1_555
O32_13 Th11_14 1_555 1_555
O33_13 Th12_16 1_555 1_555
O4_13 Th10_12 1_555 1_555
O6_13 Th12_5 1_555 1_555
C4_21 C5_21 1_555 1_555
C6_21 C7_21 1_555 1_555
N4_19 C17_21 1_555 1_555
C13_21 C14_21 1_555 1_555
C15_21 C16_21 1_555 1_555
N5_21 C25_21 1_555 1_555
N6_19 C25_21 1_555 1_555
C21_21 C22_21 1_555 1_555
C23_21 C24_21 1_555 1_555
Th12_5 O27_14 1_555 1_555
Th11_9 O18_13 1_555 1_555
Th11_9 O26_15 1_555 1_555
Th11 O2_22 1_555 1_555
O20_7 C1_22 1_555 1_555
O2_22 C1_22 1_555 1_555
O26_7 Th11 1_555 1_555
O4_14 Th11 1_555 1_555
O5_22 Th11 1_555 1_555
H1_22 O5_22 1_555 1_555
H2_22 O5_22 1_555 1_555
O6_14 C9_22 1_555 1_555
O7_22 Th11 1_555 1_555
N1_22 H3_22 1_555 1_555
N2_20 C8_22 1_555 1_555
C1_22 C2_22 1_555 1_555
C2_22 C3_22 1_555 1_555
C3_22 H4_22 1_555 1_555
C4_22 C3_22 1_555 1_555
H5_22 C4_22 1_555 1_555
C5_22 N1_22 1_555 1_555
C6_22 C5_22 1_555 1_555
H6_22 C6_22 1_555 1_555
C7_22 C2_22 1_555 1_555
H7_22 C7_22 1_555 1_555
C8_22 N1_22 1_555 1_555
C9_22 O7_22 1_555 1_555
H8_22 C9_22 1_555 1_555
N4_20 C8_22 1_555 1_555
O11_22 C18_22 1_555 1_555
N5_22 H14_22 1_555 1_555
C18_22 C19_22 1_555 1_555
C19_22 C20_22 1_555 1_555
C20_22 H15_22 1_555 1_555
C21_22 C20_22 1_555 1_555
H16_22 C21_22 1_555 1_555
C22_22 N5_22 1_555 1_555
C23_22 C22_22 1_555 1_555
C24_22 C19_22 1_555 1_555
C25_22 N2_20 1_555 1_555
Th10_4 O11_22 1_555 1_555
O17_22 Th10_4 1_555 1_555
H22_22 O17_22 1_555 1_555
H23_22 O17_22 1_555 1_555
O19_22 Th10_4 1_555 1_555
C27_22 O19_22 1_555 1_555
H24_22 C27_22 1_555 1_555
Th12_10 O4_14 1_555 1_555
O32_14 Th11 1_555 1_555
O4_14 Th10_7 1_555 1_555
O6_14 Th12_10 1_555 1_555
C4_22 C5_22 1_555 1_555
C6_22 C7_22 1_555 1_555
N5_22 C25_22 1_555 1_555
N6_20 C25_22 1_555 1_555
C21_22 C22_22 1_555 1_555
C23_22 C24_22 1_555 1_555
Th12_10 O27 1_555 1_555
Th11_6 O18_14 1_555 1_555
Th11_6 O26_4 1_555 1_555
O21_12 C10_22 1_555 1_555
O9_22 C10_22 1_555 1_555
N3_22 H9_22 1_555 1_555
C10_22 C11_22 1_555 1_555
C11_22 C12_22 1_555 1_555
C12_22 H10_22 1_555 1_555
C13_22 C12_22 1_555 1_555
H11_22 C13_22 1_555 1_555
C14_22 N3_22 1_555 1_555
C15_22 C14_22 1_555 1_555
H12_22 C15_22 1_555 1_555
C16_22 C11_22 1_555 1_555
H13_22 C16_22 1_555 1_555
C17_22 N3_22 1_555 1_555
Th12_3 O9_22 1_555 1_555
O27_12 Th12_3 1_555 1_555
O13_22 Th12_3 1_555 1_555
H19_22 O13_22 1_555 1_555
H20_22 O13_22 1_555 1_555
O15_22 Th12_3 1_555 1_555
C26_22 O15_22 1_555 1_555
H21_22 C26_22 1_555 1_555
O33_14 Th12_3 1_555 1_555
C13_22 C14_22 1_555 1_555
C15_22 C16_22 1_555 1_555
Th11_8 O2_23 1_555 1_555
O20_2 C1_23 1_555 1_555
O2_23 C1_23 1_555 1_555
O26_2 Th11_8 1_555 1_555
O4_15 Th11_8 1_555 1_555
O5_23 Th11_8 1_555 1_555
H1_23 O5_23 1_555 1_555
H2_23 O5_23 1_555 1_555
O6_15 C9_23 1_555 1_555
O7_23 Th11_8 1_555 1_555
N1_23 H3_23 1_555 1_555
N2_21 C8_23 1_555 1_555
C1_23 C2_23 1_555 1_555
C2_23 C3_23 1_555 1_555
C3_23 H4_23 1_555 1_555
C4_23 C3_23 1_555 1_555
H5_23 C4_23 1_555 1_555
C5_23 N1_23 1_555 1_555
C6_23 C5_23 1_555 1_555
H6_23 C6_23 1_555 1_555
C7_23 C2_23 1_555 1_555
H7_23 C7_23 1_555 1_555
C8_23 N1_23 1_555 1_555
C9_23 O7_23 1_555 1_555
H8_23 C9_23 1_555 1_555
N4_21 C8_23 1_555 1_555
O11_23 C18_23 1_555 1_555
N5_23 H14_23 1_555 1_555
C18_23 C19_23 1_555 1_555
C19_23 C20_23 1_555 1_555
C20_23 H15_23 1_555 1_555
C21_23 C20_23 1_555 1_555
H16_23 C21_23 1_555 1_555
C22_23 N5_23 1_555 1_555
C23_23 C22_23 1_555 1_555
C24_23 C19_23 1_555 1_555
C25_23 N2_21 1_555 1_555
Th10_5 O11_23 1_555 1_555
O17_23 Th10_5 1_555 1_555
H22_23 O17_23 1_555 1_555
H23_23 O17_23 1_555 1_555
O18_15 C27_23 1_555 1_555
O19_23 Th10_5 1_555 1_555
C27_23 O19_23 1_555 1_555
H24_23 C27_23 1_555 1_555
Th11_3 O18_15 1_555 1_555
Th12_15 O4_15 1_555 1_555
O32_15 Th11_8 1_555 1_555
O4_15 Th10_2 1_555 1_555
O6_15 Th12_15 1_555 1_555
C4_23 C5_23 1_555 1_555
C6_23 C7_23 1_555 1_555
N5_23 C25_23 1_555 1_555
N6_21 C25_23 1_555 1_555
C21_23 C22_23 1_555 1_555
C23_23 C24_23 1_555 1_555
Th11_3 O26_5 1_555 1_555
Th12_15 O27_8 1_555 1_555
O21_13 C10_23 1_555 1_555
O9_23 C10_23 1_555 1_555
N3_23 H9_23 1_555 1_555
C10_23 C11_23 1_555 1_555
C11_23 C12_23 1_555 1_555
C12_23 H10_23 1_555 1_555
C13_23 C12_23 1_555 1_555
H11_23 C13_23 1_555 1_555
C14_23 N3_23 1_555 1_555
C15_23 C14_23 1_555 1_555
H12_23 C15_23 1_555 1_555
C16_23 C11_23 1_555 1_555
H13_23 C16_23 1_555 1_555
C17_23 N3_23 1_555 1_555
Th12_6 O9_23 1_555 1_555
O27_13 Th12_6 1_555 1_555
O13_23 Th12_6 1_555 1_555
H19_23 O13_23 1_555 1_555
H20_23 O13_23 1_555 1_555
O31_9 C26_23 1_555 1_555
O15_23 Th12_6 1_555 1_555
C26_23 O15_23 1_555 1_555
H21_23 C26_23 1_555 1_555
O33_15 Th12_6 1_555 1_555
C13_23 C14_23 1_555 1_555
C15_23 C16_23 1_555 1_555
C26_24 O15_24 1_555 1_555
H21_24 C26_24 1_555 1_555
Th11_11 O2_24 1_555 1_555
O20_13 C1_24 1_555 1_555
O2_24 C1_24 1_555 1_555
O26_13 Th11_11 1_555 1_555
O4_16 Th11_11 1_555 1_555
O5_24 Th11_11 1_555 1_555
H1_24 O5_24 1_555 1_555
H2_24 O5_24 1_555 1_555
O6_16 C9_24 1_555 1_555
O7_24 Th11_11 1_555 1_555
N1_24 H3_24 1_555 1_555
N2_22 C8_24 1_555 1_555
C1_24 C2_24 1_555 1_555
C2_24 C3_24 1_555 1_555
C3_24 H4_24 1_555 1_555
C4_24 C3_24 1_555 1_555
H5_24 C4_24 1_555 1_555
C5_24 N1_24 1_555 1_555
C6_24 C5_24 1_555 1_555
H6_24 C6_24 1_555 1_555
C7_24 C2_24 1_555 1_555
H7_24 C7_24 1_555 1_555
C8_24 N1_24 1_555 1_555
C9_24 O7_24 1_555 1_555
H8_24 C9_24 1_555 1_555
O21_2 C10_24 1_555 1_555
O9_24 C10_24 1_555 1_555
N3_24 H9_24 1_555 1_555
N4_22 C8_24 1_555 1_555
C10_24 C11_24 1_555 1_555
C11_24 C12_24 1_555 1_555
C12_24 H10_24 1_555 1_555
C13_24 C12_24 1_555 1_555
H11_24 C13_24 1_555 1_555
C14_24 N3_24 1_555 1_555
C15_24 C14_24 1_555 1_555
H12_24 C15_24 1_555 1_555
C16_24 C11_24 1_555 1_555
H13_24 C16_24 1_555 1_555
C17_24 N3_24 1_555 1_555
O22_7 C18_24 1_555 1_555
O11_24 C18_24 1_555 1_555
N5_24 H14_24 1_555 1_555
N6_22 C17_24 1_555 1_555
C18_24 C19_24 1_555 1_555
C19_24 C20_24 1_555 1_555
C20_24 H15_24 1_555 1_555
C21_24 C20_24 1_555 1_555
H16_24 C21_24 1_555 1_555
C22_24 N5_24 1_555 1_555
C23_24 C22_24 1_555 1_555
H17_24 C23_24 1_555 1_555
C24_24 C19_24 1_555 1_555
H18_24 C24_24 1_555 1_555
C25_24 N2_22 1_555 1_555
Th12_9 O9_24 1_555 1_555
O27_2 Th12_9 1_555 1_555
O13_24 Th12_9 1_555 1_555
H19_24 O13_24 1_555 1_555
H20_24 O13_24 1_555 1_555
Th10_10 O11_24 1_555 1_555
O17_24 Th10_10 1_555 1_555
H22_24 O17_24 1_555 1_555
H23_24 O17_24 1_555 1_555
O18_16 C27_24 1_555 1_555
O19_24 Th10_10 1_555 1_555
C27_24 O19_24 1_555 1_555
H24_24 C27_24 1_555 1_555
Th11_16 O18_16 1_555 1_555
Th12_4 O4_16 1_555 1_555
O32_16 Th11_11 1_555 1_555
O33_16 Th12_9 1_555 1_555
O4_16 Th10_13 1_555 1_555
O6_16 Th12_4 1_555 1_555
C4_24 C5_24 1_555 1_555
C6_24 C7_24 1_555 1_555
N4_22 C17_24 1_555 1_555
C13_24 C14_24 1_555 1_555
C15_24 C16_24 1_555 1_555
N5_24 C25_24 1_555 1_555
N6_22 C25_24 1_555 1_555
C21_24 C22_24 1_555 1_555
C23_24 C24_24 1_555 1_555
Th11_16 O26_10 1_555 1_555
Th12_4 O27_11 1_555 1_555
Th11_2 O2_25 1_555 1_555
O2_25 C1_25 1_555 1_555
O5_25 Th11_2 1_555 1_555
H1_25 O5_25 1_555 1_555
H2_25 O5_25 1_555 1_555
O7_25 Th11_2 1_555 1_555
N1_25 H3_25 1_555 1_555
N2_23 C8_25 1_555 1_555
C1_25 C2_25 1_555 1_555
C2_25 C3_25 1_555 1_555
C3_25 H4_25 1_555 1_555
C4_25 C3_25 1_555 1_555
H5_25 C4_25 1_555 1_555
C5_25 N1_25 1_555 1_555
C6_25 C5_25 1_555 1_555
C7_25 C2_25 1_555 1_555
C8_25 N1_25 1_555 1_555
C9_25 O7_25 1_555 1_555
H8_25 C9_25 1_555 1_555
O21_11 C10_25 1_555 1_555
O9_25 C10_25 1_555 1_555
N3_25 H9_25 1_555 1_555
N4_23 C8_25 1_555 1_555
C10_25 C11_25 1_555 1_555
C11_25 C12_25 1_555 1_555
C12_25 H10_25 1_555 1_555
C13_25 C12_25 1_555 1_555
H11_25 C13_25 1_555 1_555
C14_25 N3_25 1_555 1_555
C15_25 C14_25 1_555 1_555
H12_25 C15_25 1_555 1_555
C16_25 C11_25 1_555 1_555
H13_25 C16_25 1_555 1_555
C17_25 N3_25 1_555 1_555
N6_23 C17_25 1_555 1_555
Th12_4 O9_25 1_555 1_555
O13_25 Th12_4 1_555 1_555
H19_25 O13_25 1_555 1_555
H20_25 O13_25 1_555 1_555
O14_13 C26_25 1_555 1_555
O15_25 Th12_4 1_555 1_555
C26_25 O15_25 1_555 1_555
H21_25 C26_25 1_555 1_555
Th10_13 O14_13 1_555 1_555
C4_25 C5_25 1_555 1_555
C6_25 C7_25 1_555 1_555
N4_23 C17_25 1_555 1_555
C13_25 C14_25 1_555 1_555
C15_25 C16_25 1_555 1_555
Th10_13 O28_4 1_555 1_555
O22_14 C18_25 1_555 1_555
O11_25 C18_25 1_555 1_555
N5_25 H14_25 1_555 1_555
C18_25 C19_25 1_555 1_555
C19_25 C20_25 1_555 1_555
C20_25 H15_25 1_555 1_555
C21_25 C20_25 1_555 1_555
H16_25 C21_25 1_555 1_555
C22_25 N5_25 1_555 1_555
C23_25 C22_25 1_555 1_555
H17_25 C23_25 1_555 1_555
C24_25 C19_25 1_555 1_555
H18_25 C24_25 1_555 1_555
Th10_3 O11_25 1_555 1_555
O28_14 Th10_3 1_555 1_555
O17_25 Th10_3 1_555 1_555
H22_25 O17_25 1_555 1_555
H23_25 O17_25 1_555 1_555
O19_25 Th10_3 1_555 1_555
C27_25 O19_25 1_555 1_555
H24_25 C27_25 1_555 1_555
O31_13 Th10_3 1_555 1_555
N5_25 C25_25 1_555 1_555
C21_25 C22_25 1_555 1_555
C23_25 C24_25 1_555 1_555
C27_26 O19_26 1_555 1_555
H24_26 C27_26 1_555 1_555
Th11_13 O2_26 1_555 1_555
O20_11 C1_26 1_555 1_555
O2_26 C1_26 1_555 1_555
O5_26 Th11_13 1_555 1_555
H1_26 O5_26 1_555 1_555
H2_26 O5_26 1_555 1_555
O33_15 C9_26 1_555 1_555
O7_26 Th11_13 1_555 1_555
N1_26 H3_26 1_555 1_555
N2_24 C8_26 1_555 1_555
C1_26 C2_26 1_555 1_555
C2_26 C3_26 1_555 1_555
C3_26 H4_26 1_555 1_555
C4_26 C3_26 1_555 1_555
H5_26 C4_26 1_555 1_555
C5_26 N1_26 1_555 1_555
C6_26 C5_26 1_555 1_555
H6_26 C6_26 1_555 1_555
C7_26 C2_26 1_555 1_555
H7_26 C7_26 1_555 1_555
C8_26 N1_26 1_555 1_555
C9_26 O7_26 1_555 1_555
H8_26 C9_26 1_555 1_555
O21_8 C10_26 1_555 1_555
O9_26 C10_26 1_555 1_555
N3_26 H9_26 1_555 1_555
N4_24 C8_26 1_555 1_555
C10_26 C11_26 1_555 1_555
C11_26 C12_26 1_555 1_555
C12_26 H10_26 1_555 1_555
C13_26 C12_26 1_555 1_555
H11_26 C13_26 1_555 1_555
C14_26 N3_26 1_555 1_555
C15_26 C14_26 1_555 1_555
H12_26 C15_26 1_555 1_555
C16_26 C11_26 1_555 1_555
H13_26 C16_26 1_555 1_555
C17_26 N3_26 1_555 1_555
O22 C18_26 1_555 1_555
O11_26 C18_26 1_555 1_555
N5_26 H14_26 1_555 1_555
N6_24 C17_26 1_555 1_555
C18_26 C19_26 1_555 1_555
C19_26 C20_26 1_555 1_555
C20_26 H15_26 1_555 1_555
C21_26 C20_26 1_555 1_555
H16_26 C21_26 1_555 1_555
C22_26 N5_26 1_555 1_555
C23_26 C22_26 1_555 1_555
H17_26 C23_26 1_555 1_555
C24_26 C19_26 1_555 1_555
H18_26 C24_26 1_555 1_555
C25_26 N2_24 1_555 1_555
Th12_15 O9_26 1_555 1_555
O13_26 Th12_15 1_555 1_555
H19_26 O13_26 1_555 1_555
H20_26 O13_26 1_555 1_555
O14_14 C26_26 1_555 1_555
O15_26 Th12_15 1_555 1_555
C26_26 O15_26 1_555 1_555
H21_26 C26_26 1_555 1_555
Th10_16 O11_26 1_555 1_555
O28 Th10_16 1_555 1_555
O17_26 Th10_16 1_555 1_555
H22_26 O17_26 1_555 1_555
H23_26 O17_26 1_555 1_555
Th10_2 O14_14 1_555 1_555
O31_14 Th10_16 1_555 1_555
C4_26 C5_26 1_555 1_555
C6_26 C7_26 1_555 1_555
N4_24 C17_26 1_555 1_555
C13_26 C14_26 1_555 1_555
C15_26 C16_26 1_555 1_555
N5_26 C25_26 1_555 1_555
N6_24 C25_26 1_555 1_555
C21_26 C22_26 1_555 1_555
C23_26 C24_26 1_555 1_555
Th10_2 O28_15 1_555 1_555
Th11_12 O2_27 1_555 1_555
O2_27 C1_27 1_555 1_555
O5_27 Th11_12 1_555 1_555
H1_27 O5_27 1_555 1_555
H2_27 O5_27 1_555 1_555
O33_14 C9_27 1_555 1_555
O7_27 Th11_12 1_555 1_555
N1_27 H3_27 1_555 1_555
N2_25 C8_27 1_555 1_555
C1_27 C2_27 1_555 1_555
C2_27 C3_27 1_555 1_555
C3_27 H4_27 1_555 1_555
C4_27 C3_27 1_555 1_555
H5_27 C4_27 1_555 1_555
C5_27 N1_27 1_555 1_555
C6_27 C5_27 1_555 1_555
C7_27 C2_27 1_555 1_555
C8_27 N1_27 1_555 1_555
C9_27 O7_27 1_555 1_555
H8_27 C9_27 1_555 1_555
O21 C10_27 1_555 1_555
O9_27 C10_27 1_555 1_555
N3_27 H9_27 1_555 1_555
N4_25 C8_27 1_555 1_555
C10_27 C11_27 1_555 1_555
C11_27 C12_27 1_555 1_555
C12_27 H10_27 1_555 1_555
C13_27 C12_27 1_555 1_555
H11_27 C13_27 1_555 1_555
C14_27 N3_27 1_555 1_555
C15_27 C14_27 1_555 1_555
H12_27 C15_27 1_555 1_555
C16_27 C11_27 1_555 1_555
H13_27 C16_27 1_555 1_555
C17_27 N3_27 1_555 1_555
N6_25 C17_27 1_555 1_555
Th12_10 O9_27 1_555 1_555
O13_27 Th12_10 1_555 1_555
H19_27 O13_27 1_555 1_555
H20_27 O13_27 1_555 1_555
O14_15 C26_27 1_555 1_555
O15_27 Th12_10 1_555 1_555
C26_27 O15_27 1_555 1_555
H21_27 C26_27 1_555 1_555
Th10_7 O14_15 1_555 1_555
C4_27 C5_27 1_555 1_555
C6_27 C7_27 1_555 1_555
N4_25 C17_27 1_555 1_555
C13_27 C14_27 1_555 1_555
C15_27 C16_27 1_555 1_555
Th10_7 O28_10 1_555 1_555
O22_8 C18_27 1_555 1_555
O11_27 C18_27 1_555 1_555
N5_27 H14_27 1_555 1_555
C18_27 C19_27 1_555 1_555
C19_27 C20_27 1_555 1_555
C20_27 H15_27 1_555 1_555
C21_27 C20_27 1_555 1_555
H16_27 C21_27 1_555 1_555
C22_27 N5_27 1_555 1_555
C23_27 C22_27 1_555 1_555
H17_27 C23_27 1_555 1_555
C24_27 C19_27 1_555 1_555
H18_27 C24_27 1_555 1_555
Th10_9 O11_27 1_555 1_555
O28_8 Th10_9 1_555 1_555
O17_27 Th10_9 1_555 1_555
H22_27 O17_27 1_555 1_555
H23_27 O17_27 1_555 1_555
O32_12 C27_27 1_555 1_555
O19_27 Th10_9 1_555 1_555
C27_27 O19_27 1_555 1_555
H24_27 C27_27 1_555 1_555
O31_15 Th10_9 1_555 1_555
N5_27 C25_27 1_555 1_555
C21_27 C22_27 1_555 1_555
C23_27 C24_27 1_555 1_555
O32_11 C27_28 1_555 1_555
C27_28 O19_28 1_555 1_555
H24_28 C27_28 1_555 1_555
Th11_7 O2_28 1_555 1_555
O20 C1_28 1_555 1_555
O2_28 C1_28 1_555 1_555
O5_28 Th11_7 1_555 1_555
H1_28 O5_28 1_555 1_555
H2_28 O5_28 1_555 1_555
O7_28 Th11_7 1_555 1_555
N1_28 H3_28 1_555 1_555
N2_26 C8_28 1_555 1_555
C1_28 C2_28 1_555 1_555
C2_28 C3_28 1_555 1_555
C3_28 H4_28 1_555 1_555
C4_28 C3_28 1_555 1_555
H5_28 C4_28 1_555 1_555
C5_28 N1_28 1_555 1_555
C6_28 C5_28 1_555 1_555
H6_28 C6_28 1_555 1_555
C7_28 C2_28 1_555 1_555
H7_28 C7_28 1_555 1_555
C8_28 N1_28 1_555 1_555
C9_28 O7_28 1_555 1_555
H8_28 C9_28 1_555 1_555
O21_14 C10_28 1_555 1_555
O9_28 C10_28 1_555 1_555
N3_28 H9_28 1_555 1_555
N4_26 C8_28 1_555 1_555
C10_28 C11_28 1_555 1_555
C11_28 C12_28 1_555 1_555
C12_28 H10_28 1_555 1_555
C13_28 C12_28 1_555 1_555
H11_28 C13_28 1_555 1_555
C14_28 N3_28 1_555 1_555
C15_28 C14_28 1_555 1_555
H12_28 C15_28 1_555 1_555
C16_28 C11_28 1_555 1_555
H13_28 C16_28 1_555 1_555
C17_28 N3_28 1_555 1_555
O22_11 C18_28 1_555 1_555
O11_28 C18_28 1_555 1_555
N5_28 H14_28 1_555 1_555
N6_26 C17_28 1_555 1_555
C18_28 C19_28 1_555 1_555
C19_28 C20_28 1_555 1_555
C20_28 H15_28 1_555 1_555
C21_28 C20_28 1_555 1_555
H16_28 C21_28 1_555 1_555
C22_28 N5_28 1_555 1_555
C23_28 C22_28 1_555 1_555
H17_28 C23_28 1_555 1_555
C24_28 C19_28 1_555 1_555
H18_28 C24_28 1_555 1_555
C25_28 N2_26 1_555 1_555
Th12_5 O9_28 1_555 1_555
O13_28 Th12_5 1_555 1_555
H19_28 O13_28 1_555 1_555
H20_28 O13_28 1_555 1_555
O14_16 C26_28 1_555 1_555
O15_28 Th12_5 1_555 1_555
C26_28 O15_28 1_555 1_555
H21_28 C26_28 1_555 1_555
Th10_6 O11_28 1_555 1_555
O28_11 Th10_6 1_555 1_555
O17_28 Th10_6 1_555 1_555
H22_28 O17_28 1_555 1_555
H23_28 O17_28 1_555 1_555
Th10_12 O14_16 1_555 1_555
O31_16 Th10_6 1_555 1_555
C4_28 C5_28 1_555 1_555
C6_28 C7_28 1_555 1_555
N4_26 C17_28 1_555 1_555
C13_28 C14_28 1_555 1_555
C15_28 C16_28 1_555 1_555
N5_28 C25_28 1_555 1_555
N6_26 C25_28 1_555 1_555
C21_28 C22_28 1_555 1_555
C23_28 C24_28 1_555 1_555
Th10_12 O28_5 1_555 1_555
C9_29 O7_29 1_555 1_555
H8_29 C9_29 1_555 1_555
Th11_6 O2_29 1_555 1_555
O20_4 C1_29 1_555 1_555
O2_29 C1_29 1_555 1_555
O5_29 Th11_6 1_555 1_555
H1_29 O5_29 1_555 1_555
H2_29 O5_29 1_555 1_555
N1_29 H3_29 1_555 1_555
N2_27 C8_29 1_555 1_555
C1_29 C2_29 1_555 1_555
C2_29 C3_29 1_555 1_555
C3_29 H4_29 1_555 1_555
C4_29 C3_29 1_555 1_555
H5_29 C4_29 1_555 1_555
C5_29 N1_29 1_555 1_555
C6_29 C5_29 1_555 1_555
H6_29 C6_29 1_555 1_555
C7_29 C2_29 1_555 1_555
H7_29 C7_29 1_555 1_555
C8_29 N1_29 1_555 1_555
O21_15 C10_29 1_555 1_555
O9_29 C10_29 1_555 1_555
N3_29 H9_29 1_555 1_555
N4_27 C8_29 1_555 1_555
C10_29 C11_29 1_555 1_555
C11_29 C12_29 1_555 1_555
C12_29 H10_29 1_555 1_555
C13_29 C12_29 1_555 1_555
H11_29 C13_29 1_555 1_555
C14_29 N3_29 1_555 1_555
C15_29 C14_29 1_555 1_555
H12_29 C15_29 1_555 1_555
C16_29 C11_29 1_555 1_555
H13_29 C16_29 1_555 1_555
C17_29 N3_29 1_555 1_555
O22_10 C18_29 1_555 1_555
O11_29 C18_29 1_555 1_555
N5_29 H14_29 1_555 1_555
N6_27 C17_29 1_555 1_555
C18_29 C19_29 1_555 1_555
C19_29 C20_29 1_555 1_555
C20_29 H15_29 1_555 1_555
C21_29 C20_29 1_555 1_555
H16_29 C21_29 1_555 1_555
C22_29 N5_29 1_555 1_555
C23_29 C22_29 1_555 1_555
H17_29 C23_29 1_555 1_555
C24_29 C19_29 1_555 1_555
H18_29 C24_29 1_555 1_555
C25_29 N2_27 1_555 1_555
Th12_8 O9_29 1_555 1_555
O13_29 Th12_8 1_555 1_555
H19_29 O13_29 1_555 1_555
H20_29 O13_29 1_555 1_555
O31_15 C26_29 1_555 1_555
O15_29 Th12_8 1_555 1_555
C26_29 O15_29 1_555 1_555
H21_29 C26_29 1_555 1_555
Th10_7 O11_29 1_555 1_555
O17_29 Th10_7 1_555 1_555
H22_29 O17_29 1_555 1_555
H23_29 O17_29 1_555 1_555
O32_14 C27_29 1_555 1_555
O19_29 Th10_7 1_555 1_555
C27_29 O19_29 1_555 1_555
H24_29 C27_29 1_555 1_555
C4_29 C5_29 1_555 1_555
C6_29 C7_29 1_555 1_555
N4_27 C17_29 1_555 1_555
C13_29 C14_29 1_555 1_555
C15_29 C16_29 1_555 1_555
N5_29 C25_29 1_555 1_555
N6_27 C25_29 1_555 1_555
C21_29 C22_29 1_555 1_555
C23_29 C24_29 1_555 1_555
O33_11 C9_30 1_555 1_555
C9_30 O7_30 1_555 1_555
H8_30 C9_30 1_555 1_555
Th11_9 O2_30 1_555 1_555
O20_15 C1_30 1_555 1_555
O2_30 C1_30 1_555 1_555
O5_30 Th11_9 1_555 1_555
H1_30 O5_30 1_555 1_555
H2_30 O5_30 1_555 1_555
N1_30 H3_30 1_555 1_555
N2_28 C8_30 1_555 1_555
C1_30 C2_30 1_555 1_555
C2_30 C3_30 1_555 1_555
C3_30 H4_30 1_555 1_555
C4_30 C3_30 1_555 1_555
H5_30 C4_30 1_555 1_555
C5_30 N1_30 1_555 1_555
C6_30 C5_30 1_555 1_555
H6_30 C6_30 1_555 1_555
C7_30 C2_30 1_555 1_555
H7_30 C7_30 1_555 1_555
C8_30 N1_30 1_555 1_555
O21_4 C10_30 1_555 1_555
O9_30 C10_30 1_555 1_555
N3_30 H9_30 1_555 1_555
N4_28 C8_30 1_555 1_555
C10_30 C11_30 1_555 1_555
C11_30 C12_30 1_555 1_555
C12_30 H10_30 1_555 1_555
C13_30 C12_30 1_555 1_555
H11_30 C13_30 1_555 1_555
C14_30 N3_30 1_555 1_555
C15_30 C14_30 1_555 1_555
H12_30 C15_30 1_555 1_555
C16_30 C11_30 1_555 1_555
H13_30 C16_30 1_555 1_555
C17_30 N3_30 1_555 1_555
O22_5 C18_30 1_555 1_555
O11_30 C18_30 1_555 1_555
N5_30 H14_30 1_555 1_555
N6_28 C17_30 1_555 1_555
C18_30 C19_30 1_555 1_555
C19_30 C20_30 1_555 1_555
C20_30 H15_30 1_555 1_555
C21_30 C20_30 1_555 1_555
H16_30 C21_30 1_555 1_555
C22_30 N5_30 1_555 1_555
C23_30 C22_30 1_555 1_555
H17_30 C23_30 1_555 1_555
C24_30 C19_30 1_555 1_555
H18_30 C24_30 1_555 1_555
C25_30 N2_28 1_555 1_555
Th12_11 O9_30 1_555 1_555
O13_30 Th12_11 1_555 1_555
H19_30 O13_30 1_555 1_555
H20_30 O13_30 1_555 1_555
O15_30 Th12_11 1_555 1_555
C26_30 O15_30 1_555 1_555
H21_30 C26_30 1_555 1_555
Th10_12 O11_30 1_555 1_555
O17_30 Th10_12 1_555 1_555
H22_30 O17_30 1_555 1_555
H23_30 O17_30 1_555 1_555
O32_13 C27_30 1_555 1_555
O19_30 Th10_12 1_555 1_555
C27_30 O19_30 1_555 1_555
H24_30 C27_30 1_555 1_555
C4_30 C5_30 1_555 1_555
C6_30 C7_30 1_555 1_555
N4_28 C17_30 1_555 1_555
C13_30 C14_30 1_555 1_555
C15_30 C16_30 1_555 1_555
N5_30 C25_30 1_555 1_555
N6_28 C25_30 1_555 1_555
C21_30 C22_30 1_555 1_555
C23_30 C24_30 1_555 1_555
O9_31 C10_31 1_555 1_555
N3_31 H9_31 1_555 1_555
C10_31 C11_31 1_555 1_555
C11_31 C12_31 1_555 1_555
C12_31 H10_31 1_555 1_555
C13_31 C12_31 1_555 1_555
H11_31 C13_31 1_555 1_555
C14_31 N3_31 1_555 1_555
C15_31 C14_31 1_555 1_555
C16_31 C11_31 1_555 1_555
C17_31 N3_31 1_555 1_555
O22_4 C18_31 1_555 1_555
O11_31 C18_31 1_555 1_555
N5_31 H14_31 1_555 1_555
N6_29 C17_31 1_555 1_555
C18_31 C19_31 1_555 1_555
C19_31 C20_31 1_555 1_555
C20_31 H15_31 1_555 1_555
C21_31 C20_31 1_555 1_555
H16_31 C21_31 1_555 1_555
C22_31 N5_31 1_555 1_555
C23_31 C22_31 1_555 1_555
H17_31 C23_31 1_555 1_555
C24_31 C19_31 1_555 1_555
H18_31 C24_31 1_555 1_555
C25_31 N2_29 1_555 1_555
Th12_14 O9_31 1_555 1_555
O13_31 Th12_14 1_555 1_555
H19_31 O13_31 1_555 1_555
H20_31 O13_31 1_555 1_555
O31_13 C26_31 1_555 1_555
O15_31 Th12_14 1_555 1_555
C26_31 O15_31 1_555 1_555
H21_31 C26_31 1_555 1_555
Th10_13 O11_31 1_555 1_555
O17_31 Th10_13 1_555 1_555
H22_31 O17_31 1_555 1_555
H23_31 O17_31 1_555 1_555
O32_16 C27_31 1_555 1_555
O19_31 Th10_13 1_555 1_555
C27_31 O19_31 1_555 1_555
H24_31 C27_31 1_555 1_555
N4_29 C17_31 1_555 1_555
C13_31 C14_31 1_555 1_555
C15_31 C16_31 1_555 1_555
N5_31 C25_31 1_555 1_555
N6_29 C25_31 1_555 1_555
C21_31 C22_31 1_555 1_555
C23_31 C24_31 1_555 1_555
Th11_16 O2_31 1_555 1_555
O20_10 C1_31 1_555 1_555
O2_31 C1_31 1_555 1_555
O5_31 Th11_16 1_555 1_555
H1_31 O5_31 1_555 1_555
H2_31 O5_31 1_555 1_555
O33_10 C9_31 1_555 1_555
O7_31 Th11_16 1_555 1_555
N1_31 H3_31 1_555 1_555
C1_31 C2_31 1_555 1_555
C2_31 C3_31 1_555 1_555
C3_31 H4_31 1_555 1_555
C4_31 C3_31 1_555 1_555
H5_31 C4_31 1_555 1_555
C5_31 N1_31 1_555 1_555
C6_31 C5_31 1_555 1_555
H6_31 C6_31 1_555 1_555
C7_31 C2_31 1_555 1_555
H7_31 C7_31 1_555 1_555
C8_31 N1_31 1_555 1_555
C9_31 O7_31 1_555 1_555
H8_31 C9_31 1_555 1_555
C4_31 C5_31 1_555 1_555
C6_31 C7_31 1_555 1_555
O9_32 C10_32 1_555 1_555
N3_32 H9_32 1_555 1_555
C10_32 C11_32 1_555 1_555
C11_32 C12_32 1_555 1_555
C12_32 H10_32 1_555 1_555
C13_32 C12_32 1_555 1_555
H11_32 C13_32 1_555 1_555
C14_32 N3_32 1_555 1_555
C15_32 C14_32 1_555 1_555
C16_32 C11_32 1_555 1_555
C17_32 N3_32 1_555 1_555
O22_15 C18_32 1_555 1_555
O11_32 C18_32 1_555 1_555
N5_32 H14_32 1_555 1_555
N6_30 C17_32 1_555 1_555
C18_32 C19_32 1_555 1_555
C19_32 C20_32 1_555 1_555
C20_32 H15_32 1_555 1_555
C21_32 C20_32 1_555 1_555
H16_32 C21_32 1_555 1_555
C22_32 N5_32 1_555 1_555
C23_32 C22_32 1_555 1_555
H17_32 C23_32 1_555 1_555
C24_32 C19_32 1_555 1_555
H18_32 C24_32 1_555 1_555
C25_32 N2_30 1_555 1_555
Th12 O9_32 1_555 1_555
O13_32 Th12 1_555 1_555
H19_32 O13_32 1_555 1_555
H20_32 O13_32 1_555 1_555
O15_32 Th12 1_555 1_555
C26_32 O15_32 1_555 1_555
H21_32 C26_32 1_555 1_555
Th10_2 O11_32 1_555 1_555
O17_32 Th10_2 1_555 1_555
H22_32 O17_32 1_555 1_555
H23_32 O17_32 1_555 1_555
O32_15 C27_32 1_555 1_555
O19_32 Th10_2 1_555 1_555
C27_32 O19_32 1_555 1_555
H24_32 C27_32 1_555 1_555
N4_30 C17_32 1_555 1_555
C13_32 C14_32 1_555 1_555
C15_32 C16_32 1_555 1_555
N5_32 C25_32 1_555 1_555
N6_30 C25_32 1_555 1_555
C21_32 C22_32 1_555 1_555
C23_32 C24_32 1_555 1_555
Th11_3 O2_32 1_555 1_555
O20_5 C1_32 1_555 1_555
O2_32 C1_32 1_555 1_555
O5_32 Th11_3 1_555 1_555
H1_32 O5_32 1_555 1_555
H2_32 O5_32 1_555 1_555
O7_32 Th11_3 1_555 1_555
N1_32 H3_32 1_555 1_555
C1_32 C2_32 1_555 1_555
C2_32 C3_32 1_555 1_555
C3_32 H4_32 1_555 1_555
C4_32 C3_32 1_555 1_555
H5_32 C4_32 1_555 1_555
C5_32 N1_32 1_555 1_555
C6_32 C5_32 1_555 1_555
H6_32 C6_32 1_555 1_555
C7_32 C2_32 1_555 1_555
H7_32 C7_32 1_555 1_555
C8_32 N1_32 1_555 1_555
C9_32 O7_32 1_555 1_555
H8_32 C9_32 1_555 1_555
C4_32 C5_32 1_555 1_555
C6_32 C7_32 1_555 1_555

#END
