
###############################################################################
#
# This file contains modified crystal structure data generated from the
# MOF subset of the Cambridge Structural Database (CSD) v543 
# hosted by the Cambridge Crystallographic Data Centre (CCDC).
#
# This work is licensed under the Creative Commons
# Attribution-NonCommercial-ShareAlike 4.0 International License.
# To view a copy of this license, visit
# http://creativecommons.org/licenses/by-nc-sa/4.0/
# or send a letter to
# Creative Commons, PO Box 1866, Mountain View, CA 94042, USA.
#
# CIF created using the CSD Python API on 29 September 2022
# The structure has been converted into the P1 space group
# The structure has a 3D framework
# The original CSD entry POQDIJ is in the orthorhombic crystal system
# The framework has been calculated to contain at least 10.0% void space
# The void calculation uses a probe of radius 1.32A, grid spacing 0.4
# The framework is charged, counterions have been retained in the structure
#
###############################################################################

data_POQDIJ
_chemical_formula_moiety         '(C480 H352 Ag8 B8 F32 S32 Si8)n'
_symmetry_cell_setting           triclinic
_symmetry_space_group_name_H-M   'P 1'
_symmetry_Int_Tables_number      1
_space_group_name_Hall           'P 1'
loop_
_symmetry_equiv_pos_site_id
_symmetry_equiv_pos_as_xyz
1 x,y,z
_cell_length_a                   17.6591(17)
_cell_length_b                   17.6477(17)
_cell_length_c                   42.628(4)
_cell_angle_alpha                90
_cell_angle_beta                 90
_cell_angle_gamma                90
_cell_volume                     13284.7
loop_
_atom_site_label
_atom_site_type_symbol
_atom_site_fract_x
_atom_site_fract_y
_atom_site_fract_z
Ag1 Ag 0.01980(2) 0.26184(2) 0.740946(7)
C13 C 0.0149(2) 0.1731(3) 0.65157(10)
H7 H 0.0676 0.1823 0.6493
C15 C 0.0105(3) 0.0639(3) 0.73550(14)
H10 H 0.0441 0.0529 0.7532
H11 H 0.0036 0.0180 0.7229
S1 S 0.05189(6) 0.13743(6) 0.71148(2)
S5 S 0.00571(7) 0.37724(7) 0.70454(2)
S6 S 0.12819(6) 0.28921(6) 0.77980(2)
C1 C 0.6207(2) 0.2178(2) 0.51469(8)
C2 C 0.6174(2) 0.1592(2) 0.53654(10)
H1 H 0.5741 0.1273 0.5371
C3 C 0.6756(2) 0.1464(2) 0.55734(10)
H2 H 0.6721 0.1055 0.5717
C4 C 0.7394(2) 0.1924(2) 0.55765(9)
C5 C 0.7436(3) 0.2514(3) 0.53606(11)
H3 H 0.7870 0.2832 0.5357
C6 C 0.6844(3) 0.2642(3) 0.51483(10)
H4 H 0.6877 0.3050 0.5004
C7 C 0.7967(2) 0.1826(3) 0.58130(10)
C8 C 0.8395(2) 0.1770(2) 0.60272(10)
C9 C 0.8899(2) 0.1699(2) 0.62907(9)
C10 C 0.8615(3) 0.1462(3) 0.65825(10)
H5 H 0.8088 0.1372 0.6607
C11 C 0.9100(3) 0.1358(3) 0.68333(10)
H6 H 0.8904 0.1196 0.7030
C12 C 0.9866(2) 0.1488(2) 0.68008(9)
C14 C 0.9670(2) 0.1840(3) 0.62623(10)
H8 H 0.9870 0.2013 0.6068
H9 H 0.9612 0.0810 0.7434
C16 C 0.4570(2) 0.2657(2) 0.51778(9)
C17 C 0.3946(3) 0.2175(3) 0.52173(11)
H12 H 0.3912 0.1727 0.5095
C18 C 0.3379(3) 0.2340(3) 0.54310(11)
H13 H 0.2963 0.2004 0.5454
C19 C 0.3414(2) 0.2994(3) 0.56118(9)
C20 C 0.4037(3) 0.3469(3) 0.55779(10)
H14 H 0.4075 0.3915 0.5702
C21 C 0.4603(3) 0.3296(3) 0.53640(10)
H15 H 0.5025 0.3627 0.5345
C22 C 0.2834(3) 0.3159(3) 0.58391(10)
C23 C 0.2363(2) 0.3278(3) 0.60317(10)
C24 C 0.1797(2) 0.3401(3) 0.62717(9)
C25 C 0.1047(2) 0.3503(3) 0.61948(9)
H16 H 0.0897 0.3503 0.5981
C26 C 0.0509(2) 0.3606(3) 0.64274(9)
C27 C 0.0721(2) 0.3613(2) 0.67401(9)
C28 C 0.1466(3) 0.3508(3) 0.68193(10)
H18 H 0.1612 0.3507 0.7034
C29 C 0.2005(3) 0.3403(4) 0.65881(10)
H19 H 0.2521 0.3333 0.6645
C31 C 0.5039(2) 0.1594(2) 0.46480(9)
C32 C 0.5346(2) 0.0859(2) 0.46507(10)
H23 H 0.5726 0.0733 0.4800
C33 C 0.5102(3) 0.0314(3) 0.44381(10)
C34 C 0.4549(2) 0.0484(2) 0.42178(9)
C35 C 0.4224(2) 0.1205(2) 0.42166(9)
H25 H 0.3834 0.1323 0.4071
C36 C 0.4473(2) 0.1747(2) 0.44284(9)
H26 H 0.4251 0.2237 0.4424
C46 C 0.5560(2) 0.3201(2) 0.46241(8)
C47 C 0.6153(2) 0.3130(2) 0.44095(9)
H34 H 0.6477 0.2702 0.4423
C48 C 0.6283(2) 0.3659(2) 0.41788(9)
H35 H 0.6694 0.3593 0.4037
C49 C 0.5813(2) 0.4291(2) 0.41520(9)
C50 C 0.5215(2) 0.4376(2) 0.43654(10)
H36 H 0.4893 0.4806 0.4352
C51 C 0.5092(2) 0.3837(2) 0.45939(10)
H37 H 0.4679 0.3899 0.4734
C52 C 0.5919(2) 0.4840(2) 0.39059(9)
C53 C 0.5973(2) 0.5293(2) 0.36986(9)
C54 C 0.6011(2) 0.5853(2) 0.34556(9)
C55 C 0.6216(2) 0.5661(2) 0.31497(9)
H38 H 0.6346 0.5152 0.3101
C56 C 0.6233(2) 0.6207(3) 0.29170(9)
H39 H 0.6368 0.6070 0.2709
C57 C 0.6053(2) 0.6957(2) 0.29859(9)
C58 C 0.5868(2) 0.7158(3) 0.32904(10)
H40 H 0.5761 0.7673 0.3339
C59 C 0.5837(2) 0.6619(3) 0.35230(10)
H41 H 0.5698 0.6761 0.3730
C60 C 0.6909(3) 0.7520(4) 0.24816(17)
H42 H 0.7339 0.7520 0.2627
H43 H 0.6977 0.7924 0.2326
H44 H 0.6883 0.7030 0.2374
S4 S 0.60451(6) 0.76783(7) 0.26964(3)
Si1 Si 0.53549(6) 0.24050(6) 0.49025(2)
Ag4 Ag 0.48020(2) 0.73816(2) 0.240946(7)
S7 S 0.89549(6) 0.23217(7) 0.76964(3)
H24 H 0.5316 0.9820 0.4444
C37 C 0.4324(3) 0.9936(3) 0.39841(10)
C38 C 0.4156(3) 0.9483(3) 0.37867(10)
C39 C 0.4006(3) 0.8910(2) 0.35554(9)
C40 C 0.4152(3) 0.8157(3) 0.36252(10)
H27 H 0.4316 0.8024 0.3830
C41 C 0.4061(3) 0.7590(3) 0.33995(10)
H28 H 0.4159 0.7075 0.3451
C42 C 0.3829(2) 0.7785(2) 0.31029(9)
C43 C 0.3632(3) 0.8527(3) 0.30343(10)
H29 H 0.3437 0.8653 0.2833
C44 C 0.3722(3) 0.9087(3) 0.32614(10)
H30 H 0.3587 0.9596 0.3214
C45 C 0.3991(3) 0.6217(3) 0.29703(12)
H31 H 0.4509 0.6254 0.3051
H32 H 0.3967 0.5817 0.2811
H33 H 0.3645 0.6093 0.3143
S3 S 0.37181(6) 0.71079(6) 0.27980(2)
C37_2 C 0.0676(3) 0.0064(3) 0.89841(10)
C38_2 C 0.0844(3) 0.0517(3) 0.87867(10)
C39_2 C 0.0994(3) 0.1090(2) 0.85554(9)
C40_2 C 0.0848(3) 0.1843(3) 0.86252(10)
H27_2 H 0.0684 0.1976 0.8830
C41_2 C 0.0939(3) 0.2410(3) 0.83995(10)
H28_2 H 0.0841 0.2925 0.8451
C42_2 C 0.1171(2) 0.2215(2) 0.81029(9)
C43_2 C 0.1368(3) 0.1473(3) 0.80343(10)
H29_2 H 0.1563 0.1347 0.7833
C44_2 C 0.1278(3) 0.0913(3) 0.82614(10)
H30_2 H 0.1413 0.0404 0.8214
C45_2 C 0.1009(3) 0.3783(3) 0.79703(12)
H31_2 H 0.0491 0.3746 0.8051
H32_2 H 0.1033 0.4183 0.7811
H33_2 H 0.1355 0.3907 0.8143
C16_2 C 0.0430(2) 0.7343(2) 0.01778(9)
C17_2 C 0.1054(3) 0.7825(3) 0.02173(11)
H12_2 H 0.1088 0.8273 0.0095
C18_2 C 0.1621(3) 0.7660(3) 0.04310(11)
H13_2 H 0.2037 0.7996 0.0454
C19_2 C 0.1586(2) 0.7006(3) 0.06118(9)
C20_2 C 0.0963(3) 0.6531(3) 0.05779(10)
H14_2 H 0.0925 0.6085 0.0702
C21_2 C 0.0397(3) 0.6704(3) 0.03640(10)
C22_2 C 0.2166(3) 0.6841(3) 0.08391(10)
C23_2 C 0.2637(2) 0.6722(3) 0.10317(10)
C24_2 C 0.3203(2) 0.6599(3) 0.12717(9)
C25_2 C 0.3953(2) 0.6497(3) 0.11948(9)
H16_2 H 0.4103 0.6497 0.0981
C26_2 C 0.4491(2) 0.6394(3) 0.14274(9)
H17 H 0.5008 0.6328 0.1372
C27_2 C 0.4279(2) 0.6387(2) 0.17401(9)
C28_2 C 0.3534(3) 0.6492(3) 0.18193(10)
H18_2 H 0.3388 0.6493 0.2034
C29_2 C 0.2995(3) 0.6597(4) 0.15881(10)
H19_2 H 0.2479 0.6667 0.1645
C30 C 0.5833(3) 0.6320(4) 0.18584(14)
H20 H 0.5877 0.5939 0.1692
H21 H 0.6238 0.6244 0.2012
H22 H 0.5877 0.6828 0.1767
S2 S 0.49429(7) 0.62276(7) 0.20454(2)
C34_2 C 0.0451(2) 0.9516(2) 0.92178(9)
C35_2 C 0.0776(2) 0.8795(2) 0.92166(9)
H25_2 H 0.1166 0.8677 0.9071
C36_2 C 0.0527(2) 0.8253(2) 0.94284(9)
H26_2 H 0.0749 0.7763 0.9424
H36_2 H 0.0107 0.5194 0.9352
H37_2 H 0.0321 0.6101 0.9734
C1_2 C 0.8793(2) 0.7822(2) 0.01469(8)
C2_2 C 0.8826(2) 0.8408(2) 0.03654(10)
H1_2 H 0.9259 0.8727 0.0371
C3_2 C 0.8244(2) 0.8536(2) 0.05734(10)
H2_2 H 0.8279 0.8945 0.0717
C4_2 C 0.7606(2) 0.8076(2) 0.05765(9)
C5_2 C 0.7564(3) 0.7486(3) 0.03606(11)
H3_2 H 0.7130 0.7168 0.0357
C6_2 C 0.8156(3) 0.7358(3) 0.01483(10)
H4_2 H 0.8123 0.6950 0.0004
C7_2 C 0.7033(2) 0.8174(3) 0.08130(10)
C8_2 C 0.6605(2) 0.8230(2) 0.10272(10)
C9_2 C 0.6101(2) 0.8301(2) 0.12907(9)
C10_2 C 0.6385(3) 0.8538(3) 0.15825(10)
H5_2 H 0.6912 0.8628 0.1607
C11_2 C 0.5900(3) 0.8642(3) 0.18333(10)
H6_2 H 0.6096 0.8804 0.2030
C12_2 C 0.5134(2) 0.8512(2) 0.18008(9)
C13_2 C 0.4851(2) 0.8269(3) 0.15157(10)
H7_2 H 0.4324 0.8177 0.1493
C14_2 C 0.5330(2) 0.8160(3) 0.12623(10)
H8_2 H 0.5130 0.7987 0.1068
C15_2 C 0.4895(3) 0.9361(3) 0.23550(14)
H9_2 H 0.5388 0.9190 0.2434
H10_2 H 0.4559 0.9471 0.2532
H11_2 H 0.4964 0.9820 0.2229
H15_2 H 0.9975 0.6373 0.0345
S1_2 S 0.44811(6) 0.86257(6) 0.21148(2)
C31_2 C 0.9961(2) 0.8406(2) 0.96480(9)
C32_2 C 0.9654(2) 0.9141(2) 0.96507(10)
H23_2 H 0.9274 0.9267 0.9800
C33_2 C 0.9898(3) 0.9686(3) 0.94381(10)
C46_2 C 0.9440(2) 0.6799(2) 0.96241(8)
C47_2 C 0.8847(2) 0.6870(2) 0.94095(9)
H34_2 H 0.8523 0.7298 0.9423
C48_2 C 0.8717(2) 0.6341(2) 0.91788(9)
H35_2 H 0.8306 0.6407 0.9037
C49_2 C 0.9187(2) 0.5709(2) 0.91520(9)
C50_2 C 0.9785(2) 0.5624(2) 0.93654(10)
C51_2 C 0.9908(2) 0.6163(2) 0.95939(10)
C52_2 C 0.9081(2) 0.5160(2) 0.89059(9)
C53_2 C 0.9027(2) 0.4707(2) 0.86986(9)
C54_2 C 0.8989(2) 0.4147(2) 0.84556(9)
C55_2 C 0.8784(2) 0.4339(2) 0.81497(9)
H38_2 H 0.8654 0.4848 0.8101
C56_2 C 0.8767(2) 0.3793(3) 0.79170(9)
H39_2 H 0.8632 0.3930 0.7709
C57_2 C 0.8947(2) 0.3043(2) 0.79859(9)
C58_2 C 0.9132(2) 0.2842(3) 0.82904(10)
H40_2 H 0.9239 0.2327 0.8339
C59_2 C 0.9163(2) 0.3381(3) 0.85230(10)
H41_2 H 0.9302 0.3239 0.8730
C60_2 C 0.8091(3) 0.2480(4) 0.74816(17)
H42_2 H 0.7661 0.2480 0.7627
H43_2 H 0.8023 0.2076 0.7326
H44_2 H 0.8117 0.2970 0.7374
Si1_2 Si 0.96451(6) 0.75950(6) 0.99025(2)
H17_2 H 0.9992 0.3672 0.6372
C30_2 C 0.9167(3) 0.3680(4) 0.68584(14)
H20_2 H 0.9123 0.4061 0.6692
H21_2 H 0.8762 0.3756 0.7012
H22_2 H 0.9123 0.3172 0.6767
H24_2 H 0.9684 0.0180 0.9444
H17_3 H 0.0008 0.8672 0.8628
C30_3 C 0.0833(3) 0.8680(4) 0.81416(14)
H20_3 H 0.0877 0.9061 0.8308
H21_3 H 0.1238 0.8756 0.7988
H22_3 H 0.0877 0.8172 0.8233
C53_3 C 0.4027(2) 0.0293(2) 0.13014(9)
C54_3 C 0.3989(2) 0.0853(2) 0.15444(9)
C55_3 C 0.3784(2) 0.0661(2) 0.18503(9)
H38_3 H 0.3654 0.0152 0.1899
C56_3 C 0.3767(2) 0.1207(3) 0.20830(9)
H39_3 H 0.3632 0.1070 0.2291
C57_3 C 0.3947(2) 0.1957(2) 0.20141(9)
C58_3 C 0.4132(2) 0.2158(3) 0.17096(10)
H40_3 H 0.4239 0.2673 0.1661
C59_3 C 0.4163(2) 0.1619(3) 0.14770(10)
H41_3 H 0.4302 0.1761 0.1270
C60_3 C 0.3091(3) 0.2520(4) 0.25184(17)
H42_3 H 0.2661 0.2520 0.2373
H43_3 H 0.3023 0.2924 0.2674
H44_3 H 0.3117 0.2030 0.2626
S4_2 S 0.39549(6) 0.26783(7) 0.23036(3)
Ag4_2 Ag 0.51980(2) 0.23816(2) 0.259054(7)
C31_3 C 0.4961(2) 0.6594(2) 0.03520(9)
C32_3 C 0.4654(2) 0.5859(2) 0.03493(10)
H23_3 H 0.4274 0.5733 0.0200
C33_3 C 0.4898(3) 0.5314(3) 0.05619(10)
H24_3 H 0.4684 0.4820 0.0556
C34_3 C 0.5451(2) 0.5484(2) 0.07822(9)
C35_3 C 0.5776(2) 0.6205(2) 0.07834(9)
H25_3 H 0.6166 0.6323 0.0929
C36_3 C 0.5527(2) 0.6747(2) 0.05716(9)
H26_3 H 0.5749 0.7237 0.0576
C37_3 C 0.5676(3) 0.4936(3) 0.10159(10)
C38_3 C 0.5844(3) 0.4483(3) 0.12133(10)
C39_3 C 0.5994(3) 0.3910(2) 0.14446(9)
C40_3 C 0.5848(3) 0.3157(3) 0.13748(10)
H27_3 H 0.5684 0.3024 0.1170
C41_3 C 0.5939(3) 0.2590(3) 0.16005(10)
H28_3 H 0.5841 0.2075 0.1549
C42_3 C 0.6171(2) 0.2785(2) 0.18971(9)
C43_3 C 0.6368(3) 0.3527(3) 0.19657(10)
H29_3 H 0.6563 0.3653 0.2167
C44_3 C 0.6278(3) 0.4087(3) 0.17386(10)
H30_3 H 0.6413 0.4596 0.1786
C45_3 C 0.6009(3) 0.1217(3) 0.20297(12)
H31_3 H 0.5491 0.1254 0.1949
H32_3 H 0.6033 0.0817 0.2189
H33_3 H 0.6355 0.1093 0.1857
C46_3 C 0.4440(2) 0.8201(2) 0.03759(8)
C47_3 C 0.3847(2) 0.8130(2) 0.05905(9)
H34_3 H 0.3523 0.7702 0.0577
C48_3 C 0.3717(2) 0.8659(2) 0.08212(9)
H35_3 H 0.3306 0.8593 0.0963
C49_3 C 0.4187(2) 0.9291(2) 0.08480(9)
C50_3 C 0.4785(2) 0.9376(2) 0.06346(10)
H36_3 H 0.5107 0.9806 0.0648
C51_3 C 0.4908(2) 0.8837(2) 0.04061(10)
H37_3 H 0.5321 0.8899 0.0266
C52_3 C 0.4081(2) 0.9840(2) 0.10941(9)
S3_2 S 0.62819(6) 0.21079(6) 0.22020(2)
Si1_3 Si 0.46451(6) 0.74050(6) 0.00975(2)
C1_3 C 0.3793(2) 0.7178(2) 0.98531(8)
C2_3 C 0.3826(2) 0.6592(2) 0.96346(10)
H1_3 H 0.4259 0.6273 0.9629
C3_3 C 0.3244(2) 0.6464(2) 0.94266(10)
H2_3 H 0.3279 0.6055 0.9283
C4_3 C 0.2606(2) 0.6924(2) 0.94235(9)
C5_3 C 0.2564(3) 0.7514(3) 0.96394(11)
H3_3 H 0.2130 0.7832 0.9643
C6_3 C 0.3156(3) 0.7642(3) 0.98517(10)
H4_3 H 0.3123 0.8050 0.9996
C7_3 C 0.2033(2) 0.6826(3) 0.91870(10)
C8_3 C 0.1605(2) 0.6770(2) 0.89728(10)
C9_3 C 0.1101(2) 0.6699(2) 0.87093(9)
C10_3 C 0.1385(3) 0.6462(3) 0.84175(10)
H5_3 H 0.1912 0.6372 0.8393
C11_3 C 0.0900(3) 0.6358(3) 0.81667(10)
H6_3 H 0.1096 0.6196 0.7970
C12_3 C 0.0134(2) 0.6488(2) 0.81992(9)
C14_3 C 0.0330(2) 0.6840(3) 0.87377(10)
H8_3 H 0.0130 0.7013 0.8932
H9_3 H 0.0388 0.5810 0.7566
C16_3 C 0.5430(2) 0.7657(2) 0.98222(9)
C17_3 C 0.6054(3) 0.7175(3) 0.97827(11)
H12_3 H 0.6088 0.6727 0.9905
C18_3 C 0.6621(3) 0.7340(3) 0.95690(11)
H13_3 H 0.7037 0.7004 0.9546
C19_3 C 0.6586(2) 0.7994(3) 0.93882(9)
C20_3 C 0.5963(3) 0.8469(3) 0.94221(10)
H14_3 H 0.5925 0.8915 0.9298
C21_3 C 0.5397(3) 0.8296(3) 0.96360(10)
H15_3 H 0.4975 0.8627 0.9655
C22_3 C 0.7166(3) 0.8159(3) 0.91609(10)
C23_3 C 0.7637(2) 0.8278(3) 0.89683(10)
C24_3 C 0.8203(2) 0.8401(3) 0.87283(9)
C25_3 C 0.8953(2) 0.8503(3) 0.88052(9)
H16_3 H 0.9103 0.8503 0.9019
C26_3 C 0.9491(2) 0.8606(3) 0.85726(9)
C27_3 C 0.9279(2) 0.8613(2) 0.82599(9)
C28_3 C 0.8534(3) 0.8508(3) 0.81807(10)
H18_3 H 0.8388 0.8507 0.7966
C29_3 C 0.7995(3) 0.8403(4) 0.84119(10)
H19_3 H 0.7479 0.8333 0.8355
S2_2 S 0.99429(7) 0.87724(7) 0.79546(2)
Ag2 Ag 0.98020(2) 0.76184(2) 0.759054(7)
S7_2 S 0.10451(6) 0.73217(7) 0.73036(3)
C13_3 C 0.9851(2) 0.6731(3) 0.84843(10)
H7_3 H 0.9324 0.6823 0.8507
C15_3 C 0.9895(3) 0.5639(3) 0.76450(14)
H10_3 H 0.9559 0.5529 0.7468
H11_3 H 0.9964 0.5180 0.7771
S1_3 S 0.94811(6) 0.63743(6) 0.78852(2)
S6_2 S 0.87181(6) 0.78921(6) 0.72020(2)
C1_4 C 0.1207(2) 0.2822(2) 0.48531(8)
C2_4 C 0.1174(2) 0.3408(2) 0.46346(10)
H1_4 H 0.0741 0.3727 0.4629
C3_4 C 0.1756(2) 0.3536(2) 0.44266(10)
H2_4 H 0.1721 0.3945 0.4283
C4_4 C 0.2394(2) 0.3076(2) 0.44235(9)
C5_4 C 0.2436(3) 0.2486(3) 0.46394(11)
H3_4 H 0.2870 0.2168 0.4643
C6_4 C 0.1844(3) 0.2358(3) 0.48517(10)
H4_4 H 0.1877 0.1950 0.4996
C7_4 C 0.2967(2) 0.3174(3) 0.41870(10)
C8_4 C 0.3395(2) 0.3230(2) 0.39728(10)
C9_4 C 0.3899(2) 0.3301(2) 0.37093(9)
C10_4 C 0.3615(3) 0.3538(3) 0.34175(10)
H5_4 H 0.3088 0.3628 0.3393
C11_4 C 0.4100(3) 0.3642(3) 0.31667(10)
H6_4 H 0.3904 0.3804 0.2970
C12_4 C 0.4866(2) 0.3512(2) 0.31992(9)
C13_4 C 0.5149(2) 0.3269(3) 0.34843(10)
H7_4 H 0.5676 0.3177 0.3507
C14_4 C 0.4670(2) 0.3160(3) 0.37377(10)
H8_4 H 0.4870 0.2987 0.3932
C15_4 C 0.5105(3) 0.4361(3) 0.26450(14)
H9_4 H 0.4612 0.4190 0.2566
H10_4 H 0.5441 0.4471 0.2468
H11_4 H 0.5036 0.4820 0.2771
H15_4 H 0.0025 0.1373 0.4655
C31_4 C 0.0039(2) 0.3406(2) 0.53520(9)
C32_4 C 0.0346(2) 0.4141(2) 0.53493(10)
H23_4 H 0.0726 0.4267 0.5200
C33_4 C 0.0102(3) 0.4686(3) 0.55619(10)
H24_4 H 0.0316 0.5180 0.5556
C46_4 C 0.0560(2) 0.1799(2) 0.53759(8)
C47_4 C 0.1153(2) 0.1870(2) 0.55905(9)
H34_4 H 0.1477 0.2298 0.5577
C48_4 C 0.1283(2) 0.1341(2) 0.58212(9)
H35_4 H 0.1694 0.1407 0.5963
C49_4 C 0.0813(2) 0.0709(2) 0.58480(9)
C50_4 C 0.0215(2) 0.0624(2) 0.56346(10)
C51_4 C 0.0092(2) 0.1163(2) 0.54061(10)
C52_4 C 0.0919(2) 0.0160(2) 0.60941(9)
S1_4 S 0.55189(6) 0.36257(6) 0.28852(2)
Si1_4 Si 0.03549(6) 0.25950(6) 0.50975(2)
S5_2 S 0.50571(7) 0.12276(7) 0.29546(2)
C53_4 C 0.0973(2) 0.9707(2) 0.63014(9)
C54_4 C 0.1011(2) 0.9147(2) 0.65444(9)
C55_4 C 0.1216(2) 0.9339(2) 0.68503(9)
H38_4 H 0.1346 0.9848 0.6899
C56_4 C 0.1233(2) 0.8793(3) 0.70830(9)
H39_4 H 0.1368 0.8930 0.7291
C57_4 C 0.1053(2) 0.8043(2) 0.70141(9)
C58_4 C 0.0868(2) 0.7842(3) 0.67096(10)
H40_4 H 0.0761 0.7327 0.6661
C59_4 C 0.0837(2) 0.8381(3) 0.64770(10)
H41_4 H 0.0698 0.8239 0.6270
C60_4 C 0.1909(3) 0.7480(4) 0.75184(17)
H42_4 H 0.2339 0.7480 0.7373
H43_4 H 0.1977 0.7076 0.7674
H44_4 H 0.1883 0.7970 0.7626
C16_4 C 0.9570(2) 0.2343(2) 0.48222(9)
C17_4 C 0.8946(3) 0.2825(3) 0.47827(11)
H12_4 H 0.8912 0.3273 0.4905
C18_4 C 0.8379(3) 0.2660(3) 0.45690(11)
H13_4 H 0.7963 0.2996 0.4546
C19_4 C 0.8414(2) 0.2006(3) 0.43882(9)
C20_4 C 0.9037(3) 0.1531(3) 0.44221(10)
H14_4 H 0.9075 0.1085 0.4298
C21_4 C 0.9603(3) 0.1704(3) 0.46360(10)
C22_4 C 0.7834(3) 0.1841(3) 0.41609(10)
C23_4 C 0.7363(2) 0.1722(3) 0.39683(10)
C24_4 C 0.6797(2) 0.1599(3) 0.37283(9)
C25_4 C 0.6047(2) 0.1497(3) 0.38052(9)
H16_4 H 0.5897 0.1497 0.4019
C26_4 C 0.5509(2) 0.1394(3) 0.35726(9)
H17_4 H 0.4992 0.1328 0.3628
C27_4 C 0.5721(2) 0.1387(2) 0.32599(9)
C28_4 C 0.6466(3) 0.1492(3) 0.31807(10)
H18_4 H 0.6612 0.1493 0.2966
C29_4 C 0.7005(3) 0.1597(4) 0.34119(10)
H19_4 H 0.7521 0.1667 0.3355
C30_4 C 0.4167(3) 0.1320(4) 0.31416(14)
H20_4 H 0.4123 0.0939 0.3308
H21_4 H 0.3762 0.1244 0.2988
H22_4 H 0.4123 0.1828 0.3233
C34_4 C 0.9549(2) 0.4516(2) 0.57822(9)
C35_4 C 0.9224(2) 0.3795(2) 0.57834(9)
H25_4 H 0.8834 0.3677 0.5929
C36_4 C 0.9473(2) 0.3253(2) 0.55716(9)
H26_4 H 0.9251 0.2763 0.5576
C37_4 C 0.9324(3) 0.5064(3) 0.60159(10)
C38_4 C 0.9156(3) 0.5517(3) 0.62133(10)
C39_4 C 0.9006(3) 0.6090(2) 0.64446(9)
C40_4 C 0.9152(3) 0.6843(3) 0.63748(10)
H27_4 H 0.9316 0.6976 0.6170
C41_4 C 0.9061(3) 0.7410(3) 0.66005(10)
H28_4 H 0.9159 0.7925 0.6549
C42_4 C 0.8829(2) 0.7215(2) 0.68971(9)
C43_4 C 0.8632(3) 0.6473(3) 0.69657(10)
H29_4 H 0.8437 0.6347 0.7167
C44_4 C 0.8722(3) 0.5913(3) 0.67386(10)
H30_4 H 0.8587 0.5404 0.6786
C45_4 C 0.8991(3) 0.8783(3) 0.70297(12)
H31_4 H 0.9509 0.8746 0.6949
H32_4 H 0.8967 0.9183 0.7189
H33_4 H 0.8645 0.8907 0.6857
H36_4 H 0.9893 0.0194 0.5648
H37_4 H 0.9679 0.1101 0.5266
H17_5 H 0.0008 0.6328 0.3628
C30_5 C 0.0833(3) 0.6320(4) 0.31416(14)
H20_5 H 0.0877 0.5939 0.3308
H21_5 H 0.1238 0.6244 0.2988
H22_5 H 0.0877 0.6828 0.3233
H24_5 H 0.4684 0.0180 0.5556
C37_5 C 0.5676(3) 0.0064(3) 0.60159(10)
C38_5 C 0.5844(3) 0.0517(3) 0.62133(10)
C39_5 C 0.5994(3) 0.1090(2) 0.64446(9)
C40_5 C 0.5848(3) 0.1843(3) 0.63748(10)
H27_5 H 0.5684 0.1976 0.6170
C41_5 C 0.5939(3) 0.2410(3) 0.66005(10)
H28_5 H 0.5841 0.2925 0.6549
C42_5 C 0.6171(2) 0.2215(2) 0.68971(9)
C43_5 C 0.6368(3) 0.1473(3) 0.69657(10)
H29_5 H 0.6563 0.1347 0.7167
C44_5 C 0.6278(3) 0.0913(3) 0.67386(10)
H30_5 H 0.6413 0.0404 0.6786
C45_5 C 0.6009(3) 0.3783(3) 0.70297(12)
H31_5 H 0.5491 0.3746 0.6949
H32_5 H 0.6033 0.4183 0.7189
H33_5 H 0.6355 0.3907 0.6857
S3_3 S 0.62819(6) 0.28921(6) 0.72020(2)
Ag3 Ag 0.51980(2) 0.26184(2) 0.759054(7)
C1_5 C 0.3793(2) 0.7822(2) 0.48531(8)
C2_5 C 0.3826(2) 0.8408(2) 0.46346(10)
H1_5 H 0.4259 0.8727 0.4629
C3_5 C 0.3244(2) 0.8536(2) 0.44266(10)
H2_5 H 0.3279 0.8945 0.4283
C4_5 C 0.2606(2) 0.8076(2) 0.44235(9)
C5_5 C 0.2564(3) 0.7486(3) 0.46394(11)
H3_5 H 0.2130 0.7168 0.4643
C6_5 C 0.3156(3) 0.7358(3) 0.48517(10)
H4_5 H 0.3123 0.6950 0.4996
C7_5 C 0.2033(2) 0.8174(3) 0.41870(10)
C8_5 C 0.1605(2) 0.8230(2) 0.39728(10)
C9_5 C 0.1101(2) 0.8301(2) 0.37093(9)
C10_5 C 0.1385(3) 0.8538(3) 0.34175(10)
H5_5 H 0.1912 0.8628 0.3393
C11_5 C 0.0900(3) 0.8642(3) 0.31667(10)
H6_5 H 0.1096 0.8804 0.2970
C12_5 C 0.0134(2) 0.8512(2) 0.31992(9)
C14_5 C 0.0330(2) 0.8160(3) 0.37377(10)
H8_5 H 0.0130 0.7987 0.3932
H9_5 H 0.0388 0.9190 0.2566
C16_5 C 0.5430(2) 0.7343(2) 0.48222(9)
C17_5 C 0.6054(3) 0.7825(3) 0.47827(11)
H12_5 H 0.6088 0.8273 0.4905
C18_5 C 0.6621(3) 0.7660(3) 0.45690(11)
H13_5 H 0.7037 0.7996 0.4546
C19_5 C 0.6586(2) 0.7006(3) 0.43882(9)
C20_5 C 0.5963(3) 0.6531(3) 0.44221(10)
H14_5 H 0.5925 0.6085 0.4298
C21_5 C 0.5397(3) 0.6704(3) 0.46360(10)
H15_5 H 0.4975 0.6373 0.4655
C22_5 C 0.7166(3) 0.6841(3) 0.41609(10)
C23_5 C 0.7637(2) 0.6722(3) 0.39683(10)
C24_5 C 0.8203(2) 0.6599(3) 0.37283(9)
C25_5 C 0.8953(2) 0.6497(3) 0.38052(9)
H16_5 H 0.9103 0.6497 0.4019
C26_5 C 0.9491(2) 0.6394(3) 0.35726(9)
C27_5 C 0.9279(2) 0.6387(2) 0.32599(9)
C28_5 C 0.8534(3) 0.6492(3) 0.31807(10)
H18_5 H 0.8388 0.6493 0.2966
C29_5 C 0.7995(3) 0.6597(4) 0.34119(10)
H19_5 H 0.7479 0.6667 0.3355
C31_5 C 0.4961(2) 0.8406(2) 0.53520(9)
C32_5 C 0.4654(2) 0.9141(2) 0.53493(10)
H23_5 H 0.4274 0.9267 0.5200
C33_5 C 0.4898(3) 0.9686(3) 0.55619(10)
C34_5 C 0.5451(2) 0.9516(2) 0.57822(9)
C35_5 C 0.5776(2) 0.8795(2) 0.57834(9)
H25_5 H 0.6166 0.8677 0.5929
C36_5 C 0.5527(2) 0.8253(2) 0.55716(9)
H26_5 H 0.5749 0.7763 0.5576
C46_5 C 0.4440(2) 0.6799(2) 0.53759(8)
C47_5 C 0.3847(2) 0.6870(2) 0.55905(9)
H34_5 H 0.3523 0.7298 0.5577
C48_5 C 0.3717(2) 0.6341(2) 0.58212(9)
H35_5 H 0.3306 0.6407 0.5963
C49_5 C 0.4187(2) 0.5709(2) 0.58480(9)
C50_5 C 0.4785(2) 0.5624(2) 0.56346(10)
H36_5 H 0.5107 0.5194 0.5648
C51_5 C 0.4908(2) 0.6163(2) 0.54061(10)
H37_5 H 0.5321 0.6101 0.5266
C52_5 C 0.4081(2) 0.5160(2) 0.60941(9)
C53_5 C 0.4027(2) 0.4707(2) 0.63014(9)
C54_5 C 0.3989(2) 0.4147(2) 0.65444(9)
C55_5 C 0.3784(2) 0.4339(2) 0.68503(9)
H38_5 H 0.3654 0.4848 0.6899
C56_5 C 0.3767(2) 0.3793(3) 0.70830(9)
H39_5 H 0.3632 0.3930 0.7291
C57_5 C 0.3947(2) 0.3043(2) 0.70141(9)
C58_5 C 0.4132(2) 0.2842(3) 0.67096(10)
H40_5 H 0.4239 0.2327 0.6661
C59_5 C 0.4163(2) 0.3381(3) 0.64770(10)
H41_5 H 0.4302 0.3239 0.6270
C60_5 C 0.3091(3) 0.2480(4) 0.75184(17)
H42_5 H 0.2661 0.2480 0.7373
H43_5 H 0.3023 0.2076 0.7674
H44_5 H 0.3117 0.2970 0.7626
S2_3 S 0.99429(7) 0.62276(7) 0.29546(2)
S4_3 S 0.39549(6) 0.23217(7) 0.73036(3)
Si1_5 Si 0.46451(6) 0.75950(6) 0.50975(2)
Ag2_2 Ag 0.98020(2) 0.73816(2) 0.259054(7)
S7_3 S 0.10451(6) 0.76783(7) 0.23036(3)
C13_5 C 0.9851(2) 0.8269(3) 0.34843(10)
H7_5 H 0.9324 0.8177 0.3507
C15_5 C 0.9895(3) 0.9361(3) 0.26450(14)
H10_5 H 0.9559 0.9471 0.2468
H11_5 H 0.9964 0.9820 0.2771
S1_5 S 0.94811(6) 0.86257(6) 0.28852(2)
S6_3 S 0.87181(6) 0.71079(6) 0.22020(2)
C31_6 C 0.0039(2) 0.1594(2) 0.03520(9)
C32_6 C 0.0346(2) 0.0859(2) 0.03493(10)
H23_6 H 0.0726 0.0733 0.0200
C33_6 C 0.0102(3) 0.0314(3) 0.05619(10)
C46_6 C 0.0560(2) 0.3201(2) 0.03759(8)
C47_6 C 0.1153(2) 0.3130(2) 0.05905(9)
H34_6 H 0.1477 0.2702 0.0577
C48_6 C 0.1283(2) 0.3659(2) 0.08212(9)
H35_6 H 0.1694 0.3593 0.0963
C49_6 C 0.0813(2) 0.4291(2) 0.08480(9)
C50_6 C 0.0215(2) 0.4376(2) 0.06346(10)
C51_6 C 0.0092(2) 0.3837(2) 0.04061(10)
C52_6 C 0.0919(2) 0.4840(2) 0.10941(9)
C53_6 C 0.0973(2) 0.5293(2) 0.13014(9)
C54_6 C 0.1011(2) 0.5853(2) 0.15444(9)
C55_6 C 0.1216(2) 0.5661(2) 0.18503(9)
H38_6 H 0.1346 0.5152 0.1899
C56_6 C 0.1233(2) 0.6207(3) 0.20830(9)
H39_6 H 0.1368 0.6070 0.2291
C57_6 C 0.1053(2) 0.6957(2) 0.20141(9)
C58_6 C 0.0868(2) 0.7158(3) 0.17096(10)
H40_6 H 0.0761 0.7673 0.1661
C59_6 C 0.0837(2) 0.6619(3) 0.14770(10)
H41_6 H 0.0698 0.6761 0.1270
C60_6 C 0.1909(3) 0.7520(4) 0.25184(17)
H42_6 H 0.2339 0.7520 0.2373
H43_6 H 0.1977 0.7924 0.2674
H44_6 H 0.1883 0.7030 0.2626
Si1_6 Si 0.03549(6) 0.24050(6) 0.00975(2)
C1_6 C 0.1207(2) 0.2178(2) 0.98531(8)
C2_6 C 0.1174(2) 0.1592(2) 0.96346(10)
H1_6 H 0.0741 0.1273 0.9629
C3_6 C 0.1756(2) 0.1464(2) 0.94266(10)
H2_6 H 0.1721 0.1055 0.9283
C4_6 C 0.2394(2) 0.1924(2) 0.94235(9)
C5_6 C 0.2436(3) 0.2514(3) 0.96394(11)
H3_6 H 0.2870 0.2832 0.9643
C6_6 C 0.1844(3) 0.2642(3) 0.98517(10)
H4_6 H 0.1877 0.3050 0.9996
C7_6 C 0.2967(2) 0.1826(3) 0.91870(10)
C8_6 C 0.3395(2) 0.1770(2) 0.89728(10)
C9_6 C 0.3899(2) 0.1699(2) 0.87093(9)
C10_6 C 0.3615(3) 0.1462(3) 0.84175(10)
H5_6 H 0.3088 0.1372 0.8393
C11_6 C 0.4100(3) 0.1358(3) 0.81667(10)
H6_6 H 0.3904 0.1196 0.7970
C12_6 C 0.4866(2) 0.1488(2) 0.81992(9)
C13_6 C 0.5149(2) 0.1731(3) 0.84843(10)
H7_6 H 0.5676 0.1823 0.8507
C14_6 C 0.4670(2) 0.1840(3) 0.87377(10)
H8_6 H 0.4870 0.2013 0.8932
C15_6 C 0.5105(3) 0.0639(3) 0.76450(14)
H9_6 H 0.4612 0.0810 0.7566
H10_6 H 0.5441 0.0529 0.7468
H11_6 H 0.5036 0.0180 0.7771
H15_6 H 0.0025 0.3627 0.9655
S1_6 S 0.55189(6) 0.13743(6) 0.78852(2)
S5_3 S 0.50571(7) 0.37724(7) 0.79546(2)
C34_6 C 0.9549(2) 0.0484(2) 0.07822(9)
C35_6 C 0.9224(2) 0.1205(2) 0.07834(9)
H25_6 H 0.8834 0.1323 0.0929
C36_6 C 0.9473(2) 0.1747(2) 0.05716(9)
H26_6 H 0.9251 0.2237 0.0576
H36_6 H 0.9893 0.4806 0.0648
H37_6 H 0.9679 0.3899 0.0266
C16_6 C 0.9570(2) 0.2657(2) 0.98222(9)
C17_6 C 0.8946(3) 0.2175(3) 0.97827(11)
H12_6 H 0.8912 0.1727 0.9905
C18_6 C 0.8379(3) 0.2340(3) 0.95690(11)
H13_6 H 0.7963 0.2004 0.9546
C19_6 C 0.8414(2) 0.2994(3) 0.93882(9)
C20_6 C 0.9037(3) 0.3469(3) 0.94221(10)
H14_6 H 0.9075 0.3915 0.9298
C21_6 C 0.9603(3) 0.3296(3) 0.96360(10)
C22_6 C 0.7834(3) 0.3159(3) 0.91609(10)
C23_6 C 0.7363(2) 0.3278(3) 0.89683(10)
C24_6 C 0.6797(2) 0.3401(3) 0.87283(9)
C25_6 C 0.6047(2) 0.3503(3) 0.88052(9)
H16_6 H 0.5897 0.3503 0.9019
C26_6 C 0.5509(2) 0.3606(3) 0.85726(9)
H17_6 H 0.4992 0.3672 0.8628
C27_6 C 0.5721(2) 0.3613(2) 0.82599(9)
C28_6 C 0.6466(3) 0.3508(3) 0.81807(10)
H18_6 H 0.6612 0.3507 0.7966
C29_6 C 0.7005(3) 0.3403(4) 0.84119(10)
H19_6 H 0.7521 0.3333 0.8355
C30_6 C 0.4167(3) 0.3680(4) 0.81416(14)
H20_6 H 0.4123 0.4061 0.8308
H21_6 H 0.3762 0.3756 0.7988
H22_6 H 0.4123 0.3172 0.8233
C37_6 C 0.9324(3) 0.9936(3) 0.10159(10)
C38_6 C 0.9156(3) 0.9483(3) 0.12133(10)
C39_6 C 0.9006(3) 0.8910(2) 0.14446(9)
C40_6 C 0.9152(3) 0.8157(3) 0.13748(10)
H27_6 H 0.9316 0.8024 0.1170
C41_6 C 0.9061(3) 0.7590(3) 0.16005(10)
H28_6 H 0.9159 0.7075 0.1549
C42_6 C 0.8829(2) 0.7785(2) 0.18971(9)
C43_6 C 0.8632(3) 0.8527(3) 0.19657(10)
H29_6 H 0.8437 0.8653 0.2167
C44_6 C 0.8722(3) 0.9087(3) 0.17386(10)
H30_6 H 0.8587 0.9596 0.1786
C45_6 C 0.8991(3) 0.6217(3) 0.20297(12)
H31_6 H 0.9509 0.6254 0.1949
H32_6 H 0.8967 0.5817 0.2189
H33_6 H 0.8645 0.6093 0.1857
H24_6 H 0.0316 0.9820 0.0556
Ag1_2 Ag 0.01980(2) 0.23816(2) 0.240946(7)
C13_7 C 0.0149(2) 0.3269(3) 0.15157(10)
H7_7 H 0.0676 0.3177 0.1493
C15_7 C 0.0105(3) 0.4361(3) 0.23550(14)
H10_7 H 0.0441 0.4471 0.2532
H11_7 H 0.0036 0.4820 0.2229
S1_7 S 0.05189(6) 0.36257(6) 0.21148(2)
S5_4 S 0.00571(7) 0.12276(7) 0.20454(2)
S6_4 S 0.12819(6) 0.21079(6) 0.27980(2)
C1_7 C 0.6207(2) 0.2822(2) 0.01469(8)
C2_7 C 0.6174(2) 0.3408(2) 0.03654(10)
H1_7 H 0.5741 0.3727 0.0371
C3_7 C 0.6756(2) 0.3536(2) 0.05734(10)
H2_7 H 0.6721 0.3945 0.0717
C4_7 C 0.7394(2) 0.3076(2) 0.05765(9)
C5_7 C 0.7436(3) 0.2486(3) 0.03606(11)
H3_7 H 0.7870 0.2168 0.0357
C6_7 C 0.6844(3) 0.2358(3) 0.01483(10)
H4_7 H 0.6877 0.1950 0.0004
C7_7 C 0.7967(2) 0.3174(3) 0.08130(10)
C8_7 C 0.8395(2) 0.3230(2) 0.10272(10)
C9_7 C 0.8899(2) 0.3301(2) 0.12907(9)
C10_7 C 0.8615(3) 0.3538(3) 0.15825(10)
H5_7 H 0.8088 0.3628 0.1607
C11_7 C 0.9100(3) 0.3642(3) 0.18333(10)
H6_7 H 0.8904 0.3804 0.2030
C12_7 C 0.9866(2) 0.3512(2) 0.18008(9)
C14_7 C 0.9670(2) 0.3160(3) 0.12623(10)
H8_7 H 0.9870 0.2987 0.1068
H9_7 H 0.9612 0.4190 0.2434
C16_7 C 0.4570(2) 0.2343(2) 0.01778(9)
C17_7 C 0.3946(3) 0.2825(3) 0.02173(11)
H12_7 H 0.3912 0.3273 0.0095
C18_7 C 0.3379(3) 0.2660(3) 0.04310(11)
H13_7 H 0.2963 0.2996 0.0454
C19_7 C 0.3414(2) 0.2006(3) 0.06118(9)
C20_7 C 0.4037(3) 0.1531(3) 0.05779(10)
H14_7 H 0.4075 0.1085 0.0702
C21_7 C 0.4603(3) 0.1704(3) 0.03640(10)
H15_7 H 0.5025 0.1373 0.0345
C22_7 C 0.2834(3) 0.1841(3) 0.08391(10)
C23_7 C 0.2363(2) 0.1722(3) 0.10317(10)
C24_7 C 0.1797(2) 0.1599(3) 0.12717(9)
C25_7 C 0.1047(2) 0.1497(3) 0.11948(9)
H16_7 H 0.0897 0.1497 0.0981
C26_7 C 0.0509(2) 0.1394(3) 0.14274(9)
C27_7 C 0.0721(2) 0.1387(2) 0.17401(9)
C28_7 C 0.1466(3) 0.1492(3) 0.18193(10)
H18_7 H 0.1612 0.1493 0.2034
C29_7 C 0.2005(3) 0.1597(4) 0.15881(10)
H19_7 H 0.2521 0.1667 0.1645
S7_4 S 0.89549(6) 0.26783(7) 0.26964(3)
C31_7 C 0.5039(2) 0.3406(2) 0.96480(9)
C32_7 C 0.5346(2) 0.4141(2) 0.96507(10)
H23_7 H 0.5726 0.4267 0.9800
C33_7 C 0.5102(3) 0.4686(3) 0.94381(10)
H24_7 H 0.5316 0.5180 0.9444
C34_7 C 0.4549(2) 0.4516(2) 0.92178(9)
C35_7 C 0.4224(2) 0.3795(2) 0.92166(9)
H25_7 H 0.3834 0.3677 0.9071
C36_7 C 0.4473(2) 0.3253(2) 0.94284(9)
H26_7 H 0.4251 0.2763 0.9424
C37_7 C 0.4324(3) 0.5064(3) 0.89841(10)
C38_7 C 0.4156(3) 0.5517(3) 0.87867(10)
C39_7 C 0.4006(3) 0.6090(2) 0.85554(9)
C40_7 C 0.4152(3) 0.6843(3) 0.86252(10)
H27_7 H 0.4316 0.6976 0.8830
C41_7 C 0.4061(3) 0.7410(3) 0.83995(10)
H28_7 H 0.4159 0.7925 0.8451
C42_7 C 0.3829(2) 0.7215(2) 0.81029(9)
C43_7 C 0.3632(3) 0.6473(3) 0.80343(10)
H29_7 H 0.3437 0.6347 0.7833
C44_7 C 0.3722(3) 0.5913(3) 0.82614(10)
H30_7 H 0.3587 0.5404 0.8214
C45_7 C 0.3991(3) 0.8783(3) 0.79703(12)
H31_7 H 0.4509 0.8746 0.8051
H32_7 H 0.3967 0.9183 0.7811
H33_7 H 0.3645 0.8907 0.8143
C46_7 C 0.5560(2) 0.1799(2) 0.96241(8)
C47_7 C 0.6153(2) 0.1870(2) 0.94095(9)
H34_7 H 0.6477 0.2298 0.9423
C48_7 C 0.6283(2) 0.1341(2) 0.91788(9)
H35_7 H 0.6694 0.1407 0.9037
C49_7 C 0.5813(2) 0.0709(2) 0.91520(9)
C50_7 C 0.5215(2) 0.0624(2) 0.93654(10)
H36_7 H 0.4893 0.0194 0.9352
C51_7 C 0.5092(2) 0.1163(2) 0.95939(10)
H37_7 H 0.4679 0.1101 0.9734
C52_7 C 0.5919(2) 0.0160(2) 0.89059(9)
S3_4 S 0.37181(6) 0.78921(6) 0.77980(2)
Si1_7 Si 0.53549(6) 0.25950(6) 0.99025(2)
Ag3_2 Ag 0.48020(2) 0.76184(2) 0.740946(7)
C53_7 C 0.5973(2) 0.9707(2) 0.86986(9)
C54_7 C 0.6011(2) 0.9147(2) 0.84556(9)
C55_7 C 0.6216(2) 0.9339(2) 0.81497(9)
H38_7 H 0.6346 0.9848 0.8101
C56_7 C 0.6233(2) 0.8793(3) 0.79170(9)
H39_7 H 0.6368 0.8930 0.7709
C57_7 C 0.6053(2) 0.8043(2) 0.79859(9)
C58_7 C 0.5868(2) 0.7842(3) 0.82904(10)
H40_7 H 0.5761 0.7327 0.8339
C59_7 C 0.5837(2) 0.8381(3) 0.85230(10)
H41_7 H 0.5698 0.8239 0.8730
C60_7 C 0.6909(3) 0.7480(4) 0.74816(17)
H42_7 H 0.7339 0.7480 0.7627
H43_7 H 0.6977 0.7076 0.7326
H44_7 H 0.6883 0.7970 0.7374
S4_4 S 0.60451(6) 0.73217(7) 0.76964(3)
C16_8 C 0.0430(2) 0.7657(2) 0.51778(9)
C17_8 C 0.1054(3) 0.7175(3) 0.52173(11)
H12_8 H 0.1088 0.6727 0.5095
C18_8 C 0.1621(3) 0.7340(3) 0.54310(11)
H13_8 H 0.2037 0.7004 0.5454
C19_8 C 0.1586(2) 0.7994(3) 0.56118(9)
C20_8 C 0.0963(3) 0.8469(3) 0.55779(10)
H14_8 H 0.0925 0.8915 0.5702
C21_8 C 0.0397(3) 0.8296(3) 0.53640(10)
C22_8 C 0.2166(3) 0.8159(3) 0.58391(10)
C23_8 C 0.2637(2) 0.8278(3) 0.60317(10)
C24_8 C 0.3203(2) 0.8401(3) 0.62717(9)
C25_8 C 0.3953(2) 0.8503(3) 0.61948(9)
H16_8 H 0.4103 0.8503 0.5981
C26_8 C 0.4491(2) 0.8606(3) 0.64274(9)
H17_7 H 0.5008 0.8672 0.6372
C27_8 C 0.4279(2) 0.8613(2) 0.67401(9)
C28_8 C 0.3534(3) 0.8508(3) 0.68193(10)
H18_8 H 0.3388 0.8507 0.7034
C29_8 C 0.2995(3) 0.8403(4) 0.65881(10)
H19_8 H 0.2479 0.8333 0.6645
C30_7 C 0.5833(3) 0.8680(4) 0.68584(14)
H20_7 H 0.5877 0.9061 0.6692
H21_7 H 0.6238 0.8756 0.7012
H22_7 H 0.5877 0.8172 0.6767
C34_8 C 0.0451(2) 0.5484(2) 0.42178(9)
C35_8 C 0.0776(2) 0.6205(2) 0.42166(9)
H25_8 H 0.1166 0.6323 0.4071
C36_8 C 0.0527(2) 0.6747(2) 0.44284(9)
H26_8 H 0.0749 0.7237 0.4424
C37_8 C 0.0676(3) 0.4936(3) 0.39841(10)
C38_8 C 0.0844(3) 0.4483(3) 0.37867(10)
C39_8 C 0.0994(3) 0.3910(2) 0.35554(9)
C40_8 C 0.0848(3) 0.3157(3) 0.36252(10)
H27_8 H 0.0684 0.3024 0.3830
C41_8 C 0.0939(3) 0.2590(3) 0.33995(10)
H28_8 H 0.0841 0.2075 0.3451
C42_8 C 0.1171(2) 0.2785(2) 0.31029(9)
C43_8 C 0.1368(3) 0.3527(3) 0.30343(10)
H29_8 H 0.1563 0.3653 0.2833
C44_8 C 0.1278(3) 0.4087(3) 0.32614(10)
H30_8 H 0.1413 0.4596 0.3214
C45_8 C 0.1009(3) 0.1217(3) 0.29703(12)
H31_8 H 0.0491 0.1254 0.3051
H32_8 H 0.1033 0.0817 0.2811
H33_8 H 0.1355 0.1093 0.3143
H36_8 H 0.0107 0.9806 0.4352
H37_8 H 0.0321 0.8899 0.4734
S2_4 S 0.49429(7) 0.87724(7) 0.70454(2)
C53_8 C 0.9027(2) 0.0293(2) 0.36986(9)
C54_8 C 0.8989(2) 0.0853(2) 0.34556(9)
C55_8 C 0.8784(2) 0.0661(2) 0.31497(9)
H38_8 H 0.8654 0.0152 0.3101
C56_8 C 0.8767(2) 0.1207(3) 0.29170(9)
H39_8 H 0.8632 0.1070 0.2709
C57_8 C 0.8947(2) 0.1957(2) 0.29859(9)
C58_8 C 0.9132(2) 0.2158(3) 0.32904(10)
H40_8 H 0.9239 0.2673 0.3339
C59_8 C 0.9163(2) 0.1619(3) 0.35230(10)
H41_8 H 0.9302 0.1761 0.3730
C60_8 C 0.8091(3) 0.2520(4) 0.24816(17)
H42_8 H 0.7661 0.2520 0.2627
H43_8 H 0.8023 0.2924 0.2326
H44_8 H 0.8117 0.2030 0.2374
C1_8 C 0.8793(2) 0.7178(2) 0.51469(8)
C2_8 C 0.8826(2) 0.6592(2) 0.53654(10)
H1_8 H 0.9259 0.6273 0.5371
C3_8 C 0.8244(2) 0.6464(2) 0.55734(10)
H2_8 H 0.8279 0.6055 0.5717
C4_8 C 0.7606(2) 0.6924(2) 0.55765(9)
C5_8 C 0.7564(3) 0.7514(3) 0.53606(11)
H3_8 H 0.7130 0.7832 0.5357
C6_8 C 0.8156(3) 0.7642(3) 0.51483(10)
H4_8 H 0.8123 0.8050 0.5004
C7_8 C 0.7033(2) 0.6826(3) 0.58130(10)
C8_8 C 0.6605(2) 0.6770(2) 0.60272(10)
C9_8 C 0.6101(2) 0.6699(2) 0.62907(9)
C10_8 C 0.6385(3) 0.6462(3) 0.65825(10)
H5_8 H 0.6912 0.6372 0.6607
C11_8 C 0.5900(3) 0.6358(3) 0.68333(10)
H6_8 H 0.6096 0.6196 0.7030
C12_8 C 0.5134(2) 0.6488(2) 0.68008(9)
C13_8 C 0.4851(2) 0.6731(3) 0.65157(10)
H7_8 H 0.4324 0.6823 0.6493
C14_8 C 0.5330(2) 0.6840(3) 0.62623(10)
H8_8 H 0.5130 0.7013 0.6068
C15_8 C 0.4895(3) 0.5639(3) 0.73550(14)
H9_8 H 0.5388 0.5810 0.7434
H10_8 H 0.4559 0.5529 0.7532
H11_8 H 0.4964 0.5180 0.7229
H15_8 H 0.9975 0.8627 0.5345
C31_8 C 0.9961(2) 0.6594(2) 0.46480(9)
C32_8 C 0.9654(2) 0.5859(2) 0.46507(10)
H23_8 H 0.9274 0.5733 0.4800
C33_8 C 0.9898(3) 0.5314(3) 0.44381(10)
H24_8 H 0.9684 0.4820 0.4444
C46_8 C 0.9440(2) 0.8201(2) 0.46241(8)
C47_8 C 0.8847(2) 0.8130(2) 0.44095(9)
H34_8 H 0.8523 0.7702 0.4423
C48_8 C 0.8717(2) 0.8659(2) 0.41788(9)
H35_8 H 0.8306 0.8593 0.4037
C49_8 C 0.9187(2) 0.9291(2) 0.41520(9)
C50_8 C 0.9785(2) 0.9376(2) 0.43654(10)
C51_8 C 0.9908(2) 0.8837(2) 0.45939(10)
C52_8 C 0.9081(2) 0.9840(2) 0.39059(9)
S1_8 S 0.44811(6) 0.63743(6) 0.71148(2)
Si1_8 Si 0.96451(6) 0.74050(6) 0.49025(2)
H17_8 H 0.9992 0.1328 0.1372
C30_8 C 0.9167(3) 0.1320(4) 0.18584(14)
H20_8 H 0.9123 0.0939 0.1692
H21_8 H 0.8762 0.1244 0.2012
H22_8 H 0.9123 0.1828 0.1767
B1 B 0.7501(3) 0.4951(4) 0.73739(14)
F1 F 0.7144(2) 0.4439(2) 0.75649(8)
F2 F 0.7714(3) 0.4574(3) 0.71151(14)
F3 F 0.8124(3) 0.5249(3) 0.75111(11)
F4 F 0.7035(2) 0.5484(2) 0.72861(13)
B1_2 B 0.7499(3) 0.5049(4) 0.23739(14)
F1_2 F 0.7856(2) 0.5561(2) 0.25649(8)
F2_2 F 0.7286(3) 0.5426(3) 0.21151(14)
F3_2 F 0.6876(3) 0.4751(3) 0.25111(11)
F4_2 F 0.7965(2) 0.4516(2) 0.22861(13)
F3_3 F 0.1876(3) 0.0249(3) 0.74889(11)
F4_3 F 0.2965(2) 0.0484(2) 0.77139(13)
B1_3 B 0.2499(3) 0.9951(4) 0.76261(14)
F1_3 F 0.2856(2) 0.9439(2) 0.74351(8)
F2_3 F 0.2286(3) 0.9574(3) 0.78849(14)
B1_4 B 0.2501(3) 0.0049(4) 0.26261(14)
F1_4 F 0.2144(2) 0.0561(2) 0.24351(8)
F2_4 F 0.2714(3) 0.0426(3) 0.28849(14)
F3_4 F 0.3124(3) 0.9751(3) 0.24889(11)
F4_4 F 0.2035(2) 0.9516(2) 0.27139(13)
B1_5 B 0.2499(3) 0.5049(4) 0.26261(14)
F1_5 F 0.2856(2) 0.5561(2) 0.24351(8)
F2_5 F 0.2286(3) 0.5426(3) 0.28849(14)
F3_5 F 0.1876(3) 0.4751(3) 0.24889(11)
F4_5 F 0.2965(2) 0.4516(2) 0.27139(13)
B1_6 B 0.2501(3) 0.4951(4) 0.76261(14)
F1_6 F 0.2144(2) 0.4439(2) 0.74351(8)
F2_6 F 0.2714(3) 0.4574(3) 0.78849(14)
F3_6 F 0.3124(3) 0.5249(3) 0.74889(11)
F4_6 F 0.2035(2) 0.5484(2) 0.77139(13)
B1_7 B 0.7501(3) 0.0049(4) 0.23739(14)
F1_7 F 0.7144(2) 0.0561(2) 0.25649(8)
F2_7 F 0.7714(3) 0.0426(3) 0.21151(14)
F3_7 F 0.8124(3) 0.9751(3) 0.25111(11)
F4_7 F 0.7035(2) 0.9516(2) 0.22861(13)
F3_8 F 0.6876(3) 0.0249(3) 0.75111(11)
F4_8 F 0.7965(2) 0.0484(2) 0.72861(13)
B1_8 B 0.7499(3) 0.9951(4) 0.73739(14)
F1_8 F 0.7856(2) 0.9439(2) 0.75649(8)
F2_8 F 0.7286(3) 0.9574(3) 0.71151(14)
loop_
_geom_bond_atom_site_label_1
_geom_bond_atom_site_label_2
_geom_bond_site_symmetry_1
_geom_bond_site_symmetry_2
Ag1 S1 1_555 1_555
H7 C13 1_555 1_555
H10 C15 1_555 1_555
H11 C15 1_555 1_555
S5 Ag1 1_555 1_555
S6 Ag1 1_555 1_555
C15 S1 1_555 1_555
C1 C2 1_555 1_555
C2 H1 1_555 1_555
C3 C2 1_555 1_555
H2 C3 1_555 1_555
C4 C3 1_555 1_555
C5 C4 1_555 1_555
H3 C5 1_555 1_555
C6 C1 1_555 1_555
H4 C6 1_555 1_555
C7 C4 1_555 1_555
C8 C7 1_555 1_555
C9 C8 1_555 1_555
C10 C9 1_555 1_555
H5 C10 1_555 1_555
C11 C10 1_555 1_555
H6 C11 1_555 1_555
C12 C11 1_555 1_555
C14 C9 1_555 1_555
H8 C14 1_555 1_555
C16 C17 1_555 1_555
C17 H12 1_555 1_555
C18 C17 1_555 1_555
H13 C18 1_555 1_555
C19 C18 1_555 1_555
C20 C19 1_555 1_555
H14 C20 1_555 1_555
C21 C16 1_555 1_555
H15 C21 1_555 1_555
C22 C19 1_555 1_555
C23 C22 1_555 1_555
C24 C23 1_555 1_555
C25 C24 1_555 1_555
H16 C25 1_555 1_555
C26 C25 1_555 1_555
C27 C26 1_555 1_555
C28 C27 1_555 1_555
H18 C28 1_555 1_555
C29 C24 1_555 1_555
H19 C29 1_555 1_555
C31 C32 1_555 1_555
C32 H23 1_555 1_555
C33 C32 1_555 1_555
C34 C33 1_555 1_555
C35 C34 1_555 1_555
H25 C35 1_555 1_555
C36 C31 1_555 1_555
H26 C36 1_555 1_555
C46 C47 1_555 1_555
C47 H34 1_555 1_555
C48 C47 1_555 1_555
H35 C48 1_555 1_555
C49 C48 1_555 1_555
C50 C49 1_555 1_555
H36 C50 1_555 1_555
C51 C46 1_555 1_555
H37 C51 1_555 1_555
C52 C49 1_555 1_555
C53 C52 1_555 1_555
C54 C53 1_555 1_555
C55 C54 1_555 1_555
H38 C55 1_555 1_555
C56 C55 1_555 1_555
H39 C56 1_555 1_555
C57 C56 1_555 1_555
C58 C57 1_555 1_555
H40 C58 1_555 1_555
C59 C54 1_555 1_555
H41 C59 1_555 1_555
C60 H42 1_555 1_555
H43 C60 1_555 1_555
H44 C60 1_555 1_555
S5 C27 1_555 1_555
S4 C57 1_555 1_555
Si1 C1 1_555 1_555
Ag4 S4 1_555 1_555
C5 C6 1_555 1_555
C16 Si1 1_555 1_555
C20 C21 1_555 1_555
C28 C29 1_555 1_555
C31 Si1 1_555 1_555
C35 C36 1_555 1_555
C46 Si1 1_555 1_555
C50 C51 1_555 1_555
C58 C59 1_555 1_555
C60 S4 1_555 1_555
C38 C37 1_555 1_555
C39 C38 1_555 1_555
C40 C39 1_555 1_555
H27 C40 1_555 1_555
C41 C40 1_555 1_555
H28 C41 1_555 1_555
C42 C41 1_555 1_555
C43 C42 1_555 1_555
H29 C43 1_555 1_555
C44 C39 1_555 1_555
H30 C44 1_555 1_555
C45 H31 1_555 1_555
H32 C45 1_555 1_555
H33 C45 1_555 1_555
S3 C42 1_555 1_555
Ag4 S3 1_555 1_555
C43 C44 1_555 1_555
C45 S3 1_555 1_555
C38_2 C37_2 1_555 1_555
C39_2 C38_2 1_555 1_555
C40_2 C39_2 1_555 1_555
H27_2 C40_2 1_555 1_555
C41_2 C40_2 1_555 1_555
H28_2 C41_2 1_555 1_555
C42_2 C41_2 1_555 1_555
C43_2 C42_2 1_555 1_555
H29_2 C43_2 1_555 1_555
C44_2 C39_2 1_555 1_555
H30_2 C44_2 1_555 1_555
C45_2 H31_2 1_555 1_555
H32_2 C45_2 1_555 1_555
H33_2 C45_2 1_555 1_555
S6 C42_2 1_555 1_555
C43_2 C44_2 1_555 1_555
C45_2 S6 1_555 1_555
C16_2 C17_2 1_555 1_555
C17_2 H12_2 1_555 1_555
C18_2 C17_2 1_555 1_555
H13_2 C18_2 1_555 1_555
C19_2 C18_2 1_555 1_555
C20_2 C19_2 1_555 1_555
H14_2 C20_2 1_555 1_555
C21_2 C16_2 1_555 1_555
C22_2 C19_2 1_555 1_555
C23_2 C22_2 1_555 1_555
C24_2 C23_2 1_555 1_555
C25_2 C24_2 1_555 1_555
H16_2 C25_2 1_555 1_555
C26_2 C25_2 1_555 1_555
H17 C26_2 1_555 1_555
C27_2 C26_2 1_555 1_555
C28_2 C27_2 1_555 1_555
H18_2 C28_2 1_555 1_555
C29_2 C24_2 1_555 1_555
H19_2 C29_2 1_555 1_555
C30 H20 1_555 1_555
H21 C30 1_555 1_555
H22 C30 1_555 1_555
S2 C27_2 1_555 1_555
Ag4 S2 1_555 1_555
C20_2 C21_2 1_555 1_555
C28_2 C29_2 1_555 1_555
C30 S2 1_555 1_555
C35_2 C34_2 1_555 1_555
H25_2 C35_2 1_555 1_555
H26_2 C36_2 1_555 1_555
C35_2 C36_2 1_555 1_555
Ag4 S1_2 1_555 1_555
C1_2 C2_2 1_555 1_555
C2_2 H1_2 1_555 1_555
C3_2 C2_2 1_555 1_555
H2_2 C3_2 1_555 1_555
C4_2 C3_2 1_555 1_555
C5_2 C4_2 1_555 1_555
H3_2 C5_2 1_555 1_555
C6_2 C1_2 1_555 1_555
H4_2 C6_2 1_555 1_555
C7_2 C4_2 1_555 1_555
C8_2 C7_2 1_555 1_555
C9_2 C8_2 1_555 1_555
C10_2 C9_2 1_555 1_555
H5_2 C10_2 1_555 1_555
C11_2 C10_2 1_555 1_555
H6_2 C11_2 1_555 1_555
C12_2 C11_2 1_555 1_555
C13_2 C12_2 1_555 1_555
H7_2 C13_2 1_555 1_555
C14_2 C9_2 1_555 1_555
H8_2 C14_2 1_555 1_555
C15_2 H9_2 1_555 1_555
H10_2 C15_2 1_555 1_555
H11_2 C15_2 1_555 1_555
S1_2 C12_2 1_555 1_555
C5_2 C6_2 1_555 1_555
C13_2 C14_2 1_555 1_555
C15_2 S1_2 1_555 1_555
C31_2 C32_2 1_555 1_555
C32_2 H23_2 1_555 1_555
C33_2 C32_2 1_555 1_555
C46_2 C47_2 1_555 1_555
C47_2 H34_2 1_555 1_555
C48_2 C47_2 1_555 1_555
H35_2 C48_2 1_555 1_555
C49_2 C48_2 1_555 1_555
C50_2 C49_2 1_555 1_555
C51_2 C46_2 1_555 1_555
C52_2 C49_2 1_555 1_555
C53_2 C52_2 1_555 1_555
C54_2 C53_2 1_555 1_555
C55_2 C54_2 1_555 1_555
H38_2 C55_2 1_555 1_555
C56_2 C55_2 1_555 1_555
H39_2 C56_2 1_555 1_555
C57_2 C56_2 1_555 1_555
C58_2 C57_2 1_555 1_555
H40_2 C58_2 1_555 1_555
C59_2 C54_2 1_555 1_555
H41_2 C59_2 1_555 1_555
C60_2 H42_2 1_555 1_555
H43_2 C60_2 1_555 1_555
H44_2 C60_2 1_555 1_555
S7 C57_2 1_555 1_555
C31_2 Si1_2 1_555 1_555
C46_2 Si1_2 1_555 1_555
C50_2 C51_2 1_555 1_555
C58_2 C59_2 1_555 1_555
C60_2 S7 1_555 1_555
C30_2 H20_2 1_555 1_555
H21_2 C30_2 1_555 1_555
H22_2 C30_2 1_555 1_555
C30_3 H20_3 1_555 1_555
H21_3 C30_3 1_555 1_555
H22_3 C30_3 1_555 1_555
C54_3 C53_3 1_555 1_555
C55_3 C54_3 1_555 1_555
H38_3 C55_3 1_555 1_555
C56_3 C55_3 1_555 1_555
H39_3 C56_3 1_555 1_555
C57_3 C56_3 1_555 1_555
C58_3 C57_3 1_555 1_555
H40_3 C58_3 1_555 1_555
C59_3 C54_3 1_555 1_555
H41_3 C59_3 1_555 1_555
C60_3 H42_3 1_555 1_555
H43_3 C60_3 1_555 1_555
H44_3 C60_3 1_555 1_555
S4_2 C57_3 1_555 1_555
Ag4_2 S4_2 1_555 1_555
C58_3 C59_3 1_555 1_555
C60_3 S4_2 1_555 1_555
C31_3 C32_3 1_555 1_555
C32_3 H23_3 1_555 1_555
C33_3 C32_3 1_555 1_555
H24_3 C33_3 1_555 1_555
C34_3 C33_3 1_555 1_555
C35_3 C34_3 1_555 1_555
H25_3 C35_3 1_555 1_555
C36_3 C31_3 1_555 1_555
H26_3 C36_3 1_555 1_555
C37_3 C34_3 1_555 1_555
C38_3 C37_3 1_555 1_555
C39_3 C38_3 1_555 1_555
C40_3 C39_3 1_555 1_555
H27_3 C40_3 1_555 1_555
C41_3 C40_3 1_555 1_555
H28_3 C41_3 1_555 1_555
C42_3 C41_3 1_555 1_555
C43_3 C42_3 1_555 1_555
H29_3 C43_3 1_555 1_555
C44_3 C39_3 1_555 1_555
H30_3 C44_3 1_555 1_555
C45_3 H31_3 1_555 1_555
H32_3 C45_3 1_555 1_555
H33_3 C45_3 1_555 1_555
C46_3 C47_3 1_555 1_555
C47_3 H34_3 1_555 1_555
C48_3 C47_3 1_555 1_555
H35_3 C48_3 1_555 1_555
C49_3 C48_3 1_555 1_555
C50_3 C49_3 1_555 1_555
H36_3 C50_3 1_555 1_555
C51_3 C46_3 1_555 1_555
H37_3 C51_3 1_555 1_555
C52_3 C49_3 1_555 1_555
S3_2 C42_3 1_555 1_555
Ag4_2 S3_2 1_555 1_555
C31_3 Si1_3 1_555 1_555
C35_3 C36_3 1_555 1_555
C43_3 C44_3 1_555 1_555
C45_3 S3_2 1_555 1_555
C46_3 Si1_3 1_555 1_555
C50_3 C51_3 1_555 1_555
C1_3 C2_3 1_555 1_555
C2_3 H1_3 1_555 1_555
C3_3 C2_3 1_555 1_555
H2_3 C3_3 1_555 1_555
C4_3 C3_3 1_555 1_555
C5_3 C4_3 1_555 1_555
H3_3 C5_3 1_555 1_555
C6_3 C1_3 1_555 1_555
H4_3 C6_3 1_555 1_555
C7_3 C4_3 1_555 1_555
C8_3 C7_3 1_555 1_555
C9_3 C8_3 1_555 1_555
C10_3 C9_3 1_555 1_555
H5_3 C10_3 1_555 1_555
C11_3 C10_3 1_555 1_555
H6_3 C11_3 1_555 1_555
C12_3 C11_3 1_555 1_555
C14_3 C9_3 1_555 1_555
H8_3 C14_3 1_555 1_555
C16_3 C17_3 1_555 1_555
C17_3 H12_3 1_555 1_555
C18_3 C17_3 1_555 1_555
H13_3 C18_3 1_555 1_555
C19_3 C18_3 1_555 1_555
C20_3 C19_3 1_555 1_555
H14_3 C20_3 1_555 1_555
C21_3 C16_3 1_555 1_555
H15_3 C21_3 1_555 1_555
C22_3 C19_3 1_555 1_555
C23_3 C22_3 1_555 1_555
C24_3 C23_3 1_555 1_555
C25_3 C24_3 1_555 1_555
H16_3 C25_3 1_555 1_555
C26_3 C25_3 1_555 1_555
C27_3 C26_3 1_555 1_555
C28_3 C27_3 1_555 1_555
H18_3 C28_3 1_555 1_555
C29_3 C24_3 1_555 1_555
H19_3 C29_3 1_555 1_555
S2_2 C27_3 1_555 1_555
Ag2 S2_2 1_555 1_555
C5_3 C6_3 1_555 1_555
C20_3 C21_3 1_555 1_555
C28_3 C29_3 1_555 1_555
Ag2 S1_3 1_555 1_555
H7_3 C13_3 1_555 1_555
H10_3 C15_3 1_555 1_555
H11_3 C15_3 1_555 1_555
S6_2 Ag2 1_555 1_555
C15_3 S1_3 1_555 1_555
Ag4_2 S1_4 1_555 1_555
C1_4 C2_4 1_555 1_555
C2_4 H1_4 1_555 1_555
C3_4 C2_4 1_555 1_555
H2_4 C3_4 1_555 1_555
C4_4 C3_4 1_555 1_555
C5_4 C4_4 1_555 1_555
H3_4 C5_4 1_555 1_555
C6_4 C1_4 1_555 1_555
H4_4 C6_4 1_555 1_555
C7_4 C4_4 1_555 1_555
C8_4 C7_4 1_555 1_555
C9_4 C8_4 1_555 1_555
C10_4 C9_4 1_555 1_555
H5_4 C10_4 1_555 1_555
C11_4 C10_4 1_555 1_555
H6_4 C11_4 1_555 1_555
C12_4 C11_4 1_555 1_555
C13_4 C12_4 1_555 1_555
H7_4 C13_4 1_555 1_555
C14_4 C9_4 1_555 1_555
H8_4 C14_4 1_555 1_555
C15_4 H9_4 1_555 1_555
H10_4 C15_4 1_555 1_555
H11_4 C15_4 1_555 1_555
C31_4 C32_4 1_555 1_555
C32_4 H23_4 1_555 1_555
C33_4 C32_4 1_555 1_555
H24_4 C33_4 1_555 1_555
C46_4 C47_4 1_555 1_555
C47_4 H34_4 1_555 1_555
C48_4 C47_4 1_555 1_555
H35_4 C48_4 1_555 1_555
C49_4 C48_4 1_555 1_555
C50_4 C49_4 1_555 1_555
C51_4 C46_4 1_555 1_555
C52_4 C49_4 1_555 1_555
S1_4 C12_4 1_555 1_555
Si1_4 C1_4 1_555 1_555
S5_2 Ag4_2 1_555 1_555
C5_4 C6_4 1_555 1_555
C13_4 C14_4 1_555 1_555
C15_4 S1_4 1_555 1_555
C31_4 Si1_4 1_555 1_555
C46_4 Si1_4 1_555 1_555
C50_4 C51_4 1_555 1_555
C54_4 C53_4 1_555 1_555
C55_4 C54_4 1_555 1_555
H38_4 C55_4 1_555 1_555
C56_4 C55_4 1_555 1_555
H39_4 C56_4 1_555 1_555
C57_4 C56_4 1_555 1_555
C58_4 C57_4 1_555 1_555
H40_4 C58_4 1_555 1_555
C59_4 C54_4 1_555 1_555
H41_4 C59_4 1_555 1_555
C60_4 H42_4 1_555 1_555
H43_4 C60_4 1_555 1_555
H44_4 C60_4 1_555 1_555
S7_2 C57_4 1_555 1_555
C58_4 C59_4 1_555 1_555
C60_4 S7_2 1_555 1_555
C16_4 C17_4 1_555 1_555
C17_4 H12_4 1_555 1_555
C18_4 C17_4 1_555 1_555
H13_4 C18_4 1_555 1_555
C19_4 C18_4 1_555 1_555
C20_4 C19_4 1_555 1_555
H14_4 C20_4 1_555 1_555
C21_4 C16_4 1_555 1_555
C22_4 C19_4 1_555 1_555
C23_4 C22_4 1_555 1_555
C24_4 C23_4 1_555 1_555
C25_4 C24_4 1_555 1_555
H16_4 C25_4 1_555 1_555
C26_4 C25_4 1_555 1_555
H17_4 C26_4 1_555 1_555
C27_4 C26_4 1_555 1_555
C28_4 C27_4 1_555 1_555
H18_4 C28_4 1_555 1_555
C29_4 C24_4 1_555 1_555
H19_4 C29_4 1_555 1_555
C30_4 H20_4 1_555 1_555
H21_4 C30_4 1_555 1_555
H22_4 C30_4 1_555 1_555
C35_4 C34_4 1_555 1_555
H25_4 C35_4 1_555 1_555
H26_4 C36_4 1_555 1_555
C37_4 C34_4 1_555 1_555
C38_4 C37_4 1_555 1_555
C39_4 C38_4 1_555 1_555
C40_4 C39_4 1_555 1_555
H27_4 C40_4 1_555 1_555
C41_4 C40_4 1_555 1_555
H28_4 C41_4 1_555 1_555
C42_4 C41_4 1_555 1_555
C43_4 C42_4 1_555 1_555
H29_4 C43_4 1_555 1_555
C44_4 C39_4 1_555 1_555
H30_4 C44_4 1_555 1_555
C45_4 H31_4 1_555 1_555
H32_4 C45_4 1_555 1_555
H33_4 C45_4 1_555 1_555
S5_2 C27_4 1_555 1_555
S6_2 C42_4 1_555 1_555
C20_4 C21_4 1_555 1_555
C28_4 C29_4 1_555 1_555
C30_4 S5_2 1_555 1_555
C35_4 C36_4 1_555 1_555
C43_4 C44_4 1_555 1_555
C45_4 S6_2 1_555 1_555
C30_5 H20_5 1_555 1_555
H21_5 C30_5 1_555 1_555
H22_5 C30_5 1_555 1_555
C38_5 C37_5 1_555 1_555
C39_5 C38_5 1_555 1_555
C40_5 C39_5 1_555 1_555
H27_5 C40_5 1_555 1_555
C41_5 C40_5 1_555 1_555
H28_5 C41_5 1_555 1_555
C42_5 C41_5 1_555 1_555
C43_5 C42_5 1_555 1_555
H29_5 C43_5 1_555 1_555
C44_5 C39_5 1_555 1_555
H30_5 C44_5 1_555 1_555
C45_5 H31_5 1_555 1_555
H32_5 C45_5 1_555 1_555
H33_5 C45_5 1_555 1_555
S3_3 C42_5 1_555 1_555
Ag3 S3_3 1_555 1_555
C43_5 C44_5 1_555 1_555
C45_5 S3_3 1_555 1_555
C1_5 C2_5 1_555 1_555
C2_5 H1_5 1_555 1_555
C3_5 C2_5 1_555 1_555
H2_5 C3_5 1_555 1_555
C4_5 C3_5 1_555 1_555
C5_5 C4_5 1_555 1_555
H3_5 C5_5 1_555 1_555
C6_5 C1_5 1_555 1_555
H4_5 C6_5 1_555 1_555
C7_5 C4_5 1_555 1_555
C8_5 C7_5 1_555 1_555
C9_5 C8_5 1_555 1_555
C10_5 C9_5 1_555 1_555
H5_5 C10_5 1_555 1_555
C11_5 C10_5 1_555 1_555
H6_5 C11_5 1_555 1_555
C12_5 C11_5 1_555 1_555
C14_5 C9_5 1_555 1_555
H8_5 C14_5 1_555 1_555
C16_5 C17_5 1_555 1_555
C17_5 H12_5 1_555 1_555
C18_5 C17_5 1_555 1_555
H13_5 C18_5 1_555 1_555
C19_5 C18_5 1_555 1_555
C20_5 C19_5 1_555 1_555
H14_5 C20_5 1_555 1_555
C21_5 C16_5 1_555 1_555
H15_5 C21_5 1_555 1_555
C22_5 C19_5 1_555 1_555
C23_5 C22_5 1_555 1_555
C24_5 C23_5 1_555 1_555
C25_5 C24_5 1_555 1_555
H16_5 C25_5 1_555 1_555
C26_5 C25_5 1_555 1_555
C27_5 C26_5 1_555 1_555
C28_5 C27_5 1_555 1_555
H18_5 C28_5 1_555 1_555
C29_5 C24_5 1_555 1_555
H19_5 C29_5 1_555 1_555
C31_5 C32_5 1_555 1_555
C32_5 H23_5 1_555 1_555
C33_5 C32_5 1_555 1_555
C34_5 C33_5 1_555 1_555
C35_5 C34_5 1_555 1_555
H25_5 C35_5 1_555 1_555
C36_5 C31_5 1_555 1_555
H26_5 C36_5 1_555 1_555
C46_5 C47_5 1_555 1_555
C47_5 H34_5 1_555 1_555
C48_5 C47_5 1_555 1_555
H35_5 C48_5 1_555 1_555
C49_5 C48_5 1_555 1_555
C50_5 C49_5 1_555 1_555
H36_5 C50_5 1_555 1_555
C51_5 C46_5 1_555 1_555
H37_5 C51_5 1_555 1_555
C52_5 C49_5 1_555 1_555
C53_5 C52_5 1_555 1_555
C54_5 C53_5 1_555 1_555
C55_5 C54_5 1_555 1_555
H38_5 C55_5 1_555 1_555
C56_5 C55_5 1_555 1_555
H39_5 C56_5 1_555 1_555
C57_5 C56_5 1_555 1_555
C58_5 C57_5 1_555 1_555
H40_5 C58_5 1_555 1_555
C59_5 C54_5 1_555 1_555
H41_5 C59_5 1_555 1_555
C60_5 H42_5 1_555 1_555
H43_5 C60_5 1_555 1_555
H44_5 C60_5 1_555 1_555
S2_3 C27_5 1_555 1_555
S4_3 C57_5 1_555 1_555
Si1_5 C1_5 1_555 1_555
Ag2_2 S2_3 1_555 1_555
Ag3 S4_3 1_555 1_555
C5_5 C6_5 1_555 1_555
C16_5 Si1_5 1_555 1_555
C20_5 C21_5 1_555 1_555
C28_5 C29_5 1_555 1_555
C31_5 Si1_5 1_555 1_555
C35_5 C36_5 1_555 1_555
C46_5 Si1_5 1_555 1_555
C50_5 C51_5 1_555 1_555
C58_5 C59_5 1_555 1_555
C60_5 S4_3 1_555 1_555
Ag2_2 S1_5 1_555 1_555
H7_5 C13_5 1_555 1_555
H10_5 C15_5 1_555 1_555
H11_5 C15_5 1_555 1_555
S6_3 Ag2_2 1_555 1_555
C15_5 S1_5 1_555 1_555
C31_6 C32_6 1_555 1_555
C32_6 H23_6 1_555 1_555
C33_6 C32_6 1_555 1_555
C46_6 C47_6 1_555 1_555
C47_6 H34_6 1_555 1_555
C48_6 C47_6 1_555 1_555
H35_6 C48_6 1_555 1_555
C49_6 C48_6 1_555 1_555
C50_6 C49_6 1_555 1_555
C51_6 C46_6 1_555 1_555
C52_6 C49_6 1_555 1_555
C53_6 C52_6 1_555 1_555
C54_6 C53_6 1_555 1_555
C55_6 C54_6 1_555 1_555
H38_6 C55_6 1_555 1_555
C56_6 C55_6 1_555 1_555
H39_6 C56_6 1_555 1_555
C57_6 C56_6 1_555 1_555
C58_6 C57_6 1_555 1_555
H40_6 C58_6 1_555 1_555
C59_6 C54_6 1_555 1_555
H41_6 C59_6 1_555 1_555
C60_6 H42_6 1_555 1_555
H43_6 C60_6 1_555 1_555
H44_6 C60_6 1_555 1_555
S7_3 C57_6 1_555 1_555
C31_6 Si1_6 1_555 1_555
C46_6 Si1_6 1_555 1_555
C50_6 C51_6 1_555 1_555
C58_6 C59_6 1_555 1_555
C60_6 S7_3 1_555 1_555
Ag3 S1_6 1_555 1_555
C1_6 C2_6 1_555 1_555
C2_6 H1_6 1_555 1_555
C3_6 C2_6 1_555 1_555
H2_6 C3_6 1_555 1_555
C4_6 C3_6 1_555 1_555
C5_6 C4_6 1_555 1_555
H3_6 C5_6 1_555 1_555
C6_6 C1_6 1_555 1_555
H4_6 C6_6 1_555 1_555
C7_6 C4_6 1_555 1_555
C8_6 C7_6 1_555 1_555
C9_6 C8_6 1_555 1_555
C10_6 C9_6 1_555 1_555
H5_6 C10_6 1_555 1_555
C11_6 C10_6 1_555 1_555
H6_6 C11_6 1_555 1_555
C12_6 C11_6 1_555 1_555
C13_6 C12_6 1_555 1_555
H7_6 C13_6 1_555 1_555
C14_6 C9_6 1_555 1_555
H8_6 C14_6 1_555 1_555
C15_6 H9_6 1_555 1_555
H10_6 C15_6 1_555 1_555
H11_6 C15_6 1_555 1_555
S1_6 C12_6 1_555 1_555
S5_3 Ag3 1_555 1_555
C5_6 C6_6 1_555 1_555
C13_6 C14_6 1_555 1_555
C15_6 S1_6 1_555 1_555
C35_6 C34_6 1_555 1_555
H25_6 C35_6 1_555 1_555
H26_6 C36_6 1_555 1_555
C35_6 C36_6 1_555 1_555
C16_6 C17_6 1_555 1_555
C17_6 H12_6 1_555 1_555
C18_6 C17_6 1_555 1_555
H13_6 C18_6 1_555 1_555
C19_6 C18_6 1_555 1_555
C20_6 C19_6 1_555 1_555
H14_6 C20_6 1_555 1_555
C21_6 C16_6 1_555 1_555
C22_6 C19_6 1_555 1_555
C23_6 C22_6 1_555 1_555
C24_6 C23_6 1_555 1_555
C25_6 C24_6 1_555 1_555
H16_6 C25_6 1_555 1_555
C26_6 C25_6 1_555 1_555
H17_6 C26_6 1_555 1_555
C27_6 C26_6 1_555 1_555
C28_6 C27_6 1_555 1_555
H18_6 C28_6 1_555 1_555
C29_6 C24_6 1_555 1_555
H19_6 C29_6 1_555 1_555
C30_6 H20_6 1_555 1_555
H21_6 C30_6 1_555 1_555
H22_6 C30_6 1_555 1_555
S5_3 C27_6 1_555 1_555
C20_6 C21_6 1_555 1_555
C28_6 C29_6 1_555 1_555
C30_6 S5_3 1_555 1_555
C38_6 C37_6 1_555 1_555
C39_6 C38_6 1_555 1_555
C40_6 C39_6 1_555 1_555
H27_6 C40_6 1_555 1_555
C41_6 C40_6 1_555 1_555
H28_6 C41_6 1_555 1_555
C42_6 C41_6 1_555 1_555
C43_6 C42_6 1_555 1_555
H29_6 C43_6 1_555 1_555
C44_6 C39_6 1_555 1_555
H30_6 C44_6 1_555 1_555
C45_6 H31_6 1_555 1_555
H32_6 C45_6 1_555 1_555
H33_6 C45_6 1_555 1_555
S6_3 C42_6 1_555 1_555
C43_6 C44_6 1_555 1_555
C45_6 S6_3 1_555 1_555
Ag1_2 S1_7 1_555 1_555
H7_7 C13_7 1_555 1_555
H10_7 C15_7 1_555 1_555
H11_7 C15_7 1_555 1_555
S5_4 Ag1_2 1_555 1_555
S6_4 Ag1_2 1_555 1_555
C15_7 S1_7 1_555 1_555
C1_7 C2_7 1_555 1_555
C2_7 H1_7 1_555 1_555
C3_7 C2_7 1_555 1_555
H2_7 C3_7 1_555 1_555
C4_7 C3_7 1_555 1_555
C5_7 C4_7 1_555 1_555
H3_7 C5_7 1_555 1_555
C6_7 C1_7 1_555 1_555
H4_7 C6_7 1_555 1_555
C7_7 C4_7 1_555 1_555
C8_7 C7_7 1_555 1_555
C9_7 C8_7 1_555 1_555
C10_7 C9_7 1_555 1_555
H5_7 C10_7 1_555 1_555
C11_7 C10_7 1_555 1_555
H6_7 C11_7 1_555 1_555
C12_7 C11_7 1_555 1_555
C14_7 C9_7 1_555 1_555
H8_7 C14_7 1_555 1_555
C16_7 C17_7 1_555 1_555
C17_7 H12_7 1_555 1_555
C18_7 C17_7 1_555 1_555
H13_7 C18_7 1_555 1_555
C19_7 C18_7 1_555 1_555
C20_7 C19_7 1_555 1_555
H14_7 C20_7 1_555 1_555
C21_7 C16_7 1_555 1_555
H15_7 C21_7 1_555 1_555
C22_7 C19_7 1_555 1_555
C23_7 C22_7 1_555 1_555
C24_7 C23_7 1_555 1_555
C25_7 C24_7 1_555 1_555
H16_7 C25_7 1_555 1_555
C26_7 C25_7 1_555 1_555
C27_7 C26_7 1_555 1_555
C28_7 C27_7 1_555 1_555
H18_7 C28_7 1_555 1_555
C29_7 C24_7 1_555 1_555
H19_7 C29_7 1_555 1_555
S5_4 C27_7 1_555 1_555
C5_7 C6_7 1_555 1_555
C20_7 C21_7 1_555 1_555
C28_7 C29_7 1_555 1_555
C31_7 C32_7 1_555 1_555
C32_7 H23_7 1_555 1_555
C33_7 C32_7 1_555 1_555
H24_7 C33_7 1_555 1_555
C34_7 C33_7 1_555 1_555
C35_7 C34_7 1_555 1_555
H25_7 C35_7 1_555 1_555
C36_7 C31_7 1_555 1_555
H26_7 C36_7 1_555 1_555
C37_7 C34_7 1_555 1_555
C38_7 C37_7 1_555 1_555
C39_7 C38_7 1_555 1_555
C40_7 C39_7 1_555 1_555
H27_7 C40_7 1_555 1_555
C41_7 C40_7 1_555 1_555
H28_7 C41_7 1_555 1_555
C42_7 C41_7 1_555 1_555
C43_7 C42_7 1_555 1_555
H29_7 C43_7 1_555 1_555
C44_7 C39_7 1_555 1_555
H30_7 C44_7 1_555 1_555
C45_7 H31_7 1_555 1_555
H32_7 C45_7 1_555 1_555
H33_7 C45_7 1_555 1_555
C46_7 C47_7 1_555 1_555
C47_7 H34_7 1_555 1_555
C48_7 C47_7 1_555 1_555
H35_7 C48_7 1_555 1_555
C49_7 C48_7 1_555 1_555
C50_7 C49_7 1_555 1_555
H36_7 C50_7 1_555 1_555
C51_7 C46_7 1_555 1_555
H37_7 C51_7 1_555 1_555
C52_7 C49_7 1_555 1_555
S3_4 C42_7 1_555 1_555
Ag3_2 S3_4 1_555 1_555
C31_7 Si1_7 1_555 1_555
C35_7 C36_7 1_555 1_555
C43_7 C44_7 1_555 1_555
C45_7 S3_4 1_555 1_555
C46_7 Si1_7 1_555 1_555
C50_7 C51_7 1_555 1_555
C54_7 C53_7 1_555 1_555
C55_7 C54_7 1_555 1_555
H38_7 C55_7 1_555 1_555
C56_7 C55_7 1_555 1_555
H39_7 C56_7 1_555 1_555
C57_7 C56_7 1_555 1_555
C58_7 C57_7 1_555 1_555
H40_7 C58_7 1_555 1_555
C59_7 C54_7 1_555 1_555
H41_7 C59_7 1_555 1_555
C60_7 H42_7 1_555 1_555
H43_7 C60_7 1_555 1_555
H44_7 C60_7 1_555 1_555
S4_4 C57_7 1_555 1_555
Ag3_2 S4_4 1_555 1_555
C58_7 C59_7 1_555 1_555
C60_7 S4_4 1_555 1_555
C16_8 C17_8 1_555 1_555
C17_8 H12_8 1_555 1_555
C18_8 C17_8 1_555 1_555
H13_8 C18_8 1_555 1_555
C19_8 C18_8 1_555 1_555
C20_8 C19_8 1_555 1_555
H14_8 C20_8 1_555 1_555
C21_8 C16_8 1_555 1_555
C22_8 C19_8 1_555 1_555
C23_8 C22_8 1_555 1_555
C24_8 C23_8 1_555 1_555
C25_8 C24_8 1_555 1_555
H16_8 C25_8 1_555 1_555
C26_8 C25_8 1_555 1_555
H17_7 C26_8 1_555 1_555
C27_8 C26_8 1_555 1_555
C28_8 C27_8 1_555 1_555
H18_8 C28_8 1_555 1_555
C29_8 C24_8 1_555 1_555
H19_8 C29_8 1_555 1_555
C30_7 H20_7 1_555 1_555
H21_7 C30_7 1_555 1_555
H22_7 C30_7 1_555 1_555
C35_8 C34_8 1_555 1_555
H25_8 C35_8 1_555 1_555
H26_8 C36_8 1_555 1_555
C37_8 C34_8 1_555 1_555
C38_8 C37_8 1_555 1_555
C39_8 C38_8 1_555 1_555
C40_8 C39_8 1_555 1_555
H27_8 C40_8 1_555 1_555
C41_8 C40_8 1_555 1_555
H28_8 C41_8 1_555 1_555
C42_8 C41_8 1_555 1_555
C43_8 C42_8 1_555 1_555
H29_8 C43_8 1_555 1_555
C44_8 C39_8 1_555 1_555
H30_8 C44_8 1_555 1_555
C45_8 H31_8 1_555 1_555
H32_8 C45_8 1_555 1_555
H33_8 C45_8 1_555 1_555
S2_4 C27_8 1_555 1_555
S6_4 C42_8 1_555 1_555
Ag3_2 S2_4 1_555 1_555
C20_8 C21_8 1_555 1_555
C28_8 C29_8 1_555 1_555
C30_7 S2_4 1_555 1_555
C35_8 C36_8 1_555 1_555
C43_8 C44_8 1_555 1_555
C45_8 S6_4 1_555 1_555
C54_8 C53_8 1_555 1_555
C55_8 C54_8 1_555 1_555
H38_8 C55_8 1_555 1_555
C56_8 C55_8 1_555 1_555
H39_8 C56_8 1_555 1_555
C57_8 C56_8 1_555 1_555
C58_8 C57_8 1_555 1_555
H40_8 C58_8 1_555 1_555
C59_8 C54_8 1_555 1_555
H41_8 C59_8 1_555 1_555
C60_8 H42_8 1_555 1_555
H43_8 C60_8 1_555 1_555
H44_8 C60_8 1_555 1_555
S7_4 C57_8 1_555 1_555
C58_8 C59_8 1_555 1_555
C60_8 S7_4 1_555 1_555
Ag3_2 S1_8 1_555 1_555
C1_8 C2_8 1_555 1_555
C2_8 H1_8 1_555 1_555
C3_8 C2_8 1_555 1_555
H2_8 C3_8 1_555 1_555
C4_8 C3_8 1_555 1_555
C5_8 C4_8 1_555 1_555
H3_8 C5_8 1_555 1_555
C6_8 C1_8 1_555 1_555
H4_8 C6_8 1_555 1_555
C7_8 C4_8 1_555 1_555
C8_8 C7_8 1_555 1_555
C9_8 C8_8 1_555 1_555
C10_8 C9_8 1_555 1_555
H5_8 C10_8 1_555 1_555
C11_8 C10_8 1_555 1_555
H6_8 C11_8 1_555 1_555
C12_8 C11_8 1_555 1_555
C13_8 C12_8 1_555 1_555
H7_8 C13_8 1_555 1_555
C14_8 C9_8 1_555 1_555
H8_8 C14_8 1_555 1_555
C15_8 H9_8 1_555 1_555
H10_8 C15_8 1_555 1_555
H11_8 C15_8 1_555 1_555
C31_8 C32_8 1_555 1_555
C32_8 H23_8 1_555 1_555
C33_8 C32_8 1_555 1_555
H24_8 C33_8 1_555 1_555
C46_8 C47_8 1_555 1_555
C47_8 H34_8 1_555 1_555
C48_8 C47_8 1_555 1_555
H35_8 C48_8 1_555 1_555
C49_8 C48_8 1_555 1_555
C50_8 C49_8 1_555 1_555
C51_8 C46_8 1_555 1_555
C52_8 C49_8 1_555 1_555
S1_8 C12_8 1_555 1_555
Si1_8 C1_8 1_555 1_555
C5_8 C6_8 1_555 1_555
C13_8 C14_8 1_555 1_555
C15_8 S1_8 1_555 1_555
C31_8 Si1_8 1_555 1_555
C46_8 Si1_8 1_555 1_555
C50_8 C51_8 1_555 1_555
C30_8 H20_8 1_555 1_555
H21_8 C30_8 1_555 1_555
H22_8 C30_8 1_555 1_555
B1 F1 1_555 1_555
F2 B1 1_555 1_555
F3 B1 1_555 1_555
F4 B1 1_555 1_555
B1_2 F1_2 1_555 1_555
F2_2 B1_2 1_555 1_555
F3_2 B1_2 1_555 1_555
F4_2 B1_2 1_555 1_555
B1_3 F1_3 1_555 1_555
F2_3 B1_3 1_555 1_555
B1_4 F1_4 1_555 1_555
F2_4 B1_4 1_555 1_555
B1_5 F1_5 1_555 1_555
F2_5 B1_5 1_555 1_555
F3_5 B1_5 1_555 1_555
F4_5 B1_5 1_555 1_555
B1_6 F1_6 1_555 1_555
F2_6 B1_6 1_555 1_555
F3_6 B1_6 1_555 1_555
F4_6 B1_6 1_555 1_555
B1_7 F1_7 1_555 1_555
F2_7 B1_7 1_555 1_555
B1_8 F1_8 1_555 1_555
F2_8 B1_8 1_555 1_555

#END
