
###############################################################################
#
# This file contains modified crystal structure data generated from the
# MOF subset of the Cambridge Structural Database (CSD) v543 
# hosted by the Cambridge Crystallographic Data Centre (CCDC).
#
# This work is licensed under the Creative Commons
# Attribution-NonCommercial-ShareAlike 4.0 International License.
# To view a copy of this license, visit
# http://creativecommons.org/licenses/by-nc-sa/4.0/
# or send a letter to
# Creative Commons, PO Box 1866, Mountain View, CA 94042, USA.
#
# CIF created using the CSD Python API on 29 September 2022
# The structure has been converted into the P1 space group
# The structure has a 3D framework
# The original CSD entry POQXAV is in the orthorhombic crystal system
# The framework has been calculated to contain at least 10.0% void space
# The void calculation uses a probe of radius 1.32A, grid spacing 0.4
# The framework is charged, counterions have been retained in the structure
# H atom positions have been added when not included in the experimental data
#
###############################################################################

data_POQXAV
_chemical_formula_moiety         '(C120 H168 N24 Ni12 O84 S12)n'
_symmetry_cell_setting           triclinic
_symmetry_space_group_name_H-M   'P 1'
_symmetry_Int_Tables_number      1
_space_group_name_Hall           'P 1'
loop_
_symmetry_equiv_pos_site_id
_symmetry_equiv_pos_as_xyz
1 x,y,z
_cell_length_a                   7.4106(3)
_cell_length_b                   20.0651(9)
_cell_length_c                   31.1884(14)
_cell_angle_alpha                90
_cell_angle_beta                 90
_cell_angle_gamma                90
_cell_volume                     4637.54
loop_
_atom_site_label
_atom_site_type_symbol
_atom_site_fract_x
_atom_site_fract_y
_atom_site_fract_z
O9 O 0.0765(3) 0.03259(12) 0.65609(9)
H29 H 0.016906 0.508759 0.393429
H30 H 0.0548905 0.507376 0.444624
H39 H 0.0473997 0.0741254 0.671959
O12 O 0.0291(4) 0.96539(13) 0.57506(9)
H40 H 0.108847 0.996925 0.676782
H41 H 0.141067 0.992553 0.57432
H42 H 0.0597928 0.918555 0.582313
Ni1 Ni 0.72255(6) 0.483653(19) 0.431879(15)
Ni2 Ni 0.42120(6) 0.015550(18) 0.765788(14)
Ni3 Ni 0.85578(6) 0.003311(19) 0.620872(17)
S1 S 0.52022(12) 0.08309(4) 0.66918(3)
S2 S 0.56787(13) 0.40589(5) 0.34284(3)
N1 N 0.8567(4) 0.09337(13) 0.58606(9)
O1 O 0.4088(3) 0.06341(11) 0.70626(7)
O2 O 0.7093(3) 0.43208(11) 0.37158(8)
N4 N 0.4107(4) 0.10883(13) 0.79723(10)
C1 C 0.8085(6) 0.15053(16) 0.51942(12)
H1 H 0.7848 0.1479 0.4902
O3 O 0.6934(3) 0.04471(11) 0.67055(8)
C2 C 0.8478(7) 0.33616(18) 0.53043(14)
H2 H 0.8969 0.3392 0.5578
N5 N 0.7540(4) 0.39342(13) 0.46700(10)
C5 C 0.8014(5) 0.27576(16) 0.51464(12)
C8 C 0.7079(6) 0.33390(17) 0.45128(13)
H6 H 0.6569 0.3320 0.4241
C10 C 0.4478(5) 0.22770(17) 0.79749(12)
H8 H 0.4834 0.2657 0.7827
C12 C 0.3528(6) 0.35702(16) 0.83778(14)
H9 H 0.3656 0.3572 0.8081
C13 C 0.8284(5) 0.21229(16) 0.53875(12)
C14 C 0.3807(5) 0.23255(15) 0.83863(12)
C15 C 0.8236(7) 0.39263(18) 0.50674(15)
H10 H 0.8574 0.4331 0.5189
C16 C 0.4615(5) 0.16566(17) 0.77865(12)
H11 H 0.5094 0.1633 0.7511
C18 C 0.3466(6) 0.11420(17) 0.83709(12)
H13 H 0.3095 0.0755 0.8509
C20 C 0.3322(6) 0.17412(16) 0.85905(13)
H15 H 0.2904 0.1749 0.8872
C21 C 0.8237(6) 0.09272(17) 0.54339(13)
H16 H 0.8107 0.0519 0.5296
C22 C 0.3574(5) 0.29802(17) 0.86018(12)
C23 C 0.8678(5) 0.21246(17) 0.58223(12)
H17 H 0.8828 0.2526 0.5967
C24 C 0.7320(6) 0.27535(17) 0.47325(12)
H18 H 0.7016 0.2351 0.4604
C26 C 0.8849(5) 0.15250(16) 0.60399(12)
H20 H 0.9179 0.1538 0.6327
C27 C 0.3398(8) 0.30284(18) 0.90386(15)
H21 H 0.3445 0.2648 0.9208
O4 O 0.6981(3) 0.02012(11) 0.76068(9)
O5 O 0.4478(3) 0.47537(12) 0.43905(10)
O6 O 0.1442(3) 0.01665(11) 0.76482(11)
O7 O 0.9923(3) 0.48459(12) 0.42059(9)
O10 O 0.7504(4) 0.53431(11) 0.48959(9)
O13 O 0.5907(4) 0.43326(13) 0.29981(9)
O14 O 0.5565(4) 0.15427(11) 0.67111(11)
O15 O 0.4210(3) 0.06695(13) 0.62968(8)
O16 O 0.3894(4) 0.4259(2) 0.35891(11)
C28 C 0.3293(6) 0.41535(17) 0.85958(15)
H22 H 0.3284 0.4544 0.8435
N6 N 0.3080(4) 0.42120(13) 0.90121(10)
O17 O 0.5827(5) 0.33391(15) 0.34055(15)
C30 C 0.3152(8) 0.36478(18) 0.92246(16)
H24 H 0.3028 0.3666 0.9521
Ni4 Ni 0.27745(6) 0.516347(19) 0.931879(15)
N8 N 0.6920(4) 0.57880(13) 0.40121(10)
H25 H 0.794548 0.580209 0.48396
H26 H 0.63169 0.536455 0.504294
H31 H 0.733522 0.0154702 0.73012
H32 H 0.74132 0.0636436 0.771824
H34 H 0.100052 0.0596611 0.776566
H35 H 0.413449 0.427538 0.439395
H36 H 0.4107 0.496549 0.466442
H38 H 0.437 0.00378803 0.848757
Ni2_2 Ni 0.57880(6) 0.984450(18) 0.265788(14)
Ni3_2 Ni 0.14422(6) 0.996689(19) 0.120872(17)
S1_2 S 0.47978(12) 0.91691(4) 0.16918(3)
N1_2 N 0.1433(4) 0.90663(13) 0.08606(9)
O1_2 O 0.5912(3) 0.93659(11) 0.20626(7)
N4_2 N 0.5893(4) 0.89117(13) 0.29723(10)
C1_2 C 0.1915(6) 0.84947(16) 0.01942(12)
O3_2 O 0.3066(3) 0.95529(11) 0.17055(8)
C2_2 C 0.1522(7) 0.66384(18) 0.03043(14)
H2_2 H 0.1031 0.6608 0.0578
C5_2 C 0.1986(5) 0.72424(16) 0.01464(12)
C10_2 C 0.5522(5) 0.77230(17) 0.29749(12)
H8_2 H 0.5166 0.7343 0.2827
C12_2 C 0.6472(6) 0.64298(16) 0.33778(14)
H9_2 H 0.6344 0.6428 0.3081
C13_2 C 0.1716(5) 0.78771(16) 0.03875(12)
C14_2 C 0.6193(5) 0.76745(15) 0.33863(12)
C15_2 C 0.1764(7) 0.60737(18) 0.00674(15)
H10_2 H 0.1426 0.5669 0.0189
C16_2 C 0.5385(5) 0.83434(17) 0.27865(12)
H11_2 H 0.4906 0.8367 0.2511
C18_2 C 0.6534(6) 0.88580(17) 0.33709(12)
H13_2 H 0.6905 0.9245 0.3509
C20_2 C 0.6678(6) 0.82588(16) 0.35905(13)
H15_2 H 0.7096 0.8251 0.3872
C21_2 C 0.1763(6) 0.90728(17) 0.04339(13)
H16_2 H 0.1893 0.9481 0.0296
C22_2 C 0.6426(5) 0.70198(17) 0.36018(12)
C23_2 C 0.1322(5) 0.78754(17) 0.08223(12)
H17_2 H 0.1172 0.7474 0.0967
C26_2 C 0.1151(5) 0.84750(16) 0.10399(12)
H20_2 H 0.0821 0.8462 0.1327
C27_2 C 0.6602(8) 0.69716(18) 0.40386(15)
H21_2 H 0.6555 0.7352 0.4208
O4_2 O 0.3019(3) 0.97988(11) 0.26068(9)
O6_2 O 0.8558(3) 0.98335(11) 0.26482(11)
O14_2 O 0.4435(4) 0.84573(11) 0.17111(11)
O15_2 O 0.5790(3) 0.93305(13) 0.12968(8)
C28_2 C 0.6707(6) 0.58465(17) 0.35958(15)
H22_2 H 0.6716 0.5456 0.3435
C30_2 C 0.6848(8) 0.63522(18) 0.42246(16)
H24_2 H 0.6972 0.6334 0.4521
H26_2 H 0.36831 0.463545 0.00429367
H31_2 H 0.266478 0.98453 0.23012
H32_2 H 0.25868 0.936356 0.271824
H34_2 H 0.899948 0.940339 0.276566
H38_2 H 0.563 0.996212 0.348757
S2_2 S 0.43213(13) 0.59411(5) 0.84284(3)
O2_2 O 0.2907(3) 0.56792(11) 0.87158(8)
H1_2 H 0.2152 0.8521 0.9902
N5_2 N 0.2460(4) 0.60658(13) 0.96700(10)
C8_2 C 0.2921(6) 0.66610(17) 0.95128(13)
H6_2 H 0.3431 0.6680 0.9241
C24_2 C 0.2680(6) 0.72465(17) 0.97325(12)
H18_2 H 0.2984 0.7649 0.9604
O5_2 O 0.5522(3) 0.52463(12) 0.93905(10)
O7_2 O 0.0077(3) 0.51541(12) 0.92059(9)
O10_2 O 0.2496(4) 0.46569(11) 0.98959(9)
O13_2 O 0.4093(4) 0.56674(13) 0.79981(9)
O16_2 O 0.6106(4) 0.5741(2) 0.85891(11)
O17_2 O 0.4173(5) 0.66609(15) 0.84055(15)
H25_2 H 0.205452 0.419791 0.98396
H35_2 H 0.586551 0.572462 0.939395
H36_2 H 0.5893 0.503451 0.966442
N2 N 0.3569(4) 0.59100(13) 0.65036(10)
N3 N 0.4172(4) 0.91750(13) 0.73853(10)
C3 C 0.3972(5) 0.60088(16) 0.69161(12)
H3 H 0.4198 0.5639 0.7087
C4 C 0.3727(6) 0.84474(16) 0.67933(14)
H4 H 0.3522 0.8407 0.6500
C6 C 0.3850(6) 0.90735(17) 0.69745(12)
H5 H 0.3698 0.9443 0.6798
C7 C 0.3765(5) 0.71953(14) 0.68548(12)
C9 C 0.3315(6) 0.70943(17) 0.64266(13)
H7 H 0.3072 0.7456 0.6249
C11 C 0.3905(5) 0.78826(15) 0.70395(12)
C17 C 0.4071(5) 0.66349(16) 0.71014(13)
H12 H 0.4343 0.6678 0.7391
C19 C 0.3232(6) 0.64579(15) 0.62679(13)
H14 H 0.2925 0.6402 0.5981
C25 C 0.4219(8) 0.79895(19) 0.74677(15)
H19 H 0.4321 0.7630 0.7655
O8 O 0.4331(4) 0.96927(11) 0.82596(8)
O11 O 0.6229(4) 0.97479(12) 0.58927(9)
C29 C 0.4382(7) 0.86335(16) 0.76192(15)
H23 H 0.4661 0.8689 0.7908
Ni5 Ni 0.35578(6) 0.496689(19) 0.620872(17)
N7 N 0.8569(4) 0.90900(13) 0.65036(10)
H27 H 0.646412 0.972831 0.557951
H28 H 0.584634 0.930158 0.599593
H33 H 0.0973432 0.979394 0.782575
H37 H 0.543267 0.941221 0.827652
Ni4_2 Ni 0.22255(6) 0.016347(19) 0.431879(15)
O10_3 O 0.7496(4) 0.03431(11) 0.98959(9)
N8_2 N 0.8080(4) 0.07880(13) 0.90121(10)
H25_3 H 0.705452 0.0802091 0.98396
H29_2 H 0.483094 0.00875945 0.893429
H30_2 H 0.445109 0.00737589 0.944624
S1_3 S 0.02022(12) 0.41691(4) 0.66918(3)
S2_3 S 0.06787(13) 0.09411(5) 0.34284(3)
N1_3 N 0.3567(4) 0.40663(13) 0.58606(9)
O2_3 O 0.2093(3) 0.06792(11) 0.37158(8)
C1_3 C 0.3085(6) 0.34947(16) 0.51942(12)
H1_3 H 0.2848 0.3521 0.4902
O3_3 O 0.1934(3) 0.45529(11) 0.67055(8)
C2_3 C 0.3478(7) 0.16384(18) 0.53043(14)
H2_3 H 0.3969 0.1608 0.5578
N5_3 N 0.2540(4) 0.10658(13) 0.46700(10)
C5_3 C 0.3014(5) 0.22424(16) 0.51464(12)
C8_3 C 0.2079(6) 0.16610(17) 0.45128(13)
H6_3 H 0.1569 0.1680 0.4241
C13_3 C 0.3284(5) 0.28771(16) 0.53875(12)
C15_3 C 0.3236(7) 0.10737(18) 0.50674(15)
H10_3 H 0.3574 0.0669 0.5189
H11_3 H 0.0094 0.3367 0.7511
C21_3 C 0.3237(6) 0.40728(17) 0.54339(13)
H16_3 H 0.3107 0.4481 0.5296
C23_3 C 0.3678(5) 0.28754(17) 0.58223(12)
H17_3 H 0.3828 0.2474 0.5967
C24_3 C 0.2320(6) 0.22465(17) 0.47325(12)
H18_3 H 0.2016 0.2649 0.4604
C26_3 C 0.3849(5) 0.34750(16) 0.60399(12)
H20_3 H 0.4179 0.3462 0.6327
O4_3 O 0.1981(3) 0.47988(11) 0.76068(9)
O7_3 O 0.4923(3) 0.01541(12) 0.42059(9)
O9_2 O 0.5765(3) 0.46741(12) 0.65609(9)
O11_2 O 0.1229(4) 0.52521(12) 0.58927(9)
O12_2 O 0.5291(4) 0.53461(13) 0.57506(9)
O13_3 O 0.0907(4) 0.06674(13) 0.29981(9)
O14_3 O 0.0565(4) 0.34573(11) 0.67111(11)
O17_3 O 0.0827(5) 0.16609(15) 0.34055(15)
H27_2 H 0.146412 0.527169 0.557951
H28_2 H 0.0846343 0.569842 0.599593
H31_3 H 0.233522 0.48453 0.73012
H32_3 H 0.24132 0.436356 0.771824
H37_2 H 0.0432666 0.558779 0.827652
H39_2 H 0.5474 0.425875 0.671959
H40_2 H 0.608847 0.503075 0.676782
H41_2 H 0.641067 0.507447 0.57432
H42_2 H 0.559793 0.581445 0.582313
Ni2_3 Ni 0.92120(6) 0.484450(18) 0.765788(14)
N3_2 N 0.9172(4) 0.58250(13) 0.73853(10)
O1_3 O 0.9088(3) 0.43659(11) 0.70626(7)
N4_3 N 0.9107(4) 0.39117(13) 0.79723(10)
C3_2 C 0.8972(5) 0.89912(16) 0.69161(12)
H3_2 H 0.9198 0.9361 0.7087
C4_2 C 0.8727(6) 0.65526(16) 0.67933(14)
H4_2 H 0.8522 0.6593 0.6500
C6_2 C 0.8850(6) 0.59265(17) 0.69745(12)
H5_2 H 0.8698 0.5557 0.6798
C7_2 C 0.8765(5) 0.78047(14) 0.68548(12)
C9_2 C 0.8315(6) 0.79057(17) 0.64266(13)
H7_2 H 0.8072 0.7544 0.6249
C10_3 C 0.9478(5) 0.27230(17) 0.79749(12)
H8_3 H 0.9834 0.2343 0.7827
C11_2 C 0.8905(5) 0.71174(15) 0.70395(12)
C12_3 C 0.8528(6) 0.14298(16) 0.83778(14)
H9_3 H 0.8656 0.1428 0.8081
C14_3 C 0.8807(5) 0.26745(15) 0.83863(12)
C16_3 C 0.9615(5) 0.33434(17) 0.77865(12)
C17_2 C 0.9071(5) 0.83651(16) 0.71014(13)
H12_2 H 0.9343 0.8322 0.7391
C18_3 C 0.8466(6) 0.38580(17) 0.83709(12)
H13_3 H 0.8095 0.4245 0.8509
C19_2 C 0.8232(6) 0.85421(15) 0.62679(13)
H14_2 H 0.7925 0.8598 0.5981
C20_3 C 0.8322(6) 0.32588(16) 0.85905(13)
H15_3 H 0.7904 0.3251 0.8872
C22_3 C 0.8574(5) 0.20198(17) 0.86018(12)
C25_2 C 0.9219(8) 0.70105(19) 0.74677(15)
H19_2 H 0.9321 0.7370 0.7655
C27_3 C 0.8398(8) 0.19716(18) 0.90386(15)
H21_3 H 0.8445 0.2352 0.9208
O5_3 O 0.9478(3) 0.02463(12) 0.43905(10)
O6_3 O 0.6442(3) 0.48335(11) 0.76482(11)
O8_2 O 0.9331(4) 0.53073(11) 0.82596(8)
O15_3 O 0.9210(3) 0.43305(13) 0.62968(8)
O16_3 O 0.8894(4) 0.0741(2) 0.35891(11)
C28_3 C 0.8293(6) 0.08465(17) 0.85958(15)
H22_3 H 0.8284 0.0456 0.8435
C29_2 C 0.9382(7) 0.63665(16) 0.76192(15)
H23_2 H 0.9661 0.6311 0.7908
C30_3 C 0.8152(8) 0.13522(18) 0.92246(16)
H24_3 H 0.8028 0.1334 0.9521
H33_2 H 0.597343 0.520606 0.782575
H34_3 H 0.600052 0.440339 0.776566
H35_3 H 0.913449 0.0724621 0.439395
H36_3 H 0.9107 0.00345112 0.466442
H38_3 H 0.937 0.496212 0.848757
N2_2 N 0.6431(4) 0.40900(13) 0.15036(10)
N3_3 N 0.5828(4) 0.08250(13) 0.23853(10)
C3_3 C 0.6028(5) 0.39912(16) 0.19161(12)
H3_3 H 0.5802 0.4361 0.2087
C4_3 C 0.6273(6) 0.15526(16) 0.17933(14)
H4_3 H 0.6478 0.1593 0.1500
C6_3 C 0.6150(6) 0.09265(17) 0.19745(12)
H5_3 H 0.6302 0.0557 0.1798
C7_3 C 0.6235(5) 0.28047(14) 0.18548(12)
C9_3 C 0.6685(6) 0.29057(17) 0.14266(13)
H7_3 H 0.6928 0.2544 0.1249
C11_3 C 0.6095(5) 0.21174(15) 0.20395(12)
C17_3 C 0.5929(5) 0.33651(16) 0.21014(13)
H12_3 H 0.5657 0.3322 0.2391
C19_3 C 0.6768(6) 0.35421(15) 0.12679(13)
H14_3 H 0.7075 0.3598 0.0981
C25_3 C 0.5781(8) 0.20105(19) 0.24677(15)
H19_3 H 0.5679 0.2370 0.2655
O8_3 O 0.5669(4) 0.03073(11) 0.32596(8)
O11_3 O 0.3771(4) 0.02521(12) 0.08927(9)
C29_3 C 0.5618(7) 0.13665(16) 0.26192(15)
H23_3 H 0.5339 0.1311 0.2908
Ni5_2 Ni 0.64422(6) 0.503311(19) 0.120872(17)
N7_2 N 0.1431(4) 0.09100(13) 0.15036(10)
H27_3 H 0.353588 0.0271693 0.0579505
H28_3 H 0.415366 0.0698415 0.0995927
H33_3 H 0.902657 0.0206061 0.282575
H37_3 H 0.456733 0.0587791 0.327652
Ni2_4 Ni 0.07880(6) 0.515550(18) 0.265788(14)
N3_4 N 0.0828(4) 0.41750(13) 0.23853(10)
O1_4 O 0.0912(3) 0.56341(11) 0.20626(7)
N4_4 N 0.0893(4) 0.60883(13) 0.29723(10)
C3_4 C 0.1028(5) 0.10088(16) 0.19161(12)
H3_4 H 0.0802 0.0639 0.2087
C4_4 C 0.1273(6) 0.34474(16) 0.17933(14)
H4_4 H 0.1478 0.3407 0.1500
C6_4 C 0.1150(6) 0.40735(17) 0.19745(12)
H5_4 H 0.1302 0.4443 0.1798
C7_4 C 0.1235(5) 0.21953(14) 0.18548(12)
C9_4 C 0.1685(6) 0.20943(17) 0.14266(13)
H7_4 H 0.1928 0.2456 0.1249
C10_4 C 0.0522(5) 0.72770(17) 0.29749(12)
H8_4 H 0.0166 0.7657 0.2827
C11_4 C 0.1095(5) 0.28826(15) 0.20395(12)
C12_4 C 0.1472(6) 0.85702(16) 0.33778(14)
H9_4 H 0.1344 0.8572 0.3081
C14_4 C 0.1193(5) 0.73255(15) 0.33863(12)
C16_4 C 0.0385(5) 0.66566(17) 0.27865(12)
C17_4 C 0.0929(5) 0.16349(16) 0.21014(13)
H12_4 H 0.0657 0.1678 0.2391
C18_4 C 0.1534(6) 0.61420(17) 0.33709(12)
H13_4 H 0.1905 0.5755 0.3509
C19_4 C 0.1768(6) 0.14579(15) 0.12679(13)
H14_4 H 0.2075 0.1402 0.0981
C20_4 C 0.1678(6) 0.67412(16) 0.35905(13)
H15_4 H 0.2096 0.6749 0.3872
C22_4 C 0.1426(5) 0.79802(17) 0.36018(12)
C25_4 C 0.0781(8) 0.29895(19) 0.24677(15)
H19_4 H 0.0679 0.2630 0.2655
C27_4 C 0.1602(8) 0.80284(18) 0.40386(15)
H21_4 H 0.1555 0.7648 0.4208
O6_4 O 0.3558(3) 0.51665(11) 0.26482(11)
O8_4 O 0.0669(4) 0.46927(11) 0.32596(8)
O15_4 O 0.0790(3) 0.56695(13) 0.12968(8)
C28_4 C 0.1707(6) 0.91535(17) 0.35958(15)
H22_4 H 0.1716 0.9544 0.3435
N6_2 N 0.1920(4) 0.92120(13) 0.40121(10)
C29_4 C 0.0618(7) 0.36335(16) 0.26192(15)
H23_4 H 0.0339 0.3689 0.2908
C30_4 C 0.1848(8) 0.86478(18) 0.42246(16)
H24_4 H 0.1972 0.8666 0.4521
H33_4 H 0.402657 0.479394 0.282575
H34_4 H 0.399948 0.559661 0.276566
H38_4 H 0.0629998 0.503788 0.348757
S1_4 S 0.97978(12) 0.58309(4) 0.16918(3)
N1_4 N 0.6433(4) 0.59337(13) 0.08606(9)
C1_4 C 0.6915(6) 0.65053(16) 0.01942(12)
O3_4 O 0.8066(3) 0.54471(11) 0.17055(8)
C2_4 C 0.6522(7) 0.83616(18) 0.03043(14)
H2_4 H 0.6031 0.8392 0.0578
C5_4 C 0.6986(5) 0.77576(16) 0.01464(12)
C13_4 C 0.6716(5) 0.71229(16) 0.03875(12)
C15_4 C 0.6764(7) 0.89263(18) 0.00674(15)
H10_4 H 0.6426 0.9331 0.0189
H11_4 H 0.9906 0.6633 0.2511
C21_4 C 0.6763(6) 0.59272(17) 0.04339(13)
H16_4 H 0.6893 0.5519 0.0296
C23_4 C 0.6322(5) 0.71246(17) 0.08223(12)
H17_4 H 0.6172 0.7526 0.0967
C26_4 C 0.6151(5) 0.65250(16) 0.10399(12)
H20_4 H 0.5821 0.6538 0.1327
O4_4 O 0.8019(3) 0.52012(11) 0.26068(9)
O9_3 O 0.4235(3) 0.53259(12) 0.15609(9)
O11_4 O 0.8771(4) 0.47479(12) 0.08927(9)
O12_3 O 0.4709(4) 0.46539(13) 0.07506(9)
O14_4 O 0.9435(4) 0.65427(11) 0.17111(11)
H27_4 H 0.853588 0.472831 0.0579505
H28_4 H 0.915366 0.430158 0.0995927
H31_4 H 0.766478 0.51547 0.23012
H32_4 H 0.75868 0.563644 0.271824
H37_4 H 0.956733 0.441221 0.327652
H39_3 H 0.4526 0.574125 0.171959
H40_3 H 0.391153 0.496925 0.176782
H41_3 H 0.358933 0.492553 0.0743202
H42_3 H 0.440207 0.418555 0.0823129
O10_4 O 0.2504(4) 0.96569(11) 0.48959(9)
H25_4 H 0.294548 0.919791 0.48396
H26_3 H 0.13169 0.963545 0.504294
H29_3 H 0.516906 0.991241 0.393429
H30_3 H 0.554891 0.992624 0.444624
O12_4 O 0.9709(4) 0.03461(13) 0.07506(9)
H40_4 H 0.891153 0.00307467 0.176782
H41_4 H 0.858933 0.00744729 0.0743202
H42_4 H 0.940207 0.0814455 0.0823129
O9_4 O 0.9235(3) 0.96741(12) 0.15609(9)
H39_4 H 0.9526 0.925875 0.171959
H29_4 H 0.983094 0.491241 0.893429
H30_4 H 0.945109 0.492624 0.944624
O5_4 O 0.0522(3) 0.97537(12) 0.93905(10)
O16_4 O 0.1106(4) 0.9259(2) 0.85891(11)
H35_4 H 0.086551 0.927538 0.939395
H36_4 H 0.0892995 0.996549 0.966442
H26_4 H 0.86831 0.0364554 0.00429367
Ni1_2 Ni 0.77745(6) 0.983653(19) 0.931879(15)
S2_4 S 0.93213(13) 0.90589(5) 0.84284(3)
O2_4 O 0.7907(3) 0.93208(11) 0.87158(8)
H1_4 H 0.7152 0.6479 0.9902
N5_4 N 0.7460(4) 0.89342(13) 0.96700(10)
C8_4 C 0.7921(6) 0.83390(17) 0.95128(13)
H6_4 H 0.8431 0.8320 0.9241
C24_4 C 0.7680(6) 0.77535(17) 0.97325(12)
H18_4 H 0.7984 0.7351 0.9604
O7_4 O 0.5077(3) 0.98459(12) 0.92059(9)
O13_4 O 0.9093(4) 0.93326(13) 0.79981(9)
O17_4 O 0.9173(5) 0.83391(15) 0.84055(15)
S3 S 0.21442(15) 0.61058(5) 0.48807(3)
O18 O 0.1961(5) 0.58394(16) 0.44479(10)
O19 O 0.3822(5) 0.58094(19) 0.50604(11)
O20 O 0.0598(4) 0.58982(16) 0.51549(10)
O21 O 0.2313(5) 0.68203(14) 0.48659(14)
O19_2 O 0.6178(5) 0.41906(19) 0.00604(11)
O20_2 O 0.9402(4) 0.41018(16) 0.01549(10)
S3_2 S 0.78558(15) 0.38942(5) 0.98807(3)
O18_2 O 0.8039(5) 0.41606(16) 0.94479(10)
O21_2 O 0.7687(5) 0.31797(14) 0.98659(14)
O19_3 O 0.1178(5) 0.08094(19) 0.00604(11)
O20_3 O 0.4402(4) 0.08982(16) 0.01549(10)
S3_3 S 0.28558(15) 0.11058(5) 0.98807(3)
O18_3 O 0.3039(5) 0.08394(16) 0.94479(10)
O21_3 O 0.2687(5) 0.18203(14) 0.98659(14)
S3_4 S 0.71442(15) 0.88942(5) 0.48807(3)
O18_4 O 0.6961(5) 0.91606(16) 0.44479(10)
O19_4 O 0.8822(5) 0.91906(19) 0.50604(11)
O20_4 O 0.5598(4) 0.91018(16) 0.51549(10)
O21_4 O 0.7313(5) 0.81797(14) 0.48659(14)
loop_
_geom_bond_atom_site_label_1
_geom_bond_atom_site_label_2
_geom_bond_site_symmetry_1
_geom_bond_site_symmetry_2
O9 H39 1_555 1_555
O12 H41 1_555 1_555
O12 H42 1_555 1_555
Ni1 O2 1_555 1_555
Ni3 N1 1_555 1_555
S1 O1 1_555 1_555
S2 O2 1_555 1_555
N1 C21 1_555 1_555
O1 Ni2 1_555 1_555
N4 Ni2 1_555 1_555
C1 H1 1_555 1_555
O3 Ni3 1_555 1_555
C2 H2 1_555 1_555
N5 Ni1 1_555 1_555
C5 C2 1_555 1_555
C8 N5 1_555 1_555
H6 C8 1_555 1_555
C10 H8 1_555 1_555
C12 H9 1_555 1_555
C13 C1 1_555 1_555
C14 C10 1_555 1_555
C15 C2 1_555 1_555
H10 C15 1_555 1_555
C16 N4 1_555 1_555
H11 C16 1_555 1_555
C18 N4 1_555 1_555
H13 C18 1_555 1_555
C20 C14 1_555 1_555
H15 C20 1_555 1_555
C21 C1 1_555 1_555
H16 C21 1_555 1_555
C22 C12 1_555 1_555
C23 C13 1_555 1_555
H17 C23 1_555 1_555
C24 C5 1_555 1_555
H18 C24 1_555 1_555
C26 N1 1_555 1_555
H20 C26 1_555 1_555
C27 C22 1_555 1_555
H21 C27 1_555 1_555
O4 Ni2 1_555 1_555
O5 Ni1 1_555 1_555
O6 Ni2 1_555 1_555
O7 Ni1 1_555 1_555
O10 Ni1 1_555 1_555
O13 S2 1_555 1_555
O14 S1 1_555 1_555
O15 S1 1_555 1_555
O16 S2 1_555 1_555
C28 C12 1_555 1_555
H22 C28 1_555 1_555
N6 C28 1_555 1_555
O17 S2 1_555 1_555
C30 C27 1_555 1_555
H24 C30 1_555 1_555
Ni4 N6 1_555 1_555
N8 Ni1 1_555 1_555
S1 O3 1_555 1_555
N5 C15 1_555 1_555
C5 C13 1_555 1_555
C8 C24 1_555 1_555
C10 C16 1_555 1_555
C14 C22 1_555 1_555
C18 C20 1_555 1_555
C23 C26 1_555 1_555
N6 C30 1_555 1_555
O10 H25 1_555 1_555
O10 H26 1_555 1_555
O4 H31 1_555 1_555
O4 H32 1_555 1_555
O6 H34 1_555 1_555
O5 H35 1_555 1_555
O5 H36 1_555 1_555
Ni3_2 N1_2 1_555 1_555
S1_2 O1_2 1_555 1_555
N1_2 C21_2 1_555 1_555
O1_2 Ni2_2 1_555 1_555
N4_2 Ni2_2 1_555 1_555
O3_2 Ni3_2 1_555 1_555
C2_2 H2_2 1_555 1_555
C5_2 C2_2 1_555 1_555
C10_2 H8_2 1_555 1_555
C12_2 H9_2 1_555 1_555
C13_2 C1_2 1_555 1_555
C14_2 C10_2 1_555 1_555
C15_2 C2_2 1_555 1_555
H10_2 C15_2 1_555 1_555
C16_2 N4_2 1_555 1_555
H11_2 C16_2 1_555 1_555
C18_2 N4_2 1_555 1_555
H13_2 C18_2 1_555 1_555
C20_2 C14_2 1_555 1_555
H15_2 C20_2 1_555 1_555
C21_2 C1_2 1_555 1_555
H16_2 C21_2 1_555 1_555
C22_2 C12_2 1_555 1_555
C23_2 C13_2 1_555 1_555
H17_2 C23_2 1_555 1_555
C26_2 N1_2 1_555 1_555
H20_2 C26_2 1_555 1_555
C27_2 C22_2 1_555 1_555
H21_2 C27_2 1_555 1_555
O4_2 Ni2_2 1_555 1_555
O6_2 Ni2_2 1_555 1_555
O14_2 S1_2 1_555 1_555
O15_2 S1_2 1_555 1_555
C28_2 C12_2 1_555 1_555
H22_2 C28_2 1_555 1_555
N8 C28_2 1_555 1_555
C30_2 C27_2 1_555 1_555
H24_2 C30_2 1_555 1_555
S1_2 O3_2 1_555 1_555
C5_2 C13_2 1_555 1_555
C10_2 C16_2 1_555 1_555
C14_2 C22_2 1_555 1_555
C18_2 C20_2 1_555 1_555
C23_2 C26_2 1_555 1_555
N8 C30_2 1_555 1_555
O4_2 H31_2 1_555 1_555
O4_2 H32_2 1_555 1_555
O6_2 H34_2 1_555 1_555
Ni4 O2_2 1_555 1_555
S2_2 O2_2 1_555 1_555
N5_2 Ni4 1_555 1_555
C8_2 N5_2 1_555 1_555
H6_2 C8_2 1_555 1_555
H18_2 C24_2 1_555 1_555
O5_2 Ni4 1_555 1_555
O7_2 Ni4 1_555 1_555
O10_2 Ni4 1_555 1_555
O13_2 S2_2 1_555 1_555
O16_2 S2_2 1_555 1_555
O17_2 S2_2 1_555 1_555
C8_2 C24_2 1_555 1_555
O10_2 H25_2 1_555 1_555
O5_2 H35_2 1_555 1_555
O5_2 H36_2 1_555 1_555
N2 C3 1_555 1_555
N3 C6 1_555 1_555
C3 H3 1_555 1_555
C4 H4 1_555 1_555
C6 C4 1_555 1_555
H5 C6 1_555 1_555
C7 C9 1_555 1_555
C9 H7 1_555 1_555
C11 C4 1_555 1_555
C17 C3 1_555 1_555
H12 C17 1_555 1_555
C19 N2 1_555 1_555
H14 C19 1_555 1_555
C25 C11 1_555 1_555
H19 C25 1_555 1_555
C29 N3 1_555 1_555
H23 C29 1_555 1_555
Ni5 N2 1_555 1_555
C7 C11 1_555 1_555
C7 C17 1_555 1_555
C9 C19 1_555 1_555
C25 C29 1_555 1_555
O11 H27 1_555 1_555
O11 H28 1_555 1_555
O8 H37 1_555 1_555
O10_3 H25_3 1_555 1_555
Ni4_2 O2_3 1_555 1_555
Ni5 N1_3 1_555 1_555
S2_3 O2_3 1_555 1_555
N1_3 C21_3 1_555 1_555
C1_3 H1_3 1_555 1_555
O3_3 Ni5 1_555 1_555
C2_3 H2_3 1_555 1_555
N5_3 Ni4_2 1_555 1_555
C5_3 C2_3 1_555 1_555
C8_3 N5_3 1_555 1_555
H6_3 C8_3 1_555 1_555
C13_3 C1_3 1_555 1_555
C15_3 C2_3 1_555 1_555
H10_3 C15_3 1_555 1_555
C21_3 C1_3 1_555 1_555
H16_3 C21_3 1_555 1_555
C23_3 C13_3 1_555 1_555
H17_3 C23_3 1_555 1_555
C24_3 C5_3 1_555 1_555
H18_3 C24_3 1_555 1_555
C26_3 N1_3 1_555 1_555
H20_3 C26_3 1_555 1_555
O7_3 Ni4_2 1_555 1_555
O9_2 Ni5 1_555 1_555
O11_2 Ni5 1_555 1_555
O12_2 Ni5 1_555 1_555
O13_3 S2_3 1_555 1_555
O14_3 S1_3 1_555 1_555
O17_3 S2_3 1_555 1_555
S1_3 O3_3 1_555 1_555
N5_3 C15_3 1_555 1_555
C5_3 C13_3 1_555 1_555
C8_3 C24_3 1_555 1_555
C23_3 C26_3 1_555 1_555
O11_2 H27_2 1_555 1_555
O11_2 H28_2 1_555 1_555
O4_3 H31_3 1_555 1_555
O4_3 H32_3 1_555 1_555
O9_2 H39_2 1_555 1_555
O9_2 H40_2 1_555 1_555
O12_2 H41_2 1_555 1_555
O12_2 H42_2 1_555 1_555
Ni2_3 N3_2 1_555 1_555
N7 C3_2 1_555 1_555
N3_2 C6_2 1_555 1_555
O1_3 Ni2_3 1_555 1_555
N4_3 Ni2_3 1_555 1_555
C3_2 H3_2 1_555 1_555
C4_2 H4_2 1_555 1_555
C6_2 C4_2 1_555 1_555
H5_2 C6_2 1_555 1_555
C7_2 C9_2 1_555 1_555
C9_2 H7_2 1_555 1_555
C10_3 H8_3 1_555 1_555
C11_2 C4_2 1_555 1_555
C12_3 H9_3 1_555 1_555
C14_3 C10_3 1_555 1_555
C16_3 N4_3 1_555 1_555
C17_2 C3_2 1_555 1_555
H12_2 C17_2 1_555 1_555
C18_3 N4_3 1_555 1_555
H13_3 C18_3 1_555 1_555
C19_2 N7 1_555 1_555
H14_2 C19_2 1_555 1_555
C20_3 C14_3 1_555 1_555
H15_3 C20_3 1_555 1_555
C22_3 C12_3 1_555 1_555
C25_2 C11_2 1_555 1_555
H19_2 C25_2 1_555 1_555
C27_3 C22_3 1_555 1_555
H21_3 C27_3 1_555 1_555
O6_3 Ni2_3 1_555 1_555
O8_2 Ni2_3 1_555 1_555
C28_3 C12_3 1_555 1_555
H22_3 C28_3 1_555 1_555
N8_2 C28_3 1_555 1_555
C29_2 N3_2 1_555 1_555
H23_2 C29_2 1_555 1_555
C30_3 C27_3 1_555 1_555
H24_3 C30_3 1_555 1_555
C7_2 C11_2 1_555 1_555
C7_2 C17_2 1_555 1_555
C9_2 C19_2 1_555 1_555
C10_3 C16_3 1_555 1_555
C14_3 C22_3 1_555 1_555
C18_3 C20_3 1_555 1_555
C25_2 C29_2 1_555 1_555
N8_2 C30_3 1_555 1_555
O6_3 H33_2 1_555 1_555
O6_3 H34_3 1_555 1_555
O5_3 H35_3 1_555 1_555
O5_3 H36_3 1_555 1_555
O8_2 H38_3 1_555 1_555
N2_2 C3_3 1_555 1_555
N3_3 C6_3 1_555 1_555
C3_3 H3_3 1_555 1_555
C4_3 H4_3 1_555 1_555
C6_3 C4_3 1_555 1_555
H5_3 C6_3 1_555 1_555
C7_3 C9_3 1_555 1_555
C9_3 H7_3 1_555 1_555
C11_3 C4_3 1_555 1_555
C17_3 C3_3 1_555 1_555
H12_3 C17_3 1_555 1_555
C19_3 N2_2 1_555 1_555
H14_3 C19_3 1_555 1_555
C25_3 C11_3 1_555 1_555
H19_3 C25_3 1_555 1_555
C29_3 N3_3 1_555 1_555
H23_3 C29_3 1_555 1_555
Ni5_2 N2_2 1_555 1_555
C7_3 C11_3 1_555 1_555
C7_3 C17_3 1_555 1_555
C9_3 C19_3 1_555 1_555
C25_3 C29_3 1_555 1_555
O11_3 H27_3 1_555 1_555
O11_3 H28_3 1_555 1_555
O8_3 H37_3 1_555 1_555
Ni2_4 N3_4 1_555 1_555
N7_2 C3_4 1_555 1_555
N3_4 C6_4 1_555 1_555
O1_4 Ni2_4 1_555 1_555
N4_4 Ni2_4 1_555 1_555
C3_4 H3_4 1_555 1_555
C4_4 H4_4 1_555 1_555
C6_4 C4_4 1_555 1_555
H5_4 C6_4 1_555 1_555
C7_4 C9_4 1_555 1_555
C9_4 H7_4 1_555 1_555
C10_4 H8_4 1_555 1_555
C11_4 C4_4 1_555 1_555
C12_4 H9_4 1_555 1_555
C14_4 C10_4 1_555 1_555
C16_4 N4_4 1_555 1_555
C17_4 C3_4 1_555 1_555
H12_4 C17_4 1_555 1_555
C18_4 N4_4 1_555 1_555
H13_4 C18_4 1_555 1_555
C19_4 N7_2 1_555 1_555
H14_4 C19_4 1_555 1_555
C20_4 C14_4 1_555 1_555
H15_4 C20_4 1_555 1_555
C22_4 C12_4 1_555 1_555
C25_4 C11_4 1_555 1_555
H19_4 C25_4 1_555 1_555
C27_4 C22_4 1_555 1_555
H21_4 C27_4 1_555 1_555
O6_4 Ni2_4 1_555 1_555
O8_4 Ni2_4 1_555 1_555
C28_4 C12_4 1_555 1_555
H22_4 C28_4 1_555 1_555
N6_2 C28_4 1_555 1_555
C29_4 N3_4 1_555 1_555
H23_4 C29_4 1_555 1_555
C30_4 C27_4 1_555 1_555
H24_4 C30_4 1_555 1_555
C7_4 C11_4 1_555 1_555
C7_4 C17_4 1_555 1_555
C9_4 C19_4 1_555 1_555
C10_4 C16_4 1_555 1_555
C14_4 C22_4 1_555 1_555
C18_4 C20_4 1_555 1_555
C25_4 C29_4 1_555 1_555
N6_2 C30_4 1_555 1_555
O6_4 H33_4 1_555 1_555
O6_4 H34_4 1_555 1_555
O8_4 H38_4 1_555 1_555
Ni5_2 N1_4 1_555 1_555
N1_4 C21_4 1_555 1_555
O3_4 Ni5_2 1_555 1_555
C2_4 H2_4 1_555 1_555
C5_4 C2_4 1_555 1_555
C13_4 C1_4 1_555 1_555
C15_4 C2_4 1_555 1_555
H10_4 C15_4 1_555 1_555
C21_4 C1_4 1_555 1_555
H16_4 C21_4 1_555 1_555
C23_4 C13_4 1_555 1_555
H17_4 C23_4 1_555 1_555
C26_4 N1_4 1_555 1_555
H20_4 C26_4 1_555 1_555
O9_3 Ni5_2 1_555 1_555
O11_4 Ni5_2 1_555 1_555
O12_3 Ni5_2 1_555 1_555
O14_4 S1_4 1_555 1_555
S1_4 O3_4 1_555 1_555
C5_4 C13_4 1_555 1_555
C23_4 C26_4 1_555 1_555
O11_4 H27_4 1_555 1_555
O11_4 H28_4 1_555 1_555
O4_4 H31_4 1_555 1_555
O4_4 H32_4 1_555 1_555
O9_3 H39_3 1_555 1_555
O9_3 H40_3 1_555 1_555
O12_3 H41_3 1_555 1_555
O12_3 H42_3 1_555 1_555
O10_4 H25_4 1_555 1_555
O10_4 H26_3 1_555 1_555
O12_4 H41_4 1_555 1_555
O12_4 H42_4 1_555 1_555
O9_4 H39_4 1_555 1_555
O5_4 H35_4 1_555 1_555
O5_4 H36_4 1_555 1_555
Ni1_2 O2_4 1_555 1_555
S2_4 O2_4 1_555 1_555
N5_4 Ni1_2 1_555 1_555
C8_4 N5_4 1_555 1_555
H6_4 C8_4 1_555 1_555
H18_4 C24_4 1_555 1_555
O7_4 Ni1_2 1_555 1_555
O13_4 S2_4 1_555 1_555
O17_4 S2_4 1_555 1_555
C8_4 C24_4 1_555 1_555
S3 O18 1_555 1_555
O19 S3 1_555 1_555
O20 S3 1_555 1_555
O21 S3 1_555 1_555
S3_2 O18_2 1_555 1_555
O21_2 S3_2 1_555 1_555
S3_3 O18_3 1_555 1_555
O21_3 S3_3 1_555 1_555
S3_4 O18_4 1_555 1_555
O19_4 S3_4 1_555 1_555
O20_4 S3_4 1_555 1_555
O21_4 S3_4 1_555 1_555

#END
