
###############################################################################
#
# This file contains modified crystal structure data generated from the
# MOF subset of the Cambridge Structural Database (CSD) v543 
# hosted by the Cambridge Crystallographic Data Centre (CCDC).
#
# This work is licensed under the Creative Commons
# Attribution-NonCommercial-ShareAlike 4.0 International License.
# To view a copy of this license, visit
# http://creativecommons.org/licenses/by-nc-sa/4.0/
# or send a letter to
# Creative Commons, PO Box 1866, Mountain View, CA 94042, USA.
#
# CIF created using the CSD Python API on 29 September 2022
# The structure has been converted into the P1 space group
# The structure has a 3D framework
# The original CSD entry PORVUO is in the monoclinic crystal system
# The framework has been calculated to contain at least 10.0% void space
# The void calculation uses a probe of radius 1.32A, grid spacing 0.4
#
###############################################################################

data_PORVUO
_chemical_formula_moiety         '(C108 H72 N8 O16 Zn2)n'
_symmetry_cell_setting           triclinic
_symmetry_space_group_name_H-M   'P 1'
_symmetry_Int_Tables_number      1
_space_group_name_Hall           'P 1'
loop_
_symmetry_equiv_pos_site_id
_symmetry_equiv_pos_as_xyz
1 x,y,z
_cell_length_a                   28.738(3)
_cell_length_b                   6.2226(8)
_cell_length_c                   17.5045(17)
_cell_angle_alpha                90
_cell_angle_beta                 102.521(2)
_cell_angle_gamma                90
_cell_volume                     3055.8
loop_
_atom_site_label
_atom_site_type_symbol
_atom_site_fract_x
_atom_site_fract_y
_atom_site_fract_z
Zn2 Zn -0.0000 0.56352(16) 0.2500
N2 N 0.0013(2) 0.3622(9) 0.1580(3)
C22 C 0.0291(3) 0.1856(13) 0.1665(5)
H15 H 0.0492 0.1602 0.2150
C23 C 0.0294(3) 0.0409(13) 0.1070(5)
C24 C 0.0000(2) 0.0757(10) 0.0327(4)
H7 H 0.0489 0.0796 0.6160
C24_2 C -0.0000(2) 0.0757(10) 0.4673(4)
C25 C 0.0287(3) 0.2569(13) 0.4750(4)
H17 H 0.0504 0.2845 0.5217
C26 C 0.0247(3) 0.3961(12) 0.4121(5)
H18 H 0.0419 0.5238 0.4203
O3 O 0.05083(19) 0.7690(9) 0.2911(4)
O5 O 0.0970(2) 0.4906(11) 0.2868(4)
C14 C 0.0912(3) 0.6791(12) 0.3037(5)
C15 C 0.1327(3) 0.8106(12) 0.3463(4)
C19 C 0.2155(3) 0.8421(16) 0.4048(6)
H12 H 0.2460 0.7834 0.4152
C20 C 0.1784(3) 0.7232(14) 0.3625(5)
H13 H 0.1838 0.5863 0.3450
H8 H 0.0504 0.7155 0.0217
H16 H 0.0489 0.9204 0.1160
Zn1 Zn 0.0000 0.43648(16) 0.7500
C11 C 0.0000(2) 0.9243(10) 0.9673(4)
C12 C 0.0287(3) 0.7431(13) 0.9750(4)
C13 C 0.0247(3) 0.6039(12) 0.9121(5)
H9 H 0.0419 0.4762 0.9203
N3 N 0.0013(2) 0.6378(9) 0.6580(3)
O4 O 0.05083(19) 0.2310(9) 0.7911(4)
O2 O 0.0970(2) 0.5094(11) 0.7868(4)
C1 C 0.0912(3) 0.3209(12) 0.8037(5)
C2 C 0.1327(3) 0.1894(12) 0.8463(4)
C6 C 0.2155(3) 0.1579(16) 0.9048(6)
H3 H 0.2460 0.2166 0.9152
C7 C 0.1784(3) 0.2768(14) 0.8625(5)
H4 H 0.1838 0.4137 0.8450
C9 C 0.0291(3) 0.8144(13) 0.6665(5)
H6 H 0.0492 0.8398 0.7150
C10 C 0.0294(3) 0.9591(13) 0.6070(5)
C11_2 C -0.0000(2) 0.9243(10) 0.5327(4)
Zn2_2 Zn 1.0000 0.56352(16) 0.2500
C24_3 C 1.0000(2) 0.0757(10) 0.0327(4)
C25_2 C 0.9713(3) 0.2569(13) 0.0250(4)
C26_2 C 0.9753(3) 0.3961(12) 0.0879(5)
H18_2 H 0.9581 0.5238 0.0797
N2_2 N 0.9987(2) 0.3622(9) 0.3420(3)
C22_2 C 0.9709(3) 0.1856(13) 0.3335(5)
H15_2 H 0.9508 0.1602 0.2850
C23_2 C 0.9706(3) 0.0409(13) 0.3930(5)
C24_4 C 1.0000(2) 0.0757(10) 0.4673(4)
O3_2 O 0.94917(19) 0.7690(9) 0.2089(4)
O5_2 O 0.9030(2) 0.4906(11) 0.2132(4)
C14_2 C 0.9088(3) 0.6791(12) 0.1963(5)
C15_2 C 0.8673(3) 0.8106(12) 0.1537(4)
C19_2 C 0.7845(3) 0.8421(16) 0.0952(6)
H12_2 H 0.7540 0.7834 0.0848
C20_2 C 0.8216(3) 0.7232(14) 0.1375(5)
H13_2 H 0.8162 0.5863 0.1550
H7_2 H 0.9511 0.0796 0.8840
H17_2 H 0.9496 0.2845 0.9783
Zn1_2 Zn 1.0000 0.43648(16) 0.7500
N1 N 0.9987(2) 0.6378(9) 0.8420(3)
O1 O 0.94917(19) 0.2310(9) 0.7089(4)
O2_2 O 0.9030(2) 0.5094(11) 0.7132(4)
C1_2 C 0.9088(3) 0.3209(12) 0.6963(5)
C2_2 C 0.8673(3) 0.1894(12) 0.6537(4)
C6_2 C 0.7845(3) 0.1579(16) 0.5952(6)
H3_2 H 0.7540 0.2166 0.5848
C7_2 C 0.8216(3) 0.2768(14) 0.6375(5)
H4_2 H 0.8162 0.4137 0.6550
C9_2 C 0.9709(3) 0.8144(13) 0.8335(5)
H6_2 H 0.9508 0.8398 0.7850
C10_2 C 0.9706(3) 0.9591(13) 0.8930(5)
C11_3 C 1.0000(2) 0.9243(10) 0.9673(4)
C11_4 C 1.0000(2) 0.9243(10) 0.5327(4)
C12_2 C 0.9713(3) 0.7431(13) 0.5250(4)
H8_2 H 0.9496 0.7155 0.4783
C13_2 C 0.9753(3) 0.6039(12) 0.5879(5)
H9_2 H 0.9581 0.4762 0.5797
H16_2 H 0.9511 0.9204 0.3840
C3 C 0.8743(3) 0.9852(14) 0.6274(5)
H1 H 0.9047 0.9264 0.6380
C4 C 0.8363(3) 0.8661(15) 0.5852(6)
H2 H 0.8415 0.7277 0.5688
C5 C 0.7909(3) 0.9524(14) 0.5674(5)
C8 C 0.7494(3) 0.8384(15) 0.5201(6)
H5 H 0.7195 0.8977 0.5189
Zn3 Zn 0.5000 0.06352(16) 0.2500
O3_3 O 0.55083(19) 0.2690(9) 0.2911(4)
C14_3 C 0.5912(3) 0.1791(12) 0.3037(5)
C15_3 C 0.6327(3) 0.3106(12) 0.3463(4)
C16 C 0.6257(3) 0.5148(14) 0.3726(5)
H10 H 0.5953 0.5736 0.3620
C17 C 0.6637(3) 0.6339(15) 0.4148(6)
H11 H 0.6585 0.7723 0.4312
C18 C 0.7091(3) 0.5476(14) 0.4326(5)
C19_3 C 0.7155(3) 0.3421(16) 0.4048(6)
H12_3 H 0.7460 0.2834 0.4152
C20_3 C 0.6784(3) 0.2232(14) 0.3625(5)
H13_3 H 0.6838 0.0863 0.3450
C21 C 0.7506(3) 0.6616(15) 0.4799(6)
H14 H 0.7805 0.6023 0.4811
O3_4 O 0.44917(19) 0.2690(9) 0.2089(4)
C14_4 C 0.4088(3) 0.1791(12) 0.1963(5)
C15_4 C 0.3673(3) 0.3106(12) 0.1537(4)
C16_2 C 0.3743(3) 0.5148(14) 0.1274(5)
H10_2 H 0.4047 0.5736 0.1380
C17_2 C 0.3363(3) 0.6339(15) 0.0852(6)
H11_2 H 0.3415 0.7723 0.0688
C18_2 C 0.2909(3) 0.5476(14) 0.0674(5)
C19_4 C 0.2845(3) 0.3421(16) 0.0952(6)
H12_4 H 0.2540 0.2834 0.0848
C20_4 C 0.3216(3) 0.2232(14) 0.1375(5)
H13_4 H 0.3162 0.0863 0.1550
C21_2 C 0.2494(3) 0.6616(15) 0.0201(6)
H14_2 H 0.2195 0.6023 0.0189
H18_3 H 0.4581 0.0238 0.0797
H18_4 H 0.5419 0.0238 0.4203
O5_3 O 0.5970(2) 0.9906(11) 0.2868(4)
O5_4 O 0.4030(2) 0.9906(11) 0.2132(4)
H8_3 H 0.5504 0.2155 0.0217
N2_3 N 0.5013(2) 0.8622(9) 0.1580(3)
C22_3 C 0.5291(3) 0.6856(13) 0.1665(5)
H15_3 H 0.5492 0.6602 0.2150
C23_3 C 0.5294(3) 0.5409(13) 0.1070(5)
H16_3 H 0.5489 0.4204 0.1160
C24_5 C 0.5000(2) 0.5757(10) 0.0327(4)
C25_3 C 0.4713(3) 0.7569(13) 0.0250(4)
C26_3 C 0.4753(3) 0.8961(12) 0.0879(5)
N1_2 N 0.4987(2) 0.1378(9) 0.8420(3)
O2_3 O 0.4030(2) 0.0094(11) 0.7132(4)
C9_3 C 0.4709(3) 0.3144(13) 0.8335(5)
H6_3 H 0.4508 0.3398 0.7850
C10_3 C 0.4706(3) 0.4591(13) 0.8930(5)
H7_3 H 0.4511 0.5796 0.8840
C11_5 C 0.5000(2) 0.4243(10) 0.9673(4)
C12_3 C 0.5287(3) 0.2431(13) 0.9750(4)
C13_3 C 0.5247(3) 0.1039(12) 0.9121(5)
N3_2 N 0.5013(2) 0.1378(9) 0.6580(3)
H17_3 H 0.4496 0.7845 0.9783
O2_4 O 0.5970(2) 0.0094(11) 0.7868(4)
C9_4 C 0.5291(3) 0.3144(13) 0.6665(5)
H6_4 H 0.5492 0.3398 0.7150
C10_4 C 0.5294(3) 0.4591(13) 0.6070(5)
H7_4 H 0.5489 0.5796 0.6160
C11_6 C 0.5000(2) 0.4243(10) 0.5327(4)
C12_4 C 0.4713(3) 0.2431(13) 0.5250(4)
H8_4 H 0.4496 0.2155 0.4783
C13_4 C 0.4753(3) 0.1039(12) 0.5879(5)
N2_4 N 0.4987(2) 0.8622(9) 0.3420(3)
C22_4 C 0.4709(3) 0.6856(13) 0.3335(5)
H15_4 H 0.4508 0.6602 0.2850
C23_4 C 0.4706(3) 0.5409(13) 0.3930(5)
H16_4 H 0.4511 0.4204 0.3840
C24_6 C 0.5000(2) 0.5757(10) 0.4673(4)
C25_4 C 0.5287(3) 0.7569(13) 0.4750(4)
H17_4 H 0.5504 0.7845 0.5217
C26_4 C 0.5247(3) 0.8961(12) 0.4121(5)
C3_2 C 0.1257(3) 0.9852(14) 0.8726(5)
H1_2 H 0.0953 0.9264 0.8620
C4_2 C 0.1637(3) 0.8661(15) 0.9148(6)
H2_2 H 0.1585 0.7277 0.9312
C5_2 C 0.2091(3) 0.9524(14) 0.9326(5)
C8_2 C 0.2506(3) 0.8384(15) 0.9799(6)
H5_2 H 0.2805 0.8977 0.9811
Zn1_3 Zn 0.5000 0.93648(16) 0.7500
O1_2 O 0.44917(19) 0.7310(9) 0.7089(4)
C1_3 C 0.4088(3) 0.8209(12) 0.6963(5)
C2_3 C 0.3673(3) 0.6894(12) 0.6537(4)
C3_3 C 0.3743(3) 0.4852(14) 0.6274(5)
H1_3 H 0.4047 0.4264 0.6380
C4_3 C 0.3363(3) 0.3661(15) 0.5852(6)
H2_3 H 0.3415 0.2277 0.5688
C5_3 C 0.2909(3) 0.4524(14) 0.5674(5)
C6_3 C 0.2845(3) 0.6579(16) 0.5952(6)
H3_3 H 0.2540 0.7166 0.5848
C7_3 C 0.3216(3) 0.7768(14) 0.6375(5)
H4_3 H 0.3162 0.9137 0.6550
C8_3 C 0.2494(3) 0.3384(15) 0.5201(6)
H5_3 H 0.2195 0.3977 0.5189
H9_3 H 0.5419 0.9762 0.9203
O4_2 O 0.55083(19) 0.7310(9) 0.7911(4)
C16_3 C 0.1257(3) 0.0148(14) 0.3726(5)
H10_3 H 0.0953 0.0736 0.3620
C17_3 C 0.1637(3) 0.1339(15) 0.4148(6)
H11_3 H 0.1585 0.2723 0.4312
C18_3 C 0.2091(3) 0.0476(14) 0.4326(5)
C21_3 C 0.2506(3) 0.1616(15) 0.4799(6)
H14_3 H 0.2805 0.1023 0.4811
C1_4 C 0.5912(3) 0.8209(12) 0.8037(5)
C2_4 C 0.6327(3) 0.6894(12) 0.8463(4)
C3_4 C 0.6257(3) 0.4852(14) 0.8726(5)
H1_4 H 0.5953 0.4264 0.8620
C4_4 C 0.6637(3) 0.3661(15) 0.9148(6)
H2_4 H 0.6585 0.2277 0.9312
C5_4 C 0.7091(3) 0.4524(14) 0.9326(5)
C6_4 C 0.7155(3) 0.6579(16) 0.9048(6)
H3_4 H 0.7460 0.7166 0.9152
C7_4 C 0.6784(3) 0.7768(14) 0.8625(5)
H4_4 H 0.6838 0.9137 0.8450
C8_4 C 0.7506(3) 0.3384(15) 0.9799(6)
H5_4 H 0.7805 0.3977 0.9811
H9_4 H 0.4581 0.9762 0.5797
C16_4 C 0.8743(3) 0.0148(14) 0.1274(5)
H10_4 H 0.9047 0.0736 0.1380
C17_4 C 0.8363(3) 0.1339(15) 0.0852(6)
H11_4 H 0.8415 0.2723 0.0688
C18_4 C 0.7909(3) 0.0476(14) 0.0674(5)
C21_4 C 0.7494(3) 0.1616(15) 0.0201(6)
H14_4 H 0.7195 0.1023 0.0189
loop_
_geom_bond_atom_site_label_1
_geom_bond_atom_site_label_2
_geom_bond_site_symmetry_1
_geom_bond_site_symmetry_2
Zn2 N2 1_555 1_555
N2 C22 1_555 1_555
C22 H15 1_555 1_555
C23 C22 1_555 1_555
C23 C24 1_555 1_555
C25 C24_2 1_555 1_555
H17 C25 1_555 1_555
H18 C26 1_555 1_555
C25 C26 1_555 1_555
Zn2 O3 1_555 1_555
O3 C14 1_555 1_555
O5 C14 1_555 1_555
C14 C15 1_555 1_555
H12 C19 1_555 1_555
C20 C15 1_555 1_555
H13 C20 1_555 1_555
C19 C20 1_555 1_555
C12 C11 1_555 1_555
H9 C13 1_555 1_555
N3 Zn1 1_555 1_555
O4 Zn1 1_555 1_555
C12 C13 1_555 1_555
N3 C9 1_555 1_555
O2 C1 1_555 1_555
C1 O4 1_555 1_555
C2 C1 1_555 1_555
H3 C6 1_555 1_555
C7 C2 1_555 1_555
H4 C7 1_555 1_555
C9 H6 1_555 1_555
C10 C9 1_555 1_555
C11_2 C10 1_555 1_555
C6 C7 1_555 1_555
C25_2 C24_3 1_555 1_555
H18_2 C26_2 1_555 1_555
C25_2 C26_2 1_555 1_555
Zn2_2 N2_2 1_555 1_555
N2_2 C22_2 1_555 1_555
C22_2 H15_2 1_555 1_555
C23_2 C22_2 1_555 1_555
C23_2 C24_4 1_555 1_555
Zn2_2 O3_2 1_555 1_555
O3_2 C14_2 1_555 1_555
O5_2 C14_2 1_555 1_555
C14_2 C15_2 1_555 1_555
H12_2 C19_2 1_555 1_555
C20_2 C15_2 1_555 1_555
H13_2 C20_2 1_555 1_555
C19_2 C20_2 1_555 1_555
Zn1_2 N1 1_555 1_555
N1 C9_2 1_555 1_555
O1 Zn1_2 1_555 1_555
O2_2 C1_2 1_555 1_555
C1_2 O1 1_555 1_555
C2_2 C1_2 1_555 1_555
H3_2 C6_2 1_555 1_555
C7_2 C2_2 1_555 1_555
H4_2 C7_2 1_555 1_555
C9_2 H6_2 1_555 1_555
C10_2 C9_2 1_555 1_555
C11_3 C10_2 1_555 1_555
C6_2 C7_2 1_555 1_555
C12_2 C11_4 1_555 1_555
H8_2 C12_2 1_555 1_555
H9_2 C13_2 1_555 1_555
C12_2 C13_2 1_555 1_555
H1 C3 1_555 1_555
C4 C3 1_555 1_555
H2 C4 1_555 1_555
C5 C4 1_555 1_555
C8 C5 1_555 1_555
H5 C8 1_555 1_555
Zn3 O3_3 1_555 1_555
O3_3 C14_3 1_555 1_555
C14_3 C15_3 1_555 1_555
C15_3 C16 1_555 1_555
C16 H10 1_555 1_555
C17 C16 1_555 1_555
H11 C17 1_555 1_555
C18 C17 1_555 1_555
C19_3 C18 1_555 1_555
H12_3 C19_3 1_555 1_555
C20_3 C15_3 1_555 1_555
H13_3 C20_3 1_555 1_555
C21 C8 1_555 1_555
H14 C21 1_555 1_555
C18 C21 1_555 1_555
C19_3 C20_3 1_555 1_555
Zn3 O3_4 1_555 1_555
O3_4 C14_4 1_555 1_555
C14_4 C15_4 1_555 1_555
C15_4 C16_2 1_555 1_555
C16_2 H10_2 1_555 1_555
C17_2 C16_2 1_555 1_555
H11_2 C17_2 1_555 1_555
C18_2 C17_2 1_555 1_555
C19_4 C18_2 1_555 1_555
H12_4 C19_4 1_555 1_555
C20_4 C15_4 1_555 1_555
H13_4 C20_4 1_555 1_555
H14_2 C21_2 1_555 1_555
C18_2 C21_2 1_555 1_555
C19_4 C20_4 1_555 1_555
N2_3 C22_3 1_555 1_555
C22_3 H15_3 1_555 1_555
C23_3 C22_3 1_555 1_555
H16_3 C23_3 1_555 1_555
C25_3 C24_5 1_555 1_555
C26_3 N2_3 1_555 1_555
C23_3 C24_5 1_555 1_555
C25_3 C26_3 1_555 1_555
N1_2 C9_3 1_555 1_555
C9_3 H6_3 1_555 1_555
C10_3 C9_3 1_555 1_555
H7_3 C10_3 1_555 1_555
C11_5 C10_3 1_555 1_555
C12_3 C11_5 1_555 1_555
C13_3 N1_2 1_555 1_555
C12_3 C13_3 1_555 1_555
N3_2 C9_4 1_555 1_555
C9_4 H6_4 1_555 1_555
C10_4 C9_4 1_555 1_555
H7_4 C10_4 1_555 1_555
C11_6 C10_4 1_555 1_555
C12_4 C11_6 1_555 1_555
H8_4 C12_4 1_555 1_555
C13_4 N3_2 1_555 1_555
N2_4 C22_4 1_555 1_555
C22_4 H15_4 1_555 1_555
C23_4 C22_4 1_555 1_555
H16_4 C23_4 1_555 1_555
C24_6 C11_6 1_555 1_555
C25_4 C24_6 1_555 1_555
H17_4 C25_4 1_555 1_555
C26_4 N2_4 1_555 1_555
C12_4 C13_4 1_555 1_555
C23_4 C24_6 1_555 1_555
C25_4 C26_4 1_555 1_555
H1_2 C3_2 1_555 1_555
C4_2 C3_2 1_555 1_555
H2_2 C4_2 1_555 1_555
C5_2 C4_2 1_555 1_555
C8_2 C5_2 1_555 1_555
H5_2 C8_2 1_555 1_555
O1_2 Zn1_3 1_555 1_555
C1_3 O1_2 1_555 1_555
C2_3 C1_3 1_555 1_555
C3_3 C2_3 1_555 1_555
H1_3 C3_3 1_555 1_555
C4_3 C3_3 1_555 1_555
H2_3 C4_3 1_555 1_555
C5_3 C4_3 1_555 1_555
C6_3 C5_3 1_555 1_555
H3_3 C6_3 1_555 1_555
C7_3 C2_3 1_555 1_555
H4_3 C7_3 1_555 1_555
C8_3 C5_3 1_555 1_555
H5_3 C8_3 1_555 1_555
O4_2 Zn1_3 1_555 1_555
C16_3 H10_3 1_555 1_555
C17_3 C16_3 1_555 1_555
H11_3 C17_3 1_555 1_555
C18_3 C17_3 1_555 1_555
C21_3 C8_3 1_555 1_555
H14_3 C21_3 1_555 1_555
C6_3 C7_3 1_555 1_555
C18_3 C21_3 1_555 1_555
C1_4 O4_2 1_555 1_555
C2_4 C1_4 1_555 1_555
C3_4 C2_4 1_555 1_555
H1_4 C3_4 1_555 1_555
C4_4 C3_4 1_555 1_555
H2_4 C4_4 1_555 1_555
C5_4 C4_4 1_555 1_555
C6_4 C5_4 1_555 1_555
H3_4 C6_4 1_555 1_555
C7_4 C2_4 1_555 1_555
H4_4 C7_4 1_555 1_555
C8_4 C5_4 1_555 1_555
H5_4 C8_4 1_555 1_555
C6_4 C7_4 1_555 1_555
C16_4 H10_4 1_555 1_555
C17_4 C16_4 1_555 1_555
H11_4 C17_4 1_555 1_555
C18_4 C17_4 1_555 1_555
H14_4 C21_4 1_555 1_555
C18_4 C21_4 1_555 1_555

#END
