
###############################################################################
#
# This file contains modified crystal structure data generated from the
# MOF subset of the Cambridge Structural Database (CSD) v543 
# hosted by the Cambridge Crystallographic Data Centre (CCDC).
#
# This work is licensed under the Creative Commons
# Attribution-NonCommercial-ShareAlike 4.0 International License.
# To view a copy of this license, visit
# http://creativecommons.org/licenses/by-nc-sa/4.0/
# or send a letter to
# Creative Commons, PO Box 1866, Mountain View, CA 94042, USA.
#
# CIF created using the CSD Python API on 29 September 2022
# The structure has been converted into the P1 space group
# The structure has a 3D framework
# The original CSD entry PORVID is in the triclinic crystal system
# The framework has been calculated to contain at least 10.0% void space
# The void calculation uses a probe of radius 1.32A, grid spacing 0.4
# The framework is charged, counterions have been retained in the structure
#
###############################################################################

data_PORVID
_chemical_formula_moiety         '(C58 H60 Cu6 N4 O33 3+)n'
_symmetry_cell_setting           triclinic
_symmetry_space_group_name_H-M   'P 1'
_symmetry_Int_Tables_number      1
_space_group_name_Hall           'P 1'
loop_
_symmetry_equiv_pos_site_id
_symmetry_equiv_pos_as_xyz
1 x,y,z
_cell_length_a                   10.575(2)
_cell_length_b                   11.660(2)
_cell_length_c                   15.767(2)
_cell_angle_alpha                106.080(10)
_cell_angle_beta                 90.73(2)
_cell_angle_gamma                94.050(10)
_cell_volume                     1862.36
loop_
_atom_site_label
_atom_site_type_symbol
_atom_site_fract_x
_atom_site_fract_y
_atom_site_fract_z
Cu1 Cu 0.13781(5) 0.49601(5) 0.49972(4)
Cu4 Cu 0.00736(6) 0.64248(5) 0.18503(4)
O10 O 0.0396(4) 0.3152(3) 0.1260(3)
C14 C 0.0025(5) 0.2210(4) 0.1406(3)
O13 O 0.1280(3) 0.2926(3) 0.4763(2)
C16 C 0.0117(5) 0.1111(4) 0.4803(3)
C18 C 0.0178(5) 0.0040(4) 0.4146(3)
H4 H 0.0289(5) 0.0065(4) 0.3567(3)
C19 C 0.0294(5) 0.2260(4) 0.4538(3)
O17 O 0.0033(3) 0.5063(3) 0.0827(2)
H6 H 0.0131(46) 0.5322(38) 0.3750(23)
Cu16 Cu 0.13876(5) 0.52520(5) 0.00175(4)
O37 O 0.1840(3) 0.6024(3) 0.2159(2)
O39 O 0.2645(3) 0.5142(3) 0.4163(2)
O41 O 0.1732(3) 0.3860(3) 0.2928(2)
O44 O 0.2758(3) 0.5339(4) 0.5871(2)
O51 O 0.0023(4) 0.7863(3) 0.2807(2)
O56 O 0.0032(3) 0.5064(3) 0.5836(2)
O12 O 0.0495(4) 0.2511(3) 0.9032(2)
Cu20 Cu 0.01317(5) 0.64399(5) 0.68569(4)
C13 C 0.0090(5) 0.9985(4) 0.0873(3)
H3 H 0.0149(5) 0.9982(4) 0.1462(3)
O16 O 0.0530(5) 0.6923(3) 0.3798(3)
C17 C 0.0078(4) 0.8936(4) 0.4321(3)
C20 C 0.0222(5) 0.7812(4) 0.3607(3)
O21 O 0.1355(3) 0.7309(3) 0.0310(2)
C22 C 0.0142(5) 0.8912(4) 0.0211(3)
C25 C 0.0350(5) 0.7804(4) 0.0488(3)
O24 O 0.0586(4) 0.7558(3) 0.5958(3)
O19 O 0.0285(3) 0.7891(3) 0.7826(2)
C21 C 0.0047(5) 0.8942(4) 0.9326(3)
Cu3 Cu 0.98683(5) 0.35601(5) 0.31431(4)
O1 O 0.2698(3) 0.5194(3) 0.0850(2)
O5 O 0.8104(3) 0.3927(3) 0.2812(2)
O6 O 0.7242(3) 0.4661(4) 0.4129(2)
O7 O 0.7320(3) 0.4769(4) 0.0854(2)
O8 O 0.8183(3) 0.6033(3) 0.2111(2)
C1 C 0.3822(5) 0.5161(4) 0.2117(3)
C2 C 0.3789(5) 0.4780(4) 0.2882(3)
C3 C 0.4923(5) 0.4562(4) 0.3253(3)
H1 H 0.4901(5) 0.4321(4) 0.3767(3)
C4 C 0.6087(4) 0.4698(4) 0.2872(3)
C5 C 0.6118(5) 0.5082(4) 0.2106(3)
C6 C 0.4987(5) 0.5285(4) 0.1735(3)
H2 H 0.5007(5) 0.5512(4) 0.1214(3)
C7 C 0.2669(4) 0.5476(4) 0.1677(3)
C8 C 0.2587(5) 0.4578(4) 0.3348(3)
C9 C 0.7259(4) 0.4414(4) 0.3299(3)
C10 C 0.7337(5) 0.5314(4) 0.1670(3)
O9 O 0.9715(3) 0.2109(3) 0.2174(2)
C11 C 0.9953(5) 0.1058(4) 0.0674(3)
O14 O 0.9414(4) 0.2442(3) 0.4042(3)
O18 O 0.9968(3) 0.4936(3) 0.4164(2)
H5 H 0.9899(46) 0.4765(40) 0.1290(21)
O25 O 0.9977(4) 0.2137(3) 0.7193(2)
O26 O 0.9470(5) 0.3077(3) 0.6202(3)
C27 C 0.9922(4) 0.1064(4) 0.5679(3)
C30 C 0.9778(5) 0.2188(4) 0.6393(3)
Cu13 Cu 0.86219(5) 0.50399(5) 0.50028(4)
Cu24 Cu 0.99264(6) 0.35752(5) 0.81497(4)
O48 O 0.9505(4) 0.7489(3) 0.0968(2)
Cu2 Cu 0.86124(5) 0.47480(5) 0.99825(4)
O11 O 0.8645(3) 0.2691(3) 0.9690(2)
C12 C 0.9858(5) 0.1088(4) 0.9789(3)
C15 C 0.9650(5) 0.2196(4) 0.9512(3)
C23 C 0.9910(5) 0.0015(4) 0.9127(3)
H7 H 0.9851(5) 0.0018(4) 0.8538(3)
O27 O 0.7302(3) 0.4806(3) 0.9150(2)
O28 O 0.8160(3) 0.3976(3) 0.7841(2)
O29 O 0.7355(3) 0.4858(3) 0.5837(2)
O30 O 0.8268(3) 0.6140(3) 0.7072(2)
O31 O 0.1896(3) 0.6073(3) 0.7188(2)
O33 O 0.2680(3) 0.5231(4) 0.9146(2)
O34 O 0.1817(3) 0.3967(3) 0.7889(2)
C31 C 0.6178(5) 0.4839(4) 0.7883(3)
C32 C 0.6211(5) 0.5220(4) 0.7118(3)
C33 C 0.5077(5) 0.5438(4) 0.6747(3)
H9 H 0.5099(5) 0.5679(4) 0.6233(3)
C34 C 0.3913(4) 0.5302(4) 0.7128(3)
C35 C 0.3882(5) 0.4918(4) 0.7894(3)
C36 C 0.5013(5) 0.4715(4) 0.8265(3)
H10 H 0.4993(5) 0.4488(4) 0.8786(3)
C37 C 0.7331(4) 0.4524(4) 0.8323(3)
C38 C 0.7413(5) 0.5422(4) 0.6652(3)
C39 C 0.2741(4) 0.5586(4) 0.6701(3)
C40 C 0.2663(5) 0.4686(4) 0.8330(3)
H11 H 0.0101(46) 0.5235(40) 0.8710(21)
O54 O 0.9967(3) 0.4937(3) 0.9173(2)
O23 O 0.8720(3) 0.7074(3) 0.5237(2)
C26 C 0.9883(5) 0.8889(4) 0.5197(3)
C28 C 0.9822(5) 0.9960(4) 0.5854(3)
H8 H 0.9711(5) 0.9935(4) 0.6433(3)
C29 C 0.9706(5) 0.7740(4) 0.5462(3)
O20 O 0.9604(4) 0.6848(3) 0.8740(3)
C24 C 0.9975(5) 0.7790(4) 0.8594(3)
H12 H 0.9869(46) 0.4678(38) 0.6250(23)
N2 N 0.5985(6) 0.2460(6) 0.5191(5)
H21 H 0.7203(9) 0.0409(8) 0.8459(6)
H22 H 0.5722(9) 0.0275(8) 0.8476(6)
C47 C 0.6397(9) 0.0983(8) 0.7033(6)
H25 H 0.7217(9) 0.1403(8) 0.7237(6)
H26 H 0.5762(9) 0.1433(8) 0.7391(6)
C48 C 0.6168(8) 0.1001(7) 0.6087(5)
H27 H 0.6778(8) 0.0540(7) 0.5709(5)
H28 H 0.5323(8) 0.0649(7) 0.5880(5)
C49 C 0.6305(8) 0.2262(7) 0.6056(6)
H29 H 0.7175(8) 0.2574(7) 0.6222(6)
H30 H 0.5767(8) 0.2724(7) 0.6496(6)
H34 H 0.6375(70) 0.3201(31) 0.5289(54)
H35 H 0.6434(67) 0.1926(56) 0.4814(43)
H36 H 0.5137(15) 0.2415(72) 0.5107(55)
N1 N 0.7146(6) 0.8398(6) 0.1199(4)
C41 C 0.6242(7) 0.7629(7) 0.0499(5)
H13 H 0.6237(7) 0.6807(7) 0.0524(5)
H14 H 0.5394(7) 0.7885(7) 0.0618(5)
H31 H 0.6988(79) 0.8278(72) 0.1729(25)
H32 H 0.7214(80) 0.9193(16) 0.1271(54)
H33 H 0.7918(34) 0.8119(68) 0.1098(54)
C42 C 0.6569(8) 0.7676(7) 0.9595(5)
H15 H 0.5997(8) 0.7100(7) 0.9176(5)
H16 H 0.7421(8) 0.7424(7) 0.9484(5)
C43 C 0.6511(7) 0.8876(6) 0.9420(5)
H17 H 0.7232(7) 0.9403(6) 0.9713(5)
H18 H 0.5745(7) 0.9230(6) 0.9663(5)
C44 C 0.6519(8) 0.8759(7) 0.8424(5)
H19 H 0.7287(8) 0.8401(7) 0.8188(5)
H20 H 0.5804(8) 0.8219(7) 0.8136(5)
C45 C 0.6457(9) 0.9891(8) 0.8202(6)
C46 C 0.6373(9) 0.9789(8) 0.7204(6)
H23 H 0.7079(9) 0.9368(8) 0.6917(6)
H24 H 0.5595(9) 0.9323(8) 0.6949(6)
C42_2 C 0.3431(8) 0.2324(7) 0.0405(5)
H15_2 H 0.4003(8) 0.2900(7) 0.0824(5)
H16_2 H 0.2579(8) 0.2576(7) 0.0516(5)
C43_2 C 0.3489(7) 0.1124(6) 0.0580(5)
H17_2 H 0.2768(7) 0.0597(6) 0.0287(5)
H18_2 H 0.4255(7) 0.0770(6) 0.0337(5)
C44_2 C 0.3481(8) 0.1241(7) 0.1576(5)
H19_2 H 0.2713(8) 0.1599(7) 0.1812(5)
H20_2 H 0.4196(8) 0.1781(7) 0.1864(5)
C45_2 C 0.3543(9) 0.0109(8) 0.1798(6)
C46_2 C 0.3627(9) 0.0211(8) 0.2796(6)
H23_2 H 0.2921(9) 0.0632(8) 0.3083(6)
H24_2 H 0.4405(9) 0.0677(8) 0.3051(6)
N1_2 N 0.2854(6) 0.1602(6) 0.8801(4)
C41_2 C 0.3758(7) 0.2371(7) 0.9501(5)
H13_2 H 0.3763(7) 0.3193(7) 0.9476(5)
H14_2 H 0.4606(7) 0.2115(7) 0.9382(5)
H31_2 H 0.3012(79) 0.1722(72) 0.8271(25)
H32_2 H 0.2786(80) 0.0807(16) 0.8729(54)
H33_2 H 0.2082(34) 0.1881(68) 0.8902(54)
N2_2 N 0.4015(6) 0.7540(6) 0.4809(5)
H21_2 H 0.2797(9) 0.9591(8) 0.1541(6)
H22_2 H 0.4278(9) 0.9725(8) 0.1524(6)
C47_2 C 0.3603(9) 0.9017(8) 0.2967(6)
H25_2 H 0.2783(9) 0.8597(8) 0.2763(6)
H26_2 H 0.4238(9) 0.8567(8) 0.2609(6)
C48_2 C 0.3832(8) 0.8999(7) 0.3913(5)
H27_2 H 0.3222(8) 0.9460(7) 0.4291(5)
H28_2 H 0.4677(8) 0.9351(7) 0.4120(5)
C49_2 C 0.3695(8) 0.7738(7) 0.3944(6)
H29_2 H 0.2825(8) 0.7426(7) 0.3778(6)
H30_2 H 0.4233(8) 0.7276(7) 0.3504(6)
H34_2 H 0.3625(70) 0.6799(31) 0.4711(54)
H35_2 H 0.3566(67) 0.8074(56) 0.5186(43)
H36_2 H 0.4863(15) 0.7585(72) 0.4893(55)
loop_
_geom_bond_atom_site_label_1
_geom_bond_atom_site_label_2
_geom_bond_site_symmetry_1
_geom_bond_site_symmetry_2
Cu1 O13 1_555 1_555
O10 C14 1_555 1_555
O13 C19 1_555 1_555
C16 C18 1_555 1_555
C18 H4 1_555 1_555
Cu16 O17 1_555 1_555
O37 Cu4 1_555 1_555
O39 Cu1 1_555 1_555
O44 Cu1 1_555 1_555
O51 Cu4 1_555 1_555
O56 Cu1 1_555 1_555
Cu4 O17 1_555 1_555
C16 C19 1_555 1_555
H3 C13 1_555 1_555
O51 C20 1_555 1_555
O16 C20 1_555 1_555
C20 C17 1_555 1_555
O21 C25 1_555 1_555
C22 C13 1_555 1_555
C25 C22 1_555 1_555
Cu16 O21 1_555 1_555
Cu20 O24 1_555 1_555
Cu20 O19 1_555 1_555
Cu3 O5 1_555 1_555
O1 C7 1_555 1_555
O37 C7 1_555 1_555
O39 C8 1_555 1_555
O41 C8 1_555 1_555
O5 C9 1_555 1_555
O6 C9 1_555 1_555
O7 C10 1_555 1_555
O8 C10 1_555 1_555
C1 C2 1_555 1_555
C2 C3 1_555 1_555
C3 H1 1_555 1_555
C4 C3 1_555 1_555
C5 C4 1_555 1_555
C6 C1 1_555 1_555
H2 C6 1_555 1_555
C7 C1 1_555 1_555
C8 C2 1_555 1_555
C9 C4 1_555 1_555
C10 C5 1_555 1_555
O9 Cu3 1_555 1_555
O14 Cu3 1_555 1_555
O25 C30 1_555 1_555
O26 C30 1_555 1_555
C30 C27 1_555 1_555
Cu16 O1 1_555 1_555
Cu13 O6 1_555 1_555
Cu24 O25 1_555 1_555
Cu3 O18 1_555 1_555
C5 C6 1_555 1_555
O18 Cu13 1_555 1_555
O11 Cu2 1_555 1_555
C12 C15 1_555 1_555
C15 O11 1_555 1_555
C23 C12 1_555 1_555
H7 C23 1_555 1_555
Cu20 O31 1_555 1_555
O27 Cu2 1_555 1_555
O28 C37 1_555 1_555
O29 C38 1_555 1_555
O30 C38 1_555 1_555
O31 C39 1_555 1_555
O44 C39 1_555 1_555
O34 C40 1_555 1_555
C31 C32 1_555 1_555
C32 C33 1_555 1_555
C33 H9 1_555 1_555
C34 C33 1_555 1_555
C35 C34 1_555 1_555
C36 C31 1_555 1_555
H10 C36 1_555 1_555
C37 O27 1_555 1_555
C38 C32 1_555 1_555
C39 C34 1_555 1_555
C40 O33 1_555 1_555
O56 Cu20 1_555 1_555
Cu13 O29 1_555 1_555
O54 Cu2 1_555 1_555
O28 Cu24 1_555 1_555
C31 C37 1_555 1_555
C35 C36 1_555 1_555
C35 C40 1_555 1_555
Cu24 O54 1_555 1_555
O23 C29 1_555 1_555
C28 C26 1_555 1_555
H8 C28 1_555 1_555
C29 C26 1_555 1_555
Cu13 O23 1_555 1_555
O20 C24 1_555 1_555
N2 C49 1_555 1_555
H25 C47 1_555 1_555
H26 C47 1_555 1_555
C48 C47 1_555 1_555
H27 C48 1_555 1_555
H28 C48 1_555 1_555
C49 C48 1_555 1_555
H29 C49 1_555 1_555
H30 C49 1_555 1_555
H34 N2 1_555 1_555
H35 N2 1_555 1_555
H36 N2 1_555 1_555
N1 C41 1_555 1_555
C41 H13 1_555 1_555
H14 C41 1_555 1_555
H31 N1 1_555 1_555
H32 N1 1_555 1_555
H33 N1 1_555 1_555
H15 C42 1_555 1_555
H16 C42 1_555 1_555
C43 C42 1_555 1_555
H17 C43 1_555 1_555
H18 C43 1_555 1_555
C44 C43 1_555 1_555
H19 C44 1_555 1_555
H20 C44 1_555 1_555
C45 C44 1_555 1_555
C46 C45 1_555 1_555
H23 C46 1_555 1_555
H24 C46 1_555 1_555
H15_2 C42_2 1_555 1_555
H16_2 C42_2 1_555 1_555
C43_2 C42_2 1_555 1_555
H17_2 C43_2 1_555 1_555
H18_2 C43_2 1_555 1_555
C44_2 C43_2 1_555 1_555
H19_2 C44_2 1_555 1_555
H20_2 C44_2 1_555 1_555
C45_2 C44_2 1_555 1_555
C46_2 C45_2 1_555 1_555
H23_2 C46_2 1_555 1_555
H24_2 C46_2 1_555 1_555
N1_2 C41_2 1_555 1_555
C41_2 H13_2 1_555 1_555
H14_2 C41_2 1_555 1_555
H31_2 N1_2 1_555 1_555
H32_2 N1_2 1_555 1_555
H33_2 N1_2 1_555 1_555
N2_2 C49_2 1_555 1_555
H25_2 C47_2 1_555 1_555
H26_2 C47_2 1_555 1_555
C48_2 C47_2 1_555 1_555
H27_2 C48_2 1_555 1_555
H28_2 C48_2 1_555 1_555
C49_2 C48_2 1_555 1_555
H29_2 C49_2 1_555 1_555
H30_2 C49_2 1_555 1_555
H34_2 N2_2 1_555 1_555
H35_2 N2_2 1_555 1_555
H36_2 N2_2 1_555 1_555

#END
