
###############################################################################
#
# This file contains modified crystal structure data generated from the
# MOF subset of the Cambridge Structural Database (CSD) v543 
# hosted by the Cambridge Crystallographic Data Centre (CCDC).
#
# This work is licensed under the Creative Commons
# Attribution-NonCommercial-ShareAlike 4.0 International License.
# To view a copy of this license, visit
# http://creativecommons.org/licenses/by-nc-sa/4.0/
# or send a letter to
# Creative Commons, PO Box 1866, Mountain View, CA 94042, USA.
#
# CIF created using the CSD Python API on 29 September 2022
# The structure has been converted into the P1 space group
# The structure has a 3D framework
# The original CSD entry PORVUQ is in the orthorhombic crystal system
# The framework has been calculated to contain at least 10.0% void space
# The void calculation uses a probe of radius 1.32A, grid spacing 0.4
# H atom positions have been added when not included in the experimental data
#
###############################################################################

data_PORVUQ
_chemical_formula_moiety         '(C216 H108 Cd16 N36 O98)n'
_symmetry_cell_setting           triclinic
_symmetry_space_group_name_H-M   'P 1'
_symmetry_Int_Tables_number      1
_space_group_name_Hall           'P 1'
loop_
_symmetry_equiv_pos_site_id
_symmetry_equiv_pos_as_xyz
1 x,y,z
_cell_length_a                   20.1853(7)
_cell_length_b                   12.0295(6)
_cell_length_c                   28.4889(8)
_cell_angle_alpha                90
_cell_angle_beta                 90
_cell_angle_gamma                90
_cell_volume                     6917.65
loop_
_atom_site_label
_atom_site_type_symbol
_atom_site_fract_x
_atom_site_fract_y
_atom_site_fract_z
H14 H 0.0222 0.0254 0.7925
C46 C 0.1628(6) 0.0350(11) 0.6962(4)
C47 C 0.1597(6) 0.0889(11) 0.6506(4)
C48 C 0.2178(6) 0.1248(10) 0.6290(4)
H16 H 0.2581 0.1182 0.6446
C49 C 0.2155(5) 0.1704(10) 0.5842(4)
C50 C 0.2794(6) 0.2070(10) 0.5618(4)
C51 C 0.1556(5) 0.1872(10) 0.5623(4)
H17 H 0.1541 0.2205 0.5329
C52 C 0.0975(5) 0.1545(10) 0.5842(4)
C53 C 0.0320(6) 0.1736(11) 0.5598(4)
C54 C 0.0998(6) 0.1060(11) 0.6290(4)
H18 H 0.0608 0.0855 0.6440
N7 N 0.1133(4) 0.0145(8) 0.7256(3)
N8 N 0.2210(5) 0.0110(10) 0.7159(4)
O9 O 0.3278(4) 0.2308(7) 0.5881(3)
O10 O 0.2833(4) 0.2149(6) 0.5187(2)
O11 O 0.0298(4) 0.2050(8) 0.5177(3)
Cd6 Cd 0.31677(3) 0.07372(6) 0.46390(2)
Cd16 Cd 0.40321(4) 0.28099(7) 0.52980(3)
Cd4 Cd 0.09679(4) 0.78099(7) 0.02980(3)
C1 C 0.2874(6) 0.4636(10) 0.0035(4)
C2 C 0.3392(6) 0.4121(11) 0.0320(5)
C3 C 0.4068(6) 0.4202(11) 0.0199(4)
C4 C 0.4576(6) 0.3734(12) 0.0463(4)
C5 C 0.5274(8) 0.3891(14) 0.0355(6)
C6 C 0.4424(7) 0.3207(13) 0.0877(5)
H2 H 0.4756 0.2931 0.1071
C7 C 0.3733(6) 0.3094(11) 0.1004(4)
C8 C 0.3244(7) 0.3533(12) 0.0733(4)
H3 H 0.2804 0.3443 0.0822
C9 C 0.3537(7) 0.2487(12) 0.1437(5)
C10 C 0.3548(6) 0.1702(12) 0.2092(4)
C11 C 0.3747(6) 0.1240(11) 0.2557(4)
C12 C 0.4414(6) 0.1056(10) 0.2650(4)
H4 H 0.4735 0.1289 0.2437
C13 C 0.4599(6) 0.0528(10) 0.3060(4)
C14 C 0.5328(6) 0.0211(11) 0.3133(5)
C15 C 0.4140(5) 0.0158(10) 0.3383(4)
C16 C 0.3475(5) 0.0333(10) 0.3281(4)
C18 C 0.3285(6) 0.0860(10) 0.2866(4)
H6 H 0.2837 0.0953 0.2799
C25 C 0.0531(6) 0.5292(11) 0.0049(4)
N1 N 0.3971(6) 0.2172(9) 0.1784(4)
N2 N 0.2931(7) 0.2184(11) 0.1536(4)
N3 N 0.2933(6) 0.1667(11) 0.1954(4)
H19 H 0.2601 0.1377 0.2099
O2 O 0.2293(4) 0.4595(7) 0.0193(3)
O3 O 0.2327(4) 0.0036(8) 0.3453(3)
O6 O 0.5742(5) 0.0698(11) 0.2877(5)
H22 H 0.6178 0.0434 0.2954
O7 O 0.5728(7) 0.3674(14) 0.0645(6)
O17 O 0.0719(4) 0.5920(7) 0.0361(3)
O25 O 0.1529(5) 0.9449(8) 0.0165(4)
Cd14 Cd 0.06099(4) 0.72963(7) 0.33240(3)
O30 O 0.1722(4) 0.7308(7) 0.0881(3)
O31 O 0.2167(4) 0.7149(6) 0.0187(2)
O33 O 0.0194(4) 0.8401(8) 0.0823(3)
H27 H 0.159828 0.984165 0.0467644
Cd1 Cd 0.18323(3) 0.57372(6) 0.96390(2)
H1 H 0.4180 0.4589 0.9928
C37 C 0.1321(6) 0.7569(10) 0.9161(4)
C38 C 0.1038(5) 0.8433(9) 0.8809(4)
C39 C 0.1365(6) 0.8658(10) 0.8392(4)
H13 H 0.1775 0.8335 0.8331
C40 C 0.1079(5) 0.9365(10) 0.8071(4)
C41 C 0.0431(6) 0.9825(10) 0.8153(4)
C42 C 0.0125(5) 0.9616(10) 0.8578(4)
C44 C 0.0432(5) 0.8903(10) 0.8906(4)
H15 H 0.0223 0.8751 0.9190
C45 C 0.1401(5) 0.9686(10) 0.7632(4)
N9 N 0.2050(5) 0.9649(10) 0.7587(4)
H21 H 0.2325 0.9385 0.7789
O1 O 0.3010(4) 0.5130(7) 0.9657(3)
O8 O 0.5412(6) 0.4258(12) 0.9949(5)
H23 H 0.5885 0.4324 0.9923
O15 O 0.0982(4) 0.7385(7) 0.9513(3)
O16 O 0.1846(4) 0.7093(7) 0.9077(3)
O18 O 0.0841(4) 0.4974(8) 0.9697(4)
Cd10 Cd 0.32439(4) 0.40453(6) 0.89709(3)
O29 O 0.1920(4) 0.4456(7) 0.8979(3)
H26 H 0.12655 0.992722 0.995085
Cd3 Cd 0.56099(4) 0.77037(7) 0.33240(3)
H5 H 0.4270 0.9805 0.3658
C17 C 0.2920(6) 0.9939(10) 0.3602(4)
O4 O 0.3080(4) 0.9456(7) 0.3979(3)
O5 O 0.5503(4) 0.9527(8) 0.3451(3)
Cd8 Cd 0.17561(4) 0.90453(6) 0.39709(3)
O35 O 0.5762(4) 0.5797(6) 0.3392(3)
O37 O 0.5843(4) 0.7518(7) 0.4126(3)
O38 O 0.6362(4) 0.7466(8) 0.2717(3)
O39 O 0.6938(4) 0.7505(7) 0.3386(3)
O41 O 0.4413(4) 0.7489(7) 0.3312(4)
O42 O 0.4904(4) 0.7934(8) 0.2661(3)
C43 C 0.9455(5) 0.0113(9) 0.8664(4)
O12 O 0.9806(4) 0.1599(8) 0.5823(3)
O13 O 0.9238(4) 0.0797(6) 0.8392(3)
Cd7 Cd 0.82439(4) 0.09547(6) 0.89709(3)
Cd13 Cd 0.93901(4) 0.27037(7) 0.83240(3)
Cd15 Cd 0.90321(4) 0.21901(7) 0.52980(3)
C21 C 0.8513(6) 0.4066(10) 0.0138(4)
H7 H 0.8078 0.3818 0.0155
C22 C 0.8750(6) 0.4809(10) 0.0461(4)
C23 C 0.9395(5) 0.5215(11) 0.0437(4)
H8 H 0.9549 0.5724 0.0657
C24 C 0.9803(6) 0.4840(10) 0.0076(4)
C27 C 0.8331(6) 0.5224(10) 0.0855(4)
C28 C 0.8065(6) 0.5902(10) 0.1508(4)
C29 C 0.8074(5) 0.6416(10) 0.1986(4)
C30 C 0.7500(6) 0.6683(10) 0.2225(4)
H10 H 0.7092 0.6566 0.2082
C31 C 0.7524(5) 0.7129(10) 0.2680(4)
C32 C 0.6908(6) 0.7411(10) 0.2952(4)
C33 C 0.8138(6) 0.7281(10) 0.2889(4)
H11 H 0.8160 0.7539 0.3197
C34 C 0.8725(6) 0.7054(11) 0.2647(4)
C35 C 0.9381(6) 0.7258(11) 0.2891(5)
C36 C 0.8674(6) 0.6618(11) 0.2202(4)
H12 H 0.9062 0.6453 0.2039
N4 N 0.8583(4) 0.5652(9) 0.1260(3)
N5 N 0.7664(5) 0.5234(9) 0.0857(4)
H20 H 0.7399 0.5012 0.0640
N6 N 0.7507(5) 0.5682(9) 0.1285(3)
H25 H 0.6007 0.7651 0.2927
O23 O 0.9413(4) 0.7511(7) 0.3312(4)
O24 O 0.9904(4) 0.7066(8) 0.2661(3)
Cd9 Cd 0.67561(4) 0.59547(6) 0.39709(3)
O32 O 0.9702(4) 0.7950(8) 0.0177(3)
C19 C 0.8714(6) 0.2830(10) 0.9424(4)
C20 C 0.8940(6) 0.3679(10) 0.9776(4)
C26 C 0.9568(6) 0.4100(10) 0.9747(4)
H9 H 0.9841 0.3882 0.9501
O14 O 0.9122(4) 0.9738(7) 0.9007(3)
O19 O 0.9157(4) 0.2518(7) 0.9126(3)
H24 H 0.8965 0.1978 0.8918
O20 O 0.8167(4) 0.2413(7) 0.9469(3)
O28 O 0.6920(4) 0.0544(7) 0.8979(3)
O40 O 0.8062(4) 0.2505(7) 0.8386(3)
O26 O 0.8010(4) 0.9870(7) 0.9657(3)
O27 O 0.7673(4) 0.9964(8) 0.8453(3)
O26_2 O 0.1990(4) 0.0130(7) 0.4657(3)
O36 O 0.0878(4) 0.0262(7) 0.4007(3)
C19_2 C 0.1286(6) 0.7170(10) 0.4424(4)
C20_2 C 0.1060(6) 0.6321(10) 0.4776(4)
C21_2 C 0.1487(6) 0.5934(10) 0.5138(4)
H7_2 H 0.1922 0.6182 0.5155
C22_2 C 0.1250(6) 0.5191(10) 0.5461(4)
C23_2 C 0.0605(5) 0.4785(11) 0.5437(4)
H8_2 H 0.0451 0.4276 0.5657
C24_2 C 0.0197(6) 0.5160(10) 0.5076(4)
C26_2 C 0.0432(6) 0.5900(10) 0.4747(4)
H9_2 H 0.0159 0.6118 0.4501
C27_2 C 0.1669(6) 0.4776(10) 0.5855(4)
C28_2 C 0.1935(6) 0.4098(10) 0.6508(4)
C29_2 C 0.1926(5) 0.3584(10) 0.6986(4)
C30_2 C 0.2500(6) 0.3317(10) 0.7225(4)
H10_2 H 0.2908 0.3434 0.7082
C31_2 C 0.2476(5) 0.2871(10) 0.7680(4)
C32_2 C 0.3092(6) 0.2589(10) 0.7952(4)
C33_2 C 0.1862(6) 0.2719(10) 0.7889(4)
H11_2 H 0.1840 0.2461 0.8197
C34_2 C 0.1275(6) 0.2946(11) 0.7647(4)
C35_2 C 0.0619(6) 0.2742(11) 0.7891(5)
C36_2 C 0.1326(6) 0.3382(11) 0.7202(4)
H12_2 H 0.0938 0.3547 0.7039
N4_2 N 0.1417(4) 0.4348(9) 0.6260(3)
N5_2 N 0.2336(5) 0.4766(9) 0.5857(4)
H20_2 H 0.2601 0.4988 0.5640
N6_2 N 0.2493(5) 0.4318(9) 0.6285(3)
O19_2 O 0.0843(4) 0.7482(7) 0.4126(3)
H24_2 H 0.1035 0.8022 0.3918
O20_2 O 0.1833(4) 0.7587(7) 0.4469(3)
O21 O 0.3638(4) 0.2534(8) 0.7717(3)
H25_2 H 0.3993 0.2349 0.7927
O22 O 0.3062(4) 0.2495(7) 0.8386(3)
O23_2 O 0.0587(4) 0.2489(7) 0.8312(4)
O24_2 O 0.0096(4) 0.2934(8) 0.7661(3)
Cd11 Cd 0.43901(4) 0.22963(7) 0.83240(3)
O34 O 0.0762(4) 0.9203(6) 0.3392(3)
O40_2 O 0.1938(4) 0.7495(7) 0.3386(3)
C43_2 C 0.0545(5) 0.9887(9) 0.3664(4)
H5_2 H 0.5730 0.0195 0.8658
C17_2 C 0.7080(6) 0.0061(10) 0.8602(4)
O5_2 O 0.4497(4) 0.0473(8) 0.8451(3)
O35_2 O 0.4238(4) 0.4203(6) 0.8392(3)
O37_2 O 0.4157(4) 0.2482(7) 0.9126(3)
O41_2 O 0.5587(4) 0.2511(7) 0.8312(4)
O42_2 O 0.5096(4) 0.2066(8) 0.7661(3)
Cd1_2 Cd 0.81677(3) 0.42628(6) 0.46390(2)
C1_2 C 0.7126(6) 0.5364(10) 0.5035(4)
C2_2 C 0.6608(6) 0.5879(11) 0.5320(5)
C3_2 C 0.5932(6) 0.5798(11) 0.5199(4)
H1_2 H 0.5820 0.5411 0.4928
C4_2 C 0.5424(6) 0.6266(12) 0.5463(4)
C5_2 C 0.4726(8) 0.6109(14) 0.5355(6)
C6_2 C 0.5576(7) 0.6793(13) 0.5877(5)
H2_2 H 0.5244 0.7069 0.6071
C7_2 C 0.6267(6) 0.6906(11) 0.6004(4)
C8_2 C 0.6756(7) 0.6467(12) 0.5733(4)
H3_2 H 0.7196 0.6557 0.5822
C9_2 C 0.6463(7) 0.7513(12) 0.6437(5)
C10_2 C 0.6452(6) 0.8298(12) 0.7092(4)
C11_2 C 0.6253(6) 0.8760(11) 0.7557(4)
C12_2 C 0.5586(6) 0.8944(10) 0.7650(4)
H4_2 H 0.5265 0.8711 0.7437
C13_2 C 0.5401(6) 0.9472(10) 0.8060(4)
C14_2 C 0.4672(6) 0.9789(11) 0.8133(5)
C15_2 C 0.5860(5) 0.9842(10) 0.8383(4)
C16_2 C 0.6525(5) 0.9667(10) 0.8281(4)
C18_2 C 0.6715(6) 0.9140(10) 0.7866(4)
H6_2 H 0.7163 0.9047 0.7799
C25_2 C 0.9469(6) 0.4708(11) 0.5049(4)
C37_2 C 0.8679(6) 0.2431(10) 0.4161(4)
C38_2 C 0.8962(5) 0.1567(9) 0.3809(4)
C39_2 C 0.8635(6) 0.1342(10) 0.3392(4)
H13_2 H 0.8225 0.1665 0.3331
C40_2 C 0.8921(5) 0.0635(10) 0.3071(4)
C41_2 C 0.9569(6) 0.0175(10) 0.3153(4)
C42_2 C 0.9875(5) 0.0384(10) 0.3578(4)
C44_2 C 0.9568(5) 0.1097(10) 0.3906(4)
H15_2 H 0.9777 0.1249 0.4190
C45_2 C 0.8599(5) 0.0314(10) 0.2632(4)
N1_2 N 0.6029(6) 0.7828(9) 0.6784(4)
N2_2 N 0.7069(7) 0.7816(11) 0.6536(4)
N3_2 N 0.7067(6) 0.8333(11) 0.6954(4)
H19_2 H 0.7399 0.8623 0.7099
N9_2 N 0.7950(5) 0.0351(10) 0.2587(4)
H21_2 H 0.7675 0.0615 0.2789
O1_2 O 0.6990(4) 0.4870(7) 0.4657(3)
O2_2 O 0.7707(4) 0.5405(7) 0.5193(3)
O6_2 O 0.4258(5) 0.9302(11) 0.7877(5)
H22_2 H 0.3822 0.9566 0.7954
O7_2 O 0.4272(7) 0.6326(14) 0.5645(6)
O8_2 O 0.4588(6) 0.5742(12) 0.4949(5)
H23_2 H 0.4115 0.5676 0.4923
O15_2 O 0.9018(4) 0.2615(7) 0.4513(3)
O16_2 O 0.8154(4) 0.2907(7) 0.4077(3)
O17_2 O 0.9281(4) 0.4080(7) 0.5361(3)
O18_2 O 0.9159(4) 0.5026(8) 0.4697(4)
O25_2 O 0.8471(5) 0.0551(8) 0.5165(4)
Cd5 Cd 0.68323(3) 0.92628(6) 0.96390(2)
O29_2 O 0.8080(4) 0.5544(7) 0.3979(3)
O30_2 O 0.8278(4) 0.2692(7) 0.5881(3)
O31_2 O 0.7833(4) 0.2851(6) 0.5187(2)
H26_2 H 0.87345 0.00727845 0.495085
H27_2 H 0.840172 0.0158352 0.546764
H14_2 H 0.9778 0.9746 0.2925
C46_2 C 0.8372(6) 0.9650(11) 0.1962(4)
C47_2 C 0.8403(6) 0.9111(11) 0.1506(4)
C48_2 C 0.7822(6) 0.8752(10) 0.1290(4)
H16_2 H 0.7419 0.8818 0.1446
C49_2 C 0.7845(5) 0.8296(10) 0.0842(4)
C50_2 C 0.7206(6) 0.7930(10) 0.0618(4)
C51_2 C 0.8444(5) 0.8128(10) 0.0623(4)
H17_2 H 0.8459 0.7795 0.0329
C52_2 C 0.9025(5) 0.8455(10) 0.0842(4)
C53_2 C 0.9680(6) 0.8264(11) 0.0598(4)
C54_2 C 0.9002(6) 0.8940(11) 0.1290(4)
H18_2 H 0.9392 0.9145 0.1440
N7_2 N 0.8867(4) 0.9855(8) 0.2256(3)
N8_2 N 0.7790(5) 0.9890(10) 0.2159(4)
O9_2 O 0.6722(4) 0.7692(7) 0.0881(3)
O10_2 O 0.7167(4) 0.7851(6) 0.0187(2)
Cd16_2 Cd 0.59679(4) 0.71901(7) 0.02980(3)
C23_3 C 0.5605(5) 0.0215(11) 0.5437(4)
H8_3 H 0.5451 0.0724 0.5657
C25_3 C 0.4469(6) 0.0292(11) 0.5049(4)
C27_3 C 0.6669(6) 0.0224(10) 0.5855(4)
C28_3 C 0.6935(6) 0.0902(10) 0.6508(4)
C29_3 C 0.6926(5) 0.1416(10) 0.6986(4)
C30_3 C 0.7500(6) 0.1683(10) 0.7225(4)
H10_3 H 0.7908 0.1566 0.7082
C31_3 C 0.7476(5) 0.2129(10) 0.7680(4)
C32_3 C 0.8092(6) 0.2411(10) 0.7952(4)
C33_3 C 0.6862(6) 0.2281(10) 0.7889(4)
H11_3 H 0.6840 0.2539 0.8197
C34_3 C 0.6275(6) 0.2054(11) 0.7647(4)
C35_3 C 0.5619(6) 0.2258(11) 0.7891(5)
C36_3 C 0.6326(6) 0.1618(11) 0.7202(4)
H12_3 H 0.5938 0.1453 0.7039
C37_3 C 0.3679(6) 0.2569(10) 0.4161(4)
C38_3 C 0.3962(5) 0.3433(9) 0.3809(4)
C39_3 C 0.3635(6) 0.3658(10) 0.3392(4)
H13_3 H 0.3225 0.3335 0.3331
C40_3 C 0.3921(5) 0.4365(10) 0.3071(4)
C41_3 C 0.4569(6) 0.4825(10) 0.3153(4)
H14_3 H 0.4778 0.5254 0.2925
C42_3 C 0.4875(5) 0.4616(10) 0.3578(4)
C43_3 C 0.5545(5) 0.5113(9) 0.3664(4)
C44_3 C 0.4568(5) 0.3903(10) 0.3906(4)
H15_3 H 0.4777 0.3751 0.4190
C45_3 C 0.3599(5) 0.4686(10) 0.2632(4)
C46_3 C 0.3372(6) 0.5350(11) 0.1962(4)
C47_3 C 0.3403(6) 0.5889(11) 0.1506(4)
C48_3 C 0.2822(6) 0.6248(10) 0.1290(4)
H16_3 H 0.2419 0.6182 0.1446
C49_3 C 0.2845(5) 0.6704(10) 0.0842(4)
C50_3 C 0.2206(6) 0.7070(10) 0.0618(4)
C51_3 C 0.3444(5) 0.6872(10) 0.0623(4)
H17_3 H 0.3459 0.7205 0.0329
C52_3 C 0.4025(5) 0.6545(10) 0.0842(4)
C53_3 C 0.4680(6) 0.6736(11) 0.0598(4)
C54_3 C 0.4002(6) 0.6060(11) 0.1290(4)
H18_3 H 0.4392 0.5855 0.1440
N4_3 N 0.6417(4) 0.0652(9) 0.6260(3)
N5_3 N 0.7336(5) 0.0234(9) 0.5857(4)
H20_3 H 0.7601 0.0012 0.5640
N6_3 N 0.7493(5) 0.0682(9) 0.6285(3)
N7_3 N 0.3867(4) 0.5145(8) 0.2256(3)
N8_3 N 0.2790(5) 0.5110(10) 0.2159(4)
N9_3 N 0.2950(5) 0.4649(10) 0.2587(4)
H21_3 H 0.2675 0.4385 0.2789
O11_2 O 0.4702(4) 0.7050(8) 0.0177(3)
O12_2 O 0.5194(4) 0.6599(8) 0.0823(3)
O14_2 O 0.5878(4) 0.4738(7) 0.4007(3)
O15_3 O 0.4018(4) 0.2385(7) 0.4513(3)
O16_3 O 0.3154(4) 0.2093(7) 0.4077(3)
O17_3 O 0.4281(4) 0.0920(7) 0.5361(3)
O21_2 O 0.8638(4) 0.2466(8) 0.7717(3)
H25_3 H 0.8993 0.2651 0.7927
O25_3 O 0.3471(5) 0.4449(8) 0.5165(4)
O32_2 O 0.5298(4) 0.2950(8) 0.5177(3)
O33_2 O 0.4806(4) 0.3401(8) 0.5823(3)
H26_3 H 0.37345 0.492722 0.495085
H27_3 H 0.340172 0.484165 0.546764
C1_3 C 0.2126(6) 0.9636(10) 0.5035(4)
C2_3 C 0.1608(6) 0.9121(11) 0.5320(5)
C3_3 C 0.0932(6) 0.9202(11) 0.5199(4)
H1_3 H 0.0820 0.9589 0.4928
C4_3 C 0.0424(6) 0.8734(12) 0.5463(4)
C6_3 C 0.0576(7) 0.8207(13) 0.5877(5)
H2_3 H 0.0244 0.7931 0.6071
C7_3 C 0.1267(6) 0.8094(11) 0.6004(4)
C8_3 C 0.1756(7) 0.8533(12) 0.5733(4)
H3_3 H 0.2196 0.8443 0.5822
C9_3 C 0.1463(7) 0.7487(12) 0.6437(5)
C10_3 C 0.1452(6) 0.6702(12) 0.7092(4)
C11_3 C 0.1253(6) 0.6240(11) 0.7557(4)
C12_3 C 0.0586(6) 0.6056(10) 0.7650(4)
H4_3 H 0.0265 0.6289 0.7437
C13_3 C 0.0401(6) 0.5528(10) 0.8060(4)
C15_3 C 0.0860(5) 0.5158(10) 0.8383(4)
H5_3 H 0.0730 0.4805 0.8658
C16_3 C 0.1525(5) 0.5333(10) 0.8281(4)
C17_3 C 0.2080(6) 0.4939(10) 0.8602(4)
C18_3 C 0.1715(6) 0.5860(10) 0.7866(4)
H6_3 H 0.2163 0.5953 0.7799
C19_3 C 0.6286(6) 0.7830(10) 0.4424(4)
C20_3 C 0.6060(6) 0.8679(10) 0.4776(4)
C21_3 C 0.6487(6) 0.9066(10) 0.5138(4)
H7_3 H 0.6922 0.8818 0.5155
C22_3 C 0.6250(6) 0.9809(10) 0.5461(4)
C24_3 C 0.5197(6) 0.9840(10) 0.5076(4)
C26_3 C 0.5432(6) 0.9100(10) 0.4747(4)
H9_3 H 0.5159 0.8882 0.4501
N1_3 N 0.1029(6) 0.7172(9) 0.6784(4)
N2_3 N 0.2069(7) 0.7184(11) 0.6536(4)
N3_3 N 0.2067(6) 0.6667(11) 0.6954(4)
H19_3 H 0.2399 0.6377 0.7099
O2_3 O 0.2707(4) 0.9595(7) 0.5193(3)
O3_2 O 0.2673(4) 0.5036(8) 0.8453(3)
O18_3 O 0.4159(4) 0.9974(8) 0.4697(4)
H24_3 H 0.6035 0.6978 0.3918
O20_3 O 0.6833(4) 0.7413(7) 0.4469(3)
O27_2 O 0.7327(4) 0.4964(8) 0.3453(3)
C5_3 C 0.9726(8) 0.8891(14) 0.5355(6)
C14_3 C 0.9672(6) 0.5211(11) 0.8133(5)
O5_3 O 0.9497(4) 0.4527(8) 0.8451(3)
O6_3 O 0.9258(5) 0.5698(11) 0.7877(5)
H22_3 H 0.8822 0.5434 0.7954
O7_3 O 0.9272(7) 0.8674(14) 0.5645(6)
O8_3 O 0.9588(6) 0.9258(12) 0.4949(5)
H23_3 H 0.9115 0.9324 0.4923
C5_4 C 0.0274(8) 0.1109(14) 0.0355(6)
C14_4 C 0.0328(6) 0.4789(11) 0.3133(5)
O5_4 O 0.0503(4) 0.5473(8) 0.3451(3)
O6_4 O 0.0742(5) 0.4302(11) 0.2877(5)
H22_4 H 0.1178 0.4566 0.2954
O7_4 O 0.0728(7) 0.1326(14) 0.0645(6)
O38_2 O 0.1362(4) 0.7534(8) 0.2717(3)
C1_4 C 0.7874(6) 0.0364(10) 0.0035(4)
C2_4 C 0.8392(6) 0.0879(11) 0.0320(5)
C3_4 C 0.9068(6) 0.0798(11) 0.0199(4)
C4_4 C 0.9576(6) 0.1266(12) 0.0463(4)
C6_4 C 0.9424(7) 0.1793(13) 0.0877(5)
H2_4 H 0.9756 0.2069 0.1071
C7_4 C 0.8733(6) 0.1906(11) 0.1004(4)
C8_4 C 0.8244(7) 0.1467(12) 0.0733(4)
H3_4 H 0.7804 0.1557 0.0822
C9_4 C 0.8537(7) 0.2513(12) 0.1437(5)
C10_4 C 0.8548(6) 0.3298(12) 0.2092(4)
C11_4 C 0.8747(6) 0.3760(11) 0.2557(4)
C12_4 C 0.9414(6) 0.3944(10) 0.2650(4)
H4_4 H 0.9735 0.3711 0.2437
C13_4 C 0.9599(6) 0.4472(10) 0.3060(4)
C15_4 C 0.9140(5) 0.4842(10) 0.3383(4)
H5_4 H 0.9270 0.5195 0.3658
C16_4 C 0.8475(5) 0.4667(10) 0.3281(4)
C17_4 C 0.7920(6) 0.5061(10) 0.3602(4)
C18_4 C 0.8285(6) 0.4140(10) 0.2866(4)
H6_4 H 0.7837 0.4047 0.2799
C21_4 C 0.3513(6) 0.0934(10) 0.0138(4)
H7_4 H 0.3078 0.1182 0.0155
C22_4 C 0.3750(6) 0.0191(10) 0.0461(4)
C24_4 C 0.4803(6) 0.0160(10) 0.0076(4)
N1_4 N 0.8971(6) 0.2828(9) 0.1784(4)
N2_4 N 0.7931(7) 0.2816(11) 0.1536(4)
N3_4 N 0.7933(6) 0.3333(11) 0.1954(4)
H19_4 H 0.7601 0.3623 0.2099
O2_4 O 0.7293(4) 0.0405(7) 0.0193(3)
H1_4 H 0.9180 0.0411 0.9928
C19_4 C 0.3714(6) 0.2170(10) 0.9424(4)
C20_4 C 0.3940(6) 0.1321(10) 0.9776(4)
C26_4 C 0.4568(6) 0.0900(10) 0.9747(4)
H9_4 H 0.4841 0.1118 0.9501
O18_4 O 0.5841(4) 0.0026(8) 0.9697(4)
H24_4 H 0.3965 0.3022 0.8918
O20_4 O 0.3167(4) 0.2587(7) 0.9469(3)
O36_2 O 0.4122(4) 0.5262(7) 0.9007(3)
C23_4 C 0.4395(5) 0.9785(11) 0.0437(4)
H8_4 H 0.4549 0.9276 0.0657
C25_4 C 0.5531(6) 0.9708(11) 0.0049(4)
C27_4 C 0.3331(6) 0.9776(10) 0.0855(4)
C28_4 C 0.3065(6) 0.9098(10) 0.1508(4)
C29_4 C 0.3074(5) 0.8584(10) 0.1986(4)
C30_4 C 0.2500(6) 0.8317(10) 0.2225(4)
H10_4 H 0.2092 0.8434 0.2082
C31_4 C 0.2524(5) 0.7871(10) 0.2680(4)
C32_4 C 0.1908(6) 0.7589(10) 0.2952(4)
C33_4 C 0.3138(6) 0.7719(10) 0.2889(4)
H11_4 H 0.3160 0.7461 0.3197
C34_4 C 0.3725(6) 0.7946(11) 0.2647(4)
C35_4 C 0.4381(6) 0.7742(11) 0.2891(5)
C36_4 C 0.3674(6) 0.8382(11) 0.2202(4)
H12_4 H 0.4062 0.8547 0.2039
N4_4 N 0.3583(4) 0.9348(9) 0.1260(3)
N5_4 N 0.2664(5) 0.9766(9) 0.0857(4)
H20_4 H 0.2399 0.9988 0.0640
N6_4 N 0.2507(5) 0.9318(9) 0.1285(3)
O17_4 O 0.5719(4) 0.9080(7) 0.0361(3)
H25_4 H 0.1007 0.7349 0.2927
O25_4 O 0.6529(5) 0.5551(8) 0.0165(4)
H27_4 H 0.659828 0.515835 0.0467644
C37_4 C 0.6321(6) 0.7431(10) 0.9161(4)
C38_4 C 0.6038(5) 0.6567(9) 0.8809(4)
C39_4 C 0.6365(6) 0.6342(10) 0.8392(4)
H13_4 H 0.6775 0.6665 0.8331
C40_4 C 0.6079(5) 0.5635(10) 0.8071(4)
C41_4 C 0.5431(6) 0.5175(10) 0.8153(4)
H14_4 H 0.5222 0.4746 0.7925
C42_4 C 0.5125(5) 0.5384(10) 0.8578(4)
C43_4 C 0.4455(5) 0.4887(9) 0.8664(4)
C44_4 C 0.5432(5) 0.6097(10) 0.8906(4)
H15_4 H 0.5223 0.6249 0.9190
C45_4 C 0.6401(5) 0.5314(10) 0.7632(4)
C46_4 C 0.6628(6) 0.4650(11) 0.6962(4)
C47_4 C 0.6597(6) 0.4111(11) 0.6506(4)
C48_4 C 0.7178(6) 0.3752(10) 0.6290(4)
H16_4 H 0.7581 0.3818 0.6446
C49_4 C 0.7155(5) 0.3296(10) 0.5842(4)
C50_4 C 0.7794(6) 0.2930(10) 0.5618(4)
C51_4 C 0.6556(5) 0.3128(10) 0.5623(4)
H17_4 H 0.6541 0.2795 0.5329
C52_4 C 0.5975(5) 0.3455(10) 0.5842(4)
C53_4 C 0.5320(6) 0.3264(11) 0.5598(4)
C54_4 C 0.5998(6) 0.3940(11) 0.6290(4)
H18_4 H 0.5608 0.4145 0.6440
N7_4 N 0.6133(4) 0.4855(8) 0.7256(3)
N8_4 N 0.7210(5) 0.4890(10) 0.7159(4)
N9_4 N 0.7050(5) 0.5351(10) 0.7587(4)
H21_4 H 0.7325 0.5615 0.7789
O15_4 O 0.5982(4) 0.7615(7) 0.9513(3)
O16_4 O 0.6846(4) 0.7907(7) 0.9077(3)
H26_4 H 0.62655 0.507278 0.995085
O8_4 O 0.0412(6) 0.0742(12) 0.9949(5)
H23_4 H 0.0885 0.0676 0.9923
loop_
_geom_bond_atom_site_label_1
_geom_bond_atom_site_label_2
_geom_bond_site_symmetry_1
_geom_bond_site_symmetry_2
C46 C47 1_555 1_555
C47 C48 1_555 1_555
C48 H16 1_555 1_555
C49 C48 1_555 1_555
C50 C49 1_555 1_555
C51 C49 1_555 1_555
H17 C51 1_555 1_555
C52 C51 1_555 1_555
C53 C52 1_555 1_555
C54 C47 1_555 1_555
H18 C54 1_555 1_555
N8 C46 1_555 1_555
O9 C50 1_555 1_555
O10 C50 1_555 1_555
O11 C53 1_555 1_555
Cd6 O10 1_555 1_555
Cd16 O9 1_555 1_555
C46 N7 1_555 1_555
C52 C54 1_555 1_555
O10 Cd16 1_555 1_555
C1 C2 1_555 1_555
C2 C3 1_555 1_555
C4 C3 1_555 1_555
C5 C4 1_555 1_555
C6 C4 1_555 1_555
H2 C6 1_555 1_555
C7 C6 1_555 1_555
C8 C2 1_555 1_555
H3 C8 1_555 1_555
C9 C7 1_555 1_555
C10 C11 1_555 1_555
C11 C12 1_555 1_555
C12 H4 1_555 1_555
C13 C12 1_555 1_555
C14 C13 1_555 1_555
C15 C13 1_555 1_555
C16 C15 1_555 1_555
C18 C11 1_555 1_555
H6 C18 1_555 1_555
N1 C9 1_555 1_555
N2 C9 1_555 1_555
N3 C10 1_555 1_555
H19 N3 1_555 1_555
O6 C14 1_555 1_555
H22 O6 1_555 1_555
O7 C5 1_555 1_555
O17 Cd4 1_555 1_555
O25 Cd4 1_555 1_555
O30 Cd4 1_555 1_555
O33 Cd4 1_555 1_555
Cd4 O31 1_555 1_555
C1 O2 1_555 1_555
C7 C8 1_555 1_555
C10 N1 1_555 1_555
C16 C18 1_555 1_555
C25 O17 1_555 1_555
N2 N3 1_555 1_555
O25 H27 1_555 1_555
Cd1 O1 1_555 1_555
C37 C38 1_555 1_555
C38 C39 1_555 1_555
C39 H13 1_555 1_555
C40 C39 1_555 1_555
C41 C40 1_555 1_555
C42 C41 1_555 1_555
C44 C38 1_555 1_555
H15 C44 1_555 1_555
C45 C40 1_555 1_555
N9 C45 1_555 1_555
H21 N9 1_555 1_555
H23 O8 1_555 1_555
O15 Cd1 1_555 1_555
O16 Cd1 1_555 1_555
O18 Cd1 1_555 1_555
Cd10 O1 1_555 1_555
O29 Cd1 1_555 1_555
C37 O15 1_555 1_555
C37 O16 1_555 1_555
C42 C44 1_555 1_555
Cd10 O29 1_555 1_555
Cd3 O5 1_555 1_555
O4 C17 1_555 1_555
O35 Cd3 1_555 1_555
O37 Cd3 1_555 1_555
O38 Cd3 1_555 1_555
O39 Cd3 1_555 1_555
O41 Cd3 1_555 1_555
O42 Cd3 1_555 1_555
O4 Cd8 1_555 1_555
O13 C43 1_555 1_555
Cd7 O13 1_555 1_555
Cd13 O13 1_555 1_555
O12 Cd15 1_555 1_555
C21 H7 1_555 1_555
C22 C21 1_555 1_555
C23 C22 1_555 1_555
H8 C23 1_555 1_555
C24 C23 1_555 1_555
C27 C22 1_555 1_555
C28 C29 1_555 1_555
C29 C30 1_555 1_555
C30 H10 1_555 1_555
C31 C30 1_555 1_555
C32 C31 1_555 1_555
C33 C31 1_555 1_555
H11 C33 1_555 1_555
C34 C33 1_555 1_555
C35 C34 1_555 1_555
C36 C29 1_555 1_555
H12 C36 1_555 1_555
N4 C27 1_555 1_555
N5 C27 1_555 1_555
H20 N5 1_555 1_555
N6 C28 1_555 1_555
O38 C32 1_555 1_555
H25 O38 1_555 1_555
O39 C32 1_555 1_555
O23 C35 1_555 1_555
O24 C35 1_555 1_555
Cd9 O39 1_555 1_555
C28 N4 1_555 1_555
C34 C36 1_555 1_555
N5 N6 1_555 1_555
Cd7 O19 1_555 1_555
C19 C20 1_555 1_555
C26 C20 1_555 1_555
H9 C26 1_555 1_555
O19 C19 1_555 1_555
H24 O19 1_555 1_555
O20 Cd7 1_555 1_555
Cd13 O19 1_555 1_555
O28 Cd7 1_555 1_555
O40 Cd7 1_555 1_555
C19 O20 1_555 1_555
Cd13 O40 1_555 1_555
Cd8 O19_2 1_555 1_555
C19_2 C20_2 1_555 1_555
C20_2 C21_2 1_555 1_555
C21_2 H7_2 1_555 1_555
C22_2 C21_2 1_555 1_555
C23_2 C22_2 1_555 1_555
H8_2 C23_2 1_555 1_555
C24_2 C23_2 1_555 1_555
C26_2 C20_2 1_555 1_555
H9_2 C26_2 1_555 1_555
C27_2 C22_2 1_555 1_555
C28_2 C29_2 1_555 1_555
C29_2 C30_2 1_555 1_555
C30_2 H10_2 1_555 1_555
C31_2 C30_2 1_555 1_555
C32_2 C31_2 1_555 1_555
C33_2 C31_2 1_555 1_555
H11_2 C33_2 1_555 1_555
C34_2 C33_2 1_555 1_555
C35_2 C34_2 1_555 1_555
C36_2 C29_2 1_555 1_555
H12_2 C36_2 1_555 1_555
N4_2 C27_2 1_555 1_555
N5_2 C27_2 1_555 1_555
H20_2 N5_2 1_555 1_555
N6_2 C28_2 1_555 1_555
O19_2 C19_2 1_555 1_555
H24_2 O19_2 1_555 1_555
O20_2 Cd8 1_555 1_555
O21 C32_2 1_555 1_555
H25_2 O21 1_555 1_555
O22 C32_2 1_555 1_555
O23_2 C35_2 1_555 1_555
O24_2 C35_2 1_555 1_555
Cd10 O22 1_555 1_555
Cd11 O21 1_555 1_555
Cd14 O19_2 1_555 1_555
O34 Cd8 1_555 1_555
O40_2 Cd8 1_555 1_555
C19_2 O20_2 1_555 1_555
C24_2 C26_2 1_555 1_555
C28_2 N4_2 1_555 1_555
C34_2 C36_2 1_555 1_555
N5_2 N6_2 1_555 1_555
O22 Cd11 1_555 1_555
Cd14 O34 1_555 1_555
Cd14 O40_2 1_555 1_555
O34 C43_2 1_555 1_555
Cd11 O5_2 1_555 1_555
O28 C17_2 1_555 1_555
O35_2 Cd11 1_555 1_555
O37_2 Cd11 1_555 1_555
O41_2 Cd11 1_555 1_555
O42_2 Cd11 1_555 1_555
Cd1_2 O1_2 1_555 1_555
Cd15 O15_2 1_555 1_555
C1_2 C2_2 1_555 1_555
C2_2 C3_2 1_555 1_555
C3_2 H1_2 1_555 1_555
C4_2 C3_2 1_555 1_555
C5_2 C4_2 1_555 1_555
C6_2 C4_2 1_555 1_555
H2_2 C6_2 1_555 1_555
C7_2 C6_2 1_555 1_555
C8_2 C2_2 1_555 1_555
H3_2 C8_2 1_555 1_555
C9_2 C7_2 1_555 1_555
C10_2 C11_2 1_555 1_555
C11_2 C12_2 1_555 1_555
C12_2 H4_2 1_555 1_555
C13_2 C12_2 1_555 1_555
C14_2 C13_2 1_555 1_555
C15_2 C13_2 1_555 1_555
C16_2 C15_2 1_555 1_555
C18_2 C11_2 1_555 1_555
H6_2 C18_2 1_555 1_555
C37_2 C38_2 1_555 1_555
C38_2 C39_2 1_555 1_555
C39_2 H13_2 1_555 1_555
C40_2 C39_2 1_555 1_555
C41_2 C40_2 1_555 1_555
C42_2 C41_2 1_555 1_555
C44_2 C38_2 1_555 1_555
H15_2 C44_2 1_555 1_555
C45_2 C40_2 1_555 1_555
N1_2 C9_2 1_555 1_555
N2_2 C9_2 1_555 1_555
N3_2 C10_2 1_555 1_555
H19_2 N3_2 1_555 1_555
N9_2 C45_2 1_555 1_555
H21_2 N9_2 1_555 1_555
O1_2 C1_2 1_555 1_555
O2_2 Cd1_2 1_555 1_555
O6_2 C14_2 1_555 1_555
H22_2 O6_2 1_555 1_555
O7_2 C5_2 1_555 1_555
O8_2 C5_2 1_555 1_555
H23_2 O8_2 1_555 1_555
O15_2 Cd1_2 1_555 1_555
O16_2 Cd1_2 1_555 1_555
O17_2 Cd15 1_555 1_555
O18_2 Cd1_2 1_555 1_555
O25_2 Cd15 1_555 1_555
Cd9 O1_2 1_555 1_555
O29_2 Cd1_2 1_555 1_555
O30_2 Cd15 1_555 1_555
O31_2 Cd1_2 1_555 1_555
Cd15 O31_2 1_555 1_555
C1_2 O2_2 1_555 1_555
C7_2 C8_2 1_555 1_555
C10_2 N1_2 1_555 1_555
C16_2 C18_2 1_555 1_555
C25_2 O17_2 1_555 1_555
C25_2 O18_2 1_555 1_555
C37_2 O15_2 1_555 1_555
C37_2 O16_2 1_555 1_555
C42_2 C44_2 1_555 1_555
N2_2 N3_2 1_555 1_555
Cd9 O29_2 1_555 1_555
O25_2 H26_2 1_555 1_555
O25_2 H27_2 1_555 1_555
C46_2 C47_2 1_555 1_555
C47_2 C48_2 1_555 1_555
C48_2 H16_2 1_555 1_555
C49_2 C48_2 1_555 1_555
C50_2 C49_2 1_555 1_555
C51_2 C49_2 1_555 1_555
H17_2 C51_2 1_555 1_555
C52_2 C51_2 1_555 1_555
C53_2 C52_2 1_555 1_555
C54_2 C47_2 1_555 1_555
H18_2 C54_2 1_555 1_555
N8_2 C46_2 1_555 1_555
O9_2 C50_2 1_555 1_555
O10_2 C50_2 1_555 1_555
O32 C53_2 1_555 1_555
Cd16_2 O9_2 1_555 1_555
C46_2 N7_2 1_555 1_555
C52_2 C54_2 1_555 1_555
O10_2 Cd16_2 1_555 1_555
Cd6 O26_2 1_555 1_555
Cd16 O15_3 1_555 1_555
H8_3 C23_3 1_555 1_555
C28_3 C29_3 1_555 1_555
C29_3 C30_3 1_555 1_555
C30_3 H10_3 1_555 1_555
C31_3 C30_3 1_555 1_555
C32_3 C31_3 1_555 1_555
C33_3 C31_3 1_555 1_555
H11_3 C33_3 1_555 1_555
C34_3 C33_3 1_555 1_555
C35_3 C34_3 1_555 1_555
C36_3 C29_3 1_555 1_555
H12_3 C36_3 1_555 1_555
C37_3 C38_3 1_555 1_555
C38_3 C39_3 1_555 1_555
C39_3 H13_3 1_555 1_555
C40_3 C39_3 1_555 1_555
C41_3 C40_3 1_555 1_555
H14_3 C41_3 1_555 1_555
C42_3 C41_3 1_555 1_555
C43_3 C42_3 1_555 1_555
C44_3 C38_3 1_555 1_555
H15_3 C44_3 1_555 1_555
C45_3 C40_3 1_555 1_555
C46_3 C47_3 1_555 1_555
C47_3 C48_3 1_555 1_555
C48_3 H16_3 1_555 1_555
C49_3 C48_3 1_555 1_555
C50_3 C49_3 1_555 1_555
C51_3 C49_3 1_555 1_555
H17_3 C51_3 1_555 1_555
C52_3 C51_3 1_555 1_555
C53_3 C52_3 1_555 1_555
C54_3 C47_3 1_555 1_555
H18_3 C54_3 1_555 1_555
N4_3 C27_3 1_555 1_555
N5_3 C27_3 1_555 1_555
H20_3 N5_3 1_555 1_555
N6_3 C28_3 1_555 1_555
N7_3 C45_3 1_555 1_555
N8_3 C46_3 1_555 1_555
N9_3 C45_3 1_555 1_555
H21_3 N9_3 1_555 1_555
O30 C50_3 1_555 1_555
O31 C50_3 1_555 1_555
O11_2 C53_3 1_555 1_555
O12_2 C53_3 1_555 1_555
O35 C43_3 1_555 1_555
O14_2 C43_3 1_555 1_555
O15_3 Cd6 1_555 1_555
O16_3 Cd6 1_555 1_555
O17_3 Cd16 1_555 1_555
O21_2 C32_3 1_555 1_555
H25_3 O21_2 1_555 1_555
O40 C32_3 1_555 1_555
O41_2 C35_3 1_555 1_555
O42_2 C35_3 1_555 1_555
O25_3 Cd16 1_555 1_555
Cd9 O35 1_555 1_555
Cd13 O21_2 1_555 1_555
Cd16_2 O11_2 1_555 1_555
O32_2 Cd16 1_555 1_555
O33_2 Cd16 1_555 1_555
C25_3 O17_3 1_555 1_555
C28_3 N4_3 1_555 1_555
C34_3 C36_3 1_555 1_555
C37_3 O15_3 1_555 1_555
C37_3 O16_3 1_555 1_555
C42_3 C44_3 1_555 1_555
C46_3 N7_3 1_555 1_555
C52_3 C54_3 1_555 1_555
N5_3 N6_3 1_555 1_555
N8_3 N9_3 1_555 1_555
O12_2 Cd16_2 1_555 1_555
O14_2 Cd9 1_555 1_555
O25_3 H26_3 1_555 1_555
O25_3 H27_3 1_555 1_555
Cd9 O37 1_555 1_555
C1_3 C2_3 1_555 1_555
C2_3 C3_3 1_555 1_555
C3_3 H1_3 1_555 1_555
C4_3 C3_3 1_555 1_555
C6_3 C4_3 1_555 1_555
H2_3 C6_3 1_555 1_555
C7_3 C6_3 1_555 1_555
C8_3 C2_3 1_555 1_555
H3_3 C8_3 1_555 1_555
C9_3 C7_3 1_555 1_555
C10_3 C11_3 1_555 1_555
C11_3 C12_3 1_555 1_555
C12_3 H4_3 1_555 1_555
C13_3 C12_3 1_555 1_555
C15_3 C13_3 1_555 1_555
H5_3 C15_3 1_555 1_555
C16_3 C15_3 1_555 1_555
C17_3 C16_3 1_555 1_555
C18_3 C11_3 1_555 1_555
H6_3 C18_3 1_555 1_555
C19_3 C20_3 1_555 1_555
C20_3 C21_3 1_555 1_555
C21_3 H7_3 1_555 1_555
C22_3 C21_3 1_555 1_555
C26_3 C20_3 1_555 1_555
H9_3 C26_3 1_555 1_555
N1_3 C9_3 1_555 1_555
N2_3 C9_3 1_555 1_555
N3_3 C10_3 1_555 1_555
H19_3 N3_3 1_555 1_555
O3_2 C17_3 1_555 1_555
O29 C17_3 1_555 1_555
O37 C19_3 1_555 1_555
H24_3 O37 1_555 1_555
O20_3 Cd9 1_555 1_555
Cd10 O3_2 1_555 1_555
O27_2 Cd9 1_555 1_555
C1_3 O2_3 1_555 1_555
C7_3 C8_3 1_555 1_555
C10_3 N1_3 1_555 1_555
C16_3 C18_3 1_555 1_555
C19_3 O20_3 1_555 1_555
C24_3 C26_3 1_555 1_555
N2_3 N3_3 1_555 1_555
Cd13 O5_3 1_555 1_555
O5_3 C14_3 1_555 1_555
O6_3 C14_3 1_555 1_555
H22_3 O6_3 1_555 1_555
O7_3 C5_3 1_555 1_555
O8_3 C5_3 1_555 1_555
H23_3 O8_3 1_555 1_555
Cd14 O5_4 1_555 1_555
O5_4 C14_4 1_555 1_555
O6_4 C14_4 1_555 1_555
H22_4 O6_4 1_555 1_555
O7_4 C5_4 1_555 1_555
O38_2 Cd14 1_555 1_555
C1_4 C2_4 1_555 1_555
C2_4 C3_4 1_555 1_555
C4_4 C3_4 1_555 1_555
C6_4 C4_4 1_555 1_555
H2_4 C6_4 1_555 1_555
C7_4 C6_4 1_555 1_555
C8_4 C2_4 1_555 1_555
H3_4 C8_4 1_555 1_555
C9_4 C7_4 1_555 1_555
C10_4 C11_4 1_555 1_555
C11_4 C12_4 1_555 1_555
C12_4 H4_4 1_555 1_555
C13_4 C12_4 1_555 1_555
C15_4 C13_4 1_555 1_555
H5_4 C15_4 1_555 1_555
C16_4 C15_4 1_555 1_555
C17_4 C16_4 1_555 1_555
C18_4 C11_4 1_555 1_555
H6_4 C18_4 1_555 1_555
C21_4 H7_4 1_555 1_555
C22_4 C21_4 1_555 1_555
N1_4 C9_4 1_555 1_555
N2_4 C9_4 1_555 1_555
N3_4 C10_4 1_555 1_555
H19_4 N3_4 1_555 1_555
O27_2 C17_4 1_555 1_555
O29_2 C17_4 1_555 1_555
C1_4 O2_4 1_555 1_555
C7_4 C8_4 1_555 1_555
C10_4 N1_4 1_555 1_555
C16_4 C18_4 1_555 1_555
N2_4 N3_4 1_555 1_555
Cd10 O37_2 1_555 1_555
C19_4 C20_4 1_555 1_555
C26_4 C20_4 1_555 1_555
H9_4 C26_4 1_555 1_555
O37_2 C19_4 1_555 1_555
H24_4 O37_2 1_555 1_555
O20_4 Cd10 1_555 1_555
O35_2 Cd10 1_555 1_555
O36_2 Cd10 1_555 1_555
C19_4 O20_4 1_555 1_555
H8_4 C23_4 1_555 1_555
C28_4 C29_4 1_555 1_555
C29_4 C30_4 1_555 1_555
C30_4 H10_4 1_555 1_555
C31_4 C30_4 1_555 1_555
C32_4 C31_4 1_555 1_555
C33_4 C31_4 1_555 1_555
H11_4 C33_4 1_555 1_555
C34_4 C33_4 1_555 1_555
C35_4 C34_4 1_555 1_555
C36_4 C29_4 1_555 1_555
H12_4 C36_4 1_555 1_555
N4_4 C27_4 1_555 1_555
N5_4 C27_4 1_555 1_555
H20_4 N5_4 1_555 1_555
N6_4 C28_4 1_555 1_555
O17_4 Cd16_2 1_555 1_555
O38_2 C32_4 1_555 1_555
H25_4 O38_2 1_555 1_555
O40_2 C32_4 1_555 1_555
O41 C35_4 1_555 1_555
O42 C35_4 1_555 1_555
O25_4 Cd16_2 1_555 1_555
C25_4 O17_4 1_555 1_555
C28_4 N4_4 1_555 1_555
C34_4 C36_4 1_555 1_555
N5_4 N6_4 1_555 1_555
O25_4 H27_4 1_555 1_555
Cd5 O26 1_555 1_555
C37_4 C38_4 1_555 1_555
C38_4 C39_4 1_555 1_555
C39_4 H13_4 1_555 1_555
C40_4 C39_4 1_555 1_555
C41_4 C40_4 1_555 1_555
H14_4 C41_4 1_555 1_555
C42_4 C41_4 1_555 1_555
C43_4 C42_4 1_555 1_555
C44_4 C38_4 1_555 1_555
H15_4 C44_4 1_555 1_555
C45_4 C40_4 1_555 1_555
C46_4 C47_4 1_555 1_555
C47_4 C48_4 1_555 1_555
C48_4 H16_4 1_555 1_555
C49_4 C48_4 1_555 1_555
C50_4 C49_4 1_555 1_555
C51_4 C49_4 1_555 1_555
H17_4 C51_4 1_555 1_555
C52_4 C51_4 1_555 1_555
C53_4 C52_4 1_555 1_555
C54_4 C47_4 1_555 1_555
H18_4 C54_4 1_555 1_555
N7_4 C45_4 1_555 1_555
N8_4 C46_4 1_555 1_555
N9_4 C45_4 1_555 1_555
H21_4 N9_4 1_555 1_555
O30_2 C50_4 1_555 1_555
O31_2 C50_4 1_555 1_555
O32_2 C53_4 1_555 1_555
O33_2 C53_4 1_555 1_555
O35_2 C43_4 1_555 1_555
O36_2 C43_4 1_555 1_555
O15_4 Cd5 1_555 1_555
O16_4 Cd5 1_555 1_555
C37_4 O15_4 1_555 1_555
C37_4 O16_4 1_555 1_555
C42_4 C44_4 1_555 1_555
C46_4 N7_4 1_555 1_555
C52_4 C54_4 1_555 1_555
N8_4 N9_4 1_555 1_555
H23_4 O8_4 1_555 1_555

#END
