
###############################################################################
#
# This file contains modified crystal structure data generated from the
# MOF subset of the Cambridge Structural Database (CSD) v543 
# hosted by the Cambridge Crystallographic Data Centre (CCDC).
#
# This work is licensed under the Creative Commons
# Attribution-NonCommercial-ShareAlike 4.0 International License.
# To view a copy of this license, visit
# http://creativecommons.org/licenses/by-nc-sa/4.0/
# or send a letter to
# Creative Commons, PO Box 1866, Mountain View, CA 94042, USA.
#
# CIF created using the CSD Python API on 29 September 2022
# The structure has been converted into the P1 space group
# The structure has a 3D framework
# The original CSD entry PORWIE is in the monoclinic crystal system
# The framework has been calculated to contain at least 10.0% void space
# The void calculation uses a probe of radius 1.32A, grid spacing 0.4
#
###############################################################################

data_PORWIE
_chemical_formula_moiety         '(C224 H176 Mn8 N32 O28)n'
_symmetry_cell_setting           triclinic
_symmetry_space_group_name_H-M   'P 1'
_symmetry_Int_Tables_number      1
_space_group_name_Hall           'P 1'
loop_
_symmetry_equiv_pos_site_id
_symmetry_equiv_pos_as_xyz
1 x,y,z
_cell_length_a                   25.258(5)
_cell_length_b                   11.223(5)
_cell_length_c                   20.026(5)
_cell_angle_alpha                90
_cell_angle_beta                 108.288(5)
_cell_angle_gamma                90
_cell_volume                     5390.05
loop_
_atom_site_label
_atom_site_type_symbol
_atom_site_fract_x
_atom_site_fract_y
_atom_site_fract_z
N7 N 0.17033(11) 0.4184(3) 0.34758(16)
N8 N 0.09329(12) 0.5132(3) 0.34456(16)
C43 C 0.12603(14) 0.4172(3) 0.36787(19)
H31 H 0.1180 0.3572 0.3952
C44 C 0.04168(14) 0.5357(3) 0.35888(19)
C47 C 0.00390(15) 0.4438(4) 0.3471(2)
H33 H 0.0120 0.3728 0.3284
C48 C 0.03251(15) 0.6431(3) 0.3878(2)
C50 C 0.16550(16) 0.5200(4) 0.3080(2)
H34 H 0.1910 0.5445 0.2860
C53 C 0.11870(17) 0.5792(4) 0.3055(2)
H37 H 0.1061 0.6504 0.2822
C56 C 0.0743(2) 0.7426(4) 0.4062(3)
H42 H 0.0723 0.7870 0.3645
H43 H 0.0662 0.7943 0.4399
H44 H 0.1111 0.7100 0.4258
Mn7 Mn 0.237596(19) 0.27870(5) 0.37806(3)
O7 O 0.27153(11) 0.3602(2) 0.29033(13)
O8 O 0.20987(11) 0.2158(2) 0.26711(13)
C36 C 0.24821(16) 0.2568(3) 0.03614(18)
C37 C 0.24092(15) 0.2871(3) 0.24777(19)
C38 C 0.24213(15) 0.2803(3) 0.17347(18)
C39 C 0.2126(2) 0.1950(5) 0.1292(2)
H27 H 0.1898 0.1438 0.1444
C40 C 0.2737(2) 0.3567(4) 0.1484(2)
H28 H 0.2934 0.4174 0.1773
C41 C 0.2770(2) 0.3450(4) 0.0809(2)
H29 H 0.2990 0.3978 0.0654
C42 C 0.2158(2) 0.1832(5) 0.0616(2)
H30 H 0.1954 0.1234 0.0327
Mn1 Mn 0.262404(19) 0.22130(5) 0.62194(3)
O1 O 0.27415(9) 0.3678(2) 0.47549(12)
O2 O 0.22847(11) 0.1398(2) 0.70967(13)
O3 O 0.29013(11) 0.2842(2) 0.73289(13)
N1 N 0.18765(11) 0.3413(3) 0.59759(16)
O4 O 0.31811(9) 0.3309(2) 0.58866(12)
C1 C 0.25179(16) 0.2432(3) 0.96386(18)
N2 N 0.10695(12) 0.4189(3) 0.59369(17)
C2 C 0.47338(13) 0.4778(3) 0.50373(18)
C3 C 0.37196(13) 0.3991(3) 0.51919(17)
C4 C 0.31737(13) 0.3623(3) 0.52788(18)
C5 C 0.25908(15) 0.2129(3) 0.75223(19)
C6 C 0.42428(14) 0.4790(4) 0.44800(19)
H1 H 0.4248 0.5065 0.4044
C9 C 0.25787(15) 0.2197(3) 0.82653(18)
C10 C 0.05570(14) 0.4383(4) 0.6099(2)
C11 C 0.37472(14) 0.4404(3) 0.45540(19)
H3 H 0.3425 0.4421 0.4168
C12 C 0.14660(14) 0.3388(4) 0.6245(2)
H4 H 0.1451 0.2878 0.6604
C15 C 0.04627(15) 0.5467(4) 0.6377(2)
C16 C 0.47039(16) 0.4333(4) 0.5672(2)
H6 H 0.5026 0.4296 0.6056
C18 C 0.2874(2) 0.3050(5) 0.8708(2)
H8 H 0.3102 0.3562 0.8556
C19 C 0.01795(15) 0.3464(4) 0.5980(2)
H9 H 0.0263 0.2750 0.5800
C20 C 0.17345(17) 0.4271(4) 0.5469(2)
H10 H 0.1947 0.4486 0.5184
C21 C 0.2263(2) 0.1433(4) 0.8516(2)
H11 H 0.2066 0.0826 0.8227
C23 C 0.42058(16) 0.3944(4) 0.5744(2)
H13 H 0.4200 0.3644 0.6174
C24 C 0.2230(2) 0.1550(4) 0.9191(2)
H14 H 0.2010 0.1022 0.9346
C25 C 0.12398(18) 0.4762(5) 0.5441(2)
H15 H 0.1053 0.5369 0.5143
C26 C 0.2842(2) 0.3168(5) 0.9384(2)
H16 H 0.3046 0.3766 0.9673
C27 C 0.08664(18) 0.6487(4) 0.6523(3)
H17 H 0.1240 0.6189 0.6716
H18 H 0.0786 0.7021 0.6854
H19 H 0.0832 0.6906 0.6094
O5 O 0.72585(9) 0.6322(2) 0.52451(12)
O6 O 0.68189(9) 0.6691(2) 0.41134(12)
C29 C 0.52662(13) 0.5222(3) 0.49627(18)
C30 C 0.62804(13) 0.6009(3) 0.48081(17)
C31 C 0.68263(13) 0.6377(3) 0.47212(18)
C32 C 0.57572(14) 0.5210(4) 0.55200(19)
H23 H 0.5752 0.4935 0.5956
C33 C 0.62528(14) 0.5596(3) 0.54460(19)
H24 H 0.6575 0.5579 0.5832
C34 C 0.52961(16) 0.5667(4) 0.4328(2)
H25 H 0.4974 0.5704 0.3944
C35 C 0.57942(16) 0.6056(4) 0.4256(2)
H26 H 0.5800 0.6356 0.3826
Mn2 Mn 0.737596(19) 0.77870(5) 0.37806(3)
N5 N 0.81235(11) 0.6587(3) 0.40241(16)
N6 N 0.89305(12) 0.5811(3) 0.40631(17)
C45 C 0.94430(14) 0.5617(4) 0.3901(2)
C46 C 0.85340(14) 0.6612(4) 0.3755(2)
H32 H 0.8549 0.7122 0.3396
C49 C 0.95373(15) 0.4533(4) 0.3623(2)
C51 C 0.98205(15) 0.6536(4) 0.4020(2)
H35 H 0.9737 0.7250 0.4200
C52 C 0.82655(17) 0.5729(4) 0.4531(2)
H36 H 0.8053 0.5514 0.4816
C54 C 0.87602(18) 0.5238(5) 0.4559(2)
H38 H 0.8947 0.4631 0.4857
C55 C 0.91336(18) 0.3513(4) 0.3477(3)
H39 H 0.8760 0.3811 0.3284
H40 H 0.9214 0.2979 0.3146
H41 H 0.9168 0.3094 0.3906
Mn4 Mn 0.762404(19) 0.72130(5) 0.62194(3)
O9 O 0.77415(9) 0.8678(2) 0.47549(12)
O10 O 0.22585(9) 0.1322(2) 0.52451(12)
O11 O 0.77153(11) 0.8602(2) 0.29033(13)
O12 O 0.70987(11) 0.7158(2) 0.26711(13)
N9 N 0.32967(11) 0.0816(3) 0.65242(16)
N10 N 0.67033(11) 0.9184(3) 0.34758(16)
N3 N 0.82967(11) 0.5816(3) 0.65242(16)
N4 N 0.90671(12) 0.4868(3) 0.65544(16)
C7 C 0.87397(14) 0.5828(3) 0.63213(19)
H2 H 0.8820 0.6428 0.6048
C8 C 0.95832(14) 0.4643(3) 0.64112(19)
C13 C 0.99610(15) 0.5562(4) 0.6529(2)
H5 H 0.9880 0.6272 0.6716
C14 C 0.96749(15) 0.3569(3) 0.6122(2)
C17 C 0.83450(16) 0.4800(4) 0.6920(2)
H7 H 0.8090 0.4555 0.7140
C22 C 0.88130(17) 0.4208(4) 0.6945(2)
H12 H 0.8939 0.3496 0.7178
C28 C 0.9257(2) 0.2574(4) 0.5938(3)
H20 H 0.9277 0.2130 0.6355
H21 H 0.9338 0.2057 0.5601
H22 H 0.8889 0.2900 0.5742
O6_2 O 0.18189(9) 0.1691(2) 0.41134(12)
C29_2 C 0.02662(13) 0.0222(3) 0.49627(18)
C30_2 C 0.12804(13) 0.1009(3) 0.48081(17)
C31_2 C 0.18263(13) 0.1377(3) 0.47212(18)
C32_2 C 0.07572(14) 0.0210(4) 0.55200(19)
C33_2 C 0.12528(14) 0.0596(3) 0.54460(19)
H24_2 H 0.1575 0.0579 0.5832
C34_2 C 0.02961(16) 0.0667(4) 0.4328(2)
C35_2 C 0.07942(16) 0.1056(4) 0.4256(2)
H26_2 H 0.0800 0.1356 0.3826
N5_2 N 0.31235(11) 0.1587(3) 0.40241(16)
N6_2 N 0.39305(12) 0.0811(3) 0.40631(17)
N8_2 N 0.59329(12) 0.0132(3) 0.34456(16)
C44_2 C 0.54168(14) 0.0357(3) 0.35888(19)
C45_2 C 0.44430(14) 0.0617(4) 0.3901(2)
C46_2 C 0.35340(14) 0.1612(4) 0.3755(2)
H32_2 H 0.3549 0.2122 0.3396
C48_2 C 0.53251(15) 0.1431(3) 0.3878(2)
C50_2 C 0.66550(16) 0.0200(4) 0.3080(2)
H34_2 H 0.6910 0.0445 0.2860
C51_2 C 0.48205(15) 0.1536(4) 0.4020(2)
H35_2 H 0.4737 0.2250 0.4200
C52_2 C 0.32655(17) 0.0729(4) 0.4531(2)
H36_2 H 0.3053 0.0514 0.4816
C53_2 C 0.61870(17) 0.0792(4) 0.3055(2)
H37_2 H 0.6061 0.1504 0.2822
C54_2 C 0.37602(18) 0.0238(5) 0.4559(2)
C56_2 C 0.5743(2) 0.2426(4) 0.4062(3)
H42_2 H 0.5723 0.2870 0.3645
H43_2 H 0.5662 0.2943 0.4399
H44_2 H 0.6111 0.2100 0.4258
H6_2 H 0.0026 0.9296 0.6056
H23_2 H 0.0752 0.9935 0.5956
C43_2 C 0.62603(14) 0.9172(3) 0.36787(19)
H31_2 H 0.6180 0.8572 0.3952
C47_2 C 0.50390(15) 0.9438(4) 0.3471(2)
H33_2 H 0.5120 0.8728 0.3284
C49_2 C 0.45373(15) 0.9533(4) 0.3623(2)
H38_2 H 0.3947 0.9631 0.4857
C55_2 C 0.41336(18) 0.8513(4) 0.3477(3)
H39_2 H 0.3760 0.8811 0.3284
H40_2 H 0.4214 0.7979 0.3146
H41_2 H 0.4168 0.8094 0.3906
H1_2 H 0.9248 0.0065 0.4044
C7_2 C 0.37397(14) 0.0828(3) 0.63213(19)
H2_2 H 0.3820 0.1428 0.6048
C13_2 C 0.49610(15) 0.0562(4) 0.6529(2)
H5_2 H 0.4880 0.1272 0.6716
C15_2 C 0.54627(15) 0.0467(4) 0.6377(2)
H15_2 H 0.6053 0.0369 0.5143
C27_2 C 0.58664(18) 0.1487(4) 0.6523(3)
H17_2 H 0.6240 0.1189 0.6716
H18_2 H 0.5786 0.2021 0.6854
H19_2 H 0.5832 0.1906 0.6094
H25_2 H 0.9974 0.0704 0.3944
C36_2 C 0.74821(16) 0.7568(3) 0.03614(18)
C37_2 C 0.74092(15) 0.7871(3) 0.24777(19)
C38_2 C 0.74213(15) 0.7803(3) 0.17347(18)
C39_2 C 0.7126(2) 0.6950(5) 0.1292(2)
H27_2 H 0.6898 0.6438 0.1444
C40_2 C 0.7737(2) 0.8567(4) 0.1484(2)
H28_2 H 0.7934 0.9174 0.1773
C41_2 C 0.7770(2) 0.8450(4) 0.0809(2)
H29_2 H 0.7990 0.8978 0.0654
C42_2 C 0.7158(2) 0.6832(5) 0.0616(2)
H30_2 H 0.6954 0.6234 0.0327
O2_2 O 0.72847(11) 0.6398(2) 0.70967(13)
O3_2 O 0.79013(11) 0.7842(2) 0.73289(13)
N1_2 N 0.68765(11) 0.8413(3) 0.59759(16)
O4_2 O 0.81811(9) 0.8309(2) 0.58866(12)
C1_2 C 0.75179(16) 0.7432(3) 0.96386(18)
N2_2 N 0.60695(12) 0.9189(3) 0.59369(17)
C2_2 C 0.97338(13) 0.9778(3) 0.50373(18)
N4_2 N 0.40671(12) 0.9868(3) 0.65544(16)
C3_2 C 0.87196(13) 0.8991(3) 0.51919(17)
C4_2 C 0.81737(13) 0.8623(3) 0.52788(18)
C5_2 C 0.75908(15) 0.7129(3) 0.75223(19)
C6_2 C 0.92428(14) 0.9790(4) 0.44800(19)
C8_2 C 0.45832(14) 0.9643(3) 0.64112(19)
C9_2 C 0.75787(15) 0.7197(3) 0.82653(18)
C10_2 C 0.55570(14) 0.9383(4) 0.6099(2)
C11_2 C 0.87472(14) 0.9404(3) 0.45540(19)
H3_2 H 0.8425 0.9421 0.4168
C12_2 C 0.64660(14) 0.8388(4) 0.6245(2)
H4_2 H 0.6451 0.7878 0.6604
C14_2 C 0.46749(15) 0.8569(3) 0.6122(2)
C16_2 C 0.97039(16) 0.9333(4) 0.5672(2)
C17_2 C 0.33450(16) 0.9800(4) 0.6920(2)
H7_2 H 0.3090 0.9555 0.7140
C18_2 C 0.7874(2) 0.8050(5) 0.8708(2)
H8_2 H 0.8102 0.8562 0.8556
C19_2 C 0.51795(15) 0.8464(4) 0.5980(2)
H9_2 H 0.5263 0.7750 0.5800
C20_2 C 0.67345(17) 0.9271(4) 0.5469(2)
H10_2 H 0.6947 0.9486 0.5184
C21_2 C 0.7263(2) 0.6433(4) 0.8516(2)
H11_2 H 0.7066 0.5826 0.8227
C22_2 C 0.38130(17) 0.9208(4) 0.6945(2)
H12_2 H 0.3939 0.8496 0.7178
C23_2 C 0.92058(16) 0.8944(4) 0.5744(2)
H13_2 H 0.9200 0.8644 0.6174
C24_2 C 0.7230(2) 0.6550(4) 0.9191(2)
H14_2 H 0.7010 0.6022 0.9346
C25_2 C 0.62398(18) 0.9762(5) 0.5441(2)
C26_2 C 0.7842(2) 0.8168(5) 0.9384(2)
H16_2 H 0.8046 0.8766 0.9673
C28_2 C 0.4257(2) 0.7574(4) 0.5938(3)
H20_2 H 0.4277 0.7130 0.6355
H21_2 H 0.4338 0.7057 0.5601
H22_2 H 0.3889 0.7900 0.5742
N3_2 N 0.17033(11) 0.5816(3) 0.84758(16)
N4_3 N 0.09329(12) 0.4868(3) 0.84456(16)
C7_3 C 0.12603(14) 0.5828(3) 0.86787(19)
H2_3 H 0.1180 0.6428 0.8952
C8_3 C 0.04168(14) 0.4643(3) 0.85888(19)
C13_3 C 0.00390(15) 0.5562(4) 0.8471(2)
H5_3 H 0.0120 0.6272 0.8284
C14_3 C 0.03251(15) 0.3569(3) 0.8878(2)
C17_3 C 0.16550(16) 0.4800(4) 0.8080(2)
H7_3 H 0.1910 0.4555 0.7860
C22_3 C 0.11870(17) 0.4208(4) 0.8055(2)
H12_3 H 0.1061 0.3496 0.7822
C28_3 C 0.0743(2) 0.2574(4) 0.9062(3)
H20_3 H 0.0723 0.2130 0.8645
H21_3 H 0.0662 0.2057 0.9399
H22_3 H 0.1111 0.2900 0.9258
Mn3 Mn 0.237596(19) 0.72130(5) 0.87806(3)
O1_2 O 0.72585(9) 0.3678(2) 0.02451(12)
C6_3 C 0.57572(14) 0.4790(4) 0.05200(19)
H1_3 H 0.5752 0.5065 0.0956
C11_3 C 0.62528(14) 0.4404(3) 0.04460(19)
H3_3 H 0.6575 0.4421 0.0832
O6_3 O 0.31811(9) 0.6691(2) 0.08866(12)
C29_3 C 0.47338(13) 0.5222(3) 0.00373(18)
C30_3 C 0.37196(13) 0.6009(3) 0.01919(17)
C31_3 C 0.31737(13) 0.6377(3) 0.02788(18)
C34_3 C 0.47039(16) 0.5667(4) 0.0672(2)
H25_3 H 0.5026 0.5704 0.1056
C35_3 C 0.42058(16) 0.6056(4) 0.0744(2)
H26_3 H 0.4200 0.6356 0.1174
Mn2_2 Mn 0.262404(19) 0.77870(5) 0.12194(3)
N5_3 N 0.18765(11) 0.6587(3) 0.09759(16)
N6_3 N 0.10695(12) 0.5811(3) 0.09369(17)
C45_3 C 0.05570(14) 0.5617(4) 0.1099(2)
C46_3 C 0.14660(14) 0.6612(4) 0.1245(2)
H32_3 H 0.1451 0.7122 0.1604
C49_3 C 0.04627(15) 0.4533(4) 0.1377(2)
C51_3 C 0.01795(15) 0.6536(4) 0.0980(2)
H35_3 H 0.0263 0.7250 0.0800
C52_3 C 0.17345(17) 0.5729(4) 0.0469(2)
H36_3 H 0.1947 0.5514 0.0184
C54_3 C 0.12398(18) 0.5238(5) 0.0441(2)
H38_3 H 0.1053 0.4631 0.0143
C55_3 C 0.08664(18) 0.3513(4) 0.1523(3)
H39_3 H 0.1240 0.3811 0.1716
H40_3 H 0.0786 0.2979 0.1854
H41_3 H 0.0832 0.3094 0.1094
Mn5 Mn 0.762404(19) 0.27870(5) 0.12194(3)
O9_2 O 0.22585(9) 0.8678(2) 0.02451(12)
O11_2 O 0.22847(11) 0.8602(2) 0.20967(13)
O12_2 O 0.29013(11) 0.7158(2) 0.23289(13)
N10_2 N 0.32967(11) 0.9184(3) 0.15242(16)
Mn1_2 Mn 0.737596(19) 0.22130(5) 0.87806(3)
O2_3 O 0.77153(11) 0.1398(2) 0.79033(13)
O3_3 O 0.70987(11) 0.2842(2) 0.76711(13)
N1_3 N 0.81235(11) 0.3413(3) 0.90241(16)
O4_3 O 0.68189(9) 0.3309(2) 0.91134(12)
C1_3 C 0.74821(16) 0.2432(3) 0.53614(18)
N2_3 N 0.89305(12) 0.4189(3) 0.90631(17)
C2_3 C 0.52662(13) 0.4778(3) 0.99627(18)
C3_3 C 0.62804(13) 0.3991(3) 0.98081(17)
C4_3 C 0.68263(13) 0.3623(3) 0.97212(18)
C5_3 C 0.74092(15) 0.2129(3) 0.74777(19)
C9_3 C 0.74213(15) 0.2197(3) 0.67347(18)
C10_3 C 0.94430(14) 0.4383(4) 0.8901(2)
C12_3 C 0.85340(14) 0.3388(4) 0.8755(2)
H4_3 H 0.8549 0.2878 0.8396
C15_3 C 0.95373(15) 0.5467(4) 0.8623(2)
C16_3 C 0.52961(16) 0.4333(4) 0.9328(2)
H6_3 H 0.4974 0.4296 0.8944
C18_3 C 0.7126(2) 0.3050(5) 0.6292(2)
H8_3 H 0.6898 0.3562 0.6444
C19_3 C 0.98205(15) 0.3464(4) 0.9020(2)
H9_3 H 0.9737 0.2750 0.9200
C20_3 C 0.82655(17) 0.4271(4) 0.9531(2)
H10_3 H 0.8053 0.4486 0.9816
C21_3 C 0.7737(2) 0.1433(4) 0.6484(2)
H11_3 H 0.7934 0.0826 0.6773
C23_3 C 0.57942(16) 0.3944(4) 0.9256(2)
H13_3 H 0.5800 0.3644 0.8826
C24_3 C 0.7770(2) 0.1550(4) 0.5809(2)
H14_3 H 0.7990 0.1022 0.5654
C25_3 C 0.87602(18) 0.4762(5) 0.9559(2)
H15_3 H 0.8947 0.5369 0.9857
C26_3 C 0.7158(2) 0.3168(5) 0.5616(2)
H16_3 H 0.6954 0.3766 0.5327
C27_3 C 0.91336(18) 0.6487(4) 0.8477(3)
H17_3 H 0.8760 0.6189 0.8284
H18_3 H 0.9214 0.7021 0.8146
H19_3 H 0.9168 0.6906 0.8906
O5_2 O 0.27415(9) 0.6322(2) 0.97549(12)
C32_3 C 0.42428(14) 0.5210(4) 0.94800(19)
H23_3 H 0.4248 0.4935 0.9044
C33_3 C 0.37472(14) 0.5596(3) 0.95540(19)
H24_3 H 0.3425 0.5579 0.9168
O7_2 O 0.72847(11) 0.3602(2) 0.20967(13)
O8_2 O 0.79013(11) 0.2158(2) 0.23289(13)
C36_3 C 0.75179(16) 0.2568(3) 0.46386(18)
C37_3 C 0.75908(15) 0.2871(3) 0.25223(19)
C38_3 C 0.75787(15) 0.2803(3) 0.32653(18)
C39_3 C 0.7874(2) 0.1950(5) 0.3708(2)
H27_3 H 0.8102 0.1438 0.3556
C40_3 C 0.7263(2) 0.3567(4) 0.3516(2)
H28_3 H 0.7066 0.4174 0.3227
C41_3 C 0.7230(2) 0.3450(4) 0.4191(2)
H29_3 H 0.7010 0.3978 0.4346
C42_3 C 0.7842(2) 0.1832(5) 0.4384(2)
H30_3 H 0.8046 0.1234 0.4673
O10_2 O 0.77415(9) 0.1322(2) 0.97549(12)
N9_2 N 0.67033(11) 0.0816(3) 0.84758(16)
N7_2 N 0.82967(11) 0.4184(3) 0.15242(16)
N8_3 N 0.90671(12) 0.5132(3) 0.15544(16)
C43_3 C 0.87397(14) 0.4172(3) 0.13213(19)
H31_3 H 0.8820 0.3572 0.1048
C44_3 C 0.95832(14) 0.5357(3) 0.14112(19)
C47_3 C 0.99610(15) 0.4438(4) 0.1529(2)
H33_3 H 0.9880 0.3728 0.1716
C48_3 C 0.96749(15) 0.6431(3) 0.1122(2)
C50_3 C 0.83450(16) 0.5200(4) 0.1920(2)
H34_3 H 0.8090 0.5445 0.2140
C53_3 C 0.88130(17) 0.5792(4) 0.1945(2)
H37_3 H 0.8939 0.6504 0.2178
C56_3 C 0.9257(2) 0.7426(4) 0.0938(3)
H42_3 H 0.9277 0.7870 0.1355
H43_3 H 0.9338 0.7943 0.0601
H44_3 H 0.8889 0.7100 0.0742
C7_4 C 0.62603(14) 0.0828(3) 0.86787(19)
H2_4 H 0.6180 0.1428 0.8952
C13_4 C 0.50390(15) 0.0562(4) 0.8471(2)
H5_4 H 0.5120 0.1272 0.8284
C15_4 C 0.45373(15) 0.0467(4) 0.8623(2)
H15_4 H 0.3947 0.0369 0.9857
C27_4 C 0.41336(18) 0.1487(4) 0.8477(3)
H17_4 H 0.3760 0.1189 0.8284
H18_4 H 0.4214 0.2021 0.8146
H19_4 H 0.4168 0.1906 0.8906
C6_4 C 0.07572(14) 0.9790(4) 0.05200(19)
C11_4 C 0.12528(14) 0.9404(3) 0.04460(19)
H3_4 H 0.1575 0.9421 0.0832
O2_4 O 0.27153(11) 0.6398(2) 0.79033(13)
O3_4 O 0.20987(11) 0.7842(2) 0.76711(13)
N1_4 N 0.31235(11) 0.8413(3) 0.90241(16)
O4_4 O 0.18189(9) 0.8309(2) 0.91134(12)
C1_4 C 0.24821(16) 0.7432(3) 0.53614(18)
N2_4 N 0.39305(12) 0.9189(3) 0.90631(17)
C2_4 C 0.02662(13) 0.9778(3) 0.99627(18)
N4_4 N 0.59329(12) 0.9868(3) 0.84456(16)
C3_4 C 0.12804(13) 0.8991(3) 0.98081(17)
C4_4 C 0.18263(13) 0.8623(3) 0.97212(18)
C5_4 C 0.24092(15) 0.7129(3) 0.74777(19)
C8_4 C 0.54168(14) 0.9643(3) 0.85888(19)
C9_4 C 0.24213(15) 0.7197(3) 0.67347(18)
C10_4 C 0.44430(14) 0.9383(4) 0.8901(2)
C12_4 C 0.35340(14) 0.8388(4) 0.8755(2)
H4_4 H 0.3549 0.7878 0.8396
C14_4 C 0.53251(15) 0.8569(3) 0.8878(2)
C16_4 C 0.02961(16) 0.9333(4) 0.9328(2)
C17_4 C 0.66550(16) 0.9800(4) 0.8080(2)
H7_4 H 0.6910 0.9555 0.7860
C18_4 C 0.2126(2) 0.8050(5) 0.6292(2)
H8_4 H 0.1898 0.8562 0.6444
C19_4 C 0.48205(15) 0.8464(4) 0.9020(2)
H9_4 H 0.4737 0.7750 0.9200
C20_4 C 0.32655(17) 0.9271(4) 0.9531(2)
H10_4 H 0.3053 0.9486 0.9816
C21_4 C 0.2737(2) 0.6433(4) 0.6484(2)
H11_4 H 0.2934 0.5826 0.6773
C22_4 C 0.61870(17) 0.9208(4) 0.8055(2)
H12_4 H 0.6061 0.8496 0.7822
C23_4 C 0.07942(16) 0.8944(4) 0.9256(2)
H13_4 H 0.0800 0.8644 0.8826
C24_4 C 0.2770(2) 0.6550(4) 0.5809(2)
H14_4 H 0.2990 0.6022 0.5654
C25_4 C 0.37602(18) 0.9762(5) 0.9559(2)
C26_4 C 0.2158(2) 0.8168(5) 0.5616(2)
H16_4 H 0.1954 0.8766 0.5327
C28_4 C 0.5743(2) 0.7574(4) 0.9062(3)
H20_4 H 0.5723 0.7130 0.8645
H21_4 H 0.5662 0.7057 0.9399
H22_4 H 0.6111 0.7900 0.9258
C36_4 C 0.25179(16) 0.7568(3) 0.46386(18)
C37_4 C 0.25908(15) 0.7871(3) 0.25223(19)
C38_4 C 0.25787(15) 0.7803(3) 0.32653(18)
C39_4 C 0.2874(2) 0.6950(5) 0.3708(2)
H27_4 H 0.3102 0.6438 0.3556
C40_4 C 0.2263(2) 0.8567(4) 0.3516(2)
H28_4 H 0.2066 0.9174 0.3227
C41_4 C 0.2230(2) 0.8450(4) 0.4191(2)
H29_4 H 0.2010 0.8978 0.4346
C42_4 C 0.2842(2) 0.6832(5) 0.4384(2)
H30_4 H 0.3046 0.6234 0.4673
O6_4 O 0.81811(9) 0.1691(2) 0.08866(12)
C29_4 C 0.97338(13) 0.0222(3) 0.00373(18)
C30_4 C 0.87196(13) 0.1009(3) 0.01919(17)
C31_4 C 0.81737(13) 0.1377(3) 0.02788(18)
C34_4 C 0.97039(16) 0.0667(4) 0.0672(2)
C35_4 C 0.92058(16) 0.1056(4) 0.0744(2)
H26_4 H 0.9200 0.1356 0.1174
N5_4 N 0.68765(11) 0.1587(3) 0.09759(16)
N6_4 N 0.60695(12) 0.0811(3) 0.09369(17)
N8_4 N 0.40671(12) 0.0132(3) 0.15544(16)
C44_4 C 0.45832(14) 0.0357(3) 0.14112(19)
C45_4 C 0.55570(14) 0.0617(4) 0.1099(2)
C46_4 C 0.64660(14) 0.1612(4) 0.1245(2)
H32_4 H 0.6451 0.2122 0.1604
C48_4 C 0.46749(15) 0.1431(3) 0.1122(2)
C50_4 C 0.33450(16) 0.0200(4) 0.1920(2)
H34_4 H 0.3090 0.0445 0.2140
C51_4 C 0.51795(15) 0.1536(4) 0.0980(2)
H35_4 H 0.5263 0.2250 0.0800
C52_4 C 0.67345(17) 0.0729(4) 0.0469(2)
H36_4 H 0.6947 0.0514 0.0184
C53_4 C 0.38130(17) 0.0792(4) 0.1945(2)
H37_4 H 0.3939 0.1504 0.2178
C54_4 C 0.62398(18) 0.0238(5) 0.0441(2)
C56_4 C 0.4257(2) 0.2426(4) 0.0938(3)
H42_4 H 0.4277 0.2870 0.1355
H43_4 H 0.4338 0.2943 0.0601
H44_4 H 0.3889 0.2100 0.0742
C32_4 C 0.92428(14) 0.0210(4) 0.94800(19)
C33_4 C 0.87472(14) 0.0596(3) 0.95540(19)
H24_4 H 0.8425 0.0579 0.9168
C43_4 C 0.37397(14) 0.9172(3) 0.13213(19)
H31_4 H 0.3820 0.8572 0.1048
C47_4 C 0.49610(15) 0.9438(4) 0.1529(2)
H33_4 H 0.4880 0.8728 0.1716
C49_4 C 0.54627(15) 0.9533(4) 0.1377(2)
H38_4 H 0.6053 0.9631 0.0143
C55_4 C 0.58664(18) 0.8513(4) 0.1523(3)
H39_4 H 0.6240 0.8811 0.1716
H40_4 H 0.5786 0.7979 0.1854
H41_4 H 0.5832 0.8094 0.1094
H1_4 H 0.0752 0.0065 0.0956
H25_4 H 0.0026 0.0704 0.1056
H6_4 H 0.9974 0.9296 0.8944
H23_4 H 0.9248 0.9935 0.9044
loop_
_geom_bond_atom_site_label_1
_geom_bond_atom_site_label_2
_geom_bond_site_symmetry_1
_geom_bond_site_symmetry_2
N7 C43 1_555 1_555
N8 C43 1_555 1_555
C43 H31 1_555 1_555
C44 N8 1_555 1_555
C47 C44 1_555 1_555
H33 C47 1_555 1_555
C48 C44 1_555 1_555
C50 N7 1_555 1_555
H34 C50 1_555 1_555
C53 N8 1_555 1_555
H37 C53 1_555 1_555
C56 C48 1_555 1_555
H42 C56 1_555 1_555
H43 C56 1_555 1_555
H44 C56 1_555 1_555
Mn7 N7 1_555 1_555
C50 C53 1_555 1_555
O7 C37 1_555 1_555
O8 C37 1_555 1_555
C37 C38 1_555 1_555
C38 C39 1_555 1_555
C39 H27 1_555 1_555
C40 C38 1_555 1_555
H28 C40 1_555 1_555
C41 C36 1_555 1_555
H29 C41 1_555 1_555
C42 C36 1_555 1_555
H30 C42 1_555 1_555
Mn7 O7 1_555 1_555
O8 Mn7 1_555 1_555
C39 C42 1_555 1_555
C40 C41 1_555 1_555
Mn1 O2 1_555 1_555
O1 C4 1_555 1_555
O2 C5 1_555 1_555
O3 Mn1 1_555 1_555
N1 Mn1 1_555 1_555
O4 Mn1 1_555 1_555
C1 C24 1_555 1_555
N2 C10 1_555 1_555
C2 C6 1_555 1_555
C3 C4 1_555 1_555
C4 O4 1_555 1_555
C5 O3 1_555 1_555
C6 H1 1_555 1_555
C9 C5 1_555 1_555
C10 C15 1_555 1_555
C11 C3 1_555 1_555
H3 C11 1_555 1_555
C12 N1 1_555 1_555
H4 C12 1_555 1_555
C16 C2 1_555 1_555
H6 C16 1_555 1_555
C18 C9 1_555 1_555
H8 C18 1_555 1_555
C19 C10 1_555 1_555
H9 C19 1_555 1_555
C20 N1 1_555 1_555
H10 C20 1_555 1_555
C21 C9 1_555 1_555
H11 C21 1_555 1_555
C23 C3 1_555 1_555
H13 C23 1_555 1_555
C24 C21 1_555 1_555
H14 C24 1_555 1_555
C25 N2 1_555 1_555
H15 C25 1_555 1_555
C26 C1 1_555 1_555
H16 C26 1_555 1_555
C27 C15 1_555 1_555
H17 C27 1_555 1_555
H18 C27 1_555 1_555
H19 C27 1_555 1_555
O5 C31 1_555 1_555
O6 C31 1_555 1_555
C29 C2 1_555 1_555
C30 C31 1_555 1_555
C32 C29 1_555 1_555
H23 C32 1_555 1_555
C33 C30 1_555 1_555
H24 C33 1_555 1_555
C34 C29 1_555 1_555
H25 C34 1_555 1_555
C35 C30 1_555 1_555
H26 C35 1_555 1_555
Mn2 O6 1_555 1_555
N5 Mn2 1_555 1_555
N6 C45 1_555 1_555
C45 C49 1_555 1_555
C46 N5 1_555 1_555
H32 C46 1_555 1_555
C51 C45 1_555 1_555
H35 C51 1_555 1_555
C52 N5 1_555 1_555
H36 C52 1_555 1_555
C54 N6 1_555 1_555
H38 C54 1_555 1_555
C55 C49 1_555 1_555
H39 C55 1_555 1_555
H40 C55 1_555 1_555
H41 C55 1_555 1_555
Mn4 O5 1_555 1_555
Mn7 O1 1_555 1_555
O9 Mn2 1_555 1_555
O10 Mn1 1_555 1_555
O11 Mn2 1_555 1_555
O12 Mn2 1_555 1_555
N9 Mn1 1_555 1_555
N10 Mn2 1_555 1_555
N2 C12 1_555 1_555
C6 C11 1_555 1_555
C16 C23 1_555 1_555
C18 C26 1_555 1_555
C20 C25 1_555 1_555
C32 C33 1_555 1_555
C34 C35 1_555 1_555
N6 C46 1_555 1_555
C52 C54 1_555 1_555
N3 C7 1_555 1_555
N4 C7 1_555 1_555
C7 H2 1_555 1_555
C8 N4 1_555 1_555
C13 C8 1_555 1_555
H5 C13 1_555 1_555
C14 C8 1_555 1_555
C17 N3 1_555 1_555
H7 C17 1_555 1_555
C22 N4 1_555 1_555
H12 C22 1_555 1_555
C28 C14 1_555 1_555
H20 C28 1_555 1_555
H21 C28 1_555 1_555
H22 C28 1_555 1_555
Mn4 N3 1_555 1_555
C17 C22 1_555 1_555
O10 C31_2 1_555 1_555
O6_2 C31_2 1_555 1_555
C30_2 C31_2 1_555 1_555
C32_2 C29_2 1_555 1_555
C33_2 C30_2 1_555 1_555
H24_2 C33_2 1_555 1_555
C34_2 C29_2 1_555 1_555
C35_2 C30_2 1_555 1_555
H26_2 C35_2 1_555 1_555
Mn7 O6_2 1_555 1_555
N5_2 Mn7 1_555 1_555
N6_2 C45_2 1_555 1_555
C44_2 N8_2 1_555 1_555
C46_2 N5_2 1_555 1_555
H32_2 C46_2 1_555 1_555
C48_2 C44_2 1_555 1_555
H34_2 C50_2 1_555 1_555
C51_2 C45_2 1_555 1_555
H35_2 C51_2 1_555 1_555
C52_2 N5_2 1_555 1_555
H36_2 C52_2 1_555 1_555
C53_2 N8_2 1_555 1_555
H37_2 C53_2 1_555 1_555
C54_2 N6_2 1_555 1_555
C56_2 C48_2 1_555 1_555
H42_2 C56_2 1_555 1_555
H43_2 C56_2 1_555 1_555
H44_2 C56_2 1_555 1_555
C32_2 C33_2 1_555 1_555
C34_2 C35_2 1_555 1_555
N6_2 C46_2 1_555 1_555
C48_2 C51_2 1_555 1_555
C50_2 C53_2 1_555 1_555
C52_2 C54_2 1_555 1_555
N10 C43_2 1_555 1_555
C43_2 H31_2 1_555 1_555
H33_2 C47_2 1_555 1_555
C49_2 C47_2 1_555 1_555
C55_2 C49_2 1_555 1_555
H39_2 C55_2 1_555 1_555
H40_2 C55_2 1_555 1_555
H41_2 C55_2 1_555 1_555
N9 C7_2 1_555 1_555
C7_2 H2_2 1_555 1_555
H5_2 C13_2 1_555 1_555
C15_2 C13_2 1_555 1_555
C27_2 C15_2 1_555 1_555
H17_2 C27_2 1_555 1_555
H18_2 C27_2 1_555 1_555
H19_2 C27_2 1_555 1_555
O11 C37_2 1_555 1_555
O12 C37_2 1_555 1_555
C37_2 C38_2 1_555 1_555
C38_2 C39_2 1_555 1_555
C39_2 H27_2 1_555 1_555
C40_2 C38_2 1_555 1_555
H28_2 C40_2 1_555 1_555
C41_2 C36_2 1_555 1_555
H29_2 C41_2 1_555 1_555
C42_2 C36_2 1_555 1_555
H30_2 C42_2 1_555 1_555
C39_2 C42_2 1_555 1_555
C40_2 C41_2 1_555 1_555
Mn4 O2_2 1_555 1_555
O9 C4_2 1_555 1_555
O2_2 C5_2 1_555 1_555
O3_2 Mn4 1_555 1_555
N1_2 Mn4 1_555 1_555
O4_2 Mn4 1_555 1_555
C1_2 C24_2 1_555 1_555
N2_2 C10_2 1_555 1_555
C2_2 C6_2 1_555 1_555
C3_2 C4_2 1_555 1_555
C4_2 O4_2 1_555 1_555
C5_2 O3_2 1_555 1_555
C8_2 N4_2 1_555 1_555
C9_2 C5_2 1_555 1_555
C11_2 C3_2 1_555 1_555
H3_2 C11_2 1_555 1_555
C12_2 N1_2 1_555 1_555
H4_2 C12_2 1_555 1_555
C14_2 C8_2 1_555 1_555
C16_2 C2_2 1_555 1_555
H7_2 C17_2 1_555 1_555
C18_2 C9_2 1_555 1_555
H8_2 C18_2 1_555 1_555
C19_2 C10_2 1_555 1_555
H9_2 C19_2 1_555 1_555
C20_2 N1_2 1_555 1_555
H10_2 C20_2 1_555 1_555
C21_2 C9_2 1_555 1_555
H11_2 C21_2 1_555 1_555
C22_2 N4_2 1_555 1_555
H12_2 C22_2 1_555 1_555
C23_2 C3_2 1_555 1_555
H13_2 C23_2 1_555 1_555
C24_2 C21_2 1_555 1_555
H14_2 C24_2 1_555 1_555
C25_2 N2_2 1_555 1_555
C26_2 C1_2 1_555 1_555
H16_2 C26_2 1_555 1_555
C28_2 C14_2 1_555 1_555
H20_2 C28_2 1_555 1_555
H21_2 C28_2 1_555 1_555
H22_2 C28_2 1_555 1_555
N2_2 C12_2 1_555 1_555
C6_2 C11_2 1_555 1_555
C14_2 C19_2 1_555 1_555
C16_2 C23_2 1_555 1_555
C17_2 C22_2 1_555 1_555
C18_2 C26_2 1_555 1_555
C20_2 C25_2 1_555 1_555
N3_2 C7_3 1_555 1_555
N4_3 C7_3 1_555 1_555
C7_3 H2_3 1_555 1_555
C8_3 N4_3 1_555 1_555
C13_3 C8_3 1_555 1_555
H5_3 C13_3 1_555 1_555
C14_3 C8_3 1_555 1_555
C17_3 N3_2 1_555 1_555
H7_3 C17_3 1_555 1_555
C22_3 N4_3 1_555 1_555
H12_3 C22_3 1_555 1_555
C28_3 C14_3 1_555 1_555
H20_3 C28_3 1_555 1_555
H21_3 C28_3 1_555 1_555
H22_3 C28_3 1_555 1_555
Mn3 N3_2 1_555 1_555
C17_3 C22_3 1_555 1_555
C6_3 H1_3 1_555 1_555
H3_3 C11_3 1_555 1_555
O6_3 C31_3 1_555 1_555
C30_3 C31_3 1_555 1_555
C34_3 C29_3 1_555 1_555
H25_3 C34_3 1_555 1_555
C35_3 C30_3 1_555 1_555
H26_3 C35_3 1_555 1_555
Mn2_2 O6_3 1_555 1_555
N5_3 Mn2_2 1_555 1_555
N6_3 C45_3 1_555 1_555
C45_3 C49_3 1_555 1_555
C46_3 N5_3 1_555 1_555
H32_3 C46_3 1_555 1_555
C51_3 C45_3 1_555 1_555
H35_3 C51_3 1_555 1_555
C52_3 N5_3 1_555 1_555
H36_3 C52_3 1_555 1_555
C54_3 N6_3 1_555 1_555
H38_3 C54_3 1_555 1_555
C55_3 C49_3 1_555 1_555
H39_3 C55_3 1_555 1_555
H40_3 C55_3 1_555 1_555
H41_3 C55_3 1_555 1_555
Mn5 O1_2 1_555 1_555
O9_2 Mn2_2 1_555 1_555
O11_2 Mn2_2 1_555 1_555
O12_2 Mn2_2 1_555 1_555
N10_2 Mn2_2 1_555 1_555
C6_3 C11_3 1_555 1_555
C34_3 C35_3 1_555 1_555
N6_3 C46_3 1_555 1_555
C52_3 C54_3 1_555 1_555
Mn1_2 O2_3 1_555 1_555
O2_3 C5_3 1_555 1_555
O3_3 Mn1_2 1_555 1_555
N1_3 Mn1_2 1_555 1_555
O4_3 Mn1_2 1_555 1_555
C1_3 C24_3 1_555 1_555
N2_3 C10_3 1_555 1_555
C3_3 C4_3 1_555 1_555
C4_3 O4_3 1_555 1_555
C5_3 O3_3 1_555 1_555
C9_3 C5_3 1_555 1_555
C10_3 C15_3 1_555 1_555
C12_3 N1_3 1_555 1_555
H4_3 C12_3 1_555 1_555
C16_3 C2_3 1_555 1_555
H6_3 C16_3 1_555 1_555
C18_3 C9_3 1_555 1_555
H8_3 C18_3 1_555 1_555
C19_3 C10_3 1_555 1_555
H9_3 C19_3 1_555 1_555
C20_3 N1_3 1_555 1_555
H10_3 C20_3 1_555 1_555
C21_3 C9_3 1_555 1_555
H11_3 C21_3 1_555 1_555
C23_3 C3_3 1_555 1_555
H13_3 C23_3 1_555 1_555
C24_3 C21_3 1_555 1_555
H14_3 C24_3 1_555 1_555
C25_3 N2_3 1_555 1_555
H15_3 C25_3 1_555 1_555
C26_3 C1_3 1_555 1_555
H16_3 C26_3 1_555 1_555
C27_3 C15_3 1_555 1_555
H17_3 C27_3 1_555 1_555
H18_3 C27_3 1_555 1_555
H19_3 C27_3 1_555 1_555
H23_3 C32_3 1_555 1_555
H24_3 C33_3 1_555 1_555
O7_2 C37_3 1_555 1_555
O8_2 C37_3 1_555 1_555
C36_3 C1_3 1_555 1_555
C37_3 C38_3 1_555 1_555
C38_3 C39_3 1_555 1_555
C39_3 H27_3 1_555 1_555
C40_3 C38_3 1_555 1_555
H28_3 C40_3 1_555 1_555
C41_3 C36_3 1_555 1_555
H29_3 C41_3 1_555 1_555
C42_3 C36_3 1_555 1_555
H30_3 C42_3 1_555 1_555
Mn3 O5_2 1_555 1_555
Mn5 O7_2 1_555 1_555
O10_2 Mn1_2 1_555 1_555
N9_2 Mn1_2 1_555 1_555
N2_3 C12_3 1_555 1_555
C16_3 C23_3 1_555 1_555
C18_3 C26_3 1_555 1_555
C20_3 C25_3 1_555 1_555
C32_3 C33_3 1_555 1_555
O8_2 Mn5 1_555 1_555
C39_3 C42_3 1_555 1_555
C40_3 C41_3 1_555 1_555
N7_2 C43_3 1_555 1_555
N8_3 C43_3 1_555 1_555
C43_3 H31_3 1_555 1_555
C44_3 N8_3 1_555 1_555
C47_3 C44_3 1_555 1_555
H33_3 C47_3 1_555 1_555
C48_3 C44_3 1_555 1_555
C50_3 N7_2 1_555 1_555
H34_3 C50_3 1_555 1_555
C53_3 N8_3 1_555 1_555
H37_3 C53_3 1_555 1_555
C56_3 C48_3 1_555 1_555
H42_3 C56_3 1_555 1_555
H43_3 C56_3 1_555 1_555
H44_3 C56_3 1_555 1_555
Mn5 N7_2 1_555 1_555
C50_3 C53_3 1_555 1_555
N9_2 C7_4 1_555 1_555
C7_4 H2_4 1_555 1_555
H5_4 C13_4 1_555 1_555
C15_4 C13_4 1_555 1_555
C27_4 C15_4 1_555 1_555
H17_4 C27_4 1_555 1_555
H18_4 C27_4 1_555 1_555
H19_4 C27_4 1_555 1_555
H3_4 C11_4 1_555 1_555
C6_4 C11_4 1_555 1_555
Mn3 O2_4 1_555 1_555
O2_4 C5_4 1_555 1_555
O3_4 Mn3 1_555 1_555
N1_4 Mn3 1_555 1_555
O4_4 Mn3 1_555 1_555
C1_4 C24_4 1_555 1_555
N2_4 C10_4 1_555 1_555
C3_4 C4_4 1_555 1_555
C4_4 O4_4 1_555 1_555
C5_4 O3_4 1_555 1_555
C8_4 N4_4 1_555 1_555
C9_4 C5_4 1_555 1_555
C12_4 N1_4 1_555 1_555
H4_4 C12_4 1_555 1_555
C14_4 C8_4 1_555 1_555
C16_4 C2_4 1_555 1_555
H7_4 C17_4 1_555 1_555
C18_4 C9_4 1_555 1_555
H8_4 C18_4 1_555 1_555
C19_4 C10_4 1_555 1_555
H9_4 C19_4 1_555 1_555
C20_4 N1_4 1_555 1_555
H10_4 C20_4 1_555 1_555
C21_4 C9_4 1_555 1_555
H11_4 C21_4 1_555 1_555
C22_4 N4_4 1_555 1_555
H12_4 C22_4 1_555 1_555
C23_4 C3_4 1_555 1_555
H13_4 C23_4 1_555 1_555
C24_4 C21_4 1_555 1_555
H14_4 C24_4 1_555 1_555
C25_4 N2_4 1_555 1_555
C26_4 C1_4 1_555 1_555
H16_4 C26_4 1_555 1_555
C28_4 C14_4 1_555 1_555
H20_4 C28_4 1_555 1_555
H21_4 C28_4 1_555 1_555
H22_4 C28_4 1_555 1_555
O11_2 C37_4 1_555 1_555
O12_2 C37_4 1_555 1_555
C36_4 C1_4 1_555 1_555
C37_4 C38_4 1_555 1_555
C38_4 C39_4 1_555 1_555
C39_4 H27_4 1_555 1_555
C40_4 C38_4 1_555 1_555
H28_4 C40_4 1_555 1_555
C41_4 C36_4 1_555 1_555
H29_4 C41_4 1_555 1_555
C42_4 C36_4 1_555 1_555
H30_4 C42_4 1_555 1_555
N2_4 C12_4 1_555 1_555
C14_4 C19_4 1_555 1_555
C16_4 C23_4 1_555 1_555
C17_4 C22_4 1_555 1_555
C18_4 C26_4 1_555 1_555
C20_4 C25_4 1_555 1_555
C39_4 C42_4 1_555 1_555
C40_4 C41_4 1_555 1_555
O6_4 C31_4 1_555 1_555
C30_4 C31_4 1_555 1_555
C34_4 C29_4 1_555 1_555
C35_4 C30_4 1_555 1_555
H26_4 C35_4 1_555 1_555
Mn5 O6_4 1_555 1_555
N5_4 Mn5 1_555 1_555
N6_4 C45_4 1_555 1_555
C44_4 N8_4 1_555 1_555
C46_4 N5_4 1_555 1_555
H32_4 C46_4 1_555 1_555
C48_4 C44_4 1_555 1_555
H34_4 C50_4 1_555 1_555
C51_4 C45_4 1_555 1_555
H35_4 C51_4 1_555 1_555
C52_4 N5_4 1_555 1_555
H36_4 C52_4 1_555 1_555
C53_4 N8_4 1_555 1_555
H37_4 C53_4 1_555 1_555
C54_4 N6_4 1_555 1_555
C56_4 C48_4 1_555 1_555
H42_4 C56_4 1_555 1_555
H43_4 C56_4 1_555 1_555
H44_4 C56_4 1_555 1_555
C34_4 C35_4 1_555 1_555
N6_4 C46_4 1_555 1_555
C48_4 C51_4 1_555 1_555
C50_4 C53_4 1_555 1_555
C52_4 C54_4 1_555 1_555
H24_4 C33_4 1_555 1_555
C32_4 C33_4 1_555 1_555
N10_2 C43_4 1_555 1_555
C43_4 H31_4 1_555 1_555
H33_4 C47_4 1_555 1_555
C49_4 C47_4 1_555 1_555
C55_4 C49_4 1_555 1_555
H39_4 C55_4 1_555 1_555
H40_4 C55_4 1_555 1_555
H41_4 C55_4 1_555 1_555

#END
