
###############################################################################
#
# This file contains modified crystal structure data generated from the
# MOF subset of the Cambridge Structural Database (CSD) v543 
# hosted by the Cambridge Crystallographic Data Centre (CCDC).
#
# This work is licensed under the Creative Commons
# Attribution-NonCommercial-ShareAlike 4.0 International License.
# To view a copy of this license, visit
# http://creativecommons.org/licenses/by-nc-sa/4.0/
# or send a letter to
# Creative Commons, PO Box 1866, Mountain View, CA 94042, USA.
#
# CIF created using the CSD Python API on 29 September 2022
# The structure has been converted into the P1 space group
# The structure has a 3D framework
# The original CSD entry POSFIO is in the monoclinic crystal system
# The framework has been calculated to contain at least 10.0% void space
# The void calculation uses a probe of radius 1.32A, grid spacing 0.4
#
###############################################################################

data_POSFIO
_chemical_formula_moiety         '(C120 H84 Cu6 N24 O24)n'
_symmetry_cell_setting           triclinic
_symmetry_space_group_name_H-M   'P 1'
_symmetry_Int_Tables_number      1
_space_group_name_Hall           'P 1'
loop_
_symmetry_equiv_pos_site_id
_symmetry_equiv_pos_as_xyz
1 x,y,z
_cell_length_a                   13.4425(13)
_cell_length_b                   14.4204(13)
_cell_length_c                   20.4469(19)
_cell_angle_alpha                90
_cell_angle_beta                 108.168(2)
_cell_angle_gamma                90
_cell_volume                     3765.96
loop_
_atom_site_label
_atom_site_type_symbol
_atom_site_fract_x
_atom_site_fract_y
_atom_site_fract_z
C29 C 0.0833(5) 0.4913(4) 0.3917(3)
H17 H 0.1105 0.4505 0.3664
C30 C 0.0738(7) 0.5771(8) 0.4729(4)
H18 H 0.0916 0.6114 0.5135
N1 N 0.1371(3) 0.5197(3) 0.4561(2)
Cu6 Cu 0.28011(4) 0.48285(5) 0.51230(3)
Cu2 Cu 0.5000 0.5000 0.0000
H11 H 0.6627 0.6634 0.0153
C21 C 0.7455(4) 0.5681(4) 0.2183(3)
H13 H 0.6889 0.6086 0.2055
C22 C 0.8205(4) 0.5768(4) 0.2828(3)
H14 H 0.8126 0.6220 0.3133
C23 C 0.9064(5) 0.5188(4) 0.3018(3)
C24 C 0.9150(5) 0.4507(5) 0.2560(3)
H15 H 0.9723 0.4110 0.2681
C25 C 0.8396(5) 0.4412(5) 0.1931(3)
H16 H 0.8461 0.3943 0.1634
C26 C 0.7544(4) 0.5001(4) 0.1733(3)
C27 C 0.6713(4) 0.4876(4) 0.1045(3)
C28 C 0.9887(4) 0.5270(4) 0.3683(3)
N6 N 0.9776(5) 0.5804(7) 0.4232(3)
H21 H 0.9225 0.6090 0.4251
O5 O 0.5978(3) 0.5468(3) 0.08816(16)
O6 O 0.6758(4) 0.4214(3) 0.0675(2)
C31 C 0.3301(4) 0.6656(4) 0.7100(3)
H22 H 0.2827 0.6179 0.7080
C32 C 0.3695(5) 0.7164(4) 0.7701(3)
H23 H 0.3481 0.7029 0.8081
C33 C 0.4409(4) 0.7876(4) 0.7737(2)
C34 C 0.4706(5) 0.8079(4) 0.7162(3)
H24 H 0.5176 0.8558 0.7179
C35 C 0.4307(4) 0.7573(4) 0.6564(3)
H25 H 0.4509 0.7716 0.6181
C36 C 0.3609(4) 0.6853(4) 0.6531(3)
C37 C 0.3281(4) 0.6244(4) 0.5911(3)
C38 C 0.4903(4) 0.8372(4) 0.8393(2)
C39 C 0.5795(4) 0.8881(4) 0.8609(2)
H26 H 0.6221 0.9028 0.8343
C40 C 0.5186(4) 0.8812(4) 0.9459(3)
H27 H 0.5101 0.8886 0.9890
C41 C 0.2491(5) 0.3154(4) 0.2753(3)
H28 H 0.1980 0.2758 0.2812
C42 C 0.2661(5) 0.3193(4) 0.2121(3)
H29 H 0.2248 0.2843 0.1755
C43 C 0.3449(4) 0.3753(4) 0.2033(2)
C44 C 0.4056(5) 0.4277(5) 0.2588(3)
H30 H 0.4599 0.4641 0.2537
C45 C 0.3860(4) 0.4259(4) 0.3209(3)
H31 H 0.4256 0.4625 0.3571
C46 C 0.3065(4) 0.3692(4) 0.3297(2)
C47 C 0.2835(4) 0.3720(4) 0.3972(2)
C48 C 0.3659(4) 0.3836(4) 0.1373(2)
C49 C 0.3572(4) 0.3605(4) 0.0292(2)
C50 C 0.4317(4) 0.4421(4) 0.1188(2)
H33 H 0.4746 0.4858 0.1476
N8 N 0.4255(3) 0.4275(3) 0.05145(19)
N9 N 0.5971(3) 0.9147(3) 0.9279(2)
N10 N 0.4529(3) 0.8350(3) 0.8938(2)
H40 H 0.3961 0.8082 0.8945
N11 N 0.3202(4) 0.3312(3) 0.0793(2)
H41 H 0.2757 0.2872 0.0758
O7 O 0.2706(3) 0.5544(3) 0.59258(17)
O8 O 0.3573(3) 0.6414(3) 0.53999(18)
O9 O 0.3150(3) 0.4449(3) 0.43177(17)
O10 O 0.2344(4) 0.3073(3) 0.4133(2)
Cu7 Cu 0.71989(4) 0.98285(5) 0.98770(3)
N16 N 0.4029(3) 0.4147(3) 0.5721(2)
C31_2 C 0.6699(4) 0.1656(4) 0.7900(3)
H22_2 H 0.7173 0.1179 0.7920
C32_2 C 0.6305(5) 0.2164(4) 0.7299(3)
H23_2 H 0.6519 0.2029 0.6919
C33_2 C 0.5591(4) 0.2876(4) 0.7263(2)
C34_2 C 0.5294(5) 0.3079(4) 0.7838(3)
H24_2 H 0.4824 0.3558 0.7821
C35_2 C 0.5693(4) 0.2573(4) 0.8436(3)
H25_2 H 0.5491 0.2716 0.8819
C36_2 C 0.6391(4) 0.1853(4) 0.8469(3)
C37_2 C 0.6719(4) 0.1244(4) 0.9089(3)
C38_2 C 0.5097(4) 0.3372(4) 0.6607(2)
C39_2 C 0.4205(4) 0.3881(4) 0.6391(2)
H26_2 H 0.3779 0.4028 0.6657
C40_2 C 0.4814(4) 0.3812(4) 0.5541(3)
H27_2 H 0.4899 0.3886 0.5110
N10_2 N 0.5471(3) 0.3350(3) 0.6062(2)
H40_2 H 0.6039 0.3082 0.6055
O7_2 O 0.7294(3) 0.0544(3) 0.90742(17)
O8_2 O 0.6427(3) 0.1414(3) 0.96001(18)
Cu1 Cu 0.71989(4) 0.51715(5) 0.48770(3)
Cu2_2 Cu 0.5000 0.5000 1.0000
C1 C 0.6699(4) 0.3344(4) 0.2900(3)
H1 H 0.7173 0.3821 0.2920
C2 C 0.6305(5) 0.2836(4) 0.2299(3)
H2 H 0.6519 0.2971 0.1919
C3 C 0.5591(4) 0.2124(4) 0.2263(2)
C4 C 0.5294(5) 0.1921(4) 0.2838(3)
H3 H 0.4824 0.1442 0.2821
C5 C 0.5693(4) 0.2427(4) 0.3436(3)
H4 H 0.5491 0.2284 0.3819
C6 C 0.6391(4) 0.3147(4) 0.3469(3)
C7 C 0.6719(4) 0.3756(4) 0.4089(3)
C8 C 0.5097(4) 0.1628(4) 0.1607(2)
C9 C 0.4205(4) 0.1119(4) 0.1391(2)
H5 H 0.3779 0.0972 0.1657
C10 C 0.4814(4) 0.1188(4) 0.0541(3)
H6 H 0.4899 0.1114 0.0110
C11 C 0.7509(5) 0.6846(4) 0.7247(3)
H7 H 0.8020 0.7242 0.7188
C12 C 0.7339(5) 0.6807(4) 0.7879(3)
H8 H 0.7752 0.7157 0.8245
C13 C 0.6551(4) 0.6247(4) 0.7967(2)
C14 C 0.5944(5) 0.5723(5) 0.7412(3)
H9 H 0.5401 0.5359 0.7463
C15 C 0.6140(4) 0.5741(4) 0.6791(3)
H10 H 0.5744 0.5375 0.6429
C16 C 0.6935(4) 0.6308(4) 0.6703(2)
C17 C 0.7165(4) 0.6280(4) 0.6028(2)
C18 C 0.6341(4) 0.6164(4) 0.8627(2)
C19 C 0.6428(4) 0.6395(4) 0.9708(2)
C20 C 0.5683(4) 0.5579(4) 0.8812(2)
H12 H 0.5254 0.5142 0.8524
N2 N 0.5745(3) 0.5725(3) 0.94855(19)
N3 N 0.4029(3) 0.0853(3) 0.0721(2)
N4 N 0.5471(3) 0.1650(3) 0.1062(2)
H19 H 0.6039 0.1918 0.1055
N5 N 0.6798(4) 0.6688(3) 0.9207(2)
H20 H 0.7243 0.7128 0.9242
O1 O 0.7294(3) 0.4456(3) 0.40742(17)
O2 O 0.6427(3) 0.3586(3) 0.46001(18)
O3 O 0.6850(3) 0.5551(3) 0.56823(17)
O4 O 0.7656(4) 0.6927(3) 0.5867(2)
H32 H 0.3373 0.3366 0.9847
C51 C 0.2545(4) 0.4319(4) 0.7817(3)
H34 H 0.3111 0.3914 0.7945
C52 C 0.1795(4) 0.4232(4) 0.7172(3)
H35 H 0.1874 0.3780 0.6867
C53 C 0.0936(5) 0.4812(4) 0.6982(3)
C54 C 0.0850(5) 0.5493(5) 0.7440(3)
H36 H 0.0277 0.5890 0.7319
C55 C 0.1604(5) 0.5588(5) 0.8069(3)
H37 H 0.1539 0.6057 0.8366
C56 C 0.2456(4) 0.4999(4) 0.8267(3)
C57 C 0.3287(4) 0.5124(4) 0.8955(3)
C58 C 0.0113(4) 0.4730(4) 0.6317(3)
N12 N 0.0224(5) 0.4196(7) 0.5768(3)
H42 H 0.0775 0.3910 0.5749
O11 O 0.4022(3) 0.4532(3) 0.91184(16)
O12 O 0.3242(4) 0.5786(3) 0.9325(2)
Cu5 Cu 0.28011(4) 0.01715(5) 0.01230(3)
N14 N 0.8629(3) 0.4803(3) 0.5439(2)
N15 N 0.5971(3) 0.5853(3) 0.4279(2)
C59 C 0.9167(5) 0.5087(4) 0.6083(3)
H38 H 0.8895 0.5495 0.6336
C60 C 0.9262(7) 0.4229(8) 0.5271(4)
H39 H 0.9084 0.3886 0.4865
C1_2 C 0.3301(4) 0.8344(4) 0.2100(3)
H1_2 H 0.2827 0.8821 0.2080
C2_2 C 0.3695(5) 0.7836(4) 0.2701(3)
H2_2 H 0.3481 0.7971 0.3081
C3_2 C 0.4409(4) 0.7124(4) 0.2737(2)
C4_2 C 0.4706(5) 0.6921(4) 0.2162(3)
H3_2 H 0.5176 0.6442 0.2179
C5_2 C 0.4307(4) 0.7427(4) 0.1564(3)
H4_2 H 0.4509 0.7284 0.1181
C6_2 C 0.3609(4) 0.8147(4) 0.1531(3)
C7_2 C 0.3281(4) 0.8756(4) 0.0911(3)
C8_2 C 0.4903(4) 0.6628(4) 0.3393(2)
C9_2 C 0.5795(4) 0.6119(4) 0.3609(2)
H5_2 H 0.6221 0.5972 0.3343
C10_2 C 0.5186(4) 0.6188(4) 0.4459(3)
H6_2 H 0.5101 0.6114 0.4890
N4_2 N 0.4529(3) 0.6650(3) 0.3938(2)
H19_2 H 0.3961 0.6918 0.3945
O1_2 O 0.2706(3) 0.9456(3) 0.09258(17)
O2_2 O 0.3573(3) 0.8586(3) 0.03999(18)
C59_2 C 0.0833(5) 0.0087(4) 0.8917(3)
H38_2 H 0.1105 0.0495 0.8664
H39_2 H 0.0916 0.8886 0.0135
C60_2 C 0.0738(7) 0.9229(8) 0.9729(4)
N7 N 0.1371(3) 0.9803(3) 0.9561(2)
Cu2_3 Cu 0.5000 1.0000 0.5000
C24_2 C 0.0850(5) 0.9507(5) 0.2440(3)
H15_2 H 0.0277 0.9110 0.2319
C25_2 C 0.1604(5) 0.9412(5) 0.3069(3)
H16_2 H 0.1539 0.8943 0.3366
C27_2 C 0.3287(4) 0.9876(4) 0.3955(3)
O6_2 O 0.3242(4) 0.9214(3) 0.4325(2)
C41_2 C 0.7509(5) 0.8154(4) 0.2247(3)
H28_2 H 0.8020 0.7758 0.2188
C42_2 C 0.7339(5) 0.8193(4) 0.2879(3)
H29_2 H 0.7752 0.7843 0.3245
C43_2 C 0.6551(4) 0.8753(4) 0.2967(2)
C44_2 C 0.5944(5) 0.9277(5) 0.2412(3)
H30_2 H 0.5401 0.9641 0.2463
C45_2 C 0.6140(4) 0.9259(4) 0.1791(3)
H31_2 H 0.5744 0.9625 0.1429
C46_2 C 0.6935(4) 0.8692(4) 0.1703(2)
C47_2 C 0.7165(4) 0.8720(4) 0.1028(2)
C48_2 C 0.6341(4) 0.8836(4) 0.3627(2)
C49_2 C 0.6428(4) 0.8605(4) 0.4708(2)
H32_2 H 0.6627 0.8366 0.5153
C50_2 C 0.5683(4) 0.9421(4) 0.3812(2)
H33_2 H 0.5254 0.9858 0.3524
C51_2 C 0.7455(4) 0.9319(4) 0.7183(3)
H34_2 H 0.6889 0.8914 0.7055
C52_2 C 0.8205(4) 0.9232(4) 0.7828(3)
H35_2 H 0.8126 0.8780 0.8133
C53_2 C 0.9064(5) 0.9812(4) 0.8018(3)
C56_2 C 0.7544(4) 0.9999(4) 0.6733(3)
C58_2 C 0.9887(4) 0.9730(4) 0.8683(3)
N8_2 N 0.5745(3) 0.9275(3) 0.44855(19)
N11_2 N 0.6798(4) 0.8312(3) 0.4207(2)
H41_2 H 0.7243 0.7872 0.4242
N12_2 N 0.9776(5) 0.9196(7) 0.9232(3)
H42_2 H 0.9225 0.8910 0.9251
O9_2 O 0.6850(3) 0.9449(3) 0.06823(17)
O10_2 O 0.7656(4) 0.8073(3) 0.0867(2)
O11_2 O 0.5978(3) 0.9532(3) 0.58816(16)
Cu2_4 Cu 0.5000 0.0000 0.5000
C11_2 C 0.2491(5) 0.1846(4) 0.7753(3)
H7_2 H 0.1980 0.2242 0.7812
C12_2 C 0.2661(5) 0.1807(4) 0.7121(3)
H8_2 H 0.2248 0.2157 0.6755
C13_2 C 0.3449(4) 0.1247(4) 0.7033(2)
C14_2 C 0.4056(5) 0.0723(5) 0.7588(3)
H9_2 H 0.4599 0.0359 0.7537
C15_2 C 0.3860(4) 0.0741(4) 0.8209(3)
H10_2 H 0.4256 0.0375 0.8571
C16_2 C 0.3065(4) 0.1308(4) 0.8297(2)
C17_2 C 0.2835(4) 0.1280(4) 0.8972(2)
C18_2 C 0.3659(4) 0.1164(4) 0.6373(2)
C19_2 C 0.3572(4) 0.1395(4) 0.5292(2)
H11_2 H 0.3373 0.1634 0.4847
C20_2 C 0.4317(4) 0.0579(4) 0.6188(2)
H12_2 H 0.4746 0.0142 0.6476
C21_2 C 0.2545(4) 0.0681(4) 0.2817(3)
H13_2 H 0.3111 0.1086 0.2945
C22_2 C 0.1795(4) 0.0768(4) 0.2172(3)
H14_2 H 0.1874 0.1220 0.1867
C23_2 C 0.0936(5) 0.0188(4) 0.1982(3)
C26_2 C 0.2456(4) 0.0001(4) 0.3267(3)
C28_2 C 0.0113(4) 0.0270(4) 0.1317(3)
N2_2 N 0.4255(3) 0.0725(3) 0.55145(19)
N5_2 N 0.3202(4) 0.1688(3) 0.5793(2)
H20_2 H 0.2757 0.2128 0.5758
N6_2 N 0.0224(5) 0.0804(7) 0.0768(3)
H21_2 H 0.0775 0.1090 0.0749
O3_2 O 0.3150(3) 0.0551(3) 0.93177(17)
O4_2 O 0.2344(4) 0.1927(3) 0.9133(2)
O5_2 O 0.4022(3) 0.0468(3) 0.41184(16)
C54_2 C 0.9150(5) 0.0493(5) 0.7560(3)
H36_2 H 0.9723 0.0890 0.7681
C55_2 C 0.8396(5) 0.0588(5) 0.6931(3)
H37_2 H 0.8461 0.1057 0.6634
C57_2 C 0.6713(4) 0.0124(4) 0.6045(3)
O12_2 O 0.6758(4) 0.0786(3) 0.5675(2)
N13 N 0.8629(3) 0.0197(3) 0.0439(2)
C30_2 C 0.9262(7) 0.0771(8) 0.0271(4)
H18_2 H 0.9084 0.1114 0.9865
C29_2 C 0.9167(5) 0.9913(4) 0.1083(3)
H17_2 H 0.8895 0.9505 0.1336
loop_
_geom_bond_atom_site_label_1
_geom_bond_atom_site_label_2
_geom_bond_site_symmetry_1
_geom_bond_site_symmetry_2
H17 C29 1_555 1_555
C30 H18 1_555 1_555
N1 C29 1_555 1_555
Cu6 N1 1_555 1_555
C30 N1 1_555 1_555
C21 H13 1_555 1_555
C22 C21 1_555 1_555
H14 C22 1_555 1_555
C23 C22 1_555 1_555
C24 C23 1_555 1_555
H15 C24 1_555 1_555
C25 C24 1_555 1_555
H16 C25 1_555 1_555
C26 C21 1_555 1_555
C27 C26 1_555 1_555
C28 C23 1_555 1_555
N6 C28 1_555 1_555
H21 N6 1_555 1_555
O5 Cu2 1_555 1_555
O6 Cu2 1_555 1_555
Cu6 O7 1_555 1_555
C31 H22 1_555 1_555
C32 C31 1_555 1_555
H23 C32 1_555 1_555
C33 C32 1_555 1_555
C34 C33 1_555 1_555
H24 C34 1_555 1_555
C35 C34 1_555 1_555
H25 C35 1_555 1_555
C36 C31 1_555 1_555
C37 C36 1_555 1_555
C38 C33 1_555 1_555
C39 C38 1_555 1_555
H26 C39 1_555 1_555
C40 H27 1_555 1_555
C41 H28 1_555 1_555
C42 C41 1_555 1_555
H29 C42 1_555 1_555
C43 C42 1_555 1_555
C44 C43 1_555 1_555
H30 C44 1_555 1_555
C45 C44 1_555 1_555
H31 C45 1_555 1_555
C46 C41 1_555 1_555
C47 C46 1_555 1_555
C48 C43 1_555 1_555
C50 C48 1_555 1_555
H33 C50 1_555 1_555
N8 Cu2 1_555 1_555
N9 C39 1_555 1_555
N10 C38 1_555 1_555
H40 N10 1_555 1_555
N11 C48 1_555 1_555
H41 N11 1_555 1_555
O7 C37 1_555 1_555
O8 Cu6 1_555 1_555
O9 Cu6 1_555 1_555
O10 C47 1_555 1_555
Cu7 N9 1_555 1_555
N16 Cu6 1_555 1_555
C25 C26 1_555 1_555
C27 O5 1_555 1_555
C27 O6 1_555 1_555
C35 C36 1_555 1_555
C37 O8 1_555 1_555
C40 N9 1_555 1_555
C40 N10 1_555 1_555
C45 C46 1_555 1_555
C47 O9 1_555 1_555
C49 N8 1_555 1_555
C49 N11 1_555 1_555
C50 N8 1_555 1_555
C31_2 H22_2 1_555 1_555
C32_2 C31_2 1_555 1_555
H23_2 C32_2 1_555 1_555
C33_2 C32_2 1_555 1_555
C34_2 C33_2 1_555 1_555
H24_2 C34_2 1_555 1_555
C35_2 C34_2 1_555 1_555
H25_2 C35_2 1_555 1_555
C36_2 C31_2 1_555 1_555
C37_2 C36_2 1_555 1_555
C38_2 C33_2 1_555 1_555
C39_2 C38_2 1_555 1_555
H26_2 C39_2 1_555 1_555
C40_2 H27_2 1_555 1_555
N16 C39_2 1_555 1_555
N10_2 C38_2 1_555 1_555
H40_2 N10_2 1_555 1_555
O7_2 C37_2 1_555 1_555
C35_2 C36_2 1_555 1_555
C37_2 O8_2 1_555 1_555
C40_2 N16 1_555 1_555
C40_2 N10_2 1_555 1_555
Cu1 O1 1_555 1_555
Cu2_2 N2 1_555 1_555
C1 H1 1_555 1_555
C2 C1 1_555 1_555
H2 C2 1_555 1_555
C3 C2 1_555 1_555
C4 C3 1_555 1_555
H3 C4 1_555 1_555
C5 C4 1_555 1_555
H4 C5 1_555 1_555
C6 C1 1_555 1_555
C7 C6 1_555 1_555
C8 C3 1_555 1_555
C9 C8 1_555 1_555
H5 C9 1_555 1_555
C10 H6 1_555 1_555
C11 H7 1_555 1_555
C12 C11 1_555 1_555
H8 C12 1_555 1_555
C13 C12 1_555 1_555
C14 C13 1_555 1_555
H9 C14 1_555 1_555
C15 C14 1_555 1_555
H10 C15 1_555 1_555
C16 C11 1_555 1_555
C17 C16 1_555 1_555
C18 C13 1_555 1_555
C20 C18 1_555 1_555
H12 C20 1_555 1_555
N2 C19 1_555 1_555
N3 C9 1_555 1_555
N4 C8 1_555 1_555
H19 N4 1_555 1_555
N5 C18 1_555 1_555
H20 N5 1_555 1_555
O1 C7 1_555 1_555
O2 Cu1 1_555 1_555
O3 Cu1 1_555 1_555
O4 C17 1_555 1_555
C51 H34 1_555 1_555
C52 C51 1_555 1_555
H35 C52 1_555 1_555
C53 C52 1_555 1_555
C54 C53 1_555 1_555
H36 C54 1_555 1_555
C55 C54 1_555 1_555
H37 C55 1_555 1_555
C56 C51 1_555 1_555
C57 C56 1_555 1_555
C58 C53 1_555 1_555
N12 C58 1_555 1_555
H42 N12 1_555 1_555
O11 Cu2_2 1_555 1_555
O12 Cu2_2 1_555 1_555
Cu5 N3 1_555 1_555
N14 Cu1 1_555 1_555
N15 Cu1 1_555 1_555
C5 C6 1_555 1_555
C7 O2 1_555 1_555
C10 N3 1_555 1_555
C10 N4 1_555 1_555
C15 C16 1_555 1_555
C17 O3 1_555 1_555
C19 N5 1_555 1_555
C20 N2 1_555 1_555
C55 C56 1_555 1_555
C57 O11 1_555 1_555
C57 O12 1_555 1_555
H38 C59 1_555 1_555
C60 H39 1_555 1_555
N14 C59 1_555 1_555
C60 N14 1_555 1_555
C1_2 H1_2 1_555 1_555
C2_2 C1_2 1_555 1_555
H2_2 C2_2 1_555 1_555
C3_2 C2_2 1_555 1_555
C4_2 C3_2 1_555 1_555
H3_2 C4_2 1_555 1_555
C5_2 C4_2 1_555 1_555
H4_2 C5_2 1_555 1_555
C6_2 C1_2 1_555 1_555
C7_2 C6_2 1_555 1_555
C8_2 C3_2 1_555 1_555
C9_2 C8_2 1_555 1_555
H5_2 C9_2 1_555 1_555
C10_2 H6_2 1_555 1_555
N15 C9_2 1_555 1_555
N4_2 C8_2 1_555 1_555
H19_2 N4_2 1_555 1_555
O1_2 C7_2 1_555 1_555
C5_2 C6_2 1_555 1_555
C7_2 O2_2 1_555 1_555
C10_2 N15 1_555 1_555
C10_2 N4_2 1_555 1_555
H38_2 C59_2 1_555 1_555
C60_2 N7 1_555 1_555
H15_2 C24_2 1_555 1_555
C25_2 C24_2 1_555 1_555
H16_2 C25_2 1_555 1_555
O6_2 Cu2_3 1_555 1_555
C41_2 H28_2 1_555 1_555
C42_2 C41_2 1_555 1_555
H29_2 C42_2 1_555 1_555
C43_2 C42_2 1_555 1_555
C44_2 C43_2 1_555 1_555
H30_2 C44_2 1_555 1_555
C45_2 C44_2 1_555 1_555
H31_2 C45_2 1_555 1_555
C46_2 C41_2 1_555 1_555
C47_2 C46_2 1_555 1_555
C48_2 C43_2 1_555 1_555
C49_2 H32_2 1_555 1_555
C50_2 C48_2 1_555 1_555
H33_2 C50_2 1_555 1_555
C51_2 H34_2 1_555 1_555
C52_2 C51_2 1_555 1_555
H35_2 C52_2 1_555 1_555
C53_2 C52_2 1_555 1_555
C56_2 C51_2 1_555 1_555
C58_2 C53_2 1_555 1_555
N8_2 Cu2_3 1_555 1_555
N11_2 C48_2 1_555 1_555
H41_2 N11_2 1_555 1_555
N12_2 C58_2 1_555 1_555
H42_2 N12_2 1_555 1_555
O10_2 C47_2 1_555 1_555
O11_2 Cu2_3 1_555 1_555
C27_2 O6_2 1_555 1_555
C45_2 C46_2 1_555 1_555
C47_2 O9_2 1_555 1_555
C49_2 N8_2 1_555 1_555
C49_2 N11_2 1_555 1_555
C50_2 N8_2 1_555 1_555
Cu2_4 N2_2 1_555 1_555
C11_2 H7_2 1_555 1_555
C12_2 C11_2 1_555 1_555
H8_2 C12_2 1_555 1_555
C13_2 C12_2 1_555 1_555
C14_2 C13_2 1_555 1_555
H9_2 C14_2 1_555 1_555
C15_2 C14_2 1_555 1_555
H10_2 C15_2 1_555 1_555
C16_2 C11_2 1_555 1_555
C17_2 C16_2 1_555 1_555
C18_2 C13_2 1_555 1_555
C19_2 H11_2 1_555 1_555
C20_2 C18_2 1_555 1_555
H12_2 C20_2 1_555 1_555
C21_2 H13_2 1_555 1_555
C22_2 C21_2 1_555 1_555
H14_2 C22_2 1_555 1_555
C23_2 C22_2 1_555 1_555
C26_2 C21_2 1_555 1_555
C28_2 C23_2 1_555 1_555
N2_2 C19_2 1_555 1_555
N5_2 C18_2 1_555 1_555
H20_2 N5_2 1_555 1_555
N6_2 C28_2 1_555 1_555
H21_2 N6_2 1_555 1_555
O4_2 C17_2 1_555 1_555
O5_2 Cu2_4 1_555 1_555
H36_2 C54_2 1_555 1_555
C55_2 C54_2 1_555 1_555
H37_2 C55_2 1_555 1_555
O12_2 Cu2_4 1_555 1_555
C15_2 C16_2 1_555 1_555
C17_2 O3_2 1_555 1_555
C19_2 N5_2 1_555 1_555
C20_2 N2_2 1_555 1_555
C57_2 O12_2 1_555 1_555
C30_2 N13 1_555 1_555
H17_2 C29_2 1_555 1_555

#END
