
###############################################################################
#
# This file contains modified crystal structure data generated from the
# MOF subset of the Cambridge Structural Database (CSD) v543 
# hosted by the Cambridge Crystallographic Data Centre (CCDC).
#
# This work is licensed under the Creative Commons
# Attribution-NonCommercial-ShareAlike 4.0 International License.
# To view a copy of this license, visit
# http://creativecommons.org/licenses/by-nc-sa/4.0/
# or send a letter to
# Creative Commons, PO Box 1866, Mountain View, CA 94042, USA.
#
# CIF created using the CSD Python API on 29 September 2022
# The structure has been converted into the P1 space group
# The structure has a 3D framework
# The original CSD entry POSFOU is in the tetragonal crystal system
# The framework has been calculated to contain at least 10.0% void space
# The void calculation uses a probe of radius 1.32A, grid spacing 0.4
# H atom positions have been added when not included in the experimental data
# Generated hydrogen atom positions removed from atoms on special positions
#
###############################################################################

data_POSFOU
_chemical_formula_moiety         '(C80 H88 Cd11 N16 O19)n'
_symmetry_cell_setting           triclinic
_symmetry_space_group_name_H-M   'P 1'
_symmetry_Int_Tables_number      1
_space_group_name_Hall           'P 1'
loop_
_symmetry_equiv_pos_site_id
_symmetry_equiv_pos_as_xyz
1 x,y,z
_cell_length_a                   10.1459(3)
_cell_length_b                   10.1459(3)
_cell_length_c                   23.8634(17)
_cell_angle_alpha                90
_cell_angle_beta                 90
_cell_angle_gamma                90
_cell_volume                     2456.48
loop_
_atom_site_label
_atom_site_type_symbol
_atom_site_fract_x
_atom_site_fract_y
_atom_site_fract_z
Cd1 Cd -0.0000 0.0000 0.0000
O12 O 0.1256(3) 0.1038(4) 0.08512(11)
Cd2 Cd 1.0000 0.5000 0.2500
H6 H 0.9824 0.6566 0.1263
C11 C 0.5853(5) 0.2780(5) 0.10798(18)
C12 C 0.5760(5) 0.2147(6) 0.0579(2)
H8 H 0.6511 0.2041 0.0360
C13 C 0.4559(5) 0.1656(7) 0.0390(2)
H9 H 0.4521 0.1191 0.0054
C14 C 0.3424(4) 0.1856(5) 0.06974(15)
C15 C 0.3518(5) 0.2560(8) 0.1192(2)
H10 H 0.2760 0.2742 0.1397
C16 C 0.4725(6) 0.2996(8) 0.1385(3)
H11 H 0.4776 0.3440 0.1725
C17 C 0.7141(4) 0.3202(5) 0.12991(17)
C18 C 0.7494(5) 0.3783(5) 0.18001(19)
H12 H 0.6907 0.4033 0.2080
C19 C 0.9288(4) 0.3455(5) 0.13579(18)
C20 C 0.2152(4) 0.1267(4) 0.05084(17)
N3 N 0.8831(4) 0.3937(4) 0.18263(14)
N4 N 0.8320(4) 0.2995(4) 0.10324(14)
H14 H 0.8419 0.2631 0.0710
O6 O 0.8300(3) 0.6700(3) 0.2500
N10 N 0.8937(4) 0.3831(4) 0.31737(14)
C31 C 0.7780(5) 0.0853(5) 0.39202(18)
C32 C 0.7147(6) 0.0760(5) 0.4421(2)
H22 H 0.7041 0.1511 0.4640
C37 C 0.8202(5) 0.2141(4) 0.37009(17)
C38 C 0.8783(5) 0.2494(5) 0.31999(19)
H26 H 0.9033 0.1907 0.2920
C39 C 0.8455(5) 0.4288(4) 0.36421(18)
H27 H 0.8434 0.5176 0.3737
N8 N 0.7995(4) 0.3320(4) 0.39676(14)
H28 H 0.7631 0.3419 0.4290
Cd1_2 Cd -0.0000 0.0000 1.0000
O11 O 0.2024(3) 0.0992(3) 0.99980(11)
Cd1_3 Cd -0.0000 1.0000 0.0000
O9 O 0.0992(3) 0.7976(3) 0.00020(11)
Cd1_4 Cd -0.0000 1.0000 1.0000
C31_2 C 0.2780(5) 0.4147(5) 0.89202(18)
C32_2 C 0.2147(6) 0.4240(5) 0.9421(2)
H22_2 H 0.2041 0.3489 0.9640
C33 C 0.1656(7) 0.5441(5) 0.9610(2)
H23 H 0.1191 0.5479 0.9946
C34 C 0.1856(5) 0.6576(4) 0.93026(15)
C35 C 0.2560(8) 0.6482(5) 0.8808(2)
H24 H 0.2742 0.7240 0.8603
C36 C 0.2996(8) 0.5275(6) 0.8615(3)
H25 H 0.3440 0.5224 0.8275
C37_2 C 0.3202(5) 0.2859(4) 0.87009(17)
C38_2 C 0.3783(5) 0.2506(5) 0.81999(19)
H26_2 H 0.4033 0.3093 0.7920
C39_2 C 0.3455(5) 0.0712(4) 0.86421(18)
C40 C 0.1267(4) 0.7848(4) 0.94916(17)
N7 N 0.3937(4) 0.1169(4) 0.81737(14)
N8_2 N 0.2995(4) 0.1680(4) 0.89676(14)
H28_2 H 0.2631 0.1581 0.9290
O10 O 0.1038(4) 0.8744(3) 0.91488(11)
Cd5 Cd 0.5000 0.0000 0.7500
H20 H 0.6566 0.0176 0.8737
O6_2 O 0.6700(3) 0.1700(3) 0.7500
N10_2 N 0.3831(4) 0.1063(4) 0.68263(14)
C11_2 C 0.0853(5) 0.2220(5) 0.60798(18)
C12_2 C 0.0760(5) 0.2853(6) 0.5579(2)
H8_2 H 0.1511 0.2959 0.5360
C17_2 C 0.2141(4) 0.1798(5) 0.62991(17)
C18_2 C 0.2494(5) 0.1217(5) 0.68001(19)
H12_2 H 0.1907 0.0967 0.7080
C19_2 C 0.4288(4) 0.1545(5) 0.63579(18)
H13 H 0.5176 0.1566 0.6263
N4_2 N 0.3320(4) 0.2005(4) 0.60324(14)
H14_2 H 0.3419 0.2369 0.5710
H27_2 H 0.3434 0.9824 0.8737
Cd5_2 Cd 0.5000 1.0000 0.7500
Cd1_5 Cd 1.0000 0.0000 1.0000
C21 C 0.7220(5) 0.5853(5) 0.89202(18)
C22 C 0.7853(6) 0.5760(5) 0.9421(2)
H15 H 0.7959 0.6511 0.9640
C23 C 0.8344(7) 0.4559(5) 0.9610(2)
H16 H 0.8809 0.4521 0.9946
C24 C 0.8144(5) 0.3424(4) 0.93026(15)
C25 C 0.7440(8) 0.3518(5) 0.8808(2)
H17 H 0.7258 0.2760 0.8603
C26 C 0.7004(8) 0.4725(6) 0.8615(3)
H18 H 0.6560 0.4776 0.8275
C27 C 0.6798(5) 0.7141(4) 0.87009(17)
C28 C 0.6217(5) 0.7494(5) 0.81999(19)
H19 H 0.5967 0.6907 0.7920
C29 C 0.6545(5) 0.9288(4) 0.86421(18)
C30 C 0.8733(4) 0.2152(4) 0.94916(17)
N5 N 0.6063(4) 0.8831(4) 0.81737(14)
N6 N 0.7005(4) 0.8320(4) 0.89676(14)
H21 H 0.7369 0.8419 0.9290
O8 O 0.8962(4) 0.1256(3) 0.91488(11)
O3 O 0.3300(3) 0.8300(3) 0.7500
N9 N 0.6169(4) 0.8937(4) 0.68263(14)
C1 C 0.9147(5) 0.7780(5) 0.60798(18)
C2 C 0.9240(5) 0.7147(6) 0.5579(2)
H1 H 0.8489 0.7041 0.5360
C7 C 0.7859(4) 0.8202(5) 0.62991(17)
C8 C 0.7506(5) 0.8783(5) 0.68001(19)
H5 H 0.8093 0.9033 0.7080
C9 C 0.5712(4) 0.8455(5) 0.63579(18)
H6_2 H 0.4824 0.8434 0.6263
N2 N 0.6680(4) 0.7995(4) 0.60324(14)
H7 H 0.6581 0.7631 0.5710
Cd1_6 Cd 1.0000 0.0000 0.0000
O7 O 0.9008(3) 0.2024(3) 0.00020(11)
Cd1_7 Cd 1.0000 1.0000 0.0000
Cd2_2 Cd 0.0000 0.5000 0.2500
C1_2 C 0.4147(5) 0.7220(5) 0.10798(18)
C2_2 C 0.4240(5) 0.7853(6) 0.0579(2)
H1_2 H 0.3489 0.7959 0.0360
C3 C 0.5441(5) 0.8344(7) 0.0390(2)
H2 H 0.5479 0.8809 0.0054
C4 C 0.6576(4) 0.8144(5) 0.06974(15)
C5 C 0.6482(5) 0.7440(8) 0.1192(2)
H3 H 0.7240 0.7258 0.1397
C6 C 0.5275(6) 0.7004(8) 0.1385(3)
H4 H 0.5224 0.6560 0.1725
C7_2 C 0.2859(4) 0.6798(5) 0.12991(17)
C8_2 C 0.2506(5) 0.6217(5) 0.18001(19)
H5_2 H 0.3093 0.5967 0.2080
C9_2 C 0.0712(4) 0.6545(5) 0.13579(18)
C10 C 0.7848(4) 0.8733(4) 0.05084(17)
N1 N 0.1169(4) 0.6063(4) 0.18263(14)
N2_2 N 0.1680(4) 0.7005(4) 0.10324(14)
H7_2 H 0.1581 0.7369 0.0710
O2 O 0.8744(3) 0.8962(4) 0.08512(11)
O3_2 O 0.1700(3) 0.3300(3) 0.2500
H13_2 H 0.0176 0.3434 0.1263
N9_2 N 0.1063(4) 0.6169(4) 0.31737(14)
C21_2 C 0.2220(5) 0.9147(5) 0.39202(18)
C22_2 C 0.2853(6) 0.9240(5) 0.4421(2)
H15_2 H 0.2959 0.8489 0.4640
C27_2 C 0.1798(5) 0.7859(4) 0.37009(17)
C28_2 C 0.1217(5) 0.7506(5) 0.31999(19)
H19_2 H 0.0967 0.8093 0.2920
C29_2 C 0.1545(5) 0.5712(4) 0.36421(18)
H20_2 H 0.1566 0.4824 0.3737
N6_2 N 0.2005(4) 0.6680(4) 0.39676(14)
H21_2 H 0.2369 0.6581 0.4290
Cd1_8 Cd 1.0000 1.0000 1.0000
O1 O 0.7976(3) 0.9008(3) 0.99980(11)
Cd1_9 Cd 0.5000 0.5000 0.5000
C3_2 C 0.0441(5) 0.6656(7) 0.5390(2)
H2_2 H 0.0479 0.6191 0.5054
C4_2 C 0.1576(4) 0.6856(5) 0.56974(15)
C5_2 C 0.1482(5) 0.7560(8) 0.6192(2)
H3_2 H 0.2240 0.7742 0.6397
C6_2 C 0.0275(6) 0.7996(8) 0.6385(3)
H4_2 H 0.0224 0.8440 0.6725
C10_2 C 0.2848(4) 0.6267(4) 0.55084(17)
O1_2 O 0.2976(3) 0.5992(3) 0.49980(11)
O2_2 O 0.3744(3) 0.6038(4) 0.58512(11)
C23_2 C 0.3344(7) 0.0441(5) 0.4610(2)
H16_2 H 0.3809 0.0479 0.4946
C24_2 C 0.3144(5) 0.1576(4) 0.43026(15)
C25_2 C 0.2440(8) 0.1482(5) 0.3808(2)
H17_2 H 0.2258 0.2240 0.3603
C26_2 C 0.2004(8) 0.0275(6) 0.3615(3)
H18_2 H 0.1560 0.0224 0.3275
C30_2 C 0.3733(4) 0.2848(4) 0.44916(17)
O7_2 O 0.4008(3) 0.2976(3) 0.50020(11)
O8_2 O 0.3962(4) 0.3744(3) 0.41488(11)
C33_2 C 0.6656(7) 0.9559(5) 0.4610(2)
H23_2 H 0.6191 0.9521 0.4946
C34_2 C 0.6856(5) 0.8424(4) 0.43026(15)
C35_2 C 0.7560(8) 0.8518(5) 0.3808(2)
H24_2 H 0.7742 0.7760 0.3603
C36_2 C 0.7996(8) 0.9725(6) 0.3615(3)
H25_2 H 0.8440 0.9776 0.3275
C40_2 C 0.6267(4) 0.7152(4) 0.44916(17)
O9_2 O 0.5992(3) 0.7024(3) 0.50020(11)
O10_2 O 0.6038(4) 0.6256(3) 0.41488(11)
O11_2 O 0.7024(3) 0.4008(3) 0.49980(11)
O12_2 O 0.6256(3) 0.3962(4) 0.58512(11)
C13_2 C 0.9559(5) 0.3344(7) 0.5390(2)
H9_2 H 0.9521 0.3809 0.5054
C14_2 C 0.8424(4) 0.3144(5) 0.56974(15)
C15_2 C 0.8518(5) 0.2440(8) 0.6192(2)
H10_2 H 0.7760 0.2258 0.6397
C16_2 C 0.9725(6) 0.2004(8) 0.6385(3)
H11_2 H 0.9776 0.1560 0.6725
C20_2 C 0.7152(4) 0.3733(4) 0.55084(17)
loop_
_geom_bond_atom_site_label_1
_geom_bond_atom_site_label_2
_geom_bond_site_symmetry_1
_geom_bond_site_symmetry_2
O12 Cd1 1_555 1_555
C11 C12 1_555 1_555
C12 H8 1_555 1_555
C13 C12 1_555 1_555
H9 C13 1_555 1_555
C14 C13 1_555 1_555
C15 C14 1_555 1_555
H10 C15 1_555 1_555
C16 C11 1_555 1_555
H11 C16 1_555 1_555
C17 C11 1_555 1_555
C18 C17 1_555 1_555
H12 C18 1_555 1_555
C20 C14 1_555 1_555
N3 Cd2 1_555 1_555
N4 C17 1_555 1_555
H14 N4 1_555 1_555
O12 C20 1_555 1_555
O6 Cd2 1_555 1_555
N10 Cd2 1_555 1_555
C15 C16 1_555 1_555
C18 N3 1_555 1_555
C19 N3 1_555 1_555
C19 N4 1_555 1_555
C31 C32 1_555 1_555
C32 H22 1_555 1_555
C37 C31 1_555 1_555
C38 C37 1_555 1_555
H26 C38 1_555 1_555
C39 H27 1_555 1_555
N10 C38 1_555 1_555
N8 C37 1_555 1_555
H28 N8 1_555 1_555
C39 N10 1_555 1_555
C39 N8 1_555 1_555
O11 Cd1_2 1_555 1_555
O9 Cd1_3 1_555 1_555
C31_2 C32_2 1_555 1_555
C32_2 H22_2 1_555 1_555
C33 C32_2 1_555 1_555
H23 C33 1_555 1_555
C34 C33 1_555 1_555
C35 C34 1_555 1_555
H24 C35 1_555 1_555
C36 C31_2 1_555 1_555
H25 C36 1_555 1_555
C37_2 C31_2 1_555 1_555
C38_2 C37_2 1_555 1_555
H26_2 C38_2 1_555 1_555
C40 C34 1_555 1_555
N7 C38_2 1_555 1_555
N8_2 C37_2 1_555 1_555
H28_2 N8_2 1_555 1_555
O10 Cd1_4 1_555 1_555
Cd5 N7 1_555 1_555
C35 C36 1_555 1_555
C39_2 N7 1_555 1_555
C39_2 N8_2 1_555 1_555
C40 O10 1_555 1_555
O6_2 Cd5 1_555 1_555
N10_2 Cd5 1_555 1_555
C11_2 C12_2 1_555 1_555
C12_2 H8_2 1_555 1_555
C17_2 C11_2 1_555 1_555
C18_2 C17_2 1_555 1_555
H12_2 C18_2 1_555 1_555
C19_2 H13 1_555 1_555
N4_2 C17_2 1_555 1_555
H14_2 N4_2 1_555 1_555
C18_2 N10_2 1_555 1_555
C19_2 N10_2 1_555 1_555
C19_2 N4_2 1_555 1_555
C21 C22 1_555 1_555
C22 H15 1_555 1_555
C23 C22 1_555 1_555
H16 C23 1_555 1_555
C24 C23 1_555 1_555
C25 C24 1_555 1_555
H17 C25 1_555 1_555
C26 C21 1_555 1_555
H18 C26 1_555 1_555
C27 C21 1_555 1_555
C28 C27 1_555 1_555
H19 C28 1_555 1_555
C30 C24 1_555 1_555
N5 C28 1_555 1_555
N6 C27 1_555 1_555
H21 N6 1_555 1_555
O8 Cd1_5 1_555 1_555
Cd5_2 N5 1_555 1_555
C25 C26 1_555 1_555
C29 N5 1_555 1_555
C29 N6 1_555 1_555
C30 O8 1_555 1_555
O3 Cd5_2 1_555 1_555
N9 Cd5_2 1_555 1_555
C1 C2 1_555 1_555
C2 H1 1_555 1_555
C7 C1 1_555 1_555
C8 C7 1_555 1_555
H5 C8 1_555 1_555
C9 H6_2 1_555 1_555
N9 C8 1_555 1_555
N2 C7 1_555 1_555
H7 N2 1_555 1_555
C9 N9 1_555 1_555
C9 N2 1_555 1_555
O7 Cd1_6 1_555 1_555
Cd2_2 N1 1_555 1_555
C1_2 C2_2 1_555 1_555
C2_2 H1_2 1_555 1_555
C3 C2_2 1_555 1_555
H2 C3 1_555 1_555
C4 C3 1_555 1_555
C5 C4 1_555 1_555
H3 C5 1_555 1_555
C6 C1_2 1_555 1_555
H4 C6 1_555 1_555
C7_2 C1_2 1_555 1_555
C8_2 C7_2 1_555 1_555
H5_2 C8_2 1_555 1_555
C10 C4 1_555 1_555
N1 C8_2 1_555 1_555
N2_2 C7_2 1_555 1_555
H7_2 N2_2 1_555 1_555
O2 Cd1_7 1_555 1_555
O3_2 Cd2_2 1_555 1_555
N9_2 Cd2_2 1_555 1_555
C5 C6 1_555 1_555
C9_2 N1 1_555 1_555
C9_2 N2_2 1_555 1_555
C10 O2 1_555 1_555
C21_2 C22_2 1_555 1_555
C22_2 H15_2 1_555 1_555
C27_2 C21_2 1_555 1_555
C28_2 C27_2 1_555 1_555
H19_2 C28_2 1_555 1_555
C29_2 H20_2 1_555 1_555
N9_2 C28_2 1_555 1_555
N6_2 C27_2 1_555 1_555
H21_2 N6_2 1_555 1_555
C29_2 N9_2 1_555 1_555
C29_2 N6_2 1_555 1_555
Cd1_8 O1 1_555 1_555
Cd1_9 O1_2 1_555 1_555
H2_2 C3_2 1_555 1_555
C4_2 C3_2 1_555 1_555
C5_2 C4_2 1_555 1_555
H3_2 C5_2 1_555 1_555
H4_2 C6_2 1_555 1_555
C10_2 C4_2 1_555 1_555
O1_2 C10_2 1_555 1_555
O2_2 Cd1_9 1_555 1_555
H16_2 C23_2 1_555 1_555
C24_2 C23_2 1_555 1_555
C25_2 C24_2 1_555 1_555
H17_2 C25_2 1_555 1_555
H18_2 C26_2 1_555 1_555
C30_2 C24_2 1_555 1_555
O7_2 Cd1_9 1_555 1_555
O8_2 Cd1_9 1_555 1_555
H23_2 C33_2 1_555 1_555
C34_2 C33_2 1_555 1_555
C35_2 C34_2 1_555 1_555
H24_2 C35_2 1_555 1_555
H25_2 C36_2 1_555 1_555
C40_2 C34_2 1_555 1_555
O9_2 Cd1_9 1_555 1_555
O10_2 Cd1_9 1_555 1_555
O11_2 Cd1_9 1_555 1_555
O12_2 Cd1_9 1_555 1_555
C5_2 C6_2 1_555 1_555
C10_2 O2_2 1_555 1_555
C25_2 C26_2 1_555 1_555
C30_2 O7_2 1_555 1_555
C30_2 O8_2 1_555 1_555
C35_2 C36_2 1_555 1_555
C40_2 O9_2 1_555 1_555
C40_2 O10_2 1_555 1_555
H9_2 C13_2 1_555 1_555
C14_2 C13_2 1_555 1_555
C15_2 C14_2 1_555 1_555
H10_2 C15_2 1_555 1_555
H11_2 C16_2 1_555 1_555
C20_2 C14_2 1_555 1_555
O11_2 C20_2 1_555 1_555
O12_2 C20_2 1_555 1_555
C15_2 C16_2 1_555 1_555

#END
