
###############################################################################
#
# This file contains modified crystal structure data generated from the
# MOF subset of the Cambridge Structural Database (CSD) v543 
# hosted by the Cambridge Crystallographic Data Centre (CCDC).
#
# This work is licensed under the Creative Commons
# Attribution-NonCommercial-ShareAlike 4.0 International License.
# To view a copy of this license, visit
# http://creativecommons.org/licenses/by-nc-sa/4.0/
# or send a letter to
# Creative Commons, PO Box 1866, Mountain View, CA 94042, USA.
#
# CIF created using the CSD Python API on 29 September 2022
# The structure has been converted into the P1 space group
# The structure has a 3D framework
# The original CSD entry POSGOV is in the orthorhombic crystal system
# The framework has been calculated to contain at least 10.0% void space
# The void calculation uses a probe of radius 1.32A, grid spacing 0.4
#
###############################################################################

data_POSGOV
_chemical_formula_moiety         '(C80 H56 N16 O16 Zn6)n'
_symmetry_cell_setting           triclinic
_symmetry_space_group_name_H-M   'P 1'
_symmetry_Int_Tables_number      1
_space_group_name_Hall           'P 1'
loop_
_symmetry_equiv_pos_site_id
_symmetry_equiv_pos_as_xyz
1 x,y,z
_cell_length_a                   16.0788(15)
_cell_length_b                   15.1770(15)
_cell_length_c                   11.3011(11)
_cell_angle_alpha                90
_cell_angle_beta                 90
_cell_angle_gamma                90
_cell_volume                     2757.78
loop_
_atom_site_label
_atom_site_type_symbol
_atom_site_fract_x
_atom_site_fract_y
_atom_site_fract_z
Zn1 Zn 0.2500 0.5000 0.82662(3)
C1 C 0.44969(11) 0.25812(13) 0.58530(19)
C2 C 0.43953(12) 0.17854(14) 0.5272(2)
H1 H 0.3861 0.1573 0.5135
C3 C 0.50738(12) 0.12994(14) 0.4889(2)
H2 H 0.4991 0.0765 0.4504
C4 C 0.58730(11) 0.16031(13) 0.50776(19)
C5 C 0.59734(12) 0.23861(14) 0.5682(2)
H3 H 0.6508 0.2589 0.5837
C6 C 0.53126(12) 0.28689(15) 0.6057(2)
H4 H 0.5403 0.3397 0.6454
C7 C 0.37949(11) 0.31001(13) 0.62718(18)
C8 C 0.24947(12) 0.34414(15) 0.66337(19)
H5 H 0.1917 0.3418 0.6643
C9 C 0.37512(12) 0.38421(13) 0.69456(18)
H6 H 0.4208 0.4161 0.7214
C10 C 0.66109(12) 0.11003(13) 0.46357(19)
N1 N 0.29371(10) 0.40508(10) 0.71717(15)
N2 N 0.29749(9) 0.28642(10) 0.60767(15)
H7 H 0.2806 0.2422 0.5667
O1 O 0.73298(8) 0.13592(10) 0.48823(15)
O2 O 0.64740(8) 0.04273(10) 0.39964(15)
C11 C 0.05031(11) 0.74188(13) 0.58530(19)
C12 C 0.06047(12) 0.82146(14) 0.5272(2)
H8 H 0.1139 0.8427 0.5135
H9 H 0.0009 0.9235 0.4504
C17 C 0.12051(11) 0.68999(13) 0.62718(18)
C18 C 0.25053(12) 0.65586(15) 0.66337(19)
H12 H 0.3083 0.6582 0.6643
C19 C 0.12488(12) 0.61579(13) 0.69456(18)
H13 H 0.0792 0.5839 0.7214
N3 N 0.20629(10) 0.59492(10) 0.71717(15)
N4 N 0.20251(9) 0.71358(10) 0.60767(15)
H14 H 0.2194 0.7578 0.5667
Zn3 Zn 0.7500 0.0000 0.32662(3)
O5 O 0.14740(8) 0.45727(10) 0.89964(15)
O6 O 0.35260(8) 0.54273(10) 0.89964(15)
C3_2 C 0.00738(12) 0.37006(14) 0.9889(2)
C10_2 C 0.16109(12) 0.38997(13) 0.96357(19)
O1_2 O 0.23298(8) 0.36408(10) 0.98823(15)
C1_2 C 0.94969(11) 0.24188(13) 0.08530(19)
C2_2 C 0.93953(12) 0.32146(14) 0.0272(2)
H1_2 H 0.8861 0.3427 0.0135
C7_2 C 0.87949(11) 0.18999(13) 0.12718(18)
C8_2 C 0.74947(12) 0.15586(15) 0.16337(19)
H5_2 H 0.6917 0.1582 0.1643
C9_2 C 0.87512(12) 0.11579(13) 0.19456(18)
H6_2 H 0.9208 0.0839 0.2214
N1_2 N 0.79371(10) 0.09492(10) 0.21717(15)
N2_2 N 0.79749(9) 0.21358(10) 0.10767(15)
H7_2 H 0.7806 0.2578 0.0667
C13 C 0.49262(12) 0.62994(14) 0.9889(2)
H9_2 H 0.5009 0.5765 0.9504
C20 C 0.33891(12) 0.61003(13) 0.96357(19)
O3 O 0.26702(8) 0.63592(10) 0.98823(15)
Zn3_2 Zn 0.7500 1.0000 0.32662(3)
C13_2 C 0.99262(12) 0.87006(14) 0.4889(2)
C14 C 0.91270(11) 0.83969(13) 0.50776(19)
C15 C 0.90266(12) 0.76139(14) 0.5682(2)
H10 H 0.8492 0.7411 0.5837
C16 C 0.96874(12) 0.71311(15) 0.6057(2)
H11 H 0.9597 0.6603 0.6454
C20_2 C 0.83891(12) 0.88997(13) 0.46357(19)
O3_2 O 0.76702(8) 0.86408(10) 0.48823(15)
O4 O 0.85260(8) 0.95727(10) 0.39964(15)
C11_2 C 0.55031(11) 0.75812(13) 0.08530(19)
C12_2 C 0.56047(12) 0.67854(14) 0.0272(2)
H8_2 H 0.6139 0.6573 0.0135
C14_2 C 0.41270(11) 0.66031(13) 0.00776(19)
C15_2 C 0.40266(12) 0.73861(14) 0.0682(2)
H10_2 H 0.3492 0.7589 0.0837
C16_2 C 0.46874(12) 0.78689(15) 0.1057(2)
H11_2 H 0.4597 0.8397 0.1454
C17_2 C 0.62051(11) 0.81001(13) 0.12718(18)
C18_2 C 0.75053(12) 0.84414(15) 0.16337(19)
H12_2 H 0.8083 0.8418 0.1643
C19_2 C 0.62488(12) 0.88421(13) 0.19456(18)
H13_2 H 0.5792 0.9161 0.2214
N3_2 N 0.70629(10) 0.90508(10) 0.21717(15)
N4_2 N 0.70251(9) 0.78642(10) 0.10767(15)
H14_2 H 0.7194 0.7422 0.0667
C13_3 C 0.50738(12) 0.37006(14) 0.0111(2)
H9_3 H 0.4991 0.4235 0.0496
C20_3 C 0.66109(12) 0.38997(13) 0.03643(19)
O3_3 O 0.73298(8) 0.36408(10) 0.01177(15)
O4_2 O 0.64740(8) 0.45727(10) 0.10036(15)
Zn2 Zn 0.7500 0.5000 0.17338(3)
Zn1_2 Zn 0.2500 1.0000 0.67338(3)
C1_3 C 0.05031(11) 0.75812(13) 0.91470(19)
C2_3 C 0.06047(12) 0.67854(14) 0.9728(2)
H1_3 H 0.1139 0.6573 0.9865
C7_3 C 0.12051(11) 0.81001(13) 0.87282(18)
C8_3 C 0.25053(12) 0.84414(15) 0.83663(19)
H5_3 H 0.3083 0.8418 0.8357
C9_3 C 0.12488(12) 0.88421(13) 0.80544(18)
H6_3 H 0.0792 0.9161 0.7786
N1_3 N 0.20629(10) 0.90508(10) 0.78283(15)
N2_3 N 0.20251(9) 0.78642(10) 0.89233(15)
H7_3 H 0.2194 0.7422 0.9333
O5_2 O 0.35260(8) 0.95727(10) 0.60036(15)
C3_3 C 0.99262(12) 0.62994(14) 0.0111(2)
C10_3 C 0.83891(12) 0.61003(13) 0.03643(19)
O1_3 O 0.76702(8) 0.63592(10) 0.01177(15)
O2_2 O 0.85260(8) 0.54273(10) 0.10036(15)
C1_4 C 0.55031(11) 0.74188(13) 0.41470(19)
C2_4 C 0.56047(12) 0.82146(14) 0.4728(2)
H1_4 H 0.6139 0.8427 0.4865
C3_4 C 0.49262(12) 0.87006(14) 0.5111(2)
H2_2 H 0.5009 0.9235 0.5496
C4_2 C 0.41270(11) 0.83969(13) 0.49224(19)
C5_2 C 0.40266(12) 0.76139(14) 0.4318(2)
H3_2 H 0.3492 0.7411 0.4163
C6_2 C 0.46874(12) 0.71311(15) 0.3943(2)
H4_2 H 0.4597 0.6603 0.3546
C7_4 C 0.62051(11) 0.68999(13) 0.37282(18)
C8_4 C 0.75053(12) 0.65586(15) 0.33663(19)
H5_4 H 0.8083 0.6582 0.3357
C9_4 C 0.62488(12) 0.61579(13) 0.30544(18)
H6_4 H 0.5792 0.5839 0.2786
C10_4 C 0.33891(12) 0.88997(13) 0.53643(19)
N1_4 N 0.70629(10) 0.59492(10) 0.28283(15)
N2_4 N 0.70251(9) 0.71358(10) 0.39233(15)
H7_4 H 0.7194 0.7578 0.4333
O1_4 O 0.26702(8) 0.86408(10) 0.51177(15)
C11_3 C 0.94969(11) 0.25812(13) 0.41470(19)
C12_3 C 0.93953(12) 0.17854(14) 0.4728(2)
H8_3 H 0.8861 0.1573 0.4865
H9_4 H 0.9991 0.0765 0.5496
C17_3 C 0.87949(11) 0.31001(13) 0.37282(18)
C18_3 C 0.74947(12) 0.34414(15) 0.33663(19)
H12_3 H 0.6917 0.3418 0.3357
C19_3 C 0.87512(12) 0.38421(13) 0.30544(18)
H13_3 H 0.9208 0.4161 0.2786
N3_3 N 0.79371(10) 0.40508(10) 0.28283(15)
N4_3 N 0.79749(9) 0.28642(10) 0.39233(15)
H14_3 H 0.7806 0.2422 0.4333
Zn1_3 Zn 0.2500 0.0000 0.67338(3)
C11_4 C 0.44969(11) 0.24188(13) 0.91470(19)
C12_4 C 0.43953(12) 0.32146(14) 0.9728(2)
H8_4 H 0.3861 0.3427 0.9865
C14_3 C 0.58730(11) 0.33969(13) 0.99224(19)
C15_3 C 0.59734(12) 0.26139(14) 0.9318(2)
H10_3 H 0.6508 0.2411 0.9163
C16_3 C 0.53126(12) 0.21311(15) 0.8943(2)
H11_3 H 0.5403 0.1603 0.8546
C17_4 C 0.37949(11) 0.18999(13) 0.87282(18)
C18_4 C 0.24947(12) 0.15586(15) 0.83663(19)
H12_4 H 0.1917 0.1582 0.8357
C19_4 C 0.37512(12) 0.11579(13) 0.80544(18)
H13_4 H 0.4208 0.0839 0.7786
N3_4 N 0.29371(10) 0.09492(10) 0.78283(15)
N4_4 N 0.29749(9) 0.21358(10) 0.89233(15)
H14_4 H 0.2806 0.2578 0.9333
O6_2 O 0.14740(8) 0.04273(10) 0.60036(15)
C13_4 C 0.00738(12) 0.12994(14) 0.5111(2)
C14_4 C 0.08730(11) 0.16031(13) 0.49224(19)
C15_4 C 0.09734(12) 0.23861(14) 0.4318(2)
H10_4 H 0.1508 0.2589 0.4163
C16_4 C 0.03126(12) 0.28689(15) 0.3943(2)
H11_4 H 0.0403 0.3397 0.3546
C20_4 C 0.16109(12) 0.11003(13) 0.53643(19)
O3_4 O 0.23298(8) 0.13592(10) 0.51177(15)
H2_3 H 0.0009 0.5765 0.0496
C4_3 C 0.91270(11) 0.66031(13) 0.99224(19)
C5_3 C 0.90266(12) 0.73861(14) 0.9318(2)
H3_3 H 0.8492 0.7589 0.9163
C6_3 C 0.96874(12) 0.78689(15) 0.8943(2)
H4_3 H 0.9597 0.8397 0.8546
C4_4 C 0.08730(11) 0.33969(13) 0.00776(19)
C5_4 C 0.09734(12) 0.26139(14) 0.0682(2)
H3_4 H 0.1508 0.2411 0.0837
C6_4 C 0.03126(12) 0.21311(15) 0.1057(2)
H4_4 H 0.0403 0.1603 0.1454
H2_4 H 0.9991 0.4235 0.9504
loop_
_geom_bond_atom_site_label_1
_geom_bond_atom_site_label_2
_geom_bond_site_symmetry_1
_geom_bond_site_symmetry_2
Zn1 N1 1_555 1_555
C1 C2 1_555 1_555
C2 H1 1_555 1_555
C3 C2 1_555 1_555
H2 C3 1_555 1_555
C4 C3 1_555 1_555
C5 C4 1_555 1_555
H3 C5 1_555 1_555
C6 C1 1_555 1_555
H4 C6 1_555 1_555
C7 C1 1_555 1_555
C8 H5 1_555 1_555
C9 C7 1_555 1_555
H6 C9 1_555 1_555
C10 C4 1_555 1_555
N1 C8 1_555 1_555
N2 C7 1_555 1_555
H7 N2 1_555 1_555
O1 C10 1_555 1_555
O2 C10 1_555 1_555
C11 C12 1_555 1_555
C12 H8 1_555 1_555
C17 C11 1_555 1_555
C18 H12 1_555 1_555
C19 C17 1_555 1_555
H13 C19 1_555 1_555
N3 Zn1 1_555 1_555
N4 C17 1_555 1_555
H14 N4 1_555 1_555
Zn3 O2 1_555 1_555
O5 Zn1 1_555 1_555
O6 Zn1 1_555 1_555
C5 C6 1_555 1_555
C8 N2 1_555 1_555
C9 N1 1_555 1_555
C18 N3 1_555 1_555
C18 N4 1_555 1_555
C19 N3 1_555 1_555
O1_2 C10_2 1_555 1_555
O5 C10_2 1_555 1_555
Zn3 N1_2 1_555 1_555
C1_2 C2_2 1_555 1_555
C2_2 H1_2 1_555 1_555
C7_2 C1_2 1_555 1_555
C8_2 H5_2 1_555 1_555
C9_2 C7_2 1_555 1_555
H6_2 C9_2 1_555 1_555
N1_2 C8_2 1_555 1_555
N2_2 C7_2 1_555 1_555
H7_2 N2_2 1_555 1_555
C8_2 N2_2 1_555 1_555
C9_2 N1_2 1_555 1_555
H9_2 C13 1_555 1_555
O3 C20 1_555 1_555
O6 C20 1_555 1_555
C14 C13_2 1_555 1_555
C15 C14 1_555 1_555
H10 C15 1_555 1_555
H11 C16 1_555 1_555
C20_2 C14 1_555 1_555
O3_2 C20_2 1_555 1_555
O4 C20_2 1_555 1_555
Zn3_2 O4 1_555 1_555
C15 C16 1_555 1_555
C11_2 C12_2 1_555 1_555
C12_2 H8_2 1_555 1_555
C15_2 C14_2 1_555 1_555
H10_2 C15_2 1_555 1_555
C16_2 C11_2 1_555 1_555
H11_2 C16_2 1_555 1_555
C17_2 C11_2 1_555 1_555
C18_2 H12_2 1_555 1_555
C19_2 C17_2 1_555 1_555
H13_2 C19_2 1_555 1_555
N3_2 Zn3_2 1_555 1_555
N4_2 C17_2 1_555 1_555
H14_2 N4_2 1_555 1_555
C15_2 C16_2 1_555 1_555
C18_2 N3_2 1_555 1_555
C18_2 N4_2 1_555 1_555
C19_2 N3_2 1_555 1_555
H9_3 C13_3 1_555 1_555
O3_3 C20_3 1_555 1_555
O4_2 C20_3 1_555 1_555
Zn2 O4_2 1_555 1_555
Zn1_2 N1_3 1_555 1_555
C1_3 C2_3 1_555 1_555
C2_3 H1_3 1_555 1_555
C7_3 C1_3 1_555 1_555
C8_3 H5_3 1_555 1_555
C9_3 C7_3 1_555 1_555
H6_3 C9_3 1_555 1_555
N1_3 C8_3 1_555 1_555
N2_3 C7_3 1_555 1_555
H7_3 N2_3 1_555 1_555
O5_2 Zn1_2 1_555 1_555
C8_3 N2_3 1_555 1_555
C9_3 N1_3 1_555 1_555
O1_3 C10_3 1_555 1_555
O2_2 C10_3 1_555 1_555
Zn2 O2_2 1_555 1_555
Zn2 N1_4 1_555 1_555
C1_4 C2_4 1_555 1_555
C2_4 H1_4 1_555 1_555
C3_4 C2_4 1_555 1_555
H2_2 C3_4 1_555 1_555
C4_2 C3_4 1_555 1_555
C5_2 C4_2 1_555 1_555
H3_2 C5_2 1_555 1_555
C6_2 C1_4 1_555 1_555
H4_2 C6_2 1_555 1_555
C7_4 C1_4 1_555 1_555
C8_4 H5_4 1_555 1_555
C9_4 C7_4 1_555 1_555
H6_4 C9_4 1_555 1_555
C10_4 C4_2 1_555 1_555
N1_4 C8_4 1_555 1_555
N2_4 C7_4 1_555 1_555
H7_4 N2_4 1_555 1_555
O1_4 C10_4 1_555 1_555
O5_2 C10_4 1_555 1_555
C11_3 C12_3 1_555 1_555
C12_3 H8_3 1_555 1_555
C17_3 C11_3 1_555 1_555
C18_3 H12_3 1_555 1_555
C19_3 C17_3 1_555 1_555
H13_3 C19_3 1_555 1_555
N3_3 Zn2 1_555 1_555
N4_3 C17_3 1_555 1_555
H14_3 N4_3 1_555 1_555
C5_2 C6_2 1_555 1_555
C8_4 N2_4 1_555 1_555
C9_4 N1_4 1_555 1_555
C18_3 N3_3 1_555 1_555
C18_3 N4_3 1_555 1_555
C19_3 N3_3 1_555 1_555
C11_4 C12_4 1_555 1_555
C12_4 H8_4 1_555 1_555
C15_3 C14_3 1_555 1_555
H10_3 C15_3 1_555 1_555
C16_3 C11_4 1_555 1_555
H11_3 C16_3 1_555 1_555
C17_4 C11_4 1_555 1_555
C18_4 H12_4 1_555 1_555
C19_4 C17_4 1_555 1_555
H13_4 C19_4 1_555 1_555
N3_4 Zn1_3 1_555 1_555
N4_4 C17_4 1_555 1_555
H14_4 N4_4 1_555 1_555
O6_2 Zn1_3 1_555 1_555
C15_3 C16_3 1_555 1_555
C18_4 N3_4 1_555 1_555
C18_4 N4_4 1_555 1_555
C19_4 N3_4 1_555 1_555
C14_4 C13_4 1_555 1_555
C15_4 C14_4 1_555 1_555
H10_4 C15_4 1_555 1_555
H11_4 C16_4 1_555 1_555
C20_4 C14_4 1_555 1_555
O3_4 C20_4 1_555 1_555
O6_2 C20_4 1_555 1_555
C15_4 C16_4 1_555 1_555
C5_3 C4_3 1_555 1_555
H3_3 C5_3 1_555 1_555
H4_3 C6_3 1_555 1_555
C5_3 C6_3 1_555 1_555
C5_4 C4_4 1_555 1_555
H3_4 C5_4 1_555 1_555
H4_4 C6_4 1_555 1_555
C5_4 C6_4 1_555 1_555

#END
