
###############################################################################
#
# This file contains modified crystal structure data generated from the
# MOF subset of the Cambridge Structural Database (CSD) v543 
# hosted by the Cambridge Crystallographic Data Centre (CCDC).
#
# This work is licensed under the Creative Commons
# Attribution-NonCommercial-ShareAlike 4.0 International License.
# To view a copy of this license, visit
# http://creativecommons.org/licenses/by-nc-sa/4.0/
# or send a letter to
# Creative Commons, PO Box 1866, Mountain View, CA 94042, USA.
#
# CIF created using the CSD Python API on 29 September 2022
# The structure has been converted into the P1 space group
# The structure has a 3D framework
# The original CSD entry POSWUS is in the rhombohedral crystal system
# The framework has been calculated to contain at least 10.0% void space
# The void calculation uses a probe of radius 1.32A, grid spacing 0.4
# H atom positions have been added when not included in the experimental data
# Generated hydrogen atom positions removed from atoms on special positions
#
###############################################################################

data_POSWUS
_chemical_formula_moiety         '(C108 H144 Cl12 N68 Ni32 O50)n'
_symmetry_cell_setting           triclinic
_symmetry_space_group_name_H-M   'P 1'
_symmetry_Int_Tables_number      1
_space_group_name_Hall           'P 1'
loop_
_symmetry_equiv_pos_site_id
_symmetry_equiv_pos_as_xyz
1 x,y,z
_cell_length_a                   38.5282(5)
_cell_length_b                   38.5282(5)
_cell_length_c                   8.18879(13)
_cell_angle_alpha                90
_cell_angle_beta                 90
_cell_angle_gamma                120
_cell_volume                     10527.1
loop_
_atom_site_label
_atom_site_type_symbol
_atom_site_fract_x
_atom_site_fract_y
_atom_site_fract_z
N1 N 0.3118(4) 0.333333 0.333333
N2 N 0.2982(3) 0.3461(3) 0.4633(12)
C1 C 0.2622(4) 0.3418(4) 0.4201(11)
C2 C 0.2335(3) 0.3485(4) 0.4981(16)
C3 C 0.2007(4) 0.3414(4) 0.4163(11)
O1 O 0.17523(17) 0.3505(3) 0.4866(14)
Ni1 Ni 0.36475(7) 0.333333 0.333333
Cl1 Cl 0.333333 0.27481(12) 0.166667
O2 O 0.4189(3) 0.333333 0.333333
N3 N 0.02153(40) 0.333333 0.333333
N4 N 0.0479(4) 0.3461(3) 0.4633(12)
C4 C 0.0796(6) 0.3418(4) 0.4201(11)
C5 C 0.1150(5) 0.3485(4) 0.4981(16)
C6 C 0.1407(6) 0.3414(4) 0.4163(11)
N5 N 0.0351(3) 0.3206(3) 0.2034(12)
C7 C 0.0711(4) 0.3249(4) 0.2466(11)
C8 C 0.0998(3) 0.3182(4) 0.1686(16)
C9 C 0.1326(4) 0.3253(4) 0.2504(11)
O3 O 0.15810(17) 0.3162(3) 0.1801(14)
N6 N 0.2854(4) 0.3206(3) 0.2034(12)
C10 C 0.2537(6) 0.3249(4) 0.2466(11)
C11 C 0.2183(5) 0.3182(4) 0.1686(16)
C12 C 0.1926(6) 0.3253(4) 0.2504(11)
N7 N 0.3461(3) 0.2982(3) 0.5367(12)
N9 N 0.3812(4) 0.3685(3) 0.1300(12)
Ni3 Ni 0.333333 0.36475(7) 0.666667
Ni4 Ni 0.031417(70) 0.36475(7) 0.666667
Ni5 Ni -0.000000 0.301916(70) 0.000000
Ni6 Ni 0.30192(7) 0.301916(70) 0.000000
Cl3 Cl 0.39186(12) 0.39186(12) 0.500000
Cl4 Cl -0.000000 0.39186(12) 0.500000
H1 H 0.0952832 0.307337 0.0431804
H2 H 0.23805 0.35933 0.623486
H3 H 0.12128 0.35933 0.623486
H8 H 0.212054 0.307337 0.0431804
Ni5_2 Ni -0.000000 0.301916(70) 1.000000
Ni6_2 Ni 0.30192(7) 0.301916(70) 1.000000
Ni2 Ni 0.968583(70) 0.333333 0.333333
Cl2 Cl 0.94148(12) 0.27481(12) 0.166667
O4 O 0.91443(30) 0.333333 0.333333
N8 N 0.9521(4) 0.2982(3) 0.5367(12)
N10 N 0.9872(3) 0.3685(3) 0.1300(12)
Ni5_3 Ni 1.000000 0.301916(70) 0.000000
Cl4_2 Cl 1.000000 0.39186(12) 0.500000
Ni5_4 Ni 1.000000 0.301916(70) 1.000000
Ni2_2 Ni 0.364750(70) 0.031417(70) 0.333333
Cl2_2 Cl 0.33333(17) 0.05852(12) 0.166667
O4_2 O 0.41890(30) 0.08557(30) 0.333333
N8_2 N 0.3461(5) 0.0479(4) 0.5367(12)
N10_2 N 0.3812(4) 0.0128(3) 0.1300(12)
Ni5_5 Ni 0.301917(70) 0.000000 0.000000
Cl4_3 Cl 0.39186(12) 0.000000 0.500000
Ni5_6 Ni 0.301917(70) 0.000000 1.000000
N1_2 N 0.02153(40) 0.6882(4) 0.333333
N2_2 N 0.0479(4) 0.7018(3) 0.4633(12)
C1_2 C 0.0796(6) 0.7378(4) 0.4201(11)
C2_2 C 0.1150(5) 0.7665(3) 0.4981(16)
C3_2 C 0.1407(6) 0.7993(4) 0.4163(11)
O1_2 O 0.17527(34) 0.82477(17) 0.4866(14)
N3_2 N 0.31180(40) 0.97847(40) 0.333333
N4_2 N 0.2982(5) 0.9521(4) 0.4633(12)
C4_2 C 0.2622(7) 0.9204(6) 0.4201(11)
C5_2 C 0.2335(6) 0.8850(5) 0.4981(16)
C6_2 C 0.2007(7) 0.8593(6) 0.4163(11)
N5_2 N 0.2854(4) 0.9649(3) 0.2034(12)
C7_2 C 0.2537(6) 0.9289(4) 0.2466(11)
C8_2 C 0.2183(5) 0.9002(3) 0.1686(16)
C9_2 C 0.1926(6) 0.8674(4) 0.2504(11)
O3_2 O 0.15806(34) 0.84190(17) 0.1801(14)
N6_2 N 0.0351(5) 0.7146(4) 0.2034(12)
C10_2 C 0.0711(7) 0.7463(6) 0.2466(11)
C11_2 C 0.0998(6) 0.7817(5) 0.1686(16)
C12_2 C 0.1326(7) 0.8074(6) 0.2504(11)
Ni3_2 Ni 0.031417(70) 0.666667 0.666667
Ni4_2 Ni 0.333333(99) 0.968583(70) 0.666667
Ni5_7 Ni 0.301917(70) 1.000000 0.000000
Ni6_3 Ni -0.000000(99) 0.69808(7) 0.000000
Cl3_2 Cl -0.00000(17) 0.60814(12) 0.500000
Cl4_4 Cl 0.39186(12) 1.000000 0.500000
H1_2 H 0.212054 0.904717 0.0431804
H2_2 H 0.12128 0.76195 0.623486
H3_2 H 0.23805 0.87872 0.623486
H8_2 H 0.0952832 0.787946 0.0431804
Ni5_8 Ni 0.301917(70) 1.000000 1.000000
Ni6_4 Ni -0.000000(99) 0.69808(7) 1.000000
Ni1_2 Ni 0.968583(70) 0.63525(7) 0.333333
Cl1_2 Cl 0.94148(12) 0.666667 0.166667
O2_2 O 0.91443(30) 0.5811(3) 0.333333
N7_2 N 0.9521(4) 0.6539(3) 0.5367(12)
N9_2 N 0.9872(5) 0.6188(4) 0.1300(12)
Ni6_5 Ni 1.000000(99) 0.69808(7) 0.000000
Cl3_3 Cl 1.00000(17) 0.60814(12) 0.500000
Ni6_6 Ni 1.000000(99) 0.69808(7) 1.000000
Ni1_3 Ni 0.666667 0.031417(70) 0.333333
Cl1_3 Cl 0.72519(12) 0.05852(12) 0.166667
O2_3 O 0.666667 0.08557(30) 0.333333
N7_3 N 0.7018(3) 0.0479(4) 0.5367(12)
N9_3 N 0.6315(3) 0.0128(5) 0.1300(12)
Ni6_7 Ni 0.698084(70) 0.000000(99) 0.000000
Cl3_4 Cl 0.60814(12) 0.00000(17) 0.500000
Ni6_8 Ni 0.698084(70) 0.000000(99) 1.000000
N1_3 N 0.666667 0.97847(40) 0.333333
N2_3 N 0.6539(3) 0.9521(4) 0.4633(12)
C1_3 C 0.6582(4) 0.9204(6) 0.4201(11)
C2_3 C 0.6515(4) 0.8850(5) 0.4981(16)
C3_3 C 0.6586(4) 0.8593(6) 0.4163(11)
O1_3 O 0.6495(3) 0.82473(34) 0.4866(14)
N3_3 N 0.666667 0.68820(40) 0.333333
N4_3 N 0.6539(3) 0.7018(5) 0.4633(12)
C4_3 C 0.6582(4) 0.7378(7) 0.4201(11)
C5_3 C 0.6515(4) 0.7665(6) 0.4981(16)
C6_3 C 0.6586(4) 0.7993(7) 0.4163(11)
N5_3 N 0.6794(3) 0.7146(4) 0.2034(12)
C7_3 C 0.6751(4) 0.7463(6) 0.2466(11)
C8_3 C 0.6818(4) 0.7817(5) 0.1686(16)
C9_3 C 0.6747(4) 0.8074(6) 0.2504(11)
O3_3 O 0.6838(3) 0.84194(34) 0.1801(14)
N6_3 N 0.6794(3) 0.9649(5) 0.2034(12)
C10_3 C 0.6751(4) 0.9289(7) 0.2466(11)
C11_3 C 0.6818(4) 0.9002(6) 0.1686(16)
C12_3 C 0.6747(4) 0.8674(7) 0.2504(11)
Ni2_3 Ni 0.666667 0.635250(70) 0.333333
Cl2_3 Cl 0.72519(12) 0.66667(17) 0.166667
O4_3 O 0.666667 0.58110(30) 0.333333
N8_3 N 0.7018(3) 0.6539(5) 0.5367(12)
N10_3 N 0.6315(3) 0.6188(4) 0.1300(12)
Ni3_3 Ni 0.63525(7) 0.968583(70) 0.666667
Ni4_3 Ni 0.63525(7) 0.666667(99) 0.666667
Ni5_9 Ni 0.698084(70) 0.698083(70) 0.000000
Ni6_9 Ni 0.698084(70) 1.000000(99) 0.000000
Cl3_5 Cl 0.60814(12) 1.00000(17) 0.500000
Cl4_5 Cl 0.60814(12) 0.60814(12) 0.500000
H1_3 H 0.692663 0.787946 0.0431804
H2_3 H 0.64067 0.87872 0.623486
H3_3 H 0.64067 0.76195 0.623486
H8_3 H 0.692663 0.904717 0.0431804
Ni5_10 Ni 0.698084(70) 0.698083(70) 1.000000
Ni6_10 Ni 0.698084(70) 1.000000(99) 1.000000
N1_4 N 0.333333 0.3118(4) 0.666667
C1_4 C 0.3418(4) 0.2622(4) 0.5799(11)
C2_4 C 0.3485(4) 0.2335(3) 0.5019(16)
C3_4 C 0.3414(4) 0.2007(4) 0.5837(11)
O1_4 O 0.3505(3) 0.17523(17) 0.5134(14)
Cl1_4 Cl 0.27481(12) 0.333333 0.833333
O2_4 O 0.333333 0.4189(3) 0.666667
N3_4 N 0.333333 0.02153(40) 0.666667
C4_4 C 0.3418(4) 0.0796(6) 0.5799(11)
C5_4 C 0.3485(4) 0.1150(5) 0.5019(16)
C6_4 C 0.3414(4) 0.1407(6) 0.5837(11)
N5_4 N 0.3206(3) 0.0351(3) 0.7966(12)
C7_4 C 0.3249(4) 0.0711(4) 0.7534(11)
C8_4 C 0.3182(4) 0.0998(3) 0.8314(16)
C9_4 C 0.3253(4) 0.1326(4) 0.7496(11)
O3_4 O 0.3162(3) 0.15810(17) 0.8199(14)
N6_4 N 0.3206(3) 0.2854(4) 0.7966(12)
C10_4 C 0.3249(4) 0.2537(6) 0.7534(11)
C11_4 C 0.3182(4) 0.2183(5) 0.8314(16)
C12_4 C 0.3253(4) 0.1926(6) 0.7496(11)
N9_4 N 0.3685(3) 0.3812(4) 0.8700(12)
H1_4 H 0.307337 0.0952832 0.95682
H2_4 H 0.35933 0.23805 0.376514
H3_4 H 0.35933 0.12128 0.376514
H8_4 H 0.307337 0.212054 0.95682
Cl2_4 Cl 0.27481(12) 0.94148(12) 0.833333
O4_4 O 0.333333 0.91443(30) 0.666667
N10_4 N 0.3685(3) 0.9872(3) 0.8700(12)
Cl1_5 Cl 0.05852(12) 0.72519(12) 0.833333
O2_5 O 0.08557(30) 0.666667 0.666667
N9_5 N 0.0128(5) 0.6315(3) 0.8700(12)
N1_5 N 0.97847(40) 0.666667 0.666667
C1_5 C 0.9204(6) 0.6582(4) 0.5799(11)
C2_5 C 0.8850(5) 0.6515(4) 0.5019(16)
C3_5 C 0.8593(6) 0.6586(4) 0.5837(11)
O1_5 O 0.82473(34) 0.6495(3) 0.5134(14)
N3_5 N 0.68820(40) 0.666667 0.666667
C4_5 C 0.7378(7) 0.6582(4) 0.5799(11)
C5_5 C 0.7665(6) 0.6515(4) 0.5019(16)
C6_5 C 0.7993(7) 0.6586(4) 0.5837(11)
N5_5 N 0.7146(4) 0.6794(3) 0.7966(12)
C7_5 C 0.7463(6) 0.6751(4) 0.7534(11)
C8_5 C 0.7817(5) 0.6818(4) 0.8314(16)
C9_5 C 0.8074(6) 0.6747(4) 0.7496(11)
O3_5 O 0.84194(34) 0.6838(3) 0.8199(14)
N6_5 N 0.9649(5) 0.6794(3) 0.7966(12)
C10_5 C 0.9289(7) 0.6751(4) 0.7534(11)
C11_5 C 0.9002(6) 0.6818(4) 0.8314(16)
C12_5 C 0.8674(7) 0.6747(4) 0.7496(11)
Cl2_5 Cl 0.66667(17) 0.72519(12) 0.833333
O4_5 O 0.58110(30) 0.666667 0.666667
N10_5 N 0.6188(4) 0.6315(3) 0.8700(12)
H1_5 H 0.787946 0.692663 0.95682
H2_5 H 0.87872 0.64067 0.376514
H3_5 H 0.76195 0.64067 0.376514
H8_5 H 0.904717 0.692663 0.95682
Cl2_6 Cl 0.05852(12) 0.33333(17) 0.833333
O4_6 O 0.08557(30) 0.41890(30) 0.666667
N10_6 N 0.0128(3) 0.3812(4) 0.8700(12)
N1_6 N 0.6882(4) 0.02153(40) 0.666667
C1_6 C 0.7378(4) 0.0796(6) 0.5799(11)
C2_6 C 0.7665(3) 0.1150(5) 0.5019(16)
C3_6 C 0.7993(4) 0.1407(6) 0.5837(11)
O1_6 O 0.82477(17) 0.17527(34) 0.5134(14)
N3_6 N 0.97847(40) 0.31180(40) 0.666667
C4_6 C 0.9204(6) 0.2622(7) 0.5799(11)
C5_6 C 0.8850(5) 0.2335(6) 0.5019(16)
C6_6 C 0.8593(6) 0.2007(7) 0.5837(11)
N5_6 N 0.9649(3) 0.2854(4) 0.7966(12)
C7_6 C 0.9289(4) 0.2537(6) 0.7534(11)
C8_6 C 0.9002(3) 0.2183(5) 0.8314(16)
C9_6 C 0.8674(4) 0.1926(6) 0.7496(11)
O3_6 O 0.84190(17) 0.15806(34) 0.8199(14)
N6_6 N 0.7146(4) 0.0351(5) 0.7966(12)
C10_6 C 0.7463(6) 0.0711(7) 0.7534(11)
C11_6 C 0.7817(5) 0.0998(6) 0.8314(16)
C12_6 C 0.8074(6) 0.1326(7) 0.7496(11)
H1_6 H 0.904717 0.212054 0.95682
H2_6 H 0.76195 0.12128 0.376514
H3_6 H 0.87872 0.23805 0.376514
H8_6 H 0.787946 0.0952832 0.95682
Cl1_6 Cl 0.666667 0.94148(12) 0.833333
O2_6 O 0.5811(3) 0.91443(30) 0.666667
N9_6 N 0.6188(4) 0.9872(5) 0.8700(12)
N1_7 N -0.000000 0.6451(4) 0.000000
O2_7 O -0.000000 0.7522(3) 0.000000
N3_7 N -0.000000 0.35487(40) 0.000000
O4_7 O -0.000000 0.24777(30) 0.000000
H4 H 0.00242106 0.762035 0.113902
N1_8 N -0.000000 0.6451(4) 1.000000
C1_7 C 0.0085(4) 0.5955(4) 0.9132(11)
C2_7 C 0.0152(4) 0.5668(3) 0.8352(16)
C3_7 C 0.0081(4) 0.5340(4) 0.9170(11)
O1_7 O 0.0172(3) 0.50856(17) 0.8467(14)
O2_8 O -0.000000 0.7522(3) 1.000000
N3_8 N -0.000000 0.35487(40) 1.000000
C4_7 C 0.0085(4) 0.4129(6) 0.9132(11)
C5_7 C 0.0152(4) 0.4483(5) 0.8352(16)
C6_7 C 0.0081(4) 0.4740(6) 0.9170(11)
O4_8 O -0.000000 0.24777(30) 1.000000
H2_7 H 0.0259963 0.571383 0.709847
H3_7 H 0.0259963 0.454613 0.709847
H5 H 0.0229976 0.772323 0.934505
H7 H 0.0229976 0.250674 0.934505
N1_9 N 1.000000 0.6451(4) 0.000000
O2_9 O 1.000000 0.7522(3) 0.000000
N3_9 N 1.000000 0.35487(40) 0.000000
C7_7 C 0.9915(4) 0.4045(4) 0.0868(11)
C8_7 C 0.9848(4) 0.4332(3) 0.1648(16)
C9_7 C 0.9919(4) 0.4660(4) 0.0830(11)
O3_7 O 0.9828(3) 0.49144(17) 0.1533(14)
C10_7 C 0.9915(4) 0.5871(6) 0.0868(11)
C11_7 C 0.9848(4) 0.5517(5) 0.1648(16)
C12_7 C 0.9919(4) 0.5260(6) 0.0830(11)
O4_9 O 1.000000 0.24777(30) 0.000000
H1_7 H 0.974004 0.428617 0.290153
H8_7 H 0.974004 0.545387 0.290153
N1_10 N 1.000000 0.6451(4) 1.000000
O2_10 O 1.000000 0.7522(3) 1.000000
N3_10 N 1.000000 0.35487(40) 1.000000
O4_10 O 1.000000 0.24777(30) 1.000000
H6 H 0.97458 0.226466 0.951594
N1_11 N 0.64513(40) 0.000000 0.000000
O2_11 O 0.75223(30) 0.000000 0.000000
N3_11 N 0.35487(40) 0.000000 0.000000
C7_8 C 0.4129(6) 0.0085(4) 0.0868(11)
C8_8 C 0.4483(5) 0.0152(4) 0.1648(16)
C9_8 C 0.4740(6) 0.0081(4) 0.0830(11)
O3_8 O 0.50860(34) 0.0172(3) 0.1533(14)
C10_8 C 0.5955(7) 0.0085(4) 0.0868(11)
C11_8 C 0.5668(6) 0.0152(4) 0.1648(16)
C12_8 C 0.5340(7) 0.0081(4) 0.0830(11)
O4_11 O 0.24777(30) 0.000000 0.000000
H1_8 H 0.454613 0.0259963 0.290153
H8_8 H 0.571383 0.0259963 0.290153
N1_12 N 0.64513(40) 0.000000 1.000000
O2_12 O 0.75223(30) 0.000000 1.000000
N3_12 N 0.35487(40) 0.000000 1.000000
O4_12 O 0.24777(30) 0.000000 1.000000
H6_2 H 0.251885 0.0254197 0.951594
N1_13 N 0.64513(40) 1.000000 0.000000
O2_13 O 0.75223(30) 1.000000 0.000000
N3_13 N 0.35487(40) 1.000000 0.000000
O4_13 O 0.24777(30) 1.000000 0.000000
H4_2 H 0.759614 0.997579 0.113902
N1_14 N 0.64513(40) 1.000000 1.000000
C1_8 C 0.5871(6) 0.9915(4) 0.9132(11)
C2_8 C 0.5517(5) 0.9848(4) 0.8352(16)
C3_8 C 0.5260(6) 0.9919(4) 0.9170(11)
O1_8 O 0.49140(34) 0.9828(3) 0.8467(14)
O2_14 O 0.75223(30) 1.000000 1.000000
N3_14 N 0.35487(40) 1.000000 1.000000
C4_8 C 0.4045(7) 0.9915(4) 0.9132(11)
C5_8 C 0.4332(6) 0.9848(4) 0.8352(16)
C6_8 C 0.4660(7) 0.9919(4) 0.9170(11)
O4_14 O 0.24777(30) 1.000000 1.000000
H2_8 H 0.545387 0.974004 0.709847
H3_8 H 0.428617 0.974004 0.709847
H5_2 H 0.749326 0.977002 0.934505
H7_2 H 0.227677 0.977002 0.934505
N1_15 N 0.3549(4) 0.35487(40) 0.000000
O2_15 O 0.2478(3) 0.24777(30) 0.000000
N3_15 N 0.64513(40) 0.64513(40) 0.000000
C7_9 C 0.5955(4) 0.5871(6) 0.0868(11)
C8_9 C 0.5668(3) 0.5517(5) 0.1648(16)
C9_9 C 0.5340(4) 0.5260(6) 0.0830(11)
O3_9 O 0.50856(17) 0.49140(34) 0.1533(14)
C10_9 C 0.4129(6) 0.4045(7) 0.0868(11)
C11_9 C 0.4483(5) 0.4332(6) 0.1648(16)
C12_9 C 0.4740(6) 0.4660(7) 0.0830(11)
O4_15 O 0.75223(30) 0.75223(30) 0.000000
H1_9 H 0.571383 0.545387 0.290153
H8_9 H 0.454613 0.428617 0.290153
N1_16 N 0.3549(4) 0.35487(40) 1.000000
C1_9 C 0.4045(4) 0.4129(6) 0.9132(11)
C2_9 C 0.4332(3) 0.4483(5) 0.8352(16)
C3_9 C 0.4660(4) 0.4740(6) 0.9170(11)
O1_9 O 0.49144(17) 0.50860(34) 0.8467(14)
O2_16 O 0.2478(3) 0.24777(30) 1.000000
N3_16 N 0.64513(40) 0.64513(40) 1.000000
C4_9 C 0.5871(6) 0.5955(7) 0.9132(11)
C5_9 C 0.5517(5) 0.5668(6) 0.8352(16)
C6_9 C 0.5260(6) 0.5340(7) 0.9170(11)
O4_16 O 0.75223(30) 0.75223(30) 1.000000
H2_9 H 0.428617 0.454613 0.709847
H3_9 H 0.545387 0.571383 0.709847
H5_3 H 0.772323 0.0229976 0.065495
H7_3 H 0.250674 0.0229976 0.065495
H4_3 H 0.762035 0.00242106 0.886098
H6_3 H 0.226466 0.97458 0.048406
H6_4 H 0.0254197 0.251885 0.048406
H5_4 H 0.977002 0.749326 0.065495
H7_4 H 0.977002 0.227677 0.065495
H4_4 H 0.997579 0.759614 0.886098
H6_5 H 0.0254197 0.773534 0.048406
H4_5 H 0.997579 0.237965 0.886098
H4_6 H 0.240386 0.00242106 0.886098
H6_6 H 0.748115 0.97458 0.048406
H6_7 H 0.773534 0.0254197 0.951594
H4_7 H 0.237965 0.997579 0.113902
H4_8 H 0.00242106 0.240386 0.113902
H6_8 H 0.97458 0.748115 0.951594
loop_
_geom_bond_atom_site_label_1
_geom_bond_atom_site_label_2
_geom_bond_site_symmetry_1
_geom_bond_site_symmetry_2
N1 N2 1_555 1_555
N2 C1 1_555 1_555
C1 C2 1_555 1_555
C2 C3 1_555 1_555
C3 O1 1_555 1_555
O1 C6 1_555 1_555
Ni1 N1 1_555 1_555
Cl1 Ni1 1_555 1_555
O2 Ni1 1_555 1_555
N3 N4 1_555 1_555
N4 C4 1_555 1_555
C4 C5 1_555 1_555
C5 C6 1_555 1_555
C6 C9 1_555 1_555
N5 N3 1_555 1_555
C7 C4 1_555 1_555
C8 C7 1_555 1_555
C9 C8 1_555 1_555
O3 C9 1_555 1_555
N6 N1 1_555 1_555
C10 C1 1_555 1_555
C11 C10 1_555 1_555
C12 C3 1_555 1_555
N7 Ni1 1_555 1_555
N9 Ni1 1_555 1_555
Ni3 N2 1_555 1_555
Ni4 N4 1_555 1_555
Ni5 N5 1_555 1_555
Ni6 Cl1 1_555 1_555
Cl3 Ni1 1_555 1_555
N5 C7 1_555 1_555
O3 C12 1_555 1_555
N6 C10 1_555 1_555
N6 Ni6 1_555 1_555
C11 C12 1_555 1_555
Ni3 Cl3 1_555 1_555
Ni4 Cl4 1_555 1_555
C8 H1 1_555 1_555
C2 H2 1_555 1_555
C5 H3 1_555 1_555
C11 H8 1_555 1_555
Cl2 Ni2 1_555 1_555
O4 Ni2 1_555 1_555
N8 Ni2 1_555 1_555
N10 Ni2 1_555 1_555
Cl4_2 Ni2 1_555 1_555
Cl2 Ni5_3 1_555 1_555
Cl2_2 Ni2_2 1_555 1_555
O4_2 Ni2_2 1_555 1_555
N8_2 Ni2_2 1_555 1_555
N10_2 Ni2_2 1_555 1_555
Cl4_3 Ni2_2 1_555 1_555
Cl2_2 Ni5_5 1_555 1_555
N1_2 N2_2 1_555 1_555
N2_2 C1_2 1_555 1_555
C1_2 C2_2 1_555 1_555
C2_2 C3_2 1_555 1_555
C3_2 O1_2 1_555 1_555
O1_2 C6_2 1_555 1_555
N3_2 N4_2 1_555 1_555
N4_2 C4_2 1_555 1_555
C4_2 C5_2 1_555 1_555
C5_2 C6_2 1_555 1_555
C6_2 C9_2 1_555 1_555
N5_2 N3_2 1_555 1_555
C7_2 C4_2 1_555 1_555
C8_2 C7_2 1_555 1_555
C9_2 C8_2 1_555 1_555
O3_2 C9_2 1_555 1_555
N6_2 N1_2 1_555 1_555
C10_2 C1_2 1_555 1_555
C11_2 C10_2 1_555 1_555
C12_2 C3_2 1_555 1_555
Ni3_2 N2_2 1_555 1_555
Ni4_2 N4_2 1_555 1_555
Ni5_7 N5_2 1_555 1_555
N5_2 C7_2 1_555 1_555
O3_2 C12_2 1_555 1_555
N6_2 C10_2 1_555 1_555
N6_2 Ni6_3 1_555 1_555
C11_2 C12_2 1_555 1_555
Ni3_2 Cl3_2 1_555 1_555
Ni4_2 Cl4_4 1_555 1_555
C8_2 H1_2 1_555 1_555
C2_2 H2_2 1_555 1_555
C5_2 H3_2 1_555 1_555
C11_2 H8_2 1_555 1_555
Cl1_2 Ni1_2 1_555 1_555
O2_2 Ni1_2 1_555 1_555
N7_2 Ni1_2 1_555 1_555
N9_2 Ni1_2 1_555 1_555
Ni6_5 Cl1_2 1_555 1_555
Cl3_3 Ni1_2 1_555 1_555
Cl1_3 Ni1_3 1_555 1_555
O2_3 Ni1_3 1_555 1_555
N7_3 Ni1_3 1_555 1_555
N9_3 Ni1_3 1_555 1_555
Ni6_7 Cl1_3 1_555 1_555
Cl3_4 Ni1_3 1_555 1_555
N1_3 N2_3 1_555 1_555
N2_3 C1_3 1_555 1_555
C1_3 C2_3 1_555 1_555
C2_3 C3_3 1_555 1_555
C3_3 O1_3 1_555 1_555
O1_3 C6_3 1_555 1_555
N3_3 N4_3 1_555 1_555
N4_3 C4_3 1_555 1_555
C4_3 C5_3 1_555 1_555
C5_3 C6_3 1_555 1_555
C6_3 C9_3 1_555 1_555
N5_3 N3_3 1_555 1_555
C7_3 C4_3 1_555 1_555
C8_3 C7_3 1_555 1_555
C9_3 C8_3 1_555 1_555
O3_3 C9_3 1_555 1_555
N6_3 N1_3 1_555 1_555
C10_3 C1_3 1_555 1_555
C11_3 C10_3 1_555 1_555
C12_3 C3_3 1_555 1_555
Ni2_3 N3_3 1_555 1_555
Cl2_3 Ni2_3 1_555 1_555
O4_3 Ni2_3 1_555 1_555
N8_3 Ni2_3 1_555 1_555
N10_3 Ni2_3 1_555 1_555
Ni3_3 N2_3 1_555 1_555
Ni4_3 N4_3 1_555 1_555
Ni5_9 N5_3 1_555 1_555
Cl4_5 Ni2_3 1_555 1_555
N5_3 C7_3 1_555 1_555
O3_3 C12_3 1_555 1_555
N6_3 C10_3 1_555 1_555
N6_3 Ni6_9 1_555 1_555
C11_3 C12_3 1_555 1_555
Cl2_3 Ni5_9 1_555 1_555
Ni3_3 Cl3_5 1_555 1_555
Ni4_3 Cl4_5 1_555 1_555
C8_3 H1_3 1_555 1_555
C2_3 H2_3 1_555 1_555
C5_3 H3_3 1_555 1_555
C11_3 H8_3 1_555 1_555
N1_4 N7 1_555 1_555
N7 C1_4 1_555 1_555
C1_4 C2_4 1_555 1_555
C2_4 C3_4 1_555 1_555
C3_4 O1_4 1_555 1_555
O1_4 C6_4 1_555 1_555
Ni3 N1_4 1_555 1_555
Cl1_4 Ni3 1_555 1_555
O2_4 Ni3 1_555 1_555
N3_4 N8_2 1_555 1_555
N8_2 C4_4 1_555 1_555
C4_4 C5_4 1_555 1_555
C5_4 C6_4 1_555 1_555
C6_4 C9_4 1_555 1_555
N5_4 N3_4 1_555 1_555
C7_4 C4_4 1_555 1_555
C8_4 C7_4 1_555 1_555
C9_4 C8_4 1_555 1_555
O3_4 C9_4 1_555 1_555
N6_4 N1_4 1_555 1_555
C10_4 C1_4 1_555 1_555
C11_4 C10_4 1_555 1_555
C12_4 C3_4 1_555 1_555
N9_4 Ni3 1_555 1_555
Ni5_6 N5_4 1_555 1_555
Ni6_2 Cl1_4 1_555 1_555
N5_4 C7_4 1_555 1_555
O3_4 C12_4 1_555 1_555
N6_4 C10_4 1_555 1_555
N6_4 Ni6_2 1_555 1_555
C11_4 C12_4 1_555 1_555
C8_4 H1_4 1_555 1_555
C2_4 H2_4 1_555 1_555
C5_4 H3_4 1_555 1_555
C11_4 H8_4 1_555 1_555
Cl2_4 Ni4_2 1_555 1_555
O4_4 Ni4_2 1_555 1_555
N10_4 Ni4_2 1_555 1_555
Cl2_4 Ni5_8 1_555 1_555
Cl1_5 Ni3_2 1_555 1_555
O2_5 Ni3_2 1_555 1_555
N9_5 Ni3_2 1_555 1_555
Ni6_4 Cl1_5 1_555 1_555
N1_5 N7_2 1_555 1_555
N7_2 C1_5 1_555 1_555
C1_5 C2_5 1_555 1_555
C2_5 C3_5 1_555 1_555
C3_5 O1_5 1_555 1_555
O1_5 C6_5 1_555 1_555
N3_5 N8_3 1_555 1_555
N8_3 C4_5 1_555 1_555
C4_5 C5_5 1_555 1_555
C5_5 C6_5 1_555 1_555
C6_5 C9_5 1_555 1_555
N5_5 N3_5 1_555 1_555
C7_5 C4_5 1_555 1_555
C8_5 C7_5 1_555 1_555
C9_5 C8_5 1_555 1_555
O3_5 C9_5 1_555 1_555
N6_5 N1_5 1_555 1_555
C10_5 C1_5 1_555 1_555
C11_5 C10_5 1_555 1_555
C12_5 C3_5 1_555 1_555
Ni4_3 N3_5 1_555 1_555
Cl2_5 Ni4_3 1_555 1_555
O4_5 Ni4_3 1_555 1_555
N10_5 Ni4_3 1_555 1_555
Ni5_10 N5_5 1_555 1_555
N5_5 C7_5 1_555 1_555
O3_5 C12_5 1_555 1_555
N6_5 C10_5 1_555 1_555
N6_5 Ni6_6 1_555 1_555
C11_5 C12_5 1_555 1_555
Cl2_5 Ni5_10 1_555 1_555
C8_5 H1_5 1_555 1_555
C2_5 H2_5 1_555 1_555
C5_5 H3_5 1_555 1_555
C11_5 H8_5 1_555 1_555
Cl2_6 Ni4 1_555 1_555
O4_6 Ni4 1_555 1_555
N10_6 Ni4 1_555 1_555
Cl2_6 Ni5_2 1_555 1_555
N1_6 N7_3 1_555 1_555
N7_3 C1_6 1_555 1_555
C1_6 C2_6 1_555 1_555
C2_6 C3_6 1_555 1_555
C3_6 O1_6 1_555 1_555
O1_6 C6_6 1_555 1_555
N3_6 N8 1_555 1_555
N8 C4_6 1_555 1_555
C4_6 C5_6 1_555 1_555
C5_6 C6_6 1_555 1_555
C6_6 C9_6 1_555 1_555
N5_6 N3_6 1_555 1_555
C7_6 C4_6 1_555 1_555
C8_6 C7_6 1_555 1_555
C9_6 C8_6 1_555 1_555
O3_6 C9_6 1_555 1_555
N6_6 N1_6 1_555 1_555
C10_6 C1_6 1_555 1_555
C11_6 C10_6 1_555 1_555
C12_6 C3_6 1_555 1_555
Ni5_4 N5_6 1_555 1_555
N5_6 C7_6 1_555 1_555
O3_6 C12_6 1_555 1_555
N6_6 C10_6 1_555 1_555
N6_6 Ni6_8 1_555 1_555
C11_6 C12_6 1_555 1_555
C8_6 H1_6 1_555 1_555
C2_6 H2_6 1_555 1_555
C5_6 H3_6 1_555 1_555
C11_6 H8_6 1_555 1_555
Cl1_6 Ni3_3 1_555 1_555
O2_6 Ni3_3 1_555 1_555
N9_6 Ni3_3 1_555 1_555
Ni6_10 Cl1_6 1_555 1_555
Ni6_3 N1_7 1_555 1_555
O2_7 Ni6_3 1_555 1_555
Ni5 N3_7 1_555 1_555
O4_7 Ni5 1_555 1_555
O2_7 H4 1_555 1_555
N1_8 N9_5 1_555 1_555
N9_5 C1_7 1_555 1_555
C1_7 C2_7 1_555 1_555
C2_7 C3_7 1_555 1_555
C3_7 O1_7 1_555 1_555
O1_7 C6_7 1_555 1_555
Ni6_4 N1_8 1_555 1_555
O2_8 Ni6_4 1_555 1_555
N3_8 N10_6 1_555 1_555
N10_6 C4_7 1_555 1_555
C4_7 C5_7 1_555 1_555
C5_7 C6_7 1_555 1_555
Ni5_2 N3_8 1_555 1_555
O4_8 Ni5_2 1_555 1_555
C2_7 H2_7 1_555 1_555
C5_7 H3_7 1_555 1_555
O2_8 H5 1_555 1_555
O4_8 H7 1_555 1_555
Ni6_5 N1_9 1_555 1_555
O2_9 Ni6_5 1_555 1_555
N10 N3_9 1_555 1_555
C8_7 C7_7 1_555 1_555
C9_7 C8_7 1_555 1_555
O3_7 C9_7 1_555 1_555
N9_2 N1_9 1_555 1_555
C11_7 C10_7 1_555 1_555
Ni5_3 N3_9 1_555 1_555
O4_9 Ni5_3 1_555 1_555
N10 C7_7 1_555 1_555
O3_7 C12_7 1_555 1_555
N9_2 C10_7 1_555 1_555
C11_7 C12_7 1_555 1_555
C8_7 H1_7 1_555 1_555
C11_7 H8_7 1_555 1_555
Ni6_6 N1_10 1_555 1_555
O2_10 Ni6_6 1_555 1_555
Ni5_4 N3_10 1_555 1_555
O4_10 Ni5_4 1_555 1_555
O4_10 H6 1_555 1_555
Ni6_7 N1_11 1_555 1_555
O2_11 Ni6_7 1_555 1_555
N10_2 N3_11 1_555 1_555
C8_8 C7_8 1_555 1_555
C9_8 C8_8 1_555 1_555
O3_8 C9_8 1_555 1_555
N9_3 N1_11 1_555 1_555
C11_8 C10_8 1_555 1_555
Ni5_5 N3_11 1_555 1_555
O4_11 Ni5_5 1_555 1_555
N10_2 C7_8 1_555 1_555
O3_8 C12_8 1_555 1_555
N9_3 C10_8 1_555 1_555
C11_8 C12_8 1_555 1_555
C8_8 H1_8 1_555 1_555
C11_8 H8_8 1_555 1_555
Ni6_8 N1_12 1_555 1_555
O2_12 Ni6_8 1_555 1_555
Ni5_6 N3_12 1_555 1_555
O4_12 Ni5_6 1_555 1_555
O4_12 H6_2 1_555 1_555
Ni6_9 N1_13 1_555 1_555
O2_13 Ni6_9 1_555 1_555
Ni5_7 N3_13 1_555 1_555
O4_13 Ni5_7 1_555 1_555
O2_13 H4_2 1_555 1_555
N1_14 N9_6 1_555 1_555
N9_6 C1_8 1_555 1_555
C1_8 C2_8 1_555 1_555
C2_8 C3_8 1_555 1_555
C3_8 O1_8 1_555 1_555
O1_8 C6_8 1_555 1_555
Ni6_10 N1_14 1_555 1_555
O2_14 Ni6_10 1_555 1_555
N3_14 N10_4 1_555 1_555
N10_4 C4_8 1_555 1_555
C4_8 C5_8 1_555 1_555
C5_8 C6_8 1_555 1_555
Ni5_8 N3_14 1_555 1_555
O4_14 Ni5_8 1_555 1_555
C2_8 H2_8 1_555 1_555
C5_8 H3_8 1_555 1_555
O2_14 H5_2 1_555 1_555
O4_14 H7_2 1_555 1_555
Ni6 N1_15 1_555 1_555
O2_15 Ni6 1_555 1_555
N10_3 N3_15 1_555 1_555
C8_9 C7_9 1_555 1_555
C9_9 C8_9 1_555 1_555
O3_9 C9_9 1_555 1_555
N9 N1_15 1_555 1_555
C11_9 C10_9 1_555 1_555
Ni5_9 N3_15 1_555 1_555
O4_15 Ni5_9 1_555 1_555
N10_3 C7_9 1_555 1_555
O3_9 C12_9 1_555 1_555
N9 C10_9 1_555 1_555
C11_9 C12_9 1_555 1_555
C8_9 H1_9 1_555 1_555
C11_9 H8_9 1_555 1_555
N1_16 N9_4 1_555 1_555
N9_4 C1_9 1_555 1_555
C1_9 C2_9 1_555 1_555
C2_9 C3_9 1_555 1_555
C3_9 O1_9 1_555 1_555
O1_9 C6_9 1_555 1_555
Ni6_2 N1_16 1_555 1_555
O2_16 Ni6_2 1_555 1_555
N3_16 N10_5 1_555 1_555
N10_5 C4_9 1_555 1_555
C4_9 C5_9 1_555 1_555
C5_9 C6_9 1_555 1_555
Ni5_10 N3_16 1_555 1_555
O4_16 Ni5_10 1_555 1_555
C2_9 H2_9 1_555 1_555
C5_9 H3_9 1_555 1_555
O2_11 H5_3 1_555 1_555
O4_11 H7_3 1_555 1_555
O2_12 H4_3 1_555 1_555
O4_13 H6_3 1_555 1_555
O4_7 H6_4 1_555 1_555
O2_9 H5_4 1_555 1_555
O4_9 H7_4 1_555 1_555
O2_10 H4_4 1_555 1_555
O2_7 H6_5 1_555 1_555
O4_10 H4_5 1_555 1_555
O4_12 H4_6 1_555 1_555
O2_13 H6_6 1_555 1_555
O2_12 H6_7 1_555 1_555
O4_13 H4_7 1_555 1_555
O4_7 H4_8 1_555 1_555
O2_10 H6_8 1_555 1_555

#END
