
###############################################################################
#
# This file contains modified crystal structure data generated from the
# MOF subset of the Cambridge Structural Database (CSD) v543 
# hosted by the Cambridge Crystallographic Data Centre (CCDC).
#
# This work is licensed under the Creative Commons
# Attribution-NonCommercial-ShareAlike 4.0 International License.
# To view a copy of this license, visit
# http://creativecommons.org/licenses/by-nc-sa/4.0/
# or send a letter to
# Creative Commons, PO Box 1866, Mountain View, CA 94042, USA.
#
# CIF created using the CSD Python API on 29 September 2022
# The structure has been converted into the P1 space group
# The structure has a 3D framework
# The original CSD entry POTREX is in the tetragonal crystal system
# The framework has been calculated to contain at least 10.0% void space
# The void calculation uses a probe of radius 1.32A, grid spacing 0.4
#
###############################################################################

data_POTREX
_chemical_formula_moiety         '(C400 H336 Co16 N64 O56)n'
_symmetry_cell_setting           triclinic
_symmetry_space_group_name_H-M   'P 1'
_symmetry_Int_Tables_number      1
_space_group_name_Hall           'P 1'
loop_
_symmetry_equiv_pos_site_id
_symmetry_equiv_pos_as_xyz
1 x,y,z
_cell_length_a                   21.110(4)
_cell_length_b                   21.110(4)
_cell_length_c                   51.711(1)
_cell_angle_alpha                90
_cell_angle_beta                 90
_cell_angle_gamma                90
_cell_volume                     23044.1
loop_
_atom_site_label
_atom_site_type_symbol
_atom_site_fract_x
_atom_site_fract_y
_atom_site_fract_z
Co1 Co 0.53804(3) 0.17678(3) 0.116365(11)
O1 O 0.5000 0.2500 0.13675(7)
N3 N 0.5812(2) 0.09927(18) 0.09601(7)
O4 O 0.61839(18) 0.1817(2) 0.14095(7)
C8 C 0.6175(3) 0.0560(3) 0.10723(11)
H2 H 0.6259 0.0610 0.1248
C11 C 0.5952(3) 0.0397(3) 0.05702(11)
H4 H 0.5856 0.0355 0.0395
C15 C 0.5711(3) 0.0900(3) 0.07079(10)
H7 H 0.5462 0.1193 0.0620
C16 C 0.6435(3) 0.0047(3) 0.09526(10)
C23 C 0.6392(5) 0.2328(5) 0.1480(2)
H15 H 0.6207 0.2686 0.1407
N4 N 0.6859(7) 0.2426(7) 0.1651(3)
C24 C 0.7199(7) 0.1899(7) 0.1760(3)
H16 H 0.7532 0.2055 0.1870
H17 H 0.7379 0.1648 0.1624
H18 H 0.6914 0.1644 0.1860
C25 C 0.7045(7) 0.3026(7) 0.1777(3)
H19 H 0.7402 0.2953 0.1888
H20 H 0.6697 0.3183 0.1877
H21 H 0.7156 0.3332 0.1647
Co2 Co 0.46196(3) 0.32322(3) 0.116365(11)
N5 N 0.2964(2) 0.59307(19) 0.06909(8)
N6 N 0.13947(18) 0.7435(2) 0.10690(8)
N7 N 0.4188(2) 0.40073(18) 0.09601(7)
C28 C 0.3390(3) 0.5600(2) 0.05538(10)
O7 O 0.38161(18) 0.3183(2) 0.14095(7)
C29 C 0.3577(3) 0.5769(2) 0.03082(10)
H22 H 0.3874 0.5526 0.0220
C30 C 0.3666(3) 0.5045(2) 0.06893(10)
C31 C 0.2698(3) 0.6446(2) 0.05752(10)
C32 C 0.2242(2) 0.6798(3) 0.07424(11)
C33 C 0.3825(3) 0.4440(3) 0.10723(11)
H23 H 0.3741 0.4390 0.1248
C35 C 0.3317(3) 0.6312(2) 0.01903(10)
C36 C 0.4048(3) 0.4603(3) 0.05702(11)
H25 H 0.4144 0.4645 0.0395
C37 C 0.2870(3) 0.6643(3) 0.03337(10)
H26 H 0.2685 0.7005 0.0264
C40 C 0.4289(3) 0.4100(3) 0.07079(10)
H28 H 0.4538 0.3807 0.0620
C41 C 0.3565(3) 0.4953(3) 0.09526(10)
H29 H 0.3321 0.5239 0.1046
C44 C 0.1944(3) 0.7321(3) 0.06723(14)
H32 H 0.2022 0.7497 0.0511
C45 C 0.1515(3) 0.7609(3) 0.08382(11)
H33 H 0.1296 0.7959 0.0775
C46 C 0.2129(3) 0.6603(3) 0.09858(12)
H34 H 0.2334 0.6247 0.1050
C47 C 0.1706(3) 0.6935(3) 0.11412(14)
H35 H 0.1641 0.6788 0.1309
C48 C 0.3608(5) 0.2672(5) 0.1480(2)
H36 H 0.3793 0.2314 0.1407
N8 N 0.3141(7) 0.2574(7) 0.1651(3)
C49 C 0.2801(7) 0.3101(7) 0.1760(3)
H37 H 0.2468 0.2945 0.1870
H38 H 0.2621 0.3352 0.1624
H39 H 0.3086 0.3356 0.1860
C50 C 0.2955(7) 0.1974(7) 0.1777(3)
H40 H 0.2598 0.2047 0.1888
H41 H 0.3303 0.1817 0.1877
H42 H 0.2844 0.1668 0.1647
Co8 Co 0.07322(3) 0.78804(3) 0.133635(11)
O8 O 0.46011(16) 0.16967(14) 0.09276(6)
O9 O 0.53989(16) 0.33033(14) 0.09276(6)
O10 O 0.41880(16) 0.26604(15) 0.08805(6)
O11 O 0.58120(16) 0.23396(15) 0.08805(6)
N9 N 0.5065(2) 0.38947(18) 0.14310(8)
N10 N 0.4935(2) 0.11053(18) 0.14310(8)
O5 O 0.46011(16) 0.66967(14) 0.90724(6)
O6 O 0.41880(16) 0.76604(15) 0.91195(6)
C26 C 0.3980(2) 0.6898(2) 0.94424(9)
C27 C 0.4273(2) 0.7108(2) 0.91903(8)
C34 C 0.3757(3) 0.6083(3) 0.97491(11)
H24 H 0.3759 0.5655 0.9791
C38 C 0.3989(3) 0.6267(2) 0.95135(10)
H27 H 0.4152 0.5965 0.9401
C39 C 0.3519(3) 0.6512(2) 0.99268(10)
C42 C 0.3498(3) 0.7132(3) 0.98475(11)
H30 H 0.3327 0.7435 0.9958
C43 C 0.3721(3) 0.7318(3) 0.96109(10)
H31 H 0.3694 0.7742 0.9564
Co4 Co 0.46196(3) 0.82322(3) 0.883635(11)
Co6 Co 0.53804(3) 0.67678(3) 0.883635(11)
N1 N 0.7036(2) 0.90693(19) 0.06909(8)
N2 N 0.86053(18) 0.7565(2) 0.10690(8)
C3 C 0.6610(3) 0.9400(2) 0.05538(10)
C4 C 0.6423(3) 0.9231(2) 0.03082(10)
H1 H 0.6126 0.9474 0.0220
C5 C 0.6334(3) 0.9955(2) 0.06893(10)
C6 C 0.7302(3) 0.8554(2) 0.05752(10)
C7 C 0.7758(2) 0.8202(3) 0.07424(11)
C10 C 0.6683(3) 0.8688(2) 0.01903(10)
C12 C 0.7130(3) 0.8357(3) 0.03337(10)
H5 H 0.7315 0.7995 0.0264
H8 H 0.6679 0.9761 0.1046
C19 C 0.8056(3) 0.7679(3) 0.06723(14)
H11 H 0.7978 0.7503 0.0511
C20 C 0.8485(3) 0.7391(3) 0.08382(11)
H12 H 0.8704 0.7041 0.0775
C21 C 0.7871(3) 0.8397(3) 0.09858(12)
H13 H 0.7666 0.8753 0.1050
C22 C 0.8294(3) 0.8065(3) 0.11412(14)
H14 H 0.8359 0.8212 0.1309
Co7 Co 0.92678(3) 0.71196(3) 0.133635(11)
O2 O 0.53989(16) 0.83033(14) 0.90724(6)
O3 O 0.58120(16) 0.73396(15) 0.91195(6)
C1 C 0.6020(2) 0.8102(2) 0.94424(9)
C2 C 0.5727(2) 0.7892(2) 0.91903(8)
C9 C 0.6243(3) 0.8917(3) 0.97491(11)
H3 H 0.6241 0.9345 0.9791
C13 C 0.6011(3) 0.8733(2) 0.95135(10)
H6 H 0.5848 0.9035 0.9401
C14 C 0.6481(3) 0.8488(2) 0.99268(10)
C17 C 0.6502(3) 0.7868(3) 0.98475(11)
H9 H 0.6673 0.7565 0.9958
C18 C 0.6279(3) 0.7682(3) 0.96109(10)
H10 H 0.6306 0.7258 0.9564
C20_2 C 0.0109(3) 0.0985(3) 0.33382(11)
H12_2 H 0.0459 0.1204 0.3275
Co7_2 Co 0.03804(3) 0.17678(3) 0.383635(11)
O3_2 O 0.01604(15) 0.83120(16) 0.16195(6)
H10_2 H 0.0242 0.8806 0.2064
N2_2 N 0.9935(2) 0.11053(18) 0.35690(8)
C7_2 C 0.9298(3) 0.0258(2) 0.32424(11)
C19_2 C 0.9821(3) 0.0556(3) 0.31723(14)
H11_2 H 0.9997 0.0478 0.3011
C21_2 C 0.9103(3) 0.0371(3) 0.34858(12)
H13_2 H 0.8747 0.0166 0.3550
C22_2 C 0.9435(3) 0.0794(3) 0.36412(14)
H14_2 H 0.9288 0.0859 0.3809
H16_2 H 0.5445 0.0032 0.4370
Co1_2 Co 0.57322(3) 0.78804(3) 0.366365(11)
O1_2 O 0.5000 0.7500 0.38675(7)
O2_2 O 0.91967(14) 0.78989(16) 0.15724(6)
N1_2 N 0.84307(19) 0.9536(2) 0.31909(8)
C1_2 C 0.9398(2) 0.8520(2) 0.19424(9)
C2_2 C 0.9608(2) 0.8227(2) 0.16903(8)
N3_2 N 0.65073(18) 0.8312(2) 0.34601(7)
C3_2 C 0.8100(2) 0.9110(3) 0.30538(10)
O4_2 O 0.5683(2) 0.86839(18) 0.39095(7)
C4_2 C 0.8269(2) 0.8923(3) 0.28082(10)
H1_2 H 0.8026 0.8626 0.2720
C5_2 C 0.7545(2) 0.8834(3) 0.31893(10)
C6_2 C 0.8946(2) 0.9802(3) 0.30752(10)
C8_2 C 0.6940(3) 0.8675(3) 0.35723(11)
H2_2 H 0.6890 0.8759 0.3748
C9_2 C 0.8583(3) 0.8743(3) 0.22491(11)
H3_2 H 0.8155 0.8741 0.2291
C10_2 C 0.8812(2) 0.9183(3) 0.26903(10)
C11_2 C 0.7103(3) 0.8452(3) 0.30702(11)
H4_2 H 0.7145 0.8356 0.2895
C12_2 C 0.9143(3) 0.9630(3) 0.28337(10)
H5_2 H 0.9505 0.9815 0.2764
C13_2 C 0.8767(2) 0.8511(3) 0.20135(10)
H6_2 H 0.8465 0.8348 0.1901
C14_2 C 0.9012(2) 0.8981(3) 0.24268(10)
C15_2 C 0.6600(3) 0.8211(3) 0.32079(10)
H7_2 H 0.6307 0.7962 0.3120
C16_2 C 0.7453(3) 0.8935(3) 0.34526(10)
H8_2 H 0.7739 0.9179 0.3546
C17_2 C 0.9632(3) 0.9002(3) 0.23475(11)
H9_2 H 0.9935 0.9173 0.2458
C18_2 C 0.9818(3) 0.8779(3) 0.21109(10)
C23_2 C 0.5172(5) 0.8892(5) 0.3980(2)
H15_2 H 0.4814 0.8707 0.3907
N4_2 N 0.5074(7) 0.9359(7) 0.4151(3)
C24_2 C 0.5601(7) 0.9699(7) 0.4260(3)
H17_2 H 0.5852 0.9879 0.4124
H18_2 H 0.5856 0.9414 0.4360
C25_2 C 0.4474(7) 0.9545(7) 0.4277(3)
H19_2 H 0.4547 0.9902 0.4388
H20_2 H 0.4317 0.9197 0.4377
H21_2 H 0.4168 0.9656 0.4147
Co2_2 Co 0.42678(3) 0.71196(3) 0.366365(11)
O5_2 O 0.08033(14) 0.71011(16) 0.15724(6)
N5_2 N 0.15693(19) 0.5464(2) 0.31909(8)
N6_2 N 0.0065(2) 0.38947(18) 0.35690(8)
C26_2 C 0.0602(2) 0.6480(2) 0.19424(9)
C27_2 C 0.0392(2) 0.6773(2) 0.16903(8)
N7_2 N 0.34927(18) 0.6688(2) 0.34601(7)
C28_2 C 0.1900(2) 0.5890(3) 0.30538(10)
O7_2 O 0.4317(2) 0.63161(18) 0.39095(7)
C29_2 C 0.1731(2) 0.6077(3) 0.28082(10)
H22_2 H 0.1974 0.6374 0.2720
C30_2 C 0.2455(2) 0.6166(3) 0.31893(10)
C31_2 C 0.1054(2) 0.5198(3) 0.30752(10)
C32_2 C 0.0702(3) 0.4742(2) 0.32424(11)
C33_2 C 0.3060(3) 0.6325(3) 0.35723(11)
H23_2 H 0.3110 0.6241 0.3748
C34_2 C 0.1417(3) 0.6257(3) 0.22491(11)
H24_2 H 0.1845 0.6259 0.2291
C35_2 C 0.1188(2) 0.5817(3) 0.26903(10)
C36_2 C 0.2897(3) 0.6548(3) 0.30702(11)
H25_2 H 0.2855 0.6644 0.2895
C37_2 C 0.0857(3) 0.5370(3) 0.28337(10)
H26_2 H 0.0495 0.5185 0.2764
C38_2 C 0.1233(2) 0.6489(3) 0.20135(10)
H27_2 H 0.1535 0.6652 0.1901
C39_2 C 0.0988(2) 0.6019(3) 0.24268(10)
C40_2 C 0.3400(3) 0.6789(3) 0.32079(10)
H28_2 H 0.3693 0.7038 0.3120
C41_2 C 0.2547(3) 0.6065(3) 0.34526(10)
H29_2 H 0.2261 0.5821 0.3546
C42_2 C 0.0368(3) 0.5998(3) 0.23475(11)
H30_2 H 0.0065 0.5827 0.2458
C43_2 C 0.0182(3) 0.6221(3) 0.21109(10)
C44_2 C 0.0179(3) 0.4444(3) 0.31723(14)
H32_2 H 0.0003 0.4522 0.3011
C46_2 C 0.0897(3) 0.4629(3) 0.34858(12)
H34_2 H 0.1253 0.4834 0.3550
C47_2 C 0.0565(3) 0.4206(3) 0.36412(14)
H35_2 H 0.0712 0.4141 0.3809
C48_2 C 0.4828(5) 0.6108(5) 0.3980(2)
H36_2 H 0.5186 0.6293 0.3907
N8_2 N 0.4926(7) 0.5641(7) 0.4151(3)
C49_2 C 0.4399(7) 0.5301(7) 0.4260(3)
H37_2 H 0.4555 0.4968 0.4370
H38_2 H 0.4148 0.5121 0.4124
H39_2 H 0.4144 0.5586 0.4360
C50_2 C 0.5526(7) 0.5455(7) 0.4277(3)
H40_2 H 0.5453 0.5098 0.4388
H41_2 H 0.5683 0.5803 0.4377
H42_2 H 0.5832 0.5344 0.4147
O8_2 O 0.58033(14) 0.71011(16) 0.34276(6)
O9_2 O 0.41967(14) 0.78989(16) 0.34276(6)
O10_2 O 0.48396(15) 0.66880(16) 0.33805(6)
O11_2 O 0.51604(15) 0.83120(16) 0.33805(6)
N9_2 N 0.36053(18) 0.7565(2) 0.39310(8)
N10_2 N 0.63947(18) 0.7435(2) 0.39310(8)
O6_2 O 0.98396(15) 0.66880(16) 0.16195(6)
H31_2 H 0.9758 0.6194 0.2064
C45_2 C 0.9891(3) 0.4015(3) 0.33382(11)
H33_2 H 0.9541 0.3796 0.3275
Co8_2 Co 0.96196(3) 0.32322(3) 0.383635(11)
Co1_3 Co 0.03804(3) 0.67678(3) 0.616365(11)
O1_3 O -0.0000 0.7500 0.63675(7)
O2_3 O 0.03989(16) 0.33033(14) 0.40724(6)
O3_3 O 0.08120(16) 0.23396(15) 0.41195(6)
N1_3 N 0.2036(2) 0.40693(19) 0.56909(8)
N2_3 N 0.36053(18) 0.2565(2) 0.60690(8)
C1_3 C 0.1020(2) 0.3102(2) 0.44424(9)
C2_3 C 0.0727(2) 0.2892(2) 0.41903(8)
N3_3 N 0.0812(2) 0.59927(18) 0.59601(7)
C3_3 C 0.1610(3) 0.4400(2) 0.55538(10)
O4_3 O 0.11839(18) 0.6817(2) 0.64095(7)
C4_3 C 0.1423(3) 0.4231(2) 0.53082(10)
H1_3 H 0.1126 0.4474 0.5220
C5_3 C 0.1334(3) 0.4955(2) 0.56893(10)
C6_3 C 0.2302(3) 0.3554(2) 0.55752(10)
C7_3 C 0.2758(2) 0.3202(3) 0.57424(11)
C8_3 C 0.1175(3) 0.5560(3) 0.60723(11)
H2_3 H 0.1259 0.5610 0.6248
C9_3 C 0.1243(3) 0.3917(3) 0.47491(11)
H3_3 H 0.1241 0.4345 0.4791
C10_3 C 0.1683(3) 0.3688(2) 0.51903(10)
C11_3 C 0.0952(3) 0.5397(3) 0.55702(11)
H4_3 H 0.0856 0.5355 0.5395
C12_3 C 0.2130(3) 0.3357(3) 0.53337(10)
H5_3 H 0.2315 0.2995 0.5264
C13_3 C 0.1011(3) 0.3733(2) 0.45135(10)
H6_3 H 0.0848 0.4035 0.4401
C14_3 C 0.1481(3) 0.3488(2) 0.49268(10)
C15_3 C 0.0711(3) 0.5900(3) 0.57079(10)
H7_3 H 0.0462 0.6193 0.5620
C16_3 C 0.1435(3) 0.5047(3) 0.59526(10)
H8_3 H 0.1679 0.4761 0.6046
C17_3 C 0.1502(3) 0.2868(3) 0.48475(11)
H9_3 H 0.1673 0.2565 0.4958
C18_3 C 0.1279(3) 0.2682(3) 0.46109(10)
H10_3 H 0.1306 0.2258 0.4564
C19_3 C 0.3056(3) 0.2679(3) 0.56723(14)
H11_3 H 0.2978 0.2503 0.5511
C20_3 C 0.3485(3) 0.2391(3) 0.58382(11)
H12_3 H 0.3704 0.2041 0.5775
C21_3 C 0.2871(3) 0.3397(3) 0.59858(12)
H13_3 H 0.2666 0.3753 0.6050
C22_3 C 0.3294(3) 0.3065(3) 0.61412(14)
H14_3 H 0.3359 0.3212 0.6309
C23_3 C 0.1392(5) 0.7328(5) 0.6480(2)
H15_3 H 0.1207 0.7686 0.6407
N4_3 N 0.1859(7) 0.7426(7) 0.6651(3)
C24_3 C 0.2199(7) 0.6899(7) 0.6760(3)
H16_3 H 0.2532 0.7055 0.6870
H17_3 H 0.2379 0.6648 0.6624
H18_3 H 0.1914 0.6644 0.6860
C25_3 C 0.2045(7) 0.8026(7) 0.6777(3)
H19_3 H 0.2402 0.7953 0.6888
H20_3 H 0.1697 0.8183 0.6877
H21_3 H 0.2156 0.8332 0.6647
Co7_3 Co 0.42678(3) 0.21196(3) 0.633635(11)
O9_3 O 0.03989(16) 0.83033(14) 0.59276(6)
O11_3 O 0.08120(16) 0.73396(15) 0.58805(6)
N9_3 N 0.0065(2) 0.88947(18) 0.64310(8)
O5_3 O 0.96011(16) 0.16967(14) 0.40724(6)
O6_3 O 0.91880(16) 0.26604(15) 0.41195(6)
N5_3 N 0.7964(2) 0.09307(19) 0.56909(8)
N6_3 N 0.63947(18) 0.2435(2) 0.60690(8)
C26_3 C 0.8980(2) 0.1898(2) 0.44424(9)
C27_3 C 0.9273(2) 0.2108(2) 0.41903(8)
C28_3 C 0.8390(3) 0.0600(2) 0.55538(10)
C29_3 C 0.8577(3) 0.0769(2) 0.53082(10)
H22_3 H 0.8874 0.0526 0.5220
C30_3 C 0.8666(3) 0.0045(2) 0.56893(10)
C31_3 C 0.7698(3) 0.1446(2) 0.55752(10)
C32_3 C 0.7242(2) 0.1798(3) 0.57424(11)
C34_3 C 0.8757(3) 0.1083(3) 0.47491(11)
H24_3 H 0.8759 0.0655 0.4791
C35_3 C 0.8317(3) 0.1312(2) 0.51903(10)
C37_3 C 0.7870(3) 0.1643(3) 0.53337(10)
H26_3 H 0.7685 0.2005 0.5264
C38_3 C 0.8989(3) 0.1267(2) 0.45135(10)
H27_3 H 0.9152 0.0965 0.4401
C39_3 C 0.8519(3) 0.1512(2) 0.49268(10)
H29_3 H 0.8321 0.0239 0.6046
C42_3 C 0.8498(3) 0.2132(3) 0.48475(11)
H30_3 H 0.8327 0.2435 0.4958
C43_3 C 0.8721(3) 0.2318(3) 0.46109(10)
H31_3 H 0.8694 0.2742 0.4564
C44_3 C 0.6944(3) 0.2321(3) 0.56723(14)
H32_3 H 0.7022 0.2497 0.5511
C45_3 C 0.6515(3) 0.2609(3) 0.58382(11)
H33_3 H 0.6296 0.2959 0.5775
C46_3 C 0.7129(3) 0.1603(3) 0.59858(12)
H34_3 H 0.7334 0.1247 0.6050
C47_3 C 0.6706(3) 0.1935(3) 0.61412(14)
H35_3 H 0.6641 0.1788 0.6309
Co8_3 Co 0.57322(3) 0.28804(3) 0.633635(11)
O1_4 O 1.0000 0.7500 0.63675(7)
Co2_3 Co 0.96196(3) 0.82322(3) 0.616365(11)
N7_3 N 0.9188(2) 0.90073(18) 0.59601(7)
O7_3 O 0.88161(18) 0.8183(2) 0.64095(7)
C33_3 C 0.8825(3) 0.9440(3) 0.60723(11)
H23_3 H 0.8741 0.9390 0.6248
C36_3 C 0.9048(3) 0.9603(3) 0.55702(11)
H25_3 H 0.9144 0.9645 0.5395
C40_3 C 0.9289(3) 0.9100(3) 0.57079(10)
H28_3 H 0.9538 0.8807 0.5620
C41_3 C 0.8565(3) 0.9953(3) 0.59526(10)
C48_3 C 0.8608(5) 0.7672(5) 0.6480(2)
H36_3 H 0.8793 0.7314 0.6407
N8_3 N 0.8141(7) 0.7574(7) 0.6651(3)
C49_3 C 0.7801(7) 0.8101(7) 0.6760(3)
H37_3 H 0.7468 0.7945 0.6870
H38_3 H 0.7621 0.8352 0.6624
H39_3 H 0.8086 0.8356 0.6860
C50_3 C 0.7955(7) 0.6974(7) 0.6777(3)
H40_3 H 0.7598 0.7047 0.6888
H41_3 H 0.8303 0.6817 0.6877
H42_3 H 0.7844 0.6668 0.6647
O8_3 O 0.96011(16) 0.66967(14) 0.59276(6)
O10_3 O 0.91880(16) 0.76604(15) 0.58805(6)
N10_3 N 0.9935(2) 0.61053(18) 0.64310(8)
Co1_4 Co 0.07322(3) 0.28804(3) 0.866365(11)
O1_5 O 0.0000 0.2500 0.88675(7)
O2_4 O 0.41967(14) 0.28989(16) 0.65724(6)
O3_4 O 0.51604(15) 0.33120(16) 0.66195(6)
N1_4 N 0.34307(19) 0.4536(2) 0.81909(8)
N2_4 N 0.4935(2) 0.61053(18) 0.85690(8)
C1_4 C 0.4398(2) 0.3520(2) 0.69424(9)
C2_4 C 0.4608(2) 0.3227(2) 0.66903(8)
N3_4 N 0.15073(18) 0.3312(2) 0.84601(7)
C3_4 C 0.3100(2) 0.4110(3) 0.80538(10)
O4_4 O 0.0683(2) 0.36839(18) 0.89095(7)
C4_4 C 0.3269(2) 0.3923(3) 0.78082(10)
H1_4 H 0.3026 0.3626 0.7720
C5_4 C 0.2545(2) 0.3834(3) 0.81893(10)
C6_4 C 0.3946(2) 0.4802(3) 0.80752(10)
C7_4 C 0.4298(3) 0.5258(2) 0.82424(11)
C8_4 C 0.1940(3) 0.3675(3) 0.85723(11)
H2_4 H 0.1890 0.3759 0.8748
C9_4 C 0.3583(3) 0.3743(3) 0.72491(11)
H3_4 H 0.3155 0.3741 0.7291
C10_4 C 0.3812(2) 0.4183(3) 0.76903(10)
C11_4 C 0.2103(3) 0.3452(3) 0.80702(11)
H4_4 H 0.2145 0.3356 0.7895
C12_4 C 0.4143(3) 0.4630(3) 0.78337(10)
H5_4 H 0.4505 0.4815 0.7764
C13_4 C 0.3767(2) 0.3511(3) 0.70135(10)
H6_4 H 0.3465 0.3348 0.6901
C14_4 C 0.4012(2) 0.3981(3) 0.74268(10)
C15_4 C 0.1600(3) 0.3211(3) 0.82079(10)
H7_4 H 0.1307 0.2962 0.8120
C16_4 C 0.2453(3) 0.3935(3) 0.84526(10)
H8_4 H 0.2739 0.4179 0.8546
C17_4 C 0.4632(3) 0.4002(3) 0.73475(11)
H9_4 H 0.4935 0.4173 0.7458
C18_4 C 0.4818(3) 0.3779(3) 0.71109(10)
H10_4 H 0.5242 0.3806 0.7064
C19_4 C 0.4821(3) 0.5556(3) 0.81723(14)
H11_4 H 0.4997 0.5478 0.8011
C20_4 C 0.5109(3) 0.5985(3) 0.83382(11)
H12_4 H 0.5459 0.6204 0.8275
C21_4 C 0.4103(3) 0.5371(3) 0.84858(12)
H13_4 H 0.3747 0.5166 0.8550
C22_4 C 0.4435(3) 0.5794(3) 0.86412(14)
H14_4 H 0.4288 0.5859 0.8809
C23_4 C 0.0172(5) 0.3892(5) 0.8980(2)
N4_4 N 0.0074(7) 0.4359(7) 0.9151(3)
C24_4 C 0.0601(7) 0.4699(7) 0.9260(3)
H16_4 H 0.0445 0.5032 0.9370
H17_4 H 0.0852 0.4879 0.9124
H18_4 H 0.0856 0.4414 0.9360
H36_4 H 0.0186 0.1293 0.8907
C50_4 C 0.0526(7) 0.0455(7) 0.9277(3)
H40_4 H 0.0453 0.0098 0.9388
H41_4 H 0.0683 0.0803 0.9377
H42_4 H 0.0832 0.0344 0.9147
O8_4 O 0.08033(14) 0.21011(16) 0.84276(6)
O11_4 O 0.01604(15) 0.33120(16) 0.83805(6)
N10_4 N 0.13947(18) 0.2435(2) 0.89310(8)
O1_6 O 1.0000 0.2500 0.88675(7)
H15_4 H 0.9814 0.3707 0.8907
C25_4 C 0.9474(7) 0.4545(7) 0.9277(3)
H19_4 H 0.9547 0.4902 0.9388
H20_4 H 0.9317 0.4197 0.9377
H21_4 H 0.9168 0.4656 0.9147
Co2_4 Co 0.92678(3) 0.21196(3) 0.866365(11)
O5_4 O 0.58033(14) 0.21011(16) 0.65724(6)
O6_4 O 0.48396(15) 0.16880(16) 0.66195(6)
N5_4 N 0.65693(19) 0.0464(2) 0.81909(8)
C26_4 C 0.5602(2) 0.1480(2) 0.69424(9)
C27_4 C 0.5392(2) 0.1773(2) 0.66903(8)
N7_4 N 0.84927(18) 0.1688(2) 0.84601(7)
C28_4 C 0.6900(2) 0.0890(3) 0.80538(10)
O7_4 O 0.9317(2) 0.13161(18) 0.89095(7)
C29_4 C 0.6731(2) 0.1077(3) 0.78082(10)
H22_4 H 0.6974 0.1374 0.7720
C30_4 C 0.7455(2) 0.1166(3) 0.81893(10)
C31_4 C 0.6054(2) 0.0198(3) 0.80752(10)
C33_4 C 0.8060(3) 0.1325(3) 0.85723(11)
H23_4 H 0.8110 0.1241 0.8748
C34_4 C 0.6417(3) 0.1257(3) 0.72491(11)
H24_4 H 0.6845 0.1259 0.7291
C35_4 C 0.6188(2) 0.0817(3) 0.76903(10)
C36_4 C 0.7897(3) 0.1548(3) 0.80702(11)
H25_4 H 0.7855 0.1644 0.7895
C37_4 C 0.5857(3) 0.0370(3) 0.78337(10)
H26_4 H 0.5495 0.0185 0.7764
C38_4 C 0.6233(2) 0.1489(3) 0.70135(10)
H27_4 H 0.6535 0.1652 0.6901
C39_4 C 0.5988(2) 0.1019(3) 0.74268(10)
C40_4 C 0.8400(3) 0.1789(3) 0.82079(10)
H28_4 H 0.8693 0.2038 0.8120
C41_4 C 0.7547(3) 0.1065(3) 0.84526(10)
H29_4 H 0.7261 0.0821 0.8546
C42_4 C 0.5368(3) 0.0998(3) 0.73475(11)
H30_4 H 0.5065 0.0827 0.7458
C43_4 C 0.5182(3) 0.1221(3) 0.71109(10)
H31_4 H 0.4758 0.1194 0.7064
C48_4 C 0.9828(5) 0.1108(5) 0.8980(2)
N8_4 N 0.9926(7) 0.0641(7) 0.9151(3)
C49_4 C 0.9399(7) 0.0301(7) 0.9260(3)
H38_4 H 0.9148 0.0121 0.9124
H39_4 H 0.9144 0.0586 0.9360
O9_4 O 0.91967(14) 0.28989(16) 0.84276(6)
O10_4 O 0.98396(15) 0.16880(16) 0.83805(6)
N9_4 N 0.86053(18) 0.2565(2) 0.89310(8)
N6_4 N 0.5065(2) 0.88947(18) 0.85690(8)
C32_4 C 0.5702(3) 0.9742(2) 0.82424(11)
C44_4 C 0.5179(3) 0.9444(3) 0.81723(14)
H32_4 H 0.5003 0.9522 0.8011
C45_4 C 0.4891(3) 0.9015(3) 0.83382(11)
H33_4 H 0.4541 0.8796 0.8275
C46_4 C 0.5897(3) 0.9629(3) 0.84858(12)
H34_4 H 0.6253 0.9834 0.8550
C47_4 C 0.5565(3) 0.9206(3) 0.86412(14)
H35_4 H 0.5712 0.9141 0.8809
H37_4 H 0.9555 0.9968 0.9370
C1_5 C 0.3980(2) 0.1898(2) 0.05576(9)
C2_5 C 0.4273(2) 0.2108(2) 0.08097(8)
C9_5 C 0.3757(3) 0.1083(3) 0.02509(11)
H3_5 H 0.3759 0.0655 0.0209
C13_5 C 0.3989(3) 0.1267(2) 0.04865(10)
H6_5 H 0.4152 0.0965 0.0599
C14_5 C 0.3519(3) 0.1512(2) 0.00732(10)
C17_5 C 0.3498(3) 0.2132(3) 0.01525(11)
H9_5 H 0.3327 0.2435 0.0042
C18_5 C 0.3721(3) 0.2318(3) 0.03891(10)
H10_5 H 0.3694 0.2742 0.0436
N1_5 N 0.2964(2) 0.09307(19) 0.93091(8)
C3_5 C 0.3390(3) 0.0600(2) 0.94462(10)
C4_5 C 0.3577(3) 0.0769(2) 0.96918(10)
H1_5 H 0.3874 0.0526 0.9780
C5_5 C 0.3666(3) 0.0045(2) 0.93107(10)
C6_5 C 0.2698(3) 0.1446(2) 0.94248(10)
C7_5 C 0.2242(2) 0.1798(3) 0.92576(11)
C10_5 C 0.3317(3) 0.1312(2) 0.98097(10)
C12_5 C 0.2870(3) 0.1643(3) 0.96663(10)
H5_5 H 0.2685 0.2005 0.9736
H8_5 H 0.3321 0.0239 0.8954
C19_5 C 0.1944(3) 0.2321(3) 0.93277(14)
H11_5 H 0.2022 0.2497 0.9489
C20_5 C 0.1515(3) 0.2609(3) 0.91618(11)
H12_5 H 0.1296 0.2959 0.9225
C21_5 C 0.2129(3) 0.1603(3) 0.90142(12)
H13_5 H 0.2334 0.1247 0.8950
C22_5 C 0.1706(3) 0.1935(3) 0.88588(14)
H14_5 H 0.1641 0.1788 0.8691
C26_5 C 0.6020(2) 0.3102(2) 0.05576(9)
C27_5 C 0.5727(2) 0.2892(2) 0.08097(8)
C34_5 C 0.6243(3) 0.3917(3) 0.02509(11)
H24_5 H 0.6241 0.4345 0.0209
C38_5 C 0.6011(3) 0.3733(2) 0.04865(10)
H27_5 H 0.5848 0.4035 0.0599
C39_5 C 0.6481(3) 0.3488(2) 0.00732(10)
C42_5 C 0.6502(3) 0.2868(3) 0.01525(11)
H30_5 H 0.6673 0.2565 0.0042
C43_5 C 0.6279(3) 0.2682(3) 0.03891(10)
H31_5 H 0.6306 0.2258 0.0436
O1_7 O 0.5000 0.7500 0.86325(7)
N3_5 N 0.4188(2) 0.90073(18) 0.90399(7)
O4_5 O 0.38161(18) 0.8183(2) 0.85905(7)
C8_5 C 0.3825(3) 0.9440(3) 0.89277(11)
H2_5 H 0.3741 0.9390 0.8752
C11_5 C 0.4048(3) 0.9603(3) 0.94298(11)
H4_5 H 0.4144 0.9645 0.9605
C15_5 C 0.4289(3) 0.9100(3) 0.92921(10)
H7_5 H 0.4538 0.8807 0.9380
C16_5 C 0.3565(3) 0.9953(3) 0.90474(10)
C23_5 C 0.3608(5) 0.7672(5) 0.8520(2)
H15_5 H 0.3793 0.7314 0.8593
N4_5 N 0.3141(7) 0.7574(7) 0.8349(3)
C24_5 C 0.2801(7) 0.8101(7) 0.8240(3)
H16_5 H 0.2468 0.7945 0.8130
H17_5 H 0.2621 0.8352 0.8376
H18_5 H 0.3086 0.8356 0.8140
C25_5 C 0.2955(7) 0.6974(7) 0.8223(3)
H19_5 H 0.2598 0.7047 0.8112
H20_5 H 0.3303 0.6817 0.8123
H21_5 H 0.2844 0.6668 0.8353
N5_5 N 0.7036(2) 0.40693(19) 0.93091(8)
N7_5 N 0.5812(2) 0.59927(18) 0.90399(7)
C28_5 C 0.6610(3) 0.4400(2) 0.94462(10)
O7_5 O 0.61839(18) 0.6817(2) 0.85905(7)
C29_5 C 0.6423(3) 0.4231(2) 0.96918(10)
H22_5 H 0.6126 0.4474 0.9780
C30_5 C 0.6334(3) 0.4955(2) 0.93107(10)
C31_5 C 0.7302(3) 0.3554(2) 0.94248(10)
C32_5 C 0.7758(2) 0.3202(3) 0.92576(11)
C33_5 C 0.6175(3) 0.5560(3) 0.89277(11)
H23_5 H 0.6259 0.5610 0.8752
C35_5 C 0.6683(3) 0.3688(2) 0.98097(10)
C36_5 C 0.5952(3) 0.5397(3) 0.94298(11)
H25_5 H 0.5856 0.5355 0.9605
C37_5 C 0.7130(3) 0.3357(3) 0.96663(10)
H26_5 H 0.7315 0.2995 0.9736
C40_5 C 0.5711(3) 0.5900(3) 0.92921(10)
H28_5 H 0.5462 0.6193 0.9380
C41_5 C 0.6435(3) 0.5047(3) 0.90474(10)
H29_5 H 0.6679 0.4761 0.8954
C44_5 C 0.8056(3) 0.2679(3) 0.93277(14)
H32_5 H 0.7978 0.2503 0.9489
C45_5 C 0.8485(3) 0.2391(3) 0.91618(11)
H33_5 H 0.8704 0.2041 0.9225
C46_5 C 0.7871(3) 0.3397(3) 0.90142(12)
H34_5 H 0.7666 0.3753 0.8950
C47_5 C 0.8294(3) 0.3065(3) 0.88588(14)
H35_5 H 0.8359 0.3212 0.8691
C48_5 C 0.6392(5) 0.7328(5) 0.8520(2)
H36_5 H 0.6207 0.7686 0.8593
N8_5 N 0.6859(7) 0.7426(7) 0.8349(3)
C49_5 C 0.7199(7) 0.6899(7) 0.8240(3)
H37_5 H 0.7532 0.7055 0.8130
H38_5 H 0.7379 0.6648 0.8376
H39_5 H 0.6914 0.6644 0.8140
C50_5 C 0.7045(7) 0.8026(7) 0.8223(3)
H40_5 H 0.7402 0.7953 0.8112
H41_5 H 0.6697 0.8183 0.8123
H42_5 H 0.7156 0.8332 0.8353
H31_6 H 0.0242 0.3806 0.7936
C45_6 C 0.0109(3) 0.5985(3) 0.66618(11)
H33_6 H 0.0459 0.6204 0.6725
O1_8 O 0.5000 0.2500 0.61325(7)
N1_6 N 0.15693(19) 0.0464(2) 0.68091(8)
C1_6 C 0.0602(2) 0.1480(2) 0.80576(9)
C2_6 C 0.0392(2) 0.1773(2) 0.83097(8)
N3_6 N 0.34927(18) 0.1688(2) 0.65399(7)
C3_6 C 0.1900(2) 0.0890(3) 0.69462(10)
O4_6 O 0.4317(2) 0.13161(18) 0.60905(7)
C4_6 C 0.1731(2) 0.1077(3) 0.71918(10)
H1_6 H 0.1974 0.1374 0.7280
C5_6 C 0.2455(2) 0.1166(3) 0.68107(10)
C6_6 C 0.1054(2) 0.0198(3) 0.69248(10)
C8_6 C 0.3060(3) 0.1325(3) 0.64277(11)
H2_6 H 0.3110 0.1241 0.6252
C9_6 C 0.1417(3) 0.1257(3) 0.77509(11)
H3_6 H 0.1845 0.1259 0.7709
C10_6 C 0.1188(2) 0.0817(3) 0.73097(10)
C11_6 C 0.2897(3) 0.1548(3) 0.69298(11)
H4_6 H 0.2855 0.1644 0.7105
C12_6 C 0.0857(3) 0.0370(3) 0.71663(10)
H5_6 H 0.0495 0.0185 0.7236
C13_6 C 0.1233(2) 0.1489(3) 0.79865(10)
H6_6 H 0.1535 0.1652 0.8099
C14_6 C 0.0988(2) 0.1019(3) 0.75732(10)
C15_6 C 0.3400(3) 0.1789(3) 0.67921(10)
H7_6 H 0.3693 0.2038 0.6880
C16_6 C 0.2547(3) 0.1065(3) 0.65474(10)
H8_6 H 0.2261 0.0821 0.6454
C17_6 C 0.0368(3) 0.0998(3) 0.76525(11)
H9_6 H 0.0065 0.0827 0.7542
C18_6 C 0.0182(3) 0.1221(3) 0.78891(10)
C23_6 C 0.4828(5) 0.1108(5) 0.6020(2)
H15_6 H 0.5186 0.1293 0.6093
N4_6 N 0.4926(7) 0.0641(7) 0.5849(3)
C24_6 C 0.4399(7) 0.0301(7) 0.5740(3)
H17_6 H 0.4148 0.0121 0.5876
H18_6 H 0.4144 0.0586 0.5640
C25_6 C 0.5526(7) 0.0455(7) 0.5723(3)
H19_6 H 0.5453 0.0098 0.5612
H20_6 H 0.5683 0.0803 0.5623
H21_6 H 0.5832 0.0344 0.5853
N5_6 N 0.84307(19) 0.4536(2) 0.68091(8)
C26_6 C 0.9398(2) 0.3520(2) 0.80576(9)
C27_6 C 0.9608(2) 0.3227(2) 0.83097(8)
N7_6 N 0.65073(18) 0.3312(2) 0.65399(7)
C28_6 C 0.8100(2) 0.4110(3) 0.69462(10)
O7_6 O 0.5683(2) 0.36839(18) 0.60905(7)
C29_6 C 0.8269(2) 0.3923(3) 0.71918(10)
H22_6 H 0.8026 0.3626 0.7280
C30_6 C 0.7545(2) 0.3834(3) 0.68107(10)
C31_6 C 0.8946(2) 0.4802(3) 0.69248(10)
C32_6 C 0.9298(3) 0.5258(2) 0.67576(11)
C33_6 C 0.6940(3) 0.3675(3) 0.64277(11)
H23_6 H 0.6890 0.3759 0.6252
C34_6 C 0.8583(3) 0.3743(3) 0.77509(11)
H24_6 H 0.8155 0.3741 0.7709
C35_6 C 0.8812(2) 0.4183(3) 0.73097(10)
C36_6 C 0.7103(3) 0.3452(3) 0.69298(11)
H25_6 H 0.7145 0.3356 0.7105
C37_6 C 0.9143(3) 0.4630(3) 0.71663(10)
H26_6 H 0.9505 0.4815 0.7236
C38_6 C 0.8767(2) 0.3511(3) 0.79865(10)
H27_6 H 0.8465 0.3348 0.8099
C39_6 C 0.9012(2) 0.3981(3) 0.75732(10)
C40_6 C 0.6600(3) 0.3211(3) 0.67921(10)
H28_6 H 0.6307 0.2962 0.6880
C41_6 C 0.7453(3) 0.3935(3) 0.65474(10)
H29_6 H 0.7739 0.4179 0.6454
C42_6 C 0.9632(3) 0.4002(3) 0.76525(11)
H30_6 H 0.9935 0.4173 0.7542
C43_6 C 0.9818(3) 0.3779(3) 0.78891(10)
C44_6 C 0.9821(3) 0.5556(3) 0.68277(14)
H32_6 H 0.9997 0.5478 0.6989
C46_6 C 0.9103(3) 0.5371(3) 0.65142(12)
H34_6 H 0.8747 0.5166 0.6450
C47_6 C 0.9435(3) 0.5794(3) 0.63588(14)
H35_6 H 0.9288 0.5859 0.6191
C48_6 C 0.5172(5) 0.3892(5) 0.6020(2)
H36_6 H 0.4814 0.3707 0.6093
N8_6 N 0.5074(7) 0.4359(7) 0.5849(3)
C49_6 C 0.5601(7) 0.4699(7) 0.5740(3)
H37_6 H 0.5445 0.5032 0.5630
H38_6 H 0.5852 0.4879 0.5876
H39_6 H 0.5856 0.4414 0.5640
C50_6 C 0.4474(7) 0.4545(7) 0.5723(3)
H40_6 H 0.4547 0.4902 0.5612
H41_6 H 0.4317 0.4197 0.5623
H42_6 H 0.4168 0.4656 0.5853
C7_6 C 0.0702(3) 0.9742(2) 0.67576(11)
C19_6 C 0.0179(3) 0.9444(3) 0.68277(14)
H11_6 H 0.0003 0.9522 0.6989
C21_6 C 0.0897(3) 0.9629(3) 0.65142(12)
H13_6 H 0.1253 0.9834 0.6450
C22_6 C 0.0565(3) 0.9206(3) 0.63588(14)
H14_6 H 0.0712 0.9141 0.6191
H16_6 H 0.4555 0.9968 0.5630
H10_6 H 0.9758 0.1194 0.7936
C20_6 C 0.9891(3) 0.9015(3) 0.66618(11)
H12_6 H 0.9541 0.8796 0.6725
O1_9 O -0.0000 0.2500 0.36325(7)
N7_7 N 0.0812(2) 0.09927(18) 0.40399(7)
O7_7 O 0.11839(18) 0.1817(2) 0.35905(7)
C33_7 C 0.1175(3) 0.0560(3) 0.39277(11)
H23_7 H 0.1259 0.0610 0.3752
C36_7 C 0.0952(3) 0.0397(3) 0.44298(11)
H25_7 H 0.0856 0.0355 0.4605
C40_7 C 0.0711(3) 0.0900(3) 0.42921(10)
H28_7 H 0.0462 0.1193 0.4380
C41_7 C 0.1435(3) 0.0047(3) 0.40474(10)
C48_7 C 0.1392(5) 0.2328(5) 0.3520(2)
H36_7 H 0.1207 0.2686 0.3593
N8_7 N 0.1859(7) 0.2426(7) 0.3349(3)
C49_7 C 0.2199(7) 0.1899(7) 0.3240(3)
H37_7 H 0.2532 0.2055 0.3130
H38_7 H 0.2379 0.1648 0.3376
H39_7 H 0.1914 0.1644 0.3140
C50_7 C 0.2045(7) 0.3026(7) 0.3223(3)
H40_7 H 0.2402 0.2953 0.3112
H41_7 H 0.1697 0.3183 0.3123
H42_7 H 0.2156 0.3332 0.3353
N5_7 N 0.2036(2) 0.90693(19) 0.43091(8)
C26_7 C 0.1020(2) 0.8102(2) 0.55576(9)
C27_7 C 0.0727(2) 0.7892(2) 0.58097(8)
C28_7 C 0.1610(3) 0.9400(2) 0.44462(10)
C29_7 C 0.1423(3) 0.9231(2) 0.46918(10)
H22_7 H 0.1126 0.9474 0.4780
C30_7 C 0.1334(3) 0.9955(2) 0.43107(10)
C31_7 C 0.2302(3) 0.8554(2) 0.44248(10)
C32_7 C 0.2758(2) 0.8202(3) 0.42576(11)
C34_7 C 0.1243(3) 0.8917(3) 0.52509(11)
H24_7 H 0.1241 0.9345 0.5209
C35_7 C 0.1683(3) 0.8688(2) 0.48097(10)
C37_7 C 0.2130(3) 0.8357(3) 0.46663(10)
H26_7 H 0.2315 0.7995 0.4736
C38_7 C 0.1011(3) 0.8733(2) 0.54865(10)
H27_7 H 0.0848 0.9035 0.5599
C39_7 C 0.1481(3) 0.8488(2) 0.50732(10)
H29_7 H 0.1679 0.9761 0.3954
C42_7 C 0.1502(3) 0.7868(3) 0.51525(11)
H30_7 H 0.1673 0.7565 0.5042
C43_7 C 0.1279(3) 0.7682(3) 0.53891(10)
H31_7 H 0.1306 0.7258 0.5436
C44_7 C 0.3056(3) 0.7679(3) 0.43277(14)
H32_7 H 0.2978 0.7503 0.4489
C45_7 C 0.3485(3) 0.7391(3) 0.41618(11)
H33_7 H 0.3704 0.7041 0.4225
C46_7 C 0.2871(3) 0.8397(3) 0.40142(12)
H34_7 H 0.2666 0.8753 0.3950
C47_7 C 0.3294(3) 0.8065(3) 0.38588(14)
H35_7 H 0.3359 0.8212 0.3691
O1_10 O 1.0000 0.2500 0.36325(7)
N1_7 N 0.7964(2) 0.59307(19) 0.43091(8)
C1_7 C 0.8980(2) 0.6898(2) 0.55576(9)
C2_7 C 0.9273(2) 0.7108(2) 0.58097(8)
N3_7 N 0.9188(2) 0.40073(18) 0.40399(7)
C3_7 C 0.8390(3) 0.5600(2) 0.44462(10)
O4_7 O 0.88161(18) 0.3183(2) 0.35905(7)
C4_7 C 0.8577(3) 0.5769(2) 0.46918(10)
H1_7 H 0.8874 0.5526 0.4780
C5_7 C 0.8666(3) 0.5045(2) 0.43107(10)
C6_7 C 0.7698(3) 0.6446(2) 0.44248(10)
C7_7 C 0.7242(2) 0.6798(3) 0.42576(11)
C8_7 C 0.8825(3) 0.4440(3) 0.39277(11)
H2_7 H 0.8741 0.4390 0.3752
C9_7 C 0.8757(3) 0.6083(3) 0.52509(11)
H3_7 H 0.8759 0.5655 0.5209
C10_7 C 0.8317(3) 0.6312(2) 0.48097(10)
C11_7 C 0.9048(3) 0.4603(3) 0.44298(11)
H4_7 H 0.9144 0.4645 0.4605
C12_7 C 0.7870(3) 0.6643(3) 0.46663(10)
H5_7 H 0.7685 0.7005 0.4736
C13_7 C 0.8989(3) 0.6267(2) 0.54865(10)
H6_7 H 0.9152 0.5965 0.5599
C14_7 C 0.8519(3) 0.6512(2) 0.50732(10)
C15_7 C 0.9289(3) 0.4100(3) 0.42921(10)
H7_7 H 0.9538 0.3807 0.4380
C16_7 C 0.8565(3) 0.4953(3) 0.40474(10)
H8_7 H 0.8321 0.5239 0.3954
C17_7 C 0.8498(3) 0.7132(3) 0.51525(11)
H9_7 H 0.8327 0.7435 0.5042
C18_7 C 0.8721(3) 0.7318(3) 0.53891(10)
H10_7 H 0.8694 0.7742 0.5436
C19_7 C 0.6944(3) 0.7321(3) 0.43277(14)
H11_7 H 0.7022 0.7497 0.4489
C20_7 C 0.6515(3) 0.7609(3) 0.41618(11)
H12_7 H 0.6296 0.7959 0.4225
C21_7 C 0.7129(3) 0.6603(3) 0.40142(12)
H13_7 H 0.7334 0.6247 0.3950
C22_7 C 0.6706(3) 0.6935(3) 0.38588(14)
H14_7 H 0.6641 0.6788 0.3691
C23_7 C 0.8608(5) 0.2672(5) 0.3520(2)
H15_7 H 0.8793 0.2314 0.3593
N4_7 N 0.8141(7) 0.2574(7) 0.3349(3)
C24_7 C 0.7801(7) 0.3101(7) 0.3240(3)
H16_7 H 0.7468 0.2945 0.3130
H17_7 H 0.7621 0.3352 0.3376
H18_7 H 0.8086 0.3356 0.3140
C25_7 C 0.7955(7) 0.1974(7) 0.3223(3)
H19_7 H 0.7598 0.2047 0.3112
H20_7 H 0.8303 0.1817 0.3123
H21_7 H 0.7844 0.1668 0.3353
C32_8 C 0.4298(3) 0.0258(2) 0.17576(11)
C44_8 C 0.4821(3) 0.0556(3) 0.18277(14)
H32_8 H 0.4997 0.0478 0.1989
C45_8 C 0.5109(3) 0.0985(3) 0.16618(11)
H33_8 H 0.5459 0.1204 0.1725
C46_8 C 0.4103(3) 0.0371(3) 0.15142(12)
H34_8 H 0.3747 0.0166 0.1450
C47_8 C 0.4435(3) 0.0794(3) 0.13588(14)
H35_8 H 0.4288 0.0859 0.1191
H37_8 H 0.0445 0.0032 0.0630
O1_11 O -0.0000 0.7500 0.11325(7)
H15_8 H 0.0186 0.6293 0.1093
C25_8 C 0.0526(7) 0.5455(7) 0.0723(3)
H19_8 H 0.0453 0.5098 0.0612
H20_8 H 0.0683 0.5803 0.0623
H21_8 H 0.0832 0.5344 0.0853
N5_8 N 0.34307(19) 0.9536(2) 0.18091(8)
C26_8 C 0.4398(2) 0.8520(2) 0.30576(9)
C27_8 C 0.4608(2) 0.8227(2) 0.33097(8)
N7_8 N 0.15073(18) 0.8312(2) 0.15399(7)
C28_8 C 0.3100(2) 0.9110(3) 0.19462(10)
O7_8 O 0.0683(2) 0.86839(18) 0.10905(7)
C29_8 C 0.3269(2) 0.8923(3) 0.21918(10)
H22_8 H 0.3026 0.8626 0.2280
C30_8 C 0.2545(2) 0.8834(3) 0.18107(10)
C31_8 C 0.3946(2) 0.9802(3) 0.19248(10)
C33_8 C 0.1940(3) 0.8675(3) 0.14277(11)
H23_8 H 0.1890 0.8759 0.1252
C34_8 C 0.3583(3) 0.8743(3) 0.27509(11)
H24_8 H 0.3155 0.8741 0.2709
C35_8 C 0.3812(2) 0.9183(3) 0.23097(10)
C36_8 C 0.2103(3) 0.8452(3) 0.19298(11)
H25_8 H 0.2145 0.8356 0.2105
C37_8 C 0.4143(3) 0.9630(3) 0.21663(10)
H26_8 H 0.4505 0.9815 0.2236
C38_8 C 0.3767(2) 0.8511(3) 0.29865(10)
H27_8 H 0.3465 0.8348 0.3099
C39_8 C 0.4012(2) 0.8981(3) 0.25732(10)
C40_8 C 0.1600(3) 0.8211(3) 0.17921(10)
H28_8 H 0.1307 0.7962 0.1880
C41_8 C 0.2453(3) 0.8935(3) 0.15474(10)
H29_8 H 0.2739 0.9179 0.1454
C42_8 C 0.4632(3) 0.9002(3) 0.26525(11)
H30_8 H 0.4935 0.9173 0.2542
C43_8 C 0.4818(3) 0.8779(3) 0.28891(10)
H31_8 H 0.5242 0.8806 0.2936
C48_8 C 0.0172(5) 0.8892(5) 0.1020(2)
N8_8 N 0.0074(7) 0.9359(7) 0.0849(3)
C49_8 C 0.0601(7) 0.9699(7) 0.0740(3)
H38_8 H 0.0852 0.9879 0.0876
H39_8 H 0.0856 0.9414 0.0640
O1_12 O 1.0000 0.7500 0.11325(7)
N1_8 N 0.65693(19) 0.5464(2) 0.18091(8)
C1_8 C 0.5602(2) 0.6480(2) 0.30576(9)
C2_8 C 0.5392(2) 0.6773(2) 0.33097(8)
N3_8 N 0.84927(18) 0.6688(2) 0.15399(7)
C3_8 C 0.6900(2) 0.5890(3) 0.19462(10)
O4_8 O 0.9317(2) 0.63161(18) 0.10905(7)
C4_8 C 0.6731(2) 0.6077(3) 0.21918(10)
H1_8 H 0.6974 0.6374 0.2280
C5_8 C 0.7455(2) 0.6166(3) 0.18107(10)
C6_8 C 0.6054(2) 0.5198(3) 0.19248(10)
C7_8 C 0.5702(3) 0.4742(2) 0.17576(11)
C8_8 C 0.8060(3) 0.6325(3) 0.14277(11)
H2_8 H 0.8110 0.6241 0.1252
C9_8 C 0.6417(3) 0.6257(3) 0.27509(11)
H3_8 H 0.6845 0.6259 0.2709
C10_8 C 0.6188(2) 0.5817(3) 0.23097(10)
C11_8 C 0.7897(3) 0.6548(3) 0.19298(11)
H4_8 H 0.7855 0.6644 0.2105
C12_8 C 0.5857(3) 0.5370(3) 0.21663(10)
H5_8 H 0.5495 0.5185 0.2236
C13_8 C 0.6233(2) 0.6489(3) 0.29865(10)
H6_8 H 0.6535 0.6652 0.3099
C14_8 C 0.5988(2) 0.6019(3) 0.25732(10)
C15_8 C 0.8400(3) 0.6789(3) 0.17921(10)
H7_8 H 0.8693 0.7038 0.1880
C16_8 C 0.7547(3) 0.6065(3) 0.15474(10)
H8_8 H 0.7261 0.5821 0.1454
C17_8 C 0.5368(3) 0.5998(3) 0.26525(11)
H9_8 H 0.5065 0.5827 0.2542
C18_8 C 0.5182(3) 0.6221(3) 0.28891(10)
H10_8 H 0.4758 0.6194 0.2936
C19_8 C 0.5179(3) 0.4444(3) 0.18277(14)
H11_8 H 0.5003 0.4522 0.1989
C20_8 C 0.4891(3) 0.4015(3) 0.16618(11)
H12_8 H 0.4541 0.3796 0.1725
C21_8 C 0.5897(3) 0.4629(3) 0.15142(12)
H13_8 H 0.6253 0.4834 0.1450
C22_8 C 0.5565(3) 0.4206(3) 0.13588(14)
H14_8 H 0.5712 0.4141 0.1191
C23_8 C 0.9828(5) 0.6108(5) 0.1020(2)
N4_8 N 0.9926(7) 0.5641(7) 0.0849(3)
C24_8 C 0.9399(7) 0.5301(7) 0.0740(3)
H16_8 H 0.9555 0.4968 0.0630
H17_8 H 0.9148 0.5121 0.0876
H18_8 H 0.9144 0.5586 0.0640
H36_8 H 0.9814 0.8707 0.1093
C50_8 C 0.9474(7) 0.9545(7) 0.0723(3)
H40_8 H 0.9547 0.9902 0.0612
H41_8 H 0.9317 0.9197 0.0623
H42_8 H 0.9168 0.9656 0.0853
loop_
_geom_bond_atom_site_label_1
_geom_bond_atom_site_label_2
_geom_bond_site_symmetry_1
_geom_bond_site_symmetry_2
Co1 O1 1_555 1_555
O1 Co2 1_555 1_555
N3 Co1 1_555 1_555
O4 Co1 1_555 1_555
C8 N3 1_555 1_555
H2 C8 1_555 1_555
H4 C11 1_555 1_555
C15 N3 1_555 1_555
H7 C15 1_555 1_555
C23 O4 1_555 1_555
H15 C23 1_555 1_555
N4 C23 1_555 1_555
C24 N4 1_555 1_555
H16 C24 1_555 1_555
H17 C24 1_555 1_555
H18 C24 1_555 1_555
C25 N4 1_555 1_555
H19 C25 1_555 1_555
H20 C25 1_555 1_555
H21 C25 1_555 1_555
Co2 N7 1_555 1_555
N5 C28 1_555 1_555
N6 C45 1_555 1_555
N7 C33 1_555 1_555
C28 C29 1_555 1_555
O7 Co2 1_555 1_555
C29 H22 1_555 1_555
C30 C28 1_555 1_555
C31 N5 1_555 1_555
C32 C31 1_555 1_555
C33 H23 1_555 1_555
C35 C29 1_555 1_555
C36 C30 1_555 1_555
H25 C36 1_555 1_555
C37 C31 1_555 1_555
H26 C37 1_555 1_555
C40 N7 1_555 1_555
H28 C40 1_555 1_555
C41 C30 1_555 1_555
H29 C41 1_555 1_555
C44 C32 1_555 1_555
H32 C44 1_555 1_555
C45 C44 1_555 1_555
H33 C45 1_555 1_555
C46 C32 1_555 1_555
H34 C46 1_555 1_555
C47 N6 1_555 1_555
H35 C47 1_555 1_555
C48 O7 1_555 1_555
H36 C48 1_555 1_555
N8 C48 1_555 1_555
C49 N8 1_555 1_555
H37 C49 1_555 1_555
H38 C49 1_555 1_555
H39 C49 1_555 1_555
C50 N8 1_555 1_555
H40 C50 1_555 1_555
H41 C50 1_555 1_555
H42 C50 1_555 1_555
Co8 N6 1_555 1_555
O8 Co1 1_555 1_555
O9 Co2 1_555 1_555
O10 Co2 1_555 1_555
O11 Co1 1_555 1_555
N9 Co2 1_555 1_555
N10 Co1 1_555 1_555
C8 C16 1_555 1_555
C11 C15 1_555 1_555
C33 C41 1_555 1_555
C35 C37 1_555 1_555
C36 C40 1_555 1_555
C46 C47 1_555 1_555
O5 C27 1_555 1_555
O6 C27 1_555 1_555
C26 C27 1_555 1_555
C34 H24 1_555 1_555
C38 C26 1_555 1_555
H27 C38 1_555 1_555
C39 C34 1_555 1_555
C42 C39 1_555 1_555
H30 C42 1_555 1_555
C43 C26 1_555 1_555
H31 C43 1_555 1_555
Co4 O6 1_555 1_555
Co6 O5 1_555 1_555
C34 C38 1_555 1_555
C42 C43 1_555 1_555
N1 C3 1_555 1_555
N2 C20 1_555 1_555
C3 C4 1_555 1_555
C4 H1 1_555 1_555
C5 C3 1_555 1_555
C6 N1 1_555 1_555
C7 C6 1_555 1_555
C10 C4 1_555 1_555
C12 C6 1_555 1_555
H5 C12 1_555 1_555
C19 C7 1_555 1_555
H11 C19 1_555 1_555
C20 C19 1_555 1_555
H12 C20 1_555 1_555
C21 C7 1_555 1_555
H13 C21 1_555 1_555
C22 N2 1_555 1_555
H14 C22 1_555 1_555
Co7 N2 1_555 1_555
C10 C12 1_555 1_555
C21 C22 1_555 1_555
O2 C2 1_555 1_555
O3 C2 1_555 1_555
C1 C2 1_555 1_555
C9 H3 1_555 1_555
C13 C1 1_555 1_555
H6 C13 1_555 1_555
C14 C9 1_555 1_555
C17 C14 1_555 1_555
H9 C17 1_555 1_555
C18 C1 1_555 1_555
H10 C18 1_555 1_555
Co4 O2 1_555 1_555
Co6 O3 1_555 1_555
C9 C13 1_555 1_555
C17 C18 1_555 1_555
H12_2 C20_2 1_555 1_555
Co8 O3_2 1_555 1_555
C19_2 C7_2 1_555 1_555
H11_2 C19_2 1_555 1_555
C21_2 C7_2 1_555 1_555
H13_2 C21_2 1_555 1_555
C22_2 N2_2 1_555 1_555
H14_2 C22_2 1_555 1_555
C21_2 C22_2 1_555 1_555
Co1_2 O1_2 1_555 1_555
O1_2 Co2_2 1_555 1_555
O2_2 C2_2 1_555 1_555
N1_2 C3_2 1_555 1_555
C1_2 C2_2 1_555 1_555
N3_2 Co1_2 1_555 1_555
C3_2 C4_2 1_555 1_555
O4_2 Co1_2 1_555 1_555
C4_2 H1_2 1_555 1_555
C5_2 C3_2 1_555 1_555
C6_2 N1_2 1_555 1_555
C8_2 N3_2 1_555 1_555
H2_2 C8_2 1_555 1_555
C9_2 H3_2 1_555 1_555
C10_2 C4_2 1_555 1_555
C11_2 C5_2 1_555 1_555
H4_2 C11_2 1_555 1_555
C12_2 C6_2 1_555 1_555
H5_2 C12_2 1_555 1_555
C13_2 C1_2 1_555 1_555
H6_2 C13_2 1_555 1_555
C14_2 C9_2 1_555 1_555
C15_2 N3_2 1_555 1_555
H7_2 C15_2 1_555 1_555
C16_2 C5_2 1_555 1_555
H8_2 C16_2 1_555 1_555
C17_2 C14_2 1_555 1_555
H9_2 C17_2 1_555 1_555
C18_2 C1_2 1_555 1_555
C23_2 O4_2 1_555 1_555
H15_2 C23_2 1_555 1_555
N4_2 C23_2 1_555 1_555
C24_2 N4_2 1_555 1_555
H17_2 C24_2 1_555 1_555
H18_2 C24_2 1_555 1_555
C25_2 N4_2 1_555 1_555
H19_2 C25_2 1_555 1_555
H20_2 C25_2 1_555 1_555
H21_2 C25_2 1_555 1_555
Co2_2 N7_2 1_555 1_555
O5_2 C27_2 1_555 1_555
N5_2 C28_2 1_555 1_555
C26_2 C27_2 1_555 1_555
N7_2 C33_2 1_555 1_555
C28_2 C29_2 1_555 1_555
O7_2 Co2_2 1_555 1_555
C29_2 H22_2 1_555 1_555
C30_2 C28_2 1_555 1_555
C31_2 N5_2 1_555 1_555
C32_2 C31_2 1_555 1_555
C33_2 H23_2 1_555 1_555
C34_2 H24_2 1_555 1_555
C35_2 C29_2 1_555 1_555
C36_2 C30_2 1_555 1_555
H25_2 C36_2 1_555 1_555
C37_2 C31_2 1_555 1_555
H26_2 C37_2 1_555 1_555
C38_2 C26_2 1_555 1_555
H27_2 C38_2 1_555 1_555
C39_2 C34_2 1_555 1_555
C40_2 N7_2 1_555 1_555
H28_2 C40_2 1_555 1_555
C41_2 C30_2 1_555 1_555
H29_2 C41_2 1_555 1_555
C42_2 C39_2 1_555 1_555
H30_2 C42_2 1_555 1_555
C43_2 C26_2 1_555 1_555
C44_2 C32_2 1_555 1_555
H32_2 C44_2 1_555 1_555
C46_2 C32_2 1_555 1_555
H34_2 C46_2 1_555 1_555
C47_2 N6_2 1_555 1_555
H35_2 C47_2 1_555 1_555
C48_2 O7_2 1_555 1_555
H36_2 C48_2 1_555 1_555
N8_2 C48_2 1_555 1_555
C49_2 N8_2 1_555 1_555
H37_2 C49_2 1_555 1_555
H38_2 C49_2 1_555 1_555
H39_2 C49_2 1_555 1_555
C50_2 N8_2 1_555 1_555
H40_2 C50_2 1_555 1_555
H41_2 C50_2 1_555 1_555
H42_2 C50_2 1_555 1_555
Co7 O2_2 1_555 1_555
Co8 O5_2 1_555 1_555
O8_2 Co1_2 1_555 1_555
O9_2 Co2_2 1_555 1_555
O10_2 Co2_2 1_555 1_555
O11_2 Co1_2 1_555 1_555
N9_2 Co2_2 1_555 1_555
N10_2 Co1_2 1_555 1_555
C8_2 C16_2 1_555 1_555
C9_2 C13_2 1_555 1_555
C10_2 C12_2 1_555 1_555
C10_2 C14_2 1_555 1_555
C11_2 C15_2 1_555 1_555
C17_2 C18_2 1_555 1_555
C33_2 C41_2 1_555 1_555
C34_2 C38_2 1_555 1_555
C35_2 C37_2 1_555 1_555
C35_2 C39_2 1_555 1_555
C36_2 C40_2 1_555 1_555
C42_2 C43_2 1_555 1_555
C46_2 C47_2 1_555 1_555
H33_2 C45_2 1_555 1_555
Co7 O6_2 1_555 1_555
Co1_3 O1_3 1_555 1_555
O2_3 C2_3 1_555 1_555
O3_3 C2_3 1_555 1_555
N1_3 C3_3 1_555 1_555
N2_3 C20_3 1_555 1_555
C1_3 C2_3 1_555 1_555
N3_3 Co1_3 1_555 1_555
C3_3 C4_3 1_555 1_555
O4_3 Co1_3 1_555 1_555
C4_3 H1_3 1_555 1_555
C5_3 C3_3 1_555 1_555
C6_3 N1_3 1_555 1_555
C7_3 C6_3 1_555 1_555
C8_3 N3_3 1_555 1_555
H2_3 C8_3 1_555 1_555
C9_3 H3_3 1_555 1_555
C10_3 C4_3 1_555 1_555
C11_3 C5_3 1_555 1_555
H4_3 C11_3 1_555 1_555
C12_3 C6_3 1_555 1_555
H5_3 C12_3 1_555 1_555
C13_3 C1_3 1_555 1_555
H6_3 C13_3 1_555 1_555
C14_3 C9_3 1_555 1_555
C15_3 N3_3 1_555 1_555
H7_3 C15_3 1_555 1_555
C16_3 C5_3 1_555 1_555
H8_3 C16_3 1_555 1_555
C17_3 C14_3 1_555 1_555
H9_3 C17_3 1_555 1_555
C18_3 C1_3 1_555 1_555
H10_3 C18_3 1_555 1_555
C19_3 C7_3 1_555 1_555
H11_3 C19_3 1_555 1_555
C20_3 C19_3 1_555 1_555
H12_3 C20_3 1_555 1_555
C21_3 C7_3 1_555 1_555
H13_3 C21_3 1_555 1_555
C22_3 N2_3 1_555 1_555
H14_3 C22_3 1_555 1_555
C23_3 O4_3 1_555 1_555
H15_3 C23_3 1_555 1_555
N4_3 C23_3 1_555 1_555
C24_3 N4_3 1_555 1_555
H16_3 C24_3 1_555 1_555
H17_3 C24_3 1_555 1_555
H18_3 C24_3 1_555 1_555
C25_3 N4_3 1_555 1_555
H19_3 C25_3 1_555 1_555
H20_3 C25_3 1_555 1_555
H21_3 C25_3 1_555 1_555
Co7_2 O3_3 1_555 1_555
Co7_3 N2_3 1_555 1_555
O11_3 Co1_3 1_555 1_555
C8_3 C16_3 1_555 1_555
C9_3 C13_3 1_555 1_555
C10_3 C12_3 1_555 1_555
C10_3 C14_3 1_555 1_555
C11_3 C15_3 1_555 1_555
C17_3 C18_3 1_555 1_555
C21_3 C22_3 1_555 1_555
O5_3 C27_3 1_555 1_555
O6_3 C27_3 1_555 1_555
N5_3 C28_3 1_555 1_555
N6_3 C45_3 1_555 1_555
C26_3 C27_3 1_555 1_555
C28_3 C29_3 1_555 1_555
C29_3 H22_3 1_555 1_555
C30_3 C28_3 1_555 1_555
C31_3 N5_3 1_555 1_555
C32_3 C31_3 1_555 1_555
C34_3 H24_3 1_555 1_555
C35_3 C29_3 1_555 1_555
C37_3 C31_3 1_555 1_555
H26_3 C37_3 1_555 1_555
C38_3 C26_3 1_555 1_555
H27_3 C38_3 1_555 1_555
C39_3 C34_3 1_555 1_555
C42_3 C39_3 1_555 1_555
H30_3 C42_3 1_555 1_555
C43_3 C26_3 1_555 1_555
H31_3 C43_3 1_555 1_555
C44_3 C32_3 1_555 1_555
H32_3 C44_3 1_555 1_555
C45_3 C44_3 1_555 1_555
H33_3 C45_3 1_555 1_555
C46_3 C32_3 1_555 1_555
H34_3 C46_3 1_555 1_555
C47_3 N6_3 1_555 1_555
H35_3 C47_3 1_555 1_555
Co8_2 O6_3 1_555 1_555
Co8_3 N6_3 1_555 1_555
C34_3 C38_3 1_555 1_555
C35_3 C37_3 1_555 1_555
C35_3 C39_3 1_555 1_555
C42_3 C43_3 1_555 1_555
C46_3 C47_3 1_555 1_555
O1_4 Co2_3 1_555 1_555
Co2_3 N7_3 1_555 1_555
N7_3 C33_3 1_555 1_555
O7_3 Co2_3 1_555 1_555
C33_3 H23_3 1_555 1_555
H25_3 C36_3 1_555 1_555
C40_3 N7_3 1_555 1_555
H28_3 C40_3 1_555 1_555
C48_3 O7_3 1_555 1_555
H36_3 C48_3 1_555 1_555
N8_3 C48_3 1_555 1_555
C49_3 N8_3 1_555 1_555
H37_3 C49_3 1_555 1_555
H38_3 C49_3 1_555 1_555
H39_3 C49_3 1_555 1_555
C50_3 N8_3 1_555 1_555
H40_3 C50_3 1_555 1_555
H41_3 C50_3 1_555 1_555
H42_3 C50_3 1_555 1_555
O10_3 Co2_3 1_555 1_555
C33_3 C41_3 1_555 1_555
C36_3 C40_3 1_555 1_555
Co1_4 O1_5 1_555 1_555
O2_4 C2_4 1_555 1_555
O3_4 C2_4 1_555 1_555
N1_4 C3_4 1_555 1_555
N2_4 C20_4 1_555 1_555
C1_4 C2_4 1_555 1_555
N3_4 Co1_4 1_555 1_555
C3_4 C4_4 1_555 1_555
O4_4 Co1_4 1_555 1_555
C4_4 H1_4 1_555 1_555
C5_4 C3_4 1_555 1_555
C6_4 N1_4 1_555 1_555
C7_4 C6_4 1_555 1_555
C8_4 N3_4 1_555 1_555
H2_4 C8_4 1_555 1_555
C9_4 H3_4 1_555 1_555
C10_4 C4_4 1_555 1_555
C11_4 C5_4 1_555 1_555
H4_4 C11_4 1_555 1_555
C12_4 C6_4 1_555 1_555
H5_4 C12_4 1_555 1_555
C13_4 C1_4 1_555 1_555
H6_4 C13_4 1_555 1_555
C14_4 C9_4 1_555 1_555
C15_4 N3_4 1_555 1_555
H7_4 C15_4 1_555 1_555
C16_4 C5_4 1_555 1_555
H8_4 C16_4 1_555 1_555
C17_4 C14_4 1_555 1_555
H9_4 C17_4 1_555 1_555
C18_4 C1_4 1_555 1_555
H10_4 C18_4 1_555 1_555
C19_4 C7_4 1_555 1_555
H11_4 C19_4 1_555 1_555
C20_4 C19_4 1_555 1_555
H12_4 C20_4 1_555 1_555
C21_4 C7_4 1_555 1_555
H13_4 C21_4 1_555 1_555
C22_4 N2_4 1_555 1_555
H14_4 C22_4 1_555 1_555
C23_4 O4_4 1_555 1_555
N4_4 C23_4 1_555 1_555
C24_4 N4_4 1_555 1_555
H16_4 C24_4 1_555 1_555
H17_4 C24_4 1_555 1_555
H18_4 C24_4 1_555 1_555
H40_4 C50_4 1_555 1_555
H41_4 C50_4 1_555 1_555
H42_4 C50_4 1_555 1_555
Co7_3 O2_4 1_555 1_555
Co8_3 O3_4 1_555 1_555
Co6 N2_4 1_555 1_555
O8_4 Co1_4 1_555 1_555
O11_4 Co1_4 1_555 1_555
N10_4 Co1_4 1_555 1_555
C8_4 C16_4 1_555 1_555
C9_4 C13_4 1_555 1_555
C10_4 C12_4 1_555 1_555
C10_4 C14_4 1_555 1_555
C11_4 C15_4 1_555 1_555
C17_4 C18_4 1_555 1_555
C21_4 C22_4 1_555 1_555
O1_6 Co2_4 1_555 1_555
H19_4 C25_4 1_555 1_555
H20_4 C25_4 1_555 1_555
H21_4 C25_4 1_555 1_555
Co2_4 N7_4 1_555 1_555
O5_4 C27_4 1_555 1_555
O6_4 C27_4 1_555 1_555
N5_4 C28_4 1_555 1_555
C26_4 C27_4 1_555 1_555
N7_4 C33_4 1_555 1_555
C28_4 C29_4 1_555 1_555
O7_4 Co2_4 1_555 1_555
C29_4 H22_4 1_555 1_555
C30_4 C28_4 1_555 1_555
C31_4 N5_4 1_555 1_555
C33_4 H23_4 1_555 1_555
C34_4 H24_4 1_555 1_555
C35_4 C29_4 1_555 1_555
C36_4 C30_4 1_555 1_555
H25_4 C36_4 1_555 1_555
C37_4 C31_4 1_555 1_555
H26_4 C37_4 1_555 1_555
C38_4 C26_4 1_555 1_555
H27_4 C38_4 1_555 1_555
C39_4 C34_4 1_555 1_555
C40_4 N7_4 1_555 1_555
H28_4 C40_4 1_555 1_555
C41_4 C30_4 1_555 1_555
H29_4 C41_4 1_555 1_555
C42_4 C39_4 1_555 1_555
H30_4 C42_4 1_555 1_555
C43_4 C26_4 1_555 1_555
H31_4 C43_4 1_555 1_555
C48_4 O7_4 1_555 1_555
N8_4 C48_4 1_555 1_555
C49_4 N8_4 1_555 1_555
H38_4 C49_4 1_555 1_555
H39_4 C49_4 1_555 1_555
Co7_3 O6_4 1_555 1_555
Co8_3 O5_4 1_555 1_555
O9_4 Co2_4 1_555 1_555
O10_4 Co2_4 1_555 1_555
N9_4 Co2_4 1_555 1_555
C33_4 C41_4 1_555 1_555
C34_4 C38_4 1_555 1_555
C35_4 C37_4 1_555 1_555
C35_4 C39_4 1_555 1_555
C36_4 C40_4 1_555 1_555
C42_4 C43_4 1_555 1_555
N6_4 C45_4 1_555 1_555
C44_4 C32_4 1_555 1_555
H32_4 C44_4 1_555 1_555
C45_4 C44_4 1_555 1_555
H33_4 C45_4 1_555 1_555
C46_4 C32_4 1_555 1_555
H34_4 C46_4 1_555 1_555
C47_4 N6_4 1_555 1_555
H35_4 C47_4 1_555 1_555
Co4 N6_4 1_555 1_555
C46_4 C47_4 1_555 1_555
O8 C2_5 1_555 1_555
O10 C2_5 1_555 1_555
C1_5 C2_5 1_555 1_555
C9_5 H3_5 1_555 1_555
C13_5 C1_5 1_555 1_555
H6_5 C13_5 1_555 1_555
C14_5 C9_5 1_555 1_555
C17_5 C14_5 1_555 1_555
H9_5 C17_5 1_555 1_555
C18_5 C1_5 1_555 1_555
H10_5 C18_5 1_555 1_555
C9_5 C13_5 1_555 1_555
C17_5 C18_5 1_555 1_555
N1_5 C3_5 1_555 1_555
N10_4 C20_5 1_555 1_555
C3_5 C4_5 1_555 1_555
C4_5 H1_5 1_555 1_555
C5_5 C3_5 1_555 1_555
C6_5 N1_5 1_555 1_555
C7_5 C6_5 1_555 1_555
C10_5 C4_5 1_555 1_555
C12_5 C6_5 1_555 1_555
H5_5 C12_5 1_555 1_555
C19_5 C7_5 1_555 1_555
H11_5 C19_5 1_555 1_555
C20_5 C19_5 1_555 1_555
H12_5 C20_5 1_555 1_555
C21_5 C7_5 1_555 1_555
H13_5 C21_5 1_555 1_555
C22_5 N10_4 1_555 1_555
H14_5 C22_5 1_555 1_555
C10_5 C12_5 1_555 1_555
C21_5 C22_5 1_555 1_555
O9 C27_5 1_555 1_555
O11 C27_5 1_555 1_555
C26_5 C27_5 1_555 1_555
C34_5 H24_5 1_555 1_555
C38_5 C26_5 1_555 1_555
H27_5 C38_5 1_555 1_555
C39_5 C34_5 1_555 1_555
C42_5 C39_5 1_555 1_555
H30_5 C42_5 1_555 1_555
C43_5 C26_5 1_555 1_555
H31_5 C43_5 1_555 1_555
C34_5 C38_5 1_555 1_555
C42_5 C43_5 1_555 1_555
Co4 O1_7 1_555 1_555
O1_7 Co6 1_555 1_555
N3_5 Co4 1_555 1_555
O4_5 Co4 1_555 1_555
C8_5 N3_5 1_555 1_555
H2_5 C8_5 1_555 1_555
H4_5 C11_5 1_555 1_555
C15_5 N3_5 1_555 1_555
H7_5 C15_5 1_555 1_555
C23_5 O4_5 1_555 1_555
H15_5 C23_5 1_555 1_555
N4_5 C23_5 1_555 1_555
C24_5 N4_5 1_555 1_555
H16_5 C24_5 1_555 1_555
H17_5 C24_5 1_555 1_555
H18_5 C24_5 1_555 1_555
C25_5 N4_5 1_555 1_555
H19_5 C25_5 1_555 1_555
H20_5 C25_5 1_555 1_555
H21_5 C25_5 1_555 1_555
Co6 N7_5 1_555 1_555
N5_5 C28_5 1_555 1_555
N9_4 C45_5 1_555 1_555
N7_5 C33_5 1_555 1_555
C28_5 C29_5 1_555 1_555
O7_5 Co6 1_555 1_555
C29_5 H22_5 1_555 1_555
C30_5 C28_5 1_555 1_555
C31_5 N5_5 1_555 1_555
C32_5 C31_5 1_555 1_555
C33_5 H23_5 1_555 1_555
C35_5 C29_5 1_555 1_555
C36_5 C30_5 1_555 1_555
H25_5 C36_5 1_555 1_555
C37_5 C31_5 1_555 1_555
H26_5 C37_5 1_555 1_555
C40_5 N7_5 1_555 1_555
H28_5 C40_5 1_555 1_555
C41_5 C30_5 1_555 1_555
H29_5 C41_5 1_555 1_555
C44_5 C32_5 1_555 1_555
H32_5 C44_5 1_555 1_555
C45_5 C44_5 1_555 1_555
H33_5 C45_5 1_555 1_555
C46_5 C32_5 1_555 1_555
H34_5 C46_5 1_555 1_555
C47_5 N9_4 1_555 1_555
H35_5 C47_5 1_555 1_555
C48_5 O7_5 1_555 1_555
H36_5 C48_5 1_555 1_555
N8_5 C48_5 1_555 1_555
C49_5 N8_5 1_555 1_555
H37_5 C49_5 1_555 1_555
H38_5 C49_5 1_555 1_555
H39_5 C49_5 1_555 1_555
C50_5 N8_5 1_555 1_555
H40_5 C50_5 1_555 1_555
H41_5 C50_5 1_555 1_555
H42_5 C50_5 1_555 1_555
C8_5 C16_5 1_555 1_555
C11_5 C15_5 1_555 1_555
C33_5 C41_5 1_555 1_555
C35_5 C37_5 1_555 1_555
C36_5 C40_5 1_555 1_555
C46_5 C47_5 1_555 1_555
H33_6 C45_6 1_555 1_555
Co7_3 O1_8 1_555 1_555
O1_8 Co8_3 1_555 1_555
O8_4 C2_6 1_555 1_555
N1_6 C3_6 1_555 1_555
C1_6 C2_6 1_555 1_555
N3_6 Co7_3 1_555 1_555
C3_6 C4_6 1_555 1_555
O4_6 Co7_3 1_555 1_555
C4_6 H1_6 1_555 1_555
C5_6 C3_6 1_555 1_555
C6_6 N1_6 1_555 1_555
C8_6 N3_6 1_555 1_555
H2_6 C8_6 1_555 1_555
C9_6 H3_6 1_555 1_555
C10_6 C4_6 1_555 1_555
C11_6 C5_6 1_555 1_555
H4_6 C11_6 1_555 1_555
C12_6 C6_6 1_555 1_555
H5_6 C12_6 1_555 1_555
C13_6 C1_6 1_555 1_555
H6_6 C13_6 1_555 1_555
C14_6 C9_6 1_555 1_555
C15_6 N3_6 1_555 1_555
H7_6 C15_6 1_555 1_555
C16_6 C5_6 1_555 1_555
H8_6 C16_6 1_555 1_555
C17_6 C14_6 1_555 1_555
H9_6 C17_6 1_555 1_555
C18_6 C1_6 1_555 1_555
C23_6 O4_6 1_555 1_555
H15_6 C23_6 1_555 1_555
N4_6 C23_6 1_555 1_555
C24_6 N4_6 1_555 1_555
H17_6 C24_6 1_555 1_555
H18_6 C24_6 1_555 1_555
C25_6 N4_6 1_555 1_555
H19_6 C25_6 1_555 1_555
H20_6 C25_6 1_555 1_555
H21_6 C25_6 1_555 1_555
Co8_3 N7_6 1_555 1_555
O9_4 C27_6 1_555 1_555
N5_6 C28_6 1_555 1_555
C26_6 C27_6 1_555 1_555
N7_6 C33_6 1_555 1_555
C28_6 C29_6 1_555 1_555
O7_6 Co8_3 1_555 1_555
C29_6 H22_6 1_555 1_555
C30_6 C28_6 1_555 1_555
C31_6 N5_6 1_555 1_555
C32_6 C31_6 1_555 1_555
C33_6 H23_6 1_555 1_555
C34_6 H24_6 1_555 1_555
C35_6 C29_6 1_555 1_555
C36_6 C30_6 1_555 1_555
H25_6 C36_6 1_555 1_555
C37_6 C31_6 1_555 1_555
H26_6 C37_6 1_555 1_555
C38_6 C26_6 1_555 1_555
H27_6 C38_6 1_555 1_555
C39_6 C34_6 1_555 1_555
C40_6 N7_6 1_555 1_555
H28_6 C40_6 1_555 1_555
C41_6 C30_6 1_555 1_555
H29_6 C41_6 1_555 1_555
C42_6 C39_6 1_555 1_555
H30_6 C42_6 1_555 1_555
C43_6 C26_6 1_555 1_555
C44_6 C32_6 1_555 1_555
H32_6 C44_6 1_555 1_555
C46_6 C32_6 1_555 1_555
H34_6 C46_6 1_555 1_555
C47_6 N10_3 1_555 1_555
H35_6 C47_6 1_555 1_555
C48_6 O7_6 1_555 1_555
H36_6 C48_6 1_555 1_555
N8_6 C48_6 1_555 1_555
C49_6 N8_6 1_555 1_555
H37_6 C49_6 1_555 1_555
H38_6 C49_6 1_555 1_555
H39_6 C49_6 1_555 1_555
C50_6 N8_6 1_555 1_555
H40_6 C50_6 1_555 1_555
H41_6 C50_6 1_555 1_555
H42_6 C50_6 1_555 1_555
C8_6 C16_6 1_555 1_555
C9_6 C13_6 1_555 1_555
C10_6 C12_6 1_555 1_555
C10_6 C14_6 1_555 1_555
C11_6 C15_6 1_555 1_555
C17_6 C18_6 1_555 1_555
C33_6 C41_6 1_555 1_555
C34_6 C38_6 1_555 1_555
C35_6 C37_6 1_555 1_555
C35_6 C39_6 1_555 1_555
C36_6 C40_6 1_555 1_555
C42_6 C43_6 1_555 1_555
C46_6 C47_6 1_555 1_555
C19_6 C7_6 1_555 1_555
H11_6 C19_6 1_555 1_555
C21_6 C7_6 1_555 1_555
H13_6 C21_6 1_555 1_555
C22_6 N9_3 1_555 1_555
H14_6 C22_6 1_555 1_555
C21_6 C22_6 1_555 1_555
H12_6 C20_6 1_555 1_555
O1_9 Co7_2 1_555 1_555
Co7_2 N7_7 1_555 1_555
N7_7 C33_7 1_555 1_555
O7_7 Co7_2 1_555 1_555
C33_7 H23_7 1_555 1_555
H25_7 C36_7 1_555 1_555
C40_7 N7_7 1_555 1_555
H28_7 C40_7 1_555 1_555
C48_7 O7_7 1_555 1_555
H36_7 C48_7 1_555 1_555
N8_7 C48_7 1_555 1_555
C49_7 N8_7 1_555 1_555
H37_7 C49_7 1_555 1_555
H38_7 C49_7 1_555 1_555
H39_7 C49_7 1_555 1_555
C50_7 N8_7 1_555 1_555
H40_7 C50_7 1_555 1_555
H41_7 C50_7 1_555 1_555
H42_7 C50_7 1_555 1_555
C33_7 C41_7 1_555 1_555
C36_7 C40_7 1_555 1_555
O9_3 C27_7 1_555 1_555
O11_3 C27_7 1_555 1_555
N5_7 C28_7 1_555 1_555
N9_2 C45_7 1_555 1_555
C26_7 C27_7 1_555 1_555
C28_7 C29_7 1_555 1_555
C29_7 H22_7 1_555 1_555
C30_7 C28_7 1_555 1_555
C31_7 N5_7 1_555 1_555
C32_7 C31_7 1_555 1_555
C34_7 H24_7 1_555 1_555
C35_7 C29_7 1_555 1_555
C37_7 C31_7 1_555 1_555
H26_7 C37_7 1_555 1_555
C38_7 C26_7 1_555 1_555
H27_7 C38_7 1_555 1_555
C39_7 C34_7 1_555 1_555
C42_7 C39_7 1_555 1_555
H30_7 C42_7 1_555 1_555
C43_7 C26_7 1_555 1_555
H31_7 C43_7 1_555 1_555
C44_7 C32_7 1_555 1_555
H32_7 C44_7 1_555 1_555
C45_7 C44_7 1_555 1_555
H33_7 C45_7 1_555 1_555
C46_7 C32_7 1_555 1_555
H34_7 C46_7 1_555 1_555
C47_7 N9_2 1_555 1_555
H35_7 C47_7 1_555 1_555
C34_7 C38_7 1_555 1_555
C35_7 C37_7 1_555 1_555
C35_7 C39_7 1_555 1_555
C42_7 C43_7 1_555 1_555
C46_7 C47_7 1_555 1_555
Co8_2 O1_10 1_555 1_555
O8_3 C2_7 1_555 1_555
O10_3 C2_7 1_555 1_555
N1_7 C3_7 1_555 1_555
N10_2 C20_7 1_555 1_555
C1_7 C2_7 1_555 1_555
N3_7 Co8_2 1_555 1_555
C3_7 C4_7 1_555 1_555
O4_7 Co8_2 1_555 1_555
C4_7 H1_7 1_555 1_555
C5_7 C3_7 1_555 1_555
C6_7 N1_7 1_555 1_555
C7_7 C6_7 1_555 1_555
C8_7 N3_7 1_555 1_555
H2_7 C8_7 1_555 1_555
C9_7 H3_7 1_555 1_555
C10_7 C4_7 1_555 1_555
C11_7 C5_7 1_555 1_555
H4_7 C11_7 1_555 1_555
C12_7 C6_7 1_555 1_555
H5_7 C12_7 1_555 1_555
C13_7 C1_7 1_555 1_555
H6_7 C13_7 1_555 1_555
C14_7 C9_7 1_555 1_555
C15_7 N3_7 1_555 1_555
H7_7 C15_7 1_555 1_555
C16_7 C5_7 1_555 1_555
H8_7 C16_7 1_555 1_555
C17_7 C14_7 1_555 1_555
H9_7 C17_7 1_555 1_555
C18_7 C1_7 1_555 1_555
H10_7 C18_7 1_555 1_555
C19_7 C7_7 1_555 1_555
H11_7 C19_7 1_555 1_555
C20_7 C19_7 1_555 1_555
H12_7 C20_7 1_555 1_555
C21_7 C7_7 1_555 1_555
H13_7 C21_7 1_555 1_555
C22_7 N10_2 1_555 1_555
H14_7 C22_7 1_555 1_555
C23_7 O4_7 1_555 1_555
H15_7 C23_7 1_555 1_555
N4_7 C23_7 1_555 1_555
C24_7 N4_7 1_555 1_555
H16_7 C24_7 1_555 1_555
H17_7 C24_7 1_555 1_555
H18_7 C24_7 1_555 1_555
C25_7 N4_7 1_555 1_555
H19_7 C25_7 1_555 1_555
H20_7 C25_7 1_555 1_555
H21_7 C25_7 1_555 1_555
C8_7 C16_7 1_555 1_555
C9_7 C13_7 1_555 1_555
C10_7 C12_7 1_555 1_555
C10_7 C14_7 1_555 1_555
C11_7 C15_7 1_555 1_555
C17_7 C18_7 1_555 1_555
C21_7 C22_7 1_555 1_555
N10 C45_8 1_555 1_555
C44_8 C32_8 1_555 1_555
H32_8 C44_8 1_555 1_555
C45_8 C44_8 1_555 1_555
H33_8 C45_8 1_555 1_555
C46_8 C32_8 1_555 1_555
H34_8 C46_8 1_555 1_555
C47_8 N10 1_555 1_555
H35_8 C47_8 1_555 1_555
C46_8 C47_8 1_555 1_555
O1_11 Co8 1_555 1_555
H19_8 C25_8 1_555 1_555
H20_8 C25_8 1_555 1_555
H21_8 C25_8 1_555 1_555
Co8 N7_8 1_555 1_555
O9_2 C27_8 1_555 1_555
O11_2 C27_8 1_555 1_555
N5_8 C28_8 1_555 1_555
C26_8 C27_8 1_555 1_555
N7_8 C33_8 1_555 1_555
C28_8 C29_8 1_555 1_555
O7_8 Co8 1_555 1_555
C29_8 H22_8 1_555 1_555
C30_8 C28_8 1_555 1_555
C31_8 N5_8 1_555 1_555
C33_8 H23_8 1_555 1_555
C34_8 H24_8 1_555 1_555
C35_8 C29_8 1_555 1_555
C36_8 C30_8 1_555 1_555
H25_8 C36_8 1_555 1_555
C37_8 C31_8 1_555 1_555
H26_8 C37_8 1_555 1_555
C38_8 C26_8 1_555 1_555
H27_8 C38_8 1_555 1_555
C39_8 C34_8 1_555 1_555
C40_8 N7_8 1_555 1_555
H28_8 C40_8 1_555 1_555
C41_8 C30_8 1_555 1_555
H29_8 C41_8 1_555 1_555
C42_8 C39_8 1_555 1_555
H30_8 C42_8 1_555 1_555
C43_8 C26_8 1_555 1_555
H31_8 C43_8 1_555 1_555
C48_8 O7_8 1_555 1_555
N8_8 C48_8 1_555 1_555
C49_8 N8_8 1_555 1_555
H38_8 C49_8 1_555 1_555
H39_8 C49_8 1_555 1_555
C33_8 C41_8 1_555 1_555
C34_8 C38_8 1_555 1_555
C35_8 C37_8 1_555 1_555
C35_8 C39_8 1_555 1_555
C36_8 C40_8 1_555 1_555
C42_8 C43_8 1_555 1_555
Co7 O1_12 1_555 1_555
O8_2 C2_8 1_555 1_555
O10_2 C2_8 1_555 1_555
N1_8 C3_8 1_555 1_555
N9 C20_8 1_555 1_555
C1_8 C2_8 1_555 1_555
N3_8 Co7 1_555 1_555
C3_8 C4_8 1_555 1_555
O4_8 Co7 1_555 1_555
C4_8 H1_8 1_555 1_555
C5_8 C3_8 1_555 1_555
C6_8 N1_8 1_555 1_555
C7_8 C6_8 1_555 1_555
C8_8 N3_8 1_555 1_555
H2_8 C8_8 1_555 1_555
C9_8 H3_8 1_555 1_555
C10_8 C4_8 1_555 1_555
C11_8 C5_8 1_555 1_555
H4_8 C11_8 1_555 1_555
C12_8 C6_8 1_555 1_555
H5_8 C12_8 1_555 1_555
C13_8 C1_8 1_555 1_555
H6_8 C13_8 1_555 1_555
C14_8 C9_8 1_555 1_555
C15_8 N3_8 1_555 1_555
H7_8 C15_8 1_555 1_555
C16_8 C5_8 1_555 1_555
H8_8 C16_8 1_555 1_555
C17_8 C14_8 1_555 1_555
H9_8 C17_8 1_555 1_555
C18_8 C1_8 1_555 1_555
H10_8 C18_8 1_555 1_555
C19_8 C7_8 1_555 1_555
H11_8 C19_8 1_555 1_555
C20_8 C19_8 1_555 1_555
H12_8 C20_8 1_555 1_555
C21_8 C7_8 1_555 1_555
H13_8 C21_8 1_555 1_555
C22_8 N9 1_555 1_555
H14_8 C22_8 1_555 1_555
C23_8 O4_8 1_555 1_555
N4_8 C23_8 1_555 1_555
C24_8 N4_8 1_555 1_555
H16_8 C24_8 1_555 1_555
H17_8 C24_8 1_555 1_555
H18_8 C24_8 1_555 1_555
H40_8 C50_8 1_555 1_555
H41_8 C50_8 1_555 1_555
H42_8 C50_8 1_555 1_555
C8_8 C16_8 1_555 1_555
C9_8 C13_8 1_555 1_555
C10_8 C12_8 1_555 1_555
C10_8 C14_8 1_555 1_555
C11_8 C15_8 1_555 1_555
C17_8 C18_8 1_555 1_555
C21_8 C22_8 1_555 1_555

#END
