
###############################################################################
#
# This file contains modified crystal structure data generated from the
# MOF subset of the Cambridge Structural Database (CSD) v543 
# hosted by the Cambridge Crystallographic Data Centre (CCDC).
#
# This work is licensed under the Creative Commons
# Attribution-NonCommercial-ShareAlike 4.0 International License.
# To view a copy of this license, visit
# http://creativecommons.org/licenses/by-nc-sa/4.0/
# or send a letter to
# Creative Commons, PO Box 1866, Mountain View, CA 94042, USA.
#
# CIF created using the CSD Python API on 29 September 2022
# The structure has been converted into the P1 space group
# The structure has a 3D framework
# The original CSD entry POVFOY is in the rhombohedral crystal system
# The framework has been calculated to contain at least 10.0% void space
# The void calculation uses a probe of radius 1.32A, grid spacing 0.4
#
###############################################################################

data_POVFOY
_chemical_formula_moiety         '(C162 H90 N90 Zn15)n'
_symmetry_cell_setting           triclinic
_symmetry_space_group_name_H-M   'P 1'
_symmetry_Int_Tables_number      1
_space_group_name_Hall           'P 1'
loop_
_symmetry_equiv_pos_site_id
_symmetry_equiv_pos_as_xyz
1 x,y,z
_cell_length_a                   23.27420(10)
_cell_length_b                   23.27420(10)
_cell_length_c                   10.78010(10)
_cell_angle_alpha                90
_cell_angle_beta                 90
_cell_angle_gamma                120
_cell_volume                     5057.12
loop_
_atom_site_label
_atom_site_type_symbol
_atom_site_fract_x
_atom_site_fract_y
_atom_site_fract_z
N1 N 0.52986(15) 0.63982(14) 0.3451(3)
N2 N 0.56770(14) 0.51947(14) 0.1955(3)
N3 N 0.53628(15) 0.46811(15) 0.3856(3)
N4 N 0.56093(14) 0.36940(14) 0.3151(3)
N5 N 0.58748(14) 0.40640(14) 0.1188(3)
C1 C 0.51170(19) 0.60921(18) 0.4569(4)
H1 H 0.498856 0.628608 0.518186
C2 C 0.51105(19) 0.55109(18) 0.4855(4)
H2 H 0.498492 0.531433 0.563352
C3 C 0.53048(19) 0.52355(17) 0.3902(4)
C4 C 0.54987(17) 0.55533(17) 0.2737(4)
C5 C 0.54816(18) 0.61305(17) 0.2529(4)
H3 H 0.559592 0.633418 0.175537
C6 C 0.55848(17) 0.46952(17) 0.2674(3)
C7 C 0.57034(16) 0.41635(15) 0.2317(4)
C8 C 0.57193(18) 0.32510(16) 0.2496(4)
H4 H 0.568923 0.286465 0.280976
C9 C 0.58814(18) 0.34776(17) 0.1297(4)
H5 H 0.597949 0.326902 0.066343
Zn2 Zn 0.52941(2) 0.39083(2) 0.48174(5)
Zn3 Zn 0.52809(3) 0.72416(2) 0.31507(5)
N6 N 0.69351(14) 0.55671(21) 0.0118(3)
Zn1 Zn 0.60917(2) 0.47059(2) 0.98174(5)
N7 N 0.53189(15) 0.46372(15) 0.8856(3)
N8 N 0.63060(14) 0.43907(14) 0.8151(3)
N2_2 N 0.48053(14) 0.04823(20) 0.1955(3)
N3_2 N 0.53189(15) 0.06817(21) 0.3856(3)
N4_2 N 0.63060(14) 0.19153(20) 0.3151(3)
N5_2 N 0.59360(14) 0.18108(20) 0.1188(3)
C3_2 C 0.47645(17) 0.00693(25) 0.3902(4)
C6_2 C 0.53048(17) 0.08896(24) 0.2674(3)
C7_2 C 0.58365(15) 0.15399(22) 0.2317(4)
C8_2 C 0.67490(16) 0.24683(24) 0.2496(4)
H4_2 H 0.713535 0.282458 0.280976
C9_2 C 0.65224(17) 0.24038(25) 0.1297(4)
H5_2 H 0.673098 0.271047 0.066343
Zn2_2 Zn 0.60917(2) 0.13858(3) 0.48174(5)
N6_2 N 0.44329(21) 0.13681(25) 0.0118(3)
Zn1_2 Zn 0.52941(2) 0.13858(3) 0.98174(5)
N7_2 N 0.53628(15) 0.06817(21) 0.8856(3)
N8_2 N 0.56093(14) 0.19153(20) 0.8151(3)
N1_2 N 0.10996(21) 0.47014(15) 0.3451(3)
C1_2 C 0.09751(26) 0.48830(19) 0.4569(4)
H1_2 H 0.129752 0.501144 0.518186
C2_2 C 0.04004(26) 0.48895(19) 0.4855(4)
H2_2 H 0.032941 0.501508 0.563352
C4_2 C 0.00546(24) 0.45013(17) 0.2737(4)
C5_2 C 0.06489(25) 0.45184(18) 0.2529(4)
H3_2 H 0.073826 0.440408 0.175537
Zn3_2 Zn 0.19608(4) 0.47191(3) 0.31507(5)
N2_3 N 0.95177(20) 0.43230(14) 0.1955(3)
N3_3 N 0.93183(21) 0.46372(15) 0.3856(3)
N4_3 N 0.80847(20) 0.43907(14) 0.3151(3)
N5_3 N 0.81892(20) 0.41252(14) 0.1188(3)
C3_3 C 0.99307(25) 0.46952(19) 0.3902(4)
C6_3 C 0.91104(24) 0.44152(17) 0.2674(3)
C7_3 C 0.84601(22) 0.42966(16) 0.2317(4)
C8_3 C 0.75317(24) 0.42807(18) 0.2496(4)
H4_3 H 0.717542 0.431077 0.280976
C9_3 C 0.75962(25) 0.41186(18) 0.1297(4)
H5_3 H 0.728953 0.402051 0.066343
Zn2_3 Zn 0.86142(3) 0.47059(2) 0.48174(5)
N6_3 N 0.86319(25) 0.30649(14) 0.0118(3)
Zn1_3 Zn 0.86142(3) 0.39083(2) 0.98174(5)
N7_3 N 0.93183(21) 0.46811(15) 0.8856(3)
N8_3 N 0.80847(20) 0.36940(14) 0.8151(3)
N1_3 N 0.36018(14) 0.47014(15) 0.8451(3)
N2_4 N 0.48053(14) 0.43230(14) 0.6955(3)
N5_4 N 0.59360(14) 0.41252(14) 0.6188(3)
C1_3 C 0.39079(18) 0.48830(19) 0.9569(4)
C2_3 C 0.44891(18) 0.48895(19) 0.9855(4)
C3_4 C 0.47645(17) 0.46952(19) 0.8902(4)
C4_3 C 0.44467(17) 0.45013(17) 0.7737(4)
C5_3 C 0.38695(17) 0.45184(18) 0.7529(4)
H3_3 H 0.366582 0.440408 0.675537
C6_4 C 0.53048(17) 0.44152(17) 0.7674(3)
C7_4 C 0.58365(15) 0.42966(16) 0.7317(4)
C8_4 C 0.67490(16) 0.42807(18) 0.7496(4)
H4_4 H 0.713535 0.431077 0.780976
C9_4 C 0.65224(17) 0.41186(18) 0.6297(4)
H5_4 H 0.673098 0.402051 0.566343
Zn3_3 Zn 0.27584(2) 0.47191(3) 0.81507(5)
N6_4 N 0.44329(21) 0.30649(14) 0.5118(3)
N2_5 N 0.95177(20) 0.51947(14) 0.6955(3)
N5_5 N 0.81892(20) 0.40640(14) 0.6188(3)
C3_5 C 0.99307(25) 0.52355(17) 0.8902(4)
C6_5 C 0.91104(24) 0.46952(17) 0.7674(3)
C7_5 C 0.84601(22) 0.41635(15) 0.7317(4)
C8_5 C 0.75317(24) 0.32510(16) 0.7496(4)
H4_5 H 0.717542 0.286465 0.780976
C9_5 C 0.75962(25) 0.34776(17) 0.6297(4)
H5_5 H 0.728953 0.326902 0.566343
N6_5 N 0.86319(25) 0.55671(21) 0.5118(3)
N2_6 N 0.56770(14) 0.04823(20) 0.6955(3)
N5_6 N 0.58748(14) 0.18108(20) 0.6188(3)
C3_6 C 0.53048(19) 0.00693(25) 0.8902(4)
C6_6 C 0.55848(17) 0.08896(24) 0.7674(3)
C7_6 C 0.57034(16) 0.15399(22) 0.7317(4)
C8_6 C 0.57193(18) 0.24683(24) 0.7496(4)
H4_6 H 0.568923 0.282458 0.780976
C9_6 C 0.58814(18) 0.24038(25) 0.6297(4)
H5_6 H 0.597949 0.271047 0.566343
N6_6 N 0.69351(14) 0.13681(25) 0.5118(3)
N1_4 N 0.52986(15) 0.89004(21) 0.8451(3)
C1_4 C 0.51170(19) 0.90249(26) 0.9569(4)
C2_4 C 0.51105(19) 0.95996(26) 0.9855(4)
C4_4 C 0.54987(17) 0.99454(24) 0.7737(4)
C5_4 C 0.54816(18) 0.93511(25) 0.7529(4)
H3_4 H 0.559592 0.926174 0.675537
Zn3_4 Zn 0.52809(3) 0.80392(4) 0.81507(5)
Zn3_5 Zn 0.19475(3) 0.05750(2) 0.64841(5)
N1_5 N 0.02685(14) 0.22337(21) 0.6784(3)
N2_7 N 0.14720(14) 0.38156(20) 0.5288(3)
N3_4 N 0.19856(15) 0.40150(21) 0.7189(3)
N4_4 N 0.29727(14) 0.52486(20) 0.6484(3)
N5_7 N 0.26027(14) 0.51441(20) 0.4521(3)
C1_5 C 0.05746(18) 0.23582(26) 0.7902(4)
H1_3 H 0.038059 0.203581 0.851519
C2_5 C 0.11558(18) 0.29329(26) 0.8188(4)
H2_3 H 0.135234 0.300392 0.896685
C3_7 C 0.14312(17) 0.34026(25) 0.7235(4)
C4_5 C 0.11134(17) 0.32787(24) 0.6070(4)
C5_5 C 0.05362(17) 0.26844(25) 0.5862(4)
H3_5 H 0.033249 0.259507 0.508870
C6_7 C 0.19715(17) 0.42229(24) 0.6007(3)
C7_7 C 0.25032(15) 0.48732(22) 0.5650(4)
C8_7 C 0.34157(16) 0.58016(24) 0.5829(4)
H4_7 H 0.380202 0.615791 0.614309
C9_7 C 0.31891(17) 0.57371(25) 0.4630(4)
H5_7 H 0.339765 0.604380 0.399676
N7_4 N 0.20295(15) 0.40150(21) 0.2189(3)
N8_4 N 0.22760(14) 0.52486(20) 0.1484(3)
Zn3_6 Zn 0.94250(2) 0.13726(4) 0.64841(5)
N1_6 N 0.77663(21) 0.80347(15) 0.6784(3)
N2_8 N 0.61844(20) 0.76563(14) 0.5288(3)
N3_5 N 0.59850(21) 0.79705(15) 0.7189(3)
N4_5 N 0.47514(20) 0.77240(14) 0.6484(3)
N5_8 N 0.48559(20) 0.74585(14) 0.4521(3)
C1_6 C 0.76418(26) 0.82163(19) 0.7902(4)
H1_4 H 0.796419 0.834477 0.851519
C2_6 C 0.70671(26) 0.82228(19) 0.8188(4)
H2_4 H 0.699608 0.834841 0.896685
C3_8 C 0.65974(25) 0.80285(19) 0.7235(4)
C4_6 C 0.67213(24) 0.78346(17) 0.6070(4)
C5_6 C 0.73156(25) 0.78517(18) 0.5862(4)
H3_6 H 0.740493 0.773741 0.508870
C6_8 C 0.57771(24) 0.77485(17) 0.6007(3)
C7_8 C 0.51268(22) 0.76299(16) 0.5650(4)
C8_8 C 0.41984(24) 0.76140(18) 0.5829(4)
H4_8 H 0.384209 0.764410 0.614309
C9_8 C 0.42629(25) 0.74519(18) 0.4630(4)
H5_8 H 0.395620 0.735384 0.399676
Zn3_7 Zn 0.86274(4) 0.80525(3) 0.64841(5)
N7_5 N 0.59850(21) 0.80144(15) 0.2189(3)
N8_5 N 0.47514(20) 0.70273(14) 0.1484(3)
Zn3_8 Zn 0.94250(2) 0.80525(3) 0.14841(5)
Zn3_9 Zn 0.86274(4) 0.05750(2) 0.14841(5)
N1_7 N 0.77663(21) 0.97315(14) 0.1784(3)
N2_9 N 0.61844(20) 0.85280(14) 0.0288(3)
C1_7 C 0.76418(26) 0.94254(18) 0.2902(4)
H1_5 H 0.796419 0.961941 0.351519
C2_7 C 0.70671(26) 0.88442(18) 0.3188(4)
H2_5 H 0.699608 0.864766 0.396685
C3_9 C 0.65974(25) 0.85688(17) 0.2235(4)
C4_7 C 0.67213(24) 0.88866(17) 0.1070(4)
C5_7 C 0.73156(25) 0.94638(17) 0.0862(4)
H3_7 H 0.740493 0.966751 0.008870
C6_9 C 0.57771(24) 0.80285(17) 0.1007(3)
C7_9 C 0.51268(22) 0.74968(15) 0.0650(4)
C8_9 C 0.41984(24) 0.65843(16) 0.0829(4)
H4_9 H 0.384209 0.619798 0.114309
N5_9 N 0.48559(20) 0.73973(14) 0.9521(3)
C9_9 C 0.42629(25) 0.68109(17) 0.9630(4)
H5_9 H 0.395620 0.660235 0.899676
N1_8 N 0.19653(15) 0.22337(21) 0.1784(3)
N2_10 N 0.23437(14) 0.38156(20) 0.0288(3)
C1_8 C 0.17837(19) 0.23582(26) 0.2902(4)
H1_6 H 0.165523 0.203581 0.351519
C2_8 C 0.17772(19) 0.29329(26) 0.3188(4)
H2_6 H 0.165159 0.300392 0.396685
C3_10 C 0.19715(19) 0.34026(25) 0.2235(4)
C4_8 C 0.21654(17) 0.32787(24) 0.1070(4)
C5_8 C 0.21483(18) 0.26844(25) 0.0862(4)
H3_8 H 0.226259 0.259507 0.008870
C6_10 C 0.22515(17) 0.42229(24) 0.1007(3)
C7_10 C 0.23701(16) 0.48732(22) 0.0650(4)
C8_10 C 0.23860(18) 0.58016(24) 0.0829(4)
H4_10 H 0.235590 0.615791 0.114309
Zn3_10 Zn 0.19475(3) 0.13726(4) 0.14841(5)
N5_10 N 0.25415(14) 0.51441(20) 0.9521(3)
C9_10 C 0.25481(18) 0.57371(25) 0.9630(4)
H5_10 H 0.264616 0.604380 0.899676
N3_6 N 0.86961(15) 0.13478(15) 0.0523(3)
C1_9 C 0.84503(19) 0.27588(18) 0.1236(4)
H1_7 H 0.832189 0.295275 0.184853
C2_9 C 0.84438(19) 0.21776(18) 0.1522(4)
H2_7 H 0.831825 0.198100 0.230019
C3_11 C 0.86381(19) 0.19022(17) 0.0569(4)
N2_11 N 0.90103(14) 0.18614(14) 0.8622(3)
N4_6 N 0.89426(14) 0.03607(14) 0.9818(3)
N5_11 N 0.92081(14) 0.07307(14) 0.7855(3)
C4_9 C 0.88320(17) 0.22200(17) 0.9404(4)
C5_9 C 0.88149(18) 0.27972(17) 0.9196(4)
H3_9 H 0.892925 0.300085 0.842204
C6_11 C 0.89181(17) 0.13619(17) 0.9341(3)
C7_11 C 0.90367(16) 0.08302(15) 0.8984(4)
C9_11 C 0.92147(18) 0.01443(17) 0.7964(4)
N7_6 N 0.86522(15) 0.13039(15) 0.5523(3)
N8_6 N 0.96393(14) 0.10574(14) 0.4818(3)
N3_7 N 0.86522(15) 0.73484(21) 0.0523(3)
C1_10 C 0.72412(18) 0.56916(26) 0.1236(4)
H1_8 H 0.704725 0.536915 0.184853
C2_10 C 0.78224(18) 0.62663(26) 0.1522(4)
H2_8 H 0.801900 0.633726 0.230019
C3_12 C 0.80978(17) 0.67360(25) 0.0569(4)
N2_12 N 0.81386(14) 0.71490(20) 0.8622(3)
N4_7 N 0.96393(14) 0.85820(20) 0.9818(3)
N5_12 N 0.92693(14) 0.84775(20) 0.7855(3)
C4_10 C 0.77800(17) 0.66121(24) 0.9404(4)
C5_10 C 0.72028(17) 0.60178(25) 0.9196(4)
H3_10 H 0.699915 0.592841 0.842204
C6_12 C 0.86381(17) 0.75563(24) 0.9341(3)
C7_12 C 0.91698(15) 0.82066(22) 0.8984(4)
C9_12 C 0.98557(17) 0.90705(25) 0.7964(4)
N7_7 N 0.86961(15) 0.73484(21) 0.5523(3)
N8_7 N 0.89426(14) 0.85820(20) 0.4818(3)
N3_8 N 0.26516(21) 0.13039(15) 0.0523(3)
C1_11 C 0.43084(26) 0.15497(19) 0.1236(4)
H1_9 H 0.463085 0.167811 0.184853
C2_11 C 0.37337(26) 0.15562(19) 0.1522(4)
H2_9 H 0.366274 0.168175 0.230019
C3_13 C 0.32640(25) 0.13619(19) 0.0569(4)
N2_13 N 0.28510(20) 0.09897(14) 0.8622(3)
N4_8 N 0.14180(20) 0.10574(14) 0.9818(3)
N5_13 N 0.15225(20) 0.07919(14) 0.7855(3)
C4_11 C 0.33879(24) 0.11680(17) 0.9404(4)
C5_11 C 0.39822(25) 0.11851(18) 0.9196(4)
H3_11 H 0.407159 0.107075 0.842204
C6_13 C 0.24437(24) 0.10819(17) 0.9341(3)
C7_13 C 0.17934(22) 0.09633(16) 0.8984(4)
C8_11 C 0.08650(24) 0.09474(18) 0.9163(4)
H4_11 H 0.050875 0.097744 0.947643
C9_13 C 0.09295(25) 0.07853(18) 0.7964(4)
H5_11 H 0.062286 0.068718 0.733010
N7_8 N 0.26516(21) 0.13478(15) 0.5523(3)
N8_8 N 0.14180(20) 0.03607(14) 0.4818(3)
N2_14 N 0.81386(14) 0.09897(14) 0.3622(3)
N5_14 N 0.92693(14) 0.07919(14) 0.2855(3)
C1_12 C 0.72412(18) 0.15497(19) 0.6236(4)
H1_10 H 0.704725 0.167811 0.684853
C2_12 C 0.78224(18) 0.15562(19) 0.6522(4)
H2_10 H 0.801900 0.168175 0.730019
C3_14 C 0.80978(17) 0.13619(19) 0.5569(4)
C4_12 C 0.77800(17) 0.11680(17) 0.4404(4)
C5_12 C 0.72028(17) 0.11851(18) 0.4196(4)
H3_12 H 0.699915 0.107075 0.342204
C6_14 C 0.86381(17) 0.10819(17) 0.4341(3)
C7_14 C 0.91698(15) 0.09633(16) 0.3984(4)
C9_14 C 0.98557(17) 0.07853(18) 0.2964(4)
N2_15 N 0.28510(20) 0.18614(14) 0.3622(3)
N5_15 N 0.15225(20) 0.07307(14) 0.2855(3)
C1_13 C 0.43084(26) 0.27588(18) 0.6236(4)
H1_11 H 0.463085 0.295275 0.684853
C2_13 C 0.37337(26) 0.21776(18) 0.6522(4)
H2_11 H 0.366274 0.198100 0.730019
C3_15 C 0.32640(25) 0.19022(17) 0.5569(4)
C4_13 C 0.33879(24) 0.22200(17) 0.4404(4)
C5_13 C 0.39822(25) 0.27972(17) 0.4196(4)
H3_13 H 0.407159 0.300085 0.342204
C6_15 C 0.24437(24) 0.13619(17) 0.4341(3)
C7_15 C 0.17934(22) 0.08302(15) 0.3984(4)
C9_15 C 0.09295(25) 0.01443(17) 0.2964(4)
N2_16 N 0.90103(14) 0.71490(20) 0.3622(3)
N5_16 N 0.92081(14) 0.84775(20) 0.2855(3)
C1_14 C 0.84503(19) 0.56916(26) 0.6236(4)
H1_12 H 0.832189 0.536915 0.684853
C2_14 C 0.84438(19) 0.62663(26) 0.6522(4)
H2_12 H 0.831825 0.633726 0.730019
C3_16 C 0.86381(19) 0.67360(25) 0.5569(4)
C4_14 C 0.88320(17) 0.66121(24) 0.4404(4)
C5_14 C 0.88149(18) 0.60178(25) 0.4196(4)
H3_14 H 0.892925 0.592841 0.342204
C6_16 C 0.89181(17) 0.75563(24) 0.4341(3)
C7_16 C 0.90367(16) 0.82066(22) 0.3984(4)
C8_12 C 0.90526(18) 0.91350(24) 0.4163(4)
H4_12 H 0.902256 0.949125 0.447643
C9_16 C 0.92147(18) 0.90705(25) 0.2964(4)
H5_12 H 0.931282 0.937714 0.233010
N1_9 N 0.36018(14) 0.89004(21) 0.3451(3)
C1_15 C 0.39079(18) 0.90249(26) 0.4569(4)
H1_13 H 0.371392 0.870248 0.518186
C2_15 C 0.44891(18) 0.95996(26) 0.4855(4)
H2_13 H 0.468567 0.967059 0.563352
C4_15 C 0.44467(17) 0.99454(24) 0.2737(4)
C5_15 C 0.38695(17) 0.93511(25) 0.2529(4)
H3_15 H 0.366582 0.926174 0.175537
Zn3_11 Zn 0.27584(2) 0.80392(4) 0.31507(5)
N1_10 N 0.10996(21) 0.63982(14) 0.8451(3)
C1_16 C 0.09751(26) 0.60921(18) 0.9569(4)
C2_16 C 0.04004(26) 0.55109(18) 0.9855(4)
C4_16 C 0.00546(24) 0.55533(17) 0.7737(4)
C5_16 C 0.06489(25) 0.61305(17) 0.7529(4)
H3_16 H 0.073826 0.633418 0.675537
Zn3_12 Zn 0.19608(4) 0.72416(2) 0.81507(5)
N1_11 N 0.19653(15) 0.97315(14) 0.6784(3)
N2_17 N 0.23437(14) 0.85280(14) 0.5288(3)
N3_9 N 0.20295(15) 0.80144(15) 0.7189(3)
N4_9 N 0.22760(14) 0.70273(14) 0.6484(3)
N5_17 N 0.25415(14) 0.73973(14) 0.4521(3)
C1_17 C 0.17837(19) 0.94254(18) 0.7902(4)
H1_14 H 0.165523 0.961941 0.851519
C2_17 C 0.17772(19) 0.88442(18) 0.8188(4)
H2_14 H 0.165159 0.864766 0.896685
C3_17 C 0.19715(19) 0.85688(17) 0.7235(4)
C4_17 C 0.21654(17) 0.88866(17) 0.6070(4)
C5_17 C 0.21483(18) 0.94638(17) 0.5862(4)
H3_17 H 0.226259 0.966751 0.508870
C6_17 C 0.22515(17) 0.80285(17) 0.6007(3)
C7_17 C 0.23701(16) 0.74968(15) 0.5650(4)
C8_13 C 0.23860(18) 0.65843(16) 0.5829(4)
H4_13 H 0.235590 0.619798 0.614309
C9_17 C 0.25481(18) 0.68109(17) 0.4630(4)
H5_13 H 0.264616 0.660235 0.399676
N7_9 N 0.19856(15) 0.79705(15) 0.2189(3)
N8_9 N 0.29727(14) 0.77240(14) 0.1484(3)
N1_12 N 0.02685(14) 0.80347(15) 0.1784(3)
N2_18 N 0.14720(14) 0.76563(14) 0.0288(3)
C1_18 C 0.05746(18) 0.82163(19) 0.2902(4)
H1_15 H 0.038059 0.834477 0.351519
C2_18 C 0.11558(18) 0.82228(19) 0.3188(4)
H2_15 H 0.135234 0.834841 0.396685
C3_18 C 0.14312(17) 0.80285(19) 0.2235(4)
C4_18 C 0.11134(17) 0.78346(17) 0.1070(4)
C5_18 C 0.05362(17) 0.78517(18) 0.0862(4)
H3_18 H 0.033249 0.773741 0.008870
C6_18 C 0.19715(17) 0.77485(17) 0.1007(3)
C7_18 C 0.25032(15) 0.76299(16) 0.0650(4)
C8_14 C 0.34157(16) 0.76140(18) 0.0829(4)
H4_14 H 0.380202 0.764410 0.114309
N5_18 N 0.26027(14) 0.74585(14) 0.9521(3)
C9_18 C 0.31891(17) 0.74519(18) 0.9630(4)
H5_14 H 0.339765 0.735384 0.899676
H1_16 H 0.371392 0.501144 0.018186
H2_16 H 0.468567 0.501508 0.063352
H1_17 H 0.129752 0.628608 0.018186
H2_17 H 0.032941 0.531433 0.063352
H1_18 H 0.498856 0.870248 0.018186
H2_18 H 0.498492 0.967059 0.063352
C8_15 C 0.90526(18) 0.99177(16) 0.9163(4)
H4_15 H 0.902256 0.953132 0.947643
H5_15 H 0.931282 0.993569 0.733010
C8_16 C 0.00823(16) 0.91350(24) 0.9163(4)
H4_16 H 0.046868 0.949125 0.947643
H5_16 H 0.006431 0.937714 0.733010
C8_17 C 0.00823(16) 0.09474(18) 0.4163(4)
H4_17 H 0.046868 0.097744 0.447643
H5_17 H 0.006431 0.068718 0.233010
C8_18 C 0.08650(24) 0.99177(16) 0.4163(4)
H4_18 H 0.050875 0.953132 0.447643
H5_18 H 0.062286 0.993569 0.233010
loop_
_geom_bond_atom_site_label_1
_geom_bond_atom_site_label_2
_geom_bond_site_symmetry_1
_geom_bond_site_symmetry_2
N1 C1 1_555 1_555
N2 C4 1_555 1_555
N3 C3 1_555 1_555
N4 C7 1_555 1_555
N5 C7 1_555 1_555
C1 H1 1_555 1_555
C2 C1 1_555 1_555
H2 C2 1_555 1_555
C3 C2 1_555 1_555
C4 C3 1_555 1_555
C5 N1 1_555 1_555
H3 C5 1_555 1_555
C6 N2 1_555 1_555
C7 C6 1_555 1_555
C8 N4 1_555 1_555
H4 C8 1_555 1_555
C9 N5 1_555 1_555
H5 C9 1_555 1_555
Zn2 N3 1_555 1_555
Zn3 N1 1_555 1_555
N3 C6 1_555 1_555
N4 Zn2 1_555 1_555
C4 C5 1_555 1_555
C8 C9 1_555 1_555
N7 Zn1 1_555 1_555
N8 Zn1 1_555 1_555
N3_2 C3_2 1_555 1_555
N4_2 C7_2 1_555 1_555
N5_2 C7_2 1_555 1_555
C6_2 N2_2 1_555 1_555
C7_2 C6_2 1_555 1_555
C8_2 N4_2 1_555 1_555
H4_2 C8_2 1_555 1_555
C9_2 N5_2 1_555 1_555
H5_2 C9_2 1_555 1_555
Zn2_2 N3_2 1_555 1_555
N3_2 C6_2 1_555 1_555
N4_2 Zn2_2 1_555 1_555
C8_2 C9_2 1_555 1_555
N7_2 Zn1_2 1_555 1_555
N8_2 Zn1_2 1_555 1_555
N1_2 C1_2 1_555 1_555
C1_2 H1_2 1_555 1_555
C2_2 C1_2 1_555 1_555
H2_2 C2_2 1_555 1_555
C5_2 N1_2 1_555 1_555
H3_2 C5_2 1_555 1_555
Zn3_2 N1_2 1_555 1_555
C4_2 C5_2 1_555 1_555
N3_3 C3_3 1_555 1_555
N4_3 C7_3 1_555 1_555
N5_3 C7_3 1_555 1_555
C6_3 N2_3 1_555 1_555
C7_3 C6_3 1_555 1_555
C8_3 N4_3 1_555 1_555
H4_3 C8_3 1_555 1_555
C9_3 N5_3 1_555 1_555
H5_3 C9_3 1_555 1_555
Zn2_3 N3_3 1_555 1_555
N3_3 C6_3 1_555 1_555
N4_3 Zn2_3 1_555 1_555
C8_3 C9_3 1_555 1_555
N7_3 Zn1_3 1_555 1_555
N8_3 Zn1_3 1_555 1_555
Zn2 N5_4 1_555 1_555
N1_3 C1_3 1_555 1_555
N2_4 C4_3 1_555 1_555
N7 C3_4 1_555 1_555
N8 C7_4 1_555 1_555
N5_4 C7_4 1_555 1_555
C2_3 C1_3 1_555 1_555
C3_4 C2_3 1_555 1_555
C4_3 C3_4 1_555 1_555
C5_3 N1_3 1_555 1_555
H3_3 C5_3 1_555 1_555
C6_4 N2_4 1_555 1_555
C7_4 C6_4 1_555 1_555
C8_4 N8 1_555 1_555
H4_4 C8_4 1_555 1_555
C9_4 N5_4 1_555 1_555
H5_4 C9_4 1_555 1_555
Zn3_3 N1_3 1_555 1_555
N6_4 Zn2 1_555 1_555
N7 C6_4 1_555 1_555
C4_3 C5_3 1_555 1_555
C8_4 C9_4 1_555 1_555
Zn2_3 N5_5 1_555 1_555
N7_3 C3_5 1_555 1_555
N8_3 C7_5 1_555 1_555
N5_5 C7_5 1_555 1_555
C6_5 N2_5 1_555 1_555
C7_5 C6_5 1_555 1_555
C8_5 N8_3 1_555 1_555
H4_5 C8_5 1_555 1_555
C9_5 N5_5 1_555 1_555
H5_5 C9_5 1_555 1_555
N6_5 Zn2_3 1_555 1_555
N7_3 C6_5 1_555 1_555
C8_5 C9_5 1_555 1_555
Zn2_2 N5_6 1_555 1_555
N7_2 C3_6 1_555 1_555
N8_2 C7_6 1_555 1_555
N5_6 C7_6 1_555 1_555
C6_6 N2_6 1_555 1_555
C7_6 C6_6 1_555 1_555
C8_6 N8_2 1_555 1_555
H4_6 C8_6 1_555 1_555
C9_6 N5_6 1_555 1_555
H5_6 C9_6 1_555 1_555
N6_6 Zn2_2 1_555 1_555
N7_2 C6_6 1_555 1_555
C8_6 C9_6 1_555 1_555
N1_4 C1_4 1_555 1_555
C2_4 C1_4 1_555 1_555
C5_4 N1_4 1_555 1_555
H3_4 C5_4 1_555 1_555
Zn3_4 N1_4 1_555 1_555
C4_4 C5_4 1_555 1_555
Zn3_2 N5_7 1_555 1_555
N1_5 C1_5 1_555 1_555
N2_7 C4_5 1_555 1_555
N3_4 C3_7 1_555 1_555
N4_4 C7_7 1_555 1_555
N5_7 C7_7 1_555 1_555
C1_5 H1_3 1_555 1_555
C2_5 C1_5 1_555 1_555
H2_3 C2_5 1_555 1_555
C3_7 C2_5 1_555 1_555
C4_5 C3_7 1_555 1_555
C5_5 N1_5 1_555 1_555
H3_5 C5_5 1_555 1_555
C6_7 N2_7 1_555 1_555
C7_7 C6_7 1_555 1_555
C8_7 N4_4 1_555 1_555
H4_7 C8_7 1_555 1_555
C9_7 N5_7 1_555 1_555
H5_7 C9_7 1_555 1_555
Zn3_3 N3_4 1_555 1_555
N7_4 Zn3_2 1_555 1_555
N8_4 Zn3_2 1_555 1_555
N3_4 C6_7 1_555 1_555
N4_4 Zn3_3 1_555 1_555
C4_5 C5_5 1_555 1_555
C8_7 C9_7 1_555 1_555
Zn3 N5_8 1_555 1_555
N1_6 C1_6 1_555 1_555
N2_8 C4_6 1_555 1_555
N3_5 C3_8 1_555 1_555
N4_5 C7_8 1_555 1_555
N5_8 C7_8 1_555 1_555
C1_6 H1_4 1_555 1_555
C2_6 C1_6 1_555 1_555
H2_4 C2_6 1_555 1_555
C3_8 C2_6 1_555 1_555
C4_6 C3_8 1_555 1_555
C5_6 N1_6 1_555 1_555
H3_6 C5_6 1_555 1_555
C6_8 N2_8 1_555 1_555
C7_8 C6_8 1_555 1_555
C8_8 N4_5 1_555 1_555
H4_8 C8_8 1_555 1_555
C9_8 N5_8 1_555 1_555
H5_8 C9_8 1_555 1_555
Zn3_4 N3_5 1_555 1_555
Zn3_7 N1_6 1_555 1_555
N7_5 Zn3 1_555 1_555
N8_5 Zn3 1_555 1_555
N3_5 C6_8 1_555 1_555
N4_5 Zn3_4 1_555 1_555
C4_6 C5_6 1_555 1_555
C8_8 C9_8 1_555 1_555
N1_7 C1_7 1_555 1_555
N2_9 C4_7 1_555 1_555
N7_5 C3_9 1_555 1_555
N8_5 C7_9 1_555 1_555
C1_7 H1_5 1_555 1_555
C2_7 C1_7 1_555 1_555
H2_5 C2_7 1_555 1_555
C3_9 C2_7 1_555 1_555
C4_7 C3_9 1_555 1_555
C5_7 N1_7 1_555 1_555
H3_7 C5_7 1_555 1_555
C6_9 N2_9 1_555 1_555
C7_9 C6_9 1_555 1_555
C8_9 N8_5 1_555 1_555
H4_9 C8_9 1_555 1_555
N7_5 C6_9 1_555 1_555
C4_7 C5_7 1_555 1_555
Zn3_4 N5_9 1_555 1_555
C9_9 N5_9 1_555 1_555
H5_9 C9_9 1_555 1_555
N1_8 C1_8 1_555 1_555
N2_10 C4_8 1_555 1_555
N7_4 C3_10 1_555 1_555
N8_4 C7_10 1_555 1_555
C1_8 H1_6 1_555 1_555
C2_8 C1_8 1_555 1_555
H2_6 C2_8 1_555 1_555
C3_10 C2_8 1_555 1_555
C4_8 C3_10 1_555 1_555
C5_8 N1_8 1_555 1_555
H3_8 C5_8 1_555 1_555
C6_10 N2_10 1_555 1_555
C7_10 C6_10 1_555 1_555
C8_10 N8_4 1_555 1_555
H4_10 C8_10 1_555 1_555
Zn3_10 N1_8 1_555 1_555
N7_4 C6_10 1_555 1_555
C4_8 C5_8 1_555 1_555
Zn3_3 N5_10 1_555 1_555
C9_10 N5_10 1_555 1_555
H5_10 C9_10 1_555 1_555
N6_3 C1_9 1_555 1_555
N3_6 C3_11 1_555 1_555
C1_9 H1_7 1_555 1_555
C2_9 C1_9 1_555 1_555
H2_7 C2_9 1_555 1_555
C3_11 C2_9 1_555 1_555
Zn3_9 N3_6 1_555 1_555
Zn3_6 N5_11 1_555 1_555
N2_11 C4_9 1_555 1_555
N4_6 C7_11 1_555 1_555
N5_11 C7_11 1_555 1_555
H3_9 C5_9 1_555 1_555
C6_11 N2_11 1_555 1_555
C7_11 C6_11 1_555 1_555
C9_11 N5_11 1_555 1_555
N7_6 Zn3_6 1_555 1_555
N8_6 Zn3_6 1_555 1_555
C4_9 C5_9 1_555 1_555
N6 C1_10 1_555 1_555
N3_7 C3_12 1_555 1_555
C1_10 H1_8 1_555 1_555
C2_10 C1_10 1_555 1_555
H2_8 C2_10 1_555 1_555
C3_12 C2_10 1_555 1_555
Zn3_8 N3_7 1_555 1_555
Zn3_7 N5_12 1_555 1_555
N2_12 C4_10 1_555 1_555
N4_7 C7_12 1_555 1_555
N5_12 C7_12 1_555 1_555
H3_10 C5_10 1_555 1_555
C6_12 N2_12 1_555 1_555
C7_12 C6_12 1_555 1_555
C9_12 N5_12 1_555 1_555
N7_7 Zn3_7 1_555 1_555
N8_7 Zn3_7 1_555 1_555
C4_10 C5_10 1_555 1_555
N6_2 C1_11 1_555 1_555
N3_8 C3_13 1_555 1_555
C1_11 H1_9 1_555 1_555
C2_11 C1_11 1_555 1_555
H2_9 C2_11 1_555 1_555
C3_13 C2_11 1_555 1_555
Zn3_10 N3_8 1_555 1_555
Zn3_5 N5_13 1_555 1_555
N2_13 C4_11 1_555 1_555
N4_8 C7_13 1_555 1_555
N5_13 C7_13 1_555 1_555
H3_11 C5_11 1_555 1_555
C6_13 N2_13 1_555 1_555
C7_13 C6_13 1_555 1_555
C8_11 N4_8 1_555 1_555
H4_11 C8_11 1_555 1_555
C9_13 N5_13 1_555 1_555
H5_11 C9_13 1_555 1_555
N7_8 Zn3_5 1_555 1_555
N8_8 Zn3_5 1_555 1_555
C4_11 C5_11 1_555 1_555
C8_11 C9_13 1_555 1_555
Zn3_9 N5_14 1_555 1_555
N6_6 C1_12 1_555 1_555
N2_14 C4_12 1_555 1_555
N7_6 C3_14 1_555 1_555
N8_6 C7_14 1_555 1_555
N5_14 C7_14 1_555 1_555
C1_12 H1_10 1_555 1_555
C2_12 C1_12 1_555 1_555
H2_10 C2_12 1_555 1_555
C3_14 C2_12 1_555 1_555
C4_12 C3_14 1_555 1_555
C5_12 N6_6 1_555 1_555
H3_12 C5_12 1_555 1_555
C6_14 N2_14 1_555 1_555
C7_14 C6_14 1_555 1_555
C9_14 N5_14 1_555 1_555
N7_6 C6_14 1_555 1_555
C4_12 C5_12 1_555 1_555
Zn3_10 N5_15 1_555 1_555
N6_4 C1_13 1_555 1_555
N2_15 C4_13 1_555 1_555
N7_8 C3_15 1_555 1_555
N8_8 C7_15 1_555 1_555
N5_15 C7_15 1_555 1_555
C1_13 H1_11 1_555 1_555
C2_13 C1_13 1_555 1_555
H2_11 C2_13 1_555 1_555
C3_15 C2_13 1_555 1_555
C4_13 C3_15 1_555 1_555
C5_13 N6_4 1_555 1_555
H3_13 C5_13 1_555 1_555
C6_15 N2_15 1_555 1_555
C7_15 C6_15 1_555 1_555
C9_15 N5_15 1_555 1_555
N7_8 C6_15 1_555 1_555
C4_13 C5_13 1_555 1_555
Zn3_8 N5_16 1_555 1_555
N6_5 C1_14 1_555 1_555
N2_16 C4_14 1_555 1_555
N7_7 C3_16 1_555 1_555
N8_7 C7_16 1_555 1_555
N5_16 C7_16 1_555 1_555
C1_14 H1_12 1_555 1_555
C2_14 C1_14 1_555 1_555
H2_12 C2_14 1_555 1_555
C3_16 C2_14 1_555 1_555
C4_14 C3_16 1_555 1_555
C5_14 N6_5 1_555 1_555
H3_14 C5_14 1_555 1_555
C6_16 N2_16 1_555 1_555
C7_16 C6_16 1_555 1_555
C8_12 N8_7 1_555 1_555
H4_12 C8_12 1_555 1_555
C9_16 N5_16 1_555 1_555
H5_12 C9_16 1_555 1_555
N7_7 C6_16 1_555 1_555
C4_14 C5_14 1_555 1_555
C8_12 C9_16 1_555 1_555
N1_9 C1_15 1_555 1_555
C1_15 H1_13 1_555 1_555
C2_15 C1_15 1_555 1_555
H2_13 C2_15 1_555 1_555
C5_15 N1_9 1_555 1_555
H3_15 C5_15 1_555 1_555
Zn3_11 N1_9 1_555 1_555
C4_15 C5_15 1_555 1_555
N1_10 C1_16 1_555 1_555
C2_16 C1_16 1_555 1_555
C5_16 N1_10 1_555 1_555
H3_16 C5_16 1_555 1_555
Zn3_12 N1_10 1_555 1_555
C4_16 C5_16 1_555 1_555
Zn3_11 N5_17 1_555 1_555
N1_11 C1_17 1_555 1_555
N2_17 C4_17 1_555 1_555
N3_9 C3_17 1_555 1_555
N4_9 C7_17 1_555 1_555
N5_17 C7_17 1_555 1_555
C1_17 H1_14 1_555 1_555
C2_17 C1_17 1_555 1_555
H2_14 C2_17 1_555 1_555
C3_17 C2_17 1_555 1_555
C4_17 C3_17 1_555 1_555
C5_17 N1_11 1_555 1_555
H3_17 C5_17 1_555 1_555
C6_17 N2_17 1_555 1_555
C7_17 C6_17 1_555 1_555
C8_13 N4_9 1_555 1_555
H4_13 C8_13 1_555 1_555
C9_17 N5_17 1_555 1_555
H5_13 C9_17 1_555 1_555
Zn3_12 N3_9 1_555 1_555
N7_9 Zn3_11 1_555 1_555
N8_9 Zn3_11 1_555 1_555
N3_9 C6_17 1_555 1_555
N4_9 Zn3_12 1_555 1_555
C4_17 C5_17 1_555 1_555
C8_13 C9_17 1_555 1_555
N1_12 C1_18 1_555 1_555
N2_18 C4_18 1_555 1_555
N7_9 C3_18 1_555 1_555
N8_9 C7_18 1_555 1_555
C1_18 H1_15 1_555 1_555
C2_18 C1_18 1_555 1_555
H2_15 C2_18 1_555 1_555
C3_18 C2_18 1_555 1_555
C4_18 C3_18 1_555 1_555
C5_18 N1_12 1_555 1_555
H3_18 C5_18 1_555 1_555
C6_18 N2_18 1_555 1_555
C7_18 C6_18 1_555 1_555
C8_14 N8_9 1_555 1_555
H4_14 C8_14 1_555 1_555
N7_9 C6_18 1_555 1_555
C4_18 C5_18 1_555 1_555
Zn3_12 N5_18 1_555 1_555
C9_18 N5_18 1_555 1_555
H5_14 C9_18 1_555 1_555
H4_15 C8_15 1_555 1_555
H4_16 C8_16 1_555 1_555
H4_17 C8_17 1_555 1_555
H4_18 C8_18 1_555 1_555

#END
