
###############################################################################
#
# This file contains modified crystal structure data generated from the
# MOF subset of the Cambridge Structural Database (CSD) v543 
# hosted by the Cambridge Crystallographic Data Centre (CCDC).
#
# This work is licensed under the Creative Commons
# Attribution-NonCommercial-ShareAlike 4.0 International License.
# To view a copy of this license, visit
# http://creativecommons.org/licenses/by-nc-sa/4.0/
# or send a letter to
# Creative Commons, PO Box 1866, Mountain View, CA 94042, USA.
#
# CIF created using the CSD Python API on 29 September 2022
# The structure has been converted into the P1 space group
# The structure has a 3D framework
# The original CSD entry POVFUE is in the rhombohedral crystal system
# The framework has been calculated to contain at least 10.0% void space
# The void calculation uses a probe of radius 1.32A, grid spacing 0.4
#
###############################################################################

data_POVFUE
_chemical_formula_moiety         '(C162 H90 N90 Zn18)n'
_symmetry_cell_setting           triclinic
_symmetry_space_group_name_H-M   'P 1'
_symmetry_Int_Tables_number      1
_space_group_name_Hall           'P 1'
loop_
_symmetry_equiv_pos_site_id
_symmetry_equiv_pos_as_xyz
1 x,y,z
_cell_length_a                   23.2673(7)
_cell_length_b                   23.2673(7)
_cell_length_c                   10.7187(5)
_cell_angle_alpha                90
_cell_angle_beta                 90
_cell_angle_gamma                120
_cell_volume                     5025.33
loop_
_atom_site_label
_atom_site_type_symbol
_atom_site_fract_x
_atom_site_fract_y
_atom_site_fract_z
N2 N 0.5195(3) 0.5690(3) 0.1215(6)
N4 N 0.3684(3) 0.5601(3) 0.0009(6)
N5 N 0.4062(3) 0.5878(3) 0.1978(6)
C1 C 0.6134(3) 0.5499(3) 0.0633(7)
H1 H 0.634025 0.562054 0.140846
C2 C 0.5555(3) 0.5516(3) 0.0420(7)
C6 C 0.4695(3) 0.5592(3) 0.0489(7)
C7 C 0.4154(3) 0.5707(3) 0.0853(7)
C8 C 0.3468(3) 0.5880(3) 0.1878(7)
H4 H 0.326074 0.597992 0.251550
C9 C 0.3239(3) 0.5709(3) 0.0682(7)
H5 H 0.284825 0.567185 0.037166
Zn2 Zn 0.47114(4) 0.61001(4) 0.33409(9)
Zn3 Zn 0.72332(4) 0.52780(6) 0.00076(9)
Zn1 Zn 0.38999(4) 0.52886(4) 0.83409(9)
N1 N 0.6398(3) 0.5308(3) 0.9716(6)
N3 N 0.4675(3) 0.5369(3) 0.9303(6)
C3 C 0.5236(3) 0.5318(3) 0.9250(7)
C4 C 0.5513(3) 0.5121(3) 0.8301(8)
H2 H 0.531717 0.499332 0.751769
C5 C 0.6090(3) 0.5125(3) 0.8591(8)
H3 H 0.628289 0.499445 0.797631
N6 N 0.3065(3) 0.4423(4) 0.8049(6)
N7 N 0.4122(3) 0.5938(3) 0.6978(6)
C1_2 C 0.4501(3) 0.0635(4) 0.0633(7)
H1_2 H 0.437946 0.071971 0.140846
C2_2 C 0.4484(3) 0.0039(4) 0.0420(7)
Zn3_2 Zn 0.47220(6) 0.19553(7) 0.00076(9)
N1_2 N 0.4692(3) 0.1090(4) 0.9716(6)
C4_2 C 0.4879(3) 0.0392(4) 0.8301(8)
H2_2 H 0.500668 0.032385 0.751769
C5_2 C 0.4875(3) 0.0965(4) 0.8591(8)
H3_2 H 0.500555 0.128844 0.797631
N2_2 N 0.4310(3) 0.9505(4) 0.1215(6)
N4_2 N 0.4399(3) 0.8083(4) 0.0009(6)
N5_2 N 0.4122(3) 0.8184(4) 0.1978(6)
C6_2 C 0.4408(3) 0.9103(4) 0.0489(7)
C7_2 C 0.4293(3) 0.8447(4) 0.0853(7)
C8_2 C 0.4120(3) 0.7588(4) 0.1878(7)
H4_2 H 0.402008 0.728082 0.251550
C9_2 C 0.4291(3) 0.7530(4) 0.0682(7)
H5_2 H 0.432815 0.717640 0.037166
Zn2_2 Zn 0.38999(4) 0.86113(6) 0.33409(9)
Zn1_2 Zn 0.47114(4) 0.86113(6) 0.83409(9)
N3_2 N 0.4631(3) 0.9306(4) 0.9303(6)
C3_2 C 0.4682(3) 0.9918(4) 0.9250(7)
N6_2 N 0.5577(4) 0.8641(5) 0.8049(6)
N7_2 N 0.4062(3) 0.8184(4) 0.6978(6)
N2_3 N 0.0495(4) 0.4805(3) 0.1215(6)
N4_3 N 0.1917(4) 0.6316(3) 0.0009(6)
N5_3 N 0.1816(4) 0.5938(3) 0.1978(6)
C6_3 C 0.0897(4) 0.5305(3) 0.0489(7)
C7_3 C 0.1553(4) 0.5846(3) 0.0853(7)
C8_3 C 0.2412(4) 0.6532(3) 0.1878(7)
H4_3 H 0.271918 0.673926 0.251550
C9_3 C 0.2470(4) 0.6761(3) 0.0682(7)
H5_3 H 0.282360 0.715175 0.037166
Zn2_3 Zn 0.13887(6) 0.52886(4) 0.33409(9)
Zn1_3 Zn 0.13887(6) 0.61001(4) 0.83409(9)
N3_3 N 0.0694(4) 0.5325(3) 0.9303(6)
C3_3 C 0.0082(4) 0.4764(3) 0.9250(7)
N6_3 N 0.1359(5) 0.6935(3) 0.8049(6)
N7_3 N 0.1816(4) 0.5878(3) 0.6978(6)
N1_3 N 0.4692(3) 0.3602(3) 0.4716(6)
N2_4 N 0.4310(3) 0.4805(3) 0.6215(6)
N3_4 N 0.4631(3) 0.5325(3) 0.4303(6)
N4_4 N 0.4399(3) 0.6316(3) 0.5009(6)
C1_3 C 0.4501(3) 0.3866(3) 0.5633(7)
H1_3 H 0.437946 0.365975 0.640846
C2_3 C 0.4484(3) 0.4445(3) 0.5420(7)
C3_4 C 0.4682(3) 0.4764(3) 0.4250(7)
C4_3 C 0.4879(3) 0.4487(3) 0.3301(8)
H2_3 H 0.500668 0.468283 0.251769
C5_3 C 0.4875(3) 0.3910(3) 0.3591(8)
H3_3 H 0.500555 0.371711 0.297631
C6_4 C 0.4408(3) 0.5305(3) 0.5489(7)
C7_4 C 0.4293(3) 0.5846(3) 0.5853(7)
C8_4 C 0.4120(3) 0.6532(3) 0.6878(7)
H4_4 H 0.402008 0.673926 0.751550
C9_4 C 0.4291(3) 0.6761(3) 0.5682(7)
H5_4 H 0.432815 0.715175 0.537166
Zn3_3 Zn 0.47220(6) 0.27668(4) 0.50076(9)
N6_4 N 0.5577(4) 0.6935(3) 0.3049(6)
N2_5 N 0.0495(4) 0.5690(3) 0.6215(6)
N3_5 N 0.0694(4) 0.5369(3) 0.4303(6)
N4_5 N 0.1917(4) 0.5601(3) 0.5009(6)
C3_5 C 0.0082(4) 0.5318(3) 0.4250(7)
C6_5 C 0.0897(4) 0.5592(3) 0.5489(7)
C7_5 C 0.1553(4) 0.5707(3) 0.5853(7)
C8_5 C 0.2412(4) 0.5880(3) 0.6878(7)
H4_5 H 0.271918 0.597992 0.751550
C9_5 C 0.2470(4) 0.5709(3) 0.5682(7)
H5_5 H 0.282360 0.567185 0.537166
N6_5 N 0.1359(5) 0.4423(4) 0.3049(6)
N1_4 N 0.8910(4) 0.5308(3) 0.4716(6)
C1_4 C 0.9365(4) 0.5499(3) 0.5633(7)
H1_4 H 0.928029 0.562054 0.640846
C2_4 C 0.9961(4) 0.5516(3) 0.5420(7)
C4_4 C 0.9608(4) 0.5121(3) 0.3301(8)
H2_4 H 0.967615 0.499332 0.251769
C5_4 C 0.9035(4) 0.5125(3) 0.3591(8)
H3_4 H 0.871156 0.499445 0.297631
Zn3_4 Zn 0.80447(7) 0.52780(6) 0.50076(9)
N2_6 N 0.5195(3) 0.9505(4) 0.6215(6)
N3_6 N 0.4675(3) 0.9306(4) 0.4303(6)
N4_6 N 0.3684(3) 0.8083(4) 0.5009(6)
C3_6 C 0.5236(3) 0.9918(4) 0.4250(7)
C6_6 C 0.4695(3) 0.9103(4) 0.5489(7)
C7_6 C 0.4154(3) 0.8447(4) 0.5853(7)
C8_6 C 0.3468(3) 0.7588(4) 0.6878(7)
H4_6 H 0.326074 0.728082 0.751550
C9_6 C 0.3239(3) 0.7530(4) 0.5682(7)
H5_6 H 0.284825 0.717640 0.537166
N6_6 N 0.3065(3) 0.8641(5) 0.3049(6)
Zn1_4 Zn 0.05666(4) 0.86219(4) 0.16742(9)
N2_7 N 0.1862(3) 0.9023(3) 0.4548(6)
N3_7 N 0.1342(3) 0.8702(3) 0.2636(6)
N4_7 N 0.0351(3) 0.8934(3) 0.3342(6)
N5_4 N 0.0729(3) 0.9211(3) 0.5311(6)
C1_5 C 0.2801(3) 0.8832(3) 0.3966(7)
H1_5 H 0.300692 0.895387 0.474179
C2_5 C 0.2222(3) 0.8849(3) 0.3753(7)
C3_7 C 0.1903(3) 0.8651(3) 0.2583(7)
C4_5 C 0.2180(3) 0.8454(3) 0.1634(8)
H2_5 H 0.198384 0.832665 0.085102
C5_5 C 0.2757(3) 0.8458(3) 0.1924(8)
H3_5 H 0.294956 0.832778 0.130964
C6_7 C 0.1362(3) 0.8925(3) 0.3822(7)
C7_7 C 0.0821(3) 0.9040(3) 0.4186(7)
C8_7 C 0.0135(3) 0.9213(3) 0.5211(7)
Zn2_4 Zn 0.13781(4) 0.94334(4) 0.66742(9)
N7_4 N 0.0789(3) 0.9271(3) 0.0311(6)
H4_7 H 0.992741 0.931325 0.584883
C9_7 C 0.9906(3) 0.9042(3) 0.4015(7)
H5_7 H 0.951492 0.900518 0.370499
N6_7 N 0.9731(3) 0.7757(4) 0.1383(6)
Zn1_5 Zn 0.13781(4) 0.19446(6) 0.16742(9)
N2_8 N 0.0977(3) 0.2838(4) 0.4548(6)
N3_8 N 0.1298(3) 0.2639(4) 0.2636(6)
N4_8 N 0.1066(3) 0.1416(4) 0.3342(6)
N5_5 N 0.0789(3) 0.1517(4) 0.5311(6)
C1_6 C 0.1168(3) 0.3968(4) 0.3966(7)
H1_6 H 0.104613 0.405304 0.474179
C2_6 C 0.1151(3) 0.3372(4) 0.3753(7)
C3_8 C 0.1349(3) 0.3251(4) 0.2583(7)
C4_6 C 0.1546(3) 0.3725(4) 0.1634(8)
H2_6 H 0.167335 0.365718 0.085102
C5_6 C 0.1542(3) 0.4298(4) 0.1924(8)
H3_6 H 0.167222 0.462177 0.130964
C6_8 C 0.1075(3) 0.2436(4) 0.3822(7)
C7_8 C 0.0960(3) 0.1780(4) 0.4186(7)
C8_8 C 0.0787(3) 0.0921(4) 0.5211(7)
H4_8 H 0.068675 0.061415 0.584883
C9_8 C 0.0958(3) 0.0863(4) 0.4015(7)
H5_8 H 0.099482 0.050973 0.370499
Zn2_5 Zn 0.05666(4) 0.19446(6) 0.66742(9)
N6_8 N 0.2243(4) 0.1975(5) 0.1383(6)
N7_5 N 0.0729(3) 0.1517(4) 0.0311(6)
Zn1_6 Zn 0.80554(6) 0.94334(4) 0.16742(9)
N2_9 N 0.7162(4) 0.8138(3) 0.4548(6)
N3_9 N 0.7361(4) 0.8658(3) 0.2636(6)
N4_9 N 0.8584(4) 0.9649(3) 0.3342(6)
N5_6 N 0.8483(4) 0.9271(3) 0.5311(6)
C1_7 C 0.6032(4) 0.7199(3) 0.3966(7)
H1_7 H 0.594696 0.699308 0.474179
C2_7 C 0.6628(4) 0.7778(3) 0.3753(7)
C3_9 C 0.6749(4) 0.8097(3) 0.2583(7)
C4_7 C 0.6275(4) 0.7820(3) 0.1634(8)
H2_7 H 0.634282 0.801616 0.085102
C5_7 C 0.5702(4) 0.7243(3) 0.1924(8)
H3_7 H 0.537823 0.705044 0.130964
C6_9 C 0.7564(4) 0.8638(3) 0.3822(7)
C7_9 C 0.8220(4) 0.9179(3) 0.4186(7)
C8_9 C 0.9079(4) 0.9865(3) 0.5211(7)
Zn2_6 Zn 0.80554(6) 0.86219(4) 0.66742(9)
N7_6 N 0.8483(4) 0.9211(3) 0.0311(6)
C9_9 C 0.0958(3) 0.0094(3) 0.9015(7)
H5_9 H 0.099482 0.048508 0.870499
N6_9 N 0.2243(4) 0.0269(3) 0.6383(6)
C8_10 C 0.0787(3) 0.9865(3) 0.0211(7)
N2_10 N 0.0977(3) 0.8138(3) 0.9548(6)
N3_10 N 0.1298(3) 0.8658(3) 0.7636(6)
N4_10 N 0.1066(3) 0.9649(3) 0.8342(6)
C1_8 C 0.1168(3) 0.7199(3) 0.8966(7)
H1_8 H 0.104613 0.699308 0.974179
C2_8 C 0.1151(3) 0.7778(3) 0.8753(7)
C3_10 C 0.1349(3) 0.8097(3) 0.7583(7)
C4_8 C 0.1546(3) 0.7820(3) 0.6634(8)
H2_8 H 0.167335 0.801616 0.585102
C5_8 C 0.1542(3) 0.7243(3) 0.6924(8)
H3_8 H 0.167222 0.705044 0.630964
C6_10 C 0.1075(3) 0.8638(3) 0.8822(7)
C7_10 C 0.0960(3) 0.9179(3) 0.9186(7)
C8_11 C 0.9079(4) 0.9213(3) 0.0211(7)
H4_9 H 0.938585 0.931325 0.084883
N2_11 N 0.7162(4) 0.9023(3) 0.9548(6)
N3_11 N 0.7361(4) 0.8702(3) 0.7636(6)
N4_11 N 0.8584(4) 0.8934(3) 0.8342(6)
C1_9 C 0.6032(4) 0.8832(3) 0.8966(7)
H1_9 H 0.594696 0.895387 0.974179
C2_9 C 0.6628(4) 0.8849(3) 0.8753(7)
C3_11 C 0.6749(4) 0.8651(3) 0.7583(7)
C4_9 C 0.6275(4) 0.8454(3) 0.6634(8)
H2_9 H 0.634282 0.832665 0.585102
C5_9 C 0.5702(4) 0.8458(3) 0.6924(8)
H3_9 H 0.537823 0.832778 0.630964
C6_11 C 0.7564(4) 0.8925(3) 0.8822(7)
C7_11 C 0.8220(4) 0.9040(3) 0.9186(7)
C9_10 C 0.9137(4) 0.9042(3) 0.9015(7)
H5_10 H 0.949027 0.900518 0.870499
N6_10 N 0.8025(5) 0.7757(4) 0.6383(6)
C8_12 C 0.0135(3) 0.0921(4) 0.0211(7)
N2_12 N 0.1862(3) 0.2838(4) 0.9548(6)
N3_12 N 0.1342(3) 0.2639(4) 0.7636(6)
N4_12 N 0.0351(3) 0.1416(4) 0.8342(6)
C1_10 C 0.2801(3) 0.3968(4) 0.8966(7)
H1_10 H 0.300692 0.405304 0.974179
C2_10 C 0.2222(3) 0.3372(4) 0.8753(7)
C3_12 C 0.1903(3) 0.3251(4) 0.7583(7)
C4_10 C 0.2180(3) 0.3725(4) 0.6634(8)
H2_10 H 0.198384 0.365718 0.585102
C5_10 C 0.2757(3) 0.4298(4) 0.6924(8)
H3_10 H 0.294956 0.462177 0.630964
C6_12 C 0.1362(3) 0.2436(4) 0.8822(7)
C7_12 C 0.0821(3) 0.1780(4) 0.9186(7)
N2_13 N 0.7643(3) 0.6172(4) 0.7882(6)
N3_13 N 0.7964(3) 0.5973(4) 0.5970(6)
N4_13 N 0.7732(3) 0.4750(4) 0.6676(6)
N5_7 N 0.7455(3) 0.4851(4) 0.8645(6)
C1_11 C 0.7834(3) 0.7302(4) 0.7300(7)
H1_11 H 0.771279 0.738638 0.807513
C2_11 C 0.7817(3) 0.6706(4) 0.7087(7)
C3_13 C 0.8015(3) 0.6585(4) 0.5917(7)
C4_11 C 0.8212(3) 0.7059(4) 0.4968(8)
H2_11 H 0.834001 0.699052 0.418436
C5_11 C 0.8208(3) 0.7632(4) 0.5258(8)
H3_11 H 0.833888 0.795511 0.464298
C6_13 C 0.7741(3) 0.5770(4) 0.7156(7)
C7_13 C 0.7626(3) 0.5114(4) 0.7520(7)
C8_13 C 0.7453(3) 0.4255(4) 0.8545(7)
H4_10 H 0.735341 0.394749 0.918217
C9_11 C 0.7624(3) 0.4197(4) 0.7349(7)
H5_11 H 0.766148 0.384307 0.703833
N7_7 N 0.7395(3) 0.4851(4) 0.3645(6)
N2_14 N 0.3828(4) 0.1472(3) 0.7882(6)
N3_14 N 0.4027(4) 0.1992(3) 0.5970(6)
N4_14 N 0.5250(4) 0.2983(3) 0.6676(6)
N5_8 N 0.5149(4) 0.2605(3) 0.8645(6)
C1_12 C 0.2698(4) 0.0533(3) 0.7300(7)
H1_12 H 0.261362 0.032642 0.807513
C2_12 C 0.3294(4) 0.1112(3) 0.7087(7)
C3_14 C 0.3415(4) 0.1431(3) 0.5917(7)
C4_12 C 0.2941(4) 0.1154(3) 0.4968(8)
H2_12 H 0.300948 0.134950 0.418436
C5_12 C 0.2368(4) 0.0577(3) 0.5258(8)
H3_12 H 0.204489 0.038378 0.464298
C6_14 C 0.4230(4) 0.1972(3) 0.7156(7)
C7_14 C 0.4886(4) 0.2513(3) 0.7520(7)
C8_14 C 0.5745(4) 0.3199(3) 0.8545(7)
H4_11 H 0.605251 0.340593 0.918217
C9_12 C 0.5803(4) 0.3428(3) 0.7349(7)
H5_12 H 0.615693 0.381842 0.703833
N7_8 N 0.5149(4) 0.2545(3) 0.3645(6)
N2_15 N 0.3828(4) 0.2357(3) 0.2882(6)
N3_15 N 0.4027(4) 0.2036(3) 0.0970(6)
N4_15 N 0.5250(4) 0.2268(3) 0.1676(6)
C1_13 C 0.2698(4) 0.2166(3) 0.2300(7)
H1_13 H 0.261362 0.228721 0.307513
C2_13 C 0.3294(4) 0.2183(3) 0.2087(7)
C3_15 C 0.3415(4) 0.1985(3) 0.0917(7)
C5_13 C 0.2368(4) 0.1792(3) 0.0258(8)
C6_15 C 0.4230(4) 0.2259(3) 0.2156(7)
C7_15 C 0.4886(4) 0.2374(3) 0.2520(7)
C8_15 C 0.5745(4) 0.2547(3) 0.3545(7)
H4_12 H 0.605251 0.264659 0.418217
C9_13 C 0.5803(4) 0.2376(3) 0.2349(7)
H5_13 H 0.615693 0.233852 0.203833
C4_13 C 0.2941(4) 0.1788(3) 0.9968(8)
H2_13 H 0.300948 0.165999 0.918436
H3_13 H 0.204489 0.166112 0.964298
N2_16 N 0.8528(3) 0.6172(4) 0.2882(6)
N3_16 N 0.8008(3) 0.5973(4) 0.0970(6)
N4_16 N 0.7017(3) 0.4750(4) 0.1676(6)
C1_14 C 0.9467(3) 0.7302(4) 0.2300(7)
H1_14 H 0.967358 0.738638 0.307513
C2_14 C 0.8888(3) 0.6706(4) 0.2087(7)
C3_16 C 0.8569(3) 0.6585(4) 0.0917(7)
C5_14 C 0.9423(3) 0.7632(4) 0.0258(8)
C6_16 C 0.8028(3) 0.5770(4) 0.2156(7)
C7_16 C 0.7487(3) 0.5114(4) 0.2520(7)
C8_16 C 0.6801(3) 0.4255(4) 0.3545(7)
H4_13 H 0.659407 0.394749 0.418217
C9_14 C 0.6572(3) 0.4197(4) 0.2349(7)
H5_14 H 0.618158 0.384307 0.203833
C4_14 C 0.8846(3) 0.7059(4) 0.9968(8)
H2_14 H 0.865050 0.699052 0.918436
H3_14 H 0.961622 0.795511 0.964298
C1_15 C 0.9365(4) 0.3866(3) 0.0633(7)
H1_15 H 0.928029 0.365975 0.140846
C2_15 C 0.9961(4) 0.4445(3) 0.0420(7)
Zn3_5 Zn 0.80447(7) 0.27668(4) 0.00076(9)
N1_5 N 0.8910(4) 0.3602(3) 0.9716(6)
C4_15 C 0.9608(4) 0.4487(3) 0.8301(8)
H2_15 H 0.967615 0.468283 0.751769
C5_15 C 0.9035(4) 0.3910(3) 0.8591(8)
H3_15 H 0.871156 0.371711 0.797631
N1_6 N 0.6398(3) 0.1090(4) 0.4716(6)
C1_16 C 0.6134(3) 0.0635(4) 0.5633(7)
H1_16 H 0.634025 0.071971 0.640846
C2_16 C 0.5555(3) 0.0039(4) 0.5420(7)
C4_16 C 0.5513(3) 0.0392(4) 0.3301(8)
H2_16 H 0.531717 0.032385 0.251769
C5_16 C 0.6090(3) 0.0965(4) 0.3591(8)
H3_16 H 0.628289 0.128844 0.297631
Zn3_6 Zn 0.72332(4) 0.19553(7) 0.50076(9)
H4_14 H 0.938585 0.007259 0.584883
C9_15 C 0.9137(4) 0.0094(3) 0.4015(7)
H5_15 H 0.949027 0.048508 0.370499
N6_11 N 0.8025(5) 0.0269(3) 0.1383(6)
C9_16 C 0.9906(3) 0.0863(4) 0.9015(7)
H5_16 H 0.951492 0.050973 0.870499
N6_12 N 0.9731(3) 0.1975(5) 0.6383(6)
N2_17 N 0.8528(3) 0.2357(3) 0.7882(6)
N3_17 N 0.8008(3) 0.2036(3) 0.5970(6)
N4_17 N 0.7017(3) 0.2268(3) 0.6676(6)
N5_9 N 0.7395(3) 0.2545(3) 0.8645(6)
C1_17 C 0.9467(3) 0.2166(3) 0.7300(7)
H1_17 H 0.967358 0.228721 0.807513
C2_17 C 0.8888(3) 0.2183(3) 0.7087(7)
C3_17 C 0.8569(3) 0.1985(3) 0.5917(7)
C4_17 C 0.8846(3) 0.1788(3) 0.4968(8)
H2_17 H 0.865050 0.165999 0.418436
C5_17 C 0.9423(3) 0.1792(3) 0.5258(8)
H3_17 H 0.961622 0.166112 0.464298
C6_17 C 0.8028(3) 0.2259(3) 0.7156(7)
C7_17 C 0.7487(3) 0.2374(3) 0.7520(7)
C8_17 C 0.6801(3) 0.2547(3) 0.8545(7)
H4_15 H 0.659407 0.264659 0.918217
C9_17 C 0.6572(3) 0.2376(3) 0.7349(7)
H5_17 H 0.618158 0.233852 0.703833
N7_9 N 0.7455(3) 0.2605(3) 0.3645(6)
N2_18 N 0.7643(3) 0.1472(3) 0.2882(6)
N3_18 N 0.7964(3) 0.1992(3) 0.0970(6)
N4_18 N 0.7732(3) 0.2983(3) 0.1676(6)
C1_18 C 0.7834(3) 0.0533(3) 0.2300(7)
H1_18 H 0.771279 0.032642 0.307513
C2_18 C 0.7817(3) 0.1112(3) 0.2087(7)
C3_18 C 0.8015(3) 0.1431(3) 0.0917(7)
C5_18 C 0.8208(3) 0.0577(3) 0.0258(8)
C6_18 C 0.7741(3) 0.1972(3) 0.2156(7)
C7_18 C 0.7626(3) 0.2513(3) 0.2520(7)
C8_18 C 0.7453(3) 0.3199(3) 0.3545(7)
H4_16 H 0.735341 0.340593 0.418217
C9_18 C 0.7624(3) 0.3428(3) 0.2349(7)
H5_18 H 0.766148 0.381842 0.203833
C4_18 C 0.8212(3) 0.1154(3) 0.9968(8)
H2_18 H 0.834001 0.134950 0.918436
H3_18 H 0.833888 0.038378 0.964298
H4_17 H 0.068675 0.007259 0.084883
H4_18 H 0.992741 0.061415 0.084883
loop_
_geom_bond_atom_site_label_1
_geom_bond_atom_site_label_2
_geom_bond_site_symmetry_1
_geom_bond_site_symmetry_2
N2 C2 1_555 1_555
N5 C7 1_555 1_555
C1 H1 1_555 1_555
C2 C1 1_555 1_555
C6 N2 1_555 1_555
C7 N4 1_555 1_555
C8 N5 1_555 1_555
H4 C8 1_555 1_555
C9 N4 1_555 1_555
H5 C9 1_555 1_555
Zn2 N5 1_555 1_555
C6 C7 1_555 1_555
C8 C9 1_555 1_555
Zn1 N3 1_555 1_555
N3 C3 1_555 1_555
C4 C3 1_555 1_555
H2 C4 1_555 1_555
C5 N1 1_555 1_555
H3 C5 1_555 1_555
N6 Zn1 1_555 1_555
N7 Zn1 1_555 1_555
C4 C5 1_555 1_555
C1_2 H1_2 1_555 1_555
C2_2 C1_2 1_555 1_555
H2_2 C4_2 1_555 1_555
C5_2 N1_2 1_555 1_555
H3_2 C5_2 1_555 1_555
C4_2 C5_2 1_555 1_555
N5_2 C7_2 1_555 1_555
C6_2 N2_2 1_555 1_555
C7_2 N4_2 1_555 1_555
C8_2 N5_2 1_555 1_555
H4_2 C8_2 1_555 1_555
C9_2 N4_2 1_555 1_555
H5_2 C9_2 1_555 1_555
Zn2_2 N5_2 1_555 1_555
C6_2 C7_2 1_555 1_555
C8_2 C9_2 1_555 1_555
Zn1_2 N3_2 1_555 1_555
N3_2 C3_2 1_555 1_555
N6_2 Zn1_2 1_555 1_555
N7_2 Zn1_2 1_555 1_555
N5_3 C7_3 1_555 1_555
C6_3 N2_3 1_555 1_555
C7_3 N4_3 1_555 1_555
C8_3 N5_3 1_555 1_555
H4_3 C8_3 1_555 1_555
C9_3 N4_3 1_555 1_555
H5_3 C9_3 1_555 1_555
Zn2_3 N5_3 1_555 1_555
C6_3 C7_3 1_555 1_555
C8_3 C9_3 1_555 1_555
Zn1_3 N3_3 1_555 1_555
N3_3 C3_3 1_555 1_555
N6_3 Zn1_3 1_555 1_555
N7_3 Zn1_3 1_555 1_555
Zn2 N3_4 1_555 1_555
N1_3 C1_3 1_555 1_555
N2_4 C2_3 1_555 1_555
N3_4 C3_4 1_555 1_555
N4_4 Zn2 1_555 1_555
N7 C7_4 1_555 1_555
C1_3 H1_3 1_555 1_555
C2_3 C1_3 1_555 1_555
C3_4 C2_3 1_555 1_555
C4_3 C3_4 1_555 1_555
H2_3 C4_3 1_555 1_555
C5_3 N1_3 1_555 1_555
H3_3 C5_3 1_555 1_555
C6_4 N2_4 1_555 1_555
C7_4 N4_4 1_555 1_555
C8_4 N7 1_555 1_555
H4_4 C8_4 1_555 1_555
C9_4 N4_4 1_555 1_555
H5_4 C9_4 1_555 1_555
Zn3_3 N1_3 1_555 1_555
N6_4 Zn2 1_555 1_555
N3_4 C6_4 1_555 1_555
C4_3 C5_3 1_555 1_555
C6_4 C7_4 1_555 1_555
C8_4 C9_4 1_555 1_555
Zn2_3 N3_5 1_555 1_555
N3_5 C3_5 1_555 1_555
N4_5 Zn2_3 1_555 1_555
N7_3 C7_5 1_555 1_555
C6_5 N2_5 1_555 1_555
C7_5 N4_5 1_555 1_555
C8_5 N7_3 1_555 1_555
H4_5 C8_5 1_555 1_555
C9_5 N4_5 1_555 1_555
H5_5 C9_5 1_555 1_555
N6_5 Zn2_3 1_555 1_555
N3_5 C6_5 1_555 1_555
C6_5 C7_5 1_555 1_555
C8_5 C9_5 1_555 1_555
N1_4 C1_4 1_555 1_555
C1_4 H1_4 1_555 1_555
C2_4 C1_4 1_555 1_555
H2_4 C4_4 1_555 1_555
C5_4 N1_4 1_555 1_555
H3_4 C5_4 1_555 1_555
Zn3_4 N1_4 1_555 1_555
C4_4 C5_4 1_555 1_555
Zn2_2 N3_6 1_555 1_555
N3_6 C3_6 1_555 1_555
N4_6 Zn2_2 1_555 1_555
N7_2 C7_6 1_555 1_555
C6_6 N2_6 1_555 1_555
C7_6 N4_6 1_555 1_555
C8_6 N7_2 1_555 1_555
H4_6 C8_6 1_555 1_555
C9_6 N4_6 1_555 1_555
H5_6 C9_6 1_555 1_555
N6_6 Zn2_2 1_555 1_555
N3_6 C6_6 1_555 1_555
C6_6 C7_6 1_555 1_555
C8_6 C9_6 1_555 1_555
Zn1_4 N3_7 1_555 1_555
N6_6 C1_5 1_555 1_555
N2_7 C2_5 1_555 1_555
N3_7 C3_7 1_555 1_555
N4_7 Zn1_4 1_555 1_555
N5_4 C7_7 1_555 1_555
C1_5 H1_5 1_555 1_555
C2_5 C1_5 1_555 1_555
C3_7 C2_5 1_555 1_555
C4_5 C3_7 1_555 1_555
H2_5 C4_5 1_555 1_555
C5_5 N6_6 1_555 1_555
H3_5 C5_5 1_555 1_555
C6_7 N2_7 1_555 1_555
C7_7 N4_7 1_555 1_555
C8_7 N5_4 1_555 1_555
Zn2_4 N5_4 1_555 1_555
N7_4 Zn1_4 1_555 1_555
N3_7 C6_7 1_555 1_555
C4_5 C5_5 1_555 1_555
C6_7 C7_7 1_555 1_555
H5_7 C9_7 1_555 1_555
Zn1_5 N3_8 1_555 1_555
N6_5 C1_6 1_555 1_555
N2_8 C2_6 1_555 1_555
N3_8 C3_8 1_555 1_555
N4_8 Zn1_5 1_555 1_555
N5_5 C7_8 1_555 1_555
C1_6 H1_6 1_555 1_555
C2_6 C1_6 1_555 1_555
C3_8 C2_6 1_555 1_555
C4_6 C3_8 1_555 1_555
H2_6 C4_6 1_555 1_555
C5_6 N6_5 1_555 1_555
H3_6 C5_6 1_555 1_555
C6_8 N2_8 1_555 1_555
C7_8 N4_8 1_555 1_555
C8_8 N5_5 1_555 1_555
H4_8 C8_8 1_555 1_555
C9_8 N4_8 1_555 1_555
H5_8 C9_8 1_555 1_555
Zn2_5 N5_5 1_555 1_555
N6_8 Zn1_5 1_555 1_555
N7_5 Zn1_5 1_555 1_555
N3_8 C6_8 1_555 1_555
C4_6 C5_6 1_555 1_555
C6_8 C7_8 1_555 1_555
C8_8 C9_8 1_555 1_555
Zn1_6 N3_9 1_555 1_555
N6_4 C1_7 1_555 1_555
N2_9 C2_7 1_555 1_555
N3_9 C3_9 1_555 1_555
N4_9 Zn1_6 1_555 1_555
N5_6 C7_9 1_555 1_555
C1_7 H1_7 1_555 1_555
C2_7 C1_7 1_555 1_555
C3_9 C2_7 1_555 1_555
C4_7 C3_9 1_555 1_555
H2_7 C4_7 1_555 1_555
C5_7 N6_4 1_555 1_555
H3_7 C5_7 1_555 1_555
C6_9 N2_9 1_555 1_555
C7_9 N4_9 1_555 1_555
C8_9 N5_6 1_555 1_555
Zn2_6 N5_6 1_555 1_555
N7_6 Zn1_6 1_555 1_555
N3_9 C6_9 1_555 1_555
C4_7 C5_7 1_555 1_555
C6_9 C7_9 1_555 1_555
H5_9 C9_9 1_555 1_555
C8_10 N7_4 1_555 1_555
Zn2_4 N3_10 1_555 1_555
N6_3 C1_8 1_555 1_555
N2_10 C2_8 1_555 1_555
N3_10 C3_10 1_555 1_555
N4_10 Zn2_4 1_555 1_555
C1_8 H1_8 1_555 1_555
C2_8 C1_8 1_555 1_555
C3_10 C2_8 1_555 1_555
C4_8 C3_10 1_555 1_555
H2_8 C4_8 1_555 1_555
C5_8 N6_3 1_555 1_555
H3_8 C5_8 1_555 1_555
C6_10 N2_10 1_555 1_555
C7_10 N4_10 1_555 1_555
N3_10 C6_10 1_555 1_555
C4_8 C5_8 1_555 1_555
C6_10 C7_10 1_555 1_555
C8_11 N7_6 1_555 1_555
H4_9 C8_11 1_555 1_555
Zn2_6 N3_11 1_555 1_555
N6_2 C1_9 1_555 1_555
N2_11 C2_9 1_555 1_555
N3_11 C3_11 1_555 1_555
N4_11 Zn2_6 1_555 1_555
C1_9 H1_9 1_555 1_555
C2_9 C1_9 1_555 1_555
C3_11 C2_9 1_555 1_555
C4_9 C3_11 1_555 1_555
H2_9 C4_9 1_555 1_555
C5_9 N6_2 1_555 1_555
H3_9 C5_9 1_555 1_555
C6_11 N2_11 1_555 1_555
C7_11 N4_11 1_555 1_555
C9_10 N4_11 1_555 1_555
H5_10 C9_10 1_555 1_555
N6_10 Zn2_6 1_555 1_555
N3_11 C6_11 1_555 1_555
C4_9 C5_9 1_555 1_555
C6_11 C7_11 1_555 1_555
C8_12 N7_5 1_555 1_555
Zn2_5 N3_12 1_555 1_555
N6 C1_10 1_555 1_555
N2_12 C2_10 1_555 1_555
N3_12 C3_12 1_555 1_555
N4_12 Zn2_5 1_555 1_555
C1_10 H1_10 1_555 1_555
C2_10 C1_10 1_555 1_555
C3_12 C2_10 1_555 1_555
C4_10 C3_12 1_555 1_555
H2_10 C4_10 1_555 1_555
C5_10 N6 1_555 1_555
H3_10 C5_10 1_555 1_555
C6_12 N2_12 1_555 1_555
C7_12 N4_12 1_555 1_555
N3_12 C6_12 1_555 1_555
C4_10 C5_10 1_555 1_555
C6_12 C7_12 1_555 1_555
Zn3_4 N3_13 1_555 1_555
N6_10 C1_11 1_555 1_555
N2_13 C2_11 1_555 1_555
N3_13 C3_13 1_555 1_555
N4_13 Zn3_4 1_555 1_555
N5_7 C7_13 1_555 1_555
C1_11 H1_11 1_555 1_555
C2_11 C1_11 1_555 1_555
C3_13 C2_11 1_555 1_555
C4_11 C3_13 1_555 1_555
H2_11 C4_11 1_555 1_555
C5_11 N6_10 1_555 1_555
H3_11 C5_11 1_555 1_555
C6_13 N2_13 1_555 1_555
C7_13 N4_13 1_555 1_555
C8_13 N5_7 1_555 1_555
H4_10 C8_13 1_555 1_555
C9_11 N4_13 1_555 1_555
H5_11 C9_11 1_555 1_555
N7_7 Zn3_4 1_555 1_555
N3_13 C6_13 1_555 1_555
C4_11 C5_11 1_555 1_555
C6_13 C7_13 1_555 1_555
C8_13 C9_11 1_555 1_555
Zn3_3 N3_14 1_555 1_555
N6_9 C1_12 1_555 1_555
N2_14 C2_12 1_555 1_555
N3_14 C3_14 1_555 1_555
N4_14 Zn3_3 1_555 1_555
N5_8 C7_14 1_555 1_555
C1_12 H1_12 1_555 1_555
C2_12 C1_12 1_555 1_555
C3_14 C2_12 1_555 1_555
C4_12 C3_14 1_555 1_555
H2_12 C4_12 1_555 1_555
C5_12 N6_9 1_555 1_555
H3_12 C5_12 1_555 1_555
C6_14 N2_14 1_555 1_555
C7_14 N4_14 1_555 1_555
C8_14 N5_8 1_555 1_555
H4_11 C8_14 1_555 1_555
C9_12 N4_14 1_555 1_555
H5_12 C9_12 1_555 1_555
N7_8 Zn3_3 1_555 1_555
N3_14 C6_14 1_555 1_555
C4_12 C5_12 1_555 1_555
C6_14 C7_14 1_555 1_555
C8_14 C9_12 1_555 1_555
Zn3_2 N3_15 1_555 1_555
N6_8 C1_13 1_555 1_555
N2_15 C2_13 1_555 1_555
N3_15 C3_15 1_555 1_555
N4_15 Zn3_2 1_555 1_555
N7_8 C7_15 1_555 1_555
C1_13 H1_13 1_555 1_555
C2_13 C1_13 1_555 1_555
C3_15 C2_13 1_555 1_555
C5_13 N6_8 1_555 1_555
C6_15 N2_15 1_555 1_555
C7_15 N4_15 1_555 1_555
C8_15 N7_8 1_555 1_555
H4_12 C8_15 1_555 1_555
C9_13 N4_15 1_555 1_555
H5_13 C9_13 1_555 1_555
N3_15 C6_15 1_555 1_555
C6_15 C7_15 1_555 1_555
C8_15 C9_13 1_555 1_555
H2_13 C4_13 1_555 1_555
Zn3 N3_16 1_555 1_555
N6_7 C1_14 1_555 1_555
N2_16 C2_14 1_555 1_555
N3_16 C3_16 1_555 1_555
N4_16 Zn3 1_555 1_555
N7_7 C7_16 1_555 1_555
C1_14 H1_14 1_555 1_555
C2_14 C1_14 1_555 1_555
C3_16 C2_14 1_555 1_555
C5_14 N6_7 1_555 1_555
C6_16 N2_16 1_555 1_555
C7_16 N4_16 1_555 1_555
C8_16 N7_7 1_555 1_555
H4_13 C8_16 1_555 1_555
C9_14 N4_16 1_555 1_555
H5_14 C9_14 1_555 1_555
N3_16 C6_16 1_555 1_555
C6_16 C7_16 1_555 1_555
C8_16 C9_14 1_555 1_555
H2_14 C4_14 1_555 1_555
C1_15 H1_15 1_555 1_555
C2_15 C1_15 1_555 1_555
H2_15 C4_15 1_555 1_555
C5_15 N1_5 1_555 1_555
H3_15 C5_15 1_555 1_555
C4_15 C5_15 1_555 1_555
N1_6 C1_16 1_555 1_555
C1_16 H1_16 1_555 1_555
C2_16 C1_16 1_555 1_555
H2_16 C4_16 1_555 1_555
C5_16 N1_6 1_555 1_555
H3_16 C5_16 1_555 1_555
Zn3_6 N1_6 1_555 1_555
C4_16 C5_16 1_555 1_555
H5_15 C9_15 1_555 1_555
H5_16 C9_16 1_555 1_555
Zn3_6 N3_17 1_555 1_555
N6_12 C1_17 1_555 1_555
N2_17 C2_17 1_555 1_555
N3_17 C3_17 1_555 1_555
N4_17 Zn3_6 1_555 1_555
N5_9 C7_17 1_555 1_555
C1_17 H1_17 1_555 1_555
C2_17 C1_17 1_555 1_555
C3_17 C2_17 1_555 1_555
C4_17 C3_17 1_555 1_555
H2_17 C4_17 1_555 1_555
C5_17 N6_12 1_555 1_555
H3_17 C5_17 1_555 1_555
C6_17 N2_17 1_555 1_555
C7_17 N4_17 1_555 1_555
C8_17 N5_9 1_555 1_555
H4_15 C8_17 1_555 1_555
C9_17 N4_17 1_555 1_555
H5_17 C9_17 1_555 1_555
N7_9 Zn3_6 1_555 1_555
N3_17 C6_17 1_555 1_555
C4_17 C5_17 1_555 1_555
C6_17 C7_17 1_555 1_555
C8_17 C9_17 1_555 1_555
Zn3_5 N3_18 1_555 1_555
N6_11 C1_18 1_555 1_555
N2_18 C2_18 1_555 1_555
N3_18 C3_18 1_555 1_555
N4_18 Zn3_5 1_555 1_555
N7_9 C7_18 1_555 1_555
C1_18 H1_18 1_555 1_555
C2_18 C1_18 1_555 1_555
C3_18 C2_18 1_555 1_555
C5_18 N6_11 1_555 1_555
C6_18 N2_18 1_555 1_555
C7_18 N4_18 1_555 1_555
C8_18 N7_9 1_555 1_555
H4_16 C8_18 1_555 1_555
C9_18 N4_18 1_555 1_555
H5_18 C9_18 1_555 1_555
N3_18 C6_18 1_555 1_555
C6_18 C7_18 1_555 1_555
C8_18 C9_18 1_555 1_555
H2_18 C4_18 1_555 1_555

#END
