
###############################################################################
#
# This file contains modified crystal structure data generated from the
# MOF subset of the Cambridge Structural Database (CSD) v543 
# hosted by the Cambridge Crystallographic Data Centre (CCDC).
#
# This work is licensed under the Creative Commons
# Attribution-NonCommercial-ShareAlike 4.0 International License.
# To view a copy of this license, visit
# http://creativecommons.org/licenses/by-nc-sa/4.0/
# or send a letter to
# Creative Commons, PO Box 1866, Mountain View, CA 94042, USA.
#
# CIF created using the CSD Python API on 29 September 2022
# The structure has been converted into the P1 space group
# The structure has a 3D framework
# The original CSD entry POVFUE01 is in the rhombohedral crystal system
# The framework has been calculated to contain at least 10.0% void space
# The void calculation uses a probe of radius 1.32A, grid spacing 0.4
#
###############################################################################

data_POVFUE01
_chemical_formula_moiety         '(C162 H90 N87 Zn15)n'
_symmetry_cell_setting           triclinic
_symmetry_space_group_name_H-M   'P 1'
_symmetry_Int_Tables_number      1
_space_group_name_Hall           'P 1'
loop_
_symmetry_equiv_pos_site_id
_symmetry_equiv_pos_as_xyz
1 x,y,z
_cell_length_a                   23.3966(3)
_cell_length_b                   23.3966(3)
_cell_length_c                   10.7116(2)
_cell_angle_alpha                90
_cell_angle_beta                 90
_cell_angle_gamma                120
_cell_volume                     5077.97
loop_
_atom_site_label
_atom_site_type_symbol
_atom_site_fract_x
_atom_site_fract_y
_atom_site_fract_z
C8 C 0.0067(2) 0.0955(2) 0.2965(5)
H4 H 0.045338 0.098666 0.327390
H5 H 0.004157 0.068057 0.113955
Zn1 Zn 0.86084(3) 0.05781(3) 0.03132(5)
N1 N 0.69271(17) 0.13453(19) 0.3931(4)
N2 N 0.81338(18) 0.09840(18) 0.2436(3)
N3 N 0.86516(18) 0.13120(19) 0.4339(3)
N4 N 0.96365(18) 0.10729(18) 0.3632(4)
N5 N 0.92589(17) 0.07918(17) 0.1675(3)
C1 C 0.7236(2) 0.1534(3) 0.5052(5)
H1 H 0.704106 0.166145 0.566650
C2 C 0.7813(2) 0.1550(3) 0.5341(5)
H2 H 0.800697 0.168120 0.612373
C3 C 0.80954(19) 0.1360(2) 0.4394(4)
C4 C 0.7773(2) 0.1154(2) 0.3224(4)
C5 C 0.7191(2) 0.1159(2) 0.3023(4)
H3 H 0.698264 0.103109 0.225138
C6 C 0.8637(2) 0.1086(2) 0.3158(4)
C7 C 0.91664(19) 0.0971(2) 0.2801(4)
C9 C 0.9838(2) 0.0784(2) 0.1776(5)
Zn2 Zn 0.94219(3) 0.13916(3) 0.53132(5)
Zn3 Zn 0.60886(3) 0.13636(4) 0.36465(5)
N7 N 0.86880(19) 0.13484(18) 0.9339(3)
N8 N 0.89271(18) 0.03635(18) 0.8632(4)
N6 N 0.77515(25) 0.97396(17) 0.0598(4)
Zn1_2 Zn 0.94219(3) 0.80303(4) 0.03132(5)
N1_2 N 0.86547(19) 0.55818(25) 0.3931(4)
N2_2 N 0.90160(18) 0.71498(25) 0.2436(3)
N3_2 N 0.86880(19) 0.73396(26) 0.4339(3)
N4_2 N 0.89271(18) 0.85636(25) 0.3632(4)
N5_2 N 0.92082(17) 0.84671(24) 0.1675(3)
C1_2 C 0.8466(3) 0.5702(4) 0.5052(5)
H1_2 H 0.833855 0.537961 0.566650
C2_2 C 0.8450(3) 0.6263(4) 0.5341(5)
H2_2 H 0.831880 0.632577 0.612373
C3_2 C 0.8640(2) 0.67354(28) 0.4394(4)
C4_2 C 0.8846(2) 0.6619(3) 0.3224(4)
C5_2 C 0.8841(2) 0.6032(3) 0.3023(4)
H3_2 H 0.896891 0.595155 0.225138
C6_2 C 0.8914(2) 0.7551(3) 0.3158(4)
C7_2 C 0.9029(2) 0.81954(28) 0.2801(4)
C8_2 C 0.9045(2) 0.9112(3) 0.2965(5)
H4_2 H 0.901334 0.946672 0.327390
C9_2 C 0.9216(2) 0.9054(3) 0.1776(5)
H5_2 H 0.931943 0.936100 0.113955
Zn2_2 Zn 0.86084(3) 0.80303(4) 0.53132(5)
Zn3_2 Zn 0.86364(4) 0.47249(5) 0.36465(5)
N7_2 N 0.86516(18) 0.73396(26) 0.9339(3)
N8_2 N 0.96365(18) 0.85636(25) 0.8632(4)
Zn1_3 Zn 0.19697(4) 0.13916(3) 0.03132(5)
N1_3 N 0.44182(25) 0.30729(17) 0.3931(4)
N2_3 N 0.28502(25) 0.18662(18) 0.2436(3)
N3_3 N 0.26604(26) 0.13484(18) 0.4339(3)
N4_3 N 0.14364(25) 0.03635(18) 0.3632(4)
N5_3 N 0.15329(24) 0.07411(17) 0.1675(3)
C1_3 C 0.4298(4) 0.2764(2) 0.5052(5)
H1_3 H 0.462039 0.295894 0.566650
C2_3 C 0.3737(4) 0.2187(2) 0.5341(5)
H2_3 H 0.367423 0.199303 0.612373
C3_3 C 0.32646(28) 0.19046(19) 0.4394(4)
C4_3 C 0.3381(3) 0.2227(2) 0.3224(4)
C5_3 C 0.3968(3) 0.2809(2) 0.3023(4)
H3_3 H 0.404845 0.301736 0.225138
C6_3 C 0.2449(3) 0.1363(2) 0.3158(4)
C7_3 C 0.18046(28) 0.08336(19) 0.2801(4)
C9_3 C 0.0946(3) 0.0162(2) 0.1776(5)
Zn2_3 Zn 0.19697(4) 0.05781(3) 0.53132(5)
Zn3_3 Zn 0.52751(5) 0.39114(3) 0.36465(5)
N6_2 N 0.19880(30) 0.22485(25) 0.0598(4)
N7_3 N 0.26604(26) 0.13120(19) 0.9339(3)
N8_3 N 0.14364(25) 0.10729(18) 0.8632(4)
N6_3 N 0.02604(17) 0.22485(25) 0.5598(4)
C1_4 C 0.8466(3) 0.2764(2) 0.0052(5)
H1_4 H 0.833855 0.295894 0.066650
C2_4 C 0.8450(3) 0.2187(2) 0.0341(5)
H2_4 H 0.831880 0.199303 0.112373
N1_4 N 0.86547(19) 0.30729(17) 0.8931(4)
N2_4 N 0.90160(18) 0.18662(18) 0.7436(3)
N5_4 N 0.92082(17) 0.07411(17) 0.6675(3)
C3_4 C 0.8640(2) 0.19046(19) 0.9394(4)
C4_4 C 0.8846(2) 0.2227(2) 0.8224(4)
C5_4 C 0.8841(2) 0.2809(2) 0.8023(4)
H3_4 H 0.896891 0.301736 0.725138
C6_4 C 0.8914(2) 0.1363(2) 0.8158(4)
C7_4 C 0.9029(2) 0.08336(19) 0.7801(4)
C9_4 C 0.9216(2) 0.0162(2) 0.6776(5)
Zn3_4 Zn 0.86364(4) 0.39114(3) 0.86465(5)
C1_5 C 0.4298(4) 0.1534(3) 0.0052(5)
H1_5 H 0.462039 0.166145 0.066650
C2_5 C 0.3737(4) 0.1550(3) 0.0341(5)
H2_5 H 0.367423 0.168120 0.112373
N1_5 N 0.44182(25) 0.13453(19) 0.8931(4)
N2_5 N 0.28502(25) 0.09840(18) 0.7436(3)
N5_5 N 0.15329(24) 0.07918(17) 0.6675(3)
C3_5 C 0.32646(28) 0.1360(2) 0.9394(4)
C4_5 C 0.3381(3) 0.1154(2) 0.8224(4)
C5_5 C 0.3968(3) 0.1159(2) 0.8023(4)
H3_5 H 0.404845 0.103109 0.725138
C6_5 C 0.2449(3) 0.1086(2) 0.8158(4)
C7_5 C 0.18046(28) 0.0971(2) 0.7801(4)
C8_3 C 0.0888(3) 0.0955(2) 0.7965(5)
H4_3 H 0.053328 0.098666 0.827390
C9_5 C 0.0946(3) 0.0784(2) 0.6776(5)
H5_3 H 0.063900 0.068057 0.613955
Zn3_5 Zn 0.52751(5) 0.13636(4) 0.86465(5)
C1_6 C 0.7236(2) 0.5702(4) 0.0052(5)
H1_6 H 0.704106 0.537961 0.066650
C2_6 C 0.7813(2) 0.6263(4) 0.0341(5)
H2_6 H 0.800697 0.632577 0.112373
N1_6 N 0.69271(17) 0.55818(25) 0.8931(4)
N2_6 N 0.81338(18) 0.71498(25) 0.7436(3)
N5_6 N 0.92589(17) 0.84671(24) 0.6675(3)
C3_6 C 0.80954(19) 0.67354(28) 0.9394(4)
C4_6 C 0.7773(2) 0.6619(3) 0.8224(4)
C5_6 C 0.7191(2) 0.6032(3) 0.8023(4)
H3_6 H 0.698264 0.595155 0.725138
C6_6 C 0.8637(2) 0.7551(3) 0.8158(4)
C7_6 C 0.91664(19) 0.81954(28) 0.7801(4)
C9_6 C 0.9838(2) 0.9054(3) 0.6776(5)
Zn3_6 Zn 0.60886(3) 0.47249(5) 0.86465(5)
N6_4 N 0.77515(25) 0.80120(30) 0.5598(4)
N1_7 N 0.35938(17) 0.46786(19) 0.7264(4)
N2_7 N 0.48005(18) 0.43173(18) 0.5769(3)
N3_4 N 0.53183(18) 0.46453(19) 0.7672(3)
N4_4 N 0.63032(18) 0.44062(18) 0.6965(4)
N5_7 N 0.59256(17) 0.41251(17) 0.5008(3)
C1_7 C 0.3903(2) 0.4867(3) 0.8385(5)
H1_7 H 0.370773 0.499478 0.899983
C2_7 C 0.4480(2) 0.4883(3) 0.8674(5)
H2_7 H 0.467364 0.501453 0.945706
C3_7 C 0.47621(19) 0.4693(2) 0.7727(4)
C4_7 C 0.4440(2) 0.4487(2) 0.6557(4)
C5_7 C 0.3858(2) 0.4492(2) 0.6356(4)
H3_7 H 0.364931 0.436442 0.558471
C6_7 C 0.5304(2) 0.4419(2) 0.6491(4)
C7_7 C 0.58331(19) 0.4304(2) 0.6134(4)
C8_4 C 0.6734(2) 0.4288(2) 0.6298(5)
H4_4 H 0.712005 0.431999 0.660723
C9_7 C 0.6505(2) 0.4117(2) 0.5109(5)
H5_4 H 0.670824 0.401390 0.447288
Zn3_7 Zn 0.27552(3) 0.46970(4) 0.69799(5)
N7_4 N 0.53547(19) 0.46817(18) 0.2672(3)
N8_4 N 0.55938(18) 0.36968(18) 0.1965(4)
N2_8 N 0.56827(18) 0.04831(25) 0.5769(3)
N3_5 N 0.53547(19) 0.06729(26) 0.7672(3)
N4_5 N 0.55938(18) 0.18969(25) 0.6965(4)
N5_8 N 0.58749(17) 0.18004(24) 0.5008(3)
C3_8 C 0.5307(2) 0.00687(28) 0.7727(4)
C6_8 C 0.5581(2) 0.0884(3) 0.6491(4)
C7_8 C 0.5696(2) 0.15287(28) 0.6134(4)
C8_5 C 0.5712(2) 0.2445(3) 0.6298(5)
H4_5 H 0.568001 0.280005 0.660723
C9_8 C 0.5883(2) 0.2387(3) 0.5109(5)
H5_5 H 0.598610 0.269433 0.447288
N7_5 N 0.53183(18) 0.06729(26) 0.2672(3)
N8_5 N 0.63032(18) 0.18969(25) 0.1965(4)
N1_8 N 0.53214(19) 0.89151(25) 0.7264(4)
C1_8 C 0.5133(3) 0.9035(4) 0.8385(5)
H1_8 H 0.500522 0.871294 0.899983
C2_8 C 0.5117(3) 0.9596(4) 0.8674(5)
H2_8 H 0.498547 0.965910 0.945706
C4_8 C 0.5513(2) 0.9952(3) 0.6557(4)
C5_8 C 0.5508(2) 0.9365(3) 0.6356(4)
H3_8 H 0.563558 0.928488 0.558471
Zn3_8 Zn 0.53030(4) 0.80583(5) 0.69799(5)
N2_9 N 0.95169(25) 0.51995(18) 0.5769(3)
N3_6 N 0.93271(26) 0.46817(18) 0.7672(3)
N4_6 N 0.81031(25) 0.36968(18) 0.6965(4)
N5_9 N 0.81996(24) 0.40744(17) 0.5008(3)
C3_9 C 0.99313(28) 0.52379(19) 0.7727(4)
C6_9 C 0.9116(3) 0.4696(2) 0.6491(4)
C7_9 C 0.84713(28) 0.41669(19) 0.6134(4)
C8_6 C 0.7555(3) 0.3266(2) 0.6298(5)
H4_6 H 0.719995 0.287995 0.660723
C9_9 C 0.7613(3) 0.3495(2) 0.5109(5)
H5_6 H 0.730567 0.329176 0.447288
N7_6 N 0.93271(26) 0.46453(19) 0.2672(3)
N8_6 N 0.81031(25) 0.44062(18) 0.1965(4)
N1_9 N 0.53214(19) 0.64062(17) 0.2264(4)
N2_10 N 0.56827(18) 0.51995(18) 0.0769(3)
N5_10 N 0.58749(17) 0.40744(17) 0.0008(3)
C1_9 C 0.5133(3) 0.6097(2) 0.3385(5)
H1_9 H 0.500522 0.629227 0.399983
C2_9 C 0.5117(3) 0.5520(2) 0.3674(5)
H2_9 H 0.498547 0.532636 0.445706
C3_10 C 0.5307(2) 0.52379(19) 0.2727(4)
C4_9 C 0.5513(2) 0.5560(2) 0.1557(4)
C5_9 C 0.5508(2) 0.6142(2) 0.1356(4)
H3_9 H 0.563558 0.635069 0.058471
C6_10 C 0.5581(2) 0.4696(2) 0.1491(4)
C7_10 C 0.5696(2) 0.41669(19) 0.1134(4)
C8_7 C 0.5712(2) 0.3266(2) 0.1298(5)
H4_7 H 0.568001 0.287995 0.160723
C9_10 C 0.5883(2) 0.3495(2) 0.0109(5)
Zn3_9 Zn 0.53030(4) 0.72448(3) 0.19799(5)
H5_7 H 0.598610 0.329176 0.947288
N1_10 N 0.10849(25) 0.46786(19) 0.2264(4)
C1_10 C 0.0965(4) 0.4867(3) 0.3385(5)
H1_10 H 0.128706 0.499478 0.399983
C2_10 C 0.0404(4) 0.4883(3) 0.3674(5)
H2_10 H 0.034090 0.501453 0.445706
C4_10 C 0.0048(3) 0.4487(2) 0.1557(4)
C5_10 C 0.0635(3) 0.4492(2) 0.1356(4)
H3_10 H 0.071512 0.436442 0.058471
Zn3_10 Zn 0.19417(5) 0.46970(4) 0.19799(5)
N2_11 N 0.95169(25) 0.43173(18) 0.0769(3)
N5_11 N 0.81996(24) 0.41251(17) 0.0008(3)
C3_11 C 0.99313(28) 0.4693(2) 0.2727(4)
C6_11 C 0.9116(3) 0.4419(2) 0.1491(4)
C7_11 C 0.84713(28) 0.4304(2) 0.1134(4)
C8_8 C 0.7555(3) 0.4288(2) 0.1298(5)
H4_8 H 0.719995 0.431999 0.160723
C9_11 C 0.7613(3) 0.4117(2) 0.0109(5)
H5_8 H 0.730567 0.401390 0.947288
N2_12 N 0.48005(18) 0.04831(25) 0.0769(3)
N5_12 N 0.59256(17) 0.18004(24) 0.0008(3)
C3_12 C 0.47621(19) 0.00687(28) 0.2727(4)
C6_12 C 0.5304(2) 0.0884(3) 0.1491(4)
C7_12 C 0.58331(19) 0.15287(28) 0.1134(4)
C8_9 C 0.6734(2) 0.2445(3) 0.1298(5)
H4_9 H 0.712005 0.280005 0.160723
C9_12 C 0.6505(2) 0.2387(3) 0.0109(5)
H5_9 H 0.670824 0.269433 0.947288
N3_7 N 0.20213(19) 0.40063(26) 0.1006(3)
N4_7 N 0.22604(18) 0.52303(25) 0.0299(4)
C1_11 C 0.1799(3) 0.2369(4) 0.1719(5)
H1_11 H 0.167188 0.204628 0.233317
C2_11 C 0.1783(3) 0.2930(4) 0.2008(5)
H2_11 H 0.165213 0.299244 0.279040
C3_13 C 0.1973(2) 0.34021(28) 0.1061(4)
N2_13 N 0.23493(18) 0.38165(25) 0.9103(3)
N5_13 N 0.25415(17) 0.51338(24) 0.8342(3)
C4_11 C 0.2179(2) 0.3286(3) 0.9891(4)
C5_11 C 0.2174(2) 0.2699(3) 0.9690(4)
H3_11 H 0.230224 0.261822 0.891805
C6_13 C 0.2247(2) 0.4218(3) 0.9825(4)
C7_13 C 0.2362(2) 0.48621(28) 0.9468(4)
C8_10 C 0.2378(2) 0.5779(3) 0.9632(5)
H4_10 H 0.234667 0.613339 0.994057
C9_13 C 0.2549(2) 0.5721(3) 0.8443(5)
H5_10 H 0.265276 0.602767 0.780622
N7_7 N 0.19849(18) 0.40063(26) 0.6006(3)
N8_7 N 0.29698(18) 0.52303(25) 0.5299(4)
N3_8 N 0.59937(26) 0.80151(18) 0.1006(3)
N4_8 N 0.47697(25) 0.70302(18) 0.0299(4)
C1_12 C 0.7631(4) 0.9431(2) 0.1719(5)
H1_12 H 0.795372 0.962561 0.233317
C2_12 C 0.7070(4) 0.8854(2) 0.2008(5)
H2_12 H 0.700756 0.865970 0.279040
C3_14 C 0.65979(28) 0.85713(19) 0.1061(4)
N2_14 N 0.61835(25) 0.85329(18) 0.9103(3)
N5_14 N 0.48662(24) 0.74078(17) 0.8342(3)
C4_12 C 0.6714(3) 0.8894(2) 0.9891(4)
C5_12 C 0.7301(3) 0.9476(2) 0.9690(4)
H3_12 H 0.738178 0.968403 0.891805
C6_14 C 0.5782(3) 0.8030(2) 0.9825(4)
C7_14 C 0.51379(28) 0.75003(19) 0.9468(4)
C8_11 C 0.4221(3) 0.6600(2) 0.9632(5)
H4_11 H 0.386661 0.621329 0.994057
C9_14 C 0.4279(3) 0.6829(2) 0.8443(5)
H5_11 H 0.397233 0.662510 0.780622
N7_8 N 0.59937(26) 0.79787(19) 0.6006(3)
N8_8 N 0.47697(25) 0.77396(18) 0.5299(4)
N2_15 N 0.61835(25) 0.76507(18) 0.4103(3)
N5_15 N 0.48662(24) 0.74585(17) 0.3342(3)
C1_13 C 0.7631(4) 0.8201(3) 0.6719(5)
H1_13 H 0.795372 0.832812 0.733317
C2_13 C 0.7070(4) 0.8217(3) 0.7008(5)
H2_13 H 0.700756 0.834787 0.779040
C3_15 C 0.65979(28) 0.8027(2) 0.6061(4)
C4_13 C 0.6714(3) 0.7821(2) 0.4891(4)
C5_13 C 0.7301(3) 0.7826(2) 0.4690(4)
H3_13 H 0.738178 0.769776 0.391805
C6_15 C 0.5782(3) 0.7753(2) 0.4825(4)
C7_15 C 0.51379(28) 0.7638(2) 0.4468(4)
C8_12 C 0.4221(3) 0.7622(2) 0.4632(5)
H4_12 H 0.386661 0.765333 0.494057
C9_15 C 0.4279(3) 0.7451(2) 0.3443(5)
H5_12 H 0.397233 0.734724 0.280622
N2_16 N 0.14671(18) 0.38165(25) 0.4103(3)
N5_16 N 0.25922(17) 0.51338(24) 0.3342(3)
C1_14 C 0.0569(2) 0.2369(4) 0.6719(5)
H1_14 H 0.037439 0.204628 0.733317
C2_14 C 0.1146(2) 0.2930(4) 0.7008(5)
H2_14 H 0.134030 0.299244 0.779040
C3_16 C 0.14287(19) 0.34021(28) 0.6061(4)
C4_14 C 0.1106(2) 0.3286(3) 0.4891(4)
C5_14 C 0.0524(2) 0.2699(3) 0.4690(4)
H3_14 H 0.031597 0.261822 0.391805
C6_16 C 0.1970(2) 0.4218(3) 0.4825(4)
C7_16 C 0.24997(19) 0.48621(28) 0.4468(4)
C8_13 C 0.3400(2) 0.5779(3) 0.4632(5)
H4_13 H 0.378671 0.613339 0.494057
C9_16 C 0.3171(2) 0.5721(3) 0.3443(5)
H5_13 H 0.337490 0.602767 0.280622
N6_5 N 0.02604(17) 0.80120(30) 0.0598(4)
N6_6 N 0.19880(30) 0.97396(17) 0.5598(4)
N1_11 N 0.10849(25) 0.64062(17) 0.7264(4)
C1_15 C 0.0965(4) 0.6097(2) 0.8385(5)
H1_15 H 0.128706 0.629227 0.899983
C2_15 C 0.0404(4) 0.5520(2) 0.8674(5)
H2_15 H 0.034090 0.532636 0.945706
C4_15 C 0.0048(3) 0.5560(2) 0.6557(4)
C5_15 C 0.0635(3) 0.6142(2) 0.6356(4)
H3_15 H 0.071512 0.635069 0.558471
Zn3_11 Zn 0.19417(5) 0.72448(3) 0.69799(5)
N1_12 N 0.35938(17) 0.89151(25) 0.2264(4)
C1_16 C 0.3903(2) 0.9035(4) 0.3385(5)
H1_16 H 0.370773 0.871294 0.399983
C2_16 C 0.4480(2) 0.9596(4) 0.3674(5)
H2_16 H 0.467364 0.965910 0.445706
C4_16 C 0.4440(2) 0.9952(3) 0.1557(4)
C5_16 C 0.3858(2) 0.9365(3) 0.1356(4)
H3_16 H 0.364931 0.928488 0.058471
Zn3_12 Zn 0.27552(3) 0.80583(5) 0.19799(5)
N3_9 N 0.19849(18) 0.79787(19) 0.1006(3)
N4_9 N 0.29698(18) 0.77396(18) 0.0299(4)
C1_17 C 0.0569(2) 0.8201(3) 0.1719(5)
H1_17 H 0.037439 0.832812 0.233317
C2_17 C 0.1146(2) 0.8217(3) 0.2008(5)
H2_17 H 0.134030 0.834787 0.279040
C3_17 C 0.14287(19) 0.8027(2) 0.1061(4)
N2_17 N 0.14671(18) 0.76507(18) 0.9103(3)
N5_17 N 0.25922(17) 0.74585(17) 0.8342(3)
C4_17 C 0.1106(2) 0.7821(2) 0.9891(4)
C5_17 C 0.0524(2) 0.7826(2) 0.9690(4)
H3_17 H 0.031597 0.769776 0.891805
C6_17 C 0.1970(2) 0.7753(2) 0.9825(4)
C7_17 C 0.24997(19) 0.7638(2) 0.9468(4)
C8_14 C 0.3400(2) 0.7622(2) 0.9632(5)
H4_14 H 0.378671 0.765333 0.994057
C9_17 C 0.3171(2) 0.7451(2) 0.8443(5)
H5_14 H 0.337490 0.734724 0.780622
N7_9 N 0.20213(19) 0.80151(18) 0.6006(3)
N8_9 N 0.22604(18) 0.70302(18) 0.5299(4)
N2_18 N 0.23493(18) 0.85329(18) 0.4103(3)
N5_18 N 0.25415(17) 0.74078(17) 0.3342(3)
C1_18 C 0.1799(3) 0.9431(2) 0.6719(5)
H1_18 H 0.167188 0.962561 0.733317
C2_18 C 0.1783(3) 0.8854(2) 0.7008(5)
H2_18 H 0.165213 0.865970 0.779040
C3_18 C 0.1973(2) 0.85713(19) 0.6061(4)
C4_18 C 0.2179(2) 0.8894(2) 0.4891(4)
C5_18 C 0.2174(2) 0.9476(2) 0.4690(4)
H3_18 H 0.230224 0.968403 0.391805
C6_18 C 0.2247(2) 0.8030(2) 0.4825(4)
C7_18 C 0.2362(2) 0.75003(19) 0.4468(4)
C8_15 C 0.2378(2) 0.6600(2) 0.4632(5)
H4_15 H 0.234667 0.621329 0.494057
C9_18 C 0.2549(2) 0.6829(2) 0.3443(5)
H5_15 H 0.265276 0.662510 0.280622
C8_16 C 0.0888(3) 0.9933(2) 0.2965(5)
H4_16 H 0.053328 0.954662 0.327390
H5_16 H 0.063900 0.995843 0.113955
C8_17 C 0.9045(2) 0.9933(2) 0.7965(5)
H4_17 H 0.901334 0.954662 0.827390
H5_17 H 0.931943 0.995843 0.613955
C8_18 C 0.0067(2) 0.9112(3) 0.7965(5)
H4_18 H 0.045338 0.946672 0.827390
H5_18 H 0.004157 0.936100 0.613955
loop_
_geom_bond_atom_site_label_1
_geom_bond_atom_site_label_2
_geom_bond_site_symmetry_1
_geom_bond_site_symmetry_2
H4 C8 1_555 1_555
Zn1 N5 1_555 1_555
N1 C1 1_555 1_555
N2 C4 1_555 1_555
N3 C3 1_555 1_555
N4 C7 1_555 1_555
N5 C7 1_555 1_555
C1 H1 1_555 1_555
C2 C1 1_555 1_555
H2 C2 1_555 1_555
C3 C2 1_555 1_555
C4 C3 1_555 1_555
C5 N1 1_555 1_555
H3 C5 1_555 1_555
C6 N2 1_555 1_555
C7 C6 1_555 1_555
C9 N5 1_555 1_555
Zn2 N3 1_555 1_555
Zn3 N1 1_555 1_555
N3 C6 1_555 1_555
N4 Zn2 1_555 1_555
C4 C5 1_555 1_555
Zn1_2 N5_2 1_555 1_555
N1_2 C1_2 1_555 1_555
N2_2 C4_2 1_555 1_555
N3_2 C3_2 1_555 1_555
N4_2 C7_2 1_555 1_555
N5_2 C7_2 1_555 1_555
C1_2 H1_2 1_555 1_555
C2_2 C1_2 1_555 1_555
H2_2 C2_2 1_555 1_555
C3_2 C2_2 1_555 1_555
C4_2 C3_2 1_555 1_555
C5_2 N1_2 1_555 1_555
H3_2 C5_2 1_555 1_555
C6_2 N2_2 1_555 1_555
C7_2 C6_2 1_555 1_555
C8_2 N4_2 1_555 1_555
H4_2 C8_2 1_555 1_555
C9_2 N5_2 1_555 1_555
H5_2 C9_2 1_555 1_555
Zn2_2 N3_2 1_555 1_555
Zn3_2 N1_2 1_555 1_555
N3_2 C6_2 1_555 1_555
N4_2 Zn2_2 1_555 1_555
C4_2 C5_2 1_555 1_555
C8_2 C9_2 1_555 1_555
Zn1_3 N5_3 1_555 1_555
N1_3 C1_3 1_555 1_555
N2_3 C4_3 1_555 1_555
N3_3 C3_3 1_555 1_555
N4_3 C7_3 1_555 1_555
N5_3 C7_3 1_555 1_555
C1_3 H1_3 1_555 1_555
C2_3 C1_3 1_555 1_555
H2_3 C2_3 1_555 1_555
C3_3 C2_3 1_555 1_555
C4_3 C3_3 1_555 1_555
C5_3 N1_3 1_555 1_555
H3_3 C5_3 1_555 1_555
C6_3 N2_3 1_555 1_555
C7_3 C6_3 1_555 1_555
C9_3 N5_3 1_555 1_555
Zn2_3 N3_3 1_555 1_555
Zn3_3 N1_3 1_555 1_555
N6_2 Zn1_3 1_555 1_555
N3_3 C6_3 1_555 1_555
N4_3 Zn2_3 1_555 1_555
C4_3 C5_3 1_555 1_555
C1_4 H1_4 1_555 1_555
C2_4 C1_4 1_555 1_555
H2_4 C2_4 1_555 1_555
Zn2 N5_4 1_555 1_555
N2_4 C4_4 1_555 1_555
N7 C3_4 1_555 1_555
N8 C7_4 1_555 1_555
N5_4 C7_4 1_555 1_555
C4_4 C3_4 1_555 1_555
C5_4 N1_4 1_555 1_555
H3_4 C5_4 1_555 1_555
C6_4 N2_4 1_555 1_555
C7_4 C6_4 1_555 1_555
C9_4 N5_4 1_555 1_555
Zn3_4 N1_4 1_555 1_555
N7 C6_4 1_555 1_555
C4_4 C5_4 1_555 1_555
C1_5 H1_5 1_555 1_555
C2_5 C1_5 1_555 1_555
H2_5 C2_5 1_555 1_555
Zn2_3 N5_5 1_555 1_555
N2_5 C4_5 1_555 1_555
N7_3 C3_5 1_555 1_555
N8_3 C7_5 1_555 1_555
N5_5 C7_5 1_555 1_555
C4_5 C3_5 1_555 1_555
C5_5 N1_5 1_555 1_555
H3_5 C5_5 1_555 1_555
C6_5 N2_5 1_555 1_555
C7_5 C6_5 1_555 1_555
C8_3 N8_3 1_555 1_555
H4_3 C8_3 1_555 1_555
C9_5 N5_5 1_555 1_555
H5_3 C9_5 1_555 1_555
Zn3_5 N1_5 1_555 1_555
N7_3 C6_5 1_555 1_555
C4_5 C5_5 1_555 1_555
C8_3 C9_5 1_555 1_555
C1_6 H1_6 1_555 1_555
C2_6 C1_6 1_555 1_555
H2_6 C2_6 1_555 1_555
Zn2_2 N5_6 1_555 1_555
N2_6 C4_6 1_555 1_555
N7_2 C3_6 1_555 1_555
N8_2 C7_6 1_555 1_555
N5_6 C7_6 1_555 1_555
C4_6 C3_6 1_555 1_555
C5_6 N1_6 1_555 1_555
H3_6 C5_6 1_555 1_555
C6_6 N2_6 1_555 1_555
C7_6 C6_6 1_555 1_555
C9_6 N5_6 1_555 1_555
Zn3_6 N1_6 1_555 1_555
N6_4 Zn2_2 1_555 1_555
N7_2 C6_6 1_555 1_555
C4_6 C5_6 1_555 1_555
Zn3_3 N5_7 1_555 1_555
N1_7 C1_7 1_555 1_555
N2_7 C4_7 1_555 1_555
N3_4 C3_7 1_555 1_555
N4_4 C7_7 1_555 1_555
N5_7 C7_7 1_555 1_555
C1_7 H1_7 1_555 1_555
C2_7 C1_7 1_555 1_555
H2_7 C2_7 1_555 1_555
C3_7 C2_7 1_555 1_555
C4_7 C3_7 1_555 1_555
C5_7 N1_7 1_555 1_555
H3_7 C5_7 1_555 1_555
C6_7 N2_7 1_555 1_555
C7_7 C6_7 1_555 1_555
C8_4 N4_4 1_555 1_555
H4_4 C8_4 1_555 1_555
C9_7 N5_7 1_555 1_555
H5_4 C9_7 1_555 1_555
Zn3_6 N3_4 1_555 1_555
Zn3_7 N1_7 1_555 1_555
N7_4 Zn3_3 1_555 1_555
N8_4 Zn3_3 1_555 1_555
N3_4 C6_7 1_555 1_555
N4_4 Zn3_6 1_555 1_555
C4_7 C5_7 1_555 1_555
C8_4 C9_7 1_555 1_555
Zn3 N5_8 1_555 1_555
N3_5 C3_8 1_555 1_555
N4_5 C7_8 1_555 1_555
N5_8 C7_8 1_555 1_555
C6_8 N2_8 1_555 1_555
C7_8 C6_8 1_555 1_555
C8_5 N4_5 1_555 1_555
H4_5 C8_5 1_555 1_555
C9_8 N5_8 1_555 1_555
H5_5 C9_8 1_555 1_555
Zn3_5 N3_5 1_555 1_555
N7_5 Zn3 1_555 1_555
N8_5 Zn3 1_555 1_555
N3_5 C6_8 1_555 1_555
N4_5 Zn3_5 1_555 1_555
C8_5 C9_8 1_555 1_555
N1_8 C1_8 1_555 1_555
C1_8 H1_8 1_555 1_555
C2_8 C1_8 1_555 1_555
H2_8 C2_8 1_555 1_555
C5_8 N1_8 1_555 1_555
H3_8 C5_8 1_555 1_555
Zn3_8 N1_8 1_555 1_555
C4_8 C5_8 1_555 1_555
Zn3_2 N5_9 1_555 1_555
N3_6 C3_9 1_555 1_555
N4_6 C7_9 1_555 1_555
N5_9 C7_9 1_555 1_555
C6_9 N2_9 1_555 1_555
C7_9 C6_9 1_555 1_555
C8_6 N4_6 1_555 1_555
H4_6 C8_6 1_555 1_555
C9_9 N5_9 1_555 1_555
H5_6 C9_9 1_555 1_555
Zn3_4 N3_6 1_555 1_555
N7_6 Zn3_2 1_555 1_555
N8_6 Zn3_2 1_555 1_555
N3_6 C6_9 1_555 1_555
N4_6 Zn3_4 1_555 1_555
C8_6 C9_9 1_555 1_555
N1_9 C1_9 1_555 1_555
N2_10 C4_9 1_555 1_555
N7_4 C3_10 1_555 1_555
N8_4 C7_10 1_555 1_555
N5_10 C7_10 1_555 1_555
C1_9 H1_9 1_555 1_555
C2_9 C1_9 1_555 1_555
H2_9 C2_9 1_555 1_555
C3_10 C2_9 1_555 1_555
C4_9 C3_10 1_555 1_555
C5_9 N1_9 1_555 1_555
H3_9 C5_9 1_555 1_555
C6_10 N2_10 1_555 1_555
C7_10 C6_10 1_555 1_555
C8_7 N8_4 1_555 1_555
H4_7 C8_7 1_555 1_555
C9_10 N5_10 1_555 1_555
Zn3_9 N1_9 1_555 1_555
N7_4 C6_10 1_555 1_555
C4_9 C5_9 1_555 1_555
C8_7 C9_10 1_555 1_555
N1_10 C1_10 1_555 1_555
C1_10 H1_10 1_555 1_555
C2_10 C1_10 1_555 1_555
H2_10 C2_10 1_555 1_555
C5_10 N1_10 1_555 1_555
H3_10 C5_10 1_555 1_555
Zn3_10 N1_10 1_555 1_555
C4_10 C5_10 1_555 1_555
N7_6 C3_11 1_555 1_555
N8_6 C7_11 1_555 1_555
N5_11 C7_11 1_555 1_555
C6_11 N2_11 1_555 1_555
C7_11 C6_11 1_555 1_555
C8_8 N8_6 1_555 1_555
H4_8 C8_8 1_555 1_555
C9_11 N5_11 1_555 1_555
N7_6 C6_11 1_555 1_555
C8_8 C9_11 1_555 1_555
N7_5 C3_12 1_555 1_555
N8_5 C7_12 1_555 1_555
N5_12 C7_12 1_555 1_555
C6_12 N2_12 1_555 1_555
C7_12 C6_12 1_555 1_555
C8_9 N8_5 1_555 1_555
H4_9 C8_9 1_555 1_555
C9_12 N5_12 1_555 1_555
N7_5 C6_12 1_555 1_555
C8_9 C9_12 1_555 1_555
N6_2 C1_11 1_555 1_555
N3_7 C3_13 1_555 1_555
C1_11 H1_11 1_555 1_555
C2_11 C1_11 1_555 1_555
H2_11 C2_11 1_555 1_555
C3_13 C2_11 1_555 1_555
Zn3_10 N3_7 1_555 1_555
N4_7 Zn3_10 1_555 1_555
Zn3_7 N5_13 1_555 1_555
N2_13 C4_11 1_555 1_555
N5_13 C7_13 1_555 1_555
H3_11 C5_11 1_555 1_555
C6_13 N2_13 1_555 1_555
C7_13 C6_13 1_555 1_555
H4_10 C8_10 1_555 1_555
C9_13 N5_13 1_555 1_555
H5_10 C9_13 1_555 1_555
N7_7 Zn3_7 1_555 1_555
N8_7 Zn3_7 1_555 1_555
C4_11 C5_11 1_555 1_555
C8_10 C9_13 1_555 1_555
N6 C1_12 1_555 1_555
N3_8 C3_14 1_555 1_555
C1_12 H1_12 1_555 1_555
C2_12 C1_12 1_555 1_555
H2_12 C2_12 1_555 1_555
C3_14 C2_12 1_555 1_555
Zn3_9 N3_8 1_555 1_555
N4_8 Zn3_9 1_555 1_555
Zn3_8 N5_14 1_555 1_555
N2_14 C4_12 1_555 1_555
N5_14 C7_14 1_555 1_555
H3_12 C5_12 1_555 1_555
C6_14 N2_14 1_555 1_555
C7_14 C6_14 1_555 1_555
H4_11 C8_11 1_555 1_555
C9_14 N5_14 1_555 1_555
H5_11 C9_14 1_555 1_555
N7_8 Zn3_8 1_555 1_555
N8_8 Zn3_8 1_555 1_555
C4_12 C5_12 1_555 1_555
C8_11 C9_14 1_555 1_555
Zn3_9 N5_15 1_555 1_555
N6_4 C1_13 1_555 1_555
N2_15 C4_13 1_555 1_555
N7_8 C3_15 1_555 1_555
N8_8 C7_15 1_555 1_555
N5_15 C7_15 1_555 1_555
C1_13 H1_13 1_555 1_555
C2_13 C1_13 1_555 1_555
H2_13 C2_13 1_555 1_555
C3_15 C2_13 1_555 1_555
C4_13 C3_15 1_555 1_555
C5_13 N6_4 1_555 1_555
H3_13 C5_13 1_555 1_555
C6_15 N2_15 1_555 1_555
C7_15 C6_15 1_555 1_555
C8_12 N8_8 1_555 1_555
H4_12 C8_12 1_555 1_555
C9_15 N5_15 1_555 1_555
H5_12 C9_15 1_555 1_555
N7_8 C6_15 1_555 1_555
C4_13 C5_13 1_555 1_555
C8_12 C9_15 1_555 1_555
Zn3_10 N5_16 1_555 1_555
N6_3 C1_14 1_555 1_555
N2_16 C4_14 1_555 1_555
N7_7 C3_16 1_555 1_555
N8_7 C7_16 1_555 1_555
N5_16 C7_16 1_555 1_555
C1_14 H1_14 1_555 1_555
C2_14 C1_14 1_555 1_555
H2_14 C2_14 1_555 1_555
C3_16 C2_14 1_555 1_555
C4_14 C3_16 1_555 1_555
C5_14 N6_3 1_555 1_555
H3_14 C5_14 1_555 1_555
C6_16 N2_16 1_555 1_555
C7_16 C6_16 1_555 1_555
C8_13 N8_7 1_555 1_555
H4_13 C8_13 1_555 1_555
C9_16 N5_16 1_555 1_555
H5_13 C9_16 1_555 1_555
N7_7 C6_16 1_555 1_555
C4_14 C5_14 1_555 1_555
C8_13 C9_16 1_555 1_555
N1_11 C1_15 1_555 1_555
C1_15 H1_15 1_555 1_555
C2_15 C1_15 1_555 1_555
H2_15 C2_15 1_555 1_555
C5_15 N1_11 1_555 1_555
H3_15 C5_15 1_555 1_555
Zn3_11 N1_11 1_555 1_555
C4_15 C5_15 1_555 1_555
N1_12 C1_16 1_555 1_555
C1_16 H1_16 1_555 1_555
C2_16 C1_16 1_555 1_555
H2_16 C2_16 1_555 1_555
C5_16 N1_12 1_555 1_555
H3_16 C5_16 1_555 1_555
Zn3_12 N1_12 1_555 1_555
C4_16 C5_16 1_555 1_555
N6_5 C1_17 1_555 1_555
N3_9 C3_17 1_555 1_555
C1_17 H1_17 1_555 1_555
C2_17 C1_17 1_555 1_555
H2_17 C2_17 1_555 1_555
C3_17 C2_17 1_555 1_555
Zn3_12 N3_9 1_555 1_555
N4_9 Zn3_12 1_555 1_555
Zn3_11 N5_17 1_555 1_555
N2_17 C4_17 1_555 1_555
N5_17 C7_17 1_555 1_555
H3_17 C5_17 1_555 1_555
C6_17 N2_17 1_555 1_555
C7_17 C6_17 1_555 1_555
H4_14 C8_14 1_555 1_555
C9_17 N5_17 1_555 1_555
H5_14 C9_17 1_555 1_555
N7_9 Zn3_11 1_555 1_555
N8_9 Zn3_11 1_555 1_555
C4_17 C5_17 1_555 1_555
C8_14 C9_17 1_555 1_555
Zn3_12 N5_18 1_555 1_555
N6_6 C1_18 1_555 1_555
N2_18 C4_18 1_555 1_555
N7_9 C3_18 1_555 1_555
N8_9 C7_18 1_555 1_555
N5_18 C7_18 1_555 1_555
C1_18 H1_18 1_555 1_555
C2_18 C1_18 1_555 1_555
H2_18 C2_18 1_555 1_555
C3_18 C2_18 1_555 1_555
C4_18 C3_18 1_555 1_555
C5_18 N6_6 1_555 1_555
H3_18 C5_18 1_555 1_555
C6_18 N2_18 1_555 1_555
C7_18 C6_18 1_555 1_555
C8_15 N8_9 1_555 1_555
H4_15 C8_15 1_555 1_555
C9_18 N5_18 1_555 1_555
H5_15 C9_18 1_555 1_555
N7_9 C6_18 1_555 1_555
C4_18 C5_18 1_555 1_555
C8_15 C9_18 1_555 1_555
H4_16 C8_16 1_555 1_555
H4_17 C8_17 1_555 1_555
H4_18 C8_18 1_555 1_555

#END
