
###############################################################################
#
# This file contains modified crystal structure data generated from the
# MOF subset of the Cambridge Structural Database (CSD) v543 
# hosted by the Cambridge Crystallographic Data Centre (CCDC).
#
# This work is licensed under the Creative Commons
# Attribution-NonCommercial-ShareAlike 4.0 International License.
# To view a copy of this license, visit
# http://creativecommons.org/licenses/by-nc-sa/4.0/
# or send a letter to
# Creative Commons, PO Box 1866, Mountain View, CA 94042, USA.
#
# CIF created using the CSD Python API on 29 September 2022
# The structure has been converted into the P1 space group
# The structure has a 3D framework
# The original CSD entry POVGEP is in the rhombohedral crystal system
# The framework has been calculated to contain at least 10.0% void space
# The void calculation uses a probe of radius 1.32A, grid spacing 0.4
#
###############################################################################

data_POVGEP
_chemical_formula_moiety         '(C162 H90 N90 Zn15)n'
_symmetry_cell_setting           triclinic
_symmetry_space_group_name_H-M   'P 1'
_symmetry_Int_Tables_number      1
_space_group_name_Hall           'P 1'
loop_
_symmetry_equiv_pos_site_id
_symmetry_equiv_pos_as_xyz
1 x,y,z
_cell_length_a                   23.1728(4)
_cell_length_b                   23.1728(4)
_cell_length_c                   10.7467(2)
_cell_angle_alpha                90
_cell_angle_beta                 90
_cell_angle_gamma                120
_cell_volume                     4997.61
loop_
_atom_site_label
_atom_site_type_symbol
_atom_site_fract_x
_atom_site_fract_y
_atom_site_fract_z
H3 H 0.365368 0.198156 0.020117
Zn1 Zn 0.19316(3) 0.13708(3) 0.43789(5)
C1 C 0.3969(2) 0.2802(2) 0.7098(4)
H1 H 0.405553 0.301222 0.632806
C2 C 0.4298(2) 0.2758(2) 0.9132(5)
H2 H 0.462170 0.295386 0.974783
C3 C 0.3722(2) 0.2179(2) 0.9421(4)
C4 C 0.3245(2) 0.1901(2) 0.8477(4)
C5 C 0.3371(2) 0.2222(2) 0.7297(4)
C6 C 0.2422(2) 0.1360(2) 0.7234(4)
C7 C 0.1771(2) 0.0817(2) 0.6881(4)
C8 C 0.0913(2) 0.0120(2) 0.5845(5)
N1 N 0.44257(17) 0.30633(18) 0.8005(4)
N2 N 0.28319(19) 0.18602(18) 0.6516(4)
N3 N 0.26297(18) 0.13436(18) 0.8434(3)
N4 N 0.15020(19) 0.07146(18) 0.5748(4)
N5 N 0.14008(19) 0.03423(19) 0.7704(4)
Zn2 Zn 0.19316(3) 0.05608(4) 0.93789(5)
Zn3 Zn 0.52959(3) 0.38941(4) 0.77122(5)
N6 N 0.19709(25) 0.22410(17) 0.4672(4)
N7 N 0.26297(18) 0.12861(25) 0.3434(3)
N8 N 0.14008(19) 0.10585(27) 0.2704(4)
Zn1_2 Zn 0.86292(3) 0.05608(4) 0.43789(5)
C1_2 C 0.7198(2) 0.1167(3) 0.7098(4)
H1_2 H 0.698778 0.104331 0.632806
C2_2 C 0.7242(2) 0.1540(3) 0.9132(5)
H2_2 H 0.704614 0.166784 0.974783
C3_2 C 0.7821(2) 0.1543(3) 0.9421(4)
C4_2 C 0.8099(2) 0.1344(3) 0.8477(4)
C5_2 C 0.7778(2) 0.1149(3) 0.7297(4)
C6_2 C 0.8640(2) 0.1062(3) 0.7234(4)
C7_2 C 0.9183(2) 0.0954(3) 0.6881(4)
C8_2 C 0.9880(2) 0.0793(3) 0.5845(5)
N1_2 N 0.69367(18) 0.13624(25) 0.8005(4)
N2_2 N 0.81398(18) 0.09717(26) 0.6516(4)
N3_2 N 0.86564(18) 0.12861(25) 0.8434(3)
N4_2 N 0.92854(18) 0.07874(26) 0.5748(4)
N5_2 N 0.96577(19) 0.10585(27) 0.7704(4)
Zn2_2 Zn 0.94392(4) 0.13708(5) 0.93789(5)
Zn3_2 Zn 0.61059(4) 0.14017(5) 0.77122(5)
N7_2 N 0.87139(25) 0.13436(31) 0.3434(3)
N8_2 N 0.89415(27) 0.03423(33) 0.2704(4)
N6_2 N 0.77590(17) 0.97300(30) 0.4672(4)
Zn1_3 Zn 0.94392(4) 0.80684(3) 0.43789(5)
C1_3 C 0.8833(3) 0.6031(2) 0.7098(4)
H1_3 H 0.895669 0.594447 0.632806
C2_3 C 0.8460(3) 0.5702(2) 0.9132(5)
H2_3 H 0.833216 0.537830 0.974783
C3_3 C 0.8457(3) 0.6278(2) 0.9421(4)
C4_3 C 0.8656(3) 0.6755(2) 0.8477(4)
C5_3 C 0.8851(3) 0.6629(2) 0.7297(4)
C6_3 C 0.8938(3) 0.7578(2) 0.7234(4)
C7_3 C 0.9046(3) 0.8229(2) 0.6881(4)
C8_3 C 0.9207(3) 0.9087(2) 0.5845(5)
H4 H 0.930187 0.939333 0.520739
C9 C 0.9039(3) 0.9147(2) 0.7039(4)
H5 H 0.899802 0.949963 0.734891
N1_3 N 0.86376(25) 0.55743(17) 0.8005(4)
N2_3 N 0.90283(26) 0.71681(19) 0.6516(4)
N3_3 N 0.87139(25) 0.73703(18) 0.8434(3)
N4_3 N 0.92126(26) 0.84980(19) 0.5748(4)
N5_3 N 0.89415(27) 0.85992(19) 0.7704(4)
Zn2_3 Zn 0.86292(5) 0.80684(3) 0.93789(5)
Zn3_3 Zn 0.85983(5) 0.47041(3) 0.77122(5)
N7_3 N 0.86564(31) 0.73703(18) 0.3434(3)
N8_3 N 0.96577(33) 0.85992(19) 0.2704(4)
C1_4 C 0.7198(2) 0.6031(2) 0.2098(4)
H1_4 H 0.698778 0.594447 0.132806
C2_4 C 0.7242(2) 0.5702(2) 0.4132(5)
H2_4 H 0.704614 0.537830 0.474783
C3_4 C 0.7821(2) 0.6278(2) 0.4421(4)
H3_2 H 0.801844 0.634632 0.520117
C4_4 C 0.8099(2) 0.6755(2) 0.3477(4)
C5_4 C 0.7778(2) 0.6629(2) 0.2297(4)
C6_4 C 0.8640(2) 0.7578(2) 0.2234(4)
C7_4 C 0.9183(2) 0.8229(2) 0.1881(4)
C8_4 C 0.9880(2) 0.9087(2) 0.0845(5)
N1_4 N 0.69367(18) 0.55743(17) 0.3005(4)
N2_4 N 0.81398(18) 0.71681(19) 0.1516(4)
N4_4 N 0.92854(18) 0.84980(19) 0.0748(4)
Zn3_4 Zn 0.61059(4) 0.47041(3) 0.27122(5)
N6_3 N 0.77590(17) 0.80291(25) 0.9672(4)
N6_4 N 0.02700(30) 0.22410(17) 0.9672(4)
C1_5 C 0.8833(3) 0.2802(2) 0.2098(4)
H1_5 H 0.895669 0.301222 0.132806
C2_5 C 0.8460(3) 0.2758(2) 0.4132(5)
H2_5 H 0.833216 0.295386 0.474783
C3_5 C 0.8457(3) 0.2179(2) 0.4421(4)
H3_3 H 0.832788 0.198156 0.520117
C4_5 C 0.8656(3) 0.1901(2) 0.3477(4)
C5_5 C 0.8851(3) 0.2222(2) 0.2297(4)
C6_5 C 0.8938(3) 0.1360(2) 0.2234(4)
C7_5 C 0.9046(3) 0.0817(2) 0.1881(4)
C8_5 C 0.9207(3) 0.0120(2) 0.0845(5)
N1_5 N 0.86376(25) 0.30633(18) 0.3005(4)
N2_5 N 0.90283(26) 0.18602(18) 0.1516(4)
N4_5 N 0.92126(26) 0.07146(18) 0.0748(4)
Zn3_5 Zn 0.85983(5) 0.38941(4) 0.27122(5)
C1_6 C 0.3969(2) 0.1167(3) 0.2098(4)
H1_6 H 0.405553 0.104331 0.132806
C2_6 C 0.4298(2) 0.1540(3) 0.4132(5)
H2_6 H 0.462170 0.166784 0.474783
C3_6 C 0.3722(2) 0.1543(3) 0.4421(4)
H3_4 H 0.365368 0.167212 0.520117
C4_6 C 0.3245(2) 0.1344(3) 0.3477(4)
C5_6 C 0.3371(2) 0.1149(3) 0.2297(4)
C6_6 C 0.2422(2) 0.1062(3) 0.2234(4)
C7_6 C 0.1771(2) 0.0954(3) 0.1881(4)
C8_6 C 0.0913(2) 0.0793(3) 0.0845(5)
H4_2 H 0.060667 0.069813 0.020739
C9_2 C 0.0853(2) 0.0961(3) 0.2039(4)
H5_2 H 0.050037 0.100198 0.234891
N1_6 N 0.44257(17) 0.13624(25) 0.3005(4)
N2_6 N 0.28319(19) 0.09717(26) 0.1516(4)
N4_6 N 0.15020(19) 0.07874(26) 0.0748(4)
Zn3_6 Zn 0.52959(3) 0.14017(5) 0.27122(5)
C4_7 C 0.9912(2) 0.5234(2) 0.1810(4)
C6_7 C 0.9089(2) 0.4693(2) 0.0567(4)
C7_7 C 0.8438(2) 0.4150(2) 0.0214(4)
C9_3 C 0.7520(2) 0.3225(2) 0.0372(4)
H5_3 H 0.716704 0.283172 0.068224
N3_4 N 0.92964(18) 0.46769(18) 0.1767(3)
N5_4 N 0.80675(19) 0.36756(19) 0.1037(4)
C8_7 C 0.7580(2) 0.3453(2) 0.9178(5)
H4_3 H 0.727334 0.324187 0.854072
N2_7 N 0.94986(19) 0.51935(18) 0.9849(4)
N4_7 N 0.81687(19) 0.40479(18) 0.9081(4)
N7_4 N 0.92964(18) 0.46194(25) 0.6767(3)
N8_4 N 0.80675(19) 0.43918(27) 0.6037(4)
C1_7 C 0.3865(2) 0.4500(3) 0.0431(4)
C2_7 C 0.3909(2) 0.4873(3) 0.2465(5)
H2_7 H 0.371281 0.500117 0.308116
C3_7 C 0.4488(2) 0.4876(3) 0.2754(4)
H3_5 H 0.468511 0.500545 0.353450
C4_8 C 0.4766(2) 0.4677(3) 0.1810(4)
C5_7 C 0.4445(2) 0.4482(3) 0.0630(4)
C6_8 C 0.5307(2) 0.4395(3) 0.0567(4)
C7_8 C 0.5850(2) 0.4287(3) 0.0214(4)
C9_4 C 0.6775(2) 0.4294(3) 0.0372(4)
H5_4 H 0.716828 0.433531 0.068224
N1_7 N 0.36034(18) 0.46957(25) 0.1338(4)
N3_5 N 0.53231(18) 0.46194(25) 0.1767(3)
N5_5 N 0.63244(19) 0.43918(27) 0.1037(4)
Zn3_7 Zn 0.27725(4) 0.47351(5) 0.10456(5)
H1_7 H 0.365445 0.437664 0.966139
C8_8 C 0.6547(2) 0.4126(3) 0.9178(5)
H4_4 H 0.675813 0.403146 0.854072
N2_8 N 0.48065(18) 0.43050(26) 0.9849(4)
N4_8 N 0.59521(18) 0.41207(26) 0.9081(4)
N7_5 N 0.53806(25) 0.46769(31) 0.6767(3)
N8_5 N 0.56082(27) 0.36756(33) 0.6037(4)
C4_9 C 0.5323(3) 0.0088(2) 0.1810(4)
C6_9 C 0.5605(3) 0.0911(2) 0.0567(4)
C7_9 C 0.5713(3) 0.1562(2) 0.0214(4)
C9_5 C 0.5706(3) 0.2480(2) 0.0372(4)
H5_5 H 0.566469 0.283296 0.068224
N3_6 N 0.53806(25) 0.07036(18) 0.1767(3)
N5_6 N 0.56082(27) 0.19325(19) 0.1037(4)
C8_9 C 0.5874(3) 0.2420(2) 0.9178(5)
H4_5 H 0.596854 0.272666 0.854072
N2_9 N 0.56950(26) 0.05014(19) 0.9849(4)
N4_9 N 0.58793(26) 0.18313(19) 0.9081(4)
N7_6 N 0.53231(31) 0.07036(18) 0.6767(3)
N8_6 N 0.63244(33) 0.19325(19) 0.6037(4)
C1_8 C 0.5500(3) 0.9364(2) 0.0431(4)
C2_8 C 0.5127(3) 0.9035(2) 0.2465(5)
H2_8 H 0.499883 0.871163 0.308116
C3_8 C 0.5124(3) 0.9611(2) 0.2754(4)
H3_6 H 0.499455 0.967965 0.353450
C5_8 C 0.5518(3) 0.9962(2) 0.0630(4)
N1_8 N 0.53043(25) 0.89076(17) 0.1338(4)
Zn3_8 Zn 0.52649(5) 0.80375(3) 0.10456(5)
C4_10 C 0.4766(2) 0.0088(2) 0.6810(4)
C6_10 C 0.5307(2) 0.0911(2) 0.5567(4)
C7_10 C 0.5850(2) 0.1562(2) 0.5214(4)
C8_10 C 0.6547(2) 0.2420(2) 0.4178(5)
H4_6 H 0.675813 0.272666 0.354072
C9_6 C 0.6775(2) 0.2480(2) 0.5372(4)
H5_6 H 0.716828 0.283296 0.568224
N2_10 N 0.48065(18) 0.05014(19) 0.4849(4)
N4_10 N 0.59521(18) 0.18313(19) 0.4081(4)
C1_9 C 0.5500(3) 0.6135(2) 0.5431(4)
H1_8 H 0.562336 0.634555 0.466139
C2_9 C 0.5127(3) 0.6091(2) 0.7465(5)
H2_9 H 0.499883 0.628719 0.808116
C3_9 C 0.5124(3) 0.5512(2) 0.7754(4)
H3_7 H 0.499455 0.531489 0.853450
C4_11 C 0.5323(3) 0.5234(2) 0.6810(4)
C5_9 C 0.5518(3) 0.5555(2) 0.5630(4)
C6_11 C 0.5605(3) 0.4693(2) 0.5567(4)
C7_11 C 0.5713(3) 0.4150(2) 0.5214(4)
C8_11 C 0.5874(3) 0.3453(2) 0.4178(5)
H4_7 H 0.596854 0.324187 0.354072
C9_7 C 0.5706(3) 0.3225(2) 0.5372(4)
H5_7 H 0.566469 0.283172 0.568224
N1_9 N 0.53043(25) 0.63966(18) 0.6338(4)
N2_11 N 0.56950(26) 0.51935(18) 0.4849(4)
N4_11 N 0.58793(26) 0.40479(18) 0.4081(4)
Zn3_9 Zn 0.52649(5) 0.72275(4) 0.60456(5)
C1_10 C 0.0636(2) 0.4500(3) 0.5431(4)
H1_9 H 0.072220 0.437664 0.466139
C2_10 C 0.0965(2) 0.4873(3) 0.7465(5)
H2_10 H 0.128837 0.500117 0.808116
C3_10 C 0.0389(2) 0.4876(3) 0.7754(4)
H3_8 H 0.032035 0.500545 0.853450
C5_10 C 0.0038(2) 0.4482(3) 0.5630(4)
N1_10 N 0.10924(17) 0.46957(25) 0.6338(4)
Zn3_10 Zn 0.19625(3) 0.47351(5) 0.60456(5)
C4_12 C 0.9912(2) 0.4677(3) 0.6810(4)
C6_12 C 0.9089(2) 0.4395(3) 0.5567(4)
C7_12 C 0.8438(2) 0.4287(3) 0.5214(4)
C8_12 C 0.7580(2) 0.4126(3) 0.4178(5)
H4_8 H 0.727334 0.403146 0.354072
C9_8 C 0.7520(2) 0.4294(3) 0.5372(4)
H5_8 H 0.716704 0.433531 0.568224
N2_12 N 0.94986(19) 0.43050(26) 0.4849(4)
N4_12 N 0.81687(19) 0.41207(26) 0.4081(4)
C1_11 C 0.7302(2) 0.9469(2) 0.3765(4)
H1_10 H 0.738886 0.967889 0.299473
C2_11 C 0.7631(2) 0.9425(2) 0.5799(5)
H2_11 H 0.795503 0.962053 0.641450
C3_11 C 0.7055(2) 0.8846(2) 0.6088(4)
H3_9 H 0.698701 0.864823 0.686784
C4_13 C 0.6578(2) 0.8568(2) 0.5144(4)
C5_11 C 0.6704(2) 0.8889(2) 0.3964(4)
C6_13 C 0.5755(2) 0.8027(2) 0.3901(4)
C7_13 C 0.5104(2) 0.7484(2) 0.3548(4)
C8_13 C 0.4246(2) 0.6787(2) 0.2512(5)
H4_9 H 0.394000 0.657521 0.187406
C9_9 C 0.4186(2) 0.6559(2) 0.3706(4)
H5_9 H 0.383370 0.616506 0.401558
N2_13 N 0.61652(19) 0.85269(18) 0.3183(4)
N3_7 N 0.59630(18) 0.80103(18) 0.5101(3)
N4_13 N 0.48353(19) 0.73813(18) 0.2415(4)
N5_7 N 0.47341(19) 0.70090(19) 0.4371(4)
N7_7 N 0.59630(18) 0.79528(25) 0.0101(3)
N8_7 N 0.47341(19) 0.77252(27) 0.9371(4)
C1_12 C 0.2166(3) 0.2698(2) 0.3765(4)
H1_11 H 0.229002 0.261114 0.299473
C2_12 C 0.1793(3) 0.2369(2) 0.5799(5)
H2_12 H 0.166549 0.204497 0.641450
C3_12 C 0.1790(3) 0.2945(2) 0.6088(4)
H3_10 H 0.166121 0.301299 0.686784
C4_14 C 0.1989(3) 0.3422(2) 0.5144(4)
C5_12 C 0.2184(3) 0.3296(2) 0.3964(4)
C6_14 C 0.2271(3) 0.4245(2) 0.3901(4)
C7_14 C 0.2379(3) 0.4896(2) 0.3548(4)
C8_14 C 0.2540(3) 0.5754(2) 0.2512(5)
H4_10 H 0.263520 0.606000 0.187406
C9_10 C 0.2372(3) 0.5814(2) 0.3706(4)
H5_10 H 0.233135 0.616630 0.401558
N2_14 N 0.23616(26) 0.38348(19) 0.3183(4)
N3_8 N 0.20472(25) 0.40370(18) 0.5101(3)
N4_14 N 0.25459(26) 0.51647(19) 0.2415(4)
N5_8 N 0.22748(27) 0.52659(19) 0.4371(4)
N7_8 N 0.19897(31) 0.40370(18) 0.0101(3)
N8_8 N 0.29910(33) 0.52659(19) 0.9371(4)
C2_13 C 0.0575(2) 0.2369(2) 0.0799(5)
H2_13 H 0.037947 0.204497 0.141450
C3_13 C 0.1154(2) 0.2945(2) 0.1088(4)
H3_11 H 0.135177 0.301299 0.186784
C4_15 C 0.1432(2) 0.3422(2) 0.0144(4)
C1_13 C 0.0531(2) 0.2698(2) 0.8765(4)
H1_12 H 0.032111 0.261114 0.799473
C5_13 C 0.1111(2) 0.3296(2) 0.8964(4)
C6_15 C 0.1973(2) 0.4245(2) 0.8901(4)
C7_15 C 0.2516(2) 0.4896(2) 0.8548(4)
C8_15 C 0.3213(2) 0.5754(2) 0.7512(5)
H4_11 H 0.342479 0.606000 0.687406
C9_11 C 0.3441(2) 0.5814(2) 0.8706(4)
H5_11 H 0.383494 0.616630 0.901558
N2_15 N 0.14731(18) 0.38348(19) 0.8183(4)
N4_15 N 0.26187(18) 0.51647(19) 0.7415(4)
C2_14 C 0.7631(2) 0.8207(3) 0.0799(5)
H2_14 H 0.795503 0.833451 0.141450
C3_14 C 0.7055(2) 0.8210(3) 0.1088(4)
H3_12 H 0.698701 0.833879 0.186784
C4_16 C 0.6578(2) 0.8011(3) 0.0144(4)
C1_14 C 0.7302(2) 0.7834(3) 0.8765(4)
H1_13 H 0.738886 0.770998 0.799473
C5_14 C 0.6704(2) 0.7816(3) 0.8964(4)
C6_16 C 0.5755(2) 0.7729(3) 0.8901(4)
C7_16 C 0.5104(2) 0.7621(3) 0.8548(4)
C8_16 C 0.4246(2) 0.7460(3) 0.7512(5)
H4_12 H 0.394000 0.736480 0.687406
C9_12 C 0.4186(2) 0.7628(3) 0.8706(4)
H5_12 H 0.383370 0.766865 0.901558
N2_16 N 0.61652(19) 0.76384(26) 0.8183(4)
N4_16 N 0.48353(19) 0.74541(26) 0.7415(4)
H4_13 H 0.060667 0.990854 0.520739
C9_13 C 0.0853(2) 0.9892(2) 0.7039(4)
H5_13 H 0.050037 0.949839 0.734891
H4_14 H 0.009146 0.069813 0.520739
C9_14 C 0.0108(2) 0.0961(3) 0.7039(4)
H5_14 H 0.050161 0.100198 0.734891
H3_13 H 0.801844 0.167212 0.020117
N6_5 N 0.02700(30) 0.80291(25) 0.4672(4)
N6_6 N 0.19709(25) 0.97300(30) 0.9672(4)
C1_15 C 0.0636(2) 0.6135(2) 0.0431(4)
C2_15 C 0.0965(2) 0.6091(2) 0.2465(5)
H2_15 H 0.128837 0.628719 0.308116
C3_15 C 0.0389(2) 0.5512(2) 0.2754(4)
H3_14 H 0.032035 0.531489 0.353450
C5_15 C 0.0038(2) 0.5555(2) 0.0630(4)
N1_11 N 0.10924(17) 0.63966(18) 0.1338(4)
Zn3_11 Zn 0.19625(3) 0.72275(4) 0.10456(5)
C1_16 C 0.3865(2) 0.9364(2) 0.5431(4)
H1_14 H 0.365445 0.927780 0.466139
C2_16 C 0.3909(2) 0.9035(2) 0.7465(5)
H2_16 H 0.371281 0.871163 0.808116
C3_16 C 0.4488(2) 0.9611(2) 0.7754(4)
H3_15 H 0.468511 0.967965 0.853450
C5_16 C 0.4445(2) 0.9962(2) 0.5630(4)
N1_12 N 0.36034(18) 0.89076(17) 0.6338(4)
Zn3_12 Zn 0.27725(4) 0.80375(3) 0.60456(5)
C1_17 C 0.0531(2) 0.7834(3) 0.3765(4)
H1_15 H 0.032111 0.770998 0.299473
C2_17 C 0.0575(2) 0.8207(3) 0.5799(5)
H2_17 H 0.037947 0.833451 0.641450
C3_17 C 0.1154(2) 0.8210(3) 0.6088(4)
H3_16 H 0.135177 0.833879 0.686784
C4_17 C 0.1432(2) 0.8011(3) 0.5144(4)
C5_17 C 0.1111(2) 0.7816(3) 0.3964(4)
C6_17 C 0.1973(2) 0.7729(3) 0.3901(4)
C7_17 C 0.2516(2) 0.7621(3) 0.3548(4)
C8_17 C 0.3213(2) 0.7460(3) 0.2512(5)
H4_15 H 0.342479 0.736480 0.187406
C9_15 C 0.3441(2) 0.7628(3) 0.3706(4)
H5_15 H 0.383494 0.766865 0.401558
N2_17 N 0.14731(18) 0.76384(26) 0.3183(4)
N3_9 N 0.19897(18) 0.79528(25) 0.5101(3)
N4_17 N 0.26187(18) 0.74541(26) 0.2415(4)
N5_9 N 0.29910(19) 0.77252(27) 0.4371(4)
N7_9 N 0.20472(25) 0.80103(31) 0.0101(3)
N8_9 N 0.22748(27) 0.70090(33) 0.9371(4)
C2_18 C 0.1793(3) 0.9425(2) 0.0799(5)
H2_18 H 0.166549 0.962053 0.141450
C3_18 C 0.1790(3) 0.8846(2) 0.1088(4)
H3_17 H 0.166121 0.864823 0.186784
C4_18 C 0.1989(3) 0.8568(2) 0.0144(4)
C1_18 C 0.2166(3) 0.9469(2) 0.8765(4)
H1_16 H 0.229002 0.967889 0.799473
C5_18 C 0.2184(3) 0.8889(2) 0.8964(4)
C6_18 C 0.2271(3) 0.8027(2) 0.8901(4)
C7_18 C 0.2379(3) 0.7484(2) 0.8548(4)
C8_18 C 0.2540(3) 0.6787(2) 0.7512(5)
H4_16 H 0.263520 0.657521 0.687406
C9_16 C 0.2372(3) 0.6559(2) 0.8706(4)
H5_16 H 0.233135 0.616506 0.901558
N2_18 N 0.23616(26) 0.85269(18) 0.8183(4)
N4_18 N 0.25459(26) 0.73813(18) 0.7415(4)
H3_18 H 0.832788 0.634632 0.020117
H4_17 H 0.009146 0.939333 0.020739
C9_17 C 0.0108(2) 0.9147(2) 0.2039(4)
H5_17 H 0.050161 0.949963 0.234891
H4_18 H 0.930187 0.990854 0.020739
C9_18 C 0.9039(3) 0.9892(2) 0.2039(4)
H5_18 H 0.899802 0.949839 0.234891
H1_17 H 0.072220 0.634555 0.966139
H1_18 H 0.562336 0.927780 0.966139
loop_
_geom_bond_atom_site_label_1
_geom_bond_atom_site_label_2
_geom_bond_site_symmetry_1
_geom_bond_site_symmetry_2
Zn1 N4 1_555 1_555
C1 H1 1_555 1_555
C2 H2 1_555 1_555
C3 C2 1_555 1_555
C4 C3 1_555 1_555
C5 C1 1_555 1_555
C6 C7 1_555 1_555
C7 N4 1_555 1_555
N1 C1 1_555 1_555
N2 C5 1_555 1_555
N3 C4 1_555 1_555
N4 C8 1_555 1_555
N5 C7 1_555 1_555
Zn2 N3 1_555 1_555
Zn3 N1 1_555 1_555
N6 Zn1 1_555 1_555
N7 Zn1 1_555 1_555
N8 Zn1 1_555 1_555
C2 N1 1_555 1_555
C4 C5 1_555 1_555
C6 N2 1_555 1_555
C6 N3 1_555 1_555
N5 Zn2 1_555 1_555
Zn1_2 N4_2 1_555 1_555
C1_2 H1_2 1_555 1_555
C2_2 H2_2 1_555 1_555
C3_2 C2_2 1_555 1_555
C4_2 C3_2 1_555 1_555
C5_2 C1_2 1_555 1_555
C6_2 C7_2 1_555 1_555
C7_2 N4_2 1_555 1_555
N1_2 C1_2 1_555 1_555
N2_2 C5_2 1_555 1_555
N3_2 C4_2 1_555 1_555
N4_2 C8_2 1_555 1_555
N5_2 C7_2 1_555 1_555
Zn2_2 N3_2 1_555 1_555
Zn3_2 N1_2 1_555 1_555
N7_2 Zn1_2 1_555 1_555
N8_2 Zn1_2 1_555 1_555
C2_2 N1_2 1_555 1_555
C4_2 C5_2 1_555 1_555
C6_2 N2_2 1_555 1_555
C6_2 N3_2 1_555 1_555
N5_2 Zn2_2 1_555 1_555
Zn1_3 N4_3 1_555 1_555
C1_3 H1_3 1_555 1_555
C2_3 H2_3 1_555 1_555
C3_3 C2_3 1_555 1_555
C4_3 C3_3 1_555 1_555
C5_3 C1_3 1_555 1_555
C6_3 C7_3 1_555 1_555
C7_3 N4_3 1_555 1_555
C8_3 H4 1_555 1_555
C9 C8_3 1_555 1_555
H5 C9 1_555 1_555
N1_3 C1_3 1_555 1_555
N2_3 C5_3 1_555 1_555
N3_3 C4_3 1_555 1_555
N4_3 C8_3 1_555 1_555
N5_3 C7_3 1_555 1_555
Zn2_3 N3_3 1_555 1_555
Zn3_3 N1_3 1_555 1_555
N7_3 Zn1_3 1_555 1_555
N8_3 Zn1_3 1_555 1_555
C2_3 N1_3 1_555 1_555
C4_3 C5_3 1_555 1_555
C6_3 N2_3 1_555 1_555
C6_3 N3_3 1_555 1_555
C9 N5_3 1_555 1_555
N5_3 Zn2_3 1_555 1_555
C1_4 H1_4 1_555 1_555
C2_4 H2_4 1_555 1_555
C3_4 C2_4 1_555 1_555
H3_2 C3_4 1_555 1_555
C4_4 C3_4 1_555 1_555
C5_4 C1_4 1_555 1_555
C6_4 C7_4 1_555 1_555
C7_4 N4_4 1_555 1_555
N1_4 C1_4 1_555 1_555
N2_4 C5_4 1_555 1_555
N7_3 C4_4 1_555 1_555
N4_4 C8_4 1_555 1_555
N8_3 C7_4 1_555 1_555
Zn3_4 N1_4 1_555 1_555
C2_4 N1_4 1_555 1_555
C4_4 C5_4 1_555 1_555
C6_4 N2_4 1_555 1_555
C6_4 N7_3 1_555 1_555
N6_3 Zn2_3 1_555 1_555
C1_5 H1_5 1_555 1_555
C2_5 H2_5 1_555 1_555
C3_5 C2_5 1_555 1_555
H3_3 C3_5 1_555 1_555
C4_5 C3_5 1_555 1_555
C5_5 C1_5 1_555 1_555
C6_5 C7_5 1_555 1_555
C7_5 N4_5 1_555 1_555
N1_5 C1_5 1_555 1_555
N2_5 C5_5 1_555 1_555
N7_2 C4_5 1_555 1_555
N4_5 C8_5 1_555 1_555
N8_2 C7_5 1_555 1_555
Zn3_5 N1_5 1_555 1_555
C2_5 N1_5 1_555 1_555
C4_5 C5_5 1_555 1_555
C6_5 N2_5 1_555 1_555
C6_5 N7_2 1_555 1_555
C1_6 H1_6 1_555 1_555
C2_6 H2_6 1_555 1_555
C3_6 C2_6 1_555 1_555
H3_4 C3_6 1_555 1_555
C4_6 C3_6 1_555 1_555
C5_6 C1_6 1_555 1_555
C6_6 C7_6 1_555 1_555
C7_6 N4_6 1_555 1_555
C8_6 H4_2 1_555 1_555
C9_2 C8_6 1_555 1_555
H5_2 C9_2 1_555 1_555
N1_6 C1_6 1_555 1_555
N2_6 C5_6 1_555 1_555
N7 C4_6 1_555 1_555
N4_6 C8_6 1_555 1_555
N8 C7_6 1_555 1_555
Zn3_6 N1_6 1_555 1_555
C2_6 N1_6 1_555 1_555
C4_6 C5_6 1_555 1_555
C6_6 N2_6 1_555 1_555
C6_6 N7 1_555 1_555
C9_2 N8 1_555 1_555
C6_7 C7_7 1_555 1_555
H5_3 C9_3 1_555 1_555
N3_4 C4_7 1_555 1_555
N5_4 C7_7 1_555 1_555
Zn3_5 N3_4 1_555 1_555
C6_7 N3_4 1_555 1_555
C9_3 N5_4 1_555 1_555
N5_4 Zn3_5 1_555 1_555
Zn3_3 N4_7 1_555 1_555
C8_7 H4_3 1_555 1_555
N4_7 C8_7 1_555 1_555
N7_4 Zn3_3 1_555 1_555
N8_4 Zn3_3 1_555 1_555
C2_7 H2_7 1_555 1_555
C3_7 C2_7 1_555 1_555
H3_5 C3_7 1_555 1_555
C4_8 C3_7 1_555 1_555
C5_7 C1_7 1_555 1_555
C6_8 C7_8 1_555 1_555
H5_4 C9_4 1_555 1_555
N1_7 C1_7 1_555 1_555
N3_5 C4_8 1_555 1_555
N5_5 C7_8 1_555 1_555
Zn3_4 N3_5 1_555 1_555
Zn3_7 N1_7 1_555 1_555
C2_7 N1_7 1_555 1_555
C4_8 C5_7 1_555 1_555
C6_8 N3_5 1_555 1_555
C9_4 N5_5 1_555 1_555
N5_5 Zn3_4 1_555 1_555
Zn3 N4_8 1_555 1_555
C8_8 H4_4 1_555 1_555
N4_8 C8_8 1_555 1_555
N7_5 Zn3 1_555 1_555
N8_5 Zn3 1_555 1_555
C6_9 C7_9 1_555 1_555
H5_5 C9_5 1_555 1_555
N3_6 C4_9 1_555 1_555
N5_6 C7_9 1_555 1_555
Zn3_6 N3_6 1_555 1_555
C6_9 N3_6 1_555 1_555
C9_5 N5_6 1_555 1_555
N5_6 Zn3_6 1_555 1_555
Zn3_2 N4_9 1_555 1_555
C8_9 H4_5 1_555 1_555
N4_9 C8_9 1_555 1_555
N7_6 Zn3_2 1_555 1_555
N8_6 Zn3_2 1_555 1_555
C2_8 H2_8 1_555 1_555
C3_8 C2_8 1_555 1_555
H3_6 C3_8 1_555 1_555
C5_8 C1_8 1_555 1_555
N1_8 C1_8 1_555 1_555
Zn3_8 N1_8 1_555 1_555
C2_8 N1_8 1_555 1_555
Zn3_6 N4_10 1_555 1_555
C6_10 C7_10 1_555 1_555
C7_10 N4_10 1_555 1_555
C8_10 H4_6 1_555 1_555
C9_6 C8_10 1_555 1_555
H5_6 C9_6 1_555 1_555
N7_6 C4_10 1_555 1_555
N4_10 C8_10 1_555 1_555
N8_6 C7_10 1_555 1_555
C6_10 N2_10 1_555 1_555
C6_10 N7_6 1_555 1_555
C9_6 N8_6 1_555 1_555
Zn3_4 N4_11 1_555 1_555
C1_9 H1_8 1_555 1_555
C2_9 H2_9 1_555 1_555
C3_9 C2_9 1_555 1_555
H3_7 C3_9 1_555 1_555
C4_11 C3_9 1_555 1_555
C5_9 C1_9 1_555 1_555
C6_11 C7_11 1_555 1_555
C7_11 N4_11 1_555 1_555
C8_11 H4_7 1_555 1_555
C9_7 C8_11 1_555 1_555
H5_7 C9_7 1_555 1_555
N1_9 C1_9 1_555 1_555
N2_11 C5_9 1_555 1_555
N7_5 C4_11 1_555 1_555
N4_11 C8_11 1_555 1_555
N8_5 C7_11 1_555 1_555
Zn3_9 N1_9 1_555 1_555
C2_9 N1_9 1_555 1_555
C4_11 C5_9 1_555 1_555
C6_11 N2_11 1_555 1_555
C6_11 N7_5 1_555 1_555
C9_7 N8_5 1_555 1_555
C1_10 H1_9 1_555 1_555
C2_10 H2_10 1_555 1_555
C3_10 C2_10 1_555 1_555
H3_8 C3_10 1_555 1_555
C5_10 C1_10 1_555 1_555
N1_10 C1_10 1_555 1_555
Zn3_10 N1_10 1_555 1_555
C2_10 N1_10 1_555 1_555
Zn3_5 N4_12 1_555 1_555
C6_12 C7_12 1_555 1_555
C7_12 N4_12 1_555 1_555
C8_12 H4_8 1_555 1_555
C9_8 C8_12 1_555 1_555
H5_8 C9_8 1_555 1_555
N7_4 C4_12 1_555 1_555
N4_12 C8_12 1_555 1_555
N8_4 C7_12 1_555 1_555
C6_12 N2_12 1_555 1_555
C6_12 N7_4 1_555 1_555
C9_8 N8_4 1_555 1_555
Zn3_8 N4_13 1_555 1_555
C1_11 H1_10 1_555 1_555
C2_11 H2_11 1_555 1_555
C3_11 C2_11 1_555 1_555
H3_9 C3_11 1_555 1_555
C4_13 C3_11 1_555 1_555
C5_11 C1_11 1_555 1_555
C6_13 C7_13 1_555 1_555
C7_13 N4_13 1_555 1_555
C8_13 H4_9 1_555 1_555
C9_9 C8_13 1_555 1_555
H5_9 C9_9 1_555 1_555
N6_2 C1_11 1_555 1_555
N2_13 C5_11 1_555 1_555
N3_7 C4_13 1_555 1_555
N4_13 C8_13 1_555 1_555
N5_7 C7_13 1_555 1_555
Zn3_9 N3_7 1_555 1_555
N7_7 Zn3_8 1_555 1_555
C2_11 N6_2 1_555 1_555
C4_13 C5_11 1_555 1_555
C6_13 N2_13 1_555 1_555
C6_13 N3_7 1_555 1_555
C9_9 N5_7 1_555 1_555
N5_7 Zn3_9 1_555 1_555
Zn3_7 N4_14 1_555 1_555
C1_12 H1_11 1_555 1_555
C2_12 H2_12 1_555 1_555
C3_12 C2_12 1_555 1_555
H3_10 C3_12 1_555 1_555
C4_14 C3_12 1_555 1_555
C5_12 C1_12 1_555 1_555
C6_14 C7_14 1_555 1_555
C7_14 N4_14 1_555 1_555
C8_14 H4_10 1_555 1_555
C9_10 C8_14 1_555 1_555
H5_10 C9_10 1_555 1_555
N6 C1_12 1_555 1_555
N2_14 C5_12 1_555 1_555
N3_8 C4_14 1_555 1_555
N4_14 C8_14 1_555 1_555
N5_8 C7_14 1_555 1_555
Zn3_10 N3_8 1_555 1_555
N7_8 Zn3_7 1_555 1_555
C2_12 N6 1_555 1_555
C4_14 C5_12 1_555 1_555
C6_14 N2_14 1_555 1_555
C6_14 N3_8 1_555 1_555
C9_10 N5_8 1_555 1_555
N5_8 Zn3_10 1_555 1_555
C2_13 H2_13 1_555 1_555
C3_13 C2_13 1_555 1_555
H3_11 C3_13 1_555 1_555
C4_15 C3_13 1_555 1_555
N7_8 C4_15 1_555 1_555
Zn3_10 N4_15 1_555 1_555
C1_13 H1_12 1_555 1_555
C5_13 C1_13 1_555 1_555
C6_15 C7_15 1_555 1_555
C7_15 N4_15 1_555 1_555
C8_15 H4_11 1_555 1_555
C9_11 C8_15 1_555 1_555
H5_11 C9_11 1_555 1_555
N6_4 C1_13 1_555 1_555
N2_15 C5_13 1_555 1_555
N4_15 C8_15 1_555 1_555
N8_8 C7_15 1_555 1_555
C6_15 N2_15 1_555 1_555
C9_11 N8_8 1_555 1_555
C2_14 H2_14 1_555 1_555
C3_14 C2_14 1_555 1_555
H3_12 C3_14 1_555 1_555
C4_16 C3_14 1_555 1_555
N7_7 C4_16 1_555 1_555
Zn3_9 N4_16 1_555 1_555
C1_14 H1_13 1_555 1_555
C5_14 C1_14 1_555 1_555
C6_16 C7_16 1_555 1_555
C7_16 N4_16 1_555 1_555
C8_16 H4_12 1_555 1_555
C9_12 C8_16 1_555 1_555
H5_12 C9_12 1_555 1_555
N6_3 C1_14 1_555 1_555
N2_16 C5_14 1_555 1_555
N4_16 C8_16 1_555 1_555
N8_7 C7_16 1_555 1_555
C6_16 N2_16 1_555 1_555
C9_12 N8_7 1_555 1_555
H5_13 C9_13 1_555 1_555
H5_14 C9_14 1_555 1_555
C2_15 H2_15 1_555 1_555
C3_15 C2_15 1_555 1_555
H3_14 C3_15 1_555 1_555
C5_15 C1_15 1_555 1_555
N1_11 C1_15 1_555 1_555
Zn3_11 N1_11 1_555 1_555
C2_15 N1_11 1_555 1_555
C1_16 H1_14 1_555 1_555
C2_16 H2_16 1_555 1_555
C3_16 C2_16 1_555 1_555
H3_15 C3_16 1_555 1_555
C5_16 C1_16 1_555 1_555
N1_12 C1_16 1_555 1_555
Zn3_12 N1_12 1_555 1_555
C2_16 N1_12 1_555 1_555
Zn3_11 N4_17 1_555 1_555
C1_17 H1_15 1_555 1_555
C2_17 H2_17 1_555 1_555
C3_17 C2_17 1_555 1_555
H3_16 C3_17 1_555 1_555
C4_17 C3_17 1_555 1_555
C5_17 C1_17 1_555 1_555
C6_17 C7_17 1_555 1_555
C7_17 N4_17 1_555 1_555
C8_17 H4_15 1_555 1_555
C9_15 C8_17 1_555 1_555
H5_15 C9_15 1_555 1_555
N6_5 C1_17 1_555 1_555
N2_17 C5_17 1_555 1_555
N3_9 C4_17 1_555 1_555
N4_17 C8_17 1_555 1_555
N5_9 C7_17 1_555 1_555
Zn3_12 N3_9 1_555 1_555
N7_9 Zn3_11 1_555 1_555
C2_17 N6_5 1_555 1_555
C4_17 C5_17 1_555 1_555
C6_17 N2_17 1_555 1_555
C6_17 N3_9 1_555 1_555
C9_15 N5_9 1_555 1_555
N5_9 Zn3_12 1_555 1_555
C2_18 H2_18 1_555 1_555
C3_18 C2_18 1_555 1_555
H3_17 C3_18 1_555 1_555
C4_18 C3_18 1_555 1_555
N7_9 C4_18 1_555 1_555
Zn3_12 N4_18 1_555 1_555
C1_18 H1_16 1_555 1_555
C5_18 C1_18 1_555 1_555
C6_18 C7_18 1_555 1_555
C7_18 N4_18 1_555 1_555
C8_18 H4_16 1_555 1_555
C9_16 C8_18 1_555 1_555
H5_16 C9_16 1_555 1_555
N6_6 C1_18 1_555 1_555
N2_18 C5_18 1_555 1_555
N4_18 C8_18 1_555 1_555
N8_9 C7_18 1_555 1_555
C6_18 N2_18 1_555 1_555
C9_16 N8_9 1_555 1_555
H5_17 C9_17 1_555 1_555
H5_18 C9_18 1_555 1_555

#END
