
###############################################################################
#
# This file contains modified crystal structure data generated from the
# MOF subset of the Cambridge Structural Database (CSD) v543 
# hosted by the Cambridge Crystallographic Data Centre (CCDC).
#
# This work is licensed under the Creative Commons
# Attribution-NonCommercial-ShareAlike 4.0 International License.
# To view a copy of this license, visit
# http://creativecommons.org/licenses/by-nc-sa/4.0/
# or send a letter to
# Creative Commons, PO Box 1866, Mountain View, CA 94042, USA.
#
# CIF created using the CSD Python API on 29 September 2022
# The structure has been converted into the P1 space group
# The structure has a 3D framework
# The original CSD entry POWTAZ is in the trigonal crystal system
# The framework has been calculated to contain at least 10.0% void space
# The void calculation uses a probe of radius 1.32A, grid spacing 0.4
# The framework is charged, counterions have been retained in the structure
#
###############################################################################

data_POWTAZ
_chemical_formula_moiety         '(C54 H30 Ba2 O42 Zn6 4-)n'
_symmetry_cell_setting           triclinic
_symmetry_space_group_name_H-M   'P 1'
_symmetry_Int_Tables_number      1
_space_group_name_Hall           'P 1'
loop_
_symmetry_equiv_pos_site_id
_symmetry_equiv_pos_as_xyz
1 x,y,z
_cell_length_a                   15.2649(9)
_cell_length_b                   15.2649(9)
_cell_length_c                   7.9050(6)
_cell_angle_alpha                90
_cell_angle_beta                 90
_cell_angle_gamma                120
_cell_volume                     1595.22
loop_
_atom_site_label
_atom_site_type_symbol
_atom_site_fract_x
_atom_site_fract_y
_atom_site_fract_z
O16 O 0.55512(25) 0.02007(18) 0.7338(3)
O17 O 0.61188(27) 0.18457(19) 0.6991(4)
O18 O 0.35522(23) 0.28696(16) 0.4990(3)
O19 O 0.29974(25) 0.21362(18) 0.2541(3)
C22 C 0.4490(3) 0.0700(2) 0.5934(4)
C23 C 0.5457(3) 0.0945(2) 0.6834(4)
C24 C 0.4330(3) 0.1486(2) 0.5458(4)
H10 H 0.479745 0.214892 0.574922
C25 C 0.3466(3) 0.1276(2) 0.4542(4)
C26 C 0.3324(3) 0.2135(2) 0.4001(4)
C27 C 0.2764(3) 0.0290(2) 0.4126(4)
H11 H 0.219955 0.015513 0.348488
Ba5 Ba 0.666667 0.333333 0.94450(6)
Zn4 Zn 0.306950 0.353450 0.256960
Zn7 Zn 0.353450 0.306950 0.756960
Zn11 Zn 0.693050 0.046500 0.756960
Ba1 Ba 0.333333 0.666667 0.44450(6)
O1 O 0.17325(16) 0.30823(17) 0.3483(3)
O2 O 0.22559(19) 0.45942(16) 0.4612(4)
O7 O 0.4257(18) 0.7960(13) 0.7464(17)
H1 H 0.476(5) 0.857(3) 0.731(8)
H2 H 0.389(5) 0.816(6) 0.799(8)
C1 C 0.1583(2) 0.3737(2) 0.4247(4)
C2 C 0.0507(2) 0.3406(2) 0.4667(4)
C3 C 0.0292(2) 0.4059(2) 0.5560(4)
H3 H 0.081768 0.468367 0.591187
Zn3 Zn 0.046500 0.693050 0.256960
O14 O 0.13498(23) 0.82675(16) 0.3483(3)
O15 O 0.23383(25) 0.77441(19) 0.4612(4)
C19 C 0.2154(3) 0.8417(2) 0.4247(4)
C20 C 0.2899(3) 0.9493(2) 0.4667(4)
C21 C 0.3767(3) 0.9708(2) 0.5560(4)
H9 H 0.386599 0.918232 0.591187
O20 O 0.2040(13) 0.6297(22) 0.7464(17)
H12 H 0.143(3) 0.619(6) 0.731(8)
H13 H 0.184(6) 0.573(8) 0.799(8)
O21 O 0.3703(22) 0.5743(18) 0.7464(17)
H14 H 0.381(6) 0.524(5) 0.731(8)
H15 H 0.427(8) 0.611(5) 0.799(8)
O22 O 0.54058(16) 0.76617(25) 0.4612(4)
O24 O 0.44488(25) 0.46495(17) 0.2338(3)
O25 O 0.02007(18) 0.55512(25) 0.2338(3)
O26 O 0.42731(19) 0.81543(19) 0.1991(4)
O27 O 0.38812(27) 0.57269(19) 0.1991(4)
O28 O 0.18457(19) 0.61188(27) 0.1991(4)
O31 O 0.06826(17) 0.71304(16) 0.9990(3)
O33 O 0.28696(16) 0.35522(23) 0.9990(3)
O3 O 0.97993(18) 0.53505(17) 0.7338(3)
O4 O 0.81543(19) 0.42731(19) 0.6991(4)
O5 O 0.71304(16) 0.06826(17) 0.4990(3)
O6 O 0.78638(18) 0.08612(17) 0.2541(3)
C4 C 0.9300(2) 0.3790(2) 0.5934(4)
C5 C 0.9055(2) 0.4512(2) 0.6834(4)
C6 C 0.8514(2) 0.2844(2) 0.5458(4)
H4 H 0.785108 0.264853 0.574922
C7 C 0.8724(2) 0.2190(2) 0.4542(4)
C8 C 0.7865(2) 0.1189(2) 0.4001(4)
C9 C 0.9710(2) 0.2474(2) 0.4126(4)
H5 H 0.984487 0.204442 0.348488
Zn9 Zn 0.953500 0.646550 0.756960
O29 O 0.93174(17) 0.64478(23) 0.4990(3)
O34 O 0.91388(17) 0.70026(25) 0.2541(3)
Zn2 Zn 0.646550 0.953500 0.256960
O8 O 0.69177(17) 0.86502(23) 0.3483(3)
O10 O 0.46495(17) 0.44488(25) 0.7338(3)
O11 O 0.57269(19) 0.38812(27) 0.6991(4)
C10 C 0.6263(2) 0.7846(3) 0.4247(4)
C11 C 0.6594(2) 0.7101(3) 0.4667(4)
C12 C 0.5941(2) 0.6233(3) 0.5560(4)
H6 H 0.531633 0.613401 0.591187
C13 C 0.6210(2) 0.5510(3) 0.5934(4)
C14 C 0.5488(2) 0.4543(3) 0.6834(4)
C15 C 0.7156(2) 0.5670(3) 0.5458(4)
H7 H 0.735147 0.520255 0.574922
C16 C 0.7810(2) 0.6534(3) 0.4542(4)
C17 C 0.8811(2) 0.6676(3) 0.4001(4)
C18 C 0.7526(2) 0.7236(3) 0.4126(4)
H8 H 0.795558 0.780045 0.348488
O23 O 0.53505(17) 0.97993(18) 0.2338(3)
O32 O 0.64478(23) 0.93174(17) 0.9990(3)
C22_2 C 0.0700(2) 0.4490(3) 0.0934(4)
C23_2 C 0.0945(2) 0.5457(3) 0.1834(4)
C24_2 C 0.1486(2) 0.4330(3) 0.0458(4)
H10_2 H 0.214892 0.479745 0.074922
O19_2 O 0.21362(18) 0.29974(25) 0.7541(3)
C25_2 C 0.1276(2) 0.3466(3) 0.9542(4)
C26_2 C 0.2135(2) 0.3324(3) 0.9001(4)
C27_2 C 0.0290(2) 0.2764(3) 0.9126(4)
H11_2 H 0.015513 0.219955 0.848488
O7_2 O 0.7960(13) 0.4257(18) 0.2464(17)
H1_2 H 0.857(3) 0.476(5) 0.231(8)
H2_2 H 0.816(6) 0.389(5) 0.299(8)
C3_2 C 0.4059(2) 0.0292(2) 0.0560(4)
H3_2 H 0.468367 0.081768 0.091187
C21_2 C 0.9708(2) 0.3767(3) 0.0560(4)
H9_2 H 0.918232 0.386599 0.091187
O20_2 O 0.6297(22) 0.2040(13) 0.2464(17)
H12_2 H 0.619(6) 0.143(3) 0.231(8)
H13_2 H 0.573(8) 0.184(6) 0.299(8)
O21_2 O 0.5743(18) 0.3703(22) 0.2464(17)
H14_2 H 0.524(5) 0.381(6) 0.231(8)
H15_2 H 0.611(5) 0.427(8) 0.299(8)
O1_2 O 0.30823(17) 0.17325(16) 0.8483(3)
O2_2 O 0.45942(16) 0.22559(19) 0.9612(4)
C1_2 C 0.3737(2) 0.1583(2) 0.9247(4)
C2_2 C 0.3406(2) 0.0507(2) 0.9667(4)
O14_2 O 0.82675(16) 0.13498(23) 0.8483(3)
O15_2 O 0.77441(19) 0.23383(25) 0.9612(4)
C19_2 C 0.8417(2) 0.2154(3) 0.9247(4)
C20_2 C 0.9493(2) 0.2899(3) 0.9667(4)
O22_2 O 0.76617(25) 0.54058(16) 0.9612(4)
C4_2 C 0.3790(2) 0.9300(2) 0.0934(4)
C5_2 C 0.4512(2) 0.9055(2) 0.1834(4)
C6_2 C 0.2844(2) 0.8514(2) 0.0458(4)
H4_2 H 0.264853 0.785108 0.074922
O6_2 O 0.08612(17) 0.78638(18) 0.7541(3)
C7_2 C 0.2190(2) 0.8724(2) 0.9542(4)
C8_2 C 0.1189(2) 0.7865(2) 0.9001(4)
C9_2 C 0.2474(2) 0.9710(2) 0.9126(4)
H5_2 H 0.204442 0.984487 0.848488
O34_2 O 0.70026(25) 0.91388(17) 0.7541(3)
C12_2 C 0.6233(3) 0.5941(2) 0.0560(4)
H6_2 H 0.613401 0.531633 0.091187
C13_2 C 0.5510(3) 0.6210(2) 0.0934(4)
C14_2 C 0.4543(3) 0.5488(2) 0.1834(4)
C15_2 C 0.5670(3) 0.7156(2) 0.0458(4)
H7_2 H 0.520255 0.735147 0.074922
O8_2 O 0.86502(23) 0.69177(17) 0.8483(3)
C10_2 C 0.7846(3) 0.6263(2) 0.9247(4)
C11_2 C 0.7101(3) 0.6594(2) 0.9667(4)
C16_2 C 0.6534(3) 0.7810(2) 0.9542(4)
C17_2 C 0.6676(3) 0.8811(2) 0.9001(4)
C18_2 C 0.7236(3) 0.7526(2) 0.9126(4)
H8_2 H 0.780045 0.795558 0.848488
loop_
_geom_bond_atom_site_label_1
_geom_bond_atom_site_label_2
_geom_bond_site_symmetry_1
_geom_bond_site_symmetry_2
O16 C23 1_555 1_555
O17 C23 1_555 1_555
O18 C26 1_555 1_555
O19 C26 1_555 1_555
C23 C22 1_555 1_555
C24 C22 1_555 1_555
H10 C24 1_555 1_555
C25 C24 1_555 1_555
C26 C25 1_555 1_555
H11 C27 1_555 1_555
Ba5 O17 1_555 1_555
Zn4 O18 1_555 1_555
Zn7 O18 1_555 1_555
Zn11 O16 1_555 1_555
O19 Zn4 1_555 1_555
C25 C27 1_555 1_555
Ba1 O2 1_555 1_555
Zn4 O1 1_555 1_555
O1 C1 1_555 1_555
O2 C1 1_555 1_555
O7 Ba1 1_555 1_555
H1 O7 1_555 1_555
H2 O7 1_555 1_555
C1 C2 1_555 1_555
C2 C3 1_555 1_555
C3 H3 1_555 1_555
Zn3 O14 1_555 1_555
O14 C19 1_555 1_555
O15 Ba1 1_555 1_555
C19 O15 1_555 1_555
C20 C19 1_555 1_555
C21 C20 1_555 1_555
H9 C21 1_555 1_555
O20 Ba1 1_555 1_555
H12 O20 1_555 1_555
H13 O20 1_555 1_555
O21 Ba1 1_555 1_555
H14 O21 1_555 1_555
H15 O21 1_555 1_555
O22 Ba1 1_555 1_555
O24 Zn4 1_555 1_555
O25 Zn3 1_555 1_555
O26 Ba1 1_555 1_555
O27 Ba1 1_555 1_555
O28 Ba1 1_555 1_555
O3 C5 1_555 1_555
O4 C5 1_555 1_555
O5 C8 1_555 1_555
O6 C8 1_555 1_555
C5 C4 1_555 1_555
C6 C4 1_555 1_555
H4 C6 1_555 1_555
C7 C6 1_555 1_555
C8 C7 1_555 1_555
H5 C9 1_555 1_555
Ba5 O4 1_555 1_555
Zn9 O3 1_555 1_555
Zn11 O5 1_555 1_555
C7 C9 1_555 1_555
Zn9 O29 1_555 1_555
O8 Zn2 1_555 1_555
O22 C10 1_555 1_555
O10 C14 1_555 1_555
O11 C14 1_555 1_555
O29 C17 1_555 1_555
O34 C17 1_555 1_555
C10 O8 1_555 1_555
C11 C10 1_555 1_555
C12 C11 1_555 1_555
H6 C12 1_555 1_555
C13 C12 1_555 1_555
C14 C13 1_555 1_555
C15 C13 1_555 1_555
H7 C15 1_555 1_555
C16 C15 1_555 1_555
C17 C16 1_555 1_555
C18 C11 1_555 1_555
H8 C18 1_555 1_555
Ba5 O11 1_555 1_555
Zn7 O10 1_555 1_555
O23 Zn2 1_555 1_555
C16 C18 1_555 1_555
O25 C23_2 1_555 1_555
O28 C23_2 1_555 1_555
C23_2 C22_2 1_555 1_555
C24_2 C22_2 1_555 1_555
H10_2 C24_2 1_555 1_555
O33 C26_2 1_555 1_555
O19_2 C26_2 1_555 1_555
C26_2 C25_2 1_555 1_555
H11_2 C27_2 1_555 1_555
Zn7 O33 1_555 1_555
O19_2 Zn7 1_555 1_555
C25_2 C27_2 1_555 1_555
H1_2 O7_2 1_555 1_555
H2_2 O7_2 1_555 1_555
C3_2 H3_2 1_555 1_555
H9_2 C21_2 1_555 1_555
H12_2 O20_2 1_555 1_555
H13_2 O20_2 1_555 1_555
H14_2 O21_2 1_555 1_555
H15_2 O21_2 1_555 1_555
Ba5 O2_2 1_555 1_555
Zn7 O1_2 1_555 1_555
O1_2 C1_2 1_555 1_555
O2_2 C1_2 1_555 1_555
C1_2 C2_2 1_555 1_555
Zn11 O14_2 1_555 1_555
O14_2 C19_2 1_555 1_555
O15_2 Ba5 1_555 1_555
C19_2 O15_2 1_555 1_555
C20_2 C19_2 1_555 1_555
O22_2 Ba5 1_555 1_555
O23 C5_2 1_555 1_555
O26 C5_2 1_555 1_555
C5_2 C4_2 1_555 1_555
C6_2 C4_2 1_555 1_555
H4_2 C6_2 1_555 1_555
O31 C8_2 1_555 1_555
O6_2 C8_2 1_555 1_555
C8_2 C7_2 1_555 1_555
H5_2 C9_2 1_555 1_555
C7_2 C9_2 1_555 1_555
O24 C14_2 1_555 1_555
O27 C14_2 1_555 1_555
H6_2 C12_2 1_555 1_555
C13_2 C12_2 1_555 1_555
C14_2 C13_2 1_555 1_555
C15_2 C13_2 1_555 1_555
H7_2 C15_2 1_555 1_555
O8_2 Zn9 1_555 1_555
O22_2 C10_2 1_555 1_555
O32 C17_2 1_555 1_555
O34_2 C17_2 1_555 1_555
C10_2 O8_2 1_555 1_555
C11_2 C10_2 1_555 1_555
C17_2 C16_2 1_555 1_555
C18_2 C11_2 1_555 1_555
H8_2 C18_2 1_555 1_555
C16_2 C18_2 1_555 1_555

#END
