
###############################################################################
#
# This file contains modified crystal structure data generated from the
# MOF subset of the Cambridge Structural Database (CSD) v543 
# hosted by the Cambridge Crystallographic Data Centre (CCDC).
#
# This work is licensed under the Creative Commons
# Attribution-NonCommercial-ShareAlike 4.0 International License.
# To view a copy of this license, visit
# http://creativecommons.org/licenses/by-nc-sa/4.0/
# or send a letter to
# Creative Commons, PO Box 1866, Mountain View, CA 94042, USA.
#
# CIF created using the CSD Python API on 29 September 2022
# The structure has been converted into the P1 space group
# The structure has a 3D framework
# The original CSD entry POWYEH is in the orthorhombic crystal system
# The framework has been calculated to contain at least 10.0% void space
# The void calculation uses a probe of radius 1.32A, grid spacing 0.4
#
###############################################################################

data_POWYEH
_chemical_formula_moiety         '(C64 H40 O37 V8)n'
_symmetry_cell_setting           triclinic
_symmetry_space_group_name_H-M   'P 1'
_symmetry_Int_Tables_number      1
_space_group_name_Hall           'P 1'
loop_
_symmetry_equiv_pos_site_id
_symmetry_equiv_pos_as_xyz
1 x,y,z
_cell_length_a                   12.6011(13)
_cell_length_b                   17.2874(18)
_cell_length_c                   13.7364(14)
_cell_angle_alpha                90
_cell_angle_beta                 90
_cell_angle_gamma                90
_cell_volume                     2992.34
loop_
_atom_site_label
_atom_site_type_symbol
_atom_site_fract_x
_atom_site_fract_y
_atom_site_fract_z
O1 O 0.3209(2) 0.24658(14) 0.2500
H1 H 0.386(2) 0.232(4) 0.2500
O2 O 0.1781(2) 0.2500 0.0000
H2 H 0.1116(16) 0.2500 0.0000
O3 O 0.15957(17) 0.33933(11) 0.16879(14)
O4 O 0.34339(17) 0.16266(11) 0.08341(14)
V1 V 0.24976(4) 0.25061(2) 0.12483(3)
C4 C 0.3747(2) 0.13927(16) 0.00205(17)
C5 C 0.4405(3) 0.06725(17) 0.00069(18)
C6 C 0.1365(3) 0.3679(2) 0.2500
C7 C 0.0760(4) 0.4422(2) 0.2500
C8 C 0.0475(3) 0.47657(18) 0.1624(2)
H4 H 0.0685 0.4545 0.1037
C10 C 0.4685(3) 0.03184(18) 0.0875(2)
H6 H 0.4469 0.0531 0.1464
O7 O 0.15957(17) 0.33933(11) 0.33121(14)
C12 C 0.0475(3) 0.47657(18) 0.3376(2)
H8 H 0.0685 0.4545 0.3963
O15 O 0.14079(17) 0.17311(11) 0.16876(14)
O16 O 0.35626(17) 0.32863(11) 0.07822(14)
V5 V 0.24976(4) 0.25061(2) 0.37517(3)
O2_2 O 0.1781(2) 0.2500 1.0000
H2_2 H 0.1116(16) 0.2500 1.0000
O6 O 0.35626(17) 0.17137(11) 0.92178(14)
C9 C 0.4717(3) 0.03500(18) 0.9135(2)
H5 H 0.4524 0.0584 0.8552
V2 V 0.24976(4) 0.24939(2) 0.87517(3)
O11 O 0.3209(2) 0.25342(14) 0.7500
O12 O 0.15957(17) 0.16067(11) 0.83121(14)
O13 O 0.34339(17) 0.33734(11) 0.91659(14)
O14 O 0.14079(17) 0.32689(11) 0.83124(14)
O10 O 0.64374(17) 0.82863(11) 0.07822(14)
C15 C 0.5283(3) 0.96500(18) 0.0865(2)
H9 H 0.5476 0.9416 0.1448
V7 V 0.75024(4) 0.75061(2) 0.12483(3)
O9 O 0.65661(17) 0.83734(11) 0.91659(14)
C13 C 0.6253(2) 0.86073(16) 0.99795(17)
C14 C 0.5595(3) 0.93275(17) 0.99931(18)
C16 C 0.5315(3) 0.96816(18) 0.9125(2)
H10 H 0.5531 0.9469 0.8536
V4 V 0.75024(4) 0.74939(2) 0.87517(3)
O5 O 0.85921(17) 0.67311(11) 0.16876(14)
C1 C 0.8863(3) 0.6467(2) 0.2500
C2 C 0.9574(4) 0.5769(2) 0.2500
C3 C 0.9878(3) 0.54380(19) 0.1628(2)
H3 H 0.9681 0.5667 0.1043
O8 O 0.85921(17) 0.67311(11) 0.33124(14)
C11 C 0.9878(3) 0.54380(19) 0.3372(2)
H7 H 0.9681 0.5667 0.3957
V3 V 0.75024(4) 0.75061(2) 0.37517(3)
O5_2 O 0.14079(17) 0.32689(11) 0.66876(14)
C1_2 C 0.1137(3) 0.3533(2) 0.7500
C2_2 C 0.0426(4) 0.4231(2) 0.7500
C3_2 C 0.0122(3) 0.45620(19) 0.6628(2)
H3_2 H 0.0319 0.4333 0.6043
C11_2 C 0.0122(3) 0.45620(19) 0.8372(2)
H7_2 H 0.0319 0.4333 0.8957
V6 V 0.24976(4) 0.24939(2) 0.62483(3)
O9_2 O 0.34339(17) 0.16266(11) 0.41659(14)
O10_2 O 0.35626(17) 0.17137(11) 0.57822(14)
C13_2 C 0.3747(2) 0.13927(16) 0.49795(17)
C14_2 C 0.4405(3) 0.06725(17) 0.49931(18)
C15_2 C 0.4717(3) 0.03500(18) 0.5865(2)
H9_2 H 0.4524 0.0584 0.6448
C16_2 C 0.4685(3) 0.03184(18) 0.4125(2)
H10_2 H 0.4469 0.0531 0.3536
O1_2 O 0.6791(2) 0.75342(14) 0.7500
H1_2 H 0.614(2) 0.768(4) 0.7500
O2_3 O 0.8219(2) 0.7500 0.5000
H2_3 H 0.8884(16) 0.7500 0.5000
O3_2 O 0.84043(17) 0.66067(11) 0.66879(14)
O4_2 O 0.65661(17) 0.83734(11) 0.58341(14)
O6_2 O 0.64374(17) 0.82863(11) 0.42178(14)
V1_2 V 0.75024(4) 0.74939(2) 0.62483(3)
C4_2 C 0.6253(2) 0.86073(16) 0.50205(17)
C5_2 C 0.5595(3) 0.93275(17) 0.50069(18)
C6_2 C 0.8635(3) 0.6321(2) 0.7500
C7_2 C 0.9240(4) 0.5578(2) 0.7500
C8_2 C 0.9525(3) 0.52343(18) 0.6624(2)
H4_2 H 0.9315 0.5455 0.6037
C9_2 C 0.5283(3) 0.96500(18) 0.4135(2)
H5_2 H 0.5476 0.9416 0.3552
C10_2 C 0.5315(3) 0.96816(18) 0.5875(2)
H6_2 H 0.5531 0.9469 0.6464
O7_2 O 0.84043(17) 0.66067(11) 0.83121(14)
C12_2 C 0.9525(3) 0.52343(18) 0.8376(2)
H8_2 H 0.9315 0.5455 0.8963
O11_2 O 0.6791(2) 0.74658(14) 0.2500
O12_2 O 0.84043(17) 0.83933(11) 0.33121(14)
O13_2 O 0.65661(17) 0.66266(11) 0.41659(14)
O15_2 O 0.85921(17) 0.82689(11) 0.66876(14)
O16_2 O 0.64374(17) 0.67137(11) 0.57822(14)
O5_3 O 0.14079(17) 0.17311(11) 0.33124(14)
C1_3 C 0.1137(3) 0.1467(2) 0.2500
C2_3 C 0.0426(4) 0.0769(2) 0.2500
C3_3 C 0.0122(3) 0.04380(19) 0.3372(2)
H3_3 H 0.0319 0.0667 0.3957
C11_3 C 0.0122(3) 0.04380(19) 0.1628(2)
H7_3 H 0.0319 0.0667 0.1043
H1_3 H 0.614(2) 0.732(4) 0.2500
C4_3 C 0.6253(2) 0.63927(16) 0.49795(17)
C5_3 C 0.5595(3) 0.56725(17) 0.49931(18)
C6_3 C 0.8635(3) 0.8679(2) 0.2500
C7_3 C 0.9240(4) 0.9422(2) 0.2500
C8_3 C 0.9525(3) 0.97657(18) 0.3376(2)
H4_3 H 0.9315 0.9545 0.3963
C9_3 C 0.5283(3) 0.53500(18) 0.5865(2)
H5_3 H 0.5476 0.5584 0.6448
C10_3 C 0.5315(3) 0.53184(18) 0.4125(2)
H6_3 H 0.5531 0.5531 0.3536
O7_3 O 0.84043(17) 0.83933(11) 0.16879(14)
C12_3 C 0.9525(3) 0.97657(18) 0.1624(2)
H8_3 H 0.9315 0.9545 0.1037
O9_3 O 0.34339(17) 0.33734(11) 0.58341(14)
O10_3 O 0.35626(17) 0.32863(11) 0.42178(14)
C13_3 C 0.3747(2) 0.36073(16) 0.50205(17)
C14_3 C 0.4405(3) 0.43275(17) 0.50069(18)
C15_3 C 0.4717(3) 0.46500(18) 0.4135(2)
H9_3 H 0.4524 0.4416 0.3552
C16_3 C 0.4685(3) 0.46816(18) 0.5875(2)
H10_3 H 0.4469 0.4469 0.6464
C9_4 C 0.4717(3) 0.46500(18) 0.0865(2)
H5_4 H 0.4524 0.4416 0.1448
O9_4 O 0.65661(17) 0.66266(11) 0.08341(14)
C13_4 C 0.6253(2) 0.63927(16) 0.00205(17)
C14_4 C 0.5595(3) 0.56725(17) 0.00069(18)
C16_4 C 0.5315(3) 0.53184(18) 0.0875(2)
H10_4 H 0.5531 0.5531 0.1464
H1_4 H 0.386(2) 0.268(4) 0.7500
C4_4 C 0.3747(2) 0.36073(16) 0.99795(17)
C5_4 C 0.4405(3) 0.43275(17) 0.99931(18)
C6_4 C 0.1365(3) 0.1321(2) 0.7500
C7_4 C 0.0760(4) 0.0578(2) 0.7500
C8_4 C 0.0475(3) 0.02343(18) 0.8376(2)
H4_4 H 0.0685 0.0455 0.8963
C10_4 C 0.4685(3) 0.46816(18) 0.9125(2)
H6_4 H 0.4469 0.4469 0.8536
O7_4 O 0.15957(17) 0.16067(11) 0.66879(14)
C12_4 C 0.0475(3) 0.02343(18) 0.6624(2)
H8_4 H 0.0685 0.0455 0.6037
O10_4 O 0.64374(17) 0.67137(11) 0.92178(14)
C15_4 C 0.5283(3) 0.53500(18) 0.9135(2)
H9_4 H 0.5476 0.5584 0.8552
O5_4 O 0.85921(17) 0.82689(11) 0.83124(14)
C1_4 C 0.8863(3) 0.8533(2) 0.7500
C2_4 C 0.9574(4) 0.9231(2) 0.7500
C3_4 C 0.9878(3) 0.95620(19) 0.8372(2)
H3_4 H 0.9681 0.9333 0.8957
C11_4 C 0.9878(3) 0.95620(19) 0.6628(2)
H7_4 H 0.9681 0.9333 0.6043
O2_4 O 0.8219(2) 0.7500 0.0000
H2_4 H 0.8884(16) 0.7500 0.0000
O2_5 O 0.8219(2) 0.7500 1.0000
H2_5 H 0.8884(16) 0.7500 1.0000
O2_6 O 0.1781(2) 0.2500 0.5000
H2_6 H 0.1116(16) 0.2500 0.5000
loop_
_geom_bond_atom_site_label_1
_geom_bond_atom_site_label_2
_geom_bond_site_symmetry_1
_geom_bond_site_symmetry_2
O1 H1 1_555 1_555
O2 H2 1_555 1_555
O3 V1 1_555 1_555
O4 V1 1_555 1_555
V1 O1 1_555 1_555
C4 O4 1_555 1_555
C5 C4 1_555 1_555
C6 O3 1_555 1_555
C7 C6 1_555 1_555
H4 C8 1_555 1_555
C10 C5 1_555 1_555
H6 C10 1_555 1_555
O7 C6 1_555 1_555
C12 C7 1_555 1_555
H8 C12 1_555 1_555
O15 V1 1_555 1_555
O16 V1 1_555 1_555
V5 O1 1_555 1_555
O2 V1 1_555 1_555
C7 C8 1_555 1_555
O7 V5 1_555 1_555
O2_2 H2_2 1_555 1_555
H5 C9 1_555 1_555
V2 O2_2 1_555 1_555
O11 V2 1_555 1_555
O12 V2 1_555 1_555
O13 V2 1_555 1_555
O14 V2 1_555 1_555
O6 V2 1_555 1_555
H9 C15 1_555 1_555
V7 O10 1_555 1_555
O9 C13 1_555 1_555
C13 C14 1_555 1_555
H10 C16 1_555 1_555
V4 O9 1_555 1_555
C14 C16 1_555 1_555
O5 C1 1_555 1_555
C1 C2 1_555 1_555
C2 C3 1_555 1_555
C3 H3 1_555 1_555
O8 C1 1_555 1_555
C11 C2 1_555 1_555
H7 C11 1_555 1_555
V3 O8 1_555 1_555
V7 O5 1_555 1_555
O5_2 C1_2 1_555 1_555
C1_2 C2_2 1_555 1_555
C2_2 C3_2 1_555 1_555
C3_2 H3_2 1_555 1_555
O14 C1_2 1_555 1_555
C11_2 C2_2 1_555 1_555
H7_2 C11_2 1_555 1_555
V6 O5_2 1_555 1_555
O9_2 C13_2 1_555 1_555
O10_2 C13_2 1_555 1_555
C13_2 C14_2 1_555 1_555
C14_2 C15_2 1_555 1_555
H9_2 C15_2 1_555 1_555
H10_2 C16_2 1_555 1_555
V5 O9_2 1_555 1_555
V6 O10_2 1_555 1_555
C14_2 C16_2 1_555 1_555
O1_2 H1_2 1_555 1_555
O2_3 H2_3 1_555 1_555
O3_2 V1_2 1_555 1_555
O4_2 V1_2 1_555 1_555
O6_2 C4_2 1_555 1_555
V1_2 O1_2 1_555 1_555
C4_2 O4_2 1_555 1_555
C5_2 C4_2 1_555 1_555
C6_2 O3_2 1_555 1_555
C7_2 C6_2 1_555 1_555
H4_2 C8_2 1_555 1_555
C9_2 C5_2 1_555 1_555
H5_2 C9_2 1_555 1_555
C10_2 C5_2 1_555 1_555
H6_2 C10_2 1_555 1_555
O7_2 C6_2 1_555 1_555
C12_2 C7_2 1_555 1_555
H8_2 C12_2 1_555 1_555
V3 O2_3 1_555 1_555
O11_2 V3 1_555 1_555
O12_2 V3 1_555 1_555
O13_2 V3 1_555 1_555
O15_2 V1_2 1_555 1_555
O16_2 V1_2 1_555 1_555
V4 O1_2 1_555 1_555
O2_3 V1_2 1_555 1_555
O6_2 V3 1_555 1_555
C7_2 C8_2 1_555 1_555
O7_2 V4 1_555 1_555
O5_3 C1_3 1_555 1_555
C1_3 C2_3 1_555 1_555
C2_3 C3_3 1_555 1_555
C3_3 H3_3 1_555 1_555
O15 C1_3 1_555 1_555
C11_3 C2_3 1_555 1_555
H7_3 C11_3 1_555 1_555
V5 O5_3 1_555 1_555
O11_2 H1_3 1_555 1_555
O16_2 C4_3 1_555 1_555
C4_3 O13_2 1_555 1_555
C5_3 C4_3 1_555 1_555
C6_3 O12_2 1_555 1_555
C7_3 C6_3 1_555 1_555
H4_3 C8_3 1_555 1_555
C9_3 C5_3 1_555 1_555
H5_3 C9_3 1_555 1_555
C10_3 C5_3 1_555 1_555
H6_3 C10_3 1_555 1_555
O7_3 C6_3 1_555 1_555
C12_3 C7_3 1_555 1_555
H8_3 C12_3 1_555 1_555
O9_3 C13_3 1_555 1_555
O10_3 C13_3 1_555 1_555
C13_3 C14_3 1_555 1_555
C14_3 C15_3 1_555 1_555
C15_3 C10_3 1_555 1_555
H9_3 C15_3 1_555 1_555
C16_3 C9_3 1_555 1_555
H10_3 C16_3 1_555 1_555
V6 O9_3 1_555 1_555
V7 O11_2 1_555 1_555
V5 O10_3 1_555 1_555
C7_3 C8_3 1_555 1_555
O7_3 V7 1_555 1_555
C14_3 C16_3 1_555 1_555
H5_4 C9_4 1_555 1_555
O9_4 C13_4 1_555 1_555
C13_4 C14_4 1_555 1_555
C16_4 C9_4 1_555 1_555
H10_4 C16_4 1_555 1_555
V7 O9_4 1_555 1_555
C14_4 C16_4 1_555 1_555
O11 H1_4 1_555 1_555
C4_4 O13 1_555 1_555
C5_4 C4_4 1_555 1_555
C6_4 O12 1_555 1_555
C7_4 C6_4 1_555 1_555
H4_4 C8_4 1_555 1_555
C10_4 C5_4 1_555 1_555
H6_4 C10_4 1_555 1_555
O7_4 C6_4 1_555 1_555
C12_4 C7_4 1_555 1_555
H8_4 C12_4 1_555 1_555
C15_4 C10_4 1_555 1_555
H9_4 C15_4 1_555 1_555
V6 O11 1_555 1_555
V4 O10_4 1_555 1_555
C7_4 C8_4 1_555 1_555
O7_4 V6 1_555 1_555
O5_4 C1_4 1_555 1_555
C1_4 C2_4 1_555 1_555
C2_4 C3_4 1_555 1_555
C3_4 H3_4 1_555 1_555
O15_2 C1_4 1_555 1_555
C11_4 C2_4 1_555 1_555
H7_4 C11_4 1_555 1_555
V4 O5_4 1_555 1_555
O2_4 H2_4 1_555 1_555
V7 O2_4 1_555 1_555
O2_5 H2_5 1_555 1_555
O2_5 V4 1_555 1_555
O2_6 H2_6 1_555 1_555
V6 O2_6 1_555 1_555
O2_6 V5 1_555 1_555

#END
