
###############################################################################
#
# This file contains modified crystal structure data generated from the
# MOF subset of the Cambridge Structural Database (CSD) v543 
# hosted by the Cambridge Crystallographic Data Centre (CCDC).
#
# This work is licensed under the Creative Commons
# Attribution-NonCommercial-ShareAlike 4.0 International License.
# To view a copy of this license, visit
# http://creativecommons.org/licenses/by-nc-sa/4.0/
# or send a letter to
# Creative Commons, PO Box 1866, Mountain View, CA 94042, USA.
#
# CIF created using the CSD Python API on 29 September 2022
# The structure has been converted into the P1 space group
# The structure has a 3D framework
# The original CSD entry POXBAH is in the monoclinic crystal system
# The framework has been calculated to contain at least 10.0% void space
# The void calculation uses a probe of radius 1.32A, grid spacing 0.4
# The framework is charged, counterions have been retained in the structure
#
###############################################################################

data_POXBAH
_chemical_formula_moiety         '(C336 H368 Cd4 O62 6-)n'
_symmetry_cell_setting           triclinic
_symmetry_space_group_name_H-M   'P 1'
_symmetry_Int_Tables_number      1
_space_group_name_Hall           'P 1'
loop_
_symmetry_equiv_pos_site_id
_symmetry_equiv_pos_as_xyz
1 x,y,z
_cell_length_a                   23.617(5)
_cell_length_b                   16.814(5)
_cell_length_c                   26.617(5)
_cell_angle_alpha                90
_cell_angle_beta                 106.730(5)
_cell_angle_gamma                90
_cell_volume                     10122.1
loop_
_atom_site_label
_atom_site_type_symbol
_atom_site_fract_x
_atom_site_fract_y
_atom_site_fract_z
H20 H 0.0299 0.0830 0.6906
C37 C 0.0269(6) 0.1727(8) 0.6087(5)
O3 O 0.0144(4) 0.2000(7) 0.5665(4)
O4 O 0.0761(3) 0.1574(5) 0.6353(4)
Cd2 Cd 0.14504(2) 0.20935(3) 0.60720(2)
O9 O 0.6683(4) 0.3192(4) 0.0355(3)
Cd4 Cd 0.64504(2) 0.29065(3) 0.10720(2)
C1 C 0.7376(3) 0.0332(3) 0.6663(3)
C2 C 0.7391(3) 0.0317(3) 0.7175(3)
H1 H 0.7751 0.0290 0.7435
C3 C 0.6866(3) 0.0344(3) 0.7310(3)
C4 C 0.6331(3) 0.0379(3) 0.6928(3)
C5 C 0.6343(3) 0.0362(3) 0.6413(3)
H2 H 0.5982 0.0376 0.6154
C6 C 0.6840(3) 0.0326(3) 0.6254(3)
C7 C 0.6845(3) 0.0268(3) 0.5687(3)
C8 C 0.7083(3) 0.1019(3) 0.5478(3)
C9 C 0.7364(3) 0.0983(4) 0.5101(3)
C10 C 0.7579(3) 0.1639(4) 0.4912(3)
H4 H 0.7760 0.1592 0.4646
C11 C 0.7521(3) 0.2367(4) 0.5125(3)
C12 C 0.7232(3) 0.2465(3) 0.5506(3)
C13 C 0.7014(3) 0.1777(3) 0.5676(3)
H5 H 0.6815 0.1820 0.5930
C14 C 0.7135(3) 0.3277(3) 0.5699(3)
H6 H 0.7500 0.3570 0.5722
C15 C 0.7079(3) 0.3275(3) 0.6250(3)
C16 C 0.6545(3) 0.3349(3) 0.6354(3)
H7 H 0.6205 0.3395 0.6073
C17 C 0.6482(3) 0.3357(4) 0.6866(3)
C18 C 0.6992(4) 0.3259(3) 0.7272(3)
C19 C 0.7542(3) 0.3173(4) 0.7193(4)
H8 H 0.7879 0.3111 0.7475
C20 C 0.7581(3) 0.3182(3) 0.6688(4)
C21 C 0.5897(3) 0.3454(4) 0.6997(3)
H9 H 0.5974 0.3843 0.7283
C22 C 0.5699(3) 0.2705(4) 0.7213(3)
C23 C 0.5821(3) 0.1951(4) 0.7078(3)
H10 H 0.6038 0.1901 0.6839
C24 C 0.5642(3) 0.1249(4) 0.7275(3)
C25 C 0.5320(3) 0.1349(4) 0.7626(3)
C26 C 0.5179(3) 0.2078(5) 0.7766(3)
H11 H 0.4955 0.2123 0.8001
C27 C 0.5364(3) 0.2762(4) 0.7564(4)
C28 C 0.5765(3) 0.0422(3) 0.7094(3)
H12 H 0.5828 0.0074 0.7401
C29 C 0.7392(3) 0.0357(4) 0.8229(3)
H13 H 0.7311 0.0372 0.8562
H14 H 0.7619 0.0816 0.8194
C30 C 0.8418(3) 0.0392(5) 0.6868(4)
H17 H 0.8387 0.0758 0.7140
C31 C 0.8881(3) 0.0681(5) 0.6626(4)
C32 C 0.8763(4) 0.1156(6) 0.6196(5)
H18 H 0.8370 0.1257 0.6014
C33 C 0.9211(5) 0.1500(7) 0.6013(5)
H19 H 0.9118 0.1838 0.5725
C34 C 0.9780(4) 0.1326(5) 0.6270(4)
C35 C 0.9908(4) 0.0894(7) 0.6708(5)
C36 C 0.9452(4) 0.0530(6) 0.6875(5)
H21 H 0.9548 0.0184 0.7160
C38 C 0.7747(6) 0.0111(6) 0.4551(5)
H23 H 0.8146 0.0287 0.4705
H24 H 0.7569 0.0417 0.4241
C39 C 0.7986(4) 0.3022(4) 0.4558(4)
H25 H 0.7718 0.2769 0.4255
H26 H 0.8343 0.2705 0.4669
C40 C 0.8134(4) 0.3845(4) 0.4417(3)
C41 C 0.8626(4) 0.4012(5) 0.4291(4)
H27 H 0.8886 0.3598 0.4286
C42 C 0.8770(5) 0.4755(6) 0.4169(4)
H28 H 0.9126 0.4831 0.4092
C43 C 0.8420(4) 0.5374(4) 0.4157(4)
C44 C 0.7920(5) 0.5244(5) 0.4297(5)
H29 H 0.7666 0.5667 0.4296
C45 C 0.7777(5) 0.4489(6) 0.4441(5)
H30 H 0.7442 0.4418 0.4554
C46 C 0.8634(4) 0.3065(6) 0.7006(5)
H31 H 0.8969 0.3018 0.6872
H32 H 0.8613 0.2607 0.7215
H33 H 0.8674 0.3535 0.7218
C47 C 0.7317(5) 0.2889(7) 0.8173(5)
H34 H 0.7696 0.3160 0.8266
H35 H 0.7376 0.2354 0.8061
C48 C 0.7091(4) 0.2854(7) 0.8633(4)
C49 C 0.7329(6) 0.3230(7) 0.9046(6)
H36 H 0.7671 0.3519 0.9067
C50 C 0.7101(5) 0.3236(6) 0.9479(5)
H37 H 0.7294 0.3552 0.9763
C51 C 0.6656(4) 0.2848(5) 0.9515(4)
C52 C 0.6465(6) 0.2238(8) 0.9125(6)
H38 H 0.6211 0.1838 0.9168
C53 C 0.6675(6) 0.2255(8) 0.8659(6)
H39 H 0.6542 0.1887 0.8390
C54 C 0.6428(5) 0.2810(7) 0.9968(5)
C55 C 0.4836(7) 0.3575(6) 0.8001(6)
H40 H 0.4778 0.4126 0.8066
H41 H 0.4993 0.3303 0.8329
H42 H 0.4464 0.3341 0.7814
C56 C 0.4755(3) 0.0678(5) 0.8129(3)
H43 H 0.4887 0.1078 0.8400
H44 H 0.4753 0.0170 0.8301
C57 C 0.4151(3) 0.0868(4) 0.7815(3)
C58 C 0.3825(4) 0.1463(5) 0.7948(4)
H45 H 0.3991 0.1750 0.8254
C59 C 0.3249(4) 0.1660(6) 0.7640(4)
H46 H 0.3036 0.2070 0.7735
C60 C 0.3011(3) 0.1208(5) 0.7184(4)
C61 C 0.3319(4) 0.0621(5) 0.7069(4)
H47 H 0.3152 0.0308 0.6775
C62 C 0.3886(4) 0.0463(5) 0.7376(4)
H48 H 0.4095 0.0055 0.7274
C63 C 0.2440(5) 0.1511(8) 0.6855(5)
C64 C 0.6255(3) 0.0022(3) 0.5302(3)
H49 H 0.5948 0.0373 0.5349
H50 H 0.6280 0.0099 0.4947
C69 C 0.6655(3) 0.3728(3) 0.5300(3)
H60 H 0.6272 0.3523 0.5304
H61 H 0.6696 0.3634 0.4952
C70 C 0.6673(4) 0.4625(4) 0.5403(4)
H62 H 0.6566 0.4726 0.5722
H63 H 0.7074 0.4815 0.5455
C71 C 0.6264(5) 0.5082(5) 0.4961(4)
H64 H 0.6412 0.5010 0.4660
H65 H 0.5886 0.4810 0.4878
C72 C 0.6131(6) 0.5945(7) 0.4979(7)
H66 H 0.5869 0.6125 0.4646
H67 H 0.5949 0.6059 0.5255
C73 C 0.6706(7) 0.6318(7) 0.5086(8)
H68 H 0.6662 0.6886 0.5092
H69 H 0.6885 0.6175 0.4818
H70 H 0.6953 0.6142 0.5421
C74 C 0.5398(3) 0.3806(5) 0.6554(3)
H71 H 0.5307 0.3425 0.6268
H72 H 0.5051 0.3842 0.6679
C75 C 0.5479(6) 0.4605(6) 0.6327(6)
H73 H 0.5821 0.4574 0.6196
H74 H 0.5137 0.4704 0.6028
C76 C 0.5556(9) 0.5293(9) 0.6682(7)
H75 H 0.5945 0.5271 0.6935
H76 H 0.5263 0.5274 0.6872
C77 C 0.5492(9) 0.6068(9) 0.6374(7)
H77 H 0.5616 0.6001 0.6059
H78 H 0.5086 0.6253 0.6275
C78 C 0.5890(9) 0.6635(11) 0.6746(8)
H79 H 0.5864 0.7151 0.6586
H80 H 0.6291 0.6448 0.6829
H81 H 0.5772 0.6670 0.7062
C79 C 0.5212(3) 0.0105(4) 0.6685(3)
H82 H 0.4866 0.0248 0.6792
H83 H 0.5179 0.0363 0.6352
O1 O 0.6854(2) 0.0354(3) 0.7821(2)
O2 O 0.78655(18) 0.0333(2) 0.64793(19)
O5 O 0.7417(3) 0.0215(3) 0.4917(2)
O6 O 0.7726(2) 0.3067(2) 0.4958(2)
O7 O 0.8105(2) 0.3119(3) 0.6578(2)
O8 O 0.6922(2) 0.3289(3) 0.7769(3)
O10 O 0.5996(4) 0.2373(7) 0.9954(3)
O11 O 0.5235(3) 0.3508(3) 0.7700(3)
O12 O 0.51642(19) 0.0642(3) 0.7831(2)
O13 O 0.2185(3) 0.2096(3) 0.6920(3)
O14 O 0.2189(3) 0.1102(4) 0.6459(3)
C84 C 0.8576(5) 0.6201(5) 0.4018(5)
O15 O 0.8190(4) 0.6671(4) 0.3899(4)
O16 O 0.9088(4) 0.6354(4) 0.4090(4)
Cd3 Cd 0.85496(2) 0.79065(3) 0.39280(2)
O18 O 0.1683(4) 0.1808(4) 0.5355(3)
O19 O 0.1810(4) 0.3329(4) 0.6101(4)
Cd1 Cd 0.35496(2) 0.70935(3) 0.89280(2)
H11_2 H 0.0045 0.7123 0.6999
C55_2 C 0.0164(7) 0.8575(6) 0.6999(6)
H40_2 H 0.0222 0.9126 0.6934
H41_2 H 0.0007 0.8303 0.6671
H42_2 H 0.0536 0.8341 0.7186
C56_2 C 0.0245(3) 0.5678(5) 0.6871(3)
H43_2 H 0.0113 0.6078 0.6600
H44_2 H 0.0247 0.5170 0.6699
C57_2 C 0.0849(3) 0.5868(4) 0.7185(3)
C58_2 C 0.1175(4) 0.6463(5) 0.7052(4)
H45_2 H 0.1009 0.6750 0.6746
C59_2 C 0.1751(4) 0.6660(6) 0.7360(4)
H46_2 H 0.1964 0.7070 0.7265
C60_2 C 0.1989(3) 0.6208(5) 0.7816(4)
C61_2 C 0.1681(4) 0.5621(5) 0.7931(4)
H47_2 H 0.1848 0.5308 0.8225
C62_2 C 0.1114(4) 0.5463(5) 0.7624(4)
H48_2 H 0.0905 0.5055 0.7726
C63_2 C 0.2560(5) 0.6511(8) 0.8145(5)
H82_2 H 0.0134 0.5248 0.8208
C81 C 0.0397(6) 0.3894(6) 0.8760(6)
H86 H 0.0712 0.4146 0.8651
H87 H 0.0434 0.4069 0.9116
C82 C 0.0486(8) 0.3109(9) 0.8771(7)
H88 H 0.0456 0.2920 0.8420
H89 H 0.0184 0.2844 0.8892
C83 C 0.1110(9) 0.2906(10) 0.9146(9)
H90 H 0.1181 0.2345 0.9133
H91 H 0.1128 0.3056 0.9498
H92 H 0.1406 0.3192 0.9037
O13_2 O 0.2815(3) 0.7096(3) 0.8080(3)
O14_2 O 0.2811(3) 0.6102(4) 0.8541(3)
O17 O 0.4239(3) 0.6574(5) 0.8647(4)
O18_2 O 0.3317(4) 0.6808(4) 0.9645(3)
O19_2 O 0.3190(4) 0.8329(4) 0.8899(4)
C43_2 C 0.6580(4) 0.0374(4) 0.0843(4)
C44_2 C 0.7080(5) 0.0244(5) 0.0703(5)
H29_2 H 0.7334 0.0667 0.0704
C71_2 C 0.8736(5) 0.0082(5) 0.0039(4)
H64_2 H 0.8588 0.0010 0.0340
C72_2 C 0.8869(6) 0.0945(7) 0.0021(7)
H66_2 H 0.9131 0.1125 0.0354
H69_2 H 0.8115 0.1175 0.0182
C84_2 C 0.6424(5) 0.1201(5) 0.0982(5)
O15_2 O 0.6810(4) 0.1671(4) 0.1101(4)
O16_2 O 0.5912(4) 0.1354(4) 0.0910(4)
C1_2 C 0.7624(3) 0.5332(3) 0.8337(3)
C2_2 C 0.7609(3) 0.5317(3) 0.7825(3)
H1_2 H 0.7249 0.5290 0.7565
C3_2 C 0.8134(3) 0.5344(3) 0.7690(3)
C4_2 C 0.8669(3) 0.5379(3) 0.8072(3)
C5_2 C 0.8657(3) 0.5362(3) 0.8587(3)
H2_2 H 0.9018 0.5376 0.8846
C6_2 C 0.8160(3) 0.5326(3) 0.8746(3)
C7_2 C 0.8155(3) 0.5268(3) 0.9313(3)
H3 H 0.7877 0.4840 0.9323
C8_2 C 0.7917(3) 0.6019(3) 0.9522(3)
C9_2 C 0.7636(3) 0.5983(4) 0.9899(3)
C11_2 C 0.7479(3) 0.7367(4) 0.9875(3)
C12_2 C 0.7768(3) 0.7465(3) 0.9494(3)
C13_2 C 0.7986(3) 0.6777(3) 0.9324(3)
H5_2 H 0.8185 0.6820 0.9070
C14_2 C 0.7865(3) 0.8277(3) 0.9301(3)
H6_2 H 0.7500 0.8570 0.9278
C15_2 C 0.7921(3) 0.8275(3) 0.8750(3)
C16_2 C 0.8455(3) 0.8349(3) 0.8646(3)
H7_2 H 0.8795 0.8395 0.8927
C17_2 C 0.8518(3) 0.8357(4) 0.8134(3)
C18_2 C 0.8008(4) 0.8259(3) 0.7728(3)
C19_2 C 0.7458(3) 0.8173(4) 0.7807(4)
H8_2 H 0.7121 0.8111 0.7525
C20_2 C 0.7419(3) 0.8182(3) 0.8312(4)
C21_2 C 0.9103(3) 0.8454(4) 0.8003(3)
H9_2 H 0.9026 0.8843 0.7717
C22_2 C 0.9301(3) 0.7705(4) 0.7787(3)
C23_2 C 0.9179(3) 0.6951(4) 0.7922(3)
H10_2 H 0.8962 0.6901 0.8161
C24_2 C 0.9358(3) 0.6249(4) 0.7725(3)
C25_2 C 0.9680(3) 0.6349(4) 0.7374(3)
C26_2 C 0.9821(3) 0.7078(5) 0.7234(3)
C27_2 C 0.9636(3) 0.7762(4) 0.7436(4)
C28_2 C 0.9235(3) 0.5422(3) 0.7906(3)
H12_2 H 0.9172 0.5074 0.7599
C29_2 C 0.7608(3) 0.5357(4) 0.6771(3)
H13_2 H 0.7689 0.5372 0.6438
H14_2 H 0.7381 0.5816 0.6806
H15 H 0.7388 0.4884 0.6793
C30_2 C 0.6582(3) 0.5392(5) 0.8132(4)
H16 H 0.6469 0.4875 0.7972
H17_2 H 0.6613 0.5758 0.7860
C31_2 C 0.6119(3) 0.5681(5) 0.8374(4)
C32_2 C 0.6237(4) 0.6156(6) 0.8804(5)
H18_2 H 0.6630 0.6257 0.8986
C33_2 C 0.5789(5) 0.6500(7) 0.8987(5)
H19_2 H 0.5882 0.6838 0.9275
C34_2 C 0.5220(4) 0.6326(5) 0.8730(4)
C35_2 C 0.5092(4) 0.5894(7) 0.8292(5)
H20_2 H 0.4701 0.5830 0.8094
C36_2 C 0.5548(4) 0.5530(6) 0.8125(5)
H21_2 H 0.5452 0.5184 0.7840
C37_2 C 0.4731(6) 0.6727(8) 0.8913(5)
C46_2 C 0.6366(4) 0.8065(6) 0.7994(5)
H31_2 H 0.6031 0.8018 0.8128
H32_2 H 0.6387 0.7607 0.7785
H33_2 H 0.6326 0.8535 0.7782
C47_2 C 0.7683(5) 0.7889(7) 0.6827(5)
H34_2 H 0.7304 0.8160 0.6734
H35_2 H 0.7624 0.7354 0.6939
C48_2 C 0.7909(4) 0.7854(7) 0.6367(4)
C49_2 C 0.7671(6) 0.8230(7) 0.5954(6)
H36_2 H 0.7329 0.8519 0.5933
C50_2 C 0.7899(5) 0.8236(6) 0.5521(5)
H37_2 H 0.7706 0.8552 0.5237
C51_2 C 0.8344(4) 0.7848(5) 0.5485(4)
C52_2 C 0.8535(6) 0.7238(8) 0.5875(6)
H38_2 H 0.8789 0.6838 0.5832
C53_2 C 0.8325(6) 0.7255(8) 0.6341(6)
H39_2 H 0.8458 0.6887 0.6610
C54_2 C 0.8572(5) 0.7810(7) 0.5032(5)
C64_2 C 0.8745(3) 0.5022(3) 0.9698(3)
H49_2 H 0.9052 0.5373 0.9651
C65 C 0.8929(3) 0.4173(3) 0.9645(3)
H51 H 0.8632 0.3823 0.9712
H52 H 0.8928 0.4089 0.9284
C66 C 0.9505(3) 0.3934(4) 0.9986(4)
H54 H 0.9807 0.4234 0.9887
C67 C 0.9647(4) 0.3072(5) 0.9977(5)
H55 H 0.9627 0.2921 0.9621
C69_2 C 0.8345(3) 0.8728(3) 0.9700(3)
H60_2 H 0.8728 0.8523 0.9696
C70_2 C 0.8327(4) 0.9625(4) 0.9597(4)
H62_2 H 0.8434 0.9726 0.9278
H63_2 H 0.7926 0.9815 0.9545
C74_2 C 0.9602(3) 0.8806(5) 0.8446(3)
H71_2 H 0.9693 0.8425 0.8732
H72_2 H 0.9949 0.8842 0.8321
C75_2 C 0.9521(6) 0.9605(6) 0.8673(6)
H73_2 H 0.9179 0.9574 0.8804
H74_2 H 0.9863 0.9704 0.8972
C79_2 C 0.9788(3) 0.5105(4) 0.8315(3)
H83_2 H 0.9821 0.5363 0.8648
C80 C 0.9786(4) 0.4209(4) 0.8393(4)
H84 H 0.9702 0.3949 0.8054
H85 H 0.9473 0.4070 0.8547
O1_2 O 0.8146(2) 0.5354(3) 0.7179(2)
O2_2 O 0.71345(18) 0.5333(2) 0.85207(19)
O3_2 O 0.4856(4) 0.7000(7) 0.9335(4)
O7_2 O 0.6895(2) 0.8119(3) 0.8422(2)
O8_2 O 0.8078(2) 0.8289(3) 0.7231(3)
O9_2 O 0.8317(4) 0.8192(4) 0.4645(3)
O10_2 O 0.9004(4) 0.7373(7) 0.5046(3)
O11_2 O 0.9765(3) 0.8508(3) 0.7300(3)
O12_2 O 0.98358(19) 0.5642(3) 0.7169(2)
C1_3 C 0.2624(3) 0.9668(3) 0.3337(3)
C2_3 C 0.2609(3) 0.9683(3) 0.2825(3)
H1_3 H 0.2249 0.9710 0.2565
C3_3 C 0.3134(3) 0.9656(3) 0.2690(3)
C4_3 C 0.3669(3) 0.9621(3) 0.3072(3)
C5_3 C 0.3657(3) 0.9638(3) 0.3587(3)
H2_3 H 0.4018 0.9624 0.3846
C6_3 C 0.3160(3) 0.9674(3) 0.3746(3)
C7_3 C 0.3155(3) 0.9732(3) 0.4313(3)
C8_3 C 0.2917(3) 0.8981(3) 0.4522(3)
C9_3 C 0.2636(3) 0.9017(4) 0.4899(3)
C10_2 C 0.2421(3) 0.8361(4) 0.5088(3)
H4_2 H 0.2240 0.8408 0.5354
C11_3 C 0.2479(3) 0.7633(4) 0.4875(3)
C12_3 C 0.2768(3) 0.7535(3) 0.4494(3)
C13_3 C 0.2986(3) 0.8223(3) 0.4324(3)
H5_3 H 0.3185 0.8180 0.4070
C14_3 C 0.2865(3) 0.6723(3) 0.4301(3)
H6_3 H 0.2500 0.6430 0.4278
C15_3 C 0.2921(3) 0.6725(3) 0.3750(3)
C16_3 C 0.3455(3) 0.6651(3) 0.3646(3)
H7_3 H 0.3795 0.6605 0.3927
C17_3 C 0.3518(3) 0.6643(4) 0.3134(3)
C18_3 C 0.3008(4) 0.6741(3) 0.2728(3)
C19_3 C 0.2458(3) 0.6827(4) 0.2807(4)
H8_3 H 0.2121 0.6889 0.2525
C20_3 C 0.2419(3) 0.6818(3) 0.3312(4)
C21_3 C 0.4103(3) 0.6546(4) 0.3003(3)
H9_3 H 0.4026 0.6157 0.2717
C22_3 C 0.4301(3) 0.7295(4) 0.2787(3)
C23_3 C 0.4179(3) 0.8049(4) 0.2922(3)
H10_3 H 0.3962 0.8099 0.3161
C24_3 C 0.4358(3) 0.8751(4) 0.2725(3)
C25_3 C 0.4680(3) 0.8651(4) 0.2374(3)
C26_3 C 0.4821(3) 0.7922(5) 0.2234(3)
H11_3 H 0.5045 0.7877 0.1999
C27_3 C 0.4636(3) 0.7238(4) 0.2436(4)
C28_3 C 0.4235(3) 0.9578(3) 0.2906(3)
H12_3 H 0.4172 0.9926 0.2599
C29_3 C 0.2608(3) 0.9643(4) 0.1771(3)
H13_3 H 0.2689 0.9628 0.1438
H14_3 H 0.2381 0.9184 0.1806
C30_3 C 0.1582(3) 0.9608(5) 0.3132(4)
H17_3 H 0.1613 0.9242 0.2860
C31_3 C 0.1119(3) 0.9319(5) 0.3374(4)
C32_3 C 0.1237(4) 0.8844(6) 0.3804(5)
H18_3 H 0.1630 0.8743 0.3986
C33_3 C 0.0789(5) 0.8500(7) 0.3987(5)
H19_3 H 0.0882 0.8162 0.4275
C34_3 C 0.0220(4) 0.8674(5) 0.3730(4)
C35_3 C 0.0092(4) 0.9106(7) 0.3292(5)
C36_3 C 0.0548(4) 0.9470(6) 0.3125(5)
H21_3 H 0.0452 0.9816 0.2840
C38_2 C 0.2253(6) 0.9889(6) 0.5449(5)
H23_2 H 0.1854 0.9713 0.5295
H24_2 H 0.2431 0.9583 0.5759
C39_2 C 0.2014(4) 0.6978(4) 0.5442(4)
H25_2 H 0.2282 0.7231 0.5745
H26_2 H 0.1657 0.7295 0.5331
C40_2 C 0.1866(4) 0.6155(4) 0.5583(3)
C41_2 C 0.1374(4) 0.5988(5) 0.5709(4)
H27_2 H 0.1114 0.6402 0.5714
C42_2 C 0.1230(5) 0.5245(6) 0.5831(4)
H28_2 H 0.0874 0.5169 0.5908
C43_3 C 0.1580(4) 0.4626(4) 0.5843(4)
C44_3 C 0.2080(5) 0.4756(5) 0.5703(5)
H29_3 H 0.2334 0.4333 0.5704
C45_2 C 0.2223(5) 0.5511(6) 0.5559(5)
H30_2 H 0.2558 0.5582 0.5446
C46_3 C 0.1366(4) 0.6935(6) 0.2994(5)
H31_3 H 0.1031 0.6982 0.3128
H32_3 H 0.1387 0.7393 0.2785
H33_3 H 0.1326 0.6465 0.2782
C47_3 C 0.2683(5) 0.7111(7) 0.1827(5)
H34_3 H 0.2304 0.6840 0.1734
H35_3 H 0.2624 0.7646 0.1939
C48_3 C 0.2909(4) 0.7146(7) 0.1367(4)
C49_3 C 0.2671(6) 0.6770(7) 0.0954(6)
H36_3 H 0.2329 0.6481 0.0933
C50_3 C 0.2899(5) 0.6764(6) 0.0521(5)
H37_3 H 0.2706 0.6448 0.0237
C51_3 C 0.3344(4) 0.7152(5) 0.0485(4)
C52_3 C 0.3535(6) 0.7762(8) 0.0875(6)
H38_3 H 0.3789 0.8162 0.0832
C53_3 C 0.3325(6) 0.7745(8) 0.1341(6)
H39_3 H 0.3458 0.8113 0.1610
C54_3 C 0.3572(5) 0.7190(7) 0.0032(5)
C55_3 C 0.5164(7) 0.6425(6) 0.1999(6)
H40_3 H 0.5222 0.5874 0.1934
H41_3 H 0.5007 0.6697 0.1671
H42_3 H 0.5536 0.6659 0.2186
C56_3 C 0.5245(3) 0.9322(5) 0.1871(3)
H43_3 H 0.5113 0.8922 0.1600
H44_3 H 0.5247 0.9830 0.1699
C57_3 C 0.5849(3) 0.9132(4) 0.2185(3)
C58_3 C 0.6175(4) 0.8537(5) 0.2052(4)
H45_3 H 0.6009 0.8250 0.1746
C59_3 C 0.6751(4) 0.8340(6) 0.2360(4)
H46_3 H 0.6964 0.7930 0.2265
C60_3 C 0.6989(3) 0.8792(5) 0.2816(4)
C61_3 C 0.6681(4) 0.9379(5) 0.2931(4)
H47_3 H 0.6848 0.9692 0.3225
C62_3 C 0.6114(4) 0.9537(5) 0.2624(4)
H48_3 H 0.5905 0.9945 0.2726
C63_3 C 0.7560(5) 0.8489(8) 0.3145(5)
C64_3 C 0.3745(3) 0.9978(3) 0.4698(3)
H49_3 H 0.4052 0.9627 0.4651
H50_2 H 0.3720 0.9901 0.5053
C69_3 C 0.3345(3) 0.6272(3) 0.4700(3)
H60_3 H 0.3728 0.6477 0.4696
H61_2 H 0.3304 0.6366 0.5048
C70_3 C 0.3327(4) 0.5375(4) 0.4597(4)
H62_3 H 0.3434 0.5274 0.4278
H63_3 H 0.2926 0.5185 0.4545
C71_3 C 0.3736(5) 0.4918(5) 0.5039(4)
H64_3 H 0.3588 0.4990 0.5340
H65_2 H 0.4114 0.5190 0.5122
C72_3 C 0.3869(6) 0.4055(7) 0.5021(7)
H66_3 H 0.4131 0.3875 0.5354
H67_2 H 0.4051 0.3941 0.4745
C73_2 C 0.3294(7) 0.3682(7) 0.4914(8)
H68_2 H 0.3338 0.3114 0.4908
H69_3 H 0.3115 0.3825 0.5182
H70_2 H 0.3047 0.3858 0.4579
C74_3 C 0.4602(3) 0.6194(5) 0.3446(3)
H71_3 H 0.4693 0.6575 0.3732
H72_3 H 0.4949 0.6158 0.3321
C75_3 C 0.4521(6) 0.5395(6) 0.3673(6)
H73_3 H 0.4179 0.5426 0.3804
H74_3 H 0.4863 0.5296 0.3972
C76_2 C 0.4444(9) 0.4707(9) 0.3318(7)
H75_2 H 0.4055 0.4729 0.3065
H76_2 H 0.4737 0.4726 0.3128
C77_2 C 0.4508(9) 0.3932(9) 0.3626(7)
H77_2 H 0.4384 0.3999 0.3941
H78_2 H 0.4914 0.3747 0.3725
C78_2 C 0.4110(9) 0.3365(11) 0.3254(8)
H79_2 H 0.4136 0.2849 0.3414
H80_2 H 0.3709 0.3552 0.3171
H81_2 H 0.4228 0.3330 0.2938
C79_3 C 0.4788(3) 0.9895(4) 0.3315(3)
H82_3 H 0.5134 0.9752 0.3208
H83_3 H 0.4821 0.9637 0.3648
O1_3 O 0.3146(2) 0.9646(3) 0.2179(2)
O2_3 O 0.21345(18) 0.9667(2) 0.35207(19)
O5_2 O 0.2583(3) 0.9785(3) 0.5083(2)
O6_2 O 0.2274(2) 0.6933(2) 0.5042(2)
O7_3 O 0.1895(2) 0.6881(3) 0.3422(2)
O8_3 O 0.3078(2) 0.6711(3) 0.2231(3)
O10_3 O 0.4004(4) 0.7627(7) 0.0046(3)
O11_3 O 0.4765(3) 0.6492(3) 0.2300(3)
O12_3 O 0.48358(19) 0.9358(3) 0.2169(2)
O13_3 O 0.7815(3) 0.7904(3) 0.3080(3)
O14_3 O 0.7811(3) 0.8898(4) 0.3541(3)
C84_3 C 0.1424(5) 0.3799(5) 0.5982(5)
O16_3 O 0.0912(4) 0.3646(4) 0.5910(4)
O17_2 O 0.9239(3) 0.8426(5) 0.3647(4)
H20_3 H 0.9701 0.9170 0.3094
C37_3 C 0.9731(6) 0.8273(8) 0.3913(5)
O3_3 O 0.9856(4) 0.8000(7) 0.4335(4)
C1_4 C 0.2376(3) 0.4668(3) 0.1663(3)
C2_4 C 0.2391(3) 0.4683(3) 0.2175(3)
H1_4 H 0.2751 0.4710 0.2435
C3_4 C 0.1866(3) 0.4656(3) 0.2310(3)
C4_4 C 0.1331(3) 0.4621(3) 0.1928(3)
C5_4 C 0.1343(3) 0.4638(3) 0.1413(3)
H2_4 H 0.0982 0.4624 0.1154
C6_4 C 0.1840(3) 0.4674(3) 0.1254(3)
C7_4 C 0.1845(3) 0.4732(3) 0.0687(3)
H3_2 H 0.2123 0.5160 0.0677
C8_4 C 0.2083(3) 0.3981(3) 0.0478(3)
C9_4 C 0.2364(3) 0.4017(4) 0.0101(3)
C11_4 C 0.2521(3) 0.2633(4) 0.0125(3)
C12_4 C 0.2232(3) 0.2535(3) 0.0506(3)
C13_4 C 0.2014(3) 0.3223(3) 0.0676(3)
H5_4 H 0.1815 0.3180 0.0930
C14_4 C 0.2135(3) 0.1723(3) 0.0699(3)
H6_4 H 0.2500 0.1430 0.0722
C15_4 C 0.2079(3) 0.1725(3) 0.1250(3)
C16_4 C 0.1545(3) 0.1651(3) 0.1354(3)
H7_4 H 0.1205 0.1605 0.1073
C17_4 C 0.1482(3) 0.1643(4) 0.1866(3)
C18_4 C 0.1992(4) 0.1741(3) 0.2272(3)
C19_4 C 0.2542(3) 0.1827(4) 0.2193(4)
H8_4 H 0.2879 0.1889 0.2475
C20_4 C 0.2581(3) 0.1818(3) 0.1688(4)
C21_4 C 0.0897(3) 0.1546(4) 0.1997(3)
H9_4 H 0.0974 0.1157 0.2283
C22_4 C 0.0699(3) 0.2295(4) 0.2213(3)
C23_4 C 0.0821(3) 0.3049(4) 0.2078(3)
H10_4 H 0.1038 0.3099 0.1839
C24_4 C 0.0642(3) 0.3751(4) 0.2275(3)
C25_4 C 0.0320(3) 0.3651(4) 0.2626(3)
C26_4 C 0.0179(3) 0.2922(5) 0.2766(3)
C27_4 C 0.0364(3) 0.2238(4) 0.2564(4)
C28_4 C 0.0765(3) 0.4578(3) 0.2094(3)
H12_4 H 0.0828 0.4926 0.2401
C29_4 C 0.2392(3) 0.4643(4) 0.3229(3)
H13_4 H 0.2311 0.4628 0.3562
H14_4 H 0.2619 0.4184 0.3194
H15_2 H 0.2612 0.5116 0.3207
C30_4 C 0.3418(3) 0.4608(5) 0.1868(4)
H16_2 H 0.3531 0.5125 0.2028
H17_4 H 0.3387 0.4242 0.2140
C31_4 C 0.3881(3) 0.4319(5) 0.1626(4)
C32_4 C 0.3763(4) 0.3844(6) 0.1196(5)
H18_4 H 0.3370 0.3743 0.1014
C33_4 C 0.4211(5) 0.3500(7) 0.1013(5)
H19_4 H 0.4118 0.3162 0.0725
C34_4 C 0.4780(4) 0.3674(5) 0.1270(4)
C35_4 C 0.4908(4) 0.4106(7) 0.1708(5)
H20_4 H 0.5299 0.4170 0.1906
C36_4 C 0.4452(4) 0.4470(6) 0.1875(5)
H21_4 H 0.4548 0.4816 0.2160
C37_4 C 0.5269(6) 0.3273(8) 0.1087(5)
C46_4 C 0.3634(4) 0.1935(6) 0.2006(5)
H31_4 H 0.3969 0.1982 0.1872
H32_4 H 0.3613 0.2393 0.2215
H33_4 H 0.3674 0.1465 0.2218
C47_4 C 0.2317(5) 0.2111(7) 0.3173(5)
H34_4 H 0.2696 0.1840 0.3266
H35_4 H 0.2376 0.2646 0.3061
C48_4 C 0.2091(4) 0.2146(7) 0.3633(4)
C49_4 C 0.2329(6) 0.1770(7) 0.4046(6)
H36_4 H 0.2671 0.1481 0.4067
C50_4 C 0.2101(5) 0.1764(6) 0.4479(5)
H37_4 H 0.2294 0.1448 0.4763
C51_4 C 0.1656(4) 0.2152(5) 0.4515(4)
C52_4 C 0.1465(6) 0.2762(8) 0.4125(6)
H38_4 H 0.1211 0.3162 0.4168
C53_4 C 0.1675(6) 0.2745(8) 0.3659(6)
H39_4 H 0.1542 0.3113 0.3390
C54_4 C 0.1428(5) 0.2190(7) 0.4968(5)
C64_4 C 0.1255(3) 0.4978(3) 0.0302(3)
H49_4 H 0.0948 0.4627 0.0349
C65_2 C 0.1071(3) 0.5827(3) 0.0355(3)
H51_2 H 0.1368 0.6177 0.0288
H52_2 H 0.1072 0.5911 0.0716
C66_2 C 0.0495(3) 0.6066(4) 0.0014(4)
H54_2 H 0.0193 0.5766 0.0113
C67_2 C 0.0353(4) 0.6928(5) 0.0023(5)
H55_2 H 0.0373 0.7079 0.0379
C69_4 C 0.1655(3) 0.1272(3) 0.0300(3)
H60_4 H 0.1272 0.1477 0.0304
C70_4 C 0.1673(4) 0.0375(4) 0.0403(4)
H62_4 H 0.1566 0.0274 0.0722
H63_4 H 0.2074 0.0185 0.0455
C74_4 C 0.0398(3) 0.1194(5) 0.1554(3)
H71_4 H 0.0307 0.1575 0.1268
H72_4 H 0.0051 0.1158 0.1679
C75_4 C 0.0479(6) 0.0395(6) 0.1327(6)
H73_4 H 0.0821 0.0426 0.1196
H74_4 H 0.0137 0.0296 0.1028
C79_4 C 0.0212(3) 0.4895(4) 0.1685(3)
H83_4 H 0.0179 0.4637 0.1352
C80_2 C 0.0214(4) 0.5791(4) 0.1607(4)
H84_2 H 0.0298 0.6051 0.1946
H85_2 H 0.0527 0.5930 0.1453
O1_4 O 0.1854(2) 0.4646(3) 0.2821(2)
O2_4 O 0.28655(18) 0.4667(2) 0.14793(19)
O3_4 O 0.5144(4) 0.3000(7) 0.0665(4)
O4_2 O 0.5761(3) 0.3426(5) 0.1353(4)
O7_4 O 0.3105(2) 0.1881(3) 0.1578(2)
O8_4 O 0.1922(2) 0.1711(3) 0.2769(3)
O10_4 O 0.0996(4) 0.2627(7) 0.4954(3)
O11_4 O 0.0235(3) 0.1492(3) 0.2700(3)
O12_4 O 0.01642(19) 0.4358(3) 0.2831(2)
C43_4 C 0.3420(4) 0.9626(4) 0.9157(4)
C44_4 C 0.2920(5) 0.9756(5) 0.9297(5)
H29_4 H 0.2666 0.9333 0.9296
C71_4 C 0.1264(5) 0.9918(5) 0.9961(4)
H64_4 H 0.1412 0.9990 0.9660
C72_4 C 0.1131(6) 0.9055(7) 0.9979(7)
H66_4 H 0.0869 0.8875 0.9646
H69_4 H 0.1885 0.8825 0.9818
C84_4 C 0.3576(5) 0.8799(5) 0.9018(5)
O16_4 O 0.4088(4) 0.8646(4) 0.9090(4)
H11_4 H 0.9955 0.2877 0.3001
C55_4 C 0.9836(7) 0.1425(6) 0.3001(6)
H40_4 H 0.9778 0.0874 0.3066
H41_4 H 0.9993 0.1697 0.3329
H42_4 H 0.9464 0.1659 0.2814
C56_4 C 0.9755(3) 0.4322(5) 0.3129(3)
H43_4 H 0.9887 0.3922 0.3400
H44_4 H 0.9753 0.4830 0.3301
C57_4 C 0.9151(3) 0.4132(4) 0.2815(3)
C58_4 C 0.8825(4) 0.3537(5) 0.2948(4)
H45_4 H 0.8991 0.3250 0.3254
C59_4 C 0.8249(4) 0.3340(6) 0.2640(4)
H46_4 H 0.8036 0.2930 0.2735
C60_4 C 0.8011(3) 0.3792(5) 0.2184(4)
C61_4 C 0.8319(4) 0.4379(5) 0.2069(4)
H47_4 H 0.8152 0.4692 0.1775
C62_4 C 0.8886(4) 0.4537(5) 0.2376(4)
H48_4 H 0.9095 0.4945 0.2274
C63_4 C 0.7440(5) 0.3489(8) 0.1855(5)
H82_4 H 0.9866 0.4752 0.1792
C81_2 C 0.9603(6) 0.6106(6) 0.1240(6)
H86_2 H 0.9288 0.5854 0.1349
H87_2 H 0.9566 0.5931 0.0884
C82_2 C 0.9514(8) 0.6891(9) 0.1229(7)
H88_2 H 0.9544 0.7080 0.1580
H89_2 H 0.9816 0.7156 0.1108
C83_2 C 0.8890(9) 0.7094(10) 0.0854(9)
H90_2 H 0.8819 0.7655 0.0867
H91_2 H 0.8872 0.6944 0.0502
H92_2 H 0.8594 0.6808 0.0963
O13_4 O 0.7185(3) 0.2904(3) 0.1920(3)
O14_4 O 0.7189(3) 0.3898(4) 0.1459(3)
H3_3 H 0.7123 0.9840 0.5677
H15_3 H 0.7612 0.9884 0.8207
H16_3 H 0.8531 0.9875 0.7028
H22 H 0.7747 0.9558 0.4460
C65_3 C 0.6071(3) 0.9173(3) 0.5355(3)
H51_3 H 0.6368 0.8823 0.5288
H52_3 H 0.6072 0.9089 0.5716
C66_3 C 0.5495(3) 0.8934(4) 0.5014(4)
H53 H 0.5475 0.9081 0.4657
H54_3 H 0.5193 0.9234 0.5113
C67_3 C 0.5353(4) 0.8072(5) 0.5023(5)
H55_3 H 0.5373 0.7921 0.5379
H56 H 0.5651 0.7769 0.4920
C68 C 0.4743(5) 0.7851(5) 0.4661(5)
H57 H 0.4675 0.7293 0.4693
H58 H 0.4726 0.7971 0.4305
H59 H 0.4445 0.8150 0.4759
C80_3 C 0.5214(4) 0.9209(4) 0.6607(4)
H84_3 H 0.5298 0.8949 0.6946
H85_3 H 0.5527 0.9070 0.6453
C81_3 C 0.4603(6) 0.8894(6) 0.6240(6)
H86_3 H 0.4288 0.9146 0.6349
H87_3 H 0.4566 0.9069 0.5884
C82_3 C 0.4514(8) 0.8109(9) 0.6229(7)
H88_3 H 0.4544 0.7920 0.6580
H89_3 H 0.4816 0.7844 0.6108
C83_3 C 0.3890(9) 0.7906(10) 0.5854(9)
H90_3 H 0.3819 0.7345 0.5867
H91_3 H 0.3872 0.8056 0.5502
H92_3 H 0.3594 0.8192 0.5963
C68_2 C 0.0257(5) 0.2851(5) 0.0339(5)
H57_2 H 0.0325 0.2293 0.0307
H58_2 H 0.0274 0.2971 0.0695
H59_2 H 0.0555 0.3150 0.0241
H67_3 H 0.9051 0.1059 0.9745
C73_3 C 0.8294(7) 0.1318(7) 0.9914(8)
H68_3 H 0.8338 0.1886 0.9908
H70_3 H 0.8047 0.1142 0.9579
C76_3 C 0.9444(9) 0.0293(9) 0.8318(7)
H75_3 H 0.9055 0.0271 0.8065
H76_3 H 0.9737 0.0274 0.8128
C77_3 C 0.9508(9) 0.1068(9) 0.8626(7)
H77_3 H 0.9384 0.1001 0.8941
H78_3 H 0.9914 0.1253 0.8725
C78_3 C 0.9110(9) 0.1635(11) 0.8254(8)
H79_3 H 0.9136 0.2151 0.8414
H80_3 H 0.8709 0.1448 0.8171
H81_3 H 0.9228 0.1670 0.7938
C10_3 C 0.7421(3) 0.6639(4) 0.0088(3)
H4_3 H 0.7240 0.6592 0.0354
C38_3 C 0.7253(6) 0.5111(6) 0.0449(5)
H22_2 H 0.7253 0.4558 0.0540
H23_3 H 0.6854 0.5287 0.0295
H24_3 H 0.7431 0.5417 0.0759
C39_3 C 0.7014(4) 0.8022(4) 0.0442(4)
H25_3 H 0.7282 0.7769 0.0745
H26_3 H 0.6657 0.7705 0.0331
C40_3 C 0.6866(4) 0.8845(4) 0.0583(3)
C41_3 C 0.6374(4) 0.9012(5) 0.0709(4)
H27_3 H 0.6114 0.8598 0.0714
C42_3 C 0.6230(5) 0.9755(6) 0.0831(4)
H28_3 H 0.5874 0.9831 0.0908
C45_3 C 0.7223(5) 0.9489(6) 0.0559(5)
H30_3 H 0.7558 0.9418 0.0446
H50_3 H 0.8720 0.5099 0.0053
H53_2 H 0.9525 0.4081 0.0343
H56_2 H 0.9349 0.2769 0.0080
H61_3 H 0.8304 0.8634 0.0048
H65_3 H 0.9114 0.9810 0.0122
O5_3 O 0.7583(3) 0.5215(3) 0.0083(2)
O6_3 O 0.7274(2) 0.8067(2) 0.0042(2)
H3_4 H 0.2877 0.0160 0.4323
H15_4 H 0.2388 0.0116 0.1793
H16_4 H 0.1469 0.0125 0.2972
H22_3 H 0.2253 0.0442 0.5540
C65_4 C 0.3929(3) 0.0827(3) 0.4645(3)
H51_4 H 0.3632 0.1177 0.4712
H52_4 H 0.3928 0.0911 0.4284
C66_4 C 0.4505(3) 0.1066(4) 0.4986(4)
H53_3 H 0.4525 0.0919 0.5343
H54_4 H 0.4807 0.0766 0.4887
C67_4 C 0.4647(4) 0.1928(5) 0.4977(5)
H55_4 H 0.4627 0.2079 0.4621
H56_3 H 0.4349 0.2231 0.5080
C68_3 C 0.5257(5) 0.2149(5) 0.5339(5)
H57_3 H 0.5325 0.2707 0.5307
H58_3 H 0.5274 0.2029 0.5695
H59_3 H 0.5555 0.1850 0.5241
C80_4 C 0.4786(4) 0.0791(4) 0.3393(4)
H84_4 H 0.4702 0.1051 0.3054
H85_4 H 0.4473 0.0930 0.3547
C81_4 C 0.5397(6) 0.1106(6) 0.3760(6)
H86_4 H 0.5712 0.0854 0.3651
H87_4 H 0.5434 0.0931 0.4116
C82_4 C 0.5486(8) 0.1891(9) 0.3771(7)
H88_4 H 0.5456 0.2080 0.3420
H89_4 H 0.5184 0.2156 0.3892
C83_4 C 0.6110(9) 0.2094(10) 0.4146(9)
H90_4 H 0.6181 0.2655 0.4133
H91_4 H 0.6128 0.1944 0.4498
H92_4 H 0.6406 0.1808 0.4037
C10_4 C 0.2579(3) 0.3361(4) 0.9912(3)
H4_4 H 0.2760 0.3408 0.9646
C38_4 C 0.2747(6) 0.4889(6) 0.9551(5)
H22_4 H 0.2747 0.5442 0.9460
H23_4 H 0.3146 0.4713 0.9705
H24_4 H 0.2569 0.4583 0.9241
C39_4 C 0.2986(4) 0.1978(4) 0.9558(4)
H25_4 H 0.2718 0.2231 0.9255
H26_4 H 0.3343 0.2295 0.9669
C40_4 C 0.3134(4) 0.1155(4) 0.9417(3)
C41_4 C 0.3626(4) 0.0988(5) 0.9291(4)
H27_4 H 0.3886 0.1402 0.9286
C42_4 C 0.3770(5) 0.0245(6) 0.9169(4)
H28_4 H 0.4126 0.0169 0.9092
C45_4 C 0.2777(5) 0.0511(6) 0.9441(5)
H30_4 H 0.2442 0.0582 0.9554
H50_4 H 0.1280 0.4901 0.9947
H53_4 H 0.0475 0.5919 0.9657
H56_4 H 0.0651 0.7231 0.9920
H61_4 H 0.1696 0.1366 0.9952
H65_4 H 0.0886 0.0190 0.9878
O5_4 O 0.2417(3) 0.4785(3) 0.9917(2)
O6_4 O 0.2726(2) 0.1933(2) 0.9958(2)
H67_4 H 0.0949 0.8941 0.0255
C73_4 C 0.1706(7) 0.8682(7) 0.0086(8)
H68_4 H 0.1662 0.8114 0.0092
H70_4 H 0.1953 0.8858 0.0421
C76_4 C 0.0556(9) 0.9707(9) 0.1682(7)
H75_4 H 0.0945 0.9729 0.1935
H76_4 H 0.0263 0.9726 0.1872
C77_4 C 0.0492(9) 0.8932(9) 0.1374(7)
H77_4 H 0.0616 0.8999 0.1059
H78_4 H 0.0086 0.8747 0.1275
C78_4 C 0.0890(9) 0.8365(11) 0.1746(8)
H79_4 H 0.0864 0.7849 0.1586
H80_4 H 0.1291 0.8552 0.1829
H81_4 H 0.0772 0.8330 0.2062
C68_4 C 0.9743(5) 0.7149(5) 0.9661(5)
H57_4 H 0.9675 0.7707 0.9693
H58_4 H 0.9726 0.7029 0.9305
H59_4 H 0.9445 0.6850 0.9759
loop_
_geom_bond_atom_site_label_1
_geom_bond_atom_site_label_2
_geom_bond_site_symmetry_1
_geom_bond_site_symmetry_2
O3 C37 1_555 1_555
O4 C37 1_555 1_555
Cd2 O4 1_555 1_555
Cd4 O9 1_555 1_555
Cd2 O13 1_555 1_555
C1 C2 1_555 1_555
C2 H1 1_555 1_555
C3 C2 1_555 1_555
C4 C3 1_555 1_555
C5 C4 1_555 1_555
H2 C5 1_555 1_555
C6 C1 1_555 1_555
C7 C6 1_555 1_555
C8 C7 1_555 1_555
C9 C8 1_555 1_555
C10 C9 1_555 1_555
H4 C10 1_555 1_555
C11 C10 1_555 1_555
C12 C11 1_555 1_555
C13 C8 1_555 1_555
H5 C13 1_555 1_555
C14 C12 1_555 1_555
H6 C14 1_555 1_555
C15 C14 1_555 1_555
C16 C15 1_555 1_555
H7 C16 1_555 1_555
C17 C16 1_555 1_555
C18 C17 1_555 1_555
C19 C18 1_555 1_555
H8 C19 1_555 1_555
C20 C15 1_555 1_555
C21 C17 1_555 1_555
H9 C21 1_555 1_555
C22 C21 1_555 1_555
C23 C22 1_555 1_555
H10 C23 1_555 1_555
C24 C23 1_555 1_555
C25 C24 1_555 1_555
C26 C25 1_555 1_555
H11 C26 1_555 1_555
C27 C22 1_555 1_555
C28 C4 1_555 1_555
H12 C28 1_555 1_555
C29 H13 1_555 1_555
H14 C29 1_555 1_555
H17 C30 1_555 1_555
C31 C30 1_555 1_555
C32 C31 1_555 1_555
H18 C32 1_555 1_555
C33 C32 1_555 1_555
H19 C33 1_555 1_555
C34 C33 1_555 1_555
C35 C34 1_555 1_555
C36 C31 1_555 1_555
H21 C36 1_555 1_555
H23 C38 1_555 1_555
H24 C38 1_555 1_555
C39 H25 1_555 1_555
H26 C39 1_555 1_555
C40 C39 1_555 1_555
C41 C40 1_555 1_555
H27 C41 1_555 1_555
C42 C41 1_555 1_555
H28 C42 1_555 1_555
C43 C42 1_555 1_555
C44 C43 1_555 1_555
H29 C44 1_555 1_555
C45 C40 1_555 1_555
H30 C45 1_555 1_555
C46 H31 1_555 1_555
H32 C46 1_555 1_555
H33 C46 1_555 1_555
C47 H34 1_555 1_555
H35 C47 1_555 1_555
C48 C47 1_555 1_555
C49 C48 1_555 1_555
H36 C49 1_555 1_555
C50 C49 1_555 1_555
H37 C50 1_555 1_555
C51 C50 1_555 1_555
C52 C51 1_555 1_555
H38 C52 1_555 1_555
C53 C48 1_555 1_555
H39 C53 1_555 1_555
C54 C51 1_555 1_555
C55 H40 1_555 1_555
H41 C55 1_555 1_555
H42 C55 1_555 1_555
C56 H43 1_555 1_555
H44 C56 1_555 1_555
C57 C56 1_555 1_555
C58 C57 1_555 1_555
H45 C58 1_555 1_555
C59 C58 1_555 1_555
H46 C59 1_555 1_555
C60 C59 1_555 1_555
C61 C60 1_555 1_555
H47 C61 1_555 1_555
C62 C57 1_555 1_555
H48 C62 1_555 1_555
C63 C60 1_555 1_555
C64 C7 1_555 1_555
H49 C64 1_555 1_555
H50 C64 1_555 1_555
C69 C14 1_555 1_555
H60 C69 1_555 1_555
H61 C69 1_555 1_555
C70 C69 1_555 1_555
H62 C70 1_555 1_555
H63 C70 1_555 1_555
C71 C70 1_555 1_555
H64 C71 1_555 1_555
H65 C71 1_555 1_555
C72 C71 1_555 1_555
H66 C72 1_555 1_555
H67 C72 1_555 1_555
C73 C72 1_555 1_555
H68 C73 1_555 1_555
H69 C73 1_555 1_555
H70 C73 1_555 1_555
C74 C21 1_555 1_555
H71 C74 1_555 1_555
H72 C74 1_555 1_555
C75 C74 1_555 1_555
H73 C75 1_555 1_555
H74 C75 1_555 1_555
C76 C75 1_555 1_555
H75 C76 1_555 1_555
H76 C76 1_555 1_555
C77 C76 1_555 1_555
H77 C77 1_555 1_555
H78 C77 1_555 1_555
C78 C77 1_555 1_555
H79 C78 1_555 1_555
H80 C78 1_555 1_555
H81 C78 1_555 1_555
C79 C28 1_555 1_555
H82 C79 1_555 1_555
H83 C79 1_555 1_555
O1 C3 1_555 1_555
O2 C1 1_555 1_555
O5 C9 1_555 1_555
O6 C11 1_555 1_555
O7 C20 1_555 1_555
O8 C18 1_555 1_555
O10 C54 1_555 1_555
O11 C27 1_555 1_555
O12 C25 1_555 1_555
O13 C63 1_555 1_555
O14 Cd2 1_555 1_555
C84 C43 1_555 1_555
O15 C84 1_555 1_555
O16 C84 1_555 1_555
Cd3 O15 1_555 1_555
O18 Cd2 1_555 1_555
O19 Cd2 1_555 1_555
C5 C6 1_555 1_555
C12 C13 1_555 1_555
C19 C20 1_555 1_555
C24 C28 1_555 1_555
C26 C27 1_555 1_555
C29 O1 1_555 1_555
C30 O2 1_555 1_555
C35 C36 1_555 1_555
C38 O5 1_555 1_555
C39 O6 1_555 1_555
C44 C45 1_555 1_555
C46 O7 1_555 1_555
C47 O8 1_555 1_555
C52 C53 1_555 1_555
C55 O11 1_555 1_555
C56 O12 1_555 1_555
C61 C62 1_555 1_555
C63 O14 1_555 1_555
Cd1 O13_2 1_555 1_555
C55_2 H40_2 1_555 1_555
H41_2 C55_2 1_555 1_555
H42_2 C55_2 1_555 1_555
C56_2 H43_2 1_555 1_555
H44_2 C56_2 1_555 1_555
C57_2 C56_2 1_555 1_555
C58_2 C57_2 1_555 1_555
H45_2 C58_2 1_555 1_555
C59_2 C58_2 1_555 1_555
H46_2 C59_2 1_555 1_555
C60_2 C59_2 1_555 1_555
C61_2 C60_2 1_555 1_555
H47_2 C61_2 1_555 1_555
C62_2 C57_2 1_555 1_555
H48_2 C62_2 1_555 1_555
C63_2 C60_2 1_555 1_555
H86 C81 1_555 1_555
H87 C81 1_555 1_555
C82 C81 1_555 1_555
H88 C82 1_555 1_555
H89 C82 1_555 1_555
C83 C82 1_555 1_555
H90 C83 1_555 1_555
H91 C83 1_555 1_555
H92 C83 1_555 1_555
O13_2 C63_2 1_555 1_555
O14_2 Cd1 1_555 1_555
O17 Cd1 1_555 1_555
O18_2 Cd1 1_555 1_555
O19_2 Cd1 1_555 1_555
C61_2 C62_2 1_555 1_555
C63_2 O14_2 1_555 1_555
C44_2 C43_2 1_555 1_555
H29_2 C44_2 1_555 1_555
H64_2 C71_2 1_555 1_555
C72_2 C71_2 1_555 1_555
H66_2 C72_2 1_555 1_555
C84_2 C43_2 1_555 1_555
O15_2 C84_2 1_555 1_555
O16_2 C84_2 1_555 1_555
Cd4 O15_2 1_555 1_555
C1_2 C2_2 1_555 1_555
C2_2 H1_2 1_555 1_555
C3_2 C2_2 1_555 1_555
C4_2 C3_2 1_555 1_555
C5_2 C4_2 1_555 1_555
H2_2 C5_2 1_555 1_555
C6_2 C1_2 1_555 1_555
C7_2 C6_2 1_555 1_555
H3 C7_2 1_555 1_555
C8_2 C7_2 1_555 1_555
C9_2 C8_2 1_555 1_555
C12_2 C11_2 1_555 1_555
C13_2 C8_2 1_555 1_555
H5_2 C13_2 1_555 1_555
C14_2 C12_2 1_555 1_555
H6_2 C14_2 1_555 1_555
C15_2 C14_2 1_555 1_555
C16_2 C15_2 1_555 1_555
H7_2 C16_2 1_555 1_555
C17_2 C16_2 1_555 1_555
C18_2 C17_2 1_555 1_555
C19_2 C18_2 1_555 1_555
H8_2 C19_2 1_555 1_555
C20_2 C15_2 1_555 1_555
C21_2 C17_2 1_555 1_555
H9_2 C21_2 1_555 1_555
C22_2 C21_2 1_555 1_555
C23_2 C22_2 1_555 1_555
H10_2 C23_2 1_555 1_555
C24_2 C23_2 1_555 1_555
C25_2 C24_2 1_555 1_555
C26_2 C25_2 1_555 1_555
C27_2 C22_2 1_555 1_555
C28_2 C4_2 1_555 1_555
H12_2 C28_2 1_555 1_555
C29_2 H13_2 1_555 1_555
H14_2 C29_2 1_555 1_555
H15 C29_2 1_555 1_555
C30_2 H16 1_555 1_555
H17_2 C30_2 1_555 1_555
C31_2 C30_2 1_555 1_555
C32_2 C31_2 1_555 1_555
H18_2 C32_2 1_555 1_555
C33_2 C32_2 1_555 1_555
H19_2 C33_2 1_555 1_555
C34_2 C33_2 1_555 1_555
C35_2 C34_2 1_555 1_555
H20_2 C35_2 1_555 1_555
C36_2 C31_2 1_555 1_555
H21_2 C36_2 1_555 1_555
C37_2 C34_2 1_555 1_555
C46_2 H31_2 1_555 1_555
H32_2 C46_2 1_555 1_555
H33_2 C46_2 1_555 1_555
C47_2 H34_2 1_555 1_555
H35_2 C47_2 1_555 1_555
C48_2 C47_2 1_555 1_555
C49_2 C48_2 1_555 1_555
H36_2 C49_2 1_555 1_555
C50_2 C49_2 1_555 1_555
H37_2 C50_2 1_555 1_555
C51_2 C50_2 1_555 1_555
C52_2 C51_2 1_555 1_555
H38_2 C52_2 1_555 1_555
C53_2 C48_2 1_555 1_555
H39_2 C53_2 1_555 1_555
C54_2 C51_2 1_555 1_555
C64_2 C7_2 1_555 1_555
H49_2 C64_2 1_555 1_555
C65 C64_2 1_555 1_555
H51 C65 1_555 1_555
H52 C65 1_555 1_555
C66 C65 1_555 1_555
H54 C66 1_555 1_555
C67 C66 1_555 1_555
H55 C67 1_555 1_555
C69_2 C14_2 1_555 1_555
H60_2 C69_2 1_555 1_555
C70_2 C69_2 1_555 1_555
H62_2 C70_2 1_555 1_555
H63_2 C70_2 1_555 1_555
C74_2 C21_2 1_555 1_555
H71_2 C74_2 1_555 1_555
H72_2 C74_2 1_555 1_555
C75_2 C74_2 1_555 1_555
H73_2 C75_2 1_555 1_555
H74_2 C75_2 1_555 1_555
C79_2 C28_2 1_555 1_555
H83_2 C79_2 1_555 1_555
C80 C79_2 1_555 1_555
H84 C80 1_555 1_555
H85 C80 1_555 1_555
O1_2 C3_2 1_555 1_555
O2_2 C1_2 1_555 1_555
O3_2 C37_2 1_555 1_555
O17 C37_2 1_555 1_555
O7_2 C20_2 1_555 1_555
O8_2 C18_2 1_555 1_555
O9_2 C54_2 1_555 1_555
O10_2 C54_2 1_555 1_555
O11_2 C27_2 1_555 1_555
O12_2 C25_2 1_555 1_555
Cd3 O9_2 1_555 1_555
C5_2 C6_2 1_555 1_555
C12_2 C13_2 1_555 1_555
C19_2 C20_2 1_555 1_555
C24_2 C28_2 1_555 1_555
C26_2 C27_2 1_555 1_555
C29_2 O1_2 1_555 1_555
C30_2 O2_2 1_555 1_555
C35_2 C36_2 1_555 1_555
C46_2 O7_2 1_555 1_555
C47_2 O8_2 1_555 1_555
C52_2 C53_2 1_555 1_555
Cd3 O13_3 1_555 1_555
C1_3 C2_3 1_555 1_555
C2_3 H1_3 1_555 1_555
C3_3 C2_3 1_555 1_555
C4_3 C3_3 1_555 1_555
C5_3 C4_3 1_555 1_555
H2_3 C5_3 1_555 1_555
C6_3 C1_3 1_555 1_555
C7_3 C6_3 1_555 1_555
C8_3 C7_3 1_555 1_555
C9_3 C8_3 1_555 1_555
C10_2 C9_3 1_555 1_555
H4_2 C10_2 1_555 1_555
C11_3 C10_2 1_555 1_555
C12_3 C11_3 1_555 1_555
C13_3 C8_3 1_555 1_555
H5_3 C13_3 1_555 1_555
C14_3 C12_3 1_555 1_555
H6_3 C14_3 1_555 1_555
C15_3 C14_3 1_555 1_555
C16_3 C15_3 1_555 1_555
H7_3 C16_3 1_555 1_555
C17_3 C16_3 1_555 1_555
C18_3 C17_3 1_555 1_555
C19_3 C18_3 1_555 1_555
H8_3 C19_3 1_555 1_555
C20_3 C15_3 1_555 1_555
C21_3 C17_3 1_555 1_555
H9_3 C21_3 1_555 1_555
C22_3 C21_3 1_555 1_555
C23_3 C22_3 1_555 1_555
H10_3 C23_3 1_555 1_555
C24_3 C23_3 1_555 1_555
C25_3 C24_3 1_555 1_555
C26_3 C25_3 1_555 1_555
H11_3 C26_3 1_555 1_555
C27_3 C22_3 1_555 1_555
C28_3 C4_3 1_555 1_555
H12_3 C28_3 1_555 1_555
C29_3 H13_3 1_555 1_555
H14_3 C29_3 1_555 1_555
H17_3 C30_3 1_555 1_555
C31_3 C30_3 1_555 1_555
C32_3 C31_3 1_555 1_555
H18_3 C32_3 1_555 1_555
C33_3 C32_3 1_555 1_555
H19_3 C33_3 1_555 1_555
C34_3 C33_3 1_555 1_555
C35_3 C34_3 1_555 1_555
C36_3 C31_3 1_555 1_555
H21_3 C36_3 1_555 1_555
H23_2 C38_2 1_555 1_555
H24_2 C38_2 1_555 1_555
C39_2 H25_2 1_555 1_555
H26_2 C39_2 1_555 1_555
C40_2 C39_2 1_555 1_555
C41_2 C40_2 1_555 1_555
H27_2 C41_2 1_555 1_555
C42_2 C41_2 1_555 1_555
H28_2 C42_2 1_555 1_555
C43_3 C42_2 1_555 1_555
C44_3 C43_3 1_555 1_555
H29_3 C44_3 1_555 1_555
C45_2 C40_2 1_555 1_555
H30_2 C45_2 1_555 1_555
C46_3 H31_3 1_555 1_555
H32_3 C46_3 1_555 1_555
H33_3 C46_3 1_555 1_555
C47_3 H34_3 1_555 1_555
H35_3 C47_3 1_555 1_555
C48_3 C47_3 1_555 1_555
C49_3 C48_3 1_555 1_555
H36_3 C49_3 1_555 1_555
C50_3 C49_3 1_555 1_555
H37_3 C50_3 1_555 1_555
C51_3 C50_3 1_555 1_555
C52_3 C51_3 1_555 1_555
H38_3 C52_3 1_555 1_555
C53_3 C48_3 1_555 1_555
H39_3 C53_3 1_555 1_555
C54_3 C51_3 1_555 1_555
C55_3 H40_3 1_555 1_555
H41_3 C55_3 1_555 1_555
H42_3 C55_3 1_555 1_555
C56_3 H43_3 1_555 1_555
H44_3 C56_3 1_555 1_555
C57_3 C56_3 1_555 1_555
C58_3 C57_3 1_555 1_555
H45_3 C58_3 1_555 1_555
C59_3 C58_3 1_555 1_555
H46_3 C59_3 1_555 1_555
C60_3 C59_3 1_555 1_555
C61_3 C60_3 1_555 1_555
H47_3 C61_3 1_555 1_555
C62_3 C57_3 1_555 1_555
H48_3 C62_3 1_555 1_555
C63_3 C60_3 1_555 1_555
C64_3 C7_3 1_555 1_555
H49_3 C64_3 1_555 1_555
H50_2 C64_3 1_555 1_555
C69_3 C14_3 1_555 1_555
H60_3 C69_3 1_555 1_555
H61_2 C69_3 1_555 1_555
C70_3 C69_3 1_555 1_555
H62_3 C70_3 1_555 1_555
H63_3 C70_3 1_555 1_555
C71_3 C70_3 1_555 1_555
H64_3 C71_3 1_555 1_555
H65_2 C71_3 1_555 1_555
C72_3 C71_3 1_555 1_555
H66_3 C72_3 1_555 1_555
H67_2 C72_3 1_555 1_555
C73_2 C72_3 1_555 1_555
H68_2 C73_2 1_555 1_555
H69_3 C73_2 1_555 1_555
H70_2 C73_2 1_555 1_555
C74_3 C21_3 1_555 1_555
H71_3 C74_3 1_555 1_555
H72_3 C74_3 1_555 1_555
C75_3 C74_3 1_555 1_555
H73_3 C75_3 1_555 1_555
H74_3 C75_3 1_555 1_555
C76_2 C75_3 1_555 1_555
H75_2 C76_2 1_555 1_555
H76_2 C76_2 1_555 1_555
C77_2 C76_2 1_555 1_555
H77_2 C77_2 1_555 1_555
H78_2 C77_2 1_555 1_555
C78_2 C77_2 1_555 1_555
H79_2 C78_2 1_555 1_555
H80_2 C78_2 1_555 1_555
H81_2 C78_2 1_555 1_555
C79_3 C28_3 1_555 1_555
H82_3 C79_3 1_555 1_555
H83_3 C79_3 1_555 1_555
O1_3 C3_3 1_555 1_555
O2_3 C1_3 1_555 1_555
O5_2 C9_3 1_555 1_555
O6_2 C11_3 1_555 1_555
O7_3 C20_3 1_555 1_555
O8_3 C18_3 1_555 1_555
O10_3 C54_3 1_555 1_555
O11_3 C27_3 1_555 1_555
O12_3 C25_3 1_555 1_555
O13_3 C63_3 1_555 1_555
O14_3 Cd3 1_555 1_555
C84_3 C43_3 1_555 1_555
O19 C84_3 1_555 1_555
O16_3 C84_3 1_555 1_555
O17_2 Cd3 1_555 1_555
C5_3 C6_3 1_555 1_555
C12_3 C13_3 1_555 1_555
C19_3 C20_3 1_555 1_555
C24_3 C28_3 1_555 1_555
C26_3 C27_3 1_555 1_555
C29_3 O1_3 1_555 1_555
C30_3 O2_3 1_555 1_555
C35_3 C36_3 1_555 1_555
C38_2 O5_2 1_555 1_555
C39_2 O6_2 1_555 1_555
C44_3 C45_2 1_555 1_555
C46_3 O7_3 1_555 1_555
C47_3 O8_3 1_555 1_555
C52_3 C53_3 1_555 1_555
C55_3 O11_3 1_555 1_555
C56_3 O12_3 1_555 1_555
C61_3 C62_3 1_555 1_555
C63_3 O14_3 1_555 1_555
O3_3 C37_3 1_555 1_555
O17_2 C37_3 1_555 1_555
C1_4 C2_4 1_555 1_555
C2_4 H1_4 1_555 1_555
C3_4 C2_4 1_555 1_555
C4_4 C3_4 1_555 1_555
C5_4 C4_4 1_555 1_555
H2_4 C5_4 1_555 1_555
C6_4 C1_4 1_555 1_555
C7_4 C6_4 1_555 1_555
H3_2 C7_4 1_555 1_555
C8_4 C7_4 1_555 1_555
C9_4 C8_4 1_555 1_555
C12_4 C11_4 1_555 1_555
C13_4 C8_4 1_555 1_555
H5_4 C13_4 1_555 1_555
C14_4 C12_4 1_555 1_555
H6_4 C14_4 1_555 1_555
C15_4 C14_4 1_555 1_555
C16_4 C15_4 1_555 1_555
H7_4 C16_4 1_555 1_555
C17_4 C16_4 1_555 1_555
C18_4 C17_4 1_555 1_555
C19_4 C18_4 1_555 1_555
H8_4 C19_4 1_555 1_555
C20_4 C15_4 1_555 1_555
C21_4 C17_4 1_555 1_555
H9_4 C21_4 1_555 1_555
C22_4 C21_4 1_555 1_555
C23_4 C22_4 1_555 1_555
H10_4 C23_4 1_555 1_555
C24_4 C23_4 1_555 1_555
C25_4 C24_4 1_555 1_555
C26_4 C25_4 1_555 1_555
C27_4 C22_4 1_555 1_555
C28_4 C4_4 1_555 1_555
H12_4 C28_4 1_555 1_555
C29_4 H13_4 1_555 1_555
H14_4 C29_4 1_555 1_555
H15_2 C29_4 1_555 1_555
C30_4 H16_2 1_555 1_555
H17_4 C30_4 1_555 1_555
C31_4 C30_4 1_555 1_555
C32_4 C31_4 1_555 1_555
H18_4 C32_4 1_555 1_555
C33_4 C32_4 1_555 1_555
H19_4 C33_4 1_555 1_555
C34_4 C33_4 1_555 1_555
C35_4 C34_4 1_555 1_555
H20_4 C35_4 1_555 1_555
C36_4 C31_4 1_555 1_555
H21_4 C36_4 1_555 1_555
C37_4 C34_4 1_555 1_555
C46_4 H31_4 1_555 1_555
H32_4 C46_4 1_555 1_555
H33_4 C46_4 1_555 1_555
C47_4 H34_4 1_555 1_555
H35_4 C47_4 1_555 1_555
C48_4 C47_4 1_555 1_555
C49_4 C48_4 1_555 1_555
H36_4 C49_4 1_555 1_555
C50_4 C49_4 1_555 1_555
H37_4 C50_4 1_555 1_555
C51_4 C50_4 1_555 1_555
C52_4 C51_4 1_555 1_555
H38_4 C52_4 1_555 1_555
C53_4 C48_4 1_555 1_555
H39_4 C53_4 1_555 1_555
C54_4 C51_4 1_555 1_555
C64_4 C7_4 1_555 1_555
H49_4 C64_4 1_555 1_555
C65_2 C64_4 1_555 1_555
H51_2 C65_2 1_555 1_555
H52_2 C65_2 1_555 1_555
C66_2 C65_2 1_555 1_555
H54_2 C66_2 1_555 1_555
C67_2 C66_2 1_555 1_555
H55_2 C67_2 1_555 1_555
C69_4 C14_4 1_555 1_555
H60_4 C69_4 1_555 1_555
C70_4 C69_4 1_555 1_555
H62_4 C70_4 1_555 1_555
H63_4 C70_4 1_555 1_555
C74_4 C21_4 1_555 1_555
H71_4 C74_4 1_555 1_555
H72_4 C74_4 1_555 1_555
C75_4 C74_4 1_555 1_555
H73_4 C75_4 1_555 1_555
H74_4 C75_4 1_555 1_555
C79_4 C28_4 1_555 1_555
H83_4 C79_4 1_555 1_555
C80_2 C79_4 1_555 1_555
H84_2 C80_2 1_555 1_555
H85_2 C80_2 1_555 1_555
O1_4 C3_4 1_555 1_555
O2_4 C1_4 1_555 1_555
O3_4 C37_4 1_555 1_555
O4_2 C37_4 1_555 1_555
O7_4 C20_4 1_555 1_555
O8_4 C18_4 1_555 1_555
O18 C54_4 1_555 1_555
O10_4 C54_4 1_555 1_555
O11_4 C27_4 1_555 1_555
O12_4 C25_4 1_555 1_555
Cd4 O4_2 1_555 1_555
C5_4 C6_4 1_555 1_555
C12_4 C13_4 1_555 1_555
C19_4 C20_4 1_555 1_555
C24_4 C28_4 1_555 1_555
C26_4 C27_4 1_555 1_555
C29_4 O1_4 1_555 1_555
C30_4 O2_4 1_555 1_555
C35_4 C36_4 1_555 1_555
C46_4 O7_4 1_555 1_555
C47_4 O8_4 1_555 1_555
C52_4 C53_4 1_555 1_555
C44_4 C43_4 1_555 1_555
H29_4 C44_4 1_555 1_555
H64_4 C71_4 1_555 1_555
C72_4 C71_4 1_555 1_555
H66_4 C72_4 1_555 1_555
C84_4 C43_4 1_555 1_555
O19_2 C84_4 1_555 1_555
O16_4 C84_4 1_555 1_555
Cd4 O13_4 1_555 1_555
C55_4 H40_4 1_555 1_555
H41_4 C55_4 1_555 1_555
H42_4 C55_4 1_555 1_555
C56_4 H43_4 1_555 1_555
H44_4 C56_4 1_555 1_555
C57_4 C56_4 1_555 1_555
C58_4 C57_4 1_555 1_555
H45_4 C58_4 1_555 1_555
C59_4 C58_4 1_555 1_555
H46_4 C59_4 1_555 1_555
C60_4 C59_4 1_555 1_555
C61_4 C60_4 1_555 1_555
H47_4 C61_4 1_555 1_555
C62_4 C57_4 1_555 1_555
H48_4 C62_4 1_555 1_555
C63_4 C60_4 1_555 1_555
H86_2 C81_2 1_555 1_555
H87_2 C81_2 1_555 1_555
C82_2 C81_2 1_555 1_555
H88_2 C82_2 1_555 1_555
H89_2 C82_2 1_555 1_555
C83_2 C82_2 1_555 1_555
H90_2 C83_2 1_555 1_555
H91_2 C83_2 1_555 1_555
H92_2 C83_2 1_555 1_555
O13_4 C63_4 1_555 1_555
O14_4 Cd4 1_555 1_555
C61_4 C62_4 1_555 1_555
C63_4 O14_4 1_555 1_555
H51_3 C65_3 1_555 1_555
H52_3 C65_3 1_555 1_555
C66_3 C65_3 1_555 1_555
H53 C66_3 1_555 1_555
H54_3 C66_3 1_555 1_555
C67_3 C66_3 1_555 1_555
H55_3 C67_3 1_555 1_555
H56 C67_3 1_555 1_555
C68 C67_3 1_555 1_555
H57 C68 1_555 1_555
H58 C68 1_555 1_555
H59 C68 1_555 1_555
H84_3 C80_3 1_555 1_555
H85_3 C80_3 1_555 1_555
C81_3 C80_3 1_555 1_555
H86_3 C81_3 1_555 1_555
H87_3 C81_3 1_555 1_555
C82_3 C81_3 1_555 1_555
H88_3 C82_3 1_555 1_555
H89_3 C82_3 1_555 1_555
C83_3 C82_3 1_555 1_555
H90_3 C83_3 1_555 1_555
H91_3 C83_3 1_555 1_555
H92_3 C83_3 1_555 1_555
H57_2 C68_2 1_555 1_555
H58_2 C68_2 1_555 1_555
H59_2 C68_2 1_555 1_555
H68_3 C73_3 1_555 1_555
H70_3 C73_3 1_555 1_555
H75_3 C76_3 1_555 1_555
H76_3 C76_3 1_555 1_555
C77_3 C76_3 1_555 1_555
H77_3 C77_3 1_555 1_555
H78_3 C77_3 1_555 1_555
C78_3 C77_3 1_555 1_555
H79_3 C78_3 1_555 1_555
H80_3 C78_3 1_555 1_555
H81_3 C78_3 1_555 1_555
H4_3 C10_3 1_555 1_555
C38_3 H22_2 1_555 1_555
H23_3 C38_3 1_555 1_555
H24_3 C38_3 1_555 1_555
C39_3 H25_3 1_555 1_555
H26_3 C39_3 1_555 1_555
C40_3 C39_3 1_555 1_555
C41_3 C40_3 1_555 1_555
H27_3 C41_3 1_555 1_555
C42_3 C41_3 1_555 1_555
H28_3 C42_3 1_555 1_555
C45_3 C40_3 1_555 1_555
H30_3 C45_3 1_555 1_555
C38_3 O5_3 1_555 1_555
C39_3 O6_3 1_555 1_555
H51_4 C65_4 1_555 1_555
H52_4 C65_4 1_555 1_555
C66_4 C65_4 1_555 1_555
H53_3 C66_4 1_555 1_555
H54_4 C66_4 1_555 1_555
C67_4 C66_4 1_555 1_555
H55_4 C67_4 1_555 1_555
H56_3 C67_4 1_555 1_555
C68_3 C67_4 1_555 1_555
H57_3 C68_3 1_555 1_555
H58_3 C68_3 1_555 1_555
H59_3 C68_3 1_555 1_555
H84_4 C80_4 1_555 1_555
H85_4 C80_4 1_555 1_555
C81_4 C80_4 1_555 1_555
H86_4 C81_4 1_555 1_555
H87_4 C81_4 1_555 1_555
C82_4 C81_4 1_555 1_555
H88_4 C82_4 1_555 1_555
H89_4 C82_4 1_555 1_555
C83_4 C82_4 1_555 1_555
H90_4 C83_4 1_555 1_555
H91_4 C83_4 1_555 1_555
H92_4 C83_4 1_555 1_555
H4_4 C10_4 1_555 1_555
C38_4 H22_4 1_555 1_555
H23_4 C38_4 1_555 1_555
H24_4 C38_4 1_555 1_555
C39_4 H25_4 1_555 1_555
H26_4 C39_4 1_555 1_555
C40_4 C39_4 1_555 1_555
C41_4 C40_4 1_555 1_555
H27_4 C41_4 1_555 1_555
C42_4 C41_4 1_555 1_555
H28_4 C42_4 1_555 1_555
C45_4 C40_4 1_555 1_555
H30_4 C45_4 1_555 1_555
C38_4 O5_4 1_555 1_555
C39_4 O6_4 1_555 1_555
H68_4 C73_4 1_555 1_555
H70_4 C73_4 1_555 1_555
H75_4 C76_4 1_555 1_555
H76_4 C76_4 1_555 1_555
C77_4 C76_4 1_555 1_555
H77_4 C77_4 1_555 1_555
H78_4 C77_4 1_555 1_555
C78_4 C77_4 1_555 1_555
H79_4 C78_4 1_555 1_555
H80_4 C78_4 1_555 1_555
H81_4 C78_4 1_555 1_555
H57_4 C68_4 1_555 1_555
H58_4 C68_4 1_555 1_555
H59_4 C68_4 1_555 1_555

#END
