
###############################################################################
#
# This file contains modified crystal structure data generated from the
# MOF subset of the Cambridge Structural Database (CSD) v543 
# hosted by the Cambridge Crystallographic Data Centre (CCDC).
#
# This work is licensed under the Creative Commons
# Attribution-NonCommercial-ShareAlike 4.0 International License.
# To view a copy of this license, visit
# http://creativecommons.org/licenses/by-nc-sa/4.0/
# or send a letter to
# Creative Commons, PO Box 1866, Mountain View, CA 94042, USA.
#
# CIF created using the CSD Python API on 29 September 2022
# The structure has been converted into the P1 space group
# The structure has a 3D framework
# The original CSD entry POXHER is in the cubic crystal system
# The original CSD entry POXHER is in a Sohncke space group
# The framework has been calculated to contain at least 10.0% void space
# The void calculation uses a probe of radius 1.32A, grid spacing 0.4
#
###############################################################################

data_POXHER
_chemical_formula_moiety         '(C816 H792 Co60 N192 O102)n'
_symmetry_cell_setting           triclinic
_symmetry_space_group_name_H-M   'P 1'
_symmetry_Int_Tables_number      1
_space_group_name_Hall           'P 1'
loop_
_symmetry_equiv_pos_site_id
_symmetry_equiv_pos_as_xyz
1 x,y,z
_cell_length_a                   33.8846(1)
_cell_length_b                   33.8846(1)
_cell_length_c                   33.8846(1)
_cell_angle_alpha                90
_cell_angle_beta                 90
_cell_angle_gamma                90
_cell_volume                     38905.1
loop_
_atom_site_label
_atom_site_type_symbol
_atom_site_fract_x
_atom_site_fract_y
_atom_site_fract_z
H7 H 0.0002 0.3081 0.0943
H22 H 0.0157 0.0175 0.1091
H40 H 0.0943 0.0002 0.3081
H55 H 0.1091 0.0157 0.0175
H103 H 0.0081 0.3531 0.1812
C112 C 0.0140(3) 0.4173(4) 0.2831(3)
H110 H 0.0230 0.4319 0.3056
H111 H 0.0185 0.4323 0.2595
H112 H 0.0280 0.3927 0.2815
H116 H 0.0024 0.4052 0.4641
C123 C 0.0343(3) 0.4130(6) 0.0645(6)
C124 C 0.0793(3) 0.4072(5) 0.0609(4)
C125 C 0.1019(4) 0.4374(5) 0.0449(5)
H125 H 0.0902 0.4607 0.0365
C126 C 0.1426(4) 0.4319(6) 0.0418(5)
H126 H 0.1576 0.4522 0.0311
C127 C 0.1621(4) 0.3975(5) 0.0538(5)
C128 C 0.1383(3) 0.3684(5) 0.0695(5)
H127 H 0.1500 0.3450 0.0779
C129 C 0.0969(3) 0.3724(5) 0.0734(5)
H128 H 0.0819 0.3521 0.0841
C130 C 0.2009(3) 0.3880(5) 0.0480(4)
C131 C 0.2281(3) 0.3981(5) 0.0766(4)
H129 H 0.2178 0.4063 0.1007
C132 C 0.2688(3) 0.3974(5) 0.0736(4)
H130 H 0.2846 0.4048 0.0948
C133 C 0.2855(4) 0.3854(5) 0.0384(4)
C134 C 0.2608(3) 0.3748(5) 0.0083(4)
C135 C 0.2206(3) 0.3768(5) 0.0150(4)
C136 C 0.3279(3) 0.3894(2) 0.0284(3)
O15 O 0.0180(2) 0.3908(3) 0.0841(3)
O16 O 0.0169(3) 0.4443(4) 0.0438(4)
O17 O 0.34314(16) 0.3777(3) 0.0001(2)
O18 O 0.3482(3) 0.4061(4) 0.0510(4)
H139 H 0.3081 0.0943 0.0002
H154 H 0.0175 0.1091 0.0157
N61 N 0.02435(18) 0.43555(16) 0.38386(19)
O29 O 0.0438(4) 0.0169(3) 0.4443(4)
O32 O 0.0001(2) 0.34314(16) 0.3777(3)
C50 C 0.1289(5) 0.0073(3) 0.9991(3)
H53 H 0.1358 0.0289 0.9821
H131 H 0.2707 0.3665 0.9841
H132 H 0.2048 0.3695 0.9938
Co14 Co 0.12447(3) 0.01996(3) 0.89615(3)
Co15 Co 0.40521(3) 0.03688(3) 0.89085(3)
N33 N 0.34954(18) 0.04863(19) 0.90377(18)
N34 N 0.34407(17) 0.0698(2) 0.93848(19)
N35 N 0.18205(17) 0.08422(18) 0.89812(19)
N36 N 0.17671(16) 0.04501(18) 0.90397(17)
N37 N 0.08900(17) 0.09972(19) 0.90170(17)
N38 N 0.08322(17) 0.05933(19) 0.90662(18)
C137 C 0.3084(3) 0.0182(4) 0.8508(4)
H134 H 0.3220 0.0319 0.8300
H135 H 0.2808 0.0169 0.8448
C138 C 0.3144(2) 0.0402(3) 0.8897(2)
C139 C 0.2842(2) 0.0555(2) 0.9132(3)
C140 C 0.3044(2) 0.0736(3) 0.9436(3)
C141 C 0.2879(3) 0.0928(4) 0.9804(3)
H137 H 0.2662 0.0774 0.9901
H138 H 0.2789 0.1189 0.9742
C142 C 0.2352(2) 0.1327(3) 0.8952(4)
H140 H 0.2195 0.1464 0.8760
H141 H 0.2622 0.1322 0.8866
H142 H 0.2335 0.1462 0.9201
C143 C 0.2207(2) 0.0922(2) 0.8996(3)
C144 C 0.2418(2) 0.0587(2) 0.9083(2)
C145 C 0.2128(2) 0.0284(2) 0.9093(3)
C147 C 0.0520(3) 0.1625(3) 0.9092(4)
H146 H 0.0622 0.1740 0.9329
H147 H 0.0247 0.1694 0.9062
H148 H 0.0666 0.1721 0.8869
C148 C 0.0558(2) 0.1189(2) 0.9113(2)
C149 C 0.0273(2) 0.0915(2) 0.9237(2)
C150 C 0.0459(2) 0.0562(2) 0.9198(2)
C151 C 0.0282(3) 0.0147(3) 0.9265(4)
H151 H 0.0377 0.0042 0.9510
H153 H 0.0132 0.1519 0.9987
N47 N 0.06445(16) 0.61614(19) 0.52435(18)
N48 N 0.0768(2) 0.6039(4) 0.5593(2)
H166 H 0.1012 0.6024 0.5659
H183 H 0.0001 0.5165 0.5727
C186 C 0.0009(3) 0.6289(5) 0.4927(3)
H185 H 0.0179 0.6358 0.4711
C187 C 0.02520(19) 0.6132(2) 0.5261(2)
C188 C 0.0131(2) 0.5999(3) 0.5626(2)
C189 C 0.0476(3) 0.5944(4) 0.5826(3)
C190 C 0.0538(4) 0.5727(6) 0.6210(4)
H188 H 0.0812 0.5734 0.6280
H189 H 0.0455 0.5457 0.6181
H190 H 0.0385 0.5850 0.6414
Co19 Co 0.10385(3) 0.62447(3) 0.48004(3)
Co20 Co 0.39615(3) 0.37553(3) 0.98004(3)
Co25 Co 0.14025(3) 0.1250 0.89025(3)
Co29 Co 0.39085(3) 0.09479(3) 0.96312(3)
Co35 Co 0.46490(5) 0.03510(5) 0.96490(5)
N52 N 0.4302(2) 0.06152(19) 0.84407(17)
O35 O 0.43250(12) 0.06750(12) 0.93250(12)
C16 C 0.0073(3) 0.9991(3) 0.1289(5)
H20 H 0.0289 0.9821 0.1358
Co5 Co 0.01996(3) 0.89615(3) 0.12447(3)
Co6 Co 0.1250 0.89025(3) 0.14025(3)
Co7 Co 0.03688(3) 0.89085(3) 0.40521(3)
Co8 Co 0.03510(5) 0.96490(5) 0.46490(5)
N9 N 0.04863(19) 0.90377(18) 0.34954(18)
N10 N 0.0698(2) 0.93848(19) 0.34407(17)
N11 N 0.08422(18) 0.89812(19) 0.18205(17)
N12 N 0.04501(18) 0.90397(17) 0.17671(16)
N13 N 0.09972(19) 0.90170(17) 0.08900(17)
N14 N 0.05933(19) 0.90662(18) 0.08322(17)
C35 C 0.0182(4) 0.8508(4) 0.3084(3)
H35 H 0.0319 0.8300 0.3220
H36 H 0.0169 0.8448 0.2808
C36 C 0.0402(3) 0.8897(2) 0.3144(2)
C37 C 0.0555(2) 0.9132(3) 0.2842(2)
C38 C 0.0736(3) 0.9436(3) 0.3044(2)
C39 C 0.0928(4) 0.9804(3) 0.2879(3)
H38 H 0.0774 0.9901 0.2662
H39 H 0.1189 0.9742 0.2789
C40 C 0.1327(3) 0.8952(4) 0.2352(2)
H41 H 0.1464 0.8760 0.2195
H42 H 0.1322 0.8866 0.2622
H43 H 0.1462 0.9201 0.2335
C41 C 0.0922(2) 0.8996(3) 0.2207(2)
C42 C 0.0587(2) 0.9083(2) 0.2418(2)
C43 C 0.0284(2) 0.9093(3) 0.2128(2)
C45 C 0.1625(3) 0.9092(4) 0.0520(3)
H47 H 0.1740 0.9329 0.0622
H48 H 0.1694 0.9062 0.0247
H49 H 0.1721 0.8869 0.0666
C46 C 0.1189(2) 0.9113(2) 0.0558(2)
C47 C 0.0915(2) 0.9237(2) 0.0273(2)
C48 C 0.0562(2) 0.9198(2) 0.0459(2)
C49 C 0.0147(3) 0.9265(4) 0.0282(3)
H52 H 0.0042 0.9510 0.0377
H54 H 0.1519 0.9987 0.0132
O10 O 0.06750(12) 0.93250(12) 0.43250(12)
Co28 Co 0.10915(3) 0.90521(3) 0.46312(3)
Co32 Co 0.09479(3) 0.96312(3) 0.39085(3)
N49 N 0.06152(19) 0.84407(17) 0.4302(2)
N56 N 0.16578(18) 0.93205(17) 0.14812(19)
N59 N 0.15028(19) 0.83900(17) 0.15170(17)
O27 O 0.0557(4) 0.9562(4) 0.5169(3)
N15 N 0.11614(19) 0.97565(18) 0.93555(16)
N16 N 0.1039(4) 0.9407(2) 0.9232(2)
H34 H 0.1024 0.9341 0.8988
H51 H 0.0165 0.9273 0.9999
C51 C 0.1132(2) 0.9739(2) 0.97480(19)
C52 C 0.0999(3) 0.9374(2) 0.9869(2)
C53 C 0.0944(4) 0.9174(3) 0.9524(3)
C54 C 0.0727(6) 0.8790(4) 0.9462(4)
H56 H 0.0734 0.8720 0.9188
H57 H 0.0457 0.8819 0.9545
H58 H 0.0850 0.8586 0.9615
H136 H 0.3188 0.9919 0.8531
C146 C 0.2169(3) 0.9860(3) 0.9173(4)
H143 H 0.1944 0.9770 0.9319
H144 H 0.2405 0.9815 0.9323
H145 H 0.2185 0.9720 0.8927
H149 H 0.0359 0.9976 0.9052
C157 C 0.4355(6) 0.9657(3) 0.9130(6)
C158 C 0.4391(4) 0.9207(3) 0.9072(5)
C159 C 0.4551(5) 0.8981(4) 0.9374(5)
H158 H 0.4635 0.9098 0.9607
C160 C 0.4582(5) 0.8574(4) 0.9319(6)
H159 H 0.4689 0.8424 0.9522
C161 C 0.4462(5) 0.8379(4) 0.8975(5)
C162 C 0.4305(5) 0.8617(3) 0.8684(5)
H160 H 0.4221 0.8500 0.8450
C163 C 0.4266(5) 0.9031(3) 0.8724(5)
H161 H 0.4159 0.9181 0.8521
C164 C 0.4520(4) 0.7991(3) 0.8880(5)
C165 C 0.4234(4) 0.7719(3) 0.8981(5)
H162 H 0.3993 0.7822 0.9063
C166 C 0.4264(4) 0.7312(3) 0.8974(5)
H163 H 0.4052 0.7154 0.9048
C167 C 0.4616(4) 0.7145(4) 0.8854(5)
C168 C 0.4917(4) 0.7392(3) 0.8748(5)
H164 H 0.5159 0.7293 0.8665
C169 C 0.4850(4) 0.7794(3) 0.8768(5)
H165 H 0.5062 0.7952 0.8695
C170 C 0.4716(3) 0.6721(3) 0.8894(2)
O19 O 0.4159(3) 0.9820(2) 0.8908(3)
O20 O 0.4562(4) 0.9831(3) 0.9443(4)
O21 O 0.4999(2) 0.65686(16) 0.8777(3)
O22 O 0.4490(4) 0.6518(3) 0.9061(4)
Co21 Co 0.51996(3) 0.60385(3) 0.87553(3)
O30 O 0.1223(3) 0.9999(2) 0.84314(16)
Co1 Co 0.89615(3) 0.12447(3) 0.01996(3)
Co2 Co 0.89025(3) 0.14025(3) 0.1250
Co3 Co 0.89085(3) 0.40521(3) 0.03688(3)
Co4 Co 0.96490(5) 0.46490(5) 0.03510(5)
N1 N 0.90377(18) 0.34954(18) 0.04863(19)
N2 N 0.93848(19) 0.34407(17) 0.0698(2)
N3 N 0.89812(19) 0.18205(17) 0.08422(18)
N4 N 0.90397(17) 0.17671(16) 0.04501(18)
N5 N 0.90170(17) 0.08900(17) 0.09972(19)
N6 N 0.90662(18) 0.08322(17) 0.05933(19)
C1 C 0.8508(4) 0.3084(3) 0.0182(4)
H2 H 0.8300 0.3220 0.0319
H3 H 0.8448 0.2808 0.0169
C2 C 0.8897(2) 0.3144(2) 0.0402(3)
C3 C 0.9132(3) 0.2842(2) 0.0555(2)
C4 C 0.9436(3) 0.3044(2) 0.0736(3)
C5 C 0.9804(3) 0.2879(3) 0.0928(4)
H5 H 0.9901 0.2662 0.0774
H6 H 0.9742 0.2789 0.1189
C6 C 0.8952(4) 0.2352(2) 0.1327(3)
H8 H 0.8760 0.2195 0.1464
H9 H 0.8866 0.2622 0.1322
H10 H 0.9201 0.2335 0.1462
C7 C 0.8996(3) 0.2207(2) 0.0922(2)
C8 C 0.9083(2) 0.2418(2) 0.0587(2)
C9 C 0.9093(3) 0.2128(2) 0.0284(2)
C11 C 0.9092(4) 0.0520(3) 0.1625(3)
H14 H 0.9329 0.0622 0.1740
H15 H 0.9062 0.0247 0.1694
H16 H 0.8869 0.0666 0.1721
C12 C 0.9113(2) 0.0558(2) 0.1189(2)
C13 C 0.9237(2) 0.0273(2) 0.0915(2)
C14 C 0.9198(2) 0.0459(2) 0.0562(2)
C15 C 0.9265(4) 0.0282(3) 0.0147(3)
H19 H 0.9510 0.0377 0.0042
H21 H 0.9987 0.0132 0.1519
O5 O 0.93250(12) 0.43250(12) 0.06750(12)
H98 H 0.7707 0.1335 0.0159
H99 H 0.7048 0.1305 0.0062
Co12 Co 0.98004(3) 0.39615(3) 0.37553(3)
Co13 Co 0.96312(3) 0.39085(3) 0.09479(3)
N25 N 0.95137(19) 0.40377(18) 0.15046(18)
N26 N 0.9302(2) 0.43848(19) 0.15593(17)
N27 N 0.91578(18) 0.39812(19) 0.31795(17)
N28 N 0.95499(18) 0.40397(17) 0.32329(16)
N29 N 0.90028(19) 0.40170(17) 0.41100(17)
N30 N 0.94067(19) 0.40662(18) 0.41678(17)
N31 N 0.88386(19) 0.47565(18) 0.56445(16)
N32 N 0.8961(4) 0.4407(2) 0.5768(2)
H100 H 0.8976 0.4341 0.6012
C103 C 0.9818(4) 0.3508(4) 0.1916(3)
H101 H 0.9681 0.3300 0.1780
H102 H 0.9831 0.3448 0.2192
C104 C 0.9598(3) 0.3897(2) 0.1856(2)
C105 C 0.9445(2) 0.4132(3) 0.2158(2)
C106 C 0.9264(3) 0.4436(3) 0.1956(2)
C107 C 0.9072(4) 0.4804(3) 0.2121(3)
H104 H 0.9226 0.4901 0.2338
H105 H 0.8811 0.4742 0.2211
H106 H 0.9057 0.5002 0.1919
C108 C 0.8673(3) 0.3952(4) 0.2648(2)
H107 H 0.8536 0.3760 0.2805
H108 H 0.8678 0.3866 0.2378
H109 H 0.8538 0.4201 0.2665
C109 C 0.9078(2) 0.3996(3) 0.2793(2)
C110 C 0.9413(2) 0.4083(2) 0.2582(2)
C111 C 0.9716(2) 0.4093(3) 0.2872(2)
C113 C 0.8375(3) 0.4092(4) 0.4480(3)
H113 H 0.8260 0.4329 0.4378
H114 H 0.8306 0.4062 0.4753
H115 H 0.8279 0.3869 0.4334
C114 C 0.8811(2) 0.4113(2) 0.4442(2)
C115 C 0.9085(2) 0.4237(2) 0.4727(2)
C116 C 0.9438(2) 0.4198(2) 0.4541(2)
C117 C 0.9853(3) 0.4265(4) 0.4718(3)
H117 H 0.9835 0.4273 0.5001
H118 H 0.9958 0.4510 0.4623
C118 C 0.8711(5) 0.5073(3) 0.5009(3)
H119 H 0.8642 0.5289 0.5179
H120 H 0.8481 0.4987 0.4868
H121 H 0.8909 0.5157 0.4825
C119 C 0.8868(2) 0.4739(2) 0.52520(19)
C120 C 0.9001(3) 0.4374(2) 0.5131(2)
C121 C 0.9056(4) 0.4174(3) 0.5476(3)
C122 C 0.9273(6) 0.3790(4) 0.5538(4)
H122 H 0.9266 0.3720 0.5812
H123 H 0.9543 0.3819 0.5455
H124 H 0.9150 0.3586 0.5385
C152 C 0.9991(3) 0.1289(5) 0.0073(3)
H152 H 0.9821 0.1358 0.0289
Co22 Co 0.87553(3) 0.51996(3) 0.60385(3)
Co24 Co 0.8750 0.39025(3) 0.35975(3)
Co31 Co 0.90521(3) 0.46312(3) 0.10915(3)
N53 N 0.84407(17) 0.4302(2) 0.06152(19)
N54 N 0.93205(17) 0.14812(19) 0.16578(18)
N57 N 0.83900(17) 0.15170(17) 0.15028(19)
O28 O 0.9562(4) 0.5169(3) 0.0557(4)
H4 H 0.8531 0.3188 0.9919
C10 C 0.9173(4) 0.2169(3) 0.9860(3)
H11 H 0.9319 0.1944 0.9770
H12 H 0.9323 0.2405 0.9815
H13 H 0.8927 0.2185 0.9720
H17 H 0.9052 0.0359 0.9976
C21 C 0.9130(6) 0.4355(6) 0.9657(3)
C22 C 0.9072(5) 0.4391(4) 0.9207(3)
C23 C 0.9374(5) 0.4551(5) 0.8981(4)
H26 H 0.9607 0.4635 0.9098
C24 C 0.9319(6) 0.4582(5) 0.8574(4)
H27 H 0.9522 0.4689 0.8424
C25 C 0.8975(5) 0.4462(5) 0.8379(4)
C26 C 0.8684(5) 0.4305(5) 0.8617(3)
H28 H 0.8450 0.4221 0.8500
C27 C 0.8724(5) 0.4266(5) 0.9031(3)
H29 H 0.8521 0.4159 0.9181
C28 C 0.8880(5) 0.4520(4) 0.7991(3)
C29 C 0.8981(5) 0.4234(4) 0.7719(3)
H30 H 0.9063 0.3993 0.7822
C30 C 0.8974(5) 0.4264(4) 0.7312(3)
H31 H 0.9048 0.4052 0.7154
C31 C 0.8854(5) 0.4616(4) 0.7145(4)
C32 C 0.8748(5) 0.4917(4) 0.7392(3)
H32 H 0.8665 0.5159 0.7293
C33 C 0.8768(5) 0.4850(4) 0.7794(3)
H33 H 0.8695 0.5062 0.7952
C34 C 0.8894(2) 0.4716(3) 0.6721(3)
O1 O 0.8908(3) 0.4159(3) 0.9820(2)
O2 O 0.9443(4) 0.4562(4) 0.9831(3)
O3 O 0.8777(3) 0.4999(2) 0.65686(16)
O4 O 0.9061(4) 0.4490(4) 0.6518(3)
Co9 Co 0.48004(3) 0.10385(3) 0.62447(3)
Co10 Co 0.3750 0.10975(3) 0.64025(3)
Co11 Co 0.46312(3) 0.10915(3) 0.90521(3)
N17 N 0.45137(19) 0.09623(18) 0.84954(18)
N19 N 0.41578(18) 0.10188(19) 0.68205(17)
N20 N 0.45499(18) 0.09603(17) 0.67671(16)
N21 N 0.40028(19) 0.09830(17) 0.58900(17)
N22 N 0.44067(19) 0.09338(18) 0.58322(17)
N23 N 0.38386(19) 0.02435(18) 0.43555(16)
N24 N 0.3961(4) 0.0593(2) 0.4232(2)
H67 H 0.3976 0.0659 0.3988
C69 C 0.4818(4) 0.1492(4) 0.8084(3)
H68 H 0.4681 0.1700 0.8220
H69 H 0.4831 0.1552 0.7808
H70 H 0.5081 0.1469 0.8188
C70 C 0.4598(3) 0.1103(2) 0.8144(2)
C71 C 0.4445(2) 0.0868(3) 0.7842(2)
C72 C 0.4264(3) 0.0564(3) 0.8044(2)
C73 C 0.4072(4) 0.0196(3) 0.7879(3)
H71 H 0.4226 0.0099 0.7662
H72 H 0.3811 0.0258 0.7789
C74 C 0.3673(3) 0.1048(4) 0.7352(2)
H74 H 0.3536 0.1240 0.7195
H75 H 0.3678 0.1134 0.7622
H76 H 0.3538 0.0799 0.7335
C75 C 0.4078(2) 0.1004(3) 0.7207(2)
C76 C 0.4413(2) 0.0917(2) 0.7418(2)
C77 C 0.4716(2) 0.0907(3) 0.7128(2)
C78 C 0.5140(3) 0.0827(4) 0.7169(3)
H77 H 0.5230 0.0681 0.6944
H78 H 0.5185 0.0677 0.7405
H79 H 0.5280 0.1073 0.7185
C79 C 0.3375(3) 0.0908(4) 0.5520(3)
H80 H 0.3260 0.0671 0.5622
H81 H 0.3306 0.0938 0.5247
H82 H 0.3279 0.1131 0.5666
C80 C 0.3811(2) 0.0887(2) 0.5558(2)
C81 C 0.4085(2) 0.0763(2) 0.5273(2)
C82 C 0.4438(2) 0.0802(2) 0.5459(2)
C83 C 0.4853(3) 0.0735(4) 0.5282(3)
H83 H 0.5024 0.0948 0.5359
H84 H 0.4835 0.0727 0.4999
H85 H 0.4958 0.0490 0.5377
H87 H 0.3481 0.0013 0.5132
C85 C 0.3868(2) 0.0261(2) 0.47480(19)
C86 C 0.4001(3) 0.0626(2) 0.4869(2)
C87 C 0.4056(4) 0.0826(3) 0.4524(3)
C88 C 0.4273(6) 0.1210(4) 0.4462(4)
H89 H 0.4266 0.1280 0.4188
H90 H 0.4543 0.1181 0.4545
H91 H 0.4150 0.1414 0.4615
C89 C 0.5343(3) 0.0870(6) 0.9355(6)
C90 C 0.5793(3) 0.0928(5) 0.9391(4)
C91 C 0.6019(4) 0.0626(5) 0.9551(5)
H92 H 0.5902 0.0393 0.9635
C92 C 0.6426(4) 0.0681(6) 0.9582(5)
H93 H 0.6576 0.0478 0.9689
C93 C 0.6621(4) 0.1025(5) 0.9462(5)
C94 C 0.6383(3) 0.1316(5) 0.9305(5)
H94 H 0.6500 0.1550 0.9221
C95 C 0.5969(3) 0.1276(5) 0.9266(5)
H95 H 0.5819 0.1479 0.9159
C96 C 0.7009(3) 0.1120(5) 0.9520(4)
C97 C 0.7281(3) 0.1019(5) 0.9234(4)
H96 H 0.7178 0.0937 0.8993
C98 C 0.7688(3) 0.1026(5) 0.9264(4)
H97 H 0.7846 0.0952 0.9052
C99 C 0.7855(4) 0.1146(5) 0.9616(4)
C100 C 0.7608(3) 0.1252(5) 0.9917(4)
C101 C 0.7206(3) 0.1232(5) 0.9850(4)
C102 C 0.8279(3) 0.1106(2) 0.9716(3)
O11 O 0.5180(2) 0.1092(3) 0.9159(3)
O12 O 0.5169(3) 0.0557(4) 0.9562(4)
O13 O 0.84314(16) 0.1223(3) 0.9999(2)
O14 O 0.8482(3) 0.0939(4) 0.9490(4)
N39 N 0.93555(16) 0.11614(19) 0.97565(18)
N40 N 0.9232(2) 0.1039(4) 0.9407(2)
H133 H 0.8988 0.1024 0.9341
H150 H 0.9999 0.0165 0.9273
C153 C 0.97480(19) 0.1132(2) 0.9739(2)
C154 C 0.9869(2) 0.0999(3) 0.9374(2)
C155 C 0.9524(3) 0.0944(4) 0.9174(3)
C156 C 0.9462(4) 0.0727(6) 0.8790(4)
H155 H 0.9188 0.0734 0.8720
H156 H 0.9545 0.0457 0.8819
H157 H 0.9615 0.0850 0.8586
Co17 Co 0.59479(3) 0.53688(3) 0.60915(3)
N41 N 0.65046(18) 0.54863(19) 0.59623(18)
N42 N 0.65593(17) 0.5698(2) 0.56152(19)
N43 N 0.81795(17) 0.58422(18) 0.60188(19)
N44 N 0.82329(16) 0.54501(18) 0.59603(17)
N45 N 0.91100(17) 0.59972(19) 0.59830(17)
N46 N 0.91678(17) 0.55933(19) 0.59338(18)
C171 C 0.6916(3) 0.5182(4) 0.6492(4)
H167 H 0.6780 0.5319 0.6700
H168 H 0.7192 0.5169 0.6552
H169 H 0.6812 0.4919 0.6469
C172 C 0.6856(2) 0.5402(3) 0.6103(2)
C173 C 0.7158(2) 0.5555(2) 0.5868(3)
C174 C 0.6956(2) 0.5736(3) 0.5564(3)
C175 C 0.7121(3) 0.5928(4) 0.5196(3)
H170 H 0.7338 0.5774 0.5099
H171 H 0.7211 0.6189 0.5258
H172 H 0.6919 0.5943 0.4998
C176 C 0.7648(2) 0.6327(3) 0.6048(4)
H173 H 0.7805 0.6464 0.6240
H174 H 0.7378 0.6322 0.6134
H175 H 0.7665 0.6462 0.5799
C177 C 0.7793(2) 0.5922(2) 0.6004(3)
C178 C 0.7582(2) 0.5587(2) 0.5917(2)
C179 C 0.7872(2) 0.5284(2) 0.5907(3)
C180 C 0.7831(3) 0.4860(3) 0.5827(4)
H176 H 0.8056 0.4770 0.5681
H177 H 0.7595 0.4815 0.5677
H178 H 0.7815 0.4720 0.6073
C181 C 0.9480(3) 0.6625(3) 0.5908(4)
H179 H 0.9378 0.6740 0.5671
H180 H 0.9753 0.6694 0.5938
H181 H 0.9334 0.6721 0.6131
C182 C 0.9442(2) 0.6189(2) 0.5887(2)
C183 C 0.9727(2) 0.5915(2) 0.5763(2)
C184 C 0.9541(2) 0.5562(2) 0.5802(2)
C185 C 0.9718(3) 0.5147(3) 0.5735(4)
H182 H 0.9641 0.4976 0.5948
H184 H 0.9623 0.5042 0.5490
H186 H 0.9868 0.6519 0.5013
H187 H 0.9825 0.6091 0.4843
C191 C 0.5645(6) 0.4657(3) 0.5870(6)
C192 C 0.5609(4) 0.4207(3) 0.5928(5)
C193 C 0.5449(5) 0.3981(4) 0.5626(5)
H191 H 0.5365 0.4098 0.5393
C194 C 0.5418(5) 0.3574(4) 0.5681(6)
H192 H 0.5311 0.3424 0.5478
C195 C 0.5538(5) 0.3379(4) 0.6025(5)
C196 C 0.5695(5) 0.3617(3) 0.6316(5)
H193 H 0.5779 0.3500 0.6550
C197 C 0.5734(5) 0.4031(3) 0.6276(5)
H194 H 0.5841 0.4181 0.6479
C198 C 0.5480(4) 0.2991(3) 0.6120(5)
C199 C 0.5766(4) 0.2719(3) 0.6019(5)
H195 H 0.6007 0.2822 0.5937
C200 C 0.5736(4) 0.2312(3) 0.6026(5)
H196 H 0.5948 0.2154 0.5952
C201 C 0.5384(4) 0.2145(4) 0.6146(5)
C202 C 0.5083(4) 0.2392(3) 0.6252(5)
H197 H 0.4841 0.2293 0.6335
C203 C 0.5150(4) 0.2794(3) 0.6232(5)
H198 H 0.4938 0.2952 0.6305
C204 C 0.5284(3) 0.1721(3) 0.6106(2)
O23 O 0.5841(3) 0.4820(2) 0.6092(3)
O24 O 0.5438(4) 0.4831(3) 0.5557(4)
O25 O 0.5001(2) 0.15686(16) 0.6223(3)
O26 O 0.5510(4) 0.1518(3) 0.5939(4)
Co26 Co 0.85975(3) 0.6250 0.60975(3)
Co27 Co 0.60915(3) 0.59479(3) 0.53688(3)
Co33 Co 0.53510(5) 0.53510(5) 0.53510(5)
N50 N 0.43848(19) 0.15593(17) 0.9302(2)
N51 N 0.5698(2) 0.56152(19) 0.65593(17)
N55 N 0.33422(18) 0.06795(17) 0.64812(19)
N58 N 0.34972(19) 0.16100(17) 0.65170(17)
N60 N 0.52435(18) 0.06445(16) 0.61614(19)
O33 O 0.56750(12) 0.56750(12) 0.56750(12)
N7 N 0.97565(18) 0.93555(16) 0.11614(19)
N8 N 0.9407(2) 0.9232(2) 0.1039(4)
H1 H 0.9341 0.8988 0.1024
H18 H 0.9273 0.9999 0.0165
C17 C 0.9739(2) 0.97480(19) 0.1132(2)
C18 C 0.9374(2) 0.9869(2) 0.0999(3)
C19 C 0.9174(3) 0.9524(3) 0.0944(4)
C20 C 0.8790(4) 0.9462(4) 0.0727(6)
H23 H 0.8720 0.9188 0.0734
H24 H 0.8819 0.9545 0.0457
H25 H 0.8586 0.9615 0.0850
H37 H 0.9919 0.8531 0.3188
C44 C 0.9860(3) 0.9173(4) 0.2169(3)
H44 H 0.9770 0.9319 0.1944
H45 H 0.9815 0.9323 0.2405
H46 H 0.9720 0.8927 0.2185
H50 H 0.9976 0.9052 0.0359
C55 C 0.9657(3) 0.9130(6) 0.4355(6)
C56 C 0.9207(3) 0.9072(5) 0.4391(4)
C57 C 0.8981(4) 0.9374(5) 0.4551(5)
H59 H 0.9098 0.9607 0.4635
C58 C 0.8574(4) 0.9319(6) 0.4582(5)
H60 H 0.8424 0.9522 0.4689
C59 C 0.8379(4) 0.8975(5) 0.4462(5)
C60 C 0.8617(3) 0.8684(5) 0.4305(5)
H61 H 0.8500 0.8450 0.4221
C61 C 0.9031(3) 0.8724(5) 0.4266(5)
H62 H 0.9181 0.8521 0.4159
C62 C 0.7991(3) 0.8880(5) 0.4520(4)
C63 C 0.7719(3) 0.8981(5) 0.4234(4)
H63 H 0.7822 0.9063 0.3993
C64 C 0.7312(3) 0.8974(5) 0.4264(4)
H64 H 0.7154 0.9048 0.4052
C65 C 0.7145(4) 0.8854(5) 0.4616(4)
C66 C 0.7392(3) 0.8748(5) 0.4917(4)
H65 H 0.7293 0.8665 0.5159
C67 C 0.7794(3) 0.8768(5) 0.4850(4)
H66 H 0.7952 0.8695 0.5062
C68 C 0.6721(3) 0.8894(2) 0.4716(3)
O6 O 0.9820(2) 0.8908(3) 0.4159(3)
O7 O 0.9831(3) 0.9443(4) 0.4562(4)
O8 O 0.65686(16) 0.8777(3) 0.4999(2)
O9 O 0.6518(3) 0.9061(4) 0.4490(4)
Co18 Co 0.60385(3) 0.87553(3) 0.51996(3)
O31 O 0.9999(2) 0.84314(16) 0.1223(3)
H73 H 0.4057 0.9998 0.8081
C84 C 0.3711(5) 0.9927(3) 0.4991(3)
H86 H 0.3642 0.9711 0.4821
H88 H 0.3909 0.9843 0.5175
Co23 Co 0.37553(3) 0.98004(3) 0.39615(3)
H197_2 H 0.0159 0.7707 0.1335
H198_2 H 0.0062 0.7048 0.1305
O27_2 O 0.4443(4) 0.0438(4) 0.0169(3)
N8_2 N 0.5593(2) 0.0768(2) 0.6039(4)
H1_2 H 0.5659 0.1012 0.6024
H18_2 H 0.5727 0.0001 0.5165
C16_2 C 0.4927(3) 0.0009(3) 0.6289(5)
H20_2 H 0.4711 0.0179 0.6358
C17_2 C 0.5261(2) 0.02520(19) 0.6132(2)
C18_2 C 0.5626(2) 0.0131(2) 0.5999(3)
C19_2 C 0.5826(3) 0.0476(3) 0.5944(4)
C20_2 C 0.6210(4) 0.0538(4) 0.5727(6)
H23_2 H 0.6280 0.0812 0.5734
H24_2 H 0.6181 0.0455 0.5457
H25_2 H 0.6414 0.0385 0.5850
H136_2 H 0.1812 0.0081 0.3531
C146_2 C 0.2831(3) 0.0140(3) 0.4173(4)
H143_2 H 0.3056 0.0230 0.4319
H144_2 H 0.2595 0.0185 0.4323
H145_2 H 0.2815 0.0280 0.3927
H149_2 H 0.4641 0.0024 0.4052
C157_2 C 0.0645(6) 0.0343(3) 0.4130(6)
C158_2 C 0.0609(4) 0.0793(3) 0.4072(5)
C159_2 C 0.0449(5) 0.1019(4) 0.4374(5)
H158_2 H 0.0365 0.0902 0.4607
C160_2 C 0.0418(5) 0.1426(4) 0.4319(6)
H159_2 H 0.0311 0.1576 0.4522
C161_2 C 0.0538(5) 0.1621(4) 0.3975(5)
C162_2 C 0.0695(5) 0.1383(3) 0.3684(5)
H160_2 H 0.0779 0.1500 0.3450
C163_2 C 0.0734(5) 0.0969(3) 0.3724(5)
H161_2 H 0.0841 0.0819 0.3521
C164_2 C 0.0480(4) 0.2009(3) 0.3880(5)
C165_2 C 0.0766(4) 0.2281(3) 0.3981(5)
H162_2 H 0.1007 0.2178 0.4063
C166_2 C 0.0736(4) 0.2688(3) 0.3974(5)
H163_2 H 0.0948 0.2846 0.4048
C167_2 C 0.0384(4) 0.2855(4) 0.3854(5)
C168_2 C 0.0083(4) 0.2608(3) 0.3748(5)
C169_2 C 0.0150(4) 0.2206(3) 0.3768(5)
C170_2 C 0.0284(3) 0.3279(3) 0.3894(2)
O19_2 O 0.0841(3) 0.0180(2) 0.3908(3)
O22_2 O 0.0510(4) 0.3482(3) 0.4061(4)
O30_2 O 0.3777(3) 0.0001(2) 0.34314(16)
N31_2 N 0.61614(19) 0.52435(18) 0.06445(16)
N32_2 N 0.6039(4) 0.5593(2) 0.0768(2)
H100_2 H 0.6024 0.5659 0.1012
H117_2 H 0.5165 0.5727 0.0001
C118_2 C 0.6289(5) 0.4927(3) 0.0009(3)
H119_2 H 0.6358 0.4711 0.0179
C119_2 C 0.6132(2) 0.5261(2) 0.02520(19)
C120_2 C 0.5999(3) 0.5626(2) 0.0131(2)
C121_2 C 0.5944(4) 0.5826(3) 0.0476(3)
C122_2 C 0.5727(6) 0.6210(4) 0.0538(4)
H122_2 H 0.5734 0.6280 0.0812
H123_2 H 0.5457 0.6181 0.0455
H124_2 H 0.5850 0.6414 0.0385
Co22_2 Co 0.62447(3) 0.48004(3) 0.10385(3)
Co2_2 Co 0.60975(3) 0.85975(3) 0.6250
N1_2 N 0.59623(18) 0.65046(18) 0.54863(19)
N2_2 N 0.56152(19) 0.65593(17) 0.5698(2)
N3_2 N 0.60188(19) 0.81795(17) 0.58422(18)
N4_2 N 0.59603(17) 0.82329(16) 0.54501(18)
N5_2 N 0.59830(17) 0.91100(17) 0.59972(19)
N6_2 N 0.59338(18) 0.91678(17) 0.55933(19)
C1_2 C 0.6492(4) 0.6916(3) 0.5182(4)
H2_2 H 0.6700 0.6780 0.5319
H3_2 H 0.6552 0.7192 0.5169
H4_2 H 0.6469 0.6812 0.4919
C2_2 C 0.6103(2) 0.6856(2) 0.5402(3)
C3_2 C 0.5868(3) 0.7158(2) 0.5555(2)
C4_2 C 0.5564(3) 0.6956(2) 0.5736(3)
C5_2 C 0.5196(3) 0.7121(3) 0.5928(4)
H5_2 H 0.5099 0.7338 0.5774
H6_2 H 0.5258 0.7211 0.6189
H7_2 H 0.4998 0.6919 0.5943
C6_2 C 0.6048(4) 0.7648(2) 0.6327(3)
H8_2 H 0.6240 0.7805 0.6464
H9_2 H 0.6134 0.7378 0.6322
H10_2 H 0.5799 0.7665 0.6462
C7_2 C 0.6004(3) 0.7793(2) 0.5922(2)
C8_2 C 0.5917(2) 0.7582(2) 0.5587(2)
C9_2 C 0.5907(3) 0.7872(2) 0.5284(2)
C10_2 C 0.5827(4) 0.7831(3) 0.4860(3)
H11_2 H 0.5681 0.8056 0.4770
H12_2 H 0.5677 0.7595 0.4815
H13_2 H 0.6073 0.7815 0.4720
C11_2 C 0.5908(4) 0.9480(3) 0.6625(3)
H14_2 H 0.5671 0.9378 0.6740
H15_2 H 0.5938 0.9753 0.6694
H16_2 H 0.6131 0.9334 0.6721
C12_2 C 0.5887(2) 0.9442(2) 0.6189(2)
C13_2 C 0.5763(2) 0.9727(2) 0.5915(2)
C14_2 C 0.5802(2) 0.9541(2) 0.5562(2)
C15_2 C 0.5735(4) 0.9718(3) 0.5147(3)
H17_2 H 0.5948 0.9641 0.4976
H19_2 H 0.5490 0.9623 0.5042
H21_2 H 0.5013 0.9868 0.6519
H22_2 H 0.4843 0.9825 0.6091
C21_2 C 0.5870(6) 0.5645(6) 0.4657(3)
C22_2 C 0.5928(5) 0.5609(4) 0.4207(3)
C23_2 C 0.5626(5) 0.5449(5) 0.3981(4)
H26_2 H 0.5393 0.5365 0.4098
C24_2 C 0.5681(6) 0.5418(5) 0.3574(4)
H27_2 H 0.5478 0.5311 0.3424
C25_2 C 0.6025(5) 0.5538(5) 0.3379(4)
C26_2 C 0.6316(5) 0.5695(5) 0.3617(3)
H28_2 H 0.6550 0.5779 0.3500
C27_2 C 0.6276(5) 0.5734(5) 0.4031(3)
H29_2 H 0.6479 0.5841 0.4181
C28_2 C 0.6120(5) 0.5480(4) 0.2991(3)
C29_2 C 0.6019(5) 0.5766(4) 0.2719(3)
H30_2 H 0.5937 0.6007 0.2822
C30_2 C 0.6026(5) 0.5736(4) 0.2312(3)
H31_2 H 0.5952 0.5948 0.2154
C31_2 C 0.6146(5) 0.5384(4) 0.2145(4)
C32_2 C 0.6252(5) 0.5083(4) 0.2392(3)
H32_2 H 0.6335 0.4841 0.2293
C33_2 C 0.6232(5) 0.5150(4) 0.2794(3)
H33_2 H 0.6305 0.4938 0.2952
C34_2 C 0.6106(2) 0.5284(3) 0.1721(3)
O1_2 O 0.6092(3) 0.5841(3) 0.4820(2)
O2_2 O 0.5557(4) 0.5438(4) 0.4831(3)
O3_2 O 0.6223(3) 0.5001(2) 0.15686(16)
O4_2 O 0.5939(4) 0.5510(4) 0.1518(3)
Co13_2 Co 0.53688(3) 0.60915(3) 0.59479(3)
N25_2 N 0.54863(19) 0.59623(18) 0.65046(18)
N27_2 N 0.58422(18) 0.60188(19) 0.81795(17)
N28_2 N 0.54501(18) 0.59603(17) 0.82329(16)
N29_2 N 0.59972(19) 0.59830(17) 0.91100(17)
N30_2 N 0.55933(19) 0.59338(18) 0.91678(17)
C103_2 C 0.5182(4) 0.6492(4) 0.6916(3)
H101_2 H 0.5319 0.6700 0.6780
H102_2 H 0.5169 0.6552 0.7192
H103_2 H 0.4919 0.6469 0.6812
C104_2 C 0.5402(3) 0.6103(2) 0.6856(2)
C105_2 C 0.5555(2) 0.5868(3) 0.7158(2)
C106_2 C 0.5736(3) 0.5564(3) 0.6956(2)
C107_2 C 0.5928(4) 0.5196(3) 0.7121(3)
H104_2 H 0.5774 0.5099 0.7338
H105_2 H 0.6189 0.5258 0.7211
H106_2 H 0.5943 0.4998 0.6919
C108_2 C 0.6327(3) 0.6048(4) 0.7648(2)
H107_2 H 0.6464 0.6240 0.7805
H108_2 H 0.6322 0.6134 0.7378
H109_2 H 0.6462 0.5799 0.7665
C109_2 C 0.5922(2) 0.6004(3) 0.7793(2)
C110_2 C 0.5587(2) 0.5917(2) 0.7582(2)
C111_2 C 0.5284(2) 0.5907(3) 0.7872(2)
C112_2 C 0.4860(3) 0.5827(4) 0.7831(3)
H110_2 H 0.4770 0.5681 0.8056
H111_2 H 0.4815 0.5677 0.7595
H112_2 H 0.4720 0.6073 0.7815
C113_2 C 0.6625(3) 0.5908(4) 0.9480(3)
H113_2 H 0.6740 0.5671 0.9378
H114_2 H 0.6694 0.5938 0.9753
H115_2 H 0.6721 0.6131 0.9334
C114_2 C 0.6189(2) 0.5887(2) 0.9442(2)
C115_2 C 0.5915(2) 0.5763(2) 0.9727(2)
C116_2 C 0.5562(2) 0.5802(2) 0.9541(2)
C117_2 C 0.5147(3) 0.5735(4) 0.9718(3)
H116_2 H 0.4976 0.5948 0.9641
H118_2 H 0.5042 0.5490 0.9623
H120_2 H 0.6519 0.5013 0.9868
H121_2 H 0.6091 0.4843 0.9825
C123_2 C 0.4657(3) 0.5870(6) 0.5645(6)
C124_2 C 0.4207(3) 0.5928(5) 0.5609(4)
C125_2 C 0.3981(4) 0.5626(5) 0.5449(5)
H125_2 H 0.4098 0.5393 0.5365
C126_2 C 0.3574(4) 0.5681(6) 0.5418(5)
H126_2 H 0.3424 0.5478 0.5311
C127_2 C 0.3379(4) 0.6025(5) 0.5538(5)
C128_2 C 0.3617(3) 0.6316(5) 0.5695(5)
H127_2 H 0.3500 0.6550 0.5779
C129_2 C 0.4031(3) 0.6276(5) 0.5734(5)
H128_2 H 0.4181 0.6479 0.5841
C130_2 C 0.2991(3) 0.6120(5) 0.5480(4)
C131_2 C 0.2719(3) 0.6019(5) 0.5766(4)
H129_2 H 0.2822 0.5937 0.6007
C132_2 C 0.2312(3) 0.6026(5) 0.5736(4)
H130_2 H 0.2154 0.5952 0.5948
C133_2 C 0.2145(4) 0.6146(5) 0.5384(4)
C134_2 C 0.2392(3) 0.6252(5) 0.5083(4)
H131_2 H 0.2293 0.6335 0.4841
C135_2 C 0.2794(3) 0.6232(5) 0.5150(4)
H132_2 H 0.2952 0.6305 0.4938
C136_2 C 0.1721(3) 0.6106(2) 0.5284(3)
O15_2 O 0.4820(2) 0.6092(3) 0.5841(3)
O16_2 O 0.4831(3) 0.5557(4) 0.5438(4)
O17_2 O 0.15686(16) 0.6223(3) 0.5001(2)
O18_2 O 0.1518(3) 0.5939(4) 0.5510(4)
N33_2 N 0.15046(18) 0.95137(19) 0.40377(18)
N34_2 N 0.15593(17) 0.9302(2) 0.43848(19)
N35_2 N 0.31795(17) 0.91578(18) 0.39812(19)
N36_2 N 0.32329(16) 0.95499(18) 0.40397(17)
N37_2 N 0.41100(17) 0.90028(19) 0.40170(17)
N38_2 N 0.41678(17) 0.94067(19) 0.40662(18)
N39_2 N 0.56445(16) 0.88386(19) 0.47565(18)
N40_2 N 0.5768(2) 0.8961(4) 0.4407(2)
H133_2 H 0.6012 0.8976 0.4341
C137_2 C 0.1916(3) 0.9818(4) 0.3508(4)
H134_2 H 0.1780 0.9681 0.3300
H135_2 H 0.2192 0.9831 0.3448
C138_2 C 0.1856(2) 0.9598(3) 0.3897(2)
C139_2 C 0.2158(2) 0.9445(2) 0.4132(3)
C140_2 C 0.1956(2) 0.9264(3) 0.4436(3)
C141_2 C 0.2121(3) 0.9072(4) 0.4804(3)
H137_2 H 0.2338 0.9226 0.4901
H138_2 H 0.2211 0.8811 0.4742
H139_2 H 0.1919 0.9057 0.5002
C142_2 C 0.2648(2) 0.8673(3) 0.3952(4)
H140_2 H 0.2805 0.8536 0.3760
H141_2 H 0.2378 0.8678 0.3866
H142_2 H 0.2665 0.8538 0.4201
C143_2 C 0.2793(2) 0.9078(2) 0.3996(3)
C144_2 C 0.2582(2) 0.9413(2) 0.4083(2)
C145_2 C 0.2872(2) 0.9716(2) 0.4093(3)
C147_2 C 0.4480(3) 0.8375(3) 0.4092(4)
H146_2 H 0.4378 0.8260 0.4329
H147_2 H 0.4753 0.8306 0.4062
H148_2 H 0.4334 0.8279 0.3869
C148_2 C 0.4442(2) 0.8811(2) 0.4113(2)
C149_2 C 0.4727(2) 0.9085(2) 0.4237(2)
C150_2 C 0.4541(2) 0.9438(2) 0.4198(2)
C151_2 C 0.4718(3) 0.9853(3) 0.4265(4)
H150_2 H 0.5001 0.9835 0.4273
H151_2 H 0.4623 0.9958 0.4510
C152_2 C 0.5009(3) 0.8711(5) 0.5073(3)
H152_2 H 0.5179 0.8642 0.5289
H153_2 H 0.4868 0.8481 0.4987
H154_2 H 0.4825 0.8909 0.5157
C153_2 C 0.52520(19) 0.8868(2) 0.4739(2)
C154_2 C 0.5131(2) 0.9001(3) 0.4374(2)
C155_2 C 0.5476(3) 0.9056(4) 0.4174(3)
C156_2 C 0.5538(4) 0.9273(6) 0.3790(4)
H155_2 H 0.5812 0.9266 0.3720
H156_2 H 0.5455 0.9543 0.3819
H157_2 H 0.5385 0.9150 0.3586
N41_2 N 0.84954(18) 0.45137(19) 0.09623(18)
N43_2 N 0.68205(17) 0.41578(18) 0.10188(19)
N44_2 N 0.67671(16) 0.45499(18) 0.09603(17)
N45_2 N 0.58900(17) 0.40028(19) 0.09830(17)
N46_2 N 0.58322(17) 0.44067(19) 0.09338(18)
N47_2 N 0.43555(16) 0.38386(19) 0.02435(18)
N48_2 N 0.4232(2) 0.3961(4) 0.0593(2)
H166_2 H 0.3988 0.3976 0.0659
C171_2 C 0.8084(3) 0.4818(4) 0.1492(4)
H167_2 H 0.8220 0.4681 0.1700
H168_2 H 0.7808 0.4831 0.1552
H169_2 H 0.8188 0.5081 0.1469
C172_2 C 0.8144(2) 0.4598(3) 0.1103(2)
C173_2 C 0.7842(2) 0.4445(2) 0.0868(3)
C174_2 C 0.8044(2) 0.4264(3) 0.0564(3)
C175_2 C 0.7879(3) 0.4072(4) 0.0196(3)
H170_2 H 0.7662 0.4226 0.0099
H171_2 H 0.7789 0.3811 0.0258
C176_2 C 0.7352(2) 0.3673(3) 0.1048(4)
H173_2 H 0.7195 0.3536 0.1240
H174_2 H 0.7622 0.3678 0.1134
H175_2 H 0.7335 0.3538 0.0799
C177_2 C 0.7207(2) 0.4078(2) 0.1004(3)
C178_2 C 0.7418(2) 0.4413(2) 0.0917(2)
C179_2 C 0.7128(2) 0.4716(2) 0.0907(3)
C180_2 C 0.7169(3) 0.5140(3) 0.0827(4)
H176_2 H 0.6944 0.5230 0.0681
H177_2 H 0.7405 0.5185 0.0677
H178_2 H 0.7185 0.5280 0.1073
C181_2 C 0.5520(3) 0.3375(3) 0.0908(4)
H179_2 H 0.5622 0.3260 0.0671
H180_2 H 0.5247 0.3306 0.0938
H181_2 H 0.5666 0.3279 0.1131
C182_2 C 0.5558(2) 0.3811(2) 0.0887(2)
C183_2 C 0.5273(2) 0.4085(2) 0.0763(2)
C184_2 C 0.5459(2) 0.4438(2) 0.0802(2)
C185_2 C 0.5282(3) 0.4853(3) 0.0735(4)
H182_2 H 0.5359 0.5024 0.0948
H183_2 H 0.4999 0.4835 0.0727
H184_2 H 0.5377 0.4958 0.0490
H186_2 H 0.5132 0.3481 0.0013
C187_2 C 0.47480(19) 0.3868(2) 0.0261(2)
C188_2 C 0.4869(2) 0.4001(3) 0.0626(2)
C189_2 C 0.4524(3) 0.4056(4) 0.0826(3)
C190_2 C 0.4462(4) 0.4273(6) 0.1210(4)
H188_2 H 0.4188 0.4266 0.1280
H189_2 H 0.4545 0.4543 0.1181
H190_2 H 0.4615 0.4150 0.1414
C191_2 C 0.9355(6) 0.5343(3) 0.0870(6)
C192_2 C 0.9391(4) 0.5793(3) 0.0928(5)
C193_2 C 0.9551(5) 0.6019(4) 0.0626(5)
H191_2 H 0.9635 0.5902 0.0393
C194_2 C 0.9582(5) 0.6426(4) 0.0681(6)
H192_2 H 0.9689 0.6576 0.0478
C195_2 C 0.9462(5) 0.6621(4) 0.1025(5)
C196_2 C 0.9305(5) 0.6383(3) 0.1316(5)
H193_2 H 0.9221 0.6500 0.1550
C197_2 C 0.9266(5) 0.5969(3) 0.1276(5)
H194_2 H 0.9159 0.5819 0.1479
C198_2 C 0.9520(4) 0.7009(3) 0.1120(5)
C199_2 C 0.9234(4) 0.7281(3) 0.1019(5)
H195_2 H 0.8993 0.7178 0.0937
C200_2 C 0.9264(4) 0.7688(3) 0.1026(5)
H196_2 H 0.9052 0.7846 0.0952
C201_2 C 0.9616(4) 0.7855(4) 0.1146(5)
C202_2 C 0.9917(4) 0.7608(3) 0.1252(5)
C203_2 C 0.9850(4) 0.7206(3) 0.1232(5)
C204_2 C 0.9716(3) 0.8279(3) 0.1106(2)
O23_2 O 0.9159(3) 0.5180(2) 0.1092(3)
O26_2 O 0.9490(4) 0.8482(3) 0.0939(4)
Co24_2 Co 0.6250 0.60975(3) 0.85975(3)
Co25_2 Co 0.35975(3) 0.8750 0.39025(3)
Co26_2 Co 0.64025(3) 0.3750 0.10975(3)
N54_2 N 0.56795(17) 0.85188(19) 0.66578(18)
N57_2 N 0.66100(17) 0.84830(17) 0.65028(19)
N61_2 N 0.47565(18) 0.56445(16) 0.88386(19)
H172_2 H 0.8081 0.4057 0.9998
C186_2 C 0.4991(3) 0.3711(5) 0.9927(3)
H185_2 H 0.4821 0.3642 0.9711
H187_2 H 0.5175 0.3909 0.9843
H164_2 H 0.9841 0.2707 0.3665
H165_2 H 0.9938 0.2048 0.3695
H32_3 H 0.1335 0.0159 0.7707
H33_3 H 0.1305 0.0062 0.7048
Co2_3 Co 0.10975(3) 0.64025(3) 0.3750
N1_3 N 0.09623(18) 0.84954(18) 0.45137(19)
N3_3 N 0.10188(19) 0.68205(17) 0.41578(18)
N4_3 N 0.09603(17) 0.67671(16) 0.45499(18)
N5_3 N 0.09830(17) 0.58900(17) 0.40028(19)
N6_3 N 0.09338(18) 0.58322(17) 0.44067(19)
N8_3 N 0.0593(2) 0.4232(2) 0.3961(4)
H1_3 H 0.0659 0.3988 0.3976
C1_3 C 0.1492(4) 0.8084(3) 0.4818(4)
H2_3 H 0.1700 0.8220 0.4681
H3_3 H 0.1552 0.7808 0.4831
H4_3 H 0.1469 0.8188 0.5081
C2_3 C 0.1103(2) 0.8144(2) 0.4598(3)
C3_3 C 0.0868(3) 0.7842(2) 0.4445(2)
C4_3 C 0.0564(3) 0.8044(2) 0.4264(3)
C5_3 C 0.0196(3) 0.7879(3) 0.4072(4)
H5_3 H 0.0099 0.7662 0.4226
H6_3 H 0.0258 0.7789 0.3811
C6_3 C 0.1048(4) 0.7352(2) 0.3673(3)
H8_3 H 0.1240 0.7195 0.3536
H9_3 H 0.1134 0.7622 0.3678
H10_3 H 0.0799 0.7335 0.3538
C7_3 C 0.1004(3) 0.7207(2) 0.4078(2)
C8_3 C 0.0917(2) 0.7418(2) 0.4413(2)
C9_3 C 0.0907(3) 0.7128(2) 0.4716(2)
C10_3 C 0.0827(4) 0.7169(3) 0.5140(3)
H11_3 H 0.0681 0.6944 0.5230
H12_3 H 0.0677 0.7405 0.5185
H13_3 H 0.1073 0.7185 0.5280
C11_3 C 0.0908(4) 0.5520(3) 0.3375(3)
H14_3 H 0.0671 0.5622 0.3260
H15_3 H 0.0938 0.5247 0.3306
H16_3 H 0.1131 0.5666 0.3279
C12_3 C 0.0887(2) 0.5558(2) 0.3811(2)
C13_3 C 0.0763(2) 0.5273(2) 0.4085(2)
C14_3 C 0.0802(2) 0.5459(2) 0.4438(2)
C15_3 C 0.0735(4) 0.5282(3) 0.4853(3)
H17_3 H 0.0948 0.5359 0.5024
H18_3 H 0.0727 0.4999 0.4835
H19_3 H 0.0490 0.5377 0.4958
H21_3 H 0.0013 0.5132 0.3481
C17_3 C 0.0261(2) 0.47480(19) 0.3868(2)
C18_3 C 0.0626(2) 0.4869(2) 0.4001(3)
C19_3 C 0.0826(3) 0.4524(3) 0.4056(4)
C20_3 C 0.1210(4) 0.4462(4) 0.4273(6)
H23_3 H 0.1280 0.4188 0.4266
H24_3 H 0.1181 0.4545 0.4543
H25_3 H 0.1414 0.4615 0.4150
C21_3 C 0.0870(6) 0.9355(6) 0.5343(3)
C22_3 C 0.0928(5) 0.9391(4) 0.5793(3)
C23_3 C 0.0626(5) 0.9551(5) 0.6019(4)
H26_3 H 0.0393 0.9635 0.5902
C24_3 C 0.0681(6) 0.9582(5) 0.6426(4)
H27_3 H 0.0478 0.9689 0.6576
C25_3 C 0.1025(5) 0.9462(5) 0.6621(4)
C26_3 C 0.1316(5) 0.9305(5) 0.6383(3)
H28_3 H 0.1550 0.9221 0.6500
C27_3 C 0.1276(5) 0.9266(5) 0.5969(3)
H29_3 H 0.1479 0.9159 0.5819
C28_3 C 0.1120(5) 0.9520(4) 0.7009(3)
C29_3 C 0.1019(5) 0.9234(4) 0.7281(3)
H30_3 H 0.0937 0.8993 0.7178
C30_3 C 0.1026(5) 0.9264(4) 0.7688(3)
H31_3 H 0.0952 0.9052 0.7846
C31_3 C 0.1146(5) 0.9616(4) 0.7855(4)
C32_3 C 0.1252(5) 0.9917(4) 0.7608(3)
C33_3 C 0.1232(5) 0.9850(4) 0.7206(3)
C34_3 C 0.1106(2) 0.9716(3) 0.8279(3)
O1_3 O 0.1092(3) 0.9159(3) 0.5180(2)
O4_3 O 0.0939(4) 0.9490(4) 0.8482(3)
N54_3 N 0.06795(17) 0.64812(19) 0.33422(18)
N55_2 N 0.66578(18) 0.56795(17) 0.85188(19)
N57_3 N 0.16100(17) 0.65170(17) 0.34972(19)
N58_2 N 0.65028(19) 0.66100(17) 0.84830(17)
H7_3 H 0.9998 0.8081 0.4057
C16_3 C 0.9927(3) 0.4991(3) 0.3711(5)
H20_3 H 0.9711 0.4821 0.3642
H22_3 H 0.9843 0.5175 0.3909
N56_2 N 0.83422(18) 0.43205(17) 0.35188(19)
N59_2 N 0.84972(19) 0.33900(17) 0.34830(17)
H4_4 H 0.3531 0.1812 0.0081
C10_4 C 0.4173(4) 0.2831(3) 0.0140(3)
H11_4 H 0.4319 0.3056 0.0230
H12_4 H 0.4323 0.2595 0.0185
H13_4 H 0.3927 0.2815 0.0280
H17_4 H 0.4052 0.4641 0.0024
C21_4 C 0.4130(6) 0.0645(6) 0.0343(3)
C22_4 C 0.4072(5) 0.0609(4) 0.0793(3)
C23_4 C 0.4374(5) 0.0449(5) 0.1019(4)
H26_4 H 0.4607 0.0365 0.0902
C24_4 C 0.4319(6) 0.0418(5) 0.1426(4)
H27_4 H 0.4522 0.0311 0.1576
C25_4 C 0.3975(5) 0.0538(5) 0.1621(4)
C26_4 C 0.3684(5) 0.0695(5) 0.1383(3)
H28_4 H 0.3450 0.0779 0.1500
C27_4 C 0.3724(5) 0.0734(5) 0.0969(3)
H29_4 H 0.3521 0.0841 0.0819
C28_4 C 0.3880(5) 0.0480(4) 0.2009(3)
C29_4 C 0.3981(5) 0.0766(4) 0.2281(3)
H30_4 H 0.4063 0.1007 0.2178
C30_4 C 0.3974(5) 0.0736(4) 0.2688(3)
H31_4 H 0.4048 0.0948 0.2846
C31_4 C 0.3854(5) 0.0384(4) 0.2855(4)
C32_4 C 0.3748(5) 0.0083(4) 0.2608(3)
C33_4 C 0.3768(5) 0.0150(4) 0.2206(3)
C34_4 C 0.3894(2) 0.0284(3) 0.3279(3)
O1_4 O 0.3908(3) 0.0841(3) 0.0180(2)
O4_4 O 0.4061(4) 0.0510(4) 0.3482(3)
Co2_4 Co 0.39025(3) 0.35975(3) 0.8750
N1_4 N 0.40377(18) 0.15046(18) 0.95137(19)
N3_4 N 0.39812(19) 0.31795(17) 0.91578(18)
N4_4 N 0.40397(17) 0.32329(16) 0.95499(18)
N5_4 N 0.40170(17) 0.41100(17) 0.90028(19)
N6_4 N 0.40662(18) 0.41678(17) 0.94067(19)
N8_4 N 0.4407(2) 0.5768(2) 0.8961(4)
H1_4 H 0.4341 0.6012 0.8976
C1_4 C 0.3508(4) 0.1916(3) 0.9818(4)
H2_4 H 0.3300 0.1780 0.9681
H3_4 H 0.3448 0.2192 0.9831
C2_4 C 0.3897(2) 0.1856(2) 0.9598(3)
C3_4 C 0.4132(3) 0.2158(2) 0.9445(2)
C4_4 C 0.4436(3) 0.1956(2) 0.9264(3)
C5_4 C 0.4804(3) 0.2121(3) 0.9072(4)
H5_4 H 0.4901 0.2338 0.9226
H6_4 H 0.4742 0.2211 0.8811
H7_4 H 0.5002 0.1919 0.9057
C6_4 C 0.3952(4) 0.2648(2) 0.8673(3)
H8_4 H 0.3760 0.2805 0.8536
H9_4 H 0.3866 0.2378 0.8678
H10_4 H 0.4201 0.2665 0.8538
C7_4 C 0.3996(3) 0.2793(2) 0.9078(2)
C8_4 C 0.4083(2) 0.2582(2) 0.9413(2)
C9_4 C 0.4093(3) 0.2872(2) 0.9716(2)
C11_4 C 0.4092(4) 0.4480(3) 0.8375(3)
H14_4 H 0.4329 0.4378 0.8260
H15_4 H 0.4062 0.4753 0.8306
H16_4 H 0.3869 0.4334 0.8279
C12_4 C 0.4113(2) 0.4442(2) 0.8811(2)
C13_4 C 0.4237(2) 0.4727(2) 0.9085(2)
C14_4 C 0.4198(2) 0.4541(2) 0.9438(2)
C15_4 C 0.4265(4) 0.4718(3) 0.9853(3)
H18_4 H 0.4273 0.5001 0.9835
H19_4 H 0.4510 0.4623 0.9958
C16_4 C 0.5073(3) 0.5009(3) 0.8711(5)
H20_4 H 0.5289 0.5179 0.8642
H21_4 H 0.4987 0.4868 0.8481
H22_4 H 0.5157 0.4825 0.8909
C17_4 C 0.4739(2) 0.52520(19) 0.8868(2)
C18_4 C 0.4374(2) 0.5131(2) 0.9001(3)
C19_4 C 0.4174(3) 0.5476(3) 0.9056(4)
C20_4 C 0.3790(4) 0.5538(4) 0.9273(6)
H23_4 H 0.3720 0.5812 0.9266
H24_4 H 0.3819 0.5455 0.9543
H25_4 H 0.3586 0.5385 0.9150
N54_4 N 0.43205(17) 0.35188(19) 0.83422(18)
N57_4 N 0.33900(17) 0.34830(17) 0.84972(19)
H32_4 H 0.3665 0.9841 0.2707
H33_4 H 0.3695 0.9938 0.2048
N56_3 N 0.14812(19) 0.16578(18) 0.93205(17)
N59_3 N 0.15170(17) 0.15028(19) 0.83900(17)
N55_3 N 0.64812(19) 0.33422(18) 0.06795(17)
N58_3 N 0.65170(17) 0.34972(19) 0.16100(17)
N55_4 N 0.85188(19) 0.66578(18) 0.56795(17)
N58_4 N 0.84830(17) 0.65028(19) 0.66100(17)
N56_4 N 0.35188(19) 0.83422(18) 0.43205(17)
N59_4 N 0.34830(17) 0.84972(19) 0.33900(17)
Co3_2 Co 0.15521(3) 0.14085(3) 0.21312(3)
Co4_2 Co 0.21490(5) 0.21490(5) 0.21490(5)
N1_5 N 0.09954(18) 0.15377(18) 0.20137(19)
N2_3 N 0.09407(17) 0.18848(19) 0.1802(2)
C1_5 C 0.0584(3) 0.1008(4) 0.2318(4)
H2_5 H 0.0720 0.0800 0.2181
H3_5 H 0.0308 0.0948 0.2331
H4_5 H 0.0688 0.1031 0.2581
C2_5 C 0.0644(2) 0.1397(2) 0.2098(3)
C3_5 C 0.0342(2) 0.1632(3) 0.1945(2)
C4_5 C 0.0544(2) 0.1936(3) 0.1764(3)
C5_5 C 0.0379(3) 0.2304(3) 0.1572(4)
H5_5 H 0.0162 0.2401 0.1726
H6_5 H 0.0289 0.2242 0.1311
H7_5 H 0.0581 0.2502 0.1557
H9_5 H 0.0122 0.1366 0.1178
C21_5 C 0.1855(6) 0.1630(6) 0.2843(3)
C22_5 C 0.1891(4) 0.1572(5) 0.3293(3)
C23_5 C 0.2051(5) 0.1874(5) 0.3519(4)
H26_5 H 0.2135 0.2107 0.3402
C24_5 C 0.2082(5) 0.1819(6) 0.3926(4)
H27_5 H 0.2189 0.2022 0.4076
C25_5 C 0.1962(5) 0.1475(5) 0.4121(4)
C26_5 C 0.1805(5) 0.1184(5) 0.3883(3)
H28_5 H 0.1721 0.0950 0.4000
C27_5 C 0.1766(5) 0.1224(5) 0.3469(3)
H29_5 H 0.1659 0.1021 0.3319
C28_5 C 0.2020(4) 0.1380(5) 0.4509(3)
C29_5 C 0.1734(4) 0.1481(5) 0.4781(3)
H30_5 H 0.1493 0.1563 0.4678
C30_5 C 0.1764(4) 0.1474(5) 0.5188(3)
H31_5 H 0.1552 0.1548 0.5346
C31_5 C 0.2116(4) 0.1354(5) 0.5355(4)
C32_5 C 0.2417(4) 0.1248(5) 0.5108(3)
H32_5 H 0.2659 0.1165 0.5207
C33_5 C 0.2350(4) 0.1268(5) 0.4706(3)
H33_5 H 0.2562 0.1195 0.4548
C34_5 C 0.2216(3) 0.1394(2) 0.5779(3)
O1_5 O 0.1659(3) 0.1408(3) 0.2680(2)
O2_3 O 0.2062(4) 0.1943(4) 0.2669(3)
O3_3 O 0.2499(2) 0.1277(3) 0.59314(16)
O4_5 O 0.1990(4) 0.1561(4) 0.5982(3)
O5_2 O 0.18250(12) 0.18250(12) 0.18250(12)
Co13_3 Co 0.14085(3) 0.21312(3) 0.15521(3)
N25_3 N 0.15377(18) 0.20137(19) 0.09954(18)
N26_2 N 0.18848(19) 0.1802(2) 0.09407(17)
C103_3 C 0.1008(4) 0.2318(4) 0.0584(3)
H101_3 H 0.0800 0.2181 0.0720
H102_3 H 0.0948 0.2331 0.0308
H103_3 H 0.1031 0.2581 0.0688
C104_3 C 0.1397(2) 0.2098(3) 0.0644(2)
C105_3 C 0.1632(3) 0.1945(2) 0.0342(2)
C106_3 C 0.1936(3) 0.1764(3) 0.0544(2)
C107_3 C 0.2304(3) 0.1572(4) 0.0379(3)
H104_3 H 0.2401 0.1726 0.0162
H105_3 H 0.2242 0.1311 0.0289
H106_3 H 0.2502 0.1557 0.0581
H108_3 H 0.1366 0.1178 0.0122
C123_3 C 0.1630(6) 0.2843(3) 0.1855(6)
C124_3 C 0.1572(5) 0.3293(3) 0.1891(4)
C125_3 C 0.1874(5) 0.3519(4) 0.2051(5)
H125_3 H 0.2107 0.3402 0.2135
C126_3 C 0.1819(6) 0.3926(4) 0.2082(5)
H126_3 H 0.2022 0.4076 0.2189
C127_3 C 0.1475(5) 0.4121(4) 0.1962(5)
C128_3 C 0.1184(5) 0.3883(3) 0.1805(5)
H127_3 H 0.0950 0.4000 0.1721
C129_3 C 0.1224(5) 0.3469(3) 0.1766(5)
H128_3 H 0.1021 0.3319 0.1659
C130_3 C 0.1380(5) 0.4509(3) 0.2020(4)
C131_3 C 0.1481(5) 0.4781(3) 0.1734(4)
H129_3 H 0.1563 0.4678 0.1493
C132_3 C 0.1474(5) 0.5188(3) 0.1764(4)
H130_3 H 0.1548 0.5346 0.1552
C133_3 C 0.1354(5) 0.5355(4) 0.2116(4)
C134_3 C 0.1248(5) 0.5108(3) 0.2417(4)
H131_3 H 0.1165 0.5207 0.2659
C135_3 C 0.1268(5) 0.4706(3) 0.2350(4)
H132_3 H 0.1195 0.4548 0.2562
C136_3 C 0.1394(2) 0.5779(3) 0.2216(3)
O15_3 O 0.1408(3) 0.2680(2) 0.1659(3)
O16_3 O 0.1943(4) 0.2669(3) 0.2062(4)
O17_3 O 0.1277(3) 0.59314(16) 0.2499(2)
O18_3 O 0.1561(4) 0.5982(3) 0.1990(4)
Co16 Co 0.26996(3) 0.12553(3) 0.64615(3)
N44_3 N 0.29501(18) 0.07329(16) 0.65397(17)
N46_3 N 0.30933(19) 0.16678(17) 0.65662(18)
N47_3 N 0.36614(19) 0.31445(16) 0.72565(18)
N48_3 N 0.3539(4) 0.3268(2) 0.6907(2)
H166_3 H 0.3524 0.3512 0.6841
C176_3 C 0.3827(3) 0.0148(2) 0.6452(4)
H173_3 H 0.3964 0.0305 0.6260
H175_3 H 0.3962 0.0165 0.6701
C177_3 C 0.3422(2) 0.0293(2) 0.6496(3)
C178_3 C 0.3087(2) 0.0082(2) 0.6583(2)
C179_3 C 0.2784(2) 0.0372(2) 0.6593(3)
C180_3 C 0.2360(3) 0.0331(3) 0.6673(4)
H176_3 H 0.2270 0.0556 0.6819
H177_3 H 0.2315 0.0095 0.6823
H178_3 H 0.2220 0.0315 0.6427
C181_3 C 0.4125(3) 0.1980(3) 0.6592(4)
H179_3 H 0.4240 0.1878 0.6829
H180_3 H 0.4194 0.2253 0.6562
H181_3 H 0.4221 0.1834 0.6369
C182_3 C 0.3689(2) 0.1942(2) 0.6613(2)
C183_3 C 0.3415(2) 0.2227(2) 0.6737(2)
C184_3 C 0.3062(2) 0.2041(2) 0.6698(2)
C185_3 C 0.2647(3) 0.2218(3) 0.6765(4)
H182_3 H 0.2476 0.2141 0.6552
H183_3 H 0.2665 0.2501 0.6773
H184_3 H 0.2542 0.2123 0.7010
C186_3 C 0.3789(5) 0.2509(3) 0.7573(3)
H185_3 H 0.3858 0.2679 0.7789
H186_3 H 0.4019 0.2368 0.7487
H187_3 H 0.3591 0.2325 0.7657
C187_3 C 0.3632(2) 0.27520(19) 0.7239(2)
C188_3 C 0.3499(3) 0.2631(2) 0.6874(2)
C189_3 C 0.3444(4) 0.2976(3) 0.6674(3)
C190_3 C 0.3227(6) 0.3038(4) 0.6290(4)
H188_3 H 0.3234 0.3312 0.6220
H189_3 H 0.2957 0.2955 0.6319
H190_3 H 0.3350 0.2885 0.6086
Co19_2 Co 0.37447(3) 0.35385(3) 0.76996(3)
Co20_2 Co 0.12553(3) 0.64615(3) 0.26996(3)
Co31_2 Co 0.21312(3) 0.15521(3) 0.14085(3)
N53_2 N 0.1802(2) 0.09407(17) 0.18848(19)
N62 N 0.22565(18) 0.13386(19) 0.68555(16)
O28_2 O 0.2669(3) 0.2062(4) 0.1943(4)
Co12_2 Co 0.14615(3) 0.23004(3) 0.87447(3)
N28_3 N 0.15397(17) 0.20499(18) 0.92671(16)
N30_3 N 0.15662(18) 0.19067(19) 0.83322(17)
N32_3 N 0.1907(2) 0.1461(4) 0.6732(2)
H100_3 H 0.1841 0.1476 0.6488
C108_3 C 0.1452(4) 0.1173(3) 0.9852(2)
H107_3 H 0.1260 0.1036 0.9695
H109_3 H 0.1701 0.1038 0.9835
C109_3 C 0.1496(3) 0.1578(2) 0.9707(2)
C110_3 C 0.1583(2) 0.1913(2) 0.9918(2)
C111_3 C 0.1593(3) 0.2216(2) 0.9628(2)
C112_3 C 0.1673(4) 0.2640(3) 0.9669(3)
H110_3 H 0.1819 0.2730 0.9444
H111_3 H 0.1823 0.2685 0.9905
H112_3 H 0.1427 0.2780 0.9685
C113_3 C 0.1592(4) 0.0875(3) 0.8020(3)
H113_3 H 0.1829 0.0760 0.8122
H114_3 H 0.1562 0.0806 0.7747
H115_3 H 0.1369 0.0779 0.8166
C114_3 C 0.1613(2) 0.1311(2) 0.8058(2)
C115_3 C 0.1737(2) 0.1585(2) 0.7773(2)
C116_3 C 0.1698(2) 0.1938(2) 0.7959(2)
C117_3 C 0.1765(4) 0.2353(3) 0.7782(3)
H116_3 H 0.1552 0.2524 0.7859
H117_3 H 0.1773 0.2335 0.7499
H118_3 H 0.2010 0.2458 0.7877
C118_3 C 0.2573(3) 0.1211(5) 0.7491(3)
H119_3 H 0.2789 0.1142 0.7321
H120_3 H 0.2487 0.0981 0.7632
H121_3 H 0.2657 0.1409 0.7675
C119_3 C 0.2239(2) 0.1368(2) 0.72480(19)
C120_3 C 0.1874(2) 0.1501(3) 0.7369(2)
C121_3 C 0.1674(3) 0.1556(4) 0.7024(3)
C122_3 C 0.1290(4) 0.1773(6) 0.6962(4)
H122_3 H 0.1220 0.1766 0.6688
H123_3 H 0.1319 0.2043 0.7045
H124_3 H 0.1086 0.1650 0.7115
N61_3 N 0.18555(16) 0.27435(18) 0.86614(19)
O32_2 O 0.09314(16) 0.2501(2) 0.8723(3)
Co17_2 Co 0.28688(3) 0.84479(3) 0.64085(3)
N41_3 N 0.29863(19) 0.90046(18) 0.65377(18)
N42_2 N 0.3198(2) 0.90593(17) 0.68848(19)
C171_3 C 0.2682(4) 0.9416(3) 0.6008(4)
H167_3 H 0.2819 0.9280 0.5800
H168_3 H 0.2669 0.9692 0.5948
H169_3 H 0.2419 0.9312 0.6031
C172_3 C 0.2902(3) 0.9356(2) 0.6397(2)
C173_3 C 0.3055(2) 0.9658(2) 0.6632(3)
C174_3 C 0.3236(3) 0.9456(2) 0.6936(3)
C175_3 C 0.3428(4) 0.9621(3) 0.7304(3)
H170_3 H 0.3274 0.9838 0.7401
H171_3 H 0.3689 0.9711 0.7242
H172_3 H 0.3443 0.9419 0.7502
H174_3 H 0.3822 0.9878 0.6366
C191_3 C 0.2157(3) 0.8145(6) 0.6630(6)
C192_3 C 0.1707(3) 0.8109(4) 0.6572(5)
C193_3 C 0.1481(4) 0.7949(5) 0.6874(5)
H191_3 H 0.1598 0.7865 0.7107
C194_3 C 0.1074(4) 0.7918(5) 0.6819(6)
H192_3 H 0.0924 0.7811 0.7022
C195_3 C 0.0879(4) 0.8038(5) 0.6475(5)
C196_3 C 0.1117(3) 0.8195(5) 0.6184(5)
H193_3 H 0.1000 0.8279 0.5950
C197_3 C 0.1531(3) 0.8234(5) 0.6224(5)
H194_3 H 0.1681 0.8341 0.6021
C198_3 C 0.0491(3) 0.7980(4) 0.6380(5)
C199_3 C 0.0219(3) 0.8266(4) 0.6481(5)
H195_3 H 0.0322 0.8507 0.6563
C203_3 C 0.0294(3) 0.7650(4) 0.6268(5)
H198_3 H 0.0452 0.7438 0.6195
O23_3 O 0.2320(2) 0.8341(3) 0.6408(3)
O24_2 O 0.2331(3) 0.7938(4) 0.6943(4)
Co27_2 Co 0.34479(3) 0.85915(3) 0.71312(3)
Co33_2 Co 0.28510(5) 0.78510(5) 0.71490(5)
N51_2 N 0.31152(19) 0.8198(2) 0.59407(17)
O33_2 O 0.31750(12) 0.81750(12) 0.68250(12)
Co1_2 Co 0.87447(3) 0.14615(3) 0.23004(3)
N4_5 N 0.92671(16) 0.15397(17) 0.20499(18)
N6_5 N 0.83322(17) 0.15662(18) 0.19067(19)
N7_2 N 0.68555(16) 0.22565(18) 0.13386(19)
N8_5 N 0.6732(2) 0.1907(2) 0.1461(4)
H1_5 H 0.6488 0.1841 0.1476
C6_5 C 0.9852(2) 0.1452(4) 0.1173(3)
H8_5 H 0.9695 0.1260 0.1036
H10_5 H 0.9835 0.1701 0.1038
C7_5 C 0.9707(2) 0.1496(3) 0.1578(2)
C8_5 C 0.9918(2) 0.1583(2) 0.1913(2)
C9_5 C 0.9628(2) 0.1593(3) 0.2216(2)
C10_5 C 0.9669(3) 0.1673(4) 0.2640(3)
H11_5 H 0.9444 0.1819 0.2730
H12_5 H 0.9905 0.1823 0.2685
H13_5 H 0.9685 0.1427 0.2780
C11_5 C 0.8020(3) 0.1592(4) 0.0875(3)
H14_5 H 0.8122 0.1829 0.0760
H15_5 H 0.7747 0.1562 0.0806
H16_5 H 0.8166 0.1369 0.0779
C12_5 C 0.8058(2) 0.1613(2) 0.1311(2)
C13_5 C 0.7773(2) 0.1737(2) 0.1585(2)
C14_5 C 0.7959(2) 0.1698(2) 0.1938(2)
C15_5 C 0.7782(3) 0.1765(4) 0.2353(3)
H17_5 H 0.7859 0.1552 0.2524
H18_5 H 0.7499 0.1773 0.2335
H19_5 H 0.7877 0.2010 0.2458
C16_5 C 0.7491(3) 0.2573(3) 0.1211(5)
H20_5 H 0.7321 0.2789 0.1142
H21_5 H 0.7632 0.2487 0.0981
H22_5 H 0.7675 0.2657 0.1409
C17_5 C 0.72480(19) 0.2239(2) 0.1368(2)
C18_5 C 0.7369(2) 0.1874(2) 0.1501(3)
C19_5 C 0.7024(3) 0.1674(3) 0.1556(4)
C20_5 C 0.6962(4) 0.1290(4) 0.1773(6)
H23_5 H 0.6688 0.1220 0.1766
H24_5 H 0.7045 0.1319 0.2043
H25_5 H 0.7115 0.1086 0.1650
Co5_2 Co 0.64615(3) 0.26996(3) 0.12553(3)
N12_2 N 0.65397(17) 0.29501(18) 0.07329(16)
N14_2 N 0.65662(18) 0.30933(19) 0.16678(17)
N15_2 N 0.72565(18) 0.36614(19) 0.31445(16)
N16_2 N 0.6907(2) 0.3539(4) 0.3268(2)
H34_2 H 0.6841 0.3524 0.3512
C40_2 C 0.6452(4) 0.3827(3) 0.0148(2)
H41_2 H 0.6260 0.3964 0.0305
H43_2 H 0.6701 0.3962 0.0165
C41_2 C 0.6496(3) 0.3422(2) 0.0293(2)
C42_2 C 0.6583(2) 0.3087(2) 0.0082(2)
C43_2 C 0.6593(3) 0.2784(2) 0.0372(2)
C44_2 C 0.6673(4) 0.2360(3) 0.0331(3)
H44_2 H 0.6819 0.2270 0.0556
H45_2 H 0.6823 0.2315 0.0095
H46_2 H 0.6427 0.2220 0.0315
C45_2 C 0.6592(4) 0.4125(3) 0.1980(3)
H47_2 H 0.6829 0.4240 0.1878
H48_2 H 0.6562 0.4194 0.2253
H49_2 H 0.6369 0.4221 0.1834
C46_2 C 0.6613(2) 0.3689(2) 0.1942(2)
C47_2 C 0.6737(2) 0.3415(2) 0.2227(2)
C48_2 C 0.6698(2) 0.3062(2) 0.2041(2)
C49_2 C 0.6765(4) 0.2647(3) 0.2218(3)
H50_2 H 0.6552 0.2476 0.2141
H51_2 H 0.6773 0.2665 0.2501
H52_2 H 0.7010 0.2542 0.2123
C50_2 C 0.7573(3) 0.3789(5) 0.2509(3)
H53_2 H 0.7789 0.3858 0.2679
H54_2 H 0.7487 0.4019 0.2368
H55_2 H 0.7657 0.3591 0.2325
C51_2 C 0.7239(2) 0.3632(2) 0.27520(19)
C52_2 C 0.6874(2) 0.3499(3) 0.2631(2)
C53_2 C 0.6674(3) 0.3444(4) 0.2976(3)
C54_2 C 0.6290(4) 0.3227(6) 0.3038(4)
H56_2 H 0.6220 0.3234 0.3312
H57_2 H 0.6319 0.2957 0.2955
H58_2 H 0.6086 0.3350 0.2885
C98_2 C 0.8526(5) 0.0188(3) 0.3236(4)
H97_2 H 0.8452 0.0346 0.3448
C99_2 C 0.8646(5) 0.0355(4) 0.2884(4)
C100_2 C 0.8752(5) 0.0108(3) 0.2583(4)
H98_2 H 0.8835 0.0207 0.2341
C102_2 C 0.8606(2) 0.0779(3) 0.2784(3)
O13_2 O 0.8723(3) 0.09314(16) 0.2501(2)
O14_2 O 0.8439(4) 0.0982(3) 0.3010(4)
Co14_2 Co 0.76996(3) 0.37447(3) 0.35385(3)
Co15_2 Co 0.78688(3) 0.65521(3) 0.35915(3)
N33_3 N 0.79863(19) 0.59954(18) 0.34623(18)
N34_3 N 0.8198(2) 0.59407(17) 0.31152(19)
N36_3 N 0.79501(18) 0.42671(16) 0.34603(17)
N38_3 N 0.80933(19) 0.33322(17) 0.34338(18)
N39_3 N 0.86614(19) 0.18555(16) 0.27435(18)
N40_3 N 0.8539(4) 0.1732(2) 0.3093(2)
H133_3 H 0.8524 0.1488 0.3159
C137_3 C 0.7682(4) 0.5584(3) 0.3992(4)
H134_3 H 0.7819 0.5720 0.4200
H135_3 H 0.7669 0.5308 0.4052
H136_3 H 0.7419 0.5688 0.3969
C138_3 C 0.7902(3) 0.5644(2) 0.3603(2)
C139_3 C 0.8055(2) 0.5342(2) 0.3368(3)
C140_3 C 0.8236(3) 0.5544(2) 0.3064(3)
C141_3 C 0.8428(4) 0.5379(3) 0.2696(3)
H137_3 H 0.8274 0.5162 0.2599
H138_3 H 0.8689 0.5289 0.2758
H139_3 H 0.8443 0.5581 0.2498
C142_3 C 0.8827(3) 0.4852(2) 0.3548(4)
H140_3 H 0.8964 0.4695 0.3740
H141_3 H 0.8822 0.5122 0.3634
H142_3 H 0.8962 0.4835 0.3299
C143_3 C 0.8422(2) 0.4707(2) 0.3504(3)
C144_3 C 0.8087(2) 0.4918(2) 0.3417(2)
C145_3 C 0.7784(2) 0.4628(2) 0.3407(3)
C146_3 C 0.7360(3) 0.4669(3) 0.3327(4)
H143_3 H 0.7270 0.4444 0.3181
H144_3 H 0.7315 0.4905 0.3177
H145_3 H 0.7220 0.4685 0.3573
C147_3 C 0.9125(3) 0.3020(3) 0.3408(4)
H146_3 H 0.9240 0.3122 0.3171
H147_3 H 0.9194 0.2747 0.3438
H148_3 H 0.9221 0.3166 0.3631
C148_3 C 0.8689(2) 0.3058(2) 0.3387(2)
C149_3 C 0.8415(2) 0.2773(2) 0.3263(2)
C150_3 C 0.8062(2) 0.2959(2) 0.3302(2)
C151_3 C 0.7647(3) 0.2782(3) 0.3235(4)
H149_3 H 0.7476 0.2859 0.3448
H150_3 H 0.7665 0.2499 0.3227
H151_3 H 0.7542 0.2877 0.2990
C152_3 C 0.8789(5) 0.2491(3) 0.2427(3)
H152_3 H 0.8858 0.2321 0.2211
H153_3 H 0.9019 0.2632 0.2513
H154_3 H 0.8591 0.2675 0.2343
C153_3 C 0.8632(2) 0.22480(19) 0.2761(2)
C154_3 C 0.8499(3) 0.2369(2) 0.3126(2)
C155_3 C 0.8444(4) 0.2024(3) 0.3326(3)
C156_3 C 0.8227(6) 0.1962(4) 0.3710(4)
H155_3 H 0.8234 0.1688 0.3780
H156_3 H 0.7957 0.2045 0.3681
H157_3 H 0.8350 0.2115 0.3914
C157_3 C 0.7157(3) 0.6855(6) 0.3370(6)
C158_3 C 0.6707(3) 0.6891(4) 0.3428(5)
C159_3 C 0.6481(4) 0.7051(5) 0.3126(5)
H158_3 H 0.6598 0.7135 0.2893
C160_3 C 0.6074(4) 0.7082(5) 0.3181(6)
H159_3 H 0.5924 0.7189 0.2978
C161_3 C 0.5879(4) 0.6962(5) 0.3525(5)
C162_3 C 0.6117(3) 0.6805(5) 0.3816(5)
H160_3 H 0.6000 0.6721 0.4050
C163_3 C 0.6531(3) 0.6766(5) 0.3776(5)
H161_3 H 0.6681 0.6659 0.3979
C164_3 C 0.5491(3) 0.7020(4) 0.3620(5)
C165_3 C 0.5219(3) 0.6734(4) 0.3519(5)
H162_3 H 0.5322 0.6493 0.3437
C166_3 C 0.4812(3) 0.6764(4) 0.3526(5)
H163_3 H 0.4654 0.6552 0.3452
C167_3 C 0.4645(4) 0.7116(4) 0.3646(5)
C168_3 C 0.4892(3) 0.7417(4) 0.3752(5)
H164_3 H 0.4793 0.7659 0.3835
C169_3 C 0.5294(3) 0.7350(4) 0.3732(5)
H165_3 H 0.5452 0.7562 0.3805
C170_3 C 0.4221(3) 0.7216(3) 0.3606(2)
O19_3 O 0.7320(2) 0.6659(3) 0.3592(3)
O20_2 O 0.7331(3) 0.7062(4) 0.3057(4)
O21_2 O 0.40686(16) 0.7499(2) 0.3723(3)
O22_3 O 0.4018(3) 0.6990(4) 0.3439(4)
Co21_2 Co 0.35385(3) 0.76996(3) 0.37447(3)
Co29_2 Co 0.84479(3) 0.64085(3) 0.28688(3)
Co35_2 Co 0.78510(5) 0.71490(5) 0.28510(5)
N52_2 N 0.81152(19) 0.6802(2) 0.40593(17)
O30_3 O 0.7499(2) 0.3723(3) 0.40686(16)
O31_2 O 0.59314(16) 0.2499(2) 0.1277(3)
O35_2 O 0.81750(12) 0.68250(12) 0.31750(12)
Co7_2 Co 0.64085(3) 0.28688(3) 0.84479(3)
Co8_2 Co 0.71490(5) 0.28510(5) 0.78510(5)
N9_2 N 0.65377(18) 0.29863(19) 0.90046(18)
N10_2 N 0.68848(19) 0.3198(2) 0.90593(17)
C35_2 C 0.6008(4) 0.2682(4) 0.9416(3)
H35_2 H 0.5800 0.2819 0.9280
H36_2 H 0.5948 0.2669 0.9692
H37_2 H 0.6031 0.2419 0.9312
C36_2 C 0.6397(2) 0.2902(3) 0.9356(2)
C37_2 C 0.6632(3) 0.3055(2) 0.9658(2)
C38_2 C 0.6936(3) 0.3236(3) 0.9456(2)
C39_2 C 0.7304(3) 0.3428(4) 0.9621(3)
H38_2 H 0.7401 0.3274 0.9838
H39_2 H 0.7242 0.3689 0.9711
H40_2 H 0.7502 0.3443 0.9419
H42_2 H 0.6366 0.3822 0.9878
C55_2 C 0.6630(6) 0.2157(3) 0.8145(6)
C56_2 C 0.6572(5) 0.1707(3) 0.8109(4)
C57_2 C 0.6874(5) 0.1481(4) 0.7949(5)
H59_2 H 0.7107 0.1598 0.7865
C58_2 C 0.6819(6) 0.1074(4) 0.7918(5)
H60_2 H 0.7022 0.0924 0.7811
C59_2 C 0.6475(5) 0.0879(4) 0.8038(5)
C60_2 C 0.6184(5) 0.1117(3) 0.8195(5)
H61_2 H 0.5950 0.1000 0.8279
C61_2 C 0.6224(5) 0.1531(3) 0.8234(5)
H62_2 H 0.6021 0.1681 0.8341
C62_2 C 0.6380(5) 0.0491(3) 0.7980(4)
C63_2 C 0.6481(5) 0.0219(3) 0.8266(4)
H63_2 H 0.6563 0.0322 0.8507
C67_2 C 0.6268(5) 0.0294(3) 0.7650(4)
H66_2 H 0.6195 0.0452 0.7438
O6_2 O 0.6408(3) 0.2320(2) 0.8341(3)
O7_2 O 0.6943(4) 0.2331(3) 0.7938(4)
O10_2 O 0.68250(12) 0.31750(12) 0.81750(12)
Co28_2 Co 0.65521(3) 0.35915(3) 0.78688(3)
Co32_2 Co 0.71312(3) 0.34479(3) 0.85915(3)
N49_2 N 0.59407(17) 0.31152(19) 0.8198(2)
O27_3 O 0.7062(4) 0.3057(4) 0.7331(3)
O29_2 O 0.7669(3) 0.2938(4) 0.8057(4)
Co9_2 Co 0.85385(3) 0.73004(3) 0.62553(3)
Co11_2 Co 0.85915(3) 0.71312(3) 0.34479(3)
N17_2 N 0.84623(18) 0.70137(19) 0.40046(18)
N20_2 N 0.84603(17) 0.70499(18) 0.57329(16)
N22_2 N 0.84338(18) 0.69067(19) 0.66678(17)
N23_2 N 0.77435(18) 0.63386(19) 0.81445(16)
N24_2 N 0.8093(2) 0.6461(4) 0.8268(2)
H67_2 H 0.8159 0.6476 0.8512
C69_2 C 0.8992(4) 0.7318(4) 0.4416(3)
H68_2 H 0.9200 0.7181 0.4280
H69_2 H 0.9052 0.7331 0.4692
H70_2 H 0.8969 0.7581 0.4312
C70_2 C 0.8603(2) 0.7098(3) 0.4356(2)
C71_2 C 0.8368(3) 0.6945(2) 0.4658(2)
C72_2 C 0.8064(3) 0.6764(3) 0.4456(2)
C73_2 C 0.7696(3) 0.6572(4) 0.4621(3)
H71_2 H 0.7599 0.6726 0.4838
H72_2 H 0.7758 0.6311 0.4711
H73_2 H 0.7498 0.6557 0.4419
C74_2 C 0.8548(4) 0.6173(3) 0.5148(2)
H74_2 H 0.8740 0.6036 0.5305
H75_2 H 0.8634 0.6178 0.4878
H76_2 H 0.8299 0.6038 0.5165
C75_2 C 0.8504(3) 0.6578(2) 0.5293(2)
C76_2 C 0.8417(2) 0.6913(2) 0.5082(2)
C77_2 C 0.8407(3) 0.7216(2) 0.5372(2)
C78_2 C 0.8327(4) 0.7640(3) 0.5331(3)
H77_2 H 0.8181 0.7730 0.5556
H78_2 H 0.8177 0.7685 0.5095
H79_2 H 0.8573 0.7780 0.5315
C79_2 C 0.8408(4) 0.5875(3) 0.6980(3)
H80_2 H 0.8171 0.5760 0.6878
H81_2 H 0.8438 0.5806 0.7253
H82_2 H 0.8631 0.5779 0.6834
C80_2 C 0.8387(2) 0.6311(2) 0.6942(2)
C81_2 C 0.8263(2) 0.6585(2) 0.7227(2)
C82_2 C 0.8302(2) 0.6938(2) 0.7041(2)
C83_2 C 0.8235(4) 0.7353(3) 0.7218(3)
H83_2 H 0.8448 0.7524 0.7141
H84_2 H 0.8227 0.7335 0.7501
H85_2 H 0.7990 0.7458 0.7123
C84_2 C 0.7427(3) 0.6211(5) 0.7509(3)
H86_2 H 0.7211 0.6142 0.7679
H87_2 H 0.7513 0.5981 0.7368
H88_2 H 0.7343 0.6409 0.7325
C85_2 C 0.7761(2) 0.6368(2) 0.77520(19)
C86_2 C 0.8126(2) 0.6501(3) 0.7631(2)
C87_2 C 0.8326(3) 0.6556(4) 0.7976(3)
C88_2 C 0.8710(4) 0.6773(6) 0.8038(4)
H89_2 H 0.8780 0.6766 0.8312
H90_2 H 0.8681 0.7043 0.7955
H91_2 H 0.8914 0.6650 0.7885
C89_2 C 0.8370(6) 0.7843(3) 0.3145(6)
C90_2 C 0.8428(5) 0.8293(3) 0.3109(4)
C91_2 C 0.8126(5) 0.8519(4) 0.2949(5)
H92_2 H 0.7893 0.8402 0.2865
C92_2 C 0.8181(6) 0.8926(4) 0.2918(5)
H93_2 H 0.7978 0.9076 0.2811
C93_2 C 0.8525(5) 0.9121(4) 0.3038(5)
C94_2 C 0.8816(5) 0.8883(3) 0.3195(5)
H94_2 H 0.9050 0.9000 0.3279
C95_2 C 0.8776(5) 0.8469(3) 0.3234(5)
H95_2 H 0.8979 0.8319 0.3341
C96_2 C 0.8620(5) 0.9509(3) 0.2980(4)
C97_2 C 0.8519(5) 0.9781(3) 0.3266(4)
H96_2 H 0.8437 0.9678 0.3507
C101_2 C 0.8732(5) 0.9706(3) 0.2650(4)
H99_2 H 0.8805 0.9548 0.2438
O11_2 O 0.8592(3) 0.7680(2) 0.3341(3)
O12_2 O 0.8057(4) 0.7669(3) 0.2938(4)
C200_3 C 0.9812(3) 0.8236(4) 0.6474(5)
H196_3 H 0.9654 0.8448 0.6548
C201_3 C 0.9645(4) 0.7884(4) 0.6354(5)
C202_3 C 0.9892(3) 0.7583(4) 0.6248(5)
H197_3 H 0.9793 0.7341 0.6165
C204_3 C 0.9221(3) 0.7784(3) 0.6394(2)
O25_2 O 0.90686(16) 0.7501(2) 0.6277(3)
O26_3 O 0.9018(3) 0.8010(4) 0.6561(4)
Co23_2 Co 0.73004(3) 0.62553(3) 0.85385(3)
N50_2 N 0.90593(17) 0.68848(19) 0.3198(2)
N60_2 N 0.81445(16) 0.77435(18) 0.63386(19)
C64_2 C 0.6474(5) 0.9812(3) 0.8236(4)
H64_2 H 0.6548 0.9654 0.8448
C65_2 C 0.6354(5) 0.9645(4) 0.7884(4)
C66_2 C 0.6248(5) 0.9892(3) 0.7583(4)
H65_2 H 0.6165 0.9793 0.7341
C68_2 C 0.6394(2) 0.9221(3) 0.7784(3)
O8_2 O 0.6277(3) 0.90686(16) 0.7501(2)
O9_2 O 0.6561(4) 0.9018(3) 0.8010(4)
Co18_2 Co 0.62553(3) 0.85385(3) 0.73004(3)
C166_4 C 0.0188(3) 0.3236(4) 0.8526(5)
H163_4 H 0.0346 0.3448 0.8452
C167_4 C 0.0355(4) 0.2884(4) 0.8646(5)
C168_4 C 0.0108(3) 0.2583(4) 0.8752(5)
H164_4 H 0.0207 0.2341 0.8835
C170_4 C 0.0779(3) 0.2784(3) 0.8606(2)
O22_4 O 0.0982(3) 0.3010(4) 0.8439(4)
N41_4 N 0.20137(19) 0.09954(18) 0.15377(18)
C171_4 C 0.2318(4) 0.0584(3) 0.1008(4)
H167_4 H 0.2181 0.0720 0.0800
H168_4 H 0.2331 0.0308 0.0948
H169_4 H 0.2581 0.0688 0.1031
C172_4 C 0.2098(3) 0.0644(2) 0.1397(2)
C173_4 C 0.1945(2) 0.0342(2) 0.1632(3)
C174_4 C 0.1764(3) 0.0544(2) 0.1936(3)
C175_4 C 0.1572(4) 0.0379(3) 0.2304(3)
H170_4 H 0.1726 0.0162 0.2401
H171_4 H 0.1311 0.0289 0.2242
H172_4 H 0.1557 0.0581 0.2502
H174_4 H 0.1178 0.0122 0.1366
C191_4 C 0.2843(3) 0.1855(6) 0.1630(6)
C192_4 C 0.3293(3) 0.1891(4) 0.1572(5)
C193_4 C 0.3519(4) 0.2051(5) 0.1874(5)
H191_4 H 0.3402 0.2135 0.2107
C194_4 C 0.3926(4) 0.2082(5) 0.1819(6)
H192_4 H 0.4076 0.2189 0.2022
C195_4 C 0.4121(4) 0.1962(5) 0.1475(5)
C196_4 C 0.3883(3) 0.1805(5) 0.1184(5)
H193_4 H 0.4000 0.1721 0.0950
C197_4 C 0.3469(3) 0.1766(5) 0.1224(5)
H194_4 H 0.3319 0.1659 0.1021
C198_4 C 0.4509(3) 0.2020(4) 0.1380(5)
C199_4 C 0.4781(3) 0.1734(4) 0.1481(5)
H195_4 H 0.4678 0.1493 0.1563
C200_4 C 0.5188(3) 0.1764(4) 0.1474(5)
H196_4 H 0.5346 0.1552 0.1548
C201_4 C 0.5355(4) 0.2116(4) 0.1354(5)
C202_4 C 0.5108(3) 0.2417(4) 0.1248(5)
H197_4 H 0.5207 0.2659 0.1165
C203_4 C 0.4706(3) 0.2350(4) 0.1268(5)
H198_4 H 0.4548 0.2562 0.1195
C204_4 C 0.5779(3) 0.2216(3) 0.1394(2)
O23_4 O 0.2680(2) 0.1659(3) 0.1408(3)
O26_4 O 0.5982(3) 0.1990(4) 0.1561(4)
C30_6 C 0.3236(4) 0.8526(5) 0.0188(3)
H31_6 H 0.3448 0.8452 0.0346
C31_6 C 0.2884(4) 0.8646(5) 0.0355(4)
C32_6 C 0.2583(4) 0.8752(5) 0.0108(3)
H32_6 H 0.2341 0.8835 0.0207
C34_6 C 0.2784(3) 0.8606(2) 0.0779(3)
O3_4 O 0.2501(2) 0.8723(3) 0.09314(16)
O4_6 O 0.3010(4) 0.8439(4) 0.0982(3)
Co16_2 Co 0.23004(3) 0.87447(3) 0.14615(3)
N44_4 N 0.20499(18) 0.92671(16) 0.15397(17)
N46_4 N 0.19067(19) 0.83322(17) 0.15662(18)
N47_4 N 0.13386(19) 0.68555(16) 0.22565(18)
N48_4 N 0.1461(4) 0.6732(2) 0.1907(2)
H166_4 H 0.1476 0.6488 0.1841
C176_4 C 0.1173(3) 0.9852(2) 0.1452(4)
H173_4 H 0.1036 0.9695 0.1260
H175_4 H 0.1038 0.9835 0.1701
C177_4 C 0.1578(2) 0.9707(2) 0.1496(3)
C178_4 C 0.1913(2) 0.9918(2) 0.1583(2)
C179_4 C 0.2216(2) 0.9628(2) 0.1593(3)
C180_4 C 0.2640(3) 0.9669(3) 0.1673(4)
H176_4 H 0.2730 0.9444 0.1819
H177_4 H 0.2685 0.9905 0.1823
H178_4 H 0.2780 0.9685 0.1427
C181_4 C 0.0875(3) 0.8020(3) 0.1592(4)
H179_4 H 0.0760 0.8122 0.1829
H180_4 H 0.0806 0.7747 0.1562
H181_4 H 0.0779 0.8166 0.1369
C182_4 C 0.1311(2) 0.8058(2) 0.1613(2)
C183_4 C 0.1585(2) 0.7773(2) 0.1737(2)
C184_4 C 0.1938(2) 0.7959(2) 0.1698(2)
C185_4 C 0.2353(3) 0.7782(3) 0.1765(4)
H182_4 H 0.2524 0.7859 0.1552
H183_4 H 0.2335 0.7499 0.1773
H184_4 H 0.2458 0.7877 0.2010
C186_4 C 0.1211(5) 0.7491(3) 0.2573(3)
H185_4 H 0.1142 0.7321 0.2789
H186_4 H 0.0981 0.7632 0.2487
H187_4 H 0.1409 0.7675 0.2657
C187_4 C 0.1368(2) 0.72480(19) 0.2239(2)
C188_4 C 0.1501(3) 0.7369(2) 0.1874(2)
C189_4 C 0.1556(4) 0.7024(3) 0.1674(3)
C190_4 C 0.1773(6) 0.6962(4) 0.1290(4)
H188_4 H 0.1766 0.6688 0.1220
H189_4 H 0.2043 0.7045 0.1319
H190_4 H 0.1650 0.7115 0.1086
N62_2 N 0.27435(18) 0.86614(19) 0.18555(16)
N1_6 N 0.40046(18) 0.84623(18) 0.70137(19)
N2_4 N 0.40593(17) 0.81152(19) 0.6802(2)
N4_6 N 0.57329(16) 0.84603(17) 0.70499(18)
N6_6 N 0.66678(17) 0.84338(18) 0.69067(19)
N8_6 N 0.8268(2) 0.8093(2) 0.6461(4)
H1_6 H 0.8512 0.8159 0.6476
C1_6 C 0.4416(3) 0.8992(4) 0.7318(4)
H2_6 H 0.4280 0.9200 0.7181
H3_6 H 0.4692 0.9052 0.7331
H4_6 H 0.4312 0.8969 0.7581
C2_6 C 0.4356(2) 0.8603(2) 0.7098(3)
C3_6 C 0.4658(2) 0.8368(3) 0.6945(2)
C4_6 C 0.4456(2) 0.8064(3) 0.6764(3)
C5_6 C 0.4621(3) 0.7696(3) 0.6572(4)
H5_6 H 0.4838 0.7599 0.6726
H6_6 H 0.4711 0.7758 0.6311
H7_6 H 0.4419 0.7498 0.6557
C6_6 C 0.5148(2) 0.8548(4) 0.6173(3)
H8_6 H 0.5305 0.8740 0.6036
H9_6 H 0.4878 0.8634 0.6178
H10_6 H 0.5165 0.8299 0.6038
C7_6 C 0.5293(2) 0.8504(3) 0.6578(2)
C8_6 C 0.5082(2) 0.8417(2) 0.6913(2)
C9_6 C 0.5372(2) 0.8407(3) 0.7216(2)
C10_6 C 0.5331(3) 0.8327(4) 0.7640(3)
H11_6 H 0.5556 0.8181 0.7730
H12_6 H 0.5095 0.8177 0.7685
H13_6 H 0.5315 0.8573 0.7780
C11_6 C 0.6980(3) 0.8408(4) 0.5875(3)
H14_6 H 0.6878 0.8171 0.5760
H15_6 H 0.7253 0.8438 0.5806
H16_6 H 0.6834 0.8631 0.5779
C12_6 C 0.6942(2) 0.8387(2) 0.6311(2)
C13_6 C 0.7227(2) 0.8263(2) 0.6585(2)
C14_6 C 0.7041(2) 0.8302(2) 0.6938(2)
C15_6 C 0.7218(3) 0.8235(4) 0.7353(3)
H17_6 H 0.7141 0.8448 0.7524
H18_6 H 0.7501 0.8227 0.7335
H19_6 H 0.7123 0.7990 0.7458
C16_6 C 0.7509(3) 0.7427(3) 0.6211(5)
H20_6 H 0.7679 0.7211 0.6142
H21_6 H 0.7368 0.7513 0.5981
H22_6 H 0.7325 0.7343 0.6409
C17_6 C 0.77520(19) 0.7761(2) 0.6368(2)
C18_6 C 0.7631(2) 0.8126(2) 0.6501(3)
C19_6 C 0.7976(3) 0.8326(3) 0.6556(4)
C20_6 C 0.8038(4) 0.8710(4) 0.6773(6)
H23_6 H 0.8312 0.8780 0.6766
H24_6 H 0.7955 0.8681 0.7043
H25_6 H 0.7885 0.8914 0.6650
C21_6 C 0.3145(6) 0.8370(6) 0.7843(3)
C22_6 C 0.3109(4) 0.8428(5) 0.8293(3)
C23_6 C 0.2949(5) 0.8126(5) 0.8519(4)
H26_6 H 0.2865 0.7893 0.8402
C24_6 C 0.2918(5) 0.8181(6) 0.8926(4)
H27_6 H 0.2811 0.7978 0.9076
C25_6 C 0.3038(5) 0.8525(5) 0.9121(4)
C26_6 C 0.3195(5) 0.8816(5) 0.8883(3)
H28_6 H 0.3279 0.9050 0.9000
C27_6 C 0.3234(5) 0.8776(5) 0.8469(3)
H29_6 H 0.3341 0.8979 0.8319
C28_6 C 0.2980(4) 0.8620(5) 0.9509(3)
C29_6 C 0.3266(4) 0.8519(5) 0.9781(3)
H30_6 H 0.3507 0.8437 0.9678
C33_6 C 0.2650(4) 0.8732(5) 0.9706(3)
H33_6 H 0.2438 0.8805 0.9548
O1_6 O 0.3341(3) 0.8592(3) 0.7680(2)
O2_4 O 0.2938(4) 0.8057(4) 0.7669(3)
Co13_4 Co 0.35915(3) 0.78688(3) 0.65521(3)
N25_4 N 0.34623(18) 0.79863(19) 0.59954(18)
N28_4 N 0.34603(17) 0.79501(18) 0.42671(16)
N30_4 N 0.34338(18) 0.80933(19) 0.33322(17)
N32_4 N 0.3093(2) 0.8539(4) 0.1732(2)
H100_4 H 0.3159 0.8524 0.1488
C103_4 C 0.3992(4) 0.7682(4) 0.5584(3)
H101_4 H 0.4200 0.7819 0.5720
H102_4 H 0.4052 0.7669 0.5308
H103_4 H 0.3969 0.7419 0.5688
C104_4 C 0.3603(2) 0.7902(3) 0.5644(2)
C105_4 C 0.3368(3) 0.8055(2) 0.5342(2)
C106_4 C 0.3064(3) 0.8236(3) 0.5544(2)
C107_4 C 0.2696(3) 0.8428(4) 0.5379(3)
H104_4 H 0.2599 0.8274 0.5162
H105_4 H 0.2758 0.8689 0.5289
H106_4 H 0.2498 0.8443 0.5581
C108_4 C 0.3548(4) 0.8827(3) 0.4852(2)
H107_4 H 0.3740 0.8964 0.4695
H108_4 H 0.3634 0.8822 0.5122
H109_4 H 0.3299 0.8962 0.4835
C109_4 C 0.3504(3) 0.8422(2) 0.4707(2)
C110_4 C 0.3417(2) 0.8087(2) 0.4918(2)
C111_4 C 0.3407(3) 0.7784(2) 0.4628(2)
C112_4 C 0.3327(4) 0.7360(3) 0.4669(3)
H110_4 H 0.3181 0.7270 0.4444
H111_4 H 0.3177 0.7315 0.4905
H112_4 H 0.3573 0.7220 0.4685
C113_4 C 0.3408(4) 0.9125(3) 0.3020(3)
H113_4 H 0.3171 0.9240 0.3122
H114_4 H 0.3438 0.9194 0.2747
H115_4 H 0.3631 0.9221 0.3166
C114_4 C 0.3387(2) 0.8689(2) 0.3058(2)
C115_4 C 0.3263(2) 0.8415(2) 0.2773(2)
C116_4 C 0.3302(2) 0.8062(2) 0.2959(2)
C117_4 C 0.3235(4) 0.7647(3) 0.2782(3)
H116_4 H 0.3448 0.7476 0.2859
H117_4 H 0.3227 0.7665 0.2499
H118_4 H 0.2990 0.7542 0.2877
C118_4 C 0.2427(3) 0.8789(5) 0.2491(3)
H119_4 H 0.2211 0.8858 0.2321
H120_4 H 0.2513 0.9019 0.2632
H121_4 H 0.2343 0.8591 0.2675
C119_4 C 0.2761(2) 0.8632(2) 0.22480(19)
C120_4 C 0.3126(2) 0.8499(3) 0.2369(2)
C121_4 C 0.3326(3) 0.8444(4) 0.2024(3)
C122_4 C 0.3710(4) 0.8227(6) 0.1962(4)
H122_4 H 0.3780 0.8234 0.1688
H123_4 H 0.3681 0.7957 0.2045
H124_4 H 0.3914 0.8350 0.2115
C123_4 C 0.3370(6) 0.7157(3) 0.6855(6)
C124_4 C 0.3428(5) 0.6707(3) 0.6891(4)
C125_4 C 0.3126(5) 0.6481(4) 0.7051(5)
H125_4 H 0.2893 0.6598 0.7135
C126_4 C 0.3181(6) 0.6074(4) 0.7082(5)
H126_4 H 0.2978 0.5924 0.7189
C127_4 C 0.3525(5) 0.5879(4) 0.6962(5)
C128_4 C 0.3816(5) 0.6117(3) 0.6805(5)
H127_4 H 0.4050 0.6000 0.6721
C129_4 C 0.3776(5) 0.6531(3) 0.6766(5)
H128_4 H 0.3979 0.6681 0.6659
C130_4 C 0.3620(5) 0.5491(3) 0.7020(4)
C131_4 C 0.3519(5) 0.5219(3) 0.6734(4)
H129_4 H 0.3437 0.5322 0.6493
C132_4 C 0.3526(5) 0.4812(3) 0.6764(4)
H130_4 H 0.3452 0.4654 0.6552
C133_4 C 0.3646(5) 0.4645(4) 0.7116(4)
C134_4 C 0.3752(5) 0.4892(3) 0.7417(4)
H131_4 H 0.3835 0.4793 0.7659
C135_4 C 0.3732(5) 0.5294(3) 0.7350(4)
H132_4 H 0.3805 0.5452 0.7562
C136_4 C 0.3606(2) 0.4221(3) 0.7216(3)
O15_4 O 0.3592(3) 0.7320(2) 0.6659(3)
O16_4 O 0.3057(4) 0.7331(3) 0.7062(4)
O17_4 O 0.3723(3) 0.40686(16) 0.7499(2)
O18_4 O 0.3439(4) 0.4018(3) 0.6990(4)
N33_4 N 0.70137(19) 0.40046(18) 0.84623(18)
N34_4 N 0.6802(2) 0.40593(17) 0.81152(19)
N36_4 N 0.70499(18) 0.57329(16) 0.84603(17)
N38_4 N 0.69067(19) 0.66678(17) 0.84338(18)
N39_4 N 0.63386(19) 0.81445(16) 0.77435(18)
N40_4 N 0.6461(4) 0.8268(2) 0.8093(2)
H133_4 H 0.6476 0.8512 0.8159
C137_4 C 0.7318(4) 0.4416(3) 0.8992(4)
H134_4 H 0.7181 0.4280 0.9200
H135_4 H 0.7331 0.4692 0.9052
H136_4 H 0.7581 0.4312 0.8969
C138_4 C 0.7098(3) 0.4356(2) 0.8603(2)
C139_4 C 0.6945(2) 0.4658(2) 0.8368(3)
C140_4 C 0.6764(3) 0.4456(2) 0.8064(3)
C141_4 C 0.6572(4) 0.4621(3) 0.7696(3)
H137_4 H 0.6726 0.4838 0.7599
H138_4 H 0.6311 0.4711 0.7758
H139_4 H 0.6557 0.4419 0.7498
C142_4 C 0.6173(3) 0.5148(2) 0.8548(4)
H140_4 H 0.6036 0.5305 0.8740
H141_4 H 0.6178 0.4878 0.8634
H142_4 H 0.6038 0.5165 0.8299
C143_4 C 0.6578(2) 0.5293(2) 0.8504(3)
C144_4 C 0.6913(2) 0.5082(2) 0.8417(2)
C145_4 C 0.7216(2) 0.5372(2) 0.8407(3)
C146_4 C 0.7640(3) 0.5331(3) 0.8327(4)
H143_4 H 0.7730 0.5556 0.8181
H144_4 H 0.7685 0.5095 0.8177
H145_4 H 0.7780 0.5315 0.8573
C147_4 C 0.5875(3) 0.6980(3) 0.8408(4)
H146_4 H 0.5760 0.6878 0.8171
H147_4 H 0.5806 0.7253 0.8438
H148_4 H 0.5779 0.6834 0.8631
C148_4 C 0.6311(2) 0.6942(2) 0.8387(2)
C149_4 C 0.6585(2) 0.7227(2) 0.8263(2)
C150_4 C 0.6938(2) 0.7041(2) 0.8302(2)
C151_4 C 0.7353(3) 0.7218(3) 0.8235(4)
H149_4 H 0.7524 0.7141 0.8448
H150_4 H 0.7335 0.7501 0.8227
H151_4 H 0.7458 0.7123 0.7990
C152_4 C 0.6211(5) 0.7509(3) 0.7427(3)
H152_4 H 0.6142 0.7679 0.7211
H153_4 H 0.5981 0.7368 0.7513
H154_4 H 0.6409 0.7325 0.7343
C153_4 C 0.6368(2) 0.77520(19) 0.7761(2)
C154_4 C 0.6501(3) 0.7631(2) 0.8126(2)
C155_4 C 0.6556(4) 0.7976(3) 0.8326(3)
C156_4 C 0.6773(6) 0.8038(4) 0.8710(4)
H155_4 H 0.6766 0.8312 0.8780
H156_4 H 0.7043 0.7955 0.8681
H157_4 H 0.6650 0.7885 0.8914
C157_4 C 0.7843(3) 0.3145(6) 0.8370(6)
C158_4 C 0.8293(3) 0.3109(4) 0.8428(5)
C159_4 C 0.8519(4) 0.2949(5) 0.8126(5)
H158_4 H 0.8402 0.2865 0.7893
C160_4 C 0.8926(4) 0.2918(5) 0.8181(6)
H159_4 H 0.9076 0.2811 0.7978
C161_4 C 0.9121(4) 0.3038(5) 0.8525(5)
C162_4 C 0.8883(3) 0.3195(5) 0.8816(5)
H160_4 H 0.9000 0.3279 0.9050
C163_4 C 0.8469(3) 0.3234(5) 0.8776(5)
H161_4 H 0.8319 0.3341 0.8979
C164_4 C 0.9509(3) 0.2980(4) 0.8620(5)
C165_4 C 0.9781(3) 0.3266(4) 0.8519(5)
H162_4 H 0.9678 0.3507 0.8437
C169_4 C 0.9706(3) 0.2650(4) 0.8732(5)
H165_4 H 0.9548 0.2438 0.8805
O19_4 O 0.7680(2) 0.3341(3) 0.8592(3)
N61_4 N 0.31445(16) 0.72565(18) 0.36614(19)
O27_4 O 0.7938(4) 0.6943(4) 0.2331(3)
O30_4 O 0.7501(2) 0.6277(3) 0.90686(16)
N1_7 N 0.59954(18) 0.34623(18) 0.79863(19)
N4_7 N 0.42671(16) 0.34603(17) 0.79501(18)
N6_7 N 0.33322(17) 0.34338(18) 0.80933(19)
N8_7 N 0.1732(2) 0.3093(2) 0.8539(4)
H1_7 H 0.1488 0.3159 0.8524
C1_7 C 0.5584(3) 0.3992(4) 0.7682(4)
H2_7 H 0.5720 0.4200 0.7819
H3_7 H 0.5308 0.4052 0.7669
H4_7 H 0.5688 0.3969 0.7419
C2_7 C 0.5644(2) 0.3603(2) 0.7902(3)
C3_7 C 0.5342(2) 0.3368(3) 0.8055(2)
C4_7 C 0.5544(2) 0.3064(3) 0.8236(3)
C5_7 C 0.5379(3) 0.2696(3) 0.8428(4)
H5_7 H 0.5162 0.2599 0.8274
H6_7 H 0.5289 0.2758 0.8689
H7_7 H 0.5581 0.2498 0.8443
C6_7 C 0.4852(2) 0.3548(4) 0.8827(3)
H8_7 H 0.4695 0.3740 0.8964
H9_7 H 0.5122 0.3634 0.8822
H10_7 H 0.4835 0.3299 0.8962
C7_7 C 0.4707(2) 0.3504(3) 0.8422(2)
C8_7 C 0.4918(2) 0.3417(2) 0.8087(2)
C9_7 C 0.4628(2) 0.3407(3) 0.7784(2)
C10_7 C 0.4669(3) 0.3327(4) 0.7360(3)
H11_7 H 0.4444 0.3181 0.7270
H12_7 H 0.4905 0.3177 0.7315
H13_7 H 0.4685 0.3573 0.7220
C11_7 C 0.3020(3) 0.3408(4) 0.9125(3)
H14_7 H 0.3122 0.3171 0.9240
H15_7 H 0.2747 0.3438 0.9194
H16_7 H 0.3166 0.3631 0.9221
C12_7 C 0.3058(2) 0.3387(2) 0.8689(2)
C13_7 C 0.2773(2) 0.3263(2) 0.8415(2)
C14_7 C 0.2959(2) 0.3302(2) 0.8062(2)
C15_7 C 0.2782(3) 0.3235(4) 0.7647(3)
H17_7 H 0.2859 0.3448 0.7476
H18_7 H 0.2499 0.3227 0.7665
H19_7 H 0.2877 0.2990 0.7542
C16_7 C 0.2491(3) 0.2427(3) 0.8789(5)
H20_7 H 0.2321 0.2211 0.8858
H21_7 H 0.2632 0.2513 0.9019
H22_7 H 0.2675 0.2343 0.8591
C17_7 C 0.22480(19) 0.2761(2) 0.8632(2)
C18_7 C 0.2369(2) 0.3126(2) 0.8499(3)
C19_7 C 0.2024(3) 0.3326(3) 0.8444(4)
C20_7 C 0.1962(4) 0.3710(4) 0.8227(6)
H23_7 H 0.1688 0.3780 0.8234
H24_7 H 0.2045 0.3681 0.7957
H25_7 H 0.2115 0.3914 0.8350
C21_7 C 0.6855(6) 0.3370(6) 0.7157(3)
C22_7 C 0.6891(4) 0.3428(5) 0.6707(3)
C23_7 C 0.7051(5) 0.3126(5) 0.6481(4)
H26_7 H 0.7135 0.2893 0.6598
C24_7 C 0.7082(5) 0.3181(6) 0.6074(4)
H27_7 H 0.7189 0.2978 0.5924
C25_7 C 0.6962(5) 0.3525(5) 0.5879(4)
C26_7 C 0.6805(5) 0.3816(5) 0.6117(3)
H28_7 H 0.6721 0.4050 0.6000
C27_7 C 0.6766(5) 0.3776(5) 0.6531(3)
H29_7 H 0.6659 0.3979 0.6681
C28_7 C 0.7020(4) 0.3620(5) 0.5491(3)
C29_7 C 0.6734(4) 0.3519(5) 0.5219(3)
H30_7 H 0.6493 0.3437 0.5322
C30_7 C 0.6764(4) 0.3526(5) 0.4812(3)
H31_7 H 0.6552 0.3452 0.4654
C31_7 C 0.7116(4) 0.3646(5) 0.4645(4)
C32_7 C 0.7417(4) 0.3752(5) 0.4892(3)
H32_7 H 0.7659 0.3835 0.4793
C33_7 C 0.7350(4) 0.3732(5) 0.5294(3)
H33_7 H 0.7562 0.3805 0.5452
C34_7 C 0.7216(3) 0.3606(2) 0.4221(3)
O1_7 O 0.6659(3) 0.3592(3) 0.7320(2)
O4_7 O 0.6990(4) 0.3439(4) 0.4018(3)
N4_8 N 0.07329(16) 0.65397(17) 0.29501(18)
N6_8 N 0.16678(17) 0.65662(18) 0.30933(19)
N8_8 N 0.3268(2) 0.6907(2) 0.3539(4)
H1_8 H 0.3512 0.6841 0.3524
C6_8 C 0.0148(2) 0.6452(4) 0.3827(3)
H8_8 H 0.0305 0.6260 0.3964
H10_8 H 0.0165 0.6701 0.3962
C7_8 C 0.0293(2) 0.6496(3) 0.3422(2)
C8_8 C 0.0082(2) 0.6583(2) 0.3087(2)
C9_8 C 0.0372(2) 0.6593(3) 0.2784(2)
C10_8 C 0.0331(3) 0.6673(4) 0.2360(3)
H11_8 H 0.0556 0.6819 0.2270
H12_8 H 0.0095 0.6823 0.2315
H13_8 H 0.0315 0.6427 0.2220
C11_8 C 0.1980(3) 0.6592(4) 0.4125(3)
H14_8 H 0.1878 0.6829 0.4240
H15_8 H 0.2253 0.6562 0.4194
H16_8 H 0.1834 0.6369 0.4221
C12_8 C 0.1942(2) 0.6613(2) 0.3689(2)
C13_8 C 0.2227(2) 0.6737(2) 0.3415(2)
C14_8 C 0.2041(2) 0.6698(2) 0.3062(2)
C15_8 C 0.2218(3) 0.6765(4) 0.2647(3)
H17_8 H 0.2141 0.6552 0.2476
H18_8 H 0.2501 0.6773 0.2665
H19_8 H 0.2123 0.7010 0.2542
C16_8 C 0.2509(3) 0.7573(3) 0.3789(5)
H20_8 H 0.2679 0.7789 0.3858
H21_8 H 0.2368 0.7487 0.4019
H22_8 H 0.2325 0.7657 0.3591
C17_8 C 0.27520(19) 0.7239(2) 0.3632(2)
C18_8 C 0.2631(2) 0.6874(2) 0.3499(3)
C19_8 C 0.2976(3) 0.6674(3) 0.3444(4)
C20_8 C 0.3038(4) 0.6290(4) 0.3227(6)
H23_8 H 0.3312 0.6220 0.3234
H24_8 H 0.2955 0.6319 0.2957
H25_8 H 0.2885 0.6086 0.3350
N1_8 N 0.90046(18) 0.65377(18) 0.29863(19)
C1_8 C 0.9416(3) 0.6008(4) 0.2682(4)
H2_8 H 0.9280 0.5800 0.2819
H3_8 H 0.9692 0.5948 0.2669
H4_8 H 0.9312 0.6031 0.2419
C2_8 C 0.9356(2) 0.6397(2) 0.2902(3)
C3_8 C 0.9658(2) 0.6632(3) 0.3055(2)
C4_8 C 0.9456(2) 0.6936(3) 0.3236(3)
C5_8 C 0.9621(3) 0.7304(3) 0.3428(4)
H5_8 H 0.9838 0.7401 0.3274
H6_8 H 0.9711 0.7242 0.3689
H7_8 H 0.9419 0.7502 0.3443
H9_8 H 0.9878 0.6366 0.3822
C21_8 C 0.8145(6) 0.6630(6) 0.2157(3)
C22_8 C 0.8109(4) 0.6572(5) 0.1707(3)
C23_8 C 0.7949(5) 0.6874(5) 0.1481(4)
H26_8 H 0.7865 0.7107 0.1598
C24_8 C 0.7918(5) 0.6819(6) 0.1074(4)
H27_8 H 0.7811 0.7022 0.0924
C25_8 C 0.8038(5) 0.6475(5) 0.0879(4)
C26_8 C 0.8195(5) 0.6184(5) 0.1117(3)
H28_8 H 0.8279 0.5950 0.1000
C27_8 C 0.8234(5) 0.6224(5) 0.1531(3)
H29_8 H 0.8341 0.6021 0.1681
C28_8 C 0.7980(4) 0.6380(5) 0.0491(3)
C29_8 C 0.8266(4) 0.6481(5) 0.0219(3)
H30_8 H 0.8507 0.6563 0.0322
C33_8 C 0.7650(4) 0.6268(5) 0.0294(3)
H33_8 H 0.7438 0.6195 0.0452
O1_8 O 0.8341(3) 0.6408(3) 0.2320(2)
C30_8 C 0.8236(4) 0.6474(5) 0.9812(3)
H31_8 H 0.8448 0.6548 0.9654
C31_8 C 0.7884(4) 0.6354(5) 0.9645(4)
C32_8 C 0.7583(4) 0.6248(5) 0.9892(3)
H32_8 H 0.7341 0.6165 0.9793
C34_8 C 0.7784(3) 0.6394(2) 0.9221(3)
O4_8 O 0.8010(4) 0.6561(4) 0.9018(3)
loop_
_geom_bond_atom_site_label_1
_geom_bond_atom_site_label_2
_geom_bond_site_symmetry_1
_geom_bond_site_symmetry_2
H110 C112 1_555 1_555
H111 C112 1_555 1_555
H112 C112 1_555 1_555
C123 C124 1_555 1_555
C124 C125 1_555 1_555
C125 H125 1_555 1_555
C126 C125 1_555 1_555
H126 C126 1_555 1_555
C127 C126 1_555 1_555
C128 C127 1_555 1_555
H127 C128 1_555 1_555
C129 C124 1_555 1_555
H128 C129 1_555 1_555
C130 C127 1_555 1_555
C131 C130 1_555 1_555
H129 C131 1_555 1_555
C132 C131 1_555 1_555
H130 C132 1_555 1_555
C133 C132 1_555 1_555
C134 C133 1_555 1_555
C135 C130 1_555 1_555
C136 C133 1_555 1_555
O17 C136 1_555 1_555
O18 C136 1_555 1_555
C123 O15 1_555 1_555
C123 O16 1_555 1_555
C128 C129 1_555 1_555
C134 C135 1_555 1_555
C50 H53 1_555 1_555
Co15 N33 1_555 1_555
N33 N34 1_555 1_555
N34 C140 1_555 1_555
N35 N36 1_555 1_555
N36 Co14 1_555 1_555
N37 N38 1_555 1_555
N38 Co14 1_555 1_555
C137 H134 1_555 1_555
H135 C137 1_555 1_555
C138 N33 1_555 1_555
C139 C138 1_555 1_555
C140 C139 1_555 1_555
C141 C140 1_555 1_555
H137 C141 1_555 1_555
H138 C141 1_555 1_555
C142 H140 1_555 1_555
H141 C142 1_555 1_555
H142 C142 1_555 1_555
C143 N35 1_555 1_555
C144 C139 1_555 1_555
C145 N36 1_555 1_555
C147 H146 1_555 1_555
H147 C147 1_555 1_555
H148 C147 1_555 1_555
C148 N37 1_555 1_555
C149 C148 1_555 1_555
C150 N38 1_555 1_555
C151 C150 1_555 1_555
H151 C151 1_555 1_555
N47 N48 1_555 1_555
N48 H166 1_555 1_555
C186 H185 1_555 1_555
C187 N47 1_555 1_555
C189 N48 1_555 1_555
C190 C189 1_555 1_555
H188 C190 1_555 1_555
H189 C190 1_555 1_555
H190 C190 1_555 1_555
Co19 N47 1_555 1_555
Co25 N35 1_555 1_555
Co29 N34 1_555 1_555
N52 Co15 1_555 1_555
O35 Co15 1_555 1_555
N37 Co25 1_555 1_555
C137 C138 1_555 1_555
C142 C143 1_555 1_555
C143 C144 1_555 1_555
C144 C145 1_555 1_555
C147 C148 1_555 1_555
C149 C150 1_555 1_555
C186 C187 1_555 1_555
C187 C188 1_555 1_555
C188 C189 1_555 1_555
Co29 O35 1_555 1_555
Co35 O35 1_555 1_555
C16 H20 1_555 1_555
Co6 N11 1_555 1_555
Co7 N9 1_555 1_555
N9 N10 1_555 1_555
N10 C38 1_555 1_555
N11 N12 1_555 1_555
N12 Co5 1_555 1_555
N13 Co6 1_555 1_555
N14 Co5 1_555 1_555
C35 H35 1_555 1_555
H36 C35 1_555 1_555
C36 N9 1_555 1_555
C37 C36 1_555 1_555
C38 C37 1_555 1_555
C39 C38 1_555 1_555
H38 C39 1_555 1_555
H39 C39 1_555 1_555
C40 H41 1_555 1_555
H42 C40 1_555 1_555
H43 C40 1_555 1_555
C41 N11 1_555 1_555
C42 C37 1_555 1_555
C43 N12 1_555 1_555
C45 H47 1_555 1_555
H48 C45 1_555 1_555
H49 C45 1_555 1_555
C46 N13 1_555 1_555
C47 C46 1_555 1_555
C48 N14 1_555 1_555
C49 C48 1_555 1_555
H52 C49 1_555 1_555
O10 Co7 1_555 1_555
Co28 O10 1_555 1_555
Co32 N10 1_555 1_555
N49 Co7 1_555 1_555
N56 Co6 1_555 1_555
N59 Co6 1_555 1_555
O27 Co8 1_555 1_555
Co8 O10 1_555 1_555
N13 N14 1_555 1_555
C35 C36 1_555 1_555
C40 C41 1_555 1_555
C41 C42 1_555 1_555
C42 C43 1_555 1_555
C45 C46 1_555 1_555
C47 C48 1_555 1_555
O10 Co32 1_555 1_555
N15 N16 1_555 1_555
N16 H34 1_555 1_555
C51 N15 1_555 1_555
C53 N16 1_555 1_555
C54 C53 1_555 1_555
H56 C54 1_555 1_555
H57 C54 1_555 1_555
H58 C54 1_555 1_555
H143 C146 1_555 1_555
H144 C146 1_555 1_555
H145 C146 1_555 1_555
C157 C158 1_555 1_555
C158 C159 1_555 1_555
C159 H158 1_555 1_555
C160 C159 1_555 1_555
H159 C160 1_555 1_555
C161 C160 1_555 1_555
C162 C161 1_555 1_555
H160 C162 1_555 1_555
C163 C158 1_555 1_555
H161 C163 1_555 1_555
C164 C161 1_555 1_555
C165 C164 1_555 1_555
H162 C165 1_555 1_555
C166 C165 1_555 1_555
H163 C166 1_555 1_555
C167 C166 1_555 1_555
C168 C167 1_555 1_555
H164 C168 1_555 1_555
C169 C164 1_555 1_555
H165 C169 1_555 1_555
C170 C167 1_555 1_555
O20 C157 1_555 1_555
O21 C170 1_555 1_555
O22 C170 1_555 1_555
Co21 O21 1_555 1_555
C51 C52 1_555 1_555
C52 C53 1_555 1_555
C157 O19 1_555 1_555
C162 C163 1_555 1_555
C168 C169 1_555 1_555
Co1 N4 1_555 1_555
Co2 N3 1_555 1_555
Co3 N1 1_555 1_555
N1 N2 1_555 1_555
N2 C4 1_555 1_555
N3 N4 1_555 1_555
N4 C9 1_555 1_555
N5 Co2 1_555 1_555
N6 Co1 1_555 1_555
C1 H2 1_555 1_555
H3 C1 1_555 1_555
C2 N1 1_555 1_555
C3 C2 1_555 1_555
C4 C3 1_555 1_555
C5 C4 1_555 1_555
H5 C5 1_555 1_555
H6 C5 1_555 1_555
C6 H8 1_555 1_555
H9 C6 1_555 1_555
H10 C6 1_555 1_555
C7 N3 1_555 1_555
C8 C3 1_555 1_555
C9 C8 1_555 1_555
C11 H14 1_555 1_555
H15 C11 1_555 1_555
H16 C11 1_555 1_555
C12 N5 1_555 1_555
C13 C12 1_555 1_555
C14 N6 1_555 1_555
C15 C14 1_555 1_555
H19 C15 1_555 1_555
O5 Co3 1_555 1_555
Co12 N28 1_555 1_555
Co13 N2 1_555 1_555
N25 Co13 1_555 1_555
N26 N25 1_555 1_555
N27 N28 1_555 1_555
N28 C111 1_555 1_555
N29 N30 1_555 1_555
N30 Co12 1_555 1_555
N31 N32 1_555 1_555
N32 H100 1_555 1_555
C103 H101 1_555 1_555
H102 C103 1_555 1_555
C104 N25 1_555 1_555
C105 C104 1_555 1_555
C106 N26 1_555 1_555
C107 C106 1_555 1_555
H104 C107 1_555 1_555
H105 C107 1_555 1_555
H106 C107 1_555 1_555
C108 H107 1_555 1_555
H108 C108 1_555 1_555
H109 C108 1_555 1_555
C109 N27 1_555 1_555
C110 C105 1_555 1_555
C111 C110 1_555 1_555
C113 H113 1_555 1_555
H114 C113 1_555 1_555
H115 C113 1_555 1_555
C114 N29 1_555 1_555
C115 C114 1_555 1_555
C116 N30 1_555 1_555
C117 C116 1_555 1_555
H117 C117 1_555 1_555
H118 C117 1_555 1_555
C118 H119 1_555 1_555
H120 C118 1_555 1_555
H121 C118 1_555 1_555
C119 N31 1_555 1_555
C120 C115 1_555 1_555
C121 N32 1_555 1_555
C122 C121 1_555 1_555
H122 C122 1_555 1_555
H123 C122 1_555 1_555
H124 C122 1_555 1_555
C152 H152 1_555 1_555
Co22 N31 1_555 1_555
Co24 N27 1_555 1_555
Co31 O5 1_555 1_555
N53 Co3 1_555 1_555
N54 Co2 1_555 1_555
N57 Co2 1_555 1_555
O28 Co4 1_555 1_555
Co4 O5 1_555 1_555
N5 N6 1_555 1_555
C1 C2 1_555 1_555
C6 C7 1_555 1_555
C7 C8 1_555 1_555
C11 C12 1_555 1_555
C13 C14 1_555 1_555
O5 Co13 1_555 1_555
N26 Co31 1_555 1_555
N29 Co24 1_555 1_555
C103 C104 1_555 1_555
C105 C106 1_555 1_555
C108 C109 1_555 1_555
C109 C110 1_555 1_555
C113 C114 1_555 1_555
C115 C116 1_555 1_555
C118 C119 1_555 1_555
C119 C120 1_555 1_555
C120 C121 1_555 1_555
H11 C10 1_555 1_555
H12 C10 1_555 1_555
H13 C10 1_555 1_555
C21 C22 1_555 1_555
C22 C23 1_555 1_555
C23 H26 1_555 1_555
C24 C23 1_555 1_555
H27 C24 1_555 1_555
C25 C24 1_555 1_555
C26 C25 1_555 1_555
H28 C26 1_555 1_555
C27 C22 1_555 1_555
H29 C27 1_555 1_555
C28 C25 1_555 1_555
C29 C28 1_555 1_555
H30 C29 1_555 1_555
C30 C29 1_555 1_555
H31 C30 1_555 1_555
C31 C30 1_555 1_555
C32 C31 1_555 1_555
H32 C32 1_555 1_555
C33 C28 1_555 1_555
H33 C33 1_555 1_555
C34 C31 1_555 1_555
O2 C21 1_555 1_555
O3 C34 1_555 1_555
O4 C34 1_555 1_555
Co9 N20 1_555 1_555
Co10 N19 1_555 1_555
Co11 N17 1_555 1_555
N17 N52 1_555 1_555
N52 C72 1_555 1_555
N19 N20 1_555 1_555
N20 C77 1_555 1_555
N21 Co10 1_555 1_555
N22 Co9 1_555 1_555
N23 N24 1_555 1_555
N24 H67 1_555 1_555
C69 H68 1_555 1_555
H69 C69 1_555 1_555
H70 C69 1_555 1_555
C70 N17 1_555 1_555
C71 C70 1_555 1_555
C72 C71 1_555 1_555
C73 C72 1_555 1_555
H71 C73 1_555 1_555
H72 C73 1_555 1_555
C74 H74 1_555 1_555
H75 C74 1_555 1_555
H76 C74 1_555 1_555
C75 N19 1_555 1_555
C76 C71 1_555 1_555
C77 C76 1_555 1_555
C78 C77 1_555 1_555
H77 C78 1_555 1_555
H78 C78 1_555 1_555
H79 C78 1_555 1_555
C79 H80 1_555 1_555
H81 C79 1_555 1_555
H82 C79 1_555 1_555
C80 N21 1_555 1_555
C81 C80 1_555 1_555
C82 N22 1_555 1_555
C83 C82 1_555 1_555
H83 C83 1_555 1_555
H84 C83 1_555 1_555
H85 C83 1_555 1_555
C85 N23 1_555 1_555
C86 C81 1_555 1_555
C87 N24 1_555 1_555
C88 C87 1_555 1_555
H89 C88 1_555 1_555
H90 C88 1_555 1_555
H91 C88 1_555 1_555
C89 C90 1_555 1_555
C90 C91 1_555 1_555
C91 H92 1_555 1_555
C92 C91 1_555 1_555
H93 C92 1_555 1_555
C93 C92 1_555 1_555
C94 C93 1_555 1_555
H94 C94 1_555 1_555
C95 C90 1_555 1_555
H95 C95 1_555 1_555
C96 C93 1_555 1_555
C97 C96 1_555 1_555
H96 C97 1_555 1_555
C98 C97 1_555 1_555
H97 C98 1_555 1_555
C99 C98 1_555 1_555
C100 C99 1_555 1_555
C101 C96 1_555 1_555
C102 C99 1_555 1_555
O11 Co11 1_555 1_555
O12 C89 1_555 1_555
O14 C102 1_555 1_555
N40 N39 1_555 1_555
H133 N40 1_555 1_555
C153 N39 1_555 1_555
C155 N40 1_555 1_555
C156 C155 1_555 1_555
H155 C156 1_555 1_555
H156 C156 1_555 1_555
H157 C156 1_555 1_555
Co22 O3 1_555 1_555
Co17 N41 1_555 1_555
N41 N42 1_555 1_555
N42 C174 1_555 1_555
N43 N44 1_555 1_555
N44 Co22 1_555 1_555
N45 N46 1_555 1_555
N46 Co22 1_555 1_555
C171 H167 1_555 1_555
H168 C171 1_555 1_555
H169 C171 1_555 1_555
C172 N41 1_555 1_555
C173 C172 1_555 1_555
C174 C173 1_555 1_555
C175 C174 1_555 1_555
H170 C175 1_555 1_555
H171 C175 1_555 1_555
H172 C175 1_555 1_555
C176 H173 1_555 1_555
H174 C176 1_555 1_555
H175 C176 1_555 1_555
C177 N43 1_555 1_555
C178 C173 1_555 1_555
C179 N44 1_555 1_555
C180 C179 1_555 1_555
H176 C180 1_555 1_555
H177 C180 1_555 1_555
H178 C180 1_555 1_555
C181 H179 1_555 1_555
H180 C181 1_555 1_555
H181 C181 1_555 1_555
C182 N45 1_555 1_555
C183 C182 1_555 1_555
C184 N46 1_555 1_555
C185 C184 1_555 1_555
H182 C185 1_555 1_555
H184 C185 1_555 1_555
C191 C192 1_555 1_555
C192 C193 1_555 1_555
C193 H191 1_555 1_555
C194 C193 1_555 1_555
H192 C194 1_555 1_555
C195 C194 1_555 1_555
C196 C195 1_555 1_555
H193 C196 1_555 1_555
C197 C192 1_555 1_555
H194 C197 1_555 1_555
C198 C195 1_555 1_555
C199 C198 1_555 1_555
H195 C199 1_555 1_555
C200 C199 1_555 1_555
H196 C200 1_555 1_555
C201 C200 1_555 1_555
C202 C201 1_555 1_555
H197 C202 1_555 1_555
C203 C198 1_555 1_555
H198 C203 1_555 1_555
C204 C201 1_555 1_555
O23 Co17 1_555 1_555
O24 C191 1_555 1_555
O25 Co9 1_555 1_555
O26 C204 1_555 1_555
Co26 N43 1_555 1_555
Co27 N42 1_555 1_555
Co33 O24 1_555 1_555
Co35 O12 1_555 1_555
N50 Co11 1_555 1_555
N51 Co17 1_555 1_555
N55 Co10 1_555 1_555
N58 Co10 1_555 1_555
N60 Co9 1_555 1_555
O33 Co17 1_555 1_555
O35 Co11 1_555 1_555
C21 O1 1_555 1_555
C26 C27 1_555 1_555
C32 C33 1_555 1_555
N21 N22 1_555 1_555
C69 C70 1_555 1_555
C74 C75 1_555 1_555
C75 C76 1_555 1_555
C79 C80 1_555 1_555
C81 C82 1_555 1_555
C85 C86 1_555 1_555
C86 C87 1_555 1_555
C89 O11 1_555 1_555
C94 C95 1_555 1_555
C100 C101 1_555 1_555
C102 O13 1_555 1_555
C153 C154 1_555 1_555
C154 C155 1_555 1_555
N45 Co26 1_555 1_555
C171 C172 1_555 1_555
C176 C177 1_555 1_555
C177 C178 1_555 1_555
C178 C179 1_555 1_555
C181 C182 1_555 1_555
C183 C184 1_555 1_555
C191 O23 1_555 1_555
C196 C197 1_555 1_555
C202 C203 1_555 1_555
C204 O25 1_555 1_555
Co27 O33 1_555 1_555
Co33 O33 1_555 1_555
N7 N8 1_555 1_555
N8 H1 1_555 1_555
C17 N7 1_555 1_555
C19 N8 1_555 1_555
C20 C19 1_555 1_555
H23 C20 1_555 1_555
H24 C20 1_555 1_555
H25 C20 1_555 1_555
H44 C44 1_555 1_555
H45 C44 1_555 1_555
H46 C44 1_555 1_555
C55 C56 1_555 1_555
C56 C57 1_555 1_555
C57 H59 1_555 1_555
C58 C57 1_555 1_555
H60 C58 1_555 1_555
C59 C58 1_555 1_555
C60 C59 1_555 1_555
H61 C60 1_555 1_555
C61 C56 1_555 1_555
H62 C61 1_555 1_555
C62 C59 1_555 1_555
C63 C62 1_555 1_555
H63 C63 1_555 1_555
C64 C63 1_555 1_555
H64 C64 1_555 1_555
C65 C64 1_555 1_555
C66 C65 1_555 1_555
H65 C66 1_555 1_555
C67 C62 1_555 1_555
H66 C67 1_555 1_555
C68 C65 1_555 1_555
O7 C55 1_555 1_555
O8 C68 1_555 1_555
O9 C68 1_555 1_555
Co18 O8 1_555 1_555
C17 C18 1_555 1_555
C18 C19 1_555 1_555
C55 O6 1_555 1_555
C60 C61 1_555 1_555
C66 C67 1_555 1_555
C84 H86 1_555 1_555
H88 C84 1_555 1_555
N60 N8_2 1_555 1_555
N8_2 H1_2 1_555 1_555
C16_2 H20_2 1_555 1_555
C17_2 N60 1_555 1_555
C19_2 N8_2 1_555 1_555
C20_2 C19_2 1_555 1_555
H23_2 C20_2 1_555 1_555
H24_2 C20_2 1_555 1_555
H25_2 C20_2 1_555 1_555
H143_2 C146_2 1_555 1_555
H144_2 C146_2 1_555 1_555
H145_2 C146_2 1_555 1_555
C157_2 C158_2 1_555 1_555
C158_2 C159_2 1_555 1_555
C159_2 H158_2 1_555 1_555
C160_2 C159_2 1_555 1_555
H159_2 C160_2 1_555 1_555
C161_2 C160_2 1_555 1_555
C162_2 C161_2 1_555 1_555
H160_2 C162_2 1_555 1_555
C163_2 C158_2 1_555 1_555
H161_2 C163_2 1_555 1_555
C164_2 C161_2 1_555 1_555
C165_2 C164_2 1_555 1_555
H162_2 C165_2 1_555 1_555
C166_2 C165_2 1_555 1_555
H163_2 C166_2 1_555 1_555
C167_2 C166_2 1_555 1_555
C168_2 C167_2 1_555 1_555
C169_2 C164_2 1_555 1_555
C170_2 C167_2 1_555 1_555
O29 C157_2 1_555 1_555
O32 C170_2 1_555 1_555
O22_2 C170_2 1_555 1_555
C16_2 C17_2 1_555 1_555
C17_2 C18_2 1_555 1_555
C18_2 C19_2 1_555 1_555
C157_2 O19_2 1_555 1_555
C162_2 C163_2 1_555 1_555
C168_2 C169_2 1_555 1_555
N31_2 N32_2 1_555 1_555
N32_2 H100_2 1_555 1_555
C118_2 H119_2 1_555 1_555
C119_2 N31_2 1_555 1_555
C121_2 N32_2 1_555 1_555
C122_2 C121_2 1_555 1_555
H122_2 C122_2 1_555 1_555
H123_2 C122_2 1_555 1_555
H124_2 C122_2 1_555 1_555
Co22_2 N31_2 1_555 1_555
C118_2 C119_2 1_555 1_555
C119_2 C120_2 1_555 1_555
C120_2 C121_2 1_555 1_555
Co18 N4_2 1_555 1_555
Co2_2 N3_2 1_555 1_555
Co27 N1_2 1_555 1_555
Co33 O2_2 1_555 1_555
N1_2 N2_2 1_555 1_555
N2_2 C4_2 1_555 1_555
N3_2 N4_2 1_555 1_555
N4_2 C9_2 1_555 1_555
N5_2 Co2_2 1_555 1_555
N6_2 Co18 1_555 1_555
C1_2 H2_2 1_555 1_555
H3_2 C1_2 1_555 1_555
H4_2 C1_2 1_555 1_555
C2_2 N1_2 1_555 1_555
C3_2 C2_2 1_555 1_555
C4_2 C3_2 1_555 1_555
C5_2 C4_2 1_555 1_555
H5_2 C5_2 1_555 1_555
H6_2 C5_2 1_555 1_555
H7_2 C5_2 1_555 1_555
C6_2 H8_2 1_555 1_555
H9_2 C6_2 1_555 1_555
H10_2 C6_2 1_555 1_555
C7_2 N3_2 1_555 1_555
C8_2 C3_2 1_555 1_555
C9_2 C8_2 1_555 1_555
C10_2 C9_2 1_555 1_555
H11_2 C10_2 1_555 1_555
H12_2 C10_2 1_555 1_555
H13_2 C10_2 1_555 1_555
C11_2 H14_2 1_555 1_555
H15_2 C11_2 1_555 1_555
H16_2 C11_2 1_555 1_555
C12_2 N5_2 1_555 1_555
C13_2 C12_2 1_555 1_555
C14_2 N6_2 1_555 1_555
C15_2 C14_2 1_555 1_555
H17_2 C15_2 1_555 1_555
H19_2 C15_2 1_555 1_555
C21_2 C22_2 1_555 1_555
C22_2 C23_2 1_555 1_555
C23_2 H26_2 1_555 1_555
C24_2 C23_2 1_555 1_555
H27_2 C24_2 1_555 1_555
C25_2 C24_2 1_555 1_555
C26_2 C25_2 1_555 1_555
H28_2 C26_2 1_555 1_555
C27_2 C22_2 1_555 1_555
H29_2 C27_2 1_555 1_555
C28_2 C25_2 1_555 1_555
C29_2 C28_2 1_555 1_555
H30_2 C29_2 1_555 1_555
C30_2 C29_2 1_555 1_555
H31_2 C30_2 1_555 1_555
C31_2 C30_2 1_555 1_555
C32_2 C31_2 1_555 1_555
H32_2 C32_2 1_555 1_555
C33_2 C28_2 1_555 1_555
H33_2 C33_2 1_555 1_555
C34_2 C31_2 1_555 1_555
O1_2 Co27 1_555 1_555
O2_2 C21_2 1_555 1_555
O3_2 C34_2 1_555 1_555
O4_2 C34_2 1_555 1_555
Co21 N28_2 1_555 1_555
Co13_2 N2_2 1_555 1_555
N25_2 Co13_2 1_555 1_555
N51 N25_2 1_555 1_555
N27_2 N28_2 1_555 1_555
N28_2 C111_2 1_555 1_555
N29_2 N30_2 1_555 1_555
N30_2 Co21 1_555 1_555
C103_2 H101_2 1_555 1_555
H102_2 C103_2 1_555 1_555
H103_2 C103_2 1_555 1_555
C104_2 N25_2 1_555 1_555
C105_2 C104_2 1_555 1_555
C106_2 N51 1_555 1_555
C107_2 C106_2 1_555 1_555
H104_2 C107_2 1_555 1_555
H105_2 C107_2 1_555 1_555
H106_2 C107_2 1_555 1_555
C108_2 H107_2 1_555 1_555
H108_2 C108_2 1_555 1_555
H109_2 C108_2 1_555 1_555
C109_2 N27_2 1_555 1_555
C110_2 C105_2 1_555 1_555
C111_2 C110_2 1_555 1_555
C112_2 C111_2 1_555 1_555
H110_2 C112_2 1_555 1_555
H111_2 C112_2 1_555 1_555
H112_2 C112_2 1_555 1_555
C113_2 H113_2 1_555 1_555
H114_2 C113_2 1_555 1_555
H115_2 C113_2 1_555 1_555
C114_2 N29_2 1_555 1_555
C115_2 C114_2 1_555 1_555
C116_2 N30_2 1_555 1_555
C117_2 C116_2 1_555 1_555
H116_2 C117_2 1_555 1_555
H118_2 C117_2 1_555 1_555
C123_2 C124_2 1_555 1_555
C124_2 C125_2 1_555 1_555
C125_2 H125_2 1_555 1_555
C126_2 C125_2 1_555 1_555
H126_2 C126_2 1_555 1_555
C127_2 C126_2 1_555 1_555
C128_2 C127_2 1_555 1_555
H127_2 C128_2 1_555 1_555
C129_2 C124_2 1_555 1_555
H128_2 C129_2 1_555 1_555
C130_2 C127_2 1_555 1_555
C131_2 C130_2 1_555 1_555
H129_2 C131_2 1_555 1_555
C132_2 C131_2 1_555 1_555
H130_2 C132_2 1_555 1_555
C133_2 C132_2 1_555 1_555
C134_2 C133_2 1_555 1_555
H131_2 C134_2 1_555 1_555
C135_2 C130_2 1_555 1_555
H132_2 C135_2 1_555 1_555
C136_2 C133_2 1_555 1_555
O15_2 Co13_2 1_555 1_555
O16_2 Co33 1_555 1_555
O17_2 C136_2 1_555 1_555
O18_2 C136_2 1_555 1_555
Co32 N33_2 1_555 1_555
N33_2 N34_2 1_555 1_555
N34_2 C140_2 1_555 1_555
N35_2 N36_2 1_555 1_555
N36_2 Co23 1_555 1_555
N37_2 N38_2 1_555 1_555
N38_2 Co23 1_555 1_555
N39_2 Co18 1_555 1_555
N40_2 N39_2 1_555 1_555
H133_2 N40_2 1_555 1_555
C137_2 H134_2 1_555 1_555
H135_2 C137_2 1_555 1_555
C138_2 N33_2 1_555 1_555
C139_2 C138_2 1_555 1_555
C140_2 C139_2 1_555 1_555
C141_2 C140_2 1_555 1_555
H137_2 C141_2 1_555 1_555
H138_2 C141_2 1_555 1_555
H139_2 C141_2 1_555 1_555
C142_2 H140_2 1_555 1_555
H141_2 C142_2 1_555 1_555
H142_2 C142_2 1_555 1_555
C143_2 N35_2 1_555 1_555
C144_2 C139_2 1_555 1_555
C145_2 N36_2 1_555 1_555
C147_2 H146_2 1_555 1_555
H147_2 C147_2 1_555 1_555
H148_2 C147_2 1_555 1_555
C148_2 N37_2 1_555 1_555
C149_2 C148_2 1_555 1_555
C150_2 N38_2 1_555 1_555
C151_2 C150_2 1_555 1_555
H150_2 C151_2 1_555 1_555
H151_2 C151_2 1_555 1_555
C152_2 H152_2 1_555 1_555
H153_2 C152_2 1_555 1_555
H154_2 C152_2 1_555 1_555
C153_2 N39_2 1_555 1_555
C154_2 C149_2 1_555 1_555
C155_2 N40_2 1_555 1_555
C156_2 C155_2 1_555 1_555
H155_2 C156_2 1_555 1_555
H156_2 C156_2 1_555 1_555
H157_2 C156_2 1_555 1_555
Co22_2 O3_2 1_555 1_555
Co31 N41_2 1_555 1_555
N41_2 N53 1_555 1_555
N53 C174_2 1_555 1_555
N43_2 N44_2 1_555 1_555
N44_2 Co22_2 1_555 1_555
N45_2 N46_2 1_555 1_555
N46_2 Co22_2 1_555 1_555
N47_2 N48_2 1_555 1_555
N48_2 H166_2 1_555 1_555
C171_2 H167_2 1_555 1_555
H168_2 C171_2 1_555 1_555
H169_2 C171_2 1_555 1_555
C172_2 N41_2 1_555 1_555
C173_2 C172_2 1_555 1_555
C174_2 C173_2 1_555 1_555
C175_2 C174_2 1_555 1_555
H170_2 C175_2 1_555 1_555
H171_2 C175_2 1_555 1_555
C176_2 H173_2 1_555 1_555
H174_2 C176_2 1_555 1_555
H175_2 C176_2 1_555 1_555
C177_2 N43_2 1_555 1_555
C178_2 C173_2 1_555 1_555
C179_2 N44_2 1_555 1_555
C180_2 C179_2 1_555 1_555
H176_2 C180_2 1_555 1_555
H177_2 C180_2 1_555 1_555
H178_2 C180_2 1_555 1_555
C181_2 H179_2 1_555 1_555
H180_2 C181_2 1_555 1_555
H181_2 C181_2 1_555 1_555
C182_2 N45_2 1_555 1_555
C183_2 C182_2 1_555 1_555
C184_2 N46_2 1_555 1_555
C185_2 C184_2 1_555 1_555
H182_2 C185_2 1_555 1_555
H183_2 C185_2 1_555 1_555
H184_2 C185_2 1_555 1_555
C187_2 N47_2 1_555 1_555
C188_2 C183_2 1_555 1_555
C189_2 N48_2 1_555 1_555
C190_2 C189_2 1_555 1_555
H188_2 C190_2 1_555 1_555
H189_2 C190_2 1_555 1_555
H190_2 C190_2 1_555 1_555
C191_2 C192_2 1_555 1_555
C192_2 C193_2 1_555 1_555
C193_2 H191_2 1_555 1_555
C194_2 C193_2 1_555 1_555
H192_2 C194_2 1_555 1_555
C195_2 C194_2 1_555 1_555
C196_2 C195_2 1_555 1_555
H193_2 C196_2 1_555 1_555
C197_2 C192_2 1_555 1_555
H194_2 C197_2 1_555 1_555
C198_2 C195_2 1_555 1_555
C199_2 C198_2 1_555 1_555
H195_2 C199_2 1_555 1_555
C200_2 C199_2 1_555 1_555
H196_2 C200_2 1_555 1_555
C201_2 C200_2 1_555 1_555
C202_2 C201_2 1_555 1_555
C203_2 C198_2 1_555 1_555
C204_2 C201_2 1_555 1_555
O23_2 Co31 1_555 1_555
O28 C191_2 1_555 1_555
O26_2 C204_2 1_555 1_555
Co19 O17_2 1_555 1_555
Co24_2 N27_2 1_555 1_555
Co25_2 N35_2 1_555 1_555
Co26_2 N43_2 1_555 1_555
Co28 N34_2 1_555 1_555
N54_2 Co2_2 1_555 1_555
N57_2 Co2_2 1_555 1_555
N61_2 Co21 1_555 1_555
N5_2 N6_2 1_555 1_555
C1_2 C2_2 1_555 1_555
C6_2 C7_2 1_555 1_555
C7_2 C8_2 1_555 1_555
C11_2 C12_2 1_555 1_555
C13_2 C14_2 1_555 1_555
C21_2 O1_2 1_555 1_555
C26_2 C27_2 1_555 1_555
C32_2 C33_2 1_555 1_555
O33 Co13_2 1_555 1_555
N29_2 Co24_2 1_555 1_555
C103_2 C104_2 1_555 1_555
C105_2 C106_2 1_555 1_555
C108_2 C109_2 1_555 1_555
C109_2 C110_2 1_555 1_555
C113_2 C114_2 1_555 1_555
C115_2 C116_2 1_555 1_555
C123_2 O15_2 1_555 1_555
C123_2 O16_2 1_555 1_555
C128_2 C129_2 1_555 1_555
C134_2 C135_2 1_555 1_555
N37_2 Co25_2 1_555 1_555
C137_2 C138_2 1_555 1_555
C142_2 C143_2 1_555 1_555
C143_2 C144_2 1_555 1_555
C144_2 C145_2 1_555 1_555
C147_2 C148_2 1_555 1_555
C149_2 C150_2 1_555 1_555
C152_2 C153_2 1_555 1_555
C153_2 C154_2 1_555 1_555
C154_2 C155_2 1_555 1_555
N45_2 Co26_2 1_555 1_555
C171_2 C172_2 1_555 1_555
C176_2 C177_2 1_555 1_555
C177_2 C178_2 1_555 1_555
C178_2 C179_2 1_555 1_555
C181_2 C182_2 1_555 1_555
C183_2 C184_2 1_555 1_555
C187_2 C188_2 1_555 1_555
C188_2 C189_2 1_555 1_555
C191_2 O23_2 1_555 1_555
C196_2 C197_2 1_555 1_555
C202_2 C203_2 1_555 1_555
C204_2 O31 1_555 1_555
C186_2 H185_2 1_555 1_555
H187_2 C186_2 1_555 1_555
Co19 N4_3 1_555 1_555
Co2_3 N3_3 1_555 1_555
Co28 N1_3 1_555 1_555
N1_3 N49 1_555 1_555
N49 C4_3 1_555 1_555
N3_3 N4_3 1_555 1_555
N4_3 C9_3 1_555 1_555
N5_3 Co2_3 1_555 1_555
N6_3 Co19 1_555 1_555
N61 N8_3 1_555 1_555
N8_3 H1_3 1_555 1_555
C1_3 H2_3 1_555 1_555
H3_3 C1_3 1_555 1_555
H4_3 C1_3 1_555 1_555
C2_3 N1_3 1_555 1_555
C3_3 C2_3 1_555 1_555
C4_3 C3_3 1_555 1_555
C5_3 C4_3 1_555 1_555
H5_3 C5_3 1_555 1_555
H6_3 C5_3 1_555 1_555
C6_3 H8_3 1_555 1_555
H9_3 C6_3 1_555 1_555
H10_3 C6_3 1_555 1_555
C7_3 N3_3 1_555 1_555
C8_3 C3_3 1_555 1_555
C9_3 C8_3 1_555 1_555
C10_3 C9_3 1_555 1_555
H11_3 C10_3 1_555 1_555
H12_3 C10_3 1_555 1_555
H13_3 C10_3 1_555 1_555
C11_3 H14_3 1_555 1_555
H15_3 C11_3 1_555 1_555
H16_3 C11_3 1_555 1_555
C12_3 N5_3 1_555 1_555
C13_3 C12_3 1_555 1_555
C14_3 N6_3 1_555 1_555
C15_3 C14_3 1_555 1_555
H17_3 C15_3 1_555 1_555
H18_3 C15_3 1_555 1_555
H19_3 C15_3 1_555 1_555
C17_3 N61 1_555 1_555
C18_3 C13_3 1_555 1_555
C19_3 N8_3 1_555 1_555
C20_3 C19_3 1_555 1_555
H23_3 C20_3 1_555 1_555
H24_3 C20_3 1_555 1_555
H25_3 C20_3 1_555 1_555
C21_3 C22_3 1_555 1_555
C22_3 C23_3 1_555 1_555
C23_3 H26_3 1_555 1_555
C24_3 C23_3 1_555 1_555
H27_3 C24_3 1_555 1_555
C25_3 C24_3 1_555 1_555
C26_3 C25_3 1_555 1_555
H28_3 C26_3 1_555 1_555
C27_3 C22_3 1_555 1_555
H29_3 C27_3 1_555 1_555
C28_3 C25_3 1_555 1_555
C29_3 C28_3 1_555 1_555
H30_3 C29_3 1_555 1_555
C30_3 C29_3 1_555 1_555
H31_3 C30_3 1_555 1_555
C31_3 C30_3 1_555 1_555
C32_3 C31_3 1_555 1_555
C33_3 C28_3 1_555 1_555
C34_3 C31_3 1_555 1_555
O1_3 Co28 1_555 1_555
O27 C21_3 1_555 1_555
O30 C34_3 1_555 1_555
O4_3 C34_3 1_555 1_555
N54_3 Co2_3 1_555 1_555
N55_2 Co24_2 1_555 1_555
N57_3 Co2_3 1_555 1_555
N58_2 Co24_2 1_555 1_555
N5_3 N6_3 1_555 1_555
C1_3 C2_3 1_555 1_555
C6_3 C7_3 1_555 1_555
C7_3 C8_3 1_555 1_555
C11_3 C12_3 1_555 1_555
C13_3 C14_3 1_555 1_555
C17_3 C18_3 1_555 1_555
C18_3 C19_3 1_555 1_555
C21_3 O1_3 1_555 1_555
C26_3 C27_3 1_555 1_555
C32_3 C33_3 1_555 1_555
C16_3 H20_3 1_555 1_555
H22_3 C16_3 1_555 1_555
N56_2 Co24 1_555 1_555
N59_2 Co24 1_555 1_555
H11_4 C10_4 1_555 1_555
H12_4 C10_4 1_555 1_555
H13_4 C10_4 1_555 1_555
C21_4 C22_4 1_555 1_555
C22_4 C23_4 1_555 1_555
C23_4 H26_4 1_555 1_555
C24_4 C23_4 1_555 1_555
H27_4 C24_4 1_555 1_555
C25_4 C24_4 1_555 1_555
C26_4 C25_4 1_555 1_555
H28_4 C26_4 1_555 1_555
C27_4 C22_4 1_555 1_555
H29_4 C27_4 1_555 1_555
C28_4 C25_4 1_555 1_555
C29_4 C28_4 1_555 1_555
H30_4 C29_4 1_555 1_555
C30_4 C29_4 1_555 1_555
H31_4 C30_4 1_555 1_555
C31_4 C30_4 1_555 1_555
C32_4 C31_4 1_555 1_555
C33_4 C28_4 1_555 1_555
C34_4 C31_4 1_555 1_555
O27_2 C21_4 1_555 1_555
O30_2 C34_4 1_555 1_555
O4_4 C34_4 1_555 1_555
C21_4 O1_4 1_555 1_555
C26_4 C27_4 1_555 1_555
C32_4 C33_4 1_555 1_555
Co20 N4_4 1_555 1_555
Co2_4 N3_4 1_555 1_555
Co29 N1_4 1_555 1_555
N1_4 N50 1_555 1_555
N50 C4_4 1_555 1_555
N3_4 N4_4 1_555 1_555
N4_4 C9_4 1_555 1_555
N5_4 Co2_4 1_555 1_555
N6_4 Co20 1_555 1_555
N61_2 N8_4 1_555 1_555
N8_4 H1_4 1_555 1_555
C1_4 H2_4 1_555 1_555
H3_4 C1_4 1_555 1_555
C2_4 N1_4 1_555 1_555
C3_4 C2_4 1_555 1_555
C4_4 C3_4 1_555 1_555
C5_4 C4_4 1_555 1_555
H5_4 C5_4 1_555 1_555
H6_4 C5_4 1_555 1_555
H7_4 C5_4 1_555 1_555
C6_4 H8_4 1_555 1_555
H9_4 C6_4 1_555 1_555
H10_4 C6_4 1_555 1_555
C7_4 N3_4 1_555 1_555
C8_4 C3_4 1_555 1_555
C9_4 C8_4 1_555 1_555
C11_4 H14_4 1_555 1_555
H15_4 C11_4 1_555 1_555
H16_4 C11_4 1_555 1_555
C12_4 N5_4 1_555 1_555
C13_4 C12_4 1_555 1_555
C14_4 N6_4 1_555 1_555
C15_4 C14_4 1_555 1_555
H18_4 C15_4 1_555 1_555
H19_4 C15_4 1_555 1_555
C16_4 H20_4 1_555 1_555
H21_4 C16_4 1_555 1_555
H22_4 C16_4 1_555 1_555
C17_4 N61_2 1_555 1_555
C18_4 C13_4 1_555 1_555
C19_4 N8_4 1_555 1_555
C20_4 C19_4 1_555 1_555
H23_4 C20_4 1_555 1_555
H24_4 C20_4 1_555 1_555
H25_4 C20_4 1_555 1_555
N54_4 Co2_4 1_555 1_555
N57_4 Co2_4 1_555 1_555
N5_4 N6_4 1_555 1_555
C1_4 C2_4 1_555 1_555
C6_4 C7_4 1_555 1_555
C7_4 C8_4 1_555 1_555
C11_4 C12_4 1_555 1_555
C13_4 C14_4 1_555 1_555
C16_4 C17_4 1_555 1_555
C17_4 C18_4 1_555 1_555
C18_4 C19_4 1_555 1_555
N56_3 Co25 1_555 1_555
N59_3 Co25 1_555 1_555
N55_3 Co26_2 1_555 1_555
N58_3 Co26_2 1_555 1_555
N55_4 Co26 1_555 1_555
N58_4 Co26 1_555 1_555
N56_4 Co25_2 1_555 1_555
N59_4 Co25_2 1_555 1_555
Co3_2 N1_5 1_555 1_555
Co4_2 O2_3 1_555 1_555
N1_5 N2_3 1_555 1_555
N2_3 C4_5 1_555 1_555
C1_5 H2_5 1_555 1_555
H3_5 C1_5 1_555 1_555
H4_5 C1_5 1_555 1_555
C2_5 N1_5 1_555 1_555
C3_5 C2_5 1_555 1_555
C4_5 C3_5 1_555 1_555
C5_5 C4_5 1_555 1_555
H5_5 C5_5 1_555 1_555
H6_5 C5_5 1_555 1_555
H7_5 C5_5 1_555 1_555
C21_5 C22_5 1_555 1_555
C22_5 C23_5 1_555 1_555
C23_5 H26_5 1_555 1_555
C24_5 C23_5 1_555 1_555
H27_5 C24_5 1_555 1_555
C25_5 C24_5 1_555 1_555
C26_5 C25_5 1_555 1_555
H28_5 C26_5 1_555 1_555
C27_5 C22_5 1_555 1_555
H29_5 C27_5 1_555 1_555
C28_5 C25_5 1_555 1_555
C29_5 C28_5 1_555 1_555
H30_5 C29_5 1_555 1_555
C30_5 C29_5 1_555 1_555
H31_5 C30_5 1_555 1_555
C31_5 C30_5 1_555 1_555
C32_5 C31_5 1_555 1_555
H32_5 C32_5 1_555 1_555
C33_5 C28_5 1_555 1_555
H33_5 C33_5 1_555 1_555
C34_5 C31_5 1_555 1_555
O1_5 Co3_2 1_555 1_555
O2_3 C21_5 1_555 1_555
O3_3 C34_5 1_555 1_555
O4_5 C34_5 1_555 1_555
O5_2 Co3_2 1_555 1_555
Co13_3 N2_3 1_555 1_555
N25_3 Co13_3 1_555 1_555
N26_2 N25_3 1_555 1_555
C103_3 H101_3 1_555 1_555
H102_3 C103_3 1_555 1_555
H103_3 C103_3 1_555 1_555
C104_3 N25_3 1_555 1_555
C105_3 C104_3 1_555 1_555
C106_3 N26_2 1_555 1_555
C107_3 C106_3 1_555 1_555
H104_3 C107_3 1_555 1_555
H105_3 C107_3 1_555 1_555
H106_3 C107_3 1_555 1_555
C123_3 C124_3 1_555 1_555
C124_3 C125_3 1_555 1_555
C125_3 H125_3 1_555 1_555
C126_3 C125_3 1_555 1_555
H126_3 C126_3 1_555 1_555
C127_3 C126_3 1_555 1_555
C128_3 C127_3 1_555 1_555
H127_3 C128_3 1_555 1_555
C129_3 C124_3 1_555 1_555
H128_3 C129_3 1_555 1_555
C130_3 C127_3 1_555 1_555
C131_3 C130_3 1_555 1_555
H129_3 C131_3 1_555 1_555
C132_3 C131_3 1_555 1_555
H130_3 C132_3 1_555 1_555
C133_3 C132_3 1_555 1_555
C134_3 C133_3 1_555 1_555
H131_3 C134_3 1_555 1_555
C135_3 C130_3 1_555 1_555
H132_3 C135_3 1_555 1_555
C136_3 C133_3 1_555 1_555
O15_3 Co13_3 1_555 1_555
O16_3 Co4_2 1_555 1_555
O17_3 C136_3 1_555 1_555
O18_3 C136_3 1_555 1_555
Co16 O3_3 1_555 1_555
N55 N44_3 1_555 1_555
N44_3 Co16 1_555 1_555
N58 N46_3 1_555 1_555
N46_3 Co16 1_555 1_555
N47_3 N48_3 1_555 1_555
N48_3 H166_3 1_555 1_555
C176_3 H173_3 1_555 1_555
H175_3 C176_3 1_555 1_555
C177_3 N55 1_555 1_555
C179_3 N44_3 1_555 1_555
C180_3 C179_3 1_555 1_555
H176_3 C180_3 1_555 1_555
H177_3 C180_3 1_555 1_555
H178_3 C180_3 1_555 1_555
C181_3 H179_3 1_555 1_555
H180_3 C181_3 1_555 1_555
H181_3 C181_3 1_555 1_555
C182_3 N58 1_555 1_555
C183_3 C182_3 1_555 1_555
C184_3 N46_3 1_555 1_555
C185_3 C184_3 1_555 1_555
H182_3 C185_3 1_555 1_555
H183_3 C185_3 1_555 1_555
H184_3 C185_3 1_555 1_555
C186_3 H185_3 1_555 1_555
H186_3 C186_3 1_555 1_555
H187_3 C186_3 1_555 1_555
C187_3 N47_3 1_555 1_555
C188_3 C183_3 1_555 1_555
C189_3 N48_3 1_555 1_555
C190_3 C189_3 1_555 1_555
H188_3 C190_3 1_555 1_555
H189_3 C190_3 1_555 1_555
H190_3 C190_3 1_555 1_555
Co19_2 N47_3 1_555 1_555
Co20_2 O17_3 1_555 1_555
Co31_2 O5_2 1_555 1_555
N53_2 Co3_2 1_555 1_555
N62 Co16 1_555 1_555
O28_2 Co4_2 1_555 1_555
Co4_2 O5_2 1_555 1_555
C1_5 C2_5 1_555 1_555
C21_5 O1_5 1_555 1_555
C26_5 C27_5 1_555 1_555
C32_5 C33_5 1_555 1_555
O5_2 Co13_3 1_555 1_555
N26_2 Co31_2 1_555 1_555
C103_3 C104_3 1_555 1_555
C105_3 C106_3 1_555 1_555
C123_3 O15_3 1_555 1_555
C123_3 O16_3 1_555 1_555
C128_3 C129_3 1_555 1_555
C134_3 C135_3 1_555 1_555
C176_3 C177_3 1_555 1_555
C177_3 C178_3 1_555 1_555
C178_3 C179_3 1_555 1_555
C181_3 C182_3 1_555 1_555
C183_3 C184_3 1_555 1_555
C186_3 C187_3 1_555 1_555
C187_3 C188_3 1_555 1_555
C188_3 C189_3 1_555 1_555
Co12_2 N28_3 1_555 1_555
N56_3 N28_3 1_555 1_555
N28_3 C111_3 1_555 1_555
N59_3 N30_3 1_555 1_555
N30_3 Co12_2 1_555 1_555
N62 N32_3 1_555 1_555
N32_3 H100_3 1_555 1_555
C108_3 H107_3 1_555 1_555
H109_3 C108_3 1_555 1_555
C109_3 N56_3 1_555 1_555
C111_3 C110_3 1_555 1_555
C112_3 C111_3 1_555 1_555
H110_3 C112_3 1_555 1_555
H111_3 C112_3 1_555 1_555
H112_3 C112_3 1_555 1_555
C113_3 H113_3 1_555 1_555
H114_3 C113_3 1_555 1_555
H115_3 C113_3 1_555 1_555
C114_3 N59_3 1_555 1_555
C115_3 C114_3 1_555 1_555
C116_3 N30_3 1_555 1_555
C117_3 C116_3 1_555 1_555
H116_3 C117_3 1_555 1_555
H117_3 C117_3 1_555 1_555
H118_3 C117_3 1_555 1_555
C118_3 H119_3 1_555 1_555
H120_3 C118_3 1_555 1_555
H121_3 C118_3 1_555 1_555
C119_3 N62 1_555 1_555
C120_3 C115_3 1_555 1_555
C121_3 N32_3 1_555 1_555
C122_3 C121_3 1_555 1_555
H122_3 C122_3 1_555 1_555
H123_3 C122_3 1_555 1_555
H124_3 C122_3 1_555 1_555
N61_3 Co12_2 1_555 1_555
O32_2 Co12_2 1_555 1_555
C108_3 C109_3 1_555 1_555
C109_3 C110_3 1_555 1_555
C113_3 C114_3 1_555 1_555
C115_3 C116_3 1_555 1_555
C118_3 C119_3 1_555 1_555
C119_3 C120_3 1_555 1_555
C120_3 C121_3 1_555 1_555
Co17_2 N41_3 1_555 1_555
N41_3 N42_2 1_555 1_555
N42_2 C174_3 1_555 1_555
C171_3 H167_3 1_555 1_555
H168_3 C171_3 1_555 1_555
H169_3 C171_3 1_555 1_555
C172_3 N41_3 1_555 1_555
C173_3 C172_3 1_555 1_555
C174_3 C173_3 1_555 1_555
C175_3 C174_3 1_555 1_555
H170_3 C175_3 1_555 1_555
H171_3 C175_3 1_555 1_555
H172_3 C175_3 1_555 1_555
C191_3 C192_3 1_555 1_555
C192_3 C193_3 1_555 1_555
C193_3 H191_3 1_555 1_555
C194_3 C193_3 1_555 1_555
H192_3 C194_3 1_555 1_555
C195_3 C194_3 1_555 1_555
C196_3 C195_3 1_555 1_555
H193_3 C196_3 1_555 1_555
C197_3 C192_3 1_555 1_555
H194_3 C197_3 1_555 1_555
C198_3 C195_3 1_555 1_555
C199_3 C198_3 1_555 1_555
H195_3 C199_3 1_555 1_555
C203_3 C198_3 1_555 1_555
H198_3 C203_3 1_555 1_555
O23_3 Co17_2 1_555 1_555
O24_2 C191_3 1_555 1_555
Co27_2 N42_2 1_555 1_555
Co33_2 O24_2 1_555 1_555
N51_2 Co17_2 1_555 1_555
O33_2 Co17_2 1_555 1_555
C171_3 C172_3 1_555 1_555
C191_3 O23_3 1_555 1_555
C196_3 C197_3 1_555 1_555
Co27_2 O33_2 1_555 1_555
Co33_2 O33_2 1_555 1_555
Co1_2 N4_5 1_555 1_555
N54 N4_5 1_555 1_555
N4_5 C9_5 1_555 1_555
N6_5 Co1_2 1_555 1_555
N7_2 N8_5 1_555 1_555
N8_5 H1_5 1_555 1_555
C6_5 H8_5 1_555 1_555
H10_5 C6_5 1_555 1_555
C7_5 N54 1_555 1_555
C9_5 C8_5 1_555 1_555
C10_5 C9_5 1_555 1_555
H11_5 C10_5 1_555 1_555
H12_5 C10_5 1_555 1_555
H13_5 C10_5 1_555 1_555
C11_5 H14_5 1_555 1_555
H15_5 C11_5 1_555 1_555
H16_5 C11_5 1_555 1_555
C12_5 N57 1_555 1_555
C13_5 C12_5 1_555 1_555
C14_5 N6_5 1_555 1_555
C15_5 C14_5 1_555 1_555
H17_5 C15_5 1_555 1_555
H18_5 C15_5 1_555 1_555
H19_5 C15_5 1_555 1_555
C16_5 H20_5 1_555 1_555
H21_5 C16_5 1_555 1_555
H22_5 C16_5 1_555 1_555
C17_5 N7_2 1_555 1_555
C18_5 C13_5 1_555 1_555
C19_5 N8_5 1_555 1_555
C20_5 C19_5 1_555 1_555
H23_5 C20_5 1_555 1_555
H24_5 C20_5 1_555 1_555
H25_5 C20_5 1_555 1_555
Co5_2 N7_2 1_555 1_555
N55_3 N12_2 1_555 1_555
N12_2 Co5_2 1_555 1_555
N14_2 Co5_2 1_555 1_555
N15_2 N16_2 1_555 1_555
N16_2 H34_2 1_555 1_555
C40_2 H41_2 1_555 1_555
H43_2 C40_2 1_555 1_555
C41_2 N55_3 1_555 1_555
C43_2 N12_2 1_555 1_555
C44_2 C43_2 1_555 1_555
H44_2 C44_2 1_555 1_555
H45_2 C44_2 1_555 1_555
H46_2 C44_2 1_555 1_555
C45_2 H47_2 1_555 1_555
H48_2 C45_2 1_555 1_555
H49_2 C45_2 1_555 1_555
C46_2 N58_3 1_555 1_555
C47_2 C46_2 1_555 1_555
C48_2 N14_2 1_555 1_555
C49_2 C48_2 1_555 1_555
H50_2 C49_2 1_555 1_555
H51_2 C49_2 1_555 1_555
H52_2 C49_2 1_555 1_555
C50_2 H53_2 1_555 1_555
H54_2 C50_2 1_555 1_555
H55_2 C50_2 1_555 1_555
C51_2 N15_2 1_555 1_555
C52_2 C47_2 1_555 1_555
C53_2 N16_2 1_555 1_555
C54_2 C53_2 1_555 1_555
H56_2 C54_2 1_555 1_555
H57_2 C54_2 1_555 1_555
H58_2 C54_2 1_555 1_555
H97_2 C98_2 1_555 1_555
C99_2 C98_2 1_555 1_555
C100_2 C99_2 1_555 1_555
H98_2 C100_2 1_555 1_555
C102_2 C99_2 1_555 1_555
O13_2 Co1_2 1_555 1_555
O14_2 C102_2 1_555 1_555
Co14_2 N15_2 1_555 1_555
Co15_2 N33_3 1_555 1_555
N33_3 N34_3 1_555 1_555
N34_3 C140_3 1_555 1_555
N56_2 N36_3 1_555 1_555
N36_3 Co14_2 1_555 1_555
N59_2 N38_3 1_555 1_555
N38_3 Co14_2 1_555 1_555
N39_3 Co1_2 1_555 1_555
N40_3 N39_3 1_555 1_555
H133_3 N40_3 1_555 1_555
C137_3 H134_3 1_555 1_555
H135_3 C137_3 1_555 1_555
H136_3 C137_3 1_555 1_555
C138_3 N33_3 1_555 1_555
C139_3 C138_3 1_555 1_555
C140_3 C139_3 1_555 1_555
C141_3 C140_3 1_555 1_555
H137_3 C141_3 1_555 1_555
H138_3 C141_3 1_555 1_555
H139_3 C141_3 1_555 1_555
C142_3 H140_3 1_555 1_555
H141_3 C142_3 1_555 1_555
H142_3 C142_3 1_555 1_555
C143_3 N56_2 1_555 1_555
C144_3 C139_3 1_555 1_555
C145_3 N36_3 1_555 1_555
C146_3 C145_3 1_555 1_555
H143_3 C146_3 1_555 1_555
H144_3 C146_3 1_555 1_555
H145_3 C146_3 1_555 1_555
C147_3 H146_3 1_555 1_555
H147_3 C147_3 1_555 1_555
H148_3 C147_3 1_555 1_555
C148_3 N59_2 1_555 1_555
C149_3 C148_3 1_555 1_555
C150_3 N38_3 1_555 1_555
C151_3 C150_3 1_555 1_555
H149_3 C151_3 1_555 1_555
H150_3 C151_3 1_555 1_555
H151_3 C151_3 1_555 1_555
C152_3 H152_3 1_555 1_555
H153_3 C152_3 1_555 1_555
H154_3 C152_3 1_555 1_555
C153_3 N39_3 1_555 1_555
C154_3 C149_3 1_555 1_555
C155_3 N40_3 1_555 1_555
C156_3 C155_3 1_555 1_555
H155_3 C156_3 1_555 1_555
H156_3 C156_3 1_555 1_555
H157_3 C156_3 1_555 1_555
C157_3 C158_3 1_555 1_555
C158_3 C159_3 1_555 1_555
C159_3 H158_3 1_555 1_555
C160_3 C159_3 1_555 1_555
H159_3 C160_3 1_555 1_555
C161_3 C160_3 1_555 1_555
C162_3 C161_3 1_555 1_555
H160_3 C162_3 1_555 1_555
C163_3 C158_3 1_555 1_555
H161_3 C163_3 1_555 1_555
C164_3 C161_3 1_555 1_555
C165_3 C164_3 1_555 1_555
H162_3 C165_3 1_555 1_555
C166_3 C165_3 1_555 1_555
H163_3 C166_3 1_555 1_555
C167_3 C166_3 1_555 1_555
C168_3 C167_3 1_555 1_555
H164_3 C168_3 1_555 1_555
C169_3 C164_3 1_555 1_555
H165_3 C169_3 1_555 1_555
C170_3 C167_3 1_555 1_555
O19_3 Co15_2 1_555 1_555
O20_2 C157_3 1_555 1_555
O21_2 C170_3 1_555 1_555
O22_3 C170_3 1_555 1_555
Co21_2 O21_2 1_555 1_555
Co29_2 N34_3 1_555 1_555
Co35_2 O20_2 1_555 1_555
N52_2 Co15_2 1_555 1_555
O30_3 Co14_2 1_555 1_555
O31_2 Co5_2 1_555 1_555
O35_2 Co15_2 1_555 1_555
N57 N6_5 1_555 1_555
C6_5 C7_5 1_555 1_555
C7_5 C8_5 1_555 1_555
C11_5 C12_5 1_555 1_555
C13_5 C14_5 1_555 1_555
C16_5 C17_5 1_555 1_555
C17_5 C18_5 1_555 1_555
C18_5 C19_5 1_555 1_555
N58_3 N14_2 1_555 1_555
C40_2 C41_2 1_555 1_555
C41_2 C42_2 1_555 1_555
C42_2 C43_2 1_555 1_555
C45_2 C46_2 1_555 1_555
C47_2 C48_2 1_555 1_555
C50_2 C51_2 1_555 1_555
C51_2 C52_2 1_555 1_555
C52_2 C53_2 1_555 1_555
C102_2 O13_2 1_555 1_555
C137_3 C138_3 1_555 1_555
C142_3 C143_3 1_555 1_555
C143_3 C144_3 1_555 1_555
C144_3 C145_3 1_555 1_555
C147_3 C148_3 1_555 1_555
C149_3 C150_3 1_555 1_555
C152_3 C153_3 1_555 1_555
C153_3 C154_3 1_555 1_555
C154_3 C155_3 1_555 1_555
C157_3 O19_3 1_555 1_555
C162_3 C163_3 1_555 1_555
C168_3 C169_3 1_555 1_555
Co29_2 O35_2 1_555 1_555
Co35_2 O35_2 1_555 1_555
Co7_2 N9_2 1_555 1_555
Co8_2 O7_2 1_555 1_555
N9_2 N10_2 1_555 1_555
N10_2 C38_2 1_555 1_555
C35_2 H35_2 1_555 1_555
H36_2 C35_2 1_555 1_555
H37_2 C35_2 1_555 1_555
C36_2 N9_2 1_555 1_555
C37_2 C36_2 1_555 1_555
C38_2 C37_2 1_555 1_555
C39_2 C38_2 1_555 1_555
H38_2 C39_2 1_555 1_555
H39_2 C39_2 1_555 1_555
H40_2 C39_2 1_555 1_555
C55_2 C56_2 1_555 1_555
C56_2 C57_2 1_555 1_555
C57_2 H59_2 1_555 1_555
C58_2 C57_2 1_555 1_555
H60_2 C58_2 1_555 1_555
C59_2 C58_2 1_555 1_555
C60_2 C59_2 1_555 1_555
H61_2 C60_2 1_555 1_555
C61_2 C56_2 1_555 1_555
H62_2 C61_2 1_555 1_555
C62_2 C59_2 1_555 1_555
C63_2 C62_2 1_555 1_555
H63_2 C63_2 1_555 1_555
C67_2 C62_2 1_555 1_555
H66_2 C67_2 1_555 1_555
O6_2 Co7_2 1_555 1_555
O7_2 C55_2 1_555 1_555
O10_2 Co7_2 1_555 1_555
Co28_2 O10_2 1_555 1_555
Co32_2 N10_2 1_555 1_555
N49_2 Co7_2 1_555 1_555
O27_3 Co8_2 1_555 1_555
O29_2 Co8_2 1_555 1_555
Co8_2 O10_2 1_555 1_555
C35_2 C36_2 1_555 1_555
C55_2 O6_2 1_555 1_555
C60_2 C61_2 1_555 1_555
O10_2 Co32_2 1_555 1_555
Co9_2 N20_2 1_555 1_555
Co11_2 N17_2 1_555 1_555
N17_2 N52_2 1_555 1_555
N52_2 C72_2 1_555 1_555
N55_4 N20_2 1_555 1_555
N20_2 C77_2 1_555 1_555
N22_2 Co9_2 1_555 1_555
N23_2 N24_2 1_555 1_555
N24_2 H67_2 1_555 1_555
C69_2 H68_2 1_555 1_555
H69_2 C69_2 1_555 1_555
H70_2 C69_2 1_555 1_555
C70_2 N17_2 1_555 1_555
C71_2 C70_2 1_555 1_555
C72_2 C71_2 1_555 1_555
C73_2 C72_2 1_555 1_555
H71_2 C73_2 1_555 1_555
H72_2 C73_2 1_555 1_555
H73_2 C73_2 1_555 1_555
C74_2 H74_2 1_555 1_555
H75_2 C74_2 1_555 1_555
H76_2 C74_2 1_555 1_555
C75_2 N55_4 1_555 1_555
C76_2 C71_2 1_555 1_555
C77_2 C76_2 1_555 1_555
C78_2 C77_2 1_555 1_555
H77_2 C78_2 1_555 1_555
H78_2 C78_2 1_555 1_555
H79_2 C78_2 1_555 1_555
C79_2 H80_2 1_555 1_555
H81_2 C79_2 1_555 1_555
H82_2 C79_2 1_555 1_555
C80_2 N58_4 1_555 1_555
C81_2 C80_2 1_555 1_555
C82_2 N22_2 1_555 1_555
C83_2 C82_2 1_555 1_555
H83_2 C83_2 1_555 1_555
H84_2 C83_2 1_555 1_555
H85_2 C83_2 1_555 1_555
C84_2 H86_2 1_555 1_555
H87_2 C84_2 1_555 1_555
H88_2 C84_2 1_555 1_555
C85_2 N23_2 1_555 1_555
C86_2 C81_2 1_555 1_555
C87_2 N24_2 1_555 1_555
C88_2 C87_2 1_555 1_555
H89_2 C88_2 1_555 1_555
H90_2 C88_2 1_555 1_555
H91_2 C88_2 1_555 1_555
C89_2 C90_2 1_555 1_555
C90_2 C91_2 1_555 1_555
C91_2 H92_2 1_555 1_555
C92_2 C91_2 1_555 1_555
H93_2 C92_2 1_555 1_555
C93_2 C92_2 1_555 1_555
C94_2 C93_2 1_555 1_555
H94_2 C94_2 1_555 1_555
C95_2 C90_2 1_555 1_555
H95_2 C95_2 1_555 1_555
C96_2 C93_2 1_555 1_555
C97_2 C96_2 1_555 1_555
H96_2 C97_2 1_555 1_555
C101_2 C96_2 1_555 1_555
H99_2 C101_2 1_555 1_555
O11_2 Co11_2 1_555 1_555
O12_2 C89_2 1_555 1_555
H196_3 C200_3 1_555 1_555
C201_3 C200_3 1_555 1_555
C202_3 C201_3 1_555 1_555
H197_3 C202_3 1_555 1_555
C204_3 C201_3 1_555 1_555
O25_2 Co9_2 1_555 1_555
O26_3 C204_3 1_555 1_555
Co23_2 N23_2 1_555 1_555
Co35_2 O12_2 1_555 1_555
N50_2 Co11_2 1_555 1_555
N60_2 Co9_2 1_555 1_555
O35_2 Co11_2 1_555 1_555
N58_4 N22_2 1_555 1_555
C69_2 C70_2 1_555 1_555
C74_2 C75_2 1_555 1_555
C75_2 C76_2 1_555 1_555
C79_2 C80_2 1_555 1_555
C81_2 C82_2 1_555 1_555
C84_2 C85_2 1_555 1_555
C85_2 C86_2 1_555 1_555
C86_2 C87_2 1_555 1_555
C89_2 O11_2 1_555 1_555
C94_2 C95_2 1_555 1_555
C204_3 O25_2 1_555 1_555
H64_2 C64_2 1_555 1_555
C65_2 C64_2 1_555 1_555
C66_2 C65_2 1_555 1_555
H65_2 C66_2 1_555 1_555
C68_2 C65_2 1_555 1_555
O8_2 C68_2 1_555 1_555
O9_2 C68_2 1_555 1_555
Co18_2 O8_2 1_555 1_555
H163_4 C166_4 1_555 1_555
C167_4 C166_4 1_555 1_555
C168_4 C167_4 1_555 1_555
H164_4 C168_4 1_555 1_555
C170_4 C167_4 1_555 1_555
O32_2 C170_4 1_555 1_555
O22_4 C170_4 1_555 1_555
Co31_2 N41_4 1_555 1_555
N41_4 N53_2 1_555 1_555
N53_2 C174_4 1_555 1_555
C171_4 H167_4 1_555 1_555
H168_4 C171_4 1_555 1_555
H169_4 C171_4 1_555 1_555
C172_4 N41_4 1_555 1_555
C173_4 C172_4 1_555 1_555
C174_4 C173_4 1_555 1_555
C175_4 C174_4 1_555 1_555
H170_4 C175_4 1_555 1_555
H171_4 C175_4 1_555 1_555
H172_4 C175_4 1_555 1_555
C191_4 C192_4 1_555 1_555
C192_4 C193_4 1_555 1_555
C193_4 H191_4 1_555 1_555
C194_4 C193_4 1_555 1_555
H192_4 C194_4 1_555 1_555
C195_4 C194_4 1_555 1_555
C196_4 C195_4 1_555 1_555
H193_4 C196_4 1_555 1_555
C197_4 C192_4 1_555 1_555
H194_4 C197_4 1_555 1_555
C198_4 C195_4 1_555 1_555
C199_4 C198_4 1_555 1_555
H195_4 C199_4 1_555 1_555
C200_4 C199_4 1_555 1_555
H196_4 C200_4 1_555 1_555
C201_4 C200_4 1_555 1_555
C202_4 C201_4 1_555 1_555
H197_4 C202_4 1_555 1_555
C203_4 C198_4 1_555 1_555
H198_4 C203_4 1_555 1_555
C204_4 C201_4 1_555 1_555
O23_4 Co31_2 1_555 1_555
O28_2 C191_4 1_555 1_555
O26_4 C204_4 1_555 1_555
C171_4 C172_4 1_555 1_555
C191_4 O23_4 1_555 1_555
C196_4 C197_4 1_555 1_555
C202_4 C203_4 1_555 1_555
C204_4 O31_2 1_555 1_555
H31_6 C30_6 1_555 1_555
C31_6 C30_6 1_555 1_555
C32_6 C31_6 1_555 1_555
H32_6 C32_6 1_555 1_555
C34_6 C31_6 1_555 1_555
O3_4 C34_6 1_555 1_555
O4_6 C34_6 1_555 1_555
Co16_2 O3_4 1_555 1_555
N56 N44_4 1_555 1_555
N44_4 Co16_2 1_555 1_555
N59 N46_4 1_555 1_555
N46_4 Co16_2 1_555 1_555
N47_4 N48_4 1_555 1_555
N48_4 H166_4 1_555 1_555
C176_4 H173_4 1_555 1_555
H175_4 C176_4 1_555 1_555
C177_4 N56 1_555 1_555
C179_4 N44_4 1_555 1_555
C180_4 C179_4 1_555 1_555
H176_4 C180_4 1_555 1_555
H177_4 C180_4 1_555 1_555
H178_4 C180_4 1_555 1_555
C181_4 H179_4 1_555 1_555
H180_4 C181_4 1_555 1_555
H181_4 C181_4 1_555 1_555
C182_4 N59 1_555 1_555
C183_4 C182_4 1_555 1_555
C184_4 N46_4 1_555 1_555
C185_4 C184_4 1_555 1_555
H182_4 C185_4 1_555 1_555
H183_4 C185_4 1_555 1_555
H184_4 C185_4 1_555 1_555
C186_4 H185_4 1_555 1_555
H186_4 C186_4 1_555 1_555
H187_4 C186_4 1_555 1_555
C187_4 N47_4 1_555 1_555
C188_4 C183_4 1_555 1_555
C189_4 N48_4 1_555 1_555
C190_4 C189_4 1_555 1_555
H188_4 C190_4 1_555 1_555
H189_4 C190_4 1_555 1_555
H190_4 C190_4 1_555 1_555
Co20_2 N47_4 1_555 1_555
N62_2 Co16_2 1_555 1_555
C176_4 C177_4 1_555 1_555
C177_4 C178_4 1_555 1_555
C178_4 C179_4 1_555 1_555
C181_4 C182_4 1_555 1_555
C183_4 C184_4 1_555 1_555
C186_4 C187_4 1_555 1_555
C187_4 C188_4 1_555 1_555
C188_4 C189_4 1_555 1_555
Co18_2 N4_6 1_555 1_555
Co27_2 N1_6 1_555 1_555
Co33_2 O2_4 1_555 1_555
N1_6 N2_4 1_555 1_555
N2_4 C4_6 1_555 1_555
N54_2 N4_6 1_555 1_555
N4_6 C9_6 1_555 1_555
N6_6 Co18_2 1_555 1_555
N60_2 N8_6 1_555 1_555
N8_6 H1_6 1_555 1_555
C1_6 H2_6 1_555 1_555
H3_6 C1_6 1_555 1_555
H4_6 C1_6 1_555 1_555
C2_6 N1_6 1_555 1_555
C3_6 C2_6 1_555 1_555
C4_6 C3_6 1_555 1_555
C5_6 C4_6 1_555 1_555
H5_6 C5_6 1_555 1_555
H6_6 C5_6 1_555 1_555
H7_6 C5_6 1_555 1_555
C6_6 H8_6 1_555 1_555
H9_6 C6_6 1_555 1_555
H10_6 C6_6 1_555 1_555
C7_6 N54_2 1_555 1_555
C8_6 C3_6 1_555 1_555
C9_6 C8_6 1_555 1_555
C10_6 C9_6 1_555 1_555
H11_6 C10_6 1_555 1_555
H12_6 C10_6 1_555 1_555
H13_6 C10_6 1_555 1_555
C11_6 H14_6 1_555 1_555
H15_6 C11_6 1_555 1_555
H16_6 C11_6 1_555 1_555
C12_6 N57_2 1_555 1_555
C13_6 C12_6 1_555 1_555
C14_6 N6_6 1_555 1_555
C15_6 C14_6 1_555 1_555
H17_6 C15_6 1_555 1_555
H18_6 C15_6 1_555 1_555
H19_6 C15_6 1_555 1_555
C16_6 H20_6 1_555 1_555
H21_6 C16_6 1_555 1_555
H22_6 C16_6 1_555 1_555
C17_6 N60_2 1_555 1_555
C18_6 C13_6 1_555 1_555
C19_6 N8_6 1_555 1_555
C20_6 C19_6 1_555 1_555
H23_6 C20_6 1_555 1_555
H24_6 C20_6 1_555 1_555
H25_6 C20_6 1_555 1_555
C21_6 C22_6 1_555 1_555
C22_6 C23_6 1_555 1_555
C23_6 H26_6 1_555 1_555
C24_6 C23_6 1_555 1_555
H27_6 C24_6 1_555 1_555
C25_6 C24_6 1_555 1_555
C26_6 C25_6 1_555 1_555
H28_6 C26_6 1_555 1_555
C27_6 C22_6 1_555 1_555
H29_6 C27_6 1_555 1_555
C28_6 C25_6 1_555 1_555
C29_6 C28_6 1_555 1_555
H30_6 C29_6 1_555 1_555
C33_6 C28_6 1_555 1_555
H33_6 C33_6 1_555 1_555
O1_6 Co27_2 1_555 1_555
O2_4 C21_6 1_555 1_555
Co21_2 N28_4 1_555 1_555
Co13_4 N2_4 1_555 1_555
N25_4 Co13_4 1_555 1_555
N51_2 N25_4 1_555 1_555
N56_4 N28_4 1_555 1_555
N28_4 C111_4 1_555 1_555
N59_4 N30_4 1_555 1_555
N30_4 Co21_2 1_555 1_555
N62_2 N32_4 1_555 1_555
N32_4 H100_4 1_555 1_555
C103_4 H101_4 1_555 1_555
H102_4 C103_4 1_555 1_555
H103_4 C103_4 1_555 1_555
C104_4 N25_4 1_555 1_555
C105_4 C104_4 1_555 1_555
C106_4 N51_2 1_555 1_555
C107_4 C106_4 1_555 1_555
H104_4 C107_4 1_555 1_555
H105_4 C107_4 1_555 1_555
H106_4 C107_4 1_555 1_555
C108_4 H107_4 1_555 1_555
H108_4 C108_4 1_555 1_555
H109_4 C108_4 1_555 1_555
C109_4 N56_4 1_555 1_555
C110_4 C105_4 1_555 1_555
C111_4 C110_4 1_555 1_555
C112_4 C111_4 1_555 1_555
H110_4 C112_4 1_555 1_555
H111_4 C112_4 1_555 1_555
H112_4 C112_4 1_555 1_555
C113_4 H113_4 1_555 1_555
H114_4 C113_4 1_555 1_555
H115_4 C113_4 1_555 1_555
C114_4 N59_4 1_555 1_555
C115_4 C114_4 1_555 1_555
C116_4 N30_4 1_555 1_555
C117_4 C116_4 1_555 1_555
H116_4 C117_4 1_555 1_555
H117_4 C117_4 1_555 1_555
H118_4 C117_4 1_555 1_555
C118_4 H119_4 1_555 1_555
H120_4 C118_4 1_555 1_555
H121_4 C118_4 1_555 1_555
C119_4 N62_2 1_555 1_555
C120_4 C115_4 1_555 1_555
C121_4 N32_4 1_555 1_555
C122_4 C121_4 1_555 1_555
H122_4 C122_4 1_555 1_555
H123_4 C122_4 1_555 1_555
H124_4 C122_4 1_555 1_555
C123_4 C124_4 1_555 1_555
C124_4 C125_4 1_555 1_555
C125_4 H125_4 1_555 1_555
C126_4 C125_4 1_555 1_555
H126_4 C126_4 1_555 1_555
C127_4 C126_4 1_555 1_555
C128_4 C127_4 1_555 1_555
H127_4 C128_4 1_555 1_555
C129_4 C124_4 1_555 1_555
H128_4 C129_4 1_555 1_555
C130_4 C127_4 1_555 1_555
C131_4 C130_4 1_555 1_555
H129_4 C131_4 1_555 1_555
C132_4 C131_4 1_555 1_555
H130_4 C132_4 1_555 1_555
C133_4 C132_4 1_555 1_555
C134_4 C133_4 1_555 1_555
H131_4 C134_4 1_555 1_555
C135_4 C130_4 1_555 1_555
H132_4 C135_4 1_555 1_555
C136_4 C133_4 1_555 1_555
O15_4 Co13_4 1_555 1_555
O16_4 Co33_2 1_555 1_555
O17_4 C136_4 1_555 1_555
O18_4 C136_4 1_555 1_555
Co32_2 N33_4 1_555 1_555
N33_4 N34_4 1_555 1_555
N34_4 C140_4 1_555 1_555
N55_2 N36_4 1_555 1_555
N36_4 Co23_2 1_555 1_555
N58_2 N38_4 1_555 1_555
N38_4 Co23_2 1_555 1_555
N39_4 Co18_2 1_555 1_555
N40_4 N39_4 1_555 1_555
H133_4 N40_4 1_555 1_555
C137_4 H134_4 1_555 1_555
H135_4 C137_4 1_555 1_555
H136_4 C137_4 1_555 1_555
C138_4 N33_4 1_555 1_555
C139_4 C138_4 1_555 1_555
C140_4 C139_4 1_555 1_555
C141_4 C140_4 1_555 1_555
H137_4 C141_4 1_555 1_555
H138_4 C141_4 1_555 1_555
H139_4 C141_4 1_555 1_555
C142_4 H140_4 1_555 1_555
H141_4 C142_4 1_555 1_555
H142_4 C142_4 1_555 1_555
C143_4 N55_2 1_555 1_555
C144_4 C139_4 1_555 1_555
C145_4 N36_4 1_555 1_555
C146_4 C145_4 1_555 1_555
H143_4 C146_4 1_555 1_555
H144_4 C146_4 1_555 1_555
H145_4 C146_4 1_555 1_555
C147_4 H146_4 1_555 1_555
H147_4 C147_4 1_555 1_555
H148_4 C147_4 1_555 1_555
C148_4 N58_2 1_555 1_555
C149_4 C148_4 1_555 1_555
C150_4 N38_4 1_555 1_555
C151_4 C150_4 1_555 1_555
H149_4 C151_4 1_555 1_555
H150_4 C151_4 1_555 1_555
H151_4 C151_4 1_555 1_555
C152_4 H152_4 1_555 1_555
H153_4 C152_4 1_555 1_555
H154_4 C152_4 1_555 1_555
C153_4 N39_4 1_555 1_555
C154_4 C149_4 1_555 1_555
C155_4 N40_4 1_555 1_555
C156_4 C155_4 1_555 1_555
H155_4 C156_4 1_555 1_555
H156_4 C156_4 1_555 1_555
H157_4 C156_4 1_555 1_555
C157_4 C158_4 1_555 1_555
C158_4 C159_4 1_555 1_555
C159_4 H158_4 1_555 1_555
C160_4 C159_4 1_555 1_555
H159_4 C160_4 1_555 1_555
C161_4 C160_4 1_555 1_555
C162_4 C161_4 1_555 1_555
H160_4 C162_4 1_555 1_555
C163_4 C158_4 1_555 1_555
H161_4 C163_4 1_555 1_555
C164_4 C161_4 1_555 1_555
C165_4 C164_4 1_555 1_555
H162_4 C165_4 1_555 1_555
C169_4 C164_4 1_555 1_555
H165_4 C169_4 1_555 1_555
O19_4 Co32_2 1_555 1_555
O29_2 C157_4 1_555 1_555
Co19_2 O17_4 1_555 1_555
Co28_2 N34_4 1_555 1_555
N61_4 Co21_2 1_555 1_555
O27_4 Co35_2 1_555 1_555
O30_4 Co23_2 1_555 1_555
N57_2 N6_6 1_555 1_555
C1_6 C2_6 1_555 1_555
C6_6 C7_6 1_555 1_555
C7_6 C8_6 1_555 1_555
C11_6 C12_6 1_555 1_555
C13_6 C14_6 1_555 1_555
C16_6 C17_6 1_555 1_555
C17_6 C18_6 1_555 1_555
C18_6 C19_6 1_555 1_555
C21_6 O1_6 1_555 1_555
C26_6 C27_6 1_555 1_555
O33_2 Co13_4 1_555 1_555
C103_4 C104_4 1_555 1_555
C105_4 C106_4 1_555 1_555
C108_4 C109_4 1_555 1_555
C109_4 C110_4 1_555 1_555
C113_4 C114_4 1_555 1_555
C115_4 C116_4 1_555 1_555
C118_4 C119_4 1_555 1_555
C119_4 C120_4 1_555 1_555
C120_4 C121_4 1_555 1_555
C123_4 O15_4 1_555 1_555
C123_4 O16_4 1_555 1_555
C128_4 C129_4 1_555 1_555
C134_4 C135_4 1_555 1_555
C137_4 C138_4 1_555 1_555
C142_4 C143_4 1_555 1_555
C143_4 C144_4 1_555 1_555
C144_4 C145_4 1_555 1_555
C147_4 C148_4 1_555 1_555
C149_4 C150_4 1_555 1_555
C152_4 C153_4 1_555 1_555
C153_4 C154_4 1_555 1_555
C154_4 C155_4 1_555 1_555
C157_4 O19_4 1_555 1_555
C162_4 C163_4 1_555 1_555
Co19_2 N4_7 1_555 1_555
Co28_2 N1_7 1_555 1_555
N1_7 N49_2 1_555 1_555
N49_2 C4_7 1_555 1_555
N54_4 N4_7 1_555 1_555
N4_7 C9_7 1_555 1_555
N6_7 Co19_2 1_555 1_555
N61_3 N8_7 1_555 1_555
N8_7 H1_7 1_555 1_555
C1_7 H2_7 1_555 1_555
H3_7 C1_7 1_555 1_555
H4_7 C1_7 1_555 1_555
C2_7 N1_7 1_555 1_555
C3_7 C2_7 1_555 1_555
C4_7 C3_7 1_555 1_555
C5_7 C4_7 1_555 1_555
H5_7 C5_7 1_555 1_555
H6_7 C5_7 1_555 1_555
H7_7 C5_7 1_555 1_555
C6_7 H8_7 1_555 1_555
H9_7 C6_7 1_555 1_555
H10_7 C6_7 1_555 1_555
C7_7 N54_4 1_555 1_555
C8_7 C3_7 1_555 1_555
C9_7 C8_7 1_555 1_555
C10_7 C9_7 1_555 1_555
H11_7 C10_7 1_555 1_555
H12_7 C10_7 1_555 1_555
H13_7 C10_7 1_555 1_555
C11_7 H14_7 1_555 1_555
H15_7 C11_7 1_555 1_555
H16_7 C11_7 1_555 1_555
C12_7 N57_4 1_555 1_555
C13_7 C12_7 1_555 1_555
C14_7 N6_7 1_555 1_555
C15_7 C14_7 1_555 1_555
H17_7 C15_7 1_555 1_555
H18_7 C15_7 1_555 1_555
H19_7 C15_7 1_555 1_555
C16_7 H20_7 1_555 1_555
H21_7 C16_7 1_555 1_555
H22_7 C16_7 1_555 1_555
C17_7 N61_3 1_555 1_555
C18_7 C13_7 1_555 1_555
C19_7 N8_7 1_555 1_555
C20_7 C19_7 1_555 1_555
H23_7 C20_7 1_555 1_555
H24_7 C20_7 1_555 1_555
H25_7 C20_7 1_555 1_555
C21_7 C22_7 1_555 1_555
C22_7 C23_7 1_555 1_555
C23_7 H26_7 1_555 1_555
C24_7 C23_7 1_555 1_555
H27_7 C24_7 1_555 1_555
C25_7 C24_7 1_555 1_555
C26_7 C25_7 1_555 1_555
H28_7 C26_7 1_555 1_555
C27_7 C22_7 1_555 1_555
H29_7 C27_7 1_555 1_555
C28_7 C25_7 1_555 1_555
C29_7 C28_7 1_555 1_555
H30_7 C29_7 1_555 1_555
C30_7 C29_7 1_555 1_555
H31_7 C30_7 1_555 1_555
C31_7 C30_7 1_555 1_555
C32_7 C31_7 1_555 1_555
H32_7 C32_7 1_555 1_555
C33_7 C28_7 1_555 1_555
H33_7 C33_7 1_555 1_555
C34_7 C31_7 1_555 1_555
O1_7 Co28_2 1_555 1_555
O27_3 C21_7 1_555 1_555
O30_3 C34_7 1_555 1_555
O4_7 C34_7 1_555 1_555
N57_4 N6_7 1_555 1_555
C1_7 C2_7 1_555 1_555
C6_7 C7_7 1_555 1_555
C7_7 C8_7 1_555 1_555
C11_7 C12_7 1_555 1_555
C13_7 C14_7 1_555 1_555
C16_7 C17_7 1_555 1_555
C17_7 C18_7 1_555 1_555
C18_7 C19_7 1_555 1_555
C21_7 O1_7 1_555 1_555
C26_7 C27_7 1_555 1_555
C32_7 C33_7 1_555 1_555
Co20_2 N4_8 1_555 1_555
N54_3 N4_8 1_555 1_555
N4_8 C9_8 1_555 1_555
N6_8 Co20_2 1_555 1_555
N61_4 N8_8 1_555 1_555
N8_8 H1_8 1_555 1_555
C6_8 H8_8 1_555 1_555
H10_8 C6_8 1_555 1_555
C7_8 N54_3 1_555 1_555
C9_8 C8_8 1_555 1_555
C10_8 C9_8 1_555 1_555
H11_8 C10_8 1_555 1_555
H12_8 C10_8 1_555 1_555
H13_8 C10_8 1_555 1_555
C11_8 H14_8 1_555 1_555
H15_8 C11_8 1_555 1_555
H16_8 C11_8 1_555 1_555
C12_8 N57_3 1_555 1_555
C13_8 C12_8 1_555 1_555
C14_8 N6_8 1_555 1_555
C15_8 C14_8 1_555 1_555
H17_8 C15_8 1_555 1_555
H18_8 C15_8 1_555 1_555
H19_8 C15_8 1_555 1_555
C16_8 H20_8 1_555 1_555
H21_8 C16_8 1_555 1_555
H22_8 C16_8 1_555 1_555
C17_8 N61_4 1_555 1_555
C18_8 C13_8 1_555 1_555
C19_8 N8_8 1_555 1_555
C20_8 C19_8 1_555 1_555
H23_8 C20_8 1_555 1_555
H24_8 C20_8 1_555 1_555
H25_8 C20_8 1_555 1_555
N57_3 N6_8 1_555 1_555
C6_8 C7_8 1_555 1_555
C7_8 C8_8 1_555 1_555
C11_8 C12_8 1_555 1_555
C13_8 C14_8 1_555 1_555
C16_8 C17_8 1_555 1_555
C17_8 C18_8 1_555 1_555
C18_8 C19_8 1_555 1_555
Co29_2 N1_8 1_555 1_555
N1_8 N50_2 1_555 1_555
N50_2 C4_8 1_555 1_555
C1_8 H2_8 1_555 1_555
H3_8 C1_8 1_555 1_555
H4_8 C1_8 1_555 1_555
C2_8 N1_8 1_555 1_555
C3_8 C2_8 1_555 1_555
C4_8 C3_8 1_555 1_555
C5_8 C4_8 1_555 1_555
H5_8 C5_8 1_555 1_555
H6_8 C5_8 1_555 1_555
H7_8 C5_8 1_555 1_555
C21_8 C22_8 1_555 1_555
C22_8 C23_8 1_555 1_555
C23_8 H26_8 1_555 1_555
C24_8 C23_8 1_555 1_555
H27_8 C24_8 1_555 1_555
C25_8 C24_8 1_555 1_555
C26_8 C25_8 1_555 1_555
H28_8 C26_8 1_555 1_555
C27_8 C22_8 1_555 1_555
H29_8 C27_8 1_555 1_555
C28_8 C25_8 1_555 1_555
C29_8 C28_8 1_555 1_555
H30_8 C29_8 1_555 1_555
C33_8 C28_8 1_555 1_555
H33_8 C33_8 1_555 1_555
O1_8 Co29_2 1_555 1_555
O27_4 C21_8 1_555 1_555
C1_8 C2_8 1_555 1_555
C21_8 O1_8 1_555 1_555
C26_8 C27_8 1_555 1_555
H31_8 C30_8 1_555 1_555
C31_8 C30_8 1_555 1_555
C32_8 C31_8 1_555 1_555
H32_8 C32_8 1_555 1_555
C34_8 C31_8 1_555 1_555
O30_4 C34_8 1_555 1_555
O4_8 C34_8 1_555 1_555

#END
