
###############################################################################
#
# This file contains modified crystal structure data generated from the
# MOF subset of the Cambridge Structural Database (CSD) v543 
# hosted by the Cambridge Crystallographic Data Centre (CCDC).
#
# This work is licensed under the Creative Commons
# Attribution-NonCommercial-ShareAlike 4.0 International License.
# To view a copy of this license, visit
# http://creativecommons.org/licenses/by-nc-sa/4.0/
# or send a letter to
# Creative Commons, PO Box 1866, Mountain View, CA 94042, USA.
#
# CIF created using the CSD Python API on 29 September 2022
# The structure has been converted into the P1 space group
# The structure has a 3D framework
# The original CSD entry POXLIZ is in the cubic crystal system
# The framework has been calculated to contain at least 10.0% void space
# The void calculation uses a probe of radius 1.32A, grid spacing 0.4
# H atom positions have been added when not included in the experimental data
# Generated hydrogen atom positions removed from atoms on special positions
#
###############################################################################

data_POXLIZ
_chemical_formula_moiety         '(C288 H768 O214 Th54)n'
_symmetry_cell_setting           triclinic
_symmetry_space_group_name_H-M   'P 1'
_symmetry_Int_Tables_number      1
_space_group_name_Hall           'P 1'
loop_
_symmetry_equiv_pos_site_id
_symmetry_equiv_pos_as_xyz
1 x,y,z
_cell_length_a                   21.9606(13)
_cell_length_b                   21.9606(13)
_cell_length_c                   21.9606(13)
_cell_angle_alpha                90
_cell_angle_beta                 90
_cell_angle_gamma                90
_cell_volume                     10590.9
loop_
_atom_site_label
_atom_site_type_symbol
_atom_site_fract_x
_atom_site_fract_y
_atom_site_fract_z
O2 O 0.2492(7) 0.0000 0.0000
O3 O 0.0618(5) 0.0618(5) 0.0618(5)
Th1 Th 0.128560(19) 0.0000 0.0000
O7 O 0.1746(3) 0.1018(3) 0.0000
C9 C 0.1569(3) 0.1569(3) 0.0000
C10 C 0.2050(3) 0.2050(3) 0.0000
C11 C 0.2650(5) 0.1897(5) 0.0000
H5 H 0.2762 0.1488 0.0000
O9 O 0.1018(3) 0.1746(3) 0.0000
C12 C 0.1897(5) 0.2650(5) 0.0000
H6 H 0.1488 0.2762 0.0000
O10 O 0.3982(3) 0.3254(3) 0.0000
C13 C 0.3431(3) 0.3431(3) 0.0000
C14 C 0.2950(3) 0.2950(3) 0.0000
C15 C 0.3103(5) 0.2350(5) 0.0000
H7 H 0.3512 0.2238 0.0000
O11 O 0.3254(3) 0.3982(3) 0.0000
C16 C 0.2350(5) 0.3103(5) 0.0000
H8 H 0.2238 0.3512 0.0000
O13 O 0.0000 0.2492(7) 0.0000
Th2 Th 0.0000 0.128560(19) 0.0000
O22 O -0.0000 0.1746(3) 0.1018(3)
O25 O 0.1746(3) -0.0000 0.1018(3)
Th5 Th 0.0000 0.0000 0.128560(19)
Th10 Th 0.371440(19) 0.5000 0.0000
Th12 Th 0.5000 0.371440(19) 0.0000
O2_2 O 0.2492(7) 0.0000 1.0000
Th1_2 Th 0.128560(19) 0.0000 1.0000
O7_2 O 0.1746(3) 0.1018(3) 1.0000
C9_2 C 0.1569(3) 0.1569(3) 1.0000
C10_2 C 0.2050(3) 0.2050(3) 1.0000
C11_2 C 0.2650(5) 0.1897(5) 1.0000
H5_2 H 0.2762 0.1488 1.0000
O9_2 O 0.1018(3) 0.1746(3) 1.0000
C12_2 C 0.1897(5) 0.2650(5) 1.0000
H6_2 H 0.1488 0.2762 1.0000
O10_2 O 0.3982(3) 0.3254(3) 1.0000
C13_2 C 0.3431(3) 0.3431(3) 1.0000
C14_2 C 0.2950(3) 0.2950(3) 1.0000
C15_2 C 0.3103(5) 0.2350(5) 1.0000
H7_2 H 0.3512 0.2238 1.0000
O11_2 O 0.3254(3) 0.3982(3) 1.0000
C16_2 C 0.2350(5) 0.3103(5) 1.0000
H8_2 H 0.2238 0.3512 1.0000
O12 O -0.0000 0.1746(3) 0.8982(3)
O13_2 O -0.0000 0.2492(7) 1.0000
C17 C -0.0000 0.1569(3) 0.8431(3)
C18 C 0.0000 0.2050(3) 0.7950(3)
C19 C -0.0000 0.2650(5) 0.8103(5)
H9 H 0.0000 0.2762 0.8512
Th2_2 Th -0.0000 0.128560(19) 1.0000
O14 O -0.0000 0.1018(3) 0.8254(3)
C20 C 0.0000 0.1897(5) 0.7350(5)
H10 H 0.0000 0.1488 0.7238
O15 O -0.0000 0.3982(3) 0.6746(3)
C21 C 0.0000 0.3431(3) 0.6569(3)
C22 C -0.0000 0.2950(3) 0.7050(3)
C23 C -0.0000 0.3103(5) 0.7650(5)
H11 H 0.0000 0.3512 0.7762
O16 O 0.0000 0.3254(3) 0.6018(3)
C24 C 0.0000 0.2350(5) 0.6897(5)
H12 H 0.0000 0.2238 0.6488
O26 O 0.1746(3) 0.0000 0.8982(3)
O27 O 0.0618(5) 0.0618(5) 0.9382(5)
Th6 Th -0.0000 0.0000 0.871440(19)
Th7 Th -0.0000 0.371440(19) 0.5000
Th8 Th -0.0000 0.5000 0.628560(19)
Th10_2 Th 0.371440(19) 0.5000 1.0000
Th12_2 Th 0.5000 0.371440(19) 1.0000
O1 O 0.1746(3) 0.8982(3) 0.0000
O2_3 O 0.2492(7) 1.0000 0.0000
C1 C 0.1569(3) 0.8431(3) 0.0000
C2 C 0.2050(3) 0.7950(3) 0.0000
C3 C 0.2650(5) 0.8103(5) 0.0000
H1 H 0.2762 0.8512 0.0000
Th1_3 Th 0.128560(19) 1.0000 0.0000
O4 O 0.1018(3) 0.8254(3) 0.0000
C4 C 0.1897(5) 0.7350(5) 0.0000
H2 H 0.1488 0.7238 0.0000
O5 O 0.3982(3) 0.6746(3) 0.0000
C5 C 0.3431(3) 0.6569(3) 0.0000
C6 C 0.2950(3) 0.7050(3) 0.0000
C7 C 0.3103(5) 0.7650(5) 0.0000
H3 H 0.3512 0.7762 0.0000
O6 O 0.3254(3) 0.6018(3) 0.0000
C8 C 0.2350(5) 0.6897(5) 0.0000
H4 H 0.2238 0.6488 0.0000
O17 O 0.0000 0.7508(7) 0.0000
Th3 Th 0.0000 0.871440(19) 0.0000
O20 O -0.0000 0.8254(3) 0.1018(3)
O25_2 O 0.1746(3) 1.0000 0.1018(3)
O29 O 0.0618(5) 0.9382(5) 0.0618(5)
Th5_2 Th -0.0000 1.0000 0.128560(19)
Th11 Th 0.5000 0.628560(19) 0.0000
O1_2 O 0.1746(3) 0.8982(3) 1.0000
O2_4 O 0.2492(7) 1.0000 1.0000
C1_2 C 0.1569(3) 0.8431(3) 1.0000
C2_2 C 0.2050(3) 0.7950(3) 1.0000
C3_2 C 0.2650(5) 0.8103(5) 1.0000
H1_2 H 0.2762 0.8512 1.0000
Th1_4 Th 0.128560(19) 1.0000 1.0000
O4_2 O 0.1018(3) 0.8254(3) 1.0000
C4_2 C 0.1897(5) 0.7350(5) 1.0000
H2_2 H 0.1488 0.7238 1.0000
O5_2 O 0.3982(3) 0.6746(3) 1.0000
C5_2 C 0.3431(3) 0.6569(3) 1.0000
C6_2 C 0.2950(3) 0.7050(3) 1.0000
C7_2 C 0.3103(5) 0.7650(5) 1.0000
H3_2 H 0.3512 0.7762 1.0000
O6_2 O 0.3254(3) 0.6018(3) 1.0000
C8_2 C 0.2350(5) 0.6897(5) 1.0000
H4_2 H 0.2238 0.6488 1.0000
O8 O 0.0618(5) 0.9382(5) 0.9382(5)
O17_2 O 0.0000 0.7508(7) 1.0000
Th3_2 Th -0.0000 0.871440(19) 1.0000
O21 O 0.0000 0.8254(3) 0.8982(3)
O26_2 O 0.1746(3) 1.0000 0.8982(3)
Th6_2 Th -0.0000 1.0000 0.871440(19)
Th11_2 Th 0.5000 0.628560(19) 1.0000
O13_3 O 1.0000 0.2492(7) 0.0000
Th2_3 Th 1.0000 0.128560(19) 0.0000
O22_2 O 1.0000 0.1746(3) 0.1018(3)
O23 O 0.8982(3) 0.1746(3) 0.0000
O30 O 0.9382(5) 0.0618(5) 0.0618(5)
Th4 Th 0.871440(19) 0.0000 0.0000
Th5_3 Th 1.0000 0.0000 0.128560(19)
O12_2 O 1.0000 0.1746(3) 0.8982(3)
O13_4 O 1.0000 0.2492(7) 1.0000
C17_2 C 1.0000 0.1569(3) 0.8431(3)
C18_2 C 1.0000 0.2050(3) 0.7950(3)
C19_2 C 1.0000 0.2650(5) 0.8103(5)
H9_2 H 1.0000 0.2762 0.8512
Th2_4 Th 1.0000 0.128560(19) 1.0000
O14_2 O 1.0000 0.1018(3) 0.8254(3)
C20_2 C 1.0000 0.1897(5) 0.7350(5)
H10_2 H 1.0000 0.1488 0.7238
O15_2 O 1.0000 0.3982(3) 0.6746(3)
C21_2 C 1.0000 0.3431(3) 0.6569(3)
C22_2 C 1.0000 0.2950(3) 0.7050(3)
C23_2 C 1.0000 0.3103(5) 0.7650(5)
H11_2 H 1.0000 0.3512 0.7762
O16_2 O 1.0000 0.3254(3) 0.6018(3)
C24_2 C 1.0000 0.2350(5) 0.6897(5)
H12_2 H 1.0000 0.2238 0.6488
O19 O 0.9382(5) 0.0618(5) 0.9382(5)
O23_2 O 0.8982(3) 0.1746(3) 1.0000
Th4_2 Th 0.871440(19) 0.0000 1.0000
Th6_3 Th 1.0000 0.0000 0.871440(19)
Th7_2 Th 1.0000 0.371440(19) 0.5000
Th8_2 Th 1.0000 0.5000 0.628560(19)
O17_3 O 1.0000 0.7508(7) 0.0000
Th3_3 Th 1.0000 0.871440(19) 0.0000
O18 O 0.9382(5) 0.9382(5) 0.0618(5)
O20_2 O 1.0000 0.8254(3) 0.1018(3)
O24 O 0.8982(3) 0.8254(3) 0.0000
Th4_3 Th 0.871440(19) 1.0000 0.0000
Th5_4 Th 1.0000 1.0000 0.128560(19)
O17_4 O 1.0000 0.7508(7) 1.0000
Th3_4 Th 1.0000 0.871440(19) 1.0000
O21_2 O 1.0000 0.8254(3) 0.8982(3)
O24_2 O 0.8982(3) 0.8254(3) 1.0000
O28 O 0.9382(5) 0.9382(5) 0.9382(5)
Th4_4 Th 0.871440(19) 1.0000 1.0000
Th6_4 Th 1.0000 1.0000 0.871440(19)
C17_3 C -0.0000 0.8431(3) 0.8431(3)
C18_3 C 0.0000 0.7950(3) 0.7950(3)
C19_3 C -0.0000 0.7350(5) 0.8103(5)
H9_3 H 0.0000 0.7238 0.8512
O14_3 O 0.0000 0.8982(3) 0.8254(3)
C20_3 C -0.0000 0.8103(5) 0.7350(5)
H10_3 H 0.0000 0.8512 0.7238
O15_3 O 0.0000 0.6018(3) 0.6746(3)
C21_3 C 0.0000 0.6569(3) 0.6569(3)
C22_3 C 0.0000 0.7050(3) 0.7050(3)
C23_3 C 0.0000 0.6897(5) 0.7650(5)
H11_3 H 0.0000 0.6488 0.7762
O16_3 O 0.0000 0.6746(3) 0.6018(3)
C24_3 C 0.0000 0.7650(5) 0.6897(5)
H12_3 H 0.0000 0.7762 0.6488
Th7_3 Th 0.0000 0.628560(19) 0.5000
O1_3 O 0.8254(3) 0.1018(3) 0.0000
O2_5 O 0.7508(7) 0.0000 0.0000
C1_3 C 0.8431(3) 0.1569(3) 0.0000
C2_3 C 0.7950(3) 0.2050(3) 0.0000
C3_3 C 0.7350(5) 0.1897(5) 0.0000
H1_3 H 0.7238 0.1488 0.0000
C4_3 C 0.8103(5) 0.2650(5) 0.0000
H2_3 H 0.8512 0.2762 0.0000
O5_3 O 0.6018(3) 0.3254(3) 0.0000
C5_3 C 0.6569(3) 0.3431(3) 0.0000
C6_3 C 0.7050(3) 0.2950(3) 0.0000
C7_3 C 0.6897(5) 0.2350(5) 0.0000
H3_3 H 0.6488 0.2238 0.0000
O6_3 O 0.6746(3) 0.3982(3) 0.0000
C8_3 C 0.7650(5) 0.3103(5) 0.0000
H4_3 H 0.7762 0.3512 0.0000
O25_3 O 0.8254(3) 0.0000 0.1018(3)
Th9 Th 0.628560(19) 0.5000 0.0000
O1_4 O 0.8254(3) 0.1018(3) 1.0000
O2_6 O 0.7508(7) 0.0000 1.0000
C1_4 C 0.8431(3) 0.1569(3) 1.0000
C2_4 C 0.7950(3) 0.2050(3) 1.0000
C3_4 C 0.7350(5) 0.1897(5) 1.0000
H1_4 H 0.7238 0.1488 1.0000
C4_4 C 0.8103(5) 0.2650(5) 1.0000
H2_4 H 0.8512 0.2762 1.0000
O5_4 O 0.6018(3) 0.3254(3) 1.0000
C5_4 C 0.6569(3) 0.3431(3) 1.0000
C6_4 C 0.7050(3) 0.2950(3) 1.0000
C7_4 C 0.6897(5) 0.2350(5) 1.0000
H3_4 H 0.6488 0.2238 1.0000
O6_4 O 0.6746(3) 0.3982(3) 1.0000
C8_4 C 0.7650(5) 0.3103(5) 1.0000
H4_4 H 0.7762 0.3512 1.0000
O26_3 O 0.8254(3) 0.0000 0.8982(3)
Th9_2 Th 0.628560(19) 0.5000 1.0000
O2_7 O 0.7508(7) 1.0000 0.0000
O7_3 O 0.8254(3) 0.8982(3) 0.0000
C9_3 C 0.8431(3) 0.8431(3) 0.0000
C10_3 C 0.7950(3) 0.7950(3) 0.0000
C11_3 C 0.7350(5) 0.8103(5) 0.0000
H5_3 H 0.7238 0.8512 0.0000
C12_3 C 0.8103(5) 0.7350(5) 0.0000
H6_3 H 0.8512 0.7238 0.0000
O10_3 O 0.6018(3) 0.6746(3) 0.0000
C13_3 C 0.6569(3) 0.6569(3) 0.0000
C14_3 C 0.7050(3) 0.7050(3) 0.0000
C15_3 C 0.6897(5) 0.7650(5) 0.0000
H7_3 H 0.6488 0.7762 0.0000
O11_3 O 0.6746(3) 0.6018(3) 0.0000
C16_3 C 0.7650(5) 0.6897(5) 0.0000
H8_3 H 0.7762 0.6488 0.0000
O25_4 O 0.8254(3) 1.0000 0.1018(3)
O2_8 O 0.7508(7) 1.0000 1.0000
O7_4 O 0.8254(3) 0.8982(3) 1.0000
C9_4 C 0.8431(3) 0.8431(3) 1.0000
C10_4 C 0.7950(3) 0.7950(3) 1.0000
C11_4 C 0.7350(5) 0.8103(5) 1.0000
H5_4 H 0.7238 0.8512 1.0000
C12_4 C 0.8103(5) 0.7350(5) 1.0000
H6_4 H 0.8512 0.7238 1.0000
O10_4 O 0.6018(3) 0.6746(3) 1.0000
C13_4 C 0.6569(3) 0.6569(3) 1.0000
C14_4 C 0.7050(3) 0.7050(3) 1.0000
C15_4 C 0.6897(5) 0.7650(5) 1.0000
H7_4 H 0.6488 0.7762 1.0000
O11_4 O 0.6746(3) 0.6018(3) 1.0000
C16_4 C 0.7650(5) 0.6897(5) 1.0000
H8_4 H 0.7762 0.6488 1.0000
C17_4 C 1.0000 0.8431(3) 0.8431(3)
C18_4 C 1.0000 0.7950(3) 0.7950(3)
C19_4 C 1.0000 0.7350(5) 0.8103(5)
H9_4 H 1.0000 0.7238 0.8512
O14_4 O 1.0000 0.8982(3) 0.8254(3)
C20_4 C 1.0000 0.8103(5) 0.7350(5)
H10_4 H 1.0000 0.8512 0.7238
O15_4 O 1.0000 0.6018(3) 0.6746(3)
C21_4 C 1.0000 0.6569(3) 0.6569(3)
C22_4 C 1.0000 0.7050(3) 0.7050(3)
C23_4 C 1.0000 0.6897(5) 0.7650(5)
H11_4 H 1.0000 0.6488 0.7762
O16_4 O 1.0000 0.6746(3) 0.6018(3)
C24_4 C 1.0000 0.7650(5) 0.6897(5)
H12_4 H 1.0000 0.7762 0.6488
O26_4 O 0.8254(3) 1.0000 0.8982(3)
Th7_4 Th 1.0000 0.628560(19) 0.5000
C17_5 C 0.0000 0.1569(3) 0.1569(3)
C18_5 C 0.0000 0.2050(3) 0.2050(3)
C19_5 C 0.0000 0.2650(5) 0.1897(5)
H9_5 H 0.0000 0.2762 0.1488
O14_5 O -0.0000 0.1018(3) 0.1746(3)
C20_5 C 0.0000 0.1897(5) 0.2650(5)
H10_5 H -0.0000 0.1488 0.2762
O15_5 O -0.0000 0.3982(3) 0.3254(3)
C21_5 C -0.0000 0.3431(3) 0.3431(3)
C22_5 C 0.0000 0.2950(3) 0.2950(3)
C23_5 C 0.0000 0.3103(5) 0.2350(5)
H11_5 H 0.0000 0.3512 0.2238
O16_5 O -0.0000 0.3254(3) 0.3982(3)
C24_5 C 0.0000 0.2350(5) 0.3103(5)
H12_5 H -0.0000 0.2238 0.3512
Th8_3 Th 0.0000 0.5000 0.371440(19)
C17_6 C 1.0000 0.1569(3) 0.1569(3)
C18_6 C 1.0000 0.2050(3) 0.2050(3)
C19_6 C 1.0000 0.2650(5) 0.1897(5)
H9_6 H 1.0000 0.2762 0.1488
O14_6 O 1.0000 0.1018(3) 0.1746(3)
C20_6 C 1.0000 0.1897(5) 0.2650(5)
H10_6 H 1.0000 0.1488 0.2762
O15_6 O 1.0000 0.3982(3) 0.3254(3)
C21_6 C 1.0000 0.3431(3) 0.3431(3)
C22_6 C 1.0000 0.2950(3) 0.2950(3)
C23_6 C 1.0000 0.3103(5) 0.2350(5)
H11_6 H 1.0000 0.3512 0.2238
O16_6 O 1.0000 0.3254(3) 0.3982(3)
C24_6 C 1.0000 0.2350(5) 0.3103(5)
H12_6 H 1.0000 0.2238 0.3512
Th8_4 Th 1.0000 0.5000 0.371440(19)
C17_7 C -0.0000 0.8431(3) 0.1569(3)
C18_7 C 0.0000 0.7950(3) 0.2050(3)
C19_7 C 0.0000 0.7350(5) 0.1897(5)
H9_7 H -0.0000 0.7238 0.1488
O14_7 O -0.0000 0.8982(3) 0.1746(3)
C20_7 C -0.0000 0.8103(5) 0.2650(5)
H10_7 H 0.0000 0.8512 0.2762
O15_7 O 0.0000 0.6018(3) 0.3254(3)
C21_7 C 0.0000 0.6569(3) 0.3431(3)
C22_7 C 0.0000 0.7050(3) 0.2950(3)
C23_7 C 0.0000 0.6897(5) 0.2350(5)
H11_7 H 0.0000 0.6488 0.2238
O16_7 O -0.0000 0.6746(3) 0.3982(3)
C24_7 C -0.0000 0.7650(5) 0.3103(5)
H12_7 H 0.0000 0.7762 0.3512
C17_8 C 1.0000 0.8431(3) 0.1569(3)
C18_8 C 1.0000 0.7950(3) 0.2050(3)
C19_8 C 1.0000 0.7350(5) 0.1897(5)
H9_8 H 1.0000 0.7238 0.1488
O14_8 O 1.0000 0.8982(3) 0.1746(3)
C20_8 C 1.0000 0.8103(5) 0.2650(5)
H10_8 H 1.0000 0.8512 0.2762
O15_8 O 1.0000 0.6018(3) 0.3254(3)
C21_8 C 1.0000 0.6569(3) 0.3431(3)
C22_8 C 1.0000 0.7050(3) 0.2950(3)
C23_8 C 1.0000 0.6897(5) 0.2350(5)
H11_8 H 1.0000 0.6488 0.2238
O16_8 O 1.0000 0.6746(3) 0.3982(3)
C24_8 C 1.0000 0.7650(5) 0.3103(5)
H12_8 H 1.0000 0.7762 0.3512
O13_5 O 0.0000 0.0000 0.2492(7)
O22_3 O 0.1018(3) 0.0000 0.1746(3)
O17_5 O 0.0000 0.0000 0.7508(7)
O20_3 O 0.1018(3) 0.0000 0.8254(3)
O13_6 O -0.0000 1.0000 0.2492(7)
O22_4 O 0.1018(3) 1.0000 0.1746(3)
O17_6 O 0.0000 1.0000 0.7508(7)
O20_4 O 0.1018(3) 1.0000 0.8254(3)
O12_3 O 0.8982(3) 0.0000 0.1746(3)
O13_7 O 1.0000 0.0000 0.2492(7)
C17_9 C 0.8431(3) 0.0000 0.1569(3)
C18_9 C 0.7950(3) 0.0000 0.2050(3)
C19_9 C 0.8103(5) 0.0000 0.2650(5)
H9_9 H 0.8512 0.0000 0.2762
C20_9 C 0.7350(5) -0.0000 0.1897(5)
H10_9 H 0.7238 0.0000 0.1488
O15_9 O 0.6746(3) 0.0000 0.3982(3)
C21_9 C 0.6569(3) 0.0000 0.3431(3)
C22_9 C 0.7050(3) 0.0000 0.2950(3)
C23_9 C 0.7650(5) -0.0000 0.3103(5)
H11_9 H 0.7762 0.0000 0.3512
O16_9 O 0.6018(3) 0.0000 0.3254(3)
C24_9 C 0.6897(5) 0.0000 0.2350(5)
H12_9 H 0.6488 0.0000 0.2238
Th7_5 Th 0.5000 0.0000 0.371440(19)
Th8_5 Th 0.628560(19) -0.0000 0.5000
O17_7 O 1.0000 0.0000 0.7508(7)
O21_3 O 0.8982(3) 0.0000 0.8254(3)
O12_4 O 0.8982(3) 1.0000 0.1746(3)
O13_8 O 1.0000 1.0000 0.2492(7)
C17_10 C 0.8431(3) 1.0000 0.1569(3)
C18_10 C 0.7950(3) 1.0000 0.2050(3)
C19_10 C 0.8103(5) 1.0000 0.2650(5)
H9_10 H 0.8512 1.0000 0.2762
C20_10 C 0.7350(5) 1.0000 0.1897(5)
H10_10 H 0.7238 1.0000 0.1488
O15_10 O 0.6746(3) 1.0000 0.3982(3)
C21_10 C 0.6569(3) 1.0000 0.3431(3)
C22_10 C 0.7050(3) 1.0000 0.2950(3)
C23_10 C 0.7650(5) 1.0000 0.3103(5)
H11_10 H 0.7762 1.0000 0.3512
O16_10 O 0.6018(3) 1.0000 0.3254(3)
C24_10 C 0.6897(5) 1.0000 0.2350(5)
H12_10 H 0.6488 1.0000 0.2238
Th7_6 Th 0.5000 1.0000 0.371440(19)
Th8_6 Th 0.628560(19) 1.0000 0.5000
O17_8 O 1.0000 1.0000 0.7508(7)
O21_4 O 0.8982(3) 1.0000 0.8254(3)
C17_11 C 0.8431(3) -0.0000 0.8431(3)
C18_11 C 0.7950(3) 0.0000 0.7950(3)
C19_11 C 0.8103(5) 0.0000 0.7350(5)
H9_11 H 0.8512 -0.0000 0.7238
C20_11 C 0.7350(5) -0.0000 0.8103(5)
H10_11 H 0.7238 0.0000 0.8512
O15_11 O 0.6746(3) 0.0000 0.6018(3)
C21_11 C 0.6569(3) 0.0000 0.6569(3)
C22_11 C 0.7050(3) 0.0000 0.7050(3)
C23_11 C 0.7650(5) 0.0000 0.6897(5)
H11_11 H 0.7762 0.0000 0.6488
O16_11 O 0.6018(3) -0.0000 0.6746(3)
C24_11 C 0.6897(5) -0.0000 0.7650(5)
H12_11 H 0.6488 0.0000 0.7762
Th7_7 Th 0.5000 0.0000 0.628560(19)
C17_12 C 0.8431(3) 1.0000 0.8431(3)
C18_12 C 0.7950(3) 1.0000 0.7950(3)
C19_12 C 0.8103(5) 1.0000 0.7350(5)
H9_12 H 0.8512 1.0000 0.7238
C20_12 C 0.7350(5) 1.0000 0.8103(5)
H10_12 H 0.7238 1.0000 0.8512
O15_12 O 0.6746(3) 1.0000 0.6018(3)
C21_12 C 0.6569(3) 1.0000 0.6569(3)
C22_12 C 0.7050(3) 1.0000 0.7050(3)
C23_12 C 0.7650(5) 1.0000 0.6897(5)
H11_12 H 0.7762 1.0000 0.6488
O16_12 O 0.6018(3) 1.0000 0.6746(3)
C24_12 C 0.6897(5) 1.0000 0.7650(5)
H12_12 H 0.6488 1.0000 0.7762
Th7_8 Th 0.5000 1.0000 0.628560(19)
C17_13 C 0.1569(3) 0.0000 0.1569(3)
C18_13 C 0.2050(3) 0.0000 0.2050(3)
C19_13 C 0.1897(5) 0.0000 0.2650(5)
H9_13 H 0.1488 0.0000 0.2762
C20_13 C 0.2650(5) 0.0000 0.1897(5)
H10_13 H 0.2762 -0.0000 0.1488
O15_13 O 0.3254(3) 0.0000 0.3982(3)
C21_13 C 0.3431(3) 0.0000 0.3431(3)
C22_13 C 0.2950(3) 0.0000 0.2950(3)
C23_13 C 0.2350(5) -0.0000 0.3103(5)
H11_13 H 0.2238 0.0000 0.3512
O16_13 O 0.3982(3) 0.0000 0.3254(3)
C24_13 C 0.3103(5) 0.0000 0.2350(5)
H12_13 H 0.3512 -0.0000 0.2238
Th8_7 Th 0.371440(19) 0.0000 0.5000
C17_14 C 0.1569(3) 1.0000 0.1569(3)
C18_14 C 0.2050(3) 1.0000 0.2050(3)
C19_14 C 0.1897(5) 1.0000 0.2650(5)
H9_14 H 0.1488 1.0000 0.2762
C20_14 C 0.2650(5) 1.0000 0.1897(5)
H10_14 H 0.2762 1.0000 0.1488
O15_14 O 0.3254(3) 1.0000 0.3982(3)
C21_14 C 0.3431(3) 1.0000 0.3431(3)
C22_14 C 0.2950(3) 1.0000 0.2950(3)
C23_14 C 0.2350(5) 1.0000 0.3103(5)
H11_14 H 0.2238 1.0000 0.3512
O16_14 O 0.3982(3) 1.0000 0.3254(3)
C24_14 C 0.3103(5) 1.0000 0.2350(5)
H12_14 H 0.3512 1.0000 0.2238
Th8_8 Th 0.371440(19) 1.0000 0.5000
C17_15 C 0.1569(3) -0.0000 0.8431(3)
C18_15 C 0.2050(3) 0.0000 0.7950(3)
C19_15 C 0.1897(5) 0.0000 0.7350(5)
H9_15 H 0.1488 -0.0000 0.7238
C20_15 C 0.2650(5) -0.0000 0.8103(5)
H10_15 H 0.2762 0.0000 0.8512
O15_15 O 0.3254(3) 0.0000 0.6018(3)
C21_15 C 0.3431(3) 0.0000 0.6569(3)
C22_15 C 0.2950(3) 0.0000 0.7050(3)
C23_15 C 0.2350(5) 0.0000 0.6897(5)
H11_15 H 0.2238 0.0000 0.6488
O16_15 O 0.3982(3) -0.0000 0.6746(3)
C24_15 C 0.3103(5) -0.0000 0.7650(5)
H12_15 H 0.3512 0.0000 0.7762
C17_16 C 0.1569(3) 1.0000 0.8431(3)
C18_16 C 0.2050(3) 1.0000 0.7950(3)
C19_16 C 0.1897(5) 1.0000 0.7350(5)
H9_16 H 0.1488 1.0000 0.7238
C20_16 C 0.2650(5) 1.0000 0.8103(5)
H10_16 H 0.2762 1.0000 0.8512
O15_16 O 0.3254(3) 1.0000 0.6018(3)
C21_16 C 0.3431(3) 1.0000 0.6569(3)
C22_16 C 0.2950(3) 1.0000 0.7050(3)
C23_16 C 0.2350(5) 1.0000 0.6897(5)
H11_16 H 0.2238 1.0000 0.6488
O16_16 O 0.3982(3) 1.0000 0.6746(3)
C24_16 C 0.3103(5) 1.0000 0.7650(5)
H12_16 H 0.3512 1.0000 0.7762
O1_5 O 0.1746(3) 0.3982(3) 0.5000
O2_9 O 0.2492(7) 0.5000 0.5000
C1_5 C 0.1569(3) 0.3431(3) 0.5000
C2_5 C 0.2050(3) 0.2950(3) 0.5000
C3_5 C 0.2650(5) 0.3103(5) 0.5000
H1_5 H 0.2762 0.3512 0.5000
O3_2 O 0.0618(5) 0.5618(5) 0.5618(5)
Th1_5 Th 0.128560(19) 0.5000 0.5000
O4_3 O 0.1018(3) 0.3254(3) 0.5000
C4_5 C 0.1897(5) 0.2350(5) 0.5000
H2_5 H 0.1488 0.2238 0.5000
O5_5 O 0.3982(3) 0.1746(3) 0.5000
C5_5 C 0.3431(3) 0.1569(3) 0.5000
C6_5 C 0.2950(3) 0.2050(3) 0.5000
C7_5 C 0.3103(5) 0.2650(5) 0.5000
H3_5 H 0.3512 0.2762 0.5000
O6_5 O 0.3254(3) 0.1018(3) 0.5000
C8_5 C 0.2350(5) 0.1897(5) 0.5000
H4_5 H 0.2238 0.1488 0.5000
O7_5 O 0.1746(3) 0.6018(3) 0.5000
C9_5 C 0.1569(3) 0.6569(3) 0.5000
C10_5 C 0.2050(3) 0.7050(3) 0.5000
C11_5 C 0.2650(5) 0.6897(5) 0.5000
H5_5 H 0.2762 0.6488 0.5000
O8_2 O 0.0618(5) 0.4382(5) 0.4382(5)
O9_3 O 0.1018(3) 0.6746(3) 0.5000
C12_5 C 0.1897(5) 0.7650(5) 0.5000
H6_5 H 0.1488 0.7762 0.5000
O10_5 O 0.3982(3) 0.8254(3) 0.5000
C13_5 C 0.3431(3) 0.8431(3) 0.5000
C14_5 C 0.2950(3) 0.7950(3) 0.5000
C15_5 C 0.3103(5) 0.7350(5) 0.5000
H7_5 H 0.3512 0.7238 0.5000
O11_5 O 0.3254(3) 0.8982(3) 0.5000
C16_5 C 0.2350(5) 0.8103(5) 0.5000
H8_5 H 0.2238 0.8512 0.5000
O13_9 O 0.0000 0.7492(7) 0.5000
O17_9 O -0.0000 0.2508(7) 0.5000
O25_5 O 0.1746(3) 0.5000 0.6018(3)
O26_5 O 0.1746(3) 0.5000 0.3982(3)
O27_2 O 0.0618(5) 0.5618(5) 0.4382(5)
O29_2 O 0.0618(5) 0.4382(5) 0.5618(5)
Th11_3 Th 0.5000 0.128560(19) 0.5000
Th12_3 Th 0.5000 0.871440(19) 0.5000
O13_10 O 1.0000 0.7492(7) 0.5000
O17_10 O 1.0000 0.2508(7) 0.5000
O18_2 O 0.9382(5) 0.4382(5) 0.5618(5)
O19_2 O 0.9382(5) 0.5618(5) 0.4382(5)
O23_3 O 0.8982(3) 0.6746(3) 0.5000
O24_3 O 0.8982(3) 0.3254(3) 0.5000
O28_2 O 0.9382(5) 0.4382(5) 0.4382(5)
O30_2 O 0.9382(5) 0.5618(5) 0.5618(5)
Th4_5 Th 0.871440(19) 0.5000 0.5000
O1_6 O 0.8254(3) 0.6018(3) 0.5000
O2_10 O 0.7508(7) 0.5000 0.5000
C1_6 C 0.8431(3) 0.6569(3) 0.5000
C2_6 C 0.7950(3) 0.7050(3) 0.5000
C3_6 C 0.7350(5) 0.6897(5) 0.5000
H1_6 H 0.7238 0.6488 0.5000
C4_6 C 0.8103(5) 0.7650(5) 0.5000
H2_6 H 0.8512 0.7762 0.5000
O5_6 O 0.6018(3) 0.8254(3) 0.5000
C5_6 C 0.6569(3) 0.8431(3) 0.5000
C6_6 C 0.7050(3) 0.7950(3) 0.5000
C7_6 C 0.6897(5) 0.7350(5) 0.5000
H3_6 H 0.6488 0.7238 0.5000
O6_6 O 0.6746(3) 0.8982(3) 0.5000
C8_6 C 0.7650(5) 0.8103(5) 0.5000
H4_6 H 0.7762 0.8512 0.5000
O7_6 O 0.8254(3) 0.3982(3) 0.5000
C9_6 C 0.8431(3) 0.3431(3) 0.5000
C10_6 C 0.7950(3) 0.2950(3) 0.5000
C11_6 C 0.7350(5) 0.3103(5) 0.5000
H5_6 H 0.7238 0.3512 0.5000
C12_6 C 0.8103(5) 0.2350(5) 0.5000
H6_6 H 0.8512 0.2238 0.5000
O10_6 O 0.6018(3) 0.1746(3) 0.5000
C13_6 C 0.6569(3) 0.1569(3) 0.5000
C14_6 C 0.7050(3) 0.2050(3) 0.5000
C15_6 C 0.6897(5) 0.2650(5) 0.5000
H7_6 H 0.6488 0.2762 0.5000
O11_6 O 0.6746(3) 0.1018(3) 0.5000
C16_6 C 0.7650(5) 0.1897(5) 0.5000
H8_6 H 0.7762 0.1488 0.5000
O25_6 O 0.8254(3) 0.5000 0.6018(3)
O26_6 O 0.8254(3) 0.5000 0.3982(3)
O13_11 O 0.0000 0.5000 0.7492(7)
O17_11 O 0.0000 0.5000 0.2508(7)
O20_5 O 0.1018(3) 0.5000 0.3254(3)
O22_5 O 0.1018(3) 0.5000 0.6746(3)
O12_5 O 0.8982(3) 0.5000 0.6746(3)
O13_12 O 1.0000 0.5000 0.7492(7)
C17_17 C 0.8431(3) 0.5000 0.6569(3)
C18_17 C 0.7950(3) 0.5000 0.7050(3)
C19_17 C 0.8103(5) 0.5000 0.7650(5)
H9_17 H 0.8512 0.5000 0.7762
C20_17 C 0.7350(5) 0.5000 0.6897(5)
H10_17 H 0.7238 0.5000 0.6488
O15_17 O 0.6746(3) 0.5000 0.8982(3)
C21_17 C 0.6569(3) 0.5000 0.8431(3)
C22_17 C 0.7050(3) 0.5000 0.7950(3)
C23_17 C 0.7650(5) 0.5000 0.8103(5)
H11_17 H 0.7762 0.5000 0.8512
O16_17 O 0.6018(3) 0.5000 0.8254(3)
C24_17 C 0.6897(5) 0.5000 0.7350(5)
H12_17 H 0.6488 0.5000 0.7238
O17_12 O 1.0000 0.5000 0.2508(7)
O21_5 O 0.8982(3) 0.5000 0.3254(3)
Th7_9 Th 0.5000 0.5000 0.871440(19)
C17_18 C 0.8431(3) 0.5000 0.3431(3)
C18_18 C 0.7950(3) 0.5000 0.2950(3)
C19_18 C 0.8103(5) 0.5000 0.2350(5)
H9_18 H 0.8512 0.5000 0.2238
C20_18 C 0.7350(5) 0.5000 0.3103(5)
H10_18 H 0.7238 0.5000 0.3512
O15_18 O 0.6746(3) 0.5000 0.1018(3)
C21_18 C 0.6569(3) 0.5000 0.1569(3)
C22_18 C 0.7050(3) 0.5000 0.2050(3)
C23_18 C 0.7650(5) 0.5000 0.1897(5)
H11_18 H 0.7762 0.5000 0.1488
O16_18 O 0.6018(3) 0.5000 0.1746(3)
C24_18 C 0.6897(5) 0.5000 0.2650(5)
H12_18 H 0.6488 0.5000 0.2762
Th7_10 Th 0.5000 0.5000 0.128560(19)
C17_19 C 0.1569(3) 0.5000 0.6569(3)
C18_19 C 0.2050(3) 0.5000 0.7050(3)
C19_19 C 0.1897(5) 0.5000 0.7650(5)
H9_19 H 0.1488 0.5000 0.7762
C20_19 C 0.2650(5) 0.5000 0.6897(5)
H10_19 H 0.2762 0.5000 0.6488
O15_19 O 0.3254(3) 0.5000 0.8982(3)
C21_19 C 0.3431(3) 0.5000 0.8431(3)
C22_19 C 0.2950(3) 0.5000 0.7950(3)
C23_19 C 0.2350(5) 0.5000 0.8103(5)
H11_19 H 0.2238 0.5000 0.8512
O16_19 O 0.3982(3) 0.5000 0.8254(3)
C24_19 C 0.3103(5) 0.5000 0.7350(5)
H12_19 H 0.3512 0.5000 0.7238
C17_20 C 0.1569(3) 0.5000 0.3431(3)
C18_20 C 0.2050(3) 0.5000 0.2950(3)
C19_20 C 0.1897(5) 0.5000 0.2350(5)
H9_20 H 0.1488 0.5000 0.2238
C20_20 C 0.2650(5) 0.5000 0.3103(5)
H10_20 H 0.2762 0.5000 0.3512
O15_20 O 0.3254(3) 0.5000 0.1018(3)
C21_20 C 0.3431(3) 0.5000 0.1569(3)
C22_20 C 0.2950(3) 0.5000 0.2050(3)
C23_20 C 0.2350(5) 0.5000 0.1897(5)
H11_20 H 0.2238 0.5000 0.1488
O16_20 O 0.3982(3) 0.5000 0.1746(3)
C24_20 C 0.3103(5) 0.5000 0.2650(5)
H12_20 H 0.3512 0.5000 0.2762
O2_11 O 0.7492(7) 0.0000 0.5000
O3_3 O 0.5618(5) 0.0618(5) 0.5618(5)
O12_6 O 0.5000 0.1746(3) 0.3982(3)
O13_13 O 0.5000 0.2492(7) 0.5000
C17_21 C 0.5000 0.1569(3) 0.3431(3)
C18_21 C 0.5000 0.2050(3) 0.2950(3)
C19_21 C 0.5000 0.2650(5) 0.3103(5)
H9_21 H 0.5000 0.2762 0.3512
O14_9 O 0.5000 0.1018(3) 0.3254(3)
C20_21 C 0.5000 0.1897(5) 0.2350(5)
H10_21 H 0.5000 0.1488 0.2238
O15_21 O 0.5000 0.3982(3) 0.1746(3)
C21_21 C 0.5000 0.3431(3) 0.1569(3)
C22_21 C 0.5000 0.2950(3) 0.2050(3)
C23_21 C 0.5000 0.3103(5) 0.2650(5)
H11_21 H 0.5000 0.3512 0.2762
O16_21 O 0.5000 0.3254(3) 0.1018(3)
C24_21 C 0.5000 0.2350(5) 0.1897(5)
H12_21 H 0.5000 0.2238 0.1488
O19_3 O 0.4382(5) 0.0618(5) 0.4382(5)
O22_6 O 0.5000 0.1746(3) 0.6018(3)
O27_3 O 0.5618(5) 0.0618(5) 0.4382(5)
O30_3 O 0.4382(5) 0.0618(5) 0.5618(5)
O2_12 O 0.7492(7) 1.0000 0.5000
O8_3 O 0.5618(5) 0.9382(5) 0.4382(5)
O17_13 O 0.5000 0.7508(7) 0.5000
O18_3 O 0.4382(5) 0.9382(5) 0.5618(5)
O20_6 O 0.5000 0.8254(3) 0.6018(3)
O21_6 O 0.5000 0.8254(3) 0.3982(3)
O28_3 O 0.4382(5) 0.9382(5) 0.4382(5)
O29_3 O 0.5618(5) 0.9382(5) 0.5618(5)
O2_13 O 0.2508(7) 0.0000 0.5000
O2_14 O 0.2508(7) 1.0000 0.5000
C17_22 C 0.5000 0.8431(3) 0.3431(3)
C18_22 C 0.5000 0.7950(3) 0.2950(3)
C19_22 C 0.5000 0.7350(5) 0.3103(5)
H9_22 H 0.5000 0.7238 0.3512
O14_10 O 0.5000 0.8982(3) 0.3254(3)
C20_22 C 0.5000 0.8103(5) 0.2350(5)
H10_22 H 0.5000 0.8512 0.2238
O15_22 O 0.5000 0.6018(3) 0.1746(3)
C21_22 C 0.5000 0.6569(3) 0.1569(3)
C22_22 C 0.5000 0.7050(3) 0.2050(3)
C23_22 C 0.5000 0.6897(5) 0.2650(5)
H11_22 H 0.5000 0.6488 0.2762
O16_22 O 0.5000 0.6746(3) 0.1018(3)
C24_22 C 0.5000 0.7650(5) 0.1897(5)
H12_22 H 0.5000 0.7762 0.1488
C17_23 C 0.5000 0.1569(3) 0.6569(3)
C18_23 C 0.5000 0.2050(3) 0.7050(3)
C19_23 C 0.5000 0.2650(5) 0.6897(5)
H9_23 H 0.5000 0.2762 0.6488
O14_11 O 0.5000 0.1018(3) 0.6746(3)
C20_23 C 0.5000 0.1897(5) 0.7650(5)
H10_23 H 0.5000 0.1488 0.7762
O15_23 O 0.5000 0.3982(3) 0.8254(3)
C21_23 C 0.5000 0.3431(3) 0.8431(3)
C22_23 C 0.5000 0.2950(3) 0.7950(3)
C23_23 C 0.5000 0.3103(5) 0.7350(5)
H11_23 H 0.5000 0.3512 0.7238
O16_23 O 0.5000 0.3254(3) 0.8982(3)
C24_23 C 0.5000 0.2350(5) 0.8103(5)
H12_23 H 0.5000 0.2238 0.8512
C17_24 C 0.5000 0.8431(3) 0.6569(3)
C18_24 C 0.5000 0.7950(3) 0.7050(3)
C19_24 C 0.5000 0.7350(5) 0.6897(5)
H9_24 H 0.5000 0.7238 0.6488
O14_12 O 0.5000 0.8982(3) 0.6746(3)
C20_24 C 0.5000 0.8103(5) 0.7650(5)
H10_24 H 0.5000 0.8512 0.7762
O15_24 O 0.5000 0.6018(3) 0.8254(3)
C21_24 C 0.5000 0.6569(3) 0.8431(3)
C22_24 C 0.5000 0.7050(3) 0.7950(3)
C23_24 C 0.5000 0.6897(5) 0.7350(5)
H11_24 H 0.5000 0.6488 0.7238
O16_24 O 0.5000 0.6746(3) 0.8982(3)
C24_24 C 0.5000 0.7650(5) 0.8103(5)
H12_24 H 0.5000 0.7762 0.8512
O13_14 O 0.5000 0.0000 0.7492(7)
O17_14 O 0.5000 0.0000 0.2508(7)
O13_15 O 0.5000 1.0000 0.7492(7)
O17_15 O 0.5000 1.0000 0.2508(7)
O2_15 O 0.7492(7) 0.5000 0.0000
O3_4 O 0.5618(5) 0.5618(5) 0.0618(5)
O13_16 O 0.5000 0.7492(7) 0.0000
O17_16 O 0.5000 0.2508(7) 0.0000
O18_4 O 0.4382(5) 0.4382(5) 0.0618(5)
O29_4 O 0.5618(5) 0.4382(5) 0.0618(5)
O30_4 O 0.4382(5) 0.5618(5) 0.0618(5)
O2_16 O 0.7492(7) 0.5000 1.0000
O8_4 O 0.5618(5) 0.4382(5) 0.9382(5)
O13_17 O 0.5000 0.7492(7) 1.0000
O17_17 O 0.5000 0.2508(7) 1.0000
O19_4 O 0.4382(5) 0.5618(5) 0.9382(5)
O27_4 O 0.5618(5) 0.5618(5) 0.9382(5)
O28_4 O 0.4382(5) 0.4382(5) 0.9382(5)
O2_17 O 0.2508(7) 0.5000 0.0000
O2_18 O 0.2508(7) 0.5000 1.0000
O13_18 O 0.5000 0.5000 0.2492(7)
O17_18 O 0.5000 0.5000 0.7508(7)
loop_
_geom_bond_atom_site_label_1
_geom_bond_atom_site_label_2
_geom_bond_site_symmetry_1
_geom_bond_site_symmetry_2
O2 Th1 1_555 1_555
O3 Th1 1_555 1_555
O7 Th1 1_555 1_555
C9 O7 1_555 1_555
C10 C9 1_555 1_555
C11 C10 1_555 1_555
H5 C11 1_555 1_555
O9 C9 1_555 1_555
C12 C10 1_555 1_555
H6 C12 1_555 1_555
O10 C13 1_555 1_555
C13 C14 1_555 1_555
C14 C15 1_555 1_555
C15 C11 1_555 1_555
H7 C15 1_555 1_555
O11 C13 1_555 1_555
C16 C12 1_555 1_555
H8 C16 1_555 1_555
O13 Th2 1_555 1_555
Th2 O3 1_555 1_555
O22 Th2 1_555 1_555
O25 Th1 1_555 1_555
Th5 O3 1_555 1_555
Th10 O11 1_555 1_555
Th12 O10 1_555 1_555
O9 Th2 1_555 1_555
C14 C16 1_555 1_555
O2_2 Th1_2 1_555 1_555
O7_2 Th1_2 1_555 1_555
C9_2 O7_2 1_555 1_555
C10_2 C9_2 1_555 1_555
C11_2 C10_2 1_555 1_555
H5_2 C11_2 1_555 1_555
O9_2 C9_2 1_555 1_555
C12_2 C10_2 1_555 1_555
H6_2 C12_2 1_555 1_555
O10_2 C13_2 1_555 1_555
C13_2 C14_2 1_555 1_555
C14_2 C15_2 1_555 1_555
C15_2 C11_2 1_555 1_555
H7_2 C15_2 1_555 1_555
O11_2 C13_2 1_555 1_555
C16_2 C12_2 1_555 1_555
H8_2 C16_2 1_555 1_555
O12 C17 1_555 1_555
O13_2 Th2_2 1_555 1_555
C17 C18 1_555 1_555
C18 C19 1_555 1_555
C19 H9 1_555 1_555
O14 C17 1_555 1_555
C20 C18 1_555 1_555
H10 C20 1_555 1_555
O15 C21 1_555 1_555
C21 C22 1_555 1_555
C22 C23 1_555 1_555
C23 C19 1_555 1_555
H11 C23 1_555 1_555
O16 C21 1_555 1_555
C24 C20 1_555 1_555
H12 C24 1_555 1_555
O26 Th1_2 1_555 1_555
O27 Th1_2 1_555 1_555
Th7 O16 1_555 1_555
Th8 O15 1_555 1_555
Th10_2 O11_2 1_555 1_555
Th12_2 O10_2 1_555 1_555
O9_2 Th2_2 1_555 1_555
C14_2 C16_2 1_555 1_555
O12 Th2_2 1_555 1_555
Th2_2 O27 1_555 1_555
O14 Th6 1_555 1_555
C22 C24 1_555 1_555
O27 Th6 1_555 1_555
O1 C1 1_555 1_555
O2_3 Th1_3 1_555 1_555
C1 C2 1_555 1_555
C2 C3 1_555 1_555
C3 H1 1_555 1_555
Th1_3 O1 1_555 1_555
O4 C1 1_555 1_555
C4 C2 1_555 1_555
H2 C4 1_555 1_555
O5 C5 1_555 1_555
C5 C6 1_555 1_555
C6 C7 1_555 1_555
C7 C3 1_555 1_555
H3 C7 1_555 1_555
O6 C5 1_555 1_555
C8 C4 1_555 1_555
H4 C8 1_555 1_555
O17 Th3 1_555 1_555
Th3 O4 1_555 1_555
O20 Th3 1_555 1_555
O25_2 Th1_3 1_555 1_555
O29 Th1_3 1_555 1_555
Th10 O6 1_555 1_555
Th11 O5 1_555 1_555
C6 C8 1_555 1_555
Th3 O29 1_555 1_555
O29 Th5_2 1_555 1_555
O1_2 C1_2 1_555 1_555
O2_4 Th1_4 1_555 1_555
C1_2 C2_2 1_555 1_555
C2_2 C3_2 1_555 1_555
C3_2 H1_2 1_555 1_555
Th1_4 O1_2 1_555 1_555
O4_2 C1_2 1_555 1_555
C4_2 C2_2 1_555 1_555
H2_2 C4_2 1_555 1_555
O5_2 C5_2 1_555 1_555
C5_2 C6_2 1_555 1_555
C6_2 C7_2 1_555 1_555
C7_2 C3_2 1_555 1_555
H3_2 C7_2 1_555 1_555
O6_2 C5_2 1_555 1_555
C8_2 C4_2 1_555 1_555
H4_2 C8_2 1_555 1_555
O8 Th1_4 1_555 1_555
O17_2 Th3_2 1_555 1_555
Th3_2 O4_2 1_555 1_555
O21 Th3_2 1_555 1_555
O26_2 Th1_4 1_555 1_555
Th6_2 O8 1_555 1_555
Th10_2 O6_2 1_555 1_555
Th11_2 O5_2 1_555 1_555
C6_2 C8_2 1_555 1_555
O8 Th3_2 1_555 1_555
O13_3 Th2_3 1_555 1_555
O22_2 Th2_3 1_555 1_555
O23 Th2_3 1_555 1_555
O30 Th2_3 1_555 1_555
O30 Th4 1_555 1_555
O30 Th5_3 1_555 1_555
O12_2 C17_2 1_555 1_555
O13_4 Th2_4 1_555 1_555
C17_2 C18_2 1_555 1_555
C18_2 C19_2 1_555 1_555
C19_2 H9_2 1_555 1_555
O14_2 C17_2 1_555 1_555
C20_2 C18_2 1_555 1_555
H10_2 C20_2 1_555 1_555
O15_2 C21_2 1_555 1_555
C21_2 C22_2 1_555 1_555
C22_2 C23_2 1_555 1_555
C23_2 C19_2 1_555 1_555
H11_2 C23_2 1_555 1_555
O16_2 C21_2 1_555 1_555
C24_2 C20_2 1_555 1_555
H12_2 C24_2 1_555 1_555
O19 Th2_4 1_555 1_555
O23_2 Th2_4 1_555 1_555
Th7_2 O16_2 1_555 1_555
Th8_2 O15_2 1_555 1_555
O12_2 Th2_4 1_555 1_555
O14_2 Th6_3 1_555 1_555
C22_2 C24_2 1_555 1_555
O19 Th4_2 1_555 1_555
O19 Th6_3 1_555 1_555
O17_3 Th3_3 1_555 1_555
O18 Th3_3 1_555 1_555
O20_2 Th3_3 1_555 1_555
O24 Th3_3 1_555 1_555
Th4_3 O18 1_555 1_555
O18 Th5_4 1_555 1_555
O17_4 Th3_4 1_555 1_555
O21_2 Th3_4 1_555 1_555
O24_2 Th3_4 1_555 1_555
O28 Th3_4 1_555 1_555
O28 Th4_4 1_555 1_555
O28 Th6_4 1_555 1_555
O21 C17_3 1_555 1_555
C17_3 C18_3 1_555 1_555
C18_3 C19_3 1_555 1_555
C19_3 H9_3 1_555 1_555
O14_3 C17_3 1_555 1_555
C20_3 C18_3 1_555 1_555
H10_3 C20_3 1_555 1_555
O15_3 C21_3 1_555 1_555
C21_3 C22_3 1_555 1_555
C22_3 C23_3 1_555 1_555
C23_3 C19_3 1_555 1_555
H11_3 C23_3 1_555 1_555
O16_3 C21_3 1_555 1_555
C24_3 C20_3 1_555 1_555
H12_3 C24_3 1_555 1_555
Th7_3 O16_3 1_555 1_555
Th8 O15_3 1_555 1_555
O14_3 Th6_2 1_555 1_555
C22_3 C24_3 1_555 1_555
O1_3 C1_3 1_555 1_555
O2_5 Th4 1_555 1_555
C1_3 C2_3 1_555 1_555
C2_3 C3_3 1_555 1_555
C3_3 H1_3 1_555 1_555
Th4 O1_3 1_555 1_555
O23 C1_3 1_555 1_555
C4_3 C2_3 1_555 1_555
H2_3 C4_3 1_555 1_555
O5_3 C5_3 1_555 1_555
C5_3 C6_3 1_555 1_555
C6_3 C7_3 1_555 1_555
C7_3 C3_3 1_555 1_555
H3_3 C7_3 1_555 1_555
O6_3 C5_3 1_555 1_555
C8_3 C4_3 1_555 1_555
H4_3 C8_3 1_555 1_555
O25_3 Th4 1_555 1_555
Th9 O6_3 1_555 1_555
Th12 O5_3 1_555 1_555
C6_3 C8_3 1_555 1_555
O1_4 C1_4 1_555 1_555
O2_6 Th4_2 1_555 1_555
C1_4 C2_4 1_555 1_555
C2_4 C3_4 1_555 1_555
C3_4 H1_4 1_555 1_555
Th4_2 O1_4 1_555 1_555
O23_2 C1_4 1_555 1_555
C4_4 C2_4 1_555 1_555
H2_4 C4_4 1_555 1_555
O5_4 C5_4 1_555 1_555
C5_4 C6_4 1_555 1_555
C6_4 C7_4 1_555 1_555
C7_4 C3_4 1_555 1_555
H3_4 C7_4 1_555 1_555
O6_4 C5_4 1_555 1_555
C8_4 C4_4 1_555 1_555
H4_4 C8_4 1_555 1_555
O26_3 Th4_2 1_555 1_555
Th9_2 O6_4 1_555 1_555
Th12_2 O5_4 1_555 1_555
C6_4 C8_4 1_555 1_555
O2_7 Th4_3 1_555 1_555
O7_3 Th4_3 1_555 1_555
C9_3 O7_3 1_555 1_555
C10_3 C9_3 1_555 1_555
C11_3 C10_3 1_555 1_555
H5_3 C11_3 1_555 1_555
O24 C9_3 1_555 1_555
C12_3 C10_3 1_555 1_555
H6_3 C12_3 1_555 1_555
O10_3 C13_3 1_555 1_555
C13_3 C14_3 1_555 1_555
C14_3 C15_3 1_555 1_555
C15_3 C11_3 1_555 1_555
H7_3 C15_3 1_555 1_555
O11_3 C13_3 1_555 1_555
C16_3 C12_3 1_555 1_555
H8_3 C16_3 1_555 1_555
O25_4 Th4_3 1_555 1_555
Th9 O11_3 1_555 1_555
Th11 O10_3 1_555 1_555
C14_3 C16_3 1_555 1_555
O2_8 Th4_4 1_555 1_555
O7_4 Th4_4 1_555 1_555
C9_4 O7_4 1_555 1_555
C10_4 C9_4 1_555 1_555
C11_4 C10_4 1_555 1_555
H5_4 C11_4 1_555 1_555
O24_2 C9_4 1_555 1_555
C12_4 C10_4 1_555 1_555
H6_4 C12_4 1_555 1_555
O10_4 C13_4 1_555 1_555
C13_4 C14_4 1_555 1_555
C14_4 C15_4 1_555 1_555
C15_4 C11_4 1_555 1_555
H7_4 C15_4 1_555 1_555
O11_4 C13_4 1_555 1_555
C16_4 C12_4 1_555 1_555
H8_4 C16_4 1_555 1_555
O21_2 C17_4 1_555 1_555
C17_4 C18_4 1_555 1_555
C18_4 C19_4 1_555 1_555
C19_4 H9_4 1_555 1_555
O14_4 C17_4 1_555 1_555
C20_4 C18_4 1_555 1_555
H10_4 C20_4 1_555 1_555
O15_4 C21_4 1_555 1_555
C21_4 C22_4 1_555 1_555
C22_4 C23_4 1_555 1_555
C23_4 C19_4 1_555 1_555
H11_4 C23_4 1_555 1_555
O16_4 C21_4 1_555 1_555
C24_4 C20_4 1_555 1_555
H12_4 C24_4 1_555 1_555
O26_4 Th4_4 1_555 1_555
Th7_4 O16_4 1_555 1_555
Th8_2 O15_4 1_555 1_555
Th9_2 O11_4 1_555 1_555
Th11_2 O10_4 1_555 1_555
C14_4 C16_4 1_555 1_555
O14_4 Th6_4 1_555 1_555
C22_4 C24_4 1_555 1_555
O22 C17_5 1_555 1_555
C17_5 C18_5 1_555 1_555
C18_5 C19_5 1_555 1_555
C19_5 H9_5 1_555 1_555
O14_5 C17_5 1_555 1_555
C20_5 C18_5 1_555 1_555
H10_5 C20_5 1_555 1_555
O15_5 C21_5 1_555 1_555
C21_5 C22_5 1_555 1_555
C22_5 C23_5 1_555 1_555
C23_5 C19_5 1_555 1_555
H11_5 C23_5 1_555 1_555
O16_5 C21_5 1_555 1_555
C24_5 C20_5 1_555 1_555
H12_5 C24_5 1_555 1_555
Th7 O16_5 1_555 1_555
Th8_3 O15_5 1_555 1_555
O14_5 Th5 1_555 1_555
C22_5 C24_5 1_555 1_555
O22_2 C17_6 1_555 1_555
C17_6 C18_6 1_555 1_555
C18_6 C19_6 1_555 1_555
C19_6 H9_6 1_555 1_555
O14_6 C17_6 1_555 1_555
C20_6 C18_6 1_555 1_555
H10_6 C20_6 1_555 1_555
O15_6 C21_6 1_555 1_555
C21_6 C22_6 1_555 1_555
C22_6 C23_6 1_555 1_555
C23_6 C19_6 1_555 1_555
H11_6 C23_6 1_555 1_555
O16_6 C21_6 1_555 1_555
C24_6 C20_6 1_555 1_555
H12_6 C24_6 1_555 1_555
Th7_2 O16_6 1_555 1_555
Th8_4 O15_6 1_555 1_555
O14_6 Th5_3 1_555 1_555
C22_6 C24_6 1_555 1_555
O20 C17_7 1_555 1_555
C17_7 C18_7 1_555 1_555
C18_7 C19_7 1_555 1_555
C19_7 H9_7 1_555 1_555
O14_7 C17_7 1_555 1_555
C20_7 C18_7 1_555 1_555
H10_7 C20_7 1_555 1_555
O15_7 C21_7 1_555 1_555
C21_7 C22_7 1_555 1_555
C22_7 C23_7 1_555 1_555
C23_7 C19_7 1_555 1_555
H11_7 C23_7 1_555 1_555
O16_7 C21_7 1_555 1_555
C24_7 C20_7 1_555 1_555
H12_7 C24_7 1_555 1_555
Th7_3 O16_7 1_555 1_555
Th8_3 O15_7 1_555 1_555
O14_7 Th5_2 1_555 1_555
C22_7 C24_7 1_555 1_555
O20_2 C17_8 1_555 1_555
C17_8 C18_8 1_555 1_555
C18_8 C19_8 1_555 1_555
C19_8 H9_8 1_555 1_555
O14_8 C17_8 1_555 1_555
C20_8 C18_8 1_555 1_555
H10_8 C20_8 1_555 1_555
O15_8 C21_8 1_555 1_555
C21_8 C22_8 1_555 1_555
C22_8 C23_8 1_555 1_555
C23_8 C19_8 1_555 1_555
H11_8 C23_8 1_555 1_555
O16_8 C21_8 1_555 1_555
C24_8 C20_8 1_555 1_555
H12_8 C24_8 1_555 1_555
Th7_4 O16_8 1_555 1_555
Th8_4 O15_8 1_555 1_555
O14_8 Th5_4 1_555 1_555
C22_8 C24_8 1_555 1_555
O13_5 Th5 1_555 1_555
O22_3 Th5 1_555 1_555
O17_5 Th6 1_555 1_555
O20_3 Th6 1_555 1_555
O13_6 Th5_2 1_555 1_555
O22_4 Th5_2 1_555 1_555
O17_6 Th6_2 1_555 1_555
O20_4 Th6_2 1_555 1_555
O12_3 C17_9 1_555 1_555
O13_7 Th5_3 1_555 1_555
C17_9 C18_9 1_555 1_555
C18_9 C19_9 1_555 1_555
C19_9 H9_9 1_555 1_555
O25_3 C17_9 1_555 1_555
C20_9 C18_9 1_555 1_555
H10_9 C20_9 1_555 1_555
O15_9 C21_9 1_555 1_555
C21_9 C22_9 1_555 1_555
C22_9 C23_9 1_555 1_555
C23_9 C19_9 1_555 1_555
H11_9 C23_9 1_555 1_555
O16_9 C21_9 1_555 1_555
C24_9 C20_9 1_555 1_555
H12_9 C24_9 1_555 1_555
Th7_5 O16_9 1_555 1_555
Th8_5 O15_9 1_555 1_555
O12_3 Th5_3 1_555 1_555
C22_9 C24_9 1_555 1_555
O17_7 Th6_3 1_555 1_555
O21_3 Th6_3 1_555 1_555
O12_4 C17_10 1_555 1_555
O13_8 Th5_4 1_555 1_555
C17_10 C18_10 1_555 1_555
C18_10 C19_10 1_555 1_555
C19_10 H9_10 1_555 1_555
O25_4 C17_10 1_555 1_555
C20_10 C18_10 1_555 1_555
H10_10 C20_10 1_555 1_555
O15_10 C21_10 1_555 1_555
C21_10 C22_10 1_555 1_555
C22_10 C23_10 1_555 1_555
C23_10 C19_10 1_555 1_555
H11_10 C23_10 1_555 1_555
O16_10 C21_10 1_555 1_555
C24_10 C20_10 1_555 1_555
H12_10 C24_10 1_555 1_555
Th7_6 O16_10 1_555 1_555
Th8_6 O15_10 1_555 1_555
O12_4 Th5_4 1_555 1_555
C22_10 C24_10 1_555 1_555
O17_8 Th6_4 1_555 1_555
O21_4 Th6_4 1_555 1_555
O21_3 C17_11 1_555 1_555
C17_11 C18_11 1_555 1_555
C18_11 C19_11 1_555 1_555
C19_11 H9_11 1_555 1_555
O26_3 C17_11 1_555 1_555
C20_11 C18_11 1_555 1_555
H10_11 C20_11 1_555 1_555
O15_11 C21_11 1_555 1_555
C21_11 C22_11 1_555 1_555
C22_11 C23_11 1_555 1_555
C23_11 C19_11 1_555 1_555
H11_11 C23_11 1_555 1_555
O16_11 C21_11 1_555 1_555
C24_11 C20_11 1_555 1_555
H12_11 C24_11 1_555 1_555
Th7_7 O16_11 1_555 1_555
Th8_5 O15_11 1_555 1_555
C22_11 C24_11 1_555 1_555
O21_4 C17_12 1_555 1_555
C17_12 C18_12 1_555 1_555
C18_12 C19_12 1_555 1_555
C19_12 H9_12 1_555 1_555
O26_4 C17_12 1_555 1_555
C20_12 C18_12 1_555 1_555
H10_12 C20_12 1_555 1_555
O15_12 C21_12 1_555 1_555
C21_12 C22_12 1_555 1_555
C22_12 C23_12 1_555 1_555
C23_12 C19_12 1_555 1_555
H11_12 C23_12 1_555 1_555
O16_12 C21_12 1_555 1_555
C24_12 C20_12 1_555 1_555
H12_12 C24_12 1_555 1_555
Th7_8 O16_12 1_555 1_555
Th8_6 O15_12 1_555 1_555
C22_12 C24_12 1_555 1_555
O22_3 C17_13 1_555 1_555
C17_13 C18_13 1_555 1_555
C18_13 C19_13 1_555 1_555
C19_13 H9_13 1_555 1_555
O25 C17_13 1_555 1_555
C20_13 C18_13 1_555 1_555
H10_13 C20_13 1_555 1_555
O15_13 C21_13 1_555 1_555
C21_13 C22_13 1_555 1_555
C22_13 C23_13 1_555 1_555
C23_13 C19_13 1_555 1_555
H11_13 C23_13 1_555 1_555
O16_13 C21_13 1_555 1_555
C24_13 C20_13 1_555 1_555
H12_13 C24_13 1_555 1_555
Th7_5 O16_13 1_555 1_555
Th8_7 O15_13 1_555 1_555
C22_13 C24_13 1_555 1_555
O22_4 C17_14 1_555 1_555
C17_14 C18_14 1_555 1_555
C18_14 C19_14 1_555 1_555
C19_14 H9_14 1_555 1_555
O25_2 C17_14 1_555 1_555
C20_14 C18_14 1_555 1_555
H10_14 C20_14 1_555 1_555
O15_14 C21_14 1_555 1_555
C21_14 C22_14 1_555 1_555
C22_14 C23_14 1_555 1_555
C23_14 C19_14 1_555 1_555
H11_14 C23_14 1_555 1_555
O16_14 C21_14 1_555 1_555
C24_14 C20_14 1_555 1_555
H12_14 C24_14 1_555 1_555
Th7_6 O16_14 1_555 1_555
Th8_8 O15_14 1_555 1_555
C22_14 C24_14 1_555 1_555
O20_3 C17_15 1_555 1_555
C17_15 C18_15 1_555 1_555
C18_15 C19_15 1_555 1_555
C19_15 H9_15 1_555 1_555
O26 C17_15 1_555 1_555
C20_15 C18_15 1_555 1_555
H10_15 C20_15 1_555 1_555
O15_15 C21_15 1_555 1_555
C21_15 C22_15 1_555 1_555
C22_15 C23_15 1_555 1_555
C23_15 C19_15 1_555 1_555
H11_15 C23_15 1_555 1_555
O16_15 C21_15 1_555 1_555
C24_15 C20_15 1_555 1_555
H12_15 C24_15 1_555 1_555
Th7_7 O16_15 1_555 1_555
Th8_7 O15_15 1_555 1_555
C22_15 C24_15 1_555 1_555
O20_4 C17_16 1_555 1_555
C17_16 C18_16 1_555 1_555
C18_16 C19_16 1_555 1_555
C19_16 H9_16 1_555 1_555
O26_2 C17_16 1_555 1_555
C20_16 C18_16 1_555 1_555
H10_16 C20_16 1_555 1_555
O15_16 C21_16 1_555 1_555
C21_16 C22_16 1_555 1_555
C22_16 C23_16 1_555 1_555
C23_16 C19_16 1_555 1_555
H11_16 C23_16 1_555 1_555
O16_16 C21_16 1_555 1_555
C24_16 C20_16 1_555 1_555
H12_16 C24_16 1_555 1_555
Th7_8 O16_16 1_555 1_555
Th8_8 O15_16 1_555 1_555
C22_16 C24_16 1_555 1_555
O1_5 C1_5 1_555 1_555
O2_9 Th1_5 1_555 1_555
C1_5 C2_5 1_555 1_555
C2_5 C3_5 1_555 1_555
C3_5 H1_5 1_555 1_555
O3_2 Th1_5 1_555 1_555
Th1_5 O1_5 1_555 1_555
O4_3 C1_5 1_555 1_555
C4_5 C2_5 1_555 1_555
H2_5 C4_5 1_555 1_555
O5_5 C5_5 1_555 1_555
C5_5 C6_5 1_555 1_555
C6_5 C7_5 1_555 1_555
C7_5 C3_5 1_555 1_555
H3_5 C7_5 1_555 1_555
O6_5 C5_5 1_555 1_555
C8_5 C4_5 1_555 1_555
H4_5 C8_5 1_555 1_555
O7_5 Th1_5 1_555 1_555
C9_5 O7_5 1_555 1_555
C10_5 C9_5 1_555 1_555
C11_5 C10_5 1_555 1_555
H5_5 C11_5 1_555 1_555
O8_2 Th1_5 1_555 1_555
O9_3 C9_5 1_555 1_555
C12_5 C10_5 1_555 1_555
H6_5 C12_5 1_555 1_555
O10_5 C13_5 1_555 1_555
C13_5 C14_5 1_555 1_555
C14_5 C15_5 1_555 1_555
C15_5 C11_5 1_555 1_555
H7_5 C15_5 1_555 1_555
O11_5 C13_5 1_555 1_555
C16_5 C12_5 1_555 1_555
H8_5 C16_5 1_555 1_555
O13_9 Th7_3 1_555 1_555
Th7_3 O3_2 1_555 1_555
O17_9 Th7 1_555 1_555
Th7 O4_3 1_555 1_555
O25_5 Th1_5 1_555 1_555
O26_5 Th1_5 1_555 1_555
O27_2 Th1_5 1_555 1_555
O29_2 Th1_5 1_555 1_555
Th8 O3_2 1_555 1_555
Th8_3 O8_2 1_555 1_555
Th8_7 O6_5 1_555 1_555
Th8_8 O11_5 1_555 1_555
Th11_3 O5_5 1_555 1_555
Th12_3 O10_5 1_555 1_555
C6_5 C8_5 1_555 1_555
O8_2 Th7 1_555 1_555
O9_3 Th7_3 1_555 1_555
C14_5 C16_5 1_555 1_555
Th7_3 O27_2 1_555 1_555
Th7 O29_2 1_555 1_555
O27_2 Th8_3 1_555 1_555
O29_2 Th8 1_555 1_555
O13_10 Th7_4 1_555 1_555
O17_10 Th7_2 1_555 1_555
O18_2 Th7_2 1_555 1_555
O19_2 Th7_4 1_555 1_555
O23_3 Th7_4 1_555 1_555
O24_3 Th7_2 1_555 1_555
O28_2 Th7_2 1_555 1_555
O30_2 Th7_4 1_555 1_555
Th4_5 O18_2 1_555 1_555
O18_2 Th8_2 1_555 1_555
O19_2 Th4_5 1_555 1_555
O19_2 Th8_4 1_555 1_555
O28_2 Th4_5 1_555 1_555
O28_2 Th8_4 1_555 1_555
O30_2 Th4_5 1_555 1_555
O30_2 Th8_2 1_555 1_555
O1_6 C1_6 1_555 1_555
O2_10 Th4_5 1_555 1_555
C1_6 C2_6 1_555 1_555
C2_6 C3_6 1_555 1_555
C3_6 H1_6 1_555 1_555
Th4_5 O1_6 1_555 1_555
O23_3 C1_6 1_555 1_555
C4_6 C2_6 1_555 1_555
H2_6 C4_6 1_555 1_555
O5_6 C5_6 1_555 1_555
C5_6 C6_6 1_555 1_555
C6_6 C7_6 1_555 1_555
C7_6 C3_6 1_555 1_555
H3_6 C7_6 1_555 1_555
O6_6 C5_6 1_555 1_555
C8_6 C4_6 1_555 1_555
H4_6 C8_6 1_555 1_555
O7_6 Th4_5 1_555 1_555
C9_6 O7_6 1_555 1_555
C10_6 C9_6 1_555 1_555
C11_6 C10_6 1_555 1_555
H5_6 C11_6 1_555 1_555
O24_3 C9_6 1_555 1_555
C12_6 C10_6 1_555 1_555
H6_6 C12_6 1_555 1_555
O10_6 C13_6 1_555 1_555
C13_6 C14_6 1_555 1_555
C14_6 C15_6 1_555 1_555
C15_6 C11_6 1_555 1_555
H7_6 C15_6 1_555 1_555
O11_6 C13_6 1_555 1_555
C16_6 C12_6 1_555 1_555
H8_6 C16_6 1_555 1_555
O25_6 Th4_5 1_555 1_555
O26_6 Th4_5 1_555 1_555
Th8_6 O6_6 1_555 1_555
Th8_5 O11_6 1_555 1_555
Th12_3 O5_6 1_555 1_555
Th11_3 O10_6 1_555 1_555
C6_6 C8_6 1_555 1_555
C14_6 C16_6 1_555 1_555
O13_11 Th8 1_555 1_555
O17_11 Th8_3 1_555 1_555
O20_5 Th8_3 1_555 1_555
O22_5 Th8 1_555 1_555
O12_5 C17_17 1_555 1_555
O13_12 Th8_2 1_555 1_555
C17_17 C18_17 1_555 1_555
C18_17 C19_17 1_555 1_555
C19_17 H9_17 1_555 1_555
O25_6 C17_17 1_555 1_555
C20_17 C18_17 1_555 1_555
H10_17 C20_17 1_555 1_555
O15_17 C21_17 1_555 1_555
C21_17 C22_17 1_555 1_555
C22_17 C23_17 1_555 1_555
C23_17 C19_17 1_555 1_555
H11_17 C23_17 1_555 1_555
O16_17 C21_17 1_555 1_555
C24_17 C20_17 1_555 1_555
H12_17 C24_17 1_555 1_555
O17_12 Th8_4 1_555 1_555
O21_5 Th8_4 1_555 1_555
Th7_9 O16_17 1_555 1_555
Th9_2 O15_17 1_555 1_555
O12_5 Th8_2 1_555 1_555
C22_17 C24_17 1_555 1_555
O21_5 C17_18 1_555 1_555
C17_18 C18_18 1_555 1_555
C18_18 C19_18 1_555 1_555
C19_18 H9_18 1_555 1_555
O26_6 C17_18 1_555 1_555
C20_18 C18_18 1_555 1_555
H10_18 C20_18 1_555 1_555
O15_18 C21_18 1_555 1_555
C21_18 C22_18 1_555 1_555
C22_18 C23_18 1_555 1_555
C23_18 C19_18 1_555 1_555
H11_18 C23_18 1_555 1_555
O16_18 C21_18 1_555 1_555
C24_18 C20_18 1_555 1_555
H12_18 C24_18 1_555 1_555
Th7_10 O16_18 1_555 1_555
Th9 O15_18 1_555 1_555
C22_18 C24_18 1_555 1_555
O22_5 C17_19 1_555 1_555
C17_19 C18_19 1_555 1_555
C18_19 C19_19 1_555 1_555
C19_19 H9_19 1_555 1_555
O25_5 C17_19 1_555 1_555
C20_19 C18_19 1_555 1_555
H10_19 C20_19 1_555 1_555
O15_19 C21_19 1_555 1_555
C21_19 C22_19 1_555 1_555
C22_19 C23_19 1_555 1_555
C23_19 C19_19 1_555 1_555
H11_19 C23_19 1_555 1_555
O16_19 C21_19 1_555 1_555
C24_19 C20_19 1_555 1_555
H12_19 C24_19 1_555 1_555
Th7_9 O16_19 1_555 1_555
Th10_2 O15_19 1_555 1_555
C22_19 C24_19 1_555 1_555
O20_5 C17_20 1_555 1_555
C17_20 C18_20 1_555 1_555
C18_20 C19_20 1_555 1_555
C19_20 H9_20 1_555 1_555
O26_5 C17_20 1_555 1_555
C20_20 C18_20 1_555 1_555
H10_20 C20_20 1_555 1_555
O15_20 C21_20 1_555 1_555
C21_20 C22_20 1_555 1_555
C22_20 C23_20 1_555 1_555
C23_20 C19_20 1_555 1_555
H11_20 C23_20 1_555 1_555
O16_20 C21_20 1_555 1_555
C24_20 C20_20 1_555 1_555
H12_20 C24_20 1_555 1_555
Th7_10 O16_20 1_555 1_555
Th10 O15_20 1_555 1_555
C22_20 C24_20 1_555 1_555
O2_11 Th8_5 1_555 1_555
O3_3 Th8_5 1_555 1_555
O12_6 C17_21 1_555 1_555
O13_13 Th11_3 1_555 1_555
C17_21 C18_21 1_555 1_555
C18_21 C19_21 1_555 1_555
C19_21 H9_21 1_555 1_555
Th11_3 O3_3 1_555 1_555
O14_9 C17_21 1_555 1_555
C20_21 C18_21 1_555 1_555
H10_21 C20_21 1_555 1_555
O15_21 C21_21 1_555 1_555
C21_21 C22_21 1_555 1_555
C22_21 C23_21 1_555 1_555
C23_21 C19_21 1_555 1_555
H11_21 C23_21 1_555 1_555
O16_21 C21_21 1_555 1_555
C24_21 C20_21 1_555 1_555
H12_21 C24_21 1_555 1_555
O19_3 Th11_3 1_555 1_555
O22_6 Th11_3 1_555 1_555
O27_3 Th8_5 1_555 1_555
O30_3 Th11_3 1_555 1_555
Th7_7 O3_3 1_555 1_555
Th12 O16_21 1_555 1_555
Th7_10 O15_21 1_555 1_555
O12_6 Th11_3 1_555 1_555
Th11_3 O27_3 1_555 1_555
O14_9 Th7_5 1_555 1_555
C22_21 C24_21 1_555 1_555
O19_3 Th8_7 1_555 1_555
O19_3 Th7_5 1_555 1_555
O27_3 Th7_5 1_555 1_555
O30_3 Th8_7 1_555 1_555
O30_3 Th7_7 1_555 1_555
O2_12 Th8_6 1_555 1_555
O8_3 Th8_6 1_555 1_555
O17_13 Th12_3 1_555 1_555
O18_3 Th12_3 1_555 1_555
O20_6 Th12_3 1_555 1_555
O21_6 Th12_3 1_555 1_555
O28_3 Th12_3 1_555 1_555
O29_3 Th8_6 1_555 1_555
Th8_8 O18_3 1_555 1_555
Th7_6 O8_3 1_555 1_555
O8_3 Th12_3 1_555 1_555
Th12_3 O29_3 1_555 1_555
O18_3 Th7_8 1_555 1_555
O28_3 Th8_8 1_555 1_555
O28_3 Th7_6 1_555 1_555
O29_3 Th7_8 1_555 1_555
O2_13 Th8_7 1_555 1_555
O2_14 Th8_8 1_555 1_555
O21_6 C17_22 1_555 1_555
C17_22 C18_22 1_555 1_555
C18_22 C19_22 1_555 1_555
C19_22 H9_22 1_555 1_555
O14_10 C17_22 1_555 1_555
C20_22 C18_22 1_555 1_555
H10_22 C20_22 1_555 1_555
O15_22 C21_22 1_555 1_555
C21_22 C22_22 1_555 1_555
C22_22 C23_22 1_555 1_555
C23_22 C19_22 1_555 1_555
H11_22 C23_22 1_555 1_555
O16_22 C21_22 1_555 1_555
C24_22 C20_22 1_555 1_555
H12_22 C24_22 1_555 1_555
Th11 O16_22 1_555 1_555
Th7_10 O15_22 1_555 1_555
O14_10 Th7_6 1_555 1_555
C22_22 C24_22 1_555 1_555
O22_6 C17_23 1_555 1_555
C17_23 C18_23 1_555 1_555
C18_23 C19_23 1_555 1_555
C19_23 H9_23 1_555 1_555
O14_11 C17_23 1_555 1_555
C20_23 C18_23 1_555 1_555
H10_23 C20_23 1_555 1_555
O15_23 C21_23 1_555 1_555
C21_23 C22_23 1_555 1_555
C22_23 C23_23 1_555 1_555
C23_23 C19_23 1_555 1_555
H11_23 C23_23 1_555 1_555
O16_23 C21_23 1_555 1_555
C24_23 C20_23 1_555 1_555
H12_23 C24_23 1_555 1_555
Th12_2 O16_23 1_555 1_555
Th7_9 O15_23 1_555 1_555
O14_11 Th7_7 1_555 1_555
C22_23 C24_23 1_555 1_555
O20_6 C17_24 1_555 1_555
C17_24 C18_24 1_555 1_555
C18_24 C19_24 1_555 1_555
C19_24 H9_24 1_555 1_555
O14_12 C17_24 1_555 1_555
C20_24 C18_24 1_555 1_555
H10_24 C20_24 1_555 1_555
O15_24 C21_24 1_555 1_555
C21_24 C22_24 1_555 1_555
C22_24 C23_24 1_555 1_555
C23_24 C19_24 1_555 1_555
H11_24 C23_24 1_555 1_555
O16_24 C21_24 1_555 1_555
C24_24 C20_24 1_555 1_555
H12_24 C24_24 1_555 1_555
Th11_2 O16_24 1_555 1_555
Th7_9 O15_24 1_555 1_555
O14_12 Th7_8 1_555 1_555
C22_24 C24_24 1_555 1_555
O13_14 Th7_7 1_555 1_555
O17_14 Th7_5 1_555 1_555
O13_15 Th7_8 1_555 1_555
O17_15 Th7_6 1_555 1_555
O2_15 Th9 1_555 1_555
O3_4 Th9 1_555 1_555
O13_16 Th11 1_555 1_555
Th11 O3_4 1_555 1_555
O17_16 Th12 1_555 1_555
O18_4 Th12 1_555 1_555
O29_4 Th9 1_555 1_555
O30_4 Th11 1_555 1_555
Th10 O18_4 1_555 1_555
Th7_10 O3_4 1_555 1_555
Th12 O29_4 1_555 1_555
O18_4 Th7_10 1_555 1_555
O29_4 Th7_10 1_555 1_555
O30_4 Th10 1_555 1_555
O30_4 Th7_10 1_555 1_555
O2_16 Th9_2 1_555 1_555
O8_4 Th9_2 1_555 1_555
O13_17 Th11_2 1_555 1_555
O17_17 Th12_2 1_555 1_555
O19_4 Th11_2 1_555 1_555
O27_4 Th9_2 1_555 1_555
O28_4 Th12_2 1_555 1_555
Th7_9 O8_4 1_555 1_555
O8_4 Th12_2 1_555 1_555
Th11_2 O27_4 1_555 1_555
O19_4 Th10_2 1_555 1_555
O19_4 Th7_9 1_555 1_555
O27_4 Th7_9 1_555 1_555
O28_4 Th10_2 1_555 1_555
O28_4 Th7_9 1_555 1_555
O2_17 Th10 1_555 1_555
O2_18 Th10_2 1_555 1_555
O13_18 Th7_10 1_555 1_555
O17_18 Th7_9 1_555 1_555

#END
