
###############################################################################
#
# This file contains modified crystal structure data generated from the
# MOF subset of the Cambridge Structural Database (CSD) v543 
# hosted by the Cambridge Crystallographic Data Centre (CCDC).
#
# This work is licensed under the Creative Commons
# Attribution-NonCommercial-ShareAlike 4.0 International License.
# To view a copy of this license, visit
# http://creativecommons.org/licenses/by-nc-sa/4.0/
# or send a letter to
# Creative Commons, PO Box 1866, Mountain View, CA 94042, USA.
#
# CIF created using the CSD Python API on 29 September 2022
# The structure has been converted into the P1 space group
# The structure has a 3D framework
# The original CSD entry POXLEV01 is in the monoclinic crystal system
# The framework has been calculated to contain at least 10.0% void space
# The void calculation uses a probe of radius 1.32A, grid spacing 0.4
#
###############################################################################

data_POXLEV01
_chemical_formula_moiety         '(C64 H32 O26 Th3)n'
_symmetry_cell_setting           triclinic
_symmetry_space_group_name_H-M   'P 1'
_symmetry_Int_Tables_number      1
_space_group_name_Hall           'P 1'
loop_
_symmetry_equiv_pos_site_id
_symmetry_equiv_pos_as_xyz
1 x,y,z
_cell_length_a                   11.620(2)
_cell_length_b                   18.036(4)
_cell_length_c                   9.1910(18)
_cell_angle_alpha                90
_cell_angle_beta                 114.84(3)
_cell_angle_gamma                90
_cell_volume                     1748.03
loop_
_atom_site_label
_atom_site_type_symbol
_atom_site_fract_x
_atom_site_fract_y
_atom_site_fract_z
Th2 Th -0.0000 0.01904(2) 0.7500
Th6 Th 0.0000 0.98096(2) 0.2500
O10 O 0.1612(3) 0.06654(17) 0.9907(3)
Th2_2 Th 1.0000 0.01904(2) 0.7500
O13 O 0.0978(3) 0.12319(16) 0.6751(4)
O5 O 0.8388(3) 0.93346(17) 0.0093(3)
H5 H 0.6287 0.9237 0.0231
Th6_2 Th 1.0000 0.98096(2) 0.2500
O1 O 0.1612(3) 0.93346(17) 0.4907(3)
C2 C 0.4230(4) 0.9269(2) 0.5861(5)
H1 H 0.3713 0.9237 0.4769
C3 C 0.2299(4) 0.9456(2) 0.6362(5)
C4 C 0.4459(4) 0.9278(2) 0.8590(5)
H2 H 0.4096 0.9266 0.9319
C7 C 0.3694(4) 0.9306(2) 0.6964(5)
O4 O 0.1909(3) 0.97162(16) 0.7348(4)
C9 C 0.5770(4) 0.9269(2) 0.9139(5)
C10 C 0.7701(4) 0.9456(2) 0.8638(5)
C11 C 0.5541(4) 0.9278(2) 0.6410(5)
H6 H 0.5904 0.9266 0.5681
C12 C 0.6306(4) 0.9306(2) 0.8036(5)
O6 O 0.8091(3) 0.97162(16) 0.7652(4)
O11 O 0.0632(3) 0.92018(16) 0.9345(4)
O2 O 0.9368(3) 0.07982(16) 0.0655(4)
C8 C 0.8181(4) 0.2037(2) 0.1285(5)
H4 H 0.8639 0.1726 0.2140
C13 C 0.6813(4) 0.3084(2) 0.0217(5)
O8 O 0.5978(3) 0.37681(16) 0.1751(4)
C14 C 0.7494(4) 0.2619(2) 0.1494(5)
H7 H 0.7488 0.2700 0.2490
C15 C 0.6088(4) 0.3724(2) 0.0452(5)
Th7 Th 0.5000 0.48096(2) 0.2500
C1 C 0.8187(4) 0.1916(2) 0.9783(5)
O3 O 0.9022(3) 0.12319(16) 0.8249(4)
C5 C 0.7506(4) 0.2381(2) 0.8506(5)
H3 H 0.7512 0.2300 0.7510
C6 C 0.8912(4) 0.1276(2) 0.9548(5)
O7 O 0.5632(3) 0.42018(16) 0.9345(4)
C16 C 0.6819(4) 0.2963(2) 0.8715(5)
H8 H 0.6361 0.3274 0.7860
O9 O 0.8388(3) 0.06654(17) 0.5093(3)
Th3 Th 0.5000 0.51904(2) 0.7500
O12 O 0.9368(3) 0.92018(16) 0.5655(4)
O2_2 O 0.0632(3) 0.07982(16) 0.4345(4)
C1_2 C 0.1813(4) 0.1916(2) 0.5217(5)
C5_2 C 0.2494(4) 0.2381(2) 0.6494(5)
H3_2 H 0.2488 0.2300 0.7490
C6_2 C 0.1088(4) 0.1276(2) 0.5452(5)
C8_2 C 0.1819(4) 0.2037(2) 0.3715(5)
H4_2 H 0.1361 0.1726 0.2860
O7_2 O 0.4368(3) 0.42018(16) 0.5655(4)
C13_2 C 0.3187(4) 0.3084(2) 0.4783(5)
O8_2 O 0.4022(3) 0.37681(16) 0.3249(4)
C14_2 C 0.2506(4) 0.2619(2) 0.3506(5)
H7_2 H 0.2512 0.2700 0.2510
C15_2 C 0.3912(4) 0.3724(2) 0.4548(5)
C16_2 C 0.3181(4) 0.2963(2) 0.6285(5)
H8_2 H 0.3639 0.3274 0.7140
O5_2 O 0.3388(3) 0.43346(17) 0.0093(3)
H5_2 H 0.1287 0.4237 0.0231
C9_2 C 0.0770(4) 0.4269(2) 0.9139(5)
C10_2 C 0.2701(4) 0.4456(2) 0.8638(5)
C11_2 C 0.0541(4) 0.4278(2) 0.6410(5)
H6_2 H 0.0904 0.4266 0.5681
C12_2 C 0.1306(4) 0.4306(2) 0.8036(5)
O6_2 O 0.3091(3) 0.47162(16) 0.7652(4)
O2_3 O 0.4368(3) 0.57982(16) 0.0655(4)
C8_3 C 0.3181(4) 0.7037(2) 0.1285(5)
H4_3 H 0.3639 0.6726 0.2140
C13_3 C 0.1813(4) 0.8084(2) 0.0217(5)
O8_3 O 0.0978(3) 0.87681(16) 0.1751(4)
C14_3 C 0.2494(4) 0.7619(2) 0.1494(5)
H7_3 H 0.2488 0.7700 0.2490
C15_3 C 0.1088(4) 0.8724(2) 0.0452(5)
O1_2 O 0.6612(3) 0.43346(17) 0.4907(3)
C1_3 C 0.3187(4) 0.6916(2) 0.9783(5)
C2_2 C 0.9230(4) 0.4269(2) 0.5861(5)
H1_2 H 0.8713 0.4237 0.4769
C3_2 C 0.7299(4) 0.4456(2) 0.6362(5)
C4_2 C 0.9459(4) 0.4278(2) 0.8590(5)
H2_2 H 0.9096 0.4266 0.9319
O3_2 O 0.4022(3) 0.62319(16) 0.8249(4)
C5_3 C 0.2506(4) 0.7381(2) 0.8506(5)
H3_3 H 0.2512 0.7300 0.7510
C6_3 C 0.3912(4) 0.6276(2) 0.9548(5)
C7_2 C 0.8694(4) 0.4306(2) 0.6964(5)
O4_2 O 0.6909(3) 0.47162(16) 0.7348(4)
C16_3 C 0.1819(4) 0.7963(2) 0.8715(5)
H8_3 H 0.1361 0.8274 0.7860
O9_2 O 0.3388(3) 0.56654(17) 0.5093(3)
O10_2 O 0.6612(3) 0.56654(17) 0.9907(3)
O13_2 O 0.5978(3) 0.62319(16) 0.6751(4)
O2_4 O 0.5632(3) 0.57982(16) 0.4345(4)
C1_4 C 0.6813(4) 0.6916(2) 0.5217(5)
C5_4 C 0.7494(4) 0.7381(2) 0.6494(5)
H3_4 H 0.7488 0.7300 0.7490
C6_4 C 0.6088(4) 0.6276(2) 0.5452(5)
C8_4 C 0.6819(4) 0.7037(2) 0.3715(5)
H4_4 H 0.6361 0.6726 0.2860
C13_4 C 0.8187(4) 0.8084(2) 0.4783(5)
O8_4 O 0.9022(3) 0.87681(16) 0.3249(4)
C14_4 C 0.7506(4) 0.7619(2) 0.3506(5)
H7_4 H 0.7512 0.7700 0.2510
C15_4 C 0.8912(4) 0.8724(2) 0.4548(5)
C16_4 C 0.8181(4) 0.7963(2) 0.6285(5)
H8_4 H 0.8639 0.8274 0.7140
O14 O 0.1909(3) 0.02838(16) 0.2348(4)
C2_3 C 0.5770(4) 0.0731(2) 0.4139(5)
H1_3 H 0.6287 0.0763 0.5231
C3_3 C 0.7701(4) 0.0544(2) 0.3638(5)
C4_3 C 0.5541(4) 0.0722(2) 0.1410(5)
H2_3 H 0.5904 0.0734 0.0681
C7_3 C 0.6306(4) 0.0694(2) 0.3036(5)
O4_3 O 0.8091(3) 0.02838(16) 0.2652(4)
C9_3 C 0.4230(4) 0.0731(2) 0.0861(5)
C10_3 C 0.2299(4) 0.0544(2) 0.1362(5)
C11_3 C 0.4459(4) 0.0722(2) 0.3590(5)
H6_3 H 0.4096 0.0734 0.4319
C12_3 C 0.3694(4) 0.0694(2) 0.1964(5)
H5_3 H 0.3713 0.0763 0.9769
C2_4 C 0.0770(4) 0.5731(2) 0.4139(5)
H1_4 H 0.1287 0.5763 0.5231
C3_4 C 0.2701(4) 0.5544(2) 0.3638(5)
C4_4 C 0.0541(4) 0.5722(2) 0.1410(5)
H2_4 H 0.0904 0.5734 0.0681
C7_4 C 0.1306(4) 0.5694(2) 0.3036(5)
O4_4 O 0.3091(3) 0.52838(16) 0.2652(4)
O14_2 O 0.6909(3) 0.52838(16) 0.2348(4)
C9_4 C 0.9230(4) 0.5731(2) 0.0861(5)
C10_4 C 0.7299(4) 0.5544(2) 0.1362(5)
C11_4 C 0.9459(4) 0.5722(2) 0.3590(5)
H6_4 H 0.9096 0.5734 0.4319
C12_4 C 0.8694(4) 0.5694(2) 0.1964(5)
H5_4 H 0.8713 0.5763 0.9769
loop_
_geom_bond_atom_site_label_1
_geom_bond_atom_site_label_2
_geom_bond_site_symmetry_1
_geom_bond_site_symmetry_2
O10 Th2 1_555 1_555
O13 Th2 1_555 1_555
Th6_2 O5 1_555 1_555
O1 C3 1_555 1_555
C2 H1 1_555 1_555
C3 C7 1_555 1_555
C4 H2 1_555 1_555
C7 C2 1_555 1_555
C9 C4 1_555 1_555
C10 C12 1_555 1_555
C11 C2 1_555 1_555
H6 C11 1_555 1_555
C12 C9 1_555 1_555
O6 C10 1_555 1_555
Th6 O1 1_555 1_555
C3 O4 1_555 1_555
C4 C7 1_555 1_555
C11 C12 1_555 1_555
H4 C8 1_555 1_555
C13 C14 1_555 1_555
O8 C15 1_555 1_555
C14 C8 1_555 1_555
H7 C14 1_555 1_555
C15 C13 1_555 1_555
Th7 O8 1_555 1_555
Th2_2 O3 1_555 1_555
C1 C5 1_555 1_555
O3 C6 1_555 1_555
C5 H3 1_555 1_555
C6 C1 1_555 1_555
C16 C5 1_555 1_555
H8 C16 1_555 1_555
O9 Th2_2 1_555 1_555
Th3 O7 1_555 1_555
O2_2 C6_2 1_555 1_555
C1_2 C5_2 1_555 1_555
O13 C6_2 1_555 1_555
C5_2 H3_2 1_555 1_555
C6_2 C1_2 1_555 1_555
C8_2 C1_2 1_555 1_555
H4_2 C8_2 1_555 1_555
O7_2 C15_2 1_555 1_555
C13_2 C14_2 1_555 1_555
O8_2 C15_2 1_555 1_555
C14_2 C8_2 1_555 1_555
H7_2 C14_2 1_555 1_555
C15_2 C13_2 1_555 1_555
C16_2 C5_2 1_555 1_555
H8_2 C16_2 1_555 1_555
Th3 O7_2 1_555 1_555
Th7 O8_2 1_555 1_555
C13_2 C16_2 1_555 1_555
Th7 O5_2 1_555 1_555
C10_2 C12_2 1_555 1_555
H6_2 C11_2 1_555 1_555
C12_2 C9_2 1_555 1_555
O6_2 C10_2 1_555 1_555
Th3 O6_2 1_555 1_555
C11_2 C12_2 1_555 1_555
H4_3 C8_3 1_555 1_555
C13_3 C14_3 1_555 1_555
O8_3 C15_3 1_555 1_555
C14_3 C8_3 1_555 1_555
H7_3 C14_3 1_555 1_555
C15_3 C13_3 1_555 1_555
Th7 O2_3 1_555 1_555
Th6 O8_3 1_555 1_555
O1_2 C3_2 1_555 1_555
Th3 O3_2 1_555 1_555
C1_3 C5_3 1_555 1_555
C2_2 H1_2 1_555 1_555
C3_2 C7_2 1_555 1_555
C4_2 H2_2 1_555 1_555
O3_2 C6_3 1_555 1_555
C5_3 H3_3 1_555 1_555
C6_3 C1_3 1_555 1_555
C7_2 C2_2 1_555 1_555
O4_2 Th3 1_555 1_555
C16_3 C5_3 1_555 1_555
H8_3 C16_3 1_555 1_555
O9_2 Th3 1_555 1_555
O10_2 Th3 1_555 1_555
Th7 O1_2 1_555 1_555
O13_2 Th3 1_555 1_555
C3_2 O4_2 1_555 1_555
C4_2 C7_2 1_555 1_555
O2_4 C6_4 1_555 1_555
C1_4 C5_4 1_555 1_555
O13_2 C6_4 1_555 1_555
C5_4 H3_4 1_555 1_555
C6_4 C1_4 1_555 1_555
C8_4 C1_4 1_555 1_555
H4_4 C8_4 1_555 1_555
O12 C15_4 1_555 1_555
C13_4 C14_4 1_555 1_555
O8_4 C15_4 1_555 1_555
C14_4 C8_4 1_555 1_555
H7_4 C14_4 1_555 1_555
C15_4 C13_4 1_555 1_555
C16_4 C5_4 1_555 1_555
H8_4 C16_4 1_555 1_555
Th7 O2_4 1_555 1_555
Th6_2 O8_4 1_555 1_555
C13_4 C16_4 1_555 1_555
O9 C3_3 1_555 1_555
C2_3 H1_3 1_555 1_555
C3_3 C7_3 1_555 1_555
C4_3 H2_3 1_555 1_555
C7_3 C2_3 1_555 1_555
C9_3 C4_3 1_555 1_555
C10_3 C12_3 1_555 1_555
C11_3 C2_3 1_555 1_555
H6_3 C11_3 1_555 1_555
C12_3 C9_3 1_555 1_555
O14 C10_3 1_555 1_555
C3_3 O4_3 1_555 1_555
C4_3 C7_3 1_555 1_555
C11_3 C12_3 1_555 1_555
O9_2 C3_4 1_555 1_555
C2_4 H1_4 1_555 1_555
C3_4 C7_4 1_555 1_555
C4_4 H2_4 1_555 1_555
C7_4 C2_4 1_555 1_555
O4_4 Th7 1_555 1_555
O14_2 Th7 1_555 1_555
C3_4 O4_4 1_555 1_555
C4_4 C7_4 1_555 1_555
C10_4 C12_4 1_555 1_555
H6_4 C11_4 1_555 1_555
C12_4 C9_4 1_555 1_555
O14_2 C10_4 1_555 1_555
C11_4 C12_4 1_555 1_555

#END
