
###############################################################################
#
# This file contains modified crystal structure data generated from the
# MOF subset of the Cambridge Structural Database (CSD) v543 
# hosted by the Cambridge Crystallographic Data Centre (CCDC).
#
# This work is licensed under the Creative Commons
# Attribution-NonCommercial-ShareAlike 4.0 International License.
# To view a copy of this license, visit
# http://creativecommons.org/licenses/by-nc-sa/4.0/
# or send a letter to
# Creative Commons, PO Box 1866, Mountain View, CA 94042, USA.
#
# CIF created using the CSD Python API on 29 September 2022
# The structure has been converted into the P1 space group
# The structure has a 3D framework
# The original CSD entry POYPAW is in the orthorhombic crystal system
# The framework has been calculated to contain at least 10.0% void space
# The void calculation uses a probe of radius 1.32A, grid spacing 0.4
#
###############################################################################

data_POYPAW
_chemical_formula_moiety         '(C328 H236 Cd6 Cl12 N80 Ni8)n'
_symmetry_cell_setting           triclinic
_symmetry_space_group_name_H-M   'P 1'
_symmetry_Int_Tables_number      1
_space_group_name_Hall           'P 1'
loop_
_symmetry_equiv_pos_site_id
_symmetry_equiv_pos_as_xyz
1 x,y,z
_cell_length_a                   23.9011(8)
_cell_length_b                   34.6395(8)
_cell_length_c                   13.4553(3)
_cell_angle_alpha                90
_cell_angle_beta                 90
_cell_angle_gamma                90
_cell_volume                     11139.9
loop_
_atom_site_label
_atom_site_type_symbol
_atom_site_fract_x
_atom_site_fract_y
_atom_site_fract_z
C16 C 0.11564(12) 0.33867(8) 0.09222(18)
H11 H 0.1341 0.3614 0.1084
C17 C 0.08867(11) 0.31470(7) 0.1543(2)
H12 H 0.0859 0.3183 0.2226
C18 C 0.07961(11) 0.28934(7) 0.01031(17)
C19 C 0.17746(14) 0.14255(8) 0.92087(19)
H14 H 0.1768 0.1390 0.9894
C20 C 0.14389(16) 0.17003(9) 0.8713(2)
H15 H 0.1185 0.1872 0.8996
C21 C 0.15681(14) 0.16592(9) 0.7725(2)
H16 H 0.1417 0.1799 0.7200
C22 C 0.19784(12) 0.13619(7) 0.76575(17)
C23 C 0.22218(10) 0.12172(7) 0.67880(16)
C24 C 0.26636(10) 0.09484(7) 0.67296(17)
C25 C 0.28794(11) 0.07792(7) 0.58439(18)
H17 H 0.2748 0.0818 0.5201
C26 C 0.33183(13) 0.05474(8) 0.61195(19)
H18 H 0.3544 0.0400 0.5705
C27 C 0.33555(12) 0.05792(7) 0.71565(18)
H19 H 0.3623 0.0452 0.7537
C28 C 0.19955(11) 0.13565(7) 0.58249(17)
C29 C 0.14439(12) 0.12826(9) 0.5566(2)
H20 H 0.1211 0.1155 0.6013
C30 C 0.12341(12) 0.13969(9) 0.4643(2)
H21 H 0.0870 0.1336 0.4459
C31 C 0.15752(10) 0.16000(7) 0.40145(18)
C32 C 0.21213(11) 0.16787(7) 0.42530(17)
H22 H 0.2350 0.1812 0.3810
C33 C 0.23273(11) 0.15575(7) 0.51599(18)
H23 H 0.2696 0.1612 0.5327
C34 C 0.16186(12) 0.17813(9) 0.21897(18)
H24 H 0.1986 0.1716 0.2039
C35 C 0.12366(11) 0.19393(8) 0.1578(2)
H25 H 0.1301 0.2002 0.0916
C36 C 0.08252(11) 0.18768(7) 0.29799(18)
H26 H 0.0562 0.1888 0.3488
N4 N 0.06584(9) 0.28421(6) 0.10382(14)
N5 N 0.20971(9) 0.12244(6) 0.86118(15)
N6 N 0.29686(9) 0.08106(6) 0.75368(14)
N7 N 0.13479(9) 0.17370(6) 0.30900(15)
N8 N 0.07340(9) 0.19955(6) 0.20702(14)
Cl2 Cl -0.0000 0.26967(2) 0.33432(6)
Cd1 Cd -0.0000 0.238327(6) 0.157241(15)
C60 C 0.11564(12) 0.66133(8) 0.09222(18)
H43 H 0.1341 0.6386 0.1084
C61 C 0.08867(11) 0.68530(7) 0.1543(2)
H44 H 0.0859 0.6817 0.2226
C62 C 0.07961(11) 0.71066(7) 0.01031(17)
N16 N 0.06584(9) 0.71579(6) 0.10382(14)
Ni3 Ni 0.269037(13) 0.082944(7) 0.90097(2)
Cd2 Cd 0.0000 0.761673(6) 0.157241(15)
Cl2_2 Cl 0.0000 0.73033(2) 0.33432(6)
N24 N 0.07340(9) 0.80045(6) 0.20702(14)
C19_2 C 0.17746(14) 0.85745(8) 0.92087(19)
H14_2 H 0.1768 0.8610 0.9894
C20_2 C 0.14389(16) 0.82997(9) 0.8713(2)
H15_2 H 0.1185 0.8128 0.8996
C21_2 C 0.15681(14) 0.83408(9) 0.7725(2)
H16_2 H 0.1417 0.8201 0.7200
C22_2 C 0.19784(12) 0.86381(7) 0.76575(17)
C23_2 C 0.22218(10) 0.87828(7) 0.67880(16)
C24_2 C 0.26636(10) 0.90516(7) 0.67296(17)
C25_2 C 0.28794(11) 0.92208(7) 0.58439(18)
H17_2 H 0.2748 0.9182 0.5201
C26_2 C 0.33183(13) 0.94526(8) 0.61195(19)
H18_2 H 0.3544 0.9600 0.5705
C27_2 C 0.33555(12) 0.94208(7) 0.71565(18)
H19_2 H 0.3623 0.9548 0.7537
C28_2 C 0.19955(11) 0.86435(7) 0.58249(17)
C29_2 C 0.14439(12) 0.87174(9) 0.5566(2)
H20_2 H 0.1211 0.8845 0.6013
C30_2 C 0.12341(12) 0.86031(9) 0.4643(2)
H21_2 H 0.0870 0.8664 0.4459
C31_2 C 0.15752(10) 0.84000(7) 0.40145(18)
C32_2 C 0.21213(11) 0.83213(7) 0.42530(17)
H22_2 H 0.2350 0.8188 0.3810
C33_2 C 0.23273(11) 0.84425(7) 0.51599(18)
H23_2 H 0.2696 0.8388 0.5327
C34_2 C 0.16186(12) 0.82187(9) 0.21897(18)
H24_2 H 0.1986 0.8284 0.2039
C35_2 C 0.12366(11) 0.80607(8) 0.1578(2)
H25_2 H 0.1301 0.7998 0.0916
C36_2 C 0.08252(11) 0.81232(7) 0.29799(18)
H26_2 H 0.0562 0.8112 0.3488
N5_2 N 0.20971(9) 0.87756(6) 0.86118(15)
N6_2 N 0.29686(9) 0.91894(6) 0.75368(14)
N7_2 N 0.13479(9) 0.82630(6) 0.30900(15)
Ni3_2 Ni 0.269037(13) 0.917056(7) 0.90097(2)
C8 C 0.40813(12) 0.15681(8) 0.94249(19)
H5 H 0.4390 0.1700 0.9175
C9 C 0.36815(12) 0.13534(7) 0.88799(19)
H6 H 0.3694 0.1320 0.8194
C37 C 0.40336(15) 0.0000 0.9869(3)
C38 C 0.37516(10) 0.03417(7) 0.96879(18)
H28 H 0.3933 0.0576 0.9795
C39 C 0.29892(14) 0.0000 0.9199(2)
C40 C 0.24167(14) 0.0000 0.8780(2)
C41 C 0.16783(11) 0.03370(8) 0.8165(2)
H29 H 0.1507 0.0571 0.8010
C42 C 0.14042(17) 0.0000 0.7942(3)
H30 H 0.1051 0.0000 0.7654
N2 N 0.32857(9) 0.12049(5) 0.94620(13)
N9 N 0.21837(9) 0.03422(6) 0.85992(15)
N10 N 0.32237(8) 0.03409(5) 0.93608(13)
C37_2 C 0.40336(15) 1.0000 0.9869(3)
C39_2 C 0.29892(14) 1.0000 0.9199(2)
C40_2 C 0.24167(14) 1.0000 0.8780(2)
C42_2 C 0.14042(17) 1.0000 0.7942(3)
H30_2 H 0.1051 1.0000 0.7654
C43 C 0.37516(10) 0.96583(7) 0.96879(18)
H31 H 0.3933 0.9424 0.9795
C44 C 0.16783(11) 0.96630(8) 0.8165(2)
H32 H 0.1507 0.9429 0.8010
N11 N 0.21837(9) 0.96578(6) 0.85992(15)
N12 N 0.32237(8) 0.96591(5) 0.93608(13)
C52 C 0.40813(12) 0.84319(8) 0.94249(19)
H37 H 0.4390 0.8300 0.9175
C53 C 0.36815(12) 0.86466(7) 0.88799(19)
H38 H 0.3694 0.8680 0.8194
N14 N 0.32857(9) 0.87951(5) 0.94620(13)
C1 C 0.30508(11) 0.43955(8) 0.57735(19)
H1 H 0.3282 0.4543 0.5369
C2 C 0.31341(11) 0.43417(8) 0.68109(18)
H2 H 0.3421 0.4445 0.7197
C3 C 0.27112(11) 0.41096(7) 0.71251(19)
H3 H 0.2654 0.4023 0.7771
C4 C 0.23725(10) 0.40237(7) 0.62866(16)
C5 C 0.18937(10) 0.37874(6) 0.62600(16)
C6 C 0.15852(10) 0.36849(6) 0.54353(17)
C7 C 0.10821(11) 0.34586(7) 0.54009(19)
H4 H 0.0900 0.3350 0.5943
C8_2 C 0.09187(12) 0.34319(8) 0.44249(19)
H5_2 H 0.0610 0.3300 0.4175
C9_2 C 0.13185(12) 0.36466(7) 0.38799(19)
H6_2 H 0.1306 0.3680 0.3194
C10 C 0.16924(10) 0.36375(7) 0.72374(16)
C11 C 0.15393(10) 0.38926(7) 0.79938(17)
H7 H 0.1569 0.4157 0.7886
C12 C 0.13437(10) 0.37606(7) 0.89021(17)
H8 H 0.1240 0.3934 0.9398
C13 C 0.13055(10) 0.33646(6) 0.90581(18)
C14 C 0.14551(11) 0.31032(7) 0.83199(18)
H9 H 0.1429 0.2839 0.8433
C15 C 0.16438(11) 0.32430(7) 0.74098(17)
H10 H 0.1739 0.3070 0.6909
H13 H 0.0698 0.2727 0.9589
C37_3 C 0.09664(15) 0.5000 0.4869(3)
H27 H 0.0601 0.5000 0.5105
C38_2 C 0.12484(10) 0.46583(7) 0.46879(18)
H28_2 H 0.1067 0.4424 0.4795
C39_3 C 0.20108(14) 0.5000 0.4199(2)
C40_3 C 0.25833(14) 0.5000 0.3780(2)
C41_2 C 0.33217(11) 0.46630(8) 0.3165(2)
H29_2 H 0.3493 0.4429 0.3010
C42_3 C 0.35958(17) 0.5000 0.2942(3)
H30_3 H 0.3949 0.5000 0.2654
N1 N 0.25978(9) 0.42073(5) 0.54551(14)
N2_2 N 0.17143(9) 0.37951(5) 0.44620(13)
N3 N 0.11003(9) 0.32214(6) 0.99850(14)
N9_2 N 0.28163(9) 0.46578(6) 0.35992(15)
N10_2 N 0.17763(8) 0.46591(5) 0.43608(13)
Cl1 Cl 0.0000 0.20937(2) 0.97769(6)
Ni1 Ni 0.230963(13) 0.417056(7) 0.40097(2)
C43_2 C 0.12484(10) 0.53417(7) 0.46879(18)
H31_2 H 0.1067 0.5576 0.4795
C44_2 C 0.33217(11) 0.53370(8) 0.3165(2)
H32_2 H 0.3493 0.5571 0.3010
N11_2 N 0.28163(9) 0.53422(6) 0.35992(15)
N12_2 N 0.17763(8) 0.53409(5) 0.43608(13)
C45 C 0.30508(11) 0.56045(8) 0.57735(19)
H33 H 0.3282 0.5457 0.5369
C46 C 0.31341(11) 0.56583(8) 0.68109(18)
H34 H 0.3421 0.5555 0.7197
C47 C 0.27112(11) 0.58904(7) 0.71251(19)
H35 H 0.2654 0.5977 0.7771
C48 C 0.23725(10) 0.59763(7) 0.62866(16)
C49 C 0.18937(10) 0.62126(6) 0.62600(16)
C50 C 0.15852(10) 0.63151(6) 0.54353(17)
C51 C 0.10821(11) 0.65414(7) 0.54009(19)
H36 H 0.0900 0.6650 0.5943
C52_2 C 0.09187(12) 0.65681(8) 0.44249(19)
H37_2 H 0.0610 0.6700 0.4175
C53_2 C 0.13185(12) 0.63534(7) 0.38799(19)
H38_2 H 0.1306 0.6320 0.3194
C54 C 0.16924(10) 0.63625(7) 0.72374(16)
C55 C 0.15393(10) 0.61074(7) 0.79938(17)
H39 H 0.1569 0.5843 0.7886
C56 C 0.13437(10) 0.62394(7) 0.89021(17)
H40 H 0.1240 0.6066 0.9398
C57 C 0.13055(10) 0.66354(6) 0.90581(18)
C58 C 0.14551(11) 0.68968(7) 0.83199(18)
H41 H 0.1429 0.7161 0.8433
C59 C 0.16438(11) 0.67570(7) 0.74098(17)
H42 H 0.1739 0.6930 0.6909
H45 H 0.0698 0.7273 0.9589
N13 N 0.25978(9) 0.57927(5) 0.54551(14)
N14_2 N 0.17143(9) 0.62049(5) 0.44620(13)
N15 N 0.11003(9) 0.67786(6) 0.99850(14)
Ni2 Ni 0.230963(13) 0.582944(7) 0.40097(2)
C63 C 0.32254(14) 0.35745(8) 0.42087(19)
H46 H 0.3232 0.3610 0.4894
C64 C 0.35611(16) 0.32997(9) 0.3713(2)
H47 H 0.3815 0.3128 0.3996
C65 C 0.34319(14) 0.33408(9) 0.2725(2)
H48 H 0.3583 0.3201 0.2200
C66 C 0.30216(12) 0.36381(7) 0.26575(17)
C67 C 0.27782(10) 0.37828(7) 0.17880(16)
C68 C 0.23364(10) 0.40516(7) 0.17296(17)
C69 C 0.21206(11) 0.42208(7) 0.08439(18)
H49 H 0.2252 0.4182 0.0201
C70 C 0.16817(13) 0.44526(8) 0.11195(19)
H50 H 0.1456 0.4600 0.0705
C71 C 0.16445(12) 0.44208(7) 0.21565(18)
H51 H 0.1377 0.4548 0.2537
C72 C 0.30045(11) 0.36435(7) 0.08249(17)
C73 C 0.35561(12) 0.37174(9) 0.0566(2)
H52 H 0.3789 0.3845 0.1013
C77 C 0.26727(11) 0.34425(7) 0.01599(18)
H55 H 0.2304 0.3388 0.0327
N17 N 0.29029(9) 0.37756(6) 0.36118(15)
N18 N 0.20314(9) 0.41894(6) 0.25368(14)
N22 N 0.29029(9) 0.62244(6) 0.36118(15)
N23 N 0.20314(9) 0.58106(6) 0.25368(14)
Cl1_2 Cl -0.0000 0.79063(2) 0.97769(6)
C63_2 C 0.32254(14) 0.64255(8) 0.42087(19)
H46_2 H 0.3232 0.6390 0.4894
C64_2 C 0.35611(16) 0.67003(9) 0.3713(2)
H47_2 H 0.3815 0.6872 0.3996
C65_2 C 0.34319(14) 0.66592(9) 0.2725(2)
H48_2 H 0.3583 0.6799 0.2200
C66_2 C 0.30216(12) 0.63619(7) 0.26575(17)
C67_2 C 0.27782(10) 0.62172(7) 0.17880(16)
C68_2 C 0.23364(10) 0.59484(7) 0.17296(17)
C69_2 C 0.21206(11) 0.57792(7) 0.08439(18)
H49_2 H 0.2252 0.5818 0.0201
C70_2 C 0.16817(13) 0.55474(8) 0.11195(19)
H50_2 H 0.1456 0.5400 0.0705
C71_2 C 0.16445(12) 0.55792(7) 0.21565(18)
H51_2 H 0.1377 0.5452 0.2537
C72_2 C 0.30045(11) 0.63565(7) 0.08249(17)
C73_2 C 0.35561(12) 0.62826(9) 0.0566(2)
H52_2 H 0.3789 0.6155 0.1013
C77_2 C 0.26727(11) 0.65575(7) 0.01599(18)
H55_2 H 0.2304 0.6612 0.0327
C74 C 0.37659(12) 0.36031(9) 0.9643(2)
H53 H 0.4130 0.3664 0.9459
C75 C 0.34248(10) 0.34000(7) 0.90145(18)
C76 C 0.28787(11) 0.33213(7) 0.92530(17)
H54 H 0.2650 0.3188 0.8810
C78 C 0.33814(12) 0.32187(9) 0.71897(18)
H56 H 0.3014 0.3284 0.7039
C79 C 0.37634(11) 0.30607(8) 0.6578(2)
H57 H 0.3699 0.2998 0.5916
C80 C 0.41748(11) 0.31232(7) 0.79799(18)
H58 H 0.4438 0.3112 0.8488
N19 N 0.36521(9) 0.32630(6) 0.80900(15)
N20 N 0.42660(9) 0.30045(6) 0.70702(14)
Cd3 Cd 0.5000 0.261673(6) 0.657241(15)
C74_2 C 0.62341(12) 0.36031(9) 0.9643(2)
H53_2 H 0.5870 0.3664 0.9459
C75_2 C 0.65752(10) 0.34000(7) 0.90145(18)
C76_2 C 0.71213(11) 0.33213(7) 0.92530(17)
H54_2 H 0.7350 0.3188 0.8810
C78_2 C 0.66186(12) 0.32187(9) 0.71897(18)
H56_2 H 0.6986 0.3284 0.7039
C79_2 C 0.62366(11) 0.30607(8) 0.6578(2)
H57_2 H 0.6301 0.2998 0.5916
C80_2 C 0.58252(11) 0.31232(7) 0.79799(18)
H58_2 H 0.5562 0.3112 0.8488
N19_2 N 0.63479(9) 0.32630(6) 0.80900(15)
N20_2 N 0.57340(9) 0.30045(6) 0.70702(14)
H27_2 H 0.5601 -0.0000 0.0105
C45_2 C 0.80508(11) 0.06045(8) 0.07735(19)
H33_2 H 0.8282 0.0457 0.0369
C46_2 C 0.81341(11) 0.06583(8) 0.18109(18)
H34_2 H 0.8421 0.0555 0.2197
C47_2 C 0.77112(11) 0.08904(7) 0.21251(19)
H35_2 H 0.7654 0.0977 0.2771
C48_2 C 0.73725(10) 0.09763(7) 0.12866(16)
C49_2 C 0.68937(10) 0.12126(6) 0.12600(16)
C50_2 C 0.65852(10) 0.13151(6) 0.04353(17)
C51_2 C 0.60821(11) 0.15414(7) 0.04009(19)
H36_2 H 0.5900 0.1650 0.0943
C54_2 C 0.66924(10) 0.13625(7) 0.22374(16)
C55_2 C 0.65393(10) 0.11074(7) 0.29938(17)
H39_2 H 0.6569 0.0843 0.2886
C56_2 C 0.63437(10) 0.12394(7) 0.39021(17)
H40_2 H 0.6240 0.1066 0.4398
C57_2 C 0.63055(10) 0.16354(6) 0.40581(18)
C58_2 C 0.64551(11) 0.18968(7) 0.33199(18)
H41_2 H 0.6429 0.2161 0.3433
C59_2 C 0.66438(11) 0.17570(7) 0.24098(17)
H42_2 H 0.6739 0.1930 0.1909
C60_2 C 0.61564(12) 0.16133(8) 0.59222(18)
H43_2 H 0.6341 0.1386 0.6084
C61_2 C 0.58867(11) 0.18530(7) 0.6543(2)
H44_2 H 0.5859 0.1817 0.7226
C62_2 C 0.57961(11) 0.21066(7) 0.51031(17)
H45_2 H 0.5698 0.2273 0.4589
N13_2 N 0.75978(9) 0.07927(5) 0.04551(14)
N15_2 N 0.61003(9) 0.17786(6) 0.49850(14)
N16_2 N 0.56584(9) 0.21579(6) 0.60382(14)
C1_2 C 0.19492(11) 0.06045(8) 0.07735(19)
H1_2 H 0.1718 0.0457 0.0369
C2_2 C 0.18659(11) 0.06583(8) 0.18109(18)
H2_2 H 0.1579 0.0555 0.2197
C3_2 C 0.22888(11) 0.08904(7) 0.21251(19)
H3_2 H 0.2346 0.0977 0.2771
C4_2 C 0.26275(10) 0.09763(7) 0.12866(16)
C5_2 C 0.31063(10) 0.12126(6) 0.12600(16)
C6_2 C 0.34148(10) 0.13151(6) 0.04353(17)
C7_2 C 0.39179(11) 0.15414(7) 0.04009(19)
H4_2 H 0.4100 0.1650 0.0943
C10_2 C 0.33076(10) 0.13625(7) 0.22374(16)
C11_2 C 0.34607(10) 0.11074(7) 0.29938(17)
H7_2 H 0.3431 0.0843 0.2886
C12_2 C 0.36563(10) 0.12394(7) 0.39021(17)
H8_2 H 0.3760 0.1066 0.4398
C13_2 C 0.36945(10) 0.16354(6) 0.40581(18)
C14_2 C 0.35449(11) 0.18968(7) 0.33199(18)
H9_2 H 0.3571 0.2161 0.3433
C15_2 C 0.33562(11) 0.17570(7) 0.24098(17)
H10_2 H 0.3261 0.1930 0.1909
C16_2 C 0.38436(12) 0.16133(8) 0.59222(18)
H11_2 H 0.3659 0.1386 0.6084
C17_2 C 0.41133(11) 0.18530(7) 0.6543(2)
H12_2 H 0.4141 0.1817 0.7226
C18_2 C 0.42039(11) 0.21066(7) 0.51031(17)
H13_2 H 0.4302 0.2273 0.4589
H27_3 H 0.4399 0.0000 0.0105
N1_2 N 0.24022(9) 0.07927(5) 0.04551(14)
N3_2 N 0.38997(9) 0.17786(6) 0.49850(14)
N4_2 N 0.43416(9) 0.21579(6) 0.60382(14)
Cl1_3 Cl 0.5000 0.29063(2) 0.47769(6)
Cl2_3 Cl 0.5000 0.23033(2) 0.83432(6)
Cl2_4 Cl 1.0000 0.26967(2) 0.33432(6)
Cd1_2 Cd 1.0000 0.238327(6) 0.157241(15)
N21 N 0.93416(9) 0.28421(6) 0.10382(14)
N24_2 N 0.92660(9) 0.19955(6) 0.20702(14)
Cd2_2 Cd 1.0000 0.761673(6) 0.157241(15)
C16_3 C 0.88436(12) 0.66133(8) 0.09222(18)
H11_3 H 0.8659 0.6386 0.1084
C17_3 C 0.91133(11) 0.68530(7) 0.1543(2)
H12_3 H 0.9141 0.6817 0.2226
C18_3 C 0.92039(11) 0.71066(7) 0.01031(17)
C19_3 C 0.82254(14) 0.85745(8) 0.92087(19)
H14_3 H 0.8232 0.8610 0.9894
C20_3 C 0.85611(16) 0.82997(9) 0.8713(2)
H15_3 H 0.8815 0.8128 0.8996
C21_3 C 0.84319(14) 0.83408(9) 0.7725(2)
H16_3 H 0.8583 0.8201 0.7200
C22_3 C 0.80216(12) 0.86381(7) 0.76575(17)
C23_3 C 0.77782(10) 0.87828(7) 0.67880(16)
C24_3 C 0.73364(10) 0.90516(7) 0.67296(17)
C25_3 C 0.71206(11) 0.92208(7) 0.58439(18)
H17_3 H 0.7252 0.9182 0.5201
C26_3 C 0.66817(13) 0.94526(8) 0.61195(19)
H18_3 H 0.6456 0.9600 0.5705
C27_3 C 0.66445(12) 0.94208(7) 0.71565(18)
H19_3 H 0.6377 0.9548 0.7537
C28_3 C 0.80045(11) 0.86435(7) 0.58249(17)
C29_3 C 0.85561(12) 0.87174(9) 0.5566(2)
H20_3 H 0.8789 0.8845 0.6013
C30_3 C 0.87659(12) 0.86031(9) 0.4643(2)
H21_3 H 0.9130 0.8664 0.4459
C31_3 C 0.84248(10) 0.84000(7) 0.40145(18)
C32_3 C 0.78787(11) 0.83213(7) 0.42530(17)
H22_3 H 0.7650 0.8188 0.3810
C33_3 C 0.76727(11) 0.84425(7) 0.51599(18)
H23_3 H 0.7304 0.8388 0.5327
C34_3 C 0.83814(12) 0.82187(9) 0.21897(18)
H24_3 H 0.8014 0.8284 0.2039
C35_3 C 0.87634(11) 0.80607(8) 0.1578(2)
H25_3 H 0.8699 0.7998 0.0916
C36_3 C 0.91748(11) 0.81232(7) 0.29799(18)
H26_3 H 0.9438 0.8112 0.3488
N4_3 N 0.93416(9) 0.71579(6) 0.10382(14)
N5_3 N 0.79029(9) 0.87756(6) 0.86118(15)
N6_3 N 0.70314(9) 0.91894(6) 0.75368(14)
N7_3 N 0.86521(9) 0.82630(6) 0.30900(15)
N8_2 N 0.92660(9) 0.80045(6) 0.20702(14)
Cl2_5 Cl 1.0000 0.73033(2) 0.33432(6)
C60_3 C 0.88436(12) 0.33867(8) 0.09222(18)
H43_3 H 0.8659 0.3614 0.1084
C61_3 C 0.91133(11) 0.31470(7) 0.1543(2)
H44_3 H 0.9141 0.3183 0.2226
C62_3 C 0.92039(11) 0.28934(7) 0.01031(17)
Ni3_3 Ni 0.730963(13) 0.917056(7) 0.90097(2)
C19_4 C 0.82254(14) 0.14255(8) 0.92087(19)
H14_4 H 0.8232 0.1390 0.9894
C20_4 C 0.85611(16) 0.17003(9) 0.8713(2)
H15_4 H 0.8815 0.1872 0.8996
C21_4 C 0.84319(14) 0.16592(9) 0.7725(2)
H16_4 H 0.8583 0.1799 0.7200
C22_4 C 0.80216(12) 0.13619(7) 0.76575(17)
C23_4 C 0.77782(10) 0.12172(7) 0.67880(16)
C24_4 C 0.73364(10) 0.09484(7) 0.67296(17)
C25_4 C 0.71206(11) 0.07792(7) 0.58439(18)
H17_4 H 0.7252 0.0818 0.5201
C26_4 C 0.66817(13) 0.05474(8) 0.61195(19)
H18_4 H 0.6456 0.0400 0.5705
C27_4 C 0.66445(12) 0.05792(7) 0.71565(18)
H19_4 H 0.6377 0.0452 0.7537
C28_4 C 0.80045(11) 0.13565(7) 0.58249(17)
C29_4 C 0.85561(12) 0.12826(9) 0.5566(2)
H20_4 H 0.8789 0.1155 0.6013
C30_4 C 0.87659(12) 0.13969(9) 0.4643(2)
H21_4 H 0.9130 0.1336 0.4459
C31_4 C 0.84248(10) 0.16000(7) 0.40145(18)
C32_4 C 0.78787(11) 0.16787(7) 0.42530(17)
H22_4 H 0.7650 0.1812 0.3810
C33_4 C 0.76727(11) 0.15575(7) 0.51599(18)
H23_4 H 0.7304 0.1612 0.5327
C34_4 C 0.83814(12) 0.17813(9) 0.21897(18)
H24_4 H 0.8014 0.1716 0.2039
C35_4 C 0.87634(11) 0.19393(8) 0.1578(2)
H25_4 H 0.8699 0.2002 0.0916
C36_4 C 0.91748(11) 0.18768(7) 0.29799(18)
H26_4 H 0.9438 0.1888 0.3488
N5_4 N 0.79029(9) 0.12244(6) 0.86118(15)
N6_4 N 0.70314(9) 0.08106(6) 0.75368(14)
N7_4 N 0.86521(9) 0.17370(6) 0.30900(15)
Ni3_4 Ni 0.730963(13) 0.082944(7) 0.90097(2)
C37_4 C 0.59664(15) -0.0000 0.9869(3)
C39_4 C 0.70108(14) -0.0000 0.9199(2)
C40_4 C 0.75833(14) -0.0000 0.8780(2)
C42_4 C 0.85958(17) -0.0000 0.7942(3)
H30_4 H 0.8949 -0.0000 0.7654
C43_3 C 0.62484(10) 0.03417(7) 0.96879(18)
H31_3 H 0.6067 0.0576 0.9795
C44_3 C 0.83217(11) 0.03370(8) 0.8165(2)
H32_3 H 0.8493 0.0571 0.8010
N11_3 N 0.78163(9) 0.03422(6) 0.85992(15)
N12_3 N 0.67763(8) 0.03409(5) 0.93608(13)
C52_3 C 0.59187(12) 0.15681(8) 0.94249(19)
H37_3 H 0.5610 0.1700 0.9175
C53_3 C 0.63185(12) 0.13534(7) 0.88799(19)
H38_3 H 0.6306 0.1320 0.8194
N14_3 N 0.67143(9) 0.12049(5) 0.94620(13)
C8_3 C 0.59187(12) 0.84319(8) 0.94249(19)
H5_3 H 0.5610 0.8300 0.9175
C9_3 C 0.63185(12) 0.86466(7) 0.88799(19)
H6_3 H 0.6306 0.8680 0.8194
C37_5 C 0.59664(15) 1.0000 0.9869(3)
C38_3 C 0.62484(10) 0.96583(7) 0.96879(18)
H28_3 H 0.6067 0.9424 0.9795
C39_5 C 0.70108(14) 1.0000 0.9199(2)
C40_5 C 0.75833(14) 1.0000 0.8780(2)
C41_3 C 0.83217(11) 0.96630(8) 0.8165(2)
H29_3 H 0.8493 0.9429 0.8010
C42_5 C 0.85958(17) 1.0000 0.7942(3)
H30_5 H 0.8949 1.0000 0.7654
N2_3 N 0.67143(9) 0.87951(5) 0.94620(13)
N9_3 N 0.78163(9) 0.96578(6) 0.85992(15)
N10_3 N 0.67763(8) 0.96591(5) 0.93608(13)
Cl1_4 Cl 1.0000 0.20937(2) 0.97769(6)
C1_3 C 0.69492(11) 0.56045(8) 0.57735(19)
H1_3 H 0.6718 0.5457 0.5369
C2_3 C 0.68659(11) 0.56583(8) 0.68109(18)
H2_3 H 0.6579 0.5555 0.7197
C3_3 C 0.72888(11) 0.58904(7) 0.71251(19)
H3_3 H 0.7346 0.5977 0.7771
C4_3 C 0.76275(10) 0.59763(7) 0.62866(16)
C5_3 C 0.81063(10) 0.62126(6) 0.62600(16)
C6_3 C 0.84148(10) 0.63151(6) 0.54353(17)
C7_3 C 0.89179(11) 0.65414(7) 0.54009(19)
H4_3 H 0.9100 0.6650 0.5943
C8_4 C 0.90813(12) 0.65681(8) 0.44249(19)
H5_4 H 0.9390 0.6700 0.4175
C9_4 C 0.86815(12) 0.63534(7) 0.38799(19)
H6_4 H 0.8694 0.6320 0.3194
C10_3 C 0.83076(10) 0.63625(7) 0.72374(16)
C11_3 C 0.84607(10) 0.61074(7) 0.79938(17)
H7_3 H 0.8431 0.5843 0.7886
C12_3 C 0.86563(10) 0.62394(7) 0.89021(17)
H8_3 H 0.8760 0.6066 0.9398
C13_3 C 0.86945(10) 0.66354(6) 0.90581(18)
C14_3 C 0.85449(11) 0.68968(7) 0.83199(18)
H9_3 H 0.8571 0.7161 0.8433
C15_3 C 0.83562(11) 0.67570(7) 0.74098(17)
H10_3 H 0.8261 0.6930 0.6909
H13_3 H 0.9302 0.7273 0.9589
C37_6 C 0.90336(15) 0.5000 0.4869(3)
H27_4 H 0.9399 0.5000 0.5105
C38_4 C 0.87516(10) 0.53417(7) 0.46879(18)
H28_4 H 0.8933 0.5576 0.4795
C39_6 C 0.79892(14) 0.5000 0.4199(2)
C40_6 C 0.74167(14) 0.5000 0.3780(2)
C41_4 C 0.66783(11) 0.53370(8) 0.3165(2)
H29_4 H 0.6507 0.5571 0.3010
C42_6 C 0.64042(17) 0.5000 0.2942(3)
H30_6 H 0.6051 0.5000 0.2654
N1_3 N 0.74022(9) 0.57927(5) 0.54551(14)
N2_4 N 0.82857(9) 0.62049(5) 0.44620(13)
N3_3 N 0.88997(9) 0.67786(6) 0.99850(14)
N9_4 N 0.71837(9) 0.53422(6) 0.35992(15)
N10_4 N 0.82237(8) 0.53409(5) 0.43608(13)
Cl1_5 Cl 1.0000 0.79063(2) 0.97769(6)
Ni1_2 Ni 0.769037(13) 0.582944(7) 0.40097(2)
C43_4 C 0.87516(10) 0.46583(7) 0.46879(18)
H31_4 H 0.8933 0.4424 0.4795
C44_4 C 0.66783(11) 0.46630(8) 0.3165(2)
H32_4 H 0.6507 0.4429 0.3010
N11_4 N 0.71837(9) 0.46578(6) 0.35992(15)
N12_4 N 0.82237(8) 0.46591(5) 0.43608(13)
C45_3 C 0.69492(11) 0.43955(8) 0.57735(19)
H33_3 H 0.6718 0.4543 0.5369
C46_3 C 0.68659(11) 0.43417(8) 0.68109(18)
H34_3 H 0.6579 0.4445 0.7197
C47_3 C 0.72888(11) 0.41096(7) 0.71251(19)
H35_3 H 0.7346 0.4023 0.7771
C48_3 C 0.76275(10) 0.40237(7) 0.62866(16)
C49_3 C 0.81063(10) 0.37874(6) 0.62600(16)
C50_3 C 0.84148(10) 0.36849(6) 0.54353(17)
C51_3 C 0.89179(11) 0.34586(7) 0.54009(19)
H36_3 H 0.9100 0.3350 0.5943
C52_4 C 0.90813(12) 0.34319(8) 0.44249(19)
H37_4 H 0.9390 0.3300 0.4175
C53_4 C 0.86815(12) 0.36466(7) 0.38799(19)
H38_4 H 0.8694 0.3680 0.3194
C54_3 C 0.83076(10) 0.36375(7) 0.72374(16)
C55_3 C 0.84607(10) 0.38926(7) 0.79938(17)
H39_3 H 0.8431 0.4157 0.7886
C56_3 C 0.86563(10) 0.37606(7) 0.89021(17)
H40_3 H 0.8760 0.3934 0.9398
C57_3 C 0.86945(10) 0.33646(6) 0.90581(18)
C58_3 C 0.85449(11) 0.31032(7) 0.83199(18)
H41_3 H 0.8571 0.2839 0.8433
C59_3 C 0.83562(11) 0.32430(7) 0.74098(17)
H42_3 H 0.8261 0.3070 0.6909
H45_3 H 0.9302 0.2727 0.9589
N13_3 N 0.74022(9) 0.42073(5) 0.54551(14)
N14_4 N 0.82857(9) 0.37951(5) 0.44620(13)
N15_3 N 0.88997(9) 0.32214(6) 0.99850(14)
Ni2_2 Ni 0.769037(13) 0.417056(7) 0.40097(2)
C63_3 C 0.67746(14) 0.64255(8) 0.42087(19)
H46_3 H 0.6768 0.6390 0.4894
C64_3 C 0.64389(16) 0.67003(9) 0.3713(2)
H47_3 H 0.6185 0.6872 0.3996
C65_3 C 0.65681(14) 0.66592(9) 0.2725(2)
H48_3 H 0.6417 0.6799 0.2200
C66_3 C 0.69784(12) 0.63619(7) 0.26575(17)
C67_3 C 0.72218(10) 0.62172(7) 0.17880(16)
C68_3 C 0.76636(10) 0.59484(7) 0.17296(17)
C69_3 C 0.78794(11) 0.57792(7) 0.08439(18)
H49_3 H 0.7748 0.5818 0.0201
C70_3 C 0.83183(13) 0.55474(8) 0.11195(19)
H50_3 H 0.8544 0.5400 0.0705
C71_3 C 0.83555(12) 0.55792(7) 0.21565(18)
H51_3 H 0.8623 0.5452 0.2537
C72_3 C 0.69955(11) 0.63565(7) 0.08249(17)
C73_3 C 0.64439(12) 0.62826(9) 0.0566(2)
H52_3 H 0.6211 0.6155 0.1013
C77_3 C 0.73273(11) 0.65575(7) 0.01599(18)
H55_3 H 0.7696 0.6612 0.0327
N17_2 N 0.70971(9) 0.62244(6) 0.36118(15)
N18_2 N 0.79686(9) 0.58106(6) 0.25368(14)
N22_2 N 0.70971(9) 0.37756(6) 0.36118(15)
N23_2 N 0.79686(9) 0.41894(6) 0.25368(14)
C63_4 C 0.67746(14) 0.35745(8) 0.42087(19)
H46_4 H 0.6768 0.3610 0.4894
C64_4 C 0.64389(16) 0.32997(9) 0.3713(2)
H47_4 H 0.6185 0.3128 0.3996
C65_4 C 0.65681(14) 0.33408(9) 0.2725(2)
H48_4 H 0.6417 0.3201 0.2200
C66_4 C 0.69784(12) 0.36381(7) 0.26575(17)
C67_4 C 0.72218(10) 0.37828(7) 0.17880(16)
C68_4 C 0.76636(10) 0.40516(7) 0.17296(17)
C69_4 C 0.78794(11) 0.42208(7) 0.08439(18)
H49_4 H 0.7748 0.4182 0.0201
C70_4 C 0.83183(13) 0.44526(8) 0.11195(19)
H50_4 H 0.8544 0.4600 0.0705
C71_4 C 0.83555(12) 0.44208(7) 0.21565(18)
H51_4 H 0.8623 0.4548 0.2537
C72_4 C 0.69955(11) 0.36435(7) 0.08249(17)
C73_4 C 0.64439(12) 0.37174(9) 0.0566(2)
H52_4 H 0.6211 0.3845 0.1013
C77_4 C 0.73273(11) 0.34425(7) 0.01599(18)
H55_4 H 0.7696 0.3388 0.0327
C74_3 C 0.62341(12) 0.63969(9) 0.9643(2)
H53_3 H 0.5870 0.6336 0.9459
C75_3 C 0.65752(10) 0.66000(7) 0.90145(18)
C76_3 C 0.71213(11) 0.66787(7) 0.92530(17)
H54_3 H 0.7350 0.6812 0.8810
C78_3 C 0.66186(12) 0.67813(9) 0.71897(18)
H56_3 H 0.6986 0.6716 0.7039
C79_3 C 0.62366(11) 0.69393(8) 0.6578(2)
H57_3 H 0.6301 0.7002 0.5916
C80_3 C 0.58252(11) 0.68768(7) 0.79799(18)
H58_3 H 0.5562 0.6888 0.8488
N19_3 N 0.63479(9) 0.67370(6) 0.80900(15)
N20_3 N 0.57340(9) 0.69955(6) 0.70702(14)
Cd3_2 Cd 0.5000 0.738327(6) 0.657241(15)
C74_4 C 0.37659(12) 0.63969(9) 0.9643(2)
H53_4 H 0.4130 0.6336 0.9459
C75_4 C 0.34248(10) 0.66000(7) 0.90145(18)
C76_4 C 0.28787(11) 0.66787(7) 0.92530(17)
H54_4 H 0.2650 0.6812 0.8810
C78_4 C 0.33814(12) 0.67813(9) 0.71897(18)
H56_4 H 0.3014 0.6716 0.7039
C79_4 C 0.37634(11) 0.69393(8) 0.6578(2)
H57_4 H 0.3699 0.7002 0.5916
C80_4 C 0.41748(11) 0.68768(7) 0.79799(18)
H58_4 H 0.4438 0.6888 0.8488
N19_4 N 0.36521(9) 0.67370(6) 0.80900(15)
N20_4 N 0.42660(9) 0.69955(6) 0.70702(14)
C1_4 C 0.80508(11) 0.93955(8) 0.07735(19)
H1_4 H 0.8282 0.9543 0.0369
C2_4 C 0.81341(11) 0.93417(8) 0.18109(18)
H2_4 H 0.8421 0.9445 0.2197
C3_4 C 0.77112(11) 0.91096(7) 0.21251(19)
H3_4 H 0.7654 0.9023 0.2771
C4_4 C 0.73725(10) 0.90237(7) 0.12866(16)
C5_4 C 0.68937(10) 0.87874(6) 0.12600(16)
C6_4 C 0.65852(10) 0.86849(6) 0.04353(17)
C7_4 C 0.60821(11) 0.84586(7) 0.04009(19)
H4_4 H 0.5900 0.8350 0.0943
C10_4 C 0.66924(10) 0.86375(7) 0.22374(16)
C11_4 C 0.65393(10) 0.88926(7) 0.29938(17)
H7_4 H 0.6569 0.9157 0.2886
C12_4 C 0.63437(10) 0.87606(7) 0.39021(17)
H8_4 H 0.6240 0.8934 0.4398
C13_4 C 0.63055(10) 0.83646(6) 0.40581(18)
C14_4 C 0.64551(11) 0.81032(7) 0.33199(18)
H9_4 H 0.6429 0.7839 0.3433
C15_4 C 0.66438(11) 0.82430(7) 0.24098(17)
H10_4 H 0.6739 0.8070 0.1909
C16_4 C 0.61564(12) 0.83867(8) 0.59222(18)
H11_4 H 0.6341 0.8614 0.6084
C17_4 C 0.58867(11) 0.81470(7) 0.6543(2)
H12_4 H 0.5859 0.8183 0.7226
C18_4 C 0.57961(11) 0.78934(7) 0.51031(17)
H13_4 H 0.5698 0.7727 0.4589
H27_5 H 0.5601 1.0000 0.0105
N1_4 N 0.75978(9) 0.92073(5) 0.04551(14)
N3_4 N 0.61003(9) 0.82214(6) 0.49850(14)
N4_4 N 0.56584(9) 0.78421(6) 0.60382(14)
Cl1_6 Cl 0.5000 0.70937(2) 0.47769(6)
Cl2_6 Cl 0.5000 0.76967(2) 0.83432(6)
N21_2 N 0.43416(9) 0.78421(6) 0.60382(14)
H27_6 H 0.4399 1.0000 0.0105
C45_4 C 0.19492(11) 0.93955(8) 0.07735(19)
H33_4 H 0.1718 0.9543 0.0369
C46_4 C 0.18659(11) 0.93417(8) 0.18109(18)
H34_4 H 0.1579 0.9445 0.2197
C47_4 C 0.22888(11) 0.91096(7) 0.21251(19)
H35_4 H 0.2346 0.9023 0.2771
C48_4 C 0.26275(10) 0.90237(7) 0.12866(16)
C49_4 C 0.31063(10) 0.87874(6) 0.12600(16)
C50_4 C 0.34148(10) 0.86849(6) 0.04353(17)
C51_4 C 0.39179(11) 0.84586(7) 0.04009(19)
H36_4 H 0.4100 0.8350 0.0943
C54_4 C 0.33076(10) 0.86375(7) 0.22374(16)
C55_4 C 0.34607(10) 0.88926(7) 0.29938(17)
H39_4 H 0.3431 0.9157 0.2886
C56_4 C 0.36563(10) 0.87606(7) 0.39021(17)
H40_4 H 0.3760 0.8934 0.4398
C57_4 C 0.36945(10) 0.83646(6) 0.40581(18)
C58_4 C 0.35449(11) 0.81032(7) 0.33199(18)
H41_4 H 0.3571 0.7839 0.3433
C59_4 C 0.33562(11) 0.82430(7) 0.24098(17)
H42_4 H 0.3261 0.8070 0.1909
C60_4 C 0.38436(12) 0.83867(8) 0.59222(18)
H43_4 H 0.3659 0.8614 0.6084
C61_4 C 0.41133(11) 0.81470(7) 0.6543(2)
H44_4 H 0.4141 0.8183 0.7226
C62_4 C 0.42039(11) 0.78934(7) 0.51031(17)
H45_4 H 0.4302 0.7727 0.4589
N13_4 N 0.24022(9) 0.92073(5) 0.04551(14)
N15_4 N 0.38997(9) 0.82214(6) 0.49850(14)
loop_
_geom_bond_atom_site_label_1
_geom_bond_atom_site_label_2
_geom_bond_site_symmetry_1
_geom_bond_site_symmetry_2
C16 H11 1_555 1_555
C17 C16 1_555 1_555
H12 C17 1_555 1_555
C19 H14 1_555 1_555
C20 C19 1_555 1_555
H15 C20 1_555 1_555
C21 C20 1_555 1_555
H16 C21 1_555 1_555
C22 C21 1_555 1_555
C23 C22 1_555 1_555
C24 C23 1_555 1_555
C25 C24 1_555 1_555
H17 C25 1_555 1_555
C26 C25 1_555 1_555
H18 C26 1_555 1_555
C27 C26 1_555 1_555
H19 C27 1_555 1_555
C28 C23 1_555 1_555
C29 C28 1_555 1_555
H20 C29 1_555 1_555
C30 C29 1_555 1_555
H21 C30 1_555 1_555
C31 C30 1_555 1_555
C32 C31 1_555 1_555
H22 C32 1_555 1_555
C33 C28 1_555 1_555
H23 C33 1_555 1_555
C34 H24 1_555 1_555
C35 C34 1_555 1_555
H25 C35 1_555 1_555
C36 H26 1_555 1_555
N4 C17 1_555 1_555
N5 C19 1_555 1_555
N6 C24 1_555 1_555
N7 C31 1_555 1_555
N8 C35 1_555 1_555
Cl2 Cd1 1_555 1_555
Cd1 N4 1_555 1_555
C60 H43 1_555 1_555
C61 C60 1_555 1_555
H44 C61 1_555 1_555
N16 C61 1_555 1_555
Ni3 N5 1_555 1_555
Cd2 N16 1_555 1_555
C18 N4 1_555 1_555
C22 N5 1_555 1_555
C27 N6 1_555 1_555
C32 C33 1_555 1_555
C34 N7 1_555 1_555
C36 N7 1_555 1_555
C36 N8 1_555 1_555
N6 Ni3 1_555 1_555
N8 Cd1 1_555 1_555
C62 N16 1_555 1_555
Cl2_2 Cd2 1_555 1_555
N24 Cd2 1_555 1_555
C19_2 H14_2 1_555 1_555
C20_2 C19_2 1_555 1_555
H15_2 C20_2 1_555 1_555
C21_2 C20_2 1_555 1_555
H16_2 C21_2 1_555 1_555
C22_2 C21_2 1_555 1_555
C23_2 C22_2 1_555 1_555
C24_2 C23_2 1_555 1_555
C25_2 C24_2 1_555 1_555
H17_2 C25_2 1_555 1_555
C26_2 C25_2 1_555 1_555
H18_2 C26_2 1_555 1_555
C27_2 C26_2 1_555 1_555
H19_2 C27_2 1_555 1_555
C28_2 C23_2 1_555 1_555
C29_2 C28_2 1_555 1_555
H20_2 C29_2 1_555 1_555
C30_2 C29_2 1_555 1_555
H21_2 C30_2 1_555 1_555
C31_2 C30_2 1_555 1_555
C32_2 C31_2 1_555 1_555
H22_2 C32_2 1_555 1_555
C33_2 C28_2 1_555 1_555
H23_2 C33_2 1_555 1_555
C34_2 H24_2 1_555 1_555
C35_2 C34_2 1_555 1_555
H25_2 C35_2 1_555 1_555
C36_2 H26_2 1_555 1_555
N5_2 C19_2 1_555 1_555
N6_2 C24_2 1_555 1_555
N7_2 C31_2 1_555 1_555
N24 C35_2 1_555 1_555
Ni3_2 N5_2 1_555 1_555
C22_2 N5_2 1_555 1_555
C27_2 N6_2 1_555 1_555
C32_2 C33_2 1_555 1_555
C34_2 N7_2 1_555 1_555
C36_2 N7_2 1_555 1_555
C36_2 N24 1_555 1_555
N6_2 Ni3_2 1_555 1_555
H5 C8 1_555 1_555
C9 C8 1_555 1_555
H6 C9 1_555 1_555
C38 C37 1_555 1_555
H28 C38 1_555 1_555
C39 C40 1_555 1_555
C40 N9 1_555 1_555
C41 H29 1_555 1_555
C42 C41 1_555 1_555
H30 C42 1_555 1_555
N9 C41 1_555 1_555
N10 C38 1_555 1_555
C9 N2 1_555 1_555
C39 N10 1_555 1_555
N2 Ni3 1_555 1_555
N9 Ni3 1_555 1_555
N10 Ni3 1_555 1_555
C39_2 C40_2 1_555 1_555
H30_2 C42_2 1_555 1_555
C43 C37_2 1_555 1_555
H31 C43 1_555 1_555
C44 C42_2 1_555 1_555
H32 C44 1_555 1_555
N11 C40_2 1_555 1_555
N12 C39_2 1_555 1_555
H37 C52 1_555 1_555
C53 C52 1_555 1_555
H38 C53 1_555 1_555
Ni3_2 N11 1_555 1_555
C43 N12 1_555 1_555
C44 N11 1_555 1_555
N12 Ni3_2 1_555 1_555
C53 N14 1_555 1_555
N14 Ni3_2 1_555 1_555
C1 H1 1_555 1_555
C2 C1 1_555 1_555
H2 C2 1_555 1_555
C3 C2 1_555 1_555
H3 C3 1_555 1_555
C4 C3 1_555 1_555
C5 C4 1_555 1_555
C6 C5 1_555 1_555
C7 C6 1_555 1_555
H4 C7 1_555 1_555
C8_2 C7 1_555 1_555
H5_2 C8_2 1_555 1_555
C9_2 C8_2 1_555 1_555
H6_2 C9_2 1_555 1_555
C10 C5 1_555 1_555
C11 C10 1_555 1_555
H7 C11 1_555 1_555
C12 C11 1_555 1_555
H8 C12 1_555 1_555
C13 C12 1_555 1_555
C14 C13 1_555 1_555
H9 C14 1_555 1_555
C15 C10 1_555 1_555
H10 C15 1_555 1_555
C37_3 H27 1_555 1_555
C38_2 C37_3 1_555 1_555
H28_2 C38_2 1_555 1_555
C39_3 C40_3 1_555 1_555
C40_3 N9_2 1_555 1_555
C41_2 H29_2 1_555 1_555
C42_3 C41_2 1_555 1_555
H30_3 C42_3 1_555 1_555
N1 C1 1_555 1_555
N2_2 C6 1_555 1_555
N3 C13 1_555 1_555
N9_2 C41_2 1_555 1_555
N10_2 C38_2 1_555 1_555
Ni1 N1 1_555 1_555
C43_2 C37_3 1_555 1_555
H31_2 C43_2 1_555 1_555
C44_2 C42_3 1_555 1_555
H32_2 C44_2 1_555 1_555
N11_2 C40_3 1_555 1_555
N12_2 C39_3 1_555 1_555
C45 H33 1_555 1_555
C46 C45 1_555 1_555
H34 C46 1_555 1_555
C47 C46 1_555 1_555
H35 C47 1_555 1_555
C48 C47 1_555 1_555
C49 C48 1_555 1_555
C50 C49 1_555 1_555
C51 C50 1_555 1_555
H36 C51 1_555 1_555
C52_2 C51 1_555 1_555
H37_2 C52_2 1_555 1_555
C53_2 C52_2 1_555 1_555
H38_2 C53_2 1_555 1_555
C54 C49 1_555 1_555
C55 C54 1_555 1_555
H39 C55 1_555 1_555
C56 C55 1_555 1_555
H40 C56 1_555 1_555
C57 C56 1_555 1_555
C58 C57 1_555 1_555
H41 C58 1_555 1_555
C59 C54 1_555 1_555
H42 C59 1_555 1_555
N13 C45 1_555 1_555
N14_2 C50 1_555 1_555
N15 C57 1_555 1_555
Ni2 N11_2 1_555 1_555
C63 H46 1_555 1_555
C64 C63 1_555 1_555
H47 C64 1_555 1_555
C65 C64 1_555 1_555
H48 C65 1_555 1_555
C66 C65 1_555 1_555
C67 C66 1_555 1_555
C68 C67 1_555 1_555
C69 C68 1_555 1_555
H49 C69 1_555 1_555
C70 C69 1_555 1_555
H50 C70 1_555 1_555
C71 C70 1_555 1_555
H51 C71 1_555 1_555
C72 C67 1_555 1_555
C73 C72 1_555 1_555
H52 C73 1_555 1_555
C77 C72 1_555 1_555
H55 C77 1_555 1_555
N17 Ni1 1_555 1_555
N18 Ni1 1_555 1_555
N22 Ni2 1_555 1_555
N23 Ni2 1_555 1_555
C4 N1 1_555 1_555
C9_2 N2_2 1_555 1_555
C14 C15 1_555 1_555
C39_3 N10_2 1_555 1_555
N2_2 Ni1 1_555 1_555
N9_2 Ni1 1_555 1_555
N10_2 Ni1 1_555 1_555
C43_2 N12_2 1_555 1_555
C44_2 N11_2 1_555 1_555
N12_2 Ni2 1_555 1_555
C48 N13 1_555 1_555
C53_2 N14_2 1_555 1_555
C58 C59 1_555 1_555
N13 Ni2 1_555 1_555
N14_2 Ni2 1_555 1_555
C63 N17 1_555 1_555
C66 N17 1_555 1_555
C68 N18 1_555 1_555
C71 N18 1_555 1_555
C63_2 H46_2 1_555 1_555
C64_2 C63_2 1_555 1_555
H47_2 C64_2 1_555 1_555
C65_2 C64_2 1_555 1_555
H48_2 C65_2 1_555 1_555
C66_2 C65_2 1_555 1_555
C67_2 C66_2 1_555 1_555
C68_2 C67_2 1_555 1_555
C69_2 C68_2 1_555 1_555
H49_2 C69_2 1_555 1_555
C70_2 C69_2 1_555 1_555
H50_2 C70_2 1_555 1_555
C71_2 C70_2 1_555 1_555
H51_2 C71_2 1_555 1_555
C72_2 C67_2 1_555 1_555
C73_2 C72_2 1_555 1_555
H52_2 C73_2 1_555 1_555
C77_2 C72_2 1_555 1_555
H55_2 C77_2 1_555 1_555
C63_2 N22 1_555 1_555
C66_2 N22 1_555 1_555
C68_2 N23 1_555 1_555
C71_2 N23 1_555 1_555
H53 C74 1_555 1_555
C75 C74 1_555 1_555
C76 C75 1_555 1_555
H54 C76 1_555 1_555
C78 H56 1_555 1_555
C79 C78 1_555 1_555
H57 C79 1_555 1_555
C80 H58 1_555 1_555
N19 C75 1_555 1_555
N20 C79 1_555 1_555
Cd3 N20 1_555 1_555
C78 N19 1_555 1_555
C80 N19 1_555 1_555
C80 N20 1_555 1_555
H53_2 C74_2 1_555 1_555
C75_2 C74_2 1_555 1_555
C76_2 C75_2 1_555 1_555
H54_2 C76_2 1_555 1_555
C78_2 H56_2 1_555 1_555
C79_2 C78_2 1_555 1_555
H57_2 C79_2 1_555 1_555
C80_2 H58_2 1_555 1_555
N19_2 C75_2 1_555 1_555
N20_2 C79_2 1_555 1_555
Cd3 N20_2 1_555 1_555
C78_2 N19_2 1_555 1_555
C80_2 N19_2 1_555 1_555
C80_2 N20_2 1_555 1_555
C45_2 H33_2 1_555 1_555
C46_2 C45_2 1_555 1_555
H34_2 C46_2 1_555 1_555
C47_2 C46_2 1_555 1_555
H35_2 C47_2 1_555 1_555
C48_2 C47_2 1_555 1_555
C49_2 C48_2 1_555 1_555
C50_2 C49_2 1_555 1_555
C51_2 C50_2 1_555 1_555
H36_2 C51_2 1_555 1_555
C54_2 C49_2 1_555 1_555
C55_2 C54_2 1_555 1_555
H39_2 C55_2 1_555 1_555
C56_2 C55_2 1_555 1_555
H40_2 C56_2 1_555 1_555
C57_2 C56_2 1_555 1_555
C58_2 C57_2 1_555 1_555
H41_2 C58_2 1_555 1_555
C59_2 C54_2 1_555 1_555
H42_2 C59_2 1_555 1_555
C60_2 H43_2 1_555 1_555
C61_2 C60_2 1_555 1_555
H44_2 C61_2 1_555 1_555
C62_2 H45_2 1_555 1_555
N13_2 C45_2 1_555 1_555
N15_2 C57_2 1_555 1_555
N16_2 C61_2 1_555 1_555
Cd3 N16_2 1_555 1_555
C48_2 N13_2 1_555 1_555
C58_2 C59_2 1_555 1_555
C60_2 N15_2 1_555 1_555
C62_2 N15_2 1_555 1_555
C62_2 N16_2 1_555 1_555
C1_2 H1_2 1_555 1_555
C2_2 C1_2 1_555 1_555
H2_2 C2_2 1_555 1_555
C3_2 C2_2 1_555 1_555
H3_2 C3_2 1_555 1_555
C4_2 C3_2 1_555 1_555
C5_2 C4_2 1_555 1_555
C6_2 C5_2 1_555 1_555
C7_2 C6_2 1_555 1_555
H4_2 C7_2 1_555 1_555
C10_2 C5_2 1_555 1_555
C11_2 C10_2 1_555 1_555
H7_2 C11_2 1_555 1_555
C12_2 C11_2 1_555 1_555
H8_2 C12_2 1_555 1_555
C13_2 C12_2 1_555 1_555
C14_2 C13_2 1_555 1_555
H9_2 C14_2 1_555 1_555
C15_2 C10_2 1_555 1_555
H10_2 C15_2 1_555 1_555
C16_2 H11_2 1_555 1_555
C17_2 C16_2 1_555 1_555
H12_2 C17_2 1_555 1_555
C18_2 H13_2 1_555 1_555
N1_2 C1_2 1_555 1_555
N3_2 C13_2 1_555 1_555
N4_2 C17_2 1_555 1_555
Cl1_3 Cd3 1_555 1_555
Cl2_3 Cd3 1_555 1_555
Cd3 N4_2 1_555 1_555
C4_2 N1_2 1_555 1_555
C14_2 C15_2 1_555 1_555
C16_2 N3_2 1_555 1_555
C18_2 N3_2 1_555 1_555
C18_2 N4_2 1_555 1_555
Cl2_4 Cd1_2 1_555 1_555
N21 Cd1_2 1_555 1_555
N24_2 Cd1_2 1_555 1_555
C16_3 H11_3 1_555 1_555
C17_3 C16_3 1_555 1_555
H12_3 C17_3 1_555 1_555
C19_3 H14_3 1_555 1_555
C20_3 C19_3 1_555 1_555
H15_3 C20_3 1_555 1_555
C21_3 C20_3 1_555 1_555
H16_3 C21_3 1_555 1_555
C22_3 C21_3 1_555 1_555
C23_3 C22_3 1_555 1_555
C24_3 C23_3 1_555 1_555
C25_3 C24_3 1_555 1_555
H17_3 C25_3 1_555 1_555
C26_3 C25_3 1_555 1_555
H18_3 C26_3 1_555 1_555
C27_3 C26_3 1_555 1_555
H19_3 C27_3 1_555 1_555
C28_3 C23_3 1_555 1_555
C29_3 C28_3 1_555 1_555
H20_3 C29_3 1_555 1_555
C30_3 C29_3 1_555 1_555
H21_3 C30_3 1_555 1_555
C31_3 C30_3 1_555 1_555
C32_3 C31_3 1_555 1_555
H22_3 C32_3 1_555 1_555
C33_3 C28_3 1_555 1_555
H23_3 C33_3 1_555 1_555
C34_3 H24_3 1_555 1_555
C35_3 C34_3 1_555 1_555
H25_3 C35_3 1_555 1_555
C36_3 H26_3 1_555 1_555
N4_3 C17_3 1_555 1_555
N5_3 C19_3 1_555 1_555
N6_3 C24_3 1_555 1_555
N7_3 C31_3 1_555 1_555
N8_2 C35_3 1_555 1_555
Cl2_5 Cd2_2 1_555 1_555
Cd2_2 N4_3 1_555 1_555
C60_3 H43_3 1_555 1_555
C61_3 C60_3 1_555 1_555
H44_3 C61_3 1_555 1_555
N21 C61_3 1_555 1_555
Ni3_3 N5_3 1_555 1_555
C18_3 N4_3 1_555 1_555
C22_3 N5_3 1_555 1_555
C27_3 N6_3 1_555 1_555
C32_3 C33_3 1_555 1_555
C34_3 N7_3 1_555 1_555
C36_3 N7_3 1_555 1_555
C36_3 N8_2 1_555 1_555
N6_3 Ni3_3 1_555 1_555
N8_2 Cd2_2 1_555 1_555
C62_3 N21 1_555 1_555
C19_4 H14_4 1_555 1_555
C20_4 C19_4 1_555 1_555
H15_4 C20_4 1_555 1_555
C21_4 C20_4 1_555 1_555
H16_4 C21_4 1_555 1_555
C22_4 C21_4 1_555 1_555
C23_4 C22_4 1_555 1_555
C24_4 C23_4 1_555 1_555
C25_4 C24_4 1_555 1_555
H17_4 C25_4 1_555 1_555
C26_4 C25_4 1_555 1_555
H18_4 C26_4 1_555 1_555
C27_4 C26_4 1_555 1_555
H19_4 C27_4 1_555 1_555
C28_4 C23_4 1_555 1_555
C29_4 C28_4 1_555 1_555
H20_4 C29_4 1_555 1_555
C30_4 C29_4 1_555 1_555
H21_4 C30_4 1_555 1_555
C31_4 C30_4 1_555 1_555
C32_4 C31_4 1_555 1_555
H22_4 C32_4 1_555 1_555
C33_4 C28_4 1_555 1_555
H23_4 C33_4 1_555 1_555
C34_4 H24_4 1_555 1_555
C35_4 C34_4 1_555 1_555
H25_4 C35_4 1_555 1_555
C36_4 H26_4 1_555 1_555
N5_4 C19_4 1_555 1_555
N6_4 C24_4 1_555 1_555
N7_4 C31_4 1_555 1_555
N24_2 C35_4 1_555 1_555
Ni3_4 N5_4 1_555 1_555
C22_4 N5_4 1_555 1_555
C27_4 N6_4 1_555 1_555
C32_4 C33_4 1_555 1_555
C34_4 N7_4 1_555 1_555
C36_4 N7_4 1_555 1_555
C36_4 N24_2 1_555 1_555
N6_4 Ni3_4 1_555 1_555
C39_4 C40_4 1_555 1_555
H30_4 C42_4 1_555 1_555
C43_3 C37_4 1_555 1_555
H31_3 C43_3 1_555 1_555
C44_3 C42_4 1_555 1_555
H32_3 C44_3 1_555 1_555
N11_3 C40_4 1_555 1_555
N12_3 C39_4 1_555 1_555
H37_3 C52_3 1_555 1_555
C53_3 C52_3 1_555 1_555
H38_3 C53_3 1_555 1_555
Ni3_4 N11_3 1_555 1_555
C43_3 N12_3 1_555 1_555
C44_3 N11_3 1_555 1_555
N12_3 Ni3_4 1_555 1_555
C53_3 N14_3 1_555 1_555
N14_3 Ni3_4 1_555 1_555
H5_3 C8_3 1_555 1_555
C9_3 C8_3 1_555 1_555
H6_3 C9_3 1_555 1_555
C38_3 C37_5 1_555 1_555
H28_3 C38_3 1_555 1_555
C39_5 C40_5 1_555 1_555
C40_5 N9_3 1_555 1_555
C41_3 H29_3 1_555 1_555
C42_5 C41_3 1_555 1_555
H30_5 C42_5 1_555 1_555
N9_3 C41_3 1_555 1_555
N10_3 C38_3 1_555 1_555
C9_3 N2_3 1_555 1_555
C39_5 N10_3 1_555 1_555
N2_3 Ni3_3 1_555 1_555
N9_3 Ni3_3 1_555 1_555
N10_3 Ni3_3 1_555 1_555
C1_3 H1_3 1_555 1_555
C2_3 C1_3 1_555 1_555
H2_3 C2_3 1_555 1_555
C3_3 C2_3 1_555 1_555
H3_3 C3_3 1_555 1_555
C4_3 C3_3 1_555 1_555
C5_3 C4_3 1_555 1_555
C6_3 C5_3 1_555 1_555
C7_3 C6_3 1_555 1_555
H4_3 C7_3 1_555 1_555
C8_4 C7_3 1_555 1_555
H5_4 C8_4 1_555 1_555
C9_4 C8_4 1_555 1_555
H6_4 C9_4 1_555 1_555
C10_3 C5_3 1_555 1_555
C11_3 C10_3 1_555 1_555
H7_3 C11_3 1_555 1_555
C12_3 C11_3 1_555 1_555
H8_3 C12_3 1_555 1_555
C13_3 C12_3 1_555 1_555
C14_3 C13_3 1_555 1_555
H9_3 C14_3 1_555 1_555
C15_3 C10_3 1_555 1_555
H10_3 C15_3 1_555 1_555
C37_6 H27_4 1_555 1_555
C38_4 C37_6 1_555 1_555
H28_4 C38_4 1_555 1_555
C39_6 C40_6 1_555 1_555
C40_6 N9_4 1_555 1_555
C41_4 H29_4 1_555 1_555
C42_6 C41_4 1_555 1_555
H30_6 C42_6 1_555 1_555
N1_3 C1_3 1_555 1_555
N2_4 C6_3 1_555 1_555
N3_3 C13_3 1_555 1_555
N9_4 C41_4 1_555 1_555
N10_4 C38_4 1_555 1_555
Ni1_2 N1_3 1_555 1_555
C43_4 C37_6 1_555 1_555
H31_4 C43_4 1_555 1_555
C44_4 C42_6 1_555 1_555
H32_4 C44_4 1_555 1_555
N11_4 C40_6 1_555 1_555
N12_4 C39_6 1_555 1_555
C45_3 H33_3 1_555 1_555
C46_3 C45_3 1_555 1_555
H34_3 C46_3 1_555 1_555
C47_3 C46_3 1_555 1_555
H35_3 C47_3 1_555 1_555
C48_3 C47_3 1_555 1_555
C49_3 C48_3 1_555 1_555
C50_3 C49_3 1_555 1_555
C51_3 C50_3 1_555 1_555
H36_3 C51_3 1_555 1_555
C52_4 C51_3 1_555 1_555
H37_4 C52_4 1_555 1_555
C53_4 C52_4 1_555 1_555
H38_4 C53_4 1_555 1_555
C54_3 C49_3 1_555 1_555
C55_3 C54_3 1_555 1_555
H39_3 C55_3 1_555 1_555
C56_3 C55_3 1_555 1_555
H40_3 C56_3 1_555 1_555
C57_3 C56_3 1_555 1_555
C58_3 C57_3 1_555 1_555
H41_3 C58_3 1_555 1_555
C59_3 C54_3 1_555 1_555
H42_3 C59_3 1_555 1_555
N13_3 C45_3 1_555 1_555
N14_4 C50_3 1_555 1_555
N15_3 C57_3 1_555 1_555
Ni2_2 N11_4 1_555 1_555
C63_3 H46_3 1_555 1_555
C64_3 C63_3 1_555 1_555
H47_3 C64_3 1_555 1_555
C65_3 C64_3 1_555 1_555
H48_3 C65_3 1_555 1_555
C66_3 C65_3 1_555 1_555
C67_3 C66_3 1_555 1_555
C68_3 C67_3 1_555 1_555
C69_3 C68_3 1_555 1_555
H49_3 C69_3 1_555 1_555
C70_3 C69_3 1_555 1_555
H50_3 C70_3 1_555 1_555
C71_3 C70_3 1_555 1_555
H51_3 C71_3 1_555 1_555
C72_3 C67_3 1_555 1_555
C73_3 C72_3 1_555 1_555
H52_3 C73_3 1_555 1_555
C77_3 C72_3 1_555 1_555
H55_3 C77_3 1_555 1_555
N17_2 Ni1_2 1_555 1_555
N18_2 Ni1_2 1_555 1_555
N22_2 Ni2_2 1_555 1_555
N23_2 Ni2_2 1_555 1_555
C4_3 N1_3 1_555 1_555
C9_4 N2_4 1_555 1_555
C14_3 C15_3 1_555 1_555
C39_6 N10_4 1_555 1_555
N2_4 Ni1_2 1_555 1_555
N9_4 Ni1_2 1_555 1_555
N10_4 Ni1_2 1_555 1_555
C43_4 N12_4 1_555 1_555
C44_4 N11_4 1_555 1_555
N12_4 Ni2_2 1_555 1_555
C48_3 N13_3 1_555 1_555
C53_4 N14_4 1_555 1_555
C58_3 C59_3 1_555 1_555
N13_3 Ni2_2 1_555 1_555
N14_4 Ni2_2 1_555 1_555
C63_3 N17_2 1_555 1_555
C66_3 N17_2 1_555 1_555
C68_3 N18_2 1_555 1_555
C71_3 N18_2 1_555 1_555
C63_4 H46_4 1_555 1_555
C64_4 C63_4 1_555 1_555
H47_4 C64_4 1_555 1_555
C65_4 C64_4 1_555 1_555
H48_4 C65_4 1_555 1_555
C66_4 C65_4 1_555 1_555
C67_4 C66_4 1_555 1_555
C68_4 C67_4 1_555 1_555
C69_4 C68_4 1_555 1_555
H49_4 C69_4 1_555 1_555
C70_4 C69_4 1_555 1_555
H50_4 C70_4 1_555 1_555
C71_4 C70_4 1_555 1_555
H51_4 C71_4 1_555 1_555
C72_4 C67_4 1_555 1_555
C73_4 C72_4 1_555 1_555
H52_4 C73_4 1_555 1_555
C77_4 C72_4 1_555 1_555
H55_4 C77_4 1_555 1_555
C63_4 N22_2 1_555 1_555
C66_4 N22_2 1_555 1_555
C68_4 N23_2 1_555 1_555
C71_4 N23_2 1_555 1_555
H53_3 C74_3 1_555 1_555
C75_3 C74_3 1_555 1_555
C76_3 C75_3 1_555 1_555
H54_3 C76_3 1_555 1_555
C78_3 H56_3 1_555 1_555
C79_3 C78_3 1_555 1_555
H57_3 C79_3 1_555 1_555
C80_3 H58_3 1_555 1_555
N19_3 C75_3 1_555 1_555
N20_3 C79_3 1_555 1_555
Cd3_2 N20_3 1_555 1_555
C78_3 N19_3 1_555 1_555
C80_3 N19_3 1_555 1_555
C80_3 N20_3 1_555 1_555
H53_4 C74_4 1_555 1_555
C75_4 C74_4 1_555 1_555
C76_4 C75_4 1_555 1_555
H54_4 C76_4 1_555 1_555
C78_4 H56_4 1_555 1_555
C79_4 C78_4 1_555 1_555
H57_4 C79_4 1_555 1_555
C80_4 H58_4 1_555 1_555
N19_4 C75_4 1_555 1_555
N20_4 C79_4 1_555 1_555
Cd3_2 N20_4 1_555 1_555
C78_4 N19_4 1_555 1_555
C80_4 N19_4 1_555 1_555
C80_4 N20_4 1_555 1_555
C1_4 H1_4 1_555 1_555
C2_4 C1_4 1_555 1_555
H2_4 C2_4 1_555 1_555
C3_4 C2_4 1_555 1_555
H3_4 C3_4 1_555 1_555
C4_4 C3_4 1_555 1_555
C5_4 C4_4 1_555 1_555
C6_4 C5_4 1_555 1_555
C7_4 C6_4 1_555 1_555
H4_4 C7_4 1_555 1_555
C10_4 C5_4 1_555 1_555
C11_4 C10_4 1_555 1_555
H7_4 C11_4 1_555 1_555
C12_4 C11_4 1_555 1_555
H8_4 C12_4 1_555 1_555
C13_4 C12_4 1_555 1_555
C14_4 C13_4 1_555 1_555
H9_4 C14_4 1_555 1_555
C15_4 C10_4 1_555 1_555
H10_4 C15_4 1_555 1_555
C16_4 H11_4 1_555 1_555
C17_4 C16_4 1_555 1_555
H12_4 C17_4 1_555 1_555
C18_4 H13_4 1_555 1_555
N1_4 C1_4 1_555 1_555
N3_4 C13_4 1_555 1_555
N4_4 C17_4 1_555 1_555
Cl1_6 Cd3_2 1_555 1_555
Cl2_6 Cd3_2 1_555 1_555
Cd3_2 N4_4 1_555 1_555
N21_2 Cd3_2 1_555 1_555
C4_4 N1_4 1_555 1_555
C14_4 C15_4 1_555 1_555
C16_4 N3_4 1_555 1_555
C18_4 N3_4 1_555 1_555
C18_4 N4_4 1_555 1_555
C45_4 H33_4 1_555 1_555
C46_4 C45_4 1_555 1_555
H34_4 C46_4 1_555 1_555
C47_4 C46_4 1_555 1_555
H35_4 C47_4 1_555 1_555
C48_4 C47_4 1_555 1_555
C49_4 C48_4 1_555 1_555
C50_4 C49_4 1_555 1_555
C51_4 C50_4 1_555 1_555
H36_4 C51_4 1_555 1_555
C54_4 C49_4 1_555 1_555
C55_4 C54_4 1_555 1_555
H39_4 C55_4 1_555 1_555
C56_4 C55_4 1_555 1_555
H40_4 C56_4 1_555 1_555
C57_4 C56_4 1_555 1_555
C58_4 C57_4 1_555 1_555
H41_4 C58_4 1_555 1_555
C59_4 C54_4 1_555 1_555
H42_4 C59_4 1_555 1_555
C60_4 H43_4 1_555 1_555
C61_4 C60_4 1_555 1_555
H44_4 C61_4 1_555 1_555
C62_4 H45_4 1_555 1_555
N13_4 C45_4 1_555 1_555
N15_4 C57_4 1_555 1_555
N21_2 C61_4 1_555 1_555
C48_4 N13_4 1_555 1_555
C58_4 C59_4 1_555 1_555
C60_4 N15_4 1_555 1_555
C62_4 N15_4 1_555 1_555
C62_4 N21_2 1_555 1_555

#END
