
###############################################################################
#
# This file contains modified crystal structure data generated from the
# MOF subset of the Cambridge Structural Database (CSD) v543 
# hosted by the Cambridge Crystallographic Data Centre (CCDC).
#
# This work is licensed under the Creative Commons
# Attribution-NonCommercial-ShareAlike 4.0 International License.
# To view a copy of this license, visit
# http://creativecommons.org/licenses/by-nc-sa/4.0/
# or send a letter to
# Creative Commons, PO Box 1866, Mountain View, CA 94042, USA.
#
# CIF created using the CSD Python API on 29 September 2022
# The structure has been converted into the P1 space group
# The structure has a 3D framework
# The original CSD entry POZHUI is in the cubic crystal system
# The framework has been calculated to contain at least 10.0% void space
# The void calculation uses a probe of radius 1.32A, grid spacing 0.4
# The framework is charged, counterions have been retained in the structure
# H atom positions have been added when not included in the experimental data
# Generated hydrogen atom positions removed from atoms on special positions
#
###############################################################################

data_POZHUI
_chemical_formula_moiety         '(C504 H1032 In48 Mg36 N192 O576 16+)n'
_symmetry_cell_setting           triclinic
_symmetry_space_group_name_H-M   'P 1'
_symmetry_Int_Tables_number      1
_space_group_name_Hall           'P 1'
loop_
_symmetry_equiv_pos_site_id
_symmetry_equiv_pos_as_xyz
1 x,y,z
_cell_length_a                   30.9840(2)
_cell_length_b                   30.9840(2)
_cell_length_c                   30.9840(2)
_cell_angle_alpha                90
_cell_angle_beta                 90
_cell_angle_gamma                90
_cell_volume                     29744.9
loop_
_atom_site_label
_atom_site_type_symbol
_atom_site_fract_x
_atom_site_fract_y
_atom_site_fract_z
In1 In 0.104396(8) 0.395604(8) 0.2500
N1 N 0.15239(10) 0.37804(9) 0.20259(10)
C1 C 0.18692(13) 0.39721(15) 0.18692(13)
H1 H 0.1990 0.4218 0.1990
C2 C 0.14508(12) 0.34317(12) 0.17605(13)
C3 C 0.10766(14) 0.31515(15) 0.18482(15)
O1 O 0.08258(9) 0.32539(9) 0.21453(9)
O2 O 0.10230(12) 0.28211(12) 0.16034(13)
N2 N 0.10498(9) 0.46446(10) 0.23328(9)
C4 C 0.08593(11) 0.47789(11) 0.19586(10)
O3 O 0.06846(10) 0.40778(10) 0.17593(9)
O4 O 0.05273(12) 0.45980(11) 0.12966(10)
C5 C 0.06810(13) 0.44607(13) 0.16549(11)
C6 C 0.11543(19) 0.5000 0.25472(16)
H2 H 0.1286 0.5000 0.2817
In2 In 0.2500 0.395604(8) 0.104396(8)
In3 In 0.104396(8) 0.604396(8) 0.2500
In4 In 0.104396(8) 0.2500 0.395604(8)
N3 N 0.20259(10) 0.37804(9) 0.15239(10)
N4 N 0.12196(9) 0.34761(10) 0.29741(10)
N5 N 0.12196(9) 0.29741(10) 0.34761(10)
N6 N 0.29741(10) 0.34761(10) 0.12196(9)
C7 C 0.10279(15) 0.31308(13) 0.31308(13)
H3 H 0.0782 0.3010 0.3010
C8 C 0.17605(13) 0.34317(12) 0.14508(12)
C9 C 0.15683(12) 0.35492(12) 0.32395(13)
C10 C 0.15683(12) 0.32395(13) 0.35492(12)
C11 C 0.18482(15) 0.31515(15) 0.10766(14)
C12 C 0.18485(15) 0.39234(14) 0.31518(15)
C13 C 0.18485(15) 0.31518(15) 0.39234(14)
O5 O 0.21453(9) 0.32539(9) 0.08258(9)
O6 O 0.17461(9) 0.41742(9) 0.28547(9)
O7 O 0.17461(9) 0.28547(9) 0.41742(9)
O8 O 0.28547(9) 0.41742(9) 0.17461(9)
O9 O 0.16034(13) 0.28211(12) 0.10230(12)
O10 O 0.21789(12) 0.39770(12) 0.33966(13)
O11 O 0.21789(12) 0.33966(13) 0.39770(12)
N7 N 0.10498(9) 0.53554(10) 0.23328(9)
N8 N 0.03554(10) 0.39502(9) 0.26672(9)
N10 N 0.23328(9) 0.46446(10) 0.10498(9)
N11 N 0.26672(9) 0.39502(9) 0.03554(10)
C14 C 0.08593(11) 0.52211(11) 0.19586(10)
C15 C 0.02211(11) 0.41407(11) 0.30414(10)
O12 O 0.06846(10) 0.59222(10) 0.17593(9)
O13 O 0.09222(10) 0.43154(10) 0.32407(9)
O15 O 0.32407(9) 0.43154(10) 0.09222(10)
O16 O 0.17593(9) 0.40778(10) 0.06846(10)
O17 O 0.05273(12) 0.54020(11) 0.12966(10)
O18 O 0.04020(11) 0.44727(12) 0.37034(10)
C17 C 0.06810(13) 0.55393(13) 0.16549(11)
C18 C 0.05393(13) 0.43190(13) 0.33451(11)
C20 C 0.0000 0.38457(19) 0.24528(16)
H4 H 0.0000 0.3714 0.2183
In5 In 0.895604(8) 0.395604(8) 0.2500
N9 N 0.96446(10) 0.39502(9) 0.26672(9)
C16 C 0.97789(11) 0.41407(11) 0.30414(10)
O14 O 0.90778(10) 0.43154(10) 0.32407(9)
O19 O 0.95980(11) 0.44727(12) 0.37034(10)
C19 C 0.94607(13) 0.43190(13) 0.33451(11)
C20_2 C 1.0000 0.38457(19) 0.24528(16)
H4_2 H 1.0000 0.3714 0.2183
N9_2 N 0.03554(10) 0.60498(9) 0.26672(9)
C16_2 C 0.02211(11) 0.58593(11) 0.30414(10)
O14_2 O 0.09222(10) 0.56846(10) 0.32407(9)
O19_2 O 0.04020(11) 0.55273(12) 0.37034(10)
C19_2 C 0.05393(13) 0.56810(13) 0.33451(11)
C20_3 C 0.0000 0.61543(19) 0.24528(16)
H4_3 H -0.0000 0.6286 0.2183
In1_2 In 0.895604(8) 0.604396(8) 0.2500
N1_2 N 0.84761(10) 0.62196(9) 0.20259(10)
C1_2 C 0.81308(13) 0.60279(15) 0.18692(13)
H1_2 H 0.8010 0.5782 0.1990
C2_2 C 0.85492(12) 0.65683(12) 0.17605(13)
C3_2 C 0.89234(14) 0.68485(15) 0.18482(15)
O1_2 O 0.91742(9) 0.67461(9) 0.21453(9)
O2_2 O 0.89770(12) 0.71789(12) 0.16034(13)
N2_2 N 0.89502(9) 0.53554(10) 0.23328(9)
C4_2 C 0.91407(11) 0.52211(11) 0.19586(10)
O3_2 O 0.93154(10) 0.59222(10) 0.17593(9)
O4_2 O 0.94727(12) 0.54020(11) 0.12966(10)
C5_2 C 0.93190(13) 0.55393(13) 0.16549(11)
C6_2 C 0.88457(19) 0.5000 0.25472(16)
H2_2 H 0.8714 0.5000 0.2817
In2_2 In 0.7500 0.604396(8) 0.104396(8)
In4_2 In 0.895604(8) 0.7500 0.395604(8)
N3_2 N 0.79741(10) 0.62196(9) 0.15239(10)
N4_2 N 0.87804(9) 0.65239(10) 0.29741(10)
N5_2 N 0.87804(9) 0.70259(10) 0.34761(10)
N6_2 N 0.70259(10) 0.65239(10) 0.12196(9)
C7_2 C 0.89721(15) 0.68692(13) 0.31308(13)
H3_2 H 0.9218 0.6990 0.3010
C8_2 C 0.82395(13) 0.65683(12) 0.14508(12)
C9_2 C 0.84317(12) 0.64508(12) 0.32395(13)
C10_2 C 0.84317(12) 0.67605(13) 0.35492(12)
C11_2 C 0.81518(15) 0.68485(15) 0.10766(14)
C12_2 C 0.81515(15) 0.60766(14) 0.31518(15)
C13_2 C 0.81515(15) 0.68482(15) 0.39234(14)
O5_2 O 0.78547(9) 0.67461(9) 0.08258(9)
O6_2 O 0.82539(9) 0.58258(9) 0.28547(9)
O7_2 O 0.82539(9) 0.71453(9) 0.41742(9)
O8_2 O 0.71453(9) 0.58258(9) 0.17461(9)
O9_2 O 0.83966(13) 0.71789(12) 0.10230(12)
O10_2 O 0.78211(12) 0.60230(12) 0.33966(13)
O11_2 O 0.78211(12) 0.66034(13) 0.39770(12)
N7_2 N 0.89502(9) 0.46446(10) 0.23328(9)
N8_2 N 0.96446(10) 0.60498(9) 0.26672(9)
N10_2 N 0.76672(9) 0.53554(10) 0.10498(9)
N11_2 N 0.73328(9) 0.60498(9) 0.03554(10)
C14_2 C 0.91407(11) 0.47789(11) 0.19586(10)
C15_2 C 0.97789(11) 0.58593(11) 0.30414(10)
O12_2 O 0.93154(10) 0.40778(10) 0.17593(9)
O13_2 O 0.90778(10) 0.56846(10) 0.32407(9)
O15_2 O 0.67593(9) 0.56846(10) 0.09222(10)
O16_2 O 0.82407(9) 0.59222(10) 0.06846(10)
O17_2 O 0.94727(12) 0.45980(11) 0.12966(10)
O18_2 O 0.95980(11) 0.55273(12) 0.37034(10)
C17_2 C 0.93190(13) 0.44607(13) 0.16549(11)
C18_2 C 0.94607(13) 0.56810(13) 0.33451(11)
C20_4 C 1.0000 0.61543(19) 0.24528(16)
H4_4 H 1.0000 0.6286 0.2183
In5_2 In 0.104396(8) 0.395604(8) 0.7500
N9_3 N 0.03554(10) 0.39502(9) 0.73328(9)
C16_3 C 0.02211(11) 0.41407(11) 0.69586(10)
O14_3 O 0.09222(10) 0.43154(10) 0.67593(9)
O19_3 O 0.04020(11) 0.44727(12) 0.62966(10)
C19_3 C 0.05393(13) 0.43190(13) 0.66549(11)
C20_5 C 0.0000 0.38457(19) 0.75472(16)
H4_5 H -0.0000 0.3714 0.7817
In1_3 In 0.895604(8) 0.395604(8) 0.7500
N1_3 N 0.84761(10) 0.37804(9) 0.79741(10)
C1_3 C 0.81308(13) 0.39721(15) 0.81308(13)
H1_3 H 0.8010 0.4218 0.8010
C2_3 C 0.85492(12) 0.34317(12) 0.82395(13)
C3_3 C 0.89234(14) 0.31515(15) 0.81518(15)
O1_3 O 0.91742(9) 0.32539(9) 0.78547(9)
O2_3 O 0.89770(12) 0.28211(12) 0.83966(13)
N2_3 N 0.89502(9) 0.46446(10) 0.76672(9)
C4_3 C 0.91407(11) 0.47789(11) 0.80414(10)
O3_3 O 0.93154(10) 0.40778(10) 0.82407(9)
O4_3 O 0.94727(12) 0.45980(11) 0.87034(10)
C5_3 C 0.93190(13) 0.44607(13) 0.83451(11)
C6_3 C 0.88457(19) 0.5000 0.74528(16)
H2_3 H 0.8714 0.5000 0.7183
In2_3 In 0.7500 0.395604(8) 0.895604(8)
In3_2 In 0.895604(8) 0.604396(8) 0.7500
In4_3 In 0.895604(8) 0.2500 0.604396(8)
N3_3 N 0.79741(10) 0.37804(9) 0.84761(10)
N4_3 N 0.87804(9) 0.34761(10) 0.70259(10)
N5_3 N 0.87804(9) 0.29741(10) 0.65239(10)
N6_3 N 0.70259(10) 0.34761(10) 0.87804(9)
C7_3 C 0.89721(15) 0.31308(13) 0.68692(13)
H3_3 H 0.9218 0.3010 0.6990
C8_3 C 0.82395(13) 0.34317(12) 0.85492(12)
C9_3 C 0.84317(12) 0.35492(12) 0.67605(13)
C10_3 C 0.84317(12) 0.32395(13) 0.64508(12)
C11_3 C 0.81518(15) 0.31515(15) 0.89234(14)
C12_3 C 0.81515(15) 0.39234(14) 0.68482(15)
C13_3 C 0.81515(15) 0.31518(15) 0.60766(14)
O5_3 O 0.78547(9) 0.32539(9) 0.91742(9)
O6_3 O 0.82539(9) 0.41742(9) 0.71453(9)
O7_3 O 0.82539(9) 0.28547(9) 0.58258(9)
O8_3 O 0.71453(9) 0.41742(9) 0.82539(9)
O9_3 O 0.83966(13) 0.28211(12) 0.89770(12)
O10_3 O 0.78211(12) 0.39770(12) 0.66034(13)
O11_3 O 0.78211(12) 0.33966(13) 0.60230(12)
N7_3 N 0.89502(9) 0.53554(10) 0.76672(9)
N8_3 N 0.96446(10) 0.39502(9) 0.73328(9)
N10_3 N 0.76672(9) 0.46446(10) 0.89502(9)
N11_3 N 0.73328(9) 0.39502(9) 0.96446(10)
C14_3 C 0.91407(11) 0.52211(11) 0.80414(10)
C15_3 C 0.97789(11) 0.41407(11) 0.69586(10)
O12_3 O 0.93154(10) 0.59222(10) 0.82407(9)
O13_3 O 0.90778(10) 0.43154(10) 0.67593(9)
O15_3 O 0.67593(9) 0.43154(10) 0.90778(10)
O16_3 O 0.82407(9) 0.40778(10) 0.93154(10)
O17_3 O 0.94727(12) 0.54020(11) 0.87034(10)
O18_3 O 0.95980(11) 0.44727(12) 0.62966(10)
C17_3 C 0.93190(13) 0.55393(13) 0.83451(11)
C18_3 C 0.94607(13) 0.43190(13) 0.66549(11)
C20_6 C 1.0000 0.38457(19) 0.75472(16)
H4_6 H 1.0000 0.3714 0.7817
In1_4 In 0.104396(8) 0.604396(8) 0.7500
N1_4 N 0.15239(10) 0.62196(9) 0.79741(10)
C1_4 C 0.18692(13) 0.60279(15) 0.81308(13)
H1_4 H 0.1990 0.5782 0.8010
C2_4 C 0.14508(12) 0.65683(12) 0.82395(13)
C3_4 C 0.10766(14) 0.68485(15) 0.81518(15)
O1_4 O 0.08258(9) 0.67461(9) 0.78547(9)
O2_4 O 0.10230(12) 0.71789(12) 0.83966(13)
N2_4 N 0.10498(9) 0.53554(10) 0.76672(9)
C4_4 C 0.08593(11) 0.52211(11) 0.80414(10)
O3_4 O 0.06846(10) 0.59222(10) 0.82407(9)
O4_4 O 0.05273(12) 0.54020(11) 0.87034(10)
C5_4 C 0.06810(13) 0.55393(13) 0.83451(11)
C6_4 C 0.11543(19) 0.5000 0.74528(16)
H2_4 H 0.1286 0.5000 0.7183
In2_4 In 0.2500 0.604396(8) 0.895604(8)
In4_4 In 0.104396(8) 0.7500 0.604396(8)
N3_4 N 0.20259(10) 0.62196(9) 0.84761(10)
N4_4 N 0.12196(9) 0.65239(10) 0.70259(10)
N5_4 N 0.12196(9) 0.70259(10) 0.65239(10)
N6_4 N 0.29741(10) 0.65239(10) 0.87804(9)
C7_4 C 0.10279(15) 0.68692(13) 0.68692(13)
H3_4 H 0.0782 0.6990 0.6990
C8_4 C 0.17605(13) 0.65683(12) 0.85492(12)
C9_4 C 0.15683(12) 0.64508(12) 0.67605(13)
C10_4 C 0.15683(12) 0.67605(13) 0.64508(12)
C11_4 C 0.18482(15) 0.68485(15) 0.89234(14)
C12_4 C 0.18485(15) 0.60766(14) 0.68482(15)
C13_4 C 0.18485(15) 0.68482(15) 0.60766(14)
O5_4 O 0.21453(9) 0.67461(9) 0.91742(9)
O6_4 O 0.17461(9) 0.58258(9) 0.71453(9)
O7_4 O 0.17461(9) 0.71453(9) 0.58258(9)
O8_4 O 0.28547(9) 0.58258(9) 0.82539(9)
O9_4 O 0.16034(13) 0.71789(12) 0.89770(12)
O10_4 O 0.21789(12) 0.60230(12) 0.66034(13)
O11_4 O 0.21789(12) 0.66034(13) 0.60230(12)
N7_4 N 0.10498(9) 0.46446(10) 0.76672(9)
N8_4 N 0.03554(10) 0.60498(9) 0.73328(9)
N10_4 N 0.23328(9) 0.53554(10) 0.89502(9)
N11_4 N 0.26672(9) 0.60498(9) 0.96446(10)
C14_4 C 0.08593(11) 0.47789(11) 0.80414(10)
C15_4 C 0.02211(11) 0.58593(11) 0.69586(10)
O12_4 O 0.06846(10) 0.40778(10) 0.82407(9)
O13_4 O 0.09222(10) 0.56846(10) 0.67593(9)
O15_4 O 0.32407(9) 0.56846(10) 0.90778(10)
O16_4 O 0.17593(9) 0.59222(10) 0.93154(10)
O17_4 O 0.05273(12) 0.45980(11) 0.87034(10)
O18_4 O 0.04020(11) 0.55273(12) 0.62966(10)
C17_4 C 0.06810(13) 0.44607(13) 0.83451(11)
C18_4 C 0.05393(13) 0.56810(13) 0.66549(11)
C20_7 C 0.0000 0.61543(19) 0.75472(16)
H4_7 H -0.0000 0.6286 0.7817
N9_4 N 0.96446(10) 0.60498(9) 0.73328(9)
C16_4 C 0.97789(11) 0.58593(11) 0.69586(10)
O14_4 O 0.90778(10) 0.56846(10) 0.67593(9)
O19_4 O 0.95980(11) 0.55273(12) 0.62966(10)
C19_4 C 0.94607(13) 0.56810(13) 0.66549(11)
C20_8 C 1.0000 0.61543(19) 0.75472(16)
H4_8 H 1.0000 0.6286 0.7817
In1_5 In 0.2500 0.104396(8) 0.395604(8)
N1_5 N 0.20259(10) 0.15239(10) 0.37804(9)
C1_5 C 0.18692(13) 0.18692(13) 0.39721(15)
H1_5 H 0.1990 0.1990 0.4218
C2_5 C 0.17605(13) 0.14508(12) 0.34317(12)
C3_5 C 0.18482(15) 0.10766(14) 0.31515(15)
O1_5 O 0.21453(9) 0.08258(9) 0.32539(9)
O2_5 O 0.16034(13) 0.10230(12) 0.28211(12)
N2_5 N 0.23328(9) 0.10498(9) 0.46446(10)
C4_5 C 0.19586(10) 0.08593(11) 0.47789(11)
O3_5 O 0.17593(9) 0.06846(10) 0.40778(10)
O4_5 O 0.12966(10) 0.05273(12) 0.45980(11)
C5_5 C 0.16549(11) 0.06810(13) 0.44607(13)
C6_5 C 0.25472(16) 0.11543(19) 0.5000
H2_5 H 0.2817 0.1286 0.5000
In3_3 In 0.2500 0.104396(8) 0.604396(8)
In4_5 In 0.395604(8) 0.104396(8) 0.2500
N3_5 N 0.15239(10) 0.20259(10) 0.37804(9)
N4_5 N 0.29741(10) 0.12196(9) 0.34761(10)
N5_5 N 0.34761(10) 0.12196(9) 0.29741(10)
C7_5 C 0.31308(13) 0.10279(15) 0.31308(13)
H3_5 H 0.3010 0.0782 0.3010
C8_5 C 0.14508(12) 0.17605(13) 0.34317(12)
C9_5 C 0.32395(13) 0.15683(12) 0.35492(12)
C10_5 C 0.35492(12) 0.15683(12) 0.32395(13)
C11_5 C 0.10766(14) 0.18482(15) 0.31515(15)
C12_5 C 0.31518(15) 0.18485(15) 0.39234(14)
C13_5 C 0.39234(14) 0.18485(15) 0.31518(15)
O5_5 O 0.08258(9) 0.21453(9) 0.32539(9)
O6_5 O 0.28547(9) 0.17461(9) 0.41742(9)
O7_5 O 0.41742(9) 0.17461(9) 0.28547(9)
O9_5 O 0.10230(12) 0.16034(13) 0.28211(12)
O10_5 O 0.33966(13) 0.21789(12) 0.39770(12)
O11_5 O 0.39770(12) 0.21789(12) 0.33966(13)
N7_5 N 0.23328(9) 0.10498(9) 0.53554(10)
N8_5 N 0.26672(9) 0.03554(10) 0.39502(9)
N10_5 N 0.10498(9) 0.23328(9) 0.46446(10)
N11_5 N 0.03554(10) 0.26672(9) 0.39502(9)
C14_5 C 0.19586(10) 0.08593(11) 0.52211(11)
C15_5 C 0.30414(10) 0.02211(11) 0.41407(11)
O12_5 O 0.17593(9) 0.06846(10) 0.59222(10)
O13_5 O 0.32407(9) 0.09222(10) 0.43154(10)
O15_5 O 0.09222(10) 0.32407(9) 0.43154(10)
O16_5 O 0.06846(10) 0.17593(9) 0.40778(10)
O17_5 O 0.12966(10) 0.05273(12) 0.54020(11)
O18_5 O 0.37034(10) 0.04020(11) 0.44727(12)
C17_5 C 0.16549(11) 0.06810(13) 0.55393(13)
C18_5 C 0.33451(11) 0.05393(13) 0.43190(13)
C20_9 C 0.24528(16) 0.0000 0.38457(19)
H4_9 H 0.2183 0.0000 0.3714
In5_3 In 0.2500 0.895604(8) 0.395604(8)
N9_5 N 0.26672(9) 0.96446(10) 0.39502(9)
C16_5 C 0.30414(10) 0.97789(11) 0.41407(11)
O14_5 O 0.32407(9) 0.90778(10) 0.43154(10)
O19_5 O 0.37034(10) 0.95980(11) 0.44727(12)
C19_5 C 0.33451(11) 0.94607(13) 0.43190(13)
C20_10 C 0.24528(16) 1.0000 0.38457(19)
H4_10 H 0.2183 1.0000 0.3714
N9_6 N 0.26672(9) 0.03554(10) 0.60498(9)
C16_6 C 0.30414(10) 0.02211(11) 0.58593(11)
O14_6 O 0.32407(9) 0.09222(10) 0.56846(10)
O19_6 O 0.37034(10) 0.04020(11) 0.55273(12)
C19_6 C 0.33451(11) 0.05393(13) 0.56810(13)
C20_11 C 0.24528(16) 0.0000 0.61543(19)
H4_11 H 0.2183 -0.0000 0.6286
In1_6 In 0.2500 0.895604(8) 0.604396(8)
N1_6 N 0.20259(10) 0.84761(10) 0.62196(9)
C1_6 C 0.18692(13) 0.81308(13) 0.60279(15)
H1_6 H 0.1990 0.8010 0.5782
C2_6 C 0.17605(13) 0.85492(12) 0.65683(12)
C3_6 C 0.18482(15) 0.89234(14) 0.68485(15)
O1_6 O 0.21453(9) 0.91742(9) 0.67461(9)
O2_6 O 0.16034(13) 0.89770(12) 0.71789(12)
N2_6 N 0.23328(9) 0.89502(9) 0.53554(10)
C4_6 C 0.19586(10) 0.91407(11) 0.52211(11)
O3_6 O 0.17593(9) 0.93154(10) 0.59222(10)
O4_6 O 0.12966(10) 0.94727(12) 0.54020(11)
C5_6 C 0.16549(11) 0.93190(13) 0.55393(13)
C6_6 C 0.25472(16) 0.88457(19) 0.5000
H2_6 H 0.2817 0.8714 0.5000
In4_6 In 0.395604(8) 0.895604(8) 0.7500
N3_6 N 0.15239(10) 0.79741(10) 0.62196(9)
N4_6 N 0.29741(10) 0.87804(9) 0.65239(10)
N5_6 N 0.34761(10) 0.87804(9) 0.70259(10)
C7_6 C 0.31308(13) 0.89721(15) 0.68692(13)
H3_6 H 0.3010 0.9218 0.6990
C8_6 C 0.14508(12) 0.82395(13) 0.65683(12)
C9_6 C 0.32395(13) 0.84317(12) 0.64508(12)
C10_6 C 0.35492(12) 0.84317(12) 0.67605(13)
C11_6 C 0.10766(14) 0.81518(15) 0.68485(15)
C12_6 C 0.31518(15) 0.81515(15) 0.60766(14)
C13_6 C 0.39234(14) 0.81515(15) 0.68482(15)
O5_6 O 0.08258(9) 0.78547(9) 0.67461(9)
O6_6 O 0.28547(9) 0.82539(9) 0.58258(9)
O7_6 O 0.41742(9) 0.82539(9) 0.71453(9)
O9_6 O 0.10230(12) 0.83966(13) 0.71789(12)
O10_6 O 0.33966(13) 0.78211(12) 0.60230(12)
O11_6 O 0.39770(12) 0.78211(12) 0.66034(13)
N7_6 N 0.23328(9) 0.89502(9) 0.46446(10)
N8_6 N 0.26672(9) 0.96446(10) 0.60498(9)
N10_6 N 0.10498(9) 0.76672(9) 0.53554(10)
N11_6 N 0.03554(10) 0.73328(9) 0.60498(9)
C14_6 C 0.19586(10) 0.91407(11) 0.47789(11)
C15_6 C 0.30414(10) 0.97789(11) 0.58593(11)
O12_6 O 0.17593(9) 0.93154(10) 0.40778(10)
O13_6 O 0.32407(9) 0.90778(10) 0.56846(10)
O15_6 O 0.09222(10) 0.67593(9) 0.56846(10)
O16_6 O 0.06846(10) 0.82407(9) 0.59222(10)
O17_6 O 0.12966(10) 0.94727(12) 0.45980(11)
O18_6 O 0.37034(10) 0.95980(11) 0.55273(12)
C17_6 C 0.16549(11) 0.93190(13) 0.44607(13)
C18_6 C 0.33451(11) 0.94607(13) 0.56810(13)
C20_12 C 0.24528(16) 1.0000 0.61543(19)
H4_12 H 0.2183 1.0000 0.6286
In5_4 In 0.7500 0.104396(8) 0.395604(8)
N9_7 N 0.73328(9) 0.03554(10) 0.39502(9)
C16_7 C 0.69586(10) 0.02211(11) 0.41407(11)
O14_7 O 0.67593(9) 0.09222(10) 0.43154(10)
O19_7 O 0.62966(10) 0.04020(11) 0.44727(12)
C19_7 C 0.66549(11) 0.05393(13) 0.43190(13)
C20_13 C 0.75472(16) -0.0000 0.38457(19)
H4_13 H 0.7817 0.0000 0.3714
In1_7 In 0.7500 0.895604(8) 0.395604(8)
N1_7 N 0.79741(10) 0.84761(10) 0.37804(9)
C1_7 C 0.81308(13) 0.81308(13) 0.39721(15)
H1_7 H 0.8010 0.8010 0.4218
C2_7 C 0.82395(13) 0.85492(12) 0.34317(12)
C3_7 C 0.81518(15) 0.89234(14) 0.31515(15)
O1_7 O 0.78547(9) 0.91742(9) 0.32539(9)
O2_7 O 0.83966(13) 0.89770(12) 0.28211(12)
N2_7 N 0.76672(9) 0.89502(9) 0.46446(10)
C4_7 C 0.80414(10) 0.91407(11) 0.47789(11)
O3_7 O 0.82407(9) 0.93154(10) 0.40778(10)
O4_7 O 0.87034(10) 0.94727(12) 0.45980(11)
C5_7 C 0.83451(11) 0.93190(13) 0.44607(13)
C6_7 C 0.74528(16) 0.88457(19) 0.5000
H2_7 H 0.7183 0.8714 0.5000
In3_4 In 0.7500 0.895604(8) 0.604396(8)
In4_7 In 0.604396(8) 0.895604(8) 0.2500
N3_7 N 0.84761(10) 0.79741(10) 0.37804(9)
N4_7 N 0.70259(10) 0.87804(9) 0.34761(10)
N5_7 N 0.65239(10) 0.87804(9) 0.29741(10)
C7_7 C 0.68692(13) 0.89721(15) 0.31308(13)
H3_7 H 0.6990 0.9218 0.3010
C8_7 C 0.85492(12) 0.82395(13) 0.34317(12)
C9_7 C 0.67605(13) 0.84317(12) 0.35492(12)
C10_7 C 0.64508(12) 0.84317(12) 0.32395(13)
C11_7 C 0.89234(14) 0.81518(15) 0.31515(15)
C12_7 C 0.68482(15) 0.81515(15) 0.39234(14)
C13_7 C 0.60766(14) 0.81515(15) 0.31518(15)
O5_7 O 0.91742(9) 0.78547(9) 0.32539(9)
O6_7 O 0.71453(9) 0.82539(9) 0.41742(9)
O7_7 O 0.58258(9) 0.82539(9) 0.28547(9)
O9_7 O 0.89770(12) 0.83966(13) 0.28211(12)
O10_7 O 0.66034(13) 0.78211(12) 0.39770(12)
O11_7 O 0.60230(12) 0.78211(12) 0.33966(13)
N7_7 N 0.76672(9) 0.89502(9) 0.53554(10)
N8_7 N 0.73328(9) 0.96446(10) 0.39502(9)
N10_7 N 0.89502(9) 0.76672(9) 0.46446(10)
N11_7 N 0.96446(10) 0.73328(9) 0.39502(9)
C14_7 C 0.80414(10) 0.91407(11) 0.52211(11)
C15_7 C 0.69586(10) 0.97789(11) 0.41407(11)
O12_7 O 0.82407(9) 0.93154(10) 0.59222(10)
O13_7 O 0.67593(9) 0.90778(10) 0.43154(10)
O15_7 O 0.90778(10) 0.67593(9) 0.43154(10)
O16_7 O 0.93154(10) 0.82407(9) 0.40778(10)
O17_7 O 0.87034(10) 0.94727(12) 0.54020(11)
O18_7 O 0.62966(10) 0.95980(11) 0.44727(12)
C17_7 C 0.83451(11) 0.93190(13) 0.55393(13)
C18_7 C 0.66549(11) 0.94607(13) 0.43190(13)
C20_14 C 0.75472(16) 1.0000 0.38457(19)
H4_14 H 0.7817 1.0000 0.3714
In1_8 In 0.7500 0.104396(8) 0.604396(8)
N1_8 N 0.79741(10) 0.15239(10) 0.62196(9)
C1_8 C 0.81308(13) 0.18692(13) 0.60279(15)
H1_8 H 0.8010 0.1990 0.5782
C2_8 C 0.82395(13) 0.14508(12) 0.65683(12)
C3_8 C 0.81518(15) 0.10766(14) 0.68485(15)
O1_8 O 0.78547(9) 0.08258(9) 0.67461(9)
O2_8 O 0.83966(13) 0.10230(12) 0.71789(12)
N2_8 N 0.76672(9) 0.10498(9) 0.53554(10)
C4_8 C 0.80414(10) 0.08593(11) 0.52211(11)
O3_8 O 0.82407(9) 0.06846(10) 0.59222(10)
O4_8 O 0.87034(10) 0.05273(12) 0.54020(11)
C5_8 C 0.83451(11) 0.06810(13) 0.55393(13)
C6_8 C 0.74528(16) 0.11543(19) 0.5000
H2_8 H 0.7183 0.1286 0.5000
In4_8 In 0.604396(8) 0.104396(8) 0.7500
N3_8 N 0.84761(10) 0.20259(10) 0.62196(9)
N4_8 N 0.70259(10) 0.12196(9) 0.65239(10)
N5_8 N 0.65239(10) 0.12196(9) 0.70259(10)
C7_8 C 0.68692(13) 0.10279(15) 0.68692(13)
H3_8 H 0.6990 0.0782 0.6990
C8_8 C 0.85492(12) 0.17605(13) 0.65683(12)
C9_8 C 0.67605(13) 0.15683(12) 0.64508(12)
C10_8 C 0.64508(12) 0.15683(12) 0.67605(13)
C11_8 C 0.89234(14) 0.18482(15) 0.68485(15)
C12_8 C 0.68482(15) 0.18485(15) 0.60766(14)
C13_8 C 0.60766(14) 0.18485(15) 0.68482(15)
O5_8 O 0.91742(9) 0.21453(9) 0.67461(9)
O6_8 O 0.71453(9) 0.17461(9) 0.58258(9)
O7_8 O 0.58258(9) 0.17461(9) 0.71453(9)
O9_8 O 0.89770(12) 0.16034(13) 0.71789(12)
O10_8 O 0.66034(13) 0.21789(12) 0.60230(12)
O11_8 O 0.60230(12) 0.21789(12) 0.66034(13)
N7_8 N 0.76672(9) 0.10498(9) 0.46446(10)
N8_8 N 0.73328(9) 0.03554(10) 0.60498(9)
N10_8 N 0.89502(9) 0.23328(9) 0.53554(10)
N11_8 N 0.96446(10) 0.26672(9) 0.60498(9)
C14_8 C 0.80414(10) 0.08593(11) 0.47789(11)
C15_8 C 0.69586(10) 0.02211(11) 0.58593(11)
O12_8 O 0.82407(9) 0.06846(10) 0.40778(10)
O13_8 O 0.67593(9) 0.09222(10) 0.56846(10)
O15_8 O 0.90778(10) 0.32407(9) 0.56846(10)
O16_8 O 0.93154(10) 0.17593(9) 0.59222(10)
O17_8 O 0.87034(10) 0.05273(12) 0.45980(11)
O18_8 O 0.62966(10) 0.04020(11) 0.55273(12)
C17_8 C 0.83451(11) 0.06810(13) 0.44607(13)
C18_8 C 0.66549(11) 0.05393(13) 0.56810(13)
C20_15 C 0.75472(16) 0.0000 0.61543(19)
H4_15 H 0.7817 -0.0000 0.6286
N9_8 N 0.73328(9) 0.96446(10) 0.60498(9)
C16_8 C 0.69586(10) 0.97789(11) 0.58593(11)
O14_8 O 0.67593(9) 0.90778(10) 0.56846(10)
O19_8 O 0.62966(10) 0.95980(11) 0.55273(12)
C19_8 C 0.66549(11) 0.94607(13) 0.56810(13)
C20_16 C 0.75472(16) 1.0000 0.61543(19)
H4_16 H 0.7817 1.0000 0.6286
In1_9 In 0.395604(8) 0.2500 0.104396(8)
N1_9 N 0.37804(9) 0.20259(10) 0.15239(10)
C1_9 C 0.39721(15) 0.18692(13) 0.18692(13)
H1_9 H 0.4218 0.1990 0.1990
C2_9 C 0.34317(12) 0.17605(13) 0.14508(12)
C3_9 C 0.31515(15) 0.18482(15) 0.10766(14)
O1_9 O 0.32539(9) 0.21453(9) 0.08258(9)
O2_9 O 0.28211(12) 0.16034(13) 0.10230(12)
N2_9 N 0.46446(10) 0.23328(9) 0.10498(9)
C4_9 C 0.47789(11) 0.19586(10) 0.08593(11)
O3_9 O 0.40778(10) 0.17593(9) 0.06846(10)
O4_9 O 0.45980(11) 0.12966(10) 0.05273(12)
C5_9 C 0.44607(13) 0.16549(11) 0.06810(13)
C6_9 C 0.5000 0.25472(16) 0.11543(19)
H2_9 H 0.5000 0.2817 0.1286
In3_5 In 0.604396(8) 0.2500 0.104396(8)
N3_9 N 0.37804(9) 0.15239(10) 0.20259(10)
N4_9 N 0.34761(10) 0.29741(10) 0.12196(9)
C7_9 C 0.31308(13) 0.31308(13) 0.10279(15)
H3_9 H 0.3010 0.3010 0.0782
C8_9 C 0.34317(12) 0.14508(12) 0.17605(13)
C9_9 C 0.35492(12) 0.32395(13) 0.15683(12)
C10_9 C 0.32395(13) 0.35492(12) 0.15683(12)
C11_9 C 0.31515(15) 0.10766(14) 0.18482(15)
C12_9 C 0.39234(14) 0.31518(15) 0.18485(15)
C13_9 C 0.31518(15) 0.39234(14) 0.18485(15)
O5_9 O 0.32539(9) 0.08258(9) 0.21453(9)
O6_9 O 0.41742(9) 0.28547(9) 0.17461(9)
O9_9 O 0.28211(12) 0.10230(12) 0.16034(13)
O10_9 O 0.39770(12) 0.33966(13) 0.21789(12)
O11_9 O 0.33966(13) 0.39770(12) 0.21789(12)
N7_9 N 0.53554(10) 0.23328(9) 0.10498(9)
N8_9 N 0.39502(9) 0.26672(9) 0.03554(10)
N10_9 N 0.46446(10) 0.10498(9) 0.23328(9)
N11_9 N 0.39502(9) 0.03554(10) 0.26672(9)
C14_9 C 0.52211(11) 0.19586(10) 0.08593(11)
C15_9 C 0.41407(11) 0.30414(10) 0.02211(11)
O12_9 O 0.59222(10) 0.17593(9) 0.06846(10)
O13_9 O 0.43154(10) 0.32407(9) 0.09222(10)
O15_9 O 0.43154(10) 0.09222(10) 0.32407(9)
O16_9 O 0.40778(10) 0.06846(10) 0.17593(9)
O17_9 O 0.54020(11) 0.12966(10) 0.05273(12)
O18_9 O 0.44727(12) 0.37034(10) 0.04020(11)
C17_9 C 0.55393(13) 0.16549(11) 0.06810(13)
C18_9 C 0.43190(13) 0.33451(11) 0.05393(13)
C20_17 C 0.38457(19) 0.24528(16) 0.0000
H4_17 H 0.3714 0.2183 0.0000
In5_5 In 0.395604(8) 0.2500 0.895604(8)
N9_9 N 0.39502(9) 0.26672(9) 0.96446(10)
C16_9 C 0.41407(11) 0.30414(10) 0.97789(11)
O14_9 O 0.43154(10) 0.32407(9) 0.90778(10)
O19_9 O 0.44727(12) 0.37034(10) 0.95980(11)
C19_9 C 0.43190(13) 0.33451(11) 0.94607(13)
C20_18 C 0.38457(19) 0.24528(16) 1.0000
H4_18 H 0.3714 0.2183 1.0000
N9_10 N 0.60498(9) 0.26672(9) 0.03554(10)
C16_10 C 0.58593(11) 0.30414(10) 0.02211(11)
O14_10 O 0.56846(10) 0.32407(9) 0.09222(10)
O19_10 O 0.55273(12) 0.37034(10) 0.04020(11)
C19_10 C 0.56810(13) 0.33451(11) 0.05393(13)
C20_19 C 0.61543(19) 0.24528(16) -0.0000
H4_19 H 0.6286 0.2183 0.0000
In1_10 In 0.604396(8) 0.2500 0.895604(8)
N1_10 N 0.62196(9) 0.20259(10) 0.84761(10)
C1_10 C 0.60279(15) 0.18692(13) 0.81308(13)
H1_10 H 0.5782 0.1990 0.8010
C2_10 C 0.65683(12) 0.17605(13) 0.85492(12)
C3_10 C 0.68485(15) 0.18482(15) 0.89234(14)
O1_10 O 0.67461(9) 0.21453(9) 0.91742(9)
O2_10 O 0.71789(12) 0.16034(13) 0.89770(12)
N2_10 N 0.53554(10) 0.23328(9) 0.89502(9)
C4_10 C 0.52211(11) 0.19586(10) 0.91407(11)
O3_10 O 0.59222(10) 0.17593(9) 0.93154(10)
O4_10 O 0.54020(11) 0.12966(10) 0.94727(12)
C5_10 C 0.55393(13) 0.16549(11) 0.93190(13)
C6_10 C 0.5000 0.25472(16) 0.88457(19)
H2_10 H 0.5000 0.2817 0.8714
N3_10 N 0.62196(9) 0.15239(10) 0.79741(10)
N4_10 N 0.65239(10) 0.29741(10) 0.87804(9)
C7_10 C 0.68692(13) 0.31308(13) 0.89721(15)
H3_10 H 0.6990 0.3010 0.9218
C8_10 C 0.65683(12) 0.14508(12) 0.82395(13)
C9_10 C 0.64508(12) 0.32395(13) 0.84317(12)
C10_10 C 0.67605(13) 0.35492(12) 0.84317(12)
C11_10 C 0.68485(15) 0.10766(14) 0.81518(15)
C12_10 C 0.60766(14) 0.31518(15) 0.81515(15)
C13_10 C 0.68482(15) 0.39234(14) 0.81515(15)
O5_10 O 0.67461(9) 0.08258(9) 0.78547(9)
O6_10 O 0.58258(9) 0.28547(9) 0.82539(9)
O9_10 O 0.71789(12) 0.10230(12) 0.83966(13)
O10_10 O 0.60230(12) 0.33966(13) 0.78211(12)
O11_10 O 0.66034(13) 0.39770(12) 0.78211(12)
N7_10 N 0.46446(10) 0.23328(9) 0.89502(9)
N8_10 N 0.60498(9) 0.26672(9) 0.96446(10)
N10_10 N 0.53554(10) 0.10498(9) 0.76672(9)
N11_10 N 0.60498(9) 0.03554(10) 0.73328(9)
C14_10 C 0.47789(11) 0.19586(10) 0.91407(11)
C15_10 C 0.58593(11) 0.30414(10) 0.97789(11)
O12_10 O 0.40778(10) 0.17593(9) 0.93154(10)
O13_10 O 0.56846(10) 0.32407(9) 0.90778(10)
O15_10 O 0.56846(10) 0.09222(10) 0.67593(9)
O16_10 O 0.59222(10) 0.06846(10) 0.82407(9)
O17_10 O 0.45980(11) 0.12966(10) 0.94727(12)
O18_10 O 0.55273(12) 0.37034(10) 0.95980(11)
C17_10 C 0.44607(13) 0.16549(11) 0.93190(13)
C18_10 C 0.56810(13) 0.33451(11) 0.94607(13)
C20_20 C 0.61543(19) 0.24528(16) 1.0000
H4_20 H 0.6286 0.2183 1.0000
In5_6 In 0.395604(8) 0.7500 0.104396(8)
N9_11 N 0.39502(9) 0.73328(9) 0.03554(10)
C16_11 C 0.41407(11) 0.69586(10) 0.02211(11)
O14_11 O 0.43154(10) 0.67593(9) 0.09222(10)
O19_11 O 0.44727(12) 0.62966(10) 0.04020(11)
C19_11 C 0.43190(13) 0.66549(11) 0.05393(13)
C20_21 C 0.38457(19) 0.75472(16) -0.0000
H4_21 H 0.3714 0.7817 0.0000
In1_11 In 0.395604(8) 0.7500 0.895604(8)
N1_11 N 0.37804(9) 0.79741(10) 0.84761(10)
C1_11 C 0.39721(15) 0.81308(13) 0.81308(13)
H1_11 H 0.4218 0.8010 0.8010
C2_11 C 0.34317(12) 0.82395(13) 0.85492(12)
C3_11 C 0.31515(15) 0.81518(15) 0.89234(14)
O1_11 O 0.32539(9) 0.78547(9) 0.91742(9)
O2_11 O 0.28211(12) 0.83966(13) 0.89770(12)
N2_11 N 0.46446(10) 0.76672(9) 0.89502(9)
C4_11 C 0.47789(11) 0.80414(10) 0.91407(11)
O3_11 O 0.40778(10) 0.82407(9) 0.93154(10)
O4_11 O 0.45980(11) 0.87034(10) 0.94727(12)
C5_11 C 0.44607(13) 0.83451(11) 0.93190(13)
C6_11 C 0.5000 0.74528(16) 0.88457(19)
H2_11 H 0.5000 0.7183 0.8714
In3_6 In 0.604396(8) 0.7500 0.895604(8)
N3_11 N 0.37804(9) 0.84761(10) 0.79741(10)
N4_11 N 0.34761(10) 0.70259(10) 0.87804(9)
C7_11 C 0.31308(13) 0.68692(13) 0.89721(15)
H3_11 H 0.3010 0.6990 0.9218
C8_11 C 0.34317(12) 0.85492(12) 0.82395(13)
C9_11 C 0.35492(12) 0.67605(13) 0.84317(12)
C10_11 C 0.32395(13) 0.64508(12) 0.84317(12)
C11_11 C 0.31515(15) 0.89234(14) 0.81518(15)
C12_11 C 0.39234(14) 0.68482(15) 0.81515(15)
C13_11 C 0.31518(15) 0.60766(14) 0.81515(15)
O5_11 O 0.32539(9) 0.91742(9) 0.78547(9)
O6_11 O 0.41742(9) 0.71453(9) 0.82539(9)
O9_11 O 0.28211(12) 0.89770(12) 0.83966(13)
O10_11 O 0.39770(12) 0.66034(13) 0.78211(12)
O11_11 O 0.33966(13) 0.60230(12) 0.78211(12)
N7_11 N 0.53554(10) 0.76672(9) 0.89502(9)
N8_11 N 0.39502(9) 0.73328(9) 0.96446(10)
N10_11 N 0.46446(10) 0.89502(9) 0.76672(9)
N11_11 N 0.39502(9) 0.96446(10) 0.73328(9)
C14_11 C 0.52211(11) 0.80414(10) 0.91407(11)
C15_11 C 0.41407(11) 0.69586(10) 0.97789(11)
O12_11 O 0.59222(10) 0.82407(9) 0.93154(10)
O13_11 O 0.43154(10) 0.67593(9) 0.90778(10)
O15_11 O 0.43154(10) 0.90778(10) 0.67593(9)
O16_11 O 0.40778(10) 0.93154(10) 0.82407(9)
O17_11 O 0.54020(11) 0.87034(10) 0.94727(12)
O18_11 O 0.44727(12) 0.62966(10) 0.95980(11)
C17_11 C 0.55393(13) 0.83451(11) 0.93190(13)
C18_11 C 0.43190(13) 0.66549(11) 0.94607(13)
C20_22 C 0.38457(19) 0.75472(16) 1.0000
H4_22 H 0.3714 0.7817 1.0000
In1_12 In 0.604396(8) 0.7500 0.104396(8)
N1_12 N 0.62196(9) 0.79741(10) 0.15239(10)
C1_12 C 0.60279(15) 0.81308(13) 0.18692(13)
H1_12 H 0.5782 0.8010 0.1990
C2_12 C 0.65683(12) 0.82395(13) 0.14508(12)
C3_12 C 0.68485(15) 0.81518(15) 0.10766(14)
O1_12 O 0.67461(9) 0.78547(9) 0.08258(9)
O2_12 O 0.71789(12) 0.83966(13) 0.10230(12)
N2_12 N 0.53554(10) 0.76672(9) 0.10498(9)
C4_12 C 0.52211(11) 0.80414(10) 0.08593(11)
O3_12 O 0.59222(10) 0.82407(9) 0.06846(10)
O4_12 O 0.54020(11) 0.87034(10) 0.05273(12)
C5_12 C 0.55393(13) 0.83451(11) 0.06810(13)
C6_12 C 0.5000 0.74528(16) 0.11543(19)
H2_12 H 0.5000 0.7183 0.1286
N3_12 N 0.62196(9) 0.84761(10) 0.20259(10)
N4_12 N 0.65239(10) 0.70259(10) 0.12196(9)
C7_12 C 0.68692(13) 0.68692(13) 0.10279(15)
H3_12 H 0.6990 0.6990 0.0782
C8_12 C 0.65683(12) 0.85492(12) 0.17605(13)
C9_12 C 0.64508(12) 0.67605(13) 0.15683(12)
C10_12 C 0.67605(13) 0.64508(12) 0.15683(12)
C11_12 C 0.68485(15) 0.89234(14) 0.18482(15)
C12_12 C 0.60766(14) 0.68482(15) 0.18485(15)
C13_12 C 0.68482(15) 0.60766(14) 0.18485(15)
O5_12 O 0.67461(9) 0.91742(9) 0.21453(9)
O6_12 O 0.58258(9) 0.71453(9) 0.17461(9)
O9_12 O 0.71789(12) 0.89770(12) 0.16034(13)
O10_12 O 0.60230(12) 0.66034(13) 0.21789(12)
O11_12 O 0.66034(13) 0.60230(12) 0.21789(12)
N7_12 N 0.46446(10) 0.76672(9) 0.10498(9)
N8_12 N 0.60498(9) 0.73328(9) 0.03554(10)
N10_12 N 0.53554(10) 0.89502(9) 0.23328(9)
N11_12 N 0.60498(9) 0.96446(10) 0.26672(9)
C14_12 C 0.47789(11) 0.80414(10) 0.08593(11)
C15_12 C 0.58593(11) 0.69586(10) 0.02211(11)
O12_12 O 0.40778(10) 0.82407(9) 0.06846(10)
O13_12 O 0.56846(10) 0.67593(9) 0.09222(10)
O15_12 O 0.56846(10) 0.90778(10) 0.32407(9)
O16_12 O 0.59222(10) 0.93154(10) 0.17593(9)
O17_12 O 0.45980(11) 0.87034(10) 0.05273(12)
O18_12 O 0.55273(12) 0.62966(10) 0.04020(11)
C17_12 C 0.44607(13) 0.83451(11) 0.06810(13)
C18_12 C 0.56810(13) 0.66549(11) 0.05393(13)
C20_23 C 0.61543(19) 0.75472(16) 0.0000
H4_23 H 0.6286 0.7817 0.0000
N9_12 N 0.60498(9) 0.73328(9) 0.96446(10)
C16_12 C 0.58593(11) 0.69586(10) 0.97789(11)
O14_12 O 0.56846(10) 0.67593(9) 0.90778(10)
O19_12 O 0.55273(12) 0.62966(10) 0.95980(11)
C19_12 C 0.56810(13) 0.66549(11) 0.94607(13)
C20_24 C 0.61543(19) 0.75472(16) 1.0000
H4_24 H 0.6286 0.7817 1.0000
In1_13 In 0.395604(8) 0.104396(8) 0.7500
N1_13 N 0.37804(9) 0.15239(10) 0.79741(10)
C1_13 C 0.39721(15) 0.18692(13) 0.81308(13)
H1_13 H 0.4218 0.1990 0.8010
C2_13 C 0.34317(12) 0.14508(12) 0.82395(13)
C3_13 C 0.31515(15) 0.10766(14) 0.81518(15)
O1_13 O 0.32539(9) 0.08258(9) 0.78547(9)
O2_13 O 0.28211(12) 0.10230(12) 0.83966(13)
N2_13 N 0.46446(10) 0.10498(9) 0.76672(9)
C4_13 C 0.47789(11) 0.08593(11) 0.80414(10)
O3_13 O 0.40778(10) 0.06846(10) 0.82407(9)
O4_13 O 0.45980(11) 0.05273(12) 0.87034(10)
C5_13 C 0.44607(13) 0.06810(13) 0.83451(11)
C6_13 C 0.5000 0.11543(19) 0.74528(16)
H2_13 H 0.5000 0.1286 0.7183
N3_13 N 0.37804(9) 0.20259(10) 0.84761(10)
N4_13 N 0.34761(10) 0.12196(9) 0.70259(10)
N5_9 N 0.29741(10) 0.12196(9) 0.65239(10)
N6_5 N 0.34761(10) 0.29741(10) 0.87804(9)
C7_13 C 0.31308(13) 0.10279(15) 0.68692(13)
H3_13 H 0.3010 0.0782 0.6990
C8_13 C 0.34317(12) 0.17605(13) 0.85492(12)
C9_13 C 0.35492(12) 0.15683(12) 0.67605(13)
C10_13 C 0.32395(13) 0.15683(12) 0.64508(12)
C11_13 C 0.31515(15) 0.18482(15) 0.89234(14)
C12_13 C 0.39234(14) 0.18485(15) 0.68482(15)
C13_13 C 0.31518(15) 0.18485(15) 0.60766(14)
O5_13 O 0.32539(9) 0.21453(9) 0.91742(9)
O6_13 O 0.41742(9) 0.17461(9) 0.71453(9)
O7_9 O 0.28547(9) 0.17461(9) 0.58258(9)
O8_5 O 0.41742(9) 0.28547(9) 0.82539(9)
O9_13 O 0.28211(12) 0.16034(13) 0.89770(12)
O10_13 O 0.39770(12) 0.21789(12) 0.66034(13)
O11_13 O 0.33966(13) 0.21789(12) 0.60230(12)
N8_13 N 0.39502(9) 0.03554(10) 0.73328(9)
C14_13 C 0.52211(11) 0.08593(11) 0.80414(10)
C15_13 C 0.41407(11) 0.02211(11) 0.69586(10)
O13_13 O 0.43154(10) 0.09222(10) 0.67593(9)
O17_13 O 0.54020(11) 0.05273(12) 0.87034(10)
O18_13 O 0.44727(12) 0.04020(11) 0.62966(10)
C17_13 C 0.55393(13) 0.06810(13) 0.83451(11)
C18_13 C 0.43190(13) 0.05393(13) 0.66549(11)
C20_25 C 0.38457(19) 0.0000 0.75472(16)
H4_25 H 0.3714 0.0000 0.7817
C16_13 C 0.41407(11) 0.97789(11) 0.69586(10)
O19_13 O 0.44727(12) 0.95980(11) 0.62966(10)
C19_13 C 0.43190(13) 0.94607(13) 0.66549(11)
C20_26 C 0.38457(19) 1.0000 0.75472(16)
H4_26 H 0.3714 1.0000 0.7817
C16_14 C 0.58593(11) 0.02211(11) 0.69586(10)
O19_14 O 0.55273(12) 0.04020(11) 0.62966(10)
C19_14 C 0.56810(13) 0.05393(13) 0.66549(11)
C20_27 C 0.61543(19) 0.0000 0.75472(16)
H4_27 H 0.6286 0.0000 0.7817
In1_14 In 0.604396(8) 0.895604(8) 0.7500
N1_14 N 0.62196(9) 0.84761(10) 0.79741(10)
C1_14 C 0.60279(15) 0.81308(13) 0.81308(13)
H1_14 H 0.5782 0.8010 0.8010
C2_14 C 0.65683(12) 0.85492(12) 0.82395(13)
C3_14 C 0.68485(15) 0.89234(14) 0.81518(15)
O1_14 O 0.67461(9) 0.91742(9) 0.78547(9)
O2_14 O 0.71789(12) 0.89770(12) 0.83966(13)
N2_14 N 0.53554(10) 0.89502(9) 0.76672(9)
C4_14 C 0.52211(11) 0.91407(11) 0.80414(10)
O3_14 O 0.59222(10) 0.93154(10) 0.82407(9)
O4_14 O 0.54020(11) 0.94727(12) 0.87034(10)
C5_14 C 0.55393(13) 0.93190(13) 0.83451(11)
C6_14 C 0.5000 0.88457(19) 0.74528(16)
H2_14 H 0.5000 0.8714 0.7183
N3_14 N 0.62196(9) 0.79741(10) 0.84761(10)
N4_14 N 0.65239(10) 0.87804(9) 0.70259(10)
N5_10 N 0.70259(10) 0.87804(9) 0.65239(10)
N6_6 N 0.65239(10) 0.70259(10) 0.87804(9)
C7_14 C 0.68692(13) 0.89721(15) 0.68692(13)
H3_14 H 0.6990 0.9218 0.6990
C8_14 C 0.65683(12) 0.82395(13) 0.85492(12)
C9_14 C 0.64508(12) 0.84317(12) 0.67605(13)
C10_14 C 0.67605(13) 0.84317(12) 0.64508(12)
C11_14 C 0.68485(15) 0.81518(15) 0.89234(14)
C12_14 C 0.60766(14) 0.81515(15) 0.68482(15)
C13_14 C 0.68482(15) 0.81515(15) 0.60766(14)
O5_14 O 0.67461(9) 0.78547(9) 0.91742(9)
O6_14 O 0.58258(9) 0.82539(9) 0.71453(9)
O7_10 O 0.71453(9) 0.82539(9) 0.58258(9)
O8_6 O 0.58258(9) 0.71453(9) 0.82539(9)
O9_14 O 0.71789(12) 0.83966(13) 0.89770(12)
O10_14 O 0.60230(12) 0.78211(12) 0.66034(13)
O11_14 O 0.66034(13) 0.78211(12) 0.60230(12)
N8_14 N 0.60498(9) 0.96446(10) 0.73328(9)
C14_14 C 0.47789(11) 0.91407(11) 0.80414(10)
C15_14 C 0.58593(11) 0.97789(11) 0.69586(10)
O13_14 O 0.56846(10) 0.90778(10) 0.67593(9)
O17_14 O 0.45980(11) 0.94727(12) 0.87034(10)
O18_14 O 0.55273(12) 0.95980(11) 0.62966(10)
C17_14 C 0.44607(13) 0.93190(13) 0.83451(11)
C18_14 C 0.56810(13) 0.94607(13) 0.66549(11)
C20_28 C 0.61543(19) 1.0000 0.75472(16)
H4_28 H 0.6286 1.0000 0.7817
C16_15 C 0.41407(11) 0.02211(11) 0.30414(10)
O19_15 O 0.44727(12) 0.04020(11) 0.37034(10)
C19_15 C 0.43190(13) 0.05393(13) 0.33451(11)
C20_29 C 0.38457(19) 0.0000 0.24528(16)
H4_29 H 0.3714 0.0000 0.2183
In1_15 In 0.395604(8) 0.895604(8) 0.2500
N1_15 N 0.37804(9) 0.84761(10) 0.20259(10)
C1_15 C 0.39721(15) 0.81308(13) 0.18692(13)
H1_15 H 0.4218 0.8010 0.1990
C2_15 C 0.34317(12) 0.85492(12) 0.17605(13)
C3_15 C 0.31515(15) 0.89234(14) 0.18482(15)
O1_15 O 0.32539(9) 0.91742(9) 0.21453(9)
O2_15 O 0.28211(12) 0.89770(12) 0.16034(13)
N2_15 N 0.46446(10) 0.89502(9) 0.23328(9)
C4_15 C 0.47789(11) 0.91407(11) 0.19586(10)
O3_15 O 0.40778(10) 0.93154(10) 0.17593(9)
O4_15 O 0.45980(11) 0.94727(12) 0.12966(10)
C5_15 C 0.44607(13) 0.93190(13) 0.16549(11)
C6_15 C 0.5000 0.88457(19) 0.25472(16)
H2_15 H 0.5000 0.8714 0.2817
N3_15 N 0.37804(9) 0.79741(10) 0.15239(10)
N4_15 N 0.34761(10) 0.87804(9) 0.29741(10)
N5_11 N 0.29741(10) 0.87804(9) 0.34761(10)
N6_7 N 0.34761(10) 0.70259(10) 0.12196(9)
C7_15 C 0.31308(13) 0.89721(15) 0.31308(13)
H3_15 H 0.3010 0.9218 0.3010
C8_15 C 0.34317(12) 0.82395(13) 0.14508(12)
C9_15 C 0.35492(12) 0.84317(12) 0.32395(13)
C10_15 C 0.32395(13) 0.84317(12) 0.35492(12)
C11_15 C 0.31515(15) 0.81518(15) 0.10766(14)
C12_15 C 0.39234(14) 0.81515(15) 0.31518(15)
C13_15 C 0.31518(15) 0.81515(15) 0.39234(14)
O5_15 O 0.32539(9) 0.78547(9) 0.08258(9)
O6_15 O 0.41742(9) 0.82539(9) 0.28547(9)
O7_11 O 0.28547(9) 0.82539(9) 0.41742(9)
O8_7 O 0.41742(9) 0.71453(9) 0.17461(9)
O9_15 O 0.28211(12) 0.83966(13) 0.10230(12)
O10_15 O 0.39770(12) 0.78211(12) 0.33966(13)
O11_15 O 0.33966(13) 0.78211(12) 0.39770(12)
N8_15 N 0.39502(9) 0.96446(10) 0.26672(9)
C14_15 C 0.52211(11) 0.91407(11) 0.19586(10)
C15_15 C 0.41407(11) 0.97789(11) 0.30414(10)
O13_15 O 0.43154(10) 0.90778(10) 0.32407(9)
O17_15 O 0.54020(11) 0.94727(12) 0.12966(10)
O18_15 O 0.44727(12) 0.95980(11) 0.37034(10)
C17_15 C 0.55393(13) 0.93190(13) 0.16549(11)
C18_15 C 0.43190(13) 0.94607(13) 0.33451(11)
C20_30 C 0.38457(19) 1.0000 0.24528(16)
H4_30 H 0.3714 1.0000 0.2183
In1_16 In 0.604396(8) 0.104396(8) 0.2500
N1_16 N 0.62196(9) 0.15239(10) 0.20259(10)
C1_16 C 0.60279(15) 0.18692(13) 0.18692(13)
H1_16 H 0.5782 0.1990 0.1990
C2_16 C 0.65683(12) 0.14508(12) 0.17605(13)
C3_16 C 0.68485(15) 0.10766(14) 0.18482(15)
O1_16 O 0.67461(9) 0.08258(9) 0.21453(9)
O2_16 O 0.71789(12) 0.10230(12) 0.16034(13)
N2_16 N 0.53554(10) 0.10498(9) 0.23328(9)
C4_16 C 0.52211(11) 0.08593(11) 0.19586(10)
O3_16 O 0.59222(10) 0.06846(10) 0.17593(9)
O4_16 O 0.54020(11) 0.05273(12) 0.12966(10)
C5_16 C 0.55393(13) 0.06810(13) 0.16549(11)
C6_16 C 0.5000 0.11543(19) 0.25472(16)
H2_16 H 0.5000 0.1286 0.2817
N3_16 N 0.62196(9) 0.20259(10) 0.15239(10)
N4_16 N 0.65239(10) 0.12196(9) 0.29741(10)
N5_12 N 0.70259(10) 0.12196(9) 0.34761(10)
N6_8 N 0.65239(10) 0.29741(10) 0.12196(9)
C7_16 C 0.68692(13) 0.10279(15) 0.31308(13)
H3_16 H 0.6990 0.0782 0.3010
C8_16 C 0.65683(12) 0.17605(13) 0.14508(12)
C9_16 C 0.64508(12) 0.15683(12) 0.32395(13)
C10_16 C 0.67605(13) 0.15683(12) 0.35492(12)
C11_16 C 0.68485(15) 0.18482(15) 0.10766(14)
C12_16 C 0.60766(14) 0.18485(15) 0.31518(15)
C13_16 C 0.68482(15) 0.18485(15) 0.39234(14)
O5_16 O 0.67461(9) 0.21453(9) 0.08258(9)
O6_16 O 0.58258(9) 0.17461(9) 0.28547(9)
O7_12 O 0.71453(9) 0.17461(9) 0.41742(9)
O8_8 O 0.58258(9) 0.28547(9) 0.17461(9)
O9_16 O 0.71789(12) 0.16034(13) 0.10230(12)
O10_16 O 0.60230(12) 0.21789(12) 0.33966(13)
O11_16 O 0.66034(13) 0.21789(12) 0.39770(12)
N8_16 N 0.60498(9) 0.03554(10) 0.26672(9)
C14_16 C 0.47789(11) 0.08593(11) 0.19586(10)
C15_16 C 0.58593(11) 0.02211(11) 0.30414(10)
O13_16 O 0.56846(10) 0.09222(10) 0.32407(9)
O17_16 O 0.45980(11) 0.05273(12) 0.12966(10)
O18_16 O 0.55273(12) 0.04020(11) 0.37034(10)
C17_16 C 0.44607(13) 0.06810(13) 0.16549(11)
C18_16 C 0.56810(13) 0.05393(13) 0.33451(11)
C20_31 C 0.61543(19) 0.0000 0.24528(16)
H4_31 H 0.6286 0.0000 0.2183
C16_16 C 0.58593(11) 0.97789(11) 0.30414(10)
O19_16 O 0.55273(12) 0.95980(11) 0.37034(10)
C19_16 C 0.56810(13) 0.94607(13) 0.33451(11)
C20_32 C 0.61543(19) 1.0000 0.24528(16)
H4_32 H 0.6286 1.0000 0.2183
In1_17 In 0.104396(8) 0.2500 0.604396(8)
N1_17 N 0.15239(10) 0.20259(10) 0.62196(9)
C1_17 C 0.18692(13) 0.18692(13) 0.60279(15)
H1_17 H 0.1990 0.1990 0.5782
C2_17 C 0.14508(12) 0.17605(13) 0.65683(12)
C3_17 C 0.10766(14) 0.18482(15) 0.68485(15)
O1_17 O 0.08258(9) 0.21453(9) 0.67461(9)
O2_17 O 0.10230(12) 0.16034(13) 0.71789(12)
N2_17 N 0.10498(9) 0.23328(9) 0.53554(10)
C4_17 C 0.08593(11) 0.19586(10) 0.52211(11)
O3_17 O 0.06846(10) 0.17593(9) 0.59222(10)
O4_17 O 0.05273(12) 0.12966(10) 0.54020(11)
C5_17 C 0.06810(13) 0.16549(11) 0.55393(13)
C6_17 C 0.11543(19) 0.25472(16) 0.5000
H2_17 H 0.1286 0.2817 0.5000
N3_17 N 0.20259(10) 0.15239(10) 0.62196(9)
N4_17 N 0.12196(9) 0.29741(10) 0.65239(10)
N5_13 N 0.12196(9) 0.34761(10) 0.70259(10)
C7_17 C 0.10279(15) 0.31308(13) 0.68692(13)
H3_17 H 0.0782 0.3010 0.6990
C8_17 C 0.17605(13) 0.14508(12) 0.65683(12)
C9_17 C 0.15683(12) 0.32395(13) 0.64508(12)
C10_17 C 0.15683(12) 0.35492(12) 0.67605(13)
C11_17 C 0.18482(15) 0.10766(14) 0.68485(15)
C12_17 C 0.18485(15) 0.31518(15) 0.60766(14)
C13_17 C 0.18485(15) 0.39234(14) 0.68482(15)
O5_17 O 0.21453(9) 0.08258(9) 0.67461(9)
O6_17 O 0.17461(9) 0.28547(9) 0.58258(9)
O7_13 O 0.17461(9) 0.41742(9) 0.71453(9)
O9_17 O 0.16034(13) 0.10230(12) 0.71789(12)
O10_17 O 0.21789(12) 0.33966(13) 0.60230(12)
O11_17 O 0.21789(12) 0.39770(12) 0.66034(13)
N8_17 N 0.03554(10) 0.26672(9) 0.60498(9)
C14_17 C 0.08593(11) 0.19586(10) 0.47789(11)
C15_17 C 0.02211(11) 0.30414(10) 0.58593(11)
O13_17 O 0.09222(10) 0.32407(9) 0.56846(10)
O17_17 O 0.05273(12) 0.12966(10) 0.45980(11)
O18_17 O 0.04020(11) 0.37034(10) 0.55273(12)
C17_17 C 0.06810(13) 0.16549(11) 0.44607(13)
C18_17 C 0.05393(13) 0.33451(11) 0.56810(13)
C20_33 C 0.0000 0.24528(16) 0.61543(19)
H4_33 H -0.0000 0.2183 0.6286
C16_17 C 0.97789(11) 0.30414(10) 0.58593(11)
O19_17 O 0.95980(11) 0.37034(10) 0.55273(12)
C19_17 C 0.94607(13) 0.33451(11) 0.56810(13)
C20_34 C 1.0000 0.24528(16) 0.61543(19)
H4_34 H 1.0000 0.2183 0.6286
C16_18 C 0.02211(11) 0.30414(10) 0.41407(11)
O19_18 O 0.04020(11) 0.37034(10) 0.44727(12)
C19_18 C 0.05393(13) 0.33451(11) 0.43190(13)
C20_35 C -0.0000 0.24528(16) 0.38457(19)
H4_35 H 0.0000 0.2183 0.3714
In1_18 In 0.895604(8) 0.2500 0.395604(8)
N1_18 N 0.84761(10) 0.20259(10) 0.37804(9)
C1_18 C 0.81308(13) 0.18692(13) 0.39721(15)
H1_18 H 0.8010 0.1990 0.4218
C2_18 C 0.85492(12) 0.17605(13) 0.34317(12)
C3_18 C 0.89234(14) 0.18482(15) 0.31515(15)
O1_18 O 0.91742(9) 0.21453(9) 0.32539(9)
O2_18 O 0.89770(12) 0.16034(13) 0.28211(12)
N2_18 N 0.89502(9) 0.23328(9) 0.46446(10)
C4_18 C 0.91407(11) 0.19586(10) 0.47789(11)
O3_18 O 0.93154(10) 0.17593(9) 0.40778(10)
O4_18 O 0.94727(12) 0.12966(10) 0.45980(11)
C5_18 C 0.93190(13) 0.16549(11) 0.44607(13)
C6_18 C 0.88457(19) 0.25472(16) 0.5000
H2_18 H 0.8714 0.2817 0.5000
N3_18 N 0.79741(10) 0.15239(10) 0.37804(9)
N4_18 N 0.87804(9) 0.29741(10) 0.34761(10)
N5_14 N 0.87804(9) 0.34761(10) 0.29741(10)
C7_18 C 0.89721(15) 0.31308(13) 0.31308(13)
H3_18 H 0.9218 0.3010 0.3010
C8_18 C 0.82395(13) 0.14508(12) 0.34317(12)
C9_18 C 0.84317(12) 0.32395(13) 0.35492(12)
C10_18 C 0.84317(12) 0.35492(12) 0.32395(13)
C11_18 C 0.81518(15) 0.10766(14) 0.31515(15)
C12_18 C 0.81515(15) 0.31518(15) 0.39234(14)
C13_18 C 0.81515(15) 0.39234(14) 0.31518(15)
O5_18 O 0.78547(9) 0.08258(9) 0.32539(9)
O6_18 O 0.82539(9) 0.28547(9) 0.41742(9)
O7_14 O 0.82539(9) 0.41742(9) 0.28547(9)
O9_18 O 0.83966(13) 0.10230(12) 0.28211(12)
O10_18 O 0.78211(12) 0.33966(13) 0.39770(12)
O11_18 O 0.78211(12) 0.39770(12) 0.33966(13)
N8_18 N 0.96446(10) 0.26672(9) 0.39502(9)
C14_18 C 0.91407(11) 0.19586(10) 0.52211(11)
C15_18 C 0.97789(11) 0.30414(10) 0.41407(11)
O13_18 O 0.90778(10) 0.32407(9) 0.43154(10)
O17_18 O 0.94727(12) 0.12966(10) 0.54020(11)
O18_18 O 0.95980(11) 0.37034(10) 0.44727(12)
C17_18 C 0.93190(13) 0.16549(11) 0.55393(13)
C18_18 C 0.94607(13) 0.33451(11) 0.43190(13)
C20_36 C 1.0000 0.24528(16) 0.38457(19)
H4_36 H 1.0000 0.2183 0.3714
C16_19 C 0.02211(11) 0.69586(10) 0.58593(11)
O19_19 O 0.04020(11) 0.62966(10) 0.55273(12)
C19_19 C 0.05393(13) 0.66549(11) 0.56810(13)
C20_37 C 0.0000 0.75472(16) 0.61543(19)
H4_37 H -0.0000 0.7817 0.6286
In1_19 In 0.895604(8) 0.7500 0.604396(8)
N1_19 N 0.84761(10) 0.79741(10) 0.62196(9)
C1_19 C 0.81308(13) 0.81308(13) 0.60279(15)
H1_19 H 0.8010 0.8010 0.5782
C2_19 C 0.85492(12) 0.82395(13) 0.65683(12)
C3_19 C 0.89234(14) 0.81518(15) 0.68485(15)
O1_19 O 0.91742(9) 0.78547(9) 0.67461(9)
O2_19 O 0.89770(12) 0.83966(13) 0.71789(12)
N2_19 N 0.89502(9) 0.76672(9) 0.53554(10)
C4_19 C 0.91407(11) 0.80414(10) 0.52211(11)
O3_19 O 0.93154(10) 0.82407(9) 0.59222(10)
O4_19 O 0.94727(12) 0.87034(10) 0.54020(11)
C5_19 C 0.93190(13) 0.83451(11) 0.55393(13)
C6_19 C 0.88457(19) 0.74528(16) 0.5000
H2_19 H 0.8714 0.7183 0.5000
N3_19 N 0.79741(10) 0.84761(10) 0.62196(9)
N4_19 N 0.87804(9) 0.70259(10) 0.65239(10)
N5_15 N 0.87804(9) 0.65239(10) 0.70259(10)
C7_19 C 0.89721(15) 0.68692(13) 0.68692(13)
H3_19 H 0.9218 0.6990 0.6990
C8_19 C 0.82395(13) 0.85492(12) 0.65683(12)
C9_19 C 0.84317(12) 0.67605(13) 0.64508(12)
C10_19 C 0.84317(12) 0.64508(12) 0.67605(13)
C11_19 C 0.81518(15) 0.89234(14) 0.68485(15)
C12_19 C 0.81515(15) 0.68482(15) 0.60766(14)
C13_19 C 0.81515(15) 0.60766(14) 0.68482(15)
O5_19 O 0.78547(9) 0.91742(9) 0.67461(9)
O6_19 O 0.82539(9) 0.71453(9) 0.58258(9)
O7_15 O 0.82539(9) 0.58258(9) 0.71453(9)
O9_19 O 0.83966(13) 0.89770(12) 0.71789(12)
O10_19 O 0.78211(12) 0.66034(13) 0.60230(12)
O11_19 O 0.78211(12) 0.60230(12) 0.66034(13)
N8_19 N 0.96446(10) 0.73328(9) 0.60498(9)
C14_19 C 0.91407(11) 0.80414(10) 0.47789(11)
C15_19 C 0.97789(11) 0.69586(10) 0.58593(11)
O13_19 O 0.90778(10) 0.67593(9) 0.56846(10)
O17_19 O 0.94727(12) 0.87034(10) 0.45980(11)
O18_19 O 0.95980(11) 0.62966(10) 0.55273(12)
C17_19 C 0.93190(13) 0.83451(11) 0.44607(13)
C18_19 C 0.94607(13) 0.66549(11) 0.56810(13)
C20_38 C 1.0000 0.75472(16) 0.61543(19)
H4_38 H 1.0000 0.7817 0.6286
In1_20 In 0.104396(8) 0.7500 0.395604(8)
N1_20 N 0.15239(10) 0.79741(10) 0.37804(9)
C1_20 C 0.18692(13) 0.81308(13) 0.39721(15)
H1_20 H 0.1990 0.8010 0.4218
C2_20 C 0.14508(12) 0.82395(13) 0.34317(12)
C3_20 C 0.10766(14) 0.81518(15) 0.31515(15)
O1_20 O 0.08258(9) 0.78547(9) 0.32539(9)
O2_20 O 0.10230(12) 0.83966(13) 0.28211(12)
N2_20 N 0.10498(9) 0.76672(9) 0.46446(10)
C4_20 C 0.08593(11) 0.80414(10) 0.47789(11)
O3_20 O 0.06846(10) 0.82407(9) 0.40778(10)
O4_20 O 0.05273(12) 0.87034(10) 0.45980(11)
C5_20 C 0.06810(13) 0.83451(11) 0.44607(13)
C6_20 C 0.11543(19) 0.74528(16) 0.5000
H2_20 H 0.1286 0.7183 0.5000
N3_20 N 0.20259(10) 0.84761(10) 0.37804(9)
N4_20 N 0.12196(9) 0.70259(10) 0.34761(10)
N5_16 N 0.12196(9) 0.65239(10) 0.29741(10)
C7_20 C 0.10279(15) 0.68692(13) 0.31308(13)
H3_20 H 0.0782 0.6990 0.3010
C8_20 C 0.17605(13) 0.85492(12) 0.34317(12)
C9_20 C 0.15683(12) 0.67605(13) 0.35492(12)
C10_20 C 0.15683(12) 0.64508(12) 0.32395(13)
C11_20 C 0.18482(15) 0.89234(14) 0.31515(15)
C12_20 C 0.18485(15) 0.68482(15) 0.39234(14)
C13_20 C 0.18485(15) 0.60766(14) 0.31518(15)
O5_20 O 0.21453(9) 0.91742(9) 0.32539(9)
O6_20 O 0.17461(9) 0.71453(9) 0.41742(9)
O7_16 O 0.17461(9) 0.58258(9) 0.28547(9)
O9_20 O 0.16034(13) 0.89770(12) 0.28211(12)
O10_20 O 0.21789(12) 0.66034(13) 0.39770(12)
O11_20 O 0.21789(12) 0.60230(12) 0.33966(13)
N8_20 N 0.03554(10) 0.73328(9) 0.39502(9)
C14_20 C 0.08593(11) 0.80414(10) 0.52211(11)
C15_20 C 0.02211(11) 0.69586(10) 0.41407(11)
O13_20 O 0.09222(10) 0.67593(9) 0.43154(10)
O17_20 O 0.05273(12) 0.87034(10) 0.54020(11)
O18_20 O 0.04020(11) 0.62966(10) 0.44727(12)
C17_20 C 0.06810(13) 0.83451(11) 0.55393(13)
C18_20 C 0.05393(13) 0.66549(11) 0.43190(13)
C20_39 C 0.0000 0.75472(16) 0.38457(19)
H4_39 H -0.0000 0.7817 0.3714
C16_20 C 0.97789(11) 0.69586(10) 0.41407(11)
O19_20 O 0.95980(11) 0.62966(10) 0.44727(12)
C19_20 C 0.94607(13) 0.66549(11) 0.43190(13)
C20_40 C 1.0000 0.75472(16) 0.38457(19)
H4_40 H 1.0000 0.7817 0.3714
C16_21 C 0.30414(10) 0.41407(11) 0.02211(11)
O19_21 O 0.37034(10) 0.44727(12) 0.04020(11)
C19_21 C 0.33451(11) 0.43190(13) 0.05393(13)
C20_41 C 0.24528(16) 0.38457(19) -0.0000
H4_41 H 0.2183 0.3714 0.0000
In1_21 In 0.2500 0.395604(8) 0.895604(8)
N1_21 N 0.20259(10) 0.37804(9) 0.84761(10)
C1_21 C 0.18692(13) 0.39721(15) 0.81308(13)
H1_21 H 0.1990 0.4218 0.8010
C2_21 C 0.17605(13) 0.34317(12) 0.85492(12)
C3_21 C 0.18482(15) 0.31515(15) 0.89234(14)
O1_21 O 0.21453(9) 0.32539(9) 0.91742(9)
O2_21 O 0.16034(13) 0.28211(12) 0.89770(12)
N2_21 N 0.23328(9) 0.46446(10) 0.89502(9)
C4_21 C 0.19586(10) 0.47789(11) 0.91407(11)
O3_21 O 0.17593(9) 0.40778(10) 0.93154(10)
O4_21 O 0.12966(10) 0.45980(11) 0.94727(12)
C5_21 C 0.16549(11) 0.44607(13) 0.93190(13)
C6_21 C 0.25472(16) 0.5000 0.88457(19)
H2_21 H 0.2817 0.5000 0.8714
N3_21 N 0.15239(10) 0.37804(9) 0.79741(10)
N4_21 N 0.29741(10) 0.34761(10) 0.87804(9)
C7_21 C 0.31308(13) 0.31308(13) 0.89721(15)
H3_21 H 0.3010 0.3010 0.9218
C8_21 C 0.14508(12) 0.34317(12) 0.82395(13)
C9_21 C 0.32395(13) 0.35492(12) 0.84317(12)
C10_21 C 0.35492(12) 0.32395(13) 0.84317(12)
C11_21 C 0.10766(14) 0.31515(15) 0.81518(15)
C12_21 C 0.31518(15) 0.39234(14) 0.81515(15)
C13_21 C 0.39234(14) 0.31518(15) 0.81515(15)
O5_21 O 0.08258(9) 0.32539(9) 0.78547(9)
O6_21 O 0.28547(9) 0.41742(9) 0.82539(9)
O9_21 O 0.10230(12) 0.28211(12) 0.83966(13)
O10_21 O 0.33966(13) 0.39770(12) 0.78211(12)
O11_21 O 0.39770(12) 0.33966(13) 0.78211(12)
N8_21 N 0.26672(9) 0.39502(9) 0.96446(10)
C14_21 C 0.19586(10) 0.52211(11) 0.91407(11)
C15_21 C 0.30414(10) 0.41407(11) 0.97789(11)
O13_21 O 0.32407(9) 0.43154(10) 0.90778(10)
O17_21 O 0.12966(10) 0.54020(11) 0.94727(12)
O18_21 O 0.37034(10) 0.44727(12) 0.95980(11)
C17_21 C 0.16549(11) 0.55393(13) 0.93190(13)
C18_21 C 0.33451(11) 0.43190(13) 0.94607(13)
C20_42 C 0.24528(16) 0.38457(19) 1.0000
H4_42 H 0.2183 0.3714 1.0000
In1_22 In 0.2500 0.604396(8) 0.104396(8)
N1_22 N 0.20259(10) 0.62196(9) 0.15239(10)
C1_22 C 0.18692(13) 0.60279(15) 0.18692(13)
H1_22 H 0.1990 0.5782 0.1990
C2_22 C 0.17605(13) 0.65683(12) 0.14508(12)
C3_22 C 0.18482(15) 0.68485(15) 0.10766(14)
O1_22 O 0.21453(9) 0.67461(9) 0.08258(9)
O2_22 O 0.16034(13) 0.71789(12) 0.10230(12)
N2_22 N 0.23328(9) 0.53554(10) 0.10498(9)
C4_22 C 0.19586(10) 0.52211(11) 0.08593(11)
O3_22 O 0.17593(9) 0.59222(10) 0.06846(10)
O4_22 O 0.12966(10) 0.54020(11) 0.05273(12)
C5_22 C 0.16549(11) 0.55393(13) 0.06810(13)
C6_22 C 0.25472(16) 0.5000 0.11543(19)
H2_22 H 0.2817 0.5000 0.1286
N3_22 N 0.15239(10) 0.62196(9) 0.20259(10)
N4_22 N 0.29741(10) 0.65239(10) 0.12196(9)
C7_22 C 0.31308(13) 0.68692(13) 0.10279(15)
H3_22 H 0.3010 0.6990 0.0782
C8_22 C 0.14508(12) 0.65683(12) 0.17605(13)
C9_22 C 0.32395(13) 0.64508(12) 0.15683(12)
C10_22 C 0.35492(12) 0.67605(13) 0.15683(12)
C11_22 C 0.10766(14) 0.68485(15) 0.18482(15)
C12_22 C 0.31518(15) 0.60766(14) 0.18485(15)
C13_22 C 0.39234(14) 0.68482(15) 0.18485(15)
O5_22 O 0.08258(9) 0.67461(9) 0.21453(9)
O6_22 O 0.28547(9) 0.58258(9) 0.17461(9)
O9_22 O 0.10230(12) 0.71789(12) 0.16034(13)
O10_22 O 0.33966(13) 0.60230(12) 0.21789(12)
O11_22 O 0.39770(12) 0.66034(13) 0.21789(12)
N8_22 N 0.26672(9) 0.60498(9) 0.03554(10)
C14_22 C 0.19586(10) 0.47789(11) 0.08593(11)
C15_22 C 0.30414(10) 0.58593(11) 0.02211(11)
O13_22 O 0.32407(9) 0.56846(10) 0.09222(10)
O17_22 O 0.12966(10) 0.45980(11) 0.05273(12)
O18_22 O 0.37034(10) 0.55273(12) 0.04020(11)
C17_22 C 0.16549(11) 0.44607(13) 0.06810(13)
C18_22 C 0.33451(11) 0.56810(13) 0.05393(13)
C20_43 C 0.24528(16) 0.61543(19) 0.0000
H4_43 H 0.2183 0.6286 0.0000
C16_22 C 0.30414(10) 0.58593(11) 0.97789(11)
O19_22 O 0.37034(10) 0.55273(12) 0.95980(11)
C19_22 C 0.33451(11) 0.56810(13) 0.94607(13)
C20_44 C 0.24528(16) 0.61543(19) 1.0000
H4_44 H 0.2183 0.6286 1.0000
In1_23 In 0.7500 0.395604(8) 0.104396(8)
N1_23 N 0.79741(10) 0.37804(9) 0.15239(10)
C1_23 C 0.81308(13) 0.39721(15) 0.18692(13)
H1_23 H 0.8010 0.4218 0.1990
C2_23 C 0.82395(13) 0.34317(12) 0.14508(12)
C3_23 C 0.81518(15) 0.31515(15) 0.10766(14)
O1_23 O 0.78547(9) 0.32539(9) 0.08258(9)
O2_23 O 0.83966(13) 0.28211(12) 0.10230(12)
N2_23 N 0.76672(9) 0.46446(10) 0.10498(9)
C4_23 C 0.80414(10) 0.47789(11) 0.08593(11)
O3_23 O 0.82407(9) 0.40778(10) 0.06846(10)
O4_23 O 0.87034(10) 0.45980(11) 0.05273(12)
C5_23 C 0.83451(11) 0.44607(13) 0.06810(13)
C6_23 C 0.74528(16) 0.5000 0.11543(19)
H2_23 H 0.7183 0.5000 0.1286
N3_23 N 0.84761(10) 0.37804(9) 0.20259(10)
N4_23 N 0.70259(10) 0.34761(10) 0.12196(9)
C7_23 C 0.68692(13) 0.31308(13) 0.10279(15)
H3_23 H 0.6990 0.3010 0.0782
C8_23 C 0.85492(12) 0.34317(12) 0.17605(13)
C9_23 C 0.67605(13) 0.35492(12) 0.15683(12)
C10_23 C 0.64508(12) 0.32395(13) 0.15683(12)
C11_23 C 0.89234(14) 0.31515(15) 0.18482(15)
C12_23 C 0.68482(15) 0.39234(14) 0.18485(15)
C13_23 C 0.60766(14) 0.31518(15) 0.18485(15)
O5_23 O 0.91742(9) 0.32539(9) 0.21453(9)
O6_23 O 0.71453(9) 0.41742(9) 0.17461(9)
O9_23 O 0.89770(12) 0.28211(12) 0.16034(13)
O10_23 O 0.66034(13) 0.39770(12) 0.21789(12)
O11_23 O 0.60230(12) 0.33966(13) 0.21789(12)
N8_23 N 0.73328(9) 0.39502(9) 0.03554(10)
C14_23 C 0.80414(10) 0.52211(11) 0.08593(11)
C15_23 C 0.69586(10) 0.41407(11) 0.02211(11)
O13_23 O 0.67593(9) 0.43154(10) 0.09222(10)
O17_23 O 0.87034(10) 0.54020(11) 0.05273(12)
O18_23 O 0.62966(10) 0.44727(12) 0.04020(11)
C17_23 C 0.83451(11) 0.55393(13) 0.06810(13)
C18_23 C 0.66549(11) 0.43190(13) 0.05393(13)
C20_45 C 0.75472(16) 0.38457(19) 0.0000
H4_45 H 0.7817 0.3714 0.0000
C16_23 C 0.69586(10) 0.41407(11) 0.97789(11)
O19_23 O 0.62966(10) 0.44727(12) 0.95980(11)
C19_23 C 0.66549(11) 0.43190(13) 0.94607(13)
C20_46 C 0.75472(16) 0.38457(19) 1.0000
H4_46 H 0.7817 0.3714 1.0000
C16_24 C 0.69586(10) 0.58593(11) 0.02211(11)
O19_24 O 0.62966(10) 0.55273(12) 0.04020(11)
C19_24 C 0.66549(11) 0.56810(13) 0.05393(13)
C20_47 C 0.75472(16) 0.61543(19) -0.0000
H4_47 H 0.7817 0.6286 0.0000
In1_24 In 0.7500 0.604396(8) 0.895604(8)
N1_24 N 0.79741(10) 0.62196(9) 0.84761(10)
C1_24 C 0.81308(13) 0.60279(15) 0.81308(13)
H1_24 H 0.8010 0.5782 0.8010
C2_24 C 0.82395(13) 0.65683(12) 0.85492(12)
C3_24 C 0.81518(15) 0.68485(15) 0.89234(14)
O1_24 O 0.78547(9) 0.67461(9) 0.91742(9)
O2_24 O 0.83966(13) 0.71789(12) 0.89770(12)
N2_24 N 0.76672(9) 0.53554(10) 0.89502(9)
C4_24 C 0.80414(10) 0.52211(11) 0.91407(11)
O3_24 O 0.82407(9) 0.59222(10) 0.93154(10)
O4_24 O 0.87034(10) 0.54020(11) 0.94727(12)
C5_24 C 0.83451(11) 0.55393(13) 0.93190(13)
C6_24 C 0.74528(16) 0.5000 0.88457(19)
H2_24 H 0.7183 0.5000 0.8714
N3_24 N 0.84761(10) 0.62196(9) 0.79741(10)
N4_24 N 0.70259(10) 0.65239(10) 0.87804(9)
C7_24 C 0.68692(13) 0.68692(13) 0.89721(15)
H3_24 H 0.6990 0.6990 0.9218
C8_24 C 0.85492(12) 0.65683(12) 0.82395(13)
C9_24 C 0.67605(13) 0.64508(12) 0.84317(12)
C10_24 C 0.64508(12) 0.67605(13) 0.84317(12)
C11_24 C 0.89234(14) 0.68485(15) 0.81518(15)
C12_24 C 0.68482(15) 0.60766(14) 0.81515(15)
C13_24 C 0.60766(14) 0.68482(15) 0.81515(15)
O5_24 O 0.91742(9) 0.67461(9) 0.78547(9)
O6_24 O 0.71453(9) 0.58258(9) 0.82539(9)
O9_24 O 0.89770(12) 0.71789(12) 0.83966(13)
O10_24 O 0.66034(13) 0.60230(12) 0.78211(12)
O11_24 O 0.60230(12) 0.66034(13) 0.78211(12)
N8_24 N 0.73328(9) 0.60498(9) 0.96446(10)
C14_24 C 0.80414(10) 0.47789(11) 0.91407(11)
C15_24 C 0.69586(10) 0.58593(11) 0.97789(11)
O13_24 O 0.67593(9) 0.56846(10) 0.90778(10)
O17_24 O 0.87034(10) 0.45980(11) 0.94727(12)
O18_24 O 0.62966(10) 0.55273(12) 0.95980(11)
C17_24 C 0.83451(11) 0.44607(13) 0.93190(13)
C18_24 C 0.66549(11) 0.56810(13) 0.94607(13)
C20_48 C 0.75472(16) 0.61543(19) 1.0000
H4_48 H 0.7817 0.6286 1.0000
Mg1 Mg 0.21542(19) -0.0000 0.21542(19)
O20 O 0.2158(3) 0.0611(5) 0.2158(3)
O21 O 0.2765(5) 0.0000 0.2090(7)
O22 O 0.1443(9) 0.0000 0.2102(9)
O24 O 0.2090(7) 0.0000 0.2765(5)
O25 O 0.2102(9) 0.0000 0.1443(9)
Mg1_2 Mg 0.21542(19) 1.0000 0.21542(19)
O21_2 O 0.2765(5) 1.0000 0.2090(7)
O22_2 O 0.1443(9) 1.0000 0.2102(9)
O23 O 0.2158(3) 0.9389(5) 0.2158(3)
O24_2 O 0.2090(7) 1.0000 0.2765(5)
O25_2 O 0.2102(9) 1.0000 0.1443(9)
Mg1_3 Mg 0.78458(19) 0.0000 0.21542(19)
O21_3 O 0.7235(5) 0.0000 0.2090(7)
O22_3 O 0.8557(9) 0.0000 0.2102(9)
O23_2 O 0.7842(3) 0.0611(5) 0.2158(3)
O24_3 O 0.7910(7) 0.0000 0.2765(5)
O25_3 O 0.7898(9) 0.0000 0.1443(9)
Mg1_4 Mg 0.78458(19) 1.0000 0.21542(19)
O20_2 O 0.7842(3) 0.9389(5) 0.2158(3)
O21_4 O 0.7235(5) 1.0000 0.2090(7)
O22_4 O 0.8557(9) 1.0000 0.2102(9)
O24_4 O 0.7910(7) 1.0000 0.2765(5)
O25_4 O 0.7898(9) 1.0000 0.1443(9)
Mg1_5 Mg 0.78458(19) 0.0000 0.78458(19)
O20_3 O 0.7842(3) 0.0611(5) 0.7842(3)
O21_5 O 0.7235(5) 0.0000 0.7910(7)
O22_5 O 0.8557(9) 0.0000 0.7898(9)
O24_5 O 0.7910(7) -0.0000 0.7235(5)
O25_5 O 0.7898(9) 0.0000 0.8557(9)
Mg1_6 Mg 0.78458(19) 1.0000 0.78458(19)
O21_6 O 0.7235(5) 1.0000 0.7910(7)
O22_6 O 0.8557(9) 1.0000 0.7898(9)
O23_3 O 0.7842(3) 0.9389(5) 0.7842(3)
O24_6 O 0.7910(7) 1.0000 0.7235(5)
O25_6 O 0.7898(9) 1.0000 0.8557(9)
Mg1_7 Mg 0.21542(19) 0.0000 0.78458(19)
O21_7 O 0.2765(5) 0.0000 0.7910(7)
O22_7 O 0.1443(9) 0.0000 0.7898(9)
O23_4 O 0.2158(3) 0.0611(5) 0.7842(3)
O24_7 O 0.2090(7) -0.0000 0.7235(5)
O25_7 O 0.2102(9) 0.0000 0.8557(9)
Mg1_8 Mg 0.21542(19) 1.0000 0.78458(19)
O20_4 O 0.2158(3) 0.9389(5) 0.7842(3)
O21_8 O 0.2765(5) 1.0000 0.7910(7)
O22_8 O 0.1443(9) 1.0000 0.7898(9)
O24_8 O 0.2090(7) 1.0000 0.7235(5)
O25_8 O 0.2102(9) 1.0000 0.8557(9)
Mg1_9 Mg 0.21542(19) 0.21542(19) -0.0000
O20_5 O 0.2158(3) 0.2158(3) 0.0611(5)
O21_9 O 0.2090(7) 0.2765(5) 0.0000
O22_9 O 0.2102(9) 0.1443(9) 0.0000
O24_9 O 0.2765(5) 0.2090(7) 0.0000
O25_9 O 0.1443(9) 0.2102(9) 0.0000
Mg1_10 Mg 0.21542(19) 0.21542(19) 1.0000
O21_10 O 0.2090(7) 0.2765(5) 1.0000
O22_10 O 0.2102(9) 0.1443(9) 1.0000
O23_5 O 0.2158(3) 0.2158(3) 0.9389(5)
O24_10 O 0.2765(5) 0.2090(7) 1.0000
O25_10 O 0.1443(9) 0.2102(9) 1.0000
Mg1_11 Mg 0.21542(19) 0.78458(19) 0.0000
O21_11 O 0.2090(7) 0.7235(5) 0.0000
O22_11 O 0.2102(9) 0.8557(9) 0.0000
O23_6 O 0.2158(3) 0.7842(3) 0.0611(5)
O24_11 O 0.2765(5) 0.7910(7) 0.0000
O25_11 O 0.1443(9) 0.7898(9) 0.0000
Mg1_12 Mg 0.21542(19) 0.78458(19) 1.0000
O20_6 O 0.2158(3) 0.7842(3) 0.9389(5)
O21_12 O 0.2090(7) 0.7235(5) 1.0000
O22_12 O 0.2102(9) 0.8557(9) 1.0000
O24_12 O 0.2765(5) 0.7910(7) 1.0000
O25_12 O 0.1443(9) 0.7898(9) 1.0000
Mg1_13 Mg 0.78458(19) 0.78458(19) -0.0000
O20_7 O 0.7842(3) 0.7842(3) 0.0611(5)
O21_13 O 0.7910(7) 0.7235(5) 0.0000
O22_13 O 0.7898(9) 0.8557(9) 0.0000
O24_13 O 0.7235(5) 0.7910(7) 0.0000
O25_13 O 0.8557(9) 0.7898(9) 0.0000
Mg1_14 Mg 0.78458(19) 0.78458(19) 1.0000
O21_14 O 0.7910(7) 0.7235(5) 1.0000
O22_14 O 0.7898(9) 0.8557(9) 1.0000
O23_7 O 0.7842(3) 0.7842(3) 0.9389(5)
O24_14 O 0.7235(5) 0.7910(7) 1.0000
O25_14 O 0.8557(9) 0.7898(9) 1.0000
Mg1_15 Mg 0.78458(19) 0.21542(19) 0.0000
O21_15 O 0.7910(7) 0.2765(5) 0.0000
O22_15 O 0.7898(9) 0.1443(9) 0.0000
O23_8 O 0.7842(3) 0.2158(3) 0.0611(5)
O24_15 O 0.7235(5) 0.2090(7) 0.0000
O25_15 O 0.8557(9) 0.2102(9) 0.0000
Mg1_16 Mg 0.78458(19) 0.21542(19) 1.0000
O20_8 O 0.7842(3) 0.2158(3) 0.9389(5)
O21_16 O 0.7910(7) 0.2765(5) 1.0000
O22_16 O 0.7898(9) 0.1443(9) 1.0000
O24_16 O 0.7235(5) 0.2090(7) 1.0000
O25_16 O 0.8557(9) 0.2102(9) 1.0000
Mg1_17 Mg -0.0000 0.21542(19) 0.21542(19)
O20_9 O 0.0611(5) 0.2158(3) 0.2158(3)
O21_17 O 0.0000 0.2090(7) 0.2765(5)
O22_17 O 0.0000 0.2102(9) 0.1443(9)
O24_17 O 0.0000 0.2765(5) 0.2090(7)
O25_17 O 0.0000 0.1443(9) 0.2102(9)
Mg1_18 Mg 1.0000 0.21542(19) 0.21542(19)
O21_18 O 1.0000 0.2090(7) 0.2765(5)
O22_18 O 1.0000 0.2102(9) 0.1443(9)
O23_9 O 0.9389(5) 0.2158(3) 0.2158(3)
O24_18 O 1.0000 0.2765(5) 0.2090(7)
O25_18 O 1.0000 0.1443(9) 0.2102(9)
Mg1_19 Mg -0.0000 0.21542(19) 0.78458(19)
O21_19 O -0.0000 0.2090(7) 0.7235(5)
O22_19 O -0.0000 0.2102(9) 0.8557(9)
O23_10 O 0.0611(5) 0.2158(3) 0.7842(3)
O24_19 O 0.0000 0.2765(5) 0.7910(7)
O25_19 O 0.0000 0.1443(9) 0.7898(9)
Mg1_20 Mg 1.0000 0.21542(19) 0.78458(19)
O20_10 O 0.9389(5) 0.2158(3) 0.7842(3)
O21_20 O 1.0000 0.2090(7) 0.7235(5)
O22_20 O 1.0000 0.2102(9) 0.8557(9)
O24_20 O 1.0000 0.2765(5) 0.7910(7)
O25_20 O 1.0000 0.1443(9) 0.7898(9)
Mg1_21 Mg 0.0000 0.78458(19) 0.78458(19)
O20_11 O 0.0611(5) 0.7842(3) 0.7842(3)
O21_21 O 0.0000 0.7910(7) 0.7235(5)
O22_21 O -0.0000 0.7898(9) 0.8557(9)
O24_21 O 0.0000 0.7235(5) 0.7910(7)
O25_21 O -0.0000 0.8557(9) 0.7898(9)
Mg1_22 Mg 1.0000 0.78458(19) 0.78458(19)
O21_22 O 1.0000 0.7910(7) 0.7235(5)
O22_22 O 1.0000 0.7898(9) 0.8557(9)
O23_11 O 0.9389(5) 0.7842(3) 0.7842(3)
O24_22 O 1.0000 0.7235(5) 0.7910(7)
O25_22 O 1.0000 0.8557(9) 0.7898(9)
Mg1_23 Mg -0.0000 0.78458(19) 0.21542(19)
O21_23 O 0.0000 0.7910(7) 0.2765(5)
O22_23 O 0.0000 0.7898(9) 0.1443(9)
O23_12 O 0.0611(5) 0.7842(3) 0.2158(3)
O24_23 O -0.0000 0.7235(5) 0.2090(7)
O25_23 O -0.0000 0.8557(9) 0.2102(9)
Mg1_24 Mg 1.0000 0.78458(19) 0.21542(19)
O20_12 O 0.9389(5) 0.7842(3) 0.2158(3)
O21_24 O 1.0000 0.7910(7) 0.2765(5)
O22_24 O 1.0000 0.7898(9) 0.1443(9)
O24_24 O 1.0000 0.7235(5) 0.2090(7)
O25_24 O 1.0000 0.8557(9) 0.2102(9)
Mg1_25 Mg 0.71542(19) 0.5000 0.71542(19)
O20_13 O 0.7158(3) 0.5611(5) 0.7158(3)
O21_25 O 0.7765(5) 0.5000 0.7090(7)
O22_25 O 0.6443(9) 0.5000 0.7102(9)
O23_13 O 0.7158(3) 0.4389(5) 0.7158(3)
O24_25 O 0.7090(7) 0.5000 0.7765(5)
O25_25 O 0.7102(9) 0.5000 0.6443(9)
Mg1_26 Mg 0.28458(19) 0.5000 0.71542(19)
O20_14 O 0.2842(3) 0.4389(5) 0.7158(3)
O21_26 O 0.2235(5) 0.5000 0.7090(7)
O22_26 O 0.3557(9) 0.5000 0.7102(9)
O23_14 O 0.2842(3) 0.5611(5) 0.7158(3)
O24_26 O 0.2910(7) 0.5000 0.7765(5)
O25_26 O 0.2898(9) 0.5000 0.6443(9)
Mg1_27 Mg 0.28458(19) 0.5000 0.28458(19)
O20_15 O 0.2842(3) 0.5611(5) 0.2842(3)
O21_27 O 0.2235(5) 0.5000 0.2910(7)
O22_27 O 0.3557(9) 0.5000 0.2898(9)
O23_15 O 0.2842(3) 0.4389(5) 0.2842(3)
O24_27 O 0.2910(7) 0.5000 0.2235(5)
O25_27 O 0.2898(9) 0.5000 0.3557(9)
Mg1_28 Mg 0.71542(19) 0.5000 0.28458(19)
O20_16 O 0.7158(3) 0.4389(5) 0.2842(3)
O21_28 O 0.7765(5) 0.5000 0.2910(7)
O22_28 O 0.6443(9) 0.5000 0.2898(9)
O23_16 O 0.7158(3) 0.5611(5) 0.2842(3)
O24_28 O 0.7090(7) 0.5000 0.2235(5)
O25_28 O 0.7102(9) 0.5000 0.3557(9)
Mg1_29 Mg 0.71542(19) 0.71542(19) 0.5000
O20_17 O 0.7158(3) 0.7158(3) 0.5611(5)
O21_29 O 0.7090(7) 0.7765(5) 0.5000
O22_29 O 0.7102(9) 0.6443(9) 0.5000
O23_17 O 0.7158(3) 0.7158(3) 0.4389(5)
O24_29 O 0.7765(5) 0.7090(7) 0.5000
O25_29 O 0.6443(9) 0.7102(9) 0.5000
Mg1_30 Mg 0.71542(19) 0.28458(19) 0.5000
O20_18 O 0.7158(3) 0.2842(3) 0.4389(5)
O21_30 O 0.7090(7) 0.2235(5) 0.5000
O22_30 O 0.7102(9) 0.3557(9) 0.5000
O23_18 O 0.7158(3) 0.2842(3) 0.5611(5)
O24_30 O 0.7765(5) 0.2910(7) 0.5000
O25_30 O 0.6443(9) 0.2898(9) 0.5000
Mg1_31 Mg 0.28458(19) 0.28458(19) 0.5000
O20_19 O 0.2842(3) 0.2842(3) 0.5611(5)
O21_31 O 0.2910(7) 0.2235(5) 0.5000
O22_31 O 0.2898(9) 0.3557(9) 0.5000
O23_19 O 0.2842(3) 0.2842(3) 0.4389(5)
O24_31 O 0.2235(5) 0.2910(7) 0.5000
O25_31 O 0.3557(9) 0.2898(9) 0.5000
Mg1_32 Mg 0.28458(19) 0.71542(19) 0.5000
O20_20 O 0.2842(3) 0.7158(3) 0.4389(5)
O21_32 O 0.2910(7) 0.7765(5) 0.5000
O22_32 O 0.2898(9) 0.6443(9) 0.5000
O23_20 O 0.2842(3) 0.7158(3) 0.5611(5)
O24_32 O 0.2235(5) 0.7090(7) 0.5000
O25_32 O 0.3557(9) 0.7102(9) 0.5000
Mg1_33 Mg 0.5000 0.71542(19) 0.71542(19)
O20_21 O 0.5611(5) 0.7158(3) 0.7158(3)
O21_33 O 0.5000 0.7090(7) 0.7765(5)
O22_33 O 0.5000 0.7102(9) 0.6443(9)
O23_21 O 0.4389(5) 0.7158(3) 0.7158(3)
O24_33 O 0.5000 0.7765(5) 0.7090(7)
O25_33 O 0.5000 0.6443(9) 0.7102(9)
Mg1_34 Mg 0.5000 0.71542(19) 0.28458(19)
O20_22 O 0.4389(5) 0.7158(3) 0.2842(3)
O21_34 O 0.5000 0.7090(7) 0.2235(5)
O22_34 O 0.5000 0.7102(9) 0.3557(9)
O23_22 O 0.5611(5) 0.7158(3) 0.2842(3)
O24_34 O 0.5000 0.7765(5) 0.2910(7)
O25_34 O 0.5000 0.6443(9) 0.2898(9)
Mg1_35 Mg 0.5000 0.28458(19) 0.28458(19)
O20_23 O 0.5611(5) 0.2842(3) 0.2842(3)
O21_35 O 0.5000 0.2910(7) 0.2235(5)
O22_35 O 0.5000 0.2898(9) 0.3557(9)
O23_23 O 0.4389(5) 0.2842(3) 0.2842(3)
O24_35 O 0.5000 0.2235(5) 0.2910(7)
O25_35 O 0.5000 0.3557(9) 0.2898(9)
Mg1_36 Mg 0.5000 0.28458(19) 0.71542(19)
O20_24 O 0.4389(5) 0.2842(3) 0.7158(3)
O21_36 O 0.5000 0.2910(7) 0.7765(5)
O22_36 O 0.5000 0.2898(9) 0.6443(9)
O23_24 O 0.5611(5) 0.2842(3) 0.7158(3)
O24_36 O 0.5000 0.2235(5) 0.7090(7)
O25_36 O 0.5000 0.3557(9) 0.7102(9)
loop_
_geom_bond_atom_site_label_1
_geom_bond_atom_site_label_2
_geom_bond_site_symmetry_1
_geom_bond_site_symmetry_2
In1 N1 1_555 1_555
N1 C1 1_555 1_555
C1 H1 1_555 1_555
C2 N1 1_555 1_555
C3 C2 1_555 1_555
O1 In1 1_555 1_555
O2 C3 1_555 1_555
N2 In1 1_555 1_555
C4 N2 1_555 1_555
O3 In1 1_555 1_555
O4 C5 1_555 1_555
C5 C4 1_555 1_555
C6 N2 1_555 1_555
H2 C6 1_555 1_555
In2 N3 1_555 1_555
In3 N7 1_555 1_555
In4 N5 1_555 1_555
N3 C1 1_555 1_555
N4 In1 1_555 1_555
N5 C7 1_555 1_555
N6 In2 1_555 1_555
C7 N4 1_555 1_555
H3 C7 1_555 1_555
C8 C2 1_555 1_555
C9 N4 1_555 1_555
C10 N5 1_555 1_555
C11 C8 1_555 1_555
C12 C9 1_555 1_555
C13 C10 1_555 1_555
O5 In2 1_555 1_555
O6 In1 1_555 1_555
O7 In4 1_555 1_555
O8 In2 1_555 1_555
O9 C11 1_555 1_555
O10 C12 1_555 1_555
O11 C13 1_555 1_555
N7 C6 1_555 1_555
N8 In1 1_555 1_555
N10 In2 1_555 1_555
N11 In2 1_555 1_555
C14 C4 1_555 1_555
C15 N8 1_555 1_555
O12 In3 1_555 1_555
O13 In1 1_555 1_555
O15 In2 1_555 1_555
O16 In2 1_555 1_555
O17 C17 1_555 1_555
O18 C18 1_555 1_555
C17 C14 1_555 1_555
C18 C15 1_555 1_555
C20 N8 1_555 1_555
H4 C20 1_555 1_555
C3 O1 1_555 1_555
O3 C5 1_555 1_555
N3 C8 1_555 1_555
C9 C10 1_555 1_555
C11 O5 1_555 1_555
C12 O6 1_555 1_555
C13 O7 1_555 1_555
N7 C14 1_555 1_555
O12 C17 1_555 1_555
O13 C18 1_555 1_555
In5 N9 1_555 1_555
N9 C16 1_555 1_555
O14 In5 1_555 1_555
O19 C19 1_555 1_555
C19 C16 1_555 1_555
H4_2 C20_2 1_555 1_555
N9 C20_2 1_555 1_555
O14 C19 1_555 1_555
In3 N9_2 1_555 1_555
N9_2 C16_2 1_555 1_555
O14_2 In3 1_555 1_555
O19_2 C19_2 1_555 1_555
C19_2 C16_2 1_555 1_555
H4_3 C20_3 1_555 1_555
N9_2 C20_3 1_555 1_555
O14_2 C19_2 1_555 1_555
In1_2 N1_2 1_555 1_555
N1_2 C1_2 1_555 1_555
C1_2 H1_2 1_555 1_555
C2_2 N1_2 1_555 1_555
C3_2 C2_2 1_555 1_555
O1_2 In1_2 1_555 1_555
O2_2 C3_2 1_555 1_555
N2_2 In1_2 1_555 1_555
C4_2 N2_2 1_555 1_555
O3_2 In1_2 1_555 1_555
O4_2 C5_2 1_555 1_555
C5_2 C4_2 1_555 1_555
C6_2 N2_2 1_555 1_555
H2_2 C6_2 1_555 1_555
In2_2 N3_2 1_555 1_555
In5 N7_2 1_555 1_555
In4_2 N5_2 1_555 1_555
N3_2 C1_2 1_555 1_555
N4_2 In1_2 1_555 1_555
N5_2 C7_2 1_555 1_555
N6_2 In2_2 1_555 1_555
C7_2 N4_2 1_555 1_555
H3_2 C7_2 1_555 1_555
C8_2 C2_2 1_555 1_555
C9_2 N4_2 1_555 1_555
C10_2 N5_2 1_555 1_555
C11_2 C8_2 1_555 1_555
C12_2 C9_2 1_555 1_555
C13_2 C10_2 1_555 1_555
O5_2 In2_2 1_555 1_555
O6_2 In1_2 1_555 1_555
O7_2 In4_2 1_555 1_555
O8_2 In2_2 1_555 1_555
O9_2 C11_2 1_555 1_555
O10_2 C12_2 1_555 1_555
O11_2 C13_2 1_555 1_555
N7_2 C6_2 1_555 1_555
N8_2 In1_2 1_555 1_555
N10_2 In2_2 1_555 1_555
N11_2 In2_2 1_555 1_555
C14_2 C4_2 1_555 1_555
C15_2 N8_2 1_555 1_555
O12_2 In5 1_555 1_555
O13_2 In1_2 1_555 1_555
O15_2 In2_2 1_555 1_555
O16_2 In2_2 1_555 1_555
O17_2 C17_2 1_555 1_555
O18_2 C18_2 1_555 1_555
C17_2 C14_2 1_555 1_555
C18_2 C15_2 1_555 1_555
C20_4 N8_2 1_555 1_555
H4_4 C20_4 1_555 1_555
C3_2 O1_2 1_555 1_555
O3_2 C5_2 1_555 1_555
N3_2 C8_2 1_555 1_555
C9_2 C10_2 1_555 1_555
C11_2 O5_2 1_555 1_555
C12_2 O6_2 1_555 1_555
C13_2 O7_2 1_555 1_555
N7_2 C14_2 1_555 1_555
O12_2 C17_2 1_555 1_555
O13_2 C18_2 1_555 1_555
In5_2 N9_3 1_555 1_555
N9_3 C16_3 1_555 1_555
O14_3 In5_2 1_555 1_555
O19_3 C19_3 1_555 1_555
C19_3 C16_3 1_555 1_555
H4_5 C20_5 1_555 1_555
N9_3 C20_5 1_555 1_555
O14_3 C19_3 1_555 1_555
In1_3 N1_3 1_555 1_555
N1_3 C1_3 1_555 1_555
C1_3 H1_3 1_555 1_555
C2_3 N1_3 1_555 1_555
C3_3 C2_3 1_555 1_555
O1_3 In1_3 1_555 1_555
O2_3 C3_3 1_555 1_555
N2_3 In1_3 1_555 1_555
C4_3 N2_3 1_555 1_555
O3_3 In1_3 1_555 1_555
O4_3 C5_3 1_555 1_555
C5_3 C4_3 1_555 1_555
C6_3 N2_3 1_555 1_555
H2_3 C6_3 1_555 1_555
In2_3 N3_3 1_555 1_555
In3_2 N7_3 1_555 1_555
In4_3 N5_3 1_555 1_555
N3_3 C1_3 1_555 1_555
N4_3 In1_3 1_555 1_555
N5_3 C7_3 1_555 1_555
N6_3 In2_3 1_555 1_555
C7_3 N4_3 1_555 1_555
H3_3 C7_3 1_555 1_555
C8_3 C2_3 1_555 1_555
C9_3 N4_3 1_555 1_555
C10_3 N5_3 1_555 1_555
C11_3 C8_3 1_555 1_555
C12_3 C9_3 1_555 1_555
C13_3 C10_3 1_555 1_555
O5_3 In2_3 1_555 1_555
O6_3 In1_3 1_555 1_555
O7_3 In4_3 1_555 1_555
O8_3 In2_3 1_555 1_555
O9_3 C11_3 1_555 1_555
O10_3 C12_3 1_555 1_555
O11_3 C13_3 1_555 1_555
N7_3 C6_3 1_555 1_555
N8_3 In1_3 1_555 1_555
N10_3 In2_3 1_555 1_555
N11_3 In2_3 1_555 1_555
C14_3 C4_3 1_555 1_555
C15_3 N8_3 1_555 1_555
O12_3 In3_2 1_555 1_555
O13_3 In1_3 1_555 1_555
O15_3 In2_3 1_555 1_555
O16_3 In2_3 1_555 1_555
O17_3 C17_3 1_555 1_555
O18_3 C18_3 1_555 1_555
C17_3 C14_3 1_555 1_555
C18_3 C15_3 1_555 1_555
C20_6 N8_3 1_555 1_555
H4_6 C20_6 1_555 1_555
C3_3 O1_3 1_555 1_555
O3_3 C5_3 1_555 1_555
N3_3 C8_3 1_555 1_555
C9_3 C10_3 1_555 1_555
C11_3 O5_3 1_555 1_555
C12_3 O6_3 1_555 1_555
C13_3 O7_3 1_555 1_555
N7_3 C14_3 1_555 1_555
O12_3 C17_3 1_555 1_555
O13_3 C18_3 1_555 1_555
In1_4 N1_4 1_555 1_555
N1_4 C1_4 1_555 1_555
C1_4 H1_4 1_555 1_555
C2_4 N1_4 1_555 1_555
C3_4 C2_4 1_555 1_555
O1_4 In1_4 1_555 1_555
O2_4 C3_4 1_555 1_555
N2_4 In1_4 1_555 1_555
C4_4 N2_4 1_555 1_555
O3_4 In1_4 1_555 1_555
O4_4 C5_4 1_555 1_555
C5_4 C4_4 1_555 1_555
C6_4 N2_4 1_555 1_555
H2_4 C6_4 1_555 1_555
In2_4 N3_4 1_555 1_555
In5_2 N7_4 1_555 1_555
In4_4 N5_4 1_555 1_555
N3_4 C1_4 1_555 1_555
N4_4 In1_4 1_555 1_555
N5_4 C7_4 1_555 1_555
N6_4 In2_4 1_555 1_555
C7_4 N4_4 1_555 1_555
H3_4 C7_4 1_555 1_555
C8_4 C2_4 1_555 1_555
C9_4 N4_4 1_555 1_555
C10_4 N5_4 1_555 1_555
C11_4 C8_4 1_555 1_555
C12_4 C9_4 1_555 1_555
C13_4 C10_4 1_555 1_555
O5_4 In2_4 1_555 1_555
O6_4 In1_4 1_555 1_555
O7_4 In4_4 1_555 1_555
O8_4 In2_4 1_555 1_555
O9_4 C11_4 1_555 1_555
O10_4 C12_4 1_555 1_555
O11_4 C13_4 1_555 1_555
N7_4 C6_4 1_555 1_555
N8_4 In1_4 1_555 1_555
N10_4 In2_4 1_555 1_555
N11_4 In2_4 1_555 1_555
C14_4 C4_4 1_555 1_555
C15_4 N8_4 1_555 1_555
O12_4 In5_2 1_555 1_555
O13_4 In1_4 1_555 1_555
O15_4 In2_4 1_555 1_555
O16_4 In2_4 1_555 1_555
O17_4 C17_4 1_555 1_555
O18_4 C18_4 1_555 1_555
C17_4 C14_4 1_555 1_555
C18_4 C15_4 1_555 1_555
C20_7 N8_4 1_555 1_555
H4_7 C20_7 1_555 1_555
C3_4 O1_4 1_555 1_555
O3_4 C5_4 1_555 1_555
N3_4 C8_4 1_555 1_555
C9_4 C10_4 1_555 1_555
C11_4 O5_4 1_555 1_555
C12_4 O6_4 1_555 1_555
C13_4 O7_4 1_555 1_555
N7_4 C14_4 1_555 1_555
O12_4 C17_4 1_555 1_555
O13_4 C18_4 1_555 1_555
In3_2 N9_4 1_555 1_555
N9_4 C16_4 1_555 1_555
O14_4 In3_2 1_555 1_555
O19_4 C19_4 1_555 1_555
C19_4 C16_4 1_555 1_555
H4_8 C20_8 1_555 1_555
N9_4 C20_8 1_555 1_555
O14_4 C19_4 1_555 1_555
In1_5 N1_5 1_555 1_555
N1_5 C1_5 1_555 1_555
C1_5 H1_5 1_555 1_555
C2_5 N1_5 1_555 1_555
C3_5 C2_5 1_555 1_555
O1_5 In1_5 1_555 1_555
O2_5 C3_5 1_555 1_555
N2_5 In1_5 1_555 1_555
C4_5 N2_5 1_555 1_555
O3_5 In1_5 1_555 1_555
O4_5 C5_5 1_555 1_555
C5_5 C4_5 1_555 1_555
C6_5 N2_5 1_555 1_555
H2_5 C6_5 1_555 1_555
In4 N3_5 1_555 1_555
In3_3 N7_5 1_555 1_555
In4_5 N5_5 1_555 1_555
N3_5 C1_5 1_555 1_555
N4_5 In1_5 1_555 1_555
N5_5 C7_5 1_555 1_555
C7_5 N4_5 1_555 1_555
H3_5 C7_5 1_555 1_555
C8_5 C2_5 1_555 1_555
C9_5 N4_5 1_555 1_555
C10_5 N5_5 1_555 1_555
C11_5 C8_5 1_555 1_555
C12_5 C9_5 1_555 1_555
C13_5 C10_5 1_555 1_555
O5_5 In4 1_555 1_555
O6_5 In1_5 1_555 1_555
O7_5 In4_5 1_555 1_555
O9_5 C11_5 1_555 1_555
O10_5 C12_5 1_555 1_555
O11_5 C13_5 1_555 1_555
N7_5 C6_5 1_555 1_555
N8_5 In1_5 1_555 1_555
N10_5 In4 1_555 1_555
N11_5 In4 1_555 1_555
C14_5 C4_5 1_555 1_555
C15_5 N8_5 1_555 1_555
O12_5 In3_3 1_555 1_555
O13_5 In1_5 1_555 1_555
O15_5 In4 1_555 1_555
O16_5 In4 1_555 1_555
O17_5 C17_5 1_555 1_555
O18_5 C18_5 1_555 1_555
C17_5 C14_5 1_555 1_555
C18_5 C15_5 1_555 1_555
C20_9 N8_5 1_555 1_555
H4_9 C20_9 1_555 1_555
C3_5 O1_5 1_555 1_555
O3_5 C5_5 1_555 1_555
N3_5 C8_5 1_555 1_555
C9_5 C10_5 1_555 1_555
C11_5 O5_5 1_555 1_555
C12_5 O6_5 1_555 1_555
C13_5 O7_5 1_555 1_555
N7_5 C14_5 1_555 1_555
O12_5 C17_5 1_555 1_555
O13_5 C18_5 1_555 1_555
In5_3 N9_5 1_555 1_555
N9_5 C16_5 1_555 1_555
O14_5 In5_3 1_555 1_555
O19_5 C19_5 1_555 1_555
C19_5 C16_5 1_555 1_555
H4_10 C20_10 1_555 1_555
N9_5 C20_10 1_555 1_555
O14_5 C19_5 1_555 1_555
In3_3 N9_6 1_555 1_555
N9_6 C16_6 1_555 1_555
O14_6 In3_3 1_555 1_555
O19_6 C19_6 1_555 1_555
C19_6 C16_6 1_555 1_555
H4_11 C20_11 1_555 1_555
N9_6 C20_11 1_555 1_555
O14_6 C19_6 1_555 1_555
In1_6 N1_6 1_555 1_555
N1_6 C1_6 1_555 1_555
C1_6 H1_6 1_555 1_555
C2_6 N1_6 1_555 1_555
C3_6 C2_6 1_555 1_555
O1_6 In1_6 1_555 1_555
O2_6 C3_6 1_555 1_555
N2_6 In1_6 1_555 1_555
C4_6 N2_6 1_555 1_555
O3_6 In1_6 1_555 1_555
O4_6 C5_6 1_555 1_555
C5_6 C4_6 1_555 1_555
C6_6 N2_6 1_555 1_555
H2_6 C6_6 1_555 1_555
In4_4 N3_6 1_555 1_555
In5_3 N7_6 1_555 1_555
In4_6 N5_6 1_555 1_555
N3_6 C1_6 1_555 1_555
N4_6 In1_6 1_555 1_555
N5_6 C7_6 1_555 1_555
C7_6 N4_6 1_555 1_555
H3_6 C7_6 1_555 1_555
C8_6 C2_6 1_555 1_555
C9_6 N4_6 1_555 1_555
C10_6 N5_6 1_555 1_555
C11_6 C8_6 1_555 1_555
C12_6 C9_6 1_555 1_555
C13_6 C10_6 1_555 1_555
O5_6 In4_4 1_555 1_555
O6_6 In1_6 1_555 1_555
O7_6 In4_6 1_555 1_555
O9_6 C11_6 1_555 1_555
O10_6 C12_6 1_555 1_555
O11_6 C13_6 1_555 1_555
N7_6 C6_6 1_555 1_555
N8_6 In1_6 1_555 1_555
N10_6 In4_4 1_555 1_555
N11_6 In4_4 1_555 1_555
C14_6 C4_6 1_555 1_555
C15_6 N8_6 1_555 1_555
O12_6 In5_3 1_555 1_555
O13_6 In1_6 1_555 1_555
O15_6 In4_4 1_555 1_555
O16_6 In4_4 1_555 1_555
O17_6 C17_6 1_555 1_555
O18_6 C18_6 1_555 1_555
C17_6 C14_6 1_555 1_555
C18_6 C15_6 1_555 1_555
C20_12 N8_6 1_555 1_555
H4_12 C20_12 1_555 1_555
C3_6 O1_6 1_555 1_555
O3_6 C5_6 1_555 1_555
N3_6 C8_6 1_555 1_555
C9_6 C10_6 1_555 1_555
C11_6 O5_6 1_555 1_555
C12_6 O6_6 1_555 1_555
C13_6 O7_6 1_555 1_555
N7_6 C14_6 1_555 1_555
O12_6 C17_6 1_555 1_555
O13_6 C18_6 1_555 1_555
In5_4 N9_7 1_555 1_555
N9_7 C16_7 1_555 1_555
O14_7 In5_4 1_555 1_555
O19_7 C19_7 1_555 1_555
C19_7 C16_7 1_555 1_555
H4_13 C20_13 1_555 1_555
N9_7 C20_13 1_555 1_555
O14_7 C19_7 1_555 1_555
In1_7 N1_7 1_555 1_555
N1_7 C1_7 1_555 1_555
C1_7 H1_7 1_555 1_555
C2_7 N1_7 1_555 1_555
C3_7 C2_7 1_555 1_555
O1_7 In1_7 1_555 1_555
O2_7 C3_7 1_555 1_555
N2_7 In1_7 1_555 1_555
C4_7 N2_7 1_555 1_555
O3_7 In1_7 1_555 1_555
O4_7 C5_7 1_555 1_555
C5_7 C4_7 1_555 1_555
C6_7 N2_7 1_555 1_555
H2_7 C6_7 1_555 1_555
In4_2 N3_7 1_555 1_555
In3_4 N7_7 1_555 1_555
In4_7 N5_7 1_555 1_555
N3_7 C1_7 1_555 1_555
N4_7 In1_7 1_555 1_555
N5_7 C7_7 1_555 1_555
C7_7 N4_7 1_555 1_555
H3_7 C7_7 1_555 1_555
C8_7 C2_7 1_555 1_555
C9_7 N4_7 1_555 1_555
C10_7 N5_7 1_555 1_555
C11_7 C8_7 1_555 1_555
C12_7 C9_7 1_555 1_555
C13_7 C10_7 1_555 1_555
O5_7 In4_2 1_555 1_555
O6_7 In1_7 1_555 1_555
O7_7 In4_7 1_555 1_555
O9_7 C11_7 1_555 1_555
O10_7 C12_7 1_555 1_555
O11_7 C13_7 1_555 1_555
N7_7 C6_7 1_555 1_555
N8_7 In1_7 1_555 1_555
N10_7 In4_2 1_555 1_555
N11_7 In4_2 1_555 1_555
C14_7 C4_7 1_555 1_555
C15_7 N8_7 1_555 1_555
O12_7 In3_4 1_555 1_555
O13_7 In1_7 1_555 1_555
O15_7 In4_2 1_555 1_555
O16_7 In4_2 1_555 1_555
O17_7 C17_7 1_555 1_555
O18_7 C18_7 1_555 1_555
C17_7 C14_7 1_555 1_555
C18_7 C15_7 1_555 1_555
C20_14 N8_7 1_555 1_555
H4_14 C20_14 1_555 1_555
C3_7 O1_7 1_555 1_555
O3_7 C5_7 1_555 1_555
N3_7 C8_7 1_555 1_555
C9_7 C10_7 1_555 1_555
C11_7 O5_7 1_555 1_555
C12_7 O6_7 1_555 1_555
C13_7 O7_7 1_555 1_555
N7_7 C14_7 1_555 1_555
O12_7 C17_7 1_555 1_555
O13_7 C18_7 1_555 1_555
In1_8 N1_8 1_555 1_555
N1_8 C1_8 1_555 1_555
C1_8 H1_8 1_555 1_555
C2_8 N1_8 1_555 1_555
C3_8 C2_8 1_555 1_555
O1_8 In1_8 1_555 1_555
O2_8 C3_8 1_555 1_555
N2_8 In1_8 1_555 1_555
C4_8 N2_8 1_555 1_555
O3_8 In1_8 1_555 1_555
O4_8 C5_8 1_555 1_555
C5_8 C4_8 1_555 1_555
C6_8 N2_8 1_555 1_555
H2_8 C6_8 1_555 1_555
In4_3 N3_8 1_555 1_555
In5_4 N7_8 1_555 1_555
In4_8 N5_8 1_555 1_555
N3_8 C1_8 1_555 1_555
N4_8 In1_8 1_555 1_555
N5_8 C7_8 1_555 1_555
C7_8 N4_8 1_555 1_555
H3_8 C7_8 1_555 1_555
C8_8 C2_8 1_555 1_555
C9_8 N4_8 1_555 1_555
C10_8 N5_8 1_555 1_555
C11_8 C8_8 1_555 1_555
C12_8 C9_8 1_555 1_555
C13_8 C10_8 1_555 1_555
O5_8 In4_3 1_555 1_555
O6_8 In1_8 1_555 1_555
O7_8 In4_8 1_555 1_555
O9_8 C11_8 1_555 1_555
O10_8 C12_8 1_555 1_555
O11_8 C13_8 1_555 1_555
N7_8 C6_8 1_555 1_555
N8_8 In1_8 1_555 1_555
N10_8 In4_3 1_555 1_555
N11_8 In4_3 1_555 1_555
C14_8 C4_8 1_555 1_555
C15_8 N8_8 1_555 1_555
O12_8 In5_4 1_555 1_555
O13_8 In1_8 1_555 1_555
O15_8 In4_3 1_555 1_555
O16_8 In4_3 1_555 1_555
O17_8 C17_8 1_555 1_555
O18_8 C18_8 1_555 1_555
C17_8 C14_8 1_555 1_555
C18_8 C15_8 1_555 1_555
C20_15 N8_8 1_555 1_555
H4_15 C20_15 1_555 1_555
C3_8 O1_8 1_555 1_555
O3_8 C5_8 1_555 1_555
N3_8 C8_8 1_555 1_555
C9_8 C10_8 1_555 1_555
C11_8 O5_8 1_555 1_555
C12_8 O6_8 1_555 1_555
C13_8 O7_8 1_555 1_555
N7_8 C14_8 1_555 1_555
O12_8 C17_8 1_555 1_555
O13_8 C18_8 1_555 1_555
In3_4 N9_8 1_555 1_555
N9_8 C16_8 1_555 1_555
O14_8 In3_4 1_555 1_555
O19_8 C19_8 1_555 1_555
C19_8 C16_8 1_555 1_555
H4_16 C20_16 1_555 1_555
N9_8 C20_16 1_555 1_555
O14_8 C19_8 1_555 1_555
In1_9 N1_9 1_555 1_555
N1_9 C1_9 1_555 1_555
C1_9 H1_9 1_555 1_555
C2_9 N1_9 1_555 1_555
C3_9 C2_9 1_555 1_555
O1_9 In1_9 1_555 1_555
O2_9 C3_9 1_555 1_555
N2_9 In1_9 1_555 1_555
C4_9 N2_9 1_555 1_555
O3_9 In1_9 1_555 1_555
O4_9 C5_9 1_555 1_555
C5_9 C4_9 1_555 1_555
C6_9 N2_9 1_555 1_555
H2_9 C6_9 1_555 1_555
In4_5 N3_9 1_555 1_555
In3_5 N7_9 1_555 1_555
N3_9 C1_9 1_555 1_555
N4_9 In1_9 1_555 1_555
N6 C7_9 1_555 1_555
C7_9 N4_9 1_555 1_555
H3_9 C7_9 1_555 1_555
C8_9 C2_9 1_555 1_555
C9_9 N4_9 1_555 1_555
C10_9 N6 1_555 1_555
C11_9 C8_9 1_555 1_555
C12_9 C9_9 1_555 1_555
C13_9 C10_9 1_555 1_555
O5_9 In4_5 1_555 1_555
O6_9 In1_9 1_555 1_555
O9_9 C11_9 1_555 1_555
O10_9 C12_9 1_555 1_555
O11_9 C13_9 1_555 1_555
N7_9 C6_9 1_555 1_555
N8_9 In1_9 1_555 1_555
N10_9 In4_5 1_555 1_555
N11_9 In4_5 1_555 1_555
C14_9 C4_9 1_555 1_555
C15_9 N8_9 1_555 1_555
O12_9 In3_5 1_555 1_555
O13_9 In1_9 1_555 1_555
O15_9 In4_5 1_555 1_555
O16_9 In4_5 1_555 1_555
O17_9 C17_9 1_555 1_555
O18_9 C18_9 1_555 1_555
C17_9 C14_9 1_555 1_555
C18_9 C15_9 1_555 1_555
C20_17 N8_9 1_555 1_555
H4_17 C20_17 1_555 1_555
C3_9 O1_9 1_555 1_555
O3_9 C5_9 1_555 1_555
N3_9 C8_9 1_555 1_555
C9_9 C10_9 1_555 1_555
C11_9 O5_9 1_555 1_555
C12_9 O6_9 1_555 1_555
C13_9 O8 1_555 1_555
N7_9 C14_9 1_555 1_555
O12_9 C17_9 1_555 1_555
O13_9 C18_9 1_555 1_555
In5_5 N9_9 1_555 1_555
N9_9 C16_9 1_555 1_555
O14_9 In5_5 1_555 1_555
O19_9 C19_9 1_555 1_555
C19_9 C16_9 1_555 1_555
H4_18 C20_18 1_555 1_555
N9_9 C20_18 1_555 1_555
O14_9 C19_9 1_555 1_555
In3_5 N9_10 1_555 1_555
N9_10 C16_10 1_555 1_555
O14_10 In3_5 1_555 1_555
O19_10 C19_10 1_555 1_555
C19_10 C16_10 1_555 1_555
H4_19 C20_19 1_555 1_555
N9_10 C20_19 1_555 1_555
O14_10 C19_10 1_555 1_555
In1_10 N1_10 1_555 1_555
N1_10 C1_10 1_555 1_555
C1_10 H1_10 1_555 1_555
C2_10 N1_10 1_555 1_555
C3_10 C2_10 1_555 1_555
O1_10 In1_10 1_555 1_555
O2_10 C3_10 1_555 1_555
N2_10 In1_10 1_555 1_555
C4_10 N2_10 1_555 1_555
O3_10 In1_10 1_555 1_555
O4_10 C5_10 1_555 1_555
C5_10 C4_10 1_555 1_555
C6_10 N2_10 1_555 1_555
H2_10 C6_10 1_555 1_555
In4_8 N3_10 1_555 1_555
In5_5 N7_10 1_555 1_555
N3_10 C1_10 1_555 1_555
N4_10 In1_10 1_555 1_555
N6_3 C7_10 1_555 1_555
C7_10 N4_10 1_555 1_555
H3_10 C7_10 1_555 1_555
C8_10 C2_10 1_555 1_555
C9_10 N4_10 1_555 1_555
C10_10 N6_3 1_555 1_555
C11_10 C8_10 1_555 1_555
C12_10 C9_10 1_555 1_555
C13_10 C10_10 1_555 1_555
O5_10 In4_8 1_555 1_555
O6_10 In1_10 1_555 1_555
O9_10 C11_10 1_555 1_555
O10_10 C12_10 1_555 1_555
O11_10 C13_10 1_555 1_555
N7_10 C6_10 1_555 1_555
N8_10 In1_10 1_555 1_555
N10_10 In4_8 1_555 1_555
N11_10 In4_8 1_555 1_555
C14_10 C4_10 1_555 1_555
C15_10 N8_10 1_555 1_555
O12_10 In5_5 1_555 1_555
O13_10 In1_10 1_555 1_555
O15_10 In4_8 1_555 1_555
O16_10 In4_8 1_555 1_555
O17_10 C17_10 1_555 1_555
O18_10 C18_10 1_555 1_555
C17_10 C14_10 1_555 1_555
C18_10 C15_10 1_555 1_555
C20_20 N8_10 1_555 1_555
H4_20 C20_20 1_555 1_555
C3_10 O1_10 1_555 1_555
O3_10 C5_10 1_555 1_555
N3_10 C8_10 1_555 1_555
C9_10 C10_10 1_555 1_555
C11_10 O5_10 1_555 1_555
C12_10 O6_10 1_555 1_555
C13_10 O8_3 1_555 1_555
N7_10 C14_10 1_555 1_555
O12_10 C17_10 1_555 1_555
O13_10 C18_10 1_555 1_555
In5_6 N9_11 1_555 1_555
N9_11 C16_11 1_555 1_555
O14_11 In5_6 1_555 1_555
O19_11 C19_11 1_555 1_555
C19_11 C16_11 1_555 1_555
H4_21 C20_21 1_555 1_555
N9_11 C20_21 1_555 1_555
O14_11 C19_11 1_555 1_555
In1_11 N1_11 1_555 1_555
N1_11 C1_11 1_555 1_555
C1_11 H1_11 1_555 1_555
C2_11 N1_11 1_555 1_555
C3_11 C2_11 1_555 1_555
O1_11 In1_11 1_555 1_555
O2_11 C3_11 1_555 1_555
N2_11 In1_11 1_555 1_555
C4_11 N2_11 1_555 1_555
O3_11 In1_11 1_555 1_555
O4_11 C5_11 1_555 1_555
C5_11 C4_11 1_555 1_555
C6_11 N2_11 1_555 1_555
H2_11 C6_11 1_555 1_555
In4_6 N3_11 1_555 1_555
In3_6 N7_11 1_555 1_555
N3_11 C1_11 1_555 1_555
N4_11 In1_11 1_555 1_555
N6_4 C7_11 1_555 1_555
C7_11 N4_11 1_555 1_555
H3_11 C7_11 1_555 1_555
C8_11 C2_11 1_555 1_555
C9_11 N4_11 1_555 1_555
C10_11 N6_4 1_555 1_555
C11_11 C8_11 1_555 1_555
C12_11 C9_11 1_555 1_555
C13_11 C10_11 1_555 1_555
O5_11 In4_6 1_555 1_555
O6_11 In1_11 1_555 1_555
O9_11 C11_11 1_555 1_555
O10_11 C12_11 1_555 1_555
O11_11 C13_11 1_555 1_555
N7_11 C6_11 1_555 1_555
N8_11 In1_11 1_555 1_555
N10_11 In4_6 1_555 1_555
N11_11 In4_6 1_555 1_555
C14_11 C4_11 1_555 1_555
C15_11 N8_11 1_555 1_555
O12_11 In3_6 1_555 1_555
O13_11 In1_11 1_555 1_555
O15_11 In4_6 1_555 1_555
O16_11 In4_6 1_555 1_555
O17_11 C17_11 1_555 1_555
O18_11 C18_11 1_555 1_555
C17_11 C14_11 1_555 1_555
C18_11 C15_11 1_555 1_555
C20_22 N8_11 1_555 1_555
H4_22 C20_22 1_555 1_555
C3_11 O1_11 1_555 1_555
O3_11 C5_11 1_555 1_555
N3_11 C8_11 1_555 1_555
C9_11 C10_11 1_555 1_555
C11_11 O5_11 1_555 1_555
C12_11 O6_11 1_555 1_555
C13_11 O8_4 1_555 1_555
N7_11 C14_11 1_555 1_555
O12_11 C17_11 1_555 1_555
O13_11 C18_11 1_555 1_555
In1_12 N1_12 1_555 1_555
N1_12 C1_12 1_555 1_555
C1_12 H1_12 1_555 1_555
C2_12 N1_12 1_555 1_555
C3_12 C2_12 1_555 1_555
O1_12 In1_12 1_555 1_555
O2_12 C3_12 1_555 1_555
N2_12 In1_12 1_555 1_555
C4_12 N2_12 1_555 1_555
O3_12 In1_12 1_555 1_555
O4_12 C5_12 1_555 1_555
C5_12 C4_12 1_555 1_555
C6_12 N2_12 1_555 1_555
H2_12 C6_12 1_555 1_555
In4_7 N3_12 1_555 1_555
In5_6 N7_12 1_555 1_555
N3_12 C1_12 1_555 1_555
N4_12 In1_12 1_555 1_555
N6_2 C7_12 1_555 1_555
C7_12 N4_12 1_555 1_555
H3_12 C7_12 1_555 1_555
C8_12 C2_12 1_555 1_555
C9_12 N4_12 1_555 1_555
C10_12 N6_2 1_555 1_555
C11_12 C8_12 1_555 1_555
C12_12 C9_12 1_555 1_555
C13_12 C10_12 1_555 1_555
O5_12 In4_7 1_555 1_555
O6_12 In1_12 1_555 1_555
O9_12 C11_12 1_555 1_555
O10_12 C12_12 1_555 1_555
O11_12 C13_12 1_555 1_555
N7_12 C6_12 1_555 1_555
N8_12 In1_12 1_555 1_555
N10_12 In4_7 1_555 1_555
N11_12 In4_7 1_555 1_555
C14_12 C4_12 1_555 1_555
C15_12 N8_12 1_555 1_555
O12_12 In5_6 1_555 1_555
O13_12 In1_12 1_555 1_555
O15_12 In4_7 1_555 1_555
O16_12 In4_7 1_555 1_555
O17_12 C17_12 1_555 1_555
O18_12 C18_12 1_555 1_555
C17_12 C14_12 1_555 1_555
C18_12 C15_12 1_555 1_555
C20_23 N8_12 1_555 1_555
H4_23 C20_23 1_555 1_555
C3_12 O1_12 1_555 1_555
O3_12 C5_12 1_555 1_555
N3_12 C8_12 1_555 1_555
C9_12 C10_12 1_555 1_555
C11_12 O5_12 1_555 1_555
C12_12 O6_12 1_555 1_555
C13_12 O8_2 1_555 1_555
N7_12 C14_12 1_555 1_555
O12_12 C17_12 1_555 1_555
O13_12 C18_12 1_555 1_555
In3_6 N9_12 1_555 1_555
N9_12 C16_12 1_555 1_555
O14_12 In3_6 1_555 1_555
O19_12 C19_12 1_555 1_555
C19_12 C16_12 1_555 1_555
H4_24 C20_24 1_555 1_555
N9_12 C20_24 1_555 1_555
O14_12 C19_12 1_555 1_555
In1_13 N1_13 1_555 1_555
N1_13 C1_13 1_555 1_555
C1_13 H1_13 1_555 1_555
C2_13 N1_13 1_555 1_555
C3_13 C2_13 1_555 1_555
O1_13 In1_13 1_555 1_555
O2_13 C3_13 1_555 1_555
N2_13 In1_13 1_555 1_555
C4_13 N2_13 1_555 1_555
O3_13 In1_13 1_555 1_555
O4_13 C5_13 1_555 1_555
C5_13 C4_13 1_555 1_555
C6_13 N2_13 1_555 1_555
H2_13 C6_13 1_555 1_555
In5_5 N3_13 1_555 1_555
In3_3 N5_9 1_555 1_555
N3_13 C1_13 1_555 1_555
N4_13 In1_13 1_555 1_555
N5_9 C7_13 1_555 1_555
N6_5 In5_5 1_555 1_555
C7_13 N4_13 1_555 1_555
H3_13 C7_13 1_555 1_555
C8_13 C2_13 1_555 1_555
C9_13 N4_13 1_555 1_555
C10_13 N5_9 1_555 1_555
C11_13 C8_13 1_555 1_555
C12_13 C9_13 1_555 1_555
C13_13 C10_13 1_555 1_555
O5_13 In5_5 1_555 1_555
O6_13 In1_13 1_555 1_555
O7_9 In3_3 1_555 1_555
O8_5 In5_5 1_555 1_555
O9_13 C11_13 1_555 1_555
O10_13 C12_13 1_555 1_555
O11_13 C13_13 1_555 1_555
N10_10 C6_13 1_555 1_555
N8_13 In1_13 1_555 1_555
C14_13 C4_13 1_555 1_555
C15_13 N8_13 1_555 1_555
O13_13 In1_13 1_555 1_555
O17_13 C17_13 1_555 1_555
O18_13 C18_13 1_555 1_555
C17_13 C14_13 1_555 1_555
C18_13 C15_13 1_555 1_555
C20_25 N8_13 1_555 1_555
H4_25 C20_25 1_555 1_555
C3_13 O1_13 1_555 1_555
O3_13 C5_13 1_555 1_555
N3_13 C8_13 1_555 1_555
C9_13 C10_13 1_555 1_555
C11_13 O5_13 1_555 1_555
C12_13 O6_13 1_555 1_555
C13_13 O7_9 1_555 1_555
N10_10 C14_13 1_555 1_555
O16_10 C17_13 1_555 1_555
O13_13 C18_13 1_555 1_555
N11_11 C16_13 1_555 1_555
O19_13 C19_13 1_555 1_555
C19_13 C16_13 1_555 1_555
H4_26 C20_26 1_555 1_555
N11_11 C20_26 1_555 1_555
O15_11 C19_13 1_555 1_555
N11_10 C16_14 1_555 1_555
O19_14 C19_14 1_555 1_555
C19_14 C16_14 1_555 1_555
H4_27 C20_27 1_555 1_555
N11_10 C20_27 1_555 1_555
O15_10 C19_14 1_555 1_555
In1_14 N1_14 1_555 1_555
N1_14 C1_14 1_555 1_555
C1_14 H1_14 1_555 1_555
C2_14 N1_14 1_555 1_555
C3_14 C2_14 1_555 1_555
O1_14 In1_14 1_555 1_555
O2_14 C3_14 1_555 1_555
N2_14 In1_14 1_555 1_555
C4_14 N2_14 1_555 1_555
O3_14 In1_14 1_555 1_555
O4_14 C5_14 1_555 1_555
C5_14 C4_14 1_555 1_555
C6_14 N2_14 1_555 1_555
H2_14 C6_14 1_555 1_555
In3_6 N3_14 1_555 1_555
In3_4 N5_10 1_555 1_555
N3_14 C1_14 1_555 1_555
N4_14 In1_14 1_555 1_555
N5_10 C7_14 1_555 1_555
N6_6 In3_6 1_555 1_555
C7_14 N4_14 1_555 1_555
H3_14 C7_14 1_555 1_555
C8_14 C2_14 1_555 1_555
C9_14 N4_14 1_555 1_555
C10_14 N5_10 1_555 1_555
C11_14 C8_14 1_555 1_555
C12_14 C9_14 1_555 1_555
C13_14 C10_14 1_555 1_555
O5_14 In3_6 1_555 1_555
O6_14 In1_14 1_555 1_555
O7_10 In3_4 1_555 1_555
O8_6 In3_6 1_555 1_555
O9_14 C11_14 1_555 1_555
O10_14 C12_14 1_555 1_555
O11_14 C13_14 1_555 1_555
N10_11 C6_14 1_555 1_555
N8_14 In1_14 1_555 1_555
C14_14 C4_14 1_555 1_555
C15_14 N8_14 1_555 1_555
O13_14 In1_14 1_555 1_555
O17_14 C17_14 1_555 1_555
O18_14 C18_14 1_555 1_555
C17_14 C14_14 1_555 1_555
C18_14 C15_14 1_555 1_555
C20_28 N8_14 1_555 1_555
H4_28 C20_28 1_555 1_555
C3_14 O1_14 1_555 1_555
O3_14 C5_14 1_555 1_555
N3_14 C8_14 1_555 1_555
C9_14 C10_14 1_555 1_555
C11_14 O5_14 1_555 1_555
C12_14 O6_14 1_555 1_555
C13_14 O7_10 1_555 1_555
N10_11 C14_14 1_555 1_555
O16_11 C17_14 1_555 1_555
O13_14 C18_14 1_555 1_555
N11_9 C16_15 1_555 1_555
O19_15 C19_15 1_555 1_555
C19_15 C16_15 1_555 1_555
H4_29 C20_29 1_555 1_555
N11_9 C20_29 1_555 1_555
O15_9 C19_15 1_555 1_555
In1_15 N1_15 1_555 1_555
N1_15 C1_15 1_555 1_555
C1_15 H1_15 1_555 1_555
C2_15 N1_15 1_555 1_555
C3_15 C2_15 1_555 1_555
O1_15 In1_15 1_555 1_555
O2_15 C3_15 1_555 1_555
N2_15 In1_15 1_555 1_555
C4_15 N2_15 1_555 1_555
O3_15 In1_15 1_555 1_555
O4_15 C5_15 1_555 1_555
C5_15 C4_15 1_555 1_555
C6_15 N2_15 1_555 1_555
H2_15 C6_15 1_555 1_555
In5_6 N3_15 1_555 1_555
In5_3 N5_11 1_555 1_555
N3_15 C1_15 1_555 1_555
N4_15 In1_15 1_555 1_555
N5_11 C7_15 1_555 1_555
N6_7 In5_6 1_555 1_555
C7_15 N4_15 1_555 1_555
H3_15 C7_15 1_555 1_555
C8_15 C2_15 1_555 1_555
C9_15 N4_15 1_555 1_555
C10_15 N5_11 1_555 1_555
C11_15 C8_15 1_555 1_555
C12_15 C9_15 1_555 1_555
C13_15 C10_15 1_555 1_555
O5_15 In5_6 1_555 1_555
O6_15 In1_15 1_555 1_555
O7_11 In5_3 1_555 1_555
O8_7 In5_6 1_555 1_555
O9_15 C11_15 1_555 1_555
O10_15 C12_15 1_555 1_555
O11_15 C13_15 1_555 1_555
N10_12 C6_15 1_555 1_555
N8_15 In1_15 1_555 1_555
C14_15 C4_15 1_555 1_555
C15_15 N8_15 1_555 1_555
O13_15 In1_15 1_555 1_555
O17_15 C17_15 1_555 1_555
O18_15 C18_15 1_555 1_555
C17_15 C14_15 1_555 1_555
C18_15 C15_15 1_555 1_555
C20_30 N8_15 1_555 1_555
H4_30 C20_30 1_555 1_555
C3_15 O1_15 1_555 1_555
O3_15 C5_15 1_555 1_555
N3_15 C8_15 1_555 1_555
C9_15 C10_15 1_555 1_555
C11_15 O5_15 1_555 1_555
C12_15 O6_15 1_555 1_555
C13_15 O7_11 1_555 1_555
N10_12 C14_15 1_555 1_555
O16_12 C17_15 1_555 1_555
O13_15 C18_15 1_555 1_555
In1_16 N1_16 1_555 1_555
N1_16 C1_16 1_555 1_555
C1_16 H1_16 1_555 1_555
C2_16 N1_16 1_555 1_555
C3_16 C2_16 1_555 1_555
O1_16 In1_16 1_555 1_555
O2_16 C3_16 1_555 1_555
N2_16 In1_16 1_555 1_555
C4_16 N2_16 1_555 1_555
O3_16 In1_16 1_555 1_555
O4_16 C5_16 1_555 1_555
C5_16 C4_16 1_555 1_555
C6_16 N2_16 1_555 1_555
H2_16 C6_16 1_555 1_555
In3_5 N3_16 1_555 1_555
In5_4 N5_12 1_555 1_555
N3_16 C1_16 1_555 1_555
N4_16 In1_16 1_555 1_555
N5_12 C7_16 1_555 1_555
N6_8 In3_5 1_555 1_555
C7_16 N4_16 1_555 1_555
H3_16 C7_16 1_555 1_555
C8_16 C2_16 1_555 1_555
C9_16 N4_16 1_555 1_555
C10_16 N5_12 1_555 1_555
C11_16 C8_16 1_555 1_555
C12_16 C9_16 1_555 1_555
C13_16 C10_16 1_555 1_555
O5_16 In3_5 1_555 1_555
O6_16 In1_16 1_555 1_555
O7_12 In5_4 1_555 1_555
O8_8 In3_5 1_555 1_555
O9_16 C11_16 1_555 1_555
O10_16 C12_16 1_555 1_555
O11_16 C13_16 1_555 1_555
N10_9 C6_16 1_555 1_555
N8_16 In1_16 1_555 1_555
C14_16 C4_16 1_555 1_555
C15_16 N8_16 1_555 1_555
O13_16 In1_16 1_555 1_555
O17_16 C17_16 1_555 1_555
O18_16 C18_16 1_555 1_555
C17_16 C14_16 1_555 1_555
C18_16 C15_16 1_555 1_555
C20_31 N8_16 1_555 1_555
H4_31 C20_31 1_555 1_555
C3_16 O1_16 1_555 1_555
O3_16 C5_16 1_555 1_555
N3_16 C8_16 1_555 1_555
C9_16 C10_16 1_555 1_555
C11_16 O5_16 1_555 1_555
C12_16 O6_16 1_555 1_555
C13_16 O7_12 1_555 1_555
N10_9 C14_16 1_555 1_555
O16_9 C17_16 1_555 1_555
O13_16 C18_16 1_555 1_555
N11_12 C16_16 1_555 1_555
O19_16 C19_16 1_555 1_555
C19_16 C16_16 1_555 1_555
H4_32 C20_32 1_555 1_555
N11_12 C20_32 1_555 1_555
O15_12 C19_16 1_555 1_555
In1_17 N1_17 1_555 1_555
N1_17 C1_17 1_555 1_555
C1_17 H1_17 1_555 1_555
C2_17 N1_17 1_555 1_555
C3_17 C2_17 1_555 1_555
O1_17 In1_17 1_555 1_555
O2_17 C3_17 1_555 1_555
N2_17 In1_17 1_555 1_555
C4_17 N2_17 1_555 1_555
O3_17 In1_17 1_555 1_555
O4_17 C5_17 1_555 1_555
C5_17 C4_17 1_555 1_555
C6_17 N2_17 1_555 1_555
H2_17 C6_17 1_555 1_555
In3_3 N3_17 1_555 1_555
In5_2 N5_13 1_555 1_555
N3_17 C1_17 1_555 1_555
N4_17 In1_17 1_555 1_555
N5_13 C7_17 1_555 1_555
C7_17 N4_17 1_555 1_555
H3_17 C7_17 1_555 1_555
C8_17 C2_17 1_555 1_555
C9_17 N4_17 1_555 1_555
C10_17 N5_13 1_555 1_555
C11_17 C8_17 1_555 1_555
C12_17 C9_17 1_555 1_555
C13_17 C10_17 1_555 1_555
O5_17 In3_3 1_555 1_555
O6_17 In1_17 1_555 1_555
O7_13 In5_2 1_555 1_555
O9_17 C11_17 1_555 1_555
O10_17 C12_17 1_555 1_555
O11_17 C13_17 1_555 1_555
N10_5 C6_17 1_555 1_555
N8_17 In1_17 1_555 1_555
C14_17 C4_17 1_555 1_555
C15_17 N8_17 1_555 1_555
O13_17 In1_17 1_555 1_555
O17_17 C17_17 1_555 1_555
O18_17 C18_17 1_555 1_555
C17_17 C14_17 1_555 1_555
C18_17 C15_17 1_555 1_555
C20_33 N8_17 1_555 1_555
H4_33 C20_33 1_555 1_555
C3_17 O1_17 1_555 1_555
O3_17 C5_17 1_555 1_555
N3_17 C8_17 1_555 1_555
C9_17 C10_17 1_555 1_555
C11_17 O5_17 1_555 1_555
C12_17 O6_17 1_555 1_555
C13_17 O7_13 1_555 1_555
N10_5 C14_17 1_555 1_555
O16_5 C17_17 1_555 1_555
O13_17 C18_17 1_555 1_555
N11_8 C16_17 1_555 1_555
O19_17 C19_17 1_555 1_555
C19_17 C16_17 1_555 1_555
H4_34 C20_34 1_555 1_555
N11_8 C20_34 1_555 1_555
O15_8 C19_17 1_555 1_555
N11_5 C16_18 1_555 1_555
O19_18 C19_18 1_555 1_555
C19_18 C16_18 1_555 1_555
H4_35 C20_35 1_555 1_555
N11_5 C20_35 1_555 1_555
O15_5 C19_18 1_555 1_555
In1_18 N1_18 1_555 1_555
N1_18 C1_18 1_555 1_555
C1_18 H1_18 1_555 1_555
C2_18 N1_18 1_555 1_555
C3_18 C2_18 1_555 1_555
O1_18 In1_18 1_555 1_555
O2_18 C3_18 1_555 1_555
N2_18 In1_18 1_555 1_555
C4_18 N2_18 1_555 1_555
O3_18 In1_18 1_555 1_555
O4_18 C5_18 1_555 1_555
C5_18 C4_18 1_555 1_555
C6_18 N2_18 1_555 1_555
H2_18 C6_18 1_555 1_555
In5_4 N3_18 1_555 1_555
In5 N5_14 1_555 1_555
N3_18 C1_18 1_555 1_555
N4_18 In1_18 1_555 1_555
N5_14 C7_18 1_555 1_555
C7_18 N4_18 1_555 1_555
H3_18 C7_18 1_555 1_555
C8_18 C2_18 1_555 1_555
C9_18 N4_18 1_555 1_555
C10_18 N5_14 1_555 1_555
C11_18 C8_18 1_555 1_555
C12_18 C9_18 1_555 1_555
C13_18 C10_18 1_555 1_555
O5_18 In5_4 1_555 1_555
O6_18 In1_18 1_555 1_555
O7_14 In5 1_555 1_555
O9_18 C11_18 1_555 1_555
O10_18 C12_18 1_555 1_555
O11_18 C13_18 1_555 1_555
N10_8 C6_18 1_555 1_555
N8_18 In1_18 1_555 1_555
C14_18 C4_18 1_555 1_555
C15_18 N8_18 1_555 1_555
O13_18 In1_18 1_555 1_555
O17_18 C17_18 1_555 1_555
O18_18 C18_18 1_555 1_555
C17_18 C14_18 1_555 1_555
C18_18 C15_18 1_555 1_555
C20_36 N8_18 1_555 1_555
H4_36 C20_36 1_555 1_555
C3_18 O1_18 1_555 1_555
O3_18 C5_18 1_555 1_555
N3_18 C8_18 1_555 1_555
C9_18 C10_18 1_555 1_555
C11_18 O5_18 1_555 1_555
C12_18 O6_18 1_555 1_555
C13_18 O7_14 1_555 1_555
N10_8 C14_18 1_555 1_555
O16_8 C17_18 1_555 1_555
O13_18 C18_18 1_555 1_555
N11_6 C16_19 1_555 1_555
O19_19 C19_19 1_555 1_555
C19_19 C16_19 1_555 1_555
H4_37 C20_37 1_555 1_555
N11_6 C20_37 1_555 1_555
O15_6 C19_19 1_555 1_555
In1_19 N1_19 1_555 1_555
N1_19 C1_19 1_555 1_555
C1_19 H1_19 1_555 1_555
C2_19 N1_19 1_555 1_555
C3_19 C2_19 1_555 1_555
O1_19 In1_19 1_555 1_555
O2_19 C3_19 1_555 1_555
N2_19 In1_19 1_555 1_555
C4_19 N2_19 1_555 1_555
O3_19 In1_19 1_555 1_555
O4_19 C5_19 1_555 1_555
C5_19 C4_19 1_555 1_555
C6_19 N2_19 1_555 1_555
H2_19 C6_19 1_555 1_555
In3_4 N3_19 1_555 1_555
In3_2 N5_15 1_555 1_555
N3_19 C1_19 1_555 1_555
N4_19 In1_19 1_555 1_555
N5_15 C7_19 1_555 1_555
C7_19 N4_19 1_555 1_555
H3_19 C7_19 1_555 1_555
C8_19 C2_19 1_555 1_555
C9_19 N4_19 1_555 1_555
C10_19 N5_15 1_555 1_555
C11_19 C8_19 1_555 1_555
C12_19 C9_19 1_555 1_555
C13_19 C10_19 1_555 1_555
O5_19 In3_4 1_555 1_555
O6_19 In1_19 1_555 1_555
O7_15 In3_2 1_555 1_555
O9_19 C11_19 1_555 1_555
O10_19 C12_19 1_555 1_555
O11_19 C13_19 1_555 1_555
N10_7 C6_19 1_555 1_555
N8_19 In1_19 1_555 1_555
C14_19 C4_19 1_555 1_555
C15_19 N8_19 1_555 1_555
O13_19 In1_19 1_555 1_555
O17_19 C17_19 1_555 1_555
O18_19 C18_19 1_555 1_555
C17_19 C14_19 1_555 1_555
C18_19 C15_19 1_555 1_555
C20_38 N8_19 1_555 1_555
H4_38 C20_38 1_555 1_555
C3_19 O1_19 1_555 1_555
O3_19 C5_19 1_555 1_555
N3_19 C8_19 1_555 1_555
C9_19 C10_19 1_555 1_555
C11_19 O5_19 1_555 1_555
C12_19 O6_19 1_555 1_555
C13_19 O7_15 1_555 1_555
N10_7 C14_19 1_555 1_555
O16_7 C17_19 1_555 1_555
O13_19 C18_19 1_555 1_555
In1_20 N1_20 1_555 1_555
N1_20 C1_20 1_555 1_555
C1_20 H1_20 1_555 1_555
C2_20 N1_20 1_555 1_555
C3_20 C2_20 1_555 1_555
O1_20 In1_20 1_555 1_555
O2_20 C3_20 1_555 1_555
N2_20 In1_20 1_555 1_555
C4_20 N2_20 1_555 1_555
O3_20 In1_20 1_555 1_555
O4_20 C5_20 1_555 1_555
C5_20 C4_20 1_555 1_555
C6_20 N2_20 1_555 1_555
H2_20 C6_20 1_555 1_555
In5_3 N3_20 1_555 1_555
In3 N5_16 1_555 1_555
N3_20 C1_20 1_555 1_555
N4_20 In1_20 1_555 1_555
N5_16 C7_20 1_555 1_555
C7_20 N4_20 1_555 1_555
H3_20 C7_20 1_555 1_555
C8_20 C2_20 1_555 1_555
C9_20 N4_20 1_555 1_555
C10_20 N5_16 1_555 1_555
C11_20 C8_20 1_555 1_555
C12_20 C9_20 1_555 1_555
C13_20 C10_20 1_555 1_555
O5_20 In5_3 1_555 1_555
O6_20 In1_20 1_555 1_555
O7_16 In3 1_555 1_555
O9_20 C11_20 1_555 1_555
O10_20 C12_20 1_555 1_555
O11_20 C13_20 1_555 1_555
N10_6 C6_20 1_555 1_555
N8_20 In1_20 1_555 1_555
C14_20 C4_20 1_555 1_555
C15_20 N8_20 1_555 1_555
O13_20 In1_20 1_555 1_555
O17_20 C17_20 1_555 1_555
O18_20 C18_20 1_555 1_555
C17_20 C14_20 1_555 1_555
C18_20 C15_20 1_555 1_555
C20_39 N8_20 1_555 1_555
H4_39 C20_39 1_555 1_555
C3_20 O1_20 1_555 1_555
O3_20 C5_20 1_555 1_555
N3_20 C8_20 1_555 1_555
C9_20 C10_20 1_555 1_555
C11_20 O5_20 1_555 1_555
C12_20 O6_20 1_555 1_555
C13_20 O7_16 1_555 1_555
N10_6 C14_20 1_555 1_555
O16_6 C17_20 1_555 1_555
O13_20 C18_20 1_555 1_555
N11_7 C16_20 1_555 1_555
O19_20 C19_20 1_555 1_555
C19_20 C16_20 1_555 1_555
H4_40 C20_40 1_555 1_555
N11_7 C20_40 1_555 1_555
O15_7 C19_20 1_555 1_555
N11 C16_21 1_555 1_555
O19_21 C19_21 1_555 1_555
C19_21 C16_21 1_555 1_555
H4_41 C20_41 1_555 1_555
N11 C20_41 1_555 1_555
O15 C19_21 1_555 1_555
In1_21 N1_21 1_555 1_555
N1_21 C1_21 1_555 1_555
C1_21 H1_21 1_555 1_555
C2_21 N1_21 1_555 1_555
C3_21 C2_21 1_555 1_555
O1_21 In1_21 1_555 1_555
O2_21 C3_21 1_555 1_555
N2_21 In1_21 1_555 1_555
C4_21 N2_21 1_555 1_555
O3_21 In1_21 1_555 1_555
O4_21 C5_21 1_555 1_555
C5_21 C4_21 1_555 1_555
C6_21 N2_21 1_555 1_555
H2_21 C6_21 1_555 1_555
In5_2 N3_21 1_555 1_555
N3_21 C1_21 1_555 1_555
N4_21 In1_21 1_555 1_555
N6_5 C7_21 1_555 1_555
C7_21 N4_21 1_555 1_555
H3_21 C7_21 1_555 1_555
C8_21 C2_21 1_555 1_555
C9_21 N4_21 1_555 1_555
C10_21 N6_5 1_555 1_555
C11_21 C8_21 1_555 1_555
C12_21 C9_21 1_555 1_555
C13_21 C10_21 1_555 1_555
O5_21 In5_2 1_555 1_555
O6_21 In1_21 1_555 1_555
O9_21 C11_21 1_555 1_555
O10_21 C12_21 1_555 1_555
O11_21 C13_21 1_555 1_555
N10_4 C6_21 1_555 1_555
N8_21 In1_21 1_555 1_555
C14_21 C4_21 1_555 1_555
C15_21 N8_21 1_555 1_555
O13_21 In1_21 1_555 1_555
O17_21 C17_21 1_555 1_555
O18_21 C18_21 1_555 1_555
C17_21 C14_21 1_555 1_555
C18_21 C15_21 1_555 1_555
C20_42 N8_21 1_555 1_555
H4_42 C20_42 1_555 1_555
C3_21 O1_21 1_555 1_555
O3_21 C5_21 1_555 1_555
N3_21 C8_21 1_555 1_555
C9_21 C10_21 1_555 1_555
C11_21 O5_21 1_555 1_555
C12_21 O6_21 1_555 1_555
C13_21 O8_5 1_555 1_555
N10_4 C14_21 1_555 1_555
O16_4 C17_21 1_555 1_555
O13_21 C18_21 1_555 1_555
In1_22 N1_22 1_555 1_555
N1_22 C1_22 1_555 1_555
C1_22 H1_22 1_555 1_555
C2_22 N1_22 1_555 1_555
C3_22 C2_22 1_555 1_555
O1_22 In1_22 1_555 1_555
O2_22 C3_22 1_555 1_555
N2_22 In1_22 1_555 1_555
C4_22 N2_22 1_555 1_555
O3_22 In1_22 1_555 1_555
O4_22 C5_22 1_555 1_555
C5_22 C4_22 1_555 1_555
C6_22 N2_22 1_555 1_555
H2_22 C6_22 1_555 1_555
In3 N3_22 1_555 1_555
N3_22 C1_22 1_555 1_555
N4_22 In1_22 1_555 1_555
N6_7 C7_22 1_555 1_555
C7_22 N4_22 1_555 1_555
H3_22 C7_22 1_555 1_555
C8_22 C2_22 1_555 1_555
C9_22 N4_22 1_555 1_555
C10_22 N6_7 1_555 1_555
C11_22 C8_22 1_555 1_555
C12_22 C9_22 1_555 1_555
C13_22 C10_22 1_555 1_555
O5_22 In3 1_555 1_555
O6_22 In1_22 1_555 1_555
O9_22 C11_22 1_555 1_555
O10_22 C12_22 1_555 1_555
O11_22 C13_22 1_555 1_555
N10 C6_22 1_555 1_555
N8_22 In1_22 1_555 1_555
C14_22 C4_22 1_555 1_555
C15_22 N8_22 1_555 1_555
O13_22 In1_22 1_555 1_555
O17_22 C17_22 1_555 1_555
O18_22 C18_22 1_555 1_555
C17_22 C14_22 1_555 1_555
C18_22 C15_22 1_555 1_555
C20_43 N8_22 1_555 1_555
H4_43 C20_43 1_555 1_555
C3_22 O1_22 1_555 1_555
O3_22 C5_22 1_555 1_555
N3_22 C8_22 1_555 1_555
C9_22 C10_22 1_555 1_555
C11_22 O5_22 1_555 1_555
C12_22 O6_22 1_555 1_555
C13_22 O8_7 1_555 1_555
N10 C14_22 1_555 1_555
O16 C17_22 1_555 1_555
O13_22 C18_22 1_555 1_555
N11_4 C16_22 1_555 1_555
O19_22 C19_22 1_555 1_555
C19_22 C16_22 1_555 1_555
H4_44 C20_44 1_555 1_555
N11_4 C20_44 1_555 1_555
O15_4 C19_22 1_555 1_555
In1_23 N1_23 1_555 1_555
N1_23 C1_23 1_555 1_555
C1_23 H1_23 1_555 1_555
C2_23 N1_23 1_555 1_555
C3_23 C2_23 1_555 1_555
O1_23 In1_23 1_555 1_555
O2_23 C3_23 1_555 1_555
N2_23 In1_23 1_555 1_555
C4_23 N2_23 1_555 1_555
O3_23 In1_23 1_555 1_555
O4_23 C5_23 1_555 1_555
C5_23 C4_23 1_555 1_555
C6_23 N2_23 1_555 1_555
H2_23 C6_23 1_555 1_555
In5 N3_23 1_555 1_555
N3_23 C1_23 1_555 1_555
N4_23 In1_23 1_555 1_555
N6_8 C7_23 1_555 1_555
C7_23 N4_23 1_555 1_555
H3_23 C7_23 1_555 1_555
C8_23 C2_23 1_555 1_555
C9_23 N4_23 1_555 1_555
C10_23 N6_8 1_555 1_555
C11_23 C8_23 1_555 1_555
C12_23 C9_23 1_555 1_555
C13_23 C10_23 1_555 1_555
O5_23 In5 1_555 1_555
O6_23 In1_23 1_555 1_555
O9_23 C11_23 1_555 1_555
O10_23 C12_23 1_555 1_555
O11_23 C13_23 1_555 1_555
N10_2 C6_23 1_555 1_555
N8_23 In1_23 1_555 1_555
C14_23 C4_23 1_555 1_555
C15_23 N8_23 1_555 1_555
O13_23 In1_23 1_555 1_555
O17_23 C17_23 1_555 1_555
O18_23 C18_23 1_555 1_555
C17_23 C14_23 1_555 1_555
C18_23 C15_23 1_555 1_555
C20_45 N8_23 1_555 1_555
H4_45 C20_45 1_555 1_555
C3_23 O1_23 1_555 1_555
O3_23 C5_23 1_555 1_555
N3_23 C8_23 1_555 1_555
C9_23 C10_23 1_555 1_555
C11_23 O5_23 1_555 1_555
C12_23 O6_23 1_555 1_555
C13_23 O8_8 1_555 1_555
N10_2 C14_23 1_555 1_555
O16_2 C17_23 1_555 1_555
O13_23 C18_23 1_555 1_555
N11_3 C16_23 1_555 1_555
O19_23 C19_23 1_555 1_555
C19_23 C16_23 1_555 1_555
H4_46 C20_46 1_555 1_555
N11_3 C20_46 1_555 1_555
O15_3 C19_23 1_555 1_555
N11_2 C16_24 1_555 1_555
O19_24 C19_24 1_555 1_555
C19_24 C16_24 1_555 1_555
H4_47 C20_47 1_555 1_555
N11_2 C20_47 1_555 1_555
O15_2 C19_24 1_555 1_555
In1_24 N1_24 1_555 1_555
N1_24 C1_24 1_555 1_555
C1_24 H1_24 1_555 1_555
C2_24 N1_24 1_555 1_555
C3_24 C2_24 1_555 1_555
O1_24 In1_24 1_555 1_555
O2_24 C3_24 1_555 1_555
N2_24 In1_24 1_555 1_555
C4_24 N2_24 1_555 1_555
O3_24 In1_24 1_555 1_555
O4_24 C5_24 1_555 1_555
C5_24 C4_24 1_555 1_555
C6_24 N2_24 1_555 1_555
H2_24 C6_24 1_555 1_555
In3_2 N3_24 1_555 1_555
N3_24 C1_24 1_555 1_555
N4_24 In1_24 1_555 1_555
N6_6 C7_24 1_555 1_555
C7_24 N4_24 1_555 1_555
H3_24 C7_24 1_555 1_555
C8_24 C2_24 1_555 1_555
C9_24 N4_24 1_555 1_555
C10_24 N6_6 1_555 1_555
C11_24 C8_24 1_555 1_555
C12_24 C9_24 1_555 1_555
C13_24 C10_24 1_555 1_555
O5_24 In3_2 1_555 1_555
O6_24 In1_24 1_555 1_555
O9_24 C11_24 1_555 1_555
O10_24 C12_24 1_555 1_555
O11_24 C13_24 1_555 1_555
N10_3 C6_24 1_555 1_555
N8_24 In1_24 1_555 1_555
C14_24 C4_24 1_555 1_555
C15_24 N8_24 1_555 1_555
O13_24 In1_24 1_555 1_555
O17_24 C17_24 1_555 1_555
O18_24 C18_24 1_555 1_555
C17_24 C14_24 1_555 1_555
C18_24 C15_24 1_555 1_555
C20_48 N8_24 1_555 1_555
H4_48 C20_48 1_555 1_555
C3_24 O1_24 1_555 1_555
O3_24 C5_24 1_555 1_555
N3_24 C8_24 1_555 1_555
C9_24 C10_24 1_555 1_555
C11_24 O5_24 1_555 1_555
C12_24 O6_24 1_555 1_555
C13_24 O8_6 1_555 1_555
N10_3 C14_24 1_555 1_555
O16_3 C17_24 1_555 1_555
O13_24 C18_24 1_555 1_555
Mg1 O20 1_555 1_555
O21 Mg1 1_555 1_555
O22 Mg1 1_555 1_555
O24 Mg1 1_555 1_555
O25 Mg1 1_555 1_555
O21_2 Mg1_2 1_555 1_555
O22_2 Mg1_2 1_555 1_555
O23 Mg1_2 1_555 1_555
O24_2 Mg1_2 1_555 1_555
O25_2 Mg1_2 1_555 1_555
O21_3 Mg1_3 1_555 1_555
O22_3 Mg1_3 1_555 1_555
O23_2 Mg1_3 1_555 1_555
O24_3 Mg1_3 1_555 1_555
O25_3 Mg1_3 1_555 1_555
Mg1_4 O20_2 1_555 1_555
O21_4 Mg1_4 1_555 1_555
O22_4 Mg1_4 1_555 1_555
O24_4 Mg1_4 1_555 1_555
O25_4 Mg1_4 1_555 1_555
Mg1_5 O20_3 1_555 1_555
O21_5 Mg1_5 1_555 1_555
O22_5 Mg1_5 1_555 1_555
O24_5 Mg1_5 1_555 1_555
O25_5 Mg1_5 1_555 1_555
O21_6 Mg1_6 1_555 1_555
O22_6 Mg1_6 1_555 1_555
O23_3 Mg1_6 1_555 1_555
O24_6 Mg1_6 1_555 1_555
O25_6 Mg1_6 1_555 1_555
O21_7 Mg1_7 1_555 1_555
O22_7 Mg1_7 1_555 1_555
O23_4 Mg1_7 1_555 1_555
O24_7 Mg1_7 1_555 1_555
O25_7 Mg1_7 1_555 1_555
Mg1_8 O20_4 1_555 1_555
O21_8 Mg1_8 1_555 1_555
O22_8 Mg1_8 1_555 1_555
O24_8 Mg1_8 1_555 1_555
O25_8 Mg1_8 1_555 1_555
Mg1_9 O20_5 1_555 1_555
O21_9 Mg1_9 1_555 1_555
O22_9 Mg1_9 1_555 1_555
O24_9 Mg1_9 1_555 1_555
O25_9 Mg1_9 1_555 1_555
O21_10 Mg1_10 1_555 1_555
O22_10 Mg1_10 1_555 1_555
O23_5 Mg1_10 1_555 1_555
O24_10 Mg1_10 1_555 1_555
O25_10 Mg1_10 1_555 1_555
O21_11 Mg1_11 1_555 1_555
O22_11 Mg1_11 1_555 1_555
O23_6 Mg1_11 1_555 1_555
O24_11 Mg1_11 1_555 1_555
O25_11 Mg1_11 1_555 1_555
Mg1_12 O20_6 1_555 1_555
O21_12 Mg1_12 1_555 1_555
O22_12 Mg1_12 1_555 1_555
O24_12 Mg1_12 1_555 1_555
O25_12 Mg1_12 1_555 1_555
Mg1_13 O20_7 1_555 1_555
O21_13 Mg1_13 1_555 1_555
O22_13 Mg1_13 1_555 1_555
O24_13 Mg1_13 1_555 1_555
O25_13 Mg1_13 1_555 1_555
O21_14 Mg1_14 1_555 1_555
O22_14 Mg1_14 1_555 1_555
O23_7 Mg1_14 1_555 1_555
O24_14 Mg1_14 1_555 1_555
O25_14 Mg1_14 1_555 1_555
O21_15 Mg1_15 1_555 1_555
O22_15 Mg1_15 1_555 1_555
O23_8 Mg1_15 1_555 1_555
O24_15 Mg1_15 1_555 1_555
O25_15 Mg1_15 1_555 1_555
Mg1_16 O20_8 1_555 1_555
O21_16 Mg1_16 1_555 1_555
O22_16 Mg1_16 1_555 1_555
O24_16 Mg1_16 1_555 1_555
O25_16 Mg1_16 1_555 1_555
Mg1_17 O20_9 1_555 1_555
O21_17 Mg1_17 1_555 1_555
O22_17 Mg1_17 1_555 1_555
O24_17 Mg1_17 1_555 1_555
O25_17 Mg1_17 1_555 1_555
O21_18 Mg1_18 1_555 1_555
O22_18 Mg1_18 1_555 1_555
O23_9 Mg1_18 1_555 1_555
O24_18 Mg1_18 1_555 1_555
O25_18 Mg1_18 1_555 1_555
O21_19 Mg1_19 1_555 1_555
O22_19 Mg1_19 1_555 1_555
O23_10 Mg1_19 1_555 1_555
O24_19 Mg1_19 1_555 1_555
O25_19 Mg1_19 1_555 1_555
Mg1_20 O20_10 1_555 1_555
O21_20 Mg1_20 1_555 1_555
O22_20 Mg1_20 1_555 1_555
O24_20 Mg1_20 1_555 1_555
O25_20 Mg1_20 1_555 1_555
Mg1_21 O20_11 1_555 1_555
O21_21 Mg1_21 1_555 1_555
O22_21 Mg1_21 1_555 1_555
O24_21 Mg1_21 1_555 1_555
O25_21 Mg1_21 1_555 1_555
O21_22 Mg1_22 1_555 1_555
O22_22 Mg1_22 1_555 1_555
O23_11 Mg1_22 1_555 1_555
O24_22 Mg1_22 1_555 1_555
O25_22 Mg1_22 1_555 1_555
O21_23 Mg1_23 1_555 1_555
O22_23 Mg1_23 1_555 1_555
O23_12 Mg1_23 1_555 1_555
O24_23 Mg1_23 1_555 1_555
O25_23 Mg1_23 1_555 1_555
Mg1_24 O20_12 1_555 1_555
O21_24 Mg1_24 1_555 1_555
O22_24 Mg1_24 1_555 1_555
O24_24 Mg1_24 1_555 1_555
O25_24 Mg1_24 1_555 1_555
Mg1_25 O20_13 1_555 1_555
O21_25 Mg1_25 1_555 1_555
O22_25 Mg1_25 1_555 1_555
O23_13 Mg1_25 1_555 1_555
O24_25 Mg1_25 1_555 1_555
O25_25 Mg1_25 1_555 1_555
Mg1_26 O20_14 1_555 1_555
O21_26 Mg1_26 1_555 1_555
O22_26 Mg1_26 1_555 1_555
O23_14 Mg1_26 1_555 1_555
O24_26 Mg1_26 1_555 1_555
O25_26 Mg1_26 1_555 1_555
Mg1_27 O20_15 1_555 1_555
O21_27 Mg1_27 1_555 1_555
O22_27 Mg1_27 1_555 1_555
O23_15 Mg1_27 1_555 1_555
O24_27 Mg1_27 1_555 1_555
O25_27 Mg1_27 1_555 1_555
Mg1_28 O20_16 1_555 1_555
O21_28 Mg1_28 1_555 1_555
O22_28 Mg1_28 1_555 1_555
O23_16 Mg1_28 1_555 1_555
O24_28 Mg1_28 1_555 1_555
O25_28 Mg1_28 1_555 1_555
Mg1_29 O20_17 1_555 1_555
O21_29 Mg1_29 1_555 1_555
O22_29 Mg1_29 1_555 1_555
O23_17 Mg1_29 1_555 1_555
O24_29 Mg1_29 1_555 1_555
O25_29 Mg1_29 1_555 1_555
Mg1_30 O20_18 1_555 1_555
O21_30 Mg1_30 1_555 1_555
O22_30 Mg1_30 1_555 1_555
O23_18 Mg1_30 1_555 1_555
O24_30 Mg1_30 1_555 1_555
O25_30 Mg1_30 1_555 1_555
Mg1_31 O20_19 1_555 1_555
O21_31 Mg1_31 1_555 1_555
O22_31 Mg1_31 1_555 1_555
O23_19 Mg1_31 1_555 1_555
O24_31 Mg1_31 1_555 1_555
O25_31 Mg1_31 1_555 1_555
Mg1_32 O20_20 1_555 1_555
O21_32 Mg1_32 1_555 1_555
O22_32 Mg1_32 1_555 1_555
O23_20 Mg1_32 1_555 1_555
O24_32 Mg1_32 1_555 1_555
O25_32 Mg1_32 1_555 1_555
Mg1_33 O20_21 1_555 1_555
O21_33 Mg1_33 1_555 1_555
O22_33 Mg1_33 1_555 1_555
O23_21 Mg1_33 1_555 1_555
O24_33 Mg1_33 1_555 1_555
O25_33 Mg1_33 1_555 1_555
Mg1_34 O20_22 1_555 1_555
O21_34 Mg1_34 1_555 1_555
O22_34 Mg1_34 1_555 1_555
O23_22 Mg1_34 1_555 1_555
O24_34 Mg1_34 1_555 1_555
O25_34 Mg1_34 1_555 1_555
Mg1_35 O20_23 1_555 1_555
O21_35 Mg1_35 1_555 1_555
O22_35 Mg1_35 1_555 1_555
O23_23 Mg1_35 1_555 1_555
O24_35 Mg1_35 1_555 1_555
O25_35 Mg1_35 1_555 1_555
Mg1_36 O20_24 1_555 1_555
O21_36 Mg1_36 1_555 1_555
O22_36 Mg1_36 1_555 1_555
O23_24 Mg1_36 1_555 1_555
O24_36 Mg1_36 1_555 1_555
O25_36 Mg1_36 1_555 1_555

#END
