
###############################################################################
#
# This file contains modified crystal structure data generated from the
# MOF subset of the Cambridge Structural Database (CSD) v543 
# hosted by the Cambridge Crystallographic Data Centre (CCDC).
#
# This work is licensed under the Creative Commons
# Attribution-NonCommercial-ShareAlike 4.0 International License.
# To view a copy of this license, visit
# http://creativecommons.org/licenses/by-nc-sa/4.0/
# or send a letter to
# Creative Commons, PO Box 1866, Mountain View, CA 94042, USA.
#
# CIF created using the CSD Python API on 29 September 2022
# The structure has been converted into the P1 space group
# The structure has a 3D framework
# The original CSD entry PRIMIN is in the monoclinic crystal system
# The framework has been calculated to contain at least 10.0% void space
# The void calculation uses a probe of radius 1.32A, grid spacing 0.4
# H atom positions have been added when not included in the experimental data
#
###############################################################################

data_PRIMIN
_chemical_formula_moiety         '(C24 H66 Cl4 N6 O26 Pr2)n'
_symmetry_cell_setting           triclinic
_symmetry_space_group_name_H-M   'P 1'
_symmetry_Int_Tables_number      1
_space_group_name_Hall           'P 1'
loop_
_symmetry_equiv_pos_site_id
_symmetry_equiv_pos_as_xyz
1 x,y,z
_cell_length_a                   8.7198(9)
_cell_length_b                   18.4218(27)
_cell_length_c                   9.2725(6)
_cell_angle_alpha                90
_cell_angle_beta                 108.248
_cell_angle_gamma                90
_cell_volume                     1414.58
loop_
_atom_site_label
_atom_site_type_symbol
_atom_site_fract_x
_atom_site_fract_y
_atom_site_fract_z
Cl1 Cl 0.36010 0.25000 0.41290
Cl1_2 Cl 0.63990 0.75000 0.58710
Cl2 Cl 0.80580 0.25000 0.39860
Cl2_2 Cl 0.19420 0.75000 0.60140
O16 O 0.08050 0.56460 0.08120
O8 O 0.07370 0.09500 0.67550
O10 O 0.25560 0.03200 0.94790
Pr7 Pr 0.00890 0.52400 0.78210
O18 O 0.18380 0.55240 0.63580
O19 O 0.25560 0.46800 0.94790
O21 O 0.17850 0.63220 0.92240
O23 O 0.07370 0.40500 0.67550
H10 H 0.124761 0.415159 0.595765
H23 H 0.185685 0.109955 0.732617
H25 H 0.02164 0.657599 0.590776
O12 O 0.08050 0.93540 0.08120
Pr1 Pr 0.00890 0.97600 0.78210
O9 O 0.18380 0.94760 0.63580
O13 O 0.17850 0.86780 0.92240
H18 H 0.007565 0.819449 0.672633
O6 O 0.82150 0.13220 0.07760
Pr5 Pr 0.99110 0.02400 0.21790
O15 O 0.82150 0.36780 0.07760
Pr6 Pr 0.99110 0.47600 0.21790
H21 H 0.859773 0.25 0.0223819
C1 C 0.72790 0.04550 0.44930
C2 C 0.56440 0.08200 0.40850
C3 C 0.48590 0.08540 0.12080
C4 C 0.30490 0.06470 0.07400
C5 C 0.80720 0.18210 0.83010
C6 C 0.85010 0.12160 0.95050
N1 N 0.53270 0.12810 0.26680
N2 N 0.78040 0.25000 0.91560
O1 O 0.77010 0.01080 0.57590
O2 O 0.81620 0.05240 0.36420
O4 O 0.23230 0.07900 0.16330
O5 O 0.91950 0.06460 0.91880
C7 C 0.80720 0.31790 0.83010
C8 C 0.85010 0.37840 0.95050
O14 O 0.91950 0.43540 0.91880
O17 O 0.77010 0.48920 0.57590
O20 O 0.76770 0.57900 0.83670
O22 O 0.93000 0.64140 0.62490
C9 C 0.72790 0.45450 0.44930
C10 C 0.56440 0.41800 0.40850
O24 O 0.81620 0.44760 0.36420
N3 N 0.53270 0.37190 0.26680
C11 C 0.48590 0.41460 0.12080
C12 C 0.30490 0.43530 0.07400
O26 O 0.23230 0.42100 0.16330
H1 H 0.560153 0.116491 0.502555
H2 H 0.471236 0.0404641 0.388845
H3 H 0.507858 0.118213 0.0315646
H4 H 0.558369 0.0361456 0.136788
H5 H 0.697769 0.168426 0.738688
H6 H 0.905849 0.190783 0.783431
H7 H 0.471236 0.459536 0.388845
H8 H 0.560153 0.383509 0.502555
H9 H 0.972544 0.377052 0.630754
H11 H 0.507858 0.381787 0.0315646
H12 H 0.558369 0.463854 0.136788
H13 H 0.441744 0.336862 0.263205
H14 H 0.634594 0.343508 0.274018
H15 H 0.634594 0.156492 0.274018
H16 H 0.441744 0.163138 0.263205
H19 H 0.697769 0.331574 0.738688
H20 H 0.905849 0.309217 0.783431
H22 H 0.996952 0.133009 0.68558
H24 H 0.903657 0.679848 0.688418
O7 O 0.93000 0.85860 0.62490
O11 O 0.76770 0.92100 0.83670
H17 H 0.932611 0.867366 0.520029
O22_2 O 0.07000 0.14140 0.37510
H24_2 H 0.0963429 0.179848 0.311582
O3 O 0.74440 0.53200 0.05210
O25 O 0.74440 0.96800 0.05210
C1_2 C 0.27210 0.54550 0.55070
C2_2 C 0.43560 0.58200 0.59150
C3_2 C 0.51410 0.58540 0.87920
C4_2 C 0.69510 0.56470 0.92600
C5_2 C 0.19280 0.68210 0.16990
C6_2 C 0.14990 0.62160 0.04950
N1_2 N 0.46730 0.62810 0.73320
N2_2 N 0.21960 0.75000 0.08440
O1_2 O 0.22990 0.51080 0.42410
O7_2 O 0.07000 0.35860 0.37510
C7_2 C 0.19280 0.81790 0.16990
C8_2 C 0.14990 0.87840 0.04950
O17_2 O 0.22990 0.98920 0.42410
C9_2 C 0.27210 0.95450 0.55070
C10_2 C 0.43560 0.91800 0.59150
N3_2 N 0.46730 0.87190 0.73320
C11_2 C 0.51410 0.91460 0.87920
C12_2 C 0.69510 0.93530 0.92600
H1_2 H 0.439847 0.616491 0.497445
H2_2 H 0.528764 0.540464 0.611155
H3_2 H 0.492142 0.618213 0.968435
H4_2 H 0.441631 0.536146 0.863212
H5_2 H 0.302231 0.668426 0.261312
H6_2 H 0.0941506 0.690783 0.216569
H7_2 H 0.528764 0.959536 0.611155
H8_2 H 0.439847 0.883509 0.497445
H9_2 H 0.027456 0.877052 0.369246
H11_2 H 0.492142 0.881787 0.968435
H12_2 H 0.441631 0.963854 0.863212
H13_2 H 0.558256 0.836862 0.736795
H14_2 H 0.365406 0.843508 0.725982
H15_2 H 0.365406 0.656492 0.725982
H16_2 H 0.558256 0.663138 0.736795
H17_2 H 0.0673894 0.367366 0.479971
H19_2 H 0.302231 0.831574 0.261312
H20_2 H 0.0941506 0.809217 0.216569
H22_2 H 0.00304849 0.633009 0.31442
H21_2 H 0.140227 0.75 0.977618
H25_2 H 0.97836 0.157599 0.409224
O8_2 O 0.92630 0.59500 0.32450
O23_2 O 0.92630 0.90500 0.32450
H10_2 H 0.875239 0.915159 0.404235
H18_2 H 0.992435 0.319449 0.327367
H23_2 H 0.814315 0.609955 0.267383
H17_3 H 0.0673894 0.132634 0.479971
H9_3 H 0.027456 0.622948 0.369246
H22_3 H 0.00304849 0.866991 0.31442
H24_3 H 0.0963429 0.320152 0.311582
H18_3 H 0.992435 0.180551 0.327367
H10_3 H 0.875239 0.584841 0.404235
H23_3 H 0.814315 0.890045 0.267383
H25_3 H 0.97836 0.342401 0.409224
H10_4 H 0.124761 0.0848412 0.595765
H18_4 H 0.007565 0.680551 0.672633
H23_4 H 0.185685 0.390045 0.732617
H25_4 H 0.02164 0.842401 0.590776
H9_4 H 0.972544 0.122948 0.630754
H17_4 H 0.932611 0.632634 0.520029
H22_4 H 0.996952 0.366991 0.68558
H24_4 H 0.903657 0.820152 0.688418
loop_
_geom_bond_atom_site_label_1
_geom_bond_atom_site_label_2
_geom_bond_site_symmetry_1
_geom_bond_site_symmetry_2
O18 Pr7 1_555 1_555
O19 Pr7 1_555 1_555
O21 Pr7 1_555 1_555
O23 Pr7 1_555 1_555
O23 H10 1_555 1_555
O8 H23 1_555 1_555
O9 Pr1 1_555 1_555
O13 Pr1 1_555 1_555
O6 Pr5 1_555 1_555
O15 Pr6 1_555 1_555
C1 C2 1_555 1_555
C2 N1 1_555 1_555
C3 C4 1_555 1_555
C5 C6 1_555 1_555
C6 O5 1_555 1_555
N1 C3 1_555 1_555
N2 C5 1_555 1_555
O1 C1 1_555 1_555
O2 C1 1_555 1_555
O4 C4 1_555 1_555
Pr5 O2 1_555 1_555
C7 N2 1_555 1_555
C8 C7 1_555 1_555
O14 C8 1_555 1_555
C9 O17 1_555 1_555
C10 C9 1_555 1_555
O24 C9 1_555 1_555
N3 C10 1_555 1_555
Pr6 O24 1_555 1_555
C11 N3 1_555 1_555
C12 C11 1_555 1_555
O26 C12 1_555 1_555
C2 H1 1_555 1_555
C2 H2 1_555 1_555
C3 H3 1_555 1_555
C3 H4 1_555 1_555
C5 H5 1_555 1_555
C5 H6 1_555 1_555
C10 H7 1_555 1_555
C10 H8 1_555 1_555
C11 H11 1_555 1_555
C11 H12 1_555 1_555
N3 H13 1_555 1_555
N3 H14 1_555 1_555
N1 H15 1_555 1_555
N1 H16 1_555 1_555
C7 H19 1_555 1_555
C7 H20 1_555 1_555
O22 H24 1_555 1_555
O7 H17 1_555 1_555
O22_2 H24_2 1_555 1_555
O3 Pr6 1_555 1_555
C1_2 C2_2 1_555 1_555
C2_2 N1_2 1_555 1_555
C3_2 C4_2 1_555 1_555
C5_2 C6_2 1_555 1_555
C6_2 O16 1_555 1_555
N1_2 C3_2 1_555 1_555
N2_2 C5_2 1_555 1_555
O1_2 C1_2 1_555 1_555
O18 C1_2 1_555 1_555
O20 C4_2 1_555 1_555
C7_2 N2_2 1_555 1_555
C8_2 C7_2 1_555 1_555
O12 C8_2 1_555 1_555
C9_2 O17_2 1_555 1_555
C10_2 C9_2 1_555 1_555
O9 C9_2 1_555 1_555
N3_2 C10_2 1_555 1_555
C11_2 N3_2 1_555 1_555
C12_2 C11_2 1_555 1_555
O11 C12_2 1_555 1_555
C2_2 H1_2 1_555 1_555
C2_2 H2_2 1_555 1_555
C3_2 H3_2 1_555 1_555
C3_2 H4_2 1_555 1_555
C5_2 H5_2 1_555 1_555
C5_2 H6_2 1_555 1_555
C10_2 H7_2 1_555 1_555
C10_2 H8_2 1_555 1_555
C11_2 H11_2 1_555 1_555
C11_2 H12_2 1_555 1_555
N3_2 H13_2 1_555 1_555
N3_2 H14_2 1_555 1_555
N1_2 H15_2 1_555 1_555
N1_2 H16_2 1_555 1_555
O7_2 H17_2 1_555 1_555
C7_2 H19_2 1_555 1_555
C7_2 H20_2 1_555 1_555
O8_2 Pr6 1_555 1_555
O23_2 H10_2 1_555 1_555
O8_2 H23_2 1_555 1_555
O22_2 H17_3 1_555 1_555
O7_2 H24_3 1_555 1_555
O8_2 H10_3 1_555 1_555
O23_2 H23_3 1_555 1_555
O8 H10_4 1_555 1_555
O23 H23_4 1_555 1_555
O22 H17_4 1_555 1_555
O7 H24_4 1_555 1_555

#END
