
###############################################################################
#
# This file contains modified crystal structure data generated from the
# MOF subset of the Cambridge Structural Database (CSD) v543 
# hosted by the Cambridge Crystallographic Data Centre (CCDC).
#
# This work is licensed under the Creative Commons
# Attribution-NonCommercial-ShareAlike 4.0 International License.
# To view a copy of this license, visit
# http://creativecommons.org/licenses/by-nc-sa/4.0/
# or send a letter to
# Creative Commons, PO Box 1866, Mountain View, CA 94042, USA.
#
# CIF created using the CSD Python API on 29 September 2022
# The structure has been converted into the P1 space group
# The structure has a 3D framework
# The original CSD entry PUDDOK is in the monoclinic crystal system
# The original CSD entry PUDDOK is in a Sohncke space group
# The framework has been calculated to contain at least 10.0% void space
# The void calculation uses a probe of radius 1.32A, grid spacing 0.4
#
###############################################################################

data_PUDDOK
_chemical_formula_moiety         '(C340 H228 Fe24 N24 O176 P24)n'
_symmetry_cell_setting           triclinic
_symmetry_space_group_name_H-M   'P 1'
_symmetry_Int_Tables_number      1
_space_group_name_Hall           'P 1'
loop_
_symmetry_equiv_pos_site_id
_symmetry_equiv_pos_as_xyz
1 x,y,z
_cell_length_a                   27.9272(17)
_cell_length_b                   20.8710(17)
_cell_length_c                   35.446(3)
_cell_angle_alpha                90
_cell_angle_beta                 93.965(6)
_cell_angle_gamma                90
_cell_volume                     20610.9
loop_
_atom_site_label
_atom_site_type_symbol
_atom_site_fract_x
_atom_site_fract_y
_atom_site_fract_z
C31 C 0.0829(4) 0.0245(5) 0.0180(3)
C55 C 0.1187(5) 0.0729(6) 0.0241(3)
H35 H 0.1348 0.0797 0.0483
Fe1 Fe 0.44643(8) 0.20763(14) 0.68445(6)
P2 P 0.16895(17) 0.1449(3) 0.91043(13)
P3 P 0.22945(17) 0.0491(3) 0.88580(16)
P4 P 0.18227(18) 0.1354(3) 0.83537(14)
P6 P 0.71391(17) 0.0057(2) 0.63058(15)
N1 N 0.1598(5) 0.1672(7) 0.8673(4)
C1 C 0.3405(4) 0.3633(6) 0.9206(4)
O1 O 0.5124(3) 0.2195(5) 0.6627(3)
O5 O 0.4325(3) 0.3793(4) 0.8759(3)
O6 O 0.4172(3) 0.1693(5) 0.6376(3)
N3 N 0.2138(6) 0.0766(8) 0.8454(4)
O7 O 0.1191(4) 0.1300(6) 0.9236(3)
O11 O 0.3798(4) 0.3478(7) 0.9383(3)
O12 O 0.4343(4) 0.2502(5) 0.8457(3)
O13 O 0.1811(4) 0.2051(6) 0.9385(3)
O14 O 0.5006(3) 0.2106(6) 0.6012(3)
O17 O 0.4745(4) 0.3063(5) 0.9751(3)
H1 H 0.4997 0.2825 0.9708
H2 H 0.4536 0.2781 0.9830
C4 C 0.0185(4) 0.0208(6) 0.8184(4)
O18 O 0.2847(4) 0.0408(5) 0.8929(3)
O19 O 0.3898(3) 0.2023(5) 0.7145(3)
O20 O 0.4657(4) 0.1220(5) 0.7029(3)
C5 C 0.3181(4) 0.0902(6) 0.8888(3)
O21 O 0.5569(5) 0.1256(6) 0.4382(3)
C6 C 0.4246(5) 0.2332(7) 0.8795(3)
C7 C 0.1024(4) 0.0879(6) 0.8091(4)
C8 C 0.5748(3) 0.1720(6) 0.6310(3)
O22 O 0.7687(4) 0.0153(6) 0.6300(4)
O23 O 0.7048(5) 0.0790(7) 0.6304(4)
C9 C 0.5105(3) 0.0263(5) 0.6924(4)
C11 C 0.2977(3) 0.3231(6) 0.9253(3)
C12 C 0.3195(4) 0.1652(6) 0.7428(3)
O24 O 0.4806(3) 0.2438(5) 0.7303(3)
O25 O 0.3372(3) 0.4054(5) 0.8939(3)
O26 O 0.3368(5) 0.0162(7) 0.6414(4)
O28 O 0.2115(4) 0.1861(8) 0.8162(3)
O30 O 0.4430(4) 0.2601(5) 0.9097(3)
N6 N 0.2057(5) 0.0851(6) 0.9190(3)
C16 C 0.2600(5) 0.2390(9) 0.9608(4)
H6 H 0.2603 0.2090 0.9809
C17 C 0.2997(4) 0.2831(8) 0.9567(4)
H7 H 0.3262 0.2844 0.9750
C20 C 0.6443(5) 0.1241(10) 0.6646(4)
H10 H 0.6618 0.1113 0.6872
C21 C 0.2211(5) 0.2431(7) 0.9333(4)
C22 C 0.2210(4) 0.2817(7) 0.9009(3)
H11 H 0.1949 0.2805 0.8822
O33 O 0.3480(4) 0.5343(7) 0.8615(4)
H12 H 0.3150 0.5383 0.8658
H13 H 0.3562 0.5757 0.8529
C23 C 0.5900(5) 0.0111(7) 0.7230(4)
H14 H 0.6143 0.0211 0.7422
C24 C 0.5266(4) 0.1996(6) 0.6330(3)
C25 C 0.0946(4) 0.0307(6) 0.7900(4)
H15 H 0.1177 0.0154 0.7737
O36 O 0.3513(4) 0.1173(5) 0.6887(3)
C26 C 0.0241(4) 0.0815(6) 0.8358(4)
H16 H 0.0004 0.0980 0.8511
C28 C 0.0583(4) 0.0139(6) 0.9829(3)
C29 C 0.2904(4) 0.2145(7) 0.7993(3)
H18 H 0.2957 0.2398 0.8215
O38 O 0.4324(3) 0.0499(6) 0.6628(3)
C30 C 0.0691(5) 0.0518(7) 0.9512(3)
H19 H 0.0512 0.0473 0.9276
O39 O 0.4852(4) 0.2989(6) 0.7870(3)
C33 C 0.3902(4) 0.1794(6) 0.8828(3)
C37 C 0.0665(4) 0.1175(6) 0.8297(4)
H23 H 0.0706 0.1599 0.8392
C38 C 0.1075(6) 0.0964(8) 0.9557(3)
O41 O 0.4429(4) 0.2539(7) 0.5418(3)
H24 H 0.4670 0.2456 0.5246
H25 H 0.4258 0.2892 0.5303
C40 C 0.3401(5) 0.0956(7) 0.8541(3)
H26 H 0.3308 0.0680 0.8336
O42 O 0.1448(4) 0.1258(7) 0.8031(3)
C42 C 0.5480(4) 0.0509(7) 0.7171(4)
H27 H 0.5456 0.0913 0.7291
C44 C 0.3554(5) 0.1616(7) 0.7143(4)
C45 C 0.5996(4) 0.1583(8) 0.6655(3)
H29 H 0.5876 0.1711 0.6888
C48 C 0.4668(4) 0.0664(6) 0.6862(4)
C49 C 0.5861(5) 0.0770(6) 0.4388(3)
C50 C 0.2457(4) 0.1832(7) 0.7904(4)
C51 C 0.3265(4) 0.2060(9) 0.7736(3)
H31 H 0.3560 0.2286 0.7775
C52 C 0.3721(5) 0.1709(7) 0.9180(4)
H32 H 0.3841 0.1954 0.9392
C54 C 0.1293(7) 0.1106(9) 0.9918(3)
H34 H 0.1511 0.1454 0.9948
C59 C 0.3760(4) 0.1425(6) 0.8502(3)
H38 H 0.3900 0.1491 0.8268
C60 C 0.2376(4) 0.1434(8) 0.7581(3)
H39 H 0.2072 0.1237 0.7528
O43 O 0.6088(4) 0.0597(6) 0.4107(3)
C62 C 0.6609(5) 0.1105(10) 0.6295(4)
C63 C 0.5652(7) 0.0603(8) 0.5047(4)
H41 H 0.5477 0.0994 0.5027
C66 C 0.4671(8) 0.2897(15) 0.7553(7)
H43 H 0.4412 0.3169 0.7469
C68 C 0.2614(5) 0.3232(8) 0.8966(4)
H45 H 0.2632 0.3497 0.8749
C69 C 0.6353(5) 0.1234(9) 0.5942(4)
H46 H 0.6477 0.1114 0.5709
C74 C 0.5895(6) 0.0381(7) 0.4741(3)
C75 C 0.5901(4) 0.1553(8) 0.5954(3)
H50 H 0.5711 0.1648 0.5728
C76 C 0.3346(6) 0.1240(7) 0.9217(3)
H51 H 0.3215 0.1163 0.9453
C80 C 0.2750(4) 0.1332(7) 0.7336(4)
H54 H 0.2706 0.1063 0.7121
C83 C 0.5668(5) 0.0243(7) 0.5387(4)
H56 H 0.5476 0.0356 0.5588
Fe2 Fe 0.43094(9) 0.20865(14) 0.58980(7)
Fe3 Fe 0.37867(9) 0.09757(13) 0.63987(7)
Fe4 Fe 0.44872(8) 0.34918(14) 0.92544(7)
Fe5 Fe 0.45485(8) 0.33886(13) 0.83179(6)
Fe6 Fe 0.39181(9) 0.45402(13) 0.86884(6)
O45 O 0.3927(3) 0.3421(5) 0.7986(2)
O46 O 0.4233(4) 0.2967(5) 0.6089(3)
O47 O 0.3621(3) 0.2029(6) 0.5740(3)
O48 O 0.5217(3) 0.3336(5) 0.8549(3)
O49 O 0.4555(4) 0.4354(5) 0.9526(3)
O50 O 0.4705(5) 0.4256(5) 0.8084(3)
O51 O 0.4431(5) 0.1256(6) 0.5618(3)
O52 O 0.5181(3) 0.3551(6) 0.9164(2)
O53 O 0.4435(3) 0.5058(5) 0.8455(2)
O54 O 0.4071(4) 0.4971(6) 0.9165(3)
O55 O 0.3575(3) 0.4325(5) 0.8198(3)
O56 O 0.3226(4) 0.1497(5) 0.6164(3)
O57 O 0.3912(4) 0.0597(6) 0.5893(3)
Fe8 Fe 0.56906(9) 0.20865(14) 0.41020(7)
Fe10 Fe 0.62133(9) 0.09757(13) 0.36013(7)
O58 O 0.4217(3) 0.2974(5) 0.6712(2)
O15 O 0.0445(4) 0.9354(5) 0.0474(3)
O34 O 0.0929(4) 0.9971(6) 0.0835(3)
C47 C 0.0722(5) 0.9843(6) 0.0507(3)
Fe13 Fe 0.05128(8) 0.84918(14) 0.07456(7)
Fe18 Fe 0.10819(9) 0.95402(13) 0.13116(6)
P1 P 0.67135(16) 0.9140(2) 0.67251(12)
P5 P 0.65413(16) 0.9148(2) 0.59578(12)
N2 N 0.6473(5) 0.8876(7) 0.6370(4)
O2 O 0.8927(3) 0.8421(5) 0.7986(2)
O3 O 0.6356(3) 0.9173(5) 0.7063(3)
O4 O 0.9233(4) 0.7967(5) 0.6089(3)
O8 O 0.8621(3) 0.7029(6) 0.5740(3)
O9 O 0.7042(4) 0.8574(6) 0.6880(3)
O10 O 0.0217(3) 0.8336(5) 0.8549(3)
N4 N 0.6928(5) 0.9709(6) 0.5936(4)
C2 C 0.0901(4) 0.8798(7) 0.8879(3)
C3 C 0.5942(5) 0.9572(7) 0.6996(4)
C10 C 0.7823(4) 0.7380(6) 0.5854(4)
N5 N 0.7031(5) 0.9841(7) 0.6685(4)
H3 H 0.3287 0.9950 0.6615
H4 H 0.3233 0.9945 0.6221
O27 O 0.6034(6) 0.9384(7) 0.5759(3)
C13 C 0.7827(4) 0.8273(7) 0.7126(4)
H5 H 0.7845 0.7984 0.6921
O29 O 0.6655(4) 0.8607(6) 0.5672(3)
C14 C 0.8172(4) 0.8741(6) 0.7705(3)
C15 C 0.0414(4) 0.8535(9) 0.8873(3)
C18 C 0.0520(4) 0.9944(6) 0.7946(4)
H8 H 0.0465 0.9544 0.7823
C19 C 0.8493(4) 0.8851(6) 0.6017(3)
H9 H 0.8585 0.8639 0.5796
O31 O 0.0181(3) 0.8551(6) 0.9164(2)
O35 O 0.8575(3) 0.9325(5) 0.8198(3)
C27 C 0.7395(4) 0.8641(6) 0.7165(3)
O37 O 0.2213(3) 0.9739(5) 0.8905(3)
H17 H 0.0344 0.9815 0.9802
C32 C 0.1547(6) 0.9252(12) 0.8544(4)
H20 H 0.1694 0.9345 0.8316
C34 C 0.8014(6) 0.9663(8) 0.6329(4)
O40 O 0.8226(4) 0.6497(5) 0.6164(3)
C35 C 0.7461(5) 0.7368(7) 0.6110(4)
H21 H 0.7496 0.7117 0.6335
C36 C 0.1110(5) 0.8894(9) 0.8542(3)
H22 H 0.0966 0.8725 0.8312
C39 C 0.8742(3) 0.8750(4) 0.6371(3)
C41 C 0.1755(5) 0.9463(9) 0.8902(4)
C43 C 0.1104(7) 0.9008(13) 0.9238(3)
H28 H 0.0963 0.8896 0.9465
C46 C 0.7041(5) 0.7737(10) 0.6027(5)
H30 H 0.6766 0.7686 0.6168
C53 C 0.1525(5) 0.9390(8) 0.9243(4)
H33 H 0.1648 0.9593 0.9469
C56 C 0.9094(4) 0.8227(6) 0.6397(3)
C57 C 0.7353(4) 0.9031(8) 0.7483(3)
H36 H 0.7059 0.9243 0.7521
C58 C 0.5119(4) 0.9685(6) 0.6724(4)
H37 H 0.4851 0.9540 0.6567
C61 C 0.8094(5) 0.9284(8) 0.6003(4)
H40 H 0.7886 0.9320 0.5780
C64 C 0.5984(5) 0.9700(6) 0.5415(3)
C65 C 0.7820(4) 0.7801(7) 0.5544(4)
H42 H 0.8082 0.7818 0.5388
C67 C 0.8212(4) 0.8344(8) 0.7386(4)
H44 H 0.8504 0.8125 0.7352
C70 C 0.8287(6) 0.9577(7) 0.6678(3)
H47 H 0.8226 0.9827 0.6893
C71 C 0.7406(5) 0.8205(7) 0.5472(3)
H48 H 0.7380 0.8478 0.5257
C72 C 0.8664(5) 0.9095(6) 0.6695(3)
H49 H 0.8853 0.9018 0.6924
C73 C 0.7044(5) 0.8189(7) 0.5724(4)
C77 C 0.7763(4) 0.9110(7) 0.7754(3)
H52 H 0.7753 0.9403 0.7958
C78 C 0.5555(5) 0.9318(7) 0.6767(5)
H53 H 0.5582 0.8917 0.6644
C81 C 0.6185(7) 0.9831(8) 0.4752(4)
H55 H 0.6352 0.9704 0.4541
C82 C 0.8593(4) 0.8836(7) 0.7975(4)
O44 O 0.9217(3) 0.7974(5) 0.6712(2)
C84 C 0.6216(8) 0.9471(9) 0.5097(4)
H57 H 0.6391 0.9081 0.5113
C85 C 0.8257(6) 0.6910(9) 0.5943(5)
Fe7 Fe 0.94643(8) 0.70763(14) 0.68445(6)
Fe9 Fe 0.93094(9) 0.70865(14) 0.58980(7)
Fe11 Fe 0.87867(9) 0.59757(13) 0.63987(7)
Fe15 Fe 0.95485(8) 0.83886(13) 0.83179(6)
Fe17 Fe 0.89181(9) 0.95402(13) 0.86884(6)
O16 O 0.9705(5) 0.9256(5) 0.8084(3)
C79 C 0.9741(4) 0.9836(6) 0.8232(4)
Fe12 Fe 0.94872(8) 0.84918(14) 0.92544(7)
O16_2 O 0.0295(5) 0.9256(5) 0.1916(3)
C79_2 C 0.0259(4) 0.9836(6) 0.1768(4)
Fe14 Fe 0.04515(8) 0.83886(13) 0.16821(6)
Fe1_2 Fe 0.55357(8) 0.20763(14) 0.31555(6)
P2_2 P 0.83105(17) 0.1449(3) 0.08957(13)
P3_2 P 0.77055(17) 0.0491(3) 0.11420(16)
P4_2 P 0.81773(18) 0.1354(3) 0.16463(14)
P6_2 P 0.28609(17) 0.0057(2) 0.36942(15)
N1_2 N 0.8402(5) 0.1672(7) 0.1327(4)
C1_2 C 0.6595(4) 0.3633(6) 0.0794(4)
O1_2 O 0.4876(3) 0.2195(5) 0.3373(3)
O5_2 O 0.5675(3) 0.3793(4) 0.1241(3)
O6_2 O 0.5828(3) 0.1693(5) 0.3624(3)
N3_2 N 0.7862(6) 0.0766(8) 0.1546(4)
O7_2 O 0.8809(4) 0.1300(6) 0.0764(3)
O11_2 O 0.6202(4) 0.3478(7) 0.0617(3)
O12_2 O 0.5657(4) 0.2502(5) 0.1543(3)
O13_2 O 0.8189(4) 0.2051(6) 0.0615(3)
O14_2 O 0.4994(3) 0.2106(6) 0.3988(3)
O17_2 O 0.5255(4) 0.3063(5) 0.0249(3)
H1_2 H 0.5003 0.2825 0.0292
H2_2 H 0.5464 0.2781 0.0170
C4_2 C 0.9815(4) 0.0208(6) 0.1816(4)
O18_2 O 0.7153(4) 0.0408(5) 0.1071(3)
O19_2 O 0.6102(3) 0.2023(5) 0.2855(3)
O20_2 O 0.5343(4) 0.1220(5) 0.2971(3)
C5_2 C 0.6819(4) 0.0902(6) 0.1112(3)
C6_2 C 0.5754(5) 0.2332(7) 0.1205(3)
C7_2 C 0.8976(4) 0.0879(6) 0.1909(4)
C8_2 C 0.4252(3) 0.1720(6) 0.3690(3)
O22_2 O 0.2313(4) 0.0153(6) 0.3700(4)
O23_2 O 0.2952(5) 0.0790(7) 0.3696(4)
C9_2 C 0.4895(3) 0.0263(5) 0.3076(4)
C11_2 C 0.7023(3) 0.3231(6) 0.0747(3)
C12_2 C 0.6805(4) 0.1652(6) 0.2572(3)
O24_2 O 0.5194(3) 0.2438(5) 0.2697(3)
O25_2 O 0.6628(3) 0.4054(5) 0.1061(3)
O26_2 O 0.6632(5) 0.0162(7) 0.3586(4)
O28_2 O 0.7885(4) 0.1861(8) 0.1838(3)
O30_2 O 0.5570(4) 0.2601(5) 0.0903(3)
N6_2 N 0.7943(5) 0.0851(6) 0.0810(3)
C16_2 C 0.7400(5) 0.2390(9) 0.0392(4)
H6_2 H 0.7397 0.2090 0.0191
C17_2 C 0.7003(4) 0.2831(8) 0.0433(4)
H7_2 H 0.6738 0.2844 0.0250
C20_2 C 0.3557(5) 0.1241(10) 0.3354(4)
H10_2 H 0.3382 0.1113 0.3128
C21_2 C 0.7789(5) 0.2431(7) 0.0667(4)
C22_2 C 0.7790(4) 0.2817(7) 0.0991(3)
H11_2 H 0.8051 0.2805 0.1178
O33_2 O 0.6520(4) 0.5343(7) 0.1385(4)
H12_2 H 0.6850 0.5383 0.1342
H13_2 H 0.6438 0.5757 0.1471
C23_2 C 0.4100(5) 0.0111(7) 0.2770(4)
H14_2 H 0.3857 0.0211 0.2578
C24_2 C 0.4734(4) 0.1996(6) 0.3670(3)
C25_2 C 0.9054(4) 0.0307(6) 0.2100(4)
H15_2 H 0.8823 0.0154 0.2263
O36_2 O 0.6487(4) 0.1173(5) 0.3113(3)
C26_2 C 0.9759(4) 0.0815(6) 0.1642(4)
H16_2 H 0.9996 0.0980 0.1489
C28_2 C 0.9417(4) 0.0139(6) 0.0171(3)
C29_2 C 0.7096(4) 0.2145(7) 0.2007(3)
H18_2 H 0.7043 0.2398 0.1785
O38_2 O 0.5676(3) 0.0499(6) 0.3372(3)
C30_2 C 0.9309(5) 0.0518(7) 0.0488(3)
H19_2 H 0.9488 0.0473 0.0724
O39_2 O 0.5148(4) 0.2989(6) 0.2130(3)
C33_2 C 0.6098(4) 0.1794(6) 0.1172(3)
C37_2 C 0.9335(4) 0.1175(6) 0.1703(4)
H23_2 H 0.9294 0.1599 0.1608
C38_2 C 0.8925(6) 0.0964(8) 0.0443(3)
O41_2 O 0.5571(4) 0.2539(7) 0.4582(3)
H24_2 H 0.5330 0.2456 0.4754
H25_2 H 0.5742 0.2892 0.4697
C40_2 C 0.6599(5) 0.0956(7) 0.1459(3)
H26_2 H 0.6692 0.0680 0.1664
O42_2 O 0.8552(4) 0.1258(7) 0.1969(3)
C42_2 C 0.4520(4) 0.0509(7) 0.2829(4)
H27_2 H 0.4544 0.0913 0.2709
C44_2 C 0.6446(5) 0.1616(7) 0.2857(4)
C45_2 C 0.4004(4) 0.1583(8) 0.3345(3)
H29_2 H 0.4124 0.1711 0.3112
C48_2 C 0.5332(4) 0.0664(6) 0.3138(4)
C49_2 C 0.4139(5) 0.0770(6) 0.5612(3)
C50_2 C 0.7543(4) 0.1832(7) 0.2096(4)
C51_2 C 0.6735(4) 0.2060(9) 0.2264(3)
H31_2 H 0.6440 0.2286 0.2225
C52_2 C 0.6279(5) 0.1709(7) 0.0820(4)
H32_2 H 0.6159 0.1954 0.0608
C54_2 C 0.8707(7) 0.1106(9) 0.0082(3)
H34_2 H 0.8489 0.1454 0.0052
C59_2 C 0.6240(4) 0.1425(6) 0.1498(3)
H38_2 H 0.6100 0.1491 0.1732
C60_2 C 0.7624(4) 0.1434(8) 0.2419(3)
H39_2 H 0.7928 0.1237 0.2472
C62_2 C 0.3391(5) 0.1105(10) 0.3705(4)
C63_2 C 0.4348(7) 0.0603(8) 0.4953(4)
H41_2 H 0.4523 0.0994 0.4973
C66_2 C 0.5329(8) 0.2897(15) 0.2447(7)
H43_2 H 0.5588 0.3169 0.2531
C68_2 C 0.7386(5) 0.3232(8) 0.1034(4)
H45_2 H 0.7368 0.3497 0.1251
C69_2 C 0.3647(5) 0.1234(9) 0.4058(4)
H46_2 H 0.3523 0.1114 0.4291
C74_2 C 0.4105(6) 0.0381(7) 0.5259(3)
C75_2 C 0.4099(4) 0.1553(8) 0.4046(3)
H50_2 H 0.4289 0.1648 0.4272
C76_2 C 0.6654(6) 0.1240(7) 0.0783(3)
H51_2 H 0.6785 0.1163 0.0547
C80_2 C 0.7250(4) 0.1332(7) 0.2664(4)
H54_2 H 0.7294 0.1063 0.2879
C83_2 C 0.4332(5) 0.0243(7) 0.4613(4)
H56_2 H 0.4524 0.0356 0.4412
Fe4_2 Fe 0.55128(8) 0.34918(14) 0.07456(7)
Fe5_2 Fe 0.54515(8) 0.33886(13) 0.16821(6)
Fe6_2 Fe 0.60819(9) 0.45402(13) 0.13116(6)
O45_2 O 0.6073(3) 0.3421(5) 0.2014(2)
O46_2 O 0.5767(4) 0.2967(5) 0.3911(3)
O47_2 O 0.6379(3) 0.2029(6) 0.4260(3)
O48_2 O 0.4783(3) 0.3336(5) 0.1451(3)
O49_2 O 0.5445(4) 0.4354(5) 0.0474(3)
O50_2 O 0.5295(5) 0.4256(5) 0.1916(3)
O52_2 O 0.4819(3) 0.3551(6) 0.0836(2)
O53_2 O 0.5565(3) 0.5058(5) 0.1545(2)
O54_2 O 0.5929(4) 0.4971(6) 0.0835(3)
O55_2 O 0.6425(3) 0.4325(5) 0.1802(3)
O56_2 O 0.6774(4) 0.1497(5) 0.3836(3)
O58_2 O 0.5783(3) 0.2974(5) 0.3288(2)
P1_2 P 0.32865(16) 0.9140(2) 0.32749(12)
P5_2 P 0.34587(16) 0.9148(2) 0.40422(12)
N2_2 N 0.3527(5) 0.8876(7) 0.3630(4)
O2_2 O 0.1073(3) 0.8421(5) 0.2014(2)
O3_2 O 0.3644(3) 0.9173(5) 0.2937(3)
O4_2 O 0.0767(4) 0.7967(5) 0.3911(3)
O8_2 O 0.1379(3) 0.7029(6) 0.4260(3)
O9_2 O 0.2958(4) 0.8574(6) 0.3120(3)
O10_2 O 0.9783(3) 0.8336(5) 0.1451(3)
N4_2 N 0.3072(5) 0.9709(6) 0.4064(4)
C2_2 C 0.9099(4) 0.8798(7) 0.1121(3)
C3_2 C 0.4058(5) 0.9572(7) 0.3004(4)
C10_2 C 0.2177(4) 0.7380(6) 0.4146(4)
N5_2 N 0.2969(5) 0.9841(7) 0.3315(4)
H3_2 H 0.6713 0.9950 0.3385
H4_2 H 0.6767 0.9945 0.3779
O27_2 O 0.3966(6) 0.9384(7) 0.4241(3)
C13_2 C 0.2173(4) 0.8273(7) 0.2874(4)
H5_2 H 0.2155 0.7984 0.3079
O29_2 O 0.3345(4) 0.8607(6) 0.4328(3)
C14_2 C 0.1828(4) 0.8741(6) 0.2295(3)
C15_2 C 0.9586(4) 0.8535(9) 0.1127(3)
C18_2 C 0.9480(4) 0.9944(6) 0.2054(4)
H8_2 H 0.9535 0.9544 0.2177
C19_2 C 0.1507(4) 0.8851(6) 0.3983(3)
H9_2 H 0.1415 0.8639 0.4204
O31_2 O 0.9819(3) 0.8551(6) 0.0836(2)
O35_2 O 0.1425(3) 0.9325(5) 0.1802(3)
C27_2 C 0.2605(4) 0.8641(6) 0.2835(3)
O37_2 O 0.7787(3) 0.9739(5) 0.1095(3)
H17_2 H 0.9656 0.9815 0.0198
C32_2 C 0.8453(6) 0.9252(12) 0.1456(4)
H20_2 H 0.8306 0.9345 0.1684
C34_2 C 0.1986(6) 0.9663(8) 0.3671(4)
O40_2 O 0.1774(4) 0.6497(5) 0.3836(3)
C35_2 C 0.2539(5) 0.7368(7) 0.3890(4)
H21_2 H 0.2504 0.7117 0.3665
C36_2 C 0.8890(5) 0.8894(9) 0.1458(3)
H22_2 H 0.9034 0.8725 0.1688
C39_2 C 0.1258(3) 0.8750(4) 0.3629(3)
C41_2 C 0.8245(5) 0.9463(9) 0.1098(4)
C43_2 C 0.8896(7) 0.9008(13) 0.0762(3)
H28_2 H 0.9037 0.8896 0.0535
C46_2 C 0.2959(5) 0.7737(10) 0.3973(5)
H30_2 H 0.3234 0.7686 0.3832
C53_2 C 0.8475(5) 0.9390(8) 0.0757(4)
H33_2 H 0.8352 0.9593 0.0531
C56_2 C 0.0906(4) 0.8227(6) 0.3603(3)
C57_2 C 0.2647(4) 0.9031(8) 0.2517(3)
H36_2 H 0.2941 0.9243 0.2479
C58_2 C 0.4881(4) 0.9685(6) 0.3276(4)
H37_2 H 0.5149 0.9540 0.3433
C61_2 C 0.1906(5) 0.9284(8) 0.3997(4)
H40_2 H 0.2114 0.9320 0.4220
C64_2 C 0.4016(5) 0.9700(6) 0.4585(3)
C65_2 C 0.2180(4) 0.7801(7) 0.4456(4)
H42_2 H 0.1918 0.7818 0.4612
C67_2 C 0.1788(4) 0.8344(8) 0.2614(4)
H44_2 H 0.1496 0.8125 0.2648
C70_2 C 0.1713(6) 0.9577(7) 0.3322(3)
H47_2 H 0.1774 0.9827 0.3107
C71_2 C 0.2594(5) 0.8205(7) 0.4528(3)
H48_2 H 0.2620 0.8478 0.4743
C72_2 C 0.1336(5) 0.9095(6) 0.3305(3)
H49_2 H 0.1147 0.9018 0.3076
C73_2 C 0.2956(5) 0.8189(7) 0.4276(4)
C77_2 C 0.2237(4) 0.9110(7) 0.2246(3)
H52_2 H 0.2247 0.9403 0.2042
C78_2 C 0.4445(5) 0.9318(7) 0.3233(5)
H53_2 H 0.4418 0.8917 0.3356
C81_2 C 0.3815(7) 0.9831(8) 0.5248(4)
H55_2 H 0.3648 0.9704 0.5459
C82_2 C 0.1407(4) 0.8836(7) 0.2025(4)
O44_2 O 0.0783(3) 0.7974(5) 0.3288(2)
C84_2 C 0.3784(8) 0.9471(9) 0.4903(4)
H57_2 H 0.3609 0.9081 0.4887
C85_2 C 0.1743(6) 0.6910(9) 0.4057(5)
Fe7_2 Fe 0.05357(8) 0.70763(14) 0.31555(6)
Fe9_2 Fe 0.06906(9) 0.70865(14) 0.41020(7)
Fe11_2 Fe 0.12133(9) 0.59757(13) 0.36013(7)
O15_2 O 0.9555(4) 0.9354(5) 0.9526(3)
O34_2 O 0.9071(4) 0.9971(6) 0.9165(3)
C47_2 C 0.9278(5) 0.9843(6) 0.9493(3)
P1_3 P 0.17135(16) 0.4140(2) 0.67251(12)
P5_3 P 0.15413(16) 0.4148(2) 0.59578(12)
P6_3 P 0.21391(17) 0.5057(2) 0.63058(15)
N2_3 N 0.1473(5) 0.3876(7) 0.6370(4)
O1_3 O 0.0124(3) 0.7195(5) 0.6627(3)
O3_3 O 0.1356(3) 0.4173(5) 0.7063(3)
O9_3 O 0.2042(4) 0.3574(6) 0.6880(3)
N4_3 N 0.1928(5) 0.4709(6) 0.5936(4)
C3_3 C 0.0942(5) 0.4572(7) 0.6996(4)
O14_3 O 0.0006(3) 0.7106(6) 0.6012(3)
O21_2 O 0.0569(5) 0.6256(6) 0.4382(3)
C8_3 C 0.0748(3) 0.6720(6) 0.6310(3)
O22_3 O 0.2687(4) 0.5153(6) 0.6300(4)
O23_3 O 0.2048(5) 0.5790(7) 0.6304(4)
C9_3 C 0.0105(3) 0.5263(5) 0.6924(4)
C10_3 C 0.2823(4) 0.2380(6) 0.5854(4)
N5_3 N 0.2031(5) 0.4841(7) 0.6685(4)
O27_3 O 0.1034(6) 0.4384(7) 0.5759(3)
C13_3 C 0.2827(4) 0.3273(7) 0.7126(4)
H5_3 H 0.2845 0.2984 0.6921
O29_3 O 0.1655(4) 0.3607(6) 0.5672(3)
C14_3 C 0.3172(4) 0.3741(6) 0.7705(3)
C19_3 C 0.3493(4) 0.3851(6) 0.6017(3)
H9_3 H 0.3585 0.3639 0.5796
C20_3 C 0.1443(5) 0.6241(10) 0.6646(4)
H10_3 H 0.1618 0.6113 0.6872
C23_3 C 0.0900(5) 0.5111(7) 0.7230(4)
H14_3 H 0.1143 0.5211 0.7422
C24_3 C 0.0266(4) 0.6996(6) 0.6330(3)
C27_3 C 0.2395(4) 0.3641(6) 0.7165(3)
C34_3 C 0.3014(6) 0.4663(8) 0.6329(4)
C35_3 C 0.2461(5) 0.2368(7) 0.6110(4)
H21_3 H 0.2496 0.2117 0.6335
C39_3 C 0.3742(3) 0.3750(4) 0.6371(3)
C42_3 C 0.0480(4) 0.5509(7) 0.7171(4)
H27_3 H 0.0456 0.5913 0.7291
C45_3 C 0.0996(4) 0.6583(8) 0.6655(3)
H29_3 H 0.0876 0.6711 0.6888
C46_3 C 0.2041(5) 0.2737(10) 0.6027(5)
H30_3 H 0.1766 0.2686 0.6168
C49_3 C 0.0861(5) 0.5770(6) 0.4388(3)
C56_3 C 0.4094(4) 0.3227(6) 0.6397(3)
C57_3 C 0.2353(4) 0.4031(8) 0.7483(3)
H36_3 H 0.2059 0.4243 0.7521
C58_3 C 0.0119(4) 0.4685(6) 0.6724(4)
O43_2 O 0.1088(4) 0.5597(6) 0.4107(3)
C61_3 C 0.3094(5) 0.4284(8) 0.6003(4)
H40_3 H 0.2886 0.4320 0.5780
C62_3 C 0.1609(5) 0.6105(10) 0.6295(4)
C63_3 C 0.0652(7) 0.5603(8) 0.5047(4)
H41_3 H 0.0477 0.5994 0.5027
C64_3 C 0.0984(5) 0.4700(6) 0.5415(3)
C65_3 C 0.2820(4) 0.2801(7) 0.5544(4)
H42_3 H 0.3082 0.2818 0.5388
C67_3 C 0.3212(4) 0.3344(8) 0.7386(4)
H44_3 H 0.3504 0.3125 0.7352
C69_3 C 0.1353(5) 0.6234(9) 0.5942(4)
H46_3 H 0.1477 0.6114 0.5709
C70_3 C 0.3287(6) 0.4577(7) 0.6678(3)
H47_3 H 0.3226 0.4827 0.6893
C71_3 C 0.2406(5) 0.3205(7) 0.5472(3)
H48_3 H 0.2380 0.3478 0.5257
C72_3 C 0.3664(5) 0.4095(6) 0.6695(3)
H49_3 H 0.3853 0.4018 0.6924
C73_3 C 0.2044(5) 0.3189(7) 0.5724(4)
C74_3 C 0.0895(6) 0.5381(7) 0.4741(3)
C75_3 C 0.0901(4) 0.6553(8) 0.5954(3)
H50_3 H 0.0711 0.6648 0.5728
C77_3 C 0.2763(4) 0.4110(7) 0.7754(3)
H52_3 H 0.2753 0.4403 0.7958
C78_3 C 0.0555(5) 0.4318(7) 0.6767(5)
H53_3 H 0.0582 0.3917 0.6644
C81_3 C 0.1185(7) 0.4831(8) 0.4752(4)
H55_3 H 0.1352 0.4704 0.4541
C82_3 C 0.3593(4) 0.3836(7) 0.7975(4)
C83_3 C 0.0668(5) 0.5243(7) 0.5387(4)
H56_3 H 0.0476 0.5356 0.5588
C84_3 C 0.1216(8) 0.4471(9) 0.5097(4)
H57_3 H 0.1391 0.4081 0.5113
C85_3 C 0.3257(6) 0.1910(9) 0.5943(5)
C31_2 C 0.5829(4) 0.5245(5) 0.0180(3)
C47_3 C 0.5722(5) 0.4843(6) 0.0507(3)
C55_2 C 0.6187(5) 0.5729(6) 0.0241(3)
H35_2 H 0.6348 0.5797 0.0483
P2_3 P 0.66895(17) 0.6449(3) 0.91043(13)
P3_3 P 0.72945(17) 0.5491(3) 0.88580(16)
P4_3 P 0.68227(18) 0.6354(3) 0.83537(14)
N1_3 N 0.6598(5) 0.6672(7) 0.8673(4)
C1_3 C 0.8405(4) 0.8633(6) 0.9206(4)
O5_3 O 0.9325(3) 0.8793(4) 0.8759(3)
O6_3 O 0.9172(3) 0.6693(5) 0.6376(3)
N3_3 N 0.7138(6) 0.5766(8) 0.8454(4)
O7_3 O 0.6191(4) 0.6300(6) 0.9236(3)
O11_3 O 0.8798(4) 0.8478(7) 0.9383(3)
O12_3 O 0.9343(4) 0.7502(5) 0.8457(3)
O13_3 O 0.6811(4) 0.7051(6) 0.9385(3)
C2_3 C 0.5901(4) 0.3798(7) 0.8879(3)
O17_3 O 0.9745(4) 0.8063(5) 0.9751(3)
H1_3 H 0.9997 0.7825 0.9708
H2_3 H 0.9536 0.7781 0.9830
C4_3 C 0.5185(4) 0.5208(6) 0.8184(4)
O18_3 O 0.7847(4) 0.5408(5) 0.8929(3)
O19_3 O 0.8898(3) 0.7023(5) 0.7145(3)
O20_3 O 0.9657(4) 0.6220(5) 0.7029(3)
C5_3 C 0.8181(4) 0.5902(6) 0.8888(3)
C6_3 C 0.9246(5) 0.7332(7) 0.8795(3)
C7_3 C 0.6024(4) 0.5879(6) 0.8091(4)
C11_3 C 0.7977(3) 0.8231(6) 0.9253(3)
C12_3 C 0.8195(4) 0.6652(6) 0.7428(3)
O24_3 O 0.9806(3) 0.7438(5) 0.7303(3)
O25_3 O 0.8372(3) 0.9054(5) 0.8939(3)
O26_3 O 0.8368(5) 0.5162(7) 0.6414(4)
H3_3 H 0.8287 0.4950 0.6615
H4_3 H 0.8233 0.4945 0.6221
O28_3 O 0.7115(4) 0.6861(8) 0.8162(3)
O30_3 O 0.9430(4) 0.7601(5) 0.9097(3)
N6_3 N 0.7057(5) 0.5851(6) 0.9190(3)
C15_3 C 0.5414(4) 0.3535(9) 0.8873(3)
C16_3 C 0.7600(5) 0.7390(9) 0.9608(4)
H6_3 H 0.7603 0.7090 0.9809
C17_3 C 0.7997(4) 0.7831(8) 0.9567(4)
H7_3 H 0.8262 0.7844 0.9750
C18_3 C 0.5520(4) 0.4944(6) 0.7946(4)
H8_3 H 0.5465 0.4544 0.7823
C21_3 C 0.7211(5) 0.7431(7) 0.9333(4)
C22_3 C 0.7210(4) 0.7817(7) 0.9009(3)
H11_3 H 0.6949 0.7805 0.8822
C25_3 C 0.5946(4) 0.5307(6) 0.7900(4)
H15_3 H 0.6177 0.5154 0.7737
O36_3 O 0.8513(4) 0.6173(5) 0.6887(3)
C26_3 C 0.5241(4) 0.5815(6) 0.8358(4)
H16_3 H 0.5004 0.5980 0.8511
O37_3 O 0.7213(3) 0.4739(5) 0.8905(3)
C28_3 C 0.5583(4) 0.5139(6) 0.9829(3)
H17_3 H 0.5344 0.4815 0.9802
C29_3 C 0.7904(4) 0.7145(7) 0.7993(3)
H18_3 H 0.7957 0.7398 0.8215
O38_3 O 0.9324(3) 0.5499(6) 0.6628(3)
C30_3 C 0.5691(5) 0.5518(7) 0.9512(3)
H19_3 H 0.5512 0.5473 0.9276
C32_3 C 0.6547(6) 0.4252(12) 0.8544(4)
H20_3 H 0.6694 0.4345 0.8316
O39_3 O 0.9852(4) 0.7989(6) 0.7870(3)
C33_3 C 0.8902(4) 0.6794(6) 0.8828(3)
C36_3 C 0.6110(5) 0.3894(9) 0.8542(3)
H22_3 H 0.5966 0.3725 0.8312
C37_3 C 0.5665(4) 0.6175(6) 0.8297(4)
H23_3 H 0.5706 0.6599 0.8392
C38_3 C 0.6075(6) 0.5964(8) 0.9557(3)
O41_3 O 0.9429(4) 0.7539(7) 0.5418(3)
H24_3 H 0.9670 0.7456 0.5246
H25_3 H 0.9258 0.7892 0.5303
C40_3 C 0.8401(5) 0.5956(7) 0.8541(3)
H26_3 H 0.8308 0.5680 0.8336
O42_3 O 0.6448(4) 0.6258(7) 0.8031(3)
C41_3 C 0.6755(5) 0.4463(9) 0.8902(4)
C43_3 C 0.6104(7) 0.4008(13) 0.9238(3)
H28_3 H 0.5963 0.3896 0.9465
C44_3 C 0.8554(5) 0.6616(7) 0.7143(4)
C48_3 C 0.9668(4) 0.5664(6) 0.6862(4)
C50_3 C 0.7457(4) 0.6832(7) 0.7904(4)
C51_3 C 0.8265(4) 0.7060(9) 0.7736(3)
H31_3 H 0.8560 0.7286 0.7775
C52_3 C 0.8721(5) 0.6709(7) 0.9180(4)
H32_3 H 0.8841 0.6954 0.9392
C53_3 C 0.6525(5) 0.4390(8) 0.9243(4)
H33_3 H 0.6648 0.4593 0.9469
C54_3 C 0.6293(7) 0.6106(9) 0.9918(3)
H34_3 H 0.6511 0.6454 0.9948
H37_3 H 0.9851 0.4540 0.6567
C59_3 C 0.8760(4) 0.6425(6) 0.8502(3)
H38_3 H 0.8900 0.6491 0.8268
C60_3 C 0.7376(4) 0.6434(8) 0.7581(3)
H39_3 H 0.7072 0.6237 0.7528
C66_3 C 0.9671(8) 0.7897(15) 0.7553(7)
H43_3 H 0.9412 0.8169 0.7469
C68_3 C 0.7614(5) 0.8232(8) 0.8966(4)
H45_3 H 0.7632 0.8497 0.8749
C76_3 C 0.8346(6) 0.6240(7) 0.9217(3)
H51_3 H 0.8215 0.6163 0.9453
C79_3 C 0.4741(4) 0.4836(6) 0.8232(4)
C80_3 C 0.7750(4) 0.6332(7) 0.7336(4)
H54_3 H 0.7706 0.6063 0.7121
O51_2 O 0.9431(5) 0.6256(6) 0.5618(3)
O57_2 O 0.8912(4) 0.5597(6) 0.5893(3)
P2_4 P 0.33105(17) 0.6449(3) 0.08957(13)
P3_4 P 0.27055(17) 0.5491(3) 0.11420(16)
P4_4 P 0.31773(18) 0.6354(3) 0.16463(14)
N1_4 N 0.3402(5) 0.6672(7) 0.1327(4)
C1_4 C 0.1595(4) 0.8633(6) 0.0794(4)
O5_4 O 0.0675(3) 0.8793(4) 0.1241(3)
O6_4 O 0.0828(3) 0.6693(5) 0.3624(3)
N3_4 N 0.2862(6) 0.5766(8) 0.1546(4)
O7_4 O 0.3809(4) 0.6300(6) 0.0764(3)
O11_4 O 0.1202(4) 0.8478(7) 0.0617(3)
O12_4 O 0.0657(4) 0.7502(5) 0.1543(3)
O13_4 O 0.3189(4) 0.7051(6) 0.0615(3)
C2_4 C 0.4099(4) 0.3798(7) 0.1121(3)
O17_4 O 0.0255(4) 0.8063(5) 0.0249(3)
H1_4 H 0.0003 0.7825 0.0292
H2_4 H 0.0464 0.7781 0.0170
C4_4 C 0.4815(4) 0.5208(6) 0.1816(4)
O18_4 O 0.2153(4) 0.5408(5) 0.1071(3)
O19_4 O 0.1102(3) 0.7023(5) 0.2855(3)
O20_4 O 0.0343(4) 0.6220(5) 0.2971(3)
C5_4 C 0.1819(4) 0.5902(6) 0.1112(3)
C6_4 C 0.0754(5) 0.7332(7) 0.1205(3)
C7_4 C 0.3976(4) 0.5879(6) 0.1909(4)
C11_4 C 0.2023(3) 0.8231(6) 0.0747(3)
C12_4 C 0.1805(4) 0.6652(6) 0.2572(3)
O24_4 O 0.0194(3) 0.7438(5) 0.2697(3)
O25_4 O 0.1628(3) 0.9054(5) 0.1061(3)
O26_4 O 0.1632(5) 0.5162(7) 0.3586(4)
H3_4 H 0.1713 0.4950 0.3385
H4_4 H 0.1767 0.4945 0.3779
O28_4 O 0.2885(4) 0.6861(8) 0.1838(3)
O30_4 O 0.0570(4) 0.7601(5) 0.0903(3)
N6_4 N 0.2943(5) 0.5851(6) 0.0810(3)
C15_4 C 0.4586(4) 0.3535(9) 0.1127(3)
C16_4 C 0.2400(5) 0.7390(9) 0.0392(4)
H6_4 H 0.2397 0.7090 0.0191
C17_4 C 0.2003(4) 0.7831(8) 0.0433(4)
H7_4 H 0.1738 0.7844 0.0250
C18_4 C 0.4480(4) 0.4944(6) 0.2054(4)
H8_4 H 0.4535 0.4544 0.2177
C21_4 C 0.2789(5) 0.7431(7) 0.0667(4)
C22_4 C 0.2790(4) 0.7817(7) 0.0991(3)
H11_4 H 0.3051 0.7805 0.1178
C25_4 C 0.4054(4) 0.5307(6) 0.2100(4)
H15_4 H 0.3823 0.5154 0.2263
O36_4 O 0.1487(4) 0.6173(5) 0.3113(3)
C26_4 C 0.4759(4) 0.5815(6) 0.1642(4)
H16_4 H 0.4996 0.5980 0.1489
O37_4 O 0.2787(3) 0.4739(5) 0.1095(3)
C28_4 C 0.4417(4) 0.5139(6) 0.0171(3)
H17_4 H 0.4656 0.4815 0.0198
C29_4 C 0.2096(4) 0.7145(7) 0.2007(3)
H18_4 H 0.2043 0.7398 0.1785
O38_4 O 0.0676(3) 0.5499(6) 0.3372(3)
C30_4 C 0.4309(5) 0.5518(7) 0.0488(3)
H19_4 H 0.4488 0.5473 0.0724
C32_4 C 0.3453(6) 0.4252(12) 0.1456(4)
H20_4 H 0.3306 0.4345 0.1684
O39_4 O 0.0148(4) 0.7989(6) 0.2130(3)
C33_4 C 0.1098(4) 0.6794(6) 0.1172(3)
C36_4 C 0.3890(5) 0.3894(9) 0.1458(3)
H22_4 H 0.4034 0.3725 0.1688
C37_4 C 0.4335(4) 0.6175(6) 0.1703(4)
H23_4 H 0.4294 0.6599 0.1608
C38_4 C 0.3925(6) 0.5964(8) 0.0443(3)
O41_4 O 0.0571(4) 0.7539(7) 0.4582(3)
H24_4 H 0.0330 0.7456 0.4754
H25_4 H 0.0742 0.7892 0.4697
C40_4 C 0.1599(5) 0.5956(7) 0.1459(3)
H26_4 H 0.1692 0.5680 0.1664
O42_4 O 0.3552(4) 0.6258(7) 0.1969(3)
C41_4 C 0.3245(5) 0.4463(9) 0.1098(4)
C43_4 C 0.3896(7) 0.4008(13) 0.0762(3)
H28_4 H 0.4037 0.3896 0.0535
C44_4 C 0.1446(5) 0.6616(7) 0.2857(4)
C48_4 C 0.0332(4) 0.5664(6) 0.3138(4)
C50_4 C 0.2543(4) 0.6832(7) 0.2096(4)
C51_4 C 0.1735(4) 0.7060(9) 0.2264(3)
H31_4 H 0.1440 0.7286 0.2225
C52_4 C 0.1279(5) 0.6709(7) 0.0820(4)
H32_4 H 0.1159 0.6954 0.0608
C53_4 C 0.3475(5) 0.4390(8) 0.0757(4)
H33_4 H 0.3352 0.4593 0.0531
C54_4 C 0.3707(7) 0.6106(9) 0.0082(3)
H34_4 H 0.3489 0.6454 0.0052
H37_4 H 0.0149 0.4540 0.3433
C59_4 C 0.1240(4) 0.6425(6) 0.1498(3)
H38_4 H 0.1100 0.6491 0.1732
C60_4 C 0.2624(4) 0.6434(8) 0.2419(3)
H39_4 H 0.2928 0.6237 0.2472
C66_4 C 0.0329(8) 0.7897(15) 0.2447(7)
H43_4 H 0.0588 0.8169 0.2531
C68_4 C 0.2386(5) 0.8232(8) 0.1034(4)
H45_4 H 0.2368 0.8497 0.1251
C76_4 C 0.1654(6) 0.6240(7) 0.0783(3)
H51_4 H 0.1785 0.6163 0.0547
C79_4 C 0.5259(4) 0.4836(6) 0.1768(4)
C80_4 C 0.2250(4) 0.6332(7) 0.2664(4)
H54_4 H 0.2294 0.6063 0.2879
C31_3 C 0.4171(4) 0.5245(5) 0.9820(3)
C47_4 C 0.4278(5) 0.4843(6) 0.9493(3)
C55_3 C 0.3813(5) 0.5729(6) 0.9759(3)
H35_3 H 0.3652 0.5797 0.9517
P1_4 P 0.82865(16) 0.4140(2) 0.32749(12)
P5_4 P 0.84587(16) 0.4148(2) 0.40422(12)
P6_4 P 0.78609(17) 0.5057(2) 0.36942(15)
N2_4 N 0.8527(5) 0.3876(7) 0.3630(4)
O1_4 O 0.9876(3) 0.7195(5) 0.3373(3)
O3_4 O 0.8644(3) 0.4173(5) 0.2937(3)
O9_4 O 0.7958(4) 0.3574(6) 0.3120(3)
N4_4 N 0.8072(5) 0.4709(6) 0.4064(4)
C3_4 C 0.9058(5) 0.4572(7) 0.3004(4)
O14_4 O 0.9994(3) 0.7106(6) 0.3988(3)
C8_4 C 0.9252(3) 0.6720(6) 0.3690(3)
O22_4 O 0.7313(4) 0.5153(6) 0.3700(4)
O23_4 O 0.7952(5) 0.5790(7) 0.3696(4)
C9_4 C 0.9895(3) 0.5263(5) 0.3076(4)
C10_4 C 0.7177(4) 0.2380(6) 0.4146(4)
N5_4 N 0.7969(5) 0.4841(7) 0.3315(4)
O27_4 O 0.8966(6) 0.4384(7) 0.4241(3)
C13_4 C 0.7173(4) 0.3273(7) 0.2874(4)
H5_4 H 0.7155 0.2984 0.3079
O29_4 O 0.8345(4) 0.3607(6) 0.4328(3)
C14_4 C 0.6828(4) 0.3741(6) 0.2295(3)
C19_4 C 0.6507(4) 0.3851(6) 0.3983(3)
H9_4 H 0.6415 0.3639 0.4204
C20_4 C 0.8557(5) 0.6241(10) 0.3354(4)
H10_4 H 0.8382 0.6113 0.3128
C23_4 C 0.9100(5) 0.5111(7) 0.2770(4)
H14_4 H 0.8857 0.5211 0.2578
C24_4 C 0.9734(4) 0.6996(6) 0.3670(3)
C27_4 C 0.7605(4) 0.3641(6) 0.2835(3)
C34_4 C 0.6986(6) 0.4663(8) 0.3671(4)
C35_4 C 0.7539(5) 0.2368(7) 0.3890(4)
H21_4 H 0.7504 0.2117 0.3665
C39_4 C 0.6258(3) 0.3750(4) 0.3629(3)
C42_4 C 0.9520(4) 0.5509(7) 0.2829(4)
H27_4 H 0.9544 0.5913 0.2709
C45_4 C 0.9004(4) 0.6583(8) 0.3345(3)
H29_4 H 0.9124 0.6711 0.3112
C46_4 C 0.7959(5) 0.2737(10) 0.3973(5)
H30_4 H 0.8234 0.2686 0.3832
C49_4 C 0.9139(5) 0.5770(6) 0.5612(3)
C56_4 C 0.5906(4) 0.3227(6) 0.3603(3)
C57_4 C 0.7647(4) 0.4031(8) 0.2517(3)
H36_4 H 0.7941 0.4243 0.2479
C58_4 C 0.9881(4) 0.4685(6) 0.3276(4)
C61_4 C 0.6906(5) 0.4284(8) 0.3997(4)
H40_4 H 0.7114 0.4320 0.4220
C62_4 C 0.8391(5) 0.6105(10) 0.3705(4)
C63_4 C 0.9348(7) 0.5603(8) 0.4953(4)
H41_4 H 0.9523 0.5994 0.4973
C64_4 C 0.9016(5) 0.4700(6) 0.4585(3)
C65_4 C 0.7180(4) 0.2801(7) 0.4456(4)
H42_4 H 0.6918 0.2818 0.4612
C67_4 C 0.6788(4) 0.3344(8) 0.2614(4)
H44_4 H 0.6496 0.3125 0.2648
C69_4 C 0.8647(5) 0.6234(9) 0.4058(4)
H46_4 H 0.8523 0.6114 0.4291
C70_4 C 0.6713(6) 0.4577(7) 0.3322(3)
H47_4 H 0.6774 0.4827 0.3107
C71_4 C 0.7594(5) 0.3205(7) 0.4528(3)
H48_4 H 0.7620 0.3478 0.4743
C72_4 C 0.6336(5) 0.4095(6) 0.3305(3)
H49_4 H 0.6147 0.4018 0.3076
C73_4 C 0.7956(5) 0.3189(7) 0.4276(4)
C74_4 C 0.9105(6) 0.5381(7) 0.5259(3)
C75_4 C 0.9099(4) 0.6553(8) 0.4046(3)
H50_4 H 0.9289 0.6648 0.4272
C77_4 C 0.7237(4) 0.4110(7) 0.2246(3)
H52_4 H 0.7247 0.4403 0.2042
C78_4 C 0.9445(5) 0.4318(7) 0.3233(5)
H53_4 H 0.9418 0.3917 0.3356
C81_4 C 0.8815(7) 0.4831(8) 0.5248(4)
H55_4 H 0.8648 0.4704 0.5459
C82_4 C 0.6407(4) 0.3836(7) 0.2025(4)
C83_4 C 0.9332(5) 0.5243(7) 0.4613(4)
H56_4 H 0.9524 0.5356 0.4412
C84_4 C 0.8784(8) 0.4471(9) 0.4903(4)
H57_4 H 0.8609 0.4081 0.4887
C85_4 C 0.6743(6) 0.1910(9) 0.4057(5)
O32 O 0.9435(3) 0.0058(5) 0.8455(2)
O33_3 O 0.8480(4) 0.0343(7) 0.8615(4)
H12_3 H 0.8150 0.0383 0.8658
H13_3 H 0.8562 0.0757 0.8529
O32_2 O 0.0565(3) 0.0058(5) 0.1545(2)
O33_4 O 0.1520(4) 0.0343(7) 0.1385(4)
H12_4 H 0.1850 0.0383 0.1342
H13_4 H 0.1438 0.0757 0.1471
C31_4 C 0.9171(4) 0.0245(5) 0.9820(3)
C55_4 C 0.8813(5) 0.0729(6) 0.9759(3)
H35_4 H 0.8652 0.0797 0.9517
loop_
_geom_bond_atom_site_label_1
_geom_bond_atom_site_label_2
_geom_bond_site_symmetry_1
_geom_bond_site_symmetry_2
C55 C31 1_555 1_555
H35 C55 1_555 1_555
Fe1 O1 1_555 1_555
P2 N1 1_555 1_555
P3 N3 1_555 1_555
P4 N1 1_555 1_555
C1 O11 1_555 1_555
O1 C24 1_555 1_555
O5 Fe4 1_555 1_555
O6 Fe1 1_555 1_555
N3 P4 1_555 1_555
O7 P2 1_555 1_555
O11 Fe4 1_555 1_555
O12 C6 1_555 1_555
O13 P2 1_555 1_555
O14 C24 1_555 1_555
O17 H1 1_555 1_555
H2 O17 1_555 1_555
O18 P3 1_555 1_555
O19 Fe1 1_555 1_555
O20 Fe1 1_555 1_555
C5 O18 1_555 1_555
O21 C49 1_555 1_555
C6 O30 1_555 1_555
C7 C25 1_555 1_555
C8 C24 1_555 1_555
O22 P6 1_555 1_555
O23 P6 1_555 1_555
C9 C42 1_555 1_555
C11 C1 1_555 1_555
C12 C44 1_555 1_555
O24 Fe1 1_555 1_555
O25 C1 1_555 1_555
O28 P4 1_555 1_555
O30 Fe4 1_555 1_555
N6 P2 1_555 1_555
C16 H6 1_555 1_555
C17 C11 1_555 1_555
H7 C17 1_555 1_555
C20 H10 1_555 1_555
C21 O13 1_555 1_555
C22 C21 1_555 1_555
H11 C22 1_555 1_555
O33 H12 1_555 1_555
H13 O33 1_555 1_555
H14 C23 1_555 1_555
H15 C25 1_555 1_555
O36 C44 1_555 1_555
C26 C4 1_555 1_555
H16 C26 1_555 1_555
C29 H18 1_555 1_555
O38 C48 1_555 1_555
C30 C28 1_555 1_555
H19 C30 1_555 1_555
O39 C66 1_555 1_555
C33 C6 1_555 1_555
C37 C7 1_555 1_555
H23 C37 1_555 1_555
C38 O7 1_555 1_555
O41 H24 1_555 1_555
H25 O41 1_555 1_555
C40 C5 1_555 1_555
H26 C40 1_555 1_555
O42 P4 1_555 1_555
C42 C23 1_555 1_555
H27 C42 1_555 1_555
C44 O19 1_555 1_555
C45 C8 1_555 1_555
H29 C45 1_555 1_555
C48 O20 1_555 1_555
C49 O43 1_555 1_555
C50 O28 1_555 1_555
C51 C12 1_555 1_555
H31 C51 1_555 1_555
C52 C33 1_555 1_555
H32 C52 1_555 1_555
C54 C38 1_555 1_555
H34 C54 1_555 1_555
C59 C33 1_555 1_555
H38 C59 1_555 1_555
C60 C50 1_555 1_555
H39 C60 1_555 1_555
O43 Fe10 1_555 1_555
C62 O23 1_555 1_555
C63 H41 1_555 1_555
C66 O24 1_555 1_555
H43 C66 1_555 1_555
C68 C11 1_555 1_555
H45 C68 1_555 1_555
C69 C62 1_555 1_555
H46 C69 1_555 1_555
C74 C49 1_555 1_555
C75 C8 1_555 1_555
H50 C75 1_555 1_555
C76 C5 1_555 1_555
H51 C76 1_555 1_555
C80 C12 1_555 1_555
H54 C80 1_555 1_555
C83 C63 1_555 1_555
H56 C83 1_555 1_555
Fe2 O6 1_555 1_555
Fe3 O6 1_555 1_555
Fe4 O17 1_555 1_555
Fe5 O5 1_555 1_555
Fe6 O5 1_555 1_555
O45 Fe5 1_555 1_555
O46 Fe2 1_555 1_555
O47 Fe2 1_555 1_555
O48 Fe5 1_555 1_555
O49 Fe4 1_555 1_555
O50 Fe5 1_555 1_555
O51 Fe2 1_555 1_555
O52 Fe4 1_555 1_555
O53 Fe6 1_555 1_555
O54 Fe6 1_555 1_555
O55 Fe6 1_555 1_555
O56 Fe3 1_555 1_555
O57 Fe3 1_555 1_555
Fe8 O21 1_555 1_555
O58 Fe1 1_555 1_555
P3 N6 1_555 1_555
O12 Fe5 1_555 1_555
O14 Fe2 1_555 1_555
C7 O42 1_555 1_555
C9 C48 1_555 1_555
O25 Fe6 1_555 1_555
O26 Fe3 1_555 1_555
C16 C17 1_555 1_555
C16 C21 1_555 1_555
C20 C45 1_555 1_555
C20 C62 1_555 1_555
C22 C68 1_555 1_555
O33 Fe6 1_555 1_555
O36 Fe3 1_555 1_555
C26 C37 1_555 1_555
C29 C50 1_555 1_555
C29 C51 1_555 1_555
O38 Fe3 1_555 1_555
C30 C38 1_555 1_555
O39 Fe5 1_555 1_555
O41 Fe2 1_555 1_555
C40 C59 1_555 1_555
C52 C76 1_555 1_555
C60 C80 1_555 1_555
C63 C74 1_555 1_555
C69 C75 1_555 1_555
O15 C47 1_555 1_555
O34 C47 1_555 1_555
Fe13 O15 1_555 1_555
Fe18 O34 1_555 1_555
P1 N2 1_555 1_555
P5 N2 1_555 1_555
O2 C82 1_555 1_555
O3 P1 1_555 1_555
O4 C56 1_555 1_555
O8 C85 1_555 1_555
O9 P1 1_555 1_555
O10 C15 1_555 1_555
N4 P5 1_555 1_555
C2 C15 1_555 1_555
C3 O3 1_555 1_555
C10 C35 1_555 1_555
N5 P1 1_555 1_555
O27 P5 1_555 1_555
C13 H5 1_555 1_555
O29 P5 1_555 1_555
C14 C67 1_555 1_555
C15 O31 1_555 1_555
C18 H8 1_555 1_555
C19 H9 1_555 1_555
O35 C82 1_555 1_555
C27 O9 1_555 1_555
C32 H20 1_555 1_555
O40 C85 1_555 1_555
C35 H21 1_555 1_555
C36 C2 1_555 1_555
H22 C36 1_555 1_555
C39 C19 1_555 1_555
C41 O37 1_555 1_555
C43 C2 1_555 1_555
H28 C43 1_555 1_555
C46 C35 1_555 1_555
H30 C46 1_555 1_555
C53 C41 1_555 1_555
H33 C53 1_555 1_555
C56 C39 1_555 1_555
C57 C27 1_555 1_555
H36 C57 1_555 1_555
H37 C58 1_555 1_555
C61 C19 1_555 1_555
H40 C61 1_555 1_555
C64 O27 1_555 1_555
C65 C10 1_555 1_555
H42 C65 1_555 1_555
C67 C13 1_555 1_555
H44 C67 1_555 1_555
C70 C34 1_555 1_555
H47 C70 1_555 1_555
C71 C65 1_555 1_555
H48 C71 1_555 1_555
C72 C39 1_555 1_555
H49 C72 1_555 1_555
C73 O29 1_555 1_555
C77 C14 1_555 1_555
H52 C77 1_555 1_555
C78 C3 1_555 1_555
H53 C78 1_555 1_555
H55 C81 1_555 1_555
C82 C14 1_555 1_555
O44 C56 1_555 1_555
C84 C64 1_555 1_555
H57 C84 1_555 1_555
C85 C10 1_555 1_555
Fe7 O44 1_555 1_555
Fe9 O4 1_555 1_555
Fe11 O40 1_555 1_555
Fe15 O2 1_555 1_555
Fe17 O35 1_555 1_555
O8 Fe9 1_555 1_555
C13 C27 1_555 1_555
C32 C36 1_555 1_555
C32 C41 1_555 1_555
C34 C61 1_555 1_555
C43 C53 1_555 1_555
C46 C73 1_555 1_555
C57 C77 1_555 1_555
C58 C78 1_555 1_555
C70 C72 1_555 1_555
C71 C73 1_555 1_555
C81 C84 1_555 1_555
O16 C79 1_555 1_555
O16 Fe15 1_555 1_555
O16_2 C79_2 1_555 1_555
O16_2 Fe14 1_555 1_555
Fe1_2 O1_2 1_555 1_555
P2_2 N1_2 1_555 1_555
P3_2 N3_2 1_555 1_555
P4_2 N1_2 1_555 1_555
C1_2 O11_2 1_555 1_555
O1_2 C24_2 1_555 1_555
O5_2 Fe4_2 1_555 1_555
O6_2 Fe1_2 1_555 1_555
N3_2 P4_2 1_555 1_555
O7_2 P2_2 1_555 1_555
O11_2 Fe4_2 1_555 1_555
O12_2 C6_2 1_555 1_555
O13_2 P2_2 1_555 1_555
O14_2 C24_2 1_555 1_555
O17_2 H1_2 1_555 1_555
H2_2 O17_2 1_555 1_555
O18_2 P3_2 1_555 1_555
O19_2 Fe1_2 1_555 1_555
O20_2 Fe1_2 1_555 1_555
C5_2 O18_2 1_555 1_555
O51 C49_2 1_555 1_555
C6_2 O30_2 1_555 1_555
C7_2 C25_2 1_555 1_555
C8_2 C24_2 1_555 1_555
O22_2 P6_2 1_555 1_555
O23_2 P6_2 1_555 1_555
C9_2 C42_2 1_555 1_555
C11_2 C1_2 1_555 1_555
C12_2 C44_2 1_555 1_555
O24_2 Fe1_2 1_555 1_555
O25_2 C1_2 1_555 1_555
O28_2 P4_2 1_555 1_555
O30_2 Fe4_2 1_555 1_555
N6_2 P2_2 1_555 1_555
C16_2 H6_2 1_555 1_555
C17_2 C11_2 1_555 1_555
H7_2 C17_2 1_555 1_555
C20_2 H10_2 1_555 1_555
C21_2 O13_2 1_555 1_555
C22_2 C21_2 1_555 1_555
H11_2 C22_2 1_555 1_555
O33_2 H12_2 1_555 1_555
H13_2 O33_2 1_555 1_555
H14_2 C23_2 1_555 1_555
H15_2 C25_2 1_555 1_555
O36_2 C44_2 1_555 1_555
C26_2 C4_2 1_555 1_555
H16_2 C26_2 1_555 1_555
C29_2 H18_2 1_555 1_555
O38_2 C48_2 1_555 1_555
C30_2 C28_2 1_555 1_555
H19_2 C30_2 1_555 1_555
O39_2 C66_2 1_555 1_555
C33_2 C6_2 1_555 1_555
C37_2 C7_2 1_555 1_555
H23_2 C37_2 1_555 1_555
C38_2 O7_2 1_555 1_555
O41_2 H24_2 1_555 1_555
H25_2 O41_2 1_555 1_555
C40_2 C5_2 1_555 1_555
H26_2 C40_2 1_555 1_555
O42_2 P4_2 1_555 1_555
C42_2 C23_2 1_555 1_555
H27_2 C42_2 1_555 1_555
C44_2 O19_2 1_555 1_555
C45_2 C8_2 1_555 1_555
H29_2 C45_2 1_555 1_555
C48_2 O20_2 1_555 1_555
C49_2 O57 1_555 1_555
C50_2 O28_2 1_555 1_555
C51_2 C12_2 1_555 1_555
H31_2 C51_2 1_555 1_555
C52_2 C33_2 1_555 1_555
H32_2 C52_2 1_555 1_555
C54_2 C38_2 1_555 1_555
H34_2 C54_2 1_555 1_555
C59_2 C33_2 1_555 1_555
H38_2 C59_2 1_555 1_555
C60_2 C50_2 1_555 1_555
H39_2 C60_2 1_555 1_555
C62_2 O23_2 1_555 1_555
C63_2 H41_2 1_555 1_555
C66_2 O24_2 1_555 1_555
H43_2 C66_2 1_555 1_555
C68_2 C11_2 1_555 1_555
H45_2 C68_2 1_555 1_555
C69_2 C62_2 1_555 1_555
H46_2 C69_2 1_555 1_555
C74_2 C49_2 1_555 1_555
C75_2 C8_2 1_555 1_555
H50_2 C75_2 1_555 1_555
C76_2 C5_2 1_555 1_555
H51_2 C76_2 1_555 1_555
C80_2 C12_2 1_555 1_555
H54_2 C80_2 1_555 1_555
C83_2 C63_2 1_555 1_555
H56_2 C83_2 1_555 1_555
Fe8 O6_2 1_555 1_555
Fe10 O6_2 1_555 1_555
Fe4_2 O17_2 1_555 1_555
Fe5_2 O5_2 1_555 1_555
Fe6_2 O5_2 1_555 1_555
O45_2 Fe5_2 1_555 1_555
O46_2 Fe8 1_555 1_555
O47_2 Fe8 1_555 1_555
O48_2 Fe5_2 1_555 1_555
O49_2 Fe4_2 1_555 1_555
O50_2 Fe5_2 1_555 1_555
O52_2 Fe4_2 1_555 1_555
O53_2 Fe6_2 1_555 1_555
O54_2 Fe6_2 1_555 1_555
O55_2 Fe6_2 1_555 1_555
O56_2 Fe10 1_555 1_555
O58_2 Fe1_2 1_555 1_555
P3_2 N6_2 1_555 1_555
O12_2 Fe5_2 1_555 1_555
O14_2 Fe8 1_555 1_555
C7_2 O42_2 1_555 1_555
C9_2 C48_2 1_555 1_555
O25_2 Fe6_2 1_555 1_555
O26_2 Fe10 1_555 1_555
C16_2 C17_2 1_555 1_555
C16_2 C21_2 1_555 1_555
C20_2 C45_2 1_555 1_555
C20_2 C62_2 1_555 1_555
C22_2 C68_2 1_555 1_555
O33_2 Fe6_2 1_555 1_555
O36_2 Fe10 1_555 1_555
C26_2 C37_2 1_555 1_555
C29_2 C50_2 1_555 1_555
C29_2 C51_2 1_555 1_555
O38_2 Fe10 1_555 1_555
C30_2 C38_2 1_555 1_555
O39_2 Fe5_2 1_555 1_555
O41_2 Fe8 1_555 1_555
C40_2 C59_2 1_555 1_555
C52_2 C76_2 1_555 1_555
C60_2 C80_2 1_555 1_555
C63_2 C74_2 1_555 1_555
C69_2 C75_2 1_555 1_555
P1_2 N2_2 1_555 1_555
P5_2 N2_2 1_555 1_555
O2_2 C82_2 1_555 1_555
O3_2 P1_2 1_555 1_555
O4_2 C56_2 1_555 1_555
O8_2 C85_2 1_555 1_555
O9_2 P1_2 1_555 1_555
O10_2 C15_2 1_555 1_555
N4_2 P5_2 1_555 1_555
C2_2 C15_2 1_555 1_555
C3_2 O3_2 1_555 1_555
C10_2 C35_2 1_555 1_555
N5_2 P1_2 1_555 1_555
O27_2 P5_2 1_555 1_555
C13_2 H5_2 1_555 1_555
O29_2 P5_2 1_555 1_555
C14_2 C67_2 1_555 1_555
C15_2 O31_2 1_555 1_555
C18_2 H8_2 1_555 1_555
C19_2 H9_2 1_555 1_555
O35_2 C82_2 1_555 1_555
C27_2 O9_2 1_555 1_555
C32_2 H20_2 1_555 1_555
O40_2 C85_2 1_555 1_555
C35_2 H21_2 1_555 1_555
C36_2 C2_2 1_555 1_555
H22_2 C36_2 1_555 1_555
C39_2 C19_2 1_555 1_555
C41_2 O37_2 1_555 1_555
C43_2 C2_2 1_555 1_555
H28_2 C43_2 1_555 1_555
C46_2 C35_2 1_555 1_555
H30_2 C46_2 1_555 1_555
C53_2 C41_2 1_555 1_555
H33_2 C53_2 1_555 1_555
C56_2 C39_2 1_555 1_555
C57_2 C27_2 1_555 1_555
H36_2 C57_2 1_555 1_555
H37_2 C58_2 1_555 1_555
C61_2 C19_2 1_555 1_555
H40_2 C61_2 1_555 1_555
C64_2 O27_2 1_555 1_555
C65_2 C10_2 1_555 1_555
H42_2 C65_2 1_555 1_555
C67_2 C13_2 1_555 1_555
H44_2 C67_2 1_555 1_555
C70_2 C34_2 1_555 1_555
H47_2 C70_2 1_555 1_555
C71_2 C65_2 1_555 1_555
H48_2 C71_2 1_555 1_555
C72_2 C39_2 1_555 1_555
H49_2 C72_2 1_555 1_555
C73_2 O29_2 1_555 1_555
C77_2 C14_2 1_555 1_555
H52_2 C77_2 1_555 1_555
C78_2 C3_2 1_555 1_555
H53_2 C78_2 1_555 1_555
H55_2 C81_2 1_555 1_555
C82_2 C14_2 1_555 1_555
O44_2 C56_2 1_555 1_555
C84_2 C64_2 1_555 1_555
H57_2 C84_2 1_555 1_555
C85_2 C10_2 1_555 1_555
Fe7_2 O44_2 1_555 1_555
Fe9_2 O4_2 1_555 1_555
Fe11_2 O40_2 1_555 1_555
Fe14 O2_2 1_555 1_555
Fe18 O35_2 1_555 1_555
O8_2 Fe9_2 1_555 1_555
C13_2 C27_2 1_555 1_555
C32_2 C36_2 1_555 1_555
C32_2 C41_2 1_555 1_555
C34_2 C61_2 1_555 1_555
C43_2 C53_2 1_555 1_555
C46_2 C73_2 1_555 1_555
C57_2 C77_2 1_555 1_555
C58_2 C78_2 1_555 1_555
C70_2 C72_2 1_555 1_555
C71_2 C73_2 1_555 1_555
C81_2 C84_2 1_555 1_555
O15_2 C47_2 1_555 1_555
O34_2 C47_2 1_555 1_555
Fe12 O15_2 1_555 1_555
Fe17 O34_2 1_555 1_555
P1_3 N2_3 1_555 1_555
P5_3 N2_3 1_555 1_555
P6_3 N4_3 1_555 1_555
O1_3 C24_3 1_555 1_555
O45 C82_3 1_555 1_555
O3_3 P1_3 1_555 1_555
O46 C56_3 1_555 1_555
O47 C85_3 1_555 1_555
O9_3 P1_3 1_555 1_555
N4_3 P5_3 1_555 1_555
C3_3 O3_3 1_555 1_555
O14_3 C24_3 1_555 1_555
O21_2 C49_3 1_555 1_555
C8_3 C24_3 1_555 1_555
O22_3 P6_3 1_555 1_555
O23_3 P6_3 1_555 1_555
C9_3 C42_3 1_555 1_555
C10_3 C35_3 1_555 1_555
N5_3 P1_3 1_555 1_555
O27_3 P5_3 1_555 1_555
C13_3 H5_3 1_555 1_555
O29_3 P5_3 1_555 1_555
C14_3 C67_3 1_555 1_555
C19_3 H9_3 1_555 1_555
C20_3 H10_3 1_555 1_555
C23_3 C3_3 1_555 1_555
H14_3 C23_3 1_555 1_555
O55 C82_3 1_555 1_555
C27_3 O9_3 1_555 1_555
C34_3 O22_3 1_555 1_555
O56 C85_3 1_555 1_555
C35_3 H21_3 1_555 1_555
C39_3 C19_3 1_555 1_555
C42_3 C23_3 1_555 1_555
H27_3 C42_3 1_555 1_555
C45_3 C8_3 1_555 1_555
H29_3 C45_3 1_555 1_555
C46_3 C35_3 1_555 1_555
H30_3 C46_3 1_555 1_555
C49_3 O43_2 1_555 1_555
C56_3 C39_3 1_555 1_555
C57_3 C27_3 1_555 1_555
H36_3 C57_3 1_555 1_555
C58_3 C9_3 1_555 1_555
O43_2 Fe11_2 1_555 1_555
C61_3 C19_3 1_555 1_555
H40_3 C61_3 1_555 1_555
C62_3 O23_3 1_555 1_555
C63_3 H41_3 1_555 1_555
C64_3 O27_3 1_555 1_555
C65_3 C10_3 1_555 1_555
H42_3 C65_3 1_555 1_555
C67_3 C13_3 1_555 1_555
H44_3 C67_3 1_555 1_555
C69_3 C62_3 1_555 1_555
H46_3 C69_3 1_555 1_555
C70_3 C34_3 1_555 1_555
H47_3 C70_3 1_555 1_555
C71_3 C65_3 1_555 1_555
H48_3 C71_3 1_555 1_555
C72_3 C39_3 1_555 1_555
H49_3 C72_3 1_555 1_555
C73_3 O29_3 1_555 1_555
C74_3 C49_3 1_555 1_555
C75_3 C8_3 1_555 1_555
H50_3 C75_3 1_555 1_555
C77_3 C14_3 1_555 1_555
H52_3 C77_3 1_555 1_555
C78_3 C3_3 1_555 1_555
H53_3 C78_3 1_555 1_555
C81_3 C74_3 1_555 1_555
H55_3 C81_3 1_555 1_555
C82_3 C14_3 1_555 1_555
C83_3 C63_3 1_555 1_555
H56_3 C83_3 1_555 1_555
O58 C56_3 1_555 1_555
C84_3 C64_3 1_555 1_555
H57_3 C84_3 1_555 1_555
C85_3 C10_3 1_555 1_555
Fe9_2 O21_2 1_555 1_555
P6_3 N5_3 1_555 1_555
C13_3 C27_3 1_555 1_555
C20_3 C45_3 1_555 1_555
C20_3 C62_3 1_555 1_555
C34_3 C61_3 1_555 1_555
C46_3 C73_3 1_555 1_555
C57_3 C77_3 1_555 1_555
C58_3 C78_3 1_555 1_555
C63_3 C74_3 1_555 1_555
C64_3 C83_3 1_555 1_555
C69_3 C75_3 1_555 1_555
C70_3 C72_3 1_555 1_555
C71_3 C73_3 1_555 1_555
C81_3 C84_3 1_555 1_555
O49_2 C47_3 1_555 1_555
O54_2 C47_3 1_555 1_555
C47_3 C31_2 1_555 1_555
C55_2 C31_2 1_555 1_555
H35_2 C55_2 1_555 1_555
P2_3 N1_3 1_555 1_555
P3_3 N3_3 1_555 1_555
P4_3 N1_3 1_555 1_555
C1_3 O11_3 1_555 1_555
O5_3 Fe12 1_555 1_555
O6_3 Fe7 1_555 1_555
N3_3 P4_3 1_555 1_555
O7_3 P2_3 1_555 1_555
O48 C15_3 1_555 1_555
O11_3 Fe12 1_555 1_555
O12_3 C6_3 1_555 1_555
O13_3 P2_3 1_555 1_555
C2_3 C15_3 1_555 1_555
O50 C79_3 1_555 1_555
O17_3 H1_3 1_555 1_555
H2_3 O17_3 1_555 1_555
C4_3 C18_3 1_555 1_555
O18_3 P3_3 1_555 1_555
O19_3 Fe7 1_555 1_555
O20_3 Fe7 1_555 1_555
C5_3 O18_3 1_555 1_555
C6_3 O30_3 1_555 1_555
C7_3 C25_3 1_555 1_555
C11_3 C1_3 1_555 1_555
C12_3 C44_3 1_555 1_555
O24_3 Fe7 1_555 1_555
O25_3 C1_3 1_555 1_555
O26_3 H3_3 1_555 1_555
H4_3 O26_3 1_555 1_555
O28_3 P4_3 1_555 1_555
O30_3 Fe12 1_555 1_555
N6_3 P2_3 1_555 1_555
C15_3 O52 1_555 1_555
C16_3 H6_3 1_555 1_555
C17_3 C11_3 1_555 1_555
H7_3 C17_3 1_555 1_555
C18_3 H8_3 1_555 1_555
C21_3 O13_3 1_555 1_555
O53 C79_3 1_555 1_555
C22_3 C21_3 1_555 1_555
H11_3 C22_3 1_555 1_555
C25_3 C18_3 1_555 1_555
H15_3 C25_3 1_555 1_555
O36_3 C44_3 1_555 1_555
C26_3 C4_3 1_555 1_555
H16_3 C26_3 1_555 1_555
O37_3 P3_3 1_555 1_555
C28_3 H17_3 1_555 1_555
C29_3 H18_3 1_555 1_555
O38_3 C48_3 1_555 1_555
C30_3 C28_3 1_555 1_555
H19_3 C30_3 1_555 1_555
C32_3 H20_3 1_555 1_555
O39_3 C66_3 1_555 1_555
C33_3 C6_3 1_555 1_555
C36_3 C2_3 1_555 1_555
H22_3 C36_3 1_555 1_555
C37_3 C7_3 1_555 1_555
H23_3 C37_3 1_555 1_555
C38_3 O7_3 1_555 1_555
O41_3 H24_3 1_555 1_555
H25_3 O41_3 1_555 1_555
C40_3 C5_3 1_555 1_555
H26_3 C40_3 1_555 1_555
O42_3 P4_3 1_555 1_555
C41_3 O37_3 1_555 1_555
C43_3 C2_3 1_555 1_555
H28_3 C43_3 1_555 1_555
C44_3 O19_3 1_555 1_555
C48_3 O20_3 1_555 1_555
C50_3 O28_3 1_555 1_555
C51_3 C12_3 1_555 1_555
H31_3 C51_3 1_555 1_555
C52_3 C33_3 1_555 1_555
H32_3 C52_3 1_555 1_555
C53_3 C41_3 1_555 1_555
H33_3 C53_3 1_555 1_555
C54_3 C38_3 1_555 1_555
H34_3 C54_3 1_555 1_555
C59_3 C33_3 1_555 1_555
H38_3 C59_3 1_555 1_555
C60_3 C50_3 1_555 1_555
H39_3 C60_3 1_555 1_555
C66_3 O24_3 1_555 1_555
H43_3 C66_3 1_555 1_555
C68_3 C11_3 1_555 1_555
H45_3 C68_3 1_555 1_555
C76_3 C5_3 1_555 1_555
H51_3 C76_3 1_555 1_555
C79_3 C4_3 1_555 1_555
C80_3 C12_3 1_555 1_555
H54_3 C80_3 1_555 1_555
Fe9 O6_3 1_555 1_555
Fe11 O6_3 1_555 1_555
Fe12 O17_3 1_555 1_555
Fe15 O5_3 1_555 1_555
Fe17 O5_3 1_555 1_555
O51_2 Fe9 1_555 1_555
O57_2 Fe11 1_555 1_555
P3_3 N6_3 1_555 1_555
O12_3 Fe15 1_555 1_555
C7_3 O42_3 1_555 1_555
O25_3 Fe17 1_555 1_555
O26_3 Fe11 1_555 1_555
C16_3 C17_3 1_555 1_555
C16_3 C21_3 1_555 1_555
C22_3 C68_3 1_555 1_555
O36_3 Fe11 1_555 1_555
C26_3 C37_3 1_555 1_555
C29_3 C50_3 1_555 1_555
C29_3 C51_3 1_555 1_555
O38_3 Fe11 1_555 1_555
C30_3 C38_3 1_555 1_555
C32_3 C36_3 1_555 1_555
C32_3 C41_3 1_555 1_555
O39_3 Fe15 1_555 1_555
O41_3 Fe9 1_555 1_555
C40_3 C59_3 1_555 1_555
C43_3 C53_3 1_555 1_555
C52_3 C76_3 1_555 1_555
C60_3 C80_3 1_555 1_555
P2_4 N1_4 1_555 1_555
P3_4 N3_4 1_555 1_555
P4_4 N1_4 1_555 1_555
C1_4 O11_4 1_555 1_555
O5_4 Fe13 1_555 1_555
O6_4 Fe7_2 1_555 1_555
N3_4 P4_4 1_555 1_555
O7_4 P2_4 1_555 1_555
O48_2 C15_4 1_555 1_555
O11_4 Fe13 1_555 1_555
O12_4 C6_4 1_555 1_555
O13_4 P2_4 1_555 1_555
C2_4 C15_4 1_555 1_555
O50_2 C79_4 1_555 1_555
O17_4 H1_4 1_555 1_555
H2_4 O17_4 1_555 1_555
C4_4 C18_4 1_555 1_555
O18_4 P3_4 1_555 1_555
O19_4 Fe7_2 1_555 1_555
O20_4 Fe7_2 1_555 1_555
C5_4 O18_4 1_555 1_555
C6_4 O30_4 1_555 1_555
C7_4 C25_4 1_555 1_555
C11_4 C1_4 1_555 1_555
C12_4 C44_4 1_555 1_555
O24_4 Fe7_2 1_555 1_555
O25_4 C1_4 1_555 1_555
O26_4 H3_4 1_555 1_555
H4_4 O26_4 1_555 1_555
O28_4 P4_4 1_555 1_555
O30_4 Fe13 1_555 1_555
N6_4 P2_4 1_555 1_555
C15_4 O52_2 1_555 1_555
C16_4 H6_4 1_555 1_555
C17_4 C11_4 1_555 1_555
H7_4 C17_4 1_555 1_555
C18_4 H8_4 1_555 1_555
C21_4 O13_4 1_555 1_555
O53_2 C79_4 1_555 1_555
C22_4 C21_4 1_555 1_555
H11_4 C22_4 1_555 1_555
C25_4 C18_4 1_555 1_555
H15_4 C25_4 1_555 1_555
O36_4 C44_4 1_555 1_555
C26_4 C4_4 1_555 1_555
H16_4 C26_4 1_555 1_555
O37_4 P3_4 1_555 1_555
C28_4 H17_4 1_555 1_555
C29_4 H18_4 1_555 1_555
O38_4 C48_4 1_555 1_555
C30_4 C28_4 1_555 1_555
H19_4 C30_4 1_555 1_555
C32_4 H20_4 1_555 1_555
O39_4 C66_4 1_555 1_555
C33_4 C6_4 1_555 1_555
C36_4 C2_4 1_555 1_555
H22_4 C36_4 1_555 1_555
C37_4 C7_4 1_555 1_555
H23_4 C37_4 1_555 1_555
C38_4 O7_4 1_555 1_555
O41_4 H24_4 1_555 1_555
H25_4 O41_4 1_555 1_555
C40_4 C5_4 1_555 1_555
H26_4 C40_4 1_555 1_555
O42_4 P4_4 1_555 1_555
C41_4 O37_4 1_555 1_555
C43_4 C2_4 1_555 1_555
H28_4 C43_4 1_555 1_555
C44_4 O19_4 1_555 1_555
C48_4 O20_4 1_555 1_555
C50_4 O28_4 1_555 1_555
C51_4 C12_4 1_555 1_555
H31_4 C51_4 1_555 1_555
C52_4 C33_4 1_555 1_555
H32_4 C52_4 1_555 1_555
C53_4 C41_4 1_555 1_555
H33_4 C53_4 1_555 1_555
C54_4 C38_4 1_555 1_555
H34_4 C54_4 1_555 1_555
C59_4 C33_4 1_555 1_555
H38_4 C59_4 1_555 1_555
C60_4 C50_4 1_555 1_555
H39_4 C60_4 1_555 1_555
C66_4 O24_4 1_555 1_555
H43_4 C66_4 1_555 1_555
C68_4 C11_4 1_555 1_555
H45_4 C68_4 1_555 1_555
C76_4 C5_4 1_555 1_555
H51_4 C76_4 1_555 1_555
C79_4 C4_4 1_555 1_555
C80_4 C12_4 1_555 1_555
H54_4 C80_4 1_555 1_555
Fe9_2 O6_4 1_555 1_555
Fe11_2 O6_4 1_555 1_555
Fe13 O17_4 1_555 1_555
Fe14 O5_4 1_555 1_555
Fe18 O5_4 1_555 1_555
P3_4 N6_4 1_555 1_555
O12_4 Fe14 1_555 1_555
C7_4 O42_4 1_555 1_555
O25_4 Fe18 1_555 1_555
O26_4 Fe11_2 1_555 1_555
C16_4 C17_4 1_555 1_555
C16_4 C21_4 1_555 1_555
C22_4 C68_4 1_555 1_555
O36_4 Fe11_2 1_555 1_555
C26_4 C37_4 1_555 1_555
C29_4 C50_4 1_555 1_555
C29_4 C51_4 1_555 1_555
O38_4 Fe11_2 1_555 1_555
C30_4 C38_4 1_555 1_555
C32_4 C36_4 1_555 1_555
C32_4 C41_4 1_555 1_555
O39_4 Fe14 1_555 1_555
O41_4 Fe9_2 1_555 1_555
C40_4 C59_4 1_555 1_555
C43_4 C53_4 1_555 1_555
C52_4 C76_4 1_555 1_555
C60_4 C80_4 1_555 1_555
O49 C47_4 1_555 1_555
O54 C47_4 1_555 1_555
C47_4 C31_3 1_555 1_555
C55_3 C31_3 1_555 1_555
H35_3 C55_3 1_555 1_555
P1_4 N2_4 1_555 1_555
P5_4 N2_4 1_555 1_555
P6_4 N4_4 1_555 1_555
O1_4 C24_4 1_555 1_555
O45_2 C82_4 1_555 1_555
O3_4 P1_4 1_555 1_555
O46_2 C56_4 1_555 1_555
O47_2 C85_4 1_555 1_555
O9_4 P1_4 1_555 1_555
N4_4 P5_4 1_555 1_555
C3_4 O3_4 1_555 1_555
O14_4 C24_4 1_555 1_555
O51_2 C49_4 1_555 1_555
C8_4 C24_4 1_555 1_555
O22_4 P6_4 1_555 1_555
O23_4 P6_4 1_555 1_555
C9_4 C42_4 1_555 1_555
C10_4 C35_4 1_555 1_555
N5_4 P1_4 1_555 1_555
O27_4 P5_4 1_555 1_555
C13_4 H5_4 1_555 1_555
O29_4 P5_4 1_555 1_555
C14_4 C67_4 1_555 1_555
C19_4 H9_4 1_555 1_555
C20_4 H10_4 1_555 1_555
C23_4 C3_4 1_555 1_555
H14_4 C23_4 1_555 1_555
O55_2 C82_4 1_555 1_555
C27_4 O9_4 1_555 1_555
C34_4 O22_4 1_555 1_555
O56_2 C85_4 1_555 1_555
C35_4 H21_4 1_555 1_555
C39_4 C19_4 1_555 1_555
C42_4 C23_4 1_555 1_555
H27_4 C42_4 1_555 1_555
C45_4 C8_4 1_555 1_555
H29_4 C45_4 1_555 1_555
C46_4 C35_4 1_555 1_555
H30_4 C46_4 1_555 1_555
C49_4 O57_2 1_555 1_555
C56_4 C39_4 1_555 1_555
C57_4 C27_4 1_555 1_555
H36_4 C57_4 1_555 1_555
C58_4 C9_4 1_555 1_555
C61_4 C19_4 1_555 1_555
H40_4 C61_4 1_555 1_555
C62_4 O23_4 1_555 1_555
C63_4 H41_4 1_555 1_555
C64_4 O27_4 1_555 1_555
C65_4 C10_4 1_555 1_555
H42_4 C65_4 1_555 1_555
C67_4 C13_4 1_555 1_555
H44_4 C67_4 1_555 1_555
C69_4 C62_4 1_555 1_555
H46_4 C69_4 1_555 1_555
C70_4 C34_4 1_555 1_555
H47_4 C70_4 1_555 1_555
C71_4 C65_4 1_555 1_555
H48_4 C71_4 1_555 1_555
C72_4 C39_4 1_555 1_555
H49_4 C72_4 1_555 1_555
C73_4 O29_4 1_555 1_555
C74_4 C49_4 1_555 1_555
C75_4 C8_4 1_555 1_555
H50_4 C75_4 1_555 1_555
C77_4 C14_4 1_555 1_555
H52_4 C77_4 1_555 1_555
C78_4 C3_4 1_555 1_555
H53_4 C78_4 1_555 1_555
C81_4 C74_4 1_555 1_555
H55_4 C81_4 1_555 1_555
C82_4 C14_4 1_555 1_555
C83_4 C63_4 1_555 1_555
H56_4 C83_4 1_555 1_555
O58_2 C56_4 1_555 1_555
C84_4 C64_4 1_555 1_555
H57_4 C84_4 1_555 1_555
C85_4 C10_4 1_555 1_555
P6_4 N5_4 1_555 1_555
C13_4 C27_4 1_555 1_555
C20_4 C45_4 1_555 1_555
C20_4 C62_4 1_555 1_555
C34_4 C61_4 1_555 1_555
C46_4 C73_4 1_555 1_555
C57_4 C77_4 1_555 1_555
C58_4 C78_4 1_555 1_555
C63_4 C74_4 1_555 1_555
C64_4 C83_4 1_555 1_555
C69_4 C75_4 1_555 1_555
C70_4 C72_4 1_555 1_555
C71_4 C73_4 1_555 1_555
C81_4 C84_4 1_555 1_555
O33_3 H12_3 1_555 1_555
H13_3 O33_3 1_555 1_555
O33_4 H12_4 1_555 1_555
H13_4 O33_4 1_555 1_555
C55_4 C31_4 1_555 1_555
H35_4 C55_4 1_555 1_555

#END
