
###############################################################################
#
# This file contains modified crystal structure data generated from the
# MOF subset of the Cambridge Structural Database (CSD) v543 
# hosted by the Cambridge Crystallographic Data Centre (CCDC).
#
# This work is licensed under the Creative Commons
# Attribution-NonCommercial-ShareAlike 4.0 International License.
# To view a copy of this license, visit
# http://creativecommons.org/licenses/by-nc-sa/4.0/
# or send a letter to
# Creative Commons, PO Box 1866, Mountain View, CA 94042, USA.
#
# CIF created using the CSD Python API on 29 September 2022
# The structure has been converted into the P1 space group
# The structure has a 3D framework
# The original CSD entry PUDSOX is in the monoclinic crystal system
# The framework has been calculated to contain at least 10.0% void space
# The void calculation uses a probe of radius 1.32A, grid spacing 0.4
#
###############################################################################

data_PUDSOX
_chemical_formula_moiety         '(C432 H368 Gd16 N32 O176 S24)n'
_symmetry_cell_setting           triclinic
_symmetry_space_group_name_H-M   'P 1'
_symmetry_Int_Tables_number      1
_space_group_name_Hall           'P 1'
loop_
_symmetry_equiv_pos_site_id
_symmetry_equiv_pos_as_xyz
1 x,y,z
_cell_length_a                   35.0016(12)
_cell_length_b                   14.8987(5)
_cell_length_c                   30.0846(10)
_cell_angle_alpha                90
_cell_angle_beta                 97.9730(10)
_cell_angle_gamma                90
_cell_volume                     15536.8
loop_
_atom_site_label
_atom_site_type_symbol
_atom_site_fract_x
_atom_site_fract_y
_atom_site_fract_z
S2 S 0.20286(4) 0.04039(8) 0.35191(6)
C21 C 0.12994(15) 0.0095(3) 0.3506(2)
C22 C 0.13475(14) 0.1089(3) 0.35321(19)
C23 C 0.10731(16) 0.1736(3) 0.3532(3)
H10 H 0.0815 0.1579 0.3526
C24 C 0.17295(14) 0.1344(3) 0.35461(17)
C25 C 0.11792(16) 0.2616(3) 0.3540(2)
H11 H 0.0990 0.3055 0.3539
C26 C 0.18444(14) 0.2233(3) 0.35644(16)
H12 H 0.2104 0.2389 0.3586
C27 C 0.15616(13) 0.2877(3) 0.35494(16)
C28 C 0.16627(14) 0.3861(3) 0.35355(15)
O9 O 0.21796(13) 0.0402(3) 0.30939(17)
O10 O 0.22960(12) 0.0302(2) 0.39191(17)
O11 O 0.13890(9) 0.44078(19) 0.34988(11)
O12 O 0.20077(9) 0.40750(19) 0.35572(12)
Gd4 Gd 0.208643(6) 0.570723(13) 0.356642(7)
Gd6 Gd 0.085835(6) 0.532020(13) 0.343122(7)
S1 S 0.09311(4) 0.46852(11) 0.09157(4)
S3 S 0.40340(4) 0.30325(11) 0.40200(4)
C1 C 0.14058(15) 0.5589(3) 0.26138(15)
C2 C 0.14470(13) 0.5601(3) 0.21218(14)
C3 C 0.11609(13) 0.5216(3) 0.18095(15)
H1 H 0.0937 0.4977 0.1897
C4 C 0.17717(14) 0.5971(4) 0.19780(16)
H2 H 0.1961 0.6223 0.2188
C5 C 0.12240(13) 0.5205(3) 0.13633(15)
C6 C 0.18209(15) 0.5975(4) 0.15294(16)
H3 H 0.2038 0.6242 0.1440
C7 C 0.15486(13) 0.5583(3) 0.12177(15)
C8 C 0.15636(13) 0.5438(3) 0.07371(14)
C9 C 0.12481(14) 0.4962(3) 0.05277(15)
C10 C 0.18517(14) 0.5688(4) 0.04907(16)
H4 H 0.2061 0.6026 0.0620
C11 C 0.12135(14) 0.4713(3) 0.00859(15)
C12 C 0.18200(14) 0.5425(3) 0.00499(16)
C15 C 0.13270(14) 0.7237(3) 0.34864(15)
C16 C 0.13212(14) 0.8247(3) 0.34871(16)
C17 C 0.09780(15) 0.8698(3) 0.3473(2)
H7 H 0.0750 0.8371 0.3453
C18 C 0.16609(14) 0.8724(3) 0.35072(16)
H8 H 0.1897 0.8432 0.3517
C19 C 0.09598(17) 0.9616(4) 0.3487(3)
H9 H 0.0725 0.9909 0.3485
C20 C 0.16394(14) 0.9638(3) 0.35129(17)
C29 C 0.27592(14) 0.4821(3) 0.33962(18)
C30 C 0.31000(14) 0.4253(3) 0.33268(17)
C31 C 0.33567(14) 0.3968(3) 0.36905(17)
H13 H 0.3322 0.4123 0.3982
C32 C 0.31566(14) 0.4006(4) 0.29001(18)
H14 H 0.2980 0.4194 0.2658
C33 C 0.36628(13) 0.3453(3) 0.36109(16)
C34 C 0.34706(15) 0.3484(4) 0.28207(17)
H15 H 0.3506 0.3326 0.2530
C35 C 0.37278(14) 0.3206(3) 0.31847(16)
C36 C 0.40838(13) 0.2671(3) 0.31840(15)
C37 C 0.42821(14) 0.2522(3) 0.36112(16)
C38 C 0.42340(13) 0.2315(3) 0.28155(16)
H16 H 0.4108 0.2401 0.2526
C39 C 0.46179(13) 0.2058(3) 0.36873(16)
H17 H 0.4744 0.1978 0.3978
C40 C 0.45722(13) 0.1833(3) 0.28891(15)
H18 H 0.4672 0.1587 0.2645
C41 C 0.47697(12) 0.1705(3) 0.33205(15)
C42 C 0.51385(13) 0.1192(3) 0.33827(15)
C43 C 0.0161(3) 0.3695(7) 0.4857(3)
H20 H 0.0309 0.3799 0.5146
H21 H 0.0032 0.3127 0.4858
C44 C 0.03915(17) 0.4245(4) 0.41930(18)
H22 H 0.0206 0.4694 0.4188
C45 C 0.0719(3) 0.3044(7) 0.4579(3)
H23 H 0.0873 0.3094 0.4340
H24 H 0.0612 0.2452 0.4580
H25 H 0.0878 0.3154 0.4861
C46 C 0.04623(19) 0.4173(4) 0.2532(3)
H26 H 0.0368 0.4737 0.2441
C47 C 0.0250(3) 0.3634(7) 0.1776(3)
H27 H 0.0159 0.4239 0.1728
H28 H 0.0036 0.3227 0.1723
H29 H 0.0431 0.3500 0.1573
C48 C 0.0620(3) 0.2644(7) 0.2379(3)
H30 H 0.0728 0.2678 0.2689
H31 H 0.0820 0.2509 0.2201
H32 H 0.0428 0.2180 0.2339
C49 C 0.2554(2) 0.7115(6) 0.2942(2)
H33 H 0.2562 0.6647 0.2739
C50 C 0.2785(5) 0.8605(9) 0.3122(4)
H34 H 0.2660 0.8508 0.3383
H35 H 0.2673 0.9119 0.2961
H36 H 0.3055 0.8708 0.3214
C51 C 0.2912(5) 0.7883(8) 0.2437(4)
H37 H 0.2855 0.7338 0.2271
H38 H 0.3186 0.7946 0.2511
H39 H 0.2811 0.8385 0.2258
C52 C 0.2669(4) 0.6868(8) 0.4281(5)
H40 H 0.2867 0.6459 0.4265
C53 C 0.2510(4) 0.8377(8) 0.4552(5)
H41 H 0.2649 0.8907 0.4660
H42 H 0.2356 0.8174 0.4772
H43 H 0.2346 0.8513 0.4278
C54 C 0.3140(4) 0.8043(8) 0.4420(5)
H44 H 0.3169 0.8623 0.4559
H45 H 0.3160 0.8100 0.4106
H46 H 0.3339 0.7650 0.4558
N1 N 0.04352(17) 0.3538(4) 0.2230(2)
N2 N 0.04163(16) 0.3686(4) 0.45159(17)
N3 N 0.27361(16) 0.7855(4) 0.2847(2)
N4 N 0.2778(4) 0.7689(8) 0.4472(4)
O1 O 0.10804(10) 0.5465(2) 0.27196(10)
O2 O 0.17132(10) 0.5701(3) 0.28736(11)
O3 O 0.05653(11) 0.5129(4) 0.08114(13)
O4 O 0.09226(14) 0.3736(3) 0.09840(13)
O7 O 0.10124(10) 0.6844(2) 0.33779(11)
O8 O 0.16438(10) 0.6868(2) 0.35993(12)
O13 O 0.27247(9) 0.5063(2) 0.37935(12)
O14 O 0.25202(10) 0.5035(2) 0.30664(12)
O15 O 0.42586(12) 0.3747(3) 0.42360(14)
O16 O 0.38858(12) 0.2369(3) 0.42988(13)
O17 O 0.53364(9) 0.1151(2) 0.37641(10)
O18 O 0.52478(9) 0.0823(2) 0.30458(11)
O19 O 0.05910(10) 0.4242(2) 0.38865(12)
O20 O 0.06086(10) 0.4081(2) 0.29438(13)
O21 O 0.23965(12) 0.6652(3) 0.41538(14)
O22 O 0.23905(12) 0.6968(3) 0.32321(15)
Gd7 Gd 0.585835(6) 0.032020(13) 0.343122(7)
O23 O 0.11827(9) 0.5610(2) 0.41564(10)
O24 O 0.18167(9) 0.5355(2) 0.42175(10)
O27 O 0.03364(9) 0.6151(2) 0.37641(10)
O28 O 0.02478(9) 0.5823(2) 0.30458(11)
H5 H 0.0996 0.4407 0.9951
H6 H 0.2014 0.5586 0.9883
C13 C 0.15100(13) 0.4930(3) 0.98452(14)
C14 C 0.15031(14) 0.4631(3) 0.93668(14)
O5 O 0.11827(9) 0.4390(2) 0.91564(10)
O6 O 0.18167(9) 0.4645(2) 0.92175(10)
Gd3 Gd 0.208643(6) 0.429277(13) 0.856642(7)
Gd5 Gd 0.085835(6) 0.467980(13) 0.843122(7)
C42_2 C 0.01385(13) 0.6192(3) 0.33827(15)
Gd4_2 Gd 0.708643(6) 0.070723(13) 0.356642(7)
S2_2 S 0.70286(4) 0.54039(8) 0.35191(6)
C1_2 C 0.64058(15) 0.0589(3) 0.26138(15)
C2_2 C 0.64470(13) 0.0601(3) 0.21218(14)
C3_2 C 0.61609(13) 0.0216(3) 0.18095(15)
C4_2 C 0.67717(14) 0.0971(4) 0.19780(16)
H2_2 H 0.6961 0.1223 0.2188
C5_2 C 0.62240(13) 0.0205(3) 0.13633(15)
C6_2 C 0.68209(15) 0.0975(4) 0.15294(16)
H3_2 H 0.7038 0.1242 0.1440
C7_2 C 0.65486(13) 0.0583(3) 0.12177(15)
C8_2 C 0.65636(13) 0.0438(3) 0.07371(14)
C10_2 C 0.68517(14) 0.0688(4) 0.04907(16)
H4_2 H 0.7061 0.1026 0.0620
C12_2 C 0.68200(14) 0.0425(3) 0.00499(16)
C15_2 C 0.63270(14) 0.2237(3) 0.34864(15)
C16_2 C 0.63212(14) 0.3247(3) 0.34871(16)
C17_2 C 0.59780(15) 0.3698(3) 0.3473(2)
H7_2 H 0.5750 0.3371 0.3453
C18_2 C 0.66609(14) 0.3724(3) 0.35072(16)
H8_2 H 0.6897 0.3432 0.3517
C19_2 C 0.59598(17) 0.4616(4) 0.3487(3)
H9_2 H 0.5725 0.4909 0.3485
C20_2 C 0.66394(14) 0.4638(3) 0.35129(17)
C21_2 C 0.62994(15) 0.5095(3) 0.3506(2)
C22_2 C 0.63475(14) 0.6089(3) 0.35321(19)
C23_2 C 0.60731(16) 0.6736(3) 0.3532(3)
H10_2 H 0.5815 0.6579 0.3526
C24_2 C 0.67295(14) 0.6344(3) 0.35461(17)
C25_2 C 0.61792(16) 0.7616(3) 0.3540(2)
H11_2 H 0.5990 0.8055 0.3539
C26_2 C 0.68444(14) 0.7233(3) 0.35644(16)
H12_2 H 0.7104 0.7389 0.3586
C27_2 C 0.65616(13) 0.7877(3) 0.35494(16)
C28_2 C 0.66627(14) 0.8861(3) 0.35355(15)
C49_2 C 0.7554(2) 0.2115(6) 0.2942(2)
H33_2 H 0.7562 0.1647 0.2739
C50_2 C 0.7785(5) 0.3605(9) 0.3122(4)
H34_2 H 0.7660 0.3508 0.3383
H35_2 H 0.7673 0.4119 0.2961
H36_2 H 0.8055 0.3708 0.3214
C51_2 C 0.7912(5) 0.2883(8) 0.2437(4)
H37_2 H 0.7855 0.2338 0.2271
H38_2 H 0.8186 0.2946 0.2511
H39_2 H 0.7811 0.3385 0.2258
C52_2 C 0.7669(4) 0.1868(8) 0.4281(5)
H40_2 H 0.7867 0.1459 0.4265
C53_2 C 0.7510(4) 0.3377(8) 0.4552(5)
H41_2 H 0.7649 0.3907 0.4660
H42_2 H 0.7356 0.3174 0.4772
H43_2 H 0.7346 0.3513 0.4278
C54_2 C 0.8140(4) 0.3043(8) 0.4420(5)
H44_2 H 0.8169 0.3623 0.4559
H45_2 H 0.8160 0.3100 0.4106
H46_2 H 0.8339 0.2650 0.4558
N3_2 N 0.77361(16) 0.2855(4) 0.2847(2)
N4_2 N 0.7778(4) 0.2689(8) 0.4472(4)
O1_2 O 0.60804(10) 0.0465(2) 0.27196(10)
O2_2 O 0.67132(10) 0.0701(3) 0.28736(11)
O3_2 O 0.55653(11) 0.0129(4) 0.08114(13)
O7_2 O 0.60124(10) 0.1844(2) 0.33779(11)
O8_2 O 0.66438(10) 0.1868(2) 0.35993(12)
O9_2 O 0.71796(13) 0.5402(3) 0.30939(17)
O10_2 O 0.72960(12) 0.5302(2) 0.39191(17)
O11_2 O 0.63890(9) 0.94078(19) 0.34988(11)
O12_2 O 0.70077(9) 0.90750(19) 0.35572(12)
O13_2 O 0.77247(9) 0.0063(2) 0.37935(12)
O14_2 O 0.75202(10) 0.0035(2) 0.30664(12)
O21_2 O 0.73965(12) 0.1652(3) 0.41538(14)
O22_2 O 0.73905(12) 0.1968(3) 0.32321(15)
O23_2 O 0.61827(9) 0.0610(2) 0.41564(10)
O24_2 O 0.68167(9) 0.0355(2) 0.42175(10)
S1_2 S 0.59311(4) 0.96852(11) 0.09157(4)
S3_2 S 0.90340(4) 0.80325(11) 0.40200(4)
H1_2 H 0.5937 0.9977 0.1897
C9_2 C 0.62481(14) 0.9962(3) 0.05277(15)
C11_2 C 0.62135(14) 0.9713(3) 0.00859(15)
C29_2 C 0.77592(14) 0.9821(3) 0.33962(18)
C30_2 C 0.81000(14) 0.9253(3) 0.33268(17)
C31_2 C 0.83567(14) 0.8968(3) 0.36905(17)
H13_2 H 0.8322 0.9123 0.3982
C32_2 C 0.81566(14) 0.9006(4) 0.29001(18)
H14_2 H 0.7980 0.9194 0.2658
C33_2 C 0.86628(13) 0.8453(3) 0.36109(16)
C34_2 C 0.84706(15) 0.8484(4) 0.28207(17)
H15_2 H 0.8506 0.8326 0.2530
C35_2 C 0.87278(14) 0.8206(3) 0.31847(16)
C36_2 C 0.90838(13) 0.7671(3) 0.31840(15)
C37_2 C 0.92821(14) 0.7522(3) 0.36112(16)
C38_2 C 0.92340(13) 0.7315(3) 0.28155(16)
H16_2 H 0.9108 0.7401 0.2526
C39_2 C 0.96179(13) 0.7058(3) 0.36873(16)
H17_2 H 0.9744 0.6978 0.3978
C40_2 C 0.95722(13) 0.6833(3) 0.28891(15)
H18_2 H 0.9672 0.6587 0.2645
C41_2 C 0.97697(12) 0.6705(3) 0.33205(15)
C43_2 C 0.5161(3) 0.8695(7) 0.4857(3)
H19 H 0.4974 0.9164 0.4792
H20_2 H 0.5309 0.8799 0.5146
H21_2 H 0.5032 0.8127 0.4858
C44_2 C 0.53915(17) 0.9245(4) 0.41930(18)
H22_2 H 0.5206 0.9694 0.4188
C45_2 C 0.5719(3) 0.8044(7) 0.4579(3)
H23_2 H 0.5873 0.8094 0.4340
H24_2 H 0.5612 0.7452 0.4580
H25_2 H 0.5878 0.8154 0.4861
C46_2 C 0.54623(19) 0.9173(4) 0.2532(3)
H26_2 H 0.5368 0.9737 0.2441
C47_2 C 0.5250(3) 0.8634(7) 0.1776(3)
H27_2 H 0.5159 0.9239 0.1728
H28_2 H 0.5036 0.8227 0.1723
H29_2 H 0.5431 0.8500 0.1573
C48_2 C 0.5620(3) 0.7644(7) 0.2379(3)
H30_2 H 0.5728 0.7678 0.2689
H31_2 H 0.5820 0.7509 0.2201
H32_2 H 0.5428 0.7180 0.2339
N1_2 N 0.54352(17) 0.8538(4) 0.2230(2)
N2_2 N 0.54163(16) 0.8686(4) 0.45159(17)
O4_2 O 0.59226(14) 0.8736(3) 0.09840(13)
O15_2 O 0.92586(12) 0.8747(3) 0.42360(14)
O16_2 O 0.88858(12) 0.7369(3) 0.42988(13)
O19_2 O 0.55910(10) 0.9242(2) 0.38865(12)
O20_2 O 0.56086(10) 0.9081(2) 0.29438(13)
H5_2 H 0.5996 0.9407 0.9951
C13_2 C 0.65100(13) 0.9930(3) 0.98452(14)
C14_2 C 0.65031(14) 0.9631(3) 0.93668(14)
O5_2 O 0.61827(9) 0.9390(2) 0.91564(10)
O6_2 O 0.68167(9) 0.9645(2) 0.92175(10)
Gd3_2 Gd 0.708643(6) 0.929277(13) 0.856642(7)
Gd5_2 Gd 0.585835(6) 0.967980(13) 0.843122(7)
S1_3 S 0.09311(4) 0.53148(11) 0.59157(4)
S3_3 S 0.40340(4) 0.69675(11) 0.90200(4)
C1_3 C 0.14058(15) 0.4411(3) 0.76138(15)
C2_3 C 0.14470(13) 0.4399(3) 0.71218(14)
C3_3 C 0.11609(13) 0.4784(3) 0.68095(15)
H1_3 H 0.0937 0.5023 0.6897
C4_3 C 0.17717(14) 0.4029(4) 0.69780(16)
H2_3 H 0.1961 0.3777 0.7188
C5_3 C 0.12240(13) 0.4795(3) 0.63633(15)
C6_3 C 0.18209(15) 0.4025(4) 0.65294(16)
H3_3 H 0.2038 0.3758 0.6440
C7_3 C 0.15486(13) 0.4417(3) 0.62177(15)
C8_3 C 0.15636(13) 0.4562(3) 0.57371(14)
C9_3 C 0.12481(14) 0.5038(3) 0.55277(15)
C10_3 C 0.18517(14) 0.4312(4) 0.54907(16)
H4_3 H 0.2061 0.3974 0.5620
C11_3 C 0.12135(14) 0.5287(3) 0.50859(15)
H5_3 H 0.0996 0.5593 0.4951
C12_3 C 0.18200(14) 0.4575(3) 0.50499(16)
H6_2 H 0.2014 0.4414 0.4883
C13_3 C 0.15100(13) 0.5070(3) 0.48452(14)
C14_3 C 0.15031(14) 0.5369(3) 0.43668(14)
C15_3 C 0.13270(14) 0.2763(3) 0.84864(15)
C16_3 C 0.13212(14) 0.1753(3) 0.84871(16)
C17_3 C 0.09780(15) 0.1302(3) 0.8473(2)
H7_3 H 0.0750 0.1629 0.8453
C18_3 C 0.16609(14) 0.1276(3) 0.85072(16)
H8_3 H 0.1897 0.1568 0.8517
C19_3 C 0.09598(17) 0.0384(4) 0.8487(3)
H9_3 H 0.0725 0.0091 0.8485
C20_3 C 0.16394(14) 0.0362(3) 0.85129(17)
C29_3 C 0.27592(14) 0.5179(3) 0.83962(18)
C30_3 C 0.31000(14) 0.5747(3) 0.83268(17)
C31_3 C 0.33567(14) 0.6032(3) 0.86905(17)
H13_3 H 0.3322 0.5877 0.8982
C32_3 C 0.31566(14) 0.5994(4) 0.79001(18)
H14_3 H 0.2980 0.5806 0.7658
C33_3 C 0.36628(13) 0.6547(3) 0.86109(16)
C34_3 C 0.34706(15) 0.6516(4) 0.78207(17)
H15_3 H 0.3506 0.6674 0.7530
C35_3 C 0.37278(14) 0.6794(3) 0.81847(16)
C36_3 C 0.40838(13) 0.7329(3) 0.81840(15)
C37_3 C 0.42821(14) 0.7478(3) 0.86112(16)
C38_3 C 0.42340(13) 0.7685(3) 0.78155(16)
H16_3 H 0.4108 0.7599 0.7526
C39_3 C 0.46179(13) 0.7942(3) 0.86873(16)
H17_3 H 0.4744 0.8022 0.8978
C40_3 C 0.45722(13) 0.8167(3) 0.78891(15)
H18_3 H 0.4672 0.8413 0.7645
C41_3 C 0.47697(12) 0.8295(3) 0.83205(15)
C42_3 C 0.51385(13) 0.8808(3) 0.83827(15)
C43_3 C 0.0161(3) 0.6305(7) 0.9857(3)
H21_3 H 0.0032 0.6873 0.9858
C44_3 C 0.03915(17) 0.5755(4) 0.91930(18)
H22_3 H 0.0206 0.5306 0.9188
C45_3 C 0.0719(3) 0.6956(7) 0.9579(3)
H23_3 H 0.0873 0.6906 0.9340
H24_3 H 0.0612 0.7548 0.9580
H25_3 H 0.0878 0.6846 0.9861
C46_3 C 0.04623(19) 0.5827(4) 0.7532(3)
H26_3 H 0.0368 0.5263 0.7441
C47_3 C 0.0250(3) 0.6366(7) 0.6776(3)
H27_3 H 0.0159 0.5761 0.6728
H28_3 H 0.0036 0.6773 0.6723
H29_3 H 0.0431 0.6500 0.6573
C48_3 C 0.0620(3) 0.7356(7) 0.7379(3)
H30_3 H 0.0728 0.7322 0.7689
H31_3 H 0.0820 0.7491 0.7201
H32_3 H 0.0428 0.7820 0.7339
C49_3 C 0.2554(2) 0.2885(6) 0.7942(2)
H33_3 H 0.2562 0.3353 0.7739
C50_3 C 0.2785(5) 0.1395(9) 0.8122(4)
H34_3 H 0.2660 0.1492 0.8383
H35_3 H 0.2673 0.0881 0.7961
H36_3 H 0.3055 0.1292 0.8214
C51_3 C 0.2912(5) 0.2117(8) 0.7437(4)
H37_3 H 0.2855 0.2662 0.7271
H38_3 H 0.3186 0.2054 0.7511
H39_3 H 0.2811 0.1615 0.7258
C52_3 C 0.2669(4) 0.3132(8) 0.9281(5)
H40_3 H 0.2867 0.3541 0.9265
C53_3 C 0.2510(4) 0.1623(8) 0.9552(5)
H41_3 H 0.2649 0.1093 0.9660
H42_3 H 0.2356 0.1826 0.9772
H43_3 H 0.2346 0.1487 0.9278
C54_3 C 0.3140(4) 0.1957(8) 0.9420(5)
H44_3 H 0.3169 0.1377 0.9559
H45_3 H 0.3160 0.1900 0.9106
H46_3 H 0.3339 0.2350 0.9558
N1_3 N 0.04352(17) 0.6462(4) 0.7230(2)
N2_3 N 0.04163(16) 0.6314(4) 0.95159(17)
N3_3 N 0.27361(16) 0.2145(4) 0.7847(2)
N4_3 N 0.2778(4) 0.2311(8) 0.9472(4)
O1_3 O 0.10804(10) 0.4535(2) 0.77196(10)
O2_3 O 0.17132(10) 0.4299(3) 0.78736(11)
O3_3 O 0.05653(11) 0.4871(4) 0.58114(13)
O4_3 O 0.09226(14) 0.6264(3) 0.59840(13)
O7_3 O 0.10124(10) 0.3156(2) 0.83779(11)
O8_3 O 0.16438(10) 0.3132(2) 0.85993(12)
O13_3 O 0.27247(9) 0.4937(2) 0.87935(12)
O14_3 O 0.25202(10) 0.4965(2) 0.80664(12)
O15_3 O 0.42586(12) 0.6253(3) 0.92360(14)
O16_3 O 0.38858(12) 0.7631(3) 0.92988(13)
O17_2 O 0.53364(9) 0.8849(2) 0.87641(10)
O18_2 O 0.52478(9) 0.9177(2) 0.80458(11)
O19_3 O 0.05910(10) 0.5758(2) 0.88865(12)
O20_3 O 0.06086(10) 0.5919(2) 0.79438(13)
O21_3 O 0.23965(12) 0.3348(3) 0.91538(14)
O22_3 O 0.23905(12) 0.3032(3) 0.82321(15)
O25 O 0.13890(9) 0.55922(19) 0.84988(11)
O26 O 0.20077(9) 0.59250(19) 0.85572(12)
O27_2 O 0.03364(9) 0.3849(2) 0.87641(10)
O28_2 O 0.02478(9) 0.4177(2) 0.80458(11)
S2_3 S 0.20286(4) 0.95961(8) 0.85191(6)
C21_3 C 0.12994(15) 0.9905(3) 0.8506(2)
C22_3 C 0.13475(14) 0.8911(3) 0.85321(19)
C23_3 C 0.10731(16) 0.8264(3) 0.8532(3)
H10_3 H 0.0815 0.8421 0.8526
C24_3 C 0.17295(14) 0.8656(3) 0.85461(17)
C25_3 C 0.11792(16) 0.7384(3) 0.8540(2)
H11_3 H 0.0990 0.6945 0.8539
C26_3 C 0.18444(14) 0.7767(3) 0.85644(16)
H12_3 H 0.2104 0.7611 0.8586
C27_3 C 0.15616(13) 0.7123(3) 0.85494(16)
C28_3 C 0.16627(14) 0.6139(3) 0.85355(15)
O9_3 O 0.21796(13) 0.9598(3) 0.80939(17)
O10_3 O 0.22960(12) 0.9698(2) 0.89191(17)
C42_4 C 0.01385(13) 0.3808(3) 0.83827(15)
S1_4 S 0.59311(4) 0.03148(11) 0.59157(4)
S3_4 S 0.90340(4) 0.19675(11) 0.90200(4)
H1_4 H 0.5937 0.0023 0.6897
C9_4 C 0.62481(14) 0.0038(3) 0.55277(15)
C11_4 C 0.62135(14) 0.0287(3) 0.50859(15)
H5_4 H 0.5996 0.0593 0.4951
C13_4 C 0.65100(13) 0.0070(3) 0.48452(14)
C14_4 C 0.65031(14) 0.0369(3) 0.43668(14)
C29_4 C 0.77592(14) 0.0179(3) 0.83962(18)
C30_4 C 0.81000(14) 0.0747(3) 0.83268(17)
C31_4 C 0.83567(14) 0.1032(3) 0.86905(17)
H13_4 H 0.8322 0.0877 0.8982
C32_4 C 0.81566(14) 0.0994(4) 0.79001(18)
H14_4 H 0.7980 0.0806 0.7658
C33_4 C 0.86628(13) 0.1547(3) 0.86109(16)
C34_4 C 0.84706(15) 0.1516(4) 0.78207(17)
H15_4 H 0.8506 0.1674 0.7530
C35_4 C 0.87278(14) 0.1794(3) 0.81847(16)
C36_4 C 0.90838(13) 0.2329(3) 0.81840(15)
C37_4 C 0.92821(14) 0.2478(3) 0.86112(16)
C38_4 C 0.92340(13) 0.2685(3) 0.78155(16)
H16_4 H 0.9108 0.2599 0.7526
C39_4 C 0.96179(13) 0.2942(3) 0.86873(16)
H17_4 H 0.9744 0.3022 0.8978
C40_4 C 0.95722(13) 0.3167(3) 0.78891(15)
H18_4 H 0.9672 0.3413 0.7645
C41_4 C 0.97697(12) 0.3295(3) 0.83205(15)
C43_4 C 0.5161(3) 0.1305(7) 0.9857(3)
H19_2 H 0.4974 0.0836 0.9792
H21_4 H 0.5032 0.1873 0.9858
C44_4 C 0.53915(17) 0.0755(4) 0.91930(18)
H22_4 H 0.5206 0.0306 0.9188
C45_4 C 0.5719(3) 0.1956(7) 0.9579(3)
H23_4 H 0.5873 0.1906 0.9340
H24_4 H 0.5612 0.2548 0.9580
H25_4 H 0.5878 0.1846 0.9861
C46_4 C 0.54623(19) 0.0827(4) 0.7532(3)
H26_4 H 0.5368 0.0263 0.7441
C47_4 C 0.5250(3) 0.1366(7) 0.6776(3)
H27_4 H 0.5159 0.0761 0.6728
H28_4 H 0.5036 0.1773 0.6723
H29_4 H 0.5431 0.1500 0.6573
C48_4 C 0.5620(3) 0.2356(7) 0.7379(3)
H30_4 H 0.5728 0.2322 0.7689
H31_4 H 0.5820 0.2491 0.7201
H32_4 H 0.5428 0.2820 0.7339
N1_4 N 0.54352(17) 0.1462(4) 0.7230(2)
N2_4 N 0.54163(16) 0.1314(4) 0.95159(17)
O4_4 O 0.59226(14) 0.1264(3) 0.59840(13)
O15_4 O 0.92586(12) 0.1253(3) 0.92360(14)
O16_4 O 0.88858(12) 0.2631(3) 0.92988(13)
O19_4 O 0.55910(10) 0.0758(2) 0.88865(12)
O20_4 O 0.56086(10) 0.0919(2) 0.79438(13)
O25_2 O 0.63890(9) 0.05922(19) 0.84988(11)
O26_2 O 0.70077(9) 0.09250(19) 0.85572(12)
S2_4 S 0.70286(4) 0.45961(8) 0.85191(6)
C1_4 C 0.64058(15) 0.9411(3) 0.76138(15)
C2_4 C 0.64470(13) 0.9399(3) 0.71218(14)
C3_4 C 0.61609(13) 0.9784(3) 0.68095(15)
C4_4 C 0.67717(14) 0.9029(4) 0.69780(16)
H2_4 H 0.6961 0.8777 0.7188
C5_4 C 0.62240(13) 0.9795(3) 0.63633(15)
C6_4 C 0.68209(15) 0.9025(4) 0.65294(16)
H3_4 H 0.7038 0.8758 0.6440
C7_4 C 0.65486(13) 0.9417(3) 0.62177(15)
C8_4 C 0.65636(13) 0.9562(3) 0.57371(14)
C10_4 C 0.68517(14) 0.9312(4) 0.54907(16)
H4_4 H 0.7061 0.8974 0.5620
C12_4 C 0.68200(14) 0.9575(3) 0.50499(16)
H6_3 H 0.7014 0.9414 0.4883
C15_4 C 0.63270(14) 0.7763(3) 0.84864(15)
C16_4 C 0.63212(14) 0.6753(3) 0.84871(16)
C17_4 C 0.59780(15) 0.6302(3) 0.8473(2)
H7_4 H 0.5750 0.6629 0.8453
C18_4 C 0.66609(14) 0.6276(3) 0.85072(16)
H8_4 H 0.6897 0.6568 0.8517
C19_4 C 0.59598(17) 0.5384(4) 0.8487(3)
H9_4 H 0.5725 0.5091 0.8485
C20_4 C 0.66394(14) 0.5362(3) 0.85129(17)
C21_4 C 0.62994(15) 0.4905(3) 0.8506(2)
C22_4 C 0.63475(14) 0.3911(3) 0.85321(19)
C23_4 C 0.60731(16) 0.3264(3) 0.8532(3)
H10_4 H 0.5815 0.3421 0.8526
C24_4 C 0.67295(14) 0.3656(3) 0.85461(17)
C25_4 C 0.61792(16) 0.2384(3) 0.8540(2)
H11_4 H 0.5990 0.1945 0.8539
C26_4 C 0.68444(14) 0.2767(3) 0.85644(16)
H12_4 H 0.7104 0.2611 0.8586
C27_4 C 0.65616(13) 0.2123(3) 0.85494(16)
C28_4 C 0.66627(14) 0.1139(3) 0.85355(15)
C49_4 C 0.7554(2) 0.7885(6) 0.7942(2)
H33_4 H 0.7562 0.8353 0.7739
C50_4 C 0.7785(5) 0.6395(9) 0.8122(4)
H34_4 H 0.7660 0.6492 0.8383
H35_4 H 0.7673 0.5881 0.7961
H36_4 H 0.8055 0.6292 0.8214
C51_4 C 0.7912(5) 0.7117(8) 0.7437(4)
H37_4 H 0.7855 0.7662 0.7271
H38_4 H 0.8186 0.7054 0.7511
H39_4 H 0.7811 0.6615 0.7258
C52_4 C 0.7669(4) 0.8132(8) 0.9281(5)
H40_4 H 0.7867 0.8541 0.9265
C53_4 C 0.7510(4) 0.6623(8) 0.9552(5)
H41_4 H 0.7649 0.6093 0.9660
H42_4 H 0.7356 0.6826 0.9772
H43_4 H 0.7346 0.6487 0.9278
C54_4 C 0.8140(4) 0.6957(8) 0.9420(5)
H44_4 H 0.8169 0.6377 0.9559
H45_4 H 0.8160 0.6900 0.9106
H46_4 H 0.8339 0.7350 0.9558
N3_4 N 0.77361(16) 0.7145(4) 0.7847(2)
N4_4 N 0.7778(4) 0.7311(8) 0.9472(4)
O1_4 O 0.60804(10) 0.9535(2) 0.77196(10)
O2_4 O 0.67132(10) 0.9299(3) 0.78736(11)
O3_4 O 0.55653(11) 0.9871(4) 0.58114(13)
O7_4 O 0.60124(10) 0.8156(2) 0.83779(11)
O8_4 O 0.66438(10) 0.8132(2) 0.85993(12)
O9_4 O 0.71796(13) 0.4598(3) 0.80939(17)
O10_4 O 0.72960(12) 0.4698(2) 0.89191(17)
O13_4 O 0.77247(9) 0.9937(2) 0.87935(12)
O14_4 O 0.75202(10) 0.9965(2) 0.80664(12)
O21_4 O 0.73965(12) 0.8348(3) 0.91538(14)
O22_4 O 0.73905(12) 0.8032(3) 0.82321(15)
H19_3 H 0.9974 0.4164 0.4792
H19_4 H 0.0026 0.4164 0.0208
S2_5 S 0.79714(4) 0.04039(8) 0.14809(6)
C21_5 C 0.87006(15) 0.0095(3) 0.1494(2)
C22_5 C 0.86525(14) 0.1089(3) 0.14679(19)
C23_5 C 0.89269(16) 0.1736(3) 0.1468(3)
H10_5 H 0.9185 0.1579 0.1474
C24_5 C 0.82705(14) 0.1344(3) 0.14539(17)
C25_5 C 0.88208(16) 0.2616(3) 0.1460(2)
H11_5 H 0.9010 0.3055 0.1461
C26_5 C 0.81556(14) 0.2233(3) 0.14356(16)
H12_5 H 0.7896 0.2389 0.1414
C27_5 C 0.84384(13) 0.2877(3) 0.14506(16)
C28_5 C 0.83373(14) 0.3861(3) 0.14645(15)
O9_5 O 0.78204(13) 0.0402(3) 0.19061(17)
O10_5 O 0.77040(12) 0.0302(2) 0.10809(17)
O11_3 O 0.86110(9) 0.44078(19) 0.15012(11)
O12_3 O 0.79923(9) 0.40750(19) 0.14428(12)
Gd4_3 Gd 0.791357(6) 0.570723(13) 0.143358(7)
Gd6_2 Gd 0.914165(6) 0.532020(13) 0.156878(7)
S1_5 S 0.90689(4) 0.46852(11) 0.40843(4)
S3_5 S 0.59660(4) 0.30325(11) 0.09800(4)
C1_5 C 0.85942(15) 0.5589(3) 0.23862(15)
C2_5 C 0.85530(13) 0.5601(3) 0.28782(14)
C3_5 C 0.88391(13) 0.5216(3) 0.31905(15)
H1_5 H 0.9063 0.4977 0.3103
C4_5 C 0.82283(14) 0.5971(4) 0.30220(16)
H2_5 H 0.8039 0.6223 0.2812
C5_5 C 0.87760(13) 0.5205(3) 0.36367(15)
C6_5 C 0.81791(15) 0.5975(4) 0.34706(16)
H3_5 H 0.7962 0.6242 0.3560
C7_5 C 0.84514(13) 0.5583(3) 0.37823(15)
C8_5 C 0.84364(13) 0.5438(3) 0.42629(14)
C9_5 C 0.87519(14) 0.4962(3) 0.44723(15)
C10_5 C 0.81483(14) 0.5688(4) 0.45093(16)
H4_5 H 0.7939 0.6026 0.4380
C11_5 C 0.87865(14) 0.4713(3) 0.49141(15)
H5_5 H 0.9004 0.4407 0.5049
C12_5 C 0.81800(14) 0.5425(3) 0.49501(16)
H6_4 H 0.7986 0.5586 0.5117
C13_5 C 0.84900(13) 0.4930(3) 0.51548(14)
C14_5 C 0.84969(14) 0.4631(3) 0.56332(14)
C15_5 C 0.86730(14) 0.7237(3) 0.15136(15)
C16_5 C 0.86788(14) 0.8247(3) 0.15129(16)
C17_5 C 0.90220(15) 0.8698(3) 0.1527(2)
H7_5 H 0.9250 0.8371 0.1547
C18_5 C 0.83391(14) 0.8724(3) 0.14928(16)
H8_5 H 0.8103 0.8432 0.1483
C19_5 C 0.90402(17) 0.9616(4) 0.1513(3)
H9_5 H 0.9275 0.9909 0.1515
C20_5 C 0.83606(14) 0.9638(3) 0.14871(17)
C29_5 C 0.72408(14) 0.4821(3) 0.16038(18)
C30_5 C 0.69000(14) 0.4253(3) 0.16732(17)
C31_5 C 0.66433(14) 0.3968(3) 0.13095(17)
H13_5 H 0.6678 0.4123 0.1018
C32_5 C 0.68434(14) 0.4006(4) 0.20999(18)
H14_5 H 0.7020 0.4194 0.2342
C33_5 C 0.63372(13) 0.3453(3) 0.13891(16)
C34_5 C 0.65294(15) 0.3484(4) 0.21793(17)
H15_5 H 0.6494 0.3326 0.2470
C35_5 C 0.62722(14) 0.3206(3) 0.18153(16)
C36_5 C 0.59162(13) 0.2671(3) 0.18160(15)
C37_5 C 0.57179(14) 0.2522(3) 0.13888(16)
C38_5 C 0.57660(13) 0.2315(3) 0.21845(16)
H16_5 H 0.5892 0.2401 0.2474
C39_5 C 0.53821(13) 0.2058(3) 0.13127(16)
H17_5 H 0.5256 0.1978 0.1022
C40_5 C 0.54278(13) 0.1833(3) 0.21109(15)
H18_5 H 0.5328 0.1587 0.2355
C41_5 C 0.52303(12) 0.1705(3) 0.16795(15)
C42_5 C 0.48615(13) 0.1192(3) 0.16173(15)
C43_5 C 0.9839(3) 0.3695(7) 0.0143(3)
H21_5 H 0.9968 0.3127 0.0142
C44_5 C 0.96085(17) 0.4245(4) 0.08070(18)
H22_5 H 0.9794 0.4694 0.0812
C45_5 C 0.9281(3) 0.3044(7) 0.0421(3)
H23_5 H 0.9127 0.3094 0.0660
H24_5 H 0.9388 0.2452 0.0420
H25_5 H 0.9122 0.3154 0.0139
C46_5 C 0.95377(19) 0.4173(4) 0.2468(3)
H26_5 H 0.9632 0.4737 0.2559
C47_5 C 0.9750(3) 0.3634(7) 0.3224(3)
H27_5 H 0.9841 0.4239 0.3272
H28_5 H 0.9964 0.3227 0.3277
H29_5 H 0.9569 0.3500 0.3427
C48_5 C 0.9380(3) 0.2644(7) 0.2621(3)
H30_5 H 0.9272 0.2678 0.2311
H31_5 H 0.9180 0.2509 0.2799
H32_5 H 0.9572 0.2180 0.2661
C49_5 C 0.7446(2) 0.7115(6) 0.2058(2)
H33_5 H 0.7438 0.6647 0.2261
C50_5 C 0.7215(5) 0.8605(9) 0.1878(4)
H34_5 H 0.7340 0.8508 0.1617
H35_5 H 0.7327 0.9119 0.2039
H36_5 H 0.6945 0.8708 0.1786
C51_5 C 0.7088(5) 0.7883(8) 0.2563(4)
H37_5 H 0.7145 0.7338 0.2729
H38_5 H 0.6814 0.7946 0.2489
H39_5 H 0.7189 0.8385 0.2742
C52_5 C 0.7331(4) 0.6868(8) 0.0719(5)
H40_5 H 0.7133 0.6459 0.0735
C53_5 C 0.7490(4) 0.8377(8) 0.0448(5)
H41_5 H 0.7351 0.8907 0.0340
H42_5 H 0.7644 0.8174 0.0228
H43_5 H 0.7654 0.8513 0.0722
C54_5 C 0.6860(4) 0.8043(8) 0.0580(5)
H44_5 H 0.6831 0.8623 0.0441
H45_5 H 0.6840 0.8100 0.0894
H46_5 H 0.6661 0.7650 0.0442
N1_5 N 0.95648(17) 0.3538(4) 0.2770(2)
N2_5 N 0.95837(16) 0.3686(4) 0.04841(17)
N3_5 N 0.72639(16) 0.7855(4) 0.2153(2)
N4_5 N 0.7222(4) 0.7689(8) 0.0528(4)
O1_5 O 0.89196(10) 0.5465(2) 0.22804(10)
O2_5 O 0.82868(10) 0.5701(3) 0.21264(11)
O3_5 O 0.94347(11) 0.5129(4) 0.41886(13)
O4_5 O 0.90774(14) 0.3736(3) 0.40160(13)
O5_3 O 0.88173(9) 0.4390(2) 0.58436(10)
O6_3 O 0.81833(9) 0.4645(2) 0.57825(10)
O7_5 O 0.89876(10) 0.6844(2) 0.16221(11)
O8_5 O 0.83562(10) 0.6868(2) 0.14007(12)
O13_5 O 0.72753(9) 0.5063(2) 0.12065(12)
O14_5 O 0.74798(10) 0.5035(2) 0.19336(12)
O15_5 O 0.57414(12) 0.3747(3) 0.07640(14)
O16_5 O 0.61142(12) 0.2369(3) 0.07012(13)
O17_3 O 0.46636(9) 0.1151(2) 0.12359(10)
O18_3 O 0.47522(9) 0.0823(2) 0.19542(11)
O19_5 O 0.94090(10) 0.4242(2) 0.11135(12)
O20_5 O 0.93914(10) 0.4081(2) 0.20562(13)
O21_5 O 0.76035(12) 0.6652(3) 0.08462(14)
O22_5 O 0.76095(12) 0.6968(3) 0.17679(15)
Gd3_3 Gd 0.791357(6) 0.429277(13) 0.643358(7)
Gd5_3 Gd 0.914165(6) 0.467980(13) 0.656878(7)
Gd7_2 Gd 0.414165(6) 0.032020(13) 0.156878(7)
O23_3 O 0.88173(9) 0.5610(2) 0.08436(10)
O24_3 O 0.81833(9) 0.5355(2) 0.07825(10)
O27_3 O 0.96636(9) 0.6151(2) 0.12359(10)
O28_3 O 0.97522(9) 0.5823(2) 0.19542(11)
Gd4_4 Gd 0.291357(6) 0.070723(13) 0.143358(7)
S2_6 S 0.29714(4) 0.54039(8) 0.14809(6)
C1_6 C 0.35942(15) 0.0589(3) 0.23862(15)
C2_6 C 0.35530(13) 0.0601(3) 0.28782(14)
C3_6 C 0.38391(13) 0.0216(3) 0.31905(15)
C4_6 C 0.32283(14) 0.0971(4) 0.30220(16)
H2_6 H 0.3039 0.1223 0.2812
C5_6 C 0.37760(13) 0.0205(3) 0.36367(15)
C6_6 C 0.31791(15) 0.0975(4) 0.34706(16)
H3_6 H 0.2962 0.1242 0.3560
C7_6 C 0.34514(13) 0.0583(3) 0.37823(15)
C8_6 C 0.34364(13) 0.0438(3) 0.42629(14)
C10_6 C 0.31483(14) 0.0688(4) 0.45093(16)
H4_6 H 0.2939 0.1026 0.4380
C12_6 C 0.31800(14) 0.0425(3) 0.49501(16)
H6_5 H 0.2986 0.0586 0.5117
C15_6 C 0.36730(14) 0.2237(3) 0.15136(15)
C16_6 C 0.36788(14) 0.3247(3) 0.15129(16)
C17_6 C 0.40220(15) 0.3698(3) 0.1527(2)
H7_6 H 0.4250 0.3371 0.1547
C18_6 C 0.33391(14) 0.3724(3) 0.14928(16)
H8_6 H 0.3103 0.3432 0.1483
C19_6 C 0.40402(17) 0.4616(4) 0.1513(3)
H9_6 H 0.4275 0.4909 0.1515
C20_6 C 0.33606(14) 0.4638(3) 0.14871(17)
C21_6 C 0.37006(15) 0.5095(3) 0.1494(2)
C22_6 C 0.36525(14) 0.6089(3) 0.14679(19)
C23_6 C 0.39269(16) 0.6736(3) 0.1468(3)
H10_6 H 0.4185 0.6579 0.1474
C24_6 C 0.32705(14) 0.6344(3) 0.14539(17)
C25_6 C 0.38208(16) 0.7616(3) 0.1460(2)
H11_6 H 0.4010 0.8055 0.1461
C26_6 C 0.31556(14) 0.7233(3) 0.14356(16)
H12_6 H 0.2896 0.7389 0.1414
C27_6 C 0.34384(13) 0.7877(3) 0.14506(16)
C28_6 C 0.33373(14) 0.8861(3) 0.14645(15)
C49_6 C 0.2446(2) 0.2115(6) 0.2058(2)
H33_6 H 0.2438 0.1647 0.2261
C50_6 C 0.2215(5) 0.3605(9) 0.1878(4)
H34_6 H 0.2340 0.3508 0.1617
H35_6 H 0.2327 0.4119 0.2039
H36_6 H 0.1945 0.3708 0.1786
C51_6 C 0.2088(5) 0.2883(8) 0.2563(4)
H37_6 H 0.2145 0.2338 0.2729
H38_6 H 0.1814 0.2946 0.2489
H39_6 H 0.2189 0.3385 0.2742
C52_6 C 0.2331(4) 0.1868(8) 0.0719(5)
H40_6 H 0.2133 0.1459 0.0735
C53_6 C 0.2490(4) 0.3377(8) 0.0448(5)
H41_6 H 0.2351 0.3907 0.0340
H42_6 H 0.2644 0.3174 0.0228
H43_6 H 0.2654 0.3513 0.0722
C54_6 C 0.1860(4) 0.3043(8) 0.0580(5)
H44_6 H 0.1831 0.3623 0.0441
H45_6 H 0.1840 0.3100 0.0894
H46_6 H 0.1661 0.2650 0.0442
N3_6 N 0.22639(16) 0.2855(4) 0.2153(2)
N4_6 N 0.2222(4) 0.2689(8) 0.0528(4)
O1_6 O 0.39196(10) 0.0465(2) 0.22804(10)
O2_6 O 0.32868(10) 0.0701(3) 0.21264(11)
O3_6 O 0.44347(11) 0.0129(4) 0.41886(13)
O7_6 O 0.39876(10) 0.1844(2) 0.16221(11)
O8_6 O 0.33562(10) 0.1868(2) 0.14007(12)
O9_6 O 0.28204(13) 0.5402(3) 0.19061(17)
O10_6 O 0.27040(12) 0.5302(2) 0.10809(17)
O11_4 O 0.36110(9) 0.94078(19) 0.15012(11)
O12_4 O 0.29923(9) 0.90750(19) 0.14428(12)
O13_6 O 0.22753(9) 0.0063(2) 0.12065(12)
O14_6 O 0.24798(10) 0.0035(2) 0.19336(12)
O21_6 O 0.26035(12) 0.1652(3) 0.08462(14)
O22_6 O 0.26095(12) 0.1968(3) 0.17679(15)
O23_4 O 0.38173(9) 0.0610(2) 0.08436(10)
O24_4 O 0.31833(9) 0.0355(2) 0.07825(10)
S1_6 S 0.40689(4) 0.96852(11) 0.40843(4)
S3_6 S 0.09660(4) 0.80325(11) 0.09800(4)
H1_6 H 0.4063 0.9977 0.3103
C9_6 C 0.37519(14) 0.9962(3) 0.44723(15)
C11_6 C 0.37865(14) 0.9713(3) 0.49141(15)
H5_6 H 0.4004 0.9407 0.5049
C13_6 C 0.34900(13) 0.9930(3) 0.51548(14)
C14_6 C 0.34969(14) 0.9631(3) 0.56332(14)
C29_6 C 0.22408(14) 0.9821(3) 0.16038(18)
C30_6 C 0.19000(14) 0.9253(3) 0.16732(17)
C31_6 C 0.16433(14) 0.8968(3) 0.13095(17)
H13_6 H 0.1678 0.9123 0.1018
C32_6 C 0.18434(14) 0.9006(4) 0.20999(18)
H14_6 H 0.2020 0.9194 0.2342
C33_6 C 0.13372(13) 0.8453(3) 0.13891(16)
C34_6 C 0.15294(15) 0.8484(4) 0.21793(17)
H15_6 H 0.1494 0.8326 0.2470
C35_6 C 0.12722(14) 0.8206(3) 0.18153(16)
C36_6 C 0.09162(13) 0.7671(3) 0.18160(15)
C37_6 C 0.07179(14) 0.7522(3) 0.13888(16)
C38_6 C 0.07660(13) 0.7315(3) 0.21845(16)
H16_6 H 0.0892 0.7401 0.2474
C39_6 C 0.03821(13) 0.7058(3) 0.13127(16)
H17_6 H 0.0256 0.6978 0.1022
C40_6 C 0.04278(13) 0.6833(3) 0.21109(15)
H18_6 H 0.0328 0.6587 0.2355
C41_6 C 0.02303(12) 0.6705(3) 0.16795(15)
C43_6 C 0.4839(3) 0.8695(7) 0.0143(3)
H19_5 H 0.5026 0.9164 0.0208
H21_6 H 0.4968 0.8127 0.0142
C44_6 C 0.46085(17) 0.9245(4) 0.08070(18)
H22_6 H 0.4794 0.9694 0.0812
C45_6 C 0.4281(3) 0.8044(7) 0.0421(3)
H23_6 H 0.4127 0.8094 0.0660
H24_6 H 0.4388 0.7452 0.0420
H25_6 H 0.4122 0.8154 0.0139
C46_6 C 0.45377(19) 0.9173(4) 0.2468(3)
H26_6 H 0.4632 0.9737 0.2559
C47_6 C 0.4750(3) 0.8634(7) 0.3224(3)
H27_6 H 0.4841 0.9239 0.3272
H28_6 H 0.4964 0.8227 0.3277
H29_6 H 0.4569 0.8500 0.3427
C48_6 C 0.4380(3) 0.7644(7) 0.2621(3)
H30_6 H 0.4272 0.7678 0.2311
H31_6 H 0.4180 0.7509 0.2799
H32_6 H 0.4572 0.7180 0.2661
N1_6 N 0.45648(17) 0.8538(4) 0.2770(2)
N2_6 N 0.45837(16) 0.8686(4) 0.04841(17)
O4_6 O 0.40774(14) 0.8736(3) 0.40160(13)
O5_4 O 0.38173(9) 0.9390(2) 0.58436(10)
O6_4 O 0.31833(9) 0.9645(2) 0.57825(10)
O15_6 O 0.07414(12) 0.8747(3) 0.07640(14)
O16_6 O 0.11142(12) 0.7369(3) 0.07012(13)
O19_6 O 0.44090(10) 0.9242(2) 0.11135(12)
O20_6 O 0.43914(10) 0.9081(2) 0.20562(13)
Gd3_4 Gd 0.291357(6) 0.929277(13) 0.643358(7)
Gd5_4 Gd 0.414165(6) 0.967980(13) 0.656878(7)
C42_6 C 0.98615(13) 0.6192(3) 0.16173(15)
H5_7 H 0.9004 0.5593 0.0049
H6_6 H 0.7986 0.4414 0.0117
C13_7 C 0.84900(13) 0.5070(3) 0.01548(14)
C14_7 C 0.84969(14) 0.5369(3) 0.06332(14)
S1_7 S 0.90689(4) 0.53148(11) 0.90843(4)
S3_7 S 0.59660(4) 0.69675(11) 0.59800(4)
C1_7 C 0.85942(15) 0.4411(3) 0.73862(15)
C2_7 C 0.85530(13) 0.4399(3) 0.78782(14)
C3_7 C 0.88391(13) 0.4784(3) 0.81905(15)
H1_7 H 0.9063 0.5023 0.8103
C4_7 C 0.82283(14) 0.4029(4) 0.80220(16)
H2_7 H 0.8039 0.3777 0.7812
C5_7 C 0.87760(13) 0.4795(3) 0.86367(15)
C6_7 C 0.81791(15) 0.4025(4) 0.84706(16)
H3_7 H 0.7962 0.3758 0.8560
C7_7 C 0.84514(13) 0.4417(3) 0.87823(15)
C8_7 C 0.84364(13) 0.4562(3) 0.92629(14)
C9_7 C 0.87519(14) 0.5038(3) 0.94723(15)
C10_7 C 0.81483(14) 0.4312(4) 0.95093(16)
H4_7 H 0.7939 0.3974 0.9380
C11_7 C 0.87865(14) 0.5287(3) 0.99141(15)
C12_7 C 0.81800(14) 0.4575(3) 0.99501(16)
C15_7 C 0.86730(14) 0.2763(3) 0.65136(15)
C16_7 C 0.86788(14) 0.1753(3) 0.65129(16)
C17_7 C 0.90220(15) 0.1302(3) 0.6527(2)
H7_7 H 0.9250 0.1629 0.6547
C18_7 C 0.83391(14) 0.1276(3) 0.64928(16)
H8_7 H 0.8103 0.1568 0.6483
C19_7 C 0.90402(17) 0.0384(4) 0.6513(3)
H9_7 H 0.9275 0.0091 0.6515
C20_7 C 0.83606(14) 0.0362(3) 0.64871(17)
C29_7 C 0.72408(14) 0.5179(3) 0.66038(18)
C30_7 C 0.69000(14) 0.5747(3) 0.66732(17)
C31_7 C 0.66433(14) 0.6032(3) 0.63095(17)
H13_7 H 0.6678 0.5877 0.6018
C32_7 C 0.68434(14) 0.5994(4) 0.70999(18)
H14_7 H 0.7020 0.5806 0.7342
C33_7 C 0.63372(13) 0.6547(3) 0.63891(16)
C34_7 C 0.65294(15) 0.6516(4) 0.71793(17)
H15_7 H 0.6494 0.6674 0.7470
C35_7 C 0.62722(14) 0.6794(3) 0.68153(16)
C36_7 C 0.59162(13) 0.7329(3) 0.68160(15)
C37_7 C 0.57179(14) 0.7478(3) 0.63888(16)
C38_7 C 0.57660(13) 0.7685(3) 0.71845(16)
H16_7 H 0.5892 0.7599 0.7474
C39_7 C 0.53821(13) 0.7942(3) 0.63127(16)
H17_7 H 0.5256 0.8022 0.6022
C40_7 C 0.54278(13) 0.8167(3) 0.71109(15)
H18_7 H 0.5328 0.8413 0.7355
C41_7 C 0.52303(12) 0.8295(3) 0.66795(15)
C42_7 C 0.48615(13) 0.8808(3) 0.66173(15)
C43_7 C 0.9839(3) 0.6305(7) 0.5143(3)
H20_3 H 0.9691 0.6201 0.4854
H21_7 H 0.9968 0.6873 0.5142
C44_7 C 0.96085(17) 0.5755(4) 0.58070(18)
H22_7 H 0.9794 0.5306 0.5812
C45_7 C 0.9281(3) 0.6956(7) 0.5421(3)
H23_7 H 0.9127 0.6906 0.5660
H24_7 H 0.9388 0.7548 0.5420
H25_7 H 0.9122 0.6846 0.5139
C46_7 C 0.95377(19) 0.5827(4) 0.7468(3)
H26_7 H 0.9632 0.5263 0.7559
C47_7 C 0.9750(3) 0.6366(7) 0.8224(3)
H27_7 H 0.9841 0.5761 0.8272
H28_7 H 0.9964 0.6773 0.8277
H29_7 H 0.9569 0.6500 0.8427
C48_7 C 0.9380(3) 0.7356(7) 0.7621(3)
H30_7 H 0.9272 0.7322 0.7311
H31_7 H 0.9180 0.7491 0.7799
H32_7 H 0.9572 0.7820 0.7661
C49_7 C 0.7446(2) 0.2885(6) 0.7058(2)
H33_7 H 0.7438 0.3353 0.7261
C50_7 C 0.7215(5) 0.1395(9) 0.6878(4)
H34_7 H 0.7340 0.1492 0.6617
H35_7 H 0.7327 0.0881 0.7039
H36_7 H 0.6945 0.1292 0.6786
C51_7 C 0.7088(5) 0.2117(8) 0.7563(4)
H37_7 H 0.7145 0.2662 0.7729
H38_7 H 0.6814 0.2054 0.7489
H39_7 H 0.7189 0.1615 0.7742
C52_7 C 0.7331(4) 0.3132(8) 0.5719(5)
H40_7 H 0.7133 0.3541 0.5735
C53_7 C 0.7490(4) 0.1623(8) 0.5448(5)
H41_7 H 0.7351 0.1093 0.5340
H42_7 H 0.7644 0.1826 0.5228
H43_7 H 0.7654 0.1487 0.5722
C54_7 C 0.6860(4) 0.1957(8) 0.5580(5)
H44_7 H 0.6831 0.1377 0.5441
H45_7 H 0.6840 0.1900 0.5894
H46_7 H 0.6661 0.2350 0.5442
N1_7 N 0.95648(17) 0.6462(4) 0.7770(2)
N2_7 N 0.95837(16) 0.6314(4) 0.54841(17)
N3_7 N 0.72639(16) 0.2145(4) 0.7153(2)
N4_7 N 0.7222(4) 0.2311(8) 0.5528(4)
O1_7 O 0.89196(10) 0.4535(2) 0.72804(10)
O2_7 O 0.82868(10) 0.4299(3) 0.71264(11)
O3_7 O 0.94347(11) 0.4871(4) 0.91886(13)
O4_7 O 0.90774(14) 0.6264(3) 0.90160(13)
O7_7 O 0.89876(10) 0.3156(2) 0.66221(11)
O8_7 O 0.83562(10) 0.3132(2) 0.64007(12)
O13_7 O 0.72753(9) 0.4937(2) 0.62065(12)
O14_7 O 0.74798(10) 0.4965(2) 0.69336(12)
O15_7 O 0.57414(12) 0.6253(3) 0.57640(14)
O16_7 O 0.61142(12) 0.7631(3) 0.57012(13)
O17_4 O 0.46636(9) 0.8849(2) 0.62359(10)
O18_4 O 0.47522(9) 0.9177(2) 0.69542(11)
O19_7 O 0.94090(10) 0.5758(2) 0.61135(12)
O20_7 O 0.93914(10) 0.5919(2) 0.70562(13)
O21_7 O 0.76035(12) 0.3348(3) 0.58462(14)
O22_7 O 0.76095(12) 0.3032(3) 0.67679(15)
O25_3 O 0.86110(9) 0.55922(19) 0.65012(11)
O26_3 O 0.79923(9) 0.59250(19) 0.64428(12)
O27_4 O 0.96636(9) 0.3849(2) 0.62359(10)
O28_4 O 0.97522(9) 0.4177(2) 0.69542(11)
S2_7 S 0.79714(4) 0.95961(8) 0.64809(6)
C21_7 C 0.87006(15) 0.9905(3) 0.6494(2)
C22_7 C 0.86525(14) 0.8911(3) 0.64679(19)
C23_7 C 0.89269(16) 0.8264(3) 0.6468(3)
H10_7 H 0.9185 0.8421 0.6474
C24_7 C 0.82705(14) 0.8656(3) 0.64539(17)
C25_7 C 0.88208(16) 0.7384(3) 0.6460(2)
H11_7 H 0.9010 0.6945 0.6461
C26_7 C 0.81556(14) 0.7767(3) 0.64356(16)
H12_7 H 0.7896 0.7611 0.6414
C27_7 C 0.84384(13) 0.7123(3) 0.64506(16)
C28_7 C 0.83373(14) 0.6139(3) 0.64645(15)
O9_7 O 0.78204(13) 0.9598(3) 0.69061(17)
O10_7 O 0.77040(12) 0.9698(2) 0.60809(17)
H5_8 H 0.4004 0.0593 0.0049
C13_8 C 0.34900(13) 0.0070(3) 0.01548(14)
C14_8 C 0.34969(14) 0.0369(3) 0.06332(14)
S1_8 S 0.40689(4) 0.03148(11) 0.90843(4)
S3_8 S 0.09660(4) 0.19675(11) 0.59800(4)
H1_8 H 0.4063 0.0023 0.8103
C9_8 C 0.37519(14) 0.0038(3) 0.94723(15)
C11_8 C 0.37865(14) 0.0287(3) 0.99141(15)
C29_8 C 0.22408(14) 0.0179(3) 0.66038(18)
C30_8 C 0.19000(14) 0.0747(3) 0.66732(17)
C31_8 C 0.16433(14) 0.1032(3) 0.63095(17)
H13_8 H 0.1678 0.0877 0.6018
C32_8 C 0.18434(14) 0.0994(4) 0.70999(18)
H14_8 H 0.2020 0.0806 0.7342
C33_8 C 0.13372(13) 0.1547(3) 0.63891(16)
C34_8 C 0.15294(15) 0.1516(4) 0.71793(17)
H15_8 H 0.1494 0.1674 0.7470
C35_8 C 0.12722(14) 0.1794(3) 0.68153(16)
C36_8 C 0.09162(13) 0.2329(3) 0.68160(15)
C37_8 C 0.07179(14) 0.2478(3) 0.63888(16)
C38_8 C 0.07660(13) 0.2685(3) 0.71845(16)
H16_8 H 0.0892 0.2599 0.7474
C39_8 C 0.03821(13) 0.2942(3) 0.63127(16)
H17_8 H 0.0256 0.3022 0.6022
C40_8 C 0.04278(13) 0.3167(3) 0.71109(15)
H18_8 H 0.0328 0.3413 0.7355
C41_8 C 0.02303(12) 0.3295(3) 0.66795(15)
C43_8 C 0.4839(3) 0.1305(7) 0.5143(3)
H19_6 H 0.5026 0.0836 0.5208
H20_4 H 0.4691 0.1201 0.4854
H21_8 H 0.4968 0.1873 0.5142
C44_8 C 0.46085(17) 0.0755(4) 0.58070(18)
H22_8 H 0.4794 0.0306 0.5812
C45_8 C 0.4281(3) 0.1956(7) 0.5421(3)
H23_8 H 0.4127 0.1906 0.5660
H24_8 H 0.4388 0.2548 0.5420
H25_8 H 0.4122 0.1846 0.5139
C46_8 C 0.45377(19) 0.0827(4) 0.7468(3)
H26_8 H 0.4632 0.0263 0.7559
C47_8 C 0.4750(3) 0.1366(7) 0.8224(3)
H27_8 H 0.4841 0.0761 0.8272
H28_8 H 0.4964 0.1773 0.8277
H29_8 H 0.4569 0.1500 0.8427
C48_8 C 0.4380(3) 0.2356(7) 0.7621(3)
H30_8 H 0.4272 0.2322 0.7311
H31_8 H 0.4180 0.2491 0.7799
H32_8 H 0.4572 0.2820 0.7661
N1_8 N 0.45648(17) 0.1462(4) 0.7770(2)
N2_8 N 0.45837(16) 0.1314(4) 0.54841(17)
O4_8 O 0.40774(14) 0.1264(3) 0.90160(13)
O15_8 O 0.07414(12) 0.1253(3) 0.57640(14)
O16_8 O 0.11142(12) 0.2631(3) 0.57012(13)
O19_8 O 0.44090(10) 0.0758(2) 0.61135(12)
O20_8 O 0.43914(10) 0.0919(2) 0.70562(13)
O25_4 O 0.36110(9) 0.05922(19) 0.65012(11)
O26_4 O 0.29923(9) 0.09250(19) 0.64428(12)
S2_8 S 0.29714(4) 0.45961(8) 0.64809(6)
C1_8 C 0.35942(15) 0.9411(3) 0.73862(15)
C2_8 C 0.35530(13) 0.9399(3) 0.78782(14)
C3_8 C 0.38391(13) 0.9784(3) 0.81905(15)
C4_8 C 0.32283(14) 0.9029(4) 0.80220(16)
H2_8 H 0.3039 0.8777 0.7812
C5_8 C 0.37760(13) 0.9795(3) 0.86367(15)
C6_8 C 0.31791(15) 0.9025(4) 0.84706(16)
H3_8 H 0.2962 0.8758 0.8560
C7_8 C 0.34514(13) 0.9417(3) 0.87823(15)
C8_8 C 0.34364(13) 0.9562(3) 0.92629(14)
C10_8 C 0.31483(14) 0.9312(4) 0.95093(16)
H4_8 H 0.2939 0.8974 0.9380
C12_8 C 0.31800(14) 0.9575(3) 0.99501(16)
C15_8 C 0.36730(14) 0.7763(3) 0.65136(15)
C16_8 C 0.36788(14) 0.6753(3) 0.65129(16)
C17_8 C 0.40220(15) 0.6302(3) 0.6527(2)
H7_8 H 0.4250 0.6629 0.6547
C18_8 C 0.33391(14) 0.6276(3) 0.64928(16)
H8_8 H 0.3103 0.6568 0.6483
C19_8 C 0.40402(17) 0.5384(4) 0.6513(3)
H9_8 H 0.4275 0.5091 0.6515
C20_8 C 0.33606(14) 0.5362(3) 0.64871(17)
C21_8 C 0.37006(15) 0.4905(3) 0.6494(2)
C22_8 C 0.36525(14) 0.3911(3) 0.64679(19)
C23_8 C 0.39269(16) 0.3264(3) 0.6468(3)
H10_8 H 0.4185 0.3421 0.6474
C24_8 C 0.32705(14) 0.3656(3) 0.64539(17)
C25_8 C 0.38208(16) 0.2384(3) 0.6460(2)
H11_8 H 0.4010 0.1945 0.6461
C26_8 C 0.31556(14) 0.2767(3) 0.64356(16)
H12_8 H 0.2896 0.2611 0.6414
C27_8 C 0.34384(13) 0.2123(3) 0.64506(16)
C28_8 C 0.33373(14) 0.1139(3) 0.64645(15)
C49_8 C 0.2446(2) 0.7885(6) 0.7058(2)
H33_8 H 0.2438 0.8353 0.7261
C50_8 C 0.2215(5) 0.6395(9) 0.6878(4)
H34_8 H 0.2340 0.6492 0.6617
H35_8 H 0.2327 0.5881 0.7039
H36_8 H 0.1945 0.6292 0.6786
C51_8 C 0.2088(5) 0.7117(8) 0.7563(4)
H37_8 H 0.2145 0.7662 0.7729
H38_8 H 0.1814 0.7054 0.7489
H39_8 H 0.2189 0.6615 0.7742
C52_8 C 0.2331(4) 0.8132(8) 0.5719(5)
H40_8 H 0.2133 0.8541 0.5735
C53_8 C 0.2490(4) 0.6623(8) 0.5448(5)
H41_8 H 0.2351 0.6093 0.5340
H42_8 H 0.2644 0.6826 0.5228
H43_8 H 0.2654 0.6487 0.5722
C54_8 C 0.1860(4) 0.6957(8) 0.5580(5)
H44_8 H 0.1831 0.6377 0.5441
H45_8 H 0.1840 0.6900 0.5894
H46_8 H 0.1661 0.7350 0.5442
N3_8 N 0.22639(16) 0.7145(4) 0.7153(2)
N4_8 N 0.2222(4) 0.7311(8) 0.5528(4)
O1_8 O 0.39196(10) 0.9535(2) 0.72804(10)
O2_8 O 0.32868(10) 0.9299(3) 0.71264(11)
O3_8 O 0.44347(11) 0.9871(4) 0.91886(13)
O7_8 O 0.39876(10) 0.8156(2) 0.66221(11)
O8_8 O 0.33562(10) 0.8132(2) 0.64007(12)
O9_8 O 0.28204(13) 0.4598(3) 0.69061(17)
O10_8 O 0.27040(12) 0.4698(2) 0.60809(17)
O13_8 O 0.22753(9) 0.9937(2) 0.62065(12)
O14_8 O 0.24798(10) 0.9965(2) 0.69336(12)
O21_8 O 0.26035(12) 0.8348(3) 0.58462(14)
O22_8 O 0.26095(12) 0.8032(3) 0.67679(15)
C42_8 C 0.98615(13) 0.3808(3) 0.66173(15)
H20_5 H 0.9691 0.3799 0.9854
H6_7 H 0.7014 0.0586 0.9883
H20_6 H 0.4691 0.8799 0.9854
H19_7 H 0.0026 0.5836 0.5208
H20_7 H 0.0309 0.6201 0.0146
H19_8 H 0.9974 0.5836 0.9792
H6_8 H 0.2986 0.9414 0.0117
H20_8 H 0.5309 0.1201 0.0146
loop_
_geom_bond_atom_site_label_1
_geom_bond_atom_site_label_2
_geom_bond_site_symmetry_1
_geom_bond_site_symmetry_2
C22 C21 1_555 1_555
C23 C22 1_555 1_555
H10 C23 1_555 1_555
C24 S2 1_555 1_555
C25 C23 1_555 1_555
H11 C25 1_555 1_555
C26 C24 1_555 1_555
H12 C26 1_555 1_555
C27 C25 1_555 1_555
C28 C27 1_555 1_555
O9 S2 1_555 1_555
O10 S2 1_555 1_555
O11 C28 1_555 1_555
O12 C28 1_555 1_555
Gd4 O12 1_555 1_555
Gd6 O11 1_555 1_555
C22 C24 1_555 1_555
C26 C27 1_555 1_555
Gd4 O2 1_555 1_555
Gd6 O1 1_555 1_555
S1 C5 1_555 1_555
S3 C33 1_555 1_555
C1 C2 1_555 1_555
C2 C3 1_555 1_555
C3 H1 1_555 1_555
C4 C2 1_555 1_555
H2 C4 1_555 1_555
C5 C3 1_555 1_555
C6 C4 1_555 1_555
H3 C6 1_555 1_555
C7 C5 1_555 1_555
C8 C7 1_555 1_555
C9 S1 1_555 1_555
C10 C8 1_555 1_555
H4 C10 1_555 1_555
C11 C9 1_555 1_555
C12 C10 1_555 1_555
C15 C16 1_555 1_555
C16 C17 1_555 1_555
C17 H7 1_555 1_555
C18 C16 1_555 1_555
H8 C18 1_555 1_555
C19 C17 1_555 1_555
H9 C19 1_555 1_555
C20 C18 1_555 1_555
C29 C30 1_555 1_555
C30 C31 1_555 1_555
C31 H13 1_555 1_555
C32 C30 1_555 1_555
H14 C32 1_555 1_555
C33 C31 1_555 1_555
C34 C32 1_555 1_555
H15 C34 1_555 1_555
C35 C33 1_555 1_555
C36 C35 1_555 1_555
C37 S3 1_555 1_555
C38 C36 1_555 1_555
H16 C38 1_555 1_555
C39 C37 1_555 1_555
H17 C39 1_555 1_555
C40 C38 1_555 1_555
H18 C40 1_555 1_555
C41 C39 1_555 1_555
C42 C41 1_555 1_555
H20 C43 1_555 1_555
H21 C43 1_555 1_555
C44 H22 1_555 1_555
C45 H23 1_555 1_555
H24 C45 1_555 1_555
H25 C45 1_555 1_555
C46 H26 1_555 1_555
C47 H27 1_555 1_555
H28 C47 1_555 1_555
H29 C47 1_555 1_555
C48 H30 1_555 1_555
H31 C48 1_555 1_555
H32 C48 1_555 1_555
C49 H33 1_555 1_555
C50 H34 1_555 1_555
H35 C50 1_555 1_555
H36 C50 1_555 1_555
C51 H37 1_555 1_555
H38 C51 1_555 1_555
H39 C51 1_555 1_555
C52 H40 1_555 1_555
C53 H41 1_555 1_555
H42 C53 1_555 1_555
H43 C53 1_555 1_555
C54 H44 1_555 1_555
H45 C54 1_555 1_555
H46 C54 1_555 1_555
N1 C46 1_555 1_555
N2 C43 1_555 1_555
N3 C49 1_555 1_555
N4 C52 1_555 1_555
O1 C1 1_555 1_555
O2 C1 1_555 1_555
O3 S1 1_555 1_555
O4 S1 1_555 1_555
O7 Gd6 1_555 1_555
O8 Gd4 1_555 1_555
O13 Gd4 1_555 1_555
O14 Gd4 1_555 1_555
O15 S3 1_555 1_555
O16 S3 1_555 1_555
O17 C42 1_555 1_555
O18 C42 1_555 1_555
O19 Gd6 1_555 1_555
O20 Gd6 1_555 1_555
O21 Gd4 1_555 1_555
O22 Gd4 1_555 1_555
Gd7 O17 1_555 1_555
O23 Gd6 1_555 1_555
O24 Gd4 1_555 1_555
O27 Gd6 1_555 1_555
O28 Gd6 1_555 1_555
C6 C7 1_555 1_555
C8 C9 1_555 1_555
C15 O7 1_555 1_555
C15 O8 1_555 1_555
C29 O13 1_555 1_555
C29 O14 1_555 1_555
C34 C35 1_555 1_555
C36 C37 1_555 1_555
C40 C41 1_555 1_555
C44 N2 1_555 1_555
C44 O19 1_555 1_555
C45 N2 1_555 1_555
C46 O20 1_555 1_555
C47 N1 1_555 1_555
C48 N1 1_555 1_555
C49 O22 1_555 1_555
C50 N3 1_555 1_555
C51 N3 1_555 1_555
C52 O21 1_555 1_555
C53 N4 1_555 1_555
C54 N4 1_555 1_555
O18 Gd7 1_555 1_555
C14 C13 1_555 1_555
O5 C14 1_555 1_555
O6 C14 1_555 1_555
Gd3 O6 1_555 1_555
Gd5 O5 1_555 1_555
O27 C42_2 1_555 1_555
O28 C42_2 1_555 1_555
Gd4_2 O2_2 1_555 1_555
Gd7 O1_2 1_555 1_555
S2_2 C20_2 1_555 1_555
C1_2 C2_2 1_555 1_555
C2_2 C3_2 1_555 1_555
C4_2 C2_2 1_555 1_555
H2_2 C4_2 1_555 1_555
C5_2 C3_2 1_555 1_555
C6_2 C4_2 1_555 1_555
H3_2 C6_2 1_555 1_555
C7_2 C5_2 1_555 1_555
C8_2 C7_2 1_555 1_555
C10_2 C8_2 1_555 1_555
H4_2 C10_2 1_555 1_555
C12_2 C10_2 1_555 1_555
C15_2 C16_2 1_555 1_555
C16_2 C17_2 1_555 1_555
C17_2 H7_2 1_555 1_555
C18_2 C16_2 1_555 1_555
H8_2 C18_2 1_555 1_555
C19_2 C17_2 1_555 1_555
H9_2 C19_2 1_555 1_555
C20_2 C18_2 1_555 1_555
C21_2 C19_2 1_555 1_555
C22_2 C21_2 1_555 1_555
C23_2 C22_2 1_555 1_555
H10_2 C23_2 1_555 1_555
C24_2 S2_2 1_555 1_555
C25_2 C23_2 1_555 1_555
H11_2 C25_2 1_555 1_555
C26_2 C24_2 1_555 1_555
H12_2 C26_2 1_555 1_555
C27_2 C25_2 1_555 1_555
C28_2 C27_2 1_555 1_555
C49_2 H33_2 1_555 1_555
C50_2 H34_2 1_555 1_555
H35_2 C50_2 1_555 1_555
H36_2 C50_2 1_555 1_555
C51_2 H37_2 1_555 1_555
H38_2 C51_2 1_555 1_555
H39_2 C51_2 1_555 1_555
C52_2 H40_2 1_555 1_555
C53_2 H41_2 1_555 1_555
H42_2 C53_2 1_555 1_555
H43_2 C53_2 1_555 1_555
C54_2 H44_2 1_555 1_555
H45_2 C54_2 1_555 1_555
H46_2 C54_2 1_555 1_555
N3_2 C49_2 1_555 1_555
N4_2 C52_2 1_555 1_555
O1_2 C1_2 1_555 1_555
O2_2 C1_2 1_555 1_555
O7_2 Gd7 1_555 1_555
O8_2 Gd4_2 1_555 1_555
O9_2 S2_2 1_555 1_555
O10_2 S2_2 1_555 1_555
O11_2 C28_2 1_555 1_555
O12_2 C28_2 1_555 1_555
O13_2 Gd4_2 1_555 1_555
O14_2 Gd4_2 1_555 1_555
O21_2 Gd4_2 1_555 1_555
O22_2 Gd4_2 1_555 1_555
O23_2 Gd7 1_555 1_555
O24_2 Gd4_2 1_555 1_555
C6_2 C7_2 1_555 1_555
C15_2 O7_2 1_555 1_555
C15_2 O8_2 1_555 1_555
C20_2 C21_2 1_555 1_555
C22_2 C24_2 1_555 1_555
C26_2 C27_2 1_555 1_555
C49_2 O22_2 1_555 1_555
C50_2 N3_2 1_555 1_555
C51_2 N3_2 1_555 1_555
C52_2 O21_2 1_555 1_555
C53_2 N4_2 1_555 1_555
C54_2 N4_2 1_555 1_555
S3_2 C33_2 1_555 1_555
C9_2 S1_2 1_555 1_555
C11_2 C9_2 1_555 1_555
C29_2 C30_2 1_555 1_555
C30_2 C31_2 1_555 1_555
C31_2 H13_2 1_555 1_555
C32_2 C30_2 1_555 1_555
H14_2 C32_2 1_555 1_555
C33_2 C31_2 1_555 1_555
C34_2 C32_2 1_555 1_555
H15_2 C34_2 1_555 1_555
C35_2 C33_2 1_555 1_555
C36_2 C35_2 1_555 1_555
C37_2 S3_2 1_555 1_555
C38_2 C36_2 1_555 1_555
H16_2 C38_2 1_555 1_555
C39_2 C37_2 1_555 1_555
H17_2 C39_2 1_555 1_555
C40_2 C38_2 1_555 1_555
H18_2 C40_2 1_555 1_555
C41_2 C39_2 1_555 1_555
C43_2 H19 1_555 1_555
H20_2 C43_2 1_555 1_555
H21_2 C43_2 1_555 1_555
C44_2 H22_2 1_555 1_555
C45_2 H23_2 1_555 1_555
H24_2 C45_2 1_555 1_555
H25_2 C45_2 1_555 1_555
C46_2 H26_2 1_555 1_555
C47_2 H27_2 1_555 1_555
H28_2 C47_2 1_555 1_555
H29_2 C47_2 1_555 1_555
C48_2 H30_2 1_555 1_555
H31_2 C48_2 1_555 1_555
H32_2 C48_2 1_555 1_555
N1_2 C46_2 1_555 1_555
N2_2 C43_2 1_555 1_555
O4_2 S1_2 1_555 1_555
O15_2 S3_2 1_555 1_555
O16_2 S3_2 1_555 1_555
C34_2 C35_2 1_555 1_555
C36_2 C37_2 1_555 1_555
C40_2 C41_2 1_555 1_555
C44_2 N2_2 1_555 1_555
C44_2 O19_2 1_555 1_555
C45_2 N2_2 1_555 1_555
C46_2 O20_2 1_555 1_555
C47_2 N1_2 1_555 1_555
C48_2 N1_2 1_555 1_555
C14_2 C13_2 1_555 1_555
O5_2 C14_2 1_555 1_555
O6_2 C14_2 1_555 1_555
Gd3_2 O6_2 1_555 1_555
Gd5_2 O5_2 1_555 1_555
Gd3 O2_3 1_555 1_555
Gd5 O1_3 1_555 1_555
S1_3 C5_3 1_555 1_555
S3_3 C33_3 1_555 1_555
C1_3 C2_3 1_555 1_555
C2_3 C3_3 1_555 1_555
C3_3 H1_3 1_555 1_555
C4_3 C2_3 1_555 1_555
H2_3 C4_3 1_555 1_555
C5_3 C3_3 1_555 1_555
C6_3 C4_3 1_555 1_555
H3_3 C6_3 1_555 1_555
C7_3 C5_3 1_555 1_555
C8_3 C7_3 1_555 1_555
C9_3 S1_3 1_555 1_555
C10_3 C8_3 1_555 1_555
H4_3 C10_3 1_555 1_555
C11_3 C9_3 1_555 1_555
H5_3 C11_3 1_555 1_555
C12_3 C10_3 1_555 1_555
H6_2 C12_3 1_555 1_555
C13_3 C11_3 1_555 1_555
C14_3 C13_3 1_555 1_555
C15_3 C16_3 1_555 1_555
C16_3 C17_3 1_555 1_555
C17_3 H7_3 1_555 1_555
C18_3 C16_3 1_555 1_555
H8_3 C18_3 1_555 1_555
C19_3 C17_3 1_555 1_555
H9_3 C19_3 1_555 1_555
C20_3 C18_3 1_555 1_555
C29_3 C30_3 1_555 1_555
C30_3 C31_3 1_555 1_555
C31_3 H13_3 1_555 1_555
C32_3 C30_3 1_555 1_555
H14_3 C32_3 1_555 1_555
C33_3 C31_3 1_555 1_555
C34_3 C32_3 1_555 1_555
H15_3 C34_3 1_555 1_555
C35_3 C33_3 1_555 1_555
C36_3 C35_3 1_555 1_555
C37_3 S3_3 1_555 1_555
C38_3 C36_3 1_555 1_555
H16_3 C38_3 1_555 1_555
C39_3 C37_3 1_555 1_555
H17_3 C39_3 1_555 1_555
C40_3 C38_3 1_555 1_555
H18_3 C40_3 1_555 1_555
C41_3 C39_3 1_555 1_555
C42_3 C41_3 1_555 1_555
H21_3 C43_3 1_555 1_555
C44_3 H22_3 1_555 1_555
C45_3 H23_3 1_555 1_555
H24_3 C45_3 1_555 1_555
H25_3 C45_3 1_555 1_555
C46_3 H26_3 1_555 1_555
C47_3 H27_3 1_555 1_555
H28_3 C47_3 1_555 1_555
H29_3 C47_3 1_555 1_555
C48_3 H30_3 1_555 1_555
H31_3 C48_3 1_555 1_555
H32_3 C48_3 1_555 1_555
C49_3 H33_3 1_555 1_555
C50_3 H34_3 1_555 1_555
H35_3 C50_3 1_555 1_555
H36_3 C50_3 1_555 1_555
C51_3 H37_3 1_555 1_555
H38_3 C51_3 1_555 1_555
H39_3 C51_3 1_555 1_555
C52_3 H40_3 1_555 1_555
C53_3 H41_3 1_555 1_555
H42_3 C53_3 1_555 1_555
H43_3 C53_3 1_555 1_555
C54_3 H44_3 1_555 1_555
H45_3 C54_3 1_555 1_555
H46_3 C54_3 1_555 1_555
N1_3 C46_3 1_555 1_555
N2_3 C43_3 1_555 1_555
N3_3 C49_3 1_555 1_555
N4_3 C52_3 1_555 1_555
O1_3 C1_3 1_555 1_555
O2_3 C1_3 1_555 1_555
O3_3 S1_3 1_555 1_555
O4_3 S1_3 1_555 1_555
O23 C14_3 1_555 1_555
O24 C14_3 1_555 1_555
O7_3 Gd5 1_555 1_555
O8_3 Gd3 1_555 1_555
O13_3 Gd3 1_555 1_555
O14_3 Gd3 1_555 1_555
O15_3 S3_3 1_555 1_555
O16_3 S3_3 1_555 1_555
O17_2 C42_3 1_555 1_555
O18_2 C42_3 1_555 1_555
O19_3 Gd5 1_555 1_555
O20_3 Gd5 1_555 1_555
O21_3 Gd3 1_555 1_555
O22_3 Gd3 1_555 1_555
Gd5_2 O17_2 1_555 1_555
O25 Gd5 1_555 1_555
O26 Gd3 1_555 1_555
O27_2 Gd5 1_555 1_555
O28_2 Gd5 1_555 1_555
C6_3 C7_3 1_555 1_555
C8_3 C9_3 1_555 1_555
C12_3 C13_3 1_555 1_555
C15_3 O7_3 1_555 1_555
C15_3 O8_3 1_555 1_555
C29_3 O13_3 1_555 1_555
C29_3 O14_3 1_555 1_555
C34_3 C35_3 1_555 1_555
C36_3 C37_3 1_555 1_555
C40_3 C41_3 1_555 1_555
C44_3 N2_3 1_555 1_555
C44_3 O19_3 1_555 1_555
C45_3 N2_3 1_555 1_555
C46_3 O20_3 1_555 1_555
C47_3 N1_3 1_555 1_555
C48_3 N1_3 1_555 1_555
C49_3 O22_3 1_555 1_555
C50_3 N3_3 1_555 1_555
C51_3 N3_3 1_555 1_555
C52_3 O21_3 1_555 1_555
C53_3 N4_3 1_555 1_555
C54_3 N4_3 1_555 1_555
O18_2 Gd5_2 1_555 1_555
C22_3 C21_3 1_555 1_555
C23_3 C22_3 1_555 1_555
H10_3 C23_3 1_555 1_555
C24_3 S2_3 1_555 1_555
C25_3 C23_3 1_555 1_555
H11_3 C25_3 1_555 1_555
C26_3 C24_3 1_555 1_555
H12_3 C26_3 1_555 1_555
C27_3 C25_3 1_555 1_555
C28_3 C27_3 1_555 1_555
O9_3 S2_3 1_555 1_555
O10_3 S2_3 1_555 1_555
O25 C28_3 1_555 1_555
O26 C28_3 1_555 1_555
C22_3 C24_3 1_555 1_555
C26_3 C27_3 1_555 1_555
O27_2 C42_4 1_555 1_555
O28_2 C42_4 1_555 1_555
S3_4 C33_4 1_555 1_555
C9_4 S1_4 1_555 1_555
C11_4 C9_4 1_555 1_555
H5_4 C11_4 1_555 1_555
C13_4 C11_4 1_555 1_555
C14_4 C13_4 1_555 1_555
C29_4 C30_4 1_555 1_555
C30_4 C31_4 1_555 1_555
C31_4 H13_4 1_555 1_555
C32_4 C30_4 1_555 1_555
H14_4 C32_4 1_555 1_555
C33_4 C31_4 1_555 1_555
C34_4 C32_4 1_555 1_555
H15_4 C34_4 1_555 1_555
C35_4 C33_4 1_555 1_555
C36_4 C35_4 1_555 1_555
C37_4 S3_4 1_555 1_555
C38_4 C36_4 1_555 1_555
H16_4 C38_4 1_555 1_555
C39_4 C37_4 1_555 1_555
H17_4 C39_4 1_555 1_555
C40_4 C38_4 1_555 1_555
H18_4 C40_4 1_555 1_555
C41_4 C39_4 1_555 1_555
C43_4 H19_2 1_555 1_555
H21_4 C43_4 1_555 1_555
C44_4 H22_4 1_555 1_555
C45_4 H23_4 1_555 1_555
H24_4 C45_4 1_555 1_555
H25_4 C45_4 1_555 1_555
C46_4 H26_4 1_555 1_555
C47_4 H27_4 1_555 1_555
H28_4 C47_4 1_555 1_555
H29_4 C47_4 1_555 1_555
C48_4 H30_4 1_555 1_555
H31_4 C48_4 1_555 1_555
H32_4 C48_4 1_555 1_555
N1_4 C46_4 1_555 1_555
N2_4 C43_4 1_555 1_555
O4_4 S1_4 1_555 1_555
O23_2 C14_4 1_555 1_555
O24_2 C14_4 1_555 1_555
O15_4 S3_4 1_555 1_555
O16_4 S3_4 1_555 1_555
C34_4 C35_4 1_555 1_555
C36_4 C37_4 1_555 1_555
C40_4 C41_4 1_555 1_555
C44_4 N2_4 1_555 1_555
C44_4 O19_4 1_555 1_555
C45_4 N2_4 1_555 1_555
C46_4 O20_4 1_555 1_555
C47_4 N1_4 1_555 1_555
C48_4 N1_4 1_555 1_555
Gd3_2 O2_4 1_555 1_555
Gd5_2 O1_4 1_555 1_555
S2_4 C20_4 1_555 1_555
C1_4 C2_4 1_555 1_555
C2_4 C3_4 1_555 1_555
C4_4 C2_4 1_555 1_555
H2_4 C4_4 1_555 1_555
C5_4 C3_4 1_555 1_555
C6_4 C4_4 1_555 1_555
H3_4 C6_4 1_555 1_555
C7_4 C5_4 1_555 1_555
C8_4 C7_4 1_555 1_555
C10_4 C8_4 1_555 1_555
H4_4 C10_4 1_555 1_555
C12_4 C10_4 1_555 1_555
H6_3 C12_4 1_555 1_555
C15_4 C16_4 1_555 1_555
C16_4 C17_4 1_555 1_555
C17_4 H7_4 1_555 1_555
C18_4 C16_4 1_555 1_555
H8_4 C18_4 1_555 1_555
C19_4 C17_4 1_555 1_555
H9_4 C19_4 1_555 1_555
C20_4 C18_4 1_555 1_555
C21_4 C19_4 1_555 1_555
C22_4 C21_4 1_555 1_555
C23_4 C22_4 1_555 1_555
H10_4 C23_4 1_555 1_555
C24_4 S2_4 1_555 1_555
C25_4 C23_4 1_555 1_555
H11_4 C25_4 1_555 1_555
C26_4 C24_4 1_555 1_555
H12_4 C26_4 1_555 1_555
C27_4 C25_4 1_555 1_555
C28_4 C27_4 1_555 1_555
C49_4 H33_4 1_555 1_555
C50_4 H34_4 1_555 1_555
H35_4 C50_4 1_555 1_555
H36_4 C50_4 1_555 1_555
C51_4 H37_4 1_555 1_555
H38_4 C51_4 1_555 1_555
H39_4 C51_4 1_555 1_555
C52_4 H40_4 1_555 1_555
C53_4 H41_4 1_555 1_555
H42_4 C53_4 1_555 1_555
H43_4 C53_4 1_555 1_555
C54_4 H44_4 1_555 1_555
H45_4 C54_4 1_555 1_555
H46_4 C54_4 1_555 1_555
N3_4 C49_4 1_555 1_555
N4_4 C52_4 1_555 1_555
O1_4 C1_4 1_555 1_555
O2_4 C1_4 1_555 1_555
O7_4 Gd5_2 1_555 1_555
O8_4 Gd3_2 1_555 1_555
O9_4 S2_4 1_555 1_555
O10_4 S2_4 1_555 1_555
O25_2 C28_4 1_555 1_555
O26_2 C28_4 1_555 1_555
O13_4 Gd3_2 1_555 1_555
O14_4 Gd3_2 1_555 1_555
O21_4 Gd3_2 1_555 1_555
O22_4 Gd3_2 1_555 1_555
C6_4 C7_4 1_555 1_555
C15_4 O7_4 1_555 1_555
C15_4 O8_4 1_555 1_555
C20_4 C21_4 1_555 1_555
C22_4 C24_4 1_555 1_555
C26_4 C27_4 1_555 1_555
C49_4 O22_4 1_555 1_555
C50_4 N3_4 1_555 1_555
C51_4 N3_4 1_555 1_555
C52_4 O21_4 1_555 1_555
C53_4 N4_4 1_555 1_555
C54_4 N4_4 1_555 1_555
C22_5 C21_5 1_555 1_555
C23_5 C22_5 1_555 1_555
H10_5 C23_5 1_555 1_555
C24_5 S2_5 1_555 1_555
C25_5 C23_5 1_555 1_555
H11_5 C25_5 1_555 1_555
C26_5 C24_5 1_555 1_555
H12_5 C26_5 1_555 1_555
C27_5 C25_5 1_555 1_555
C28_5 C27_5 1_555 1_555
O9_5 S2_5 1_555 1_555
O10_5 S2_5 1_555 1_555
O11_3 C28_5 1_555 1_555
O12_3 C28_5 1_555 1_555
Gd4_3 O12_3 1_555 1_555
Gd6_2 O11_3 1_555 1_555
C22_5 C24_5 1_555 1_555
C26_5 C27_5 1_555 1_555
Gd4_3 O2_5 1_555 1_555
Gd6_2 O1_5 1_555 1_555
S1_5 C5_5 1_555 1_555
S3_5 C33_5 1_555 1_555
C1_5 C2_5 1_555 1_555
C2_5 C3_5 1_555 1_555
C3_5 H1_5 1_555 1_555
C4_5 C2_5 1_555 1_555
H2_5 C4_5 1_555 1_555
C5_5 C3_5 1_555 1_555
C6_5 C4_5 1_555 1_555
H3_5 C6_5 1_555 1_555
C7_5 C5_5 1_555 1_555
C8_5 C7_5 1_555 1_555
C9_5 S1_5 1_555 1_555
C10_5 C8_5 1_555 1_555
H4_5 C10_5 1_555 1_555
C11_5 C9_5 1_555 1_555
H5_5 C11_5 1_555 1_555
C12_5 C10_5 1_555 1_555
H6_4 C12_5 1_555 1_555
C13_5 C11_5 1_555 1_555
C14_5 C13_5 1_555 1_555
C15_5 C16_5 1_555 1_555
C16_5 C17_5 1_555 1_555
C17_5 H7_5 1_555 1_555
C18_5 C16_5 1_555 1_555
H8_5 C18_5 1_555 1_555
C19_5 C17_5 1_555 1_555
H9_5 C19_5 1_555 1_555
C20_5 C18_5 1_555 1_555
C29_5 C30_5 1_555 1_555
C30_5 C31_5 1_555 1_555
C31_5 H13_5 1_555 1_555
C32_5 C30_5 1_555 1_555
H14_5 C32_5 1_555 1_555
C33_5 C31_5 1_555 1_555
C34_5 C32_5 1_555 1_555
H15_5 C34_5 1_555 1_555
C35_5 C33_5 1_555 1_555
C36_5 C35_5 1_555 1_555
C37_5 S3_5 1_555 1_555
C38_5 C36_5 1_555 1_555
H16_5 C38_5 1_555 1_555
C39_5 C37_5 1_555 1_555
H17_5 C39_5 1_555 1_555
C40_5 C38_5 1_555 1_555
H18_5 C40_5 1_555 1_555
C41_5 C39_5 1_555 1_555
C42_5 C41_5 1_555 1_555
H21_5 C43_5 1_555 1_555
C44_5 H22_5 1_555 1_555
C45_5 H23_5 1_555 1_555
H24_5 C45_5 1_555 1_555
H25_5 C45_5 1_555 1_555
C46_5 H26_5 1_555 1_555
C47_5 H27_5 1_555 1_555
H28_5 C47_5 1_555 1_555
H29_5 C47_5 1_555 1_555
C48_5 H30_5 1_555 1_555
H31_5 C48_5 1_555 1_555
H32_5 C48_5 1_555 1_555
C49_5 H33_5 1_555 1_555
C50_5 H34_5 1_555 1_555
H35_5 C50_5 1_555 1_555
H36_5 C50_5 1_555 1_555
C51_5 H37_5 1_555 1_555
H38_5 C51_5 1_555 1_555
H39_5 C51_5 1_555 1_555
C52_5 H40_5 1_555 1_555
C53_5 H41_5 1_555 1_555
H42_5 C53_5 1_555 1_555
H43_5 C53_5 1_555 1_555
C54_5 H44_5 1_555 1_555
H45_5 C54_5 1_555 1_555
H46_5 C54_5 1_555 1_555
N1_5 C46_5 1_555 1_555
N2_5 C43_5 1_555 1_555
N3_5 C49_5 1_555 1_555
N4_5 C52_5 1_555 1_555
O1_5 C1_5 1_555 1_555
O2_5 C1_5 1_555 1_555
O3_5 S1_5 1_555 1_555
O4_5 S1_5 1_555 1_555
O5_3 C14_5 1_555 1_555
O6_3 C14_5 1_555 1_555
O7_5 Gd6_2 1_555 1_555
O8_5 Gd4_3 1_555 1_555
O13_5 Gd4_3 1_555 1_555
O14_5 Gd4_3 1_555 1_555
O15_5 S3_5 1_555 1_555
O16_5 S3_5 1_555 1_555
O17_3 C42_5 1_555 1_555
O18_3 C42_5 1_555 1_555
O19_5 Gd6_2 1_555 1_555
O20_5 Gd6_2 1_555 1_555
O21_5 Gd4_3 1_555 1_555
O22_5 Gd4_3 1_555 1_555
Gd3_3 O6_3 1_555 1_555
Gd5_3 O5_3 1_555 1_555
Gd7_2 O17_3 1_555 1_555
O23_3 Gd6_2 1_555 1_555
O24_3 Gd4_3 1_555 1_555
O27_3 Gd6_2 1_555 1_555
O28_3 Gd6_2 1_555 1_555
C6_5 C7_5 1_555 1_555
C8_5 C9_5 1_555 1_555
C12_5 C13_5 1_555 1_555
C15_5 O7_5 1_555 1_555
C15_5 O8_5 1_555 1_555
C29_5 O13_5 1_555 1_555
C29_5 O14_5 1_555 1_555
C34_5 C35_5 1_555 1_555
C36_5 C37_5 1_555 1_555
C40_5 C41_5 1_555 1_555
C44_5 N2_5 1_555 1_555
C44_5 O19_5 1_555 1_555
C45_5 N2_5 1_555 1_555
C46_5 O20_5 1_555 1_555
C47_5 N1_5 1_555 1_555
C48_5 N1_5 1_555 1_555
C49_5 O22_5 1_555 1_555
C50_5 N3_5 1_555 1_555
C51_5 N3_5 1_555 1_555
C52_5 O21_5 1_555 1_555
C53_5 N4_5 1_555 1_555
C54_5 N4_5 1_555 1_555
O18_3 Gd7_2 1_555 1_555
Gd4_4 O2_6 1_555 1_555
Gd7_2 O1_6 1_555 1_555
S2_6 C20_6 1_555 1_555
C1_6 C2_6 1_555 1_555
C2_6 C3_6 1_555 1_555
C4_6 C2_6 1_555 1_555
H2_6 C4_6 1_555 1_555
C5_6 C3_6 1_555 1_555
C6_6 C4_6 1_555 1_555
H3_6 C6_6 1_555 1_555
C7_6 C5_6 1_555 1_555
C8_6 C7_6 1_555 1_555
C10_6 C8_6 1_555 1_555
H4_6 C10_6 1_555 1_555
C12_6 C10_6 1_555 1_555
H6_5 C12_6 1_555 1_555
C15_6 C16_6 1_555 1_555
C16_6 C17_6 1_555 1_555
C17_6 H7_6 1_555 1_555
C18_6 C16_6 1_555 1_555
H8_6 C18_6 1_555 1_555
C19_6 C17_6 1_555 1_555
H9_6 C19_6 1_555 1_555
C20_6 C18_6 1_555 1_555
C21_6 C19_6 1_555 1_555
C22_6 C21_6 1_555 1_555
C23_6 C22_6 1_555 1_555
H10_6 C23_6 1_555 1_555
C24_6 S2_6 1_555 1_555
C25_6 C23_6 1_555 1_555
H11_6 C25_6 1_555 1_555
C26_6 C24_6 1_555 1_555
H12_6 C26_6 1_555 1_555
C27_6 C25_6 1_555 1_555
C28_6 C27_6 1_555 1_555
C49_6 H33_6 1_555 1_555
C50_6 H34_6 1_555 1_555
H35_6 C50_6 1_555 1_555
H36_6 C50_6 1_555 1_555
C51_6 H37_6 1_555 1_555
H38_6 C51_6 1_555 1_555
H39_6 C51_6 1_555 1_555
C52_6 H40_6 1_555 1_555
C53_6 H41_6 1_555 1_555
H42_6 C53_6 1_555 1_555
H43_6 C53_6 1_555 1_555
C54_6 H44_6 1_555 1_555
H45_6 C54_6 1_555 1_555
H46_6 C54_6 1_555 1_555
N3_6 C49_6 1_555 1_555
N4_6 C52_6 1_555 1_555
O1_6 C1_6 1_555 1_555
O2_6 C1_6 1_555 1_555
O7_6 Gd7_2 1_555 1_555
O8_6 Gd4_4 1_555 1_555
O9_6 S2_6 1_555 1_555
O10_6 S2_6 1_555 1_555
O11_4 C28_6 1_555 1_555
O12_4 C28_6 1_555 1_555
O13_6 Gd4_4 1_555 1_555
O14_6 Gd4_4 1_555 1_555
O21_6 Gd4_4 1_555 1_555
O22_6 Gd4_4 1_555 1_555
O23_4 Gd7_2 1_555 1_555
O24_4 Gd4_4 1_555 1_555
C6_6 C7_6 1_555 1_555
C15_6 O7_6 1_555 1_555
C15_6 O8_6 1_555 1_555
C20_6 C21_6 1_555 1_555
C22_6 C24_6 1_555 1_555
C26_6 C27_6 1_555 1_555
C49_6 O22_6 1_555 1_555
C50_6 N3_6 1_555 1_555
C51_6 N3_6 1_555 1_555
C52_6 O21_6 1_555 1_555
C53_6 N4_6 1_555 1_555
C54_6 N4_6 1_555 1_555
S3_6 C33_6 1_555 1_555
C9_6 S1_6 1_555 1_555
C11_6 C9_6 1_555 1_555
H5_6 C11_6 1_555 1_555
C13_6 C11_6 1_555 1_555
C14_6 C13_6 1_555 1_555
C29_6 C30_6 1_555 1_555
C30_6 C31_6 1_555 1_555
C31_6 H13_6 1_555 1_555
C32_6 C30_6 1_555 1_555
H14_6 C32_6 1_555 1_555
C33_6 C31_6 1_555 1_555
C34_6 C32_6 1_555 1_555
H15_6 C34_6 1_555 1_555
C35_6 C33_6 1_555 1_555
C36_6 C35_6 1_555 1_555
C37_6 S3_6 1_555 1_555
C38_6 C36_6 1_555 1_555
H16_6 C38_6 1_555 1_555
C39_6 C37_6 1_555 1_555
H17_6 C39_6 1_555 1_555
C40_6 C38_6 1_555 1_555
H18_6 C40_6 1_555 1_555
C41_6 C39_6 1_555 1_555
C43_6 H19_5 1_555 1_555
H21_6 C43_6 1_555 1_555
C44_6 H22_6 1_555 1_555
C45_6 H23_6 1_555 1_555
H24_6 C45_6 1_555 1_555
H25_6 C45_6 1_555 1_555
C46_6 H26_6 1_555 1_555
C47_6 H27_6 1_555 1_555
H28_6 C47_6 1_555 1_555
H29_6 C47_6 1_555 1_555
C48_6 H30_6 1_555 1_555
H31_6 C48_6 1_555 1_555
H32_6 C48_6 1_555 1_555
N1_6 C46_6 1_555 1_555
N2_6 C43_6 1_555 1_555
O4_6 S1_6 1_555 1_555
O5_4 C14_6 1_555 1_555
O6_4 C14_6 1_555 1_555
O15_6 S3_6 1_555 1_555
O16_6 S3_6 1_555 1_555
Gd3_4 O6_4 1_555 1_555
Gd5_4 O5_4 1_555 1_555
C34_6 C35_6 1_555 1_555
C36_6 C37_6 1_555 1_555
C40_6 C41_6 1_555 1_555
C44_6 N2_6 1_555 1_555
C44_6 O19_6 1_555 1_555
C45_6 N2_6 1_555 1_555
C46_6 O20_6 1_555 1_555
C47_6 N1_6 1_555 1_555
C48_6 N1_6 1_555 1_555
O27_3 C42_6 1_555 1_555
O28_3 C42_6 1_555 1_555
C14_7 C13_7 1_555 1_555
O23_3 C14_7 1_555 1_555
O24_3 C14_7 1_555 1_555
Gd3_3 O2_7 1_555 1_555
Gd5_3 O1_7 1_555 1_555
S1_7 C5_7 1_555 1_555
S3_7 C33_7 1_555 1_555
C1_7 C2_7 1_555 1_555
C2_7 C3_7 1_555 1_555
C3_7 H1_7 1_555 1_555
C4_7 C2_7 1_555 1_555
H2_7 C4_7 1_555 1_555
C5_7 C3_7 1_555 1_555
C6_7 C4_7 1_555 1_555
H3_7 C6_7 1_555 1_555
C7_7 C5_7 1_555 1_555
C8_7 C7_7 1_555 1_555
C9_7 S1_7 1_555 1_555
C10_7 C8_7 1_555 1_555
H4_7 C10_7 1_555 1_555
C11_7 C9_7 1_555 1_555
C12_7 C10_7 1_555 1_555
C15_7 C16_7 1_555 1_555
C16_7 C17_7 1_555 1_555
C17_7 H7_7 1_555 1_555
C18_7 C16_7 1_555 1_555
H8_7 C18_7 1_555 1_555
C19_7 C17_7 1_555 1_555
H9_7 C19_7 1_555 1_555
C20_7 C18_7 1_555 1_555
C29_7 C30_7 1_555 1_555
C30_7 C31_7 1_555 1_555
C31_7 H13_7 1_555 1_555
C32_7 C30_7 1_555 1_555
H14_7 C32_7 1_555 1_555
C33_7 C31_7 1_555 1_555
C34_7 C32_7 1_555 1_555
H15_7 C34_7 1_555 1_555
C35_7 C33_7 1_555 1_555
C36_7 C35_7 1_555 1_555
C37_7 S3_7 1_555 1_555
C38_7 C36_7 1_555 1_555
H16_7 C38_7 1_555 1_555
C39_7 C37_7 1_555 1_555
H17_7 C39_7 1_555 1_555
C40_7 C38_7 1_555 1_555
H18_7 C40_7 1_555 1_555
C41_7 C39_7 1_555 1_555
C42_7 C41_7 1_555 1_555
H20_3 C43_7 1_555 1_555
H21_7 C43_7 1_555 1_555
C44_7 H22_7 1_555 1_555
C45_7 H23_7 1_555 1_555
H24_7 C45_7 1_555 1_555
H25_7 C45_7 1_555 1_555
C46_7 H26_7 1_555 1_555
C47_7 H27_7 1_555 1_555
H28_7 C47_7 1_555 1_555
H29_7 C47_7 1_555 1_555
C48_7 H30_7 1_555 1_555
H31_7 C48_7 1_555 1_555
H32_7 C48_7 1_555 1_555
C49_7 H33_7 1_555 1_555
C50_7 H34_7 1_555 1_555
H35_7 C50_7 1_555 1_555
H36_7 C50_7 1_555 1_555
C51_7 H37_7 1_555 1_555
H38_7 C51_7 1_555 1_555
H39_7 C51_7 1_555 1_555
C52_7 H40_7 1_555 1_555
C53_7 H41_7 1_555 1_555
H42_7 C53_7 1_555 1_555
H43_7 C53_7 1_555 1_555
C54_7 H44_7 1_555 1_555
H45_7 C54_7 1_555 1_555
H46_7 C54_7 1_555 1_555
N1_7 C46_7 1_555 1_555
N2_7 C43_7 1_555 1_555
N3_7 C49_7 1_555 1_555
N4_7 C52_7 1_555 1_555
O1_7 C1_7 1_555 1_555
O2_7 C1_7 1_555 1_555
O3_7 S1_7 1_555 1_555
O4_7 S1_7 1_555 1_555
O7_7 Gd5_3 1_555 1_555
O8_7 Gd3_3 1_555 1_555
O13_7 Gd3_3 1_555 1_555
O14_7 Gd3_3 1_555 1_555
O15_7 S3_7 1_555 1_555
O16_7 S3_7 1_555 1_555
O17_4 C42_7 1_555 1_555
O18_4 C42_7 1_555 1_555
O19_7 Gd5_3 1_555 1_555
O20_7 Gd5_3 1_555 1_555
O21_7 Gd3_3 1_555 1_555
O22_7 Gd3_3 1_555 1_555
Gd5_4 O17_4 1_555 1_555
O25_3 Gd5_3 1_555 1_555
O26_3 Gd3_3 1_555 1_555
O27_4 Gd5_3 1_555 1_555
O28_4 Gd5_3 1_555 1_555
C6_7 C7_7 1_555 1_555
C8_7 C9_7 1_555 1_555
C15_7 O7_7 1_555 1_555
C15_7 O8_7 1_555 1_555
C29_7 O13_7 1_555 1_555
C29_7 O14_7 1_555 1_555
C34_7 C35_7 1_555 1_555
C36_7 C37_7 1_555 1_555
C40_7 C41_7 1_555 1_555
C44_7 N2_7 1_555 1_555
C44_7 O19_7 1_555 1_555
C45_7 N2_7 1_555 1_555
C46_7 O20_7 1_555 1_555
C47_7 N1_7 1_555 1_555
C48_7 N1_7 1_555 1_555
C49_7 O22_7 1_555 1_555
C50_7 N3_7 1_555 1_555
C51_7 N3_7 1_555 1_555
C52_7 O21_7 1_555 1_555
C53_7 N4_7 1_555 1_555
C54_7 N4_7 1_555 1_555
O18_4 Gd5_4 1_555 1_555
C22_7 C21_7 1_555 1_555
C23_7 C22_7 1_555 1_555
H10_7 C23_7 1_555 1_555
C24_7 S2_7 1_555 1_555
C25_7 C23_7 1_555 1_555
H11_7 C25_7 1_555 1_555
C26_7 C24_7 1_555 1_555
H12_7 C26_7 1_555 1_555
C27_7 C25_7 1_555 1_555
C28_7 C27_7 1_555 1_555
O9_7 S2_7 1_555 1_555
O10_7 S2_7 1_555 1_555
O25_3 C28_7 1_555 1_555
O26_3 C28_7 1_555 1_555
C22_7 C24_7 1_555 1_555
C26_7 C27_7 1_555 1_555
C14_8 C13_8 1_555 1_555
O23_4 C14_8 1_555 1_555
O24_4 C14_8 1_555 1_555
S3_8 C33_8 1_555 1_555
C9_8 S1_8 1_555 1_555
C11_8 C9_8 1_555 1_555
C29_8 C30_8 1_555 1_555
C30_8 C31_8 1_555 1_555
C31_8 H13_8 1_555 1_555
C32_8 C30_8 1_555 1_555
H14_8 C32_8 1_555 1_555
C33_8 C31_8 1_555 1_555
C34_8 C32_8 1_555 1_555
H15_8 C34_8 1_555 1_555
C35_8 C33_8 1_555 1_555
C36_8 C35_8 1_555 1_555
C37_8 S3_8 1_555 1_555
C38_8 C36_8 1_555 1_555
H16_8 C38_8 1_555 1_555
C39_8 C37_8 1_555 1_555
H17_8 C39_8 1_555 1_555
C40_8 C38_8 1_555 1_555
H18_8 C40_8 1_555 1_555
C41_8 C39_8 1_555 1_555
C43_8 H19_6 1_555 1_555
H20_4 C43_8 1_555 1_555
H21_8 C43_8 1_555 1_555
C44_8 H22_8 1_555 1_555
C45_8 H23_8 1_555 1_555
H24_8 C45_8 1_555 1_555
H25_8 C45_8 1_555 1_555
C46_8 H26_8 1_555 1_555
C47_8 H27_8 1_555 1_555
H28_8 C47_8 1_555 1_555
H29_8 C47_8 1_555 1_555
C48_8 H30_8 1_555 1_555
H31_8 C48_8 1_555 1_555
H32_8 C48_8 1_555 1_555
N1_8 C46_8 1_555 1_555
N2_8 C43_8 1_555 1_555
O4_8 S1_8 1_555 1_555
O15_8 S3_8 1_555 1_555
O16_8 S3_8 1_555 1_555
C34_8 C35_8 1_555 1_555
C36_8 C37_8 1_555 1_555
C40_8 C41_8 1_555 1_555
C44_8 N2_8 1_555 1_555
C44_8 O19_8 1_555 1_555
C45_8 N2_8 1_555 1_555
C46_8 O20_8 1_555 1_555
C47_8 N1_8 1_555 1_555
C48_8 N1_8 1_555 1_555
Gd3_4 O2_8 1_555 1_555
Gd5_4 O1_8 1_555 1_555
S2_8 C20_8 1_555 1_555
C1_8 C2_8 1_555 1_555
C2_8 C3_8 1_555 1_555
C4_8 C2_8 1_555 1_555
H2_8 C4_8 1_555 1_555
C5_8 C3_8 1_555 1_555
C6_8 C4_8 1_555 1_555
H3_8 C6_8 1_555 1_555
C7_8 C5_8 1_555 1_555
C8_8 C7_8 1_555 1_555
C10_8 C8_8 1_555 1_555
H4_8 C10_8 1_555 1_555
C12_8 C10_8 1_555 1_555
C15_8 C16_8 1_555 1_555
C16_8 C17_8 1_555 1_555
C17_8 H7_8 1_555 1_555
C18_8 C16_8 1_555 1_555
H8_8 C18_8 1_555 1_555
C19_8 C17_8 1_555 1_555
H9_8 C19_8 1_555 1_555
C20_8 C18_8 1_555 1_555
C21_8 C19_8 1_555 1_555
C22_8 C21_8 1_555 1_555
C23_8 C22_8 1_555 1_555
H10_8 C23_8 1_555 1_555
C24_8 S2_8 1_555 1_555
C25_8 C23_8 1_555 1_555
H11_8 C25_8 1_555 1_555
C26_8 C24_8 1_555 1_555
H12_8 C26_8 1_555 1_555
C27_8 C25_8 1_555 1_555
C28_8 C27_8 1_555 1_555
C49_8 H33_8 1_555 1_555
C50_8 H34_8 1_555 1_555
H35_8 C50_8 1_555 1_555
H36_8 C50_8 1_555 1_555
C51_8 H37_8 1_555 1_555
H38_8 C51_8 1_555 1_555
H39_8 C51_8 1_555 1_555
C52_8 H40_8 1_555 1_555
C53_8 H41_8 1_555 1_555
H42_8 C53_8 1_555 1_555
H43_8 C53_8 1_555 1_555
C54_8 H44_8 1_555 1_555
H45_8 C54_8 1_555 1_555
H46_8 C54_8 1_555 1_555
N3_8 C49_8 1_555 1_555
N4_8 C52_8 1_555 1_555
O1_8 C1_8 1_555 1_555
O2_8 C1_8 1_555 1_555
O7_8 Gd5_4 1_555 1_555
O8_8 Gd3_4 1_555 1_555
O9_8 S2_8 1_555 1_555
O10_8 S2_8 1_555 1_555
O25_4 C28_8 1_555 1_555
O26_4 C28_8 1_555 1_555
O13_8 Gd3_4 1_555 1_555
O14_8 Gd3_4 1_555 1_555
O21_8 Gd3_4 1_555 1_555
O22_8 Gd3_4 1_555 1_555
C6_8 C7_8 1_555 1_555
C15_8 O7_8 1_555 1_555
C15_8 O8_8 1_555 1_555
C20_8 C21_8 1_555 1_555
C22_8 C24_8 1_555 1_555
C26_8 C27_8 1_555 1_555
C49_8 O22_8 1_555 1_555
C50_8 N3_8 1_555 1_555
C51_8 N3_8 1_555 1_555
C52_8 O21_8 1_555 1_555
C53_8 N4_8 1_555 1_555
C54_8 N4_8 1_555 1_555
O27_4 C42_8 1_555 1_555
O28_4 C42_8 1_555 1_555

#END
