
###############################################################################
#
# This file contains modified crystal structure data generated from the
# MOF subset of the Cambridge Structural Database (CSD) v543 
# hosted by the Cambridge Crystallographic Data Centre (CCDC).
#
# This work is licensed under the Creative Commons
# Attribution-NonCommercial-ShareAlike 4.0 International License.
# To view a copy of this license, visit
# http://creativecommons.org/licenses/by-nc-sa/4.0/
# or send a letter to
# Creative Commons, PO Box 1866, Mountain View, CA 94042, USA.
#
# CIF created using the CSD Python API on 29 September 2022
# The structure has been converted into the P1 space group
# The structure has a 3D framework
# The original CSD entry PUDSIR01 is in the monoclinic crystal system
# The framework has been calculated to contain at least 10.0% void space
# The void calculation uses a probe of radius 1.32A, grid spacing 0.4
#
###############################################################################

data_PUDSIR01
_chemical_formula_moiety         '(C432 H368 Eu16 N32 O176 S24)n'
_symmetry_cell_setting           triclinic
_symmetry_space_group_name_H-M   'P 1'
_symmetry_Int_Tables_number      1
_space_group_name_Hall           'P 1'
loop_
_symmetry_equiv_pos_site_id
_symmetry_equiv_pos_as_xyz
1 x,y,z
_cell_length_a                   35.0409(17)
_cell_length_b                   14.9178(7)
_cell_length_c                   30.1429(14)
_cell_angle_alpha                90
_cell_angle_beta                 98.3860(10)
_cell_angle_gamma                90
_cell_volume                     15588.2
loop_
_atom_site_label
_atom_site_type_symbol
_atom_site_fract_x
_atom_site_fract_y
_atom_site_fract_z
S2 S 0.20291(3) 0.04035(7) 0.35126(5)
C21 C 0.13000(13) 0.0100(3) 0.34958(19)
C22 C 0.13468(12) 0.1090(3) 0.35143(18)
C23 C 0.10683(14) 0.1725(3) 0.3506(2)
H10 H 0.0810 0.1566 0.3489
C24 C 0.17314(12) 0.1340(3) 0.35383(16)
C25 C 0.11813(13) 0.2621(3) 0.3523(2)
H11 H 0.0994 0.3063 0.3521
C26 C 0.18454(12) 0.2225(3) 0.35596(15)
H12 H 0.2105 0.2379 0.3584
C27 C 0.15653(12) 0.2876(2) 0.35441(14)
C28 C 0.16646(11) 0.3854(2) 0.35338(13)
O9 O 0.21809(12) 0.0394(3) 0.30887(16)
O10 O 0.22962(11) 0.0302(2) 0.39107(17)
O11 O 0.13953(8) 0.44112(17) 0.34991(10)
O12 O 0.20120(8) 0.40676(18) 0.35627(11)
Eu4 Eu 0.208881(5) 0.570767(12) 0.357284(6)
Eu6 Eu 0.085915(5) 0.531736(12) 0.343016(6)
S1 S 0.09355(3) 0.46720(10) 0.09154(4)
S3 S 0.40332(3) 0.30040(10) 0.40205(4)
C1 C 0.14089(12) 0.5600(3) 0.26120(12)
C2 C 0.14488(12) 0.5599(3) 0.21213(12)
C3 C 0.11660(12) 0.5211(3) 0.18073(13)
H1 H 0.0943 0.4968 0.1892
C4 C 0.17744(12) 0.5972(4) 0.19837(14)
H2 H 0.1962 0.6227 0.2196
C5 C 0.12287(11) 0.5201(3) 0.13688(13)
C6 C 0.18250(12) 0.5971(4) 0.15378(14)
H3 H 0.2040 0.6243 0.1449
C7 C 0.15553(12) 0.5567(3) 0.12275(13)
C8 C 0.15646(12) 0.5420(3) 0.07442(13)
C9 C 0.12510(11) 0.4949(3) 0.05316(13)
C10 C 0.18566(13) 0.5677(3) 0.05011(14)
H4 H 0.2068 0.6007 0.0635
C11 C 0.12143(12) 0.4703(3) 0.00866(13)
C12 C 0.18231(12) 0.5426(3) 0.00568(13)
C15 C 0.13272(12) 0.7239(2) 0.34902(13)
C16 C 0.13245(12) 0.8249(3) 0.34839(14)
C17 C 0.09784(15) 0.8703(3) 0.3466(2)
H7 H 0.0752 0.8372 0.3453
C18 C 0.16657(12) 0.8729(3) 0.35052(15)
H8 H 0.1902 0.8439 0.3520
C19 C 0.09552(15) 0.9603(3) 0.3464(2)
H9 H 0.0718 0.9889 0.3443
C20 C 0.16415(12) 0.9643(3) 0.35041(17)
C29 C 0.27639(11) 0.4826(3) 0.34049(16)
C30 C 0.31010(12) 0.4251(3) 0.33322(15)
C31 C 0.33543(12) 0.3956(3) 0.36964(15)
H13 H 0.3319 0.4103 0.3987
C32 C 0.31556(13) 0.4010(4) 0.29014(16)
H14 H 0.2980 0.4204 0.2659
C33 C 0.36640(12) 0.3432(3) 0.36136(14)
C34 C 0.34669(13) 0.3486(4) 0.28247(16)
H15 H 0.3501 0.3333 0.2534
C35 C 0.37251(11) 0.3198(3) 0.31843(14)
C36 C 0.40811(11) 0.2663(3) 0.31842(14)
C37 C 0.42800(11) 0.2512(3) 0.36085(13)
C38 C 0.42309(11) 0.2320(3) 0.28185(13)
H16 H 0.4104 0.2417 0.2529
C39 C 0.46170(12) 0.2037(3) 0.36870(14)
H17 H 0.4742 0.1943 0.3977
C40 C 0.45678(11) 0.1838(3) 0.28863(13)
H18 H 0.4666 0.1598 0.2641
C41 C 0.47654(10) 0.1701(3) 0.33181(13)
C42 C 0.51372(10) 0.1185(3) 0.33809(13)
C43 C 0.0176(3) 0.3679(7) 0.4856(3)
H20 H 0.0325 0.3750 0.5147
H21 H 0.0038 0.3121 0.4844
C44 C 0.03987(15) 0.4240(4) 0.41970(17)
H22 H 0.0216 0.4692 0.4193
C45 C 0.0733(3) 0.2999(7) 0.4568(3)
H23 H 0.0959 0.3243 0.4467
H24 H 0.0646 0.2484 0.4390
H25 H 0.0794 0.2825 0.4877
C46 C 0.04642(15) 0.4162(4) 0.25350(19)
H26 H 0.0369 0.4724 0.2442
C47 C 0.0254(3) 0.3657(6) 0.1771(3)
H27 H 0.0166 0.4265 0.1730
H28 H 0.0039 0.3256 0.1706
H29 H 0.0438 0.3534 0.1573
C48 C 0.0588(3) 0.2637(6) 0.2378(3)
H30 H 0.0694 0.2659 0.2690
H31 H 0.0787 0.2471 0.2205
H32 H 0.0385 0.2201 0.2333
C49 C 0.25604(18) 0.7110(5) 0.2953(2)
H33 H 0.2576 0.6628 0.2760
C50 C 0.2787(5) 0.8583(9) 0.3138(5)
H34 H 0.2567 0.8627 0.3293
H35 H 0.2809 0.9121 0.2969
H36 H 0.3016 0.8503 0.3351
C51 C 0.2906(4) 0.7865(9) 0.2430(5)
H37 H 0.2806 0.7369 0.2245
H38 H 0.3182 0.7817 0.2496
H39 H 0.2839 0.8416 0.2273
C52 C 0.2702(4) 0.6799(8) 0.4328(5)
H40 H 0.2885 0.6343 0.4344
C53 C 0.2525(4) 0.8310(8) 0.4540(5)
H41 H 0.2645 0.8858 0.4654
H42 H 0.2351 0.8107 0.4736
H43 H 0.2386 0.8413 0.4246
C54 C 0.3161(4) 0.8052(8) 0.4394(5)
H44 H 0.3197 0.8630 0.4535
H45 H 0.3134 0.8121 0.4075
H46 H 0.3380 0.7681 0.4494
N1 N 0.04332(15) 0.3529(3) 0.22305(16)
N2 N 0.04266(15) 0.3679(3) 0.45231(15)
N3 N 0.27404(15) 0.7853(4) 0.28475(18)
N4 N 0.2817(4) 0.7638(8) 0.4515(4)
O1 O 0.10812(8) 0.5467(2) 0.27166(9)
O2 O 0.17111(9) 0.5714(2) 0.28760(9)
O3 O 0.05676(9) 0.5111(4) 0.08095(11)
O4 O 0.09309(14) 0.3722(3) 0.09817(12)
O7 O 0.10143(9) 0.68429(17) 0.33792(9)
O8 O 0.16441(9) 0.68716(19) 0.36077(11)
O13 O 0.27279(8) 0.5054(2) 0.37961(11)
O14 O 0.25209(8) 0.5032(2) 0.30738(11)
O15 O 0.42560(11) 0.3716(3) 0.42445(13)
O16 O 0.38891(11) 0.2343(3) 0.42975(12)
O17 O 0.53328(8) 0.1136(2) 0.37620(9)
O18 O 0.52438(8) 0.0828(2) 0.30430(9)
O19 O 0.05944(10) 0.4229(2) 0.38867(12)
O20 O 0.06069(9) 0.4089(2) 0.29314(11)
O21 O 0.24084(11) 0.6655(3) 0.41651(13)
O22 O 0.23931(11) 0.6975(3) 0.32366(14)
Eu7 Eu 0.585915(5) 0.031736(12) 0.343016(6)
O23 O 0.11873(8) 0.5600(2) 0.41591(8)
O24 O 0.18208(8) 0.5351(2) 0.42268(9)
O27 O 0.03328(8) 0.6136(2) 0.37620(9)
O28 O 0.02438(8) 0.5828(2) 0.30430(9)
H5 H 0.0998 0.4394 0.9950
H6 H 0.2015 0.5591 0.9891
C13 C 0.15112(11) 0.4933(3) 0.98504(12)
C14 C 0.15075(11) 0.4629(3) 0.93704(12)
O5 O 0.11873(8) 0.4400(2) 0.91591(8)
O6 O 0.18208(8) 0.4649(2) 0.92268(9)
Eu3 Eu 0.208881(5) 0.429233(12) 0.857284(6)
Eu5 Eu 0.085915(5) 0.468264(12) 0.843016(6)
C42_2 C 0.01372(10) 0.6185(3) 0.33809(13)
Eu4_2 Eu 0.708881(5) 0.070767(12) 0.357284(6)
S2_2 S 0.70291(3) 0.54035(7) 0.35126(5)
C1_2 C 0.64089(12) 0.0600(3) 0.26120(12)
C2_2 C 0.64488(12) 0.0599(3) 0.21213(12)
C3_2 C 0.61660(12) 0.0211(3) 0.18073(13)
C4_2 C 0.67744(12) 0.0972(4) 0.19837(14)
H2_2 H 0.6962 0.1227 0.2196
C5_2 C 0.62287(11) 0.0201(3) 0.13688(13)
C6_2 C 0.68250(12) 0.0971(4) 0.15378(14)
H3_2 H 0.7040 0.1243 0.1449
C7_2 C 0.65553(12) 0.0567(3) 0.12275(13)
C8_2 C 0.65646(12) 0.0420(3) 0.07442(13)
C10_2 C 0.68566(13) 0.0677(3) 0.05011(14)
H4_2 H 0.7068 0.1007 0.0635
C12_2 C 0.68231(12) 0.0426(3) 0.00568(13)
C15_2 C 0.63272(12) 0.2239(2) 0.34902(13)
C16_2 C 0.63245(12) 0.3249(3) 0.34839(14)
C17_2 C 0.59784(15) 0.3703(3) 0.3466(2)
H7_2 H 0.5752 0.3372 0.3453
C18_2 C 0.66657(12) 0.3729(3) 0.35052(15)
H8_2 H 0.6902 0.3439 0.3520
C19_2 C 0.59552(15) 0.4603(3) 0.3464(2)
H9_2 H 0.5718 0.4889 0.3443
C20_2 C 0.66415(12) 0.4643(3) 0.35041(17)
C21_2 C 0.63000(13) 0.5100(3) 0.34958(19)
C22_2 C 0.63468(12) 0.6090(3) 0.35143(18)
C23_2 C 0.60683(14) 0.6725(3) 0.3506(2)
H10_2 H 0.5810 0.6566 0.3489
C24_2 C 0.67314(12) 0.6340(3) 0.35383(16)
C25_2 C 0.61813(13) 0.7621(3) 0.3523(2)
H11_2 H 0.5994 0.8063 0.3521
C26_2 C 0.68454(12) 0.7225(3) 0.35596(15)
H12_2 H 0.7105 0.7379 0.3584
C27_2 C 0.65653(12) 0.7876(2) 0.35441(14)
C28_2 C 0.66646(11) 0.8854(2) 0.35338(13)
C49_2 C 0.75604(18) 0.2110(5) 0.2953(2)
H33_2 H 0.7576 0.1628 0.2760
C50_2 C 0.7787(5) 0.3583(9) 0.3138(5)
H34_2 H 0.7567 0.3627 0.3293
H35_2 H 0.7809 0.4121 0.2969
H36_2 H 0.8016 0.3503 0.3351
C51_2 C 0.7906(4) 0.2865(9) 0.2430(5)
H37_2 H 0.7806 0.2369 0.2245
H38_2 H 0.8182 0.2817 0.2496
H39_2 H 0.7839 0.3416 0.2273
C52_2 C 0.7702(4) 0.1799(8) 0.4328(5)
H40_2 H 0.7885 0.1343 0.4344
C53_2 C 0.7525(4) 0.3310(8) 0.4540(5)
H41_2 H 0.7645 0.3858 0.4654
H42_2 H 0.7351 0.3107 0.4736
H43_2 H 0.7386 0.3413 0.4246
C54_2 C 0.8161(4) 0.3052(8) 0.4394(5)
H44_2 H 0.8197 0.3630 0.4535
H45_2 H 0.8134 0.3121 0.4075
H46_2 H 0.8380 0.2681 0.4494
N3_2 N 0.77404(15) 0.2853(4) 0.28475(18)
N4_2 N 0.7817(4) 0.2638(8) 0.4515(4)
O1_2 O 0.60812(8) 0.0467(2) 0.27166(9)
O2_2 O 0.67111(9) 0.0714(2) 0.28760(9)
O3_2 O 0.55676(9) 0.0111(4) 0.08095(11)
O7_2 O 0.60143(9) 0.18429(17) 0.33792(9)
O8_2 O 0.66441(9) 0.18716(19) 0.36077(11)
O9_2 O 0.71809(12) 0.5394(3) 0.30887(16)
O10_2 O 0.72962(11) 0.5302(2) 0.39107(17)
O11_2 O 0.63953(8) 0.94112(17) 0.34991(10)
O12_2 O 0.70120(8) 0.90676(18) 0.35627(11)
O13_2 O 0.77279(8) 0.0054(2) 0.37961(11)
O14_2 O 0.75209(8) 0.0032(2) 0.30738(11)
O21_2 O 0.74084(11) 0.1655(3) 0.41651(13)
O22_2 O 0.73931(11) 0.1975(3) 0.32366(14)
O23_2 O 0.61873(8) 0.0600(2) 0.41591(8)
O24_2 O 0.68208(8) 0.0351(2) 0.42268(9)
S1_2 S 0.59355(3) 0.96720(10) 0.09154(4)
S3_2 S 0.90332(3) 0.80040(10) 0.40205(4)
H1_2 H 0.5943 0.9968 0.1892
C9_2 C 0.62510(11) 0.9949(3) 0.05316(13)
C11_2 C 0.62143(12) 0.9703(3) 0.00866(13)
C29_2 C 0.77639(11) 0.9826(3) 0.34049(16)
C30_2 C 0.81010(12) 0.9251(3) 0.33322(15)
C31_2 C 0.83543(12) 0.8956(3) 0.36964(15)
H13_2 H 0.8319 0.9103 0.3987
C32_2 C 0.81556(13) 0.9010(4) 0.29014(16)
H14_2 H 0.7980 0.9204 0.2659
C33_2 C 0.86640(12) 0.8432(3) 0.36136(14)
C34_2 C 0.84669(13) 0.8486(4) 0.28247(16)
H15_2 H 0.8501 0.8333 0.2534
C35_2 C 0.87251(11) 0.8198(3) 0.31843(14)
C36_2 C 0.90811(11) 0.7663(3) 0.31842(14)
C37_2 C 0.92800(11) 0.7512(3) 0.36085(13)
C38_2 C 0.92309(11) 0.7320(3) 0.28185(13)
H16_2 H 0.9104 0.7417 0.2529
C39_2 C 0.96170(12) 0.7037(3) 0.36870(14)
H17_2 H 0.9742 0.6943 0.3977
C40_2 C 0.95678(11) 0.6838(3) 0.28863(13)
H18_2 H 0.9666 0.6598 0.2641
C41_2 C 0.97654(10) 0.6701(3) 0.33181(13)
C43_2 C 0.5176(3) 0.8679(7) 0.4856(3)
H19 H 0.4995 0.9164 0.4800
H20_2 H 0.5325 0.8750 0.5147
H21_2 H 0.5038 0.8121 0.4844
C44_2 C 0.53987(15) 0.9240(4) 0.41970(17)
H22_2 H 0.5216 0.9692 0.4193
C45_2 C 0.5733(3) 0.7999(7) 0.4568(3)
H23_2 H 0.5959 0.8243 0.4467
H24_2 H 0.5646 0.7484 0.4390
H25_2 H 0.5794 0.7825 0.4877
C46_2 C 0.54642(15) 0.9162(4) 0.25350(19)
H26_2 H 0.5369 0.9724 0.2442
C47_2 C 0.5254(3) 0.8657(6) 0.1771(3)
H27_2 H 0.5166 0.9265 0.1730
H28_2 H 0.5039 0.8256 0.1706
H29_2 H 0.5438 0.8534 0.1573
C48_2 C 0.5588(3) 0.7637(6) 0.2378(3)
H30_2 H 0.5694 0.7659 0.2690
H31_2 H 0.5787 0.7471 0.2205
H32_2 H 0.5385 0.7201 0.2333
N1_2 N 0.54332(15) 0.8529(3) 0.22305(16)
N2_2 N 0.54266(15) 0.8679(3) 0.45231(15)
O4_2 O 0.59309(14) 0.8722(3) 0.09817(12)
O15_2 O 0.92560(11) 0.8716(3) 0.42445(13)
O16_2 O 0.88891(11) 0.7343(3) 0.42975(12)
O19_2 O 0.55944(10) 0.9229(2) 0.38867(12)
O20_2 O 0.56069(9) 0.9089(2) 0.29314(11)
H5_2 H 0.5998 0.9394 0.9950
C13_2 C 0.65112(11) 0.9933(3) 0.98504(12)
C14_2 C 0.65075(11) 0.9629(3) 0.93704(12)
O5_2 O 0.61873(8) 0.9400(2) 0.91591(8)
O6_2 O 0.68208(8) 0.9649(2) 0.92268(9)
Eu3_2 Eu 0.708881(5) 0.929233(12) 0.857284(6)
Eu5_2 Eu 0.585915(5) 0.968264(12) 0.843016(6)
S1_3 S 0.09355(3) 0.53280(10) 0.59154(4)
S3_3 S 0.40332(3) 0.69960(10) 0.90205(4)
C1_3 C 0.14089(12) 0.4400(3) 0.76120(12)
C2_3 C 0.14488(12) 0.4401(3) 0.71213(12)
C3_3 C 0.11660(12) 0.4789(3) 0.68073(13)
H1_3 H 0.0943 0.5032 0.6892
C4_3 C 0.17744(12) 0.4028(4) 0.69837(14)
H2_3 H 0.1962 0.3773 0.7196
C5_3 C 0.12287(11) 0.4799(3) 0.63688(13)
C6_3 C 0.18250(12) 0.4029(4) 0.65378(14)
H3_3 H 0.2040 0.3757 0.6449
C7_3 C 0.15553(12) 0.4433(3) 0.62275(13)
C8_3 C 0.15646(12) 0.4580(3) 0.57442(13)
C9_3 C 0.12510(11) 0.5051(3) 0.55316(13)
C10_3 C 0.18566(13) 0.4323(3) 0.55011(14)
H4_3 H 0.2068 0.3993 0.5635
C11_3 C 0.12143(12) 0.5297(3) 0.50866(13)
H5_3 H 0.0998 0.5606 0.4950
C12_3 C 0.18231(12) 0.4574(3) 0.50568(13)
H6_2 H 0.2015 0.4409 0.4891
C13_3 C 0.15112(11) 0.5067(3) 0.48504(12)
C14_3 C 0.15075(11) 0.5371(3) 0.43704(12)
C15_3 C 0.13272(12) 0.2761(2) 0.84902(13)
C16_3 C 0.13245(12) 0.1751(3) 0.84839(14)
C17_3 C 0.09784(15) 0.1297(3) 0.8466(2)
H7_3 H 0.0752 0.1628 0.8453
C18_3 C 0.16657(12) 0.1271(3) 0.85052(15)
H8_3 H 0.1902 0.1561 0.8520
C19_3 C 0.09552(15) 0.0397(3) 0.8464(2)
H9_3 H 0.0718 0.0111 0.8443
C20_3 C 0.16415(12) 0.0357(3) 0.85041(17)
C29_3 C 0.27639(11) 0.5174(3) 0.84049(16)
C30_3 C 0.31010(12) 0.5749(3) 0.83322(15)
C31_3 C 0.33543(12) 0.6044(3) 0.86964(15)
H13_3 H 0.3319 0.5897 0.8987
C32_3 C 0.31556(13) 0.5990(4) 0.79014(16)
H14_3 H 0.2980 0.5796 0.7659
C33_3 C 0.36640(12) 0.6568(3) 0.86136(14)
C34_3 C 0.34669(13) 0.6514(4) 0.78247(16)
H15_3 H 0.3501 0.6667 0.7534
C35_3 C 0.37251(11) 0.6802(3) 0.81843(14)
C36_3 C 0.40811(11) 0.7337(3) 0.81842(14)
C37_3 C 0.42800(11) 0.7488(3) 0.86085(13)
C38_3 C 0.42309(11) 0.7680(3) 0.78185(13)
H16_3 H 0.4104 0.7583 0.7529
C39_3 C 0.46170(12) 0.7963(3) 0.86870(14)
H17_3 H 0.4742 0.8057 0.8977
C40_3 C 0.45678(11) 0.8162(3) 0.78863(13)
H18_3 H 0.4666 0.8402 0.7641
C41_3 C 0.47654(10) 0.8299(3) 0.83181(13)
C42_3 C 0.51372(10) 0.8815(3) 0.83809(13)
C43_3 C 0.0176(3) 0.6321(7) 0.9856(3)
H21_3 H 0.0038 0.6879 0.9844
C44_3 C 0.03987(15) 0.5760(4) 0.91970(17)
H22_3 H 0.0216 0.5308 0.9193
C45_3 C 0.0733(3) 0.7001(7) 0.9568(3)
H23_3 H 0.0959 0.6757 0.9467
H24_3 H 0.0646 0.7516 0.9390
H25_3 H 0.0794 0.7175 0.9877
C46_3 C 0.04642(15) 0.5838(4) 0.75350(19)
H26_3 H 0.0369 0.5276 0.7442
C47_3 C 0.0254(3) 0.6343(6) 0.6771(3)
H27_3 H 0.0166 0.5735 0.6730
H28_3 H 0.0039 0.6744 0.6706
H29_3 H 0.0438 0.6466 0.6573
C48_3 C 0.0588(3) 0.7363(6) 0.7378(3)
H30_3 H 0.0694 0.7341 0.7690
H31_3 H 0.0787 0.7529 0.7205
H32_3 H 0.0385 0.7799 0.7333
C49_3 C 0.25604(18) 0.2890(5) 0.7953(2)
H33_3 H 0.2576 0.3372 0.7760
C50_3 C 0.2787(5) 0.1417(9) 0.8138(5)
H34_3 H 0.2567 0.1373 0.8293
H35_3 H 0.2809 0.0879 0.7969
H36_3 H 0.3016 0.1497 0.8351
C51_3 C 0.2906(4) 0.2135(9) 0.7430(5)
H37_3 H 0.2806 0.2631 0.7245
H38_3 H 0.3182 0.2183 0.7496
H39_3 H 0.2839 0.1584 0.7273
C52_3 C 0.2702(4) 0.3201(8) 0.9328(5)
H40_3 H 0.2885 0.3657 0.9344
C53_3 C 0.2525(4) 0.1690(8) 0.9540(5)
H41_3 H 0.2645 0.1142 0.9654
H42_3 H 0.2351 0.1893 0.9736
H43_3 H 0.2386 0.1587 0.9246
C54_3 C 0.3161(4) 0.1948(8) 0.9394(5)
H44_3 H 0.3197 0.1370 0.9535
H45_3 H 0.3134 0.1879 0.9075
H46_3 H 0.3380 0.2319 0.9494
N1_3 N 0.04332(15) 0.6471(3) 0.72305(16)
N2_3 N 0.04266(15) 0.6321(3) 0.95231(15)
N3_3 N 0.27404(15) 0.2147(4) 0.78475(18)
N4_3 N 0.2817(4) 0.2362(8) 0.9515(4)
O1_3 O 0.10812(8) 0.4533(2) 0.77166(9)
O2_3 O 0.17111(9) 0.4286(2) 0.78760(9)
O3_3 O 0.05676(9) 0.4889(4) 0.58095(11)
O4_3 O 0.09309(14) 0.6278(3) 0.59817(12)
O7_3 O 0.10143(9) 0.31571(17) 0.83792(9)
O8_3 O 0.16441(9) 0.31284(19) 0.86077(11)
O13_3 O 0.27279(8) 0.4946(2) 0.87961(11)
O14_3 O 0.25209(8) 0.4968(2) 0.80738(11)
O15_3 O 0.42560(11) 0.6284(3) 0.92445(13)
O16_3 O 0.38891(11) 0.7657(3) 0.92975(12)
O17_2 O 0.53328(8) 0.8864(2) 0.87620(9)
O18_2 O 0.52438(8) 0.9172(2) 0.80430(9)
O19_3 O 0.05944(10) 0.5771(2) 0.88867(12)
O20_3 O 0.06069(9) 0.5911(2) 0.79314(11)
O21_3 O 0.24084(11) 0.3345(3) 0.91651(13)
O22_3 O 0.23931(11) 0.3025(3) 0.82366(14)
O25 O 0.13953(8) 0.55888(17) 0.84991(10)
O26 O 0.20120(8) 0.59324(18) 0.85627(11)
O27_2 O 0.03328(8) 0.3864(2) 0.87620(9)
O28_2 O 0.02438(8) 0.4172(2) 0.80430(9)
S2_3 S 0.20291(3) 0.95965(7) 0.85126(5)
C21_3 C 0.13000(13) 0.9900(3) 0.84958(19)
C22_3 C 0.13468(12) 0.8910(3) 0.85143(18)
C23_3 C 0.10683(14) 0.8275(3) 0.8506(2)
H10_3 H 0.0810 0.8434 0.8489
C24_3 C 0.17314(12) 0.8660(3) 0.85383(16)
C25_3 C 0.11813(13) 0.7379(3) 0.8523(2)
H11_3 H 0.0994 0.6937 0.8521
C26_3 C 0.18454(12) 0.7775(3) 0.85596(15)
H12_3 H 0.2105 0.7621 0.8584
C27_3 C 0.15653(12) 0.7124(2) 0.85441(14)
C28_3 C 0.16646(11) 0.6146(2) 0.85338(13)
O9_3 O 0.21809(12) 0.9606(3) 0.80887(16)
O10_3 O 0.22962(11) 0.9698(2) 0.89107(17)
C42_4 C 0.01372(10) 0.3815(3) 0.83809(13)
S1_4 S 0.59355(3) 0.03280(10) 0.59154(4)
S3_4 S 0.90332(3) 0.19960(10) 0.90205(4)
H1_4 H 0.5943 0.0032 0.6892
C9_4 C 0.62510(11) 0.0051(3) 0.55316(13)
C11_4 C 0.62143(12) 0.0297(3) 0.50866(13)
H5_4 H 0.5998 0.0606 0.4950
C13_4 C 0.65112(11) 0.0067(3) 0.48504(12)
C14_4 C 0.65075(11) 0.0371(3) 0.43704(12)
C29_4 C 0.77639(11) 0.0174(3) 0.84049(16)
C30_4 C 0.81010(12) 0.0749(3) 0.83322(15)
C31_4 C 0.83543(12) 0.1044(3) 0.86964(15)
H13_4 H 0.8319 0.0897 0.8987
C32_4 C 0.81556(13) 0.0990(4) 0.79014(16)
H14_4 H 0.7980 0.0796 0.7659
C33_4 C 0.86640(12) 0.1568(3) 0.86136(14)
C34_4 C 0.84669(13) 0.1514(4) 0.78247(16)
H15_4 H 0.8501 0.1667 0.7534
C35_4 C 0.87251(11) 0.1802(3) 0.81843(14)
C36_4 C 0.90811(11) 0.2337(3) 0.81842(14)
C37_4 C 0.92800(11) 0.2488(3) 0.86085(13)
C38_4 C 0.92309(11) 0.2680(3) 0.78185(13)
H16_4 H 0.9104 0.2583 0.7529
C39_4 C 0.96170(12) 0.2963(3) 0.86870(14)
H17_4 H 0.9742 0.3057 0.8977
C40_4 C 0.95678(11) 0.3162(3) 0.78863(13)
H18_4 H 0.9666 0.3402 0.7641
C41_4 C 0.97654(10) 0.3299(3) 0.83181(13)
C43_4 C 0.5176(3) 0.1321(7) 0.9856(3)
H19_2 H 0.4995 0.0836 0.9800
H21_4 H 0.5038 0.1879 0.9844
C44_4 C 0.53987(15) 0.0760(4) 0.91970(17)
H22_4 H 0.5216 0.0308 0.9193
C45_4 C 0.5733(3) 0.2001(7) 0.9568(3)
H23_4 H 0.5959 0.1757 0.9467
H24_4 H 0.5646 0.2516 0.9390
H25_4 H 0.5794 0.2175 0.9877
C46_4 C 0.54642(15) 0.0838(4) 0.75350(19)
H26_4 H 0.5369 0.0276 0.7442
C47_4 C 0.5254(3) 0.1343(6) 0.6771(3)
H27_4 H 0.5166 0.0735 0.6730
H28_4 H 0.5039 0.1744 0.6706
H29_4 H 0.5438 0.1466 0.6573
C48_4 C 0.5588(3) 0.2363(6) 0.7378(3)
H30_4 H 0.5694 0.2341 0.7690
H31_4 H 0.5787 0.2529 0.7205
H32_4 H 0.5385 0.2799 0.7333
N1_4 N 0.54332(15) 0.1471(3) 0.72305(16)
N2_4 N 0.54266(15) 0.1321(3) 0.95231(15)
O4_4 O 0.59309(14) 0.1278(3) 0.59817(12)
O15_4 O 0.92560(11) 0.1284(3) 0.92445(13)
O16_4 O 0.88891(11) 0.2657(3) 0.92975(12)
O19_4 O 0.55944(10) 0.0771(2) 0.88867(12)
O20_4 O 0.56069(9) 0.0911(2) 0.79314(11)
O25_2 O 0.63953(8) 0.05888(17) 0.84991(10)
O26_2 O 0.70120(8) 0.09324(18) 0.85627(11)
S2_4 S 0.70291(3) 0.45965(7) 0.85126(5)
C1_4 C 0.64089(12) 0.9400(3) 0.76120(12)
C2_4 C 0.64488(12) 0.9401(3) 0.71213(12)
C3_4 C 0.61660(12) 0.9789(3) 0.68073(13)
C4_4 C 0.67744(12) 0.9028(4) 0.69837(14)
H2_4 H 0.6962 0.8773 0.7196
C5_4 C 0.62287(11) 0.9799(3) 0.63688(13)
C6_4 C 0.68250(12) 0.9029(4) 0.65378(14)
H3_4 H 0.7040 0.8757 0.6449
C7_4 C 0.65553(12) 0.9433(3) 0.62275(13)
C8_4 C 0.65646(12) 0.9580(3) 0.57442(13)
C10_4 C 0.68566(13) 0.9323(3) 0.55011(14)
H4_4 H 0.7068 0.8993 0.5635
C12_4 C 0.68231(12) 0.9574(3) 0.50568(13)
H6_3 H 0.7015 0.9409 0.4891
C15_4 C 0.63272(12) 0.7761(2) 0.84902(13)
C16_4 C 0.63245(12) 0.6751(3) 0.84839(14)
C17_4 C 0.59784(15) 0.6297(3) 0.8466(2)
H7_4 H 0.5752 0.6628 0.8453
C18_4 C 0.66657(12) 0.6271(3) 0.85052(15)
H8_4 H 0.6902 0.6561 0.8520
C19_4 C 0.59552(15) 0.5397(3) 0.8464(2)
H9_4 H 0.5718 0.5111 0.8443
C20_4 C 0.66415(12) 0.5357(3) 0.85041(17)
C21_4 C 0.63000(13) 0.4900(3) 0.84958(19)
C22_4 C 0.63468(12) 0.3910(3) 0.85143(18)
C23_4 C 0.60683(14) 0.3275(3) 0.8506(2)
H10_4 H 0.5810 0.3434 0.8489
C24_4 C 0.67314(12) 0.3660(3) 0.85383(16)
C25_4 C 0.61813(13) 0.2379(3) 0.8523(2)
H11_4 H 0.5994 0.1937 0.8521
C26_4 C 0.68454(12) 0.2775(3) 0.85596(15)
H12_4 H 0.7105 0.2621 0.8584
C27_4 C 0.65653(12) 0.2124(2) 0.85441(14)
C28_4 C 0.66646(11) 0.1146(2) 0.85338(13)
C49_4 C 0.75604(18) 0.7890(5) 0.7953(2)
H33_4 H 0.7576 0.8372 0.7760
C50_4 C 0.7787(5) 0.6417(9) 0.8138(5)
H34_4 H 0.7567 0.6373 0.8293
H35_4 H 0.7809 0.5879 0.7969
H36_4 H 0.8016 0.6497 0.8351
C51_4 C 0.7906(4) 0.7135(9) 0.7430(5)
H37_4 H 0.7806 0.7631 0.7245
H38_4 H 0.8182 0.7183 0.7496
H39_4 H 0.7839 0.6584 0.7273
C52_4 C 0.7702(4) 0.8201(8) 0.9328(5)
H40_4 H 0.7885 0.8657 0.9344
C53_4 C 0.7525(4) 0.6690(8) 0.9540(5)
H41_4 H 0.7645 0.6142 0.9654
H42_4 H 0.7351 0.6893 0.9736
H43_4 H 0.7386 0.6587 0.9246
C54_4 C 0.8161(4) 0.6948(8) 0.9394(5)
H44_4 H 0.8197 0.6370 0.9535
H45_4 H 0.8134 0.6879 0.9075
H46_4 H 0.8380 0.7319 0.9494
N3_4 N 0.77404(15) 0.7147(4) 0.78475(18)
N4_4 N 0.7817(4) 0.7362(8) 0.9515(4)
O1_4 O 0.60812(8) 0.9533(2) 0.77166(9)
O2_4 O 0.67111(9) 0.9286(2) 0.78760(9)
O3_4 O 0.55676(9) 0.9889(4) 0.58095(11)
O7_4 O 0.60143(9) 0.81571(17) 0.83792(9)
O8_4 O 0.66441(9) 0.81284(19) 0.86077(11)
O9_4 O 0.71809(12) 0.4606(3) 0.80887(16)
O10_4 O 0.72962(11) 0.4698(2) 0.89107(17)
O13_4 O 0.77279(8) 0.9946(2) 0.87961(11)
O14_4 O 0.75209(8) 0.9968(2) 0.80738(11)
O21_4 O 0.74084(11) 0.8345(3) 0.91651(13)
O22_4 O 0.73931(11) 0.8025(3) 0.82366(14)
H19_3 H 0.9995 0.4164 0.4800
H19_4 H 0.0005 0.4164 0.0200
S2_5 S 0.79709(3) 0.04035(7) 0.14874(5)
C21_5 C 0.87000(13) 0.0100(3) 0.15042(19)
C22_5 C 0.86532(12) 0.1090(3) 0.14857(18)
C23_5 C 0.89317(14) 0.1725(3) 0.1494(2)
H10_5 H 0.9190 0.1566 0.1511
C24_5 C 0.82686(12) 0.1340(3) 0.14617(16)
C25_5 C 0.88187(13) 0.2621(3) 0.1477(2)
H11_5 H 0.9006 0.3063 0.1479
C26_5 C 0.81546(12) 0.2225(3) 0.14404(15)
H12_5 H 0.7895 0.2379 0.1416
C27_5 C 0.84347(12) 0.2876(2) 0.14559(14)
C28_5 C 0.83354(11) 0.3854(2) 0.14662(13)
O9_5 O 0.78191(12) 0.0394(3) 0.19113(16)
O10_5 O 0.77038(11) 0.0302(2) 0.10893(17)
O11_3 O 0.86047(8) 0.44112(17) 0.15009(10)
O12_3 O 0.79880(8) 0.40676(18) 0.14373(11)
Eu4_3 Eu 0.791119(5) 0.570767(12) 0.142716(6)
Eu6_2 Eu 0.914085(5) 0.531736(12) 0.156984(6)
S1_5 S 0.90645(3) 0.46720(10) 0.40846(4)
S3_5 S 0.59668(3) 0.30040(10) 0.09795(4)
C1_5 C 0.85911(12) 0.5600(3) 0.23880(12)
C2_5 C 0.85512(12) 0.5599(3) 0.28787(12)
C3_5 C 0.88340(12) 0.5211(3) 0.31927(13)
H1_5 H 0.9057 0.4968 0.3108
C4_5 C 0.82256(12) 0.5972(4) 0.30163(14)
H2_5 H 0.8038 0.6227 0.2804
C5_5 C 0.87713(11) 0.5201(3) 0.36312(13)
C6_5 C 0.81750(12) 0.5971(4) 0.34622(14)
H3_5 H 0.7960 0.6243 0.3551
C7_5 C 0.84447(12) 0.5567(3) 0.37725(13)
C8_5 C 0.84354(12) 0.5420(3) 0.42558(13)
C9_5 C 0.87490(11) 0.4949(3) 0.44684(13)
C10_5 C 0.81434(13) 0.5677(3) 0.44989(14)
H4_5 H 0.7932 0.6007 0.4365
C11_5 C 0.87857(12) 0.4703(3) 0.49134(13)
H5_5 H 0.9002 0.4394 0.5050
C12_5 C 0.81769(12) 0.5426(3) 0.49432(13)
H6_4 H 0.7985 0.5591 0.5109
C13_5 C 0.84888(11) 0.4933(3) 0.51496(12)
C14_5 C 0.84925(11) 0.4629(3) 0.56296(12)
C15_5 C 0.86728(12) 0.7239(2) 0.15098(13)
C16_5 C 0.86755(12) 0.8249(3) 0.15161(14)
C17_5 C 0.90216(15) 0.8703(3) 0.1534(2)
H7_5 H 0.9248 0.8372 0.1547
C18_5 C 0.83343(12) 0.8729(3) 0.14948(15)
H8_5 H 0.8098 0.8439 0.1480
C19_5 C 0.90448(15) 0.9603(3) 0.1536(2)
H9_5 H 0.9282 0.9889 0.1557
C20_5 C 0.83585(12) 0.9643(3) 0.14959(17)
C29_5 C 0.72361(11) 0.4826(3) 0.15951(16)
C30_5 C 0.68990(12) 0.4251(3) 0.16678(15)
C31_5 C 0.66457(12) 0.3956(3) 0.13036(15)
H13_5 H 0.6681 0.4103 0.1013
C32_5 C 0.68444(13) 0.4010(4) 0.20986(16)
H14_5 H 0.7020 0.4204 0.2341
C33_5 C 0.63360(12) 0.3432(3) 0.13864(14)
C34_5 C 0.65331(13) 0.3486(4) 0.21753(16)
H15_5 H 0.6499 0.3333 0.2466
C35_5 C 0.62749(11) 0.3198(3) 0.18157(14)
C36_5 C 0.59189(11) 0.2663(3) 0.18158(14)
C37_5 C 0.57200(11) 0.2512(3) 0.13915(13)
C38_5 C 0.57691(11) 0.2320(3) 0.21815(13)
H16_5 H 0.5896 0.2417 0.2471
C39_5 C 0.53830(12) 0.2037(3) 0.13130(14)
H17_5 H 0.5258 0.1943 0.1023
C40_5 C 0.54322(11) 0.1838(3) 0.21137(13)
H18_5 H 0.5334 0.1598 0.2359
C41_5 C 0.52346(10) 0.1701(3) 0.16819(13)
C42_5 C 0.48628(10) 0.1185(3) 0.16191(13)
C43_5 C 0.9824(3) 0.3679(7) 0.0144(3)
H21_5 H 0.9962 0.3121 0.0156
C44_5 C 0.96013(15) 0.4240(4) 0.08030(17)
H22_5 H 0.9784 0.4692 0.0807
C45_5 C 0.9267(3) 0.2999(7) 0.0432(3)
H23_5 H 0.9041 0.3243 0.0533
H24_5 H 0.9354 0.2484 0.0610
H25_5 H 0.9206 0.2825 0.0123
C46_5 C 0.95358(15) 0.4162(4) 0.24650(19)
H26_5 H 0.9631 0.4724 0.2558
C47_5 C 0.9746(3) 0.3657(6) 0.3229(3)
H27_5 H 0.9834 0.4265 0.3270
H28_5 H 0.9961 0.3256 0.3294
H29_5 H 0.9562 0.3534 0.3427
C48_5 C 0.9412(3) 0.2637(6) 0.2622(3)
H30_5 H 0.9306 0.2659 0.2310
H31_5 H 0.9213 0.2471 0.2795
H32_5 H 0.9615 0.2201 0.2667
C49_5 C 0.74396(18) 0.7110(5) 0.2047(2)
H33_5 H 0.7424 0.6628 0.2240
C50_5 C 0.7213(5) 0.8583(9) 0.1862(5)
H34_5 H 0.7433 0.8627 0.1707
H35_5 H 0.7191 0.9121 0.2031
H36_5 H 0.6984 0.8503 0.1649
C51_5 C 0.7094(4) 0.7865(9) 0.2570(5)
H37_5 H 0.7194 0.7369 0.2755
H38_5 H 0.6818 0.7817 0.2504
H39_5 H 0.7161 0.8416 0.2727
C52_5 C 0.7298(4) 0.6799(8) 0.0672(5)
H40_5 H 0.7115 0.6343 0.0656
C53_5 C 0.7475(4) 0.8310(8) 0.0460(5)
H41_5 H 0.7355 0.8858 0.0346
H42_5 H 0.7649 0.8107 0.0264
H43_5 H 0.7614 0.8413 0.0754
C54_5 C 0.6839(4) 0.8052(8) 0.0606(5)
H44_5 H 0.6803 0.8630 0.0465
H45_5 H 0.6866 0.8121 0.0925
H46_5 H 0.6620 0.7681 0.0506
N1_5 N 0.95668(15) 0.3529(3) 0.27695(16)
N2_5 N 0.95734(15) 0.3679(3) 0.04769(15)
N3_5 N 0.72596(15) 0.7853(4) 0.21525(18)
N4_5 N 0.7183(4) 0.7638(8) 0.0485(4)
O1_5 O 0.89188(8) 0.5467(2) 0.22834(9)
O2_5 O 0.82889(9) 0.5714(2) 0.21240(9)
O3_5 O 0.94324(9) 0.5111(4) 0.41905(11)
O4_5 O 0.90691(14) 0.3722(3) 0.40183(12)
O5_3 O 0.88127(8) 0.4400(2) 0.58409(8)
O6_3 O 0.81792(8) 0.4649(2) 0.57732(9)
O7_5 O 0.89857(9) 0.68429(17) 0.16208(9)
O8_5 O 0.83559(9) 0.68716(19) 0.13923(11)
O13_5 O 0.72721(8) 0.5054(2) 0.12039(11)
O14_5 O 0.74791(8) 0.5032(2) 0.19262(11)
O15_5 O 0.57440(11) 0.3716(3) 0.07555(13)
O16_5 O 0.61109(11) 0.2343(3) 0.07025(12)
O17_3 O 0.46672(8) 0.1136(2) 0.12380(9)
O18_3 O 0.47562(8) 0.0828(2) 0.19570(9)
O19_5 O 0.94056(10) 0.4229(2) 0.11133(12)
O20_5 O 0.93931(9) 0.4089(2) 0.20686(11)
O21_5 O 0.75916(11) 0.6655(3) 0.08349(13)
O22_5 O 0.76069(11) 0.6975(3) 0.17634(14)
Eu3_3 Eu 0.791119(5) 0.429233(12) 0.642716(6)
Eu5_3 Eu 0.914085(5) 0.468264(12) 0.656984(6)
Eu7_2 Eu 0.414085(5) 0.031736(12) 0.156984(6)
O23_3 O 0.88127(8) 0.5600(2) 0.08409(8)
O24_3 O 0.81792(8) 0.5351(2) 0.07732(9)
O27_3 O 0.96672(8) 0.6136(2) 0.12380(9)
O28_3 O 0.97562(8) 0.5828(2) 0.19570(9)
Eu4_4 Eu 0.291119(5) 0.070767(12) 0.142716(6)
S2_6 S 0.29709(3) 0.54035(7) 0.14874(5)
C1_6 C 0.35911(12) 0.0600(3) 0.23880(12)
C2_6 C 0.35512(12) 0.0599(3) 0.28787(12)
C3_6 C 0.38340(12) 0.0211(3) 0.31927(13)
C4_6 C 0.32256(12) 0.0972(4) 0.30163(14)
H2_6 H 0.3038 0.1227 0.2804
C5_6 C 0.37713(11) 0.0201(3) 0.36312(13)
C6_6 C 0.31750(12) 0.0971(4) 0.34622(14)
H3_6 H 0.2960 0.1243 0.3551
C7_6 C 0.34447(12) 0.0567(3) 0.37725(13)
C8_6 C 0.34354(12) 0.0420(3) 0.42558(13)
C10_6 C 0.31434(13) 0.0677(3) 0.44989(14)
H4_6 H 0.2932 0.1007 0.4365
C12_6 C 0.31769(12) 0.0426(3) 0.49432(13)
H6_5 H 0.2985 0.0591 0.5109
C15_6 C 0.36728(12) 0.2239(2) 0.15098(13)
C16_6 C 0.36755(12) 0.3249(3) 0.15161(14)
C17_6 C 0.40216(15) 0.3703(3) 0.1534(2)
H7_6 H 0.4248 0.3372 0.1547
C18_6 C 0.33343(12) 0.3729(3) 0.14948(15)
H8_6 H 0.3098 0.3439 0.1480
C19_6 C 0.40448(15) 0.4603(3) 0.1536(2)
H9_6 H 0.4282 0.4889 0.1557
C20_6 C 0.33585(12) 0.4643(3) 0.14959(17)
C21_6 C 0.37000(13) 0.5100(3) 0.15042(19)
C22_6 C 0.36532(12) 0.6090(3) 0.14857(18)
C23_6 C 0.39317(14) 0.6725(3) 0.1494(2)
H10_6 H 0.4190 0.6566 0.1511
C24_6 C 0.32686(12) 0.6340(3) 0.14617(16)
C25_6 C 0.38187(13) 0.7621(3) 0.1477(2)
H11_6 H 0.4006 0.8063 0.1479
C26_6 C 0.31546(12) 0.7225(3) 0.14404(15)
H12_6 H 0.2895 0.7379 0.1416
C27_6 C 0.34347(12) 0.7876(2) 0.14559(14)
C28_6 C 0.33354(11) 0.8854(2) 0.14662(13)
C49_6 C 0.24396(18) 0.2110(5) 0.2047(2)
H33_6 H 0.2424 0.1628 0.2240
C50_6 C 0.2213(5) 0.3583(9) 0.1862(5)
H34_6 H 0.2433 0.3627 0.1707
H35_6 H 0.2191 0.4121 0.2031
H36_6 H 0.1984 0.3503 0.1649
C51_6 C 0.2094(4) 0.2865(9) 0.2570(5)
H37_6 H 0.2194 0.2369 0.2755
H38_6 H 0.1818 0.2817 0.2504
H39_6 H 0.2161 0.3416 0.2727
C52_6 C 0.2298(4) 0.1799(8) 0.0672(5)
H40_6 H 0.2115 0.1343 0.0656
C53_6 C 0.2475(4) 0.3310(8) 0.0460(5)
H41_6 H 0.2355 0.3858 0.0346
H42_6 H 0.2649 0.3107 0.0264
H43_6 H 0.2614 0.3413 0.0754
C54_6 C 0.1839(4) 0.3052(8) 0.0606(5)
H44_6 H 0.1803 0.3630 0.0465
H45_6 H 0.1866 0.3121 0.0925
H46_6 H 0.1620 0.2681 0.0506
N3_6 N 0.22596(15) 0.2853(4) 0.21525(18)
N4_6 N 0.2183(4) 0.2638(8) 0.0485(4)
O1_6 O 0.39188(8) 0.0467(2) 0.22834(9)
O2_6 O 0.32889(9) 0.0714(2) 0.21240(9)
O3_6 O 0.44324(9) 0.0111(4) 0.41905(11)
O7_6 O 0.39857(9) 0.18429(17) 0.16208(9)
O8_6 O 0.33559(9) 0.18716(19) 0.13923(11)
O9_6 O 0.28191(12) 0.5394(3) 0.19113(16)
O10_6 O 0.27038(11) 0.5302(2) 0.10893(17)
O11_4 O 0.36047(8) 0.94112(17) 0.15009(10)
O12_4 O 0.29880(8) 0.90676(18) 0.14373(11)
O13_6 O 0.22721(8) 0.0054(2) 0.12039(11)
O14_6 O 0.24791(8) 0.0032(2) 0.19262(11)
O21_6 O 0.25916(11) 0.1655(3) 0.08349(13)
O22_6 O 0.26069(11) 0.1975(3) 0.17634(14)
O23_4 O 0.38127(8) 0.0600(2) 0.08409(8)
O24_4 O 0.31792(8) 0.0351(2) 0.07732(9)
S1_6 S 0.40645(3) 0.96720(10) 0.40846(4)
S3_6 S 0.09668(3) 0.80040(10) 0.09795(4)
H1_6 H 0.4057 0.9968 0.3108
C9_6 C 0.37490(11) 0.9949(3) 0.44684(13)
C11_6 C 0.37857(12) 0.9703(3) 0.49134(13)
H5_6 H 0.4002 0.9394 0.5050
C13_6 C 0.34888(11) 0.9933(3) 0.51496(12)
C14_6 C 0.34925(11) 0.9629(3) 0.56296(12)
C29_6 C 0.22361(11) 0.9826(3) 0.15951(16)
C30_6 C 0.18990(12) 0.9251(3) 0.16678(15)
C31_6 C 0.16457(12) 0.8956(3) 0.13036(15)
H13_6 H 0.1681 0.9103 0.1013
C32_6 C 0.18444(13) 0.9010(4) 0.20986(16)
H14_6 H 0.2020 0.9204 0.2341
C33_6 C 0.13360(12) 0.8432(3) 0.13864(14)
C34_6 C 0.15331(13) 0.8486(4) 0.21753(16)
H15_6 H 0.1499 0.8333 0.2466
C35_6 C 0.12749(11) 0.8198(3) 0.18157(14)
C36_6 C 0.09189(11) 0.7663(3) 0.18158(14)
C37_6 C 0.07200(11) 0.7512(3) 0.13915(13)
C38_6 C 0.07691(11) 0.7320(3) 0.21815(13)
H16_6 H 0.0896 0.7417 0.2471
C39_6 C 0.03830(12) 0.7037(3) 0.13130(14)
H17_6 H 0.0258 0.6943 0.1023
C40_6 C 0.04322(11) 0.6838(3) 0.21137(13)
H18_6 H 0.0334 0.6598 0.2359
C41_6 C 0.02346(10) 0.6701(3) 0.16819(13)
C43_6 C 0.4824(3) 0.8679(7) 0.0144(3)
H19_5 H 0.5005 0.9164 0.0200
H21_6 H 0.4962 0.8121 0.0156
C44_6 C 0.46013(15) 0.9240(4) 0.08030(17)
H22_6 H 0.4784 0.9692 0.0807
C45_6 C 0.4267(3) 0.7999(7) 0.0432(3)
H23_6 H 0.4041 0.8243 0.0533
H24_6 H 0.4354 0.7484 0.0610
H25_6 H 0.4206 0.7825 0.0123
C46_6 C 0.45358(15) 0.9162(4) 0.24650(19)
H26_6 H 0.4631 0.9724 0.2558
C47_6 C 0.4746(3) 0.8657(6) 0.3229(3)
H27_6 H 0.4834 0.9265 0.3270
H28_6 H 0.4961 0.8256 0.3294
H29_6 H 0.4562 0.8534 0.3427
C48_6 C 0.4412(3) 0.7637(6) 0.2622(3)
H30_6 H 0.4306 0.7659 0.2310
H31_6 H 0.4213 0.7471 0.2795
H32_6 H 0.4615 0.7201 0.2667
N1_6 N 0.45668(15) 0.8529(3) 0.27695(16)
N2_6 N 0.45734(15) 0.8679(3) 0.04769(15)
O4_6 O 0.40691(14) 0.8722(3) 0.40183(12)
O5_4 O 0.38127(8) 0.9400(2) 0.58409(8)
O6_4 O 0.31792(8) 0.9649(2) 0.57732(9)
O15_6 O 0.07440(11) 0.8716(3) 0.07555(13)
O16_6 O 0.11109(11) 0.7343(3) 0.07025(12)
O19_6 O 0.44056(10) 0.9229(2) 0.11133(12)
O20_6 O 0.43931(9) 0.9089(2) 0.20686(11)
Eu3_4 Eu 0.291119(5) 0.929233(12) 0.642716(6)
Eu5_4 Eu 0.414085(5) 0.968264(12) 0.656984(6)
C42_6 C 0.98628(10) 0.6185(3) 0.16191(13)
H5_7 H 0.9002 0.5606 0.0050
H6_6 H 0.7985 0.4409 0.0109
C13_7 C 0.84888(11) 0.5067(3) 0.01496(12)
C14_7 C 0.84925(11) 0.5371(3) 0.06296(12)
S1_7 S 0.90645(3) 0.53280(10) 0.90846(4)
S3_7 S 0.59668(3) 0.69960(10) 0.59795(4)
C1_7 C 0.85911(12) 0.4400(3) 0.73880(12)
C2_7 C 0.85512(12) 0.4401(3) 0.78787(12)
C3_7 C 0.88340(12) 0.4789(3) 0.81927(13)
H1_7 H 0.9057 0.5032 0.8108
C4_7 C 0.82256(12) 0.4028(4) 0.80163(14)
H2_7 H 0.8038 0.3773 0.7804
C5_7 C 0.87713(11) 0.4799(3) 0.86312(13)
C6_7 C 0.81750(12) 0.4029(4) 0.84622(14)
H3_7 H 0.7960 0.3757 0.8551
C7_7 C 0.84447(12) 0.4433(3) 0.87725(13)
C8_7 C 0.84354(12) 0.4580(3) 0.92558(13)
C9_7 C 0.87490(11) 0.5051(3) 0.94684(13)
C10_7 C 0.81434(13) 0.4323(3) 0.94989(14)
H4_7 H 0.7932 0.3993 0.9365
C11_7 C 0.87857(12) 0.5297(3) 0.99134(13)
C12_7 C 0.81769(12) 0.4574(3) 0.99432(13)
C15_7 C 0.86728(12) 0.2761(2) 0.65098(13)
C16_7 C 0.86755(12) 0.1751(3) 0.65161(14)
C17_7 C 0.90216(15) 0.1297(3) 0.6534(2)
H7_7 H 0.9248 0.1628 0.6547
C18_7 C 0.83343(12) 0.1271(3) 0.64948(15)
H8_7 H 0.8098 0.1561 0.6480
C19_7 C 0.90448(15) 0.0397(3) 0.6536(2)
H9_7 H 0.9282 0.0111 0.6557
C20_7 C 0.83585(12) 0.0357(3) 0.64959(17)
C29_7 C 0.72361(11) 0.5174(3) 0.65951(16)
C30_7 C 0.68990(12) 0.5749(3) 0.66678(15)
C31_7 C 0.66457(12) 0.6044(3) 0.63036(15)
H13_7 H 0.6681 0.5897 0.6013
C32_7 C 0.68444(13) 0.5990(4) 0.70986(16)
H14_7 H 0.7020 0.5796 0.7341
C33_7 C 0.63360(12) 0.6568(3) 0.63864(14)
C34_7 C 0.65331(13) 0.6514(4) 0.71753(16)
H15_7 H 0.6499 0.6667 0.7466
C35_7 C 0.62749(11) 0.6802(3) 0.68157(14)
C36_7 C 0.59189(11) 0.7337(3) 0.68158(14)
C37_7 C 0.57200(11) 0.7488(3) 0.63915(13)
C38_7 C 0.57691(11) 0.7680(3) 0.71815(13)
H16_7 H 0.5896 0.7583 0.7471
C39_7 C 0.53830(12) 0.7963(3) 0.63130(14)
H17_7 H 0.5258 0.8057 0.6023
C40_7 C 0.54322(11) 0.8162(3) 0.71137(13)
H18_7 H 0.5334 0.8402 0.7359
C41_7 C 0.52346(10) 0.8299(3) 0.66819(13)
C42_7 C 0.48628(10) 0.8815(3) 0.66191(13)
C43_7 C 0.9824(3) 0.6321(7) 0.5144(3)
H20_3 H 0.9675 0.6250 0.4853
H21_7 H 0.9962 0.6879 0.5156
C44_7 C 0.96013(15) 0.5760(4) 0.58030(17)
H22_7 H 0.9784 0.5308 0.5807
C45_7 C 0.9267(3) 0.7001(7) 0.5432(3)
H23_7 H 0.9041 0.6757 0.5533
H24_7 H 0.9354 0.7516 0.5610
H25_7 H 0.9206 0.7175 0.5123
C46_7 C 0.95358(15) 0.5838(4) 0.74650(19)
H26_7 H 0.9631 0.5276 0.7558
C47_7 C 0.9746(3) 0.6343(6) 0.8229(3)
H27_7 H 0.9834 0.5735 0.8270
H28_7 H 0.9961 0.6744 0.8294
H29_7 H 0.9562 0.6466 0.8427
C48_7 C 0.9412(3) 0.7363(6) 0.7622(3)
H30_7 H 0.9306 0.7341 0.7310
H31_7 H 0.9213 0.7529 0.7795
H32_7 H 0.9615 0.7799 0.7667
C49_7 C 0.74396(18) 0.2890(5) 0.7047(2)
H33_7 H 0.7424 0.3372 0.7240
C50_7 C 0.7213(5) 0.1417(9) 0.6862(5)
H34_7 H 0.7433 0.1373 0.6707
H35_7 H 0.7191 0.0879 0.7031
H36_7 H 0.6984 0.1497 0.6649
C51_7 C 0.7094(4) 0.2135(9) 0.7570(5)
H37_7 H 0.7194 0.2631 0.7755
H38_7 H 0.6818 0.2183 0.7504
H39_7 H 0.7161 0.1584 0.7727
C52_7 C 0.7298(4) 0.3201(8) 0.5672(5)
H40_7 H 0.7115 0.3657 0.5656
C53_7 C 0.7475(4) 0.1690(8) 0.5460(5)
H41_7 H 0.7355 0.1142 0.5346
H42_7 H 0.7649 0.1893 0.5264
H43_7 H 0.7614 0.1587 0.5754
C54_7 C 0.6839(4) 0.1948(8) 0.5606(5)
H44_7 H 0.6803 0.1370 0.5465
H45_7 H 0.6866 0.1879 0.5925
H46_7 H 0.6620 0.2319 0.5506
N1_7 N 0.95668(15) 0.6471(3) 0.77695(16)
N2_7 N 0.95734(15) 0.6321(3) 0.54769(15)
N3_7 N 0.72596(15) 0.2147(4) 0.71525(18)
N4_7 N 0.7183(4) 0.2362(8) 0.5485(4)
O1_7 O 0.89188(8) 0.4533(2) 0.72834(9)
O2_7 O 0.82889(9) 0.4286(2) 0.71240(9)
O3_7 O 0.94324(9) 0.4889(4) 0.91905(11)
O4_7 O 0.90691(14) 0.6278(3) 0.90183(12)
O7_7 O 0.89857(9) 0.31571(17) 0.66208(9)
O8_7 O 0.83559(9) 0.31284(19) 0.63923(11)
O13_7 O 0.72721(8) 0.4946(2) 0.62039(11)
O14_7 O 0.74791(8) 0.4968(2) 0.69262(11)
O15_7 O 0.57440(11) 0.6284(3) 0.57555(13)
O16_7 O 0.61109(11) 0.7657(3) 0.57025(12)
O17_4 O 0.46672(8) 0.8864(2) 0.62380(9)
O18_4 O 0.47562(8) 0.9172(2) 0.69570(9)
O19_7 O 0.94056(10) 0.5771(2) 0.61133(12)
O20_7 O 0.93931(9) 0.5911(2) 0.70686(11)
O21_7 O 0.75916(11) 0.3345(3) 0.58349(13)
O22_7 O 0.76069(11) 0.3025(3) 0.67634(14)
O25_3 O 0.86047(8) 0.55888(17) 0.65009(10)
O26_3 O 0.79880(8) 0.59324(18) 0.64373(11)
O27_4 O 0.96672(8) 0.3864(2) 0.62380(9)
O28_4 O 0.97562(8) 0.4172(2) 0.69570(9)
S2_7 S 0.79709(3) 0.95965(7) 0.64874(5)
C21_7 C 0.87000(13) 0.9900(3) 0.65042(19)
C22_7 C 0.86532(12) 0.8910(3) 0.64857(18)
C23_7 C 0.89317(14) 0.8275(3) 0.6494(2)
H10_7 H 0.9190 0.8434 0.6511
C24_7 C 0.82686(12) 0.8660(3) 0.64617(16)
C25_7 C 0.88187(13) 0.7379(3) 0.6477(2)
H11_7 H 0.9006 0.6937 0.6479
C26_7 C 0.81546(12) 0.7775(3) 0.64404(15)
H12_7 H 0.7895 0.7621 0.6416
C27_7 C 0.84347(12) 0.7124(2) 0.64559(14)
C28_7 C 0.83354(11) 0.6146(2) 0.64662(13)
O9_7 O 0.78191(12) 0.9606(3) 0.69113(16)
O10_7 O 0.77038(11) 0.9698(2) 0.60893(17)
H5_8 H 0.4002 0.0606 0.0050
C13_8 C 0.34888(11) 0.0067(3) 0.01496(12)
C14_8 C 0.34925(11) 0.0371(3) 0.06296(12)
S1_8 S 0.40645(3) 0.03280(10) 0.90846(4)
S3_8 S 0.09668(3) 0.19960(10) 0.59795(4)
H1_8 H 0.4057 0.0032 0.8108
C9_8 C 0.37490(11) 0.0051(3) 0.94684(13)
C11_8 C 0.37857(12) 0.0297(3) 0.99134(13)
C29_8 C 0.22361(11) 0.0174(3) 0.65951(16)
C30_8 C 0.18990(12) 0.0749(3) 0.66678(15)
C31_8 C 0.16457(12) 0.1044(3) 0.63036(15)
H13_8 H 0.1681 0.0897 0.6013
C32_8 C 0.18444(13) 0.0990(4) 0.70986(16)
H14_8 H 0.2020 0.0796 0.7341
C33_8 C 0.13360(12) 0.1568(3) 0.63864(14)
C34_8 C 0.15331(13) 0.1514(4) 0.71753(16)
H15_8 H 0.1499 0.1667 0.7466
C35_8 C 0.12749(11) 0.1802(3) 0.68157(14)
C36_8 C 0.09189(11) 0.2337(3) 0.68158(14)
C37_8 C 0.07200(11) 0.2488(3) 0.63915(13)
C38_8 C 0.07691(11) 0.2680(3) 0.71815(13)
H16_8 H 0.0896 0.2583 0.7471
C39_8 C 0.03830(12) 0.2963(3) 0.63130(14)
H17_8 H 0.0258 0.3057 0.6023
C40_8 C 0.04322(11) 0.3162(3) 0.71137(13)
H18_8 H 0.0334 0.3402 0.7359
C41_8 C 0.02346(10) 0.3299(3) 0.66819(13)
C43_8 C 0.4824(3) 0.1321(7) 0.5144(3)
H19_6 H 0.5005 0.0836 0.5200
H20_4 H 0.4675 0.1250 0.4853
H21_8 H 0.4962 0.1879 0.5156
C44_8 C 0.46013(15) 0.0760(4) 0.58030(17)
H22_8 H 0.4784 0.0308 0.5807
C45_8 C 0.4267(3) 0.2001(7) 0.5432(3)
H23_8 H 0.4041 0.1757 0.5533
H24_8 H 0.4354 0.2516 0.5610
H25_8 H 0.4206 0.2175 0.5123
C46_8 C 0.45358(15) 0.0838(4) 0.74650(19)
H26_8 H 0.4631 0.0276 0.7558
C47_8 C 0.4746(3) 0.1343(6) 0.8229(3)
H27_8 H 0.4834 0.0735 0.8270
H28_8 H 0.4961 0.1744 0.8294
H29_8 H 0.4562 0.1466 0.8427
C48_8 C 0.4412(3) 0.2363(6) 0.7622(3)
H30_8 H 0.4306 0.2341 0.7310
H31_8 H 0.4213 0.2529 0.7795
H32_8 H 0.4615 0.2799 0.7667
N1_8 N 0.45668(15) 0.1471(3) 0.77695(16)
N2_8 N 0.45734(15) 0.1321(3) 0.54769(15)
O4_8 O 0.40691(14) 0.1278(3) 0.90183(12)
O15_8 O 0.07440(11) 0.1284(3) 0.57555(13)
O16_8 O 0.11109(11) 0.2657(3) 0.57025(12)
O19_8 O 0.44056(10) 0.0771(2) 0.61133(12)
O20_8 O 0.43931(9) 0.0911(2) 0.70686(11)
O25_4 O 0.36047(8) 0.05888(17) 0.65009(10)
O26_4 O 0.29880(8) 0.09324(18) 0.64373(11)
S2_8 S 0.29709(3) 0.45965(7) 0.64874(5)
C1_8 C 0.35911(12) 0.9400(3) 0.73880(12)
C2_8 C 0.35512(12) 0.9401(3) 0.78787(12)
C3_8 C 0.38340(12) 0.9789(3) 0.81927(13)
C4_8 C 0.32256(12) 0.9028(4) 0.80163(14)
H2_8 H 0.3038 0.8773 0.7804
C5_8 C 0.37713(11) 0.9799(3) 0.86312(13)
C6_8 C 0.31750(12) 0.9029(4) 0.84622(14)
H3_8 H 0.2960 0.8757 0.8551
C7_8 C 0.34447(12) 0.9433(3) 0.87725(13)
C8_8 C 0.34354(12) 0.9580(3) 0.92558(13)
C10_8 C 0.31434(13) 0.9323(3) 0.94989(14)
H4_8 H 0.2932 0.8993 0.9365
C12_8 C 0.31769(12) 0.9574(3) 0.99432(13)
C15_8 C 0.36728(12) 0.7761(2) 0.65098(13)
C16_8 C 0.36755(12) 0.6751(3) 0.65161(14)
C17_8 C 0.40216(15) 0.6297(3) 0.6534(2)
H7_8 H 0.4248 0.6628 0.6547
C18_8 C 0.33343(12) 0.6271(3) 0.64948(15)
H8_8 H 0.3098 0.6561 0.6480
C19_8 C 0.40448(15) 0.5397(3) 0.6536(2)
H9_8 H 0.4282 0.5111 0.6557
C20_8 C 0.33585(12) 0.5357(3) 0.64959(17)
C21_8 C 0.37000(13) 0.4900(3) 0.65042(19)
C22_8 C 0.36532(12) 0.3910(3) 0.64857(18)
C23_8 C 0.39317(14) 0.3275(3) 0.6494(2)
H10_8 H 0.4190 0.3434 0.6511
C24_8 C 0.32686(12) 0.3660(3) 0.64617(16)
C25_8 C 0.38187(13) 0.2379(3) 0.6477(2)
H11_8 H 0.4006 0.1937 0.6479
C26_8 C 0.31546(12) 0.2775(3) 0.64404(15)
H12_8 H 0.2895 0.2621 0.6416
C27_8 C 0.34347(12) 0.2124(2) 0.64559(14)
C28_8 C 0.33354(11) 0.1146(2) 0.64662(13)
C49_8 C 0.24396(18) 0.7890(5) 0.7047(2)
H33_8 H 0.2424 0.8372 0.7240
C50_8 C 0.2213(5) 0.6417(9) 0.6862(5)
H34_8 H 0.2433 0.6373 0.6707
H35_8 H 0.2191 0.5879 0.7031
H36_8 H 0.1984 0.6497 0.6649
C51_8 C 0.2094(4) 0.7135(9) 0.7570(5)
H37_8 H 0.2194 0.7631 0.7755
H38_8 H 0.1818 0.7183 0.7504
H39_8 H 0.2161 0.6584 0.7727
C52_8 C 0.2298(4) 0.8201(8) 0.5672(5)
H40_8 H 0.2115 0.8657 0.5656
C53_8 C 0.2475(4) 0.6690(8) 0.5460(5)
H41_8 H 0.2355 0.6142 0.5346
H42_8 H 0.2649 0.6893 0.5264
H43_8 H 0.2614 0.6587 0.5754
C54_8 C 0.1839(4) 0.6948(8) 0.5606(5)
H44_8 H 0.1803 0.6370 0.5465
H45_8 H 0.1866 0.6879 0.5925
H46_8 H 0.1620 0.7319 0.5506
N3_8 N 0.22596(15) 0.7147(4) 0.71525(18)
N4_8 N 0.2183(4) 0.7362(8) 0.5485(4)
O1_8 O 0.39188(8) 0.9533(2) 0.72834(9)
O2_8 O 0.32889(9) 0.9286(2) 0.71240(9)
O3_8 O 0.44324(9) 0.9889(4) 0.91905(11)
O7_8 O 0.39857(9) 0.81571(17) 0.66208(9)
O8_8 O 0.33559(9) 0.81284(19) 0.63923(11)
O9_8 O 0.28191(12) 0.4606(3) 0.69113(16)
O10_8 O 0.27038(11) 0.4698(2) 0.60893(17)
O13_8 O 0.22721(8) 0.9946(2) 0.62039(11)
O14_8 O 0.24791(8) 0.9968(2) 0.69262(11)
O21_8 O 0.25916(11) 0.8345(3) 0.58349(13)
O22_8 O 0.26069(11) 0.8025(3) 0.67634(14)
C42_8 C 0.98628(10) 0.3815(3) 0.66191(13)
H20_5 H 0.9675 0.3750 0.9853
H6_7 H 0.7015 0.0591 0.9891
H20_6 H 0.4675 0.8750 0.9853
H19_7 H 0.0005 0.5836 0.5200
H20_7 H 0.0325 0.6250 0.0147
H19_8 H 0.9995 0.5836 0.9800
H6_8 H 0.2985 0.9409 0.0109
H20_8 H 0.5325 0.1250 0.0147
loop_
_geom_bond_atom_site_label_1
_geom_bond_atom_site_label_2
_geom_bond_site_symmetry_1
_geom_bond_site_symmetry_2
C22 C21 1_555 1_555
C23 C22 1_555 1_555
H10 C23 1_555 1_555
C24 S2 1_555 1_555
C25 C23 1_555 1_555
H11 C25 1_555 1_555
C26 C24 1_555 1_555
H12 C26 1_555 1_555
C27 C25 1_555 1_555
C28 C27 1_555 1_555
O9 S2 1_555 1_555
O10 S2 1_555 1_555
O11 C28 1_555 1_555
O12 C28 1_555 1_555
Eu4 O12 1_555 1_555
Eu6 O11 1_555 1_555
C22 C24 1_555 1_555
C26 C27 1_555 1_555
Eu4 O2 1_555 1_555
Eu6 O1 1_555 1_555
S1 C5 1_555 1_555
S3 C33 1_555 1_555
C1 C2 1_555 1_555
C2 C3 1_555 1_555
C3 H1 1_555 1_555
C4 C2 1_555 1_555
H2 C4 1_555 1_555
C5 C3 1_555 1_555
C6 C4 1_555 1_555
H3 C6 1_555 1_555
C7 C5 1_555 1_555
C8 C7 1_555 1_555
C9 S1 1_555 1_555
C10 C8 1_555 1_555
H4 C10 1_555 1_555
C11 C9 1_555 1_555
C12 C10 1_555 1_555
C15 C16 1_555 1_555
C16 C17 1_555 1_555
C17 H7 1_555 1_555
C18 C16 1_555 1_555
H8 C18 1_555 1_555
C19 C17 1_555 1_555
H9 C19 1_555 1_555
C20 C18 1_555 1_555
C29 C30 1_555 1_555
C30 C31 1_555 1_555
C31 H13 1_555 1_555
C32 C30 1_555 1_555
H14 C32 1_555 1_555
C33 C31 1_555 1_555
C34 C32 1_555 1_555
H15 C34 1_555 1_555
C35 C33 1_555 1_555
C36 C35 1_555 1_555
C37 S3 1_555 1_555
C38 C36 1_555 1_555
H16 C38 1_555 1_555
C39 C37 1_555 1_555
H17 C39 1_555 1_555
C40 C38 1_555 1_555
H18 C40 1_555 1_555
C41 C39 1_555 1_555
C42 C41 1_555 1_555
H20 C43 1_555 1_555
H21 C43 1_555 1_555
C44 H22 1_555 1_555
C45 H23 1_555 1_555
H24 C45 1_555 1_555
H25 C45 1_555 1_555
C46 H26 1_555 1_555
C47 H27 1_555 1_555
H28 C47 1_555 1_555
H29 C47 1_555 1_555
C48 H30 1_555 1_555
H31 C48 1_555 1_555
H32 C48 1_555 1_555
C49 H33 1_555 1_555
C50 H34 1_555 1_555
H35 C50 1_555 1_555
H36 C50 1_555 1_555
C51 H37 1_555 1_555
H38 C51 1_555 1_555
H39 C51 1_555 1_555
C52 H40 1_555 1_555
C53 H41 1_555 1_555
H42 C53 1_555 1_555
H43 C53 1_555 1_555
C54 H44 1_555 1_555
H45 C54 1_555 1_555
H46 C54 1_555 1_555
N1 C46 1_555 1_555
N2 C43 1_555 1_555
N3 C49 1_555 1_555
N4 C52 1_555 1_555
O1 C1 1_555 1_555
O2 C1 1_555 1_555
O3 S1 1_555 1_555
O4 S1 1_555 1_555
O7 Eu6 1_555 1_555
O8 Eu4 1_555 1_555
O13 Eu4 1_555 1_555
O14 Eu4 1_555 1_555
O15 S3 1_555 1_555
O16 S3 1_555 1_555
O17 C42 1_555 1_555
O18 C42 1_555 1_555
O19 Eu6 1_555 1_555
O20 Eu6 1_555 1_555
O21 Eu4 1_555 1_555
O22 Eu4 1_555 1_555
Eu7 O17 1_555 1_555
O23 Eu6 1_555 1_555
O24 Eu4 1_555 1_555
O27 Eu6 1_555 1_555
O28 Eu6 1_555 1_555
C6 C7 1_555 1_555
C8 C9 1_555 1_555
C15 O7 1_555 1_555
C15 O8 1_555 1_555
C29 O13 1_555 1_555
C29 O14 1_555 1_555
C34 C35 1_555 1_555
C36 C37 1_555 1_555
C40 C41 1_555 1_555
C44 N2 1_555 1_555
C44 O19 1_555 1_555
C45 N2 1_555 1_555
C46 O20 1_555 1_555
C47 N1 1_555 1_555
C48 N1 1_555 1_555
C49 O22 1_555 1_555
C50 N3 1_555 1_555
C51 N3 1_555 1_555
C52 O21 1_555 1_555
C53 N4 1_555 1_555
C54 N4 1_555 1_555
O18 Eu7 1_555 1_555
C14 C13 1_555 1_555
O5 C14 1_555 1_555
O6 C14 1_555 1_555
Eu3 O6 1_555 1_555
Eu5 O5 1_555 1_555
O27 C42_2 1_555 1_555
O28 C42_2 1_555 1_555
Eu4_2 O2_2 1_555 1_555
Eu7 O1_2 1_555 1_555
S2_2 C20_2 1_555 1_555
C1_2 C2_2 1_555 1_555
C2_2 C3_2 1_555 1_555
C4_2 C2_2 1_555 1_555
H2_2 C4_2 1_555 1_555
C5_2 C3_2 1_555 1_555
C6_2 C4_2 1_555 1_555
H3_2 C6_2 1_555 1_555
C7_2 C5_2 1_555 1_555
C8_2 C7_2 1_555 1_555
C10_2 C8_2 1_555 1_555
H4_2 C10_2 1_555 1_555
C12_2 C10_2 1_555 1_555
C15_2 C16_2 1_555 1_555
C16_2 C17_2 1_555 1_555
C17_2 H7_2 1_555 1_555
C18_2 C16_2 1_555 1_555
H8_2 C18_2 1_555 1_555
C19_2 C17_2 1_555 1_555
H9_2 C19_2 1_555 1_555
C20_2 C18_2 1_555 1_555
C21_2 C19_2 1_555 1_555
C22_2 C21_2 1_555 1_555
C23_2 C22_2 1_555 1_555
H10_2 C23_2 1_555 1_555
C24_2 S2_2 1_555 1_555
C25_2 C23_2 1_555 1_555
H11_2 C25_2 1_555 1_555
C26_2 C24_2 1_555 1_555
H12_2 C26_2 1_555 1_555
C27_2 C25_2 1_555 1_555
C28_2 C27_2 1_555 1_555
C49_2 H33_2 1_555 1_555
C50_2 H34_2 1_555 1_555
H35_2 C50_2 1_555 1_555
H36_2 C50_2 1_555 1_555
C51_2 H37_2 1_555 1_555
H38_2 C51_2 1_555 1_555
H39_2 C51_2 1_555 1_555
C52_2 H40_2 1_555 1_555
C53_2 H41_2 1_555 1_555
H42_2 C53_2 1_555 1_555
H43_2 C53_2 1_555 1_555
C54_2 H44_2 1_555 1_555
H45_2 C54_2 1_555 1_555
H46_2 C54_2 1_555 1_555
N3_2 C49_2 1_555 1_555
N4_2 C52_2 1_555 1_555
O1_2 C1_2 1_555 1_555
O2_2 C1_2 1_555 1_555
O7_2 Eu7 1_555 1_555
O8_2 Eu4_2 1_555 1_555
O9_2 S2_2 1_555 1_555
O10_2 S2_2 1_555 1_555
O11_2 C28_2 1_555 1_555
O12_2 C28_2 1_555 1_555
O13_2 Eu4_2 1_555 1_555
O14_2 Eu4_2 1_555 1_555
O21_2 Eu4_2 1_555 1_555
O22_2 Eu4_2 1_555 1_555
O23_2 Eu7 1_555 1_555
O24_2 Eu4_2 1_555 1_555
C6_2 C7_2 1_555 1_555
C15_2 O7_2 1_555 1_555
C15_2 O8_2 1_555 1_555
C20_2 C21_2 1_555 1_555
C22_2 C24_2 1_555 1_555
C26_2 C27_2 1_555 1_555
C49_2 O22_2 1_555 1_555
C50_2 N3_2 1_555 1_555
C51_2 N3_2 1_555 1_555
C52_2 O21_2 1_555 1_555
C53_2 N4_2 1_555 1_555
C54_2 N4_2 1_555 1_555
S3_2 C33_2 1_555 1_555
C9_2 S1_2 1_555 1_555
C11_2 C9_2 1_555 1_555
C29_2 C30_2 1_555 1_555
C30_2 C31_2 1_555 1_555
C31_2 H13_2 1_555 1_555
C32_2 C30_2 1_555 1_555
H14_2 C32_2 1_555 1_555
C33_2 C31_2 1_555 1_555
C34_2 C32_2 1_555 1_555
H15_2 C34_2 1_555 1_555
C35_2 C33_2 1_555 1_555
C36_2 C35_2 1_555 1_555
C37_2 S3_2 1_555 1_555
C38_2 C36_2 1_555 1_555
H16_2 C38_2 1_555 1_555
C39_2 C37_2 1_555 1_555
H17_2 C39_2 1_555 1_555
C40_2 C38_2 1_555 1_555
H18_2 C40_2 1_555 1_555
C41_2 C39_2 1_555 1_555
C43_2 H19 1_555 1_555
H20_2 C43_2 1_555 1_555
H21_2 C43_2 1_555 1_555
C44_2 H22_2 1_555 1_555
C45_2 H23_2 1_555 1_555
H24_2 C45_2 1_555 1_555
H25_2 C45_2 1_555 1_555
C46_2 H26_2 1_555 1_555
C47_2 H27_2 1_555 1_555
H28_2 C47_2 1_555 1_555
H29_2 C47_2 1_555 1_555
C48_2 H30_2 1_555 1_555
H31_2 C48_2 1_555 1_555
H32_2 C48_2 1_555 1_555
N1_2 C46_2 1_555 1_555
N2_2 C43_2 1_555 1_555
O4_2 S1_2 1_555 1_555
O15_2 S3_2 1_555 1_555
O16_2 S3_2 1_555 1_555
C34_2 C35_2 1_555 1_555
C36_2 C37_2 1_555 1_555
C40_2 C41_2 1_555 1_555
C44_2 N2_2 1_555 1_555
C44_2 O19_2 1_555 1_555
C45_2 N2_2 1_555 1_555
C46_2 O20_2 1_555 1_555
C47_2 N1_2 1_555 1_555
C48_2 N1_2 1_555 1_555
C14_2 C13_2 1_555 1_555
O5_2 C14_2 1_555 1_555
O6_2 C14_2 1_555 1_555
Eu3_2 O6_2 1_555 1_555
Eu5_2 O5_2 1_555 1_555
Eu3 O2_3 1_555 1_555
Eu5 O1_3 1_555 1_555
S1_3 C5_3 1_555 1_555
S3_3 C33_3 1_555 1_555
C1_3 C2_3 1_555 1_555
C2_3 C3_3 1_555 1_555
C3_3 H1_3 1_555 1_555
C4_3 C2_3 1_555 1_555
H2_3 C4_3 1_555 1_555
C5_3 C3_3 1_555 1_555
C6_3 C4_3 1_555 1_555
H3_3 C6_3 1_555 1_555
C7_3 C5_3 1_555 1_555
C8_3 C7_3 1_555 1_555
C9_3 S1_3 1_555 1_555
C10_3 C8_3 1_555 1_555
H4_3 C10_3 1_555 1_555
C11_3 C9_3 1_555 1_555
H5_3 C11_3 1_555 1_555
C12_3 C10_3 1_555 1_555
H6_2 C12_3 1_555 1_555
C13_3 C11_3 1_555 1_555
C14_3 C13_3 1_555 1_555
C15_3 C16_3 1_555 1_555
C16_3 C17_3 1_555 1_555
C17_3 H7_3 1_555 1_555
C18_3 C16_3 1_555 1_555
H8_3 C18_3 1_555 1_555
C19_3 C17_3 1_555 1_555
H9_3 C19_3 1_555 1_555
C20_3 C18_3 1_555 1_555
C29_3 C30_3 1_555 1_555
C30_3 C31_3 1_555 1_555
C31_3 H13_3 1_555 1_555
C32_3 C30_3 1_555 1_555
H14_3 C32_3 1_555 1_555
C33_3 C31_3 1_555 1_555
C34_3 C32_3 1_555 1_555
H15_3 C34_3 1_555 1_555
C35_3 C33_3 1_555 1_555
C36_3 C35_3 1_555 1_555
C37_3 S3_3 1_555 1_555
C38_3 C36_3 1_555 1_555
H16_3 C38_3 1_555 1_555
C39_3 C37_3 1_555 1_555
H17_3 C39_3 1_555 1_555
C40_3 C38_3 1_555 1_555
H18_3 C40_3 1_555 1_555
C41_3 C39_3 1_555 1_555
C42_3 C41_3 1_555 1_555
H21_3 C43_3 1_555 1_555
C44_3 H22_3 1_555 1_555
C45_3 H23_3 1_555 1_555
H24_3 C45_3 1_555 1_555
H25_3 C45_3 1_555 1_555
C46_3 H26_3 1_555 1_555
C47_3 H27_3 1_555 1_555
H28_3 C47_3 1_555 1_555
H29_3 C47_3 1_555 1_555
C48_3 H30_3 1_555 1_555
H31_3 C48_3 1_555 1_555
H32_3 C48_3 1_555 1_555
C49_3 H33_3 1_555 1_555
C50_3 H34_3 1_555 1_555
H35_3 C50_3 1_555 1_555
H36_3 C50_3 1_555 1_555
C51_3 H37_3 1_555 1_555
H38_3 C51_3 1_555 1_555
H39_3 C51_3 1_555 1_555
C52_3 H40_3 1_555 1_555
C53_3 H41_3 1_555 1_555
H42_3 C53_3 1_555 1_555
H43_3 C53_3 1_555 1_555
C54_3 H44_3 1_555 1_555
H45_3 C54_3 1_555 1_555
H46_3 C54_3 1_555 1_555
N1_3 C46_3 1_555 1_555
N2_3 C43_3 1_555 1_555
N3_3 C49_3 1_555 1_555
N4_3 C52_3 1_555 1_555
O1_3 C1_3 1_555 1_555
O2_3 C1_3 1_555 1_555
O3_3 S1_3 1_555 1_555
O4_3 S1_3 1_555 1_555
O23 C14_3 1_555 1_555
O24 C14_3 1_555 1_555
O7_3 Eu5 1_555 1_555
O8_3 Eu3 1_555 1_555
O13_3 Eu3 1_555 1_555
O14_3 Eu3 1_555 1_555
O15_3 S3_3 1_555 1_555
O16_3 S3_3 1_555 1_555
O17_2 C42_3 1_555 1_555
O18_2 C42_3 1_555 1_555
O19_3 Eu5 1_555 1_555
O20_3 Eu5 1_555 1_555
O21_3 Eu3 1_555 1_555
O22_3 Eu3 1_555 1_555
Eu5_2 O17_2 1_555 1_555
O25 Eu5 1_555 1_555
O26 Eu3 1_555 1_555
O27_2 Eu5 1_555 1_555
O28_2 Eu5 1_555 1_555
C6_3 C7_3 1_555 1_555
C8_3 C9_3 1_555 1_555
C12_3 C13_3 1_555 1_555
C15_3 O7_3 1_555 1_555
C15_3 O8_3 1_555 1_555
C29_3 O13_3 1_555 1_555
C29_3 O14_3 1_555 1_555
C34_3 C35_3 1_555 1_555
C36_3 C37_3 1_555 1_555
C40_3 C41_3 1_555 1_555
C44_3 N2_3 1_555 1_555
C44_3 O19_3 1_555 1_555
C45_3 N2_3 1_555 1_555
C46_3 O20_3 1_555 1_555
C47_3 N1_3 1_555 1_555
C48_3 N1_3 1_555 1_555
C49_3 O22_3 1_555 1_555
C50_3 N3_3 1_555 1_555
C51_3 N3_3 1_555 1_555
C52_3 O21_3 1_555 1_555
C53_3 N4_3 1_555 1_555
C54_3 N4_3 1_555 1_555
O18_2 Eu5_2 1_555 1_555
C22_3 C21_3 1_555 1_555
C23_3 C22_3 1_555 1_555
H10_3 C23_3 1_555 1_555
C24_3 S2_3 1_555 1_555
C25_3 C23_3 1_555 1_555
H11_3 C25_3 1_555 1_555
C26_3 C24_3 1_555 1_555
H12_3 C26_3 1_555 1_555
C27_3 C25_3 1_555 1_555
C28_3 C27_3 1_555 1_555
O9_3 S2_3 1_555 1_555
O10_3 S2_3 1_555 1_555
O25 C28_3 1_555 1_555
O26 C28_3 1_555 1_555
C22_3 C24_3 1_555 1_555
C26_3 C27_3 1_555 1_555
O27_2 C42_4 1_555 1_555
O28_2 C42_4 1_555 1_555
S3_4 C33_4 1_555 1_555
C9_4 S1_4 1_555 1_555
C11_4 C9_4 1_555 1_555
H5_4 C11_4 1_555 1_555
C13_4 C11_4 1_555 1_555
C14_4 C13_4 1_555 1_555
C29_4 C30_4 1_555 1_555
C30_4 C31_4 1_555 1_555
C31_4 H13_4 1_555 1_555
C32_4 C30_4 1_555 1_555
H14_4 C32_4 1_555 1_555
C33_4 C31_4 1_555 1_555
C34_4 C32_4 1_555 1_555
H15_4 C34_4 1_555 1_555
C35_4 C33_4 1_555 1_555
C36_4 C35_4 1_555 1_555
C37_4 S3_4 1_555 1_555
C38_4 C36_4 1_555 1_555
H16_4 C38_4 1_555 1_555
C39_4 C37_4 1_555 1_555
H17_4 C39_4 1_555 1_555
C40_4 C38_4 1_555 1_555
H18_4 C40_4 1_555 1_555
C41_4 C39_4 1_555 1_555
C43_4 H19_2 1_555 1_555
H21_4 C43_4 1_555 1_555
C44_4 H22_4 1_555 1_555
C45_4 H23_4 1_555 1_555
H24_4 C45_4 1_555 1_555
H25_4 C45_4 1_555 1_555
C46_4 H26_4 1_555 1_555
C47_4 H27_4 1_555 1_555
H28_4 C47_4 1_555 1_555
H29_4 C47_4 1_555 1_555
C48_4 H30_4 1_555 1_555
H31_4 C48_4 1_555 1_555
H32_4 C48_4 1_555 1_555
N1_4 C46_4 1_555 1_555
N2_4 C43_4 1_555 1_555
O4_4 S1_4 1_555 1_555
O23_2 C14_4 1_555 1_555
O24_2 C14_4 1_555 1_555
O15_4 S3_4 1_555 1_555
O16_4 S3_4 1_555 1_555
C34_4 C35_4 1_555 1_555
C36_4 C37_4 1_555 1_555
C40_4 C41_4 1_555 1_555
C44_4 N2_4 1_555 1_555
C44_4 O19_4 1_555 1_555
C45_4 N2_4 1_555 1_555
C46_4 O20_4 1_555 1_555
C47_4 N1_4 1_555 1_555
C48_4 N1_4 1_555 1_555
Eu3_2 O2_4 1_555 1_555
Eu5_2 O1_4 1_555 1_555
S2_4 C20_4 1_555 1_555
C1_4 C2_4 1_555 1_555
C2_4 C3_4 1_555 1_555
C4_4 C2_4 1_555 1_555
H2_4 C4_4 1_555 1_555
C5_4 C3_4 1_555 1_555
C6_4 C4_4 1_555 1_555
H3_4 C6_4 1_555 1_555
C7_4 C5_4 1_555 1_555
C8_4 C7_4 1_555 1_555
C10_4 C8_4 1_555 1_555
H4_4 C10_4 1_555 1_555
C12_4 C10_4 1_555 1_555
H6_3 C12_4 1_555 1_555
C15_4 C16_4 1_555 1_555
C16_4 C17_4 1_555 1_555
C17_4 H7_4 1_555 1_555
C18_4 C16_4 1_555 1_555
H8_4 C18_4 1_555 1_555
C19_4 C17_4 1_555 1_555
H9_4 C19_4 1_555 1_555
C20_4 C18_4 1_555 1_555
C21_4 C19_4 1_555 1_555
C22_4 C21_4 1_555 1_555
C23_4 C22_4 1_555 1_555
H10_4 C23_4 1_555 1_555
C24_4 S2_4 1_555 1_555
C25_4 C23_4 1_555 1_555
H11_4 C25_4 1_555 1_555
C26_4 C24_4 1_555 1_555
H12_4 C26_4 1_555 1_555
C27_4 C25_4 1_555 1_555
C28_4 C27_4 1_555 1_555
C49_4 H33_4 1_555 1_555
C50_4 H34_4 1_555 1_555
H35_4 C50_4 1_555 1_555
H36_4 C50_4 1_555 1_555
C51_4 H37_4 1_555 1_555
H38_4 C51_4 1_555 1_555
H39_4 C51_4 1_555 1_555
C52_4 H40_4 1_555 1_555
C53_4 H41_4 1_555 1_555
H42_4 C53_4 1_555 1_555
H43_4 C53_4 1_555 1_555
C54_4 H44_4 1_555 1_555
H45_4 C54_4 1_555 1_555
H46_4 C54_4 1_555 1_555
N3_4 C49_4 1_555 1_555
N4_4 C52_4 1_555 1_555
O1_4 C1_4 1_555 1_555
O2_4 C1_4 1_555 1_555
O7_4 Eu5_2 1_555 1_555
O8_4 Eu3_2 1_555 1_555
O9_4 S2_4 1_555 1_555
O10_4 S2_4 1_555 1_555
O25_2 C28_4 1_555 1_555
O26_2 C28_4 1_555 1_555
O13_4 Eu3_2 1_555 1_555
O14_4 Eu3_2 1_555 1_555
O21_4 Eu3_2 1_555 1_555
O22_4 Eu3_2 1_555 1_555
C6_4 C7_4 1_555 1_555
C15_4 O7_4 1_555 1_555
C15_4 O8_4 1_555 1_555
C20_4 C21_4 1_555 1_555
C22_4 C24_4 1_555 1_555
C26_4 C27_4 1_555 1_555
C49_4 O22_4 1_555 1_555
C50_4 N3_4 1_555 1_555
C51_4 N3_4 1_555 1_555
C52_4 O21_4 1_555 1_555
C53_4 N4_4 1_555 1_555
C54_4 N4_4 1_555 1_555
C22_5 C21_5 1_555 1_555
C23_5 C22_5 1_555 1_555
H10_5 C23_5 1_555 1_555
C24_5 S2_5 1_555 1_555
C25_5 C23_5 1_555 1_555
H11_5 C25_5 1_555 1_555
C26_5 C24_5 1_555 1_555
H12_5 C26_5 1_555 1_555
C27_5 C25_5 1_555 1_555
C28_5 C27_5 1_555 1_555
O9_5 S2_5 1_555 1_555
O10_5 S2_5 1_555 1_555
O11_3 C28_5 1_555 1_555
O12_3 C28_5 1_555 1_555
Eu4_3 O12_3 1_555 1_555
Eu6_2 O11_3 1_555 1_555
C22_5 C24_5 1_555 1_555
C26_5 C27_5 1_555 1_555
Eu4_3 O2_5 1_555 1_555
Eu6_2 O1_5 1_555 1_555
S1_5 C5_5 1_555 1_555
S3_5 C33_5 1_555 1_555
C1_5 C2_5 1_555 1_555
C2_5 C3_5 1_555 1_555
C3_5 H1_5 1_555 1_555
C4_5 C2_5 1_555 1_555
H2_5 C4_5 1_555 1_555
C5_5 C3_5 1_555 1_555
C6_5 C4_5 1_555 1_555
H3_5 C6_5 1_555 1_555
C7_5 C5_5 1_555 1_555
C8_5 C7_5 1_555 1_555
C9_5 S1_5 1_555 1_555
C10_5 C8_5 1_555 1_555
H4_5 C10_5 1_555 1_555
C11_5 C9_5 1_555 1_555
H5_5 C11_5 1_555 1_555
C12_5 C10_5 1_555 1_555
H6_4 C12_5 1_555 1_555
C13_5 C11_5 1_555 1_555
C14_5 C13_5 1_555 1_555
C15_5 C16_5 1_555 1_555
C16_5 C17_5 1_555 1_555
C17_5 H7_5 1_555 1_555
C18_5 C16_5 1_555 1_555
H8_5 C18_5 1_555 1_555
C19_5 C17_5 1_555 1_555
H9_5 C19_5 1_555 1_555
C20_5 C18_5 1_555 1_555
C29_5 C30_5 1_555 1_555
C30_5 C31_5 1_555 1_555
C31_5 H13_5 1_555 1_555
C32_5 C30_5 1_555 1_555
H14_5 C32_5 1_555 1_555
C33_5 C31_5 1_555 1_555
C34_5 C32_5 1_555 1_555
H15_5 C34_5 1_555 1_555
C35_5 C33_5 1_555 1_555
C36_5 C35_5 1_555 1_555
C37_5 S3_5 1_555 1_555
C38_5 C36_5 1_555 1_555
H16_5 C38_5 1_555 1_555
C39_5 C37_5 1_555 1_555
H17_5 C39_5 1_555 1_555
C40_5 C38_5 1_555 1_555
H18_5 C40_5 1_555 1_555
C41_5 C39_5 1_555 1_555
C42_5 C41_5 1_555 1_555
H21_5 C43_5 1_555 1_555
C44_5 H22_5 1_555 1_555
C45_5 H23_5 1_555 1_555
H24_5 C45_5 1_555 1_555
H25_5 C45_5 1_555 1_555
C46_5 H26_5 1_555 1_555
C47_5 H27_5 1_555 1_555
H28_5 C47_5 1_555 1_555
H29_5 C47_5 1_555 1_555
C48_5 H30_5 1_555 1_555
H31_5 C48_5 1_555 1_555
H32_5 C48_5 1_555 1_555
C49_5 H33_5 1_555 1_555
C50_5 H34_5 1_555 1_555
H35_5 C50_5 1_555 1_555
H36_5 C50_5 1_555 1_555
C51_5 H37_5 1_555 1_555
H38_5 C51_5 1_555 1_555
H39_5 C51_5 1_555 1_555
C52_5 H40_5 1_555 1_555
C53_5 H41_5 1_555 1_555
H42_5 C53_5 1_555 1_555
H43_5 C53_5 1_555 1_555
C54_5 H44_5 1_555 1_555
H45_5 C54_5 1_555 1_555
H46_5 C54_5 1_555 1_555
N1_5 C46_5 1_555 1_555
N2_5 C43_5 1_555 1_555
N3_5 C49_5 1_555 1_555
N4_5 C52_5 1_555 1_555
O1_5 C1_5 1_555 1_555
O2_5 C1_5 1_555 1_555
O3_5 S1_5 1_555 1_555
O4_5 S1_5 1_555 1_555
O5_3 C14_5 1_555 1_555
O6_3 C14_5 1_555 1_555
O7_5 Eu6_2 1_555 1_555
O8_5 Eu4_3 1_555 1_555
O13_5 Eu4_3 1_555 1_555
O14_5 Eu4_3 1_555 1_555
O15_5 S3_5 1_555 1_555
O16_5 S3_5 1_555 1_555
O17_3 C42_5 1_555 1_555
O18_3 C42_5 1_555 1_555
O19_5 Eu6_2 1_555 1_555
O20_5 Eu6_2 1_555 1_555
O21_5 Eu4_3 1_555 1_555
O22_5 Eu4_3 1_555 1_555
Eu3_3 O6_3 1_555 1_555
Eu5_3 O5_3 1_555 1_555
Eu7_2 O17_3 1_555 1_555
O23_3 Eu6_2 1_555 1_555
O24_3 Eu4_3 1_555 1_555
O27_3 Eu6_2 1_555 1_555
O28_3 Eu6_2 1_555 1_555
C6_5 C7_5 1_555 1_555
C8_5 C9_5 1_555 1_555
C12_5 C13_5 1_555 1_555
C15_5 O7_5 1_555 1_555
C15_5 O8_5 1_555 1_555
C29_5 O13_5 1_555 1_555
C29_5 O14_5 1_555 1_555
C34_5 C35_5 1_555 1_555
C36_5 C37_5 1_555 1_555
C40_5 C41_5 1_555 1_555
C44_5 N2_5 1_555 1_555
C44_5 O19_5 1_555 1_555
C45_5 N2_5 1_555 1_555
C46_5 O20_5 1_555 1_555
C47_5 N1_5 1_555 1_555
C48_5 N1_5 1_555 1_555
C49_5 O22_5 1_555 1_555
C50_5 N3_5 1_555 1_555
C51_5 N3_5 1_555 1_555
C52_5 O21_5 1_555 1_555
C53_5 N4_5 1_555 1_555
C54_5 N4_5 1_555 1_555
O18_3 Eu7_2 1_555 1_555
Eu4_4 O2_6 1_555 1_555
Eu7_2 O1_6 1_555 1_555
S2_6 C20_6 1_555 1_555
C1_6 C2_6 1_555 1_555
C2_6 C3_6 1_555 1_555
C4_6 C2_6 1_555 1_555
H2_6 C4_6 1_555 1_555
C5_6 C3_6 1_555 1_555
C6_6 C4_6 1_555 1_555
H3_6 C6_6 1_555 1_555
C7_6 C5_6 1_555 1_555
C8_6 C7_6 1_555 1_555
C10_6 C8_6 1_555 1_555
H4_6 C10_6 1_555 1_555
C12_6 C10_6 1_555 1_555
H6_5 C12_6 1_555 1_555
C15_6 C16_6 1_555 1_555
C16_6 C17_6 1_555 1_555
C17_6 H7_6 1_555 1_555
C18_6 C16_6 1_555 1_555
H8_6 C18_6 1_555 1_555
C19_6 C17_6 1_555 1_555
H9_6 C19_6 1_555 1_555
C20_6 C18_6 1_555 1_555
C21_6 C19_6 1_555 1_555
C22_6 C21_6 1_555 1_555
C23_6 C22_6 1_555 1_555
H10_6 C23_6 1_555 1_555
C24_6 S2_6 1_555 1_555
C25_6 C23_6 1_555 1_555
H11_6 C25_6 1_555 1_555
C26_6 C24_6 1_555 1_555
H12_6 C26_6 1_555 1_555
C27_6 C25_6 1_555 1_555
C28_6 C27_6 1_555 1_555
C49_6 H33_6 1_555 1_555
C50_6 H34_6 1_555 1_555
H35_6 C50_6 1_555 1_555
H36_6 C50_6 1_555 1_555
C51_6 H37_6 1_555 1_555
H38_6 C51_6 1_555 1_555
H39_6 C51_6 1_555 1_555
C52_6 H40_6 1_555 1_555
C53_6 H41_6 1_555 1_555
H42_6 C53_6 1_555 1_555
H43_6 C53_6 1_555 1_555
C54_6 H44_6 1_555 1_555
H45_6 C54_6 1_555 1_555
H46_6 C54_6 1_555 1_555
N3_6 C49_6 1_555 1_555
N4_6 C52_6 1_555 1_555
O1_6 C1_6 1_555 1_555
O2_6 C1_6 1_555 1_555
O7_6 Eu7_2 1_555 1_555
O8_6 Eu4_4 1_555 1_555
O9_6 S2_6 1_555 1_555
O10_6 S2_6 1_555 1_555
O11_4 C28_6 1_555 1_555
O12_4 C28_6 1_555 1_555
O13_6 Eu4_4 1_555 1_555
O14_6 Eu4_4 1_555 1_555
O21_6 Eu4_4 1_555 1_555
O22_6 Eu4_4 1_555 1_555
O23_4 Eu7_2 1_555 1_555
O24_4 Eu4_4 1_555 1_555
C6_6 C7_6 1_555 1_555
C15_6 O7_6 1_555 1_555
C15_6 O8_6 1_555 1_555
C20_6 C21_6 1_555 1_555
C22_6 C24_6 1_555 1_555
C26_6 C27_6 1_555 1_555
C49_6 O22_6 1_555 1_555
C50_6 N3_6 1_555 1_555
C51_6 N3_6 1_555 1_555
C52_6 O21_6 1_555 1_555
C53_6 N4_6 1_555 1_555
C54_6 N4_6 1_555 1_555
S3_6 C33_6 1_555 1_555
C9_6 S1_6 1_555 1_555
C11_6 C9_6 1_555 1_555
H5_6 C11_6 1_555 1_555
C13_6 C11_6 1_555 1_555
C14_6 C13_6 1_555 1_555
C29_6 C30_6 1_555 1_555
C30_6 C31_6 1_555 1_555
C31_6 H13_6 1_555 1_555
C32_6 C30_6 1_555 1_555
H14_6 C32_6 1_555 1_555
C33_6 C31_6 1_555 1_555
C34_6 C32_6 1_555 1_555
H15_6 C34_6 1_555 1_555
C35_6 C33_6 1_555 1_555
C36_6 C35_6 1_555 1_555
C37_6 S3_6 1_555 1_555
C38_6 C36_6 1_555 1_555
H16_6 C38_6 1_555 1_555
C39_6 C37_6 1_555 1_555
H17_6 C39_6 1_555 1_555
C40_6 C38_6 1_555 1_555
H18_6 C40_6 1_555 1_555
C41_6 C39_6 1_555 1_555
C43_6 H19_5 1_555 1_555
H21_6 C43_6 1_555 1_555
C44_6 H22_6 1_555 1_555
C45_6 H23_6 1_555 1_555
H24_6 C45_6 1_555 1_555
H25_6 C45_6 1_555 1_555
C46_6 H26_6 1_555 1_555
C47_6 H27_6 1_555 1_555
H28_6 C47_6 1_555 1_555
H29_6 C47_6 1_555 1_555
C48_6 H30_6 1_555 1_555
H31_6 C48_6 1_555 1_555
H32_6 C48_6 1_555 1_555
N1_6 C46_6 1_555 1_555
N2_6 C43_6 1_555 1_555
O4_6 S1_6 1_555 1_555
O5_4 C14_6 1_555 1_555
O6_4 C14_6 1_555 1_555
O15_6 S3_6 1_555 1_555
O16_6 S3_6 1_555 1_555
Eu3_4 O6_4 1_555 1_555
Eu5_4 O5_4 1_555 1_555
C34_6 C35_6 1_555 1_555
C36_6 C37_6 1_555 1_555
C40_6 C41_6 1_555 1_555
C44_6 N2_6 1_555 1_555
C44_6 O19_6 1_555 1_555
C45_6 N2_6 1_555 1_555
C46_6 O20_6 1_555 1_555
C47_6 N1_6 1_555 1_555
C48_6 N1_6 1_555 1_555
O27_3 C42_6 1_555 1_555
O28_3 C42_6 1_555 1_555
C14_7 C13_7 1_555 1_555
O23_3 C14_7 1_555 1_555
O24_3 C14_7 1_555 1_555
Eu3_3 O2_7 1_555 1_555
Eu5_3 O1_7 1_555 1_555
S1_7 C5_7 1_555 1_555
S3_7 C33_7 1_555 1_555
C1_7 C2_7 1_555 1_555
C2_7 C3_7 1_555 1_555
C3_7 H1_7 1_555 1_555
C4_7 C2_7 1_555 1_555
H2_7 C4_7 1_555 1_555
C5_7 C3_7 1_555 1_555
C6_7 C4_7 1_555 1_555
H3_7 C6_7 1_555 1_555
C7_7 C5_7 1_555 1_555
C8_7 C7_7 1_555 1_555
C9_7 S1_7 1_555 1_555
C10_7 C8_7 1_555 1_555
H4_7 C10_7 1_555 1_555
C11_7 C9_7 1_555 1_555
C12_7 C10_7 1_555 1_555
C15_7 C16_7 1_555 1_555
C16_7 C17_7 1_555 1_555
C17_7 H7_7 1_555 1_555
C18_7 C16_7 1_555 1_555
H8_7 C18_7 1_555 1_555
C19_7 C17_7 1_555 1_555
H9_7 C19_7 1_555 1_555
C20_7 C18_7 1_555 1_555
C29_7 C30_7 1_555 1_555
C30_7 C31_7 1_555 1_555
C31_7 H13_7 1_555 1_555
C32_7 C30_7 1_555 1_555
H14_7 C32_7 1_555 1_555
C33_7 C31_7 1_555 1_555
C34_7 C32_7 1_555 1_555
H15_7 C34_7 1_555 1_555
C35_7 C33_7 1_555 1_555
C36_7 C35_7 1_555 1_555
C37_7 S3_7 1_555 1_555
C38_7 C36_7 1_555 1_555
H16_7 C38_7 1_555 1_555
C39_7 C37_7 1_555 1_555
H17_7 C39_7 1_555 1_555
C40_7 C38_7 1_555 1_555
H18_7 C40_7 1_555 1_555
C41_7 C39_7 1_555 1_555
C42_7 C41_7 1_555 1_555
H20_3 C43_7 1_555 1_555
H21_7 C43_7 1_555 1_555
C44_7 H22_7 1_555 1_555
C45_7 H23_7 1_555 1_555
H24_7 C45_7 1_555 1_555
H25_7 C45_7 1_555 1_555
C46_7 H26_7 1_555 1_555
C47_7 H27_7 1_555 1_555
H28_7 C47_7 1_555 1_555
H29_7 C47_7 1_555 1_555
C48_7 H30_7 1_555 1_555
H31_7 C48_7 1_555 1_555
H32_7 C48_7 1_555 1_555
C49_7 H33_7 1_555 1_555
C50_7 H34_7 1_555 1_555
H35_7 C50_7 1_555 1_555
H36_7 C50_7 1_555 1_555
C51_7 H37_7 1_555 1_555
H38_7 C51_7 1_555 1_555
H39_7 C51_7 1_555 1_555
C52_7 H40_7 1_555 1_555
C53_7 H41_7 1_555 1_555
H42_7 C53_7 1_555 1_555
H43_7 C53_7 1_555 1_555
C54_7 H44_7 1_555 1_555
H45_7 C54_7 1_555 1_555
H46_7 C54_7 1_555 1_555
N1_7 C46_7 1_555 1_555
N2_7 C43_7 1_555 1_555
N3_7 C49_7 1_555 1_555
N4_7 C52_7 1_555 1_555
O1_7 C1_7 1_555 1_555
O2_7 C1_7 1_555 1_555
O3_7 S1_7 1_555 1_555
O4_7 S1_7 1_555 1_555
O7_7 Eu5_3 1_555 1_555
O8_7 Eu3_3 1_555 1_555
O13_7 Eu3_3 1_555 1_555
O14_7 Eu3_3 1_555 1_555
O15_7 S3_7 1_555 1_555
O16_7 S3_7 1_555 1_555
O17_4 C42_7 1_555 1_555
O18_4 C42_7 1_555 1_555
O19_7 Eu5_3 1_555 1_555
O20_7 Eu5_3 1_555 1_555
O21_7 Eu3_3 1_555 1_555
O22_7 Eu3_3 1_555 1_555
Eu5_4 O17_4 1_555 1_555
O25_3 Eu5_3 1_555 1_555
O26_3 Eu3_3 1_555 1_555
O27_4 Eu5_3 1_555 1_555
O28_4 Eu5_3 1_555 1_555
C6_7 C7_7 1_555 1_555
C8_7 C9_7 1_555 1_555
C15_7 O7_7 1_555 1_555
C15_7 O8_7 1_555 1_555
C29_7 O13_7 1_555 1_555
C29_7 O14_7 1_555 1_555
C34_7 C35_7 1_555 1_555
C36_7 C37_7 1_555 1_555
C40_7 C41_7 1_555 1_555
C44_7 N2_7 1_555 1_555
C44_7 O19_7 1_555 1_555
C45_7 N2_7 1_555 1_555
C46_7 O20_7 1_555 1_555
C47_7 N1_7 1_555 1_555
C48_7 N1_7 1_555 1_555
C49_7 O22_7 1_555 1_555
C50_7 N3_7 1_555 1_555
C51_7 N3_7 1_555 1_555
C52_7 O21_7 1_555 1_555
C53_7 N4_7 1_555 1_555
C54_7 N4_7 1_555 1_555
O18_4 Eu5_4 1_555 1_555
C22_7 C21_7 1_555 1_555
C23_7 C22_7 1_555 1_555
H10_7 C23_7 1_555 1_555
C24_7 S2_7 1_555 1_555
C25_7 C23_7 1_555 1_555
H11_7 C25_7 1_555 1_555
C26_7 C24_7 1_555 1_555
H12_7 C26_7 1_555 1_555
C27_7 C25_7 1_555 1_555
C28_7 C27_7 1_555 1_555
O9_7 S2_7 1_555 1_555
O10_7 S2_7 1_555 1_555
O25_3 C28_7 1_555 1_555
O26_3 C28_7 1_555 1_555
C22_7 C24_7 1_555 1_555
C26_7 C27_7 1_555 1_555
C14_8 C13_8 1_555 1_555
O23_4 C14_8 1_555 1_555
O24_4 C14_8 1_555 1_555
S3_8 C33_8 1_555 1_555
C9_8 S1_8 1_555 1_555
C11_8 C9_8 1_555 1_555
C29_8 C30_8 1_555 1_555
C30_8 C31_8 1_555 1_555
C31_8 H13_8 1_555 1_555
C32_8 C30_8 1_555 1_555
H14_8 C32_8 1_555 1_555
C33_8 C31_8 1_555 1_555
C34_8 C32_8 1_555 1_555
H15_8 C34_8 1_555 1_555
C35_8 C33_8 1_555 1_555
C36_8 C35_8 1_555 1_555
C37_8 S3_8 1_555 1_555
C38_8 C36_8 1_555 1_555
H16_8 C38_8 1_555 1_555
C39_8 C37_8 1_555 1_555
H17_8 C39_8 1_555 1_555
C40_8 C38_8 1_555 1_555
H18_8 C40_8 1_555 1_555
C41_8 C39_8 1_555 1_555
C43_8 H19_6 1_555 1_555
H20_4 C43_8 1_555 1_555
H21_8 C43_8 1_555 1_555
C44_8 H22_8 1_555 1_555
C45_8 H23_8 1_555 1_555
H24_8 C45_8 1_555 1_555
H25_8 C45_8 1_555 1_555
C46_8 H26_8 1_555 1_555
C47_8 H27_8 1_555 1_555
H28_8 C47_8 1_555 1_555
H29_8 C47_8 1_555 1_555
C48_8 H30_8 1_555 1_555
H31_8 C48_8 1_555 1_555
H32_8 C48_8 1_555 1_555
N1_8 C46_8 1_555 1_555
N2_8 C43_8 1_555 1_555
O4_8 S1_8 1_555 1_555
O15_8 S3_8 1_555 1_555
O16_8 S3_8 1_555 1_555
C34_8 C35_8 1_555 1_555
C36_8 C37_8 1_555 1_555
C40_8 C41_8 1_555 1_555
C44_8 N2_8 1_555 1_555
C44_8 O19_8 1_555 1_555
C45_8 N2_8 1_555 1_555
C46_8 O20_8 1_555 1_555
C47_8 N1_8 1_555 1_555
C48_8 N1_8 1_555 1_555
Eu3_4 O2_8 1_555 1_555
Eu5_4 O1_8 1_555 1_555
S2_8 C20_8 1_555 1_555
C1_8 C2_8 1_555 1_555
C2_8 C3_8 1_555 1_555
C4_8 C2_8 1_555 1_555
H2_8 C4_8 1_555 1_555
C5_8 C3_8 1_555 1_555
C6_8 C4_8 1_555 1_555
H3_8 C6_8 1_555 1_555
C7_8 C5_8 1_555 1_555
C8_8 C7_8 1_555 1_555
C10_8 C8_8 1_555 1_555
H4_8 C10_8 1_555 1_555
C12_8 C10_8 1_555 1_555
C15_8 C16_8 1_555 1_555
C16_8 C17_8 1_555 1_555
C17_8 H7_8 1_555 1_555
C18_8 C16_8 1_555 1_555
H8_8 C18_8 1_555 1_555
C19_8 C17_8 1_555 1_555
H9_8 C19_8 1_555 1_555
C20_8 C18_8 1_555 1_555
C21_8 C19_8 1_555 1_555
C22_8 C21_8 1_555 1_555
C23_8 C22_8 1_555 1_555
H10_8 C23_8 1_555 1_555
C24_8 S2_8 1_555 1_555
C25_8 C23_8 1_555 1_555
H11_8 C25_8 1_555 1_555
C26_8 C24_8 1_555 1_555
H12_8 C26_8 1_555 1_555
C27_8 C25_8 1_555 1_555
C28_8 C27_8 1_555 1_555
C49_8 H33_8 1_555 1_555
C50_8 H34_8 1_555 1_555
H35_8 C50_8 1_555 1_555
H36_8 C50_8 1_555 1_555
C51_8 H37_8 1_555 1_555
H38_8 C51_8 1_555 1_555
H39_8 C51_8 1_555 1_555
C52_8 H40_8 1_555 1_555
C53_8 H41_8 1_555 1_555
H42_8 C53_8 1_555 1_555
H43_8 C53_8 1_555 1_555
C54_8 H44_8 1_555 1_555
H45_8 C54_8 1_555 1_555
H46_8 C54_8 1_555 1_555
N3_8 C49_8 1_555 1_555
N4_8 C52_8 1_555 1_555
O1_8 C1_8 1_555 1_555
O2_8 C1_8 1_555 1_555
O7_8 Eu5_4 1_555 1_555
O8_8 Eu3_4 1_555 1_555
O9_8 S2_8 1_555 1_555
O10_8 S2_8 1_555 1_555
O25_4 C28_8 1_555 1_555
O26_4 C28_8 1_555 1_555
O13_8 Eu3_4 1_555 1_555
O14_8 Eu3_4 1_555 1_555
O21_8 Eu3_4 1_555 1_555
O22_8 Eu3_4 1_555 1_555
C6_8 C7_8 1_555 1_555
C15_8 O7_8 1_555 1_555
C15_8 O8_8 1_555 1_555
C20_8 C21_8 1_555 1_555
C22_8 C24_8 1_555 1_555
C26_8 C27_8 1_555 1_555
C49_8 O22_8 1_555 1_555
C50_8 N3_8 1_555 1_555
C51_8 N3_8 1_555 1_555
C52_8 O21_8 1_555 1_555
C53_8 N4_8 1_555 1_555
C54_8 N4_8 1_555 1_555
O27_4 C42_8 1_555 1_555
O28_4 C42_8 1_555 1_555

#END
