
###############################################################################
#
# This file contains modified crystal structure data generated from the
# MOF subset of the Cambridge Structural Database (CSD) v543 
# hosted by the Cambridge Crystallographic Data Centre (CCDC).
#
# This work is licensed under the Creative Commons
# Attribution-NonCommercial-ShareAlike 4.0 International License.
# To view a copy of this license, visit
# http://creativecommons.org/licenses/by-nc-sa/4.0/
# or send a letter to
# Creative Commons, PO Box 1866, Mountain View, CA 94042, USA.
#
# CIF created using the CSD Python API on 29 September 2022
# The structure has been converted into the P1 space group
# The structure has a 3D framework
# The original CSD entry PUDSIR is in the monoclinic crystal system
# The framework has been calculated to contain at least 10.0% void space
# The void calculation uses a probe of radius 1.32A, grid spacing 0.4
#
###############################################################################

data_PUDSIR
_chemical_formula_moiety         '(C432 H368 Eu16 N32 O176 S24)n'
_symmetry_cell_setting           triclinic
_symmetry_space_group_name_H-M   'P 1'
_symmetry_Int_Tables_number      1
_space_group_name_Hall           'P 1'
loop_
_symmetry_equiv_pos_site_id
_symmetry_equiv_pos_as_xyz
1 x,y,z
_cell_length_a                   34.8041(14)
_cell_length_b                   14.8602(6)
_cell_length_c                   29.7740(12)
_cell_angle_alpha                90
_cell_angle_beta                 98.8010(10)
_cell_angle_gamma                90
_cell_volume                     15217.7
loop_
_atom_site_label
_atom_site_type_symbol
_atom_site_fract_x
_atom_site_fract_y
_atom_site_fract_z
S2 S 0.20479(5) 0.06166(11) 0.35285(7)
H9 H 0.0728 0.0191 0.3483
C21 C 0.1309(2) 0.0337(5) 0.3504(3)
C22 C 0.13625(19) 0.1346(5) 0.3512(3)
C23 C 0.1089(2) 0.1992(5) 0.3508(3)
H10 H 0.0824 0.1839 0.3505
C24 C 0.17508(18) 0.1563(4) 0.3540(2)
C25 C 0.1204(2) 0.2869(5) 0.3508(3)
H11 H 0.1013 0.3330 0.3493
C26 C 0.1881(2) 0.2460(4) 0.3557(2)
H12 H 0.2149 0.2609 0.3587
C27 C 0.15946(17) 0.3110(4) 0.3529(2)
C28 C 0.16990(16) 0.4098(4) 0.35179(19)
O9 O 0.21975(16) 0.0590(4) 0.3096(2)
O10 O 0.23190(15) 0.0531(3) 0.3935(2)
O11 O 0.14280(11) 0.4664(3) 0.34766(14)
O12 O 0.20468(12) 0.4314(3) 0.35428(16)
Eu4 Eu 0.209651(8) 0.596897(19) 0.358952(9)
Eu6 Eu 0.087049(8) 0.553416(19) 0.343792(9)
S1 S 0.09373(5) 0.48043(14) 0.09196(5)
S3 S 0.40547(5) 0.32681(12) 0.40418(5)
C1 C 0.14195(17) 0.5905(4) 0.2609(2)
C2 C 0.14447(17) 0.5902(4) 0.2110(2)
C3 C 0.11694(17) 0.5459(4) 0.1805(2)
H1 H 0.0950 0.5182 0.1903
C4 C 0.17572(17) 0.6328(5) 0.1945(2)
H2 H 0.1947 0.6635 0.2153
C5 C 0.12212(16) 0.5429(4) 0.1353(2)
C6 C 0.17954(17) 0.6314(5) 0.1497(2)
H3 H 0.2002 0.6631 0.1392
C7 C 0.15278(18) 0.5829(4) 0.1194(2)
C8 C 0.15425(18) 0.5638(4) 0.0710(2)
C9 C 0.12409(17) 0.5075(5) 0.0518(2)
C10 C 0.18278(17) 0.5894(4) 0.0452(2)
H4 H 0.2031 0.6293 0.0573
C11 C 0.12161(17) 0.4756(5) 0.0082(2)
C12 C 0.18070(17) 0.5553(4) 0.0021(2)
C15 C 0.13099(18) 0.7466(4) 0.35215(19)
C16 C 0.13256(19) 0.8477(4) 0.3511(2)
C17 C 0.0978(2) 0.8940(6) 0.3477(3)
H7 H 0.0741 0.8612 0.3446
C18 C 0.16707(19) 0.8926(4) 0.3533(2)
H8 H 0.1912 0.8617 0.3552
C19 C 0.0967(2) 0.9879(5) 0.3487(3)
C20 C 0.16492(18) 0.9880(4) 0.3526(2)
C29 C 0.27817(17) 0.5136(4) 0.3417(2)
C30 C 0.31243(17) 0.4555(4) 0.3343(2)
C31 C 0.33802(17) 0.4254(4) 0.3716(2)
H13 H 0.3347 0.4413 0.4016
C32 C 0.31724(18) 0.4318(4) 0.2905(2)
H14 H 0.2991 0.4526 0.2655
C33 C 0.36870(17) 0.3710(4) 0.3632(2)
C34 C 0.34803(19) 0.3782(5) 0.2826(2)
H15 H 0.3510 0.3623 0.2524
C35 C 0.37453(17) 0.3480(4) 0.3192(2)
C36 C 0.40971(16) 0.2916(4) 0.3195(2)
C37 C 0.42878(17) 0.2755(4) 0.36234(19)
C38 C 0.42328(17) 0.2550(4) 0.28206(19)
H16 H 0.4097 0.2643 0.2522
C39 C 0.46266(17) 0.2242(4) 0.3704(2)
H17 H 0.4756 0.2138 0.4004
C40 C 0.45693(16) 0.2047(4) 0.2891(2)
H18 H 0.4668 0.1803 0.2637
C41 C 0.47681(16) 0.1890(4) 0.3329(2)
C42 C 0.51375(16) 0.1368(4) 0.33924(19)
C43 C 0.0416(2) 0.4358(5) 0.4187(2)
H19 H 0.0220 0.4806 0.4175
C44 C 0.0157(3) 0.3731(8) 0.4822(3)
H21 H 0.0290 0.3825 0.5133
H22 H 0.0029 0.3141 0.4800
C45 C 0.0742(3) 0.3069(7) 0.4559(4)
H23 H 0.0958 0.3274 0.4409
H24 H 0.0636 0.2509 0.4417
H25 H 0.0837 0.2963 0.4882
C46 C 0.04689(18) 0.4376(4) 0.2523(2)
H26 H 0.0370 0.4951 0.2426
C47 C 0.0236(3) 0.3819(6) 0.1762(3)
H27 H 0.0154 0.4445 0.1706
H28 H 0.0007 0.3426 0.1714
H29 H 0.0415 0.3648 0.1552
C48 C 0.0585(3) 0.2845(6) 0.2367(3)
H30 H 0.0633 0.2819 0.2699
H31 H 0.0830 0.2745 0.2248
H32 H 0.0398 0.2377 0.2250
C49 C 0.2538(2) 0.7451(7) 0.2962(3)
H33 H 0.2496 0.7016 0.2726
C50 C 0.2898(5) 0.8284(11) 0.2458(4)
H34 H 0.2792 0.7812 0.2245
H35 H 0.3182 0.8240 0.2514
H36 H 0.2822 0.8875 0.2328
C51 C 0.2838(3) 0.8834(6) 0.3230(5)
H37 H 0.2701 0.8696 0.3485
H38 H 0.2758 0.9428 0.3107
H39 H 0.3119 0.8835 0.3335
C52 C 0.2716(3) 0.6938(8) 0.4404(5)
H40 H 0.2870 0.6407 0.4421
C53 C 0.2641(6) 0.8462(9) 0.4591(5)
H41 H 0.2374 0.8278 0.4475
H42 H 0.2728 0.8905 0.4384
H43 H 0.2651 0.8730 0.4893
C54 C 0.3263(6) 0.7558(9) 0.4950(5)
H44 H 0.3241 0.7821 0.5246
H45 H 0.3480 0.7840 0.4828
H46 H 0.3310 0.6909 0.4984
N1 N 0.04287(18) 0.3728(4) 0.22207(19)
N2 N 0.0435(2) 0.3765(5) 0.4512(2)
N3 N 0.27468(19) 0.8174(5) 0.2886(3)
N4 N 0.2882(3) 0.7719(8) 0.4620(4)
O1 O 0.10953(12) 0.5758(3) 0.27232(13)
O2 O 0.17323(13) 0.6054(3) 0.28671(14)
O3 O 0.05567(13) 0.5194(4) 0.08043(16)
O4 O 0.09600(17) 0.3864(4) 0.10184(18)
O7 O 0.09870(12) 0.7095(3) 0.34068(14)
O8 O 0.16280(13) 0.7071(3) 0.36403(15)
O13 O 0.27456(11) 0.5343(3) 0.38216(14)
O14 O 0.25474(13) 0.5384(3) 0.30809(15)
O15 O 0.42923(14) 0.3980(4) 0.42671(17)
O16 O 0.39037(15) 0.2612(4) 0.43257(16)
O17 O 0.53303(11) 0.1271(3) 0.37809(13)
O18 O 0.52458(11) 0.1019(3) 0.30441(14)
O19 O 0.06294(13) 0.4389(3) 0.38957(16)
O20 O 0.06225(13) 0.4305(3) 0.29195(16)
O21 O 0.24002(13) 0.6907(3) 0.42067(16)
O22 O 0.23994(14) 0.7294(3) 0.32953(18)
Eu7 Eu 0.587049(8) 0.053416(19) 0.343792(9)
O23 O 0.12097(12) 0.5769(3) 0.41749(13)
O24 O 0.18501(11) 0.5480(3) 0.42506(13)
O27 O 0.03303(11) 0.6271(3) 0.37809(13)
O28 O 0.02458(11) 0.6019(3) 0.30441(14)
H5 H 0.1002 0.4396 0.9952
H6 H 0.2001 0.5718 0.9843
C13 C 0.15094(16) 0.4971(4) 0.98348(18)
C14 C 0.15254(17) 0.4541(4) 0.93832(18)
O5 O 0.12097(12) 0.4231(3) 0.91749(13)
O6 O 0.18501(11) 0.4520(3) 0.92506(13)
Eu3 Eu 0.209651(8) 0.403103(19) 0.858952(9)
Eu5 Eu 0.087049(8) 0.446584(19) 0.843792(9)
C42_2 C 0.01375(16) 0.6368(4) 0.33924(19)
Eu4_2 Eu 0.709651(8) 0.096897(19) 0.358952(9)
S2_2 S 0.70479(5) 0.56166(11) 0.35285(7)
C1_2 C 0.64195(17) 0.0905(4) 0.2609(2)
C2_2 C 0.64447(17) 0.0902(4) 0.2110(2)
C3_2 C 0.61694(17) 0.0459(4) 0.1805(2)
H1_2 H 0.5950 0.0182 0.1903
C4_2 C 0.67572(17) 0.1328(5) 0.1945(2)
H2_2 H 0.6947 0.1635 0.2153
C5_2 C 0.62212(16) 0.0429(4) 0.1353(2)
C6_2 C 0.67954(17) 0.1314(5) 0.1497(2)
H3_2 H 0.7002 0.1631 0.1392
C7_2 C 0.65278(18) 0.0829(4) 0.1194(2)
C8_2 C 0.65425(18) 0.0638(4) 0.0710(2)
C9_2 C 0.62409(17) 0.0075(5) 0.0518(2)
C10_2 C 0.68278(17) 0.0894(4) 0.0452(2)
H4_2 H 0.7031 0.1293 0.0573
C12_2 C 0.68070(17) 0.0553(4) 0.0021(2)
C15_2 C 0.63099(18) 0.2466(4) 0.35215(19)
C16_2 C 0.63256(19) 0.3477(4) 0.3511(2)
C17_2 C 0.5978(2) 0.3940(6) 0.3477(3)
H7_2 H 0.5741 0.3612 0.3446
C18_2 C 0.66707(19) 0.3926(4) 0.3533(2)
H8_2 H 0.6912 0.3617 0.3552
C19_2 C 0.5967(2) 0.4879(5) 0.3487(3)
H9_2 H 0.5728 0.5191 0.3483
C20_2 C 0.66492(18) 0.4880(4) 0.3526(2)
C21_2 C 0.6309(2) 0.5337(5) 0.3504(3)
C22_2 C 0.63625(19) 0.6346(5) 0.3512(3)
C23_2 C 0.6089(2) 0.6992(5) 0.3508(3)
H10_2 H 0.5824 0.6839 0.3505
C24_2 C 0.67508(18) 0.6563(4) 0.3540(2)
C25_2 C 0.6204(2) 0.7869(5) 0.3508(3)
H11_2 H 0.6013 0.8330 0.3493
C26_2 C 0.6881(2) 0.7460(4) 0.3557(2)
H12_2 H 0.7149 0.7609 0.3587
C27_2 C 0.65946(17) 0.8110(4) 0.3529(2)
C28_2 C 0.66990(16) 0.9098(4) 0.35179(19)
C29_2 C 0.77817(17) 0.0136(4) 0.3417(2)
C49_2 C 0.7538(2) 0.2451(7) 0.2962(3)
H33_2 H 0.7496 0.2016 0.2726
C50_2 C 0.7898(5) 0.3284(11) 0.2458(4)
H34_2 H 0.7792 0.2812 0.2245
H35_2 H 0.8182 0.3240 0.2514
H36_2 H 0.7822 0.3875 0.2328
C51_2 C 0.7838(3) 0.3834(6) 0.3230(5)
H37_2 H 0.7701 0.3696 0.3485
H38_2 H 0.7758 0.4428 0.3107
H39_2 H 0.8119 0.3835 0.3335
C52_2 C 0.7716(3) 0.1938(8) 0.4404(5)
H40_2 H 0.7870 0.1407 0.4421
C53_2 C 0.7641(6) 0.3462(9) 0.4591(5)
H41_2 H 0.7374 0.3278 0.4475
H42_2 H 0.7728 0.3905 0.4384
H43_2 H 0.7651 0.3730 0.4893
C54_2 C 0.8263(6) 0.2558(9) 0.4950(5)
H44_2 H 0.8241 0.2821 0.5246
H45_2 H 0.8480 0.2840 0.4828
H46_2 H 0.8310 0.1909 0.4984
N3_2 N 0.77468(19) 0.3174(5) 0.2886(3)
N4_2 N 0.7882(3) 0.2719(8) 0.4620(4)
O1_2 O 0.60953(12) 0.0758(3) 0.27232(13)
O2_2 O 0.67323(13) 0.1054(3) 0.28671(14)
O3_2 O 0.55567(13) 0.0194(4) 0.08043(16)
O7_2 O 0.59870(12) 0.2095(3) 0.34068(14)
O8_2 O 0.66280(13) 0.2071(3) 0.36403(15)
O9_2 O 0.71975(16) 0.5590(4) 0.3096(2)
O10_2 O 0.73190(15) 0.5531(3) 0.3935(2)
O11_2 O 0.64280(11) 0.9664(3) 0.34766(14)
O12_2 O 0.70468(12) 0.9314(3) 0.35428(16)
O13_2 O 0.77456(11) 0.0343(3) 0.38216(14)
O14_2 O 0.75474(13) 0.0384(3) 0.30809(15)
O21_2 O 0.74002(13) 0.1907(3) 0.42067(16)
O22_2 O 0.73994(14) 0.2294(3) 0.32953(18)
O23_2 O 0.62097(12) 0.0769(3) 0.41749(13)
O24_2 O 0.68501(11) 0.0480(3) 0.42506(13)
S1_2 S 0.59373(5) 0.98043(14) 0.09196(5)
S3_2 S 0.90547(5) 0.82681(12) 0.40418(5)
C11_2 C 0.62161(17) 0.9756(5) 0.0082(2)
C30_2 C 0.81243(17) 0.9555(4) 0.3343(2)
C31_2 C 0.83802(17) 0.9254(4) 0.3716(2)
H13_2 H 0.8347 0.9413 0.4016
C32_2 C 0.81724(18) 0.9318(4) 0.2905(2)
H14_2 H 0.7991 0.9526 0.2655
C33_2 C 0.86870(17) 0.8710(4) 0.3632(2)
C34_2 C 0.84803(19) 0.8782(5) 0.2826(2)
H15_2 H 0.8510 0.8623 0.2524
C35_2 C 0.87453(17) 0.8480(4) 0.3192(2)
C36_2 C 0.90971(16) 0.7916(4) 0.3195(2)
C37_2 C 0.92878(17) 0.7755(4) 0.36234(19)
C38_2 C 0.92328(17) 0.7550(4) 0.28206(19)
H16_2 H 0.9097 0.7643 0.2522
C39_2 C 0.96266(17) 0.7242(4) 0.3704(2)
H17_2 H 0.9756 0.7138 0.4004
C40_2 C 0.95693(16) 0.7047(4) 0.2891(2)
H18_2 H 0.9668 0.6803 0.2637
C41_2 C 0.97681(16) 0.6890(4) 0.3329(2)
C43_2 C 0.5416(2) 0.9358(5) 0.4187(2)
H19_2 H 0.5220 0.9806 0.4175
C44_2 C 0.5157(3) 0.8731(8) 0.4822(3)
H20 H 0.4961 0.9203 0.4744
H21_2 H 0.5290 0.8825 0.5133
H22_2 H 0.5029 0.8141 0.4800
C45_2 C 0.5742(3) 0.8069(7) 0.4559(4)
H23_2 H 0.5958 0.8274 0.4409
H24_2 H 0.5636 0.7509 0.4417
H25_2 H 0.5837 0.7963 0.4882
C46_2 C 0.54689(18) 0.9376(4) 0.2523(2)
H26_2 H 0.5370 0.9951 0.2426
C47_2 C 0.5236(3) 0.8819(6) 0.1762(3)
H27_2 H 0.5154 0.9445 0.1706
H28_2 H 0.5007 0.8426 0.1714
H29_2 H 0.5415 0.8648 0.1552
C48_2 C 0.5585(3) 0.7845(6) 0.2367(3)
H30_2 H 0.5633 0.7819 0.2699
H31_2 H 0.5830 0.7745 0.2248
H32_2 H 0.5398 0.7377 0.2250
N1_2 N 0.54287(18) 0.8728(4) 0.22207(19)
N2_2 N 0.5435(2) 0.8765(5) 0.4512(2)
O4_2 O 0.59600(17) 0.8864(4) 0.10184(18)
O15_2 O 0.92923(14) 0.8980(4) 0.42671(17)
O16_2 O 0.89037(15) 0.7612(4) 0.43257(16)
O19_2 O 0.56294(13) 0.9389(3) 0.38957(16)
O20_2 O 0.56225(13) 0.9305(3) 0.29195(16)
H5_2 H 0.6002 0.9396 0.9952
C13_2 C 0.65094(16) 0.9971(4) 0.98348(18)
C14_2 C 0.65254(17) 0.9541(4) 0.93832(18)
O5_2 O 0.62097(12) 0.9231(3) 0.91749(13)
O6_2 O 0.68501(11) 0.9520(3) 0.92506(13)
Eu3_2 Eu 0.709651(8) 0.903103(19) 0.858952(9)
Eu5_2 Eu 0.587049(8) 0.946584(19) 0.843792(9)
S1_3 S 0.09373(5) 0.51957(14) 0.59196(5)
S3_3 S 0.40547(5) 0.67319(12) 0.90418(5)
C1_3 C 0.14195(17) 0.4095(4) 0.7609(2)
C2_3 C 0.14447(17) 0.4098(4) 0.7110(2)
C3_3 C 0.11694(17) 0.4541(4) 0.6805(2)
H1_3 H 0.0950 0.4818 0.6903
C4_3 C 0.17572(17) 0.3672(5) 0.6945(2)
H2_3 H 0.1947 0.3365 0.7153
C5_3 C 0.12212(16) 0.4571(4) 0.6353(2)
C6_3 C 0.17954(17) 0.3686(5) 0.6497(2)
H3_3 H 0.2002 0.3369 0.6392
C7_3 C 0.15278(18) 0.4171(4) 0.6194(2)
C8_3 C 0.15425(18) 0.4362(4) 0.5710(2)
C9_3 C 0.12409(17) 0.4925(5) 0.5518(2)
C10_3 C 0.18278(17) 0.4106(4) 0.5452(2)
H4_3 H 0.2031 0.3707 0.5573
C11_3 C 0.12161(17) 0.5244(5) 0.5082(2)
H5_3 H 0.1002 0.5604 0.4952
C12_3 C 0.18070(17) 0.4447(4) 0.5021(2)
H6_2 H 0.2001 0.4282 0.4843
C13_3 C 0.15094(16) 0.5029(4) 0.48348(18)
C14_3 C 0.15254(17) 0.5459(4) 0.43832(18)
C15_3 C 0.13099(18) 0.2534(4) 0.85215(19)
C16_3 C 0.13256(19) 0.1523(4) 0.8511(2)
C17_3 C 0.0978(2) 0.1060(6) 0.8477(3)
H7_3 H 0.0741 0.1388 0.8446
C18_3 C 0.16707(19) 0.1074(4) 0.8533(2)
H8_3 H 0.1912 0.1383 0.8552
C19_3 C 0.0967(2) 0.0121(5) 0.8487(3)
C20_3 C 0.16492(18) 0.0120(4) 0.8526(2)
C29_3 C 0.27817(17) 0.4864(4) 0.8417(2)
C30_3 C 0.31243(17) 0.5445(4) 0.8343(2)
C31_3 C 0.33802(17) 0.5746(4) 0.8716(2)
H13_3 H 0.3347 0.5587 0.9016
C32_3 C 0.31724(18) 0.5682(4) 0.7905(2)
H14_3 H 0.2991 0.5474 0.7655
C33_3 C 0.36870(17) 0.6290(4) 0.8632(2)
C34_3 C 0.34803(19) 0.6218(5) 0.7826(2)
H15_3 H 0.3510 0.6377 0.7524
C35_3 C 0.37453(17) 0.6520(4) 0.8192(2)
C36_3 C 0.40971(16) 0.7084(4) 0.8195(2)
C37_3 C 0.42878(17) 0.7245(4) 0.86234(19)
C38_3 C 0.42328(17) 0.7450(4) 0.78206(19)
H16_3 H 0.4097 0.7357 0.7522
C39_3 C 0.46266(17) 0.7758(4) 0.8704(2)
H17_3 H 0.4756 0.7862 0.9004
C40_3 C 0.45693(16) 0.7953(4) 0.7891(2)
H18_3 H 0.4668 0.8197 0.7637
C41_3 C 0.47681(16) 0.8110(4) 0.8329(2)
C42_3 C 0.51375(16) 0.8632(4) 0.83924(19)
C43_3 C 0.0416(2) 0.5642(5) 0.9187(2)
H19_3 H 0.0220 0.5194 0.9175
C44_3 C 0.0157(3) 0.6269(8) 0.9822(3)
H22_3 H 0.0029 0.6859 0.9800
C45_3 C 0.0742(3) 0.6931(7) 0.9559(4)
H23_3 H 0.0958 0.6726 0.9409
H24_3 H 0.0636 0.7491 0.9417
H25_3 H 0.0837 0.7037 0.9882
C46_3 C 0.04689(18) 0.5624(4) 0.7523(2)
H26_3 H 0.0370 0.5049 0.7426
C47_3 C 0.0236(3) 0.6181(6) 0.6762(3)
H27_3 H 0.0154 0.5555 0.6706
H28_3 H 0.0007 0.6574 0.6714
H29_3 H 0.0415 0.6352 0.6552
C48_3 C 0.0585(3) 0.7155(6) 0.7367(3)
H30_3 H 0.0633 0.7181 0.7699
H31_3 H 0.0830 0.7255 0.7248
H32_3 H 0.0398 0.7623 0.7250
C49_3 C 0.2538(2) 0.2549(7) 0.7962(3)
H33_3 H 0.2496 0.2984 0.7726
C50_3 C 0.2898(5) 0.1716(11) 0.7458(4)
H34_3 H 0.2792 0.2188 0.7245
H35_3 H 0.3182 0.1760 0.7514
H36_3 H 0.2822 0.1125 0.7328
C51_3 C 0.2838(3) 0.1166(6) 0.8230(5)
H37_3 H 0.2701 0.1304 0.8485
H38_3 H 0.2758 0.0572 0.8107
H39_3 H 0.3119 0.1165 0.8335
C52_3 C 0.2716(3) 0.3062(8) 0.9404(5)
H40_3 H 0.2870 0.3593 0.9421
C53_3 C 0.2641(6) 0.1538(9) 0.9591(5)
H41_3 H 0.2374 0.1722 0.9475
H42_3 H 0.2728 0.1095 0.9384
H43_3 H 0.2651 0.1270 0.9893
C54_3 C 0.3263(6) 0.2442(9) 0.9950(5)
H45_3 H 0.3480 0.2160 0.9828
H46_3 H 0.3310 0.3091 0.9984
N1_3 N 0.04287(18) 0.6272(4) 0.72207(19)
N2_3 N 0.0435(2) 0.6235(5) 0.9512(2)
N3_3 N 0.27468(19) 0.1826(5) 0.7886(3)
N4_3 N 0.2882(3) 0.2281(8) 0.9620(4)
O1_3 O 0.10953(12) 0.4242(3) 0.77232(13)
O2_3 O 0.17323(13) 0.3946(3) 0.78671(14)
O3_3 O 0.05567(13) 0.4806(4) 0.58043(16)
O4_3 O 0.09600(17) 0.6136(4) 0.60184(18)
O7_3 O 0.09870(12) 0.2905(3) 0.84068(14)
O8_3 O 0.16280(13) 0.2929(3) 0.86403(15)
O13_3 O 0.27456(11) 0.4657(3) 0.88216(14)
O14_3 O 0.25474(13) 0.4616(3) 0.80809(15)
O15_3 O 0.42923(14) 0.6020(4) 0.92671(17)
O16_3 O 0.39037(15) 0.7388(4) 0.93257(16)
O17_2 O 0.53303(11) 0.8729(3) 0.87809(13)
O18_2 O 0.52458(11) 0.8981(3) 0.80441(14)
O19_3 O 0.06294(13) 0.5611(3) 0.88957(16)
O20_3 O 0.06225(13) 0.5695(3) 0.79195(16)
O21_3 O 0.24002(13) 0.3093(3) 0.92067(16)
O22_3 O 0.23994(14) 0.2706(3) 0.82953(18)
O25 O 0.14280(11) 0.5336(3) 0.84766(14)
O26 O 0.20468(12) 0.5686(3) 0.85428(16)
O27_2 O 0.03303(11) 0.3729(3) 0.87809(13)
O28_2 O 0.02458(11) 0.3981(3) 0.80441(14)
S2_3 S 0.20479(5) 0.93834(11) 0.85285(7)
H9_3 H 0.0728 0.9809 0.8483
C21_3 C 0.1309(2) 0.9663(5) 0.8504(3)
C22_3 C 0.13625(19) 0.8654(5) 0.8512(3)
C23_3 C 0.1089(2) 0.8008(5) 0.8508(3)
H10_3 H 0.0824 0.8161 0.8505
C24_3 C 0.17508(18) 0.8437(4) 0.8540(2)
C25_3 C 0.1204(2) 0.7131(5) 0.8508(3)
H11_3 H 0.1013 0.6670 0.8493
C26_3 C 0.1881(2) 0.7540(4) 0.8557(2)
H12_3 H 0.2149 0.7391 0.8587
C27_3 C 0.15946(17) 0.6890(4) 0.8529(2)
C28_3 C 0.16990(16) 0.5902(4) 0.85179(19)
O9_3 O 0.21975(16) 0.9410(4) 0.8096(2)
O10_3 O 0.23190(15) 0.9469(3) 0.8935(2)
C42_4 C 0.01375(16) 0.3632(4) 0.83924(19)
S1_4 S 0.59373(5) 0.01957(14) 0.59196(5)
S3_4 S 0.90547(5) 0.17319(12) 0.90418(5)
C11_4 C 0.62161(17) 0.0244(5) 0.5082(2)
H5_4 H 0.6002 0.0604 0.4952
C13_4 C 0.65094(16) 0.0029(4) 0.48348(18)
C14_4 C 0.65254(17) 0.0459(4) 0.43832(18)
C30_4 C 0.81243(17) 0.0445(4) 0.8343(2)
C31_4 C 0.83802(17) 0.0746(4) 0.8716(2)
H13_4 H 0.8347 0.0587 0.9016
C32_4 C 0.81724(18) 0.0682(4) 0.7905(2)
H14_4 H 0.7991 0.0474 0.7655
C33_4 C 0.86870(17) 0.1290(4) 0.8632(2)
C34_4 C 0.84803(19) 0.1218(5) 0.7826(2)
H15_4 H 0.8510 0.1377 0.7524
C35_4 C 0.87453(17) 0.1520(4) 0.8192(2)
C36_4 C 0.90971(16) 0.2084(4) 0.8195(2)
C37_4 C 0.92878(17) 0.2245(4) 0.86234(19)
C38_4 C 0.92328(17) 0.2450(4) 0.78206(19)
H16_4 H 0.9097 0.2357 0.7522
C39_4 C 0.96266(17) 0.2758(4) 0.8704(2)
H17_4 H 0.9756 0.2862 0.9004
C40_4 C 0.95693(16) 0.2953(4) 0.7891(2)
H18_4 H 0.9668 0.3197 0.7637
C41_4 C 0.97681(16) 0.3110(4) 0.8329(2)
C43_4 C 0.5416(2) 0.0642(5) 0.9187(2)
H19_4 H 0.5220 0.0194 0.9175
C44_4 C 0.5157(3) 0.1269(8) 0.9822(3)
H20_2 H 0.4961 0.0797 0.9744
H22_4 H 0.5029 0.1859 0.9800
C45_4 C 0.5742(3) 0.1931(7) 0.9559(4)
H23_4 H 0.5958 0.1726 0.9409
H24_4 H 0.5636 0.2491 0.9417
H25_4 H 0.5837 0.2037 0.9882
C46_4 C 0.54689(18) 0.0624(4) 0.7523(2)
H26_4 H 0.5370 0.0049 0.7426
C47_4 C 0.5236(3) 0.1181(6) 0.6762(3)
H27_4 H 0.5154 0.0555 0.6706
H28_4 H 0.5007 0.1574 0.6714
H29_4 H 0.5415 0.1352 0.6552
C48_4 C 0.5585(3) 0.2155(6) 0.7367(3)
H30_4 H 0.5633 0.2181 0.7699
H31_4 H 0.5830 0.2255 0.7248
H32_4 H 0.5398 0.2623 0.7250
N1_4 N 0.54287(18) 0.1272(4) 0.72207(19)
N2_4 N 0.5435(2) 0.1235(5) 0.9512(2)
O4_4 O 0.59600(17) 0.1136(4) 0.60184(18)
O15_4 O 0.92923(14) 0.1020(4) 0.92671(17)
O16_4 O 0.89037(15) 0.2388(4) 0.93257(16)
O19_4 O 0.56294(13) 0.0611(3) 0.88957(16)
O20_4 O 0.56225(13) 0.0695(3) 0.79195(16)
O25_2 O 0.64280(11) 0.0336(3) 0.84766(14)
O26_2 O 0.70468(12) 0.0686(3) 0.85428(16)
S2_4 S 0.70479(5) 0.43834(11) 0.85285(7)
C1_4 C 0.64195(17) 0.9095(4) 0.7609(2)
C2_4 C 0.64447(17) 0.9098(4) 0.7110(2)
C3_4 C 0.61694(17) 0.9541(4) 0.6805(2)
H1_4 H 0.5950 0.9818 0.6903
C4_4 C 0.67572(17) 0.8672(5) 0.6945(2)
H2_4 H 0.6947 0.8365 0.7153
C5_4 C 0.62212(16) 0.9571(4) 0.6353(2)
C6_4 C 0.67954(17) 0.8686(5) 0.6497(2)
H3_4 H 0.7002 0.8369 0.6392
C7_4 C 0.65278(18) 0.9171(4) 0.6194(2)
C8_4 C 0.65425(18) 0.9362(4) 0.5710(2)
C9_4 C 0.62409(17) 0.9925(5) 0.5518(2)
C10_4 C 0.68278(17) 0.9106(4) 0.5452(2)
H4_4 H 0.7031 0.8707 0.5573
C12_4 C 0.68070(17) 0.9447(4) 0.5021(2)
H6_3 H 0.7001 0.9282 0.4843
C15_4 C 0.63099(18) 0.7534(4) 0.85215(19)
C16_4 C 0.63256(19) 0.6523(4) 0.8511(2)
C17_4 C 0.5978(2) 0.6060(6) 0.8477(3)
H7_4 H 0.5741 0.6388 0.8446
C18_4 C 0.66707(19) 0.6074(4) 0.8533(2)
H8_4 H 0.6912 0.6383 0.8552
C19_4 C 0.5967(2) 0.5121(5) 0.8487(3)
H9_4 H 0.5728 0.4809 0.8483
C20_4 C 0.66492(18) 0.5120(4) 0.8526(2)
C21_4 C 0.6309(2) 0.4663(5) 0.8504(3)
C22_4 C 0.63625(19) 0.3654(5) 0.8512(3)
C23_4 C 0.6089(2) 0.3008(5) 0.8508(3)
H10_4 H 0.5824 0.3161 0.8505
C24_4 C 0.67508(18) 0.3437(4) 0.8540(2)
C25_4 C 0.6204(2) 0.2131(5) 0.8508(3)
H11_4 H 0.6013 0.1670 0.8493
C26_4 C 0.6881(2) 0.2540(4) 0.8557(2)
H12_4 H 0.7149 0.2391 0.8587
C27_4 C 0.65946(17) 0.1890(4) 0.8529(2)
C28_4 C 0.66990(16) 0.0902(4) 0.85179(19)
C29_4 C 0.77817(17) 0.9864(4) 0.8417(2)
C49_4 C 0.7538(2) 0.7549(7) 0.7962(3)
H33_4 H 0.7496 0.7984 0.7726
C50_4 C 0.7898(5) 0.6716(11) 0.7458(4)
H34_4 H 0.7792 0.7188 0.7245
H35_4 H 0.8182 0.6760 0.7514
H36_4 H 0.7822 0.6125 0.7328
C51_4 C 0.7838(3) 0.6166(6) 0.8230(5)
H37_4 H 0.7701 0.6304 0.8485
H38_4 H 0.7758 0.5572 0.8107
H39_4 H 0.8119 0.6165 0.8335
C52_4 C 0.7716(3) 0.8062(8) 0.9404(5)
H40_4 H 0.7870 0.8593 0.9421
C53_4 C 0.7641(6) 0.6538(9) 0.9591(5)
H41_4 H 0.7374 0.6722 0.9475
H42_4 H 0.7728 0.6095 0.9384
H43_4 H 0.7651 0.6270 0.9893
C54_4 C 0.8263(6) 0.7442(9) 0.9950(5)
H45_4 H 0.8480 0.7160 0.9828
H46_4 H 0.8310 0.8091 0.9984
N3_4 N 0.77468(19) 0.6826(5) 0.7886(3)
N4_4 N 0.7882(3) 0.7281(8) 0.9620(4)
O1_4 O 0.60953(12) 0.9242(3) 0.77232(13)
O2_4 O 0.67323(13) 0.8946(3) 0.78671(14)
O3_4 O 0.55567(13) 0.9806(4) 0.58043(16)
O7_4 O 0.59870(12) 0.7905(3) 0.84068(14)
O8_4 O 0.66280(13) 0.7929(3) 0.86403(15)
O9_4 O 0.71975(16) 0.4410(4) 0.8096(2)
O10_4 O 0.73190(15) 0.4469(3) 0.8935(2)
O13_4 O 0.77456(11) 0.9657(3) 0.88216(14)
O14_4 O 0.75474(13) 0.9616(3) 0.80809(15)
O21_4 O 0.74002(13) 0.8093(3) 0.92067(16)
O22_4 O 0.73994(14) 0.7706(3) 0.82953(18)
H20_3 H 0.9961 0.4203 0.4744
H20_4 H 0.0039 0.4203 0.0256
S2_5 S 0.79521(5) 0.06166(11) 0.14715(7)
H9_5 H 0.9272 0.0191 0.1517
C21_5 C 0.8691(2) 0.0337(5) 0.1496(3)
C22_5 C 0.86375(19) 0.1346(5) 0.1488(3)
C23_5 C 0.8911(2) 0.1992(5) 0.1492(3)
H10_5 H 0.9176 0.1839 0.1495
C24_5 C 0.82492(18) 0.1563(4) 0.1460(2)
C25_5 C 0.8796(2) 0.2869(5) 0.1492(3)
H11_5 H 0.8987 0.3330 0.1507
C26_5 C 0.8119(2) 0.2460(4) 0.1443(2)
H12_5 H 0.7851 0.2609 0.1413
C27_5 C 0.84054(17) 0.3110(4) 0.1471(2)
C28_5 C 0.83010(16) 0.4098(4) 0.14821(19)
O9_5 O 0.78025(16) 0.0590(4) 0.1904(2)
O10_5 O 0.76810(15) 0.0531(3) 0.1065(2)
O11_3 O 0.85720(11) 0.4664(3) 0.15234(14)
O12_3 O 0.79532(12) 0.4314(3) 0.14572(16)
Eu4_3 Eu 0.790349(8) 0.596897(19) 0.141048(9)
Eu6_2 Eu 0.912951(8) 0.553416(19) 0.156208(9)
S1_5 S 0.90627(5) 0.48043(14) 0.40804(5)
S3_5 S 0.59453(5) 0.32681(12) 0.09582(5)
C1_5 C 0.85805(17) 0.5905(4) 0.2391(2)
C2_5 C 0.85553(17) 0.5902(4) 0.2890(2)
C3_5 C 0.88306(17) 0.5459(4) 0.3195(2)
H1_5 H 0.9050 0.5182 0.3097
C4_5 C 0.82428(17) 0.6328(5) 0.3055(2)
H2_5 H 0.8053 0.6635 0.2847
C5_5 C 0.87788(16) 0.5429(4) 0.3647(2)
C6_5 C 0.82046(17) 0.6314(5) 0.3503(2)
H3_5 H 0.7998 0.6631 0.3608
C7_5 C 0.84722(18) 0.5829(4) 0.3806(2)
C8_5 C 0.84575(18) 0.5638(4) 0.4290(2)
C9_5 C 0.87591(17) 0.5075(5) 0.4482(2)
C10_5 C 0.81722(17) 0.5894(4) 0.4548(2)
H4_5 H 0.7969 0.6293 0.4427
C11_5 C 0.87839(17) 0.4756(5) 0.4918(2)
H5_5 H 0.8998 0.4396 0.5048
C12_5 C 0.81930(17) 0.5553(4) 0.4979(2)
H6_4 H 0.7999 0.5718 0.5157
C13_5 C 0.84906(16) 0.4971(4) 0.51652(18)
C14_5 C 0.84746(17) 0.4541(4) 0.56168(18)
C15_5 C 0.86901(18) 0.7466(4) 0.14785(19)
C16_5 C 0.86744(19) 0.8477(4) 0.1489(2)
C17_5 C 0.9022(2) 0.8940(6) 0.1523(3)
H7_5 H 0.9259 0.8612 0.1554
C18_5 C 0.83293(19) 0.8926(4) 0.1467(2)
H8_5 H 0.8088 0.8617 0.1448
C19_5 C 0.9033(2) 0.9879(5) 0.1513(3)
C20_5 C 0.83508(18) 0.9880(4) 0.1474(2)
C29_5 C 0.72183(17) 0.5136(4) 0.1583(2)
C30_5 C 0.68757(17) 0.4555(4) 0.1657(2)
C31_5 C 0.66198(17) 0.4254(4) 0.1284(2)
H13_5 H 0.6653 0.4413 0.0984
C32_5 C 0.68276(18) 0.4318(4) 0.2095(2)
H14_5 H 0.7009 0.4526 0.2345
C33_5 C 0.63130(17) 0.3710(4) 0.1368(2)
C34_5 C 0.65197(19) 0.3782(5) 0.2174(2)
H15_5 H 0.6490 0.3623 0.2476
C35_5 C 0.62547(17) 0.3480(4) 0.1808(2)
C36_5 C 0.59029(16) 0.2916(4) 0.1805(2)
C37_5 C 0.57122(17) 0.2755(4) 0.13766(19)
C38_5 C 0.57672(17) 0.2550(4) 0.21794(19)
H16_5 H 0.5903 0.2643 0.2478
C39_5 C 0.53734(17) 0.2242(4) 0.1296(2)
H17_5 H 0.5244 0.2138 0.0996
C40_5 C 0.54307(16) 0.2047(4) 0.2109(2)
H18_5 H 0.5332 0.1803 0.2363
C41_5 C 0.52319(16) 0.1890(4) 0.1671(2)
C42_5 C 0.48625(16) 0.1368(4) 0.16076(19)
C43_5 C 0.9584(2) 0.4358(5) 0.0813(2)
H19_5 H 0.9780 0.4806 0.0825
C44_5 C 0.9843(3) 0.3731(8) 0.0178(3)
H22_5 H 0.9971 0.3141 0.0200
C45_5 C 0.9258(3) 0.3069(7) 0.0441(4)
H23_5 H 0.9042 0.3274 0.0591
H24_5 H 0.9364 0.2509 0.0583
H25_5 H 0.9163 0.2963 0.0118
C46_5 C 0.95311(18) 0.4376(4) 0.2477(2)
H26_5 H 0.9630 0.4951 0.2574
C47_5 C 0.9764(3) 0.3819(6) 0.3238(3)
H27_5 H 0.9846 0.4445 0.3294
H28_5 H 0.9993 0.3426 0.3286
H29_5 H 0.9585 0.3648 0.3448
C48_5 C 0.9415(3) 0.2845(6) 0.2633(3)
H30_5 H 0.9367 0.2819 0.2301
H31_5 H 0.9170 0.2745 0.2752
H32_5 H 0.9602 0.2377 0.2750
C49_5 C 0.7462(2) 0.7451(7) 0.2038(3)
H33_5 H 0.7504 0.7016 0.2274
C50_5 C 0.7102(5) 0.8284(11) 0.2542(4)
H34_5 H 0.7208 0.7812 0.2755
H35_5 H 0.6818 0.8240 0.2486
H36_5 H 0.7178 0.8875 0.2672
C51_5 C 0.7162(3) 0.8834(6) 0.1770(5)
H37_5 H 0.7299 0.8696 0.1515
H38_5 H 0.7242 0.9428 0.1893
H39_5 H 0.6881 0.8835 0.1665
C52_5 C 0.7284(3) 0.6938(8) 0.0596(5)
H40_5 H 0.7130 0.6407 0.0579
C53_5 C 0.7359(6) 0.8462(9) 0.0409(5)
H41_5 H 0.7626 0.8278 0.0525
H42_5 H 0.7272 0.8905 0.0616
H43_5 H 0.7349 0.8730 0.0107
C54_5 C 0.6737(6) 0.7558(9) 0.0050(5)
H45_5 H 0.6520 0.7840 0.0172
H46_5 H 0.6690 0.6909 0.0016
N1_5 N 0.95713(18) 0.3728(4) 0.27793(19)
N2_5 N 0.9565(2) 0.3765(5) 0.0488(2)
N3_5 N 0.72532(19) 0.8174(5) 0.2114(3)
N4_5 N 0.7118(3) 0.7719(8) 0.0380(4)
O1_5 O 0.89047(12) 0.5758(3) 0.22768(13)
O2_5 O 0.82677(13) 0.6054(3) 0.21329(14)
O3_5 O 0.94433(13) 0.5194(4) 0.41957(16)
O4_5 O 0.90400(17) 0.3864(4) 0.39816(18)
O5_3 O 0.87903(12) 0.4231(3) 0.58251(13)
O6_3 O 0.81499(11) 0.4520(3) 0.57494(13)
O7_5 O 0.90130(12) 0.7095(3) 0.15932(14)
O8_5 O 0.83720(13) 0.7071(3) 0.13597(15)
O13_5 O 0.72544(11) 0.5343(3) 0.11784(14)
O14_5 O 0.74526(13) 0.5384(3) 0.19191(15)
O15_5 O 0.57077(14) 0.3980(4) 0.07329(17)
O16_5 O 0.60963(15) 0.2612(4) 0.06743(16)
O17_3 O 0.46697(11) 0.1271(3) 0.12191(13)
O18_3 O 0.47542(11) 0.1019(3) 0.19559(14)
O19_5 O 0.93706(13) 0.4389(3) 0.11043(16)
O20_5 O 0.93775(13) 0.4305(3) 0.20805(16)
O21_5 O 0.75998(13) 0.6907(3) 0.07933(16)
O22_5 O 0.76006(14) 0.7294(3) 0.17047(18)
Eu3_3 Eu 0.790349(8) 0.403103(19) 0.641048(9)
Eu5_3 Eu 0.912951(8) 0.446584(19) 0.656208(9)
Eu7_2 Eu 0.412951(8) 0.053416(19) 0.156208(9)
O23_3 O 0.87903(12) 0.5769(3) 0.08251(13)
O24_3 O 0.81499(11) 0.5480(3) 0.07494(13)
O27_3 O 0.96697(11) 0.6271(3) 0.12191(13)
O28_3 O 0.97542(11) 0.6019(3) 0.19559(14)
Eu4_4 Eu 0.290349(8) 0.096897(19) 0.141048(9)
S2_6 S 0.29521(5) 0.56166(11) 0.14715(7)
C1_6 C 0.35805(17) 0.0905(4) 0.2391(2)
C2_6 C 0.35553(17) 0.0902(4) 0.2890(2)
C3_6 C 0.38306(17) 0.0459(4) 0.3195(2)
H1_6 H 0.4050 0.0182 0.3097
C4_6 C 0.32428(17) 0.1328(5) 0.3055(2)
H2_6 H 0.3053 0.1635 0.2847
C5_6 C 0.37788(16) 0.0429(4) 0.3647(2)
C6_6 C 0.32046(17) 0.1314(5) 0.3503(2)
H3_6 H 0.2998 0.1631 0.3608
C7_6 C 0.34722(18) 0.0829(4) 0.3806(2)
C8_6 C 0.34575(18) 0.0638(4) 0.4290(2)
C9_6 C 0.37591(17) 0.0075(5) 0.4482(2)
C10_6 C 0.31722(17) 0.0894(4) 0.4548(2)
H4_6 H 0.2969 0.1293 0.4427
C12_6 C 0.31930(17) 0.0553(4) 0.4979(2)
H6_5 H 0.2999 0.0718 0.5157
C15_6 C 0.36901(18) 0.2466(4) 0.14785(19)
C16_6 C 0.36744(19) 0.3477(4) 0.1489(2)
C17_6 C 0.4022(2) 0.3940(6) 0.1523(3)
H7_6 H 0.4259 0.3612 0.1554
C18_6 C 0.33293(19) 0.3926(4) 0.1467(2)
H8_6 H 0.3088 0.3617 0.1448
C19_6 C 0.4033(2) 0.4879(5) 0.1513(3)
H9_6 H 0.4272 0.5191 0.1517
C20_6 C 0.33508(18) 0.4880(4) 0.1474(2)
C21_6 C 0.3691(2) 0.5337(5) 0.1496(3)
C22_6 C 0.36375(19) 0.6346(5) 0.1488(3)
C23_6 C 0.3911(2) 0.6992(5) 0.1492(3)
H10_6 H 0.4176 0.6839 0.1495
C24_6 C 0.32492(18) 0.6563(4) 0.1460(2)
C25_6 C 0.3796(2) 0.7869(5) 0.1492(3)
H11_6 H 0.3987 0.8330 0.1507
C26_6 C 0.3119(2) 0.7460(4) 0.1443(2)
H12_6 H 0.2851 0.7609 0.1413
C27_6 C 0.34054(17) 0.8110(4) 0.1471(2)
C28_6 C 0.33010(16) 0.9098(4) 0.14821(19)
C29_6 C 0.22183(17) 0.0136(4) 0.1583(2)
C49_6 C 0.2462(2) 0.2451(7) 0.2038(3)
H33_6 H 0.2504 0.2016 0.2274
C50_6 C 0.2102(5) 0.3284(11) 0.2542(4)
H34_6 H 0.2208 0.2812 0.2755
H35_6 H 0.1818 0.3240 0.2486
H36_6 H 0.2178 0.3875 0.2672
C51_6 C 0.2162(3) 0.3834(6) 0.1770(5)
H37_6 H 0.2299 0.3696 0.1515
H38_6 H 0.2242 0.4428 0.1893
H39_6 H 0.1881 0.3835 0.1665
C52_6 C 0.2284(3) 0.1938(8) 0.0596(5)
H40_6 H 0.2130 0.1407 0.0579
C53_6 C 0.2359(6) 0.3462(9) 0.0409(5)
H41_6 H 0.2626 0.3278 0.0525
H42_6 H 0.2272 0.3905 0.0616
H43_6 H 0.2349 0.3730 0.0107
C54_6 C 0.1737(6) 0.2558(9) 0.0050(5)
H45_6 H 0.1520 0.2840 0.0172
H46_6 H 0.1690 0.1909 0.0016
N3_6 N 0.22532(19) 0.3174(5) 0.2114(3)
N4_6 N 0.2118(3) 0.2719(8) 0.0380(4)
O1_6 O 0.39047(12) 0.0758(3) 0.22768(13)
O2_6 O 0.32677(13) 0.1054(3) 0.21329(14)
O3_6 O 0.44433(13) 0.0194(4) 0.41957(16)
O7_6 O 0.40130(12) 0.2095(3) 0.15932(14)
O8_6 O 0.33720(13) 0.2071(3) 0.13597(15)
O9_6 O 0.28025(16) 0.5590(4) 0.1904(2)
O10_6 O 0.26810(15) 0.5531(3) 0.1065(2)
O11_4 O 0.35720(11) 0.9664(3) 0.15234(14)
O12_4 O 0.29532(12) 0.9314(3) 0.14572(16)
O13_6 O 0.22544(11) 0.0343(3) 0.11784(14)
O14_6 O 0.24526(13) 0.0384(3) 0.19191(15)
O21_6 O 0.25998(13) 0.1907(3) 0.07933(16)
O22_6 O 0.26006(14) 0.2294(3) 0.17047(18)
O23_4 O 0.37903(12) 0.0769(3) 0.08251(13)
O24_4 O 0.31499(11) 0.0480(3) 0.07494(13)
S1_6 S 0.40627(5) 0.98043(14) 0.40804(5)
S3_6 S 0.09453(5) 0.82681(12) 0.09582(5)
C11_6 C 0.37839(17) 0.9756(5) 0.4918(2)
H5_6 H 0.3998 0.9396 0.5048
C13_6 C 0.34906(16) 0.9971(4) 0.51652(18)
C14_6 C 0.34746(17) 0.9541(4) 0.56168(18)
C30_6 C 0.18757(17) 0.9555(4) 0.1657(2)
C31_6 C 0.16198(17) 0.9254(4) 0.1284(2)
H13_6 H 0.1653 0.9413 0.0984
C32_6 C 0.18276(18) 0.9318(4) 0.2095(2)
H14_6 H 0.2009 0.9526 0.2345
C33_6 C 0.13130(17) 0.8710(4) 0.1368(2)
C34_6 C 0.15197(19) 0.8782(5) 0.2174(2)
H15_6 H 0.1490 0.8623 0.2476
C35_6 C 0.12547(17) 0.8480(4) 0.1808(2)
C36_6 C 0.09029(16) 0.7916(4) 0.1805(2)
C37_6 C 0.07122(17) 0.7755(4) 0.13766(19)
C38_6 C 0.07672(17) 0.7550(4) 0.21794(19)
H16_6 H 0.0903 0.7643 0.2478
C39_6 C 0.03734(17) 0.7242(4) 0.1296(2)
H17_6 H 0.0244 0.7138 0.0996
C40_6 C 0.04307(16) 0.7047(4) 0.2109(2)
H18_6 H 0.0332 0.6803 0.2363
C41_6 C 0.02319(16) 0.6890(4) 0.1671(2)
C43_6 C 0.4584(2) 0.9358(5) 0.0813(2)
H19_6 H 0.4780 0.9806 0.0825
C44_6 C 0.4843(3) 0.8731(8) 0.0178(3)
H20_5 H 0.5039 0.9203 0.0256
H22_6 H 0.4971 0.8141 0.0200
C45_6 C 0.4258(3) 0.8069(7) 0.0441(4)
H23_6 H 0.4042 0.8274 0.0591
H24_6 H 0.4364 0.7509 0.0583
H25_6 H 0.4163 0.7963 0.0118
C46_6 C 0.45311(18) 0.9376(4) 0.2477(2)
H26_6 H 0.4630 0.9951 0.2574
C47_6 C 0.4764(3) 0.8819(6) 0.3238(3)
H27_6 H 0.4846 0.9445 0.3294
H28_6 H 0.4993 0.8426 0.3286
H29_6 H 0.4585 0.8648 0.3448
C48_6 C 0.4415(3) 0.7845(6) 0.2633(3)
H30_6 H 0.4367 0.7819 0.2301
H31_6 H 0.4170 0.7745 0.2752
H32_6 H 0.4602 0.7377 0.2750
N1_6 N 0.45713(18) 0.8728(4) 0.27793(19)
N2_6 N 0.4565(2) 0.8765(5) 0.0488(2)
O4_6 O 0.40400(17) 0.8864(4) 0.39816(18)
O5_4 O 0.37903(12) 0.9231(3) 0.58251(13)
O6_4 O 0.31499(11) 0.9520(3) 0.57494(13)
O15_6 O 0.07077(14) 0.8980(4) 0.07329(17)
O16_6 O 0.10963(15) 0.7612(4) 0.06743(16)
O19_6 O 0.43706(13) 0.9389(3) 0.11043(16)
O20_6 O 0.43775(13) 0.9305(3) 0.20805(16)
Eu3_4 Eu 0.290349(8) 0.903103(19) 0.641048(9)
Eu5_4 Eu 0.412951(8) 0.946584(19) 0.656208(9)
C42_6 C 0.98625(16) 0.6368(4) 0.16076(19)
H5_7 H 0.8998 0.5604 0.0048
H6_6 H 0.7999 0.4282 0.0157
C13_7 C 0.84906(16) 0.5029(4) 0.01652(18)
C14_7 C 0.84746(17) 0.5459(4) 0.06168(18)
S1_7 S 0.90627(5) 0.51957(14) 0.90804(5)
S3_7 S 0.59453(5) 0.67319(12) 0.59582(5)
C1_7 C 0.85805(17) 0.4095(4) 0.7391(2)
C2_7 C 0.85553(17) 0.4098(4) 0.7890(2)
C3_7 C 0.88306(17) 0.4541(4) 0.8195(2)
H1_7 H 0.9050 0.4818 0.8097
C4_7 C 0.82428(17) 0.3672(5) 0.8055(2)
H2_7 H 0.8053 0.3365 0.7847
C5_7 C 0.87788(16) 0.4571(4) 0.8647(2)
C6_7 C 0.82046(17) 0.3686(5) 0.8503(2)
H3_7 H 0.7998 0.3369 0.8608
C7_7 C 0.84722(18) 0.4171(4) 0.8806(2)
C8_7 C 0.84575(18) 0.4362(4) 0.9290(2)
C9_7 C 0.87591(17) 0.4925(5) 0.9482(2)
C10_7 C 0.81722(17) 0.4106(4) 0.9548(2)
H4_7 H 0.7969 0.3707 0.9427
C11_7 C 0.87839(17) 0.5244(5) 0.9918(2)
C12_7 C 0.81930(17) 0.4447(4) 0.9979(2)
C15_7 C 0.86901(18) 0.2534(4) 0.64785(19)
C16_7 C 0.86744(19) 0.1523(4) 0.6489(2)
C17_7 C 0.9022(2) 0.1060(6) 0.6523(3)
H7_7 H 0.9259 0.1388 0.6554
C18_7 C 0.83293(19) 0.1074(4) 0.6467(2)
H8_7 H 0.8088 0.1383 0.6448
C19_7 C 0.9033(2) 0.0121(5) 0.6513(3)
C20_7 C 0.83508(18) 0.0120(4) 0.6474(2)
C29_7 C 0.72183(17) 0.4864(4) 0.6583(2)
C30_7 C 0.68757(17) 0.5445(4) 0.6657(2)
C31_7 C 0.66198(17) 0.5746(4) 0.6284(2)
H13_7 H 0.6653 0.5587 0.5984
C32_7 C 0.68276(18) 0.5682(4) 0.7095(2)
H14_7 H 0.7009 0.5474 0.7345
C33_7 C 0.63130(17) 0.6290(4) 0.6368(2)
C34_7 C 0.65197(19) 0.6218(5) 0.7174(2)
H15_7 H 0.6490 0.6377 0.7476
C35_7 C 0.62547(17) 0.6520(4) 0.6808(2)
C36_7 C 0.59029(16) 0.7084(4) 0.6805(2)
C37_7 C 0.57122(17) 0.7245(4) 0.63766(19)
C38_7 C 0.57672(17) 0.7450(4) 0.71794(19)
H16_7 H 0.5903 0.7357 0.7478
C39_7 C 0.53734(17) 0.7758(4) 0.6296(2)
H17_7 H 0.5244 0.7862 0.5996
C40_7 C 0.54307(16) 0.7953(4) 0.7109(2)
H18_7 H 0.5332 0.8197 0.7363
C41_7 C 0.52319(16) 0.8110(4) 0.6671(2)
C42_7 C 0.48625(16) 0.8632(4) 0.66076(19)
C43_7 C 0.9584(2) 0.5642(5) 0.5813(2)
H19_7 H 0.9780 0.5194 0.5825
C44_7 C 0.9843(3) 0.6269(8) 0.5178(3)
H21_3 H 0.9710 0.6175 0.4867
H22_7 H 0.9971 0.6859 0.5200
C45_7 C 0.9258(3) 0.6931(7) 0.5441(4)
H23_7 H 0.9042 0.6726 0.5591
H24_7 H 0.9364 0.7491 0.5583
H25_7 H 0.9163 0.7037 0.5118
C46_7 C 0.95311(18) 0.5624(4) 0.7477(2)
H26_7 H 0.9630 0.5049 0.7574
C47_7 C 0.9764(3) 0.6181(6) 0.8238(3)
H27_7 H 0.9846 0.5555 0.8294
H28_7 H 0.9993 0.6574 0.8286
H29_7 H 0.9585 0.6352 0.8448
C48_7 C 0.9415(3) 0.7155(6) 0.7633(3)
H30_7 H 0.9367 0.7181 0.7301
H31_7 H 0.9170 0.7255 0.7752
H32_7 H 0.9602 0.7623 0.7750
C49_7 C 0.7462(2) 0.2549(7) 0.7038(3)
H33_7 H 0.7504 0.2984 0.7274
C50_7 C 0.7102(5) 0.1716(11) 0.7542(4)
H34_7 H 0.7208 0.2188 0.7755
H35_7 H 0.6818 0.1760 0.7486
H36_7 H 0.7178 0.1125 0.7672
C51_7 C 0.7162(3) 0.1166(6) 0.6770(5)
H37_7 H 0.7299 0.1304 0.6515
H38_7 H 0.7242 0.0572 0.6893
H39_7 H 0.6881 0.1165 0.6665
C52_7 C 0.7284(3) 0.3062(8) 0.5596(5)
H40_7 H 0.7130 0.3593 0.5579
C53_7 C 0.7359(6) 0.1538(9) 0.5409(5)
H41_7 H 0.7626 0.1722 0.5525
H42_7 H 0.7272 0.1095 0.5616
H43_7 H 0.7349 0.1270 0.5107
C54_7 C 0.6737(6) 0.2442(9) 0.5050(5)
H44_3 H 0.6759 0.2179 0.4754
H45_7 H 0.6520 0.2160 0.5172
H46_7 H 0.6690 0.3091 0.5016
N1_7 N 0.95713(18) 0.6272(4) 0.77793(19)
N2_7 N 0.9565(2) 0.6235(5) 0.5488(2)
N3_7 N 0.72532(19) 0.1826(5) 0.7114(3)
N4_7 N 0.7118(3) 0.2281(8) 0.5380(4)
O1_7 O 0.89047(12) 0.4242(3) 0.72768(13)
O2_7 O 0.82677(13) 0.3946(3) 0.71329(14)
O3_7 O 0.94433(13) 0.4806(4) 0.91957(16)
O4_7 O 0.90400(17) 0.6136(4) 0.89816(18)
O7_7 O 0.90130(12) 0.2905(3) 0.65932(14)
O8_7 O 0.83720(13) 0.2929(3) 0.63597(15)
O13_7 O 0.72544(11) 0.4657(3) 0.61784(14)
O14_7 O 0.74526(13) 0.4616(3) 0.69191(15)
O15_7 O 0.57077(14) 0.6020(4) 0.57329(17)
O16_7 O 0.60963(15) 0.7388(4) 0.56743(16)
O17_4 O 0.46697(11) 0.8729(3) 0.62191(13)
O18_4 O 0.47542(11) 0.8981(3) 0.69559(14)
O19_7 O 0.93706(13) 0.5611(3) 0.61043(16)
O20_7 O 0.93775(13) 0.5695(3) 0.70805(16)
O21_7 O 0.75998(13) 0.3093(3) 0.57933(16)
O22_7 O 0.76006(14) 0.2706(3) 0.67047(18)
O25_3 O 0.85720(11) 0.5336(3) 0.65234(14)
O26_3 O 0.79532(12) 0.5686(3) 0.64572(16)
O27_4 O 0.96697(11) 0.3729(3) 0.62191(13)
O28_4 O 0.97542(11) 0.3981(3) 0.69559(14)
S2_7 S 0.79521(5) 0.93834(11) 0.64715(7)
H9_7 H 0.9272 0.9809 0.6517
C21_7 C 0.8691(2) 0.9663(5) 0.6496(3)
C22_7 C 0.86375(19) 0.8654(5) 0.6488(3)
C23_7 C 0.8911(2) 0.8008(5) 0.6492(3)
H10_7 H 0.9176 0.8161 0.6495
C24_7 C 0.82492(18) 0.8437(4) 0.6460(2)
C25_7 C 0.8796(2) 0.7131(5) 0.6492(3)
H11_7 H 0.8987 0.6670 0.6507
C26_7 C 0.8119(2) 0.7540(4) 0.6443(2)
H12_7 H 0.7851 0.7391 0.6413
C27_7 C 0.84054(17) 0.6890(4) 0.6471(2)
C28_7 C 0.83010(16) 0.5902(4) 0.64821(19)
O9_7 O 0.78025(16) 0.9410(4) 0.6904(2)
O10_7 O 0.76810(15) 0.9469(3) 0.6065(2)
H5_8 H 0.3998 0.0604 0.0048
C13_8 C 0.34906(16) 0.0029(4) 0.01652(18)
C14_8 C 0.34746(17) 0.0459(4) 0.06168(18)
S1_8 S 0.40627(5) 0.01957(14) 0.90804(5)
S3_8 S 0.09453(5) 0.17319(12) 0.59582(5)
C11_8 C 0.37839(17) 0.0244(5) 0.9918(2)
C30_8 C 0.18757(17) 0.0445(4) 0.6657(2)
C31_8 C 0.16198(17) 0.0746(4) 0.6284(2)
H13_8 H 0.1653 0.0587 0.5984
C32_8 C 0.18276(18) 0.0682(4) 0.7095(2)
H14_8 H 0.2009 0.0474 0.7345
C33_8 C 0.13130(17) 0.1290(4) 0.6368(2)
C34_8 C 0.15197(19) 0.1218(5) 0.7174(2)
H15_8 H 0.1490 0.1377 0.7476
C35_8 C 0.12547(17) 0.1520(4) 0.6808(2)
C36_8 C 0.09029(16) 0.2084(4) 0.6805(2)
C37_8 C 0.07122(17) 0.2245(4) 0.63766(19)
C38_8 C 0.07672(17) 0.2450(4) 0.71794(19)
H16_8 H 0.0903 0.2357 0.7478
C39_8 C 0.03734(17) 0.2758(4) 0.6296(2)
H17_8 H 0.0244 0.2862 0.5996
C40_8 C 0.04307(16) 0.2953(4) 0.7109(2)
H18_8 H 0.0332 0.3197 0.7363
C41_8 C 0.02319(16) 0.3110(4) 0.6671(2)
C43_8 C 0.4584(2) 0.0642(5) 0.5813(2)
H19_8 H 0.4780 0.0194 0.5825
C44_8 C 0.4843(3) 0.1269(8) 0.5178(3)
H20_6 H 0.5039 0.0797 0.5256
H21_4 H 0.4710 0.1175 0.4867
H22_8 H 0.4971 0.1859 0.5200
C45_8 C 0.4258(3) 0.1931(7) 0.5441(4)
H23_8 H 0.4042 0.1726 0.5591
H24_8 H 0.4364 0.2491 0.5583
H25_8 H 0.4163 0.2037 0.5118
C46_8 C 0.45311(18) 0.0624(4) 0.7477(2)
H26_8 H 0.4630 0.0049 0.7574
C47_8 C 0.4764(3) 0.1181(6) 0.8238(3)
H27_8 H 0.4846 0.0555 0.8294
H28_8 H 0.4993 0.1574 0.8286
H29_8 H 0.4585 0.1352 0.8448
C48_8 C 0.4415(3) 0.2155(6) 0.7633(3)
H30_8 H 0.4367 0.2181 0.7301
H31_8 H 0.4170 0.2255 0.7752
H32_8 H 0.4602 0.2623 0.7750
N1_8 N 0.45713(18) 0.1272(4) 0.77793(19)
N2_8 N 0.4565(2) 0.1235(5) 0.5488(2)
O4_8 O 0.40400(17) 0.1136(4) 0.89816(18)
O15_8 O 0.07077(14) 0.1020(4) 0.57329(17)
O16_8 O 0.10963(15) 0.2388(4) 0.56743(16)
O19_8 O 0.43706(13) 0.0611(3) 0.61043(16)
O20_8 O 0.43775(13) 0.0695(3) 0.70805(16)
O25_4 O 0.35720(11) 0.0336(3) 0.65234(14)
O26_4 O 0.29532(12) 0.0686(3) 0.64572(16)
S2_8 S 0.29521(5) 0.43834(11) 0.64715(7)
C1_8 C 0.35805(17) 0.9095(4) 0.7391(2)
C2_8 C 0.35553(17) 0.9098(4) 0.7890(2)
C3_8 C 0.38306(17) 0.9541(4) 0.8195(2)
H1_8 H 0.4050 0.9818 0.8097
C4_8 C 0.32428(17) 0.8672(5) 0.8055(2)
H2_8 H 0.3053 0.8365 0.7847
C5_8 C 0.37788(16) 0.9571(4) 0.8647(2)
C6_8 C 0.32046(17) 0.8686(5) 0.8503(2)
H3_8 H 0.2998 0.8369 0.8608
C7_8 C 0.34722(18) 0.9171(4) 0.8806(2)
C8_8 C 0.34575(18) 0.9362(4) 0.9290(2)
C9_8 C 0.37591(17) 0.9925(5) 0.9482(2)
C10_8 C 0.31722(17) 0.9106(4) 0.9548(2)
H4_8 H 0.2969 0.8707 0.9427
C12_8 C 0.31930(17) 0.9447(4) 0.9979(2)
C15_8 C 0.36901(18) 0.7534(4) 0.64785(19)
C16_8 C 0.36744(19) 0.6523(4) 0.6489(2)
C17_8 C 0.4022(2) 0.6060(6) 0.6523(3)
H7_8 H 0.4259 0.6388 0.6554
C18_8 C 0.33293(19) 0.6074(4) 0.6467(2)
H8_8 H 0.3088 0.6383 0.6448
C19_8 C 0.4033(2) 0.5121(5) 0.6513(3)
H9_8 H 0.4272 0.4809 0.6517
C20_8 C 0.33508(18) 0.5120(4) 0.6474(2)
C21_8 C 0.3691(2) 0.4663(5) 0.6496(3)
C22_8 C 0.36375(19) 0.3654(5) 0.6488(3)
C23_8 C 0.3911(2) 0.3008(5) 0.6492(3)
H10_8 H 0.4176 0.3161 0.6495
C24_8 C 0.32492(18) 0.3437(4) 0.6460(2)
C25_8 C 0.3796(2) 0.2131(5) 0.6492(3)
H11_8 H 0.3987 0.1670 0.6507
C26_8 C 0.3119(2) 0.2540(4) 0.6443(2)
H12_8 H 0.2851 0.2391 0.6413
C27_8 C 0.34054(17) 0.1890(4) 0.6471(2)
C28_8 C 0.33010(16) 0.0902(4) 0.64821(19)
C29_8 C 0.22183(17) 0.9864(4) 0.6583(2)
C49_8 C 0.2462(2) 0.7549(7) 0.7038(3)
H33_8 H 0.2504 0.7984 0.7274
C50_8 C 0.2102(5) 0.6716(11) 0.7542(4)
H34_8 H 0.2208 0.7188 0.7755
H35_8 H 0.1818 0.6760 0.7486
H36_8 H 0.2178 0.6125 0.7672
C51_8 C 0.2162(3) 0.6166(6) 0.6770(5)
H37_8 H 0.2299 0.6304 0.6515
H38_8 H 0.2242 0.5572 0.6893
H39_8 H 0.1881 0.6165 0.6665
C52_8 C 0.2284(3) 0.8062(8) 0.5596(5)
H40_8 H 0.2130 0.8593 0.5579
C53_8 C 0.2359(6) 0.6538(9) 0.5409(5)
H41_8 H 0.2626 0.6722 0.5525
H42_8 H 0.2272 0.6095 0.5616
H43_8 H 0.2349 0.6270 0.5107
C54_8 C 0.1737(6) 0.7442(9) 0.5050(5)
H44_4 H 0.1759 0.7179 0.4754
H45_8 H 0.1520 0.7160 0.5172
H46_8 H 0.1690 0.8091 0.5016
N3_8 N 0.22532(19) 0.6826(5) 0.7114(3)
N4_8 N 0.2118(3) 0.7281(8) 0.5380(4)
O1_8 O 0.39047(12) 0.9242(3) 0.72768(13)
O2_8 O 0.32677(13) 0.8946(3) 0.71329(14)
O3_8 O 0.44433(13) 0.9806(4) 0.91957(16)
O7_8 O 0.40130(12) 0.7905(3) 0.65932(14)
O8_8 O 0.33720(13) 0.7929(3) 0.63597(15)
O9_8 O 0.28025(16) 0.4410(4) 0.6904(2)
O10_8 O 0.26810(15) 0.4469(3) 0.6065(2)
O13_8 O 0.22544(11) 0.9657(3) 0.61784(14)
O14_8 O 0.24526(13) 0.9616(3) 0.69191(15)
O21_8 O 0.25998(13) 0.8093(3) 0.57933(16)
O22_8 O 0.26006(14) 0.7706(3) 0.67047(18)
C42_8 C 0.98625(16) 0.3632(4) 0.66076(19)
H21_5 H 0.9710 0.3825 0.9867
H44_5 H 0.6759 0.7821 0.9754
H6_7 H 0.7001 0.0718 0.9843
H44_6 H 0.1759 0.2821 0.9754
H21_6 H 0.4710 0.8825 0.9867
H20_7 H 0.0039 0.5797 0.5256
H21_7 H 0.0290 0.6175 0.0133
H44_7 H 0.3241 0.2179 0.0246
H20_8 H 0.9961 0.5797 0.9744
H6_8 H 0.2999 0.9282 0.0157
H21_8 H 0.5290 0.1175 0.0133
H44_8 H 0.8241 0.7179 0.0246
loop_
_geom_bond_atom_site_label_1
_geom_bond_atom_site_label_2
_geom_bond_site_symmetry_1
_geom_bond_site_symmetry_2
C22 C21 1_555 1_555
C23 C22 1_555 1_555
H10 C23 1_555 1_555
C24 S2 1_555 1_555
C25 C23 1_555 1_555
H11 C25 1_555 1_555
C26 C24 1_555 1_555
H12 C26 1_555 1_555
C27 C25 1_555 1_555
C28 C27 1_555 1_555
O9 S2 1_555 1_555
O10 S2 1_555 1_555
O11 C28 1_555 1_555
O12 C28 1_555 1_555
Eu4 O12 1_555 1_555
Eu6 O11 1_555 1_555
C22 C24 1_555 1_555
C26 C27 1_555 1_555
Eu4 O2 1_555 1_555
Eu6 O1 1_555 1_555
S1 C5 1_555 1_555
S3 C33 1_555 1_555
C1 C2 1_555 1_555
C2 C3 1_555 1_555
C3 H1 1_555 1_555
C4 C2 1_555 1_555
H2 C4 1_555 1_555
C5 C3 1_555 1_555
C6 C4 1_555 1_555
H3 C6 1_555 1_555
C7 C5 1_555 1_555
C8 C7 1_555 1_555
C9 S1 1_555 1_555
C10 C8 1_555 1_555
H4 C10 1_555 1_555
C11 C9 1_555 1_555
C12 C10 1_555 1_555
C15 C16 1_555 1_555
C16 C17 1_555 1_555
C17 H7 1_555 1_555
C18 C16 1_555 1_555
H8 C18 1_555 1_555
C19 C17 1_555 1_555
C20 C18 1_555 1_555
C29 C30 1_555 1_555
C30 C31 1_555 1_555
C31 H13 1_555 1_555
C32 C30 1_555 1_555
H14 C32 1_555 1_555
C33 C31 1_555 1_555
C34 C32 1_555 1_555
H15 C34 1_555 1_555
C35 C33 1_555 1_555
C36 C35 1_555 1_555
C37 S3 1_555 1_555
C38 C36 1_555 1_555
H16 C38 1_555 1_555
C39 C37 1_555 1_555
H17 C39 1_555 1_555
C40 C38 1_555 1_555
H18 C40 1_555 1_555
C41 C39 1_555 1_555
C42 C41 1_555 1_555
C43 H19 1_555 1_555
H21 C44 1_555 1_555
H22 C44 1_555 1_555
C45 H23 1_555 1_555
H24 C45 1_555 1_555
H25 C45 1_555 1_555
C46 H26 1_555 1_555
C47 H27 1_555 1_555
H28 C47 1_555 1_555
H29 C47 1_555 1_555
C48 H30 1_555 1_555
H31 C48 1_555 1_555
H32 C48 1_555 1_555
C49 H33 1_555 1_555
C50 H34 1_555 1_555
H35 C50 1_555 1_555
H36 C50 1_555 1_555
C51 H37 1_555 1_555
H38 C51 1_555 1_555
H39 C51 1_555 1_555
C52 H40 1_555 1_555
C53 H41 1_555 1_555
H42 C53 1_555 1_555
H43 C53 1_555 1_555
C54 H44 1_555 1_555
H45 C54 1_555 1_555
H46 C54 1_555 1_555
N1 C46 1_555 1_555
N2 C43 1_555 1_555
N3 C49 1_555 1_555
N4 C52 1_555 1_555
O1 C1 1_555 1_555
O2 C1 1_555 1_555
O3 S1 1_555 1_555
O4 S1 1_555 1_555
O7 Eu6 1_555 1_555
O8 Eu4 1_555 1_555
O13 Eu4 1_555 1_555
O14 Eu4 1_555 1_555
O15 S3 1_555 1_555
O16 S3 1_555 1_555
O17 C42 1_555 1_555
O18 C42 1_555 1_555
O19 Eu6 1_555 1_555
O20 Eu6 1_555 1_555
O21 Eu4 1_555 1_555
O22 Eu4 1_555 1_555
Eu7 O17 1_555 1_555
O23 Eu6 1_555 1_555
O24 Eu4 1_555 1_555
O27 Eu6 1_555 1_555
O28 Eu6 1_555 1_555
C6 C7 1_555 1_555
C8 C9 1_555 1_555
C15 O7 1_555 1_555
C15 O8 1_555 1_555
C29 O13 1_555 1_555
C29 O14 1_555 1_555
C34 C35 1_555 1_555
C36 C37 1_555 1_555
C40 C41 1_555 1_555
C43 O19 1_555 1_555
C44 N2 1_555 1_555
C45 N2 1_555 1_555
C46 O20 1_555 1_555
C47 N1 1_555 1_555
C48 N1 1_555 1_555
C49 O22 1_555 1_555
C50 N3 1_555 1_555
C51 N3 1_555 1_555
C52 O21 1_555 1_555
C53 N4 1_555 1_555
C54 N4 1_555 1_555
O18 Eu7 1_555 1_555
C14 C13 1_555 1_555
O5 C14 1_555 1_555
O6 C14 1_555 1_555
Eu3 O6 1_555 1_555
Eu5 O5 1_555 1_555
O27 C42_2 1_555 1_555
O28 C42_2 1_555 1_555
Eu4_2 O2_2 1_555 1_555
Eu7 O1_2 1_555 1_555
S2_2 C20_2 1_555 1_555
C1_2 C2_2 1_555 1_555
C2_2 C3_2 1_555 1_555
C3_2 H1_2 1_555 1_555
C4_2 C2_2 1_555 1_555
H2_2 C4_2 1_555 1_555
C5_2 C3_2 1_555 1_555
C6_2 C4_2 1_555 1_555
H3_2 C6_2 1_555 1_555
C7_2 C5_2 1_555 1_555
C8_2 C7_2 1_555 1_555
C10_2 C8_2 1_555 1_555
H4_2 C10_2 1_555 1_555
C12_2 C10_2 1_555 1_555
C15_2 C16_2 1_555 1_555
C16_2 C17_2 1_555 1_555
C17_2 H7_2 1_555 1_555
C18_2 C16_2 1_555 1_555
H8_2 C18_2 1_555 1_555
C19_2 C17_2 1_555 1_555
H9_2 C19_2 1_555 1_555
C20_2 C18_2 1_555 1_555
C21_2 C19_2 1_555 1_555
C22_2 C21_2 1_555 1_555
C23_2 C22_2 1_555 1_555
H10_2 C23_2 1_555 1_555
C24_2 S2_2 1_555 1_555
C25_2 C23_2 1_555 1_555
H11_2 C25_2 1_555 1_555
C26_2 C24_2 1_555 1_555
H12_2 C26_2 1_555 1_555
C27_2 C25_2 1_555 1_555
C28_2 C27_2 1_555 1_555
C49_2 H33_2 1_555 1_555
C50_2 H34_2 1_555 1_555
H35_2 C50_2 1_555 1_555
H36_2 C50_2 1_555 1_555
C51_2 H37_2 1_555 1_555
H38_2 C51_2 1_555 1_555
H39_2 C51_2 1_555 1_555
C52_2 H40_2 1_555 1_555
C53_2 H41_2 1_555 1_555
H42_2 C53_2 1_555 1_555
H43_2 C53_2 1_555 1_555
C54_2 H44_2 1_555 1_555
H45_2 C54_2 1_555 1_555
H46_2 C54_2 1_555 1_555
N3_2 C49_2 1_555 1_555
N4_2 C52_2 1_555 1_555
O1_2 C1_2 1_555 1_555
O2_2 C1_2 1_555 1_555
O7_2 Eu7 1_555 1_555
O8_2 Eu4_2 1_555 1_555
O9_2 S2_2 1_555 1_555
O10_2 S2_2 1_555 1_555
O11_2 C28_2 1_555 1_555
O12_2 C28_2 1_555 1_555
O13_2 Eu4_2 1_555 1_555
O14_2 Eu4_2 1_555 1_555
O21_2 Eu4_2 1_555 1_555
O22_2 Eu4_2 1_555 1_555
O23_2 Eu7 1_555 1_555
O24_2 Eu4_2 1_555 1_555
C6_2 C7_2 1_555 1_555
C8_2 C9_2 1_555 1_555
C15_2 O7_2 1_555 1_555
C15_2 O8_2 1_555 1_555
C20_2 C21_2 1_555 1_555
C22_2 C24_2 1_555 1_555
C26_2 C27_2 1_555 1_555
C29_2 O13_2 1_555 1_555
C29_2 O14_2 1_555 1_555
C49_2 O22_2 1_555 1_555
C50_2 N3_2 1_555 1_555
C51_2 N3_2 1_555 1_555
C52_2 O21_2 1_555 1_555
C53_2 N4_2 1_555 1_555
C54_2 N4_2 1_555 1_555
S3_2 C33_2 1_555 1_555
C30_2 C31_2 1_555 1_555
C31_2 H13_2 1_555 1_555
C32_2 C30_2 1_555 1_555
H14_2 C32_2 1_555 1_555
C33_2 C31_2 1_555 1_555
C34_2 C32_2 1_555 1_555
H15_2 C34_2 1_555 1_555
C35_2 C33_2 1_555 1_555
C36_2 C35_2 1_555 1_555
C37_2 S3_2 1_555 1_555
C38_2 C36_2 1_555 1_555
H16_2 C38_2 1_555 1_555
C39_2 C37_2 1_555 1_555
H17_2 C39_2 1_555 1_555
C40_2 C38_2 1_555 1_555
H18_2 C40_2 1_555 1_555
C41_2 C39_2 1_555 1_555
C43_2 H19_2 1_555 1_555
C44_2 H20 1_555 1_555
H21_2 C44_2 1_555 1_555
H22_2 C44_2 1_555 1_555
C45_2 H23_2 1_555 1_555
H24_2 C45_2 1_555 1_555
H25_2 C45_2 1_555 1_555
C46_2 H26_2 1_555 1_555
C47_2 H27_2 1_555 1_555
H28_2 C47_2 1_555 1_555
H29_2 C47_2 1_555 1_555
C48_2 H30_2 1_555 1_555
H31_2 C48_2 1_555 1_555
H32_2 C48_2 1_555 1_555
N1_2 C46_2 1_555 1_555
N2_2 C43_2 1_555 1_555
O4_2 S1_2 1_555 1_555
O15_2 S3_2 1_555 1_555
O16_2 S3_2 1_555 1_555
C34_2 C35_2 1_555 1_555
C36_2 C37_2 1_555 1_555
C40_2 C41_2 1_555 1_555
C43_2 O19_2 1_555 1_555
C44_2 N2_2 1_555 1_555
C45_2 N2_2 1_555 1_555
C46_2 O20_2 1_555 1_555
C47_2 N1_2 1_555 1_555
C48_2 N1_2 1_555 1_555
C14_2 C13_2 1_555 1_555
O5_2 C14_2 1_555 1_555
O6_2 C14_2 1_555 1_555
Eu3_2 O6_2 1_555 1_555
Eu5_2 O5_2 1_555 1_555
Eu3 O2_3 1_555 1_555
Eu5 O1_3 1_555 1_555
S1_3 C5_3 1_555 1_555
S3_3 C33_3 1_555 1_555
C1_3 C2_3 1_555 1_555
C2_3 C3_3 1_555 1_555
C3_3 H1_3 1_555 1_555
C4_3 C2_3 1_555 1_555
H2_3 C4_3 1_555 1_555
C5_3 C3_3 1_555 1_555
C6_3 C4_3 1_555 1_555
H3_3 C6_3 1_555 1_555
C7_3 C5_3 1_555 1_555
C8_3 C7_3 1_555 1_555
C9_3 S1_3 1_555 1_555
C10_3 C8_3 1_555 1_555
H4_3 C10_3 1_555 1_555
C11_3 C9_3 1_555 1_555
H5_3 C11_3 1_555 1_555
C12_3 C10_3 1_555 1_555
H6_2 C12_3 1_555 1_555
C13_3 C11_3 1_555 1_555
C14_3 C13_3 1_555 1_555
C15_3 C16_3 1_555 1_555
C16_3 C17_3 1_555 1_555
C17_3 H7_3 1_555 1_555
C18_3 C16_3 1_555 1_555
H8_3 C18_3 1_555 1_555
C19_3 C17_3 1_555 1_555
C20_3 C18_3 1_555 1_555
C29_3 C30_3 1_555 1_555
C30_3 C31_3 1_555 1_555
C31_3 H13_3 1_555 1_555
C32_3 C30_3 1_555 1_555
H14_3 C32_3 1_555 1_555
C33_3 C31_3 1_555 1_555
C34_3 C32_3 1_555 1_555
H15_3 C34_3 1_555 1_555
C35_3 C33_3 1_555 1_555
C36_3 C35_3 1_555 1_555
C37_3 S3_3 1_555 1_555
C38_3 C36_3 1_555 1_555
H16_3 C38_3 1_555 1_555
C39_3 C37_3 1_555 1_555
H17_3 C39_3 1_555 1_555
C40_3 C38_3 1_555 1_555
H18_3 C40_3 1_555 1_555
C41_3 C39_3 1_555 1_555
C42_3 C41_3 1_555 1_555
C43_3 H19_3 1_555 1_555
H22_3 C44_3 1_555 1_555
C45_3 H23_3 1_555 1_555
H24_3 C45_3 1_555 1_555
H25_3 C45_3 1_555 1_555
C46_3 H26_3 1_555 1_555
C47_3 H27_3 1_555 1_555
H28_3 C47_3 1_555 1_555
H29_3 C47_3 1_555 1_555
C48_3 H30_3 1_555 1_555
H31_3 C48_3 1_555 1_555
H32_3 C48_3 1_555 1_555
C49_3 H33_3 1_555 1_555
C50_3 H34_3 1_555 1_555
H35_3 C50_3 1_555 1_555
H36_3 C50_3 1_555 1_555
C51_3 H37_3 1_555 1_555
H38_3 C51_3 1_555 1_555
H39_3 C51_3 1_555 1_555
C52_3 H40_3 1_555 1_555
C53_3 H41_3 1_555 1_555
H42_3 C53_3 1_555 1_555
H43_3 C53_3 1_555 1_555
H45_3 C54_3 1_555 1_555
H46_3 C54_3 1_555 1_555
N1_3 C46_3 1_555 1_555
N2_3 C43_3 1_555 1_555
N3_3 C49_3 1_555 1_555
N4_3 C52_3 1_555 1_555
O1_3 C1_3 1_555 1_555
O2_3 C1_3 1_555 1_555
O3_3 S1_3 1_555 1_555
O4_3 S1_3 1_555 1_555
O23 C14_3 1_555 1_555
O24 C14_3 1_555 1_555
O7_3 Eu5 1_555 1_555
O8_3 Eu3 1_555 1_555
O13_3 Eu3 1_555 1_555
O14_3 Eu3 1_555 1_555
O15_3 S3_3 1_555 1_555
O16_3 S3_3 1_555 1_555
O17_2 C42_3 1_555 1_555
O18_2 C42_3 1_555 1_555
O19_3 Eu5 1_555 1_555
O20_3 Eu5 1_555 1_555
O21_3 Eu3 1_555 1_555
O22_3 Eu3 1_555 1_555
Eu5_2 O17_2 1_555 1_555
O25 Eu5 1_555 1_555
O26 Eu3 1_555 1_555
O27_2 Eu5 1_555 1_555
O28_2 Eu5 1_555 1_555
C6_3 C7_3 1_555 1_555
C8_3 C9_3 1_555 1_555
C12_3 C13_3 1_555 1_555
C15_3 O7_3 1_555 1_555
C15_3 O8_3 1_555 1_555
C29_3 O13_3 1_555 1_555
C29_3 O14_3 1_555 1_555
C34_3 C35_3 1_555 1_555
C36_3 C37_3 1_555 1_555
C40_3 C41_3 1_555 1_555
C43_3 O19_3 1_555 1_555
C44_3 N2_3 1_555 1_555
C45_3 N2_3 1_555 1_555
C46_3 O20_3 1_555 1_555
C47_3 N1_3 1_555 1_555
C48_3 N1_3 1_555 1_555
C49_3 O22_3 1_555 1_555
C50_3 N3_3 1_555 1_555
C51_3 N3_3 1_555 1_555
C52_3 O21_3 1_555 1_555
C53_3 N4_3 1_555 1_555
C54_3 N4_3 1_555 1_555
O18_2 Eu5_2 1_555 1_555
C22_3 C21_3 1_555 1_555
C23_3 C22_3 1_555 1_555
H10_3 C23_3 1_555 1_555
C24_3 S2_3 1_555 1_555
C25_3 C23_3 1_555 1_555
H11_3 C25_3 1_555 1_555
C26_3 C24_3 1_555 1_555
H12_3 C26_3 1_555 1_555
C27_3 C25_3 1_555 1_555
C28_3 C27_3 1_555 1_555
O9_3 S2_3 1_555 1_555
O10_3 S2_3 1_555 1_555
O25 C28_3 1_555 1_555
O26 C28_3 1_555 1_555
C22_3 C24_3 1_555 1_555
C26_3 C27_3 1_555 1_555
O27_2 C42_4 1_555 1_555
O28_2 C42_4 1_555 1_555
S3_4 C33_4 1_555 1_555
H5_4 C11_4 1_555 1_555
C13_4 C11_4 1_555 1_555
C14_4 C13_4 1_555 1_555
C30_4 C31_4 1_555 1_555
C31_4 H13_4 1_555 1_555
C32_4 C30_4 1_555 1_555
H14_4 C32_4 1_555 1_555
C33_4 C31_4 1_555 1_555
C34_4 C32_4 1_555 1_555
H15_4 C34_4 1_555 1_555
C35_4 C33_4 1_555 1_555
C36_4 C35_4 1_555 1_555
C37_4 S3_4 1_555 1_555
C38_4 C36_4 1_555 1_555
H16_4 C38_4 1_555 1_555
C39_4 C37_4 1_555 1_555
H17_4 C39_4 1_555 1_555
C40_4 C38_4 1_555 1_555
H18_4 C40_4 1_555 1_555
C41_4 C39_4 1_555 1_555
C43_4 H19_4 1_555 1_555
C44_4 H20_2 1_555 1_555
H22_4 C44_4 1_555 1_555
C45_4 H23_4 1_555 1_555
H24_4 C45_4 1_555 1_555
H25_4 C45_4 1_555 1_555
C46_4 H26_4 1_555 1_555
C47_4 H27_4 1_555 1_555
H28_4 C47_4 1_555 1_555
H29_4 C47_4 1_555 1_555
C48_4 H30_4 1_555 1_555
H31_4 C48_4 1_555 1_555
H32_4 C48_4 1_555 1_555
N1_4 C46_4 1_555 1_555
N2_4 C43_4 1_555 1_555
O4_4 S1_4 1_555 1_555
O23_2 C14_4 1_555 1_555
O24_2 C14_4 1_555 1_555
O15_4 S3_4 1_555 1_555
O16_4 S3_4 1_555 1_555
C34_4 C35_4 1_555 1_555
C36_4 C37_4 1_555 1_555
C40_4 C41_4 1_555 1_555
C43_4 O19_4 1_555 1_555
C44_4 N2_4 1_555 1_555
C45_4 N2_4 1_555 1_555
C46_4 O20_4 1_555 1_555
C47_4 N1_4 1_555 1_555
C48_4 N1_4 1_555 1_555
Eu3_2 O2_4 1_555 1_555
Eu5_2 O1_4 1_555 1_555
S2_4 C20_4 1_555 1_555
C1_4 C2_4 1_555 1_555
C2_4 C3_4 1_555 1_555
C3_4 H1_4 1_555 1_555
C4_4 C2_4 1_555 1_555
H2_4 C4_4 1_555 1_555
C5_4 C3_4 1_555 1_555
C6_4 C4_4 1_555 1_555
H3_4 C6_4 1_555 1_555
C7_4 C5_4 1_555 1_555
C8_4 C7_4 1_555 1_555
C10_4 C8_4 1_555 1_555
H4_4 C10_4 1_555 1_555
C12_4 C10_4 1_555 1_555
H6_3 C12_4 1_555 1_555
C15_4 C16_4 1_555 1_555
C16_4 C17_4 1_555 1_555
C17_4 H7_4 1_555 1_555
C18_4 C16_4 1_555 1_555
H8_4 C18_4 1_555 1_555
C19_4 C17_4 1_555 1_555
H9_4 C19_4 1_555 1_555
C20_4 C18_4 1_555 1_555
C21_4 C19_4 1_555 1_555
C22_4 C21_4 1_555 1_555
C23_4 C22_4 1_555 1_555
H10_4 C23_4 1_555 1_555
C24_4 S2_4 1_555 1_555
C25_4 C23_4 1_555 1_555
H11_4 C25_4 1_555 1_555
C26_4 C24_4 1_555 1_555
H12_4 C26_4 1_555 1_555
C27_4 C25_4 1_555 1_555
C28_4 C27_4 1_555 1_555
C49_4 H33_4 1_555 1_555
C50_4 H34_4 1_555 1_555
H35_4 C50_4 1_555 1_555
H36_4 C50_4 1_555 1_555
C51_4 H37_4 1_555 1_555
H38_4 C51_4 1_555 1_555
H39_4 C51_4 1_555 1_555
C52_4 H40_4 1_555 1_555
C53_4 H41_4 1_555 1_555
H42_4 C53_4 1_555 1_555
H43_4 C53_4 1_555 1_555
H45_4 C54_4 1_555 1_555
H46_4 C54_4 1_555 1_555
N3_4 C49_4 1_555 1_555
N4_4 C52_4 1_555 1_555
O1_4 C1_4 1_555 1_555
O2_4 C1_4 1_555 1_555
O7_4 Eu5_2 1_555 1_555
O8_4 Eu3_2 1_555 1_555
O9_4 S2_4 1_555 1_555
O10_4 S2_4 1_555 1_555
O25_2 C28_4 1_555 1_555
O26_2 C28_4 1_555 1_555
O13_4 Eu3_2 1_555 1_555
O14_4 Eu3_2 1_555 1_555
O21_4 Eu3_2 1_555 1_555
O22_4 Eu3_2 1_555 1_555
C6_4 C7_4 1_555 1_555
C8_4 C9_4 1_555 1_555
C15_4 O7_4 1_555 1_555
C15_4 O8_4 1_555 1_555
C20_4 C21_4 1_555 1_555
C22_4 C24_4 1_555 1_555
C26_4 C27_4 1_555 1_555
C29_4 O13_4 1_555 1_555
C29_4 O14_4 1_555 1_555
C49_4 O22_4 1_555 1_555
C50_4 N3_4 1_555 1_555
C51_4 N3_4 1_555 1_555
C52_4 O21_4 1_555 1_555
C53_4 N4_4 1_555 1_555
C54_4 N4_4 1_555 1_555
C22_5 C21_5 1_555 1_555
C23_5 C22_5 1_555 1_555
H10_5 C23_5 1_555 1_555
C24_5 S2_5 1_555 1_555
C25_5 C23_5 1_555 1_555
H11_5 C25_5 1_555 1_555
C26_5 C24_5 1_555 1_555
H12_5 C26_5 1_555 1_555
C27_5 C25_5 1_555 1_555
C28_5 C27_5 1_555 1_555
O9_5 S2_5 1_555 1_555
O10_5 S2_5 1_555 1_555
O11_3 C28_5 1_555 1_555
O12_3 C28_5 1_555 1_555
Eu4_3 O12_3 1_555 1_555
Eu6_2 O11_3 1_555 1_555
C22_5 C24_5 1_555 1_555
C26_5 C27_5 1_555 1_555
Eu4_3 O2_5 1_555 1_555
Eu6_2 O1_5 1_555 1_555
S1_5 C5_5 1_555 1_555
S3_5 C33_5 1_555 1_555
C1_5 C2_5 1_555 1_555
C2_5 C3_5 1_555 1_555
C3_5 H1_5 1_555 1_555
C4_5 C2_5 1_555 1_555
H2_5 C4_5 1_555 1_555
C5_5 C3_5 1_555 1_555
C6_5 C4_5 1_555 1_555
H3_5 C6_5 1_555 1_555
C7_5 C5_5 1_555 1_555
C8_5 C7_5 1_555 1_555
C9_5 S1_5 1_555 1_555
C10_5 C8_5 1_555 1_555
H4_5 C10_5 1_555 1_555
C11_5 C9_5 1_555 1_555
H5_5 C11_5 1_555 1_555
C12_5 C10_5 1_555 1_555
H6_4 C12_5 1_555 1_555
C13_5 C11_5 1_555 1_555
C14_5 C13_5 1_555 1_555
C15_5 C16_5 1_555 1_555
C16_5 C17_5 1_555 1_555
C17_5 H7_5 1_555 1_555
C18_5 C16_5 1_555 1_555
H8_5 C18_5 1_555 1_555
C19_5 C17_5 1_555 1_555
C20_5 C18_5 1_555 1_555
C29_5 C30_5 1_555 1_555
C30_5 C31_5 1_555 1_555
C31_5 H13_5 1_555 1_555
C32_5 C30_5 1_555 1_555
H14_5 C32_5 1_555 1_555
C33_5 C31_5 1_555 1_555
C34_5 C32_5 1_555 1_555
H15_5 C34_5 1_555 1_555
C35_5 C33_5 1_555 1_555
C36_5 C35_5 1_555 1_555
C37_5 S3_5 1_555 1_555
C38_5 C36_5 1_555 1_555
H16_5 C38_5 1_555 1_555
C39_5 C37_5 1_555 1_555
H17_5 C39_5 1_555 1_555
C40_5 C38_5 1_555 1_555
H18_5 C40_5 1_555 1_555
C41_5 C39_5 1_555 1_555
C42_5 C41_5 1_555 1_555
C43_5 H19_5 1_555 1_555
H22_5 C44_5 1_555 1_555
C45_5 H23_5 1_555 1_555
H24_5 C45_5 1_555 1_555
H25_5 C45_5 1_555 1_555
C46_5 H26_5 1_555 1_555
C47_5 H27_5 1_555 1_555
H28_5 C47_5 1_555 1_555
H29_5 C47_5 1_555 1_555
C48_5 H30_5 1_555 1_555
H31_5 C48_5 1_555 1_555
H32_5 C48_5 1_555 1_555
C49_5 H33_5 1_555 1_555
C50_5 H34_5 1_555 1_555
H35_5 C50_5 1_555 1_555
H36_5 C50_5 1_555 1_555
C51_5 H37_5 1_555 1_555
H38_5 C51_5 1_555 1_555
H39_5 C51_5 1_555 1_555
C52_5 H40_5 1_555 1_555
C53_5 H41_5 1_555 1_555
H42_5 C53_5 1_555 1_555
H43_5 C53_5 1_555 1_555
H45_5 C54_5 1_555 1_555
H46_5 C54_5 1_555 1_555
N1_5 C46_5 1_555 1_555
N2_5 C43_5 1_555 1_555
N3_5 C49_5 1_555 1_555
N4_5 C52_5 1_555 1_555
O1_5 C1_5 1_555 1_555
O2_5 C1_5 1_555 1_555
O3_5 S1_5 1_555 1_555
O4_5 S1_5 1_555 1_555
O5_3 C14_5 1_555 1_555
O6_3 C14_5 1_555 1_555
O7_5 Eu6_2 1_555 1_555
O8_5 Eu4_3 1_555 1_555
O13_5 Eu4_3 1_555 1_555
O14_5 Eu4_3 1_555 1_555
O15_5 S3_5 1_555 1_555
O16_5 S3_5 1_555 1_555
O17_3 C42_5 1_555 1_555
O18_3 C42_5 1_555 1_555
O19_5 Eu6_2 1_555 1_555
O20_5 Eu6_2 1_555 1_555
O21_5 Eu4_3 1_555 1_555
O22_5 Eu4_3 1_555 1_555
Eu3_3 O6_3 1_555 1_555
Eu5_3 O5_3 1_555 1_555
Eu7_2 O17_3 1_555 1_555
O23_3 Eu6_2 1_555 1_555
O24_3 Eu4_3 1_555 1_555
O27_3 Eu6_2 1_555 1_555
O28_3 Eu6_2 1_555 1_555
C6_5 C7_5 1_555 1_555
C8_5 C9_5 1_555 1_555
C12_5 C13_5 1_555 1_555
C15_5 O7_5 1_555 1_555
C15_5 O8_5 1_555 1_555
C29_5 O13_5 1_555 1_555
C29_5 O14_5 1_555 1_555
C34_5 C35_5 1_555 1_555
C36_5 C37_5 1_555 1_555
C40_5 C41_5 1_555 1_555
C43_5 O19_5 1_555 1_555
C44_5 N2_5 1_555 1_555
C45_5 N2_5 1_555 1_555
C46_5 O20_5 1_555 1_555
C47_5 N1_5 1_555 1_555
C48_5 N1_5 1_555 1_555
C49_5 O22_5 1_555 1_555
C50_5 N3_5 1_555 1_555
C51_5 N3_5 1_555 1_555
C52_5 O21_5 1_555 1_555
C53_5 N4_5 1_555 1_555
C54_5 N4_5 1_555 1_555
O18_3 Eu7_2 1_555 1_555
Eu4_4 O2_6 1_555 1_555
Eu7_2 O1_6 1_555 1_555
S2_6 C20_6 1_555 1_555
C1_6 C2_6 1_555 1_555
C2_6 C3_6 1_555 1_555
C3_6 H1_6 1_555 1_555
C4_6 C2_6 1_555 1_555
H2_6 C4_6 1_555 1_555
C5_6 C3_6 1_555 1_555
C6_6 C4_6 1_555 1_555
H3_6 C6_6 1_555 1_555
C7_6 C5_6 1_555 1_555
C8_6 C7_6 1_555 1_555
C10_6 C8_6 1_555 1_555
H4_6 C10_6 1_555 1_555
C12_6 C10_6 1_555 1_555
H6_5 C12_6 1_555 1_555
C15_6 C16_6 1_555 1_555
C16_6 C17_6 1_555 1_555
C17_6 H7_6 1_555 1_555
C18_6 C16_6 1_555 1_555
H8_6 C18_6 1_555 1_555
C19_6 C17_6 1_555 1_555
H9_6 C19_6 1_555 1_555
C20_6 C18_6 1_555 1_555
C21_6 C19_6 1_555 1_555
C22_6 C21_6 1_555 1_555
C23_6 C22_6 1_555 1_555
H10_6 C23_6 1_555 1_555
C24_6 S2_6 1_555 1_555
C25_6 C23_6 1_555 1_555
H11_6 C25_6 1_555 1_555
C26_6 C24_6 1_555 1_555
H12_6 C26_6 1_555 1_555
C27_6 C25_6 1_555 1_555
C28_6 C27_6 1_555 1_555
C49_6 H33_6 1_555 1_555
C50_6 H34_6 1_555 1_555
H35_6 C50_6 1_555 1_555
H36_6 C50_6 1_555 1_555
C51_6 H37_6 1_555 1_555
H38_6 C51_6 1_555 1_555
H39_6 C51_6 1_555 1_555
C52_6 H40_6 1_555 1_555
C53_6 H41_6 1_555 1_555
H42_6 C53_6 1_555 1_555
H43_6 C53_6 1_555 1_555
H45_6 C54_6 1_555 1_555
H46_6 C54_6 1_555 1_555
N3_6 C49_6 1_555 1_555
N4_6 C52_6 1_555 1_555
O1_6 C1_6 1_555 1_555
O2_6 C1_6 1_555 1_555
O7_6 Eu7_2 1_555 1_555
O8_6 Eu4_4 1_555 1_555
O9_6 S2_6 1_555 1_555
O10_6 S2_6 1_555 1_555
O11_4 C28_6 1_555 1_555
O12_4 C28_6 1_555 1_555
O13_6 Eu4_4 1_555 1_555
O14_6 Eu4_4 1_555 1_555
O21_6 Eu4_4 1_555 1_555
O22_6 Eu4_4 1_555 1_555
O23_4 Eu7_2 1_555 1_555
O24_4 Eu4_4 1_555 1_555
C6_6 C7_6 1_555 1_555
C8_6 C9_6 1_555 1_555
C15_6 O7_6 1_555 1_555
C15_6 O8_6 1_555 1_555
C20_6 C21_6 1_555 1_555
C22_6 C24_6 1_555 1_555
C26_6 C27_6 1_555 1_555
C29_6 O13_6 1_555 1_555
C29_6 O14_6 1_555 1_555
C49_6 O22_6 1_555 1_555
C50_6 N3_6 1_555 1_555
C51_6 N3_6 1_555 1_555
C52_6 O21_6 1_555 1_555
C53_6 N4_6 1_555 1_555
C54_6 N4_6 1_555 1_555
S3_6 C33_6 1_555 1_555
H5_6 C11_6 1_555 1_555
C13_6 C11_6 1_555 1_555
C14_6 C13_6 1_555 1_555
C30_6 C31_6 1_555 1_555
C31_6 H13_6 1_555 1_555
C32_6 C30_6 1_555 1_555
H14_6 C32_6 1_555 1_555
C33_6 C31_6 1_555 1_555
C34_6 C32_6 1_555 1_555
H15_6 C34_6 1_555 1_555
C35_6 C33_6 1_555 1_555
C36_6 C35_6 1_555 1_555
C37_6 S3_6 1_555 1_555
C38_6 C36_6 1_555 1_555
H16_6 C38_6 1_555 1_555
C39_6 C37_6 1_555 1_555
H17_6 C39_6 1_555 1_555
C40_6 C38_6 1_555 1_555
H18_6 C40_6 1_555 1_555
C41_6 C39_6 1_555 1_555
C43_6 H19_6 1_555 1_555
C44_6 H20_5 1_555 1_555
H22_6 C44_6 1_555 1_555
C45_6 H23_6 1_555 1_555
H24_6 C45_6 1_555 1_555
H25_6 C45_6 1_555 1_555
C46_6 H26_6 1_555 1_555
C47_6 H27_6 1_555 1_555
H28_6 C47_6 1_555 1_555
H29_6 C47_6 1_555 1_555
C48_6 H30_6 1_555 1_555
H31_6 C48_6 1_555 1_555
H32_6 C48_6 1_555 1_555
N1_6 C46_6 1_555 1_555
N2_6 C43_6 1_555 1_555
O4_6 S1_6 1_555 1_555
O5_4 C14_6 1_555 1_555
O6_4 C14_6 1_555 1_555
O15_6 S3_6 1_555 1_555
O16_6 S3_6 1_555 1_555
Eu3_4 O6_4 1_555 1_555
Eu5_4 O5_4 1_555 1_555
C34_6 C35_6 1_555 1_555
C36_6 C37_6 1_555 1_555
C40_6 C41_6 1_555 1_555
C43_6 O19_6 1_555 1_555
C44_6 N2_6 1_555 1_555
C45_6 N2_6 1_555 1_555
C46_6 O20_6 1_555 1_555
C47_6 N1_6 1_555 1_555
C48_6 N1_6 1_555 1_555
O27_3 C42_6 1_555 1_555
O28_3 C42_6 1_555 1_555
C14_7 C13_7 1_555 1_555
O23_3 C14_7 1_555 1_555
O24_3 C14_7 1_555 1_555
Eu3_3 O2_7 1_555 1_555
Eu5_3 O1_7 1_555 1_555
S1_7 C5_7 1_555 1_555
S3_7 C33_7 1_555 1_555
C1_7 C2_7 1_555 1_555
C2_7 C3_7 1_555 1_555
C3_7 H1_7 1_555 1_555
C4_7 C2_7 1_555 1_555
H2_7 C4_7 1_555 1_555
C5_7 C3_7 1_555 1_555
C6_7 C4_7 1_555 1_555
H3_7 C6_7 1_555 1_555
C7_7 C5_7 1_555 1_555
C8_7 C7_7 1_555 1_555
C9_7 S1_7 1_555 1_555
C10_7 C8_7 1_555 1_555
H4_7 C10_7 1_555 1_555
C11_7 C9_7 1_555 1_555
C12_7 C10_7 1_555 1_555
C15_7 C16_7 1_555 1_555
C16_7 C17_7 1_555 1_555
C17_7 H7_7 1_555 1_555
C18_7 C16_7 1_555 1_555
H8_7 C18_7 1_555 1_555
C19_7 C17_7 1_555 1_555
C20_7 C18_7 1_555 1_555
C29_7 C30_7 1_555 1_555
C30_7 C31_7 1_555 1_555
C31_7 H13_7 1_555 1_555
C32_7 C30_7 1_555 1_555
H14_7 C32_7 1_555 1_555
C33_7 C31_7 1_555 1_555
C34_7 C32_7 1_555 1_555
H15_7 C34_7 1_555 1_555
C35_7 C33_7 1_555 1_555
C36_7 C35_7 1_555 1_555
C37_7 S3_7 1_555 1_555
C38_7 C36_7 1_555 1_555
H16_7 C38_7 1_555 1_555
C39_7 C37_7 1_555 1_555
H17_7 C39_7 1_555 1_555
C40_7 C38_7 1_555 1_555
H18_7 C40_7 1_555 1_555
C41_7 C39_7 1_555 1_555
C42_7 C41_7 1_555 1_555
C43_7 H19_7 1_555 1_555
H21_3 C44_7 1_555 1_555
H22_7 C44_7 1_555 1_555
C45_7 H23_7 1_555 1_555
H24_7 C45_7 1_555 1_555
H25_7 C45_7 1_555 1_555
C46_7 H26_7 1_555 1_555
C47_7 H27_7 1_555 1_555
H28_7 C47_7 1_555 1_555
H29_7 C47_7 1_555 1_555
C48_7 H30_7 1_555 1_555
H31_7 C48_7 1_555 1_555
H32_7 C48_7 1_555 1_555
C49_7 H33_7 1_555 1_555
C50_7 H34_7 1_555 1_555
H35_7 C50_7 1_555 1_555
H36_7 C50_7 1_555 1_555
C51_7 H37_7 1_555 1_555
H38_7 C51_7 1_555 1_555
H39_7 C51_7 1_555 1_555
C52_7 H40_7 1_555 1_555
C53_7 H41_7 1_555 1_555
H42_7 C53_7 1_555 1_555
H43_7 C53_7 1_555 1_555
C54_7 H44_3 1_555 1_555
H45_7 C54_7 1_555 1_555
H46_7 C54_7 1_555 1_555
N1_7 C46_7 1_555 1_555
N2_7 C43_7 1_555 1_555
N3_7 C49_7 1_555 1_555
N4_7 C52_7 1_555 1_555
O1_7 C1_7 1_555 1_555
O2_7 C1_7 1_555 1_555
O3_7 S1_7 1_555 1_555
O4_7 S1_7 1_555 1_555
O7_7 Eu5_3 1_555 1_555
O8_7 Eu3_3 1_555 1_555
O13_7 Eu3_3 1_555 1_555
O14_7 Eu3_3 1_555 1_555
O15_7 S3_7 1_555 1_555
O16_7 S3_7 1_555 1_555
O17_4 C42_7 1_555 1_555
O18_4 C42_7 1_555 1_555
O19_7 Eu5_3 1_555 1_555
O20_7 Eu5_3 1_555 1_555
O21_7 Eu3_3 1_555 1_555
O22_7 Eu3_3 1_555 1_555
Eu5_4 O17_4 1_555 1_555
O25_3 Eu5_3 1_555 1_555
O26_3 Eu3_3 1_555 1_555
O27_4 Eu5_3 1_555 1_555
O28_4 Eu5_3 1_555 1_555
C6_7 C7_7 1_555 1_555
C8_7 C9_7 1_555 1_555
C15_7 O7_7 1_555 1_555
C15_7 O8_7 1_555 1_555
C29_7 O13_7 1_555 1_555
C29_7 O14_7 1_555 1_555
C34_7 C35_7 1_555 1_555
C36_7 C37_7 1_555 1_555
C40_7 C41_7 1_555 1_555
C43_7 O19_7 1_555 1_555
C44_7 N2_7 1_555 1_555
C45_7 N2_7 1_555 1_555
C46_7 O20_7 1_555 1_555
C47_7 N1_7 1_555 1_555
C48_7 N1_7 1_555 1_555
C49_7 O22_7 1_555 1_555
C50_7 N3_7 1_555 1_555
C51_7 N3_7 1_555 1_555
C52_7 O21_7 1_555 1_555
C53_7 N4_7 1_555 1_555
C54_7 N4_7 1_555 1_555
O18_4 Eu5_4 1_555 1_555
C22_7 C21_7 1_555 1_555
C23_7 C22_7 1_555 1_555
H10_7 C23_7 1_555 1_555
C24_7 S2_7 1_555 1_555
C25_7 C23_7 1_555 1_555
H11_7 C25_7 1_555 1_555
C26_7 C24_7 1_555 1_555
H12_7 C26_7 1_555 1_555
C27_7 C25_7 1_555 1_555
C28_7 C27_7 1_555 1_555
O9_7 S2_7 1_555 1_555
O10_7 S2_7 1_555 1_555
O25_3 C28_7 1_555 1_555
O26_3 C28_7 1_555 1_555
C22_7 C24_7 1_555 1_555
C26_7 C27_7 1_555 1_555
C14_8 C13_8 1_555 1_555
O23_4 C14_8 1_555 1_555
O24_4 C14_8 1_555 1_555
S3_8 C33_8 1_555 1_555
C30_8 C31_8 1_555 1_555
C31_8 H13_8 1_555 1_555
C32_8 C30_8 1_555 1_555
H14_8 C32_8 1_555 1_555
C33_8 C31_8 1_555 1_555
C34_8 C32_8 1_555 1_555
H15_8 C34_8 1_555 1_555
C35_8 C33_8 1_555 1_555
C36_8 C35_8 1_555 1_555
C37_8 S3_8 1_555 1_555
C38_8 C36_8 1_555 1_555
H16_8 C38_8 1_555 1_555
C39_8 C37_8 1_555 1_555
H17_8 C39_8 1_555 1_555
C40_8 C38_8 1_555 1_555
H18_8 C40_8 1_555 1_555
C41_8 C39_8 1_555 1_555
C43_8 H19_8 1_555 1_555
C44_8 H20_6 1_555 1_555
H21_4 C44_8 1_555 1_555
H22_8 C44_8 1_555 1_555
C45_8 H23_8 1_555 1_555
H24_8 C45_8 1_555 1_555
H25_8 C45_8 1_555 1_555
C46_8 H26_8 1_555 1_555
C47_8 H27_8 1_555 1_555
H28_8 C47_8 1_555 1_555
H29_8 C47_8 1_555 1_555
C48_8 H30_8 1_555 1_555
H31_8 C48_8 1_555 1_555
H32_8 C48_8 1_555 1_555
N1_8 C46_8 1_555 1_555
N2_8 C43_8 1_555 1_555
O4_8 S1_8 1_555 1_555
O15_8 S3_8 1_555 1_555
O16_8 S3_8 1_555 1_555
C34_8 C35_8 1_555 1_555
C36_8 C37_8 1_555 1_555
C40_8 C41_8 1_555 1_555
C43_8 O19_8 1_555 1_555
C44_8 N2_8 1_555 1_555
C45_8 N2_8 1_555 1_555
C46_8 O20_8 1_555 1_555
C47_8 N1_8 1_555 1_555
C48_8 N1_8 1_555 1_555
Eu3_4 O2_8 1_555 1_555
Eu5_4 O1_8 1_555 1_555
S2_8 C20_8 1_555 1_555
C1_8 C2_8 1_555 1_555
C2_8 C3_8 1_555 1_555
C3_8 H1_8 1_555 1_555
C4_8 C2_8 1_555 1_555
H2_8 C4_8 1_555 1_555
C5_8 C3_8 1_555 1_555
C6_8 C4_8 1_555 1_555
H3_8 C6_8 1_555 1_555
C7_8 C5_8 1_555 1_555
C8_8 C7_8 1_555 1_555
C10_8 C8_8 1_555 1_555
H4_8 C10_8 1_555 1_555
C12_8 C10_8 1_555 1_555
C15_8 C16_8 1_555 1_555
C16_8 C17_8 1_555 1_555
C17_8 H7_8 1_555 1_555
C18_8 C16_8 1_555 1_555
H8_8 C18_8 1_555 1_555
C19_8 C17_8 1_555 1_555
H9_8 C19_8 1_555 1_555
C20_8 C18_8 1_555 1_555
C21_8 C19_8 1_555 1_555
C22_8 C21_8 1_555 1_555
C23_8 C22_8 1_555 1_555
H10_8 C23_8 1_555 1_555
C24_8 S2_8 1_555 1_555
C25_8 C23_8 1_555 1_555
H11_8 C25_8 1_555 1_555
C26_8 C24_8 1_555 1_555
H12_8 C26_8 1_555 1_555
C27_8 C25_8 1_555 1_555
C28_8 C27_8 1_555 1_555
C49_8 H33_8 1_555 1_555
C50_8 H34_8 1_555 1_555
H35_8 C50_8 1_555 1_555
H36_8 C50_8 1_555 1_555
C51_8 H37_8 1_555 1_555
H38_8 C51_8 1_555 1_555
H39_8 C51_8 1_555 1_555
C52_8 H40_8 1_555 1_555
C53_8 H41_8 1_555 1_555
H42_8 C53_8 1_555 1_555
H43_8 C53_8 1_555 1_555
C54_8 H44_4 1_555 1_555
H45_8 C54_8 1_555 1_555
H46_8 C54_8 1_555 1_555
N3_8 C49_8 1_555 1_555
N4_8 C52_8 1_555 1_555
O1_8 C1_8 1_555 1_555
O2_8 C1_8 1_555 1_555
O7_8 Eu5_4 1_555 1_555
O8_8 Eu3_4 1_555 1_555
O9_8 S2_8 1_555 1_555
O10_8 S2_8 1_555 1_555
O25_4 C28_8 1_555 1_555
O26_4 C28_8 1_555 1_555
O13_8 Eu3_4 1_555 1_555
O14_8 Eu3_4 1_555 1_555
O21_8 Eu3_4 1_555 1_555
O22_8 Eu3_4 1_555 1_555
C6_8 C7_8 1_555 1_555
C8_8 C9_8 1_555 1_555
C15_8 O7_8 1_555 1_555
C15_8 O8_8 1_555 1_555
C20_8 C21_8 1_555 1_555
C22_8 C24_8 1_555 1_555
C26_8 C27_8 1_555 1_555
C29_8 O13_8 1_555 1_555
C29_8 O14_8 1_555 1_555
C49_8 O22_8 1_555 1_555
C50_8 N3_8 1_555 1_555
C51_8 N3_8 1_555 1_555
C52_8 O21_8 1_555 1_555
C53_8 N4_8 1_555 1_555
C54_8 N4_8 1_555 1_555
O27_4 C42_8 1_555 1_555
O28_4 C42_8 1_555 1_555

#END
