
###############################################################################
#
# This file contains modified crystal structure data generated from the
# MOF subset of the Cambridge Structural Database (CSD) v543 
# hosted by the Cambridge Crystallographic Data Centre (CCDC).
#
# This work is licensed under the Creative Commons
# Attribution-NonCommercial-ShareAlike 4.0 International License.
# To view a copy of this license, visit
# http://creativecommons.org/licenses/by-nc-sa/4.0/
# or send a letter to
# Creative Commons, PO Box 1866, Mountain View, CA 94042, USA.
#
# CIF created using the CSD Python API on 29 September 2022
# The structure has been converted into the P1 space group
# The structure has a 3D framework
# The original CSD entry PUDSUD is in the monoclinic crystal system
# The framework has been calculated to contain at least 10.0% void space
# The void calculation uses a probe of radius 1.32A, grid spacing 0.4
#
###############################################################################

data_PUDSUD
_chemical_formula_moiety         '(C432 H368 N32 Nd16 O176 S24)n'
_symmetry_cell_setting           triclinic
_symmetry_space_group_name_H-M   'P 1'
_symmetry_Int_Tables_number      1
_space_group_name_Hall           'P 1'
loop_
_symmetry_equiv_pos_site_id
_symmetry_equiv_pos_as_xyz
1 x,y,z
_cell_length_a                   35.3729(11)
_cell_length_b                   15.0162(5)
_cell_length_c                   30.3812(9)
_cell_angle_alpha                90
_cell_angle_beta                 99.1260(10)
_cell_angle_gamma                90
_cell_volume                     15933.2
loop_
_atom_site_label
_atom_site_type_symbol
_atom_site_fract_x
_atom_site_fract_y
_atom_site_fract_z
S2 S 0.20202(5) 0.03263(10) 0.34975(8)
C21 C 0.12935(17) 0.0019(4) 0.3457(2)
C22 C 0.13393(17) 0.0982(4) 0.3474(2)
C23 C 0.10615(19) 0.1634(4) 0.3467(3)
H10 H 0.0805 0.1476 0.3444
C24 C 0.17157(17) 0.1256(4) 0.3514(2)
C25 C 0.11673(19) 0.2519(4) 0.3494(3)
H11 H 0.0980 0.2954 0.3493
C26 C 0.18306(17) 0.2136(3) 0.3545(2)
H12 H 0.2088 0.2296 0.3580
C27 C 0.15442(17) 0.2769(3) 0.3524(2)
C28 C 0.16475(17) 0.3745(3) 0.3537(2)
O9 O 0.21760(16) 0.0325(3) 0.3086(2)
O10 O 0.22788(14) 0.0233(3) 0.3907(2)
O11 O 0.13822(12) 0.4299(2) 0.35100(15)
O12 O 0.19796(13) 0.3967(3) 0.35697(18)
Nd4 Nd 0.209147(8) 0.559649(19) 0.358951(10)
Nd6 Nd 0.084870(8) 0.525070(19) 0.343209(10)
S1 S 0.09396(5) 0.45755(14) 0.09185(6)
S3 S 0.40078(5) 0.28058(13) 0.40169(6)
C1 C 0.13982(18) 0.5472(4) 0.2619(2)
C2 C 0.14458(18) 0.5463(4) 0.2137(2)
C3 C 0.11684(18) 0.5106(4) 0.1815(2)
H1 H 0.0940 0.4894 0.1890
C4 C 0.17843(17) 0.5776(5) 0.2011(2)
H2 H 0.1977 0.5988 0.2230
C5 C 0.12372(17) 0.5068(4) 0.1380(2)
C6 C 0.18427(18) 0.5781(5) 0.1578(2)
H3 H 0.2061 0.6039 0.1499
C7 C 0.15662(18) 0.5388(4) 0.1254(2)
C8 C 0.15842(17) 0.5263(4) 0.0778(2)
C9 C 0.12619(17) 0.4854(4) 0.0545(2)
C10 C 0.18745(19) 0.5513(5) 0.0545(2)
H4 H 0.2090 0.5809 0.0688
C11 C 0.12227(18) 0.4663(4) 0.0103(2)
C12 C 0.18373(18) 0.5315(4) 0.0098(2)
C15 C 0.13415(19) 0.7169(4) 0.3484(2)
C16 C 0.13276(17) 0.8170(3) 0.3466(2)
C17 C 0.0983(2) 0.8590(4) 0.3430(3)
H7 H 0.0760 0.8256 0.3406
C18 C 0.16653(17) 0.8640(3) 0.3494(2)
H8 H 0.1901 0.8354 0.3521
C19 C 0.0964(2) 0.9528(4) 0.3429(3)
H9 H 0.0728 0.9812 0.3408
C20 C 0.16360(18) 0.9560(4) 0.3480(2)
C29 C 0.27528(19) 0.4663(4) 0.3416(3)
C30 C 0.30834(18) 0.4072(4) 0.3339(2)
C31 C 0.33378(19) 0.3782(4) 0.3696(3)
H13 H 0.3308 0.3930 0.3986
C32 C 0.31385(19) 0.3866(5) 0.2911(3)
H14 H 0.2966 0.4077 0.2671
C33 C 0.36417(17) 0.3260(4) 0.3614(2)
C34 C 0.3444(2) 0.3355(5) 0.2832(3)
H15 H 0.3476 0.3217 0.2542
C35 C 0.36981(17) 0.3054(4) 0.3185(2)
C36 C 0.40607(16) 0.2526(4) 0.3182(2)
C37 C 0.42553(17) 0.2358(4) 0.3603(2)
C38 C 0.42103(16) 0.2226(4) 0.2819(2)
H16 H 0.4080 0.2332 0.2533
C39 C 0.45990(16) 0.1912(4) 0.3680(2)
H17 H 0.4728 0.1812 0.3967
C40 C 0.45531(16) 0.1768(4) 0.2877(2)
H18 H 0.4655 0.1565 0.2631
C41 C 0.47435(16) 0.1615(4) 0.3303(2)
C42 C 0.51242(16) 0.1118(4) 0.3369(2)
C43 C 0.0230(4) 0.3708(9) 0.4902(4)
H19 H 0.0043 0.4173 0.4839
H20 H 0.0392 0.3827 0.5180
H21 H 0.0102 0.3148 0.4920
C44 C 0.0412(2) 0.4171(5) 0.4210(3)
H22 H 0.0226 0.4611 0.4201
C45 C 0.0785(4) 0.3028(10) 0.4605(4)
H23 H 0.0931 0.3094 0.4366
H24 H 0.0687 0.2432 0.4604
H25 H 0.0947 0.3142 0.4884
C46 C 0.04492(19) 0.4107(4) 0.2524(3)
H26 H 0.0368 0.4673 0.2427
C47 C 0.0261(4) 0.3580(8) 0.1749(4)
H27 H 0.0170 0.4178 0.1694
H28 H 0.0052 0.3170 0.1674
H29 H 0.0454 0.3456 0.1568
C48 C 0.0551(4) 0.2608(8) 0.2377(4)
H30 H 0.0660 0.2635 0.2687
H31 H 0.0741 0.2398 0.2208
H32 H 0.0337 0.2207 0.2338
C49 C 0.2561(3) 0.6993(7) 0.2956(3)
H33 H 0.2568 0.6514 0.2763
C50 C 0.2771(7) 0.8489(13) 0.3121(7)
H34 H 0.2647 0.8384 0.3375
H35 H 0.2651 0.8985 0.2954
H36 H 0.3037 0.8619 0.3218
C51 C 0.2891(7) 0.7694(13) 0.2451(7)
H37 H 0.2825 0.7140 0.2301
H38 H 0.3165 0.7746 0.2518
H39 H 0.2790 0.8179 0.2262
C52 C 0.2659(6) 0.6479(12) 0.4493(6)
H40 H 0.2680 0.5935 0.4641
C53 C 0.2837(6) 0.8052(11) 0.4470(7)
H41 H 0.3002 0.8485 0.4634
H42 H 0.2574 0.8221 0.4467
H43 H 0.2889 0.8022 0.4170
C54 C 0.3116(5) 0.6971(13) 0.5159(6)
H44 H 0.3163 0.7508 0.5330
H45 H 0.3355 0.6685 0.5138
H46 H 0.2959 0.6578 0.5302
N1 N 0.0426(2) 0.3478(5) 0.2225(2)
N2 N 0.0463(2) 0.3668(5) 0.4544(2)
N3 N 0.2737(2) 0.7721(5) 0.2847(3)
N4 N 0.2903(6) 0.7203(12) 0.4676(6)
O1 O 0.10712(12) 0.5348(3) 0.27093(13)
O2 O 0.16913(13) 0.5620(3) 0.28921(15)
O3 O 0.05807(14) 0.5032(5) 0.08088(17)
O4 O 0.09225(18) 0.3635(4) 0.09763(17)
O7 O 0.10274(14) 0.6774(2) 0.33763(14)
O8 O 0.16609(13) 0.6830(3) 0.36199(16)
O13 O 0.27351(12) 0.4908(3) 0.38066(17)
O14 O 0.25144(13) 0.4897(3) 0.30843(17)
O15 O 0.42254(14) 0.3491(4) 0.42617(17)
O16 O 0.38587(15) 0.2113(4) 0.42639(17)
O17 O 0.53142(12) 0.1047(3) 0.37516(15)
O18 O 0.52348(11) 0.0800(3) 0.30343(15)
O19 O 0.05901(14) 0.4128(3) 0.38909(17)
O20 O 0.05704(13) 0.4010(3) 0.29229(17)
O21 O 0.24446(17) 0.6546(4) 0.41777(19)
O22 O 0.24003(16) 0.6859(4) 0.3250(2)
Nd7 Nd 0.584870(8) 0.025070(19) 0.343209(10)
O23 O 0.11804(12) 0.5540(3) 0.41720(13)
O24 O 0.18109(12) 0.5299(3) 0.42423(14)
O27 O 0.03142(12) 0.6047(3) 0.37516(15)
O28 O 0.02348(11) 0.5800(3) 0.30343(15)
H5 H 0.1002 0.4389 0.9957
H6 H 0.2032 0.5475 0.9942
C13 C 0.15184(17) 0.4886(4) 0.98769(19)
C14 C 0.15003(18) 0.4666(4) 0.9387(2)
O5 O 0.11804(12) 0.4460(3) 0.91720(13)
O6 O 0.18109(12) 0.4701(3) 0.92423(14)
Nd3 Nd 0.209147(8) 0.440351(19) 0.858951(10)
Nd5 Nd 0.084870(8) 0.474930(19) 0.843209(10)
C42_2 C 0.01242(16) 0.6118(4) 0.3369(2)
Nd4_2 Nd 0.709147(8) 0.059649(19) 0.358951(10)
S2_2 S 0.70202(5) 0.53263(10) 0.34975(8)
C1_2 C 0.63982(18) 0.0472(4) 0.2619(2)
C2_2 C 0.64458(18) 0.0463(4) 0.2137(2)
C3_2 C 0.61684(18) 0.0106(4) 0.1815(2)
C4_2 C 0.67843(17) 0.0776(5) 0.2011(2)
H2_2 H 0.6977 0.0988 0.2230
C5_2 C 0.62372(17) 0.0068(4) 0.1380(2)
C6_2 C 0.68427(18) 0.0781(5) 0.1578(2)
H3_2 H 0.7061 0.1039 0.1499
C7_2 C 0.65662(18) 0.0388(4) 0.1254(2)
C8_2 C 0.65842(17) 0.0263(4) 0.0778(2)
C10_2 C 0.68745(19) 0.0513(5) 0.0545(2)
H4_2 H 0.7090 0.0809 0.0688
C12_2 C 0.68373(18) 0.0315(4) 0.0098(2)
C15_2 C 0.63415(19) 0.2169(4) 0.3484(2)
C16_2 C 0.63276(17) 0.3170(3) 0.3466(2)
C17_2 C 0.5983(2) 0.3590(4) 0.3430(3)
H7_2 H 0.5760 0.3256 0.3406
C18_2 C 0.66653(17) 0.3640(3) 0.3494(2)
H8_2 H 0.6901 0.3354 0.3521
C19_2 C 0.5964(2) 0.4528(4) 0.3429(3)
H9_2 H 0.5728 0.4812 0.3408
C20_2 C 0.66360(18) 0.4560(4) 0.3480(2)
C21_2 C 0.62935(17) 0.5019(4) 0.3457(2)
C22_2 C 0.63393(17) 0.5982(4) 0.3474(2)
C23_2 C 0.60615(19) 0.6634(4) 0.3467(3)
H10_2 H 0.5805 0.6476 0.3444
C24_2 C 0.67157(17) 0.6256(4) 0.3514(2)
C25_2 C 0.61673(19) 0.7519(4) 0.3494(3)
H11_2 H 0.5980 0.7954 0.3493
C26_2 C 0.68306(17) 0.7136(3) 0.3545(2)
H12_2 H 0.7088 0.7296 0.3580
C27_2 C 0.65442(17) 0.7769(3) 0.3524(2)
C28_2 C 0.66475(17) 0.8745(3) 0.3537(2)
C49_2 C 0.7561(3) 0.1993(7) 0.2956(3)
H33_2 H 0.7568 0.1514 0.2763
C50_2 C 0.7771(7) 0.3489(13) 0.3121(7)
H34_2 H 0.7647 0.3384 0.3375
H35_2 H 0.7651 0.3985 0.2954
H36_2 H 0.8037 0.3619 0.3218
C51_2 C 0.7891(7) 0.2694(13) 0.2451(7)
H37_2 H 0.7825 0.2140 0.2301
H38_2 H 0.8165 0.2746 0.2518
H39_2 H 0.7790 0.3179 0.2262
C52_2 C 0.7659(6) 0.1479(12) 0.4493(6)
H40_2 H 0.7680 0.0935 0.4641
C53_2 C 0.7837(6) 0.3052(11) 0.4470(7)
H41_2 H 0.8002 0.3485 0.4634
H42_2 H 0.7574 0.3221 0.4467
H43_2 H 0.7889 0.3022 0.4170
C54_2 C 0.8116(5) 0.1971(13) 0.5159(6)
H44_2 H 0.8163 0.2508 0.5330
H45_2 H 0.8355 0.1685 0.5138
H46_2 H 0.7959 0.1578 0.5302
N3_2 N 0.7737(2) 0.2721(5) 0.2847(3)
N4_2 N 0.7903(6) 0.2203(12) 0.4676(6)
O1_2 O 0.60712(12) 0.0348(3) 0.27093(13)
O2_2 O 0.66913(13) 0.0620(3) 0.28921(15)
O3_2 O 0.55807(14) 0.0032(5) 0.08088(17)
O7_2 O 0.60274(14) 0.1774(2) 0.33763(14)
O8_2 O 0.66609(13) 0.1830(3) 0.36199(16)
O9_2 O 0.71760(16) 0.5325(3) 0.3086(2)
O10_2 O 0.72788(14) 0.5233(3) 0.3907(2)
O11_2 O 0.63822(12) 0.9299(2) 0.35100(15)
O12_2 O 0.69796(13) 0.8967(3) 0.35697(18)
O21_2 O 0.74446(17) 0.1546(4) 0.41777(19)
O22_2 O 0.74003(16) 0.1859(4) 0.3250(2)
O23_2 O 0.61804(12) 0.0540(3) 0.41720(13)
O24_2 O 0.68109(12) 0.0299(3) 0.42423(14)
S1_2 S 0.59396(5) 0.95755(14) 0.09185(6)
S3_2 S 0.90078(5) 0.78058(13) 0.40169(6)
H1_2 H 0.5940 0.9894 0.1890
C9_2 C 0.62619(17) 0.9854(4) 0.0545(2)
C11_2 C 0.62227(18) 0.9663(4) 0.0103(2)
C29_2 C 0.77528(19) 0.9663(4) 0.3416(3)
C30_2 C 0.80834(18) 0.9072(4) 0.3339(2)
C31_2 C 0.83378(19) 0.8782(4) 0.3696(3)
H13_2 H 0.8308 0.8930 0.3986
C32_2 C 0.81385(19) 0.8866(5) 0.2911(3)
H14_2 H 0.7966 0.9077 0.2671
C33_2 C 0.86417(17) 0.8260(4) 0.3614(2)
C34_2 C 0.8444(2) 0.8355(5) 0.2832(3)
H15_2 H 0.8476 0.8217 0.2542
C35_2 C 0.86981(17) 0.8054(4) 0.3185(2)
C36_2 C 0.90607(16) 0.7526(4) 0.3182(2)
C37_2 C 0.92553(17) 0.7358(4) 0.3603(2)
C38_2 C 0.92103(16) 0.7226(4) 0.2819(2)
H16_2 H 0.9080 0.7332 0.2533
C39_2 C 0.95990(16) 0.6912(4) 0.3680(2)
H17_2 H 0.9728 0.6812 0.3967
C40_2 C 0.95531(16) 0.6768(4) 0.2877(2)
H18_2 H 0.9655 0.6565 0.2631
C41_2 C 0.97435(16) 0.6615(4) 0.3303(2)
C43_2 C 0.5230(4) 0.8708(9) 0.4902(4)
H19_2 H 0.5043 0.9173 0.4839
H20_2 H 0.5392 0.8827 0.5180
H21_2 H 0.5102 0.8148 0.4920
C44_2 C 0.5412(2) 0.9171(5) 0.4210(3)
H22_2 H 0.5226 0.9611 0.4201
C45_2 C 0.5785(4) 0.8028(10) 0.4605(4)
H23_2 H 0.5931 0.8094 0.4366
H24_2 H 0.5687 0.7432 0.4604
H25_2 H 0.5947 0.8142 0.4884
C46_2 C 0.54492(19) 0.9107(4) 0.2524(3)
H26_2 H 0.5368 0.9673 0.2427
C47_2 C 0.5261(4) 0.8580(8) 0.1749(4)
H27_2 H 0.5170 0.9178 0.1694
H28_2 H 0.5052 0.8170 0.1674
H29_2 H 0.5454 0.8456 0.1568
C48_2 C 0.5551(4) 0.7608(8) 0.2377(4)
H30_2 H 0.5660 0.7635 0.2687
H31_2 H 0.5741 0.7398 0.2208
H32_2 H 0.5337 0.7207 0.2338
N1_2 N 0.5426(2) 0.8478(5) 0.2225(2)
N2_2 N 0.5463(2) 0.8668(5) 0.4544(2)
O4_2 O 0.59225(18) 0.8635(4) 0.09763(17)
O13_2 O 0.77351(12) 0.9908(3) 0.38066(17)
O14_2 O 0.75144(13) 0.9897(3) 0.30843(17)
O15_2 O 0.92254(14) 0.8491(4) 0.42617(17)
O16_2 O 0.88587(15) 0.7113(4) 0.42639(17)
O19_2 O 0.55901(14) 0.9128(3) 0.38909(17)
O20_2 O 0.55704(13) 0.9010(3) 0.29229(17)
H5_2 H 0.6002 0.9389 0.9957
C13_2 C 0.65184(17) 0.9886(4) 0.98769(19)
C14_2 C 0.65003(18) 0.9666(4) 0.9387(2)
O5_2 O 0.61804(12) 0.9460(3) 0.91720(13)
O6_2 O 0.68109(12) 0.9701(3) 0.92423(14)
Nd3_2 Nd 0.709147(8) 0.940351(19) 0.858951(10)
Nd5_2 Nd 0.584870(8) 0.974930(19) 0.843209(10)
S1_3 S 0.09396(5) 0.54245(14) 0.59185(6)
S3_3 S 0.40078(5) 0.71942(13) 0.90169(6)
C1_3 C 0.13982(18) 0.4528(4) 0.7619(2)
C2_3 C 0.14458(18) 0.4537(4) 0.7137(2)
C3_3 C 0.11684(18) 0.4894(4) 0.6815(2)
H1_3 H 0.0940 0.5106 0.6890
C4_3 C 0.17843(17) 0.4224(5) 0.7011(2)
H2_3 H 0.1977 0.4012 0.7230
C5_3 C 0.12372(17) 0.4932(4) 0.6380(2)
C6_3 C 0.18427(18) 0.4219(5) 0.6578(2)
H3_3 H 0.2061 0.3961 0.6499
C7_3 C 0.15662(18) 0.4612(4) 0.6254(2)
C8_3 C 0.15842(17) 0.4737(4) 0.5778(2)
C9_3 C 0.12619(17) 0.5146(4) 0.5545(2)
C10_3 C 0.18745(19) 0.4487(5) 0.5545(2)
H4_3 H 0.2090 0.4191 0.5688
C11_3 C 0.12227(18) 0.5337(4) 0.5103(2)
H5_3 H 0.1002 0.5611 0.4957
C12_3 C 0.18373(18) 0.4685(4) 0.5098(2)
H6_2 H 0.2032 0.4525 0.4942
C13_3 C 0.15184(17) 0.5114(4) 0.48769(19)
C14_3 C 0.15003(18) 0.5334(4) 0.4387(2)
C15_3 C 0.13415(19) 0.2831(4) 0.8484(2)
C16_3 C 0.13276(17) 0.1830(3) 0.8466(2)
C17_3 C 0.0983(2) 0.1410(4) 0.8430(3)
H7_3 H 0.0760 0.1744 0.8406
C18_3 C 0.16653(17) 0.1360(3) 0.8494(2)
H8_3 H 0.1901 0.1646 0.8521
C19_3 C 0.0964(2) 0.0472(4) 0.8429(3)
H9_3 H 0.0728 0.0188 0.8408
C20_3 C 0.16360(18) 0.0440(4) 0.8480(2)
C29_3 C 0.27528(19) 0.5337(4) 0.8416(3)
C30_3 C 0.30834(18) 0.5928(4) 0.8339(2)
C31_3 C 0.33378(19) 0.6218(4) 0.8696(3)
H13_3 H 0.3308 0.6070 0.8986
C32_3 C 0.31385(19) 0.6134(5) 0.7911(3)
H14_3 H 0.2966 0.5923 0.7671
C33_3 C 0.36417(17) 0.6740(4) 0.8614(2)
C34_3 C 0.3444(2) 0.6645(5) 0.7832(3)
H15_3 H 0.3476 0.6783 0.7542
C35_3 C 0.36981(17) 0.6946(4) 0.8185(2)
C36_3 C 0.40607(16) 0.7474(4) 0.8182(2)
C37_3 C 0.42553(17) 0.7642(4) 0.8603(2)
C38_3 C 0.42103(16) 0.7774(4) 0.7819(2)
H16_3 H 0.4080 0.7668 0.7533
C39_3 C 0.45990(16) 0.8088(4) 0.8680(2)
H17_3 H 0.4728 0.8188 0.8967
C40_3 C 0.45531(16) 0.8232(4) 0.7877(2)
H18_3 H 0.4655 0.8435 0.7631
C41_3 C 0.47435(16) 0.8385(4) 0.8303(2)
C42_3 C 0.51242(16) 0.8882(4) 0.8369(2)
C43_3 C 0.0230(4) 0.6292(9) 0.9902(4)
H19_3 H 0.0043 0.5827 0.9839
H21_3 H 0.0102 0.6852 0.9920
C44_3 C 0.0412(2) 0.5829(5) 0.9210(3)
H22_3 H 0.0226 0.5389 0.9201
C45_3 C 0.0785(4) 0.6972(10) 0.9605(4)
H23_3 H 0.0931 0.6906 0.9366
H24_3 H 0.0687 0.7568 0.9604
H25_3 H 0.0947 0.6858 0.9884
C46_3 C 0.04492(19) 0.5893(4) 0.7524(3)
H26_3 H 0.0368 0.5327 0.7427
C47_3 C 0.0261(4) 0.6420(8) 0.6749(4)
H27_3 H 0.0170 0.5822 0.6694
H28_3 H 0.0052 0.6830 0.6674
H29_3 H 0.0454 0.6544 0.6568
C48_3 C 0.0551(4) 0.7392(8) 0.7377(4)
H30_3 H 0.0660 0.7365 0.7687
H31_3 H 0.0741 0.7602 0.7208
H32_3 H 0.0337 0.7793 0.7338
C49_3 C 0.2561(3) 0.3007(7) 0.7956(3)
H33_3 H 0.2568 0.3486 0.7763
C50_3 C 0.2771(7) 0.1511(13) 0.8121(7)
H34_3 H 0.2647 0.1616 0.8375
H35_3 H 0.2651 0.1015 0.7954
H36_3 H 0.3037 0.1381 0.8218
C51_3 C 0.2891(7) 0.2306(13) 0.7451(7)
H37_3 H 0.2825 0.2860 0.7301
H38_3 H 0.3165 0.2254 0.7518
H39_3 H 0.2790 0.1821 0.7262
C52_3 C 0.2659(6) 0.3521(12) 0.9493(6)
H40_3 H 0.2680 0.4065 0.9641
C53_3 C 0.2837(6) 0.1948(11) 0.9470(7)
H41_3 H 0.3002 0.1515 0.9634
H42_3 H 0.2574 0.1779 0.9467
H43_3 H 0.2889 0.1978 0.9170
N1_3 N 0.0426(2) 0.6522(5) 0.7225(2)
N2_3 N 0.0463(2) 0.6332(5) 0.9544(2)
N3_3 N 0.2737(2) 0.2279(5) 0.7847(3)
N4_3 N 0.2903(6) 0.2797(12) 0.9676(6)
O1_3 O 0.10712(12) 0.4652(3) 0.77093(13)
O2_3 O 0.16913(13) 0.4380(3) 0.78921(15)
O3_3 O 0.05807(14) 0.4968(5) 0.58088(17)
O4_3 O 0.09225(18) 0.6365(4) 0.59763(17)
O7_3 O 0.10274(14) 0.3226(2) 0.83763(14)
O8_3 O 0.16609(13) 0.3170(3) 0.86199(16)
O13_3 O 0.27351(12) 0.5092(3) 0.88066(17)
O14_3 O 0.25144(13) 0.5103(3) 0.80843(17)
O15_3 O 0.42254(14) 0.6509(4) 0.92617(17)
O16_3 O 0.38587(15) 0.7887(4) 0.92639(17)
O17_2 O 0.53142(12) 0.8953(3) 0.87516(15)
O18_2 O 0.52348(11) 0.9200(3) 0.80343(15)
O19_3 O 0.05901(14) 0.5872(3) 0.88909(17)
O20_3 O 0.05704(13) 0.5990(3) 0.79229(17)
O21_3 O 0.24446(17) 0.3454(4) 0.91777(19)
O22_3 O 0.24003(16) 0.3141(4) 0.8250(2)
O25 O 0.13822(12) 0.5701(2) 0.85100(15)
O26 O 0.19796(13) 0.6033(3) 0.85697(18)
O27_2 O 0.03142(12) 0.3953(3) 0.87516(15)
O28_2 O 0.02348(11) 0.4200(3) 0.80343(15)
S2_3 S 0.20202(5) 0.96737(10) 0.84975(8)
C21_3 C 0.12935(17) 0.9981(4) 0.8457(2)
C22_3 C 0.13393(17) 0.9018(4) 0.8474(2)
C23_3 C 0.10615(19) 0.8366(4) 0.8467(3)
H10_3 H 0.0805 0.8524 0.8444
C24_3 C 0.17157(17) 0.8744(4) 0.8514(2)
C25_3 C 0.11673(19) 0.7481(4) 0.8494(3)
H11_3 H 0.0980 0.7046 0.8493
C26_3 C 0.18306(17) 0.7864(3) 0.8545(2)
H12_3 H 0.2088 0.7704 0.8580
C27_3 C 0.15442(17) 0.7231(3) 0.8524(2)
C28_3 C 0.16475(17) 0.6255(3) 0.8537(2)
O9_3 O 0.21760(16) 0.9675(3) 0.8086(2)
O10_3 O 0.22788(14) 0.9767(3) 0.8907(2)
C42_4 C 0.01242(16) 0.3882(4) 0.8369(2)
S1_4 S 0.59396(5) 0.04245(14) 0.59185(6)
S3_4 S 0.90078(5) 0.21942(13) 0.90169(6)
H1_4 H 0.5940 0.0106 0.6890
C9_4 C 0.62619(17) 0.0146(4) 0.5545(2)
C11_4 C 0.62227(18) 0.0337(4) 0.5103(2)
H5_4 H 0.6002 0.0611 0.4957
C13_4 C 0.65184(17) 0.0114(4) 0.48769(19)
C14_4 C 0.65003(18) 0.0334(4) 0.4387(2)
C29_4 C 0.77528(19) 0.0337(4) 0.8416(3)
C30_4 C 0.80834(18) 0.0928(4) 0.8339(2)
C31_4 C 0.83378(19) 0.1218(4) 0.8696(3)
H13_4 H 0.8308 0.1070 0.8986
C32_4 C 0.81385(19) 0.1134(5) 0.7911(3)
H14_4 H 0.7966 0.0923 0.7671
C33_4 C 0.86417(17) 0.1740(4) 0.8614(2)
C34_4 C 0.8444(2) 0.1645(5) 0.7832(3)
H15_4 H 0.8476 0.1783 0.7542
C35_4 C 0.86981(17) 0.1946(4) 0.8185(2)
C36_4 C 0.90607(16) 0.2474(4) 0.8182(2)
C37_4 C 0.92553(17) 0.2642(4) 0.8603(2)
C38_4 C 0.92103(16) 0.2774(4) 0.7819(2)
H16_4 H 0.9080 0.2668 0.7533
C39_4 C 0.95990(16) 0.3088(4) 0.8680(2)
H17_4 H 0.9728 0.3188 0.8967
C40_4 C 0.95531(16) 0.3232(4) 0.7877(2)
H18_4 H 0.9655 0.3435 0.7631
C41_4 C 0.97435(16) 0.3385(4) 0.8303(2)
C43_4 C 0.5230(4) 0.1292(9) 0.9902(4)
H19_4 H 0.5043 0.0827 0.9839
H21_4 H 0.5102 0.1852 0.9920
C44_4 C 0.5412(2) 0.0829(5) 0.9210(3)
H22_4 H 0.5226 0.0389 0.9201
C45_4 C 0.5785(4) 0.1972(10) 0.9605(4)
H23_4 H 0.5931 0.1906 0.9366
H24_4 H 0.5687 0.2568 0.9604
H25_4 H 0.5947 0.1858 0.9884
C46_4 C 0.54492(19) 0.0893(4) 0.7524(3)
H26_4 H 0.5368 0.0327 0.7427
C47_4 C 0.5261(4) 0.1420(8) 0.6749(4)
H27_4 H 0.5170 0.0822 0.6694
H28_4 H 0.5052 0.1830 0.6674
H29_4 H 0.5454 0.1544 0.6568
C48_4 C 0.5551(4) 0.2392(8) 0.7377(4)
H30_4 H 0.5660 0.2365 0.7687
H31_4 H 0.5741 0.2602 0.7208
H32_4 H 0.5337 0.2793 0.7338
N1_4 N 0.5426(2) 0.1522(5) 0.7225(2)
N2_4 N 0.5463(2) 0.1332(5) 0.9544(2)
O4_4 O 0.59225(18) 0.1365(4) 0.59763(17)
O13_4 O 0.77351(12) 0.0092(3) 0.88066(17)
O14_4 O 0.75144(13) 0.0103(3) 0.80843(17)
O15_4 O 0.92254(14) 0.1509(4) 0.92617(17)
O16_4 O 0.88587(15) 0.2887(4) 0.92639(17)
O19_4 O 0.55901(14) 0.0872(3) 0.88909(17)
O20_4 O 0.55704(13) 0.0990(3) 0.79229(17)
O25_2 O 0.63822(12) 0.0701(2) 0.85100(15)
O26_2 O 0.69796(13) 0.1033(3) 0.85697(18)
S2_4 S 0.70202(5) 0.46737(10) 0.84975(8)
C1_4 C 0.63982(18) 0.9528(4) 0.7619(2)
C2_4 C 0.64458(18) 0.9537(4) 0.7137(2)
C3_4 C 0.61684(18) 0.9894(4) 0.6815(2)
C4_4 C 0.67843(17) 0.9224(5) 0.7011(2)
H2_4 H 0.6977 0.9012 0.7230
C5_4 C 0.62372(17) 0.9932(4) 0.6380(2)
C6_4 C 0.68427(18) 0.9219(5) 0.6578(2)
H3_4 H 0.7061 0.8961 0.6499
C7_4 C 0.65662(18) 0.9612(4) 0.6254(2)
C8_4 C 0.65842(17) 0.9737(4) 0.5778(2)
C10_4 C 0.68745(19) 0.9487(5) 0.5545(2)
H4_4 H 0.7090 0.9191 0.5688
C12_4 C 0.68373(18) 0.9685(4) 0.5098(2)
H6_3 H 0.7032 0.9525 0.4942
C15_4 C 0.63415(19) 0.7831(4) 0.8484(2)
C16_4 C 0.63276(17) 0.6830(3) 0.8466(2)
C17_4 C 0.5983(2) 0.6410(4) 0.8430(3)
H7_4 H 0.5760 0.6744 0.8406
C18_4 C 0.66653(17) 0.6360(3) 0.8494(2)
H8_4 H 0.6901 0.6646 0.8521
C19_4 C 0.5964(2) 0.5472(4) 0.8429(3)
H9_4 H 0.5728 0.5188 0.8408
C20_4 C 0.66360(18) 0.5440(4) 0.8480(2)
C21_4 C 0.62935(17) 0.4981(4) 0.8457(2)
C22_4 C 0.63393(17) 0.4018(4) 0.8474(2)
C23_4 C 0.60615(19) 0.3366(4) 0.8467(3)
H10_4 H 0.5805 0.3524 0.8444
C24_4 C 0.67157(17) 0.3744(4) 0.8514(2)
C25_4 C 0.61673(19) 0.2481(4) 0.8494(3)
H11_4 H 0.5980 0.2046 0.8493
C26_4 C 0.68306(17) 0.2864(3) 0.8545(2)
H12_4 H 0.7088 0.2704 0.8580
C27_4 C 0.65442(17) 0.2231(3) 0.8524(2)
C28_4 C 0.66475(17) 0.1255(3) 0.8537(2)
C49_4 C 0.7561(3) 0.8007(7) 0.7956(3)
H33_4 H 0.7568 0.8486 0.7763
C50_4 C 0.7771(7) 0.6511(13) 0.8121(7)
H34_4 H 0.7647 0.6616 0.8375
H35_4 H 0.7651 0.6015 0.7954
H36_4 H 0.8037 0.6381 0.8218
C51_4 C 0.7891(7) 0.7306(13) 0.7451(7)
H37_4 H 0.7825 0.7860 0.7301
H38_4 H 0.8165 0.7254 0.7518
H39_4 H 0.7790 0.6821 0.7262
C52_4 C 0.7659(6) 0.8521(12) 0.9493(6)
H40_4 H 0.7680 0.9065 0.9641
C53_4 C 0.7837(6) 0.6948(11) 0.9470(7)
H41_4 H 0.8002 0.6515 0.9634
H42_4 H 0.7574 0.6779 0.9467
H43_4 H 0.7889 0.6978 0.9170
N3_4 N 0.7737(2) 0.7279(5) 0.7847(3)
N4_4 N 0.7903(6) 0.7797(12) 0.9676(6)
O1_4 O 0.60712(12) 0.9652(3) 0.77093(13)
O2_4 O 0.66913(13) 0.9380(3) 0.78921(15)
O3_4 O 0.55807(14) 0.9968(5) 0.58088(17)
O7_4 O 0.60274(14) 0.8226(2) 0.83763(14)
O8_4 O 0.66609(13) 0.8170(3) 0.86199(16)
O9_4 O 0.71760(16) 0.4675(3) 0.8086(2)
O10_4 O 0.72788(14) 0.4767(3) 0.8907(2)
O21_4 O 0.74446(17) 0.8454(4) 0.91777(19)
O22_4 O 0.74003(16) 0.8141(4) 0.8250(2)
S2_5 S 0.79798(5) 0.03263(10) 0.15025(8)
C21_5 C 0.87065(17) 0.0019(4) 0.1543(2)
C22_5 C 0.86607(17) 0.0982(4) 0.1526(2)
C23_5 C 0.89385(19) 0.1634(4) 0.1533(3)
H10_5 H 0.9195 0.1476 0.1556
C24_5 C 0.82843(17) 0.1256(4) 0.1486(2)
C25_5 C 0.88327(19) 0.2519(4) 0.1506(3)
H11_5 H 0.9020 0.2954 0.1507
C26_5 C 0.81694(17) 0.2136(3) 0.1455(2)
H12_5 H 0.7912 0.2296 0.1420
C27_5 C 0.84558(17) 0.2769(3) 0.1476(2)
C28_5 C 0.83525(17) 0.3745(3) 0.1463(2)
O9_5 O 0.78240(16) 0.0325(3) 0.1914(2)
O10_5 O 0.77212(14) 0.0233(3) 0.1093(2)
O11_3 O 0.86178(12) 0.4299(2) 0.14900(15)
O12_3 O 0.80204(13) 0.3967(3) 0.14303(18)
Nd4_3 Nd 0.790853(8) 0.559649(19) 0.141049(10)
Nd6_2 Nd 0.915130(8) 0.525070(19) 0.156791(10)
S1_5 S 0.90604(5) 0.45755(14) 0.40815(6)
S3_5 S 0.59922(5) 0.28058(13) 0.09831(6)
C1_5 C 0.86018(18) 0.5472(4) 0.2381(2)
C2_5 C 0.85542(18) 0.5463(4) 0.2863(2)
C3_5 C 0.88316(18) 0.5106(4) 0.3185(2)
H1_5 H 0.9060 0.4894 0.3110
C4_5 C 0.82157(17) 0.5776(5) 0.2989(2)
H2_5 H 0.8023 0.5988 0.2770
C5_5 C 0.87628(17) 0.5068(4) 0.3620(2)
C6_5 C 0.81573(18) 0.5781(5) 0.3422(2)
H3_5 H 0.7939 0.6039 0.3501
C7_5 C 0.84338(18) 0.5388(4) 0.3746(2)
C8_5 C 0.84158(17) 0.5263(4) 0.4222(2)
C9_5 C 0.87381(17) 0.4854(4) 0.4455(2)
C10_5 C 0.81255(19) 0.5513(5) 0.4455(2)
H4_5 H 0.7910 0.5809 0.4312
C11_5 C 0.87773(18) 0.4663(4) 0.4897(2)
H5_5 H 0.8998 0.4389 0.5043
C12_5 C 0.81627(18) 0.5315(4) 0.4902(2)
H6_4 H 0.7968 0.5475 0.5058
C13_5 C 0.84816(17) 0.4886(4) 0.51231(19)
C14_5 C 0.84997(18) 0.4666(4) 0.5613(2)
C15_5 C 0.86585(19) 0.7169(4) 0.1516(2)
C16_5 C 0.86724(17) 0.8170(3) 0.1534(2)
C17_5 C 0.9017(2) 0.8590(4) 0.1570(3)
H7_5 H 0.9240 0.8256 0.1594
C18_5 C 0.83347(17) 0.8640(3) 0.1506(2)
H8_5 H 0.8099 0.8354 0.1479
C19_5 C 0.9036(2) 0.9528(4) 0.1571(3)
H9_5 H 0.9272 0.9812 0.1592
C20_5 C 0.83640(18) 0.9560(4) 0.1520(2)
C29_5 C 0.72472(19) 0.4663(4) 0.1584(3)
C30_5 C 0.69166(18) 0.4072(4) 0.1661(2)
C31_5 C 0.66622(19) 0.3782(4) 0.1304(3)
H13_5 H 0.6692 0.3930 0.1014
C32_5 C 0.68615(19) 0.3866(5) 0.2089(3)
H14_5 H 0.7034 0.4077 0.2329
C33_5 C 0.63583(17) 0.3260(4) 0.1386(2)
C34_5 C 0.6556(2) 0.3355(5) 0.2168(3)
H15_5 H 0.6524 0.3217 0.2458
C35_5 C 0.63019(17) 0.3054(4) 0.1815(2)
C36_5 C 0.59393(16) 0.2526(4) 0.1818(2)
C37_5 C 0.57447(17) 0.2358(4) 0.1397(2)
C38_5 C 0.57897(16) 0.2226(4) 0.2181(2)
H16_5 H 0.5920 0.2332 0.2467
C39_5 C 0.54010(16) 0.1912(4) 0.1320(2)
H17_5 H 0.5272 0.1812 0.1033
C40_5 C 0.54469(16) 0.1768(4) 0.2123(2)
H18_5 H 0.5345 0.1565 0.2369
C41_5 C 0.52565(16) 0.1615(4) 0.1697(2)
C42_5 C 0.48758(16) 0.1118(4) 0.1631(2)
C43_5 C 0.9770(4) 0.3708(9) 0.0098(4)
H19_5 H 0.9957 0.4173 0.0161
H21_5 H 0.9898 0.3148 0.0080
C44_5 C 0.9588(2) 0.4171(5) 0.0790(3)
H22_5 H 0.9774 0.4611 0.0799
C45_5 C 0.9215(4) 0.3028(10) 0.0395(4)
H23_5 H 0.9069 0.3094 0.0634
H24_5 H 0.9313 0.2432 0.0396
H25_5 H 0.9053 0.3142 0.0116
C46_5 C 0.95508(19) 0.4107(4) 0.2476(3)
H26_5 H 0.9632 0.4673 0.2573
C47_5 C 0.9739(4) 0.3580(8) 0.3251(4)
H27_5 H 0.9830 0.4178 0.3306
H28_5 H 0.9948 0.3170 0.3326
H29_5 H 0.9546 0.3456 0.3432
C48_5 C 0.9449(4) 0.2608(8) 0.2623(4)
H30_5 H 0.9340 0.2635 0.2313
H31_5 H 0.9259 0.2398 0.2792
H32_5 H 0.9663 0.2207 0.2662
C49_5 C 0.7439(3) 0.6993(7) 0.2044(3)
H33_5 H 0.7432 0.6514 0.2237
C50_5 C 0.7229(7) 0.8489(13) 0.1879(7)
H34_5 H 0.7353 0.8384 0.1625
H35_5 H 0.7349 0.8985 0.2046
H36_5 H 0.6963 0.8619 0.1782
C51_5 C 0.7109(7) 0.7694(13) 0.2549(7)
H37_5 H 0.7175 0.7140 0.2699
H38_5 H 0.6835 0.7746 0.2482
H39_5 H 0.7210 0.8179 0.2738
C52_5 C 0.7341(6) 0.6479(12) 0.0507(6)
H40_5 H 0.7320 0.5935 0.0359
C53_5 C 0.7163(6) 0.8052(11) 0.0530(7)
H41_5 H 0.6998 0.8485 0.0366
H42_5 H 0.7426 0.8221 0.0533
H43_5 H 0.7111 0.8022 0.0830
N1_5 N 0.9574(2) 0.3478(5) 0.2775(2)
N2_5 N 0.9537(2) 0.3668(5) 0.0456(2)
N3_5 N 0.7263(2) 0.7721(5) 0.2153(3)
N4_5 N 0.7097(6) 0.7203(12) 0.0324(6)
O1_5 O 0.89288(12) 0.5348(3) 0.22907(13)
O2_5 O 0.83087(13) 0.5620(3) 0.21079(15)
O3_5 O 0.94193(14) 0.5032(5) 0.41912(17)
O4_5 O 0.90775(18) 0.3635(4) 0.40237(17)
O5_3 O 0.88196(12) 0.4460(3) 0.58280(13)
O6_3 O 0.81891(12) 0.4701(3) 0.57577(14)
O7_5 O 0.89726(14) 0.6774(2) 0.16237(14)
O8_5 O 0.83391(13) 0.6830(3) 0.13801(16)
O13_5 O 0.72649(12) 0.4908(3) 0.11934(17)
O14_5 O 0.74856(13) 0.4897(3) 0.19157(17)
O15_5 O 0.57746(14) 0.3491(4) 0.07383(17)
O16_5 O 0.61413(15) 0.2113(4) 0.07361(17)
O17_3 O 0.46858(12) 0.1047(3) 0.12484(15)
O18_3 O 0.47652(11) 0.0800(3) 0.19657(15)
O19_5 O 0.94099(14) 0.4128(3) 0.11091(17)
O20_5 O 0.94296(13) 0.4010(3) 0.20771(17)
O21_5 O 0.75554(17) 0.6546(4) 0.08223(19)
O22_5 O 0.75997(16) 0.6859(4) 0.1750(2)
Nd3_3 Nd 0.790853(8) 0.440351(19) 0.641049(10)
Nd5_3 Nd 0.915130(8) 0.474930(19) 0.656791(10)
Nd7_2 Nd 0.415130(8) 0.025070(19) 0.156791(10)
O23_3 O 0.88196(12) 0.5540(3) 0.08280(13)
O24_3 O 0.81891(12) 0.5299(3) 0.07577(14)
O27_3 O 0.96858(12) 0.6047(3) 0.12484(15)
O28_3 O 0.97652(11) 0.5800(3) 0.19657(15)
Nd4_4 Nd 0.290853(8) 0.059649(19) 0.141049(10)
S2_6 S 0.29798(5) 0.53263(10) 0.15025(8)
C1_6 C 0.36018(18) 0.0472(4) 0.2381(2)
C2_6 C 0.35542(18) 0.0463(4) 0.2863(2)
C3_6 C 0.38316(18) 0.0106(4) 0.3185(2)
C4_6 C 0.32157(17) 0.0776(5) 0.2989(2)
H2_6 H 0.3023 0.0988 0.2770
C5_6 C 0.37628(17) 0.0068(4) 0.3620(2)
C6_6 C 0.31573(18) 0.0781(5) 0.3422(2)
H3_6 H 0.2939 0.1039 0.3501
C7_6 C 0.34338(18) 0.0388(4) 0.3746(2)
C8_6 C 0.34158(17) 0.0263(4) 0.4222(2)
C10_6 C 0.31255(19) 0.0513(5) 0.4455(2)
H4_6 H 0.2910 0.0809 0.4312
C12_6 C 0.31627(18) 0.0315(4) 0.4902(2)
H6_5 H 0.2968 0.0475 0.5058
C15_6 C 0.36585(19) 0.2169(4) 0.1516(2)
C16_6 C 0.36724(17) 0.3170(3) 0.1534(2)
C17_6 C 0.4017(2) 0.3590(4) 0.1570(3)
H7_6 H 0.4240 0.3256 0.1594
C18_6 C 0.33347(17) 0.3640(3) 0.1506(2)
H8_6 H 0.3099 0.3354 0.1479
C19_6 C 0.4036(2) 0.4528(4) 0.1571(3)
H9_6 H 0.4272 0.4812 0.1592
C20_6 C 0.33640(18) 0.4560(4) 0.1520(2)
C21_6 C 0.37065(17) 0.5019(4) 0.1543(2)
C22_6 C 0.36607(17) 0.5982(4) 0.1526(2)
C23_6 C 0.39385(19) 0.6634(4) 0.1533(3)
H10_6 H 0.4195 0.6476 0.1556
C24_6 C 0.32843(17) 0.6256(4) 0.1486(2)
C25_6 C 0.38327(19) 0.7519(4) 0.1506(3)
H11_6 H 0.4020 0.7954 0.1507
C26_6 C 0.31694(17) 0.7136(3) 0.1455(2)
H12_6 H 0.2912 0.7296 0.1420
C27_6 C 0.34558(17) 0.7769(3) 0.1476(2)
C28_6 C 0.33525(17) 0.8745(3) 0.1463(2)
C49_6 C 0.2439(3) 0.1993(7) 0.2044(3)
H33_6 H 0.2432 0.1514 0.2237
C50_6 C 0.2229(7) 0.3489(13) 0.1879(7)
H34_6 H 0.2353 0.3384 0.1625
H35_6 H 0.2349 0.3985 0.2046
H36_6 H 0.1963 0.3619 0.1782
C51_6 C 0.2109(7) 0.2694(13) 0.2549(7)
H37_6 H 0.2175 0.2140 0.2699
H38_6 H 0.1835 0.2746 0.2482
H39_6 H 0.2210 0.3179 0.2738
C52_6 C 0.2341(6) 0.1479(12) 0.0507(6)
H40_6 H 0.2320 0.0935 0.0359
C53_6 C 0.2163(6) 0.3052(11) 0.0530(7)
H41_6 H 0.1998 0.3485 0.0366
H42_6 H 0.2426 0.3221 0.0533
H43_6 H 0.2111 0.3022 0.0830
N3_6 N 0.2263(2) 0.2721(5) 0.2153(3)
N4_6 N 0.2097(6) 0.2203(12) 0.0324(6)
O1_6 O 0.39288(12) 0.0348(3) 0.22907(13)
O2_6 O 0.33087(13) 0.0620(3) 0.21079(15)
O3_6 O 0.44193(14) 0.0032(5) 0.41912(17)
O7_6 O 0.39726(14) 0.1774(2) 0.16237(14)
O8_6 O 0.33391(13) 0.1830(3) 0.13801(16)
O9_6 O 0.28240(16) 0.5325(3) 0.1914(2)
O10_6 O 0.27212(14) 0.5233(3) 0.1093(2)
O11_4 O 0.36178(12) 0.9299(2) 0.14900(15)
O12_4 O 0.30204(13) 0.8967(3) 0.14303(18)
O21_6 O 0.25554(17) 0.1546(4) 0.08223(19)
O22_6 O 0.25997(16) 0.1859(4) 0.1750(2)
O23_4 O 0.38196(12) 0.0540(3) 0.08280(13)
O24_4 O 0.31891(12) 0.0299(3) 0.07577(14)
S1_6 S 0.40604(5) 0.95755(14) 0.40815(6)
S3_6 S 0.09922(5) 0.78058(13) 0.09831(6)
H1_6 H 0.4060 0.9894 0.3110
C9_6 C 0.37381(17) 0.9854(4) 0.4455(2)
C11_6 C 0.37773(18) 0.9663(4) 0.4897(2)
H5_6 H 0.3998 0.9389 0.5043
C13_6 C 0.34816(17) 0.9886(4) 0.51231(19)
C14_6 C 0.34997(18) 0.9666(4) 0.5613(2)
C29_6 C 0.22472(19) 0.9663(4) 0.1584(3)
C30_6 C 0.19166(18) 0.9072(4) 0.1661(2)
C31_6 C 0.16622(19) 0.8782(4) 0.1304(3)
H13_6 H 0.1692 0.8930 0.1014
C32_6 C 0.18615(19) 0.8866(5) 0.2089(3)
H14_6 H 0.2034 0.9077 0.2329
C33_6 C 0.13583(17) 0.8260(4) 0.1386(2)
C34_6 C 0.1556(2) 0.8355(5) 0.2168(3)
H15_6 H 0.1524 0.8217 0.2458
C35_6 C 0.13019(17) 0.8054(4) 0.1815(2)
C36_6 C 0.09393(16) 0.7526(4) 0.1818(2)
C37_6 C 0.07447(17) 0.7358(4) 0.1397(2)
C38_6 C 0.07897(16) 0.7226(4) 0.2181(2)
H16_6 H 0.0920 0.7332 0.2467
C39_6 C 0.04010(16) 0.6912(4) 0.1320(2)
H17_6 H 0.0272 0.6812 0.1033
C40_6 C 0.04469(16) 0.6768(4) 0.2123(2)
H18_6 H 0.0345 0.6565 0.2369
C41_6 C 0.02565(16) 0.6615(4) 0.1697(2)
C43_6 C 0.4770(4) 0.8708(9) 0.0098(4)
H19_6 H 0.4957 0.9173 0.0161
H21_6 H 0.4898 0.8148 0.0080
C44_6 C 0.4588(2) 0.9171(5) 0.0790(3)
H22_6 H 0.4774 0.9611 0.0799
C45_6 C 0.4215(4) 0.8028(10) 0.0395(4)
H23_6 H 0.4069 0.8094 0.0634
H24_6 H 0.4313 0.7432 0.0396
H25_6 H 0.4053 0.8142 0.0116
C46_6 C 0.45508(19) 0.9107(4) 0.2476(3)
H26_6 H 0.4632 0.9673 0.2573
C47_6 C 0.4739(4) 0.8580(8) 0.3251(4)
H27_6 H 0.4830 0.9178 0.3306
H28_6 H 0.4948 0.8170 0.3326
H29_6 H 0.4546 0.8456 0.3432
C48_6 C 0.4449(4) 0.7608(8) 0.2623(4)
H30_6 H 0.4340 0.7635 0.2313
H31_6 H 0.4259 0.7398 0.2792
H32_6 H 0.4663 0.7207 0.2662
N1_6 N 0.4574(2) 0.8478(5) 0.2775(2)
N2_6 N 0.4537(2) 0.8668(5) 0.0456(2)
O4_6 O 0.40775(18) 0.8635(4) 0.40237(17)
O5_4 O 0.38196(12) 0.9460(3) 0.58280(13)
O6_4 O 0.31891(12) 0.9701(3) 0.57577(14)
O13_6 O 0.22649(12) 0.9908(3) 0.11934(17)
O14_6 O 0.24856(13) 0.9897(3) 0.19157(17)
O15_6 O 0.07746(14) 0.8491(4) 0.07383(17)
O16_6 O 0.11413(15) 0.7113(4) 0.07361(17)
O19_6 O 0.44099(14) 0.9128(3) 0.11091(17)
O20_6 O 0.44296(13) 0.9010(3) 0.20771(17)
Nd3_4 Nd 0.290853(8) 0.940351(19) 0.641049(10)
Nd5_4 Nd 0.415130(8) 0.974930(19) 0.656791(10)
C42_6 C 0.98758(16) 0.6118(4) 0.1631(2)
H5_7 H 0.8998 0.5611 0.0043
H6_6 H 0.7968 0.4525 0.0058
C13_7 C 0.84816(17) 0.5114(4) 0.01231(19)
C14_7 C 0.84997(18) 0.5334(4) 0.0613(2)
S1_7 S 0.90604(5) 0.54245(14) 0.90815(6)
S3_7 S 0.59922(5) 0.71942(13) 0.59831(6)
C1_7 C 0.86018(18) 0.4528(4) 0.7381(2)
C2_7 C 0.85542(18) 0.4537(4) 0.7863(2)
C3_7 C 0.88316(18) 0.4894(4) 0.8185(2)
H1_7 H 0.9060 0.5106 0.8110
C4_7 C 0.82157(17) 0.4224(5) 0.7989(2)
H2_7 H 0.8023 0.4012 0.7770
C5_7 C 0.87628(17) 0.4932(4) 0.8620(2)
C6_7 C 0.81573(18) 0.4219(5) 0.8422(2)
H3_7 H 0.7939 0.3961 0.8501
C7_7 C 0.84338(18) 0.4612(4) 0.8746(2)
C8_7 C 0.84158(17) 0.4737(4) 0.9222(2)
C9_7 C 0.87381(17) 0.5146(4) 0.9455(2)
C10_7 C 0.81255(19) 0.4487(5) 0.9455(2)
H4_7 H 0.7910 0.4191 0.9312
C11_7 C 0.87773(18) 0.5337(4) 0.9897(2)
C12_7 C 0.81627(18) 0.4685(4) 0.9902(2)
C15_7 C 0.86585(19) 0.2831(4) 0.6516(2)
C16_7 C 0.86724(17) 0.1830(3) 0.6534(2)
C17_7 C 0.9017(2) 0.1410(4) 0.6570(3)
H7_7 H 0.9240 0.1744 0.6594
C18_7 C 0.83347(17) 0.1360(3) 0.6506(2)
H8_7 H 0.8099 0.1646 0.6479
C19_7 C 0.9036(2) 0.0472(4) 0.6571(3)
H9_7 H 0.9272 0.0188 0.6592
C20_7 C 0.83640(18) 0.0440(4) 0.6520(2)
C29_7 C 0.72472(19) 0.5337(4) 0.6584(3)
C30_7 C 0.69166(18) 0.5928(4) 0.6661(2)
C31_7 C 0.66622(19) 0.6218(4) 0.6304(3)
H13_7 H 0.6692 0.6070 0.6014
C32_7 C 0.68615(19) 0.6134(5) 0.7089(3)
H14_7 H 0.7034 0.5923 0.7329
C33_7 C 0.63583(17) 0.6740(4) 0.6386(2)
C34_7 C 0.6556(2) 0.6645(5) 0.7168(3)
H15_7 H 0.6524 0.6783 0.7458
C35_7 C 0.63019(17) 0.6946(4) 0.6815(2)
C36_7 C 0.59393(16) 0.7474(4) 0.6818(2)
C37_7 C 0.57447(17) 0.7642(4) 0.6397(2)
C38_7 C 0.57897(16) 0.7774(4) 0.7181(2)
H16_7 H 0.5920 0.7668 0.7467
C39_7 C 0.54010(16) 0.8088(4) 0.6320(2)
H17_7 H 0.5272 0.8188 0.6033
C40_7 C 0.54469(16) 0.8232(4) 0.7123(2)
H18_7 H 0.5345 0.8435 0.7369
C41_7 C 0.52565(16) 0.8385(4) 0.6697(2)
C42_7 C 0.48758(16) 0.8882(4) 0.6631(2)
C43_7 C 0.9770(4) 0.6292(9) 0.5098(4)
H19_7 H 0.9957 0.5827 0.5161
H20_3 H 0.9608 0.6173 0.4820
H21_7 H 0.9898 0.6852 0.5080
C44_7 C 0.9588(2) 0.5829(5) 0.5790(3)
H22_7 H 0.9774 0.5389 0.5799
C45_7 C 0.9215(4) 0.6972(10) 0.5395(4)
H23_7 H 0.9069 0.6906 0.5634
H24_7 H 0.9313 0.7568 0.5396
H25_7 H 0.9053 0.6858 0.5116
C46_7 C 0.95508(19) 0.5893(4) 0.7476(3)
H26_7 H 0.9632 0.5327 0.7573
C47_7 C 0.9739(4) 0.6420(8) 0.8251(4)
H27_7 H 0.9830 0.5822 0.8306
H28_7 H 0.9948 0.6830 0.8326
H29_7 H 0.9546 0.6544 0.8432
C48_7 C 0.9449(4) 0.7392(8) 0.7623(4)
H30_7 H 0.9340 0.7365 0.7313
H31_7 H 0.9259 0.7602 0.7792
H32_7 H 0.9663 0.7793 0.7662
C49_7 C 0.7439(3) 0.3007(7) 0.7044(3)
H33_7 H 0.7432 0.3486 0.7237
C50_7 C 0.7229(7) 0.1511(13) 0.6879(7)
H34_7 H 0.7353 0.1616 0.6625
H35_7 H 0.7349 0.1015 0.7046
H36_7 H 0.6963 0.1381 0.6782
C51_7 C 0.7109(7) 0.2306(13) 0.7549(7)
H37_7 H 0.7175 0.2860 0.7699
H38_7 H 0.6835 0.2254 0.7482
H39_7 H 0.7210 0.1821 0.7738
C52_7 C 0.7341(6) 0.3521(12) 0.5507(6)
H40_7 H 0.7320 0.4065 0.5359
C53_7 C 0.7163(6) 0.1948(11) 0.5530(7)
H41_7 H 0.6998 0.1515 0.5366
H42_7 H 0.7426 0.1779 0.5533
H43_7 H 0.7111 0.1978 0.5830
C54_3 C 0.6884(5) 0.3029(13) 0.4841(6)
H44_3 H 0.6837 0.2492 0.4670
H45_3 H 0.6645 0.3315 0.4862
H46_3 H 0.7041 0.3422 0.4698
N1_7 N 0.9574(2) 0.6522(5) 0.7775(2)
N2_7 N 0.9537(2) 0.6332(5) 0.5456(2)
N3_7 N 0.7263(2) 0.2279(5) 0.7153(3)
N4_7 N 0.7097(6) 0.2797(12) 0.5324(6)
O1_7 O 0.89288(12) 0.4652(3) 0.72907(13)
O2_7 O 0.83087(13) 0.4380(3) 0.71079(15)
O3_7 O 0.94193(14) 0.4968(5) 0.91912(17)
O4_7 O 0.90775(18) 0.6365(4) 0.90237(17)
O7_7 O 0.89726(14) 0.3226(2) 0.66237(14)
O8_7 O 0.83391(13) 0.3170(3) 0.63801(16)
O13_7 O 0.72649(12) 0.5092(3) 0.61934(17)
O14_7 O 0.74856(13) 0.5103(3) 0.69157(17)
O15_7 O 0.57746(14) 0.6509(4) 0.57383(17)
O16_7 O 0.61413(15) 0.7887(4) 0.57361(17)
O17_4 O 0.46858(12) 0.8953(3) 0.62484(15)
O18_4 O 0.47652(11) 0.9200(3) 0.69657(15)
O19_7 O 0.94099(14) 0.5872(3) 0.61091(17)
O20_7 O 0.94296(13) 0.5990(3) 0.70771(17)
O21_7 O 0.75554(17) 0.3454(4) 0.58223(19)
O22_7 O 0.75997(16) 0.3141(4) 0.6750(2)
O25_3 O 0.86178(12) 0.5701(2) 0.64900(15)
O26_3 O 0.80204(13) 0.6033(3) 0.64303(18)
O27_4 O 0.96858(12) 0.3953(3) 0.62484(15)
O28_4 O 0.97652(11) 0.4200(3) 0.69657(15)
S2_7 S 0.79798(5) 0.96737(10) 0.65025(8)
C21_7 C 0.87065(17) 0.9981(4) 0.6543(2)
C22_7 C 0.86607(17) 0.9018(4) 0.6526(2)
C23_7 C 0.89385(19) 0.8366(4) 0.6533(3)
H10_7 H 0.9195 0.8524 0.6556
C24_7 C 0.82843(17) 0.8744(4) 0.6486(2)
C25_7 C 0.88327(19) 0.7481(4) 0.6506(3)
H11_7 H 0.9020 0.7046 0.6507
C26_7 C 0.81694(17) 0.7864(3) 0.6455(2)
H12_7 H 0.7912 0.7704 0.6420
C27_7 C 0.84558(17) 0.7231(3) 0.6476(2)
C28_7 C 0.83525(17) 0.6255(3) 0.6463(2)
O9_7 O 0.78240(16) 0.9675(3) 0.6914(2)
O10_7 O 0.77212(14) 0.9767(3) 0.6093(2)
H5_8 H 0.3998 0.0611 0.0043
C13_8 C 0.34816(17) 0.0114(4) 0.01231(19)
C14_8 C 0.34997(18) 0.0334(4) 0.0613(2)
S1_8 S 0.40604(5) 0.04245(14) 0.90815(6)
S3_8 S 0.09922(5) 0.21942(13) 0.59831(6)
H1_8 H 0.4060 0.0106 0.8110
C9_8 C 0.37381(17) 0.0146(4) 0.9455(2)
C11_8 C 0.37773(18) 0.0337(4) 0.9897(2)
C29_8 C 0.22472(19) 0.0337(4) 0.6584(3)
C30_8 C 0.19166(18) 0.0928(4) 0.6661(2)
C31_8 C 0.16622(19) 0.1218(4) 0.6304(3)
H13_8 H 0.1692 0.1070 0.6014
C32_8 C 0.18615(19) 0.1134(5) 0.7089(3)
H14_8 H 0.2034 0.0923 0.7329
C33_8 C 0.13583(17) 0.1740(4) 0.6386(2)
C34_8 C 0.1556(2) 0.1645(5) 0.7168(3)
H15_8 H 0.1524 0.1783 0.7458
C35_8 C 0.13019(17) 0.1946(4) 0.6815(2)
C36_8 C 0.09393(16) 0.2474(4) 0.6818(2)
C37_8 C 0.07447(17) 0.2642(4) 0.6397(2)
C38_8 C 0.07897(16) 0.2774(4) 0.7181(2)
H16_8 H 0.0920 0.2668 0.7467
C39_8 C 0.04010(16) 0.3088(4) 0.6320(2)
H17_8 H 0.0272 0.3188 0.6033
C40_8 C 0.04469(16) 0.3232(4) 0.7123(2)
H18_8 H 0.0345 0.3435 0.7369
C41_8 C 0.02565(16) 0.3385(4) 0.6697(2)
C43_8 C 0.4770(4) 0.1292(9) 0.5098(4)
H19_8 H 0.4957 0.0827 0.5161
H20_4 H 0.4608 0.1173 0.4820
H21_8 H 0.4898 0.1852 0.5080
C44_8 C 0.4588(2) 0.0829(5) 0.5790(3)
H22_8 H 0.4774 0.0389 0.5799
C45_8 C 0.4215(4) 0.1972(10) 0.5395(4)
H23_8 H 0.4069 0.1906 0.5634
H24_8 H 0.4313 0.2568 0.5396
H25_8 H 0.4053 0.1858 0.5116
C46_8 C 0.45508(19) 0.0893(4) 0.7476(3)
H26_8 H 0.4632 0.0327 0.7573
C47_8 C 0.4739(4) 0.1420(8) 0.8251(4)
H27_8 H 0.4830 0.0822 0.8306
H28_8 H 0.4948 0.1830 0.8326
H29_8 H 0.4546 0.1544 0.8432
C48_8 C 0.4449(4) 0.2392(8) 0.7623(4)
H30_8 H 0.4340 0.2365 0.7313
H31_8 H 0.4259 0.2602 0.7792
H32_8 H 0.4663 0.2793 0.7662
N1_8 N 0.4574(2) 0.1522(5) 0.7775(2)
N2_8 N 0.4537(2) 0.1332(5) 0.5456(2)
O4_8 O 0.40775(18) 0.1365(4) 0.90237(17)
O13_8 O 0.22649(12) 0.0092(3) 0.61934(17)
O14_8 O 0.24856(13) 0.0103(3) 0.69157(17)
O15_8 O 0.07746(14) 0.1509(4) 0.57383(17)
O16_8 O 0.11413(15) 0.2887(4) 0.57361(17)
O19_8 O 0.44099(14) 0.0872(3) 0.61091(17)
O20_8 O 0.44296(13) 0.0990(3) 0.70771(17)
O25_4 O 0.36178(12) 0.0701(2) 0.64900(15)
O26_4 O 0.30204(13) 0.1033(3) 0.64303(18)
S2_8 S 0.29798(5) 0.46737(10) 0.65025(8)
C1_8 C 0.36018(18) 0.9528(4) 0.7381(2)
C2_8 C 0.35542(18) 0.9537(4) 0.7863(2)
C3_8 C 0.38316(18) 0.9894(4) 0.8185(2)
C4_8 C 0.32157(17) 0.9224(5) 0.7989(2)
H2_8 H 0.3023 0.9012 0.7770
C5_8 C 0.37628(17) 0.9932(4) 0.8620(2)
C6_8 C 0.31573(18) 0.9219(5) 0.8422(2)
H3_8 H 0.2939 0.8961 0.8501
C7_8 C 0.34338(18) 0.9612(4) 0.8746(2)
C8_8 C 0.34158(17) 0.9737(4) 0.9222(2)
C10_8 C 0.31255(19) 0.9487(5) 0.9455(2)
H4_8 H 0.2910 0.9191 0.9312
C12_8 C 0.31627(18) 0.9685(4) 0.9902(2)
C15_8 C 0.36585(19) 0.7831(4) 0.6516(2)
C16_8 C 0.36724(17) 0.6830(3) 0.6534(2)
C17_8 C 0.4017(2) 0.6410(4) 0.6570(3)
H7_8 H 0.4240 0.6744 0.6594
C18_8 C 0.33347(17) 0.6360(3) 0.6506(2)
H8_8 H 0.3099 0.6646 0.6479
C19_8 C 0.4036(2) 0.5472(4) 0.6571(3)
H9_8 H 0.4272 0.5188 0.6592
C20_8 C 0.33640(18) 0.5440(4) 0.6520(2)
C21_8 C 0.37065(17) 0.4981(4) 0.6543(2)
C22_8 C 0.36607(17) 0.4018(4) 0.6526(2)
C23_8 C 0.39385(19) 0.3366(4) 0.6533(3)
H10_8 H 0.4195 0.3524 0.6556
C24_8 C 0.32843(17) 0.3744(4) 0.6486(2)
C25_8 C 0.38327(19) 0.2481(4) 0.6506(3)
H11_8 H 0.4020 0.2046 0.6507
C26_8 C 0.31694(17) 0.2864(3) 0.6455(2)
H12_8 H 0.2912 0.2704 0.6420
C27_8 C 0.34558(17) 0.2231(3) 0.6476(2)
C28_8 C 0.33525(17) 0.1255(3) 0.6463(2)
C49_8 C 0.2439(3) 0.8007(7) 0.7044(3)
H33_8 H 0.2432 0.8486 0.7237
C50_8 C 0.2229(7) 0.6511(13) 0.6879(7)
H34_8 H 0.2353 0.6616 0.6625
H35_8 H 0.2349 0.6015 0.7046
H36_8 H 0.1963 0.6381 0.6782
C51_8 C 0.2109(7) 0.7306(13) 0.7549(7)
H37_8 H 0.2175 0.7860 0.7699
H38_8 H 0.1835 0.7254 0.7482
H39_8 H 0.2210 0.6821 0.7738
C52_8 C 0.2341(6) 0.8521(12) 0.5507(6)
H40_8 H 0.2320 0.9065 0.5359
C53_8 C 0.2163(6) 0.6948(11) 0.5530(7)
H41_8 H 0.1998 0.6515 0.5366
H42_8 H 0.2426 0.6779 0.5533
H43_8 H 0.2111 0.6978 0.5830
C54_4 C 0.1884(5) 0.8029(13) 0.4841(6)
H44_4 H 0.1837 0.7492 0.4670
H45_4 H 0.1645 0.8315 0.4862
H46_4 H 0.2041 0.8422 0.4698
N3_8 N 0.2263(2) 0.7279(5) 0.7153(3)
N4_8 N 0.2097(6) 0.7797(12) 0.5324(6)
O1_8 O 0.39288(12) 0.9652(3) 0.72907(13)
O2_8 O 0.33087(13) 0.9380(3) 0.71079(15)
O3_8 O 0.44193(14) 0.9968(5) 0.91912(17)
O7_8 O 0.39726(14) 0.8226(2) 0.66237(14)
O8_8 O 0.33391(13) 0.8170(3) 0.63801(16)
O9_8 O 0.28240(16) 0.4675(3) 0.6914(2)
O10_8 O 0.27212(14) 0.4767(3) 0.6093(2)
O21_8 O 0.25554(17) 0.8454(4) 0.58223(19)
O22_8 O 0.25997(16) 0.8141(4) 0.6750(2)
C42_8 C 0.98758(16) 0.3882(4) 0.6631(2)
H20_5 H 0.9608 0.3827 0.9820
C54_5 C 0.6884(5) 0.6971(13) 0.9841(6)
H44_5 H 0.6837 0.7508 0.9670
H45_5 H 0.6645 0.6685 0.9862
H46_5 H 0.7041 0.6578 0.9698
H6_7 H 0.7032 0.0475 0.9942
C54_6 C 0.1884(5) 0.1971(13) 0.9841(6)
H44_6 H 0.1837 0.2508 0.9670
H45_6 H 0.1645 0.1685 0.9862
H46_6 H 0.2041 0.1578 0.9698
H20_6 H 0.4608 0.8827 0.9820
H20_7 H 0.0392 0.6173 0.0180
C54_7 C 0.3116(5) 0.3029(13) 0.0159(6)
H44_7 H 0.3163 0.2492 0.0330
H45_7 H 0.3355 0.3315 0.0138
H46_7 H 0.2959 0.3422 0.0302
H6_8 H 0.2968 0.9525 0.0058
H20_8 H 0.5392 0.1173 0.0180
C54_8 C 0.8116(5) 0.8029(13) 0.0159(6)
H44_8 H 0.8163 0.7492 0.0330
H45_8 H 0.8355 0.8315 0.0138
H46_8 H 0.7959 0.8422 0.0302
loop_
_geom_bond_atom_site_label_1
_geom_bond_atom_site_label_2
_geom_bond_site_symmetry_1
_geom_bond_site_symmetry_2
C22 C21 1_555 1_555
C23 C22 1_555 1_555
H10 C23 1_555 1_555
C24 S2 1_555 1_555
C25 C23 1_555 1_555
H11 C25 1_555 1_555
C26 C24 1_555 1_555
H12 C26 1_555 1_555
C27 C25 1_555 1_555
C28 C27 1_555 1_555
O9 S2 1_555 1_555
O10 S2 1_555 1_555
O11 C28 1_555 1_555
O12 C28 1_555 1_555
Nd4 O12 1_555 1_555
Nd6 O11 1_555 1_555
C22 C24 1_555 1_555
C26 C27 1_555 1_555
Nd4 O2 1_555 1_555
Nd6 O1 1_555 1_555
S1 C5 1_555 1_555
S3 C33 1_555 1_555
C1 C2 1_555 1_555
C2 C3 1_555 1_555
C3 H1 1_555 1_555
C4 C2 1_555 1_555
H2 C4 1_555 1_555
C5 C3 1_555 1_555
C6 C4 1_555 1_555
H3 C6 1_555 1_555
C7 C5 1_555 1_555
C8 C7 1_555 1_555
C9 S1 1_555 1_555
C10 C8 1_555 1_555
H4 C10 1_555 1_555
C11 C9 1_555 1_555
C12 C10 1_555 1_555
C15 C16 1_555 1_555
C16 C17 1_555 1_555
C17 H7 1_555 1_555
C18 C16 1_555 1_555
H8 C18 1_555 1_555
C19 C17 1_555 1_555
H9 C19 1_555 1_555
C20 C18 1_555 1_555
C29 C30 1_555 1_555
C30 C31 1_555 1_555
C31 H13 1_555 1_555
C32 C30 1_555 1_555
H14 C32 1_555 1_555
C33 C31 1_555 1_555
C34 C32 1_555 1_555
H15 C34 1_555 1_555
C35 C33 1_555 1_555
C36 C35 1_555 1_555
C37 S3 1_555 1_555
C38 C36 1_555 1_555
H16 C38 1_555 1_555
C39 C37 1_555 1_555
H17 C39 1_555 1_555
C40 C38 1_555 1_555
H18 C40 1_555 1_555
C41 C39 1_555 1_555
C42 C41 1_555 1_555
C43 H19 1_555 1_555
H20 C43 1_555 1_555
H21 C43 1_555 1_555
C44 H22 1_555 1_555
C45 H23 1_555 1_555
H24 C45 1_555 1_555
H25 C45 1_555 1_555
C46 H26 1_555 1_555
C47 H27 1_555 1_555
H28 C47 1_555 1_555
H29 C47 1_555 1_555
C48 H30 1_555 1_555
H31 C48 1_555 1_555
H32 C48 1_555 1_555
C49 H33 1_555 1_555
C50 H34 1_555 1_555
H35 C50 1_555 1_555
H36 C50 1_555 1_555
C51 H37 1_555 1_555
H38 C51 1_555 1_555
H39 C51 1_555 1_555
C52 H40 1_555 1_555
C53 H41 1_555 1_555
H42 C53 1_555 1_555
H43 C53 1_555 1_555
C54 H44 1_555 1_555
H45 C54 1_555 1_555
H46 C54 1_555 1_555
N1 C46 1_555 1_555
N2 C43 1_555 1_555
N3 C49 1_555 1_555
N4 C52 1_555 1_555
O1 C1 1_555 1_555
O2 C1 1_555 1_555
O3 S1 1_555 1_555
O4 S1 1_555 1_555
O7 Nd6 1_555 1_555
O8 Nd4 1_555 1_555
O13 Nd4 1_555 1_555
O14 Nd4 1_555 1_555
O15 S3 1_555 1_555
O16 S3 1_555 1_555
O17 C42 1_555 1_555
O18 C42 1_555 1_555
O19 Nd6 1_555 1_555
O20 Nd6 1_555 1_555
O21 Nd4 1_555 1_555
O22 Nd4 1_555 1_555
Nd7 O17 1_555 1_555
O23 Nd6 1_555 1_555
O24 Nd4 1_555 1_555
O27 Nd6 1_555 1_555
O28 Nd6 1_555 1_555
C6 C7 1_555 1_555
C8 C9 1_555 1_555
C15 O7 1_555 1_555
C15 O8 1_555 1_555
C29 O13 1_555 1_555
C29 O14 1_555 1_555
C34 C35 1_555 1_555
C36 C37 1_555 1_555
C40 C41 1_555 1_555
C44 N2 1_555 1_555
C44 O19 1_555 1_555
C45 N2 1_555 1_555
C46 O20 1_555 1_555
C47 N1 1_555 1_555
C48 N1 1_555 1_555
C49 O22 1_555 1_555
C50 N3 1_555 1_555
C51 N3 1_555 1_555
C52 O21 1_555 1_555
C53 N4 1_555 1_555
C54 N4 1_555 1_555
O18 Nd7 1_555 1_555
C14 C13 1_555 1_555
O5 C14 1_555 1_555
O6 C14 1_555 1_555
Nd3 O6 1_555 1_555
Nd5 O5 1_555 1_555
O27 C42_2 1_555 1_555
O28 C42_2 1_555 1_555
Nd4_2 O2_2 1_555 1_555
Nd7 O1_2 1_555 1_555
S2_2 C20_2 1_555 1_555
C1_2 C2_2 1_555 1_555
C2_2 C3_2 1_555 1_555
C4_2 C2_2 1_555 1_555
H2_2 C4_2 1_555 1_555
C5_2 C3_2 1_555 1_555
C6_2 C4_2 1_555 1_555
H3_2 C6_2 1_555 1_555
C7_2 C5_2 1_555 1_555
C8_2 C7_2 1_555 1_555
C10_2 C8_2 1_555 1_555
H4_2 C10_2 1_555 1_555
C12_2 C10_2 1_555 1_555
C15_2 C16_2 1_555 1_555
C16_2 C17_2 1_555 1_555
C17_2 H7_2 1_555 1_555
C18_2 C16_2 1_555 1_555
H8_2 C18_2 1_555 1_555
C19_2 C17_2 1_555 1_555
H9_2 C19_2 1_555 1_555
C20_2 C18_2 1_555 1_555
C21_2 C19_2 1_555 1_555
C22_2 C21_2 1_555 1_555
C23_2 C22_2 1_555 1_555
H10_2 C23_2 1_555 1_555
C24_2 S2_2 1_555 1_555
C25_2 C23_2 1_555 1_555
H11_2 C25_2 1_555 1_555
C26_2 C24_2 1_555 1_555
H12_2 C26_2 1_555 1_555
C27_2 C25_2 1_555 1_555
C28_2 C27_2 1_555 1_555
C49_2 H33_2 1_555 1_555
C50_2 H34_2 1_555 1_555
H35_2 C50_2 1_555 1_555
H36_2 C50_2 1_555 1_555
C51_2 H37_2 1_555 1_555
H38_2 C51_2 1_555 1_555
H39_2 C51_2 1_555 1_555
C52_2 H40_2 1_555 1_555
C53_2 H41_2 1_555 1_555
H42_2 C53_2 1_555 1_555
H43_2 C53_2 1_555 1_555
C54_2 H44_2 1_555 1_555
H45_2 C54_2 1_555 1_555
H46_2 C54_2 1_555 1_555
N3_2 C49_2 1_555 1_555
N4_2 C52_2 1_555 1_555
O1_2 C1_2 1_555 1_555
O2_2 C1_2 1_555 1_555
O7_2 Nd7 1_555 1_555
O8_2 Nd4_2 1_555 1_555
O9_2 S2_2 1_555 1_555
O10_2 S2_2 1_555 1_555
O11_2 C28_2 1_555 1_555
O12_2 C28_2 1_555 1_555
O21_2 Nd4_2 1_555 1_555
O22_2 Nd4_2 1_555 1_555
O23_2 Nd7 1_555 1_555
O24_2 Nd4_2 1_555 1_555
C6_2 C7_2 1_555 1_555
C15_2 O7_2 1_555 1_555
C15_2 O8_2 1_555 1_555
C20_2 C21_2 1_555 1_555
C22_2 C24_2 1_555 1_555
C26_2 C27_2 1_555 1_555
C49_2 O22_2 1_555 1_555
C50_2 N3_2 1_555 1_555
C51_2 N3_2 1_555 1_555
C52_2 O21_2 1_555 1_555
C53_2 N4_2 1_555 1_555
C54_2 N4_2 1_555 1_555
S3_2 C33_2 1_555 1_555
C9_2 S1_2 1_555 1_555
C11_2 C9_2 1_555 1_555
C29_2 C30_2 1_555 1_555
C30_2 C31_2 1_555 1_555
C31_2 H13_2 1_555 1_555
C32_2 C30_2 1_555 1_555
H14_2 C32_2 1_555 1_555
C33_2 C31_2 1_555 1_555
C34_2 C32_2 1_555 1_555
H15_2 C34_2 1_555 1_555
C35_2 C33_2 1_555 1_555
C36_2 C35_2 1_555 1_555
C37_2 S3_2 1_555 1_555
C38_2 C36_2 1_555 1_555
H16_2 C38_2 1_555 1_555
C39_2 C37_2 1_555 1_555
H17_2 C39_2 1_555 1_555
C40_2 C38_2 1_555 1_555
H18_2 C40_2 1_555 1_555
C41_2 C39_2 1_555 1_555
C43_2 H19_2 1_555 1_555
H20_2 C43_2 1_555 1_555
H21_2 C43_2 1_555 1_555
C44_2 H22_2 1_555 1_555
C45_2 H23_2 1_555 1_555
H24_2 C45_2 1_555 1_555
H25_2 C45_2 1_555 1_555
C46_2 H26_2 1_555 1_555
C47_2 H27_2 1_555 1_555
H28_2 C47_2 1_555 1_555
H29_2 C47_2 1_555 1_555
C48_2 H30_2 1_555 1_555
H31_2 C48_2 1_555 1_555
H32_2 C48_2 1_555 1_555
N1_2 C46_2 1_555 1_555
N2_2 C43_2 1_555 1_555
O4_2 S1_2 1_555 1_555
O15_2 S3_2 1_555 1_555
O16_2 S3_2 1_555 1_555
C29_2 O13_2 1_555 1_555
C29_2 O14_2 1_555 1_555
C34_2 C35_2 1_555 1_555
C36_2 C37_2 1_555 1_555
C40_2 C41_2 1_555 1_555
C44_2 N2_2 1_555 1_555
C44_2 O19_2 1_555 1_555
C45_2 N2_2 1_555 1_555
C46_2 O20_2 1_555 1_555
C47_2 N1_2 1_555 1_555
C48_2 N1_2 1_555 1_555
C14_2 C13_2 1_555 1_555
O5_2 C14_2 1_555 1_555
O6_2 C14_2 1_555 1_555
Nd3_2 O6_2 1_555 1_555
Nd5_2 O5_2 1_555 1_555
Nd3 O2_3 1_555 1_555
Nd5 O1_3 1_555 1_555
S1_3 C5_3 1_555 1_555
S3_3 C33_3 1_555 1_555
C1_3 C2_3 1_555 1_555
C2_3 C3_3 1_555 1_555
C3_3 H1_3 1_555 1_555
C4_3 C2_3 1_555 1_555
H2_3 C4_3 1_555 1_555
C5_3 C3_3 1_555 1_555
C6_3 C4_3 1_555 1_555
H3_3 C6_3 1_555 1_555
C7_3 C5_3 1_555 1_555
C8_3 C7_3 1_555 1_555
C9_3 S1_3 1_555 1_555
C10_3 C8_3 1_555 1_555
H4_3 C10_3 1_555 1_555
C11_3 C9_3 1_555 1_555
H5_3 C11_3 1_555 1_555
C12_3 C10_3 1_555 1_555
H6_2 C12_3 1_555 1_555
C13_3 C11_3 1_555 1_555
C14_3 C13_3 1_555 1_555
C15_3 C16_3 1_555 1_555
C16_3 C17_3 1_555 1_555
C17_3 H7_3 1_555 1_555
C18_3 C16_3 1_555 1_555
H8_3 C18_3 1_555 1_555
C19_3 C17_3 1_555 1_555
H9_3 C19_3 1_555 1_555
C20_3 C18_3 1_555 1_555
C29_3 C30_3 1_555 1_555
C30_3 C31_3 1_555 1_555
C31_3 H13_3 1_555 1_555
C32_3 C30_3 1_555 1_555
H14_3 C32_3 1_555 1_555
C33_3 C31_3 1_555 1_555
C34_3 C32_3 1_555 1_555
H15_3 C34_3 1_555 1_555
C35_3 C33_3 1_555 1_555
C36_3 C35_3 1_555 1_555
C37_3 S3_3 1_555 1_555
C38_3 C36_3 1_555 1_555
H16_3 C38_3 1_555 1_555
C39_3 C37_3 1_555 1_555
H17_3 C39_3 1_555 1_555
C40_3 C38_3 1_555 1_555
H18_3 C40_3 1_555 1_555
C41_3 C39_3 1_555 1_555
C42_3 C41_3 1_555 1_555
C43_3 H19_3 1_555 1_555
H21_3 C43_3 1_555 1_555
C44_3 H22_3 1_555 1_555
C45_3 H23_3 1_555 1_555
H24_3 C45_3 1_555 1_555
H25_3 C45_3 1_555 1_555
C46_3 H26_3 1_555 1_555
C47_3 H27_3 1_555 1_555
H28_3 C47_3 1_555 1_555
H29_3 C47_3 1_555 1_555
C48_3 H30_3 1_555 1_555
H31_3 C48_3 1_555 1_555
H32_3 C48_3 1_555 1_555
C49_3 H33_3 1_555 1_555
C50_3 H34_3 1_555 1_555
H35_3 C50_3 1_555 1_555
H36_3 C50_3 1_555 1_555
C51_3 H37_3 1_555 1_555
H38_3 C51_3 1_555 1_555
H39_3 C51_3 1_555 1_555
C52_3 H40_3 1_555 1_555
C53_3 H41_3 1_555 1_555
H42_3 C53_3 1_555 1_555
H43_3 C53_3 1_555 1_555
N1_3 C46_3 1_555 1_555
N2_3 C43_3 1_555 1_555
N3_3 C49_3 1_555 1_555
N4_3 C52_3 1_555 1_555
O1_3 C1_3 1_555 1_555
O2_3 C1_3 1_555 1_555
O3_3 S1_3 1_555 1_555
O4_3 S1_3 1_555 1_555
O23 C14_3 1_555 1_555
O24 C14_3 1_555 1_555
O7_3 Nd5 1_555 1_555
O8_3 Nd3 1_555 1_555
O13_3 Nd3 1_555 1_555
O14_3 Nd3 1_555 1_555
O15_3 S3_3 1_555 1_555
O16_3 S3_3 1_555 1_555
O17_2 C42_3 1_555 1_555
O18_2 C42_3 1_555 1_555
O19_3 Nd5 1_555 1_555
O20_3 Nd5 1_555 1_555
O21_3 Nd3 1_555 1_555
O22_3 Nd3 1_555 1_555
Nd5_2 O17_2 1_555 1_555
O25 Nd5 1_555 1_555
O26 Nd3 1_555 1_555
O27_2 Nd5 1_555 1_555
O28_2 Nd5 1_555 1_555
C6_3 C7_3 1_555 1_555
C8_3 C9_3 1_555 1_555
C12_3 C13_3 1_555 1_555
C15_3 O7_3 1_555 1_555
C15_3 O8_3 1_555 1_555
C29_3 O13_3 1_555 1_555
C29_3 O14_3 1_555 1_555
C34_3 C35_3 1_555 1_555
C36_3 C37_3 1_555 1_555
C40_3 C41_3 1_555 1_555
C44_3 N2_3 1_555 1_555
C44_3 O19_3 1_555 1_555
C45_3 N2_3 1_555 1_555
C46_3 O20_3 1_555 1_555
C47_3 N1_3 1_555 1_555
C48_3 N1_3 1_555 1_555
C49_3 O22_3 1_555 1_555
C50_3 N3_3 1_555 1_555
C51_3 N3_3 1_555 1_555
C52_3 O21_3 1_555 1_555
C53_3 N4_3 1_555 1_555
O18_2 Nd5_2 1_555 1_555
C22_3 C21_3 1_555 1_555
C23_3 C22_3 1_555 1_555
H10_3 C23_3 1_555 1_555
C24_3 S2_3 1_555 1_555
C25_3 C23_3 1_555 1_555
H11_3 C25_3 1_555 1_555
C26_3 C24_3 1_555 1_555
H12_3 C26_3 1_555 1_555
C27_3 C25_3 1_555 1_555
C28_3 C27_3 1_555 1_555
O9_3 S2_3 1_555 1_555
O10_3 S2_3 1_555 1_555
O25 C28_3 1_555 1_555
O26 C28_3 1_555 1_555
C22_3 C24_3 1_555 1_555
C26_3 C27_3 1_555 1_555
O27_2 C42_4 1_555 1_555
O28_2 C42_4 1_555 1_555
S3_4 C33_4 1_555 1_555
C9_4 S1_4 1_555 1_555
C11_4 C9_4 1_555 1_555
H5_4 C11_4 1_555 1_555
C13_4 C11_4 1_555 1_555
C14_4 C13_4 1_555 1_555
C29_4 C30_4 1_555 1_555
C30_4 C31_4 1_555 1_555
C31_4 H13_4 1_555 1_555
C32_4 C30_4 1_555 1_555
H14_4 C32_4 1_555 1_555
C33_4 C31_4 1_555 1_555
C34_4 C32_4 1_555 1_555
H15_4 C34_4 1_555 1_555
C35_4 C33_4 1_555 1_555
C36_4 C35_4 1_555 1_555
C37_4 S3_4 1_555 1_555
C38_4 C36_4 1_555 1_555
H16_4 C38_4 1_555 1_555
C39_4 C37_4 1_555 1_555
H17_4 C39_4 1_555 1_555
C40_4 C38_4 1_555 1_555
H18_4 C40_4 1_555 1_555
C41_4 C39_4 1_555 1_555
C43_4 H19_4 1_555 1_555
H21_4 C43_4 1_555 1_555
C44_4 H22_4 1_555 1_555
C45_4 H23_4 1_555 1_555
H24_4 C45_4 1_555 1_555
H25_4 C45_4 1_555 1_555
C46_4 H26_4 1_555 1_555
C47_4 H27_4 1_555 1_555
H28_4 C47_4 1_555 1_555
H29_4 C47_4 1_555 1_555
C48_4 H30_4 1_555 1_555
H31_4 C48_4 1_555 1_555
H32_4 C48_4 1_555 1_555
N1_4 C46_4 1_555 1_555
N2_4 C43_4 1_555 1_555
O4_4 S1_4 1_555 1_555
O23_2 C14_4 1_555 1_555
O24_2 C14_4 1_555 1_555
O15_4 S3_4 1_555 1_555
O16_4 S3_4 1_555 1_555
C29_4 O13_4 1_555 1_555
C29_4 O14_4 1_555 1_555
C34_4 C35_4 1_555 1_555
C36_4 C37_4 1_555 1_555
C40_4 C41_4 1_555 1_555
C44_4 N2_4 1_555 1_555
C44_4 O19_4 1_555 1_555
C45_4 N2_4 1_555 1_555
C46_4 O20_4 1_555 1_555
C47_4 N1_4 1_555 1_555
C48_4 N1_4 1_555 1_555
Nd3_2 O2_4 1_555 1_555
Nd5_2 O1_4 1_555 1_555
S2_4 C20_4 1_555 1_555
C1_4 C2_4 1_555 1_555
C2_4 C3_4 1_555 1_555
C4_4 C2_4 1_555 1_555
H2_4 C4_4 1_555 1_555
C5_4 C3_4 1_555 1_555
C6_4 C4_4 1_555 1_555
H3_4 C6_4 1_555 1_555
C7_4 C5_4 1_555 1_555
C8_4 C7_4 1_555 1_555
C10_4 C8_4 1_555 1_555
H4_4 C10_4 1_555 1_555
C12_4 C10_4 1_555 1_555
H6_3 C12_4 1_555 1_555
C15_4 C16_4 1_555 1_555
C16_4 C17_4 1_555 1_555
C17_4 H7_4 1_555 1_555
C18_4 C16_4 1_555 1_555
H8_4 C18_4 1_555 1_555
C19_4 C17_4 1_555 1_555
H9_4 C19_4 1_555 1_555
C20_4 C18_4 1_555 1_555
C21_4 C19_4 1_555 1_555
C22_4 C21_4 1_555 1_555
C23_4 C22_4 1_555 1_555
H10_4 C23_4 1_555 1_555
C24_4 S2_4 1_555 1_555
C25_4 C23_4 1_555 1_555
H11_4 C25_4 1_555 1_555
C26_4 C24_4 1_555 1_555
H12_4 C26_4 1_555 1_555
C27_4 C25_4 1_555 1_555
C28_4 C27_4 1_555 1_555
C49_4 H33_4 1_555 1_555
C50_4 H34_4 1_555 1_555
H35_4 C50_4 1_555 1_555
H36_4 C50_4 1_555 1_555
C51_4 H37_4 1_555 1_555
H38_4 C51_4 1_555 1_555
H39_4 C51_4 1_555 1_555
C52_4 H40_4 1_555 1_555
C53_4 H41_4 1_555 1_555
H42_4 C53_4 1_555 1_555
H43_4 C53_4 1_555 1_555
N3_4 C49_4 1_555 1_555
N4_4 C52_4 1_555 1_555
O1_4 C1_4 1_555 1_555
O2_4 C1_4 1_555 1_555
O7_4 Nd5_2 1_555 1_555
O8_4 Nd3_2 1_555 1_555
O9_4 S2_4 1_555 1_555
O10_4 S2_4 1_555 1_555
O25_2 C28_4 1_555 1_555
O26_2 C28_4 1_555 1_555
O21_4 Nd3_2 1_555 1_555
O22_4 Nd3_2 1_555 1_555
C6_4 C7_4 1_555 1_555
C15_4 O7_4 1_555 1_555
C15_4 O8_4 1_555 1_555
C20_4 C21_4 1_555 1_555
C22_4 C24_4 1_555 1_555
C26_4 C27_4 1_555 1_555
C49_4 O22_4 1_555 1_555
C50_4 N3_4 1_555 1_555
C51_4 N3_4 1_555 1_555
C52_4 O21_4 1_555 1_555
C53_4 N4_4 1_555 1_555
C22_5 C21_5 1_555 1_555
C23_5 C22_5 1_555 1_555
H10_5 C23_5 1_555 1_555
C24_5 S2_5 1_555 1_555
C25_5 C23_5 1_555 1_555
H11_5 C25_5 1_555 1_555
C26_5 C24_5 1_555 1_555
H12_5 C26_5 1_555 1_555
C27_5 C25_5 1_555 1_555
C28_5 C27_5 1_555 1_555
O9_5 S2_5 1_555 1_555
O10_5 S2_5 1_555 1_555
O11_3 C28_5 1_555 1_555
O12_3 C28_5 1_555 1_555
Nd4_3 O12_3 1_555 1_555
Nd6_2 O11_3 1_555 1_555
C22_5 C24_5 1_555 1_555
C26_5 C27_5 1_555 1_555
Nd4_3 O2_5 1_555 1_555
Nd6_2 O1_5 1_555 1_555
S1_5 C5_5 1_555 1_555
S3_5 C33_5 1_555 1_555
C1_5 C2_5 1_555 1_555
C2_5 C3_5 1_555 1_555
C3_5 H1_5 1_555 1_555
C4_5 C2_5 1_555 1_555
H2_5 C4_5 1_555 1_555
C5_5 C3_5 1_555 1_555
C6_5 C4_5 1_555 1_555
H3_5 C6_5 1_555 1_555
C7_5 C5_5 1_555 1_555
C8_5 C7_5 1_555 1_555
C9_5 S1_5 1_555 1_555
C10_5 C8_5 1_555 1_555
H4_5 C10_5 1_555 1_555
C11_5 C9_5 1_555 1_555
H5_5 C11_5 1_555 1_555
C12_5 C10_5 1_555 1_555
H6_4 C12_5 1_555 1_555
C13_5 C11_5 1_555 1_555
C14_5 C13_5 1_555 1_555
C15_5 C16_5 1_555 1_555
C16_5 C17_5 1_555 1_555
C17_5 H7_5 1_555 1_555
C18_5 C16_5 1_555 1_555
H8_5 C18_5 1_555 1_555
C19_5 C17_5 1_555 1_555
H9_5 C19_5 1_555 1_555
C20_5 C18_5 1_555 1_555
C29_5 C30_5 1_555 1_555
C30_5 C31_5 1_555 1_555
C31_5 H13_5 1_555 1_555
C32_5 C30_5 1_555 1_555
H14_5 C32_5 1_555 1_555
C33_5 C31_5 1_555 1_555
C34_5 C32_5 1_555 1_555
H15_5 C34_5 1_555 1_555
C35_5 C33_5 1_555 1_555
C36_5 C35_5 1_555 1_555
C37_5 S3_5 1_555 1_555
C38_5 C36_5 1_555 1_555
H16_5 C38_5 1_555 1_555
C39_5 C37_5 1_555 1_555
H17_5 C39_5 1_555 1_555
C40_5 C38_5 1_555 1_555
H18_5 C40_5 1_555 1_555
C41_5 C39_5 1_555 1_555
C42_5 C41_5 1_555 1_555
C43_5 H19_5 1_555 1_555
H21_5 C43_5 1_555 1_555
C44_5 H22_5 1_555 1_555
C45_5 H23_5 1_555 1_555
H24_5 C45_5 1_555 1_555
H25_5 C45_5 1_555 1_555
C46_5 H26_5 1_555 1_555
C47_5 H27_5 1_555 1_555
H28_5 C47_5 1_555 1_555
H29_5 C47_5 1_555 1_555
C48_5 H30_5 1_555 1_555
H31_5 C48_5 1_555 1_555
H32_5 C48_5 1_555 1_555
C49_5 H33_5 1_555 1_555
C50_5 H34_5 1_555 1_555
H35_5 C50_5 1_555 1_555
H36_5 C50_5 1_555 1_555
C51_5 H37_5 1_555 1_555
H38_5 C51_5 1_555 1_555
H39_5 C51_5 1_555 1_555
C52_5 H40_5 1_555 1_555
C53_5 H41_5 1_555 1_555
H42_5 C53_5 1_555 1_555
H43_5 C53_5 1_555 1_555
N1_5 C46_5 1_555 1_555
N2_5 C43_5 1_555 1_555
N3_5 C49_5 1_555 1_555
N4_5 C52_5 1_555 1_555
O1_5 C1_5 1_555 1_555
O2_5 C1_5 1_555 1_555
O3_5 S1_5 1_555 1_555
O4_5 S1_5 1_555 1_555
O5_3 C14_5 1_555 1_555
O6_3 C14_5 1_555 1_555
O7_5 Nd6_2 1_555 1_555
O8_5 Nd4_3 1_555 1_555
O13_5 Nd4_3 1_555 1_555
O14_5 Nd4_3 1_555 1_555
O15_5 S3_5 1_555 1_555
O16_5 S3_5 1_555 1_555
O17_3 C42_5 1_555 1_555
O18_3 C42_5 1_555 1_555
O19_5 Nd6_2 1_555 1_555
O20_5 Nd6_2 1_555 1_555
O21_5 Nd4_3 1_555 1_555
O22_5 Nd4_3 1_555 1_555
Nd3_3 O6_3 1_555 1_555
Nd5_3 O5_3 1_555 1_555
Nd7_2 O17_3 1_555 1_555
O23_3 Nd6_2 1_555 1_555
O24_3 Nd4_3 1_555 1_555
O27_3 Nd6_2 1_555 1_555
O28_3 Nd6_2 1_555 1_555
C6_5 C7_5 1_555 1_555
C8_5 C9_5 1_555 1_555
C12_5 C13_5 1_555 1_555
C15_5 O7_5 1_555 1_555
C15_5 O8_5 1_555 1_555
C29_5 O13_5 1_555 1_555
C29_5 O14_5 1_555 1_555
C34_5 C35_5 1_555 1_555
C36_5 C37_5 1_555 1_555
C40_5 C41_5 1_555 1_555
C44_5 N2_5 1_555 1_555
C44_5 O19_5 1_555 1_555
C45_5 N2_5 1_555 1_555
C46_5 O20_5 1_555 1_555
C47_5 N1_5 1_555 1_555
C48_5 N1_5 1_555 1_555
C49_5 O22_5 1_555 1_555
C50_5 N3_5 1_555 1_555
C51_5 N3_5 1_555 1_555
C52_5 O21_5 1_555 1_555
C53_5 N4_5 1_555 1_555
O18_3 Nd7_2 1_555 1_555
Nd4_4 O2_6 1_555 1_555
Nd7_2 O1_6 1_555 1_555
S2_6 C20_6 1_555 1_555
C1_6 C2_6 1_555 1_555
C2_6 C3_6 1_555 1_555
C4_6 C2_6 1_555 1_555
H2_6 C4_6 1_555 1_555
C5_6 C3_6 1_555 1_555
C6_6 C4_6 1_555 1_555
H3_6 C6_6 1_555 1_555
C7_6 C5_6 1_555 1_555
C8_6 C7_6 1_555 1_555
C10_6 C8_6 1_555 1_555
H4_6 C10_6 1_555 1_555
C12_6 C10_6 1_555 1_555
H6_5 C12_6 1_555 1_555
C15_6 C16_6 1_555 1_555
C16_6 C17_6 1_555 1_555
C17_6 H7_6 1_555 1_555
C18_6 C16_6 1_555 1_555
H8_6 C18_6 1_555 1_555
C19_6 C17_6 1_555 1_555
H9_6 C19_6 1_555 1_555
C20_6 C18_6 1_555 1_555
C21_6 C19_6 1_555 1_555
C22_6 C21_6 1_555 1_555
C23_6 C22_6 1_555 1_555
H10_6 C23_6 1_555 1_555
C24_6 S2_6 1_555 1_555
C25_6 C23_6 1_555 1_555
H11_6 C25_6 1_555 1_555
C26_6 C24_6 1_555 1_555
H12_6 C26_6 1_555 1_555
C27_6 C25_6 1_555 1_555
C28_6 C27_6 1_555 1_555
C49_6 H33_6 1_555 1_555
C50_6 H34_6 1_555 1_555
H35_6 C50_6 1_555 1_555
H36_6 C50_6 1_555 1_555
C51_6 H37_6 1_555 1_555
H38_6 C51_6 1_555 1_555
H39_6 C51_6 1_555 1_555
C52_6 H40_6 1_555 1_555
C53_6 H41_6 1_555 1_555
H42_6 C53_6 1_555 1_555
H43_6 C53_6 1_555 1_555
N3_6 C49_6 1_555 1_555
N4_6 C52_6 1_555 1_555
O1_6 C1_6 1_555 1_555
O2_6 C1_6 1_555 1_555
O7_6 Nd7_2 1_555 1_555
O8_6 Nd4_4 1_555 1_555
O9_6 S2_6 1_555 1_555
O10_6 S2_6 1_555 1_555
O11_4 C28_6 1_555 1_555
O12_4 C28_6 1_555 1_555
O21_6 Nd4_4 1_555 1_555
O22_6 Nd4_4 1_555 1_555
O23_4 Nd7_2 1_555 1_555
O24_4 Nd4_4 1_555 1_555
C6_6 C7_6 1_555 1_555
C15_6 O7_6 1_555 1_555
C15_6 O8_6 1_555 1_555
C20_6 C21_6 1_555 1_555
C22_6 C24_6 1_555 1_555
C26_6 C27_6 1_555 1_555
C49_6 O22_6 1_555 1_555
C50_6 N3_6 1_555 1_555
C51_6 N3_6 1_555 1_555
C52_6 O21_6 1_555 1_555
C53_6 N4_6 1_555 1_555
S3_6 C33_6 1_555 1_555
C9_6 S1_6 1_555 1_555
C11_6 C9_6 1_555 1_555
H5_6 C11_6 1_555 1_555
C13_6 C11_6 1_555 1_555
C14_6 C13_6 1_555 1_555
C29_6 C30_6 1_555 1_555
C30_6 C31_6 1_555 1_555
C31_6 H13_6 1_555 1_555
C32_6 C30_6 1_555 1_555
H14_6 C32_6 1_555 1_555
C33_6 C31_6 1_555 1_555
C34_6 C32_6 1_555 1_555
H15_6 C34_6 1_555 1_555
C35_6 C33_6 1_555 1_555
C36_6 C35_6 1_555 1_555
C37_6 S3_6 1_555 1_555
C38_6 C36_6 1_555 1_555
H16_6 C38_6 1_555 1_555
C39_6 C37_6 1_555 1_555
H17_6 C39_6 1_555 1_555
C40_6 C38_6 1_555 1_555
H18_6 C40_6 1_555 1_555
C41_6 C39_6 1_555 1_555
C43_6 H19_6 1_555 1_555
H21_6 C43_6 1_555 1_555
C44_6 H22_6 1_555 1_555
C45_6 H23_6 1_555 1_555
H24_6 C45_6 1_555 1_555
H25_6 C45_6 1_555 1_555
C46_6 H26_6 1_555 1_555
C47_6 H27_6 1_555 1_555
H28_6 C47_6 1_555 1_555
H29_6 C47_6 1_555 1_555
C48_6 H30_6 1_555 1_555
H31_6 C48_6 1_555 1_555
H32_6 C48_6 1_555 1_555
N1_6 C46_6 1_555 1_555
N2_6 C43_6 1_555 1_555
O4_6 S1_6 1_555 1_555
O5_4 C14_6 1_555 1_555
O6_4 C14_6 1_555 1_555
O15_6 S3_6 1_555 1_555
O16_6 S3_6 1_555 1_555
Nd3_4 O6_4 1_555 1_555
Nd5_4 O5_4 1_555 1_555
C29_6 O13_6 1_555 1_555
C29_6 O14_6 1_555 1_555
C34_6 C35_6 1_555 1_555
C36_6 C37_6 1_555 1_555
C40_6 C41_6 1_555 1_555
C44_6 N2_6 1_555 1_555
C44_6 O19_6 1_555 1_555
C45_6 N2_6 1_555 1_555
C46_6 O20_6 1_555 1_555
C47_6 N1_6 1_555 1_555
C48_6 N1_6 1_555 1_555
O27_3 C42_6 1_555 1_555
O28_3 C42_6 1_555 1_555
C14_7 C13_7 1_555 1_555
O23_3 C14_7 1_555 1_555
O24_3 C14_7 1_555 1_555
Nd3_3 O2_7 1_555 1_555
Nd5_3 O1_7 1_555 1_555
S1_7 C5_7 1_555 1_555
S3_7 C33_7 1_555 1_555
C1_7 C2_7 1_555 1_555
C2_7 C3_7 1_555 1_555
C3_7 H1_7 1_555 1_555
C4_7 C2_7 1_555 1_555
H2_7 C4_7 1_555 1_555
C5_7 C3_7 1_555 1_555
C6_7 C4_7 1_555 1_555
H3_7 C6_7 1_555 1_555
C7_7 C5_7 1_555 1_555
C8_7 C7_7 1_555 1_555
C9_7 S1_7 1_555 1_555
C10_7 C8_7 1_555 1_555
H4_7 C10_7 1_555 1_555
C11_7 C9_7 1_555 1_555
C12_7 C10_7 1_555 1_555
C15_7 C16_7 1_555 1_555
C16_7 C17_7 1_555 1_555
C17_7 H7_7 1_555 1_555
C18_7 C16_7 1_555 1_555
H8_7 C18_7 1_555 1_555
C19_7 C17_7 1_555 1_555
H9_7 C19_7 1_555 1_555
C20_7 C18_7 1_555 1_555
C29_7 C30_7 1_555 1_555
C30_7 C31_7 1_555 1_555
C31_7 H13_7 1_555 1_555
C32_7 C30_7 1_555 1_555
H14_7 C32_7 1_555 1_555
C33_7 C31_7 1_555 1_555
C34_7 C32_7 1_555 1_555
H15_7 C34_7 1_555 1_555
C35_7 C33_7 1_555 1_555
C36_7 C35_7 1_555 1_555
C37_7 S3_7 1_555 1_555
C38_7 C36_7 1_555 1_555
H16_7 C38_7 1_555 1_555
C39_7 C37_7 1_555 1_555
H17_7 C39_7 1_555 1_555
C40_7 C38_7 1_555 1_555
H18_7 C40_7 1_555 1_555
C41_7 C39_7 1_555 1_555
C42_7 C41_7 1_555 1_555
C43_7 H19_7 1_555 1_555
H20_3 C43_7 1_555 1_555
H21_7 C43_7 1_555 1_555
C44_7 H22_7 1_555 1_555
C45_7 H23_7 1_555 1_555
H24_7 C45_7 1_555 1_555
H25_7 C45_7 1_555 1_555
C46_7 H26_7 1_555 1_555
C47_7 H27_7 1_555 1_555
H28_7 C47_7 1_555 1_555
H29_7 C47_7 1_555 1_555
C48_7 H30_7 1_555 1_555
H31_7 C48_7 1_555 1_555
H32_7 C48_7 1_555 1_555
C49_7 H33_7 1_555 1_555
C50_7 H34_7 1_555 1_555
H35_7 C50_7 1_555 1_555
H36_7 C50_7 1_555 1_555
C51_7 H37_7 1_555 1_555
H38_7 C51_7 1_555 1_555
H39_7 C51_7 1_555 1_555
C52_7 H40_7 1_555 1_555
C53_7 H41_7 1_555 1_555
H42_7 C53_7 1_555 1_555
H43_7 C53_7 1_555 1_555
C54_3 H44_3 1_555 1_555
H45_3 C54_3 1_555 1_555
H46_3 C54_3 1_555 1_555
N1_7 C46_7 1_555 1_555
N2_7 C43_7 1_555 1_555
N3_7 C49_7 1_555 1_555
N4_7 C52_7 1_555 1_555
O1_7 C1_7 1_555 1_555
O2_7 C1_7 1_555 1_555
O3_7 S1_7 1_555 1_555
O4_7 S1_7 1_555 1_555
O7_7 Nd5_3 1_555 1_555
O8_7 Nd3_3 1_555 1_555
O13_7 Nd3_3 1_555 1_555
O14_7 Nd3_3 1_555 1_555
O15_7 S3_7 1_555 1_555
O16_7 S3_7 1_555 1_555
O17_4 C42_7 1_555 1_555
O18_4 C42_7 1_555 1_555
O19_7 Nd5_3 1_555 1_555
O20_7 Nd5_3 1_555 1_555
O21_7 Nd3_3 1_555 1_555
O22_7 Nd3_3 1_555 1_555
Nd5_4 O17_4 1_555 1_555
O25_3 Nd5_3 1_555 1_555
O26_3 Nd3_3 1_555 1_555
O27_4 Nd5_3 1_555 1_555
O28_4 Nd5_3 1_555 1_555
C6_7 C7_7 1_555 1_555
C8_7 C9_7 1_555 1_555
C15_7 O7_7 1_555 1_555
C15_7 O8_7 1_555 1_555
C29_7 O13_7 1_555 1_555
C29_7 O14_7 1_555 1_555
C34_7 C35_7 1_555 1_555
C36_7 C37_7 1_555 1_555
C40_7 C41_7 1_555 1_555
C44_7 N2_7 1_555 1_555
C44_7 O19_7 1_555 1_555
C45_7 N2_7 1_555 1_555
C46_7 O20_7 1_555 1_555
C47_7 N1_7 1_555 1_555
C48_7 N1_7 1_555 1_555
C49_7 O22_7 1_555 1_555
C50_7 N3_7 1_555 1_555
C51_7 N3_7 1_555 1_555
C52_7 O21_7 1_555 1_555
C53_7 N4_7 1_555 1_555
C54_3 N4_7 1_555 1_555
O18_4 Nd5_4 1_555 1_555
C22_7 C21_7 1_555 1_555
C23_7 C22_7 1_555 1_555
H10_7 C23_7 1_555 1_555
C24_7 S2_7 1_555 1_555
C25_7 C23_7 1_555 1_555
H11_7 C25_7 1_555 1_555
C26_7 C24_7 1_555 1_555
H12_7 C26_7 1_555 1_555
C27_7 C25_7 1_555 1_555
C28_7 C27_7 1_555 1_555
O9_7 S2_7 1_555 1_555
O10_7 S2_7 1_555 1_555
O25_3 C28_7 1_555 1_555
O26_3 C28_7 1_555 1_555
C22_7 C24_7 1_555 1_555
C26_7 C27_7 1_555 1_555
C14_8 C13_8 1_555 1_555
O23_4 C14_8 1_555 1_555
O24_4 C14_8 1_555 1_555
S3_8 C33_8 1_555 1_555
C9_8 S1_8 1_555 1_555
C11_8 C9_8 1_555 1_555
C29_8 C30_8 1_555 1_555
C30_8 C31_8 1_555 1_555
C31_8 H13_8 1_555 1_555
C32_8 C30_8 1_555 1_555
H14_8 C32_8 1_555 1_555
C33_8 C31_8 1_555 1_555
C34_8 C32_8 1_555 1_555
H15_8 C34_8 1_555 1_555
C35_8 C33_8 1_555 1_555
C36_8 C35_8 1_555 1_555
C37_8 S3_8 1_555 1_555
C38_8 C36_8 1_555 1_555
H16_8 C38_8 1_555 1_555
C39_8 C37_8 1_555 1_555
H17_8 C39_8 1_555 1_555
C40_8 C38_8 1_555 1_555
H18_8 C40_8 1_555 1_555
C41_8 C39_8 1_555 1_555
C43_8 H19_8 1_555 1_555
H20_4 C43_8 1_555 1_555
H21_8 C43_8 1_555 1_555
C44_8 H22_8 1_555 1_555
C45_8 H23_8 1_555 1_555
H24_8 C45_8 1_555 1_555
H25_8 C45_8 1_555 1_555
C46_8 H26_8 1_555 1_555
C47_8 H27_8 1_555 1_555
H28_8 C47_8 1_555 1_555
H29_8 C47_8 1_555 1_555
C48_8 H30_8 1_555 1_555
H31_8 C48_8 1_555 1_555
H32_8 C48_8 1_555 1_555
N1_8 C46_8 1_555 1_555
N2_8 C43_8 1_555 1_555
O4_8 S1_8 1_555 1_555
O15_8 S3_8 1_555 1_555
O16_8 S3_8 1_555 1_555
C29_8 O13_8 1_555 1_555
C29_8 O14_8 1_555 1_555
C34_8 C35_8 1_555 1_555
C36_8 C37_8 1_555 1_555
C40_8 C41_8 1_555 1_555
C44_8 N2_8 1_555 1_555
C44_8 O19_8 1_555 1_555
C45_8 N2_8 1_555 1_555
C46_8 O20_8 1_555 1_555
C47_8 N1_8 1_555 1_555
C48_8 N1_8 1_555 1_555
Nd3_4 O2_8 1_555 1_555
Nd5_4 O1_8 1_555 1_555
S2_8 C20_8 1_555 1_555
C1_8 C2_8 1_555 1_555
C2_8 C3_8 1_555 1_555
C4_8 C2_8 1_555 1_555
H2_8 C4_8 1_555 1_555
C5_8 C3_8 1_555 1_555
C6_8 C4_8 1_555 1_555
H3_8 C6_8 1_555 1_555
C7_8 C5_8 1_555 1_555
C8_8 C7_8 1_555 1_555
C10_8 C8_8 1_555 1_555
H4_8 C10_8 1_555 1_555
C12_8 C10_8 1_555 1_555
C15_8 C16_8 1_555 1_555
C16_8 C17_8 1_555 1_555
C17_8 H7_8 1_555 1_555
C18_8 C16_8 1_555 1_555
H8_8 C18_8 1_555 1_555
C19_8 C17_8 1_555 1_555
H9_8 C19_8 1_555 1_555
C20_8 C18_8 1_555 1_555
C21_8 C19_8 1_555 1_555
C22_8 C21_8 1_555 1_555
C23_8 C22_8 1_555 1_555
H10_8 C23_8 1_555 1_555
C24_8 S2_8 1_555 1_555
C25_8 C23_8 1_555 1_555
H11_8 C25_8 1_555 1_555
C26_8 C24_8 1_555 1_555
H12_8 C26_8 1_555 1_555
C27_8 C25_8 1_555 1_555
C28_8 C27_8 1_555 1_555
C49_8 H33_8 1_555 1_555
C50_8 H34_8 1_555 1_555
H35_8 C50_8 1_555 1_555
H36_8 C50_8 1_555 1_555
C51_8 H37_8 1_555 1_555
H38_8 C51_8 1_555 1_555
H39_8 C51_8 1_555 1_555
C52_8 H40_8 1_555 1_555
C53_8 H41_8 1_555 1_555
H42_8 C53_8 1_555 1_555
H43_8 C53_8 1_555 1_555
C54_4 H44_4 1_555 1_555
H45_4 C54_4 1_555 1_555
H46_4 C54_4 1_555 1_555
N3_8 C49_8 1_555 1_555
N4_8 C52_8 1_555 1_555
O1_8 C1_8 1_555 1_555
O2_8 C1_8 1_555 1_555
O7_8 Nd5_4 1_555 1_555
O8_8 Nd3_4 1_555 1_555
O9_8 S2_8 1_555 1_555
O10_8 S2_8 1_555 1_555
O25_4 C28_8 1_555 1_555
O26_4 C28_8 1_555 1_555
O21_8 Nd3_4 1_555 1_555
O22_8 Nd3_4 1_555 1_555
C6_8 C7_8 1_555 1_555
C15_8 O7_8 1_555 1_555
C15_8 O8_8 1_555 1_555
C20_8 C21_8 1_555 1_555
C22_8 C24_8 1_555 1_555
C26_8 C27_8 1_555 1_555
C49_8 O22_8 1_555 1_555
C50_8 N3_8 1_555 1_555
C51_8 N3_8 1_555 1_555
C52_8 O21_8 1_555 1_555
C53_8 N4_8 1_555 1_555
C54_4 N4_8 1_555 1_555
O27_4 C42_8 1_555 1_555
O28_4 C42_8 1_555 1_555
C54_5 H44_5 1_555 1_555
H45_5 C54_5 1_555 1_555
H46_5 C54_5 1_555 1_555
C54_6 H44_6 1_555 1_555
H45_6 C54_6 1_555 1_555
H46_6 C54_6 1_555 1_555
C54_7 H44_7 1_555 1_555
H45_7 C54_7 1_555 1_555
H46_7 C54_7 1_555 1_555
C54_8 H44_8 1_555 1_555
H45_8 C54_8 1_555 1_555
H46_8 C54_8 1_555 1_555

#END
