
###############################################################################
#
# This file contains modified crystal structure data generated from the
# MOF subset of the Cambridge Structural Database (CSD) v543 
# hosted by the Cambridge Crystallographic Data Centre (CCDC).
#
# This work is licensed under the Creative Commons
# Attribution-NonCommercial-ShareAlike 4.0 International License.
# To view a copy of this license, visit
# http://creativecommons.org/licenses/by-nc-sa/4.0/
# or send a letter to
# Creative Commons, PO Box 1866, Mountain View, CA 94042, USA.
#
# CIF created using the CSD Python API on 29 September 2022
# The structure has been converted into the P1 space group
# The structure has a 3D framework
# The original CSD entry PUFQOY is in the monoclinic crystal system
# The framework has been calculated to contain at least 10.0% void space
# The void calculation uses a probe of radius 1.32A, grid spacing 0.4
# The framework is charged, counterions have been retained in the structure
#
###############################################################################

data_PUFQOY
_chemical_formula_moiety         '(C160 H108 N12 O68 Zn16)n'
_symmetry_cell_setting           triclinic
_symmetry_space_group_name_H-M   'P 1'
_symmetry_Int_Tables_number      1
_space_group_name_Hall           'P 1'
loop_
_symmetry_equiv_pos_site_id
_symmetry_equiv_pos_as_xyz
1 x,y,z
_cell_length_a                   10.298(3)
_cell_length_b                   31.469(8)
_cell_length_c                   32.722(8)
_cell_angle_alpha                90
_cell_angle_beta                 106.720(8)
_cell_angle_gamma                90
_cell_volume                     10155.8
loop_
_atom_site_label
_atom_site_type_symbol
_atom_site_fract_x
_atom_site_fract_y
_atom_site_fract_z
C1 C 0.0050(2) 0.60473(7) 0.28536(7)
C18 C 0.0042(2) 0.21855(7) 0.08888(7)
C20 C 0.0594(2) 0.23205(7) 0.02333(7)
C21 C 0.1966(2) 0.22782(7) 0.04471(7)
H9 H 0.2610 0.2308 0.0300
C22 C 0.2368(2) 0.21923(7) 0.08801(7)
C23 C 0.1414(2) 0.21444(7) 0.11000(7)
H10 H 0.1692 0.2084 0.1391
C24 C 0.3804(2) 0.20713(7) 0.11115(7)
O2 O 0.00598(15) 0.64285(5) 0.29155(5)
O3 O 0.11115(15) 0.58202(5) 0.29096(5)
O11 O 0.41126(16) 0.20009(5) 0.14881(5)
O12 O 0.46459(16) 0.20659(5) 0.08951(5)
Zn10 Zn 0.13237(3) 0.694270(8) 0.301568(8)
Zn14 Zn 0.29151(3) 0.606261(8) 0.317159(8)
Zn17 Zn 0.57754(3) 0.190964(8) 0.201298(8)
Zn23 Zn 0.64179(3) 0.178848(9) 0.111568(8)
C2 C 0.8737(2) 0.58141(7) 0.27724(7)
C3 C 0.7619(2) 0.60414(7) 0.27819(7)
H1 H 0.7667 0.6336 0.2810
C4 C 0.6390(2) 0.58278(7) 0.27490(7)
C5 C 0.6281(2) 0.54005(7) 0.26669(7)
H2 H 0.5460 0.5262 0.2634
C6 C 0.7420(2) 0.51735(7) 0.26324(7)
C7 C 0.8657(2) 0.53846(7) 0.26890(7)
H3 H 0.9418 0.5236 0.2670
C8 C 0.5292(2) 0.60624(7) 0.28259(7)
C9 C 0.6331(2) 0.44967(7) 0.24674(7)
C10 C 0.6576(2) 0.40425(7) 0.23574(7)
C11 C 0.5476(2) 0.37732(7) 0.23680(7)
H4 H 0.4730 0.3878 0.2442
C12 C 0.5556(2) 0.33481(7) 0.22646(7)
H5 H 0.4851 0.3164 0.2264
C13 C 0.6703(2) 0.31976(7) 0.21609(7)
C14 C 0.7758(2) 0.34457(7) 0.21409(7)
H6 H 0.8505 0.3341 0.2067
C15 C 0.7629(3) 0.38633(8) 0.22397(8)
H7 H 0.8329 0.4044 0.2226
C16 C 0.6789(2) 0.27574(7) 0.20565(6)
C17 C 0.9023(2) 0.21085(7) 0.11297(7)
C19 C 0.9630(2) 0.22696(7) 0.04503(7)
H8 H 0.8712 0.2291 0.0305
C33 C 0.6148(2) 0.08730(7) 0.09113(7)
C34 C 0.5715(2) 0.05474(7) 0.05594(8)
C35 C 0.4970(2) 0.07648(7) 0.01910(7)
H15 H 0.4864 0.1058 0.0195
C38 C 0.5898(2) 0.01124(7) 0.05499(7)
N1 N 0.72850(19) 0.47525(6) 0.25290(6)
H18 H 0.8016 0.4641 0.2500
O1 O 0.69548(16) 0.16684(5) 0.17038(5)
O4 O 0.53171(15) 0.64519(5) 0.28067(5)
O5 O 0.43368(15) 0.58563(5) 0.28892(5)
O6 O 0.58854(16) 0.25415(5) 0.21596(5)
O7 O 0.76694(15) 0.26577(5) 0.18860(5)
O8 O 0.51739(14) 0.45653(5) 0.24872(5)
O9 O 0.94519(16) 0.21172(5) 0.15174(5)
O10 O 0.78376(16) 0.20549(5) 0.09122(5)
O16 O 0.64804(16) 0.07559(5) 0.12889(5)
O17 O 0.60426(15) 0.12673(5) 0.07873(5)
Zn1 Zn 0.86763(3) 0.194270(8) 0.198432(8)
Zn2 Zn 0.70849(3) 0.106261(8) 0.182841(8)
O35 O 0.99402(15) 0.14285(5) 0.20845(5)
O37 O 0.88885(15) 0.08202(5) 0.20904(5)
O39 O 0.46829(15) 0.14519(5) 0.21933(5)
O41 O 0.56632(15) 0.08563(5) 0.21108(5)
O48 O 0.92371(15) 0.21155(5) 0.25664(5)
O50 O 0.72238(16) 0.18432(5) 0.26587(5)
Zn19 Zn 0.42246(3) 0.690964(8) 0.298702(8)
C25 C 0.9170(2) 0.26868(7) 0.95565(7)
C26 C 0.9030(2) 0.27724(7) 0.90942(7)
C27 C 0.7791(2) 0.29192(7) 0.88372(7)
H11 H 0.7092 0.2976 0.8957
C28 C 0.7589(2) 0.29823(8) 0.84035(7)
H12 H 0.6762 0.3086 0.8235
C29 C 0.8621(2) 0.28911(7) 0.82200(7)
C30 C 0.9866(2) 0.27402(7) 0.84713(7)
C32 C 0.8302(2) 0.29910(7) 0.78198(7)
C36 C 0.4389(2) 0.05318(7) 0.98180(7)
H16 H 0.3882 0.0671 0.9573
C37 C 0.4566(2) 0.00975(7) 0.98121(7)
O13 O 0.92371(15) 0.28845(5) 0.75664(5)
O14 O 0.72238(16) 0.31568(5) 0.76587(5)
O15 O 0.83675(16) 0.28503(5) 0.96874(5)
H22 H 0.3653 0.0032 0.9202
Zn12 Zn 0.86763(3) 0.305730(8) 0.698432(8)
Zn22 Zn 0.57754(3) 0.309036(8) 0.701298(8)
H17 H 0.6347 0.9968 0.0798
C42 C 0.5611(2) 0.94682(7) 0.01820(7)
H21 H 0.6118 0.9329 0.0427
C43 C 0.5434(2) 0.99025(7) 0.01879(7)
C69 C 0.0830(2) 0.73132(7) 0.04435(7)
C70 C 0.0970(2) 0.72276(7) 0.09058(7)
C71 C 0.2209(2) 0.70808(7) 0.11628(7)
H33 H 0.2908 0.7024 0.1043
C72 C 0.2411(2) 0.70177(8) 0.15965(7)
H34 H 0.3238 0.6914 0.1765
C73 C 0.1379(2) 0.71089(7) 0.17800(7)
C74 C 0.0134(2) 0.72598(7) 0.15287(7)
C76 C 0.1698(2) 0.70090(7) 0.21802(7)
O32 O 0.07629(15) 0.71155(5) 0.24336(5)
O33 O 0.27762(16) 0.68432(5) 0.23413(5)
O34 O 0.16325(16) 0.71497(5) 0.03126(5)
C39 C 0.3852(2) 0.91270(7) 0.90887(7)
C40 C 0.4285(2) 0.94526(7) 0.94406(8)
C41 C 0.5030(2) 0.92352(7) 0.98090(7)
H20 H 0.5136 0.8942 0.9805
C44 C 0.4102(2) 0.98876(7) 0.94501(7)
O18 O 0.35196(16) 0.92441(5) 0.87111(5)
O19 O 0.39574(15) 0.87327(5) 0.92127(5)
C46 C 0.1263(2) 0.41859(7) 0.72276(7)
C47 C 0.2381(2) 0.39586(7) 0.72181(7)
H23 H 0.2333 0.3664 0.7190
C48 C 0.3610(2) 0.41722(7) 0.72510(7)
C49 C 0.3719(2) 0.45995(7) 0.73331(7)
H24 H 0.4540 0.4738 0.7366
C50 C 0.2580(2) 0.48265(7) 0.73676(7)
C51 C 0.1343(2) 0.46154(7) 0.73110(7)
H25 H 0.0582 0.4764 0.7330
C52 C 0.4708(2) 0.39376(7) 0.71741(7)
C53 C 0.3669(2) 0.55033(7) 0.75326(7)
C54 C 0.3424(2) 0.59575(7) 0.76426(7)
C55 C 0.4524(2) 0.62268(7) 0.76320(7)
H26 H 0.5270 0.6122 0.7558
C56 C 0.4444(2) 0.66519(7) 0.77354(7)
H27 H 0.5149 0.6836 0.7736
C57 C 0.3297(2) 0.68024(7) 0.78391(7)
C58 C 0.2242(2) 0.65543(7) 0.78591(7)
H28 H 0.1495 0.6659 0.7933
C59 C 0.2371(3) 0.61367(8) 0.77603(8)
H29 H 0.1671 0.5956 0.7774
C60 C 0.3211(2) 0.72426(7) 0.79435(6)
C61 C 0.0977(2) 0.78915(7) 0.88703(7)
C63 C 0.0370(2) 0.77304(7) 0.95497(7)
H30 H 0.1288 0.7709 0.9695
N3 N 0.27150(19) 0.52475(6) 0.74710(6)
H37 H 0.1984 0.5359 0.7500
O20 O 0.30452(16) 0.83316(5) 0.82962(5)
O23 O 0.46829(15) 0.35481(5) 0.71933(5)
O24 O 0.56632(15) 0.41437(5) 0.71108(5)
O25 O 0.41146(16) 0.74585(5) 0.78404(5)
O26 O 0.23306(15) 0.73423(5) 0.81140(5)
O27 O 0.48261(14) 0.54347(5) 0.75128(5)
O28 O 0.05481(16) 0.78828(5) 0.84826(5)
O29 O 0.21624(16) 0.79451(5) 0.90878(5)
Zn5 Zn 0.13237(3) 0.805730(8) 0.801568(8)
Zn6 Zn 0.29151(3) 0.893739(8) 0.817159(8)
Zn7 Zn 0.42246(3) 0.809036(8) 0.798702(8)
Zn8 Zn 0.35821(3) 0.821152(9) 0.888432(8)
O36 O 0.00598(15) 0.85715(5) 0.79155(5)
O38 O 0.11115(15) 0.91798(5) 0.79096(5)
O40 O 0.53171(15) 0.85481(5) 0.78067(5)
O42 O 0.43368(15) 0.91437(5) 0.78892(5)
O44 O 0.58874(16) 0.79991(5) 0.85119(5)
O46 O 0.53541(16) 0.79341(5) 0.91049(5)
O47 O 0.07629(15) 0.78845(5) 0.74336(5)
O49 O 0.27762(16) 0.81568(5) 0.73413(5)
Zn16 Zn 0.70849(3) 0.393739(8) 0.682841(8)
C45 C 0.9950(2) 0.39527(7) 0.71464(7)
C62 C 0.9958(2) 0.78145(7) 0.91112(7)
C64 C 0.9406(2) 0.76795(7) 0.97667(7)
C65 C 0.8034(2) 0.77218(7) 0.95529(7)
H31 H 0.7390 0.7692 0.9700
C66 C 0.7632(2) 0.78077(7) 0.91199(7)
C67 C 0.8586(2) 0.78556(7) 0.89000(7)
H32 H 0.8308 0.7916 0.8609
C68 C 0.6196(2) 0.79287(7) 0.88885(7)
O21 O 0.99402(15) 0.35715(5) 0.70845(5)
O22 O 0.88885(15) 0.41798(5) 0.70904(5)
C62_2 C 0.0042(2) 0.28145(7) 0.58888(7)
C64_2 C 0.0594(2) 0.26795(7) 0.52333(7)
C65_2 C 0.1966(2) 0.27218(7) 0.54471(7)
H31_2 H 0.2610 0.2692 0.5300
C66_2 C 0.2368(2) 0.28077(7) 0.58801(7)
C67_2 C 0.1414(2) 0.28556(7) 0.61000(7)
H32_2 H 0.1692 0.2916 0.6391
C68_2 C 0.3804(2) 0.29287(7) 0.61115(7)
H35 H 0.0557 0.2320 0.3349
C75 C 0.0068(2) 0.23196(7) 0.39086(7)
H36 H 0.0897 0.2421 0.4078
H38 H 0.0702 0.2672 0.4667
N4 N 0.01959(18) 0.25634(6) 0.48086(6)
O30 O 0.41126(16) 0.29991(5) 0.64881(5)
O31 O 0.46459(16) 0.29341(5) 0.58951(5)
Zn24 Zn 0.64179(3) 0.321152(9) 0.611568(8)
C45_2 C 0.0050(2) 0.89527(7) 0.78536(7)
C2_2 C 0.1263(2) 0.08141(7) 0.22276(7)
C3_2 C 0.2381(2) 0.10414(7) 0.22181(7)
H1_2 H 0.2333 0.1336 0.2190
C4_2 C 0.3610(2) 0.08278(7) 0.22510(7)
C5_2 C 0.3719(2) 0.04005(7) 0.23331(7)
H2_2 H 0.4540 0.0262 0.2366
C6_2 C 0.2580(2) 0.01735(7) 0.23676(7)
C7_2 C 0.1343(2) 0.03846(7) 0.23110(7)
H3_2 H 0.0582 0.0236 0.2330
C8_2 C 0.4708(2) 0.10624(7) 0.21741(7)
C9_2 C 0.3669(2) 0.94967(7) 0.25326(7)
C10_2 C 0.3424(2) 0.90425(7) 0.26426(7)
C11_2 C 0.4524(2) 0.87732(7) 0.26320(7)
H4_2 H 0.5270 0.8878 0.2558
C12_2 C 0.4444(2) 0.83481(7) 0.27354(7)
H5_2 H 0.5149 0.8164 0.2736
C13_2 C 0.3297(2) 0.81976(7) 0.28391(7)
C14_2 C 0.2242(2) 0.84457(7) 0.28591(7)
H6_2 H 0.1495 0.8341 0.2933
C15_2 C 0.2371(3) 0.88633(8) 0.27603(8)
H7_2 H 0.1671 0.9044 0.2774
C16_2 C 0.3211(2) 0.77574(7) 0.29435(6)
C17_2 C 0.0977(2) 0.71085(7) 0.38703(7)
C19_2 C 0.0370(2) 0.72696(7) 0.45497(7)
H8_2 H 0.1288 0.7291 0.4695
C25_2 C 0.0830(2) 0.76868(7) 0.54435(7)
C26_2 C 0.0970(2) 0.77724(7) 0.59058(7)
C27_2 C 0.2209(2) 0.79192(7) 0.61628(7)
H11_2 H 0.2908 0.7976 0.6043
C28_2 C 0.2411(2) 0.79823(8) 0.65965(7)
H12_2 H 0.3238 0.8086 0.6765
C29_2 C 0.1379(2) 0.78911(7) 0.67800(7)
C30_2 C 0.0134(2) 0.77402(7) 0.65287(7)
C32_2 C 0.1698(2) 0.79910(7) 0.71802(7)
C33_2 C 0.3852(2) 0.58730(7) 0.40887(7)
C34_2 C 0.4285(2) 0.55474(7) 0.44406(8)
C35_2 C 0.5030(2) 0.57648(7) 0.48090(7)
H15_2 H 0.5136 0.6058 0.4805
C36_2 C 0.5611(2) 0.55318(7) 0.51820(7)
H16_2 H 0.6118 0.5671 0.5427
C37_2 C 0.5434(2) 0.50975(7) 0.51879(7)
C38_2 C 0.4102(2) 0.51124(7) 0.44501(7)
H17_2 H 0.3653 0.4968 0.4202
N1_2 N 0.27150(19) 0.97525(6) 0.24710(6)
H18_2 H 0.1984 0.9641 0.2500
O1_2 O 0.30452(16) 0.66684(5) 0.32962(5)
O6_2 O 0.41146(16) 0.75415(5) 0.28404(5)
O7_2 O 0.23306(15) 0.76577(5) 0.31140(5)
O8_2 O 0.48261(14) 0.95653(5) 0.25128(5)
O9_2 O 0.05481(16) 0.71172(5) 0.34826(5)
O10_2 O 0.21624(16) 0.70549(5) 0.40878(5)
O15_2 O 0.16325(16) 0.78503(5) 0.53126(5)
O16_2 O 0.35196(16) 0.57559(5) 0.37111(5)
O17_2 O 0.39574(15) 0.62673(5) 0.42127(5)
Zn4 Zn 0.35821(3) 0.678848(9) 0.388432(8)
C39_2 C 0.6148(2) 0.41270(7) 0.59113(7)
C40_2 C 0.5715(2) 0.44526(7) 0.55594(8)
C41_2 C 0.4970(2) 0.42352(7) 0.51910(7)
H20_2 H 0.4864 0.3942 0.5195
C42_2 C 0.4389(2) 0.44682(7) 0.48180(7)
H21_2 H 0.3882 0.4329 0.4573
C43_2 C 0.4566(2) 0.49025(7) 0.48121(7)
C44_2 C 0.5898(2) 0.48876(7) 0.55499(7)
H22_2 H 0.6347 0.5032 0.5798
O18_2 O 0.64804(16) 0.42441(5) 0.62889(5)
O19_2 O 0.60426(15) 0.37327(5) 0.57873(5)
C53_2 C 0.6331(2) 0.05033(7) 0.74674(7)
C54_2 C 0.6576(2) 0.09575(7) 0.73574(7)
C55_2 C 0.5476(2) 0.12268(7) 0.73680(7)
H26_2 H 0.4730 0.1122 0.7442
C56_2 C 0.5556(2) 0.16519(7) 0.72646(7)
H27_2 H 0.4851 0.1836 0.7264
C57_2 C 0.6703(2) 0.18024(7) 0.71609(7)
C58_2 C 0.7758(2) 0.15543(7) 0.71409(7)
H28_2 H 0.8505 0.1659 0.7067
C59_2 C 0.7629(3) 0.11367(8) 0.72397(8)
H29_2 H 0.8329 0.0956 0.7226
C60_2 C 0.6789(2) 0.22426(7) 0.70565(6)
C61_2 C 0.9023(2) 0.28915(7) 0.61297(7)
C63_2 C 0.9630(2) 0.27304(7) 0.54503(7)
H30_2 H 0.8712 0.2709 0.5305
C69_2 C 0.9170(2) 0.23132(7) 0.45565(7)
C70_2 C 0.9030(2) 0.22276(7) 0.40942(7)
C71_2 C 0.7791(2) 0.20808(7) 0.38372(7)
H33_2 H 0.7092 0.2024 0.3957
C72_2 C 0.7589(2) 0.20177(8) 0.34035(7)
H34_2 H 0.6762 0.1914 0.3235
C73_2 C 0.8621(2) 0.21089(7) 0.32200(7)
C74_2 C 0.9866(2) 0.22598(7) 0.34713(7)
C76_2 C 0.8302(2) 0.20090(7) 0.28198(7)
N3_2 N 0.72850(19) 0.02475(6) 0.75290(6)
H37_2 H 0.8016 0.0359 0.7500
O20_2 O 0.69548(16) 0.33316(5) 0.67038(5)
O25_2 O 0.58854(16) 0.24585(5) 0.71596(5)
O26_2 O 0.76694(15) 0.23423(5) 0.68860(5)
O27_2 O 0.51739(14) 0.04347(5) 0.74872(5)
O28_2 O 0.94519(16) 0.28828(5) 0.65174(5)
O29_2 O 0.78376(16) 0.29451(5) 0.59122(5)
O34_2 O 0.83675(16) 0.21497(5) 0.46874(5)
O43 O 0.58874(16) 0.70009(5) 0.35119(5)
O45 O 0.53541(16) 0.70659(5) 0.41049(5)
C46_2 C 0.8737(2) 0.91859(7) 0.77724(7)
C47_2 C 0.7619(2) 0.89586(7) 0.77819(7)
H23_2 H 0.7667 0.8664 0.7810
C48_2 C 0.6390(2) 0.91722(7) 0.77490(7)
C49_2 C 0.6281(2) 0.95995(7) 0.76669(7)
H24_2 H 0.5460 0.9738 0.7634
C50_2 C 0.7420(2) 0.98265(7) 0.76324(7)
C51_2 C 0.8657(2) 0.96154(7) 0.76890(7)
H25_2 H 0.9418 0.9764 0.7670
C52_2 C 0.5292(2) 0.89376(7) 0.78259(7)
C1_2 C 0.9950(2) 0.10473(7) 0.21464(7)
C18_2 C 0.9958(2) 0.71855(7) 0.41112(7)
C20_2 C 0.9406(2) 0.73205(7) 0.47667(7)
C21_2 C 0.8034(2) 0.72782(7) 0.45529(7)
H9_2 H 0.7390 0.7308 0.4700
C22_2 C 0.7632(2) 0.71923(7) 0.41199(7)
C23_2 C 0.8586(2) 0.71444(7) 0.39000(7)
H10_2 H 0.8308 0.7084 0.3609
C24_2 C 0.6196(2) 0.70713(7) 0.38885(7)
H13 H 0.9443 0.7680 0.6651
C31 C 0.9932(2) 0.76804(7) 0.60914(7)
H14 H 0.9103 0.7579 0.5922
H19 H 0.9298 0.7328 0.5333
N2 N 0.98041(18) 0.74366(6) 0.51914(6)
H13_2 H 0.0557 0.2680 0.8349
C31_2 C 0.0068(2) 0.26804(7) 0.89086(7)
H14_2 H 0.0897 0.2579 0.9078
H19_2 H 0.0702 0.2328 0.9667
N2_2 N 0.01959(18) 0.24366(6) 0.98086(6)
H35_2 H 0.9443 0.7320 0.1651
C75_2 C 0.9932(2) 0.73196(7) 0.10914(7)
H36_2 H 0.9103 0.7421 0.0922
H38_2 H 0.9298 0.7672 0.0333
N4_2 N 0.98041(18) 0.75634(6) 0.01914(6)
C78 C 0.2330(2) 0.09653(7) 0.12325(7)
H42 H 0.2029 0.1043 0.1474
H43 H 0.3021 0.1159 0.1207
H44 H 0.2691 0.0682 0.1271
N5 N 0.1189(2) 0.09827(6) 0.08466(6)
H45 H 0.1231 0.0754 0.0686
H46 H 0.1287 0.1214 0.0697
C77 C 0.9808(2) 0.09965(8) 0.09108(7)
H39 H 0.9414 0.0718 0.0869
H40 H 0.9244 0.1190 0.0709
H41 H 0.9881 0.1091 0.1195
C77_2 C 0.0192(2) 0.59965(8) 0.40892(7)
H39_2 H 0.0586 0.5718 0.4131
H40_2 H 0.0756 0.6190 0.4291
H41_2 H 0.0119 0.6091 0.3805
C78_2 C 0.7670(2) 0.59653(7) 0.37675(7)
H42_2 H 0.7971 0.6043 0.3526
H43_2 H 0.6979 0.6159 0.3793
H44_2 H 0.7309 0.5682 0.3729
N5_2 N 0.8811(2) 0.59827(6) 0.41534(6)
H45_2 H 0.8769 0.5754 0.4314
H46_2 H 0.8713 0.6214 0.4303
C77_3 C 0.0192(2) 0.90035(8) 0.90892(7)
H39_3 H 0.0586 0.9282 0.9131
H40_3 H 0.0756 0.8810 0.9291
H41_3 H 0.0119 0.8909 0.8805
C78_3 C 0.7670(2) 0.90347(7) 0.87675(7)
H42_3 H 0.7971 0.8957 0.8526
H43_3 H 0.6979 0.8841 0.8793
H44_3 H 0.7309 0.9318 0.8729
N5_3 N 0.8811(2) 0.90173(6) 0.91534(6)
H45_3 H 0.8769 0.9246 0.9314
H46_3 H 0.8713 0.8786 0.9303
C78_4 C 0.2330(2) 0.40347(7) 0.62325(7)
H42_4 H 0.2029 0.3957 0.6474
H43_4 H 0.3021 0.3841 0.6207
H44_4 H 0.2691 0.4318 0.6271
N5_4 N 0.1189(2) 0.40173(6) 0.58466(6)
H45_4 H 0.1231 0.4246 0.5686
H46_4 H 0.1287 0.3786 0.5697
C77_4 C 0.9808(2) 0.40035(8) 0.59108(7)
H39_4 H 0.9414 0.4282 0.5869
H40_4 H 0.9244 0.3810 0.5709
H41_4 H 0.9881 0.3909 0.6195
loop_
_geom_bond_atom_site_label_1
_geom_bond_atom_site_label_2
_geom_bond_site_symmetry_1
_geom_bond_site_symmetry_2
C21 C20 1_555 1_555
H9 C21 1_555 1_555
C22 C21 1_555 1_555
C23 C18 1_555 1_555
H10 C23 1_555 1_555
C24 C22 1_555 1_555
O2 C1 1_555 1_555
O3 C1 1_555 1_555
O11 C24 1_555 1_555
O12 C24 1_555 1_555
Zn10 O2 1_555 1_555
Zn14 O3 1_555 1_555
Zn17 O11 1_555 1_555
Zn23 O12 1_555 1_555
C22 C23 1_555 1_555
C2 C3 1_555 1_555
C3 H1 1_555 1_555
C4 C3 1_555 1_555
C5 C4 1_555 1_555
H2 C5 1_555 1_555
C6 C5 1_555 1_555
C7 C2 1_555 1_555
H3 C7 1_555 1_555
C8 C4 1_555 1_555
C9 C10 1_555 1_555
C10 C11 1_555 1_555
C11 H4 1_555 1_555
C12 C11 1_555 1_555
H5 C12 1_555 1_555
C13 C12 1_555 1_555
C14 C13 1_555 1_555
H6 C14 1_555 1_555
C15 C10 1_555 1_555
H7 C15 1_555 1_555
C16 C13 1_555 1_555
C19 H8 1_555 1_555
C33 C34 1_555 1_555
C34 C35 1_555 1_555
C35 H15 1_555 1_555
C38 C34 1_555 1_555
N1 C6 1_555 1_555
H18 N1 1_555 1_555
O1 Zn1 1_555 1_555
O4 C8 1_555 1_555
O5 C8 1_555 1_555
O6 C16 1_555 1_555
O7 C16 1_555 1_555
O8 C9 1_555 1_555
O9 C17 1_555 1_555
O10 C17 1_555 1_555
O16 C33 1_555 1_555
O17 C33 1_555 1_555
Zn1 O7 1_555 1_555
Zn2 O1 1_555 1_555
Zn17 O1 1_555 1_555
Zn23 O1 1_555 1_555
O35 Zn1 1_555 1_555
O37 Zn2 1_555 1_555
O39 Zn17 1_555 1_555
O41 Zn2 1_555 1_555
O48 Zn1 1_555 1_555
O50 Zn17 1_555 1_555
Zn14 O5 1_555 1_555
Zn19 O4 1_555 1_555
C6 C7 1_555 1_555
C9 N1 1_555 1_555
C14 C15 1_555 1_555
O6 Zn17 1_555 1_555
O9 Zn1 1_555 1_555
O10 Zn23 1_555 1_555
O16 Zn2 1_555 1_555
O17 Zn23 1_555 1_555
C25 C26 1_555 1_555
C26 C27 1_555 1_555
C27 H11 1_555 1_555
C28 C27 1_555 1_555
H12 C28 1_555 1_555
C29 C28 1_555 1_555
C30 C29 1_555 1_555
C32 C29 1_555 1_555
H16 C36 1_555 1_555
C37 C36 1_555 1_555
O13 C32 1_555 1_555
O14 C32 1_555 1_555
O15 C25 1_555 1_555
Zn12 O13 1_555 1_555
Zn22 O14 1_555 1_555
H21 C42 1_555 1_555
C69 C70 1_555 1_555
C70 C71 1_555 1_555
C71 H33 1_555 1_555
C72 C71 1_555 1_555
H34 C72 1_555 1_555
C73 C72 1_555 1_555
C74 C73 1_555 1_555
C76 C73 1_555 1_555
O32 C76 1_555 1_555
O33 C76 1_555 1_555
O34 C69 1_555 1_555
Zn10 O32 1_555 1_555
Zn19 O33 1_555 1_555
C42 C43 1_555 1_555
C39 C40 1_555 1_555
C40 C41 1_555 1_555
C41 H20 1_555 1_555
O18 C39 1_555 1_555
O19 C39 1_555 1_555
C46 C47 1_555 1_555
C47 H23 1_555 1_555
C48 C47 1_555 1_555
C49 C48 1_555 1_555
H24 C49 1_555 1_555
C50 C49 1_555 1_555
C51 C46 1_555 1_555
H25 C51 1_555 1_555
C52 C48 1_555 1_555
C53 C54 1_555 1_555
C54 C55 1_555 1_555
C55 H26 1_555 1_555
C56 C55 1_555 1_555
H27 C56 1_555 1_555
C57 C56 1_555 1_555
C58 C57 1_555 1_555
H28 C58 1_555 1_555
C59 C54 1_555 1_555
H29 C59 1_555 1_555
C60 C57 1_555 1_555
C63 H30 1_555 1_555
N3 C50 1_555 1_555
H37 N3 1_555 1_555
O20 Zn5 1_555 1_555
O23 C52 1_555 1_555
O24 C52 1_555 1_555
O25 C60 1_555 1_555
O26 C60 1_555 1_555
O27 C53 1_555 1_555
O28 C61 1_555 1_555
O29 C61 1_555 1_555
Zn5 O26 1_555 1_555
Zn6 O18 1_555 1_555
Zn7 O20 1_555 1_555
Zn8 O19 1_555 1_555
O36 Zn5 1_555 1_555
O38 Zn6 1_555 1_555
O40 Zn7 1_555 1_555
O42 Zn6 1_555 1_555
O44 Zn7 1_555 1_555
O46 Zn8 1_555 1_555
O47 Zn5 1_555 1_555
O49 Zn7 1_555 1_555
Zn16 O24 1_555 1_555
Zn22 O23 1_555 1_555
C40 C44 1_555 1_555
C50 C51 1_555 1_555
C53 N3 1_555 1_555
C58 C59 1_555 1_555
O20 Zn6 1_555 1_555
O20 Zn8 1_555 1_555
O25 Zn7 1_555 1_555
O28 Zn5 1_555 1_555
O29 Zn8 1_555 1_555
C65 C64 1_555 1_555
H31 C65 1_555 1_555
C66 C65 1_555 1_555
C67 C62 1_555 1_555
H32 C67 1_555 1_555
C68 C66 1_555 1_555
O21 C45 1_555 1_555
O22 C45 1_555 1_555
O44 C68 1_555 1_555
O46 C68 1_555 1_555
Zn12 O21 1_555 1_555
Zn16 O22 1_555 1_555
C66 C67 1_555 1_555
C65_2 C64_2 1_555 1_555
H31_2 C65_2 1_555 1_555
C66_2 C65_2 1_555 1_555
C67_2 C62_2 1_555 1_555
H32_2 C67_2 1_555 1_555
C68_2 C66_2 1_555 1_555
H36 C75 1_555 1_555
H38 N4 1_555 1_555
N4 C64_2 1_555 1_555
O30 C68_2 1_555 1_555
O31 C68_2 1_555 1_555
Zn22 O30 1_555 1_555
Zn24 O31 1_555 1_555
C66_2 C67_2 1_555 1_555
O36 C45_2 1_555 1_555
O38 C45_2 1_555 1_555
C2_2 C3_2 1_555 1_555
C3_2 H1_2 1_555 1_555
C4_2 C3_2 1_555 1_555
C5_2 C4_2 1_555 1_555
H2_2 C5_2 1_555 1_555
C6_2 C5_2 1_555 1_555
C7_2 C2_2 1_555 1_555
H3_2 C7_2 1_555 1_555
C8_2 C4_2 1_555 1_555
O39 C8_2 1_555 1_555
O41 C8_2 1_555 1_555
C6_2 C7_2 1_555 1_555
C9_2 C10_2 1_555 1_555
C10_2 C11_2 1_555 1_555
C11_2 H4_2 1_555 1_555
C12_2 C11_2 1_555 1_555
H5_2 C12_2 1_555 1_555
C13_2 C12_2 1_555 1_555
C14_2 C13_2 1_555 1_555
H6_2 C14_2 1_555 1_555
C15_2 C10_2 1_555 1_555
H7_2 C15_2 1_555 1_555
C16_2 C13_2 1_555 1_555
C19_2 H8_2 1_555 1_555
C25_2 C26_2 1_555 1_555
C26_2 C27_2 1_555 1_555
C27_2 H11_2 1_555 1_555
C28_2 C27_2 1_555 1_555
H12_2 C28_2 1_555 1_555
C29_2 C28_2 1_555 1_555
C30_2 C29_2 1_555 1_555
C32_2 C29_2 1_555 1_555
C33_2 C34_2 1_555 1_555
C34_2 C35_2 1_555 1_555
C35_2 H15_2 1_555 1_555
C36_2 C35_2 1_555 1_555
H16_2 C36_2 1_555 1_555
C37_2 C36_2 1_555 1_555
C38_2 C34_2 1_555 1_555
H17_2 C38_2 1_555 1_555
H18_2 N1_2 1_555 1_555
O1_2 Zn10 1_555 1_555
O6_2 C16_2 1_555 1_555
O7_2 C16_2 1_555 1_555
O8_2 C9_2 1_555 1_555
O9_2 C17_2 1_555 1_555
O10_2 C17_2 1_555 1_555
O47 C32_2 1_555 1_555
O49 C32_2 1_555 1_555
O15_2 C25_2 1_555 1_555
O16_2 C33_2 1_555 1_555
O17_2 C33_2 1_555 1_555
Zn10 O7_2 1_555 1_555
Zn14 O1_2 1_555 1_555
Zn19 O1_2 1_555 1_555
Zn4 O1_2 1_555 1_555
C39_2 C40_2 1_555 1_555
C40_2 C41_2 1_555 1_555
C41_2 H20_2 1_555 1_555
C42_2 C41_2 1_555 1_555
H21_2 C42_2 1_555 1_555
C43_2 C37_2 1_555 1_555
C44_2 C37_2 1_555 1_555
H22_2 C44_2 1_555 1_555
O18_2 C39_2 1_555 1_555
O19_2 C39_2 1_555 1_555
C53_2 C54_2 1_555 1_555
C54_2 C55_2 1_555 1_555
C55_2 H26_2 1_555 1_555
C56_2 C55_2 1_555 1_555
H27_2 C56_2 1_555 1_555
C57_2 C56_2 1_555 1_555
C58_2 C57_2 1_555 1_555
H28_2 C58_2 1_555 1_555
C59_2 C54_2 1_555 1_555
H29_2 C59_2 1_555 1_555
C60_2 C57_2 1_555 1_555
C63_2 H30_2 1_555 1_555
C69_2 C70_2 1_555 1_555
C70_2 C71_2 1_555 1_555
C71_2 H33_2 1_555 1_555
C72_2 C71_2 1_555 1_555
H34_2 C72_2 1_555 1_555
C73_2 C72_2 1_555 1_555
C74_2 C73_2 1_555 1_555
C76_2 C73_2 1_555 1_555
H37_2 N3_2 1_555 1_555
O20_2 Zn12 1_555 1_555
O25_2 C60_2 1_555 1_555
O26_2 C60_2 1_555 1_555
O27_2 C53_2 1_555 1_555
O28_2 C61_2 1_555 1_555
O29_2 C61_2 1_555 1_555
O48 C76_2 1_555 1_555
O50 C76_2 1_555 1_555
O34_2 C69_2 1_555 1_555
Zn12 O26_2 1_555 1_555
Zn16 O18_2 1_555 1_555
Zn22 O20_2 1_555 1_555
Zn24 O19_2 1_555 1_555
O43 Zn19 1_555 1_555
O45 Zn4 1_555 1_555
C9_2 N1_2 1_555 1_555
C14_2 C15_2 1_555 1_555
C38_2 C43_2 1_555 1_555
O6_2 Zn19 1_555 1_555
O9_2 Zn10 1_555 1_555
O10_2 Zn4 1_555 1_555
O16_2 Zn14 1_555 1_555
O17_2 Zn4 1_555 1_555
C40_2 C44_2 1_555 1_555
C42_2 C43_2 1_555 1_555
C53_2 N3_2 1_555 1_555
C58_2 C59_2 1_555 1_555
O20_2 Zn16 1_555 1_555
O20_2 Zn24 1_555 1_555
O25_2 Zn22 1_555 1_555
O28_2 Zn12 1_555 1_555
O29_2 Zn24 1_555 1_555
C46_2 C47_2 1_555 1_555
C47_2 H23_2 1_555 1_555
C48_2 C47_2 1_555 1_555
C49_2 C48_2 1_555 1_555
H24_2 C49_2 1_555 1_555
C50_2 C49_2 1_555 1_555
C51_2 C46_2 1_555 1_555
H25_2 C51_2 1_555 1_555
C52_2 C48_2 1_555 1_555
O40 C52_2 1_555 1_555
O42 C52_2 1_555 1_555
C50_2 C51_2 1_555 1_555
O35 C1_2 1_555 1_555
O37 C1_2 1_555 1_555
C21_2 C20_2 1_555 1_555
H9_2 C21_2 1_555 1_555
C22_2 C21_2 1_555 1_555
C23_2 C18_2 1_555 1_555
H10_2 C23_2 1_555 1_555
C24_2 C22_2 1_555 1_555
H14 C31 1_555 1_555
H19 N2 1_555 1_555
N2 C20_2 1_555 1_555
O43 C24_2 1_555 1_555
O45 C24_2 1_555 1_555
C22_2 C23_2 1_555 1_555
H14_2 C31_2 1_555 1_555
H19_2 N2_2 1_555 1_555
H36_2 C75_2 1_555 1_555
H38_2 N4_2 1_555 1_555
C78 H42 1_555 1_555
H43 C78 1_555 1_555
H44 C78 1_555 1_555
H45 N5 1_555 1_555
H46 N5 1_555 1_555
C78 N5 1_555 1_555
C77 H39 1_555 1_555
H40 C77 1_555 1_555
H41 C77 1_555 1_555
C77_2 H39_2 1_555 1_555
H40_2 C77_2 1_555 1_555
H41_2 C77_2 1_555 1_555
C78_2 H42_2 1_555 1_555
H43_2 C78_2 1_555 1_555
H44_2 C78_2 1_555 1_555
H45_2 N5_2 1_555 1_555
H46_2 N5_2 1_555 1_555
C78_2 N5_2 1_555 1_555
C77_3 H39_3 1_555 1_555
H40_3 C77_3 1_555 1_555
H41_3 C77_3 1_555 1_555
C78_3 H42_3 1_555 1_555
H43_3 C78_3 1_555 1_555
H44_3 C78_3 1_555 1_555
H45_3 N5_3 1_555 1_555
H46_3 N5_3 1_555 1_555
C78_3 N5_3 1_555 1_555
C78_4 H42_4 1_555 1_555
H43_4 C78_4 1_555 1_555
H44_4 C78_4 1_555 1_555
H45_4 N5_4 1_555 1_555
H46_4 N5_4 1_555 1_555
C78_4 N5_4 1_555 1_555
C77_4 H39_4 1_555 1_555
H40_4 C77_4 1_555 1_555
H41_4 C77_4 1_555 1_555

#END
