
###############################################################################
#
# This file contains modified crystal structure data generated from the
# MOF subset of the Cambridge Structural Database (CSD) v543 
# hosted by the Cambridge Crystallographic Data Centre (CCDC).
#
# This work is licensed under the Creative Commons
# Attribution-NonCommercial-ShareAlike 4.0 International License.
# To view a copy of this license, visit
# http://creativecommons.org/licenses/by-nc-sa/4.0/
# or send a letter to
# Creative Commons, PO Box 1866, Mountain View, CA 94042, USA.
#
# CIF created using the CSD Python API on 29 September 2022
# The structure has been converted into the P1 space group
# The structure has a 3D framework
# The original CSD entry PUFQUE is in the monoclinic crystal system
# The framework has been calculated to contain at least 10.0% void space
# The void calculation uses a probe of radius 1.32A, grid spacing 0.4
# The framework is charged, counterions have been retained in the structure
#
###############################################################################

data_PUFQUE
_chemical_formula_moiety         '(C152 H104 N12 O64 Zn16)n'
_symmetry_cell_setting           triclinic
_symmetry_space_group_name_H-M   'P 1'
_symmetry_Int_Tables_number      1
_space_group_name_Hall           'P 1'
loop_
_symmetry_equiv_pos_site_id
_symmetry_equiv_pos_as_xyz
1 x,y,z
_cell_length_a                   10.2970(6)
_cell_length_b                   30.9262(17)
_cell_length_c                   30.5635(16)
_cell_angle_alpha                90
_cell_angle_beta                 91.4680(10)
_cell_angle_gamma                90
_cell_volume                     9729.66
loop_
_atom_site_label
_atom_site_type_symbol
_atom_site_fract_x
_atom_site_fract_y
_atom_site_fract_z
Zn15 Zn 0.02341(5) 0.417540(17) 0.336830(18)
C17 C 0.2783(5) 0.41887(15) 0.30559(17)
C18 C 0.4031(5) 0.44214(15) 0.29551(15)
C19 C 0.4006(5) 0.48564(16) 0.28267(17)
H8 H 0.3225 0.5006 0.2797
C20 C 0.5188(5) 0.50595(15) 0.27440(17)
C21 C 0.6344(4) 0.48445(15) 0.28041(15)
H9 H 0.7123 0.4989 0.2762
C22 C 0.6357(4) 0.44063(15) 0.29299(15)
C23 C 0.5186(5) 0.41925(15) 0.29959(15)
H10 H 0.5180 0.3900 0.3066
C24 C 0.7612(4) 0.41637(15) 0.30012(15)
C25 C 0.6007(6) 0.58049(19) 0.2621(2)
C26 C 0.5735(6) 0.6257(2) 0.2452(2)
C27 C 0.4560(5) 0.6374(2) 0.22722(19)
H11 H 0.3886 0.6174 0.2259
C28 C 0.4358(6) 0.67949(18) 0.2106(2)
H12 H 0.3563 0.6876 0.1981
C29 C 0.5379(5) 0.70821(18) 0.2136(2)
C30 C 0.6582(6) 0.69601(19) 0.23243(19)
H13 H 0.7262 0.7158 0.2341
C31 C 0.6753(6) 0.65500(18) 0.24828(18)
H14 H 0.7545 0.6468 0.2610
C32 C 0.5279(5) 0.74950(16) 0.18653(19)
C33 C 0.0191(5) 0.43546(16) 0.43187(17)
C34 C 0.0109(5) 0.46820(16) 0.46765(17)
C35 C 0.0126(6) 0.45677(17) 0.51046(16)
H15 H 0.0211 0.4278 0.5182
N2 N 0.5104(4) 0.55165(12) 0.26383(15)
H18 H 0.4333 0.5609 0.2578
O1 O 0.0232(3) 0.35663(10) 0.34909(10)
O9 O 0.1776(3) 0.44147(10) 0.30918(11)
O10 O 0.2867(3) 0.37959(11) 0.30968(12)
O11 O 0.7510(3) 0.37594(11) 0.29861(12)
O12 O 0.8612(3) 0.43772(10) 0.30753(11)
O13 O 0.7075(4) 0.56878(13) 0.27763(12)
O14 O 0.6300(3) 0.76955(12) 0.19775(12)
O15 O 0.4341(4) 0.76351(11) 0.16698(12)
O16 O 0.0268(3) 0.39703(10) 0.44313(11)
O17 O 0.0176(3) 0.44887(11) 0.39315(11)
Zn2 Zn 0.02680(5) 0.342020(18) 0.410080(18)
Zn4 Zn 0.16829(5) 0.326870(17) 0.321860(18)
C40 C 0.0018(6) 0.48811(17) 0.54321(18)
H20 H 0.0030 0.4798 0.5725
C41 C 0.2289(5) 0.68672(16) 0.58908(16)
C42 C 0.3531(5) 0.69905(15) 0.56622(16)
C43 C 0.3483(4) 0.71283(16) 0.52243(15)
H21 H 0.2691 0.7157 0.5073
C44 C 0.4656(5) 0.72224(16) 0.50186(17)
C45 C 0.5834(5) 0.71456(16) 0.52389(17)
H22 H 0.6613 0.7189 0.5098
C46 C 0.5841(4) 0.70057(16) 0.56663(15)
C47 C 0.4707(5) 0.69304(15) 0.58829(16)
H23 H 0.4731 0.6840 0.6173
C48 C 0.7110(5) 0.69182(14) 0.59119(15)
C49 C 0.5381(5) 0.76227(18) 0.43704(17)
C50 C 0.5037(6) 0.77592(19) 0.39097(18)
C51 C 0.3849(5) 0.76640(19) 0.37092(18)
H24 H 0.3233 0.7506 0.3859
C52 C 0.3570(6) 0.78084(19) 0.32748(18)
H25 H 0.2770 0.7750 0.3140
C53 C 0.4522(5) 0.80404(17) 0.30533(16)
C54 C 0.5699(6) 0.81367(19) 0.32491(18)
H26 H 0.6316 0.8293 0.3099
C55 C 0.5961(6) 0.79950(18) 0.36819(18)
H27 H 0.6757 0.8059 0.3817
C56 C 0.4345(5) 0.81885(17) 0.25991(15)
N3 N 0.4579(4) 0.73792(15) 0.45895(13)
H35 H 0.3890 0.7303 0.4444
O21 O 0.1245(3) 0.68721(11) 0.56729(11)
O22 O 0.2420(3) 0.67853(12) 0.62818(12)
O23 O 0.7061(3) 0.69214(10) 0.63203(10)
O24 O 0.8118(3) 0.68570(11) 0.56924(11)
O25 O 0.6460(4) 0.76877(12) 0.45488(12)
O26 O 0.5229(4) 0.83857(12) 0.24584(11)
O27 O 0.3334(3) 0.80895(11) 0.23844(11)
Zn5 Zn 0.12534(5) 0.669540(18) 0.681680(17)
O35 O 0.2939(3) 0.30786(10) 0.36797(10)
O37 O 0.1882(3) 0.31430(11) 0.43076(11)
O39 O 0.0229(4) 0.66143(12) 0.74584(11)
O42 O 0.1666(3) 0.30895(11) 0.26156(11)
O44 O 0.2490(3) 0.62406(11) 0.70139(12)
O46 O 0.1388(3) 0.56228(10) 0.69247(11)
O48 O 0.1300(3) 0.73045(12) 0.69775(12)
O49 O 0.0659(4) 0.26351(11) 0.33302(12)
Zn9 Zn 0.87466(5) 0.330460(18) 0.318320(17)
Zn10 Zn 0.62534(5) 0.830460(18) 0.181680(17)
Zn14 Zn 0.97320(5) 0.657980(18) 0.589920(18)
Zn18 Zn 0.33171(5) 0.826870(17) 0.178140(18)
Zn19 Zn 0.83171(5) 0.673130(17) 0.678140(18)
C1 C 0.7711(5) 0.31328(16) 0.41092(16)
C2 C 0.6469(5) 0.30095(15) 0.43378(16)
C3 C 0.6517(4) 0.28717(16) 0.47757(15)
H1 H 0.7309 0.2843 0.4927
C4 C 0.5344(5) 0.27776(16) 0.49814(17)
C5 C 0.4166(5) 0.28544(16) 0.47611(17)
H2 H 0.3387 0.2811 0.4902
C6 C 0.4159(4) 0.29943(16) 0.43337(15)
C7 C 0.5293(5) 0.30696(15) 0.41171(16)
H3 H 0.5269 0.3160 0.3827
C8 C 0.2890(5) 0.30818(14) 0.40881(15)
C9 C 0.4619(5) 0.23773(18) 0.56296(17)
C10 C 0.4963(6) 0.22408(19) 0.60903(18)
C11 C 0.6151(5) 0.23360(19) 0.62908(18)
H4 H 0.6767 0.2494 0.6141
C12 C 0.6430(6) 0.21916(19) 0.67252(18)
H5 H 0.7230 0.2250 0.6860
C13 C 0.5478(5) 0.19596(17) 0.69467(16)
C14 C 0.4301(6) 0.18633(19) 0.67509(18)
H6 H 0.3684 0.1707 0.6901
C15 C 0.4039(6) 0.20050(18) 0.63181(18)
H7 H 0.3243 0.1941 0.6183
C16 C 0.5655(5) 0.18115(17) 0.74009(15)
C36 C 0.9982(6) 0.51189(17) 0.45679(18)
H16 H 0.9970 0.5202 0.4275
N1 N 0.5421(4) 0.26208(15) 0.54105(13)
H17 H 0.6110 0.2697 0.5556
O2 O 0.8755(3) 0.31279(11) 0.43271(11)
O3 O 0.7580(3) 0.32147(12) 0.37182(12)
O6 O 0.3540(4) 0.23123(12) 0.54512(12)
O7 O 0.4771(4) 0.16143(12) 0.75416(11)
O8 O 0.6666(3) 0.19105(11) 0.76156(11)
C37 C 0.9809(5) 0.56454(16) 0.56813(17)
C38 C 0.9891(5) 0.53180(16) 0.53235(17)
C39 C 0.9874(6) 0.54323(17) 0.48954(16)
H19 H 0.9789 0.5722 0.4818
O18 O 0.9732(3) 0.60297(10) 0.55687(11)
O19 O 0.9824(3) 0.55113(11) 0.60685(11)
C57 C 0.7217(5) 0.58113(15) 0.69441(17)
C58 C 0.5969(5) 0.55786(15) 0.70449(15)
C59 C 0.5994(5) 0.51436(16) 0.71733(17)
H28 H 0.6775 0.4994 0.7203
C60 C 0.4812(5) 0.49405(15) 0.72560(17)
C61 C 0.3656(4) 0.51555(15) 0.71959(15)
H29 H 0.2877 0.5011 0.7238
C62 C 0.3643(4) 0.55937(15) 0.70701(15)
C63 C 0.4814(5) 0.58075(15) 0.70041(15)
H30 H 0.4820 0.6100 0.6934
C64 C 0.2388(4) 0.58363(15) 0.69988(15)
C65 C 0.3993(6) 0.41951(19) 0.7379(2)
C66 C 0.4265(6) 0.3743(2) 0.7548(2)
C67 C 0.5440(5) 0.3626(2) 0.77278(19)
H31 H 0.6114 0.3826 0.7741
C68 C 0.5642(6) 0.32051(18) 0.7894(2)
H32 H 0.6437 0.3124 0.8019
C69 C 0.4621(5) 0.29179(18) 0.7864(2)
C70 C 0.3418(6) 0.30399(19) 0.76757(19)
H33 H 0.2738 0.2842 0.7659
C71 C 0.3247(6) 0.34500(18) 0.75172(18)
H34 H 0.2455 0.3532 0.7390
C72 C 0.4721(5) 0.25050(16) 0.81347(19)
N4 N 0.4896(4) 0.44835(12) 0.73617(15)
H36 H 0.5667 0.4391 0.7422
O20 O 0.9768(3) 0.64337(10) 0.65091(10)
O28 O 0.8224(3) 0.55853(10) 0.69082(11)
O29 O 0.7133(3) 0.62041(11) 0.69032(12)
O32 O 0.2925(4) 0.43122(13) 0.72237(12)
O33 O 0.3700(3) 0.23045(12) 0.80225(12)
O34 O 0.5659(4) 0.23649(11) 0.83302(12)
Zn7 Zn 0.97659(5) 0.582460(17) 0.663170(18)
O40 O 0.9771(4) 0.33857(12) 0.25416(11)
O41 O 0.8334(3) 0.69105(11) 0.73844(11)
O47 O 0.8700(3) 0.26955(12) 0.30225(12)
O50 O 0.9341(4) 0.73649(11) 0.66698(12)
Zn12 Zn 0.37466(5) 0.169540(18) 0.818320(17)
Zn20 Zn 0.66829(5) 0.173130(17) 0.821860(18)
C61_2 C 0.1344(4) 0.01555(15) 0.78041(15)
H29_2 H 0.2123 0.0011 0.7762
C62_2 C 0.1357(4) 0.05937(15) 0.79299(15)
C63_2 C 0.0186(5) 0.08075(15) 0.79959(15)
H30_2 H 0.0180 0.1100 0.8066
C64_2 C 0.2612(4) 0.08363(15) 0.80012(15)
O30 O 0.2510(3) 0.12406(11) 0.79861(12)
O31 O 0.3612(3) 0.06228(10) 0.80753(11)
Zn16 Zn 0.52341(5) 0.082460(17) 0.836830(18)
C5_2 C 0.0834(5) 0.78544(16) 0.02389(17)
H2_2 H 0.1613 0.7811 0.0098
C6_2 C 0.0841(4) 0.79943(16) 0.06663(15)
C8_2 C 0.2110(5) 0.80818(14) 0.09119(15)
O4 O 0.2061(3) 0.80786(10) 0.13203(10)
O5 O 0.3118(3) 0.81430(11) 0.06924(11)
Zn13 Zn 0.47320(5) 0.842020(18) 0.089920(18)
C9_2 C 0.0381(5) 0.73773(18) 0.93704(17)
C10_2 C 0.0037(6) 0.72408(19) 0.89097(18)
C14_2 C 0.0699(6) 0.68633(19) 0.82491(18)
H6_2 H 0.1316 0.6707 0.8099
C15_2 C 0.0961(6) 0.70050(18) 0.86819(18)
H7_2 H 0.1757 0.6941 0.8817
O6_2 O 0.1460(4) 0.73123(12) 0.95488(12)
C60_2 C 0.0188(5) 0.99405(15) 0.77440(17)
C65_2 C 0.1007(6) 0.91951(19) 0.7621(2)
C66_2 C 0.0735(6) 0.8743(2) 0.7452(2)
C69_2 C 0.0379(5) 0.79179(18) 0.7136(2)
C70_2 C 0.1582(6) 0.80399(19) 0.73243(19)
H33_2 H 0.2262 0.7842 0.7341
C71_2 C 0.1753(6) 0.84500(18) 0.74828(18)
H34_2 H 0.2545 0.8532 0.7610
C72_2 C 0.0279(5) 0.75050(16) 0.68653(19)
N4_2 N 0.0104(4) 0.94835(12) 0.76383(15)
O32_2 O 0.2075(4) 0.93122(13) 0.77763(12)
H8_2 H 0.1775 0.0006 0.2203
C27_2 C 0.0440(5) 0.1374(2) 0.27278(19)
H11_2 H 0.1114 0.1174 0.2741
C28_2 C 0.0642(6) 0.17949(18) 0.2894(2)
H12_2 H 0.1437 0.1876 0.3019
C36_2 C 0.5018(6) 0.01189(17) 0.04321(18)
H16_2 H 0.5030 0.0202 0.0725
H18_2 H 0.0667 0.0609 0.2422
C39_2 C 0.5126(6) 0.04323(17) 0.01046(16)
H19_2 H 0.5211 0.0722 0.0182
C51_2 C 0.1151(5) 0.26640(19) 0.12908(18)
H24_2 H 0.1767 0.2506 0.1141
C52_2 C 0.1430(6) 0.28084(19) 0.17252(18)
H25_2 H 0.2230 0.2750 0.1860
C53_2 C 0.0478(5) 0.30404(17) 0.19467(16)
C56_2 C 0.0655(5) 0.31885(17) 0.24009(15)
N3_2 N 0.0421(4) 0.23792(15) 0.04105(13)
H35_2 H 0.1110 0.2303 0.0556
C37_2 C 0.5191(5) 0.06454(16) 0.93187(17)
C38_2 C 0.5109(5) 0.03180(16) 0.96765(17)
O18_2 O 0.5268(3) 0.10297(10) 0.94313(11)
O19_2 O 0.5176(3) 0.05113(11) 0.89315(11)
C41_2 C 0.2711(5) 0.18672(16) 0.91092(16)
C42_2 C 0.1469(5) 0.19905(15) 0.93378(16)
C43_2 C 0.1517(4) 0.21283(16) 0.97757(15)
H21_2 H 0.2309 0.2157 0.9927
C44_2 C 0.0344(5) 0.22224(16) 0.99814(17)
C47_2 C 0.0293(5) 0.19304(15) 0.91171(16)
H23_2 H 0.0269 0.1840 0.8827
C57_2 C 0.7783(5) 0.08113(15) 0.80559(17)
C58_2 C 0.9031(5) 0.05786(15) 0.79551(15)
C59_2 C 0.9006(5) 0.01436(16) 0.78267(17)
O20_2 O 0.5232(3) 0.14337(10) 0.84909(10)
O21_2 O 0.3755(3) 0.18721(11) 0.93271(11)
O22_2 O 0.2580(3) 0.17853(12) 0.87182(12)
O28_2 O 0.6776(3) 0.05853(10) 0.80918(11)
O29_2 O 0.7867(3) 0.12041(11) 0.80968(12)
Zn6 Zn 0.52680(5) 0.157980(18) 0.910080(18)
O36 O 0.7939(3) 0.19214(10) 0.86797(10)
O38 O 0.6882(3) 0.18570(11) 0.93076(11)
C1_2 C 0.7289(5) 0.81328(16) 0.08908(16)
C2_2 C 0.8531(5) 0.80095(15) 0.06622(16)
C3_2 C 0.8483(4) 0.78717(16) 0.02243(15)
H1_2 H 0.7691 0.7843 0.0073
C4_2 C 0.9656(5) 0.77776(16) 0.00186(17)
C7_2 C 0.9707(5) 0.80696(15) 0.08829(16)
H3_2 H 0.9731 0.8160 0.1173
C17_2 C 0.2217(5) 0.91887(15) 0.19441(17)
C18_2 C 0.0969(5) 0.94214(15) 0.20449(15)
C19_2 C 0.0994(5) 0.98564(16) 0.21733(17)
C33_2 C 0.4809(5) 0.93546(16) 0.06813(17)
C34_2 C 0.4891(5) 0.96820(16) 0.03235(17)
O1_2 O 0.4768(3) 0.85663(10) 0.15091(10)
O2_2 O 0.6245(3) 0.81279(11) 0.06729(11)
O3_2 O 0.7420(3) 0.82147(12) 0.12818(12)
O9_2 O 0.3224(3) 0.94147(10) 0.19082(11)
O10_2 O 0.2133(3) 0.87959(11) 0.19032(12)
O16_2 O 0.4732(3) 0.89703(10) 0.05687(11)
O17_2 O 0.4824(3) 0.94887(11) 0.10685(11)
Zn3 Zn 0.47659(5) 0.917540(17) 0.163170(18)
O43 O 0.7490(3) 0.87594(11) 0.20139(12)
O45 O 0.6388(3) 0.93772(10) 0.19247(11)
C11_2 C 0.8849(5) 0.73360(19) 0.87092(18)
H4_2 H 0.8233 0.7494 0.8859
C12_2 C 0.8570(6) 0.71916(19) 0.82748(18)
H5_2 H 0.7770 0.7250 0.8140
C13_2 C 0.9522(5) 0.69596(17) 0.80533(16)
C16_2 C 0.9345(5) 0.68115(17) 0.75991(15)
C35_2 C 0.4874(6) 0.95677(17) 0.98954(16)
H15_2 H 0.4789 0.9278 0.9818
N1_2 N 0.9579(4) 0.76208(15) 0.95895(13)
H17_2 H 0.8890 0.7697 0.9444
C40_2 C 0.4982(6) 0.98811(17) 0.95679(18)
H20_2 H 0.4970 0.9798 0.9275
H28_2 H 0.8225 0.9994 0.7797
C67_2 C 0.9560(5) 0.8626(2) 0.72722(19)
H31_2 H 0.8886 0.8826 0.7259
C68_2 C 0.9358(6) 0.82051(18) 0.7106(2)
H32_2 H 0.8563 0.8124 0.6981
H36_2 H 0.9333 0.9391 0.7578
C20_2 C 0.9812(5) 0.00595(15) 0.22560(17)
C25_2 C 0.8993(6) 0.08049(19) 0.2379(2)
C26_2 C 0.9265(6) 0.1257(2) 0.2548(2)
C29_2 C 0.9621(5) 0.20821(18) 0.2864(2)
C30_2 C 0.8418(6) 0.19601(19) 0.26757(19)
H13_2 H 0.7738 0.2158 0.2659
C31_2 C 0.8247(6) 0.15500(18) 0.25172(18)
H14_2 H 0.7455 0.1468 0.2390
C32_2 C 0.9721(5) 0.24950(16) 0.31347(19)
N2_2 N 0.9896(4) 0.05165(12) 0.23617(15)
O13_2 O 0.7925(4) 0.06878(13) 0.22237(12)
C49_2 C 0.9619(5) 0.26227(18) 0.06296(17)
C50_2 C 0.9963(6) 0.27592(19) 0.10903(18)
C54_2 C 0.9301(6) 0.31367(19) 0.17509(18)
H26_2 H 0.8684 0.3293 0.1901
C55_2 C 0.9039(6) 0.29950(18) 0.13181(18)
H27_2 H 0.8243 0.3059 0.1183
O25_2 O 0.8540(4) 0.26877(12) 0.04512(12)
C45_2 C 0.9166(5) 0.21456(16) 0.97611(17)
H22_2 H 0.8387 0.2189 0.9902
C46_2 C 0.9159(4) 0.20057(16) 0.93337(15)
C48_2 C 0.7890(5) 0.19182(14) 0.90881(15)
C21_2 C 0.8656(4) 0.98445(15) 0.21959(15)
H9_2 H 0.7877 0.9989 0.2238
C22_2 C 0.8643(4) 0.94063(15) 0.20701(15)
C23_2 C 0.9814(5) 0.91925(15) 0.20041(15)
H10_2 H 0.9820 0.8900 0.1934
C24_2 C 0.7388(4) 0.91637(15) 0.19988(15)
C73 C 0.1731(6) 0.58248(19) 0.0088(2)
H38 H 0.2052 0.5926 0.0367
H39 H 0.0831 0.5747 0.0109
C74 C 0.3128(6) 0.5201(2) 0.0329(2)
H40 H 0.4044 0.5182 0.0282
H41 H 0.2768 0.4915 0.0345
H42 H 0.2981 0.5352 0.0597
H37 H 0.1818 0.6050 0.9874
N5 N 0.2485(5) 0.54422(17) 0.99548(17)
H43 H 0.3101 0.5528 0.9770
H44 H 0.1951 0.5260 0.9808
C73_2 C 0.3269(6) 0.08248(19) 0.4912(2)
H37_2 H 0.3182 0.1050 0.5126
H38_2 H 0.2948 0.0926 0.4633
H39_2 H 0.4169 0.0747 0.4891
C74_2 C 0.1872(6) 0.0201(2) 0.4671(2)
H40_2 H 0.0956 0.0182 0.4718
H42_2 H 0.2019 0.0352 0.4403
N5_2 N 0.2515(5) 0.04422(17) 0.50452(17)
H43_2 H 0.1899 0.0528 0.5230
H44_2 H 0.3049 0.0260 0.5192
H41_2 H 0.2232 0.9915 0.4655
H37_3 H 0.8182 0.3950 0.0126
N5_3 N 0.7515(5) 0.45578(17) 0.00452(17)
H43_3 H 0.6899 0.4472 0.0230
H44_3 H 0.8049 0.4740 0.0192
C73_3 C 0.8269(6) 0.41752(19) 0.9912(2)
H38_3 H 0.7948 0.4074 0.9633
H39_3 H 0.9169 0.4253 0.9891
C74_3 C 0.6872(6) 0.4799(2) 0.9671(2)
H40_3 H 0.5956 0.4818 0.9718
H41_3 H 0.7232 0.5085 0.9655
H42_3 H 0.7019 0.4648 0.9403
H41_4 H 0.7768 0.0085 0.5345
C73_4 C 0.6731(6) 0.91752(19) 0.5088(2)
H37_4 H 0.6818 0.8950 0.4874
H38_4 H 0.7052 0.9074 0.5367
H39_4 H 0.5831 0.9253 0.5109
C74_4 C 0.8128(6) 0.9799(2) 0.5329(2)
H40_4 H 0.9044 0.9818 0.5282
H42_4 H 0.7981 0.9648 0.5597
N5_4 N 0.7485(5) 0.95578(17) 0.49548(17)
H43_4 H 0.8101 0.9472 0.4770
H44_4 H 0.6951 0.9740 0.4808
loop_
_geom_bond_atom_site_label_1
_geom_bond_atom_site_label_2
_geom_bond_site_symmetry_1
_geom_bond_site_symmetry_2
C17 C18 1_555 1_555
C18 C19 1_555 1_555
C19 H8 1_555 1_555
C20 C19 1_555 1_555
C21 C20 1_555 1_555
H9 C21 1_555 1_555
C22 C21 1_555 1_555
C23 C18 1_555 1_555
H10 C23 1_555 1_555
C24 C22 1_555 1_555
C25 C26 1_555 1_555
C26 C27 1_555 1_555
C27 H11 1_555 1_555
C28 C27 1_555 1_555
H12 C28 1_555 1_555
C29 C28 1_555 1_555
C30 C29 1_555 1_555
H13 C30 1_555 1_555
C31 C26 1_555 1_555
H14 C31 1_555 1_555
C32 C29 1_555 1_555
C33 C34 1_555 1_555
C34 C35 1_555 1_555
C35 H15 1_555 1_555
N2 C20 1_555 1_555
H18 N2 1_555 1_555
O9 C17 1_555 1_555
O10 C17 1_555 1_555
O11 C24 1_555 1_555
O12 C24 1_555 1_555
O13 C25 1_555 1_555
O14 C32 1_555 1_555
O15 C32 1_555 1_555
O16 C33 1_555 1_555
O17 C33 1_555 1_555
Zn2 O1 1_555 1_555
Zn15 O1 1_555 1_555
Zn4 O1 1_555 1_555
C40 C35 1_555 1_555
H20 C40 1_555 1_555
C41 C42 1_555 1_555
C42 C43 1_555 1_555
C43 H21 1_555 1_555
C44 C43 1_555 1_555
C45 C44 1_555 1_555
H22 C45 1_555 1_555
C46 C45 1_555 1_555
C47 C42 1_555 1_555
H23 C47 1_555 1_555
C48 C46 1_555 1_555
C49 C50 1_555 1_555
C50 C51 1_555 1_555
C51 H24 1_555 1_555
C52 C51 1_555 1_555
H25 C52 1_555 1_555
C53 C52 1_555 1_555
C54 C53 1_555 1_555
H26 C54 1_555 1_555
C55 C50 1_555 1_555
H27 C55 1_555 1_555
C56 C53 1_555 1_555
N3 C44 1_555 1_555
H35 N3 1_555 1_555
O21 C41 1_555 1_555
O22 C41 1_555 1_555
O23 C48 1_555 1_555
O24 C48 1_555 1_555
O25 C49 1_555 1_555
O26 C56 1_555 1_555
O27 C56 1_555 1_555
Zn5 O22 1_555 1_555
O35 Zn4 1_555 1_555
O37 Zn2 1_555 1_555
O39 Zn5 1_555 1_555
O42 Zn4 1_555 1_555
O44 Zn5 1_555 1_555
O48 Zn5 1_555 1_555
O49 Zn4 1_555 1_555
Zn9 O11 1_555 1_555
Zn10 O14 1_555 1_555
Zn14 O24 1_555 1_555
Zn18 O15 1_555 1_555
Zn19 O23 1_555 1_555
C22 C23 1_555 1_555
C25 N2 1_555 1_555
C30 C31 1_555 1_555
O9 Zn15 1_555 1_555
O10 Zn4 1_555 1_555
O16 Zn2 1_555 1_555
O17 Zn15 1_555 1_555
C46 C47 1_555 1_555
C49 N3 1_555 1_555
C54 C55 1_555 1_555
O26 Zn10 1_555 1_555
O27 Zn18 1_555 1_555
C1 C2 1_555 1_555
C2 C3 1_555 1_555
C3 H1 1_555 1_555
C4 C3 1_555 1_555
C5 C4 1_555 1_555
H2 C5 1_555 1_555
C6 C5 1_555 1_555
C7 C2 1_555 1_555
H3 C7 1_555 1_555
C8 C6 1_555 1_555
C9 C10 1_555 1_555
C10 C11 1_555 1_555
C11 H4 1_555 1_555
C12 C11 1_555 1_555
H5 C12 1_555 1_555
C13 C12 1_555 1_555
C14 C13 1_555 1_555
H6 C14 1_555 1_555
C15 C10 1_555 1_555
H7 C15 1_555 1_555
C16 C13 1_555 1_555
H16 C36 1_555 1_555
N1 C4 1_555 1_555
H17 N1 1_555 1_555
O2 C1 1_555 1_555
O3 C1 1_555 1_555
O35 C8 1_555 1_555
O37 C8 1_555 1_555
O6 C9 1_555 1_555
O7 C16 1_555 1_555
O8 C16 1_555 1_555
Zn9 O3 1_555 1_555
C37 C38 1_555 1_555
C38 C39 1_555 1_555
C39 C36 1_555 1_555
H19 C39 1_555 1_555
O18 C37 1_555 1_555
O19 C37 1_555 1_555
C57 C58 1_555 1_555
C58 C59 1_555 1_555
C59 H28 1_555 1_555
C60 C59 1_555 1_555
C61 C60 1_555 1_555
H29 C61 1_555 1_555
C62 C61 1_555 1_555
C63 C58 1_555 1_555
H30 C63 1_555 1_555
C64 C62 1_555 1_555
C65 C66 1_555 1_555
C66 C67 1_555 1_555
C67 H31 1_555 1_555
C68 C67 1_555 1_555
H32 C68 1_555 1_555
C69 C68 1_555 1_555
C70 C69 1_555 1_555
H33 C70 1_555 1_555
C71 C66 1_555 1_555
H34 C71 1_555 1_555
C72 C69 1_555 1_555
N4 C60 1_555 1_555
H36 N4 1_555 1_555
O28 C57 1_555 1_555
O29 C57 1_555 1_555
O44 C64 1_555 1_555
O46 C64 1_555 1_555
O32 C65 1_555 1_555
O33 C72 1_555 1_555
O34 C72 1_555 1_555
Zn14 O18 1_555 1_555
Zn7 O19 1_555 1_555
Zn19 O20 1_555 1_555
O40 Zn9 1_555 1_555
O41 Zn19 1_555 1_555
O47 Zn9 1_555 1_555
O50 Zn19 1_555 1_555
Zn12 O7 1_555 1_555
Zn20 O8 1_555 1_555
C6 C7 1_555 1_555
C9 N1 1_555 1_555
C14 C15 1_555 1_555
C62 C63 1_555 1_555
C65 N4 1_555 1_555
C70 C71 1_555 1_555
O20 Zn14 1_555 1_555
O20 Zn7 1_555 1_555
O28 Zn7 1_555 1_555
O29 Zn19 1_555 1_555
O33 Zn12 1_555 1_555
O34 Zn20 1_555 1_555
H29_2 C61_2 1_555 1_555
C62_2 C61_2 1_555 1_555
H30_2 C63_2 1_555 1_555
C64_2 C62_2 1_555 1_555
O30 C64_2 1_555 1_555
O31 C64_2 1_555 1_555
Zn12 O30 1_555 1_555
Zn16 O31 1_555 1_555
C62_2 C63_2 1_555 1_555
H2_2 C5_2 1_555 1_555
C6_2 C5_2 1_555 1_555
C8_2 C6_2 1_555 1_555
O4 C8_2 1_555 1_555
O5 C8_2 1_555 1_555
Zn13 O5 1_555 1_555
Zn18 O4 1_555 1_555
C9_2 C10_2 1_555 1_555
H6_2 C14_2 1_555 1_555
C15_2 C10_2 1_555 1_555
H7_2 C15_2 1_555 1_555
O6_2 C9_2 1_555 1_555
C65_2 C66_2 1_555 1_555
C70_2 C69_2 1_555 1_555
H33_2 C70_2 1_555 1_555
C71_2 C66_2 1_555 1_555
H34_2 C71_2 1_555 1_555
C72_2 C69_2 1_555 1_555
N4_2 C60_2 1_555 1_555
O32_2 C65_2 1_555 1_555
O48 C72_2 1_555 1_555
C14_2 C15_2 1_555 1_555
C65_2 N4_2 1_555 1_555
C70_2 C71_2 1_555 1_555
C27_2 H11_2 1_555 1_555
C28_2 C27_2 1_555 1_555
H12_2 C28_2 1_555 1_555
H16_2 C36_2 1_555 1_555
C39_2 C36_2 1_555 1_555
H19_2 C39_2 1_555 1_555
C51_2 H24_2 1_555 1_555
C52_2 C51_2 1_555 1_555
H25_2 C52_2 1_555 1_555
C53_2 C52_2 1_555 1_555
C56_2 C53_2 1_555 1_555
H35_2 N3_2 1_555 1_555
O42 C56_2 1_555 1_555
C37_2 C38_2 1_555 1_555
O18_2 C37_2 1_555 1_555
O19_2 C37_2 1_555 1_555
C41_2 C42_2 1_555 1_555
C42_2 C43_2 1_555 1_555
C43_2 H21_2 1_555 1_555
C44_2 C43_2 1_555 1_555
C47_2 C42_2 1_555 1_555
H23_2 C47_2 1_555 1_555
C57_2 C58_2 1_555 1_555
C58_2 C59_2 1_555 1_555
O20_2 Zn12 1_555 1_555
O21_2 C41_2 1_555 1_555
O22_2 C41_2 1_555 1_555
O28_2 C57_2 1_555 1_555
O29_2 C57_2 1_555 1_555
Zn12 O22_2 1_555 1_555
Zn6 O18_2 1_555 1_555
Zn16 O19_2 1_555 1_555
Zn20 O20_2 1_555 1_555
O36 Zn20 1_555 1_555
O38 Zn6 1_555 1_555
O20_2 Zn6 1_555 1_555
O20_2 Zn16 1_555 1_555
O21_2 Zn6 1_555 1_555
O28_2 Zn16 1_555 1_555
O29_2 Zn20 1_555 1_555
C1_2 C2_2 1_555 1_555
C2_2 C3_2 1_555 1_555
C3_2 H1_2 1_555 1_555
C4_2 C3_2 1_555 1_555
C7_2 C2_2 1_555 1_555
H3_2 C7_2 1_555 1_555
C17_2 C18_2 1_555 1_555
C18_2 C19_2 1_555 1_555
C33_2 C34_2 1_555 1_555
O1_2 Zn10 1_555 1_555
O2_2 C1_2 1_555 1_555
O3_2 C1_2 1_555 1_555
O9_2 C17_2 1_555 1_555
O10_2 C17_2 1_555 1_555
O16_2 C33_2 1_555 1_555
O17_2 C33_2 1_555 1_555
Zn10 O3_2 1_555 1_555
Zn13 O1_2 1_555 1_555
Zn3 O1_2 1_555 1_555
Zn18 O1_2 1_555 1_555
O43 Zn10 1_555 1_555
O45 Zn3 1_555 1_555
O2_2 Zn13 1_555 1_555
O9_2 Zn3 1_555 1_555
O10_2 Zn18 1_555 1_555
O16_2 Zn13 1_555 1_555
O17_2 Zn3 1_555 1_555
C11_2 H4_2 1_555 1_555
C12_2 C11_2 1_555 1_555
H5_2 C12_2 1_555 1_555
C13_2 C12_2 1_555 1_555
C16_2 C13_2 1_555 1_555
C35_2 H15_2 1_555 1_555
H17_2 N1_2 1_555 1_555
O41 C16_2 1_555 1_555
C40_2 C35_2 1_555 1_555
H20_2 C40_2 1_555 1_555
C67_2 H31_2 1_555 1_555
C68_2 C67_2 1_555 1_555
H32_2 C68_2 1_555 1_555
C25_2 C26_2 1_555 1_555
C30_2 C29_2 1_555 1_555
H13_2 C30_2 1_555 1_555
C31_2 C26_2 1_555 1_555
H14_2 C31_2 1_555 1_555
C32_2 C29_2 1_555 1_555
N2_2 C20_2 1_555 1_555
O13_2 C25_2 1_555 1_555
O47 C32_2 1_555 1_555
C49_2 C50_2 1_555 1_555
H26_2 C54_2 1_555 1_555
C55_2 C50_2 1_555 1_555
H27_2 C55_2 1_555 1_555
O25_2 C49_2 1_555 1_555
C25_2 N2_2 1_555 1_555
C30_2 C31_2 1_555 1_555
C54_2 C55_2 1_555 1_555
H22_2 C45_2 1_555 1_555
C46_2 C45_2 1_555 1_555
C48_2 C46_2 1_555 1_555
O36 C48_2 1_555 1_555
O38 C48_2 1_555 1_555
H9_2 C21_2 1_555 1_555
C22_2 C21_2 1_555 1_555
H10_2 C23_2 1_555 1_555
C24_2 C22_2 1_555 1_555
O43 C24_2 1_555 1_555
O45 C24_2 1_555 1_555
C22_2 C23_2 1_555 1_555
H38 C73 1_555 1_555
H39 C73 1_555 1_555
C74 H40 1_555 1_555
H41 C74 1_555 1_555
H42 C74 1_555 1_555
H43 N5 1_555 1_555
H44 N5 1_555 1_555
C73_2 H37_2 1_555 1_555
H38_2 C73_2 1_555 1_555
H39_2 C73_2 1_555 1_555
C74_2 H40_2 1_555 1_555
H42_2 C74_2 1_555 1_555
N5_2 C73_2 1_555 1_555
H43_2 N5_2 1_555 1_555
H44_2 N5_2 1_555 1_555
C74_2 N5_2 1_555 1_555
H43_3 N5_3 1_555 1_555
H44_3 N5_3 1_555 1_555
H38_3 C73_3 1_555 1_555
H39_3 C73_3 1_555 1_555
C74_3 H40_3 1_555 1_555
H41_3 C74_3 1_555 1_555
H42_3 C74_3 1_555 1_555
C73_4 H37_4 1_555 1_555
H38_4 C73_4 1_555 1_555
H39_4 C73_4 1_555 1_555
C74_4 H40_4 1_555 1_555
H42_4 C74_4 1_555 1_555
N5_4 C73_4 1_555 1_555
H43_4 N5_4 1_555 1_555
H44_4 N5_4 1_555 1_555
C74_4 N5_4 1_555 1_555

#END
