
###############################################################################
#
# This file contains modified crystal structure data generated from the
# MOF subset of the Cambridge Structural Database (CSD) v543 
# hosted by the Cambridge Crystallographic Data Centre (CCDC).
#
# This work is licensed under the Creative Commons
# Attribution-NonCommercial-ShareAlike 4.0 International License.
# To view a copy of this license, visit
# http://creativecommons.org/licenses/by-nc-sa/4.0/
# or send a letter to
# Creative Commons, PO Box 1866, Mountain View, CA 94042, USA.
#
# CIF created using the CSD Python API on 29 September 2022
# The structure has been converted into the P1 space group
# The structure has a 3D framework
# The original CSD entry PUFRIR is in the monoclinic crystal system
# The framework has been calculated to contain at least 10.0% void space
# The void calculation uses a probe of radius 1.32A, grid spacing 0.4
# The framework is charged, counterions have been retained in the structure
# H atom positions have been added when not included in the experimental data
#
###############################################################################

data_PUFRIR
_chemical_formula_moiety         '(C80 H144 Cl12 Gd4 N16 O82)n'
_symmetry_cell_setting           triclinic
_symmetry_space_group_name_H-M   'P 1'
_symmetry_Int_Tables_number      1
_space_group_name_Hall           'P 1'
loop_
_symmetry_equiv_pos_site_id
_symmetry_equiv_pos_as_xyz
1 x,y,z
_cell_length_a                   17.897(1)
_cell_length_b                   14.731(1)
_cell_length_c                   17.381(1)
_cell_angle_alpha                90
_cell_angle_beta                 116.61(1)
_cell_angle_gamma                90
_cell_volume                     4096.96
loop_
_atom_site_label
_atom_site_type_symbol
_atom_site_fract_x
_atom_site_fract_y
_atom_site_fract_z
O1 O 0.2432(2) 0.0610(3) 0.1014(2)
O2 O 0.3623(2) 0.0274(3) 0.2162(3)
C1 C 0.3191(3) 0.0731(3) 0.1540(3)
C2 C 0.3533(3) 0.1577(3) 0.1287(3)
N1 N 0.4383(2) 0.1908(3) 0.1924(2)
C3 C 0.4403(3) 0.2139(3) 0.2767(3)
C4 C 0.5274(3) 0.2458(3) 0.3393(3)
C5 C 0.4559(3) 0.2761(3) 0.1561(3)
C6 C 0.5357(3) 0.3206(3) 0.2190(3)
C7 C 0.5063(3) 0.1247(3) 0.2066(3)
C8 C 0.5914(3) 0.1672(3) 0.2607(3)
N2 N 0.5812(2) 0.2587(2) 0.2939(2)
C9 C 0.6629(3) 0.3001(3) 0.3573(3)
C10 C 0.7265(2) 0.3234(3) 0.3238(3)
O3 O 0.7865(2) 0.3672(2) 0.3777(2)
O4 O 0.7161(2) 0.2982(3) 0.2515(2)
O5 O 0.0724(2) 0.1372(2) 0.0532(2)
O10 O 0.1846(2) 0.1133(2) 0.2269(2)
H1 H 0.3577 0.1416 0.0773
H2 H 0.3142 0.2066 0.1164
H3 H 0.4037 0.2643 0.2695
H4 H 0.4220 0.1623 0.2974
H5 H 0.5260 0.2994 0.3700
H6 H 0.5518 0.1968 0.3793
H7 H 0.4656 0.2568 0.1086
H8 H 0.4092 0.3170 0.1359
H9 H 0.5198 0.3742 0.2393
H10 H 0.5718 0.3370 0.1937
H11 H 0.5003 0.0737 0.2378
H12 H 0.5023 0.1044 0.1524
H13 H 0.6188 0.1753 0.2246
H14 H 0.6249 0.1289 0.3084
H15 H 0.6497 0.3548 0.3787
H16 H 0.6895 0.2579 0.4038
H18 H 0.0209 0.3047 0.0086
O14 O 0.0207(2) 0.0271(2) 0.1578(2)
Gd2 Gd 0.87063(1) 0.49388(1) 0.38425(1)
H33 H 0.180724 0.173077 0.198948
H34 H 0.151356 0.114803 0.259793
C11 C 0.0225(2) 0.1706(2) 0.9829(2)
C12 C 0.0388(3) 0.2701(3) 0.9731(2)
C13 C 0.0312(3) 0.4022(3) 0.8863(3)
C17 C 0.0125(3) 0.2528(3) 0.8194(2)
O8 O 0.0207(2) 0.4729(2) 0.6578(2)
H17 H 0.0978 0.2777 0.9932
H19 H 0.0881 0.3981 0.8955
H20 H 0.0289 0.4360 0.9325
H21 H 0.0147 0.4841 0.7844
H27 H 0.0707 0.2372 0.8445
H29 H 0.0385 0.3320 0.7381
Gd5 Gd 0.12937(1) 0.50612(1) 0.61575(1)
Gd1 Gd 0.12937(1) 0.99388(1) 0.11575(1)
O9 O 0.1756(2) 0.9206(3) 0.2543(2)
O11 O 0.2135(2) 0.8672(2) 0.1223(2)
O12 O 0.0381(2) 0.8678(2) 0.0763(2)
H35 H 0.202279 0.96618 0.300787
H36 H 0.126829 0.893232 0.258452
O13 O 0.0912(2) 0.9757(2) 0.9701(2)
O6 O 0.9619(2) 0.1322(2) 0.9237(2)
N3 N 0.9955(2) 0.3085(2) 0.8829(2)
C14 C 0.9784(3) 0.4513(3) 0.8018(2)
C15 C 0.9031(3) 0.3162(3) 0.8501(3)
C16 C 0.8634(3) 0.3435(3) 0.7551(3)
C18 C 0.9888(3) 0.3066(3) 0.7374(2)
N4 N 0.9298(2) 0.3827(2) 0.7334(2)
C19 C 0.8878(2) 0.4240(3) 0.6447(2)
C20 C 0.9460(2) 0.4602(2) 0.6096(2)
O7 O 0.9088(2) 0.4757(2) 0.5299(2)
H22 H 0.9408 0.4930 0.8091
H23 H 0.8806 0.2588 0.8556
H24 H 0.8911 0.3611 0.8831
H25 H 0.8213 0.3885 0.7451
H26 H 0.8386 0.2916 0.7194
H28 H 0.9796 0.1984 0.8059
H30 H 0.9622 0.2674 0.6885
H31 H 0.8530 0.3781 0.6061
H32 H 0.8537 0.4734 0.6465
Gd3 Gd 0.87063(1) 0.00612(1) 0.88425(1)
O6_2 O 0.0381(2) 0.6322(2) 0.5763(2)
N3_2 N 0.0045(2) 0.8085(2) 0.6171(2)
C14_2 C 0.0216(3) 0.9513(3) 0.6982(2)
C15_2 C 0.0969(3) 0.8162(3) 0.6499(3)
C16_2 C 0.1366(3) 0.8435(3) 0.7449(3)
C18_2 C 0.0112(3) 0.8066(3) 0.7626(2)
N4_2 N 0.0702(2) 0.8827(2) 0.7666(2)
C19_2 C 0.1122(2) 0.9240(3) 0.8553(2)
C20_2 C 0.0540(2) 0.9602(2) 0.8904(2)
H22_2 H 0.0592 0.9930 0.6909
H23_2 H 0.1194 0.7588 0.6444
H24_2 H 0.1089 0.8611 0.6169
H25_2 H 0.1787 0.8885 0.7549
H26_2 H 0.1614 0.7916 0.7806
H28_2 H 0.0204 0.6984 0.6941
H30_2 H 0.0378 0.7674 0.8115
H31_2 H 0.1470 0.8781 0.8939
H32_2 H 0.1463 0.9734 0.8535
O1_2 O 0.7568(2) 0.5610(3) 0.3986(2)
O2_2 O 0.6377(2) 0.5274(3) 0.2838(3)
C1_2 C 0.6809(3) 0.5731(3) 0.3460(3)
C2_2 C 0.6467(3) 0.6577(3) 0.3713(3)
N1_2 N 0.5617(2) 0.6908(3) 0.3076(2)
C3_2 C 0.5597(3) 0.7139(3) 0.2233(3)
C4_2 C 0.4726(3) 0.7458(3) 0.1607(3)
C5_2 C 0.5441(3) 0.7761(3) 0.3439(3)
C6_2 C 0.4643(3) 0.8206(3) 0.2810(3)
C7_2 C 0.4937(3) 0.6247(3) 0.2934(3)
C8_2 C 0.4086(3) 0.6672(3) 0.2393(3)
N2_2 N 0.4188(2) 0.7587(2) 0.2061(2)
C9_2 C 0.3371(3) 0.8001(3) 0.1427(3)
C10_2 C 0.2735(2) 0.8234(3) 0.1762(3)
O4_2 O 0.2839(2) 0.7982(3) 0.2485(2)
O5_2 O 0.9276(2) 0.6372(2) 0.4468(2)
C11_2 C 0.9775(2) 0.6706(2) 0.5171(2)
C12_2 C 0.9612(3) 0.7701(3) 0.5269(2)
C13_2 C 0.9688(3) 0.9022(3) 0.6137(3)
C17_2 C 0.9875(3) 0.7528(3) 0.6806(2)
O8_2 O 0.9793(2) 0.9729(2) 0.8422(2)
O9_2 O 0.8244(2) 0.4206(3) 0.2457(2)
O10_2 O 0.8154(2) 0.6133(2) 0.2731(2)
H1_2 H 0.6423 0.6416 0.4227
H2_2 H 0.6858 0.7066 0.3836
H3_2 H 0.5963 0.7643 0.2305
H4_2 H 0.5780 0.6623 0.2026
H5_2 H 0.4740 0.7994 0.1300
H6_2 H 0.4482 0.6968 0.1207
H7_2 H 0.5344 0.7568 0.3914
H8_2 H 0.5908 0.8170 0.3641
H9_2 H 0.4802 0.8742 0.2607
H10_2 H 0.4282 0.8370 0.3063
H11_2 H 0.4997 0.5737 0.2622
H12_2 H 0.4977 0.6044 0.3476
H13_2 H 0.3812 0.6753 0.2754
H14_2 H 0.3751 0.6289 0.1916
H15_2 H 0.3503 0.8548 0.1213
H16_2 H 0.3105 0.7579 0.0962
H17_2 H 0.9022 0.7777 0.5068
H18_2 H 0.9791 0.8047 0.4914
H19_2 H 0.9119 0.8981 0.6045
H20_2 H 0.9711 0.9360 0.5675
H21_2 H 0.9853 0.9841 0.7156
H27_2 H 0.9293 0.7372 0.6555
H29_2 H 0.9615 0.8320 0.7619
O12_2 O 0.9619(2) 0.3678(2) 0.4237(2)
O14_2 O 0.9793(2) 0.5271(2) 0.3422(2)
H33_2 H 0.819276 0.673077 0.301052
H34_2 H 0.848644 0.614803 0.240207
H35_2 H 0.797721 0.46618 0.199213
H36_2 H 0.873171 0.393232 0.241548
N3_3 N 0.0045(2) 0.6915(2) 0.1171(2)
C14_3 C 0.0216(3) 0.5487(3) 0.1982(2)
C15_3 C 0.0969(3) 0.6838(3) 0.1499(3)
C16_3 C 0.1366(3) 0.6565(3) 0.2449(3)
C18_3 C 0.0112(3) 0.6934(3) 0.2626(2)
N4_3 N 0.0702(2) 0.6173(2) 0.2666(2)
C19_3 C 0.1122(2) 0.5760(3) 0.3553(2)
C20_3 C 0.0540(2) 0.5398(2) 0.3904(2)
O7_2 O 0.0912(2) 0.5243(2) 0.4701(2)
H22_3 H 0.0592 0.5070 0.1909
H23_3 H 0.1194 0.7412 0.1444
H24_3 H 0.1089 0.6389 0.1169
H25_3 H 0.1787 0.6115 0.2549
H26_3 H 0.1614 0.7084 0.2806
H28_3 H 0.0204 0.8016 0.1941
H30_3 H 0.0378 0.7326 0.3115
H31_3 H 0.1470 0.6219 0.3939
H32_3 H 0.1463 0.5266 0.3535
O13_2 O 0.9088(2) 0.0243(2) 0.0299(2)
O9_3 O 0.8244(2) 0.0794(3) 0.7457(2)
O11_2 O 0.7865(2) 0.1328(2) 0.8777(2)
H35_3 H 0.797721 0.0338204 0.699213
H36_3 H 0.873171 0.106768 0.741548
C11_3 C 0.9775(2) 0.8294(2) 0.0171(2)
C12_3 C 0.9612(3) 0.7299(3) 0.0269(2)
C13_3 C 0.9688(3) 0.5978(3) 0.1137(3)
C17_3 C 0.9875(3) 0.7472(3) 0.1806(2)
H17_3 H 0.9022 0.7223 0.0068
H19_3 H 0.9119 0.6019 0.1045
H20_3 H 0.9711 0.5640 0.0675
H21_3 H 0.9853 0.5159 0.2156
H27_3 H 0.9293 0.7628 0.1555
H29_3 H 0.9615 0.6680 0.2619
O1_3 O 0.7568(2) 0.9390(3) 0.8986(2)
O2_3 O 0.6377(2) 0.9726(3) 0.7838(3)
C1_3 C 0.6809(3) 0.9269(3) 0.8460(3)
C2_3 C 0.6467(3) 0.8423(3) 0.8713(3)
N1_3 N 0.5617(2) 0.8092(3) 0.8076(2)
C3_3 C 0.5597(3) 0.7861(3) 0.7233(3)
C4_3 C 0.4726(3) 0.7542(3) 0.6607(3)
C5_3 C 0.5441(3) 0.7239(3) 0.8439(3)
C6_3 C 0.4643(3) 0.6794(3) 0.7810(3)
C7_3 C 0.4937(3) 0.8753(3) 0.7934(3)
C8_3 C 0.4086(3) 0.8328(3) 0.7393(3)
N2_3 N 0.4188(2) 0.7413(2) 0.7061(2)
C9_3 C 0.3371(3) 0.6999(3) 0.6427(3)
C10_3 C 0.2735(2) 0.6766(3) 0.6762(3)
O3_2 O 0.2135(2) 0.6328(2) 0.6223(2)
O4_3 O 0.2839(2) 0.7018(3) 0.7485(2)
O5_3 O 0.9276(2) 0.8628(2) 0.9468(2)
O10_3 O 0.8154(2) 0.8867(2) 0.7731(2)
H1_3 H 0.6423 0.8584 0.9227
H2_3 H 0.6858 0.7934 0.8836
H3_3 H 0.5963 0.7357 0.7305
H4_3 H 0.5780 0.8377 0.7026
H5_3 H 0.4740 0.7006 0.6300
H6_3 H 0.4482 0.8032 0.6207
H7_3 H 0.5344 0.7432 0.8914
H8_3 H 0.5908 0.6830 0.8641
H9_3 H 0.4802 0.6258 0.7607
H10_3 H 0.4282 0.6630 0.8063
H11_3 H 0.4997 0.9263 0.7622
H12_3 H 0.4977 0.8956 0.8476
H13_3 H 0.3812 0.8247 0.7754
H14_3 H 0.3751 0.8711 0.6916
H15_3 H 0.3503 0.6452 0.6213
H16_3 H 0.3105 0.7421 0.5962
H18_3 H 0.9791 0.6953 0.9914
H33_3 H 0.819276 0.826923 0.801052
H34_3 H 0.848644 0.885197 0.740207
O1_4 O 0.2432(2) 0.4390(3) 0.6014(2)
O2_4 O 0.3623(2) 0.4726(3) 0.7162(3)
C1_4 C 0.3191(3) 0.4269(3) 0.6540(3)
C2_4 C 0.3533(3) 0.3423(3) 0.6287(3)
N1_4 N 0.4383(2) 0.3092(3) 0.6924(2)
C3_4 C 0.4403(3) 0.2861(3) 0.7767(3)
C4_4 C 0.5274(3) 0.2542(3) 0.8393(3)
C5_4 C 0.4559(3) 0.2239(3) 0.6561(3)
C6_4 C 0.5357(3) 0.1794(3) 0.7190(3)
C7_4 C 0.5063(3) 0.3753(3) 0.7066(3)
C8_4 C 0.5914(3) 0.3328(3) 0.7607(3)
N2_4 N 0.5812(2) 0.2413(2) 0.7939(2)
C9_4 C 0.6629(3) 0.1999(3) 0.8573(3)
C10_4 C 0.7265(2) 0.1766(3) 0.8238(3)
O4_4 O 0.7161(2) 0.2018(3) 0.7515(2)
O5_4 O 0.0724(2) 0.3628(2) 0.5532(2)
C11_4 C 0.0225(2) 0.3294(2) 0.4829(2)
C12_4 C 0.0388(3) 0.2299(3) 0.4731(2)
C13_4 C 0.0312(3) 0.0978(3) 0.3863(3)
C17_4 C 0.0125(3) 0.2472(3) 0.3194(2)
O9_4 O 0.1756(2) 0.5794(3) 0.7543(2)
O10_4 O 0.1846(2) 0.3867(2) 0.7269(2)
H1_4 H 0.3577 0.3584 0.5773
H2_4 H 0.3142 0.2934 0.6164
H3_4 H 0.4037 0.2357 0.7695
H4_4 H 0.4220 0.3377 0.7974
H5_4 H 0.5260 0.2006 0.8700
H6_4 H 0.5518 0.3032 0.8793
H7_4 H 0.4656 0.2432 0.6086
H8_4 H 0.4092 0.1830 0.6359
H9_4 H 0.5198 0.1258 0.7393
H10_4 H 0.5718 0.1630 0.6937
H11_4 H 0.5003 0.4263 0.7378
H12_4 H 0.5023 0.3956 0.6524
H13_4 H 0.6188 0.3247 0.7246
H14_4 H 0.6249 0.3711 0.8084
H15_4 H 0.6497 0.1452 0.8787
H16_4 H 0.6895 0.2421 0.9038
H17_4 H 0.0978 0.2223 0.4932
H18_4 H 0.0209 0.1953 0.5086
H19_4 H 0.0881 0.1019 0.3955
H20_4 H 0.0289 0.0640 0.4325
H21_4 H 0.0147 0.0159 0.2844
H27_4 H 0.0707 0.2628 0.3445
H29_4 H 0.0385 0.1680 0.2381
H33_4 H 0.180724 0.326923 0.698948
H34_4 H 0.151356 0.385197 0.759793
H35_4 H 0.202279 0.53382 0.800787
H36_4 H 0.126829 0.606768 0.758452
N3_4 N 0.9955(2) 0.1915(2) 0.3829(2)
C14_4 C 0.9784(3) 0.0487(3) 0.3018(2)
C15_4 C 0.9031(3) 0.1838(3) 0.3501(3)
C16_4 C 0.8634(3) 0.1565(3) 0.2551(3)
C18_4 C 0.9888(3) 0.1934(3) 0.2374(2)
N4_4 N 0.9298(2) 0.1173(2) 0.2334(2)
C19_4 C 0.8878(2) 0.0760(3) 0.1447(2)
C20_4 C 0.9460(2) 0.0398(2) 0.1096(2)
H22_4 H 0.9408 0.0070 0.3091
H23_4 H 0.8806 0.2412 0.3556
H24_4 H 0.8911 0.1389 0.3831
H25_4 H 0.8213 0.1115 0.2451
H26_4 H 0.8386 0.2084 0.2194
H28_4 H 0.9796 0.3016 0.3059
H30_4 H 0.9622 0.2326 0.1885
H31_4 H 0.8530 0.1219 0.1061
H32_4 H 0.8537 0.0266 0.1465
Cl1 Cl 0.1634(1) 0.8766(1) 0.4592(1)
O15 O 0.0817(4) 0.8777(4) 0.4473(4)
O16 O 0.1842(4) 0.7983(3) 0.4257(3)
O17 O 0.2160(3) 0.8844(3) 0.5471(3)
O18 O 0.1706(3) 0.9562(3) 0.4132(3)
Cl1_2 Cl 0.8366(1) 0.3766(1) 0.0408(1)
O15_2 O 0.9183(4) 0.3777(4) 0.0527(4)
O16_2 O 0.8158(4) 0.2983(3) 0.0743(3)
O18_2 O 0.8294(3) 0.4562(3) 0.0868(3)
O17_2 O 0.7840(3) 0.3844(3) 0.9529(3)
Cl1_3 Cl 0.8366(1) 0.1234(1) 0.5408(1)
O15_3 O 0.9183(4) 0.1223(4) 0.5527(4)
O16_3 O 0.8158(4) 0.2017(3) 0.5743(3)
O17_3 O 0.7840(3) 0.1156(3) 0.4529(3)
O18_3 O 0.8294(3) 0.0438(3) 0.5868(3)
O17_4 O 0.2160(3) 0.6156(3) 0.0471(3)
Cl1_4 Cl 0.1634(1) 0.6234(1) 0.9592(1)
O15_4 O 0.0817(4) 0.6223(4) 0.9473(4)
O16_4 O 0.1842(4) 0.7017(3) 0.9257(3)
O18_4 O 0.1706(3) 0.5438(3) 0.9132(3)
Cl2 Cl 0.8228(1) 0.6348(1) 0.7999(1)
O19 O 0.7735(3) 0.6986(3) 0.8152(4)
O20 O 0.8589(4) 0.5758(4) 0.8731(3)
O21 O 0.8906(3) 0.6792(4) 0.7973(4)
O22 O 0.7823(3) 0.5779(4) 0.7313(4)
Cl2_2 Cl 0.1772(1) 0.1348(1) 0.7001(1)
O19_2 O 0.2265(3) 0.1986(3) 0.6848(4)
O20_2 O 0.1411(4) 0.0758(4) 0.6269(3)
O21_2 O 0.1094(3) 0.1792(4) 0.7027(4)
O22_2 O 0.2177(3) 0.0779(4) 0.7687(4)
Cl2_3 Cl 0.1772(1) 0.3652(1) 0.2001(1)
O19_3 O 0.2265(3) 0.3014(3) 0.1848(4)
O20_3 O 0.1411(4) 0.4242(4) 0.1269(3)
O21_3 O 0.1094(3) 0.3208(4) 0.2027(4)
O22_3 O 0.2177(3) 0.4221(4) 0.2687(4)
Cl2_4 Cl 0.8228(1) 0.8652(1) 0.2999(1)
O19_4 O 0.7735(3) 0.8014(3) 0.3152(4)
O20_4 O 0.8589(4) 0.9242(4) 0.3731(3)
O21_4 O 0.8906(3) 0.8208(4) 0.2973(4)
O22_4 O 0.7823(3) 0.9221(4) 0.2313(4)
O23 O 0.3334(3) 0.0156(2) 0.9250(3)
O26 O 0.4181(3) 0.9460(3) 0.0532(2)
Cl3 Cl 0.3735(1) 0.9340(2) 0.9629(1)
O24 O 0.4297(2) 0.9091(3) 0.9304(3)
O25 O 0.3136(2) 0.8649(3) 0.9454(3)
Cl3_2 Cl 0.6265(1) 0.4340(2) 0.5371(1)
O23_2 O 0.6666(3) 0.5156(2) 0.5750(3)
O24_2 O 0.5703(2) 0.4091(3) 0.5696(3)
O25_2 O 0.6864(2) 0.3649(3) 0.5546(3)
O26_2 O 0.5819(3) 0.4460(3) 0.4468(2)
Cl3_3 Cl 0.6265(1) 0.0660(2) 0.0371(1)
O24_3 O 0.5703(2) 0.0909(3) 0.0696(3)
O25_3 O 0.6864(2) 0.1351(3) 0.0546(3)
O26_3 O 0.5819(3) 0.0540(3) 0.9468(2)
O23_3 O 0.6666(3) 0.9844(2) 0.0750(3)
Cl3_4 Cl 0.3735(1) 0.5660(2) 0.4629(1)
O23_4 O 0.3334(3) 0.4844(2) 0.4250(3)
O24_4 O 0.4297(2) 0.5909(3) 0.4304(3)
O25_4 O 0.3136(2) 0.6351(3) 0.4454(3)
O26_4 O 0.4181(3) 0.5540(3) 0.5532(2)
loop_
_geom_bond_atom_site_label_1
_geom_bond_atom_site_label_2
_geom_bond_site_symmetry_1
_geom_bond_site_symmetry_2
O1 C1 1_555 1_555
O2 C1 1_555 1_555
C1 C2 1_555 1_555
C2 N1 1_555 1_555
N1 C3 1_555 1_555
C3 C4 1_555 1_555
C4 N2 1_555 1_555
C5 N1 1_555 1_555
C6 C5 1_555 1_555
C7 N1 1_555 1_555
C8 C7 1_555 1_555
N2 C6 1_555 1_555
C9 N2 1_555 1_555
C10 C9 1_555 1_555
O3 C10 1_555 1_555
O4 C10 1_555 1_555
H1 C2 1_555 1_555
H2 C2 1_555 1_555
H3 C3 1_555 1_555
H4 C3 1_555 1_555
H5 C4 1_555 1_555
H6 C4 1_555 1_555
H7 C5 1_555 1_555
H8 C5 1_555 1_555
H9 C6 1_555 1_555
H10 C6 1_555 1_555
H11 C7 1_555 1_555
H12 C7 1_555 1_555
H13 C8 1_555 1_555
H14 C8 1_555 1_555
H15 C9 1_555 1_555
H16 C9 1_555 1_555
Gd2 O3 1_555 1_555
C8 N2 1_555 1_555
O10 H33 1_555 1_555
O10 H34 1_555 1_555
C11 C12 1_555 1_555
H17 C12 1_555 1_555
H19 C13 1_555 1_555
H20 C13 1_555 1_555
H27 C17 1_555 1_555
Gd5 O8 1_555 1_555
O9 Gd1 1_555 1_555
O11 Gd1 1_555 1_555
O12 Gd1 1_555 1_555
O9 H35 1_555 1_555
O9 H36 1_555 1_555
C14 N4 1_555 1_555
C15 N3 1_555 1_555
C16 C15 1_555 1_555
N4 C16 1_555 1_555
C19 N4 1_555 1_555
C20 C19 1_555 1_555
O7 C20 1_555 1_555
H22 C14 1_555 1_555
H23 C15 1_555 1_555
H24 C15 1_555 1_555
H25 C16 1_555 1_555
H26 C16 1_555 1_555
H30 C18 1_555 1_555
H31 C19 1_555 1_555
H32 C19 1_555 1_555
Gd3 O6 1_555 1_555
Gd2 O7 1_555 1_555
C18 N4 1_555 1_555
C14_2 N4_2 1_555 1_555
C15_2 N3_2 1_555 1_555
C16_2 C15_2 1_555 1_555
N4_2 C16_2 1_555 1_555
C19_2 N4_2 1_555 1_555
C20_2 C19_2 1_555 1_555
O13 C20_2 1_555 1_555
H22_2 C14_2 1_555 1_555
H23_2 C15_2 1_555 1_555
H24_2 C15_2 1_555 1_555
H25_2 C16_2 1_555 1_555
H26_2 C16_2 1_555 1_555
H30_2 C18_2 1_555 1_555
H31_2 C19_2 1_555 1_555
H32_2 C19_2 1_555 1_555
Gd5 O6_2 1_555 1_555
C18_2 N4_2 1_555 1_555
O1_2 C1_2 1_555 1_555
O2_2 C1_2 1_555 1_555
C1_2 C2_2 1_555 1_555
C2_2 N1_2 1_555 1_555
N1_2 C3_2 1_555 1_555
C3_2 C4_2 1_555 1_555
C4_2 N2_2 1_555 1_555
C5_2 N1_2 1_555 1_555
C6_2 C5_2 1_555 1_555
C7_2 N1_2 1_555 1_555
C8_2 C7_2 1_555 1_555
N2_2 C6_2 1_555 1_555
C9_2 N2_2 1_555 1_555
C10_2 C9_2 1_555 1_555
O11 C10_2 1_555 1_555
O4_2 C10_2 1_555 1_555
O5_2 C11_2 1_555 1_555
C11_2 C12_2 1_555 1_555
Gd2 O1_2 1_555 1_555
O9_2 Gd2 1_555 1_555
O10_2 Gd2 1_555 1_555
H1_2 C2_2 1_555 1_555
H2_2 C2_2 1_555 1_555
H3_2 C3_2 1_555 1_555
H4_2 C3_2 1_555 1_555
H5_2 C4_2 1_555 1_555
H6_2 C4_2 1_555 1_555
H7_2 C5_2 1_555 1_555
H8_2 C5_2 1_555 1_555
H9_2 C6_2 1_555 1_555
H10_2 C6_2 1_555 1_555
H11_2 C7_2 1_555 1_555
H12_2 C7_2 1_555 1_555
H13_2 C8_2 1_555 1_555
H14_2 C8_2 1_555 1_555
H15_2 C9_2 1_555 1_555
H16_2 C9_2 1_555 1_555
H17_2 C12_2 1_555 1_555
H18_2 C12_2 1_555 1_555
H19_2 C13_2 1_555 1_555
H20_2 C13_2 1_555 1_555
H27_2 C17_2 1_555 1_555
O12_2 Gd2 1_555 1_555
O14_2 Gd2 1_555 1_555
C8_2 N2_2 1_555 1_555
O5_2 Gd2 1_555 1_555
O10_2 H33_2 1_555 1_555
O10_2 H34_2 1_555 1_555
O9_2 H35_2 1_555 1_555
O9_2 H36_2 1_555 1_555
C14_3 N4_3 1_555 1_555
C15_3 N3_3 1_555 1_555
C16_3 C15_3 1_555 1_555
N4_3 C16_3 1_555 1_555
C19_3 N4_3 1_555 1_555
C20_3 C19_3 1_555 1_555
O7_2 C20_3 1_555 1_555
H22_3 C14_3 1_555 1_555
H23_3 C15_3 1_555 1_555
H24_3 C15_3 1_555 1_555
H25_3 C16_3 1_555 1_555
H26_3 C16_3 1_555 1_555
H30_3 C18_3 1_555 1_555
H31_3 C19_3 1_555 1_555
H32_3 C19_3 1_555 1_555
Gd5 O7_2 1_555 1_555
C18_3 N4_3 1_555 1_555
O9_3 Gd3 1_555 1_555
O11_2 Gd3 1_555 1_555
O9_3 H35_3 1_555 1_555
O9_3 H36_3 1_555 1_555
C11_3 C12_3 1_555 1_555
H17_3 C12_3 1_555 1_555
H19_3 C13_3 1_555 1_555
H20_3 C13_3 1_555 1_555
H27_3 C17_3 1_555 1_555
O1_3 C1_3 1_555 1_555
O2_3 C1_3 1_555 1_555
C1_3 C2_3 1_555 1_555
C2_3 N1_3 1_555 1_555
N1_3 C3_3 1_555 1_555
C3_3 C4_3 1_555 1_555
C4_3 N2_3 1_555 1_555
C5_3 N1_3 1_555 1_555
C6_3 C5_3 1_555 1_555
C7_3 N1_3 1_555 1_555
C8_3 C7_3 1_555 1_555
N2_3 C6_3 1_555 1_555
C9_3 N2_3 1_555 1_555
C10_3 C9_3 1_555 1_555
O3_2 C10_3 1_555 1_555
O4_3 C10_3 1_555 1_555
H1_3 C2_3 1_555 1_555
H2_3 C2_3 1_555 1_555
H3_3 C3_3 1_555 1_555
H4_3 C3_3 1_555 1_555
H5_3 C4_3 1_555 1_555
H6_3 C4_3 1_555 1_555
H7_3 C5_3 1_555 1_555
H8_3 C5_3 1_555 1_555
H9_3 C6_3 1_555 1_555
H10_3 C6_3 1_555 1_555
H11_3 C7_3 1_555 1_555
H12_3 C7_3 1_555 1_555
H13_3 C8_3 1_555 1_555
H14_3 C8_3 1_555 1_555
H15_3 C9_3 1_555 1_555
H16_3 C9_3 1_555 1_555
Gd5 O3_2 1_555 1_555
C8_3 N2_3 1_555 1_555
O10_3 H33_3 1_555 1_555
O10_3 H34_3 1_555 1_555
O1_4 C1_4 1_555 1_555
O2_4 C1_4 1_555 1_555
C1_4 C2_4 1_555 1_555
C2_4 N1_4 1_555 1_555
N1_4 C3_4 1_555 1_555
C3_4 C4_4 1_555 1_555
C4_4 N2_4 1_555 1_555
C5_4 N1_4 1_555 1_555
C6_4 C5_4 1_555 1_555
C7_4 N1_4 1_555 1_555
C8_4 C7_4 1_555 1_555
N2_4 C6_4 1_555 1_555
C9_4 N2_4 1_555 1_555
C10_4 C9_4 1_555 1_555
O11_2 C10_4 1_555 1_555
O4_4 C10_4 1_555 1_555
O5_4 C11_4 1_555 1_555
C11_4 C12_4 1_555 1_555
Gd5 O1_4 1_555 1_555
O9_4 Gd5 1_555 1_555
O10_4 Gd5 1_555 1_555
H1_4 C2_4 1_555 1_555
H2_4 C2_4 1_555 1_555
H3_4 C3_4 1_555 1_555
H4_4 C3_4 1_555 1_555
H5_4 C4_4 1_555 1_555
H6_4 C4_4 1_555 1_555
H7_4 C5_4 1_555 1_555
H8_4 C5_4 1_555 1_555
H9_4 C6_4 1_555 1_555
H10_4 C6_4 1_555 1_555
H11_4 C7_4 1_555 1_555
H12_4 C7_4 1_555 1_555
H13_4 C8_4 1_555 1_555
H14_4 C8_4 1_555 1_555
H15_4 C9_4 1_555 1_555
H16_4 C9_4 1_555 1_555
H17_4 C12_4 1_555 1_555
H18_4 C12_4 1_555 1_555
H19_4 C13_4 1_555 1_555
H20_4 C13_4 1_555 1_555
H27_4 C17_4 1_555 1_555
C8_4 N2_4 1_555 1_555
O5_4 Gd5 1_555 1_555
O10_4 H33_4 1_555 1_555
O10_4 H34_4 1_555 1_555
O9_4 H35_4 1_555 1_555
O9_4 H36_4 1_555 1_555
C14_4 N4_4 1_555 1_555
C15_4 N3_4 1_555 1_555
C16_4 C15_4 1_555 1_555
N4_4 C16_4 1_555 1_555
C19_4 N4_4 1_555 1_555
C20_4 C19_4 1_555 1_555
O13_2 C20_4 1_555 1_555
H22_4 C14_4 1_555 1_555
H23_4 C15_4 1_555 1_555
H24_4 C15_4 1_555 1_555
H25_4 C16_4 1_555 1_555
H26_4 C16_4 1_555 1_555
H30_4 C18_4 1_555 1_555
H31_4 C19_4 1_555 1_555
H32_4 C19_4 1_555 1_555
C18_4 N4_4 1_555 1_555
Cl1 O15 1_555 1_555
O16 Cl1 1_555 1_555
O17 Cl1 1_555 1_555
O18 Cl1 1_555 1_555
Cl1_2 O15_2 1_555 1_555
O16_2 Cl1_2 1_555 1_555
O18_2 Cl1_2 1_555 1_555
Cl1_3 O15_3 1_555 1_555
O16_3 Cl1_3 1_555 1_555
O17_3 Cl1_3 1_555 1_555
O18_3 Cl1_3 1_555 1_555
Cl1_4 O15_4 1_555 1_555
O16_4 Cl1_4 1_555 1_555
O18_4 Cl1_4 1_555 1_555
Cl2 O19 1_555 1_555
O20 Cl2 1_555 1_555
O21 Cl2 1_555 1_555
O22 Cl2 1_555 1_555
Cl2_2 O19_2 1_555 1_555
O20_2 Cl2_2 1_555 1_555
O21_2 Cl2_2 1_555 1_555
O22_2 Cl2_2 1_555 1_555
Cl2_3 O19_3 1_555 1_555
O20_3 Cl2_3 1_555 1_555
O21_3 Cl2_3 1_555 1_555
O22_3 Cl2_3 1_555 1_555
Cl2_4 O19_4 1_555 1_555
O20_4 Cl2_4 1_555 1_555
O21_4 Cl2_4 1_555 1_555
O22_4 Cl2_4 1_555 1_555
O24 Cl3 1_555 1_555
O25 Cl3 1_555 1_555
Cl3_2 O23_2 1_555 1_555
O24_2 Cl3_2 1_555 1_555
O25_2 Cl3_2 1_555 1_555
O26_2 Cl3_2 1_555 1_555
O24_3 Cl3_3 1_555 1_555
O25_3 Cl3_3 1_555 1_555
Cl3_4 O23_4 1_555 1_555
O24_4 Cl3_4 1_555 1_555
O25_4 Cl3_4 1_555 1_555
O26_4 Cl3_4 1_555 1_555

#END
