
###############################################################################
#
# This file contains modified crystal structure data generated from the
# MOF subset of the Cambridge Structural Database (CSD) v543 
# hosted by the Cambridge Crystallographic Data Centre (CCDC).
#
# This work is licensed under the Creative Commons
# Attribution-NonCommercial-ShareAlike 4.0 International License.
# To view a copy of this license, visit
# http://creativecommons.org/licenses/by-nc-sa/4.0/
# or send a letter to
# Creative Commons, PO Box 1866, Mountain View, CA 94042, USA.
#
# CIF created using the CSD Python API on 29 September 2022
# The structure has been converted into the P1 space group
# The structure has a 3D framework
# The original CSD entry PUFRIT is in the monoclinic crystal system
# The framework has been calculated to contain at least 10.0% void space
# The void calculation uses a probe of radius 1.32A, grid spacing 0.4
# The framework is charged, counterions have been retained in the structure
#
###############################################################################

data_PUFRIT
_chemical_formula_moiety         '(C164 H112 N12 O66 Zn16)n'
_symmetry_cell_setting           triclinic
_symmetry_space_group_name_H-M   'P 1'
_symmetry_Int_Tables_number      1
_space_group_name_Hall           'P 1'
loop_
_symmetry_equiv_pos_site_id
_symmetry_equiv_pos_as_xyz
1 x,y,z
_cell_length_a                   10.3371(8)
_cell_length_b                   31.988(2)
_cell_length_c                   31.939(2)
_cell_angle_alpha                90
_cell_angle_beta                 91.9370(10)
_cell_angle_gamma                90
_cell_volume                     10555
loop_
_atom_site_label
_atom_site_type_symbol
_atom_site_fract_x
_atom_site_fract_y
_atom_site_fract_z
C11 C 0.08069(19) 0.76313(6) 0.10928(6)
C12 C 0.0772(2) 0.75568(7) 0.06657(7)
H6 H 0.1542 0.7527 0.0526
C15 C 0.2052(2) 0.76762(7) 0.13321(7)
O6 O 0.20150(13) 0.76566(4) 0.17225(4)
O7 O 0.30707(14) 0.77423(5) 0.11270(5)
Zn14 Zn 0.02576(2) 0.371327(7) 0.297280(8)
Zn17 Zn 0.46984(2) 0.800104(7) 0.132487(7)
Zn19 Zn 0.33195(2) 0.782246(8) 0.216387(8)
C18 C 0.0156(2) 0.72526(9) 0.91452(7)
H8 H 0.0848 0.7210 0.9334
C19 C 0.0301(2) 0.71875(8) 0.87167(7)
H9 H 0.1091 0.7097 0.8619
H19 H 0.0346 0.7460 0.9902
O10 O 0.03773(15) 0.70575(5) 0.78360(5)
Zn12 Zn 0.12304(2) 0.712061(7) 0.721637(8)
H3 H 0.5124 0.0213 0.0687
H22 H 0.5191 0.0672 0.0207
C55 C 0.1339(2) 0.25931(8) 0.02569(7)
C56 C 0.1053(2) 0.26164(8) 0.07130(7)
C59 C 0.0727(2) 0.27426(7) 0.15621(7)
C60 C 0.1927(2) 0.26181(8) 0.14187(8)
H30 H 0.2630 0.2583 0.1605
C61 C 0.2058(2) 0.25456(8) 0.09835(8)
H31 H 0.2839 0.2449 0.0885
C62 C 0.0659(2) 0.28122(7) 0.20278(7)
O25 O 0.25260(15) 0.25917(5) 0.01517(5)
O26 O 0.16364(14) 0.27045(5) 0.22343(5)
Zn21 Zn 0.16805(2) 0.282246(8) 0.283613(8)
C40 C 0.5293(2) 0.11008(7) 0.88782(7)
C41 C 0.5206(2) 0.07672(7) 0.92136(7)
C42 C 0.5264(2) 0.08862(8) 0.96344(7)
H21 H 0.5366 0.1166 0.9709
C43 C 0.5171(2) 0.05915(8) 0.99274(8)
C44 C 0.5044(2) 0.01632(7) 0.98299(7)
C45 C 0.4985(2) 0.00644(8) 0.93934(7)
C46 C 0.5079(2) 0.03521(7) 0.91012(7)
H24 H 0.5061 0.0276 0.8820
O18 O 0.52480(14) 0.09795(4) 0.85083(5)
O19 O 0.53242(14) 0.14721(4) 0.89955(4)
C47 C 0.2745(2) 0.22688(7) 0.86960(7)
C48 C 0.1521(2) 0.23589(7) 0.89131(6)
C49 C 0.03298(19) 0.23348(6) 0.86863(6)
H25 H 0.0302 0.2297 0.8397
C52 C 0.0384(2) 0.24733(7) 0.95536(7)
C53 C 0.1556(2) 0.24277(7) 0.93445(7)
H27 H 0.2344 0.2443 0.9493
C63 C 0.7197(2) 0.62722(7) 0.73054(7)
C64 C 0.5968(2) 0.60432(6) 0.73804(6)
C65 C 0.59353(19) 0.56064(7) 0.74469(7)
H32 H 0.6704 0.5455 0.7466
C66 C 0.4766(2) 0.54039(7) 0.74841(7)
C67 C 0.36243(18) 0.56249(6) 0.74707(7)
H33 H 0.2846 0.5486 0.7507
C68 C 0.3624(2) 0.60541(7) 0.74030(7)
C69 C 0.4801(2) 0.62646(6) 0.73677(7)
H34 H 0.4807 0.6554 0.7336
C70 C 0.24058(19) 0.62976(6) 0.73597(6)
C71 C 0.3861(2) 0.47004(7) 0.75908(7)
C72 C 0.4178(2) 0.42462(7) 0.76294(7)
C73 C 0.5397(2) 0.40932(7) 0.77383(7)
H35 H 0.6093 0.4275 0.7776
C74 C 0.5572(2) 0.36672(7) 0.77908(7)
H36 H 0.6392 0.3564 0.7861
C75 C 0.4550(2) 0.33934(7) 0.77404(7)
C76 C 0.3310(2) 0.35455(7) 0.76284(7)
H37 H 0.2620 0.3361 0.7589
C77 C 0.3120(2) 0.39731(7) 0.75766(8)
H38 H 0.2301 0.4077 0.7508
C78 C 0.4731(2) 0.29290(6) 0.77854(7)
N3 N 0.04062(17) 0.25377(6) 0.99916(5)
N4 N 0.48150(18) 0.49698(5) 0.75445(6)
H40 H 0.5579 0.4863 0.7553
O20 O 0.52506(13) 0.18739(4) 0.80852(4)
O21 O 0.37776(14) 0.22718(4) 0.88975(4)
O22 O 0.26176(14) 0.22126(5) 0.83071(5)
O28 O 0.82107(13) 0.60539(4) 0.72866(4)
O29 O 0.71244(14) 0.66525(4) 0.72691(5)
O30 O 0.24870(13) 0.66866(4) 0.73874(4)
O31 O 0.13842(13) 0.60957(4) 0.72937(4)
O32 O 0.27468(15) 0.48319(5) 0.76511(5)
O33 O 0.57614(14) 0.27949(4) 0.79150(5)
O34 O 0.37607(14) 0.27213(4) 0.76788(4)
Zn5 Zn 0.37696(2) 0.212061(7) 0.778363(8)
Zn6 Zn 0.52576(2) 0.128673(7) 0.797280(8)
Zn7 Zn 0.53016(2) 0.199896(7) 0.867513(7)
Zn8 Zn 0.66805(2) 0.217754(8) 0.783613(8)
O36 O 0.79850(13) 0.23434(4) 0.82775(4)
O38 O 0.69293(14) 0.22577(5) 0.88730(5)
O39 O 0.66364(14) 0.22955(5) 0.72343(5)
O41 O 0.46227(15) 0.20575(5) 0.71640(5)
O44 O 0.67893(13) 0.10539(4) 0.77134(4)
O46 O 0.78756(14) 0.16525(4) 0.77309(5)
O48 O 0.25130(13) 0.16866(4) 0.76126(4)
O50 O 0.36158(13) 0.10957(4) 0.77063(4)
Zn16 Zn 0.97424(2) 0.628673(7) 0.702720(8)
Zn24 Zn 0.83195(2) 0.717754(8) 0.716387(8)
C1 C 0.4707(2) 0.88992(7) 0.11218(7)
C2 C 0.4794(2) 0.92328(7) 0.07864(7)
C3 C 0.4736(2) 0.91138(8) 0.03656(7)
H1 H 0.4634 0.8834 0.0291
C4 C 0.4829(2) 0.94085(8) 0.00726(8)
C5 C 0.4956(2) 0.98368(7) 0.01701(7)
C6 C 0.5015(2) 0.99356(8) 0.06066(7)
C7 C 0.4921(2) 0.96479(7) 0.08988(7)
H4 H 0.4939 0.9724 0.1180
C8 C 0.7255(2) 0.77312(7) 0.13040(7)
C9 C 0.8479(2) 0.76411(7) 0.10869(6)
C10 C 0.96702(19) 0.76652(6) 0.13137(6)
H5 H 0.9698 0.7703 0.1603
C13 C 0.9616(2) 0.75267(7) 0.04464(7)
C14 C 0.8444(2) 0.75723(7) 0.06555(7)
H7 H 0.7656 0.7557 0.0507
C24 C 0.2803(2) 0.37278(7) 0.26946(7)
C25 C 0.4032(2) 0.39568(6) 0.26196(6)
C26 C 0.40647(19) 0.43936(7) 0.25531(7)
H12 H 0.3296 0.4545 0.2534
C27 C 0.5234(2) 0.45961(7) 0.25159(7)
C28 C 0.63757(18) 0.43751(6) 0.25293(7)
H13 H 0.7154 0.4514 0.2493
C29 C 0.6376(2) 0.39459(7) 0.25970(7)
C30 C 0.5199(2) 0.37354(6) 0.26323(7)
H14 H 0.5193 0.3446 0.2664
C31 C 0.75942(19) 0.37024(6) 0.26403(6)
C32 C 0.6139(2) 0.52996(7) 0.24092(7)
C33 C 0.5822(2) 0.57538(7) 0.23706(7)
C34 C 0.4603(2) 0.59068(7) 0.22617(7)
H15 H 0.3907 0.5725 0.2224
C35 C 0.4428(2) 0.63328(7) 0.22092(7)
H16 H 0.3608 0.6436 0.2139
C36 C 0.5450(2) 0.66066(7) 0.22596(7)
C37 C 0.6690(2) 0.64545(7) 0.23716(7)
H17 H 0.7380 0.6639 0.2411
C38 C 0.6880(2) 0.60269(7) 0.24234(8)
H18 H 0.7699 0.5923 0.2492
C39 C 0.5269(2) 0.70710(6) 0.22146(7)
N1 N 0.95938(17) 0.74623(6) 0.00084(5)
N2 N 0.51850(18) 0.50302(5) 0.24555(6)
H20 H 0.4421 0.5137 0.2447
O1 O 0.47494(13) 0.81261(4) 0.19148(4)
O2 O 0.47520(14) 0.90205(4) 0.14917(5)
O3 O 0.46758(14) 0.85279(4) 0.10045(4)
O4 O 0.62224(14) 0.77282(4) 0.11025(4)
O5 O 0.73824(14) 0.77874(5) 0.16929(5)
O11 O 0.17893(13) 0.39461(4) 0.27134(4)
O12 O 0.28756(14) 0.33475(4) 0.27309(5)
O13 O 0.75130(13) 0.33134(4) 0.26126(4)
O14 O 0.86158(13) 0.39043(4) 0.27063(4)
O15 O 0.72532(15) 0.51681(5) 0.23489(5)
O16 O 0.42386(14) 0.72051(4) 0.20850(5)
O17 O 0.62393(14) 0.72787(4) 0.23212(4)
Zn1 Zn 0.62304(2) 0.787939(7) 0.221637(8)
Zn2 Zn 0.47424(2) 0.871327(7) 0.202720(8)
O40 O 0.33636(14) 0.77045(5) 0.27657(5)
O42 O 0.53773(15) 0.79425(5) 0.28360(5)
O43 O 0.32107(13) 0.89461(4) 0.22866(4)
O45 O 0.21244(14) 0.83475(4) 0.22691(5)
O47 O 0.74870(13) 0.83134(4) 0.23874(4)
O49 O 0.63842(13) 0.89043(4) 0.22937(4)
Zn10 Zn 0.87696(2) 0.287939(7) 0.278363(8)
H2 H 0.4809 0.9328 0.9793
C16 C 0.8661(2) 0.74069(8) 0.97431(7)
C17 C 0.8947(2) 0.73836(8) 0.92870(7)
C20 C 0.9273(2) 0.72574(7) 0.84379(7)
C21 C 0.8073(2) 0.73819(8) 0.85813(8)
H10 H 0.7370 0.7417 0.8395
C22 C 0.7942(2) 0.74544(8) 0.90165(8)
H11 H 0.7161 0.7551 0.9115
C23 C 0.9341(2) 0.71878(7) 0.79722(7)
O8 O 0.74740(15) 0.74083(5) 0.98483(5)
O9 O 0.83636(14) 0.72955(5) 0.77657(5)
H23 H 0.4876 0.9787 0.9313
C57 C 0.9844(2) 0.27474(9) 0.08548(7)
H28 H 0.9152 0.2790 0.0666
C58 C 0.9699(2) 0.28125(8) 0.12833(7)
H29 H 0.8909 0.2903 0.1381
H39 H 0.9654 0.2540 0.0098
O27 O 0.96227(15) 0.29425(5) 0.21640(5)
C50 C 0.91931(19) 0.23687(6) 0.89072(6)
C51 C 0.9228(2) 0.24432(7) 0.93343(7)
H26 H 0.8458 0.2473 0.9474
C54 C 0.7948(2) 0.23238(7) 0.86679(7)
C66_2 C 0.0234(2) 0.04039(7) 0.75159(7)
C67_2 C 0.13757(18) 0.06249(6) 0.75293(7)
H33_2 H 0.2154 0.0486 0.7493
C68_2 C 0.1376(2) 0.10541(7) 0.75970(7)
C69_2 C 0.0199(2) 0.12646(6) 0.76323(7)
H34_2 H 0.0193 0.1554 0.7664
C70_2 C 0.25942(19) 0.12976(6) 0.76403(6)
C1_2 C 0.0293(2) 0.38992(7) 0.38782(7)
C2_2 C 0.0206(2) 0.42328(7) 0.42136(7)
C3_2 C 0.0264(2) 0.41138(8) 0.46344(7)
H1_2 H 0.0366 0.3834 0.4709
C4_2 C 0.0171(2) 0.44085(8) 0.49274(8)
H2_2 H 0.0191 0.4328 0.5207
C5_2 C 0.0044(2) 0.48368(7) 0.48299(7)
C7_2 C 0.0079(2) 0.46479(7) 0.41012(7)
H4_2 H 0.0061 0.4724 0.3820
C34_2 C 0.0397(2) 0.09068(7) 0.27383(7)
H15_2 H 0.1093 0.0725 0.2776
C35_2 C 0.0572(2) 0.13328(7) 0.27908(7)
H16_2 H 0.1392 0.1436 0.2861
H20_2 H 0.0579 0.0137 0.2553
O1_2 O 0.02506(13) 0.31261(4) 0.30852(4)
O2_2 O 0.02480(14) 0.40205(4) 0.35083(5)
O3_2 O 0.03242(14) 0.35279(4) 0.39955(4)
O16_2 O 0.07614(14) 0.22051(4) 0.29150(5)
Zn3 Zn 0.03016(2) 0.300104(7) 0.367513(7)
C45_2 C 0.0015(2) 0.50644(8) 0.56066(7)
H23_2 H 0.0124 0.4787 0.5687
C47_2 C 0.2255(2) 0.72688(7) 0.63040(7)
C48_2 C 0.3479(2) 0.73589(7) 0.60869(6)
C49_2 C 0.46702(19) 0.73348(6) 0.63137(6)
H25_2 H 0.4698 0.7297 0.6603
C50_2 C 0.58069(19) 0.73687(6) 0.60928(6)
C51_2 C 0.5772(2) 0.74432(7) 0.56657(7)
H26_2 H 0.6542 0.7473 0.5526
C52_2 C 0.4616(2) 0.74733(7) 0.54464(7)
C53_2 C 0.3444(2) 0.74277(7) 0.56555(7)
H27_2 H 0.2656 0.7443 0.5507
C54_2 C 0.7052(2) 0.73238(7) 0.63321(7)
C55_2 C 0.3661(2) 0.75931(8) 0.47431(7)
C56_2 C 0.3947(2) 0.76164(8) 0.42870(7)
C57_2 C 0.5156(2) 0.77474(9) 0.41452(7)
H28_2 H 0.5848 0.7790 0.4334
C58_2 C 0.5301(2) 0.78125(8) 0.37167(7)
H29_2 H 0.6091 0.7903 0.3619
C59_2 C 0.4273(2) 0.77426(7) 0.34379(7)
C60_2 C 0.3073(2) 0.76181(8) 0.35813(8)
H30_2 H 0.2370 0.7583 0.3395
C61_2 C 0.2942(2) 0.75456(8) 0.40165(8)
H31_2 H 0.2161 0.7449 0.4115
C62_2 C 0.4341(2) 0.78122(7) 0.29722(7)
C71_2 C 0.1139(2) 0.97004(7) 0.74092(7)
C72_2 C 0.0822(2) 0.92462(7) 0.73706(7)
C75_2 C 0.0450(2) 0.83934(7) 0.72596(7)
C76_2 C 0.1690(2) 0.85455(7) 0.73716(7)
H37_2 H 0.2380 0.8361 0.7411
C77_2 C 0.1880(2) 0.89731(7) 0.74234(8)
H38_2 H 0.2699 0.9077 0.7492
C78_2 C 0.0269(2) 0.79290(6) 0.72146(7)
N3_2 N 0.45938(17) 0.75377(6) 0.50084(5)
H39_2 H 0.5346 0.7540 0.4902
N4_2 N 0.01850(18) 0.99698(5) 0.74555(6)
O21_2 O 0.12224(14) 0.72718(4) 0.61025(4)
O22_2 O 0.23824(14) 0.72126(5) 0.66929(5)
O23 O 0.70150(13) 0.73434(4) 0.67225(4)
O24 O 0.80707(14) 0.72577(5) 0.61270(5)
O25_2 O 0.24740(15) 0.75917(5) 0.48483(5)
O32_2 O 0.22532(15) 0.98319(5) 0.73489(5)
O34_2 O 0.12393(14) 0.77213(4) 0.73212(4)
O35 O 0.29850(13) 0.26566(4) 0.32775(4)
O37 O 0.19293(14) 0.27423(5) 0.38730(5)
Zn18 Zn 0.96984(2) 0.699896(7) 0.632487(7)
C24_2 C 0.2197(2) 0.87278(7) 0.23054(7)
C25_2 C 0.0968(2) 0.89568(6) 0.23804(6)
C26_2 C 0.09353(19) 0.93936(7) 0.24469(7)
H12_2 H 0.1704 0.9545 0.2466
C63_2 C 0.7803(2) 0.12722(7) 0.76946(7)
C64_2 C 0.9032(2) 0.10432(6) 0.76196(6)
C65_2 C 0.90647(19) 0.06064(7) 0.75531(7)
H32_2 H 0.8296 0.0455 0.7534
C6_2 C 0.9985(2) 0.49356(8) 0.43934(7)
H3_2 H 0.9876 0.5213 0.4313
C8_2 C 0.7745(2) 0.27312(7) 0.36960(7)
C9_2 C 0.6521(2) 0.26411(7) 0.39131(6)
C10_2 C 0.53298(19) 0.26652(6) 0.36863(6)
H5_2 H 0.5302 0.2703 0.3397
C11_2 C 0.41931(19) 0.26313(6) 0.39072(6)
C12_2 C 0.4228(2) 0.25568(7) 0.43343(7)
H6_2 H 0.3458 0.2527 0.4474
C13_2 C 0.5384(2) 0.25267(7) 0.45536(7)
C14_2 C 0.6556(2) 0.25723(7) 0.43445(7)
H7_2 H 0.7344 0.2557 0.4493
C15_2 C 0.2948(2) 0.26762(7) 0.36679(7)
C16_2 C 0.6339(2) 0.24069(8) 0.52569(7)
C17_2 C 0.6053(2) 0.23836(8) 0.57130(7)
C18_2 C 0.4844(2) 0.22526(9) 0.58548(7)
H8_2 H 0.4152 0.2210 0.5666
C19_2 C 0.4699(2) 0.21875(8) 0.62833(7)
H9_2 H 0.3909 0.2097 0.6381
C20_2 C 0.5727(2) 0.22574(7) 0.65621(7)
C21_2 C 0.6927(2) 0.23819(8) 0.64187(8)
H10_2 H 0.7630 0.2417 0.6605
C22_2 C 0.7058(2) 0.24544(8) 0.59835(8)
H11_2 H 0.7839 0.2551 0.5885
C23_2 C 0.5659(2) 0.21878(7) 0.70278(7)
C32_2 C 0.8861(2) 0.02996(7) 0.25908(7)
C33_2 C 0.9178(2) 0.07538(7) 0.26294(7)
C36_2 C 0.9550(2) 0.16066(7) 0.27404(7)
C37_2 C 0.8310(2) 0.14545(7) 0.26284(7)
H17_2 H 0.7620 0.1639 0.2589
C38_2 C 0.8120(2) 0.10269(7) 0.25766(8)
H18_2 H 0.7301 0.0923 0.2508
C39_2 C 0.9731(2) 0.20710(6) 0.27854(7)
N1_2 N 0.54062(17) 0.24623(6) 0.49916(5)
H19_2 H 0.4654 0.2460 0.5098
N2_2 N 0.98150(18) 0.00302(5) 0.25445(6)
O4_2 O 0.87776(14) 0.27282(4) 0.38975(4)
O5_2 O 0.76176(14) 0.27874(5) 0.33071(5)
O8_2 O 0.75260(15) 0.24083(5) 0.51517(5)
O15_2 O 0.77468(15) 0.01681(5) 0.26511(5)
O17_2 O 0.87607(14) 0.22787(4) 0.26788(4)
C40_2 C 0.9707(2) 0.61008(7) 0.61218(7)
C41_2 C 0.9794(2) 0.57672(7) 0.57864(7)
C42_2 C 0.9736(2) 0.58862(8) 0.53656(7)
H21_2 H 0.9634 0.6166 0.5291
C43_2 C 0.9829(2) 0.55915(8) 0.50726(8)
H22_2 H 0.9809 0.5672 0.4793
C44_2 C 0.9956(2) 0.51632(7) 0.51701(7)
C46_2 C 0.9921(2) 0.53521(7) 0.58988(7)
H24_2 H 0.9939 0.5276 0.6180
O18_2 O 0.97520(14) 0.59795(4) 0.64917(5)
O19_2 O 0.96758(14) 0.64721(4) 0.60045(4)
C73_2 C 0.9603(2) 0.90932(7) 0.72617(7)
H35_2 H 0.8907 0.9275 0.7224
C74_2 C 0.9428(2) 0.86672(7) 0.72092(7)
H36_2 H 0.8608 0.8564 0.7139
H40_2 H 0.9421 0.9863 0.7447
O20_2 O 0.97494(13) 0.68739(4) 0.69148(4)
O33_2 O 0.92386(14) 0.77949(4) 0.70850(5)
C27_2 C 0.9766(2) 0.95961(7) 0.24841(7)
C28_2 C 0.86243(18) 0.93751(6) 0.24707(7)
H13_2 H 0.7846 0.9514 0.2507
C29_2 C 0.8624(2) 0.89459(7) 0.24030(7)
C30_2 C 0.9801(2) 0.87354(6) 0.23677(7)
H14_2 H 0.9807 0.8446 0.2336
C31_2 C 0.74058(19) 0.87024(6) 0.23597(6)
C79 C 0.5873(2) 0.23984(7) 0.17241(7)
H41 H 0.6258 0.2206 0.1534
H42 H 0.6538 0.2566 0.1857
H43 H 0.5274 0.2576 0.1572
C80 C 0.4639(2) 0.17667(7) 0.18730(8)
H44 H 0.4408 0.1804 0.1582
H45 H 0.3883 0.1691 0.2022
H46 H 0.5275 0.1549 0.1903
N5 N 0.5180(2) 0.21620(6) 0.20460(7)
H47 H 0.4534 0.2320 0.2142
H48 H 0.5729 0.2104 0.2263
C80_2 C 0.0361(2) 0.67667(7) 0.31270(8)
H44_2 H 0.0592 0.6804 0.3418
H45_2 H 0.1117 0.6691 0.2978
H47_2 H 0.0466 0.7320 0.2858
C79_2 C 0.9127(2) 0.73984(7) 0.32759(7)
H41_2 H 0.8742 0.7206 0.3466
H42_2 H 0.8462 0.7566 0.3143
H43_2 H 0.9726 0.7576 0.3428
H46_2 H 0.9725 0.6549 0.3097
N5_2 N 0.9820(2) 0.71620(6) 0.29540(7)
H48_2 H 0.9271 0.7104 0.2737
C79_3 C 0.4127(2) 0.76016(7) 0.82759(7)
H41_3 H 0.3742 0.7794 0.8466
H42_3 H 0.3462 0.7434 0.8143
H43_3 H 0.4726 0.7424 0.8428
C80_3 C 0.5361(2) 0.82333(7) 0.81270(8)
H44_3 H 0.5592 0.8196 0.8418
H45_3 H 0.6117 0.8309 0.7978
H46_3 H 0.4725 0.8451 0.8097
N5_3 N 0.4820(2) 0.78380(6) 0.79540(7)
H47_3 H 0.5466 0.7680 0.7858
H48_3 H 0.4271 0.7896 0.7737
C79_4 C 0.0873(2) 0.26016(7) 0.67241(7)
H41_4 H 0.1258 0.2794 0.6534
H42_4 H 0.1538 0.2434 0.6857
H43_4 H 0.0274 0.2424 0.6572
H46_4 H 0.0275 0.3451 0.6903
N5_4 N 0.0180(2) 0.28380(6) 0.70460(7)
H48_4 H 0.0729 0.2896 0.7263
C80_4 C 0.9639(2) 0.32333(7) 0.68730(8)
H44_4 H 0.9408 0.3196 0.6582
H45_4 H 0.8883 0.3309 0.7022
H47_4 H 0.9534 0.2680 0.7142
loop_
_geom_bond_atom_site_label_1
_geom_bond_atom_site_label_2
_geom_bond_site_symmetry_1
_geom_bond_site_symmetry_2
C12 C11 1_555 1_555
H6 C12 1_555 1_555
C15 C11 1_555 1_555
O6 C15 1_555 1_555
O7 C15 1_555 1_555
Zn17 O7 1_555 1_555
Zn19 O6 1_555 1_555
C18 H8 1_555 1_555
C19 C18 1_555 1_555
H9 C19 1_555 1_555
Zn12 O10 1_555 1_555
C55 C56 1_555 1_555
C60 C59 1_555 1_555
H30 C60 1_555 1_555
C61 C56 1_555 1_555
H31 C61 1_555 1_555
C62 C59 1_555 1_555
O25 C55 1_555 1_555
O26 C62 1_555 1_555
Zn21 O26 1_555 1_555
C60 C61 1_555 1_555
C40 C41 1_555 1_555
C41 C42 1_555 1_555
C42 H21 1_555 1_555
C43 C42 1_555 1_555
C45 C44 1_555 1_555
C46 C41 1_555 1_555
H24 C46 1_555 1_555
O18 C40 1_555 1_555
O19 C40 1_555 1_555
C47 C48 1_555 1_555
C48 C49 1_555 1_555
C49 H25 1_555 1_555
C53 C48 1_555 1_555
H27 C53 1_555 1_555
C63 C64 1_555 1_555
C64 C65 1_555 1_555
C65 H32 1_555 1_555
C66 C65 1_555 1_555
C67 C66 1_555 1_555
H33 C67 1_555 1_555
C68 C67 1_555 1_555
C69 C64 1_555 1_555
H34 C69 1_555 1_555
C70 C68 1_555 1_555
C71 C72 1_555 1_555
C72 C73 1_555 1_555
C73 H35 1_555 1_555
C74 C73 1_555 1_555
H36 C74 1_555 1_555
C75 C74 1_555 1_555
C76 C75 1_555 1_555
H37 C76 1_555 1_555
C77 C72 1_555 1_555
H38 C77 1_555 1_555
C78 C75 1_555 1_555
N3 C52 1_555 1_555
N4 C66 1_555 1_555
H40 N4 1_555 1_555
O20 Zn5 1_555 1_555
O21 C47 1_555 1_555
O22 C47 1_555 1_555
O28 C63 1_555 1_555
O29 C63 1_555 1_555
O30 C70 1_555 1_555
O31 C70 1_555 1_555
O32 C71 1_555 1_555
O33 C78 1_555 1_555
O34 C78 1_555 1_555
Zn5 O22 1_555 1_555
Zn6 O18 1_555 1_555
Zn7 O19 1_555 1_555
Zn8 O20 1_555 1_555
O36 Zn8 1_555 1_555
O38 Zn7 1_555 1_555
O39 Zn8 1_555 1_555
O41 Zn5 1_555 1_555
O44 Zn6 1_555 1_555
O46 Zn8 1_555 1_555
O48 Zn5 1_555 1_555
O50 Zn6 1_555 1_555
Zn12 O30 1_555 1_555
Zn16 O28 1_555 1_555
Zn24 O29 1_555 1_555
C43 C44 1_555 1_555
C45 C46 1_555 1_555
C52 C53 1_555 1_555
C68 C69 1_555 1_555
C71 N4 1_555 1_555
C76 C77 1_555 1_555
O20 Zn6 1_555 1_555
O20 Zn7 1_555 1_555
O21 Zn7 1_555 1_555
O33 Zn8 1_555 1_555
O34 Zn5 1_555 1_555
C1 C2 1_555 1_555
C2 C3 1_555 1_555
C3 H1 1_555 1_555
C4 C3 1_555 1_555
C5 C4 1_555 1_555
C6 C5 1_555 1_555
C7 C2 1_555 1_555
H4 C7 1_555 1_555
C8 C9 1_555 1_555
C9 C10 1_555 1_555
C10 H5 1_555 1_555
C14 C9 1_555 1_555
H7 C14 1_555 1_555
C24 C25 1_555 1_555
C25 C26 1_555 1_555
C26 H12 1_555 1_555
C27 C26 1_555 1_555
C28 C27 1_555 1_555
H13 C28 1_555 1_555
C29 C28 1_555 1_555
C30 C25 1_555 1_555
H14 C30 1_555 1_555
C31 C29 1_555 1_555
C32 C33 1_555 1_555
C33 C34 1_555 1_555
C34 H15 1_555 1_555
C35 C34 1_555 1_555
H16 C35 1_555 1_555
C36 C35 1_555 1_555
C37 C36 1_555 1_555
H17 C37 1_555 1_555
C38 C33 1_555 1_555
H18 C38 1_555 1_555
C39 C36 1_555 1_555
N1 C13 1_555 1_555
N2 C27 1_555 1_555
H20 N2 1_555 1_555
O1 Zn1 1_555 1_555
O2 C1 1_555 1_555
O3 C1 1_555 1_555
O4 C8 1_555 1_555
O5 C8 1_555 1_555
O11 C24 1_555 1_555
O12 C24 1_555 1_555
O13 C31 1_555 1_555
O14 C31 1_555 1_555
O15 C32 1_555 1_555
O16 C39 1_555 1_555
O17 C39 1_555 1_555
Zn1 O5 1_555 1_555
Zn2 O1 1_555 1_555
Zn17 O1 1_555 1_555
Zn19 O1 1_555 1_555
O40 Zn19 1_555 1_555
O42 Zn1 1_555 1_555
O43 Zn2 1_555 1_555
O45 Zn19 1_555 1_555
O47 Zn1 1_555 1_555
O49 Zn2 1_555 1_555
Zn10 O13 1_555 1_555
Zn14 O11 1_555 1_555
Zn21 O12 1_555 1_555
C6 C7 1_555 1_555
C13 C14 1_555 1_555
C29 C30 1_555 1_555
C32 N2 1_555 1_555
C37 C38 1_555 1_555
O2 Zn2 1_555 1_555
O3 Zn17 1_555 1_555
O4 Zn17 1_555 1_555
O16 Zn19 1_555 1_555
O17 Zn1 1_555 1_555
C16 C17 1_555 1_555
C21 C20 1_555 1_555
H10 C21 1_555 1_555
C22 C17 1_555 1_555
H11 C22 1_555 1_555
C23 C20 1_555 1_555
O8 C16 1_555 1_555
O9 C23 1_555 1_555
Zn24 O9 1_555 1_555
C21 C22 1_555 1_555
C57 H28 1_555 1_555
C58 C57 1_555 1_555
H29 C58 1_555 1_555
Zn10 O27 1_555 1_555
C51 C50 1_555 1_555
H26 C51 1_555 1_555
C54 C50 1_555 1_555
O36 C54 1_555 1_555
O38 C54 1_555 1_555
C67_2 C66_2 1_555 1_555
H33_2 C67_2 1_555 1_555
C68_2 C67_2 1_555 1_555
H34_2 C69_2 1_555 1_555
C70_2 C68_2 1_555 1_555
O48 C70_2 1_555 1_555
O50 C70_2 1_555 1_555
C68_2 C69_2 1_555 1_555
C1_2 C2_2 1_555 1_555
C2_2 C3_2 1_555 1_555
C3_2 H1_2 1_555 1_555
C4_2 C3_2 1_555 1_555
H2_2 C4_2 1_555 1_555
C5_2 C4_2 1_555 1_555
C7_2 C2_2 1_555 1_555
H4_2 C7_2 1_555 1_555
C34_2 H15_2 1_555 1_555
C35_2 C34_2 1_555 1_555
H16_2 C35_2 1_555 1_555
O2_2 C1_2 1_555 1_555
O3_2 C1_2 1_555 1_555
Zn14 O1_2 1_555 1_555
Zn3 O1_2 1_555 1_555
Zn21 O1_2 1_555 1_555
H23_2 C45_2 1_555 1_555
C47_2 C48_2 1_555 1_555
C48_2 C49_2 1_555 1_555
C49_2 H25_2 1_555 1_555
C50_2 C49_2 1_555 1_555
C51_2 C50_2 1_555 1_555
H26_2 C51_2 1_555 1_555
C52_2 C51_2 1_555 1_555
C53_2 C48_2 1_555 1_555
H27_2 C53_2 1_555 1_555
C54_2 C50_2 1_555 1_555
C55_2 C56_2 1_555 1_555
C56_2 C57_2 1_555 1_555
C57_2 H28_2 1_555 1_555
C58_2 C57_2 1_555 1_555
H29_2 C58_2 1_555 1_555
C59_2 C58_2 1_555 1_555
C60_2 C59_2 1_555 1_555
H30_2 C60_2 1_555 1_555
C61_2 C56_2 1_555 1_555
H31_2 C61_2 1_555 1_555
C62_2 C59_2 1_555 1_555
C71_2 C72_2 1_555 1_555
C76_2 C75_2 1_555 1_555
H37_2 C76_2 1_555 1_555
C77_2 C72_2 1_555 1_555
H38_2 C77_2 1_555 1_555
C78_2 C75_2 1_555 1_555
N3_2 C52_2 1_555 1_555
H39_2 N3_2 1_555 1_555
O21_2 C47_2 1_555 1_555
O22_2 C47_2 1_555 1_555
O23 C54_2 1_555 1_555
O24 C54_2 1_555 1_555
O25_2 C55_2 1_555 1_555
O40 C62_2 1_555 1_555
O42 C62_2 1_555 1_555
O32_2 C71_2 1_555 1_555
O34_2 C78_2 1_555 1_555
Zn12 O22_2 1_555 1_555
O35 Zn21 1_555 1_555
O37 Zn3 1_555 1_555
Zn18 O24 1_555 1_555
Zn24 O23 1_555 1_555
O2_2 Zn14 1_555 1_555
O3_2 Zn3 1_555 1_555
O16_2 Zn21 1_555 1_555
C52_2 C53_2 1_555 1_555
C55_2 N3_2 1_555 1_555
C60_2 C61_2 1_555 1_555
C71_2 N4_2 1_555 1_555
C76_2 C77_2 1_555 1_555
O34_2 Zn12 1_555 1_555
C24_2 C25_2 1_555 1_555
C25_2 C26_2 1_555 1_555
C26_2 H12_2 1_555 1_555
O43 C24_2 1_555 1_555
O45 C24_2 1_555 1_555
C63_2 C64_2 1_555 1_555
C64_2 C65_2 1_555 1_555
C65_2 H32_2 1_555 1_555
O44 C63_2 1_555 1_555
O46 C63_2 1_555 1_555
H3_2 C6_2 1_555 1_555
C8_2 C9_2 1_555 1_555
C9_2 C10_2 1_555 1_555
C10_2 H5_2 1_555 1_555
C11_2 C10_2 1_555 1_555
C12_2 C11_2 1_555 1_555
H6_2 C12_2 1_555 1_555
C13_2 C12_2 1_555 1_555
C14_2 C9_2 1_555 1_555
H7_2 C14_2 1_555 1_555
C15_2 C11_2 1_555 1_555
C16_2 C17_2 1_555 1_555
C17_2 C18_2 1_555 1_555
C18_2 H8_2 1_555 1_555
C19_2 C18_2 1_555 1_555
H9_2 C19_2 1_555 1_555
C20_2 C19_2 1_555 1_555
C21_2 C20_2 1_555 1_555
H10_2 C21_2 1_555 1_555
C22_2 C17_2 1_555 1_555
H11_2 C22_2 1_555 1_555
C23_2 C20_2 1_555 1_555
C32_2 C33_2 1_555 1_555
C37_2 C36_2 1_555 1_555
H17_2 C37_2 1_555 1_555
C38_2 C33_2 1_555 1_555
H18_2 C38_2 1_555 1_555
C39_2 C36_2 1_555 1_555
N1_2 C13_2 1_555 1_555
H19_2 N1_2 1_555 1_555
O4_2 C8_2 1_555 1_555
O5_2 C8_2 1_555 1_555
O35 C15_2 1_555 1_555
O37 C15_2 1_555 1_555
O8_2 C16_2 1_555 1_555
O39 C23_2 1_555 1_555
O41 C23_2 1_555 1_555
O15_2 C32_2 1_555 1_555
O17_2 C39_2 1_555 1_555
Zn10 O5_2 1_555 1_555
C40_2 C41_2 1_555 1_555
C41_2 C42_2 1_555 1_555
C42_2 H21_2 1_555 1_555
C43_2 C42_2 1_555 1_555
H22_2 C43_2 1_555 1_555
C46_2 C41_2 1_555 1_555
H24_2 C46_2 1_555 1_555
O18_2 C40_2 1_555 1_555
O19_2 C40_2 1_555 1_555
C73_2 H35_2 1_555 1_555
C74_2 C73_2 1_555 1_555
H36_2 C74_2 1_555 1_555
Zn16 O18_2 1_555 1_555
Zn18 O19_2 1_555 1_555
Zn24 O20_2 1_555 1_555
C13_2 C14_2 1_555 1_555
C16_2 N1_2 1_555 1_555
C21_2 C22_2 1_555 1_555
C32_2 N2_2 1_555 1_555
C37_2 C38_2 1_555 1_555
O17_2 Zn10 1_555 1_555
C43_2 C44_2 1_555 1_555
O20_2 Zn16 1_555 1_555
O20_2 Zn18 1_555 1_555
O33_2 Zn24 1_555 1_555
C28_2 C27_2 1_555 1_555
H13_2 C28_2 1_555 1_555
C29_2 C28_2 1_555 1_555
H14_2 C30_2 1_555 1_555
C31_2 C29_2 1_555 1_555
O47 C31_2 1_555 1_555
O49 C31_2 1_555 1_555
C29_2 C30_2 1_555 1_555
C79 H41 1_555 1_555
H42 C79 1_555 1_555
H43 C79 1_555 1_555
C80 H44 1_555 1_555
H45 C80 1_555 1_555
H46 C80 1_555 1_555
N5 C79 1_555 1_555
H47 N5 1_555 1_555
H48 N5 1_555 1_555
C80 N5 1_555 1_555
C80_2 H44_2 1_555 1_555
H45_2 C80_2 1_555 1_555
C79_2 H41_2 1_555 1_555
H42_2 C79_2 1_555 1_555
H43_2 C79_2 1_555 1_555
N5_2 C79_2 1_555 1_555
H48_2 N5_2 1_555 1_555
C79_3 H41_3 1_555 1_555
H42_3 C79_3 1_555 1_555
H43_3 C79_3 1_555 1_555
C80_3 H44_3 1_555 1_555
H45_3 C80_3 1_555 1_555
H46_3 C80_3 1_555 1_555
N5_3 C79_3 1_555 1_555
H47_3 N5_3 1_555 1_555
H48_3 N5_3 1_555 1_555
C80_3 N5_3 1_555 1_555
C79_4 H41_4 1_555 1_555
H42_4 C79_4 1_555 1_555
H43_4 C79_4 1_555 1_555
N5_4 C79_4 1_555 1_555
H48_4 N5_4 1_555 1_555
C80_4 H44_4 1_555 1_555
H45_4 C80_4 1_555 1_555

#END
