
###############################################################################
#
# This file contains modified crystal structure data generated from the
# MOF subset of the Cambridge Structural Database (CSD) v543 
# hosted by the Cambridge Crystallographic Data Centre (CCDC).
#
# This work is licensed under the Creative Commons
# Attribution-NonCommercial-ShareAlike 4.0 International License.
# To view a copy of this license, visit
# http://creativecommons.org/licenses/by-nc-sa/4.0/
# or send a letter to
# Creative Commons, PO Box 1866, Mountain View, CA 94042, USA.
#
# CIF created using the CSD Python API on 29 September 2022
# The structure has been converted into the P1 space group
# The structure has a 3D framework
# The original CSD entry PUFTUH is in the orthorhombic crystal system
# The framework has been calculated to contain at least 10.0% void space
# The void calculation uses a probe of radius 1.32A, grid spacing 0.4
#
###############################################################################

data_PUFTUH
_chemical_formula_moiety         '(C480 H352 Cd16 N128 O64)n'
_symmetry_cell_setting           triclinic
_symmetry_space_group_name_H-M   'P 1'
_symmetry_Int_Tables_number      1
_space_group_name_Hall           'P 1'
loop_
_symmetry_equiv_pos_site_id
_symmetry_equiv_pos_as_xyz
1 x,y,z
_cell_length_a                   16.1234(8)
_cell_length_b                   24.8317(17)
_cell_length_c                   40.287(2)
_cell_angle_alpha                90
_cell_angle_beta                 90
_cell_angle_gamma                90
_cell_volume                     16129.8
loop_
_atom_site_label
_atom_site_type_symbol
_atom_site_fract_x
_atom_site_fract_y
_atom_site_fract_z
C1 C 0.29318(16) 0.31269(11) 0.11994(5)
C2 C 0.24313(15) 0.28740(9) 0.14793(5)
C3 C 0.26319(19) 0.23686(11) 0.15976(7)
H1 H 0.3076 0.2183 0.1505
C4 C 0.21781(19) 0.21321(11) 0.18545(7)
H2 H 0.2322 0.1794 0.1936
C5 C 0.15106(16) 0.24100(9) 0.19858(6)
C6 C 0.12941(17) 0.29144(11) 0.18717(7)
H3 H 0.0844 0.3097 0.1962
C7 C 0.17640(16) 0.31463(10) 0.16174(6)
H4 H 0.1627 0.3488 0.1540
H6 H 0.0135 0.1750 0.1719
C9 C 0.02808(16) 0.19016(9) 0.22086(6)
C10 C 0.12665(14) 0.20587(9) 0.25722(5)
C11 C 0.20218(15) 0.22361(9) 0.27427(6)
C12 C 0.2470(2) 0.26940(12) 0.26569(8)
H8 H 0.2304 0.2908 0.2480
C13 C 0.3168(2) 0.28248(16) 0.28398(10)
H9 H 0.3478 0.3128 0.2785
C14 C 0.3399(2) 0.25070(17) 0.31009(10)
H10 H 0.3871 0.2587 0.3224
C15 C 0.29122(19) 0.20610(12) 0.31788(7)
H11 H 0.3063 0.1850 0.3360
Cd1 Cd 0.3750 0.3750 0.070329(4)
N1 N 0.06899(12) 0.17647(8) 0.27207(4)
N2 N 0.00616(13) 0.16629(8) 0.24886(5)
N3 N 0.10333(12) 0.21575(8) 0.22483(5)
N4 N 0.22371(12) 0.19221(7) 0.30051(5)
O1 O 0.27228(12) 0.35848(8) 0.10989(5)
O2 O 0.35193(14) 0.28729(9) 0.10751(5)
C16 C 0.45682(16) 0.43731(11) 0.11994(5)
C17 C 0.50687(15) 0.46260(9) 0.14793(5)
C18 C 0.48681(19) 0.51314(11) 0.15976(7)
H12 H 0.4424 0.5317 0.1505
C19 C 0.53219(19) 0.53679(11) 0.18545(7)
H13 H 0.5178 0.5706 0.1936
C20 C 0.59894(16) 0.50900(9) 0.19858(6)
C21 C 0.62059(17) 0.45856(11) 0.18717(7)
H14 H 0.6656 0.4403 0.1962
C22 C 0.57360(16) 0.43537(10) 0.16174(6)
H15 H 0.5873 0.4012 0.1540
C23 C 0.77010(19) 0.56023(12) 0.18930(6)
H16 H 0.8190 0.5819 0.1920
H17 H 0.7365 0.5750 0.1719
H18 H 0.7858 0.5241 0.1837
C24 C 0.72192(16) 0.55984(9) 0.22086(6)
C25 C 0.62335(14) 0.54413(9) 0.25722(5)
C26 C 0.54782(15) 0.52639(9) 0.27427(6)
C27 C 0.5030(2) 0.48060(12) 0.26569(8)
H19 H 0.5196 0.4592 0.2480
C28 C 0.4332(2) 0.46752(16) 0.28398(10)
H20 H 0.4022 0.4372 0.2785
C29 C 0.4101(2) 0.49930(17) 0.31009(10)
H21 H 0.3629 0.4913 0.3224
C30 C 0.45878(19) 0.54390(12) 0.31788(7)
H22 H 0.4437 0.5650 0.3360
N5 N 0.68101(12) 0.57353(8) 0.27207(4)
N6 N 0.74384(13) 0.58371(8) 0.24886(5)
N7 N 0.64667(12) 0.53425(8) 0.22483(5)
N8 N 0.52629(12) 0.55779(7) 0.30051(5)
O3 O 0.47772(12) 0.39152(8) 0.10989(5)
O4 O 0.39807(14) 0.46271(9) 0.10751(5)
Cd2 Cd 0.6250 0.6250 0.320329(4)
Cd3 Cd 0.1250 0.1250 0.320329(4)
N9 N 0.43101(12) 0.42647(8) 0.02207(4)
N10 N 0.31899(12) 0.32353(8) 0.02207(4)
N11 N 0.27629(12) 0.44221(7) 0.05051(5)
N12 N 0.47371(12) 0.30779(7) 0.05051(5)
C4_2 C 0.03219(19) 0.03679(11) 0.18545(7)
H2_2 H 0.0178 0.0706 0.1936
C5_2 C 0.09894(16) 0.00900(9) 0.19858(6)
C8 C 0.27010(19) 0.06023(12) 0.18930(6)
H5 H 0.3190 0.0819 0.1920
H6_2 H 0.2365 0.0750 0.1719
H7 H 0.2858 0.0241 0.1837
C9_2 C 0.22192(16) 0.05984(9) 0.22086(6)
C10_2 C 0.12335(14) 0.04413(9) 0.25722(5)
C11_2 C 0.04782(15) 0.02639(9) 0.27427(6)
N1_2 N 0.18101(12) 0.07353(8) 0.27207(4)
N2_2 N 0.24384(13) 0.08371(8) 0.24886(5)
N3_2 N 0.14667(12) 0.03425(8) 0.22483(5)
N4_2 N 0.02629(12) 0.05779(7) 0.30051(5)
C1_2 C 0.95682(16) 0.93731(11) 0.11994(5)
C13_2 C 0.9332(2) 0.96752(16) 0.28398(10)
H9_2 H 0.9022 0.9372 0.2785
C14_2 C 0.9101(2) 0.99930(17) 0.31009(10)
H10_2 H 0.8629 0.9913 0.3224
Cd1_2 Cd 0.8750 0.8750 0.070329(4)
O1_2 O 0.97772(12) 0.89152(8) 0.10989(5)
O2_2 O 0.89807(14) 0.96271(9) 0.10751(5)
C16_2 C 0.79318(16) 0.81269(11) 0.11994(5)
C17_2 C 0.74313(15) 0.78740(9) 0.14793(5)
C18_2 C 0.76319(19) 0.73686(11) 0.15976(7)
H12_2 H 0.8076 0.7183 0.1505
C19_2 C 0.71781(19) 0.71321(11) 0.18545(7)
H13_2 H 0.7322 0.6794 0.1936
C20_2 C 0.65106(16) 0.74100(9) 0.19858(6)
C21_2 C 0.62941(17) 0.79144(11) 0.18717(7)
H14_2 H 0.5844 0.8097 0.1962
C22_2 C 0.67640(16) 0.81463(10) 0.16174(6)
H15_2 H 0.6627 0.8488 0.1540
C23_2 C 0.47990(19) 0.68977(12) 0.18930(6)
H16_2 H 0.4310 0.6681 0.1920
H17_2 H 0.5135 0.6750 0.1719
H18_2 H 0.4642 0.7259 0.1837
C24_2 C 0.52808(16) 0.69016(9) 0.22086(6)
C25_2 C 0.62665(14) 0.70587(9) 0.25722(5)
C26_2 C 0.70218(15) 0.72361(9) 0.27427(6)
C27_2 C 0.7470(2) 0.76940(12) 0.26569(8)
H19_2 H 0.7304 0.7908 0.2480
C28_2 C 0.8168(2) 0.78248(16) 0.28398(10)
H20_2 H 0.8478 0.8128 0.2785
C29_2 C 0.8399(2) 0.75070(17) 0.31009(10)
H21_2 H 0.8871 0.7587 0.3224
C30_2 C 0.79122(19) 0.70610(12) 0.31788(7)
H22_2 H 0.8063 0.6850 0.3360
N5_2 N 0.56899(12) 0.67647(8) 0.27207(4)
N6_2 N 0.50616(13) 0.66629(8) 0.24886(5)
N7_2 N 0.60333(12) 0.71575(8) 0.22483(5)
N8_2 N 0.72371(12) 0.69221(7) 0.30051(5)
O3_2 O 0.77228(12) 0.85848(8) 0.10989(5)
O4_2 O 0.85193(14) 0.78729(9) 0.10751(5)
N9_2 N 0.81899(12) 0.82353(8) 0.02207(4)
N10_2 N 0.93101(12) 0.92647(8) 0.02207(4)
N11_2 N 0.97371(12) 0.80779(7) 0.05051(5)
N12_2 N 0.77629(12) 0.94221(7) 0.05051(5)
C18_3 C 0.48681(19) 0.01314(11) 0.65976(7)
H12_3 H 0.4424 0.0317 0.6505
C19_3 C 0.53219(19) 0.03679(11) 0.68545(7)
H13_3 H 0.5178 0.0706 0.6936
C20_3 C 0.59894(16) 0.00900(9) 0.69858(6)
C23_3 C 0.77010(19) 0.06023(12) 0.68930(6)
H16_3 H 0.8190 0.0819 0.6920
H17_3 H 0.7365 0.0750 0.6719
H18_3 H 0.7858 0.0241 0.6837
C24_3 C 0.72192(16) 0.05984(9) 0.72086(6)
C25_3 C 0.62335(14) 0.04413(9) 0.75722(5)
C26_3 C 0.54782(15) 0.02639(9) 0.77427(6)
C30_3 C 0.45878(19) 0.04390(12) 0.81788(7)
H22_3 H 0.4437 0.0650 0.8360
N5_3 N 0.68101(12) 0.07353(8) 0.77207(4)
N6_3 N 0.74384(13) 0.08371(8) 0.74886(5)
N7_3 N 0.64667(12) 0.03425(8) 0.72483(5)
N8_3 N 0.52629(12) 0.05779(7) 0.80051(5)
Cd2_2 Cd 0.6250 0.1250 0.820329(4)
C1_3 C 0.29318(16) 0.81269(11) 0.61994(5)
C2_2 C 0.24313(15) 0.78740(9) 0.64793(5)
C3_2 C 0.26319(19) 0.73686(11) 0.65976(7)
H1_2 H 0.3076 0.7183 0.6505
C4_3 C 0.21781(19) 0.71321(11) 0.68545(7)
H2_3 H 0.2322 0.6794 0.6936
C5_3 C 0.15106(16) 0.74100(9) 0.69858(6)
C6_2 C 0.12941(17) 0.79144(11) 0.68717(7)
H3_2 H 0.0844 0.8097 0.6962
C7_2 C 0.17640(16) 0.81463(10) 0.66174(6)
H4_2 H 0.1627 0.8488 0.6540
H6_3 H 0.0135 0.6750 0.6719
C9_3 C 0.02808(16) 0.69016(9) 0.72086(6)
C10_3 C 0.12665(14) 0.70587(9) 0.75722(5)
C11_3 C 0.20218(15) 0.72361(9) 0.77427(6)
C12_2 C 0.2470(2) 0.76940(12) 0.76569(8)
H8_2 H 0.2304 0.7908 0.7480
C13_3 C 0.3168(2) 0.78248(16) 0.78398(10)
H9_3 H 0.3478 0.8128 0.7785
C14_3 C 0.3399(2) 0.75070(17) 0.81009(10)
H10_3 H 0.3871 0.7587 0.8224
C15_2 C 0.29122(19) 0.70610(12) 0.81788(7)
H11_2 H 0.3063 0.6850 0.8360
Cd1_3 Cd 0.3750 0.8750 0.570329(4)
N1_3 N 0.06899(12) 0.67647(8) 0.77207(4)
N2_3 N 0.00616(13) 0.66629(8) 0.74886(5)
N3_3 N 0.10333(12) 0.71575(8) 0.72483(5)
N4_3 N 0.22371(12) 0.69221(7) 0.80051(5)
O1_3 O 0.27228(12) 0.85848(8) 0.60989(5)
O2_3 O 0.35193(14) 0.78729(9) 0.60751(5)
C16_3 C 0.45682(16) 0.93731(11) 0.61994(5)
C17_3 C 0.50687(15) 0.96260(9) 0.64793(5)
C21_3 C 0.62059(17) 0.95856(11) 0.68717(7)
H14_3 H 0.6656 0.9403 0.6962
C22_3 C 0.57360(16) 0.93537(10) 0.66174(6)
H15_3 H 0.5873 0.9012 0.6540
C27_3 C 0.5030(2) 0.98060(12) 0.76569(8)
H19_3 H 0.5196 0.9592 0.7480
C28_3 C 0.4332(2) 0.96752(16) 0.78398(10)
H20_3 H 0.4022 0.9372 0.7785
C29_3 C 0.4101(2) 0.99930(17) 0.81009(10)
H21_3 H 0.3629 0.9913 0.8224
O3_3 O 0.47772(12) 0.89152(8) 0.60989(5)
O4_3 O 0.39807(14) 0.96271(9) 0.60751(5)
Cd3_2 Cd 0.1250 0.6250 0.820329(4)
N9_3 N 0.43101(12) 0.92647(8) 0.52207(4)
N10_3 N 0.31899(12) 0.82353(8) 0.52207(4)
N11_3 N 0.27629(12) 0.94221(7) 0.55051(5)
N12_3 N 0.47371(12) 0.80779(7) 0.55051(5)
C2_3 C 0.00687(15) 0.46260(9) 0.64793(5)
C4_4 C 0.03219(19) 0.53679(11) 0.68545(7)
H2_4 H 0.0178 0.5706 0.6936
C5_4 C 0.09894(16) 0.50900(9) 0.69858(6)
C6_3 C 0.12059(17) 0.45856(11) 0.68717(7)
H3_3 H 0.1656 0.4403 0.6962
C7_3 C 0.07360(16) 0.43537(10) 0.66174(6)
H4_3 H 0.0873 0.4012 0.6540
C8_2 C 0.27010(19) 0.56023(12) 0.68930(6)
H5_2 H 0.3190 0.5819 0.6920
H6_4 H 0.2365 0.5750 0.6719
H7_2 H 0.2858 0.5241 0.6837
C9_4 C 0.22192(16) 0.55984(9) 0.72086(6)
C10_4 C 0.12335(14) 0.54413(9) 0.75722(5)
C11_4 C 0.04782(15) 0.52639(9) 0.77427(6)
C12_3 C 0.0030(2) 0.48060(12) 0.76569(8)
H8_3 H 0.0196 0.4592 0.7480
N1_4 N 0.18101(12) 0.57353(8) 0.77207(4)
N2_4 N 0.24384(13) 0.58371(8) 0.74886(5)
N3_4 N 0.14667(12) 0.53425(8) 0.72483(5)
N4_4 N 0.02629(12) 0.55779(7) 0.80051(5)
C1_4 C 0.95682(16) 0.43731(11) 0.61994(5)
C3_3 C 0.98681(19) 0.51314(11) 0.65976(7)
H1_3 H 0.9424 0.5317 0.6505
C13_4 C 0.9332(2) 0.46752(16) 0.78398(10)
H9_4 H 0.9022 0.4372 0.7785
C14_4 C 0.9101(2) 0.49930(17) 0.81009(10)
H10_4 H 0.8629 0.4913 0.8224
C15_3 C 0.95878(19) 0.54390(12) 0.81788(7)
H11_3 H 0.9437 0.5650 0.8360
Cd1_4 Cd 0.8750 0.3750 0.570329(4)
O1_4 O 0.97772(12) 0.39152(8) 0.60989(5)
O2_4 O 0.89807(14) 0.46271(9) 0.60751(5)
C16_4 C 0.79318(16) 0.31269(11) 0.61994(5)
C17_4 C 0.74313(15) 0.28740(9) 0.64793(5)
C18_4 C 0.76319(19) 0.23686(11) 0.65976(7)
H12_4 H 0.8076 0.2183 0.6505
C19_4 C 0.71781(19) 0.21321(11) 0.68545(7)
H13_4 H 0.7322 0.1794 0.6936
C20_4 C 0.65106(16) 0.24100(9) 0.69858(6)
C21_4 C 0.62941(17) 0.29144(11) 0.68717(7)
H14_4 H 0.5844 0.3097 0.6962
C22_4 C 0.67640(16) 0.31463(10) 0.66174(6)
H15_4 H 0.6627 0.3488 0.6540
C23_4 C 0.47990(19) 0.18977(12) 0.68930(6)
H16_4 H 0.4310 0.1681 0.6920
H17_4 H 0.5135 0.1750 0.6719
H18_4 H 0.4642 0.2259 0.6837
C24_4 C 0.52808(16) 0.19016(9) 0.72086(6)
C25_4 C 0.62665(14) 0.20587(9) 0.75722(5)
C26_4 C 0.70218(15) 0.22361(9) 0.77427(6)
C27_4 C 0.7470(2) 0.26940(12) 0.76569(8)
H19_4 H 0.7304 0.2908 0.7480
C28_4 C 0.8168(2) 0.28248(16) 0.78398(10)
H20_4 H 0.8478 0.3128 0.7785
C29_4 C 0.8399(2) 0.25070(17) 0.81009(10)
H21_4 H 0.8871 0.2587 0.8224
C30_4 C 0.79122(19) 0.20610(12) 0.81788(7)
H22_4 H 0.8063 0.1850 0.8360
N5_4 N 0.56899(12) 0.17647(8) 0.77207(4)
N6_4 N 0.50616(13) 0.16629(8) 0.74886(5)
N7_4 N 0.60333(12) 0.21575(8) 0.72483(5)
N8_4 N 0.72371(12) 0.19221(7) 0.80051(5)
O3_4 O 0.77228(12) 0.35848(8) 0.60989(5)
O4_4 O 0.85193(14) 0.28729(9) 0.60751(5)
N9_4 N 0.81899(12) 0.32353(8) 0.52207(4)
N10_4 N 0.93101(12) 0.42647(8) 0.52207(4)
N11_4 N 0.97371(12) 0.30779(7) 0.55051(5)
N12_4 N 0.77629(12) 0.44221(7) 0.55051(5)
C12_4 C 0.7530(2) 0.01940(12) 0.01569(8)
C13_5 C 0.6832(2) 0.03248(16) 0.03398(10)
H9_5 H 0.6522 0.0628 0.0285
C14_5 C 0.6601(2) 0.00070(17) 0.06009(10)
H10_5 H 0.6129 0.0087 0.0724
C25_5 C 0.37665(14) 0.29413(9) 0.00722(5)
C26_5 C 0.45218(15) 0.27639(9) 0.02427(6)
C27_5 C 0.4970(2) 0.23060(12) 0.01569(8)
C28_5 C 0.5668(2) 0.21752(16) 0.03398(10)
H20_5 H 0.5978 0.1872 0.0285
C29_5 C 0.5899(2) 0.24930(17) 0.06009(10)
H21_5 H 0.6371 0.2413 0.0724
C30_5 C 0.54122(19) 0.29390(12) 0.06788(7)
H22_5 H 0.5563 0.3150 0.0860
C1_5 C 0.70682(16) 0.06269(11) 0.86994(5)
C2_4 C 0.75687(15) 0.03740(9) 0.89793(5)
C6_4 C 0.87059(17) 0.04144(11) 0.93717(7)
H3_4 H 0.9156 0.0597 0.9462
C7_4 C 0.82360(16) 0.06463(10) 0.91174(6)
H4_4 H 0.8373 0.0988 0.9040
H8_4 H 0.7696 0.0408 0.9980
O1_5 O 0.72772(12) 0.10848(8) 0.85989(5)
O2_5 O 0.64807(14) 0.03729(9) 0.85751(5)
C16_5 C 0.54318(16) 0.18731(11) 0.86994(5)
C17_5 C 0.49313(15) 0.21260(9) 0.89793(5)
C18_5 C 0.51319(19) 0.26314(11) 0.90976(7)
H12_5 H 0.5576 0.2817 0.9005
C19_5 C 0.46781(19) 0.28679(11) 0.93545(7)
H13_5 H 0.4822 0.3206 0.9436
C20_5 C 0.40106(16) 0.25900(9) 0.94858(6)
C21_5 C 0.37941(17) 0.20856(11) 0.93717(7)
H14_5 H 0.3344 0.1903 0.9462
C22_5 C 0.42640(16) 0.18537(10) 0.91174(6)
H15_5 H 0.4127 0.1512 0.9040
C23_5 C 0.22990(19) 0.31023(12) 0.93930(6)
H16_5 H 0.1810 0.3319 0.9420
H17_5 H 0.2635 0.3250 0.9219
H18_5 H 0.2142 0.2741 0.9337
C24_5 C 0.27808(16) 0.30984(9) 0.97086(6)
H19_5 H 0.4804 0.2092 0.9980
N6_5 N 0.25616(13) 0.33371(8) 0.99886(5)
N7_5 N 0.35333(12) 0.28425(8) 0.97483(5)
O3_5 O 0.52228(12) 0.14152(8) 0.85989(5)
O4_5 O 0.60193(14) 0.21271(9) 0.85751(5)
C10_5 C 0.87335(14) 0.95587(9) 0.00722(5)
C11_5 C 0.79782(15) 0.97361(9) 0.02427(6)
C15_4 C 0.70878(19) 0.95610(12) 0.06788(7)
H11_4 H 0.6937 0.9350 0.0860
C13_6 C 0.0668(2) 0.71752(16) 0.03398(10)
H9_6 H 0.0978 0.6872 0.0285
C14_6 C 0.0899(2) 0.74930(17) 0.06009(10)
H10_6 H 0.1371 0.7413 0.0724
C15_5 C 0.04122(19) 0.79390(12) 0.06788(7)
H11_5 H 0.0563 0.8150 0.0860
C25_6 C 0.37335(14) 0.45587(9) 0.00722(5)
C26_6 C 0.29782(15) 0.47361(9) 0.02427(6)
C27_6 C 0.2530(2) 0.51940(12) 0.01569(8)
C28_6 C 0.1832(2) 0.53248(16) 0.03398(10)
H20_6 H 0.1522 0.5628 0.0285
C29_6 C 0.1601(2) 0.50070(17) 0.06009(10)
H21_6 H 0.1129 0.5087 0.0724
C30_6 C 0.20878(19) 0.45610(12) 0.06788(7)
H22_6 H 0.1937 0.4350 0.0860
C1_6 C 0.04318(16) 0.68731(11) 0.86994(5)
C3_4 C 0.01319(19) 0.76314(11) 0.90976(7)
H1_4 H 0.0576 0.7817 0.9005
O1_6 O 0.02228(12) 0.64152(8) 0.85989(5)
O2_6 O 0.10193(14) 0.71271(9) 0.85751(5)
C16_6 C 0.20682(16) 0.56269(11) 0.86994(5)
C17_6 C 0.25687(15) 0.53740(9) 0.89793(5)
C18_6 C 0.23681(19) 0.48686(11) 0.90976(7)
H12_6 H 0.1924 0.4683 0.9005
C19_6 C 0.28219(19) 0.46321(11) 0.93545(7)
H13_6 H 0.2678 0.4294 0.9436
C20_6 C 0.34894(16) 0.49100(9) 0.94858(6)
C21_6 C 0.37059(17) 0.54144(11) 0.93717(7)
H14_6 H 0.4156 0.5597 0.9462
C22_6 C 0.32360(16) 0.56463(10) 0.91174(6)
H15_6 H 0.3373 0.5988 0.9040
C23_6 C 0.52010(19) 0.43977(12) 0.93930(6)
H16_6 H 0.5690 0.4181 0.9420
H17_6 H 0.4865 0.4250 0.9219
H18_6 H 0.5358 0.4759 0.9337
C24_6 C 0.47192(16) 0.44016(9) 0.97086(6)
H19_6 H 0.2696 0.5408 0.9980
N6_6 N 0.49384(13) 0.41629(8) 0.99886(5)
N7_6 N 0.39667(12) 0.46575(8) 0.97483(5)
O3_6 O 0.22772(12) 0.60848(8) 0.85989(5)
O4_6 O 0.14807(14) 0.53729(9) 0.85751(5)
C10_6 C 0.87665(14) 0.79413(9) 0.00722(5)
C11_6 C 0.95218(15) 0.77639(9) 0.02427(6)
C12_5 C 0.9970(2) 0.73060(12) 0.01569(8)
C1_7 C 0.70682(16) 0.56269(11) 0.36994(5)
C2_5 C 0.75687(15) 0.53740(9) 0.39793(5)
C3_5 C 0.73681(19) 0.48686(11) 0.40976(7)
H1_5 H 0.6924 0.4683 0.4005
C4_5 C 0.78219(19) 0.46321(11) 0.43545(7)
H2_5 H 0.7678 0.4294 0.4436
C5_5 C 0.84894(16) 0.49100(9) 0.44858(6)
C6_5 C 0.87059(17) 0.54144(11) 0.43717(7)
H3_5 H 0.9156 0.5597 0.4462
C7_5 C 0.82360(16) 0.56463(10) 0.41174(6)
H4_5 H 0.8373 0.5988 0.4040
H6_5 H 0.9865 0.4250 0.4219
C9_5 C 0.97192(16) 0.44016(9) 0.47086(6)
C10_7 C 0.87335(14) 0.45587(9) 0.50722(5)
C11_7 C 0.79782(15) 0.47361(9) 0.52427(6)
C12_6 C 0.7530(2) 0.51940(12) 0.51569(8)
H8_5 H 0.7696 0.5408 0.4980
C13_7 C 0.6832(2) 0.53248(16) 0.53398(10)
H9_7 H 0.6522 0.5628 0.5285
C14_7 C 0.6601(2) 0.50070(17) 0.56009(10)
H10_7 H 0.6129 0.5087 0.5724
C15_6 C 0.70878(19) 0.45610(12) 0.56788(7)
H11_6 H 0.6937 0.4350 0.5860
N2_5 N 0.99384(13) 0.41629(8) 0.49886(5)
N3_5 N 0.89667(12) 0.46575(8) 0.47483(5)
O1_7 O 0.72772(12) 0.60848(8) 0.35989(5)
O2_7 O 0.64807(14) 0.53729(9) 0.35751(5)
C16_7 C 0.54318(16) 0.68731(11) 0.36994(5)
C17_7 C 0.49313(15) 0.71260(9) 0.39793(5)
C18_7 C 0.51319(19) 0.76314(11) 0.40976(7)
H12_7 H 0.5576 0.7817 0.4005
C19_7 C 0.46781(19) 0.78679(11) 0.43545(7)
H13_7 H 0.4822 0.8206 0.4436
C20_7 C 0.40106(16) 0.75900(9) 0.44858(6)
C21_7 C 0.37941(17) 0.70856(11) 0.43717(7)
H14_7 H 0.3344 0.6903 0.4462
C22_7 C 0.42640(16) 0.68537(10) 0.41174(6)
H15_7 H 0.4127 0.6512 0.4040
C23_7 C 0.22990(19) 0.81023(12) 0.43930(6)
H16_7 H 0.1810 0.8319 0.4420
H17_7 H 0.2635 0.8250 0.4219
H18_7 H 0.2142 0.7741 0.4337
C24_7 C 0.27808(16) 0.80984(9) 0.47086(6)
C25_7 C 0.37665(14) 0.79413(9) 0.50722(5)
C26_7 C 0.45218(15) 0.77639(9) 0.52427(6)
C27_7 C 0.4970(2) 0.73060(12) 0.51569(8)
H19_7 H 0.4804 0.7092 0.4980
C28_7 C 0.5668(2) 0.71752(16) 0.53398(10)
H20_7 H 0.5978 0.6872 0.5285
C29_7 C 0.5899(2) 0.74930(17) 0.56009(10)
H21_7 H 0.6371 0.7413 0.5724
C30_7 C 0.54122(19) 0.79390(12) 0.56788(7)
H22_7 H 0.5563 0.8150 0.5860
N6_7 N 0.25616(13) 0.83371(8) 0.49886(5)
N7_7 N 0.35333(12) 0.78425(8) 0.47483(5)
O3_7 O 0.52228(12) 0.64152(8) 0.35989(5)
O4_7 O 0.60193(14) 0.71271(9) 0.35751(5)
C1_8 C 0.04318(16) 0.18731(11) 0.36994(5)
C3_6 C 0.01319(19) 0.26314(11) 0.40976(7)
H1_6 H 0.0576 0.2817 0.4005
C13_8 C 0.0668(2) 0.21752(16) 0.53398(10)
H9_8 H 0.0978 0.1872 0.5285
C14_8 C 0.0899(2) 0.24930(17) 0.56009(10)
H10_8 H 0.1371 0.2413 0.5724
C15_7 C 0.04122(19) 0.29390(12) 0.56788(7)
H11_7 H 0.0563 0.3150 0.5860
O1_8 O 0.02228(12) 0.14152(8) 0.35989(5)
O2_8 O 0.10193(14) 0.21271(9) 0.35751(5)
C16_8 C 0.20682(16) 0.06269(11) 0.36994(5)
C17_8 C 0.25687(15) 0.03740(9) 0.39793(5)
C21_8 C 0.37059(17) 0.04144(11) 0.43717(7)
H14_8 H 0.4156 0.0597 0.4462
C22_8 C 0.32360(16) 0.06463(10) 0.41174(6)
H15_8 H 0.3373 0.0988 0.4040
C27_8 C 0.2530(2) 0.01940(12) 0.51569(8)
H19_8 H 0.2696 0.0408 0.4980
C28_8 C 0.1832(2) 0.03248(16) 0.53398(10)
H20_8 H 0.1522 0.0628 0.5285
C29_8 C 0.1601(2) 0.00070(17) 0.56009(10)
H21_8 H 0.1129 0.0087 0.5724
O3_8 O 0.22772(12) 0.10848(8) 0.35989(5)
O4_8 O 0.14807(14) 0.03729(9) 0.35751(5)
C18_8 C 0.23681(19) 0.98686(11) 0.40976(7)
H12_8 H 0.1924 0.9683 0.4005
C19_8 C 0.28219(19) 0.96321(11) 0.43545(7)
H13_8 H 0.2678 0.9294 0.4436
C20_8 C 0.34894(16) 0.99100(9) 0.44858(6)
C23_8 C 0.52010(19) 0.93977(12) 0.43930(6)
H16_8 H 0.5690 0.9181 0.4420
H17_8 H 0.4865 0.9250 0.4219
H18_8 H 0.5358 0.9759 0.4337
C24_8 C 0.47192(16) 0.94016(9) 0.47086(6)
C25_8 C 0.37335(14) 0.95587(9) 0.50722(5)
C26_8 C 0.29782(15) 0.97361(9) 0.52427(6)
C30_8 C 0.20878(19) 0.95610(12) 0.56788(7)
H22_8 H 0.1937 0.9350 0.5860
N6_8 N 0.49384(13) 0.91629(8) 0.49886(5)
N7_8 N 0.39667(12) 0.96575(8) 0.47483(5)
C2_6 C 0.99313(15) 0.21260(9) 0.39793(5)
C4_6 C 0.96781(19) 0.28679(11) 0.43545(7)
H2_6 H 0.9822 0.3206 0.4436
C5_6 C 0.90106(16) 0.25900(9) 0.44858(6)
C6_6 C 0.87941(17) 0.20856(11) 0.43717(7)
H3_6 H 0.8344 0.1903 0.4462
C7_6 C 0.92640(16) 0.18537(10) 0.41174(6)
H4_6 H 0.9127 0.1512 0.4040
C8_3 C 0.72990(19) 0.31023(12) 0.43930(6)
H5_3 H 0.6810 0.3319 0.4420
H6_6 H 0.7635 0.3250 0.4219
H7_3 H 0.7142 0.2741 0.4337
C9_6 C 0.77808(16) 0.30984(9) 0.47086(6)
C10_8 C 0.87665(14) 0.29413(9) 0.50722(5)
C11_8 C 0.95218(15) 0.27639(9) 0.52427(6)
C12_7 C 0.9970(2) 0.23060(12) 0.51569(8)
H8_6 H 0.9804 0.2092 0.4980
N2_6 N 0.75616(13) 0.33371(8) 0.49886(5)
N3_6 N 0.85333(12) 0.28425(8) 0.47483(5)
C8_4 C 0.97990(19) 0.18977(12) 0.18930(6)
H5_4 H 0.9310 0.1681 0.1920
H7_4 H 0.9642 0.2259 0.1837
C2_7 C 0.00687(15) 0.96260(9) 0.14793(5)
C6_7 C 0.12059(17) 0.95856(11) 0.18717(7)
H3_7 H 0.1656 0.9403 0.1962
C7_7 C 0.07360(16) 0.93537(10) 0.16174(6)
H4_7 H 0.0873 0.9012 0.1540
C12_8 C 0.0030(2) 0.98060(12) 0.26569(8)
H8_7 H 0.0196 0.9592 0.2480
C3_7 C 0.98681(19) 0.01314(11) 0.15976(7)
H1_7 H 0.9424 0.0317 0.1505
C15_8 C 0.95878(19) 0.04390(12) 0.31788(7)
H11_8 H 0.9437 0.0650 0.3360
C3_8 C 0.26319(19) 0.01314(11) 0.09024(7)
H1_8 H 0.3076 0.0317 0.0995
C4_7 C 0.21781(19) 0.03679(11) 0.06455(7)
H2_7 H 0.2322 0.0706 0.0564
C5_7 C 0.15106(16) 0.00900(9) 0.05142(6)
H6_7 H 0.0135 0.0750 0.0781
C9_7 C 0.02808(16) 0.05984(9) 0.02914(6)
N2_7 N 0.00616(13) 0.08371(8) 0.00114(5)
N3_7 N 0.10333(12) 0.03425(8) 0.02517(5)
C10_9 C 0.12665(14) 0.04413(9) 0.99278(5)
C11_9 C 0.20218(15) 0.02639(9) 0.97573(6)
C15_9 C 0.29122(19) 0.04390(12) 0.93212(7)
H11_9 H 0.3063 0.0650 0.9140
N1_5 N 0.06899(12) 0.07353(8) 0.97793(4)
N4_5 N 0.22371(12) 0.05779(7) 0.94949(5)
Cd3_3 Cd 0.1250 0.1250 0.929671(4)
C1_9 C 0.29318(16) 0.93731(11) 0.13006(5)
C2_8 C 0.24313(15) 0.96260(9) 0.10207(5)
C6_8 C 0.12941(17) 0.95856(11) 0.06283(7)
H3_8 H 0.0844 0.9403 0.0538
C7_8 C 0.17640(16) 0.93537(10) 0.08826(6)
H4_8 H 0.1627 0.9012 0.0960
H8_8 H 0.2304 0.9592 0.0020
Cd1_5 Cd 0.3750 0.8750 0.179671(4)
O1_9 O 0.27228(12) 0.89152(8) 0.14011(5)
O2_9 O 0.35193(14) 0.96271(9) 0.14249(5)
C16_9 C 0.45682(16) 0.81269(11) 0.13006(5)
C17_9 C 0.50687(15) 0.78740(9) 0.10207(5)
C18_9 C 0.48681(19) 0.73686(11) 0.09024(7)
H12_9 H 0.4424 0.7183 0.0995
C19_9 C 0.53219(19) 0.71321(11) 0.06455(7)
H13_9 H 0.5178 0.6794 0.0564
C20_9 C 0.59894(16) 0.74100(9) 0.05142(6)
C21_9 C 0.62059(17) 0.79144(11) 0.06283(7)
H14_9 H 0.6656 0.8097 0.0538
C22_9 C 0.57360(16) 0.81463(10) 0.08826(6)
H15_9 H 0.5873 0.8488 0.0960
C23_9 C 0.77010(19) 0.68977(12) 0.06070(6)
H16_9 H 0.8190 0.6681 0.0580
H17_9 H 0.7365 0.6750 0.0781
H18_9 H 0.7858 0.7259 0.0663
C24_9 C 0.72192(16) 0.69016(9) 0.02914(6)
H19_9 H 0.5196 0.7908 0.0020
N6_9 N 0.74384(13) 0.66629(8) 0.00114(5)
N7_9 N 0.64667(12) 0.71575(8) 0.02517(5)
O3_9 O 0.47772(12) 0.85848(8) 0.14011(5)
O4_9 O 0.39807(14) 0.78729(9) 0.14249(5)
N9_5 N 0.43101(12) 0.82353(8) 0.22793(4)
N10_5 N 0.31899(12) 0.92647(8) 0.22793(4)
N11_5 N 0.27629(12) 0.80779(7) 0.19949(5)
N12_5 N 0.47371(12) 0.94221(7) 0.19949(5)
C12_9 C 0.2470(2) 0.98060(12) 0.98431(8)
C13_9 C 0.3168(2) 0.96752(16) 0.96602(10)
H9_9 H 0.3478 0.9372 0.9715
C14_9 C 0.3399(2) 0.99930(17) 0.93991(10)
H10_9 H 0.3871 0.9913 0.9276
C25_9 C 0.62335(14) 0.70587(9) 0.99278(5)
C26_9 C 0.54782(15) 0.72361(9) 0.97573(6)
C27_9 C 0.5030(2) 0.76940(12) 0.98431(8)
C28_9 C 0.4332(2) 0.78248(16) 0.96602(10)
H20_9 H 0.4022 0.8128 0.9715
C29_9 C 0.4101(2) 0.75070(17) 0.93991(10)
H21_9 H 0.3629 0.7587 0.9276
C30_9 C 0.45878(19) 0.70610(12) 0.93212(7)
H22_9 H 0.4437 0.6850 0.9140
N5_5 N 0.68101(12) 0.67647(8) 0.97793(4)
N8_5 N 0.52629(12) 0.69221(7) 0.94949(5)
Cd2_3 Cd 0.6250 0.6250 0.929671(4)
C10_10 C 0.12335(14) 0.20587(9) 0.99278(5)
C11_10 C 0.04782(15) 0.22361(9) 0.97573(6)
C12_10 C 0.0030(2) 0.26940(12) 0.98431(8)
N1_6 N 0.18101(12) 0.17647(8) 0.97793(4)
N4_6 N 0.02629(12) 0.19221(7) 0.94949(5)
C1_10 C 0.95682(16) 0.31269(11) 0.13006(5)
C3_9 C 0.98681(19) 0.23686(11) 0.09024(7)
H1_9 H 0.9424 0.2183 0.0995
Cd1_6 Cd 0.8750 0.3750 0.179671(4)
O1_10 O 0.97772(12) 0.35848(8) 0.14011(5)
O2_10 O 0.89807(14) 0.28729(9) 0.14249(5)
C16_10 C 0.79318(16) 0.43731(11) 0.13006(5)
C17_10 C 0.74313(15) 0.46260(9) 0.10207(5)
C18_10 C 0.76319(19) 0.51314(11) 0.09024(7)
H12_10 H 0.8076 0.5317 0.0995
C19_10 C 0.71781(19) 0.53679(11) 0.06455(7)
H13_10 H 0.7322 0.5706 0.0564
C20_10 C 0.65106(16) 0.50900(9) 0.05142(6)
C21_10 C 0.62941(17) 0.45856(11) 0.06283(7)
H14_10 H 0.5844 0.4403 0.0538
C22_10 C 0.67640(16) 0.43537(10) 0.08826(6)
H15_10 H 0.6627 0.4012 0.0960
C23_10 C 0.47990(19) 0.56023(12) 0.06070(6)
H16_10 H 0.4310 0.5819 0.0580
H17_10 H 0.5135 0.5750 0.0781
H18_10 H 0.4642 0.5241 0.0663
C24_10 C 0.52808(16) 0.55984(9) 0.02914(6)
H19_10 H 0.7304 0.4592 0.0020
N6_10 N 0.50616(13) 0.58371(8) 0.00114(5)
N7_10 N 0.60333(12) 0.53425(8) 0.02517(5)
O3_10 O 0.77228(12) 0.39152(8) 0.14011(5)
O4_10 O 0.85193(14) 0.46271(9) 0.14249(5)
N9_6 N 0.81899(12) 0.42647(8) 0.22793(4)
N10_6 N 0.93101(12) 0.32353(8) 0.22793(4)
N11_6 N 0.97371(12) 0.44221(7) 0.19949(5)
N12_6 N 0.77629(12) 0.30779(7) 0.19949(5)
C13_10 C 0.9332(2) 0.28248(16) 0.96602(10)
H9_10 H 0.9022 0.3128 0.9715
C14_10 C 0.9101(2) 0.25070(17) 0.93991(10)
H10_10 H 0.8629 0.2587 0.9276
C15_10 C 0.95878(19) 0.20610(12) 0.93212(7)
H11_10 H 0.9437 0.1850 0.9140
C25_10 C 0.62665(14) 0.54413(9) 0.99278(5)
C26_10 C 0.70218(15) 0.52639(9) 0.97573(6)
C27_10 C 0.7470(2) 0.48060(12) 0.98431(8)
C28_10 C 0.8168(2) 0.46752(16) 0.96602(10)
H20_10 H 0.8478 0.4372 0.9715
C29_10 C 0.8399(2) 0.49930(17) 0.93991(10)
H21_10 H 0.8871 0.4913 0.9276
C30_10 C 0.79122(19) 0.54390(12) 0.93212(7)
H22_10 H 0.8063 0.5650 0.9140
N5_6 N 0.56899(12) 0.57353(8) 0.97793(4)
N8_6 N 0.72371(12) 0.55779(7) 0.94949(5)
C1_11 C 0.29318(16) 0.43731(11) 0.63006(5)
C2_9 C 0.24313(15) 0.46260(9) 0.60207(5)
C3_10 C 0.26319(19) 0.51314(11) 0.59024(7)
H1_10 H 0.3076 0.5317 0.5995
C4_8 C 0.21781(19) 0.53679(11) 0.56455(7)
H2_8 H 0.2322 0.5706 0.5564
C5_8 C 0.15106(16) 0.50900(9) 0.55142(6)
C6_9 C 0.12941(17) 0.45856(11) 0.56283(7)
H3_9 H 0.0844 0.4403 0.5538
C7_9 C 0.17640(16) 0.43537(10) 0.58826(6)
H4_9 H 0.1627 0.4012 0.5960
H6_8 H 0.0135 0.5750 0.5781
C9_8 C 0.02808(16) 0.55984(9) 0.52914(6)
C10_11 C 0.12665(14) 0.54413(9) 0.49278(5)
C11_11 C 0.20218(15) 0.52639(9) 0.47573(6)
C12_11 C 0.2470(2) 0.48060(12) 0.48431(8)
H8_9 H 0.2304 0.4592 0.5020
C13_11 C 0.3168(2) 0.46752(16) 0.46602(10)
H9_11 H 0.3478 0.4372 0.4715
C14_11 C 0.3399(2) 0.49930(17) 0.43991(10)
H10_11 H 0.3871 0.4913 0.4276
C15_11 C 0.29122(19) 0.54390(12) 0.43212(7)
H11_11 H 0.3063 0.5650 0.4140
Cd1_7 Cd 0.3750 0.3750 0.679671(4)
N1_7 N 0.06899(12) 0.57353(8) 0.47793(4)
N2_8 N 0.00616(13) 0.58371(8) 0.50114(5)
N3_8 N 0.10333(12) 0.53425(8) 0.52517(5)
N4_7 N 0.22371(12) 0.55779(7) 0.44949(5)
O1_11 O 0.27228(12) 0.39152(8) 0.64011(5)
O2_11 O 0.35193(14) 0.46271(9) 0.64249(5)
C16_11 C 0.45682(16) 0.31269(11) 0.63006(5)
C17_11 C 0.50687(15) 0.28740(9) 0.60207(5)
C18_11 C 0.48681(19) 0.23686(11) 0.59024(7)
H12_11 H 0.4424 0.2183 0.5995
C19_11 C 0.53219(19) 0.21321(11) 0.56455(7)
H13_11 H 0.5178 0.1794 0.5564
C20_11 C 0.59894(16) 0.24100(9) 0.55142(6)
C21_11 C 0.62059(17) 0.29144(11) 0.56283(7)
H14_11 H 0.6656 0.3097 0.5538
C22_11 C 0.57360(16) 0.31463(10) 0.58826(6)
H15_11 H 0.5873 0.3488 0.5960
C23_11 C 0.77010(19) 0.18977(12) 0.56070(6)
H16_11 H 0.8190 0.1681 0.5580
H17_11 H 0.7365 0.1750 0.5781
H18_11 H 0.7858 0.2259 0.5663
C24_11 C 0.72192(16) 0.19016(9) 0.52914(6)
C25_11 C 0.62335(14) 0.20587(9) 0.49278(5)
C26_11 C 0.54782(15) 0.22361(9) 0.47573(6)
C27_11 C 0.5030(2) 0.26940(12) 0.48431(8)
H19_11 H 0.5196 0.2908 0.5020
C28_11 C 0.4332(2) 0.28248(16) 0.46602(10)
H20_11 H 0.4022 0.3128 0.4715
C29_11 C 0.4101(2) 0.25070(17) 0.43991(10)
H21_11 H 0.3629 0.2587 0.4276
C30_11 C 0.45878(19) 0.20610(12) 0.43212(7)
H22_11 H 0.4437 0.1850 0.4140
N5_7 N 0.68101(12) 0.17647(8) 0.47793(4)
N6_11 N 0.74384(13) 0.16629(8) 0.50114(5)
N7_11 N 0.64667(12) 0.21575(8) 0.52517(5)
N8_7 N 0.52629(12) 0.19221(7) 0.44949(5)
O3_11 O 0.47772(12) 0.35848(8) 0.64011(5)
O4_11 O 0.39807(14) 0.28729(9) 0.64249(5)
Cd2_4 Cd 0.6250 0.1250 0.429671(4)
Cd3_4 Cd 0.1250 0.6250 0.429671(4)
N9_7 N 0.43101(12) 0.32353(8) 0.72793(4)
N10_7 N 0.31899(12) 0.42647(8) 0.72793(4)
N11_7 N 0.27629(12) 0.30779(7) 0.69949(5)
N12_7 N 0.47371(12) 0.44221(7) 0.69949(5)
C2_10 C 0.00687(15) 0.78740(9) 0.60207(5)
C4_9 C 0.03219(19) 0.71321(11) 0.56455(7)
H2_9 H 0.0178 0.6794 0.5564
C5_9 C 0.09894(16) 0.74100(9) 0.55142(6)
C6_10 C 0.12059(17) 0.79144(11) 0.56283(7)
H3_10 H 0.1656 0.8097 0.5538
C7_10 C 0.07360(16) 0.81463(10) 0.58826(6)
H4_10 H 0.0873 0.8488 0.5960
C8_5 C 0.27010(19) 0.68977(12) 0.56070(6)
H5_5 H 0.3190 0.6681 0.5580
H6_9 H 0.2365 0.6750 0.5781
H7_5 H 0.2858 0.7259 0.5663
C9_9 C 0.22192(16) 0.69016(9) 0.52914(6)
C10_12 C 0.12335(14) 0.70587(9) 0.49278(5)
C11_12 C 0.04782(15) 0.72361(9) 0.47573(6)
C12_12 C 0.0030(2) 0.76940(12) 0.48431(8)
H8_10 H 0.0196 0.7908 0.5020
N1_8 N 0.18101(12) 0.67647(8) 0.47793(4)
N2_9 N 0.24384(13) 0.66629(8) 0.50114(5)
N3_9 N 0.14667(12) 0.71575(8) 0.52517(5)
N4_8 N 0.02629(12) 0.69221(7) 0.44949(5)
C18_12 C 0.76319(19) 0.01314(11) 0.59024(7)
H12_12 H 0.8076 0.0317 0.5995
C19_12 C 0.71781(19) 0.03679(11) 0.56455(7)
H13_12 H 0.7322 0.0706 0.5564
C20_12 C 0.65106(16) 0.00900(9) 0.55142(6)
C23_12 C 0.47990(19) 0.06023(12) 0.56070(6)
H16_12 H 0.4310 0.0819 0.5580
H17_12 H 0.5135 0.0750 0.5781
H18_12 H 0.4642 0.0241 0.5663
C24_12 C 0.52808(16) 0.05984(9) 0.52914(6)
C25_12 C 0.62665(14) 0.04413(9) 0.49278(5)
C26_12 C 0.70218(15) 0.02639(9) 0.47573(6)
C30_12 C 0.79122(19) 0.04390(12) 0.43212(7)
H22_12 H 0.8063 0.0650 0.4140
N5_8 N 0.56899(12) 0.07353(8) 0.47793(4)
N6_12 N 0.50616(13) 0.08371(8) 0.50114(5)
N7_12 N 0.60333(12) 0.03425(8) 0.52517(5)
N8_8 N 0.72371(12) 0.05779(7) 0.44949(5)
C1_12 C 0.95682(16) 0.81269(11) 0.63006(5)
C3_11 C 0.98681(19) 0.73686(11) 0.59024(7)
H1_11 H 0.9424 0.7183 0.5995
C13_12 C 0.9332(2) 0.78248(16) 0.46602(10)
H9_12 H 0.9022 0.8128 0.4715
C14_12 C 0.9101(2) 0.75070(17) 0.43991(10)
H10_12 H 0.8629 0.7587 0.4276
C15_12 C 0.95878(19) 0.70610(12) 0.43212(7)
H11_12 H 0.9437 0.6850 0.4140
Cd1_8 Cd 0.8750 0.8750 0.679671(4)
O1_12 O 0.97772(12) 0.85848(8) 0.64011(5)
O2_12 O 0.89807(14) 0.78729(9) 0.64249(5)
C16_12 C 0.79318(16) 0.93731(11) 0.63006(5)
C17_12 C 0.74313(15) 0.96260(9) 0.60207(5)
C21_12 C 0.62941(17) 0.95856(11) 0.56283(7)
H14_12 H 0.5844 0.9403 0.5538
C22_12 C 0.67640(16) 0.93537(10) 0.58826(6)
H15_12 H 0.6627 0.9012 0.5960
C27_12 C 0.7470(2) 0.98060(12) 0.48431(8)
H19_12 H 0.7304 0.9592 0.5020
C28_12 C 0.8168(2) 0.96752(16) 0.46602(10)
H20_12 H 0.8478 0.9372 0.4715
C29_12 C 0.8399(2) 0.99930(17) 0.43991(10)
H21_12 H 0.8871 0.9913 0.4276
O3_12 O 0.77228(12) 0.89152(8) 0.64011(5)
O4_12 O 0.85193(14) 0.96271(9) 0.64249(5)
N9_8 N 0.81899(12) 0.92647(8) 0.72793(4)
N10_8 N 0.93101(12) 0.82353(8) 0.72793(4)
N11_8 N 0.97371(12) 0.94221(7) 0.69949(5)
N12_8 N 0.77629(12) 0.80779(7) 0.69949(5)
C1_13 C 0.70682(16) 0.68731(11) 0.88006(5)
C2_11 C 0.75687(15) 0.71260(9) 0.85207(5)
C3_12 C 0.73681(19) 0.76314(11) 0.84024(7)
H1_12 H 0.6924 0.7817 0.8495
C4_10 C 0.78219(19) 0.78679(11) 0.81455(7)
H2_10 H 0.7678 0.8206 0.8064
C5_10 C 0.84894(16) 0.75900(9) 0.80142(6)
C6_11 C 0.87059(17) 0.70856(11) 0.81283(7)
H3_11 H 0.9156 0.6903 0.8038
C7_11 C 0.82360(16) 0.68537(10) 0.83826(6)
H4_11 H 0.8373 0.6512 0.8460
H6_10 H 0.9865 0.8250 0.8281
C9_10 C 0.97192(16) 0.80984(9) 0.77914(6)
C10_13 C 0.87335(14) 0.79413(9) 0.74278(5)
C11_13 C 0.79782(15) 0.77639(9) 0.72573(6)
C12_13 C 0.7530(2) 0.73060(12) 0.73431(8)
H8_11 H 0.7696 0.7092 0.7520
C13_13 C 0.6832(2) 0.71752(16) 0.71602(10)
H9_13 H 0.6522 0.6872 0.7215
C14_13 C 0.6601(2) 0.74930(17) 0.68991(10)
H10_13 H 0.6129 0.7413 0.6776
C15_13 C 0.70878(19) 0.79390(12) 0.68212(7)
H11_13 H 0.6937 0.8150 0.6640
N2_10 N 0.99384(13) 0.83371(8) 0.75114(5)
N3_10 N 0.89667(12) 0.78425(8) 0.77517(5)
O1_13 O 0.72772(12) 0.64152(8) 0.89011(5)
O2_13 O 0.64807(14) 0.71271(9) 0.89249(5)
C16_13 C 0.54318(16) 0.56269(11) 0.88006(5)
C17_13 C 0.49313(15) 0.53740(9) 0.85207(5)
C18_13 C 0.51319(19) 0.48686(11) 0.84024(7)
H12_13 H 0.5576 0.4683 0.8495
C19_13 C 0.46781(19) 0.46321(11) 0.81455(7)
H13_13 H 0.4822 0.4294 0.8064
C20_13 C 0.40106(16) 0.49100(9) 0.80142(6)
C21_13 C 0.37941(17) 0.54144(11) 0.81283(7)
H14_13 H 0.3344 0.5597 0.8038
C22_13 C 0.42640(16) 0.56463(10) 0.83826(6)
H15_13 H 0.4127 0.5988 0.8460
C23_13 C 0.22990(19) 0.43977(12) 0.81070(6)
H16_13 H 0.1810 0.4181 0.8080
H17_13 H 0.2635 0.4250 0.8281
H18_13 H 0.2142 0.4759 0.8163
C24_13 C 0.27808(16) 0.44016(9) 0.77914(6)
C25_13 C 0.37665(14) 0.45587(9) 0.74278(5)
C26_13 C 0.45218(15) 0.47361(9) 0.72573(6)
C27_13 C 0.4970(2) 0.51940(12) 0.73431(8)
H19_13 H 0.4804 0.5408 0.7520
C28_13 C 0.5668(2) 0.53248(16) 0.71602(10)
H20_13 H 0.5978 0.5628 0.7215
C29_13 C 0.5899(2) 0.50070(17) 0.68991(10)
H21_13 H 0.6371 0.5087 0.6776
C30_13 C 0.54122(19) 0.45610(12) 0.68212(7)
H22_13 H 0.5563 0.4350 0.6640
N6_13 N 0.25616(13) 0.41629(8) 0.75114(5)
N7_13 N 0.35333(12) 0.46575(8) 0.77517(5)
O3_13 O 0.52228(12) 0.60848(8) 0.89011(5)
O4_13 O 0.60193(14) 0.53729(9) 0.89249(5)
C1_14 C 0.04318(16) 0.06269(11) 0.88006(5)
C13_14 C 0.0668(2) 0.03248(16) 0.71602(10)
H9_14 H 0.0978 0.0628 0.7215
C14_14 C 0.0899(2) 0.00070(17) 0.68991(10)
H10_14 H 0.1371 0.0087 0.6776
O1_14 O 0.02228(12) 0.10848(8) 0.89011(5)
O2_14 O 0.10193(14) 0.03729(9) 0.89249(5)
C16_14 C 0.20682(16) 0.18731(11) 0.88006(5)
C17_14 C 0.25687(15) 0.21260(9) 0.85207(5)
C18_14 C 0.23681(19) 0.26314(11) 0.84024(7)
H12_14 H 0.1924 0.2817 0.8495
C19_14 C 0.28219(19) 0.28679(11) 0.81455(7)
H13_14 H 0.2678 0.3206 0.8064
C20_14 C 0.34894(16) 0.25900(9) 0.80142(6)
C21_14 C 0.37059(17) 0.20856(11) 0.81283(7)
H14_14 H 0.4156 0.1903 0.8038
C22_14 C 0.32360(16) 0.18537(10) 0.83826(6)
H15_14 H 0.3373 0.1512 0.8460
C23_14 C 0.52010(19) 0.31023(12) 0.81070(6)
H16_14 H 0.5690 0.3319 0.8080
H17_14 H 0.4865 0.3250 0.8281
H18_14 H 0.5358 0.2741 0.8163
C24_14 C 0.47192(16) 0.30984(9) 0.77914(6)
C25_14 C 0.37335(14) 0.29413(9) 0.74278(5)
C26_14 C 0.29782(15) 0.27639(9) 0.72573(6)
C27_14 C 0.2530(2) 0.23060(12) 0.73431(8)
H19_14 H 0.2696 0.2092 0.7520
C28_14 C 0.1832(2) 0.21752(16) 0.71602(10)
H20_14 H 0.1522 0.1872 0.7215
C29_14 C 0.1601(2) 0.24930(17) 0.68991(10)
H21_14 H 0.1129 0.2413 0.6776
C30_14 C 0.20878(19) 0.29390(12) 0.68212(7)
H22_14 H 0.1937 0.3150 0.6640
N6_14 N 0.49384(13) 0.33371(8) 0.75114(5)
N7_14 N 0.39667(12) 0.28425(8) 0.77517(5)
O3_14 O 0.22772(12) 0.14152(8) 0.89011(5)
O4_14 O 0.14807(14) 0.21271(9) 0.89249(5)
C4_11 C 0.96781(19) 0.96321(11) 0.81455(7)
H2_11 H 0.9822 0.9294 0.8064
C5_11 C 0.90106(16) 0.99100(9) 0.80142(6)
C8_6 C 0.72990(19) 0.93977(12) 0.81070(6)
H5_6 H 0.6810 0.9181 0.8080
H6_11 H 0.7635 0.9250 0.8281
H7_6 H 0.7142 0.9759 0.8163
C9_11 C 0.77808(16) 0.94016(9) 0.77914(6)
C10_14 C 0.87665(14) 0.95587(9) 0.74278(5)
C11_14 C 0.95218(15) 0.97361(9) 0.72573(6)
N2_11 N 0.75616(13) 0.91629(8) 0.75114(5)
N3_11 N 0.85333(12) 0.96575(8) 0.77517(5)
C1_15 C 0.70682(16) 0.18731(11) 0.38006(5)
C2_12 C 0.75687(15) 0.21260(9) 0.35207(5)
C3_13 C 0.73681(19) 0.26314(11) 0.34024(7)
H1_13 H 0.6924 0.2817 0.3495
C4_12 C 0.78219(19) 0.28679(11) 0.31455(7)
H2_12 H 0.7678 0.3206 0.3064
C5_12 C 0.84894(16) 0.25900(9) 0.30142(6)
C6_12 C 0.87059(17) 0.20856(11) 0.31283(7)
H3_12 H 0.9156 0.1903 0.3038
C7_12 C 0.82360(16) 0.18537(10) 0.33826(6)
H4_12 H 0.8373 0.1512 0.3460
H6_12 H 0.9865 0.3250 0.3281
C9_12 C 0.97192(16) 0.30984(9) 0.27914(6)
C10_15 C 0.87335(14) 0.29413(9) 0.24278(5)
C11_15 C 0.79782(15) 0.27639(9) 0.22573(6)
C12_14 C 0.7530(2) 0.23060(12) 0.23431(8)
H8_12 H 0.7696 0.2092 0.2520
C13_15 C 0.6832(2) 0.21752(16) 0.21602(10)
H9_15 H 0.6522 0.1872 0.2215
C14_15 C 0.6601(2) 0.24930(17) 0.18991(10)
H10_15 H 0.6129 0.2413 0.1776
C15_14 C 0.70878(19) 0.29390(12) 0.18212(7)
H11_14 H 0.6937 0.3150 0.1640
N2_12 N 0.99384(13) 0.33371(8) 0.25114(5)
N3_12 N 0.89667(12) 0.28425(8) 0.27517(5)
O1_15 O 0.72772(12) 0.14152(8) 0.39011(5)
O2_15 O 0.64807(14) 0.21271(9) 0.39249(5)
C16_15 C 0.54318(16) 0.06269(11) 0.38006(5)
C17_15 C 0.49313(15) 0.03740(9) 0.35207(5)
C21_15 C 0.37941(17) 0.04144(11) 0.31283(7)
H14_15 H 0.3344 0.0597 0.3038
C22_15 C 0.42640(16) 0.06463(10) 0.33826(6)
H15_15 H 0.4127 0.0988 0.3460
C27_15 C 0.4970(2) 0.01940(12) 0.23431(8)
H19_15 H 0.4804 0.0408 0.2520
C28_15 C 0.5668(2) 0.03248(16) 0.21602(10)
H20_15 H 0.5978 0.0628 0.2215
C29_15 C 0.5899(2) 0.00070(17) 0.18991(10)
H21_15 H 0.6371 0.0087 0.1776
O3_15 O 0.52228(12) 0.10848(8) 0.39011(5)
O4_15 O 0.60193(14) 0.03729(9) 0.39249(5)
C18_15 C 0.51319(19) 0.98686(11) 0.34024(7)
H12_15 H 0.5576 0.9683 0.3495
C19_15 C 0.46781(19) 0.96321(11) 0.31455(7)
H13_15 H 0.4822 0.9294 0.3064
C20_15 C 0.40106(16) 0.99100(9) 0.30142(6)
C23_15 C 0.22990(19) 0.93977(12) 0.31070(6)
H16_15 H 0.1810 0.9181 0.3080
H17_15 H 0.2635 0.9250 0.3281
H18_15 H 0.2142 0.9759 0.3163
C24_15 C 0.27808(16) 0.94016(9) 0.27914(6)
C25_15 C 0.37665(14) 0.95587(9) 0.24278(5)
C26_15 C 0.45218(15) 0.97361(9) 0.22573(6)
C30_15 C 0.54122(19) 0.95610(12) 0.18212(7)
H22_15 H 0.5563 0.9350 0.1640
N6_15 N 0.25616(13) 0.91629(8) 0.25114(5)
N7_15 N 0.35333(12) 0.96575(8) 0.27517(5)
C1_16 C 0.04318(16) 0.56269(11) 0.38006(5)
C3_14 C 0.01319(19) 0.48686(11) 0.34024(7)
H1_14 H 0.0576 0.4683 0.3495
C13_16 C 0.0668(2) 0.53248(16) 0.21602(10)
H9_16 H 0.0978 0.5628 0.2215
C14_16 C 0.0899(2) 0.50070(17) 0.18991(10)
H10_16 H 0.1371 0.5087 0.1776
C15_15 C 0.04122(19) 0.45610(12) 0.18212(7)
H11_15 H 0.0563 0.4350 0.1640
O1_16 O 0.02228(12) 0.60848(8) 0.39011(5)
O2_16 O 0.10193(14) 0.53729(9) 0.39249(5)
C16_16 C 0.20682(16) 0.68731(11) 0.38006(5)
C17_16 C 0.25687(15) 0.71260(9) 0.35207(5)
C18_16 C 0.23681(19) 0.76314(11) 0.34024(7)
H12_16 H 0.1924 0.7817 0.3495
C19_16 C 0.28219(19) 0.78679(11) 0.31455(7)
H13_16 H 0.2678 0.8206 0.3064
C20_16 C 0.34894(16) 0.75900(9) 0.30142(6)
C21_16 C 0.37059(17) 0.70856(11) 0.31283(7)
H14_16 H 0.4156 0.6903 0.3038
C22_16 C 0.32360(16) 0.68537(10) 0.33826(6)
H15_16 H 0.3373 0.6512 0.3460
C23_16 C 0.52010(19) 0.81023(12) 0.31070(6)
H16_16 H 0.5690 0.8319 0.3080
H17_16 H 0.4865 0.8250 0.3281
H18_16 H 0.5358 0.7741 0.3163
C24_16 C 0.47192(16) 0.80984(9) 0.27914(6)
C25_16 C 0.37335(14) 0.79413(9) 0.24278(5)
C26_16 C 0.29782(15) 0.77639(9) 0.22573(6)
C27_16 C 0.2530(2) 0.73060(12) 0.23431(8)
H19_16 H 0.2696 0.7092 0.2520
C28_16 C 0.1832(2) 0.71752(16) 0.21602(10)
H20_16 H 0.1522 0.6872 0.2215
C29_16 C 0.1601(2) 0.74930(17) 0.18991(10)
H21_16 H 0.1129 0.7413 0.1776
C30_16 C 0.20878(19) 0.79390(12) 0.18212(7)
H22_16 H 0.1937 0.8150 0.1640
N6_16 N 0.49384(13) 0.83371(8) 0.25114(5)
N7_16 N 0.39667(12) 0.78425(8) 0.27517(5)
O3_16 O 0.22772(12) 0.64152(8) 0.39011(5)
O4_16 O 0.14807(14) 0.71271(9) 0.39249(5)
C2_13 C 0.99313(15) 0.53740(9) 0.35207(5)
C4_13 C 0.96781(19) 0.46321(11) 0.31455(7)
H2_13 H 0.9822 0.4294 0.3064
C5_13 C 0.90106(16) 0.49100(9) 0.30142(6)
C6_13 C 0.87941(17) 0.54144(11) 0.31283(7)
H3_13 H 0.8344 0.5597 0.3038
C7_13 C 0.92640(16) 0.56463(10) 0.33826(6)
H4_13 H 0.9127 0.5988 0.3460
C8_7 C 0.72990(19) 0.43977(12) 0.31070(6)
H5_7 H 0.6810 0.4181 0.3080
H6_13 H 0.7635 0.4250 0.3281
H7_7 H 0.7142 0.4759 0.3163
C9_13 C 0.77808(16) 0.44016(9) 0.27914(6)
C10_16 C 0.87665(14) 0.45587(9) 0.24278(5)
C11_16 C 0.95218(15) 0.47361(9) 0.22573(6)
C12_15 C 0.9970(2) 0.51940(12) 0.23431(8)
H8_13 H 0.9804 0.5408 0.2520
N2_13 N 0.75616(13) 0.41629(8) 0.25114(5)
N3_13 N 0.85333(12) 0.46575(8) 0.27517(5)
C8_8 C 0.97990(19) 0.06023(12) 0.06070(6)
H5_8 H 0.9310 0.0819 0.0580
H7_8 H 0.9642 0.0241 0.0663
C2_14 C 0.00687(15) 0.28740(9) 0.10207(5)
C4_14 C 0.03219(19) 0.21321(11) 0.06455(7)
H2_14 H 0.0178 0.1794 0.0564
C5_14 C 0.09894(16) 0.24100(9) 0.05142(6)
C6_14 C 0.12059(17) 0.29144(11) 0.06283(7)
H3_14 H 0.1656 0.3097 0.0538
C7_14 C 0.07360(16) 0.31463(10) 0.08826(6)
H4_14 H 0.0873 0.3488 0.0960
C8_9 C 0.27010(19) 0.18977(12) 0.06070(6)
H5_9 H 0.3190 0.1681 0.0580
H6_14 H 0.2365 0.1750 0.0781
H7_9 H 0.2858 0.2259 0.0663
C9_14 C 0.22192(16) 0.19016(9) 0.02914(6)
H8_14 H 0.0196 0.2908 0.0020
N2_14 N 0.24384(13) 0.16629(8) 0.00114(5)
N3_14 N 0.14667(12) 0.21575(8) 0.02517(5)
C8_10 C 0.97990(19) 0.68977(12) 0.68930(6)
H5_10 H 0.9310 0.6681 0.6920
H7_10 H 0.9642 0.7259 0.6837
C8_11 C 0.97990(19) 0.56023(12) 0.56070(6)
H5_11 H 0.9310 0.5819 0.5580
H7_11 H 0.9642 0.5241 0.5663
C8_12 C 0.02010(19) 0.81023(12) 0.81070(6)
H5_12 H 0.0690 0.8319 0.8080
H7_12 H 0.0358 0.7741 0.8163
C3_15 C 0.01319(19) 0.98686(11) 0.84024(7)
H1_15 H 0.0576 0.9683 0.8495
C15_16 C 0.04122(19) 0.95610(12) 0.68212(7)
H11_16 H 0.0563 0.9350 0.6640
C2_15 C 0.99313(15) 0.03740(9) 0.85207(5)
C6_15 C 0.87941(17) 0.04144(11) 0.81283(7)
H3_15 H 0.8344 0.0597 0.8038
C7_15 C 0.92640(16) 0.06463(10) 0.83826(6)
H4_15 H 0.9127 0.0988 0.8460
C12_16 C 0.9970(2) 0.01940(12) 0.73431(8)
H8_15 H 0.9804 0.0408 0.7520
C8_13 C 0.02010(19) 0.93977(12) 0.93930(6)
H5_13 H 0.0690 0.9181 0.9420
H7_13 H 0.0358 0.9759 0.9337
C3_16 C 0.73681(19) 0.98686(11) 0.90976(7)
H1_16 H 0.6924 0.9683 0.9005
C4_15 C 0.78219(19) 0.96321(11) 0.93545(7)
H2_15 H 0.7678 0.9294 0.9436
C5_15 C 0.84894(16) 0.99100(9) 0.94858(6)
H6_15 H 0.9865 0.9250 0.9219
C9_15 C 0.97192(16) 0.94016(9) 0.97086(6)
N2_15 N 0.99384(13) 0.91629(8) 0.99886(5)
N3_15 N 0.89667(12) 0.96575(8) 0.97483(5)
C2_16 C 0.99313(15) 0.71260(9) 0.89793(5)
C4_16 C 0.96781(19) 0.78679(11) 0.93545(7)
H2_16 H 0.9822 0.8206 0.9436
C5_16 C 0.90106(16) 0.75900(9) 0.94858(6)
C6_16 C 0.87941(17) 0.70856(11) 0.93717(7)
H3_16 H 0.8344 0.6903 0.9462
C7_16 C 0.92640(16) 0.68537(10) 0.91174(6)
H4_16 H 0.9127 0.6512 0.9040
C8_14 C 0.72990(19) 0.81023(12) 0.93930(6)
H5_14 H 0.6810 0.8319 0.9420
H6_16 H 0.7635 0.8250 0.9219
H7_14 H 0.7142 0.7741 0.9337
C9_16 C 0.77808(16) 0.80984(9) 0.97086(6)
H8_16 H 0.9804 0.7092 0.9980
N2_16 N 0.75616(13) 0.83371(8) 0.99886(5)
N3_16 N 0.85333(12) 0.78425(8) 0.97483(5)
C8_15 C 0.02010(19) 0.31023(12) 0.31070(6)
H5_15 H 0.0690 0.3319 0.3080
H7_15 H 0.0358 0.2741 0.3163
C8_16 C 0.02010(19) 0.43977(12) 0.43930(6)
H5_16 H 0.0690 0.4181 0.4420
H7_16 H 0.0358 0.4759 0.4337
loop_
_geom_bond_atom_site_label_1
_geom_bond_atom_site_label_2
_geom_bond_site_symmetry_1
_geom_bond_site_symmetry_2
C1 C2 1_555 1_555
C2 C3 1_555 1_555
C3 H1 1_555 1_555
C4 C3 1_555 1_555
H2 C4 1_555 1_555
C5 C4 1_555 1_555
C6 C5 1_555 1_555
H3 C6 1_555 1_555
C7 C2 1_555 1_555
H4 C7 1_555 1_555
C10 C11 1_555 1_555
C11 C12 1_555 1_555
C12 H8 1_555 1_555
C13 C12 1_555 1_555
H9 C13 1_555 1_555
C14 C13 1_555 1_555
H10 C14 1_555 1_555
C15 C14 1_555 1_555
H11 C15 1_555 1_555
Cd1 O1 1_555 1_555
N1 C10 1_555 1_555
N2 C9 1_555 1_555
N3 C5 1_555 1_555
N4 C11 1_555 1_555
O1 C1 1_555 1_555
O2 C1 1_555 1_555
C16 C17 1_555 1_555
C17 C18 1_555 1_555
C18 H12 1_555 1_555
C19 C18 1_555 1_555
H13 C19 1_555 1_555
C20 C19 1_555 1_555
C21 C20 1_555 1_555
H14 C21 1_555 1_555
C22 C17 1_555 1_555
H15 C22 1_555 1_555
C23 H16 1_555 1_555
H17 C23 1_555 1_555
H18 C23 1_555 1_555
C24 C23 1_555 1_555
C25 C26 1_555 1_555
C26 C27 1_555 1_555
C27 H19 1_555 1_555
C28 C27 1_555 1_555
H20 C28 1_555 1_555
C29 C28 1_555 1_555
H21 C29 1_555 1_555
C30 C29 1_555 1_555
H22 C30 1_555 1_555
N5 C25 1_555 1_555
N6 C24 1_555 1_555
N7 C20 1_555 1_555
N8 C26 1_555 1_555
O3 Cd1 1_555 1_555
O4 Cd1 1_555 1_555
Cd2 N5 1_555 1_555
Cd3 N1 1_555 1_555
N9 Cd1 1_555 1_555
N10 Cd1 1_555 1_555
N11 Cd1 1_555 1_555
N12 Cd1 1_555 1_555
C6 C7 1_555 1_555
C9 N3 1_555 1_555
C10 N3 1_555 1_555
C15 N4 1_555 1_555
Cd1 O2 1_555 1_555
N1 N2 1_555 1_555
N4 Cd3 1_555 1_555
C16 O3 1_555 1_555
C16 O4 1_555 1_555
C21 C22 1_555 1_555
C24 N7 1_555 1_555
C25 N7 1_555 1_555
C30 N8 1_555 1_555
N5 N6 1_555 1_555
N8 Cd2 1_555 1_555
H2_2 C4_2 1_555 1_555
C5_2 C4_2 1_555 1_555
C8 H5 1_555 1_555
H6_2 C8 1_555 1_555
H7 C8 1_555 1_555
C9_2 C8 1_555 1_555
C10_2 C11_2 1_555 1_555
N1_2 C10_2 1_555 1_555
N2_2 C9_2 1_555 1_555
N3_2 C5_2 1_555 1_555
N4_2 C11_2 1_555 1_555
Cd3 N1_2 1_555 1_555
C9_2 N3_2 1_555 1_555
C10_2 N3_2 1_555 1_555
N1_2 N2_2 1_555 1_555
N4_2 Cd3 1_555 1_555
H9_2 C13_2 1_555 1_555
C14_2 C13_2 1_555 1_555
H10_2 C14_2 1_555 1_555
Cd1_2 O1_2 1_555 1_555
O1_2 C1_2 1_555 1_555
O2_2 C1_2 1_555 1_555
C16_2 C17_2 1_555 1_555
C17_2 C18_2 1_555 1_555
C18_2 H12_2 1_555 1_555
C19_2 C18_2 1_555 1_555
H13_2 C19_2 1_555 1_555
C20_2 C19_2 1_555 1_555
C21_2 C20_2 1_555 1_555
H14_2 C21_2 1_555 1_555
C22_2 C17_2 1_555 1_555
H15_2 C22_2 1_555 1_555
C23_2 H16_2 1_555 1_555
H17_2 C23_2 1_555 1_555
H18_2 C23_2 1_555 1_555
C24_2 C23_2 1_555 1_555
C25_2 C26_2 1_555 1_555
C26_2 C27_2 1_555 1_555
C27_2 H19_2 1_555 1_555
C28_2 C27_2 1_555 1_555
H20_2 C28_2 1_555 1_555
C29_2 C28_2 1_555 1_555
H21_2 C29_2 1_555 1_555
C30_2 C29_2 1_555 1_555
H22_2 C30_2 1_555 1_555
N5_2 C25_2 1_555 1_555
N6_2 C24_2 1_555 1_555
N7_2 C20_2 1_555 1_555
N8_2 C26_2 1_555 1_555
O3_2 Cd1_2 1_555 1_555
O4_2 Cd1_2 1_555 1_555
Cd2 N5_2 1_555 1_555
N9_2 Cd1_2 1_555 1_555
N10_2 Cd1_2 1_555 1_555
N11_2 Cd1_2 1_555 1_555
N12_2 Cd1_2 1_555 1_555
Cd1_2 O2_2 1_555 1_555
C16_2 O3_2 1_555 1_555
C16_2 O4_2 1_555 1_555
C21_2 C22_2 1_555 1_555
C24_2 N7_2 1_555 1_555
C25_2 N7_2 1_555 1_555
C30_2 N8_2 1_555 1_555
N5_2 N6_2 1_555 1_555
N8_2 Cd2 1_555 1_555
C18_3 H12_3 1_555 1_555
C19_3 C18_3 1_555 1_555
H13_3 C19_3 1_555 1_555
C20_3 C19_3 1_555 1_555
C23_3 H16_3 1_555 1_555
H17_3 C23_3 1_555 1_555
H18_3 C23_3 1_555 1_555
C24_3 C23_3 1_555 1_555
C25_3 C26_3 1_555 1_555
H22_3 C30_3 1_555 1_555
N5_3 C25_3 1_555 1_555
N6_3 C24_3 1_555 1_555
N7_3 C20_3 1_555 1_555
N8_3 C26_3 1_555 1_555
Cd2_2 N5_3 1_555 1_555
C24_3 N7_3 1_555 1_555
C25_3 N7_3 1_555 1_555
C30_3 N8_3 1_555 1_555
N5_3 N6_3 1_555 1_555
N8_3 Cd2_2 1_555 1_555
C1_3 C2_2 1_555 1_555
C2_2 C3_2 1_555 1_555
C3_2 H1_2 1_555 1_555
C4_3 C3_2 1_555 1_555
H2_3 C4_3 1_555 1_555
C5_3 C4_3 1_555 1_555
C6_2 C5_3 1_555 1_555
H3_2 C6_2 1_555 1_555
C7_2 C2_2 1_555 1_555
H4_2 C7_2 1_555 1_555
C10_3 C11_3 1_555 1_555
C11_3 C12_2 1_555 1_555
C12_2 H8_2 1_555 1_555
C13_3 C12_2 1_555 1_555
H9_3 C13_3 1_555 1_555
C14_3 C13_3 1_555 1_555
H10_3 C14_3 1_555 1_555
C15_2 C14_3 1_555 1_555
H11_2 C15_2 1_555 1_555
Cd1_3 O1_3 1_555 1_555
N1_3 C10_3 1_555 1_555
N2_3 C9_3 1_555 1_555
N3_3 C5_3 1_555 1_555
N4_3 C11_3 1_555 1_555
O1_3 C1_3 1_555 1_555
O2_3 C1_3 1_555 1_555
C16_3 C17_3 1_555 1_555
H14_3 C21_3 1_555 1_555
C22_3 C17_3 1_555 1_555
H15_3 C22_3 1_555 1_555
C27_3 H19_3 1_555 1_555
C28_3 C27_3 1_555 1_555
H20_3 C28_3 1_555 1_555
C29_3 C28_3 1_555 1_555
H21_3 C29_3 1_555 1_555
O3_3 Cd1_3 1_555 1_555
O4_3 Cd1_3 1_555 1_555
Cd3_2 N1_3 1_555 1_555
N9_3 Cd1_3 1_555 1_555
N10_3 Cd1_3 1_555 1_555
N11_3 Cd1_3 1_555 1_555
N12_3 Cd1_3 1_555 1_555
C6_2 C7_2 1_555 1_555
C9_3 N3_3 1_555 1_555
C10_3 N3_3 1_555 1_555
C15_2 N4_3 1_555 1_555
Cd1_3 O2_3 1_555 1_555
N1_3 N2_3 1_555 1_555
N4_3 Cd3_2 1_555 1_555
C16_3 O3_3 1_555 1_555
C16_3 O4_3 1_555 1_555
C21_3 C22_3 1_555 1_555
H2_4 C4_4 1_555 1_555
C5_4 C4_4 1_555 1_555
C6_3 C5_4 1_555 1_555
H3_3 C6_3 1_555 1_555
C7_3 C2_3 1_555 1_555
H4_3 C7_3 1_555 1_555
C8_2 H5_2 1_555 1_555
H6_4 C8_2 1_555 1_555
H7_2 C8_2 1_555 1_555
C9_4 C8_2 1_555 1_555
C10_4 C11_4 1_555 1_555
C11_4 C12_3 1_555 1_555
C12_3 H8_3 1_555 1_555
N1_4 C10_4 1_555 1_555
N2_4 C9_4 1_555 1_555
N3_4 C5_4 1_555 1_555
N4_4 C11_4 1_555 1_555
Cd3_2 N1_4 1_555 1_555
C6_3 C7_3 1_555 1_555
C9_4 N3_4 1_555 1_555
C10_4 N3_4 1_555 1_555
N1_4 N2_4 1_555 1_555
N4_4 Cd3_2 1_555 1_555
C3_3 H1_3 1_555 1_555
H9_4 C13_4 1_555 1_555
C14_4 C13_4 1_555 1_555
H10_4 C14_4 1_555 1_555
C15_3 C14_4 1_555 1_555
H11_3 C15_3 1_555 1_555
Cd1_4 O1_4 1_555 1_555
O1_4 C1_4 1_555 1_555
O2_4 C1_4 1_555 1_555
C16_4 C17_4 1_555 1_555
C17_4 C18_4 1_555 1_555
C18_4 H12_4 1_555 1_555
C19_4 C18_4 1_555 1_555
H13_4 C19_4 1_555 1_555
C20_4 C19_4 1_555 1_555
C21_4 C20_4 1_555 1_555
H14_4 C21_4 1_555 1_555
C22_4 C17_4 1_555 1_555
H15_4 C22_4 1_555 1_555
C23_4 H16_4 1_555 1_555
H17_4 C23_4 1_555 1_555
H18_4 C23_4 1_555 1_555
C24_4 C23_4 1_555 1_555
C25_4 C26_4 1_555 1_555
C26_4 C27_4 1_555 1_555
C27_4 H19_4 1_555 1_555
C28_4 C27_4 1_555 1_555
H20_4 C28_4 1_555 1_555
C29_4 C28_4 1_555 1_555
H21_4 C29_4 1_555 1_555
C30_4 C29_4 1_555 1_555
H22_4 C30_4 1_555 1_555
N5_4 C25_4 1_555 1_555
N6_4 C24_4 1_555 1_555
N7_4 C20_4 1_555 1_555
N8_4 C26_4 1_555 1_555
O3_4 Cd1_4 1_555 1_555
O4_4 Cd1_4 1_555 1_555
Cd2_2 N5_4 1_555 1_555
N9_4 Cd1_4 1_555 1_555
N10_4 Cd1_4 1_555 1_555
N11_4 Cd1_4 1_555 1_555
N12_4 Cd1_4 1_555 1_555
Cd1_4 O2_4 1_555 1_555
C16_4 O3_4 1_555 1_555
C16_4 O4_4 1_555 1_555
C21_4 C22_4 1_555 1_555
C24_4 N7_4 1_555 1_555
C25_4 N7_4 1_555 1_555
C30_4 N8_4 1_555 1_555
N5_4 N6_4 1_555 1_555
N8_4 Cd2_2 1_555 1_555
C13_5 C12_4 1_555 1_555
H9_5 C13_5 1_555 1_555
C14_5 C13_5 1_555 1_555
H10_5 C14_5 1_555 1_555
C25_5 C26_5 1_555 1_555
C26_5 C27_5 1_555 1_555
C28_5 C27_5 1_555 1_555
H20_5 C28_5 1_555 1_555
C29_5 C28_5 1_555 1_555
H21_5 C29_5 1_555 1_555
C30_5 C29_5 1_555 1_555
H22_5 C30_5 1_555 1_555
N10 C25_5 1_555 1_555
N12 C26_5 1_555 1_555
C30_5 N12 1_555 1_555
C1_5 C2_4 1_555 1_555
H3_4 C6_4 1_555 1_555
C7_4 C2_4 1_555 1_555
H4_4 C7_4 1_555 1_555
Cd2_2 O1_5 1_555 1_555
O1_5 C1_5 1_555 1_555
O2_5 C1_5 1_555 1_555
C16_5 C17_5 1_555 1_555
C17_5 C18_5 1_555 1_555
C18_5 H12_5 1_555 1_555
C19_5 C18_5 1_555 1_555
H13_5 C19_5 1_555 1_555
C20_5 C19_5 1_555 1_555
C21_5 C20_5 1_555 1_555
H14_5 C21_5 1_555 1_555
C22_5 C17_5 1_555 1_555
H15_5 C22_5 1_555 1_555
C23_5 H16_5 1_555 1_555
H17_5 C23_5 1_555 1_555
H18_5 C23_5 1_555 1_555
C24_5 C23_5 1_555 1_555
N6_5 C24_5 1_555 1_555
N7_5 C20_5 1_555 1_555
O3_5 Cd2_2 1_555 1_555
O4_5 Cd2_2 1_555 1_555
C6_4 C7_4 1_555 1_555
Cd2_2 O2_5 1_555 1_555
C16_5 O3_5 1_555 1_555
C16_5 O4_5 1_555 1_555
C21_5 C22_5 1_555 1_555
C24_5 N7_5 1_555 1_555
C10_5 C11_5 1_555 1_555
H11_4 C15_4 1_555 1_555
N10_2 C10_5 1_555 1_555
N12_2 C11_5 1_555 1_555
C15_4 N12_2 1_555 1_555
H9_6 C13_6 1_555 1_555
C14_6 C13_6 1_555 1_555
H10_6 C14_6 1_555 1_555
C15_5 C14_6 1_555 1_555
H11_5 C15_5 1_555 1_555
C25_6 C26_6 1_555 1_555
C26_6 C27_6 1_555 1_555
C28_6 C27_6 1_555 1_555
H20_6 C28_6 1_555 1_555
C29_6 C28_6 1_555 1_555
H21_6 C29_6 1_555 1_555
C30_6 C29_6 1_555 1_555
H22_6 C30_6 1_555 1_555
N9 C25_6 1_555 1_555
N11 C26_6 1_555 1_555
C30_6 N11 1_555 1_555
C3_4 H1_4 1_555 1_555
Cd3_2 O1_6 1_555 1_555
O1_6 C1_6 1_555 1_555
O2_6 C1_6 1_555 1_555
C16_6 C17_6 1_555 1_555
C17_6 C18_6 1_555 1_555
C18_6 H12_6 1_555 1_555
C19_6 C18_6 1_555 1_555
H13_6 C19_6 1_555 1_555
C20_6 C19_6 1_555 1_555
C21_6 C20_6 1_555 1_555
H14_6 C21_6 1_555 1_555
C22_6 C17_6 1_555 1_555
H15_6 C22_6 1_555 1_555
C23_6 H16_6 1_555 1_555
H17_6 C23_6 1_555 1_555
H18_6 C23_6 1_555 1_555
C24_6 C23_6 1_555 1_555
N6_6 C24_6 1_555 1_555
N7_6 C20_6 1_555 1_555
O3_6 Cd3_2 1_555 1_555
O4_6 Cd3_2 1_555 1_555
Cd3_2 O2_6 1_555 1_555
C16_6 O3_6 1_555 1_555
C16_6 O4_6 1_555 1_555
C21_6 C22_6 1_555 1_555
C24_6 N7_6 1_555 1_555
C10_6 C11_6 1_555 1_555
C11_6 C12_5 1_555 1_555
N9_2 C10_6 1_555 1_555
N11_2 C11_6 1_555 1_555
C1_7 C2_5 1_555 1_555
C2_5 C3_5 1_555 1_555
C3_5 H1_5 1_555 1_555
C4_5 C3_5 1_555 1_555
H2_5 C4_5 1_555 1_555
C5_5 C4_5 1_555 1_555
C6_5 C5_5 1_555 1_555
H3_5 C6_5 1_555 1_555
C7_5 C2_5 1_555 1_555
H4_5 C7_5 1_555 1_555
C10_7 C11_7 1_555 1_555
C11_7 C12_6 1_555 1_555
C12_6 H8_5 1_555 1_555
C13_7 C12_6 1_555 1_555
H9_7 C13_7 1_555 1_555
C14_7 C13_7 1_555 1_555
H10_7 C14_7 1_555 1_555
C15_6 C14_7 1_555 1_555
H11_6 C15_6 1_555 1_555
Cd2 O1_7 1_555 1_555
N10_4 C10_7 1_555 1_555
N2_5 C9_5 1_555 1_555
N3_5 C5_5 1_555 1_555
N12_4 C11_7 1_555 1_555
O1_7 C1_7 1_555 1_555
O2_7 C1_7 1_555 1_555
C16_7 C17_7 1_555 1_555
C17_7 C18_7 1_555 1_555
C18_7 H12_7 1_555 1_555
C19_7 C18_7 1_555 1_555
H13_7 C19_7 1_555 1_555
C20_7 C19_7 1_555 1_555
C21_7 C20_7 1_555 1_555
H14_7 C21_7 1_555 1_555
C22_7 C17_7 1_555 1_555
H15_7 C22_7 1_555 1_555
C23_7 H16_7 1_555 1_555
H17_7 C23_7 1_555 1_555
H18_7 C23_7 1_555 1_555
C24_7 C23_7 1_555 1_555
C25_7 C26_7 1_555 1_555
C26_7 C27_7 1_555 1_555
C27_7 H19_7 1_555 1_555
C28_7 C27_7 1_555 1_555
H20_7 C28_7 1_555 1_555
C29_7 C28_7 1_555 1_555
H21_7 C29_7 1_555 1_555
C30_7 C29_7 1_555 1_555
H22_7 C30_7 1_555 1_555
N10_3 C25_7 1_555 1_555
N6_7 C24_7 1_555 1_555
N7_7 C20_7 1_555 1_555
N12_3 C26_7 1_555 1_555
O3_7 Cd2 1_555 1_555
O4_7 Cd2 1_555 1_555
C6_5 C7_5 1_555 1_555
C9_5 N3_5 1_555 1_555
C10_7 N3_5 1_555 1_555
C15_6 N12_4 1_555 1_555
Cd2 O2_7 1_555 1_555
N10_4 N2_5 1_555 1_555
C16_7 O3_7 1_555 1_555
C16_7 O4_7 1_555 1_555
C21_7 C22_7 1_555 1_555
C24_7 N7_7 1_555 1_555
C25_7 N7_7 1_555 1_555
C30_7 N12_3 1_555 1_555
N10_3 N6_7 1_555 1_555
C3_6 H1_6 1_555 1_555
H9_8 C13_8 1_555 1_555
C14_8 C13_8 1_555 1_555
H10_8 C14_8 1_555 1_555
C15_7 C14_8 1_555 1_555
H11_7 C15_7 1_555 1_555
Cd3 O1_8 1_555 1_555
O1_8 C1_8 1_555 1_555
O2_8 C1_8 1_555 1_555
C16_8 C17_8 1_555 1_555
H14_8 C21_8 1_555 1_555
C22_8 C17_8 1_555 1_555
H15_8 C22_8 1_555 1_555
C27_8 H19_8 1_555 1_555
C28_8 C27_8 1_555 1_555
H20_8 C28_8 1_555 1_555
C29_8 C28_8 1_555 1_555
H21_8 C29_8 1_555 1_555
O3_8 Cd3 1_555 1_555
O4_8 Cd3 1_555 1_555
Cd3 O2_8 1_555 1_555
C16_8 O3_8 1_555 1_555
C16_8 O4_8 1_555 1_555
C21_8 C22_8 1_555 1_555
C18_8 H12_8 1_555 1_555
C19_8 C18_8 1_555 1_555
H13_8 C19_8 1_555 1_555
C20_8 C19_8 1_555 1_555
C23_8 H16_8 1_555 1_555
H17_8 C23_8 1_555 1_555
H18_8 C23_8 1_555 1_555
C24_8 C23_8 1_555 1_555
C25_8 C26_8 1_555 1_555
H22_8 C30_8 1_555 1_555
N9_3 C25_8 1_555 1_555
N6_8 C24_8 1_555 1_555
N7_8 C20_8 1_555 1_555
N11_3 C26_8 1_555 1_555
C24_8 N7_8 1_555 1_555
C25_8 N7_8 1_555 1_555
C30_8 N11_3 1_555 1_555
N9_3 N6_8 1_555 1_555
H2_6 C4_6 1_555 1_555
C5_6 C4_6 1_555 1_555
C6_6 C5_6 1_555 1_555
H3_6 C6_6 1_555 1_555
C7_6 C2_6 1_555 1_555
H4_6 C7_6 1_555 1_555
C8_3 H5_3 1_555 1_555
H6_6 C8_3 1_555 1_555
H7_3 C8_3 1_555 1_555
C9_6 C8_3 1_555 1_555
C10_8 C11_8 1_555 1_555
C11_8 C12_7 1_555 1_555
C12_7 H8_6 1_555 1_555
N9_4 C10_8 1_555 1_555
N2_6 C9_6 1_555 1_555
N3_6 C5_6 1_555 1_555
N11_4 C11_8 1_555 1_555
C6_6 C7_6 1_555 1_555
C9_6 N3_6 1_555 1_555
C10_8 N3_6 1_555 1_555
N9_4 N2_6 1_555 1_555
C8_4 H5_4 1_555 1_555
H7_4 C8_4 1_555 1_555
H3_7 C6_7 1_555 1_555
C7_7 C2_7 1_555 1_555
H4_7 C7_7 1_555 1_555
C12_8 H8_7 1_555 1_555
C6_7 C7_7 1_555 1_555
C3_7 H1_7 1_555 1_555
H11_8 C15_8 1_555 1_555
C3_8 H1_8 1_555 1_555
C4_7 C3_8 1_555 1_555
H2_7 C4_7 1_555 1_555
C5_7 C4_7 1_555 1_555
N2_7 C9_7 1_555 1_555
N3_7 C5_7 1_555 1_555
C9_7 N3_7 1_555 1_555
C10_9 C11_9 1_555 1_555
H11_9 C15_9 1_555 1_555
N1_5 C10_9 1_555 1_555
N4_5 C11_9 1_555 1_555
Cd3_3 N1_5 1_555 1_555
C15_9 N4_5 1_555 1_555
N4_5 Cd3_3 1_555 1_555
C1_9 C2_8 1_555 1_555
H3_8 C6_8 1_555 1_555
C7_8 C2_8 1_555 1_555
H4_8 C7_8 1_555 1_555
Cd1_5 O1_9 1_555 1_555
O1_9 C1_9 1_555 1_555
O2_9 C1_9 1_555 1_555
C16_9 C17_9 1_555 1_555
C17_9 C18_9 1_555 1_555
C18_9 H12_9 1_555 1_555
C19_9 C18_9 1_555 1_555
H13_9 C19_9 1_555 1_555
C20_9 C19_9 1_555 1_555
C21_9 C20_9 1_555 1_555
H14_9 C21_9 1_555 1_555
C22_9 C17_9 1_555 1_555
H15_9 C22_9 1_555 1_555
C23_9 H16_9 1_555 1_555
H17_9 C23_9 1_555 1_555
H18_9 C23_9 1_555 1_555
C24_9 C23_9 1_555 1_555
N6_9 C24_9 1_555 1_555
N7_9 C20_9 1_555 1_555
O3_9 Cd1_5 1_555 1_555
O4_9 Cd1_5 1_555 1_555
N9_5 Cd1_5 1_555 1_555
N10_5 Cd1_5 1_555 1_555
N11_5 Cd1_5 1_555 1_555
N12_5 Cd1_5 1_555 1_555
C6_8 C7_8 1_555 1_555
Cd1_5 O2_9 1_555 1_555
C16_9 O3_9 1_555 1_555
C16_9 O4_9 1_555 1_555
C21_9 C22_9 1_555 1_555
C24_9 N7_9 1_555 1_555
C13_9 C12_9 1_555 1_555
H9_9 C13_9 1_555 1_555
C14_9 C13_9 1_555 1_555
H10_9 C14_9 1_555 1_555
C25_9 C26_9 1_555 1_555
C26_9 C27_9 1_555 1_555
C28_9 C27_9 1_555 1_555
H20_9 C28_9 1_555 1_555
C29_9 C28_9 1_555 1_555
H21_9 C29_9 1_555 1_555
C30_9 C29_9 1_555 1_555
H22_9 C30_9 1_555 1_555
N5_5 C25_9 1_555 1_555
N8_5 C26_9 1_555 1_555
Cd2_3 N5_5 1_555 1_555
C30_9 N8_5 1_555 1_555
N8_5 Cd2_3 1_555 1_555
C10_10 C11_10 1_555 1_555
C11_10 C12_10 1_555 1_555
N1_6 C10_10 1_555 1_555
N4_6 C11_10 1_555 1_555
Cd3_3 N1_6 1_555 1_555
N4_6 Cd3_3 1_555 1_555
C3_9 H1_9 1_555 1_555
Cd1_6 O1_10 1_555 1_555
O1_10 C1_10 1_555 1_555
O2_10 C1_10 1_555 1_555
C16_10 C17_10 1_555 1_555
C17_10 C18_10 1_555 1_555
C18_10 H12_10 1_555 1_555
C19_10 C18_10 1_555 1_555
H13_10 C19_10 1_555 1_555
C20_10 C19_10 1_555 1_555
C21_10 C20_10 1_555 1_555
H14_10 C21_10 1_555 1_555
C22_10 C17_10 1_555 1_555
H15_10 C22_10 1_555 1_555
C23_10 H16_10 1_555 1_555
H17_10 C23_10 1_555 1_555
H18_10 C23_10 1_555 1_555
C24_10 C23_10 1_555 1_555
N6_10 C24_10 1_555 1_555
N7_10 C20_10 1_555 1_555
O3_10 Cd1_6 1_555 1_555
O4_10 Cd1_6 1_555 1_555
N9_6 Cd1_6 1_555 1_555
N10_6 Cd1_6 1_555 1_555
N11_6 Cd1_6 1_555 1_555
N12_6 Cd1_6 1_555 1_555
Cd1_6 O2_10 1_555 1_555
C16_10 O3_10 1_555 1_555
C16_10 O4_10 1_555 1_555
C21_10 C22_10 1_555 1_555
C24_10 N7_10 1_555 1_555
H9_10 C13_10 1_555 1_555
C14_10 C13_10 1_555 1_555
H10_10 C14_10 1_555 1_555
C15_10 C14_10 1_555 1_555
H11_10 C15_10 1_555 1_555
C25_10 C26_10 1_555 1_555
C26_10 C27_10 1_555 1_555
C28_10 C27_10 1_555 1_555
H20_10 C28_10 1_555 1_555
C29_10 C28_10 1_555 1_555
H21_10 C29_10 1_555 1_555
C30_10 C29_10 1_555 1_555
H22_10 C30_10 1_555 1_555
N5_6 C25_10 1_555 1_555
N8_6 C26_10 1_555 1_555
Cd2_3 N5_6 1_555 1_555
C30_10 N8_6 1_555 1_555
N8_6 Cd2_3 1_555 1_555
C1_11 C2_9 1_555 1_555
C2_9 C3_10 1_555 1_555
C3_10 H1_10 1_555 1_555
C4_8 C3_10 1_555 1_555
H2_8 C4_8 1_555 1_555
C5_8 C4_8 1_555 1_555
C6_9 C5_8 1_555 1_555
H3_9 C6_9 1_555 1_555
C7_9 C2_9 1_555 1_555
H4_9 C7_9 1_555 1_555
C10_11 C11_11 1_555 1_555
C11_11 C12_11 1_555 1_555
C12_11 H8_9 1_555 1_555
C13_11 C12_11 1_555 1_555
H9_11 C13_11 1_555 1_555
C14_11 C13_11 1_555 1_555
H10_11 C14_11 1_555 1_555
C15_11 C14_11 1_555 1_555
H11_11 C15_11 1_555 1_555
Cd1_7 O1_11 1_555 1_555
N1_7 C10_11 1_555 1_555
N2_8 C9_8 1_555 1_555
N3_8 C5_8 1_555 1_555
N4_7 C11_11 1_555 1_555
O1_11 C1_11 1_555 1_555
O2_11 C1_11 1_555 1_555
C16_11 C17_11 1_555 1_555
C17_11 C18_11 1_555 1_555
C18_11 H12_11 1_555 1_555
C19_11 C18_11 1_555 1_555
H13_11 C19_11 1_555 1_555
C20_11 C19_11 1_555 1_555
C21_11 C20_11 1_555 1_555
H14_11 C21_11 1_555 1_555
C22_11 C17_11 1_555 1_555
H15_11 C22_11 1_555 1_555
C23_11 H16_11 1_555 1_555
H17_11 C23_11 1_555 1_555
H18_11 C23_11 1_555 1_555
C24_11 C23_11 1_555 1_555
C25_11 C26_11 1_555 1_555
C26_11 C27_11 1_555 1_555
C27_11 H19_11 1_555 1_555
C28_11 C27_11 1_555 1_555
H20_11 C28_11 1_555 1_555
C29_11 C28_11 1_555 1_555
H21_11 C29_11 1_555 1_555
C30_11 C29_11 1_555 1_555
H22_11 C30_11 1_555 1_555
N5_7 C25_11 1_555 1_555
N6_11 C24_11 1_555 1_555
N7_11 C20_11 1_555 1_555
N8_7 C26_11 1_555 1_555
O3_11 Cd1_7 1_555 1_555
O4_11 Cd1_7 1_555 1_555
Cd2_4 N5_7 1_555 1_555
Cd3_4 N1_7 1_555 1_555
N9_7 Cd1_7 1_555 1_555
N10_7 Cd1_7 1_555 1_555
N11_7 Cd1_7 1_555 1_555
N12_7 Cd1_7 1_555 1_555
C6_9 C7_9 1_555 1_555
C9_8 N3_8 1_555 1_555
C10_11 N3_8 1_555 1_555
C15_11 N4_7 1_555 1_555
Cd1_7 O2_11 1_555 1_555
N1_7 N2_8 1_555 1_555
N4_7 Cd3_4 1_555 1_555
C16_11 O3_11 1_555 1_555
C16_11 O4_11 1_555 1_555
C21_11 C22_11 1_555 1_555
C24_11 N7_11 1_555 1_555
C25_11 N7_11 1_555 1_555
C30_11 N8_7 1_555 1_555
N5_7 N6_11 1_555 1_555
N8_7 Cd2_4 1_555 1_555
H2_9 C4_9 1_555 1_555
C5_9 C4_9 1_555 1_555
C6_10 C5_9 1_555 1_555
H3_10 C6_10 1_555 1_555
C7_10 C2_10 1_555 1_555
H4_10 C7_10 1_555 1_555
C8_5 H5_5 1_555 1_555
H6_9 C8_5 1_555 1_555
H7_5 C8_5 1_555 1_555
C9_9 C8_5 1_555 1_555
C10_12 C11_12 1_555 1_555
C11_12 C12_12 1_555 1_555
C12_12 H8_10 1_555 1_555
N1_8 C10_12 1_555 1_555
N2_9 C9_9 1_555 1_555
N3_9 C5_9 1_555 1_555
N4_8 C11_12 1_555 1_555
Cd3_4 N1_8 1_555 1_555
C6_10 C7_10 1_555 1_555
C9_9 N3_9 1_555 1_555
C10_12 N3_9 1_555 1_555
N1_8 N2_9 1_555 1_555
N4_8 Cd3_4 1_555 1_555
C18_12 H12_12 1_555 1_555
C19_12 C18_12 1_555 1_555
H13_12 C19_12 1_555 1_555
C20_12 C19_12 1_555 1_555
C23_12 H16_12 1_555 1_555
H17_12 C23_12 1_555 1_555
H18_12 C23_12 1_555 1_555
C24_12 C23_12 1_555 1_555
C25_12 C26_12 1_555 1_555
H22_12 C30_12 1_555 1_555
N5_8 C25_12 1_555 1_555
N6_12 C24_12 1_555 1_555
N7_12 C20_12 1_555 1_555
N8_8 C26_12 1_555 1_555
Cd2_4 N5_8 1_555 1_555
C24_12 N7_12 1_555 1_555
C25_12 N7_12 1_555 1_555
C30_12 N8_8 1_555 1_555
N5_8 N6_12 1_555 1_555
N8_8 Cd2_4 1_555 1_555
C3_11 H1_11 1_555 1_555
H9_12 C13_12 1_555 1_555
C14_12 C13_12 1_555 1_555
H10_12 C14_12 1_555 1_555
C15_12 C14_12 1_555 1_555
H11_12 C15_12 1_555 1_555
Cd1_8 O1_12 1_555 1_555
O1_12 C1_12 1_555 1_555
O2_12 C1_12 1_555 1_555
C16_12 C17_12 1_555 1_555
H14_12 C21_12 1_555 1_555
C22_12 C17_12 1_555 1_555
H15_12 C22_12 1_555 1_555
C27_12 H19_12 1_555 1_555
C28_12 C27_12 1_555 1_555
H20_12 C28_12 1_555 1_555
C29_12 C28_12 1_555 1_555
H21_12 C29_12 1_555 1_555
O3_12 Cd1_8 1_555 1_555
O4_12 Cd1_8 1_555 1_555
N9_8 Cd1_8 1_555 1_555
N10_8 Cd1_8 1_555 1_555
N11_8 Cd1_8 1_555 1_555
N12_8 Cd1_8 1_555 1_555
Cd1_8 O2_12 1_555 1_555
C16_12 O3_12 1_555 1_555
C16_12 O4_12 1_555 1_555
C21_12 C22_12 1_555 1_555
C1_13 C2_11 1_555 1_555
C2_11 C3_12 1_555 1_555
C3_12 H1_12 1_555 1_555
C4_10 C3_12 1_555 1_555
H2_10 C4_10 1_555 1_555
C5_10 C4_10 1_555 1_555
C6_11 C5_10 1_555 1_555
H3_11 C6_11 1_555 1_555
C7_11 C2_11 1_555 1_555
H4_11 C7_11 1_555 1_555
C10_13 C11_13 1_555 1_555
C11_13 C12_13 1_555 1_555
C12_13 H8_11 1_555 1_555
C13_13 C12_13 1_555 1_555
H9_13 C13_13 1_555 1_555
C14_13 C13_13 1_555 1_555
H10_13 C14_13 1_555 1_555
C15_13 C14_13 1_555 1_555
H11_13 C15_13 1_555 1_555
Cd2_3 O1_13 1_555 1_555
N10_8 C10_13 1_555 1_555
N2_10 C9_10 1_555 1_555
N3_10 C5_10 1_555 1_555
N12_8 C11_13 1_555 1_555
O1_13 C1_13 1_555 1_555
O2_13 C1_13 1_555 1_555
C16_13 C17_13 1_555 1_555
C17_13 C18_13 1_555 1_555
C18_13 H12_13 1_555 1_555
C19_13 C18_13 1_555 1_555
H13_13 C19_13 1_555 1_555
C20_13 C19_13 1_555 1_555
C21_13 C20_13 1_555 1_555
H14_13 C21_13 1_555 1_555
C22_13 C17_13 1_555 1_555
H15_13 C22_13 1_555 1_555
C23_13 H16_13 1_555 1_555
H17_13 C23_13 1_555 1_555
H18_13 C23_13 1_555 1_555
C24_13 C23_13 1_555 1_555
C25_13 C26_13 1_555 1_555
C26_13 C27_13 1_555 1_555
C27_13 H19_13 1_555 1_555
C28_13 C27_13 1_555 1_555
H20_13 C28_13 1_555 1_555
C29_13 C28_13 1_555 1_555
H21_13 C29_13 1_555 1_555
C30_13 C29_13 1_555 1_555
H22_13 C30_13 1_555 1_555
N10_7 C25_13 1_555 1_555
N6_13 C24_13 1_555 1_555
N7_13 C20_13 1_555 1_555
N12_7 C26_13 1_555 1_555
O3_13 Cd2_3 1_555 1_555
O4_13 Cd2_3 1_555 1_555
C6_11 C7_11 1_555 1_555
C9_10 N3_10 1_555 1_555
C10_13 N3_10 1_555 1_555
C15_13 N12_8 1_555 1_555
Cd2_3 O2_13 1_555 1_555
N10_8 N2_10 1_555 1_555
C16_13 O3_13 1_555 1_555
C16_13 O4_13 1_555 1_555
C21_13 C22_13 1_555 1_555
C24_13 N7_13 1_555 1_555
C25_13 N7_13 1_555 1_555
C30_13 N12_7 1_555 1_555
N10_7 N6_13 1_555 1_555
H9_14 C13_14 1_555 1_555
C14_14 C13_14 1_555 1_555
H10_14 C14_14 1_555 1_555
Cd3_3 O1_14 1_555 1_555
O1_14 C1_14 1_555 1_555
O2_14 C1_14 1_555 1_555
C16_14 C17_14 1_555 1_555
C17_14 C18_14 1_555 1_555
C18_14 H12_14 1_555 1_555
C19_14 C18_14 1_555 1_555
H13_14 C19_14 1_555 1_555
C20_14 C19_14 1_555 1_555
C21_14 C20_14 1_555 1_555
H14_14 C21_14 1_555 1_555
C22_14 C17_14 1_555 1_555
H15_14 C22_14 1_555 1_555
C23_14 H16_14 1_555 1_555
H17_14 C23_14 1_555 1_555
H18_14 C23_14 1_555 1_555
C24_14 C23_14 1_555 1_555
C25_14 C26_14 1_555 1_555
C26_14 C27_14 1_555 1_555
C27_14 H19_14 1_555 1_555
C28_14 C27_14 1_555 1_555
H20_14 C28_14 1_555 1_555
C29_14 C28_14 1_555 1_555
H21_14 C29_14 1_555 1_555
C30_14 C29_14 1_555 1_555
H22_14 C30_14 1_555 1_555
N9_7 C25_14 1_555 1_555
N6_14 C24_14 1_555 1_555
N7_14 C20_14 1_555 1_555
N11_7 C26_14 1_555 1_555
O3_14 Cd3_3 1_555 1_555
O4_14 Cd3_3 1_555 1_555
Cd3_3 O2_14 1_555 1_555
C16_14 O3_14 1_555 1_555
C16_14 O4_14 1_555 1_555
C21_14 C22_14 1_555 1_555
C24_14 N7_14 1_555 1_555
C25_14 N7_14 1_555 1_555
C30_14 N11_7 1_555 1_555
N9_7 N6_14 1_555 1_555
H2_11 C4_11 1_555 1_555
C5_11 C4_11 1_555 1_555
C8_6 H5_6 1_555 1_555
H6_11 C8_6 1_555 1_555
H7_6 C8_6 1_555 1_555
C9_11 C8_6 1_555 1_555
C10_14 C11_14 1_555 1_555
N9_8 C10_14 1_555 1_555
N2_11 C9_11 1_555 1_555
N3_11 C5_11 1_555 1_555
N11_8 C11_14 1_555 1_555
C9_11 N3_11 1_555 1_555
C10_14 N3_11 1_555 1_555
N9_8 N2_11 1_555 1_555
C1_15 C2_12 1_555 1_555
C2_12 C3_13 1_555 1_555
C3_13 H1_13 1_555 1_555
C4_12 C3_13 1_555 1_555
H2_12 C4_12 1_555 1_555
C5_12 C4_12 1_555 1_555
C6_12 C5_12 1_555 1_555
H3_12 C6_12 1_555 1_555
C7_12 C2_12 1_555 1_555
H4_12 C7_12 1_555 1_555
C10_15 C11_15 1_555 1_555
C11_15 C12_14 1_555 1_555
C12_14 H8_12 1_555 1_555
C13_15 C12_14 1_555 1_555
H9_15 C13_15 1_555 1_555
C14_15 C13_15 1_555 1_555
H10_15 C14_15 1_555 1_555
C15_14 C14_15 1_555 1_555
H11_14 C15_14 1_555 1_555
Cd2_4 O1_15 1_555 1_555
N10_6 C10_15 1_555 1_555
N2_12 C9_12 1_555 1_555
N3_12 C5_12 1_555 1_555
N12_6 C11_15 1_555 1_555
O1_15 C1_15 1_555 1_555
O2_15 C1_15 1_555 1_555
C16_15 C17_15 1_555 1_555
H14_15 C21_15 1_555 1_555
C22_15 C17_15 1_555 1_555
H15_15 C22_15 1_555 1_555
C27_15 H19_15 1_555 1_555
C28_15 C27_15 1_555 1_555
H20_15 C28_15 1_555 1_555
C29_15 C28_15 1_555 1_555
H21_15 C29_15 1_555 1_555
O3_15 Cd2_4 1_555 1_555
O4_15 Cd2_4 1_555 1_555
C6_12 C7_12 1_555 1_555
C9_12 N3_12 1_555 1_555
C10_15 N3_12 1_555 1_555
C15_14 N12_6 1_555 1_555
Cd2_4 O2_15 1_555 1_555
N10_6 N2_12 1_555 1_555
C16_15 O3_15 1_555 1_555
C16_15 O4_15 1_555 1_555
C21_15 C22_15 1_555 1_555
C18_15 H12_15 1_555 1_555
C19_15 C18_15 1_555 1_555
H13_15 C19_15 1_555 1_555
C20_15 C19_15 1_555 1_555
C23_15 H16_15 1_555 1_555
H17_15 C23_15 1_555 1_555
H18_15 C23_15 1_555 1_555
C24_15 C23_15 1_555 1_555
C25_15 C26_15 1_555 1_555
H22_15 C30_15 1_555 1_555
N10_5 C25_15 1_555 1_555
N6_15 C24_15 1_555 1_555
N7_15 C20_15 1_555 1_555
N12_5 C26_15 1_555 1_555
C24_15 N7_15 1_555 1_555
C25_15 N7_15 1_555 1_555
C30_15 N12_5 1_555 1_555
N10_5 N6_15 1_555 1_555
C3_14 H1_14 1_555 1_555
H9_16 C13_16 1_555 1_555
C14_16 C13_16 1_555 1_555
H10_16 C14_16 1_555 1_555
C15_15 C14_16 1_555 1_555
H11_15 C15_15 1_555 1_555
Cd3_4 O1_16 1_555 1_555
O1_16 C1_16 1_555 1_555
O2_16 C1_16 1_555 1_555
C16_16 C17_16 1_555 1_555
C17_16 C18_16 1_555 1_555
C18_16 H12_16 1_555 1_555
C19_16 C18_16 1_555 1_555
H13_16 C19_16 1_555 1_555
C20_16 C19_16 1_555 1_555
C21_16 C20_16 1_555 1_555
H14_16 C21_16 1_555 1_555
C22_16 C17_16 1_555 1_555
H15_16 C22_16 1_555 1_555
C23_16 H16_16 1_555 1_555
H17_16 C23_16 1_555 1_555
H18_16 C23_16 1_555 1_555
C24_16 C23_16 1_555 1_555
C25_16 C26_16 1_555 1_555
C26_16 C27_16 1_555 1_555
C27_16 H19_16 1_555 1_555
C28_16 C27_16 1_555 1_555
H20_16 C28_16 1_555 1_555
C29_16 C28_16 1_555 1_555
H21_16 C29_16 1_555 1_555
C30_16 C29_16 1_555 1_555
H22_16 C30_16 1_555 1_555
N9_5 C25_16 1_555 1_555
N6_16 C24_16 1_555 1_555
N7_16 C20_16 1_555 1_555
N11_5 C26_16 1_555 1_555
O3_16 Cd3_4 1_555 1_555
O4_16 Cd3_4 1_555 1_555
Cd3_4 O2_16 1_555 1_555
C16_16 O3_16 1_555 1_555
C16_16 O4_16 1_555 1_555
C21_16 C22_16 1_555 1_555
C24_16 N7_16 1_555 1_555
C25_16 N7_16 1_555 1_555
C30_16 N11_5 1_555 1_555
N9_5 N6_16 1_555 1_555
H2_13 C4_13 1_555 1_555
C5_13 C4_13 1_555 1_555
C6_13 C5_13 1_555 1_555
H3_13 C6_13 1_555 1_555
C7_13 C2_13 1_555 1_555
H4_13 C7_13 1_555 1_555
C8_7 H5_7 1_555 1_555
H6_13 C8_7 1_555 1_555
H7_7 C8_7 1_555 1_555
C9_13 C8_7 1_555 1_555
C10_16 C11_16 1_555 1_555
C11_16 C12_15 1_555 1_555
C12_15 H8_13 1_555 1_555
N9_6 C10_16 1_555 1_555
N2_13 C9_13 1_555 1_555
N3_13 C5_13 1_555 1_555
N11_6 C11_16 1_555 1_555
C6_13 C7_13 1_555 1_555
C9_13 N3_13 1_555 1_555
C10_16 N3_13 1_555 1_555
N9_6 N2_13 1_555 1_555
C8_8 H5_8 1_555 1_555
H7_8 C8_8 1_555 1_555
H2_14 C4_14 1_555 1_555
C5_14 C4_14 1_555 1_555
C6_14 C5_14 1_555 1_555
H3_14 C6_14 1_555 1_555
C7_14 C2_14 1_555 1_555
H4_14 C7_14 1_555 1_555
C8_9 H5_9 1_555 1_555
H6_14 C8_9 1_555 1_555
H7_9 C8_9 1_555 1_555
C9_14 C8_9 1_555 1_555
N2_14 C9_14 1_555 1_555
N3_14 C5_14 1_555 1_555
C6_14 C7_14 1_555 1_555
C9_14 N3_14 1_555 1_555
C8_10 H5_10 1_555 1_555
H7_10 C8_10 1_555 1_555
C8_11 H5_11 1_555 1_555
H7_11 C8_11 1_555 1_555
C8_12 H5_12 1_555 1_555
H7_12 C8_12 1_555 1_555
C3_15 H1_15 1_555 1_555
H11_16 C15_16 1_555 1_555
H3_15 C6_15 1_555 1_555
C7_15 C2_15 1_555 1_555
H4_15 C7_15 1_555 1_555
C12_16 H8_15 1_555 1_555
C6_15 C7_15 1_555 1_555
C8_13 H5_13 1_555 1_555
H7_13 C8_13 1_555 1_555
C3_16 H1_16 1_555 1_555
C4_15 C3_16 1_555 1_555
H2_15 C4_15 1_555 1_555
C5_15 C4_15 1_555 1_555
N2_15 C9_15 1_555 1_555
N3_15 C5_15 1_555 1_555
C9_15 N3_15 1_555 1_555
H2_16 C4_16 1_555 1_555
C5_16 C4_16 1_555 1_555
C6_16 C5_16 1_555 1_555
H3_16 C6_16 1_555 1_555
C7_16 C2_16 1_555 1_555
H4_16 C7_16 1_555 1_555
C8_14 H5_14 1_555 1_555
H6_16 C8_14 1_555 1_555
H7_14 C8_14 1_555 1_555
C9_16 C8_14 1_555 1_555
N2_16 C9_16 1_555 1_555
N3_16 C5_16 1_555 1_555
C6_16 C7_16 1_555 1_555
C9_16 N3_16 1_555 1_555
C8_15 H5_15 1_555 1_555
H7_15 C8_15 1_555 1_555
C8_16 H5_16 1_555 1_555
H7_16 C8_16 1_555 1_555

#END
