
###############################################################################
#
# This file contains modified crystal structure data generated from the
# MOF subset of the Cambridge Structural Database (CSD) v543 
# hosted by the Cambridge Crystallographic Data Centre (CCDC).
#
# This work is licensed under the Creative Commons
# Attribution-NonCommercial-ShareAlike 4.0 International License.
# To view a copy of this license, visit
# http://creativecommons.org/licenses/by-nc-sa/4.0/
# or send a letter to
# Creative Commons, PO Box 1866, Mountain View, CA 94042, USA.
#
# CIF created using the CSD Python API on 29 September 2022
# The structure has been converted into the P1 space group
# The structure has a 3D framework
# The original CSD entry PUFXIZ is in the monoclinic crystal system
# The framework has been calculated to contain at least 10.0% void space
# The void calculation uses a probe of radius 1.32A, grid spacing 0.4
# H atom positions have been added when not included in the experimental data
#
###############################################################################

data_PUFXIZ
_chemical_formula_moiety         '(C64 H48 Cd4 N16 O20)n'
_symmetry_cell_setting           triclinic
_symmetry_space_group_name_H-M   'P 1'
_symmetry_Int_Tables_number      1
_space_group_name_Hall           'P 1'
loop_
_symmetry_equiv_pos_site_id
_symmetry_equiv_pos_as_xyz
1 x,y,z
_cell_length_a                   10.2515(10)
_cell_length_b                   12.3845(9)
_cell_length_c                   16.6038(18)
_cell_angle_alpha                90
_cell_angle_beta                 94.922(8)
_cell_angle_gamma                90
_cell_volume                     2100.24
loop_
_atom_site_label
_atom_site_type_symbol
_atom_site_fract_x
_atom_site_fract_y
_atom_site_fract_z
C1 C 0.2334(4) 0.6345(4) 0.0605(3)
C2 C 0.1105(4) 0.5847(4) 0.0892(2)
C3 C 0.1198(4) 0.4948(4) 0.1395(2)
H1 H 0.2013 0.4624 0.1540
C4 C 0.0072(4) 0.4542(4) 0.1675(2)
C9 C 0.0378(7) 0.2135(5) 0.1251(3)
H4 H 0.0553 0.1366 0.1284
H5 H 0.1079 0.2493 0.0998
C10 C 0.0297(5) 0.2577(4) 0.2076(3)
C11 C 0.0068(4) 0.3706(4) 0.3055(3)
C15 C 0.0777(4) 0.6399(4) 0.4022(3)
H9 H 0.1430 0.6933 0.4034
C16 C 0.0893(5) 0.5516(4) 0.3527(3)
H10 H 0.1602 0.5456 0.3207
Cd1 Cd 0.48499(3) 0.70055(2) 0.033946(17)
N1 N 0.0163(3) 0.3654(3) 0.2243(2)
N2 N 0.0280(4) 0.2011(3) 0.2740(2)
N3 N 0.0133(4) 0.2740(3) 0.3364(2)
O1 O 0.3343(3) 0.5764(3) 0.0668(2)
O2 O 0.2316(3) 0.7267(3) 0.0341(2)
Cd3 Cd 0.01501(3) 0.20055(2) 0.466054(17)
N5 N 0.4867(4) 0.7740(3) 0.1636(2)
O6 O 0.7375(3) 0.7197(3) 0.0288(2)
O7 O 0.6457(3) 0.5874(3) 0.0903(2)
O5 O 0.4921(4) 0.6025(3) 0.9145(2)
N6 N 0.4788(4) 0.8463(3) 0.9484(2)
H11 H 0.403787 0.601741 0.884818
H12 H 0.55542 0.636721 0.880331
C5 C 0.8849(4) 0.4970(4) 0.1446(2)
H2 H 0.8091 0.4663 0.1630
C6 C 0.8767(4) 0.5863(4) 0.0937(2)
C7 C 0.9895(4) 0.6313(4) 0.0674(3)
H3 H 0.9839 0.6934 0.0347
C8 C 0.7446(4) 0.6355(4) 0.0685(3)
H6 H 0.9554 0.2258 0.0931
C12 C 0.9940(4) 0.4715(4) 0.3511(2)
C13 C 0.8887(4) 0.4865(4) 0.3971(3)
H7 H 0.8213 0.4349 0.3964
C14 C 0.8844(4) 0.5784(4) 0.4441(3)
H8 H 0.8120 0.5886 0.4744
N4 N 0.9788(4) 0.6537(3) 0.4484(2)
Cd4 Cd 0.98499(3) 0.79945(2) 0.533946(17)
C1_2 C 0.2666(4) 0.1345(4) 0.4395(3)
C2_2 C 0.3895(4) 0.0847(4) 0.4108(2)
C6_2 C 0.6233(4) 0.0863(4) 0.4063(2)
C7_2 C 0.5105(4) 0.1313(4) 0.4326(3)
H3_2 H 0.5161 0.1934 0.4653
C8_2 C 0.7554(4) 0.1355(4) 0.4315(3)
C14_2 C 0.6156(4) 0.0784(4) 0.0559(3)
H8_2 H 0.6880 0.0886 0.0256
C15_2 C 0.4223(4) 0.1399(4) 0.0978(3)
H9_2 H 0.3570 0.1933 0.0966
C16_2 C 0.4107(5) 0.0516(4) 0.1473(3)
H10_2 H 0.3398 0.0456 0.1793
N4_2 N 0.5212(4) 0.1537(3) 0.0516(2)
O1_2 O 0.1657(3) 0.0764(3) 0.4332(2)
O2_2 O 0.2684(3) 0.2267(3) 0.4659(2)
O3 O 0.7625(3) 0.2197(3) 0.4712(2)
O4 O 0.8543(3) 0.0874(3) 0.4097(2)
O5_2 O 0.0079(4) 0.1025(3) 0.5855(2)
N6_2 N 0.0212(4) 0.3463(3) 0.5516(2)
H11_2 H 0.0962128 0.101741 0.615182
Cd4_2 Cd 0.51501(3) 0.29945(2) 0.966054(17)
C3_2 C 0.3802(4) 0.9948(4) 0.3605(2)
H1_2 H 0.2987 0.9624 0.3460
C4_2 C 0.4928(4) 0.9542(4) 0.3325(2)
C5_2 C 0.6151(4) 0.9970(4) 0.3554(2)
H2_2 H 0.6909 0.9663 0.3370
C9_2 C 0.4622(7) 0.7135(5) 0.3749(3)
H4_2 H 0.4447 0.6366 0.3716
H5_2 H 0.3921 0.7493 0.4002
H6_2 H 0.5446 0.7258 0.4069
C10_2 C 0.4703(5) 0.7577(4) 0.2924(3)
C11_2 C 0.4932(4) 0.8706(4) 0.1945(3)
C12_2 C 0.5060(4) 0.9715(4) 0.1489(2)
C13_2 C 0.6113(4) 0.9865(4) 0.1029(3)
H7_2 H 0.6787 0.9349 0.1036
N1_2 N 0.4837(3) 0.8654(3) 0.2757(2)
N2_2 N 0.4720(4) 0.7011(3) 0.2260(2)
H12_2 H 0.94458 0.136721 0.619669
C5_3 C 0.1151(4) 0.5030(4) 0.8554(2)
H2_3 H 0.1909 0.5337 0.8370
C6_3 C 0.1233(4) 0.4137(4) 0.9063(2)
C7_3 C 0.0105(4) 0.3687(4) 0.9326(3)
H3_3 H 0.0161 0.3066 0.9653
C8_3 C 0.2554(4) 0.3645(4) 0.9315(3)
H6_3 H 0.0446 0.7742 0.9069
C12_3 C 0.0060(4) 0.5285(4) 0.6489(2)
C13_3 C 0.1113(4) 0.5135(4) 0.6029(3)
H7_3 H 0.1787 0.5651 0.6036
C14_3 C 0.1156(4) 0.4216(4) 0.5559(3)
H8_3 H 0.1880 0.4114 0.5256
O3_2 O 0.2625(3) 0.2803(3) 0.9712(2)
O4_2 O 0.3543(3) 0.4126(3) 0.9097(2)
O5_3 O 0.5079(4) 0.3975(3) 0.0855(2)
H11_3 H 0.596213 0.398259 0.115182
H12_3 H 0.44458 0.363279 0.119669
C1_3 C 0.7666(4) 0.3655(4) 0.9395(3)
C2_3 C 0.8895(4) 0.4153(4) 0.9108(2)
C3_3 C 0.8802(4) 0.5052(4) 0.8605(2)
H1_3 H 0.7987 0.5376 0.8460
C4_3 C 0.9928(4) 0.5458(4) 0.8325(2)
C9_3 C 0.9622(7) 0.7865(5) 0.8749(3)
H4_3 H 0.9447 0.8634 0.8716
H5_3 H 0.8921 0.7507 0.9002
C10_3 C 0.9703(5) 0.7423(4) 0.7924(3)
C11_3 C 0.9932(4) 0.6294(4) 0.6945(3)
C15_3 C 0.9223(4) 0.3601(4) 0.5978(3)
H9_3 H 0.8570 0.3067 0.5966
C16_3 C 0.9107(5) 0.4484(4) 0.6473(3)
H10_3 H 0.8398 0.4544 0.6793
N1_3 N 0.9837(3) 0.6346(3) 0.7757(2)
N2_3 N 0.9720(4) 0.7989(3) 0.7260(2)
N3_2 N 0.9867(4) 0.7260(3) 0.6636(2)
O1_3 O 0.6657(3) 0.4236(3) 0.9332(2)
O2_3 O 0.7684(3) 0.2733(3) 0.9659(2)
N5_2 N 0.5133(4) 0.2260(3) 0.8364(2)
O6_2 O 0.2375(3) 0.7803(3) 0.5288(2)
O7_2 O 0.1457(3) 0.9126(3) 0.5903(2)
H12_4 H 0.0554205 0.863279 0.380331
C3_4 C 0.6198(4) 0.0052(4) 0.6395(2)
H1_4 H 0.7013 0.0376 0.6540
C4_4 C 0.5072(4) 0.0458(4) 0.6675(2)
C5_4 C 0.3849(4) 0.0030(4) 0.6446(2)
H2_4 H 0.3091 0.0337 0.6630
C9_4 C 0.5378(7) 0.2865(5) 0.6251(3)
H4_4 H 0.5553 0.3634 0.6284
H5_4 H 0.6079 0.2507 0.5998
H6_4 H 0.4554 0.2742 0.5931
C10_4 C 0.5297(5) 0.2423(4) 0.7076(3)
C11_4 C 0.5068(4) 0.1294(4) 0.8055(3)
C12_4 C 0.4940(4) 0.0285(4) 0.8511(2)
C13_4 C 0.3887(4) 0.0135(4) 0.8971(3)
H7_4 H 0.3213 0.0651 0.8964
N1_4 N 0.5163(3) 0.1346(3) 0.7243(2)
N2_4 N 0.5280(4) 0.2989(3) 0.7740(2)
C1_4 C 0.7334(4) 0.8655(4) 0.5605(3)
C2_4 C 0.6105(4) 0.9153(4) 0.5892(2)
C6_4 C 0.3767(4) 0.9137(4) 0.5937(2)
C7_4 C 0.4895(4) 0.8687(4) 0.5674(3)
H3_4 H 0.4839 0.8066 0.5347
C8_4 C 0.2446(4) 0.8645(4) 0.5685(3)
C14_4 C 0.3844(4) 0.9216(4) 0.9441(3)
H8_4 H 0.3120 0.9114 0.9744
C15_4 C 0.5777(4) 0.8601(4) 0.9022(3)
H9_4 H 0.6430 0.8067 0.9034
C16_4 C 0.5893(5) 0.9484(4) 0.8527(3)
H10_4 H 0.6602 0.9544 0.8207
O1_4 O 0.8343(3) 0.9236(3) 0.5668(2)
O2_4 O 0.7316(3) 0.7733(3) 0.5341(2)
O5_4 O 0.9921(4) 0.8975(3) 0.4145(2)
H11_4 H 0.903787 0.898259 0.384818
loop_
_geom_bond_atom_site_label_1
_geom_bond_atom_site_label_2
_geom_bond_site_symmetry_1
_geom_bond_site_symmetry_2
C1 C2 1_555 1_555
C2 C3 1_555 1_555
C3 H1 1_555 1_555
C4 C3 1_555 1_555
C9 H4 1_555 1_555
H5 C9 1_555 1_555
C10 C9 1_555 1_555
C15 H9 1_555 1_555
H10 C16 1_555 1_555
Cd1 O1 1_555 1_555
N1 C4 1_555 1_555
N2 C10 1_555 1_555
N3 C11 1_555 1_555
O1 C1 1_555 1_555
O2 C1 1_555 1_555
Cd3 N3 1_555 1_555
N5 Cd1 1_555 1_555
O6 Cd1 1_555 1_555
O7 Cd1 1_555 1_555
C10 N1 1_555 1_555
C11 N1 1_555 1_555
C15 C16 1_555 1_555
Cd1 O2 1_555 1_555
N2 N3 1_555 1_555
O5 H11 1_555 1_555
O5 H12 1_555 1_555
H2 C5 1_555 1_555
C6 C5 1_555 1_555
H3 C7 1_555 1_555
C8 C6 1_555 1_555
C12 C13 1_555 1_555
C13 H7 1_555 1_555
C14 C13 1_555 1_555
H8 C14 1_555 1_555
N4 C14 1_555 1_555
O6 C8 1_555 1_555
O7 C8 1_555 1_555
Cd4 N4 1_555 1_555
C6 C7 1_555 1_555
C1_2 C2_2 1_555 1_555
C7_2 C2_2 1_555 1_555
H3_2 C7_2 1_555 1_555
C8_2 C6_2 1_555 1_555
H8_2 C14_2 1_555 1_555
C15_2 H9_2 1_555 1_555
H10_2 C16_2 1_555 1_555
Cd3 O1_2 1_555 1_555
N4_2 C14_2 1_555 1_555
O1_2 C1_2 1_555 1_555
O2_2 C1_2 1_555 1_555
O3 C8_2 1_555 1_555
O4 C8_2 1_555 1_555
O5_2 Cd3 1_555 1_555
N6_2 Cd3 1_555 1_555
C6_2 C7_2 1_555 1_555
C15_2 C16_2 1_555 1_555
C15_2 N4_2 1_555 1_555
Cd3 O2_2 1_555 1_555
O5_2 H11_2 1_555 1_555
C3_2 H1_2 1_555 1_555
C4_2 C3_2 1_555 1_555
C5_2 C4_2 1_555 1_555
H2_2 C5_2 1_555 1_555
C9_2 H4_2 1_555 1_555
H5_2 C9_2 1_555 1_555
H6_2 C9_2 1_555 1_555
C10_2 C9_2 1_555 1_555
C11_2 C12_2 1_555 1_555
C12_2 C13_2 1_555 1_555
C13_2 H7_2 1_555 1_555
N1_2 C4_2 1_555 1_555
N2_2 C10_2 1_555 1_555
N5 C11_2 1_555 1_555
C10_2 N1_2 1_555 1_555
C11_2 N1_2 1_555 1_555
N2_2 N5 1_555 1_555
H2_3 C5_3 1_555 1_555
C6_3 C5_3 1_555 1_555
H3_3 C7_3 1_555 1_555
C8_3 C6_3 1_555 1_555
C12_3 C13_3 1_555 1_555
C13_3 H7_3 1_555 1_555
C14_3 C13_3 1_555 1_555
H8_3 C14_3 1_555 1_555
N6_2 C14_3 1_555 1_555
O3_2 C8_3 1_555 1_555
O4_2 C8_3 1_555 1_555
Cd4_2 O3_2 1_555 1_555
C6_3 C7_3 1_555 1_555
O4_2 Cd4_2 1_555 1_555
O5_3 H11_3 1_555 1_555
O5_3 H12_3 1_555 1_555
C1_3 C2_3 1_555 1_555
C2_3 C3_3 1_555 1_555
C3_3 H1_3 1_555 1_555
C4_3 C3_3 1_555 1_555
C9_3 H4_3 1_555 1_555
H5_3 C9_3 1_555 1_555
C10_3 C9_3 1_555 1_555
C15_3 H9_3 1_555 1_555
H10_3 C16_3 1_555 1_555
Cd4_2 O1_3 1_555 1_555
N1_3 C4_3 1_555 1_555
N2_3 C10_3 1_555 1_555
N3_2 C11_3 1_555 1_555
O1_3 C1_3 1_555 1_555
O2_3 C1_3 1_555 1_555
Cd4 N3_2 1_555 1_555
N5_2 Cd4_2 1_555 1_555
C10_3 N1_3 1_555 1_555
C11_3 N1_3 1_555 1_555
C15_3 C16_3 1_555 1_555
Cd4_2 O2_3 1_555 1_555
N2_3 N3_2 1_555 1_555
C3_4 H1_4 1_555 1_555
C4_4 C3_4 1_555 1_555
C5_4 C4_4 1_555 1_555
H2_4 C5_4 1_555 1_555
C9_4 H4_4 1_555 1_555
H5_4 C9_4 1_555 1_555
H6_4 C9_4 1_555 1_555
C10_4 C9_4 1_555 1_555
C11_4 C12_4 1_555 1_555
C12_4 C13_4 1_555 1_555
C13_4 H7_4 1_555 1_555
N1_4 C4_4 1_555 1_555
N2_4 C10_4 1_555 1_555
N5_2 C11_4 1_555 1_555
C10_4 N1_4 1_555 1_555
C11_4 N1_4 1_555 1_555
N2_4 N5_2 1_555 1_555
C1_4 C2_4 1_555 1_555
C7_4 C2_4 1_555 1_555
H3_4 C7_4 1_555 1_555
C8_4 C6_4 1_555 1_555
H8_4 C14_4 1_555 1_555
C15_4 H9_4 1_555 1_555
H10_4 C16_4 1_555 1_555
Cd4 O1_4 1_555 1_555
N6 C14_4 1_555 1_555
O1_4 C1_4 1_555 1_555
O2_4 C1_4 1_555 1_555
O6_2 C8_4 1_555 1_555
O7_2 C8_4 1_555 1_555
O5_4 Cd4 1_555 1_555
C6_4 C7_4 1_555 1_555
C15_4 C16_4 1_555 1_555
C15_4 N6 1_555 1_555
Cd4 O2_4 1_555 1_555
O5_4 H11_4 1_555 1_555

#END
