
###############################################################################
#
# This file contains modified crystal structure data generated from the
# MOF subset of the Cambridge Structural Database (CSD) v543 
# hosted by the Cambridge Crystallographic Data Centre (CCDC).
#
# This work is licensed under the Creative Commons
# Attribution-NonCommercial-ShareAlike 4.0 International License.
# To view a copy of this license, visit
# http://creativecommons.org/licenses/by-nc-sa/4.0/
# or send a letter to
# Creative Commons, PO Box 1866, Mountain View, CA 94042, USA.
#
# CIF created using the CSD Python API on 29 September 2022
# The structure has been converted into the P1 space group
# The structure has a 3D framework
# The original CSD entry PUFXUL is in the monoclinic crystal system
# The original CSD entry PUFXUL is in a Sohncke space group
# The framework has been calculated to contain at least 10.0% void space
# The void calculation uses a probe of radius 1.32A, grid spacing 0.4
#
###############################################################################

data_PUFXUL
_chemical_formula_moiety         '(C88 H80 Cd4 N24 O16)n'
_symmetry_cell_setting           triclinic
_symmetry_space_group_name_H-M   'P 1'
_symmetry_Int_Tables_number      1
_space_group_name_Hall           'P 1'
loop_
_symmetry_equiv_pos_site_id
_symmetry_equiv_pos_as_xyz
1 x,y,z
_cell_length_a                   8.0542(7)
_cell_length_b                   18.7800(14)
_cell_length_c                   19.289(2)
_cell_angle_alpha                90
_cell_angle_beta                 95.641(7)
_cell_angle_gamma                90
_cell_volume                     2903.48
loop_
_atom_site_label
_atom_site_type_symbol
_atom_site_fract_x
_atom_site_fract_y
_atom_site_fract_z
C38 C 0.0330(13) 0.0630(5) 0.9515(5)
C39 C 0.0762(14) 0.1304(5) 0.9777(5)
H33 H 0.1884 0.1439 0.9874
C43 C 0.2802(14) 0.0237(5) 0.8888(5)
C44 C 0.2641(18) 0.0826(6) 0.8366(7)
H38 H 0.3056 0.1265 0.8584
H39 H 0.1477 0.0885 0.8192
H40 H 0.3285 0.0711 0.7981
N12 N 0.1673(10) 0.0154(4) 0.9372(4)
C41 C 0.1436(14) 0.9303(5) 0.0366(5)
H35 H 0.1906 0.8841 0.0497
H36 H 0.0245 0.9256 0.0241
H37 H 0.1633 0.9630 0.0755
C42 C 0.2247(13) 0.9587(5) 0.9755(5)
N10 N 0.3575(10) 0.9336(4) 0.9511(4)
N11 N 0.3926(11) 0.9746(4) 0.8956(4)
Cd5 Cd 0.51674(8) 0.83853(3) 0.98472(3)
C34 C 0.3508(15) 0.7097(5) 0.0104(5)
C35 C 0.2151(13) 0.6566(5) 0.0238(5)
C36 C 0.2538(14) 0.5888(5) 0.0465(5)
H31 H 0.3659 0.5743 0.0528
C37 C 0.1295(15) 0.5421(5) 0.0600(6)
H32 H 0.1564 0.4962 0.0771
C40 C 0.0498(13) 0.6760(5) 0.0112(5)
O6 O 0.4984(11) 0.6915(4) 0.0123(5)
N13 N 0.6031(10) 0.8710(4) 0.0961(3)
H1 H 0.9834 0.8353 0.4064
C4 C 0.8672(13) 0.8565(6) 0.3107(4)
H2 H 0.7613 0.8397 0.3194
C5 C 0.8927(15) 0.8834(5) 0.2478(5)
C8 C 0.8478(16) 0.7906(6) 0.1175(5)
H5 H 0.8132 0.7469 0.1388
H6 H 0.9614 0.8019 0.1355
H7 H 0.8421 0.7844 0.0674
C9 C 0.7361(11) 0.8492(5) 0.1340(4)
C10 C 0.6223(14) 0.9332(5) 0.1896(5)
C11 C 0.5988(17) 0.9857(7) 0.2471(6)
H10 H 0.5748 0.9601 0.2886
C23 C 0.7341(13) 0.8208(4) 0.8892(4)
C24 C 0.8671(12) 0.8147(5) 0.8394(4)
C25 C 0.8234(14) 0.7996(6) 0.7706(5)
H21 H 0.7107 0.7925 0.7545
C26 C 0.9462(13) 0.7947(5) 0.7243(5)
H22 H 0.9172 0.7838 0.6771
H34 H 0.0234 0.7220 0.9946
N2 N 0.5308(13) 0.9250(5) 0.1326(4)
N3 N 0.7543(11) 0.8878(4) 0.1934(4)
O5 O 0.3006(10) 0.7725(4) 0.9998(4)
O7 O 0.7784(8) 0.8366(4) 0.9515(3)
O8 O 0.5836(9) 0.8115(4) 0.8685(3)
Cd4 Cd 0.48326(8) 0.33853(3) 0.01528(3)
H1_2 H 0.0166 0.3353 0.5936
C4_2 C 0.1328(13) 0.3565(6) 0.6893(4)
H2_2 H 0.2387 0.3397 0.6806
C5_2 C 0.1073(15) 0.3834(5) 0.7522(5)
C8_2 C 0.1522(16) 0.2906(6) 0.8825(5)
H5_2 H 0.1868 0.2469 0.8612
H6_2 H 0.0386 0.3019 0.8645
H7_2 H 0.1579 0.2844 0.9326
C9_2 C 0.2639(11) 0.3492(5) 0.8660(4)
C10_2 C 0.3777(14) 0.4332(5) 0.8104(5)
C11_2 C 0.4012(17) 0.4857(7) 0.7529(6)
H8 H 0.4933 0.5173 0.7675
H9 H 0.3000 0.5134 0.7429
H10_2 H 0.4252 0.4601 0.7114
C23_2 C 0.2659(13) 0.3208(4) 0.1108(4)
C24_2 C 0.1329(12) 0.3147(5) 0.1606(4)
C25_2 C 0.1766(14) 0.2996(6) 0.2294(5)
H21_2 H 0.2893 0.2925 0.2455
C26_2 C 0.0538(13) 0.2947(5) 0.2757(5)
H22_2 H 0.0828 0.2838 0.3229
H34_2 H 0.9766 0.2220 0.0054
N1 N 0.3969(10) 0.3710(4) 0.9039(3)
N2_2 N 0.4692(13) 0.4250(5) 0.8674(4)
N3_2 N 0.2457(11) 0.3878(4) 0.8066(4)
O5_2 O 0.6994(10) 0.2725(4) 0.0002(4)
O7_2 O 0.2216(8) 0.3366(4) 0.0485(3)
O8_2 O 0.4164(9) 0.3115(4) 0.1315(3)
N14 N 0.6425(10) 0.4336(4) 0.0489(4)
C34_2 C 0.6492(15) 0.2097(5) 0.9896(5)
C35_2 C 0.7849(13) 0.1566(5) 0.9762(5)
C36_2 C 0.7462(14) 0.0888(5) 0.9535(5)
H31_2 H 0.6341 0.0743 0.9472
C37_2 C 0.8705(15) 0.0421(5) 0.9400(6)
C40_2 C 0.9502(13) 0.1760(5) 0.9888(5)
O6_2 O 0.5016(11) 0.1915(4) 0.9877(5)
C38_2 C 0.9670(13) 0.5630(5) 0.0485(5)
C39_2 C 0.9238(14) 0.6304(5) 0.0223(5)
H33_2 H 0.8116 0.6439 0.0126
C42_2 C 0.7753(13) 0.4587(5) 0.0245(5)
C43_2 C 0.7198(14) 0.5237(5) 0.1112(5)
C44_2 C 0.7359(18) 0.5826(6) 0.1634(7)
H38_2 H 0.6944 0.6265 0.1416
H39_2 H 0.8523 0.5885 0.1808
H40_2 H 0.6715 0.5711 0.2019
N11_2 N 0.6074(11) 0.4746(4) 0.1044(4)
N12_2 N 0.8327(10) 0.5154(4) 0.0628(4)
H32_2 H 0.8436 0.9962 0.9229
C1 C 0.7070(15) 0.3773(5) 0.5925(5)
C2 C 0.8456(13) 0.3781(5) 0.6491(5)
C3 C 0.9996(13) 0.3541(6) 0.6375(4)
C6 C 0.9523(18) 0.4077(7) 0.7664(6)
H3 H 0.9362 0.4259 0.8106
C7 C 0.8223(17) 0.4048(7) 0.7149(6)
H4 H 0.7162 0.4210 0.7240
C16 C 0.1388(13) 0.6234(5) 0.4695(5)
C17 C 0.1786(14) 0.6841(5) 0.5057(5)
H13 H 0.2898 0.6943 0.5220
C18 C 0.0510(13) 0.7306(5) 0.5179(5)
H14 H 0.0763 0.7729 0.5426
C19 C 0.1919(16) 0.4787(6) 0.5389(6)
H15 H 0.0897 0.4584 0.5164
H16 H 0.1649 0.5166 0.5701
H17 H 0.2551 0.4420 0.5653
C20 C 0.2927(13) 0.5079(5) 0.4854(5)
C21 C 0.3906(12) 0.5807(5) 0.4096(5)
C22 C 0.4075(16) 0.6443(6) 0.3673(6)
H18 H 0.4847 0.6347 0.3328
H19 H 0.4498 0.6832 0.3970
H20 H 0.2995 0.6571 0.3439
C27 C 0.8894(13) 0.3061(5) 0.2508(4)
C28 C 0.8468(13) 0.3220(6) 0.1805(5)
H23 H 0.7348 0.3298 0.1637
C29 C 0.9683(12) 0.3259(5) 0.1366(4)
H24 H 0.9398 0.3365 0.0893
C30 C 0.8325(15) 0.4097(6) 0.3673(5)
H25 H 0.7811 0.4367 0.4023
H26 H 0.8406 0.4391 0.3265
H27 H 0.9433 0.3947 0.3860
C31 C 0.7309(10) 0.3470(5) 0.3480(4)
C32 C 0.6385(12) 0.2499(5) 0.2956(4)
C33 C 0.6245(17) 0.1896(6) 0.2462(6)
H28 H 0.5172 0.1664 0.2479
H29 H 0.7131 0.1556 0.2589
H30 H 0.6339 0.2070 0.1994
N4 N 0.4158(11) 0.4769(4) 0.4585(4)
N5 N 0.4784(11) 0.5229(4) 0.4105(4)
N6 N 0.2708(10) 0.5737(4) 0.4559(4)
N7 N 0.5982(10) 0.3246(4) 0.3764(3)
N8 N 0.5393(10) 0.2632(4) 0.3435(4)
N9 N 0.7587(10) 0.3006(4) 0.2971(3)
O1 O 0.7446(9) 0.3646(4) 0.5322(3)
O2 O 0.5608(11) 0.3903(5) 0.6046(4)
Cd1 Cd 0.49037(8) 0.36127(3) 0.47449(3)
O9 O 0.2122(9) 0.3244(3) 0.4628(4)
O10 O 0.3958(10) 0.2474(4) 0.5083(4)
C12 C 0.2495(14) 0.2645(6) 0.4912(5)
C13 C 0.1125(13) 0.2156(5) 0.5056(5)
C14 C 0.1459(15) 0.1530(6) 0.5427(6)
H11 H 0.2561 0.1417 0.5598
C15 C 0.0212(16) 0.1087(5) 0.5544(6)
H12 H 0.0453 0.0665 0.5796
C12_2 C 0.7505(14) 0.7645(6) 0.5088(5)
C13_2 C 0.8875(13) 0.7156(5) 0.4944(5)
C14_2 C 0.8541(15) 0.6530(6) 0.4573(6)
H11_2 H 0.7439 0.6417 0.4402
C15_2 C 0.9788(16) 0.6087(5) 0.4456(6)
H12_2 H 0.9547 0.5665 0.4204
O3 O 0.7878(9) 0.8244(3) 0.5372(4)
O4 O 0.6042(10) 0.7474(4) 0.4917(4)
Cd3 Cd 0.50963(8) 0.86127(3) 0.52551(3)
C1_2 C 0.2930(15) 0.8773(5) 0.4075(5)
C2_2 C 0.1544(13) 0.8781(5) 0.3509(5)
C3_2 C 0.0004(13) 0.8541(6) 0.3625(4)
C6_2 C 0.0477(18) 0.9077(7) 0.2336(6)
H3_2 H 0.0638 0.9259 0.1894
C7_2 C 0.1777(17) 0.9048(7) 0.2851(6)
H4_2 H 0.2838 0.9210 0.2760
C19_2 C 0.8081(16) 0.9787(6) 0.4611(6)
H15_2 H 0.9103 0.9584 0.4836
H17_2 H 0.7449 0.9420 0.4347
C27_2 C 0.1106(13) 0.8061(5) 0.7492(4)
C28_2 C 0.1532(13) 0.8220(6) 0.8195(5)
H23_2 H 0.2652 0.8298 0.8363
C29_2 C 0.0317(12) 0.8259(5) 0.8634(4)
H24_2 H 0.0602 0.8365 0.9107
C30_2 C 0.1675(15) 0.9097(6) 0.6327(5)
H25_2 H 0.2189 0.9367 0.5977
H26_2 H 0.1594 0.9391 0.6735
H27_2 H 0.0567 0.8947 0.6140
C31_2 C 0.2691(10) 0.8470(5) 0.6520(4)
C32_2 C 0.3615(12) 0.7499(5) 0.7044(4)
C33_2 C 0.3755(17) 0.6896(6) 0.7538(6)
H28_2 H 0.4828 0.6664 0.7521
H29_2 H 0.2869 0.6556 0.7411
H30_2 H 0.3661 0.7070 0.8006
N4_2 N 0.5842(11) 0.9769(4) 0.5415(4)
N7_2 N 0.4018(10) 0.8246(4) 0.6236(3)
N8_2 N 0.4607(10) 0.7632(4) 0.6565(4)
N9_2 N 0.2413(10) 0.8006(4) 0.7029(3)
O1_2 O 0.2554(9) 0.8646(4) 0.4678(3)
O2_2 O 0.4392(11) 0.8903(5) 0.3954(4)
C16_2 C 0.8612(13) 0.1234(5) 0.5305(5)
C17_2 C 0.8214(14) 0.1841(5) 0.4943(5)
H13_2 H 0.7102 0.1943 0.4780
C18_2 C 0.9490(13) 0.2306(5) 0.4821(5)
H14_2 H 0.9237 0.2729 0.4574
H16_2 H 0.8351 0.0166 0.4299
C20_2 C 0.7073(13) 0.0079(5) 0.5146(5)
C21_2 C 0.6094(12) 0.0807(5) 0.5904(5)
C22_2 C 0.5925(16) 0.1443(6) 0.6327(6)
H18_2 H 0.5153 0.1347 0.6672
H19_2 H 0.5502 0.1832 0.6030
H20_2 H 0.7005 0.1571 0.6561
N5_2 N 0.5216(11) 0.0229(4) 0.5895(4)
N6_2 N 0.7292(10) 0.0737(4) 0.5441(4)
H8_2 H 0.5067 0.0173 0.2325
H9_2 H 0.7000 0.0134 0.2571
C41_2 C 0.8564(14) 0.4303(5) 0.9634(5)
H35_2 H 0.8094 0.3841 0.9503
H36_2 H 0.9755 0.4256 0.9759
H37_2 H 0.8367 0.4630 0.9245
loop_
_geom_bond_atom_site_label_1
_geom_bond_atom_site_label_2
_geom_bond_site_symmetry_1
_geom_bond_site_symmetry_2
C39 C38 1_555 1_555
H33 C39 1_555 1_555
C43 C44 1_555 1_555
C44 H38 1_555 1_555
H39 C44 1_555 1_555
H40 C44 1_555 1_555
N12 C38 1_555 1_555
C43 N12 1_555 1_555
C41 H35 1_555 1_555
H36 C41 1_555 1_555
H37 C41 1_555 1_555
N10 C42 1_555 1_555
Cd5 N10 1_555 1_555
N10 N11 1_555 1_555
C34 C35 1_555 1_555
C35 C36 1_555 1_555
C36 H31 1_555 1_555
C37 C36 1_555 1_555
H32 C37 1_555 1_555
C40 C35 1_555 1_555
O6 C34 1_555 1_555
H2 C4 1_555 1_555
C5 C4 1_555 1_555
C8 H5 1_555 1_555
H6 C8 1_555 1_555
H7 C8 1_555 1_555
C9 C8 1_555 1_555
C10 C11 1_555 1_555
H10 C11 1_555 1_555
C23 C24 1_555 1_555
C24 C25 1_555 1_555
C25 H21 1_555 1_555
C26 C25 1_555 1_555
H22 C26 1_555 1_555
N13 C9 1_555 1_555
N2 C10 1_555 1_555
N3 C5 1_555 1_555
O7 C23 1_555 1_555
O8 C23 1_555 1_555
Cd5 O5 1_555 1_555
C9 N3 1_555 1_555
C10 N3 1_555 1_555
N13 N2 1_555 1_555
O7 Cd5 1_555 1_555
O8 Cd5 1_555 1_555
H2_2 C4_2 1_555 1_555
C5_2 C4_2 1_555 1_555
C8_2 H5_2 1_555 1_555
H6_2 C8_2 1_555 1_555
H7_2 C8_2 1_555 1_555
C9_2 C8_2 1_555 1_555
C10_2 C11_2 1_555 1_555
C11_2 H8 1_555 1_555
H9 C11_2 1_555 1_555
H10_2 C11_2 1_555 1_555
C23_2 C24_2 1_555 1_555
C24_2 C25_2 1_555 1_555
C25_2 H21_2 1_555 1_555
C26_2 C25_2 1_555 1_555
H22_2 C26_2 1_555 1_555
N1 C9_2 1_555 1_555
N2_2 C10_2 1_555 1_555
N3_2 C5_2 1_555 1_555
O7_2 C23_2 1_555 1_555
O8_2 C23_2 1_555 1_555
Cd4 O5_2 1_555 1_555
N14 Cd4 1_555 1_555
C9_2 N3_2 1_555 1_555
C10_2 N3_2 1_555 1_555
N1 N2_2 1_555 1_555
O7_2 Cd4 1_555 1_555
O8_2 Cd4 1_555 1_555
C34_2 C35_2 1_555 1_555
C35_2 C36_2 1_555 1_555
C36_2 H31_2 1_555 1_555
C37_2 C36_2 1_555 1_555
C40_2 C35_2 1_555 1_555
O6_2 C34_2 1_555 1_555
C39_2 C38_2 1_555 1_555
H33_2 C39_2 1_555 1_555
C43_2 C44_2 1_555 1_555
C44_2 H38_2 1_555 1_555
H39_2 C44_2 1_555 1_555
H40_2 C44_2 1_555 1_555
N14 C42_2 1_555 1_555
N11_2 C43_2 1_555 1_555
N12_2 C38_2 1_555 1_555
C42_2 N12_2 1_555 1_555
C43_2 N12_2 1_555 1_555
N14 N11_2 1_555 1_555
C1 C2 1_555 1_555
C2 C3 1_555 1_555
H3 C6 1_555 1_555
C7 C2 1_555 1_555
H4 C7 1_555 1_555
C17 C16 1_555 1_555
H13 C17 1_555 1_555
H14 C18 1_555 1_555
C19 H15 1_555 1_555
H16 C19 1_555 1_555
H17 C19 1_555 1_555
C20 C19 1_555 1_555
C21 C22 1_555 1_555
C22 H18 1_555 1_555
H19 C22 1_555 1_555
H20 C22 1_555 1_555
C28 C27 1_555 1_555
H23 C28 1_555 1_555
H24 C29 1_555 1_555
C30 H25 1_555 1_555
H26 C30 1_555 1_555
H27 C30 1_555 1_555
C31 C30 1_555 1_555
C32 C33 1_555 1_555
C33 H28 1_555 1_555
H29 C33 1_555 1_555
H30 C33 1_555 1_555
N4 C20 1_555 1_555
N5 C21 1_555 1_555
N6 C16 1_555 1_555
N7 C31 1_555 1_555
N8 C32 1_555 1_555
N9 C27 1_555 1_555
O1 C1 1_555 1_555
O2 C1 1_555 1_555
Cd1 N4 1_555 1_555
O9 Cd1 1_555 1_555
O10 Cd1 1_555 1_555
C6 C7 1_555 1_555
C17 C18 1_555 1_555
C20 N6 1_555 1_555
C21 N6 1_555 1_555
C28 C29 1_555 1_555
C31 N9 1_555 1_555
C32 N9 1_555 1_555
N4 N5 1_555 1_555
N7 N8 1_555 1_555
N7 Cd1 1_555 1_555
O1 Cd1 1_555 1_555
O2 Cd1 1_555 1_555
C12 C13 1_555 1_555
C13 C14 1_555 1_555
C14 H11 1_555 1_555
C15 C14 1_555 1_555
H12 C15 1_555 1_555
O9 C12 1_555 1_555
O10 C12 1_555 1_555
C12_2 C13_2 1_555 1_555
C13_2 C14_2 1_555 1_555
C14_2 H11_2 1_555 1_555
C15_2 C14_2 1_555 1_555
H12_2 C15_2 1_555 1_555
O3 C12_2 1_555 1_555
O4 C12_2 1_555 1_555
Cd3 O3 1_555 1_555
O4 Cd3 1_555 1_555
C1_2 C2_2 1_555 1_555
C2_2 C3_2 1_555 1_555
H3_2 C6_2 1_555 1_555
C7_2 C2_2 1_555 1_555
H4_2 C7_2 1_555 1_555
C19_2 H15_2 1_555 1_555
H17_2 C19_2 1_555 1_555
C28_2 C27_2 1_555 1_555
H23_2 C28_2 1_555 1_555
H24_2 C29_2 1_555 1_555
C30_2 H25_2 1_555 1_555
H26_2 C30_2 1_555 1_555
H27_2 C30_2 1_555 1_555
C31_2 C30_2 1_555 1_555
C32_2 C33_2 1_555 1_555
C33_2 H28_2 1_555 1_555
H29_2 C33_2 1_555 1_555
H30_2 C33_2 1_555 1_555
N7_2 C31_2 1_555 1_555
N8_2 C32_2 1_555 1_555
N9_2 C27_2 1_555 1_555
O1_2 C1_2 1_555 1_555
O2_2 C1_2 1_555 1_555
Cd3 N4_2 1_555 1_555
C6_2 C7_2 1_555 1_555
C28_2 C29_2 1_555 1_555
C31_2 N9_2 1_555 1_555
C32_2 N9_2 1_555 1_555
N7_2 N8_2 1_555 1_555
N7_2 Cd3 1_555 1_555
O1_2 Cd3 1_555 1_555
O2_2 Cd3 1_555 1_555
C17_2 C16_2 1_555 1_555
H13_2 C17_2 1_555 1_555
H14_2 C18_2 1_555 1_555
C21_2 C22_2 1_555 1_555
C22_2 H18_2 1_555 1_555
H19_2 C22_2 1_555 1_555
H20_2 C22_2 1_555 1_555
N5_2 C21_2 1_555 1_555
N6_2 C16_2 1_555 1_555
C17_2 C18_2 1_555 1_555
C20_2 N6_2 1_555 1_555
C21_2 N6_2 1_555 1_555
C41_2 H35_2 1_555 1_555
H36_2 C41_2 1_555 1_555
H37_2 C41_2 1_555 1_555

#END
