
###############################################################################
#
# This file contains modified crystal structure data generated from the
# MOF subset of the Cambridge Structural Database (CSD) v543 
# hosted by the Cambridge Crystallographic Data Centre (CCDC).
#
# This work is licensed under the Creative Commons
# Attribution-NonCommercial-ShareAlike 4.0 International License.
# To view a copy of this license, visit
# http://creativecommons.org/licenses/by-nc-sa/4.0/
# or send a letter to
# Creative Commons, PO Box 1866, Mountain View, CA 94042, USA.
#
# CIF created using the CSD Python API on 29 September 2022
# The structure has been converted into the P1 space group
# The structure has a 3D framework
# The original CSD entry PUFYEW is in the monoclinic crystal system
# The framework has been calculated to contain at least 10.0% void space
# The void calculation uses a probe of radius 1.32A, grid spacing 0.4
#
###############################################################################

data_PUFYEW
_chemical_formula_moiety         '(C302 H206 Cd14 N86 O44)n'
_symmetry_cell_setting           triclinic
_symmetry_space_group_name_H-M   'P 1'
_symmetry_Int_Tables_number      1
_space_group_name_Hall           'P 1'
loop_
_symmetry_equiv_pos_site_id
_symmetry_equiv_pos_as_xyz
1 x,y,z
_cell_length_a                   30.3606(17)
_cell_length_b                   27.1114(10)
_cell_length_c                   21.0571(10)
_cell_angle_alpha                90
_cell_angle_beta                 106.486(4)
_cell_angle_gamma                90
_cell_volume                     16619.9
loop_
_atom_site_label
_atom_site_type_symbol
_atom_site_fract_x
_atom_site_fract_y
_atom_site_fract_z
Cd7 Cd 0.0000 0.513321(10) 0.2500
C1 C 0.42024(10) 0.56701(14) 0.16257(15)
C2 C 0.43087(9) 0.53876(12) 0.22793(13)
C3 C 0.44691(13) 0.56261(13) 0.28730(15)
H1 H 0.4525 0.5964 0.2883
C4 C 0.45487(13) 0.53635(13) 0.34606(16)
H2 H 0.4656 0.5527 0.3864
C5 C 0.44708(10) 0.48692(12) 0.34506(13)
C6 C 0.43233(13) 0.46155(13) 0.28589(15)
H3 H 0.4280 0.4276 0.2852
C7 C 0.42417(14) 0.48842(13) 0.22741(15)
H4 H 0.4140 0.4721 0.1871
C8 C 0.54124(12) 0.44982(17) 0.4310(2)
H5 H 0.5658 0.4433 0.4703
H6 H 0.5432 0.4833 0.4173
H7 H 0.5437 0.4279 0.3963
C9 C 0.49588(10) 0.44182(12) 0.44511(15)
C10 C 0.42248(10) 0.44314(11) 0.43636(13)
C11 C 0.08213(12) 0.48154(16) 0.3394(2)
C12 C 0.12416(11) 0.45889(13) 0.38404(19)
C13 C 0.13324(14) 0.40991(17) 0.3783(3)
H8 H 0.1120 0.3903 0.3484
C14 C 0.17481(16) 0.38883(17) 0.4174(3)
H9 H 0.1817 0.3559 0.4124
C15 C 0.20451(11) 0.41800(14) 0.46263(19)
C16 C 0.19496(13) 0.46605(14) 0.4708(2)
H10 H 0.2152 0.4852 0.5028
C17 C 0.15410(13) 0.48646(14) 0.4304(2)
H11 H 0.1475 0.5195 0.4355
C18 C 0.21222(15) 0.3516(2) 0.5839(3)
H12 H 0.1979 0.3800 0.5965
H13 H 0.2235 0.3305 0.6216
H14 H 0.1902 0.3340 0.5497
C19 C 0.25188(13) 0.36783(15) 0.5584(2)
C20 C 0.29064(10) 0.40085(12) 0.49591(16)
C21 C 0.37176(10) 0.45055(13) 0.41674(14)
C22 C 0.34684(15) 0.4776(2) 0.3635(2)
H15 H 0.3613 0.4952 0.3372
C23 C 0.29928(17) 0.4777(3) 0.3503(3)
H16 H 0.2814 0.4950 0.3140
C24 C 0.27827(15) 0.4519(2) 0.3915(2)
H17 H 0.2465 0.4512 0.3826
C25 C 0.30582(11) 0.42760(14) 0.44524(15)
C26 C 0.40728(15) 0.28862(14) 0.4903(2)
C27 C 0.41963(13) 0.24003(12) 0.46499(19)
C28 C 0.45927(18) 0.21452(16) 0.4959(2)
H18 H 0.4793 0.2271 0.5344
C29 C 0.46961(18) 0.17034(16) 0.4702(3)
H19 H 0.4966 0.1537 0.4909
C30 C 0.43943(14) 0.15140(12) 0.4138(2)
C31 C 0.40026(14) 0.17599(14) 0.3822(2)
H20 H 0.3804 0.1628 0.3439
C32 C 0.38995(13) 0.22048(13) 0.4068(2)
H21 H 0.3634 0.2374 0.3848
C33 C 0.4194(3) 0.05219(19) 0.4692(3)
H22 H 0.3972 0.0260 0.4584
H23 H 0.4045 0.0822 0.4759
H24 H 0.4430 0.0440 0.5089
C34 C 0.44065(19) 0.05914(15) 0.4129(3)
C35 C 0.46694(11) 0.09340(11) 0.33722(18)
C36 C 0.48397(11) 0.12651(10) 0.29420(18)
C37 C 0.48286(18) 0.17770(13) 0.2952(3)
H25 H 0.4710 0.1946 0.3252
C38 C 0.5000 0.20282(19) 0.2500
H26 H 0.5000 0.2371 0.2500
Cd1 Cd 0.397736(7) 0.378252(7) 0.548604(9)
Cd2 Cd 0.5000 0.013321(10) 0.2500
N1 N 0.45459(8) 0.45996(9) 0.40679(11)
N2 N 0.49001(8) 0.41658(10) 0.49530(12)
N3 N 0.44370(8) 0.41728(9) 0.48978(11)
N4 N 0.24707(9) 0.39597(11) 0.50300(16)
N5 N 0.29596(10) 0.35451(12) 0.58453(16)
N6 N 0.31975(8) 0.37597(10) 0.54419(14)
N7 N 0.35189(8) 0.42684(9) 0.45737(10)
N8 N 0.44898(12) 0.10402(10) 0.38819(17)
N9 N 0.45286(14) 0.02295(11) 0.3800(2)
N10 N 0.46928(10) 0.04450(9) 0.33230(16)
N11 N 0.5000 0.10228(11) 0.2500
O1 O 0.43017(8) 0.61223(9) 0.16310(11)
O2 O 0.40131(9) 0.54443(9) 0.11047(11)
O3 O 0.05209(9) 0.45393(10) 0.30311(17)
O4 O 0.07647(10) 0.52710(11) 0.33761(17)
O5 O 0.42971(12) 0.30169(10) 0.54821(15)
O6 O 0.37786(10) 0.31567(10) 0.45530(16)
C39 C 0.59272(15) 0.28862(14) 0.0097(2)
C40 C 0.58037(13) 0.24003(12) 0.03501(19)
C41 C 0.54073(18) 0.21452(16) 0.0041(2)
C42 C 0.53039(18) 0.17034(16) 0.0298(3)
H28 H 0.5034 0.1537 0.0091
C43 C 0.56057(14) 0.15140(12) 0.0862(2)
C44 C 0.59974(14) 0.17599(14) 0.1178(2)
H29 H 0.6196 0.1628 0.1561
C45 C 0.61005(13) 0.22048(13) 0.0932(2)
H30 H 0.6366 0.2374 0.1152
C46 C 0.5806(3) 0.05219(19) 0.0308(3)
H31 H 0.6028 0.0260 0.0416
H32 H 0.5955 0.0822 0.0241
C47 C 0.55935(19) 0.05914(15) 0.0871(3)
C48 C 0.53306(11) 0.09340(11) 0.16278(18)
C49 C 0.51603(11) 0.12651(10) 0.20580(18)
C50 C 0.51714(18) 0.17770(13) 0.2048(3)
H34 H 0.5290 0.1946 0.1748
N12 N 0.55102(12) 0.10402(10) 0.11181(17)
N13 N 0.54714(14) 0.02295(11) 0.1200(2)
N14 N 0.53072(10) 0.04450(9) 0.16770(16)
O8 O 0.62214(10) 0.31567(10) 0.04470(16)
C51 C 0.57976(10) 0.56701(14) 0.33743(15)
C52 C 0.56913(9) 0.53876(12) 0.27207(13)
C53 C 0.55309(13) 0.56261(13) 0.21270(15)
H35 H 0.5475 0.5964 0.2117
C54 C 0.54513(13) 0.53635(13) 0.15394(16)
H36 H 0.5344 0.5527 0.1136
C55 C 0.55292(10) 0.48692(12) 0.15494(13)
C56 C 0.56767(13) 0.46155(13) 0.21411(15)
H37 H 0.5720 0.4276 0.2148
C57 C 0.57583(14) 0.48842(13) 0.27259(15)
H38 H 0.5860 0.4721 0.3129
C58 C 0.45876(12) 0.44982(17) 0.0690(2)
H39 H 0.4342 0.4433 0.0297
H40 H 0.4568 0.4833 0.0827
H41 H 0.4563 0.4279 0.1037
C59 C 0.50412(10) 0.44182(12) 0.05489(15)
C60 C 0.57752(10) 0.44314(11) 0.06364(13)
C61 C 0.91787(12) 0.48154(16) 0.1606(2)
C62 C 0.87584(11) 0.45889(13) 0.11596(19)
C63 C 0.86676(14) 0.40991(17) 0.1217(3)
H42 H 0.8880 0.3903 0.1516
C64 C 0.82519(16) 0.38883(17) 0.0826(3)
H43 H 0.8183 0.3559 0.0876
C65 C 0.79549(11) 0.41800(14) 0.03737(19)
C66 C 0.80504(13) 0.46605(14) 0.0292(2)
C67 C 0.84590(13) 0.48646(14) 0.0696(2)
H45 H 0.8525 0.5195 0.0645
C70 C 0.70936(10) 0.40085(12) 0.00409(16)
C71 C 0.62824(10) 0.45055(13) 0.08326(14)
C72 C 0.65316(15) 0.4776(2) 0.1365(2)
H49 H 0.6387 0.4952 0.1628
C73 C 0.70072(17) 0.4777(3) 0.1497(3)
H50 H 0.7186 0.4950 0.1860
C74 C 0.72173(15) 0.4519(2) 0.1085(2)
H51 H 0.7535 0.4512 0.1174
C75 C 0.69418(11) 0.42760(14) 0.05476(15)
N15 N 0.54541(8) 0.45996(9) 0.09321(11)
N16 N 0.50999(8) 0.41658(10) 0.00470(12)
N17 N 0.55630(8) 0.41728(9) 0.01022(11)
N21 N 0.64811(8) 0.42684(9) 0.04263(10)
O9 O 0.56983(8) 0.61223(9) 0.33690(11)
O10 O 0.59869(9) 0.54443(9) 0.38953(11)
O11 O 0.94791(9) 0.45393(10) 0.19689(17)
O12 O 0.92353(10) 0.52710(11) 0.16239(17)
Cd4 Cd 0.602264(7) 0.621748(7) 0.451396(9)
Cd5 Cd 0.397736(7) 0.621748(7) 0.048604(9)
Cd7_2 Cd 1.0000 0.513321(10) 0.2500
O14 O 0.43017(8) 0.38777(9) 0.66310(11)
O16 O 0.40131(9) 0.45557(9) 0.61047(11)
O19 O 0.57647(10) 0.02710(11) 0.33761(17)
O20 O 0.42353(10) 0.02710(11) 0.16239(17)
H27 H 0.5207 0.2271 0.9656
H33 H 0.5570 0.0440 0.9911
O7 O 0.57029(12) 0.30169(10) 0.95179(15)
H44 H 0.7848 0.4852 0.9972
C68 C 0.78778(15) 0.3516(2) 0.9161(3)
H46 H 0.8021 0.3800 0.9035
H47 H 0.7765 0.3305 0.8784
H48 H 0.8098 0.3340 0.9503
C69 C 0.74812(13) 0.36783(15) 0.9416(2)
Cd3 Cd 0.602264(7) 0.378252(7) 0.951396(9)
N18 N 0.75293(9) 0.39597(11) 0.99700(16)
N19 N 0.70404(10) 0.35451(12) 0.91547(16)
N20 N 0.68025(8) 0.37597(10) 0.95581(14)
O13 O 0.56983(8) 0.38777(9) 0.83690(11)
O15 O 0.59869(9) 0.45557(9) 0.88953(11)
O17 O 0.55209(9) 0.95393(10) 0.30311(17)
O18 O 0.44791(9) 0.95393(10) 0.19689(17)
C51_2 C 0.07976(10) 0.06701(14) 0.33743(15)
C52_2 C 0.06913(9) 0.03876(12) 0.27207(13)
C53_2 C 0.05309(13) 0.06261(13) 0.21270(15)
H35_2 H 0.0475 0.0964 0.2117
C54_2 C 0.04513(13) 0.03635(13) 0.15394(16)
H36_2 H 0.0344 0.0527 0.1136
H45_2 H 0.3525 0.0195 0.0645
O9_2 O 0.06983(8) 0.11223(9) 0.33690(11)
O10_2 O 0.09869(9) 0.04443(9) 0.38953(11)
Cd4_2 Cd 0.102264(7) 0.121748(7) 0.451396(9)
C8_2 C 0.04124(12) 0.94982(17) 0.4310(2)
H5_2 H 0.0658 0.9433 0.4703
H6_2 H 0.0432 0.9833 0.4173
H7_2 H 0.0437 0.9279 0.3963
C38_2 C -0.0000 0.70282(19) 0.2500
H26_2 H -0.0000 0.7371 0.2500
N11_2 N -0.0000 0.60228(11) 0.2500
C39_2 C 0.09272(15) 0.78862(14) 0.0097(2)
C40_2 C 0.08037(13) 0.74003(12) 0.03501(19)
C41_2 C 0.04073(18) 0.71452(16) 0.0041(2)
C42_2 C 0.03039(18) 0.67034(16) 0.0298(3)
H28_2 H 0.0034 0.6537 0.0091
C43_2 C 0.06057(14) 0.65140(12) 0.0862(2)
C44_2 C 0.09974(14) 0.67599(14) 0.1178(2)
H29_2 H 0.1196 0.6628 0.1561
C45_2 C 0.11005(13) 0.72048(13) 0.0932(2)
H30_2 H 0.1366 0.7374 0.1152
C46_2 C 0.0806(3) 0.55219(19) 0.0308(3)
H31_2 H 0.1028 0.5260 0.0416
H32_2 H 0.0955 0.5822 0.0241
C47_2 C 0.05935(19) 0.55914(15) 0.0871(3)
C48_2 C 0.03306(11) 0.59340(11) 0.16278(18)
C49_2 C 0.01603(11) 0.62651(10) 0.20580(18)
C50_2 C 0.01714(18) 0.67770(13) 0.2048(3)
H34_2 H 0.0290 0.6946 0.1748
N12_2 N 0.05102(12) 0.60402(10) 0.11181(17)
N13_2 N 0.04714(14) 0.52295(11) 0.1200(2)
N14_2 N 0.03072(10) 0.54450(9) 0.16770(16)
O8_2 O 0.12214(10) 0.81567(10) 0.04470(16)
C55_2 C 0.05292(10) 0.98692(12) 0.15494(13)
C56_2 C 0.06767(13) 0.96155(13) 0.21411(15)
H37_2 H 0.0720 0.9276 0.2148
C57_2 C 0.07583(14) 0.98842(13) 0.27259(15)
H38_2 H 0.0860 0.9721 0.3129
C59_2 C 0.00412(10) 0.94182(12) 0.05489(15)
C60_2 C 0.07752(10) 0.94314(11) 0.06364(13)
C61_2 C 0.41787(12) 0.98154(16) 0.1606(2)
C62_2 C 0.37584(11) 0.95889(13) 0.11596(19)
C63_2 C 0.36676(14) 0.90991(17) 0.1217(3)
H42_2 H 0.3880 0.8903 0.1516
C64_2 C 0.32519(16) 0.88883(17) 0.0826(3)
H43_2 H 0.3183 0.8559 0.0876
C65_2 C 0.29549(11) 0.91800(14) 0.03737(19)
C66_2 C 0.30504(13) 0.96605(14) 0.0292(2)
C67_2 C 0.34590(13) 0.98646(14) 0.0696(2)
C70_2 C 0.20936(10) 0.90085(12) 0.00409(16)
C71_2 C 0.12824(10) 0.95055(13) 0.08326(14)
C72_2 C 0.15316(15) 0.9776(2) 0.1365(2)
H49_2 H 0.1387 0.9952 0.1628
C73_2 C 0.20072(17) 0.9777(3) 0.1497(3)
H50_2 H 0.2186 0.9950 0.1860
C74_2 C 0.22173(15) 0.9519(2) 0.1085(2)
H51_2 H 0.2535 0.9512 0.1174
C75_2 C 0.19418(11) 0.92760(14) 0.05476(15)
N15_2 N 0.04541(8) 0.95996(9) 0.09321(11)
N16_2 N 0.00999(8) 0.91658(10) 0.00470(12)
N17_2 N 0.05630(8) 0.91728(9) 0.01022(11)
N21_2 N 0.14811(8) 0.92684(9) 0.04263(10)
H27_2 H 0.0207 0.7271 0.9656
H33_2 H 0.0570 0.5440 0.9911
O7_2 O 0.07029(12) 0.80169(10) 0.95179(15)
H44_2 H 0.2848 0.9852 0.9972
C68_2 C 0.28778(15) 0.8516(2) 0.9161(3)
H46_2 H 0.3021 0.8800 0.9035
H47_2 H 0.2765 0.8305 0.8784
H48_2 H 0.3098 0.8340 0.9503
C69_2 C 0.24812(13) 0.86783(15) 0.9416(2)
Cd3_2 Cd 0.102264(7) 0.878252(7) 0.951396(9)
N18_2 N 0.25293(9) 0.89597(11) 0.99700(16)
N19_2 N 0.20404(10) 0.85451(12) 0.91547(16)
N20_2 N 0.18025(8) 0.87597(10) 0.95581(14)
O13_2 O 0.06983(8) 0.88777(9) 0.83690(11)
O15_2 O 0.09869(9) 0.95557(9) 0.88953(11)
C1_2 C 0.92024(10) 0.06701(14) 0.16257(15)
C2_2 C 0.93087(9) 0.03876(12) 0.22793(13)
C3_2 C 0.94691(13) 0.06261(13) 0.28730(15)
H1_2 H 0.9525 0.0964 0.2883
C4_2 C 0.95487(13) 0.03635(13) 0.34606(16)
H2_2 H 0.9656 0.0527 0.3864
H11_2 H 0.6475 0.0195 0.4355
O1_2 O 0.93017(8) 0.11223(9) 0.16310(11)
O2_2 O 0.90131(9) 0.04443(9) 0.11047(11)
Cd5_2 Cd 0.897736(7) 0.121748(7) 0.048604(9)
C5_2 C 0.94708(10) 0.98692(12) 0.34506(13)
C6_2 C 0.93233(13) 0.96155(13) 0.28589(15)
H3_2 H 0.9280 0.9276 0.2852
C7_2 C 0.92417(14) 0.98842(13) 0.22741(15)
H4_2 H 0.9140 0.9721 0.1871
C9_2 C 0.99588(10) 0.94182(12) 0.44511(15)
C10_2 C 0.92248(10) 0.94314(11) 0.43636(13)
C11_2 C 0.58213(12) 0.98154(16) 0.3394(2)
C12_2 C 0.62416(11) 0.95889(13) 0.38404(19)
C13_2 C 0.63324(14) 0.90991(17) 0.3783(3)
H8_2 H 0.6120 0.8903 0.3484
C14_2 C 0.67481(16) 0.88883(17) 0.4174(3)
H9_2 H 0.6817 0.8559 0.4124
C15_2 C 0.70451(11) 0.91800(14) 0.46263(19)
C16_2 C 0.69496(13) 0.96605(14) 0.4708(2)
H10_2 H 0.7152 0.9852 0.5028
C17_2 C 0.65410(13) 0.98646(14) 0.4304(2)
C18_2 C 0.71222(15) 0.8516(2) 0.5839(3)
H12_2 H 0.6979 0.8800 0.5965
H13_2 H 0.7235 0.8305 0.6216
H14_2 H 0.6902 0.8340 0.5497
C19_2 C 0.75188(13) 0.86783(15) 0.5584(2)
C20_2 C 0.79064(10) 0.90085(12) 0.49591(16)
C21_2 C 0.87176(10) 0.95055(13) 0.41674(14)
C22_2 C 0.84684(15) 0.9776(2) 0.3635(2)
H15_2 H 0.8613 0.9952 0.3372
C23_2 C 0.79928(17) 0.9777(3) 0.3503(3)
H16_2 H 0.7814 0.9950 0.3140
C24_2 C 0.77827(15) 0.9519(2) 0.3915(2)
H17_2 H 0.7465 0.9512 0.3826
C25_2 C 0.80582(11) 0.92760(14) 0.44524(15)
C26_2 C 0.90728(15) 0.78862(14) 0.4903(2)
C27_2 C 0.91963(13) 0.74003(12) 0.46499(19)
C28_2 C 0.95927(18) 0.71452(16) 0.4959(2)
H18_2 H 0.9793 0.7271 0.5344
C29_2 C 0.96961(18) 0.67034(16) 0.4702(3)
H19_2 H 0.9966 0.6537 0.4909
C30_2 C 0.93943(14) 0.65140(12) 0.4138(2)
C31_2 C 0.90026(14) 0.67599(14) 0.3822(2)
H20_2 H 0.8804 0.6628 0.3439
C32_2 C 0.88995(13) 0.72048(13) 0.4068(2)
H21_2 H 0.8634 0.7374 0.3848
C33_2 C 0.9194(3) 0.55219(19) 0.4692(3)
H22_2 H 0.8972 0.5260 0.4584
H23_2 H 0.9045 0.5822 0.4759
H24_2 H 0.9430 0.5440 0.5089
C34_2 C 0.94065(19) 0.55914(15) 0.4129(3)
C35_2 C 0.96694(11) 0.59340(11) 0.33722(18)
C36_2 C 0.98397(11) 0.62651(10) 0.29420(18)
C37_2 C 0.98286(18) 0.67770(13) 0.2952(3)
H25_2 H 0.9710 0.6946 0.3252
C38_3 C 1.0000 0.70282(19) 0.2500
H26_3 H 1.0000 0.7371 0.2500
Cd1_2 Cd 0.897736(7) 0.878252(7) 0.548604(9)
N1_2 N 0.95459(8) 0.95996(9) 0.40679(11)
N2_2 N 0.99001(8) 0.91658(10) 0.49530(12)
N3_2 N 0.94370(8) 0.91728(9) 0.48978(11)
N4_2 N 0.74707(9) 0.89597(11) 0.50300(16)
N5_2 N 0.79596(10) 0.85451(12) 0.58453(16)
N6_2 N 0.81975(8) 0.87597(10) 0.54419(14)
N7_2 N 0.85189(8) 0.92684(9) 0.45737(10)
N8_2 N 0.94898(12) 0.60402(10) 0.38819(17)
N9_2 N 0.95286(14) 0.52295(11) 0.3800(2)
N10_2 N 0.96928(10) 0.54450(9) 0.33230(16)
N11_3 N 1.0000 0.60228(11) 0.2500
O5_2 O 0.92971(12) 0.80169(10) 0.54821(15)
O6_2 O 0.87786(10) 0.81567(10) 0.45530(16)
C58_2 C 0.95876(12) 0.94982(17) 0.0690(2)
H39_2 H 0.9342 0.9433 0.0297
H40_2 H 0.9568 0.9833 0.0827
H41_2 H 0.9563 0.9279 0.1037
O14_2 O 0.93017(8) 0.88777(9) 0.66310(11)
O16_2 O 0.90131(9) 0.95557(9) 0.61047(11)
Cd6 Cd 0.0000 0.486679(10) 0.7500
O17_2 O 0.44791(9) 0.04607(10) 0.69689(17)
O18_2 O 0.55209(9) 0.04607(10) 0.80311(17)
H27_3 H 0.4793 0.7729 0.0344
H33_3 H 0.4430 0.9560 0.0089
O7_3 O 0.42971(12) 0.69831(10) 0.04821(15)
H44_3 H 0.2152 0.5148 0.0028
C68_3 C 0.21222(15) 0.6484(2) 0.0839(3)
H46_3 H 0.1979 0.6200 0.0965
H47_3 H 0.2235 0.6695 0.1216
H48_3 H 0.1902 0.6660 0.0497
C69_3 C 0.25188(13) 0.63217(15) 0.0584(2)
N18_3 N 0.24707(9) 0.60403(11) 0.00300(16)
N19_3 N 0.29596(10) 0.64549(12) 0.08453(16)
N20_3 N 0.31975(8) 0.62403(10) 0.04419(14)
C1_3 C 0.57976(10) 0.43299(14) 0.83743(15)
C2_3 C 0.56913(9) 0.46124(12) 0.77207(13)
C3_3 C 0.55309(13) 0.43739(13) 0.71270(15)
H1_3 H 0.5475 0.4036 0.7117
C4_3 C 0.54513(13) 0.46365(13) 0.65394(16)
H2_3 H 0.5344 0.4473 0.6136
C5_3 C 0.55292(10) 0.51308(12) 0.65494(13)
C6_3 C 0.56767(13) 0.53845(13) 0.71411(15)
H3_3 H 0.5720 0.5724 0.7148
C7_3 C 0.57583(14) 0.51158(13) 0.77259(15)
H4_3 H 0.5860 0.5279 0.8129
C8_3 C 0.45876(12) 0.55018(17) 0.5690(2)
H5_3 H 0.4342 0.5567 0.5297
H6_3 H 0.4568 0.5167 0.5827
H7_3 H 0.4563 0.5721 0.6037
C9_3 C 0.50412(10) 0.55818(12) 0.55489(15)
C10_3 C 0.57752(10) 0.55686(11) 0.56364(13)
C11_3 C 0.91787(12) 0.51846(16) 0.6606(2)
C12_3 C 0.87584(11) 0.54111(13) 0.61596(19)
C13_3 C 0.86676(14) 0.59009(17) 0.6217(3)
H8_3 H 0.8880 0.6097 0.6516
C14_3 C 0.82519(16) 0.61117(17) 0.5826(3)
H9_3 H 0.8183 0.6441 0.5876
C15_3 C 0.79549(11) 0.58200(14) 0.53737(19)
C16_3 C 0.80504(13) 0.53395(14) 0.5292(2)
H10_3 H 0.7848 0.5148 0.4972
C17_3 C 0.84590(13) 0.51354(14) 0.5696(2)
H11_3 H 0.8525 0.4805 0.5645
C18_3 C 0.78778(15) 0.6484(2) 0.4161(3)
H12_3 H 0.8021 0.6200 0.4035
H13_3 H 0.7765 0.6695 0.3784
H14_3 H 0.8098 0.6660 0.4503
C19_3 C 0.74812(13) 0.63217(15) 0.4416(2)
C20_3 C 0.70936(10) 0.59915(12) 0.50409(16)
C21_3 C 0.62824(10) 0.54945(13) 0.58326(14)
C22_3 C 0.65316(15) 0.5224(2) 0.6365(2)
H15_3 H 0.6387 0.5048 0.6628
C23_3 C 0.70072(17) 0.5223(3) 0.6497(3)
H16_3 H 0.7186 0.5050 0.6860
C24_3 C 0.72173(15) 0.5481(2) 0.6085(2)
H17_3 H 0.7535 0.5488 0.6174
C25_3 C 0.69418(11) 0.57240(14) 0.55476(15)
C26_3 C 0.59272(15) 0.71138(14) 0.5097(2)
C27_3 C 0.58037(13) 0.75997(12) 0.53501(19)
C28_3 C 0.54073(18) 0.78548(16) 0.5041(2)
H18_3 H 0.5207 0.7729 0.4656
C29_3 C 0.53039(18) 0.82966(16) 0.5298(3)
H19_3 H 0.5034 0.8463 0.5091
C30_3 C 0.56057(14) 0.84860(12) 0.5862(2)
C31_3 C 0.59974(14) 0.82401(14) 0.6178(2)
H20_3 H 0.6196 0.8372 0.6561
C32_3 C 0.61005(13) 0.77952(13) 0.5932(2)
H21_3 H 0.6366 0.7626 0.6152
C33_3 C 0.5806(3) 0.94781(19) 0.5308(3)
H22_3 H 0.6028 0.9740 0.5416
H23_3 H 0.5955 0.9178 0.5241
H24_3 H 0.5570 0.9560 0.4911
C34_3 C 0.55935(19) 0.94086(15) 0.5871(3)
C35_3 C 0.53306(11) 0.90660(11) 0.66278(18)
C36_3 C 0.51603(11) 0.87349(10) 0.70580(18)
C37_3 C 0.51714(18) 0.82230(13) 0.7048(3)
H25_3 H 0.5290 0.8054 0.6748
C38_4 C 0.5000 0.79718(19) 0.7500
H26_4 H 0.5000 0.7629 0.7500
Cd2_2 Cd 0.5000 0.986679(10) 0.7500
N1_3 N 0.54541(8) 0.54004(9) 0.59321(11)
N2_3 N 0.50999(8) 0.58342(10) 0.50470(12)
N3_3 N 0.55630(8) 0.58272(9) 0.51022(11)
N4_3 N 0.75293(9) 0.60403(11) 0.49700(16)
N5_3 N 0.70404(10) 0.64549(12) 0.41547(16)
N6_3 N 0.68025(8) 0.62403(10) 0.45581(14)
N7_3 N 0.64811(8) 0.57316(9) 0.54263(10)
N8_3 N 0.55102(12) 0.89598(10) 0.61181(17)
N9_3 N 0.54714(14) 0.97705(11) 0.6200(2)
N10_3 N 0.53072(10) 0.95550(9) 0.66770(16)
N11_4 N 0.5000 0.89772(11) 0.7500
O3_2 O 0.94791(9) 0.54607(10) 0.69689(17)
O4_2 O 0.92353(10) 0.47290(11) 0.66239(17)
O5_3 O 0.57029(12) 0.69831(10) 0.45179(15)
O6_3 O 0.62214(10) 0.68433(10) 0.54470(16)
C39_3 C 0.40728(15) 0.71138(14) 0.9903(2)
C40_3 C 0.41963(13) 0.75997(12) 0.96499(19)
C41_3 C 0.45927(18) 0.78548(16) 0.9959(2)
C42_3 C 0.46961(18) 0.82966(16) 0.9702(3)
H28_3 H 0.4966 0.8463 0.9909
C43_3 C 0.43943(14) 0.84860(12) 0.9138(2)
C44_3 C 0.40026(14) 0.82401(14) 0.8822(2)
H29_3 H 0.3804 0.8372 0.8439
C45_3 C 0.38995(13) 0.77952(13) 0.9068(2)
H30_3 H 0.3634 0.7626 0.8848
C46_3 C 0.4194(3) 0.94781(19) 0.9692(3)
H31_3 H 0.3972 0.9740 0.9584
H32_3 H 0.4045 0.9178 0.9759
C47_3 C 0.44065(19) 0.94086(15) 0.9129(3)
C48_3 C 0.46694(11) 0.90660(11) 0.83722(18)
C49_3 C 0.48397(11) 0.87349(10) 0.79420(18)
C50_3 C 0.48286(18) 0.82230(13) 0.7952(3)
H34_3 H 0.4710 0.8054 0.8252
N12_3 N 0.44898(12) 0.89598(10) 0.88819(17)
N13_3 N 0.45286(14) 0.97705(11) 0.8800(2)
N14_3 N 0.46928(10) 0.95550(9) 0.83230(16)
O8_3 O 0.37786(10) 0.68433(10) 0.95530(16)
C51_3 C 0.42024(10) 0.43299(14) 0.66257(15)
C52_3 C 0.43087(9) 0.46124(12) 0.72793(13)
C53_3 C 0.44691(13) 0.43739(13) 0.78730(15)
H35_3 H 0.4525 0.4036 0.7883
C54_3 C 0.45487(13) 0.46365(13) 0.84606(16)
H36_3 H 0.4656 0.4473 0.8864
C55_3 C 0.44708(10) 0.51308(12) 0.84506(13)
C56_3 C 0.43233(13) 0.53845(13) 0.78589(15)
H37_3 H 0.4280 0.5724 0.7852
C57_3 C 0.42417(14) 0.51158(13) 0.72741(15)
H38_3 H 0.4140 0.5279 0.6871
C58_3 C 0.54124(12) 0.55018(17) 0.9310(2)
H39_3 H 0.5658 0.5567 0.9703
H40_3 H 0.5432 0.5167 0.9173
H41_3 H 0.5437 0.5721 0.8963
C59_3 C 0.49588(10) 0.55818(12) 0.94511(15)
C60_3 C 0.42248(10) 0.55686(11) 0.93636(13)
C61_3 C 0.08213(12) 0.51846(16) 0.8394(2)
C62_3 C 0.12416(11) 0.54111(13) 0.88404(19)
C63_3 C 0.13324(14) 0.59009(17) 0.8783(3)
H42_3 H 0.1120 0.6097 0.8484
C64_3 C 0.17481(16) 0.61117(17) 0.9174(3)
H43_3 H 0.1817 0.6441 0.9124
C65_3 C 0.20451(11) 0.58200(14) 0.96263(19)
C66_3 C 0.19496(13) 0.53395(14) 0.9708(2)
C67_3 C 0.15410(13) 0.51354(14) 0.9304(2)
H45_3 H 0.1475 0.4805 0.9355
C70_3 C 0.29064(10) 0.59915(12) 0.99591(16)
C71_3 C 0.37176(10) 0.54945(13) 0.91674(14)
C72_3 C 0.34684(15) 0.5224(2) 0.8635(2)
H49_3 H 0.3613 0.5048 0.8372
C73_3 C 0.29928(17) 0.5223(3) 0.8503(3)
H50_3 H 0.2814 0.5050 0.8140
C74_3 C 0.27827(15) 0.5481(2) 0.8915(2)
H51_3 H 0.2465 0.5488 0.8826
C75_3 C 0.30582(11) 0.57240(14) 0.94524(15)
N15_3 N 0.45459(8) 0.54004(9) 0.90679(11)
N16_3 N 0.49001(8) 0.58342(10) 0.99530(12)
N17_3 N 0.44370(8) 0.58272(9) 0.98978(11)
N21_3 N 0.35189(8) 0.57316(9) 0.95737(10)
O11_2 O 0.05209(9) 0.54607(10) 0.80311(17)
O12_2 O 0.07647(10) 0.47290(11) 0.83761(17)
Cd6_2 Cd 1.0000 0.486679(10) 0.7500
O19_2 O 0.42353(10) 0.97290(11) 0.66239(17)
O20_2 O 0.57647(10) 0.97290(11) 0.83761(17)
C5_4 C 0.05292(10) 0.01308(12) 0.65494(13)
C6_4 C 0.06767(13) 0.03845(13) 0.71411(15)
H3_4 H 0.0720 0.0724 0.7148
C7_4 C 0.07583(14) 0.01158(13) 0.77259(15)
H4_4 H 0.0860 0.0279 0.8129
C9_4 C 0.00412(10) 0.05818(12) 0.55489(15)
C10_4 C 0.07752(10) 0.05686(11) 0.56364(13)
C11_4 C 0.41787(12) 0.01846(16) 0.6606(2)
C12_4 C 0.37584(11) 0.04111(13) 0.61596(19)
C13_4 C 0.36676(14) 0.09009(17) 0.6217(3)
H8_4 H 0.3880 0.1097 0.6516
C14_4 C 0.32519(16) 0.11117(17) 0.5826(3)
H9_4 H 0.3183 0.1441 0.5876
C15_4 C 0.29549(11) 0.08200(14) 0.53737(19)
C16_4 C 0.30504(13) 0.03395(14) 0.5292(2)
H10_4 H 0.2848 0.0148 0.4972
C17_4 C 0.34590(13) 0.01354(14) 0.5696(2)
C18_4 C 0.28778(15) 0.1484(2) 0.4161(3)
H12_4 H 0.3021 0.1200 0.4035
H13_4 H 0.2765 0.1695 0.3784
H14_4 H 0.3098 0.1660 0.4503
C19_4 C 0.24812(13) 0.13217(15) 0.4416(2)
C20_4 C 0.20936(10) 0.09915(12) 0.50409(16)
C21_4 C 0.12824(10) 0.04945(13) 0.58326(14)
C22_4 C 0.15316(15) 0.0224(2) 0.6365(2)
H15_4 H 0.1387 0.0048 0.6628
C23_4 C 0.20072(17) 0.0223(3) 0.6497(3)
H16_4 H 0.2186 0.0050 0.6860
C24_4 C 0.22173(15) 0.0481(2) 0.6085(2)
H17_4 H 0.2535 0.0488 0.6174
C25_4 C 0.19418(11) 0.07240(14) 0.55476(15)
C26_4 C 0.09272(15) 0.21138(14) 0.5097(2)
C27_4 C 0.08037(13) 0.25997(12) 0.53501(19)
C28_4 C 0.04073(18) 0.28548(16) 0.5041(2)
H18_4 H 0.0207 0.2729 0.4656
C29_4 C 0.03039(18) 0.32966(16) 0.5298(3)
H19_4 H 0.0034 0.3463 0.5091
C30_4 C 0.06057(14) 0.34860(12) 0.5862(2)
C31_4 C 0.09974(14) 0.32401(14) 0.6178(2)
H20_4 H 0.1196 0.3372 0.6561
C32_4 C 0.11005(13) 0.27952(13) 0.5932(2)
H21_4 H 0.1366 0.2626 0.6152
C33_4 C 0.0806(3) 0.44781(19) 0.5308(3)
H22_4 H 0.1028 0.4740 0.5416
H23_4 H 0.0955 0.4178 0.5241
H24_4 H 0.0570 0.4560 0.4911
C34_4 C 0.05935(19) 0.44086(15) 0.5871(3)
C35_4 C 0.03306(11) 0.40660(11) 0.66278(18)
C36_4 C 0.01603(11) 0.37349(10) 0.70580(18)
C37_4 C 0.01714(18) 0.32230(13) 0.7048(3)
H25_4 H 0.0290 0.3054 0.6748
C38_5 C 0.0000 0.29718(19) 0.7500
H26_5 H 0.0000 0.2629 0.7500
N1_4 N 0.04541(8) 0.04004(9) 0.59321(11)
N2_4 N 0.00999(8) 0.08342(10) 0.50470(12)
N3_4 N 0.05630(8) 0.08272(9) 0.51022(11)
N4_4 N 0.25293(9) 0.10403(11) 0.49700(16)
N5_4 N 0.20404(10) 0.14549(12) 0.41547(16)
N6_4 N 0.18025(8) 0.12403(10) 0.45581(14)
N7_4 N 0.14811(8) 0.07316(9) 0.54263(10)
N8_4 N 0.05102(12) 0.39598(10) 0.61181(17)
N9_4 N 0.04714(14) 0.47705(11) 0.6200(2)
N10_4 N 0.03072(10) 0.45550(9) 0.66770(16)
N11_5 N 0.0000 0.39772(11) 0.7500
O5_4 O 0.07029(12) 0.19831(10) 0.45179(15)
O6_4 O 0.12214(10) 0.18433(10) 0.54470(16)
C58_4 C 0.04124(12) 0.05018(17) 0.9310(2)
H39_4 H 0.0658 0.0567 0.9703
H40_4 H 0.0432 0.0167 0.9173
H41_4 H 0.0437 0.0721 0.8963
C1_4 C 0.07976(10) 0.93299(14) 0.83743(15)
C2_4 C 0.06913(9) 0.96124(12) 0.77207(13)
C3_4 C 0.05309(13) 0.93739(13) 0.71270(15)
H1_4 H 0.0475 0.9036 0.7117
C4_4 C 0.04513(13) 0.96365(13) 0.65394(16)
H2_4 H 0.0344 0.9473 0.6136
H11_4 H 0.3525 0.9805 0.5645
H27_4 H 0.9793 0.2729 0.0344
H33_4 H 0.9430 0.4560 0.0089
O7_4 O 0.92971(12) 0.19831(10) 0.04821(15)
H44_4 H 0.7152 0.0148 0.0028
C68_4 C 0.71222(15) 0.1484(2) 0.0839(3)
H46_4 H 0.6979 0.1200 0.0965
H47_4 H 0.7235 0.1695 0.1216
H48_4 H 0.6902 0.1660 0.0497
C69_4 C 0.75188(13) 0.13217(15) 0.0584(2)
N18_4 N 0.74707(9) 0.10403(11) 0.00300(16)
N19_4 N 0.79596(10) 0.14549(12) 0.08453(16)
N20_4 N 0.81975(8) 0.12403(10) 0.04419(14)
C8_4 C 0.95876(12) 0.05018(17) 0.5690(2)
H5_4 H 0.9342 0.0567 0.5297
H6_4 H 0.9568 0.0167 0.5827
H7_4 H 0.9563 0.0721 0.6037
C38_6 C 1.0000 0.29718(19) 0.7500
H26_6 H 1.0000 0.2629 0.7500
N11_6 N 1.0000 0.39772(11) 0.7500
C39_4 C 0.90728(15) 0.21138(14) 0.9903(2)
C40_4 C 0.91963(13) 0.25997(12) 0.96499(19)
C41_4 C 0.95927(18) 0.28548(16) 0.9959(2)
C42_4 C 0.96961(18) 0.32966(16) 0.9702(3)
H28_4 H 0.9966 0.3463 0.9909
C43_4 C 0.93943(14) 0.34860(12) 0.9138(2)
C44_4 C 0.90026(14) 0.32401(14) 0.8822(2)
H29_4 H 0.8804 0.3372 0.8439
C45_4 C 0.88995(13) 0.27952(13) 0.9068(2)
H30_4 H 0.8634 0.2626 0.8848
C46_4 C 0.9194(3) 0.44781(19) 0.9692(3)
H31_4 H 0.8972 0.4740 0.9584
H32_4 H 0.9045 0.4178 0.9759
C47_4 C 0.94065(19) 0.44086(15) 0.9129(3)
C48_4 C 0.96694(11) 0.40660(11) 0.83722(18)
C49_4 C 0.98397(11) 0.37349(10) 0.79420(18)
C50_4 C 0.98286(18) 0.32230(13) 0.7952(3)
H34_4 H 0.9710 0.3054 0.8252
N12_4 N 0.94898(12) 0.39598(10) 0.88819(17)
N13_4 N 0.95286(14) 0.47705(11) 0.8800(2)
N14_4 N 0.96928(10) 0.45550(9) 0.83230(16)
O8_4 O 0.87786(10) 0.18433(10) 0.95530(16)
C55_4 C 0.94708(10) 0.01308(12) 0.84506(13)
C56_4 C 0.93233(13) 0.03845(13) 0.78589(15)
H37_4 H 0.9280 0.0724 0.7852
C57_4 C 0.92417(14) 0.01158(13) 0.72741(15)
H38_4 H 0.9140 0.0279 0.6871
C59_4 C 0.99588(10) 0.05818(12) 0.94511(15)
C60_4 C 0.92248(10) 0.05686(11) 0.93636(13)
C61_4 C 0.58213(12) 0.01846(16) 0.8394(2)
C62_4 C 0.62416(11) 0.04111(13) 0.88404(19)
C63_4 C 0.63324(14) 0.09009(17) 0.8783(3)
H42_4 H 0.6120 0.1097 0.8484
C64_4 C 0.67481(16) 0.11117(17) 0.9174(3)
H43_4 H 0.6817 0.1441 0.9124
C65_4 C 0.70451(11) 0.08200(14) 0.96263(19)
C66_4 C 0.69496(13) 0.03395(14) 0.9708(2)
C67_4 C 0.65410(13) 0.01354(14) 0.9304(2)
C70_4 C 0.79064(10) 0.09915(12) 0.99591(16)
C71_4 C 0.87176(10) 0.04945(13) 0.91674(14)
C72_4 C 0.84684(15) 0.0224(2) 0.8635(2)
H49_4 H 0.8613 0.0048 0.8372
C73_4 C 0.79928(17) 0.0223(3) 0.8503(3)
H50_4 H 0.7814 0.0050 0.8140
C74_4 C 0.77827(15) 0.0481(2) 0.8915(2)
H51_4 H 0.7465 0.0488 0.8826
C75_4 C 0.80582(11) 0.07240(14) 0.94524(15)
N15_4 N 0.95459(8) 0.04004(9) 0.90679(11)
N16_4 N 0.99001(8) 0.08342(10) 0.99530(12)
N17_4 N 0.94370(8) 0.08272(9) 0.98978(11)
N21_4 N 0.85189(8) 0.07316(9) 0.95737(10)
C51_4 C 0.92024(10) 0.93299(14) 0.66257(15)
C52_4 C 0.93087(9) 0.96124(12) 0.72793(13)
C53_4 C 0.94691(13) 0.93739(13) 0.78730(15)
H35_4 H 0.9525 0.9036 0.7883
C54_4 C 0.95487(13) 0.96365(13) 0.84606(16)
H36_4 H 0.9656 0.9473 0.8864
H45_4 H 0.6475 0.9805 0.9355
loop_
_geom_bond_atom_site_label_1
_geom_bond_atom_site_label_2
_geom_bond_site_symmetry_1
_geom_bond_site_symmetry_2
C1 C2 1_555 1_555
C2 C3 1_555 1_555
C3 H1 1_555 1_555
C4 C3 1_555 1_555
H2 C4 1_555 1_555
C5 C4 1_555 1_555
C6 C5 1_555 1_555
H3 C6 1_555 1_555
C7 C2 1_555 1_555
H4 C7 1_555 1_555
C8 H5 1_555 1_555
H6 C8 1_555 1_555
H7 C8 1_555 1_555
C9 C8 1_555 1_555
C10 C21 1_555 1_555
C11 C12 1_555 1_555
C12 C13 1_555 1_555
C13 H8 1_555 1_555
C14 C13 1_555 1_555
H9 C14 1_555 1_555
C15 C14 1_555 1_555
C16 C15 1_555 1_555
H10 C16 1_555 1_555
C17 C12 1_555 1_555
H11 C17 1_555 1_555
C18 H12 1_555 1_555
H13 C18 1_555 1_555
H14 C18 1_555 1_555
C19 C18 1_555 1_555
C20 C25 1_555 1_555
C21 C22 1_555 1_555
C22 H15 1_555 1_555
C23 C22 1_555 1_555
H16 C23 1_555 1_555
C24 C23 1_555 1_555
H17 C24 1_555 1_555
C25 C24 1_555 1_555
C26 C27 1_555 1_555
C27 C28 1_555 1_555
C28 H18 1_555 1_555
C29 C28 1_555 1_555
H19 C29 1_555 1_555
C30 C29 1_555 1_555
C31 C30 1_555 1_555
H20 C31 1_555 1_555
C32 C27 1_555 1_555
H21 C32 1_555 1_555
C33 H22 1_555 1_555
H23 C33 1_555 1_555
H24 C33 1_555 1_555
C34 C33 1_555 1_555
C35 C36 1_555 1_555
C36 C37 1_555 1_555
C37 H25 1_555 1_555
C38 C37 1_555 1_555
H26 C38 1_555 1_555
Cd1 N3 1_555 1_555
Cd2 N10 1_555 1_555
N1 C5 1_555 1_555
N2 C9 1_555 1_555
N3 C10 1_555 1_555
N4 C15 1_555 1_555
N5 C19 1_555 1_555
N6 C20 1_555 1_555
N7 C21 1_555 1_555
N8 C30 1_555 1_555
N9 C34 1_555 1_555
N10 C35 1_555 1_555
N11 C36 1_555 1_555
O1 C1 1_555 1_555
O2 C1 1_555 1_555
O3 C11 1_555 1_555
O4 C11 1_555 1_555
O5 C26 1_555 1_555
O6 C26 1_555 1_555
C39 C40 1_555 1_555
C40 C41 1_555 1_555
C42 C41 1_555 1_555
H28 C42 1_555 1_555
C43 C42 1_555 1_555
C44 C43 1_555 1_555
H29 C44 1_555 1_555
C45 C40 1_555 1_555
H30 C45 1_555 1_555
C46 H31 1_555 1_555
H32 C46 1_555 1_555
C47 C46 1_555 1_555
C48 C49 1_555 1_555
C49 N11 1_555 1_555
C50 C38 1_555 1_555
H34 C50 1_555 1_555
N12 C43 1_555 1_555
N13 C47 1_555 1_555
N14 Cd2 1_555 1_555
O8 C39 1_555 1_555
C51 C52 1_555 1_555
C52 C53 1_555 1_555
C53 H35 1_555 1_555
C54 C53 1_555 1_555
H36 C54 1_555 1_555
C55 C54 1_555 1_555
C56 C55 1_555 1_555
H37 C56 1_555 1_555
C57 C52 1_555 1_555
H38 C57 1_555 1_555
C58 H39 1_555 1_555
H40 C58 1_555 1_555
H41 C58 1_555 1_555
C59 C58 1_555 1_555
C60 C71 1_555 1_555
C61 C62 1_555 1_555
C62 C63 1_555 1_555
C63 H42 1_555 1_555
C64 C63 1_555 1_555
H43 C64 1_555 1_555
C65 C64 1_555 1_555
C66 C65 1_555 1_555
C67 C62 1_555 1_555
H45 C67 1_555 1_555
C70 C75 1_555 1_555
C71 C72 1_555 1_555
C72 H49 1_555 1_555
C73 C72 1_555 1_555
H50 C73 1_555 1_555
C74 C73 1_555 1_555
H51 C74 1_555 1_555
C75 C74 1_555 1_555
N15 C55 1_555 1_555
N16 C59 1_555 1_555
N17 C60 1_555 1_555
N21 C71 1_555 1_555
O9 C51 1_555 1_555
O10 C51 1_555 1_555
O11 C61 1_555 1_555
O12 C61 1_555 1_555
Cd4 O9 1_555 1_555
Cd5 O1 1_555 1_555
Cd7 O3 1_555 1_555
Cd7_2 O11 1_555 1_555
O14 Cd1 1_555 1_555
O16 Cd1 1_555 1_555
O19 Cd2 1_555 1_555
O20 Cd2 1_555 1_555
C6 C7 1_555 1_555
C9 N1 1_555 1_555
C10 N1 1_555 1_555
C16 C17 1_555 1_555
C19 N4 1_555 1_555
C20 N4 1_555 1_555
C25 N7 1_555 1_555
C31 C32 1_555 1_555
C34 N8 1_555 1_555
C35 N8 1_555 1_555
Cd1 N6 1_555 1_555
Cd1 N7 1_555 1_555
Cd1 O5 1_555 1_555
Cd1 O6 1_555 1_555
Cd2 N11 1_555 1_555
N2 N3 1_555 1_555
N5 N6 1_555 1_555
N9 N10 1_555 1_555
O2 Cd5 1_555 1_555
O4 Cd7 1_555 1_555
C44 C45 1_555 1_555
C47 N12 1_555 1_555
C48 N12 1_555 1_555
C48 N14 1_555 1_555
C49 C50 1_555 1_555
N13 N14 1_555 1_555
C56 C57 1_555 1_555
C59 N15 1_555 1_555
C60 N15 1_555 1_555
C66 C67 1_555 1_555
C75 N21 1_555 1_555
N16 N17 1_555 1_555
O10 Cd4 1_555 1_555
O12 Cd7_2 1_555 1_555
C68 H46 1_555 1_555
H47 C68 1_555 1_555
H48 C68 1_555 1_555
C69 C68 1_555 1_555
Cd3 O7 1_555 1_555
N19 C69 1_555 1_555
O13 Cd3 1_555 1_555
O15 Cd3 1_555 1_555
C69 N18 1_555 1_555
Cd3 N20 1_555 1_555
N19 N20 1_555 1_555
C51_2 C52_2 1_555 1_555
C52_2 C53_2 1_555 1_555
C53_2 H35_2 1_555 1_555
C54_2 C53_2 1_555 1_555
H36_2 C54_2 1_555 1_555
O9_2 C51_2 1_555 1_555
O10_2 C51_2 1_555 1_555
Cd4_2 O9_2 1_555 1_555
O10_2 Cd4_2 1_555 1_555
C8_2 H5_2 1_555 1_555
H6_2 C8_2 1_555 1_555
H7_2 C8_2 1_555 1_555
H26_2 C38_2 1_555 1_555
C39_2 C40_2 1_555 1_555
C40_2 C41_2 1_555 1_555
C42_2 C41_2 1_555 1_555
H28_2 C42_2 1_555 1_555
C43_2 C42_2 1_555 1_555
C44_2 C43_2 1_555 1_555
H29_2 C44_2 1_555 1_555
C45_2 C40_2 1_555 1_555
H30_2 C45_2 1_555 1_555
C46_2 H31_2 1_555 1_555
H32_2 C46_2 1_555 1_555
C47_2 C46_2 1_555 1_555
C48_2 C49_2 1_555 1_555
C49_2 N11_2 1_555 1_555
C50_2 C38_2 1_555 1_555
H34_2 C50_2 1_555 1_555
N12_2 C43_2 1_555 1_555
N13_2 C47_2 1_555 1_555
N14_2 Cd7 1_555 1_555
O8_2 C39_2 1_555 1_555
C56_2 C55_2 1_555 1_555
H37_2 C56_2 1_555 1_555
H38_2 C57_2 1_555 1_555
C60_2 C71_2 1_555 1_555
C61_2 C62_2 1_555 1_555
C62_2 C63_2 1_555 1_555
C63_2 H42_2 1_555 1_555
C64_2 C63_2 1_555 1_555
H43_2 C64_2 1_555 1_555
C65_2 C64_2 1_555 1_555
C66_2 C65_2 1_555 1_555
C67_2 C62_2 1_555 1_555
C70_2 C75_2 1_555 1_555
C71_2 C72_2 1_555 1_555
C72_2 H49_2 1_555 1_555
C73_2 C72_2 1_555 1_555
H50_2 C73_2 1_555 1_555
C74_2 C73_2 1_555 1_555
H51_2 C74_2 1_555 1_555
C75_2 C74_2 1_555 1_555
N15_2 C55_2 1_555 1_555
N16_2 C59_2 1_555 1_555
N17_2 C60_2 1_555 1_555
N21_2 C71_2 1_555 1_555
O18 C61_2 1_555 1_555
Cd7 N11_2 1_555 1_555
C44_2 C45_2 1_555 1_555
C47_2 N12_2 1_555 1_555
C48_2 N12_2 1_555 1_555
C48_2 N14_2 1_555 1_555
C49_2 C50_2 1_555 1_555
N13_2 N14_2 1_555 1_555
C56_2 C57_2 1_555 1_555
C59_2 N15_2 1_555 1_555
C60_2 N15_2 1_555 1_555
C66_2 C67_2 1_555 1_555
C75_2 N21_2 1_555 1_555
N16_2 N17_2 1_555 1_555
C68_2 H46_2 1_555 1_555
H47_2 C68_2 1_555 1_555
H48_2 C68_2 1_555 1_555
C69_2 C68_2 1_555 1_555
Cd3_2 O7_2 1_555 1_555
N19_2 C69_2 1_555 1_555
O13_2 Cd3_2 1_555 1_555
O15_2 Cd3_2 1_555 1_555
C69_2 N18_2 1_555 1_555
Cd3_2 N20_2 1_555 1_555
N19_2 N20_2 1_555 1_555
C1_2 C2_2 1_555 1_555
C2_2 C3_2 1_555 1_555
C3_2 H1_2 1_555 1_555
C4_2 C3_2 1_555 1_555
H2_2 C4_2 1_555 1_555
O1_2 C1_2 1_555 1_555
O2_2 C1_2 1_555 1_555
Cd5_2 O1_2 1_555 1_555
O2_2 Cd5_2 1_555 1_555
C6_2 C5_2 1_555 1_555
H3_2 C6_2 1_555 1_555
H4_2 C7_2 1_555 1_555
C10_2 C21_2 1_555 1_555
C11_2 C12_2 1_555 1_555
C12_2 C13_2 1_555 1_555
C13_2 H8_2 1_555 1_555
C14_2 C13_2 1_555 1_555
H9_2 C14_2 1_555 1_555
C15_2 C14_2 1_555 1_555
C16_2 C15_2 1_555 1_555
H10_2 C16_2 1_555 1_555
C17_2 C12_2 1_555 1_555
C18_2 H12_2 1_555 1_555
H13_2 C18_2 1_555 1_555
H14_2 C18_2 1_555 1_555
C19_2 C18_2 1_555 1_555
C20_2 C25_2 1_555 1_555
C21_2 C22_2 1_555 1_555
C22_2 H15_2 1_555 1_555
C23_2 C22_2 1_555 1_555
H16_2 C23_2 1_555 1_555
C24_2 C23_2 1_555 1_555
H17_2 C24_2 1_555 1_555
C25_2 C24_2 1_555 1_555
C26_2 C27_2 1_555 1_555
C27_2 C28_2 1_555 1_555
C28_2 H18_2 1_555 1_555
C29_2 C28_2 1_555 1_555
H19_2 C29_2 1_555 1_555
C30_2 C29_2 1_555 1_555
C31_2 C30_2 1_555 1_555
H20_2 C31_2 1_555 1_555
C32_2 C27_2 1_555 1_555
H21_2 C32_2 1_555 1_555
C33_2 H22_2 1_555 1_555
H23_2 C33_2 1_555 1_555
H24_2 C33_2 1_555 1_555
C34_2 C33_2 1_555 1_555
C35_2 C36_2 1_555 1_555
C36_2 C37_2 1_555 1_555
C37_2 H25_2 1_555 1_555
C38_3 C37_2 1_555 1_555
H26_3 C38_3 1_555 1_555
Cd1_2 N3_2 1_555 1_555
Cd7_2 N10_2 1_555 1_555
N1_2 C5_2 1_555 1_555
N2_2 C9_2 1_555 1_555
N3_2 C10_2 1_555 1_555
N4_2 C15_2 1_555 1_555
N5_2 C19_2 1_555 1_555
N6_2 C20_2 1_555 1_555
N7_2 C21_2 1_555 1_555
N8_2 C30_2 1_555 1_555
N9_2 C34_2 1_555 1_555
N10_2 C35_2 1_555 1_555
N11_3 C36_2 1_555 1_555
O17 C11_2 1_555 1_555
O5_2 C26_2 1_555 1_555
O6_2 C26_2 1_555 1_555
C58_2 H39_2 1_555 1_555
H40_2 C58_2 1_555 1_555
H41_2 C58_2 1_555 1_555
O14_2 Cd1_2 1_555 1_555
O16_2 Cd1_2 1_555 1_555
C6_2 C7_2 1_555 1_555
C9_2 N1_2 1_555 1_555
C10_2 N1_2 1_555 1_555
C16_2 C17_2 1_555 1_555
C19_2 N4_2 1_555 1_555
C20_2 N4_2 1_555 1_555
C25_2 N7_2 1_555 1_555
C31_2 C32_2 1_555 1_555
C34_2 N8_2 1_555 1_555
C35_2 N8_2 1_555 1_555
Cd1_2 N6_2 1_555 1_555
Cd1_2 N7_2 1_555 1_555
Cd1_2 O5_2 1_555 1_555
Cd1_2 O6_2 1_555 1_555
Cd7_2 N11_3 1_555 1_555
N2_2 N3_2 1_555 1_555
N5_2 N6_2 1_555 1_555
N9_2 N10_2 1_555 1_555
C68_3 H46_3 1_555 1_555
H47_3 C68_3 1_555 1_555
H48_3 C68_3 1_555 1_555
C69_3 C68_3 1_555 1_555
Cd5 O7_3 1_555 1_555
N19_3 C69_3 1_555 1_555
C69_3 N18_3 1_555 1_555
Cd5 N20_3 1_555 1_555
N19_3 N20_3 1_555 1_555
C1_3 C2_3 1_555 1_555
C2_3 C3_3 1_555 1_555
C3_3 H1_3 1_555 1_555
C4_3 C3_3 1_555 1_555
H2_3 C4_3 1_555 1_555
C5_3 C4_3 1_555 1_555
C6_3 C5_3 1_555 1_555
H3_3 C6_3 1_555 1_555
C7_3 C2_3 1_555 1_555
H4_3 C7_3 1_555 1_555
C8_3 H5_3 1_555 1_555
H6_3 C8_3 1_555 1_555
H7_3 C8_3 1_555 1_555
C9_3 C8_3 1_555 1_555
C10_3 C21_3 1_555 1_555
C11_3 C12_3 1_555 1_555
C12_3 C13_3 1_555 1_555
C13_3 H8_3 1_555 1_555
C14_3 C13_3 1_555 1_555
H9_3 C14_3 1_555 1_555
C15_3 C14_3 1_555 1_555
C16_3 C15_3 1_555 1_555
H10_3 C16_3 1_555 1_555
C17_3 C12_3 1_555 1_555
H11_3 C17_3 1_555 1_555
C18_3 H12_3 1_555 1_555
H13_3 C18_3 1_555 1_555
H14_3 C18_3 1_555 1_555
C19_3 C18_3 1_555 1_555
C20_3 C25_3 1_555 1_555
C21_3 C22_3 1_555 1_555
C22_3 H15_3 1_555 1_555
C23_3 C22_3 1_555 1_555
H16_3 C23_3 1_555 1_555
C24_3 C23_3 1_555 1_555
H17_3 C24_3 1_555 1_555
C25_3 C24_3 1_555 1_555
C26_3 C27_3 1_555 1_555
C27_3 C28_3 1_555 1_555
C28_3 H18_3 1_555 1_555
C29_3 C28_3 1_555 1_555
H19_3 C29_3 1_555 1_555
C30_3 C29_3 1_555 1_555
C31_3 C30_3 1_555 1_555
H20_3 C31_3 1_555 1_555
C32_3 C27_3 1_555 1_555
H21_3 C32_3 1_555 1_555
C33_3 H22_3 1_555 1_555
H23_3 C33_3 1_555 1_555
H24_3 C33_3 1_555 1_555
C34_3 C33_3 1_555 1_555
C35_3 C36_3 1_555 1_555
C36_3 C37_3 1_555 1_555
C37_3 H25_3 1_555 1_555
C38_4 C37_3 1_555 1_555
H26_4 C38_4 1_555 1_555
Cd4 N3_3 1_555 1_555
Cd2_2 N10_3 1_555 1_555
N1_3 C5_3 1_555 1_555
N2_3 C9_3 1_555 1_555
N3_3 C10_3 1_555 1_555
N4_3 C15_3 1_555 1_555
N5_3 C19_3 1_555 1_555
N6_3 C20_3 1_555 1_555
N7_3 C21_3 1_555 1_555
N8_3 C30_3 1_555 1_555
N9_3 C34_3 1_555 1_555
N10_3 C35_3 1_555 1_555
N11_4 C36_3 1_555 1_555
O13 C1_3 1_555 1_555
O15 C1_3 1_555 1_555
O3_2 C11_3 1_555 1_555
O4_2 C11_3 1_555 1_555
O5_3 C26_3 1_555 1_555
O6_3 C26_3 1_555 1_555
C39_3 C40_3 1_555 1_555
C40_3 C41_3 1_555 1_555
C42_3 C41_3 1_555 1_555
H28_3 C42_3 1_555 1_555
C43_3 C42_3 1_555 1_555
C44_3 C43_3 1_555 1_555
H29_3 C44_3 1_555 1_555
C45_3 C40_3 1_555 1_555
H30_3 C45_3 1_555 1_555
C46_3 H31_3 1_555 1_555
H32_3 C46_3 1_555 1_555
C47_3 C46_3 1_555 1_555
C48_3 C49_3 1_555 1_555
C49_3 N11_4 1_555 1_555
C50_3 C38_4 1_555 1_555
H34_3 C50_3 1_555 1_555
N12_3 C43_3 1_555 1_555
N13_3 C47_3 1_555 1_555
N14_3 Cd2_2 1_555 1_555
O8_3 C39_3 1_555 1_555
C51_3 C52_3 1_555 1_555
C52_3 C53_3 1_555 1_555
C53_3 H35_3 1_555 1_555
C54_3 C53_3 1_555 1_555
H36_3 C54_3 1_555 1_555
C55_3 C54_3 1_555 1_555
C56_3 C55_3 1_555 1_555
H37_3 C56_3 1_555 1_555
C57_3 C52_3 1_555 1_555
H38_3 C57_3 1_555 1_555
C58_3 H39_3 1_555 1_555
H40_3 C58_3 1_555 1_555
H41_3 C58_3 1_555 1_555
C59_3 C58_3 1_555 1_555
C60_3 C71_3 1_555 1_555
C61_3 C62_3 1_555 1_555
C62_3 C63_3 1_555 1_555
C63_3 H42_3 1_555 1_555
C64_3 C63_3 1_555 1_555
H43_3 C64_3 1_555 1_555
C65_3 C64_3 1_555 1_555
C66_3 C65_3 1_555 1_555
C67_3 C62_3 1_555 1_555
H45_3 C67_3 1_555 1_555
C70_3 C75_3 1_555 1_555
C71_3 C72_3 1_555 1_555
C72_3 H49_3 1_555 1_555
C73_3 C72_3 1_555 1_555
H50_3 C73_3 1_555 1_555
C74_3 C73_3 1_555 1_555
H51_3 C74_3 1_555 1_555
C75_3 C74_3 1_555 1_555
N15_3 C55_3 1_555 1_555
N16_3 C59_3 1_555 1_555
N17_3 C60_3 1_555 1_555
N21_3 C71_3 1_555 1_555
O14 C51_3 1_555 1_555
O16 C51_3 1_555 1_555
O11_2 C61_3 1_555 1_555
O12_2 C61_3 1_555 1_555
Cd6_2 O3_2 1_555 1_555
Cd6 O11_2 1_555 1_555
O19_2 Cd2_2 1_555 1_555
O20_2 Cd2_2 1_555 1_555
C6_3 C7_3 1_555 1_555
C9_3 N1_3 1_555 1_555
C10_3 N1_3 1_555 1_555
C16_3 C17_3 1_555 1_555
C19_3 N4_3 1_555 1_555
C20_3 N4_3 1_555 1_555
C25_3 N7_3 1_555 1_555
C31_3 C32_3 1_555 1_555
C34_3 N8_3 1_555 1_555
C35_3 N8_3 1_555 1_555
Cd4 N6_3 1_555 1_555
Cd4 N7_3 1_555 1_555
Cd4 O5_3 1_555 1_555
Cd4 O6_3 1_555 1_555
Cd2_2 N11_4 1_555 1_555
N2_3 N3_3 1_555 1_555
N5_3 N6_3 1_555 1_555
N9_3 N10_3 1_555 1_555
O4_2 Cd6_2 1_555 1_555
C44_3 C45_3 1_555 1_555
C47_3 N12_3 1_555 1_555
C48_3 N12_3 1_555 1_555
C48_3 N14_3 1_555 1_555
C49_3 C50_3 1_555 1_555
N13_3 N14_3 1_555 1_555
C56_3 C57_3 1_555 1_555
C59_3 N15_3 1_555 1_555
C60_3 N15_3 1_555 1_555
C66_3 C67_3 1_555 1_555
C75_3 N21_3 1_555 1_555
N16_3 N17_3 1_555 1_555
O12_2 Cd6 1_555 1_555
C6_4 C5_4 1_555 1_555
H3_4 C6_4 1_555 1_555
H4_4 C7_4 1_555 1_555
C10_4 C21_4 1_555 1_555
C11_4 C12_4 1_555 1_555
C12_4 C13_4 1_555 1_555
C13_4 H8_4 1_555 1_555
C14_4 C13_4 1_555 1_555
H9_4 C14_4 1_555 1_555
C15_4 C14_4 1_555 1_555
C16_4 C15_4 1_555 1_555
H10_4 C16_4 1_555 1_555
C17_4 C12_4 1_555 1_555
C18_4 H12_4 1_555 1_555
H13_4 C18_4 1_555 1_555
H14_4 C18_4 1_555 1_555
C19_4 C18_4 1_555 1_555
C20_4 C25_4 1_555 1_555
C21_4 C22_4 1_555 1_555
C22_4 H15_4 1_555 1_555
C23_4 C22_4 1_555 1_555
H16_4 C23_4 1_555 1_555
C24_4 C23_4 1_555 1_555
H17_4 C24_4 1_555 1_555
C25_4 C24_4 1_555 1_555
C26_4 C27_4 1_555 1_555
C27_4 C28_4 1_555 1_555
C28_4 H18_4 1_555 1_555
C29_4 C28_4 1_555 1_555
H19_4 C29_4 1_555 1_555
C30_4 C29_4 1_555 1_555
C31_4 C30_4 1_555 1_555
H20_4 C31_4 1_555 1_555
C32_4 C27_4 1_555 1_555
H21_4 C32_4 1_555 1_555
C33_4 H22_4 1_555 1_555
H23_4 C33_4 1_555 1_555
H24_4 C33_4 1_555 1_555
C34_4 C33_4 1_555 1_555
C35_4 C36_4 1_555 1_555
C36_4 C37_4 1_555 1_555
C37_4 H25_4 1_555 1_555
C38_5 C37_4 1_555 1_555
H26_5 C38_5 1_555 1_555
Cd4_2 N3_4 1_555 1_555
Cd6 N10_4 1_555 1_555
N1_4 C5_4 1_555 1_555
N2_4 C9_4 1_555 1_555
N3_4 C10_4 1_555 1_555
N4_4 C15_4 1_555 1_555
N5_4 C19_4 1_555 1_555
N6_4 C20_4 1_555 1_555
N7_4 C21_4 1_555 1_555
N8_4 C30_4 1_555 1_555
N9_4 C34_4 1_555 1_555
N10_4 C35_4 1_555 1_555
N11_5 C36_4 1_555 1_555
O17_2 C11_4 1_555 1_555
O5_4 C26_4 1_555 1_555
O6_4 C26_4 1_555 1_555
C58_4 H39_4 1_555 1_555
H40_4 C58_4 1_555 1_555
H41_4 C58_4 1_555 1_555
C6_4 C7_4 1_555 1_555
C9_4 N1_4 1_555 1_555
C10_4 N1_4 1_555 1_555
C16_4 C17_4 1_555 1_555
C19_4 N4_4 1_555 1_555
C20_4 N4_4 1_555 1_555
C25_4 N7_4 1_555 1_555
C31_4 C32_4 1_555 1_555
C34_4 N8_4 1_555 1_555
C35_4 N8_4 1_555 1_555
Cd4_2 N6_4 1_555 1_555
Cd4_2 N7_4 1_555 1_555
Cd4_2 O5_4 1_555 1_555
Cd4_2 O6_4 1_555 1_555
Cd6 N11_5 1_555 1_555
N2_4 N3_4 1_555 1_555
N5_4 N6_4 1_555 1_555
N9_4 N10_4 1_555 1_555
C1_4 C2_4 1_555 1_555
C2_4 C3_4 1_555 1_555
C3_4 H1_4 1_555 1_555
C4_4 C3_4 1_555 1_555
H2_4 C4_4 1_555 1_555
O13_2 C1_4 1_555 1_555
O15_2 C1_4 1_555 1_555
C68_4 H46_4 1_555 1_555
H47_4 C68_4 1_555 1_555
H48_4 C68_4 1_555 1_555
C69_4 C68_4 1_555 1_555
Cd5_2 O7_4 1_555 1_555
N19_4 C69_4 1_555 1_555
C69_4 N18_4 1_555 1_555
Cd5_2 N20_4 1_555 1_555
N19_4 N20_4 1_555 1_555
C8_4 H5_4 1_555 1_555
H6_4 C8_4 1_555 1_555
H7_4 C8_4 1_555 1_555
H26_6 C38_6 1_555 1_555
C39_4 C40_4 1_555 1_555
C40_4 C41_4 1_555 1_555
C42_4 C41_4 1_555 1_555
H28_4 C42_4 1_555 1_555
C43_4 C42_4 1_555 1_555
C44_4 C43_4 1_555 1_555
H29_4 C44_4 1_555 1_555
C45_4 C40_4 1_555 1_555
H30_4 C45_4 1_555 1_555
C46_4 H31_4 1_555 1_555
H32_4 C46_4 1_555 1_555
C47_4 C46_4 1_555 1_555
C48_4 C49_4 1_555 1_555
C49_4 N11_6 1_555 1_555
C50_4 C38_6 1_555 1_555
H34_4 C50_4 1_555 1_555
N12_4 C43_4 1_555 1_555
N13_4 C47_4 1_555 1_555
N14_4 Cd6_2 1_555 1_555
O8_4 C39_4 1_555 1_555
C56_4 C55_4 1_555 1_555
H37_4 C56_4 1_555 1_555
H38_4 C57_4 1_555 1_555
C60_4 C71_4 1_555 1_555
C61_4 C62_4 1_555 1_555
C62_4 C63_4 1_555 1_555
C63_4 H42_4 1_555 1_555
C64_4 C63_4 1_555 1_555
H43_4 C64_4 1_555 1_555
C65_4 C64_4 1_555 1_555
C66_4 C65_4 1_555 1_555
C67_4 C62_4 1_555 1_555
C70_4 C75_4 1_555 1_555
C71_4 C72_4 1_555 1_555
C72_4 H49_4 1_555 1_555
C73_4 C72_4 1_555 1_555
H50_4 C73_4 1_555 1_555
C74_4 C73_4 1_555 1_555
H51_4 C74_4 1_555 1_555
C75_4 C74_4 1_555 1_555
N15_4 C55_4 1_555 1_555
N16_4 C59_4 1_555 1_555
N17_4 C60_4 1_555 1_555
N21_4 C71_4 1_555 1_555
O18_2 C61_4 1_555 1_555
Cd6_2 N11_6 1_555 1_555
C44_4 C45_4 1_555 1_555
C47_4 N12_4 1_555 1_555
C48_4 N12_4 1_555 1_555
C48_4 N14_4 1_555 1_555
C49_4 C50_4 1_555 1_555
N13_4 N14_4 1_555 1_555
C56_4 C57_4 1_555 1_555
C59_4 N15_4 1_555 1_555
C60_4 N15_4 1_555 1_555
C66_4 C67_4 1_555 1_555
C75_4 N21_4 1_555 1_555
N16_4 N17_4 1_555 1_555
C51_4 C52_4 1_555 1_555
C52_4 C53_4 1_555 1_555
C53_4 H35_4 1_555 1_555
C54_4 C53_4 1_555 1_555
H36_4 C54_4 1_555 1_555
O14_2 C51_4 1_555 1_555
O16_2 C51_4 1_555 1_555

#END
