
###############################################################################
#
# This file contains modified crystal structure data generated from the
# MOF subset of the Cambridge Structural Database (CSD) v543 
# hosted by the Cambridge Crystallographic Data Centre (CCDC).
#
# This work is licensed under the Creative Commons
# Attribution-NonCommercial-ShareAlike 4.0 International License.
# To view a copy of this license, visit
# http://creativecommons.org/licenses/by-nc-sa/4.0/
# or send a letter to
# Creative Commons, PO Box 1866, Mountain View, CA 94042, USA.
#
# CIF created using the CSD Python API on 29 September 2022
# The structure has been converted into the P1 space group
# The structure has a 3D framework
# The original CSD entry PUGGOP is in the triclinic crystal system
# The framework has been calculated to contain at least 10.0% void space
# The void calculation uses a probe of radius 1.32A, grid spacing 0.4
# H atom positions have been added when not included in the experimental data
#
###############################################################################

data_PUGGOP
_chemical_formula_moiety         '(C128 H100 Mn8 N4 O50 S8)n'
_symmetry_cell_setting           triclinic
_symmetry_space_group_name_H-M   'P 1'
_symmetry_Int_Tables_number      1
_space_group_name_Hall           'P 1'
loop_
_symmetry_equiv_pos_site_id
_symmetry_equiv_pos_as_xyz
1 x,y,z
_cell_length_a                   11.6384(18)
_cell_length_b                   21.052(4)
_cell_length_c                   24.247(4)
_cell_angle_alpha                114.959(8)
_cell_angle_beta                 102.950(9)
_cell_angle_gamma                92.406(9)
_cell_volume                     5185.94
loop_
_atom_site_label
_atom_site_type_symbol
_atom_site_fract_x
_atom_site_fract_y
_atom_site_fract_z
N1 N 0.0037(9) 0.3396(5) 0.3861(5)
C59 C 0.0285(9) 0.4137(5) 0.4292(4)
C60 C 0.0938(9) 0.2941(5) 0.4034(4)
O33 O 0.0623(3) 0.1468(2) 0.25585(17)
H37 H 0.124253 0.429395 0.450659
H39 H 0.114589 0.256592 0.360876
H40 H 0.175303 0.328623 0.436871
H41 H 0.0545895 0.26523 0.424565
Mn1 Mn 0.42036(6) 0.17038(4) 0.34079(3)
Mn2 Mn 0.66444(7) 0.23569(4) 0.29297(3)
Mn3 Mn 0.12852(7) 0.05723(4) 0.29299(3)
Mn4 Mn 0.87264(6) 0.12270(4) 0.24541(3)
S1 S 0.8431(2) 0.46766(10) 0.70245(7)
S4 S 0.23579(14) 0.29147(8) 0.08100(6)
O1 O 0.5822(4) 0.2112(2) 0.4129(2)
O3 O 0.4280(3) 0.0662(2) 0.33573(16)
O4 O 0.5920(3) 0.7305(2) 0.66402(16)
O5 O 0.2440(3) 0.12251(18) 0.26355(14)
O6 O 0.5187(3) 0.14077(18) 0.26379(15)
O7 O 0.7131(4) 0.2711(2) 0.39004(18)
O8 O 0.4601(4) 0.6953(2) 0.70373(19)
O10 O 0.8817(4) 0.2302(3) 0.3160(2)
O11 O 0.6938(3) 0.1092(2) 0.25592(17)
O18 O 0.9696(5) 0.4958(3) 0.7161(3)
O19 O 0.8050(7) 0.4387(3) 0.7400(2)
O24 O 0.3609(4) 0.3124(2) 0.09177(18)
O25 O 0.1545(4) 0.3423(2) 0.08512(18)
C1 C 0.6674(5) 0.2605(3) 0.4275(3)
C2 C 0.7180(5) 0.3071(3) 0.4967(2)
C3 C 0.8106(5) 0.3625(3) 0.5169(2)
H1 H 0.8456 0.3681 0.4880
C4 C 0.8502(6) 0.4094(3) 0.5805(3)
H2 H 0.9121 0.4463 0.5937
C5 C 0.8012(6) 0.4029(3) 0.6239(2)
C6 C 0.7104(7) 0.3470(4) 0.6040(3)
H3 H 0.6768 0.3413 0.6333
C7 C 0.6695(5) 0.2997(3) 0.5408(3)
H4 H 0.6085 0.2624 0.5279
C8 C 0.7564(6) 0.5336(3) 0.7009(3)
C9 C 0.8048(6) 0.5859(4) 0.6842(3)
H5 H 0.8805 0.5863 0.6776
C10 C 0.7354(5) 0.6336(3) 0.6786(3)
H6 H 0.7633 0.6663 0.6664
C11 C 0.6260(5) 0.6359(3) 0.6902(2)
C12 C 0.5851(6) 0.5878(3) 0.7066(3)
H7 H 0.5112 0.5895 0.7155
C13 C 0.6517(9) 0.5349(4) 0.7109(4)
H8 H 0.6205 0.5010 0.7209
C14 C 0.5539(5) 0.6909(3) 0.6847(2)
C15 C 0.5823(4) 0.0925(3) 0.2430(2)
C16 C 0.5223(4) 0.0168(3) 0.2054(2)
C17 C 0.4017(4) 0.0005(3) 0.1875(2)
H9 H 0.3554 0.0364 0.1992
C29 C 0.3683(5) 0.0063(3) 0.3150(2)
C43 C 0.1614(4) 0.1515(3) 0.2437(2)
C44 C 0.1836(4) 0.1883(3) 0.2047(2)
C45 C 0.0927(5) 0.2217(3) 0.1844(2)
H25 H 0.0207 0.2207 0.1949
C46 C 0.1107(5) 0.2553(3) 0.1495(3)
H26 H 0.0520 0.2787 0.1369
C47 C 0.2169(5) 0.2548(3) 0.1324(2)
C48 C 0.3035(5) 0.2213(3) 0.1521(2)
H27 H 0.3754 0.2216 0.1414
C49 C 0.2857(4) 0.1874(3) 0.1874(2)
H28 H 0.3444 0.1637 0.1995
C50 C 0.1843(5) 0.2174(3) 0.0056(2)
H32 H 0.3379 0.1733 0.0112
C57 C 0.9175(8) 0.2895(4) 0.3475(4)
C58 C 0.8332(8) 0.3353(6) 0.3267(4)
N2 N 0.8859(9) 0.0468(5) 0.3856(5)
O26 O 0.9345(4) 0.0854(3) 0.3163(2)
C61 C 0.9334(7) 0.0546(5) 0.3456(4)
C63 C 0.8981(8) 0.0165(5) 0.4292(4)
C64 C 0.8103(8) 0.1096(4) 0.4025(4)
Mn6 Mn 0.57964(6) 0.82962(4) 0.65921(3)
Mn8 Mn 0.33556(7) 0.76431(4) 0.70703(3)
O27 O 0.3309(5) 0.2015(2) 0.4131(2)
O28 O 0.4080(3) 0.2695(2) 0.33598(16)
O29 O 0.5399(4) 0.3047(2) 0.29627(19)
O30 O 0.6578(3) 0.2161(2) 0.19886(17)
O31 O 0.1771(4) 0.1183(3) 0.38986(18)
O34 O 0.8100(3) 0.1596(2) 0.17751(18)
O35 O 0.8680(3) 0.0186(2) 0.17762(17)
H33 H 0.877636 0.361538 0.305159
H34 H 0.751701 0.301412 0.292615
H35 H 0.811184 0.375048 0.367749
H36 H 0.982636 0.42351 0.465887
H38 H 0.997427 0.444417 0.403755
H42 H 0.744904 0.103268 0.359925
H43 H 0.764446 0.108959 0.436831
H44 H 0.869398 0.159895 0.422402
H45 H 0.983261 0.0395933 0.464808
H46 H 0.825705 0.0275025 0.451989
S2 S 0.34519(14) 0.78946(8) 0.08094(6)
S3 S 0.6407(2) 0.76506(11) 0.29748(8)
O2 O 0.6691(5) 0.7985(2) 0.5869(2)
O12 O 0.8229(4) 0.8817(3) 0.61014(18)
O13 O 0.2560(3) 0.9908(2) 0.29612(19)
O20 O 0.4305(4) 0.7428(2) 0.08515(18)
O21 O 0.2304(4) 0.7791(2) 0.09180(18)
O22 O 0.7524(6) 0.7787(4) 0.2837(3)
O23 O 0.5658(7) 0.6981(3) 0.2592(2)
C18 C 0.3471(5) 0.9305(3) 0.1519(2)
H10 H 0.2645 0.9194 0.1414
C19 C 0.4148(5) 0.8774(3) 0.1319(2)
C20 C 0.5399(5) 0.8945(3) 0.1494(3)
H11 H 0.5865 0.8588 0.1367
C21 C 0.5921(5) 0.9628(3) 0.1847(3)
H12 H 0.6746 0.9742 0.1954
C22 C 0.3215(5) 0.7879(3) 0.0054(2)
H13 H 0.1756 0.8393 0.0128
C30 C 0.4354(5) 0.9456(3) 0.3092(2)
C31 C 0.3785(6) 0.8820(3) 0.2947(3)
H17 H 0.2962 0.8754 0.2882
C32 C 0.4406(7) 0.8245(4) 0.2889(4)
H18 H 0.3989 0.7803 0.2776
C33 C 0.5557(6) 0.8330(4) 0.2993(3)
C34 C 0.6200(6) 0.9010(4) 0.3152(3)
H19 H 0.7023 0.9079 0.3214
C35 C 0.5567(5) 0.9540(3) 0.3207(3)
H20 H 0.5974 0.9988 0.3329
C36 C 0.6768(6) 0.7794(3) 0.3771(2)
C37 C 0.6067(6) 0.7427(4) 0.3964(3)
H21 H 0.5446 0.7073 0.3668
C38 C 0.6278(5) 0.7581(3) 0.4583(3)
H22 H 0.5794 0.7335 0.4708
C39 C 0.7212(5) 0.8102(3) 0.5031(2)
C40 C 0.7937(5) 0.8457(3) 0.4827(2)
H23 H 0.8572 0.8805 0.5117
C41 C 0.7708(6) 0.8290(3) 0.4203(3)
H24 H 0.8203 0.8519 0.4068
C42 C 0.7404(6) 0.8335(4) 0.5729(3)
C62 C 0.9945(9) 0.9881(6) 0.3284(4)
Mn10 Mn 0.87148(7) 0.94277(4) 0.70701(3)
O32 O 0.0418(3) 0.9824(2) 0.19870(17)
H47 H 0.894604 0.959381 0.403932
H48 H 0.927385 0.941154 0.308933
O9 O 0.3422(3) 0.7839(2) 0.80114(17)
O16 O 0.1900(3) 0.8404(2) 0.82249(18)
O17 O 0.1320(3) 0.9814(2) 0.82238(17)
C23 C 0.2269(5) 0.8210(3) 0.9874(3)
C24 C 0.2128(5) 0.8254(3) 0.9324(2)
H14 H 0.1497 0.8461 0.9196
C25 C 0.2898(4) 0.8000(3) 0.8941(2)
C26 C 0.3807(5) 0.7665(3) 0.9122(3)
H15 H 0.4310 0.7473 0.8865
C27 C 0.3962(5) 0.7616(3) 0.9683(2)
H16 H 0.4584 0.7402 0.9809
C28 C 0.2728(5) 0.8075(3) 0.8336(2)
Mn12 Mn 0.12736(6) 0.87730(4) 0.75459(3)
O14 O 0.9582(3) 0.0176(2) 0.80130(17)
H30 H 0.9551 0.1383 0.8864
H30_2 H 0.0449 0.8617 0.1136
C23_2 C 0.7731(5) 0.1790(3) 0.0126(3)
C24_2 C 0.7872(5) 0.1746(3) 0.0676(2)
H14_2 H 0.8503 0.1539 0.0804
C25_2 C 0.7102(4) 0.2000(3) 0.1059(2)
C26_2 C 0.6193(5) 0.2335(3) 0.0878(3)
H15_2 H 0.5690 0.2527 0.1135
C27_2 C 0.6038(5) 0.2384(3) 0.0317(2)
H16_2 H 0.5416 0.2598 0.0191
C28_2 C 0.7272(5) 0.1925(3) 0.1664(2)
S2_2 S 0.65481(14) 0.21054(8) 0.91906(6)
S3_2 S 0.3593(2) 0.23494(11) 0.70252(8)
O13_2 O 0.7440(3) 0.0092(2) 0.70388(19)
O20_2 O 0.5695(4) 0.2572(2) 0.91485(18)
O21_2 O 0.7696(4) 0.2209(2) 0.90820(18)
O22_2 O 0.2476(6) 0.2213(4) 0.7163(3)
O23_2 O 0.4342(7) 0.3019(3) 0.7408(2)
C18_2 C 0.6529(5) 0.0695(3) 0.8481(2)
H10_2 H 0.7355 0.0806 0.8586
C19_2 C 0.5852(5) 0.1226(3) 0.8681(2)
C20_2 C 0.4601(5) 0.1055(3) 0.8506(3)
H11_2 H 0.4135 0.1412 0.8633
C21_2 C 0.4079(5) 0.0372(3) 0.8153(3)
H12_2 H 0.3254 0.0258 0.8046
C22_2 C 0.6785(5) 0.2121(3) 0.9946(2)
H13_2 H 0.8244 0.1607 0.9872
C30_2 C 0.5646(5) 0.0544(3) 0.6908(2)
C31_2 C 0.6215(6) 0.1180(3) 0.7053(3)
H17_2 H 0.7038 0.1246 0.7118
C32_2 C 0.5594(7) 0.1755(4) 0.7111(4)
H18_2 H 0.6011 0.2197 0.7224
C33_2 C 0.4443(6) 0.1670(4) 0.7007(3)
C34_2 C 0.3800(6) 0.0990(4) 0.6848(3)
H19_2 H 0.2977 0.0921 0.6786
C35_2 C 0.4433(5) 0.0460(3) 0.6793(3)
H20_2 H 0.4026 0.0012 0.6671
C36_2 C 0.3232(6) 0.2206(3) 0.6229(2)
C37_2 C 0.3933(6) 0.2573(4) 0.6036(3)
H21_2 H 0.4554 0.2927 0.6332
C38_2 C 0.3722(5) 0.2419(3) 0.5417(3)
H22_2 H 0.4206 0.2665 0.5292
C39_2 C 0.2788(5) 0.1898(3) 0.4969(2)
C40_2 C 0.2063(5) 0.1543(3) 0.5173(2)
H23_2 H 0.1428 0.1195 0.4883
C41_2 C 0.2292(6) 0.1710(3) 0.5797(3)
H24_2 H 0.1797 0.1481 0.5932
C42_2 C 0.2596(6) 0.1665(4) 0.4271(3)
C62_2 C 0.0055(9) 0.0119(6) 0.6716(4)
H47_2 H 0.105396 0.0406188 0.596068
H48_2 H 0.0726152 0.0588459 0.691067
S1_2 S 0.1569(2) 0.53234(10) 0.29755(7)
S4_2 S 0.76421(14) 0.70853(8) 0.91900(6)
O1_2 O 0.4178(4) 0.7888(2) 0.5871(2)
O3_2 O 0.5720(3) 0.9338(2) 0.66427(16)
O5_2 O 0.7560(3) 0.87749(18) 0.73645(14)
O6_2 O 0.4813(3) 0.85923(18) 0.73621(15)
O7_2 O 0.2869(4) 0.7289(2) 0.60996(18)
O10_2 O 0.1183(4) 0.7698(3) 0.6840(2)
O11_2 O 0.3062(3) 0.8908(2) 0.74408(17)
O15 O 0.9377(3) 0.8532(2) 0.74415(17)
O18_2 O 0.0304(5) 0.5042(3) 0.2839(3)
O19_2 O 0.1950(7) 0.5613(3) 0.2600(2)
O24_2 O 0.6391(4) 0.6876(2) 0.90823(18)
O25_2 O 0.8455(4) 0.6577(2) 0.91488(18)
C1_2 C 0.3326(5) 0.7395(3) 0.5725(3)
C2_2 C 0.2820(5) 0.6929(3) 0.5033(2)
C3_2 C 0.1894(5) 0.6375(3) 0.4831(2)
H1_2 H 0.1544 0.6319 0.5120
C4_2 C 0.1498(6) 0.5906(3) 0.4195(3)
H2_2 H 0.0879 0.5537 0.4063
C5_2 C 0.1988(6) 0.5971(3) 0.3761(2)
C6_2 C 0.2896(7) 0.6530(4) 0.3960(3)
H3_2 H 0.3232 0.6587 0.3667
C7_2 C 0.3305(5) 0.7003(3) 0.4592(3)
H4_2 H 0.3915 0.7376 0.4721
C8_2 C 0.2436(6) 0.4664(3) 0.2991(3)
C9_2 C 0.1952(6) 0.4141(4) 0.3158(3)
H5_2 H 0.1195 0.4137 0.3224
C10_2 C 0.2646(5) 0.3664(3) 0.3214(3)
H6_2 H 0.2367 0.3337 0.3336
C11_2 C 0.3740(5) 0.3641(3) 0.3098(2)
C12_2 C 0.4149(6) 0.4122(3) 0.2934(3)
H7_2 H 0.4888 0.4105 0.2845
C13_2 C 0.3483(9) 0.4651(4) 0.2891(4)
H8_2 H 0.3795 0.4990 0.2791
C14_2 C 0.4461(5) 0.3091(3) 0.3153(2)
C15_2 C 0.4177(4) 0.9075(3) 0.7570(2)
C16_2 C 0.4777(4) 0.9832(3) 0.7946(2)
C17_2 C 0.5983(4) 0.9995(3) 0.8125(2)
H9_2 H 0.6446 0.9636 0.8008
C29_2 C 0.6317(5) 0.9937(3) 0.6850(2)
C43_2 C 0.8386(4) 0.8485(3) 0.7563(2)
C44_2 C 0.8164(4) 0.8117(3) 0.7953(2)
C45_2 C 0.9073(5) 0.7783(3) 0.8156(2)
H25_2 H 0.9793 0.7793 0.8051
C46_2 C 0.8893(5) 0.7447(3) 0.8505(3)
H26_2 H 0.9480 0.7213 0.8631
C47_2 C 0.7831(5) 0.7452(3) 0.8676(2)
C48_2 C 0.6965(5) 0.7787(3) 0.8479(2)
H27_2 H 0.6246 0.7784 0.8586
C49_2 C 0.7143(4) 0.8126(3) 0.8126(2)
H28_2 H 0.6556 0.8363 0.8005
C50_2 C 0.8157(5) 0.7826(3) 0.9944(2)
H32_2 H 0.6621 0.8267 0.9888
C57_2 C 0.0825(8) 0.7105(4) 0.6525(4)
C58_2 C 0.1668(8) 0.6647(6) 0.6733(4)
N2_2 N 0.1141(9) 0.9532(5) 0.6144(5)
O26_2 O 0.0655(4) 0.9146(3) 0.6837(2)
C61_2 C 0.0666(7) 0.9454(5) 0.6544(4)
C63_2 C 0.1019(8) 0.9835(5) 0.5708(4)
C64_2 C 0.1897(8) 0.8904(4) 0.5975(4)
H33_2 H 0.122364 0.638462 0.694841
H34_2 H 0.248299 0.698588 0.707385
H35_2 H 0.188816 0.624952 0.632251
H36_2 H 0.0173636 0.57649 0.534113
H38_2 H 0.00257291 0.555583 0.596245
H42_2 H 0.255096 0.896732 0.640075
H43_2 H 0.235554 0.891041 0.563169
H44_2 H 0.130602 0.840105 0.577598
H45_2 H 0.0167386 0.960407 0.535192
H46_2 H 0.174295 0.972497 0.548011
N1_2 N 0.9963(9) 0.6604(5) 0.6139(5)
C59_2 C 0.9715(9) 0.5863(5) 0.5708(4)
C60_2 C 0.9062(9) 0.7059(5) 0.5966(4)
H37_2 H 0.875747 0.570605 0.549341
H39_2 H 0.885411 0.743408 0.639124
H40_2 H 0.824697 0.671377 0.563129
H41_2 H 0.94541 0.73477 0.575435
H49 H 0.0419528 0.984563 0.29351
H50 H 0.057445 0.991475 0.370573
C51 C 0.0709(5) 0.2065(3) 0.9685(3)
H29 H 0.0208 0.2401 0.9809
C52 C 0.0313(5) 0.1453(3) 0.9123(3)
C53 C 0.1050(5) 0.0944(3) 0.8947(2)
C54 C 0.2199(5) 0.1066(3) 0.9320(2)
H31 H 0.2701 0.0732 0.9192
C55 C 0.2605(5) 0.1660(3) 0.9863(3)
C56 C 0.0614(5) 0.0256(3) 0.8338(2)
C51_2 C 0.9291(5) 0.7935(3) 0.0315(3)
H29_2 H 0.9792 0.7599 0.0191
C52_2 C 0.9687(5) 0.8547(3) 0.0877(3)
C53_2 C 0.8950(5) 0.9056(3) 0.1053(2)
C54_2 C 0.7801(5) 0.8934(3) 0.0680(2)
H31_2 H 0.7299 0.9268 0.0808
C55_2 C 0.7395(5) 0.8340(3) 0.0137(3)
C56_2 C 0.9386(5) 0.9744(3) 0.1662(2)
H49_2 H 0.958047 0.015437 0.70649
H50_2 H 0.942555 0.0085251 0.629427
loop_
_geom_bond_atom_site_label_1
_geom_bond_atom_site_label_2
_geom_bond_site_symmetry_1
_geom_bond_site_symmetry_2
C59 N1 1_555 1_555
C60 N1 1_555 1_555
C59 H37 1_555 1_555
C60 H39 1_555 1_555
C60 H40 1_555 1_555
C60 H41 1_555 1_555
Mn1 O1 1_555 1_555
Mn2 O6 1_555 1_555
Mn3 O5 1_555 1_555
Mn4 O10 1_555 1_555
S1 O18 1_555 1_555
S4 O24 1_555 1_555
O1 C1 1_555 1_555
O3 Mn1 1_555 1_555
O4 C14 1_555 1_555
O5 Mn1 1_555 1_555
O6 Mn1 1_555 1_555
O7 Mn2 1_555 1_555
O8 C14 1_555 1_555
O10 C57 1_555 1_555
O11 Mn4 1_555 1_555
O33 C43 1_555 1_555
O19 S1 1_555 1_555
O25 S4 1_555 1_555
C1 O7 1_555 1_555
C2 C1 1_555 1_555
C3 C2 1_555 1_555
H1 C3 1_555 1_555
C4 C3 1_555 1_555
H2 C4 1_555 1_555
C5 S1 1_555 1_555
C6 C5 1_555 1_555
H3 C6 1_555 1_555
C7 C2 1_555 1_555
H4 C7 1_555 1_555
C8 S1 1_555 1_555
C9 C8 1_555 1_555
H5 C9 1_555 1_555
C10 C9 1_555 1_555
H6 C10 1_555 1_555
C11 C10 1_555 1_555
C12 C11 1_555 1_555
H7 C12 1_555 1_555
C13 C8 1_555 1_555
H8 C13 1_555 1_555
C14 C11 1_555 1_555
C15 O6 1_555 1_555
C16 C15 1_555 1_555
C17 C16 1_555 1_555
H9 C17 1_555 1_555
C29 O3 1_555 1_555
C43 O5 1_555 1_555
C44 C43 1_555 1_555
C45 C44 1_555 1_555
H25 C45 1_555 1_555
C46 C45 1_555 1_555
H26 C46 1_555 1_555
C47 S4 1_555 1_555
C48 C47 1_555 1_555
H27 C48 1_555 1_555
C49 C44 1_555 1_555
H28 C49 1_555 1_555
C50 S4 1_555 1_555
C57 C58 1_555 1_555
N2 C61 1_555 1_555
O26 Mn4 1_555 1_555
C61 O26 1_555 1_555
C63 N2 1_555 1_555
C64 N2 1_555 1_555
Mn6 O4 1_555 1_555
Mn8 O8 1_555 1_555
O27 Mn1 1_555 1_555
O28 Mn1 1_555 1_555
O29 Mn2 1_555 1_555
O30 Mn2 1_555 1_555
O31 Mn3 1_555 1_555
O34 Mn4 1_555 1_555
O35 Mn4 1_555 1_555
O11 C15 1_555 1_555
C4 C5 1_555 1_555
C6 C7 1_555 1_555
C12 C13 1_555 1_555
C46 C47 1_555 1_555
C48 C49 1_555 1_555
C58 H33 1_555 1_555
C58 H34 1_555 1_555
C58 H35 1_555 1_555
C64 H42 1_555 1_555
C64 H43 1_555 1_555
C64 H44 1_555 1_555
C63 H45 1_555 1_555
C63 H46 1_555 1_555
S2 O20 1_555 1_555
S3 O22 1_555 1_555
O2 C42 1_555 1_555
O12 C42 1_555 1_555
O21 S2 1_555 1_555
O23 S3 1_555 1_555
H10 C18 1_555 1_555
C19 S2 1_555 1_555
C20 C19 1_555 1_555
H11 C20 1_555 1_555
H12 C21 1_555 1_555
C22 S2 1_555 1_555
C31 C30 1_555 1_555
H17 C31 1_555 1_555
C32 C31 1_555 1_555
H18 C32 1_555 1_555
C33 S3 1_555 1_555
C34 C33 1_555 1_555
H19 C34 1_555 1_555
C35 C30 1_555 1_555
H20 C35 1_555 1_555
C36 S3 1_555 1_555
C37 C36 1_555 1_555
H21 C37 1_555 1_555
C38 C37 1_555 1_555
H22 C38 1_555 1_555
C39 C38 1_555 1_555
C40 C39 1_555 1_555
H23 C40 1_555 1_555
C41 C36 1_555 1_555
H24 C41 1_555 1_555
C42 C39 1_555 1_555
Mn6 O2 1_555 1_555
Mn10 O12 1_555 1_555
C18 C19 1_555 1_555
C20 C21 1_555 1_555
C32 C33 1_555 1_555
C34 C35 1_555 1_555
C40 C41 1_555 1_555
C62 H48 1_555 1_555
O9 C28 1_555 1_555
O16 C28 1_555 1_555
C24 C23 1_555 1_555
H14 C24 1_555 1_555
C25 C24 1_555 1_555
C26 C25 1_555 1_555
H15 C26 1_555 1_555
H16 C27 1_555 1_555
C28 C25 1_555 1_555
Mn8 O9 1_555 1_555
Mn12 O16 1_555 1_555
O17 Mn12 1_555 1_555
C26 C27 1_555 1_555
O30 C28_2 1_555 1_555
O34 C28_2 1_555 1_555
C24_2 C23_2 1_555 1_555
H14_2 C24_2 1_555 1_555
C25_2 C24_2 1_555 1_555
C26_2 C25_2 1_555 1_555
H15_2 C26_2 1_555 1_555
H16_2 C27_2 1_555 1_555
C28_2 C25_2 1_555 1_555
C26_2 C27_2 1_555 1_555
S2_2 O20_2 1_555 1_555
S3_2 O22_2 1_555 1_555
O27 C42_2 1_555 1_555
O31 C42_2 1_555 1_555
O21_2 S2_2 1_555 1_555
O23_2 S3_2 1_555 1_555
H10_2 C18_2 1_555 1_555
C19_2 S2_2 1_555 1_555
C20_2 C19_2 1_555 1_555
H11_2 C20_2 1_555 1_555
H12_2 C21_2 1_555 1_555
C22_2 S2_2 1_555 1_555
C31_2 C30_2 1_555 1_555
H17_2 C31_2 1_555 1_555
C32_2 C31_2 1_555 1_555
H18_2 C32_2 1_555 1_555
C33_2 S3_2 1_555 1_555
C34_2 C33_2 1_555 1_555
H19_2 C34_2 1_555 1_555
C35_2 C30_2 1_555 1_555
H20_2 C35_2 1_555 1_555
C36_2 S3_2 1_555 1_555
C37_2 C36_2 1_555 1_555
H21_2 C37_2 1_555 1_555
C38_2 C37_2 1_555 1_555
H22_2 C38_2 1_555 1_555
C39_2 C38_2 1_555 1_555
C40_2 C39_2 1_555 1_555
H23_2 C40_2 1_555 1_555
C41_2 C36_2 1_555 1_555
H24_2 C41_2 1_555 1_555
C42_2 C39_2 1_555 1_555
C18_2 C19_2 1_555 1_555
C20_2 C21_2 1_555 1_555
C32_2 C33_2 1_555 1_555
C34_2 C35_2 1_555 1_555
C40_2 C41_2 1_555 1_555
C62_2 H48_2 1_555 1_555
Mn6 O1_2 1_555 1_555
Mn8 O6_2 1_555 1_555
Mn10 O5_2 1_555 1_555
Mn12 O10_2 1_555 1_555
S1_2 O18_2 1_555 1_555
S4_2 O24_2 1_555 1_555
O1_2 C1_2 1_555 1_555
O3_2 Mn6 1_555 1_555
O28 C14_2 1_555 1_555
O5_2 Mn6 1_555 1_555
O6_2 Mn6 1_555 1_555
O7_2 Mn8 1_555 1_555
O29 C14_2 1_555 1_555
O10_2 C57_2 1_555 1_555
O11_2 Mn12 1_555 1_555
O15 C43_2 1_555 1_555
O19_2 S1_2 1_555 1_555
O25_2 S4_2 1_555 1_555
C1_2 O7_2 1_555 1_555
C2_2 C1_2 1_555 1_555
C3_2 C2_2 1_555 1_555
H1_2 C3_2 1_555 1_555
C4_2 C3_2 1_555 1_555
H2_2 C4_2 1_555 1_555
C5_2 S1_2 1_555 1_555
C6_2 C5_2 1_555 1_555
H3_2 C6_2 1_555 1_555
C7_2 C2_2 1_555 1_555
H4_2 C7_2 1_555 1_555
C8_2 S1_2 1_555 1_555
C9_2 C8_2 1_555 1_555
H5_2 C9_2 1_555 1_555
C10_2 C9_2 1_555 1_555
H6_2 C10_2 1_555 1_555
C11_2 C10_2 1_555 1_555
C12_2 C11_2 1_555 1_555
H7_2 C12_2 1_555 1_555
C13_2 C8_2 1_555 1_555
H8_2 C13_2 1_555 1_555
C14_2 C11_2 1_555 1_555
C15_2 O6_2 1_555 1_555
C16_2 C15_2 1_555 1_555
C17_2 C16_2 1_555 1_555
H9_2 C17_2 1_555 1_555
C29_2 O3_2 1_555 1_555
C43_2 O5_2 1_555 1_555
C44_2 C43_2 1_555 1_555
C45_2 C44_2 1_555 1_555
H25_2 C45_2 1_555 1_555
C46_2 C45_2 1_555 1_555
H26_2 C46_2 1_555 1_555
C47_2 S4_2 1_555 1_555
C48_2 C47_2 1_555 1_555
H27_2 C48_2 1_555 1_555
C49_2 C44_2 1_555 1_555
H28_2 C49_2 1_555 1_555
C50_2 S4_2 1_555 1_555
C57_2 C58_2 1_555 1_555
N2_2 C61_2 1_555 1_555
O26_2 Mn12 1_555 1_555
C61_2 O26_2 1_555 1_555
C63_2 N2_2 1_555 1_555
C64_2 N2_2 1_555 1_555
O11_2 C15_2 1_555 1_555
C4_2 C5_2 1_555 1_555
C6_2 C7_2 1_555 1_555
C12_2 C13_2 1_555 1_555
C46_2 C47_2 1_555 1_555
C48_2 C49_2 1_555 1_555
C58_2 H33_2 1_555 1_555
C58_2 H34_2 1_555 1_555
C58_2 H35_2 1_555 1_555
C64_2 H42_2 1_555 1_555
C64_2 H43_2 1_555 1_555
C64_2 H44_2 1_555 1_555
C63_2 H45_2 1_555 1_555
C63_2 H46_2 1_555 1_555
C59_2 N1_2 1_555 1_555
C60_2 N1_2 1_555 1_555
C59_2 H37_2 1_555 1_555
C60_2 H39_2 1_555 1_555
C60_2 H40_2 1_555 1_555
C60_2 H41_2 1_555 1_555
H29 C51 1_555 1_555
C52 C51 1_555 1_555
C53 C52 1_555 1_555
C54 C53 1_555 1_555
H31 C54 1_555 1_555
C56 C53 1_555 1_555
C54 C55 1_555 1_555
H29_2 C51_2 1_555 1_555
C52_2 C51_2 1_555 1_555
C53_2 C52_2 1_555 1_555
C54_2 C53_2 1_555 1_555
H31_2 C54_2 1_555 1_555
C56_2 C53_2 1_555 1_555
C54_2 C55_2 1_555 1_555

#END
