
###############################################################################
#
# This file contains modified crystal structure data generated from the
# MOF subset of the Cambridge Structural Database (CSD) v543 
# hosted by the Cambridge Crystallographic Data Centre (CCDC).
#
# This work is licensed under the Creative Commons
# Attribution-NonCommercial-ShareAlike 4.0 International License.
# To view a copy of this license, visit
# http://creativecommons.org/licenses/by-nc-sa/4.0/
# or send a letter to
# Creative Commons, PO Box 1866, Mountain View, CA 94042, USA.
#
# CIF created using the CSD Python API on 29 September 2022
# The structure has been converted into the P1 space group
# The structure has a 3D framework
# The original CSD entry PUGJEI is in the monoclinic crystal system
# The framework has been calculated to contain at least 10.0% void space
# The void calculation uses a probe of radius 1.32A, grid spacing 0.4
# H atom positions have been added when not included in the experimental data
#
###############################################################################

data_PUGJEI
_chemical_formula_moiety         '(C200 H176 Mn12 N8 O84 S12)n'
_symmetry_cell_setting           triclinic
_symmetry_space_group_name_H-M   'P 1'
_symmetry_Int_Tables_number      1
_space_group_name_Hall           'P 1'
loop_
_symmetry_equiv_pos_site_id
_symmetry_equiv_pos_as_xyz
1 x,y,z
_cell_length_a                   16.7094(3)
_cell_length_b                   20.2857(4)
_cell_length_c                   17.1936(3)
_cell_angle_alpha                90
_cell_angle_beta                 99.178(2)
_cell_angle_gamma                90
_cell_volume                     5753.36
loop_
_atom_site_label
_atom_site_type_symbol
_atom_site_fract_x
_atom_site_fract_y
_atom_site_fract_z
Mn1 Mn 0.03479(4) 0.16486(3) 0.24894(4)
Mn2 Mn 0.14082(5) 0.12122(4) 0.44521(4)
S2 S 0.55085(7) 0.27200(6) 0.27372(7)
N1 N 0.2439(4) 0.1506(3) 0.6910(3)
O2 O 0.4302(2) 0.58019(16) 0.1790(2)
O4 O 0.0177(2) 0.23113(19) 0.3431(2)
O5 O 0.1614(2) 0.19097(16) 0.2544(2)
O7 O 0.2049(3) 0.1842(2) 0.3847(2)
O8 O 0.0570(2) 0.19399(18) 0.4668(2)
O9 O 0.1978(3) 0.1246(3) 0.5642(3)
O10 O 0.4442(3) 0.54093(19) 0.0625(2)
O11 O 0.2306(3) 0.0398(3) 0.4280(3)
O18 O 0.5990(2) 0.27421(18) 0.3507(2)
O19 O 0.5761(2) 0.23217(16) 0.2129(2)
O21 O 0.0170(2) 0.58450(19) 0.2122(3)
C1 C 0.0239(3) 0.2346(3) 0.4163(3)
C7 C 0.0009(3) 0.3077(2) 0.5305(3)
H4 H 0.0285 0.2771 0.5651
C15 C 0.2145(3) 0.1948(2) 0.3135(3)
C16 C 0.2976(3) 0.2143(2) 0.3022(3)
C17 C 0.3558(3) 0.2254(2) 0.3688(3)
H9 H 0.3420 0.2209 0.4188
C18 C 0.4322(3) 0.2427(2) 0.3603(3)
H10 H 0.4708 0.2508 0.4045
C19 C 0.4529(3) 0.2482(2) 0.2851(3)
C20 C 0.3957(3) 0.2371(2) 0.2181(3)
H11 H 0.4097 0.2412 0.1681
C21 C 0.3184(3) 0.2201(2) 0.2273(3)
H12 H 0.2795 0.2124 0.1832
C22 C 0.5371(3) 0.3530(2) 0.2355(3)
C23 C 0.5220(3) 0.4036(2) 0.2876(3)
H13 H 0.5264 0.3962 0.3415
C24 C 0.5003(3) 0.4649(2) 0.2552(3)
H14 H 0.4899 0.4994 0.2876
C25 C 0.4941(3) 0.4750(2) 0.1739(3)
C26 C 0.5135(3) 0.4259(2) 0.1254(3)
H15 H 0.5120 0.4340 0.0719
C27 C 0.5355(3) 0.3639(2) 0.1563(3)
H16 H 0.5489 0.3304 0.1239
C28 C 0.4561(3) 0.5368(2) 0.1369(3)
H19 H 0.0027 0.4610 0.2521
H20 H 0.0053 0.3480 0.2354
C43 C 0.2239(6) 0.2348(4) 0.5963(6)
C44 C 0.2209(7) 0.1617(4) 0.6187(5)
C45 C 0.2728(7) 0.2003(6) 0.7478(7)
C46 C 0.2406(8) 0.0759(6) 0.7127(8)
H34 H 0.2167 0.0043 0.4550
H35 H 0.2683 0.0287 0.3978
Mn5 Mn 0.46521(4) 0.66486(3) 0.25106(4)
Mn7 Mn 0.35918(5) 0.62122(4) 0.05479(4)
O22 O 0.0698(2) 0.08019(16) 0.3210(2)
O24 O 0.0388(2) 0.10616(19) 0.1376(2)
O25 O 0.0558(3) 0.04093(19) 0.4375(2)
O27 O 0.0112(2) 0.1001(2) 0.0078(2)
H36 H 0.225557 0.23699 0.749608
H37 H 0.288671 0.177724 0.805671
H38 H 0.326137 0.22396 0.731292
H39 H 0.285885 0.252774 0.610954
H40 H 0.203275 0.240445 0.533305
H41 H 0.184668 0.263044 0.628748
H42 H 0.279828 0.0479868 0.679914
H43 H 0.261097 0.0695983 0.775624
H44 H 0.178576 0.058091 0.697675
Mn3 Mn 0.91367(4) 0.14359(4) 0.05064(4)
S1 S 0.89571(7) 0.48405(6) 0.54291(7)
S3 S 0.94806(9) 0.56815(6) 0.15331(10)
O1 O 0.9951(3) 0.24263(18) 0.1686(2)
O3 O 0.5884(2) 0.6326(2) 0.2529(2)
O6 O 0.5388(2) 0.39384(19) 0.6376(2)
O12 O 0.6568(2) 0.61031(18) 0.3719(2)
O14 O 0.9167(2) 0.24588(17) 0.0531(2)
O15 O 0.5112(2) 0.3999(2) 0.5078(2)
O16 O 0.8929(2) 0.53225(16) 0.4808(2)
O17 O 0.9401(2) 0.49776(17) 0.6199(2)
O20 O 0.9375(3) 0.5985(2) 0.0770(3)
C2 C 0.9902(3) 0.2959(2) 0.4491(3)
C3 C 0.9493(3) 0.3417(3) 0.3983(3)
H1 H 0.9413 0.3340 0.3443
C4 C 0.9203(3) 0.3987(3) 0.4270(3)
H2 H 0.8935 0.4298 0.3924
C5 C 0.9310(3) 0.4098(2) 0.5075(3)
C6 C 0.9706(3) 0.3650(2) 0.5599(3)
H3 H 0.9769 0.3726 0.6139
C8 C 0.7959(3) 0.4657(2) 0.5542(3)
C9 C 0.7359(3) 0.4734(3) 0.4890(3)
H5 H 0.7478 0.4906 0.4420
C10 C 0.6588(3) 0.4547(3) 0.4963(3)
H6 H 0.6173 0.4588 0.4536
C11 C 0.6420(3) 0.4296(2) 0.5679(3)
C12 C 0.7017(3) 0.4252(2) 0.6324(3)
H7 H 0.6896 0.4106 0.6805
C13 C 0.7800(3) 0.4428(2) 0.6252(3)
H8 H 0.8215 0.4391 0.6679
C14 C 0.5595(3) 0.4066(2) 0.5718(3)
C29 C 0.9542(3) 0.2728(2) 0.1142(3)
C30 C 0.9502(3) 0.3461(2) 0.1224(3)
C31 C 0.9166(4) 0.3864(3) 0.0596(3)
H17 H 0.8942 0.3676 0.0117
C32 C 0.9166(4) 0.4543(3) 0.0685(4)
H18 H 0.8954 0.4813 0.0265
C33 C 0.9482(3) 0.4814(2) 0.1402(3)
C34 C 0.9816(3) 0.4421(2) 0.2039(3)
C35 C 0.9826(3) 0.3747(2) 0.1937(3)
C36 C 0.8616(3) 0.5828(2) 0.1954(3)
C37 C 0.7921(4) 0.6026(4) 0.1493(4)
H21 H 0.7911 0.6091 0.0956
C38 C 0.7243(4) 0.6129(4) 0.1817(4)
H22 H 0.6767 0.6258 0.1497
C39 C 0.7249(3) 0.6043(2) 0.2624(3)
C40 C 0.7954(3) 0.5854(2) 0.3093(3)
H23 H 0.7969 0.5802 0.3632
C41 C 0.8635(3) 0.5742(2) 0.2764(3)
H24 H 0.9111 0.5608 0.3079
C42 C 0.6500(3) 0.6167(2) 0.2977(3)
Mn6 Mn 0.53479(4) 0.33514(3) 0.74894(4)
Mn8 Mn 0.58633(4) 0.64359(4) 0.44936(4)
Mn9 Mn 0.41367(4) 0.35641(4) 0.55064(4)
O23 O 0.9116(2) 0.1326(2) 0.2471(2)
O26 O 0.8432(2) 0.11031(18) 0.1281(2)
Mn9_2 Mn 0.08633(4) 0.85641(4) 0.94936(4)
S3_2 S 0.55194(9) 0.06815(6) 0.34669(10)
O16_2 O 0.6071(2) 0.03225(16) 0.0192(2)
O20_2 O 0.5625(3) 0.0985(2) 0.4230(3)
O21_2 O 0.4830(2) 0.08450(19) 0.2878(3)
C28_2 C 0.0439(3) 0.0368(2) 0.3631(3)
C36_2 C 0.6384(3) 0.0828(2) 0.3046(3)
C37_2 C 0.7079(4) 0.1026(4) 0.3507(4)
H21_2 H 0.7089 0.1091 0.4044
C38_2 C 0.7757(4) 0.1129(4) 0.3183(4)
H22_2 H 0.8233 0.1258 0.3503
C39_2 C 0.7751(3) 0.1043(2) 0.2376(3)
C40_2 C 0.7046(3) 0.0854(2) 0.1907(3)
H23_2 H 0.7031 0.0802 0.1368
C41_2 C 0.6365(3) 0.0742(2) 0.2236(3)
H24_2 H 0.5889 0.0608 0.1921
C42_2 C 0.8500(3) 0.1167(2) 0.2023(3)
N2 N 0.7514(4) 0.6206(3) 0.6638(4)
O1_2 O 0.5049(3) 0.74263(18) 0.3314(2)
O4_2 O 0.4823(2) 0.73113(19) 0.1569(2)
O5_2 O 0.3386(2) 0.69097(16) 0.2456(2)
O7_2 O 0.2951(3) 0.6842(2) 0.1153(2)
O8_2 O 0.4430(2) 0.69399(18) 0.0332(2)
O11_2 O 0.2694(3) 0.5398(3) 0.0720(3)
O13 O 0.6613(3) 0.62553(19) 0.5544(3)
O14_2 O 0.5833(2) 0.74588(17) 0.4469(2)
C1_2 C 0.4761(3) 0.7346(3) 0.0837(3)
C2_2 C 0.5098(3) 0.7959(2) 0.0509(3)
C3_2 C 0.5507(3) 0.8417(3) 0.1017(3)
H1_2 H 0.5587 0.8340 0.1557
C4_2 C 0.5797(3) 0.8987(3) 0.0730(3)
H2_2 H 0.6065 0.9298 0.1076
C9_2 C 0.7641(3) 0.9734(3) 0.0110(3)
H5_2 H 0.7522 0.9906 0.0580
C10_2 C 0.8412(3) 0.9547(3) 0.0037(3)
H6_2 H 0.8827 0.9588 0.0464
C15_2 C 0.2855(3) 0.6948(2) 0.1865(3)
C16_2 C 0.2024(3) 0.7143(2) 0.1978(3)
C17_2 C 0.1442(3) 0.7254(2) 0.1312(3)
H9_2 H 0.1580 0.7209 0.0812
C18_2 C 0.0678(3) 0.7427(2) 0.1397(3)
H10_2 H 0.0292 0.7508 0.0955
C19_2 C 0.0471(3) 0.7482(2) 0.2149(3)
C20_2 C 0.1043(3) 0.7371(2) 0.2819(3)
H11_2 H 0.0903 0.7412 0.3319
C21_2 C 0.1816(3) 0.7201(2) 0.2727(3)
H12_2 H 0.2205 0.7124 0.3168
H14_2 H 0.0101 0.9994 0.2124
C25_2 C 0.0059(3) 0.9750(2) 0.3261(3)
C29_2 C 0.5458(3) 0.7728(2) 0.3858(3)
C30_2 C 0.5498(3) 0.8461(2) 0.3776(3)
C31_2 C 0.5834(4) 0.8864(3) 0.4404(3)
H17_2 H 0.6058 0.8676 0.4883
C32_2 C 0.5834(4) 0.9543(3) 0.4315(4)
H18_2 H 0.6046 0.9813 0.4735
C33_2 C 0.5518(3) 0.9814(2) 0.3598(3)
C34_2 C 0.5184(3) 0.9421(2) 0.2961(3)
H19_2 H 0.4973 0.9610 0.2479
C35_2 C 0.5174(3) 0.8747(2) 0.3063(3)
H20_2 H 0.4947 0.8480 0.2646
C47 C 0.7938(5) 0.6567(4) 0.5463(7)
H25 H 0.8449 0.6591 0.5809
H26 H 0.7789 0.6997 0.5258
H27 H 0.7986 0.6273 0.5035
C48 C 0.7294(4) 0.6312(3) 0.5915(5)
C49 C 0.8296(5) 0.6301(5) 0.7085(6)
H28 H 0.8288 0.6180 0.7624
H29 H 0.8449 0.6755 0.7061
H30 H 0.8682 0.6030 0.6874
C50 C 0.6872(5) 0.5974(4) 0.7081(5)
H31 H 0.7101 0.5910 0.7624
H32 H 0.6653 0.5565 0.6861
H33 H 0.6449 0.6297 0.7043
H34_2 H 0.2833 0.5043 0.0450
H35_2 H 0.2317 0.5287 0.1022
O24_2 O 0.4612(2) 0.60616(19) 0.3624(2)
O27_2 O 0.4888(2) 0.6001(2) 0.4922(2)
S1_2 S 0.60429(7) 0.98405(6) 0.95709(7)
N1_2 N 0.2561(4) 0.6506(3) 0.8090(3)
O6_2 O 0.9612(2) 0.89384(19) 0.8624(2)
O9_2 O 0.3022(3) 0.6246(3) 0.9358(3)
O15_2 O 0.9888(2) 0.8999(2) 0.9922(2)
O17_2 O 0.5599(2) 0.99776(17) 0.8801(2)
C5_2 C 0.5690(3) 0.9098(2) 0.9925(3)
C6_2 C 0.5294(3) 0.8650(2) 0.9401(3)
H3_2 H 0.5231 0.8726 0.8861
C7_2 C 0.4991(3) 0.8077(2) 0.9695(3)
H4_2 H 0.4715 0.7771 0.9349
C8_2 C 0.7041(3) 0.9657(2) 0.9458(3)
C11_2 C 0.8580(3) 0.9296(2) 0.9321(3)
C12_2 C 0.7983(3) 0.9252(2) 0.8676(3)
H7_2 H 0.8104 0.9106 0.8195
C13_2 C 0.7200(3) 0.9428(2) 0.8748(3)
H8_2 H 0.6785 0.9391 0.8321
C14_2 C 0.9405(3) 0.9066(2) 0.9282(3)
C43_2 C 0.2761(6) 0.7348(4) 0.9037(6)
C44_2 C 0.2791(7) 0.6617(4) 0.8813(5)
C45_2 C 0.2272(7) 0.7003(6) 0.7522(7)
C46_2 C 0.2594(8) 0.5759(6) 0.7873(8)
Mn6_2 Mn 0.96521(4) 0.83514(3) 0.75106(4)
H36_2 H 0.274443 0.73699 0.750392
H37_2 H 0.211329 0.677724 0.694329
H38_2 H 0.173863 0.72396 0.768708
H39_2 H 0.214115 0.752774 0.889046
H40_2 H 0.296725 0.740445 0.966695
H41_2 H 0.315332 0.763044 0.871252
H42_2 H 0.220172 0.547987 0.820086
H43_2 H 0.238903 0.569598 0.724376
H44_2 H 0.321424 0.558091 0.802325
S1_3 S 0.10429(7) 0.51595(6) 0.45709(7)
S3_3 S 0.05194(9) 0.43185(6) 0.84669(10)
O1_3 O 0.0049(3) 0.75737(18) 0.8314(2)
O3_2 O 0.4116(2) 0.3674(2) 0.7471(2)
O12_2 O 0.3432(2) 0.38969(18) 0.6281(2)
O14_3 O 0.0833(2) 0.75412(17) 0.9469(2)
O16_3 O 0.1071(2) 0.46775(16) 0.5192(2)
O17_3 O 0.0599(2) 0.50224(17) 0.3801(2)
O20_3 O 0.0625(3) 0.4015(2) 0.9230(3)
C2_3 C 0.0098(3) 0.7041(2) 0.5509(3)
C3_3 C 0.0507(3) 0.6583(3) 0.6017(3)
H1_3 H 0.0587 0.6660 0.6557
C4_3 C 0.0797(3) 0.6013(3) 0.5730(3)
H2_3 H 0.1065 0.5702 0.6076
C5_3 C 0.0690(3) 0.5902(2) 0.4925(3)
C6_3 C 0.0294(3) 0.6350(2) 0.4401(3)
H3_3 H 0.0231 0.6274 0.3861
C8_3 C 0.2041(3) 0.5343(2) 0.4458(3)
C9_3 C 0.2641(3) 0.5266(3) 0.5110(3)
H5_3 H 0.2522 0.5094 0.5580
C10_3 C 0.3412(3) 0.5453(3) 0.5037(3)
H6_3 H 0.3827 0.5412 0.5464
C11_3 C 0.3580(3) 0.5704(2) 0.4321(3)
C12_3 C 0.2983(3) 0.5748(2) 0.3676(3)
H7_3 H 0.3104 0.5894 0.3195
C13_3 C 0.2200(3) 0.5572(2) 0.3748(3)
H8_3 H 0.1785 0.5609 0.3321
C14_3 C 0.4405(3) 0.5934(2) 0.4282(3)
C29_3 C 0.0458(3) 0.7272(2) 0.8858(3)
C30_3 C 0.0498(3) 0.6539(2) 0.8776(3)
C31_3 C 0.0834(4) 0.6136(3) 0.9404(3)
H17_3 H 0.1058 0.6324 0.9883
C32_3 C 0.0834(4) 0.5457(3) 0.9315(4)
H18_3 H 0.1046 0.5187 0.9735
C33_3 C 0.0518(3) 0.5186(2) 0.8598(3)
C34_3 C 0.0184(3) 0.5579(2) 0.7961(3)
C35_3 C 0.0174(3) 0.6253(2) 0.8063(3)
C36_3 C 0.1384(3) 0.4172(2) 0.8046(3)
C37_3 C 0.2079(4) 0.3974(4) 0.8507(4)
H21_3 H 0.2089 0.3909 0.9044
C38_3 C 0.2757(4) 0.3871(4) 0.8183(4)
H22_3 H 0.3233 0.3742 0.8503
C39_3 C 0.2751(3) 0.3957(2) 0.7376(3)
C40_3 C 0.2046(3) 0.4146(2) 0.6907(3)
H23_3 H 0.2031 0.4198 0.6368
C41_3 C 0.1365(3) 0.4258(2) 0.7236(3)
H24_3 H 0.0889 0.4392 0.6921
C42_3 C 0.3500(3) 0.3833(2) 0.7023(3)
O23_2 O 0.0884(2) 0.8674(2) 0.7529(2)
O26_2 O 0.1568(2) 0.88969(18) 0.8719(2)
Mn2_2 Mn 0.85918(5) 0.87878(4) 0.55479(4)
S2_2 S 0.44915(7) 0.72800(6) 0.72628(7)
N1_3 N 0.7561(4) 0.8494(3) 0.3090(3)
O2_2 O 0.5698(2) 0.41981(16) 0.8210(2)
O4_3 O 0.9823(2) 0.76887(19) 0.6569(2)
O5_3 O 0.8386(2) 0.80903(16) 0.7456(2)
O7_3 O 0.7951(3) 0.8158(2) 0.6153(2)
O8_3 O 0.9430(2) 0.80601(18) 0.5332(2)
O9_3 O 0.8022(3) 0.8754(3) 0.4358(3)
O10_2 O 0.5558(3) 0.45907(19) 0.9375(2)
O11_3 O 0.7694(3) 0.9602(3) 0.5720(3)
O18_2 O 0.4010(2) 0.72579(18) 0.6493(2)
O19_2 O 0.4239(2) 0.76783(16) 0.7871(2)
O21_3 O 0.9830(2) 0.41550(19) 0.7878(3)
C1_3 C 0.9761(3) 0.7654(3) 0.5837(3)
C7_3 C 0.9991(3) 0.6923(2) 0.4695(3)
H4_3 H 0.9715 0.7229 0.4349
C15_3 C 0.7855(3) 0.8052(2) 0.6865(3)
C16_3 C 0.7024(3) 0.7857(2) 0.6978(3)
C17_3 C 0.6442(3) 0.7746(2) 0.6312(3)
H9_3 H 0.6580 0.7791 0.5812
C18_3 C 0.5678(3) 0.7573(2) 0.6397(3)
H10_3 H 0.5292 0.7492 0.5955
C19_3 C 0.5471(3) 0.7518(2) 0.7149(3)
C20_3 C 0.6043(3) 0.7629(2) 0.7819(3)
H11_3 H 0.5903 0.7588 0.8319
C21_3 C 0.6816(3) 0.7799(2) 0.7727(3)
H12_3 H 0.7205 0.7876 0.8168
C22_2 C 0.4629(3) 0.6470(2) 0.7645(3)
C23_2 C 0.4780(3) 0.5964(2) 0.7124(3)
H13_2 H 0.4736 0.6038 0.6585
C24_2 C 0.4997(3) 0.5351(2) 0.7448(3)
H14_3 H 0.5101 0.5006 0.7124
C25_3 C 0.5059(3) 0.5250(2) 0.8261(3)
C26_2 C 0.4865(3) 0.5741(2) 0.8746(3)
H15_2 H 0.4880 0.5660 0.9281
C27_2 C 0.4645(3) 0.6361(2) 0.8437(3)
H16_2 H 0.4511 0.6696 0.8761
C28_3 C 0.5439(3) 0.4632(2) 0.8631(3)
H19_3 H 0.9973 0.5390 0.7479
H20_3 H 0.9947 0.6520 0.7646
C43_3 C 0.7761(6) 0.7652(4) 0.4037(6)
C44_3 C 0.7791(7) 0.8383(4) 0.3813(5)
C45_3 C 0.7272(7) 0.7997(6) 0.2522(7)
C46_3 C 0.7594(8) 0.9241(6) 0.2873(8)
H34_3 H 0.7833 0.9957 0.5450
H35_3 H 0.7317 0.9713 0.6022
Mn7_2 Mn 0.64082(5) 0.37878(4) 0.94521(4)
O22_2 O 0.9302(2) 0.91981(16) 0.6790(2)
O25_2 O 0.9442(3) 0.95907(19) 0.5625(2)
H36_3 H 0.774443 0.76301 0.250392
H37_3 H 0.711329 0.822276 0.194329
H38_3 H 0.673863 0.77604 0.268708
H39_3 H 0.714115 0.747226 0.389046
H40_3 H 0.796725 0.759555 0.466695
H41_3 H 0.815332 0.736956 0.371252
H42_3 H 0.720172 0.952013 0.320086
H43_3 H 0.738903 0.930402 0.224376
H44_3 H 0.821424 0.941909 0.302325
S1_4 S 0.39571(7) 0.01595(6) 0.04291(7)
N1_4 N 0.7439(4) 0.3494(3) 0.1910(3)
O9_4 O 0.6978(3) 0.3754(3) 0.0642(3)
O17_4 O 0.4401(2) 0.00224(17) 0.1199(2)
C5_4 C 0.4310(3) 0.0902(2) 0.0075(3)
C6_4 C 0.4706(3) 0.1350(2) 0.0599(3)
H3_4 H 0.4769 0.1274 0.1139
C7_4 C 0.5009(3) 0.1923(2) 0.0305(3)
H4_4 H 0.5285 0.2229 0.0651
C8_4 C 0.2959(3) 0.0343(2) 0.0542(3)
C11_4 C 0.1420(3) 0.0704(2) 0.0679(3)
C12_4 C 0.2017(3) 0.0748(2) 0.1324(3)
H7_4 H 0.1896 0.0894 0.1805
C13_4 C 0.2800(3) 0.0572(2) 0.1252(3)
H8_4 H 0.3215 0.0609 0.1679
C14_4 C 0.0595(3) 0.0934(2) 0.0718(3)
C43_4 C 0.7239(6) 0.2652(4) 0.0963(6)
C44_4 C 0.7209(7) 0.3383(4) 0.1187(5)
C45_4 C 0.7728(7) 0.2997(6) 0.2478(7)
C46_4 C 0.7406(8) 0.4241(6) 0.2127(8)
H36_4 H 0.725557 0.26301 0.249608
H37_4 H 0.788671 0.322276 0.305671
H38_4 H 0.826137 0.27604 0.231292
H39_4 H 0.785885 0.247226 0.110954
H40_4 H 0.703275 0.259555 0.0333055
H41_4 H 0.684668 0.236956 0.128748
H42_4 H 0.779828 0.452013 0.179914
H43_4 H 0.761097 0.430402 0.275624
H44_4 H 0.678576 0.441909 0.197675
N2_2 N 0.2486(4) 0.3794(3) 0.3362(4)
O1_4 O 0.4951(3) 0.25737(18) 0.6686(2)
O4_4 O 0.5177(2) 0.26887(19) 0.8431(2)
O5_4 O 0.6614(2) 0.30903(16) 0.7544(2)
O7_4 O 0.7049(3) 0.3158(2) 0.8847(2)
O8_4 O 0.5570(2) 0.30601(18) 0.9668(2)
O11_4 O 0.7306(3) 0.4602(3) 0.9280(3)
O13_2 O 0.3387(3) 0.37447(19) 0.4456(3)
O14_4 O 0.4167(2) 0.25412(17) 0.5531(2)
C1_4 C 0.5239(3) 0.2654(3) 0.9163(3)
C2_4 C 0.4902(3) 0.2041(2) 0.9491(3)
C3_4 C 0.4493(3) 0.1583(3) 0.8983(3)
H1_4 H 0.4413 0.1660 0.8443
C4_4 C 0.4203(3) 0.1013(3) 0.9270(3)
H2_4 H 0.3935 0.0702 0.8924
C9_4 C 0.2359(3) 0.0266(3) 0.9890(3)
H5_4 H 0.2478 0.0094 0.9420
C10_4 C 0.1588(3) 0.0453(3) 0.9963(3)
H6_4 H 0.1173 0.0412 0.9536
C15_4 C 0.7145(3) 0.3052(2) 0.8135(3)
C16_4 C 0.7976(3) 0.2857(2) 0.8022(3)
C17_4 C 0.8558(3) 0.2746(2) 0.8688(3)
H9_4 H 0.8420 0.2791 0.9188
C18_4 C 0.9322(3) 0.2573(2) 0.8603(3)
H10_4 H 0.9708 0.2492 0.9045
C19_4 C 0.9529(3) 0.2518(2) 0.7851(3)
C20_4 C 0.8957(3) 0.2629(2) 0.7181(3)
H11_4 H 0.9097 0.2588 0.6681
C21_4 C 0.8184(3) 0.2799(2) 0.7273(3)
H12_4 H 0.7795 0.2876 0.6832
H14_4 H 0.9899 0.0006 0.7876
C25_4 C 0.9941(3) 0.0250(2) 0.6739(3)
C29_4 C 0.4542(3) 0.2272(2) 0.6142(3)
C30_4 C 0.4502(3) 0.1539(2) 0.6224(3)
C31_4 C 0.4166(4) 0.1136(3) 0.5596(3)
H17_4 H 0.3942 0.1324 0.5117
C32_4 C 0.4166(4) 0.0457(3) 0.5685(4)
H18_4 H 0.3954 0.0187 0.5265
C33_4 C 0.4482(3) 0.0186(2) 0.6402(3)
C34_4 C 0.4816(3) 0.0579(2) 0.7039(3)
H19_4 H 0.5027 0.0390 0.7521
C35_4 C 0.4826(3) 0.1253(2) 0.6937(3)
H20_4 H 0.5053 0.1520 0.7354
C47_2 C 0.2062(5) 0.3433(4) 0.4537(7)
H25_2 H 0.1551 0.3409 0.4191
H26_2 H 0.2211 0.3003 0.4742
H27_2 H 0.2014 0.3727 0.4965
C48_2 C 0.2706(4) 0.3688(3) 0.4085(5)
C49_2 C 0.1704(5) 0.3699(5) 0.2915(6)
H28_2 H 0.1712 0.3820 0.2376
H29_2 H 0.1551 0.3245 0.2939
H30_2 H 0.1318 0.3970 0.3126
C50_2 C 0.3128(5) 0.4026(4) 0.2919(5)
H31_2 H 0.2899 0.4090 0.2376
H32_2 H 0.3347 0.4435 0.3139
H33_2 H 0.3551 0.3703 0.2957
H34_4 H 0.7167 0.4957 0.9550
H35_4 H 0.7683 0.4713 0.8978
S3_4 S 0.44806(9) 0.93185(6) 0.65331(10)
O16_4 O 0.3929(2) 0.96775(16) 0.9808(2)
O20_4 O 0.4375(3) 0.9015(2) 0.5770(3)
O21_4 O 0.5170(2) 0.91550(19) 0.7122(3)
C28_4 C 0.9561(3) 0.9632(2) 0.6369(3)
C36_4 C 0.3616(3) 0.9172(2) 0.6954(3)
C37_4 C 0.2921(4) 0.8974(4) 0.6493(4)
H21_4 H 0.2911 0.8909 0.5956
C38_4 C 0.2243(4) 0.8871(4) 0.6817(4)
H22_4 H 0.1767 0.8742 0.6497
C39_4 C 0.2249(3) 0.8957(2) 0.7624(3)
C40_4 C 0.2954(3) 0.9146(2) 0.8093(3)
H23_4 H 0.2969 0.9198 0.8632
C41_4 C 0.3635(3) 0.9258(2) 0.7764(3)
H24_4 H 0.4111 0.9392 0.8079
C42_4 C 0.1500(3) 0.8833(2) 0.7977(3)
N2_3 N 0.7486(4) 0.1206(3) 0.8362(4)
O13_3 O 0.8387(3) 0.12553(19) 0.9456(3)
C47_3 C 0.7062(5) 0.1567(4) 0.9537(7)
H25_3 H 0.6551 0.1591 0.9191
H26_3 H 0.7211 0.1997 0.9742
H27_3 H 0.7014 0.1273 0.9965
C48_3 C 0.7706(4) 0.1312(3) 0.9085(5)
C49_3 C 0.6704(5) 0.1301(5) 0.7915(6)
H28_3 H 0.6712 0.1180 0.7376
H29_3 H 0.6551 0.1755 0.7939
H30_3 H 0.6318 0.1030 0.8126
C50_3 C 0.8128(5) 0.0974(4) 0.7919(5)
H31_3 H 0.7899 0.0910 0.7376
H32_3 H 0.8347 0.0565 0.8139
H33_3 H 0.8551 0.1297 0.7957
S2_3 S 0.94915(7) 0.77200(6) 0.22628(7)
O18_3 O 0.9010(2) 0.77421(18) 0.1493(2)
O19_3 O 0.9239(2) 0.73217(16) 0.2871(2)
C22_3 C 0.9629(3) 0.8530(2) 0.2645(3)
C23_3 C 0.9780(3) 0.9036(2) 0.2124(3)
H13_3 H 0.9736 0.8962 0.1585
C24_3 C 0.9997(3) 0.9649(2) 0.2448(3)
C26_3 C 0.9865(3) 0.9259(2) 0.3746(3)
H15_3 H 0.9880 0.9340 0.4281
C27_3 C 0.9645(3) 0.8639(2) 0.3437(3)
H16_3 H 0.9511 0.8304 0.3761
N2_4 N 0.2514(4) 0.8794(3) 0.1638(4)
O13_4 O 0.1613(3) 0.87447(19) 0.0544(3)
C47_4 C 0.2938(5) 0.8433(4) 0.0463(7)
H25_4 H 0.3449 0.8409 0.0809
H26_4 H 0.2789 0.8003 0.0258
H27_4 H 0.2986 0.8727 0.0035
C48_4 C 0.2294(4) 0.8688(3) 0.0915(5)
C49_4 C 0.3296(5) 0.8699(5) 0.2085(6)
H28_4 H 0.3288 0.8820 0.2624
H29_4 H 0.3449 0.8245 0.2061
H30_4 H 0.3682 0.8970 0.1874
C50_4 C 0.1872(5) 0.9026(4) 0.2081(5)
H31_4 H 0.2101 0.9090 0.2624
H32_4 H 0.1653 0.9435 0.1861
H33_4 H 0.1449 0.8703 0.2043
S2_4 S 0.05085(7) 0.22800(6) 0.77372(7)
O18_4 O 0.0990(2) 0.22579(18) 0.8507(2)
O19_4 O 0.0761(2) 0.26783(16) 0.7129(2)
C22_4 C 0.0371(3) 0.1470(2) 0.7355(3)
C23_4 C 0.0220(3) 0.0964(2) 0.7876(3)
H13_4 H 0.0264 0.1038 0.8415
C24_4 C 0.0003(3) 0.0351(2) 0.7552(3)
C26_4 C 0.0135(3) 0.0741(2) 0.6254(3)
H15_4 H 0.0120 0.0660 0.5719
C27_4 C 0.0355(3) 0.1361(2) 0.6563(3)
H16_4 H 0.0489 0.1696 0.6239
loop_
_geom_bond_atom_site_label_1
_geom_bond_atom_site_label_2
_geom_bond_site_symmetry_1
_geom_bond_site_symmetry_2
Mn2 O7 1_555 1_555
S2 O18 1_555 1_555
N1 C44 1_555 1_555
O2 C28 1_555 1_555
O4 Mn1 1_555 1_555
O5 Mn1 1_555 1_555
O7 C15 1_555 1_555
O8 Mn2 1_555 1_555
O9 Mn2 1_555 1_555
O10 C28 1_555 1_555
O11 Mn2 1_555 1_555
O19 S2 1_555 1_555
C1 O4 1_555 1_555
H4 C7 1_555 1_555
C15 O5 1_555 1_555
C16 C15 1_555 1_555
C17 C16 1_555 1_555
H9 C17 1_555 1_555
C18 C17 1_555 1_555
H10 C18 1_555 1_555
C19 S2 1_555 1_555
C20 C19 1_555 1_555
H11 C20 1_555 1_555
C21 C16 1_555 1_555
H12 C21 1_555 1_555
C22 S2 1_555 1_555
C23 C22 1_555 1_555
H13 C23 1_555 1_555
C24 C23 1_555 1_555
H14 C24 1_555 1_555
C25 C24 1_555 1_555
C26 C25 1_555 1_555
H15 C26 1_555 1_555
C27 C22 1_555 1_555
H16 C27 1_555 1_555
C28 C25 1_555 1_555
C43 C44 1_555 1_555
C44 O9 1_555 1_555
C45 N1 1_555 1_555
C46 N1 1_555 1_555
H34 O11 1_555 1_555
H35 O11 1_555 1_555
Mn5 O2 1_555 1_555
Mn7 O2 1_555 1_555
O22 Mn1 1_555 1_555
O24 Mn1 1_555 1_555
O25 Mn2 1_555 1_555
Mn2 O22 1_555 1_555
O8 C1 1_555 1_555
O10 Mn7 1_555 1_555
C18 C19 1_555 1_555
C20 C21 1_555 1_555
C26 C27 1_555 1_555
C45 H36 1_555 1_555
C45 H37 1_555 1_555
C45 H38 1_555 1_555
C43 H39 1_555 1_555
C43 H40 1_555 1_555
C43 H41 1_555 1_555
C46 H42 1_555 1_555
C46 H43 1_555 1_555
C46 H44 1_555 1_555
S1 O16 1_555 1_555
S3 O20 1_555 1_555
O1 C29 1_555 1_555
O3 C42 1_555 1_555
O6 C14 1_555 1_555
O12 C42 1_555 1_555
O14 Mn3 1_555 1_555
O15 C14 1_555 1_555
O17 S1 1_555 1_555
C3 C2 1_555 1_555
H1 C3 1_555 1_555
C4 C3 1_555 1_555
H2 C4 1_555 1_555
C5 S1 1_555 1_555
C6 C5 1_555 1_555
H3 C6 1_555 1_555
C8 S1 1_555 1_555
C9 C8 1_555 1_555
H5 C9 1_555 1_555
C10 C9 1_555 1_555
H6 C10 1_555 1_555
C11 C10 1_555 1_555
C12 C11 1_555 1_555
H7 C12 1_555 1_555
C13 C8 1_555 1_555
H8 C13 1_555 1_555
C14 C11 1_555 1_555
C29 O14 1_555 1_555
C30 C29 1_555 1_555
C31 C30 1_555 1_555
H17 C31 1_555 1_555
C32 C31 1_555 1_555
H18 C32 1_555 1_555
C33 S3 1_555 1_555
C34 C33 1_555 1_555
C35 C30 1_555 1_555
C36 S3 1_555 1_555
C37 C36 1_555 1_555
H21 C37 1_555 1_555
C38 C37 1_555 1_555
H22 C38 1_555 1_555
C39 C38 1_555 1_555
C40 C39 1_555 1_555
H23 C40 1_555 1_555
C41 C36 1_555 1_555
H24 C41 1_555 1_555
C42 C39 1_555 1_555
Mn5 O3 1_555 1_555
Mn6 O6 1_555 1_555
Mn8 O12 1_555 1_555
Mn9 O15 1_555 1_555
O26 Mn3 1_555 1_555
C4 C5 1_555 1_555
C12 C13 1_555 1_555
C32 C33 1_555 1_555
C34 C35 1_555 1_555
C40 C41 1_555 1_555
S3_2 O20_2 1_555 1_555
O22 C28_2 1_555 1_555
O23 C42_2 1_555 1_555
O25 C28_2 1_555 1_555
O26 C42_2 1_555 1_555
O21_2 S3_2 1_555 1_555
C36_2 S3_2 1_555 1_555
C37_2 C36_2 1_555 1_555
H21_2 C37_2 1_555 1_555
C38_2 C37_2 1_555 1_555
H22_2 C38_2 1_555 1_555
C39_2 C38_2 1_555 1_555
C40_2 C39_2 1_555 1_555
H23_2 C40_2 1_555 1_555
C41_2 C36_2 1_555 1_555
H24_2 C41_2 1_555 1_555
C42_2 C39_2 1_555 1_555
C40_2 C41_2 1_555 1_555
Mn5 O1_2 1_555 1_555
Mn7 O7_2 1_555 1_555
Mn8 O13 1_555 1_555
N2 C48 1_555 1_555
O1_2 C29_2 1_555 1_555
O4_2 Mn5 1_555 1_555
O5_2 Mn5 1_555 1_555
O7_2 C15_2 1_555 1_555
O8_2 Mn7 1_555 1_555
O11_2 Mn7 1_555 1_555
O13 C48 1_555 1_555
O14_2 Mn8 1_555 1_555
C1_2 O4_2 1_555 1_555
C2_2 C1_2 1_555 1_555
C3_2 C2_2 1_555 1_555
H1_2 C3_2 1_555 1_555
C4_2 C3_2 1_555 1_555
H2_2 C4_2 1_555 1_555
H5_2 C9_2 1_555 1_555
C10_2 C9_2 1_555 1_555
H6_2 C10_2 1_555 1_555
C15_2 O5_2 1_555 1_555
C16_2 C15_2 1_555 1_555
C17_2 C16_2 1_555 1_555
H9_2 C17_2 1_555 1_555
C18_2 C17_2 1_555 1_555
H10_2 C18_2 1_555 1_555
C20_2 C19_2 1_555 1_555
H11_2 C20_2 1_555 1_555
C21_2 C16_2 1_555 1_555
H12_2 C21_2 1_555 1_555
C29_2 O14_2 1_555 1_555
C30_2 C29_2 1_555 1_555
C31_2 C30_2 1_555 1_555
H17_2 C31_2 1_555 1_555
C32_2 C31_2 1_555 1_555
H18_2 C32_2 1_555 1_555
C34_2 C33_2 1_555 1_555
H19_2 C34_2 1_555 1_555
C35_2 C30_2 1_555 1_555
H20_2 C35_2 1_555 1_555
C47 H25 1_555 1_555
H26 C47 1_555 1_555
H27 C47 1_555 1_555
C48 C47 1_555 1_555
C49 N2 1_555 1_555
H28 C49 1_555 1_555
H29 C49 1_555 1_555
H30 C49 1_555 1_555
C50 N2 1_555 1_555
H31 C50 1_555 1_555
H32 C50 1_555 1_555
H33 C50 1_555 1_555
H34_2 O11_2 1_555 1_555
H35_2 O11_2 1_555 1_555
O24_2 Mn5 1_555 1_555
O27_2 Mn8 1_555 1_555
O8_2 C1_2 1_555 1_555
C18_2 C19_2 1_555 1_555
C20_2 C21_2 1_555 1_555
C32_2 C33_2 1_555 1_555
C34_2 C35_2 1_555 1_555
N1_2 C44_2 1_555 1_555
O6_2 C14_2 1_555 1_555
O15_2 C14_2 1_555 1_555
O17_2 S1_2 1_555 1_555
C5_2 S1_2 1_555 1_555
C6_2 C5_2 1_555 1_555
H3_2 C6_2 1_555 1_555
H4_2 C7_2 1_555 1_555
C8_2 S1_2 1_555 1_555
C12_2 C11_2 1_555 1_555
H7_2 C12_2 1_555 1_555
C13_2 C8_2 1_555 1_555
H8_2 C13_2 1_555 1_555
C14_2 C11_2 1_555 1_555
C43_2 C44_2 1_555 1_555
C44_2 O9_2 1_555 1_555
C45_2 N1_2 1_555 1_555
C46_2 N1_2 1_555 1_555
Mn6_2 O6_2 1_555 1_555
C6_2 C7_2 1_555 1_555
C12_2 C13_2 1_555 1_555
C45_2 H36_2 1_555 1_555
C45_2 H37_2 1_555 1_555
C45_2 H38_2 1_555 1_555
C43_2 H39_2 1_555 1_555
C43_2 H40_2 1_555 1_555
C43_2 H41_2 1_555 1_555
C46_2 H42_2 1_555 1_555
C46_2 H43_2 1_555 1_555
C46_2 H44_2 1_555 1_555
S1_3 O16_3 1_555 1_555
S3_3 O20_3 1_555 1_555
O1_3 C29_3 1_555 1_555
O3_2 C42_3 1_555 1_555
O24_2 C14_3 1_555 1_555
O12_2 C42_3 1_555 1_555
O14_3 Mn9_2 1_555 1_555
O27_2 C14_3 1_555 1_555
O17_3 S1_3 1_555 1_555
C3_3 C2_3 1_555 1_555
H1_3 C3_3 1_555 1_555
C4_3 C3_3 1_555 1_555
H2_3 C4_3 1_555 1_555
C5_3 S1_3 1_555 1_555
C6_3 C5_3 1_555 1_555
H3_3 C6_3 1_555 1_555
C8_3 S1_3 1_555 1_555
C9_3 C8_3 1_555 1_555
H5_3 C9_3 1_555 1_555
C10_3 C9_3 1_555 1_555
H6_3 C10_3 1_555 1_555
C11_3 C10_3 1_555 1_555
C12_3 C11_3 1_555 1_555
H7_3 C12_3 1_555 1_555
C13_3 C8_3 1_555 1_555
H8_3 C13_3 1_555 1_555
C14_3 C11_3 1_555 1_555
C29_3 O14_3 1_555 1_555
C30_3 C29_3 1_555 1_555
C31_3 C30_3 1_555 1_555
H17_3 C31_3 1_555 1_555
C32_3 C31_3 1_555 1_555
H18_3 C32_3 1_555 1_555
C33_3 S3_3 1_555 1_555
C34_3 C33_3 1_555 1_555
C35_3 C30_3 1_555 1_555
C36_3 S3_3 1_555 1_555
C37_3 C36_3 1_555 1_555
H21_3 C37_3 1_555 1_555
C38_3 C37_3 1_555 1_555
H22_3 C38_3 1_555 1_555
C39_3 C38_3 1_555 1_555
C40_3 C39_3 1_555 1_555
H23_3 C40_3 1_555 1_555
C41_3 C36_3 1_555 1_555
H24_3 C41_3 1_555 1_555
C42_3 C39_3 1_555 1_555
Mn6 O3_2 1_555 1_555
Mn9 O12_2 1_555 1_555
O26_2 Mn9_2 1_555 1_555
C4_3 C5_3 1_555 1_555
C12_3 C13_3 1_555 1_555
C32_3 C33_3 1_555 1_555
C34_3 C35_3 1_555 1_555
C40_3 C41_3 1_555 1_555
Mn2_2 O7_3 1_555 1_555
S2_2 O18_2 1_555 1_555
N1_3 C44_3 1_555 1_555
O2_2 C28_3 1_555 1_555
O4_3 Mn6_2 1_555 1_555
O5_3 Mn6_2 1_555 1_555
O7_3 C15_3 1_555 1_555
O8_3 Mn2_2 1_555 1_555
O9_3 Mn2_2 1_555 1_555
O10_2 C28_3 1_555 1_555
O11_3 Mn2_2 1_555 1_555
O19_2 S2_2 1_555 1_555
C1_3 O4_3 1_555 1_555
H4_3 C7_3 1_555 1_555
C15_3 O5_3 1_555 1_555
C16_3 C15_3 1_555 1_555
C17_3 C16_3 1_555 1_555
H9_3 C17_3 1_555 1_555
C18_3 C17_3 1_555 1_555
H10_3 C18_3 1_555 1_555
C19_3 S2_2 1_555 1_555
C20_3 C19_3 1_555 1_555
H11_3 C20_3 1_555 1_555
C21_3 C16_3 1_555 1_555
H12_3 C21_3 1_555 1_555
C22_2 S2_2 1_555 1_555
C23_2 C22_2 1_555 1_555
H13_2 C23_2 1_555 1_555
C24_2 C23_2 1_555 1_555
H14_3 C24_2 1_555 1_555
C25_3 C24_2 1_555 1_555
C26_2 C25_3 1_555 1_555
H15_2 C26_2 1_555 1_555
C27_2 C22_2 1_555 1_555
H16_2 C27_2 1_555 1_555
C28_3 C25_3 1_555 1_555
C43_3 C44_3 1_555 1_555
C44_3 O9_3 1_555 1_555
C45_3 N1_3 1_555 1_555
C46_3 N1_3 1_555 1_555
H34_3 O11_3 1_555 1_555
H35_3 O11_3 1_555 1_555
Mn6 O2_2 1_555 1_555
Mn7_2 O2_2 1_555 1_555
O22_2 Mn6_2 1_555 1_555
O25_2 Mn2_2 1_555 1_555
Mn2_2 O22_2 1_555 1_555
O8_3 C1_3 1_555 1_555
O10_2 Mn7_2 1_555 1_555
C18_3 C19_3 1_555 1_555
C20_3 C21_3 1_555 1_555
C26_2 C27_2 1_555 1_555
C45_3 H36_3 1_555 1_555
C45_3 H37_3 1_555 1_555
C45_3 H38_3 1_555 1_555
C43_3 H39_3 1_555 1_555
C43_3 H40_3 1_555 1_555
C43_3 H41_3 1_555 1_555
C46_3 H42_3 1_555 1_555
C46_3 H43_3 1_555 1_555
C46_3 H44_3 1_555 1_555
N1_4 C44_4 1_555 1_555
O24 C14_4 1_555 1_555
O27 C14_4 1_555 1_555
O17_4 S1_4 1_555 1_555
C5_4 S1_4 1_555 1_555
C6_4 C5_4 1_555 1_555
H3_4 C6_4 1_555 1_555
H4_4 C7_4 1_555 1_555
C8_4 S1_4 1_555 1_555
C12_4 C11_4 1_555 1_555
H7_4 C12_4 1_555 1_555
C13_4 C8_4 1_555 1_555
H8_4 C13_4 1_555 1_555
C14_4 C11_4 1_555 1_555
C43_4 C44_4 1_555 1_555
C44_4 O9_4 1_555 1_555
C45_4 N1_4 1_555 1_555
C46_4 N1_4 1_555 1_555
C6_4 C7_4 1_555 1_555
C12_4 C13_4 1_555 1_555
C45_4 H36_4 1_555 1_555
C45_4 H37_4 1_555 1_555
C45_4 H38_4 1_555 1_555
C43_4 H39_4 1_555 1_555
C43_4 H40_4 1_555 1_555
C43_4 H41_4 1_555 1_555
C46_4 H42_4 1_555 1_555
C46_4 H43_4 1_555 1_555
C46_4 H44_4 1_555 1_555
Mn6 O1_4 1_555 1_555
Mn7_2 O7_4 1_555 1_555
Mn9 O13_2 1_555 1_555
N2_2 C48_2 1_555 1_555
O1_4 C29_4 1_555 1_555
O4_4 Mn6 1_555 1_555
O5_4 Mn6 1_555 1_555
O7_4 C15_4 1_555 1_555
O8_4 Mn7_2 1_555 1_555
O11_4 Mn7_2 1_555 1_555
O13_2 C48_2 1_555 1_555
O14_4 Mn9 1_555 1_555
C1_4 O4_4 1_555 1_555
C2_4 C1_4 1_555 1_555
C3_4 C2_4 1_555 1_555
H1_4 C3_4 1_555 1_555
C4_4 C3_4 1_555 1_555
H2_4 C4_4 1_555 1_555
H5_4 C9_4 1_555 1_555
C10_4 C9_4 1_555 1_555
H6_4 C10_4 1_555 1_555
C15_4 O5_4 1_555 1_555
C16_4 C15_4 1_555 1_555
C17_4 C16_4 1_555 1_555
H9_4 C17_4 1_555 1_555
C18_4 C17_4 1_555 1_555
H10_4 C18_4 1_555 1_555
C20_4 C19_4 1_555 1_555
H11_4 C20_4 1_555 1_555
C21_4 C16_4 1_555 1_555
H12_4 C21_4 1_555 1_555
C29_4 O14_4 1_555 1_555
C30_4 C29_4 1_555 1_555
C31_4 C30_4 1_555 1_555
H17_4 C31_4 1_555 1_555
C32_4 C31_4 1_555 1_555
H18_4 C32_4 1_555 1_555
C34_4 C33_4 1_555 1_555
H19_4 C34_4 1_555 1_555
C35_4 C30_4 1_555 1_555
H20_4 C35_4 1_555 1_555
C47_2 H25_2 1_555 1_555
H26_2 C47_2 1_555 1_555
H27_2 C47_2 1_555 1_555
C48_2 C47_2 1_555 1_555
C49_2 N2_2 1_555 1_555
H28_2 C49_2 1_555 1_555
H29_2 C49_2 1_555 1_555
H30_2 C49_2 1_555 1_555
C50_2 N2_2 1_555 1_555
H31_2 C50_2 1_555 1_555
H32_2 C50_2 1_555 1_555
H33_2 C50_2 1_555 1_555
H34_4 O11_4 1_555 1_555
H35_4 O11_4 1_555 1_555
O8_4 C1_4 1_555 1_555
C18_4 C19_4 1_555 1_555
C20_4 C21_4 1_555 1_555
C32_4 C33_4 1_555 1_555
C34_4 C35_4 1_555 1_555
S3_4 O20_4 1_555 1_555
O22_2 C28_4 1_555 1_555
O23_2 C42_4 1_555 1_555
O25_2 C28_4 1_555 1_555
O26_2 C42_4 1_555 1_555
O21_4 S3_4 1_555 1_555
C36_4 S3_4 1_555 1_555
C37_4 C36_4 1_555 1_555
H21_4 C37_4 1_555 1_555
C38_4 C37_4 1_555 1_555
H22_4 C38_4 1_555 1_555
C39_4 C38_4 1_555 1_555
C40_4 C39_4 1_555 1_555
H23_4 C40_4 1_555 1_555
C41_4 C36_4 1_555 1_555
H24_4 C41_4 1_555 1_555
C42_4 C39_4 1_555 1_555
C40_4 C41_4 1_555 1_555
N2_3 C48_3 1_555 1_555
O13_3 C48_3 1_555 1_555
C47_3 H25_3 1_555 1_555
H26_3 C47_3 1_555 1_555
H27_3 C47_3 1_555 1_555
C48_3 C47_3 1_555 1_555
C49_3 N2_3 1_555 1_555
H28_3 C49_3 1_555 1_555
H29_3 C49_3 1_555 1_555
H30_3 C49_3 1_555 1_555
C50_3 N2_3 1_555 1_555
H31_3 C50_3 1_555 1_555
H32_3 C50_3 1_555 1_555
H33_3 C50_3 1_555 1_555
S2_3 O18_3 1_555 1_555
O19_3 S2_3 1_555 1_555
C22_3 S2_3 1_555 1_555
C23_3 C22_3 1_555 1_555
H13_3 C23_3 1_555 1_555
C24_3 C23_3 1_555 1_555
H15_3 C26_3 1_555 1_555
C27_3 C22_3 1_555 1_555
H16_3 C27_3 1_555 1_555
C26_3 C27_3 1_555 1_555
N2_4 C48_4 1_555 1_555
O13_4 C48_4 1_555 1_555
C47_4 H25_4 1_555 1_555
H26_4 C47_4 1_555 1_555
H27_4 C47_4 1_555 1_555
C48_4 C47_4 1_555 1_555
C49_4 N2_4 1_555 1_555
H28_4 C49_4 1_555 1_555
H29_4 C49_4 1_555 1_555
H30_4 C49_4 1_555 1_555
C50_4 N2_4 1_555 1_555
H31_4 C50_4 1_555 1_555
H32_4 C50_4 1_555 1_555
H33_4 C50_4 1_555 1_555
S2_4 O18_4 1_555 1_555
O19_4 S2_4 1_555 1_555
C22_4 S2_4 1_555 1_555
C23_4 C22_4 1_555 1_555
H13_4 C23_4 1_555 1_555
C24_4 C23_4 1_555 1_555
H15_4 C26_4 1_555 1_555
C27_4 C22_4 1_555 1_555
H16_4 C27_4 1_555 1_555
C26_4 C27_4 1_555 1_555

#END
