
###############################################################################
#
# This file contains modified crystal structure data generated from the
# MOF subset of the Cambridge Structural Database (CSD) v543 
# hosted by the Cambridge Crystallographic Data Centre (CCDC).
#
# This work is licensed under the Creative Commons
# Attribution-NonCommercial-ShareAlike 4.0 International License.
# To view a copy of this license, visit
# http://creativecommons.org/licenses/by-nc-sa/4.0/
# or send a letter to
# Creative Commons, PO Box 1866, Mountain View, CA 94042, USA.
#
# CIF created using the CSD Python API on 29 September 2022
# The structure has been converted into the P1 space group
# The structure has a 3D framework
# The original CSD entry PUGSIV is in the monoclinic crystal system
# The framework has been calculated to contain at least 10.0% void space
# The void calculation uses a probe of radius 1.32A, grid spacing 0.4
# The framework is charged, counterions have been retained in the structure
#
###############################################################################

data_PUGSIV
_chemical_formula_moiety         '(C144 H96 N4 O56 Zn16)n'
_symmetry_cell_setting           triclinic
_symmetry_space_group_name_H-M   'P 1'
_symmetry_Int_Tables_number      1
_space_group_name_Hall           'P 1'
loop_
_symmetry_equiv_pos_site_id
_symmetry_equiv_pos_as_xyz
1 x,y,z
_cell_length_a                   10.306(2)
_cell_length_b                   27.776(6)
_cell_length_c                   26.232(5)
_cell_angle_alpha                90
_cell_angle_beta                 91.84(3)
_cell_angle_gamma                90
_cell_volume                     7505.29
loop_
_atom_site_label
_atom_site_type_symbol
_atom_site_fract_x
_atom_site_fract_y
_atom_site_fract_z
Zn17 Zn 0.04443(3) 0.662907(13) 0.372541(14)
C1 C 0.3097(3) 0.69610(11) 0.37021(12)
C2 C 0.4348(3) 0.70841(12) 0.39815(13)
C3 C 0.5500(3) 0.69719(13) 0.37461(12)
H1 H 0.5479 0.6842 0.3419
C4 C 0.6677(3) 0.70533(13) 0.39994(13)
C5 C 0.6714(3) 0.72535(14) 0.44854(13)
H2 H 0.7511 0.7310 0.4651
C6 C 0.5568(3) 0.73718(15) 0.47291(13)
C7 C 0.4386(3) 0.72776(13) 0.44713(13)
H3 H 0.3612 0.7345 0.4630
C8 C 0.7899(3) 0.68888(13) 0.37543(13)
C9 C 0.5612(3) 0.75801(15) 0.52504(14)
C10 C 0.6619(4) 0.7475(2) 0.55901(16)
H4 H 0.7289 0.7277 0.5487
C11 C 0.6657(4) 0.76559(19) 0.60783(16)
H5 H 0.7349 0.7578 0.6299
C12 C 0.5688(4) 0.79508(15) 0.62442(14)
C13 C 0.4669(4) 0.80610(17) 0.59089(16)
H6 H 0.4008 0.8263 0.6011
C14 C 0.4632(4) 0.78711(18) 0.54225(16)
H7 H 0.3928 0.7941 0.5205
C15 C 0.5726(3) 0.81453(14) 0.67795(13)
C31 C 0.0327(4) 0.56008(14) 0.41080(15)
C32 C 0.0152(4) 0.52890(15) 0.45724(15)
C33 C 0.0128(6) 0.48039(19) 0.45325(19)
H15 H 0.0245 0.4660 0.4217
C34 C 0.0070(6) 0.54809(18) 0.50430(17)
H16 H 0.0149 0.5812 0.5083
O1 O 0.04229(17) 0.63662(7) 0.30456(7)
O2 O 0.2099(2) 0.69135(9) 0.39667(9)
O3 O 0.3158(2) 0.69061(9) 0.32303(9)
O4 O 0.7784(2) 0.66732(11) 0.33416(11)
O5 O 0.8961(2) 0.69725(9) 0.39923(10)
O6 O 0.6728(2) 0.80427(10) 0.70500(10)
O7 O 0.4787(3) 0.83823(10) 0.69270(10)
O14 O 0.0416(3) 0.60414(10) 0.41799(10)
O15 O 0.0359(3) 0.53896(10) 0.36828(10)
Zn1 Zn 0.18552(3) 0.668494(12) 0.272614(13)
Zn4 Zn 0.04077(3) 0.567871(12) 0.299933(13)
C54 C 0.2231(3) 0.43277(11) 0.74582(12)
C55 C 0.3483(3) 0.46042(11) 0.75049(12)
C56 C 0.4641(3) 0.43593(11) 0.74769(13)
H26 H 0.4643 0.4025 0.7453
C57 C 0.5804(3) 0.46108(11) 0.74845(13)
C58 C 0.5799(3) 0.51089(11) 0.75365(14)
H27 H 0.6582 0.5276 0.7546
C59 C 0.4631(3) 0.53641(12) 0.75752(15)
C60 C 0.3475(3) 0.51001(12) 0.75482(14)
H28 H 0.2685 0.5261 0.7560
C61 C 0.7051(3) 0.43425(11) 0.74111(13)
C62 C 0.4643(3) 0.58918(12) 0.76327(16)
C63 C 0.5666(4) 0.61233(15) 0.7887(2)
H29 H 0.6351 0.5944 0.8028
C64 C 0.5673(4) 0.66224(15) 0.7934(2)
H30 H 0.6369 0.6772 0.8104
C65 C 0.4683(4) 0.68975(13) 0.77370(17)
C66 C 0.3656(4) 0.66685(14) 0.7492(2)
H31 H 0.2968 0.6850 0.7358
C67 C 0.3629(4) 0.61758(14) 0.7441(2)
H32 H 0.2921 0.6030 0.7275
C68 C 0.4720(4) 0.74334(13) 0.77923(17)
O25 O 0.2298(2) 0.38852(8) 0.75477(9)
O26 O 0.1221(2) 0.45576(8) 0.73303(10)
O27 O 0.7017(2) 0.38996(8) 0.74570(10)
O28 O 0.8044(2) 0.45906(8) 0.73032(9)
O29 O 0.5677(3) 0.76196(11) 0.80081(15)
O30 O 0.3778(3) 0.76655(9) 0.75947(12)
Zn6 Zn 0.10807(3) 0.336736(12) 0.733377(13)
O32 O 0.2216(2) 0.33268(11) 0.66584(11)
O34 O 0.1039(2) 0.30275(9) 0.60077(10)
O36 O 0.1728(2) 0.69573(10) 0.20500(10)
O37 O 0.0213(3) 0.33823(10) 0.80730(10)
O39 O 0.2983(2) 0.61004(8) 0.25430(10)
O41 O 0.1956(2) 0.54094(8) 0.26968(9)
O43 O 0.0677(3) 0.73804(11) 0.30081(15)
O46 O 0.1222(3) 0.26655(9) 0.74053(12)
Zn11 Zn 0.81448(3) 0.331506(12) 0.727386(13)
Zn12 Zn 0.68552(3) 0.831506(12) 0.772614(13)
Zn13 Zn 0.89193(3) 0.663264(12) 0.266623(13)
Zn16 Zn 0.39193(3) 0.836736(12) 0.766623(13)
Zn20 Zn 0.95923(3) 0.432129(12) 0.700067(13)
C16 C 0.7769(3) 0.56723(11) 0.25418(12)
C17 C 0.6517(3) 0.53958(11) 0.24951(12)
C18 C 0.5359(3) 0.56407(11) 0.25231(13)
H8 H 0.5357 0.5975 0.2547
C19 C 0.4196(3) 0.53892(11) 0.25155(13)
C20 C 0.4201(3) 0.48911(11) 0.24635(14)
H9 H 0.3418 0.4724 0.2454
C21 C 0.5369(3) 0.46359(12) 0.24248(15)
C22 C 0.6525(3) 0.48999(12) 0.24518(14)
H10 H 0.7315 0.4739 0.2440
C23 C 0.2949(3) 0.56575(11) 0.25889(13)
C24 C 0.5357(3) 0.41082(12) 0.23673(16)
C25 C 0.4334(4) 0.38767(15) 0.2113(2)
H11 H 0.3649 0.4056 0.1972
C26 C 0.4327(4) 0.33776(15) 0.2066(2)
H12 H 0.3631 0.3228 0.1896
C27 C 0.5317(4) 0.31025(13) 0.22630(17)
C28 C 0.6344(4) 0.33315(14) 0.2508(2)
H13 H 0.7032 0.3150 0.2642
C29 C 0.6371(4) 0.38242(14) 0.2559(2)
H14 H 0.7079 0.3970 0.2725
C30 C 0.5280(4) 0.25666(13) 0.22077(17)
O8 O 0.7702(2) 0.61148(8) 0.24523(9)
O9 O 0.8779(2) 0.54424(8) 0.26697(10)
O12 O 0.4323(3) 0.23804(11) 0.19919(15)
O13 O 0.6222(3) 0.23345(9) 0.24053(12)
C35 C 0.9673(4) 0.43992(14) 0.58920(15)
C36 C 0.9848(4) 0.47110(15) 0.54276(15)
C37 C 0.9872(6) 0.51961(19) 0.54675(19)
H17 H 0.9755 0.5340 0.5783
C38 C 0.9930(6) 0.45191(18) 0.49570(17)
H18 H 0.9851 0.4188 0.4917
O16 O 0.9584(3) 0.39586(10) 0.58201(10)
O17 O 0.9641(3) 0.46104(10) 0.63172(10)
C39 C 0.6903(3) 0.30390(11) 0.62979(12)
C40 C 0.5652(3) 0.29159(12) 0.60185(13)
C41 C 0.4500(3) 0.30281(13) 0.62539(12)
H19 H 0.4521 0.3158 0.6581
C42 C 0.3323(3) 0.29467(13) 0.60006(13)
C43 C 0.3286(3) 0.27465(14) 0.55146(13)
H20 H 0.2489 0.2690 0.5349
C44 C 0.4432(3) 0.26282(15) 0.52709(13)
C45 C 0.5614(3) 0.27224(13) 0.55287(13)
H21 H 0.6388 0.2655 0.5370
C46 C 0.2101(3) 0.31112(13) 0.62457(13)
C47 C 0.4388(3) 0.24199(15) 0.47496(14)
C48 C 0.3381(4) 0.2525(2) 0.44099(16)
H22 H 0.2711 0.2723 0.4513
C49 C 0.3343(4) 0.23441(19) 0.39217(16)
H23 H 0.2651 0.2422 0.3701
C50 C 0.4312(4) 0.20492(15) 0.37558(14)
C51 C 0.5331(4) 0.19390(17) 0.40911(16)
H24 H 0.5992 0.1737 0.3989
C52 C 0.5368(4) 0.21289(18) 0.45775(16)
H25 H 0.6072 0.2059 0.4795
C53 C 0.4274(3) 0.18547(14) 0.32205(13)
O18 O 0.95771(17) 0.36338(7) 0.69544(7)
O19 O 0.7901(2) 0.30865(9) 0.60333(9)
O20 O 0.6842(2) 0.30939(9) 0.67697(9)
O23 O 0.3272(2) 0.19573(10) 0.29500(10)
O24 O 0.5213(3) 0.16177(10) 0.30730(10)
Zn7 Zn 0.95557(3) 0.337093(13) 0.627459(14)
O35 O 0.8272(2) 0.30427(10) 0.79500(10)
O38 O 0.9787(3) 0.66177(10) 0.19270(10)
O44 O 0.9323(3) 0.26196(11) 0.69919(15)
O45 O 0.8778(3) 0.73345(9) 0.25947(12)
Zn10 Zn 0.31448(3) 0.168494(12) 0.227386(13)
Zn14 Zn 0.60807(3) 0.163264(12) 0.233377(13)
C19_2 C 0.0804(3) 0.03892(11) 0.24845(13)
C23_2 C 0.2051(3) 0.06575(11) 0.24111(13)
O10 O 0.2017(2) 0.11004(8) 0.24570(10)
O11 O 0.3044(2) 0.04094(8) 0.23032(9)
Zn19 Zn 0.45923(3) 0.067871(12) 0.200067(13)
C20_2 C 0.0799(3) 0.98911(11) 0.25365(14)
H9_2 H 0.1582 0.9724 0.2546
C25_2 C 0.0666(4) 0.88767(15) 0.2887(2)
H11_2 H 0.1351 0.9056 0.3028
C26_2 C 0.0673(4) 0.83776(15) 0.2934(2)
H12_2 H 0.1369 0.8228 0.3104
C47_2 C 0.0612(3) 0.74199(15) 0.02504(14)
C48_2 C 0.1619(4) 0.7525(2) 0.05901(16)
H22_2 H 0.2289 0.7723 0.0487
C49_2 C 0.1657(4) 0.73441(19) 0.10783(16)
H23_2 H 0.2349 0.7422 0.1299
C50_2 C 0.0688(4) 0.70492(15) 0.12442(14)
C53_2 C 0.0726(3) 0.68547(14) 0.17795(13)
C41_2 C 0.0500(3) 0.80281(13) 0.87461(12)
H19_2 H 0.0479 0.8158 0.8419
C42_2 C 0.1677(3) 0.79467(13) 0.89994(13)
C43_2 C 0.1714(3) 0.77465(14) 0.94854(13)
H20_2 H 0.2511 0.7690 0.9651
C44_2 C 0.0568(3) 0.76282(15) 0.97291(13)
C46_2 C 0.2899(3) 0.81112(13) 0.87543(13)
O21 O 0.2784(2) 0.83268(11) 0.83416(11)
O22 O 0.3961(2) 0.80275(9) 0.89923(10)
Zn18 Zn 0.54443(3) 0.837093(13) 0.872541(14)
C1_2 C 0.1903(3) 0.19610(11) 0.12979(12)
C2_2 C 0.0652(3) 0.20841(12) 0.10185(13)
C7_2 C 0.0614(3) 0.22776(13) 0.05287(13)
H3_2 H 0.1388 0.2345 0.0370
C16_2 C 0.7231(3) 0.06723(11) 0.24582(12)
C17_2 C 0.8483(3) 0.03958(11) 0.25049(12)
C18_2 C 0.9641(3) 0.06407(11) 0.24769(13)
H8_2 H 0.9643 0.0975 0.2453
C31_2 C 0.4673(4) 0.06008(14) 0.08920(15)
C32_2 C 0.4848(4) 0.02890(15) 0.04276(15)
O1_2 O 0.45771(17) 0.13662(7) 0.19544(7)
O2_2 O 0.2901(2) 0.19135(9) 0.10333(9)
O3_2 O 0.1842(2) 0.19061(9) 0.17697(9)
O8_2 O 0.7298(2) 0.11148(8) 0.25477(9)
O9_2 O 0.6221(2) 0.04424(8) 0.23303(10)
O14_2 O 0.4584(3) 0.10414(10) 0.08201(10)
O15_2 O 0.4641(3) 0.03896(10) 0.13172(10)
Zn3 Zn 0.45557(3) 0.162907(13) 0.127459(14)
O31 O 0.7216(2) 0.16732(11) 0.16584(11)
O33 O 0.6039(2) 0.19725(9) 0.10077(10)
C13_2 C 0.0331(4) 0.30610(17) 0.90911(16)
H6_2 H 0.0992 0.3263 0.8989
C14_2 C 0.0368(4) 0.28711(18) 0.95775(16)
H7_2 H 0.1072 0.2941 0.9795
C34_2 C 0.4930(6) 0.04809(18) 0.99570(17)
H16_2 H 0.4851 0.0812 0.9917
C37_2 C 0.5128(6) 0.01961(19) 0.95325(19)
H17_2 H 0.5245 0.0340 0.9217
C59_2 C 0.0369(3) 0.03641(12) 0.74248(15)
C60_2 C 0.1525(3) 0.01001(12) 0.74518(14)
H28_2 H 0.2315 0.0261 0.7440
C62_2 C 0.0357(3) 0.08918(12) 0.73673(16)
C65_2 C 0.0317(4) 0.18975(13) 0.72630(17)
C66_2 C 0.1344(4) 0.16685(14) 0.7508(2)
H31_2 H 0.2032 0.1850 0.7642
C67_2 C 0.1371(4) 0.11758(14) 0.7559(2)
H32_2 H 0.2079 0.1030 0.7725
C68_2 C 0.0280(4) 0.24334(13) 0.72077(17)
C21_2 C 0.9631(3) 0.96359(12) 0.25752(15)
C22_2 C 0.8475(3) 0.98999(12) 0.25482(14)
H10_2 H 0.7685 0.9739 0.2560
C24_2 C 0.9643(3) 0.91082(12) 0.26327(16)
C27_2 C 0.9683(4) 0.81025(13) 0.27370(17)
C28_2 C 0.8656(4) 0.83315(14) 0.2492(2)
H13_2 H 0.7968 0.8150 0.2358
C29_2 C 0.8629(4) 0.88242(14) 0.2441(2)
H14_2 H 0.7921 0.8970 0.2275
C30_2 C 0.9720(4) 0.75666(13) 0.27923(17)
C33_2 C 0.4872(6) 0.98039(19) 0.04675(19)
H15_2 H 0.4755 0.9660 0.0783
C38_2 C 0.5070(6) 0.95191(18) 0.00430(17)
H18_2 H 0.5149 0.9188 0.0083
C51_2 C 0.9669(4) 0.69390(17) 0.09089(16)
H24_2 H 0.9008 0.6737 0.1011
C52_2 C 0.9632(4) 0.71289(18) 0.04225(16)
H25_2 H 0.8928 0.7059 0.0205
C35_2 C 0.5327(4) 0.93992(14) 0.91080(15)
C36_2 C 0.5152(4) 0.97110(15) 0.95724(15)
O16_2 O 0.5416(3) 0.89586(10) 0.91799(10)
O17_2 O 0.5359(3) 0.96104(10) 0.86828(10)
C39_2 C 0.8097(3) 0.80390(11) 0.87021(12)
C40_2 C 0.9348(3) 0.79159(12) 0.89815(13)
C45_2 C 0.9386(3) 0.77224(13) 0.94713(13)
H21_2 H 0.8612 0.7655 0.9630
C54_2 C 0.2769(3) 0.93277(11) 0.75418(12)
C55_2 C 0.1517(3) 0.96042(11) 0.74951(12)
C56_2 C 0.0359(3) 0.93593(11) 0.75231(13)
H26_2 H 0.0357 0.9025 0.7547
O18_2 O 0.54229(17) 0.86338(7) 0.80456(7)
O19_2 O 0.7099(2) 0.80865(9) 0.89667(9)
O20_2 O 0.8158(2) 0.80939(9) 0.82303(9)
O25_2 O 0.2702(2) 0.88852(8) 0.74523(9)
O26_2 O 0.3779(2) 0.95576(8) 0.76697(10)
Zn8 Zn 0.54077(3) 0.932129(12) 0.799933(13)
O40 O 0.7983(2) 0.88996(8) 0.75430(10)
O42 O 0.6956(2) 0.95906(8) 0.76968(9)
C3_2 C 0.9500(3) 0.19719(13) 0.12539(12)
H1_2 H 0.9521 0.1842 0.1581
C4_2 C 0.8323(3) 0.20533(13) 0.10006(13)
C5_2 C 0.8286(3) 0.22535(14) 0.05146(13)
H2_2 H 0.7489 0.2310 0.0349
C6_2 C 0.9432(3) 0.23718(15) 0.02709(13)
C8_2 C 0.7101(3) 0.18888(13) 0.12457(13)
C9_2 C 0.9388(3) 0.25801(15) 0.97496(14)
C10_2 C 0.8381(4) 0.2475(2) 0.94099(16)
H4_2 H 0.7711 0.2277 0.9513
C11_2 C 0.8343(4) 0.26559(19) 0.89217(16)
H5_2 H 0.7651 0.2578 0.8701
C12_2 C 0.9312(4) 0.29508(15) 0.87558(14)
C15_2 C 0.9274(3) 0.31453(14) 0.82205(13)
C58_2 C 0.9201(3) 0.01089(11) 0.74635(14)
H27_2 H 0.8418 0.0276 0.7454
C63_2 C 0.9334(4) 0.11233(15) 0.7113(2)
H29_2 H 0.8649 0.0944 0.6972
C64_2 C 0.9327(4) 0.16224(15) 0.7066(2)
H30_2 H 0.8631 0.1772 0.6896
C57_2 C 0.9196(3) 0.96108(11) 0.75155(13)
C61_2 C 0.7949(3) 0.93425(11) 0.75889(13)
N1 N 0.4992(6) 0.53512(18) 0.39280(17)
H33 H 0.4796 0.5158 0.3661
H34 H 0.4873 0.5177 0.4212
C69 C 0.6327(6) 0.54569(18) 0.39120(17)
H35 H 0.6441 0.5795 0.3851
H36 H 0.6706 0.5276 0.3643
H37 H 0.6744 0.5372 0.4232
C70 C 0.4100(6) 0.57119(18) 0.39222(17)
H38 H 0.4499 0.6002 0.4049
H39 H 0.3395 0.5625 0.4134
H40 H 0.3776 0.5763 0.3579
N1_2 N 0.0008(6) 0.03512(18) 0.10720(17)
H33_2 H 0.0204 0.0158 0.1339
H34_2 H 0.0127 0.0177 0.0788
C70_2 C 0.0900(6) 0.07119(18) 0.10778(17)
H38_2 H 0.0501 0.1002 0.0951
H39_2 H 0.1605 0.0625 0.0866
H40_2 H 0.1224 0.0763 0.1421
C69_2 C 0.8673(6) 0.04569(18) 0.10880(17)
H35_2 H 0.8559 0.0795 0.1149
H36_2 H 0.8294 0.0276 0.1357
H37_2 H 0.8256 0.0372 0.0768
N1_3 N 0.5008(6) 0.46488(18) 0.60720(17)
H33_3 H 0.5204 0.4842 0.6339
H34_3 H 0.5127 0.4823 0.5788
C69_3 C 0.3673(6) 0.45431(18) 0.60880(17)
H35_3 H 0.3559 0.4205 0.6149
H36_3 H 0.3294 0.4724 0.6357
H37_3 H 0.3256 0.4628 0.5768
C70_3 C 0.5900(6) 0.42881(18) 0.60778(17)
H38_3 H 0.5501 0.3998 0.5951
H39_3 H 0.6605 0.4375 0.5866
H40_3 H 0.6224 0.4237 0.6421
C69_4 C 0.1327(6) 0.95431(18) 0.89120(17)
H35_4 H 0.1441 0.9205 0.8851
H36_4 H 0.1706 0.9724 0.8643
H37_4 H 0.1744 0.9628 0.9232
N1_4 N 0.9992(6) 0.96488(18) 0.89280(17)
H33_4 H 0.9796 0.9842 0.8661
H34_4 H 0.9873 0.9823 0.9212
C70_4 C 0.9100(6) 0.92881(18) 0.89222(17)
H38_4 H 0.9499 0.8998 0.9049
H39_4 H 0.8395 0.9375 0.9134
H40_4 H 0.8776 0.9237 0.8579
loop_
_geom_bond_atom_site_label_1
_geom_bond_atom_site_label_2
_geom_bond_site_symmetry_1
_geom_bond_site_symmetry_2
C1 C2 1_555 1_555
C2 C3 1_555 1_555
C3 H1 1_555 1_555
C4 C3 1_555 1_555
C5 C4 1_555 1_555
H2 C5 1_555 1_555
C6 C5 1_555 1_555
C7 C2 1_555 1_555
H3 C7 1_555 1_555
C8 C4 1_555 1_555
C9 C6 1_555 1_555
C10 C9 1_555 1_555
H4 C10 1_555 1_555
C11 C10 1_555 1_555
H5 C11 1_555 1_555
C12 C11 1_555 1_555
C13 C12 1_555 1_555
H6 C13 1_555 1_555
C14 C9 1_555 1_555
H7 C14 1_555 1_555
C15 C12 1_555 1_555
C31 C32 1_555 1_555
C32 C33 1_555 1_555
C33 H15 1_555 1_555
C34 C32 1_555 1_555
H16 C34 1_555 1_555
O1 Zn1 1_555 1_555
O2 C1 1_555 1_555
O3 C1 1_555 1_555
O4 C8 1_555 1_555
O5 C8 1_555 1_555
O6 C15 1_555 1_555
O7 C15 1_555 1_555
O14 C31 1_555 1_555
O15 C31 1_555 1_555
Zn1 O3 1_555 1_555
Zn17 O1 1_555 1_555
Zn4 O1 1_555 1_555
C54 C55 1_555 1_555
C55 C56 1_555 1_555
C56 H26 1_555 1_555
C57 C56 1_555 1_555
C58 C57 1_555 1_555
H27 C58 1_555 1_555
C59 C58 1_555 1_555
C60 C55 1_555 1_555
H28 C60 1_555 1_555
C61 C57 1_555 1_555
C62 C59 1_555 1_555
C63 C62 1_555 1_555
H29 C63 1_555 1_555
C64 C63 1_555 1_555
H30 C64 1_555 1_555
C65 C64 1_555 1_555
C66 C65 1_555 1_555
H31 C66 1_555 1_555
C67 C62 1_555 1_555
H32 C67 1_555 1_555
C68 C65 1_555 1_555
O25 C54 1_555 1_555
O26 C54 1_555 1_555
O27 C61 1_555 1_555
O28 C61 1_555 1_555
O29 C68 1_555 1_555
O30 C68 1_555 1_555
O32 Zn6 1_555 1_555
O36 Zn1 1_555 1_555
O37 Zn6 1_555 1_555
O39 Zn1 1_555 1_555
O41 Zn4 1_555 1_555
O43 Zn1 1_555 1_555
O46 Zn6 1_555 1_555
Zn11 O27 1_555 1_555
Zn12 O6 1_555 1_555
Zn13 O4 1_555 1_555
Zn16 O7 1_555 1_555
Zn20 O28 1_555 1_555
C6 C7 1_555 1_555
C13 C14 1_555 1_555
O2 Zn17 1_555 1_555
O14 Zn17 1_555 1_555
O15 Zn4 1_555 1_555
C59 C60 1_555 1_555
C66 C67 1_555 1_555
O25 Zn6 1_555 1_555
O29 Zn12 1_555 1_555
O30 Zn16 1_555 1_555
C16 C17 1_555 1_555
C17 C18 1_555 1_555
C18 H8 1_555 1_555
C19 C18 1_555 1_555
C20 C19 1_555 1_555
H9 C20 1_555 1_555
C21 C20 1_555 1_555
C22 C17 1_555 1_555
H10 C22 1_555 1_555
C23 C19 1_555 1_555
C24 C21 1_555 1_555
C25 C24 1_555 1_555
H11 C25 1_555 1_555
C26 C25 1_555 1_555
H12 C26 1_555 1_555
C27 C26 1_555 1_555
C28 C27 1_555 1_555
H13 C28 1_555 1_555
C29 C24 1_555 1_555
H14 C29 1_555 1_555
C30 C27 1_555 1_555
O8 C16 1_555 1_555
O9 C16 1_555 1_555
O39 C23 1_555 1_555
O41 C23 1_555 1_555
O12 C30 1_555 1_555
O13 C30 1_555 1_555
C35 C36 1_555 1_555
C36 C37 1_555 1_555
H17 C37 1_555 1_555
H18 C38 1_555 1_555
O16 C35 1_555 1_555
O17 C35 1_555 1_555
C39 C40 1_555 1_555
C40 C41 1_555 1_555
C41 H19 1_555 1_555
C42 C41 1_555 1_555
C43 C42 1_555 1_555
H20 C43 1_555 1_555
C44 C43 1_555 1_555
C45 C40 1_555 1_555
H21 C45 1_555 1_555
C46 C42 1_555 1_555
C47 C44 1_555 1_555
C48 C47 1_555 1_555
H22 C48 1_555 1_555
C49 C48 1_555 1_555
H23 C49 1_555 1_555
C50 C49 1_555 1_555
C51 C50 1_555 1_555
H24 C51 1_555 1_555
C52 C47 1_555 1_555
H25 C52 1_555 1_555
C53 C50 1_555 1_555
O18 Zn11 1_555 1_555
O19 C39 1_555 1_555
O20 C39 1_555 1_555
O32 C46 1_555 1_555
O34 C46 1_555 1_555
O23 C53 1_555 1_555
O24 C53 1_555 1_555
Zn11 O20 1_555 1_555
Zn7 O16 1_555 1_555
Zn20 O17 1_555 1_555
O35 Zn11 1_555 1_555
O38 Zn13 1_555 1_555
O44 Zn11 1_555 1_555
O45 Zn13 1_555 1_555
Zn10 O12 1_555 1_555
Zn14 O13 1_555 1_555
C21 C22 1_555 1_555
C28 C29 1_555 1_555
O8 Zn13 1_555 1_555
C36 C38 1_555 1_555
C44 C45 1_555 1_555
C51 C52 1_555 1_555
O18 Zn7 1_555 1_555
O18 Zn20 1_555 1_555
O19 Zn7 1_555 1_555
O23 Zn10 1_555 1_555
O24 Zn14 1_555 1_555
C23_2 C19_2 1_555 1_555
O10 C23_2 1_555 1_555
O11 C23_2 1_555 1_555
Zn10 O10 1_555 1_555
Zn19 O11 1_555 1_555
H9_2 C20_2 1_555 1_555
H11_2 C25_2 1_555 1_555
C26_2 C25_2 1_555 1_555
H12_2 C26_2 1_555 1_555
C48_2 C47_2 1_555 1_555
H22_2 C48_2 1_555 1_555
C49_2 C48_2 1_555 1_555
H23_2 C49_2 1_555 1_555
C50_2 C49_2 1_555 1_555
C53_2 C50_2 1_555 1_555
O36 C53_2 1_555 1_555
C41_2 H19_2 1_555 1_555
C42_2 C41_2 1_555 1_555
C43_2 C42_2 1_555 1_555
H20_2 C43_2 1_555 1_555
C44_2 C43_2 1_555 1_555
C46_2 C42_2 1_555 1_555
O21 C46_2 1_555 1_555
O22 C46_2 1_555 1_555
Zn16 O21 1_555 1_555
Zn18 O22 1_555 1_555
C1_2 C2_2 1_555 1_555
C7_2 C2_2 1_555 1_555
H3_2 C7_2 1_555 1_555
C16_2 C17_2 1_555 1_555
C17_2 C18_2 1_555 1_555
C18_2 H8_2 1_555 1_555
C31_2 C32_2 1_555 1_555
O1_2 Zn10 1_555 1_555
O2_2 C1_2 1_555 1_555
O3_2 C1_2 1_555 1_555
O8_2 C16_2 1_555 1_555
O9_2 C16_2 1_555 1_555
O14_2 C31_2 1_555 1_555
O15_2 C31_2 1_555 1_555
Zn10 O3_2 1_555 1_555
Zn14 O1_2 1_555 1_555
Zn3 O1_2 1_555 1_555
Zn19 O1_2 1_555 1_555
O31 Zn14 1_555 1_555
O33 Zn3 1_555 1_555
O2_2 Zn3 1_555 1_555
O8_2 Zn14 1_555 1_555
O9_2 Zn19 1_555 1_555
O14_2 Zn3 1_555 1_555
O15_2 Zn19 1_555 1_555
H6_2 C13_2 1_555 1_555
H7_2 C14_2 1_555 1_555
H16_2 C34_2 1_555 1_555
C37_2 C34_2 1_555 1_555
H17_2 C37_2 1_555 1_555
H28_2 C60_2 1_555 1_555
C62_2 C59_2 1_555 1_555
C66_2 C65_2 1_555 1_555
H31_2 C66_2 1_555 1_555
C67_2 C62_2 1_555 1_555
H32_2 C67_2 1_555 1_555
C68_2 C65_2 1_555 1_555
O46 C68_2 1_555 1_555
C13_2 C14_2 1_555 1_555
C59_2 C60_2 1_555 1_555
C66_2 C67_2 1_555 1_555
H10_2 C22_2 1_555 1_555
C24_2 C21_2 1_555 1_555
C28_2 C27_2 1_555 1_555
H13_2 C28_2 1_555 1_555
C29_2 C24_2 1_555 1_555
H14_2 C29_2 1_555 1_555
C30_2 C27_2 1_555 1_555
C33_2 H15_2 1_555 1_555
O45 C30_2 1_555 1_555
C38_2 C33_2 1_555 1_555
H18_2 C38_2 1_555 1_555
H24_2 C51_2 1_555 1_555
H25_2 C52_2 1_555 1_555
C21_2 C22_2 1_555 1_555
C28_2 C29_2 1_555 1_555
C51_2 C52_2 1_555 1_555
C35_2 C36_2 1_555 1_555
O16_2 C35_2 1_555 1_555
O17_2 C35_2 1_555 1_555
C39_2 C40_2 1_555 1_555
C45_2 C40_2 1_555 1_555
H21_2 C45_2 1_555 1_555
C54_2 C55_2 1_555 1_555
C55_2 C56_2 1_555 1_555
C56_2 H26_2 1_555 1_555
O18_2 Zn12 1_555 1_555
O19_2 C39_2 1_555 1_555
O20_2 C39_2 1_555 1_555
O25_2 C54_2 1_555 1_555
O26_2 C54_2 1_555 1_555
Zn12 O20_2 1_555 1_555
Zn16 O18_2 1_555 1_555
Zn18 O16_2 1_555 1_555
Zn8 O17_2 1_555 1_555
O40 Zn12 1_555 1_555
O42 Zn8 1_555 1_555
O18_2 Zn18 1_555 1_555
O18_2 Zn8 1_555 1_555
O19_2 Zn18 1_555 1_555
O25_2 Zn16 1_555 1_555
O26_2 Zn8 1_555 1_555
C3_2 H1_2 1_555 1_555
C4_2 C3_2 1_555 1_555
C5_2 C4_2 1_555 1_555
H2_2 C5_2 1_555 1_555
C6_2 C5_2 1_555 1_555
C8_2 C4_2 1_555 1_555
O31 C8_2 1_555 1_555
O33 C8_2 1_555 1_555
C10_2 C9_2 1_555 1_555
H4_2 C10_2 1_555 1_555
C11_2 C10_2 1_555 1_555
H5_2 C11_2 1_555 1_555
C12_2 C11_2 1_555 1_555
C15_2 C12_2 1_555 1_555
O35 C15_2 1_555 1_555
H27_2 C58_2 1_555 1_555
H29_2 C63_2 1_555 1_555
C64_2 C63_2 1_555 1_555
H30_2 C64_2 1_555 1_555
C61_2 C57_2 1_555 1_555
O40 C61_2 1_555 1_555
O42 C61_2 1_555 1_555
N1 H33 1_555 1_555
H34 N1 1_555 1_555
C69 N1 1_555 1_555
H35 C69 1_555 1_555
H36 C69 1_555 1_555
H37 C69 1_555 1_555
C70 N1 1_555 1_555
H38 C70 1_555 1_555
H39 C70 1_555 1_555
H40 C70 1_555 1_555
N1_2 H33_2 1_555 1_555
H34_2 N1_2 1_555 1_555
C70_2 N1_2 1_555 1_555
H38_2 C70_2 1_555 1_555
H39_2 C70_2 1_555 1_555
H40_2 C70_2 1_555 1_555
H35_2 C69_2 1_555 1_555
H36_2 C69_2 1_555 1_555
H37_2 C69_2 1_555 1_555
N1_3 H33_3 1_555 1_555
H34_3 N1_3 1_555 1_555
C69_3 N1_3 1_555 1_555
H35_3 C69_3 1_555 1_555
H36_3 C69_3 1_555 1_555
H37_3 C69_3 1_555 1_555
C70_3 N1_3 1_555 1_555
H38_3 C70_3 1_555 1_555
H39_3 C70_3 1_555 1_555
H40_3 C70_3 1_555 1_555
H35_4 C69_4 1_555 1_555
H36_4 C69_4 1_555 1_555
H37_4 C69_4 1_555 1_555
N1_4 H33_4 1_555 1_555
H34_4 N1_4 1_555 1_555
C70_4 N1_4 1_555 1_555
H38_4 C70_4 1_555 1_555
H39_4 C70_4 1_555 1_555
H40_4 C70_4 1_555 1_555

#END
