
###############################################################################
#
# This file contains modified crystal structure data generated from the
# MOF subset of the Cambridge Structural Database (CSD) v543 
# hosted by the Cambridge Crystallographic Data Centre (CCDC).
#
# This work is licensed under the Creative Commons
# Attribution-NonCommercial-ShareAlike 4.0 International License.
# To view a copy of this license, visit
# http://creativecommons.org/licenses/by-nc-sa/4.0/
# or send a letter to
# Creative Commons, PO Box 1866, Mountain View, CA 94042, USA.
#
# CIF created using the CSD Python API on 29 September 2022
# The structure has been converted into the P1 space group
# The structure has a 3D framework
# The original CSD entry PUGSUH is in the monoclinic crystal system
# The framework has been calculated to contain at least 10.0% void space
# The void calculation uses a probe of radius 1.32A, grid spacing 0.4
# The framework is charged, counterions have been retained in the structure
#
###############################################################################

data_PUGSUH
_chemical_formula_moiety         '(C152 H100 N4 O56 Zn16)n'
_symmetry_cell_setting           triclinic
_symmetry_space_group_name_H-M   'P 1'
_symmetry_Int_Tables_number      1
_space_group_name_Hall           'P 1'
loop_
_symmetry_equiv_pos_site_id
_symmetry_equiv_pos_as_xyz
1 x,y,z
_cell_length_a                   10.364(2)
_cell_length_b                   26.746(5)
_cell_length_c                   27.804(6)
_cell_angle_alpha                90
_cell_angle_beta                 93.91(3)
_cell_angle_gamma                90
_cell_volume                     7689.21
loop_
_atom_site_label
_atom_site_type_symbol
_atom_site_fract_x
_atom_site_fract_y
_atom_site_fract_z
Zn18 Zn 0.04457(6) 0.73592(3) 0.91815(2)
C5 C 0.0071(8) 0.5040(3) 0.0238(3)
C6 C 0.0322(11) 0.5527(4) 0.0448(4)
H3 H 0.0399 0.5577 0.0783
C7 C 0.2451(6) 0.3358(2) 0.2064(2)
C8 C 0.3673(5) 0.3633(2) 0.2152(2)
C9 C 0.4856(5) 0.3403(2) 0.2066(2)
H4 H 0.4869 0.3067 0.1968
C10 C 0.5985(5) 0.3665(2) 0.2125(2)
C11 C 0.5994(6) 0.4153(2) 0.2280(2)
H5 H 0.6782 0.4328 0.2319
C12 C 0.4846(6) 0.4392(2) 0.2380(3)
C13 C 0.3692(6) 0.4125(2) 0.2307(3)
H6 H 0.2908 0.4283 0.2366
C14 C 0.7215(6) 0.3412(2) 0.1979(2)
C15 C 0.4868(6) 0.4918(2) 0.2552(3)
C16 C 0.5908(7) 0.5129(3) 0.2804(3)
H7 H 0.6646 0.4931 0.2874
C17 C 0.5923(7) 0.5613(3) 0.2960(3)
H8 H 0.6659 0.5739 0.3136
C18 C 0.4845(6) 0.5927(2) 0.2858(2)
C19 C 0.3784(7) 0.5730(3) 0.2592(3)
H9 H 0.3063 0.5934 0.2511
C20 C 0.3779(6) 0.5231(3) 0.2443(3)
H10 H 0.3045 0.5100 0.2269
C21 C 0.4874(6) 0.6456(2) 0.3008(2)
O4 O 0.2562(4) 0.28814(17) 0.20118(17)
O5 O 0.1419(4) 0.36016(15) 0.20333(15)
O6 O 0.7114(4) 0.29980(17) 0.17835(17)
O7 O 0.8277(4) 0.36491(16) 0.20625(16)
O8 O 0.5874(5) 0.66140(17) 0.32335(18)
O9 O 0.3852(4) 0.67106(17) 0.29198(17)
Zn1 Zn 0.12219(6) 0.23806(2) 0.18285(2)
C39 C 0.0444(10) 0.5917(4) 0.0124(4)
H18 H 0.0627 0.6242 0.0240
H29 H 0.7564 0.7731 0.0147
C63 C 0.5635(6) 0.7752(2) 0.0230(2)
H30 H 0.3646 0.7725 0.0122
C66 C 0.5691(6) 0.7706(3) 0.0757(2)
C67 C 0.6674(7) 0.7450(3) 0.1011(3)
H31 H 0.7342 0.7308 0.0844
C68 C 0.6694(7) 0.7399(3) 0.1503(2)
H32 H 0.7401 0.7240 0.1669
C69 C 0.5707(6) 0.7576(3) 0.1755(2)
C70 C 0.4743(7) 0.7826(4) 0.1499(3)
H33 H 0.4064 0.7957 0.1668
C71 C 0.4704(8) 0.7900(4) 0.1004(3)
H34 H 0.4021 0.8077 0.0843
C72 C 0.5709(6) 0.7503(3) 0.2294(2)
O29 O 0.6700(4) 0.7326(2) 0.25177(16)
O30 O 0.4770(6) 0.7673(3) 0.2489(2)
O37 O 0.1148(4) 0.17106(17) 0.20802(17)
O39 O 0.2217(4) 0.21736(17) 0.12337(14)
O41 O 0.1068(4) 0.23408(18) 0.05397(15)
O46 O 0.0230(6) 0.2673(3) 0.2511(2)
Zn10 Zn 0.37781(6) 0.73806(2) 0.31715(2)
Zn13 Zn 0.82782(6) 0.23343(2) 0.17772(2)
Zn14 Zn 0.67218(6) 0.73343(2) 0.32228(2)
Zn19 Zn 0.97311(6) 0.33657(2) 0.17495(2)
C37 C 0.0364(7) 0.6290(3) 0.9285(3)
C38 C 0.0297(7) 0.5831(3) 0.9621(3)
C40 C 0.0084(8) 0.5380(3) 0.9440(3)
H19 H 0.0033 0.5331 0.9105
O16 O 0.0524(5) 0.6703(2) 0.94907(19)
O17 O 0.0310(5) 0.6199(2) 0.8849(2)
C58 C 0.3082(5) 0.7777(2) 0.9181(2)
C59 C 0.4352(5) 0.7807(2) 0.9463(2)
C60 C 0.5477(5) 0.7814(2) 0.9215(2)
H28 H 0.5432 0.7837 0.8877
C61 C 0.6678(5) 0.7785(2) 0.9479(2)
C62 C 0.6751(5) 0.7752(3) 0.9977(2)
C64 C 0.4411(5) 0.7756(2) 0.9962(2)
C65 C 0.7874(5) 0.7750(2) 0.9212(2)
O18 O 0.0295(3) 0.73029(13) 0.84947(12)
O25 O 0.3045(3) 0.78780(14) 0.87412(13)
O26 O 0.2094(4) 0.76619(17) 0.94081(14)
O27 O 0.7783(4) 0.78264(17) 0.87663(14)
O28 O 0.8932(4) 0.76592(18) 0.94603(15)
Zn6 Zn 0.17218(6) 0.76657(2) 0.82228(2)
Zn8 Zn 0.02689(6) 0.66343(2) 0.82505(2)
O32 O 0.2886(4) 0.70020(17) 0.82165(17)
O34 O 0.1723(4) 0.63509(16) 0.79375(16)
O36 O 0.0874(5) 0.83860(17) 0.82335(18)
O43 O 0.1700(4) 0.7674(2) 0.75177(16)
Zn11 Zn 0.87781(6) 0.76194(2) 0.81715(2)
C1 C 0.9636(7) 0.3710(3) 0.0715(3)
C2 C 0.9703(7) 0.4169(3) 0.0379(3)
C4 C 0.9916(8) 0.4620(3) 0.0560(3)
H2 H 0.9967 0.4669 0.0895
C22 C 0.6918(5) 0.2223(2) 0.0819(2)
C23 C 0.5648(5) 0.2193(2) 0.0537(2)
C24 C 0.4523(5) 0.2186(2) 0.0785(2)
H11 H 0.4568 0.2163 0.1123
C25 C 0.3322(5) 0.2215(2) 0.0521(2)
C26 C 0.3249(5) 0.2248(3) 0.0023(2)
C28 C 0.5589(5) 0.2244(2) 0.0038(2)
C29 C 0.2126(5) 0.2250(2) 0.0788(2)
O1 O 0.9705(3) 0.26971(13) 0.15053(12)
O2 O 0.9476(5) 0.3297(2) 0.05093(19)
O3 O 0.9690(5) 0.3801(2) 0.1151(2)
O10 O 0.6955(3) 0.21220(14) 0.12588(13)
O11 O 0.7906(4) 0.23381(17) 0.05919(14)
Zn3 Zn 0.95543(6) 0.26408(3) 0.08185(2)
O35 O 0.9126(5) 0.16140(17) 0.17665(18)
O44 O 0.8300(4) 0.2326(2) 0.24823(16)
C3 C 0.9556(10) 0.4083(4) 0.9876(4)
H1 H 0.9373 0.3758 0.9760
H12 H 0.2436 0.2269 0.9853
C27 C 0.4365(6) 0.2248(2) 0.9770(2)
H13 H 0.6354 0.2275 0.9878
C30 C 0.4309(6) 0.2294(3) 0.9243(2)
C31 C 0.3326(7) 0.2550(3) 0.8989(3)
H14 H 0.2658 0.2692 0.9156
C32 C 0.3306(7) 0.2601(3) 0.8497(2)
H15 H 0.2599 0.2760 0.8331
C33 C 0.4293(6) 0.2424(3) 0.8245(2)
C34 C 0.5257(7) 0.2174(4) 0.8501(3)
H16 H 0.5936 0.2043 0.8332
C35 C 0.5296(8) 0.2100(4) 0.8996(3)
H17 H 0.5979 0.1923 0.9157
C36 C 0.4291(6) 0.2497(3) 0.7706(2)
O14 O 0.3300(4) 0.2674(2) 0.74823(16)
O15 O 0.5230(6) 0.2327(3) 0.7511(2)
C41 C 0.9929(8) 0.4960(3) 0.9762(3)
C42 C 0.9678(11) 0.4473(4) 0.9552(4)
H20 H 0.9601 0.4423 0.9217
C43 C 0.7549(6) 0.6642(2) 0.7936(2)
C44 C 0.6327(5) 0.6367(2) 0.7848(2)
C45 C 0.5144(5) 0.6597(2) 0.7934(2)
H21 H 0.5131 0.6933 0.8032
C46 C 0.4015(5) 0.6335(2) 0.7875(2)
C47 C 0.4006(6) 0.5847(2) 0.7720(2)
H22 H 0.3218 0.5672 0.7681
C48 C 0.5154(6) 0.5608(2) 0.7620(3)
C49 C 0.6308(6) 0.5875(2) 0.7693(3)
H23 H 0.7092 0.5717 0.7634
C50 C 0.2785(6) 0.6588(2) 0.8021(2)
C51 C 0.5132(6) 0.5082(2) 0.7448(3)
C52 C 0.4092(7) 0.4871(3) 0.7196(3)
H24 H 0.3354 0.5069 0.7126
C53 C 0.4077(7) 0.4387(3) 0.7040(3)
H25 H 0.3341 0.4261 0.6864
C54 C 0.5155(6) 0.4073(2) 0.7142(2)
C55 C 0.6216(7) 0.4270(3) 0.7408(3)
H26 H 0.6937 0.4066 0.7489
C56 C 0.6221(6) 0.4769(3) 0.7557(3)
H27 H 0.6955 0.4900 0.7731
C57 C 0.5126(6) 0.3544(2) 0.6992(2)
O19 O 0.7438(4) 0.71186(17) 0.79882(17)
O20 O 0.8581(4) 0.63984(15) 0.79667(15)
O23 O 0.4126(5) 0.33860(17) 0.67665(18)
O24 O 0.6148(4) 0.32894(17) 0.70802(17)
O38 O 0.8852(4) 0.82894(17) 0.79198(17)
O45 O 0.9770(6) 0.7327(3) 0.7489(2)
Zn12 Zn 0.62219(6) 0.26194(2) 0.68285(2)
Zn16 Zn 0.32782(6) 0.26657(2) 0.67772(2)
C46_2 C 0.0985(5) 0.1335(2) 0.7125(2)
C47_2 C 0.0994(6) 0.0847(2) 0.7280(2)
H22_2 H 0.1782 0.0672 0.7319
C50_2 C 0.2215(6) 0.1588(2) 0.6979(2)
H24_2 H 0.1646 0.0069 0.7874
O21 O 0.2114(4) 0.20020(17) 0.67835(17)
O22 O 0.3277(4) 0.13509(16) 0.70625(16)
Zn20 Zn 0.47311(6) 0.16343(2) 0.67495(2)
C24_2 C 0.0477(5) 0.7186(2) 0.4215(2)
H11_2 H 0.0432 0.7163 0.3877
C25_2 C 0.1678(5) 0.7215(2) 0.4479(2)
C26_2 C 0.1751(5) 0.7248(3) 0.4977(2)
H12_2 H 0.2564 0.7269 0.5147
C27_2 C 0.0635(6) 0.7248(2) 0.5230(2)
C29_2 C 0.2874(5) 0.7250(2) 0.4212(2)
C30_2 C 0.0691(6) 0.7294(3) 0.5757(2)
C31_2 C 0.1674(7) 0.7550(3) 0.6011(3)
H14_2 H 0.2342 0.7692 0.5844
C32_2 C 0.1694(7) 0.7601(3) 0.6503(2)
H15_2 H 0.2401 0.7760 0.6669
C33_2 C 0.0707(6) 0.7424(3) 0.6755(2)
C36_2 C 0.0709(6) 0.7497(3) 0.7294(2)
O12 O 0.2783(4) 0.71736(17) 0.37663(14)
O13 O 0.3932(4) 0.73408(18) 0.44603(15)
C52_2 C 0.0908(7) 0.9871(3) 0.7804(3)
C53_2 C 0.0923(7) 0.9387(3) 0.7960(3)
H25_2 H 0.1659 0.9261 0.8136
Zn17 Zn 0.54457(6) 0.76408(3) 0.41815(2)
C5_2 C 0.4929(8) 0.0040(3) 0.4762(3)
C6_2 C 0.4678(11) 0.0527(4) 0.4552(4)
H3_2 H 0.4601 0.0577 0.4217
C18_2 C 0.0155(6) 0.0927(2) 0.2142(2)
C19_2 C 0.1216(7) 0.0730(3) 0.2408(3)
H9_2 H 0.1937 0.0934 0.2489
C20_2 C 0.1221(6) 0.0231(3) 0.2557(3)
H10_2 H 0.1955 0.0100 0.2731
C21_2 C 0.0126(6) 0.1456(2) 0.1992(2)
C37_2 C 0.4636(7) 0.1290(3) 0.5715(3)
C38_2 C 0.4703(7) 0.0831(3) 0.5379(3)
C39_2 C 0.4556(10) 0.0917(4) 0.4876(4)
H18_2 H 0.4373 0.1242 0.4760
C40_2 C 0.4916(8) 0.0380(3) 0.5560(3)
H19_2 H 0.4967 0.0331 0.5895
O16_2 O 0.4476(5) 0.1703(2) 0.55093(19)
O17_2 O 0.4690(5) 0.1199(2) 0.6151(2)
C43_2 C 0.7451(6) 0.1642(2) 0.7064(2)
C44_2 C 0.8673(5) 0.1367(2) 0.7152(2)
C45_2 C 0.9856(5) 0.1597(2) 0.7066(2)
H21_2 H 0.9869 0.1933 0.6968
C48_2 C 0.9846(6) 0.0608(2) 0.7380(3)
C49_2 C 0.8692(6) 0.0875(2) 0.7307(3)
H23_2 H 0.7908 0.0717 0.7366
C51_2 C 0.9868(6) 0.0082(2) 0.7552(3)
C58_2 C 0.1918(5) 0.2777(2) 0.5819(2)
C59_2 C 0.0648(5) 0.2807(2) 0.5537(2)
C64_2 C 0.0589(5) 0.2756(2) 0.5038(2)
H30_2 H 0.1354 0.2725 0.4878
C70_2 C 0.0257(7) 0.2826(4) 0.3501(3)
H33_2 H 0.0936 0.2957 0.3332
C71_2 C 0.0296(8) 0.2900(4) 0.3996(3)
H34_2 H 0.0979 0.3077 0.4157
O18_2 O 0.4705(3) 0.23029(13) 0.65053(12)
O19_2 O 0.7562(4) 0.21186(17) 0.70118(17)
O20_2 O 0.6419(4) 0.13984(15) 0.70333(15)
O25_2 O 0.1955(3) 0.28780(14) 0.62588(13)
O26_2 O 0.2906(4) 0.26619(17) 0.55919(14)
Zn7 Zn 0.45543(6) 0.23592(3) 0.58185(2)
O40 O 0.7217(4) 0.28264(17) 0.62337(14)
O42 O 0.6068(4) 0.26592(18) 0.55397(15)
C1_2 C 0.5364(7) 0.8710(3) 0.4285(3)
C2_2 C 0.5297(7) 0.9169(3) 0.4621(3)
C3_2 C 0.5444(10) 0.9083(4) 0.5124(4)
H1_2 H 0.5627 0.8758 0.5240
C4_2 C 0.5084(8) 0.9620(3) 0.4440(3)
H2_2 H 0.5033 0.9669 0.4105
C7_2 C 0.2549(6) 0.8358(2) 0.2936(2)
C8_2 C 0.1327(5) 0.8633(2) 0.2848(2)
C9_2 C 0.0144(5) 0.8403(2) 0.2934(2)
H4_2 H 0.0131 0.8067 0.3032
C12_2 C 0.0154(6) 0.9392(2) 0.2620(3)
C13_2 C 0.1308(6) 0.9125(2) 0.2693(3)
H6_2 H 0.2092 0.9283 0.2634
C15_2 C 0.0132(6) 0.9918(2) 0.2448(3)
C22_2 C 0.8082(5) 0.7223(2) 0.4181(2)
C23_2 C 0.9352(5) 0.7193(2) 0.4463(2)
C28_2 C 0.9411(5) 0.7244(2) 0.4962(2)
H13_2 H 0.8646 0.7275 0.5122
C34_2 C 0.9743(7) 0.7174(4) 0.6499(3)
H16_2 H 0.9064 0.7043 0.6668
C35_2 C 0.9704(8) 0.7100(4) 0.6004(3)
H17_2 H 0.9021 0.6923 0.5843
O1_2 O 0.5295(3) 0.76971(13) 0.34947(12)
O2_2 O 0.5524(5) 0.8297(2) 0.44907(19)
O3_2 O 0.5310(5) 0.8801(2) 0.3849(2)
O4_2 O 0.2438(4) 0.78814(17) 0.29882(17)
O5_2 O 0.3581(4) 0.86016(15) 0.29667(15)
O10_2 O 0.8045(3) 0.71220(14) 0.37412(13)
O11_2 O 0.7094(4) 0.73381(17) 0.44081(14)
Zn4 Zn 0.52689(6) 0.83657(2) 0.32505(2)
C41_2 C 0.5071(8) 0.9960(3) 0.5238(3)
C42_2 C 0.5322(11) 0.9473(4) 0.5448(4)
H20_2 H 0.5399 0.9423 0.5783
C54_2 C 0.9845(6) 0.9073(2) 0.7858(2)
C55_2 C 0.8784(7) 0.9270(3) 0.7592(3)
H26_2 H 0.8063 0.9066 0.7511
C56_2 C 0.8779(6) 0.9769(3) 0.7443(3)
H27_2 H 0.8045 0.9900 0.7269
C57_2 C 0.9874(6) 0.8544(2) 0.8008(2)
O31 O 0.7886(4) 0.79980(17) 0.32165(17)
O33 O 0.6723(4) 0.86491(16) 0.29375(16)
C16_2 C 0.9092(7) 0.0129(3) 0.2196(3)
C17_2 C 0.9077(7) 0.0613(3) 0.2040(3)
H8_2 H 0.8341 0.0739 0.1864
C60_2 C 0.9523(5) 0.2814(2) 0.5785(2)
H28_2 H 0.9568 0.2837 0.6123
C61_2 C 0.8322(5) 0.2785(2) 0.5521(2)
C62_2 C 0.8249(5) 0.2752(3) 0.5023(2)
H29_2 H 0.7436 0.2731 0.4853
C63_2 C 0.9365(6) 0.2752(2) 0.4770(2)
C65_2 C 0.7126(5) 0.2750(2) 0.5788(2)
C66_2 C 0.9309(6) 0.2706(3) 0.4243(2)
C67_2 C 0.8326(7) 0.2450(3) 0.3989(3)
H31_2 H 0.7658 0.2308 0.4156
C68_2 C 0.8306(7) 0.2399(3) 0.3497(2)
H32_2 H 0.7599 0.2240 0.3331
C69_2 C 0.9293(6) 0.2576(3) 0.3245(2)
C72_2 C 0.9291(6) 0.2503(3) 0.2706(2)
C10_2 C 0.9015(5) 0.8665(2) 0.2875(2)
C11_2 C 0.9006(6) 0.9153(2) 0.2720(2)
H5_2 H 0.8218 0.9328 0.2681
C14_2 C 0.7785(6) 0.8412(2) 0.3021(2)
H7_2 H 0.8354 0.9931 0.2126
C74 C 0.4745(6) 0.3633(3) 0.0371(2)
H38 H 0.5319 0.3364 0.0481
H39 H 0.3865 0.3550 0.0440
H40 H 0.5005 0.3939 0.0537
C73 C 0.5846(6) 0.3606(3) 0.9476(2)
H35 H 0.6645 0.3769 0.9590
H36 H 0.5559 0.3737 0.9161
H37 H 0.5991 0.3248 0.9452
N1 N 0.4818(6) 0.3704(3) 0.9828(2)
H41 H 0.4118 0.3533 0.9699
H42 H 0.4621 0.4032 0.9781
C74_2 C 0.0255(6) 0.8633(3) 0.4629(2)
H39_2 H 0.1135 0.8550 0.4560
N1_2 N 0.0182(6) 0.8704(3) 0.5172(2)
H41_2 H 0.0882 0.8533 0.5301
H42_2 H 0.0379 0.9032 0.5219
C73_2 C 0.9154(6) 0.8606(3) 0.5524(2)
H35_2 H 0.8355 0.8769 0.5410
H36_2 H 0.9441 0.8737 0.5839
H37_2 H 0.9009 0.8248 0.5548
H38_2 H 0.9681 0.8364 0.4519
H40_2 H 0.9995 0.8939 0.4463
C73_3 C 0.4154(6) 0.6394(3) 0.0524(2)
H35_3 H 0.3355 0.6231 0.0410
H36_3 H 0.4441 0.6263 0.0839
H37_3 H 0.4009 0.6752 0.0548
N1_3 N 0.5182(6) 0.6296(3) 0.0172(2)
H41_3 H 0.5882 0.6467 0.0301
H42_3 H 0.5379 0.5968 0.0219
C74_3 C 0.5255(6) 0.6367(3) 0.9629(2)
H38_3 H 0.4681 0.6636 0.9519
H39_3 H 0.6135 0.6450 0.9560
H40_3 H 0.4995 0.6061 0.9463
C73_4 C 0.0846(6) 0.1394(3) 0.4476(2)
H35_4 H 0.1645 0.1231 0.4590
H36_4 H 0.0559 0.1263 0.4161
H37_4 H 0.0991 0.1752 0.4452
H38_4 H 0.0319 0.1636 0.5481
H40_4 H 0.0005 0.1061 0.5537
C74_4 C 0.9745(6) 0.1367(3) 0.5371(2)
H39_4 H 0.8865 0.1450 0.5440
N1_4 N 0.9818(6) 0.1296(3) 0.4828(2)
H41_4 H 0.9118 0.1467 0.4699
H42_4 H 0.9621 0.0968 0.4781
loop_
_geom_bond_atom_site_label_1
_geom_bond_atom_site_label_2
_geom_bond_site_symmetry_1
_geom_bond_site_symmetry_2
C6 C5 1_555 1_555
H3 C6 1_555 1_555
C7 C8 1_555 1_555
C8 C9 1_555 1_555
C9 H4 1_555 1_555
C10 C9 1_555 1_555
C11 C10 1_555 1_555
H5 C11 1_555 1_555
C12 C11 1_555 1_555
C13 C8 1_555 1_555
H6 C13 1_555 1_555
C14 C10 1_555 1_555
C15 C12 1_555 1_555
C16 C15 1_555 1_555
H7 C16 1_555 1_555
C17 C16 1_555 1_555
H8 C17 1_555 1_555
C18 C17 1_555 1_555
C19 C18 1_555 1_555
H9 C19 1_555 1_555
C20 C15 1_555 1_555
H10 C20 1_555 1_555
C21 C18 1_555 1_555
O4 C7 1_555 1_555
O5 C7 1_555 1_555
O6 C14 1_555 1_555
O7 C14 1_555 1_555
O8 C21 1_555 1_555
O9 C21 1_555 1_555
Zn1 O4 1_555 1_555
C39 C6 1_555 1_555
H18 C39 1_555 1_555
C66 C63 1_555 1_555
C67 C66 1_555 1_555
H31 C67 1_555 1_555
C68 C67 1_555 1_555
H32 C68 1_555 1_555
C69 C68 1_555 1_555
C70 C69 1_555 1_555
H33 C70 1_555 1_555
C71 C66 1_555 1_555
H34 C71 1_555 1_555
C72 C69 1_555 1_555
O29 C72 1_555 1_555
O30 C72 1_555 1_555
O37 Zn1 1_555 1_555
O39 Zn1 1_555 1_555
O46 Zn1 1_555 1_555
Zn10 O9 1_555 1_555
Zn13 O6 1_555 1_555
Zn14 O8 1_555 1_555
Zn19 O7 1_555 1_555
C12 C13 1_555 1_555
C19 C20 1_555 1_555
C70 C71 1_555 1_555
O29 Zn14 1_555 1_555
O30 Zn10 1_555 1_555
C37 C38 1_555 1_555
C40 C38 1_555 1_555
H19 C40 1_555 1_555
O16 C37 1_555 1_555
O17 C37 1_555 1_555
C58 C59 1_555 1_555
C59 C60 1_555 1_555
C60 H28 1_555 1_555
C61 C60 1_555 1_555
C62 C61 1_555 1_555
C64 C59 1_555 1_555
C65 C61 1_555 1_555
O25 C58 1_555 1_555
O26 C58 1_555 1_555
O27 C65 1_555 1_555
O28 C65 1_555 1_555
Zn6 O18 1_555 1_555
Zn18 O16 1_555 1_555
Zn8 O17 1_555 1_555
O32 Zn6 1_555 1_555
O34 Zn8 1_555 1_555
O36 Zn6 1_555 1_555
O43 Zn6 1_555 1_555
Zn11 O27 1_555 1_555
O18 Zn18 1_555 1_555
O18 Zn8 1_555 1_555
O25 Zn6 1_555 1_555
O26 Zn18 1_555 1_555
C1 C2 1_555 1_555
C4 C2 1_555 1_555
H2 C4 1_555 1_555
C22 C23 1_555 1_555
C23 C24 1_555 1_555
C24 H11 1_555 1_555
C25 C24 1_555 1_555
C26 C25 1_555 1_555
C28 C23 1_555 1_555
C29 C25 1_555 1_555
O2 C1 1_555 1_555
O3 C1 1_555 1_555
O10 C22 1_555 1_555
O11 C22 1_555 1_555
O39 C29 1_555 1_555
O41 C29 1_555 1_555
Zn13 O1 1_555 1_555
Zn3 O1 1_555 1_555
Zn19 O1 1_555 1_555
O35 Zn13 1_555 1_555
O44 Zn13 1_555 1_555
O2 Zn3 1_555 1_555
O3 Zn19 1_555 1_555
O10 Zn13 1_555 1_555
O11 Zn3 1_555 1_555
C3 H1 1_555 1_555
C30 C27 1_555 1_555
C31 C30 1_555 1_555
H14 C31 1_555 1_555
C32 C31 1_555 1_555
H15 C32 1_555 1_555
C33 C32 1_555 1_555
C34 C33 1_555 1_555
H16 C34 1_555 1_555
C35 C30 1_555 1_555
H17 C35 1_555 1_555
C36 C33 1_555 1_555
O14 C36 1_555 1_555
O15 C36 1_555 1_555
C42 C3 1_555 1_555
H20 C42 1_555 1_555
C43 C44 1_555 1_555
C44 C45 1_555 1_555
C45 H21 1_555 1_555
C46 C45 1_555 1_555
C47 C46 1_555 1_555
H22 C47 1_555 1_555
C48 C47 1_555 1_555
C49 C44 1_555 1_555
H23 C49 1_555 1_555
C50 C46 1_555 1_555
C51 C48 1_555 1_555
C52 C51 1_555 1_555
H24 C52 1_555 1_555
C53 C52 1_555 1_555
H25 C53 1_555 1_555
C54 C53 1_555 1_555
C55 C54 1_555 1_555
H26 C55 1_555 1_555
C56 C51 1_555 1_555
H27 C56 1_555 1_555
C57 C54 1_555 1_555
O19 C43 1_555 1_555
O20 C43 1_555 1_555
O32 C50 1_555 1_555
O34 C50 1_555 1_555
O23 C57 1_555 1_555
O24 C57 1_555 1_555
Zn11 O19 1_555 1_555
O38 Zn11 1_555 1_555
O45 Zn11 1_555 1_555
Zn12 O15 1_555 1_555
Zn16 O14 1_555 1_555
C34 C35 1_555 1_555
C41 C42 1_555 1_555
C48 C49 1_555 1_555
C55 C56 1_555 1_555
O23 Zn16 1_555 1_555
O24 Zn12 1_555 1_555
C47_2 C46_2 1_555 1_555
H22_2 C47_2 1_555 1_555
C50_2 C46_2 1_555 1_555
O21 C50_2 1_555 1_555
O22 C50_2 1_555 1_555
Zn16 O21 1_555 1_555
Zn20 O22 1_555 1_555
C24_2 H11_2 1_555 1_555
C25_2 C24_2 1_555 1_555
C26_2 C25_2 1_555 1_555
H12_2 C26_2 1_555 1_555
C27_2 C26_2 1_555 1_555
C29_2 C25_2 1_555 1_555
C30_2 C27_2 1_555 1_555
C31_2 C30_2 1_555 1_555
H14_2 C31_2 1_555 1_555
C32_2 C31_2 1_555 1_555
H15_2 C32_2 1_555 1_555
C33_2 C32_2 1_555 1_555
C36_2 C33_2 1_555 1_555
O12 C29_2 1_555 1_555
O13 C29_2 1_555 1_555
O43 C36_2 1_555 1_555
C53_2 C52_2 1_555 1_555
H25_2 C53_2 1_555 1_555
Zn10 O12 1_555 1_555
Zn17 O13 1_555 1_555
C6_2 C5_2 1_555 1_555
H3_2 C6_2 1_555 1_555
C19_2 C18_2 1_555 1_555
H9_2 C19_2 1_555 1_555
H10_2 C20_2 1_555 1_555
C21_2 C18_2 1_555 1_555
O37 C21_2 1_555 1_555
C37_2 C38_2 1_555 1_555
C38_2 C39_2 1_555 1_555
C39_2 C6_2 1_555 1_555
H18_2 C39_2 1_555 1_555
C40_2 C38_2 1_555 1_555
H19_2 C40_2 1_555 1_555
O16_2 C37_2 1_555 1_555
O17_2 C37_2 1_555 1_555
C43_2 C44_2 1_555 1_555
C44_2 C45_2 1_555 1_555
C45_2 H21_2 1_555 1_555
C49_2 C44_2 1_555 1_555
H23_2 C49_2 1_555 1_555
C51_2 C48_2 1_555 1_555
C58_2 C59_2 1_555 1_555
C64_2 C59_2 1_555 1_555
H30_2 C64_2 1_555 1_555
H33_2 C70_2 1_555 1_555
H34_2 C71_2 1_555 1_555
O18_2 Zn12 1_555 1_555
O19_2 C43_2 1_555 1_555
O20_2 C43_2 1_555 1_555
O25_2 C58_2 1_555 1_555
O26_2 C58_2 1_555 1_555
Zn12 O19_2 1_555 1_555
Zn16 O18_2 1_555 1_555
Zn7 O16_2 1_555 1_555
Zn20 O17_2 1_555 1_555
O40 Zn12 1_555 1_555
O42 Zn7 1_555 1_555
C19_2 C20_2 1_555 1_555
C48_2 C49_2 1_555 1_555
C70_2 C71_2 1_555 1_555
O18_2 Zn7 1_555 1_555
O18_2 Zn20 1_555 1_555
O20_2 Zn20 1_555 1_555
O25_2 Zn16 1_555 1_555
O26_2 Zn7 1_555 1_555
C1_2 C2_2 1_555 1_555
C2_2 C3_2 1_555 1_555
C3_2 H1_2 1_555 1_555
C4_2 C2_2 1_555 1_555
H2_2 C4_2 1_555 1_555
C7_2 C8_2 1_555 1_555
C8_2 C9_2 1_555 1_555
C9_2 H4_2 1_555 1_555
C13_2 C8_2 1_555 1_555
H6_2 C13_2 1_555 1_555
C15_2 C12_2 1_555 1_555
C22_2 C23_2 1_555 1_555
C28_2 C23_2 1_555 1_555
H13_2 C28_2 1_555 1_555
H16_2 C34_2 1_555 1_555
H17_2 C35_2 1_555 1_555
O1_2 Zn10 1_555 1_555
O2_2 C1_2 1_555 1_555
O3_2 C1_2 1_555 1_555
O4_2 C7_2 1_555 1_555
O5_2 C7_2 1_555 1_555
O10_2 C22_2 1_555 1_555
O11_2 C22_2 1_555 1_555
Zn10 O4_2 1_555 1_555
Zn14 O1_2 1_555 1_555
Zn17 O1_2 1_555 1_555
Zn4 O1_2 1_555 1_555
C42_2 C3_2 1_555 1_555
H20_2 C42_2 1_555 1_555
C55_2 C54_2 1_555 1_555
H26_2 C55_2 1_555 1_555
H27_2 C56_2 1_555 1_555
C57_2 C54_2 1_555 1_555
O38 C57_2 1_555 1_555
O31 Zn14 1_555 1_555
O33 Zn4 1_555 1_555
C12_2 C13_2 1_555 1_555
C34_2 C35_2 1_555 1_555
O2_2 Zn17 1_555 1_555
O3_2 Zn4 1_555 1_555
O5_2 Zn4 1_555 1_555
O10_2 Zn14 1_555 1_555
O11_2 Zn17 1_555 1_555
C41_2 C42_2 1_555 1_555
C55_2 C56_2 1_555 1_555
C17_2 C16_2 1_555 1_555
H8_2 C17_2 1_555 1_555
C60_2 H28_2 1_555 1_555
C61_2 C60_2 1_555 1_555
C62_2 C61_2 1_555 1_555
H29_2 C62_2 1_555 1_555
C63_2 C62_2 1_555 1_555
C65_2 C61_2 1_555 1_555
C66_2 C63_2 1_555 1_555
C67_2 C66_2 1_555 1_555
H31_2 C67_2 1_555 1_555
C68_2 C67_2 1_555 1_555
H32_2 C68_2 1_555 1_555
C69_2 C68_2 1_555 1_555
C72_2 C69_2 1_555 1_555
O40 C65_2 1_555 1_555
O42 C65_2 1_555 1_555
O44 C72_2 1_555 1_555
C11_2 C10_2 1_555 1_555
H5_2 C11_2 1_555 1_555
C14_2 C10_2 1_555 1_555
O31 C14_2 1_555 1_555
O33 C14_2 1_555 1_555
C74 H38 1_555 1_555
H39 C74 1_555 1_555
H40 C74 1_555 1_555
C73 H35 1_555 1_555
H36 C73 1_555 1_555
H37 C73 1_555 1_555
N1 C73 1_555 1_555
H41 N1 1_555 1_555
H42 N1 1_555 1_555
H39_2 C74_2 1_555 1_555
H41_2 N1_2 1_555 1_555
H42_2 N1_2 1_555 1_555
C74_2 N1_2 1_555 1_555
C73_2 H35_2 1_555 1_555
H36_2 C73_2 1_555 1_555
H37_2 C73_2 1_555 1_555
C73_3 H35_3 1_555 1_555
H36_3 C73_3 1_555 1_555
H37_3 C73_3 1_555 1_555
N1_3 C73_3 1_555 1_555
H41_3 N1_3 1_555 1_555
H42_3 N1_3 1_555 1_555
C74_3 H38_3 1_555 1_555
H39_3 C74_3 1_555 1_555
H40_3 C74_3 1_555 1_555
C73_4 H35_4 1_555 1_555
H36_4 C73_4 1_555 1_555
H37_4 C73_4 1_555 1_555
H39_4 C74_4 1_555 1_555
H41_4 N1_4 1_555 1_555
H42_4 N1_4 1_555 1_555
C74_4 N1_4 1_555 1_555

#END
