
###############################################################################
#
# This file contains modified crystal structure data generated from the
# MOF subset of the Cambridge Structural Database (CSD) v543 
# hosted by the Cambridge Crystallographic Data Centre (CCDC).
#
# This work is licensed under the Creative Commons
# Attribution-NonCommercial-ShareAlike 4.0 International License.
# To view a copy of this license, visit
# http://creativecommons.org/licenses/by-nc-sa/4.0/
# or send a letter to
# Creative Commons, PO Box 1866, Mountain View, CA 94042, USA.
#
# CIF created using the CSD Python API on 29 September 2022
# The structure has been converted into the P1 space group
# The structure has a 3D framework
# The original CSD entry PUGSER is in the monoclinic crystal system
# The framework has been calculated to contain at least 10.0% void space
# The void calculation uses a probe of radius 1.32A, grid spacing 0.4
#
###############################################################################

data_PUGSER
_chemical_formula_moiety         '(C136 H100 N4 O56 Zn16)n'
_symmetry_cell_setting           triclinic
_symmetry_space_group_name_H-M   'P 1'
_symmetry_Int_Tables_number      1
_space_group_name_Hall           'P 1'
loop_
_symmetry_equiv_pos_site_id
_symmetry_equiv_pos_as_xyz
1 x,y,z
_cell_length_a                   10.316(2)
_cell_length_b                   26.096(5)
_cell_length_c                   27.889(6)
_cell_angle_alpha                90
_cell_angle_beta                 93.78(3)
_cell_angle_gamma                90
_cell_volume                     7491.56
loop_
_atom_site_label
_atom_site_type_symbol
_atom_site_fract_x
_atom_site_fract_y
_atom_site_fract_z
C18 C 0.2416(4) 0.35767(16) 0.69099(16)
C19 C 0.3648(4) 0.38504(17) 0.70301(17)
C20 C 0.4800(4) 0.36201(17) 0.69177(18)
H11 H 0.4800 0.3285 0.6793
C21 C 0.5966(4) 0.38932(17) 0.69922(18)
C22 C 0.5961(5) 0.43732(18) 0.72015(19)
H12 H 0.6752 0.4548 0.7259
C23 C 0.4825(4) 0.46052(18) 0.7329(2)
C24 C 0.3657(5) 0.43415(18) 0.72238(19)
H13 H 0.2866 0.4499 0.7285
C25 C 0.7172(4) 0.36382(17) 0.68335(18)
C26 C 0.4840(5) 0.51203(19) 0.75317(19)
C27 C 0.5903(5) 0.5300(2) 0.7818(2)
H14 H 0.6639 0.5092 0.7876
C28 C 0.5874(5) 0.5788(2) 0.8019(2)
H15 H 0.6587 0.5900 0.8219
C29 C 0.4838(4) 0.61073(18) 0.79336(19)
C30 C 0.3804(5) 0.5938(2) 0.7649(2)
H16 H 0.3077 0.6152 0.7591
C31 C 0.3810(5) 0.5464(2) 0.7447(2)
H17 H 0.3093 0.5364 0.7243
C32 C 0.4862(5) 0.66425(17) 0.81442(17)
O8 O 0.1364(3) 0.38278(11) 0.68729(12)
O9 O 0.2501(3) 0.30901(12) 0.68551(12)
O10 O 0.7075(3) 0.32153(12) 0.66388(14)
O11 O 0.8241(3) 0.38851(13) 0.69155(13)
O12 O 0.5846(3) 0.67914(12) 0.83884(12)
O13 O 0.3843(3) 0.69181(12) 0.80522(12)
Zn1 Zn 0.11818(4) 0.258192(17) 0.665610(17)
O16 O 0.2189(3) 0.23664(13) 0.60716(11)
O17 O 0.1040(3) 0.25442(14) 0.53831(12)
O19 O 0.0116(4) 0.2894(2) 0.73539(15)
O23 O 0.1157(3) 0.19181(12) 0.69478(12)
Zn6 Zn 0.38182(4) 0.758192(17) 0.834390(17)
Zn8 Zn 0.82389(4) 0.253038(17) 0.661049(17)
Zn9 Zn 0.67611(4) 0.753038(17) 0.838951(17)
Zn11 Zn 0.96788(5) 0.35923(2) 0.65913(2)
C1 C 0.6916(4) 0.23837(17) 0.56686(16)
C2 C 0.5615(4) 0.23512(18) 0.53805(16)
C3 C 0.4490(4) 0.23582(18) 0.56169(16)
H1 H 0.4532 0.2343 0.5954
C4 C 0.3302(4) 0.23866(19) 0.53638(16)
C5 C 0.3238(4) 0.2370(2) 0.48736(17)
H2 H 0.2423 0.2379 0.4702
C6 C 0.4382(4) 0.2339(2) 0.46178(17)
C7 C 0.5555(4) 0.2338(2) 0.48882(18)
H3 H 0.6331 0.2327 0.4730
C8 C 0.2076(4) 0.24317(18) 0.56328(17)
C9 C 0.4326(5) 0.2335(2) 0.40852(18)
C10 C 0.3321(6) 0.2563(2) 0.3810(2)
H4 H 0.2658 0.2730 0.3965
C11 C 0.3263(6) 0.2552(2) 0.3317(2)
H5 H 0.2563 0.2710 0.3141
C12 C 0.4221(5) 0.2311(2) 0.30737(17)
C13 C 0.5236(6) 0.2095(3) 0.3347(2)
H6 H 0.5933 0.1950 0.3194
C14 C 0.5244(6) 0.2089(3) 0.3845(2)
H7 H 0.5907 0.1910 0.4021
C15 C 0.4188(6) 0.2302(2) 0.2537(2)
C16 C 0.9444(6) 0.3965(3) 0.5564(3)
C17 C 0.9359(11) 0.4429(3) 0.5240(4)
H8 H 0.8473 0.4556 0.5215
H9 H 0.9616 0.4336 0.4923
H10 H 0.9934 0.4695 0.5374
O1 O 0.9663(2) 0.29017(9) 0.63349(9)
O2 O 0.7876(3) 0.25198(13) 0.54321(12)
O3 O 0.6923(3) 0.23041(11) 0.61069(10)
O6 O 0.3240(4) 0.25164(15) 0.23129(13)
O7 O 0.5116(4) 0.2106(2) 0.23539(15)
O14 O 0.9588(4) 0.40381(15) 0.59969(17)
O15 O 0.9404(4) 0.35356(17) 0.53615(15)
Zn4 Zn 0.95220(5) 0.28501(2) 0.565654(18)
O18 O 0.8240(4) 0.24836(15) 0.73129(13)
O22 O 0.9154(3) 0.17914(12) 0.66116(12)
Zn7 Zn 0.61818(4) 0.241808(17) 0.165610(17)
Zn10 Zn 0.32389(4) 0.246962(17) 0.161049(17)
C5_2 C 0.1762(4) 0.7370(2) 0.01264(17)
H2_2 H 0.2577 0.7379 0.0298
C6_2 C 0.0618(4) 0.7339(2) 0.03822(17)
C9_2 C 0.0674(5) 0.7335(2) 0.09148(18)
C10_2 C 0.1679(6) 0.7563(2) 0.1190(2)
H4_2 H 0.2342 0.7730 0.1035
C11_2 C 0.1737(6) 0.7552(2) 0.1683(2)
H5_2 H 0.2437 0.7710 0.1859
C12_2 C 0.0779(5) 0.7311(2) 0.19263(17)
C15_2 C 0.0812(6) 0.7302(2) 0.2463(2)
O6_2 O 0.1760(4) 0.75164(15) 0.26871(13)
Zn10_2 Zn 0.17611(4) 0.746962(17) 0.338951(17)
C3_2 C 0.0510(4) 0.73582(18) 0.93831(16)
H1_2 H 0.0468 0.7343 0.9046
C4_2 C 0.1698(4) 0.73866(19) 0.96362(16)
C8_2 C 0.2924(4) 0.74317(18) 0.93672(17)
O4 O 0.2811(3) 0.73664(13) 0.89284(11)
O5 O 0.3960(3) 0.75442(14) 0.96169(12)
Zn12 Zn 0.54780(5) 0.78501(2) 0.934346(18)
C26_2 C 0.0160(5) 0.01203(19) 0.74683(19)
C29_2 C 0.0162(4) 0.11073(18) 0.70664(19)
C30_2 C 0.1196(5) 0.0938(2) 0.7351(2)
H16_2 H 0.1923 0.1152 0.7409
C31_2 C 0.1190(5) 0.0464(2) 0.7553(2)
H17_2 H 0.1907 0.0364 0.7757
C32_2 C 0.0138(5) 0.16425(17) 0.68558(17)
C7_2 C 0.9445(4) 0.7338(2) 0.01118(18)
H3_2 H 0.8669 0.7327 0.0270
C13_2 C 0.9764(6) 0.7095(3) 0.1653(2)
H6_2 H 0.9067 0.6950 0.1806
C14_2 C 0.9756(6) 0.7089(3) 0.1155(2)
H7_2 H 0.9093 0.6910 0.0979
H9_2 H 0.5384 0.9336 0.0077
O7_2 O 0.9884(4) 0.7106(2) 0.26461(15)
Zn7_2 Zn 0.88182(4) 0.741808(17) 0.334390(17)
C1_2 C 0.8084(4) 0.73837(17) 0.93314(16)
C2_2 C 0.9385(4) 0.73512(18) 0.96195(16)
C16_2 C 0.5556(6) 0.8965(3) 0.9436(3)
C17_2 C 0.5641(11) 0.9429(3) 0.9760(4)
H8_2 H 0.6527 0.9556 0.9785
H10_2 H 0.5066 0.9695 0.9626
C18_2 C 0.2584(4) 0.85767(16) 0.80901(16)
C19_2 C 0.1352(4) 0.88504(17) 0.79699(17)
C20_2 C 0.0200(4) 0.86201(17) 0.80823(18)
H11_2 H 0.0200 0.8285 0.8207
C23_2 C 0.0175(4) 0.96052(18) 0.7671(2)
C24_2 C 0.1343(5) 0.93415(18) 0.77762(19)
H13_2 H 0.2134 0.9499 0.7715
O1_2 O 0.5337(2) 0.79017(9) 0.86651(9)
O2_2 O 0.7124(3) 0.75198(13) 0.95679(12)
O3_2 O 0.8077(3) 0.73041(11) 0.88931(10)
O8_2 O 0.3636(3) 0.88278(11) 0.81271(12)
O9_2 O 0.2499(3) 0.80901(12) 0.81449(12)
O14_2 O 0.5412(4) 0.90381(15) 0.90031(17)
O15_2 O 0.5596(4) 0.85356(17) 0.96385(15)
Zn3 Zn 0.53212(5) 0.85923(2) 0.84087(2)
O18_2 O 0.6760(4) 0.74836(15) 0.76871(13)
O19_2 O 0.4884(4) 0.7894(2) 0.76461(15)
O20 O 0.7925(3) 0.82153(12) 0.83612(14)
O21 O 0.6759(3) 0.88851(13) 0.80845(13)
C27_2 C 0.9097(5) 0.0300(2) 0.7182(2)
H14_2 H 0.8361 0.0092 0.7124
C28_2 C 0.9126(5) 0.0788(2) 0.6981(2)
H15_2 H 0.8413 0.0900 0.6781
C21_2 C 0.9034(4) 0.88932(17) 0.80078(18)
C22_2 C 0.9039(5) 0.93732(18) 0.77985(19)
H12_2 H 0.8248 0.9548 0.7741
C25_2 C 0.7828(4) 0.86382(17) 0.81665(18)
Zn12_2 Zn 0.04780(5) 0.71499(2) 0.434346(18)
C1_3 C 0.3084(4) 0.76163(17) 0.43314(16)
C2_3 C 0.4385(4) 0.76488(18) 0.46195(16)
C3_3 C 0.5510(4) 0.76418(18) 0.43831(16)
H1_3 H 0.5468 0.7657 0.4046
C4_3 C 0.6698(4) 0.76134(19) 0.46362(16)
C5_3 C 0.6762(4) 0.7630(2) 0.51264(17)
H2_3 H 0.7577 0.7621 0.5298
C6_3 C 0.5618(4) 0.7661(2) 0.53822(17)
C7_3 C 0.4445(4) 0.7662(2) 0.51118(18)
H3_3 H 0.3669 0.7673 0.5270
C8_3 C 0.7924(4) 0.75683(18) 0.43672(17)
C9_3 C 0.5674(5) 0.7665(2) 0.59148(18)
C10_3 C 0.6679(6) 0.7437(2) 0.6190(2)
H4_3 H 0.7342 0.7270 0.6035
C11_3 C 0.6737(6) 0.7448(2) 0.6683(2)
H5_3 H 0.7437 0.7290 0.6859
C12_3 C 0.5779(5) 0.7689(2) 0.69263(17)
C13_3 C 0.4764(6) 0.7905(3) 0.6653(2)
H6_3 H 0.4067 0.8050 0.6806
C14_3 C 0.4756(6) 0.7911(3) 0.6155(2)
H7_3 H 0.4093 0.8090 0.5979
C15_3 C 0.5812(6) 0.7698(2) 0.7463(2)
C16_3 C 0.0556(6) 0.6035(3) 0.4436(3)
C17_3 C 0.0641(11) 0.5571(3) 0.4760(4)
H8_3 H 0.1527 0.5444 0.4785
H9_3 H 0.0384 0.5664 0.5077
H10_3 H 0.0066 0.5305 0.4626
O1_3 O 0.0337(2) 0.70983(9) 0.36651(9)
O2_3 O 0.2124(3) 0.74802(13) 0.45679(12)
O3_3 O 0.3077(3) 0.76959(11) 0.38931(10)
O4_2 O 0.7811(3) 0.76336(13) 0.39284(11)
O5_2 O 0.8960(3) 0.74558(14) 0.46169(12)
O14_3 O 0.0412(4) 0.59619(15) 0.40031(17)
O15_3 O 0.0596(4) 0.64644(17) 0.46385(15)
Zn3_2 Zn 0.03212(5) 0.64077(2) 0.34087(2)
O20_2 O 0.2925(3) 0.67847(12) 0.33612(14)
O21_2 O 0.1759(3) 0.61149(13) 0.30845(13)
O22_2 O 0.0846(3) 0.82086(12) 0.33884(12)
C18_3 C 0.7584(4) 0.64233(16) 0.30901(16)
C19_3 C 0.6352(4) 0.61496(17) 0.29699(17)
C20_3 C 0.5200(4) 0.63799(17) 0.30823(18)
H11_3 H 0.5200 0.6715 0.3207
C21_3 C 0.4034(4) 0.61068(17) 0.30078(18)
C22_3 C 0.4039(5) 0.56268(18) 0.27985(19)
H12_3 H 0.3248 0.5452 0.2741
C23_3 C 0.5175(4) 0.53948(18) 0.2671(2)
C24_3 C 0.6343(5) 0.56585(18) 0.27762(19)
H13_3 H 0.7134 0.5501 0.2715
C25_3 C 0.2828(4) 0.63618(17) 0.31665(18)
C26_3 C 0.5160(5) 0.48797(19) 0.24683(19)
C27_3 C 0.4097(5) 0.4700(2) 0.2182(2)
H14_3 H 0.3361 0.4908 0.2124
C28_3 C 0.4126(5) 0.4212(2) 0.1981(2)
H15_3 H 0.3413 0.4100 0.1781
C29_3 C 0.5162(4) 0.38927(18) 0.20664(19)
C30_3 C 0.6196(5) 0.4062(2) 0.2351(2)
H16_3 H 0.6923 0.3848 0.2409
C31_3 C 0.6190(5) 0.4536(2) 0.2553(2)
H17_3 H 0.6907 0.4636 0.2757
C32_3 C 0.5138(5) 0.33575(17) 0.18558(17)
O8_3 O 0.8636(3) 0.61722(11) 0.31271(12)
O9_3 O 0.7499(3) 0.69099(12) 0.31449(12)
O12_2 O 0.4154(3) 0.32086(12) 0.16116(12)
O13_2 O 0.6157(3) 0.30819(12) 0.19478(12)
O23_2 O 0.8843(3) 0.80819(12) 0.30522(12)
C21_4 C 0.0966(4) 0.11068(17) 0.19922(18)
C22_4 C 0.0961(5) 0.06268(18) 0.22015(19)
H12_4 H 0.1752 0.0452 0.2259
C25_4 C 0.2172(4) 0.13618(17) 0.18335(18)
O10_2 O 0.2075(3) 0.17847(12) 0.16388(14)
O11_2 O 0.3241(3) 0.11149(13) 0.19155(13)
Zn11_2 Zn 0.46788(5) 0.14077(2) 0.15913(2)
C27_4 C 0.0903(5) 0.9700(2) 0.2818(2)
H14_4 H 0.1639 0.9908 0.2876
C28_4 C 0.0874(5) 0.9212(2) 0.3019(2)
H15_4 H 0.1587 0.9100 0.3219
C1_4 C 0.1916(4) 0.26163(17) 0.06686(16)
C2_4 C 0.0615(4) 0.26488(18) 0.03805(16)
C16_4 C 0.4444(6) 0.1035(3) 0.0564(3)
C17_4 C 0.4359(11) 0.0571(3) 0.0240(4)
H8_4 H 0.3473 0.0444 0.0215
H10_4 H 0.4934 0.0305 0.0374
C18_4 C 0.7416(4) 0.14233(16) 0.19099(16)
C19_4 C 0.8648(4) 0.11496(17) 0.20301(17)
C20_4 C 0.9800(4) 0.13799(17) 0.19177(18)
H11_4 H 0.9800 0.1715 0.1793
C23_4 C 0.9825(4) 0.03948(18) 0.2329(2)
C24_4 C 0.8657(5) 0.06585(18) 0.22238(19)
H13_4 H 0.7866 0.0501 0.2285
O1_4 O 0.4663(2) 0.20983(9) 0.13349(9)
O2_4 O 0.2876(3) 0.24802(13) 0.04321(12)
O3_4 O 0.1923(3) 0.26959(11) 0.11069(10)
O8_4 O 0.6364(3) 0.11722(11) 0.18729(12)
O9_4 O 0.7501(3) 0.19099(12) 0.18551(12)
O14_4 O 0.4588(4) 0.09619(15) 0.09969(17)
O15_4 O 0.4404(4) 0.14644(17) 0.03615(15)
Zn4_2 Zn 0.45220(5) 0.21499(2) 0.065654(18)
O16_2 O 0.7189(3) 0.26336(13) 0.10716(11)
O17_2 O 0.6040(3) 0.24558(14) 0.03831(12)
C7_4 C 0.0555(4) 0.2662(2) 0.98882(18)
H3_4 H 0.1331 0.2673 0.9730
C13_4 C 0.0236(6) 0.2905(3) 0.8347(2)
H6_4 H 0.0933 0.3050 0.8194
C14_4 C 0.0244(6) 0.2911(3) 0.8845(2)
H7_4 H 0.0907 0.3090 0.9021
H9_4 H 0.4616 0.0664 0.9923
C26_4 C 0.9840(5) 0.98797(19) 0.25317(19)
C29_4 C 0.9838(4) 0.88927(18) 0.29336(19)
C30_4 C 0.8804(5) 0.9062(2) 0.2649(2)
H16_4 H 0.8077 0.8848 0.2591
C31_4 C 0.8810(5) 0.9536(2) 0.2447(2)
H17_4 H 0.8093 0.9636 0.2243
C32_4 C 0.9862(5) 0.83575(17) 0.31442(17)
C3_4 C 0.9490(4) 0.26418(18) 0.06169(16)
H1_4 H 0.9532 0.2657 0.0954
C4_4 C 0.8302(4) 0.26134(19) 0.03638(16)
C8_4 C 0.7076(4) 0.25683(18) 0.06328(17)
C5_4 C 0.8238(4) 0.2630(2) 0.98736(17)
H2_4 H 0.7423 0.2621 0.9702
C6_4 C 0.9382(4) 0.2661(2) 0.96178(17)
C9_4 C 0.9326(5) 0.2665(2) 0.90852(18)
C10_4 C 0.8321(6) 0.2437(2) 0.8810(2)
H4_4 H 0.7658 0.2270 0.8965
C11_4 C 0.8263(6) 0.2448(2) 0.8317(2)
H5_4 H 0.7563 0.2290 0.8141
C12_4 C 0.9221(5) 0.2689(2) 0.80737(17)
C15_4 C 0.9188(6) 0.2698(2) 0.7537(2)
C34 C 0.0319(15) 0.5044(6) 0.6716(6)
H22 H 0.1104 0.5234 0.6809
H23 H 0.0545 0.4729 0.6557
C33 C 0.7965(16) 0.5306(6) 0.6418(6)
H18 H 0.7818 0.4946 0.6482
H19 H 0.7453 0.5407 0.6129
H20 H 0.7709 0.5509 0.6687
H21 H 0.9866 0.4962 0.7000
N1 N 0.9377(15) 0.5392(6) 0.6349(6)
H24 H 0.9568 0.5729 0.6398
H25 H 0.9539 0.5314 0.6041
C33_2 C 0.7035(16) 0.0306(6) 0.8582(6)
H19_2 H 0.7547 0.0407 0.8871
H20_2 H 0.7291 0.0509 0.8313
C34_2 C 0.4681(15) 0.0044(6) 0.8284(6)
H22_2 H 0.3896 0.0234 0.8191
N1_2 N 0.5623(15) 0.0392(6) 0.8651(6)
H24_2 H 0.5432 0.0729 0.8602
H25_2 H 0.5461 0.0314 0.8959
H18_2 H 0.7182 0.9946 0.8518
H21_2 H 0.5134 0.9962 0.8000
H23_2 H 0.4455 0.9729 0.8443
C33_3 C 0.2035(16) 0.4694(6) 0.3582(6)
H18_3 H 0.2182 0.5054 0.3518
H19_3 H 0.2547 0.4593 0.3871
H20_3 H 0.2291 0.4491 0.3313
H21_3 H 0.0134 0.5038 0.3000
N1_3 N 0.0623(15) 0.4608(6) 0.3651(6)
H24_3 H 0.0432 0.4271 0.3602
H25_3 H 0.0461 0.4686 0.3959
C34_3 C 0.9681(15) 0.4956(6) 0.3284(6)
H22_3 H 0.8896 0.4766 0.3191
H23_3 H 0.9455 0.5271 0.3443
H18_4 H 0.2818 0.0054 0.1482
H21_4 H 0.4866 0.0038 0.2000
H23_4 H 0.5545 0.0271 0.1557
C33_4 C 0.2965(16) 0.9694(6) 0.1418(6)
H19_4 H 0.2453 0.9593 0.1129
H20_4 H 0.2709 0.9491 0.1687
C34_4 C 0.5319(15) 0.9956(6) 0.1716(6)
H22_4 H 0.6104 0.9766 0.1809
N1_4 N 0.4377(15) 0.9608(6) 0.1349(6)
H24_4 H 0.4568 0.9271 0.1398
H25_4 H 0.4539 0.9686 0.1041
loop_
_geom_bond_atom_site_label_1
_geom_bond_atom_site_label_2
_geom_bond_site_symmetry_1
_geom_bond_site_symmetry_2
C18 C19 1_555 1_555
C19 C20 1_555 1_555
C20 H11 1_555 1_555
C21 C20 1_555 1_555
C22 C21 1_555 1_555
H12 C22 1_555 1_555
C23 C22 1_555 1_555
C24 C19 1_555 1_555
H13 C24 1_555 1_555
C25 C21 1_555 1_555
C26 C23 1_555 1_555
C27 C26 1_555 1_555
H14 C27 1_555 1_555
C28 C27 1_555 1_555
H15 C28 1_555 1_555
C29 C28 1_555 1_555
C30 C29 1_555 1_555
H16 C30 1_555 1_555
C31 C26 1_555 1_555
H17 C31 1_555 1_555
C32 C29 1_555 1_555
O8 C18 1_555 1_555
O9 C18 1_555 1_555
O10 C25 1_555 1_555
O11 C25 1_555 1_555
O12 C32 1_555 1_555
O13 C32 1_555 1_555
Zn1 O9 1_555 1_555
O16 Zn1 1_555 1_555
O19 Zn1 1_555 1_555
O23 Zn1 1_555 1_555
Zn6 O13 1_555 1_555
Zn8 O10 1_555 1_555
Zn9 O12 1_555 1_555
Zn11 O11 1_555 1_555
C23 C24 1_555 1_555
C30 C31 1_555 1_555
C1 C2 1_555 1_555
C2 C3 1_555 1_555
C3 H1 1_555 1_555
C4 C3 1_555 1_555
C5 C4 1_555 1_555
H2 C5 1_555 1_555
C6 C5 1_555 1_555
C7 C2 1_555 1_555
H3 C7 1_555 1_555
C8 C4 1_555 1_555
C9 C6 1_555 1_555
C10 C9 1_555 1_555
H4 C10 1_555 1_555
C11 C10 1_555 1_555
H5 C11 1_555 1_555
C12 C11 1_555 1_555
C13 C12 1_555 1_555
H6 C13 1_555 1_555
C14 C9 1_555 1_555
H7 C14 1_555 1_555
C15 C12 1_555 1_555
C16 C17 1_555 1_555
C17 H8 1_555 1_555
H9 C17 1_555 1_555
H10 C17 1_555 1_555
O2 C1 1_555 1_555
O3 C1 1_555 1_555
O16 C8 1_555 1_555
O17 C8 1_555 1_555
O6 C15 1_555 1_555
O7 C15 1_555 1_555
O14 C16 1_555 1_555
O15 C16 1_555 1_555
Zn8 O1 1_555 1_555
Zn11 O1 1_555 1_555
Zn4 O1 1_555 1_555
O18 Zn8 1_555 1_555
O22 Zn8 1_555 1_555
Zn7 O7 1_555 1_555
Zn10 O6 1_555 1_555
C6 C7 1_555 1_555
C13 C14 1_555 1_555
O2 Zn4 1_555 1_555
O3 Zn8 1_555 1_555
O14 Zn11 1_555 1_555
O15 Zn4 1_555 1_555
H2_2 C5_2 1_555 1_555
C6_2 C5_2 1_555 1_555
C9_2 C6_2 1_555 1_555
C10_2 C9_2 1_555 1_555
H4_2 C10_2 1_555 1_555
C11_2 C10_2 1_555 1_555
H5_2 C11_2 1_555 1_555
C12_2 C11_2 1_555 1_555
C15_2 C12_2 1_555 1_555
O6_2 C15_2 1_555 1_555
Zn10_2 O6_2 1_555 1_555
C3_2 H1_2 1_555 1_555
C4_2 C3_2 1_555 1_555
C8_2 C4_2 1_555 1_555
O4 C8_2 1_555 1_555
O5 C8_2 1_555 1_555
Zn6 O4 1_555 1_555
Zn12 O5 1_555 1_555
C30_2 C29_2 1_555 1_555
H16_2 C30_2 1_555 1_555
C31_2 C26_2 1_555 1_555
H17_2 C31_2 1_555 1_555
C32_2 C29_2 1_555 1_555
O23 C32_2 1_555 1_555
C30_2 C31_2 1_555 1_555
H3_2 C7_2 1_555 1_555
H6_2 C13_2 1_555 1_555
H7_2 C14_2 1_555 1_555
Zn7_2 O7_2 1_555 1_555
C13_2 C14_2 1_555 1_555
C1_2 C2_2 1_555 1_555
C16_2 C17_2 1_555 1_555
C17_2 H8_2 1_555 1_555
H10_2 C17_2 1_555 1_555
C18_2 C19_2 1_555 1_555
C19_2 C20_2 1_555 1_555
C20_2 H11_2 1_555 1_555
C24_2 C19_2 1_555 1_555
H13_2 C24_2 1_555 1_555
O1_2 Zn6 1_555 1_555
O2_2 C1_2 1_555 1_555
O3_2 C1_2 1_555 1_555
O8_2 C18_2 1_555 1_555
O9_2 C18_2 1_555 1_555
O14_2 C16_2 1_555 1_555
O15_2 C16_2 1_555 1_555
Zn6 O9_2 1_555 1_555
Zn9 O1_2 1_555 1_555
Zn3 O1_2 1_555 1_555
Zn12 O1_2 1_555 1_555
O18_2 Zn9 1_555 1_555
O19_2 Zn6 1_555 1_555
O20 Zn9 1_555 1_555
O21 Zn3 1_555 1_555
C23_2 C24_2 1_555 1_555
O2_2 Zn12 1_555 1_555
O3_2 Zn9 1_555 1_555
O8_2 Zn3 1_555 1_555
O14_2 Zn3 1_555 1_555
O15_2 Zn12 1_555 1_555
H14_2 C27_2 1_555 1_555
C28_2 C27_2 1_555 1_555
H15_2 C28_2 1_555 1_555
C22_2 C21_2 1_555 1_555
H12_2 C22_2 1_555 1_555
C25_2 C21_2 1_555 1_555
O20 C25_2 1_555 1_555
O21 C25_2 1_555 1_555
C1_3 C2_3 1_555 1_555
C2_3 C3_3 1_555 1_555
C3_3 H1_3 1_555 1_555
C4_3 C3_3 1_555 1_555
C5_3 C4_3 1_555 1_555
H2_3 C5_3 1_555 1_555
C6_3 C5_3 1_555 1_555
C7_3 C2_3 1_555 1_555
H3_3 C7_3 1_555 1_555
C8_3 C4_3 1_555 1_555
C9_3 C6_3 1_555 1_555
C10_3 C9_3 1_555 1_555
H4_3 C10_3 1_555 1_555
C11_3 C10_3 1_555 1_555
H5_3 C11_3 1_555 1_555
C12_3 C11_3 1_555 1_555
C13_3 C12_3 1_555 1_555
H6_3 C13_3 1_555 1_555
C14_3 C9_3 1_555 1_555
H7_3 C14_3 1_555 1_555
C15_3 C12_3 1_555 1_555
C16_3 C17_3 1_555 1_555
C17_3 H8_3 1_555 1_555
H9_3 C17_3 1_555 1_555
H10_3 C17_3 1_555 1_555
O2_3 C1_3 1_555 1_555
O3_3 C1_3 1_555 1_555
O4_2 C8_3 1_555 1_555
O5_2 C8_3 1_555 1_555
O18_2 C15_3 1_555 1_555
O19_2 C15_3 1_555 1_555
O14_3 C16_3 1_555 1_555
O15_3 C16_3 1_555 1_555
Zn10_2 O1_3 1_555 1_555
Zn3_2 O1_3 1_555 1_555
Zn12_2 O1_3 1_555 1_555
O20_2 Zn10_2 1_555 1_555
O21_2 Zn3_2 1_555 1_555
O22_2 Zn10_2 1_555 1_555
Zn7_2 O4_2 1_555 1_555
C6_3 C7_3 1_555 1_555
C13_3 C14_3 1_555 1_555
O2_3 Zn12_2 1_555 1_555
O3_3 Zn10_2 1_555 1_555
O14_3 Zn3_2 1_555 1_555
O15_3 Zn12_2 1_555 1_555
C18_3 C19_3 1_555 1_555
C19_3 C20_3 1_555 1_555
C20_3 H11_3 1_555 1_555
C21_3 C20_3 1_555 1_555
C22_3 C21_3 1_555 1_555
H12_3 C22_3 1_555 1_555
C23_3 C22_3 1_555 1_555
C24_3 C19_3 1_555 1_555
H13_3 C24_3 1_555 1_555
C25_3 C21_3 1_555 1_555
C26_3 C23_3 1_555 1_555
C27_3 C26_3 1_555 1_555
H14_3 C27_3 1_555 1_555
C28_3 C27_3 1_555 1_555
H15_3 C28_3 1_555 1_555
C29_3 C28_3 1_555 1_555
C30_3 C29_3 1_555 1_555
H16_3 C30_3 1_555 1_555
C31_3 C26_3 1_555 1_555
H17_3 C31_3 1_555 1_555
C32_3 C29_3 1_555 1_555
O8_3 C18_3 1_555 1_555
O9_3 C18_3 1_555 1_555
O20_2 C25_3 1_555 1_555
O21_2 C25_3 1_555 1_555
O12_2 C32_3 1_555 1_555
O13_2 C32_3 1_555 1_555
Zn7_2 O9_3 1_555 1_555
O23_2 Zn7_2 1_555 1_555
Zn7 O13_2 1_555 1_555
Zn10 O12_2 1_555 1_555
C23_3 C24_3 1_555 1_555
C30_3 C31_3 1_555 1_555
C22_4 C21_4 1_555 1_555
H12_4 C22_4 1_555 1_555
C25_4 C21_4 1_555 1_555
O10_2 C25_4 1_555 1_555
O11_2 C25_4 1_555 1_555
Zn10 O10_2 1_555 1_555
Zn11_2 O11_2 1_555 1_555
H14_4 C27_4 1_555 1_555
C28_4 C27_4 1_555 1_555
H15_4 C28_4 1_555 1_555
C1_4 C2_4 1_555 1_555
C16_4 C17_4 1_555 1_555
C17_4 H8_4 1_555 1_555
H10_4 C17_4 1_555 1_555
C18_4 C19_4 1_555 1_555
C19_4 C20_4 1_555 1_555
C20_4 H11_4 1_555 1_555
C24_4 C19_4 1_555 1_555
H13_4 C24_4 1_555 1_555
O1_4 Zn7 1_555 1_555
O2_4 C1_4 1_555 1_555
O3_4 C1_4 1_555 1_555
O8_4 C18_4 1_555 1_555
O9_4 C18_4 1_555 1_555
O14_4 C16_4 1_555 1_555
O15_4 C16_4 1_555 1_555
Zn7 O9_4 1_555 1_555
Zn10 O1_4 1_555 1_555
Zn11_2 O1_4 1_555 1_555
Zn4_2 O1_4 1_555 1_555
O16_2 Zn7 1_555 1_555
O17_2 Zn4_2 1_555 1_555
C23_4 C24_4 1_555 1_555
O2_4 Zn4_2 1_555 1_555
O3_4 Zn10 1_555 1_555
O8_4 Zn11_2 1_555 1_555
O14_4 Zn11_2 1_555 1_555
O15_4 Zn4_2 1_555 1_555
H3_4 C7_4 1_555 1_555
H6_4 C13_4 1_555 1_555
H7_4 C14_4 1_555 1_555
C13_4 C14_4 1_555 1_555
C30_4 C29_4 1_555 1_555
H16_4 C30_4 1_555 1_555
C31_4 C26_4 1_555 1_555
H17_4 C31_4 1_555 1_555
C32_4 C29_4 1_555 1_555
O23_2 C32_4 1_555 1_555
C30_4 C31_4 1_555 1_555
C3_4 H1_4 1_555 1_555
C4_4 C3_4 1_555 1_555
C8_4 C4_4 1_555 1_555
O16_2 C8_4 1_555 1_555
O17_2 C8_4 1_555 1_555
H2_4 C5_4 1_555 1_555
C6_4 C5_4 1_555 1_555
C9_4 C6_4 1_555 1_555
C10_4 C9_4 1_555 1_555
H4_4 C10_4 1_555 1_555
C11_4 C10_4 1_555 1_555
H5_4 C11_4 1_555 1_555
C12_4 C11_4 1_555 1_555
C15_4 C12_4 1_555 1_555
O18 C15_4 1_555 1_555
H22 C34 1_555 1_555
H23 C34 1_555 1_555
C33 H18 1_555 1_555
H19 C33 1_555 1_555
H20 C33 1_555 1_555
N1 C33 1_555 1_555
H24 N1 1_555 1_555
H25 N1 1_555 1_555
H19_2 C33_2 1_555 1_555
H20_2 C33_2 1_555 1_555
H22_2 C34_2 1_555 1_555
N1_2 C33_2 1_555 1_555
H24_2 N1_2 1_555 1_555
H25_2 N1_2 1_555 1_555
C34_2 N1_2 1_555 1_555
C33_3 H18_3 1_555 1_555
H19_3 C33_3 1_555 1_555
H20_3 C33_3 1_555 1_555
N1_3 C33_3 1_555 1_555
H24_3 N1_3 1_555 1_555
H25_3 N1_3 1_555 1_555
H22_3 C34_3 1_555 1_555
H23_3 C34_3 1_555 1_555
H19_4 C33_4 1_555 1_555
H20_4 C33_4 1_555 1_555
H22_4 C34_4 1_555 1_555
N1_4 C33_4 1_555 1_555
H24_4 N1_4 1_555 1_555
H25_4 N1_4 1_555 1_555
C34_4 N1_4 1_555 1_555

#END
