
###############################################################################
#
# This file contains modified crystal structure data generated from the
# MOF subset of the Cambridge Structural Database (CSD) v543 
# hosted by the Cambridge Crystallographic Data Centre (CCDC).
#
# This work is licensed under the Creative Commons
# Attribution-NonCommercial-ShareAlike 4.0 International License.
# To view a copy of this license, visit
# http://creativecommons.org/licenses/by-nc-sa/4.0/
# or send a letter to
# Creative Commons, PO Box 1866, Mountain View, CA 94042, USA.
#
# CIF created using the CSD Python API on 29 September 2022
# The structure has been converted into the P1 space group
# The structure has a 3D framework
# The original CSD entry PUJQEQ is in the orthorhombic crystal system
# The framework has been calculated to contain at least 10.0% void space
# The void calculation uses a probe of radius 1.32A, grid spacing 0.4
#
###############################################################################

data_PUJQEQ
_chemical_formula_moiety         '(C192 H192 Cu8 N48 O48)n'
_symmetry_cell_setting           triclinic
_symmetry_space_group_name_H-M   'P 1'
_symmetry_Int_Tables_number      1
_space_group_name_Hall           'P 1'
loop_
_symmetry_equiv_pos_site_id
_symmetry_equiv_pos_as_xyz
1 x,y,z
_cell_length_a                   14.7097(18)
_cell_length_b                   21.832(3)
_cell_length_c                   26.719(3)
_cell_angle_alpha                90
_cell_angle_beta                 90
_cell_angle_gamma                90
_cell_volume                     8580.6
loop_
_atom_site_label
_atom_site_type_symbol
_atom_site_fract_x
_atom_site_fract_y
_atom_site_fract_z
N1 N 0.0756(4) 0.09588(23) 0.55948(19)
O1 O 0.1138(3) 0.06127(19) 0.52676(14)
O2 O 0.0916(4) 0.15052(21) 0.55982(20)
O3 O 0.0263(3) 0.07114(23) 0.59135(19)
N3 N 0.3253(3) 0.07688(20) 0.53315(15)
N4 N 0.6687(3) 0.42411(19) 0.45864(14)
C1 C 0.2982(5) 0.1251(3) 0.50591(22)
C2 C 0.3543(5) 0.1764(6) 0.4992(3)
C3 C 0.4415(4) 0.1764(3) 0.51875(22)
C4 C 0.4695(4) 0.1253(3) 0.54565(22)
C5 C 0.4086(4) 0.0769(3) 0.55186(21)
C6 C 0.5064(5) 0.2294(3) 0.51198(23)
C7 C 0.4936(4) 0.2671(3) 0.46520(24)
C8 C 0.5563(4) 0.3216(3) 0.46202(21)
C9 C 0.5235(4) 0.3772(3) 0.44466(20)
C10 C 0.5821(4) 0.4277(3) 0.44373(21)
C11 C 0.7008(4) 0.3715(3) 0.47593(23)
C12 C 0.6468(5) 0.3174(3) 0.4762(3)
N6 N 0.2533(3) 0.00684(20) 0.11312(15)
C19 C 0.2529(4) 0.0200(3) 0.27442(22)
C20 C 0.2544(4) 0.0138(3) 0.21787(19)
C23 C 0.2658(4) 0.0602(3) 0.13692(20)
C24 C 0.2678(4) 0.0654(3) 0.18815(20)
Cu1 Cu 0.24634(5) 0.00134(3) 0.537605(22)
H1 H 0.235 0.125 0.490
H2 H 0.332 0.213 0.480
H3 H 0.533 0.124 0.561
H4 H 0.431 0.040 0.570
H5 H 0.501 0.258 0.542
H6 H 0.571 0.213 0.512
H7 H 0.504 0.240 0.434
H8 H 0.428 0.281 0.463
H9 H 0.458 0.381 0.433
H10 H 0.557 0.469 0.433
H11 H 0.766 0.369 0.489
H12 H 0.674 0.277 0.487
H13 H 0.386 0.002 0.456
H19 H 0.195 0.042 0.284
H20 H 0.306 0.046 0.285
H23 H 0.276 0.099 0.116
H24 H 0.279 0.107 0.205
N8 N 0.2467(3) 0.00684(20) 0.61312(15)
Cu2 Cu 0.74634(5) 0.50134(3) 0.462395(22)
Cu3 Cu 0.25366(5) 0.00134(3) 0.037605(22)
N4_2 N 0.3313(3) 0.92411(19) 0.04136(14)
C2_2 C 0.6457(5) 0.6764(6) 0.0008(3)
C7_2 C 0.5064(4) 0.7671(3) 0.03480(24)
C8_2 C 0.4437(4) 0.8216(3) 0.03798(21)
C9_2 C 0.4765(4) 0.8772(3) 0.05534(20)
C10_2 C 0.4179(4) 0.9277(3) 0.05627(21)
C11_2 C 0.2992(4) 0.8715(3) 0.02407(23)
C12_2 C 0.3532(5) 0.8174(3) 0.0238(3)
N5 N 0.7505(3) 0.49284(21) 0.03783(15)
N6_2 N 0.7467(3) 0.50684(20) 0.38688(15)
C13 C 0.6713(4) 0.4939(3) 0.06281(20)
C14 C 0.6665(4) 0.4822(3) 0.11386(20)
C15 C 0.7454(4) 0.4721(3) 0.14120(20)
C16 C 0.8275(4) 0.4733(3) 0.11616(22)
C17 C 0.8279(4) 0.4828(3) 0.06346(19)
C18 C 0.7437(5) 0.4602(3) 0.19704(21)
C19_2 C 0.7471(4) 0.5200(3) 0.22558(22)
C20_2 C 0.7456(4) 0.5138(3) 0.28213(19)
C21 C 0.7599(4) 0.459(3) 0.30688(21)
C22 C 0.7594(4) 0.4572(3) 0.35857(20)
C23_2 C 0.7342(4) 0.5602(3) 0.36308(20)
C24_2 C 0.7322(4) 0.5654(3) 0.31185(20)
H1_2 H 0.765 0.625 0.010
H2_2 H 0.668 0.713 0.020
H7_2 H 0.496 0.740 0.066
H8_2 H 0.572 0.781 0.037
H9_2 H 0.542 0.881 0.067
H10_2 H 0.443 0.969 0.067
H11_2 H 0.234 0.869 0.011
H12_2 H 0.326 0.777 0.013
H13_2 H 0.614 0.502 0.044
H14 H 0.605 0.482 0.131
H15 H 0.887 0.466 0.135
H16 H 0.888 0.483 0.045
H17 H 0.797 0.434 0.207
H18 H 0.686 0.438 0.206
H19_2 H 0.805 0.542 0.216
H20_2 H 0.694 0.546 0.215
H21 H 0.771 0.420 0.286
H22 H 0.769 0.416 0.376
H23_2 H 0.724 0.599 0.384
H24_2 H 0.721 0.607 0.295
N1_2 N 0.9244(4) 0.59588(23) 0.94052(19)
O1_2 O 0.8862(3) 0.56127(19) 0.97324(14)
O2_2 O 0.9084(4) 0.65052(21) 0.94018(20)
O3_2 O 0.9737(3) 0.57114(23) 0.90865(19)
N2 N 0.5739(3) 0.41076(22) 0.92849(17)
O4 O 0.6133(3) 0.43799(19) 0.96421(14)
O5 O 0.5176(3) 0.44040(21) 0.90237(18)
O6 O 0.5907(4) 0.35672(20) 0.91879(18)
N3_2 N 0.6747(3) 0.57688(20) 0.96685(15)
C1_2 C 0.7018(5) 0.6251(3) 0.99409(22)
C3_2 C 0.5585(4) 0.6764(3) 0.98125(22)
C4_2 C 0.5305(4) 0.6253(3) 0.95435(22)
C5_2 C 0.5914(4) 0.5769(3) 0.94814(21)
C6_2 C 0.4936(5) 0.7294(3) 0.98802(23)
Cu1_2 Cu 0.75366(5) 0.50134(3) 0.962395(22)
H3_2 H 0.467 0.624 0.939
H4_2 H 0.569 0.540 0.930
H5_2 H 0.499 0.758 0.958
H6_2 H 0.429 0.713 0.988
N7 N 0.8313(3) 0.42411(19) 0.95864(14)
N8_2 N 0.7533(3) 0.50684(20) 0.88688(15)
N1_3 N 0.5756(4) 0.59588(23) 0.44052(19)
O1_3 O 0.6138(3) 0.56127(19) 0.47324(14)
O2_3 O 0.5916(4) 0.65052(21) 0.44018(20)
O3_3 O 0.5263(3) 0.57114(23) 0.40865(19)
N2_2 N 0.9261(3) 0.41076(22) 0.42849(17)
O4_2 O 0.8867(3) 0.43799(19) 0.46421(14)
O5_2 O 0.9824(3) 0.44040(21) 0.40237(18)
O6_2 O 0.9093(4) 0.35672(20) 0.41879(18)
N3_3 N 0.8253(3) 0.57688(20) 0.46685(15)
C1_3 C 0.7982(5) 0.6251(3) 0.49409(22)
C2_3 C 0.8543(5) 0.6764(6) 0.5008(3)
C3_3 C 0.9415(4) 0.6764(3) 0.48125(22)
C4_3 C 0.9695(4) 0.6253(3) 0.45435(22)
C5_3 C 0.9086(4) 0.5769(3) 0.44814(21)
C7_3 C 0.9936(4) 0.7671(3) 0.53480(24)
N5_2 N 0.7495(3) 0.49284(21) 0.53783(15)
C13_2 C 0.8287(4) 0.4939(3) 0.56281(20)
C14_2 C 0.8335(4) 0.4822(3) 0.61386(20)
C15_2 C 0.7546(4) 0.4721(3) 0.64120(20)
C16_2 C 0.6725(4) 0.4733(3) 0.61616(22)
C17_2 C 0.6721(4) 0.4828(3) 0.56346(19)
C18_2 C 0.7563(5) 0.4602(3) 0.69704(21)
C19_3 C 0.7529(4) 0.5200(3) 0.72558(22)
C20_3 C 0.7544(4) 0.5138(3) 0.78213(19)
C21_2 C 0.7401(4) 0.459(3) 0.80688(21)
C22_2 C 0.7406(4) 0.4572(3) 0.85857(20)
C23_3 C 0.7658(4) 0.5602(3) 0.86308(20)
C24_3 C 0.7678(4) 0.5654(3) 0.81185(20)
H1_3 H 0.735 0.625 0.510
H2_3 H 0.832 0.713 0.520
H4_3 H 0.931 0.540 0.430
H8_3 H 0.928 0.781 0.537
H9_3 H 0.958 0.881 0.567
H13_3 H 0.886 0.502 0.544
H14_2 H 0.895 0.482 0.631
H15_2 H 0.613 0.466 0.635
H16_2 H 0.612 0.483 0.545
H17_2 H 0.703 0.434 0.707
H18_2 H 0.814 0.438 0.706
H19_3 H 0.695 0.542 0.716
H20_3 H 0.806 0.546 0.715
H21_2 H 0.729 0.420 0.786
H22_2 H 0.731 0.416 0.876
H23_3 H 0.776 0.599 0.884
H24_3 H 0.779 0.607 0.795
N1_4 N 0.4244(4) 0.09588(23) 0.05948(19)
O1_4 O 0.3862(3) 0.06127(19) 0.02676(14)
O2_4 O 0.4084(4) 0.15052(21) 0.05982(20)
O3_4 O 0.4737(3) 0.07114(23) 0.09135(19)
N3_4 N 0.1747(3) 0.07688(20) 0.03315(15)
C1_4 C 0.2018(5) 0.1251(3) 0.00591(22)
C3_4 C 0.0585(4) 0.1764(3) 0.01875(22)
C4_4 C 0.0305(4) 0.1253(3) 0.04565(22)
C5_4 C 0.0914(4) 0.0769(3) 0.05186(21)
H4_4 H 0.069 0.040 0.070
C2_4 C 0.1457(5) 0.1764(6) 0.9992(3)
C7_4 C 0.0064(4) 0.2671(3) 0.96520(24)
C19_4 C 0.2471(4) 0.0200(3) 0.77442(22)
C20_4 C 0.2456(4) 0.0138(3) 0.71787(19)
C23_4 C 0.2342(4) 0.0602(3) 0.63692(20)
C24_4 C 0.2322(4) 0.0654(3) 0.68815(20)
H1_4 H 0.265 0.125 0.990
H2_4 H 0.168 0.213 0.980
H8_4 H 0.072 0.281 0.963
H9_4 H 0.042 0.381 0.933
H13_4 H 0.114 0.002 0.956
H19_4 H 0.305 0.042 0.784
H20_4 H 0.194 0.046 0.785
H23_4 H 0.224 0.099 0.616
H24_4 H 0.221 0.107 0.705
N2_3 N 0.0739(3) 0.91076(22) 0.07151(17)
O4_3 O 0.1133(3) 0.93799(19) 0.03579(14)
O5_3 O 0.0176(3) 0.94040(21) 0.09763(18)
O6_3 O 0.0907(4) 0.85672(20) 0.08121(18)
C8_3 C 0.9437(4) 0.3216(3) 0.96202(21)
C9_3 C 0.9765(4) 0.3772(3) 0.94466(20)
C10_3 C 0.9179(4) 0.4277(3) 0.94373(21)
C11_3 C 0.7992(4) 0.3715(3) 0.97593(23)
C12_3 C 0.8532(5) 0.3174(3) 0.9762(3)
H7_3 H 0.996 0.240 0.934
H10_3 H 0.943 0.469 0.933
H11_3 H 0.734 0.369 0.989
H12_3 H 0.826 0.277 0.987
N2_4 N 0.4261(3) 0.91076(22) 0.57151(17)
O4_4 O 0.3867(3) 0.93799(19) 0.53579(14)
O5_4 O 0.4824(3) 0.94040(21) 0.59763(18)
O6_4 O 0.4093(4) 0.85672(20) 0.58121(18)
N5_3 N 0.2495(3) 0.99284(21) 0.46217(15)
C13_3 C 0.3287(4) 0.9939(3) 0.43719(20)
C14_3 C 0.3335(4) 0.9822(3) 0.38614(20)
C15_3 C 0.2546(4) 0.9721(3) 0.35880(20)
C16_3 C 0.1725(4) 0.9733(3) 0.38384(22)
C17_3 C 0.1721(4) 0.9828(3) 0.43654(19)
C18_3 C 0.2563(5) 0.9602(3) 0.30296(21)
C21_3 C 0.2401(4) 0.959(3) 0.19312(21)
C22_3 C 0.2406(4) 0.9572(3) 0.14143(20)
H14_3 H 0.395 0.982 0.369
H15_3 H 0.113 0.966 0.365
H16_3 H 0.112 0.983 0.455
H17_3 H 0.203 0.934 0.293
H18_3 H 0.314 0.938 0.294
H21_3 H 0.229 0.920 0.214
H22_3 H 0.231 0.916 0.124
N7_2 N 0.1687(3) 0.92411(19) 0.54136(14)
C6_3 C 0.0064(5) 0.7294(3) 0.48802(23)
C8_4 C 0.0563(4) 0.8216(3) 0.53798(21)
C9_4 C 0.0235(4) 0.8772(3) 0.55534(20)
C10_4 C 0.0821(4) 0.9277(3) 0.55627(21)
C11_4 C 0.2008(4) 0.8715(3) 0.52407(23)
C12_4 C 0.1468(5) 0.8174(3) 0.5238(3)
H3_3 H 0.033 0.624 0.439
H5_3 H 0.001 0.758 0.458
H6_3 H 0.071 0.713 0.488
H7_4 H 0.004 0.740 0.566
H10_4 H 0.057 0.969 0.567
H11_4 H 0.266 0.869 0.511
H12_4 H 0.174 0.777 0.513
N1_5 N 0.4244(4) 0.40412(23) 0.55948(19)
O1_5 O 0.3862(3) 0.43873(19) 0.52676(14)
O2_5 O 0.4084(4) 0.34948(21) 0.55982(20)
O3_5 O 0.4737(3) 0.42886(23) 0.59135(19)
N2_5 N 0.0739(3) 0.58924(22) 0.57151(17)
O4_5 O 0.1133(3) 0.56201(19) 0.53579(14)
O5_5 O 0.0176(3) 0.55960(21) 0.59763(18)
O6_5 O 0.0907(4) 0.64328(20) 0.58121(18)
N3_5 N 0.1747(3) 0.42312(20) 0.53315(15)
C1_5 C 0.2018(5) 0.3749(3) 0.50591(22)
C2_5 C 0.1457(5) 0.3236(6) 0.4992(3)
C3_5 C 0.0585(4) 0.3236(3) 0.51875(22)
C4_5 C 0.0305(4) 0.3747(3) 0.54565(22)
C5_5 C 0.0914(4) 0.4231(3) 0.55186(21)
C7_5 C 0.0064(4) 0.2329(3) 0.46520(24)
N5_4 N 0.2505(3) 0.50716(21) 0.46217(15)
N6_3 N 0.2467(3) 0.49316(20) 0.11312(15)
C13_4 C 0.1713(4) 0.5061(3) 0.43719(20)
C14_4 C 0.1665(4) 0.5178(3) 0.38614(20)
C15_4 C 0.2454(4) 0.5279(3) 0.35880(20)
C16_4 C 0.3275(4) 0.5267(3) 0.38384(22)
C17_4 C 0.3279(4) 0.5172(3) 0.43654(19)
C18_4 C 0.2437(5) 0.5398(3) 0.30296(21)
C19_5 C 0.2471(4) 0.4800(3) 0.27442(22)
C20_5 C 0.2456(4) 0.4862(3) 0.21787(19)
C21_4 C 0.2599(4) 0.541(3) 0.19312(21)
C22_4 C 0.2594(4) 0.5428(3) 0.14143(20)
C23_5 C 0.2342(4) 0.4398(3) 0.13692(20)
C24_5 C 0.2322(4) 0.4346(3) 0.18815(20)
Cu1_3 Cu 0.25366(5) 0.49866(3) 0.537605(22)
H1_5 H 0.265 0.375 0.490
H2_5 H 0.168 0.287 0.480
H4_5 H 0.069 0.460 0.570
H8_5 H 0.072 0.219 0.463
H9_5 H 0.042 0.119 0.433
H13_5 H 0.114 0.498 0.456
H14_4 H 0.105 0.518 0.369
H15_4 H 0.387 0.534 0.365
H16_4 H 0.388 0.517 0.455
H17_4 H 0.297 0.566 0.293
H18_4 H 0.186 0.562 0.294
H19_5 H 0.305 0.458 0.284
H20_5 H 0.194 0.454 0.285
H21_4 H 0.271 0.580 0.214
H22_4 H 0.269 0.584 0.124
H23_5 H 0.224 0.401 0.116
H24_5 H 0.221 0.393 0.205
N7_3 N 0.3313(3) 0.57589(19) 0.54136(14)
N8_3 N 0.2533(3) 0.49316(20) 0.61312(15)
Cu3_2 Cu 0.24634(5) 0.49866(3) 0.037605(22)
Cu2_2 Cu 0.75366(5) 0.99866(3) 0.462395(22)
N4_3 N 0.1687(3) 0.57589(19) 0.04136(14)
C8_5 C 0.0563(4) 0.6784(3) 0.03798(21)
C9_5 C 0.0235(4) 0.6228(3) 0.05534(20)
C10_5 C 0.0821(4) 0.5723(3) 0.05627(21)
C11_5 C 0.2008(4) 0.6285(3) 0.02407(23)
C12_5 C 0.1468(5) 0.6826(3) 0.0238(3)
H7_5 H 0.004 0.760 0.066
H10_5 H 0.057 0.531 0.067
H11_5 H 0.266 0.631 0.011
H12_5 H 0.174 0.723 0.013
N2_6 N 0.9261(3) 0.08924(22) 0.92849(17)
O4_6 O 0.8867(3) 0.06201(19) 0.96421(14)
O5_6 O 0.9824(3) 0.05960(21) 0.90237(18)
O6_6 O 0.9093(4) 0.14328(20) 0.91879(18)
N7_4 N 0.6687(3) 0.07589(19) 0.95864(14)
C2_6 C 0.8543(5) 0.8236(6) 0.0008(3)
C7_6 C 0.9936(4) 0.7329(3) 0.03480(24)
N6_4 N 0.7533(3) 0.99316(20) 0.38688(15)
C19_6 C 0.7529(4) 0.9800(3) 0.22558(22)
C20_6 C 0.7544(4) 0.9862(3) 0.28213(19)
C23_6 C 0.7658(4) 0.9398(3) 0.36308(20)
C24_6 C 0.7678(4) 0.9346(3) 0.31185(20)
H1_6 H 0.735 0.875 0.010
H2_6 H 0.832 0.787 0.020
H8_6 H 0.928 0.719 0.037
H9_6 H 0.958 0.619 0.067
H13_6 H 0.886 0.998 0.044
H19_6 H 0.695 0.958 0.216
H20_6 H 0.806 0.954 0.215
H23_6 H 0.776 0.901 0.384
H24_6 H 0.779 0.893 0.295
N1_6 N 0.5756(4) 0.90412(23) 0.94052(19)
O1_6 O 0.6138(3) 0.93873(19) 0.97324(14)
O2_6 O 0.5916(4) 0.84948(21) 0.94018(20)
O3_6 O 0.5263(3) 0.92886(23) 0.90865(19)
N3_6 N 0.8253(3) 0.92312(20) 0.96685(15)
C1_6 C 0.7982(5) 0.8749(3) 0.99409(22)
C3_6 C 0.9415(4) 0.8236(3) 0.98125(22)
C4_6 C 0.9695(4) 0.8747(3) 0.95435(22)
C5_6 C 0.9086(4) 0.9231(3) 0.94814(21)
Cu1_4 Cu 0.74634(5) 0.99866(3) 0.962395(22)
H4_6 H 0.931 0.960 0.930
N8_4 N 0.7467(3) 0.99316(20) 0.88688(15)
N1_7 N 0.9244(4) 0.90412(23) 0.44052(19)
O1_7 O 0.8862(3) 0.93873(19) 0.47324(14)
O2_7 O 0.9084(4) 0.84948(21) 0.44018(20)
O3_7 O 0.9737(3) 0.92886(23) 0.40865(19)
N3_7 N 0.6747(3) 0.92312(20) 0.46685(15)
C1_7 C 0.7018(5) 0.8749(3) 0.49409(22)
C2_7 C 0.6457(5) 0.8236(6) 0.5008(3)
C3_7 C 0.5585(4) 0.8236(3) 0.48125(22)
C4_7 C 0.5305(4) 0.8747(3) 0.45435(22)
C5_7 C 0.5914(4) 0.9231(3) 0.44814(21)
C6_4 C 0.4936(5) 0.7706(3) 0.48802(23)
C7_7 C 0.5064(4) 0.7329(3) 0.53480(24)
C8_6 C 0.4437(4) 0.6784(3) 0.53798(21)
C9_6 C 0.4765(4) 0.6228(3) 0.55534(20)
C10_6 C 0.4179(4) 0.5723(3) 0.55627(21)
C11_6 C 0.2992(4) 0.6285(3) 0.52407(23)
C12_6 C 0.3532(5) 0.6826(3) 0.5238(3)
C19_7 C 0.7471(4) 0.9800(3) 0.72558(22)
C20_7 C 0.7456(4) 0.9862(3) 0.78213(19)
C23_7 C 0.7342(4) 0.9398(3) 0.86308(20)
C24_7 C 0.7322(4) 0.9346(3) 0.81185(20)
H1_7 H 0.765 0.875 0.510
H2_7 H 0.668 0.787 0.520
H3_4 H 0.467 0.876 0.439
H4_7 H 0.569 0.960 0.430
H5_4 H 0.499 0.742 0.458
H6_4 H 0.429 0.787 0.488
H7_6 H 0.496 0.760 0.566
H8_7 H 0.572 0.719 0.537
H9_7 H 0.542 0.619 0.567
H10_6 H 0.443 0.531 0.567
H11_6 H 0.234 0.631 0.511
H12_6 H 0.326 0.723 0.513
H13_7 H 0.614 0.998 0.544
H19_7 H 0.805 0.958 0.716
H20_7 H 0.694 0.954 0.715
H23_7 H 0.724 0.901 0.884
H24_7 H 0.721 0.893 0.795
N1_8 N 0.0756(4) 0.40412(23) 0.05948(19)
O1_8 O 0.1138(3) 0.43873(19) 0.02676(14)
O2_8 O 0.0916(4) 0.34948(21) 0.05982(20)
O3_8 O 0.0263(3) 0.42886(23) 0.09135(19)
N2_7 N 0.4261(3) 0.58924(22) 0.07151(17)
O4_7 O 0.3867(3) 0.56201(19) 0.03579(14)
O5_7 O 0.4824(3) 0.55960(21) 0.09763(18)
O6_7 O 0.4093(4) 0.64328(20) 0.08121(18)
N3_8 N 0.3253(3) 0.42312(20) 0.03315(15)
C1_8 C 0.2982(5) 0.3749(3) 0.00591(22)
C3_8 C 0.4415(4) 0.3236(3) 0.01875(22)
C4_8 C 0.4695(4) 0.3747(3) 0.04565(22)
C5_8 C 0.4086(4) 0.4231(3) 0.05186(21)
C6_5 C 0.5064(5) 0.2706(3) 0.01198(23)
H3_5 H 0.533 0.376 0.061
H4_8 H 0.431 0.460 0.070
H5_5 H 0.501 0.242 0.042
H6_5 H 0.571 0.287 0.012
C2_8 C 0.3543(5) 0.3236(6) 0.9992(3)
C7_8 C 0.4936(4) 0.2329(3) 0.96520(24)
C8_7 C 0.5563(4) 0.1784(3) 0.96202(21)
C9_7 C 0.5235(4) 0.1228(3) 0.94466(20)
C10_7 C 0.5821(4) 0.0723(3) 0.94373(21)
C11_7 C 0.7008(4) 0.1285(3) 0.97593(23)
C12_7 C 0.6468(5) 0.1826(3) 0.9762(3)
N5_5 N 0.2495(3) 0.50716(21) 0.96217(15)
C13_5 C 0.3287(4) 0.5061(3) 0.93719(20)
C14_5 C 0.3335(4) 0.5178(3) 0.88614(20)
C15_5 C 0.2546(4) 0.5279(3) 0.85880(20)
C16_5 C 0.1725(4) 0.5267(3) 0.88384(22)
C17_5 C 0.1721(4) 0.5172(3) 0.93654(19)
C18_5 C 0.2563(5) 0.5398(3) 0.80296(21)
C19_8 C 0.2529(4) 0.4800(3) 0.77442(22)
C20_8 C 0.2544(4) 0.4862(3) 0.71787(19)
C21_5 C 0.2401(4) 0.541(3) 0.69312(21)
C22_5 C 0.2406(4) 0.5428(3) 0.64143(20)
C23_8 C 0.2658(4) 0.4398(3) 0.63692(20)
C24_8 C 0.2678(4) 0.4346(3) 0.68815(20)
H1_8 H 0.235 0.375 0.990
H2_8 H 0.332 0.287 0.980
H7_7 H 0.504 0.260 0.934
H8_8 H 0.428 0.219 0.963
H9_8 H 0.458 0.119 0.933
H10_7 H 0.557 0.031 0.933
H11_7 H 0.766 0.131 0.989
H12_7 H 0.674 0.223 0.987
H13_8 H 0.386 0.498 0.956
H14_5 H 0.395 0.518 0.869
H15_5 H 0.113 0.534 0.865
H16_5 H 0.112 0.517 0.955
H17_5 H 0.203 0.566 0.793
H18_5 H 0.314 0.562 0.794
H19_8 H 0.195 0.458 0.784
H20_8 H 0.306 0.454 0.785
H21_5 H 0.229 0.580 0.714
H22_5 H 0.231 0.584 0.624
H23_8 H 0.276 0.401 0.616
H24_8 H 0.279 0.393 0.705
N4_4 N 0.8313(3) 0.07589(19) 0.45864(14)
C6_6 C 0.9936(5) 0.2706(3) 0.51198(23)
C8_8 C 0.9437(4) 0.1784(3) 0.46202(21)
C9_8 C 0.9765(4) 0.1228(3) 0.44466(20)
C10_8 C 0.9179(4) 0.0723(3) 0.44373(21)
C11_8 C 0.7992(4) 0.1285(3) 0.47593(23)
C12_8 C 0.8532(5) 0.1826(3) 0.4762(3)
H3_6 H 0.967 0.376 0.561
H5_6 H 0.999 0.242 0.542
H6_6 H 0.929 0.287 0.512
H7_8 H 0.996 0.260 0.434
H10_8 H 0.943 0.031 0.433
H11_8 H 0.734 0.131 0.489
H12_8 H 0.826 0.223 0.487
N2_8 N 0.5739(3) 0.08924(22) 0.42849(17)
O4_8 O 0.6133(3) 0.06201(19) 0.46421(14)
O5_8 O 0.5176(3) 0.05960(21) 0.40237(18)
O6_8 O 0.5907(4) 0.14328(20) 0.41879(18)
N5_6 N 0.7505(3) 0.00716(21) 0.53783(15)
C13_6 C 0.6713(4) 0.0061(3) 0.56281(20)
C14_6 C 0.6665(4) 0.0178(3) 0.61386(20)
C15_6 C 0.7454(4) 0.0279(3) 0.64120(20)
C16_6 C 0.8275(4) 0.0267(3) 0.61616(22)
C17_6 C 0.8279(4) 0.0172(3) 0.56346(19)
C18_6 C 0.7437(5) 0.0398(3) 0.69704(21)
C21_6 C 0.7599(4) 0.041(3) 0.80688(21)
C22_6 C 0.7594(4) 0.0428(3) 0.85857(20)
H14_6 H 0.605 0.018 0.631
H15_6 H 0.887 0.034 0.635
H16_6 H 0.888 0.017 0.545
H17_6 H 0.797 0.066 0.707
H18_6 H 0.686 0.062 0.706
H21_6 H 0.771 0.080 0.786
H22_6 H 0.769 0.084 0.876
C6_7 C 0.0064(5) 0.7706(3) 0.98802(23)
H3_7 H 0.033 0.876 0.939
H5_7 H 0.001 0.742 0.958
H6_7 H 0.071 0.787 0.988
N5_7 N 0.7495(3) 0.00716(21) 0.03783(15)
C13_7 C 0.8287(4) 0.0061(3) 0.06281(20)
C14_7 C 0.8335(4) 0.0178(3) 0.11386(20)
C15_7 C 0.7546(4) 0.0279(3) 0.14120(20)
C16_7 C 0.6725(4) 0.0267(3) 0.11616(22)
C17_7 C 0.6721(4) 0.0172(3) 0.06346(19)
C18_7 C 0.7563(5) 0.0398(3) 0.19704(21)
C21_7 C 0.7401(4) 0.041(3) 0.30688(21)
C22_7 C 0.7406(4) 0.0428(3) 0.35857(20)
H14_7 H 0.895 0.018 0.131
H15_7 H 0.613 0.034 0.135
H16_7 H 0.612 0.017 0.045
H17_7 H 0.703 0.066 0.207
H18_7 H 0.814 0.062 0.206
H21_7 H 0.729 0.080 0.286
H22_7 H 0.731 0.084 0.376
N5_8 N 0.2505(3) 0.99284(21) 0.96217(15)
C13_8 C 0.1713(4) 0.9939(3) 0.93719(20)
C14_8 C 0.1665(4) 0.9822(3) 0.88614(20)
C15_8 C 0.2454(4) 0.9721(3) 0.85880(20)
C16_8 C 0.3275(4) 0.9733(3) 0.88384(22)
C17_8 C 0.3279(4) 0.9828(3) 0.93654(19)
C18_8 C 0.2437(5) 0.9602(3) 0.80296(21)
C21_8 C 0.2599(4) 0.959(3) 0.69312(21)
C22_8 C 0.2594(4) 0.9572(3) 0.64143(20)
H14_8 H 0.105 0.982 0.869
H15_8 H 0.387 0.966 0.865
H16_8 H 0.388 0.983 0.955
H17_8 H 0.297 0.934 0.793
H18_8 H 0.186 0.938 0.794
H21_8 H 0.271 0.920 0.714
H22_8 H 0.269 0.916 0.624
C6_8 C 0.9936(5) 0.2294(3) 0.01198(23)
H3_8 H 0.967 0.124 0.061
H5_8 H 0.999 0.258 0.042
H6_8 H 0.929 0.213 0.012
loop_
_geom_bond_atom_site_label_1
_geom_bond_atom_site_label_2
_geom_bond_site_symmetry_1
_geom_bond_site_symmetry_2
N1 O1 1_555 1_555
O1 Cu1 1_555 1_555
O2 N1 1_555 1_555
O3 N1 1_555 1_555
N3 C1 1_555 1_555
N4 C10 1_555 1_555
C1 C2 1_555 1_555
C2 C3 1_555 1_555
C3 C4 1_555 1_555
C4 C5 1_555 1_555
C5 N3 1_555 1_555
C6 C3 1_555 1_555
C7 C6 1_555 1_555
C8 C7 1_555 1_555
C9 C8 1_555 1_555
C10 C9 1_555 1_555
C11 N4 1_555 1_555
C12 C8 1_555 1_555
C20 C19 1_555 1_555
C23 N6 1_555 1_555
C24 C20 1_555 1_555
Cu1 N3 1_555 1_555
H1 C1 1_555 1_555
H2 C2 1_555 1_555
H3 C4 1_555 1_555
H4 C5 1_555 1_555
H5 C6 1_555 1_555
H6 C6 1_555 1_555
H7 C7 1_555 1_555
H8 C7 1_555 1_555
H9 C9 1_555 1_555
H10 C10 1_555 1_555
H11 C11 1_555 1_555
H12 C12 1_555 1_555
H19 C19 1_555 1_555
H20 C19 1_555 1_555
H23 C23 1_555 1_555
H24 C24 1_555 1_555
N8 Cu1 1_555 1_555
Cu2 N4 1_555 1_555
Cu3 N6 1_555 1_555
C11 C12 1_555 1_555
C23 C24 1_555 1_555
N4_2 C10_2 1_555 1_555
C8_2 C7_2 1_555 1_555
C9_2 C8_2 1_555 1_555
C10_2 C9_2 1_555 1_555
C11_2 N4_2 1_555 1_555
C12_2 C8_2 1_555 1_555
N5 C13 1_555 1_555
N6_2 C22 1_555 1_555
C13 C14 1_555 1_555
C14 C15 1_555 1_555
C15 C16 1_555 1_555
C16 C17 1_555 1_555
C17 N5 1_555 1_555
C18 C15 1_555 1_555
C19_2 C18 1_555 1_555
C20_2 C19_2 1_555 1_555
C21 C20_2 1_555 1_555
C22 C21 1_555 1_555
C23_2 N6_2 1_555 1_555
C24_2 C20_2 1_555 1_555
H2_2 C2_2 1_555 1_555
H7_2 C7_2 1_555 1_555
H8_2 C7_2 1_555 1_555
H9_2 C9_2 1_555 1_555
H10_2 C10_2 1_555 1_555
H11_2 C11_2 1_555 1_555
H12_2 C12_2 1_555 1_555
H13_2 C13 1_555 1_555
H14 C14 1_555 1_555
H15 C16 1_555 1_555
H16 C17 1_555 1_555
H17 C18 1_555 1_555
H18 C18 1_555 1_555
H19_2 C19_2 1_555 1_555
H20_2 C19_2 1_555 1_555
H21 C21 1_555 1_555
H22 C22 1_555 1_555
H23_2 C23_2 1_555 1_555
H24_2 C24_2 1_555 1_555
Cu2 N6_2 1_555 1_555
C11_2 C12_2 1_555 1_555
C23_2 C24_2 1_555 1_555
N1_2 O1_2 1_555 1_555
O1_2 Cu1_2 1_555 1_555
O2_2 N1_2 1_555 1_555
O3_2 N1_2 1_555 1_555
N2 O4 1_555 1_555
O4 Cu1_2 1_555 1_555
O5 N2 1_555 1_555
O6 N2 1_555 1_555
N3_2 C1_2 1_555 1_555
C3_2 C4_2 1_555 1_555
C4_2 C5_2 1_555 1_555
C5_2 N3_2 1_555 1_555
C6_2 C3_2 1_555 1_555
Cu1_2 N3_2 1_555 1_555
H3_2 C4_2 1_555 1_555
H4_2 C5_2 1_555 1_555
H5_2 C6_2 1_555 1_555
H6_2 C6_2 1_555 1_555
N7 Cu1_2 1_555 1_555
N8_2 Cu1_2 1_555 1_555
N1_3 O1_3 1_555 1_555
O1_3 Cu2 1_555 1_555
O2_3 N1_3 1_555 1_555
O3_3 N1_3 1_555 1_555
N2_2 O4_2 1_555 1_555
O4_2 Cu2 1_555 1_555
O5_2 N2_2 1_555 1_555
O6_2 N2_2 1_555 1_555
N3_3 C1_3 1_555 1_555
C1_3 C2_3 1_555 1_555
C2_3 C3_3 1_555 1_555
C3_3 C4_3 1_555 1_555
C4_3 C5_3 1_555 1_555
C5_3 N3_3 1_555 1_555
N5_2 C13_2 1_555 1_555
N8_2 C22_2 1_555 1_555
C13_2 C14_2 1_555 1_555
C14_2 C15_2 1_555 1_555
C15_2 C16_2 1_555 1_555
C16_2 C17_2 1_555 1_555
C17_2 N5_2 1_555 1_555
C18_2 C15_2 1_555 1_555
C19_3 C18_2 1_555 1_555
C20_3 C19_3 1_555 1_555
C21_2 C20_3 1_555 1_555
C22_2 C21_2 1_555 1_555
C23_3 N8_2 1_555 1_555
C24_3 C20_3 1_555 1_555
Cu2 N3_3 1_555 1_555
H1_3 C1_3 1_555 1_555
H2_3 C2_3 1_555 1_555
H4_3 C5_3 1_555 1_555
H8_3 C7_3 1_555 1_555
H13_3 C13_2 1_555 1_555
H14_2 C14_2 1_555 1_555
H15_2 C16_2 1_555 1_555
H16_2 C17_2 1_555 1_555
H17_2 C18_2 1_555 1_555
H18_2 C18_2 1_555 1_555
H19_3 C19_3 1_555 1_555
H20_3 C19_3 1_555 1_555
H21_2 C21_2 1_555 1_555
H22_2 C22_2 1_555 1_555
H23_3 C23_3 1_555 1_555
H24_3 C24_3 1_555 1_555
N5_2 Cu2 1_555 1_555
C23_3 C24_3 1_555 1_555
N1_4 O1_4 1_555 1_555
O1_4 Cu3 1_555 1_555
O2_4 N1_4 1_555 1_555
O3_4 N1_4 1_555 1_555
N3_4 C1_4 1_555 1_555
C3_4 C4_4 1_555 1_555
C4_4 C5_4 1_555 1_555
C5_4 N3_4 1_555 1_555
Cu3 N3_4 1_555 1_555
H4_4 C5_4 1_555 1_555
C20_4 C19_4 1_555 1_555
C23_4 N8 1_555 1_555
C24_4 C20_4 1_555 1_555
H2_4 C2_4 1_555 1_555
H8_4 C7_4 1_555 1_555
H19_4 C19_4 1_555 1_555
H20_4 C19_4 1_555 1_555
H23_4 C23_4 1_555 1_555
H24_4 C24_4 1_555 1_555
C23_4 C24_4 1_555 1_555
N2_3 O4_3 1_555 1_555
O5_3 N2_3 1_555 1_555
O6_3 N2_3 1_555 1_555
N7 C10_3 1_555 1_555
C9_3 C8_3 1_555 1_555
C10_3 C9_3 1_555 1_555
C11_3 N7 1_555 1_555
C12_3 C8_3 1_555 1_555
H10_3 C10_3 1_555 1_555
H11_3 C11_3 1_555 1_555
H12_3 C12_3 1_555 1_555
C11_3 C12_3 1_555 1_555
N2_4 O4_4 1_555 1_555
O5_4 N2_4 1_555 1_555
O6_4 N2_4 1_555 1_555
N5_3 C13_3 1_555 1_555
C13_3 C14_3 1_555 1_555
C14_3 C15_3 1_555 1_555
C15_3 C16_3 1_555 1_555
C16_3 C17_3 1_555 1_555
C17_3 N5_3 1_555 1_555
C18_3 C15_3 1_555 1_555
C22_3 C21_3 1_555 1_555
H14_3 C14_3 1_555 1_555
H15_3 C16_3 1_555 1_555
H16_3 C17_3 1_555 1_555
H17_3 C18_3 1_555 1_555
H18_3 C18_3 1_555 1_555
H21_3 C21_3 1_555 1_555
H22_3 C22_3 1_555 1_555
N7_2 C10_4 1_555 1_555
C9_4 C8_4 1_555 1_555
C10_4 C9_4 1_555 1_555
C11_4 N7_2 1_555 1_555
C12_4 C8_4 1_555 1_555
H5_3 C6_3 1_555 1_555
H6_3 C6_3 1_555 1_555
H10_4 C10_4 1_555 1_555
H11_4 C11_4 1_555 1_555
H12_4 C12_4 1_555 1_555
C11_4 C12_4 1_555 1_555
N1_5 O1_5 1_555 1_555
O1_5 Cu1_3 1_555 1_555
O2_5 N1_5 1_555 1_555
O3_5 N1_5 1_555 1_555
N2_5 O4_5 1_555 1_555
O4_5 Cu1_3 1_555 1_555
O5_5 N2_5 1_555 1_555
O6_5 N2_5 1_555 1_555
N3_5 C1_5 1_555 1_555
C1_5 C2_5 1_555 1_555
C2_5 C3_5 1_555 1_555
C3_5 C4_5 1_555 1_555
C4_5 C5_5 1_555 1_555
C5_5 N3_5 1_555 1_555
N5_4 C13_4 1_555 1_555
N6_3 C22_4 1_555 1_555
C13_4 C14_4 1_555 1_555
C14_4 C15_4 1_555 1_555
C15_4 C16_4 1_555 1_555
C16_4 C17_4 1_555 1_555
C17_4 N5_4 1_555 1_555
C18_4 C15_4 1_555 1_555
C19_5 C18_4 1_555 1_555
C20_5 C19_5 1_555 1_555
C21_4 C20_5 1_555 1_555
C22_4 C21_4 1_555 1_555
C23_5 N6_3 1_555 1_555
C24_5 C20_5 1_555 1_555
Cu1_3 N3_5 1_555 1_555
H1_5 C1_5 1_555 1_555
H2_5 C2_5 1_555 1_555
H4_5 C5_5 1_555 1_555
H8_5 C7_5 1_555 1_555
H13_5 C13_4 1_555 1_555
H14_4 C14_4 1_555 1_555
H15_4 C16_4 1_555 1_555
H16_4 C17_4 1_555 1_555
H17_4 C18_4 1_555 1_555
H18_4 C18_4 1_555 1_555
H19_5 C19_5 1_555 1_555
H20_5 C19_5 1_555 1_555
H21_4 C21_4 1_555 1_555
H22_4 C22_4 1_555 1_555
H23_5 C23_5 1_555 1_555
H24_5 C24_5 1_555 1_555
N7_3 Cu1_3 1_555 1_555
N8_3 Cu1_3 1_555 1_555
Cu3_2 N6_3 1_555 1_555
N5_4 Cu1_3 1_555 1_555
C23_5 C24_5 1_555 1_555
N4_3 C10_5 1_555 1_555
C9_5 C8_5 1_555 1_555
C10_5 C9_5 1_555 1_555
C11_5 N4_3 1_555 1_555
C12_5 C8_5 1_555 1_555
H10_5 C10_5 1_555 1_555
H11_5 C11_5 1_555 1_555
H12_5 C12_5 1_555 1_555
Cu3_2 N4_3 1_555 1_555
C11_5 C12_5 1_555 1_555
N2_6 O4_6 1_555 1_555
O5_6 N2_6 1_555 1_555
O6_6 N2_6 1_555 1_555
C20_6 C19_6 1_555 1_555
C23_6 N6_4 1_555 1_555
C24_6 C20_6 1_555 1_555
H2_6 C2_6 1_555 1_555
H8_6 C7_6 1_555 1_555
H19_6 C19_6 1_555 1_555
H20_6 C19_6 1_555 1_555
H23_6 C23_6 1_555 1_555
H24_6 C24_6 1_555 1_555
Cu2_2 N6_4 1_555 1_555
C23_6 C24_6 1_555 1_555
N1_6 O1_6 1_555 1_555
O1_6 Cu1_4 1_555 1_555
O2_6 N1_6 1_555 1_555
O3_6 N1_6 1_555 1_555
N3_6 C1_6 1_555 1_555
C3_6 C4_6 1_555 1_555
C4_6 C5_6 1_555 1_555
C5_6 N3_6 1_555 1_555
Cu1_4 N3_6 1_555 1_555
H4_6 C5_6 1_555 1_555
N8_4 Cu1_4 1_555 1_555
N1_7 O1_7 1_555 1_555
O1_7 Cu2_2 1_555 1_555
O2_7 N1_7 1_555 1_555
O3_7 N1_7 1_555 1_555
N3_7 C1_7 1_555 1_555
N7_3 C10_6 1_555 1_555
C1_7 C2_7 1_555 1_555
C2_7 C3_7 1_555 1_555
C3_7 C4_7 1_555 1_555
C4_7 C5_7 1_555 1_555
C5_7 N3_7 1_555 1_555
C6_4 C3_7 1_555 1_555
C7_7 C6_4 1_555 1_555
C8_6 C7_7 1_555 1_555
C9_6 C8_6 1_555 1_555
C10_6 C9_6 1_555 1_555
C11_6 N7_3 1_555 1_555
C12_6 C8_6 1_555 1_555
C20_7 C19_7 1_555 1_555
C23_7 N8_4 1_555 1_555
C24_7 C20_7 1_555 1_555
Cu2_2 N3_7 1_555 1_555
H1_7 C1_7 1_555 1_555
H2_7 C2_7 1_555 1_555
H3_4 C4_7 1_555 1_555
H4_7 C5_7 1_555 1_555
H5_4 C6_4 1_555 1_555
H6_4 C6_4 1_555 1_555
H7_6 C7_7 1_555 1_555
H8_7 C7_7 1_555 1_555
H9_7 C9_6 1_555 1_555
H10_6 C10_6 1_555 1_555
H11_6 C11_6 1_555 1_555
H12_6 C12_6 1_555 1_555
H19_7 C19_7 1_555 1_555
H20_7 C19_7 1_555 1_555
H23_7 C23_7 1_555 1_555
H24_7 C24_7 1_555 1_555
C11_6 C12_6 1_555 1_555
C23_7 C24_7 1_555 1_555
N1_8 O1_8 1_555 1_555
O1_8 Cu3_2 1_555 1_555
O2_8 N1_8 1_555 1_555
O3_8 N1_8 1_555 1_555
N2_7 O4_7 1_555 1_555
O4_7 Cu3_2 1_555 1_555
O5_7 N2_7 1_555 1_555
O6_7 N2_7 1_555 1_555
N3_8 C1_8 1_555 1_555
C3_8 C4_8 1_555 1_555
C4_8 C5_8 1_555 1_555
C5_8 N3_8 1_555 1_555
C6_5 C3_8 1_555 1_555
Cu3_2 N3_8 1_555 1_555
H3_5 C4_8 1_555 1_555
H4_8 C5_8 1_555 1_555
H5_5 C6_5 1_555 1_555
H6_5 C6_5 1_555 1_555
N7_4 C10_7 1_555 1_555
C8_7 C7_8 1_555 1_555
C9_7 C8_7 1_555 1_555
C10_7 C9_7 1_555 1_555
C11_7 N7_4 1_555 1_555
C12_7 C8_7 1_555 1_555
N5_5 C13_5 1_555 1_555
N8_3 C22_5 1_555 1_555
C13_5 C14_5 1_555 1_555
C14_5 C15_5 1_555 1_555
C15_5 C16_5 1_555 1_555
C16_5 C17_5 1_555 1_555
C17_5 N5_5 1_555 1_555
C18_5 C15_5 1_555 1_555
C19_8 C18_5 1_555 1_555
C20_8 C19_8 1_555 1_555
C21_5 C20_8 1_555 1_555
C22_5 C21_5 1_555 1_555
C23_8 N8_3 1_555 1_555
C24_8 C20_8 1_555 1_555
H2_8 C2_8 1_555 1_555
H7_7 C7_8 1_555 1_555
H8_8 C7_8 1_555 1_555
H9_8 C9_7 1_555 1_555
H10_7 C10_7 1_555 1_555
H11_7 C11_7 1_555 1_555
H12_7 C12_7 1_555 1_555
H13_8 C13_5 1_555 1_555
H14_5 C14_5 1_555 1_555
H15_5 C16_5 1_555 1_555
H16_5 C17_5 1_555 1_555
H17_5 C18_5 1_555 1_555
H18_5 C18_5 1_555 1_555
H19_8 C19_8 1_555 1_555
H20_8 C19_8 1_555 1_555
H21_5 C21_5 1_555 1_555
H22_5 C22_5 1_555 1_555
H23_8 C23_8 1_555 1_555
H24_8 C24_8 1_555 1_555
C11_7 C12_7 1_555 1_555
C23_8 C24_8 1_555 1_555
N4_4 C10_8 1_555 1_555
C9_8 C8_8 1_555 1_555
C10_8 C9_8 1_555 1_555
C11_8 N4_4 1_555 1_555
C12_8 C8_8 1_555 1_555
H5_6 C6_6 1_555 1_555
H6_6 C6_6 1_555 1_555
H10_8 C10_8 1_555 1_555
H11_8 C11_8 1_555 1_555
H12_8 C12_8 1_555 1_555
C11_8 C12_8 1_555 1_555
N2_8 O4_8 1_555 1_555
O5_8 N2_8 1_555 1_555
O6_8 N2_8 1_555 1_555
N5_6 C13_6 1_555 1_555
C13_6 C14_6 1_555 1_555
C14_6 C15_6 1_555 1_555
C15_6 C16_6 1_555 1_555
C16_6 C17_6 1_555 1_555
C17_6 N5_6 1_555 1_555
C18_6 C15_6 1_555 1_555
C22_6 C21_6 1_555 1_555
H14_6 C14_6 1_555 1_555
H15_6 C16_6 1_555 1_555
H16_6 C17_6 1_555 1_555
H17_6 C18_6 1_555 1_555
H18_6 C18_6 1_555 1_555
H21_6 C21_6 1_555 1_555
H22_6 C22_6 1_555 1_555
H5_7 C6_7 1_555 1_555
H6_7 C6_7 1_555 1_555
N5_7 C13_7 1_555 1_555
C13_7 C14_7 1_555 1_555
C14_7 C15_7 1_555 1_555
C15_7 C16_7 1_555 1_555
C16_7 C17_7 1_555 1_555
C17_7 N5_7 1_555 1_555
C18_7 C15_7 1_555 1_555
C22_7 C21_7 1_555 1_555
H14_7 C14_7 1_555 1_555
H15_7 C16_7 1_555 1_555
H16_7 C17_7 1_555 1_555
H17_7 C18_7 1_555 1_555
H18_7 C18_7 1_555 1_555
H21_7 C21_7 1_555 1_555
H22_7 C22_7 1_555 1_555
N5_8 C13_8 1_555 1_555
C13_8 C14_8 1_555 1_555
C14_8 C15_8 1_555 1_555
C15_8 C16_8 1_555 1_555
C16_8 C17_8 1_555 1_555
C17_8 N5_8 1_555 1_555
C18_8 C15_8 1_555 1_555
C22_8 C21_8 1_555 1_555
H14_8 C14_8 1_555 1_555
H15_8 C16_8 1_555 1_555
H16_8 C17_8 1_555 1_555
H17_8 C18_8 1_555 1_555
H18_8 C18_8 1_555 1_555
H21_8 C21_8 1_555 1_555
H22_8 C22_8 1_555 1_555
H5_8 C6_8 1_555 1_555
H6_8 C6_8 1_555 1_555

#END
