
###############################################################################
#
# This file contains modified crystal structure data generated from the
# MOF subset of the Cambridge Structural Database (CSD) v543 
# hosted by the Cambridge Crystallographic Data Centre (CCDC).
#
# This work is licensed under the Creative Commons
# Attribution-NonCommercial-ShareAlike 4.0 International License.
# To view a copy of this license, visit
# http://creativecommons.org/licenses/by-nc-sa/4.0/
# or send a letter to
# Creative Commons, PO Box 1866, Mountain View, CA 94042, USA.
#
# CIF created using the CSD Python API on 29 September 2022
# The structure has been converted into the P1 space group
# The structure has a 3D framework
# The original CSD entry PULMIU is in the monoclinic crystal system
# The framework has been calculated to contain at least 10.0% void space
# The void calculation uses a probe of radius 1.32A, grid spacing 0.4
#
###############################################################################

data_PULMIU
_chemical_formula_moiety         '(C152 H136 N16 O84 S12 Zn12)n'
_symmetry_cell_setting           triclinic
_symmetry_space_group_name_H-M   'P 1'
_symmetry_Int_Tables_number      1
_space_group_name_Hall           'P 1'
loop_
_symmetry_equiv_pos_site_id
_symmetry_equiv_pos_as_xyz
1 x,y,z
_cell_length_a                   17.614(4)
_cell_length_b                   21.916(4)
_cell_length_c                   18.046(4)
_cell_angle_alpha                90
_cell_angle_beta                 105.64(3)
_cell_angle_gamma                90
_cell_volume                     6708.34
loop_
_atom_site_label
_atom_site_type_symbol
_atom_site_fract_x
_atom_site_fract_y
_atom_site_fract_z
C30 C 0.1705(4) 0.2476(3) 0.0495(4)
H13 H 0.2099 0.2402 0.0945
C33 C 0.0903(4) 0.2472(3) 0.0516(5)
H16 H 0.0770 0.2388 0.0970
N2 N 0.1908(3) 0.2584(2) 0.9843(3)
C24 C 0.0343(4) 0.2593(3) 0.9861(4)
C31 C 0.0550(4) 0.2717(3) 0.9188(4)
H14 H 0.0162 0.2805 0.8737
C34 C 0.1340(4) 0.2710(3) 0.9190(4)
H17 H 0.1479 0.2792 0.8738
Zn7 Zn 0.30802(4) 0.26243(3) 0.98934(4)
C20 C 0.9285(4) 0.2739(3) 0.0532(4)
H10 H 0.9667 0.2872 0.0965
C32 C 0.8492(4) 0.2686(3) 0.0545(4)
H15 H 0.8360 0.2764 0.1002
O23 O 0.6879(2) 0.21133(19) 0.1182(2)
O26 O 0.5804(2) 0.23980(17) 0.0291(2)
O28 O 0.6960(2) 0.3351(2) 0.0537(3)
Zn1 Zn 0.49405(3) 0.17977(3) 0.49215(3)
Zn2 Zn 0.30802(4) 0.23757(3) 0.48934(4)
Zn3 Zn 0.67548(4) 0.25715(3) 0.98931(4)
S2 S 0.63665(8) 0.12333(7) 0.87713(8)
S3 S 0.34036(8) 0.36499(7) 0.60605(8)
O1 O 0.3498(2) 0.19990(17) 0.5954(2)
O2 O 0.6677(2) 0.16208(16) 0.9456(2)
O3 O 0.3185(2) 0.33208(17) 0.5332(2)
C1 C 0.2962(3) 0.0505(3) 0.4223(3)
O4 O 0.4044(2) 0.24323(17) 0.9515(2)
O5 O 0.4095(2) 0.11198(17) 0.4594(2)
O6 O 0.6879(2) 0.28867(19) 0.6182(2)
O7 O 0.2962(2) 0.21732(18) 0.8630(2)
O8 O 0.5116(2) 0.31945(17) 0.8880(2)
O9 O 0.5804(2) 0.26020(17) 0.5291(2)
O11 O 0.6326(2) 0.29296(18) 0.8841(2)
O12 O 0.4765(2) 0.18463(16) 0.5966(2)
O13 O 0.2930(2) 0.3502(2) 0.6580(3)
O14 O 0.6232(3) 0.06055(19) 0.8989(3)
O16 O 0.2909(2) 0.15899(18) 0.4273(2)
O17 O 0.3432(2) 0.43057(18) 0.5933(2)
O18 O 0.6844(3) 0.1269(2) 0.8243(2)
C2 C 0.3930(3) 0.1972(2) 0.7577(3)
H1 H 0.3420 0.2102 0.7341
C4 C 0.5398(3) 0.3200(2) 0.7684(3)
C5 C 0.5925(3) 0.3046(2) 0.7239(3)
H2 H 0.6445 0.2941 0.7478
C6 C 0.5652(3) 0.3056(2) 0.6439(3)
C7 C 0.3699(3) 0.2201(3) 0.8857(3)
C9 C 0.5179(3) 0.1559(2) 0.7495(3)
H4 H 0.5514 0.1431 0.7206
C10 C 0.4199(3) 0.1961(2) 0.8369(3)
C11 C 0.4391(3) 0.3425(2) 0.6528(3)
C12 C 0.4884(3) 0.3258(2) 0.6071(3)
H5 H 0.4709 0.3280 0.5537
N1 N 0.7913(3) 0.2523(2) 0.9908(3)
C14 C 0.2128(3) 0.0491(3) 0.3973(3)
H7 H 0.1834 0.0849 0.3864
C15 C 0.6168(3) 0.2838(3) 0.5953(3)
C16 C 0.5417(3) 0.1528(2) 0.8303(3)
C17 C 0.4423(3) 0.1789(2) 0.7133(3)
C18 C 0.8889(4) 0.2439(3) 0.9219(4)
H8 H 0.9007 0.2367 0.8754
C19 C 0.4927(3) 0.1737(2) 0.8734(3)
H9 H 0.5094 0.1725 0.9269
C21 C 0.3364(3) 0.1113(3) 0.4363(3)
C22 C 0.4204(3) 0.1880(2) 0.6275(3)
C23 C 0.4632(3) 0.3392(2) 0.7327(3)
H11 H 0.4289 0.3497 0.7618
C25 C 0.5644(3) 0.3107(2) 0.8529(3)
C28 C 0.8133(4) 0.2397(3) 0.9270(4)
H12 H 0.7747 0.2273 0.8835
C29 C 0.9485(4) 0.2592(3) 0.9878(4)
O19 O 0.0421(3) 0.0465(3) 0.3796(5)
Zn5 Zn 0.49405(3) 0.32023(3) 0.99215(3)
Zn9 Zn 0.67548(4) 0.24285(3) 0.48931(4)
O22 O 0.4044(2) 0.25677(17) 0.4515(2)
O24 O 0.2962(2) 0.28268(18) 0.3630(2)
O25 O 0.5116(2) 0.18055(17) 0.3880(2)
O27 O 0.5818(2) 0.11566(17) 0.5323(2)
N3 N 0.1908(3) 0.2416(2) 0.4843(3)
S1 S 0.06994(10) 0.98876(8) 0.35536(14)
O10 O 0.4182(2) 0.88434(17) 0.4677(2)
O15 O 0.3040(2) 0.8351(2) 0.4463(3)
C3 C 0.3002(3) 0.9409(3) 0.4269(3)
C8 C 0.2186(3) 0.9385(3) 0.4024(3)
H3 H 0.1931 0.9010 0.3949
C13 C 0.3374(4) 0.9959(2) 0.4359(3)
H6 H 0.3922 0.9969 0.4517
C26 C 0.1760(4) 0.9911(3) 0.3894(5)
C27 C 0.3452(3) 0.8825(3) 0.4494(3)
O20 O 0.0505(4) 0.9755(5) 0.2787(5)
O21 O 0.0445(3) 0.9392(3) 0.4005(4)
H18 H 0.0568 0.9484 0.4462
Zn4 Zn 0.50595(3) 0.82023(3) 0.50785(3)
Zn8 Zn 0.32452(4) 0.75715(3) 0.51069(4)
Zn1_2 Zn 0.50595(3) 0.67977(3) 0.00785(3)
Zn2_2 Zn 0.69198(4) 0.73757(3) 0.01066(4)
S1_2 S 0.93006(10) 0.48876(8) 0.14464(14)
C1_2 C 0.7038(3) 0.5505(3) 0.0777(3)
O5_2 O 0.5905(2) 0.61198(17) 0.0406(2)
O10_2 O 0.5818(2) 0.38434(17) 0.0323(2)
O16_2 O 0.7091(2) 0.65899(18) 0.0727(2)
C3_2 C 0.6998(3) 0.4409(3) 0.0731(3)
C8_2 C 0.7814(3) 0.4385(3) 0.0976(3)
H3_2 H 0.8069 0.4010 0.1051
C13_2 C 0.6626(4) 0.4959(2) 0.0641(3)
H6_2 H 0.6078 0.4969 0.0483
C14_2 C 0.7872(3) 0.5491(3) 0.1027(3)
H7_2 H 0.8166 0.5849 0.1136
C21_2 C 0.6636(3) 0.6113(3) 0.0637(3)
C26_2 C 0.8240(4) 0.4911(3) 0.1106(5)
C27_2 C 0.6548(3) 0.3825(3) 0.0506(3)
O19_2 O 0.9579(3) 0.5465(3) 0.1204(5)
O20_2 O 0.9495(4) 0.4755(5) 0.2213(5)
O21_2 O 0.9555(3) 0.4392(3) 0.0995(4)
H18_2 H 0.9432 0.4484 0.0538
Zn9_2 Zn 0.32452(4) 0.74285(3) 0.01069(4)
O22_2 O 0.5956(2) 0.75677(17) 0.0485(2)
O24_2 O 0.7038(2) 0.78268(18) 0.1370(2)
O25_2 O 0.4884(2) 0.68055(17) 0.1120(2)
N3_2 N 0.8092(3) 0.7416(2) 0.0157(3)
S2_2 S 0.36335(8) 0.62333(7) 0.62287(8)
S3_2 S 0.65964(8) 0.86499(7) 0.89395(8)
O1_2 O 0.6502(2) 0.69990(17) 0.9046(2)
O2_2 O 0.3323(2) 0.66208(16) 0.5544(2)
O3_2 O 0.6815(2) 0.83208(17) 0.9668(2)
O4_2 O 0.5956(2) 0.74323(17) 0.5485(2)
O6_2 O 0.3121(2) 0.78867(19) 0.8818(2)
O7_2 O 0.7038(2) 0.71732(18) 0.6370(2)
O8_2 O 0.4884(2) 0.81945(17) 0.6120(2)
O9_2 O 0.4196(2) 0.76020(17) 0.9709(2)
O11_2 O 0.3674(2) 0.79296(18) 0.6159(2)
O12_2 O 0.5235(2) 0.68463(16) 0.9034(2)
O13_2 O 0.7070(2) 0.8502(2) 0.8420(3)
O14_2 O 0.3768(3) 0.56055(19) 0.6011(3)
O17_2 O 0.6568(2) 0.93057(18) 0.9067(2)
O18_2 O 0.3156(3) 0.6269(2) 0.6757(2)
C2_2 C 0.6070(3) 0.6972(2) 0.7423(3)
H1_2 H 0.6580 0.7102 0.7659
C4_2 C 0.4602(3) 0.8200(2) 0.7316(3)
C5_2 C 0.4075(3) 0.8046(2) 0.7761(3)
H2_2 H 0.3555 0.7941 0.7522
C6_2 C 0.4348(3) 0.8056(2) 0.8561(3)
C7_2 C 0.6301(3) 0.7201(3) 0.6143(3)
C9_2 C 0.4821(3) 0.6559(2) 0.7505(3)
H4_2 H 0.4486 0.6431 0.7794
C10_2 C 0.5801(3) 0.6961(2) 0.6631(3)
C11_2 C 0.5609(3) 0.8425(2) 0.8472(3)
C12_2 C 0.5116(3) 0.8258(2) 0.8929(3)
H5_2 H 0.5291 0.8280 0.9463
N1_2 N 0.2087(3) 0.7523(2) 0.5092(3)
C15_2 C 0.3832(3) 0.7838(3) 0.9047(3)
C16_2 C 0.4583(3) 0.6528(2) 0.6697(3)
C17_2 C 0.5577(3) 0.6789(2) 0.7867(3)
C18_2 C 0.1111(4) 0.7439(3) 0.5781(4)
H8_2 H 0.0993 0.7367 0.6246
C19_2 C 0.5073(3) 0.6737(2) 0.6266(3)
H9_2 H 0.4906 0.6725 0.5731
C20_2 C 0.0715(4) 0.7739(3) 0.4468(4)
H10_2 H 0.0333 0.7872 0.4035
C22_2 C 0.5796(3) 0.6880(2) 0.8725(3)
C23_2 C 0.5368(3) 0.8392(2) 0.7673(3)
H11_2 H 0.5711 0.8497 0.7382
C25_2 C 0.4356(3) 0.8107(2) 0.6471(3)
C28_2 C 0.1867(4) 0.7397(3) 0.5730(4)
H12_2 H 0.2253 0.7273 0.6165
C29_2 C 0.0515(4) 0.7592(3) 0.5122(4)
C32_2 C 0.1508(4) 0.7686(3) 0.4455(4)
H15_2 H 0.1640 0.7764 0.3998
Zn6 Zn 0.69198(4) 0.76243(3) 0.51066(4)
O23_2 O 0.3121(2) 0.71133(19) 0.3818(2)
O26_2 O 0.4196(2) 0.73980(17) 0.4709(2)
O27_2 O 0.4182(2) 0.61566(17) 0.9677(2)
N2_2 N 0.8092(3) 0.7584(2) 0.5157(3)
C24_2 C 0.9657(4) 0.7593(3) 0.5139(4)
C30_2 C 0.8295(4) 0.7476(3) 0.4505(4)
H13_2 H 0.7901 0.7402 0.4055
C31_2 C 0.9450(4) 0.7717(3) 0.5812(4)
H14_2 H 0.9838 0.7805 0.6263
C33_2 C 0.9097(4) 0.7472(3) 0.4484(5)
H16_2 H 0.9230 0.7388 0.4030
C34_2 C 0.8660(4) 0.7710(3) 0.5810(4)
H17_2 H 0.8521 0.7792 0.6262
S1_3 S 0.93006(10) 0.01124(8) 0.64464(14)
O15_2 O 0.6960(2) 0.1649(2) 0.5537(3)
C3_3 C 0.6998(3) 0.0591(3) 0.5731(3)
C8_3 C 0.7814(3) 0.0615(3) 0.5976(3)
H3_3 H 0.8069 0.0990 0.6051
C13_3 C 0.6626(4) 0.0041(2) 0.5641(3)
H6_3 H 0.6078 0.0031 0.5483
C26_3 C 0.8240(4) 0.0089(3) 0.6106(5)
C27_3 C 0.6548(3) 0.1175(3) 0.5506(3)
O20_3 O 0.9495(4) 0.0245(5) 0.7213(5)
O21_3 O 0.9555(3) 0.0608(3) 0.5995(4)
H18_3 H 0.9432 0.0516 0.5538
S2_3 S 0.36335(8) 0.87667(7) 0.12287(8)
S3_3 S 0.65964(8) 0.63501(7) 0.39395(8)
O1_3 O 0.6502(2) 0.80010(17) 0.4046(2)
O2_3 O 0.3323(2) 0.83792(16) 0.0544(2)
O3_3 O 0.6815(2) 0.66792(17) 0.4668(2)
C1_3 C 0.7038(3) 0.9495(3) 0.5777(3)
O5_3 O 0.5905(2) 0.88802(17) 0.5406(2)
O11_3 O 0.3674(2) 0.70704(18) 0.1159(2)
O12_3 O 0.5235(2) 0.81537(16) 0.4034(2)
O13_3 O 0.7070(2) 0.6498(2) 0.3420(3)
O14_3 O 0.3768(3) 0.93945(19) 0.1011(3)
O16_3 O 0.7091(2) 0.84101(18) 0.5727(2)
O17_3 O 0.6568(2) 0.56943(18) 0.4067(2)
O18_3 O 0.3156(3) 0.8731(2) 0.1757(2)
C2_3 C 0.6070(3) 0.8028(2) 0.2423(3)
H1_3 H 0.6580 0.7898 0.2659
C4_3 C 0.4602(3) 0.6800(2) 0.2316(3)
C5_3 C 0.4075(3) 0.6954(2) 0.2761(3)
H2_3 H 0.3555 0.7059 0.2522
C6_3 C 0.4348(3) 0.6944(2) 0.3561(3)
C7_3 C 0.6301(3) 0.7799(3) 0.1143(3)
C9_3 C 0.4821(3) 0.8441(2) 0.2505(3)
H4_3 H 0.4486 0.8569 0.2794
C10_3 C 0.5801(3) 0.8039(2) 0.1631(3)
C11_3 C 0.5609(3) 0.6575(2) 0.3472(3)
C12_3 C 0.5116(3) 0.6742(2) 0.3929(3)
H5_3 H 0.5291 0.6720 0.4463
N1_3 N 0.2087(3) 0.7477(2) 0.0092(3)
C14_3 C 0.7872(3) 0.9509(3) 0.6027(3)
H7_3 H 0.8166 0.9151 0.6136
C15_3 C 0.3832(3) 0.7162(3) 0.4047(3)
C16_3 C 0.4583(3) 0.8472(2) 0.1697(3)
C17_3 C 0.5577(3) 0.8211(2) 0.2867(3)
C18_3 C 0.1111(4) 0.7561(3) 0.0781(4)
H8_3 H 0.0993 0.7633 0.1246
C19_3 C 0.5073(3) 0.8263(2) 0.1266(3)
H9_3 H 0.4906 0.8275 0.0731
C21_3 C 0.6636(3) 0.8887(3) 0.5637(3)
C22_3 C 0.5796(3) 0.8120(2) 0.3725(3)
C23_3 C 0.5368(3) 0.6608(2) 0.2673(3)
H11_3 H 0.5711 0.6503 0.2382
C25_3 C 0.4356(3) 0.6893(2) 0.1471(3)
C28_3 C 0.1867(4) 0.7603(3) 0.0730(4)
H12_3 H 0.2253 0.7727 0.1165
C29_3 C 0.0515(4) 0.7408(3) 0.0122(4)
O19_3 O 0.9579(3) 0.9535(3) 0.6204(5)
C20_3 C 0.0715(4) 0.7261(3) 0.9468(4)
H10_3 H 0.0333 0.7128 0.9035
C32_3 C 0.1508(4) 0.7314(3) 0.9455(4)
H15_3 H 0.1640 0.7236 0.8998
O28_2 O 0.3040(2) 0.6649(2) 0.9463(3)
C24_3 C 0.9657(4) 0.7407(3) 0.0139(4)
C31_3 C 0.9450(4) 0.7283(3) 0.0812(4)
H14_3 H 0.9838 0.7195 0.1263
C34_3 C 0.8660(4) 0.7290(3) 0.0810(4)
H17_3 H 0.8521 0.7208 0.1262
C24_4 C 0.0343(4) 0.2407(3) 0.4861(4)
C30_3 C 0.1705(4) 0.2524(3) 0.5495(4)
H13_3 H 0.2099 0.2598 0.5945
C31_4 C 0.0550(4) 0.2283(3) 0.4188(4)
H14_4 H 0.0162 0.2195 0.3737
C33_3 C 0.0903(4) 0.2528(3) 0.5516(5)
H16_3 H 0.0770 0.2612 0.5970
C34_4 C 0.1340(4) 0.2290(3) 0.4190(4)
H17_4 H 0.1479 0.2208 0.3738
S2_4 S 0.63665(8) 0.37667(7) 0.37713(8)
S3_4 S 0.34036(8) 0.13501(7) 0.10605(8)
O1_4 O 0.3498(2) 0.30010(17) 0.0954(2)
O2_4 O 0.6677(2) 0.33792(16) 0.4456(2)
O3_4 O 0.3185(2) 0.16792(17) 0.0332(2)
O11_4 O 0.6326(2) 0.20704(18) 0.3841(2)
O12_4 O 0.4765(2) 0.31537(16) 0.0966(2)
O13_4 O 0.2930(2) 0.1498(2) 0.1580(3)
O14_4 O 0.6232(3) 0.43945(19) 0.3989(3)
O17_4 O 0.3432(2) 0.06943(18) 0.0933(2)
O18_4 O 0.6844(3) 0.3731(2) 0.3243(2)
C2_4 C 0.3930(3) 0.3028(2) 0.2577(3)
H1_4 H 0.3420 0.2898 0.2341
C4_4 C 0.5398(3) 0.1800(2) 0.2684(3)
C5_4 C 0.5925(3) 0.1954(2) 0.2239(3)
H2_4 H 0.6445 0.2059 0.2478
C6_4 C 0.5652(3) 0.1944(2) 0.1439(3)
C7_4 C 0.3699(3) 0.2799(3) 0.3857(3)
C9_4 C 0.5179(3) 0.3441(2) 0.2495(3)
H4_4 H 0.5514 0.3569 0.2206
C10_4 C 0.4199(3) 0.3039(2) 0.3369(3)
C11_4 C 0.4391(3) 0.1575(2) 0.1528(3)
C12_4 C 0.4884(3) 0.1742(2) 0.1071(3)
H5_4 H 0.4709 0.1720 0.0537
N1_4 N 0.7913(3) 0.2477(2) 0.4908(3)
C15_4 C 0.6168(3) 0.2162(3) 0.0953(3)
C16_4 C 0.5417(3) 0.3472(2) 0.3303(3)
C17_4 C 0.4423(3) 0.3211(2) 0.2133(3)
C18_4 C 0.8889(4) 0.2561(3) 0.4219(4)
H8_4 H 0.9007 0.2633 0.3754
C19_4 C 0.4927(3) 0.3263(2) 0.3734(3)
H9_4 H 0.5094 0.3275 0.4269
C20_4 C 0.9285(4) 0.2261(3) 0.5532(4)
H10_4 H 0.9667 0.2128 0.5965
C22_4 C 0.4204(3) 0.3120(2) 0.1275(3)
C23_4 C 0.4632(3) 0.1608(2) 0.2327(3)
H11_4 H 0.4289 0.1503 0.2618
C25_4 C 0.5644(3) 0.1893(2) 0.3529(3)
C28_4 C 0.8133(4) 0.2603(3) 0.4270(4)
H12_4 H 0.7747 0.2727 0.3835
C29_4 C 0.9485(4) 0.2408(3) 0.4878(4)
C32_4 C 0.8492(4) 0.2314(3) 0.5545(4)
H15_4 H 0.8360 0.2236 0.6002
S1_4 S 0.06994(10) 0.51124(8) 0.85536(14)
C1_4 C 0.2962(3) 0.4495(3) 0.9223(3)
O5_4 O 0.4095(2) 0.38802(17) 0.9594(2)
O16_4 O 0.2909(2) 0.34101(18) 0.9273(2)
C3_4 C 0.3002(3) 0.5591(3) 0.9269(3)
C8_4 C 0.2186(3) 0.5615(3) 0.9024(3)
H3_4 H 0.1931 0.5990 0.8949
C13_4 C 0.3374(4) 0.5041(2) 0.9359(3)
H6_4 H 0.3922 0.5031 0.9517
C14_4 C 0.2128(3) 0.4509(3) 0.8973(3)
H7_4 H 0.1834 0.4151 0.8864
C21_4 C 0.3364(3) 0.3887(3) 0.9363(3)
C26_4 C 0.1760(4) 0.5089(3) 0.8894(5)
C27_4 C 0.3452(3) 0.6175(3) 0.9494(3)
O19_4 O 0.0421(3) 0.4535(3) 0.8796(5)
O20_4 O 0.0505(4) 0.5245(5) 0.7787(5)
O21_4 O 0.0445(3) 0.5608(3) 0.9005(4)
H18_4 H 0.0568 0.5516 0.9462
C30_4 C 0.8295(4) 0.7524(3) 0.9505(4)
H13_4 H 0.7901 0.7598 0.9055
C33_4 C 0.9097(4) 0.7528(3) 0.9484(5)
H16_4 H 0.9230 0.7612 0.9030
H19 H 0.6515 0.0023 0.0004
C35 C 0.6364(5) 0.0584(3) 0.0803(4)
H21 H 0.6676 0.0906 0.0676
H22 H 0.6454 0.0563 0.1351
H23 H 0.5816 0.0662 0.0566
N4 N 0.6590(4) 0.9995(2) 0.0517(4)
H20 H 0.7108 0.9932 0.0730
C36 C 0.6151(5) 0.9464(4) 0.0680(5)
H24 H 0.6327 0.9103 0.0475
H25 H 0.5598 0.9521 0.0445
H26 H 0.6241 0.9421 0.1226
N4_2 N 0.3410(4) 0.4995(2) 0.4483(4)
H19_2 H 0.3485 0.5023 0.4996
H20_2 H 0.2892 0.4932 0.4270
C35_2 C 0.3636(5) 0.5584(3) 0.4197(4)
H21_2 H 0.3324 0.5906 0.4324
H22_2 H 0.3546 0.5563 0.3649
H23_2 H 0.4184 0.5662 0.4434
C36_2 C 0.3849(5) 0.4464(4) 0.4320(5)
H24_2 H 0.3673 0.4103 0.4525
H25_2 H 0.4402 0.4521 0.4555
H26_2 H 0.3759 0.4421 0.3774
N4_3 N 0.3410(4) 0.0005(2) 0.9483(4)
H20_3 H 0.2892 0.0068 0.9270
C36_3 C 0.3849(5) 0.0536(4) 0.9320(5)
H24_3 H 0.3673 0.0897 0.9525
H25_3 H 0.4402 0.0479 0.9555
H26_3 H 0.3759 0.0579 0.8774
H19_3 H 0.3485 0.9977 0.9996
C35_3 C 0.3636(5) 0.9416(3) 0.9197(4)
H21_3 H 0.3324 0.9094 0.9324
H22_3 H 0.3546 0.9437 0.8649
H23_3 H 0.4184 0.9338 0.9434
N4_4 N 0.6590(4) 0.5005(2) 0.5517(4)
H19_4 H 0.6515 0.4977 0.5004
H20_4 H 0.7108 0.5068 0.5730
C35_4 C 0.6364(5) 0.4416(3) 0.5803(4)
H21_4 H 0.6676 0.4094 0.5676
H22_4 H 0.6454 0.4437 0.6351
H23_4 H 0.5816 0.4338 0.5566
C36_4 C 0.6151(5) 0.5536(4) 0.5680(5)
H24_4 H 0.6327 0.5897 0.5475
H25_4 H 0.5598 0.5479 0.5445
H26_4 H 0.6241 0.5579 0.6226
N5 N 0.2077(3) 0.4981(2) 0.6043(4)
H27 H 0.1987 0.5346 0.5809
H28 H 0.2565 0.4859 0.6045
C37 C 0.1479(5) 0.4524(5) 0.5609(6)
H29 H 0.1518 0.4490 0.5090
H30 H 0.0959 0.4657 0.5604
H31 H 0.1581 0.4133 0.5857
C38 C 0.2015(6) 0.5039(4) 0.6906(6)
H32 H 0.2393 0.5332 0.7179
H33 H 0.2121 0.4649 0.7157
H34 H 0.1493 0.5169 0.6902
H27_2 H 0.8013 0.0346 0.9191
C38_2 C 0.7985(6) 0.0039(4) 0.8094(6)
H32_2 H 0.7607 0.0332 0.7821
H34_2 H 0.8507 0.0169 0.8098
N5_2 N 0.7923(3) 0.9981(2) 0.8957(4)
H28_2 H 0.7435 0.9859 0.8955
C37_2 C 0.8521(5) 0.9524(5) 0.9391(6)
H29_2 H 0.8482 0.9490 0.9910
H30_2 H 0.9041 0.9657 0.9396
H31_2 H 0.8419 0.9133 0.9143
H33_2 H 0.7879 0.9649 0.7843
N5_3 N 0.7923(3) 0.5019(2) 0.3957(4)
H27_3 H 0.8013 0.4654 0.4191
H28_3 H 0.7435 0.5141 0.3955
C37_3 C 0.8521(5) 0.5476(5) 0.4391(6)
H29_3 H 0.8482 0.5510 0.4910
H30_3 H 0.9041 0.5343 0.4396
H31_3 H 0.8419 0.5867 0.4143
C38_3 C 0.7985(6) 0.4961(4) 0.3094(6)
H32_3 H 0.7607 0.4668 0.2821
H33_3 H 0.7879 0.5351 0.2843
H34_3 H 0.8507 0.4831 0.3098
N5_4 N 0.2077(3) 0.0019(2) 0.1043(4)
H28_4 H 0.2565 0.0141 0.1045
C37_4 C 0.1479(5) 0.0476(5) 0.0609(6)
H29_4 H 0.1518 0.0510 0.0090
H30_4 H 0.0959 0.0343 0.0604
H31_4 H 0.1581 0.0867 0.0857
H33_4 H 0.2121 0.0351 0.2157
H27_4 H 0.1987 0.9654 0.0809
C38_4 C 0.2015(6) 0.9961(4) 0.1906(6)
H32_4 H 0.2393 0.9668 0.2179
H34_4 H 0.1493 0.9831 0.1902
loop_
_geom_bond_atom_site_label_1
_geom_bond_atom_site_label_2
_geom_bond_site_symmetry_1
_geom_bond_site_symmetry_2
C30 H13 1_555 1_555
H16 C33 1_555 1_555
C30 C33 1_555 1_555
C31 C24 1_555 1_555
H14 C31 1_555 1_555
C34 N2 1_555 1_555
H17 C34 1_555 1_555
Zn7 N2 1_555 1_555
C31 C34 1_555 1_555
C20 H10 1_555 1_555
H15 C32 1_555 1_555
C20 C32 1_555 1_555
Zn1 O5 1_555 1_555
Zn2 O1 1_555 1_555
Zn3 O2 1_555 1_555
S2 O2 1_555 1_555
S3 O3 1_555 1_555
O1 C22 1_555 1_555
O3 Zn2 1_555 1_555
O4 C7 1_555 1_555
O5 C21 1_555 1_555
O6 C15 1_555 1_555
O7 C7 1_555 1_555
O8 C25 1_555 1_555
O9 Zn1 1_555 1_555
O11 Zn3 1_555 1_555
O12 Zn1 1_555 1_555
O13 S3 1_555 1_555
O14 S2 1_555 1_555
O16 Zn2 1_555 1_555
O17 S3 1_555 1_555
O18 S2 1_555 1_555
C2 H1 1_555 1_555
C4 C5 1_555 1_555
C5 H2 1_555 1_555
C6 C5 1_555 1_555
C7 C10 1_555 1_555
C9 H4 1_555 1_555
C10 C2 1_555 1_555
C11 S3 1_555 1_555
C12 C6 1_555 1_555
H5 C12 1_555 1_555
N1 Zn3 1_555 1_555
C14 C1 1_555 1_555
H7 C14 1_555 1_555
C15 O9 1_555 1_555
C16 S2 1_555 1_555
C17 C2 1_555 1_555
C18 H8 1_555 1_555
C19 C10 1_555 1_555
H9 C19 1_555 1_555
C21 C1 1_555 1_555
C22 O12 1_555 1_555
C23 C4 1_555 1_555
H11 C23 1_555 1_555
C25 O11 1_555 1_555
C28 N1 1_555 1_555
H12 C28 1_555 1_555
C29 C18 1_555 1_555
Zn5 O4 1_555 1_555
Zn7 O4 1_555 1_555
Zn9 O6 1_555 1_555
O22 Zn1 1_555 1_555
O24 Zn2 1_555 1_555
O25 Zn1 1_555 1_555
O27 Zn1 1_555 1_555
N3 Zn2 1_555 1_555
Zn2 O22 1_555 1_555
O7 Zn7 1_555 1_555
O8 Zn5 1_555 1_555
O9 Zn9 1_555 1_555
O16 C21 1_555 1_555
C4 C25 1_555 1_555
C6 C15 1_555 1_555
C9 C16 1_555 1_555
C9 C17 1_555 1_555
C11 C12 1_555 1_555
C11 C23 1_555 1_555
C16 C19 1_555 1_555
C17 C22 1_555 1_555
C18 C28 1_555 1_555
S1 C26 1_555 1_555
O10 C27 1_555 1_555
O15 C27 1_555 1_555
C3 C8 1_555 1_555
C8 H3 1_555 1_555
C13 C3 1_555 1_555
H6 C13 1_555 1_555
C26 C8 1_555 1_555
C27 C3 1_555 1_555
O20 S1 1_555 1_555
O21 S1 1_555 1_555
H18 O21 1_555 1_555
Zn4 O10 1_555 1_555
Zn8 O15 1_555 1_555
Zn1_2 O5_2 1_555 1_555
S1_2 C26_2 1_555 1_555
C1_2 C13_2 1_555 1_555
O5_2 C21_2 1_555 1_555
O10_2 C27_2 1_555 1_555
O28 C27_2 1_555 1_555
O16_2 Zn2_2 1_555 1_555
C3_2 C8_2 1_555 1_555
C8_2 H3_2 1_555 1_555
C13_2 C3_2 1_555 1_555
H6_2 C13_2 1_555 1_555
C14_2 C1_2 1_555 1_555
H7_2 C14_2 1_555 1_555
C21_2 C1_2 1_555 1_555
C26_2 C8_2 1_555 1_555
C27_2 C3_2 1_555 1_555
O19_2 S1_2 1_555 1_555
O20_2 S1_2 1_555 1_555
O21_2 S1_2 1_555 1_555
H18_2 O21_2 1_555 1_555
O22_2 Zn1_2 1_555 1_555
O24_2 Zn2_2 1_555 1_555
O25_2 Zn1_2 1_555 1_555
N3_2 Zn2_2 1_555 1_555
Zn2_2 O22_2 1_555 1_555
O16_2 C21_2 1_555 1_555
C14_2 C26_2 1_555 1_555
Zn8 O2_2 1_555 1_555
S2_2 O2_2 1_555 1_555
S3_2 O3_2 1_555 1_555
O1_2 C22_2 1_555 1_555
O4_2 C7_2 1_555 1_555
O6_2 C15_2 1_555 1_555
O7_2 C7_2 1_555 1_555
O8_2 C25_2 1_555 1_555
O11_2 Zn8 1_555 1_555
O13_2 S3_2 1_555 1_555
O14_2 S2_2 1_555 1_555
O17_2 S3_2 1_555 1_555
O18_2 S2_2 1_555 1_555
C2_2 H1_2 1_555 1_555
C4_2 C5_2 1_555 1_555
C5_2 H2_2 1_555 1_555
C6_2 C5_2 1_555 1_555
C7_2 C10_2 1_555 1_555
C9_2 H4_2 1_555 1_555
C10_2 C2_2 1_555 1_555
C11_2 S3_2 1_555 1_555
C12_2 C6_2 1_555 1_555
H5_2 C12_2 1_555 1_555
N1_2 Zn8 1_555 1_555
C15_2 O9_2 1_555 1_555
C16_2 S2_2 1_555 1_555
C17_2 C2_2 1_555 1_555
C18_2 H8_2 1_555 1_555
C19_2 C10_2 1_555 1_555
H9_2 C19_2 1_555 1_555
C20_2 H10_2 1_555 1_555
C22_2 O12_2 1_555 1_555
C23_2 C4_2 1_555 1_555
H11_2 C23_2 1_555 1_555
C25_2 O11_2 1_555 1_555
C28_2 N1_2 1_555 1_555
H12_2 C28_2 1_555 1_555
C29_2 C18_2 1_555 1_555
C32_2 N1_2 1_555 1_555
H15_2 C32_2 1_555 1_555
Zn4 O4_2 1_555 1_555
Zn6 O4_2 1_555 1_555
O23_2 Zn8 1_555 1_555
O26_2 Zn8 1_555 1_555
O7_2 Zn6 1_555 1_555
O8_2 Zn4 1_555 1_555
C4_2 C25_2 1_555 1_555
C6_2 C15_2 1_555 1_555
C9_2 C16_2 1_555 1_555
C9_2 C17_2 1_555 1_555
C11_2 C12_2 1_555 1_555
C11_2 C23_2 1_555 1_555
C16_2 C19_2 1_555 1_555
C17_2 C22_2 1_555 1_555
C18_2 C28_2 1_555 1_555
C20_2 C29_2 1_555 1_555
C20_2 C32_2 1_555 1_555
Zn4 O26_2 1_555 1_555
N2_2 C30_2 1_555 1_555
C30_2 H13_2 1_555 1_555
C31_2 C24_2 1_555 1_555
H14_2 C31_2 1_555 1_555
C33_2 C24_2 1_555 1_555
H16_2 C33_2 1_555 1_555
C34_2 N2_2 1_555 1_555
H17_2 C34_2 1_555 1_555
Zn6 N2_2 1_555 1_555
C30_2 C33_2 1_555 1_555
C31_2 C34_2 1_555 1_555
S1_3 C26_3 1_555 1_555
O27 C27_3 1_555 1_555
O15_2 C27_3 1_555 1_555
C3_3 C8_3 1_555 1_555
C8_3 H3_3 1_555 1_555
C13_3 C3_3 1_555 1_555
H6_3 C13_3 1_555 1_555
C26_3 C8_3 1_555 1_555
C27_3 C3_3 1_555 1_555
O20_3 S1_3 1_555 1_555
O21_3 S1_3 1_555 1_555
H18_3 O21_3 1_555 1_555
Zn9 O15_2 1_555 1_555
Zn4 O5_3 1_555 1_555
Zn6 O1_3 1_555 1_555
Zn9_2 O2_3 1_555 1_555
S2_3 O2_3 1_555 1_555
S3_3 O3_3 1_555 1_555
O1_3 C22_3 1_555 1_555
O3_3 Zn6 1_555 1_555
O22_2 C7_3 1_555 1_555
O5_3 C21_3 1_555 1_555
O23_2 C15_3 1_555 1_555
O24_2 C7_3 1_555 1_555
O25_2 C25_3 1_555 1_555
O11_3 Zn9_2 1_555 1_555
O12_3 Zn4 1_555 1_555
O13_3 S3_3 1_555 1_555
O14_3 S2_3 1_555 1_555
O16_3 Zn6 1_555 1_555
O17_3 S3_3 1_555 1_555
O18_3 S2_3 1_555 1_555
C2_3 H1_3 1_555 1_555
C4_3 C5_3 1_555 1_555
C5_3 H2_3 1_555 1_555
C6_3 C5_3 1_555 1_555
C7_3 C10_3 1_555 1_555
C9_3 H4_3 1_555 1_555
C10_3 C2_3 1_555 1_555
C11_3 S3_3 1_555 1_555
C12_3 C6_3 1_555 1_555
H5_3 C12_3 1_555 1_555
N1_3 Zn9_2 1_555 1_555
C14_3 C1_3 1_555 1_555
H7_3 C14_3 1_555 1_555
C15_3 O26_2 1_555 1_555
C16_3 S2_3 1_555 1_555
C17_3 C2_3 1_555 1_555
C18_3 H8_3 1_555 1_555
C19_3 C10_3 1_555 1_555
H9_3 C19_3 1_555 1_555
C21_3 C1_3 1_555 1_555
C22_3 O12_3 1_555 1_555
C23_3 C4_3 1_555 1_555
H11_3 C23_3 1_555 1_555
C25_3 O11_3 1_555 1_555
C28_3 N1_3 1_555 1_555
H12_3 C28_3 1_555 1_555
C29_3 C18_3 1_555 1_555
O16_3 C21_3 1_555 1_555
C4_3 C25_3 1_555 1_555
C6_3 C15_3 1_555 1_555
C9_3 C16_3 1_555 1_555
C9_3 C17_3 1_555 1_555
C11_3 C12_3 1_555 1_555
C11_3 C23_3 1_555 1_555
C16_3 C19_3 1_555 1_555
C17_3 C22_3 1_555 1_555
C18_3 C28_3 1_555 1_555
C20_3 H10_3 1_555 1_555
H15_3 C32_3 1_555 1_555
C20_3 C32_3 1_555 1_555
C31_3 C24_3 1_555 1_555
H14_3 C31_3 1_555 1_555
C34_3 N3_2 1_555 1_555
H17_3 C34_3 1_555 1_555
C31_3 C34_3 1_555 1_555
N3 C30_3 1_555 1_555
C30_3 H13_3 1_555 1_555
C31_4 C24_4 1_555 1_555
H14_4 C31_4 1_555 1_555
C33_3 C24_4 1_555 1_555
H16_3 C33_3 1_555 1_555
C34_4 N3 1_555 1_555
H17_4 C34_4 1_555 1_555
C30_3 C33_3 1_555 1_555
C31_4 C34_4 1_555 1_555
Zn9 O2_4 1_555 1_555
S2_4 O2_4 1_555 1_555
S3_4 O3_4 1_555 1_555
O1_4 C22_4 1_555 1_555
O22 C7_4 1_555 1_555
O23 C15_4 1_555 1_555
O24 C7_4 1_555 1_555
O25 C25_4 1_555 1_555
O11_4 Zn9 1_555 1_555
O13_4 S3_4 1_555 1_555
O14_4 S2_4 1_555 1_555
O17_4 S3_4 1_555 1_555
O18_4 S2_4 1_555 1_555
C2_4 H1_4 1_555 1_555
C4_4 C5_4 1_555 1_555
C5_4 H2_4 1_555 1_555
C6_4 C5_4 1_555 1_555
C7_4 C10_4 1_555 1_555
C9_4 H4_4 1_555 1_555
C10_4 C2_4 1_555 1_555
C11_4 S3_4 1_555 1_555
C12_4 C6_4 1_555 1_555
H5_4 C12_4 1_555 1_555
N1_4 Zn9 1_555 1_555
C15_4 O26 1_555 1_555
C16_4 S2_4 1_555 1_555
C17_4 C2_4 1_555 1_555
C18_4 H8_4 1_555 1_555
C19_4 C10_4 1_555 1_555
H9_4 C19_4 1_555 1_555
C20_4 H10_4 1_555 1_555
C22_4 O12_4 1_555 1_555
C23_4 C4_4 1_555 1_555
H11_4 C23_4 1_555 1_555
C25_4 O11_4 1_555 1_555
C28_4 N1_4 1_555 1_555
H12_4 C28_4 1_555 1_555
C29_4 C18_4 1_555 1_555
C32_4 N1_4 1_555 1_555
H15_4 C32_4 1_555 1_555
C4_4 C25_4 1_555 1_555
C6_4 C15_4 1_555 1_555
C9_4 C16_4 1_555 1_555
C9_4 C17_4 1_555 1_555
C11_4 C12_4 1_555 1_555
C11_4 C23_4 1_555 1_555
C16_4 C19_4 1_555 1_555
C17_4 C22_4 1_555 1_555
C18_4 C28_4 1_555 1_555
C20_4 C29_4 1_555 1_555
C20_4 C32_4 1_555 1_555
Zn5 O5_4 1_555 1_555
S1_4 C26_4 1_555 1_555
C1_4 C13_4 1_555 1_555
O5_4 C21_4 1_555 1_555
O27_2 C27_4 1_555 1_555
O28_2 C27_4 1_555 1_555
O16_4 Zn7 1_555 1_555
C3_4 C8_4 1_555 1_555
C8_4 H3_4 1_555 1_555
C13_4 C3_4 1_555 1_555
H6_4 C13_4 1_555 1_555
C14_4 C1_4 1_555 1_555
H7_4 C14_4 1_555 1_555
C21_4 C1_4 1_555 1_555
C26_4 C8_4 1_555 1_555
C27_4 C3_4 1_555 1_555
O19_4 S1_4 1_555 1_555
O20_4 S1_4 1_555 1_555
O21_4 S1_4 1_555 1_555
H18_4 O21_4 1_555 1_555
O16_4 C21_4 1_555 1_555
C14_4 C26_4 1_555 1_555
C30_4 H13_4 1_555 1_555
H16_4 C33_4 1_555 1_555
C30_4 C33_4 1_555 1_555
H21 C35 1_555 1_555
H22 C35 1_555 1_555
H23 C35 1_555 1_555
H20 N4 1_555 1_555
C36 N4 1_555 1_555
H24 C36 1_555 1_555
H25 C36 1_555 1_555
H26 C36 1_555 1_555
N4_2 H19_2 1_555 1_555
H20_2 N4_2 1_555 1_555
C35_2 N4_2 1_555 1_555
H21_2 C35_2 1_555 1_555
H22_2 C35_2 1_555 1_555
H23_2 C35_2 1_555 1_555
C36_2 N4_2 1_555 1_555
H24_2 C36_2 1_555 1_555
H25_2 C36_2 1_555 1_555
H26_2 C36_2 1_555 1_555
H20_3 N4_3 1_555 1_555
C36_3 N4_3 1_555 1_555
H24_3 C36_3 1_555 1_555
H25_3 C36_3 1_555 1_555
H26_3 C36_3 1_555 1_555
H21_3 C35_3 1_555 1_555
H22_3 C35_3 1_555 1_555
H23_3 C35_3 1_555 1_555
N4_4 H19_4 1_555 1_555
H20_4 N4_4 1_555 1_555
C35_4 N4_4 1_555 1_555
H21_4 C35_4 1_555 1_555
H22_4 C35_4 1_555 1_555
H23_4 C35_4 1_555 1_555
C36_4 N4_4 1_555 1_555
H24_4 C36_4 1_555 1_555
H25_4 C36_4 1_555 1_555
H26_4 C36_4 1_555 1_555
N5 H27 1_555 1_555
H28 N5 1_555 1_555
C37 N5 1_555 1_555
H29 C37 1_555 1_555
H30 C37 1_555 1_555
H31 C37 1_555 1_555
C38 N5 1_555 1_555
H32 C38 1_555 1_555
H33 C38 1_555 1_555
H34 C38 1_555 1_555
H32_2 C38_2 1_555 1_555
H34_2 C38_2 1_555 1_555
H28_2 N5_2 1_555 1_555
C37_2 N5_2 1_555 1_555
H29_2 C37_2 1_555 1_555
H30_2 C37_2 1_555 1_555
H31_2 C37_2 1_555 1_555
N5_3 H27_3 1_555 1_555
H28_3 N5_3 1_555 1_555
C37_3 N5_3 1_555 1_555
H29_3 C37_3 1_555 1_555
H30_3 C37_3 1_555 1_555
H31_3 C37_3 1_555 1_555
C38_3 N5_3 1_555 1_555
H32_3 C38_3 1_555 1_555
H33_3 C38_3 1_555 1_555
H34_3 C38_3 1_555 1_555
H28_4 N5_4 1_555 1_555
C37_4 N5_4 1_555 1_555
H29_4 C37_4 1_555 1_555
H30_4 C37_4 1_555 1_555
H31_4 C37_4 1_555 1_555
H32_4 C38_4 1_555 1_555
H34_4 C38_4 1_555 1_555

#END
