
###############################################################################
#
# This file contains modified crystal structure data generated from the
# MOF subset of the Cambridge Structural Database (CSD) v543 
# hosted by the Cambridge Crystallographic Data Centre (CCDC).
#
# This work is licensed under the Creative Commons
# Attribution-NonCommercial-ShareAlike 4.0 International License.
# To view a copy of this license, visit
# http://creativecommons.org/licenses/by-nc-sa/4.0/
# or send a letter to
# Creative Commons, PO Box 1866, Mountain View, CA 94042, USA.
#
# CIF created using the CSD Python API on 29 September 2022
# The structure has been converted into the P1 space group
# The structure has a 3D framework
# The original CSD entry PUMDIM is in the trigonal crystal system
# The framework has been calculated to contain at least 10.0% void space
# The void calculation uses a probe of radius 1.32A, grid spacing 0.4
# The framework is charged, counterions have been retained in the structure
# H atom positions have been added when not included in the experimental data
# Generated hydrogen atom positions removed from atoms on special positions
#
###############################################################################

data_PUMDIM
_chemical_formula_moiety         '(C102 H148 Co14 O88 6+)n'
_symmetry_cell_setting           triclinic
_symmetry_space_group_name_H-M   'P 1'
_symmetry_Int_Tables_number      1
_space_group_name_Hall           'P 1'
loop_
_symmetry_equiv_pos_site_id
_symmetry_equiv_pos_as_xyz
1 x,y,z
_cell_length_a                   16.2712(4)
_cell_length_b                   16.2712(4)
_cell_length_c                   17.2772(8)
_cell_angle_alpha                90
_cell_angle_beta                 90
_cell_angle_gamma                120
_cell_volume                     3961.35
loop_
_atom_site_label
_atom_site_type_symbol
_atom_site_fract_x
_atom_site_fract_y
_atom_site_fract_z
O12 O 0.0591(4) 0.7401(4) 0.0421(4)
H6 H 0.0356404 0.752632 0.0912443
H7 H 0.0622782 0.680973 0.047289
H9 H 0.0161739 0.87709 0.0354263
O13 O 0.0813(3) 0.8017(5) 0.8831(3)
O14 O 0.0537(3) 0.7260(5) 0.7703(3)
Co4 Co 0.65393(7) 0.05592(5) 0.79344(4)
Co6 Co 0.75925(7) 0.03494(5) 0.95064(4)
O15 O 0.8475(3) 0.6393(3) 0.0145(3)
H8 H 0.910297 0.841702 0.00258109
Co1 Co 0.94408(5) 0.59801(5) 0.79344(4)
Co2 Co 0.96506(5) 0.72431(5) 0.95064(4)
O1 O 0.8289(3) 0.6123(3) 0.7768(3)
O2 O 0.8763(3) 0.7269(3) 0.8637(3)
O3 O 0.7204(4) 0.9187(3) 0.8831(3)
O4 O 0.6723(4) 0.9463(3) 0.7703(3)
O5 O 0.7450(4) 0.8024(4) 0.5484(4)
O6 O 0.6393(3) 0.8475(3) 0.5145(3)
O7 O 0.4019(4) 0.5392(3) 0.3605(3)
O8 O 0.3690(3) 0.4054(3) 0.4132(2)
O9 O 0.4636(3) 0.4016(3) 0.6910(3)
O10 O 0.4601(4) 0.5153(4) 0.7557(3)
O11 O 0.9746(3) 0.8534(3) 0.9891(3)
C1 C 0.7535(4) 0.7052(4) 0.7783(3)
C2 C 0.7533(4) 0.7823(4) 0.8114(4)
H1 H 0.7917 0.8129 0.8538
C3 C 0.6939(4) 0.8141(4) 0.7796(4)
C4 C 0.6372(4) 0.7687(4) 0.7167(4)
H2 H 0.6002 0.7914 0.6948
C5 C 0.6354(4) 0.6880(4) 0.6858(3)
C6 C 0.6935(4) 0.6579(4) 0.7170(3)
H3 H 0.6925 0.6046 0.6964
C7 C 0.8242(4) 0.6792(4) 0.8093(3)
C8 C 0.6965(4) 0.9005(4) 0.8138(4)
C9 C 0.5716(4) 0.6387(4) 0.6178(3)
C10 C 0.5819(4) 0.6879(4) 0.5499(3)
C11 C 0.5237(4) 0.6423(4) 0.4848(3)
H4 H 0.5298 0.6768 0.4402
C12 C 0.4578(4) 0.5460(4) 0.4877(3)
C13 C 0.4478(4) 0.4959(4) 0.5565(3)
H5 H 0.4053 0.4310 0.5584
C14 C 0.5008(4) 0.5422(4) 0.6219(3)
C15 C 0.6607(4) 0.7865(4) 0.5379(3)
C16 C 0.4054(4) 0.4950(4) 0.4176(3)
C17 C 0.4754(4) 0.4855(4) 0.6956(3)
Co3 Co 0.40199(5) 0.34607(7) 0.79344(4)
Co5 Co 0.34607(7) 0.40199(5) 0.29344(4)
Co7 Co 0.72431(5) 0.96506(5) 0.45064(4)
Co8 Co 0.24075(7) 0.27569(5) 0.45064(4)
O16 O 0.8627(5) 0.4608(3) 0.8605(3)
O17 O 0.9636(4) 0.5946(3) 0.9132(2)
O18 O 0.9380(4) 0.5364(3) 0.6910(3)
O12_2 O 0.2599(4) 0.3190(6) 0.0421(4)
O15_2 O 0.3607(3) 0.2082(4) 0.0145(3)
H6_2 H 0.247368 0.283009 0.0912443
H7_2 H 0.319027 0.381306 0.047289
H8_2 H 0.158298 0.068595 0.00258109
H9_2 H 0.12291 0.139083 0.0354263
Co2_2 Co 0.27569(5) 0.24075(7) 0.95064(4)
O1_2 O 0.3877(3) 0.2166(4) 0.7768(3)
O2_2 O 0.2731(3) 0.1494(4) 0.8637(3)
O9_2 O 0.5984(3) 0.0620(4) 0.6910(3)
O11_2 O 0.1466(3) 0.1212(4) 0.9891(3)
C1_2 C 0.2948(4) 0.0483(6) 0.7783(3)
C6_2 C 0.3421(4) 0.0356(6) 0.7170(3)
H3_2 H 0.3954 0.0879 0.6964
C7_2 C 0.3208(4) 0.1450(6) 0.8093(3)
O13_2 O 0.1983(5) 0.2796(6) 0.8831(3)
O14_2 O 0.2740(5) 0.3277(6) 0.7703(3)
O16_2 O 0.5392(3) 0.4019(6) 0.8605(3)
O17_2 O 0.4054(3) 0.3690(5) 0.9132(2)
O5_2 O 0.1976(4) 0.9426(6) 0.5484(4)
O6_2 O 0.1525(3) 0.7918(4) 0.5145(3)
O7_2 O 0.4608(3) 0.8627(5) 0.3605(3)
O8_2 O 0.5946(3) 0.9636(4) 0.4132(2)
O10_2 O 0.4847(4) 0.9448(6) 0.7557(3)
C2_2 C 0.2177(4) 0.9710(6) 0.8114(4)
H1_2 H 0.1871 0.9788 0.8538
C3_2 C 0.1859(4) 0.8798(6) 0.7796(4)
C4_2 C 0.2313(4) 0.8685(6) 0.7167(4)
H2_2 H 0.2086 0.8088 0.6948
C5_2 C 0.3120(4) 0.9474(6) 0.6858(3)
C8_2 C 0.0995(4) 0.7960(6) 0.8138(4)
C9_2 C 0.3613(4) 0.9329(6) 0.6178(3)
C10_2 C 0.3121(4) 0.8940(6) 0.5499(3)
C11_2 C 0.3577(4) 0.8814(6) 0.4848(3)
H4_2 H 0.3232 0.8530 0.4402
C12_2 C 0.4540(4) 0.9118(6) 0.4877(3)
C13_2 C 0.5041(4) 0.9519(6) 0.5565(3)
H5_2 H 0.5690 0.9743 0.5584
C14_2 C 0.4578(4) 0.9586(6) 0.6219(3)
C15_2 C 0.2135(4) 0.8742(6) 0.5379(3)
C16_2 C 0.5050(4) 0.9104(6) 0.4176(3)
C17_2 C 0.5145(4) 0.9899(6) 0.6956(3)
Co5_2 Co 0.59801(5) 0.94408(9) 0.29344(4)
Co7_2 Co 0.03494(5) 0.75925(7) 0.45064(4)
O5_3 O 0.0574(6) 0.2550(4) 0.5484(4)
O6_3 O 0.2082(4) 0.3607(3) 0.5145(3)
O7_3 O 0.1373(5) 0.5981(4) 0.3605(3)
O8_3 O 0.0364(4) 0.6310(3) 0.4132(2)
O10_3 O 0.0552(6) 0.5399(4) 0.7557(3)
C2_3 C 0.0290(6) 0.2467(4) 0.8114(4)
H1_3 H 0.0212 0.2083 0.8538
C3_3 C 0.1202(6) 0.3061(4) 0.7796(4)
C4_3 C 0.1315(6) 0.3628(4) 0.7167(4)
H2_3 H 0.1912 0.3998 0.6948
C5_3 C 0.0526(6) 0.3646(4) 0.6858(3)
C8_3 C 0.2040(6) 0.3035(4) 0.8138(4)
C9_3 C 0.0671(6) 0.4284(4) 0.6178(3)
C10_3 C 0.1060(6) 0.4181(4) 0.5499(3)
C11_3 C 0.1186(6) 0.4763(4) 0.4848(3)
H4_3 H 0.1470 0.4702 0.4402
C12_3 C 0.0882(6) 0.5422(4) 0.4877(3)
C13_3 C 0.0481(6) 0.5522(4) 0.5565(3)
H5_3 H 0.0257 0.5947 0.5584
C14_3 C 0.0414(6) 0.4992(4) 0.6219(3)
C15_3 C 0.1258(6) 0.3393(4) 0.5379(3)
C16_3 C 0.0896(6) 0.5946(4) 0.4176(3)
C17_3 C 0.0101(6) 0.5246(4) 0.6956(3)
Co5_3 Co 0.05592(9) 0.65393(7) 0.29344(4)
O1_3 O 0.7834(4) 0.1711(3) 0.7768(3)
O2_3 O 0.8506(4) 0.1237(3) 0.8637(3)
O11_3 O 0.8788(4) 0.0254(3) 0.9891(3)
C1_3 C 0.9517(6) 0.2465(4) 0.7783(3)
C6_3 C 0.9644(6) 0.3065(4) 0.7170(3)
H3_3 H 0.9121 0.3075 0.6964
C7_3 C 0.8550(6) 0.1758(4) 0.8093(3)
O16_3 O 0.5981(6) 0.1373(5) 0.8605(3)
O17_3 O 0.6310(5) 0.0364(4) 0.9132(2)
O1_4 O 0.6123(3) 0.8289(3) 0.2768(3)
O2_4 O 0.7269(3) 0.8763(3) 0.3637(3)
O3_2 O 0.9187(3) 0.7204(4) 0.3831(3)
O4_2 O 0.9463(3) 0.6723(4) 0.2703(3)
O5_4 O 0.8024(4) 0.7450(4) 0.0484(4)
O9_3 O 0.4016(3) 0.4636(3) 0.1910(3)
O10_4 O 0.5153(4) 0.4601(4) 0.2557(3)
O11_4 O 0.8534(3) 0.9746(3) 0.4891(3)
C1_4 C 0.7052(4) 0.7535(4) 0.2783(3)
C2_4 C 0.7823(4) 0.7533(4) 0.3114(4)
H1_4 H 0.8129 0.7917 0.3538
C3_4 C 0.8141(4) 0.6939(4) 0.2796(4)
C4_4 C 0.7687(4) 0.6372(4) 0.2167(4)
H2_4 H 0.7914 0.6002 0.1948
C5_4 C 0.6880(4) 0.6354(4) 0.1858(3)
C6_4 C 0.6579(4) 0.6935(4) 0.2170(3)
H3_4 H 0.6046 0.6925 0.1964
C7_4 C 0.6792(4) 0.8242(4) 0.3093(3)
C8_4 C 0.9005(4) 0.6965(4) 0.3138(4)
C9_4 C 0.6387(4) 0.5716(4) 0.1178(3)
C10_4 C 0.6879(4) 0.5819(4) 0.0499(3)
C13_4 C 0.4959(4) 0.4478(4) 0.0565(3)
H5_4 H 0.4310 0.4053 0.0584
C14_4 C 0.5422(4) 0.5008(4) 0.1219(3)
C15_4 C 0.7865(4) 0.6607(4) 0.0379(3)
C17_4 C 0.4855(4) 0.4754(4) 0.1956(3)
O18_2 O 0.5364(3) 0.9380(4) 0.1910(3)
H8_3 H 0.841702 0.910297 0.502581
C11_4 C 0.6423(4) 0.5237(4) 0.9848(3)
H4_4 H 0.6768 0.5298 0.9402
C12_4 C 0.5460(4) 0.4578(4) 0.9877(3)
C16_4 C 0.4950(4) 0.4054(4) 0.9176(3)
O1_5 O 0.2166(4) 0.3877(3) 0.2768(3)
O2_5 O 0.1494(4) 0.2731(3) 0.3637(3)
O9_4 O 0.0620(4) 0.5984(3) 0.1910(3)
O11_5 O 0.1212(4) 0.1466(3) 0.4891(3)
O12_3 O 0.3190(6) 0.2599(4) 0.5421(4)
C1_5 C 0.0483(6) 0.2948(4) 0.2783(3)
C6_5 C 0.0356(6) 0.3421(4) 0.2170(3)
H3_5 H 0.0879 0.3954 0.1964
C7_5 C 0.1450(6) 0.3208(4) 0.3093(3)
O13_3 O 0.2796(6) 0.1983(5) 0.3831(3)
O14_3 O 0.3277(6) 0.2740(5) 0.2703(3)
H6_3 H 0.283009 0.247368 0.591244
H7_3 H 0.381306 0.319027 0.547289
H8_4 H 0.068595 0.158298 0.502581
H9_3 H 0.139083 0.12291 0.535426
C11_5 C 0.8814(6) 0.3577(4) 0.9848(3)
H4_5 H 0.8530 0.3232 0.9402
C12_5 C 0.9118(6) 0.4540(4) 0.9877(3)
C16_5 C 0.9104(6) 0.5050(4) 0.9176(3)
O5_5 O 0.2550(4) 0.0574(6) 0.0484(4)
O10_5 O 0.5399(4) 0.0552(6) 0.2557(3)
C2_5 C 0.2467(4) 0.0290(6) 0.3114(4)
H1_5 H 0.2083 0.0212 0.3538
C3_5 C 0.3061(4) 0.1202(6) 0.2796(4)
C4_5 C 0.3628(4) 0.1315(6) 0.2167(4)
H2_5 H 0.3998 0.1912 0.1948
C5_5 C 0.3646(4) 0.0526(6) 0.1858(3)
C8_5 C 0.3035(4) 0.2040(6) 0.3138(4)
C9_5 C 0.4284(4) 0.0671(6) 0.1178(3)
C10_5 C 0.4181(4) 0.1060(6) 0.0499(3)
C13_5 C 0.5522(4) 0.0481(6) 0.0565(3)
H5_5 H 0.5947 0.0257 0.0584
C14_5 C 0.4992(4) 0.0414(6) 0.1219(3)
C15_5 C 0.3393(4) 0.1258(6) 0.0379(3)
C17_5 C 0.5246(4) 0.0101(6) 0.1956(3)
C11_6 C 0.4763(4) 0.1186(6) 0.9848(3)
H4_6 H 0.4702 0.1470 0.9402
C12_6 C 0.5422(4) 0.0882(6) 0.9877(3)
C16_6 C 0.5946(4) 0.0896(6) 0.9176(3)
O1_6 O 0.1711(3) 0.7834(4) 0.2768(3)
O2_6 O 0.1237(3) 0.8506(4) 0.3637(3)
O11_6 O 0.0254(3) 0.8788(4) 0.4891(3)
C1_6 C 0.2465(4) 0.9517(6) 0.2783(3)
C6_6 C 0.3065(4) 0.9644(6) 0.2170(3)
H3_6 H 0.3075 0.9121 0.1964
C7_6 C 0.1758(4) 0.8550(6) 0.3093(3)
H8_5 H 0.0897032 0.931405 0.502581
O12_4 O 0.9409(4) 0.6810(6) 0.5421(4)
H6_4 H 0.96436 0.716991 0.591244
H7_4 H 0.937722 0.618694 0.547289
H9_4 H 0.983826 0.860917 0.535426
O15_3 O 0.7918(4) 0.1525(3) 0.0145(3)
H8_6 H 0.931405 0.0897032 0.00258109
O12_5 O 0.7401(4) 0.0591(4) 0.5421(4)
O13_4 O 0.8017(5) 0.0813(3) 0.3831(3)
O14_4 O 0.7260(5) 0.0537(3) 0.2703(3)
H6_5 H 0.752632 0.0356404 0.591244
H7_5 H 0.680973 0.0622782 0.547289
H9_5 H 0.87709 0.0161739 0.535426
O5_6 O 0.9426(6) 0.1976(4) 0.0484(4)
O10_6 O 0.9448(6) 0.4847(4) 0.2557(3)
C2_6 C 0.9710(6) 0.2177(4) 0.3114(4)
H1_6 H 0.9788 0.1871 0.3538
C3_6 C 0.8798(6) 0.1859(4) 0.2796(4)
C4_6 C 0.8685(6) 0.2313(4) 0.2167(4)
H2_6 H 0.8088 0.2086 0.1948
C5_6 C 0.9474(6) 0.3120(4) 0.1858(3)
C8_6 C 0.7960(6) 0.0995(4) 0.3138(4)
C9_6 C 0.9329(6) 0.3613(4) 0.1178(3)
C10_6 C 0.8940(6) 0.3121(4) 0.0499(3)
C13_6 C 0.9519(6) 0.5041(4) 0.0565(3)
H5_6 H 0.9743 0.5690 0.0584
C14_6 C 0.9586(6) 0.4578(4) 0.1219(3)
C15_6 C 0.8742(6) 0.2135(4) 0.0379(3)
C17_6 C 0.9899(6) 0.5145(4) 0.1956(3)
O12_6 O 0.6810(6) 0.9409(4) 0.0421(4)
H6_6 H 0.716991 0.96436 0.0912443
H7_6 H 0.618694 0.937722 0.047289
H9_6 H 0.860917 0.983826 0.0354263
Co9 Co 0.6667 0.3333 0.67580(8)
O19 O 0.5595(3) 0.2341(3) 0.7466(3)
O20 O 0.5669(5) 0.3435(5) 0.6065(4)
O21 O 0.7659(3) 0.3254(4) 0.7466(3)
O22 O 0.6565(5) 0.2234(7) 0.6065(4)
O23 O 0.6746(4) 0.4405(3) 0.7466(3)
O24 O 0.7766(7) 0.4331(5) 0.6065(4)
Co9_2 Co 0.3333 0.6667 0.17580(8)
O19_2 O 0.2341(3) 0.5595(3) 0.2466(3)
O20_2 O 0.3435(5) 0.5669(5) 0.1065(4)
O21_2 O 0.3254(4) 0.7659(3) 0.2466(3)
O22_2 O 0.2234(7) 0.6565(5) 0.1065(4)
O23_2 O 0.4405(3) 0.6746(4) 0.2466(3)
O24_2 O 0.4331(5) 0.7766(7) 0.1065(4)
O25 O 0.0000 0.0000 0.8888(7)
O25_2 O 0.0000 1.0000 0.8888(7)
H20 H 0.0610281 1 0.8888
H21 H 0.0491116 0.991574 0.861706
O25_3 O 1.0000 0.0000 0.8888(7)
H20_2 H 1 0.0610281 0.8888
H22 H 0.991574 0.0491116 0.861706
O25_4 O 1.0000 1.0000 0.8888(7)
O25_5 O 0.0000 -0.0000 0.3888(7)
O25_6 O 0.0000 1.0000 0.3888(7)
H20_3 H 0.0610281 1 0.3888
H22_2 H 0.0491116 0.991574 0.361706
O25_7 O 1.0000 -0.0000 0.3888(7)
H20_4 H 1 0.0610281 0.3888
H21_2 H 0.991574 0.0491116 0.361706
O25_8 O 1.0000 1.0000 0.3888(7)
loop_
_geom_bond_atom_site_label_1
_geom_bond_atom_site_label_2
_geom_bond_site_symmetry_1
_geom_bond_site_symmetry_2
O12 H6 1_555 1_555
O12 H7 1_555 1_555
Co1 O1 1_555 1_555
Co2 O2 1_555 1_555
O1 C7 1_555 1_555
O2 C7 1_555 1_555
O3 C8 1_555 1_555
O4 C8 1_555 1_555
O5 C15 1_555 1_555
O6 C15 1_555 1_555
O7 C16 1_555 1_555
O8 C16 1_555 1_555
O9 C17 1_555 1_555
O10 C17 1_555 1_555
O11 Co2 1_555 1_555
C1 C2 1_555 1_555
C2 H1 1_555 1_555
C3 C2 1_555 1_555
C4 C3 1_555 1_555
H2 C4 1_555 1_555
C5 C4 1_555 1_555
C6 C1 1_555 1_555
H3 C6 1_555 1_555
C7 C1 1_555 1_555
C8 C3 1_555 1_555
C9 C5 1_555 1_555
C10 C9 1_555 1_555
C11 C10 1_555 1_555
H4 C11 1_555 1_555
C12 C11 1_555 1_555
C13 C12 1_555 1_555
H5 C13 1_555 1_555
C14 C9 1_555 1_555
C15 C10 1_555 1_555
C16 C12 1_555 1_555
C17 C14 1_555 1_555
Co3 O9 1_555 1_555
Co5 O7 1_555 1_555
Co7 O6 1_555 1_555
Co8 O8 1_555 1_555
O16 Co1 1_555 1_555
O17 Co1 1_555 1_555
O18 Co1 1_555 1_555
Co2 O17 1_555 1_555
O8 Co5 1_555 1_555
C5 C6 1_555 1_555
C13 C14 1_555 1_555
O12_2 H6_2 1_555 1_555
O12_2 H7_2 1_555 1_555
Co3 O1_2 1_555 1_555
Co2_2 O2_2 1_555 1_555
O1_2 C7_2 1_555 1_555
O2_2 C7_2 1_555 1_555
O11_2 Co2_2 1_555 1_555
C6_2 C1_2 1_555 1_555
H3_2 C6_2 1_555 1_555
C7_2 C1_2 1_555 1_555
Co4 O9_2 1_555 1_555
O13_2 Co2_2 1_555 1_555
O14_2 Co3 1_555 1_555
O16_2 Co3 1_555 1_555
O17_2 Co3 1_555 1_555
Co2_2 O17_2 1_555 1_555
O13 C8_2 1_555 1_555
O14 C8_2 1_555 1_555
O5_2 C15_2 1_555 1_555
O6_2 C15_2 1_555 1_555
O7_2 C16_2 1_555 1_555
O8_2 C16_2 1_555 1_555
O10_2 C17_2 1_555 1_555
C2_2 H1_2 1_555 1_555
C3_2 C2_2 1_555 1_555
C4_2 C3_2 1_555 1_555
H2_2 C4_2 1_555 1_555
C5_2 C4_2 1_555 1_555
C8_2 C3_2 1_555 1_555
C9_2 C5_2 1_555 1_555
C10_2 C9_2 1_555 1_555
C11_2 C10_2 1_555 1_555
H4_2 C11_2 1_555 1_555
C12_2 C11_2 1_555 1_555
C13_2 C12_2 1_555 1_555
H5_2 C13_2 1_555 1_555
C14_2 C9_2 1_555 1_555
C15_2 C10_2 1_555 1_555
C16_2 C12_2 1_555 1_555
C17_2 C14_2 1_555 1_555
Co5_2 O7_2 1_555 1_555
Co7_2 O6_2 1_555 1_555
Co7 O8_2 1_555 1_555
O8_2 Co5_2 1_555 1_555
C13_2 C14_2 1_555 1_555
O13_2 C8_3 1_555 1_555
O14_2 C8_3 1_555 1_555
O5_3 C15_3 1_555 1_555
O6_3 C15_3 1_555 1_555
O7_3 C16_3 1_555 1_555
O8_3 C16_3 1_555 1_555
O10_3 C17_3 1_555 1_555
C2_3 H1_3 1_555 1_555
C3_3 C2_3 1_555 1_555
C4_3 C3_3 1_555 1_555
H2_3 C4_3 1_555 1_555
C5_3 C4_3 1_555 1_555
C8_3 C3_3 1_555 1_555
C9_3 C5_3 1_555 1_555
C10_3 C9_3 1_555 1_555
C11_3 C10_3 1_555 1_555
H4_3 C11_3 1_555 1_555
C12_3 C11_3 1_555 1_555
C13_3 C12_3 1_555 1_555
H5_3 C13_3 1_555 1_555
C14_3 C9_3 1_555 1_555
C15_3 C10_3 1_555 1_555
C16_3 C12_3 1_555 1_555
C17_3 C14_3 1_555 1_555
Co5_3 O7_3 1_555 1_555
Co8 O6_3 1_555 1_555
Co7_2 O8_3 1_555 1_555
O8_3 Co5_3 1_555 1_555
C13_3 C14_3 1_555 1_555
Co4 O1_3 1_555 1_555
Co6 O2_3 1_555 1_555
O1_3 C7_3 1_555 1_555
O2_3 C7_3 1_555 1_555
O11_3 Co6 1_555 1_555
C6_3 C1_3 1_555 1_555
H3_3 C6_3 1_555 1_555
C7_3 C1_3 1_555 1_555
O16_3 Co4 1_555 1_555
O17_3 Co4 1_555 1_555
Co6 O17_3 1_555 1_555
Co5_2 O1_4 1_555 1_555
Co7 O2_4 1_555 1_555
O1_4 C7_4 1_555 1_555
O2_4 C7_4 1_555 1_555
O3_2 C8_4 1_555 1_555
O4_2 C8_4 1_555 1_555
O5_4 C15_4 1_555 1_555
O15 C15_4 1_555 1_555
O9_3 C17_4 1_555 1_555
O10_4 C17_4 1_555 1_555
O11_4 Co7 1_555 1_555
C1_4 C2_4 1_555 1_555
C2_4 H1_4 1_555 1_555
C3_4 C2_4 1_555 1_555
C4_4 C3_4 1_555 1_555
H2_4 C4_4 1_555 1_555
C5_4 C4_4 1_555 1_555
C6_4 C1_4 1_555 1_555
H3_4 C6_4 1_555 1_555
C7_4 C1_4 1_555 1_555
C8_4 C3_4 1_555 1_555
C9_4 C5_4 1_555 1_555
C10_4 C9_4 1_555 1_555
H5_4 C13_4 1_555 1_555
C14_4 C9_4 1_555 1_555
C15_4 C10_4 1_555 1_555
C17_4 C14_4 1_555 1_555
Co5 O9_3 1_555 1_555
O18_2 Co5_2 1_555 1_555
C5_4 C6_4 1_555 1_555
C13_4 C14_4 1_555 1_555
O11_4 H8_3 1_555 1_555
O16_2 C16_4 1_555 1_555
O17_2 C16_4 1_555 1_555
H4_4 C11_4 1_555 1_555
C12_4 C11_4 1_555 1_555
C16_4 C12_4 1_555 1_555
Co5 O1_5 1_555 1_555
Co8 O2_5 1_555 1_555
O1_5 C7_5 1_555 1_555
O2_5 C7_5 1_555 1_555
O11_5 Co8 1_555 1_555
O12_3 Co8 1_555 1_555
C6_5 C1_5 1_555 1_555
H3_5 C6_5 1_555 1_555
C7_5 C1_5 1_555 1_555
Co5_3 O9_4 1_555 1_555
O13_3 Co8 1_555 1_555
O14_3 Co5 1_555 1_555
O12_3 H6_3 1_555 1_555
O12_3 H7_3 1_555 1_555
O11_5 H8_4 1_555 1_555
O11_5 H9_3 1_555 1_555
O16 C16_5 1_555 1_555
O17 C16_5 1_555 1_555
H4_5 C11_5 1_555 1_555
C12_5 C11_5 1_555 1_555
C16_5 C12_5 1_555 1_555
O13_3 C8_5 1_555 1_555
O14_3 C8_5 1_555 1_555
O5_5 C15_5 1_555 1_555
O15_2 C15_5 1_555 1_555
O10_5 C17_5 1_555 1_555
C2_5 H1_5 1_555 1_555
C3_5 C2_5 1_555 1_555
C4_5 C3_5 1_555 1_555
H2_5 C4_5 1_555 1_555
C5_5 C4_5 1_555 1_555
C8_5 C3_5 1_555 1_555
C9_5 C5_5 1_555 1_555
C10_5 C9_5 1_555 1_555
H5_5 C13_5 1_555 1_555
C14_5 C9_5 1_555 1_555
C15_5 C10_5 1_555 1_555
C17_5 C14_5 1_555 1_555
C13_5 C14_5 1_555 1_555
O16_3 C16_6 1_555 1_555
O17_3 C16_6 1_555 1_555
H4_6 C11_6 1_555 1_555
C12_6 C11_6 1_555 1_555
C16_6 C12_6 1_555 1_555
Co5_3 O1_6 1_555 1_555
Co7_2 O2_6 1_555 1_555
O1_6 C7_6 1_555 1_555
O2_6 C7_6 1_555 1_555
O11_6 Co7_2 1_555 1_555
C6_6 C1_6 1_555 1_555
H3_6 C6_6 1_555 1_555
C7_6 C1_6 1_555 1_555
O11_6 H8_5 1_555 1_555
O12_4 H6_4 1_555 1_555
O12_4 H7_4 1_555 1_555
O12_5 H6_5 1_555 1_555
O12_5 H7_5 1_555 1_555
O13_4 C8_6 1_555 1_555
O14_4 C8_6 1_555 1_555
O5_6 C15_6 1_555 1_555
O15_3 C15_6 1_555 1_555
O10_6 C17_6 1_555 1_555
C2_6 H1_6 1_555 1_555
C3_6 C2_6 1_555 1_555
C4_6 C3_6 1_555 1_555
H2_6 C4_6 1_555 1_555
C5_6 C4_6 1_555 1_555
C8_6 C3_6 1_555 1_555
C9_6 C5_6 1_555 1_555
C10_6 C9_6 1_555 1_555
H5_6 C13_6 1_555 1_555
C14_6 C9_6 1_555 1_555
C15_6 C10_6 1_555 1_555
C17_6 C14_6 1_555 1_555
C13_6 C14_6 1_555 1_555
O12_6 H6_6 1_555 1_555
O12_6 H7_6 1_555 1_555
Co9 O19 1_555 1_555
O20 Co9 1_555 1_555
O21 Co9 1_555 1_555
O22 Co9 1_555 1_555
O23 Co9 1_555 1_555
O24 Co9 1_555 1_555
Co9_2 O19_2 1_555 1_555
O20_2 Co9_2 1_555 1_555
O21_2 Co9_2 1_555 1_555
O22_2 Co9_2 1_555 1_555
O23_2 Co9_2 1_555 1_555
O24_2 Co9_2 1_555 1_555
O25_2 H20 1_555 1_555
O25_2 H21 1_555 1_555
O25_3 H20_2 1_555 1_555
O25_3 H22 1_555 1_555
O25_6 H20_3 1_555 1_555
O25_6 H22_2 1_555 1_555
O25_7 H20_4 1_555 1_555
O25_7 H21_2 1_555 1_555

#END
