
###############################################################################
#
# This file contains modified crystal structure data generated from the
# MOF subset of the Cambridge Structural Database (CSD) v543 
# hosted by the Cambridge Crystallographic Data Centre (CCDC).
#
# This work is licensed under the Creative Commons
# Attribution-NonCommercial-ShareAlike 4.0 International License.
# To view a copy of this license, visit
# http://creativecommons.org/licenses/by-nc-sa/4.0/
# or send a letter to
# Creative Commons, PO Box 1866, Mountain View, CA 94042, USA.
#
# CIF created using the CSD Python API on 29 September 2022
# The structure has been converted into the P1 space group
# The structure has a 3D framework
# The original CSD entry PUMWOM is in the monoclinic crystal system
# The framework has been calculated to contain at least 10.0% void space
# The void calculation uses a probe of radius 1.32A, grid spacing 0.4
#
###############################################################################

data_PUMWOM
_chemical_formula_moiety         '(C256 H190 Co38 N24 O150)n'
_symmetry_cell_setting           triclinic
_symmetry_space_group_name_H-M   'P 1'
_symmetry_Int_Tables_number      1
_space_group_name_Hall           'P 1'
loop_
_symmetry_equiv_pos_site_id
_symmetry_equiv_pos_as_xyz
1 x,y,z
_cell_length_a                   35.22(3)
_cell_length_b                   11.136(5)
_cell_length_c                   21.807(17)
_cell_angle_alpha                90
_cell_angle_beta                 94.17(5)
_cell_angle_gamma                90
_cell_volume                     8530.28
loop_
_atom_site_label
_atom_site_type_symbol
_atom_site_fract_x
_atom_site_fract_y
_atom_site_fract_z
Co3 Co 0.40212(4) 0.77895(15) 0.68021(8)
Co4 Co 0.37129(4) 0.05394(15) 0.62712(8)
Co5 Co 0.36064(5) 0.61534(17) 0.56431(9)
O1 O 0.38887(18) 0.0069(6) 0.5432(3)
O5 O 0.39578(17) 0.7468(6) 0.5829(3)
H2 H 0.3789 0.8140 0.5709
O6 O 0.31617(18) 0.1021(6) 0.7306(3)
O7 O 0.36624(19) 0.6413(6) 0.6973(3)
O8 O 0.32180(19) 0.7352(6) 0.7457(3)
O9 O 0.42669(18) 0.0826(6) 0.6605(3)
O10 O 0.42818(18) 0.5597(6) 0.5036(3)
O11 O 0.3529(2) 0.1978(6) 0.6683(4)
O14 O 0.3908(2) 0.4648(6) 0.5647(3)
O15 O 0.11975(19) 0.7245(6) 0.5506(3)
O16 O 0.16135(19) 0.8599(7) 0.5240(3)
O17 O 0.3120(2) 0.5673(7) 0.5899(3)
O18 O 0.3018(2) 0.7635(8) 0.5838(4)
N1 N 0.5190(2) 0.2636(7) 0.4324(4)
H3 H 0.5190 0.3336 0.4127
H4 H 0.5203 0.2060 0.4044
O19 O 0.4451(2) 0.6478(7) 0.6931(4)
H5 H 0.4510 0.6055 0.7262
H6 H 0.4611 0.6236 0.6670
N2 N 0.1942(2) 0.4035(8) 0.6691(4)
H7 H 0.2151 0.3583 0.6727
H8 H 0.1767 0.3617 0.6467
N3 N 0.2323(2) 0.4188(7) 0.8139(4)
H9 H 0.2332 0.4826 0.8386
H10 H 0.2328 0.3543 0.8381
N4 N 0.5463(2) 0.2810(7) 0.5839(4)
H11 H 0.5624 0.3272 0.6066
H12 H 0.5249 0.3229 0.5769
C1 C 0.4837(3) 0.2523(9) 0.4597(4)
C2 C 0.4166(3) 0.4684(10) 0.5276(5)
C3 C 0.4671(3) 0.3543(10) 0.4786(5)
H13 H 0.4784 0.4280 0.4711
C4 C 0.2847(3) 0.5256(9) 0.7720(5)
H14 H 0.2754 0.5975 0.7867
C5 C 0.4336(3) 0.3515(9) 0.5092(5)
C6 C 0.4679(3) 0.1415(9) 0.4718(4)
H15 H 0.4792 0.0713 0.4588
C7 C 0.3366(3) 0.6441(10) 0.7265(5)
C8 C 0.5375(3) 0.1792(10) 0.6210(5)
C9 C 0.4197(3) 0.0156(10) 0.5185(5)
C10 C 0.4353(3) 0.1361(9) 0.5036(5)
C11 C 0.4182(3) 0.2413(9) 0.5212(4)
H16 H 0.3960 0.2375 0.5416
C13 C 0.5006(3) 0.1465(10) 0.6279(5)
H18 H 0.4808 0.1954 0.6122
C14 C 0.3288(3) 0.1946(10) 0.7083(5)
C15 C 0.4523(3) 0.0019(11) 0.6610(5)
C16 C 0.3167(3) 0.5237(9) 0.7385(5)
C17 C 0.4925(3) 0.0404(10) 0.6584(5)
C19 C 0.2672(3) 0.4185(9) 0.7828(4)
C20 C 0.3139(3) 0.3101(9) 0.7291(5)
C21 C 0.5591(3) 0.0048(10) 0.6769(5)
O20 O 0.3150(2) 0.0540(10) 0.5710(4)
H20 H 0.3185 0.0755 0.5342
C22 C 0.3317(3) 0.4184(9) 0.7180(5)
H21 H 0.3537 0.4197 0.6969
C23 C 0.2813(3) 0.3117(10) 0.7623(5)
H22 H 0.2692 0.2400 0.7706
C24 C 0.2900(3) 0.6581(13) 0.5908(5)
C25 C 0.1841(3) 0.6835(11) 0.5799(5)
C26 C 0.5671(3) 0.1091(10) 0.6487(5)
H23 H 0.5922 0.1342 0.6477
C27 C 0.2491(3) 0.6346(11) 0.5971(5)
C28 C 0.1523(3) 0.7645(11) 0.5506(5)
C29 C 0.2028(3) 0.5041(11) 0.6343(5)
C30 C 0.2402(3) 0.5287(11) 0.6260(5)
H24 H 0.2593 0.4751 0.6395
C31 C 0.2220(3) 0.7120(12) 0.5746(5)
H25 H 0.2286 0.7831 0.5558
C32 C 0.1743(3) 0.5790(11) 0.6087(5)
H26 H 0.1488 0.5588 0.6111
Co6 Co 0.32572(4) 0.92101(14) 0.73975(7)
Co8 Co 0.17428(4) 0.42101(14) 0.76025(7)
Co9 Co 0.42947(4) 0.74576(14) 0.50541(7)
Co10 Co 0.57053(4) 0.25424(14) 0.49459(7)
Co11 Co 0.07053(4) 0.75424(14) 0.49459(7)
Co14 Co 0.13936(5) 0.88466(17) 0.43569(9)
O21 O 0.44583(17) 0.8935(7) 0.6607(3)
O22 O 0.35655(17) 0.9000(6) 0.6627(3)
O26 O 0.41587(18) 0.8258(7) 0.7726(3)
O29 O 0.33865(19) 0.6401(7) 0.4760(3)
O2 O 0.43823(18) 0.9268(6) 0.5030(3)
H1 H 0.3392 0.8616 0.6315
O12 O 0.58413(18) 0.8258(7) 0.7274(3)
O13 O 0.62370(19) 0.9740(6) 0.7101(3)
C12 C 0.5220(3) 0.9692(10) 0.6811(4)
H17 H 0.5169 0.8962 0.6995
C18 C 0.5918(3) 0.9285(11) 0.7067(5)
H19 H 0.3068 0.9818 0.5674
Co7 Co 0.67428(4) 0.92101(14) 0.76025(7)
Co13 Co 0.59788(4) 0.77895(15) 0.81979(8)
O27 O 0.37630(19) 0.9740(6) 0.7899(3)
O28 O 0.38025(19) 0.7755(6) 0.4494(3)
N5 N 0.4810(2) 0.7364(7) 0.5676(4)
N6 N 0.3058(2) 0.9035(8) 0.8309(4)
N7 N 0.2677(2) 0.9188(7) 0.6861(4)
N8 N 0.4537(2) 0.7190(7) 0.4161(4)
N1_2 N 0.4810(2) 0.2636(7) 0.0676(4)
H3_2 H 0.4810 0.3336 0.0873
H4_2 H 0.4797 0.2060 0.0956
C1_2 C 0.5163(3) 0.2523(9) 0.0403(4)
C3_2 C 0.5329(3) 0.3543(10) 0.0214(5)
H13_2 H 0.5216 0.4280 0.0289
C6_2 C 0.5321(3) 0.1415(9) 0.0282(4)
H15_2 H 0.5208 0.0713 0.0412
Co10_2 Co 0.42947(4) 0.25424(14) 0.00541(7)
Co11_2 Co 0.92947(4) 0.75424(14) 0.00541(7)
Co14_2 Co 0.86064(5) 0.88466(17) 0.06431(9)
O29_2 O 0.66135(19) 0.6401(7) 0.0240(3)
Co4_2 Co 0.62871(4) 0.05394(15) 0.87288(8)
Co5_2 Co 0.63936(5) 0.61534(17) 0.93569(9)
O1_2 O 0.61113(18) 0.0069(6) 0.9568(3)
O5_2 O 0.60422(17) 0.7468(6) 0.9171(3)
H2_2 H 0.6211 0.8140 0.9291
O6_2 O 0.68383(18) 0.1021(6) 0.7694(3)
O7_2 O 0.63376(19) 0.6413(6) 0.8027(3)
O8_2 O 0.67820(19) 0.7352(6) 0.7543(3)
O9_2 O 0.57331(18) 0.0826(6) 0.8395(3)
O10_2 O 0.57182(18) 0.5597(6) 0.9964(3)
O11_2 O 0.6471(2) 0.1978(6) 0.8317(4)
O14_2 O 0.6092(2) 0.4648(6) 0.9353(3)
O15_2 O 0.88025(19) 0.7245(6) 0.9494(3)
O16_2 O 0.83865(19) 0.8599(7) 0.9760(3)
O17_2 O 0.6880(2) 0.5673(7) 0.9101(3)
O18_2 O 0.6982(2) 0.7635(8) 0.9162(4)
O19_2 O 0.5549(2) 0.6478(7) 0.8069(4)
H5_2 H 0.5490 0.6055 0.7738
H6_2 H 0.5389 0.6236 0.8330
N2_2 N 0.8058(2) 0.4035(8) 0.8309(4)
H7_2 H 0.7849 0.3583 0.8273
H8_2 H 0.8233 0.3617 0.8533
N3_2 N 0.7677(2) 0.4188(7) 0.6861(4)
H9_2 H 0.7668 0.4826 0.6614
H10_2 H 0.7672 0.3543 0.6619
N4_2 N 0.4537(2) 0.2810(7) 0.9161(4)
H11_2 H 0.4376 0.3272 0.8934
H12_2 H 0.4751 0.3229 0.9231
C2_2 C 0.5834(3) 0.4684(10) 0.9724(5)
C4_2 C 0.7153(3) 0.5256(9) 0.7280(5)
H14_2 H 0.7246 0.5975 0.7133
C5_2 C 0.5664(3) 0.3515(9) 0.9908(5)
C7_2 C 0.6634(3) 0.6441(10) 0.7735(5)
C8_2 C 0.4625(3) 0.1792(10) 0.8790(5)
C9_2 C 0.5803(3) 0.0156(10) 0.9815(5)
C10_2 C 0.5647(3) 0.1361(9) 0.9964(5)
C11_2 C 0.5818(3) 0.2413(9) 0.9788(4)
H16_2 H 0.6040 0.2375 0.9584
C13_2 C 0.4994(3) 0.1465(10) 0.8721(5)
H18_2 H 0.5192 0.1954 0.8878
C14_2 C 0.6712(3) 0.1946(10) 0.7917(5)
C15_2 C 0.5477(3) 0.0019(11) 0.8390(5)
C16_2 C 0.6833(3) 0.5237(9) 0.7615(5)
C17_2 C 0.5075(3) 0.0404(10) 0.8416(5)
C19_2 C 0.7328(3) 0.4185(9) 0.7172(4)
C20_2 C 0.6861(3) 0.3101(9) 0.7709(5)
C21_2 C 0.4409(3) 0.0048(10) 0.8231(5)
O20_2 O 0.6850(2) 0.0540(10) 0.9290(4)
H20_2 H 0.6815 0.0755 0.9658
C22_2 C 0.6683(3) 0.4184(9) 0.7820(5)
H21_2 H 0.6463 0.4197 0.8031
C23_2 C 0.7187(3) 0.3117(10) 0.7377(5)
H22_2 H 0.7308 0.2400 0.7294
C24_2 C 0.7100(3) 0.6581(13) 0.9092(5)
C25_2 C 0.8159(3) 0.6835(11) 0.9201(5)
C26_2 C 0.4329(3) 0.1091(10) 0.8513(5)
H23_2 H 0.4078 0.1342 0.8523
C27_2 C 0.7509(3) 0.6346(11) 0.9029(5)
C28_2 C 0.8477(3) 0.7645(11) 0.9494(5)
C29_2 C 0.7972(3) 0.5041(11) 0.8657(5)
C30_2 C 0.7598(3) 0.5287(11) 0.8740(5)
H24_2 H 0.7407 0.4751 0.8605
C31_2 C 0.7780(3) 0.7120(12) 0.9254(5)
H25_2 H 0.7714 0.7831 0.9442
C32_2 C 0.8257(3) 0.5790(11) 0.8913(5)
H26_2 H 0.8512 0.5588 0.8889
Co8_2 Co 0.82572(4) 0.42101(14) 0.73975(7)
Co9_2 Co 0.57053(4) 0.74576(14) 0.99459(7)
O21_2 O 0.55417(17) 0.8935(7) 0.8393(3)
O22_2 O 0.64345(17) 0.9000(6) 0.8373(3)
O28_2 O 0.61975(19) 0.7755(6) 0.0506(3)
N8_2 N 0.5463(2) 0.7190(7) 0.0839(4)
O2_2 O 0.56177(18) 0.9268(6) 0.9970(3)
H1_2 H 0.6608 0.8616 0.8685
C12_2 C 0.4780(3) 0.9692(10) 0.8189(4)
H17_2 H 0.4831 0.8962 0.8005
C18_2 C 0.4082(3) 0.9285(11) 0.7933(5)
H19_2 H 0.6932 0.9818 0.9326
N5_2 N 0.5190(2) 0.7364(7) 0.9324(4)
N6_2 N 0.6942(2) 0.9035(8) 0.6691(4)
N7_2 N 0.7323(2) 0.9188(7) 0.8139(4)
O12_2 O 0.08413(18) 0.3258(7) 0.7274(3)
O13_2 O 0.12370(19) 0.4740(6) 0.7101(3)
N1_3 N 0.0190(2) 0.7636(7) 0.4324(4)
H3_3 H 0.0190 0.8336 0.4127
H4_3 H 0.0203 0.7060 0.4044
N4_3 N 0.0463(2) 0.7810(7) 0.5839(4)
H11_3 H 0.0624 0.8272 0.6066
H12_3 H 0.0249 0.8229 0.5769
C8_3 C 0.0375(3) 0.6792(10) 0.6210(5)
C12_3 C 0.0220(3) 0.4692(10) 0.6811(4)
H17_3 H 0.0169 0.3962 0.6995
C13_3 C 0.0006(3) 0.6465(10) 0.6279(5)
C18_3 C 0.0918(3) 0.4285(11) 0.7067(5)
C21_3 C 0.0591(3) 0.5048(10) 0.6769(5)
C26_3 C 0.0671(3) 0.6091(10) 0.6487(5)
H23_3 H 0.0922 0.6342 0.6477
Co13_2 Co 0.09788(4) 0.27895(15) 0.81979(8)
Co3_2 Co 0.90212(4) 0.27895(15) 0.68021(8)
Co5_3 Co 0.86064(5) 0.11534(17) 0.56431(9)
O5_3 O 0.89578(17) 0.2468(6) 0.5829(3)
H2_3 H 0.8789 0.3140 0.5709
O7_3 O 0.86624(19) 0.1413(6) 0.6973(3)
O8_3 O 0.82180(19) 0.2352(6) 0.7457(3)
O10_3 O 0.92818(18) 0.0597(6) 0.5036(3)
O15_3 O 0.61975(19) 0.2245(6) 0.5506(3)
O16_3 O 0.66135(19) 0.3599(7) 0.5240(3)
O17_3 O 0.8120(2) 0.0673(7) 0.5899(3)
O18_3 O 0.8018(2) 0.2635(8) 0.5838(4)
O19_3 O 0.9451(2) 0.1478(7) 0.6931(4)
H5_3 H 0.9510 0.1055 0.7262
H6_3 H 0.9611 0.1236 0.6670
C4_3 C 0.7847(3) 0.0256(9) 0.7720(5)
H14_3 H 0.7754 0.0975 0.7867
C7_3 C 0.8366(3) 0.1441(10) 0.7265(5)
C16_3 C 0.8167(3) 0.0237(9) 0.7385(5)
C24_3 C 0.7900(3) 0.1581(13) 0.5908(5)
C25_3 C 0.6841(3) 0.1835(11) 0.5799(5)
C27_3 C 0.7491(3) 0.1346(11) 0.5971(5)
C28_3 C 0.6523(3) 0.2645(11) 0.5506(5)
C29_3 C 0.7028(3) 0.0041(11) 0.6343(5)
C30_3 C 0.7402(3) 0.0287(11) 0.6260(5)
C31_3 C 0.7220(3) 0.2120(12) 0.5746(5)
H25_3 H 0.7286 0.2831 0.5558
C32_3 C 0.6743(3) 0.0790(11) 0.6087(5)
H26_3 H 0.6488 0.0588 0.6111
Co9_3 Co 0.92947(4) 0.24576(14) 0.50541(7)
Co14_3 Co 0.63936(5) 0.38466(17) 0.43569(9)
O21_3 O 0.94583(17) 0.3935(7) 0.6607(3)
O22_3 O 0.85655(17) 0.4000(6) 0.6627(3)
O26_2 O 0.91587(18) 0.3258(7) 0.7726(3)
O29_3 O 0.83865(19) 0.1401(7) 0.4760(3)
Co4_3 Co 0.87129(4) 0.55394(15) 0.62712(8)
O1_3 O 0.88887(18) 0.5069(6) 0.5432(3)
O2_3 O 0.93823(18) 0.4268(6) 0.5030(3)
H1_3 H 0.8392 0.3616 0.6315
O6_3 O 0.81617(18) 0.6021(6) 0.7306(3)
O9_3 O 0.92669(18) 0.5826(6) 0.6605(3)
O11_3 O 0.8529(2) 0.6978(6) 0.6683(4)
O14_3 O 0.8908(2) 0.9648(6) 0.5647(3)
H7_3 H 0.7151 0.8583 0.6727
H8_3 H 0.6767 0.8617 0.6467
H9_3 H 0.7332 0.9826 0.8386
H10_3 H 0.7328 0.8543 0.8381
C1_3 C 0.9837(3) 0.7523(9) 0.4597(4)
C2_3 C 0.9166(3) 0.9684(10) 0.5276(5)
C3_3 C 0.9671(3) 0.8543(10) 0.4786(5)
H13_3 H 0.9784 0.9280 0.4711
C5_3 C 0.9336(3) 0.8515(9) 0.5092(5)
C6_3 C 0.9679(3) 0.6415(9) 0.4718(4)
H15_3 H 0.9792 0.5713 0.4588
C9_3 C 0.9197(3) 0.5156(10) 0.5185(5)
C10_3 C 0.9353(3) 0.6361(9) 0.5036(5)
C11_3 C 0.9182(3) 0.7413(9) 0.5212(4)
H16_3 H 0.8960 0.7375 0.5416
H18_3 H 0.9808 0.6954 0.6122
C14_3 C 0.8288(3) 0.6946(10) 0.7083(5)
C15_3 C 0.9523(3) 0.5019(11) 0.6610(5)
C17_3 C 0.9925(3) 0.5404(10) 0.6584(5)
C19_3 C 0.7672(3) 0.9185(9) 0.7828(4)
C20_3 C 0.8139(3) 0.8101(9) 0.7291(5)
O20_3 O 0.8150(2) 0.5540(10) 0.5710(4)
H19_3 H 0.8068 0.4818 0.5674
H20_3 H 0.8185 0.5755 0.5342
C22_3 C 0.8317(3) 0.9184(9) 0.7180(5)
H21_3 H 0.8537 0.9197 0.6969
C23_3 C 0.7813(3) 0.8117(10) 0.7623(5)
H22_3 H 0.7692 0.7400 0.7706
H24_3 H 0.7593 0.9751 0.6395
O27_2 O 0.87630(19) 0.4740(6) 0.7899(3)
O28_3 O 0.88025(19) 0.2755(6) 0.4494(3)
N5_3 N 0.9810(2) 0.2364(7) 0.5676(4)
N8_3 N 0.9537(2) 0.2190(7) 0.4161(4)
Co14_4 Co 0.36064(5) 0.38466(17) 0.06431(9)
O29_4 O 0.16135(19) 0.1401(7) 0.0240(3)
Co5_4 Co 0.13936(5) 0.11534(17) 0.93569(9)
O5_4 O 0.10422(17) 0.2468(6) 0.9171(3)
H2_4 H 0.1211 0.3140 0.9291
O7_4 O 0.13376(19) 0.1413(6) 0.8027(3)
O8_4 O 0.17820(19) 0.2352(6) 0.7543(3)
O10_4 O 0.07182(18) 0.0597(6) 0.9964(3)
O15_4 O 0.38025(19) 0.2245(6) 0.9494(3)
O16_4 O 0.33865(19) 0.3599(7) 0.9760(3)
O17_4 O 0.1880(2) 0.0673(7) 0.9101(3)
O18_4 O 0.1982(2) 0.2635(8) 0.9162(4)
O19_4 O 0.0549(2) 0.1478(7) 0.8069(4)
H5_4 H 0.0490 0.1055 0.7738
H6_4 H 0.0389 0.1236 0.8330
C4_4 C 0.2153(3) 0.0256(9) 0.7280(5)
H14_4 H 0.2246 0.0975 0.7133
C7_4 C 0.1634(3) 0.1441(10) 0.7735(5)
C16_4 C 0.1833(3) 0.0237(9) 0.7615(5)
C24_4 C 0.2100(3) 0.1581(13) 0.9092(5)
C25_4 C 0.3159(3) 0.1835(11) 0.9201(5)
C27_4 C 0.2509(3) 0.1346(11) 0.9029(5)
C28_4 C 0.3477(3) 0.2645(11) 0.9494(5)
C29_4 C 0.2972(3) 0.0041(11) 0.8657(5)
C30_4 C 0.2598(3) 0.0287(11) 0.8740(5)
C31_4 C 0.2780(3) 0.2120(12) 0.9254(5)
H25_4 H 0.2714 0.2831 0.9442
C32_4 C 0.3257(3) 0.0790(11) 0.8913(5)
H26_4 H 0.3512 0.0588 0.8889
Co9_4 Co 0.07053(4) 0.24576(14) 0.99459(7)
O21_4 O 0.05417(17) 0.3935(7) 0.8393(3)
O22_4 O 0.14345(17) 0.4000(6) 0.8373(3)
C1_4 C 0.0163(3) 0.7523(9) 0.0403(4)
C3_4 C 0.0329(3) 0.8543(10) 0.0214(5)
H13_4 H 0.0216 0.9280 0.0289
C6_4 C 0.0321(3) 0.6415(9) 0.0282(4)
H15_4 H 0.0208 0.5713 0.0412
O28_4 O 0.11975(19) 0.2755(6) 0.0506(3)
N8_4 N 0.0463(2) 0.2190(7) 0.0839(4)
Co4_4 Co 0.12871(4) 0.55394(15) 0.87288(8)
O1_4 O 0.11113(18) 0.5069(6) 0.9568(3)
O2_4 O 0.06177(18) 0.4268(6) 0.9970(3)
H1_4 H 0.1608 0.3616 0.8685
O6_4 O 0.18383(18) 0.6021(6) 0.7694(3)
O9_4 O 0.07331(18) 0.5826(6) 0.8395(3)
O11_4 O 0.1471(2) 0.6978(6) 0.8317(4)
O14_4 O 0.1092(2) 0.9648(6) 0.9353(3)
H7_4 H 0.2849 0.8583 0.8273
H8_4 H 0.3233 0.8617 0.8533
H9_4 H 0.2668 0.9826 0.6614
H10_4 H 0.2672 0.8543 0.6619
C2_4 C 0.0834(3) 0.9684(10) 0.9724(5)
C5_4 C 0.0664(3) 0.8515(9) 0.9908(5)
C9_4 C 0.0803(3) 0.5156(10) 0.9815(5)
C10_4 C 0.0647(3) 0.6361(9) 0.9964(5)
C11_4 C 0.0818(3) 0.7413(9) 0.9788(4)
H16_4 H 0.1040 0.7375 0.9584
H18_4 H 0.0192 0.6954 0.8878
C14_4 C 0.1712(3) 0.6946(10) 0.7917(5)
C15_4 C 0.0477(3) 0.5019(11) 0.8390(5)
C17_4 C 0.0075(3) 0.5404(10) 0.8416(5)
C19_4 C 0.2328(3) 0.9185(9) 0.7172(4)
C20_4 C 0.1861(3) 0.8101(9) 0.7709(5)
O20_4 O 0.1850(2) 0.5540(10) 0.9290(4)
H19_4 H 0.1932 0.4818 0.9326
H20_4 H 0.1815 0.5755 0.9658
C22_4 C 0.1683(3) 0.9184(9) 0.7820(5)
H21_4 H 0.1463 0.9197 0.8031
C23_4 C 0.2187(3) 0.8117(10) 0.7377(5)
H22_4 H 0.2308 0.7400 0.7294
H24_4 H 0.2407 0.9751 0.8605
N5_4 N 0.0190(2) 0.2364(7) 0.9324(4)
N1_4 N 0.9810(2) 0.7636(7) 0.0676(4)
H3_4 H 0.9810 0.8336 0.0873
H4_4 H 0.9797 0.7060 0.0956
N4_4 N 0.9537(2) 0.7810(7) 0.9161(4)
H11_4 H 0.9376 0.8272 0.8934
H12_4 H 0.9751 0.8229 0.9231
C8_4 C 0.9625(3) 0.6792(10) 0.8790(5)
C12_4 C 0.9780(3) 0.4692(10) 0.8189(4)
H17_4 H 0.9831 0.3962 0.8005
C13_4 C 0.9994(3) 0.6465(10) 0.8721(5)
C18_4 C 0.9082(3) 0.4285(11) 0.7933(5)
C21_4 C 0.9409(3) 0.5048(10) 0.8231(5)
C26_4 C 0.9329(3) 0.6091(10) 0.8513(5)
H23_4 H 0.9078 0.6342 0.8523
Co1 Co 0.67428(4) 0.07899(14) 0.26025(7)
O2_5 O 0.56177(18) 0.0732(6) 0.4970(3)
O3 O 0.55417(17) 0.1065(7) 0.3393(3)
O4 O 0.64345(17) 0.1000(6) 0.3373(3)
H1_5 H 0.6608 0.1384 0.3685
O12_3 O 0.41587(18) 0.1742(7) 0.2726(3)
O13_3 O 0.37630(19) 0.0260(6) 0.2899(3)
C12_5 C 0.4780(3) 0.0308(10) 0.3189(4)
H17_5 H 0.4831 0.1038 0.3005
C18_5 C 0.4082(3) 0.0715(11) 0.2933(5)
H19_5 H 0.6932 0.0182 0.4326
Co7_2 Co 0.32572(4) 0.07899(14) 0.23975(7)
Co12 Co 0.59788(4) 0.22105(15) 0.31979(8)
Co13_3 Co 0.40212(4) 0.22105(15) 0.18021(8)
O23 O 0.60422(17) 0.2532(6) 0.4171(3)
O24 O 0.67820(19) 0.2648(6) 0.2543(3)
O25 O 0.57182(18) 0.4403(6) 0.4964(3)
O27_3 O 0.62370(19) 0.0260(6) 0.2101(3)
N6_3 N 0.6942(2) 0.0965(8) 0.1691(4)
N7_3 N 0.7323(2) 0.0812(7) 0.3139(4)
Co4_5 Co 0.62871(4) 0.94606(15) 0.37288(8)
O1_5 O 0.61113(18) 0.9931(6) 0.4568(3)
H2_5 H 0.6211 0.1860 0.4291
O6_5 O 0.68383(18) 0.8979(6) 0.2694(3)
O7_5 O 0.63376(19) 0.3587(6) 0.3027(3)
O9_5 O 0.57331(18) 0.9174(6) 0.3395(3)
O11_5 O 0.6471(2) 0.8022(6) 0.3317(4)
O14_5 O 0.6092(2) 0.5352(6) 0.4353(3)
O17_5 O 0.6880(2) 0.4327(7) 0.4101(3)
O18_5 O 0.6982(2) 0.2365(8) 0.4162(4)
H3_5 H 0.4810 0.6664 0.5873
H4_5 H 0.4797 0.7940 0.5956
O19_5 O 0.5549(2) 0.3522(7) 0.3069(4)
H5_5 H 0.5490 0.3945 0.2738
H6_5 H 0.5389 0.3764 0.3330
N2_3 N 0.8058(2) 0.5965(8) 0.3309(4)
H7_5 H 0.7849 0.6417 0.3273
H8_5 H 0.8233 0.6383 0.3533
N3_3 N 0.7677(2) 0.5812(7) 0.1861(4)
H9_5 H 0.7668 0.5174 0.1614
H10_5 H 0.7672 0.6457 0.1619
H11_5 H 0.4376 0.6728 0.3934
H12_5 H 0.4751 0.6771 0.4231
C1_5 C 0.5163(3) 0.7477(9) 0.5403(4)
C2_5 C 0.5834(3) 0.5316(10) 0.4724(5)
C3_5 C 0.5329(3) 0.6457(10) 0.5214(5)
H13_5 H 0.5216 0.5720 0.5289
C4_5 C 0.7153(3) 0.4744(9) 0.2280(5)
H14_5 H 0.7246 0.4025 0.2133
C5_5 C 0.5664(3) 0.6485(9) 0.4908(5)
C6_5 C 0.5321(3) 0.8585(9) 0.5282(4)
H15_5 H 0.5208 0.9287 0.5412
C7_5 C 0.6634(3) 0.3559(10) 0.2735(5)
C8_5 C 0.4625(3) 0.8208(10) 0.3790(5)
C9_5 C 0.5803(3) 0.9844(10) 0.4815(5)
C10_5 C 0.5647(3) 0.8639(9) 0.4964(5)
C11_5 C 0.5818(3) 0.7587(9) 0.4788(4)
H16_5 H 0.6040 0.7625 0.4584
C13_5 C 0.4994(3) 0.8535(10) 0.3721(5)
H18_5 H 0.5192 0.8046 0.3878
C14_5 C 0.6712(3) 0.8054(10) 0.2917(5)
C15_5 C 0.5477(3) 0.9981(11) 0.3390(5)
C16_5 C 0.6833(3) 0.4763(9) 0.2615(5)
C17_5 C 0.5075(3) 0.9596(10) 0.3416(5)
C19_5 C 0.7328(3) 0.5815(9) 0.2172(4)
C20_5 C 0.6861(3) 0.6899(9) 0.2709(5)
C21_5 C 0.4409(3) 0.9952(10) 0.3231(5)
O20_5 O 0.6850(2) 0.9460(10) 0.4290(4)
H20_5 H 0.6815 0.9245 0.4658
C22_5 C 0.6683(3) 0.5816(9) 0.2820(5)
H21_5 H 0.6463 0.5803 0.3031
C23_5 C 0.7187(3) 0.6883(10) 0.2377(5)
H22_5 H 0.7308 0.7600 0.2294
C24_5 C 0.7100(3) 0.3419(13) 0.4092(5)
C25_5 C 0.8159(3) 0.3165(11) 0.4201(5)
C26_5 C 0.4329(3) 0.8909(10) 0.3513(5)
H23_5 H 0.4078 0.8658 0.3523
C27_5 C 0.7509(3) 0.3654(11) 0.4029(5)
C28_5 C 0.8477(3) 0.2355(11) 0.4494(5)
C29_5 C 0.7972(3) 0.4959(11) 0.3657(5)
C30_5 C 0.7598(3) 0.4713(11) 0.3740(5)
H24_5 H 0.7407 0.5249 0.3605
C31_5 C 0.7780(3) 0.2880(12) 0.4254(5)
H25_5 H 0.7714 0.2169 0.4442
C32_5 C 0.8257(3) 0.4210(11) 0.3913(5)
H26_5 H 0.8512 0.4412 0.3889
Co8_3 Co 0.82572(4) 0.57899(14) 0.23975(7)
O26_3 O 0.58413(18) 0.1742(7) 0.2274(3)
O2_6 O 0.43823(18) 0.0732(6) 0.0030(3)
O3_2 O 0.44583(17) 0.1065(7) 0.1607(3)
O4_2 O 0.35655(17) 0.1000(6) 0.1627(3)
H1_6 H 0.3392 0.1384 0.1315
C12_6 C 0.5220(3) 0.0308(10) 0.1811(4)
H17_6 H 0.5169 0.1038 0.1995
C18_6 C 0.5918(3) 0.0715(11) 0.2067(5)
H19_6 H 0.3068 0.0182 0.0674
O23_2 O 0.39578(17) 0.2532(6) 0.0829(3)
O24_2 O 0.32180(19) 0.2648(6) 0.2457(3)
O25_2 O 0.42818(18) 0.4403(6) 0.0036(3)
N6_4 N 0.3058(2) 0.0965(8) 0.3309(4)
N7_4 N 0.2677(2) 0.0812(7) 0.1861(4)
Co4_6 Co 0.37129(4) 0.94606(15) 0.12712(8)
O1_6 O 0.38887(18) 0.9931(6) 0.0432(3)
H2_6 H 0.3789 0.1860 0.0709
O6_6 O 0.31617(18) 0.8979(6) 0.2306(3)
O7_6 O 0.36624(19) 0.3587(6) 0.1973(3)
O9_6 O 0.42669(18) 0.9174(6) 0.1605(3)
O11_6 O 0.3529(2) 0.8022(6) 0.1683(4)
O14_6 O 0.3908(2) 0.5352(6) 0.0647(3)
O17_6 O 0.3120(2) 0.4327(7) 0.0899(3)
O18_6 O 0.3018(2) 0.2365(8) 0.0838(4)
O19_6 O 0.4451(2) 0.3522(7) 0.1931(4)
H5_6 H 0.4510 0.3945 0.2262
H6_6 H 0.4611 0.3764 0.1670
N2_4 N 0.1942(2) 0.5965(8) 0.1691(4)
H7_6 H 0.2151 0.6417 0.1727
H8_6 H 0.1767 0.6383 0.1467
N3_4 N 0.2323(2) 0.5812(7) 0.3139(4)
H9_6 H 0.2332 0.5174 0.3386
H10_6 H 0.2328 0.6457 0.3381
H11_6 H 0.5624 0.6728 0.1066
H12_6 H 0.5249 0.6771 0.0769
C2_6 C 0.4166(3) 0.5316(10) 0.0276(5)
C4_6 C 0.2847(3) 0.4744(9) 0.2720(5)
H14_6 H 0.2754 0.4025 0.2867
C5_6 C 0.4336(3) 0.6485(9) 0.0092(5)
C7_6 C 0.3366(3) 0.3559(10) 0.2265(5)
C8_6 C 0.5375(3) 0.8208(10) 0.1210(5)
C9_6 C 0.4197(3) 0.9844(10) 0.0185(5)
C10_6 C 0.4353(3) 0.8639(9) 0.0036(5)
C11_6 C 0.4182(3) 0.7587(9) 0.0212(4)
H16_6 H 0.3960 0.7625 0.0416
C13_6 C 0.5006(3) 0.8535(10) 0.1279(5)
H18_6 H 0.4808 0.8046 0.1122
C14_6 C 0.3288(3) 0.8054(10) 0.2083(5)
C15_6 C 0.4523(3) 0.9981(11) 0.1610(5)
C16_6 C 0.3167(3) 0.4763(9) 0.2385(5)
C17_6 C 0.4925(3) 0.9596(10) 0.1584(5)
C19_6 C 0.2672(3) 0.5815(9) 0.2828(4)
C20_6 C 0.3139(3) 0.6899(9) 0.2291(5)
C21_6 C 0.5591(3) 0.9952(10) 0.1769(5)
O20_6 O 0.3150(2) 0.9460(10) 0.0710(4)
H20_6 H 0.3185 0.9245 0.0342
C22_6 C 0.3317(3) 0.5816(9) 0.2180(5)
H21_6 H 0.3537 0.5803 0.1969
C23_6 C 0.2813(3) 0.6883(10) 0.2623(5)
H22_6 H 0.2692 0.7600 0.2706
C24_6 C 0.2900(3) 0.3419(13) 0.0908(5)
C25_6 C 0.1841(3) 0.3165(11) 0.0799(5)
C26_6 C 0.5671(3) 0.8909(10) 0.1487(5)
H23_6 H 0.5922 0.8658 0.1477
C27_6 C 0.2491(3) 0.3654(11) 0.0971(5)
C28_6 C 0.1523(3) 0.2355(11) 0.0506(5)
C29_6 C 0.2028(3) 0.4959(11) 0.1343(5)
C30_6 C 0.2402(3) 0.4713(11) 0.1260(5)
H24_6 H 0.2593 0.5249 0.1395
C31_6 C 0.2220(3) 0.2880(12) 0.0746(5)
H25_6 H 0.2286 0.2169 0.0558
C32_6 C 0.1743(3) 0.4210(11) 0.1087(5)
H26_6 H 0.1488 0.4412 0.1111
Co8_4 Co 0.17428(4) 0.57899(14) 0.26025(7)
H3_6 H 0.5190 0.6664 0.9127
H4_6 H 0.5203 0.7940 0.9044
C1_6 C 0.4837(3) 0.7477(9) 0.9597(4)
C3_6 C 0.4671(3) 0.6457(10) 0.9786(5)
H13_6 H 0.4784 0.5720 0.9711
C6_6 C 0.4679(3) 0.8585(9) 0.9718(4)
H15_6 H 0.4792 0.9287 0.9588
Co4_7 Co 0.12871(4) 0.44606(15) 0.37288(8)
O1_7 O 0.11113(18) 0.4931(6) 0.4568(3)
O2_7 O 0.06177(18) 0.5732(6) 0.4970(3)
O3_3 O 0.05417(17) 0.6065(7) 0.3393(3)
O4_3 O 0.14345(17) 0.6000(6) 0.3373(3)
H1_7 H 0.1608 0.6384 0.3685
O6_7 O 0.18383(18) 0.3979(6) 0.2694(3)
O9_7 O 0.07331(18) 0.4174(6) 0.3395(3)
O11_7 O 0.1471(2) 0.3022(6) 0.3317(4)
O14_7 O 0.1092(2) 0.0352(6) 0.4353(3)
H7_7 H 0.2849 0.1417 0.3273
H8_7 H 0.3233 0.1383 0.3533
H9_7 H 0.2668 0.0174 0.1614
H10_7 H 0.2672 0.1457 0.1619
C1_7 C 0.0163(3) 0.2477(9) 0.5403(4)
C2_7 C 0.0834(3) 0.0316(10) 0.4724(5)
C3_7 C 0.0329(3) 0.1457(10) 0.5214(5)
H13_7 H 0.0216 0.0720 0.5289
C5_7 C 0.0664(3) 0.1485(9) 0.4908(5)
C6_7 C 0.0321(3) 0.3585(9) 0.5282(4)
H15_7 H 0.0208 0.4287 0.5412
C9_7 C 0.0803(3) 0.4844(10) 0.4815(5)
C10_7 C 0.0647(3) 0.3639(9) 0.4964(5)
C11_7 C 0.0818(3) 0.2587(9) 0.4788(4)
H16_7 H 0.1040 0.2625 0.4584
H18_7 H 0.0192 0.3046 0.3878
C14_7 C 0.1712(3) 0.3054(10) 0.2917(5)
C15_7 C 0.0477(3) 0.4981(11) 0.3390(5)
C17_7 C 0.0075(3) 0.4596(10) 0.3416(5)
C19_7 C 0.2328(3) 0.0815(9) 0.2172(4)
C20_7 C 0.1861(3) 0.1899(9) 0.2709(5)
O20_7 O 0.1850(2) 0.4460(10) 0.4290(4)
H19_7 H 0.1932 0.5182 0.4326
H20_7 H 0.1815 0.4245 0.4658
C22_7 C 0.1683(3) 0.0816(9) 0.2820(5)
H21_7 H 0.1463 0.0803 0.3031
C23_7 C 0.2187(3) 0.1883(10) 0.2377(5)
H22_7 H 0.2308 0.2600 0.2294
H24_7 H 0.2407 0.0249 0.3605
Co12_2 Co 0.09788(4) 0.72105(15) 0.31979(8)
O23_3 O 0.10422(17) 0.7532(6) 0.4171(3)
O24_3 O 0.17820(19) 0.7648(6) 0.2543(3)
O25_3 O 0.07182(18) 0.9403(6) 0.4964(3)
O27_4 O 0.12370(19) 0.5260(6) 0.2101(3)
H2_7 H 0.1211 0.6860 0.4291
O7_7 O 0.13376(19) 0.8587(6) 0.3027(3)
O17_7 O 0.1880(2) 0.9327(7) 0.4101(3)
O18_7 O 0.1982(2) 0.7365(8) 0.4162(4)
O19_7 O 0.0549(2) 0.8522(7) 0.3069(4)
H5_7 H 0.0490 0.8945 0.2738
H6_7 H 0.0389 0.8764 0.3330
C4_7 C 0.2153(3) 0.9744(9) 0.2280(5)
H14_7 H 0.2246 0.9025 0.2133
C7_7 C 0.1634(3) 0.8559(10) 0.2735(5)
C16_7 C 0.1833(3) 0.9763(9) 0.2615(5)
C24_7 C 0.2100(3) 0.8419(13) 0.4092(5)
C25_7 C 0.3159(3) 0.8165(11) 0.4201(5)
C27_7 C 0.2509(3) 0.8654(11) 0.4029(5)
C28_7 C 0.3477(3) 0.7355(11) 0.4494(5)
C29_7 C 0.2972(3) 0.9959(11) 0.3657(5)
C30_7 C 0.2598(3) 0.9713(11) 0.3740(5)
C31_7 C 0.2780(3) 0.7880(12) 0.4254(5)
H25_7 H 0.2714 0.7169 0.4442
C32_7 C 0.3257(3) 0.9210(11) 0.3913(5)
H26_7 H 0.3512 0.9412 0.3889
O26_4 O 0.08413(18) 0.6742(7) 0.2274(3)
O12_4 O 0.91587(18) 0.6742(7) 0.2726(3)
O13_4 O 0.87630(19) 0.5260(6) 0.2899(3)
H3_7 H 0.9810 0.1664 0.5873
H4_7 H 0.9797 0.2940 0.5956
H11_7 H 0.9376 0.1728 0.3934
H12_7 H 0.9751 0.1771 0.4231
C8_7 C 0.9625(3) 0.3208(10) 0.3790(5)
C12_7 C 0.9780(3) 0.5308(10) 0.3189(4)
H17_7 H 0.9831 0.6038 0.3005
C13_7 C 0.9994(3) 0.3535(10) 0.3721(5)
C18_7 C 0.9082(3) 0.5715(11) 0.2933(5)
C21_7 C 0.9409(3) 0.4952(10) 0.3231(5)
C26_7 C 0.9329(3) 0.3909(10) 0.3513(5)
H23_7 H 0.9078 0.3658 0.3523
Co13_4 Co 0.90212(4) 0.72105(15) 0.18021(8)
H11_8 H 0.0624 0.1728 0.1066
H12_8 H 0.0249 0.1771 0.0769
C8_8 C 0.0375(3) 0.3208(10) 0.1210(5)
C12_8 C 0.0220(3) 0.5308(10) 0.1811(4)
H17_8 H 0.0169 0.6038 0.1995
C13_8 C 0.0006(3) 0.3535(10) 0.1279(5)
C18_8 C 0.0918(3) 0.5715(11) 0.2067(5)
C21_8 C 0.0591(3) 0.4952(10) 0.1769(5)
C26_8 C 0.0671(3) 0.3909(10) 0.1487(5)
H23_8 H 0.0922 0.3658 0.1477
H3_8 H 0.0190 0.1664 0.9127
H4_8 H 0.0203 0.2940 0.9044
Co4_8 Co 0.87129(4) 0.44606(15) 0.12712(8)
O1_8 O 0.88887(18) 0.4931(6) 0.0432(3)
O2_8 O 0.93823(18) 0.5732(6) 0.0030(3)
O3_4 O 0.94583(17) 0.6065(7) 0.1607(3)
O4_4 O 0.85655(17) 0.6000(6) 0.1627(3)
H1_8 H 0.8392 0.6384 0.1315
O6_8 O 0.81617(18) 0.3979(6) 0.2306(3)
O9_8 O 0.92669(18) 0.4174(6) 0.1605(3)
O11_8 O 0.8529(2) 0.3022(6) 0.1683(4)
O14_8 O 0.8908(2) 0.0352(6) 0.0647(3)
H7_8 H 0.7151 0.1417 0.1727
H8_8 H 0.6767 0.1383 0.1467
H9_8 H 0.7332 0.0174 0.3386
H10_8 H 0.7328 0.1457 0.3381
C2_8 C 0.9166(3) 0.0316(10) 0.0276(5)
C5_8 C 0.9336(3) 0.1485(9) 0.0092(5)
C9_8 C 0.9197(3) 0.4844(10) 0.0185(5)
C10_8 C 0.9353(3) 0.3639(9) 0.0036(5)
C11_8 C 0.9182(3) 0.2587(9) 0.0212(4)
H16_8 H 0.8960 0.2625 0.0416
H18_8 H 0.9808 0.3046 0.1122
C14_8 C 0.8288(3) 0.3054(10) 0.2083(5)
C15_8 C 0.9523(3) 0.4981(11) 0.1610(5)
C17_8 C 0.9925(3) 0.4596(10) 0.1584(5)
C19_8 C 0.7672(3) 0.0815(9) 0.2828(4)
C20_8 C 0.8139(3) 0.1899(9) 0.2291(5)
O20_8 O 0.8150(2) 0.4460(10) 0.0710(4)
H19_8 H 0.8068 0.5182 0.0674
H20_8 H 0.8185 0.4245 0.0342
C22_8 C 0.8317(3) 0.0816(9) 0.2180(5)
H21_8 H 0.8537 0.0803 0.1969
C23_8 C 0.7813(3) 0.1883(10) 0.2623(5)
H22_8 H 0.7692 0.2600 0.2706
H24_8 H 0.7593 0.0249 0.1395
O23_4 O 0.89578(17) 0.7532(6) 0.0829(3)
O24_4 O 0.82180(19) 0.7648(6) 0.2457(3)
O25_4 O 0.92818(18) 0.9403(6) 0.0036(3)
C1_8 C 0.9837(3) 0.2477(9) 0.9597(4)
C3_8 C 0.9671(3) 0.1457(10) 0.9786(5)
H13_8 H 0.9784 0.0720 0.9711
C6_8 C 0.9679(3) 0.3585(9) 0.9718(4)
H15_8 H 0.9792 0.4287 0.9588
H2_8 H 0.8789 0.6860 0.0709
O7_8 O 0.86624(19) 0.8587(6) 0.1973(3)
O17_8 O 0.8120(2) 0.9327(7) 0.0899(3)
O18_8 O 0.8018(2) 0.7365(8) 0.0838(4)
O19_8 O 0.9451(2) 0.8522(7) 0.1931(4)
H5_8 H 0.9510 0.8945 0.2262
H6_8 H 0.9611 0.8764 0.1670
C4_8 C 0.7847(3) 0.9744(9) 0.2720(5)
H14_8 H 0.7754 0.9025 0.2867
C7_8 C 0.8366(3) 0.8559(10) 0.2265(5)
C16_8 C 0.8167(3) 0.9763(9) 0.2385(5)
C24_8 C 0.7900(3) 0.8419(13) 0.0908(5)
C25_8 C 0.6841(3) 0.8165(11) 0.0799(5)
C27_8 C 0.7491(3) 0.8654(11) 0.0971(5)
C28_8 C 0.6523(3) 0.7355(11) 0.0506(5)
C29_8 C 0.7028(3) 0.9959(11) 0.1343(5)
C30_8 C 0.7402(3) 0.9713(11) 0.1260(5)
C31_8 C 0.7220(3) 0.7880(12) 0.0746(5)
H25_8 H 0.7286 0.7169 0.0558
C32_8 C 0.6743(3) 0.9210(11) 0.1087(5)
H26_8 H 0.6488 0.9412 0.1111
loop_
_geom_bond_atom_site_label_1
_geom_bond_atom_site_label_2
_geom_bond_site_symmetry_1
_geom_bond_site_symmetry_2
Co3 O5 1_555 1_555
Co4 O1 1_555 1_555
Co5 O5 1_555 1_555
O1 C9 1_555 1_555
O5 H2 1_555 1_555
O7 Co3 1_555 1_555
O8 C7 1_555 1_555
O9 Co4 1_555 1_555
O10 C2 1_555 1_555
O11 Co4 1_555 1_555
O14 Co5 1_555 1_555
O15 C28 1_555 1_555
O16 C28 1_555 1_555
O17 Co5 1_555 1_555
O18 C24 1_555 1_555
N1 H3 1_555 1_555
H4 N1 1_555 1_555
O19 Co3 1_555 1_555
H5 O19 1_555 1_555
H6 O19 1_555 1_555
N2 H7 1_555 1_555
H8 N2 1_555 1_555
N3 H9 1_555 1_555
H10 N3 1_555 1_555
N4 H11 1_555 1_555
H12 N4 1_555 1_555
C1 N1 1_555 1_555
C2 O14 1_555 1_555
C3 C1 1_555 1_555
H13 C3 1_555 1_555
C4 H14 1_555 1_555
C5 C2 1_555 1_555
C6 C1 1_555 1_555
H15 C6 1_555 1_555
C7 O7 1_555 1_555
C8 N4 1_555 1_555
C9 C10 1_555 1_555
C10 C6 1_555 1_555
C11 C5 1_555 1_555
H16 C11 1_555 1_555
C13 C8 1_555 1_555
H18 C13 1_555 1_555
C14 O6 1_555 1_555
C15 O9 1_555 1_555
C16 C4 1_555 1_555
C19 N3 1_555 1_555
C20 C14 1_555 1_555
O20 Co4 1_555 1_555
H20 O20 1_555 1_555
C22 C16 1_555 1_555
H21 C22 1_555 1_555
C23 C19 1_555 1_555
H22 C23 1_555 1_555
C24 O17 1_555 1_555
C25 C28 1_555 1_555
C26 C8 1_555 1_555
H23 C26 1_555 1_555
C27 C24 1_555 1_555
C29 N2 1_555 1_555
C30 C27 1_555 1_555
H24 C30 1_555 1_555
C31 C25 1_555 1_555
H25 C31 1_555 1_555
C32 C25 1_555 1_555
H26 C32 1_555 1_555
Co6 O8 1_555 1_555
Co8 N2 1_555 1_555
Co9 O5 1_555 1_555
Co10 N1 1_555 1_555
Co11 O15 1_555 1_555
Co14 O16 1_555 1_555
O21 Co3 1_555 1_555
O22 Co3 1_555 1_555
O26 Co3 1_555 1_555
O29 Co5 1_555 1_555
O10 Co9 1_555 1_555
O11 C14 1_555 1_555
N3 Co8 1_555 1_555
N4 Co10 1_555 1_555
C3 C5 1_555 1_555
C4 C19 1_555 1_555
C7 C16 1_555 1_555
C10 C11 1_555 1_555
C13 C17 1_555 1_555
C15 C17 1_555 1_555
C20 C22 1_555 1_555
C20 C23 1_555 1_555
C21 C26 1_555 1_555
C27 C31 1_555 1_555
C29 C30 1_555 1_555
C29 C32 1_555 1_555
Co6 O22 1_555 1_555
Co9 O2 1_555 1_555
H1 O22 1_555 1_555
O12 C18 1_555 1_555
O13 C18 1_555 1_555
C12 H17 1_555 1_555
Co7 O13 1_555 1_555
Co13 O12 1_555 1_555
O27 Co6 1_555 1_555
O28 Co9 1_555 1_555
N5 Co9 1_555 1_555
N6 Co6 1_555 1_555
N7 Co6 1_555 1_555
N8 Co9 1_555 1_555
N1_2 H3_2 1_555 1_555
H4_2 N1_2 1_555 1_555
C1_2 N1_2 1_555 1_555
C3_2 C1_2 1_555 1_555
H13_2 C3_2 1_555 1_555
C6_2 C1_2 1_555 1_555
H15_2 C6_2 1_555 1_555
Co10_2 N1_2 1_555 1_555
Co13 O5_2 1_555 1_555
Co4_2 O1_2 1_555 1_555
Co5_2 O5_2 1_555 1_555
O1_2 C9_2 1_555 1_555
O5_2 H2_2 1_555 1_555
O7_2 Co13 1_555 1_555
O8_2 C7_2 1_555 1_555
O9_2 Co4_2 1_555 1_555
O10_2 C2_2 1_555 1_555
O11_2 Co4_2 1_555 1_555
O14_2 Co5_2 1_555 1_555
O15_2 C28_2 1_555 1_555
O16_2 C28_2 1_555 1_555
O17_2 Co5_2 1_555 1_555
O18_2 C24_2 1_555 1_555
O19_2 Co13 1_555 1_555
H5_2 O19_2 1_555 1_555
H6_2 O19_2 1_555 1_555
N2_2 H7_2 1_555 1_555
H8_2 N2_2 1_555 1_555
N3_2 H9_2 1_555 1_555
H10_2 N3_2 1_555 1_555
N4_2 H11_2 1_555 1_555
H12_2 N4_2 1_555 1_555
C2_2 O14_2 1_555 1_555
C4_2 H14_2 1_555 1_555
C5_2 C2_2 1_555 1_555
C7_2 O7_2 1_555 1_555
C8_2 N4_2 1_555 1_555
C9_2 C10_2 1_555 1_555
C11_2 C5_2 1_555 1_555
H16_2 C11_2 1_555 1_555
C13_2 C8_2 1_555 1_555
H18_2 C13_2 1_555 1_555
C14_2 O6_2 1_555 1_555
C15_2 O9_2 1_555 1_555
C16_2 C4_2 1_555 1_555
C19_2 N3_2 1_555 1_555
C20_2 C14_2 1_555 1_555
O20_2 Co4_2 1_555 1_555
H20_2 O20_2 1_555 1_555
C22_2 C16_2 1_555 1_555
H21_2 C22_2 1_555 1_555
C23_2 C19_2 1_555 1_555
H22_2 C23_2 1_555 1_555
C24_2 O17_2 1_555 1_555
C25_2 C28_2 1_555 1_555
C26_2 C8_2 1_555 1_555
H23_2 C26_2 1_555 1_555
C27_2 C24_2 1_555 1_555
C29_2 N2_2 1_555 1_555
C30_2 C27_2 1_555 1_555
H24_2 C30_2 1_555 1_555
C31_2 C25_2 1_555 1_555
H25_2 C31_2 1_555 1_555
C32_2 C25_2 1_555 1_555
H26_2 C32_2 1_555 1_555
Co7 O8_2 1_555 1_555
Co8_2 N2_2 1_555 1_555
Co9_2 O5_2 1_555 1_555
O21_2 Co13 1_555 1_555
O22_2 Co13 1_555 1_555
O10_2 Co9_2 1_555 1_555
O11_2 C14_2 1_555 1_555
N3_2 Co8_2 1_555 1_555
C4_2 C19_2 1_555 1_555
C7_2 C16_2 1_555 1_555
C10_2 C11_2 1_555 1_555
C13_2 C17_2 1_555 1_555
C15_2 C17_2 1_555 1_555
C20_2 C22_2 1_555 1_555
C20_2 C23_2 1_555 1_555
C21_2 C26_2 1_555 1_555
C27_2 C31_2 1_555 1_555
C29_2 C30_2 1_555 1_555
C29_2 C32_2 1_555 1_555
Co7 O22_2 1_555 1_555
Co9_2 O2_2 1_555 1_555
H1_2 O22_2 1_555 1_555
O26 C18_2 1_555 1_555
O27 C18_2 1_555 1_555
C12_2 H17_2 1_555 1_555
N5_2 Co9_2 1_555 1_555
N6_2 Co7 1_555 1_555
N7_2 Co7 1_555 1_555
O12_2 C18_3 1_555 1_555
O13_2 C18_3 1_555 1_555
N1_3 H3_3 1_555 1_555
H4_3 N1_3 1_555 1_555
N4_3 H11_3 1_555 1_555
H12_3 N4_3 1_555 1_555
C8_3 N4_3 1_555 1_555
C12_3 H17_3 1_555 1_555
C13_3 C8_3 1_555 1_555
C18_3 C21_3 1_555 1_555
C21_3 C12_3 1_555 1_555
C26_3 C8_3 1_555 1_555
H23_3 C26_3 1_555 1_555
Co8 O13_2 1_555 1_555
Co11 N1_3 1_555 1_555
Co13_2 O12_2 1_555 1_555
N4_3 Co11 1_555 1_555
C21_3 C26_3 1_555 1_555
Co3_2 O5_3 1_555 1_555
Co5_3 O5_3 1_555 1_555
O5_3 H2_3 1_555 1_555
O7_3 Co3_2 1_555 1_555
O8_3 C7_3 1_555 1_555
O15_3 C28_3 1_555 1_555
O16_3 C28_3 1_555 1_555
O17_3 Co5_3 1_555 1_555
O18_3 C24_3 1_555 1_555
O19_3 Co3_2 1_555 1_555
H5_3 O19_3 1_555 1_555
H6_3 O19_3 1_555 1_555
C4_3 H14_3 1_555 1_555
C7_3 O7_3 1_555 1_555
C16_3 C4_3 1_555 1_555
C24_3 O17_3 1_555 1_555
C25_3 C28_3 1_555 1_555
C27_3 C24_3 1_555 1_555
C30_3 C27_3 1_555 1_555
C31_3 C25_3 1_555 1_555
H25_3 C31_3 1_555 1_555
C32_3 C25_3 1_555 1_555
H26_3 C32_3 1_555 1_555
Co8_2 O8_3 1_555 1_555
Co9_3 O5_3 1_555 1_555
Co10 O15_3 1_555 1_555
Co14_3 O16_3 1_555 1_555
O21_3 Co3_2 1_555 1_555
O22_3 Co3_2 1_555 1_555
O26_2 Co3_2 1_555 1_555
O29_3 Co5_3 1_555 1_555
O10_3 Co9_3 1_555 1_555
C7_3 C16_3 1_555 1_555
C27_3 C31_3 1_555 1_555
C29_3 C30_3 1_555 1_555
C29_3 C32_3 1_555 1_555
Co8_2 O22_3 1_555 1_555
Co9_3 O2_3 1_555 1_555
Co4_3 O1_3 1_555 1_555
O1_3 C9_3 1_555 1_555
O2_3 C9_3 1_555 1_555
O21_3 C15_3 1_555 1_555
O22_3 Co4_3 1_555 1_555
H1_3 O22_3 1_555 1_555
O6_3 Co8_2 1_555 1_555
O9_3 Co4_3 1_555 1_555
O11_3 Co4_3 1_555 1_555
N6_2 H7_3 1_555 1_555
H8_3 N6_2 1_555 1_555
N7_2 H9_3 1_555 1_555
H10_3 N7_2 1_555 1_555
C2_3 O14_3 1_555 1_555
C3_3 C1_3 1_555 1_555
H13_3 C3_3 1_555 1_555
C5_3 C2_3 1_555 1_555
C6_3 C1_3 1_555 1_555
H15_3 C6_3 1_555 1_555
C9_3 C10_3 1_555 1_555
C10_3 C6_3 1_555 1_555
C11_3 C5_3 1_555 1_555
H16_3 C11_3 1_555 1_555
C14_3 O6_3 1_555 1_555
C15_3 O9_3 1_555 1_555
C19_3 N7_2 1_555 1_555
C20_3 C14_3 1_555 1_555
O20_3 Co4_3 1_555 1_555
H19_3 O20_3 1_555 1_555
H20_3 O20_3 1_555 1_555
H21_3 C22_3 1_555 1_555
C23_3 C19_3 1_555 1_555
H22_3 C23_3 1_555 1_555
O27_2 Co8_2 1_555 1_555
O28_3 Co9_3 1_555 1_555
N5_3 Co9_3 1_555 1_555
N8_3 Co9_3 1_555 1_555
O11_3 C14_3 1_555 1_555
C3_3 C5_3 1_555 1_555
C10_3 C11_3 1_555 1_555
C15_3 C17_3 1_555 1_555
C20_3 C22_3 1_555 1_555
C20_3 C23_3 1_555 1_555
Co13_2 O5_4 1_555 1_555
Co5_4 O5_4 1_555 1_555
O5_4 H2_4 1_555 1_555
O7_4 Co13_2 1_555 1_555
O8_4 C7_4 1_555 1_555
O15_4 C28_4 1_555 1_555
O16_4 C28_4 1_555 1_555
O17_4 Co5_4 1_555 1_555
O18_4 C24_4 1_555 1_555
O19_4 Co13_2 1_555 1_555
H5_4 O19_4 1_555 1_555
H6_4 O19_4 1_555 1_555
C4_4 H14_4 1_555 1_555
C7_4 O7_4 1_555 1_555
C16_4 C4_4 1_555 1_555
C24_4 O17_4 1_555 1_555
C25_4 C28_4 1_555 1_555
C27_4 C24_4 1_555 1_555
C30_4 C27_4 1_555 1_555
C31_4 C25_4 1_555 1_555
H25_4 C31_4 1_555 1_555
C32_4 C25_4 1_555 1_555
H26_4 C32_4 1_555 1_555
Co8 O8_4 1_555 1_555
Co9_4 O5_4 1_555 1_555
O21_4 Co13_2 1_555 1_555
O22_4 Co13_2 1_555 1_555
O10_4 Co9_4 1_555 1_555
C7_4 C16_4 1_555 1_555
C27_4 C31_4 1_555 1_555
C29_4 C30_4 1_555 1_555
C29_4 C32_4 1_555 1_555
Co8 O22_4 1_555 1_555
C3_4 C1_4 1_555 1_555
H13_4 C3_4 1_555 1_555
C6_4 C1_4 1_555 1_555
H15_4 C6_4 1_555 1_555
Co9_4 O2_4 1_555 1_555
Co4_4 O1_4 1_555 1_555
O1_4 C9_4 1_555 1_555
O2_4 C9_4 1_555 1_555
O21_4 C15_4 1_555 1_555
O22_4 Co4_4 1_555 1_555
H1_4 O22_4 1_555 1_555
O6_4 Co8 1_555 1_555
O9_4 Co4_4 1_555 1_555
O11_4 Co4_4 1_555 1_555
N6 H7_4 1_555 1_555
H8_4 N6 1_555 1_555
N7 H9_4 1_555 1_555
H10_4 N7 1_555 1_555
C2_4 O14_4 1_555 1_555
C5_4 C2_4 1_555 1_555
C9_4 C10_4 1_555 1_555
C11_4 C5_4 1_555 1_555
H16_4 C11_4 1_555 1_555
C14_4 O6_4 1_555 1_555
C15_4 O9_4 1_555 1_555
C19_4 N7 1_555 1_555
C20_4 C14_4 1_555 1_555
O20_4 Co4_4 1_555 1_555
H19_4 O20_4 1_555 1_555
H20_4 O20_4 1_555 1_555
H21_4 C22_4 1_555 1_555
C23_4 C19_4 1_555 1_555
H22_4 C23_4 1_555 1_555
N5_4 Co9_4 1_555 1_555
O11_4 C14_4 1_555 1_555
C10_4 C11_4 1_555 1_555
C15_4 C17_4 1_555 1_555
C20_4 C22_4 1_555 1_555
C20_4 C23_4 1_555 1_555
N1_4 H3_4 1_555 1_555
H4_4 N1_4 1_555 1_555
Co11_2 N1_4 1_555 1_555
O26_2 C18_4 1_555 1_555
O27_2 C18_4 1_555 1_555
N4_4 H11_4 1_555 1_555
H12_4 N4_4 1_555 1_555
C8_4 N4_4 1_555 1_555
C12_4 H17_4 1_555 1_555
C13_4 C8_4 1_555 1_555
C18_4 C21_4 1_555 1_555
C21_4 C12_4 1_555 1_555
C26_4 C8_4 1_555 1_555
H23_4 C26_4 1_555 1_555
C21_4 C26_4 1_555 1_555
Co1 O4 1_555 1_555
Co10 O2_5 1_555 1_555
H1_5 O4 1_555 1_555
O12_3 C18_5 1_555 1_555
O13_3 C18_5 1_555 1_555
C12_5 H17_5 1_555 1_555
Co7_2 O13_3 1_555 1_555
Co12 O3 1_555 1_555
Co13_3 O12_3 1_555 1_555
O23 Co10 1_555 1_555
O24 Co1 1_555 1_555
O25 Co10 1_555 1_555
O27_3 Co1 1_555 1_555
N6_3 Co1 1_555 1_555
N7_3 Co1 1_555 1_555
O4 Co12 1_555 1_555
Co12 O23 1_555 1_555
Co4_5 O1_5 1_555 1_555
Co14_3 O23 1_555 1_555
O1_5 C9_5 1_555 1_555
O23 H2_5 1_555 1_555
O7_5 Co12 1_555 1_555
O24 C7_5 1_555 1_555
O9_5 Co4_5 1_555 1_555
O25 C2_5 1_555 1_555
O11_5 Co4_5 1_555 1_555
O14_5 Co14_3 1_555 1_555
O28_3 C28_5 1_555 1_555
O29_3 C28_5 1_555 1_555
O17_5 Co14_3 1_555 1_555
O18_5 C24_5 1_555 1_555
N5 H3_5 1_555 1_555
H4_5 N5 1_555 1_555
O19_5 Co12 1_555 1_555
H5_5 O19_5 1_555 1_555
H6_5 O19_5 1_555 1_555
N2_3 H7_5 1_555 1_555
H8_5 N2_3 1_555 1_555
N3_3 H9_5 1_555 1_555
H10_5 N3_3 1_555 1_555
N8 H11_5 1_555 1_555
H12_5 N8 1_555 1_555
C1_5 N5 1_555 1_555
C2_5 O14_5 1_555 1_555
C3_5 C1_5 1_555 1_555
H13_5 C3_5 1_555 1_555
C4_5 H14_5 1_555 1_555
C5_5 C2_5 1_555 1_555
C6_5 C1_5 1_555 1_555
H15_5 C6_5 1_555 1_555
C7_5 O7_5 1_555 1_555
C8_5 N8 1_555 1_555
C9_5 C10_5 1_555 1_555
C10_5 C6_5 1_555 1_555
C11_5 C5_5 1_555 1_555
H16_5 C11_5 1_555 1_555
C13_5 C8_5 1_555 1_555
H18_5 C13_5 1_555 1_555
C14_5 O6_5 1_555 1_555
C15_5 O9_5 1_555 1_555
C16_5 C4_5 1_555 1_555
C19_5 N3_3 1_555 1_555
C20_5 C14_5 1_555 1_555
O20_5 Co4_5 1_555 1_555
H20_5 O20_5 1_555 1_555
C22_5 C16_5 1_555 1_555
H21_5 C22_5 1_555 1_555
C23_5 C19_5 1_555 1_555
H22_5 C23_5 1_555 1_555
C24_5 O17_5 1_555 1_555
C25_5 C28_5 1_555 1_555
C26_5 C8_5 1_555 1_555
H23_5 C26_5 1_555 1_555
C27_5 C24_5 1_555 1_555
C29_5 N2_3 1_555 1_555
C30_5 C27_5 1_555 1_555
H24_5 C30_5 1_555 1_555
C31_5 C25_5 1_555 1_555
H25_5 C31_5 1_555 1_555
C32_5 C25_5 1_555 1_555
H26_5 C32_5 1_555 1_555
Co8_3 N2_3 1_555 1_555
O26_3 Co12 1_555 1_555
O11_5 C14_5 1_555 1_555
N3_3 Co8_3 1_555 1_555
C3_5 C5_5 1_555 1_555
C4_5 C19_5 1_555 1_555
C7_5 C16_5 1_555 1_555
C10_5 C11_5 1_555 1_555
C13_5 C17_5 1_555 1_555
C15_5 C17_5 1_555 1_555
C20_5 C22_5 1_555 1_555
C20_5 C23_5 1_555 1_555
C21_5 C26_5 1_555 1_555
C27_5 C31_5 1_555 1_555
C29_5 C30_5 1_555 1_555
C29_5 C32_5 1_555 1_555
Co7_2 O4_2 1_555 1_555
Co10_2 O2_6 1_555 1_555
H1_6 O4_2 1_555 1_555
O26_3 C18_6 1_555 1_555
O27_3 C18_6 1_555 1_555
C12_6 H17_6 1_555 1_555
Co13_3 O3_2 1_555 1_555
O23_2 Co10_2 1_555 1_555
O24_2 Co7_2 1_555 1_555
O25_2 Co10_2 1_555 1_555
N6_4 Co7_2 1_555 1_555
N7_4 Co7_2 1_555 1_555
O4_2 Co13_3 1_555 1_555
Co13_3 O23_2 1_555 1_555
Co4_6 O1_6 1_555 1_555
Co14_4 O23_2 1_555 1_555
O1_6 C9_6 1_555 1_555
O23_2 H2_6 1_555 1_555
O7_6 Co13_3 1_555 1_555
O24_2 C7_6 1_555 1_555
O9_6 Co4_6 1_555 1_555
O25_2 C2_6 1_555 1_555
O11_6 Co4_6 1_555 1_555
O14_6 Co14_4 1_555 1_555
O28_4 C28_6 1_555 1_555
O29_4 C28_6 1_555 1_555
O17_6 Co14_4 1_555 1_555
O18_6 C24_6 1_555 1_555
O19_6 Co13_3 1_555 1_555
H5_6 O19_6 1_555 1_555
H6_6 O19_6 1_555 1_555
N2_4 H7_6 1_555 1_555
H8_6 N2_4 1_555 1_555
N3_4 H9_6 1_555 1_555
H10_6 N3_4 1_555 1_555
N8_2 H11_6 1_555 1_555
H12_6 N8_2 1_555 1_555
C2_6 O14_6 1_555 1_555
C4_6 H14_6 1_555 1_555
C5_6 C2_6 1_555 1_555
C7_6 O7_6 1_555 1_555
C8_6 N8_2 1_555 1_555
C9_6 C10_6 1_555 1_555
C11_6 C5_6 1_555 1_555
H16_6 C11_6 1_555 1_555
C13_6 C8_6 1_555 1_555
H18_6 C13_6 1_555 1_555
C14_6 O6_6 1_555 1_555
C15_6 O9_6 1_555 1_555
C16_6 C4_6 1_555 1_555
C19_6 N3_4 1_555 1_555
C20_6 C14_6 1_555 1_555
O20_6 Co4_6 1_555 1_555
H20_6 O20_6 1_555 1_555
C22_6 C16_6 1_555 1_555
H21_6 C22_6 1_555 1_555
C23_6 C19_6 1_555 1_555
H22_6 C23_6 1_555 1_555
C24_6 O17_6 1_555 1_555
C25_6 C28_6 1_555 1_555
C26_6 C8_6 1_555 1_555
H23_6 C26_6 1_555 1_555
C27_6 C24_6 1_555 1_555
C29_6 N2_4 1_555 1_555
C30_6 C27_6 1_555 1_555
H24_6 C30_6 1_555 1_555
C31_6 C25_6 1_555 1_555
H25_6 C31_6 1_555 1_555
C32_6 C25_6 1_555 1_555
H26_6 C32_6 1_555 1_555
Co8_4 N2_4 1_555 1_555
O11_6 C14_6 1_555 1_555
N3_4 Co8_4 1_555 1_555
C4_6 C19_6 1_555 1_555
C7_6 C16_6 1_555 1_555
C10_6 C11_6 1_555 1_555
C13_6 C17_6 1_555 1_555
C15_6 C17_6 1_555 1_555
C20_6 C22_6 1_555 1_555
C20_6 C23_6 1_555 1_555
C21_6 C26_6 1_555 1_555
C27_6 C31_6 1_555 1_555
C29_6 C30_6 1_555 1_555
C29_6 C32_6 1_555 1_555
N5_2 H3_6 1_555 1_555
H4_6 N5_2 1_555 1_555
C1_6 N5_2 1_555 1_555
C3_6 C1_6 1_555 1_555
H13_6 C3_6 1_555 1_555
C6_6 C1_6 1_555 1_555
H15_6 C6_6 1_555 1_555
Co8_4 O4_3 1_555 1_555
Co11 O2_7 1_555 1_555
Co4_7 O1_7 1_555 1_555
O1_7 C9_7 1_555 1_555
O2_7 C9_7 1_555 1_555
O3_3 C15_7 1_555 1_555
O4_3 Co4_7 1_555 1_555
H1_7 O4_3 1_555 1_555
O6_7 Co8_4 1_555 1_555
O9_7 Co4_7 1_555 1_555
O11_7 Co4_7 1_555 1_555
N6_4 H7_7 1_555 1_555
H8_7 N6_4 1_555 1_555
N7_4 H9_7 1_555 1_555
H10_7 N7_4 1_555 1_555
C2_7 O14_7 1_555 1_555
C3_7 C1_7 1_555 1_555
H13_7 C3_7 1_555 1_555
C5_7 C2_7 1_555 1_555
C6_7 C1_7 1_555 1_555
H15_7 C6_7 1_555 1_555
C9_7 C10_7 1_555 1_555
C10_7 C6_7 1_555 1_555
C11_7 C5_7 1_555 1_555
H16_7 C11_7 1_555 1_555
C14_7 O6_7 1_555 1_555
C15_7 O9_7 1_555 1_555
C19_7 N7_4 1_555 1_555
C20_7 C14_7 1_555 1_555
O20_7 Co4_7 1_555 1_555
H19_7 O20_7 1_555 1_555
H20_7 O20_7 1_555 1_555
H21_7 C22_7 1_555 1_555
C23_7 C19_7 1_555 1_555
H22_7 C23_7 1_555 1_555
Co12_2 O3_3 1_555 1_555
O23_3 Co11 1_555 1_555
O24_3 Co8_4 1_555 1_555
O25_3 Co11 1_555 1_555
O27_4 Co8_4 1_555 1_555
O4_3 Co12_2 1_555 1_555
O11_7 C14_7 1_555 1_555
C3_7 C5_7 1_555 1_555
C10_7 C11_7 1_555 1_555
C15_7 C17_7 1_555 1_555
C20_7 C22_7 1_555 1_555
C20_7 C23_7 1_555 1_555
Co12_2 O23_3 1_555 1_555
Co14 O23_3 1_555 1_555
O23_3 H2_7 1_555 1_555
O7_7 Co12_2 1_555 1_555
O24_3 C7_7 1_555 1_555
O28 C28_7 1_555 1_555
O29 C28_7 1_555 1_555
O17_7 Co14 1_555 1_555
O18_7 C24_7 1_555 1_555
O19_7 Co12_2 1_555 1_555
H5_7 O19_7 1_555 1_555
H6_7 O19_7 1_555 1_555
C4_7 H14_7 1_555 1_555
C7_7 O7_7 1_555 1_555
C16_7 C4_7 1_555 1_555
C24_7 O17_7 1_555 1_555
C25_7 C28_7 1_555 1_555
C27_7 C24_7 1_555 1_555
C30_7 C27_7 1_555 1_555
C31_7 C25_7 1_555 1_555
H25_7 C31_7 1_555 1_555
C32_7 C25_7 1_555 1_555
H26_7 C32_7 1_555 1_555
O26_4 Co12_2 1_555 1_555
C7_7 C16_7 1_555 1_555
C27_7 C31_7 1_555 1_555
C29_7 C30_7 1_555 1_555
C29_7 C32_7 1_555 1_555
O12_4 C18_7 1_555 1_555
O13_4 C18_7 1_555 1_555
N5_3 H3_7 1_555 1_555
H4_7 N5_3 1_555 1_555
N8_3 H11_7 1_555 1_555
H12_7 N8_3 1_555 1_555
C8_7 N8_3 1_555 1_555
C12_7 H17_7 1_555 1_555
C13_7 C8_7 1_555 1_555
C18_7 C21_7 1_555 1_555
C21_7 C12_7 1_555 1_555
C26_7 C8_7 1_555 1_555
H23_7 C26_7 1_555 1_555
Co8_3 O13_4 1_555 1_555
Co13_4 O12_4 1_555 1_555
C21_7 C26_7 1_555 1_555
O26_4 C18_8 1_555 1_555
O27_4 C18_8 1_555 1_555
N8_4 H11_8 1_555 1_555
H12_8 N8_4 1_555 1_555
C8_8 N8_4 1_555 1_555
C12_8 H17_8 1_555 1_555
C13_8 C8_8 1_555 1_555
C18_8 C21_8 1_555 1_555
C21_8 C12_8 1_555 1_555
C26_8 C8_8 1_555 1_555
H23_8 C26_8 1_555 1_555
C21_8 C26_8 1_555 1_555
N5_4 H3_8 1_555 1_555
H4_8 N5_4 1_555 1_555
Co8_3 O4_4 1_555 1_555
Co11_2 O2_8 1_555 1_555
Co4_8 O1_8 1_555 1_555
O1_8 C9_8 1_555 1_555
O2_8 C9_8 1_555 1_555
O3_4 C15_8 1_555 1_555
O4_4 Co4_8 1_555 1_555
H1_8 O4_4 1_555 1_555
O6_8 Co8_3 1_555 1_555
O9_8 Co4_8 1_555 1_555
O11_8 Co4_8 1_555 1_555
N6_3 H7_8 1_555 1_555
H8_8 N6_3 1_555 1_555
N7_3 H9_8 1_555 1_555
H10_8 N7_3 1_555 1_555
C2_8 O14_8 1_555 1_555
C5_8 C2_8 1_555 1_555
C9_8 C10_8 1_555 1_555
C11_8 C5_8 1_555 1_555
H16_8 C11_8 1_555 1_555
C14_8 O6_8 1_555 1_555
C15_8 O9_8 1_555 1_555
C19_8 N7_3 1_555 1_555
C20_8 C14_8 1_555 1_555
O20_8 Co4_8 1_555 1_555
H19_8 O20_8 1_555 1_555
H20_8 O20_8 1_555 1_555
H21_8 C22_8 1_555 1_555
C23_8 C19_8 1_555 1_555
H22_8 C23_8 1_555 1_555
Co13_4 O3_4 1_555 1_555
O23_4 Co11_2 1_555 1_555
O24_4 Co8_3 1_555 1_555
O25_4 Co11_2 1_555 1_555
O4_4 Co13_4 1_555 1_555
O11_8 C14_8 1_555 1_555
C10_8 C11_8 1_555 1_555
C15_8 C17_8 1_555 1_555
C20_8 C22_8 1_555 1_555
C20_8 C23_8 1_555 1_555
Co13_4 O23_4 1_555 1_555
C3_8 C1_8 1_555 1_555
H13_8 C3_8 1_555 1_555
C6_8 C1_8 1_555 1_555
H15_8 C6_8 1_555 1_555
Co14_2 O23_4 1_555 1_555
O23_4 H2_8 1_555 1_555
O7_8 Co13_4 1_555 1_555
O24_4 C7_8 1_555 1_555
O28_2 C28_8 1_555 1_555
O29_2 C28_8 1_555 1_555
O17_8 Co14_2 1_555 1_555
O18_8 C24_8 1_555 1_555
O19_8 Co13_4 1_555 1_555
H5_8 O19_8 1_555 1_555
H6_8 O19_8 1_555 1_555
C4_8 H14_8 1_555 1_555
C7_8 O7_8 1_555 1_555
C16_8 C4_8 1_555 1_555
C24_8 O17_8 1_555 1_555
C25_8 C28_8 1_555 1_555
C27_8 C24_8 1_555 1_555
C30_8 C27_8 1_555 1_555
C31_8 C25_8 1_555 1_555
H25_8 C31_8 1_555 1_555
C32_8 C25_8 1_555 1_555
H26_8 C32_8 1_555 1_555
C7_8 C16_8 1_555 1_555
C27_8 C31_8 1_555 1_555
C29_8 C30_8 1_555 1_555
C29_8 C32_8 1_555 1_555

#END
