
###############################################################################
#
# This file contains modified crystal structure data generated from the
# MOF subset of the Cambridge Structural Database (CSD) v543 
# hosted by the Cambridge Crystallographic Data Centre (CCDC).
#
# This work is licensed under the Creative Commons
# Attribution-NonCommercial-ShareAlike 4.0 International License.
# To view a copy of this license, visit
# http://creativecommons.org/licenses/by-nc-sa/4.0/
# or send a letter to
# Creative Commons, PO Box 1866, Mountain View, CA 94042, USA.
#
# CIF created using the CSD Python API on 29 September 2022
# The structure has been converted into the P1 space group
# The structure has a 3D framework
# The original CSD entry PUMYEE is in the monoclinic crystal system
# The framework has been calculated to contain at least 10.0% void space
# The void calculation uses a probe of radius 1.32A, grid spacing 0.4
#
###############################################################################

data_PUMYEE
_chemical_formula_moiety         '(C192 H112 Cd8 N16 O32 S32)n'
_symmetry_cell_setting           triclinic
_symmetry_space_group_name_H-M   'P 1'
_symmetry_Int_Tables_number      1
_space_group_name_Hall           'P 1'
loop_
_symmetry_equiv_pos_site_id
_symmetry_equiv_pos_as_xyz
1 x,y,z
_cell_length_a                   19.3285(8)
_cell_length_b                   19.4632(6)
_cell_length_c                   17.0969(6)
_cell_angle_alpha                90
_cell_angle_beta                 98.710(4)
_cell_angle_gamma                90
_cell_volume                     6357.58
loop_
_atom_site_label
_atom_site_type_symbol
_atom_site_fract_x
_atom_site_fract_y
_atom_site_fract_z
S1 S 0.08454(19) 0.5442(2) 0.8505(2)
S2 S 0.13505(18) 0.6474(2) 0.7441(2)
S3 S 0.23879(16) 0.48593(17) 0.89920(19)
S4 S 0.29462(16) 0.58641(17) 0.79387(18)
S5 S 0.13075(16) 0.36110(18) 0.75681(19)
S6 S 0.05027(17) 0.4621(2) 0.6496(2)
S7 S 0.27458(15) 0.41522(16) 0.69763(17)
S8 S 0.19139(17) 0.51494(19) 0.5923(2)
N2 N 0.5719(5) 0.5503(5) 0.8365(6)
N3 N 0.5410(4) 0.4445(4) 0.6540(5)
C22 C 0.0214(7) 0.5986(7) 0.7969(8)
C23 C 0.0447(8) 0.6459(8) 0.7502(9)
H13 H 0.013557 0.677715 0.721204
C24 C 0.1587(7) 0.5792(8) 0.8109(8)
C25 C 0.2196(7) 0.5524(7) 0.8302(7)
C26 C 0.3282(7) 0.4890(7) 0.8998(7)
H14 H 0.358497 0.459482 0.933434
C27 C 0.3539(7) 0.5331(6) 0.8528(7)
C28 C 0.5475(7) 0.5073(6) 0.8892(7)
H15 H 0.580542 0.480888 0.923399
C29 C 0.4797(7) 0.5003(7) 0.8954(7)
H16 H 0.465194 0.468516 0.931821
C30 C 0.4300(6) 0.5412(7) 0.8468(6)
C31 C 0.4541(7) 0.5793(6) 0.7916(8)
H17 H 0.422078 0.604245 0.754469
C32 C 0.5251(7) 0.5827(6) 0.7878(7)
H18 H 0.540254 0.610138 0.747672
C33 C 0.5029(7) 0.4061(6) 0.6944(7)
H19 H 0.526083 0.372022 0.728629
C34 C 0.4306(7) 0.4123(7) 0.6901(7)
H20 H 0.405926 0.382309 0.719878
C35 C 0.3957(7) 0.4607(7) 0.6437(6)
C36 C 0.4335(6) 0.5027(6) 0.6008(7)
H21 H 0.410246 0.536892 0.566878
C37 C 0.5050(6) 0.4949(6) 0.6072(6)
H22 H 0.530481 0.525113 0.578500
C38 C 0.3197(7) 0.4686(6) 0.6383(6)
C39 C 0.2810(7) 0.5131(7) 0.5915(7)
H23 H 0.301989 0.543277 0.558348
C40 C 0.1907(6) 0.4487(7) 0.6634(7)
C41 C 0.1352(7) 0.4266(8) 0.6873(8)
C42 C 0.0034(7) 0.4084(7) 0.7045(7)
C43 C 0.0396(7) 0.3625(8) 0.7510(8)
H24 H 0.016479 0.330809 0.780540
Cd3 Cd 0.65939(4) 0.43427(4) 0.65746(4)
Cd5 Cd 0.69183(4) 0.56294(4) 0.83933(4)
O3 O 0.6664(5) 0.1821(4) 0.1277(5)
O4 O 0.6553(5) 0.1112(4) 0.0265(5)
H1 H 0.715948 0.390651 0.009803
C4 C 0.6909(8) 0.2921(7) 0.0333(7)
H2 H 0.696426 0.297570 0.089106
C5 C 0.6741(7) 0.2295(6) 0.0011(7)
C8 C 0.6642(6) 0.1708(6) 0.0555(7)
Cd4 Cd 0.65939(4) 0.06573(4) 0.15746(4)
O1 O 0.7155(5) 0.4578(4) 0.8873(5)
O2 O 0.6604(5) 0.4013(5) 0.7842(5)
O5 O 0.6704(6) 0.6034(5) 0.7149(5)
O6 O 0.6670(6) 0.5383(5) 0.6060(6)
O7 O 0.6975(5) 0.8911(4) 0.4712(5)
O8 O 0.6875(5) 0.8210(4) 0.3703(5)
N1 N 0.8083(5) 0.5717(5) 0.8301(7)
N4 N 0.7821(5) 0.4319(5) 0.6781(6)
C1 C 0.6884(6) 0.4054(6) 0.8532(7)
C2 C 0.6861(7) 0.3422(6) 0.9041(7)
C3 C 0.7001(8) 0.3482(7) 0.9862(7)
C6 C 0.6634(7) 0.2220(7) 0.9184(7)
H3 H 0.653266 0.178130 0.895188
C7 C 0.6678(7) 0.2787(7) 0.8714(7)
H4 H 0.658133 0.274019 0.815500
C9 C 0.6726(5) 0.5946(6) 0.6429(6)
C10 C 0.6814(6) 0.6572(6) 0.5938(7)
C11 C 0.6923(7) 0.7216(7) 0.6260(7)
H5 H 0.695980 0.727187 0.681657
C12 C 0.6979(7) 0.7784(7) 0.5789(7)
H6 H 0.707178 0.822426 0.602170
C13 C 0.6899(7) 0.7707(6) 0.4966(7)
C14 C 0.6803(10) 0.7064(7) 0.4646(8)
H7 H 0.677261 0.700850 0.408944
C15 C 0.6748(9) 0.6495(7) 0.5112(8)
H8 H 0.666617 0.605473 0.487686
C16 C 0.6911(6) 0.8319(6) 0.4430(7)
C17 C 0.8575(8) 0.5290(7) 0.8616(9)
H9 H 0.845064 0.491524 0.892222
C18 C 0.9273(7) 0.5371(8) 0.8516(8)
H10 H 0.961205 0.505201 0.875596
C19 C 0.9479(7) 0.5903(7) 0.8075(8)
C20 C 0.8967(7) 0.6369(7) 0.7749(9)
H11 H 0.908524 0.675104 0.744922
C21 C 0.8291(7) 0.6264(7) 0.7872(8)
H12 H 0.794487 0.658443 0.765039
C44 C 0.8151(7) 0.3808(7) 0.7222(8)
H25 H 0.787461 0.349365 0.746593
C45 C 0.8857(7) 0.3716(7) 0.7338(8)
H26 H 0.906697 0.335387 0.766379
C46 C 0.9266(7) 0.4165(7) 0.6966(8)
C47 C 0.8907(8) 0.4681(8) 0.6479(8)
H27 H 0.916193 0.498651 0.619600
C48 C 0.8206(7) 0.4740(7) 0.6415(8)
H28 H 0.797838 0.509794 0.609553
Cd6 Cd 0.69183(4) 0.93706(4) 0.33933(4)
O9 O 0.6664(5) 0.3179(4) 0.6277(5)
O10 O 0.6553(5) 0.3888(4) 0.5265(5)
O11 O 0.6975(5) 0.6089(4) 0.9712(5)
O12 O 0.6875(5) 0.6790(4) 0.8703(5)
S3_2 S 0.23879(16) 0.01407(17) 0.39920(19)
S5_2 S 0.13075(16) 0.13890(18) 0.25681(19)
S6_2 S 0.05027(17) 0.0379(2) 0.1496(2)
S7_2 S 0.27458(15) 0.08478(16) 0.19763(17)
N3_2 N 0.5410(4) 0.0555(4) 0.1540(5)
C26_2 C 0.3282(7) 0.0110(7) 0.3998(7)
H14_2 H 0.358497 0.040518 0.433434
H15_2 H 0.580542 0.019112 0.423399
H16_2 H 0.465194 0.031484 0.431821
C33_2 C 0.5029(7) 0.0939(6) 0.1944(7)
H19_2 H 0.526083 0.127978 0.228629
C34_2 C 0.4306(7) 0.0877(7) 0.1901(7)
H20_2 H 0.405926 0.117691 0.219878
C35_2 C 0.3957(7) 0.0393(7) 0.1437(6)
C37_2 C 0.5050(6) 0.0051(6) 0.1072(6)
C38_2 C 0.3197(7) 0.0314(6) 0.1383(6)
C40_2 C 0.1907(6) 0.0513(7) 0.1634(7)
C41_2 C 0.1352(7) 0.0734(8) 0.1873(8)
C42_2 C 0.0034(7) 0.0916(7) 0.2045(7)
C43_2 C 0.0396(7) 0.1375(8) 0.2510(8)
H24_2 H 0.016479 0.169191 0.280540
S1_2 S 0.08454(19) 0.9558(2) 0.3505(2)
S2_2 S 0.13505(18) 0.8526(2) 0.2441(2)
S4_2 S 0.29462(16) 0.91359(17) 0.29387(18)
S8_2 S 0.19139(17) 0.98506(19) 0.0923(2)
N2_2 N 0.5719(5) 0.9497(5) 0.3365(6)
C22_2 C 0.0214(7) 0.9014(7) 0.2969(8)
C23_2 C 0.0447(8) 0.8541(8) 0.2502(9)
H13_2 H 0.013557 0.822285 0.221204
C24_2 C 0.1587(7) 0.9208(8) 0.3109(8)
C25_2 C 0.2196(7) 0.9476(7) 0.3302(7)
C27_2 C 0.3539(7) 0.9669(6) 0.3528(7)
C28_2 C 0.5475(7) 0.9927(6) 0.3892(7)
C29_2 C 0.4797(7) 0.9997(7) 0.3954(7)
C30_2 C 0.4300(6) 0.9588(7) 0.3468(6)
C31_2 C 0.4541(7) 0.9207(6) 0.2916(8)
H17_2 H 0.422078 0.895755 0.254469
C32_2 C 0.5251(7) 0.9173(6) 0.2878(7)
H18_2 H 0.540254 0.889862 0.247672
C36_2 C 0.4335(6) 0.9973(6) 0.1008(7)
H21_2 H 0.410246 0.963108 0.066878
H22_2 H 0.530481 0.974887 0.078500
C39_2 C 0.2810(7) 0.9869(7) 0.0915(7)
H23_2 H 0.301989 0.956723 0.058348
O1_2 O 0.7155(5) 0.0422(4) 0.3873(5)
O2_2 O 0.6604(5) 0.0987(5) 0.2842(5)
N4_2 N 0.7821(5) 0.0681(5) 0.1781(6)
C1_2 C 0.6884(6) 0.0946(6) 0.3532(7)
C2_2 C 0.6861(7) 0.1578(6) 0.4041(7)
C3_2 C 0.7001(8) 0.1518(7) 0.4862(7)
H1_2 H 0.715948 0.109349 0.509803
C4_2 C 0.6909(8) 0.2079(7) 0.5333(7)
H2_2 H 0.696426 0.202430 0.589106
C5_2 C 0.6741(7) 0.2705(6) 0.5011(7)
C6_2 C 0.6634(7) 0.2780(7) 0.4184(7)
H3_2 H 0.653266 0.321870 0.395188
C7_2 C 0.6678(7) 0.2213(7) 0.3714(7)
H4_2 H 0.658133 0.225981 0.315500
C8_2 C 0.6642(6) 0.3292(6) 0.5555(7)
H9_2 H 0.845064 0.008476 0.392222
C44_2 C 0.8151(7) 0.1192(7) 0.2222(8)
H25_2 H 0.787461 0.150635 0.246593
C45_2 C 0.8857(7) 0.1284(7) 0.2338(8)
H26_2 H 0.906697 0.164613 0.266379
C46_2 C 0.9266(7) 0.0835(7) 0.1966(8)
C47_2 C 0.8907(8) 0.0319(8) 0.1479(8)
H27_2 H 0.916193 0.001349 0.119600
C48_2 C 0.8206(7) 0.0260(7) 0.1415(8)
O5_2 O 0.6704(6) 0.8966(5) 0.2149(5)
O6_2 O 0.6670(6) 0.9617(5) 0.1060(6)
N1_2 N 0.8083(5) 0.9283(5) 0.3301(7)
C9_2 C 0.6726(5) 0.9054(6) 0.1429(6)
C10_2 C 0.6814(6) 0.8428(6) 0.0938(7)
C11_2 C 0.6923(7) 0.7784(7) 0.1260(7)
H5_2 H 0.695980 0.772813 0.181657
C12_2 C 0.6979(7) 0.7216(7) 0.0789(7)
H6_2 H 0.707178 0.677574 0.102170
C15_2 C 0.6748(9) 0.8505(7) 0.0112(8)
C17_2 C 0.8575(8) 0.9710(7) 0.3616(9)
C18_2 C 0.9273(7) 0.9629(8) 0.3516(8)
H10_2 H 0.961205 0.994799 0.375596
C19_2 C 0.9479(7) 0.9097(7) 0.3075(8)
C20_2 C 0.8967(7) 0.8631(7) 0.2749(9)
H11_2 H 0.908524 0.824896 0.244922
C21_2 C 0.8291(7) 0.8736(7) 0.2872(8)
H12_2 H 0.794487 0.841557 0.265039
H28_2 H 0.797838 0.990206 0.109553
C13_2 C 0.6899(7) 0.7293(6) 0.9966(7)
C14_2 C 0.6803(10) 0.7936(7) 0.9646(8)
H7_2 H 0.677261 0.799150 0.908944
H8_2 H 0.666617 0.894527 0.987686
C16_2 C 0.6911(6) 0.6681(6) 0.9430(7)
O7_2 O 0.3025(5) 0.3911(4) 0.0288(5)
O8_2 O 0.3125(5) 0.3210(4) 0.1297(5)
C13_3 C 0.3101(7) 0.2707(6) 0.0034(7)
C14_3 C 0.3197(10) 0.2064(7) 0.0354(8)
H7_3 H 0.322739 0.200850 0.091056
H8_3 H 0.333383 0.105473 0.012314
C16_3 C 0.3089(6) 0.3319(6) 0.0570(7)
Cd6_2 Cd 0.30817(4) 0.43706(4) 0.16067(4)
Cd2 Cd 0.30817(4) 0.06294(4) 0.66067(4)
O5_3 O 0.3296(6) 0.1034(5) 0.7851(5)
O6_3 O 0.3330(6) 0.0383(5) 0.8940(6)
N1_3 N 0.1917(5) 0.0717(5) 0.6699(7)
C9_3 C 0.3274(5) 0.0946(6) 0.8571(6)
C10_3 C 0.3186(6) 0.1572(6) 0.9062(7)
C11_3 C 0.3077(7) 0.2216(7) 0.8740(7)
H5_3 H 0.304020 0.227187 0.818343
C12_3 C 0.3021(7) 0.2784(7) 0.9211(7)
H6_3 H 0.292822 0.322426 0.897830
C15_3 C 0.3252(9) 0.1495(7) 0.9888(8)
C17_3 C 0.1425(8) 0.0290(7) 0.6384(9)
C18_3 C 0.0727(7) 0.0371(8) 0.6484(8)
H10_3 H 0.038795 0.005201 0.624404
C19_3 C 0.0521(7) 0.0903(7) 0.6925(8)
C20_3 C 0.1033(7) 0.1369(7) 0.7251(9)
H11_3 H 0.091476 0.175104 0.755078
C21_3 C 0.1709(7) 0.1264(7) 0.7128(8)
H12_3 H 0.205513 0.158443 0.734961
H28_3 H 0.202162 0.009794 0.890447
O11_2 O 0.3025(5) 0.1089(4) 0.5288(5)
O12_2 O 0.3125(5) 0.1790(4) 0.6297(5)
N5 N 0.4281(5) 0.0503(5) 0.6635(6)
Cd1 Cd 0.34061(4) 0.93427(4) 0.84254(4)
O1_3 O 0.2845(5) 0.9578(4) 0.6127(5)
O2_3 O 0.3396(5) 0.9013(5) 0.7158(5)
O3_2 O 0.3336(5) 0.6821(4) 0.3723(5)
O4_2 O 0.3447(5) 0.6112(4) 0.4735(5)
N4_3 N 0.2179(5) 0.9319(5) 0.8219(6)
C1_3 C 0.3116(6) 0.9054(6) 0.6468(7)
C2_3 C 0.3139(7) 0.8422(6) 0.5959(7)
C3_3 C 0.2999(8) 0.8482(7) 0.5138(7)
H1_3 H 0.284052 0.890651 0.490197
C4_3 C 0.3091(8) 0.7921(7) 0.4667(7)
H2_3 H 0.303574 0.797570 0.410894
C5_3 C 0.3259(7) 0.7295(6) 0.4989(7)
C6_3 C 0.3366(7) 0.7220(7) 0.5816(7)
H3_3 H 0.346734 0.678130 0.604812
C7_3 C 0.3322(7) 0.7787(7) 0.6286(7)
H4_3 H 0.341867 0.774019 0.684500
C8_3 C 0.3358(6) 0.6708(6) 0.4445(7)
H9_3 H 0.154936 0.991524 0.607778
C44_3 C 0.1849(7) 0.8808(7) 0.7778(8)
H25_3 H 0.212539 0.849365 0.753407
C45_3 C 0.1143(7) 0.8716(7) 0.7662(8)
H26_3 H 0.093303 0.835387 0.733621
C46_3 C 0.0734(7) 0.9165(7) 0.8034(8)
C47_3 C 0.1093(8) 0.9681(8) 0.8521(8)
H27_3 H 0.083807 0.998651 0.880400
C48_3 C 0.1794(7) 0.9740(7) 0.8585(8)
Cd4_2 Cd 0.34061(4) 0.56573(4) 0.34254(4)
O9_2 O 0.3336(5) 0.8179(4) 0.8723(5)
O10_2 O 0.3447(5) 0.8888(4) 0.9735(5)
N6 N 0.4590(4) 0.9445(4) 0.8460(5)
S1_3 S 0.91546(19) 0.0442(2) 0.6495(2)
S2_3 S 0.86495(18) 0.1474(2) 0.7559(2)
S4_3 S 0.70538(16) 0.08641(17) 0.70613(18)
S8_3 S 0.80861(17) 0.01494(19) 0.9077(2)
C22_3 C 0.9786(7) 0.0986(7) 0.7031(8)
C23_3 C 0.9553(8) 0.1459(8) 0.7498(9)
H13_3 H 0.986443 0.177715 0.778796
C24_3 C 0.8413(7) 0.0792(8) 0.6891(8)
C25_3 C 0.7804(7) 0.0524(7) 0.6698(7)
C27_3 C 0.6461(7) 0.0331(6) 0.6472(7)
C28_3 C 0.4525(7) 0.0073(6) 0.6108(7)
C29_3 C 0.5203(7) 0.0003(7) 0.6046(7)
C30_3 C 0.5700(6) 0.0412(7) 0.6532(6)
C31_3 C 0.5459(7) 0.0793(6) 0.7084(8)
H17_3 H 0.577922 0.104245 0.745531
C32_3 C 0.4749(7) 0.0827(6) 0.7122(7)
H18_3 H 0.459746 0.110138 0.752328
C36_3 C 0.5665(6) 0.0027(6) 0.8992(7)
H21_3 H 0.589754 0.036892 0.933122
H22_3 H 0.469519 0.025113 0.921500
C39_3 C 0.7190(7) 0.0131(7) 0.9085(7)
H23_3 H 0.698011 0.043277 0.941652
S3_3 S 0.76121(16) 0.98593(17) 0.60080(19)
S5_3 S 0.86925(16) 0.86110(18) 0.74319(19)
S6_3 S 0.94973(17) 0.9621(2) 0.8504(2)
S7_3 S 0.72542(15) 0.91522(16) 0.80237(17)
C26_3 C 0.6718(7) 0.9890(7) 0.6002(7)
H14_3 H 0.641503 0.959482 0.566566
H15_3 H 0.419458 0.980888 0.576601
H16_3 H 0.534806 0.968516 0.568179
C33_3 C 0.4971(7) 0.9061(6) 0.8056(7)
H19_3 H 0.473917 0.872022 0.771371
C34_3 C 0.5694(7) 0.9123(7) 0.8099(7)
H20_3 H 0.594074 0.882309 0.780122
C35_3 C 0.6043(7) 0.9607(7) 0.8563(6)
C37_3 C 0.4950(6) 0.9949(6) 0.8928(6)
C38_3 C 0.6803(7) 0.9686(6) 0.8617(6)
C40_3 C 0.8093(6) 0.9487(7) 0.8366(7)
C41_3 C 0.8648(7) 0.9266(8) 0.8127(8)
C42_3 C 0.9966(7) 0.9084(7) 0.7955(7)
C43_3 C 0.9604(7) 0.8625(8) 0.7490(8)
H24_3 H 0.983521 0.830809 0.719460
O1_4 O 0.2845(5) 0.5422(4) 0.1127(5)
O2_4 O 0.3396(5) 0.5987(5) 0.2158(5)
O5_4 O 0.3296(6) 0.3966(5) 0.2851(5)
O6_4 O 0.3330(6) 0.4617(5) 0.3940(6)
N1_4 N 0.1917(5) 0.4283(5) 0.1699(7)
N4_4 N 0.2179(5) 0.5681(5) 0.3219(6)
C1_4 C 0.3116(6) 0.5946(6) 0.1468(7)
C2_4 C 0.3139(7) 0.6578(6) 0.0959(7)
C3_4 C 0.2999(8) 0.6518(7) 0.0138(7)
C6_4 C 0.3366(7) 0.7780(7) 0.0816(7)
H3_4 H 0.346734 0.821870 0.104812
C7_4 C 0.3322(7) 0.7213(7) 0.1286(7)
H4_4 H 0.341867 0.725981 0.184500
C9_4 C 0.3274(5) 0.4054(6) 0.3571(6)
C10_4 C 0.3186(6) 0.3428(6) 0.4062(7)
C11_4 C 0.3077(7) 0.2784(7) 0.3740(7)
H5_4 H 0.304020 0.272813 0.318343
C12_4 C 0.3021(7) 0.2216(7) 0.4211(7)
H6_4 H 0.292822 0.177574 0.397830
C13_4 C 0.3101(7) 0.2293(6) 0.5034(7)
C14_4 C 0.3197(10) 0.2936(7) 0.5354(8)
H7_4 H 0.322739 0.299150 0.591056
C15_4 C 0.3252(9) 0.3505(7) 0.4888(8)
H8_4 H 0.333383 0.394527 0.512314
C16_4 C 0.3089(6) 0.1681(6) 0.5570(7)
C17_4 C 0.1425(8) 0.4710(7) 0.1384(9)
H9_4 H 0.154936 0.508476 0.107778
C18_4 C 0.0727(7) 0.4629(8) 0.1484(8)
H10_4 H 0.038795 0.494799 0.124404
C19_4 C 0.0521(7) 0.4097(7) 0.1925(8)
C20_4 C 0.1033(7) 0.3631(7) 0.2251(9)
H11_4 H 0.091476 0.324896 0.255078
C21_4 C 0.1709(7) 0.3736(7) 0.2128(8)
H12_4 H 0.205513 0.341557 0.234961
C44_4 C 0.1849(7) 0.6192(7) 0.2778(8)
H25_4 H 0.212539 0.650635 0.253407
C45_4 C 0.1143(7) 0.6284(7) 0.2662(8)
H26_4 H 0.093303 0.664613 0.233621
C46_4 C 0.0734(7) 0.5835(7) 0.3034(8)
C47_4 C 0.1093(8) 0.5319(8) 0.3521(8)
H27_4 H 0.083807 0.501349 0.380400
C48_4 C 0.1794(7) 0.5260(7) 0.3585(8)
H28_4 H 0.202162 0.490206 0.390447
N5_2 N 0.4281(5) 0.4497(5) 0.1635(6)
N6_2 N 0.4590(4) 0.5555(4) 0.3460(5)
H1_4 H 0.284052 0.609349 0.990197
C4_4 C 0.3091(8) 0.7079(7) 0.9667(7)
H2_4 H 0.303574 0.702430 0.910894
C5_4 C 0.3259(7) 0.7705(6) 0.9989(7)
C8_4 C 0.3358(6) 0.8292(6) 0.9445(7)
S1_4 S 0.91546(19) 0.4558(2) 0.1495(2)
S2_4 S 0.86495(18) 0.3526(2) 0.2559(2)
S3_4 S 0.76121(16) 0.51407(17) 0.10080(19)
S4_4 S 0.70538(16) 0.41359(17) 0.20613(18)
S5_4 S 0.86925(16) 0.63890(18) 0.24319(19)
S6_4 S 0.94973(17) 0.5379(2) 0.3504(2)
S7_4 S 0.72542(15) 0.58478(16) 0.30237(17)
S8_4 S 0.80861(17) 0.48506(19) 0.4077(2)
C22_4 C 0.9786(7) 0.4014(7) 0.2031(8)
C23_4 C 0.9553(8) 0.3541(8) 0.2498(9)
H13_4 H 0.986443 0.322285 0.278796
C24_4 C 0.8413(7) 0.4208(8) 0.1891(8)
C25_4 C 0.7804(7) 0.4476(7) 0.1698(7)
C26_4 C 0.6718(7) 0.5110(7) 0.1002(7)
H14_4 H 0.641503 0.540518 0.066566
C27_4 C 0.6461(7) 0.4669(6) 0.1472(7)
C28_4 C 0.4525(7) 0.4927(6) 0.1108(7)
H15_4 H 0.419458 0.519112 0.076601
C29_4 C 0.5203(7) 0.4997(7) 0.1046(7)
H16_4 H 0.534806 0.531484 0.068179
C30_4 C 0.5700(6) 0.4588(7) 0.1532(6)
C31_4 C 0.5459(7) 0.4207(6) 0.2084(8)
H17_4 H 0.577922 0.395755 0.245531
C32_4 C 0.4749(7) 0.4173(6) 0.2122(7)
H18_4 H 0.459746 0.389862 0.252328
C33_4 C 0.4971(7) 0.5939(6) 0.3056(7)
H19_4 H 0.473917 0.627978 0.271371
C34_4 C 0.5694(7) 0.5877(7) 0.3099(7)
H20_4 H 0.594074 0.617691 0.280122
C35_4 C 0.6043(7) 0.5393(7) 0.3563(6)
C36_4 C 0.5665(6) 0.4973(6) 0.3992(7)
H21_4 H 0.589754 0.463108 0.433122
C37_4 C 0.4950(6) 0.5051(6) 0.3928(6)
H22_4 H 0.469519 0.474887 0.421500
C38_4 C 0.6803(7) 0.5314(6) 0.3617(6)
C39_4 C 0.7190(7) 0.4869(7) 0.4085(7)
H23_4 H 0.698011 0.456723 0.441652
C40_4 C 0.8093(6) 0.5513(7) 0.3366(7)
C41_4 C 0.8648(7) 0.5734(8) 0.3127(8)
C42_4 C 0.9966(7) 0.5916(7) 0.2955(7)
C43_4 C 0.9604(7) 0.6375(8) 0.2490(8)
H24_4 H 0.983521 0.669191 0.219460
loop_
_geom_bond_atom_site_label_1
_geom_bond_atom_site_label_2
_geom_bond_site_symmetry_1
_geom_bond_site_symmetry_2
S1 C22 1_555 1_555
S2 C23 1_555 1_555
S3 C25 1_555 1_555
S4 C25 1_555 1_555
S5 C41 1_555 1_555
S6 C41 1_555 1_555
S7 C38 1_555 1_555
S8 C39 1_555 1_555
N2 C28 1_555 1_555
N3 C33 1_555 1_555
C23 C22 1_555 1_555
H13 C23 1_555 1_555
C24 S1 1_555 1_555
C25 C24 1_555 1_555
C26 S3 1_555 1_555
H14 C26 1_555 1_555
C27 S4 1_555 1_555
C28 H15 1_555 1_555
C29 C28 1_555 1_555
H16 C29 1_555 1_555
C30 C27 1_555 1_555
C31 C30 1_555 1_555
H17 C31 1_555 1_555
C32 N2 1_555 1_555
H18 C32 1_555 1_555
C33 H19 1_555 1_555
C34 C33 1_555 1_555
H20 C34 1_555 1_555
C35 C34 1_555 1_555
C36 C35 1_555 1_555
H21 C36 1_555 1_555
C37 N3 1_555 1_555
H22 C37 1_555 1_555
C38 C35 1_555 1_555
C39 C38 1_555 1_555
H23 C39 1_555 1_555
C40 S7 1_555 1_555
C41 C40 1_555 1_555
C42 S6 1_555 1_555
C43 S5 1_555 1_555
H24 C43 1_555 1_555
Cd3 N3 1_555 1_555
Cd5 N2 1_555 1_555
S2 C24 1_555 1_555
S8 C40 1_555 1_555
C26 C27 1_555 1_555
C29 C30 1_555 1_555
C31 C32 1_555 1_555
C36 C37 1_555 1_555
C42 C43 1_555 1_555
O3 C8 1_555 1_555
O4 C8 1_555 1_555
H2 C4 1_555 1_555
C5 C4 1_555 1_555
C8 C5 1_555 1_555
Cd4 O3 1_555 1_555
O4 Cd4 1_555 1_555
Cd3 O2 1_555 1_555
Cd5 O1 1_555 1_555
O1 C1 1_555 1_555
O2 C1 1_555 1_555
O5 Cd5 1_555 1_555
O6 Cd3 1_555 1_555
O7 C16 1_555 1_555
O8 C16 1_555 1_555
N1 Cd5 1_555 1_555
N4 Cd3 1_555 1_555
C1 C2 1_555 1_555
C2 C3 1_555 1_555
H3 C6 1_555 1_555
C7 C2 1_555 1_555
H4 C7 1_555 1_555
C9 O5 1_555 1_555
C10 C9 1_555 1_555
C11 C10 1_555 1_555
H5 C11 1_555 1_555
C12 C11 1_555 1_555
H6 C12 1_555 1_555
C13 C12 1_555 1_555
C14 C13 1_555 1_555
H7 C14 1_555 1_555
C15 C10 1_555 1_555
H8 C15 1_555 1_555
C16 C13 1_555 1_555
C17 N1 1_555 1_555
H9 C17 1_555 1_555
C18 C17 1_555 1_555
H10 C18 1_555 1_555
C19 C18 1_555 1_555
C20 C19 1_555 1_555
H11 C20 1_555 1_555
C21 N1 1_555 1_555
H12 C21 1_555 1_555
C44 N4 1_555 1_555
H25 C44 1_555 1_555
C45 C44 1_555 1_555
H26 C45 1_555 1_555
C47 C46 1_555 1_555
H27 C47 1_555 1_555
C48 N4 1_555 1_555
H28 C48 1_555 1_555
Cd6 O7 1_555 1_555
O9 Cd3 1_555 1_555
O10 Cd3 1_555 1_555
O11 Cd5 1_555 1_555
O12 Cd5 1_555 1_555
O6 C9 1_555 1_555
O8 Cd6 1_555 1_555
C6 C7 1_555 1_555
C14 C15 1_555 1_555
C20 C21 1_555 1_555
C45 C46 1_555 1_555
C47 C48 1_555 1_555
S5_2 C41_2 1_555 1_555
S6_2 C41_2 1_555 1_555
S7_2 C38_2 1_555 1_555
N3_2 C33_2 1_555 1_555
C26_2 S3_2 1_555 1_555
H14_2 C26_2 1_555 1_555
C33_2 H19_2 1_555 1_555
C34_2 C33_2 1_555 1_555
H20_2 C34_2 1_555 1_555
C35_2 C34_2 1_555 1_555
C37_2 N3_2 1_555 1_555
C38_2 C35_2 1_555 1_555
C40_2 S7_2 1_555 1_555
C41_2 C40_2 1_555 1_555
C42_2 S6_2 1_555 1_555
C43_2 S5_2 1_555 1_555
H24_2 C43_2 1_555 1_555
Cd4 N3_2 1_555 1_555
C42_2 C43_2 1_555 1_555
S1_2 C22_2 1_555 1_555
S2_2 C23_2 1_555 1_555
S4_2 C25_2 1_555 1_555
S8_2 C39_2 1_555 1_555
N2_2 C28_2 1_555 1_555
C23_2 C22_2 1_555 1_555
H13_2 C23_2 1_555 1_555
C24_2 S1_2 1_555 1_555
C25_2 C24_2 1_555 1_555
C27_2 S4_2 1_555 1_555
C29_2 C28_2 1_555 1_555
C30_2 C27_2 1_555 1_555
C31_2 C30_2 1_555 1_555
H17_2 C31_2 1_555 1_555
C32_2 N2_2 1_555 1_555
H18_2 C32_2 1_555 1_555
H21_2 C36_2 1_555 1_555
H23_2 C39_2 1_555 1_555
Cd6 N2_2 1_555 1_555
S2_2 C24_2 1_555 1_555
C29_2 C30_2 1_555 1_555
C31_2 C32_2 1_555 1_555
Cd4 O2_2 1_555 1_555
O1_2 C1_2 1_555 1_555
O2_2 C1_2 1_555 1_555
O9 C8_2 1_555 1_555
O10 C8_2 1_555 1_555
N4_2 Cd4 1_555 1_555
C1_2 C2_2 1_555 1_555
C2_2 C3_2 1_555 1_555
C3_2 H1_2 1_555 1_555
C4_2 C3_2 1_555 1_555
H2_2 C4_2 1_555 1_555
C5_2 C4_2 1_555 1_555
C6_2 C5_2 1_555 1_555
H3_2 C6_2 1_555 1_555
C7_2 C2_2 1_555 1_555
H4_2 C7_2 1_555 1_555
C8_2 C5_2 1_555 1_555
C44_2 N4_2 1_555 1_555
H25_2 C44_2 1_555 1_555
C45_2 C44_2 1_555 1_555
H26_2 C45_2 1_555 1_555
C47_2 C46_2 1_555 1_555
H27_2 C47_2 1_555 1_555
C48_2 N4_2 1_555 1_555
C6_2 C7_2 1_555 1_555
C45_2 C46_2 1_555 1_555
C47_2 C48_2 1_555 1_555
O5_2 Cd6 1_555 1_555
N1_2 Cd6 1_555 1_555
C9_2 O5_2 1_555 1_555
C10_2 C9_2 1_555 1_555
C11_2 C10_2 1_555 1_555
H5_2 C11_2 1_555 1_555
C12_2 C11_2 1_555 1_555
H6_2 C12_2 1_555 1_555
C15_2 C10_2 1_555 1_555
C17_2 N1_2 1_555 1_555
C18_2 C17_2 1_555 1_555
H10_2 C18_2 1_555 1_555
C19_2 C18_2 1_555 1_555
C20_2 C19_2 1_555 1_555
H11_2 C20_2 1_555 1_555
C21_2 N1_2 1_555 1_555
H12_2 C21_2 1_555 1_555
O6_2 C9_2 1_555 1_555
C20_2 C21_2 1_555 1_555
O11 C16_2 1_555 1_555
O12 C16_2 1_555 1_555
C14_2 C13_2 1_555 1_555
H7_2 C14_2 1_555 1_555
C16_2 C13_2 1_555 1_555
O7_2 C16_3 1_555 1_555
O8_2 C16_3 1_555 1_555
C14_3 C13_3 1_555 1_555
H7_3 C14_3 1_555 1_555
C16_3 C13_3 1_555 1_555
Cd6_2 O7_2 1_555 1_555
O8_2 Cd6_2 1_555 1_555
O5_3 Cd2 1_555 1_555
N1_3 Cd2 1_555 1_555
C9_3 O5_3 1_555 1_555
C10_3 C9_3 1_555 1_555
C11_3 C10_3 1_555 1_555
H5_3 C11_3 1_555 1_555
C12_3 C11_3 1_555 1_555
H6_3 C12_3 1_555 1_555
C15_3 C10_3 1_555 1_555
C17_3 N1_3 1_555 1_555
C18_3 C17_3 1_555 1_555
H10_3 C18_3 1_555 1_555
C19_3 C18_3 1_555 1_555
C20_3 C19_3 1_555 1_555
H11_3 C20_3 1_555 1_555
C21_3 N1_3 1_555 1_555
H12_3 C21_3 1_555 1_555
O11_2 Cd2 1_555 1_555
O12_2 Cd2 1_555 1_555
N5 Cd2 1_555 1_555
O6_3 C9_3 1_555 1_555
C20_3 C21_3 1_555 1_555
Cd1 O2_3 1_555 1_555
O1_3 C1_3 1_555 1_555
O2_3 C1_3 1_555 1_555
O3_2 C8_3 1_555 1_555
O4_2 C8_3 1_555 1_555
N4_3 Cd1 1_555 1_555
C1_3 C2_3 1_555 1_555
C2_3 C3_3 1_555 1_555
C3_3 H1_3 1_555 1_555
C4_3 C3_3 1_555 1_555
H2_3 C4_3 1_555 1_555
C5_3 C4_3 1_555 1_555
C6_3 C5_3 1_555 1_555
H3_3 C6_3 1_555 1_555
C7_3 C2_3 1_555 1_555
H4_3 C7_3 1_555 1_555
C8_3 C5_3 1_555 1_555
C44_3 N4_3 1_555 1_555
H25_3 C44_3 1_555 1_555
C45_3 C44_3 1_555 1_555
H26_3 C45_3 1_555 1_555
C47_3 C46_3 1_555 1_555
H27_3 C47_3 1_555 1_555
C48_3 N4_3 1_555 1_555
Cd4_2 O3_2 1_555 1_555
O9_2 Cd1 1_555 1_555
O10_2 Cd1 1_555 1_555
N6 Cd1 1_555 1_555
O4_2 Cd4_2 1_555 1_555
C6_3 C7_3 1_555 1_555
C45_3 C46_3 1_555 1_555
C47_3 C48_3 1_555 1_555
S1_3 C22_3 1_555 1_555
S2_3 C23_3 1_555 1_555
S4_3 C25_3 1_555 1_555
S8_3 C39_3 1_555 1_555
N5 C28_3 1_555 1_555
C23_3 C22_3 1_555 1_555
H13_3 C23_3 1_555 1_555
C24_3 S1_3 1_555 1_555
C25_3 C24_3 1_555 1_555
C27_3 S4_3 1_555 1_555
C29_3 C28_3 1_555 1_555
C30_3 C27_3 1_555 1_555
C31_3 C30_3 1_555 1_555
H17_3 C31_3 1_555 1_555
C32_3 N5 1_555 1_555
H18_3 C32_3 1_555 1_555
H21_3 C36_3 1_555 1_555
H23_3 C39_3 1_555 1_555
S2_3 C24_3 1_555 1_555
C29_3 C30_3 1_555 1_555
C31_3 C32_3 1_555 1_555
S5_3 C41_3 1_555 1_555
S6_3 C41_3 1_555 1_555
S7_3 C38_3 1_555 1_555
N6 C33_3 1_555 1_555
C26_3 S3_3 1_555 1_555
H14_3 C26_3 1_555 1_555
C33_3 H19_3 1_555 1_555
C34_3 C33_3 1_555 1_555
H20_3 C34_3 1_555 1_555
C35_3 C34_3 1_555 1_555
C37_3 N6 1_555 1_555
C38_3 C35_3 1_555 1_555
C40_3 S7_3 1_555 1_555
C41_3 C40_3 1_555 1_555
C42_3 S6_3 1_555 1_555
C43_3 S5_3 1_555 1_555
H24_3 C43_3 1_555 1_555
C42_3 C43_3 1_555 1_555
Cd4_2 O2_4 1_555 1_555
Cd6_2 O1_4 1_555 1_555
O1_4 C1_4 1_555 1_555
O2_4 C1_4 1_555 1_555
O5_4 Cd6_2 1_555 1_555
O6_4 Cd4_2 1_555 1_555
O11_2 C16_4 1_555 1_555
O12_2 C16_4 1_555 1_555
N1_4 Cd6_2 1_555 1_555
N4_4 Cd4_2 1_555 1_555
C1_4 C2_4 1_555 1_555
C2_4 C3_4 1_555 1_555
H3_4 C6_4 1_555 1_555
C7_4 C2_4 1_555 1_555
H4_4 C7_4 1_555 1_555
C9_4 O5_4 1_555 1_555
C10_4 C9_4 1_555 1_555
C11_4 C10_4 1_555 1_555
H5_4 C11_4 1_555 1_555
C12_4 C11_4 1_555 1_555
H6_4 C12_4 1_555 1_555
C13_4 C12_4 1_555 1_555
C14_4 C13_4 1_555 1_555
H7_4 C14_4 1_555 1_555
C15_4 C10_4 1_555 1_555
H8_4 C15_4 1_555 1_555
C16_4 C13_4 1_555 1_555
C17_4 N1_4 1_555 1_555
H9_4 C17_4 1_555 1_555
C18_4 C17_4 1_555 1_555
H10_4 C18_4 1_555 1_555
C19_4 C18_4 1_555 1_555
C20_4 C19_4 1_555 1_555
H11_4 C20_4 1_555 1_555
C21_4 N1_4 1_555 1_555
H12_4 C21_4 1_555 1_555
C44_4 N4_4 1_555 1_555
H25_4 C44_4 1_555 1_555
C45_4 C44_4 1_555 1_555
H26_4 C45_4 1_555 1_555
C47_4 C46_4 1_555 1_555
H27_4 C47_4 1_555 1_555
C48_4 N4_4 1_555 1_555
H28_4 C48_4 1_555 1_555
N5_2 Cd6_2 1_555 1_555
N6_2 Cd4_2 1_555 1_555
O6_4 C9_4 1_555 1_555
C6_4 C7_4 1_555 1_555
C14_4 C15_4 1_555 1_555
C20_4 C21_4 1_555 1_555
C45_4 C46_4 1_555 1_555
C47_4 C48_4 1_555 1_555
O9_2 C8_4 1_555 1_555
O10_2 C8_4 1_555 1_555
H2_4 C4_4 1_555 1_555
C5_4 C4_4 1_555 1_555
C8_4 C5_4 1_555 1_555
S1_4 C22_4 1_555 1_555
S2_4 C23_4 1_555 1_555
S3_4 C25_4 1_555 1_555
S4_4 C25_4 1_555 1_555
S5_4 C41_4 1_555 1_555
S6_4 C41_4 1_555 1_555
S7_4 C38_4 1_555 1_555
S8_4 C39_4 1_555 1_555
N5_2 C28_4 1_555 1_555
N6_2 C33_4 1_555 1_555
C23_4 C22_4 1_555 1_555
H13_4 C23_4 1_555 1_555
C24_4 S1_4 1_555 1_555
C25_4 C24_4 1_555 1_555
C26_4 S3_4 1_555 1_555
H14_4 C26_4 1_555 1_555
C27_4 S4_4 1_555 1_555
C28_4 H15_4 1_555 1_555
C29_4 C28_4 1_555 1_555
H16_4 C29_4 1_555 1_555
C30_4 C27_4 1_555 1_555
C31_4 C30_4 1_555 1_555
H17_4 C31_4 1_555 1_555
C32_4 N5_2 1_555 1_555
H18_4 C32_4 1_555 1_555
C33_4 H19_4 1_555 1_555
C34_4 C33_4 1_555 1_555
H20_4 C34_4 1_555 1_555
C35_4 C34_4 1_555 1_555
C36_4 C35_4 1_555 1_555
H21_4 C36_4 1_555 1_555
C37_4 N6_2 1_555 1_555
H22_4 C37_4 1_555 1_555
C38_4 C35_4 1_555 1_555
C39_4 C38_4 1_555 1_555
H23_4 C39_4 1_555 1_555
C40_4 S7_4 1_555 1_555
C41_4 C40_4 1_555 1_555
C42_4 S6_4 1_555 1_555
C43_4 S5_4 1_555 1_555
H24_4 C43_4 1_555 1_555
S2_4 C24_4 1_555 1_555
S8_4 C40_4 1_555 1_555
C26_4 C27_4 1_555 1_555
C29_4 C30_4 1_555 1_555
C31_4 C32_4 1_555 1_555
C36_4 C37_4 1_555 1_555
C42_4 C43_4 1_555 1_555

#END
