
###############################################################################
#
# This file contains modified crystal structure data generated from the
# MOF subset of the Cambridge Structural Database (CSD) v543 
# hosted by the Cambridge Crystallographic Data Centre (CCDC).
#
# This work is licensed under the Creative Commons
# Attribution-NonCommercial-ShareAlike 4.0 International License.
# To view a copy of this license, visit
# http://creativecommons.org/licenses/by-nc-sa/4.0/
# or send a letter to
# Creative Commons, PO Box 1866, Mountain View, CA 94042, USA.
#
# CIF created using the CSD Python API on 29 September 2022
# The structure has been converted into the P1 space group
# The structure has a 3D framework
# The original CSD entry PUNSOJ is in the monoclinic crystal system
# The framework has been calculated to contain at least 10.0% void space
# The void calculation uses a probe of radius 1.32A, grid spacing 0.4
#
###############################################################################

data_PUNSOJ
_chemical_formula_moiety         '(C240 H168 Cd14 N44 O52)n'
_symmetry_cell_setting           triclinic
_symmetry_space_group_name_H-M   'P 1'
_symmetry_Int_Tables_number      1
_space_group_name_Hall           'P 1'
loop_
_symmetry_equiv_pos_site_id
_symmetry_equiv_pos_as_xyz
1 x,y,z
_cell_length_a                   24.708(6)
_cell_length_b                   13.826(3)
_cell_length_c                   24.437(5)
_cell_angle_alpha                90
_cell_angle_beta                 113.117(4)
_cell_angle_gamma                90
_cell_volume                     7677.69
loop_
_atom_site_label
_atom_site_type_symbol
_atom_site_fract_x
_atom_site_fract_y
_atom_site_fract_z
H9 H 0.006948 0.025693 0.938301
N10 N 0.08084(15) 0.0107(2) 0.57969(14)
Cd8 Cd 0.11402(2) 0.15374(2) 0.55008(2)
H35 H 0.267749 0.018603 0.001102
H39 H 0.420240 0.322062 0.004859
C60 C 0.50782(16) 0.2038(3) 0.01021(15)
Cd3 Cd 0.61402(2) 0.34626(2) 0.05008(2)
O12 O 0.52825(12) 0.2815(2) 0.03667(13)
O14 O 0.64654(15) 0.2039(3) 0.02264(16)
H41 H 0.680049 0.176421 0.051082
H42 H 0.622689 0.150451 0.022151
N13 N 0.58084(15) 0.4893(2) 0.07969(14)
N16 N 0.66840(15) 0.3160(3) 0.14806(14)
O18 O 0.69588(12) 0.4427(2) 0.04349(12)
C8 C 0.0069(2) 0.4285(4) 0.86062(16)
H5 H 0.040250 0.395869 0.886002
H8 H 0.003094 0.867975 0.892267
Cd1 Cd 0.000000 0.29430(3) 0.750000
C31 C 0.10052(18) 0.6186(3) 0.68279(16)
C32 C 0.07503(18) 0.7018(3) 0.64997(16)
H22 H 0.035378 0.703054 0.624844
C33 C 0.11106(17) 0.7833(3) 0.65606(15)
C34 C 0.17012(18) 0.7824(3) 0.69399(16)
H23 H 0.193561 0.836680 0.697965
C35 C 0.19368(17) 0.6979(3) 0.72613(16)
C36 C 0.15979(18) 0.6154(3) 0.72085(16)
H24 H 0.176238 0.559655 0.742154
C37 C 0.06922(18) 0.4664(3) 0.71746(16)
H25 H 0.098621 0.465738 0.755602
C39 C 0.0150(2) 0.5102(4) 0.62536(17)
H27 H 0.000214 0.542875 0.589203
C40 C 0.11602(18) 0.9395(3) 0.60802(16)
H28 H 0.156042 0.937076 0.616094
C41 C 0.02828(18) 0.9005(3) 0.60408(18)
C42 C 0.02647(19) 0.9873(3) 0.57819(18)
C43 C 0.27591(18) 0.6619(3) 0.82255(17)
H31 H 0.253921 0.624615 0.837999
C44 C 0.29970(19) 0.7493(4) 0.76079(18)
H32 H 0.298227 0.783580 0.727495
C45 C 0.34735(19) 0.7384(4) 0.81256(18)
H33 H 0.384621 0.763434 0.820502
C46 C 0.10991(17) 0.2325(3) 0.83958(15)
C47 C 0.15534(17) 0.1702(3) 0.88637(14)
C48 C 0.13796(15) 0.0917(3) 0.91182(14)
H34 H 0.098349 0.075568 0.898857
C49 C 0.18035(16) 0.0375(3) 0.95690(15)
C50 C 0.23979(15) 0.0569(3) 0.97261(14)
C51 C 0.25840(16) 0.1331(3) 0.94636(15)
C52 C 0.21518(16) 0.1914(3) 0.90437(15)
H36 H 0.226614 0.244844 0.888380
C53 C 0.32235(16) 0.1511(3) 0.96267(14)
C54 C 0.36069(16) 0.0746(3) 0.96587(16)
H37 H 0.346113 0.011935 0.957658
C55 C 0.42032(17) 0.0916(3) 0.98119(16)
H38 H 0.445074 0.040428 0.982088
C56 C 0.44334(16) 0.1848(3) 0.99523(14)
C57 C 0.40521(17) 0.2601(3) 0.99380(15)
C58 C 0.34590(17) 0.2445(3) 0.97638(15)
H40 H 0.321062 0.296481 0.973631
N7 N 0.02743(15) 0.4007(3) 0.69693(13)
N8 N 0.06396(15) 0.5356(3) 0.67567(13)
N9 N 0.08586(15) 0.8695(2) 0.62403(13)
N11 N 0.25427(15) 0.7003(3) 0.76675(13)
N12 N 0.33160(15) 0.6840(3) 0.85194(14)
O8 O 0.05770(13) 0.1954(2) 0.81677(12)
O9 O 0.12298(14) 0.3126(2) 0.82585(12)
O13 O 0.53595(13) 0.1434(2) 0.99470(15)
Cd7 Cd 0.38598(2) 0.65374(2) 0.94992(2)
O16 O 0.61108(12) 0.4257(2) 0.96527(11)
O11 O 0.19588(12) 0.9427(2) 0.04349(12)
Cd5 Cd 0.11402(2) 0.84626(2) 0.05008(2)
N4 N 0.91916(15) 0.0107(2) 0.92031(14)
H30 H 0.993052 0.025693 0.561699
Cd9 Cd 0.88598(2) 0.15374(2) 0.94992(2)
C1 C 0.89948(18) 0.6186(3) 0.81721(16)
C2 C 0.92497(18) 0.7018(3) 0.85003(16)
H1 H 0.964622 0.703054 0.875156
C3 C 0.88894(17) 0.7833(3) 0.84394(15)
C4 C 0.82988(18) 0.7824(3) 0.80601(16)
H2 H 0.806439 0.836680 0.802035
C5 C 0.80632(17) 0.6979(3) 0.77387(16)
C6 C 0.84021(18) 0.6154(3) 0.77915(16)
H3 H 0.823762 0.559655 0.757846
C7 C 0.93078(18) 0.4664(3) 0.78254(16)
H4 H 0.901379 0.465738 0.744398
C9 C 0.9850(2) 0.5102(4) 0.87464(17)
H6 H 0.999786 0.542875 0.910797
C10 C 0.88398(18) 0.9395(3) 0.89198(16)
H7 H 0.843958 0.937076 0.883906
C11 C 0.97172(18) 0.9005(3) 0.89592(18)
C12 C 0.97353(19) 0.9873(3) 0.92181(18)
C13 C 0.72409(18) 0.6619(3) 0.67745(17)
H10 H 0.746079 0.624615 0.662001
C14 C 0.70030(19) 0.7493(4) 0.73921(18)
H11 H 0.701773 0.783580 0.772505
C15 C 0.65265(19) 0.7384(4) 0.68744(18)
H12 H 0.615379 0.763434 0.679498
C16 C 0.89009(17) 0.2325(3) 0.66042(15)
C17 C 0.84466(17) 0.1702(3) 0.61363(14)
C18 C 0.86204(15) 0.0917(3) 0.58818(14)
H13 H 0.901651 0.075568 0.601143
C19 C 0.81965(16) 0.0375(3) 0.54310(15)
C20 C 0.76021(15) 0.0569(3) 0.52739(14)
H14 H 0.732251 0.018603 0.498898
C21 C 0.74160(16) 0.1331(3) 0.55364(15)
C22 C 0.78482(16) 0.1914(3) 0.59563(15)
H15 H 0.773386 0.244844 0.611620
C23 C 0.67765(16) 0.1511(3) 0.53733(14)
C24 C 0.63931(16) 0.0746(3) 0.53413(16)
H16 H 0.653887 0.011935 0.542342
C25 C 0.57968(17) 0.0916(3) 0.51881(16)
H17 H 0.554926 0.040428 0.517912
C26 C 0.55666(16) 0.1848(3) 0.50477(14)
C27 C 0.59479(17) 0.2601(3) 0.50620(15)
H18 H 0.579760 0.322062 0.495141
C28 C 0.65410(17) 0.2445(3) 0.52362(15)
H19 H 0.678938 0.296481 0.526369
C30 C 0.49218(16) 0.2038(3) 0.48979(15)
Cd1_2 Cd 1.000000 0.29430(3) 0.750000
Cd2 Cd 0.38598(2) 0.34626(2) 0.44992(2)
N1 N 0.97257(15) 0.4007(3) 0.80307(13)
N2 N 0.93604(15) 0.5356(3) 0.82433(13)
N3 N 0.91414(15) 0.8695(2) 0.87597(13)
N5 N 0.74573(15) 0.7003(3) 0.73325(13)
N6 N 0.66840(15) 0.6840(3) 0.64806(14)
O1 O 0.94230(13) 0.1954(2) 0.68323(12)
O2 O 0.87702(14) 0.3126(2) 0.67415(12)
O5 O 0.47175(12) 0.2815(2) 0.46333(13)
O6 O 0.46405(13) 0.1434(2) 0.50530(15)
O7 O 0.35346(15) 0.2039(3) 0.47736(16)
H20 H 0.319951 0.176421 0.448918
H21 H 0.377311 0.150451 0.477849
C38 C 0.9931(2) 0.4285(4) 0.63938(16)
H26 H 0.959750 0.395869 0.613998
H29 H 0.996906 0.867975 0.607733
Cd6 Cd 0.61402(2) 0.65374(2) 0.55008(2)
N14 N 0.41916(15) 0.4893(2) 0.42031(14)
N15 N 0.33160(15) 0.3160(3) 0.35194(14)
O15 O 0.38892(12) 0.4257(2) 0.53473(11)
O17 O 0.30412(12) 0.4427(2) 0.45651(12)
C29 C 0.83880(18) 0.9619(3) 0.50957(17)
O3 O 0.88892(12) 0.9257(2) 0.53473(11)
O4 O 0.80412(12) 0.9427(2) 0.45651(12)
Cd4 Cd 0.88598(2) 0.84626(2) 0.44992(2)
C60_2 C 0.00782(16) 0.7038(3) 0.01021(15)
O12_2 O 0.02825(12) 0.7815(2) 0.03667(13)
O14_2 O 0.14654(15) 0.7039(3) 0.02264(16)
H41_2 H 0.180049 0.676421 0.051082
H42_2 H 0.122689 0.650451 0.022151
N13_2 N 0.08084(15) 0.9893(2) 0.07969(14)
N16_2 N 0.16840(15) 0.8160(3) 0.14806(14)
C1_2 C 0.39948(18) 0.1186(3) 0.81721(16)
C2_2 C 0.42497(18) 0.2018(3) 0.85003(16)
H1_2 H 0.464622 0.203054 0.875156
C3_2 C 0.38894(17) 0.2833(3) 0.84394(15)
C4_2 C 0.32988(18) 0.2824(3) 0.80601(16)
H2_2 H 0.306439 0.336680 0.802035
C5_2 C 0.30632(17) 0.1979(3) 0.77387(16)
C6_2 C 0.34021(18) 0.1154(3) 0.77915(16)
H3_2 H 0.323762 0.059655 0.757846
C9_2 C 0.4850(2) 0.0102(4) 0.87464(17)
H6_2 H 0.499786 0.042875 0.910797
C10_2 C 0.38398(18) 0.4395(3) 0.89198(16)
H7_2 H 0.343958 0.437076 0.883906
C11_2 C 0.47172(18) 0.4005(3) 0.89592(18)
H8_2 H 0.503094 0.367975 0.892267
C12_2 C 0.47353(19) 0.4873(3) 0.92181(18)
H9_2 H 0.506948 0.525693 0.938301
C13_2 C 0.22409(18) 0.1619(3) 0.67745(17)
H10_2 H 0.246079 0.124615 0.662001
C14_2 C 0.20030(19) 0.2493(4) 0.73921(18)
H11_2 H 0.201773 0.283580 0.772505
C15_2 C 0.15265(19) 0.2384(4) 0.68744(18)
H12_2 H 0.115379 0.263434 0.679498
N2_2 N 0.43604(15) 0.0356(3) 0.82433(13)
N3_2 N 0.41414(15) 0.3695(2) 0.87597(13)
N4_2 N 0.41916(15) 0.5107(2) 0.92031(14)
N5_2 N 0.24573(15) 0.2003(3) 0.73325(13)
N6_2 N 0.16840(15) 0.1840(3) 0.64806(14)
C31_2 C 0.60052(18) 0.1186(3) 0.68279(16)
C32_2 C 0.57503(18) 0.2018(3) 0.64997(16)
H22_2 H 0.535378 0.203054 0.624844
C33_2 C 0.61106(17) 0.2833(3) 0.65606(15)
C34_2 C 0.67012(18) 0.2824(3) 0.69399(16)
H23_2 H 0.693561 0.336680 0.697965
C35_2 C 0.69368(17) 0.1979(3) 0.72613(16)
C36_2 C 0.65979(18) 0.1154(3) 0.72085(16)
H24_2 H 0.676238 0.059655 0.742154
C39_2 C 0.5150(2) 0.0102(4) 0.62536(17)
H27_2 H 0.500214 0.042875 0.589203
C40_2 C 0.61602(18) 0.4395(3) 0.60802(16)
H28_2 H 0.656042 0.437076 0.616094
C41_2 C 0.52828(18) 0.4005(3) 0.60408(18)
H29_2 H 0.496906 0.367975 0.607733
C42_2 C 0.52647(19) 0.4873(3) 0.57819(18)
H30_2 H 0.493052 0.525693 0.561699
C43_2 C 0.77591(18) 0.1619(3) 0.82255(17)
H31_2 H 0.753921 0.124615 0.837999
C44_2 C 0.79970(19) 0.2493(4) 0.76079(18)
H32_2 H 0.798227 0.283580 0.727495
C45_2 C 0.84735(19) 0.2384(4) 0.81256(18)
H33_2 H 0.884621 0.263434 0.820502
N8_2 N 0.56396(15) 0.0356(3) 0.67567(13)
N9_2 N 0.58586(15) 0.3695(2) 0.62403(13)
N10_2 N 0.58084(15) 0.5107(2) 0.57969(14)
N11_2 N 0.75427(15) 0.2003(3) 0.76675(13)
N12_2 N 0.83160(15) 0.1840(3) 0.85194(14)
H35_2 H 0.767749 0.518603 0.001102
H39_2 H 0.920240 0.822062 0.004859
C7_2 C 0.43078(18) 0.9664(3) 0.78254(16)
H4_2 H 0.401379 0.965738 0.744398
C8_2 C 0.5069(2) 0.9285(4) 0.86062(16)
H5_2 H 0.540250 0.895869 0.886002
C16_2 C 0.39009(17) 0.7325(3) 0.66042(15)
C17_2 C 0.34466(17) 0.6702(3) 0.61363(14)
C18_2 C 0.36204(15) 0.5917(3) 0.58818(14)
H13_2 H 0.401651 0.575568 0.601143
C19_2 C 0.31965(16) 0.5375(3) 0.54310(15)
C20_2 C 0.26021(15) 0.5569(3) 0.52739(14)
H14_2 H 0.232251 0.518603 0.498898
C21_2 C 0.24160(16) 0.6331(3) 0.55364(15)
C22_2 C 0.28482(16) 0.6914(3) 0.59563(15)
H15_2 H 0.273386 0.744844 0.611620
C23_2 C 0.17765(16) 0.6511(3) 0.53733(14)
C24_2 C 0.13931(16) 0.5746(3) 0.53413(16)
H16_2 H 0.153887 0.511935 0.542342
C25_2 C 0.07968(17) 0.5916(3) 0.51881(16)
H17_2 H 0.054926 0.540428 0.517912
C26_2 C 0.05666(16) 0.6848(3) 0.50477(14)
C27_2 C 0.09479(17) 0.7601(3) 0.50620(15)
H18_2 H 0.079760 0.822062 0.495141
C28_2 C 0.15410(17) 0.7445(3) 0.52362(15)
H19_2 H 0.178938 0.796481 0.526369
C29_2 C 0.33880(18) 0.4619(3) 0.50957(17)
Cd1_3 Cd 0.500000 0.79430(3) 0.750000
N1_2 N 0.47257(15) 0.9007(3) 0.80307(13)
O1_2 O 0.44230(13) 0.6954(2) 0.68323(12)
O2_2 O 0.37702(14) 0.8126(2) 0.67415(12)
C37_2 C 0.56922(18) 0.9664(3) 0.71746(16)
H25_2 H 0.598621 0.965738 0.755602
C38_2 C 0.4931(2) 0.9285(4) 0.63938(16)
H26_2 H 0.459750 0.895869 0.613998
C46_2 C 0.60991(17) 0.7325(3) 0.83958(15)
C47_2 C 0.65534(17) 0.6702(3) 0.88637(14)
C48_2 C 0.63796(15) 0.5917(3) 0.91182(14)
H34_2 H 0.598349 0.575568 0.898857
C49_2 C 0.68035(16) 0.5375(3) 0.95690(15)
C50_2 C 0.73979(15) 0.5569(3) 0.97261(14)
C51_2 C 0.75840(16) 0.6331(3) 0.94636(15)
C52_2 C 0.71518(16) 0.6914(3) 0.90437(15)
H36_2 H 0.726614 0.744844 0.888380
C53_2 C 0.82235(16) 0.6511(3) 0.96267(14)
C54_2 C 0.86069(16) 0.5746(3) 0.96587(16)
H37_2 H 0.846113 0.511935 0.957658
C55_2 C 0.92032(17) 0.5916(3) 0.98119(16)
H38_2 H 0.945074 0.540428 0.982088
C56_2 C 0.94334(16) 0.6848(3) 0.99523(14)
C57_2 C 0.90521(17) 0.7601(3) 0.99380(15)
C58_2 C 0.84590(17) 0.7445(3) 0.97638(15)
H40_2 H 0.821062 0.796481 0.973631
C59 C 0.66120(18) 0.4619(3) 0.99043(17)
N7_2 N 0.52743(15) 0.9007(3) 0.69693(13)
O8_2 O 0.55770(13) 0.6954(2) 0.81677(12)
O9_2 O 0.62298(14) 0.8126(2) 0.82585(12)
C30_2 C 0.99218(16) 0.7038(3) 0.48979(15)
O5_2 O 0.97175(12) 0.7815(2) 0.46333(13)
O6_2 O 0.96405(13) 0.6434(2) 0.50530(15)
O7_2 O 0.85346(15) 0.7039(3) 0.47736(16)
H20_2 H 0.819951 0.676421 0.448918
H21_2 H 0.877311 0.650451 0.477849
N14_2 N 0.91916(15) 0.9893(2) 0.42031(14)
N15_2 N 0.83160(15) 0.8160(3) 0.35194(14)
C29_3 C 0.16120(18) 0.0381(3) 0.49043(17)
O3_2 O 0.11108(12) 0.0743(2) 0.46527(11)
O4_2 O 0.19588(12) 0.0573(2) 0.54349(12)
C1_3 C 0.10052(18) 0.3814(3) 0.18279(16)
C2_3 C 0.07503(18) 0.2982(3) 0.14997(16)
H1_3 H 0.035378 0.296946 0.124844
C3_3 C 0.11106(17) 0.2167(3) 0.15606(15)
C4_3 C 0.17012(18) 0.2176(3) 0.19399(16)
H2_3 H 0.193561 0.163320 0.197965
C5_3 C 0.19368(17) 0.3021(3) 0.22613(16)
C6_3 C 0.15979(18) 0.3846(3) 0.22085(16)
H3_3 H 0.176238 0.440345 0.242154
C7_3 C 0.06922(18) 0.5336(3) 0.21746(16)
H4_3 H 0.098621 0.534262 0.255602
C9_3 C 0.0150(2) 0.4898(4) 0.12536(17)
H6_3 H 0.000214 0.457125 0.089203
C10_3 C 0.11602(18) 0.0605(3) 0.10802(16)
H7_3 H 0.156042 0.062924 0.116094
C11_3 C 0.02828(18) 0.0995(3) 0.10408(18)
C12_3 C 0.02647(19) 0.0127(3) 0.07819(18)
C13_3 C 0.27591(18) 0.3381(3) 0.32255(17)
H10_3 H 0.253921 0.375385 0.337999
C14_3 C 0.29970(19) 0.2507(4) 0.26079(18)
H11_3 H 0.298227 0.216420 0.227495
C15_3 C 0.34735(19) 0.2616(4) 0.31256(18)
H12_3 H 0.384621 0.236566 0.320502
C16_3 C 0.10991(17) 0.7675(3) 0.33958(15)
C17_3 C 0.15534(17) 0.8298(3) 0.38637(14)
C18_3 C 0.13796(15) 0.9083(3) 0.41182(14)
H13_3 H 0.098349 0.924432 0.398857
C19_3 C 0.18035(16) 0.9625(3) 0.45690(15)
C20_3 C 0.23979(15) 0.9431(3) 0.47261(14)
H14_3 H 0.267749 0.981397 0.501102
C21_3 C 0.25840(16) 0.8669(3) 0.44636(15)
C22_3 C 0.21518(16) 0.8086(3) 0.40437(15)
H15_3 H 0.226614 0.755156 0.388380
C23_3 C 0.32235(16) 0.8489(3) 0.46267(14)
C24_3 C 0.36069(16) 0.9254(3) 0.46587(16)
H16_3 H 0.346113 0.988065 0.457658
C25_3 C 0.42032(17) 0.9084(3) 0.48119(16)
H17_3 H 0.445074 0.959572 0.482088
C26_3 C 0.44334(16) 0.8152(3) 0.49523(14)
C27_3 C 0.40521(17) 0.7399(3) 0.49380(15)
H18_3 H 0.420240 0.677938 0.504859
C28_3 C 0.34590(17) 0.7555(3) 0.47638(15)
H19_3 H 0.321062 0.703519 0.473631
C30_3 C 0.50782(16) 0.7962(3) 0.51021(15)
Cd1_4 Cd 0.000000 0.70570(3) 0.250000
N1_3 N 0.02743(15) 0.5993(3) 0.19693(13)
N2_3 N 0.06396(15) 0.4644(3) 0.17567(13)
N3_3 N 0.08586(15) 0.1305(2) 0.12403(13)
N5_3 N 0.25427(15) 0.2997(3) 0.26675(13)
O1_3 O 0.05770(13) 0.8046(2) 0.31677(12)
O2_3 O 0.12298(14) 0.6874(2) 0.32585(12)
O5_3 O 0.52825(12) 0.7185(2) 0.53667(13)
O6_3 O 0.53595(13) 0.8566(2) 0.49470(15)
O7_3 O 0.64654(15) 0.7961(3) 0.52264(16)
H20_3 H 0.680049 0.823579 0.551082
H21_3 H 0.622689 0.849549 0.522151
C38_3 C 0.0069(2) 0.5715(4) 0.36062(16)
H26_3 H 0.040250 0.604131 0.386002
H29_3 H 0.003094 0.132025 0.392267
O15_2 O 0.61108(12) 0.5743(2) 0.46527(11)
O17_2 O 0.69588(12) 0.5573(2) 0.54349(12)
H30_3 H 0.006948 0.974307 0.438301
O11_2 O 0.80412(12) 0.0573(2) 0.95651(12)
C8_3 C 0.9931(2) 0.5715(4) 0.13938(16)
H5_3 H 0.959750 0.604131 0.113998
H8_3 H 0.996906 0.132025 0.107733
Cd1_5 Cd 1.000000 0.70570(3) 0.250000
C31_3 C 0.89948(18) 0.3814(3) 0.31721(16)
C32_3 C 0.92497(18) 0.2982(3) 0.35003(16)
H22_3 H 0.964622 0.296946 0.375156
C33_3 C 0.88894(17) 0.2167(3) 0.34394(15)
C34_3 C 0.82988(18) 0.2176(3) 0.30601(16)
H23_3 H 0.806439 0.163320 0.302035
C35_3 C 0.80632(17) 0.3021(3) 0.27387(16)
C36_3 C 0.84021(18) 0.3846(3) 0.27915(16)
H24_3 H 0.823762 0.440345 0.257846
C37_3 C 0.93078(18) 0.5336(3) 0.28254(16)
H25_3 H 0.901379 0.534262 0.244398
C39_3 C 0.9850(2) 0.4898(4) 0.37464(17)
H27_3 H 0.999786 0.457125 0.410797
C40_3 C 0.88398(18) 0.0605(3) 0.39198(16)
H28_3 H 0.843958 0.062924 0.383906
C41_3 C 0.97172(18) 0.0995(3) 0.39592(18)
C42_3 C 0.97353(19) 0.0127(3) 0.42181(18)
C43_3 C 0.72409(18) 0.3381(3) 0.17745(17)
H31_3 H 0.746079 0.375385 0.162001
C44_3 C 0.70030(19) 0.2507(4) 0.23921(18)
H32_3 H 0.701773 0.216420 0.272505
C45_3 C 0.65265(19) 0.2616(4) 0.18744(18)
H33_3 H 0.615379 0.236566 0.179498
C46_3 C 0.89009(17) 0.7675(3) 0.16042(15)
C47_3 C 0.84466(17) 0.8298(3) 0.11363(14)
C48_3 C 0.86204(15) 0.9083(3) 0.08818(14)
H34_3 H 0.901651 0.924432 0.101143
C49_3 C 0.81965(16) 0.9625(3) 0.04310(15)
C50_3 C 0.76021(15) 0.9431(3) 0.02739(14)
C51_3 C 0.74160(16) 0.8669(3) 0.05364(15)
C52_3 C 0.78482(16) 0.8086(3) 0.09563(15)
H36_3 H 0.773386 0.755156 0.111620
C53_3 C 0.67765(16) 0.8489(3) 0.03733(14)
C54_3 C 0.63931(16) 0.9254(3) 0.03413(16)
H37_3 H 0.653887 0.988065 0.042342
C55_3 C 0.57968(17) 0.9084(3) 0.01881(16)
H38_3 H 0.554926 0.959572 0.017912
C56_3 C 0.55666(16) 0.8152(3) 0.00477(14)
C57_3 C 0.59479(17) 0.7399(3) 0.00620(15)
C58_3 C 0.65410(17) 0.7555(3) 0.02362(15)
H40_3 H 0.678938 0.703519 0.026369
N7_3 N 0.97257(15) 0.5993(3) 0.30307(13)
N8_3 N 0.93604(15) 0.4644(3) 0.32433(13)
N9_3 N 0.91414(15) 0.1305(2) 0.37597(13)
N11_3 N 0.74573(15) 0.2997(3) 0.23325(13)
O8_3 O 0.94230(13) 0.8046(2) 0.18323(12)
O9_3 O 0.87702(14) 0.6874(2) 0.17415(12)
O13_2 O 0.46405(13) 0.8566(2) 0.00530(15)
O16_2 O 0.38892(12) 0.5743(2) 0.03473(11)
H35_3 H 0.732251 0.981397 0.998898
H39_3 H 0.579760 0.677938 0.995141
C60_3 C 0.49218(16) 0.7962(3) 0.98979(15)
O12_3 O 0.47175(12) 0.7185(2) 0.96333(13)
O14_3 O 0.35346(15) 0.7961(3) 0.97736(16)
H41_3 H 0.319951 0.823579 0.948918
H42_3 H 0.377311 0.849549 0.977849
O18_2 O 0.30412(12) 0.5573(2) 0.95651(12)
H9_3 H 0.993052 0.974307 0.061699
C30_4 C 0.00782(16) 0.2962(3) 0.51021(15)
O5_4 O 0.02825(12) 0.2185(2) 0.53667(13)
O6_4 O 0.03595(13) 0.3566(2) 0.49470(15)
O7_4 O 0.14654(15) 0.2961(3) 0.52264(16)
H20_4 H 0.180049 0.323579 0.551082
H21_4 H 0.122689 0.349549 0.522151
C7_4 C 0.56922(18) 0.0336(3) 0.21746(16)
H4_4 H 0.598621 0.034262 0.255602
C8_4 C 0.4931(2) 0.0715(4) 0.13938(16)
H5_4 H 0.459750 0.104131 0.113998
C16_4 C 0.60991(17) 0.2675(3) 0.33958(15)
C17_4 C 0.65534(17) 0.3298(3) 0.38637(14)
C18_4 C 0.63796(15) 0.4083(3) 0.41182(14)
H13_4 H 0.598349 0.424432 0.398857
C19_4 C 0.68035(16) 0.4625(3) 0.45690(15)
C20_4 C 0.73979(15) 0.4431(3) 0.47261(14)
H14_4 H 0.767749 0.481397 0.501102
C21_4 C 0.75840(16) 0.3669(3) 0.44636(15)
C22_4 C 0.71518(16) 0.3086(3) 0.40437(15)
H15_4 H 0.726614 0.255156 0.388380
C23_4 C 0.82235(16) 0.3489(3) 0.46267(14)
C24_4 C 0.86069(16) 0.4254(3) 0.46587(16)
H16_4 H 0.846113 0.488065 0.457658
C25_4 C 0.92032(17) 0.4084(3) 0.48119(16)
H17_4 H 0.945074 0.459572 0.482088
C26_4 C 0.94334(16) 0.3152(3) 0.49523(14)
C27_4 C 0.90521(17) 0.2399(3) 0.49380(15)
H18_4 H 0.920240 0.177938 0.504859
C28_4 C 0.84590(17) 0.2555(3) 0.47638(15)
H19_4 H 0.821062 0.203519 0.473631
C29_4 C 0.66120(18) 0.5381(3) 0.49043(17)
Cd1_6 Cd 0.500000 0.20570(3) 0.250000
N1_4 N 0.52743(15) 0.0993(3) 0.19693(13)
O1_4 O 0.55770(13) 0.3046(2) 0.31677(12)
O2_4 O 0.62298(14) 0.1874(2) 0.32585(12)
C37_4 C 0.43078(18) 0.0336(3) 0.28254(16)
H25_4 H 0.401379 0.034262 0.244398
C38_4 C 0.5069(2) 0.0715(4) 0.36062(16)
H26_4 H 0.540250 0.104131 0.386002
C46_4 C 0.39009(17) 0.2675(3) 0.16042(15)
C47_4 C 0.34466(17) 0.3298(3) 0.11363(14)
C48_4 C 0.36204(15) 0.4083(3) 0.08818(14)
H34_4 H 0.401651 0.424432 0.101143
C49_4 C 0.31965(16) 0.4625(3) 0.04310(15)
C50_4 C 0.26021(15) 0.4431(3) 0.02739(14)
C51_4 C 0.24160(16) 0.3669(3) 0.05364(15)
C52_4 C 0.28482(16) 0.3086(3) 0.09563(15)
H36_4 H 0.273386 0.255156 0.111620
C53_4 C 0.17765(16) 0.3489(3) 0.03733(14)
C54_4 C 0.13931(16) 0.4254(3) 0.03413(16)
H37_4 H 0.153887 0.488065 0.042342
C55_4 C 0.07968(17) 0.4084(3) 0.01881(16)
H38_4 H 0.054926 0.459572 0.017912
C56_4 C 0.05666(16) 0.3152(3) 0.00477(14)
C57_4 C 0.09479(17) 0.2399(3) 0.00620(15)
C58_4 C 0.15410(17) 0.2555(3) 0.02362(15)
H40_4 H 0.178938 0.203519 0.026369
C59_2 C 0.33880(18) 0.5381(3) 0.00957(17)
N7_4 N 0.47257(15) 0.0993(3) 0.30307(13)
O8_4 O 0.44230(13) 0.3046(2) 0.18323(12)
O9_4 O 0.37702(14) 0.1874(2) 0.17415(12)
H35_4 H 0.232251 0.481397 0.998898
H39_4 H 0.079760 0.177938 0.995141
C1_4 C 0.60052(18) 0.8814(3) 0.18279(16)
C2_4 C 0.57503(18) 0.7982(3) 0.14997(16)
H1_4 H 0.535378 0.796946 0.124844
C3_4 C 0.61106(17) 0.7167(3) 0.15606(15)
C4_4 C 0.67012(18) 0.7176(3) 0.19399(16)
H2_4 H 0.693561 0.663320 0.197965
C5_4 C 0.69368(17) 0.8021(3) 0.22613(16)
C6_4 C 0.65979(18) 0.8846(3) 0.22085(16)
H3_4 H 0.676238 0.940345 0.242154
C9_4 C 0.5150(2) 0.9898(4) 0.12536(17)
H6_4 H 0.500214 0.957125 0.089203
C10_4 C 0.61602(18) 0.5605(3) 0.10802(16)
H7_4 H 0.656042 0.562924 0.116094
C11_4 C 0.52828(18) 0.5995(3) 0.10408(18)
H8_4 H 0.496906 0.632025 0.107733
C12_4 C 0.52647(19) 0.5127(3) 0.07819(18)
H9_4 H 0.493052 0.474307 0.061699
C13_4 C 0.77591(18) 0.8381(3) 0.32255(17)
H10_4 H 0.753921 0.875385 0.337999
C14_4 C 0.79970(19) 0.7507(4) 0.26079(18)
H11_4 H 0.798227 0.716420 0.227495
C15_4 C 0.84735(19) 0.7616(4) 0.31256(18)
H12_4 H 0.884621 0.736566 0.320502
N2_4 N 0.56396(15) 0.9644(3) 0.17567(13)
N3_4 N 0.58586(15) 0.6305(2) 0.12403(13)
N5_4 N 0.75427(15) 0.7997(3) 0.26675(13)
C31_4 C 0.39948(18) 0.8814(3) 0.31721(16)
C32_4 C 0.42497(18) 0.7982(3) 0.35003(16)
H22_4 H 0.464622 0.796946 0.375156
C33_4 C 0.38894(17) 0.7167(3) 0.34394(15)
C34_4 C 0.32988(18) 0.7176(3) 0.30601(16)
H23_4 H 0.306439 0.663320 0.302035
C35_4 C 0.30632(17) 0.8021(3) 0.27387(16)
C36_4 C 0.34021(18) 0.8846(3) 0.27915(16)
H24_4 H 0.323762 0.940345 0.257846
C39_4 C 0.4850(2) 0.9898(4) 0.37464(17)
H27_4 H 0.499786 0.957125 0.410797
C40_4 C 0.38398(18) 0.5605(3) 0.39198(16)
H28_4 H 0.343958 0.562924 0.383906
C41_4 C 0.47172(18) 0.5995(3) 0.39592(18)
H29_4 H 0.503094 0.632025 0.392267
C42_4 C 0.47353(19) 0.5127(3) 0.42181(18)
H30_4 H 0.506948 0.474307 0.438301
C43_4 C 0.22409(18) 0.8381(3) 0.17745(17)
H31_4 H 0.246079 0.875385 0.162001
C44_4 C 0.20030(19) 0.7507(4) 0.23921(18)
H32_4 H 0.201773 0.716420 0.272505
C45_4 C 0.15265(19) 0.7616(4) 0.18744(18)
H33_4 H 0.115379 0.736566 0.179498
N8_4 N 0.43604(15) 0.9644(3) 0.32433(13)
N9_4 N 0.41414(15) 0.6305(2) 0.37597(13)
N11_4 N 0.24573(15) 0.7997(3) 0.23325(13)
C60_4 C 0.99218(16) 0.2962(3) 0.98979(15)
O12_4 O 0.97175(12) 0.2185(2) 0.96333(13)
O14_4 O 0.85346(15) 0.2961(3) 0.97736(16)
H41_4 H 0.819951 0.323579 0.948918
H42_4 H 0.877311 0.349549 0.977849
C59_3 C 0.16120(18) 0.9619(3) 0.99043(17)
O10 O 0.11108(12) 0.9257(2) 0.96527(11)
O13_3 O 0.03595(13) 0.6434(2) 0.99470(15)
C59_4 C 0.83880(18) 0.0381(3) 0.00957(17)
O10_2 O 0.88892(12) 0.0743(2) 0.03473(11)
O13_4 O 0.96405(13) 0.3566(2) 0.00530(15)
loop_
_geom_bond_atom_site_label_1
_geom_bond_atom_site_label_2
_geom_bond_site_symmetry_1
_geom_bond_site_symmetry_2
Cd8 N10 1_555 1_555
Cd3 O12 1_555 1_555
O12 C60 1_555 1_555
O14 Cd3 1_555 1_555
H41 O14 1_555 1_555
H42 O14 1_555 1_555
N13 Cd3 1_555 1_555
N16 Cd3 1_555 1_555
O18 Cd3 1_555 1_555
C8 H5 1_555 1_555
C31 C32 1_555 1_555
C32 H22 1_555 1_555
C33 C32 1_555 1_555
C34 C33 1_555 1_555
H23 C34 1_555 1_555
C35 C34 1_555 1_555
C36 C31 1_555 1_555
H24 C36 1_555 1_555
C37 H25 1_555 1_555
H27 C39 1_555 1_555
C40 H28 1_555 1_555
C42 C41 1_555 1_555
C43 H31 1_555 1_555
C44 H32 1_555 1_555
C45 C44 1_555 1_555
H33 C45 1_555 1_555
C46 C47 1_555 1_555
C47 C48 1_555 1_555
C48 H34 1_555 1_555
C49 C48 1_555 1_555
C50 C49 1_555 1_555
C51 C50 1_555 1_555
C52 C47 1_555 1_555
H36 C52 1_555 1_555
C53 C51 1_555 1_555
C54 C53 1_555 1_555
H37 C54 1_555 1_555
C55 C54 1_555 1_555
H38 C55 1_555 1_555
C56 C55 1_555 1_555
C57 C56 1_555 1_555
C58 C53 1_555 1_555
H40 C58 1_555 1_555
N7 Cd1 1_555 1_555
N8 C31 1_555 1_555
N9 C33 1_555 1_555
N11 C35 1_555 1_555
N12 C43 1_555 1_555
O8 Cd1 1_555 1_555
O9 C46 1_555 1_555
Cd7 N12 1_555 1_555
C35 C36 1_555 1_555
C37 N7 1_555 1_555
C37 N8 1_555 1_555
C39 N8 1_555 1_555
C40 N9 1_555 1_555
C41 N9 1_555 1_555
C43 N11 1_555 1_555
C44 N11 1_555 1_555
C45 N12 1_555 1_555
C46 O8 1_555 1_555
C51 C52 1_555 1_555
C57 C58 1_555 1_555
O11 Cd5 1_555 1_555
Cd9 N4 1_555 1_555
C1 C2 1_555 1_555
C2 H1 1_555 1_555
C3 C2 1_555 1_555
C4 C3 1_555 1_555
H2 C4 1_555 1_555
C5 C4 1_555 1_555
C6 C1 1_555 1_555
H3 C6 1_555 1_555
C7 H4 1_555 1_555
H6 C9 1_555 1_555
C10 H7 1_555 1_555
C12 C11 1_555 1_555
C13 H10 1_555 1_555
C14 H11 1_555 1_555
C15 C14 1_555 1_555
H12 C15 1_555 1_555
C16 C17 1_555 1_555
C17 C18 1_555 1_555
C18 H13 1_555 1_555
C19 C18 1_555 1_555
C20 C19 1_555 1_555
H14 C20 1_555 1_555
C21 C20 1_555 1_555
C22 C17 1_555 1_555
H15 C22 1_555 1_555
C23 C21 1_555 1_555
C24 C23 1_555 1_555
H16 C24 1_555 1_555
C25 C24 1_555 1_555
H17 C25 1_555 1_555
C26 C25 1_555 1_555
C27 C26 1_555 1_555
H18 C27 1_555 1_555
C28 C23 1_555 1_555
H19 C28 1_555 1_555
C30 C26 1_555 1_555
Cd1_2 N1 1_555 1_555
Cd2 O5 1_555 1_555
N1 C7 1_555 1_555
N2 C1 1_555 1_555
N3 C3 1_555 1_555
N5 C5 1_555 1_555
N6 C13 1_555 1_555
O1 C16 1_555 1_555
O2 C16 1_555 1_555
O5 C30 1_555 1_555
O6 C30 1_555 1_555
O7 Cd2 1_555 1_555
H20 O7 1_555 1_555
H21 O7 1_555 1_555
C38 H26 1_555 1_555
Cd6 N6 1_555 1_555
N14 Cd2 1_555 1_555
N15 Cd2 1_555 1_555
O15 Cd2 1_555 1_555
O17 Cd2 1_555 1_555
C5 C6 1_555 1_555
C7 N2 1_555 1_555
C9 N2 1_555 1_555
C10 N3 1_555 1_555
C11 N3 1_555 1_555
C13 N5 1_555 1_555
C14 N5 1_555 1_555
C15 N6 1_555 1_555
C21 C22 1_555 1_555
C27 C28 1_555 1_555
Cd1_2 O1 1_555 1_555
O3 C29 1_555 1_555
O4 C29 1_555 1_555
Cd4 O3 1_555 1_555
O4 Cd4 1_555 1_555
Cd5 O12_2 1_555 1_555
O12_2 C60_2 1_555 1_555
O14_2 Cd5 1_555 1_555
H41_2 O14_2 1_555 1_555
H42_2 O14_2 1_555 1_555
N13_2 Cd5 1_555 1_555
N16_2 Cd5 1_555 1_555
C1_2 C2_2 1_555 1_555
C2_2 H1_2 1_555 1_555
C3_2 C2_2 1_555 1_555
C4_2 C3_2 1_555 1_555
H2_2 C4_2 1_555 1_555
C5_2 C4_2 1_555 1_555
C6_2 C1_2 1_555 1_555
H3_2 C6_2 1_555 1_555
H6_2 C9_2 1_555 1_555
C10_2 H7_2 1_555 1_555
C11_2 H8_2 1_555 1_555
C12_2 C11_2 1_555 1_555
H9_2 C12_2 1_555 1_555
C13_2 H10_2 1_555 1_555
C14_2 H11_2 1_555 1_555
C15_2 C14_2 1_555 1_555
H12_2 C15_2 1_555 1_555
N2_2 C1_2 1_555 1_555
N3_2 C3_2 1_555 1_555
N4_2 C10_2 1_555 1_555
N5_2 C5_2 1_555 1_555
N6_2 C13_2 1_555 1_555
C31_2 C32_2 1_555 1_555
C32_2 H22_2 1_555 1_555
C33_2 C32_2 1_555 1_555
C34_2 C33_2 1_555 1_555
H23_2 C34_2 1_555 1_555
C35_2 C34_2 1_555 1_555
C36_2 C31_2 1_555 1_555
H24_2 C36_2 1_555 1_555
H27_2 C39_2 1_555 1_555
C40_2 H28_2 1_555 1_555
C41_2 H29_2 1_555 1_555
C42_2 C41_2 1_555 1_555
H30_2 C42_2 1_555 1_555
C43_2 H31_2 1_555 1_555
C44_2 H32_2 1_555 1_555
C45_2 C44_2 1_555 1_555
H33_2 C45_2 1_555 1_555
N8_2 C31_2 1_555 1_555
N9_2 C33_2 1_555 1_555
N10_2 C40_2 1_555 1_555
N11_2 C35_2 1_555 1_555
N12_2 C43_2 1_555 1_555
Cd8 N6_2 1_555 1_555
Cd9 N12_2 1_555 1_555
Cd6 N10_2 1_555 1_555
Cd7 N4_2 1_555 1_555
C5_2 C6_2 1_555 1_555
C9_2 N2_2 1_555 1_555
C10_2 N3_2 1_555 1_555
C11_2 N3_2 1_555 1_555
C12_2 N4_2 1_555 1_555
C13_2 N5_2 1_555 1_555
C14_2 N5_2 1_555 1_555
C15_2 N6_2 1_555 1_555
C35_2 C36_2 1_555 1_555
C39_2 N8_2 1_555 1_555
C40_2 N9_2 1_555 1_555
C41_2 N9_2 1_555 1_555
C42_2 N10_2 1_555 1_555
C43_2 N11_2 1_555 1_555
C44_2 N11_2 1_555 1_555
C45_2 N12_2 1_555 1_555
C7_2 H4_2 1_555 1_555
C8_2 H5_2 1_555 1_555
C16_2 C17_2 1_555 1_555
C17_2 C18_2 1_555 1_555
C18_2 H13_2 1_555 1_555
C19_2 C18_2 1_555 1_555
C20_2 C19_2 1_555 1_555
H14_2 C20_2 1_555 1_555
C21_2 C20_2 1_555 1_555
C22_2 C17_2 1_555 1_555
H15_2 C22_2 1_555 1_555
C23_2 C21_2 1_555 1_555
C24_2 C23_2 1_555 1_555
H16_2 C24_2 1_555 1_555
C25_2 C24_2 1_555 1_555
H17_2 C25_2 1_555 1_555
C26_2 C25_2 1_555 1_555
C27_2 C26_2 1_555 1_555
H18_2 C27_2 1_555 1_555
C28_2 C23_2 1_555 1_555
H19_2 C28_2 1_555 1_555
C29_2 C19_2 1_555 1_555
Cd1_3 N1_2 1_555 1_555
N1_2 C7_2 1_555 1_555
O1_2 C16_2 1_555 1_555
O2_2 C16_2 1_555 1_555
O15 C29_2 1_555 1_555
O17 C29_2 1_555 1_555
C37_2 H25_2 1_555 1_555
C38_2 H26_2 1_555 1_555
C46_2 C47_2 1_555 1_555
C47_2 C48_2 1_555 1_555
C48_2 H34_2 1_555 1_555
C49_2 C48_2 1_555 1_555
C50_2 C49_2 1_555 1_555
C51_2 C50_2 1_555 1_555
C52_2 C47_2 1_555 1_555
H36_2 C52_2 1_555 1_555
C53_2 C51_2 1_555 1_555
C54_2 C53_2 1_555 1_555
H37_2 C54_2 1_555 1_555
C55_2 C54_2 1_555 1_555
H38_2 C55_2 1_555 1_555
C56_2 C55_2 1_555 1_555
C57_2 C56_2 1_555 1_555
C58_2 C53_2 1_555 1_555
H40_2 C58_2 1_555 1_555
C59 C49_2 1_555 1_555
N7_2 Cd1_3 1_555 1_555
O8_2 Cd1_3 1_555 1_555
O9_2 C46_2 1_555 1_555
O16 C59 1_555 1_555
C8_2 N1_2 1_555 1_555
C21_2 C22_2 1_555 1_555
C27_2 C28_2 1_555 1_555
Cd1_3 O1_2 1_555 1_555
C37_2 N7_2 1_555 1_555
C38_2 N7_2 1_555 1_555
C46_2 O8_2 1_555 1_555
C51_2 C52_2 1_555 1_555
C57_2 C58_2 1_555 1_555
Cd4 O5_2 1_555 1_555
O5_2 C30_2 1_555 1_555
O6_2 C30_2 1_555 1_555
O7_2 Cd4 1_555 1_555
H20_2 O7_2 1_555 1_555
H21_2 O7_2 1_555 1_555
N14_2 Cd4 1_555 1_555
N15_2 Cd4 1_555 1_555
O3_2 C29_3 1_555 1_555
O4_2 C29_3 1_555 1_555
Cd8 O3_2 1_555 1_555
O4_2 Cd8 1_555 1_555
C1_3 C2_3 1_555 1_555
C2_3 H1_3 1_555 1_555
C3_3 C2_3 1_555 1_555
C4_3 C3_3 1_555 1_555
H2_3 C4_3 1_555 1_555
C5_3 C4_3 1_555 1_555
C6_3 C1_3 1_555 1_555
H3_3 C6_3 1_555 1_555
C7_3 H4_3 1_555 1_555
H6_3 C9_3 1_555 1_555
C10_3 H7_3 1_555 1_555
C12_3 C11_3 1_555 1_555
C13_3 H10_3 1_555 1_555
C14_3 H11_3 1_555 1_555
C15_3 C14_3 1_555 1_555
H12_3 C15_3 1_555 1_555
C16_3 C17_3 1_555 1_555
C17_3 C18_3 1_555 1_555
C18_3 H13_3 1_555 1_555
C19_3 C18_3 1_555 1_555
C20_3 C19_3 1_555 1_555
H14_3 C20_3 1_555 1_555
C21_3 C20_3 1_555 1_555
C22_3 C17_3 1_555 1_555
H15_3 C22_3 1_555 1_555
C23_3 C21_3 1_555 1_555
C24_3 C23_3 1_555 1_555
H16_3 C24_3 1_555 1_555
C25_3 C24_3 1_555 1_555
H17_3 C25_3 1_555 1_555
C26_3 C25_3 1_555 1_555
C27_3 C26_3 1_555 1_555
H18_3 C27_3 1_555 1_555
C28_3 C23_3 1_555 1_555
H19_3 C28_3 1_555 1_555
C30_3 C26_3 1_555 1_555
Cd1_4 N1_3 1_555 1_555
Cd6 O5_3 1_555 1_555
N1_3 C7_3 1_555 1_555
N2_3 C1_3 1_555 1_555
N3_3 C3_3 1_555 1_555
N5_3 C5_3 1_555 1_555
N15 C13_3 1_555 1_555
O1_3 C16_3 1_555 1_555
O2_3 C16_3 1_555 1_555
O5_3 C30_3 1_555 1_555
O6_3 C30_3 1_555 1_555
O7_3 Cd6 1_555 1_555
H20_3 O7_3 1_555 1_555
H21_3 O7_3 1_555 1_555
C38_3 H26_3 1_555 1_555
O15_2 Cd6 1_555 1_555
O17_2 Cd6 1_555 1_555
C5_3 C6_3 1_555 1_555
C7_3 N2_3 1_555 1_555
C9_3 N2_3 1_555 1_555
C10_3 N3_3 1_555 1_555
C11_3 N3_3 1_555 1_555
C13_3 N5_3 1_555 1_555
C14_3 N5_3 1_555 1_555
C15_3 N15 1_555 1_555
C21_3 C22_3 1_555 1_555
C27_3 C28_3 1_555 1_555
Cd1_4 O1_3 1_555 1_555
O11_2 Cd9 1_555 1_555
C8_3 H5_3 1_555 1_555
C31_3 C32_3 1_555 1_555
C32_3 H22_3 1_555 1_555
C33_3 C32_3 1_555 1_555
C34_3 C33_3 1_555 1_555
H23_3 C34_3 1_555 1_555
C35_3 C34_3 1_555 1_555
C36_3 C31_3 1_555 1_555
H24_3 C36_3 1_555 1_555
C37_3 H25_3 1_555 1_555
H27_3 C39_3 1_555 1_555
C40_3 H28_3 1_555 1_555
C42_3 C41_3 1_555 1_555
C43_3 H31_3 1_555 1_555
C44_3 H32_3 1_555 1_555
C45_3 C44_3 1_555 1_555
H33_3 C45_3 1_555 1_555
C46_3 C47_3 1_555 1_555
C47_3 C48_3 1_555 1_555
C48_3 H34_3 1_555 1_555
C49_3 C48_3 1_555 1_555
C50_3 C49_3 1_555 1_555
C51_3 C50_3 1_555 1_555
C52_3 C47_3 1_555 1_555
H36_3 C52_3 1_555 1_555
C53_3 C51_3 1_555 1_555
C54_3 C53_3 1_555 1_555
H37_3 C54_3 1_555 1_555
C55_3 C54_3 1_555 1_555
H38_3 C55_3 1_555 1_555
C56_3 C55_3 1_555 1_555
C57_3 C56_3 1_555 1_555
C58_3 C53_3 1_555 1_555
H40_3 C58_3 1_555 1_555
N7_3 Cd1_5 1_555 1_555
N8_3 C31_3 1_555 1_555
N9_3 C33_3 1_555 1_555
N11_3 C35_3 1_555 1_555
N16 C43_3 1_555 1_555
O8_3 Cd1_5 1_555 1_555
O9_3 C46_3 1_555 1_555
C35_3 C36_3 1_555 1_555
C37_3 N7_3 1_555 1_555
C37_3 N8_3 1_555 1_555
C39_3 N8_3 1_555 1_555
C40_3 N9_3 1_555 1_555
C41_3 N9_3 1_555 1_555
C43_3 N11_3 1_555 1_555
C44_3 N11_3 1_555 1_555
C45_3 N16 1_555 1_555
C46_3 O8_3 1_555 1_555
C51_3 C52_3 1_555 1_555
C57_3 C58_3 1_555 1_555
Cd7 O12_3 1_555 1_555
O12_3 C60_3 1_555 1_555
O14_3 Cd7 1_555 1_555
H41_3 O14_3 1_555 1_555
H42_3 O14_3 1_555 1_555
O18_2 Cd7 1_555 1_555
Cd8 O5_4 1_555 1_555
O5_4 C30_4 1_555 1_555
O6_4 C30_4 1_555 1_555
O7_4 Cd8 1_555 1_555
H20_4 O7_4 1_555 1_555
H21_4 O7_4 1_555 1_555
C7_4 H4_4 1_555 1_555
C8_4 H5_4 1_555 1_555
C16_4 C17_4 1_555 1_555
C17_4 C18_4 1_555 1_555
C18_4 H13_4 1_555 1_555
C19_4 C18_4 1_555 1_555
C20_4 C19_4 1_555 1_555
H14_4 C20_4 1_555 1_555
C21_4 C20_4 1_555 1_555
C22_4 C17_4 1_555 1_555
H15_4 C22_4 1_555 1_555
C23_4 C21_4 1_555 1_555
C24_4 C23_4 1_555 1_555
H16_4 C24_4 1_555 1_555
C25_4 C24_4 1_555 1_555
H17_4 C25_4 1_555 1_555
C26_4 C25_4 1_555 1_555
C27_4 C26_4 1_555 1_555
H18_4 C27_4 1_555 1_555
C28_4 C23_4 1_555 1_555
H19_4 C28_4 1_555 1_555
C29_4 C19_4 1_555 1_555
Cd1_6 N1_4 1_555 1_555
N1_4 C7_4 1_555 1_555
O1_4 C16_4 1_555 1_555
O2_4 C16_4 1_555 1_555
O15_2 C29_4 1_555 1_555
O17_2 C29_4 1_555 1_555
C37_4 H25_4 1_555 1_555
C38_4 H26_4 1_555 1_555
C46_4 C47_4 1_555 1_555
C47_4 C48_4 1_555 1_555
C48_4 H34_4 1_555 1_555
C49_4 C48_4 1_555 1_555
C50_4 C49_4 1_555 1_555
C51_4 C50_4 1_555 1_555
C52_4 C47_4 1_555 1_555
H36_4 C52_4 1_555 1_555
C53_4 C51_4 1_555 1_555
C54_4 C53_4 1_555 1_555
H37_4 C54_4 1_555 1_555
C55_4 C54_4 1_555 1_555
H38_4 C55_4 1_555 1_555
C56_4 C55_4 1_555 1_555
C57_4 C56_4 1_555 1_555
C58_4 C53_4 1_555 1_555
H40_4 C58_4 1_555 1_555
C59_2 C49_4 1_555 1_555
N7_4 Cd1_6 1_555 1_555
O8_4 Cd1_6 1_555 1_555
O9_4 C46_4 1_555 1_555
O16_2 C59_2 1_555 1_555
C8_4 N1_4 1_555 1_555
C21_4 C22_4 1_555 1_555
C27_4 C28_4 1_555 1_555
Cd1_6 O1_4 1_555 1_555
C37_4 N7_4 1_555 1_555
C38_4 N7_4 1_555 1_555
C46_4 O8_4 1_555 1_555
C51_4 C52_4 1_555 1_555
C57_4 C58_4 1_555 1_555
C1_4 C2_4 1_555 1_555
C2_4 H1_4 1_555 1_555
C3_4 C2_4 1_555 1_555
C4_4 C3_4 1_555 1_555
H2_4 C4_4 1_555 1_555
C5_4 C4_4 1_555 1_555
C6_4 C1_4 1_555 1_555
H3_4 C6_4 1_555 1_555
H6_4 C9_4 1_555 1_555
C10_4 H7_4 1_555 1_555
C11_4 H8_4 1_555 1_555
C12_4 C11_4 1_555 1_555
H9_4 C12_4 1_555 1_555
C13_4 H10_4 1_555 1_555
C14_4 H11_4 1_555 1_555
C15_4 C14_4 1_555 1_555
H12_4 C15_4 1_555 1_555
N2_4 C1_4 1_555 1_555
N3_4 C3_4 1_555 1_555
N13 C10_4 1_555 1_555
N5_4 C5_4 1_555 1_555
N15_2 C13_4 1_555 1_555
C31_4 C32_4 1_555 1_555
C32_4 H22_4 1_555 1_555
C33_4 C32_4 1_555 1_555
C34_4 C33_4 1_555 1_555
H23_4 C34_4 1_555 1_555
C35_4 C34_4 1_555 1_555
C36_4 C31_4 1_555 1_555
H24_4 C36_4 1_555 1_555
H27_4 C39_4 1_555 1_555
C40_4 H28_4 1_555 1_555
C41_4 H29_4 1_555 1_555
C42_4 C41_4 1_555 1_555
H30_4 C42_4 1_555 1_555
C43_4 H31_4 1_555 1_555
C44_4 H32_4 1_555 1_555
C45_4 C44_4 1_555 1_555
H33_4 C45_4 1_555 1_555
N8_4 C31_4 1_555 1_555
N9_4 C33_4 1_555 1_555
N14 C40_4 1_555 1_555
N11_4 C35_4 1_555 1_555
N16_2 C43_4 1_555 1_555
C5_4 C6_4 1_555 1_555
C9_4 N2_4 1_555 1_555
C10_4 N3_4 1_555 1_555
C11_4 N3_4 1_555 1_555
C12_4 N13 1_555 1_555
C13_4 N5_4 1_555 1_555
C14_4 N5_4 1_555 1_555
C15_4 N15_2 1_555 1_555
C35_4 C36_4 1_555 1_555
C39_4 N8_4 1_555 1_555
C40_4 N9_4 1_555 1_555
C41_4 N9_4 1_555 1_555
C42_4 N14 1_555 1_555
C43_4 N11_4 1_555 1_555
C44_4 N11_4 1_555 1_555
C45_4 N16_2 1_555 1_555
Cd9 O12_4 1_555 1_555
O12_4 C60_4 1_555 1_555
O14_4 Cd9 1_555 1_555
H41_4 O14_4 1_555 1_555
H42_4 O14_4 1_555 1_555
O10 C59_3 1_555 1_555
O10_2 C59_4 1_555 1_555

#END
