
###############################################################################
#
# This file contains modified crystal structure data generated from the
# MOF subset of the Cambridge Structural Database (CSD) v543 
# hosted by the Cambridge Crystallographic Data Centre (CCDC).
#
# This work is licensed under the Creative Commons
# Attribution-NonCommercial-ShareAlike 4.0 International License.
# To view a copy of this license, visit
# http://creativecommons.org/licenses/by-nc-sa/4.0/
# or send a letter to
# Creative Commons, PO Box 1866, Mountain View, CA 94042, USA.
#
# CIF created using the CSD Python API on 29 September 2022
# The structure has been converted into the P1 space group
# The structure has a 3D framework
# The original CSD entry PUPNAQ is in the monoclinic crystal system
# The framework has been calculated to contain at least 10.0% void space
# The void calculation uses a probe of radius 1.32A, grid spacing 0.4
#
###############################################################################

data_PUPNAQ
_chemical_formula_moiety         '(C80 H52 N8 O16 Zn2)n'
_symmetry_cell_setting           triclinic
_symmetry_space_group_name_H-M   'P 1'
_symmetry_Int_Tables_number      1
_space_group_name_Hall           'P 1'
loop_
_symmetry_equiv_pos_site_id
_symmetry_equiv_pos_as_xyz
1 x,y,z
_cell_length_a                   6.8890(19)
_cell_length_b                   23.851(7)
_cell_length_c                   11.606(4)
_cell_angle_alpha                90
_cell_angle_beta                 96.082(13)
_cell_angle_gamma                90
_cell_volume                     1896.24
loop_
_atom_site_label
_atom_site_type_symbol
_atom_site_fract_x
_atom_site_fract_y
_atom_site_fract_z
O4 O 0.2466(3) 0.12679(10) 0.7385(2)
C18 C 0.0242(5) 0.22212(15) 0.7933(4)
H12 H 0.1612 0.2237 0.8143
C20 C 0.0674(5) 0.12585(14) 0.7105(3)
Zn4 Zn 0.13126(5) 0.018155(15) 0.64180(3)
O8 O 0.7473(3) 0.52499(9) 0.00138(19)
O5 O 0.9589(3) 0.54723(9) 0.1537(2)
O9 O 0.0239(3) 0.91492(9) 0.3418(2)
O11 O 0.9761(3) 0.41492(9) 0.1582(2)
C27 C 0.4185(5) 0.68570(13) 0.1828(3)
C28 C 0.5984(5) 0.67605(14) 0.2470(3)
H19 H 0.6386 0.6994 0.3115
C29 C 0.7188(5) 0.63306(13) 0.2183(3)
H20 H 0.8407 0.6273 0.2632
C30 C 0.6641(5) 0.59845(13) 0.1252(3)
C31 C 0.4831(5) 0.60654(14) 0.0626(3)
C32 C 0.3624(5) 0.64976(14) 0.0910(3)
H22 H 0.2393 0.6549 0.0470
C33 C 0.7992(4) 0.55350(13) 0.0911(3)
C34 C 0.2930(5) 0.73363(13) 0.2104(3)
C35 C 0.3740(5) 0.78130(14) 0.2670(3)
H23 H 0.5108 0.7829 0.2889
C36 C 0.2577(5) 0.82617(14) 0.2915(3)
H24 H 0.3162 0.8583 0.3290
C37 C 0.0570(5) 0.82503(14) 0.2621(3)
C39 C 0.0915(5) 0.73293(15) 0.1814(4)
H26 H 0.0322 0.7010 0.1434
O5_2 O 0.0411(3) 0.04723(9) 0.3463(2)
O6 O 0.2527(3) 0.02499(9) 0.49862(19)
C27_2 C 0.5815(5) 0.18570(13) 0.3172(3)
C28_2 C 0.4016(5) 0.17605(14) 0.2530(3)
H19_2 H 0.3614 0.1994 0.1885
C29_2 C 0.2812(5) 0.13306(13) 0.2817(3)
H20_2 H 0.1593 0.1273 0.2368
C30_2 C 0.3359(5) 0.09845(13) 0.3748(3)
C31_2 C 0.5169(5) 0.10654(14) 0.4374(3)
H21 H 0.5582 0.0823 0.5001
C32_2 C 0.6376(5) 0.14976(14) 0.4090(3)
H22_2 H 0.7607 0.1549 0.4530
C33_2 C 0.2008(4) 0.05350(13) 0.4089(3)
C34_2 C 0.7070(5) 0.23363(13) 0.2896(3)
C35_2 C 0.6260(5) 0.28130(14) 0.2330(3)
H23_2 H 0.4892 0.2829 0.2111
C36_2 C 0.7423(5) 0.32617(14) 0.2085(3)
H24_2 H 0.6838 0.3583 0.1710
C37_2 C 0.9430(5) 0.32503(14) 0.2379(3)
C39_2 C 0.9085(5) 0.23293(15) 0.3186(4)
H26_2 H 0.9678 0.2010 0.3566
C5 C 0.5221(5) 0.01680(14) 0.7909(3)
H4 H 0.5699 0.0500 0.7586
C23 C 0.9111(5) 0.04324(14) 0.9359(3)
H16 H 0.8504 0.0732 0.8918
H8 H 0.5582 0.4177 0.0001
Zn5 Zn 0.13126(5) 0.481845(15) 0.14180(3)
C3 C 0.9111(5) 0.45676(14) 0.4359(3)
H3 H 0.8504 0.4268 0.3918
N3 N 0.4969(4) 0.55843(11) 0.3954(2)
H14 H 0.5214 0.5855 0.4464
N4 N 0.3420(4) 0.50686(11) 0.2595(2)
C21 C 0.8143(4) 0.50803(13) 0.4390(3)
C22 C 0.9062(5) 0.55130(14) 0.5043(3)
H15 H 0.8432 0.5866 0.5078
C24 C 0.6210(4) 0.51470(13) 0.3753(3)
C25 C 0.5221(5) 0.48320(14) 0.2909(3)
H17 H 0.5699 0.4500 0.2586
C26 C 0.3334(5) 0.55226(14) 0.3238(3)
H18 H 0.2253 0.5772 0.3197
O12 O 0.2466(3) 0.37321(10) 0.2385(2)
C38 C 0.0242(5) 0.27788(15) 0.2933(4)
H25 H 0.1612 0.2763 0.3143
C40 C 0.0674(5) 0.37415(14) 0.2105(3)
O1 O 0.0411(3) 0.45277(9) 0.8463(2)
O2 O 0.2527(3) 0.47501(9) 0.99862(19)
O3 O 0.9761(3) 0.08508(9) 0.6582(2)
C7 C 0.5815(5) 0.31430(13) 0.8172(3)
C8 C 0.4016(5) 0.32395(14) 0.7530(3)
H6 H 0.3614 0.3006 0.6885
C9 C 0.2812(5) 0.36694(13) 0.7817(3)
H7 H 0.1593 0.3727 0.7368
C10 C 0.3359(5) 0.40155(13) 0.8748(3)
C11 C 0.5169(5) 0.39346(14) 0.9374(3)
C12 C 0.6376(5) 0.35024(14) 0.9090(3)
H9 H 0.7607 0.3451 0.9530
C13 C 0.2008(4) 0.44650(13) 0.9089(3)
C14 C 0.7070(5) 0.26637(13) 0.7896(3)
C15 C 0.6260(5) 0.21870(14) 0.7330(3)
H10 H 0.4892 0.2171 0.7111
C16 C 0.7423(5) 0.17383(14) 0.7085(3)
H11 H 0.6838 0.1417 0.6710
C17 C 0.9430(5) 0.17497(14) 0.7379(3)
C19 C 0.9085(5) 0.26707(15) 0.8186(4)
H13 H 0.9678 0.2990 0.8566
O10 O 0.0239(3) 0.58508(9) 0.8418(2)
Zn6 Zn 0.86874(5) 0.981845(15) 0.35820(3)
O12_2 O 0.7534(3) 0.87321(10) 0.2615(2)
C38_2 C 0.9758(5) 0.77788(15) 0.2067(4)
H25_2 H 0.8388 0.7763 0.1857
C40_2 C 0.9326(5) 0.87415(14) 0.2895(3)
C3_2 C 0.0889(5) 0.95676(14) 0.0641(3)
H3_2 H 0.1496 0.9268 0.1082
O7 O 0.7473(3) 0.97501(9) 0.50138(19)
C25_2 C 0.4779(5) 0.98320(14) 0.2091(3)
H17_2 H 0.4301 0.9500 0.2414
O1_2 O 0.9589(3) 0.95277(9) 0.6537(2)
C7_2 C 0.4185(5) 0.81430(13) 0.6828(3)
C8_2 C 0.5984(5) 0.82395(14) 0.7470(3)
H6_2 H 0.6386 0.8006 0.8115
C9_2 C 0.7188(5) 0.86694(13) 0.7183(3)
H7_2 H 0.8407 0.8727 0.7632
C10_2 C 0.6641(5) 0.90155(13) 0.6252(3)
C11_2 C 0.4831(5) 0.89346(14) 0.5626(3)
H8_2 H 0.4418 0.9177 0.4999
C12_2 C 0.3624(5) 0.85024(14) 0.5910(3)
H9_2 H 0.2393 0.8451 0.5470
C13_2 C 0.7992(4) 0.94650(13) 0.5911(3)
C14_2 C 0.2930(5) 0.76637(13) 0.7104(3)
C15_2 C 0.3740(5) 0.71870(14) 0.7670(3)
H10_2 H 0.5108 0.7171 0.7889
C16_2 C 0.2577(5) 0.67383(14) 0.7915(3)
H11_2 H 0.3162 0.6417 0.8290
C17_2 C 0.0570(5) 0.67497(14) 0.7621(3)
C19_2 C 0.0915(5) 0.76707(15) 0.6814(4)
H13_2 H 0.0322 0.7990 0.6434
Zn1 Zn 0.86874(5) 0.518155(15) 0.85820(3)
N1 N 0.5031(4) 0.44157(11) 0.6046(2)
H1 H 0.4786 0.4145 0.5536
N2 N 0.6580(4) 0.49314(11) 0.7405(2)
C1 C 0.1857(4) 0.49197(13) 0.5610(3)
C2 C 0.0938(5) 0.44870(14) 0.4957(3)
H2 H 0.1568 0.4134 0.4922
C4 C 0.3790(4) 0.48530(13) 0.6247(3)
C5_2 C 0.4779(5) 0.51680(14) 0.7091(3)
H4_2 H 0.4301 0.5500 0.7414
C6 C 0.6666(5) 0.44774(14) 0.6762(3)
H5 H 0.7747 0.4228 0.6803
C23_2 C 0.0889(5) 0.54324(14) 0.5641(3)
H16_2 H 0.1496 0.5732 0.6082
H21_2 H 0.4418 0.5823 0.9999
O4_2 O 0.7534(3) 0.62679(10) 0.7615(2)
C18_2 C 0.9758(5) 0.72212(15) 0.7067(4)
H12_2 H 0.8388 0.7237 0.6857
C20_2 C 0.9326(5) 0.62585(14) 0.7895(3)
N3_2 N 0.5031(4) 0.05843(11) 0.1046(2)
H14_2 H 0.4786 0.0855 0.0536
N4_2 N 0.6580(4) 0.00686(11) 0.2405(2)
C21_2 C 0.1857(4) 0.00803(13) 0.0610(3)
C24_2 C 0.3790(4) 0.01470(13) 0.1247(3)
C26_2 C 0.6666(5) 0.05226(14) 0.1762(3)
H18_2 H 0.7747 0.0772 0.1803
C22_2 C 0.0938(5) 0.05130(14) 0.9957(3)
H15_2 H 0.1568 0.0866 0.9922
C2_2 C 0.9062(5) 0.94870(14) 0.0043(3)
H2_2 H 0.8432 0.9134 0.0078
N1_2 N 0.4969(4) 0.94157(11) 0.8954(2)
H1_2 H 0.5214 0.9145 0.9464
N2_2 N 0.3420(4) 0.99314(11) 0.7595(2)
C1_2 C 0.8143(4) 0.99197(13) 0.9390(3)
C4_2 C 0.6210(4) 0.98530(13) 0.8753(3)
C6_2 C 0.3334(5) 0.94774(14) 0.8238(3)
H5_2 H 0.2253 0.9228 0.8197
loop_
_geom_bond_atom_site_label_1
_geom_bond_atom_site_label_2
_geom_bond_site_symmetry_1
_geom_bond_site_symmetry_2
O4 C20 1_555 1_555
H12 C18 1_555 1_555
O5 C33 1_555 1_555
O8 C33 1_555 1_555
C27 C28 1_555 1_555
C28 H19 1_555 1_555
C29 C28 1_555 1_555
H20 C29 1_555 1_555
C30 C29 1_555 1_555
C31 C30 1_555 1_555
C32 C27 1_555 1_555
H22 C32 1_555 1_555
C33 C30 1_555 1_555
C34 C27 1_555 1_555
C35 C34 1_555 1_555
H23 C35 1_555 1_555
C36 C35 1_555 1_555
H24 C36 1_555 1_555
C37 C36 1_555 1_555
C39 C34 1_555 1_555
H26 C39 1_555 1_555
C31 C32 1_555 1_555
Zn4 O6 1_555 1_555
O5_2 C33_2 1_555 1_555
O6 C33_2 1_555 1_555
C27_2 C28_2 1_555 1_555
C28_2 H19_2 1_555 1_555
C29_2 C28_2 1_555 1_555
H20_2 C29_2 1_555 1_555
C30_2 C29_2 1_555 1_555
C31_2 C30_2 1_555 1_555
H21 C31_2 1_555 1_555
C32_2 C27_2 1_555 1_555
H22_2 C32_2 1_555 1_555
C33_2 C30_2 1_555 1_555
C34_2 C27_2 1_555 1_555
C35_2 C34_2 1_555 1_555
H23_2 C35_2 1_555 1_555
C36_2 C35_2 1_555 1_555
H24_2 C36_2 1_555 1_555
C37_2 C36_2 1_555 1_555
C39_2 C34_2 1_555 1_555
H26_2 C39_2 1_555 1_555
C31_2 C32_2 1_555 1_555
H4 C5 1_555 1_555
H16 C23 1_555 1_555
H3 C3 1_555 1_555
N3 H14 1_555 1_555
N4 Zn5 1_555 1_555
C21 C3 1_555 1_555
C22 C21 1_555 1_555
H15 C22 1_555 1_555
C24 N3 1_555 1_555
C25 N4 1_555 1_555
H17 C25 1_555 1_555
C26 N3 1_555 1_555
H18 C26 1_555 1_555
N4 C26 1_555 1_555
C21 C24 1_555 1_555
C24 C25 1_555 1_555
O12 C40 1_555 1_555
H25 C38 1_555 1_555
O1 C13 1_555 1_555
O2 C13 1_555 1_555
C7 C8 1_555 1_555
C8 H6 1_555 1_555
C9 C8 1_555 1_555
H7 C9 1_555 1_555
C10 C9 1_555 1_555
C11 C10 1_555 1_555
C12 C7 1_555 1_555
H9 C12 1_555 1_555
C13 C10 1_555 1_555
C14 C7 1_555 1_555
C15 C14 1_555 1_555
H10 C15 1_555 1_555
C16 C15 1_555 1_555
H11 C16 1_555 1_555
C17 C16 1_555 1_555
C19 C14 1_555 1_555
H13 C19 1_555 1_555
C11 C12 1_555 1_555
O12_2 C40_2 1_555 1_555
H25_2 C38_2 1_555 1_555
H3_2 C3_2 1_555 1_555
O7 Zn6 1_555 1_555
H17_2 C25_2 1_555 1_555
O1_2 C13_2 1_555 1_555
O7 C13_2 1_555 1_555
C7_2 C8_2 1_555 1_555
C8_2 H6_2 1_555 1_555
C9_2 C8_2 1_555 1_555
H7_2 C9_2 1_555 1_555
C10_2 C9_2 1_555 1_555
C11_2 C10_2 1_555 1_555
H8_2 C11_2 1_555 1_555
C12_2 C7_2 1_555 1_555
H9_2 C12_2 1_555 1_555
C13_2 C10_2 1_555 1_555
C14_2 C7_2 1_555 1_555
C15_2 C14_2 1_555 1_555
H10_2 C15_2 1_555 1_555
C16_2 C15_2 1_555 1_555
H11_2 C16_2 1_555 1_555
C17_2 C16_2 1_555 1_555
C19_2 C14_2 1_555 1_555
H13_2 C19_2 1_555 1_555
C11_2 C12_2 1_555 1_555
N1 H1 1_555 1_555
N2 Zn1 1_555 1_555
C1 C2 1_555 1_555
C2 H2 1_555 1_555
C4 N1 1_555 1_555
C5_2 N2 1_555 1_555
H4_2 C5_2 1_555 1_555
C6 N1 1_555 1_555
H5 C6 1_555 1_555
C23_2 C1 1_555 1_555
H16_2 C23_2 1_555 1_555
N2 C6 1_555 1_555
C1 C4 1_555 1_555
C4 C5_2 1_555 1_555
O4_2 C20_2 1_555 1_555
H12_2 C18_2 1_555 1_555
N3_2 H14_2 1_555 1_555
C24_2 N3_2 1_555 1_555
C26_2 N3_2 1_555 1_555
H18_2 C26_2 1_555 1_555
N4_2 C26_2 1_555 1_555
C21_2 C24_2 1_555 1_555
H15_2 C22_2 1_555 1_555
C2_2 H2_2 1_555 1_555
N1_2 H1_2 1_555 1_555
C4_2 N1_2 1_555 1_555
C6_2 N1_2 1_555 1_555
H5_2 C6_2 1_555 1_555
N2_2 C6_2 1_555 1_555
C1_2 C4_2 1_555 1_555

#END
