
###############################################################################
#
# This file contains modified crystal structure data generated from the
# MOF subset of the Cambridge Structural Database (CSD) v543 
# hosted by the Cambridge Crystallographic Data Centre (CCDC).
#
# This work is licensed under the Creative Commons
# Attribution-NonCommercial-ShareAlike 4.0 International License.
# To view a copy of this license, visit
# http://creativecommons.org/licenses/by-nc-sa/4.0/
# or send a letter to
# Creative Commons, PO Box 1866, Mountain View, CA 94042, USA.
#
# CIF created using the CSD Python API on 29 September 2022
# The structure has been converted into the P1 space group
# The structure has a 3D framework
# The original CSD entry PUPTUS is in the hexagonal crystal system
# The original CSD entry PUPTUS is in a Sohncke space group
# The framework has been calculated to contain at least 10.0% void space
# The void calculation uses a probe of radius 1.32A, grid spacing 0.4
#
###############################################################################

data_PUPTUS
_chemical_formula_moiety         '(C192 H120 Mn11 Ni6 O58 S24)n'
_symmetry_cell_setting           triclinic
_symmetry_space_group_name_H-M   'P 1'
_symmetry_Int_Tables_number      1
_space_group_name_Hall           'P 1'
loop_
_symmetry_equiv_pos_site_id
_symmetry_equiv_pos_as_xyz
1 x,y,z
_cell_length_a                   19.3198(9)
_cell_length_b                   19.3198(9)
_cell_length_c                   20.7955(13)
_cell_angle_alpha                90
_cell_angle_beta                 90
_cell_angle_gamma                120
_cell_volume                     6722.1
loop_
_atom_site_label
_atom_site_type_symbol
_atom_site_fract_x
_atom_site_fract_y
_atom_site_fract_z
C10 C 0.1311(6) 0.2141(6) 0.6068(5)
C11 C 0.0469(7) 0.1697(7) 0.6044(6)
H5 H 0.038688 0.292454 0.661784
C19 C 0.1814(7) 0.3035(6) 0.6052(6)
C20 C 0.2422(8) 0.3453(7) 0.6481(6)
H9 H 0.249958 0.316658 0.681799
C21 C 0.2916(8) 0.4251(7) 0.6447(6)
H10 H 0.333253 0.451940 0.675272
C22 C 0.2801(7) 0.4680(7) 0.5946(6)
C23 C 0.2141(7) 0.4282(8) 0.5534(7)
H11 H 0.202392 0.457507 0.522898
C24 C 0.1671(7) 0.3475(7) 0.5575(6)
H12 H 0.124099 0.320198 0.528115
C25 C 0.3304(9) 0.5595(8) 0.5962(7)
Ni1 Ni 0.09270(9) 0.04186(9) 0.62562(8)
O5 O 0.3274(5) 0.5991(5) 0.5512(5)
O6 O 0.3837(6) 0.5915(6) 0.6382(6)
S1 S 0.18272(16) 0.00976(23) 0.62686(15)
S3 S 0.00041(17) 0.06998(17) 0.61592(16)
S4 S 0.18116(15) 0.16418(15) 0.61742(15)
Mn5 Mn 0.43593(16) 0.71378(11) 0.61774(13)
Mn7 Mn 0.36414(11) 0.62525(16) 0.44859(12)
C1 C 0.1360(7) 0.9090(9) 0.6340(5)
C2 C 0.0507(7) 0.8688(10) 0.6395(6)
C8 C 0.0050(7) 0.7268(10) 0.6085(6)
H4 H 0.045698 0.745069 0.576790
C26 C 0.3390(11) 0.7710(14) 0.6335(9)
C27 C 0.2854(10) 0.8041(12) 0.6348(7)
C28 C 0.2242(10) 0.7815(12) 0.6800(7)
H13 H 0.216430 0.741597 0.710405
C29 C 0.1735(10) 0.8137(12) 0.6833(6)
H14 H 0.133791 0.797502 0.715784
C30 C 0.1834(8) 0.8705(10) 0.6371(6)
C31 C 0.2442(10) 0.8950(12) 0.5909(6)
H15 H 0.251802 0.932824 0.558450
C32 C 0.2944(11) 0.8598(13) 0.5953(8)
H16 H 0.338224 0.879197 0.566337
O7 O 0.3862(8) 0.7860(9) 0.5897(5)
O8 O 0.3382(7) 0.7261(9) 0.6806(5)
S2 S 0.00214(17) 0.92005(24) 0.63548(16)
Mn8 Mn 0.37475(16) 0.73889(11) 0.78193(12)
C12 C 0.9927(6) 0.2032(6) 0.5906(6)
C13 C 0.9995(6) 0.2682(7) 0.6290(6)
C14 C 0.9447(7) 0.2935(7) 0.6148(7)
H6 H 0.947435 0.337603 0.637273
C15 C 0.8863(8) 0.2545(8) 0.5681(6)
C16 C 0.8825(8) 0.1955(9) 0.5357(8)
H7 H 0.843316 0.172224 0.502836
C17 C 0.9337(10) 0.1639(9) 0.5465(8)
H8 H 0.927288 0.118085 0.524225
C18 C 0.8241(9) 0.2825(9) 0.5590(9)
Mn1 Mn 0.71378(11) 0.27785(11) 0.45107(13)
Mn2 Mn 0.73889(11) 0.36414(11) 0.61526(12)
O3 O 0.7813(6) 0.2521(6) 0.5060(6)
O4 O 0.8294(6) 0.3362(6) 0.5940(5)
O9 O 0.6416(6) 0.2405(5) 0.6009(4)
H17 H 0.599542 0.240745 0.589293
H18 H 0.654941 0.218355 0.571903
O10 O 0.6407(5) 0.3882(6) 0.6234(6)
H19 H 0.659788 0.437744 0.630491
H20 H 0.611128 0.361374 0.654681
O11 O 0.8326(5) 0.4816(7) 0.6288(5)
O12 O 0.7329(10) 0.2204(6) 0.3793(5)
O13 O 0.7283(7) 0.3274(5) 0.7179(5)
O14 O 0.5915(6) 0.2078(8) 0.4715(6)
O15 O 0.7860(9) 0.3998(12) 0.4230(5)
O16 O 0.7261(9) 0.3879(11) 0.5139(5)
C3 C 0.9989(7) 0.7793(10) 0.6482(5)
C4 C 0.9374(9) 0.7513(13) 0.6955(8)
H1 H 0.932245 0.788579 0.722025
C5 C 0.8854(8) 0.6707(12) 0.7031(6)
H2 H 0.846970 0.651889 0.736819
C6 C 0.8897(7) 0.6172(10) 0.6610(7)
C7 C 0.9494(6) 0.6442(8) 0.6154(6)
H3 H 0.953346 0.606857 0.588175
C9 C 0.8333(7) 0.5297(11) 0.6660(9)
O2 O 0.7796(6) 0.5125(8) 0.7126(5)
Mn3 Mn 0.72215(11) 0.43593(16) 0.78440(13)
C4_2 C 0.2487(13) 0.1861(16) 0.0288(8)
H1_2 H 0.211421 0.143666 0.055358
C5_2 C 0.3293(12) 0.2147(14) 0.0364(6)
H2_2 H 0.348111 0.195081 0.070152
C28_2 C 0.2185(12) 0.4427(16) 0.0133(7)
H13_2 H 0.258403 0.474833 0.043738
C29_2 C 0.1863(12) 0.3598(16) 0.0166(6)
H14_2 H 0.202498 0.336289 0.049117
O2_2 O 0.4875(8) 0.2671(10) 0.0459(5)
O8_2 O 0.2739(9) 0.6121(11) 0.0139(5)
Mn3_2 Mn 0.56407(16) 0.28622(19) 0.11774(13)
Mn8_2 Mn 0.26111(11) 0.63586(19) 0.11526(12)
C1_2 C 0.0910(9) 0.2270(11) 0.9673(5)
C2_2 C 0.1312(10) 0.1819(12) 0.9728(6)
C3_2 C 0.2207(10) 0.2196(12) 0.9815(5)
C6_2 C 0.3828(10) 0.2725(12) 0.9943(7)
C7_2 C 0.3558(8) 0.3052(10) 0.9487(6)
H3_2 H 0.393143 0.346489 0.921508
C8_2 C 0.2732(10) 0.2782(12) 0.9418(6)
H4_2 H 0.254931 0.300629 0.910123
C9_2 C 0.4703(11) 0.3036(13) 0.9993(9)
C26_2 C 0.2290(14) 0.5680(18) 0.9668(9)
C27_2 C 0.1959(12) 0.4813(16) 0.9681(7)
C30_2 C 0.1295(10) 0.3129(13) 0.9704(6)
C31_2 C 0.1050(12) 0.3492(16) 0.9242(6)
H15_2 H 0.067176 0.318978 0.891783
C32_2 C 0.1402(13) 0.4346(17) 0.9286(8)
H16_2 H 0.120803 0.459027 0.899670
O1 O 0.5184(7) 0.3510(9) 0.9621(5)
O7_2 O 0.2140(9) 0.6002(12) 0.9230(5)
S2_2 S 0.07995(24) 0.08209(29) 0.96881(16)
Mn4 Mn 0.28622(11) 0.72215(19) 0.95107(13)
Mn6 Mn 0.63586(11) 0.37475(16) 0.94859(12)
H9_2 H 0.683342 0.933300 0.015132
H10_2 H 0.548060 0.881313 0.008605
O13_2 O 0.6726(5) 0.4009(9) 0.0512(5)
C10_2 C 0.7859(6) 0.9170(8) 0.9401(5)
C11_2 C 0.8303(7) 0.8772(10) 0.9377(6)
C12_2 C 0.7968(6) 0.7895(8) 0.9239(6)
C13_2 C 0.7318(7) 0.7313(9) 0.9623(6)
H5_2 H 0.707546 0.746234 0.995117
C14_2 C 0.7065(7) 0.6512(10) 0.9481(7)
H6_2 H 0.662397 0.609832 0.970606
C15_2 C 0.7455(8) 0.6318(11) 0.9014(6)
C16_2 C 0.8045(9) 0.6870(12) 0.8690(8)
H7_2 H 0.827776 0.671092 0.836169
C17_2 C 0.8361(9) 0.7698(13) 0.8798(8)
H8_2 H 0.881915 0.809203 0.857558
C18_2 C 0.7175(9) 0.5416(13) 0.8923(9)
C19_2 C 0.6965(6) 0.8779(9) 0.9385(6)
C20_2 C 0.6547(7) 0.8969(11) 0.9814(6)
C21_2 C 0.5749(7) 0.8665(11) 0.9780(6)
C22_2 C 0.5320(7) 0.8121(10) 0.9279(6)
C23_2 C 0.5718(8) 0.7859(11) 0.8867(7)
H11_2 H 0.542493 0.744885 0.856231
C24_2 C 0.6525(7) 0.8196(10) 0.8908(6)
H12_2 H 0.679802 0.803901 0.861448
C25_2 C 0.4405(8) 0.7709(12) 0.9295(7)
O3_2 O 0.7479(6) 0.5292(8) 0.8393(6)
O4_2 O 0.6638(6) 0.4932(8) 0.9273(5)
O5_2 O 0.4009(5) 0.7283(7) 0.8845(5)
O6_2 O 0.4085(6) 0.7922(8) 0.9715(6)
O9_2 O 0.7595(5) 0.4011(8) 0.9342(4)
H17_2 H 0.759255 0.358797 0.922626
H18_2 H 0.781645 0.436586 0.905236
O10_2 O 0.6118(6) 0.2525(8) 0.9567(6)
H19_2 H 0.562256 0.222044 0.963824
H20_2 H 0.638626 0.249754 0.988014
S3_2 S 0.93002(17) 0.93043(24) 0.94925(16)
O14_2 O 0.7922(8) 0.3837(10) 0.8049(6)
O15_2 O 0.6002(12) 0.3862(15) 0.7564(5)
O16_2 O 0.6121(11) 0.3382(14) 0.8473(5)
C12_3 C 0.2105(8) 0.0073(6) 0.2573(6)
C13_3 C 0.2687(9) 0.0005(6) 0.2957(6)
C14_3 C 0.3488(10) 0.0553(7) 0.2815(7)
H6_3 H 0.390168 0.052565 0.303940
C15_3 C 0.3682(11) 0.1137(8) 0.2348(6)
C16_3 C 0.3130(12) 0.1175(8) 0.2024(8)
H7_3 H 0.328908 0.156684 0.169503
C17_3 C 0.2302(13) 0.0663(10) 0.2132(8)
H8_3 H 0.190797 0.072712 0.190892
C18_3 C 0.4584(13) 0.1759(9) 0.2257(9)
Mn2_2 Mn 0.62525(16) 0.26111(11) 0.28193(12)
O3_3 O 0.4708(8) 0.2187(6) 0.1727(6)
O4_3 O 0.5068(8) 0.1706(6) 0.2607(5)
O9_3 O 0.5989(8) 0.3584(6) 0.2676(4)
H17_3 H 0.641203 0.400458 0.255960
H18_3 H 0.563414 0.345059 0.238570
O10_3 O 0.7475(8) 0.3593(5) 0.2901(6)
H19_3 H 0.777956 0.340212 0.297158
H20_3 H 0.750246 0.388872 0.321348
O11_2 O 0.6490(9) 0.1674(5) 0.2955(5)
O13_3 O 0.5991(9) 0.2717(7) 0.3845(5)
O14_3 O 0.6163(10) 0.4085(6) 0.1382(6)
O15_3 O 0.6138(15) 0.2140(9) 0.0897(5)
O16_3 O 0.6618(14) 0.2739(9) 0.1806(5)
C10_3 C 0.0830(8) 0.8689(6) 0.2735(5)
C11_3 C 0.1228(10) 0.9531(7) 0.2711(6)
H5_3 H 0.253766 0.961312 0.328451
C19_3 C 0.1221(9) 0.8186(7) 0.2719(6)
C20_3 C 0.1031(11) 0.7578(8) 0.3148(6)
H9_3 H 0.066700 0.750042 0.348466
C21_3 C 0.1335(11) 0.7084(8) 0.3114(6)
H10_3 H 0.118687 0.666747 0.341939
C22_3 C 0.1879(10) 0.7199(7) 0.2613(6)
C23_3 C 0.2141(11) 0.7859(7) 0.2201(7)
H11_3 H 0.255115 0.797608 0.189565
C24_3 C 0.1804(10) 0.8329(7) 0.2242(6)
H12_3 H 0.196099 0.875901 0.194782
C25_3 C 0.2291(12) 0.6696(9) 0.2629(7)
O5_3 O 0.2717(7) 0.6726(5) 0.2179(5)
O6_3 O 0.2078(8) 0.6163(6) 0.3049(6)
S3_3 S 0.06957(24) 0.99959(17) 0.28259(16)
Mn5_2 Mn 0.27785(19) 0.56407(16) 0.28440(13)
C3_3 C 0.7804(12) 0.0011(7) 0.3149(5)
C4_3 C 0.8139(16) 0.0626(9) 0.3622(8)
H1_3 H 0.856334 0.067755 0.388692
C5_3 C 0.7853(14) 0.1146(8) 0.3698(6)
H2_3 H 0.804919 0.153030 0.403486
C6_3 C 0.7275(12) 0.1103(7) 0.3277(7)
C7_3 C 0.6948(10) 0.0506(6) 0.2821(6)
H3_3 H 0.653511 0.046654 0.254842
C9_3 C 0.6964(13) 0.1667(7) 0.3327(9)
C1_3 C 0.7730(11) 0.8640(7) 0.3007(5)
C2_3 C 0.8181(12) 0.9493(7) 0.3062(6)
C8_3 C 0.7218(12) 0.9950(7) 0.2752(6)
H4_3 H 0.699371 0.954302 0.243457
C26_3 C 0.4320(18) 0.6610(11) 0.3002(9)
C27_3 C 0.5187(16) 0.7146(10) 0.3015(7)
C28_3 C 0.5573(16) 0.7758(10) 0.3467(7)
H13_3 H 0.525167 0.783570 0.377072
C29_3 C 0.6402(16) 0.8265(10) 0.3500(6)
H14_3 H 0.663711 0.866209 0.382451
C30_3 C 0.6871(13) 0.8166(8) 0.3038(6)
C31_3 C 0.6508(16) 0.7558(10) 0.2576(6)
H15_3 H 0.681022 0.748198 0.225117
C32_3 C 0.5654(17) 0.7056(11) 0.2620(8)
H16_3 H 0.540973 0.661776 0.233004
Ni1_2 Ni 0.94916(13) 0.90730(9) 0.29229(8)
O7_3 O 0.3998(12) 0.6138(8) 0.2564(5)
O8_3 O 0.3879(11) 0.6618(7) 0.3473(5)
S1_2 S 0.82704(28) 0.81728(16) 0.29353(15)
S2_3 S 0.91791(29) 0.99786(17) 0.30215(16)
S4_2 S 0.98302(21) 0.81884(15) 0.28409(15)
C3_4 C 0.0011(7) 0.2207(10) 0.1482(5)
C4_4 C 0.0626(9) 0.2487(13) 0.1955(8)
H1_4 H 0.067755 0.211421 0.222025
C5_4 C 0.1146(8) 0.3293(12) 0.2031(6)
H2_4 H 0.153030 0.348111 0.236819
C6_4 C 0.1103(7) 0.3828(10) 0.1610(7)
C7_4 C 0.0506(6) 0.3558(8) 0.1154(6)
H3_4 H 0.046654 0.393143 0.088175
C9_4 C 0.1667(7) 0.4703(11) 0.1660(9)
O1_2 O 0.1674(5) 0.5184(7) 0.1288(5)
O2_3 O 0.2204(6) 0.4875(8) 0.2126(5)
C12_4 C 0.0073(6) 0.7968(6) 0.0906(6)
C13_4 C 0.0005(6) 0.7318(7) 0.1290(6)
C14_4 C 0.0553(7) 0.7065(7) 0.1148(7)
H6_4 H 0.052565 0.662397 0.137273
C15_4 C 0.1137(8) 0.7455(8) 0.0681(6)
C16_4 C 0.1175(8) 0.8045(9) 0.0357(8)
H7_4 H 0.156684 0.827776 0.002836
C17_4 C 0.0663(10) 0.8361(9) 0.0465(8)
H8_4 H 0.072712 0.881915 0.024225
C18_4 C 0.1759(9) 0.7175(9) 0.0590(9)
O3_4 O 0.2187(6) 0.7479(6) 0.0060(6)
O4_4 O 0.1706(6) 0.6638(6) 0.0940(5)
O9_4 O 0.3584(6) 0.7595(5) 0.1009(4)
H17_4 H 0.400458 0.759255 0.089293
H18_4 H 0.345059 0.781645 0.071903
O10_4 O 0.3593(5) 0.6118(6) 0.1234(6)
H19_4 H 0.340212 0.562256 0.130491
H20_4 H 0.388872 0.638626 0.154681
O12_2 O 0.2671(10) 0.7796(6) 0.8793(5)
C1_4 C 0.8640(7) 0.0910(9) 0.1340(5)
C2_4 C 0.9493(7) 0.1312(10) 0.1395(6)
C8_4 C 0.9950(7) 0.2732(10) 0.1085(6)
H4_4 H 0.954302 0.254931 0.076790
C26_4 C 0.6610(11) 0.2290(14) 0.1335(9)
C27_4 C 0.7146(10) 0.1959(12) 0.1348(7)
C28_4 C 0.7758(10) 0.2185(12) 0.1800(7)
H13_4 H 0.783570 0.258403 0.210405
C29_4 C 0.8265(10) 0.1863(12) 0.1833(6)
H14_4 H 0.866209 0.202498 0.215784
C30_4 C 0.8166(8) 0.1295(10) 0.1371(6)
C31_4 C 0.7558(10) 0.1050(12) 0.0909(6)
H15_4 H 0.748198 0.067176 0.058450
C32_4 C 0.7056(11) 0.1402(13) 0.0953(8)
H16_4 H 0.661776 0.120803 0.066337
S2_4 S 0.99786(17) 0.07995(24) 0.13548(16)
C10_4 C 0.8689(6) 0.7859(6) 0.1068(5)
C11_4 C 0.9531(7) 0.8303(7) 0.1044(6)
H5_4 H 0.961312 0.707546 0.161784
C19_4 C 0.8186(7) 0.6965(6) 0.1052(6)
C20_4 C 0.7578(8) 0.6547(7) 0.1481(6)
H9_4 H 0.750042 0.683342 0.181799
C21_4 C 0.7084(8) 0.5749(7) 0.1447(6)
H10_4 H 0.666747 0.548060 0.175272
C22_4 C 0.7199(7) 0.5320(7) 0.0946(6)
C23_4 C 0.7859(7) 0.5718(8) 0.0534(7)
H11_4 H 0.797608 0.542493 0.022898
C24_4 C 0.8329(7) 0.6525(7) 0.0575(6)
H12_4 H 0.875901 0.679802 0.028115
C25_4 C 0.6696(9) 0.4405(8) 0.0962(7)
Ni1_3 Ni 0.90730(9) 0.95814(9) 0.12562(8)
S1_3 S 0.81728(16) 0.99024(23) 0.12686(15)
S3_4 S 0.99959(17) 0.93002(17) 0.11592(16)
S4_3 S 0.81884(15) 0.83582(15) 0.11742(15)
C10_5 C 0.2141(6) 0.0830(8) 0.4401(5)
C11_5 C 0.1697(7) 0.1228(10) 0.4377(6)
C12_5 C 0.2032(6) 0.2105(8) 0.4239(6)
C13_5 C 0.2682(7) 0.2687(9) 0.4623(6)
H5_5 H 0.292454 0.253766 0.495117
C14_5 C 0.2935(7) 0.3488(10) 0.4481(7)
H6_5 H 0.337603 0.390168 0.470606
C15_5 C 0.2545(8) 0.3682(11) 0.4014(6)
C16_5 C 0.1955(9) 0.3130(12) 0.3690(8)
H7_5 H 0.172224 0.328908 0.336169
C17_5 C 0.1639(9) 0.2302(13) 0.3798(8)
H8_5 H 0.118085 0.190797 0.357558
C18_5 C 0.2825(9) 0.4584(13) 0.3923(9)
C19_5 C 0.3035(6) 0.1221(9) 0.4385(6)
C20_5 C 0.3453(7) 0.1031(11) 0.4814(6)
H9_5 H 0.316658 0.066700 0.515132
C21_5 C 0.4251(7) 0.1335(11) 0.4780(6)
H10_5 H 0.451940 0.118687 0.508605
C22_5 C 0.4680(7) 0.1879(10) 0.4279(6)
C23_5 C 0.4282(8) 0.2141(11) 0.3867(7)
H11_5 H 0.457507 0.255115 0.356231
C24_5 C 0.3475(7) 0.1804(10) 0.3908(6)
H12_5 H 0.320198 0.196099 0.361448
C25_5 C 0.5595(8) 0.2291(12) 0.4295(7)
O3_5 O 0.2521(6) 0.4708(8) 0.3393(6)
O4_5 O 0.3362(6) 0.5068(8) 0.4273(5)
O9_5 O 0.2405(5) 0.5989(8) 0.4342(4)
H17_5 H 0.240745 0.641203 0.422626
H18_5 H 0.218355 0.563414 0.405236
O10_5 O 0.3882(6) 0.7475(8) 0.4567(6)
H19_5 H 0.437744 0.777956 0.463824
H20_5 H 0.361374 0.750246 0.488014
S3_5 S 0.06998(17) 0.06957(24) 0.44925(16)
O11_3 O 0.4816(7) 0.6490(9) 0.4621(5)
C1_5 C 0.9090(9) 0.7730(11) 0.4673(5)
C2_5 C 0.8688(10) 0.8181(12) 0.4728(6)
C3_5 C 0.7793(10) 0.7804(12) 0.4815(5)
C4_5 C 0.7513(13) 0.8139(16) 0.5288(8)
H1_5 H 0.788579 0.856334 0.555358
C5_5 C 0.6707(12) 0.7853(14) 0.5364(6)
H2_5 H 0.651889 0.804919 0.570152
C6_5 C 0.6172(10) 0.7275(12) 0.4943(7)
C7_5 C 0.6442(8) 0.6948(10) 0.4487(6)
H3_5 H 0.606857 0.653511 0.421508
C8_5 C 0.7268(10) 0.7218(12) 0.4418(6)
H4_5 H 0.745069 0.699371 0.410123
C9_5 C 0.5297(11) 0.6964(13) 0.4993(9)
C26_5 C 0.7710(14) 0.4320(18) 0.4668(9)
C27_5 C 0.8041(12) 0.5187(16) 0.4681(7)
C28_5 C 0.7815(12) 0.5573(16) 0.5133(7)
H13_5 H 0.741597 0.525167 0.543738
C29_5 C 0.8137(12) 0.6402(16) 0.5166(6)
H14_5 H 0.797502 0.663711 0.549117
C30_5 C 0.8705(10) 0.6871(13) 0.4704(6)
C31_5 C 0.8950(12) 0.6508(16) 0.4242(6)
H15_5 H 0.932824 0.681022 0.391783
C32_5 C 0.8598(13) 0.5654(17) 0.4286(8)
H16_5 H 0.879197 0.540973 0.399670
O2_4 O 0.5125(8) 0.7329(10) 0.5459(5)
S2_5 S 0.92005(24) 0.91791(29) 0.46881(16)
C1_6 C 0.2270(11) 0.1360(7) 0.8007(5)
C2_6 C 0.1819(12) 0.0507(7) 0.8062(6)
C8_6 C 0.2782(12) 0.0050(7) 0.7752(6)
H4_6 H 0.300629 0.045698 0.743457
C26_6 C 0.5680(18) 0.3390(11) 0.8002(9)
C27_6 C 0.4813(16) 0.2854(10) 0.8015(7)
C28_6 C 0.4427(16) 0.2242(10) 0.8467(7)
H13_6 H 0.474833 0.216430 0.877072
C29_6 C 0.3598(16) 0.1735(10) 0.8500(6)
H14_6 H 0.336289 0.133791 0.882451
C30_6 C 0.3129(13) 0.1834(8) 0.8038(6)
C31_6 C 0.3492(16) 0.2442(10) 0.7576(6)
H15_6 H 0.318978 0.251802 0.725117
C32_6 C 0.4346(17) 0.2944(11) 0.7620(8)
H16_6 H 0.459027 0.338224 0.733004
Ni1_4 Ni 0.05084(13) 0.09270(9) 0.79229(8)
S1_4 S 0.17296(28) 0.18272(16) 0.79353(15)
S2_6 S 0.08209(29) 0.00214(17) 0.80215(16)
S4_4 S 0.01698(21) 0.18116(15) 0.78409(15)
C3_6 C 0.2196(12) 0.9989(7) 0.8149(5)
C4_6 C 0.1861(16) 0.9374(9) 0.8622(8)
H1_6 H 0.143666 0.932245 0.888692
C5_6 C 0.2147(14) 0.8854(8) 0.8698(6)
H2_6 H 0.195081 0.846970 0.903486
C6_6 C 0.2725(12) 0.8897(7) 0.8277(7)
C7_6 C 0.3052(10) 0.9494(6) 0.7821(6)
H3_6 H 0.346489 0.953346 0.754842
C9_6 C 0.3036(13) 0.8333(7) 0.8327(9)
O1_3 O 0.3510(9) 0.8326(5) 0.7955(5)
C10_6 C 0.9170(8) 0.1311(6) 0.7735(5)
C11_6 C 0.8772(10) 0.0469(7) 0.7711(6)
H5_6 H 0.746234 0.038688 0.828451
C19_6 C 0.8779(9) 0.1814(7) 0.7719(6)
C20_6 C 0.8969(11) 0.2422(8) 0.8148(6)
H9_6 H 0.933300 0.249958 0.848466
C21_6 C 0.8665(11) 0.2916(8) 0.8114(6)
H10_6 H 0.881313 0.333253 0.841939
C22_6 C 0.8121(10) 0.2801(7) 0.7613(6)
C23_6 C 0.7859(11) 0.2141(7) 0.7201(7)
H11_6 H 0.744885 0.202392 0.689565
C24_6 C 0.8196(10) 0.1671(7) 0.7242(6)
H12_6 H 0.803901 0.124099 0.694782
C25_6 C 0.7709(12) 0.3304(9) 0.7629(7)
S3_6 S 0.93043(24) 0.00041(17) 0.78259(16)
C12_6 C 0.7895(8) 0.9927(6) 0.7573(6)
C13_6 C 0.7313(9) 0.9995(6) 0.7957(6)
C14_6 C 0.6512(10) 0.9447(7) 0.7815(7)
H6_6 H 0.609832 0.947435 0.803940
C15_6 C 0.6318(11) 0.8863(8) 0.7348(6)
C16_6 C 0.6870(12) 0.8825(8) 0.7024(8)
H7_6 H 0.671092 0.843316 0.669503
C17_6 C 0.7698(13) 0.9337(10) 0.7132(8)
H8_6 H 0.809203 0.927288 0.690892
C18_6 C 0.5416(13) 0.8241(9) 0.7257(9)
O3_6 O 0.5292(8) 0.7813(6) 0.6727(6)
O4_6 O 0.4932(8) 0.8294(6) 0.7607(5)
O9_6 O 0.4011(8) 0.6416(6) 0.7676(4)
H17_6 H 0.358797 0.599542 0.755960
H18_6 H 0.436586 0.654941 0.738570
O10_6 O 0.2525(8) 0.6407(5) 0.7901(6)
H19_6 H 0.222044 0.659788 0.797158
H20_6 H 0.249754 0.611128 0.821348
Ni1_5 Ni 0.95814(9) 0.05084(13) 0.95895(8)
S1_5 S 0.99024(23) 0.17296(28) 0.96019(15)
S4_5 S 0.83582(15) 0.01698(21) 0.95075(15)
Ni1_6 Ni 0.04186(9) 0.94916(13) 0.45895(8)
S1_6 S 0.00976(23) 0.82704(28) 0.46019(15)
S4_6 S 0.16418(15) 0.98302(21) 0.45075(15)
loop_
_geom_bond_atom_site_label_1
_geom_bond_atom_site_label_2
_geom_bond_site_symmetry_1
_geom_bond_site_symmetry_2
C10 C11 1_555 1_555
C19 C10 1_555 1_555
C20 C19 1_555 1_555
H9 C20 1_555 1_555
C21 C20 1_555 1_555
H10 C21 1_555 1_555
C22 C21 1_555 1_555
C23 C22 1_555 1_555
H11 C23 1_555 1_555
C24 C19 1_555 1_555
H12 C24 1_555 1_555
C25 C22 1_555 1_555
Ni1 S1 1_555 1_555
O5 C25 1_555 1_555
O6 C25 1_555 1_555
S3 C11 1_555 1_555
S4 C10 1_555 1_555
Mn5 O6 1_555 1_555
Mn7 O5 1_555 1_555
C23 C24 1_555 1_555
Ni1 S3 1_555 1_555
Ni1 S4 1_555 1_555
C1 C2 1_555 1_555
H4 C8 1_555 1_555
C26 C27 1_555 1_555
C27 C28 1_555 1_555
C28 H13 1_555 1_555
C29 C28 1_555 1_555
H14 C29 1_555 1_555
C30 C1 1_555 1_555
C31 C30 1_555 1_555
H15 C31 1_555 1_555
C32 C27 1_555 1_555
H16 C32 1_555 1_555
O7 C26 1_555 1_555
O8 C26 1_555 1_555
S2 C2 1_555 1_555
Mn5 O7 1_555 1_555
Mn8 O8 1_555 1_555
C29 C30 1_555 1_555
C31 C32 1_555 1_555
O8 Mn5 1_555 1_555
C12 C13 1_555 1_555
C14 C13 1_555 1_555
H6 C14 1_555 1_555
C15 C14 1_555 1_555
C16 C15 1_555 1_555
H7 C16 1_555 1_555
C17 C12 1_555 1_555
H8 C17 1_555 1_555
C18 C15 1_555 1_555
Mn1 O3 1_555 1_555
Mn2 O4 1_555 1_555
O3 C18 1_555 1_555
O4 C18 1_555 1_555
O9 Mn2 1_555 1_555
H17 O9 1_555 1_555
H18 O9 1_555 1_555
O10 Mn2 1_555 1_555
H19 O10 1_555 1_555
H20 O10 1_555 1_555
O11 Mn2 1_555 1_555
O12 Mn1 1_555 1_555
O13 Mn2 1_555 1_555
O14 Mn1 1_555 1_555
O15 Mn1 1_555 1_555
O16 Mn1 1_555 1_555
C16 C17 1_555 1_555
Mn2 O16 1_555 1_555
C3 C4 1_555 1_555
C4 H1 1_555 1_555
C5 C4 1_555 1_555
H2 C5 1_555 1_555
C6 C5 1_555 1_555
C7 C6 1_555 1_555
H3 C7 1_555 1_555
C9 C6 1_555 1_555
O11 C9 1_555 1_555
O2 C9 1_555 1_555
Mn3 O2 1_555 1_555
C4_2 H1_2 1_555 1_555
C5_2 C4_2 1_555 1_555
H2_2 C5_2 1_555 1_555
C28_2 H13_2 1_555 1_555
C29_2 C28_2 1_555 1_555
H14_2 C29_2 1_555 1_555
Mn3_2 O2_2 1_555 1_555
Mn8_2 O8_2 1_555 1_555
C1_2 C2_2 1_555 1_555
C2_2 C3_2 1_555 1_555
C7_2 C6_2 1_555 1_555
H3_2 C7_2 1_555 1_555
C8_2 C3_2 1_555 1_555
H4_2 C8_2 1_555 1_555
C9_2 C6_2 1_555 1_555
C26_2 C27_2 1_555 1_555
C30_2 C1_2 1_555 1_555
C31_2 C30_2 1_555 1_555
H15_2 C31_2 1_555 1_555
C32_2 C27_2 1_555 1_555
H16_2 C32_2 1_555 1_555
O1 C9_2 1_555 1_555
O7_2 C26_2 1_555 1_555
S2_2 C2_2 1_555 1_555
Mn4 O7_2 1_555 1_555
Mn6 O1 1_555 1_555
C7_2 C8_2 1_555 1_555
C31_2 C32_2 1_555 1_555
C10_2 C11_2 1_555 1_555
C11_2 C12_2 1_555 1_555
C12_2 C13_2 1_555 1_555
C13_2 H5_2 1_555 1_555
C14_2 C13_2 1_555 1_555
H6_2 C14_2 1_555 1_555
C15_2 C14_2 1_555 1_555
C16_2 C15_2 1_555 1_555
H7_2 C16_2 1_555 1_555
C17_2 C12_2 1_555 1_555
H8_2 C17_2 1_555 1_555
C18_2 C15_2 1_555 1_555
C19_2 C10_2 1_555 1_555
C20_2 C19_2 1_555 1_555
C21_2 C20_2 1_555 1_555
C22_2 C21_2 1_555 1_555
C23_2 C22_2 1_555 1_555
H11_2 C23_2 1_555 1_555
C24_2 C19_2 1_555 1_555
H12_2 C24_2 1_555 1_555
C25_2 C22_2 1_555 1_555
Mn3 O3_2 1_555 1_555
Mn6 O4_2 1_555 1_555
O3_2 C18_2 1_555 1_555
O4_2 C18_2 1_555 1_555
O5_2 C25_2 1_555 1_555
O6_2 C25_2 1_555 1_555
O9_2 Mn6 1_555 1_555
H17_2 O9_2 1_555 1_555
H18_2 O9_2 1_555 1_555
O10_2 Mn6 1_555 1_555
H19_2 O10_2 1_555 1_555
H20_2 O10_2 1_555 1_555
S3_2 C11_2 1_555 1_555
Mn4 O6_2 1_555 1_555
Mn8 O5_2 1_555 1_555
O14_2 Mn3 1_555 1_555
O15_2 Mn3 1_555 1_555
O16_2 Mn3 1_555 1_555
C16_2 C17_2 1_555 1_555
C23_2 C24_2 1_555 1_555
Mn6 O16_2 1_555 1_555
C12_3 C13_3 1_555 1_555
C14_3 C13_3 1_555 1_555
H6_3 C14_3 1_555 1_555
C15_3 C14_3 1_555 1_555
C16_3 C15_3 1_555 1_555
H7_3 C16_3 1_555 1_555
C17_3 C12_3 1_555 1_555
H8_3 C17_3 1_555 1_555
C18_3 C15_3 1_555 1_555
Mn3_2 O3_3 1_555 1_555
Mn2_2 O4_3 1_555 1_555
O3_3 C18_3 1_555 1_555
O4_3 C18_3 1_555 1_555
O9_3 Mn2_2 1_555 1_555
H17_3 O9_3 1_555 1_555
H18_3 O9_3 1_555 1_555
O10_3 Mn2_2 1_555 1_555
H19_3 O10_3 1_555 1_555
H20_3 O10_3 1_555 1_555
O11_2 Mn2_2 1_555 1_555
O13_3 Mn2_2 1_555 1_555
O14_3 Mn3_2 1_555 1_555
O15_3 Mn3_2 1_555 1_555
O16_3 Mn3_2 1_555 1_555
C16_3 C17_3 1_555 1_555
Mn2_2 O16_3 1_555 1_555
C10_3 C11_3 1_555 1_555
C19_3 C10_3 1_555 1_555
C20_3 C19_3 1_555 1_555
H9_3 C20_3 1_555 1_555
C21_3 C20_3 1_555 1_555
H10_3 C21_3 1_555 1_555
C22_3 C21_3 1_555 1_555
C23_3 C22_3 1_555 1_555
H11_3 C23_3 1_555 1_555
C24_3 C19_3 1_555 1_555
H12_3 C24_3 1_555 1_555
C25_3 C22_3 1_555 1_555
O5_3 C25_3 1_555 1_555
O6_3 C25_3 1_555 1_555
S3_3 C11_3 1_555 1_555
Mn5_2 O6_3 1_555 1_555
Mn8_2 O5_3 1_555 1_555
C23_3 C24_3 1_555 1_555
C3_3 C4_3 1_555 1_555
C4_3 H1_3 1_555 1_555
C5_3 C4_3 1_555 1_555
H2_3 C5_3 1_555 1_555
C6_3 C5_3 1_555 1_555
C7_3 C6_3 1_555 1_555
H3_3 C7_3 1_555 1_555
C9_3 C6_3 1_555 1_555
O11_2 C9_3 1_555 1_555
O12 C9_3 1_555 1_555
C1_3 C2_3 1_555 1_555
H4_3 C8_3 1_555 1_555
C26_3 C27_3 1_555 1_555
C27_3 C28_3 1_555 1_555
C28_3 H13_3 1_555 1_555
C29_3 C28_3 1_555 1_555
H14_3 C29_3 1_555 1_555
C30_3 C1_3 1_555 1_555
C31_3 C30_3 1_555 1_555
H15_3 C31_3 1_555 1_555
C32_3 C27_3 1_555 1_555
H16_3 C32_3 1_555 1_555
Ni1_2 S1_2 1_555 1_555
O7_3 C26_3 1_555 1_555
O8_3 C26_3 1_555 1_555
S1_2 C1_3 1_555 1_555
S2_3 C2_3 1_555 1_555
Mn5_2 O7_3 1_555 1_555
Mn7 O8_3 1_555 1_555
C29_3 C30_3 1_555 1_555
C31_3 C32_3 1_555 1_555
Ni1_2 S2_3 1_555 1_555
Ni1_2 S4_2 1_555 1_555
O8_3 Mn5_2 1_555 1_555
C3_4 C4_4 1_555 1_555
C4_4 H1_4 1_555 1_555
C5_4 C4_4 1_555 1_555
H2_4 C5_4 1_555 1_555
C6_4 C5_4 1_555 1_555
C7_4 C6_4 1_555 1_555
H3_4 C7_4 1_555 1_555
C9_4 C6_4 1_555 1_555
O1_2 C9_4 1_555 1_555
O2_3 C9_4 1_555 1_555
Mn5_2 O2_3 1_555 1_555
Mn8_2 O1_2 1_555 1_555
C12_4 C13_4 1_555 1_555
C14_4 C13_4 1_555 1_555
H6_4 C14_4 1_555 1_555
C15_4 C14_4 1_555 1_555
C16_4 C15_4 1_555 1_555
H7_4 C16_4 1_555 1_555
C17_4 C12_4 1_555 1_555
H8_4 C17_4 1_555 1_555
C18_4 C15_4 1_555 1_555
Mn8_2 O4_4 1_555 1_555
O3_4 C18_4 1_555 1_555
O4_4 C18_4 1_555 1_555
O9_4 Mn8_2 1_555 1_555
H17_4 O9_4 1_555 1_555
H18_4 O9_4 1_555 1_555
O10_4 Mn8_2 1_555 1_555
H19_4 O10_4 1_555 1_555
H20_4 O10_4 1_555 1_555
C16_4 C17_4 1_555 1_555
O12_2 Mn4 1_555 1_555
C1_4 C2_4 1_555 1_555
H4_4 C8_4 1_555 1_555
C26_4 C27_4 1_555 1_555
C27_4 C28_4 1_555 1_555
C28_4 H13_4 1_555 1_555
C29_4 C28_4 1_555 1_555
H14_4 C29_4 1_555 1_555
C30_4 C1_4 1_555 1_555
C31_4 C30_4 1_555 1_555
H15_4 C31_4 1_555 1_555
C32_4 C27_4 1_555 1_555
H16_4 C32_4 1_555 1_555
O15_3 C26_4 1_555 1_555
O16_3 C26_4 1_555 1_555
S2_4 C2_4 1_555 1_555
C29_4 C30_4 1_555 1_555
C31_4 C32_4 1_555 1_555
C10_4 C11_4 1_555 1_555
C19_4 C10_4 1_555 1_555
C20_4 C19_4 1_555 1_555
H9_4 C20_4 1_555 1_555
C21_4 C20_4 1_555 1_555
H10_4 C21_4 1_555 1_555
C22_4 C21_4 1_555 1_555
C23_4 C22_4 1_555 1_555
H11_4 C23_4 1_555 1_555
C24_4 C19_4 1_555 1_555
H12_4 C24_4 1_555 1_555
C25_4 C22_4 1_555 1_555
Ni1_3 S1_3 1_555 1_555
O13_2 C25_4 1_555 1_555
O14_3 C25_4 1_555 1_555
S3_4 C11_4 1_555 1_555
S4_3 C10_4 1_555 1_555
C23_4 C24_4 1_555 1_555
Ni1_3 S3_4 1_555 1_555
Ni1_3 S4_3 1_555 1_555
C10_5 C11_5 1_555 1_555
C11_5 C12_5 1_555 1_555
C12_5 C13_5 1_555 1_555
C13_5 H5_5 1_555 1_555
C14_5 C13_5 1_555 1_555
H6_5 C14_5 1_555 1_555
C15_5 C14_5 1_555 1_555
C16_5 C15_5 1_555 1_555
H7_5 C16_5 1_555 1_555
C17_5 C12_5 1_555 1_555
H8_5 C17_5 1_555 1_555
C18_5 C15_5 1_555 1_555
C19_5 C10_5 1_555 1_555
C20_5 C19_5 1_555 1_555
H9_5 C20_5 1_555 1_555
C21_5 C20_5 1_555 1_555
H10_5 C21_5 1_555 1_555
C22_5 C21_5 1_555 1_555
C23_5 C22_5 1_555 1_555
H11_5 C23_5 1_555 1_555
C24_5 C19_5 1_555 1_555
H12_5 C24_5 1_555 1_555
C25_5 C22_5 1_555 1_555
Mn5_2 O3_5 1_555 1_555
Mn7 O4_5 1_555 1_555
O3_5 C18_5 1_555 1_555
O4_5 C18_5 1_555 1_555
O13_3 C25_5 1_555 1_555
O14 C25_5 1_555 1_555
O9_5 Mn7 1_555 1_555
H17_5 O9_5 1_555 1_555
H18_5 O9_5 1_555 1_555
O10_5 Mn7 1_555 1_555
H19_5 O10_5 1_555 1_555
H20_5 O10_5 1_555 1_555
S3_5 C11_5 1_555 1_555
O11_3 Mn7 1_555 1_555
C16_5 C17_5 1_555 1_555
C23_5 C24_5 1_555 1_555
C1_5 C2_5 1_555 1_555
C2_5 C3_5 1_555 1_555
C3_5 C4_5 1_555 1_555
C4_5 H1_5 1_555 1_555
C5_5 C4_5 1_555 1_555
H2_5 C5_5 1_555 1_555
C6_5 C5_5 1_555 1_555
C7_5 C6_5 1_555 1_555
H3_5 C7_5 1_555 1_555
C8_5 C3_5 1_555 1_555
H4_5 C8_5 1_555 1_555
C9_5 C6_5 1_555 1_555
C26_5 C27_5 1_555 1_555
C27_5 C28_5 1_555 1_555
C28_5 H13_5 1_555 1_555
C29_5 C28_5 1_555 1_555
H14_5 C29_5 1_555 1_555
C30_5 C1_5 1_555 1_555
C31_5 C30_5 1_555 1_555
H15_5 C31_5 1_555 1_555
C32_5 C27_5 1_555 1_555
H16_5 C32_5 1_555 1_555
O11_3 C9_5 1_555 1_555
O2_4 C9_5 1_555 1_555
O15 C26_5 1_555 1_555
O16 C26_5 1_555 1_555
S2_5 C2_5 1_555 1_555
Mn5 O2_4 1_555 1_555
C7_5 C8_5 1_555 1_555
C29_5 C30_5 1_555 1_555
C31_5 C32_5 1_555 1_555
C1_6 C2_6 1_555 1_555
H4_6 C8_6 1_555 1_555
C26_6 C27_6 1_555 1_555
C27_6 C28_6 1_555 1_555
C28_6 H13_6 1_555 1_555
C29_6 C28_6 1_555 1_555
H14_6 C29_6 1_555 1_555
C30_6 C1_6 1_555 1_555
C31_6 C30_6 1_555 1_555
H15_6 C31_6 1_555 1_555
C32_6 C27_6 1_555 1_555
H16_6 C32_6 1_555 1_555
Ni1_4 S1_4 1_555 1_555
O15_2 C26_6 1_555 1_555
O16_2 C26_6 1_555 1_555
S1_4 C1_6 1_555 1_555
S2_6 C2_6 1_555 1_555
C29_6 C30_6 1_555 1_555
C31_6 C32_6 1_555 1_555
Ni1_4 S2_6 1_555 1_555
Ni1_4 S4_4 1_555 1_555
C3_6 C4_6 1_555 1_555
C4_6 H1_6 1_555 1_555
C5_6 C4_6 1_555 1_555
H2_6 C5_6 1_555 1_555
C6_6 C5_6 1_555 1_555
C7_6 C6_6 1_555 1_555
H3_6 C7_6 1_555 1_555
C9_6 C6_6 1_555 1_555
O1_3 C9_6 1_555 1_555
O12_2 C9_6 1_555 1_555
Mn8 O1_3 1_555 1_555
C10_6 C11_6 1_555 1_555
C19_6 C10_6 1_555 1_555
C20_6 C19_6 1_555 1_555
H9_6 C20_6 1_555 1_555
C21_6 C20_6 1_555 1_555
H10_6 C21_6 1_555 1_555
C22_6 C21_6 1_555 1_555
C23_6 C22_6 1_555 1_555
H11_6 C23_6 1_555 1_555
C24_6 C19_6 1_555 1_555
H12_6 C24_6 1_555 1_555
C25_6 C22_6 1_555 1_555
O13 C25_6 1_555 1_555
O14_2 C25_6 1_555 1_555
S3_6 C11_6 1_555 1_555
C23_6 C24_6 1_555 1_555
C12_6 C13_6 1_555 1_555
C14_6 C13_6 1_555 1_555
H6_6 C14_6 1_555 1_555
C15_6 C14_6 1_555 1_555
C16_6 C15_6 1_555 1_555
H7_6 C16_6 1_555 1_555
C17_6 C12_6 1_555 1_555
H8_6 C17_6 1_555 1_555
C18_6 C15_6 1_555 1_555
Mn5 O3_6 1_555 1_555
Mn8 O4_6 1_555 1_555
O3_6 C18_6 1_555 1_555
O4_6 C18_6 1_555 1_555
O9_6 Mn8 1_555 1_555
H17_6 O9_6 1_555 1_555
H18_6 O9_6 1_555 1_555
O10_6 Mn8 1_555 1_555
H19_6 O10_6 1_555 1_555
H20_6 O10_6 1_555 1_555
C16_6 C17_6 1_555 1_555
Ni1_5 S1_5 1_555 1_555
Ni1_5 S4_5 1_555 1_555
Ni1_6 S1_6 1_555 1_555
Ni1_6 S4_6 1_555 1_555

#END
