
###############################################################################
#
# This file contains modified crystal structure data generated from the
# MOF subset of the Cambridge Structural Database (CSD) v543 
# hosted by the Cambridge Crystallographic Data Centre (CCDC).
#
# This work is licensed under the Creative Commons
# Attribution-NonCommercial-ShareAlike 4.0 International License.
# To view a copy of this license, visit
# http://creativecommons.org/licenses/by-nc-sa/4.0/
# or send a letter to
# Creative Commons, PO Box 1866, Mountain View, CA 94042, USA.
#
# CIF created using the CSD Python API on 29 September 2022
# The structure has been converted into the P1 space group
# The structure has a 3D framework
# The original CSD entry PUQDUB is in the monoclinic crystal system
# The framework has been calculated to contain at least 10.0% void space
# The void calculation uses a probe of radius 1.32A, grid spacing 0.4
#
###############################################################################

data_PUQDUB
_chemical_formula_moiety         '(C112 H96 N32 O48 Pb8)n'
_symmetry_cell_setting           triclinic
_symmetry_space_group_name_H-M   'P 1'
_symmetry_Int_Tables_number      1
_space_group_name_Hall           'P 1'
loop_
_symmetry_equiv_pos_site_id
_symmetry_equiv_pos_as_xyz
1 x,y,z
_cell_length_a                   17.497(10)
_cell_length_b                   18.093(7)
_cell_length_c                   13.224(6)
_cell_angle_alpha                90
_cell_angle_beta                 117.798(17)
_cell_angle_gamma                90
_cell_volume                     3703.25
loop_
_atom_site_label
_atom_site_type_symbol
_atom_site_fract_x
_atom_site_fract_y
_atom_site_fract_z
O2 O 0.4269(4) 0.0247(3) 0.1030(4)
O3 O 0.4469(3) 0.1679(3) 0.1283(4)
C10 C 0.3944(4) 0.0646(4) 0.0033(5)
C11 C 0.4078(4) 0.1411(4) 0.0221(6)
Pb3 Pb 0.397387(18) 0.141590(16) 0.26352(2)
Pb4 Pb 0.602613(18) 0.141590(16) 0.23648(2)
O11 O 0.9469(3) 0.6679(3) 0.1283(4)
Pb6 Pb 0.897387(18) 0.358410(16) 0.76352(2)
O2_2 O 0.5731(4) 0.0247(3) 0.3970(4)
O3_2 O 0.5531(3) 0.1679(3) 0.3717(4)
C7 C 0.7289(5) 0.0551(4) 0.8155(6)
H6 H 0.7573 0.0886 0.8748
C8 C 0.6800(4) 0.0831(4) 0.6991(5)
C9 C 0.6487(4) 0.0353(4) 0.6058(5)
C10_2 C 0.6056(4) 0.0646(4) 0.4967(5)
C11_2 C 0.5922(4) 0.1411(4) 0.4779(6)
C12 C 0.6230(5) 0.1864(4) 0.5728(6)
H8 H 0.6139 0.2371 0.5631
C13 C 0.6671(5) 0.1576(4) 0.6822(6)
H9 H 0.6881 0.1893 0.7448
Pb1 Pb 0.897387(18) 0.641590(16) 0.26352(2)
N1 N 0.8885(4) 0.7782(4) 0.2410(5)
C1 C 0.8458(4) 0.8046(4) 0.1336(6)
H2 H 0.8198 0.7711 0.0739
C2 C 0.8387(4) 0.8787(4) 0.1076(5)
C3 C 0.8783(5) 0.9278(4) 0.1961(6)
H3 H 0.8749 0.9784 0.1822
C4 C 0.9232(6) 0.9008(5) 0.3065(6)
H4 H 0.9510 0.9333 0.3674
C5 C 0.9268(5) 0.8276(5) 0.3256(6)
H5 H 0.9570 0.8106 0.4003
N4 N 0.8343(12) 0.7074(10) 0.4364(15)
O4 O 0.7841(9) 0.6770(7) 0.3482(11)
O5 O 0.9090(10) 0.7056(8) 0.4740(13)
O6 O 0.8282(17) 0.7357(14) 0.528(2)
N6 N 0.7155(4) 0.5316(3) 0.0464(5)
N7 N 0.7659(4) 0.5135(3) 0.1611(5)
O7 O 0.7572(3) 0.6510(3) 0.0833(4)
O8 O 0.9269(4) 0.4753(3) 0.6030(4)
O9 O 0.9469(3) 0.3321(3) 0.6283(4)
C20 C 0.7146(4) 0.6018(4) 0.0146(6)
C21 C 0.7711(5) 0.4449(4) 0.1845(6)
H18 H 0.7427 0.4114 0.1252
C22 C 0.8200(4) 0.4169(4) 0.3009(5)
C23 C 0.8513(4) 0.4647(4) 0.3942(5)
H19 H 0.8434 0.5154 0.3834
C24 C 0.8944(4) 0.4354(4) 0.5033(5)
C25 C 0.9078(4) 0.3589(4) 0.5221(6)
C26 C 0.8770(5) 0.3136(4) 0.4272(6)
H20 H 0.8861 0.2629 0.4369
C27 C 0.8329(5) 0.3424(4) 0.3178(6)
H21 H 0.8119 0.3107 0.2552
C28 C 0.9219(7) 0.5542(5) 0.5912(7)
H22 H 0.9431 0.5765 0.6653
H23 H 0.9564 0.5702 0.5562
H24 H 0.8629 0.5686 0.5442
O2_3 O 0.9269(4) 0.5247(3) 0.1030(4)
C10_3 C 0.8944(4) 0.5646(4) 0.0033(5)
C11_3 C 0.9078(4) 0.6411(4) 0.0221(6)
C14 C 0.9219(7) 0.4458(5) 0.0912(7)
H10 H 0.9431 0.4235 0.1653
H11 H 0.9564 0.4298 0.0562
H12 H 0.8629 0.4314 0.0442
O16 O 0.8282(17) 0.2643(14) 0.028(2)
N1_2 N 0.6115(4) 0.2782(4) 0.2590(5)
N2 N 0.7155(4) 0.4684(3) 0.5464(5)
H1 H 0.6846 0.5034 0.4950
N3 N 0.7659(4) 0.4865(3) 0.6611(5)
O1 O 0.7572(3) 0.3490(3) 0.5833(4)
C1_2 C 0.6542(4) 0.3046(4) 0.3664(6)
H2_2 H 0.6802 0.2711 0.4261
C2_2 C 0.6613(4) 0.3787(4) 0.3924(5)
C3_2 C 0.6217(5) 0.4278(4) 0.3039(6)
H3_2 H 0.6251 0.4784 0.3178
C4_2 C 0.5768(6) 0.4008(5) 0.1935(6)
H4_2 H 0.5490 0.4333 0.1326
C5_2 C 0.5732(5) 0.3276(5) 0.1744(6)
H5_2 H 0.5430 0.3106 0.0997
C6 C 0.7146(4) 0.3982(4) 0.5146(6)
C7_2 C 0.7711(5) 0.5551(4) 0.6845(6)
H6_2 H 0.7427 0.5886 0.6252
C8_2 C 0.8200(4) 0.5831(4) 0.8009(5)
C9_2 C 0.8513(4) 0.5353(4) 0.8942(5)
H7 H 0.8434 0.4846 0.8834
C12_2 C 0.8770(5) 0.6864(4) 0.9272(6)
H8_2 H 0.8861 0.7371 0.9369
C13_2 C 0.8329(5) 0.6576(4) 0.8178(6)
H9_2 H 0.8119 0.6893 0.7552
N4_2 N 0.6657(12) 0.2074(10) 0.0636(15)
O4_2 O 0.7159(9) 0.1770(7) 0.1518(11)
O5_2 O 0.5910(10) 0.2056(8) 0.0260(13)
N5 N 0.8885(4) 0.2218(4) 0.7410(5)
N6_2 N 0.7845(4) 0.0316(3) 0.4536(5)
N7_2 N 0.7341(4) 0.0135(3) 0.3389(5)
O7_2 O 0.7428(3) 0.1510(3) 0.4167(4)
C15 C 0.8458(4) 0.1954(4) 0.6336(6)
H14 H 0.8198 0.2289 0.5739
C16 C 0.8387(4) 0.1213(4) 0.6076(5)
C17 C 0.8783(5) 0.0722(4) 0.6961(6)
H15 H 0.8749 0.0216 0.6822
C18 C 0.9232(6) 0.0992(5) 0.8065(6)
H16 H 0.9510 0.0667 0.8674
C19 C 0.9268(5) 0.1724(5) 0.8256(6)
H17 H 0.9570 0.1894 0.9003
C20_2 C 0.7854(4) 0.1018(4) 0.4854(6)
H19_2 H 0.6566 0.0154 0.1166
N8 N 0.8343(12) 0.2926(10) 0.9364(15)
O14 O 0.7841(9) 0.3230(7) 0.8482(11)
O15 O 0.9090(10) 0.2944(8) 0.9740(13)
N1_3 N 0.3885(4) 0.2782(4) 0.2410(5)
H1_2 H 0.3154 0.5034 0.0050
C1_3 C 0.3458(4) 0.3046(4) 0.1336(6)
H2_3 H 0.3198 0.2711 0.0739
C2_3 C 0.3387(4) 0.3787(4) 0.1076(5)
C3_3 C 0.3783(5) 0.4278(4) 0.1961(6)
H3_3 H 0.3749 0.4784 0.1822
C4_3 C 0.4232(6) 0.4008(5) 0.3065(6)
H4_3 H 0.4510 0.4333 0.3674
C5_3 C 0.4268(5) 0.3276(5) 0.3256(6)
H5_3 H 0.4570 0.3106 0.4003
N4_3 N 0.3343(12) 0.2074(10) 0.4364(15)
O4_3 O 0.2841(9) 0.1770(7) 0.3482(11)
O5_3 O 0.4090(10) 0.2056(8) 0.4740(13)
O6_2 O 0.3282(17) 0.2357(14) 0.528(2)
N6_3 N 0.2155(4) 0.0316(3) 0.0464(5)
N7_3 N 0.2659(4) 0.0135(3) 0.1611(5)
O7_3 O 0.2572(3) 0.1510(3) 0.0833(4)
C20_3 C 0.2146(4) 0.1018(4) 0.0146(6)
H19_3 H 0.3434 0.0154 0.3834
C28_2 C 0.4219(7) 0.0542(5) 0.5912(7)
H22_2 H 0.4431 0.0765 0.6653
H23_2 H 0.4564 0.0702 0.5562
H24_2 H 0.3629 0.0686 0.5442
H1_3 H 0.1846 0.0034 0.4950
C7_3 C 0.2711(5) 0.0551(4) 0.6845(6)
H6_3 H 0.2427 0.0886 0.6252
C8_3 C 0.3200(4) 0.0831(4) 0.8009(5)
C9_3 C 0.3513(4) 0.0353(4) 0.8942(5)
C12_3 C 0.3770(5) 0.1864(4) 0.9272(6)
H8_3 H 0.3861 0.2371 0.9369
C13_3 C 0.3329(5) 0.1576(4) 0.8178(6)
H9_3 H 0.3119 0.1893 0.7552
C14_2 C 0.4219(7) 0.9458(5) 0.0912(7)
H10_2 H 0.4431 0.9235 0.1653
H11_2 H 0.4564 0.9298 0.0562
H12_2 H 0.3629 0.9314 0.0442
O16_2 O 0.3282(17) 0.7643(14) 0.028(2)
Pb1_2 Pb 0.102613(18) 0.641590(16) 0.23648(2)
N1_4 N 0.1115(4) 0.7782(4) 0.2590(5)
N2_2 N 0.2155(4) 0.9684(3) 0.5464(5)
N3_2 N 0.2659(4) 0.9865(3) 0.6611(5)
O1_2 O 0.2572(3) 0.8490(3) 0.5833(4)
C1_4 C 0.1542(4) 0.8046(4) 0.3664(6)
H2_4 H 0.1802 0.7711 0.4261
C2_4 C 0.1613(4) 0.8787(4) 0.3924(5)
C3_4 C 0.1217(5) 0.9278(4) 0.3039(6)
H3_4 H 0.1251 0.9784 0.3178
C4_4 C 0.0768(6) 0.9008(5) 0.1935(6)
H4_4 H 0.0490 0.9333 0.1326
C5_4 C 0.0732(5) 0.8276(5) 0.1744(6)
H5_4 H 0.0430 0.8106 0.0997
C6_2 C 0.2146(4) 0.8982(4) 0.5146(6)
H7_2 H 0.3434 0.9846 0.8834
N4_4 N 0.1657(12) 0.7074(10) 0.0636(15)
O4_4 O 0.2159(9) 0.6770(7) 0.1518(11)
O5_4 O 0.0910(10) 0.7056(8) 0.0260(13)
Pb2 Pb 0.397387(18) 0.858410(16) 0.76352(2)
N5_2 N 0.3885(4) 0.7218(4) 0.7410(5)
N6_4 N 0.2845(4) 0.5316(3) 0.4536(5)
H13 H 0.3154 0.4966 0.5050
N7_4 N 0.2341(4) 0.5135(3) 0.3389(5)
O7_4 O 0.2428(3) 0.6510(3) 0.4167(4)
O10 O 0.0531(3) 0.6679(3) 0.3717(4)
O12 O 0.4469(3) 0.8321(3) 0.6283(4)
O13 O 0.5531(3) 0.8321(3) 0.8717(4)
C15_2 C 0.3458(4) 0.6954(4) 0.6336(6)
H14_2 H 0.3198 0.7289 0.5739
C16_2 C 0.3387(4) 0.6213(4) 0.6076(5)
C17_2 C 0.3783(5) 0.5722(4) 0.6961(6)
H15_2 H 0.3749 0.5216 0.6822
C18_2 C 0.4232(6) 0.5992(5) 0.8065(6)
H16_2 H 0.4510 0.5667 0.8674
C19_2 C 0.4268(5) 0.6724(5) 0.8256(6)
H17_2 H 0.4570 0.6894 0.9003
C20_4 C 0.2854(4) 0.6018(4) 0.4854(6)
C21_2 C 0.2289(5) 0.4449(4) 0.3155(6)
H18_2 H 0.2573 0.4114 0.3748
C22_2 C 0.1800(4) 0.4169(4) 0.1991(5)
C23_2 C 0.1487(4) 0.4647(4) 0.1058(5)
H19_4 H 0.1566 0.5154 0.1166
C26_2 C 0.1230(5) 0.3136(4) 0.0728(6)
H20_2 H 0.1139 0.2629 0.0631
C27_2 C 0.1671(5) 0.3424(4) 0.1822(6)
H21_2 H 0.1881 0.3107 0.2448
N8_2 N 0.3343(12) 0.7926(10) 0.9364(15)
O14_2 O 0.2841(9) 0.8230(7) 0.8482(11)
O15_2 O 0.4090(10) 0.7944(8) 0.9740(13)
O6_3 O 0.1718(17) 0.7357(14) 0.972(2)
Pb5 Pb 0.102613(18) 0.358410(16) 0.73648(2)
O8_2 O 0.0731(4) 0.4753(3) 0.8970(4)
O9_2 O 0.0531(3) 0.3321(3) 0.8717(4)
C24_2 C 0.1056(4) 0.4354(4) 0.9967(5)
C25_2 C 0.0922(4) 0.3589(4) 0.9779(6)
C28_3 C 0.0781(7) 0.5542(5) 0.9088(7)
H22_3 H 0.0569 0.5765 0.8347
H23_3 H 0.0436 0.5702 0.9438
H24_3 H 0.1371 0.5686 0.9558
N2_3 N 0.7845(4) 0.9684(3) 0.9536(5)
N3_3 N 0.7341(4) 0.9865(3) 0.8389(5)
O1_3 O 0.7428(3) 0.8490(3) 0.9167(4)
C6_3 C 0.7854(4) 0.8982(4) 0.9854(6)
H7_3 H 0.6566 0.9846 0.6166
C14_3 C 0.5781(7) 0.9458(5) 0.4088(7)
H10_3 H 0.5569 0.9235 0.3347
H11_3 H 0.5436 0.9298 0.4438
H12_3 H 0.6371 0.9314 0.4558
Pb2_2 Pb 0.602613(18) 0.858410(16) 0.73648(2)
N5_3 N 0.6115(4) 0.7218(4) 0.7590(5)
H13_2 H 0.6846 0.4966 0.9950
C15_3 C 0.6542(4) 0.6954(4) 0.8664(6)
H14_3 H 0.6802 0.7289 0.9261
C16_3 C 0.6613(4) 0.6213(4) 0.8924(5)
C17_3 C 0.6217(5) 0.5722(4) 0.8039(6)
H15_3 H 0.6251 0.5216 0.8178
C18_3 C 0.5768(6) 0.5992(5) 0.6935(6)
H16_3 H 0.5490 0.5667 0.6326
C19_3 C 0.5732(5) 0.6724(5) 0.6744(6)
H17_3 H 0.5430 0.6894 0.5997
N8_3 N 0.6657(12) 0.7926(10) 0.5636(15)
O14_3 O 0.7159(9) 0.8230(7) 0.6518(11)
O15_3 O 0.5910(10) 0.7944(8) 0.5260(13)
O16_3 O 0.6718(17) 0.7643(14) 0.472(2)
O8_3 O 0.5731(4) 0.9753(3) 0.8970(4)
C24_3 C 0.6056(4) 0.9354(4) 0.9967(5)
C25_3 C 0.5922(4) 0.8589(4) 0.9779(6)
N2_4 N 0.2845(4) 0.4684(3) 0.9536(5)
N3_4 N 0.2341(4) 0.4865(3) 0.8389(5)
O1_4 O 0.2428(3) 0.3490(3) 0.9167(4)
O2_4 O 0.0731(4) 0.5247(3) 0.3970(4)
C6_4 C 0.2854(4) 0.3982(4) 0.9854(6)
C7_4 C 0.2289(5) 0.5551(4) 0.8155(6)
H6_4 H 0.2573 0.5886 0.8748
C8_4 C 0.1800(4) 0.5831(4) 0.6991(5)
C9_4 C 0.1487(4) 0.5353(4) 0.6058(5)
H7_4 H 0.1566 0.4846 0.6166
C10_4 C 0.1056(4) 0.5646(4) 0.4967(5)
C11_4 C 0.0922(4) 0.6411(4) 0.4779(6)
C12_4 C 0.1230(5) 0.6864(4) 0.5728(6)
H8_4 H 0.1139 0.7371 0.5631
C13_4 C 0.1671(5) 0.6576(4) 0.6822(6)
H9_4 H 0.1881 0.6893 0.7448
C14_4 C 0.0781(7) 0.4458(5) 0.4088(7)
H10_4 H 0.0569 0.4235 0.3347
H11_4 H 0.0436 0.4298 0.4438
H12_4 H 0.1371 0.4314 0.4558
N5_4 N 0.1115(4) 0.2218(4) 0.7590(5)
C15_4 C 0.1542(4) 0.1954(4) 0.8664(6)
H14_4 H 0.1802 0.2289 0.9261
C16_4 C 0.1613(4) 0.1213(4) 0.8924(5)
C17_4 C 0.1217(5) 0.0722(4) 0.8039(6)
H15_4 H 0.1251 0.0216 0.8178
C18_4 C 0.0768(6) 0.0992(5) 0.6935(6)
H16_4 H 0.0490 0.0667 0.6326
C19_4 C 0.0732(5) 0.1724(5) 0.6744(6)
H17_4 H 0.0430 0.1894 0.5997
N8_4 N 0.1657(12) 0.2926(10) 0.5636(15)
O14_4 O 0.2159(9) 0.3230(7) 0.6518(11)
O15_4 O 0.0910(10) 0.2944(8) 0.5260(13)
O16_4 O 0.1718(17) 0.2643(14) 0.472(2)
O8_4 O 0.4269(4) 0.9753(3) 0.6030(4)
C21_3 C 0.2711(5) 0.9449(4) 0.1845(6)
H18_3 H 0.2427 0.9114 0.1252
C22_3 C 0.3200(4) 0.9169(4) 0.3009(5)
C23_3 C 0.3513(4) 0.9647(4) 0.3942(5)
C24_4 C 0.3944(4) 0.9354(4) 0.5033(5)
C25_4 C 0.4078(4) 0.8589(4) 0.5221(6)
C26_3 C 0.3770(5) 0.8136(4) 0.4272(6)
H20_3 H 0.3861 0.7629 0.4369
C27_3 C 0.3329(5) 0.8424(4) 0.3178(6)
H21_3 H 0.3119 0.8107 0.2552
H1_4 H 0.8154 0.0034 0.0050
O6_4 O 0.6718(17) 0.2357(14) 0.972(2)
C28_4 C 0.5781(7) 0.0542(5) 0.9088(7)
H22_4 H 0.5569 0.0765 0.8347
H23_4 H 0.5436 0.0702 0.9438
H24_4 H 0.6371 0.0686 0.9558
H13_3 H 0.8154 0.9966 0.5050
C21_4 C 0.7289(5) 0.9449(4) 0.3155(6)
H18_4 H 0.7573 0.9114 0.3748
C22_4 C 0.6800(4) 0.9169(4) 0.1991(5)
C23_4 C 0.6487(4) 0.9647(4) 0.1058(5)
C26_4 C 0.6230(5) 0.8136(4) 0.0728(6)
H20_4 H 0.6139 0.7629 0.0631
C27_4 C 0.6671(5) 0.8424(4) 0.1822(6)
H21_4 H 0.6881 0.8107 0.2448
H13_4 H 0.1846 0.9966 0.9950
loop_
_geom_bond_atom_site_label_1
_geom_bond_atom_site_label_2
_geom_bond_site_symmetry_1
_geom_bond_site_symmetry_2
O2 C10 1_555 1_555
O3 C11 1_555 1_555
C11 C10 1_555 1_555
Pb3 O3 1_555 1_555
Pb4 O3 1_555 1_555
O2_2 C10_2 1_555 1_555
O3_2 C11_2 1_555 1_555
H6 C7 1_555 1_555
C8 C7 1_555 1_555
C9 C8 1_555 1_555
C10_2 C9 1_555 1_555
C11_2 C10_2 1_555 1_555
C12 C11_2 1_555 1_555
H8 C12 1_555 1_555
C13 C8 1_555 1_555
H9 C13 1_555 1_555
Pb4 O3_2 1_555 1_555
Pb3 O3_2 1_555 1_555
C12 C13 1_555 1_555
Pb1 N1 1_555 1_555
N1 C1 1_555 1_555
C1 H2 1_555 1_555
C2 C1 1_555 1_555
C3 C2 1_555 1_555
H3 C3 1_555 1_555
C4 C3 1_555 1_555
H4 C4 1_555 1_555
C5 N1 1_555 1_555
H5 C5 1_555 1_555
N4 O4 1_555 1_555
O4 Pb1 1_555 1_555
O5 N4 1_555 1_555
O6 N4 1_555 1_555
Pb6 O9 1_555 1_555
N7 N6 1_555 1_555
O7 Pb1 1_555 1_555
O8 C24 1_555 1_555
O9 C25 1_555 1_555
O11 Pb1 1_555 1_555
C20 N6 1_555 1_555
C21 N7 1_555 1_555
H18 C21 1_555 1_555
C22 C21 1_555 1_555
C23 C22 1_555 1_555
H19 C23 1_555 1_555
C24 C23 1_555 1_555
C25 C24 1_555 1_555
C26 C25 1_555 1_555
H20 C26 1_555 1_555
C27 C22 1_555 1_555
H21 C27 1_555 1_555
C28 O8 1_555 1_555
H22 C28 1_555 1_555
H23 C28 1_555 1_555
H24 C28 1_555 1_555
C4 C5 1_555 1_555
O7 C20 1_555 1_555
C26 C27 1_555 1_555
O2_3 C10_3 1_555 1_555
O11 C11_3 1_555 1_555
C11_3 C10_3 1_555 1_555
C14 O2_3 1_555 1_555
H10 C14 1_555 1_555
H11 C14 1_555 1_555
H12 C14 1_555 1_555
Pb4 N1_2 1_555 1_555
N1_2 C1_2 1_555 1_555
N2 H1 1_555 1_555
N3 N2 1_555 1_555
O1 C6 1_555 1_555
C1_2 H2_2 1_555 1_555
C2_2 C1_2 1_555 1_555
C3_2 C2_2 1_555 1_555
H3_2 C3_2 1_555 1_555
C4_2 C3_2 1_555 1_555
H4_2 C4_2 1_555 1_555
C5_2 N1_2 1_555 1_555
H5_2 C5_2 1_555 1_555
C6 N2 1_555 1_555
C7_2 N3 1_555 1_555
H6_2 C7_2 1_555 1_555
C8_2 C7_2 1_555 1_555
C9_2 C8_2 1_555 1_555
H7 C9_2 1_555 1_555
H8_2 C12_2 1_555 1_555
C13_2 C8_2 1_555 1_555
H9_2 C13_2 1_555 1_555
N4_2 O4_2 1_555 1_555
O4_2 Pb4 1_555 1_555
O5_2 N4_2 1_555 1_555
Pb6 O1 1_555 1_555
N5 Pb6 1_555 1_555
N7_2 N6_2 1_555 1_555
O7_2 Pb4 1_555 1_555
C15 N5 1_555 1_555
H14 C15 1_555 1_555
C16 C15 1_555 1_555
C17 C16 1_555 1_555
H15 C17 1_555 1_555
C18 C17 1_555 1_555
H16 C18 1_555 1_555
C19 N5 1_555 1_555
H17 C19 1_555 1_555
C20_2 N6_2 1_555 1_555
N8 O14 1_555 1_555
O14 Pb6 1_555 1_555
O15 N8 1_555 1_555
C2_2 C6 1_555 1_555
C4_2 C5_2 1_555 1_555
C12_2 C13_2 1_555 1_555
O7_2 C20_2 1_555 1_555
C16 C20_2 1_555 1_555
C18 C19 1_555 1_555
Pb3 N1_3 1_555 1_555
N1_3 C1_3 1_555 1_555
C1_3 H2_3 1_555 1_555
C2_3 C1_3 1_555 1_555
C3_3 C2_3 1_555 1_555
H3_3 C3_3 1_555 1_555
C4_3 C3_3 1_555 1_555
H4_3 C4_3 1_555 1_555
C5_3 N1_3 1_555 1_555
H5_3 C5_3 1_555 1_555
N4_3 O4_3 1_555 1_555
O4_3 Pb3 1_555 1_555
O5_3 N4_3 1_555 1_555
O6_2 N4_3 1_555 1_555
N7_3 N6_3 1_555 1_555
O7_3 Pb3 1_555 1_555
C20_3 N6_3 1_555 1_555
H22_2 C28_2 1_555 1_555
H23_2 C28_2 1_555 1_555
H24_2 C28_2 1_555 1_555
C4_3 C5_3 1_555 1_555
O7_3 C20_3 1_555 1_555
H6_3 C7_3 1_555 1_555
C8_3 C7_3 1_555 1_555
C9_3 C8_3 1_555 1_555
H8_3 C12_3 1_555 1_555
C13_3 C8_3 1_555 1_555
H9_3 C13_3 1_555 1_555
C12_3 C13_3 1_555 1_555
H10_2 C14_2 1_555 1_555
H11_2 C14_2 1_555 1_555
H12_2 C14_2 1_555 1_555
Pb1_2 N1_4 1_555 1_555
N1_4 C1_4 1_555 1_555
N3_2 N2_2 1_555 1_555
O1_2 C6_2 1_555 1_555
C1_4 H2_4 1_555 1_555
C2_4 C1_4 1_555 1_555
C3_4 C2_4 1_555 1_555
H3_4 C3_4 1_555 1_555
C4_4 C3_4 1_555 1_555
H4_4 C4_4 1_555 1_555
C5_4 N1_4 1_555 1_555
H5_4 C5_4 1_555 1_555
C6_2 N2_2 1_555 1_555
N4_4 O4_4 1_555 1_555
O4_4 Pb1_2 1_555 1_555
O5_4 N4_4 1_555 1_555
Pb2 O1_2 1_555 1_555
N5_2 Pb2 1_555 1_555
N6_4 H13 1_555 1_555
N7_4 N6_4 1_555 1_555
O7_4 Pb1_2 1_555 1_555
O10 Pb1_2 1_555 1_555
O12 Pb2 1_555 1_555
O13 Pb2 1_555 1_555
C15_2 N5_2 1_555 1_555
H14_2 C15_2 1_555 1_555
C16_2 C15_2 1_555 1_555
C17_2 C16_2 1_555 1_555
H15_2 C17_2 1_555 1_555
C18_2 C17_2 1_555 1_555
H16_2 C18_2 1_555 1_555
C19_2 N5_2 1_555 1_555
H17_2 C19_2 1_555 1_555
C20_4 N6_4 1_555 1_555
C21_2 N7_4 1_555 1_555
H18_2 C21_2 1_555 1_555
C22_2 C21_2 1_555 1_555
C23_2 C22_2 1_555 1_555
H19_4 C23_2 1_555 1_555
H20_2 C26_2 1_555 1_555
C27_2 C22_2 1_555 1_555
H21_2 C27_2 1_555 1_555
N8_2 O14_2 1_555 1_555
O14_2 Pb2 1_555 1_555
O15_2 N8_2 1_555 1_555
C2_4 C6_2 1_555 1_555
C4_4 C5_4 1_555 1_555
O7_4 C20_4 1_555 1_555
C16_2 C20_4 1_555 1_555
C18_2 C19_2 1_555 1_555
C26_2 C27_2 1_555 1_555
Pb5 O9_2 1_555 1_555
O8_2 C24_2 1_555 1_555
O9_2 C25_2 1_555 1_555
C25_2 C24_2 1_555 1_555
C28_3 O8_2 1_555 1_555
H22_3 C28_3 1_555 1_555
H23_3 C28_3 1_555 1_555
H24_3 C28_3 1_555 1_555
N3_3 N2_3 1_555 1_555
O1_3 C6_3 1_555 1_555
C6_3 N2_3 1_555 1_555
H10_3 C14_3 1_555 1_555
H11_3 C14_3 1_555 1_555
H12_3 C14_3 1_555 1_555
Pb2_2 O1_3 1_555 1_555
N5_3 Pb2_2 1_555 1_555
O13 Pb2_2 1_555 1_555
O12 Pb2_2 1_555 1_555
C15_3 N5_3 1_555 1_555
H14_3 C15_3 1_555 1_555
C16_3 C15_3 1_555 1_555
C17_3 C16_3 1_555 1_555
H15_3 C17_3 1_555 1_555
C18_3 C17_3 1_555 1_555
H16_3 C18_3 1_555 1_555
C19_3 N5_3 1_555 1_555
H17_3 C19_3 1_555 1_555
N8_3 O14_3 1_555 1_555
O14_3 Pb2_2 1_555 1_555
O15_3 N8_3 1_555 1_555
O16_3 N8_3 1_555 1_555
C18_3 C19_3 1_555 1_555
O8_3 C24_3 1_555 1_555
O13 C25_3 1_555 1_555
C25_3 C24_3 1_555 1_555
N3_4 N2_4 1_555 1_555
O1_4 C6_4 1_555 1_555
O2_4 C10_4 1_555 1_555
O10 C11_4 1_555 1_555
C6_4 N2_4 1_555 1_555
C7_4 N3_4 1_555 1_555
H6_4 C7_4 1_555 1_555
C8_4 C7_4 1_555 1_555
C9_4 C8_4 1_555 1_555
H7_4 C9_4 1_555 1_555
C10_4 C9_4 1_555 1_555
C11_4 C10_4 1_555 1_555
C12_4 C11_4 1_555 1_555
H8_4 C12_4 1_555 1_555
C13_4 C8_4 1_555 1_555
H9_4 C13_4 1_555 1_555
C14_4 O2_4 1_555 1_555
H10_4 C14_4 1_555 1_555
H11_4 C14_4 1_555 1_555
H12_4 C14_4 1_555 1_555
Pb5 O1_4 1_555 1_555
N5_4 Pb5 1_555 1_555
C15_4 N5_4 1_555 1_555
H14_4 C15_4 1_555 1_555
C16_4 C15_4 1_555 1_555
C17_4 C16_4 1_555 1_555
H15_4 C17_4 1_555 1_555
C18_4 C17_4 1_555 1_555
H16_4 C18_4 1_555 1_555
C19_4 N5_4 1_555 1_555
H17_4 C19_4 1_555 1_555
N8_4 O14_4 1_555 1_555
O14_4 Pb5 1_555 1_555
O15_4 N8_4 1_555 1_555
O16_4 N8_4 1_555 1_555
C12_4 C13_4 1_555 1_555
C18_4 C19_4 1_555 1_555
O8_4 C24_4 1_555 1_555
O12 C25_4 1_555 1_555
H18_3 C21_3 1_555 1_555
C22_3 C21_3 1_555 1_555
C23_3 C22_3 1_555 1_555
C24_4 C23_3 1_555 1_555
C25_4 C24_4 1_555 1_555
C26_3 C25_4 1_555 1_555
H20_3 C26_3 1_555 1_555
C27_3 C22_3 1_555 1_555
H21_3 C27_3 1_555 1_555
C26_3 C27_3 1_555 1_555
H22_4 C28_4 1_555 1_555
H23_4 C28_4 1_555 1_555
H24_4 C28_4 1_555 1_555
H18_4 C21_4 1_555 1_555
C22_4 C21_4 1_555 1_555
C23_4 C22_4 1_555 1_555
H20_4 C26_4 1_555 1_555
C27_4 C22_4 1_555 1_555
H21_4 C27_4 1_555 1_555
C26_4 C27_4 1_555 1_555

#END
