
###############################################################################
#
# This file contains modified crystal structure data generated from the
# MOF subset of the Cambridge Structural Database (CSD) v543 
# hosted by the Cambridge Crystallographic Data Centre (CCDC).
#
# This work is licensed under the Creative Commons
# Attribution-NonCommercial-ShareAlike 4.0 International License.
# To view a copy of this license, visit
# http://creativecommons.org/licenses/by-nc-sa/4.0/
# or send a letter to
# Creative Commons, PO Box 1866, Mountain View, CA 94042, USA.
#
# CIF created using the CSD Python API on 29 September 2022
# The structure has been converted into the P1 space group
# The structure has a 3D framework
# The original CSD entry PUQJAP is in the orthorhombic crystal system
# The framework has been calculated to contain at least 10.0% void space
# The void calculation uses a probe of radius 1.32A, grid spacing 0.4
# H atom positions have been added when not included in the experimental data
# Generated hydrogen atom positions removed from atoms on special positions
#
###############################################################################

data_PUQJAP
_chemical_formula_moiety         '(C240 H304 O121 Si16 Zr23)n'
_symmetry_cell_setting           triclinic
_symmetry_space_group_name_H-M   'P 1'
_symmetry_Int_Tables_number      1
_space_group_name_Hall           'P 1'
loop_
_symmetry_equiv_pos_site_id
_symmetry_equiv_pos_as_xyz
1 x,y,z
_cell_length_a                   17.2986(5)
_cell_length_b                   30.7451(6)
_cell_length_c                   27.0210(6)
_cell_angle_alpha                90
_cell_angle_beta                 90
_cell_angle_gamma                90
_cell_volume                     14371
loop_
_atom_site_label
_atom_site_type_symbol
_atom_site_fract_x
_atom_site_fract_y
_atom_site_fract_z
Zr11 Zr 0.47778(4) 0.42153(2) 0.000000
Zr1 Zr 0.39936(3) 0.49146(2) 0.56573(2)
Zr2 Zr 0.52222(4) 0.42153(2) 0.500000
O1 O 0.250000 0.250000 0.750000
Si1 Si 0.31359(10) 0.23061(5) 0.71255(5)
C1 C 0.3432(3) 0.27762(16) 0.67248(19)
C2 C 0.3042(4) 0.3165(2) 0.6750(3)
H1 H 0.260744 0.318882 0.696280
C3 C 0.3266(4) 0.35224(19) 0.6473(2)
H2 H 0.301324 0.379397 0.651626
C4 C 0.3846(3) 0.34831(15) 0.61424(19)
C5 C 0.4242(4) 0.30982(18) 0.6103(2)
H3 H 0.466172 0.307178 0.587832
C6 C 0.4025(4) 0.27471(18) 0.6396(2)
H4 H 0.429750 0.248015 0.636623
C7 C 0.4082(3) 0.38630(15) 0.5831(2)
O2 O 0.3788(2) 0.42311(11) 0.59321(14)
O3 O 0.4565(2) 0.37884(9) 0.54894(11)
C8 C 0.2668(3) 0.18796(16) 0.67304(18)
C9 C 0.2123(4) 0.20012(17) 0.6385(2)
H5 H 0.200171 0.230063 0.634700
C10 C 0.1747(4) 0.16956(17) 0.6092(2)
H6 H 0.137968 0.178871 0.585336
C11 C 0.1903(3) 0.12584(16) 0.61459(19)
C12 C 0.2415(4) 0.11301(17) 0.6501(2)
H7 H 0.250920 0.082905 0.655243
C13 C 0.2808(4) 0.14414(18) 0.6793(2)
H8 H 0.317148 0.134793 0.703391
C14 C 0.1500(3) 0.09302(16) 0.58384(19)
O4 O 0.1076(2) 0.10829(10) 0.54895(12)
O5 O 0.1587(2) 0.05364(11) 0.59307(14)
C15 C 0.3953(4) 0.2080(2) 0.7465(3)
H9 H 0.433317 0.196378 0.723098
H10 H 0.419386 0.230869 0.766550
H11 H 0.377204 0.184566 0.768226
O6 O 0.2823(3) 0.48251(17) 0.56485(19)
O7 O 0.4111(4) 0.49285(17) 0.64120(16)
O8 O 0.3873(4) 0.52935(17) 0.500000
O9 O 0.4081(4) 0.4530(2) 0.500000
O10 O 0.4890(2) 0.53848(13) 0.56561(18)
Si2 Si 0.18641(10) 0.26939(5) 0.78745(5)
C16 C 0.1568(3) 0.22238(16) 0.82752(19)
C17 C 0.1958(4) 0.1835(2) 0.8250(3)
H12 H 0.239256 0.181118 0.803720
C18 C 0.1734(4) 0.14776(19) 0.8527(2)
H13 H 0.198676 0.120603 0.848374
C19 C 0.1154(3) 0.15169(15) 0.88576(19)
C20 C 0.0758(4) 0.19018(18) 0.8897(2)
H14 H 0.033828 0.192822 0.912168
C21 C 0.0975(4) 0.22529(18) 0.8604(2)
H15 H 0.070250 0.251985 0.863377
C22 C 0.0918(3) 0.11370(15) 0.9169(2)
O11 O 0.1212(2) 0.07689(11) 0.90679(14)
O12 O 0.0435(2) 0.12116(9) 0.95106(11)
C23 C 0.2332(3) 0.31204(16) 0.82696(18)
C24 C 0.2877(4) 0.29988(17) 0.8615(2)
H16 H 0.299829 0.269937 0.865300
C25 C 0.3253(4) 0.33044(17) 0.8908(2)
H17 H 0.362032 0.321129 0.914664
C26 C 0.3097(3) 0.37416(16) 0.88541(19)
C27 C 0.2585(4) 0.38699(17) 0.8499(2)
H18 H 0.249080 0.417095 0.844757
C28 C 0.2192(4) 0.35586(18) 0.8207(2)
H19 H 0.182852 0.365207 0.796609
C29 C 0.3500(3) 0.40698(16) 0.91616(19)
O13 O 0.3924(2) 0.39171(10) 0.95105(12)
O14 O 0.3413(2) 0.44636(11) 0.90693(14)
C30 C 0.1047(4) 0.2920(2) 0.7535(3)
H20 H 0.066683 0.303622 0.776902
H21 H 0.080614 0.269131 0.733450
H22 H 0.122796 0.315434 0.731774
Zr3 Zr 0.60064(3) 0.50854(2) 0.56573(2)
O15 O 0.7177(3) 0.51749(17) 0.56485(19)
O16 O 0.5889(4) 0.50715(17) 0.64120(16)
O17 O 0.5110(2) 0.46152(13) 0.56561(18)
Zr4 Zr 0.39936(3) 0.50854(2) 0.93427(2)
Zr5 Zr 0.39936(3) 0.49146(2) 0.43427(2)
Zr7 Zr 0.10064(3) 0.00854(2) 0.93427(2)
Zr8 Zr 0.47778(4) 0.57847(2) 0.500000
Zr9 Zr 0.02222(4) 0.07847(2) 0.500000
Zr11_2 Zr 0.47778(4) 0.42153(2) 1.000000
O18 O 0.6212(2) 0.57689(11) 0.59321(14)
O19 O 0.4565(2) 0.37884(9) 0.45106(11)
O20 O 0.6076(2) 0.39171(10) 0.45105(12)
O21 O 0.6076(2) 0.39171(10) 0.54895(12)
O22 O 0.6587(2) 0.44636(11) 0.59307(14)
O23 O 0.3413(2) 0.55364(11) 0.59307(14)
O24 O 0.6127(4) 0.47065(17) 0.500000
O25 O 0.5919(4) 0.5470(2) 0.500000
O26 O 0.5110(2) 0.46152(13) 0.43439(18)
Zr6 Zr 0.10064(3) 0.99146(2) 0.56573(2)
Zr10 Zr 0.97778(4) 0.07847(2) 0.000000
Zr10_2 Zr 0.97778(4) 0.07847(2) 1.000000
Zr10_3 Zr 0.02222(4) 0.92153(2) 0.000000
Zr10_4 Zr 0.02222(4) 0.92153(2) 1.000000
Zr6_2 Zr 0.89936(3) 0.00854(2) 0.56573(2)
Zr11_3 Zr 0.52222(4) 0.57847(2) 0.000000
O1_2 O 0.750000 0.750000 0.750000
Si1_2 Si 0.68641(10) 0.76939(5) 0.71255(5)
C1_2 C 0.6568(3) 0.72238(16) 0.67248(19)
C2_2 C 0.6958(4) 0.6835(2) 0.6750(3)
H1_2 H 0.739256 0.681118 0.696280
C3_2 C 0.6734(4) 0.64776(19) 0.6473(2)
H2_2 H 0.698676 0.620603 0.651626
C4_2 C 0.6154(3) 0.65169(15) 0.61424(19)
C5_2 C 0.5758(4) 0.69018(18) 0.6103(2)
H3_2 H 0.533828 0.692822 0.587832
C6_2 C 0.5975(4) 0.72529(18) 0.6396(2)
H4_2 H 0.570250 0.751985 0.636623
C7_2 C 0.5918(3) 0.61370(15) 0.5831(2)
O3_2 O 0.5435(2) 0.62116(9) 0.54894(11)
C8_2 C 0.7332(3) 0.81204(16) 0.67304(18)
C9_2 C 0.7877(4) 0.79988(17) 0.6385(2)
H5_2 H 0.799829 0.769937 0.634700
C10_2 C 0.8253(4) 0.83044(17) 0.6092(2)
H6_2 H 0.862032 0.821129 0.585336
C11_2 C 0.8097(3) 0.87416(16) 0.61459(19)
C12_2 C 0.7585(4) 0.88699(17) 0.6501(2)
H7_2 H 0.749080 0.917095 0.655243
C13_2 C 0.7192(4) 0.85586(18) 0.6793(2)
H8_2 H 0.682852 0.865207 0.703391
C14_2 C 0.8500(3) 0.90698(16) 0.58384(19)
O4_2 O 0.8924(2) 0.89171(10) 0.54895(12)
O5_2 O 0.8413(2) 0.94636(11) 0.59307(14)
C15_2 C 0.6047(4) 0.7920(2) 0.7465(3)
H9_2 H 0.566683 0.803622 0.723098
H10_2 H 0.580614 0.769131 0.766550
H11_2 H 0.622796 0.815434 0.768226
Si2_2 Si 0.81359(10) 0.73061(5) 0.78745(5)
C16_2 C 0.8432(3) 0.77762(16) 0.82752(19)
C17_2 C 0.8042(4) 0.8165(2) 0.8250(3)
H12_2 H 0.760744 0.818882 0.803720
C18_2 C 0.8266(4) 0.85224(19) 0.8527(2)
H13_2 H 0.801324 0.879397 0.848374
C19_2 C 0.8846(3) 0.84831(15) 0.88576(19)
C20_2 C 0.9242(4) 0.80982(18) 0.8897(2)
H14_2 H 0.966172 0.807178 0.912168
C21_2 C 0.9025(4) 0.77471(18) 0.8604(2)
H15_2 H 0.929750 0.748015 0.863377
C22_2 C 0.9082(3) 0.88630(15) 0.9169(2)
O11_2 O 0.8788(2) 0.92311(11) 0.90679(14)
O12_2 O 0.9565(2) 0.87884(9) 0.95106(11)
C23_2 C 0.7668(3) 0.68796(16) 0.82696(18)
C24_2 C 0.7123(4) 0.70012(17) 0.8615(2)
H16_2 H 0.700171 0.730063 0.865300
C25_2 C 0.6747(4) 0.66956(17) 0.8908(2)
H17_2 H 0.637968 0.678871 0.914664
C26_2 C 0.6903(3) 0.62584(16) 0.88541(19)
C27_2 C 0.7415(4) 0.61301(17) 0.8499(2)
H18_2 H 0.750920 0.582905 0.844757
C28_2 C 0.7808(4) 0.64414(18) 0.8207(2)
H19_2 H 0.817148 0.634793 0.796609
C29_2 C 0.6500(3) 0.59302(16) 0.91616(19)
O13_2 O 0.6076(2) 0.60829(10) 0.95105(12)
O14_2 O 0.6587(2) 0.55364(11) 0.90693(14)
C30_2 C 0.8953(4) 0.7080(2) 0.7535(3)
H20_2 H 0.933317 0.696378 0.776902
H21_2 H 0.919386 0.730869 0.733450
H22_2 H 0.877204 0.684566 0.731774
Zr4_2 Zr 0.60064(3) 0.49146(2) 0.93427(2)
Zr5_2 Zr 0.60064(3) 0.50854(2) 0.43427(2)
Zr7_2 Zr 0.89936(3) 0.99146(2) 0.93427(2)
Zr9_2 Zr 0.97778(4) 0.92153(2) 0.500000
Zr11_4 Zr 0.52222(4) 0.57847(2) 1.000000
O19_2 O 0.5435(2) 0.62116(9) 0.45106(11)
O20_2 O 0.3924(2) 0.60829(10) 0.45105(12)
O21_2 O 0.3924(2) 0.60829(10) 0.54895(12)
O26_2 O 0.4890(2) 0.53848(13) 0.43439(18)
O8_2 O 0.1127(4) 0.02935(17) 0.500000
O10_2 O 0.0110(2) 0.03848(13) 0.43439(18)
Zr4_3 Zr 0.10064(3) 0.00854(2) 0.06573(2)
O23_2 O 0.1587(2) 0.05364(11) 0.40693(14)
H24 H 0.243281 0.0093883 0.447275
H26 H 0.0764475 0.0229154 0.347998
Zr1_2 Zr 0.10064(3) 0.99146(2) 0.43427(2)
O1_3 O 0.250000 0.750000 0.250000
Si1_3 Si 0.18641(10) 0.73061(5) 0.28745(5)
C1_3 C 0.1568(3) 0.77762(16) 0.32752(19)
C2_3 C 0.1958(4) 0.8165(2) 0.3250(3)
H1_3 H 0.239256 0.818882 0.303720
C3_3 C 0.1734(4) 0.85224(19) 0.3527(2)
H2_3 H 0.198676 0.879397 0.348374
C4_3 C 0.1154(3) 0.84831(15) 0.38576(19)
C5_3 C 0.0758(4) 0.80982(18) 0.3897(2)
H3_3 H 0.033828 0.807178 0.412168
C6_3 C 0.0975(4) 0.77471(18) 0.3604(2)
H4_3 H 0.070250 0.748015 0.363377
C7_3 C 0.0918(3) 0.88630(15) 0.4169(2)
O2_2 O 0.1212(2) 0.92311(11) 0.40679(14)
O3_3 O 0.0435(2) 0.87884(9) 0.45106(11)
C8_3 C 0.2332(3) 0.68796(16) 0.32696(18)
C9_3 C 0.2877(4) 0.70012(17) 0.3615(2)
H5_3 H 0.299829 0.730063 0.365300
C10_3 C 0.3253(4) 0.66956(17) 0.3908(2)
H6_3 H 0.362032 0.678871 0.414664
C11_3 C 0.3097(3) 0.62584(16) 0.38541(19)
C12_3 C 0.2585(4) 0.61301(17) 0.3499(2)
H7_3 H 0.249080 0.582905 0.344757
C13_3 C 0.2192(4) 0.64414(18) 0.3207(2)
H8_3 H 0.182852 0.634793 0.296609
C14_3 C 0.3500(3) 0.59302(16) 0.41616(19)
O5_3 O 0.3413(2) 0.55364(11) 0.40693(14)
C15_3 C 0.1047(4) 0.7080(2) 0.2535(3)
H9_3 H 0.066683 0.696378 0.276902
H10_3 H 0.080614 0.730869 0.233450
H11_3 H 0.122796 0.684566 0.231774
O6_2 O 0.2177(3) 0.98251(17) 0.43515(19)
O7_2 O 0.0889(4) 0.99285(17) 0.35880(16)
O9_2 O 0.0919(4) 0.9530(2) 0.500000
Si2_3 Si 0.31359(10) 0.76939(5) 0.21255(5)
C16_3 C 0.3432(3) 0.72238(16) 0.17248(19)
C17_3 C 0.3042(4) 0.6835(2) 0.1750(3)
H12_3 H 0.260744 0.681118 0.196280
C18_3 C 0.3266(4) 0.64776(19) 0.1473(2)
H13_3 H 0.301324 0.620603 0.151626
C19_3 C 0.3846(3) 0.65169(15) 0.11424(19)
C20_3 C 0.4242(4) 0.69018(18) 0.1103(2)
H14_3 H 0.466172 0.692822 0.087832
C21_3 C 0.4025(4) 0.72529(18) 0.1396(2)
H15_3 H 0.429750 0.751985 0.136623
C22_3 C 0.4082(3) 0.61370(15) 0.0831(2)
O11_3 O 0.3788(2) 0.57689(11) 0.09321(14)
O12_3 O 0.4565(2) 0.62116(9) 0.04894(11)
C23_3 C 0.2668(3) 0.81204(16) 0.17304(18)
C24_3 C 0.2123(4) 0.79988(17) 0.1385(2)
H16_3 H 0.200171 0.769937 0.134700
C25_3 C 0.1747(4) 0.83044(17) 0.1092(2)
H17_3 H 0.137968 0.821129 0.085336
C26_3 C 0.1903(3) 0.87416(16) 0.11459(19)
C27_3 C 0.2415(4) 0.88699(17) 0.1501(2)
H18_3 H 0.250920 0.917095 0.155243
C28_3 C 0.2808(4) 0.85586(18) 0.1793(2)
H19_3 H 0.317148 0.865207 0.203391
C29_3 C 0.1500(3) 0.90698(16) 0.08384(19)
O13_3 O 0.1076(2) 0.89171(10) 0.04895(12)
O14_3 O 0.1587(2) 0.94636(11) 0.09307(14)
C30_3 C 0.3953(4) 0.7920(2) 0.2465(3)
H20_3 H 0.433317 0.803622 0.223098
H21_3 H 0.419386 0.769131 0.266550
H22_3 H 0.377204 0.815434 0.268226
Zr7_3 Zr 0.39936(3) 0.50854(2) 0.06573(2)
O19_3 O 0.0435(2) 0.87884(9) 0.54894(11)
H23 H 0.236038 0.975895 0.401149
H25 H 0.0465483 0.972932 0.348712
Zr3_2 Zr 0.89936(3) 0.00854(2) 0.43427(2)
O15_2 O 0.7823(3) 0.01749(17) 0.43515(19)
O16_2 O 0.9111(4) 0.00715(17) 0.35880(16)
O18_2 O 0.8788(2) 0.07689(11) 0.40679(14)
O25_2 O 0.9081(4) 0.0470(2) 0.500000
H27 H 0.76658 0.0346002 0.405651
O17_2 O 0.9890(2) 0.96152(13) 0.43439(18)
O21_3 O 0.8924(2) 0.89171(10) 0.45105(12)
O22_2 O 0.8413(2) 0.94636(11) 0.40693(14)
O24_2 O 0.8873(4) 0.97065(17) 0.500000
O26_3 O 0.9890(2) 0.96152(13) 0.56561(18)
H28 H 0.756042 0.988773 0.434581
H29 H 0.957412 0.989761 0.349854
H30 H 0.864413 0.993732 0.34383
O21_4 O 0.1076(2) 0.10829(10) 0.45105(12)
O26_4 O 0.0110(2) 0.03848(13) 0.56561(18)
H28_2 H 0.243958 0.0112265 0.434581
H29_2 H 0.0425885 0.0102388 0.349854
H30_2 H 0.135587 0.00626776 0.34383
H27_2 H 0.23342 0.9654 0.405651
O1_4 O 0.750000 0.250000 0.250000
Si1_4 Si 0.81359(10) 0.26939(5) 0.28745(5)
C1_4 C 0.8432(3) 0.22238(16) 0.32752(19)
C2_4 C 0.8042(4) 0.1835(2) 0.3250(3)
H1_4 H 0.760744 0.181118 0.303720
C3_4 C 0.8266(4) 0.14776(19) 0.3527(2)
H2_4 H 0.801324 0.120603 0.348374
C4_4 C 0.8846(3) 0.15169(15) 0.38576(19)
C5_4 C 0.9242(4) 0.19018(18) 0.3897(2)
H3_4 H 0.966172 0.192822 0.412168
C6_4 C 0.9025(4) 0.22529(18) 0.3604(2)
H4_4 H 0.929750 0.251985 0.363377
C7_4 C 0.9082(3) 0.11370(15) 0.4169(2)
O3_4 O 0.9565(2) 0.12116(9) 0.45106(11)
C8_4 C 0.7668(3) 0.31204(16) 0.32696(18)
C9_4 C 0.7123(4) 0.29988(17) 0.3615(2)
H5_4 H 0.700171 0.269937 0.365300
C10_4 C 0.6747(4) 0.33044(17) 0.3908(2)
H6_4 H 0.637968 0.321129 0.414664
C11_4 C 0.6903(3) 0.37416(16) 0.38541(19)
C12_4 C 0.7415(4) 0.38699(17) 0.3499(2)
H7_4 H 0.750920 0.417095 0.344757
C13_4 C 0.7808(4) 0.35586(18) 0.3207(2)
H8_4 H 0.817148 0.365207 0.296609
C14_4 C 0.6500(3) 0.40698(16) 0.41616(19)
O5_4 O 0.6587(2) 0.44636(11) 0.40693(14)
C15_4 C 0.8953(4) 0.2920(2) 0.2535(3)
H9_4 H 0.933317 0.303622 0.276902
H10_4 H 0.919386 0.269131 0.233450
H11_4 H 0.877204 0.315434 0.231774
Si2_4 Si 0.68641(10) 0.23061(5) 0.21255(5)
C16_4 C 0.6568(3) 0.27762(16) 0.17248(19)
C17_4 C 0.6958(4) 0.3165(2) 0.1750(3)
H12_4 H 0.739256 0.318882 0.196280
C18_4 C 0.6734(4) 0.35224(19) 0.1473(2)
H13_4 H 0.698676 0.379397 0.151626
C19_4 C 0.6154(3) 0.34831(15) 0.11424(19)
C20_4 C 0.5758(4) 0.30982(18) 0.1103(2)
H14_4 H 0.533828 0.307178 0.087832
C21_4 C 0.5975(4) 0.27471(18) 0.1396(2)
H15_4 H 0.570250 0.248015 0.136623
C22_4 C 0.5918(3) 0.38630(15) 0.0831(2)
O11_4 O 0.6212(2) 0.42311(11) 0.09321(14)
O12_4 O 0.5435(2) 0.37884(9) 0.04894(11)
C23_4 C 0.7332(3) 0.18796(16) 0.17304(18)
C24_4 C 0.7877(4) 0.20012(17) 0.1385(2)
H16_4 H 0.799829 0.230063 0.134700
C25_4 C 0.8253(4) 0.16956(17) 0.1092(2)
H17_4 H 0.862032 0.178871 0.085336
C26_4 C 0.8097(3) 0.12584(16) 0.11459(19)
C27_4 C 0.7585(4) 0.11301(17) 0.1501(2)
H18_4 H 0.749080 0.082905 0.155243
C28_4 C 0.7192(4) 0.14414(18) 0.1793(2)
H19_4 H 0.682852 0.134793 0.203391
C29_4 C 0.8500(3) 0.09302(16) 0.08384(19)
O13_4 O 0.8924(2) 0.10829(10) 0.04895(12)
O14_4 O 0.8413(2) 0.05364(11) 0.09307(14)
C30_4 C 0.6047(4) 0.2080(2) 0.2465(3)
H20_4 H 0.566683 0.196378 0.223098
H21_4 H 0.580614 0.230869 0.266550
H22_4 H 0.622796 0.184566 0.268226
Zr7_4 Zr 0.60064(3) 0.49146(2) 0.06573(2)
O19_4 O 0.9565(2) 0.12116(9) 0.54894(11)
H23_2 H 0.763962 0.0241048 0.401149
H25_2 H 0.953452 0.0270679 0.348712
Zr4_4 Zr 0.89936(3) 0.99146(2) 0.06573(2)
H24_2 H 0.756719 0.990612 0.447275
H26_2 H 0.923552 0.977085 0.347998
O15_3 O 0.2177(3) 0.01749(17) 0.06485(19)
O16_3 O 0.0889(4) 0.00715(17) 0.14120(16)
O18_3 O 0.1212(2) 0.07689(11) 0.09321(14)
O25_3 O 0.0919(4) 0.0470(2) 0.000000
H27_3 H 0.23342 0.0346002 0.0943492
O25_4 O 0.0919(4) 0.0470(2) 1.000000
O17_3 O 0.0110(2) 0.96152(13) 0.06561(18)
O24_3 O 0.1127(4) 0.97065(17) 0.000000
H28_3 H 0.243958 0.988773 0.0654186
H29_3 H 0.0425885 0.989761 0.150146
H30_3 H 0.135587 0.993732 0.15617
O20_3 O 0.1076(2) 0.89171(10) 0.95105(12)
O24_4 O 0.1127(4) 0.97065(17) 1.000000
O26_5 O 0.0110(2) 0.96152(13) 0.93439(18)
O8_3 O 0.8873(4) 0.02935(17) 0.000000
O10_3 O 0.9890(2) 0.03848(13) 0.06561(18)
H24_3 H 0.756719 0.0093883 0.0527254
H26_3 H 0.923552 0.0229154 0.152002
O8_4 O 0.8873(4) 0.02935(17) 1.000000
O1_5 O 0.750000 0.750000 0.250000
Si1_5 Si 0.81359(10) 0.73061(5) 0.21255(5)
C1_5 C 0.8432(3) 0.77762(16) 0.17248(19)
C2_5 C 0.8042(4) 0.8165(2) 0.1750(3)
H1_5 H 0.760744 0.818882 0.196280
C3_5 C 0.8266(4) 0.85224(19) 0.1473(2)
H2_5 H 0.801324 0.879397 0.151626
C4_5 C 0.8846(3) 0.84831(15) 0.11424(19)
C5_5 C 0.9242(4) 0.80982(18) 0.1103(2)
H3_5 H 0.966172 0.807178 0.087832
C6_5 C 0.9025(4) 0.77471(18) 0.1396(2)
H4_5 H 0.929750 0.748015 0.136623
C7_5 C 0.9082(3) 0.88630(15) 0.0831(2)
O2_3 O 0.8788(2) 0.92311(11) 0.09321(14)
O3_5 O 0.9565(2) 0.87884(9) 0.04894(11)
C8_5 C 0.7668(3) 0.68796(16) 0.17304(18)
C9_5 C 0.7123(4) 0.70012(17) 0.1385(2)
H5_5 H 0.700171 0.730063 0.134700
C10_5 C 0.6747(4) 0.66956(17) 0.1092(2)
H6_5 H 0.637968 0.678871 0.085336
C11_5 C 0.6903(3) 0.62584(16) 0.11459(19)
C12_5 C 0.7415(4) 0.61301(17) 0.1501(2)
H7_5 H 0.750920 0.582905 0.155243
C13_5 C 0.7808(4) 0.64414(18) 0.1793(2)
H8_5 H 0.817148 0.634793 0.203391
C14_5 C 0.6500(3) 0.59302(16) 0.08384(19)
O4_3 O 0.6076(2) 0.60829(10) 0.04895(12)
O5_5 O 0.6587(2) 0.55364(11) 0.09307(14)
C15_5 C 0.8953(4) 0.7080(2) 0.2465(3)
H9_5 H 0.933317 0.696378 0.223098
H10_5 H 0.919386 0.730869 0.266550
H11_5 H 0.877204 0.684566 0.268226
O6_3 O 0.7823(3) 0.98251(17) 0.06485(19)
O7_3 O 0.9111(4) 0.99285(17) 0.14120(16)
O9_3 O 0.9081(4) 0.9530(2) 0.000000
Si2_5 Si 0.68641(10) 0.76939(5) 0.28745(5)
C16_5 C 0.6568(3) 0.72238(16) 0.32752(19)
C17_5 C 0.6958(4) 0.6835(2) 0.3250(3)
H12_5 H 0.739256 0.681118 0.303720
C18_5 C 0.6734(4) 0.64776(19) 0.3527(2)
H13_5 H 0.698676 0.620603 0.348374
C19_5 C 0.6154(3) 0.65169(15) 0.38576(19)
C20_5 C 0.5758(4) 0.69018(18) 0.3897(2)
H14_5 H 0.533828 0.692822 0.412168
C21_5 C 0.5975(4) 0.72529(18) 0.3604(2)
H15_5 H 0.570250 0.751985 0.363377
C22_5 C 0.5918(3) 0.61370(15) 0.4169(2)
O11_5 O 0.6212(2) 0.57689(11) 0.40679(14)
C23_5 C 0.7332(3) 0.81204(16) 0.32696(18)
C24_5 C 0.7877(4) 0.79988(17) 0.3615(2)
H16_5 H 0.799829 0.769937 0.365300
C25_5 C 0.8253(4) 0.83044(17) 0.3908(2)
H17_5 H 0.862032 0.821129 0.414664
C26_5 C 0.8097(3) 0.87416(16) 0.38541(19)
C27_5 C 0.7585(4) 0.88699(17) 0.3499(2)
H18_5 H 0.749080 0.917095 0.344757
C28_5 C 0.7192(4) 0.85586(18) 0.3207(2)
H19_5 H 0.682852 0.865207 0.296609
C29_5 C 0.8500(3) 0.90698(16) 0.41616(19)
C30_5 C 0.6047(4) 0.7920(2) 0.2535(3)
H20_5 H 0.566683 0.803622 0.276902
H21_5 H 0.580614 0.769131 0.233450
H22_5 H 0.622796 0.815434 0.231774
H23_3 H 0.763962 0.975895 0.0988505
H25_3 H 0.953452 0.972932 0.151288
O9_4 O 0.9081(4) 0.9530(2) 1.000000
O1_6 O 0.250000 0.250000 0.250000
Si1_6 Si 0.18641(10) 0.26939(5) 0.21255(5)
C1_6 C 0.1568(3) 0.22238(16) 0.17248(19)
C2_6 C 0.1958(4) 0.1835(2) 0.1750(3)
H1_6 H 0.239256 0.181118 0.196280
C3_6 C 0.1734(4) 0.14776(19) 0.1473(2)
H2_6 H 0.198676 0.120603 0.151626
C4_6 C 0.1154(3) 0.15169(15) 0.11424(19)
C5_6 C 0.0758(4) 0.19018(18) 0.1103(2)
H3_6 H 0.033828 0.192822 0.087832
C6_6 C 0.0975(4) 0.22529(18) 0.1396(2)
H4_6 H 0.070250 0.251985 0.136623
C7_6 C 0.0918(3) 0.11370(15) 0.0831(2)
O3_6 O 0.0435(2) 0.12116(9) 0.04894(11)
C8_6 C 0.2332(3) 0.31204(16) 0.17304(18)
C9_6 C 0.2877(4) 0.29988(17) 0.1385(2)
H5_6 H 0.299829 0.269937 0.134700
C10_6 C 0.3253(4) 0.33044(17) 0.1092(2)
H6_6 H 0.362032 0.321129 0.085336
C11_6 C 0.3097(3) 0.37416(16) 0.11459(19)
C12_6 C 0.2585(4) 0.38699(17) 0.1501(2)
H7_6 H 0.249080 0.417095 0.155243
C13_6 C 0.2192(4) 0.35586(18) 0.1793(2)
H8_6 H 0.182852 0.365207 0.203391
C14_6 C 0.3500(3) 0.40698(16) 0.08384(19)
O4_4 O 0.3924(2) 0.39171(10) 0.04895(12)
O5_6 O 0.3413(2) 0.44636(11) 0.09307(14)
C15_6 C 0.1047(4) 0.2920(2) 0.2465(3)
H9_6 H 0.066683 0.303622 0.223098
H10_6 H 0.080614 0.269131 0.266550
H11_6 H 0.122796 0.315434 0.268226
Si2_6 Si 0.31359(10) 0.23061(5) 0.28745(5)
C16_6 C 0.3432(3) 0.27762(16) 0.32752(19)
C17_6 C 0.3042(4) 0.3165(2) 0.3250(3)
H12_6 H 0.260744 0.318882 0.303720
C18_6 C 0.3266(4) 0.35224(19) 0.3527(2)
H13_6 H 0.301324 0.379397 0.348374
C19_6 C 0.3846(3) 0.34831(15) 0.38576(19)
C20_6 C 0.4242(4) 0.30982(18) 0.3897(2)
H14_6 H 0.466172 0.307178 0.412168
C21_6 C 0.4025(4) 0.27471(18) 0.3604(2)
H15_6 H 0.429750 0.248015 0.363377
C22_6 C 0.4082(3) 0.38630(15) 0.4169(2)
O11_6 O 0.3788(2) 0.42311(11) 0.40679(14)
C23_6 C 0.2668(3) 0.18796(16) 0.32696(18)
C24_6 C 0.2123(4) 0.20012(17) 0.3615(2)
H16_6 H 0.200171 0.230063 0.365300
C25_6 C 0.1747(4) 0.16956(17) 0.3908(2)
H17_6 H 0.137968 0.178871 0.414664
C26_6 C 0.1903(3) 0.12584(16) 0.38541(19)
C27_6 C 0.2415(4) 0.11301(17) 0.3499(2)
H18_6 H 0.250920 0.082905 0.344757
C28_6 C 0.2808(4) 0.14414(18) 0.3207(2)
H19_6 H 0.317148 0.134793 0.296609
C29_6 C 0.1500(3) 0.09302(16) 0.41616(19)
C30_6 C 0.3953(4) 0.2080(2) 0.2535(3)
H20_6 H 0.433317 0.196378 0.276902
H21_6 H 0.419386 0.230869 0.233450
H22_6 H 0.377204 0.184566 0.231774
H23_4 H 0.236038 0.0241048 0.0988505
H25_4 H 0.0465483 0.0270679 0.151288
H24_4 H 0.243281 0.990612 0.0527254
H26_4 H 0.0764475 0.977085 0.152002
H28_4 H 0.756042 0.0112265 0.0654186
H29_4 H 0.957412 0.0102388 0.150146
H30_4 H 0.864413 0.00626776 0.15617
O20_4 O 0.8924(2) 0.10829(10) 0.95105(12)
O26_6 O 0.9890(2) 0.03848(13) 0.93439(18)
H27_4 H 0.76658 0.9654 0.0943492
O8_5 O 0.6127(4) 0.52935(17) 0.000000
O9_5 O 0.5919(4) 0.4530(2) 0.000000
O24_5 O 0.3873(4) 0.47065(17) 0.000000
O25_5 O 0.4081(4) 0.5470(2) 0.000000
O26_7 O 0.4890(2) 0.46152(13) 0.06561(18)
O1_7 O 0.750000 0.250000 0.750000
Si1_7 Si 0.68641(10) 0.23061(5) 0.78745(5)
C1_7 C 0.6568(3) 0.27762(16) 0.82752(19)
C2_7 C 0.6958(4) 0.3165(2) 0.8250(3)
H1_7 H 0.739256 0.318882 0.803720
C3_7 C 0.6734(4) 0.35224(19) 0.8527(2)
H2_7 H 0.698676 0.379397 0.848374
C4_7 C 0.6154(3) 0.34831(15) 0.88576(19)
C5_7 C 0.5758(4) 0.30982(18) 0.8897(2)
H3_7 H 0.533828 0.307178 0.912168
C6_7 C 0.5975(4) 0.27471(18) 0.8604(2)
H4_7 H 0.570250 0.248015 0.863377
C7_7 C 0.5918(3) 0.38630(15) 0.9169(2)
O2_4 O 0.6212(2) 0.42311(11) 0.90679(14)
O3_7 O 0.5435(2) 0.37884(9) 0.95106(11)
C8_7 C 0.7332(3) 0.18796(16) 0.82696(18)
C9_7 C 0.7877(4) 0.20012(17) 0.8615(2)
H5_7 H 0.799829 0.230063 0.865300
C10_7 C 0.8253(4) 0.16956(17) 0.8908(2)
H6_7 H 0.862032 0.178871 0.914664
C11_7 C 0.8097(3) 0.12584(16) 0.88541(19)
C12_7 C 0.7585(4) 0.11301(17) 0.8499(2)
H7_7 H 0.749080 0.082905 0.844757
C13_7 C 0.7192(4) 0.14414(18) 0.8207(2)
H8_7 H 0.682852 0.134793 0.796609
C14_7 C 0.8500(3) 0.09302(16) 0.91616(19)
O5_7 O 0.8413(2) 0.05364(11) 0.90693(14)
C15_7 C 0.6047(4) 0.2080(2) 0.7535(3)
H9_7 H 0.566683 0.196378 0.776902
H10_7 H 0.580614 0.230869 0.733450
H11_7 H 0.622796 0.184566 0.731774
O6_4 O 0.7177(3) 0.48251(17) 0.93515(19)
O7_4 O 0.5889(4) 0.49285(17) 0.85880(16)
O8_6 O 0.6127(4) 0.52935(17) 1.000000
O9_6 O 0.5919(4) 0.4530(2) 1.000000
O10_4 O 0.5110(2) 0.53848(13) 0.93439(18)
Si2_7 Si 0.81359(10) 0.26939(5) 0.71255(5)
C16_7 C 0.8432(3) 0.22238(16) 0.67248(19)
C17_7 C 0.8042(4) 0.1835(2) 0.6750(3)
H12_7 H 0.760744 0.181118 0.696280
C18_7 C 0.8266(4) 0.14776(19) 0.6473(2)
H13_7 H 0.801324 0.120603 0.651626
C19_7 C 0.8846(3) 0.15169(15) 0.61424(19)
C20_7 C 0.9242(4) 0.19018(18) 0.6103(2)
H14_7 H 0.966172 0.192822 0.587832
C21_7 C 0.9025(4) 0.22529(18) 0.6396(2)
H15_7 H 0.929750 0.251985 0.636623
C22_7 C 0.9082(3) 0.11370(15) 0.5831(2)
O11_7 O 0.8788(2) 0.07689(11) 0.59321(14)
C23_7 C 0.7668(3) 0.31204(16) 0.67304(18)
C24_7 C 0.7123(4) 0.29988(17) 0.6385(2)
H16_7 H 0.700171 0.269937 0.634700
C25_7 C 0.6747(4) 0.33044(17) 0.6092(2)
H17_7 H 0.637968 0.321129 0.585336
C26_7 C 0.6903(3) 0.37416(16) 0.61459(19)
C27_7 C 0.7415(4) 0.38699(17) 0.6501(2)
H18_7 H 0.750920 0.417095 0.655243
C28_7 C 0.7808(4) 0.35586(18) 0.6793(2)
H19_7 H 0.817148 0.365207 0.703391
C29_7 C 0.6500(3) 0.40698(16) 0.58384(19)
C30_7 C 0.8953(4) 0.2920(2) 0.7465(3)
H20_7 H 0.933317 0.303622 0.723098
H21_7 H 0.919386 0.269131 0.766550
H22_7 H 0.877204 0.315434 0.768226
O15_4 O 0.2823(3) 0.51749(17) 0.93515(19)
O16_4 O 0.4111(4) 0.50715(17) 0.85880(16)
O17_4 O 0.4890(2) 0.46152(13) 0.93439(18)
O18_4 O 0.3788(2) 0.57689(11) 0.90679(14)
O24_6 O 0.3873(4) 0.47065(17) 1.000000
O25_6 O 0.4081(4) 0.5470(2) 1.000000
O26_8 O 0.5110(2) 0.53848(13) 0.06561(18)
O1_8 O 0.250000 0.750000 0.750000
Si1_8 Si 0.31359(10) 0.76939(5) 0.78745(5)
C1_8 C 0.3432(3) 0.72238(16) 0.82752(19)
C2_8 C 0.3042(4) 0.6835(2) 0.8250(3)
H1_8 H 0.260744 0.681118 0.803720
C3_8 C 0.3266(4) 0.64776(19) 0.8527(2)
H2_8 H 0.301324 0.620603 0.848374
C4_8 C 0.3846(3) 0.65169(15) 0.88576(19)
C5_8 C 0.4242(4) 0.69018(18) 0.8897(2)
H3_8 H 0.466172 0.692822 0.912168
C6_8 C 0.4025(4) 0.72529(18) 0.8604(2)
H4_8 H 0.429750 0.751985 0.863377
C7_8 C 0.4082(3) 0.61370(15) 0.9169(2)
O3_8 O 0.4565(2) 0.62116(9) 0.95106(11)
C8_8 C 0.2668(3) 0.81204(16) 0.82696(18)
C9_8 C 0.2123(4) 0.79988(17) 0.8615(2)
H5_8 H 0.200171 0.769937 0.865300
C10_8 C 0.1747(4) 0.83044(17) 0.8908(2)
H6_8 H 0.137968 0.821129 0.914664
C11_8 C 0.1903(3) 0.87416(16) 0.88541(19)
C12_8 C 0.2415(4) 0.88699(17) 0.8499(2)
H7_8 H 0.250920 0.917095 0.844757
C13_8 C 0.2808(4) 0.85586(18) 0.8207(2)
H8_8 H 0.317148 0.865207 0.796609
C14_8 C 0.1500(3) 0.90698(16) 0.91616(19)
O5_8 O 0.1587(2) 0.94636(11) 0.90693(14)
C15_8 C 0.3953(4) 0.7920(2) 0.7535(3)
H9_8 H 0.433317 0.803622 0.776902
H10_8 H 0.419386 0.769131 0.733450
H11_8 H 0.377204 0.815434 0.731774
Si2_8 Si 0.18641(10) 0.73061(5) 0.71255(5)
C16_8 C 0.1568(3) 0.77762(16) 0.67248(19)
C17_8 C 0.1958(4) 0.8165(2) 0.6750(3)
H12_8 H 0.239256 0.818882 0.696280
C18_8 C 0.1734(4) 0.85224(19) 0.6473(2)
H13_8 H 0.198676 0.879397 0.651626
C19_8 C 0.1154(3) 0.84831(15) 0.61424(19)
C20_8 C 0.0758(4) 0.80982(18) 0.6103(2)
H14_8 H 0.033828 0.807178 0.587832
C21_8 C 0.0975(4) 0.77471(18) 0.6396(2)
H15_8 H 0.070250 0.748015 0.636623
C22_8 C 0.0918(3) 0.88630(15) 0.5831(2)
O11_8 O 0.1212(2) 0.92311(11) 0.59321(14)
C23_8 C 0.2332(3) 0.68796(16) 0.67304(18)
C24_8 C 0.2877(4) 0.70012(17) 0.6385(2)
H16_8 H 0.299829 0.730063 0.634700
C25_8 C 0.3253(4) 0.66956(17) 0.6092(2)
H17_8 H 0.362032 0.678871 0.585336
C26_8 C 0.3097(3) 0.62584(16) 0.61459(19)
C27_8 C 0.2585(4) 0.61301(17) 0.6501(2)
H18_8 H 0.249080 0.582905 0.655243
C28_8 C 0.2192(4) 0.64414(18) 0.6793(2)
H19_8 H 0.182852 0.634793 0.703391
C29_8 C 0.3500(3) 0.59302(16) 0.58384(19)
C30_8 C 0.1047(4) 0.7080(2) 0.7465(3)
H20_8 H 0.066683 0.696378 0.723098
H21_8 H 0.080614 0.730869 0.766550
H22_8 H 0.122796 0.684566 0.768226
O6_5 O 0.7177(3) 0.51749(17) 0.43515(19)
O7_5 O 0.5889(4) 0.50715(17) 0.35880(16)
O15_5 O 0.2823(3) 0.48251(17) 0.43515(19)
O16_5 O 0.4111(4) 0.49285(17) 0.35880(16)
H28_5 H 0.243958 0.0112265 0.565419
H29_5 H 0.0425885 0.0102388 0.650146
H30_5 H 0.135587 0.00626776 0.65617
O15_6 O 0.2177(3) 0.98251(17) 0.56485(19)
O16_6 O 0.0889(4) 0.99285(17) 0.64120(16)
H27_5 H 0.23342 0.9654 0.594349
O6_6 O 0.7823(3) 0.01749(17) 0.56485(19)
O7_6 O 0.9111(4) 0.00715(17) 0.64120(16)
H23_5 H 0.763962 0.0241048 0.598851
H25_5 H 0.953452 0.0270679 0.651288
H24_5 H 0.756719 0.990612 0.552725
H26_5 H 0.923552 0.977085 0.652002
H24_6 H 0.243281 0.0093883 0.552725
H26_6 H 0.0764475 0.0229154 0.652002
H23_6 H 0.236038 0.975895 0.598851
H25_6 H 0.0465483 0.972932 0.651288
H27_6 H 0.76658 0.0346002 0.594349
H28_6 H 0.756042 0.988773 0.565419
H29_6 H 0.957412 0.989761 0.650146
H30_6 H 0.864413 0.993732 0.65617
O6_7 O 0.2177(3) 0.01749(17) 0.93515(19)
O7_7 O 0.0889(4) 0.00715(17) 0.85880(16)
H23_7 H 0.236038 0.0241048 0.901149
H25_7 H 0.0465483 0.0270679 0.848712
H24_7 H 0.243281 0.990612 0.947275
H26_7 H 0.0764475 0.977085 0.847998
H28_7 H 0.756042 0.0112265 0.934581
H29_7 H 0.957412 0.0102388 0.849854
H30_7 H 0.864413 0.00626776 0.84383
O15_7 O 0.7823(3) 0.98251(17) 0.93515(19)
O16_7 O 0.9111(4) 0.99285(17) 0.85880(16)
H27_7 H 0.76658 0.9654 0.905651
H27_8 H 0.23342 0.0346002 0.905651
H28_8 H 0.243958 0.988773 0.934581
H29_8 H 0.0425885 0.989761 0.849854
H30_8 H 0.135587 0.993732 0.84383
H24_8 H 0.756719 0.0093883 0.947275
H26_8 H 0.923552 0.0229154 0.847998
H23_8 H 0.763962 0.975895 0.901149
H25_8 H 0.953452 0.972932 0.848712
O6_8 O 0.2823(3) 0.51749(17) 0.06485(19)
O7_8 O 0.4111(4) 0.50715(17) 0.14120(16)
O15_8 O 0.7177(3) 0.48251(17) 0.06485(19)
O16_8 O 0.5889(4) 0.49285(17) 0.14120(16)
loop_
_geom_bond_atom_site_label_1
_geom_bond_atom_site_label_2
_geom_bond_site_symmetry_1
_geom_bond_site_symmetry_2
Zr1 O2 1_555 1_555
Zr2 O3 1_555 1_555
O1 Si1 1_555 1_555
Si1 C1 1_555 1_555
C1 C2 1_555 1_555
C2 H1 1_555 1_555
C3 C2 1_555 1_555
H2 C3 1_555 1_555
C4 C3 1_555 1_555
C5 C4 1_555 1_555
H3 C5 1_555 1_555
C6 C1 1_555 1_555
H4 C6 1_555 1_555
C7 C4 1_555 1_555
O2 C7 1_555 1_555
O3 C7 1_555 1_555
C8 Si1 1_555 1_555
C9 C8 1_555 1_555
H5 C9 1_555 1_555
C10 C9 1_555 1_555
H6 C10 1_555 1_555
C11 C10 1_555 1_555
C12 C11 1_555 1_555
H7 C12 1_555 1_555
C13 C8 1_555 1_555
H8 C13 1_555 1_555
C14 C11 1_555 1_555
O4 C14 1_555 1_555
O5 C14 1_555 1_555
C15 Si1 1_555 1_555
H9 C15 1_555 1_555
H10 C15 1_555 1_555
H11 C15 1_555 1_555
O6 Zr1 1_555 1_555
O7 Zr1 1_555 1_555
O8 Zr1 1_555 1_555
O9 Zr1 1_555 1_555
O10 Zr1 1_555 1_555
Si2 O1 1_555 1_555
C16 Si2 1_555 1_555
C17 C16 1_555 1_555
H12 C17 1_555 1_555
C18 C17 1_555 1_555
H13 C18 1_555 1_555
C19 C18 1_555 1_555
C20 C19 1_555 1_555
H14 C20 1_555 1_555
C21 C16 1_555 1_555
H15 C21 1_555 1_555
C22 C19 1_555 1_555
O11 C22 1_555 1_555
O12 C22 1_555 1_555
C23 Si2 1_555 1_555
C24 C23 1_555 1_555
H16 C24 1_555 1_555
C25 C24 1_555 1_555
H17 C25 1_555 1_555
C26 C25 1_555 1_555
C27 C26 1_555 1_555
H18 C27 1_555 1_555
C28 C23 1_555 1_555
H19 C28 1_555 1_555
C29 C26 1_555 1_555
O13 C29 1_555 1_555
O14 C29 1_555 1_555
C30 Si2 1_555 1_555
H20 C30 1_555 1_555
H21 C30 1_555 1_555
H22 C30 1_555 1_555
Zr3 O10 1_555 1_555
O15 Zr3 1_555 1_555
O16 Zr3 1_555 1_555
O17 Zr1 1_555 1_555
Zr4 O14 1_555 1_555
Zr5 O8 1_555 1_555
Zr7 O11 1_555 1_555
Zr8 O8 1_555 1_555
Zr9 O4 1_555 1_555
Zr11_2 O13 1_555 1_555
O18 Zr3 1_555 1_555
O19 Zr2 1_555 1_555
O20 Zr2 1_555 1_555
O21 Zr2 1_555 1_555
O22 Zr3 1_555 1_555
O23 Zr1 1_555 1_555
O24 Zr2 1_555 1_555
O25 Zr3 1_555 1_555
O26 Zr2 1_555 1_555
Zr2 O9 1_555 1_555
Zr2 O17 1_555 1_555
C5 C6 1_555 1_555
C12 C13 1_555 1_555
O9 Zr5 1_555 1_555
O10 Zr8 1_555 1_555
C20 C21 1_555 1_555
C27 C28 1_555 1_555
Zr3 O17 1_555 1_555
Zr3 O24 1_555 1_555
Zr5 O26 1_555 1_555
Zr8 O25 1_555 1_555
Zr8 O3_2 1_555 1_555
O1_2 Si1_2 1_555 1_555
Si1_2 C1_2 1_555 1_555
C1_2 C2_2 1_555 1_555
C2_2 H1_2 1_555 1_555
C3_2 C2_2 1_555 1_555
H2_2 C3_2 1_555 1_555
C4_2 C3_2 1_555 1_555
C5_2 C4_2 1_555 1_555
H3_2 C5_2 1_555 1_555
C6_2 C1_2 1_555 1_555
H4_2 C6_2 1_555 1_555
C7_2 C4_2 1_555 1_555
O18 C7_2 1_555 1_555
O3_2 C7_2 1_555 1_555
C8_2 Si1_2 1_555 1_555
C9_2 C8_2 1_555 1_555
H5_2 C9_2 1_555 1_555
C10_2 C9_2 1_555 1_555
H6_2 C10_2 1_555 1_555
C11_2 C10_2 1_555 1_555
C12_2 C11_2 1_555 1_555
H7_2 C12_2 1_555 1_555
C13_2 C8_2 1_555 1_555
H8_2 C13_2 1_555 1_555
C14_2 C11_2 1_555 1_555
O4_2 C14_2 1_555 1_555
O5_2 C14_2 1_555 1_555
C15_2 Si1_2 1_555 1_555
H9_2 C15_2 1_555 1_555
H10_2 C15_2 1_555 1_555
H11_2 C15_2 1_555 1_555
Si2_2 O1_2 1_555 1_555
C16_2 Si2_2 1_555 1_555
C17_2 C16_2 1_555 1_555
H12_2 C17_2 1_555 1_555
C18_2 C17_2 1_555 1_555
H13_2 C18_2 1_555 1_555
C19_2 C18_2 1_555 1_555
C20_2 C19_2 1_555 1_555
H14_2 C20_2 1_555 1_555
C21_2 C16_2 1_555 1_555
H15_2 C21_2 1_555 1_555
C22_2 C19_2 1_555 1_555
O11_2 C22_2 1_555 1_555
O12_2 C22_2 1_555 1_555
C23_2 Si2_2 1_555 1_555
C24_2 C23_2 1_555 1_555
H16_2 C24_2 1_555 1_555
C25_2 C24_2 1_555 1_555
H17_2 C25_2 1_555 1_555
C26_2 C25_2 1_555 1_555
C27_2 C26_2 1_555 1_555
H18_2 C27_2 1_555 1_555
C28_2 C23_2 1_555 1_555
H19_2 C28_2 1_555 1_555
C29_2 C26_2 1_555 1_555
O13_2 C29_2 1_555 1_555
O14_2 C29_2 1_555 1_555
C30_2 Si2_2 1_555 1_555
H20_2 C30_2 1_555 1_555
H21_2 C30_2 1_555 1_555
H22_2 C30_2 1_555 1_555
Zr4_2 O14_2 1_555 1_555
Zr5_2 O24 1_555 1_555
Zr7_2 O11_2 1_555 1_555
Zr9_2 O4_2 1_555 1_555
Zr11_4 O13_2 1_555 1_555
O19_2 Zr8 1_555 1_555
O20_2 Zr8 1_555 1_555
O21_2 Zr8 1_555 1_555
O26_2 Zr8 1_555 1_555
C5_2 C6_2 1_555 1_555
C12_2 C13_2 1_555 1_555
O25 Zr5_2 1_555 1_555
C20_2 C21_2 1_555 1_555
C27_2 C28_2 1_555 1_555
Zr5_2 O26_2 1_555 1_555
Zr9 O8_2 1_555 1_555
O10_2 Zr9 1_555 1_555
Zr1_2 O2_2 1_555 1_555
O1_3 Si1_3 1_555 1_555
Si1_3 C1_3 1_555 1_555
C1_3 C2_3 1_555 1_555
C2_3 H1_3 1_555 1_555
C3_3 C2_3 1_555 1_555
H2_3 C3_3 1_555 1_555
C4_3 C3_3 1_555 1_555
C5_3 C4_3 1_555 1_555
H3_3 C5_3 1_555 1_555
C6_3 C1_3 1_555 1_555
H4_3 C6_3 1_555 1_555
C7_3 C4_3 1_555 1_555
O2_2 C7_3 1_555 1_555
O3_3 C7_3 1_555 1_555
C8_3 Si1_3 1_555 1_555
C9_3 C8_3 1_555 1_555
H5_3 C9_3 1_555 1_555
C10_3 C9_3 1_555 1_555
H6_3 C10_3 1_555 1_555
C11_3 C10_3 1_555 1_555
C12_3 C11_3 1_555 1_555
H7_3 C12_3 1_555 1_555
C13_3 C8_3 1_555 1_555
H8_3 C13_3 1_555 1_555
C14_3 C11_3 1_555 1_555
O20_2 C14_3 1_555 1_555
O5_3 C14_3 1_555 1_555
C15_3 Si1_3 1_555 1_555
H9_3 C15_3 1_555 1_555
H10_3 C15_3 1_555 1_555
H11_3 C15_3 1_555 1_555
O6_2 Zr1_2 1_555 1_555
O7_2 Zr1_2 1_555 1_555
O9_2 Zr1_2 1_555 1_555
Si2_3 O1_3 1_555 1_555
C16_3 Si2_3 1_555 1_555
C17_3 C16_3 1_555 1_555
H12_3 C17_3 1_555 1_555
C18_3 C17_3 1_555 1_555
H13_3 C18_3 1_555 1_555
C19_3 C18_3 1_555 1_555
C20_3 C19_3 1_555 1_555
H14_3 C20_3 1_555 1_555
C21_3 C16_3 1_555 1_555
H15_3 C21_3 1_555 1_555
C22_3 C19_3 1_555 1_555
O11_3 C22_3 1_555 1_555
O12_3 C22_3 1_555 1_555
C23_3 Si2_3 1_555 1_555
C24_3 C23_3 1_555 1_555
H16_3 C24_3 1_555 1_555
C25_3 C24_3 1_555 1_555
H17_3 C25_3 1_555 1_555
C26_3 C25_3 1_555 1_555
C27_3 C26_3 1_555 1_555
H18_3 C27_3 1_555 1_555
C28_3 C23_3 1_555 1_555
H19_3 C28_3 1_555 1_555
C29_3 C26_3 1_555 1_555
O13_3 C29_3 1_555 1_555
O14_3 C29_3 1_555 1_555
C30_3 Si2_3 1_555 1_555
H20_3 C30_3 1_555 1_555
H21_3 C30_3 1_555 1_555
H22_3 C30_3 1_555 1_555
Zr5 O5_3 1_555 1_555
Zr7_3 O11_3 1_555 1_555
Zr11_3 O12_3 1_555 1_555
Zr10_3 O13_3 1_555 1_555
C5_3 C6_3 1_555 1_555
C12_3 C13_3 1_555 1_555
O9_2 Zr6 1_555 1_555
C20_3 C21_3 1_555 1_555
C27_3 C28_3 1_555 1_555
O6_2 H23 1_555 1_555
O7_2 H25 1_555 1_555
O15_2 Zr3_2 1_555 1_555
O16_2 Zr3_2 1_555 1_555
O18_2 Zr3_2 1_555 1_555
O25_2 Zr3_2 1_555 1_555
O15_2 H27 1_555 1_555
O21_3 Zr9_2 1_555 1_555
O24_2 Zr9_2 1_555 1_555
O26_3 Zr9_2 1_555 1_555
Zr9_2 O17_2 1_555 1_555
O21_4 Zr9 1_555 1_555
O26_4 Zr9 1_555 1_555
O6_2 H27_2 1_555 1_555
O1_4 Si1_4 1_555 1_555
Si1_4 C1_4 1_555 1_555
C1_4 C2_4 1_555 1_555
C2_4 H1_4 1_555 1_555
C3_4 C2_4 1_555 1_555
H2_4 C3_4 1_555 1_555
C4_4 C3_4 1_555 1_555
C5_4 C4_4 1_555 1_555
H3_4 C5_4 1_555 1_555
C6_4 C1_4 1_555 1_555
H4_4 C6_4 1_555 1_555
C7_4 C4_4 1_555 1_555
O18_2 C7_4 1_555 1_555
O3_4 C7_4 1_555 1_555
C8_4 Si1_4 1_555 1_555
C9_4 C8_4 1_555 1_555
H5_4 C9_4 1_555 1_555
C10_4 C9_4 1_555 1_555
H6_4 C10_4 1_555 1_555
C11_4 C10_4 1_555 1_555
C12_4 C11_4 1_555 1_555
H7_4 C12_4 1_555 1_555
C13_4 C8_4 1_555 1_555
H8_4 C13_4 1_555 1_555
C14_4 C11_4 1_555 1_555
O20 C14_4 1_555 1_555
O5_4 C14_4 1_555 1_555
C15_4 Si1_4 1_555 1_555
H9_4 C15_4 1_555 1_555
H10_4 C15_4 1_555 1_555
H11_4 C15_4 1_555 1_555
Si2_4 O1_4 1_555 1_555
C16_4 Si2_4 1_555 1_555
C17_4 C16_4 1_555 1_555
H12_4 C17_4 1_555 1_555
C18_4 C17_4 1_555 1_555
H13_4 C18_4 1_555 1_555
C19_4 C18_4 1_555 1_555
C20_4 C19_4 1_555 1_555
H14_4 C20_4 1_555 1_555
C21_4 C16_4 1_555 1_555
H15_4 C21_4 1_555 1_555
C22_4 C19_4 1_555 1_555
O11_4 C22_4 1_555 1_555
O12_4 C22_4 1_555 1_555
C23_4 Si2_4 1_555 1_555
C24_4 C23_4 1_555 1_555
H16_4 C24_4 1_555 1_555
C25_4 C24_4 1_555 1_555
H17_4 C25_4 1_555 1_555
C26_4 C25_4 1_555 1_555
C27_4 C26_4 1_555 1_555
H18_4 C27_4 1_555 1_555
C28_4 C23_4 1_555 1_555
H19_4 C28_4 1_555 1_555
C29_4 C26_4 1_555 1_555
O13_4 C29_4 1_555 1_555
O14_4 C29_4 1_555 1_555
C30_4 Si2_4 1_555 1_555
H20_4 C30_4 1_555 1_555
H21_4 C30_4 1_555 1_555
H22_4 C30_4 1_555 1_555
Zr5_2 O5_4 1_555 1_555
Zr7_4 O11_4 1_555 1_555
Zr11 O12_4 1_555 1_555
Zr10 O13_4 1_555 1_555
C5_4 C6_4 1_555 1_555
C12_4 C13_4 1_555 1_555
O25_2 Zr6_2 1_555 1_555
C20_4 C21_4 1_555 1_555
C27_4 C28_4 1_555 1_555
O15_2 H23_2 1_555 1_555
O16_2 H25_2 1_555 1_555
O15_3 Zr4_3 1_555 1_555
O16_3 Zr4_3 1_555 1_555
O18_3 Zr4_3 1_555 1_555
O25_3 Zr4_3 1_555 1_555
O15_3 H27_3 1_555 1_555
O24_3 Zr10_3 1_555 1_555
Zr10_3 O17_3 1_555 1_555
O20_3 Zr10_4 1_555 1_555
O24_4 Zr10_4 1_555 1_555
O26_5 Zr10_4 1_555 1_555
Zr10 O8_3 1_555 1_555
O10_3 Zr10 1_555 1_555
Zr10_2 O8_4 1_555 1_555
Zr4_4 O2_3 1_555 1_555
O1_5 Si1_5 1_555 1_555
Si1_5 C1_5 1_555 1_555
C1_5 C2_5 1_555 1_555
C2_5 H1_5 1_555 1_555
C3_5 C2_5 1_555 1_555
H2_5 C3_5 1_555 1_555
C4_5 C3_5 1_555 1_555
C5_5 C4_5 1_555 1_555
H3_5 C5_5 1_555 1_555
C6_5 C1_5 1_555 1_555
H4_5 C6_5 1_555 1_555
C7_5 C4_5 1_555 1_555
O2_3 C7_5 1_555 1_555
O3_5 C7_5 1_555 1_555
C8_5 Si1_5 1_555 1_555
C9_5 C8_5 1_555 1_555
H5_5 C9_5 1_555 1_555
C10_5 C9_5 1_555 1_555
H6_5 C10_5 1_555 1_555
C11_5 C10_5 1_555 1_555
C12_5 C11_5 1_555 1_555
H7_5 C12_5 1_555 1_555
C13_5 C8_5 1_555 1_555
H8_5 C13_5 1_555 1_555
C14_5 C11_5 1_555 1_555
O4_3 C14_5 1_555 1_555
O5_5 C14_5 1_555 1_555
C15_5 Si1_5 1_555 1_555
H9_5 C15_5 1_555 1_555
H10_5 C15_5 1_555 1_555
H11_5 C15_5 1_555 1_555
O6_3 Zr4_4 1_555 1_555
O7_3 Zr4_4 1_555 1_555
O9_3 Zr4_4 1_555 1_555
Si2_5 O1_5 1_555 1_555
C16_5 Si2_5 1_555 1_555
C17_5 C16_5 1_555 1_555
H12_5 C17_5 1_555 1_555
C18_5 C17_5 1_555 1_555
H13_5 C18_5 1_555 1_555
C19_5 C18_5 1_555 1_555
C20_5 C19_5 1_555 1_555
H14_5 C20_5 1_555 1_555
C21_5 C16_5 1_555 1_555
H15_5 C21_5 1_555 1_555
C22_5 C19_5 1_555 1_555
O11_5 C22_5 1_555 1_555
O19_2 C22_5 1_555 1_555
C23_5 Si2_5 1_555 1_555
C24_5 C23_5 1_555 1_555
H16_5 C24_5 1_555 1_555
C25_5 C24_5 1_555 1_555
H17_5 C25_5 1_555 1_555
C26_5 C25_5 1_555 1_555
C27_5 C26_5 1_555 1_555
H18_5 C27_5 1_555 1_555
C28_5 C23_5 1_555 1_555
H19_5 C28_5 1_555 1_555
C29_5 C26_5 1_555 1_555
O21_3 C29_5 1_555 1_555
O22_2 C29_5 1_555 1_555
C30_5 Si2_5 1_555 1_555
H20_5 C30_5 1_555 1_555
H21_5 C30_5 1_555 1_555
H22_5 C30_5 1_555 1_555
Zr7_4 O5_5 1_555 1_555
Zr5_2 O11_5 1_555 1_555
Zr11_3 O4_3 1_555 1_555
C5_5 C6_5 1_555 1_555
C12_5 C13_5 1_555 1_555
C20_5 C21_5 1_555 1_555
C27_5 C28_5 1_555 1_555
O6_3 H23_3 1_555 1_555
O7_3 H25_3 1_555 1_555
O9_4 Zr7_2 1_555 1_555
O1_6 Si1_6 1_555 1_555
Si1_6 C1_6 1_555 1_555
C1_6 C2_6 1_555 1_555
C2_6 H1_6 1_555 1_555
C3_6 C2_6 1_555 1_555
H2_6 C3_6 1_555 1_555
C4_6 C3_6 1_555 1_555
C5_6 C4_6 1_555 1_555
H3_6 C5_6 1_555 1_555
C6_6 C1_6 1_555 1_555
H4_6 C6_6 1_555 1_555
C7_6 C4_6 1_555 1_555
O18_3 C7_6 1_555 1_555
O3_6 C7_6 1_555 1_555
C8_6 Si1_6 1_555 1_555
C9_6 C8_6 1_555 1_555
H5_6 C9_6 1_555 1_555
C10_6 C9_6 1_555 1_555
H6_6 C10_6 1_555 1_555
C11_6 C10_6 1_555 1_555
C12_6 C11_6 1_555 1_555
H7_6 C12_6 1_555 1_555
C13_6 C8_6 1_555 1_555
H8_6 C13_6 1_555 1_555
C14_6 C11_6 1_555 1_555
O4_4 C14_6 1_555 1_555
O5_6 C14_6 1_555 1_555
C15_6 Si1_6 1_555 1_555
H9_6 C15_6 1_555 1_555
H10_6 C15_6 1_555 1_555
H11_6 C15_6 1_555 1_555
Si2_6 O1_6 1_555 1_555
C16_6 Si2_6 1_555 1_555
C17_6 C16_6 1_555 1_555
H12_6 C17_6 1_555 1_555
C18_6 C17_6 1_555 1_555
H13_6 C18_6 1_555 1_555
C19_6 C18_6 1_555 1_555
C20_6 C19_6 1_555 1_555
H14_6 C20_6 1_555 1_555
C21_6 C16_6 1_555 1_555
H15_6 C21_6 1_555 1_555
C22_6 C19_6 1_555 1_555
O11_6 C22_6 1_555 1_555
O19 C22_6 1_555 1_555
C23_6 Si2_6 1_555 1_555
C24_6 C23_6 1_555 1_555
H16_6 C24_6 1_555 1_555
C25_6 C24_6 1_555 1_555
H17_6 C25_6 1_555 1_555
C26_6 C25_6 1_555 1_555
C27_6 C26_6 1_555 1_555
H18_6 C27_6 1_555 1_555
C28_6 C23_6 1_555 1_555
H19_6 C28_6 1_555 1_555
C29_6 C26_6 1_555 1_555
O21_4 C29_6 1_555 1_555
O23_2 C29_6 1_555 1_555
C30_6 Si2_6 1_555 1_555
H20_6 C30_6 1_555 1_555
H21_6 C30_6 1_555 1_555
H22_6 C30_6 1_555 1_555
Zr7_3 O5_6 1_555 1_555
Zr5 O11_6 1_555 1_555
Zr11 O4_4 1_555 1_555
C5_6 C6_6 1_555 1_555
C12_6 C13_6 1_555 1_555
C20_6 C21_6 1_555 1_555
C27_6 C28_6 1_555 1_555
O15_3 H23_4 1_555 1_555
O16_3 H25_4 1_555 1_555
O25_4 Zr7 1_555 1_555
O20_4 Zr10_2 1_555 1_555
O26_6 Zr10_2 1_555 1_555
O6_3 H27_4 1_555 1_555
Zr7_4 O8_5 1_555 1_555
Zr11_3 O8_5 1_555 1_555
O24_5 Zr11 1_555 1_555
O26_7 Zr11 1_555 1_555
Zr11 O9_5 1_555 1_555
O9_5 Zr7_4 1_555 1_555
Zr7_4 O26_7 1_555 1_555
Zr11_3 O25_5 1_555 1_555
Zr4_2 O2_4 1_555 1_555
Zr11_2 O3_7 1_555 1_555
O1_7 Si1_7 1_555 1_555
Si1_7 C1_7 1_555 1_555
C1_7 C2_7 1_555 1_555
C2_7 H1_7 1_555 1_555
C3_7 C2_7 1_555 1_555
H2_7 C3_7 1_555 1_555
C4_7 C3_7 1_555 1_555
C5_7 C4_7 1_555 1_555
H3_7 C5_7 1_555 1_555
C6_7 C1_7 1_555 1_555
H4_7 C6_7 1_555 1_555
C7_7 C4_7 1_555 1_555
O2_4 C7_7 1_555 1_555
O3_7 C7_7 1_555 1_555
C8_7 Si1_7 1_555 1_555
C9_7 C8_7 1_555 1_555
H5_7 C9_7 1_555 1_555
C10_7 C9_7 1_555 1_555
H6_7 C10_7 1_555 1_555
C11_7 C10_7 1_555 1_555
C12_7 C11_7 1_555 1_555
H7_7 C12_7 1_555 1_555
C13_7 C8_7 1_555 1_555
H8_7 C13_7 1_555 1_555
C14_7 C11_7 1_555 1_555
O20_4 C14_7 1_555 1_555
O5_7 C14_7 1_555 1_555
C15_7 Si1_7 1_555 1_555
H9_7 C15_7 1_555 1_555
H10_7 C15_7 1_555 1_555
H11_7 C15_7 1_555 1_555
O6_4 Zr4_2 1_555 1_555
O7_4 Zr4_2 1_555 1_555
O8_6 Zr4_2 1_555 1_555
O9_6 Zr4_2 1_555 1_555
O10_4 Zr4_2 1_555 1_555
Si2_7 O1_7 1_555 1_555
C16_7 Si2_7 1_555 1_555
C17_7 C16_7 1_555 1_555
H12_7 C17_7 1_555 1_555
C18_7 C17_7 1_555 1_555
H13_7 C18_7 1_555 1_555
C19_7 C18_7 1_555 1_555
C20_7 C19_7 1_555 1_555
H14_7 C20_7 1_555 1_555
C21_7 C16_7 1_555 1_555
H15_7 C21_7 1_555 1_555
C22_7 C19_7 1_555 1_555
O11_7 C22_7 1_555 1_555
O19_4 C22_7 1_555 1_555
C23_7 Si2_7 1_555 1_555
C24_7 C23_7 1_555 1_555
H16_7 C24_7 1_555 1_555
C25_7 C24_7 1_555 1_555
H17_7 C25_7 1_555 1_555
C26_7 C25_7 1_555 1_555
C27_7 C26_7 1_555 1_555
H18_7 C27_7 1_555 1_555
C28_7 C23_7 1_555 1_555
H19_7 C28_7 1_555 1_555
C29_7 C26_7 1_555 1_555
O21 C29_7 1_555 1_555
O22 C29_7 1_555 1_555
C30_7 Si2_7 1_555 1_555
H20_7 C30_7 1_555 1_555
H21_7 C30_7 1_555 1_555
H22_7 C30_7 1_555 1_555
Zr4 O10_4 1_555 1_555
O15_4 Zr4 1_555 1_555
O16_4 Zr4 1_555 1_555
O17_4 Zr4_2 1_555 1_555
Zr6_2 O11_7 1_555 1_555
Zr11_4 O8_6 1_555 1_555
O18_4 Zr4 1_555 1_555
O24_6 Zr11_2 1_555 1_555
O25_6 Zr4 1_555 1_555
Zr11_2 O9_6 1_555 1_555
Zr11_2 O17_4 1_555 1_555
C5_7 C6_7 1_555 1_555
C12_7 C13_7 1_555 1_555
O10_4 Zr11_4 1_555 1_555
C20_7 C21_7 1_555 1_555
C27_7 C28_7 1_555 1_555
Zr4 O17_4 1_555 1_555
Zr4 O24_6 1_555 1_555
Zr11_4 O25_6 1_555 1_555
Zr7_3 O24_5 1_555 1_555
O26_8 Zr11_3 1_555 1_555
O25_5 Zr7_3 1_555 1_555
Zr7_3 O26_8 1_555 1_555
Zr11_4 O3_8 1_555 1_555
O1_8 Si1_8 1_555 1_555
Si1_8 C1_8 1_555 1_555
C1_8 C2_8 1_555 1_555
C2_8 H1_8 1_555 1_555
C3_8 C2_8 1_555 1_555
H2_8 C3_8 1_555 1_555
C4_8 C3_8 1_555 1_555
C5_8 C4_8 1_555 1_555
H3_8 C5_8 1_555 1_555
C6_8 C1_8 1_555 1_555
H4_8 C6_8 1_555 1_555
C7_8 C4_8 1_555 1_555
O18_4 C7_8 1_555 1_555
O3_8 C7_8 1_555 1_555
C8_8 Si1_8 1_555 1_555
C9_8 C8_8 1_555 1_555
H5_8 C9_8 1_555 1_555
C10_8 C9_8 1_555 1_555
H6_8 C10_8 1_555 1_555
C11_8 C10_8 1_555 1_555
C12_8 C11_8 1_555 1_555
H7_8 C12_8 1_555 1_555
C13_8 C8_8 1_555 1_555
H8_8 C13_8 1_555 1_555
C14_8 C11_8 1_555 1_555
O20_3 C14_8 1_555 1_555
O5_8 C14_8 1_555 1_555
C15_8 Si1_8 1_555 1_555
H9_8 C15_8 1_555 1_555
H10_8 C15_8 1_555 1_555
H11_8 C15_8 1_555 1_555
Si2_8 O1_8 1_555 1_555
C16_8 Si2_8 1_555 1_555
C17_8 C16_8 1_555 1_555
H12_8 C17_8 1_555 1_555
C18_8 C17_8 1_555 1_555
H13_8 C18_8 1_555 1_555
C19_8 C18_8 1_555 1_555
C20_8 C19_8 1_555 1_555
H14_8 C20_8 1_555 1_555
C21_8 C16_8 1_555 1_555
H15_8 C21_8 1_555 1_555
C22_8 C19_8 1_555 1_555
O11_8 C22_8 1_555 1_555
O19_3 C22_8 1_555 1_555
C23_8 Si2_8 1_555 1_555
C24_8 C23_8 1_555 1_555
H16_8 C24_8 1_555 1_555
C25_8 C24_8 1_555 1_555
H17_8 C25_8 1_555 1_555
C26_8 C25_8 1_555 1_555
C27_8 C26_8 1_555 1_555
H18_8 C27_8 1_555 1_555
C28_8 C23_8 1_555 1_555
H19_8 C28_8 1_555 1_555
C29_8 C26_8 1_555 1_555
O21_2 C29_8 1_555 1_555
O23 C29_8 1_555 1_555
C30_8 Si2_8 1_555 1_555
H20_8 C30_8 1_555 1_555
H21_8 C30_8 1_555 1_555
H22_8 C30_8 1_555 1_555
Zr6 O11_8 1_555 1_555
C5_8 C6_8 1_555 1_555
C12_8 C13_8 1_555 1_555
C20_8 C21_8 1_555 1_555
C27_8 C28_8 1_555 1_555
O6_5 Zr5_2 1_555 1_555
O7_5 Zr5_2 1_555 1_555
O26 Zr5_2 1_555 1_555
O15_5 Zr5 1_555 1_555
O16_5 Zr5 1_555 1_555
Zr5 O26_2 1_555 1_555
O15_6 Zr6 1_555 1_555
O16_6 Zr6 1_555 1_555
O15_6 H27_5 1_555 1_555
O6_6 Zr6_2 1_555 1_555
O7_6 Zr6_2 1_555 1_555
O6_6 H23_5 1_555 1_555
O7_6 H25_5 1_555 1_555
O15_6 H23_6 1_555 1_555
O16_6 H25_6 1_555 1_555
O6_6 H27_6 1_555 1_555
O6_7 Zr7 1_555 1_555
O7_7 Zr7 1_555 1_555
O6_7 H23_7 1_555 1_555
O7_7 H25_7 1_555 1_555
O15_7 Zr7_2 1_555 1_555
O16_7 Zr7_2 1_555 1_555
O15_7 H27_7 1_555 1_555
O6_7 H27_8 1_555 1_555
O15_7 H23_8 1_555 1_555
O16_7 H25_8 1_555 1_555
O6_8 Zr7_3 1_555 1_555
O7_8 Zr7_3 1_555 1_555
O26_7 Zr7_3 1_555 1_555
O15_8 Zr7_4 1_555 1_555
O16_8 Zr7_4 1_555 1_555
Zr7_4 O26_8 1_555 1_555

#END
