
###############################################################################
#
# This file contains modified crystal structure data generated from the
# MOF subset of the Cambridge Structural Database (CSD) v543 
# hosted by the Cambridge Crystallographic Data Centre (CCDC).
#
# This work is licensed under the Creative Commons
# Attribution-NonCommercial-ShareAlike 4.0 International License.
# To view a copy of this license, visit
# http://creativecommons.org/licenses/by-nc-sa/4.0/
# or send a letter to
# Creative Commons, PO Box 1866, Mountain View, CA 94042, USA.
#
# CIF created using the CSD Python API on 29 September 2022
# The structure has been converted into the P1 space group
# The structure has a 3D framework
# The original CSD entry PUQXUV is in the hexagonal crystal system
# The original CSD entry PUQXUV is in a Sohncke space group
# The framework has been calculated to contain at least 10.0% void space
# The void calculation uses a probe of radius 1.32A, grid spacing 0.4
#
###############################################################################

data_PUQXUV
_chemical_formula_moiety         '(C106 H48 F36 O24 Zn6)n'
_symmetry_cell_setting           triclinic
_symmetry_space_group_name_H-M   'P 1'
_symmetry_Int_Tables_number      1
_space_group_name_Hall           'P 1'
loop_
_symmetry_equiv_pos_site_id
_symmetry_equiv_pos_as_xyz
1 x,y,z
_cell_length_a                   21.250(3)
_cell_length_b                   21.250(3)
_cell_length_c                   7.7200(15)
_cell_angle_alpha                90
_cell_angle_beta                 90
_cell_angle_gamma                120
_cell_volume                     3019.02
loop_
_atom_site_label
_atom_site_type_symbol
_atom_site_fract_x
_atom_site_fract_y
_atom_site_fract_z
Zn1 Zn 0.40194(5) 0.70097(3) 0.1667
F2 F 0.3023(4) 0.2308(3) 0.0879(9)
F3 F 0.1899(3) 0.1870(2) 0.0303(10)
O1 O 0.3624(3) 0.6013(2) 0.0927(6)
O2 O 0.2934(2) 0.5356(2) 0.3143(6)
C1 C 0.3230(3) 0.5426(3) 0.1717(8)
C2 C 0.3107(3) 0.4735(3) 0.0846(7)
C3 C 0.2727(4) 0.4092(3) 0.1665(9)
H1 H 0.2536 0.4079 0.2756
C4 C 0.2612(4) 0.3445(4) 0.0923(11)
H2 H 0.2360 0.3010 0.1529
Zn3 Zn 0.29903(6) 0.59806(5) 0.5000
O4 O 0.3624(3) 0.7611(4) 0.2406(6)
O7 O 0.4644(2) 0.7066(2) 0.3524(6)
F1 F 0.2535(3) 0.1559(2) 0.8775(11)
C5 C 0.3371(3) 0.4754(3) 0.9187(9)
H3 H 0.3624 0.5192 0.8592
C6 C 0.3252(3) 0.4112(3) 0.8434(9)
H4 H 0.3431 0.4127 0.7326
C7 C 0.2880(3) 0.3453(3) 0.9262(9)
C8 C 0.2769(4) 0.2769(4) 0.8333
C9 C 0.2553(5) 0.2125(4) 0.9589(16)
Zn2 Zn 0.70097(3) 0.40194(5) 0.5000
Zn4 Zn 0.59806(5) 0.29903(6) 0.1666
F4 F 0.1559(2) 0.2535(3) 0.7892(11)
F5 F 0.2308(3) 0.3023(4) 0.5788(9)
F6 F 0.1870(2) 0.1899(3) 0.6364(10)
O3 O 0.6013(2) 0.3624(3) 0.5740(6)
O5 O 0.5356(2) 0.2934(2) 0.3524(6)
O6 O 0.4644(2) 0.7578(3) 0.9810(6)
C10 C 0.5426(3) 0.3230(3) 0.4950(8)
C11 C 0.4735(3) 0.3107(3) 0.5821(7)
C12 C 0.4092(3) 0.2727(4) 0.5002(9)
H5 H 0.4079 0.2536 0.3911
C13 C 0.3445(4) 0.2612(4) 0.5744(11)
H6 H 0.3010 0.2360 0.5138
C14 C 0.4754(3) 0.3371(3) 0.7480(9)
H7 H 0.5192 0.3624 0.8075
C15 C 0.4112(3) 0.3252(3) 0.8233(9)
H8 H 0.4127 0.3431 0.9341
C16 C 0.3453(3) 0.2880(3) 0.7405(9)
C17 C 0.2125(4) 0.2553(5) 0.7078(16)
F1_2 F 0.0976(4) 0.2535(3) 0.2108(11)
F2_2 F 0.0715(5) 0.3023(4) 0.4212(9)
F3_2 F 0.0029(4) 0.1899(3) 0.3636(10)
C8_2 C -0.0000(6) 0.2769(4) 0.1666
C9_2 C 0.0428(6) 0.2553(5) 0.2922(16)
C14_2 C 0.1383(4) 0.4754(3) 0.0813(9)
H7_2 H 0.1568 0.5192 0.1408
C15_2 C 0.0860(4) 0.4112(3) 0.1566(9)
H8_2 H 0.0696 0.4127 0.2674
C16_2 C 0.0573(4) 0.3453(3) 0.0738(9)
Zn2_2 Zn 0.29903(6) 0.70097(3) 0.8333
O3_2 O 0.2389(4) 0.6013(2) 0.9073(6)
O5_2 O 0.2422(3) 0.5356(2) 0.6857(6)
C10_2 C 0.2196(4) 0.5426(3) 0.8283(8)
C11_2 C 0.1628(4) 0.4735(3) 0.9154(7)
C12_2 C 0.1365(5) 0.4092(3) 0.8335(9)
H5_2 H 0.1543 0.4079 0.7244
C13_2 C 0.0833(6) 0.3445(4) 0.9077(11)
H6_2 H 0.0650 0.3010 0.8471
O1_2 O 0.7611(4) 0.3624(3) 0.4260(6)
O2_2 O 0.7578(3) 0.2934(2) 0.6476(6)
C1_2 C 0.7804(4) 0.3230(3) 0.5050(8)
C2_2 C 0.8372(4) 0.3107(3) 0.4179(7)
C3_2 C 0.8635(5) 0.2727(4) 0.4998(9)
H1_2 H 0.8457 0.2536 0.6089
C4_2 C 0.9167(6) 0.2612(4) 0.4256(11)
H2_2 H 0.9350 0.2360 0.4862
C5_2 C 0.8617(4) 0.3371(3) 0.2520(9)
H3_2 H 0.8432 0.3624 0.1925
C6_2 C 0.9140(4) 0.3252(3) 0.1767(9)
H4_2 H 0.9304 0.3431 0.0659
C7_2 C 0.9427(4) 0.2880(3) 0.2595(9)
C8_3 C 1.0000(6) 0.2769(4) 0.1666
Zn3_2 Zn 0.70097(8) 0.29903(6) 0.8334
F4_2 F 0.9024(4) 0.1559(2) 0.1225(11)
O6_2 O 0.7066(4) 0.4644(2) 0.3143(6)
O7_2 O 0.7578(3) 0.4644(2) 0.6857(6)
C17_2 C 0.9572(6) 0.2125(4) 0.0411(16)
F1_3 F 0.8441(2) 0.0976(4) 0.5442(11)
F2_3 F 0.7692(3) 0.0715(5) 0.7546(9)
F3_3 F 0.8130(2) 0.0029(4) 0.6970(10)
C8_4 C 0.7231(4) 0.0000(6) 0.5000
C9_3 C 0.7875(4) 0.0428(6) 0.6256(16)
O3_3 O 0.6376(3) 0.2389(4) 0.2406(6)
O5_3 O 0.7066(2) 0.2422(3) 0.0190(6)
C10_3 C 0.6770(3) 0.2196(4) 0.1616(8)
C11_3 C 0.6893(3) 0.1628(4) 0.2487(7)
C12_3 C 0.7273(4) 0.1365(5) 0.1668(9)
H5_3 H 0.7464 0.1543 0.0577
C13_3 C 0.7388(4) 0.0833(6) 0.2410(11)
H6_3 H 0.7640 0.0650 0.1804
C14_3 C 0.6629(3) 0.1383(4) 0.4146(9)
H7_3 H 0.6376 0.1568 0.4741
C15_3 C 0.6748(3) 0.0860(4) 0.4899(9)
H8_3 H 0.6569 0.0696 0.6007
C16_3 C 0.7120(3) 0.0573(4) 0.4071(9)
O7_3 O 0.2934(2) 0.7578(3) 0.0190(6)
O1_3 O 0.3987(2) 0.7611(4) 0.7594(6)
C1_3 C 0.4574(3) 0.7804(4) 0.8384(8)
C2_3 C 0.5265(3) 0.8372(4) 0.7513(7)
C3_3 C 0.5908(3) 0.8635(5) 0.8332(9)
H1_3 H 0.5921 0.8457 0.9423
C4_3 C 0.6555(4) 0.9167(6) 0.7590(11)
H2_3 H 0.6990 0.9350 0.8196
C5_3 C 0.5246(3) 0.8617(4) 0.5854(9)
H3_3 H 0.4808 0.8432 0.5259
C6_3 C 0.5888(3) 0.9140(4) 0.5101(9)
H4_3 H 0.5873 0.9304 0.3993
C7_3 C 0.6547(3) 0.9427(4) 0.5929(9)
C8_5 C 0.7231(4) 1.0000(6) 0.5000
F4_3 F 0.7465(3) 0.9024(4) 0.4558(11)
F5_2 F 0.6977(4) 0.9285(5) 0.2454(9)
F6_2 F 0.8101(3) 0.9971(4) 0.3030(10)
O6_3 O 0.2422(3) 0.7066(4) 0.6476(6)
C17_3 C 0.7447(5) 0.9572(6) 0.3744(16)
F2_4 F 0.6977(4) 0.7692(3) 0.0879(9)
F3_4 F 0.8101(3) 0.8130(2) 0.0303(10)
O1_4 O 0.6376(3) 0.3987(2) 0.0927(6)
C1_4 C 0.6770(3) 0.4574(3) 0.1717(8)
C2_4 C 0.6893(3) 0.5265(3) 0.0846(7)
C3_4 C 0.7273(4) 0.5908(3) 0.1665(9)
H1_4 H 0.7464 0.5921 0.2756
C4_4 C 0.7388(4) 0.6555(4) 0.0923(11)
H2_4 H 0.7640 0.6990 0.1529
F1_4 F 0.7465(3) 0.8441(2) 0.8775(11)
C5_4 C 0.6629(3) 0.5246(3) 0.9187(9)
H3_4 H 0.6376 0.4808 0.8592
C6_4 C 0.6748(3) 0.5888(3) 0.8434(9)
H4_4 H 0.6569 0.5873 0.7326
C7_4 C 0.7120(3) 0.6547(3) 0.9262(9)
C8_6 C 0.7231(4) 0.7231(4) 0.8333
C9_4 C 0.7447(5) 0.7875(4) 0.9589(16)
F4_4 F 0.8441(2) 0.7465(3) 0.7892(11)
F5_3 F 0.7692(3) 0.6977(4) 0.5788(9)
F6_3 F 0.8130(2) 0.8101(3) 0.6364(10)
O3_4 O 0.3987(2) 0.6376(3) 0.5740(6)
O6_4 O 0.5356(2) 0.2422(3) 0.9810(6)
C10_4 C 0.4574(3) 0.6770(3) 0.4950(8)
C11_4 C 0.5265(3) 0.6893(3) 0.5821(7)
C12_4 C 0.5908(3) 0.7273(4) 0.5002(9)
H5_4 H 0.5921 0.7464 0.3911
C13_4 C 0.6555(4) 0.7388(4) 0.5744(11)
H6_4 H 0.6990 0.7640 0.5138
C14_4 C 0.5246(3) 0.6629(3) 0.7480(9)
H7_4 H 0.4808 0.6376 0.8075
C15_4 C 0.5888(3) 0.6748(3) 0.8233(9)
H8_4 H 0.5873 0.6569 0.9341
C16_4 C 0.6547(3) 0.7120(3) 0.7405(9)
C17_4 C 0.7875(4) 0.7447(5) 0.7078(16)
O1_5 O 0.2389(4) 0.6376(3) 0.4260(6)
C1_5 C 0.2196(4) 0.6770(3) 0.5050(8)
C2_5 C 0.1628(4) 0.6893(3) 0.4179(7)
C3_5 C 0.1365(5) 0.7273(4) 0.4998(9)
H1_5 H 0.1543 0.7464 0.6089
C4_5 C 0.0833(6) 0.7388(4) 0.4256(11)
H2_5 H 0.0650 0.7640 0.4862
C5_5 C 0.1383(4) 0.6629(3) 0.2520(9)
H3_5 H 0.1568 0.6376 0.1925
C6_5 C 0.0860(4) 0.6748(3) 0.1767(9)
H4_5 H 0.0696 0.6569 0.0659
C7_5 C 0.0573(4) 0.7120(3) 0.2595(9)
C8_7 C -0.0000(6) 0.7231(4) 0.1666
F4_5 F 0.0976(4) 0.8441(2) 0.1225(11)
C17_5 C 0.0428(6) 0.7875(4) 0.0411(16)
F1_5 F 0.9024(4) 0.7465(3) 0.2108(11)
F2_5 F 0.9285(5) 0.6977(4) 0.4212(9)
F3_5 F 0.9971(4) 0.8101(3) 0.3636(10)
C8_8 C 1.0000(6) 0.7231(4) 0.1666
C9_5 C 0.9572(6) 0.7447(5) 0.2922(16)
C14_5 C 0.8617(4) 0.5246(3) 0.0813(9)
H7_5 H 0.8432 0.4808 0.1408
C15_5 C 0.9140(4) 0.5888(3) 0.1566(9)
H8_5 H 0.9304 0.5873 0.2674
C16_5 C 0.9427(4) 0.6547(3) 0.0738(9)
O3_5 O 0.7611(4) 0.3987(2) 0.9073(6)
C10_5 C 0.7804(4) 0.4574(3) 0.8283(8)
C11_5 C 0.8372(4) 0.5265(3) 0.9154(7)
C12_5 C 0.8635(5) 0.5908(3) 0.8335(9)
H5_5 H 0.8457 0.5921 0.7244
C13_5 C 0.9167(6) 0.6555(4) 0.9077(11)
H6_5 H 0.9350 0.6990 0.8471
O1_6 O 0.6013(2) 0.2389(4) 0.7594(6)
C1_6 C 0.5426(3) 0.2196(4) 0.8384(8)
C2_6 C 0.4735(3) 0.1628(4) 0.7513(7)
C3_6 C 0.4092(3) 0.1365(5) 0.8332(9)
H1_6 H 0.4079 0.1543 0.9423
C4_6 C 0.3445(4) 0.0833(6) 0.7590(11)
H2_6 H 0.3010 0.0650 0.8196
C5_6 C 0.4754(3) 0.1383(4) 0.5854(9)
H3_6 H 0.5192 0.1568 0.5259
C6_6 C 0.4112(3) 0.0860(4) 0.5101(9)
H4_6 H 0.4127 0.0696 0.3993
C7_6 C 0.3453(3) 0.0573(4) 0.5929(9)
C8_9 C 0.2769(4) 0.0000(6) 0.5000
F4_6 F 0.2535(3) 0.0976(4) 0.4558(11)
F5_4 F 0.3023(4) 0.0715(5) 0.2454(9)
F6_4 F 0.1899(3) 0.0029(4) 0.3030(10)
C17_6 C 0.2553(5) 0.0428(6) 0.3744(16)
F1_6 F 0.1559(2) 0.9024(4) 0.5442(11)
F2_6 F 0.2308(3) 0.9285(5) 0.7546(9)
F3_6 F 0.1870(2) 0.9971(4) 0.6970(10)
C8_10 C 0.2769(4) 1.0000(6) 0.5000
C9_6 C 0.2125(4) 0.9572(6) 0.6256(16)
C10_6 C 0.3230(3) 0.7804(4) 0.1616(8)
C11_6 C 0.3107(3) 0.8372(4) 0.2487(7)
C12_6 C 0.2727(4) 0.8635(5) 0.1668(9)
H5_6 H 0.2536 0.8457 0.0577
C13_6 C 0.2612(4) 0.9167(6) 0.2410(11)
H6_6 H 0.2360 0.9350 0.1804
C14_6 C 0.3371(3) 0.8617(4) 0.4146(9)
H7_6 H 0.3624 0.8432 0.4741
C15_6 C 0.3252(3) 0.9140(4) 0.4899(9)
H8_6 H 0.3431 0.9304 0.6007
C16_6 C 0.2880(3) 0.9427(4) 0.4071(9)
F5_5 F 0.9285(5) 0.2308(3) 0.9121(9)
F6_5 F 0.9971(4) 0.1870(2) 0.9697(10)
F5_6 F 0.0715(5) 0.7692(3) 0.9121(9)
F6_6 F 0.0029(4) 0.8130(2) 0.9697(10)
loop_
_geom_bond_atom_site_label_1
_geom_bond_atom_site_label_2
_geom_bond_site_symmetry_1
_geom_bond_site_symmetry_2
Zn1 O1 1_555 1_555
O1 C1 1_555 1_555
O2 C1 1_555 1_555
C1 C2 1_555 1_555
C2 C3 1_555 1_555
C3 H1 1_555 1_555
C4 C3 1_555 1_555
H2 C4 1_555 1_555
Zn3 O2 1_555 1_555
O4 Zn1 1_555 1_555
O7 Zn1 1_555 1_555
F1 C9 1_555 1_555
H3 C5 1_555 1_555
C6 C5 1_555 1_555
H4 C6 1_555 1_555
C8 C7 1_555 1_555
C9 C8 1_555 1_555
Zn2 O3 1_555 1_555
Zn4 O5 1_555 1_555
F4 C17 1_555 1_555
F5 C17 1_555 1_555
F6 C17 1_555 1_555
O3 C10 1_555 1_555
O5 C10 1_555 1_555
C10 C11 1_555 1_555
C11 C12 1_555 1_555
C12 H5 1_555 1_555
C13 C12 1_555 1_555
H6 C13 1_555 1_555
C14 C11 1_555 1_555
H7 C14 1_555 1_555
C15 C14 1_555 1_555
H8 C15 1_555 1_555
C16 C8 1_555 1_555
C17 C8 1_555 1_555
C6 C7 1_555 1_555
C13 C16 1_555 1_555
C15 C16 1_555 1_555
F1_2 C9_2 1_555 1_555
F2_2 C9_2 1_555 1_555
F3_2 C9_2 1_555 1_555
C9_2 C8_2 1_555 1_555
H7_2 C14_2 1_555 1_555
C15_2 C14_2 1_555 1_555
H8_2 C15_2 1_555 1_555
C16_2 C8_2 1_555 1_555
C15_2 C16_2 1_555 1_555
Zn2_2 O3_2 1_555 1_555
Zn3 O5_2 1_555 1_555
O3_2 C10_2 1_555 1_555
O5_2 C10_2 1_555 1_555
C10_2 C11_2 1_555 1_555
C11_2 C12_2 1_555 1_555
C12_2 H5_2 1_555 1_555
C13_2 C12_2 1_555 1_555
H6_2 C13_2 1_555 1_555
Zn2 O1_2 1_555 1_555
O1_2 C1_2 1_555 1_555
O2_2 C1_2 1_555 1_555
C1_2 C2_2 1_555 1_555
C2_2 C3_2 1_555 1_555
C3_2 H1_2 1_555 1_555
C4_2 C3_2 1_555 1_555
H2_2 C4_2 1_555 1_555
C5_2 C2_2 1_555 1_555
H3_2 C5_2 1_555 1_555
C6_2 C5_2 1_555 1_555
H4_2 C6_2 1_555 1_555
C7_2 C4_2 1_555 1_555
C8_3 C7_2 1_555 1_555
Zn3_2 O2_2 1_555 1_555
F4_2 C17_2 1_555 1_555
O6_2 Zn2 1_555 1_555
O7_2 Zn2 1_555 1_555
C17_2 C8_3 1_555 1_555
C6_2 C7_2 1_555 1_555
F1_3 C9_3 1_555 1_555
F2_3 C9_3 1_555 1_555
F3_3 C9_3 1_555 1_555
C9_3 C8_4 1_555 1_555
Zn4 O3_3 1_555 1_555
O3_3 C10_3 1_555 1_555
O5_3 C10_3 1_555 1_555
C10_3 C11_3 1_555 1_555
C11_3 C12_3 1_555 1_555
C12_3 H5_3 1_555 1_555
C13_3 C12_3 1_555 1_555
H6_3 C13_3 1_555 1_555
C14_3 C11_3 1_555 1_555
H7_3 C14_3 1_555 1_555
C15_3 C14_3 1_555 1_555
H8_3 C15_3 1_555 1_555
C16_3 C8_4 1_555 1_555
C13_3 C16_3 1_555 1_555
C15_3 C16_3 1_555 1_555
Zn2_2 O1_3 1_555 1_555
O1_3 C1_3 1_555 1_555
O6 C1_3 1_555 1_555
C1_3 C2_3 1_555 1_555
C2_3 C3_3 1_555 1_555
C3_3 H1_3 1_555 1_555
C4_3 C3_3 1_555 1_555
H2_3 C4_3 1_555 1_555
C5_3 C2_3 1_555 1_555
H3_3 C5_3 1_555 1_555
C6_3 C5_3 1_555 1_555
H4_3 C6_3 1_555 1_555
C7_3 C4_3 1_555 1_555
C8_5 C7_3 1_555 1_555
F4_3 C17_3 1_555 1_555
F5_2 C17_3 1_555 1_555
F6_2 C17_3 1_555 1_555
O6_3 Zn2_2 1_555 1_555
C17_3 C8_5 1_555 1_555
C6_3 C7_3 1_555 1_555
Zn4 O1_4 1_555 1_555
O1_4 C1_4 1_555 1_555
O6_2 C1_4 1_555 1_555
C1_4 C2_4 1_555 1_555
C2_4 C3_4 1_555 1_555
C3_4 H1_4 1_555 1_555
C4_4 C3_4 1_555 1_555
H2_4 C4_4 1_555 1_555
F1_4 C9_4 1_555 1_555
H3_4 C5_4 1_555 1_555
C6_4 C5_4 1_555 1_555
H4_4 C6_4 1_555 1_555
C8_6 C7_4 1_555 1_555
C9_4 C8_6 1_555 1_555
Zn3 O3_4 1_555 1_555
F4_4 C17_4 1_555 1_555
F5_3 C17_4 1_555 1_555
F6_3 C17_4 1_555 1_555
O3_4 C10_4 1_555 1_555
O7 C10_4 1_555 1_555
C10_4 C11_4 1_555 1_555
C11_4 C12_4 1_555 1_555
C12_4 H5_4 1_555 1_555
C13_4 C12_4 1_555 1_555
H6_4 C13_4 1_555 1_555
C14_4 C11_4 1_555 1_555
H7_4 C14_4 1_555 1_555
C15_4 C14_4 1_555 1_555
H8_4 C15_4 1_555 1_555
C16_4 C8_6 1_555 1_555
C17_4 C8_6 1_555 1_555
C6_4 C7_4 1_555 1_555
C13_4 C16_4 1_555 1_555
C15_4 C16_4 1_555 1_555
Zn3 O1_5 1_555 1_555
O1_5 C1_5 1_555 1_555
O6_3 C1_5 1_555 1_555
C1_5 C2_5 1_555 1_555
C2_5 C3_5 1_555 1_555
C3_5 H1_5 1_555 1_555
C4_5 C3_5 1_555 1_555
H2_5 C4_5 1_555 1_555
C5_5 C2_5 1_555 1_555
H3_5 C5_5 1_555 1_555
C6_5 C5_5 1_555 1_555
H4_5 C6_5 1_555 1_555
C7_5 C4_5 1_555 1_555
C8_7 C7_5 1_555 1_555
F4_5 C17_5 1_555 1_555
C17_5 C8_7 1_555 1_555
C6_5 C7_5 1_555 1_555
F1_5 C9_5 1_555 1_555
F2_5 C9_5 1_555 1_555
F3_5 C9_5 1_555 1_555
C9_5 C8_8 1_555 1_555
H7_5 C14_5 1_555 1_555
C15_5 C14_5 1_555 1_555
H8_5 C15_5 1_555 1_555
C16_5 C8_8 1_555 1_555
C15_5 C16_5 1_555 1_555
Zn3_2 O3_5 1_555 1_555
O3_5 C10_5 1_555 1_555
O7_2 C10_5 1_555 1_555
C10_5 C11_5 1_555 1_555
C11_5 C12_5 1_555 1_555
C12_5 H5_5 1_555 1_555
C13_5 C12_5 1_555 1_555
H6_5 C13_5 1_555 1_555
Zn3_2 O1_6 1_555 1_555
O1_6 C1_6 1_555 1_555
O6_4 C1_6 1_555 1_555
C1_6 C2_6 1_555 1_555
C2_6 C3_6 1_555 1_555
C3_6 H1_6 1_555 1_555
C4_6 C3_6 1_555 1_555
H2_6 C4_6 1_555 1_555
C5_6 C2_6 1_555 1_555
H3_6 C5_6 1_555 1_555
C6_6 C5_6 1_555 1_555
H4_6 C6_6 1_555 1_555
C7_6 C4_6 1_555 1_555
C8_9 C7_6 1_555 1_555
F4_6 C17_6 1_555 1_555
F5_4 C17_6 1_555 1_555
F6_4 C17_6 1_555 1_555
C17_6 C8_9 1_555 1_555
C6_6 C7_6 1_555 1_555
F1_6 C9_6 1_555 1_555
F2_6 C9_6 1_555 1_555
F3_6 C9_6 1_555 1_555
C9_6 C8_10 1_555 1_555
O4 C10_6 1_555 1_555
O7_3 C10_6 1_555 1_555
C10_6 C11_6 1_555 1_555
C11_6 C12_6 1_555 1_555
C12_6 H5_6 1_555 1_555
C13_6 C12_6 1_555 1_555
H6_6 C13_6 1_555 1_555
C14_6 C11_6 1_555 1_555
H7_6 C14_6 1_555 1_555
C15_6 C14_6 1_555 1_555
H8_6 C15_6 1_555 1_555
C16_6 C8_10 1_555 1_555
C13_6 C16_6 1_555 1_555
C15_6 C16_6 1_555 1_555

#END
