
###############################################################################
#
# This file contains modified crystal structure data generated from the
# MOF subset of the Cambridge Structural Database (CSD) v543 
# hosted by the Cambridge Crystallographic Data Centre (CCDC).
#
# This work is licensed under the Creative Commons
# Attribution-NonCommercial-ShareAlike 4.0 International License.
# To view a copy of this license, visit
# http://creativecommons.org/licenses/by-nc-sa/4.0/
# or send a letter to
# Creative Commons, PO Box 1866, Mountain View, CA 94042, USA.
#
# CIF created using the CSD Python API on 29 September 2022
# The structure has been converted into the P1 space group
# The structure has a 3D framework
# The original CSD entry PUQYAC is in the hexagonal crystal system
# The original CSD entry PUQYAC is in a Sohncke space group
# The framework has been calculated to contain at least 10.0% void space
# The void calculation uses a probe of radius 1.32A, grid spacing 0.4
#
###############################################################################

data_PUQYAC
_chemical_formula_moiety         '(C110 H48 F36 O22 Zn6)n'
_symmetry_cell_setting           triclinic
_symmetry_space_group_name_H-M   'P 1'
_symmetry_Int_Tables_number      1
_space_group_name_Hall           'P 1'
loop_
_symmetry_equiv_pos_site_id
_symmetry_equiv_pos_as_xyz
1 x,y,z
_cell_length_a                   21.260(3)
_cell_length_b                   21.260(3)
_cell_length_c                   7.7300(15)
_cell_angle_alpha                90
_cell_angle_beta                 90
_cell_angle_gamma                120
_cell_volume                     3025.78
loop_
_atom_site_label
_atom_site_type_symbol
_atom_site_fract_x
_atom_site_fract_y
_atom_site_fract_z
Zn3 Zn 0.29909(3) 0.59817(5) 0.0000
C6 C -0.0000 0.2765(4) 0.3333
Zn3_2 Zn 0.29909(3) 0.59817(5) 1.0000
Zn4 Zn 0.29908(6) 0.70091(3) 0.6667
O3 O 0.2390(3) 0.6006(4) 0.5925(6)
C10 C 0.2189(3) 0.5413(4) 0.6705(7)
C11 C 0.1358(3) 0.4088(5) 0.6669(10)
H5 H 0.1534 0.4076 0.7763
C12 C 0.0863(3) 0.4115(4) 0.3431(10)
H6 H 0.0705 0.4132 0.2320
F4 F 0.0713(3) 0.3018(4) 0.0824(10)
F5 F 0.0036(4) 0.1900(4) 0.1358(12)
C13 C 0.1387(3) 0.4757(5) 0.4188(8)
H7 H 0.1571 0.5193 0.3592
C14 C 0.1635(3) 0.4743(4) 0.5841(8)
C15 C 0.0831(4) 0.3449(6) 0.5948(10)
H8 H 0.0648 0.3015 0.6559
C16 C 0.0569(3) 0.3456(4) 0.4259(10)
F6 F 0.0976(3) 0.2534(4) 0.2920(12)
C17 C 0.0424(5) 0.2550(6) 0.2076(17)
O5 O 0.2421(3) 0.5356(4) 0.8129(6)
Zn1 Zn 0.70091(3) 0.40183(5) 0.0000
O1 O 0.7610(3) 0.3616(3) 0.0742(6)
C3 C 0.9137(3) 0.3252(3) 0.3236(10)
H2 H 0.9295 0.3427 0.4347
F1 F 0.9287(3) 0.2305(3) 0.5843(10)
F2 F 0.9964(4) 0.1864(2) 0.5309(12)
C4 C 0.8613(3) 0.3370(4) 0.2479(8)
H3 H 0.8429 0.3622 0.3075
C5 C 0.8365(3) 0.3108(3) 0.0826(8)
C6_2 C 1.0000 0.2765(4) 0.3333
C7 C 0.9169(4) 0.2618(4) 0.0719(10)
H4 H 0.9352 0.2367 0.0108
C8 C 0.9431(3) 0.2887(3) 0.2408(10)
F3 F 0.9024(3) 0.1558(2) 0.3747(12)
C9 C 0.9576(5) 0.2126(4) 0.4591(17)
O6 O 0.7065(3) 0.4644(4) 0.1871(6)
Zn1_2 Zn 0.70091(3) 0.40183(5) 1.0000
C1 C 0.7811(3) 0.3224(3) 0.9962(7)
C2 C 0.8642(3) 0.2730(4) 0.9998(10)
H1 H 0.8466 0.2542 0.8904
O2 O 0.7579(3) 0.2935(3) 0.8538(6)
Zn2 Zn 0.70092(6) 0.29909(3) 0.6667
O4 O 0.6006(4) 0.3616(3) 0.9258(6)
O7 O 0.7579(3) 0.4644(4) 0.8129(6)
Zn3_3 Zn 0.40183(5) 0.70092(6) 0.3333
C10_2 C 0.4587(4) 0.6776(5) 0.0038(7)
C11_2 C 0.5912(5) 0.7270(6) 0.0002(10)
H5_2 H 0.5924 0.7458 0.1096
O5_2 O 0.4644(4) 0.7065(5) 0.1462(6)
Zn1_3 Zn 0.59817(5) 0.29908(6) 0.3333
O1_2 O 0.6384(3) 0.3994(4) 0.4075(6)
C1_2 C 0.6776(3) 0.4587(4) 0.3295(7)
C2_2 C 0.7270(4) 0.5912(5) 0.3331(10)
H1_2 H 0.7458 0.5924 0.2237
C3_2 C 0.6748(3) 0.5885(4) 0.6569(10)
H2_2 H 0.6573 0.5868 0.7680
F1_2 F 0.7695(3) 0.6982(4) 0.9176(10)
F2_2 F 0.8136(2) 0.8100(4) 0.8642(12)
C4_2 C 0.6630(4) 0.5243(5) 0.5812(8)
H3_2 H 0.6378 0.4807 0.6408
C5_2 C 0.6892(3) 0.5257(4) 0.4159(8)
C6_3 C 0.7235(4) 0.7235(4) 0.6666
C7_2 C 0.7382(4) 0.6551(6) 0.4052(10)
H4_2 H 0.7633 0.6985 0.3441
C8_2 C 0.7113(3) 0.6544(4) 0.5741(10)
F3_2 F 0.8442(2) 0.7466(4) 0.7080(12)
C9_2 C 0.7874(4) 0.7450(6) 0.7924(17)
O3_2 O 0.3994(4) 0.6384(5) 0.9258(6)
O4_2 O 0.6384(3) 0.2390(5) 0.2591(6)
C12_2 C 0.5885(4) 0.6748(5) 0.6764(10)
H6_2 H 0.5868 0.6573 0.5653
F4_2 F 0.6982(4) 0.7695(5) 0.4157(10)
F5_2 F 0.8100(4) 0.8136(6) 0.4691(12)
C13_2 C 0.5243(5) 0.6630(6) 0.7521(8)
H7_2 H 0.4807 0.6378 0.6925
C14_2 C 0.5257(4) 0.6892(5) 0.9174(8)
C15_2 C 0.6551(6) 0.7382(7) 0.9281(10)
H8_2 H 0.6985 0.7633 0.9892
C16_2 C 0.6544(4) 0.7113(5) 0.7592(10)
F6_2 F 0.7466(4) 0.8442(5) 0.6253(12)
C17_2 C 0.7450(6) 0.7874(8) 0.5409(17)
O6_2 O 0.5356(4) 0.2421(5) 0.5205(6)
O7_2 O 0.5356(4) 0.2935(5) 0.1462(6)
O1_3 O 0.6006(4) 0.2390(3) 0.7409(6)
C1_3 C 0.5413(4) 0.2189(3) 0.6629(7)
C2_3 C 0.4088(5) 0.1358(3) 0.6665(10)
H1_3 H 0.4076 0.1534 0.5571
C3_3 C 0.4115(4) 0.0863(3) 0.9903(10)
C4_3 C 0.4757(5) 0.1387(3) 0.9146(8)
H3_3 H 0.5193 0.1571 0.9742
C5_3 C 0.4743(4) 0.1635(3) 0.7493(8)
C6_4 C 0.2765(4) 0.0000 1.0000
C7_3 C 0.3449(6) 0.0831(4) 0.7386(10)
H4_3 H 0.3015 0.0648 0.6775
C8_3 C 0.3456(4) 0.0569(3) 0.9075(10)
O4_3 O 0.7610(5) 0.3994(4) 0.5925(6)
O7_3 O 0.7065(5) 0.2421(3) 0.4795(6)
C6_5 C 0.2765(4) 1.0000 -0.0000
O3_3 O 0.3616(5) 0.7610(3) 0.2591(6)
C10_3 C 0.3224(5) 0.7811(3) 0.3371(7)
C11_3 C 0.2730(6) 0.8642(3) 0.3335(10)
H5_3 H 0.2542 0.8466 0.4429
C12_3 C 0.3252(5) 0.9137(3) 0.0097(10)
C13_3 C 0.3370(6) 0.8613(3) 0.0854(8)
H7_3 H 0.3622 0.8429 0.0258
C14_3 C 0.3108(5) 0.8365(3) 0.2507(8)
C15_3 C 0.2618(7) 0.9169(4) 0.2614(10)
H8_3 H 0.2367 0.9352 0.3225
C16_3 C 0.2887(5) 0.9431(3) 0.0925(10)
O5_3 O 0.2935(5) 0.7579(3) 0.4795(6)
O1_4 O 0.2390(3) 0.6384(3) 0.0742(6)
C3_4 C 0.0863(3) 0.6748(3) 0.3236(10)
H2_3 H 0.0705 0.6573 0.4347
F1_3 F 0.0713(3) 0.7695(3) 0.5843(10)
F2_3 F 0.0036(4) 0.8136(2) 0.5309(12)
C4_4 C 0.1387(3) 0.6630(4) 0.2479(8)
H3_4 H 0.1571 0.6378 0.3075
C5_4 C 0.1635(3) 0.6892(3) 0.0826(8)
C6_6 C 0.0000 0.7235(4) 0.3333
C7_4 C 0.0831(4) 0.7382(4) 0.0719(10)
H4_4 H 0.0648 0.7633 0.0108
C8_4 C 0.0569(3) 0.7113(3) 0.2408(10)
F3_3 F 0.0976(3) 0.8442(2) 0.3747(12)
C9_3 C 0.0424(5) 0.7874(4) 0.4591(17)
O6_3 O 0.2935(3) 0.5356(4) 0.1871(6)
C1_4 C 0.2189(3) 0.6776(3) 0.9962(7)
C2_4 C 0.1358(3) 0.7270(4) 0.9998(10)
H1_4 H 0.1534 0.7458 0.8904
O2_2 O 0.2421(3) 0.7065(3) 0.8538(6)
C6_7 C 1.0000 0.7235(4) 0.3333
C10_4 C 0.7811(3) 0.4587(4) 0.6705(7)
C11_4 C 0.8642(3) 0.5912(5) 0.6669(10)
H5_4 H 0.8466 0.5924 0.7763
C12_4 C 0.9137(3) 0.5885(4) 0.3431(10)
H6_3 H 0.9295 0.5868 0.2320
F4_3 F 0.9287(3) 0.6982(4) 0.0824(10)
F5_3 F 0.9964(4) 0.8100(4) 0.1358(12)
C13_4 C 0.8613(3) 0.5243(5) 0.4188(8)
H7_4 H 0.8429 0.4807 0.3592
C14_4 C 0.8365(3) 0.5257(4) 0.5841(8)
C15_4 C 0.9169(4) 0.6551(6) 0.5948(10)
H8_4 H 0.9352 0.6985 0.6559
C16_4 C 0.9431(3) 0.6544(4) 0.4259(10)
F6_3 F 0.9024(3) 0.7466(4) 0.2920(12)
C17_3 C 0.9576(5) 0.7450(6) 0.2076(17)
C10_5 C 0.5413(4) 0.3224(5) 0.0038(7)
C11_5 C 0.4088(5) 0.2730(6) 0.0002(10)
H5_5 H 0.4076 0.2542 0.1096
O1_5 O 0.3616(3) 0.6006(4) 0.4075(6)
C1_5 C 0.3224(3) 0.5413(4) 0.3295(7)
C2_5 C 0.2730(4) 0.4088(5) 0.3331(10)
H1_5 H 0.2542 0.4076 0.2237
C3_5 C 0.3252(3) 0.4115(4) 0.6569(10)
H2_4 H 0.3427 0.4132 0.7680
F1_4 F 0.2305(3) 0.3018(4) 0.9176(10)
F2_4 F 0.1864(2) 0.1900(4) 0.8642(12)
C4_5 C 0.3370(4) 0.4757(5) 0.5812(8)
H3_5 H 0.3622 0.5193 0.6408
C5_5 C 0.3108(3) 0.4743(4) 0.4159(8)
C6_8 C 0.2765(4) 0.2765(4) 0.6666
C7_5 C 0.2618(4) 0.3449(6) 0.4052(10)
H4_5 H 0.2367 0.3015 0.3441
C8_5 C 0.2887(3) 0.3456(4) 0.5741(10)
F3_4 F 0.1558(2) 0.2534(4) 0.7080(12)
C9_4 C 0.2126(4) 0.2550(6) 0.7924(17)
C12_5 C 0.4115(4) 0.3252(5) 0.6764(10)
H6_4 H 0.4132 0.3427 0.5653
F4_4 F 0.3018(4) 0.2305(5) 0.4157(10)
F5_4 F 0.1900(4) 0.1864(6) 0.4691(12)
C13_5 C 0.4757(5) 0.3370(6) 0.7521(8)
H7_5 H 0.5193 0.3622 0.6925
C14_5 C 0.4743(4) 0.3108(5) 0.9174(8)
C15_5 C 0.3449(6) 0.2618(7) 0.9281(10)
H8_5 H 0.3015 0.2367 0.9892
C16_5 C 0.3456(4) 0.2887(5) 0.7592(10)
F6_4 F 0.2534(4) 0.1558(5) 0.6253(12)
C17_4 C 0.2550(6) 0.2126(8) 0.5409(17)
O6_4 O 0.4644(4) 0.7579(5) 0.5205(6)
C6_9 C 0.7235(4) 0.0000 -0.0000
C10_6 C 0.6776(5) 0.2189(3) 0.3371(7)
C11_6 C 0.7270(6) 0.1358(3) 0.3335(10)
H5_6 H 0.7458 0.1534 0.4429
C12_6 C 0.6748(5) 0.0863(3) 0.0097(10)
C13_6 C 0.6630(6) 0.1387(3) 0.0854(8)
H7_6 H 0.6378 0.1571 0.0258
C14_6 C 0.6892(5) 0.1635(3) 0.2507(8)
C15_6 C 0.7382(7) 0.0831(4) 0.2614(10)
H8_6 H 0.7633 0.0648 0.3225
C16_6 C 0.7113(5) 0.0569(3) 0.0925(10)
O1_6 O 0.3994(4) 0.7610(3) 0.7409(6)
C1_6 C 0.4587(4) 0.7811(3) 0.6629(7)
C2_6 C 0.5912(5) 0.8642(3) 0.6665(10)
H1_6 H 0.5924 0.8466 0.5571
C3_6 C 0.5885(4) 0.9137(3) 0.9903(10)
C4_6 C 0.5243(5) 0.8613(3) 0.9146(8)
H3_6 H 0.4807 0.8429 0.9742
C5_6 C 0.5257(4) 0.8365(3) 0.7493(8)
C6_10 C 0.7235(4) 1.0000 1.0000
C7_6 C 0.6551(6) 0.9169(4) 0.7386(10)
H4_6 H 0.6985 0.9352 0.6775
C8_6 C 0.6544(4) 0.9431(3) 0.9075(10)
H2_5 H 0.4132 0.0705 0.1014
F1_5 F 0.3018(4) 0.0713(3) 0.2510(10)
F2_5 F 0.1900(4) 0.0036(4) 0.1976(12)
C6_11 C 0.2765(4) 0.0000 -0.0000
F3_5 F 0.2534(4) 0.0976(3) 0.0414(12)
C9_5 C 0.2550(6) 0.0424(5) 0.1258(17)
C6_12 C 0.2765(4) 1.0000 1.0000
H6_5 H 0.3427 0.9295 0.8986
F4_5 F 0.2305(5) 0.9287(3) 0.7490(10)
F5_5 F 0.1864(6) 0.9964(4) 0.8024(12)
F6_5 F 0.1558(5) 0.9024(3) 0.9586(12)
C17_5 C 0.2126(8) 0.9576(5) 0.8742(17)
C6_13 C 0.7235(4) 0.0000 1.0000
H6_6 H 0.6573 0.0705 0.8986
F4_6 F 0.7695(5) 0.0713(3) 0.7490(10)
F5_6 F 0.8136(6) 0.0036(4) 0.8024(12)
F6_6 F 0.8442(5) 0.0976(3) 0.9586(12)
C17_6 C 0.7874(8) 0.0424(5) 0.8742(17)
H2_6 H 0.5868 0.9295 0.1014
F1_6 F 0.6982(4) 0.9287(3) 0.2510(10)
F2_6 F 0.8100(4) 0.9964(4) 0.1976(12)
C6_14 C 0.7235(4) 1.0000 -0.0000
F3_6 F 0.7466(4) 0.9024(3) 0.0414(12)
C9_6 C 0.7450(6) 0.9576(5) 0.1258(17)
loop_
_geom_bond_atom_site_label_1
_geom_bond_atom_site_label_2
_geom_bond_site_symmetry_1
_geom_bond_site_symmetry_2
Zn3_2 O5 1_555 1_555
Zn4 O3 1_555 1_555
O3 C10 1_555 1_555
C10 C14 1_555 1_555
C11 H5 1_555 1_555
C12 H6 1_555 1_555
F4 C17 1_555 1_555
F5 C17 1_555 1_555
C13 C12 1_555 1_555
H7 C13 1_555 1_555
C14 C11 1_555 1_555
C15 C11 1_555 1_555
H8 C15 1_555 1_555
C16 C6 1_555 1_555
F6 C17 1_555 1_555
C17 C6 1_555 1_555
O5 C10 1_555 1_555
C12 C16 1_555 1_555
C13 C14 1_555 1_555
C15 C16 1_555 1_555
Zn1 O1 1_555 1_555
C3 H2 1_555 1_555
F1 C9 1_555 1_555
F2 C9 1_555 1_555
C4 C3 1_555 1_555
H3 C4 1_555 1_555
C6_2 C8 1_555 1_555
H4 C7 1_555 1_555
C8 C3 1_555 1_555
F3 C9 1_555 1_555
C9 C6_2 1_555 1_555
O6 Zn1 1_555 1_555
C4 C5 1_555 1_555
C7 C8 1_555 1_555
C2 H1 1_555 1_555
O2 C1 1_555 1_555
Zn2 O2 1_555 1_555
O4 Zn1_2 1_555 1_555
O7 Zn1_2 1_555 1_555
Zn3_3 O5_2 1_555 1_555
C11_2 H5_2 1_555 1_555
O5_2 C10_2 1_555 1_555
Zn1_3 O1_2 1_555 1_555
O1_2 C1_2 1_555 1_555
C1_2 C5_2 1_555 1_555
C2_2 H1_2 1_555 1_555
C3_2 H2_2 1_555 1_555
F1_2 C9_2 1_555 1_555
F2_2 C9_2 1_555 1_555
C4_2 C3_2 1_555 1_555
H3_2 C4_2 1_555 1_555
C5_2 C2_2 1_555 1_555
C6_3 C8_2 1_555 1_555
C7_2 C2_2 1_555 1_555
H4_2 C7_2 1_555 1_555
C8_2 C3_2 1_555 1_555
F3_2 C9_2 1_555 1_555
C9_2 C6_3 1_555 1_555
O6 C1_2 1_555 1_555
Zn3_2 O3_2 1_555 1_555
O4_2 Zn1_3 1_555 1_555
C12_2 H6_2 1_555 1_555
F4_2 C17_2 1_555 1_555
F5_2 C17_2 1_555 1_555
C13_2 C12_2 1_555 1_555
H7_2 C13_2 1_555 1_555
H8_2 C15_2 1_555 1_555
C16_2 C6_3 1_555 1_555
F6_2 C17_2 1_555 1_555
C17_2 C6_3 1_555 1_555
O6_2 Zn1_3 1_555 1_555
O7_2 Zn1_3 1_555 1_555
C4_2 C5_2 1_555 1_555
C7_2 C8_2 1_555 1_555
C12_2 C16_2 1_555 1_555
C13_2 C14_2 1_555 1_555
C15_2 C16_2 1_555 1_555
Zn2 O1_3 1_555 1_555
O1_3 C1_3 1_555 1_555
C1_3 C5_3 1_555 1_555
C2_3 H1_3 1_555 1_555
C4_3 C3_3 1_555 1_555
H3_3 C4_3 1_555 1_555
C5_3 C2_3 1_555 1_555
C6_4 C8_3 1_555 1_555
C7_3 C2_3 1_555 1_555
H4_3 C7_3 1_555 1_555
C8_3 C3_3 1_555 1_555
O6_2 C1_3 1_555 1_555
O4_3 Zn2 1_555 1_555
O7_3 Zn2 1_555 1_555
C4_3 C5_3 1_555 1_555
C7_3 C8_3 1_555 1_555
Zn4 O5_3 1_555 1_555
Zn3_3 O3_3 1_555 1_555
O3_3 C10_3 1_555 1_555
C10_3 C14_3 1_555 1_555
C11_3 H5_3 1_555 1_555
C13_3 C12_3 1_555 1_555
H7_3 C13_3 1_555 1_555
C14_3 C11_3 1_555 1_555
C15_3 C11_3 1_555 1_555
H8_3 C15_3 1_555 1_555
C16_3 C6_5 1_555 1_555
O5_3 C10_3 1_555 1_555
C12_3 C16_3 1_555 1_555
C13_3 C14_3 1_555 1_555
C15_3 C16_3 1_555 1_555
Zn3 O1_4 1_555 1_555
C3_4 H2_3 1_555 1_555
F1_3 C9_3 1_555 1_555
F2_3 C9_3 1_555 1_555
C4_4 C3_4 1_555 1_555
H3_4 C4_4 1_555 1_555
C6_6 C8_4 1_555 1_555
H4_4 C7_4 1_555 1_555
C8_4 C3_4 1_555 1_555
F3_3 C9_3 1_555 1_555
C9_3 C6_6 1_555 1_555
O6_3 Zn3 1_555 1_555
C4_4 C5_4 1_555 1_555
C7_4 C8_4 1_555 1_555
C2_4 H1_4 1_555 1_555
O2_2 C1_4 1_555 1_555
Zn4 O2_2 1_555 1_555
O4_3 C10_4 1_555 1_555
C10_4 C14_4 1_555 1_555
C11_4 H5_4 1_555 1_555
C12_4 H6_3 1_555 1_555
F4_3 C17_3 1_555 1_555
F5_3 C17_3 1_555 1_555
C13_4 C12_4 1_555 1_555
H7_4 C13_4 1_555 1_555
C14_4 C11_4 1_555 1_555
C15_4 C11_4 1_555 1_555
H8_4 C15_4 1_555 1_555
C16_4 C6_7 1_555 1_555
F6_3 C17_3 1_555 1_555
C17_3 C6_7 1_555 1_555
O7 C10_4 1_555 1_555
C12_4 C16_4 1_555 1_555
C13_4 C14_4 1_555 1_555
C15_4 C16_4 1_555 1_555
C11_5 H5_5 1_555 1_555
O7_2 C10_5 1_555 1_555
Zn3_3 O1_5 1_555 1_555
O1_5 C1_5 1_555 1_555
C1_5 C5_5 1_555 1_555
C2_5 H1_5 1_555 1_555
C3_5 H2_4 1_555 1_555
F1_4 C9_4 1_555 1_555
F2_4 C9_4 1_555 1_555
C4_5 C3_5 1_555 1_555
H3_5 C4_5 1_555 1_555
C5_5 C2_5 1_555 1_555
C6_8 C8_5 1_555 1_555
C7_5 C2_5 1_555 1_555
H4_5 C7_5 1_555 1_555
C8_5 C3_5 1_555 1_555
F3_4 C9_4 1_555 1_555
C9_4 C6_8 1_555 1_555
O6_3 C1_5 1_555 1_555
C12_5 H6_4 1_555 1_555
F4_4 C17_4 1_555 1_555
F5_4 C17_4 1_555 1_555
C13_5 C12_5 1_555 1_555
H7_5 C13_5 1_555 1_555
H8_5 C15_5 1_555 1_555
C16_5 C6_8 1_555 1_555
F6_4 C17_4 1_555 1_555
C17_4 C6_8 1_555 1_555
O6_4 Zn3_3 1_555 1_555
C4_5 C5_5 1_555 1_555
C7_5 C8_5 1_555 1_555
C12_5 C16_5 1_555 1_555
C13_5 C14_5 1_555 1_555
C15_5 C16_5 1_555 1_555
O4_2 C10_6 1_555 1_555
C10_6 C14_6 1_555 1_555
C11_6 H5_6 1_555 1_555
C13_6 C12_6 1_555 1_555
H7_6 C13_6 1_555 1_555
C14_6 C11_6 1_555 1_555
C15_6 C11_6 1_555 1_555
H8_6 C15_6 1_555 1_555
C16_6 C6_9 1_555 1_555
O7_3 C10_6 1_555 1_555
C12_6 C16_6 1_555 1_555
C13_6 C14_6 1_555 1_555
C15_6 C16_6 1_555 1_555
Zn4 O1_6 1_555 1_555
O1_6 C1_6 1_555 1_555
C1_6 C5_6 1_555 1_555
C2_6 H1_6 1_555 1_555
C4_6 C3_6 1_555 1_555
H3_6 C4_6 1_555 1_555
C5_6 C2_6 1_555 1_555
C6_10 C8_6 1_555 1_555
C7_6 C2_6 1_555 1_555
H4_6 C7_6 1_555 1_555
C8_6 C3_6 1_555 1_555
O6_4 C1_6 1_555 1_555
C4_6 C5_6 1_555 1_555
C7_6 C8_6 1_555 1_555
F1_5 C9_5 1_555 1_555
F2_5 C9_5 1_555 1_555
F3_5 C9_5 1_555 1_555
C9_5 C6_11 1_555 1_555
F4_5 C17_5 1_555 1_555
F5_5 C17_5 1_555 1_555
F6_5 C17_5 1_555 1_555
C17_5 C6_12 1_555 1_555
F4_6 C17_6 1_555 1_555
F5_6 C17_6 1_555 1_555
F6_6 C17_6 1_555 1_555
C17_6 C6_13 1_555 1_555
F1_6 C9_6 1_555 1_555
F2_6 C9_6 1_555 1_555
F3_6 C9_6 1_555 1_555
C9_6 C6_14 1_555 1_555

#END
