
###############################################################################
#
# This file contains modified crystal structure data generated from the
# MOF subset of the Cambridge Structural Database (CSD) v543 
# hosted by the Cambridge Crystallographic Data Centre (CCDC).
#
# This work is licensed under the Creative Commons
# Attribution-NonCommercial-ShareAlike 4.0 International License.
# To view a copy of this license, visit
# http://creativecommons.org/licenses/by-nc-sa/4.0/
# or send a letter to
# Creative Commons, PO Box 1866, Mountain View, CA 94042, USA.
#
# CIF created using the CSD Python API on 29 September 2022
# The structure has been converted into the P1 space group
# The structure has a 3D framework
# The original CSD entry PUQYIM is in the orthorhombic crystal system
# The framework has been calculated to contain at least 10.0% void space
# The void calculation uses a probe of radius 1.32A, grid spacing 0.4
#
###############################################################################

data_PUQYIM
_chemical_formula_moiety         '(C160 H96 Co14 N56 O44)n'
_symmetry_cell_setting           triclinic
_symmetry_space_group_name_H-M   'P 1'
_symmetry_Int_Tables_number      1
_space_group_name_Hall           'P 1'
loop_
_symmetry_equiv_pos_site_id
_symmetry_equiv_pos_as_xyz
1 x,y,z
_cell_length_a                   31.5563(7)
_cell_length_b                   15.3304(3)
_cell_length_c                   14.9142(4)
_cell_angle_alpha                90
_cell_angle_beta                 90
_cell_angle_gamma                90
_cell_volume                     7215.05
loop_
_atom_site_label
_atom_site_type_symbol
_atom_site_fract_x
_atom_site_fract_y
_atom_site_fract_z
Co1 Co 0.09584(2) 0.23681(3) 0.36811(3)
Co2 Co -0.0000 0.28114(4) 0.2500
O1 O 0.02783(7) 0.27153(15) 0.38235(15)
N1 N 0.07720(8) 0.15925(17) 0.25721(17)
N2 N 0.04293(8) 0.18116(18) 0.21218(19)
N4 N 0.09575(9) 0.0911(2) 0.2175(2)
N5 N 0.16230(9) 0.2116(2) 0.3487(2)
N6 N 0.03829(10) 0.1300(2) 0.1414(2)
C2 C 0.41228(13) 0.1262(3) 0.0053(3)
C4 C 0.07121(12) 0.0749(2) 0.1464(2)
C5 C 0.18913(13) 0.2792(3) 0.3426(4)
H1 H 0.1797 0.3340 0.3605
C7 C 0.39495(13) 0.0819(3) 0.0877(3)
C8 C 0.21818(15) 0.1202(3) 0.2960(4)
H3 H 0.2278 0.0643 0.2828
C9 C 0.05573(13) 0.0039(3) 0.0013(3)
C10 C 0.22964(15) 0.2713(3) 0.3113(5)
H5 H 0.2472 0.3199 0.3079
C11 C 0.07914(12) 0.0067(3) 0.0806(3)
C12 C 0.17711(13) 0.1346(3) 0.3271(3)
H6 H 0.1592 0.0868 0.3328
C13 C 0.35932(14) 0.1150(3) 0.1282(3)
H7 H 0.3457 0.1632 0.1037
C16 C 0.24407(15) 0.1922(3) 0.2854(4)
C17 C 0.41544(13) 0.0094(3) 0.1232(3)
N7 N 0.30616(12) 0.1058(3) 0.2485(3)
H11 H 0.2938 0.0691 0.2835
O6 O 0.30193(18) 0.2455(4) 0.1993(6)
C18 C 0.34339(13) 0.0764(3) 0.2063(3)
C19 C 0.36337(12) 0.0018(3) 0.2401(3)
C20 C 0.28759(17) 0.1839(4) 0.2410(5)
O13 O 0.10940(8) 0.31179(17) 0.47648(17)
O16 O 0.04240(7) 0.37487(16) 0.21319(19)
O18 O 0.10172(7) 0.34304(16) 0.28651(19)
N16 N 0.09070(9) 0.1268(2) 0.4562(2)
O2 O 0.39060(8) 0.18821(17) 0.97648(17)
O5 O 0.44637(10) 0.0994(2) 0.9731(3)
H4 H 0.0360 0.0471 0.9885
Co4 Co 0.40416(2) 0.26319(3) 0.86811(3)
O3 O 0.45760(7) 0.87487(16) 0.21319(19)
O4 O 0.39828(7) 0.84304(16) 0.28651(19)
C1 C 0.42010(11) 0.8880(2) 0.2365(2)
C3 C 0.39937(11) 0.9688(3) 0.1986(3)
C14 C 0.10953(17) 0.9427(3) 0.0937(3)
H8 H 0.1267 0.9435 0.1444
C15 C 0.11391(15) 0.8775(3) 0.0299(3)
H9 H 0.1343 0.8346 0.0394
H10 H 0.4399 0.9883 0.0962
H12 H 0.3525 0.9742 0.2906
Co9 Co 0.40416(2) 0.73681(3) 0.36811(3)
Co11 Co 0.5000 0.78114(4) 0.2500
N3 N 0.09070(9) 0.8732(2) 0.9562(2)
C6 C 0.06231(12) 0.9362(2) 0.9427(3)
H2 H 0.0461 0.9342 0.8907
Co8 Co 0.09584(2) 0.76319(3) 0.86811(3)
Co2_2 Co 1.0000 0.28114(4) 0.2500
Co3 Co 0.90416(2) 0.23681(3) 0.13189(3)
O7 O 0.97217(7) 0.27153(15) 0.11765(15)
O8 O 0.60940(8) 0.18821(17) 0.52352(17)
N8 N 0.92280(8) 0.15925(17) 0.24279(17)
N9 N 0.95707(8) 0.18116(18) 0.28782(19)
N11 N 0.90425(9) 0.0911(2) 0.2825(2)
N12 N 0.83770(9) 0.2116(2) 0.1513(2)
N13 N 0.96171(10) 0.1300(2) 0.3586(2)
C22 C 0.58772(13) 0.1262(3) 0.4947(3)
C24 C 0.92879(12) 0.0749(2) 0.3536(2)
O11 O 0.55363(10) 0.0994(2) 0.5269(3)
C25 C 0.81087(13) 0.2792(3) 0.1574(4)
H13 H 0.8203 0.3340 0.1395
C27 C 0.60505(13) 0.0819(3) 0.4123(3)
C28 C 0.78182(15) 0.1202(3) 0.2040(4)
H15 H 0.7722 0.0643 0.2172
C29 C 0.94427(13) 0.0039(3) 0.4987(3)
H16 H 0.9640 0.0471 0.5115
C30 C 0.77036(15) 0.2713(3) 0.1887(5)
H17 H 0.7528 0.3199 0.1921
C31 C 0.92086(12) 0.0067(3) 0.4194(3)
C32 C 0.82289(13) 0.1346(3) 0.1729(3)
H18 H 0.8408 0.0868 0.1672
C33 C 0.64068(14) 0.1150(3) 0.3718(3)
H19 H 0.6543 0.1632 0.3963
C36 C 0.75593(15) 0.1922(3) 0.2146(4)
C37 C 0.58456(13) 0.0094(3) 0.3768(3)
N14 N 0.69384(12) 0.1058(3) 0.2515(3)
H23 H 0.7062 0.0691 0.2165
O12 O 0.69807(18) 0.2455(4) 0.3007(6)
C38 C 0.65661(13) 0.0764(3) 0.2937(3)
C39 C 0.63663(12) 0.0018(3) 0.2599(3)
C40 C 0.71241(17) 0.1839(4) 0.2590(5)
Co5 Co 0.59584(2) 0.26319(3) 0.63189(3)
O14 O 0.89060(8) 0.31179(17) 0.02352(17)
O15 O 0.95760(7) 0.37487(16) 0.28681(19)
O17 O 0.89828(7) 0.34304(16) 0.21349(19)
N15 N 0.90930(9) 0.1268(2) 0.0438(2)
O9 O 0.54240(7) 0.87487(16) 0.28681(19)
O10 O 0.60172(7) 0.84304(16) 0.21349(19)
N10 N 0.90930(9) 0.8732(2) 0.5438(2)
C21 C 0.57990(11) 0.8880(2) 0.2635(2)
C23 C 0.60063(11) 0.9688(3) 0.3014(3)
C26 C 0.93769(12) 0.9362(2) 0.5573(3)
H14 H 0.9539 0.9342 0.6093
C34 C 0.89047(17) 0.9427(3) 0.4063(3)
H20 H 0.8733 0.9435 0.3556
C35 C 0.88609(15) 0.8775(3) 0.4701(3)
H21 H 0.8657 0.8346 0.4606
H22 H 0.5601 0.9883 0.4038
H24 H 0.6475 0.9742 0.2094
Co6 Co 0.90416(2) 0.76319(3) 0.63189(3)
Co7 Co 0.59584(2) 0.73681(3) 0.13189(3)
Co10 Co -0.0000 0.71886(4) 0.7500
N10_2 N 0.59070(9) 0.6268(2) 0.0438(2)
O11_2 O 0.94637(10) 0.4006(2) 0.0269(3)
C26_2 C 0.56231(12) 0.5638(2) 0.0573(3)
H14_2 H 0.5461 0.5658 0.1093
H16_2 H 0.5360 0.4529 0.0115
Co2_3 Co 0.5000 0.21886(4) 0.7500
O1_2 O 0.47217(7) 0.22847(15) 0.88235(15)
O3_2 O 0.04240(7) 0.62513(16) 0.71319(19)
O4_2 O 0.10172(7) 0.65696(16) 0.78651(19)
N1_2 N 0.42280(8) 0.34075(17) 0.75721(17)
N2_2 N 0.45707(8) 0.31884(18) 0.71218(19)
N3_2 N 0.40930(9) 0.6268(2) 0.4562(2)
N4_2 N 0.40425(9) 0.4089(2) 0.7175(2)
N5_2 N 0.33770(9) 0.2884(2) 0.8487(2)
N6_2 N 0.46171(10) 0.3700(2) 0.6414(2)
C1_2 C 0.07990(11) 0.6120(2) 0.7365(2)
C2_2 C 0.08772(13) 0.3738(3) 0.5053(3)
C3_2 C 0.10063(11) 0.5312(3) 0.6986(3)
C4_2 C 0.42879(12) 0.4251(2) 0.6464(2)
O5_2 O 0.05363(10) 0.4006(2) 0.4731(3)
C5_2 C 0.31087(13) 0.2208(3) 0.8426(4)
H1_2 H 0.3203 0.1660 0.8605
C6_2 C 0.43769(12) 0.5638(2) 0.4427(3)
H2_2 H 0.4539 0.5658 0.3907
C7_2 C 0.10505(13) 0.4181(3) 0.5877(3)
C8_2 C 0.28182(15) 0.3798(3) 0.7960(4)
H3_2 H 0.2722 0.4357 0.7828
C9_2 C 0.44427(13) 0.4961(3) 0.5013(3)
H4_2 H 0.4640 0.4529 0.4885
C10_2 C 0.27036(15) 0.2287(3) 0.8113(5)
H5_2 H 0.2528 0.1801 0.8079
C11_2 C 0.42086(12) 0.4933(3) 0.5806(3)
C12_2 C 0.32289(13) 0.3654(3) 0.8271(3)
H6_2 H 0.3408 0.4132 0.8328
C13_2 C 0.14068(14) 0.3850(3) 0.6282(3)
H7_2 H 0.1543 0.3368 0.6037
C14_2 C 0.39047(17) 0.5573(3) 0.5937(3)
H8_2 H 0.3733 0.5565 0.6444
C15_2 C 0.38609(15) 0.6225(3) 0.5299(3)
H9_2 H 0.3657 0.6654 0.5394
C16_2 C 0.25593(15) 0.3078(3) 0.7854(4)
C17_2 C 0.08456(13) 0.4906(3) 0.6232(3)
H10_2 H 0.0601 0.5117 0.5962
N7_2 N 0.19384(12) 0.3942(3) 0.7485(3)
H11_2 H 0.2062 0.4309 0.7835
O6_2 O 0.19807(18) 0.2545(4) 0.6993(6)
C18_2 C 0.15661(13) 0.4236(3) 0.7063(3)
C19_2 C 0.13663(12) 0.4982(3) 0.7401(3)
H12_2 H 0.1475 0.5258 0.7906
C20_2 C 0.21241(17) 0.3161(4) 0.7410(5)
O7_2 O 0.52783(7) 0.22847(15) 0.61765(15)
O9_2 O 0.95760(7) 0.62513(16) 0.78681(19)
O10_2 O 0.89828(7) 0.65696(16) 0.71349(19)
N8_2 N 0.57720(8) 0.34075(17) 0.74279(17)
N9_2 N 0.54293(8) 0.31884(18) 0.78782(19)
N11_2 N 0.59575(9) 0.4089(2) 0.7825(2)
N12_2 N 0.66230(9) 0.2884(2) 0.6513(2)
N13_2 N 0.53829(10) 0.3700(2) 0.8586(2)
C21_2 C 0.92010(11) 0.6120(2) 0.7635(2)
C22_2 C 0.91228(13) 0.3738(3) 0.9947(3)
C23_2 C 0.89937(11) 0.5312(3) 0.8014(3)
C24_2 C 0.57121(12) 0.4251(2) 0.8536(2)
C25_2 C 0.68913(13) 0.2208(3) 0.6574(4)
H13_2 H 0.6797 0.1660 0.6395
C27_2 C 0.89495(13) 0.4181(3) 0.9123(3)
C28_2 C 0.71818(15) 0.3798(3) 0.7040(4)
H15_2 H 0.7278 0.4357 0.7172
C29_2 C 0.55573(13) 0.4961(3) 0.9987(3)
C30_2 C 0.72964(15) 0.2287(3) 0.6887(5)
H17_2 H 0.7472 0.1801 0.6921
C31_2 C 0.57914(12) 0.4933(3) 0.9194(3)
C32_2 C 0.67711(13) 0.3654(3) 0.6729(3)
H18_2 H 0.6592 0.4132 0.6672
C33_2 C 0.85932(14) 0.3850(3) 0.8718(3)
H19_2 H 0.8457 0.3368 0.8963
C34_2 C 0.60953(17) 0.5573(3) 0.9063(3)
H20_2 H 0.6267 0.5565 0.8556
C35_2 C 0.61391(15) 0.6225(3) 0.9701(3)
H21_2 H 0.6343 0.6654 0.9606
C36_2 C 0.74407(15) 0.3078(3) 0.7146(4)
C37_2 C 0.91544(13) 0.4906(3) 0.8768(3)
H22_2 H 0.9399 0.5117 0.9038
N14_2 N 0.80616(12) 0.3942(3) 0.7515(3)
H23_2 H 0.7938 0.4309 0.7165
O12_2 O 0.80193(18) 0.2545(4) 0.8007(6)
C38_2 C 0.84339(13) 0.4236(3) 0.7937(3)
C39_2 C 0.86337(12) 0.4982(3) 0.7599(3)
H24_2 H 0.8525 0.5258 0.7094
C40_2 C 0.78759(17) 0.3161(4) 0.7590(5)
Co10_2 Co 1.0000 0.71886(4) 0.7500
O15_2 O 0.54240(7) 0.12513(16) 0.78681(19)
O16_2 O 0.45760(7) 0.12513(16) 0.71319(19)
O17_2 O 0.60172(7) 0.15696(16) 0.71349(19)
O18_2 O 0.39828(7) 0.15696(16) 0.78651(19)
N15_2 N 0.59070(9) 0.3732(2) 0.5438(2)
N16_2 N 0.40930(9) 0.3732(2) 0.9562(2)
C21_3 C 0.42010(11) 0.1120(2) 0.7365(2)
C23_3 C 0.39937(11) 0.0312(3) 0.6986(3)
C26_3 C 0.06231(12) 0.0638(2) 0.4427(3)
H14_3 H 0.0461 0.0658 0.3907
C34_3 C 0.10953(17) 0.0573(3) 0.5937(3)
H20_3 H 0.1267 0.0565 0.6444
C35_3 C 0.11391(15) 0.1225(3) 0.5299(3)
H21_3 H 0.1343 0.1654 0.5394
H22_3 H 0.4399 0.0117 0.5962
H24_3 H 0.3525 0.0258 0.7906
O7_3 O 0.02783(7) 0.72847(15) 0.88235(15)
O8_2 O 0.39060(8) 0.81179(17) 0.47648(17)
N8_3 N 0.07720(8) 0.84075(17) 0.75721(17)
N9_3 N 0.04293(8) 0.81884(18) 0.71218(19)
N11_3 N 0.09575(9) 0.9089(2) 0.7175(2)
N12_3 N 0.16230(9) 0.7884(2) 0.8487(2)
N13_3 N 0.03829(10) 0.8700(2) 0.6414(2)
C22_3 C 0.41228(13) 0.8738(3) 0.5053(3)
C24_3 C 0.07121(12) 0.9251(2) 0.6464(2)
O11_3 O 0.44637(10) 0.9006(2) 0.4731(3)
C25_3 C 0.18913(13) 0.7208(3) 0.8426(4)
H13_3 H 0.1797 0.6660 0.8605
C27_3 C 0.39495(13) 0.9181(3) 0.5877(3)
C28_3 C 0.21818(15) 0.8798(3) 0.7960(4)
H15_3 H 0.2278 0.9357 0.7828
C29_3 C 0.05573(13) 0.9961(3) 0.5013(3)
H16_3 H 0.0360 0.9529 0.4885
C30_3 C 0.22964(15) 0.7287(3) 0.8113(5)
H17_3 H 0.2472 0.6801 0.8079
C31_3 C 0.07914(12) 0.9933(3) 0.5806(3)
C32_3 C 0.17711(13) 0.8654(3) 0.8271(3)
H18_3 H 0.1592 0.9132 0.8328
C33_3 C 0.35932(14) 0.8850(3) 0.6282(3)
H19_3 H 0.3457 0.8368 0.6037
C36_3 C 0.24407(15) 0.8078(3) 0.7854(4)
C37_3 C 0.41544(13) 0.9906(3) 0.6232(3)
N14_3 N 0.30616(12) 0.8942(3) 0.7485(3)
H23_3 H 0.2938 0.9309 0.7835
O12_3 O 0.30193(18) 0.7545(4) 0.6993(6)
C38_3 C 0.34339(13) 0.9236(3) 0.7063(3)
C39_3 C 0.36337(12) 0.9982(3) 0.7401(3)
C40_3 C 0.28759(17) 0.8161(4) 0.7410(5)
O14_2 O 0.10940(8) 0.68821(17) 0.97648(17)
C6_3 C 0.93769(12) 0.0638(2) 0.0573(3)
H2_3 H 0.9539 0.0658 0.1093
C1_3 C 0.57990(11) 0.1120(2) 0.7635(2)
C3_3 C 0.60063(11) 0.0312(3) 0.8014(3)
C14_3 C 0.89047(17) 0.0573(3) 0.9063(3)
H8_3 H 0.8733 0.0565 0.8556
C15_3 C 0.88609(15) 0.1225(3) 0.9701(3)
H9_3 H 0.8657 0.1654 0.9606
H10_3 H 0.5601 0.0117 0.9038
H12_3 H 0.6475 0.0258 0.7094
O2_2 O 0.60940(8) 0.81179(17) 0.02352(17)
O5_3 O 0.55363(10) 0.9006(2) 0.0269(3)
H4_3 H 0.9640 0.9529 0.0115
O1_3 O 0.97217(7) 0.72847(15) 0.61765(15)
N1_3 N 0.92280(8) 0.84075(17) 0.74279(17)
N2_3 N 0.95707(8) 0.81884(18) 0.78782(19)
N4_3 N 0.90425(9) 0.9089(2) 0.7825(2)
N5_3 N 0.83770(9) 0.7884(2) 0.6513(2)
N6_3 N 0.96171(10) 0.8700(2) 0.8586(2)
C2_3 C 0.58772(13) 0.8738(3) 0.9947(3)
C4_3 C 0.92879(12) 0.9251(2) 0.8536(2)
C5_3 C 0.81087(13) 0.7208(3) 0.6574(4)
H1_3 H 0.8203 0.6660 0.6395
C7_3 C 0.60505(13) 0.9181(3) 0.9123(3)
C8_3 C 0.78182(15) 0.8798(3) 0.7040(4)
H3_3 H 0.7722 0.9357 0.7172
C9_3 C 0.94427(13) 0.9961(3) 0.9987(3)
C10_3 C 0.77036(15) 0.7287(3) 0.6887(5)
H5_3 H 0.7528 0.6801 0.6921
C11_3 C 0.92086(12) 0.9933(3) 0.9194(3)
C12_3 C 0.82289(13) 0.8654(3) 0.6729(3)
H6_3 H 0.8408 0.9132 0.6672
C13_3 C 0.64068(14) 0.8850(3) 0.8718(3)
H7_3 H 0.6543 0.8368 0.8963
C16_3 C 0.75593(15) 0.8078(3) 0.7146(4)
C17_3 C 0.58456(13) 0.9906(3) 0.8768(3)
N7_3 N 0.69384(12) 0.8942(3) 0.7515(3)
H11_3 H 0.7062 0.9309 0.7165
O6_3 O 0.69807(18) 0.7545(4) 0.8007(6)
C18_3 C 0.65661(13) 0.9236(3) 0.7937(3)
C19_3 C 0.63663(12) 0.9982(3) 0.7599(3)
C20_3 C 0.71241(17) 0.8161(4) 0.7590(5)
O13_2 O 0.89060(8) 0.68821(17) 0.52352(17)
O1_4 O 0.52783(7) 0.77153(15) 0.11765(15)
N1_4 N 0.57720(8) 0.65925(17) 0.24279(17)
N2_4 N 0.54293(8) 0.68116(18) 0.28782(19)
N4_4 N 0.59575(9) 0.5911(2) 0.2825(2)
N5_4 N 0.66230(9) 0.7116(2) 0.1513(2)
N6_4 N 0.53829(10) 0.6300(2) 0.3586(2)
C1_4 C 0.92010(11) 0.3880(2) 0.2635(2)
C2_4 C 0.91228(13) 0.6262(3) 0.4947(3)
C3_4 C 0.89937(11) 0.4688(3) 0.3014(3)
C4_4 C 0.57121(12) 0.5749(2) 0.3536(2)
O5_4 O 0.94637(10) 0.5994(2) 0.5269(3)
C5_4 C 0.68913(13) 0.7792(3) 0.1574(4)
H1_4 H 0.6797 0.8340 0.1395
C6_4 C 0.56231(12) 0.4362(2) 0.5573(3)
H2_4 H 0.5461 0.4342 0.6093
C7_4 C 0.89495(13) 0.5819(3) 0.4123(3)
C8_4 C 0.71818(15) 0.6202(3) 0.2040(4)
H3_4 H 0.7278 0.5643 0.2172
C9_4 C 0.55573(13) 0.5039(3) 0.4987(3)
H4_4 H 0.5360 0.5471 0.5115
C10_4 C 0.72964(15) 0.7713(3) 0.1887(5)
H5_4 H 0.7472 0.8199 0.1921
C11_4 C 0.57914(12) 0.5067(3) 0.4194(3)
C12_4 C 0.67711(13) 0.6346(3) 0.1729(3)
H6_4 H 0.6592 0.5868 0.1672
C13_4 C 0.85932(14) 0.6150(3) 0.3718(3)
H7_4 H 0.8457 0.6632 0.3963
C14_4 C 0.60953(17) 0.4427(3) 0.4063(3)
H8_4 H 0.6267 0.4435 0.3556
C15_4 C 0.61391(15) 0.3775(3) 0.4701(3)
H9_4 H 0.6343 0.3346 0.4606
C16_4 C 0.74407(15) 0.6922(3) 0.2146(4)
C17_4 C 0.91544(13) 0.5094(3) 0.3768(3)
H10_4 H 0.9399 0.4883 0.4038
N7_4 N 0.80616(12) 0.6058(3) 0.2515(3)
H11_4 H 0.7938 0.5691 0.2165
O6_4 O 0.80193(18) 0.7455(4) 0.3007(6)
C18_4 C 0.84339(13) 0.5764(3) 0.2937(3)
C19_4 C 0.86337(12) 0.5018(3) 0.2599(3)
H12_4 H 0.8525 0.4742 0.2094
C20_4 C 0.78759(17) 0.6839(4) 0.2590(5)
O7_4 O 0.47217(7) 0.77153(15) 0.38235(15)
N8_4 N 0.42280(8) 0.65925(17) 0.25721(17)
N9_4 N 0.45707(8) 0.68116(18) 0.21218(19)
N11_4 N 0.40425(9) 0.5911(2) 0.2175(2)
N12_4 N 0.33770(9) 0.7116(2) 0.3487(2)
N13_4 N 0.46171(10) 0.6300(2) 0.1414(2)
C21_4 C 0.07990(11) 0.3880(2) 0.2365(2)
C22_4 C 0.08772(13) 0.6262(3) 0.0053(3)
C23_4 C 0.10063(11) 0.4688(3) 0.1986(3)
C24_4 C 0.42879(12) 0.5749(2) 0.1464(2)
C25_4 C 0.31087(13) 0.7792(3) 0.3426(4)
H13_4 H 0.3203 0.8340 0.3605
C27_4 C 0.10505(13) 0.5819(3) 0.0877(3)
C28_4 C 0.28182(15) 0.6202(3) 0.2960(4)
H15_4 H 0.2722 0.5643 0.2828
C29_4 C 0.44427(13) 0.5039(3) 0.0013(3)
C30_4 C 0.27036(15) 0.7713(3) 0.3113(5)
H17_4 H 0.2528 0.8199 0.3079
C31_4 C 0.42086(12) 0.5067(3) 0.0806(3)
C32_4 C 0.32289(13) 0.6346(3) 0.3271(3)
H18_4 H 0.3408 0.5868 0.3328
C33_4 C 0.14068(14) 0.6150(3) 0.1282(3)
H19_4 H 0.1543 0.6632 0.1037
C34_4 C 0.39047(17) 0.4427(3) 0.0937(3)
H20_4 H 0.3733 0.4435 0.1444
C35_4 C 0.38609(15) 0.3775(3) 0.0299(3)
H21_4 H 0.3657 0.3346 0.0394
C36_4 C 0.25593(15) 0.6922(3) 0.2854(4)
C37_4 C 0.08456(13) 0.5094(3) 0.1232(3)
H22_4 H 0.0601 0.4883 0.0962
N14_4 N 0.19384(12) 0.6058(3) 0.2485(3)
H23_4 H 0.2062 0.5691 0.2835
O12_4 O 0.19807(18) 0.7455(4) 0.1993(6)
C38_4 C 0.15661(13) 0.5764(3) 0.2063(3)
C39_4 C 0.13663(12) 0.5018(3) 0.2401(3)
H24_4 H 0.1475 0.4742 0.2906
C40_4 C 0.21241(17) 0.6839(4) 0.2410(5)
O11_4 O 0.05363(10) 0.5994(2) 0.9731(3)
C26_4 C 0.43769(12) 0.4362(2) 0.9427(3)
H14_4 H 0.4539 0.4342 0.8907
H16_4 H 0.4640 0.5471 0.9885
loop_
_geom_bond_atom_site_label_1
_geom_bond_atom_site_label_2
_geom_bond_site_symmetry_1
_geom_bond_site_symmetry_2
Co1 O1 1_555 1_555
Co2 O1 1_555 1_555
N1 Co1 1_555 1_555
N2 Co2 1_555 1_555
N4 N1 1_555 1_555
N5 Co1 1_555 1_555
N6 N2 1_555 1_555
C4 N4 1_555 1_555
C5 N5 1_555 1_555
H1 C5 1_555 1_555
C7 C2 1_555 1_555
C8 H3 1_555 1_555
C10 C5 1_555 1_555
H5 C10 1_555 1_555
C11 C4 1_555 1_555
C12 N5 1_555 1_555
H6 C12 1_555 1_555
C13 C7 1_555 1_555
H7 C13 1_555 1_555
C16 C8 1_555 1_555
C17 C7 1_555 1_555
N7 H11 1_555 1_555
O6 C20 1_555 1_555
C18 C13 1_555 1_555
C20 C16 1_555 1_555
O13 Co1 1_555 1_555
O16 Co2 1_555 1_555
O18 Co1 1_555 1_555
N16 Co1 1_555 1_555
N1 N2 1_555 1_555
N6 C4 1_555 1_555
C8 C12 1_555 1_555
C9 C11 1_555 1_555
C10 C16 1_555 1_555
N7 C18 1_555 1_555
N7 C20 1_555 1_555
C18 C19 1_555 1_555
Co4 O2 1_555 1_555
O3 C1 1_555 1_555
O4 C1 1_555 1_555
C1 C3 1_555 1_555
H8 C14 1_555 1_555
H9 C15 1_555 1_555
Co9 O4 1_555 1_555
Co11 O3 1_555 1_555
C14 C15 1_555 1_555
N3 C6 1_555 1_555
C6 H2 1_555 1_555
Co8 N3 1_555 1_555
Co3 O7 1_555 1_555
O7 Co2_2 1_555 1_555
O8 C22 1_555 1_555
N8 Co3 1_555 1_555
N9 Co2_2 1_555 1_555
N11 N8 1_555 1_555
N12 Co3 1_555 1_555
N13 N9 1_555 1_555
C22 O11 1_555 1_555
C24 N11 1_555 1_555
C25 N12 1_555 1_555
H13 C25 1_555 1_555
C27 C22 1_555 1_555
C28 H15 1_555 1_555
H16 C29 1_555 1_555
C30 C25 1_555 1_555
H17 C30 1_555 1_555
C31 C24 1_555 1_555
C32 N12 1_555 1_555
H18 C32 1_555 1_555
C33 C27 1_555 1_555
H19 C33 1_555 1_555
C36 C28 1_555 1_555
C37 C27 1_555 1_555
N14 H23 1_555 1_555
O12 C40 1_555 1_555
C38 C33 1_555 1_555
C40 C36 1_555 1_555
Co5 O8 1_555 1_555
O14 Co3 1_555 1_555
O15 Co2_2 1_555 1_555
O17 Co3 1_555 1_555
N15 Co3 1_555 1_555
N8 N9 1_555 1_555
N13 C24 1_555 1_555
C28 C32 1_555 1_555
C29 C31 1_555 1_555
C30 C36 1_555 1_555
N14 C38 1_555 1_555
N14 C40 1_555 1_555
C38 C39 1_555 1_555
O9 C21 1_555 1_555
O10 C21 1_555 1_555
N10 C26 1_555 1_555
C21 C23 1_555 1_555
C26 H14 1_555 1_555
H20 C34 1_555 1_555
C35 N10 1_555 1_555
H21 C35 1_555 1_555
Co6 N10 1_555 1_555
Co7 O10 1_555 1_555
Co11 O9 1_555 1_555
C34 C35 1_555 1_555
N10_2 C26_2 1_555 1_555
C26_2 H14_2 1_555 1_555
Co7 N10_2 1_555 1_555
Co4 O1_2 1_555 1_555
Co2_3 O1_2 1_555 1_555
O13 C2_2 1_555 1_555
O3_2 C1_2 1_555 1_555
O4_2 C1_2 1_555 1_555
N1_2 Co4 1_555 1_555
N2_2 Co2_3 1_555 1_555
N3_2 C6_2 1_555 1_555
N4_2 N1_2 1_555 1_555
N5_2 Co4 1_555 1_555
N6_2 N2_2 1_555 1_555
C1_2 C3_2 1_555 1_555
C2_2 O5_2 1_555 1_555
C3_2 C17_2 1_555 1_555
C4_2 N4_2 1_555 1_555
C5_2 N5_2 1_555 1_555
H1_2 C5_2 1_555 1_555
C6_2 H2_2 1_555 1_555
C7_2 C2_2 1_555 1_555
C8_2 H3_2 1_555 1_555
C9_2 C6_2 1_555 1_555
H4_2 C9_2 1_555 1_555
C10_2 C5_2 1_555 1_555
H5_2 C10_2 1_555 1_555
C11_2 C4_2 1_555 1_555
C12_2 N5_2 1_555 1_555
H6_2 C12_2 1_555 1_555
C13_2 C7_2 1_555 1_555
H7_2 C13_2 1_555 1_555
C14_2 C11_2 1_555 1_555
H8_2 C14_2 1_555 1_555
C15_2 N3_2 1_555 1_555
H9_2 C15_2 1_555 1_555
C16_2 C8_2 1_555 1_555
C17_2 C7_2 1_555 1_555
H10_2 C17_2 1_555 1_555
N7_2 H11_2 1_555 1_555
O6_2 C20_2 1_555 1_555
C18_2 C13_2 1_555 1_555
C19_2 C3_2 1_555 1_555
H12_2 C19_2 1_555 1_555
C20_2 C16_2 1_555 1_555
Co5 O7_2 1_555 1_555
O7_2 Co2_3 1_555 1_555
O9_2 C21_2 1_555 1_555
O10_2 C21_2 1_555 1_555
N8_2 Co5 1_555 1_555
N9_2 Co2_3 1_555 1_555
N11_2 N8_2 1_555 1_555
N12_2 Co5 1_555 1_555
N13_2 N9_2 1_555 1_555
C21_2 C23_2 1_555 1_555
C23_2 C37_2 1_555 1_555
C24_2 N11_2 1_555 1_555
C25_2 N12_2 1_555 1_555
H13_2 C25_2 1_555 1_555
C27_2 C22_2 1_555 1_555
C28_2 H15_2 1_555 1_555
C30_2 C25_2 1_555 1_555
H17_2 C30_2 1_555 1_555
C31_2 C24_2 1_555 1_555
C32_2 N12_2 1_555 1_555
H18_2 C32_2 1_555 1_555
C33_2 C27_2 1_555 1_555
H19_2 C33_2 1_555 1_555
C34_2 C31_2 1_555 1_555
H20_2 C34_2 1_555 1_555
H21_2 C35_2 1_555 1_555
C36_2 C28_2 1_555 1_555
C37_2 C27_2 1_555 1_555
H22_2 C37_2 1_555 1_555
N14_2 H23_2 1_555 1_555
O12_2 C40_2 1_555 1_555
C38_2 C33_2 1_555 1_555
C39_2 C23_2 1_555 1_555
H24_2 C39_2 1_555 1_555
C40_2 C36_2 1_555 1_555
Co6 O10_2 1_555 1_555
Co9 N3_2 1_555 1_555
Co8 O4_2 1_555 1_555
Co10_2 O9_2 1_555 1_555
Co10 O3_2 1_555 1_555
O15_2 Co2_3 1_555 1_555
O16_2 Co2_3 1_555 1_555
O17_2 Co5 1_555 1_555
O18_2 Co4 1_555 1_555
N15_2 Co5 1_555 1_555
N16_2 Co4 1_555 1_555
N1_2 N2_2 1_555 1_555
N6_2 C4_2 1_555 1_555
C8_2 C12_2 1_555 1_555
C9_2 C11_2 1_555 1_555
C10_2 C16_2 1_555 1_555
C14_2 C15_2 1_555 1_555
N7_2 C18_2 1_555 1_555
N7_2 C20_2 1_555 1_555
C18_2 C19_2 1_555 1_555
N8_2 N9_2 1_555 1_555
N13_2 C24_2 1_555 1_555
C28_2 C32_2 1_555 1_555
C29_2 C31_2 1_555 1_555
C30_2 C36_2 1_555 1_555
C34_2 C35_2 1_555 1_555
N14_2 C38_2 1_555 1_555
N14_2 C40_2 1_555 1_555
C38_2 C39_2 1_555 1_555
O16_2 C21_3 1_555 1_555
O18_2 C21_3 1_555 1_555
N16 C26_3 1_555 1_555
C21_3 C23_3 1_555 1_555
C26_3 H14_3 1_555 1_555
H20_3 C34_3 1_555 1_555
C35_3 N16 1_555 1_555
H21_3 C35_3 1_555 1_555
C34_3 C35_3 1_555 1_555
Co8 O7_3 1_555 1_555
O7_3 Co10 1_555 1_555
O8_2 C22_3 1_555 1_555
N8_3 Co8 1_555 1_555
N9_3 Co10 1_555 1_555
N11_3 N8_3 1_555 1_555
N12_3 Co8 1_555 1_555
N13_3 N9_3 1_555 1_555
C22_3 O11_3 1_555 1_555
C24_3 N11_3 1_555 1_555
C25_3 N12_3 1_555 1_555
H13_3 C25_3 1_555 1_555
C27_3 C22_3 1_555 1_555
C28_3 H15_3 1_555 1_555
H16_3 C29_3 1_555 1_555
C30_3 C25_3 1_555 1_555
H17_3 C30_3 1_555 1_555
C31_3 C24_3 1_555 1_555
C32_3 N12_3 1_555 1_555
H18_3 C32_3 1_555 1_555
C33_3 C27_3 1_555 1_555
H19_3 C33_3 1_555 1_555
C36_3 C28_3 1_555 1_555
C37_3 C27_3 1_555 1_555
N14_3 H23_3 1_555 1_555
O12_3 C40_3 1_555 1_555
C38_3 C33_3 1_555 1_555
C40_3 C36_3 1_555 1_555
Co9 O8_2 1_555 1_555
O14_2 Co8 1_555 1_555
N8_3 N9_3 1_555 1_555
N13_3 C24_3 1_555 1_555
C28_3 C32_3 1_555 1_555
C29_3 C31_3 1_555 1_555
C30_3 C36_3 1_555 1_555
N14_3 C38_3 1_555 1_555
N14_3 C40_3 1_555 1_555
C38_3 C39_3 1_555 1_555
N15 C6_3 1_555 1_555
C6_3 H2_3 1_555 1_555
O15_2 C1_3 1_555 1_555
O17_2 C1_3 1_555 1_555
C1_3 C3_3 1_555 1_555
H8_3 C14_3 1_555 1_555
H9_3 C15_3 1_555 1_555
C14_3 C15_3 1_555 1_555
Co7 O2_2 1_555 1_555
Co6 O1_3 1_555 1_555
Co10_2 O1_3 1_555 1_555
N1_3 Co6 1_555 1_555
N2_3 Co10_2 1_555 1_555
N4_3 N1_3 1_555 1_555
N5_3 Co6 1_555 1_555
N6_3 N2_3 1_555 1_555
C4_3 N4_3 1_555 1_555
C5_3 N5_3 1_555 1_555
H1_3 C5_3 1_555 1_555
C7_3 C2_3 1_555 1_555
C8_3 H3_3 1_555 1_555
C10_3 C5_3 1_555 1_555
H5_3 C10_3 1_555 1_555
C11_3 C4_3 1_555 1_555
C12_3 N5_3 1_555 1_555
H6_3 C12_3 1_555 1_555
C13_3 C7_3 1_555 1_555
H7_3 C13_3 1_555 1_555
C16_3 C8_3 1_555 1_555
C17_3 C7_3 1_555 1_555
N7_3 H11_3 1_555 1_555
O6_3 C20_3 1_555 1_555
C18_3 C13_3 1_555 1_555
C20_3 C16_3 1_555 1_555
O13_2 Co6 1_555 1_555
N1_3 N2_3 1_555 1_555
N6_3 C4_3 1_555 1_555
C8_3 C12_3 1_555 1_555
C9_3 C11_3 1_555 1_555
C10_3 C16_3 1_555 1_555
N7_3 C18_3 1_555 1_555
N7_3 C20_3 1_555 1_555
C18_3 C19_3 1_555 1_555
Co7 O1_4 1_555 1_555
Co11 O1_4 1_555 1_555
O13_2 C2_4 1_555 1_555
O15 C1_4 1_555 1_555
O17 C1_4 1_555 1_555
N1_4 Co7 1_555 1_555
N2_4 Co11 1_555 1_555
N15_2 C6_4 1_555 1_555
N4_4 N1_4 1_555 1_555
N5_4 Co7 1_555 1_555
N6_4 N2_4 1_555 1_555
C1_4 C3_4 1_555 1_555
C2_4 O5_4 1_555 1_555
C3_4 C17_4 1_555 1_555
C4_4 N4_4 1_555 1_555
C5_4 N5_4 1_555 1_555
H1_4 C5_4 1_555 1_555
C6_4 H2_4 1_555 1_555
C7_4 C2_4 1_555 1_555
C8_4 H3_4 1_555 1_555
C9_4 C6_4 1_555 1_555
H4_4 C9_4 1_555 1_555
C10_4 C5_4 1_555 1_555
H5_4 C10_4 1_555 1_555
C11_4 C4_4 1_555 1_555
C12_4 N5_4 1_555 1_555
H6_4 C12_4 1_555 1_555
C13_4 C7_4 1_555 1_555
H7_4 C13_4 1_555 1_555
C14_4 C11_4 1_555 1_555
H8_4 C14_4 1_555 1_555
C15_4 N15_2 1_555 1_555
H9_4 C15_4 1_555 1_555
C16_4 C8_4 1_555 1_555
C17_4 C7_4 1_555 1_555
H10_4 C17_4 1_555 1_555
N7_4 H11_4 1_555 1_555
O6_4 C20_4 1_555 1_555
C18_4 C13_4 1_555 1_555
C19_4 C3_4 1_555 1_555
H12_4 C19_4 1_555 1_555
C20_4 C16_4 1_555 1_555
Co9 O7_4 1_555 1_555
O7_4 Co11 1_555 1_555
O16 C21_4 1_555 1_555
O18 C21_4 1_555 1_555
N8_4 Co9 1_555 1_555
N9_4 Co11 1_555 1_555
N11_4 N8_4 1_555 1_555
N12_4 Co9 1_555 1_555
N13_4 N9_4 1_555 1_555
C21_4 C23_4 1_555 1_555
C23_4 C37_4 1_555 1_555
C24_4 N11_4 1_555 1_555
C25_4 N12_4 1_555 1_555
H13_4 C25_4 1_555 1_555
C27_4 C22_4 1_555 1_555
C28_4 H15_4 1_555 1_555
C30_4 C25_4 1_555 1_555
H17_4 C30_4 1_555 1_555
C31_4 C24_4 1_555 1_555
C32_4 N12_4 1_555 1_555
H18_4 C32_4 1_555 1_555
C33_4 C27_4 1_555 1_555
H19_4 C33_4 1_555 1_555
C34_4 C31_4 1_555 1_555
H20_4 C34_4 1_555 1_555
H21_4 C35_4 1_555 1_555
C36_4 C28_4 1_555 1_555
C37_4 C27_4 1_555 1_555
H22_4 C37_4 1_555 1_555
N14_4 H23_4 1_555 1_555
O12_4 C40_4 1_555 1_555
C38_4 C33_4 1_555 1_555
C39_4 C23_4 1_555 1_555
H24_4 C39_4 1_555 1_555
C40_4 C36_4 1_555 1_555
N1_4 N2_4 1_555 1_555
N6_4 C4_4 1_555 1_555
C8_4 C12_4 1_555 1_555
C9_4 C11_4 1_555 1_555
C10_4 C16_4 1_555 1_555
C14_4 C15_4 1_555 1_555
N7_4 C18_4 1_555 1_555
N7_4 C20_4 1_555 1_555
C18_4 C19_4 1_555 1_555
N8_4 N9_4 1_555 1_555
N13_4 C24_4 1_555 1_555
C28_4 C32_4 1_555 1_555
C29_4 C31_4 1_555 1_555
C30_4 C36_4 1_555 1_555
C34_4 C35_4 1_555 1_555
N14_4 C38_4 1_555 1_555
N14_4 C40_4 1_555 1_555
C38_4 C39_4 1_555 1_555
N16_2 C26_4 1_555 1_555
C26_4 H14_4 1_555 1_555

#END
