
###############################################################################
#
# This file contains modified crystal structure data generated from the
# MOF subset of the Cambridge Structural Database (CSD) v543 
# hosted by the Cambridge Crystallographic Data Centre (CCDC).
#
# This work is licensed under the Creative Commons
# Attribution-NonCommercial-ShareAlike 4.0 International License.
# To view a copy of this license, visit
# http://creativecommons.org/licenses/by-nc-sa/4.0/
# or send a letter to
# Creative Commons, PO Box 1866, Mountain View, CA 94042, USA.
#
# CIF created using the CSD Python API on 29 September 2022
# The structure has been converted into the P1 space group
# The structure has a 3D framework
# The original CSD entry PUQZIN is in the orthorhombic crystal system
# The framework has been calculated to contain at least 10.0% void space
# The void calculation uses a probe of radius 1.32A, grid spacing 0.4
#
###############################################################################

data_PUQZIN
_chemical_formula_moiety         '(C192 H112 Co8 F16 N16 O30)n'
_symmetry_cell_setting           triclinic
_symmetry_space_group_name_H-M   'P 1'
_symmetry_Int_Tables_number      1
_space_group_name_Hall           'P 1'
loop_
_symmetry_equiv_pos_site_id
_symmetry_equiv_pos_as_xyz
1 x,y,z
_cell_length_a                   17.2108(10)
_cell_length_b                   15.7433(10)
_cell_length_c                   18.3370(11)
_cell_angle_alpha                90
_cell_angle_beta                 90
_cell_angle_gamma                90
_cell_volume                     4968.5
loop_
_atom_site_label
_atom_site_type_symbol
_atom_site_fract_x
_atom_site_fract_y
_atom_site_fract_z
O5 O 0.2198(2) 0.1332(2) 0.03644(18)
Co6 Co 0.09092(3) 0.14509(3) 0.06428(2)
Co1 Co 0.59127(3) 0.10111(3) 0.70566(2)
Co2 Co 0.40908(3) 0.14509(3) 0.56428(2)
O1 O 0.51954(17) 0.15315(19) 0.52835(18)
O2 O 0.6125(2) 0.0999(2) 0.5983(2)
O3 O 0.3874(2) 0.15308(19) 0.67040(17)
O4 O 0.48038(18) 0.09681(18) 0.74074(18)
O6 O 0.1291(2) 0.1380(3) 0.9555(2)
O7 O 0.8720(2) 0.0987(2) 0.31434(19)
O8 O 0.7796(2) 0.1024(2) 0.23264(18)
N3 N 0.41411(17) 0.0081(2) 0.5723(2)
C33 C 0.5866(2) 0.1245(3) 0.5388(2)
C34 C 0.6396(2) 0.1154(3) 0.4750(2)
C35 C 0.6127(3) 0.1243(3) 0.4042(2)
H21 H 0.5606 0.1364 0.3955
C36 C 0.6653(3) 0.1149(3) 0.3448(2)
H22 H 0.6474 0.1169 0.2970
C37 C 0.7425(3) 0.1031(2) 0.3590(2)
C38 C 0.7687(3) 0.0950(4) 0.4291(3)
H23 H 0.8212 0.0857 0.4379
C39 C 0.7169(3) 0.1007(3) 0.4876(3)
H24 H 0.7350 0.0945 0.5351
C40 C 0.4145(2) 0.1256(3) 0.7304(2)
C41 C 0.1980(3) 0.1337(3) 0.9721(3)
C42 C 0.2565(3) 0.1294(3) 0.9105(2)
C43 C 0.3353(3) 0.1145(3) 0.9222(2)
H25 H 0.3536 0.1058 0.9694
C44 C 0.3863(3) 0.1124(3) 0.8646(3)
H26 H 0.4388 0.1026 0.8731
C45 C 0.3603(2) 0.1249(3) 0.7944(2)
C46 C 0.2823(3) 0.1425(4) 0.7833(3)
H27 H 0.2648 0.1549 0.7365
C47 C 0.2306(3) 0.1421(4) 0.8400(3)
H28 H 0.1779 0.1503 0.8310
C48 C 0.7992(3) 0.1007(2) 0.2976(3)
Co4 Co 0.90873(3) 0.10111(3) 0.20566(2)
O9 O 0.2802(2) 0.1332(2) 0.53644(18)
O10 O 0.3709(2) 0.1380(3) 0.4555(2)
O11 O 0.6280(2) 0.0987(2) 0.81434(19)
O12 O 0.7204(2) 0.1024(2) 0.73264(18)
N5 N 0.59242(18) 0.2383(2) 0.7053(3)
N6 N 0.40357(18) 0.2824(2) 0.5625(3)
F1 F 0.6137(4) 0.6784(3) 0.5683(3)
F2 F 0.5687(5) 0.5235(3) 0.8284(3)
F3 F 0.3804(3) 0.7223(2) 0.70052(19)
F4 F 0.4309(3) 0.5690(2) 0.4425(2)
N1 N 0.58919(17) 0.9655(2) 0.6995(2)
C1 C 0.6337(2) 0.9206(3) 0.6538(3)
H1 H 0.6658 0.9506 0.6222
C2 C 0.6354(2) 0.8334(3) 0.6502(2)
H2 H 0.6682 0.8061 0.6173
C3 C 0.5879(3) 0.7865(3) 0.6961(3)
C4 C 0.5404(3) 0.8322(3) 0.7436(3)
H3 H 0.5070 0.8035 0.7750
C5 C 0.5427(3) 0.9196(3) 0.7443(3)
H4 H 0.5109 0.9485 0.7770
C6 C 0.5889(2) 0.6930(3) 0.6970(3)
C7 C 0.6018(4) 0.6428(3) 0.6338(4)
C8 C 0.6055(3) 0.5558(3) 0.6349(3)
H5 H 0.6177 0.5263 0.5924
C9 C 0.5909(3) 0.5103(3) 0.7005(4)
C10 C 0.5771(4) 0.5598(4) 0.7597(3)
C11 C 0.5739(4) 0.6468(4) 0.7593(4)
H6 H 0.5614 0.6754 0.8021
C12 C 0.5444(3) 0.2845(3) 0.7474(3)
H7 H 0.5111 0.2564 0.7792
C13 C 0.5429(4) 0.3710(4) 0.7452(5)
H8 H 0.5072 0.3998 0.7742
C14 C 0.5922(3) 0.4172(3) 0.7017(4)
C15 C 0.6434(4) 0.3704(3) 0.6615(3)
H9 H 0.6805 0.3980 0.6332
C16 C 0.6411(3) 0.2837(3) 0.6621(3)
H10 H 0.6747 0.2542 0.6314
C17 C 0.4622(3) 0.9617(3) 0.5312(3)
H11 H 0.4972 0.9902 0.5013
C18 C 0.4630(3) 0.8741(3) 0.5305(3)
H12 H 0.4974 0.8450 0.5004
C19 C 0.4119(2) 0.8296(3) 0.5753(3)
C20 C 0.3627(2) 0.8787(3) 0.6217(3)
H13 H 0.3289 0.8525 0.6544
C21 C 0.3668(2) 0.9671(2) 0.6167(2)
H14 H 0.3342 0.9990 0.6464
C22 C 0.4093(2) 0.7364(3) 0.5740(3)
C23 C 0.4253(4) 0.6929(3) 0.5082(3)
H15 H 0.4394 0.7229 0.4666
C24 C 0.4199(4) 0.6049(3) 0.5065(4)
C25 C 0.4051(3) 0.5554(3) 0.5658(4)
C26 C 0.3891(3) 0.5987(3) 0.6317(3)
H16 H 0.3761 0.5683 0.6734
C27 C 0.3926(3) 0.6853(3) 0.6338(3)
C28 C 0.4043(2) 0.4617(3) 0.5659(4)
C29 C 0.4567(4) 0.4158(4) 0.5229(4)
H17 H 0.4939 0.4441 0.4953
C30 C 0.3513(3) 0.4124(3) 0.6046(4)
H18 H 0.3128 0.4394 0.6316
C31 C 0.4528(3) 0.3281(3) 0.5218(3)
H19 H 0.4863 0.2990 0.4908
C32 C 0.3538(3) 0.3266(3) 0.6040(3)
H20 H 0.3194 0.2969 0.6338
O3_2 O 0.1126(2) 0.15308(19) 0.17040(17)
O4_2 O 0.01962(18) 0.09681(18) 0.24074(18)
N3_2 N 0.08589(17) 0.0081(2) 0.0723(2)
C40_2 C 0.0855(2) 0.1256(3) 0.2304(2)
C41_2 C 0.3020(3) 0.1337(3) 0.4721(3)
C42_2 C 0.2435(3) 0.1294(3) 0.4105(2)
C43_2 C 0.1647(3) 0.1145(3) 0.4222(2)
H25_2 H 0.1464 0.1058 0.4694
C44_2 C 0.1137(3) 0.1124(3) 0.3646(3)
H26_2 H 0.0612 0.1026 0.3731
C45_2 C 0.1397(2) 0.1249(3) 0.2944(2)
C46_2 C 0.2177(3) 0.1425(4) 0.2833(3)
H27_2 H 0.2352 0.1549 0.2365
C47_2 C 0.2694(3) 0.1421(4) 0.3400(3)
H28_2 H 0.3221 0.1503 0.3310
N6_2 N 0.09643(18) 0.2824(2) 0.0625(3)
F3_2 F 0.1196(3) 0.7223(2) 0.20052(19)
C17_2 C 0.0378(3) 0.9617(3) 0.0312(3)
H11_2 H 0.0028 0.9902 0.0013
C18_2 C 0.0370(3) 0.8741(3) 0.0305(3)
H12_2 H 0.0026 0.8450 0.0004
C19_2 C 0.0881(2) 0.8296(3) 0.0753(3)
C20_2 C 0.1373(2) 0.8787(3) 0.1217(3)
H13_2 H 0.1711 0.8525 0.1544
C21_2 C 0.1332(2) 0.9671(2) 0.1167(2)
H14_2 H 0.1658 0.9990 0.1464
C22_2 C 0.0907(2) 0.7364(3) 0.0740(3)
C23_2 C 0.0747(4) 0.6929(3) 0.0082(3)
C24_2 C 0.0801(4) 0.6049(3) 0.0065(4)
C25_2 C 0.0949(3) 0.5554(3) 0.0658(4)
C26_2 C 0.1109(3) 0.5987(3) 0.1317(3)
H16_2 H 0.1239 0.5683 0.1734
C27_2 C 0.1074(3) 0.6853(3) 0.1338(3)
C28_2 C 0.0957(2) 0.4617(3) 0.0659(4)
C29_2 C 0.0433(4) 0.4158(4) 0.0229(4)
C30_2 C 0.1487(3) 0.4124(3) 0.1046(4)
H18_2 H 0.1872 0.4394 0.1316
C31_2 C 0.0472(3) 0.3281(3) 0.0218(3)
C32_2 C 0.1462(3) 0.3266(3) 0.1040(3)
H20_2 H 0.1806 0.2969 0.1338
O1_2 O 0.98046(17) 0.15315(19) 0.02835(18)
O2_2 O 0.8875(2) 0.0999(2) 0.0983(2)
C33_2 C 0.9134(2) 0.1245(3) 0.0388(2)
H24_2 H 0.7650 0.0945 0.0351
N5_2 N 0.90758(18) 0.2383(2) 0.2053(3)
C34_2 C 0.8604(2) 0.1154(3) 0.9750(2)
C35_2 C 0.8873(3) 0.1243(3) 0.9042(2)
H21_2 H 0.9394 0.1364 0.8955
C36_2 C 0.8347(3) 0.1149(3) 0.8448(2)
H22_2 H 0.8526 0.1169 0.7970
C37_2 C 0.7575(3) 0.1031(2) 0.8590(2)
C38_2 C 0.7313(3) 0.0950(4) 0.9291(3)
H23_2 H 0.6788 0.0857 0.9379
C39_2 C 0.7831(3) 0.1007(3) 0.9876(3)
C48_2 C 0.7008(3) 0.1007(2) 0.7976(3)
F1_2 F 0.8863(4) 0.6784(3) 0.0683(3)
F2_2 F 0.9313(5) 0.5235(3) 0.3284(3)
N1_2 N 0.91081(17) 0.9655(2) 0.1995(2)
C1_2 C 0.8663(2) 0.9206(3) 0.1538(3)
H1_2 H 0.8342 0.9506 0.1222
C2_2 C 0.8646(2) 0.8334(3) 0.1502(2)
H2_2 H 0.8318 0.8061 0.1173
C3_2 C 0.9121(3) 0.7865(3) 0.1961(3)
C4_2 C 0.9596(3) 0.8322(3) 0.2436(3)
H3_2 H 0.9930 0.8035 0.2750
C5_2 C 0.9573(3) 0.9196(3) 0.2443(3)
H4_2 H 0.9891 0.9485 0.2770
C6_2 C 0.9111(2) 0.6930(3) 0.1970(3)
C7_2 C 0.8982(4) 0.6428(3) 0.1338(4)
C8_2 C 0.8945(3) 0.5558(3) 0.1349(3)
H5_2 H 0.8823 0.5263 0.0924
C9_2 C 0.9091(3) 0.5103(3) 0.2005(4)
C10_2 C 0.9229(4) 0.5598(4) 0.2597(3)
C11_2 C 0.9261(4) 0.6468(4) 0.2593(4)
H6_2 H 0.9386 0.6754 0.3021
C12_2 C 0.9556(3) 0.2845(3) 0.2474(3)
H7_2 H 0.9889 0.2564 0.2792
C13_2 C 0.9571(4) 0.3710(4) 0.2452(5)
H8_2 H 0.9928 0.3998 0.2742
C14_2 C 0.9078(3) 0.4172(3) 0.2017(4)
C15_2 C 0.8566(4) 0.3704(3) 0.1615(3)
H9_2 H 0.8195 0.3980 0.1332
C16_2 C 0.8589(3) 0.2837(3) 0.1621(3)
H10_2 H 0.8253 0.2542 0.1314
F1_3 F 0.3863(4) 0.3216(3) 0.0683(3)
F2_3 F 0.4313(5) 0.4765(3) 0.3284(3)
F3_3 F 0.6196(3) 0.2777(2) 0.20052(19)
N1_3 N 0.41081(17) 0.0345(2) 0.1995(2)
N2 N 0.40758(18) 0.7617(2) 0.2053(3)
N4 N 0.59643(18) 0.7176(2) 0.0625(3)
C1_3 C 0.3663(2) 0.0794(3) 0.1538(3)
H1_3 H 0.3342 0.0494 0.1222
C2_3 C 0.3646(2) 0.1666(3) 0.1502(2)
H2_3 H 0.3318 0.1939 0.1173
C3_3 C 0.4121(3) 0.2135(3) 0.1961(3)
C4_3 C 0.4596(3) 0.1678(3) 0.2436(3)
H3_3 H 0.4930 0.1965 0.2750
C5_3 C 0.4573(3) 0.0804(3) 0.2443(3)
H4_3 H 0.4891 0.0515 0.2770
C6_3 C 0.4111(2) 0.3070(3) 0.1970(3)
C7_3 C 0.3982(4) 0.3572(3) 0.1338(4)
C8_3 C 0.3945(3) 0.4442(3) 0.1349(3)
H5_3 H 0.3823 0.4737 0.0924
C9_3 C 0.4091(3) 0.4897(3) 0.2005(4)
C10_3 C 0.4229(4) 0.4402(4) 0.2597(3)
C11_3 C 0.4261(4) 0.3532(4) 0.2593(4)
H6_3 H 0.4386 0.3246 0.3021
C12_3 C 0.4556(3) 0.7155(3) 0.2474(3)
H7_3 H 0.4889 0.7436 0.2792
C13_3 C 0.4571(4) 0.6290(4) 0.2452(5)
H8_3 H 0.4928 0.6002 0.2742
C14_3 C 0.4078(3) 0.5828(3) 0.2017(4)
C15_3 C 0.3566(4) 0.6296(3) 0.1615(3)
H9_3 H 0.3195 0.6020 0.1332
C16_3 C 0.3589(3) 0.7163(3) 0.1621(3)
H10_3 H 0.3253 0.7458 0.1314
C17_3 C 0.5378(3) 0.0383(3) 0.0312(3)
H11_3 H 0.5028 0.0098 0.0013
C18_3 C 0.5370(3) 0.1259(3) 0.0305(3)
H12_3 H 0.5026 0.1550 0.0004
C19_3 C 0.5881(2) 0.1704(3) 0.0753(3)
C20_3 C 0.6373(2) 0.1213(3) 0.1217(3)
H13_3 H 0.6711 0.1475 0.1544
C21_3 C 0.6332(2) 0.0329(2) 0.1167(2)
H14_3 H 0.6658 0.0010 0.1464
C22_3 C 0.5907(2) 0.2636(3) 0.0740(3)
C23_3 C 0.5747(4) 0.3071(3) 0.0082(3)
C24_3 C 0.5801(4) 0.3951(3) 0.0065(4)
C25_3 C 0.5949(3) 0.4446(3) 0.0658(4)
C26_3 C 0.6109(3) 0.4013(3) 0.1317(3)
H16_3 H 0.6239 0.4317 0.1734
C27_3 C 0.6074(3) 0.3147(3) 0.1338(3)
C28_3 C 0.5957(2) 0.5383(3) 0.0659(4)
C29_3 C 0.5433(4) 0.5842(4) 0.0229(4)
C30_3 C 0.6487(3) 0.5876(3) 0.1046(4)
H18_3 H 0.6872 0.5606 0.1316
C31_3 C 0.5472(3) 0.6719(3) 0.0218(3)
C32_3 C 0.6462(3) 0.6734(3) 0.1040(3)
H20_3 H 0.6806 0.7031 0.1338
Co3 Co 0.40873(3) 0.89889(3) 0.20566(2)
Co5 Co 0.59092(3) 0.85491(3) 0.06428(2)
O1_3 O 0.48046(17) 0.84685(19) 0.02835(18)
O2_3 O 0.3875(2) 0.9001(2) 0.0983(2)
O3_3 O 0.6126(2) 0.84692(19) 0.17040(17)
O4_3 O 0.51962(18) 0.90319(18) 0.24074(18)
O5_2 O 0.7802(2) 0.8668(2) 0.53644(18)
O6_2 O 0.8709(2) 0.8620(3) 0.4555(2)
N3_3 N 0.58589(17) 0.9919(2) 0.0723(2)
C33_3 C 0.4134(2) 0.8755(3) 0.0388(2)
H24_3 H 0.2650 0.9055 0.0351
C40_3 C 0.5855(2) 0.8744(3) 0.2304(2)
C41_3 C 0.8020(3) 0.8663(3) 0.4721(3)
C42_3 C 0.7435(3) 0.8706(3) 0.4105(2)
C43_3 C 0.6647(3) 0.8855(3) 0.4222(2)
H25_3 H 0.6464 0.8942 0.4694
C44_3 C 0.6137(3) 0.8876(3) 0.3646(3)
H26_3 H 0.5612 0.8974 0.3731
C45_3 C 0.6397(2) 0.8751(3) 0.2944(2)
C46_3 C 0.7177(3) 0.8575(4) 0.2833(3)
H27_3 H 0.7352 0.8451 0.2365
C47_3 C 0.7694(3) 0.8579(4) 0.3400(3)
H28_3 H 0.8221 0.8497 0.3310
Co6_2 Co 0.90908(3) 0.85491(3) 0.56428(2)
O9_2 O 0.7198(2) 0.8668(2) 0.03644(18)
O11_2 O 0.3720(2) 0.9013(2) 0.31434(19)
O12_2 O 0.2796(2) 0.8976(2) 0.23264(18)
O7_2 O 0.1280(2) 0.9013(2) 0.81434(19)
O8_2 O 0.2204(2) 0.8976(2) 0.73264(18)
C34_3 C 0.3604(2) 0.8846(3) 0.9750(2)
C35_3 C 0.3873(3) 0.8757(3) 0.9042(2)
H21_3 H 0.4394 0.8636 0.8955
C36_3 C 0.3347(3) 0.8851(3) 0.8448(2)
H22_3 H 0.3526 0.8831 0.7970
C37_3 C 0.2575(3) 0.8969(2) 0.8590(2)
C38_3 C 0.2313(3) 0.9050(4) 0.9291(3)
H23_3 H 0.1788 0.9143 0.9379
C39_3 C 0.2831(3) 0.8993(3) 0.9876(3)
C48_3 C 0.2008(3) 0.8993(2) 0.7976(3)
Co4_2 Co 0.09127(3) 0.89889(3) 0.70566(2)
O10_2 O 0.6291(2) 0.8620(3) 0.9555(2)
F1_4 F 0.1137(4) 0.3216(3) 0.5683(3)
F2_4 F 0.0687(5) 0.4765(3) 0.8284(3)
N1_4 N 0.08919(17) 0.0345(2) 0.6995(2)
N2_2 N 0.09242(18) 0.7617(2) 0.7053(3)
C1_4 C 0.1337(2) 0.0794(3) 0.6538(3)
H1_4 H 0.1658 0.0494 0.6222
C2_4 C 0.1354(2) 0.1666(3) 0.6502(2)
H2_4 H 0.1682 0.1939 0.6173
C3_4 C 0.0879(3) 0.2135(3) 0.6961(3)
C4_4 C 0.0404(3) 0.1678(3) 0.7436(3)
H3_4 H 0.0070 0.1965 0.7750
C5_4 C 0.0427(3) 0.0804(3) 0.7443(3)
H4_4 H 0.0109 0.0515 0.7770
C6_4 C 0.0889(2) 0.3070(3) 0.6970(3)
C7_4 C 0.1018(4) 0.3572(3) 0.6338(4)
C8_4 C 0.1055(3) 0.4442(3) 0.6349(3)
H5_4 H 0.1177 0.4737 0.5924
C9_4 C 0.0909(3) 0.4897(3) 0.7005(4)
C10_4 C 0.0771(4) 0.4402(4) 0.7597(3)
C11_4 C 0.0739(4) 0.3532(4) 0.7593(4)
H6_4 H 0.0614 0.3246 0.8021
C12_4 C 0.0444(3) 0.7155(3) 0.7474(3)
H7_4 H 0.0111 0.7436 0.7792
C13_4 C 0.0429(4) 0.6290(4) 0.7452(5)
H8_4 H 0.0072 0.6002 0.7742
C14_4 C 0.0922(3) 0.5828(3) 0.7017(4)
C15_4 C 0.1434(4) 0.6296(3) 0.6615(3)
H9_4 H 0.1805 0.6020 0.6332
C16_4 C 0.1411(3) 0.7163(3) 0.6621(3)
H10_4 H 0.1747 0.7458 0.6314
O1_4 O 0.01954(17) 0.84685(19) 0.52835(18)
O2_4 O 0.1125(2) 0.9001(2) 0.5983(2)
C33_4 C 0.0866(2) 0.8755(3) 0.5388(2)
C34_4 C 0.1396(2) 0.8846(3) 0.4750(2)
C35_4 C 0.1127(3) 0.8757(3) 0.4042(2)
H21_4 H 0.0606 0.8636 0.3955
C36_4 C 0.1653(3) 0.8851(3) 0.3448(2)
H22_4 H 0.1474 0.8831 0.2970
C37_4 C 0.2425(3) 0.8969(2) 0.3590(2)
C38_4 C 0.2687(3) 0.9050(4) 0.4291(3)
H23_4 H 0.3212 0.9143 0.4379
C39_4 C 0.2169(3) 0.8993(3) 0.4876(3)
H24_4 H 0.2350 0.9055 0.5351
C48_4 C 0.2992(3) 0.8993(2) 0.2976(3)
F3_4 F 0.8804(3) 0.2777(2) 0.70052(19)
F4_2 F 0.9309(3) 0.4310(2) 0.4425(2)
N4_2 N 0.90357(18) 0.7176(2) 0.5625(3)
C17_4 C 0.9622(3) 0.0383(3) 0.5312(3)
H11_4 H 0.9972 0.0098 0.5013
C18_4 C 0.9630(3) 0.1259(3) 0.5305(3)
H12_4 H 0.9974 0.1550 0.5004
C19_4 C 0.9119(2) 0.1704(3) 0.5753(3)
C20_4 C 0.8627(2) 0.1213(3) 0.6217(3)
H13_4 H 0.8289 0.1475 0.6544
C21_4 C 0.8668(2) 0.0329(2) 0.6167(2)
H14_4 H 0.8342 0.0010 0.6464
C22_4 C 0.9093(2) 0.2636(3) 0.5740(3)
C23_4 C 0.9253(4) 0.3071(3) 0.5082(3)
H15_2 H 0.9394 0.2771 0.4666
C24_4 C 0.9199(4) 0.3951(3) 0.5065(4)
C25_4 C 0.9051(3) 0.4446(3) 0.5658(4)
C26_4 C 0.8891(3) 0.4013(3) 0.6317(3)
H16_4 H 0.8761 0.4317 0.6734
C27_4 C 0.8926(3) 0.3147(3) 0.6338(3)
C28_4 C 0.9043(2) 0.5383(3) 0.5659(4)
C29_4 C 0.9567(4) 0.5842(4) 0.5229(4)
H17_2 H 0.9939 0.5559 0.4953
C30_4 C 0.8513(3) 0.5876(3) 0.6046(4)
H18_4 H 0.8128 0.5606 0.6316
C31_4 C 0.9528(3) 0.6719(3) 0.5218(3)
H19_2 H 0.9863 0.7010 0.4908
C32_4 C 0.8538(3) 0.6734(3) 0.6040(3)
H20_4 H 0.8194 0.7031 0.6338
O3_4 O 0.8874(2) 0.84692(19) 0.67040(17)
O4_4 O 0.98038(18) 0.90319(18) 0.74074(18)
N3_4 N 0.91411(17) 0.9919(2) 0.5723(2)
C40_4 C 0.9145(2) 0.8744(3) 0.7304(2)
C41_4 C 0.6980(3) 0.8663(3) 0.9721(3)
C42_4 C 0.7565(3) 0.8706(3) 0.9105(2)
C43_4 C 0.8353(3) 0.8855(3) 0.9222(2)
H25_4 H 0.8536 0.8942 0.9694
C44_4 C 0.8863(3) 0.8876(3) 0.8646(3)
H26_4 H 0.9388 0.8974 0.8731
C45_4 C 0.8603(2) 0.8751(3) 0.7944(2)
C46_4 C 0.7823(3) 0.8575(4) 0.7833(3)
H27_4 H 0.7648 0.8451 0.7365
C47_4 C 0.7306(3) 0.8579(4) 0.8400(3)
H28_4 H 0.6779 0.8497 0.8310
F4_3 F 0.5691(3) 0.4310(2) 0.9425(2)
H15_3 H 0.5606 0.2771 0.9666
H17_3 H 0.5061 0.5559 0.9953
H19_3 H 0.5137 0.7010 0.9908
F4_4 F 0.0691(3) 0.5690(2) 0.9425(2)
H15_4 H 0.0606 0.7229 0.9666
H17_4 H 0.0061 0.4441 0.9953
H19_4 H 0.0137 0.2990 0.9908
loop_
_geom_bond_atom_site_label_1
_geom_bond_atom_site_label_2
_geom_bond_site_symmetry_1
_geom_bond_site_symmetry_2
Co6 O5 1_555 1_555
Co1 O2 1_555 1_555
Co2 O1 1_555 1_555
O1 C33 1_555 1_555
O2 C33 1_555 1_555
O3 Co2 1_555 1_555
O4 Co1 1_555 1_555
O6 C41 1_555 1_555
O7 C48 1_555 1_555
O8 C48 1_555 1_555
N3 Co2 1_555 1_555
C33 C34 1_555 1_555
C34 C35 1_555 1_555
C35 H21 1_555 1_555
C36 C35 1_555 1_555
H22 C36 1_555 1_555
C37 C36 1_555 1_555
C38 C37 1_555 1_555
H23 C38 1_555 1_555
C39 C34 1_555 1_555
H24 C39 1_555 1_555
C40 O3 1_555 1_555
C41 C42 1_555 1_555
C42 C43 1_555 1_555
C43 H25 1_555 1_555
C44 C43 1_555 1_555
H26 C44 1_555 1_555
C45 C40 1_555 1_555
C46 C45 1_555 1_555
H27 C46 1_555 1_555
C47 C42 1_555 1_555
H28 C47 1_555 1_555
C48 C37 1_555 1_555
Co4 O7 1_555 1_555
O9 Co2 1_555 1_555
O10 Co2 1_555 1_555
O11 Co1 1_555 1_555
O12 Co1 1_555 1_555
N5 Co1 1_555 1_555
N6 Co2 1_555 1_555
O4 C40 1_555 1_555
O8 Co4 1_555 1_555
C38 C39 1_555 1_555
C44 C45 1_555 1_555
C46 C47 1_555 1_555
F1 C7 1_555 1_555
F2 C10 1_555 1_555
F3 C27 1_555 1_555
F4 C24 1_555 1_555
N5 C12 1_555 1_555
N6 C31 1_555 1_555
C1 N1 1_555 1_555
H1 C1 1_555 1_555
C2 C1 1_555 1_555
H2 C2 1_555 1_555
C3 C2 1_555 1_555
C4 C3 1_555 1_555
H3 C4 1_555 1_555
C5 N1 1_555 1_555
H4 C5 1_555 1_555
C6 C3 1_555 1_555
C7 C6 1_555 1_555
C8 C7 1_555 1_555
H5 C8 1_555 1_555
C9 C8 1_555 1_555
C10 C9 1_555 1_555
C11 C6 1_555 1_555
H6 C11 1_555 1_555
C12 H7 1_555 1_555
C13 C12 1_555 1_555
H8 C13 1_555 1_555
C14 C9 1_555 1_555
C15 C14 1_555 1_555
H9 C15 1_555 1_555
C16 N5 1_555 1_555
H10 C16 1_555 1_555
H11 C17 1_555 1_555
C18 C17 1_555 1_555
H12 C18 1_555 1_555
C19 C18 1_555 1_555
C20 C19 1_555 1_555
H13 C20 1_555 1_555
H14 C21 1_555 1_555
C22 C19 1_555 1_555
C23 C22 1_555 1_555
H15 C23 1_555 1_555
C24 C23 1_555 1_555
C25 C24 1_555 1_555
C26 C25 1_555 1_555
H16 C26 1_555 1_555
C27 C22 1_555 1_555
C28 C25 1_555 1_555
C29 C28 1_555 1_555
H17 C29 1_555 1_555
C30 C28 1_555 1_555
H18 C30 1_555 1_555
C31 C29 1_555 1_555
H19 C31 1_555 1_555
C32 N6 1_555 1_555
H20 C32 1_555 1_555
C4 C5 1_555 1_555
C10 C11 1_555 1_555
C13 C14 1_555 1_555
C15 C16 1_555 1_555
C20 C21 1_555 1_555
C26 C27 1_555 1_555
C30 C32 1_555 1_555
O3_2 Co6 1_555 1_555
O9 C41_2 1_555 1_555
O10 C41_2 1_555 1_555
N3_2 Co6 1_555 1_555
C40_2 O3_2 1_555 1_555
C41_2 C42_2 1_555 1_555
C42_2 C43_2 1_555 1_555
C43_2 H25_2 1_555 1_555
C44_2 C43_2 1_555 1_555
H26_2 C44_2 1_555 1_555
C45_2 C40_2 1_555 1_555
C46_2 C45_2 1_555 1_555
H27_2 C46_2 1_555 1_555
C47_2 C42_2 1_555 1_555
H28_2 C47_2 1_555 1_555
N6_2 Co6 1_555 1_555
O4_2 C40_2 1_555 1_555
C44_2 C45_2 1_555 1_555
C46_2 C47_2 1_555 1_555
F3_2 C27_2 1_555 1_555
N6_2 C31_2 1_555 1_555
H11_2 C17_2 1_555 1_555
C18_2 C17_2 1_555 1_555
H12_2 C18_2 1_555 1_555
C19_2 C18_2 1_555 1_555
C20_2 C19_2 1_555 1_555
H13_2 C20_2 1_555 1_555
H14_2 C21_2 1_555 1_555
C22_2 C19_2 1_555 1_555
C23_2 C22_2 1_555 1_555
C24_2 C23_2 1_555 1_555
C25_2 C24_2 1_555 1_555
C26_2 C25_2 1_555 1_555
H16_2 C26_2 1_555 1_555
C27_2 C22_2 1_555 1_555
C28_2 C25_2 1_555 1_555
C29_2 C28_2 1_555 1_555
C30_2 C28_2 1_555 1_555
H18_2 C30_2 1_555 1_555
C31_2 C29_2 1_555 1_555
C32_2 N6_2 1_555 1_555
H20_2 C32_2 1_555 1_555
C20_2 C21_2 1_555 1_555
C26_2 C27_2 1_555 1_555
C30_2 C32_2 1_555 1_555
Co4 O2_2 1_555 1_555
O1_2 C33_2 1_555 1_555
O2_2 C33_2 1_555 1_555
N5_2 Co4 1_555 1_555
O11 C48_2 1_555 1_555
O12 C48_2 1_555 1_555
C34_2 C35_2 1_555 1_555
C35_2 H21_2 1_555 1_555
C36_2 C35_2 1_555 1_555
H22_2 C36_2 1_555 1_555
C37_2 C36_2 1_555 1_555
C38_2 C37_2 1_555 1_555
H23_2 C38_2 1_555 1_555
C39_2 C34_2 1_555 1_555
C48_2 C37_2 1_555 1_555
C38_2 C39_2 1_555 1_555
F1_2 C7_2 1_555 1_555
F2_2 C10_2 1_555 1_555
N5_2 C12_2 1_555 1_555
C1_2 N1_2 1_555 1_555
H1_2 C1_2 1_555 1_555
C2_2 C1_2 1_555 1_555
H2_2 C2_2 1_555 1_555
C3_2 C2_2 1_555 1_555
C4_2 C3_2 1_555 1_555
H3_2 C4_2 1_555 1_555
C5_2 N1_2 1_555 1_555
H4_2 C5_2 1_555 1_555
C6_2 C3_2 1_555 1_555
C7_2 C6_2 1_555 1_555
C8_2 C7_2 1_555 1_555
H5_2 C8_2 1_555 1_555
C9_2 C8_2 1_555 1_555
C10_2 C9_2 1_555 1_555
C11_2 C6_2 1_555 1_555
H6_2 C11_2 1_555 1_555
C12_2 H7_2 1_555 1_555
C13_2 C12_2 1_555 1_555
H8_2 C13_2 1_555 1_555
C14_2 C9_2 1_555 1_555
C15_2 C14_2 1_555 1_555
H9_2 C15_2 1_555 1_555
C16_2 N5_2 1_555 1_555
H10_2 C16_2 1_555 1_555
C4_2 C5_2 1_555 1_555
C10_2 C11_2 1_555 1_555
C13_2 C14_2 1_555 1_555
C15_2 C16_2 1_555 1_555
F1_3 C7_3 1_555 1_555
F2_3 C10_3 1_555 1_555
F3_3 C27_3 1_555 1_555
N2 C12_3 1_555 1_555
N4 C31_3 1_555 1_555
C1_3 N1_3 1_555 1_555
H1_3 C1_3 1_555 1_555
C2_3 C1_3 1_555 1_555
H2_3 C2_3 1_555 1_555
C3_3 C2_3 1_555 1_555
C4_3 C3_3 1_555 1_555
H3_3 C4_3 1_555 1_555
C5_3 N1_3 1_555 1_555
H4_3 C5_3 1_555 1_555
C6_3 C3_3 1_555 1_555
C7_3 C6_3 1_555 1_555
C8_3 C7_3 1_555 1_555
H5_3 C8_3 1_555 1_555
C9_3 C8_3 1_555 1_555
C10_3 C9_3 1_555 1_555
C11_3 C6_3 1_555 1_555
H6_3 C11_3 1_555 1_555
C12_3 H7_3 1_555 1_555
C13_3 C12_3 1_555 1_555
H8_3 C13_3 1_555 1_555
C14_3 C9_3 1_555 1_555
C15_3 C14_3 1_555 1_555
H9_3 C15_3 1_555 1_555
C16_3 N2 1_555 1_555
H10_3 C16_3 1_555 1_555
H11_3 C17_3 1_555 1_555
C18_3 C17_3 1_555 1_555
H12_3 C18_3 1_555 1_555
C19_3 C18_3 1_555 1_555
C20_3 C19_3 1_555 1_555
H13_3 C20_3 1_555 1_555
H14_3 C21_3 1_555 1_555
C22_3 C19_3 1_555 1_555
C23_3 C22_3 1_555 1_555
C24_3 C23_3 1_555 1_555
C25_3 C24_3 1_555 1_555
C26_3 C25_3 1_555 1_555
H16_3 C26_3 1_555 1_555
C27_3 C22_3 1_555 1_555
C28_3 C25_3 1_555 1_555
C29_3 C28_3 1_555 1_555
C30_3 C28_3 1_555 1_555
H18_3 C30_3 1_555 1_555
C31_3 C29_3 1_555 1_555
C32_3 N4 1_555 1_555
H20_3 C32_3 1_555 1_555
Co3 N2 1_555 1_555
Co5 N4 1_555 1_555
C4_3 C5_3 1_555 1_555
C10_3 C11_3 1_555 1_555
C13_3 C14_3 1_555 1_555
C15_3 C16_3 1_555 1_555
C20_3 C21_3 1_555 1_555
C26_3 C27_3 1_555 1_555
C30_3 C32_3 1_555 1_555
Co3 O2_3 1_555 1_555
Co5 O1_3 1_555 1_555
O1_3 C33_3 1_555 1_555
O2_3 C33_3 1_555 1_555
O3_3 Co5 1_555 1_555
O4_3 Co3 1_555 1_555
O5_2 C41_3 1_555 1_555
O6_2 C41_3 1_555 1_555
N3_3 Co5 1_555 1_555
C40_3 O3_3 1_555 1_555
C41_3 C42_3 1_555 1_555
C42_3 C43_3 1_555 1_555
C43_3 H25_3 1_555 1_555
C44_3 C43_3 1_555 1_555
H26_3 C44_3 1_555 1_555
C45_3 C40_3 1_555 1_555
C46_3 C45_3 1_555 1_555
H27_3 C46_3 1_555 1_555
C47_3 C42_3 1_555 1_555
H28_3 C47_3 1_555 1_555
Co6_2 O5_2 1_555 1_555
O9_2 Co5 1_555 1_555
O11_2 Co3 1_555 1_555
O12_2 Co3 1_555 1_555
O4_3 C40_3 1_555 1_555
O6_2 Co6_2 1_555 1_555
C44_3 C45_3 1_555 1_555
C46_3 C47_3 1_555 1_555
O7_2 C48_3 1_555 1_555
O8_2 C48_3 1_555 1_555
C34_3 C35_3 1_555 1_555
C35_3 H21_3 1_555 1_555
C36_3 C35_3 1_555 1_555
H22_3 C36_3 1_555 1_555
C37_3 C36_3 1_555 1_555
C38_3 C37_3 1_555 1_555
H23_3 C38_3 1_555 1_555
C39_3 C34_3 1_555 1_555
C48_3 C37_3 1_555 1_555
Co4_2 O7_2 1_555 1_555
O8_2 Co4_2 1_555 1_555
C38_3 C39_3 1_555 1_555
F1_4 C7_4 1_555 1_555
F2_4 C10_4 1_555 1_555
N2_2 C12_4 1_555 1_555
C1_4 N1_4 1_555 1_555
H1_4 C1_4 1_555 1_555
C2_4 C1_4 1_555 1_555
H2_4 C2_4 1_555 1_555
C3_4 C2_4 1_555 1_555
C4_4 C3_4 1_555 1_555
H3_4 C4_4 1_555 1_555
C5_4 N1_4 1_555 1_555
H4_4 C5_4 1_555 1_555
C6_4 C3_4 1_555 1_555
C7_4 C6_4 1_555 1_555
C8_4 C7_4 1_555 1_555
H5_4 C8_4 1_555 1_555
C9_4 C8_4 1_555 1_555
C10_4 C9_4 1_555 1_555
C11_4 C6_4 1_555 1_555
H6_4 C11_4 1_555 1_555
C12_4 H7_4 1_555 1_555
C13_4 C12_4 1_555 1_555
H8_4 C13_4 1_555 1_555
C14_4 C9_4 1_555 1_555
C15_4 C14_4 1_555 1_555
H9_4 C15_4 1_555 1_555
C16_4 N2_2 1_555 1_555
H10_4 C16_4 1_555 1_555
Co4_2 N2_2 1_555 1_555
C4_4 C5_4 1_555 1_555
C10_4 C11_4 1_555 1_555
C13_4 C14_4 1_555 1_555
C15_4 C16_4 1_555 1_555
Co4_2 O2_4 1_555 1_555
O1_4 C33_4 1_555 1_555
O2_4 C33_4 1_555 1_555
O11_2 C48_4 1_555 1_555
O12_2 C48_4 1_555 1_555
C33_4 C34_4 1_555 1_555
C34_4 C35_4 1_555 1_555
C35_4 H21_4 1_555 1_555
C36_4 C35_4 1_555 1_555
H22_4 C36_4 1_555 1_555
C37_4 C36_4 1_555 1_555
C38_4 C37_4 1_555 1_555
H23_4 C38_4 1_555 1_555
C39_4 C34_4 1_555 1_555
H24_4 C39_4 1_555 1_555
C48_4 C37_4 1_555 1_555
C38_4 C39_4 1_555 1_555
F3_4 C27_4 1_555 1_555
F4_2 C24_4 1_555 1_555
N4_2 C31_4 1_555 1_555
H11_4 C17_4 1_555 1_555
C18_4 C17_4 1_555 1_555
H12_4 C18_4 1_555 1_555
C19_4 C18_4 1_555 1_555
C20_4 C19_4 1_555 1_555
H13_4 C20_4 1_555 1_555
H14_4 C21_4 1_555 1_555
C22_4 C19_4 1_555 1_555
C23_4 C22_4 1_555 1_555
H15_2 C23_4 1_555 1_555
C24_4 C23_4 1_555 1_555
C25_4 C24_4 1_555 1_555
C26_4 C25_4 1_555 1_555
H16_4 C26_4 1_555 1_555
C27_4 C22_4 1_555 1_555
C28_4 C25_4 1_555 1_555
C29_4 C28_4 1_555 1_555
H17_2 C29_4 1_555 1_555
C30_4 C28_4 1_555 1_555
H18_4 C30_4 1_555 1_555
C31_4 C29_4 1_555 1_555
H19_2 C31_4 1_555 1_555
C32_4 N4_2 1_555 1_555
H20_4 C32_4 1_555 1_555
Co6_2 N4_2 1_555 1_555
C20_4 C21_4 1_555 1_555
C26_4 C27_4 1_555 1_555
C30_4 C32_4 1_555 1_555
O3_4 Co6_2 1_555 1_555
O10_2 C41_4 1_555 1_555
N3_4 Co6_2 1_555 1_555
C40_4 O3_4 1_555 1_555
C41_4 C42_4 1_555 1_555
C42_4 C43_4 1_555 1_555
C43_4 H25_4 1_555 1_555
C44_4 C43_4 1_555 1_555
H26_4 C44_4 1_555 1_555
C45_4 C40_4 1_555 1_555
C46_4 C45_4 1_555 1_555
H27_4 C46_4 1_555 1_555
C47_4 C42_4 1_555 1_555
H28_4 C47_4 1_555 1_555
O4_4 C40_4 1_555 1_555
C44_4 C45_4 1_555 1_555
C46_4 C47_4 1_555 1_555

#END
