
###############################################################################
#
# This file contains modified crystal structure data generated from the
# MOF subset of the Cambridge Structural Database (CSD) v543 
# hosted by the Cambridge Crystallographic Data Centre (CCDC).
#
# This work is licensed under the Creative Commons
# Attribution-NonCommercial-ShareAlike 4.0 International License.
# To view a copy of this license, visit
# http://creativecommons.org/licenses/by-nc-sa/4.0/
# or send a letter to
# Creative Commons, PO Box 1866, Mountain View, CA 94042, USA.
#
# CIF created using the CSD Python API on 29 September 2022
# The structure has been converted into the P1 space group
# The structure has a 3D framework
# The original CSD entry PURJES is in the triclinic crystal system
# The framework has been calculated to contain at least 10.0% void space
# The void calculation uses a probe of radius 1.32A, grid spacing 0.4
# H atom positions have been added when not included in the experimental data
#
###############################################################################

data_PURJES
_chemical_formula_moiety         '(C72 H66 N2 O28 Zn2)n'
_symmetry_cell_setting           triclinic
_symmetry_space_group_name_H-M   'P 1'
_symmetry_Int_Tables_number      1
_space_group_name_Hall           'P 1'
loop_
_symmetry_equiv_pos_site_id
_symmetry_equiv_pos_as_xyz
1 x,y,z
_cell_length_a                   6.9314(14)
_cell_length_b                   12.382(2)
_cell_length_c                   27.738(5)
_cell_angle_alpha                96.641(3)
_cell_angle_beta                 91.231(2)
_cell_angle_gamma                104.221(2)
_cell_volume                     2289.09
loop_
_atom_site_label
_atom_site_type_symbol
_atom_site_fract_x
_atom_site_fract_y
_atom_site_fract_z
H33 H 0.0620483 0.624481 0.531137
O11 O 0.1677(11) 0.0569(6) 0.1846(3)
O12 O 0.9543(13) 0.2832(8) 0.0821(3)
O13 O 0.7217(12) 0.3228(7) 0.0379(3)
H7 H 0.0895 0.0819 0.3044
H8 H 0.0201 0.1246 0.2561
H12 H 0.0369 0.2393 0.3355
H19 H 0.3147 0.0192 0.2412
C27 C 0.3289(16) 0.1156(9) 0.1620(4)
C28 C 0.5210(17) 0.1085(10) 0.1691(4)
H21 H 0.5530 0.0645 0.1925
C29 C 0.6689(16) 0.1661(10) 0.1419(4)
H22 H 0.8025 0.1615 0.1469
C30 C 0.6236(16) 0.2300(9) 0.1075(4)
C31 C 0.4276(16) 0.2404(10) 0.1023(4)
H23 H 0.3952 0.2858 0.0796
C32 C 0.2824(17) 0.1853(10) 0.1300(4)
H24 H 0.1508 0.1946 0.1272
C33 C 0.7778(17) 0.2815(10) 0.0742(4)
Zn7 Zn 0.9889(2) 0.36483(12) 0.00899(5)
O14 O 0.9665(18) 0.7756(8) 0.0266(3)
N1 N 0.783(2) 0.8980(10) 0.0413(5)
C34 C 0.809(3) 0.7999(11) 0.0230(5)
H25 H 0.6987 0.7460 0.0064
C35 C 0.949(3) 0.9823(13) 0.0676(6)
H27 H 0.9280 0.9866 0.1026
C36 C 0.578(4) 0.9198(18) 0.0388(8)
H29 H 0.4843 0.8549 0.0205
H30 H 0.5328 0.9319 0.0718
H31 H 0.5831 0.9866 0.0227
Zn1 Zn 0.70347(17) 0.57231(10) 0.50363(4)
O1 O 0.9865(11) 0.6560(7) 0.5079(3)
O2 O 0.5739(12) 0.6463(9) 0.4556(4)
O3 O 0.2674(12) 0.5432(8) 0.4519(4)
O4 O 0.2062(11) 0.8873(6) 0.3028(3)
C1 C 0.3982(16) 0.6216(10) 0.4394(4)
C2 C 0.3431(16) 0.6901(9) 0.4034(4)
C3 C 0.1467(16) 0.6725(9) 0.3862(4)
H1 H 0.0461 0.6157 0.3976
C4 C 0.0950(16) 0.7365(9) 0.3523(4)
C5 C 0.2400(17) 0.8171(10) 0.3353(4)
C6 C 0.4383(17) 0.8349(10) 0.3519(5)
H3 H 0.5392 0.8905 0.3398
C7 C 0.4873(17) 0.7728(11) 0.3854(5)
H4 H 0.6224 0.7861 0.3967
C8 C 0.0133(16) 0.8623(9) 0.2780(4)
C9 C 0.0119(15) 0.9527(8) 0.2460(4)
C26 C 0.1992(15) 0.9820(9) 0.2185(4)
H20 H 0.2257 0.9133 0.2009
Zn3 Zn 0.29653(17) 0.42769(10) 0.49637(4)
O15 O 0.7326(12) 0.4568(8) 0.5481(4)
O16 O 0.7280(14) 0.4540(8) 0.4475(4)
O17 O 0.5807(12) 0.6500(8) 0.5582(3)
H32 H 0.997456 0.736374 0.519374
O5 O 0.7957(11) 0.0483(6) 0.2932(3)
O7 O 0.4193(12) 0.3500(8) 0.4418(3)
C10 C 0.9914(15) 0.0623(8) 0.2763(4)
C11 C 0.7605(16) 0.1364(9) 0.3237(4)
C12 C 0.5621(17) 0.1238(10) 0.3353(4)
H9 H 0.4619 0.0617 0.3200
C13 C 0.5122(17) 0.2017(10) 0.3689(4)
H10 H 0.3772 0.1917 0.3772
C14 C 0.6524(16) 0.2933(10) 0.3907(4)
C15 C 0.8509(18) 0.3070(9) 0.3773(4)
H11 H 0.9502 0.3709 0.3914
C16 C 0.9025(17) 0.2291(9) 0.3442(4)
C17 C 0.5978(17) 0.3741(10) 0.4296(4)
O5_2 O 0.2043(11) 0.9517(6) 0.7068(3)
O6 O 0.2720(14) 0.5460(8) 0.5525(4)
C10_2 C 0.0086(15) 0.9377(8) 0.7237(4)
C11_2 C 0.2395(16) 0.8636(9) 0.6763(4)
C12_2 C 0.4379(17) 0.8762(10) 0.6647(4)
H9_2 H 0.5381 0.9383 0.6800
C13_2 C 0.4878(17) 0.7983(10) 0.6311(4)
H10_2 H 0.6228 0.8083 0.6228
C14_2 C 0.3476(16) 0.7067(10) 0.6093(4)
C15_2 C 0.1491(18) 0.6930(9) 0.6227(4)
H11_2 H 0.0498 0.6291 0.6086
C16_2 C 0.0975(17) 0.7709(9) 0.6558(4)
C17_2 C 0.4022(17) 0.6259(10) 0.5704(4)
O1_2 O 0.0135(11) 0.3440(7) 0.4921(3)
O2_2 O 0.4261(12) 0.3537(9) 0.5444(4)
O4_2 O 0.7938(11) 0.1127(6) 0.6972(3)
C1_2 C 0.6018(16) 0.3784(10) 0.5606(4)
C2_2 C 0.6569(16) 0.3099(9) 0.5966(4)
C3_2 C 0.8533(16) 0.3275(9) 0.6138(4)
H1_2 H 0.9539 0.3843 0.6024
C4_2 C 0.9050(16) 0.2635(9) 0.6477(4)
C5_2 C 0.7600(17) 0.1829(10) 0.6647(4)
C6_2 C 0.5617(17) 0.1651(10) 0.6481(5)
H3_2 H 0.4608 0.1095 0.6602
C7_2 C 0.5127(17) 0.2272(11) 0.6146(5)
H4_2 H 0.3776 0.2139 0.6033
C8_2 C 0.9867(16) 0.1377(9) 0.7220(4)
C9_2 C 0.9881(15) 0.0473(8) 0.7540(4)
C26_2 C 0.8008(15) 0.0180(9) 0.7815(4)
H20_2 H 0.7743 0.0867 0.7991
H32_2 H 0.00254381 0.263626 0.480626
O8 O 0.8662(10) 0.8192(6) 0.1768(3)
O9 O 0.2683(12) 0.4470(7) 0.0326(3)
O10 O 0.0806(12) 0.5667(7) 0.0493(3)
H2 H 0.9599 0.7243 0.3412
H5 H 0.9086 0.8601 0.3018
H6 H 0.9864 0.7880 0.2580
C18 C 0.8240(15) 0.9084(9) 0.2099(4)
H13 H 0.7037 0.8797 0.2278
H14 H 0.8015 0.9692 0.1920
C19 C 0.7096(17) 0.7535(9) 0.1472(4)
C20 C 0.7478(17) 0.6602(9) 0.1203(4)
H15 H 0.8751 0.6448 0.1227
C21 C 0.5955(17) 0.5898(10) 0.0897(4)
H16 H 0.6176 0.5234 0.0725
C22 C 0.4160(17) 0.6134(10) 0.0839(4)
C23 C 0.3823(19) 0.7110(11) 0.1105(5)
H17 H 0.2572 0.7286 0.1069
C24 C 0.5317(18) 0.7814(11) 0.1418(5)
H18 H 0.5107 0.8479 0.1592
C25 C 0.2450(18) 0.5373(11) 0.0527(4)
H28 H 0.0736 0.9611 0.0611
O14_2 O 0.0335(18) 0.2244(8) 0.9734(3)
N1_2 N 0.217(2) 0.1020(10) 0.9587(5)
C34_2 C 0.191(3) 0.2001(11) 0.9770(5)
H25_2 H 0.3013 0.2540 0.9936
C35_2 C 0.051(3) 0.0177(13) 0.9324(6)
H27_2 H 0.0720 0.0134 0.8974
C36_2 C 0.422(4) 0.0802(18) 0.9612(8)
H29_2 H 0.5157 0.1451 0.9795
H30_2 H 0.4672 0.0681 0.9282
H31_2 H 0.4169 0.0134 0.9773
Zn6 Zn 0.0111(2) 0.63517(12) 0.99101(5)
O19 O 0.0457(13) 0.7168(8) 0.9179(3)
O20 O 0.2783(12) 0.6772(7) 0.9621(3)
O11_2 O 0.8323(11) 0.9431(6) 0.8154(3)
H7_2 H 0.9105 0.9181 0.6956
H8_2 H 0.9799 0.8754 0.7439
H12_2 H 0.9631 0.7607 0.6645
H19_2 H 0.6853 0.9808 0.7588
C27_2 C 0.6711(16) 0.8844(9) 0.8380(4)
C28_2 C 0.4790(17) 0.8915(10) 0.8309(4)
H21_2 H 0.4470 0.9355 0.8075
C29_2 C 0.3311(16) 0.8339(10) 0.8581(4)
H22_2 H 0.1975 0.8385 0.8531
C30_2 C 0.3764(16) 0.7700(9) 0.8925(4)
C31_2 C 0.5724(16) 0.7596(10) 0.8977(4)
H23_2 H 0.6048 0.7142 0.9204
C32_2 C 0.7176(17) 0.8147(10) 0.8700(4)
H24_2 H 0.8492 0.8054 0.8728
C33_2 C 0.2222(17) 0.7185(10) 0.9258(4)
H26 H 0.0450 0.9444 0.9432
H28_2 H 0.9264 0.0389 0.9389
O18 O 0.9194(12) 0.4333(7) 0.9507(3)
O8_2 O 0.1338(10) 0.1808(6) 0.8232(3)
O9_2 O 0.7317(12) 0.5530(7) 0.9674(3)
H2_2 H 0.0401 0.2757 0.6588
H5_2 H 0.0914 0.1399 0.6982
H6_2 H 0.0136 0.2120 0.7420
C18_2 C 0.1760(15) 0.0916(9) 0.7901(4)
H13_2 H 0.2963 0.1203 0.7722
H14_2 H 0.1985 0.0308 0.8080
C19_2 C 0.2904(17) 0.2465(9) 0.8528(4)
C20_2 C 0.2522(17) 0.3398(9) 0.8797(4)
H15_2 H 0.1249 0.3552 0.8773
C21_2 C 0.4045(17) 0.4102(10) 0.9103(4)
H16_2 H 0.3824 0.4766 0.9275
C22_2 C 0.5840(17) 0.3866(10) 0.9161(4)
C23_2 C 0.6177(19) 0.2890(11) 0.8895(5)
H17_2 H 0.7428 0.2714 0.8931
C24_2 C 0.4683(18) 0.2186(11) 0.8582(5)
H18_2 H 0.4893 0.1521 0.8408
C25_2 C 0.7550(18) 0.4627(11) 0.9473(4)
H26_2 H 0.9550 0.0556 0.0568
H33_2 H 0.937952 0.375519 0.468863
loop_
_geom_bond_atom_site_label_1
_geom_bond_atom_site_label_2
_geom_bond_site_symmetry_1
_geom_bond_site_symmetry_2
O12 C33 1_555 1_555
O13 C33 1_555 1_555
C27 O11 1_555 1_555
C28 C27 1_555 1_555
H21 C28 1_555 1_555
C29 C28 1_555 1_555
H22 C29 1_555 1_555
C30 C29 1_555 1_555
C31 C30 1_555 1_555
H23 C31 1_555 1_555
C32 C27 1_555 1_555
H24 C32 1_555 1_555
C33 C30 1_555 1_555
Zn7 O12 1_555 1_555
O13 Zn7 1_555 1_555
C31 C32 1_555 1_555
N1 C34 1_555 1_555
C34 O14 1_555 1_555
H25 C34 1_555 1_555
C35 N1 1_555 1_555
H27 C35 1_555 1_555
C36 N1 1_555 1_555
H29 C36 1_555 1_555
H30 C36 1_555 1_555
H31 C36 1_555 1_555
Zn1 O1 1_555 1_555
O2 Zn1 1_555 1_555
O3 C1 1_555 1_555
O4 C5 1_555 1_555
C1 O2 1_555 1_555
C2 C1 1_555 1_555
C3 C2 1_555 1_555
H1 C3 1_555 1_555
C4 C3 1_555 1_555
C5 C4 1_555 1_555
C6 C5 1_555 1_555
H3 C6 1_555 1_555
C7 C2 1_555 1_555
H4 C7 1_555 1_555
C8 O4 1_555 1_555
C9 C8 1_555 1_555
C26 C9 1_555 1_555
H20 C26 1_555 1_555
Zn3 Zn1 1_555 1_555
O15 Zn1 1_555 1_555
O16 Zn1 1_555 1_555
O17 Zn1 1_555 1_555
O3 Zn3 1_555 1_555
C6 C7 1_555 1_555
O1 H32 1_555 1_555
O5 C10 1_555 1_555
O16 C17 1_555 1_555
O7 C17 1_555 1_555
C11 O5 1_555 1_555
C12 C11 1_555 1_555
H9 C12 1_555 1_555
C13 C12 1_555 1_555
H10 C13 1_555 1_555
C14 C13 1_555 1_555
C15 C14 1_555 1_555
H11 C15 1_555 1_555
C16 C11 1_555 1_555
C17 C14 1_555 1_555
Zn3 O7 1_555 1_555
C15 C16 1_555 1_555
O5_2 C10_2 1_555 1_555
O6 C17_2 1_555 1_555
O17 C17_2 1_555 1_555
C11_2 O5_2 1_555 1_555
C12_2 C11_2 1_555 1_555
H9_2 C12_2 1_555 1_555
C13_2 C12_2 1_555 1_555
H10_2 C13_2 1_555 1_555
C14_2 C13_2 1_555 1_555
C15_2 C14_2 1_555 1_555
H11_2 C15_2 1_555 1_555
C16_2 C11_2 1_555 1_555
C17_2 C14_2 1_555 1_555
Zn3 O6 1_555 1_555
C15_2 C16_2 1_555 1_555
Zn3 O1_2 1_555 1_555
O2_2 Zn3 1_555 1_555
O15 C1_2 1_555 1_555
O4_2 C5_2 1_555 1_555
C1_2 O2_2 1_555 1_555
C2_2 C1_2 1_555 1_555
C3_2 C2_2 1_555 1_555
H1_2 C3_2 1_555 1_555
C4_2 C3_2 1_555 1_555
C5_2 C4_2 1_555 1_555
C6_2 C5_2 1_555 1_555
H3_2 C6_2 1_555 1_555
C7_2 C2_2 1_555 1_555
H4_2 C7_2 1_555 1_555
C8_2 O4_2 1_555 1_555
C9_2 C8_2 1_555 1_555
C26_2 C9_2 1_555 1_555
H20_2 C26_2 1_555 1_555
C6_2 C7_2 1_555 1_555
O1_2 H32_2 1_555 1_555
O8 C18 1_555 1_555
O9 C25 1_555 1_555
O10 C25 1_555 1_555
H13 C18 1_555 1_555
H14 C18 1_555 1_555
C19 O8 1_555 1_555
C20 C19 1_555 1_555
H15 C20 1_555 1_555
C21 C20 1_555 1_555
H16 C21 1_555 1_555
C22 C21 1_555 1_555
C23 C22 1_555 1_555
H17 C23 1_555 1_555
C24 C19 1_555 1_555
H18 C24 1_555 1_555
C25 C22 1_555 1_555
C23 C24 1_555 1_555
N1_2 C34_2 1_555 1_555
C34_2 O14_2 1_555 1_555
H25_2 C34_2 1_555 1_555
C35_2 N1_2 1_555 1_555
H27_2 C35_2 1_555 1_555
C36_2 N1_2 1_555 1_555
H29_2 C36_2 1_555 1_555
H30_2 C36_2 1_555 1_555
H31_2 C36_2 1_555 1_555
O19 Zn6 1_555 1_555
O20 Zn6 1_555 1_555
O19 C33_2 1_555 1_555
O20 C33_2 1_555 1_555
C27_2 O11_2 1_555 1_555
C28_2 C27_2 1_555 1_555
H21_2 C28_2 1_555 1_555
C29_2 C28_2 1_555 1_555
H22_2 C29_2 1_555 1_555
C30_2 C29_2 1_555 1_555
C31_2 C30_2 1_555 1_555
H23_2 C31_2 1_555 1_555
C32_2 C27_2 1_555 1_555
H24_2 C32_2 1_555 1_555
C33_2 C30_2 1_555 1_555
C31_2 C32_2 1_555 1_555
O8_2 C18_2 1_555 1_555
O9_2 C25_2 1_555 1_555
O18 C25_2 1_555 1_555
H13_2 C18_2 1_555 1_555
H14_2 C18_2 1_555 1_555
C19_2 O8_2 1_555 1_555
C20_2 C19_2 1_555 1_555
H15_2 C20_2 1_555 1_555
C21_2 C20_2 1_555 1_555
H16_2 C21_2 1_555 1_555
C22_2 C21_2 1_555 1_555
C23_2 C22_2 1_555 1_555
H17_2 C23_2 1_555 1_555
C24_2 C19_2 1_555 1_555
H18_2 C24_2 1_555 1_555
C25_2 C22_2 1_555 1_555
C23_2 C24_2 1_555 1_555

#END
