
###############################################################################
#
# This file contains modified crystal structure data generated from the
# MOF subset of the Cambridge Structural Database (CSD) v543 
# hosted by the Cambridge Crystallographic Data Centre (CCDC).
#
# This work is licensed under the Creative Commons
# Attribution-NonCommercial-ShareAlike 4.0 International License.
# To view a copy of this license, visit
# http://creativecommons.org/licenses/by-nc-sa/4.0/
# or send a letter to
# Creative Commons, PO Box 1866, Mountain View, CA 94042, USA.
#
# CIF created using the CSD Python API on 29 September 2022
# The structure has been converted into the P1 space group
# The structure has a 3D framework
# The original CSD entry PURJAO is in the orthorhombic crystal system
# The framework has been calculated to contain at least 10.0% void space
# The void calculation uses a probe of radius 1.32A, grid spacing 0.4
#
###############################################################################

data_PURJAO
_chemical_formula_moiety         '(C264 H192 O96 Zn8)n'
_symmetry_cell_setting           triclinic
_symmetry_space_group_name_H-M   'P 1'
_symmetry_Int_Tables_number      1
_space_group_name_Hall           'P 1'
loop_
_symmetry_equiv_pos_site_id
_symmetry_equiv_pos_as_xyz
1 x,y,z
_cell_length_a                   24.4646(19)
_cell_length_b                   15.2591(11)
_cell_length_c                   33.563(3)
_cell_angle_alpha                90
_cell_angle_beta                 90
_cell_angle_gamma                90
_cell_volume                     12529.3
loop_
_atom_site_label
_atom_site_type_symbol
_atom_site_fract_x
_atom_site_fract_y
_atom_site_fract_z
Zn1 Zn 0.697592(19) 0.24503(3) 0.097955(13)
C1 C 0.6370(2) 0.0980(3) 0.12793(14)
C2 C 0.63582(19) 0.0295(3) 0.16093(12)
H1 H 0.7164 0.0063 0.1633
C7 C 0.5871(2) 0.0060(3) 0.17738(14)
H4 H 0.5544 0.0313 0.1674
O8 O 0.68441(15) 0.12787(19) 0.12027(9)
O11 O 0.59591(18) 0.1180(3) 0.10968(13)
O13 O 0.67117(12) 0.26694(18) 0.04394(8)
O14 O 0.67355(14) 0.3358(2) 0.13523(8)
O15 O 0.77603(13) 0.24535(19) 0.10823(10)
O1 O 0.57569(10) 0.62039(17) 0.25296(7)
O2 O 0.63234(11) 0.8450(2) 0.25114(8)
O3 O 0.67117(12) 0.73306(18) 0.54394(8)
C3 C 0.68230(19) 0.9906(3) 0.17477(14)
O4 O 0.63608(12) 0.70340(19) 0.35841(8)
C4 C 0.68117(19) 0.9297(3) 0.20463(14)
H2 H 0.7140 0.9030 0.2136
C5 C 0.63054(18) 0.9071(3) 0.22180(12)
O6 O 0.52443(12) 0.78491(19) 0.34236(8)
C6 C 0.58399(18) 0.9453(3) 0.20869(12)
H3 H 0.5498 0.9313 0.2205
O7 O 0.72457(16) 0.8425(2) 0.52439(8)
C8 C 0.58373(16) 0.8155(3) 0.26745(11)
H5 H 0.5593 0.7949 0.2459
H6 H 0.5653 0.8646 0.2813
C9 C 0.59369(17) 0.7413(3) 0.29675(12)
C10 C 0.61828(17) 0.6616(3) 0.27537(11)
H7 H 0.6481 0.6805 0.2574
H8 H 0.6336 0.6200 0.2951
C11 C 0.59029(18) 0.5538(3) 0.22766(11)
O9 O 0.29570(13) 0.8713(2) 0.42261(9)
C12 C 0.54830(17) 0.5156(3) 0.20735(12)
H9 H 0.5117 0.5337 0.2120
C13 C 0.55940(18) 0.4499(3) 0.17964(13)
H10 H 0.5299 0.4233 0.1657
O10 O 0.27603(13) 0.74535(19) 0.39177(10)
C14 C 0.61239(17) 0.4221(3) 0.17187(11)
C15 C 0.65392(18) 0.4612(3) 0.19340(12)
H11 H 0.6905 0.4432 0.1887
C16 C 0.64401(16) 0.5265(3) 0.22195(11)
H12 H 0.6731 0.5514 0.2369
C17 C 0.6235(2) 0.3552(3) 0.14057(13)
C18 C 0.63508(18) 0.7714(3) 0.32838(12)
H13 H 0.6718 0.7789 0.3164
H14 H 0.6236 0.8279 0.3402
C19 C 0.65177(19) 0.7262(3) 0.39629(12)
C20 C 0.63329(17) 0.6722(3) 0.42575(11)
H15 H 0.6114 0.6228 0.4194
C21 C 0.64685(18) 0.6901(3) 0.46542(11)
H16 H 0.6343 0.6523 0.4860
C22 C 0.6779(2) 0.7612(3) 0.47490(13)
C23 C 0.6969(2) 0.8156(3) 0.44400(13)
H17 H 0.7199 0.8640 0.4501
C24 C 0.6826(2) 0.7995(4) 0.40521(12)
H18 H 0.6937 0.8383 0.3846
C25 C 0.6934(2) 0.7825(3) 0.51728(13)
C26 C 0.53916(17) 0.7158(3) 0.31568(11)
H19 H 0.5108 0.7085 0.2949
H20 H 0.5429 0.6598 0.3304
C27 C 0.47082(18) 0.7826(3) 0.35692(12)
C28 C 0.4584(2) 0.8496(3) 0.38358(12)
H21 H 0.4857 0.8902 0.3916
C29 C 0.40619(19) 0.8560(3) 0.39816(12)
H22 H 0.3974 0.9024 0.4159
C30 C 0.36636(17) 0.7971(3) 0.38771(11)
C31 C 0.38046(17) 0.7307(3) 0.36084(12)
H23 H 0.3533 0.6902 0.3524
C32 C 0.43263(17) 0.7230(3) 0.34648(11)
H24 H 0.4419 0.6759 0.3293
C33 C 0.3090(2) 0.8066(4) 0.40230(12)
O12 O 0.58649(16) 0.3247(3) 0.12202(12)
Zn2 Zn 0.697592(19) 0.75497(3) 0.597955(13)
Zn4 Zn 0.197592(19) 0.74503(3) 0.402045(13)
O5 O 0.17355(14) 0.1642(2) 0.86477(8)
C13_2 C 0.05940(18) 0.0501(3) 0.82036(13)
H10_2 H 0.0299 0.0767 0.8343
C14_2 C 0.11239(17) 0.0779(3) 0.82813(11)
C15_2 C 0.15392(18) 0.0388(3) 0.80660(12)
H11_2 H 0.1905 0.0568 0.8113
C17_2 C 0.1235(2) 0.1448(3) 0.85943(13)
O12_2 O 0.08649(16) 0.1753(3) 0.87798(12)
Zn3 Zn 0.197592(19) 0.25497(3) 0.902045(13)
O1_2 O 0.07569(10) 0.87961(17) 0.74704(7)
C1_2 C 0.1370(2) 0.4020(3) 0.87207(14)
O2_2 O 0.13234(11) 0.6550(2) 0.74886(8)
C2_2 C 0.13582(19) 0.4705(3) 0.83907(12)
O3_2 O 0.17117(12) 0.76694(18) 0.45606(8)
C3_2 C 0.18230(19) 0.5094(3) 0.82523(14)
H1_2 H 0.2164 0.4937 0.8367
O4_2 O 0.13608(12) 0.79660(19) 0.64159(8)
C4_2 C 0.18117(19) 0.5703(3) 0.79537(14)
H2_2 H 0.2140 0.5970 0.7864
C5_2 C 0.13054(18) 0.5929(3) 0.77820(12)
O6_2 O 0.02443(12) 0.71509(19) 0.65764(8)
C6_2 C 0.08399(18) 0.5547(3) 0.79131(12)
H3_2 H 0.0498 0.5687 0.7795
O7_2 O 0.22457(16) 0.6575(2) 0.47561(8)
C7_2 C 0.0871(2) 0.4940(3) 0.82262(14)
H4_2 H 0.0544 0.4687 0.8326
C8_2 C 0.08373(16) 0.6845(3) 0.73255(11)
H5_2 H 0.0593 0.7051 0.7541
H6_2 H 0.0653 0.6354 0.7187
C9_2 C 0.09369(17) 0.7587(3) 0.70325(12)
O8_2 O 0.18441(15) 0.37213(19) 0.87973(9)
C10_2 C 0.11828(17) 0.8384(3) 0.72463(11)
H7_2 H 0.1481 0.8195 0.7426
H8_2 H 0.1336 0.8800 0.7049
C11_2 C 0.09029(18) 0.9462(3) 0.77234(11)
C12_2 C 0.04830(17) 0.9844(3) 0.79265(12)
H9_2 H 0.0117 0.9663 0.7880
C16_2 C 0.14401(16) 0.9735(3) 0.77805(11)
H12_2 H 0.1731 0.9486 0.7631
C18_2 C 0.13508(18) 0.7286(3) 0.67162(12)
H13_2 H 0.1718 0.7211 0.6836
H14_2 H 0.1236 0.6721 0.6598
C19_2 C 0.15177(19) 0.7738(3) 0.60371(12)
C20_2 C 0.13329(17) 0.8278(3) 0.57425(11)
H15_2 H 0.1114 0.8772 0.5806
O11_2 O 0.09591(18) 0.3820(3) 0.89032(13)
C21_2 C 0.14685(18) 0.8099(3) 0.53458(11)
H16_2 H 0.1343 0.8477 0.5140
C22_2 C 0.1779(2) 0.7388(3) 0.52510(13)
C23_2 C 0.1969(2) 0.6844(3) 0.55600(13)
H17_2 H 0.2199 0.6360 0.5499
C24_2 C 0.1826(2) 0.7005(4) 0.59479(12)
H18_2 H 0.1937 0.6617 0.6154
C25_2 C 0.1934(2) 0.7175(3) 0.48272(13)
C26_2 C 0.03916(17) 0.7842(3) 0.68432(11)
H19_2 H 0.0108 0.7915 0.7051
H20_2 H 0.0429 0.8402 0.6696
O13_2 O 0.17117(12) 0.23306(18) 0.95606(8)
O15_2 O 0.27603(13) 0.25465(19) 0.89177(10)
O9_2 O 0.79570(13) 0.6287(2) 0.57739(9)
O10_2 O 0.77603(13) 0.75465(19) 0.60823(10)
C27_2 C 0.97082(18) 0.7174(3) 0.64308(12)
C28_2 C 0.9584(2) 0.6504(3) 0.61642(12)
H21_2 H 0.9857 0.6098 0.6084
C29_2 C 0.90619(19) 0.6440(3) 0.60184(12)
H22_2 H 0.8974 0.5976 0.5841
C30_2 C 0.86636(17) 0.7029(3) 0.61229(11)
C31_2 C 0.88046(17) 0.7693(3) 0.63916(12)
H23_2 H 0.8533 0.8098 0.6476
C32_2 C 0.93263(17) 0.7770(3) 0.65352(11)
H24_2 H 0.9419 0.8241 0.6707
C33_2 C 0.8090(2) 0.6934(4) 0.59770(12)
O1_3 O 0.07569(10) 0.12039(17) 0.24704(7)
C1_3 C 0.1370(2) 0.5980(3) 0.37207(14)
O2_3 O 0.13234(11) 0.3450(2) 0.24886(8)
C2_3 C 0.13582(19) 0.5295(3) 0.33907(12)
C3_3 C 0.18230(19) 0.4906(3) 0.32523(14)
H1_3 H 0.2164 0.5063 0.3367
O4_3 O 0.13608(12) 0.20340(19) 0.14159(8)
C4_3 C 0.18117(19) 0.4297(3) 0.29537(14)
H2_3 H 0.2140 0.4030 0.2864
C5_3 C 0.13054(18) 0.4071(3) 0.27820(12)
O6_3 O 0.02443(12) 0.28491(19) 0.15764(8)
C6_3 C 0.08399(18) 0.4453(3) 0.29131(12)
H3_3 H 0.0498 0.4313 0.2795
C7_3 C 0.0871(2) 0.5060(3) 0.32262(14)
H4_3 H 0.0544 0.5313 0.3326
C8_3 C 0.08373(16) 0.3155(3) 0.23255(11)
H5_3 H 0.0593 0.2949 0.2541
H6_3 H 0.0653 0.3646 0.2187
C9_3 C 0.09369(17) 0.2413(3) 0.20325(12)
O8_3 O 0.18441(15) 0.62787(19) 0.37973(9)
C10_3 C 0.11828(17) 0.1616(3) 0.22463(11)
H7_3 H 0.1481 0.1805 0.2426
H8_3 H 0.1336 0.1200 0.2049
C11_3 C 0.09029(18) 0.0538(3) 0.27234(11)
C12_3 C 0.04830(17) 0.0156(3) 0.29265(12)
H9_3 H 0.0117 0.0337 0.2880
C16_3 C 0.14401(16) 0.0265(3) 0.27805(11)
H12_3 H 0.1731 0.0514 0.2631
C18_3 C 0.13508(18) 0.2714(3) 0.17162(12)
H13_3 H 0.1718 0.2789 0.1836
H14_3 H 0.1236 0.3279 0.1598
C19_3 C 0.15177(19) 0.2262(3) 0.10371(12)
C20_3 C 0.13329(17) 0.1722(3) 0.07425(11)
H15_3 H 0.1114 0.1228 0.0806
O11_3 O 0.09591(18) 0.6180(3) 0.39032(13)
C21_3 C 0.14685(18) 0.1901(3) 0.03458(11)
H16_3 H 0.1343 0.1523 0.0140
C22_3 C 0.1779(2) 0.2612(3) 0.02510(13)
C23_3 C 0.1969(2) 0.3156(3) 0.05600(13)
H17_3 H 0.2199 0.3640 0.0499
C24_3 C 0.1826(2) 0.2995(4) 0.09479(12)
H18_3 H 0.1937 0.3383 0.1154
C26_3 C 0.03916(17) 0.2158(3) 0.18432(11)
H19_3 H 0.0108 0.2085 0.2051
H20_3 H 0.0429 0.1598 0.1696
O14_2 O 0.17355(14) 0.8358(2) 0.36477(8)
O7_3 O 0.22457(16) 0.3425(2) 0.97561(8)
C25_3 C 0.1934(2) 0.2825(3) 0.98272(13)
C13_3 C 0.05940(18) 0.9499(3) 0.32036(13)
H10_3 H 0.0299 0.9233 0.3343
C14_3 C 0.11239(17) 0.9221(3) 0.32813(11)
C15_3 C 0.15392(18) 0.9612(3) 0.30660(12)
H11_3 H 0.1905 0.9432 0.3113
C17_3 C 0.1235(2) 0.8552(3) 0.35943(13)
O12_3 O 0.08649(16) 0.8247(3) 0.37798(12)
O9_3 O 0.79570(13) 0.3713(2) 0.07739(9)
C27_3 C 0.97082(18) 0.2826(3) 0.14308(12)
C28_3 C 0.9584(2) 0.3496(3) 0.11642(12)
H21_3 H 0.9857 0.3902 0.1084
C29_3 C 0.90619(19) 0.3560(3) 0.10184(12)
H22_3 H 0.8974 0.4024 0.0841
C30_3 C 0.86636(17) 0.2971(3) 0.11229(11)
C31_3 C 0.88046(17) 0.2307(3) 0.13916(12)
H23_3 H 0.8533 0.1902 0.1476
C32_3 C 0.93263(17) 0.2230(3) 0.15352(11)
H24_3 H 0.9419 0.1759 0.1707
C33_3 C 0.8090(2) 0.3066(4) 0.09770(12)
O7_4 O 0.72457(16) 0.1575(2) 0.02439(8)
C25_4 C 0.6934(2) 0.2175(3) 0.01728(13)
O1_4 O 0.57569(10) 0.37961(17) 0.75296(7)
O2_4 O 0.63234(11) 0.1550(2) 0.75114(8)
C3_4 C 0.68230(19) 0.0094(3) 0.67477(14)
O4_4 O 0.63608(12) 0.29660(19) 0.85841(8)
C4_4 C 0.68117(19) 0.0703(3) 0.70463(14)
H2_4 H 0.7140 0.0970 0.7136
O5_2 O 0.67355(14) 0.6642(2) 0.63523(8)
C5_4 C 0.63054(18) 0.0929(3) 0.72180(12)
O6_4 O 0.52443(12) 0.21509(19) 0.84236(8)
C6_4 C 0.58399(18) 0.0547(3) 0.70869(12)
H3_4 H 0.5498 0.0687 0.7205
C8_4 C 0.58373(16) 0.1845(3) 0.76745(11)
H5_4 H 0.5593 0.2051 0.7459
H6_4 H 0.5653 0.1354 0.7813
C9_4 C 0.59369(17) 0.2587(3) 0.79675(12)
C10_4 C 0.61828(17) 0.3384(3) 0.77537(11)
H7_4 H 0.6481 0.3195 0.7574
H8_4 H 0.6336 0.3800 0.7951
C11_4 C 0.59029(18) 0.4462(3) 0.72766(11)
O9_4 O 0.29570(13) 0.1287(2) 0.92261(9)
C12_4 C 0.54830(17) 0.4844(3) 0.70735(12)
H9_4 H 0.5117 0.4663 0.7120
C13_4 C 0.55940(18) 0.5501(3) 0.67964(13)
H10_4 H 0.5299 0.5767 0.6657
C14_4 C 0.61239(17) 0.5779(3) 0.67187(11)
C15_4 C 0.65392(18) 0.5388(3) 0.69340(12)
H11_4 H 0.6905 0.5568 0.6887
C16_4 C 0.64401(16) 0.4735(3) 0.72195(11)
H12_4 H 0.6731 0.4486 0.7369
C17_4 C 0.6235(2) 0.6448(3) 0.64057(13)
C18_4 C 0.63508(18) 0.2286(3) 0.82838(12)
H13_4 H 0.6718 0.2211 0.8164
H14_4 H 0.6236 0.1721 0.8402
C19_4 C 0.65177(19) 0.2738(3) 0.89629(12)
C20_4 C 0.63329(17) 0.3278(3) 0.92575(11)
H15_4 H 0.6114 0.3772 0.9194
C21_4 C 0.64685(18) 0.3099(3) 0.96542(11)
H16_4 H 0.6343 0.3477 0.9860
C22_4 C 0.6779(2) 0.2388(3) 0.97490(13)
C23_4 C 0.6969(2) 0.1844(3) 0.94400(13)
H17_4 H 0.7199 0.1360 0.9501
C24_4 C 0.6826(2) 0.2005(4) 0.90521(12)
H18_4 H 0.6937 0.1617 0.8846
C26_4 C 0.53916(17) 0.2842(3) 0.81568(11)
H19_4 H 0.5108 0.2915 0.7949
H20_4 H 0.5429 0.3402 0.8304
C27_4 C 0.47082(18) 0.2174(3) 0.85692(12)
C28_4 C 0.4584(2) 0.1504(3) 0.88358(12)
H21_4 H 0.4857 0.1098 0.8916
C29_4 C 0.40619(19) 0.1440(3) 0.89816(12)
H22_4 H 0.3974 0.0976 0.9159
C30_4 C 0.36636(17) 0.2029(3) 0.88771(11)
C31_4 C 0.38046(17) 0.2693(3) 0.86084(12)
H23_4 H 0.3533 0.3098 0.8524
C32_4 C 0.43263(17) 0.2770(3) 0.84648(11)
H24_4 H 0.4419 0.3241 0.8293
C33_4 C 0.3090(2) 0.1934(4) 0.90230(12)
O12_4 O 0.58649(16) 0.6753(3) 0.62202(12)
C1_4 C 0.6370(2) 0.9020(3) 0.62793(14)
C2_4 C 0.63582(19) 0.9705(3) 0.66093(12)
H1_4 H 0.7164 0.9937 0.6633
C7_4 C 0.5871(2) 0.9940(3) 0.67738(14)
H4_4 H 0.5544 0.9687 0.6674
O8_4 O 0.68441(15) 0.87213(19) 0.62027(9)
O11_4 O 0.59591(18) 0.8820(3) 0.60968(13)
O9_5 O 0.20430(13) 0.6287(2) 0.92261(9)
O10_3 O 0.22397(13) 0.75465(19) 0.89177(10)
C27_5 C 0.02918(18) 0.7174(3) 0.85692(12)
C28_5 C 0.0416(2) 0.6504(3) 0.88358(12)
H21_5 H 0.0143 0.6098 0.8916
C29_5 C 0.09381(19) 0.6440(3) 0.89816(12)
H22_5 H 0.1026 0.5976 0.9159
C30_5 C 0.13364(17) 0.7029(3) 0.88771(11)
C31_5 C 0.11954(17) 0.7693(3) 0.86084(12)
H23_5 H 0.1467 0.8098 0.8524
C32_5 C 0.06737(17) 0.7770(3) 0.84648(11)
H24_5 H 0.0581 0.8241 0.8293
C33_5 C 0.1910(2) 0.6934(4) 0.90230(12)
Zn4_2 Zn 0.302408(19) 0.75497(3) 0.902045(13)
O5_3 O 0.82645(14) 0.1642(2) 0.63523(8)
C13_5 C 0.94060(18) 0.0501(3) 0.67964(13)
H10_5 H 0.9701 0.0767 0.6657
C14_5 C 0.88761(17) 0.0779(3) 0.67187(11)
C15_5 C 0.84608(18) 0.0388(3) 0.69340(12)
H11_5 H 0.8095 0.0568 0.6887
C17_5 C 0.8765(2) 0.1448(3) 0.64057(13)
O12_5 O 0.91351(16) 0.1753(3) 0.62202(12)
Zn3_2 Zn 0.802408(19) 0.25497(3) 0.597955(13)
O3_3 O 0.82883(12) 0.76694(18) 0.04394(8)
O7_5 O 0.77543(16) 0.6575(2) 0.02439(8)
C25_5 C 0.8066(2) 0.7175(3) 0.01728(13)
Zn2_2 Zn 0.802408(19) 0.74503(3) 0.097955(13)
O1_5 O 0.92431(10) 0.87961(17) 0.75296(7)
C1_5 C 0.8630(2) 0.4020(3) 0.62793(14)
O2_5 O 0.86766(11) 0.6550(2) 0.75114(8)
C2_5 C 0.86418(19) 0.4705(3) 0.66093(12)
C3_5 C 0.81770(19) 0.5094(3) 0.67477(14)
H1_5 H 0.7836 0.4937 0.6633
O4_5 O 0.86392(12) 0.79660(19) 0.85841(8)
C4_5 C 0.81883(19) 0.5703(3) 0.70463(14)
H2_5 H 0.7860 0.5970 0.7136
C5_5 C 0.86946(18) 0.5929(3) 0.72180(12)
O6_5 O 0.97557(12) 0.71509(19) 0.84236(8)
C6_5 C 0.91601(18) 0.5547(3) 0.70869(12)
H3_5 H 0.9502 0.5687 0.7205
C7_5 C 0.9129(2) 0.4940(3) 0.67738(14)
H4_5 H 0.9456 0.4687 0.6674
C8_5 C 0.91627(16) 0.6845(3) 0.76745(11)
H5_5 H 0.9407 0.7051 0.7459
H6_5 H 0.9347 0.6354 0.7813
C9_5 C 0.90631(17) 0.7587(3) 0.79675(12)
O8_5 O 0.81559(15) 0.37213(19) 0.62027(9)
C10_5 C 0.88172(17) 0.8384(3) 0.77537(11)
H7_5 H 0.8519 0.8195 0.7574
H8_5 H 0.8664 0.8800 0.7951
C11_5 C 0.90971(18) 0.9462(3) 0.72766(11)
C12_5 C 0.95170(17) 0.9844(3) 0.70735(12)
H9_5 H 0.9883 0.9663 0.7120
C16_5 C 0.85599(16) 0.9735(3) 0.72195(11)
H12_5 H 0.8269 0.9486 0.7369
C18_5 C 0.86492(18) 0.7286(3) 0.82838(12)
H13_5 H 0.8282 0.7211 0.8164
H14_5 H 0.8764 0.6721 0.8402
C19_5 C 0.84823(19) 0.7738(3) 0.89629(12)
C20_5 C 0.86671(17) 0.8278(3) 0.92575(11)
H15_5 H 0.8886 0.8772 0.9194
O11_5 O 0.90409(18) 0.3820(3) 0.60968(13)
C21_5 C 0.85315(18) 0.8099(3) 0.96542(11)
H16_5 H 0.8657 0.8477 0.9860
C22_5 C 0.8221(2) 0.7388(3) 0.97490(13)
C23_5 C 0.8031(2) 0.6844(3) 0.94400(13)
H17_5 H 0.7801 0.6360 0.9501
C24_5 C 0.8174(2) 0.7005(4) 0.90521(12)
H18_5 H 0.8063 0.6617 0.8846
C26_5 C 0.96084(17) 0.7842(3) 0.81568(11)
H19_5 H 0.9892 0.7915 0.7949
H20_5 H 0.9571 0.8402 0.8304
O13_3 O 0.82883(12) 0.23306(18) 0.54394(8)
O15_3 O 0.72397(13) 0.25465(19) 0.60823(10)
Zn1_2 Zn 0.302408(19) 0.24503(3) 0.402045(13)
C1_6 C 0.3630(2) 0.0980(3) 0.37207(14)
C2_6 C 0.36418(19) 0.0295(3) 0.33907(12)
H1_6 H 0.2836 0.0063 0.3367
C7_6 C 0.4129(2) 0.0060(3) 0.32262(14)
H4_6 H 0.4456 0.0313 0.3326
O8_6 O 0.31559(15) 0.12787(19) 0.37973(9)
O11_6 O 0.40409(18) 0.1180(3) 0.39032(13)
O13_4 O 0.32883(12) 0.26694(18) 0.45606(8)
O14_3 O 0.32645(14) 0.3358(2) 0.36477(8)
O15_4 O 0.22397(13) 0.24535(19) 0.39177(10)
O1_6 O 0.42431(10) 0.62039(17) 0.24704(7)
O2_6 O 0.36766(11) 0.8450(2) 0.24886(8)
C3_6 C 0.31770(19) 0.9906(3) 0.32523(14)
O4_6 O 0.36392(12) 0.70340(19) 0.14159(8)
C4_6 C 0.31883(19) 0.9297(3) 0.29537(14)
H2_6 H 0.2860 0.9030 0.2864
C5_6 C 0.36946(18) 0.9071(3) 0.27820(12)
O6_6 O 0.47557(12) 0.78491(19) 0.15764(8)
C6_6 C 0.41601(18) 0.9453(3) 0.29131(12)
H3_6 H 0.4502 0.9313 0.2795
C8_6 C 0.41627(16) 0.8155(3) 0.23255(11)
H5_6 H 0.4407 0.7949 0.2541
H6_6 H 0.4347 0.8646 0.2187
C9_6 C 0.40631(17) 0.7413(3) 0.20325(12)
C10_6 C 0.38172(17) 0.6616(3) 0.22463(11)
H7_6 H 0.3519 0.6805 0.2426
H8_6 H 0.3664 0.6200 0.2049
C11_6 C 0.40971(18) 0.5538(3) 0.27234(11)
O9_6 O 0.70430(13) 0.8713(2) 0.07739(9)
C12_6 C 0.45170(17) 0.5156(3) 0.29265(12)
H9_6 H 0.4883 0.5337 0.2880
C13_6 C 0.44060(18) 0.4499(3) 0.32036(13)
H10_6 H 0.4701 0.4233 0.3343
O10_4 O 0.72397(13) 0.74535(19) 0.10823(10)
C14_6 C 0.38761(17) 0.4221(3) 0.32813(11)
C15_6 C 0.34608(18) 0.4612(3) 0.30660(12)
H11_6 H 0.3095 0.4432 0.3113
C16_6 C 0.35599(16) 0.5265(3) 0.27805(11)
H12_6 H 0.3269 0.5514 0.2631
C17_6 C 0.3765(2) 0.3552(3) 0.35943(13)
C18_6 C 0.36492(18) 0.7714(3) 0.17162(12)
H13_6 H 0.3282 0.7789 0.1836
H14_6 H 0.3764 0.8279 0.1598
C19_6 C 0.34823(19) 0.7262(3) 0.10371(12)
C20_6 C 0.36671(17) 0.6722(3) 0.07425(11)
H15_6 H 0.3886 0.6228 0.0806
C21_6 C 0.35315(18) 0.6901(3) 0.03458(11)
H16_6 H 0.3657 0.6523 0.0140
C22_6 C 0.3221(2) 0.7612(3) 0.02510(13)
C23_6 C 0.3031(2) 0.8156(3) 0.05600(13)
H17_6 H 0.2801 0.8640 0.0499
C24_6 C 0.3174(2) 0.7995(4) 0.09479(12)
H18_6 H 0.3063 0.8383 0.1154
C26_6 C 0.46084(17) 0.7158(3) 0.18432(11)
H19_6 H 0.4892 0.7085 0.2051
H20_6 H 0.4571 0.6598 0.1696
C27_6 C 0.52918(18) 0.7826(3) 0.14308(12)
C28_6 C 0.5416(2) 0.8496(3) 0.11642(12)
H21_6 H 0.5143 0.8902 0.1084
C29_6 C 0.59381(19) 0.8560(3) 0.10184(12)
H22_6 H 0.6026 0.9024 0.0841
C30_6 C 0.63364(17) 0.7971(3) 0.11229(11)
C31_6 C 0.61954(17) 0.7307(3) 0.13916(12)
H23_6 H 0.6467 0.6902 0.1476
C32_6 C 0.56737(17) 0.7230(3) 0.15352(11)
H24_6 H 0.5581 0.6759 0.1707
C33_6 C 0.6910(2) 0.8066(4) 0.09770(12)
O12_6 O 0.41351(16) 0.3247(3) 0.37798(12)
O3_4 O 0.32883(12) 0.73306(18) 0.95606(8)
O7_6 O 0.27543(16) 0.8425(2) 0.97561(8)
C25_6 C 0.3066(2) 0.7825(3) 0.98272(13)
O1_7 O 0.42431(10) 0.37961(17) 0.74704(7)
O2_7 O 0.36766(11) 0.1550(2) 0.74886(8)
C3_7 C 0.31770(19) 0.0094(3) 0.82523(14)
O4_7 O 0.36392(12) 0.29660(19) 0.64159(8)
C4_7 C 0.31883(19) 0.0703(3) 0.79537(14)
H2_7 H 0.2860 0.0970 0.7864
O5_4 O 0.32645(14) 0.6642(2) 0.86477(8)
C5_7 C 0.36946(18) 0.0929(3) 0.77820(12)
O6_7 O 0.47557(12) 0.21509(19) 0.65764(8)
C6_7 C 0.41601(18) 0.0547(3) 0.79131(12)
H3_7 H 0.4502 0.0687 0.7795
O7_7 O 0.27543(16) 0.1575(2) 0.47561(8)
C8_7 C 0.41627(16) 0.1845(3) 0.73255(11)
H5_7 H 0.4407 0.2051 0.7541
H6_7 H 0.4347 0.1354 0.7187
C9_7 C 0.40631(17) 0.2587(3) 0.70325(12)
C10_7 C 0.38172(17) 0.3384(3) 0.72463(11)
H7_7 H 0.3519 0.3195 0.7426
H8_7 H 0.3664 0.3800 0.7049
C11_7 C 0.40971(18) 0.4462(3) 0.77234(11)
O9_7 O 0.70430(13) 0.1287(2) 0.57739(9)
C12_7 C 0.45170(17) 0.4844(3) 0.79265(12)
H9_7 H 0.4883 0.4663 0.7880
C13_7 C 0.44060(18) 0.5501(3) 0.82036(13)
H10_7 H 0.4701 0.5767 0.8343
C14_7 C 0.38761(17) 0.5779(3) 0.82813(11)
C15_7 C 0.34608(18) 0.5388(3) 0.80660(12)
H11_7 H 0.3095 0.5568 0.8113
C16_7 C 0.35599(16) 0.4735(3) 0.77805(11)
H12_7 H 0.3269 0.4486 0.7631
C17_7 C 0.3765(2) 0.6448(3) 0.85943(13)
C18_7 C 0.36492(18) 0.2286(3) 0.67162(12)
H13_7 H 0.3282 0.2211 0.6836
H14_7 H 0.3764 0.1721 0.6598
C19_7 C 0.34823(19) 0.2738(3) 0.60371(12)
C20_7 C 0.36671(17) 0.3278(3) 0.57425(11)
H15_7 H 0.3886 0.3772 0.5806
C21_7 C 0.35315(18) 0.3099(3) 0.53458(11)
H16_7 H 0.3657 0.3477 0.5140
C22_7 C 0.3221(2) 0.2388(3) 0.52510(13)
C23_7 C 0.3031(2) 0.1844(3) 0.55600(13)
H17_7 H 0.2801 0.1360 0.5499
C24_7 C 0.3174(2) 0.2005(4) 0.59479(12)
H18_7 H 0.3063 0.1617 0.6154
C25_7 C 0.3066(2) 0.2175(3) 0.48272(13)
C26_7 C 0.46084(17) 0.2842(3) 0.68432(11)
H19_7 H 0.4892 0.2915 0.7051
H20_7 H 0.4571 0.3402 0.6696
C27_7 C 0.52918(18) 0.2174(3) 0.64308(12)
C28_7 C 0.5416(2) 0.1504(3) 0.61642(12)
H21_7 H 0.5143 0.1098 0.6084
C29_7 C 0.59381(19) 0.1440(3) 0.60184(12)
H22_7 H 0.6026 0.0976 0.5841
C30_7 C 0.63364(17) 0.2029(3) 0.61229(11)
C31_7 C 0.61954(17) 0.2693(3) 0.63916(12)
H23_7 H 0.6467 0.3098 0.6476
C32_7 C 0.56737(17) 0.2770(3) 0.65352(11)
H24_7 H 0.5581 0.3241 0.6707
C33_7 C 0.6910(2) 0.1934(4) 0.59770(12)
O12_7 O 0.41351(16) 0.6753(3) 0.87798(12)
C1_7 C 0.3630(2) 0.9020(3) 0.87207(14)
C2_7 C 0.36418(19) 0.9705(3) 0.83907(12)
H1_7 H 0.2836 0.9937 0.8367
C7_7 C 0.4129(2) 0.9940(3) 0.82262(14)
H4_7 H 0.4456 0.9687 0.8326
O8_7 O 0.31559(15) 0.87213(19) 0.87973(9)
O11_7 O 0.40409(18) 0.8820(3) 0.89032(13)
O9_8 O 0.20430(13) 0.3713(2) 0.42261(9)
C27_8 C 0.02918(18) 0.2826(3) 0.35692(12)
C28_8 C 0.0416(2) 0.3496(3) 0.38358(12)
H21_8 H 0.0143 0.3902 0.3916
C29_8 C 0.09381(19) 0.3560(3) 0.39816(12)
H22_8 H 0.1026 0.4024 0.4159
C30_8 C 0.13364(17) 0.2971(3) 0.38771(11)
C31_8 C 0.11954(17) 0.2307(3) 0.36084(12)
H23_8 H 0.1467 0.1902 0.3524
C32_8 C 0.06737(17) 0.2230(3) 0.34648(11)
H24_8 H 0.0581 0.1759 0.3293
C33_8 C 0.1910(2) 0.3066(4) 0.40230(12)
O1_8 O 0.92431(10) 0.12039(17) 0.25296(7)
C1_8 C 0.8630(2) 0.5980(3) 0.12793(14)
O2_8 O 0.86766(11) 0.3450(2) 0.25114(8)
C2_8 C 0.86418(19) 0.5295(3) 0.16093(12)
C3_8 C 0.81770(19) 0.4906(3) 0.17477(14)
H1_8 H 0.7836 0.5063 0.1633
O4_8 O 0.86392(12) 0.20340(19) 0.35841(8)
C4_8 C 0.81883(19) 0.4297(3) 0.20463(14)
H2_8 H 0.7860 0.4030 0.2136
C5_8 C 0.86946(18) 0.4071(3) 0.22180(12)
O6_8 O 0.97557(12) 0.28491(19) 0.34236(8)
C6_8 C 0.91601(18) 0.4453(3) 0.20869(12)
H3_8 H 0.9502 0.4313 0.2205
O7_8 O 0.77543(16) 0.3425(2) 0.52439(8)
C7_8 C 0.9129(2) 0.5060(3) 0.17738(14)
H4_8 H 0.9456 0.5313 0.1674
C8_8 C 0.91627(16) 0.3155(3) 0.26745(11)
H5_8 H 0.9407 0.2949 0.2459
H6_8 H 0.9347 0.3646 0.2813
C9_8 C 0.90631(17) 0.2413(3) 0.29675(12)
O8_8 O 0.81559(15) 0.62787(19) 0.12027(9)
C10_8 C 0.88172(17) 0.1616(3) 0.27537(11)
H7_8 H 0.8519 0.1805 0.2574
H8_8 H 0.8664 0.1200 0.2951
C11_8 C 0.90971(18) 0.0538(3) 0.22766(11)
C12_8 C 0.95170(17) 0.0156(3) 0.20735(12)
H9_8 H 0.9883 0.0337 0.2120
C16_8 C 0.85599(16) 0.0265(3) 0.22195(11)
H12_8 H 0.8269 0.0514 0.2369
C18_8 C 0.86492(18) 0.2714(3) 0.32838(12)
H13_8 H 0.8282 0.2789 0.3164
H14_8 H 0.8764 0.3279 0.3402
C19_8 C 0.84823(19) 0.2262(3) 0.39629(12)
C20_8 C 0.86671(17) 0.1722(3) 0.42575(11)
H15_8 H 0.8886 0.1228 0.4194
O11_8 O 0.90409(18) 0.6180(3) 0.10968(13)
C21_8 C 0.85315(18) 0.1901(3) 0.46542(11)
H16_8 H 0.8657 0.1523 0.4860
C22_8 C 0.8221(2) 0.2612(3) 0.47490(13)
C23_8 C 0.8031(2) 0.3156(3) 0.44400(13)
H17_8 H 0.7801 0.3640 0.4501
C24_8 C 0.8174(2) 0.2995(4) 0.40521(12)
H18_8 H 0.8063 0.3383 0.3846
C25_8 C 0.8066(2) 0.2825(3) 0.51728(13)
C26_8 C 0.96084(17) 0.2158(3) 0.31568(11)
H19_8 H 0.9892 0.2085 0.2949
H20_8 H 0.9571 0.1598 0.3304
O14_4 O 0.82645(14) 0.8358(2) 0.13523(8)
C13_8 C 0.94060(18) 0.9499(3) 0.17964(13)
H10_8 H 0.9701 0.9233 0.1657
C14_8 C 0.88761(17) 0.9221(3) 0.17187(11)
C15_8 C 0.84608(18) 0.9612(3) 0.19340(12)
H11_8 H 0.8095 0.9432 0.1887
C17_8 C 0.8765(2) 0.8552(3) 0.14057(13)
O12_8 O 0.91351(16) 0.8247(3) 0.12202(12)
loop_
_geom_bond_atom_site_label_1
_geom_bond_atom_site_label_2
_geom_bond_site_symmetry_1
_geom_bond_site_symmetry_2
Zn1 O8 1_555 1_555
C1 C2 1_555 1_555
C7 C2 1_555 1_555
H4 C7 1_555 1_555
O8 C1 1_555 1_555
O11 C1 1_555 1_555
O13 Zn1 1_555 1_555
O14 Zn1 1_555 1_555
O15 Zn1 1_555 1_555
O1 C10 1_555 1_555
O2 C5 1_555 1_555
O3 C25 1_555 1_555
O4 C18 1_555 1_555
C4 C3 1_555 1_555
H2 C4 1_555 1_555
O14 C17 1_555 1_555
C5 C4 1_555 1_555
O6 C26 1_555 1_555
C6 C5 1_555 1_555
H3 C6 1_555 1_555
O7 C25 1_555 1_555
C8 O2 1_555 1_555
H5 C8 1_555 1_555
H6 C8 1_555 1_555
C9 C8 1_555 1_555
C10 C9 1_555 1_555
H7 C10 1_555 1_555
H8 C10 1_555 1_555
C11 O1 1_555 1_555
O9 C33 1_555 1_555
C12 C11 1_555 1_555
H9 C12 1_555 1_555
C13 C12 1_555 1_555
H10 C13 1_555 1_555
O10 C33 1_555 1_555
C14 C13 1_555 1_555
C15 C14 1_555 1_555
H11 C15 1_555 1_555
C16 C11 1_555 1_555
H12 C16 1_555 1_555
C17 C14 1_555 1_555
C18 C9 1_555 1_555
H13 C18 1_555 1_555
H14 C18 1_555 1_555
C19 O4 1_555 1_555
C20 C19 1_555 1_555
H15 C20 1_555 1_555
C21 C20 1_555 1_555
H16 C21 1_555 1_555
C22 C21 1_555 1_555
C23 C22 1_555 1_555
H17 C23 1_555 1_555
C24 C19 1_555 1_555
H18 C24 1_555 1_555
C25 C22 1_555 1_555
C26 C9 1_555 1_555
H19 C26 1_555 1_555
H20 C26 1_555 1_555
C27 O6 1_555 1_555
C28 C27 1_555 1_555
H21 C28 1_555 1_555
C29 C28 1_555 1_555
H22 C29 1_555 1_555
C30 C29 1_555 1_555
C31 C30 1_555 1_555
H23 C31 1_555 1_555
C32 C27 1_555 1_555
H24 C32 1_555 1_555
C33 C30 1_555 1_555
O12 C17 1_555 1_555
Zn2 O3 1_555 1_555
Zn4 O10 1_555 1_555
C15 C16 1_555 1_555
C23 C24 1_555 1_555
C31 C32 1_555 1_555
O5 C17_2 1_555 1_555
H10_2 C13_2 1_555 1_555
C14_2 C13_2 1_555 1_555
C15_2 C14_2 1_555 1_555
H11_2 C15_2 1_555 1_555
C17_2 C14_2 1_555 1_555
O12_2 C17_2 1_555 1_555
Zn3 O5 1_555 1_555
Zn3 O8_2 1_555 1_555
O1_2 C10_2 1_555 1_555
C1_2 C2_2 1_555 1_555
O2_2 C5_2 1_555 1_555
C2_2 C3_2 1_555 1_555
O3_2 C25_2 1_555 1_555
C3_2 H1_2 1_555 1_555
O4_2 C18_2 1_555 1_555
C4_2 C3_2 1_555 1_555
H2_2 C4_2 1_555 1_555
C5_2 C4_2 1_555 1_555
O6_2 C26_2 1_555 1_555
C6_2 C5_2 1_555 1_555
H3_2 C6_2 1_555 1_555
O7_2 C25_2 1_555 1_555
C7_2 C2_2 1_555 1_555
H4_2 C7_2 1_555 1_555
C8_2 O2_2 1_555 1_555
H5_2 C8_2 1_555 1_555
H6_2 C8_2 1_555 1_555
C9_2 C8_2 1_555 1_555
O8_2 C1_2 1_555 1_555
C10_2 C9_2 1_555 1_555
H7_2 C10_2 1_555 1_555
H8_2 C10_2 1_555 1_555
C11_2 O1_2 1_555 1_555
C12_2 C11_2 1_555 1_555
H9_2 C12_2 1_555 1_555
C16_2 C11_2 1_555 1_555
H12_2 C16_2 1_555 1_555
C18_2 C9_2 1_555 1_555
H13_2 C18_2 1_555 1_555
H14_2 C18_2 1_555 1_555
C19_2 O4_2 1_555 1_555
C20_2 C19_2 1_555 1_555
H15_2 C20_2 1_555 1_555
O11_2 C1_2 1_555 1_555
C21_2 C20_2 1_555 1_555
H16_2 C21_2 1_555 1_555
C22_2 C21_2 1_555 1_555
C23_2 C22_2 1_555 1_555
H17_2 C23_2 1_555 1_555
C24_2 C19_2 1_555 1_555
H18_2 C24_2 1_555 1_555
C25_2 C22_2 1_555 1_555
C26_2 C9_2 1_555 1_555
H19_2 C26_2 1_555 1_555
H20_2 C26_2 1_555 1_555
Zn4 O3_2 1_555 1_555
O13_2 Zn3 1_555 1_555
O15_2 Zn3 1_555 1_555
C6_2 C7_2 1_555 1_555
C23_2 C24_2 1_555 1_555
O9_2 C33_2 1_555 1_555
O10_2 C33_2 1_555 1_555
C28_2 C27_2 1_555 1_555
H21_2 C28_2 1_555 1_555
C29_2 C28_2 1_555 1_555
H22_2 C29_2 1_555 1_555
C30_2 C29_2 1_555 1_555
C31_2 C30_2 1_555 1_555
H23_2 C31_2 1_555 1_555
C32_2 C27_2 1_555 1_555
H24_2 C32_2 1_555 1_555
C33_2 C30_2 1_555 1_555
Zn2 O10_2 1_555 1_555
C31_2 C32_2 1_555 1_555
Zn4 O8_3 1_555 1_555
O1_3 C10_3 1_555 1_555
C1_3 C2_3 1_555 1_555
O2_3 C5_3 1_555 1_555
C2_3 C3_3 1_555 1_555
C3_3 H1_3 1_555 1_555
O4_3 C18_3 1_555 1_555
C4_3 C3_3 1_555 1_555
H2_3 C4_3 1_555 1_555
C5_3 C4_3 1_555 1_555
O6_3 C26_3 1_555 1_555
C6_3 C5_3 1_555 1_555
H3_3 C6_3 1_555 1_555
C7_3 C2_3 1_555 1_555
H4_3 C7_3 1_555 1_555
C8_3 O2_3 1_555 1_555
H5_3 C8_3 1_555 1_555
H6_3 C8_3 1_555 1_555
C9_3 C8_3 1_555 1_555
O8_3 C1_3 1_555 1_555
C10_3 C9_3 1_555 1_555
H7_3 C10_3 1_555 1_555
H8_3 C10_3 1_555 1_555
C11_3 O1_3 1_555 1_555
C12_3 C11_3 1_555 1_555
H9_3 C12_3 1_555 1_555
C16_3 C11_3 1_555 1_555
H12_3 C16_3 1_555 1_555
C18_3 C9_3 1_555 1_555
H13_3 C18_3 1_555 1_555
H14_3 C18_3 1_555 1_555
C19_3 O4_3 1_555 1_555
C20_3 C19_3 1_555 1_555
H15_3 C20_3 1_555 1_555
O11_3 C1_3 1_555 1_555
C21_3 C20_3 1_555 1_555
H16_3 C21_3 1_555 1_555
C22_3 C21_3 1_555 1_555
C23_3 C22_3 1_555 1_555
H17_3 C23_3 1_555 1_555
C24_3 C19_3 1_555 1_555
H18_3 C24_3 1_555 1_555
C26_3 C9_3 1_555 1_555
H19_3 C26_3 1_555 1_555
H20_3 C26_3 1_555 1_555
O14_2 Zn4 1_555 1_555
C6_3 C7_3 1_555 1_555
C23_3 C24_3 1_555 1_555
O13_2 C25_3 1_555 1_555
O7_3 C25_3 1_555 1_555
O14_2 C17_3 1_555 1_555
H10_3 C13_3 1_555 1_555
C14_3 C13_3 1_555 1_555
C15_3 C14_3 1_555 1_555
H11_3 C15_3 1_555 1_555
C17_3 C14_3 1_555 1_555
O12_3 C17_3 1_555 1_555
O9_3 C33_3 1_555 1_555
O15 C33_3 1_555 1_555
C28_3 C27_3 1_555 1_555
H21_3 C28_3 1_555 1_555
C29_3 C28_3 1_555 1_555
H22_3 C29_3 1_555 1_555
C30_3 C29_3 1_555 1_555
C31_3 C30_3 1_555 1_555
H23_3 C31_3 1_555 1_555
C32_3 C27_3 1_555 1_555
H24_3 C32_3 1_555 1_555
C33_3 C30_3 1_555 1_555
C31_3 C32_3 1_555 1_555
O13 C25_4 1_555 1_555
O7_4 C25_4 1_555 1_555
O1_4 C10_4 1_555 1_555
O2_4 C5_4 1_555 1_555
O4_4 C18_4 1_555 1_555
C4_4 C3_4 1_555 1_555
H2_4 C4_4 1_555 1_555
O5_2 C17_4 1_555 1_555
C5_4 C4_4 1_555 1_555
O6_4 C26_4 1_555 1_555
C6_4 C5_4 1_555 1_555
H3_4 C6_4 1_555 1_555
C8_4 O2_4 1_555 1_555
H5_4 C8_4 1_555 1_555
H6_4 C8_4 1_555 1_555
C9_4 C8_4 1_555 1_555
C10_4 C9_4 1_555 1_555
H7_4 C10_4 1_555 1_555
H8_4 C10_4 1_555 1_555
C11_4 O1_4 1_555 1_555
O9_4 C33_4 1_555 1_555
C12_4 C11_4 1_555 1_555
H9_4 C12_4 1_555 1_555
C13_4 C12_4 1_555 1_555
H10_4 C13_4 1_555 1_555
O15_2 C33_4 1_555 1_555
C14_4 C13_4 1_555 1_555
C15_4 C14_4 1_555 1_555
H11_4 C15_4 1_555 1_555
C16_4 C11_4 1_555 1_555
H12_4 C16_4 1_555 1_555
C17_4 C14_4 1_555 1_555
C18_4 C9_4 1_555 1_555
H13_4 C18_4 1_555 1_555
H14_4 C18_4 1_555 1_555
C19_4 O4_4 1_555 1_555
C20_4 C19_4 1_555 1_555
H15_4 C20_4 1_555 1_555
C21_4 C20_4 1_555 1_555
H16_4 C21_4 1_555 1_555
C22_4 C21_4 1_555 1_555
C23_4 C22_4 1_555 1_555
H17_4 C23_4 1_555 1_555
C24_4 C19_4 1_555 1_555
H18_4 C24_4 1_555 1_555
C26_4 C9_4 1_555 1_555
H19_4 C26_4 1_555 1_555
H20_4 C26_4 1_555 1_555
C27_4 O6_4 1_555 1_555
C28_4 C27_4 1_555 1_555
H21_4 C28_4 1_555 1_555
C29_4 C28_4 1_555 1_555
H22_4 C29_4 1_555 1_555
C30_4 C29_4 1_555 1_555
C31_4 C30_4 1_555 1_555
H23_4 C31_4 1_555 1_555
C32_4 C27_4 1_555 1_555
H24_4 C32_4 1_555 1_555
C33_4 C30_4 1_555 1_555
O12_4 C17_4 1_555 1_555
Zn2 O5_2 1_555 1_555
C15_4 C16_4 1_555 1_555
C23_4 C24_4 1_555 1_555
C31_4 C32_4 1_555 1_555
Zn2 O8_4 1_555 1_555
C1_4 C2_4 1_555 1_555
C7_4 C2_4 1_555 1_555
H4_4 C7_4 1_555 1_555
O8_4 C1_4 1_555 1_555
O11_4 C1_4 1_555 1_555
O9_5 C33_5 1_555 1_555
O10_3 C33_5 1_555 1_555
C28_5 C27_5 1_555 1_555
H21_5 C28_5 1_555 1_555
C29_5 C28_5 1_555 1_555
H22_5 C29_5 1_555 1_555
C30_5 C29_5 1_555 1_555
C31_5 C30_5 1_555 1_555
H23_5 C31_5 1_555 1_555
C32_5 C27_5 1_555 1_555
H24_5 C32_5 1_555 1_555
C33_5 C30_5 1_555 1_555
Zn4_2 O10_3 1_555 1_555
C31_5 C32_5 1_555 1_555
O5_3 C17_5 1_555 1_555
H10_5 C13_5 1_555 1_555
C14_5 C13_5 1_555 1_555
C15_5 C14_5 1_555 1_555
H11_5 C15_5 1_555 1_555
C17_5 C14_5 1_555 1_555
O12_5 C17_5 1_555 1_555
Zn3_2 O5_3 1_555 1_555
O3_3 C25_5 1_555 1_555
O7_5 C25_5 1_555 1_555
Zn2_2 O3_3 1_555 1_555
Zn3_2 O8_5 1_555 1_555
O1_5 C10_5 1_555 1_555
C1_5 C2_5 1_555 1_555
O2_5 C5_5 1_555 1_555
C2_5 C3_5 1_555 1_555
C3_5 H1_5 1_555 1_555
O4_5 C18_5 1_555 1_555
C4_5 C3_5 1_555 1_555
H2_5 C4_5 1_555 1_555
C5_5 C4_5 1_555 1_555
O6_5 C26_5 1_555 1_555
C6_5 C5_5 1_555 1_555
H3_5 C6_5 1_555 1_555
C7_5 C2_5 1_555 1_555
H4_5 C7_5 1_555 1_555
C8_5 O2_5 1_555 1_555
H5_5 C8_5 1_555 1_555
H6_5 C8_5 1_555 1_555
C9_5 C8_5 1_555 1_555
O8_5 C1_5 1_555 1_555
C10_5 C9_5 1_555 1_555
H7_5 C10_5 1_555 1_555
H8_5 C10_5 1_555 1_555
C11_5 O1_5 1_555 1_555
C12_5 C11_5 1_555 1_555
H9_5 C12_5 1_555 1_555
C16_5 C11_5 1_555 1_555
H12_5 C16_5 1_555 1_555
C18_5 C9_5 1_555 1_555
H13_5 C18_5 1_555 1_555
H14_5 C18_5 1_555 1_555
C19_5 O4_5 1_555 1_555
C20_5 C19_5 1_555 1_555
H15_5 C20_5 1_555 1_555
O11_5 C1_5 1_555 1_555
C21_5 C20_5 1_555 1_555
H16_5 C21_5 1_555 1_555
C22_5 C21_5 1_555 1_555
C23_5 C22_5 1_555 1_555
H17_5 C23_5 1_555 1_555
C24_5 C19_5 1_555 1_555
H18_5 C24_5 1_555 1_555
C26_5 C9_5 1_555 1_555
H19_5 C26_5 1_555 1_555
H20_5 C26_5 1_555 1_555
O13_3 Zn3_2 1_555 1_555
O15_3 Zn3_2 1_555 1_555
C6_5 C7_5 1_555 1_555
C23_5 C24_5 1_555 1_555
Zn1_2 O8_6 1_555 1_555
C1_6 C2_6 1_555 1_555
C7_6 C2_6 1_555 1_555
H4_6 C7_6 1_555 1_555
O8_6 C1_6 1_555 1_555
O11_6 C1_6 1_555 1_555
O13_4 Zn1_2 1_555 1_555
O14_3 Zn1_2 1_555 1_555
O15_4 Zn1_2 1_555 1_555
O1_6 C10_6 1_555 1_555
O2_6 C5_6 1_555 1_555
O4_6 C18_6 1_555 1_555
C4_6 C3_6 1_555 1_555
H2_6 C4_6 1_555 1_555
O14_3 C17_6 1_555 1_555
C5_6 C4_6 1_555 1_555
O6_6 C26_6 1_555 1_555
C6_6 C5_6 1_555 1_555
H3_6 C6_6 1_555 1_555
C8_6 O2_6 1_555 1_555
H5_6 C8_6 1_555 1_555
H6_6 C8_6 1_555 1_555
C9_6 C8_6 1_555 1_555
C10_6 C9_6 1_555 1_555
H7_6 C10_6 1_555 1_555
H8_6 C10_6 1_555 1_555
C11_6 O1_6 1_555 1_555
O9_6 C33_6 1_555 1_555
C12_6 C11_6 1_555 1_555
H9_6 C12_6 1_555 1_555
C13_6 C12_6 1_555 1_555
H10_6 C13_6 1_555 1_555
O10_4 C33_6 1_555 1_555
C14_6 C13_6 1_555 1_555
C15_6 C14_6 1_555 1_555
H11_6 C15_6 1_555 1_555
C16_6 C11_6 1_555 1_555
H12_6 C16_6 1_555 1_555
C17_6 C14_6 1_555 1_555
C18_6 C9_6 1_555 1_555
H13_6 C18_6 1_555 1_555
H14_6 C18_6 1_555 1_555
C19_6 O4_6 1_555 1_555
C20_6 C19_6 1_555 1_555
H15_6 C20_6 1_555 1_555
C21_6 C20_6 1_555 1_555
H16_6 C21_6 1_555 1_555
C22_6 C21_6 1_555 1_555
C23_6 C22_6 1_555 1_555
H17_6 C23_6 1_555 1_555
C24_6 C19_6 1_555 1_555
H18_6 C24_6 1_555 1_555
C26_6 C9_6 1_555 1_555
H19_6 C26_6 1_555 1_555
H20_6 C26_6 1_555 1_555
C27_6 O6_6 1_555 1_555
C28_6 C27_6 1_555 1_555
H21_6 C28_6 1_555 1_555
C29_6 C28_6 1_555 1_555
H22_6 C29_6 1_555 1_555
C30_6 C29_6 1_555 1_555
C31_6 C30_6 1_555 1_555
H23_6 C31_6 1_555 1_555
C32_6 C27_6 1_555 1_555
H24_6 C32_6 1_555 1_555
C33_6 C30_6 1_555 1_555
O12_6 C17_6 1_555 1_555
Zn2_2 O10_4 1_555 1_555
C15_6 C16_6 1_555 1_555
C23_6 C24_6 1_555 1_555
C31_6 C32_6 1_555 1_555
O3_4 C25_6 1_555 1_555
O7_6 C25_6 1_555 1_555
Zn4_2 O3_4 1_555 1_555
O1_7 C10_7 1_555 1_555
O2_7 C5_7 1_555 1_555
O13_4 C25_7 1_555 1_555
O4_7 C18_7 1_555 1_555
C4_7 C3_7 1_555 1_555
H2_7 C4_7 1_555 1_555
O5_4 C17_7 1_555 1_555
C5_7 C4_7 1_555 1_555
O6_7 C26_7 1_555 1_555
C6_7 C5_7 1_555 1_555
H3_7 C6_7 1_555 1_555
O7_7 C25_7 1_555 1_555
C8_7 O2_7 1_555 1_555
H5_7 C8_7 1_555 1_555
H6_7 C8_7 1_555 1_555
C9_7 C8_7 1_555 1_555
C10_7 C9_7 1_555 1_555
H7_7 C10_7 1_555 1_555
H8_7 C10_7 1_555 1_555
C11_7 O1_7 1_555 1_555
O9_7 C33_7 1_555 1_555
C12_7 C11_7 1_555 1_555
H9_7 C12_7 1_555 1_555
C13_7 C12_7 1_555 1_555
H10_7 C13_7 1_555 1_555
O15_3 C33_7 1_555 1_555
C14_7 C13_7 1_555 1_555
C15_7 C14_7 1_555 1_555
H11_7 C15_7 1_555 1_555
C16_7 C11_7 1_555 1_555
H12_7 C16_7 1_555 1_555
C17_7 C14_7 1_555 1_555
C18_7 C9_7 1_555 1_555
H13_7 C18_7 1_555 1_555
H14_7 C18_7 1_555 1_555
C19_7 O4_7 1_555 1_555
C20_7 C19_7 1_555 1_555
H15_7 C20_7 1_555 1_555
C21_7 C20_7 1_555 1_555
H16_7 C21_7 1_555 1_555
C22_7 C21_7 1_555 1_555
C23_7 C22_7 1_555 1_555
H17_7 C23_7 1_555 1_555
C24_7 C19_7 1_555 1_555
H18_7 C24_7 1_555 1_555
C25_7 C22_7 1_555 1_555
C26_7 C9_7 1_555 1_555
H19_7 C26_7 1_555 1_555
H20_7 C26_7 1_555 1_555
C27_7 O6_7 1_555 1_555
C28_7 C27_7 1_555 1_555
H21_7 C28_7 1_555 1_555
C29_7 C28_7 1_555 1_555
H22_7 C29_7 1_555 1_555
C30_7 C29_7 1_555 1_555
C31_7 C30_7 1_555 1_555
H23_7 C31_7 1_555 1_555
C32_7 C27_7 1_555 1_555
H24_7 C32_7 1_555 1_555
C33_7 C30_7 1_555 1_555
O12_7 C17_7 1_555 1_555
Zn4_2 O5_4 1_555 1_555
C15_7 C16_7 1_555 1_555
C23_7 C24_7 1_555 1_555
C31_7 C32_7 1_555 1_555
Zn4_2 O8_7 1_555 1_555
C1_7 C2_7 1_555 1_555
C7_7 C2_7 1_555 1_555
H4_7 C7_7 1_555 1_555
O8_7 C1_7 1_555 1_555
O11_7 C1_7 1_555 1_555
O9_8 C33_8 1_555 1_555
O15_4 C33_8 1_555 1_555
C28_8 C27_8 1_555 1_555
H21_8 C28_8 1_555 1_555
C29_8 C28_8 1_555 1_555
H22_8 C29_8 1_555 1_555
C30_8 C29_8 1_555 1_555
C31_8 C30_8 1_555 1_555
H23_8 C31_8 1_555 1_555
C32_8 C27_8 1_555 1_555
H24_8 C32_8 1_555 1_555
C33_8 C30_8 1_555 1_555
C31_8 C32_8 1_555 1_555
Zn2_2 O8_8 1_555 1_555
O1_8 C10_8 1_555 1_555
C1_8 C2_8 1_555 1_555
O2_8 C5_8 1_555 1_555
C2_8 C3_8 1_555 1_555
O13_3 C25_8 1_555 1_555
C3_8 H1_8 1_555 1_555
O4_8 C18_8 1_555 1_555
C4_8 C3_8 1_555 1_555
H2_8 C4_8 1_555 1_555
C5_8 C4_8 1_555 1_555
O6_8 C26_8 1_555 1_555
C6_8 C5_8 1_555 1_555
H3_8 C6_8 1_555 1_555
O7_8 C25_8 1_555 1_555
C7_8 C2_8 1_555 1_555
H4_8 C7_8 1_555 1_555
C8_8 O2_8 1_555 1_555
H5_8 C8_8 1_555 1_555
H6_8 C8_8 1_555 1_555
C9_8 C8_8 1_555 1_555
O8_8 C1_8 1_555 1_555
C10_8 C9_8 1_555 1_555
H7_8 C10_8 1_555 1_555
H8_8 C10_8 1_555 1_555
C11_8 O1_8 1_555 1_555
C12_8 C11_8 1_555 1_555
H9_8 C12_8 1_555 1_555
C16_8 C11_8 1_555 1_555
H12_8 C16_8 1_555 1_555
C18_8 C9_8 1_555 1_555
H13_8 C18_8 1_555 1_555
H14_8 C18_8 1_555 1_555
C19_8 O4_8 1_555 1_555
C20_8 C19_8 1_555 1_555
H15_8 C20_8 1_555 1_555
O11_8 C1_8 1_555 1_555
C21_8 C20_8 1_555 1_555
H16_8 C21_8 1_555 1_555
C22_8 C21_8 1_555 1_555
C23_8 C22_8 1_555 1_555
H17_8 C23_8 1_555 1_555
C24_8 C19_8 1_555 1_555
H18_8 C24_8 1_555 1_555
C25_8 C22_8 1_555 1_555
C26_8 C9_8 1_555 1_555
H19_8 C26_8 1_555 1_555
H20_8 C26_8 1_555 1_555
O14_4 Zn2_2 1_555 1_555
C6_8 C7_8 1_555 1_555
C23_8 C24_8 1_555 1_555
O14_4 C17_8 1_555 1_555
H10_8 C13_8 1_555 1_555
C14_8 C13_8 1_555 1_555
C15_8 C14_8 1_555 1_555
H11_8 C15_8 1_555 1_555
C17_8 C14_8 1_555 1_555
O12_8 C17_8 1_555 1_555

#END
