
###############################################################################
#
# This file contains modified crystal structure data generated from the
# MOF subset of the Cambridge Structural Database (CSD) v543 
# hosted by the Cambridge Crystallographic Data Centre (CCDC).
#
# This work is licensed under the Creative Commons
# Attribution-NonCommercial-ShareAlike 4.0 International License.
# To view a copy of this license, visit
# http://creativecommons.org/licenses/by-nc-sa/4.0/
# or send a letter to
# Creative Commons, PO Box 1866, Mountain View, CA 94042, USA.
#
# CIF created using the CSD Python API on 29 September 2022
# The structure has been converted into the P1 space group
# The structure has a 3D framework
# The original CSD entry PURNIB is in the monoclinic crystal system
# The framework has been calculated to contain at least 10.0% void space
# The void calculation uses a probe of radius 1.32A, grid spacing 0.4
#
###############################################################################

data_PURNIB
_chemical_formula_moiety         '(C96 H80 Cu8 K6 N32 O160 Si6 W48 2+)n'
_symmetry_cell_setting           triclinic
_symmetry_space_group_name_H-M   'P 1'
_symmetry_Int_Tables_number      1
_space_group_name_Hall           'P 1'
loop_
_symmetry_equiv_pos_site_id
_symmetry_equiv_pos_as_xyz
1 x,y,z
_cell_length_a                   24.5800(12)
_cell_length_b                   10.4454(4)
_cell_length_c                   22.4777(9)
_cell_angle_alpha                90
_cell_angle_beta                 98.322(4)
_cell_angle_gamma                90
_cell_volume                     5710.33
loop_
_atom_site_label
_atom_site_type_symbol
_atom_site_fract_x
_atom_site_fract_y
_atom_site_fract_z
K1 K 0.5000 0.1762(4) 0.2500
K1_2 K -0.0000 0.6762(4) 0.2500
K1_3 K 1.0000 0.6762(4) 0.2500
K1_4 K 0.5000 0.8238(4) 0.7500
K1_5 K 0.0000 0.3238(4) 0.7500
K1_6 K 1.0000 0.3238(4) 0.7500
Cu6 Cu 0.06445(7) 0.67184(14) 0.47013(7)
O4 O 0.3647(4) 0.0291(9) 0.3096(4)
O7 O 0.4164(4) 0.0039(8) 0.2068(4)
O18 O 0.4383(4) 0.0280(8) 0.0893(3)
Cu1 Cu 0.43555(7) 0.17184(14) 0.02987(7)
N1 N 0.3578(3) 0.1398(9) 0.0036(4)
C1 C 0.3255(4) 0.0615(9) 0.0333(3)
H1 H 0.3362 0.0223 0.0703
O26 O 0.6353(4) 0.0291(9) 0.1904(4)
O29 O 0.5836(4) 0.0039(8) 0.2932(4)
O38 O 0.5617(4) 0.0280(8) 0.4107(3)
Cu2 Cu 0.56445(7) 0.17184(14) 0.47013(7)
N5 N 0.6422(3) 0.1398(9) 0.4964(4)
C13 C 0.6745(4) 0.0615(9) 0.4667(3)
H11 H 0.6638 0.0223 0.4297
N6 N 0.7252(4) 0.0513(9) 0.5015(4)
C14 C 0.7244(4) 0.1234(11) 0.5526(4)
H12 H 0.7533 0.1333 0.5838
C15 C 0.6731(4) 0.1781(10) 0.5495(4)
H13 H 0.6613 0.2315 0.5782
C17 C 0.8221(5) 0.0098(15) 0.5111(7)
H14 H 0.8287 0.0816 0.5355
O42 O 0.5632(4) 0.2959(8) 0.5390(4)
O43 O 0.4226(4) 0.3261(8) 0.0965(4)
O44 O 0.5774(4) 0.3261(8) 0.4035(4)
N9 N 0.5159(4) 0.1759(8) 0.0426(4)
N10 N 0.4841(4) 0.1759(8) 0.4574(4)
N2 N 0.2748(4) 0.0513(9) 0.9985(4)
C2 C 0.2756(4) 0.1234(11) 0.9474(4)
H2 H 0.2467 0.1333 0.9162
C3 C 0.3269(4) 0.1781(10) 0.9505(4)
H3 H 0.3387 0.2315 0.9218
C5 C 0.1779(5) 0.0098(15) 0.9889(7)
H4 H 0.1713 0.0816 0.9645
O41 O 0.4368(4) 0.2959(8) 0.9610(4)
W1 W 0.36112(3) 0.68690(5) 0.17895(2)
W2 W 0.54480(3) 0.66486(5) 0.10821(2)
W3 W 0.45818(2) 0.43756(5) 0.14310(2)
W4 W 0.44853(2) 0.91431(5) 0.14627(2)
W5 W 0.41040(3) 0.44076(6) 0.29176(3)
W6 W 0.40607(3) 0.91184(6) 0.28033(3)
Si1 Si 0.5000 0.6791(4) 0.2500
O1 O 0.2965(4) 0.6489(8) 0.1457(4)
O2 O 0.3817(4) 0.8206(8) 0.1262(4)
O3 O 0.3468(4) 0.8184(8) 0.2338(4)
O5 O 0.3596(5) 0.3219(9) 0.2953(4)
O6 O 0.5876(4) 0.7824(8) 0.1574(4)
O8 O 0.3699(4) 0.5704(8) 0.2453(4)
O9 O 0.5955(4) 0.5339(8) 0.1355(4)
O10 O 0.4734(4) 0.3512(8) 0.3351(4)
O11 O 0.4846(4) 0.7826(8) 0.1084(4)
O12 O 0.5180(4) 0.5893(8) 0.1961(3)
O13 O 0.4377(4) 0.3912(8) 0.2182(4)
O14 O 0.4921(4) 0.5322(8) 0.0834(4)
O15 O 0.5186(4) 0.9613(8) 0.1854(4)
O16 O 0.4481(4) 0.7690(7) 0.2224(3)
O17 O 0.4050(4) 0.5709(8) 0.1403(4)
O19 O 0.5632(4) 0.7041(8) 0.0390(4)
C4 C 0.2311(6) 0.9771(12) 0.0136(6)
C6 C 0.2399(8) 0.8722(13) 0.0521(6)
H5 H 0.2755 0.8525 0.0698
N3 N 0.0159(4) 0.6759(8) 0.0426(4)
C7 C 0.0467(4) 0.7801(8) 0.0346(4)
H6 H 0.0334 0.8608 0.0226
N4 N 0.1003(4) 0.7461(8) 0.0470(4)
C8 C 0.1025(4) 0.6210(8) 0.0628(4)
H7 H 0.1344 0.5732 0.0736
C9 C 0.0504(4) 0.5776(8) 0.0600(4)
H8 H 0.0400 0.4947 0.0686
C10 C 0.1447(5) 0.8281(11) 0.0382(5)
C11 C 0.1355(7) 0.9342(12) 0.0011(6)
C12 C 0.1979(6) 0.7990(15) 0.0640(7)
H10 H 0.2045 0.7289 0.0895
O21 O 0.4820(4) 0.5893(8) 0.3039(3)
O22 O 0.5519(4) 0.7690(7) 0.2776(3)
W7 W 0.63888(3) 0.68690(5) 0.32105(2)
W8 W 0.45520(3) 0.66486(5) 0.39179(2)
W9 W 0.54182(2) 0.43756(5) 0.35690(2)
W10 W 0.55147(2) 0.91431(5) 0.35373(2)
W11 W 0.58960(3) 0.44076(6) 0.20824(3)
W12 W 0.59393(3) 0.91184(6) 0.21967(3)
O23 O 0.7035(4) 0.6489(8) 0.3543(4)
O24 O 0.6183(4) 0.8206(8) 0.3738(4)
O25 O 0.6532(4) 0.8184(8) 0.2662(4)
O27 O 0.6404(5) 0.3219(9) 0.2047(4)
O28 O 0.4124(4) 0.7824(8) 0.3426(4)
O30 O 0.6301(4) 0.5704(8) 0.2547(4)
O31 O 0.4045(4) 0.5339(8) 0.3645(4)
O32 O 0.5266(4) 0.3512(8) 0.1649(4)
O33 O 0.5154(4) 0.7826(8) 0.3916(4)
O34 O 0.5623(4) 0.3912(8) 0.2818(4)
O35 O 0.5079(4) 0.5322(8) 0.4166(4)
O36 O 0.4814(4) 0.9613(8) 0.3146(4)
O37 O 0.5950(4) 0.5709(8) 0.3597(4)
O39 O 0.4368(4) 0.7041(8) 0.4610(4)
C16 C 0.7689(6) 0.9771(12) 0.4864(6)
C18 C 0.7601(8) 0.8722(13) 0.4479(6)
H15 H 0.7245 0.8525 0.4302
N7 N 0.9841(4) 0.6759(8) 0.4574(4)
C19 C 0.9533(4) 0.7801(8) 0.4654(4)
H16 H 0.9666 0.8608 0.4774
N8 N 0.8997(4) 0.7461(8) 0.4530(4)
C20 C 0.8975(4) 0.6210(8) 0.4372(4)
H17 H 0.8656 0.5732 0.4264
C21 C 0.9496(4) 0.5776(8) 0.4400(4)
H18 H 0.9600 0.4947 0.4314
C22 C 0.8553(5) 0.8281(11) 0.4618(5)
C23 C 0.8645(7) 0.9342(12) 0.4989(6)
H19 H 0.9002 0.9544 0.5158
C24 C 0.8021(6) 0.7990(15) 0.4360(7)
H20 H 0.7955 0.7289 0.4105
Cu8 Cu 0.43555(7) 0.82816(14) 0.52987(7)
H9 H 0.0998 0.9544 0.9842
Cu7 Cu 0.56445(7) 0.82816(14) 0.97013(7)
Cu5 Cu 0.93555(7) 0.67184(14) 0.02987(7)
W2_2 W 0.04480(3) 0.16486(5) 0.10821(2)
Si1_2 Si -0.0000 0.1791(4) 0.2500
O6_2 O 0.0876(4) 0.2824(8) 0.1574(4)
O9_2 O 0.0955(4) 0.0339(8) 0.1355(4)
O12_2 O 0.0180(4) 0.0893(8) 0.1961(3)
O15_2 O 0.0186(4) 0.4613(8) 0.1854(4)
O19_2 O 0.0632(4) 0.2041(8) 0.0390(4)
O22_2 O 0.0519(4) 0.2690(7) 0.2776(3)
W7_2 W 0.13888(3) 0.18690(5) 0.32105(2)
W10_2 W 0.05147(2) 0.41431(5) 0.35373(2)
W12_2 W 0.09393(3) 0.41184(6) 0.21967(3)
O23_2 O 0.2035(4) 0.1489(8) 0.3543(4)
O24_2 O 0.1183(4) 0.3206(8) 0.3738(4)
O25_2 O 0.1532(4) 0.3184(8) 0.2662(4)
O26_2 O 0.1353(4) 0.5291(9) 0.1904(4)
O29_2 O 0.0836(4) 0.5039(8) 0.2932(4)
O30_2 O 0.1301(4) 0.0704(8) 0.2547(4)
O33_2 O 0.0154(4) 0.2826(8) 0.3916(4)
O35_2 O 0.0079(4) 0.0322(8) 0.4166(4)
O37_2 O 0.0950(4) 0.0709(8) 0.3597(4)
O38_2 O 0.0617(4) 0.5280(8) 0.4107(3)
N5_2 N 0.1422(3) 0.6398(9) 0.4964(4)
C13_2 C 0.1745(4) 0.5615(9) 0.4667(3)
H11_2 H 0.1638 0.5223 0.4297
N6_2 N 0.2252(4) 0.5513(9) 0.5015(4)
C14_2 C 0.2244(4) 0.6234(11) 0.5526(4)
H12_2 H 0.2533 0.6333 0.5838
C15_2 C 0.1731(4) 0.6781(10) 0.5495(4)
H13_2 H 0.1613 0.7315 0.5782
C16_2 C 0.2689(6) 0.4771(12) 0.4864(6)
C17_2 C 0.3221(5) 0.5098(15) 0.5111(7)
H14_2 H 0.3287 0.5816 0.5355
C18_2 C 0.2601(8) 0.3722(13) 0.4479(6)
H15_2 H 0.2245 0.3525 0.4302
C19_2 C 0.4533(4) 0.2801(8) 0.4654(4)
H16_2 H 0.4666 0.3608 0.4774
N8_2 N 0.3997(4) 0.2461(8) 0.4530(4)
C20_2 C 0.3975(4) 0.1210(8) 0.4372(4)
H17_2 H 0.3656 0.0732 0.4264
C21_2 C 0.4496(4) 0.0776(8) 0.4400(4)
C22_2 C 0.3553(5) 0.3281(11) 0.4618(5)
C23_2 C 0.3645(7) 0.4342(12) 0.4989(6)
H19_2 H 0.4002 0.4544 0.5158
C24_2 C 0.3021(6) 0.2990(15) 0.4360(7)
H20_2 H 0.2955 0.2289 0.4105
O42_2 O 0.0632(4) 0.7959(8) 0.5390(4)
O44_2 O 0.0774(4) 0.8261(8) 0.4035(4)
Cu7_2 Cu 0.06445(7) 0.32816(14) 0.97013(7)
W9_2 W 0.04182(2) 0.93756(5) 0.35690(2)
W11_2 W 0.08960(3) 0.94076(6) 0.20824(3)
O27_2 O 0.1404(5) 0.8219(9) 0.2047(4)
O32_2 O 0.0266(4) 0.8512(8) 0.1649(4)
O34_2 O 0.0623(4) 0.8912(8) 0.2818(4)
H18_2 H 0.4600 0.9947 0.4314
W1_2 W 0.86112(3) 0.18690(5) 0.17895(2)
W4_2 W 0.94853(2) 0.41431(5) 0.14627(2)
W6_2 W 0.90607(3) 0.41184(6) 0.28033(3)
Si1_3 Si 1.0000 0.1791(4) 0.2500
O1_2 O 0.7965(4) 0.1489(8) 0.1457(4)
O2_2 O 0.8817(4) 0.3206(8) 0.1262(4)
O3_2 O 0.8468(4) 0.3184(8) 0.2338(4)
O4_2 O 0.8647(4) 0.5291(9) 0.3096(4)
O7_2 O 0.9164(4) 0.5039(8) 0.2068(4)
O8_2 O 0.8699(4) 0.0704(8) 0.2453(4)
O11_2 O 0.9846(4) 0.2826(8) 0.1084(4)
O14_2 O 0.9921(4) 0.0322(8) 0.0834(4)
O16_2 O 0.9481(4) 0.2690(7) 0.2224(3)
O17_2 O 0.9050(4) 0.0709(8) 0.1403(4)
O18_2 O 0.9383(4) 0.5280(8) 0.0893(3)
N1_2 N 0.8578(3) 0.6398(9) 0.0036(4)
C1_2 C 0.8255(4) 0.5615(9) 0.0333(3)
H1_2 H 0.8362 0.5223 0.0703
C4_2 C 0.7311(6) 0.4771(12) 0.0136(6)
C6_2 C 0.7399(8) 0.3722(13) 0.0521(6)
H5_2 H 0.7755 0.3525 0.0698
C7_2 C 0.5467(4) 0.2801(8) 0.0346(4)
H6_2 H 0.5334 0.3608 0.0226
N4_2 N 0.6003(4) 0.2461(8) 0.0470(4)
C8_2 C 0.6025(4) 0.1210(8) 0.0628(4)
H7_2 H 0.6344 0.0732 0.0736
C9_2 C 0.5504(4) 0.0776(8) 0.0600(4)
C10_2 C 0.6447(5) 0.3281(11) 0.0382(5)
C11_2 C 0.6355(7) 0.4342(12) 0.0011(6)
C12_2 C 0.6979(6) 0.2990(15) 0.0640(7)
H10_2 H 0.7045 0.2289 0.0895
O21_2 O 0.9820(4) 0.0893(8) 0.3039(3)
W8_2 W 0.95520(3) 0.16486(5) 0.39179(2)
O28_2 O 0.9124(4) 0.2824(8) 0.3426(4)
O31_2 O 0.9045(4) 0.0339(8) 0.3645(4)
O36_2 O 0.9814(4) 0.4613(8) 0.3146(4)
O39_2 O 0.9368(4) 0.2041(8) 0.4610(4)
O43_2 O 0.9226(4) 0.8261(8) 0.0965(4)
Cu8_2 Cu 0.93555(7) 0.32816(14) 0.52987(7)
N2_2 N 0.7748(4) 0.5513(9) 0.9985(4)
C2_2 C 0.7756(4) 0.6234(11) 0.9474(4)
H2_2 H 0.7467 0.6333 0.9162
C3_2 C 0.8269(4) 0.6781(10) 0.9505(4)
H3_2 H 0.8387 0.7315 0.9218
C5_2 C 0.6779(5) 0.5098(15) 0.9889(7)
H4_2 H 0.6713 0.5816 0.9645
H9_2 H 0.5998 0.4544 0.9842
O41_2 O 0.9368(4) 0.7959(8) 0.9610(4)
W3_2 W 0.95818(2) 0.93756(5) 0.14310(2)
W5_2 W 0.91040(3) 0.94076(6) 0.29176(3)
O5_2 O 0.8596(5) 0.8219(9) 0.2953(4)
O10_2 O 0.9734(4) 0.8512(8) 0.3351(4)
O13_2 O 0.9377(4) 0.8912(8) 0.2182(4)
H8_2 H 0.5400 0.9947 0.0686
H9_3 H 0.9002 0.0456 0.0158
W1_3 W 0.63888(3) 0.31310(5) 0.82105(2)
W2_3 W 0.45520(3) 0.33514(5) 0.89179(2)
W3_3 W 0.54182(2) 0.56244(5) 0.85690(2)
W4_3 W 0.55147(2) 0.08569(5) 0.85373(2)
W5_3 W 0.58960(3) 0.55924(6) 0.70824(3)
W6_3 W 0.59393(3) 0.08816(6) 0.71967(3)
Si1_4 Si 0.5000 0.3209(4) 0.7500
O1_3 O 0.7035(4) 0.3511(8) 0.8543(4)
O2_3 O 0.6183(4) 0.1794(8) 0.8738(4)
O3_3 O 0.6532(4) 0.1816(8) 0.7662(4)
O5_3 O 0.6404(5) 0.6781(9) 0.7047(4)
O6_3 O 0.4124(4) 0.2176(8) 0.8426(4)
O8_3 O 0.6301(4) 0.4296(8) 0.7547(4)
O9_3 O 0.4045(4) 0.4661(8) 0.8645(4)
O10_3 O 0.5266(4) 0.6488(8) 0.6649(4)
O11_3 O 0.5154(4) 0.2174(8) 0.8916(4)
O12_3 O 0.4820(4) 0.4107(8) 0.8039(3)
O13_3 O 0.5623(4) 0.6088(8) 0.7818(4)
O14_3 O 0.5079(4) 0.4678(8) 0.9166(4)
O15_3 O 0.4814(4) 0.0387(8) 0.8146(4)
O16_3 O 0.5519(4) 0.2310(7) 0.7776(3)
O17_3 O 0.5950(4) 0.4291(8) 0.8597(4)
O20 O 0.5774(4) 0.6739(8) 0.9035(4)
C4_3 C 0.7689(6) 0.0229(12) 0.9864(6)
C6_3 C 0.7601(8) 0.1278(13) 0.9479(6)
H5_3 H 0.7245 0.1475 0.9302
N3_2 N 0.9841(4) 0.3241(8) 0.9574(4)
C7_3 C 0.9533(4) 0.2199(8) 0.9654(4)
H6_3 H 0.9666 0.1392 0.9774
N4_3 N 0.8997(4) 0.2539(8) 0.9530(4)
C8_3 C 0.8975(4) 0.3790(8) 0.9372(4)
H7_3 H 0.8656 0.4268 0.9264
C9_3 C 0.9496(4) 0.4224(8) 0.9400(4)
H8_3 H 0.9600 0.5053 0.9314
C10_3 C 0.8553(5) 0.1719(11) 0.9618(5)
C11_3 C 0.8645(7) 0.0658(12) 0.9989(6)
C12_3 C 0.8021(6) 0.2010(15) 0.9360(7)
H10_3 H 0.7955 0.2711 0.9105
O21_3 O 0.5180(4) 0.4107(8) 0.6961(3)
O22_3 O 0.4481(4) 0.2310(7) 0.7224(3)
W7_3 W 0.36112(3) 0.31310(5) 0.67895(2)
W8_3 W 0.54480(3) 0.33514(5) 0.60821(2)
W9_3 W 0.45818(2) 0.56244(5) 0.64310(2)
W10_3 W 0.44853(2) 0.08569(5) 0.64627(2)
W11_3 W 0.41040(3) 0.55924(6) 0.79176(3)
W12_3 W 0.40607(3) 0.08816(6) 0.78033(3)
O23_3 O 0.2965(4) 0.3511(8) 0.6457(4)
O24_3 O 0.3817(4) 0.1794(8) 0.6262(4)
O25_3 O 0.3468(4) 0.1816(8) 0.7338(4)
O27_3 O 0.3596(5) 0.6781(9) 0.7953(4)
O28_3 O 0.5876(4) 0.2176(8) 0.6574(4)
O30_3 O 0.3699(4) 0.4296(8) 0.7453(4)
O31_3 O 0.5955(4) 0.4661(8) 0.6355(4)
O32_3 O 0.4734(4) 0.6488(8) 0.8351(4)
O33_3 O 0.4846(4) 0.2174(8) 0.6084(4)
O34_3 O 0.4377(4) 0.6088(8) 0.7182(4)
O35_3 O 0.4921(4) 0.4678(8) 0.5834(4)
O36_3 O 0.5186(4) 0.0387(8) 0.6854(4)
O37_3 O 0.4050(4) 0.4291(8) 0.6403(4)
O40 O 0.4226(4) 0.6739(8) 0.5965(4)
C16_3 C 0.2311(6) 0.0229(12) 0.5136(6)
C18_3 C 0.2399(8) 0.1278(13) 0.5521(6)
H15_3 H 0.2755 0.1475 0.5698
N7_2 N 0.0159(4) 0.3241(8) 0.5426(4)
C19_3 C 0.0467(4) 0.2199(8) 0.5346(4)
H16_3 H 0.0334 0.1392 0.5226
N8_3 N 0.1003(4) 0.2539(8) 0.5470(4)
C20_3 C 0.1025(4) 0.3790(8) 0.5628(4)
H17_3 H 0.1344 0.4268 0.5736
C21_3 C 0.0504(4) 0.4224(8) 0.5600(4)
H18_3 H 0.0400 0.5053 0.5686
C22_3 C 0.1447(5) 0.1719(11) 0.5382(5)
C23_3 C 0.1355(7) 0.0658(12) 0.5011(6)
H19_3 H 0.0998 0.0456 0.4842
C24_3 C 0.1979(6) 0.2010(15) 0.5640(7)
H20_3 H 0.2045 0.2711 0.5895
N2_3 N 0.7252(4) 0.9487(9) 0.0015(4)
C2_3 C 0.7244(4) 0.8766(11) 0.0526(4)
H2_3 H 0.7533 0.8667 0.0838
C3_3 C 0.6731(4) 0.8219(10) 0.0495(4)
H3_3 H 0.6613 0.7685 0.0782
C5_3 C 0.8221(5) 0.9902(15) 0.0111(7)
H4_3 H 0.8287 0.9184 0.0355
O4_3 O 0.6353(4) 0.9709(9) 0.6904(4)
O7_3 O 0.5836(4) 0.9961(8) 0.7932(4)
O18_3 O 0.5617(4) 0.9720(8) 0.9107(3)
N1_3 N 0.6422(3) 0.8602(9) 0.9964(4)
C1_3 C 0.6745(4) 0.9385(9) 0.9667(3)
H1_3 H 0.6638 0.9777 0.9297
O26_3 O 0.3647(4) 0.9709(9) 0.8096(4)
O29_3 O 0.4164(4) 0.9961(8) 0.7068(4)
O38_3 O 0.4383(4) 0.9720(8) 0.5893(3)
N5_3 N 0.3578(3) 0.8602(9) 0.5036(4)
C13_3 C 0.3255(4) 0.9385(9) 0.5333(3)
H11_3 H 0.3362 0.9777 0.5703
N6_3 N 0.2748(4) 0.9487(9) 0.4985(4)
C14_3 C 0.2756(4) 0.8766(11) 0.4474(4)
H12_3 H 0.2467 0.8667 0.4162
C15_3 C 0.3269(4) 0.8219(10) 0.4505(4)
H13_3 H 0.3387 0.7685 0.4218
C17_3 C 0.1779(5) 0.9902(15) 0.4889(7)
H14_3 H 0.1713 0.9184 0.4645
N9_2 N 0.4841(4) 0.8241(8) 0.9574(4)
N10_2 N 0.5159(4) 0.8241(8) 0.5426(4)
W3_4 W 0.04182(2) 0.06244(5) 0.85690(2)
W5_4 W 0.08960(3) 0.05924(6) 0.70824(3)
O5_4 O 0.1404(5) 0.1781(9) 0.7047(4)
O10_4 O 0.0266(4) 0.1488(8) 0.6649(4)
O13_4 O 0.0623(4) 0.1088(8) 0.7818(4)
O20_2 O 0.0774(4) 0.1739(8) 0.9035(4)
H8_4 H 0.4600 0.0053 0.9314
N2_4 N 0.2252(4) 0.4487(9) 0.0015(4)
C2_4 C 0.2244(4) 0.3766(11) 0.0526(4)
H2_4 H 0.2533 0.3667 0.0838
C3_4 C 0.1731(4) 0.3219(10) 0.0495(4)
H3_4 H 0.1613 0.2685 0.0782
C5_4 C 0.3221(5) 0.4902(15) 0.0111(7)
H4_4 H 0.3287 0.4184 0.0355
H9_4 H 0.4002 0.5456 0.0158
W1_4 W 0.13888(3) 0.81310(5) 0.82105(2)
W4_4 W 0.05147(2) 0.58569(5) 0.85373(2)
W6_4 W 0.09393(3) 0.58816(6) 0.71967(3)
Si1_5 Si 0.0000 0.8209(4) 0.7500
O1_4 O 0.2035(4) 0.8511(8) 0.8543(4)
O2_4 O 0.1183(4) 0.6794(8) 0.8738(4)
O3_4 O 0.1532(4) 0.6816(8) 0.7662(4)
O4_4 O 0.1353(4) 0.4709(9) 0.6904(4)
O7_4 O 0.0836(4) 0.4961(8) 0.7932(4)
O8_4 O 0.1301(4) 0.9296(8) 0.7547(4)
O11_4 O 0.0154(4) 0.7174(8) 0.8916(4)
O14_4 O 0.0079(4) 0.9678(8) 0.9166(4)
O16_4 O 0.0519(4) 0.7310(7) 0.7776(3)
O17_4 O 0.0950(4) 0.9291(8) 0.8597(4)
O18_4 O 0.0617(4) 0.4720(8) 0.9107(3)
N1_4 N 0.1422(3) 0.3602(9) 0.9964(4)
C1_4 C 0.1745(4) 0.4385(9) 0.9667(3)
H1_4 H 0.1638 0.4777 0.9297
C4_4 C 0.2689(6) 0.5229(12) 0.9864(6)
C6_4 C 0.2601(8) 0.6278(13) 0.9479(6)
H5_4 H 0.2245 0.6475 0.9302
C7_4 C 0.4533(4) 0.7199(8) 0.9654(4)
H6_4 H 0.4666 0.6392 0.9774
N4_4 N 0.3997(4) 0.7539(8) 0.9530(4)
C8_4 C 0.3975(4) 0.8790(8) 0.9372(4)
H7_4 H 0.3656 0.9268 0.9264
C9_4 C 0.4496(4) 0.9224(8) 0.9400(4)
C10_4 C 0.3553(5) 0.6719(11) 0.9618(5)
C11_4 C 0.3645(7) 0.5658(12) 0.9989(6)
C12_4 C 0.3021(6) 0.7010(15) 0.9360(7)
H10_4 H 0.2955 0.7711 0.9105
O21_4 O 0.0180(4) 0.9107(8) 0.6961(3)
W8_4 W 0.04480(3) 0.83514(5) 0.60821(2)
O28_4 O 0.0876(4) 0.7176(8) 0.6574(4)
O31_4 O 0.0955(4) 0.9661(8) 0.6355(4)
O36_4 O 0.0186(4) 0.5387(8) 0.6854(4)
W9_4 W 0.95818(2) 0.06244(5) 0.64310(2)
W11_4 W 0.91040(3) 0.05924(6) 0.79176(3)
O27_4 O 0.8596(5) 0.1781(9) 0.7953(4)
O32_4 O 0.9734(4) 0.1488(8) 0.8351(4)
O34_4 O 0.9377(4) 0.1088(8) 0.7182(4)
O40_2 O 0.9226(4) 0.1739(8) 0.5965(4)
H18_4 H 0.5400 0.0053 0.5686
W2_4 W 0.95520(3) 0.83514(5) 0.89179(2)
Si1_6 Si 1.0000 0.8209(4) 0.7500
O6_4 O 0.9124(4) 0.7176(8) 0.8426(4)
O9_4 O 0.9045(4) 0.9661(8) 0.8645(4)
O12_4 O 0.9820(4) 0.9107(8) 0.8039(3)
O15_4 O 0.9814(4) 0.5387(8) 0.8146(4)
O22_4 O 0.9481(4) 0.7310(7) 0.7224(3)
W7_4 W 0.86112(3) 0.81310(5) 0.67895(2)
W10_4 W 0.94853(2) 0.58569(5) 0.64627(2)
W12_4 W 0.90607(3) 0.58816(6) 0.78033(3)
O23_4 O 0.7965(4) 0.8511(8) 0.6457(4)
O24_4 O 0.8817(4) 0.6794(8) 0.6262(4)
O25_4 O 0.8468(4) 0.6816(8) 0.7338(4)
O26_4 O 0.8647(4) 0.4709(9) 0.8096(4)
O29_4 O 0.9164(4) 0.4961(8) 0.7068(4)
O30_4 O 0.8699(4) 0.9296(8) 0.7453(4)
O33_4 O 0.9846(4) 0.7174(8) 0.6084(4)
O35_4 O 0.9921(4) 0.9678(8) 0.5834(4)
O37_4 O 0.9050(4) 0.9291(8) 0.6403(4)
O38_4 O 0.9383(4) 0.4720(8) 0.5893(3)
N5_4 N 0.8578(3) 0.3602(9) 0.5036(4)
C13_4 C 0.8255(4) 0.4385(9) 0.5333(3)
H11_4 H 0.8362 0.4777 0.5703
N6_4 N 0.7748(4) 0.4487(9) 0.4985(4)
C14_4 C 0.7756(4) 0.3766(11) 0.4474(4)
H12_4 H 0.7467 0.3667 0.4162
C15_4 C 0.8269(4) 0.3219(10) 0.4505(4)
H13_4 H 0.8387 0.2685 0.4218
C16_4 C 0.7311(6) 0.5229(12) 0.5136(6)
C17_4 C 0.6779(5) 0.4902(15) 0.4889(7)
H14_4 H 0.6713 0.4184 0.4645
C18_4 C 0.7399(8) 0.6278(13) 0.5521(6)
H15_4 H 0.7755 0.6475 0.5698
C19_4 C 0.5467(4) 0.7199(8) 0.5346(4)
H16_4 H 0.5334 0.6392 0.5226
N8_4 N 0.6003(4) 0.7539(8) 0.5470(4)
C20_4 C 0.6025(4) 0.8790(8) 0.5628(4)
H17_4 H 0.6344 0.9268 0.5736
C21_4 C 0.5504(4) 0.9224(8) 0.5600(4)
C22_4 C 0.6447(5) 0.6719(11) 0.5382(5)
C23_4 C 0.6355(7) 0.5658(12) 0.5011(6)
H19_4 H 0.5998 0.5456 0.4842
C24_4 C 0.6979(6) 0.7010(15) 0.5640(7)
H20_4 H 0.7045 0.7711 0.5895
loop_
_geom_bond_atom_site_label_1
_geom_bond_atom_site_label_2
_geom_bond_site_symmetry_1
_geom_bond_site_symmetry_2
Cu1 O18 1_555 1_555
N1 Cu1 1_555 1_555
C1 N1 1_555 1_555
H1 C1 1_555 1_555
Cu2 O38 1_555 1_555
N5 Cu2 1_555 1_555
C13 N5 1_555 1_555
H11 C13 1_555 1_555
N6 C13 1_555 1_555
C14 N6 1_555 1_555
H12 C14 1_555 1_555
C15 N5 1_555 1_555
H13 C15 1_555 1_555
H14 C17 1_555 1_555
O42 Cu2 1_555 1_555
O43 Cu1 1_555 1_555
O44 Cu2 1_555 1_555
N9 Cu1 1_555 1_555
N10 Cu2 1_555 1_555
C14 C15 1_555 1_555
C2 N2 1_555 1_555
H2 C2 1_555 1_555
H3 C3 1_555 1_555
H4 C5 1_555 1_555
C2 C3 1_555 1_555
W1 O1 1_555 1_555
W2 O6 1_555 1_555
W3 O12 1_555 1_555
W4 O2 1_555 1_555
W5 O5 1_555 1_555
W6 O3 1_555 1_555
Si1 O12 1_555 1_555
O2 W1 1_555 1_555
O3 W1 1_555 1_555
O6 W12 1_555 1_555
O8 W1 1_555 1_555
O9 W2 1_555 1_555
O10 W5 1_555 1_555
O11 W2 1_555 1_555
O12 W2 1_555 1_555
O13 W3 1_555 1_555
O14 W2 1_555 1_555
O15 W4 1_555 1_555
O16 W1 1_555 1_555
O17 W1 1_555 1_555
O19 W2 1_555 1_555
O43 W3 1_555 1_555
C6 C4 1_555 1_555
H5 C6 1_555 1_555
N3 C7 1_555 1_555
C7 H6 1_555 1_555
N4 C7 1_555 1_555
C8 N4 1_555 1_555
H7 C8 1_555 1_555
C9 N3 1_555 1_555
H8 C9 1_555 1_555
C10 N4 1_555 1_555
C12 C6 1_555 1_555
H10 C12 1_555 1_555
O21 W5 1_555 1_555
O22 Si1 1_555 1_555
W7 O22 1_555 1_555
W8 O21 1_555 1_555
W9 O10 1_555 1_555
W10 O22 1_555 1_555
W11 O9 1_555 1_555
W12 O15 1_555 1_555
O23 W7 1_555 1_555
O24 W7 1_555 1_555
O25 W7 1_555 1_555
O27 W11 1_555 1_555
O28 W6 1_555 1_555
O30 W7 1_555 1_555
O31 W5 1_555 1_555
O32 W3 1_555 1_555
O33 W8 1_555 1_555
O34 W9 1_555 1_555
O35 W8 1_555 1_555
O36 W6 1_555 1_555
O37 W7 1_555 1_555
O39 W8 1_555 1_555
O44 W9 1_555 1_555
C18 C16 1_555 1_555
H15 C18 1_555 1_555
N7 C19 1_555 1_555
C19 H16 1_555 1_555
N8 C19 1_555 1_555
C20 N8 1_555 1_555
H17 C20 1_555 1_555
C21 N7 1_555 1_555
H18 C21 1_555 1_555
C22 N8 1_555 1_555
H19 C23 1_555 1_555
C24 C18 1_555 1_555
H20 C24 1_555 1_555
Cu8 O39 1_555 1_555
W3 O14 1_555 1_555
W3 O17 1_555 1_555
W4 O11 1_555 1_555
W4 O16 1_555 1_555
W5 O8 1_555 1_555
W5 O13 1_555 1_555
W6 O16 1_555 1_555
Si1 O16 1_555 1_555
Si1 O21 1_555 1_555
O12 W11 1_555 1_555
C8 C9 1_555 1_555
C10 C11 1_555 1_555
C10 C12 1_555 1_555
O21 W9 1_555 1_555
O22 W12 1_555 1_555
W8 O28 1_555 1_555
W8 O31 1_555 1_555
W9 O35 1_555 1_555
W9 O37 1_555 1_555
W10 O24 1_555 1_555
W10 O33 1_555 1_555
W10 O36 1_555 1_555
W11 O30 1_555 1_555
W11 O32 1_555 1_555
W11 O34 1_555 1_555
W12 O25 1_555 1_555
C20 C21 1_555 1_555
C22 C23 1_555 1_555
C22 C24 1_555 1_555
W2_2 O6_2 1_555 1_555
Si1_2 O12_2 1_555 1_555
O6_2 W12_2 1_555 1_555
O9_2 W2_2 1_555 1_555
O12_2 W2_2 1_555 1_555
O19_2 W2_2 1_555 1_555
O22_2 Si1_2 1_555 1_555
W7_2 O22_2 1_555 1_555
W10_2 O22_2 1_555 1_555
W12_2 O15_2 1_555 1_555
O23_2 W7_2 1_555 1_555
O24_2 W7_2 1_555 1_555
O25_2 W7_2 1_555 1_555
O26_2 W12_2 1_555 1_555
O29_2 W10_2 1_555 1_555
O30_2 W7_2 1_555 1_555
O37_2 W7_2 1_555 1_555
O38_2 W10_2 1_555 1_555
Cu6 O38_2 1_555 1_555
N5_2 Cu6 1_555 1_555
C13_2 N5_2 1_555 1_555
H11_2 C13_2 1_555 1_555
N6_2 C13_2 1_555 1_555
C14_2 N6_2 1_555 1_555
H12_2 C14_2 1_555 1_555
C15_2 N5_2 1_555 1_555
H13_2 C15_2 1_555 1_555
C16_2 N6_2 1_555 1_555
C17_2 C16_2 1_555 1_555
H14_2 C17_2 1_555 1_555
C18_2 C16_2 1_555 1_555
H15_2 C18_2 1_555 1_555
N10 C19_2 1_555 1_555
C19_2 H16_2 1_555 1_555
N8_2 C19_2 1_555 1_555
C20_2 N8_2 1_555 1_555
H17_2 C20_2 1_555 1_555
C21_2 N10 1_555 1_555
C22_2 N8_2 1_555 1_555
C23_2 C17_2 1_555 1_555
H19_2 C23_2 1_555 1_555
C24_2 C18_2 1_555 1_555
H20_2 C24_2 1_555 1_555
O42_2 Cu6 1_555 1_555
O44_2 Cu6 1_555 1_555
O22_2 W12_2 1_555 1_555
W10_2 O24_2 1_555 1_555
W10_2 O33_2 1_555 1_555
W12_2 O25_2 1_555 1_555
W12_2 O29_2 1_555 1_555
C14_2 C15_2 1_555 1_555
C20_2 C21_2 1_555 1_555
C22_2 C23_2 1_555 1_555
C22_2 C24_2 1_555 1_555
O27_2 W11_2 1_555 1_555
O34_2 W9_2 1_555 1_555
O44_2 W9_2 1_555 1_555
W11_2 O32_2 1_555 1_555
W11_2 O34_2 1_555 1_555
W1_2 O1_2 1_555 1_555
W4_2 O2_2 1_555 1_555
W6_2 O3_2 1_555 1_555
O2_2 W1_2 1_555 1_555
O3_2 W1_2 1_555 1_555
O4_2 W6_2 1_555 1_555
O7_2 W4_2 1_555 1_555
O8_2 W1_2 1_555 1_555
O16_2 W1_2 1_555 1_555
O17_2 W1_2 1_555 1_555
O18_2 W4_2 1_555 1_555
Cu5 O18_2 1_555 1_555
N1_2 Cu5 1_555 1_555
C1_2 N1_2 1_555 1_555
H1_2 C1_2 1_555 1_555
C6_2 C4_2 1_555 1_555
H5_2 C6_2 1_555 1_555
N9 C7_2 1_555 1_555
C7_2 H6_2 1_555 1_555
N4_2 C7_2 1_555 1_555
C8_2 N4_2 1_555 1_555
H7_2 C8_2 1_555 1_555
C9_2 N9 1_555 1_555
C10_2 N4_2 1_555 1_555
C12_2 C6_2 1_555 1_555
H10_2 C12_2 1_555 1_555
W8_2 O21_2 1_555 1_555
O28_2 W6_2 1_555 1_555
O36_2 W6_2 1_555 1_555
O39_2 W8_2 1_555 1_555
O43_2 Cu5 1_555 1_555
Cu8_2 O39_2 1_555 1_555
W4_2 O11_2 1_555 1_555
W4_2 O16_2 1_555 1_555
W6_2 O7_2 1_555 1_555
W6_2 O16_2 1_555 1_555
Si1_3 O16_2 1_555 1_555
Si1_3 O21_2 1_555 1_555
C8_2 C9_2 1_555 1_555
C10_2 C11_2 1_555 1_555
C10_2 C12_2 1_555 1_555
W8_2 O28_2 1_555 1_555
W8_2 O31_2 1_555 1_555
C2_2 N2_2 1_555 1_555
H2_2 C2_2 1_555 1_555
H3_2 C3_2 1_555 1_555
H4_2 C5_2 1_555 1_555
C2_2 C3_2 1_555 1_555
W5_2 O5_2 1_555 1_555
O10_2 W5_2 1_555 1_555
O13_2 W3_2 1_555 1_555
O43_2 W3_2 1_555 1_555
W5_2 O13_2 1_555 1_555
W1_3 O1_3 1_555 1_555
W2_3 O6_3 1_555 1_555
W3_3 O12_3 1_555 1_555
W4_3 O2_3 1_555 1_555
W5_3 O5_3 1_555 1_555
W6_3 O3_3 1_555 1_555
Si1_4 O12_3 1_555 1_555
O2_3 W1_3 1_555 1_555
O3_3 W1_3 1_555 1_555
O6_3 W12_3 1_555 1_555
O8_3 W1_3 1_555 1_555
O9_3 W2_3 1_555 1_555
O10_3 W5_3 1_555 1_555
O11_3 W2_3 1_555 1_555
O12_3 W2_3 1_555 1_555
O13_3 W3_3 1_555 1_555
O14_3 W2_3 1_555 1_555
O15_3 W4_3 1_555 1_555
O16_3 W1_3 1_555 1_555
O17_3 W1_3 1_555 1_555
O41 W2_3 1_555 1_555
O20 W3_3 1_555 1_555
C6_3 C4_3 1_555 1_555
H5_3 C6_3 1_555 1_555
N3_2 C7_3 1_555 1_555
C7_3 H6_3 1_555 1_555
N4_3 C7_3 1_555 1_555
C8_3 N4_3 1_555 1_555
H7_3 C8_3 1_555 1_555
C9_3 N3_2 1_555 1_555
H8_3 C9_3 1_555 1_555
C10_3 N4_3 1_555 1_555
C12_3 C6_3 1_555 1_555
H10_3 C12_3 1_555 1_555
O21_3 W5_3 1_555 1_555
O22_3 Si1_4 1_555 1_555
W7_3 O22_3 1_555 1_555
W8_3 O21_3 1_555 1_555
W9_3 O10_3 1_555 1_555
W10_3 O22_3 1_555 1_555
W11_3 O9_3 1_555 1_555
W12_3 O15_3 1_555 1_555
O23_3 W7_3 1_555 1_555
O24_3 W7_3 1_555 1_555
O25_3 W7_3 1_555 1_555
O27_3 W11_3 1_555 1_555
O28_3 W6_3 1_555 1_555
O30_3 W7_3 1_555 1_555
O31_3 W5_3 1_555 1_555
O32_3 W3_3 1_555 1_555
O33_3 W8_3 1_555 1_555
O34_3 W9_3 1_555 1_555
O35_3 W8_3 1_555 1_555
O36_3 W6_3 1_555 1_555
O37_3 W7_3 1_555 1_555
O42 W8_3 1_555 1_555
O40 W9_3 1_555 1_555
C18_3 C16_3 1_555 1_555
H15_3 C18_3 1_555 1_555
N7_2 C19_3 1_555 1_555
C19_3 H16_3 1_555 1_555
N8_3 C19_3 1_555 1_555
C20_3 N8_3 1_555 1_555
H17_3 C20_3 1_555 1_555
C21_3 N7_2 1_555 1_555
H18_3 C21_3 1_555 1_555
C22_3 N8_3 1_555 1_555
H19_3 C23_3 1_555 1_555
C24_3 C18_3 1_555 1_555
H20_3 C24_3 1_555 1_555
Cu7 O20 1_555 1_555
Cu8 O40 1_555 1_555
W3_3 O14_3 1_555 1_555
W3_3 O17_3 1_555 1_555
W4_3 O11_3 1_555 1_555
W4_3 O16_3 1_555 1_555
W5_3 O8_3 1_555 1_555
W5_3 O13_3 1_555 1_555
W6_3 O16_3 1_555 1_555
Si1_4 O16_3 1_555 1_555
Si1_4 O21_3 1_555 1_555
O12_3 W11_3 1_555 1_555
C8_3 C9_3 1_555 1_555
C10_3 C11_3 1_555 1_555
C10_3 C12_3 1_555 1_555
O21_3 W9_3 1_555 1_555
O22_3 W12_3 1_555 1_555
W8_3 O28_3 1_555 1_555
W8_3 O31_3 1_555 1_555
W9_3 O35_3 1_555 1_555
W9_3 O37_3 1_555 1_555
W10_3 O24_3 1_555 1_555
W10_3 O33_3 1_555 1_555
W10_3 O36_3 1_555 1_555
W11_3 O30_3 1_555 1_555
W11_3 O32_3 1_555 1_555
W11_3 O34_3 1_555 1_555
W12_3 O25_3 1_555 1_555
C20_3 C21_3 1_555 1_555
C22_3 C23_3 1_555 1_555
C22_3 C24_3 1_555 1_555
C2_3 N2_3 1_555 1_555
H2_3 C2_3 1_555 1_555
H3_3 C3_3 1_555 1_555
H4_3 C5_3 1_555 1_555
C2_3 C3_3 1_555 1_555
Cu7 O18_3 1_555 1_555
N1_3 Cu7 1_555 1_555
C1_3 N1_3 1_555 1_555
H1_3 C1_3 1_555 1_555
Cu8 O38_3 1_555 1_555
N5_3 Cu8 1_555 1_555
C13_3 N5_3 1_555 1_555
H11_3 C13_3 1_555 1_555
N6_3 C13_3 1_555 1_555
C14_3 N6_3 1_555 1_555
H12_3 C14_3 1_555 1_555
C15_3 N5_3 1_555 1_555
H13_3 C15_3 1_555 1_555
H14_3 C17_3 1_555 1_555
N9_2 Cu7 1_555 1_555
N10_2 Cu8 1_555 1_555
C14_3 C15_3 1_555 1_555
W5_4 O5_4 1_555 1_555
O10_4 W5_4 1_555 1_555
O13_4 W3_4 1_555 1_555
O20_2 W3_4 1_555 1_555
Cu7_2 O20_2 1_555 1_555
W5_4 O13_4 1_555 1_555
C2_4 N2_4 1_555 1_555
H2_4 C2_4 1_555 1_555
H3_4 C3_4 1_555 1_555
H4_4 C5_4 1_555 1_555
C2_4 C3_4 1_555 1_555
W1_4 O1_4 1_555 1_555
W4_4 O2_4 1_555 1_555
W6_4 O3_4 1_555 1_555
O2_4 W1_4 1_555 1_555
O3_4 W1_4 1_555 1_555
O4_4 W6_4 1_555 1_555
O7_4 W4_4 1_555 1_555
O8_4 W1_4 1_555 1_555
O16_4 W1_4 1_555 1_555
O17_4 W1_4 1_555 1_555
O18_4 W4_4 1_555 1_555
Cu7_2 O18_4 1_555 1_555
N1_4 Cu7_2 1_555 1_555
C1_4 N1_4 1_555 1_555
H1_4 C1_4 1_555 1_555
C6_4 C4_4 1_555 1_555
H5_4 C6_4 1_555 1_555
N9_2 C7_4 1_555 1_555
C7_4 H6_4 1_555 1_555
N4_4 C7_4 1_555 1_555
C8_4 N4_4 1_555 1_555
H7_4 C8_4 1_555 1_555
C9_4 N9_2 1_555 1_555
C10_4 N4_4 1_555 1_555
C12_4 C6_4 1_555 1_555
H10_4 C12_4 1_555 1_555
W8_4 O21_4 1_555 1_555
O28_4 W6_4 1_555 1_555
O36_4 W6_4 1_555 1_555
O42_2 W8_4 1_555 1_555
W4_4 O11_4 1_555 1_555
W4_4 O16_4 1_555 1_555
W6_4 O7_4 1_555 1_555
W6_4 O16_4 1_555 1_555
Si1_5 O16_4 1_555 1_555
Si1_5 O21_4 1_555 1_555
C8_4 C9_4 1_555 1_555
C10_4 C11_4 1_555 1_555
C10_4 C12_4 1_555 1_555
W8_4 O28_4 1_555 1_555
W8_4 O31_4 1_555 1_555
O27_4 W11_4 1_555 1_555
O34_4 W9_4 1_555 1_555
O40_2 W9_4 1_555 1_555
Cu8_2 O40_2 1_555 1_555
W11_4 O32_4 1_555 1_555
W11_4 O34_4 1_555 1_555
W2_4 O6_4 1_555 1_555
Si1_6 O12_4 1_555 1_555
O6_4 W12_4 1_555 1_555
O9_4 W2_4 1_555 1_555
O12_4 W2_4 1_555 1_555
O41_2 W2_4 1_555 1_555
O22_4 Si1_6 1_555 1_555
W7_4 O22_4 1_555 1_555
W10_4 O22_4 1_555 1_555
W12_4 O15_4 1_555 1_555
O23_4 W7_4 1_555 1_555
O24_4 W7_4 1_555 1_555
O25_4 W7_4 1_555 1_555
O26_4 W12_4 1_555 1_555
O29_4 W10_4 1_555 1_555
O30_4 W7_4 1_555 1_555
O37_4 W7_4 1_555 1_555
O38_4 W10_4 1_555 1_555
Cu8_2 O38_4 1_555 1_555
N5_4 Cu8_2 1_555 1_555
C13_4 N5_4 1_555 1_555
H11_4 C13_4 1_555 1_555
N6_4 C13_4 1_555 1_555
C14_4 N6_4 1_555 1_555
H12_4 C14_4 1_555 1_555
C15_4 N5_4 1_555 1_555
H13_4 C15_4 1_555 1_555
C16_4 N6_4 1_555 1_555
C17_4 C16_4 1_555 1_555
H14_4 C17_4 1_555 1_555
C18_4 C16_4 1_555 1_555
H15_4 C18_4 1_555 1_555
N10_2 C19_4 1_555 1_555
C19_4 H16_4 1_555 1_555
N8_4 C19_4 1_555 1_555
C20_4 N8_4 1_555 1_555
H17_4 C20_4 1_555 1_555
C21_4 N10_2 1_555 1_555
C22_4 N8_4 1_555 1_555
C23_4 C17_4 1_555 1_555
H19_4 C23_4 1_555 1_555
C24_4 C18_4 1_555 1_555
H20_4 C24_4 1_555 1_555
O22_4 W12_4 1_555 1_555
W10_4 O24_4 1_555 1_555
W10_4 O33_4 1_555 1_555
W12_4 O25_4 1_555 1_555
W12_4 O29_4 1_555 1_555
C14_4 C15_4 1_555 1_555
C20_4 C21_4 1_555 1_555
C22_4 C23_4 1_555 1_555
C22_4 C24_4 1_555 1_555

#END
