
###############################################################################
#
# This file contains modified crystal structure data generated from the
# MOF subset of the Cambridge Structural Database (CSD) v543 
# hosted by the Cambridge Crystallographic Data Centre (CCDC).
#
# This work is licensed under the Creative Commons
# Attribution-NonCommercial-ShareAlike 4.0 International License.
# To view a copy of this license, visit
# http://creativecommons.org/licenses/by-nc-sa/4.0/
# or send a letter to
# Creative Commons, PO Box 1866, Mountain View, CA 94042, USA.
#
# CIF created using the CSD Python API on 29 September 2022
# The structure has been converted into the P1 space group
# The structure has a 3D framework
# The original CSD entry PURQOJ is in the cubic crystal system
# The original CSD entry PURQOJ is in a Sohncke space group
# The framework has been calculated to contain at least 10.0% void space
# The void calculation uses a probe of radius 1.32A, grid spacing 0.4
#
###############################################################################

data_PURQOJ
_chemical_formula_moiety         '(C240 H120 Cu24 N72 O96)n'
_symmetry_cell_setting           triclinic
_symmetry_space_group_name_H-M   'P 1'
_symmetry_Int_Tables_number      1
_space_group_name_Hall           'P 1'
loop_
_symmetry_equiv_pos_site_id
_symmetry_equiv_pos_as_xyz
1 x,y,z
_cell_length_a                   24.024(3)
_cell_length_b                   24.024(3)
_cell_length_c                   24.024(3)
_cell_angle_alpha                90
_cell_angle_beta                 90
_cell_angle_gamma                90
_cell_volume                     13865.5
loop_
_atom_site_label
_atom_site_type_symbol
_atom_site_fract_x
_atom_site_fract_y
_atom_site_fract_z
Cu1 Cu 0.74213(4) 0.00991(4) 0.05160(4)
O1 O 0.6918(4) 0.0849(3) 0.0419(2)
O5 O 0.8185(3) 0.0461(3) 0.0481(3)
N4 N 0.7571(3) 0.0151(3) 0.1309(3)
N3 N 0.8052(3) 0.8155(3) 0.9537(3)
C1 C 0.7486(3) 0.9820(4) 0.9275(3)
C4 C 0.8276(3) 0.8567(4) 0.9798(3)
C5 C 0.8123(4) 0.9134(4) 0.9720(4)
H3 H 0.8284 0.9416 0.9931
C6 C 0.7729(3) 0.9249(3) 0.9322(3)
C7 C 0.7539(3) 0.8840(3) 0.8993(3)
H4 H 0.7308 0.8920 0.8694
C8 C 0.7695(3) 0.8294(4) 0.9109(3)
H5 H 0.7553 0.8011 0.8887
Cu2 Cu 0.74009(4) 0.99213(4) 0.80160(4)
Cu3 Cu 0.80160(4) 0.74009(4) 0.99213(4)
N3_2 N 0.6948(3) 0.1845(3) 0.4537(3)
C1_2 C 0.7514(3) 0.0180(4) 0.4275(3)
C4_2 C 0.6724(3) 0.1433(4) 0.4798(3)
H2 H 0.6444 0.1512 0.5053
C5_2 C 0.6877(4) 0.0866(4) 0.4720(4)
H3_2 H 0.6716 0.0584 0.4931
C6_2 C 0.7271(3) 0.0751(3) 0.4322(3)
C7_2 C 0.7461(3) 0.1160(3) 0.3993(3)
H4_2 H 0.7692 0.1080 0.3694
C8_2 C 0.7305(3) 0.1706(4) 0.4109(3)
H5_2 H 0.7447 0.1989 0.3887
Cu2_2 Cu 0.75991(4) 0.00787(4) 0.30160(4)
Cu3_2 Cu 0.69840(4) 0.25991(4) 0.49213(4)
N5 N 0.7963(3) 0.0655(3) 0.5552(3)
Cu1_2 Cu 0.75787(4) 0.99009(4) 0.55160(4)
O1_2 O 0.8082(4) 0.9151(3) 0.5419(2)
O2 O 0.8298(4) 0.8541(4) 0.4767(4)
O3 O 0.7961(3) 0.9315(3) 0.2981(3)
O4 O 0.8278(4) 0.8633(5) 0.3531(5)
H1 H 0.8339 0.8574 0.3861
N1 N 0.7638(3) 0.9853(3) 0.4717(2)
N2 N 0.7651(3) 0.9929(3) 0.3809(3)
C2 C 0.7875(5) 0.9404(4) 0.4509(4)
C3 C 0.7883(4) 0.9451(4) 0.3927(3)
C9 C 0.8102(5) 0.8986(5) 0.4933(5)
C10 C 0.8077(5) 0.9110(5) 0.3473(5)
O5_2 O 0.6815(3) 0.9539(3) 0.5481(3)
N4_2 N 0.7429(3) 0.9849(3) 0.6309(3)
Cu1_3 Cu 0.25787(4) 0.50991(4) 0.44840(4)
O1_3 O 0.3082(4) 0.5849(3) 0.4581(2)
O2_2 O 0.3298(4) 0.6459(4) 0.5233(4)
O3_2 O 0.2961(3) 0.5685(3) 0.7019(3)
O4_2 O 0.3278(4) 0.6367(5) 0.6469(5)
H1_2 H 0.3339 0.6426 0.6139
N1_2 N 0.2638(3) 0.5147(3) 0.5283(2)
N2_2 N 0.2651(3) 0.5071(3) 0.6191(3)
N3_3 N 0.1948(3) 0.3155(3) 0.5463(3)
C1_3 C 0.2514(3) 0.4820(4) 0.5725(3)
C2_2 C 0.2875(5) 0.5596(4) 0.5491(4)
C3_2 C 0.2883(4) 0.5549(4) 0.6073(3)
C4_3 C 0.1724(3) 0.3567(4) 0.5202(3)
H2_2 H 0.1444 0.3488 0.4947
C5_3 C 0.1877(4) 0.4134(4) 0.5280(4)
H3_3 H 0.1716 0.4416 0.5069
C6_3 C 0.2271(3) 0.4249(3) 0.5678(3)
C7_3 C 0.2461(3) 0.3840(3) 0.6007(3)
H4_3 H 0.2692 0.3920 0.6306
C8_3 C 0.2305(3) 0.3294(4) 0.5891(3)
H5_3 H 0.2447 0.3011 0.6113
C9_2 C 0.3102(5) 0.6014(5) 0.5067(5)
C10_2 C 0.3077(5) 0.5890(5) 0.6527(5)
Cu2_3 Cu 0.25991(4) 0.49213(4) 0.69840(4)
Cu3_3 Cu 0.19840(4) 0.24009(4) 0.50787(4)
O5_3 O 0.1815(3) 0.5461(3) 0.4519(3)
N4_3 N 0.2429(3) 0.5151(3) 0.3691(3)
N5_2 N 0.2963(3) 0.4345(3) 0.4448(3)
O2_3 O 0.1702(4) 0.3541(4) 0.0233(4)
O3_3 O 0.2039(3) 0.4315(3) 0.2019(3)
O4_3 O 0.1722(4) 0.3633(5) 0.1469(5)
H1_3 H 0.1661 0.3574 0.1139
N1_3 N 0.2362(3) 0.4853(3) 0.0283(2)
N2_3 N 0.2349(3) 0.4929(3) 0.1191(3)
N3_4 N 0.3052(3) 0.6845(3) 0.0463(3)
C1_4 C 0.2486(3) 0.5180(4) 0.0725(3)
C2_3 C 0.2125(5) 0.4404(4) 0.0491(4)
C3_3 C 0.2117(4) 0.4451(4) 0.1073(3)
C4_4 C 0.3276(3) 0.6433(4) 0.0202(3)
C5_4 C 0.3123(4) 0.5866(4) 0.0280(4)
H3_4 H 0.3284 0.5584 0.0069
C6_4 C 0.2729(3) 0.5751(3) 0.0678(3)
C7_4 C 0.2539(3) 0.6160(3) 0.1007(3)
H4_4 H 0.2308 0.6080 0.1306
C8_4 C 0.2695(3) 0.6706(4) 0.0891(3)
H5_4 H 0.2553 0.6989 0.1113
C9_3 C 0.1898(5) 0.3986(5) 0.0067(5)
C10_3 C 0.1923(5) 0.4110(5) 0.1527(5)
Cu2_4 Cu 0.24009(4) 0.50787(4) 0.19840(4)
Cu3_4 Cu 0.30160(4) 0.75991(4) 0.00787(4)
Cu1_4 Cu 0.24213(4) 0.49009(4) 0.94840(4)
O1_4 O 0.1918(4) 0.4151(3) 0.9581(2)
H2_3 H 0.3556 0.6512 0.9947
O5_4 O 0.3185(3) 0.4539(3) 0.9519(3)
N4_4 N 0.2571(3) 0.4849(3) 0.8691(3)
N5_3 N 0.2037(3) 0.5655(3) 0.9448(3)
Cu1_5 Cu 0.05160(4) 0.74213(4) 0.00991(4)
O1_5 O 0.0419(2) 0.6918(4) 0.0849(3)
O5_5 O 0.0481(3) 0.8185(3) 0.0461(3)
N4_5 N 0.1309(3) 0.7571(3) 0.0151(3)
N3_5 N 0.9537(3) 0.8052(3) 0.8155(3)
C1_5 C 0.9275(3) 0.7486(3) 0.9820(4)
C4_5 C 0.9798(3) 0.8276(3) 0.8567(4)
C5_5 C 0.9720(4) 0.8123(4) 0.9134(4)
H3_5 H 0.9931 0.8284 0.9416
C6_5 C 0.9322(3) 0.7729(3) 0.9249(3)
C7_5 C 0.8993(3) 0.7539(3) 0.8840(3)
H4_5 H 0.8694 0.7308 0.8920
C8_5 C 0.9109(3) 0.7695(3) 0.8294(4)
H5_5 H 0.8887 0.7553 0.8011
Cu3_5 Cu 0.99213(4) 0.80160(4) 0.74009(4)
N3_6 N 0.4537(3) 0.6948(3) 0.1845(3)
C1_6 C 0.4275(3) 0.7514(3) 0.0180(4)
C4_6 C 0.4798(3) 0.6724(3) 0.1433(4)
H2_4 H 0.5053 0.6444 0.1512
C5_6 C 0.4720(4) 0.6877(4) 0.0866(4)
H3_6 H 0.4931 0.6716 0.0584
C6_6 C 0.4322(3) 0.7271(3) 0.0751(3)
C7_6 C 0.3993(3) 0.7461(3) 0.1160(3)
H4_6 H 0.3694 0.7692 0.1080
C8_6 C 0.4109(3) 0.7305(3) 0.1706(4)
H5_6 H 0.3887 0.7447 0.1989
Cu3_6 Cu 0.49213(4) 0.69840(4) 0.25991(4)
N5_4 N 0.5552(3) 0.7963(3) 0.0655(3)
Cu1_6 Cu 0.55160(4) 0.75787(4) 0.99009(4)
O1_6 O 0.5419(2) 0.8082(4) 0.9151(3)
O2_4 O 0.4767(4) 0.8298(4) 0.8541(4)
O3_4 O 0.2981(3) 0.7961(3) 0.9315(3)
O4_4 O 0.3531(5) 0.8278(4) 0.8633(5)
H1_4 H 0.3861 0.8339 0.8574
N1_4 N 0.4717(2) 0.7638(3) 0.9853(3)
N2_4 N 0.3809(3) 0.7651(3) 0.9929(3)
C2_4 C 0.4509(4) 0.7875(5) 0.9404(4)
C3_4 C 0.3927(3) 0.7883(4) 0.9451(4)
C9_4 C 0.4933(5) 0.8102(5) 0.8986(5)
C10_4 C 0.3473(5) 0.8077(5) 0.9110(5)
O5_6 O 0.5481(3) 0.6815(3) 0.9539(3)
N4_6 N 0.6309(3) 0.7429(3) 0.9849(3)
Cu1_7 Cu 0.44840(4) 0.25787(4) 0.50991(4)
O1_7 O 0.4581(2) 0.3082(4) 0.5849(3)
O2_5 O 0.5233(4) 0.3298(4) 0.6459(4)
O3_5 O 0.7019(3) 0.2961(3) 0.5685(3)
O4_5 O 0.6469(5) 0.3278(4) 0.6367(5)
H1_5 H 0.6139 0.3339 0.6426
N1_5 N 0.5283(2) 0.2638(3) 0.5147(3)
N2_5 N 0.6191(3) 0.2651(3) 0.5071(3)
N3_7 N 0.5463(3) 0.1948(3) 0.3155(3)
C1_7 C 0.5725(3) 0.2514(3) 0.4820(4)
C2_5 C 0.5491(4) 0.2875(5) 0.5596(4)
C3_5 C 0.6073(3) 0.2883(4) 0.5549(4)
C4_7 C 0.5202(3) 0.1724(3) 0.3567(4)
H2_5 H 0.4947 0.1444 0.3488
C5_7 C 0.5280(4) 0.1877(4) 0.4134(4)
H3_7 H 0.5069 0.1716 0.4416
C6_7 C 0.5678(3) 0.2271(3) 0.4249(3)
C7_7 C 0.6007(3) 0.2461(3) 0.3840(3)
H4_7 H 0.6306 0.2692 0.3920
C8_7 C 0.5891(3) 0.2305(3) 0.3294(4)
H5_7 H 0.6113 0.2447 0.3011
C9_5 C 0.5067(5) 0.3102(5) 0.6014(5)
C10_5 C 0.6527(5) 0.3077(5) 0.5890(5)
Cu3_7 Cu 0.50787(4) 0.19840(4) 0.24009(4)
O5_7 O 0.4519(3) 0.1815(3) 0.5461(3)
N4_7 N 0.3691(3) 0.2429(3) 0.5151(3)
N5_5 N 0.4448(3) 0.2963(3) 0.4345(3)
O2_6 O 0.0233(4) 0.1702(4) 0.3541(4)
O3_6 O 0.2019(3) 0.2039(3) 0.4315(3)
O4_6 O 0.1469(5) 0.1722(4) 0.3633(5)
H1_6 H 0.1139 0.1661 0.3574
N1_6 N 0.0283(2) 0.2362(3) 0.4853(3)
N2_6 N 0.1191(3) 0.2349(3) 0.4929(3)
N3_8 N 0.0463(3) 0.3052(3) 0.6845(3)
C1_8 C 0.0725(3) 0.2486(3) 0.5180(4)
C2_6 C 0.0491(4) 0.2125(5) 0.4404(4)
C3_6 C 0.1073(3) 0.2117(4) 0.4451(4)
C4_8 C 0.0202(3) 0.3276(3) 0.6433(4)
C5_8 C 0.0280(4) 0.3123(4) 0.5866(4)
H3_8 H 0.0069 0.3284 0.5584
C6_8 C 0.0678(3) 0.2729(3) 0.5751(3)
C7_8 C 0.1007(3) 0.2539(3) 0.6160(3)
H4_8 H 0.1306 0.2308 0.6080
C8_8 C 0.0891(3) 0.2695(3) 0.6706(4)
H5_8 H 0.1113 0.2553 0.6989
C9_6 C 0.0067(5) 0.1898(5) 0.3986(5)
C10_6 C 0.1527(5) 0.1923(5) 0.4110(5)
Cu3_8 Cu 0.00787(4) 0.30160(4) 0.75991(4)
Cu1_8 Cu 0.94840(4) 0.24213(4) 0.49009(4)
O1_8 O 0.9581(2) 0.1918(4) 0.4151(3)
H2_6 H 0.9947 0.3556 0.6512
O5_8 O 0.9519(3) 0.3185(3) 0.4539(3)
N4_8 N 0.8691(3) 0.2571(3) 0.4849(3)
N5_6 N 0.9448(3) 0.2037(3) 0.5655(3)
Cu1_9 Cu 0.00991(4) 0.05160(4) 0.74213(4)
O1_9 O 0.0849(3) 0.0419(2) 0.6918(4)
O5_9 O 0.0461(3) 0.0481(3) 0.8185(3)
N4_9 N 0.0151(3) 0.1309(3) 0.7571(3)
N3_9 N 0.8155(3) 0.9537(3) 0.8052(3)
C1_9 C 0.9820(4) 0.9275(3) 0.7486(3)
C4_9 C 0.8567(4) 0.9798(3) 0.8276(3)
C5_9 C 0.9134(4) 0.9720(4) 0.8123(4)
H3_9 H 0.9416 0.9931 0.8284
C6_9 C 0.9249(3) 0.9322(3) 0.7729(3)
C7_9 C 0.8840(3) 0.8993(3) 0.7539(3)
H4_9 H 0.8920 0.8694 0.7308
C8_9 C 0.8294(4) 0.9109(3) 0.7695(3)
H5_9 H 0.8011 0.8887 0.7553
N3_10 N 0.1845(3) 0.4537(3) 0.6948(3)
C1_10 C 0.0180(4) 0.4275(3) 0.7514(3)
C4_10 C 0.1433(4) 0.4798(3) 0.6724(3)
H2_7 H 0.1512 0.5053 0.6444
C5_10 C 0.0866(4) 0.4720(4) 0.6877(4)
H3_10 H 0.0584 0.4931 0.6716
C6_10 C 0.0751(3) 0.4322(3) 0.7271(3)
C7_10 C 0.1160(3) 0.3993(3) 0.7461(3)
H4_10 H 0.1080 0.3694 0.7692
C8_10 C 0.1706(4) 0.4109(3) 0.7305(3)
H5_10 H 0.1989 0.3887 0.7447
N5_7 N 0.0655(3) 0.5552(3) 0.7963(3)
Cu1_10 Cu 0.99009(4) 0.55160(4) 0.75787(4)
O1_10 O 0.9151(3) 0.5419(2) 0.8082(4)
O2_7 O 0.8541(4) 0.4767(4) 0.8298(4)
O3_7 O 0.9315(3) 0.2981(3) 0.7961(3)
O4_7 O 0.8633(5) 0.3531(5) 0.8278(4)
H1_7 H 0.8574 0.3861 0.8339
N1_7 N 0.9853(3) 0.4717(2) 0.7638(3)
N2_7 N 0.9929(3) 0.3809(3) 0.7651(3)
C2_7 C 0.9404(4) 0.4509(4) 0.7875(5)
C3_7 C 0.9451(4) 0.3927(3) 0.7883(4)
C9_7 C 0.8986(5) 0.4933(5) 0.8102(5)
C10_7 C 0.9110(5) 0.3473(5) 0.8077(5)
O5_10 O 0.9539(3) 0.5481(3) 0.6815(3)
N4_10 N 0.9849(3) 0.6309(3) 0.7429(3)
Cu1_11 Cu 0.50991(4) 0.44840(4) 0.25787(4)
O1_11 O 0.5849(3) 0.4581(2) 0.3082(4)
O2_8 O 0.6459(4) 0.5233(4) 0.3298(4)
O3_8 O 0.5685(3) 0.7019(3) 0.2961(3)
O4_8 O 0.6367(5) 0.6469(5) 0.3278(4)
H1_8 H 0.6426 0.6139 0.3339
N1_8 N 0.5147(3) 0.5283(2) 0.2638(3)
N2_8 N 0.5071(3) 0.6191(3) 0.2651(3)
N3_11 N 0.3155(3) 0.5463(3) 0.1948(3)
C1_11 C 0.4820(4) 0.5725(3) 0.2514(3)
C2_8 C 0.5596(4) 0.5491(4) 0.2875(5)
C3_8 C 0.5549(4) 0.6073(3) 0.2883(4)
C4_11 C 0.3567(4) 0.5202(3) 0.1724(3)
H2_8 H 0.3488 0.4947 0.1444
C5_11 C 0.4134(4) 0.5280(4) 0.1877(4)
H3_11 H 0.4416 0.5069 0.1716
C6_11 C 0.4249(3) 0.5678(3) 0.2271(3)
C7_11 C 0.3840(3) 0.6007(3) 0.2461(3)
H4_11 H 0.3920 0.6306 0.2692
C8_11 C 0.3294(4) 0.5891(3) 0.2305(3)
H5_11 H 0.3011 0.6113 0.2447
C9_8 C 0.6014(5) 0.5067(5) 0.3102(5)
C10_8 C 0.5890(5) 0.6527(5) 0.3077(5)
O5_11 O 0.5461(3) 0.4519(3) 0.1815(3)
N4_11 N 0.5151(3) 0.3691(3) 0.2429(3)
N5_8 N 0.4345(3) 0.4448(3) 0.2963(3)
O2_9 O 0.3541(4) 0.0233(4) 0.1702(4)
O3_9 O 0.4315(3) 0.2019(3) 0.2039(3)
O4_9 O 0.3633(5) 0.1469(5) 0.1722(4)
H1_9 H 0.3574 0.1139 0.1661
N1_9 N 0.4853(3) 0.0283(2) 0.2362(3)
N2_9 N 0.4929(3) 0.1191(3) 0.2349(3)
N3_12 N 0.6845(3) 0.0463(3) 0.3052(3)
C1_12 C 0.5180(4) 0.0725(3) 0.2486(3)
C2_9 C 0.4404(4) 0.0491(4) 0.2125(5)
C3_9 C 0.4451(4) 0.1073(3) 0.2117(4)
C4_12 C 0.6433(4) 0.0202(3) 0.3276(3)
C5_12 C 0.5866(4) 0.0280(4) 0.3123(4)
H3_12 H 0.5584 0.0069 0.3284
C6_12 C 0.5751(3) 0.0678(3) 0.2729(3)
C7_12 C 0.6160(3) 0.1007(3) 0.2539(3)
H4_12 H 0.6080 0.1306 0.2308
C8_12 C 0.6706(4) 0.0891(3) 0.2695(3)
H5_12 H 0.6989 0.1113 0.2553
C9_9 C 0.3986(5) 0.0067(5) 0.1898(5)
C10_9 C 0.4110(5) 0.1527(5) 0.1923(5)
Cu1_12 Cu 0.49009(4) 0.94840(4) 0.24213(4)
O1_12 O 0.4151(3) 0.9581(2) 0.1918(4)
H2_9 H 0.6512 0.9947 0.3556
O5_12 O 0.4539(3) 0.9519(3) 0.3185(3)
N4_12 N 0.4849(3) 0.8691(3) 0.2571(3)
N5_9 N 0.5655(3) 0.9448(3) 0.2037(3)
O1_13 O 0.3349(3) 0.4418(4) 0.7081(2)
O2_10 O 0.3959(4) 0.4202(4) 0.7733(4)
O4_10 O 0.3867(5) 0.4222(4) 0.8969(5)
H1_10 H 0.3926 0.4161 0.8639
N1_10 N 0.2647(3) 0.4862(3) 0.7783(2)
C1_13 C 0.2320(4) 0.4986(3) 0.8225(3)
C2_10 C 0.3096(4) 0.4625(5) 0.7991(4)
C3_10 C 0.3049(4) 0.4617(4) 0.8573(3)
C4_13 C 0.1067(4) 0.5776(3) 0.7702(3)
H2_10 H 0.0988 0.6056 0.7447
C5_13 C 0.1634(4) 0.5623(4) 0.7780(4)
H3_13 H 0.1916 0.5784 0.7569
C6_13 C 0.1749(3) 0.5229(3) 0.8178(3)
C7_13 C 0.1340(3) 0.5039(3) 0.8507(3)
H4_13 H 0.1420 0.4808 0.8806
C8_13 C 0.0794(4) 0.5195(3) 0.8391(3)
H5_13 H 0.0511 0.5053 0.8613
C9_10 C 0.3514(5) 0.4398(5) 0.7567(5)
C10_10 C 0.3390(5) 0.4423(5) 0.9027(5)
O1_14 O 0.1651(3) 0.5582(4) 0.2081(2)
O2_11 O 0.1041(4) 0.5798(4) 0.2733(4)
O4_11 O 0.1133(5) 0.5778(4) 0.3969(5)
H1_11 H 0.1074 0.5839 0.3639
N1_11 N 0.2353(3) 0.5138(3) 0.2783(2)
C1_14 C 0.2680(4) 0.5014(3) 0.3225(3)
C2_11 C 0.1904(4) 0.5375(5) 0.2991(4)
C3_11 C 0.1951(4) 0.5383(4) 0.3573(3)
C4_14 C 0.3933(4) 0.4224(3) 0.2702(3)
H2_11 H 0.4012 0.3944 0.2447
C5_14 C 0.3366(4) 0.4377(4) 0.2780(4)
H3_14 H 0.3084 0.4216 0.2569
C6_14 C 0.3251(3) 0.4771(3) 0.3178(3)
C7_14 C 0.3660(3) 0.4961(3) 0.3507(3)
H4_14 H 0.3580 0.5192 0.3806
C8_14 C 0.4206(4) 0.4805(3) 0.3391(3)
H5_14 H 0.4489 0.4947 0.3613
C9_11 C 0.1486(5) 0.5602(5) 0.2567(5)
C10_11 C 0.1610(5) 0.5577(5) 0.4027(5)
O1_15 O 0.8349(3) 0.0582(4) 0.2919(2)
O2_12 O 0.8959(4) 0.0798(4) 0.2267(4)
O4_12 O 0.8867(5) 0.0778(4) 0.1031(5)
H1_12 H 0.8926 0.0839 0.1361
N1_12 N 0.7647(3) 0.0138(3) 0.2217(2)
C1_15 C 0.7320(4) 0.0014(3) 0.1775(3)
C2_12 C 0.8096(4) 0.0375(5) 0.2009(4)
C3_12 C 0.8049(4) 0.0383(4) 0.1427(3)
H4_15 H 0.6420 0.0192 0.1194
C9_12 C 0.8514(5) 0.0602(5) 0.2433(5)
C10_12 C 0.8390(5) 0.0577(5) 0.0973(5)
C4_15 C 0.6067(4) 0.9224(3) 0.2298(3)
H2_12 H 0.5988 0.8944 0.2553
C5_15 C 0.6634(4) 0.9377(4) 0.2220(4)
H3_15 H 0.6916 0.9216 0.2431
C6_15 C 0.6749(3) 0.9771(3) 0.1822(3)
C7_15 C 0.6340(3) 0.9961(3) 0.1493(3)
C8_15 C 0.5794(4) 0.9805(3) 0.1609(3)
H5_15 H 0.5511 0.9947 0.1387
O1_16 O 0.6651(3) 0.9418(4) 0.7919(2)
O2_13 O 0.6041(4) 0.9202(4) 0.7267(4)
O4_13 O 0.6133(5) 0.9222(4) 0.6031(5)
H1_13 H 0.6074 0.9161 0.6361
N1_13 N 0.7353(3) 0.9862(3) 0.7217(2)
C1_16 C 0.7680(4) 0.9986(3) 0.6775(3)
C2_13 C 0.6904(4) 0.9625(5) 0.7009(4)
C3_13 C 0.6951(4) 0.9617(4) 0.6427(3)
H4_16 H 0.8580 0.9808 0.6194
C9_13 C 0.6486(5) 0.9398(5) 0.7433(5)
C10_13 C 0.6610(5) 0.9423(5) 0.5973(5)
O1_17 O 0.9418(4) 0.7919(2) 0.6651(3)
O2_14 O 0.9202(4) 0.7267(4) 0.6041(4)
O4_14 O 0.9222(4) 0.6031(5) 0.6133(5)
H1_14 H 0.9161 0.6361 0.6074
N1_14 N 0.9862(3) 0.7217(2) 0.7353(3)
C1_17 C 0.9986(3) 0.6775(3) 0.7680(4)
C2_14 C 0.9625(5) 0.7009(4) 0.6904(4)
C3_14 C 0.9617(4) 0.6427(3) 0.6951(4)
H4_17 H 0.9808 0.6194 0.8580
C9_14 C 0.9398(5) 0.7433(5) 0.6486(5)
C10_14 C 0.9423(5) 0.5973(5) 0.6610(5)
O1_18 O 0.0582(4) 0.2919(2) 0.8349(3)
O2_15 O 0.0798(4) 0.2267(4) 0.8959(4)
O4_15 O 0.0778(4) 0.1031(5) 0.8867(5)
H1_15 H 0.0839 0.1361 0.8926
N1_15 N 0.0138(3) 0.2217(2) 0.7647(3)
C1_18 C 0.0014(3) 0.1775(3) 0.7320(4)
C2_15 C 0.0375(5) 0.2009(4) 0.8096(4)
C3_15 C 0.0383(4) 0.1427(3) 0.8049(4)
H4_18 H 0.0192 0.1194 0.6420
C9_15 C 0.0602(5) 0.2433(5) 0.8514(5)
C10_15 C 0.0577(5) 0.0973(5) 0.8390(5)
C4_16 C 0.9224(3) 0.2298(3) 0.6067(4)
H2_13 H 0.8944 0.2553 0.5988
C5_16 C 0.9377(4) 0.2220(4) 0.6634(4)
H3_16 H 0.9216 0.2431 0.6916
C6_16 C 0.9771(3) 0.1822(3) 0.6749(3)
C7_16 C 0.9961(3) 0.1493(3) 0.6340(3)
C8_16 C 0.9805(3) 0.1609(3) 0.5794(4)
H5_16 H 0.9947 0.1387 0.5511
O1_19 O 0.5582(4) 0.2081(2) 0.1651(3)
O2_16 O 0.5798(4) 0.2733(4) 0.1041(4)
O4_16 O 0.5778(4) 0.3969(5) 0.1133(5)
H1_16 H 0.5839 0.3639 0.1074
N1_16 N 0.5138(3) 0.2783(2) 0.2353(3)
C1_19 C 0.5014(3) 0.3225(3) 0.2680(4)
C2_16 C 0.5375(5) 0.2991(4) 0.1904(4)
C3_16 C 0.5383(4) 0.3573(3) 0.1951(4)
C4_17 C 0.4224(3) 0.2702(3) 0.3933(4)
H2_14 H 0.3944 0.2447 0.4012
C5_17 C 0.4377(4) 0.2780(4) 0.3366(4)
H3_17 H 0.4216 0.2569 0.3084
C6_17 C 0.4771(3) 0.3178(3) 0.3251(3)
C7_17 C 0.4961(3) 0.3507(3) 0.3660(3)
H4_19 H 0.5192 0.3806 0.3580
C8_17 C 0.4805(3) 0.3391(3) 0.4206(4)
H5_17 H 0.4947 0.3613 0.4489
C9_16 C 0.5602(5) 0.2567(5) 0.1486(5)
C10_16 C 0.5577(5) 0.4027(5) 0.1610(5)
O1_20 O 0.4418(4) 0.7081(2) 0.3349(3)
O2_17 O 0.4202(4) 0.7733(4) 0.3959(4)
O4_17 O 0.4222(4) 0.8969(5) 0.3867(5)
H1_17 H 0.4161 0.8639 0.3926
N1_17 N 0.4862(3) 0.7783(2) 0.2647(3)
C1_20 C 0.4986(3) 0.8225(3) 0.2320(4)
C2_17 C 0.4625(5) 0.7991(4) 0.3096(4)
C3_17 C 0.4617(4) 0.8573(3) 0.3049(4)
C4_18 C 0.5776(3) 0.7702(3) 0.1067(4)
H2_15 H 0.6056 0.7447 0.0988
C5_18 C 0.5623(4) 0.7780(4) 0.1634(4)
H3_18 H 0.5784 0.7569 0.1916
C6_18 C 0.5229(3) 0.8178(3) 0.1749(3)
C7_18 C 0.5039(3) 0.8507(3) 0.1340(3)
H4_20 H 0.4808 0.8806 0.1420
C8_18 C 0.5195(3) 0.8391(3) 0.0794(4)
H5_18 H 0.5053 0.8613 0.0511
C9_17 C 0.4398(5) 0.7567(5) 0.3514(5)
C10_17 C 0.4423(5) 0.9027(5) 0.3390(5)
O1_21 O 0.2919(2) 0.8349(3) 0.0582(4)
O2_18 O 0.2267(4) 0.8959(4) 0.0798(4)
O4_18 O 0.1031(5) 0.8867(5) 0.0778(4)
H1_18 H 0.1361 0.8926 0.0839
N1_18 N 0.2217(2) 0.7647(3) 0.0138(3)
C1_21 C 0.1775(3) 0.7320(4) 0.0014(3)
C2_18 C 0.2009(4) 0.8096(4) 0.0375(5)
C3_18 C 0.1427(3) 0.8049(4) 0.0383(4)
H4_21 H 0.1194 0.6420 0.0192
C9_18 C 0.2433(5) 0.8514(5) 0.0602(5)
C10_18 C 0.0973(5) 0.8390(5) 0.0577(5)
C4_19 C 0.2298(3) 0.6067(4) 0.9224(3)
H2_16 H 0.2553 0.5988 0.8944
C5_19 C 0.2220(4) 0.6634(4) 0.9377(4)
H3_19 H 0.2431 0.6916 0.9216
C6_19 C 0.1822(3) 0.6749(3) 0.9771(3)
C7_19 C 0.1493(3) 0.6340(3) 0.9961(3)
C8_19 C 0.1609(3) 0.5794(4) 0.9805(3)
H5_19 H 0.1387 0.5511 0.9947
O1_22 O 0.7919(2) 0.6651(3) 0.9418(4)
O2_19 O 0.7267(4) 0.6041(4) 0.9202(4)
O4_19 O 0.6031(5) 0.6133(5) 0.9222(4)
H1_19 H 0.6361 0.6074 0.9161
N1_19 N 0.7217(2) 0.7353(3) 0.9862(3)
C1_22 C 0.6775(3) 0.7680(4) 0.9986(3)
C2_19 C 0.7009(4) 0.6904(4) 0.9625(5)
C3_19 C 0.6427(3) 0.6951(4) 0.9617(4)
H4_22 H 0.6194 0.8580 0.9808
C9_19 C 0.7433(5) 0.6486(5) 0.9398(5)
C10_19 C 0.5973(5) 0.6610(5) 0.9423(5)
O1_23 O 0.7081(2) 0.3349(3) 0.4418(4)
O2_20 O 0.7733(4) 0.3959(4) 0.4202(4)
O4_20 O 0.8969(5) 0.3867(5) 0.4222(4)
H1_20 H 0.8639 0.3926 0.4161
N1_20 N 0.7783(2) 0.2647(3) 0.4862(3)
C1_23 C 0.8225(3) 0.2320(4) 0.4986(3)
C2_20 C 0.7991(4) 0.3096(4) 0.4625(5)
C3_20 C 0.8573(3) 0.3049(4) 0.4617(4)
C4_20 C 0.7702(3) 0.1067(4) 0.5776(3)
H2_17 H 0.7447 0.0988 0.6056
C5_20 C 0.7780(4) 0.1634(4) 0.5623(4)
H3_20 H 0.7569 0.1916 0.5784
C6_20 C 0.8178(3) 0.1749(3) 0.5229(3)
C7_20 C 0.8507(3) 0.1340(3) 0.5039(3)
H4_23 H 0.8806 0.1420 0.4808
C8_20 C 0.8391(3) 0.0794(4) 0.5195(3)
H5_20 H 0.8613 0.0511 0.5053
C9_20 C 0.7567(5) 0.3514(5) 0.4398(5)
C10_20 C 0.9027(5) 0.3390(5) 0.4423(5)
O1_24 O 0.2081(2) 0.1651(3) 0.5582(4)
O2_21 O 0.2733(4) 0.1041(4) 0.5798(4)
O4_21 O 0.3969(5) 0.1133(5) 0.5778(4)
H1_21 H 0.3639 0.1074 0.5839
N1_21 N 0.2783(2) 0.2353(3) 0.5138(3)
C1_24 C 0.3225(3) 0.2680(4) 0.5014(3)
C2_21 C 0.2991(4) 0.1904(4) 0.5375(5)
C3_21 C 0.3573(3) 0.1951(4) 0.5383(4)
C4_21 C 0.2702(3) 0.3933(4) 0.4224(3)
H2_18 H 0.2447 0.4012 0.3944
C5_21 C 0.2780(4) 0.3366(4) 0.4377(4)
H3_21 H 0.2569 0.3084 0.4216
C6_21 C 0.3178(3) 0.3251(3) 0.4771(3)
C7_21 C 0.3507(3) 0.3660(3) 0.4961(3)
H4_24 H 0.3806 0.3580 0.5192
C8_21 C 0.3391(3) 0.4206(4) 0.4805(3)
H5_21 H 0.3613 0.4489 0.4947
C9_21 C 0.2567(5) 0.1486(5) 0.5602(5)
C10_21 C 0.4027(5) 0.1610(5) 0.5577(5)
O2_22 O 0.6702(4) 0.1459(4) 0.9767(4)
O3_10 O 0.7039(3) 0.0685(3) 0.7981(3)
O4_22 O 0.6722(4) 0.1367(5) 0.8531(5)
H1_22 H 0.6661 0.1426 0.8861
N1_22 N 0.7362(3) 0.0147(3) 0.9717(2)
N2_10 N 0.7349(3) 0.0071(3) 0.8809(3)
C2_22 C 0.7125(5) 0.0596(4) 0.9509(4)
C3_22 C 0.7117(4) 0.0549(4) 0.8927(3)
C9_22 C 0.6898(5) 0.1014(5) 0.9933(5)
C10_22 C 0.6923(5) 0.0890(5) 0.8473(5)
H2_19 H 0.8488 0.0053 0.8556
N5_10 N 0.9345(3) 0.0552(3) 0.7037(3)
C4_22 C 0.8933(4) 0.0776(3) 0.7298(3)
H2_20 H 0.9012 0.1056 0.7553
C5_22 C 0.8366(4) 0.0623(4) 0.7220(4)
H3_22 H 0.8084 0.0784 0.7431
C6_22 C 0.8251(3) 0.0229(3) 0.6822(3)
C7_22 C 0.8660(3) 0.0039(3) 0.6493(3)
C8_22 C 0.9206(4) 0.0195(3) 0.6609(3)
H5_22 H 0.9489 0.0053 0.6387
H2_21 H 0.8556 0.8488 0.0053
N5_11 N 0.7037(3) 0.9345(3) 0.0552(3)
O2_23 O 0.9767(4) 0.6702(4) 0.1459(4)
O3_11 O 0.7981(3) 0.7039(3) 0.0685(3)
O4_23 O 0.8531(5) 0.6722(4) 0.1367(5)
H1_23 H 0.8861 0.6661 0.1426
N1_23 N 0.9717(2) 0.7362(3) 0.0147(3)
N2_11 N 0.8809(3) 0.7349(3) 0.0071(3)
C2_23 C 0.9509(4) 0.7125(5) 0.0596(4)
C3_23 C 0.8927(3) 0.7117(4) 0.0549(4)
C9_23 C 0.9933(5) 0.6898(5) 0.1014(5)
C10_23 C 0.8473(5) 0.6923(5) 0.0890(5)
C4_23 C 0.7298(3) 0.8933(4) 0.0776(3)
H2_22 H 0.7553 0.9012 0.1056
C5_23 C 0.7220(4) 0.8366(4) 0.0623(4)
H3_23 H 0.7431 0.8084 0.0784
C6_23 C 0.6822(3) 0.8251(3) 0.0229(3)
C7_23 C 0.6493(3) 0.8660(3) 0.0039(3)
C8_23 C 0.6609(3) 0.9206(4) 0.0195(3)
H5_23 H 0.6387 0.9489 0.0053
H2_23 H 0.0053 0.8556 0.8488
N5_12 N 0.0552(3) 0.7037(3) 0.9345(3)
O2_24 O 0.1459(4) 0.9767(4) 0.6702(4)
O3_12 O 0.0685(3) 0.7981(3) 0.7039(3)
O4_24 O 0.1367(5) 0.8531(5) 0.6722(4)
H1_24 H 0.1426 0.8861 0.6661
N1_24 N 0.0147(3) 0.9717(2) 0.7362(3)
N2_12 N 0.0071(3) 0.8809(3) 0.7349(3)
C2_24 C 0.0596(4) 0.9509(4) 0.7125(5)
C3_24 C 0.0549(4) 0.8927(3) 0.7117(4)
C9_24 C 0.1014(5) 0.9933(5) 0.6898(5)
C10_24 C 0.0890(5) 0.8473(5) 0.6923(5)
C4_24 C 0.0776(3) 0.7298(3) 0.8933(4)
H2_24 H 0.1056 0.7553 0.9012
C5_24 C 0.0623(4) 0.7220(4) 0.8366(4)
H3_24 H 0.0784 0.7431 0.8084
C6_24 C 0.0229(3) 0.6822(3) 0.8251(3)
C7_24 C 0.0039(3) 0.6493(3) 0.8660(3)
C8_24 C 0.0195(3) 0.6609(3) 0.9206(4)
H5_24 H 0.0053 0.6387 0.9489
loop_
_geom_bond_atom_site_label_1
_geom_bond_atom_site_label_2
_geom_bond_site_symmetry_1
_geom_bond_site_symmetry_2
Cu1 O1 1_555 1_555
O5 Cu1 1_555 1_555
N4 Cu1 1_555 1_555
N3 C4 1_555 1_555
C5 C4 1_555 1_555
H3 C5 1_555 1_555
C6 C1 1_555 1_555
C7 C6 1_555 1_555
H4 C7 1_555 1_555
C8 N3 1_555 1_555
H5 C8 1_555 1_555
Cu3 N3 1_555 1_555
C5 C6 1_555 1_555
C7 C8 1_555 1_555
N3_2 C4_2 1_555 1_555
C4_2 H2 1_555 1_555
C5_2 C4_2 1_555 1_555
H3_2 C5_2 1_555 1_555
C6_2 C1_2 1_555 1_555
C7_2 C6_2 1_555 1_555
H4_2 C7_2 1_555 1_555
C8_2 N3_2 1_555 1_555
H5_2 C8_2 1_555 1_555
Cu3_2 N3_2 1_555 1_555
C5_2 C6_2 1_555 1_555
C7_2 C8_2 1_555 1_555
Cu1_2 O1_2 1_555 1_555
O1_2 C9 1_555 1_555
O2 C9 1_555 1_555
O3 C10 1_555 1_555
O4 H1 1_555 1_555
N1 Cu1_2 1_555 1_555
C2 N1 1_555 1_555
C3 N2 1_555 1_555
C9 C2 1_555 1_555
C10 O4 1_555 1_555
O5_2 Cu1_2 1_555 1_555
N4_2 Cu1_2 1_555 1_555
C2 C3 1_555 1_555
C3 C10 1_555 1_555
Cu1_3 O1_3 1_555 1_555
O1_3 C9_2 1_555 1_555
O2_2 C9_2 1_555 1_555
O3_2 C10_2 1_555 1_555
O4_2 H1_2 1_555 1_555
N1_2 Cu1_3 1_555 1_555
N2_2 C1_3 1_555 1_555
N3_3 C4_3 1_555 1_555
C1_3 N1_2 1_555 1_555
C2_2 N1_2 1_555 1_555
C3_2 N2_2 1_555 1_555
C4_3 H2_2 1_555 1_555
C5_3 C4_3 1_555 1_555
H3_3 C5_3 1_555 1_555
C6_3 C1_3 1_555 1_555
C7_3 C6_3 1_555 1_555
H4_3 C7_3 1_555 1_555
C8_3 N3_3 1_555 1_555
H5_3 C8_3 1_555 1_555
C9_2 C2_2 1_555 1_555
C10_2 O4_2 1_555 1_555
Cu2_3 O3_2 1_555 1_555
Cu3_3 N3_3 1_555 1_555
O5_3 Cu1_3 1_555 1_555
N4_3 Cu1_3 1_555 1_555
N5_2 Cu1_3 1_555 1_555
N2_2 Cu2_3 1_555 1_555
C2_2 C3_2 1_555 1_555
C3_2 C10_2 1_555 1_555
C5_3 C6_3 1_555 1_555
C7_3 C8_3 1_555 1_555
O2_3 C9_3 1_555 1_555
O3_3 C10_3 1_555 1_555
O4_3 H1_3 1_555 1_555
N2_3 C1_4 1_555 1_555
N3_4 C4_4 1_555 1_555
C1_4 N1_3 1_555 1_555
C2_3 N1_3 1_555 1_555
C3_3 N2_3 1_555 1_555
C5_4 C4_4 1_555 1_555
H3_4 C5_4 1_555 1_555
C6_4 C1_4 1_555 1_555
C7_4 C6_4 1_555 1_555
H4_4 C7_4 1_555 1_555
C8_4 N3_4 1_555 1_555
H5_4 C8_4 1_555 1_555
C9_3 C2_3 1_555 1_555
C10_3 O4_3 1_555 1_555
Cu2_4 O3_3 1_555 1_555
Cu3_4 N3_4 1_555 1_555
N2_3 Cu2_4 1_555 1_555
C2_3 C3_3 1_555 1_555
C3_3 C10_3 1_555 1_555
C5_4 C6_4 1_555 1_555
C7_4 C8_4 1_555 1_555
Cu1_4 O1_4 1_555 1_555
O5_4 Cu1_4 1_555 1_555
N4_4 Cu1_4 1_555 1_555
N5_3 Cu1_4 1_555 1_555
Cu1_5 O1_5 1_555 1_555
O5_5 Cu1_5 1_555 1_555
N4_5 Cu1_5 1_555 1_555
N3_5 C4_5 1_555 1_555
C5_5 C4_5 1_555 1_555
H3_5 C5_5 1_555 1_555
C6_5 C1_5 1_555 1_555
C7_5 C6_5 1_555 1_555
H4_5 C7_5 1_555 1_555
C8_5 N3_5 1_555 1_555
H5_5 C8_5 1_555 1_555
Cu3_5 N3_5 1_555 1_555
C5_5 C6_5 1_555 1_555
C7_5 C8_5 1_555 1_555
N3_6 C4_6 1_555 1_555
C4_6 H2_4 1_555 1_555
C5_6 C4_6 1_555 1_555
H3_6 C5_6 1_555 1_555
C6_6 C1_6 1_555 1_555
C7_6 C6_6 1_555 1_555
H4_6 C7_6 1_555 1_555
C8_6 N3_6 1_555 1_555
H5_6 C8_6 1_555 1_555
Cu3_6 N3_6 1_555 1_555
C5_6 C6_6 1_555 1_555
C7_6 C8_6 1_555 1_555
Cu1_6 O1_6 1_555 1_555
O1_6 C9_4 1_555 1_555
O2_4 C9_4 1_555 1_555
O3_4 C10_4 1_555 1_555
O4_4 H1_4 1_555 1_555
N1_4 Cu1_6 1_555 1_555
C2_4 N1_4 1_555 1_555
C3_4 N2_4 1_555 1_555
C9_4 C2_4 1_555 1_555
C10_4 O4_4 1_555 1_555
O5_6 Cu1_6 1_555 1_555
N4_6 Cu1_6 1_555 1_555
C2_4 C3_4 1_555 1_555
C3_4 C10_4 1_555 1_555
Cu1_7 O1_7 1_555 1_555
O1_7 C9_5 1_555 1_555
O2_5 C9_5 1_555 1_555
O3_5 C10_5 1_555 1_555
O4_5 H1_5 1_555 1_555
N1_5 Cu1_7 1_555 1_555
N2_5 C1_7 1_555 1_555
N3_7 C4_7 1_555 1_555
C1_7 N1_5 1_555 1_555
C2_5 N1_5 1_555 1_555
C3_5 N2_5 1_555 1_555
C4_7 H2_5 1_555 1_555
C5_7 C4_7 1_555 1_555
H3_7 C5_7 1_555 1_555
C6_7 C1_7 1_555 1_555
C7_7 C6_7 1_555 1_555
H4_7 C7_7 1_555 1_555
C8_7 N3_7 1_555 1_555
H5_7 C8_7 1_555 1_555
C9_5 C2_5 1_555 1_555
C10_5 O4_5 1_555 1_555
Cu3_2 O3_5 1_555 1_555
Cu3_7 N3_7 1_555 1_555
O5_7 Cu1_7 1_555 1_555
N4_7 Cu1_7 1_555 1_555
N5_5 Cu1_7 1_555 1_555
N2_5 Cu3_2 1_555 1_555
C2_5 C3_5 1_555 1_555
C3_5 C10_5 1_555 1_555
C5_7 C6_7 1_555 1_555
C7_7 C8_7 1_555 1_555
O2_6 C9_6 1_555 1_555
O3_6 C10_6 1_555 1_555
O4_6 H1_6 1_555 1_555
N2_6 C1_8 1_555 1_555
N3_8 C4_8 1_555 1_555
C1_8 N1_6 1_555 1_555
C2_6 N1_6 1_555 1_555
C3_6 N2_6 1_555 1_555
C5_8 C4_8 1_555 1_555
H3_8 C5_8 1_555 1_555
C6_8 C1_8 1_555 1_555
C7_8 C6_8 1_555 1_555
H4_8 C7_8 1_555 1_555
C8_8 N3_8 1_555 1_555
H5_8 C8_8 1_555 1_555
C9_6 C2_6 1_555 1_555
C10_6 O4_6 1_555 1_555
Cu3_3 O3_6 1_555 1_555
Cu3_8 N3_8 1_555 1_555
N2_6 Cu3_3 1_555 1_555
C2_6 C3_6 1_555 1_555
C3_6 C10_6 1_555 1_555
C5_8 C6_8 1_555 1_555
C7_8 C8_8 1_555 1_555
Cu1_8 O1_8 1_555 1_555
O5_8 Cu1_8 1_555 1_555
N4_8 Cu1_8 1_555 1_555
N5_6 Cu1_8 1_555 1_555
Cu1_9 O1_9 1_555 1_555
O5_9 Cu1_9 1_555 1_555
N4_9 Cu1_9 1_555 1_555
N3_9 C4_9 1_555 1_555
C5_9 C4_9 1_555 1_555
H3_9 C5_9 1_555 1_555
C6_9 C1_9 1_555 1_555
C7_9 C6_9 1_555 1_555
H4_9 C7_9 1_555 1_555
C8_9 N3_9 1_555 1_555
H5_9 C8_9 1_555 1_555
Cu2 N3_9 1_555 1_555
C5_9 C6_9 1_555 1_555
C7_9 C8_9 1_555 1_555
N3_10 C4_10 1_555 1_555
C4_10 H2_7 1_555 1_555
C5_10 C4_10 1_555 1_555
H3_10 C5_10 1_555 1_555
C6_10 C1_10 1_555 1_555
C7_10 C6_10 1_555 1_555
H4_10 C7_10 1_555 1_555
C8_10 N3_10 1_555 1_555
H5_10 C8_10 1_555 1_555
Cu2_3 N3_10 1_555 1_555
C5_10 C6_10 1_555 1_555
C7_10 C8_10 1_555 1_555
Cu1_10 O1_10 1_555 1_555
O1_10 C9_7 1_555 1_555
O2_7 C9_7 1_555 1_555
O3_7 C10_7 1_555 1_555
O4_7 H1_7 1_555 1_555
N1_7 Cu1_10 1_555 1_555
C2_7 N1_7 1_555 1_555
C3_7 N2_7 1_555 1_555
C9_7 C2_7 1_555 1_555
C10_7 O4_7 1_555 1_555
O5_10 Cu1_10 1_555 1_555
N4_10 Cu1_10 1_555 1_555
C2_7 C3_7 1_555 1_555
C3_7 C10_7 1_555 1_555
Cu1_11 O1_11 1_555 1_555
O1_11 C9_8 1_555 1_555
O2_8 C9_8 1_555 1_555
O3_8 C10_8 1_555 1_555
O4_8 H1_8 1_555 1_555
N1_8 Cu1_11 1_555 1_555
N2_8 C1_11 1_555 1_555
N3_11 C4_11 1_555 1_555
C1_11 N1_8 1_555 1_555
C2_8 N1_8 1_555 1_555
C3_8 N2_8 1_555 1_555
C4_11 H2_8 1_555 1_555
C5_11 C4_11 1_555 1_555
H3_11 C5_11 1_555 1_555
C6_11 C1_11 1_555 1_555
C7_11 C6_11 1_555 1_555
H4_11 C7_11 1_555 1_555
C8_11 N3_11 1_555 1_555
H5_11 C8_11 1_555 1_555
C9_8 C2_8 1_555 1_555
C10_8 O4_8 1_555 1_555
Cu3_6 O3_8 1_555 1_555
Cu2_4 N3_11 1_555 1_555
O5_11 Cu1_11 1_555 1_555
N4_11 Cu1_11 1_555 1_555
N5_8 Cu1_11 1_555 1_555
N2_8 Cu3_6 1_555 1_555
C2_8 C3_8 1_555 1_555
C3_8 C10_8 1_555 1_555
C5_11 C6_11 1_555 1_555
C7_11 C8_11 1_555 1_555
O2_9 C9_9 1_555 1_555
O3_9 C10_9 1_555 1_555
O4_9 H1_9 1_555 1_555
N2_9 C1_12 1_555 1_555
N3_12 C4_12 1_555 1_555
C1_12 N1_9 1_555 1_555
C2_9 N1_9 1_555 1_555
C3_9 N2_9 1_555 1_555
C5_12 C4_12 1_555 1_555
H3_12 C5_12 1_555 1_555
C6_12 C1_12 1_555 1_555
C7_12 C6_12 1_555 1_555
H4_12 C7_12 1_555 1_555
C8_12 N3_12 1_555 1_555
H5_12 C8_12 1_555 1_555
C9_9 C2_9 1_555 1_555
C10_9 O4_9 1_555 1_555
Cu3_7 O3_9 1_555 1_555
Cu2_2 N3_12 1_555 1_555
N2_9 Cu3_7 1_555 1_555
C2_9 C3_9 1_555 1_555
C3_9 C10_9 1_555 1_555
C5_12 C6_12 1_555 1_555
C7_12 C8_12 1_555 1_555
Cu1_12 O1_12 1_555 1_555
O5_12 Cu1_12 1_555 1_555
N4_12 Cu1_12 1_555 1_555
N5_9 Cu1_12 1_555 1_555
Cu2_3 O1_13 1_555 1_555
O1_13 C9_10 1_555 1_555
O2_10 C9_10 1_555 1_555
O5_4 C10_10 1_555 1_555
O4_10 H1_10 1_555 1_555
N1_10 Cu2_3 1_555 1_555
N4_4 C1_13 1_555 1_555
N5_7 C4_13 1_555 1_555
C1_13 N1_10 1_555 1_555
C2_10 N1_10 1_555 1_555
C3_10 N4_4 1_555 1_555
C4_13 H2_10 1_555 1_555
C5_13 C4_13 1_555 1_555
H3_13 C5_13 1_555 1_555
C6_13 C1_13 1_555 1_555
C7_13 C6_13 1_555 1_555
H4_13 C7_13 1_555 1_555
C8_13 N5_7 1_555 1_555
H5_13 C8_13 1_555 1_555
C9_10 C2_10 1_555 1_555
C10_10 O4_10 1_555 1_555
C2_10 C3_10 1_555 1_555
C3_10 C10_10 1_555 1_555
C5_13 C6_13 1_555 1_555
C7_13 C8_13 1_555 1_555
Cu2_4 O1_14 1_555 1_555
O1_14 C9_11 1_555 1_555
O2_11 C9_11 1_555 1_555
O5_3 C10_11 1_555 1_555
O4_11 H1_11 1_555 1_555
N1_11 Cu2_4 1_555 1_555
N4_3 C1_14 1_555 1_555
N5_8 C4_14 1_555 1_555
C1_14 N1_11 1_555 1_555
C2_11 N1_11 1_555 1_555
C3_11 N4_3 1_555 1_555
C4_14 H2_11 1_555 1_555
C5_14 C4_14 1_555 1_555
H3_14 C5_14 1_555 1_555
C6_14 C1_14 1_555 1_555
C7_14 C6_14 1_555 1_555
H4_14 C7_14 1_555 1_555
C8_14 N5_8 1_555 1_555
H5_14 C8_14 1_555 1_555
C9_11 C2_11 1_555 1_555
C10_11 O4_11 1_555 1_555
C2_11 C3_11 1_555 1_555
C3_11 C10_11 1_555 1_555
C5_14 C6_14 1_555 1_555
C7_14 C8_14 1_555 1_555
Cu2_2 O1_15 1_555 1_555
O1_15 C9_12 1_555 1_555
O2_12 C9_12 1_555 1_555
O5 C10_12 1_555 1_555
O4_12 H1_12 1_555 1_555
N1_12 Cu2_2 1_555 1_555
N4 C1_15 1_555 1_555
C1_15 N1_12 1_555 1_555
C2_12 N1_12 1_555 1_555
C3_12 N4 1_555 1_555
C9_12 C2_12 1_555 1_555
C10_12 O4_12 1_555 1_555
C2_12 C3_12 1_555 1_555
C3_12 C10_12 1_555 1_555
N5_9 C4_15 1_555 1_555
C4_15 H2_12 1_555 1_555
C5_15 C4_15 1_555 1_555
H3_15 C5_15 1_555 1_555
C7_15 C6_15 1_555 1_555
C8_15 N5_9 1_555 1_555
H5_15 C8_15 1_555 1_555
C5_15 C6_15 1_555 1_555
C7_15 C8_15 1_555 1_555
Cu2 O1_16 1_555 1_555
O1_16 C9_13 1_555 1_555
O2_13 C9_13 1_555 1_555
O5_2 C10_13 1_555 1_555
O4_13 H1_13 1_555 1_555
N1_13 Cu2 1_555 1_555
N4_2 C1_16 1_555 1_555
C1_16 N1_13 1_555 1_555
C2_13 N1_13 1_555 1_555
C3_13 N4_2 1_555 1_555
C9_13 C2_13 1_555 1_555
C10_13 O4_13 1_555 1_555
C2_13 C3_13 1_555 1_555
C3_13 C10_13 1_555 1_555
Cu3_5 O1_17 1_555 1_555
O1_17 C9_14 1_555 1_555
O2_14 C9_14 1_555 1_555
O5_10 C10_14 1_555 1_555
O4_14 H1_14 1_555 1_555
N1_14 Cu3_5 1_555 1_555
N4_10 C1_17 1_555 1_555
C1_17 N1_14 1_555 1_555
C2_14 N1_14 1_555 1_555
C3_14 N4_10 1_555 1_555
C9_14 C2_14 1_555 1_555
C10_14 O4_14 1_555 1_555
C2_14 C3_14 1_555 1_555
C3_14 C10_14 1_555 1_555
Cu3_8 O1_18 1_555 1_555
O1_18 C9_15 1_555 1_555
O2_15 C9_15 1_555 1_555
O5_9 C10_15 1_555 1_555
O4_15 H1_15 1_555 1_555
N1_15 Cu3_8 1_555 1_555
N4_9 C1_18 1_555 1_555
C1_18 N1_15 1_555 1_555
C2_15 N1_15 1_555 1_555
C3_15 N4_9 1_555 1_555
C9_15 C2_15 1_555 1_555
C10_15 O4_15 1_555 1_555
C2_15 C3_15 1_555 1_555
C3_15 C10_15 1_555 1_555
N5_6 C4_16 1_555 1_555
C4_16 H2_13 1_555 1_555
C5_16 C4_16 1_555 1_555
H3_16 C5_16 1_555 1_555
C7_16 C6_16 1_555 1_555
C8_16 N5_6 1_555 1_555
H5_16 C8_16 1_555 1_555
C5_16 C6_16 1_555 1_555
C7_16 C8_16 1_555 1_555
Cu3_7 O1_19 1_555 1_555
O1_19 C9_16 1_555 1_555
O2_16 C9_16 1_555 1_555
O5_11 C10_16 1_555 1_555
O4_16 H1_16 1_555 1_555
N1_16 Cu3_7 1_555 1_555
N4_11 C1_19 1_555 1_555
N5_5 C4_17 1_555 1_555
C1_19 N1_16 1_555 1_555
C2_16 N1_16 1_555 1_555
C3_16 N4_11 1_555 1_555
C4_17 H2_14 1_555 1_555
C5_17 C4_17 1_555 1_555
H3_17 C5_17 1_555 1_555
C6_17 C1_19 1_555 1_555
C7_17 C6_17 1_555 1_555
H4_19 C7_17 1_555 1_555
C8_17 N5_5 1_555 1_555
H5_17 C8_17 1_555 1_555
C9_16 C2_16 1_555 1_555
C10_16 O4_16 1_555 1_555
C2_16 C3_16 1_555 1_555
C3_16 C10_16 1_555 1_555
C5_17 C6_17 1_555 1_555
C7_17 C8_17 1_555 1_555
Cu3_6 O1_20 1_555 1_555
O1_20 C9_17 1_555 1_555
O2_17 C9_17 1_555 1_555
O5_12 C10_17 1_555 1_555
O4_17 H1_17 1_555 1_555
N1_17 Cu3_6 1_555 1_555
N4_12 C1_20 1_555 1_555
N5_4 C4_18 1_555 1_555
C1_20 N1_17 1_555 1_555
C2_17 N1_17 1_555 1_555
C3_17 N4_12 1_555 1_555
C4_18 H2_15 1_555 1_555
C5_18 C4_18 1_555 1_555
H3_18 C5_18 1_555 1_555
C6_18 C1_20 1_555 1_555
C7_18 C6_18 1_555 1_555
H4_20 C7_18 1_555 1_555
C8_18 N5_4 1_555 1_555
H5_18 C8_18 1_555 1_555
C9_17 C2_17 1_555 1_555
C10_17 O4_17 1_555 1_555
C2_17 C3_17 1_555 1_555
C3_17 C10_17 1_555 1_555
C5_18 C6_18 1_555 1_555
C7_18 C8_18 1_555 1_555
Cu3_4 O1_21 1_555 1_555
O1_21 C9_18 1_555 1_555
O2_18 C9_18 1_555 1_555
O5_5 C10_18 1_555 1_555
O4_18 H1_18 1_555 1_555
N1_18 Cu3_4 1_555 1_555
N4_5 C1_21 1_555 1_555
C1_21 N1_18 1_555 1_555
C2_18 N1_18 1_555 1_555
C3_18 N4_5 1_555 1_555
C9_18 C2_18 1_555 1_555
C10_18 O4_18 1_555 1_555
C2_18 C3_18 1_555 1_555
C3_18 C10_18 1_555 1_555
N5_3 C4_19 1_555 1_555
C4_19 H2_16 1_555 1_555
C5_19 C4_19 1_555 1_555
H3_19 C5_19 1_555 1_555
C7_19 C6_19 1_555 1_555
C8_19 N5_3 1_555 1_555
H5_19 C8_19 1_555 1_555
C5_19 C6_19 1_555 1_555
C7_19 C8_19 1_555 1_555
Cu3 O1_22 1_555 1_555
O1_22 C9_19 1_555 1_555
O2_19 C9_19 1_555 1_555
O5_6 C10_19 1_555 1_555
O4_19 H1_19 1_555 1_555
N1_19 Cu3 1_555 1_555
N4_6 C1_22 1_555 1_555
C1_22 N1_19 1_555 1_555
C2_19 N1_19 1_555 1_555
C3_19 N4_6 1_555 1_555
C9_19 C2_19 1_555 1_555
C10_19 O4_19 1_555 1_555
C2_19 C3_19 1_555 1_555
C3_19 C10_19 1_555 1_555
Cu3_2 O1_23 1_555 1_555
O1_23 C9_20 1_555 1_555
O2_20 C9_20 1_555 1_555
O5_8 C10_20 1_555 1_555
O4_20 H1_20 1_555 1_555
N1_20 Cu3_2 1_555 1_555
N4_8 C1_23 1_555 1_555
N5 C4_20 1_555 1_555
C1_23 N1_20 1_555 1_555
C2_20 N1_20 1_555 1_555
C3_20 N4_8 1_555 1_555
C4_20 H2_17 1_555 1_555
C5_20 C4_20 1_555 1_555
H3_20 C5_20 1_555 1_555
C6_20 C1_23 1_555 1_555
C7_20 C6_20 1_555 1_555
H4_23 C7_20 1_555 1_555
C8_20 N5 1_555 1_555
H5_20 C8_20 1_555 1_555
C9_20 C2_20 1_555 1_555
C10_20 O4_20 1_555 1_555
C2_20 C3_20 1_555 1_555
C3_20 C10_20 1_555 1_555
C5_20 C6_20 1_555 1_555
C7_20 C8_20 1_555 1_555
Cu3_3 O1_24 1_555 1_555
O1_24 C9_21 1_555 1_555
O2_21 C9_21 1_555 1_555
O5_7 C10_21 1_555 1_555
O4_21 H1_21 1_555 1_555
N1_21 Cu3_3 1_555 1_555
N4_7 C1_24 1_555 1_555
N5_2 C4_21 1_555 1_555
C1_24 N1_21 1_555 1_555
C2_21 N1_21 1_555 1_555
C3_21 N4_7 1_555 1_555
C4_21 H2_18 1_555 1_555
C5_21 C4_21 1_555 1_555
H3_21 C5_21 1_555 1_555
C6_21 C1_24 1_555 1_555
C7_21 C6_21 1_555 1_555
H4_24 C7_21 1_555 1_555
C8_21 N5_2 1_555 1_555
H5_21 C8_21 1_555 1_555
C9_21 C2_21 1_555 1_555
C10_21 O4_21 1_555 1_555
C2_21 C3_21 1_555 1_555
C3_21 C10_21 1_555 1_555
C5_21 C6_21 1_555 1_555
C7_21 C8_21 1_555 1_555
O2_22 C9_22 1_555 1_555
O3_10 C10_22 1_555 1_555
O4_22 H1_22 1_555 1_555
C2_22 N1_22 1_555 1_555
C3_22 N2_10 1_555 1_555
C9_22 C2_22 1_555 1_555
C10_22 O4_22 1_555 1_555
C2_22 C3_22 1_555 1_555
C3_22 C10_22 1_555 1_555
N5_10 C4_22 1_555 1_555
C4_22 H2_20 1_555 1_555
C5_22 C4_22 1_555 1_555
H3_22 C5_22 1_555 1_555
C7_22 C6_22 1_555 1_555
C8_22 N5_10 1_555 1_555
H5_22 C8_22 1_555 1_555
C5_22 C6_22 1_555 1_555
C7_22 C8_22 1_555 1_555
O2_23 C9_23 1_555 1_555
O3_11 C10_23 1_555 1_555
O4_23 H1_23 1_555 1_555
C2_23 N1_23 1_555 1_555
C3_23 N2_11 1_555 1_555
C9_23 C2_23 1_555 1_555
C10_23 O4_23 1_555 1_555
C2_23 C3_23 1_555 1_555
C3_23 C10_23 1_555 1_555
N5_11 C4_23 1_555 1_555
C4_23 H2_22 1_555 1_555
C5_23 C4_23 1_555 1_555
H3_23 C5_23 1_555 1_555
C7_23 C6_23 1_555 1_555
C8_23 N5_11 1_555 1_555
H5_23 C8_23 1_555 1_555
C5_23 C6_23 1_555 1_555
C7_23 C8_23 1_555 1_555
O2_24 C9_24 1_555 1_555
O3_12 C10_24 1_555 1_555
O4_24 H1_24 1_555 1_555
C2_24 N1_24 1_555 1_555
C3_24 N2_12 1_555 1_555
C9_24 C2_24 1_555 1_555
C10_24 O4_24 1_555 1_555
C2_24 C3_24 1_555 1_555
C3_24 C10_24 1_555 1_555
N5_12 C4_24 1_555 1_555
C4_24 H2_24 1_555 1_555
C5_24 C4_24 1_555 1_555
H3_24 C5_24 1_555 1_555
C7_24 C6_24 1_555 1_555
C8_24 N5_12 1_555 1_555
H5_24 C8_24 1_555 1_555
C5_24 C6_24 1_555 1_555
C7_24 C8_24 1_555 1_555

#END
