
###############################################################################
#
# This file contains modified crystal structure data generated from the
# MOF subset of the Cambridge Structural Database (CSD) v543 
# hosted by the Cambridge Crystallographic Data Centre (CCDC).
#
# This work is licensed under the Creative Commons
# Attribution-NonCommercial-ShareAlike 4.0 International License.
# To view a copy of this license, visit
# http://creativecommons.org/licenses/by-nc-sa/4.0/
# or send a letter to
# Creative Commons, PO Box 1866, Mountain View, CA 94042, USA.
#
# CIF created using the CSD Python API on 29 September 2022
# The structure has been converted into the P1 space group
# The structure has a 3D framework
# The original CSD entry PURQEZ is in the monoclinic crystal system
# The framework has been calculated to contain at least 10.0% void space
# The void calculation uses a probe of radius 1.32A, grid spacing 0.4
# H atom positions have been added when not included in the experimental data
#
###############################################################################

data_PURQEZ
_chemical_formula_moiety         '(C32 H40 O32 Zn2)n'
_symmetry_cell_setting           triclinic
_symmetry_space_group_name_H-M   'P 1'
_symmetry_Int_Tables_number      1
_space_group_name_Hall           'P 1'
loop_
_symmetry_equiv_pos_site_id
_symmetry_equiv_pos_as_xyz
1 x,y,z
_cell_length_a                   8.940(2)
_cell_length_b                   14.02(1)
_cell_length_c                   12.48(1)
_cell_angle_alpha                90
_cell_angle_beta                 91.73(4)
_cell_angle_gamma                90
_cell_volume                     1563.52
loop_
_atom_site_label
_atom_site_type_symbol
_atom_site_fract_x
_atom_site_fract_y
_atom_site_fract_z
O2 O 0.1858(9) 0.0263(6) 0.5606(7)
O3 O 0.3773(8) 0.0777(6) 0.6634(7)
C4 C 0.3188(11) 0.0267(7) 0.5832(9)
Zn3 Zn 0.7500 0.32633(12) 0.2500
O9 O 0.5848(9) 0.2454(6) 0.3031(7)
C9 C 0.6243(13) 0.1883(10) 0.3783(11)
Zn5 Zn 0.2500 0.16126(12) 0.7500
C10 C 0.5105(12) 0.1175(9) 0.4185(10)
H7 H 0.4410 0.1525 0.4646
H8 H 0.4511 0.0939 0.3557
C11 C 0.5682(11) 0.0313(8) 0.4810(9)
H9 H 0.6222 0.0556 0.5468
O21 O 0.7550(11) 0.1934(8) 0.4252(10)
Zn1 Zn 0.2500 0.67367(12) 0.7500
O1 O 0.4152(9) 0.7546(6) 0.6969(7)
C1 C 0.3757(13) 0.8117(10) 0.6217(11)
C2 C 0.4895(12) 0.8825(9) 0.5815(10)
H1 H 0.5590 0.8475 0.5354
H2 H 0.5489 0.9061 0.6443
C3 C 0.4318(11) 0.9687(8) 0.5190(9)
H3 H 0.3778 0.9444 0.4532
O4 O 0.1004(10) 0.2308(6) 0.6647(7)
C5 C 0.1461(15) 0.3128(10) 0.6151(9)
O5 O 0.2734(11) 0.3317(9) 0.6068(11)
C6 C 0.0154(13) 0.3716(10) 0.5664(10)
O6 O 0.2155(10) 0.5854(6) 0.6280(6)
C7 C 0.0584(11) 0.4723(8) 0.5342(10)
H6 H 0.1509 0.4674 0.4913
O7 O 0.0112(11) 0.5375(9) 0.7066(8)
C8 C 0.0958(13) 0.5328(9) 0.6295(10)
O8 O 0.2450(11) 0.8066(8) 0.5748(10)
O10 O 0.0848(9) 0.7546(6) 0.8031(7)
Zn6 Zn 0.7500 0.83874(12) 0.2500
O11 O 0.8142(9) 0.9737(6) 0.4394(7)
O12 O 0.6227(8) 0.9223(6) 0.3366(7)
O14 O 0.1227(8) 0.0777(6) 0.8366(7)
C12 C 0.6812(11) 0.9733(7) 0.4168(9)
O16 O 0.3996(10) 0.2308(6) 0.8353(7)
H10 H 0.0258 0.6622 0.4976
H11 H 0.0648 0.6247 0.3807
O19 O 0.2845(10) 0.5854(6) 0.8720(6)
H13 H 0.830845 0.949567 0.513611
H16 H 0.166645 0.816183 0.62849
H4 H 0.9742 0.3378 0.5024
H5 H 0.9352 0.3753 0.6193
O15 O 0.8996(10) 0.7692(6) 0.3353(7)
C13 C 0.8539(15) 0.6872(10) 0.3849(9)
O17 O 0.7266(11) 0.6683(9) 0.3932(11)
C14 C 0.9846(13) 0.6284(10) 0.4336(10)
O18 O 0.7845(10) 0.4146(6) 0.3720(6)
C15 C 0.9416(11) 0.5277(8) 0.4658(10)
H12 H 0.8491 0.5326 0.5087
O20 O 0.9888(11) 0.4625(9) 0.2934(8)
C16 C 0.9042(13) 0.4672(9) 0.3705(10)
H14 H 0.678049 0.663294 0.3208
H15 H 0.972705 0.603618 0.713125
O2_2 O 0.3142(9) 0.0263(6) 0.9394(7)
C4_2 C 0.1812(11) 0.0267(7) 0.9168(9)
H3_2 H 0.1222 0.9444 0.0468
H6_2 H 0.3491 0.4674 0.0087
O15_2 O 0.6004(10) 0.7692(6) 0.1647(7)
C13_2 C 0.6461(15) 0.6872(10) 0.1151(9)
O17_2 O 0.7734(11) 0.6683(9) 0.1068(11)
C14_2 C 0.5154(13) 0.6284(10) 0.0664(10)
H10_2 H 0.4742 0.6622 0.0024
H11_2 H 0.4352 0.6247 0.1193
O18_2 O 0.7155(10) 0.4146(6) 0.1280(6)
C15_2 C 0.5584(11) 0.5277(8) 0.0342(10)
O20_2 O 0.5112(11) 0.4625(9) 0.2066(8)
C16_2 C 0.5958(13) 0.4672(9) 0.1295(10)
H14_2 H 0.821951 0.663294 0.1792
C1_2 C 0.1243(13) 0.8117(10) 0.8783(11)
C2_2 C 0.0105(12) 0.8825(9) 0.9185(10)
C3_2 C 0.0682(11) 0.9687(8) 0.9810(9)
C5_2 C 0.3539(15) 0.3128(10) 0.8849(9)
O5_2 O 0.2266(11) 0.3317(9) 0.8932(11)
C6_2 C 0.4846(13) 0.3716(10) 0.9336(10)
H4_2 H 0.5258 0.3378 0.9976
H5_2 H 0.5648 0.3753 0.8807
C7_2 C 0.4416(11) 0.4723(8) 0.9658(10)
O7_2 O 0.4888(11) 0.5375(9) 0.7934(8)
C8_2 C 0.4042(13) 0.5328(9) 0.8705(10)
O8_2 O 0.2550(11) 0.8066(8) 0.9252(10)
H12_2 H 0.6509 0.5326 0.9913
H15_2 H 0.527295 0.603618 0.786875
H16_2 H 0.333355 0.816183 0.87151
O9_2 O 0.9152(9) 0.2454(6) 0.1969(7)
C9_2 C 0.8757(13) 0.1883(10) 0.1217(11)
C10_2 C 0.9895(12) 0.1175(9) 0.0815(10)
C11_2 C 0.9318(11) 0.0313(8) 0.0190(9)
O21_2 O 0.7450(11) 0.1934(8) 0.0748(10)
H9_2 H 0.8778 0.0556 0.9532
O11_2 O 0.6858(9) 0.9737(6) 0.0606(7)
O12_2 O 0.8773(8) 0.9223(6) 0.1634(7)
C12_2 C 0.8188(11) 0.9733(7) 0.0832(9)
H14_3 H 0.321951 0.336706 0.6792
H15_3 H 0.0272947 0.396382 0.286875
H13_2 H 0.169155 0.0504328 0.486389
H16_3 H 0.833355 0.183817 0.37151
H15_4 H 0.472705 0.396382 0.213125
H16_4 H 0.666645 0.183817 0.12849
H14_4 H 0.178049 0.336706 0.8208
H7_2 H 0.0590 0.1525 0.0354
H8_2 H 0.0489 0.0939 0.1443
H13_3 H 0.330845 0.0504328 0.0136107
H1_2 H 0.9410 0.8475 0.9646
H2_2 H 0.9511 0.9061 0.8557
H13_4 H 0.669155 0.949567 0.986389
loop_
_geom_bond_atom_site_label_1
_geom_bond_atom_site_label_2
_geom_bond_site_symmetry_1
_geom_bond_site_symmetry_2
O2 C4 1_555 1_555
O3 C4 1_555 1_555
Zn3 O9 1_555 1_555
O9 C9 1_555 1_555
C9 C10 1_555 1_555
Zn5 O3 1_555 1_555
C10 H7 1_555 1_555
H8 C10 1_555 1_555
H9 C11 1_555 1_555
O21 C9 1_555 1_555
C10 C11 1_555 1_555
Zn1 O1 1_555 1_555
O1 C1 1_555 1_555
C1 C2 1_555 1_555
Zn5 O4 1_555 1_555
C2 H1 1_555 1_555
H2 C2 1_555 1_555
C3 C2 1_555 1_555
H3 C3 1_555 1_555
O4 C5 1_555 1_555
C5 O5 1_555 1_555
C6 C5 1_555 1_555
O6 Zn1 1_555 1_555
C7 C6 1_555 1_555
H6 C7 1_555 1_555
O7 C8 1_555 1_555
C8 O6 1_555 1_555
O8 C1 1_555 1_555
O10 Zn1 1_555 1_555
Zn6 O12 1_555 1_555
O11 C12 1_555 1_555
O12 C12 1_555 1_555
O14 Zn5 1_555 1_555
O16 Zn5 1_555 1_555
O19 Zn1 1_555 1_555
C7 C8 1_555 1_555
O11 H13 1_555 1_555
O8 H16 1_555 1_555
Zn3 O18 1_555 1_555
Zn6 O15 1_555 1_555
O15 C13 1_555 1_555
C13 O17 1_555 1_555
C14 C13 1_555 1_555
O18 C16 1_555 1_555
H12 C15 1_555 1_555
O20 C16 1_555 1_555
C16 C15 1_555 1_555
C14 C15 1_555 1_555
O17 H14 1_555 1_555
O2_2 C4_2 1_555 1_555
O14 C4_2 1_555 1_555
Zn3 O18_2 1_555 1_555
Zn6 O15_2 1_555 1_555
O15_2 C13_2 1_555 1_555
C13_2 O17_2 1_555 1_555
C14_2 C13_2 1_555 1_555
H10_2 C14_2 1_555 1_555
H11_2 C14_2 1_555 1_555
O18_2 C16_2 1_555 1_555
O20_2 C16_2 1_555 1_555
C16_2 C15_2 1_555 1_555
C14_2 C15_2 1_555 1_555
O17_2 H14_2 1_555 1_555
O10 C1_2 1_555 1_555
C1_2 C2_2 1_555 1_555
C3_2 C2_2 1_555 1_555
O16 C5_2 1_555 1_555
C5_2 O5_2 1_555 1_555
C6_2 C5_2 1_555 1_555
H4_2 C6_2 1_555 1_555
H5_2 C6_2 1_555 1_555
C7_2 C6_2 1_555 1_555
O7_2 C8_2 1_555 1_555
C8_2 O19 1_555 1_555
O8_2 C1_2 1_555 1_555
C7_2 C8_2 1_555 1_555
O7_2 H15_2 1_555 1_555
O8_2 H16_2 1_555 1_555
Zn3 O9_2 1_555 1_555
O9_2 C9_2 1_555 1_555
C9_2 C10_2 1_555 1_555
O21_2 C9_2 1_555 1_555
C10_2 C11_2 1_555 1_555
Zn6 O12_2 1_555 1_555
O11_2 C12_2 1_555 1_555
O12_2 C12_2 1_555 1_555
O5 H14_3 1_555 1_555
O2 H13_2 1_555 1_555
O21 H16_3 1_555 1_555
O20_2 H15_4 1_555 1_555
O21_2 H16_4 1_555 1_555
O5_2 H14_4 1_555 1_555

#END
