
###############################################################################
#
# This file contains modified crystal structure data generated from the
# MOF subset of the Cambridge Structural Database (CSD) v543 
# hosted by the Cambridge Crystallographic Data Centre (CCDC).
#
# This work is licensed under the Creative Commons
# Attribution-NonCommercial-ShareAlike 4.0 International License.
# To view a copy of this license, visit
# http://creativecommons.org/licenses/by-nc-sa/4.0/
# or send a letter to
# Creative Commons, PO Box 1866, Mountain View, CA 94042, USA.
#
# CIF created using the CSD Python API on 29 September 2022
# The structure has been converted into the P1 space group
# The structure has a 3D framework
# The original CSD entry PURQUP is in the cubic crystal system
# The original CSD entry PURQUP is in a Sohncke space group
# The framework has been calculated to contain at least 10.0% void space
# The void calculation uses a probe of radius 1.32A, grid spacing 0.4
#
###############################################################################

data_PURQUP
_chemical_formula_moiety         '(C360 H192 Cu36 N108 O144)n'
_symmetry_cell_setting           triclinic
_symmetry_space_group_name_H-M   'P 1'
_symmetry_Int_Tables_number      1
_space_group_name_Hall           'P 1'
loop_
_symmetry_equiv_pos_site_id
_symmetry_equiv_pos_as_xyz
1 x,y,z
_cell_length_a                   27.289(3)
_cell_length_b                   27.289(3)
_cell_length_c                   27.289(3)
_cell_angle_alpha                90
_cell_angle_beta                 90
_cell_angle_gamma                90
_cell_volume                     20321.8
loop_
_atom_site_label
_atom_site_type_symbol
_atom_site_fract_x
_atom_site_fract_y
_atom_site_fract_z
Cu6 Cu 0.64389(4) 0.57063(4) 0.01416(4)
Cu1 Cu 0.82063(4) 0.39389(4) 0.73584(4)
Cu2 Cu 0.6250 0.50077(5) 0.74923(5)
O1 O 0.8539(2) 0.4683(3) 0.7584(3)
O2 O 0.8295(3) 0.5449(3) 0.7573(3)
O3 O 0.6745(3) 0.5758(3) 0.7545(3)
O4 O 0.7532(3) 0.5917(3) 0.7598(4)
H1 H 0.7785 0.5759 0.7633
O5 O 0.8749(3) 0.3494(3) 0.7317(3)
O6 O 0.9252(4) 0.3113(4) 0.6806(4)
H2 H 0.940(4) 0.313(4) 0.647(4)
N1 N 0.7609(2) 0.4341(2) 0.7383(3)
N2 N 0.6889(2) 0.4763(2) 0.7416(3)
N3 N 0.6357(3) 0.3012(3) 0.6948(3)
N4 N 0.8354(2) 0.4026(2) 0.6646(2)
N5 N 0.7107(3) 0.5393(3) 0.6250
C1 C 0.7137(3) 0.4342(3) 0.7337(3)
C2 C 0.7693(3) 0.4842(3) 0.7480(3)
C3 C 0.7260(3) 0.5105(3) 0.7495(3)
C4 C 0.8233(4) 0.4995(3) 0.7568(3)
C5 C 0.7142(5) 0.5599(4) 0.7508(4)
C6 C 0.6885(4) 0.3014(4) 0.6933(4)
H3 H 0.7071 0.2746 0.6835
C7 C 0.7097(3) 0.3480(4) 0.7089(4)
H4 H 0.7437 0.3492 0.7110
C8 C 0.6875(3) 0.3861(3) 0.7196(3)
C9 C 0.6349(4) 0.3842(4) 0.7165(5)
H5 H 0.6163 0.4127 0.7191
C10 C 0.6132(3) 0.3402(3) 0.7097(4)
H6 H 0.5799 0.3378 0.7162
C11 C 0.8235(3) 0.4265(3) 0.6250
C12 C 0.8700(3) 0.3707(3) 0.6482(3)
C13 C 0.8912(4) 0.3425(4) 0.6899(5)
C14 C 0.7595(5) 0.5528(4) 0.6300(5)
H7 H 0.7685 0.5854 0.6340
C15 C 0.7959(4) 0.5145(4) 0.6287(4)
H8 H 0.8292 0.5219 0.6306
C16 C 0.7809(3) 0.4691(3) 0.6250
Cu3 Cu 0.42937(4) 0.51416(4) 0.85611(4)
Cu4 Cu 0.60611(4) 0.23584(4) 0.67937(4)
Cu5 Cu 0.85611(4) 0.42937(4) 0.51416(4)
O7 O 0.3961(2) 0.4916(3) 0.7817(3)
O8 O 0.4205(3) 0.4927(3) 0.7051(3)
O9 O 0.5755(3) 0.4955(3) 0.6742(3)
O10 O 0.4968(3) 0.4902(4) 0.6583(3)
H9 H 0.4715 0.4867 0.6741
O11 O 0.9006(3) 0.3751(3) 0.5183(3)
O12 O 0.3751(3) 0.5183(3) 0.9006(3)
O13 O 0.9387(4) 0.3248(4) 0.5694(4)
H10 H 0.937(4) 0.310(4) 0.603(4)
N6 N 0.4891(2) 0.5117(3) 0.8159(2)
N7 N 0.5611(2) 0.5084(3) 0.7737(2)
N8 N 0.6143(3) 0.5552(3) 0.9488(3)
N9 N 0.8052(3) 0.3643(3) 0.8012(3)
N10 N 0.4448(3) 0.4488(3) 0.8857(3)
N11 N 0.8474(2) 0.4146(2) 0.5854(2)
N12 N 0.4146(2) 0.5854(2) 0.8474(2)
C17 C 0.5363(3) 0.5163(3) 0.8158(3)
C18 C 0.4807(3) 0.5020(3) 0.7658(3)
C19 C 0.5240(3) 0.5005(3) 0.7395(3)
C20 C 0.4267(4) 0.4932(3) 0.7505(3)
C21 C 0.5358(5) 0.4992(4) 0.6901(4)
C22 C 0.5615(4) 0.5567(4) 0.9486(4)
H11 H 0.5429 0.5665 0.9754
C23 C 0.5403(3) 0.5411(4) 0.9020(4)
H12 H 0.5063 0.5390 0.9008
C24 C 0.5625(3) 0.5304(3) 0.8639(3)
C25 C 0.6151(4) 0.5335(5) 0.8658(4)
H13 H 0.6337 0.5309 0.8373
C26 C 0.6368(3) 0.5403(4) 0.9098(3)
H14 H 0.6701 0.5338 0.9122
C27 C 0.8793(3) 0.3800(3) 0.6018(3)
C28 C 0.9075(4) 0.3588(4) 0.5601(5)
C29 C 0.6972(4) 0.4905(5) 0.6200(5)
H15 H 0.6646 0.4815 0.6160
C30 C 0.7355(4) 0.4541(4) 0.6213(4)
H16 H 0.7281 0.4208 0.6194
Cu3_2 Cu 0.07063(4) 0.48584(4) 0.35611(4)
O7_2 O 0.1039(2) 0.5084(3) 0.2817(3)
O8_2 O 0.0795(3) 0.5073(3) 0.2051(3)
O10_2 O 0.0032(3) 0.5098(4) 0.1583(3)
H9_2 H 0.0285 0.5133 0.1741
O12_2 O 0.1249(3) 0.4817(3) 0.4006(3)
N6_2 N 0.0109(2) 0.4883(3) 0.3159(2)
N10_2 N 0.0552(3) 0.5512(3) 0.3857(3)
N12_2 N 0.0854(2) 0.4146(2) 0.3474(2)
C18_2 C 0.0193(3) 0.4980(3) 0.2658(3)
C20_2 C 0.0733(4) 0.5068(3) 0.2505(3)
Cu1_2 Cu 0.67937(4) 0.60611(4) 0.23584(4)
Cu2_2 Cu 0.8750 0.49923(5) 0.24923(5)
O1_2 O 0.6461(2) 0.5317(3) 0.2584(3)
O2_2 O 0.6705(3) 0.4551(3) 0.2573(3)
O3_2 O 0.8255(3) 0.4242(3) 0.2545(3)
O4_2 O 0.7468(3) 0.4083(3) 0.2598(4)
H1_2 H 0.7215 0.4241 0.2633
O5_2 O 0.6251(3) 0.6506(3) 0.2317(3)
O6_2 O 0.5748(4) 0.6887(4) 0.1806(4)
H2_2 H 0.560(4) 0.687(4) 0.147(4)
N1_2 N 0.7391(2) 0.5659(2) 0.2383(3)
N2_2 N 0.8111(2) 0.5237(2) 0.2416(3)
N3_2 N 0.8643(3) 0.6988(3) 0.1948(3)
N4_2 N 0.6646(2) 0.5974(2) 0.1646(2)
N5_2 N 0.7893(3) 0.4607(3) 0.1250
C1_2 C 0.7863(3) 0.5658(3) 0.2337(3)
C2_2 C 0.7307(3) 0.5158(3) 0.2480(3)
C3_2 C 0.7740(3) 0.4895(3) 0.2495(3)
C4_2 C 0.6767(4) 0.5005(3) 0.2568(3)
C5_2 C 0.7858(5) 0.4401(4) 0.2508(4)
C6_2 C 0.8115(4) 0.6986(4) 0.1933(4)
H3_2 H 0.7929 0.7254 0.1835
C7_2 C 0.7903(3) 0.6520(4) 0.2089(4)
H4_2 H 0.7563 0.6508 0.2110
C8_2 C 0.8125(3) 0.6139(3) 0.2196(3)
C9_2 C 0.8651(4) 0.6158(4) 0.2165(5)
H5_2 H 0.8837 0.5873 0.2191
C10_2 C 0.8868(3) 0.6598(3) 0.2097(4)
H6_2 H 0.9201 0.6622 0.2162
C11_2 C 0.6765(3) 0.5735(3) 0.1250
C12_2 C 0.6300(3) 0.6293(3) 0.1482(3)
C13_2 C 0.6088(4) 0.6575(4) 0.1899(5)
C14_2 C 0.7405(5) 0.4472(4) 0.1300(5)
H7_2 H 0.7315 0.4146 0.1340
C15_2 C 0.7041(4) 0.4855(4) 0.1287(4)
H8_2 H 0.6708 0.4781 0.1306
C16_2 C 0.7191(3) 0.5309(3) 0.1250
Cu4_2 Cu 0.89389(4) 0.76416(4) 0.17937(4)
O9_2 O 0.9245(3) 0.5045(3) 0.1742(3)
O11_2 O 0.5994(3) 0.6249(3) 0.0183(3)
O13_2 O 0.5613(4) 0.6752(4) 0.0694(4)
H10_2 H 0.563(4) 0.690(4) 0.103(4)
N7_2 N 0.9389(2) 0.4916(3) 0.2737(2)
N8_2 N 0.8857(3) 0.4448(3) 0.4488(3)
N9_2 N 0.6948(3) 0.6357(3) 0.3012(3)
N11_2 N 0.6526(2) 0.5854(2) 0.0854(2)
C17_2 C 0.9637(3) 0.4837(3) 0.3158(3)
C19_2 C 0.9760(3) 0.4995(3) 0.2395(3)
C21_2 C 0.9642(5) 0.5008(4) 0.1901(4)
C22_2 C 0.9385(4) 0.4433(4) 0.4486(4)
H11_2 H 0.9571 0.4335 0.4754
C23_2 C 0.9597(3) 0.4589(4) 0.4020(4)
H12_2 H 0.9937 0.4610 0.4008
C24_2 C 0.9375(3) 0.4696(3) 0.3639(3)
C25_2 C 0.8849(4) 0.4665(5) 0.3658(4)
H13_2 H 0.8663 0.4691 0.3373
C26_2 C 0.8632(3) 0.4597(4) 0.4098(3)
H14_2 H 0.8299 0.4662 0.4122
C27_2 C 0.6207(3) 0.6200(3) 0.1018(3)
C28_2 C 0.5925(4) 0.6412(4) 0.0601(5)
C29_2 C 0.8028(4) 0.5095(5) 0.1200(5)
H15_2 H 0.8354 0.5185 0.1160
C30_2 C 0.7645(4) 0.5459(4) 0.1213(4)
H16_2 H 0.7719 0.5792 0.1194
Cu2_3 Cu 0.3750 0.00077(5) 0.75077(5)
O2_3 O 0.1705(3) 0.0449(3) 0.7427(3)
O3_3 O 0.3255(3) 0.0758(3) 0.7455(3)
O4_3 O 0.2468(3) 0.0917(3) 0.7402(4)
H1_3 H 0.2215 0.0759 0.7367
N5_3 N 0.2893(3) 0.0393(3) 0.8750
C3_3 C 0.2740(3) 0.0105(3) 0.7505(3)
C5_3 C 0.2858(5) 0.0599(4) 0.7492(4)
C14_3 C 0.2405(5) 0.0528(4) 0.8700(5)
H7_3 H 0.2315 0.0854 0.8660
C15_3 C 0.2041(4) 0.0145(4) 0.8713(4)
H8_3 H 0.1708 0.0219 0.8694
Cu3_3 Cu 0.57063(4) 0.01416(4) 0.64389(4)
Cu6_2 Cu 0.35611(4) 0.07063(4) 0.48584(4)
O12_3 O 0.6249(3) 0.0183(3) 0.5994(3)
N6_3 N 0.5109(2) 0.0117(3) 0.6841(2)
N7_3 N 0.4389(2) 0.0084(3) 0.7263(2)
N8_3 N 0.3857(3) 0.0552(3) 0.5512(3)
N12_3 N 0.5854(2) 0.0854(2) 0.6526(2)
C17_3 C 0.4637(3) 0.0163(3) 0.6842(3)
C18_3 C 0.5193(3) 0.0020(3) 0.7342(3)
C19_3 C 0.4760(3) 0.0005(3) 0.7605(3)
C22_3 C 0.4385(4) 0.0567(4) 0.5514(4)
H11_3 H 0.4571 0.0665 0.5246
C23_3 C 0.4597(3) 0.0411(4) 0.5980(4)
H12_3 H 0.4937 0.0390 0.5992
C24_3 C 0.4375(3) 0.0304(3) 0.6361(3)
C25_3 C 0.3849(4) 0.0335(5) 0.6342(4)
H13_3 H 0.3663 0.0309 0.6627
C26_3 C 0.3632(3) 0.0403(4) 0.5902(3)
H14_3 H 0.3299 0.0338 0.5878
Cu1_3 Cu 0.17937(4) 0.89389(4) 0.76416(4)
O1_3 O 0.1461(2) 0.9683(3) 0.7416(3)
O5_3 O 0.1251(3) 0.8494(3) 0.7683(3)
O6_3 O 0.0748(4) 0.8113(4) 0.8194(4)
H2_3 H 0.060(4) 0.813(4) 0.853(4)
N1_3 N 0.2391(2) 0.9341(2) 0.7617(3)
N2_3 N 0.3111(2) 0.9763(2) 0.7584(3)
N3_3 N 0.3643(3) 0.8012(3) 0.8052(3)
N4_3 N 0.1646(2) 0.9026(2) 0.8354(2)
C1_3 C 0.2863(3) 0.9342(3) 0.7663(3)
C2_3 C 0.2307(3) 0.9842(3) 0.7520(3)
C4_3 C 0.1767(4) 0.9995(3) 0.7432(3)
C6_3 C 0.3115(4) 0.8014(4) 0.8067(4)
H3_3 H 0.2929 0.7746 0.8165
C7_3 C 0.2903(3) 0.8480(4) 0.7911(4)
H4_3 H 0.2563 0.8492 0.7890
C8_3 C 0.3125(3) 0.8861(3) 0.7804(3)
C9_3 C 0.3651(4) 0.8842(4) 0.7835(5)
H5_3 H 0.3837 0.9127 0.7809
C10_3 C 0.3868(3) 0.8402(3) 0.7903(4)
H6_3 H 0.4201 0.8378 0.7838
C11_3 C 0.1765(3) 0.9265(3) 0.8750
C12_3 C 0.1300(3) 0.8707(3) 0.8518(3)
C13_3 C 0.1088(4) 0.8425(4) 0.8101(5)
C16_3 C 0.2191(3) 0.9691(3) 0.8750
Cu4_3 Cu 0.39389(4) 0.73584(4) 0.82063(4)
Cu5_2 Cu 0.14389(4) 0.92937(4) 0.98584(4)
O7_3 O 0.6039(2) 0.9916(3) 0.7183(3)
O8_3 O 0.5795(3) 0.9927(3) 0.7949(3)
O9_3 O 0.4245(3) 0.9955(3) 0.8258(3)
O10_3 O 0.5032(3) 0.9902(4) 0.8417(3)
H9_3 H 0.5285 0.9867 0.8259
O11_3 O 0.0994(3) 0.8751(3) 0.9817(3)
O13_3 O 0.0613(4) 0.8248(4) 0.9306(4)
H10_3 H 0.063(4) 0.810(4) 0.897(4)
N9_3 N 0.1948(3) 0.8643(3) 0.6988(3)
N10_3 N 0.5552(3) 0.9488(3) 0.6143(3)
N11_3 N 0.1526(2) 0.9146(2) 0.9146(2)
C20_3 C 0.5733(4) 0.9932(3) 0.7495(3)
C21_3 C 0.4642(5) 0.9992(4) 0.8099(4)
C27_3 C 0.1207(3) 0.8800(3) 0.8982(3)
C28_3 C 0.0925(4) 0.8588(4) 0.9399(5)
C29_3 C 0.3028(4) 0.9905(5) 0.8800(5)
H15_3 H 0.3354 0.9815 0.8840
C30_3 C 0.2645(4) 0.9541(4) 0.8787(4)
H16_3 H 0.2719 0.9208 0.8806
Cu1_4 Cu 0.32063(4) 0.10611(4) 0.26416(4)
O1_4 O 0.3539(2) 0.0317(3) 0.2416(3)
O5_4 O 0.3749(3) 0.1506(3) 0.2683(3)
O6_4 O 0.4252(4) 0.1887(4) 0.3194(4)
H2_4 H 0.440(4) 0.187(4) 0.353(4)
N1_4 N 0.2609(2) 0.0659(2) 0.2617(3)
N2_4 N 0.1889(2) 0.0237(2) 0.2584(3)
N3_4 N 0.1357(3) 0.1988(3) 0.3052(3)
N4_4 N 0.3354(2) 0.0974(2) 0.3354(2)
C1_4 C 0.2137(3) 0.0658(3) 0.2663(3)
C2_4 C 0.2693(3) 0.0158(3) 0.2520(3)
C4_4 C 0.3233(4) 0.0005(3) 0.2432(3)
C6_4 C 0.1885(4) 0.1986(4) 0.3067(4)
H3_4 H 0.2071 0.2254 0.3165
C7_4 C 0.2097(3) 0.1520(4) 0.2911(4)
H4_4 H 0.2437 0.1508 0.2890
C8_4 C 0.1875(3) 0.1139(3) 0.2804(3)
C9_4 C 0.1349(4) 0.1158(4) 0.2835(5)
H5_4 H 0.1163 0.0873 0.2809
C10_4 C 0.1132(3) 0.1598(3) 0.2903(4)
H6_4 H 0.0799 0.1622 0.2838
C11_4 C 0.3235(3) 0.0735(3) 0.3750
C12_4 C 0.3700(3) 0.1293(3) 0.3518(3)
C13_4 C 0.3912(4) 0.1575(4) 0.3101(5)
C16_4 C 0.2809(3) 0.0309(3) 0.3750
Cu4_4 Cu 0.10611(4) 0.26416(4) 0.32063(4)
O9_4 O 0.0755(3) 0.0045(3) 0.3258(3)
O11_4 O 0.4006(3) 0.1249(3) 0.4817(3)
O13_4 O 0.4387(4) 0.1752(4) 0.4306(4)
H10_4 H 0.437(4) 0.190(4) 0.397(4)
N9_4 N 0.3052(3) 0.1357(3) 0.1988(3)
N11_4 N 0.3474(2) 0.0854(2) 0.4146(2)
C21_4 C 0.0358(5) 0.0008(4) 0.3099(4)
C27_4 C 0.3793(3) 0.1200(3) 0.3982(3)
C28_4 C 0.4075(4) 0.1412(4) 0.4399(5)
C29_4 C 0.1972(4) 0.0095(5) 0.3800(5)
H15_4 H 0.1646 0.0185 0.3840
C30_4 C 0.2355(4) 0.0459(4) 0.3787(4)
H16_4 H 0.2281 0.0792 0.3806
Cu2_4 Cu 0.1250 0.99923(5) 0.25077(5)
O2_4 O 0.3295(3) 0.9551(3) 0.2427(3)
O3_4 O 0.1745(3) 0.9242(3) 0.2455(3)
O4_4 O 0.2532(3) 0.9083(3) 0.2402(4)
H1_4 H 0.2785 0.9241 0.2367
N5_4 N 0.2107(3) 0.9607(3) 0.3750
C3_4 C 0.2260(3) 0.9895(3) 0.2505(3)
C5_4 C 0.2142(5) 0.9401(4) 0.2492(4)
C14_4 C 0.2595(5) 0.9472(4) 0.3700(5)
H7_4 H 0.2685 0.9146 0.3660
C15_4 C 0.2959(4) 0.9855(4) 0.3713(4)
H8_4 H 0.3292 0.9781 0.3694
N7_4 N 0.0611(2) 0.9916(3) 0.2263(2)
N8_4 N 0.1143(3) 0.9448(3) 0.0512(3)
C17_4 C 0.0363(3) 0.9837(3) 0.1842(3)
C19_4 C 0.0240(3) 0.9995(3) 0.2605(3)
C22_4 C 0.0615(4) 0.9433(4) 0.0514(4)
H11_4 H 0.0429 0.9335 0.0246
C23_4 C 0.0403(3) 0.9589(4) 0.0980(4)
H12_4 H 0.0063 0.9610 0.0992
C24_4 C 0.0625(3) 0.9696(3) 0.1361(3)
C25_4 C 0.1151(4) 0.9665(5) 0.1342(4)
H13_4 H 0.1337 0.9691 0.1627
C26_4 C 0.1368(3) 0.9597(4) 0.0902(3)
H14_4 H 0.1701 0.9662 0.0878
O7_4 O 0.8961(2) 0.0084(3) 0.2183(3)
O8_4 O 0.9205(3) 0.0073(3) 0.2949(3)
O10_4 O 0.9968(3) 0.0098(4) 0.3417(3)
H9_4 H 0.9715 0.0133 0.3259
N10_4 N 0.9448(3) 0.0512(3) 0.1143(3)
C20_4 C 0.9267(4) 0.0068(3) 0.2495(3)
Cu3_4 Cu 0.92937(4) 0.98584(4) 0.14389(4)
O12_4 O 0.8751(3) 0.9817(3) 0.0994(3)
N6_4 N 0.9891(2) 0.9883(3) 0.1841(2)
N12_4 N 0.9146(2) 0.9146(2) 0.1526(2)
C18_4 C 0.9807(3) 0.9980(3) 0.2342(3)
Cu6_3 Cu 0.01416(4) 0.64389(4) 0.57063(4)
Cu1_5 Cu 0.73584(4) 0.82063(4) 0.39389(4)
Cu2_5 Cu 0.74923(5) 0.6250 0.50077(5)
O1_5 O 0.7584(3) 0.8539(2) 0.4683(3)
O2_5 O 0.7573(3) 0.8295(3) 0.5449(3)
O3_5 O 0.7545(3) 0.6745(3) 0.5758(3)
O4_5 O 0.7598(4) 0.7532(3) 0.5917(3)
H1_5 H 0.7633 0.7785 0.5759
O5_5 O 0.7317(3) 0.8749(3) 0.3494(3)
O6_5 O 0.6806(4) 0.9252(4) 0.3113(4)
H2_5 H 0.647(4) 0.940(4) 0.313(4)
N1_5 N 0.7383(3) 0.7609(2) 0.4341(2)
N2_5 N 0.7416(3) 0.6889(2) 0.4763(2)
N4_5 N 0.6646(2) 0.8354(2) 0.4026(2)
N5_5 N 0.6250 0.7107(3) 0.5393(3)
C1_5 C 0.7337(3) 0.7137(3) 0.4342(3)
C2_5 C 0.7480(3) 0.7693(3) 0.4842(3)
C3_5 C 0.7495(3) 0.7260(3) 0.5105(3)
C4_5 C 0.7568(3) 0.8233(4) 0.4995(3)
C5_5 C 0.7508(4) 0.7142(5) 0.5599(4)
C6_5 C 0.6933(4) 0.6885(4) 0.3014(4)
H3_5 H 0.6835 0.7071 0.2746
C7_5 C 0.7089(4) 0.7097(3) 0.3480(4)
H4_5 H 0.7110 0.7437 0.3492
C8_5 C 0.7196(3) 0.6875(3) 0.3861(3)
C9_5 C 0.7165(5) 0.6349(4) 0.3842(4)
H5_5 H 0.7191 0.6163 0.4127
C10_5 C 0.7097(4) 0.6132(3) 0.3402(3)
H6_5 H 0.7162 0.5799 0.3378
C11_5 C 0.6250 0.8235(3) 0.4265(3)
C12_5 C 0.6482(3) 0.8700(3) 0.3707(3)
C13_5 C 0.6899(5) 0.8912(4) 0.3425(4)
C14_5 C 0.6300(5) 0.7595(5) 0.5528(4)
H7_5 H 0.6340 0.7685 0.5854
C15_5 C 0.6287(4) 0.7959(4) 0.5145(4)
H8_5 H 0.6306 0.8292 0.5219
C16_5 C 0.6250 0.7809(3) 0.4691(3)
Cu5_3 Cu 0.51416(4) 0.85611(4) 0.42937(4)
O7_5 O 0.7817(3) 0.3961(2) 0.4916(3)
O8_5 O 0.7051(3) 0.4205(3) 0.4927(3)
O9_5 O 0.6742(3) 0.5755(3) 0.4955(3)
O10_5 O 0.6583(3) 0.4968(3) 0.4902(4)
H9_5 H 0.6741 0.4715 0.4867
O11_5 O 0.5183(3) 0.9006(3) 0.3751(3)
O13_5 O 0.5694(4) 0.9387(4) 0.3248(4)
H10_5 H 0.603(4) 0.937(4) 0.310(4)
N6_5 N 0.8159(2) 0.4891(2) 0.5117(3)
N7_5 N 0.7737(2) 0.5611(2) 0.5084(3)
N8_5 N 0.9488(3) 0.6143(3) 0.5552(3)
N9_5 N 0.8012(3) 0.8052(3) 0.3643(3)
N11_5 N 0.5854(2) 0.8474(2) 0.4146(2)
C17_5 C 0.8158(3) 0.5363(3) 0.5163(3)
C18_5 C 0.7658(3) 0.4807(3) 0.5020(3)
C19_5 C 0.7395(3) 0.5240(3) 0.5005(3)
C20_5 C 0.7505(3) 0.4267(4) 0.4932(3)
C21_5 C 0.6901(4) 0.5358(5) 0.4992(4)
C22_5 C 0.9486(4) 0.5615(4) 0.5567(4)
H11_5 H 0.9754 0.5429 0.5665
C23_5 C 0.9020(4) 0.5403(3) 0.5411(4)
H12_5 H 0.9008 0.5063 0.5390
C24_5 C 0.8639(3) 0.5625(3) 0.5304(3)
C25_5 C 0.8658(4) 0.6151(4) 0.5335(5)
H13_5 H 0.8373 0.6337 0.5309
C26_5 C 0.9098(3) 0.6368(3) 0.5403(4)
H14_5 H 0.9122 0.6701 0.5338
C27_5 C 0.6018(3) 0.8793(3) 0.3800(3)
C28_5 C 0.5601(5) 0.9075(4) 0.3588(4)
C29_5 C 0.6200(5) 0.6972(4) 0.4905(5)
H15_5 H 0.6160 0.6646 0.4815
C30_5 C 0.6213(4) 0.7355(4) 0.4541(4)
H16_5 H 0.6194 0.7281 0.4208
O7_6 O 0.2817(3) 0.1039(2) 0.5084(3)
O8_6 O 0.2051(3) 0.0795(3) 0.5073(3)
O10_6 O 0.1583(3) 0.0032(3) 0.5098(4)
H9_6 H 0.1741 0.0285 0.5133
N6_6 N 0.3159(2) 0.0109(2) 0.4883(3)
C18_6 C 0.2658(3) 0.0193(3) 0.4980(3)
C20_6 C 0.2505(3) 0.0733(4) 0.5068(3)
Cu1_6 Cu 0.23584(4) 0.67937(4) 0.60611(4)
Cu2_6 Cu 0.24923(5) 0.8750 0.49923(5)
O1_6 O 0.2584(3) 0.6461(2) 0.5317(3)
O2_6 O 0.2573(3) 0.6705(3) 0.4551(3)
O3_6 O 0.2545(3) 0.8255(3) 0.4242(3)
O4_6 O 0.2598(4) 0.7468(3) 0.4083(3)
H1_6 H 0.2633 0.7215 0.4241
O5_6 O 0.2317(3) 0.6251(3) 0.6506(3)
O6_6 O 0.1806(4) 0.5748(4) 0.6887(4)
H2_6 H 0.147(4) 0.560(4) 0.687(4)
N1_6 N 0.2383(3) 0.7391(2) 0.5659(2)
N2_6 N 0.2416(3) 0.8111(2) 0.5237(2)
N4_6 N 0.1646(2) 0.6646(2) 0.5974(2)
N5_6 N 0.1250 0.7893(3) 0.4607(3)
C1_6 C 0.2337(3) 0.7863(3) 0.5658(3)
C2_6 C 0.2480(3) 0.7307(3) 0.5158(3)
C3_6 C 0.2495(3) 0.7740(3) 0.4895(3)
C4_6 C 0.2568(3) 0.6767(4) 0.5005(3)
C5_6 C 0.2508(4) 0.7858(5) 0.4401(4)
C6_6 C 0.1933(4) 0.8115(4) 0.6986(4)
H3_6 H 0.1835 0.7929 0.7254
C7_6 C 0.2089(4) 0.7903(3) 0.6520(4)
H4_6 H 0.2110 0.7563 0.6508
C8_6 C 0.2196(3) 0.8125(3) 0.6139(3)
C9_6 C 0.2165(5) 0.8651(4) 0.6158(4)
H5_6 H 0.2191 0.8837 0.5873
C10_6 C 0.2097(4) 0.8868(3) 0.6598(3)
H6_6 H 0.2162 0.9201 0.6622
C11_6 C 0.1250 0.6765(3) 0.5735(3)
C12_6 C 0.1482(3) 0.6300(3) 0.6293(3)
C13_6 C 0.1899(5) 0.6088(4) 0.6575(4)
C14_6 C 0.1300(5) 0.7405(5) 0.4472(4)
H7_6 H 0.1340 0.7315 0.4146
C15_6 C 0.1287(4) 0.7041(4) 0.4855(4)
H8_6 H 0.1306 0.6708 0.4781
C16_6 C 0.1250 0.7191(3) 0.5309(3)
O9_6 O 0.1742(3) 0.9245(3) 0.5045(3)
O11_6 O 0.0183(3) 0.5994(3) 0.6249(3)
O13_6 O 0.0694(4) 0.5613(4) 0.6752(4)
H10_6 H 0.103(4) 0.563(4) 0.690(4)
N7_6 N 0.2737(2) 0.9389(2) 0.4916(3)
N8_6 N 0.4488(3) 0.8857(3) 0.4448(3)
N9_6 N 0.3012(3) 0.6948(3) 0.6357(3)
N11_6 N 0.0854(2) 0.6526(2) 0.5854(2)
C17_6 C 0.3158(3) 0.9637(3) 0.4837(3)
C19_6 C 0.2395(3) 0.9760(3) 0.4995(3)
C21_6 C 0.1901(4) 0.9642(5) 0.5008(4)
C22_6 C 0.4486(4) 0.9385(4) 0.4433(4)
H11_6 H 0.4754 0.9571 0.4335
C23_6 C 0.4020(4) 0.9597(3) 0.4589(4)
H12_6 H 0.4008 0.9937 0.4610
C24_6 C 0.3639(3) 0.9375(3) 0.4696(3)
C25_6 C 0.3658(4) 0.8849(4) 0.4665(5)
H13_6 H 0.3373 0.8663 0.4691
C26_6 C 0.4098(3) 0.8632(3) 0.4597(4)
H14_6 H 0.4122 0.8299 0.4662
C27_6 C 0.1018(3) 0.6207(3) 0.6200(3)
C28_6 C 0.0601(5) 0.5925(4) 0.6412(4)
C29_6 C 0.1200(5) 0.8028(4) 0.5095(5)
H15_6 H 0.1160 0.8354 0.5185
C30_6 C 0.1213(4) 0.7645(4) 0.5459(4)
H16_6 H 0.1194 0.7719 0.5792
Cu2_7 Cu 0.75077(5) 0.3750 0.00077(5)
O2_7 O 0.7427(3) 0.1705(3) 0.0449(3)
O3_7 O 0.7455(3) 0.3255(3) 0.0758(3)
O4_7 O 0.7402(4) 0.2468(3) 0.0917(3)
H1_7 H 0.7367 0.2215 0.0759
N5_7 N 0.8750 0.2893(3) 0.0393(3)
C3_7 C 0.7505(3) 0.2740(3) 0.0105(3)
C5_7 C 0.7492(4) 0.2858(5) 0.0599(4)
C14_7 C 0.8700(5) 0.2405(5) 0.0528(4)
H7_7 H 0.8660 0.2315 0.0854
C15_7 C 0.8713(4) 0.2041(4) 0.0145(4)
H8_7 H 0.8694 0.1708 0.0219
Cu6_4 Cu 0.48584(4) 0.35611(4) 0.07063(4)
N6_7 N 0.6841(2) 0.5109(2) 0.0117(3)
N7_7 N 0.7263(2) 0.4389(2) 0.0084(3)
N8_7 N 0.5512(3) 0.3857(3) 0.0552(3)
C17_7 C 0.6842(3) 0.4637(3) 0.0163(3)
C18_7 C 0.7342(3) 0.5193(3) 0.0020(3)
C19_7 C 0.7605(3) 0.4760(3) 0.0005(3)
C22_7 C 0.5514(4) 0.4385(4) 0.0567(4)
H11_7 H 0.5246 0.4571 0.0665
C23_7 C 0.5980(4) 0.4597(3) 0.0411(4)
H12_7 H 0.5992 0.4937 0.0390
C24_7 C 0.6361(3) 0.4375(3) 0.0304(3)
C25_7 C 0.6342(4) 0.3849(4) 0.0335(5)
H13_7 H 0.6627 0.3663 0.0309
C26_7 C 0.5902(3) 0.3632(3) 0.0403(4)
H14_7 H 0.5878 0.3299 0.0338
Cu1_7 Cu 0.76416(4) 0.17937(4) 0.89389(4)
O1_7 O 0.7416(3) 0.1461(2) 0.9683(3)
O5_7 O 0.7683(3) 0.1251(3) 0.8494(3)
O6_7 O 0.8194(4) 0.0748(4) 0.8113(4)
H2_7 H 0.853(4) 0.060(4) 0.813(4)
N1_7 N 0.7617(3) 0.2391(2) 0.9341(2)
N2_7 N 0.7584(3) 0.3111(2) 0.9763(2)
N4_7 N 0.8354(2) 0.1646(2) 0.9026(2)
C1_7 C 0.7663(3) 0.2863(3) 0.9342(3)
C2_7 C 0.7520(3) 0.2307(3) 0.9842(3)
C4_7 C 0.7432(3) 0.1767(4) 0.9995(3)
C6_7 C 0.8067(4) 0.3115(4) 0.8014(4)
H3_7 H 0.8165 0.2929 0.7746
C7_7 C 0.7911(4) 0.2903(3) 0.8480(4)
H4_7 H 0.7890 0.2563 0.8492
C8_7 C 0.7804(3) 0.3125(3) 0.8861(3)
C9_7 C 0.7835(5) 0.3651(4) 0.8842(4)
H5_7 H 0.7809 0.3837 0.9127
C10_7 C 0.7903(4) 0.3868(3) 0.8402(3)
H6_7 H 0.7838 0.4201 0.8378
C11_7 C 0.8750 0.1765(3) 0.9265(3)
C12_7 C 0.8518(3) 0.1300(3) 0.8707(3)
C13_7 C 0.8101(5) 0.1088(4) 0.8425(4)
C16_7 C 0.8750 0.2191(3) 0.9691(3)
Cu5_4 Cu 0.98584(4) 0.14389(4) 0.92937(4)
O7_7 O 0.7183(3) 0.6039(2) 0.9916(3)
O8_7 O 0.7949(3) 0.5795(3) 0.9927(3)
O9_7 O 0.8258(3) 0.4245(3) 0.9955(3)
O10_7 O 0.8417(3) 0.5032(3) 0.9902(4)
H9_7 H 0.8259 0.5285 0.9867
O11_7 O 0.9817(3) 0.0994(3) 0.8751(3)
O13_7 O 0.9306(4) 0.0613(4) 0.8248(4)
H10_7 H 0.897(4) 0.063(4) 0.810(4)
N9_7 N 0.6988(3) 0.1948(3) 0.8643(3)
N11_7 N 0.9146(2) 0.1526(2) 0.9146(2)
C20_7 C 0.7495(3) 0.5733(4) 0.9932(3)
C21_7 C 0.8099(4) 0.4642(5) 0.9992(4)
C27_7 C 0.8982(3) 0.1207(3) 0.8800(3)
C28_7 C 0.9399(5) 0.0925(4) 0.8588(4)
C29_7 C 0.8800(5) 0.3028(4) 0.9905(5)
H15_7 H 0.8840 0.3354 0.9815
C30_7 C 0.8787(4) 0.2645(4) 0.9541(4)
H16_7 H 0.8806 0.2719 0.9208
Cu1_8 Cu 0.26416(4) 0.32063(4) 0.10611(4)
O1_8 O 0.2416(3) 0.3539(2) 0.0317(3)
O5_8 O 0.2683(3) 0.3749(3) 0.1506(3)
O6_8 O 0.3194(4) 0.4252(4) 0.1887(4)
H2_8 H 0.353(4) 0.440(4) 0.187(4)
N1_8 N 0.2617(3) 0.2609(2) 0.0659(2)
N2_8 N 0.2584(3) 0.1889(2) 0.0237(2)
N4_8 N 0.3354(2) 0.3354(2) 0.0974(2)
C1_8 C 0.2663(3) 0.2137(3) 0.0658(3)
C2_8 C 0.2520(3) 0.2693(3) 0.0158(3)
C4_8 C 0.2432(3) 0.3233(4) 0.0005(3)
C6_8 C 0.3067(4) 0.1885(4) 0.1986(4)
H3_8 H 0.3165 0.2071 0.2254
C7_8 C 0.2911(4) 0.2097(3) 0.1520(4)
H4_8 H 0.2890 0.2437 0.1508
C8_8 C 0.2804(3) 0.1875(3) 0.1139(3)
C9_8 C 0.2835(5) 0.1349(4) 0.1158(4)
H5_8 H 0.2809 0.1163 0.0873
C10_8 C 0.2903(4) 0.1132(3) 0.1598(3)
H6_8 H 0.2838 0.0799 0.1622
C11_8 C 0.3750 0.3235(3) 0.0735(3)
C12_8 C 0.3518(3) 0.3700(3) 0.1293(3)
C13_8 C 0.3101(5) 0.3912(4) 0.1575(4)
C16_8 C 0.3750 0.2809(3) 0.0309(3)
O9_8 O 0.3258(3) 0.0755(3) 0.0045(3)
O11_8 O 0.4817(3) 0.4006(3) 0.1249(3)
O13_8 O 0.4306(4) 0.4387(4) 0.1752(4)
H10_8 H 0.397(4) 0.437(4) 0.190(4)
N9_8 N 0.1988(3) 0.3052(3) 0.1357(3)
N11_8 N 0.4146(2) 0.3474(2) 0.0854(2)
C21_8 C 0.3099(4) 0.0358(5) 0.0008(4)
C27_8 C 0.3982(3) 0.3793(3) 0.1200(3)
C28_8 C 0.4399(5) 0.4075(4) 0.1412(4)
C29_8 C 0.3800(5) 0.1972(4) 0.0095(5)
H15_8 H 0.3840 0.1646 0.0185
C30_8 C 0.3787(4) 0.2355(4) 0.0459(4)
H16_8 H 0.3806 0.2281 0.0792
Cu2_8 Cu 0.25077(5) 0.1250 0.99923(5)
O2_8 O 0.2427(3) 0.3295(3) 0.9551(3)
O3_8 O 0.2455(3) 0.1745(3) 0.9242(3)
O4_8 O 0.2402(4) 0.2532(3) 0.9083(3)
H1_8 H 0.2367 0.2785 0.9241
N5_8 N 0.3750 0.2107(3) 0.9607(3)
C3_8 C 0.2505(3) 0.2260(3) 0.9895(3)
C5_8 C 0.2492(4) 0.2142(5) 0.9401(4)
C14_8 C 0.3700(5) 0.2595(5) 0.9472(4)
H7_8 H 0.3660 0.2685 0.9146
C15_8 C 0.3713(4) 0.2959(4) 0.9855(4)
H8_8 H 0.3694 0.3292 0.9781
N7_8 N 0.2263(2) 0.0611(2) 0.9916(3)
N8_8 N 0.0512(3) 0.1143(3) 0.9448(3)
C17_8 C 0.1842(3) 0.0363(3) 0.9837(3)
C19_8 C 0.2605(3) 0.0240(3) 0.9995(3)
C22_8 C 0.0514(4) 0.0615(4) 0.9433(4)
H11_8 H 0.0246 0.0429 0.9335
C23_8 C 0.0980(4) 0.0403(3) 0.9589(4)
H12_8 H 0.0992 0.0063 0.9610
C24_8 C 0.1361(3) 0.0625(3) 0.9696(3)
C25_8 C 0.1342(4) 0.1151(4) 0.9665(5)
H13_8 H 0.1627 0.1337 0.9691
C26_8 C 0.0902(3) 0.1368(3) 0.9597(4)
H14_8 H 0.0878 0.1701 0.9662
O7_8 O 0.2183(3) 0.8961(2) 0.0084(3)
O8_8 O 0.2949(3) 0.9205(3) 0.0073(3)
O10_8 O 0.3417(3) 0.9968(3) 0.0098(4)
H9_8 H 0.3259 0.9715 0.0133
C20_8 C 0.2495(3) 0.9267(4) 0.0068(3)
N6_8 N 0.1841(2) 0.9891(2) 0.9883(3)
C18_8 C 0.2342(3) 0.9807(3) 0.9980(3)
Cu2_9 Cu 0.50077(5) 0.74923(5) 0.6250
O1_9 O 0.4683(3) 0.7584(3) 0.8539(2)
O2_9 O 0.5449(3) 0.7573(3) 0.8295(3)
O3_9 O 0.5758(3) 0.7545(3) 0.6745(3)
O4_9 O 0.5917(3) 0.7598(4) 0.7532(3)
H1_9 H 0.5759 0.7633 0.7785
O5_9 O 0.3494(3) 0.7317(3) 0.8749(3)
O6_9 O 0.3113(4) 0.6806(4) 0.9252(4)
H2_9 H 0.313(4) 0.647(4) 0.940(4)
N1_9 N 0.4341(2) 0.7383(3) 0.7609(2)
N2_9 N 0.4763(2) 0.7416(3) 0.6889(2)
N4_9 N 0.4026(2) 0.6646(2) 0.8354(2)
N5_9 N 0.5393(3) 0.6250 0.7107(3)
C1_9 C 0.4342(3) 0.7337(3) 0.7137(3)
C2_9 C 0.4842(3) 0.7480(3) 0.7693(3)
C3_9 C 0.5105(3) 0.7495(3) 0.7260(3)
C4_9 C 0.4995(3) 0.7568(3) 0.8233(4)
C5_9 C 0.5599(4) 0.7508(4) 0.7142(5)
C6_9 C 0.3014(4) 0.6933(4) 0.6885(4)
H3_9 H 0.2746 0.6835 0.7071
C7_9 C 0.3480(4) 0.7089(4) 0.7097(3)
H4_9 H 0.3492 0.7110 0.7437
C8_9 C 0.3861(3) 0.7196(3) 0.6875(3)
C9_9 C 0.3842(4) 0.7165(5) 0.6349(4)
H5_9 H 0.4127 0.7191 0.6163
C10_9 C 0.3402(3) 0.7097(4) 0.6132(3)
H6_9 H 0.3378 0.7162 0.5799
C11_9 C 0.4265(3) 0.6250 0.8235(3)
C12_9 C 0.3707(3) 0.6482(3) 0.8700(3)
C13_9 C 0.3425(4) 0.6899(5) 0.8912(4)
C14_9 C 0.5528(4) 0.6300(5) 0.7595(5)
H7_9 H 0.5854 0.6340 0.7685
C15_9 C 0.5145(4) 0.6287(4) 0.7959(4)
H8_9 H 0.5219 0.6306 0.8292
C16_9 C 0.4691(3) 0.6250 0.7809(3)
O7_9 O 0.4916(3) 0.7817(3) 0.3961(2)
O8_9 O 0.4927(3) 0.7051(3) 0.4205(3)
O9_9 O 0.4955(3) 0.6742(3) 0.5755(3)
O10_9 O 0.4902(4) 0.6583(3) 0.4968(3)
H9_9 H 0.4867 0.6741 0.4715
O13_9 O 0.3248(4) 0.5694(4) 0.9387(4)
H10_9 H 0.310(4) 0.603(4) 0.937(4)
N6_9 N 0.5117(3) 0.8159(2) 0.4891(2)
N7_9 N 0.5084(3) 0.7737(2) 0.5611(2)
C17_9 C 0.5163(3) 0.8158(3) 0.5363(3)
C18_9 C 0.5020(3) 0.7658(3) 0.4807(3)
C19_9 C 0.5005(3) 0.7395(3) 0.5240(3)
C20_9 C 0.4932(3) 0.7505(3) 0.4267(4)
C21_9 C 0.4992(4) 0.6901(4) 0.5358(5)
C22_9 C 0.5567(4) 0.9486(4) 0.5615(4)
H11_9 H 0.5665 0.9754 0.5429
C23_9 C 0.5411(4) 0.9020(4) 0.5403(3)
H12_9 H 0.5390 0.9008 0.5063
C24_9 C 0.5304(3) 0.8639(3) 0.5625(3)
C25_9 C 0.5335(5) 0.8658(4) 0.6151(4)
H13_9 H 0.5309 0.8373 0.6337
C26_9 C 0.5403(4) 0.9098(3) 0.6368(3)
H14_9 H 0.5338 0.9122 0.6701
C27_9 C 0.3800(3) 0.6018(3) 0.8793(3)
C28_9 C 0.3588(4) 0.5601(5) 0.9075(4)
C29_9 C 0.4905(5) 0.6200(5) 0.6972(4)
H15_9 H 0.4815 0.6160 0.6646
C30_9 C 0.4541(4) 0.6213(4) 0.7355(4)
H16_9 H 0.4208 0.6194 0.7281
O7_10 O 0.5084(3) 0.2817(3) 0.1039(2)
O8_10 O 0.5073(3) 0.2051(3) 0.0795(3)
O10_10 O 0.5098(4) 0.1583(3) 0.0032(3)
H9_10 H 0.5133 0.1741 0.0285
N6_10 N 0.4883(3) 0.3159(2) 0.0109(2)
C18_10 C 0.4980(3) 0.2658(3) 0.0193(3)
C20_10 C 0.5068(3) 0.2505(3) 0.0733(4)
Cu2_10 Cu 0.49923(5) 0.24923(5) 0.8750
O1_10 O 0.5317(3) 0.2584(3) 0.6461(2)
O2_10 O 0.4551(3) 0.2573(3) 0.6705(3)
O3_10 O 0.4242(3) 0.2545(3) 0.8255(3)
O4_10 O 0.4083(3) 0.2598(4) 0.7468(3)
H1_10 H 0.4241 0.2633 0.7215
O5_10 O 0.6506(3) 0.2317(3) 0.6251(3)
O6_10 O 0.6887(4) 0.1806(4) 0.5748(4)
H2_10 H 0.687(4) 0.147(4) 0.560(4)
N1_10 N 0.5659(2) 0.2383(3) 0.7391(2)
N2_10 N 0.5237(2) 0.2416(3) 0.8111(2)
N4_10 N 0.5974(2) 0.1646(2) 0.6646(2)
N5_10 N 0.4607(3) 0.1250 0.7893(3)
C1_10 C 0.5658(3) 0.2337(3) 0.7863(3)
C2_10 C 0.5158(3) 0.2480(3) 0.7307(3)
C3_10 C 0.4895(3) 0.2495(3) 0.7740(3)
C4_10 C 0.5005(3) 0.2568(3) 0.6767(4)
C5_10 C 0.4401(4) 0.2508(4) 0.7858(5)
C6_10 C 0.6986(4) 0.1933(4) 0.8115(4)
H3_10 H 0.7254 0.1835 0.7929
C7_10 C 0.6520(4) 0.2089(4) 0.7903(3)
H4_10 H 0.6508 0.2110 0.7563
C8_10 C 0.6139(3) 0.2196(3) 0.8125(3)
C9_10 C 0.6158(4) 0.2165(5) 0.8651(4)
H5_10 H 0.5873 0.2191 0.8837
C10_10 C 0.6598(3) 0.2097(4) 0.8868(3)
H6_10 H 0.6622 0.2162 0.9201
C11_10 C 0.5735(3) 0.1250 0.6765(3)
C12_10 C 0.6293(3) 0.1482(3) 0.6300(3)
C13_10 C 0.6575(4) 0.1899(5) 0.6088(4)
C14_10 C 0.4472(4) 0.1300(5) 0.7405(5)
H7_10 H 0.4146 0.1340 0.7315
C15_10 C 0.4855(4) 0.1287(4) 0.7041(4)
H8_10 H 0.4781 0.1306 0.6708
C16_10 C 0.5309(3) 0.1250 0.7191(3)
O9_10 O 0.5045(3) 0.1742(3) 0.9245(3)
O13_10 O 0.6752(4) 0.0694(4) 0.5613(4)
H10_10 H 0.690(4) 0.103(4) 0.563(4)
N7_10 N 0.4916(3) 0.2737(2) 0.9389(2)
C17_10 C 0.4837(3) 0.3158(3) 0.9637(3)
C19_10 C 0.4995(3) 0.2395(3) 0.9760(3)
C21_10 C 0.5008(4) 0.1901(4) 0.9642(5)
C22_10 C 0.4433(4) 0.4486(4) 0.9385(4)
H11_10 H 0.4335 0.4754 0.9571
C23_10 C 0.4589(4) 0.4020(4) 0.9597(3)
H12_10 H 0.4610 0.4008 0.9937
C24_10 C 0.4696(3) 0.3639(3) 0.9375(3)
C25_10 C 0.4665(5) 0.3658(4) 0.8849(4)
H13_10 H 0.4691 0.3373 0.8663
C26_10 C 0.4597(4) 0.4098(3) 0.8632(3)
H14_10 H 0.4662 0.4122 0.8299
C27_10 C 0.6200(3) 0.1018(3) 0.6207(3)
C28_10 C 0.6412(4) 0.0601(5) 0.5925(4)
C29_10 C 0.5095(5) 0.1200(5) 0.8028(4)
H15_10 H 0.5185 0.1160 0.8354
C30_10 C 0.5459(4) 0.1213(4) 0.7645(4)
H16_10 H 0.5792 0.1194 0.7719
Cu2_11 Cu 0.00077(5) 0.75077(5) 0.3750
O2_11 O 0.0449(3) 0.7427(3) 0.1705(3)
O3_11 O 0.0758(3) 0.7455(3) 0.3255(3)
O4_11 O 0.0917(3) 0.7402(4) 0.2468(3)
H1_11 H 0.0759 0.7367 0.2215
N5_11 N 0.0393(3) 0.8750 0.2893(3)
C3_11 C 0.0105(3) 0.7505(3) 0.2740(3)
C5_11 C 0.0599(4) 0.7492(4) 0.2858(5)
C14_11 C 0.0528(4) 0.8700(5) 0.2405(5)
H7_11 H 0.0854 0.8660 0.2315
C15_11 C 0.0145(4) 0.8713(4) 0.2041(4)
H8_11 H 0.0219 0.8694 0.1708
N6_11 N 0.0117(3) 0.6841(2) 0.5109(2)
N7_11 N 0.0084(3) 0.7263(2) 0.4389(2)
C17_11 C 0.0163(3) 0.6842(3) 0.4637(3)
C18_11 C 0.0020(3) 0.7342(3) 0.5193(3)
C19_11 C 0.0005(3) 0.7605(3) 0.4760(3)
C22_11 C 0.0567(4) 0.5514(4) 0.4385(4)
H11_11 H 0.0665 0.5246 0.4571
C23_11 C 0.0411(4) 0.5980(4) 0.4597(3)
H12_11 H 0.0390 0.5992 0.4937
C24_11 C 0.0304(3) 0.6361(3) 0.4375(3)
C25_11 C 0.0335(5) 0.6342(4) 0.3849(4)
H13_11 H 0.0309 0.6627 0.3663
C26_11 C 0.0403(4) 0.5902(3) 0.3632(3)
H14_11 H 0.0338 0.5878 0.3299
O1_11 O 0.9683(3) 0.7416(3) 0.1461(2)
O5_11 O 0.8494(3) 0.7683(3) 0.1251(3)
O6_11 O 0.8113(4) 0.8194(4) 0.0748(4)
H2_11 H 0.813(4) 0.853(4) 0.060(4)
N1_11 N 0.9341(2) 0.7617(3) 0.2391(2)
N2_11 N 0.9763(2) 0.7584(3) 0.3111(2)
N4_11 N 0.9026(2) 0.8354(2) 0.1646(2)
C1_11 C 0.9342(3) 0.7663(3) 0.2863(3)
C2_11 C 0.9842(3) 0.7520(3) 0.2307(3)
C4_11 C 0.9995(3) 0.7432(3) 0.1767(4)
C6_11 C 0.8014(4) 0.8067(4) 0.3115(4)
H3_11 H 0.7746 0.8165 0.2929
C7_11 C 0.8480(4) 0.7911(4) 0.2903(3)
H4_11 H 0.8492 0.7890 0.2563
C8_11 C 0.8861(3) 0.7804(3) 0.3125(3)
C9_11 C 0.8842(4) 0.7835(5) 0.3651(4)
H5_11 H 0.9127 0.7809 0.3837
C10_11 C 0.8402(3) 0.7903(4) 0.3868(3)
H6_11 H 0.8378 0.7838 0.4201
C11_11 C 0.9265(3) 0.8750 0.1765(3)
C12_11 C 0.8707(3) 0.8518(3) 0.1300(3)
C13_11 C 0.8425(4) 0.8101(5) 0.1088(4)
C16_11 C 0.9691(3) 0.8750 0.2191(3)
O7_11 O 0.9916(3) 0.7183(3) 0.6039(2)
O8_11 O 0.9927(3) 0.7949(3) 0.5795(3)
O9_11 O 0.9955(3) 0.8258(3) 0.4245(3)
O10_11 O 0.9902(4) 0.8417(3) 0.5032(3)
H9_11 H 0.9867 0.8259 0.5285
O13_11 O 0.8248(4) 0.9306(4) 0.0613(4)
H10_11 H 0.810(4) 0.897(4) 0.063(4)
C20_11 C 0.9932(3) 0.7495(3) 0.5733(4)
C21_11 C 0.9992(4) 0.8099(4) 0.4642(5)
C27_11 C 0.8800(3) 0.8982(3) 0.1207(3)
C28_11 C 0.8588(4) 0.9399(5) 0.0925(4)
C29_11 C 0.9905(5) 0.8800(5) 0.3028(4)
H15_11 H 0.9815 0.8840 0.3354
C30_11 C 0.9541(4) 0.8787(4) 0.2645(4)
H16_11 H 0.9208 0.8806 0.2719
O1_12 O 0.0317(3) 0.2416(3) 0.3539(2)
O5_12 O 0.1506(3) 0.2683(3) 0.3749(3)
O6_12 O 0.1887(4) 0.3194(4) 0.4252(4)
H2_12 H 0.187(4) 0.353(4) 0.440(4)
N1_12 N 0.0659(2) 0.2617(3) 0.2609(2)
N2_12 N 0.0237(2) 0.2584(3) 0.1889(2)
N4_12 N 0.0974(2) 0.3354(2) 0.3354(2)
C1_12 C 0.0658(3) 0.2663(3) 0.2137(3)
C2_12 C 0.0158(3) 0.2520(3) 0.2693(3)
C4_12 C 0.0005(3) 0.2432(3) 0.3233(4)
C6_12 C 0.1986(4) 0.3067(4) 0.1885(4)
H3_12 H 0.2254 0.3165 0.2071
C7_12 C 0.1520(4) 0.2911(4) 0.2097(3)
H4_12 H 0.1508 0.2890 0.2437
C8_12 C 0.1139(3) 0.2804(3) 0.1875(3)
C9_12 C 0.1158(4) 0.2835(5) 0.1349(4)
H5_12 H 0.0873 0.2809 0.1163
C10_12 C 0.1598(3) 0.2903(4) 0.1132(3)
H6_12 H 0.1622 0.2838 0.0799
C11_12 C 0.0735(3) 0.3750 0.3235(3)
C12_12 C 0.1293(3) 0.3518(3) 0.3700(3)
C13_12 C 0.1575(4) 0.3101(5) 0.3912(4)
C16_12 C 0.0309(3) 0.3750 0.2809(3)
O9_12 O 0.0045(3) 0.3258(3) 0.0755(3)
O13_12 O 0.1752(4) 0.4306(4) 0.4387(4)
H10_12 H 0.190(4) 0.397(4) 0.437(4)
C21_12 C 0.0008(4) 0.3099(4) 0.0358(5)
C27_12 C 0.1200(3) 0.3982(3) 0.3793(3)
C28_12 C 0.1412(4) 0.4399(5) 0.4075(4)
C29_12 C 0.0095(5) 0.3800(5) 0.1972(4)
H15_12 H 0.0185 0.3840 0.1646
C30_12 C 0.0459(4) 0.3787(4) 0.2355(4)
H16_12 H 0.0792 0.3806 0.2281
O7_12 O 0.0084(3) 0.2183(3) 0.8961(2)
O8_12 O 0.0073(3) 0.2949(3) 0.9205(3)
O10_12 O 0.0098(4) 0.3417(3) 0.9968(3)
H9_12 H 0.0133 0.3259 0.9715
C20_12 C 0.0068(3) 0.2495(3) 0.9267(4)
Cu2_12 Cu 0.99923(5) 0.25077(5) 0.1250
O2_12 O 0.9551(3) 0.2427(3) 0.3295(3)
O3_12 O 0.9242(3) 0.2455(3) 0.1745(3)
O4_12 O 0.9083(3) 0.2402(4) 0.2532(3)
H1_12 H 0.9241 0.2367 0.2785
N5_12 N 0.9607(3) 0.3750 0.2107(3)
C3_12 C 0.9895(3) 0.2505(3) 0.2260(3)
C5_12 C 0.9401(4) 0.2492(4) 0.2142(5)
C14_12 C 0.9472(4) 0.3700(5) 0.2595(5)
H7_12 H 0.9146 0.3660 0.2685
C15_12 C 0.9855(4) 0.3713(4) 0.2959(4)
H8_12 H 0.9781 0.3694 0.3292
N7_12 N 0.9916(3) 0.2263(2) 0.0611(2)
C17_12 C 0.9837(3) 0.1842(3) 0.0363(3)
C19_12 C 0.9995(3) 0.2605(3) 0.0240(3)
C22_12 C 0.9433(4) 0.0514(4) 0.0615(4)
H11_12 H 0.9335 0.0246 0.0429
C23_12 C 0.9589(4) 0.0980(4) 0.0403(3)
H12_12 H 0.9610 0.0992 0.0063
C24_12 C 0.9696(3) 0.1361(3) 0.0625(3)
C25_12 C 0.9665(5) 0.1342(4) 0.1151(4)
H13_12 H 0.9691 0.1627 0.1337
C26_12 C 0.9597(4) 0.0902(3) 0.1368(3)
H14_12 H 0.9662 0.0878 0.1701
N6_12 N 0.9883(3) 0.1841(2) 0.9891(2)
C18_12 C 0.9980(3) 0.2342(3) 0.9807(3)
loop_
_geom_bond_atom_site_label_1
_geom_bond_atom_site_label_2
_geom_bond_site_symmetry_1
_geom_bond_site_symmetry_2
Cu1 O1 1_555 1_555
Cu2 N2 1_555 1_555
O1 C4 1_555 1_555
O2 C4 1_555 1_555
O3 C5 1_555 1_555
O4 H1 1_555 1_555
O5 Cu1 1_555 1_555
O6 H2 1_555 1_555
N1 Cu1 1_555 1_555
N2 C1 1_555 1_555
N3 C6 1_555 1_555
N4 Cu1 1_555 1_555
N5 C14 1_555 1_555
C1 N1 1_555 1_555
C2 N1 1_555 1_555
C3 N2 1_555 1_555
C4 C2 1_555 1_555
C5 O4 1_555 1_555
C6 H3 1_555 1_555
C7 C6 1_555 1_555
H4 C7 1_555 1_555
C8 C1 1_555 1_555
C9 C8 1_555 1_555
H5 C9 1_555 1_555
C10 N3 1_555 1_555
H6 C10 1_555 1_555
C11 N4 1_555 1_555
C12 N4 1_555 1_555
C13 O5 1_555 1_555
C14 H7 1_555 1_555
C15 C14 1_555 1_555
H8 C15 1_555 1_555
C16 C11 1_555 1_555
Cu3 O7 1_555 1_555
Cu4 N3 1_555 1_555
Cu5 O11 1_555 1_555
O7 C20 1_555 1_555
O8 C20 1_555 1_555
O9 C21 1_555 1_555
O10 H9 1_555 1_555
O11 C28 1_555 1_555
O12 Cu3 1_555 1_555
O13 H10 1_555 1_555
N6 Cu3 1_555 1_555
N7 Cu2 1_555 1_555
N8 C22 1_555 1_555
N9 Cu1 1_555 1_555
N10 Cu3 1_555 1_555
N11 C11 1_555 1_555
N12 Cu3 1_555 1_555
C17 N6 1_555 1_555
C18 N6 1_555 1_555
C19 N7 1_555 1_555
C20 C18 1_555 1_555
C21 O10 1_555 1_555
C22 H11 1_555 1_555
C23 C22 1_555 1_555
H12 C23 1_555 1_555
C24 C17 1_555 1_555
C25 C24 1_555 1_555
H13 C25 1_555 1_555
C26 N8 1_555 1_555
H14 C26 1_555 1_555
C27 C12 1_555 1_555
C28 O13 1_555 1_555
C29 N5 1_555 1_555
H15 C29 1_555 1_555
C30 C16 1_555 1_555
H16 C30 1_555 1_555
O6 C13 1_555 1_555
C2 C3 1_555 1_555
C3 C5 1_555 1_555
C7 C8 1_555 1_555
C9 C10 1_555 1_555
C12 C13 1_555 1_555
C15 C16 1_555 1_555
Cu5 N11 1_555 1_555
N7 C17 1_555 1_555
N11 C27 1_555 1_555
C18 C19 1_555 1_555
C19 C21 1_555 1_555
C23 C24 1_555 1_555
C25 C26 1_555 1_555
C27 C28 1_555 1_555
C29 C30 1_555 1_555
Cu3_2 O7_2 1_555 1_555
O7_2 C20_2 1_555 1_555
O8_2 C20_2 1_555 1_555
O10_2 H9_2 1_555 1_555
O12_2 Cu3_2 1_555 1_555
N6_2 Cu3_2 1_555 1_555
N10_2 Cu3_2 1_555 1_555
N12_2 Cu3_2 1_555 1_555
C18_2 N6_2 1_555 1_555
C20_2 C18_2 1_555 1_555
Cu1_2 O1_2 1_555 1_555
Cu2_2 N2_2 1_555 1_555
O1_2 C4_2 1_555 1_555
O2_2 C4_2 1_555 1_555
O3_2 C5_2 1_555 1_555
O4_2 H1_2 1_555 1_555
O5_2 Cu1_2 1_555 1_555
O6_2 H2_2 1_555 1_555
N1_2 Cu1_2 1_555 1_555
N2_2 C1_2 1_555 1_555
N3_2 C6_2 1_555 1_555
N4_2 Cu1_2 1_555 1_555
N5_2 C14_2 1_555 1_555
C1_2 N1_2 1_555 1_555
C2_2 N1_2 1_555 1_555
C3_2 N2_2 1_555 1_555
C4_2 C2_2 1_555 1_555
C5_2 O4_2 1_555 1_555
C6_2 H3_2 1_555 1_555
C7_2 C6_2 1_555 1_555
H4_2 C7_2 1_555 1_555
C8_2 C1_2 1_555 1_555
C9_2 C8_2 1_555 1_555
H5_2 C9_2 1_555 1_555
C10_2 N3_2 1_555 1_555
H6_2 C10_2 1_555 1_555
C11_2 N4_2 1_555 1_555
C12_2 N4_2 1_555 1_555
C13_2 O5_2 1_555 1_555
C14_2 H7_2 1_555 1_555
C15_2 C14_2 1_555 1_555
H8_2 C15_2 1_555 1_555
C16_2 C11_2 1_555 1_555
Cu4_2 N3_2 1_555 1_555
Cu6 O11_2 1_555 1_555
Cu5 N8_2 1_555 1_555
O9_2 C21_2 1_555 1_555
O11_2 C28_2 1_555 1_555
O13_2 H10_2 1_555 1_555
N7_2 Cu2_2 1_555 1_555
N8_2 C22_2 1_555 1_555
N9_2 Cu1_2 1_555 1_555
N11_2 C11_2 1_555 1_555
C19_2 N7_2 1_555 1_555
C22_2 H11_2 1_555 1_555
C23_2 C22_2 1_555 1_555
H12_2 C23_2 1_555 1_555
C24_2 C17_2 1_555 1_555
C25_2 C24_2 1_555 1_555
H13_2 C25_2 1_555 1_555
C26_2 N8_2 1_555 1_555
H14_2 C26_2 1_555 1_555
C27_2 C12_2 1_555 1_555
C28_2 O13_2 1_555 1_555
C29_2 N5_2 1_555 1_555
H15_2 C29_2 1_555 1_555
C30_2 C16_2 1_555 1_555
H16_2 C30_2 1_555 1_555
O6_2 C13_2 1_555 1_555
C2_2 C3_2 1_555 1_555
C3_2 C5_2 1_555 1_555
C7_2 C8_2 1_555 1_555
C9_2 C10_2 1_555 1_555
C12_2 C13_2 1_555 1_555
C15_2 C16_2 1_555 1_555
Cu6 N11_2 1_555 1_555
N7_2 C17_2 1_555 1_555
N11_2 C27_2 1_555 1_555
C19_2 C21_2 1_555 1_555
C23_2 C24_2 1_555 1_555
C25_2 C26_2 1_555 1_555
C27_2 C28_2 1_555 1_555
C29_2 C30_2 1_555 1_555
O3_3 C5_3 1_555 1_555
O4_3 H1_3 1_555 1_555
N5_3 C14_3 1_555 1_555
C5_3 O4_3 1_555 1_555
C14_3 H7_3 1_555 1_555
C15_3 C14_3 1_555 1_555
H8_3 C15_3 1_555 1_555
Cu6_2 N8_3 1_555 1_555
O12_3 Cu3_3 1_555 1_555
N6_3 Cu3_3 1_555 1_555
N7_3 Cu2_3 1_555 1_555
N8_3 C22_3 1_555 1_555
N12_3 Cu3_3 1_555 1_555
C17_3 N6_3 1_555 1_555
C18_3 N6_3 1_555 1_555
C19_3 N7_3 1_555 1_555
C22_3 H11_3 1_555 1_555
C23_3 C22_3 1_555 1_555
H12_3 C23_3 1_555 1_555
C24_3 C17_3 1_555 1_555
C25_3 C24_3 1_555 1_555
H13_3 C25_3 1_555 1_555
C26_3 N8_3 1_555 1_555
H14_3 C26_3 1_555 1_555
C3_3 C5_3 1_555 1_555
N7_3 C17_3 1_555 1_555
C18_3 C19_3 1_555 1_555
C23_3 C24_3 1_555 1_555
C25_3 C26_3 1_555 1_555
Cu1_3 O1_3 1_555 1_555
O1_3 C4_3 1_555 1_555
O5_3 Cu1_3 1_555 1_555
O6_3 H2_3 1_555 1_555
N1_3 Cu1_3 1_555 1_555
N2_3 C1_3 1_555 1_555
N3_3 C6_3 1_555 1_555
N4_3 Cu1_3 1_555 1_555
C1_3 N1_3 1_555 1_555
C2_3 N1_3 1_555 1_555
C4_3 C2_3 1_555 1_555
C6_3 H3_3 1_555 1_555
C7_3 C6_3 1_555 1_555
H4_3 C7_3 1_555 1_555
C8_3 C1_3 1_555 1_555
C9_3 C8_3 1_555 1_555
H5_3 C9_3 1_555 1_555
C10_3 N3_3 1_555 1_555
H6_3 C10_3 1_555 1_555
C11_3 N4_3 1_555 1_555
C12_3 N4_3 1_555 1_555
C13_3 O5_3 1_555 1_555
C16_3 C11_3 1_555 1_555
Cu4_3 N3_3 1_555 1_555
Cu5_2 O11_3 1_555 1_555
O7_3 C20_3 1_555 1_555
O8_3 C20_3 1_555 1_555
O9_3 C21_3 1_555 1_555
O10_3 H9_3 1_555 1_555
O11_3 C28_3 1_555 1_555
O13_3 H10_3 1_555 1_555
N9_3 Cu1_3 1_555 1_555
N11_3 C11_3 1_555 1_555
C21_3 O10_3 1_555 1_555
C27_3 C12_3 1_555 1_555
C28_3 O13_3 1_555 1_555
H15_3 C29_3 1_555 1_555
C30_3 C16_3 1_555 1_555
H16_3 C30_3 1_555 1_555
O6_3 C13_3 1_555 1_555
C7_3 C8_3 1_555 1_555
C9_3 C10_3 1_555 1_555
C12_3 C13_3 1_555 1_555
Cu5_2 N11_3 1_555 1_555
N11_3 C27_3 1_555 1_555
C27_3 C28_3 1_555 1_555
C29_3 C30_3 1_555 1_555
Cu1_4 O1_4 1_555 1_555
O1_4 C4_4 1_555 1_555
O5_4 Cu1_4 1_555 1_555
O6_4 H2_4 1_555 1_555
N1_4 Cu1_4 1_555 1_555
N2_4 C1_4 1_555 1_555
N3_4 C6_4 1_555 1_555
N4_4 Cu1_4 1_555 1_555
C1_4 N1_4 1_555 1_555
C2_4 N1_4 1_555 1_555
C4_4 C2_4 1_555 1_555
C6_4 H3_4 1_555 1_555
C7_4 C6_4 1_555 1_555
H4_4 C7_4 1_555 1_555
C8_4 C1_4 1_555 1_555
C9_4 C8_4 1_555 1_555
H5_4 C9_4 1_555 1_555
C10_4 N3_4 1_555 1_555
H6_4 C10_4 1_555 1_555
C11_4 N4_4 1_555 1_555
C12_4 N4_4 1_555 1_555
C13_4 O5_4 1_555 1_555
C16_4 C11_4 1_555 1_555
Cu4_4 N3_4 1_555 1_555
Cu6_2 O11_4 1_555 1_555
O9_4 C21_4 1_555 1_555
O11_4 C28_4 1_555 1_555
O13_4 H10_4 1_555 1_555
N9_4 Cu1_4 1_555 1_555
N11_4 C11_4 1_555 1_555
C27_4 C12_4 1_555 1_555
C28_4 O13_4 1_555 1_555
H15_4 C29_4 1_555 1_555
C30_4 C16_4 1_555 1_555
H16_4 C30_4 1_555 1_555
O6_4 C13_4 1_555 1_555
C7_4 C8_4 1_555 1_555
C9_4 C10_4 1_555 1_555
C12_4 C13_4 1_555 1_555
Cu6_2 N11_4 1_555 1_555
N11_4 C27_4 1_555 1_555
C27_4 C28_4 1_555 1_555
C29_4 C30_4 1_555 1_555
O3_4 C5_4 1_555 1_555
O4_4 H1_4 1_555 1_555
N5_4 C14_4 1_555 1_555
C5_4 O4_4 1_555 1_555
C14_4 H7_4 1_555 1_555
C15_4 C14_4 1_555 1_555
H8_4 C15_4 1_555 1_555
N7_4 Cu2_4 1_555 1_555
N8_4 C22_4 1_555 1_555
C19_4 N7_4 1_555 1_555
C22_4 H11_4 1_555 1_555
C23_4 C22_4 1_555 1_555
H12_4 C23_4 1_555 1_555
C24_4 C17_4 1_555 1_555
C25_4 C24_4 1_555 1_555
H13_4 C25_4 1_555 1_555
C26_4 N8_4 1_555 1_555
H14_4 C26_4 1_555 1_555
C3_4 C5_4 1_555 1_555
N7_4 C17_4 1_555 1_555
C23_4 C24_4 1_555 1_555
C25_4 C26_4 1_555 1_555
O7_4 C20_4 1_555 1_555
O8_4 C20_4 1_555 1_555
O10_4 H9_4 1_555 1_555
O12_4 Cu3_4 1_555 1_555
N6_4 Cu3_4 1_555 1_555
N12_4 Cu3_4 1_555 1_555
C18_4 N6_4 1_555 1_555
Cu1_5 O1_5 1_555 1_555
Cu2_5 N2_5 1_555 1_555
O1_5 C4_5 1_555 1_555
O2_5 C4_5 1_555 1_555
O3_5 C5_5 1_555 1_555
O4_5 H1_5 1_555 1_555
O5_5 Cu1_5 1_555 1_555
O6_5 H2_5 1_555 1_555
N1_5 Cu1_5 1_555 1_555
N2_5 C1_5 1_555 1_555
N9_2 C6_5 1_555 1_555
N4_5 Cu1_5 1_555 1_555
N5_5 C14_5 1_555 1_555
C1_5 N1_5 1_555 1_555
C2_5 N1_5 1_555 1_555
C3_5 N2_5 1_555 1_555
C4_5 C2_5 1_555 1_555
C5_5 O4_5 1_555 1_555
C6_5 H3_5 1_555 1_555
C7_5 C6_5 1_555 1_555
H4_5 C7_5 1_555 1_555
C8_5 C1_5 1_555 1_555
C9_5 C8_5 1_555 1_555
H5_5 C9_5 1_555 1_555
C10_5 N9_2 1_555 1_555
H6_5 C10_5 1_555 1_555
C11_5 N4_5 1_555 1_555
C12_5 N4_5 1_555 1_555
C13_5 O5_5 1_555 1_555
C14_5 H7_5 1_555 1_555
C15_5 C14_5 1_555 1_555
H8_5 C15_5 1_555 1_555
C16_5 C11_5 1_555 1_555
Cu5 O7_5 1_555 1_555
Cu5_3 O11_5 1_555 1_555
O7_5 C20_5 1_555 1_555
O8_5 C20_5 1_555 1_555
O9_5 C21_5 1_555 1_555
O10_5 H9_5 1_555 1_555
O11_5 C28_5 1_555 1_555
O13_5 H10_5 1_555 1_555
N6_5 Cu5 1_555 1_555
N7_5 Cu2_5 1_555 1_555
N8_5 C22_5 1_555 1_555
N9_5 Cu1_5 1_555 1_555
N11_5 C11_5 1_555 1_555
C17_5 N6_5 1_555 1_555
C18_5 N6_5 1_555 1_555
C19_5 N7_5 1_555 1_555
C20_5 C18_5 1_555 1_555
C21_5 O10_5 1_555 1_555
C22_5 H11_5 1_555 1_555
C23_5 C22_5 1_555 1_555
H12_5 C23_5 1_555 1_555
C24_5 C17_5 1_555 1_555
C25_5 C24_5 1_555 1_555
H13_5 C25_5 1_555 1_555
C26_5 N8_5 1_555 1_555
H14_5 C26_5 1_555 1_555
C27_5 C12_5 1_555 1_555
C28_5 O13_5 1_555 1_555
C29_5 N5_5 1_555 1_555
H15_5 C29_5 1_555 1_555
C30_5 C16_5 1_555 1_555
H16_5 C30_5 1_555 1_555
O6_5 C13_5 1_555 1_555
C2_5 C3_5 1_555 1_555
C3_5 C5_5 1_555 1_555
C7_5 C8_5 1_555 1_555
C9_5 C10_5 1_555 1_555
C12_5 C13_5 1_555 1_555
C15_5 C16_5 1_555 1_555
Cu5_3 N11_5 1_555 1_555
N7_5 C17_5 1_555 1_555
N11_5 C27_5 1_555 1_555
C18_5 C19_5 1_555 1_555
C19_5 C21_5 1_555 1_555
C23_5 C24_5 1_555 1_555
C25_5 C26_5 1_555 1_555
C27_5 C28_5 1_555 1_555
C29_5 C30_5 1_555 1_555
Cu6_2 O7_6 1_555 1_555
O7_6 C20_6 1_555 1_555
O8_6 C20_6 1_555 1_555
O10_6 H9_6 1_555 1_555
N6_6 Cu6_2 1_555 1_555
C18_6 N6_6 1_555 1_555
C20_6 C18_6 1_555 1_555
Cu1_6 O1_6 1_555 1_555
Cu2_6 N2_6 1_555 1_555
O1_6 C4_6 1_555 1_555
O2_6 C4_6 1_555 1_555
O3_6 C5_6 1_555 1_555
O4_6 H1_6 1_555 1_555
O5_6 Cu1_6 1_555 1_555
O6_6 H2_6 1_555 1_555
N1_6 Cu1_6 1_555 1_555
N2_6 C1_6 1_555 1_555
N9_3 C6_6 1_555 1_555
N4_6 Cu1_6 1_555 1_555
N5_6 C14_6 1_555 1_555
C1_6 N1_6 1_555 1_555
C2_6 N1_6 1_555 1_555
C3_6 N2_6 1_555 1_555
C4_6 C2_6 1_555 1_555
C5_6 O4_6 1_555 1_555
C6_6 H3_6 1_555 1_555
C7_6 C6_6 1_555 1_555
H4_6 C7_6 1_555 1_555
C8_6 C1_6 1_555 1_555
C9_6 C8_6 1_555 1_555
H5_6 C9_6 1_555 1_555
C10_6 N9_3 1_555 1_555
H6_6 C10_6 1_555 1_555
C11_6 N4_6 1_555 1_555
C12_6 N4_6 1_555 1_555
C13_6 O5_6 1_555 1_555
C14_6 H7_6 1_555 1_555
C15_6 C14_6 1_555 1_555
H8_6 C15_6 1_555 1_555
C16_6 C11_6 1_555 1_555
Cu6_3 O11_6 1_555 1_555
Cu5_3 N8_6 1_555 1_555
O9_6 C21_6 1_555 1_555
O11_6 C28_6 1_555 1_555
O13_6 H10_6 1_555 1_555
N7_6 Cu2_6 1_555 1_555
N8_6 C22_6 1_555 1_555
N9_6 Cu1_6 1_555 1_555
N11_6 C11_6 1_555 1_555
C19_6 N7_6 1_555 1_555
C22_6 H11_6 1_555 1_555
C23_6 C22_6 1_555 1_555
H12_6 C23_6 1_555 1_555
C24_6 C17_6 1_555 1_555
C25_6 C24_6 1_555 1_555
H13_6 C25_6 1_555 1_555
C26_6 N8_6 1_555 1_555
H14_6 C26_6 1_555 1_555
C27_6 C12_6 1_555 1_555
C28_6 O13_6 1_555 1_555
C29_6 N5_6 1_555 1_555
H15_6 C29_6 1_555 1_555
C30_6 C16_6 1_555 1_555
H16_6 C30_6 1_555 1_555
O6_6 C13_6 1_555 1_555
C2_6 C3_6 1_555 1_555
C3_6 C5_6 1_555 1_555
C7_6 C8_6 1_555 1_555
C9_6 C10_6 1_555 1_555
C12_6 C13_6 1_555 1_555
C15_6 C16_6 1_555 1_555
Cu6_3 N11_6 1_555 1_555
N7_6 C17_6 1_555 1_555
N11_6 C27_6 1_555 1_555
C19_6 C21_6 1_555 1_555
C23_6 C24_6 1_555 1_555
C25_6 C26_6 1_555 1_555
C27_6 C28_6 1_555 1_555
C29_6 C30_6 1_555 1_555
O3_7 C5_7 1_555 1_555
O4_7 H1_7 1_555 1_555
N5_7 C14_7 1_555 1_555
C5_7 O4_7 1_555 1_555
C14_7 H7_7 1_555 1_555
C15_7 C14_7 1_555 1_555
H8_7 C15_7 1_555 1_555
Cu6_4 N8_7 1_555 1_555
N6_7 Cu6 1_555 1_555
N7_7 Cu2_7 1_555 1_555
N8_7 C22_7 1_555 1_555
C17_7 N6_7 1_555 1_555
C18_7 N6_7 1_555 1_555
C19_7 N7_7 1_555 1_555
C22_7 H11_7 1_555 1_555
C23_7 C22_7 1_555 1_555
H12_7 C23_7 1_555 1_555
C24_7 C17_7 1_555 1_555
C25_7 C24_7 1_555 1_555
H13_7 C25_7 1_555 1_555
C26_7 N8_7 1_555 1_555
H14_7 C26_7 1_555 1_555
C3_7 C5_7 1_555 1_555
N7_7 C17_7 1_555 1_555
C18_7 C19_7 1_555 1_555
C23_7 C24_7 1_555 1_555
C25_7 C26_7 1_555 1_555
Cu1_7 O1_7 1_555 1_555
O1_7 C4_7 1_555 1_555
O5_7 Cu1_7 1_555 1_555
O6_7 H2_7 1_555 1_555
N1_7 Cu1_7 1_555 1_555
N2_7 C1_7 1_555 1_555
N9 C6_7 1_555 1_555
N4_7 Cu1_7 1_555 1_555
C1_7 N1_7 1_555 1_555
C2_7 N1_7 1_555 1_555
C4_7 C2_7 1_555 1_555
C6_7 H3_7 1_555 1_555
C7_7 C6_7 1_555 1_555
H4_7 C7_7 1_555 1_555
C8_7 C1_7 1_555 1_555
C9_7 C8_7 1_555 1_555
H5_7 C9_7 1_555 1_555
C10_7 N9 1_555 1_555
H6_7 C10_7 1_555 1_555
C11_7 N4_7 1_555 1_555
C12_7 N4_7 1_555 1_555
C13_7 O5_7 1_555 1_555
C16_7 C11_7 1_555 1_555
Cu5_4 O11_7 1_555 1_555
O7_7 C20_7 1_555 1_555
O8_7 C20_7 1_555 1_555
O9_7 C21_7 1_555 1_555
O10_7 H9_7 1_555 1_555
O11_7 C28_7 1_555 1_555
O13_7 H10_7 1_555 1_555
N9_7 Cu1_7 1_555 1_555
N11_7 C11_7 1_555 1_555
C21_7 O10_7 1_555 1_555
C27_7 C12_7 1_555 1_555
C28_7 O13_7 1_555 1_555
H15_7 C29_7 1_555 1_555
C30_7 C16_7 1_555 1_555
H16_7 C30_7 1_555 1_555
O6_7 C13_7 1_555 1_555
C7_7 C8_7 1_555 1_555
C9_7 C10_7 1_555 1_555
C12_7 C13_7 1_555 1_555
Cu5_4 N11_7 1_555 1_555
N11_7 C27_7 1_555 1_555
C27_7 C28_7 1_555 1_555
C29_7 C30_7 1_555 1_555
Cu1_8 O1_8 1_555 1_555
O1_8 C4_8 1_555 1_555
O5_8 Cu1_8 1_555 1_555
O6_8 H2_8 1_555 1_555
N1_8 Cu1_8 1_555 1_555
N2_8 C1_8 1_555 1_555
N9_4 C6_8 1_555 1_555
N4_8 Cu1_8 1_555 1_555
C1_8 N1_8 1_555 1_555
C2_8 N1_8 1_555 1_555
C4_8 C2_8 1_555 1_555
C6_8 H3_8 1_555 1_555
C7_8 C6_8 1_555 1_555
H4_8 C7_8 1_555 1_555
C8_8 C1_8 1_555 1_555
C9_8 C8_8 1_555 1_555
H5_8 C9_8 1_555 1_555
C10_8 N9_4 1_555 1_555
H6_8 C10_8 1_555 1_555
C11_8 N4_8 1_555 1_555
C12_8 N4_8 1_555 1_555
C13_8 O5_8 1_555 1_555
C16_8 C11_8 1_555 1_555
Cu6_4 O11_8 1_555 1_555
O9_8 C21_8 1_555 1_555
O11_8 C28_8 1_555 1_555
O13_8 H10_8 1_555 1_555
N9_8 Cu1_8 1_555 1_555
N11_8 C11_8 1_555 1_555
C27_8 C12_8 1_555 1_555
C28_8 O13_8 1_555 1_555
H15_8 C29_8 1_555 1_555
C30_8 C16_8 1_555 1_555
H16_8 C30_8 1_555 1_555
O6_8 C13_8 1_555 1_555
C7_8 C8_8 1_555 1_555
C9_8 C10_8 1_555 1_555
C12_8 C13_8 1_555 1_555
Cu6_4 N11_8 1_555 1_555
N11_8 C27_8 1_555 1_555
C27_8 C28_8 1_555 1_555
C29_8 C30_8 1_555 1_555
O3_8 C5_8 1_555 1_555
O4_8 H1_8 1_555 1_555
N5_8 C14_8 1_555 1_555
C5_8 O4_8 1_555 1_555
C14_8 H7_8 1_555 1_555
C15_8 C14_8 1_555 1_555
H8_8 C15_8 1_555 1_555
N7_8 Cu2_8 1_555 1_555
N8_8 C22_8 1_555 1_555
C19_8 N7_8 1_555 1_555
C22_8 H11_8 1_555 1_555
C23_8 C22_8 1_555 1_555
H12_8 C23_8 1_555 1_555
C24_8 C17_8 1_555 1_555
C25_8 C24_8 1_555 1_555
H13_8 C25_8 1_555 1_555
C26_8 N8_8 1_555 1_555
H14_8 C26_8 1_555 1_555
C3_8 C5_8 1_555 1_555
N7_8 C17_8 1_555 1_555
C23_8 C24_8 1_555 1_555
C25_8 C26_8 1_555 1_555
O7_8 C20_8 1_555 1_555
O8_8 C20_8 1_555 1_555
O10_8 H9_8 1_555 1_555
N6_8 Cu5_2 1_555 1_555
C18_8 N6_8 1_555 1_555
Cu4_3 O1_9 1_555 1_555
Cu2_9 N2_9 1_555 1_555
O1_9 C4_9 1_555 1_555
O2_9 C4_9 1_555 1_555
O3_9 C5_9 1_555 1_555
O4_9 H1_9 1_555 1_555
O5_9 Cu4_3 1_555 1_555
O6_9 H2_9 1_555 1_555
N1_9 Cu4_3 1_555 1_555
N2_9 C1_9 1_555 1_555
N9_6 C6_9 1_555 1_555
N4_9 Cu4_3 1_555 1_555
N5_9 C14_9 1_555 1_555
C1_9 N1_9 1_555 1_555
C2_9 N1_9 1_555 1_555
C3_9 N2_9 1_555 1_555
C4_9 C2_9 1_555 1_555
C5_9 O4_9 1_555 1_555
C6_9 H3_9 1_555 1_555
C7_9 C6_9 1_555 1_555
H4_9 C7_9 1_555 1_555
C8_9 C1_9 1_555 1_555
C9_9 C8_9 1_555 1_555
H5_9 C9_9 1_555 1_555
C10_9 N9_6 1_555 1_555
H6_9 C10_9 1_555 1_555
C11_9 N4_9 1_555 1_555
C12_9 N4_9 1_555 1_555
C13_9 O5_9 1_555 1_555
C14_9 H7_9 1_555 1_555
C15_9 C14_9 1_555 1_555
H8_9 C15_9 1_555 1_555
C16_9 C11_9 1_555 1_555
Cu5_3 O7_9 1_555 1_555
O7_9 C20_9 1_555 1_555
O8_9 C20_9 1_555 1_555
O9_9 C21_9 1_555 1_555
O10_9 H9_9 1_555 1_555
O12 C28_9 1_555 1_555
O13_9 H10_9 1_555 1_555
N6_9 Cu5_3 1_555 1_555
N7_9 Cu2_9 1_555 1_555
N10_3 C22_9 1_555 1_555
N12 C11_9 1_555 1_555
C17_9 N6_9 1_555 1_555
C18_9 N6_9 1_555 1_555
C19_9 N7_9 1_555 1_555
C20_9 C18_9 1_555 1_555
C21_9 O10_9 1_555 1_555
C22_9 H11_9 1_555 1_555
C23_9 C22_9 1_555 1_555
H12_9 C23_9 1_555 1_555
C24_9 C17_9 1_555 1_555
C25_9 C24_9 1_555 1_555
H13_9 C25_9 1_555 1_555
C26_9 N10_3 1_555 1_555
H14_9 C26_9 1_555 1_555
C27_9 C12_9 1_555 1_555
C28_9 O13_9 1_555 1_555
C29_9 N5_9 1_555 1_555
H15_9 C29_9 1_555 1_555
C30_9 C16_9 1_555 1_555
H16_9 C30_9 1_555 1_555
O6_9 C13_9 1_555 1_555
C2_9 C3_9 1_555 1_555
C3_9 C5_9 1_555 1_555
C7_9 C8_9 1_555 1_555
C9_9 C10_9 1_555 1_555
C12_9 C13_9 1_555 1_555
C15_9 C16_9 1_555 1_555
N7_9 C17_9 1_555 1_555
N12 C27_9 1_555 1_555
C18_9 C19_9 1_555 1_555
C19_9 C21_9 1_555 1_555
C23_9 C24_9 1_555 1_555
C25_9 C26_9 1_555 1_555
C27_9 C28_9 1_555 1_555
C29_9 C30_9 1_555 1_555
Cu6_4 O7_10 1_555 1_555
O7_10 C20_10 1_555 1_555
O8_10 C20_10 1_555 1_555
O10_10 H9_10 1_555 1_555
N6_10 Cu6_4 1_555 1_555
C18_10 N6_10 1_555 1_555
C20_10 C18_10 1_555 1_555
Cu4 O1_10 1_555 1_555
Cu2_10 N2_10 1_555 1_555
O1_10 C4_10 1_555 1_555
O2_10 C4_10 1_555 1_555
O3_10 C5_10 1_555 1_555
O4_10 H1_10 1_555 1_555
O5_10 Cu4 1_555 1_555
O6_10 H2_10 1_555 1_555
N1_10 Cu4 1_555 1_555
N2_10 C1_10 1_555 1_555
N9_7 C6_10 1_555 1_555
N4_10 Cu4 1_555 1_555
N5_10 C14_10 1_555 1_555
C1_10 N1_10 1_555 1_555
C2_10 N1_10 1_555 1_555
C3_10 N2_10 1_555 1_555
C4_10 C2_10 1_555 1_555
C5_10 O4_10 1_555 1_555
C6_10 H3_10 1_555 1_555
C7_10 C6_10 1_555 1_555
H4_10 C7_10 1_555 1_555
C8_10 C1_10 1_555 1_555
C9_10 C8_10 1_555 1_555
H5_10 C9_10 1_555 1_555
C10_10 N9_7 1_555 1_555
H6_10 C10_10 1_555 1_555
C11_10 N4_10 1_555 1_555
C12_10 N4_10 1_555 1_555
C13_10 O5_10 1_555 1_555
C14_10 H7_10 1_555 1_555
C15_10 C14_10 1_555 1_555
H8_10 C15_10 1_555 1_555
C16_10 C11_10 1_555 1_555
O9_10 C21_10 1_555 1_555
O12_3 C28_10 1_555 1_555
O13_10 H10_10 1_555 1_555
N7_10 Cu2_10 1_555 1_555
N10 C22_10 1_555 1_555
N12_3 C11_10 1_555 1_555
C19_10 N7_10 1_555 1_555
C22_10 H11_10 1_555 1_555
C23_10 C22_10 1_555 1_555
H12_10 C23_10 1_555 1_555
C24_10 C17_10 1_555 1_555
C25_10 C24_10 1_555 1_555
H13_10 C25_10 1_555 1_555
C26_10 N10 1_555 1_555
H14_10 C26_10 1_555 1_555
C27_10 C12_10 1_555 1_555
C28_10 O13_10 1_555 1_555
C29_10 N5_10 1_555 1_555
H15_10 C29_10 1_555 1_555
C30_10 C16_10 1_555 1_555
H16_10 C30_10 1_555 1_555
O6_10 C13_10 1_555 1_555
C2_10 C3_10 1_555 1_555
C3_10 C5_10 1_555 1_555
C7_10 C8_10 1_555 1_555
C9_10 C10_10 1_555 1_555
C12_10 C13_10 1_555 1_555
C15_10 C16_10 1_555 1_555
N7_10 C17_10 1_555 1_555
N12_3 C27_10 1_555 1_555
C19_10 C21_10 1_555 1_555
C23_10 C24_10 1_555 1_555
C25_10 C26_10 1_555 1_555
C27_10 C28_10 1_555 1_555
C29_10 C30_10 1_555 1_555
O3_11 C5_11 1_555 1_555
O4_11 H1_11 1_555 1_555
N5_11 C14_11 1_555 1_555
C5_11 O4_11 1_555 1_555
C14_11 H7_11 1_555 1_555
C15_11 C14_11 1_555 1_555
H8_11 C15_11 1_555 1_555
N6_11 Cu6_3 1_555 1_555
N7_11 Cu2_11 1_555 1_555
N10_2 C22_11 1_555 1_555
C17_11 N6_11 1_555 1_555
C18_11 N6_11 1_555 1_555
C19_11 N7_11 1_555 1_555
C22_11 H11_11 1_555 1_555
C23_11 C22_11 1_555 1_555
H12_11 C23_11 1_555 1_555
C24_11 C17_11 1_555 1_555
C25_11 C24_11 1_555 1_555
H13_11 C25_11 1_555 1_555
C26_11 N10_2 1_555 1_555
H14_11 C26_11 1_555 1_555
C3_11 C5_11 1_555 1_555
N7_11 C17_11 1_555 1_555
C18_11 C19_11 1_555 1_555
C23_11 C24_11 1_555 1_555
C25_11 C26_11 1_555 1_555
Cu4_2 O1_11 1_555 1_555
O1_11 C4_11 1_555 1_555
O5_11 Cu4_2 1_555 1_555
O6_11 H2_11 1_555 1_555
N1_11 Cu4_2 1_555 1_555
N2_11 C1_11 1_555 1_555
N9_5 C6_11 1_555 1_555
N4_11 Cu4_2 1_555 1_555
C1_11 N1_11 1_555 1_555
C2_11 N1_11 1_555 1_555
C4_11 C2_11 1_555 1_555
C6_11 H3_11 1_555 1_555
C7_11 C6_11 1_555 1_555
H4_11 C7_11 1_555 1_555
C8_11 C1_11 1_555 1_555
C9_11 C8_11 1_555 1_555
H5_11 C9_11 1_555 1_555
C10_11 N9_5 1_555 1_555
H6_11 C10_11 1_555 1_555
C11_11 N4_11 1_555 1_555
C12_11 N4_11 1_555 1_555
C13_11 O5_11 1_555 1_555
C16_11 C11_11 1_555 1_555
O7_11 C20_11 1_555 1_555
O8_11 C20_11 1_555 1_555
O9_11 C21_11 1_555 1_555
O10_11 H9_11 1_555 1_555
O12_4 C28_11 1_555 1_555
O13_11 H10_11 1_555 1_555
N12_4 C11_11 1_555 1_555
C21_11 O10_11 1_555 1_555
C27_11 C12_11 1_555 1_555
C28_11 O13_11 1_555 1_555
H15_11 C29_11 1_555 1_555
C30_11 C16_11 1_555 1_555
H16_11 C30_11 1_555 1_555
O6_11 C13_11 1_555 1_555
C7_11 C8_11 1_555 1_555
C9_11 C10_11 1_555 1_555
C12_11 C13_11 1_555 1_555
N12_4 C27_11 1_555 1_555
C27_11 C28_11 1_555 1_555
C29_11 C30_11 1_555 1_555
Cu4_4 O1_12 1_555 1_555
O1_12 C4_12 1_555 1_555
O5_12 Cu4_4 1_555 1_555
O6_12 H2_12 1_555 1_555
N1_12 Cu4_4 1_555 1_555
N2_12 C1_12 1_555 1_555
N9_8 C6_12 1_555 1_555
N4_12 Cu4_4 1_555 1_555
C1_12 N1_12 1_555 1_555
C2_12 N1_12 1_555 1_555
C4_12 C2_12 1_555 1_555
C6_12 H3_12 1_555 1_555
C7_12 C6_12 1_555 1_555
H4_12 C7_12 1_555 1_555
C8_12 C1_12 1_555 1_555
C9_12 C8_12 1_555 1_555
H5_12 C9_12 1_555 1_555
C10_12 N9_8 1_555 1_555
H6_12 C10_12 1_555 1_555
C11_12 N4_12 1_555 1_555
C12_12 N4_12 1_555 1_555
C13_12 O5_12 1_555 1_555
C16_12 C11_12 1_555 1_555
O9_12 C21_12 1_555 1_555
O12_2 C28_12 1_555 1_555
O13_12 H10_12 1_555 1_555
N12_2 C11_12 1_555 1_555
C27_12 C12_12 1_555 1_555
C28_12 O13_12 1_555 1_555
H15_12 C29_12 1_555 1_555
C30_12 C16_12 1_555 1_555
H16_12 C30_12 1_555 1_555
O6_12 C13_12 1_555 1_555
C7_12 C8_12 1_555 1_555
C9_12 C10_12 1_555 1_555
C12_12 C13_12 1_555 1_555
N12_2 C27_12 1_555 1_555
C27_12 C28_12 1_555 1_555
C29_12 C30_12 1_555 1_555
O7_12 C20_12 1_555 1_555
O8_12 C20_12 1_555 1_555
O10_12 H9_12 1_555 1_555
O3_12 C5_12 1_555 1_555
O4_12 H1_12 1_555 1_555
N5_12 C14_12 1_555 1_555
C5_12 O4_12 1_555 1_555
C14_12 H7_12 1_555 1_555
C15_12 C14_12 1_555 1_555
H8_12 C15_12 1_555 1_555
N7_12 Cu2_12 1_555 1_555
N10_4 C22_12 1_555 1_555
C19_12 N7_12 1_555 1_555
C22_12 H11_12 1_555 1_555
C23_12 C22_12 1_555 1_555
H12_12 C23_12 1_555 1_555
C24_12 C17_12 1_555 1_555
C25_12 C24_12 1_555 1_555
H13_12 C25_12 1_555 1_555
C26_12 N10_4 1_555 1_555
H14_12 C26_12 1_555 1_555
C3_12 C5_12 1_555 1_555
N7_12 C17_12 1_555 1_555
C23_12 C24_12 1_555 1_555
C25_12 C26_12 1_555 1_555
N6_12 Cu5_4 1_555 1_555
C18_12 N6_12 1_555 1_555

#END
