
###############################################################################
#
# This file contains modified crystal structure data generated from the
# MOF subset of the Cambridge Structural Database (CSD) v543 
# hosted by the Cambridge Crystallographic Data Centre (CCDC).
#
# This work is licensed under the Creative Commons
# Attribution-NonCommercial-ShareAlike 4.0 International License.
# To view a copy of this license, visit
# http://creativecommons.org/licenses/by-nc-sa/4.0/
# or send a letter to
# Creative Commons, PO Box 1866, Mountain View, CA 94042, USA.
#
# CIF created using the CSD Python API on 29 September 2022
# The structure has been converted into the P1 space group
# The structure has a 3D framework
# The original CSD entry PURREC is in the monoclinic crystal system
# The framework has been calculated to contain at least 10.0% void space
# The void calculation uses a probe of radius 1.32A, grid spacing 0.4
#
###############################################################################

data_PURREC
_chemical_formula_moiety         '(C200 H176 Co16 N40 O72)n'
_symmetry_cell_setting           triclinic
_symmetry_space_group_name_H-M   'P 1'
_symmetry_Int_Tables_number      1
_space_group_name_Hall           'P 1'
loop_
_symmetry_equiv_pos_site_id
_symmetry_equiv_pos_as_xyz
1 x,y,z
_cell_length_a                   37.3165(17)
_cell_length_b                   11.9989(5)
_cell_length_c                   17.9499(9)
_cell_angle_alpha                90
_cell_angle_beta                 102.058(2)
_cell_angle_gamma                90
_cell_volume                     7859.86
loop_
_atom_site_label
_atom_site_type_symbol
_atom_site_fract_x
_atom_site_fract_y
_atom_site_fract_z
C8 C 0.58915(15) 0.0887(4) 0.6316(3)
H5 H 0.574896 0.135321 0.594007
N2 N 0.61216(9) 0.1360(3) 0.69031(19)
C9 C 0.63321(14) 0.0676(4) 0.7385(3)
H6 H 0.650806 0.099670 0.778740
Co9 Co 0.61485(2) 0.31204(4) 0.70837(3)
Co1 Co 0.65536(2) 0.57042(4) 0.72523(3)
O1 O 0.60738(7) 0.4829(2) 0.72092(14)
N1 N 0.57952(8) 0.5128(3) 0.66032(18)
H1 H 0.576199 0.582912 0.646185
C1 C 0.55826(10) 0.4345(3) 0.6246(2)
O2 O 0.56300(7) 0.3330(2) 0.64111(16)
C2 C 0.52776(10) 0.4706(3) 0.5606(2)
C3 C 0.51634(11) 0.3952(3) 0.5016(2)
H2 H 0.527330 0.323580 0.503115
C4 C 0.48871(11) 0.4257(3) 0.4405(3)
H3 H 0.481065 0.375376 0.399433
O3 O 0.62931(7) 0.7256(2) 0.70979(15)
C5 C 0.60330(11) 0.7786(3) 0.6712(2)
O4 O 0.57580(9) 0.7388(2) 0.6287(2)
C6 C 0.60633(11) 0.9049(3) 0.6772(2)
C7 C 0.58535(15) 0.9743(4) 0.6238(3)
H4 H 0.568421 0.943594 0.581847
C10 C 0.63126(14) 0.9532(4) 0.7341(3)
H7 H 0.647168 0.908523 0.770347
O5 O 0.65203(7) 0.5308(2) 0.61020(15)
C11 C 0.64501(10) 0.4367(3) 0.5800(2)
O6 O 0.63497(7) 0.3496(2) 0.60877(15)
C12 C 0.64949(10) 0.4278(3) 0.4979(2)
C13 C 0.67651(13) 0.4867(4) 0.4733(3)
H8 H 0.692590 0.533869 0.507419
C14 C 0.67996(13) 0.4764(4) 0.3987(3)
H9 H 0.699650 0.513850 0.383263
N3 N 0.65659(8) 0.4155(3) 0.34614(18)
C15 C 0.63076(12) 0.3609(4) 0.3712(2)
H10 H 0.614201 0.316777 0.335775
C16 C 0.62626(13) 0.3639(4) 0.4453(3)
H11 H 0.607245 0.322121 0.459956
O7 O 0.66729(7) 0.2865(2) 0.77030(15)
C17 C 0.69407(10) 0.3418(3) 0.7591(2)
O8 O 0.69500(7) 0.4436(2) 0.74512(15)
C18 C 0.72990(10) 0.2794(3) 0.7638(2)
C19 C 0.73729(10) 0.1834(3) 0.8076(2)
H12 H 0.719944 0.154781 0.834601
C20 C 0.77040(10) 0.1309(3) 0.8109(2)
H13 H 0.775887 0.066902 0.842438
N4 N 0.79516(8) 0.1654(3) 0.77209(19)
C21 C 0.78757(11) 0.2563(3) 0.7293(2)
H14 H 0.804847 0.280546 0.700720
C22 C 0.75575(11) 0.3169(3) 0.7246(2)
H15 H 0.751688 0.383124 0.694971
O9 O 0.59627(8) 0.2870(3) 0.81172(19)
N5 N 0.6101(2) 0.2675(7) 0.9419(4)
C23 C 0.6180(3) 0.2622(7) 0.8721(5)
H16 H 0.641796 0.237897 0.868711
H18 H 0.646976 0.149673 0.994239
C25 C 0.5747(3) 0.3241(11) 0.9462(7)
H20 H 0.571516 0.323584 0.999034
H21 H 0.575215 0.401214 0.928535
H22 H 0.554272 0.284330 0.913885
O10 O 0.39262(7) 0.5171(2) 0.27908(14)
N6 N 0.42048(8) 0.4872(3) 0.33968(18)
H23 H 0.423801 0.417088 0.353815
C26 C 0.44174(10) 0.5655(3) 0.3754(2)
O11 O 0.43700(7) 0.6670(2) 0.35889(16)
C27 C 0.47224(10) 0.5294(3) 0.4394(2)
C28 C 0.48366(11) 0.6048(3) 0.4984(2)
H24 H 0.472670 0.676420 0.496885
C29 C 0.51129(11) 0.5743(3) 0.5595(3)
H25 H 0.518935 0.624624 0.600567
Co3 Co 0.34464(2) 0.42958(4) 0.27477(3)
Co4 Co 0.38515(2) 0.68796(4) 0.29163(3)
O12 O 0.37069(7) 0.2744(2) 0.29021(15)
C30 C 0.39670(11) 0.2214(3) 0.3288(2)
O13 O 0.42420(9) 0.2612(2) 0.3713(2)
C31 C 0.39367(11) 0.0951(3) 0.3228(2)
C32 C 0.41465(15) 0.0257(4) 0.3762(3)
H26 H 0.431579 0.056406 0.418153
C35 C 0.36874(14) 0.0468(4) 0.2659(3)
H29 H 0.352832 0.091477 0.229653
O14 O 0.34797(7) 0.4692(2) 0.38980(15)
C36 C 0.35499(10) 0.5633(3) 0.4200(2)
O15 O 0.36503(7) 0.6504(2) 0.39123(15)
C37 C 0.35051(10) 0.5722(3) 0.5021(2)
C38 C 0.32349(13) 0.5133(4) 0.5267(3)
H30 H 0.307410 0.466131 0.492581
C39 C 0.32004(13) 0.5236(4) 0.6013(3)
H31 H 0.300350 0.486150 0.616737
N8 N 0.34341(8) 0.5845(3) 0.65386(18)
C40 C 0.36924(12) 0.6391(4) 0.6288(2)
H32 H 0.385799 0.683223 0.664225
C41 C 0.37374(13) 0.6361(4) 0.5547(3)
H33 H 0.392755 0.677879 0.540044
O16 O 0.33271(7) 0.7135(2) 0.22970(15)
C42 C 0.30593(10) 0.6582(3) 0.2409(2)
O17 O 0.30500(7) 0.5564(2) 0.25488(15)
C43 C 0.27010(10) 0.7206(3) 0.2362(2)
C44 C 0.26271(10) 0.8166(3) 0.1924(2)
H34 H 0.280056 0.845219 0.165399
C45 C 0.22960(10) 0.8691(3) 0.1891(2)
H35 H 0.224113 0.933098 0.157562
N9 N 0.20484(8) 0.8346(3) 0.22791(19)
C46 C 0.21243(11) 0.7437(3) 0.2707(2)
H36 H 0.195153 0.719454 0.299280
C47 C 0.24425(11) 0.6831(3) 0.2754(2)
H37 H 0.248312 0.616876 0.305029
O18 O 0.40373(8) 0.7130(3) 0.18828(19)
N10 N 0.3899(2) 0.7325(7) 0.0581(4)
C48 C 0.3820(3) 0.7378(7) 0.1279(5)
H38 H 0.358204 0.762103 0.131289
H40 H 0.353024 0.850327 0.005761
C50 C 0.4253(3) 0.6759(11) 0.0538(7)
H42 H 0.428484 0.676416 0.000966
H43 H 0.424785 0.598786 0.071465
H44 H 0.445728 0.715670 0.086115
Co5 Co 0.34464(2) 0.57042(4) 0.77477(3)
Co6 Co 0.84464(2) 0.07042(4) 0.77477(3)
Co7 Co 0.65536(2) 0.42958(4) 0.22523(3)
Co8 Co 0.15536(2) 0.92958(4) 0.22523(3)
N12 N 0.38784(9) 0.8640(3) 0.30969(19)
N13 N 0.34341(8) 0.4155(3) 0.15386(18)
N14 N 0.65659(8) 0.5845(3) 0.84614(18)
N15 N 0.70484(8) 0.6654(3) 0.72791(19)
N16 N 0.29516(8) 0.3346(3) 0.27209(19)
C33 C 0.41085(15) 0.9113(4) 0.3684(3)
H27 H 0.425104 0.864679 0.405993
C34 C 0.36679(14) 0.9324(4) 0.2615(3)
H28 H 0.349194 0.900330 0.221260
C8_2 C 0.41085(15) 0.0887(4) 0.8684(3)
H5_2 H 0.425104 0.135321 0.905993
N2_2 N 0.38784(9) 0.1360(3) 0.80969(19)
C9_2 C 0.36679(14) 0.0676(4) 0.7615(3)
H6_2 H 0.349194 0.099670 0.721260
Co9_2 Co 0.38515(2) 0.31204(4) 0.79163(3)
C4_2 C 0.51129(11) 0.4257(3) 0.0595(3)
H3_2 H 0.518935 0.375376 0.100567
C12_2 C 0.35051(10) 0.4278(3) 0.0021(2)
C13_2 C 0.32349(13) 0.4867(4) 0.0267(3)
C14_2 C 0.32004(13) 0.4764(4) 0.1013(3)
H9_2 H 0.300350 0.513850 0.116737
C15_2 C 0.36924(12) 0.3609(4) 0.1288(2)
H10_2 H 0.385799 0.316777 0.164225
C16_2 C 0.37374(13) 0.3639(4) 0.0547(3)
H11_2 H 0.392755 0.322121 0.040044
O10_2 O 0.60738(7) 0.5171(2) 0.22092(14)
N6_2 N 0.57952(8) 0.4872(3) 0.16032(18)
H23_2 H 0.576199 0.417088 0.146185
C26_2 C 0.55826(10) 0.5655(3) 0.1246(2)
O11_2 O 0.56300(7) 0.6670(2) 0.14111(16)
C27_2 C 0.52776(10) 0.5294(3) 0.0606(2)
C28_2 C 0.51634(11) 0.6048(3) 0.0016(2)
H24_2 H 0.527330 0.676420 0.003115
Co4_2 Co 0.61485(2) 0.68796(4) 0.20837(3)
O12_2 O 0.62931(7) 0.2744(2) 0.20979(15)
C30_2 C 0.60330(11) 0.2214(3) 0.1712(2)
O13_2 O 0.57580(9) 0.2612(2) 0.1287(2)
C31_2 C 0.60633(11) 0.0951(3) 0.1772(2)
C32_2 C 0.58535(15) 0.0257(4) 0.1238(3)
H26_2 H 0.568421 0.056406 0.081847
C35_2 C 0.63126(14) 0.0468(4) 0.2341(3)
H29_2 H 0.647168 0.091477 0.270347
O14_2 O 0.65203(7) 0.4692(2) 0.11020(15)
C36_2 C 0.64501(10) 0.5633(3) 0.0800(2)
O15_2 O 0.63497(7) 0.6504(2) 0.10877(15)
H30_2 H 0.692590 0.466131 0.007419
O16_2 O 0.66729(7) 0.7135(2) 0.27030(15)
C42_2 C 0.69407(10) 0.6582(3) 0.2591(2)
O17_2 O 0.69500(7) 0.5564(2) 0.24512(15)
C43_2 C 0.72990(10) 0.7206(3) 0.2638(2)
C44_2 C 0.73729(10) 0.8166(3) 0.3076(2)
H34_2 H 0.719944 0.845219 0.334601
C45_2 C 0.77040(10) 0.8691(3) 0.3109(2)
H35_2 H 0.775887 0.933098 0.342438
N9_2 N 0.79516(8) 0.8346(3) 0.27209(19)
C46_2 C 0.78757(11) 0.7437(3) 0.2293(2)
H36_2 H 0.804847 0.719454 0.200720
C47_2 C 0.75575(11) 0.6831(3) 0.2246(2)
H37_2 H 0.751688 0.616876 0.194971
O18_2 O 0.59627(8) 0.7130(3) 0.31172(19)
N10_2 N 0.6101(2) 0.7325(7) 0.4419(4)
C48_2 C 0.6180(3) 0.7378(7) 0.3721(5)
H38_2 H 0.641796 0.762103 0.368711
C49 C 0.6413(3) 0.7726(8) 0.5039(5)
H39 H 0.634225 0.767063 0.553345
H40_2 H 0.646976 0.850327 0.494239
H41 H 0.663001 0.726266 0.504341
C50_2 C 0.5747(3) 0.6759(11) 0.4462(7)
H42_2 H 0.571516 0.676416 0.499034
H43_2 H 0.575215 0.598786 0.428535
H44_2 H 0.554272 0.715670 0.413885
Co8_2 Co 0.84464(2) 0.92958(4) 0.27477(3)
N12_2 N 0.61216(9) 0.8640(3) 0.19031(19)
N16_2 N 0.70484(8) 0.3346(3) 0.22791(19)
O1_2 O 0.39262(7) 0.4829(2) 0.77908(14)
N1_2 N 0.42048(8) 0.5128(3) 0.83968(18)
H1_2 H 0.423801 0.582912 0.853815
C1_2 C 0.44174(10) 0.4345(3) 0.8754(2)
O2_2 O 0.43700(7) 0.3330(2) 0.85889(16)
C2_2 C 0.47224(10) 0.4706(3) 0.9394(2)
C3_2 C 0.48366(11) 0.3952(3) 0.9984(2)
H2_2 H 0.472670 0.323580 0.996885
O3_2 O 0.37069(7) 0.7256(2) 0.79021(15)
C5_2 C 0.39670(11) 0.7786(3) 0.8288(2)
O4_2 O 0.42420(9) 0.7388(2) 0.8713(2)
C6_2 C 0.39367(11) 0.9049(3) 0.8228(2)
C7_2 C 0.41465(15) 0.9743(4) 0.8762(3)
H4_2 H 0.431579 0.943594 0.918153
C10_2 C 0.36874(14) 0.9532(4) 0.7659(3)
H7_2 H 0.352832 0.908523 0.729653
O5_2 O 0.34797(7) 0.5308(2) 0.88980(15)
C11_2 C 0.35499(10) 0.4367(3) 0.9200(2)
O6_2 O 0.36503(7) 0.3496(2) 0.89123(15)
H8_2 H 0.307410 0.533869 0.992581
O7_2 O 0.33271(7) 0.2865(2) 0.72970(15)
C17_2 C 0.30593(10) 0.3418(3) 0.7409(2)
O8_2 O 0.30500(7) 0.4436(2) 0.75488(15)
C18_2 C 0.27010(10) 0.2794(3) 0.7362(2)
C19_2 C 0.26271(10) 0.1834(3) 0.6924(2)
H12_2 H 0.280056 0.154781 0.665399
C20_2 C 0.22960(10) 0.1309(3) 0.6891(2)
H13_2 H 0.224113 0.066902 0.657562
N4_2 N 0.20484(8) 0.1654(3) 0.72791(19)
C21_2 C 0.21243(11) 0.2563(3) 0.7707(2)
H14_2 H 0.195153 0.280546 0.799280
C22_2 C 0.24425(11) 0.3169(3) 0.7754(2)
H15_2 H 0.248312 0.383124 0.805029
O9_2 O 0.40373(8) 0.2870(3) 0.68828(19)
N5_2 N 0.3899(2) 0.2675(7) 0.5581(4)
C23_2 C 0.3820(3) 0.2622(7) 0.6279(5)
H16_2 H 0.358204 0.237897 0.631289
C24 C 0.3587(3) 0.2274(8) 0.4961(5)
H17 H 0.365775 0.232937 0.446655
H18_2 H 0.353024 0.149673 0.505761
H19 H 0.336999 0.273734 0.495659
C25_2 C 0.4253(3) 0.3241(11) 0.5538(7)
H20_2 H 0.428484 0.323584 0.500966
H21_2 H 0.424785 0.401214 0.571465
H22_2 H 0.445728 0.284330 0.586115
C29_2 C 0.48871(11) 0.5743(3) 0.9405(3)
H25_2 H 0.481065 0.624624 0.899433
C37_2 C 0.64949(10) 0.5722(3) 0.9979(2)
C38_2 C 0.67651(13) 0.5133(4) 0.9733(3)
C39_2 C 0.67996(13) 0.5236(4) 0.8987(3)
H31_2 H 0.699650 0.486150 0.883263
C40_2 C 0.63076(12) 0.6391(4) 0.8712(2)
H32_2 H 0.614201 0.683223 0.835775
C41_2 C 0.62626(13) 0.6361(4) 0.9453(3)
H33_2 H 0.607245 0.677879 0.959956
Co6_2 Co 0.15536(2) 0.07042(4) 0.72523(3)
N15_2 N 0.29516(8) 0.6654(3) 0.77209(19)
C33_2 C 0.58915(15) 0.9113(4) 0.1316(3)
H27_2 H 0.574896 0.864679 0.094007
C34_2 C 0.63321(14) 0.9324(4) 0.2385(3)
H28_2 H 0.650806 0.900330 0.278740
N1_3 N 0.07952(8) 0.0128(3) 0.66032(18)
H1_3 H 0.076199 0.082912 0.646185
O3_3 O 0.12931(7) 0.2256(2) 0.70979(15)
C5_3 C 0.10330(11) 0.2786(3) 0.6712(2)
O4_3 O 0.07580(9) 0.2388(2) 0.6287(2)
C6_3 C 0.10633(11) 0.4049(3) 0.6772(2)
C7_3 C 0.08535(15) 0.4743(4) 0.6238(3)
H4_3 H 0.068421 0.443594 0.581847
C8_3 C 0.08915(15) 0.5887(4) 0.6316(3)
H5_3 H 0.074896 0.635321 0.594007
N2_3 N 0.11216(9) 0.6360(3) 0.69031(19)
C9_3 C 0.13321(14) 0.5676(4) 0.7385(3)
H6_3 H 0.150806 0.599670 0.778740
C10_3 C 0.13126(14) 0.4532(4) 0.7341(3)
H7_3 H 0.147168 0.408523 0.770347
O5_3 O 0.15203(7) 0.0308(2) 0.61020(15)
H8_3 H 0.192590 0.033869 0.507419
H9_3 H 0.199650 0.013850 0.383263
C29_3 C 0.01129(11) 0.0743(3) 0.5595(3)
H25_3 H 0.018935 0.124624 0.600567
Co9_3 Co 0.11485(2) 0.81204(4) 0.70837(3)
N14_2 N 0.15659(8) 0.0845(3) 0.84614(18)
O1_3 O 0.10738(7) 0.9829(2) 0.72092(14)
C1_3 C 0.05826(10) 0.9345(3) 0.6246(2)
O2_3 O 0.06300(7) 0.8330(2) 0.64111(16)
C2_3 C 0.02776(10) 0.9706(3) 0.5606(2)
C3_3 C 0.01634(11) 0.8952(3) 0.5016(2)
H2_3 H 0.027330 0.823580 0.503115
C11_3 C 0.14501(10) 0.9367(3) 0.5800(2)
O6_3 O 0.13497(7) 0.8496(2) 0.60877(15)
C12_3 C 0.14949(10) 0.9278(3) 0.4979(2)
C13_3 C 0.17651(13) 0.9867(4) 0.4733(3)
C14_3 C 0.17996(13) 0.9764(4) 0.3987(3)
N3_2 N 0.15659(8) 0.9155(3) 0.34614(18)
C15_3 C 0.13076(12) 0.8609(4) 0.3712(2)
H10_3 H 0.114201 0.816777 0.335775
C16_3 C 0.12626(13) 0.8639(4) 0.4453(3)
H11_3 H 0.107245 0.822121 0.459956
O7_3 O 0.16729(7) 0.7865(2) 0.77030(15)
C17_3 C 0.19407(10) 0.8418(3) 0.7591(2)
O8_3 O 0.19500(7) 0.9436(2) 0.74512(15)
C18_3 C 0.22990(10) 0.7794(3) 0.7638(2)
C19_3 C 0.23729(10) 0.6834(3) 0.8076(2)
H12_3 H 0.219944 0.654781 0.834601
C20_3 C 0.27040(10) 0.6309(3) 0.8109(2)
H13_3 H 0.275887 0.566902 0.842438
C21_3 C 0.28757(11) 0.7563(3) 0.7293(2)
H14_3 H 0.304847 0.780546 0.700720
C22_3 C 0.25575(11) 0.8169(3) 0.7246(2)
H15_3 H 0.251688 0.883124 0.694971
O9_3 O 0.09627(8) 0.7870(3) 0.81172(19)
N5_3 N 0.1101(2) 0.7675(7) 0.9419(4)
C23_3 C 0.1180(3) 0.7622(7) 0.8721(5)
H16_3 H 0.141796 0.737897 0.868711
H18_3 H 0.146976 0.649673 0.994239
C25_3 C 0.0747(3) 0.8241(11) 0.9462(7)
H20_3 H 0.071516 0.823584 0.999034
H21_3 H 0.075215 0.901214 0.928535
H22_3 H 0.054272 0.784330 0.913885
O10_3 O 0.89262(7) 0.0171(2) 0.27908(14)
C26_3 C 0.94174(10) 0.0655(3) 0.3754(2)
O11_3 O 0.93700(7) 0.1670(2) 0.35889(16)
C27_3 C 0.97224(10) 0.0294(3) 0.4394(2)
C28_3 C 0.98366(11) 0.1048(3) 0.4984(2)
H24_3 H 0.972670 0.176420 0.496885
Co4_3 Co 0.88515(2) 0.18796(4) 0.29163(3)
C36_3 C 0.85499(10) 0.0633(3) 0.4200(2)
O15_3 O 0.86503(7) 0.1504(2) 0.39123(15)
C37_3 C 0.85051(10) 0.0722(3) 0.5021(2)
C38_3 C 0.82349(13) 0.0133(4) 0.5267(3)
C39_3 C 0.82004(13) 0.0236(4) 0.6013(3)
N8_2 N 0.84341(8) 0.0845(3) 0.65386(18)
C40_3 C 0.86924(12) 0.1391(4) 0.6288(2)
H32_3 H 0.885799 0.183223 0.664225
C41_3 C 0.87374(13) 0.1361(4) 0.5547(3)
H33_3 H 0.892755 0.177879 0.540044
O16_3 O 0.83271(7) 0.2135(2) 0.22970(15)
C42_3 C 0.80593(10) 0.1582(3) 0.2409(2)
O17_3 O 0.80500(7) 0.0564(2) 0.25488(15)
C43_3 C 0.77010(10) 0.2206(3) 0.2362(2)
C44_3 C 0.76271(10) 0.3166(3) 0.1924(2)
H34_3 H 0.780056 0.345219 0.165399
C45_3 C 0.72960(10) 0.3691(3) 0.1891(2)
H35_3 H 0.724113 0.433098 0.157562
C46_3 C 0.71243(11) 0.2437(3) 0.2707(2)
H36_3 H 0.695153 0.219454 0.299280
C47_3 C 0.74425(11) 0.1831(3) 0.2754(2)
H37_3 H 0.748312 0.116876 0.305029
O18_3 O 0.90373(8) 0.2130(3) 0.18828(19)
N10_3 N 0.8899(2) 0.2325(7) 0.0581(4)
C48_3 C 0.8820(3) 0.2378(7) 0.1279(5)
H38_3 H 0.858204 0.262103 0.131289
H40_3 H 0.853024 0.350327 0.005761
C50_3 C 0.9253(3) 0.1759(11) 0.0538(7)
H42_3 H 0.928484 0.176416 0.000966
H43_3 H 0.924785 0.098786 0.071465
H44_3 H 0.945728 0.215670 0.086115
N12_3 N 0.88784(9) 0.3640(3) 0.30969(19)
C4_3 C 0.98871(11) 0.9257(3) 0.4405(3)
H3_3 H 0.981065 0.875376 0.399433
N6_3 N 0.92048(8) 0.9872(3) 0.33968(18)
H23_3 H 0.923801 0.917088 0.353815
O12_3 O 0.87069(7) 0.7744(2) 0.29021(15)
C30_3 C 0.89670(11) 0.7214(3) 0.3288(2)
O13_3 O 0.92420(9) 0.7612(2) 0.3713(2)
C31_3 C 0.89367(11) 0.5951(3) 0.3228(2)
C32_3 C 0.91465(15) 0.5257(4) 0.3762(3)
H26_3 H 0.931579 0.556406 0.418153
C33_3 C 0.91085(15) 0.4113(4) 0.3684(3)
H27_3 H 0.925104 0.364679 0.405993
C34_3 C 0.86679(14) 0.4324(4) 0.2615(3)
H28_3 H 0.849194 0.400330 0.221260
C35_3 C 0.86874(14) 0.5468(4) 0.2659(3)
H29_3 H 0.852832 0.591477 0.229653
O14_3 O 0.84797(7) 0.9692(2) 0.38980(15)
H30_3 H 0.807410 0.966131 0.492581
H31_3 H 0.800350 0.986150 0.616737
N13_2 N 0.84341(8) 0.9155(3) 0.15386(18)
O10_4 O 0.10738(7) 0.0171(2) 0.22092(14)
C26_4 C 0.05826(10) 0.0655(3) 0.1246(2)
O11_4 O 0.06300(7) 0.1670(2) 0.14111(16)
C27_4 C 0.02776(10) 0.0294(3) 0.0606(2)
C28_4 C 0.01634(11) 0.1048(3) 0.0016(2)
H24_4 H 0.027330 0.176420 0.003115
Co4_4 Co 0.11485(2) 0.18796(4) 0.20837(3)
C36_4 C 0.14501(10) 0.0633(3) 0.0800(2)
O15_4 O 0.13497(7) 0.1504(2) 0.10877(15)
O16_4 O 0.16729(7) 0.2135(2) 0.27030(15)
C42_4 C 0.19407(10) 0.1582(3) 0.2591(2)
O17_4 O 0.19500(7) 0.0564(2) 0.24512(15)
C43_4 C 0.22990(10) 0.2206(3) 0.2638(2)
C44_4 C 0.23729(10) 0.3166(3) 0.3076(2)
H34_4 H 0.219944 0.345219 0.334601
C45_4 C 0.27040(10) 0.3691(3) 0.3109(2)
H35_4 H 0.275887 0.433098 0.342438
C46_4 C 0.28757(11) 0.2437(3) 0.2293(2)
H36_4 H 0.304847 0.219454 0.200720
C47_4 C 0.25575(11) 0.1831(3) 0.2246(2)
H37_4 H 0.251688 0.116876 0.194971
O18_4 O 0.09627(8) 0.2130(3) 0.31172(19)
N10_4 N 0.1101(2) 0.2325(7) 0.4419(4)
C48_4 C 0.1180(3) 0.2378(7) 0.3721(5)
H38_4 H 0.141796 0.262103 0.368711
C49_2 C 0.1413(3) 0.2726(8) 0.5039(5)
H39_2 H 0.134225 0.267063 0.553345
H40_4 H 0.146976 0.350327 0.494239
H41_2 H 0.163001 0.226266 0.504341
C50_4 C 0.0747(3) 0.1759(11) 0.4462(7)
H42_4 H 0.071516 0.176416 0.499034
H43_4 H 0.075215 0.098786 0.428535
H44_4 H 0.054272 0.215670 0.413885
N12_4 N 0.11216(9) 0.3640(3) 0.19031(19)
C37_4 C 0.14949(10) 0.0722(3) 0.9979(2)
C38_4 C 0.17651(13) 0.0133(4) 0.9733(3)
C39_4 C 0.17996(13) 0.0236(4) 0.8987(3)
C40_4 C 0.13076(12) 0.1391(4) 0.8712(2)
H32_4 H 0.114201 0.183223 0.835775
C41_4 C 0.12626(13) 0.1361(4) 0.9453(3)
H33_4 H 0.107245 0.177879 0.959956
C4_4 C 0.01129(11) 0.9257(3) 0.0595(3)
H3_4 H 0.018935 0.875376 0.100567
N6_4 N 0.07952(8) 0.9872(3) 0.16032(18)
H23_4 H 0.076199 0.917088 0.146185
O12_4 O 0.12931(7) 0.7744(2) 0.20979(15)
C30_4 C 0.10330(11) 0.7214(3) 0.1712(2)
O13_4 O 0.07580(9) 0.7612(2) 0.1287(2)
C31_4 C 0.10633(11) 0.5951(3) 0.1772(2)
C32_4 C 0.08535(15) 0.5257(4) 0.1238(3)
H26_4 H 0.068421 0.556406 0.081847
C33_4 C 0.08915(15) 0.4113(4) 0.1316(3)
H27_4 H 0.074896 0.364679 0.094007
C34_4 C 0.13321(14) 0.4324(4) 0.2385(3)
H28_4 H 0.150806 0.400330 0.278740
C35_4 C 0.13126(14) 0.5468(4) 0.2341(3)
H29_4 H 0.147168 0.591477 0.270347
O14_4 O 0.15203(7) 0.9692(2) 0.11020(15)
H30_4 H 0.192590 0.966131 0.007419
N1_4 N 0.92048(8) 0.0128(3) 0.83968(18)
H1_4 H 0.923801 0.082912 0.853815
O3_4 O 0.87069(7) 0.2256(2) 0.79021(15)
C5_4 C 0.89670(11) 0.2786(3) 0.8288(2)
O4_4 O 0.92420(9) 0.2388(2) 0.8713(2)
C6_4 C 0.89367(11) 0.4049(3) 0.8228(2)
C7_4 C 0.91465(15) 0.4743(4) 0.8762(3)
H4_4 H 0.931579 0.443594 0.918153
C8_4 C 0.91085(15) 0.5887(4) 0.8684(3)
H5_4 H 0.925104 0.635321 0.905993
N2_4 N 0.88784(9) 0.6360(3) 0.80969(19)
C9_4 C 0.86679(14) 0.5676(4) 0.7615(3)
H6_4 H 0.849194 0.599670 0.721260
C10_4 C 0.86874(14) 0.4532(4) 0.7659(3)
H7_4 H 0.852832 0.408523 0.729653
O5_4 O 0.84797(7) 0.0308(2) 0.88980(15)
H8_4 H 0.807410 0.033869 0.992581
C29_4 C 0.98871(11) 0.0743(3) 0.9405(3)
H25_4 H 0.981065 0.124624 0.899433
Co9_4 Co 0.88515(2) 0.81204(4) 0.79163(3)
C12_4 C 0.85051(10) 0.9278(3) 0.0021(2)
C13_4 C 0.82349(13) 0.9867(4) 0.0267(3)
C14_4 C 0.82004(13) 0.9764(4) 0.1013(3)
C15_4 C 0.86924(12) 0.8609(4) 0.1288(2)
H10_4 H 0.885799 0.816777 0.164225
C16_4 C 0.87374(13) 0.8639(4) 0.0547(3)
H11_4 H 0.892755 0.822121 0.040044
O1_4 O 0.89262(7) 0.9829(2) 0.77908(14)
C1_4 C 0.94174(10) 0.9345(3) 0.8754(2)
O2_4 O 0.93700(7) 0.8330(2) 0.85889(16)
C2_4 C 0.97224(10) 0.9706(3) 0.9394(2)
C3_4 C 0.98366(11) 0.8952(3) 0.9984(2)
H2_4 H 0.972670 0.823580 0.996885
C11_4 C 0.85499(10) 0.9367(3) 0.9200(2)
O6_4 O 0.86503(7) 0.8496(2) 0.89123(15)
O7_4 O 0.83271(7) 0.7865(2) 0.72970(15)
C17_4 C 0.80593(10) 0.8418(3) 0.7409(2)
O8_4 O 0.80500(7) 0.9436(2) 0.75488(15)
C18_4 C 0.77010(10) 0.7794(3) 0.7362(2)
C19_4 C 0.76271(10) 0.6834(3) 0.6924(2)
H12_4 H 0.780056 0.654781 0.665399
C20_4 C 0.72960(10) 0.6309(3) 0.6891(2)
H13_4 H 0.724113 0.566902 0.657562
C21_4 C 0.71243(11) 0.7563(3) 0.7707(2)
H14_4 H 0.695153 0.780546 0.799280
C22_4 C 0.74425(11) 0.8169(3) 0.7754(2)
H15_4 H 0.748312 0.883124 0.805029
O9_4 O 0.90373(8) 0.7870(3) 0.68828(19)
N5_4 N 0.8899(2) 0.7675(7) 0.5581(4)
C23_4 C 0.8820(3) 0.7622(7) 0.6279(5)
H16_4 H 0.858204 0.737897 0.631289
C24_2 C 0.8587(3) 0.7274(8) 0.4961(5)
H17_2 H 0.865775 0.732937 0.446655
H18_4 H 0.853024 0.649673 0.505761
H19_2 H 0.836999 0.773734 0.495659
C25_4 C 0.9253(3) 0.8241(11) 0.5538(7)
H20_4 H 0.928484 0.823584 0.500966
H21_4 H 0.924785 0.901214 0.571465
H22_4 H 0.945728 0.784330 0.586115
C24_3 C 0.6413(3) 0.2274(8) 0.0039(5)
H17_3 H 0.634225 0.232937 0.053345
H19_3 H 0.663001 0.273734 0.004341
C49_3 C 0.3587(3) 0.7726(8) 0.9961(5)
H39_3 H 0.365775 0.767063 0.946655
H41_3 H 0.336999 0.726266 0.995659
C24_4 C 0.1413(3) 0.7274(8) 0.0039(5)
H17_4 H 0.134225 0.732937 0.053345
H19_4 H 0.163001 0.773734 0.004341
C49_4 C 0.8587(3) 0.2726(8) 0.9961(5)
H39_4 H 0.865775 0.267063 0.946655
H41_4 H 0.836999 0.226266 0.995659
H31_4 H 0.199650 0.986150 0.883263
H9_4 H 0.800350 0.013850 0.116737
loop_
_geom_bond_atom_site_label_1
_geom_bond_atom_site_label_2
_geom_bond_site_symmetry_1
_geom_bond_site_symmetry_2
H5 C8 1_555 1_555
N2 C8 1_555 1_555
C9 N2 1_555 1_555
H6 C9 1_555 1_555
Co9 N2 1_555 1_555
Co1 O1 1_555 1_555
Co9 O1 1_555 1_555
O1 N1 1_555 1_555
N1 H1 1_555 1_555
C1 N1 1_555 1_555
O2 Co9 1_555 1_555
C2 C1 1_555 1_555
C3 C2 1_555 1_555
H2 C3 1_555 1_555
C4 C3 1_555 1_555
H3 C4 1_555 1_555
O3 Co1 1_555 1_555
C5 O3 1_555 1_555
O4 C5 1_555 1_555
C6 C5 1_555 1_555
C7 C6 1_555 1_555
H4 C7 1_555 1_555
C10 C6 1_555 1_555
H7 C10 1_555 1_555
O5 Co1 1_555 1_555
C11 O5 1_555 1_555
O6 Co9 1_555 1_555
C12 C11 1_555 1_555
C13 C12 1_555 1_555
H8 C13 1_555 1_555
C14 C13 1_555 1_555
H9 C14 1_555 1_555
N3 C14 1_555 1_555
C15 N3 1_555 1_555
H10 C15 1_555 1_555
C16 C12 1_555 1_555
H11 C16 1_555 1_555
O7 Co9 1_555 1_555
C17 O7 1_555 1_555
O8 Co1 1_555 1_555
C18 C17 1_555 1_555
C19 C18 1_555 1_555
H12 C19 1_555 1_555
C20 C19 1_555 1_555
H13 C20 1_555 1_555
N4 C20 1_555 1_555
C21 N4 1_555 1_555
H14 C21 1_555 1_555
C22 C18 1_555 1_555
H15 C22 1_555 1_555
O9 Co9 1_555 1_555
N5 C23 1_555 1_555
C23 O9 1_555 1_555
H16 C23 1_555 1_555
C25 N5 1_555 1_555
H20 C25 1_555 1_555
H21 C25 1_555 1_555
H22 C25 1_555 1_555
O10 N6 1_555 1_555
N6 H23 1_555 1_555
C26 N6 1_555 1_555
O11 C26 1_555 1_555
C27 C4 1_555 1_555
C28 C27 1_555 1_555
H24 C28 1_555 1_555
C29 C2 1_555 1_555
H25 C29 1_555 1_555
Co3 O10 1_555 1_555
Co4 O10 1_555 1_555
O12 Co3 1_555 1_555
C30 O12 1_555 1_555
O13 C30 1_555 1_555
C31 C30 1_555 1_555
C32 C31 1_555 1_555
H26 C32 1_555 1_555
C35 C31 1_555 1_555
H29 C35 1_555 1_555
O14 Co3 1_555 1_555
C36 O14 1_555 1_555
O15 Co4 1_555 1_555
C37 C36 1_555 1_555
C38 C37 1_555 1_555
H30 C38 1_555 1_555
C39 C38 1_555 1_555
H31 C39 1_555 1_555
N8 C39 1_555 1_555
C40 N8 1_555 1_555
H32 C40 1_555 1_555
C41 C37 1_555 1_555
H33 C41 1_555 1_555
O16 Co4 1_555 1_555
C42 O16 1_555 1_555
O17 Co3 1_555 1_555
C43 C42 1_555 1_555
C44 C43 1_555 1_555
H34 C44 1_555 1_555
C45 C44 1_555 1_555
H35 C45 1_555 1_555
N9 C45 1_555 1_555
C46 N9 1_555 1_555
H36 C46 1_555 1_555
C47 C43 1_555 1_555
H37 C47 1_555 1_555
O18 Co4 1_555 1_555
N10 C48 1_555 1_555
C48 O18 1_555 1_555
H38 C48 1_555 1_555
C50 N10 1_555 1_555
H42 C50 1_555 1_555
H43 C50 1_555 1_555
H44 C50 1_555 1_555
Co5 N8 1_555 1_555
Co6 N4 1_555 1_555
Co7 N3 1_555 1_555
Co8 N9 1_555 1_555
N12 Co4 1_555 1_555
N13 Co3 1_555 1_555
N14 Co1 1_555 1_555
N15 Co1 1_555 1_555
N16 Co3 1_555 1_555
C1 O2 1_555 1_555
C11 O6 1_555 1_555
C15 C16 1_555 1_555
C17 O8 1_555 1_555
C21 C22 1_555 1_555
C26 C27 1_555 1_555
O11 Co4 1_555 1_555
C28 C29 1_555 1_555
C36 O15 1_555 1_555
C40 C41 1_555 1_555
C42 O17 1_555 1_555
C46 C47 1_555 1_555
H27 C33 1_555 1_555
N12 C33 1_555 1_555
C34 N12 1_555 1_555
H28 C34 1_555 1_555
H5_2 C8_2 1_555 1_555
N2_2 C8_2 1_555 1_555
C9_2 N2_2 1_555 1_555
H6_2 C9_2 1_555 1_555
Co9_2 N2_2 1_555 1_555
H3_2 C4_2 1_555 1_555
C13_2 C12_2 1_555 1_555
C14_2 C13_2 1_555 1_555
H9_2 C14_2 1_555 1_555
N13 C14_2 1_555 1_555
C15_2 N13 1_555 1_555
H10_2 C15_2 1_555 1_555
C16_2 C12_2 1_555 1_555
H11_2 C16_2 1_555 1_555
O10_2 N6_2 1_555 1_555
N6_2 H23_2 1_555 1_555
C26_2 N6_2 1_555 1_555
O11_2 C26_2 1_555 1_555
C27_2 C4_2 1_555 1_555
C28_2 C27_2 1_555 1_555
H24_2 C28_2 1_555 1_555
Co7 O10_2 1_555 1_555
Co4_2 O10_2 1_555 1_555
O12_2 Co7 1_555 1_555
C30_2 O12_2 1_555 1_555
O13_2 C30_2 1_555 1_555
C31_2 C30_2 1_555 1_555
C32_2 C31_2 1_555 1_555
H26_2 C32_2 1_555 1_555
C35_2 C31_2 1_555 1_555
H29_2 C35_2 1_555 1_555
O14_2 Co7 1_555 1_555
C36_2 O14_2 1_555 1_555
O15_2 Co4_2 1_555 1_555
O16_2 Co4_2 1_555 1_555
C42_2 O16_2 1_555 1_555
O17_2 Co7 1_555 1_555
C43_2 C42_2 1_555 1_555
C44_2 C43_2 1_555 1_555
H34_2 C44_2 1_555 1_555
C45_2 C44_2 1_555 1_555
H35_2 C45_2 1_555 1_555
N9_2 C45_2 1_555 1_555
C46_2 N9_2 1_555 1_555
H36_2 C46_2 1_555 1_555
C47_2 C43_2 1_555 1_555
H37_2 C47_2 1_555 1_555
O18_2 Co4_2 1_555 1_555
N10_2 C48_2 1_555 1_555
C48_2 O18_2 1_555 1_555
H38_2 C48_2 1_555 1_555
C49 N10_2 1_555 1_555
H39 C49 1_555 1_555
H40_2 C49 1_555 1_555
H41 C49 1_555 1_555
C50_2 N10_2 1_555 1_555
H42_2 C50_2 1_555 1_555
H43_2 C50_2 1_555 1_555
H44_2 C50_2 1_555 1_555
Co8_2 N9_2 1_555 1_555
N12_2 Co4_2 1_555 1_555
N16_2 Co7 1_555 1_555
C15_2 C16_2 1_555 1_555
C26_2 C27_2 1_555 1_555
O11_2 Co4_2 1_555 1_555
C36_2 O15_2 1_555 1_555
C42_2 O17_2 1_555 1_555
C46_2 C47_2 1_555 1_555
Co5 O1_2 1_555 1_555
Co9_2 O1_2 1_555 1_555
O1_2 N1_2 1_555 1_555
N1_2 H1_2 1_555 1_555
C1_2 N1_2 1_555 1_555
O2_2 Co9_2 1_555 1_555
C2_2 C1_2 1_555 1_555
C3_2 C2_2 1_555 1_555
H2_2 C3_2 1_555 1_555
O3_2 Co5 1_555 1_555
C5_2 O3_2 1_555 1_555
O4_2 C5_2 1_555 1_555
C6_2 C5_2 1_555 1_555
C7_2 C6_2 1_555 1_555
H4_2 C7_2 1_555 1_555
C10_2 C6_2 1_555 1_555
H7_2 C10_2 1_555 1_555
O5_2 Co5 1_555 1_555
C11_2 O5_2 1_555 1_555
O6_2 Co9_2 1_555 1_555
O7_2 Co9_2 1_555 1_555
C17_2 O7_2 1_555 1_555
O8_2 Co5 1_555 1_555
C18_2 C17_2 1_555 1_555
C19_2 C18_2 1_555 1_555
H12_2 C19_2 1_555 1_555
C20_2 C19_2 1_555 1_555
H13_2 C20_2 1_555 1_555
N4_2 C20_2 1_555 1_555
C21_2 N4_2 1_555 1_555
H14_2 C21_2 1_555 1_555
C22_2 C18_2 1_555 1_555
H15_2 C22_2 1_555 1_555
O9_2 Co9_2 1_555 1_555
N5_2 C23_2 1_555 1_555
C23_2 O9_2 1_555 1_555
H16_2 C23_2 1_555 1_555
C24 N5_2 1_555 1_555
H17 C24 1_555 1_555
H18_2 C24 1_555 1_555
H19 C24 1_555 1_555
C25_2 N5_2 1_555 1_555
H20_2 C25_2 1_555 1_555
H21_2 C25_2 1_555 1_555
H22_2 C25_2 1_555 1_555
C29_2 C2_2 1_555 1_555
H25_2 C29_2 1_555 1_555
C38_2 C37_2 1_555 1_555
C39_2 C38_2 1_555 1_555
H31_2 C39_2 1_555 1_555
N14 C39_2 1_555 1_555
C40_2 N14 1_555 1_555
H32_2 C40_2 1_555 1_555
C41_2 C37_2 1_555 1_555
H33_2 C41_2 1_555 1_555
Co6_2 N4_2 1_555 1_555
N15_2 Co5 1_555 1_555
C1_2 O2_2 1_555 1_555
C11_2 O6_2 1_555 1_555
C17_2 O8_2 1_555 1_555
C21_2 C22_2 1_555 1_555
C40_2 C41_2 1_555 1_555
H27_2 C33_2 1_555 1_555
N12_2 C33_2 1_555 1_555
C34_2 N12_2 1_555 1_555
H28_2 C34_2 1_555 1_555
N1_3 H1_3 1_555 1_555
O3_3 Co6_2 1_555 1_555
C5_3 O3_3 1_555 1_555
O4_3 C5_3 1_555 1_555
C6_3 C5_3 1_555 1_555
C7_3 C6_3 1_555 1_555
H4_3 C7_3 1_555 1_555
C8_3 C7_3 1_555 1_555
H5_3 C8_3 1_555 1_555
N2_3 C8_3 1_555 1_555
C9_3 N2_3 1_555 1_555
H6_3 C9_3 1_555 1_555
C10_3 C6_3 1_555 1_555
H7_3 C10_3 1_555 1_555
O5_3 Co6_2 1_555 1_555
H25_3 C29_3 1_555 1_555
Co9_3 N2_3 1_555 1_555
N14_2 Co6_2 1_555 1_555
C9_3 C10_3 1_555 1_555
Co9_3 O1_3 1_555 1_555
O2_3 Co9_3 1_555 1_555
C2_3 C1_3 1_555 1_555
C3_3 C2_3 1_555 1_555
H2_3 C3_3 1_555 1_555
O6_3 Co9_3 1_555 1_555
C12_3 C11_3 1_555 1_555
C13_3 C12_3 1_555 1_555
C14_3 C13_3 1_555 1_555
N3_2 C14_3 1_555 1_555
C15_3 N3_2 1_555 1_555
H10_3 C15_3 1_555 1_555
C16_3 C12_3 1_555 1_555
H11_3 C16_3 1_555 1_555
O7_3 Co9_3 1_555 1_555
C17_3 O7_3 1_555 1_555
C18_3 C17_3 1_555 1_555
C19_3 C18_3 1_555 1_555
H12_3 C19_3 1_555 1_555
C20_3 C19_3 1_555 1_555
H13_3 C20_3 1_555 1_555
N15_2 C20_3 1_555 1_555
C21_3 N15_2 1_555 1_555
H14_3 C21_3 1_555 1_555
C22_3 C18_3 1_555 1_555
H15_3 C22_3 1_555 1_555
O9_3 Co9_3 1_555 1_555
N5_3 C23_3 1_555 1_555
C23_3 O9_3 1_555 1_555
H16_3 C23_3 1_555 1_555
C25_3 N5_3 1_555 1_555
H20_3 C25_3 1_555 1_555
H21_3 C25_3 1_555 1_555
H22_3 C25_3 1_555 1_555
Co8 N3_2 1_555 1_555
C1_3 O2_3 1_555 1_555
C11_3 O6_3 1_555 1_555
C15_3 C16_3 1_555 1_555
C17_3 O8_3 1_555 1_555
C21_3 C22_3 1_555 1_555
O11_3 C26_3 1_555 1_555
C28_3 C27_3 1_555 1_555
H24_3 C28_3 1_555 1_555
Co4_3 O10_3 1_555 1_555
O15_3 Co4_3 1_555 1_555
C37_3 C36_3 1_555 1_555
C38_3 C37_3 1_555 1_555
C39_3 C38_3 1_555 1_555
N8_2 C39_3 1_555 1_555
C40_3 N8_2 1_555 1_555
H32_3 C40_3 1_555 1_555
C41_3 C37_3 1_555 1_555
H33_3 C41_3 1_555 1_555
O16_3 Co4_3 1_555 1_555
C42_3 O16_3 1_555 1_555
C43_3 C42_3 1_555 1_555
C44_3 C43_3 1_555 1_555
H34_3 C44_3 1_555 1_555
C45_3 C44_3 1_555 1_555
H35_3 C45_3 1_555 1_555
N16_2 C45_3 1_555 1_555
C46_3 N16_2 1_555 1_555
H36_3 C46_3 1_555 1_555
C47_3 C43_3 1_555 1_555
H37_3 C47_3 1_555 1_555
O18_3 Co4_3 1_555 1_555
N10_3 C48_3 1_555 1_555
C48_3 O18_3 1_555 1_555
H38_3 C48_3 1_555 1_555
C50_3 N10_3 1_555 1_555
H42_3 C50_3 1_555 1_555
H43_3 C50_3 1_555 1_555
H44_3 C50_3 1_555 1_555
Co6 N8_2 1_555 1_555
N12_3 Co4_3 1_555 1_555
C26_3 C27_3 1_555 1_555
O11_3 Co4_3 1_555 1_555
C36_3 O15_3 1_555 1_555
C40_3 C41_3 1_555 1_555
C42_3 O17_3 1_555 1_555
C46_3 C47_3 1_555 1_555
H3_3 C4_3 1_555 1_555
N6_3 H23_3 1_555 1_555
O12_3 Co8_2 1_555 1_555
C30_3 O12_3 1_555 1_555
O13_3 C30_3 1_555 1_555
C31_3 C30_3 1_555 1_555
C32_3 C31_3 1_555 1_555
H26_3 C32_3 1_555 1_555
C33_3 C32_3 1_555 1_555
H27_3 C33_3 1_555 1_555
N12_3 C33_3 1_555 1_555
C34_3 N12_3 1_555 1_555
H28_3 C34_3 1_555 1_555
C35_3 C31_3 1_555 1_555
H29_3 C35_3 1_555 1_555
O14_3 Co8_2 1_555 1_555
N13_2 Co8_2 1_555 1_555
C34_3 C35_3 1_555 1_555
O11_4 C26_4 1_555 1_555
C28_4 C27_4 1_555 1_555
H24_4 C28_4 1_555 1_555
Co4_4 O10_4 1_555 1_555
O15_4 Co4_4 1_555 1_555
O16_4 Co4_4 1_555 1_555
C42_4 O16_4 1_555 1_555
C43_4 C42_4 1_555 1_555
C44_4 C43_4 1_555 1_555
H34_4 C44_4 1_555 1_555
C45_4 C44_4 1_555 1_555
H35_4 C45_4 1_555 1_555
N16 C45_4 1_555 1_555
C46_4 N16 1_555 1_555
H36_4 C46_4 1_555 1_555
C47_4 C43_4 1_555 1_555
H37_4 C47_4 1_555 1_555
O18_4 Co4_4 1_555 1_555
N10_4 C48_4 1_555 1_555
C48_4 O18_4 1_555 1_555
H38_4 C48_4 1_555 1_555
C49_2 N10_4 1_555 1_555
H39_2 C49_2 1_555 1_555
H40_4 C49_2 1_555 1_555
H41_2 C49_2 1_555 1_555
C50_4 N10_4 1_555 1_555
H42_4 C50_4 1_555 1_555
H43_4 C50_4 1_555 1_555
H44_4 C50_4 1_555 1_555
N12_4 Co4_4 1_555 1_555
C26_4 C27_4 1_555 1_555
O11_4 Co4_4 1_555 1_555
C36_4 O15_4 1_555 1_555
C42_4 O17_4 1_555 1_555
C46_4 C47_4 1_555 1_555
C38_4 C37_4 1_555 1_555
C39_4 C38_4 1_555 1_555
N14_2 C39_4 1_555 1_555
C40_4 N14_2 1_555 1_555
H32_4 C40_4 1_555 1_555
C41_4 C37_4 1_555 1_555
H33_4 C41_4 1_555 1_555
C40_4 C41_4 1_555 1_555
H3_4 C4_4 1_555 1_555
N6_4 H23_4 1_555 1_555
O12_4 Co8 1_555 1_555
C30_4 O12_4 1_555 1_555
O13_4 C30_4 1_555 1_555
C31_4 C30_4 1_555 1_555
C32_4 C31_4 1_555 1_555
H26_4 C32_4 1_555 1_555
C33_4 C32_4 1_555 1_555
H27_4 C33_4 1_555 1_555
N12_4 C33_4 1_555 1_555
C34_4 N12_4 1_555 1_555
H28_4 C34_4 1_555 1_555
C35_4 C31_4 1_555 1_555
H29_4 C35_4 1_555 1_555
O14_4 Co8 1_555 1_555
C34_4 C35_4 1_555 1_555
N1_4 H1_4 1_555 1_555
O3_4 Co6 1_555 1_555
C5_4 O3_4 1_555 1_555
O4_4 C5_4 1_555 1_555
C6_4 C5_4 1_555 1_555
C7_4 C6_4 1_555 1_555
H4_4 C7_4 1_555 1_555
C8_4 C7_4 1_555 1_555
H5_4 C8_4 1_555 1_555
N2_4 C8_4 1_555 1_555
C9_4 N2_4 1_555 1_555
H6_4 C9_4 1_555 1_555
C10_4 C6_4 1_555 1_555
H7_4 C10_4 1_555 1_555
O5_4 Co6 1_555 1_555
H25_4 C29_4 1_555 1_555
Co9_4 N2_4 1_555 1_555
C9_4 C10_4 1_555 1_555
C13_4 C12_4 1_555 1_555
C14_4 C13_4 1_555 1_555
N13_2 C14_4 1_555 1_555
C15_4 N13_2 1_555 1_555
H10_4 C15_4 1_555 1_555
C16_4 C12_4 1_555 1_555
H11_4 C16_4 1_555 1_555
C15_4 C16_4 1_555 1_555
Co9_4 O1_4 1_555 1_555
O2_4 Co9_4 1_555 1_555
C2_4 C1_4 1_555 1_555
C3_4 C2_4 1_555 1_555
H2_4 C3_4 1_555 1_555
O6_4 Co9_4 1_555 1_555
O7_4 Co9_4 1_555 1_555
C17_4 O7_4 1_555 1_555
C18_4 C17_4 1_555 1_555
C19_4 C18_4 1_555 1_555
H12_4 C19_4 1_555 1_555
C20_4 C19_4 1_555 1_555
H13_4 C20_4 1_555 1_555
N15 C20_4 1_555 1_555
C21_4 N15 1_555 1_555
H14_4 C21_4 1_555 1_555
C22_4 C18_4 1_555 1_555
H15_4 C22_4 1_555 1_555
O9_4 Co9_4 1_555 1_555
N5_4 C23_4 1_555 1_555
C23_4 O9_4 1_555 1_555
H16_4 C23_4 1_555 1_555
C24_2 N5_4 1_555 1_555
H17_2 C24_2 1_555 1_555
H18_4 C24_2 1_555 1_555
H19_2 C24_2 1_555 1_555
C25_4 N5_4 1_555 1_555
H20_4 C25_4 1_555 1_555
H21_4 C25_4 1_555 1_555
H22_4 C25_4 1_555 1_555
C1_4 O2_4 1_555 1_555
C11_4 O6_4 1_555 1_555
C17_4 O8_4 1_555 1_555
C21_4 C22_4 1_555 1_555
H17_3 C24_3 1_555 1_555
H19_3 C24_3 1_555 1_555
H39_3 C49_3 1_555 1_555
H41_3 C49_3 1_555 1_555
H17_4 C24_4 1_555 1_555
H19_4 C24_4 1_555 1_555
H39_4 C49_4 1_555 1_555
H41_4 C49_4 1_555 1_555

#END
