
###############################################################################
#
# This file contains modified crystal structure data generated from the
# MOF subset of the Cambridge Structural Database (CSD) v543 
# hosted by the Cambridge Crystallographic Data Centre (CCDC).
#
# This work is licensed under the Creative Commons
# Attribution-NonCommercial-ShareAlike 4.0 International License.
# To view a copy of this license, visit
# http://creativecommons.org/licenses/by-nc-sa/4.0/
# or send a letter to
# Creative Commons, PO Box 1866, Mountain View, CA 94042, USA.
#
# CIF created using the CSD Python API on 29 September 2022
# The structure has been converted into the P1 space group
# The structure has a 3D framework
# The original CSD entry PURSOK is in the triclinic crystal system
# The framework has been calculated to contain at least 10.0% void space
# The void calculation uses a probe of radius 1.32A, grid spacing 0.4
#
###############################################################################

data_PURSOK
_chemical_formula_moiety         '(C28 H24 O16 Zn3)n'
_symmetry_cell_setting           triclinic
_symmetry_space_group_name_H-M   'P 1'
_symmetry_Int_Tables_number      1
_space_group_name_Hall           'P 1'
loop_
_symmetry_equiv_pos_site_id
_symmetry_equiv_pos_as_xyz
1 x,y,z
_cell_length_a                   9.726(4)
_cell_length_b                   9.911(5)
_cell_length_c                   10.450(5)
_cell_angle_alpha                99.72(4)
_cell_angle_beta                 111.11(4)
_cell_angle_gamma                108.42(4)
_cell_volume                     844.895
loop_
_atom_site_label
_atom_site_type_symbol
_atom_site_fract_x
_atom_site_fract_y
_atom_site_fract_z
C15 C 0.0171(11) 0.1125(9) 0.6093(10)
C16 C 0.1004(11) 0.0315(9) 0.4342(10)
C21 C 0.1190(11) 0.1452(9) 0.5451(9)
H13 H 0.0271(11) 0.1878(9) 0.6830(10)
H14 H 0.1674(11) 0.0520(9) 0.3887(10)
C24 C 0.2463(11) 0.3015(10) 0.5912(9)
O12 O 0.3317(7) 0.3267(6) 0.5259(7)
O13 O 0.2583(8) 0.3964(6) 0.6973(7)
Zn3 Zn 0.5000 0.5000 0.5000
Zn4 Zn 0.4272(1) 0.6026(1) 0.7893(1)
O1 O 0.6683(7) 0.6733(6) 0.4741(7)
O2 O 0.7417(8) 0.6036(6) 0.3027(7)
C1 C 0.7537(11) 0.6985(10) 0.4088(9)
C2 C 0.8810(11) 0.8548(9) 0.4549(9)
C3 C 0.8996(11) 0.9685(9) 0.5658(10)
C4 C 0.9829(11) 0.8875(9) 0.3907(10)
O3 O 0.3082(7) 0.4758(7) 0.3146(6)
O4 O 0.3821(8) 0.4590(7) 0.1351(7)
C5 C 0.2872(11) 0.4725(9) 0.1894(9)
C6 C 0.1379(10) 0.4857(9) 0.0905(9)
C8 C 0.0421(11) 0.5291(10) 0.1459(9)
O5 O 0.5444(8) 0.3310(6) 0.3785(7)
O6 O 0.4030(11) 0.1335(8) 0.1842(7)
C9 C 0.4725(13) 0.1885(10) 0.3187(10)
C10 C 0.4838(12) 0.0900(10) 0.4125(10)
C11 C 0.5865(11) 0.1535(10) 0.5586(9)
O8 O 0.7529(10) 0.3106(9) 0.2402(8)
C14 C 0.8551(17) 0.2994(18) 0.3669(13)
H1 H 0.8326(11) 0.9480(9) 0.6113(10)
H2 H 0.9729(11) 0.8122(9) 0.3170(10)
H4 H 0.0692(11) 0.5474(10) 0.2440(9)
H5 H 0.6457(11) 0.2569(10) 0.5986(9)
H10 H 0.8423(82) 0.1971(25) 0.3528(34)
H11 H 0.8289(78) 0.331(10) 0.4437(27)
H12 H 0.9650(19) 0.3622(82) 0.3918(56)
Zn2 Zn 0.5728(1) 0.3974(1) 0.2107(1)
C19 C 0.6011(12) 0.0632(10) 0.6453(9)
O10 O 0.6918(7) 0.5242(7) 0.6854(6)
O11 O 0.4556(8) 0.6690(6) 0.6215(7)
H17 H 0.6692(12) 0.1064(10) 0.7440(9)
C12 C 0.3989(12) 0.9368(10) 0.3547(9)
H6 H 0.3308(12) 0.8936(10) 0.2560(9)
C20 C 0.4135(11) 0.8465(10) 0.4414(9)
C23 C 0.5162(12) 0.9100(10) 0.5875(10)
H18 H 0.3543(11) 0.7431(10) 0.4014(9)
C26 C 0.5275(13) 0.8115(10) 0.6813(10)
O17 O 0.5970(11) 0.8665(8) 0.8158(7)
O19 O 0.6179(8) 0.5410(7) 0.8649(7)
O21 O 0.2471(10) 0.6894(9) 0.7598(8)
C28 C 0.1449(17) 0.7006(18) 0.6331(13)
H22 H 0.1577(82) 0.8029(25) 0.6472(34)
H23 H 0.1711(78) 0.669(10) 0.5563(27)
H24 H 0.0350(19) 0.6378(82) 0.6082(56)
C17 C 0.9579(11) 0.4709(10) 0.8541(9)
C22 C 0.8621(10) 0.5143(9) 0.9095(9)
H15 H 0.9308(11) 0.4526(10) 0.7560(9)
C25 C 0.7128(11) 0.5275(9) 0.8106(9)
C7 C 0.0918(11) 0.4550(10) 0.9426(9)
O7 O 0.5387(8) 0.3376(7) 0.9983(7)
C13 C 0.4272(18) 0.1977(13) 0.8946(12)
H3 H 0.1524(11) 0.4233(10) 0.9032(9)
H7 H 0.4820(25) 0.1518(47) 0.8541(72)
H8 H 0.3457(64) 0.2113(17) 0.8191(53)
H9 H 0.3775(84) 0.1342(38) 0.9396(25)
O20 O 0.4613(8) 0.6624(7) 0.0017(7)
C27 C 0.5728(18) 0.8023(13) 0.1054(12)
H19 H 0.5180(25) 0.8482(47) 0.1459(72)
H20 H 0.6543(64) 0.7887(17) 0.1809(53)
H21 H 0.6225(84) 0.8658(38) 0.0604(25)
C18 C 0.9082(11) 0.5450(10) 0.0574(9)
H16 H 0.8476(11) 0.5767(10) 0.0968(9)
loop_
_geom_bond_atom_site_label_1
_geom_bond_atom_site_label_2
_geom_bond_site_symmetry_1
_geom_bond_site_symmetry_2
C21 C15 1_555 1_555
H13 C15 1_555 1_555
H14 C16 1_555 1_555
C24 C21 1_555 1_555
O12 C24 1_555 1_555
O13 C24 1_555 1_555
Zn3 O12 1_555 1_555
Zn4 O13 1_555 1_555
C16 C21 1_555 1_555
O1 C1 1_555 1_555
O2 C1 1_555 1_555
C1 C2 1_555 1_555
C2 C3 1_555 1_555
C3 H1 1_555 1_555
C4 C2 1_555 1_555
O3 C5 1_555 1_555
O4 C5 1_555 1_555
C5 C6 1_555 1_555
C8 C6 1_555 1_555
O5 C9 1_555 1_555
O6 C9 1_555 1_555
C9 C10 1_555 1_555
C10 C11 1_555 1_555
C11 H5 1_555 1_555
O8 C14 1_555 1_555
C14 H10 1_555 1_555
H2 C4 1_555 1_555
H4 C8 1_555 1_555
H11 C14 1_555 1_555
H12 C14 1_555 1_555
Zn3 O1 1_555 1_555
Zn2 O2 1_555 1_555
C19 C11 1_555 1_555
O10 Zn3 1_555 1_555
O11 Zn3 1_555 1_555
H17 C19 1_555 1_555
O3 Zn3 1_555 1_555
O4 Zn2 1_555 1_555
O5 Zn3 1_555 1_555
O5 Zn2 1_555 1_555
O8 Zn2 1_555 1_555
H6 C12 1_555 1_555
C20 C12 1_555 1_555
H18 C20 1_555 1_555
C26 C23 1_555 1_555
O11 C26 1_555 1_555
O17 C26 1_555 1_555
Zn4 O11 1_555 1_555
O19 Zn4 1_555 1_555
O21 Zn4 1_555 1_555
C28 O21 1_555 1_555
H22 C28 1_555 1_555
H23 C28 1_555 1_555
H24 C28 1_555 1_555
C20 C23 1_555 1_555
C22 C17 1_555 1_555
H15 C17 1_555 1_555
C25 C22 1_555 1_555
O10 C25 1_555 1_555
O19 C25 1_555 1_555
C7 H3 1_555 1_555
O7 C13 1_555 1_555
C13 H7 1_555 1_555
H8 C13 1_555 1_555
H9 C13 1_555 1_555
C27 O20 1_555 1_555
H19 C27 1_555 1_555
H20 C27 1_555 1_555
H21 C27 1_555 1_555
H16 C18 1_555 1_555

#END
