
###############################################################################
#
# This file contains modified crystal structure data generated from the
# MOF subset of the Cambridge Structural Database (CSD) v543 
# hosted by the Cambridge Crystallographic Data Centre (CCDC).
#
# This work is licensed under the Creative Commons
# Attribution-NonCommercial-ShareAlike 4.0 International License.
# To view a copy of this license, visit
# http://creativecommons.org/licenses/by-nc-sa/4.0/
# or send a letter to
# Creative Commons, PO Box 1866, Mountain View, CA 94042, USA.
#
# CIF created using the CSD Python API on 29 September 2022
# The structure has been converted into the P1 space group
# The structure has a 3D framework
# The original CSD entry PUSDOX is in the monoclinic crystal system
# The framework has been calculated to contain at least 10.0% void space
# The void calculation uses a probe of radius 1.32A, grid spacing 0.4
#
###############################################################################

data_PUSDOX
_chemical_formula_moiety         '(C320 H192 N16 O72 Zn16)n'
_symmetry_cell_setting           triclinic
_symmetry_space_group_name_H-M   'P 1'
_symmetry_Int_Tables_number      1
_space_group_name_Hall           'P 1'
loop_
_symmetry_equiv_pos_site_id
_symmetry_equiv_pos_as_xyz
1 x,y,z
_cell_length_a                   21.536(4)
_cell_length_b                   18.048(4)
_cell_length_c                   26.298(5)
_cell_angle_alpha                90
_cell_angle_beta                 104.55(3)
_cell_angle_gamma                90
_cell_volume                     9893.73
loop_
_atom_site_label
_atom_site_type_symbol
_atom_site_fract_x
_atom_site_fract_y
_atom_site_fract_z
C31 C 0.08892(18) 0.0767(2) 0.12161(16)
H17 H 0.084 0.0906 0.1545
C32 C 0.14081(18) 0.0339(2) 0.11919(16)
H18 H 0.1696 0.0182 0.1499
C33 C 0.15005(17) 0.0141(2) 0.07053(14)
C34 C 0.1043(2) 0.0370(2) 0.02674(15)
C35 C 0.05285(19) 0.0783(3) 0.03259(15)
H20 H 0.022 0.0921 0.0025
N1 N 0.04484(13) 0.09956(17) 0.07861(11)
O11 O 0.00757(11) 0.23940(14) 0.12328(10)
C36 C 0.30800(17) 0.9146(2) 0.10561(15)
H21 H 0.344 0.9121 0.1338
C37 C 0.25997(17) 0.9631(2) 0.10831(15)
H22 H 0.264 0.9935 0.1375
C38 C 0.20509(16) 0.9665(2) 0.06696(14)
C39 C 0.20339(17) 0.9227(2) 0.02325(14)
C40 C 0.25359(16) 0.8757(2) 0.02331(14)
N2 N 0.30526(13) 0.87081(16) 0.06436(11)
Zn6 Zn 0.375250(18) 0.79685(2) 0.067060(15)
H3 H 0.6309 0.0121 0.148
C8 C 0.84768(16) 0.2075(2) 0.13764(15)
C9 C 0.81664(16) 0.1462(2) 0.16022(14)
C10 C 0.78926(16) 0.0859(2) 0.12963(14)
H5 H 0.7916 0.0825 0.0949
C11 C 0.75868(16) 0.0311(2) 0.15083(14)
C12 C 0.75599(16) 0.0347(2) 0.20298(14)
C13 C 0.78389(16) 0.0950(2) 0.23391(14)
H7 H 0.7825 0.098 0.2689
C14 C 0.81325(17) 0.1497(2) 0.21229(15)
H8 H 0.8313 0.19 0.2328
C23 C 0.93514(16) 0.0429(2) 0.13713(14)
H16 H 0.9328 0.0376 0.2371
O3 O 0.86063(11) 0.19609(14) 0.09222(10)
O4 O 0.85754(12) 0.26804(14) 0.15992(10)
O8 O 0.91856(11) 0.03965(14) 0.08790(9)
O9 O 0.96411(11) 0.09960(13) 0.16048(9)
Zn1 Zn 0.960250(18) 0.15082(2) 0.086920(15)
Zn2 Zn 0.875250(18) 0.29685(2) 0.067060(15)
N3 N 0.80526(13) 0.37081(16) 0.06436(11)
O12 O 0.95703(11) 0.34560(14) 0.09384(10)
O13 O 0.93435(11) 0.17659(14) 0.00972(9)
O14 O 0.86267(11) 0.26961(14) 0.99275(9)
C1 C 0.50503(17) 0.8087(2) 0.11924(14)
C2 C 0.56362(17) 0.8521(2) 0.14669(15)
C3 C 0.60954(19) 0.8192(2) 0.18573(18)
H1 H 0.6046 0.77 0.1945
C4 C 0.6632(2) 0.8582(2) 0.21231(18)
H2 H 0.6933 0.8359 0.2397
C5 C 0.67201(17) 0.9307(2) 0.19801(15)
C6 C 0.62530(18) 0.9637(2) 0.15803(16)
C7 C 0.57049(17) 0.9248(2) 0.13300(15)
H4 H 0.5387 0.9476 0.1072
H6 H 0.7398 0.9915 0.13
C15 C 0.72875(17) 0.9725(2) 0.22824(15)
C16 C 0.89486(16) 0.7815(2) 0.47885(14)
C17 C 0.88491(17) 0.79253(19) 0.42098(14)
C18 C 0.93268(17) 0.8222(2) 0.40017(14)
H9 H 0.9712 0.8374 0.4225
C19 C 0.92334(18) 0.8293(2) 0.34655(15)
H10 H 0.9559 0.8484 0.3329
C20 C 0.8650(2) 0.8077(2) 0.31257(15)
C21 C 0.8173(2) 0.7789(2) 0.33399(16)
H11 H 0.7781 0.7652 0.3119
C22 C 0.82724(18) 0.7703(2) 0.38735(14)
H12 H 0.7953 0.7496 0.401
C24 C 0.91973(16) 0.9804(2) 0.16918(14)
C25 C 0.90156(19) 0.9114(2) 0.14611(15)
H13 H 0.9029 0.9027 0.1115
C26 C 0.8817(2) 0.8565(2) 0.17464(15)
H14 H 0.8692 0.8109 0.159
C27 C 0.88019(18) 0.8683(2) 0.22662(15)
C28 C 0.89955(17) 0.9369(2) 0.24987(14)
H15 H 0.899 0.9453 0.2847
C29 C 0.91947(17) 0.9922(2) 0.22135(14)
C30 C 0.8527(2) 0.8104(2) 0.25464(16)
O1 O 0.50757(11) 0.73940(14) 0.12328(10)
O2 O 0.45703(11) 0.84560(14) 0.09384(10)
O5 O 0.75417(13) 0.95542(16) 0.27383(11)
O6 O 0.93435(11) 0.82341(14) 0.50972(9)
O7 O 0.86267(11) 0.73039(14) 0.49275(9)
O10 O 0.81629(18) 0.7631(2) 0.22842(12)
Zn3 Zn 0.460250(18) 0.65082(2) 0.086920(15)
Zn4 Zn 0.960250(18) 0.84918(2) 0.586920(15)
Zn7 Zn 0.875250(18) 0.70315(2) 0.567060(15)
C1_2 C 0.00503(17) 0.3087(2) 0.11924(14)
C2_2 C 0.06362(17) 0.3521(2) 0.14669(15)
C3_2 C 0.10954(19) 0.3192(2) 0.18573(18)
H1_2 H 0.1046 0.27 0.1945
C4_2 C 0.1632(2) 0.3582(2) 0.21231(18)
H2_2 H 0.1933 0.3359 0.2397
C5_2 C 0.17201(17) 0.4307(2) 0.19801(15)
C6_2 C 0.12530(18) 0.4637(2) 0.15803(16)
H3_2 H 0.1309 0.5121 0.148
C7_2 C 0.07049(17) 0.4248(2) 0.13300(15)
H4_2 H 0.0387 0.4476 0.1072
C8_2 C 0.34768(16) 0.7075(2) 0.13764(15)
C9_2 C 0.31664(16) 0.6462(2) 0.16022(14)
C10_2 C 0.28926(16) 0.5859(2) 0.12963(14)
H5_2 H 0.2916 0.5825 0.0949
C11_2 C 0.25868(16) 0.5311(2) 0.15083(14)
H6_2 H 0.2398 0.4915 0.13
C12_2 C 0.25599(16) 0.5347(2) 0.20298(14)
C13_2 C 0.28389(16) 0.5950(2) 0.23391(14)
H7_2 H 0.2825 0.598 0.2689
C14_2 C 0.31325(17) 0.6497(2) 0.21229(15)
H8_2 H 0.3313 0.69 0.2328
C15_2 C 0.22875(17) 0.4725(2) 0.22824(15)
C16_2 C 0.39486(16) 0.2815(2) 0.47885(14)
C17_2 C 0.38491(17) 0.29253(19) 0.42098(14)
C18_2 C 0.43268(17) 0.3222(2) 0.40017(14)
H9_2 H 0.4712 0.3374 0.4225
C19_2 C 0.42334(18) 0.3293(2) 0.34655(15)
H10_2 H 0.4559 0.3484 0.3329
C20_2 C 0.3650(2) 0.3077(2) 0.31257(15)
C21_2 C 0.3173(2) 0.2789(2) 0.33399(16)
H11_2 H 0.2781 0.2652 0.3119
C22_2 C 0.32724(18) 0.2703(2) 0.38735(14)
H12_2 H 0.2953 0.2496 0.401
C23_2 C 0.43514(16) 0.5429(2) 0.13713(14)
C24_2 C 0.41973(16) 0.4804(2) 0.16918(14)
C25_2 C 0.40156(19) 0.4114(2) 0.14611(15)
H13_2 H 0.4029 0.4027 0.1115
C26_2 C 0.3817(2) 0.3565(2) 0.17464(15)
H14_2 H 0.3692 0.3109 0.159
C27_2 C 0.38019(18) 0.3683(2) 0.22662(15)
C28_2 C 0.39955(17) 0.4369(2) 0.24987(14)
H15_2 H 0.399 0.4453 0.2847
C29_2 C 0.41947(17) 0.4922(2) 0.22135(14)
H16_2 H 0.4328 0.5376 0.2371
C30_2 C 0.3527(2) 0.3104(2) 0.25464(16)
C31_2 C 0.58892(18) 0.5767(2) 0.12161(16)
H17_2 H 0.584 0.5906 0.1545
C32_2 C 0.64081(18) 0.5339(2) 0.11919(16)
H18_2 H 0.6696 0.5182 0.1499
C33_2 C 0.65005(17) 0.5141(2) 0.07053(14)
C34_2 C 0.6043(2) 0.5370(2) 0.02674(15)
C35_2 C 0.55285(19) 0.5783(3) 0.03259(15)
H20_2 H 0.522 0.5921 0.0025
C36_2 C 0.80800(17) 0.4146(2) 0.10561(15)
H21_2 H 0.844 0.4121 0.1338
C37_2 C 0.75997(17) 0.4631(2) 0.10831(15)
H22_2 H 0.764 0.4935 0.1375
C38_2 C 0.70509(16) 0.4665(2) 0.06696(14)
C39_2 C 0.70339(17) 0.4227(2) 0.02325(14)
C40_2 C 0.75359(16) 0.3757(2) 0.02331(14)
N1_2 N 0.54484(13) 0.59956(17) 0.07861(11)
O3_2 O 0.36063(11) 0.69609(14) 0.09222(10)
O4_2 O 0.35754(12) 0.76804(14) 0.15992(10)
O5_2 O 0.25417(13) 0.45542(16) 0.27383(11)
O6_2 O 0.43435(11) 0.32341(14) 0.50972(9)
O7_2 O 0.36267(11) 0.23039(14) 0.49275(9)
O8_2 O 0.41856(11) 0.53965(14) 0.08790(9)
O9_2 O 0.46411(11) 0.59960(13) 0.16048(9)
O10_2 O 0.31629(18) 0.2631(2) 0.22842(12)
O13_2 O 0.43435(11) 0.67659(14) 0.00972(9)
Zn4_2 Zn 0.460250(18) 0.34918(2) 0.586920(15)
Zn7_2 Zn 0.375250(18) 0.20315(2) 0.567060(15)
H19 H 0.6082 0.5245 0.9933
H23 H 0.6685 0.4252 0.9941
H24 H 0.7518 0.3463 0.9939
O14_2 O 0.36267(11) 0.76961(14) 0.99275(9)
C36_3 C 0.30800(17) 0.0854(2) 0.60561(15)
H21_3 H 0.344 0.0879 0.6338
C37_3 C 0.25997(17) 0.0369(2) 0.60831(15)
H22_3 H 0.264 0.0065 0.6375
C38_3 C 0.20509(16) 0.0335(2) 0.56696(14)
C39_3 C 0.20339(17) 0.0773(2) 0.52325(14)
H23_2 H 0.1685 0.0748 0.4941
C40_3 C 0.25359(16) 0.1243(2) 0.52331(14)
H24_2 H 0.2518 0.1537 0.4939
N2_2 N 0.30526(13) 0.12919(16) 0.56436(11)
C31_3 C 0.08892(18) 0.9233(2) 0.62161(16)
H17_3 H 0.084 0.9094 0.6545
C32_3 C 0.14081(18) 0.9661(2) 0.61919(16)
H18_3 H 0.1696 0.9818 0.6499
C33_3 C 0.15005(17) 0.9859(2) 0.57053(14)
C34_3 C 0.1043(2) 0.9630(2) 0.52674(15)
H19_2 H 0.1082 0.9755 0.4933
C35_3 C 0.05285(19) 0.9217(3) 0.53259(15)
H20_3 H 0.022 0.9079 0.5025
N1_3 N 0.04484(13) 0.90044(17) 0.57861(11)
O11_2 O 0.00757(11) 0.76060(14) 0.62328(10)
C1_3 C 0.50503(17) 0.1913(2) 0.61924(14)
C2_3 C 0.56362(17) 0.1479(2) 0.64669(15)
C3_3 C 0.60954(19) 0.1808(2) 0.68573(18)
H1_3 H 0.6046 0.23 0.6945
C4_3 C 0.6632(2) 0.1418(2) 0.71231(18)
H2_3 H 0.6933 0.1641 0.7397
C5_3 C 0.67201(17) 0.0693(2) 0.69801(15)
C6_3 C 0.62530(18) 0.0363(2) 0.65803(16)
C7_3 C 0.57049(17) 0.0752(2) 0.63300(15)
H4_3 H 0.5387 0.0524 0.6072
H6_3 H 0.7398 0.0085 0.63
C15_3 C 0.72875(17) 0.0275(2) 0.72824(15)
C16_3 C 0.89486(16) 0.2185(2) 0.97885(14)
C17_3 C 0.88491(17) 0.20747(19) 0.92098(14)
C18_3 C 0.93268(17) 0.1778(2) 0.90017(14)
H9_3 H 0.9712 0.1626 0.9225
C19_3 C 0.92334(18) 0.1707(2) 0.84655(15)
H10_3 H 0.9559 0.1516 0.8329
C20_3 C 0.8650(2) 0.1923(2) 0.81257(15)
C21_3 C 0.8173(2) 0.2211(2) 0.83399(16)
H11_3 H 0.7781 0.2348 0.8119
C22_3 C 0.82724(18) 0.2297(2) 0.88735(14)
H12_3 H 0.7953 0.2504 0.901
C24_3 C 0.91973(16) 0.0196(2) 0.66918(14)
C25_3 C 0.90156(19) 0.0886(2) 0.64611(15)
H13_3 H 0.9029 0.0973 0.6115
C26_3 C 0.8817(2) 0.1435(2) 0.67464(15)
H14_3 H 0.8692 0.1891 0.659
C27_3 C 0.88019(18) 0.1317(2) 0.72662(15)
C28_3 C 0.89955(17) 0.0631(2) 0.74987(14)
H15_3 H 0.899 0.0547 0.7847
C29_3 C 0.91947(17) 0.0078(2) 0.72135(14)
C30_3 C 0.8527(2) 0.1896(2) 0.75464(16)
O1_2 O 0.50757(11) 0.26060(14) 0.62328(10)
O2_2 O 0.45703(11) 0.15440(14) 0.59384(10)
O5_3 O 0.75417(13) 0.04458(16) 0.77383(11)
O10_3 O 0.81629(18) 0.2369(2) 0.72842(12)
H3_3 H 0.6309 0.9879 0.648
C8_3 C 0.84768(16) 0.7925(2) 0.63764(15)
C9_3 C 0.81664(16) 0.8538(2) 0.66022(14)
C10_3 C 0.78926(16) 0.9141(2) 0.62963(14)
H5_3 H 0.7916 0.9175 0.5949
C11_3 C 0.75868(16) 0.9689(2) 0.65083(14)
C12_3 C 0.75599(16) 0.9653(2) 0.70298(14)
C13_3 C 0.78389(16) 0.9050(2) 0.73391(14)
H7_3 H 0.7825 0.902 0.7689
C14_3 C 0.81325(17) 0.8503(2) 0.71229(15)
H8_3 H 0.8313 0.81 0.7328
C23_3 C 0.93514(16) 0.9571(2) 0.63713(14)
H16_3 H 0.9328 0.9624 0.7371
O3_3 O 0.86063(11) 0.80391(14) 0.59222(10)
O4_3 O 0.85754(12) 0.73196(14) 0.65992(10)
O8_3 O 0.91856(11) 0.96035(14) 0.58790(9)
O9_3 O 0.96411(11) 0.90040(13) 0.66048(9)
N3_2 N 0.80526(13) 0.62919(16) 0.56436(11)
O12_2 O 0.95703(11) 0.65440(14) 0.59384(10)
C1_4 C 0.00503(17) 0.6913(2) 0.61924(14)
C2_4 C 0.06362(17) 0.6479(2) 0.64669(15)
C3_4 C 0.10954(19) 0.6808(2) 0.68573(18)
H1_4 H 0.1046 0.73 0.6945
C4_4 C 0.1632(2) 0.6418(2) 0.71231(18)
H2_4 H 0.1933 0.6641 0.7397
C5_4 C 0.17201(17) 0.5693(2) 0.69801(15)
C6_4 C 0.12530(18) 0.5363(2) 0.65803(16)
H3_4 H 0.1309 0.4879 0.648
C7_4 C 0.07049(17) 0.5752(2) 0.63300(15)
H4_4 H 0.0387 0.5524 0.6072
C8_4 C 0.34768(16) 0.2925(2) 0.63764(15)
C9_4 C 0.31664(16) 0.3538(2) 0.66022(14)
C10_4 C 0.28926(16) 0.4141(2) 0.62963(14)
H5_4 H 0.2916 0.4175 0.5949
C11_4 C 0.25868(16) 0.4689(2) 0.65083(14)
H6_4 H 0.2398 0.5085 0.63
C12_4 C 0.25599(16) 0.4653(2) 0.70298(14)
C13_4 C 0.28389(16) 0.4050(2) 0.73391(14)
H7_4 H 0.2825 0.402 0.7689
C14_4 C 0.31325(17) 0.3503(2) 0.71229(15)
H8_4 H 0.3313 0.31 0.7328
C15_4 C 0.22875(17) 0.5275(2) 0.72824(15)
C16_4 C 0.39486(16) 0.7185(2) 0.97885(14)
C17_4 C 0.38491(17) 0.70747(19) 0.92098(14)
C18_4 C 0.43268(17) 0.6778(2) 0.90017(14)
H9_4 H 0.4712 0.6626 0.9225
C19_4 C 0.42334(18) 0.6707(2) 0.84655(15)
H10_4 H 0.4559 0.6516 0.8329
C20_4 C 0.3650(2) 0.6923(2) 0.81257(15)
C21_4 C 0.3173(2) 0.7211(2) 0.83399(16)
H11_4 H 0.2781 0.7348 0.8119
C22_4 C 0.32724(18) 0.7297(2) 0.88735(14)
H12_4 H 0.2953 0.7504 0.901
C23_4 C 0.43514(16) 0.4571(2) 0.63713(14)
C24_4 C 0.41973(16) 0.5196(2) 0.66918(14)
C25_4 C 0.40156(19) 0.5886(2) 0.64611(15)
H13_4 H 0.4029 0.5973 0.6115
C26_4 C 0.3817(2) 0.6435(2) 0.67464(15)
H14_4 H 0.3692 0.6891 0.659
C27_4 C 0.38019(18) 0.6317(2) 0.72662(15)
C28_4 C 0.39955(17) 0.5631(2) 0.74987(14)
H15_4 H 0.399 0.5547 0.7847
C29_4 C 0.41947(17) 0.5078(2) 0.72135(14)
H16_4 H 0.4328 0.4624 0.7371
C30_4 C 0.3527(2) 0.6896(2) 0.75464(16)
C31_4 C 0.58892(18) 0.4233(2) 0.62161(16)
H17_4 H 0.584 0.4094 0.6545
C32_4 C 0.64081(18) 0.4661(2) 0.61919(16)
H18_4 H 0.6696 0.4818 0.6499
C33_4 C 0.65005(17) 0.4859(2) 0.57053(14)
C34_4 C 0.6043(2) 0.4630(2) 0.52674(15)
H19_3 H 0.6082 0.4755 0.4933
C35_4 C 0.55285(19) 0.4217(3) 0.53259(15)
H20_4 H 0.522 0.4079 0.5025
C36_4 C 0.80800(17) 0.5854(2) 0.60561(15)
H21_4 H 0.844 0.5879 0.6338
C37_4 C 0.75997(17) 0.5369(2) 0.60831(15)
H22_4 H 0.764 0.5065 0.6375
C38_4 C 0.70509(16) 0.5335(2) 0.56696(14)
C39_4 C 0.70339(17) 0.5773(2) 0.52325(14)
H23_3 H 0.6685 0.5748 0.4941
C40_4 C 0.75359(16) 0.6243(2) 0.52331(14)
H24_3 H 0.7518 0.6537 0.4939
N1_4 N 0.54484(13) 0.40044(17) 0.57861(11)
O3_4 O 0.36063(11) 0.30391(14) 0.59222(10)
O4_4 O 0.35754(12) 0.23196(14) 0.65992(10)
O5_4 O 0.25417(13) 0.54458(16) 0.77383(11)
O8_4 O 0.41856(11) 0.46035(14) 0.58790(9)
O9_4 O 0.46411(11) 0.40040(13) 0.66048(9)
O10_4 O 0.31629(18) 0.7369(2) 0.72842(12)
H19_4 H 0.1082 0.0245 0.9933
H23_4 H 0.1685 0.9252 0.9941
H24_4 H 0.2518 0.8463 0.9939
H3_5 H 0.3691 0.0121 0.352
C8_5 C 0.15232(16) 0.2075(2) 0.36236(15)
C9_5 C 0.18336(16) 0.1462(2) 0.33978(14)
C10_5 C 0.21074(16) 0.0859(2) 0.37037(14)
H5_5 H 0.2084 0.0825 0.4051
C11_5 C 0.24132(16) 0.0311(2) 0.34917(14)
C12_5 C 0.24401(16) 0.0347(2) 0.29702(14)
C13_5 C 0.21611(16) 0.0950(2) 0.26609(14)
H7_5 H 0.2175 0.098 0.2311
C14_5 C 0.18675(17) 0.1497(2) 0.28771(15)
H8_5 H 0.1687 0.19 0.2672
C23_5 C 0.06486(16) 0.0429(2) 0.36287(14)
H16_5 H 0.0672 0.0376 0.2629
O3_5 O 0.13937(11) 0.19609(14) 0.40778(10)
O4_5 O 0.14246(12) 0.26804(14) 0.34008(10)
O8_5 O 0.08144(11) 0.03965(14) 0.41210(9)
O9_5 O 0.03589(11) 0.09960(13) 0.33952(9)
Zn1_2 Zn 0.039750(18) 0.15082(2) 0.413080(15)
Zn2_2 Zn 0.124750(18) 0.29685(2) 0.432940(15)
N3_3 N 0.19474(13) 0.37081(16) 0.43564(11)
O12_3 O 0.04297(11) 0.34560(14) 0.40616(10)
O13_3 O 0.06565(11) 0.17659(14) 0.49028(9)
O14_3 O 0.13733(11) 0.26961(14) 0.50725(9)
C1_5 C 0.49497(17) 0.8087(2) 0.38076(14)
C2_5 C 0.43638(17) 0.8521(2) 0.35331(15)
C3_5 C 0.39046(19) 0.8192(2) 0.31427(18)
H1_5 H 0.3954 0.77 0.3055
C4_5 C 0.3368(2) 0.8582(2) 0.28769(18)
H2_5 H 0.3067 0.8359 0.2603
C5_5 C 0.32799(17) 0.9307(2) 0.30199(15)
C6_5 C 0.37470(18) 0.9637(2) 0.34197(16)
C7_5 C 0.42951(17) 0.9248(2) 0.36700(15)
H4_5 H 0.4613 0.9476 0.3928
H6_5 H 0.2602 0.9915 0.37
C15_5 C 0.27125(17) 0.9725(2) 0.27176(15)
C16_5 C 0.10514(16) 0.7815(2) 0.02115(14)
C17_5 C 0.11509(17) 0.79253(19) 0.07902(14)
C18_5 C 0.06732(17) 0.8222(2) 0.09983(14)
H9_5 H 0.0288 0.8374 0.0775
C19_5 C 0.07666(18) 0.8293(2) 0.15345(15)
H10_5 H 0.0441 0.8484 0.1671
C20_5 C 0.1350(2) 0.8077(2) 0.18743(15)
C21_5 C 0.1827(2) 0.7789(2) 0.16601(16)
H11_5 H 0.2219 0.7652 0.1881
C22_5 C 0.17276(18) 0.7703(2) 0.11265(14)
H12_5 H 0.2047 0.7496 0.099
C24_5 C 0.08027(16) 0.9804(2) 0.33082(14)
C25_5 C 0.09844(19) 0.9114(2) 0.35389(15)
H13_5 H 0.0971 0.9027 0.3885
C26_5 C 0.1183(2) 0.8565(2) 0.32536(15)
H14_5 H 0.1308 0.8109 0.341
C27_5 C 0.11981(18) 0.8683(2) 0.27338(15)
C28_5 C 0.10045(17) 0.9369(2) 0.25013(14)
H15_5 H 0.101 0.9453 0.2153
C29_5 C 0.08053(17) 0.9922(2) 0.27865(14)
C30_5 C 0.1473(2) 0.8104(2) 0.24536(16)
O1_3 O 0.49243(11) 0.73940(14) 0.37672(10)
O2_3 O 0.54297(11) 0.84560(14) 0.40616(10)
O5_5 O 0.24583(13) 0.95542(16) 0.22617(11)
O7_3 O 0.13733(11) 0.73039(14) 0.00725(9)
O10_5 O 0.18371(18) 0.7631(2) 0.27158(12)
Zn3_2 Zn 0.539750(18) 0.65082(2) 0.413080(15)
Zn5 Zn 0.624750(18) 0.79685(2) 0.432940(15)
O6_3 O 0.06565(11) 0.82341(14) 0.99028(9)
Zn4_3 Zn 0.039750(18) 0.84918(2) 0.913080(15)
Zn7_3 Zn 0.124750(18) 0.70315(2) 0.932940(15)
C31_5 C 0.91108(18) 0.0767(2) 0.37839(16)
H17_5 H 0.916 0.0906 0.3455
C32_5 C 0.85919(18) 0.0339(2) 0.38081(16)
H18_5 H 0.8304 0.0182 0.3501
C33_5 C 0.84995(17) 0.0141(2) 0.42947(14)
C34_5 C 0.8957(2) 0.0370(2) 0.47326(15)
H19_5 H 0.8918 0.0245 0.5067
C35_5 C 0.94715(19) 0.0783(3) 0.46741(15)
H20_5 H 0.978 0.0921 0.4975
N1_5 N 0.95516(13) 0.09956(17) 0.42139(11)
O11_3 O 0.99243(11) 0.23940(14) 0.37672(10)
C36_5 C 0.69200(17) 0.9146(2) 0.39439(15)
H21_5 H 0.656 0.9121 0.3662
C37_5 C 0.74003(17) 0.9631(2) 0.39169(15)
H22_5 H 0.736 0.9935 0.3625
C38_5 C 0.79491(16) 0.9665(2) 0.43304(14)
C39_5 C 0.79661(17) 0.9227(2) 0.47675(14)
H23_5 H 0.8315 0.9252 0.5059
C40_5 C 0.74641(16) 0.8757(2) 0.47669(14)
H24_5 H 0.7482 0.8463 0.5061
N2_3 N 0.69474(13) 0.87081(16) 0.43564(11)
C1_6 C 0.99497(17) 0.3087(2) 0.38076(14)
C2_6 C 0.93638(17) 0.3521(2) 0.35331(15)
C3_6 C 0.89046(19) 0.3192(2) 0.31427(18)
H1_6 H 0.8954 0.27 0.3055
C4_6 C 0.8368(2) 0.3582(2) 0.28769(18)
H2_6 H 0.8067 0.3359 0.2603
C5_6 C 0.82799(17) 0.4307(2) 0.30199(15)
C6_6 C 0.87470(18) 0.4637(2) 0.34197(16)
H3_6 H 0.8691 0.5121 0.352
C7_6 C 0.92951(17) 0.4248(2) 0.36700(15)
H4_6 H 0.9613 0.4476 0.3928
C8_6 C 0.65232(16) 0.7075(2) 0.36236(15)
C9_6 C 0.68336(16) 0.6462(2) 0.33978(14)
C10_6 C 0.71074(16) 0.5859(2) 0.37037(14)
H5_6 H 0.7084 0.5825 0.4051
C11_6 C 0.74132(16) 0.5311(2) 0.34917(14)
H6_6 H 0.7602 0.4915 0.37
C12_6 C 0.74401(16) 0.5347(2) 0.29702(14)
C13_6 C 0.71611(16) 0.5950(2) 0.26609(14)
H7_6 H 0.7175 0.598 0.2311
C14_6 C 0.68675(17) 0.6497(2) 0.28771(15)
H8_6 H 0.6687 0.69 0.2672
C15_6 C 0.77125(17) 0.4725(2) 0.27176(15)
C16_6 C 0.60514(16) 0.2815(2) 0.02115(14)
C17_6 C 0.61509(17) 0.29253(19) 0.07902(14)
C18_6 C 0.56732(17) 0.3222(2) 0.09983(14)
H9_6 H 0.5288 0.3374 0.0775
C19_6 C 0.57666(18) 0.3293(2) 0.15345(15)
H10_6 H 0.5441 0.3484 0.1671
C20_6 C 0.6350(2) 0.3077(2) 0.18743(15)
C21_6 C 0.6827(2) 0.2789(2) 0.16601(16)
H11_6 H 0.7219 0.2652 0.1881
C22_6 C 0.67276(18) 0.2703(2) 0.11265(14)
H12_6 H 0.7047 0.2496 0.099
C23_6 C 0.56486(16) 0.5429(2) 0.36287(14)
C24_6 C 0.58027(16) 0.4804(2) 0.33082(14)
C25_6 C 0.59844(19) 0.4114(2) 0.35389(15)
H13_6 H 0.5971 0.4027 0.3885
C26_6 C 0.6183(2) 0.3565(2) 0.32536(15)
H14_6 H 0.6308 0.3109 0.341
C27_6 C 0.61981(18) 0.3683(2) 0.27338(15)
C28_6 C 0.60045(17) 0.4369(2) 0.25013(14)
H15_6 H 0.601 0.4453 0.2153
C29_6 C 0.58053(17) 0.4922(2) 0.27865(14)
H16_6 H 0.5672 0.5376 0.2629
C30_6 C 0.6473(2) 0.3104(2) 0.24536(16)
C31_6 C 0.41108(18) 0.5767(2) 0.37839(16)
H17_6 H 0.416 0.5906 0.3455
C32_6 C 0.35919(18) 0.5339(2) 0.38081(16)
H18_6 H 0.3304 0.5182 0.3501
C33_6 C 0.34995(17) 0.5141(2) 0.42947(14)
C34_6 C 0.3957(2) 0.5370(2) 0.47326(15)
H19_6 H 0.3918 0.5245 0.5067
C35_6 C 0.44715(19) 0.5783(3) 0.46741(15)
H20_6 H 0.478 0.5921 0.4975
C36_6 C 0.19200(17) 0.4146(2) 0.39439(15)
H21_6 H 0.156 0.4121 0.3662
C37_6 C 0.24003(17) 0.4631(2) 0.39169(15)
H22_6 H 0.236 0.4935 0.3625
C38_6 C 0.29491(16) 0.4665(2) 0.43304(14)
C39_6 C 0.29661(17) 0.4227(2) 0.47675(14)
H23_6 H 0.3315 0.4252 0.5059
C40_6 C 0.24641(16) 0.3757(2) 0.47669(14)
H24_6 H 0.2482 0.3463 0.5061
N1_6 N 0.45516(13) 0.59956(17) 0.42139(11)
O3_6 O 0.63937(11) 0.69609(14) 0.40778(10)
O4_6 O 0.64246(12) 0.76804(14) 0.34008(10)
O5_6 O 0.74583(13) 0.45542(16) 0.22617(11)
O7_4 O 0.63733(11) 0.23039(14) 0.00725(9)
O8_6 O 0.58144(11) 0.53965(14) 0.41210(9)
O9_6 O 0.53589(11) 0.59960(13) 0.33952(9)
O10_6 O 0.68371(18) 0.2631(2) 0.27158(12)
O13_4 O 0.56565(11) 0.67659(14) 0.49028(9)
O14_4 O 0.63733(11) 0.76961(14) 0.50725(9)
O6_4 O 0.56565(11) 0.32341(14) 0.99028(9)
Zn4_4 Zn 0.539750(18) 0.34918(2) 0.913080(15)
Zn7_4 Zn 0.624750(18) 0.20315(2) 0.932940(15)
C1_7 C 0.49497(17) 0.1913(2) 0.88076(14)
C2_7 C 0.43638(17) 0.1479(2) 0.85331(15)
C3_7 C 0.39046(19) 0.1808(2) 0.81427(18)
H1_7 H 0.3954 0.23 0.8055
C4_7 C 0.3368(2) 0.1418(2) 0.78769(18)
H2_7 H 0.3067 0.1641 0.7603
C5_7 C 0.32799(17) 0.0693(2) 0.80199(15)
C6_7 C 0.37470(18) 0.0363(2) 0.84197(16)
C7_7 C 0.42951(17) 0.0752(2) 0.86700(15)
H4_7 H 0.4613 0.0524 0.8928
H6_7 H 0.2602 0.0085 0.87
C15_7 C 0.27125(17) 0.0275(2) 0.77176(15)
C16_7 C 0.10514(16) 0.2185(2) 0.52115(14)
C17_7 C 0.11509(17) 0.20747(19) 0.57902(14)
C18_7 C 0.06732(17) 0.1778(2) 0.59983(14)
H9_7 H 0.0288 0.1626 0.5775
C19_7 C 0.07666(18) 0.1707(2) 0.65345(15)
H10_7 H 0.0441 0.1516 0.6671
C20_7 C 0.1350(2) 0.1923(2) 0.68743(15)
C21_7 C 0.1827(2) 0.2211(2) 0.66601(16)
H11_7 H 0.2219 0.2348 0.6881
C22_7 C 0.17276(18) 0.2297(2) 0.61265(14)
H12_7 H 0.2047 0.2504 0.599
C24_7 C 0.08027(16) 0.0196(2) 0.83082(14)
C25_7 C 0.09844(19) 0.0886(2) 0.85389(15)
H13_7 H 0.0971 0.0973 0.8885
C26_7 C 0.1183(2) 0.1435(2) 0.82536(15)
H14_7 H 0.1308 0.1891 0.841
C27_7 C 0.11981(18) 0.1317(2) 0.77338(15)
C28_7 C 0.10045(17) 0.0631(2) 0.75013(14)
H15_7 H 0.101 0.0547 0.7153
C29_7 C 0.08053(17) 0.0078(2) 0.77865(14)
C30_7 C 0.1473(2) 0.1896(2) 0.74536(16)
O1_4 O 0.49243(11) 0.26060(14) 0.87672(10)
O2_4 O 0.54297(11) 0.15440(14) 0.90616(10)
O5_7 O 0.24583(13) 0.04458(16) 0.72617(11)
O10_7 O 0.18371(18) 0.2369(2) 0.77158(12)
H3_7 H 0.3691 0.9879 0.852
C8_7 C 0.15232(16) 0.7925(2) 0.86236(15)
C9_7 C 0.18336(16) 0.8538(2) 0.83978(14)
C10_7 C 0.21074(16) 0.9141(2) 0.87037(14)
H5_7 H 0.2084 0.9175 0.9051
C11_7 C 0.24132(16) 0.9689(2) 0.84917(14)
C12_7 C 0.24401(16) 0.9653(2) 0.79702(14)
C13_7 C 0.21611(16) 0.9050(2) 0.76609(14)
H7_7 H 0.2175 0.902 0.7311
C14_7 C 0.18675(17) 0.8503(2) 0.78771(15)
H8_7 H 0.1687 0.81 0.7672
C23_7 C 0.06486(16) 0.9571(2) 0.86287(14)
H16_7 H 0.0672 0.9624 0.7629
O3_7 O 0.13937(11) 0.80391(14) 0.90778(10)
O4_7 O 0.14246(12) 0.73196(14) 0.84008(10)
O8_7 O 0.08144(11) 0.96035(14) 0.91210(9)
O9_7 O 0.03589(11) 0.90040(13) 0.83952(9)
N3_4 N 0.19474(13) 0.62919(16) 0.93564(11)
O12_4 O 0.04297(11) 0.65440(14) 0.90616(10)
C36_7 C 0.69200(17) 0.0854(2) 0.89439(15)
H21_7 H 0.656 0.0879 0.8662
C37_7 C 0.74003(17) 0.0369(2) 0.89169(15)
H22_7 H 0.736 0.0065 0.8625
C38_7 C 0.79491(16) 0.0335(2) 0.93304(14)
C39_7 C 0.79661(17) 0.0773(2) 0.97675(14)
C40_7 C 0.74641(16) 0.1243(2) 0.97669(14)
N2_4 N 0.69474(13) 0.12919(16) 0.93564(11)
C31_7 C 0.91108(18) 0.9233(2) 0.87839(16)
H17_7 H 0.916 0.9094 0.8455
C32_7 C 0.85919(18) 0.9661(2) 0.88081(16)
H18_7 H 0.8304 0.9818 0.8501
C33_7 C 0.84995(17) 0.9859(2) 0.92947(14)
C34_7 C 0.8957(2) 0.9630(2) 0.97326(15)
C35_7 C 0.94715(19) 0.9217(3) 0.96741(15)
H20_7 H 0.978 0.9079 0.9975
N1_7 N 0.95516(13) 0.90044(17) 0.92139(11)
O11_4 O 0.99243(11) 0.76060(14) 0.87672(10)
H19_7 H 0.3918 0.4755 0.0067
H23_7 H 0.3315 0.5748 0.0059
H24_7 H 0.2482 0.6537 0.0061
C1_8 C 0.99497(17) 0.6913(2) 0.88076(14)
C2_8 C 0.93638(17) 0.6479(2) 0.85331(15)
C3_8 C 0.89046(19) 0.6808(2) 0.81427(18)
H1_8 H 0.8954 0.73 0.8055
C4_8 C 0.8368(2) 0.6418(2) 0.78769(18)
H2_8 H 0.8067 0.6641 0.7603
C5_8 C 0.82799(17) 0.5693(2) 0.80199(15)
C6_8 C 0.87470(18) 0.5363(2) 0.84197(16)
H3_8 H 0.8691 0.4879 0.852
C7_8 C 0.92951(17) 0.5752(2) 0.86700(15)
H4_8 H 0.9613 0.5524 0.8928
C8_8 C 0.65232(16) 0.2925(2) 0.86236(15)
C9_8 C 0.68336(16) 0.3538(2) 0.83978(14)
C10_8 C 0.71074(16) 0.4141(2) 0.87037(14)
H5_8 H 0.7084 0.4175 0.9051
C11_8 C 0.74132(16) 0.4689(2) 0.84917(14)
H6_8 H 0.7602 0.5085 0.87
C12_8 C 0.74401(16) 0.4653(2) 0.79702(14)
C13_8 C 0.71611(16) 0.4050(2) 0.76609(14)
H7_8 H 0.7175 0.402 0.7311
C14_8 C 0.68675(17) 0.3503(2) 0.78771(15)
H8_8 H 0.6687 0.31 0.7672
C15_8 C 0.77125(17) 0.5275(2) 0.77176(15)
C16_8 C 0.60514(16) 0.7185(2) 0.52115(14)
C17_8 C 0.61509(17) 0.70747(19) 0.57902(14)
C18_8 C 0.56732(17) 0.6778(2) 0.59983(14)
H9_8 H 0.5288 0.6626 0.5775
C19_8 C 0.57666(18) 0.6707(2) 0.65345(15)
H10_8 H 0.5441 0.6516 0.6671
C20_8 C 0.6350(2) 0.6923(2) 0.68743(15)
C21_8 C 0.6827(2) 0.7211(2) 0.66601(16)
H11_8 H 0.7219 0.7348 0.6881
C22_8 C 0.67276(18) 0.7297(2) 0.61265(14)
H12_8 H 0.7047 0.7504 0.599
C23_8 C 0.56486(16) 0.4571(2) 0.86287(14)
C24_8 C 0.58027(16) 0.5196(2) 0.83082(14)
C25_8 C 0.59844(19) 0.5886(2) 0.85389(15)
H13_8 H 0.5971 0.5973 0.8885
C26_8 C 0.6183(2) 0.6435(2) 0.82536(15)
H14_8 H 0.6308 0.6891 0.841
C27_8 C 0.61981(18) 0.6317(2) 0.77338(15)
C28_8 C 0.60045(17) 0.5631(2) 0.75013(14)
H15_8 H 0.601 0.5547 0.7153
C29_8 C 0.58053(17) 0.5078(2) 0.77865(14)
H16_8 H 0.5672 0.4624 0.7629
C30_8 C 0.6473(2) 0.6896(2) 0.74536(16)
C31_8 C 0.41108(18) 0.4233(2) 0.87839(16)
H17_8 H 0.416 0.4094 0.8455
C32_8 C 0.35919(18) 0.4661(2) 0.88081(16)
H18_8 H 0.3304 0.4818 0.8501
C33_8 C 0.34995(17) 0.4859(2) 0.92947(14)
C34_8 C 0.3957(2) 0.4630(2) 0.97326(15)
C35_8 C 0.44715(19) 0.4217(3) 0.96741(15)
H20_8 H 0.478 0.4079 0.9975
C36_8 C 0.19200(17) 0.5854(2) 0.89439(15)
H21_8 H 0.156 0.5879 0.8662
C37_8 C 0.24003(17) 0.5369(2) 0.89169(15)
H22_8 H 0.236 0.5065 0.8625
C38_8 C 0.29491(16) 0.5335(2) 0.93304(14)
C39_8 C 0.29661(17) 0.5773(2) 0.97675(14)
C40_8 C 0.24641(16) 0.6243(2) 0.97669(14)
N1_8 N 0.45516(13) 0.40044(17) 0.92139(11)
O3_8 O 0.63937(11) 0.30391(14) 0.90778(10)
O4_8 O 0.64246(12) 0.23196(14) 0.84008(10)
O5_8 O 0.74583(13) 0.54458(16) 0.72617(11)
O8_8 O 0.58144(11) 0.46035(14) 0.91210(9)
O9_8 O 0.53589(11) 0.40040(13) 0.83952(9)
O10_8 O 0.68371(18) 0.7369(2) 0.77158(12)
H23_8 H 0.8315 0.0748 0.0059
H24_8 H 0.7482 0.1537 0.0061
H19_8 H 0.8918 0.9755 0.0067
loop_
_geom_bond_atom_site_label_1
_geom_bond_atom_site_label_2
_geom_bond_site_symmetry_1
_geom_bond_site_symmetry_2
C31 H17 1_555 1_555
C32 C31 1_555 1_555
H18 C32 1_555 1_555
C33 C32 1_555 1_555
C34 C33 1_555 1_555
C35 C34 1_555 1_555
H20 C35 1_555 1_555
N1 C31 1_555 1_555
C35 N1 1_555 1_555
C36 H21 1_555 1_555
C37 C36 1_555 1_555
H22 C37 1_555 1_555
C39 C38 1_555 1_555
C40 C39 1_555 1_555
N2 C36 1_555 1_555
Zn6 N2 1_555 1_555
C37 C38 1_555 1_555
C40 N2 1_555 1_555
C8 C9 1_555 1_555
C9 C10 1_555 1_555
C10 H5 1_555 1_555
C11 C10 1_555 1_555
C12 C11 1_555 1_555
C13 C12 1_555 1_555
H7 C13 1_555 1_555
C14 C9 1_555 1_555
H8 C14 1_555 1_555
O3 C8 1_555 1_555
O4 C8 1_555 1_555
O8 C23 1_555 1_555
O9 C23 1_555 1_555
Zn2 O3 1_555 1_555
N3 Zn2 1_555 1_555
O12 Zn2 1_555 1_555
O13 Zn1 1_555 1_555
C13 C14 1_555 1_555
O3 Zn1 1_555 1_555
O8 Zn1 1_555 1_555
O9 Zn1 1_555 1_555
C1 C2 1_555 1_555
C2 C3 1_555 1_555
C3 H1 1_555 1_555
C4 C3 1_555 1_555
H2 C4 1_555 1_555
C5 C4 1_555 1_555
C6 C5 1_555 1_555
C7 C2 1_555 1_555
H4 C7 1_555 1_555
C15 C5 1_555 1_555
C16 C17 1_555 1_555
C17 C18 1_555 1_555
C18 H9 1_555 1_555
C19 C18 1_555 1_555
H10 C19 1_555 1_555
C20 C19 1_555 1_555
C21 C20 1_555 1_555
H11 C21 1_555 1_555
C22 C17 1_555 1_555
H12 C22 1_555 1_555
C24 C25 1_555 1_555
C25 H13 1_555 1_555
C26 C25 1_555 1_555
H14 C26 1_555 1_555
C27 C26 1_555 1_555
C28 C27 1_555 1_555
H15 C28 1_555 1_555
C29 C24 1_555 1_555
C30 C20 1_555 1_555
O1 C1 1_555 1_555
O2 C1 1_555 1_555
O5 C15 1_555 1_555
O6 C16 1_555 1_555
O7 C16 1_555 1_555
O10 C30 1_555 1_555
Zn3 O1 1_555 1_555
Zn4 O6 1_555 1_555
Zn6 O2 1_555 1_555
Zn7 O7 1_555 1_555
C6 C7 1_555 1_555
C21 C22 1_555 1_555
C27 C30 1_555 1_555
C28 C29 1_555 1_555
C1_2 C2_2 1_555 1_555
C2_2 C3_2 1_555 1_555
C3_2 H1_2 1_555 1_555
C4_2 C3_2 1_555 1_555
H2_2 C4_2 1_555 1_555
C5_2 C4_2 1_555 1_555
C6_2 C5_2 1_555 1_555
H3_2 C6_2 1_555 1_555
C7_2 C2_2 1_555 1_555
H4_2 C7_2 1_555 1_555
C8_2 C9_2 1_555 1_555
C9_2 C10_2 1_555 1_555
C10_2 H5_2 1_555 1_555
C11_2 C10_2 1_555 1_555
H6_2 C11_2 1_555 1_555
C12_2 C11_2 1_555 1_555
C13_2 C12_2 1_555 1_555
H7_2 C13_2 1_555 1_555
C14_2 C9_2 1_555 1_555
H8_2 C14_2 1_555 1_555
C15_2 C5_2 1_555 1_555
C16_2 C17_2 1_555 1_555
C17_2 C18_2 1_555 1_555
C18_2 H9_2 1_555 1_555
C19_2 C18_2 1_555 1_555
H10_2 C19_2 1_555 1_555
C20_2 C19_2 1_555 1_555
C21_2 C20_2 1_555 1_555
H11_2 C21_2 1_555 1_555
C22_2 C17_2 1_555 1_555
H12_2 C22_2 1_555 1_555
C23_2 C24_2 1_555 1_555
C24_2 C25_2 1_555 1_555
C25_2 H13_2 1_555 1_555
C26_2 C25_2 1_555 1_555
H14_2 C26_2 1_555 1_555
C27_2 C26_2 1_555 1_555
C28_2 C27_2 1_555 1_555
H15_2 C28_2 1_555 1_555
C29_2 C24_2 1_555 1_555
H16_2 C29_2 1_555 1_555
C30_2 C20_2 1_555 1_555
C31_2 H17_2 1_555 1_555
C32_2 C31_2 1_555 1_555
H18_2 C32_2 1_555 1_555
C33_2 C32_2 1_555 1_555
C34_2 C33_2 1_555 1_555
C35_2 C34_2 1_555 1_555
H20_2 C35_2 1_555 1_555
C36_2 H21_2 1_555 1_555
C37_2 C36_2 1_555 1_555
H22_2 C37_2 1_555 1_555
C38_2 C33_2 1_555 1_555
C39_2 C38_2 1_555 1_555
C40_2 C39_2 1_555 1_555
N1_2 C31_2 1_555 1_555
N3 C36_2 1_555 1_555
O11 C1_2 1_555 1_555
O3_2 C8_2 1_555 1_555
O4_2 C8_2 1_555 1_555
O5_2 C15_2 1_555 1_555
O6_2 C16_2 1_555 1_555
O7_2 C16_2 1_555 1_555
O8_2 C23_2 1_555 1_555
O9_2 C23_2 1_555 1_555
O10_2 C30_2 1_555 1_555
Zn3 N1_2 1_555 1_555
Zn6 O3_2 1_555 1_555
O13_2 Zn3 1_555 1_555
Zn4_2 O6_2 1_555 1_555
Zn7_2 O7_2 1_555 1_555
C6_2 C7_2 1_555 1_555
C12_2 C15_2 1_555 1_555
C13_2 C14_2 1_555 1_555
C21_2 C22_2 1_555 1_555
C27_2 C30_2 1_555 1_555
C28_2 C29_2 1_555 1_555
C35_2 N1_2 1_555 1_555
C37_2 C38_2 1_555 1_555
C40_2 N3 1_555 1_555
O3_2 Zn3 1_555 1_555
O8_2 Zn3 1_555 1_555
O9_2 Zn3 1_555 1_555
C36_3 H21_3 1_555 1_555
C37_3 C36_3 1_555 1_555
H22_3 C37_3 1_555 1_555
C39_3 C38_3 1_555 1_555
H23_2 C39_3 1_555 1_555
C40_3 C39_3 1_555 1_555
H24_2 C40_3 1_555 1_555
N2_2 C36_3 1_555 1_555
Zn7_2 N2_2 1_555 1_555
C37_3 C38_3 1_555 1_555
C40_3 N2_2 1_555 1_555
C31_3 H17_3 1_555 1_555
C32_3 C31_3 1_555 1_555
H18_3 C32_3 1_555 1_555
C33_3 C32_3 1_555 1_555
C34_3 C33_3 1_555 1_555
H19_2 C34_3 1_555 1_555
C35_3 C34_3 1_555 1_555
H20_3 C35_3 1_555 1_555
N1_3 C31_3 1_555 1_555
C35_3 N1_3 1_555 1_555
C1_3 C2_3 1_555 1_555
C2_3 C3_3 1_555 1_555
C3_3 H1_3 1_555 1_555
C4_3 C3_3 1_555 1_555
H2_3 C4_3 1_555 1_555
C5_3 C4_3 1_555 1_555
C6_3 C5_3 1_555 1_555
C7_3 C2_3 1_555 1_555
H4_3 C7_3 1_555 1_555
C15_3 C5_3 1_555 1_555
C16_3 C17_3 1_555 1_555
C17_3 C18_3 1_555 1_555
C18_3 H9_3 1_555 1_555
C19_3 C18_3 1_555 1_555
H10_3 C19_3 1_555 1_555
C20_3 C19_3 1_555 1_555
C21_3 C20_3 1_555 1_555
H11_3 C21_3 1_555 1_555
C22_3 C17_3 1_555 1_555
H12_3 C22_3 1_555 1_555
C24_3 C25_3 1_555 1_555
C25_3 H13_3 1_555 1_555
C26_3 C25_3 1_555 1_555
H14_3 C26_3 1_555 1_555
C27_3 C26_3 1_555 1_555
C28_3 C27_3 1_555 1_555
H15_3 C28_3 1_555 1_555
C29_3 C24_3 1_555 1_555
C30_3 C20_3 1_555 1_555
O1_2 C1_3 1_555 1_555
O2_2 C1_3 1_555 1_555
O5_3 C15_3 1_555 1_555
O14 C16_3 1_555 1_555
O10_3 C30_3 1_555 1_555
Zn4_2 O1_2 1_555 1_555
Zn7_2 O2_2 1_555 1_555
C6_3 C7_3 1_555 1_555
C21_3 C22_3 1_555 1_555
C27_3 C30_3 1_555 1_555
C28_3 C29_3 1_555 1_555
C8_3 C9_3 1_555 1_555
C9_3 C10_3 1_555 1_555
C10_3 H5_3 1_555 1_555
C11_3 C10_3 1_555 1_555
C12_3 C11_3 1_555 1_555
C13_3 C12_3 1_555 1_555
H7_3 C13_3 1_555 1_555
C14_3 C9_3 1_555 1_555
H8_3 C14_3 1_555 1_555
O3_3 C8_3 1_555 1_555
O4_3 C8_3 1_555 1_555
O8_3 C23_3 1_555 1_555
O9_3 C23_3 1_555 1_555
Zn7 O3_3 1_555 1_555
N3_2 Zn7 1_555 1_555
O12_2 Zn7 1_555 1_555
C13_3 C14_3 1_555 1_555
O3_3 Zn4 1_555 1_555
O8_3 Zn4 1_555 1_555
O9_3 Zn4 1_555 1_555
C1_4 C2_4 1_555 1_555
C2_4 C3_4 1_555 1_555
C3_4 H1_4 1_555 1_555
C4_4 C3_4 1_555 1_555
H2_4 C4_4 1_555 1_555
C5_4 C4_4 1_555 1_555
C6_4 C5_4 1_555 1_555
H3_4 C6_4 1_555 1_555
C7_4 C2_4 1_555 1_555
H4_4 C7_4 1_555 1_555
C8_4 C9_4 1_555 1_555
C9_4 C10_4 1_555 1_555
C10_4 H5_4 1_555 1_555
C11_4 C10_4 1_555 1_555
H6_4 C11_4 1_555 1_555
C12_4 C11_4 1_555 1_555
C13_4 C12_4 1_555 1_555
H7_4 C13_4 1_555 1_555
C14_4 C9_4 1_555 1_555
H8_4 C14_4 1_555 1_555
C15_4 C5_4 1_555 1_555
C16_4 C17_4 1_555 1_555
C17_4 C18_4 1_555 1_555
C18_4 H9_4 1_555 1_555
C19_4 C18_4 1_555 1_555
H10_4 C19_4 1_555 1_555
C20_4 C19_4 1_555 1_555
C21_4 C20_4 1_555 1_555
H11_4 C21_4 1_555 1_555
C22_4 C17_4 1_555 1_555
H12_4 C22_4 1_555 1_555
C23_4 C24_4 1_555 1_555
C24_4 C25_4 1_555 1_555
C25_4 H13_4 1_555 1_555
C26_4 C25_4 1_555 1_555
H14_4 C26_4 1_555 1_555
C27_4 C26_4 1_555 1_555
C28_4 C27_4 1_555 1_555
H15_4 C28_4 1_555 1_555
C29_4 C24_4 1_555 1_555
H16_4 C29_4 1_555 1_555
C30_4 C20_4 1_555 1_555
C31_4 H17_4 1_555 1_555
C32_4 C31_4 1_555 1_555
H18_4 C32_4 1_555 1_555
C33_4 C32_4 1_555 1_555
C34_4 C33_4 1_555 1_555
H19_3 C34_4 1_555 1_555
C35_4 C34_4 1_555 1_555
H20_4 C35_4 1_555 1_555
C36_4 H21_4 1_555 1_555
C37_4 C36_4 1_555 1_555
H22_4 C37_4 1_555 1_555
C38_4 C33_4 1_555 1_555
C39_4 C38_4 1_555 1_555
H23_3 C39_4 1_555 1_555
C40_4 C39_4 1_555 1_555
H24_3 C40_4 1_555 1_555
N1_4 C31_4 1_555 1_555
N3_2 C36_4 1_555 1_555
O11_2 C1_4 1_555 1_555
O3_4 C8_4 1_555 1_555
O4_4 C8_4 1_555 1_555
O5_4 C15_4 1_555 1_555
O14_2 C16_4 1_555 1_555
O8_4 C23_4 1_555 1_555
O9_4 C23_4 1_555 1_555
O10_4 C30_4 1_555 1_555
Zn4_2 N1_4 1_555 1_555
Zn7_2 O3_4 1_555 1_555
C6_4 C7_4 1_555 1_555
C12_4 C15_4 1_555 1_555
C13_4 C14_4 1_555 1_555
C21_4 C22_4 1_555 1_555
C27_4 C30_4 1_555 1_555
C28_4 C29_4 1_555 1_555
C35_4 N1_4 1_555 1_555
C37_4 C38_4 1_555 1_555
C40_4 N3_2 1_555 1_555
O3_4 Zn4_2 1_555 1_555
O8_4 Zn4_2 1_555 1_555
O9_4 Zn4_2 1_555 1_555
C8_5 C9_5 1_555 1_555
C9_5 C10_5 1_555 1_555
C10_5 H5_5 1_555 1_555
C11_5 C10_5 1_555 1_555
C12_5 C11_5 1_555 1_555
C13_5 C12_5 1_555 1_555
H7_5 C13_5 1_555 1_555
C14_5 C9_5 1_555 1_555
H8_5 C14_5 1_555 1_555
O3_5 C8_5 1_555 1_555
O4_5 C8_5 1_555 1_555
O8_5 C23_5 1_555 1_555
O9_5 C23_5 1_555 1_555
Zn2_2 O3_5 1_555 1_555
N3_3 Zn2_2 1_555 1_555
O12_3 Zn2_2 1_555 1_555
O13_3 Zn1_2 1_555 1_555
O14_3 Zn2_2 1_555 1_555
C13_5 C14_5 1_555 1_555
O3_5 Zn1_2 1_555 1_555
O8_5 Zn1_2 1_555 1_555
O9_5 Zn1_2 1_555 1_555
C1_5 C2_5 1_555 1_555
C2_5 C3_5 1_555 1_555
C3_5 H1_5 1_555 1_555
C4_5 C3_5 1_555 1_555
H2_5 C4_5 1_555 1_555
C5_5 C4_5 1_555 1_555
C6_5 C5_5 1_555 1_555
C7_5 C2_5 1_555 1_555
H4_5 C7_5 1_555 1_555
C15_5 C5_5 1_555 1_555
C16_5 C17_5 1_555 1_555
C17_5 C18_5 1_555 1_555
C18_5 H9_5 1_555 1_555
C19_5 C18_5 1_555 1_555
H10_5 C19_5 1_555 1_555
C20_5 C19_5 1_555 1_555
C21_5 C20_5 1_555 1_555
H11_5 C21_5 1_555 1_555
C22_5 C17_5 1_555 1_555
H12_5 C22_5 1_555 1_555
C24_5 C25_5 1_555 1_555
C25_5 H13_5 1_555 1_555
C26_5 C25_5 1_555 1_555
H14_5 C26_5 1_555 1_555
C27_5 C26_5 1_555 1_555
C28_5 C27_5 1_555 1_555
H15_5 C28_5 1_555 1_555
C29_5 C24_5 1_555 1_555
C30_5 C20_5 1_555 1_555
O1_3 C1_5 1_555 1_555
O2_3 C1_5 1_555 1_555
O5_5 C15_5 1_555 1_555
O7_3 C16_5 1_555 1_555
O10_5 C30_5 1_555 1_555
Zn3_2 O1_3 1_555 1_555
Zn5 O2_3 1_555 1_555
C6_5 C7_5 1_555 1_555
C21_5 C22_5 1_555 1_555
C27_5 C30_5 1_555 1_555
C28_5 C29_5 1_555 1_555
Zn4_3 O6_3 1_555 1_555
C31_5 H17_5 1_555 1_555
C32_5 C31_5 1_555 1_555
H18_5 C32_5 1_555 1_555
C33_5 C32_5 1_555 1_555
C34_5 C33_5 1_555 1_555
H19_5 C34_5 1_555 1_555
C35_5 C34_5 1_555 1_555
H20_5 C35_5 1_555 1_555
N1_5 C31_5 1_555 1_555
C35_5 N1_5 1_555 1_555
C36_5 H21_5 1_555 1_555
C37_5 C36_5 1_555 1_555
H22_5 C37_5 1_555 1_555
C39_5 C38_5 1_555 1_555
H23_5 C39_5 1_555 1_555
C40_5 C39_5 1_555 1_555
H24_5 C40_5 1_555 1_555
N2_3 C36_5 1_555 1_555
Zn5 N2_3 1_555 1_555
C37_5 C38_5 1_555 1_555
C40_5 N2_3 1_555 1_555
C1_6 C2_6 1_555 1_555
C2_6 C3_6 1_555 1_555
C3_6 H1_6 1_555 1_555
C4_6 C3_6 1_555 1_555
H2_6 C4_6 1_555 1_555
C5_6 C4_6 1_555 1_555
C6_6 C5_6 1_555 1_555
H3_6 C6_6 1_555 1_555
C7_6 C2_6 1_555 1_555
H4_6 C7_6 1_555 1_555
C8_6 C9_6 1_555 1_555
C9_6 C10_6 1_555 1_555
C10_6 H5_6 1_555 1_555
C11_6 C10_6 1_555 1_555
H6_6 C11_6 1_555 1_555
C12_6 C11_6 1_555 1_555
C13_6 C12_6 1_555 1_555
H7_6 C13_6 1_555 1_555
C14_6 C9_6 1_555 1_555
H8_6 C14_6 1_555 1_555
C15_6 C5_6 1_555 1_555
C16_6 C17_6 1_555 1_555
C17_6 C18_6 1_555 1_555
C18_6 H9_6 1_555 1_555
C19_6 C18_6 1_555 1_555
H10_6 C19_6 1_555 1_555
C20_6 C19_6 1_555 1_555
C21_6 C20_6 1_555 1_555
H11_6 C21_6 1_555 1_555
C22_6 C17_6 1_555 1_555
H12_6 C22_6 1_555 1_555
C23_6 C24_6 1_555 1_555
C24_6 C25_6 1_555 1_555
C25_6 H13_6 1_555 1_555
C26_6 C25_6 1_555 1_555
H14_6 C26_6 1_555 1_555
C27_6 C26_6 1_555 1_555
C28_6 C27_6 1_555 1_555
H15_6 C28_6 1_555 1_555
C29_6 C24_6 1_555 1_555
H16_6 C29_6 1_555 1_555
C30_6 C20_6 1_555 1_555
C31_6 H17_6 1_555 1_555
C32_6 C31_6 1_555 1_555
H18_6 C32_6 1_555 1_555
C33_6 C32_6 1_555 1_555
C34_6 C33_6 1_555 1_555
H19_6 C34_6 1_555 1_555
C35_6 C34_6 1_555 1_555
H20_6 C35_6 1_555 1_555
C36_6 H21_6 1_555 1_555
C37_6 C36_6 1_555 1_555
H22_6 C37_6 1_555 1_555
C38_6 C33_6 1_555 1_555
C39_6 C38_6 1_555 1_555
H23_6 C39_6 1_555 1_555
C40_6 C39_6 1_555 1_555
H24_6 C40_6 1_555 1_555
N1_6 C31_6 1_555 1_555
N3_3 C36_6 1_555 1_555
O11_3 C1_6 1_555 1_555
O3_6 C8_6 1_555 1_555
O4_6 C8_6 1_555 1_555
O5_6 C15_6 1_555 1_555
O7_4 C16_6 1_555 1_555
O8_6 C23_6 1_555 1_555
O9_6 C23_6 1_555 1_555
O10_6 C30_6 1_555 1_555
Zn3_2 N1_6 1_555 1_555
Zn5 O3_6 1_555 1_555
O13_4 Zn3_2 1_555 1_555
O14_4 Zn5 1_555 1_555
C6_6 C7_6 1_555 1_555
C12_6 C15_6 1_555 1_555
C13_6 C14_6 1_555 1_555
C21_6 C22_6 1_555 1_555
C27_6 C30_6 1_555 1_555
C28_6 C29_6 1_555 1_555
C35_6 N1_6 1_555 1_555
C37_6 C38_6 1_555 1_555
C40_6 N3_3 1_555 1_555
O3_6 Zn3_2 1_555 1_555
O8_6 Zn3_2 1_555 1_555
O9_6 Zn3_2 1_555 1_555
Zn4_4 O6_4 1_555 1_555
C1_7 C2_7 1_555 1_555
C2_7 C3_7 1_555 1_555
C3_7 H1_7 1_555 1_555
C4_7 C3_7 1_555 1_555
H2_7 C4_7 1_555 1_555
C5_7 C4_7 1_555 1_555
C6_7 C5_7 1_555 1_555
C7_7 C2_7 1_555 1_555
H4_7 C7_7 1_555 1_555
C15_7 C5_7 1_555 1_555
C16_7 C17_7 1_555 1_555
C17_7 C18_7 1_555 1_555
C18_7 H9_7 1_555 1_555
C19_7 C18_7 1_555 1_555
H10_7 C19_7 1_555 1_555
C20_7 C19_7 1_555 1_555
C21_7 C20_7 1_555 1_555
H11_7 C21_7 1_555 1_555
C22_7 C17_7 1_555 1_555
H12_7 C22_7 1_555 1_555
C24_7 C25_7 1_555 1_555
C25_7 H13_7 1_555 1_555
C26_7 C25_7 1_555 1_555
H14_7 C26_7 1_555 1_555
C27_7 C26_7 1_555 1_555
C28_7 C27_7 1_555 1_555
H15_7 C28_7 1_555 1_555
C29_7 C24_7 1_555 1_555
C30_7 C20_7 1_555 1_555
O1_4 C1_7 1_555 1_555
O2_4 C1_7 1_555 1_555
O5_7 C15_7 1_555 1_555
O13_3 C16_7 1_555 1_555
O14_3 C16_7 1_555 1_555
O10_7 C30_7 1_555 1_555
Zn4_4 O1_4 1_555 1_555
Zn7_4 O2_4 1_555 1_555
C6_7 C7_7 1_555 1_555
C21_7 C22_7 1_555 1_555
C27_7 C30_7 1_555 1_555
C28_7 C29_7 1_555 1_555
C8_7 C9_7 1_555 1_555
C9_7 C10_7 1_555 1_555
C10_7 H5_7 1_555 1_555
C11_7 C10_7 1_555 1_555
C12_7 C11_7 1_555 1_555
C13_7 C12_7 1_555 1_555
H7_7 C13_7 1_555 1_555
C14_7 C9_7 1_555 1_555
H8_7 C14_7 1_555 1_555
O3_7 C8_7 1_555 1_555
O4_7 C8_7 1_555 1_555
O8_7 C23_7 1_555 1_555
O9_7 C23_7 1_555 1_555
Zn7_3 O3_7 1_555 1_555
N3_4 Zn7_3 1_555 1_555
O12_4 Zn7_3 1_555 1_555
C13_7 C14_7 1_555 1_555
O3_7 Zn4_3 1_555 1_555
O8_7 Zn4_3 1_555 1_555
O9_7 Zn4_3 1_555 1_555
C36_7 H21_7 1_555 1_555
C37_7 C36_7 1_555 1_555
H22_7 C37_7 1_555 1_555
C39_7 C38_7 1_555 1_555
C40_7 C39_7 1_555 1_555
N2_4 C36_7 1_555 1_555
Zn7_4 N2_4 1_555 1_555
C37_7 C38_7 1_555 1_555
C40_7 N2_4 1_555 1_555
C31_7 H17_7 1_555 1_555
C32_7 C31_7 1_555 1_555
H18_7 C32_7 1_555 1_555
C33_7 C32_7 1_555 1_555
C34_7 C33_7 1_555 1_555
C35_7 C34_7 1_555 1_555
H20_7 C35_7 1_555 1_555
N1_7 C31_7 1_555 1_555
C35_7 N1_7 1_555 1_555
C1_8 C2_8 1_555 1_555
C2_8 C3_8 1_555 1_555
C3_8 H1_8 1_555 1_555
C4_8 C3_8 1_555 1_555
H2_8 C4_8 1_555 1_555
C5_8 C4_8 1_555 1_555
C6_8 C5_8 1_555 1_555
H3_8 C6_8 1_555 1_555
C7_8 C2_8 1_555 1_555
H4_8 C7_8 1_555 1_555
C8_8 C9_8 1_555 1_555
C9_8 C10_8 1_555 1_555
C10_8 H5_8 1_555 1_555
C11_8 C10_8 1_555 1_555
H6_8 C11_8 1_555 1_555
C12_8 C11_8 1_555 1_555
C13_8 C12_8 1_555 1_555
H7_8 C13_8 1_555 1_555
C14_8 C9_8 1_555 1_555
H8_8 C14_8 1_555 1_555
C15_8 C5_8 1_555 1_555
C16_8 C17_8 1_555 1_555
C17_8 C18_8 1_555 1_555
C18_8 H9_8 1_555 1_555
C19_8 C18_8 1_555 1_555
H10_8 C19_8 1_555 1_555
C20_8 C19_8 1_555 1_555
C21_8 C20_8 1_555 1_555
H11_8 C21_8 1_555 1_555
C22_8 C17_8 1_555 1_555
H12_8 C22_8 1_555 1_555
C23_8 C24_8 1_555 1_555
C24_8 C25_8 1_555 1_555
C25_8 H13_8 1_555 1_555
C26_8 C25_8 1_555 1_555
H14_8 C26_8 1_555 1_555
C27_8 C26_8 1_555 1_555
C28_8 C27_8 1_555 1_555
H15_8 C28_8 1_555 1_555
C29_8 C24_8 1_555 1_555
H16_8 C29_8 1_555 1_555
C30_8 C20_8 1_555 1_555
C31_8 H17_8 1_555 1_555
C32_8 C31_8 1_555 1_555
H18_8 C32_8 1_555 1_555
C33_8 C32_8 1_555 1_555
C34_8 C33_8 1_555 1_555
C35_8 C34_8 1_555 1_555
H20_8 C35_8 1_555 1_555
C36_8 H21_8 1_555 1_555
C37_8 C36_8 1_555 1_555
H22_8 C37_8 1_555 1_555
C38_8 C33_8 1_555 1_555
C39_8 C38_8 1_555 1_555
C40_8 C39_8 1_555 1_555
N1_8 C31_8 1_555 1_555
N3_4 C36_8 1_555 1_555
O11_4 C1_8 1_555 1_555
O3_8 C8_8 1_555 1_555
O4_8 C8_8 1_555 1_555
O5_8 C15_8 1_555 1_555
O13_4 C16_8 1_555 1_555
O14_4 C16_8 1_555 1_555
O8_8 C23_8 1_555 1_555
O9_8 C23_8 1_555 1_555
O10_8 C30_8 1_555 1_555
Zn4_4 N1_8 1_555 1_555
Zn7_4 O3_8 1_555 1_555
C6_8 C7_8 1_555 1_555
C12_8 C15_8 1_555 1_555
C13_8 C14_8 1_555 1_555
C21_8 C22_8 1_555 1_555
C27_8 C30_8 1_555 1_555
C28_8 C29_8 1_555 1_555
C35_8 N1_8 1_555 1_555
C37_8 C38_8 1_555 1_555
C40_8 N3_4 1_555 1_555
O3_8 Zn4_4 1_555 1_555
O8_8 Zn4_4 1_555 1_555
O9_8 Zn4_4 1_555 1_555

#END
