
###############################################################################
#
# This file contains modified crystal structure data generated from the
# MOF subset of the Cambridge Structural Database (CSD) v543 
# hosted by the Cambridge Crystallographic Data Centre (CCDC).
#
# This work is licensed under the Creative Commons
# Attribution-NonCommercial-ShareAlike 4.0 International License.
# To view a copy of this license, visit
# http://creativecommons.org/licenses/by-nc-sa/4.0/
# or send a letter to
# Creative Commons, PO Box 1866, Mountain View, CA 94042, USA.
#
# CIF created using the CSD Python API on 29 September 2022
# The structure has been converted into the P1 space group
# The structure has a 3D framework
# The original CSD entry PUSDIR is in the monoclinic crystal system
# The framework has been calculated to contain at least 10.0% void space
# The void calculation uses a probe of radius 1.32A, grid spacing 0.4
#
###############################################################################

data_PUSDIR
_chemical_formula_moiety         '(C320 H192 N16 O72 Zn16)n'
_symmetry_cell_setting           triclinic
_symmetry_space_group_name_H-M   'P 1'
_symmetry_Int_Tables_number      1
_space_group_name_Hall           'P 1'
loop_
_symmetry_equiv_pos_site_id
_symmetry_equiv_pos_as_xyz
1 x,y,z
_cell_length_a                   21.687(4)
_cell_length_b                   17.754(4)
_cell_length_c                   26.041(5)
_cell_angle_alpha                90
_cell_angle_beta                 103.95(3)
_cell_angle_gamma                90
_cell_volume                     9730.87
loop_
_atom_site_label
_atom_site_type_symbol
_atom_site_fract_x
_atom_site_fract_y
_atom_site_fract_z
N1 N 0.04333(15) 0.10620(19) 0.07845(11)
C23 C 0.1014(2) 0.0403(3) 0.02650(16)
C25 C 0.14759(18) 0.0196(2) 0.07008(14)
H15 H 0.2614 0.005 0.1354
C31 C 0.0510(2) 0.0830(3) 0.03247(15)
H17 H 0.0205 0.0964 0.0022
C33 C 0.1393(2) 0.0410(3) 0.11930(16)
H19 H 0.1681 0.0258 0.1501
C34 C 0.0878(2) 0.0849(3) 0.12191(16)
H20 H 0.0835 0.1005 0.1549
O12 O 0.00414(12) 0.24847(15) 0.12488(10)
N2 N 0.30441(14) 0.87709(18) 0.06442(11)
C3 C 0.20086(18) 0.9239(2) 0.02400(14)
C4 C 0.25192(18) 0.8779(2) 0.02426(14)
C19 C 0.20286(17) 0.9719(2) 0.06630(14)
C22 C 0.30663(19) 0.9246(2) 0.10454(15)
H13 H 0.343 0.9253 0.1322
C27 C 0.25779(18) 0.9724(2) 0.10684(14)
Zn7 Zn 0.375386(19) 0.80428(2) 0.068677(15)
Zn1 Zn 0.959070(19) 0.15741(2) 0.087431(15)
Zn2 Zn 0.875386(19) 0.30428(2) 0.068677(15)
O1 O 0.96222(12) 0.10254(15) 0.16005(9)
O2 O 0.91830(12) 0.04214(15) 0.08620(9)
O4 O 0.86070(12) 0.20021(15) 0.09201(10)
O5 O 0.85791(14) 0.27423(16) 0.16012(10)
C1 C 0.81744(18) 0.1500(2) 0.16185(14)
C5 C 0.84828(18) 0.2124(2) 0.13836(14)
C6 C 0.81435(19) 0.1543(2) 0.21445(15)
H4 H 0.8325 0.1952 0.2349
H5 H 0.9322 0.0376 0.2366
C11 C 0.75864(18) 0.0340(2) 0.15268(15)
C16 C 0.78987(17) 0.0887(2) 0.13115(14)
H10 H 0.7926 0.0848 0.0962
C17 C 0.75620(17) 0.0379(2) 0.20573(14)
C20 C 0.78521(18) 0.0996(2) 0.23641(14)
H11 H 0.7844 0.1027 0.2719
H12 H 0.6313 0.0214 0.1534
C24 C 0.93475(17) 0.0446(2) 0.13614(14)
O11 O 0.93550(12) 0.18474(16) 0.00946(10)
O14 O 0.95475(12) 0.35674(16) 0.09695(11)
N3 N 0.80441(14) 0.37709(18) 0.06442(11)
O13 O 0.86552(13) 0.27985(16) 0.99321(10)
O3 O 0.93550(12) 0.81526(16) 0.50946(10)
O6 O 0.75462(14) 0.95692(19) 0.27673(11)
O7 O 0.50414(12) 0.74847(15) 0.12488(10)
O8 O 0.86552(13) 0.72015(16) 0.49321(10)
O9 O 0.45475(12) 0.85674(16) 0.09695(11)
C2 C 0.89975(19) 0.9342(2) 0.24925(15)
H1 H 0.8993 0.9419 0.2845
C7 C 0.91913(18) 0.9807(2) 0.16786(14)
C8 C 0.91914(18) 0.9916(2) 0.22047(14)
C9 C 0.50165(18) 0.8195(2) 0.12266(15)
C10 C 0.56828(19) 0.9354(2) 0.13798(15)
H6 H 0.5376 0.9602 0.1125
H7 H 0.7391 0.9943 0.1317
C12 C 0.9346(2) 0.8134(2) 0.39923(15)
H8 H 0.9729 0.8284 0.4216
C13 C 0.8809(2) 0.8648(3) 0.22524(15)
C14 C 0.89700(18) 0.7719(2) 0.47897(14)
O10 O 0.8171(3) 0.7592(3) 0.22636(14)
C15 C 0.9024(2) 0.9110(3) 0.14448(15)
H9 H 0.904 0.9028 0.1095
C18 C 0.6687(2) 0.9375(2) 0.20232(15)
C21 C 0.62418(18) 0.9724(2) 0.16324(15)
C26 C 0.8875(2) 0.7834(2) 0.42045(15)
C28 C 0.55878(19) 0.8616(2) 0.15116(15)
C29 C 0.6032(3) 0.8278(3) 0.1919(2)
H16 H 0.5967 0.7786 0.2016
C30 C 0.72830(19) 0.9763(2) 0.23174(15)
C32 C 0.8293(2) 0.7632(3) 0.38752(17)
H18 H 0.7972 0.7438 0.4019
C35 C 0.8537(3) 0.8064(3) 0.25256(18)
C36 C 0.8669(3) 0.8012(3) 0.31113(17)
C37 C 0.6568(2) 0.8661(3) 0.2182(2)
H21 H 0.6849 0.8437 0.2467
C38 C 0.8836(3) 0.8542(3) 0.17282(17)
H22 H 0.8724 0.8077 0.1568
C39 C 0.9254(2) 0.8216(3) 0.34448(16)
H23 H 0.9578 0.8403 0.3303
C40 C 0.8193(3) 0.7720(4) 0.33331(19)
H24 H 0.7804 0.7584 0.3113
Zn3 Zn 0.959070(19) 0.84259(2) 0.587431(15)
Zn4 Zn 0.459070(19) 0.65741(2) 0.087431(15)
Zn5 Zn 0.875386(19) 0.69572(2) 0.568677(15)
O1_2 O 0.46222(12) 0.60254(15) 0.16005(9)
O2_2 O 0.41830(12) 0.54214(15) 0.08620(9)
O3_2 O 0.43550(12) 0.31526(16) 0.50946(10)
O4_2 O 0.36070(12) 0.70021(15) 0.09201(10)
O5_2 O 0.35791(14) 0.77423(16) 0.16012(10)
O6_2 O 0.25462(14) 0.45692(19) 0.27673(11)
O8_2 O 0.36552(13) 0.22015(16) 0.49321(10)
N1_2 N 0.54333(15) 0.60620(19) 0.07845(11)
C1_2 C 0.31744(18) 0.6500(2) 0.16185(14)
C2_2 C 0.39975(19) 0.4342(2) 0.24925(15)
H1_2 H 0.3993 0.4419 0.2845
C3_2 C 0.70086(18) 0.4239(2) 0.02400(14)
C4_2 C 0.75192(18) 0.3779(2) 0.02426(14)
C5_2 C 0.34828(18) 0.7124(2) 0.13836(14)
C6_2 C 0.31435(19) 0.6543(2) 0.21445(15)
H4_2 H 0.3325 0.6952 0.2349
C7_2 C 0.41913(18) 0.4807(2) 0.16786(14)
C8_2 C 0.41914(18) 0.4916(2) 0.22047(14)
H5_2 H 0.4322 0.5376 0.2366
C9_2 C 0.00165(18) 0.3195(2) 0.12266(15)
C10_2 C 0.06828(19) 0.4354(2) 0.13798(15)
H6_2 H 0.0376 0.4602 0.1125
C11_2 C 0.25864(18) 0.5340(2) 0.15268(15)
H7_2 H 0.2391 0.4943 0.1317
C12_2 C 0.4346(2) 0.3134(2) 0.39923(15)
H8_2 H 0.4729 0.3284 0.4216
C13_2 C 0.3809(2) 0.3648(3) 0.22524(15)
C14_2 C 0.39700(18) 0.2719(2) 0.47897(14)
O10_2 O 0.3171(3) 0.2592(3) 0.22636(14)
C15_2 C 0.4024(2) 0.4110(3) 0.14448(15)
H9_2 H 0.404 0.4028 0.1095
C16_2 C 0.28987(17) 0.5887(2) 0.13115(14)
H10_2 H 0.2926 0.5848 0.0962
C17_2 C 0.25620(17) 0.5379(2) 0.20573(14)
C18_2 C 0.1687(2) 0.4375(2) 0.20232(15)
C19_2 C 0.70286(17) 0.4719(2) 0.06630(14)
C20_2 C 0.28521(18) 0.5996(2) 0.23641(14)
H11_2 H 0.2844 0.6027 0.2719
C21_2 C 0.12418(18) 0.4724(2) 0.16324(15)
H12_2 H 0.1313 0.5214 0.1534
C22_2 C 0.80663(19) 0.4246(2) 0.10454(15)
H13_2 H 0.843 0.4253 0.1322
C23_2 C 0.6014(2) 0.5403(3) 0.02650(16)
C24_2 C 0.43475(17) 0.5446(2) 0.13614(14)
C25_2 C 0.64759(18) 0.5196(2) 0.07008(14)
C26_2 C 0.3875(2) 0.2834(2) 0.42045(15)
C27_2 C 0.75779(18) 0.4724(2) 0.10684(14)
H15_2 H 0.7614 0.505 0.1354
C28_2 C 0.05878(19) 0.3616(2) 0.15116(15)
C29_2 C 0.1032(3) 0.3278(3) 0.1919(2)
H16_2 H 0.0967 0.2786 0.2016
C30_2 C 0.22830(19) 0.4763(2) 0.23174(15)
C31_2 C 0.5510(2) 0.5830(3) 0.03247(15)
H17_2 H 0.5205 0.5964 0.0022
C32_2 C 0.3293(2) 0.2632(3) 0.38752(17)
H18_2 H 0.2972 0.2438 0.4019
C33_2 C 0.6393(2) 0.5410(3) 0.11930(16)
H19_2 H 0.6681 0.5258 0.1501
C34_2 C 0.5878(2) 0.5849(3) 0.12191(16)
H20_2 H 0.5835 0.6005 0.1549
C35_2 C 0.3537(3) 0.3064(3) 0.25256(18)
C36_2 C 0.3669(3) 0.3012(3) 0.31113(17)
C37_2 C 0.1568(2) 0.3661(3) 0.2182(2)
H21_2 H 0.1849 0.3437 0.2467
C38_2 C 0.3836(3) 0.3542(3) 0.17282(17)
H22_2 H 0.3724 0.3077 0.1568
C39_2 C 0.4254(2) 0.3216(3) 0.34448(16)
H23_2 H 0.4578 0.3403 0.3303
C40_2 C 0.3193(3) 0.2720(4) 0.33331(19)
H24_2 H 0.2804 0.2584 0.3113
Zn3_2 Zn 0.459070(19) 0.34259(2) 0.587431(15)
Zn5_2 Zn 0.375386(19) 0.19572(2) 0.568677(15)
O11_2 O 0.43550(12) 0.68474(16) 0.00946(10)
H2 H 0.6653 0.4228 0.9957
H3 H 0.7502 0.346 0.9956
H14 H 0.6043 0.5253 0.9929
O13_2 O 0.36552(13) 0.77985(16) 0.99321(10)
N2_2 N 0.30441(14) 0.12291(18) 0.56442(11)
C3_3 C 0.20086(18) 0.0761(2) 0.52400(14)
H2_2 H 0.1653 0.0772 0.4957
C4_3 C 0.25192(18) 0.1221(2) 0.52426(14)
H3_2 H 0.2502 0.154 0.4956
C19_3 C 0.20286(17) 0.0281(2) 0.56630(14)
C22_3 C 0.30663(19) 0.0754(2) 0.60454(15)
H13_3 H 0.343 0.0747 0.6322
C27_3 C 0.25779(18) 0.0276(2) 0.60684(14)
N1_3 N 0.04333(15) 0.89380(19) 0.57845(11)
C23_3 C 0.1014(2) 0.9597(3) 0.52650(16)
H14_2 H 0.1043 0.9747 0.4929
C25_3 C 0.14759(18) 0.9804(2) 0.57008(14)
H15_3 H 0.2614 0.995 0.6354
C31_3 C 0.0510(2) 0.9170(3) 0.53247(15)
H17_3 H 0.0205 0.9036 0.5022
C33_3 C 0.1393(2) 0.9590(3) 0.61930(16)
H19_3 H 0.1681 0.9742 0.6501
C34_3 C 0.0878(2) 0.9151(3) 0.62191(16)
H20_3 H 0.0835 0.8995 0.6549
O12_2 O 0.00414(12) 0.75153(15) 0.62488(10)
O6_3 O 0.75462(14) 0.04308(19) 0.77673(11)
O7_2 O 0.50414(12) 0.25153(15) 0.62488(10)
O9_2 O 0.45475(12) 0.14326(16) 0.59695(11)
C2_3 C 0.89975(19) 0.0658(2) 0.74925(15)
H1_3 H 0.8993 0.0581 0.7845
C7_3 C 0.91913(18) 0.0193(2) 0.66786(14)
C8_3 C 0.91914(18) 0.0084(2) 0.72047(14)
C9_3 C 0.50165(18) 0.1805(2) 0.62266(15)
C10_3 C 0.56828(19) 0.0646(2) 0.63798(15)
H6_3 H 0.5376 0.0398 0.6125
H7_3 H 0.7391 0.0057 0.6317
C12_3 C 0.9346(2) 0.1866(2) 0.89923(15)
H8_3 H 0.9729 0.1716 0.9216
C13_3 C 0.8809(2) 0.1352(3) 0.72524(15)
C14_3 C 0.89700(18) 0.2281(2) 0.97897(14)
O10_3 O 0.8171(3) 0.2408(3) 0.72636(14)
C15_3 C 0.9024(2) 0.0890(3) 0.64448(15)
H9_3 H 0.904 0.0972 0.6095
C18_3 C 0.6687(2) 0.0625(2) 0.70232(15)
C21_3 C 0.62418(18) 0.0276(2) 0.66324(15)
C26_3 C 0.8875(2) 0.2166(2) 0.92045(15)
C28_3 C 0.55878(19) 0.1384(2) 0.65116(15)
C29_3 C 0.6032(3) 0.1722(3) 0.6919(2)
H16_3 H 0.5967 0.2214 0.7016
C30_3 C 0.72830(19) 0.0237(2) 0.73174(15)
C32_3 C 0.8293(2) 0.2368(3) 0.88752(17)
H18_3 H 0.7972 0.2562 0.9019
C35_3 C 0.8537(3) 0.1936(3) 0.75256(18)
C36_3 C 0.8669(3) 0.1988(3) 0.81113(17)
C37_3 C 0.6568(2) 0.1339(3) 0.7182(2)
H21_3 H 0.6849 0.1563 0.7467
C38_3 C 0.8836(3) 0.1458(3) 0.67282(17)
H22_3 H 0.8724 0.1923 0.6568
C39_3 C 0.9254(2) 0.1784(3) 0.84448(16)
H23_3 H 0.9578 0.1597 0.8303
C40_3 C 0.8193(3) 0.2280(4) 0.83331(19)
H24_3 H 0.7804 0.2416 0.8113
O1_3 O 0.96222(12) 0.89746(15) 0.66005(9)
O2_3 O 0.91830(12) 0.95786(15) 0.58620(9)
O4_3 O 0.86070(12) 0.79979(15) 0.59201(10)
O5_3 O 0.85791(14) 0.72577(16) 0.66012(10)
C1_3 C 0.81744(18) 0.8500(2) 0.66185(14)
C5_3 C 0.84828(18) 0.7876(2) 0.63836(14)
C6_3 C 0.81435(19) 0.8457(2) 0.71445(15)
H4_3 H 0.8325 0.8048 0.7349
H5_3 H 0.9322 0.9624 0.7366
C11_3 C 0.75864(18) 0.9660(2) 0.65268(15)
C16_3 C 0.78987(17) 0.9113(2) 0.63115(14)
H10_3 H 0.7926 0.9152 0.5962
C17_3 C 0.75620(17) 0.9621(2) 0.70573(14)
C20_3 C 0.78521(18) 0.9004(2) 0.73641(14)
H11_3 H 0.7844 0.8973 0.7719
H12_3 H 0.6313 0.9786 0.6534
C24_3 C 0.93475(17) 0.9554(2) 0.63614(14)
O14_2 O 0.95475(12) 0.64326(16) 0.59695(11)
N3_2 N 0.80441(14) 0.62291(18) 0.56442(11)
O1_4 O 0.46222(12) 0.39746(15) 0.66005(9)
O2_4 O 0.41830(12) 0.45786(15) 0.58620(9)
O4_4 O 0.36070(12) 0.29979(15) 0.59201(10)
O5_4 O 0.35791(14) 0.22577(16) 0.66012(10)
O6_4 O 0.25462(14) 0.54308(19) 0.77673(11)
N1_4 N 0.54333(15) 0.39380(19) 0.57845(11)
C1_4 C 0.31744(18) 0.3500(2) 0.66185(14)
C2_4 C 0.39975(19) 0.5658(2) 0.74925(15)
H1_4 H 0.3993 0.5581 0.7845
C3_4 C 0.70086(18) 0.5761(2) 0.52400(14)
H2_3 H 0.6653 0.5772 0.4957
C4_4 C 0.75192(18) 0.6221(2) 0.52426(14)
H3_3 H 0.7502 0.654 0.4956
C5_4 C 0.34828(18) 0.2876(2) 0.63836(14)
C6_4 C 0.31435(19) 0.3457(2) 0.71445(15)
H4_4 H 0.3325 0.3048 0.7349
C7_4 C 0.41913(18) 0.5193(2) 0.66786(14)
C8_4 C 0.41914(18) 0.5084(2) 0.72047(14)
H5_4 H 0.4322 0.4624 0.7366
C9_4 C 0.00165(18) 0.6805(2) 0.62266(15)
C10_4 C 0.06828(19) 0.5646(2) 0.63798(15)
H6_4 H 0.0376 0.5398 0.6125
C11_4 C 0.25864(18) 0.4660(2) 0.65268(15)
H7_4 H 0.2391 0.5057 0.6317
C12_4 C 0.4346(2) 0.6866(2) 0.89923(15)
H8_4 H 0.4729 0.6716 0.9216
C13_4 C 0.3809(2) 0.6352(3) 0.72524(15)
C14_4 C 0.39700(18) 0.7281(2) 0.97897(14)
O10_4 O 0.3171(3) 0.7408(3) 0.72636(14)
C15_4 C 0.4024(2) 0.5890(3) 0.64448(15)
H9_4 H 0.404 0.5972 0.6095
C16_4 C 0.28987(17) 0.4113(2) 0.63115(14)
H10_4 H 0.2926 0.4152 0.5962
C17_4 C 0.25620(17) 0.4621(2) 0.70573(14)
C18_4 C 0.1687(2) 0.5625(2) 0.70232(15)
C19_4 C 0.70286(17) 0.5281(2) 0.56630(14)
C20_4 C 0.28521(18) 0.4004(2) 0.73641(14)
H11_4 H 0.2844 0.3973 0.7719
C21_4 C 0.12418(18) 0.5276(2) 0.66324(15)
H12_4 H 0.1313 0.4786 0.6534
C22_4 C 0.80663(19) 0.5754(2) 0.60454(15)
H13_4 H 0.843 0.5747 0.6322
C23_4 C 0.6014(2) 0.4597(3) 0.52650(16)
H14_3 H 0.6043 0.4747 0.4929
C24_4 C 0.43475(17) 0.4554(2) 0.63614(14)
C25_4 C 0.64759(18) 0.4804(2) 0.57008(14)
C26_4 C 0.3875(2) 0.7166(2) 0.92045(15)
C27_4 C 0.75779(18) 0.5276(2) 0.60684(14)
H15_4 H 0.7614 0.495 0.6354
C28_4 C 0.05878(19) 0.6384(2) 0.65116(15)
C29_4 C 0.1032(3) 0.6722(3) 0.6919(2)
H16_4 H 0.0967 0.7214 0.7016
C30_4 C 0.22830(19) 0.5237(2) 0.73174(15)
C31_4 C 0.5510(2) 0.4170(3) 0.53247(15)
H17_4 H 0.5205 0.4036 0.5022
C32_4 C 0.3293(2) 0.7368(3) 0.88752(17)
H18_4 H 0.2972 0.7562 0.9019
C33_4 C 0.6393(2) 0.4590(3) 0.61930(16)
H19_4 H 0.6681 0.4742 0.6501
C34_4 C 0.5878(2) 0.4151(3) 0.62191(16)
H20_4 H 0.5835 0.3995 0.6549
C35_4 C 0.3537(3) 0.6936(3) 0.75256(18)
C36_4 C 0.3669(3) 0.6988(3) 0.81113(17)
C37_4 C 0.1568(2) 0.6339(3) 0.7182(2)
H21_4 H 0.1849 0.6563 0.7467
C38_4 C 0.3836(3) 0.6458(3) 0.67282(17)
H22_4 H 0.3724 0.6923 0.6568
C39_4 C 0.4254(2) 0.6784(3) 0.84448(16)
H23_4 H 0.4578 0.6597 0.8303
C40_4 C 0.3193(3) 0.7280(4) 0.83331(19)
H24_4 H 0.2804 0.7416 0.8113
H14_4 H 0.1043 0.0253 0.9929
H2_4 H 0.1653 0.9228 0.9957
H3_4 H 0.2502 0.846 0.9956
Zn1_2 Zn 0.040930(19) 0.15741(2) 0.412569(15)
Zn2_2 Zn 0.124614(19) 0.30428(2) 0.431323(15)
O1_5 O 0.03778(12) 0.10254(15) 0.33995(9)
O2_5 O 0.08170(12) 0.04214(15) 0.41380(9)
O4_5 O 0.13930(12) 0.20021(15) 0.40799(10)
O5_5 O 0.14209(14) 0.27423(16) 0.33988(10)
C1_5 C 0.18256(18) 0.1500(2) 0.33815(14)
C5_5 C 0.15172(18) 0.2124(2) 0.36164(14)
C6_5 C 0.18565(19) 0.1543(2) 0.28555(15)
H4_5 H 0.1675 0.1952 0.2651
H5_5 H 0.0678 0.0376 0.2634
C11_5 C 0.24136(18) 0.0340(2) 0.34732(15)
C16_5 C 0.21013(17) 0.0887(2) 0.36885(14)
H10_5 H 0.2074 0.0848 0.4038
C17_5 C 0.24380(17) 0.0379(2) 0.29427(14)
C20_5 C 0.21479(18) 0.0996(2) 0.26359(14)
H11_5 H 0.2156 0.1027 0.2281
H12_5 H 0.3687 0.0214 0.3466
C24_5 C 0.06525(17) 0.0446(2) 0.36386(14)
O11_3 O 0.06450(12) 0.18474(16) 0.49054(10)
O13_3 O 0.13448(13) 0.27985(16) 0.50679(10)
O14_3 O 0.04525(12) 0.35674(16) 0.40305(11)
N3_3 N 0.19559(14) 0.37709(18) 0.43558(11)
O6_5 O 0.24538(14) 0.95692(19) 0.22327(11)
O7_3 O 0.49586(12) 0.74847(15) 0.37512(10)
O8_3 O 0.13448(13) 0.72015(16) 0.00679(10)
O9_3 O 0.54525(12) 0.85674(16) 0.40305(11)
C2_5 C 0.10025(19) 0.9342(2) 0.25075(15)
H1_5 H 0.1007 0.9419 0.2155
C7_5 C 0.08087(18) 0.9807(2) 0.33214(14)
C8_5 C 0.08086(18) 0.9916(2) 0.27953(14)
C9_5 C 0.49835(18) 0.8195(2) 0.37734(15)
C10_5 C 0.43172(19) 0.9354(2) 0.36202(15)
H6_5 H 0.4624 0.9602 0.3875
H7_5 H 0.2609 0.9943 0.3683
C12_5 C 0.0654(2) 0.8134(2) 0.10077(15)
H8_5 H 0.0271 0.8284 0.0784
C13_5 C 0.1191(2) 0.8648(3) 0.27476(15)
C14_5 C 0.10300(18) 0.7719(2) 0.02103(14)
O10_5 O 0.1829(3) 0.7592(3) 0.27364(14)
C15_5 C 0.0976(2) 0.9110(3) 0.35552(15)
H9_5 H 0.096 0.9028 0.3905
C18_5 C 0.3313(2) 0.9375(2) 0.29768(15)
C21_5 C 0.37582(18) 0.9724(2) 0.33676(15)
C26_5 C 0.1125(2) 0.7834(2) 0.07955(15)
C28_5 C 0.44122(19) 0.8616(2) 0.34884(15)
C29_5 C 0.3968(3) 0.8278(3) 0.3081(2)
H16_5 H 0.4033 0.7786 0.2984
C30_5 C 0.27170(19) 0.9763(2) 0.26826(15)
C32_5 C 0.1707(2) 0.7632(3) 0.11248(17)
H18_5 H 0.2028 0.7438 0.0981
C35_5 C 0.1463(3) 0.8064(3) 0.24744(18)
C36_5 C 0.1331(3) 0.8012(3) 0.18887(17)
C37_5 C 0.3432(2) 0.8661(3) 0.2818(2)
H21_5 H 0.3151 0.8437 0.2533
C38_5 C 0.1164(3) 0.8542(3) 0.32718(17)
H22_5 H 0.1276 0.8077 0.3432
C39_5 C 0.0746(2) 0.8216(3) 0.15552(16)
H23_5 H 0.0422 0.8403 0.1697
C40_5 C 0.1807(3) 0.7720(4) 0.16669(19)
H24_5 H 0.2196 0.7584 0.1887
Zn4_2 Zn 0.540930(19) 0.65741(2) 0.412569(15)
Zn6 Zn 0.624614(19) 0.80428(2) 0.431323(15)
O3_3 O 0.06450(12) 0.81526(16) 0.99054(10)
Zn3_3 Zn 0.040930(19) 0.84259(2) 0.912569(15)
Zn5_3 Zn 0.124614(19) 0.69572(2) 0.931323(15)
N1_5 N 0.95667(15) 0.10620(19) 0.42155(11)
C23_5 C 0.8986(2) 0.0403(3) 0.47350(16)
H14_5 H 0.8957 0.0253 0.5071
C25_5 C 0.85241(18) 0.0196(2) 0.42992(14)
H15_5 H 0.7386 0.005 0.3646
C31_5 C 0.9490(2) 0.0830(3) 0.46753(15)
H17_5 H 0.9795 0.0964 0.4978
C33_5 C 0.8607(2) 0.0410(3) 0.38070(16)
H19_5 H 0.8319 0.0258 0.3499
C34_5 C 0.9122(2) 0.0849(3) 0.37809(16)
H20_5 H 0.9165 0.1005 0.3451
O12_3 O 0.99586(12) 0.24847(15) 0.37512(10)
N2_3 N 0.69559(14) 0.87709(18) 0.43558(11)
C3_5 C 0.79914(18) 0.9239(2) 0.47600(14)
H2_5 H 0.8347 0.9228 0.5043
C4_5 C 0.74808(18) 0.8779(2) 0.47574(14)
H3_5 H 0.7498 0.846 0.5044
C19_5 C 0.79714(17) 0.9719(2) 0.43370(14)
C22_5 C 0.69337(19) 0.9246(2) 0.39546(15)
H13_5 H 0.657 0.9253 0.3678
C27_5 C 0.74221(18) 0.9724(2) 0.39316(14)
O1_6 O 0.53778(12) 0.60254(15) 0.33995(9)
O2_6 O 0.58170(12) 0.54214(15) 0.41380(9)
O4_6 O 0.63930(12) 0.70021(15) 0.40799(10)
O5_6 O 0.64209(14) 0.77423(16) 0.33988(10)
O6_6 O 0.74538(14) 0.45692(19) 0.22327(11)
O8_4 O 0.63448(13) 0.22015(16) 0.00679(10)
N1_6 N 0.45667(15) 0.60620(19) 0.42155(11)
C1_6 C 0.68256(18) 0.6500(2) 0.33815(14)
C2_6 C 0.60025(19) 0.4342(2) 0.25075(15)
H1_6 H 0.6007 0.4419 0.2155
C3_6 C 0.29914(18) 0.4239(2) 0.47600(14)
H2_6 H 0.3347 0.4228 0.5043
C4_6 C 0.24808(18) 0.3779(2) 0.47574(14)
H3_6 H 0.2498 0.346 0.5044
C5_6 C 0.65172(18) 0.7124(2) 0.36164(14)
C6_6 C 0.68565(19) 0.6543(2) 0.28555(15)
H4_6 H 0.6675 0.6952 0.2651
C7_6 C 0.58087(18) 0.4807(2) 0.33214(14)
C8_6 C 0.58086(18) 0.4916(2) 0.27953(14)
H5_6 H 0.5678 0.5376 0.2634
C9_6 C 0.99835(18) 0.3195(2) 0.37734(15)
C10_6 C 0.93172(19) 0.4354(2) 0.36202(15)
H6_6 H 0.9624 0.4602 0.3875
C11_6 C 0.74136(18) 0.5340(2) 0.34732(15)
H7_6 H 0.7609 0.4943 0.3683
C12_6 C 0.5654(2) 0.3134(2) 0.10077(15)
H8_6 H 0.5271 0.3284 0.0784
C13_6 C 0.6191(2) 0.3648(3) 0.27476(15)
C14_6 C 0.60300(18) 0.2719(2) 0.02103(14)
O10_6 O 0.6829(3) 0.2592(3) 0.27364(14)
C15_6 C 0.5976(2) 0.4110(3) 0.35552(15)
H9_6 H 0.596 0.4028 0.3905
C16_6 C 0.71013(17) 0.5887(2) 0.36885(14)
H10_6 H 0.7074 0.5848 0.4038
C17_6 C 0.74380(17) 0.5379(2) 0.29427(14)
C18_6 C 0.8313(2) 0.4375(2) 0.29768(15)
C19_6 C 0.29714(17) 0.4719(2) 0.43370(14)
C20_6 C 0.71479(18) 0.5996(2) 0.26359(14)
H11_6 H 0.7156 0.6027 0.2281
C21_6 C 0.87582(18) 0.4724(2) 0.33676(15)
H12_6 H 0.8687 0.5214 0.3466
C22_6 C 0.19337(19) 0.4246(2) 0.39546(15)
H13_6 H 0.157 0.4253 0.3678
C23_6 C 0.3986(2) 0.5403(3) 0.47350(16)
H14_6 H 0.3957 0.5253 0.5071
C24_6 C 0.56525(17) 0.5446(2) 0.36386(14)
C25_6 C 0.35241(18) 0.5196(2) 0.42992(14)
C26_6 C 0.6125(2) 0.2834(2) 0.07955(15)
C27_6 C 0.24221(18) 0.4724(2) 0.39316(14)
H15_6 H 0.2386 0.505 0.3646
C28_6 C 0.94122(19) 0.3616(2) 0.34884(15)
C29_6 C 0.8968(3) 0.3278(3) 0.3081(2)
H16_6 H 0.9033 0.2786 0.2984
C30_6 C 0.77170(19) 0.4763(2) 0.26826(15)
C31_6 C 0.4490(2) 0.5830(3) 0.46753(15)
H17_6 H 0.4795 0.5964 0.4978
C32_6 C 0.6707(2) 0.2632(3) 0.11248(17)
H18_6 H 0.7028 0.2438 0.0981
C33_6 C 0.3607(2) 0.5410(3) 0.38070(16)
H19_6 H 0.3319 0.5258 0.3499
C34_6 C 0.4122(2) 0.5849(3) 0.37809(16)
H20_6 H 0.4165 0.6005 0.3451
C35_6 C 0.6463(3) 0.3064(3) 0.24744(18)
C36_6 C 0.6331(3) 0.3012(3) 0.18887(17)
C37_6 C 0.8432(2) 0.3661(3) 0.2818(2)
H21_6 H 0.8151 0.3437 0.2533
C38_6 C 0.6164(3) 0.3542(3) 0.32718(17)
H22_6 H 0.6276 0.3077 0.3432
C39_6 C 0.5746(2) 0.3216(3) 0.15552(16)
H23_6 H 0.5422 0.3403 0.1697
C40_6 C 0.6807(3) 0.2720(4) 0.16669(19)
H24_6 H 0.7196 0.2584 0.1887
O11_4 O 0.56450(12) 0.68474(16) 0.49054(10)
O13_4 O 0.63448(13) 0.77985(16) 0.50679(10)
O3_4 O 0.56450(12) 0.31526(16) 0.99054(10)
Zn3_4 Zn 0.540930(19) 0.34259(2) 0.912569(15)
Zn5_4 Zn 0.624614(19) 0.19572(2) 0.931323(15)
O6_7 O 0.24538(14) 0.04308(19) 0.72327(11)
O7_4 O 0.49586(12) 0.25153(15) 0.87512(10)
O9_4 O 0.54525(12) 0.14326(16) 0.90305(11)
C2_7 C 0.10025(19) 0.0658(2) 0.75075(15)
H1_7 H 0.1007 0.0581 0.7155
C7_7 C 0.08087(18) 0.0193(2) 0.83214(14)
C8_7 C 0.08086(18) 0.0084(2) 0.77953(14)
C9_7 C 0.49835(18) 0.1805(2) 0.87734(15)
C10_7 C 0.43172(19) 0.0646(2) 0.86202(15)
H6_7 H 0.4624 0.0398 0.8875
H7_7 H 0.2609 0.0057 0.8683
C12_7 C 0.0654(2) 0.1866(2) 0.60077(15)
H8_7 H 0.0271 0.1716 0.5784
C13_7 C 0.1191(2) 0.1352(3) 0.77476(15)
C14_7 C 0.10300(18) 0.2281(2) 0.52103(14)
O10_7 O 0.1829(3) 0.2408(3) 0.77364(14)
C15_7 C 0.0976(2) 0.0890(3) 0.85552(15)
H9_7 H 0.096 0.0972 0.8905
C18_7 C 0.3313(2) 0.0625(2) 0.79768(15)
C21_7 C 0.37582(18) 0.0276(2) 0.83676(15)
C26_7 C 0.1125(2) 0.2166(2) 0.57955(15)
C28_7 C 0.44122(19) 0.1384(2) 0.84884(15)
C29_7 C 0.3968(3) 0.1722(3) 0.8081(2)
H16_7 H 0.4033 0.2214 0.7984
C30_7 C 0.27170(19) 0.0237(2) 0.76826(15)
C32_7 C 0.1707(2) 0.2368(3) 0.61248(17)
H18_7 H 0.2028 0.2562 0.5981
C35_7 C 0.1463(3) 0.1936(3) 0.74744(18)
C36_7 C 0.1331(3) 0.1988(3) 0.68887(17)
C37_7 C 0.3432(2) 0.1339(3) 0.7818(2)
H21_7 H 0.3151 0.1563 0.7533
C38_7 C 0.1164(3) 0.1458(3) 0.82718(17)
H22_7 H 0.1276 0.1923 0.8432
C39_7 C 0.0746(2) 0.1784(3) 0.65552(16)
H23_7 H 0.0422 0.1597 0.6697
C40_7 C 0.1807(3) 0.2280(4) 0.66669(19)
H24_7 H 0.2196 0.2416 0.6887
O1_7 O 0.03778(12) 0.89746(15) 0.83995(9)
O2_7 O 0.08170(12) 0.95786(15) 0.91380(9)
O4_7 O 0.13930(12) 0.79979(15) 0.90799(10)
O5_7 O 0.14209(14) 0.72577(16) 0.83988(10)
C1_7 C 0.18256(18) 0.8500(2) 0.83815(14)
C5_7 C 0.15172(18) 0.7876(2) 0.86164(14)
C6_7 C 0.18565(19) 0.8457(2) 0.78555(15)
H4_7 H 0.1675 0.8048 0.7651
H5_7 H 0.0678 0.9624 0.7634
C11_7 C 0.24136(18) 0.9660(2) 0.84732(15)
C16_7 C 0.21013(17) 0.9113(2) 0.86885(14)
H10_7 H 0.2074 0.9152 0.9038
C17_7 C 0.24380(17) 0.9621(2) 0.79427(14)
C20_7 C 0.21479(18) 0.9004(2) 0.76359(14)
H11_7 H 0.2156 0.8973 0.7281
H12_7 H 0.3687 0.9786 0.8466
C24_7 C 0.06525(17) 0.9554(2) 0.86386(14)
O14_4 O 0.04525(12) 0.64326(16) 0.90305(11)
N3_4 N 0.19559(14) 0.62291(18) 0.93558(11)
N2_4 N 0.69559(14) 0.12291(18) 0.93558(11)
C3_7 C 0.79914(18) 0.0761(2) 0.97600(14)
C4_7 C 0.74808(18) 0.1221(2) 0.97574(14)
C19_7 C 0.79714(17) 0.0281(2) 0.93370(14)
C22_7 C 0.69337(19) 0.0754(2) 0.89546(15)
H13_7 H 0.657 0.0747 0.8678
C27_7 C 0.74221(18) 0.0276(2) 0.89316(14)
N1_7 N 0.95667(15) 0.89380(19) 0.92155(11)
C23_7 C 0.8986(2) 0.9597(3) 0.97350(16)
C25_7 C 0.85241(18) 0.9804(2) 0.92992(14)
H15_7 H 0.7386 0.995 0.8646
C31_7 C 0.9490(2) 0.9170(3) 0.96753(15)
H17_7 H 0.9795 0.9036 0.9978
C33_7 C 0.8607(2) 0.9590(3) 0.88070(16)
H19_7 H 0.8319 0.9742 0.8499
C34_7 C 0.9122(2) 0.9151(3) 0.87809(16)
H20_7 H 0.9165 0.8995 0.8451
O12_4 O 0.99586(12) 0.75153(15) 0.87512(10)
H2_7 H 0.3347 0.5772 0.0043
H3_7 H 0.2498 0.654 0.0044
H14_7 H 0.3957 0.4747 0.0071
O1_8 O 0.53778(12) 0.39746(15) 0.83995(9)
O2_8 O 0.58170(12) 0.45786(15) 0.91380(9)
O4_8 O 0.63930(12) 0.29979(15) 0.90799(10)
O5_8 O 0.64209(14) 0.22577(16) 0.83988(10)
O6_8 O 0.74538(14) 0.54308(19) 0.72327(11)
N1_8 N 0.45667(15) 0.39380(19) 0.92155(11)
C1_8 C 0.68256(18) 0.3500(2) 0.83815(14)
C2_8 C 0.60025(19) 0.5658(2) 0.75075(15)
H1_8 H 0.6007 0.5581 0.7155
C3_8 C 0.29914(18) 0.5761(2) 0.97600(14)
C4_8 C 0.24808(18) 0.6221(2) 0.97574(14)
C5_8 C 0.65172(18) 0.2876(2) 0.86164(14)
C6_8 C 0.68565(19) 0.3457(2) 0.78555(15)
H4_8 H 0.6675 0.3048 0.7651
C7_8 C 0.58087(18) 0.5193(2) 0.83214(14)
C8_8 C 0.58086(18) 0.5084(2) 0.77953(14)
H5_8 H 0.5678 0.4624 0.7634
C9_8 C 0.99835(18) 0.6805(2) 0.87734(15)
C10_8 C 0.93172(19) 0.5646(2) 0.86202(15)
H6_8 H 0.9624 0.5398 0.8875
C11_8 C 0.74136(18) 0.4660(2) 0.84732(15)
H7_8 H 0.7609 0.5057 0.8683
C12_8 C 0.5654(2) 0.6866(2) 0.60077(15)
H8_8 H 0.5271 0.6716 0.5784
C13_8 C 0.6191(2) 0.6352(3) 0.77476(15)
C14_8 C 0.60300(18) 0.7281(2) 0.52103(14)
O10_8 O 0.6829(3) 0.7408(3) 0.77364(14)
C15_8 C 0.5976(2) 0.5890(3) 0.85552(15)
H9_8 H 0.596 0.5972 0.8905
C16_8 C 0.71013(17) 0.4113(2) 0.86885(14)
H10_8 H 0.7074 0.4152 0.9038
C17_8 C 0.74380(17) 0.4621(2) 0.79427(14)
C18_8 C 0.8313(2) 0.5625(2) 0.79768(15)
C19_8 C 0.29714(17) 0.5281(2) 0.93370(14)
C20_8 C 0.71479(18) 0.4004(2) 0.76359(14)
H11_8 H 0.7156 0.3973 0.7281
C21_8 C 0.87582(18) 0.5276(2) 0.83676(15)
H12_8 H 0.8687 0.4786 0.8466
C22_8 C 0.19337(19) 0.5754(2) 0.89546(15)
H13_8 H 0.157 0.5747 0.8678
C23_8 C 0.3986(2) 0.4597(3) 0.97350(16)
C24_8 C 0.56525(17) 0.4554(2) 0.86386(14)
C25_8 C 0.35241(18) 0.4804(2) 0.92992(14)
C26_8 C 0.6125(2) 0.7166(2) 0.57955(15)
C27_8 C 0.24221(18) 0.5276(2) 0.89316(14)
H15_8 H 0.2386 0.495 0.8646
C28_8 C 0.94122(19) 0.6384(2) 0.84884(15)
C29_8 C 0.8968(3) 0.6722(3) 0.8081(2)
H16_8 H 0.9033 0.7214 0.7984
C30_8 C 0.77170(19) 0.5237(2) 0.76826(15)
C31_8 C 0.4490(2) 0.4170(3) 0.96753(15)
H17_8 H 0.4795 0.4036 0.9978
C32_8 C 0.6707(2) 0.7368(3) 0.61248(17)
H18_8 H 0.7028 0.7562 0.5981
C33_8 C 0.3607(2) 0.4590(3) 0.88070(16)
H19_8 H 0.3319 0.4742 0.8499
C34_8 C 0.4122(2) 0.4151(3) 0.87809(16)
H20_8 H 0.4165 0.3995 0.8451
C35_8 C 0.6463(3) 0.6936(3) 0.74744(18)
C36_8 C 0.6331(3) 0.6988(3) 0.68887(17)
C37_8 C 0.8432(2) 0.6339(3) 0.7818(2)
H21_8 H 0.8151 0.6563 0.7533
C38_8 C 0.6164(3) 0.6458(3) 0.82718(17)
H22_8 H 0.6276 0.6923 0.8432
C39_8 C 0.5746(2) 0.6784(3) 0.65552(16)
H23_8 H 0.5422 0.6597 0.6697
C40_8 C 0.6807(3) 0.7280(4) 0.66669(19)
H24_8 H 0.7196 0.7416 0.6887
H2_8 H 0.8347 0.0772 0.0043
H3_8 H 0.7498 0.154 0.0044
H14_8 H 0.8957 0.9747 0.0071
loop_
_geom_bond_atom_site_label_1
_geom_bond_atom_site_label_2
_geom_bond_site_symmetry_1
_geom_bond_site_symmetry_2
C31 N1 1_555 1_555
H17 C31 1_555 1_555
C33 C25 1_555 1_555
H19 C33 1_555 1_555
C34 N1 1_555 1_555
H20 C34 1_555 1_555
C23 C25 1_555 1_555
C23 C31 1_555 1_555
C33 C34 1_555 1_555
N2 C4 1_555 1_555
C4 C3 1_555 1_555
C19 C3 1_555 1_555
C22 N2 1_555 1_555
H13 C22 1_555 1_555
C27 C19 1_555 1_555
Zn7 N2 1_555 1_555
C22 C27 1_555 1_555
Zn1 O1 1_555 1_555
Zn2 O4 1_555 1_555
O1 C24 1_555 1_555
O2 Zn1 1_555 1_555
O4 Zn1 1_555 1_555
O5 C5 1_555 1_555
C1 C5 1_555 1_555
C5 O4 1_555 1_555
C6 C1 1_555 1_555
H4 C6 1_555 1_555
C16 C1 1_555 1_555
H10 C16 1_555 1_555
C17 C11 1_555 1_555
C20 C6 1_555 1_555
H11 C20 1_555 1_555
C24 O2 1_555 1_555
O11 Zn1 1_555 1_555
O14 Zn2 1_555 1_555
N3 Zn2 1_555 1_555
C11 C16 1_555 1_555
C17 C20 1_555 1_555
O3 C14 1_555 1_555
O6 C30 1_555 1_555
O7 C9 1_555 1_555
O8 C14 1_555 1_555
O9 C9 1_555 1_555
C2 H1 1_555 1_555
C7 C8 1_555 1_555
C8 C2 1_555 1_555
C9 C28 1_555 1_555
C10 H6 1_555 1_555
C12 H8 1_555 1_555
C13 C2 1_555 1_555
C14 C26 1_555 1_555
O10 C35 1_555 1_555
C15 C7 1_555 1_555
H9 C15 1_555 1_555
C18 C21 1_555 1_555
C21 C10 1_555 1_555
C26 C12 1_555 1_555
C28 C10 1_555 1_555
C29 C28 1_555 1_555
H16 C29 1_555 1_555
C32 C26 1_555 1_555
H18 C32 1_555 1_555
C35 C13 1_555 1_555
C36 C35 1_555 1_555
C37 C18 1_555 1_555
H21 C37 1_555 1_555
C38 C13 1_555 1_555
H22 C38 1_555 1_555
C39 C12 1_555 1_555
H23 C39 1_555 1_555
C40 C32 1_555 1_555
H24 C40 1_555 1_555
Zn3 O3 1_555 1_555
Zn4 O7 1_555 1_555
Zn5 O8 1_555 1_555
Zn7 O9 1_555 1_555
C15 C38 1_555 1_555
C18 C30 1_555 1_555
C29 C37 1_555 1_555
C36 C39 1_555 1_555
C36 C40 1_555 1_555
Zn4 O1_2 1_555 1_555
Zn7 O4_2 1_555 1_555
O1_2 C24_2 1_555 1_555
O2_2 Zn4 1_555 1_555
O3_2 C14_2 1_555 1_555
O4_2 Zn4 1_555 1_555
O5_2 C5_2 1_555 1_555
O6_2 C30_2 1_555 1_555
O12 C9_2 1_555 1_555
O8_2 C14_2 1_555 1_555
N1_2 Zn4 1_555 1_555
N3 C4_2 1_555 1_555
C1_2 C5_2 1_555 1_555
C2_2 H1_2 1_555 1_555
C4_2 C3_2 1_555 1_555
C5_2 O4_2 1_555 1_555
C6_2 C1_2 1_555 1_555
H4_2 C6_2 1_555 1_555
C7_2 C8_2 1_555 1_555
C8_2 C2_2 1_555 1_555
H5_2 C8_2 1_555 1_555
C9_2 C28_2 1_555 1_555
C10_2 H6_2 1_555 1_555
C11_2 H7_2 1_555 1_555
C12_2 H8_2 1_555 1_555
C13_2 C2_2 1_555 1_555
C14_2 C26_2 1_555 1_555
O10_2 C35_2 1_555 1_555
C15_2 C7_2 1_555 1_555
H9_2 C15_2 1_555 1_555
C16_2 C1_2 1_555 1_555
H10_2 C16_2 1_555 1_555
C17_2 C11_2 1_555 1_555
C18_2 C21_2 1_555 1_555
C19_2 C3_2 1_555 1_555
C20_2 C6_2 1_555 1_555
H11_2 C20_2 1_555 1_555
C21_2 C10_2 1_555 1_555
H12_2 C21_2 1_555 1_555
C22_2 N3 1_555 1_555
H13_2 C22_2 1_555 1_555
C24_2 O2_2 1_555 1_555
C25_2 C19_2 1_555 1_555
C26_2 C12_2 1_555 1_555
C27_2 C19_2 1_555 1_555
H15_2 C27_2 1_555 1_555
C28_2 C10_2 1_555 1_555
C29_2 C28_2 1_555 1_555
H16_2 C29_2 1_555 1_555
C30_2 C17_2 1_555 1_555
C31_2 N1_2 1_555 1_555
H17_2 C31_2 1_555 1_555
C32_2 C26_2 1_555 1_555
H18_2 C32_2 1_555 1_555
C33_2 C25_2 1_555 1_555
H19_2 C33_2 1_555 1_555
C34_2 N1_2 1_555 1_555
H20_2 C34_2 1_555 1_555
C35_2 C13_2 1_555 1_555
C36_2 C35_2 1_555 1_555
C37_2 C18_2 1_555 1_555
H21_2 C37_2 1_555 1_555
C38_2 C13_2 1_555 1_555
H22_2 C38_2 1_555 1_555
C39_2 C12_2 1_555 1_555
H23_2 C39_2 1_555 1_555
C40_2 C32_2 1_555 1_555
H24_2 C40_2 1_555 1_555
Zn3_2 O3_2 1_555 1_555
Zn5_2 O8_2 1_555 1_555
O11_2 Zn4 1_555 1_555
C7_2 C24_2 1_555 1_555
C11_2 C16_2 1_555 1_555
C15_2 C38_2 1_555 1_555
C17_2 C20_2 1_555 1_555
C18_2 C30_2 1_555 1_555
C22_2 C27_2 1_555 1_555
C23_2 C25_2 1_555 1_555
C23_2 C31_2 1_555 1_555
C29_2 C37_2 1_555 1_555
C33_2 C34_2 1_555 1_555
C36_2 C39_2 1_555 1_555
C36_2 C40_2 1_555 1_555
N2_2 C4_3 1_555 1_555
C3_3 H2_2 1_555 1_555
C4_3 C3_3 1_555 1_555
H3_2 C4_3 1_555 1_555
C19_3 C3_3 1_555 1_555
C22_3 N2_2 1_555 1_555
H13_3 C22_3 1_555 1_555
C27_3 C19_3 1_555 1_555
Zn5_2 N2_2 1_555 1_555
C22_3 C27_3 1_555 1_555
C23_3 H14_2 1_555 1_555
C31_3 N1_3 1_555 1_555
H17_3 C31_3 1_555 1_555
C33_3 C25_3 1_555 1_555
H19_3 C33_3 1_555 1_555
C34_3 N1_3 1_555 1_555
H20_3 C34_3 1_555 1_555
C23_3 C25_3 1_555 1_555
C23_3 C31_3 1_555 1_555
C33_3 C34_3 1_555 1_555
O6_3 C30_3 1_555 1_555
O7_2 C9_3 1_555 1_555
O13 C14_3 1_555 1_555
O9_2 C9_3 1_555 1_555
C2_3 H1_3 1_555 1_555
C7_3 C8_3 1_555 1_555
C8_3 C2_3 1_555 1_555
C9_3 C28_3 1_555 1_555
C10_3 H6_3 1_555 1_555
C12_3 H8_3 1_555 1_555
C13_3 C2_3 1_555 1_555
C14_3 C26_3 1_555 1_555
O10_3 C35_3 1_555 1_555
C15_3 C7_3 1_555 1_555
H9_3 C15_3 1_555 1_555
C18_3 C21_3 1_555 1_555
C21_3 C10_3 1_555 1_555
C26_3 C12_3 1_555 1_555
C28_3 C10_3 1_555 1_555
C29_3 C28_3 1_555 1_555
H16_3 C29_3 1_555 1_555
C32_3 C26_3 1_555 1_555
H18_3 C32_3 1_555 1_555
C35_3 C13_3 1_555 1_555
C36_3 C35_3 1_555 1_555
C37_3 C18_3 1_555 1_555
H21_3 C37_3 1_555 1_555
C38_3 C13_3 1_555 1_555
H22_3 C38_3 1_555 1_555
C39_3 C12_3 1_555 1_555
H23_3 C39_3 1_555 1_555
C40_3 C32_3 1_555 1_555
H24_3 C40_3 1_555 1_555
Zn3_2 O7_2 1_555 1_555
Zn5_2 O9_2 1_555 1_555
C15_3 C38_3 1_555 1_555
C18_3 C30_3 1_555 1_555
C29_3 C37_3 1_555 1_555
C36_3 C39_3 1_555 1_555
C36_3 C40_3 1_555 1_555
Zn3 O1_3 1_555 1_555
Zn5 O4_3 1_555 1_555
O1_3 C24_3 1_555 1_555
O2_3 Zn3 1_555 1_555
O4_3 Zn3 1_555 1_555
O5_3 C5_3 1_555 1_555
C1_3 C5_3 1_555 1_555
C5_3 O4_3 1_555 1_555
C6_3 C1_3 1_555 1_555
H4_3 C6_3 1_555 1_555
C16_3 C1_3 1_555 1_555
H10_3 C16_3 1_555 1_555
C17_3 C11_3 1_555 1_555
C20_3 C6_3 1_555 1_555
H11_3 C20_3 1_555 1_555
C24_3 O2_3 1_555 1_555
O14_2 Zn5 1_555 1_555
N3_2 Zn5 1_555 1_555
C11_3 C16_3 1_555 1_555
C17_3 C20_3 1_555 1_555
Zn3_2 O1_4 1_555 1_555
Zn5_2 O4_4 1_555 1_555
O1_4 C24_4 1_555 1_555
O2_4 Zn3_2 1_555 1_555
O4_4 Zn3_2 1_555 1_555
O5_4 C5_4 1_555 1_555
O6_4 C30_4 1_555 1_555
O12_2 C9_4 1_555 1_555
O13_2 C14_4 1_555 1_555
N1_4 Zn3_2 1_555 1_555
N3_2 C4_4 1_555 1_555
C1_4 C5_4 1_555 1_555
C2_4 H1_4 1_555 1_555
C3_4 H2_3 1_555 1_555
C4_4 C3_4 1_555 1_555
H3_3 C4_4 1_555 1_555
C5_4 O4_4 1_555 1_555
C6_4 C1_4 1_555 1_555
H4_4 C6_4 1_555 1_555
C7_4 C8_4 1_555 1_555
C8_4 C2_4 1_555 1_555
H5_4 C8_4 1_555 1_555
C9_4 C28_4 1_555 1_555
C10_4 H6_4 1_555 1_555
C11_4 H7_4 1_555 1_555
C12_4 H8_4 1_555 1_555
C13_4 C2_4 1_555 1_555
C14_4 C26_4 1_555 1_555
O10_4 C35_4 1_555 1_555
C15_4 C7_4 1_555 1_555
H9_4 C15_4 1_555 1_555
C16_4 C1_4 1_555 1_555
H10_4 C16_4 1_555 1_555
C17_4 C11_4 1_555 1_555
C18_4 C21_4 1_555 1_555
C19_4 C3_4 1_555 1_555
C20_4 C6_4 1_555 1_555
H11_4 C20_4 1_555 1_555
C21_4 C10_4 1_555 1_555
H12_4 C21_4 1_555 1_555
C22_4 N3_2 1_555 1_555
H13_4 C22_4 1_555 1_555
C23_4 H14_3 1_555 1_555
C24_4 O2_4 1_555 1_555
C25_4 C19_4 1_555 1_555
C26_4 C12_4 1_555 1_555
C27_4 C19_4 1_555 1_555
H15_4 C27_4 1_555 1_555
C28_4 C10_4 1_555 1_555
C29_4 C28_4 1_555 1_555
H16_4 C29_4 1_555 1_555
C30_4 C17_4 1_555 1_555
C31_4 N1_4 1_555 1_555
H17_4 C31_4 1_555 1_555
C32_4 C26_4 1_555 1_555
H18_4 C32_4 1_555 1_555
C33_4 C25_4 1_555 1_555
H19_4 C33_4 1_555 1_555
C34_4 N1_4 1_555 1_555
H20_4 C34_4 1_555 1_555
C35_4 C13_4 1_555 1_555
C36_4 C35_4 1_555 1_555
C37_4 C18_4 1_555 1_555
H21_4 C37_4 1_555 1_555
C38_4 C13_4 1_555 1_555
H22_4 C38_4 1_555 1_555
C39_4 C12_4 1_555 1_555
H23_4 C39_4 1_555 1_555
C40_4 C32_4 1_555 1_555
H24_4 C40_4 1_555 1_555
C7_4 C24_4 1_555 1_555
C11_4 C16_4 1_555 1_555
C15_4 C38_4 1_555 1_555
C17_4 C20_4 1_555 1_555
C18_4 C30_4 1_555 1_555
C22_4 C27_4 1_555 1_555
C23_4 C25_4 1_555 1_555
C23_4 C31_4 1_555 1_555
C29_4 C37_4 1_555 1_555
C33_4 C34_4 1_555 1_555
C36_4 C39_4 1_555 1_555
C36_4 C40_4 1_555 1_555
Zn1_2 O1_5 1_555 1_555
Zn2_2 O4_5 1_555 1_555
O1_5 C24_5 1_555 1_555
O2_5 Zn1_2 1_555 1_555
O4_5 Zn1_2 1_555 1_555
O5_5 C5_5 1_555 1_555
C1_5 C5_5 1_555 1_555
C5_5 O4_5 1_555 1_555
C6_5 C1_5 1_555 1_555
H4_5 C6_5 1_555 1_555
C16_5 C1_5 1_555 1_555
H10_5 C16_5 1_555 1_555
C17_5 C11_5 1_555 1_555
C20_5 C6_5 1_555 1_555
H11_5 C20_5 1_555 1_555
C24_5 O2_5 1_555 1_555
O11_3 Zn1_2 1_555 1_555
O13_3 Zn2_2 1_555 1_555
O14_3 Zn2_2 1_555 1_555
N3_3 Zn2_2 1_555 1_555
C11_5 C16_5 1_555 1_555
C17_5 C20_5 1_555 1_555
O6_5 C30_5 1_555 1_555
O7_3 C9_5 1_555 1_555
O8_3 C14_5 1_555 1_555
O9_3 C9_5 1_555 1_555
C2_5 H1_5 1_555 1_555
C7_5 C8_5 1_555 1_555
C8_5 C2_5 1_555 1_555
C9_5 C28_5 1_555 1_555
C10_5 H6_5 1_555 1_555
C12_5 H8_5 1_555 1_555
C13_5 C2_5 1_555 1_555
C14_5 C26_5 1_555 1_555
O10_5 C35_5 1_555 1_555
C15_5 C7_5 1_555 1_555
H9_5 C15_5 1_555 1_555
C18_5 C21_5 1_555 1_555
C21_5 C10_5 1_555 1_555
C26_5 C12_5 1_555 1_555
C28_5 C10_5 1_555 1_555
C29_5 C28_5 1_555 1_555
H16_5 C29_5 1_555 1_555
C32_5 C26_5 1_555 1_555
H18_5 C32_5 1_555 1_555
C35_5 C13_5 1_555 1_555
C36_5 C35_5 1_555 1_555
C37_5 C18_5 1_555 1_555
H21_5 C37_5 1_555 1_555
C38_5 C13_5 1_555 1_555
H22_5 C38_5 1_555 1_555
C39_5 C12_5 1_555 1_555
H23_5 C39_5 1_555 1_555
C40_5 C32_5 1_555 1_555
H24_5 C40_5 1_555 1_555
Zn4_2 O7_3 1_555 1_555
Zn6 O9_3 1_555 1_555
C15_5 C38_5 1_555 1_555
C18_5 C30_5 1_555 1_555
C29_5 C37_5 1_555 1_555
C36_5 C39_5 1_555 1_555
C36_5 C40_5 1_555 1_555
Zn3_3 O3_3 1_555 1_555
C23_5 H14_5 1_555 1_555
C31_5 N1_5 1_555 1_555
H17_5 C31_5 1_555 1_555
C33_5 C25_5 1_555 1_555
H19_5 C33_5 1_555 1_555
C34_5 N1_5 1_555 1_555
H20_5 C34_5 1_555 1_555
C23_5 C25_5 1_555 1_555
C23_5 C31_5 1_555 1_555
C33_5 C34_5 1_555 1_555
N2_3 C4_5 1_555 1_555
C3_5 H2_5 1_555 1_555
C4_5 C3_5 1_555 1_555
H3_5 C4_5 1_555 1_555
C19_5 C3_5 1_555 1_555
C22_5 N2_3 1_555 1_555
H13_5 C22_5 1_555 1_555
C27_5 C19_5 1_555 1_555
Zn6 N2_3 1_555 1_555
C22_5 C27_5 1_555 1_555
Zn4_2 O1_6 1_555 1_555
Zn6 O4_6 1_555 1_555
O1_6 C24_6 1_555 1_555
O2_6 Zn4_2 1_555 1_555
O4_6 Zn4_2 1_555 1_555
O5_6 C5_6 1_555 1_555
O6_6 C30_6 1_555 1_555
O12_3 C9_6 1_555 1_555
O8_4 C14_6 1_555 1_555
N1_6 Zn4_2 1_555 1_555
N3_3 C4_6 1_555 1_555
C1_6 C5_6 1_555 1_555
C2_6 H1_6 1_555 1_555
C3_6 H2_6 1_555 1_555
C4_6 C3_6 1_555 1_555
H3_6 C4_6 1_555 1_555
C5_6 O4_6 1_555 1_555
C6_6 C1_6 1_555 1_555
H4_6 C6_6 1_555 1_555
C7_6 C8_6 1_555 1_555
C8_6 C2_6 1_555 1_555
H5_6 C8_6 1_555 1_555
C9_6 C28_6 1_555 1_555
C10_6 H6_6 1_555 1_555
C11_6 H7_6 1_555 1_555
C12_6 H8_6 1_555 1_555
C13_6 C2_6 1_555 1_555
C14_6 C26_6 1_555 1_555
O10_6 C35_6 1_555 1_555
C15_6 C7_6 1_555 1_555
H9_6 C15_6 1_555 1_555
C16_6 C1_6 1_555 1_555
H10_6 C16_6 1_555 1_555
C17_6 C11_6 1_555 1_555
C18_6 C21_6 1_555 1_555
C19_6 C3_6 1_555 1_555
C20_6 C6_6 1_555 1_555
H11_6 C20_6 1_555 1_555
C21_6 C10_6 1_555 1_555
H12_6 C21_6 1_555 1_555
C22_6 N3_3 1_555 1_555
H13_6 C22_6 1_555 1_555
C23_6 H14_6 1_555 1_555
C24_6 O2_6 1_555 1_555
C25_6 C19_6 1_555 1_555
C26_6 C12_6 1_555 1_555
C27_6 C19_6 1_555 1_555
H15_6 C27_6 1_555 1_555
C28_6 C10_6 1_555 1_555
C29_6 C28_6 1_555 1_555
H16_6 C29_6 1_555 1_555
C30_6 C17_6 1_555 1_555
C31_6 N1_6 1_555 1_555
H17_6 C31_6 1_555 1_555
C32_6 C26_6 1_555 1_555
H18_6 C32_6 1_555 1_555
C33_6 C25_6 1_555 1_555
H19_6 C33_6 1_555 1_555
C34_6 N1_6 1_555 1_555
H20_6 C34_6 1_555 1_555
C35_6 C13_6 1_555 1_555
C36_6 C35_6 1_555 1_555
C37_6 C18_6 1_555 1_555
H21_6 C37_6 1_555 1_555
C38_6 C13_6 1_555 1_555
H22_6 C38_6 1_555 1_555
C39_6 C12_6 1_555 1_555
H23_6 C39_6 1_555 1_555
C40_6 C32_6 1_555 1_555
H24_6 C40_6 1_555 1_555
O11_4 Zn4_2 1_555 1_555
O13_4 Zn6 1_555 1_555
C7_6 C24_6 1_555 1_555
C11_6 C16_6 1_555 1_555
C15_6 C38_6 1_555 1_555
C17_6 C20_6 1_555 1_555
C18_6 C30_6 1_555 1_555
C22_6 C27_6 1_555 1_555
C23_6 C25_6 1_555 1_555
C23_6 C31_6 1_555 1_555
C29_6 C37_6 1_555 1_555
C33_6 C34_6 1_555 1_555
C36_6 C39_6 1_555 1_555
C36_6 C40_6 1_555 1_555
Zn3_4 O3_4 1_555 1_555
O11_3 C14_7 1_555 1_555
O6_7 C30_7 1_555 1_555
O7_4 C9_7 1_555 1_555
O13_3 C14_7 1_555 1_555
O9_4 C9_7 1_555 1_555
C2_7 H1_7 1_555 1_555
C7_7 C8_7 1_555 1_555
C8_7 C2_7 1_555 1_555
C9_7 C28_7 1_555 1_555
C10_7 H6_7 1_555 1_555
C12_7 H8_7 1_555 1_555
C13_7 C2_7 1_555 1_555
C14_7 C26_7 1_555 1_555
O10_7 C35_7 1_555 1_555
C15_7 C7_7 1_555 1_555
H9_7 C15_7 1_555 1_555
C18_7 C21_7 1_555 1_555
C21_7 C10_7 1_555 1_555
C26_7 C12_7 1_555 1_555
C28_7 C10_7 1_555 1_555
C29_7 C28_7 1_555 1_555
H16_7 C29_7 1_555 1_555
C32_7 C26_7 1_555 1_555
H18_7 C32_7 1_555 1_555
C35_7 C13_7 1_555 1_555
C36_7 C35_7 1_555 1_555
C37_7 C18_7 1_555 1_555
H21_7 C37_7 1_555 1_555
C38_7 C13_7 1_555 1_555
H22_7 C38_7 1_555 1_555
C39_7 C12_7 1_555 1_555
H23_7 C39_7 1_555 1_555
C40_7 C32_7 1_555 1_555
H24_7 C40_7 1_555 1_555
Zn3_4 O7_4 1_555 1_555
Zn5_4 O9_4 1_555 1_555
C15_7 C38_7 1_555 1_555
C18_7 C30_7 1_555 1_555
C29_7 C37_7 1_555 1_555
C36_7 C39_7 1_555 1_555
C36_7 C40_7 1_555 1_555
Zn3_3 O1_7 1_555 1_555
Zn5_3 O4_7 1_555 1_555
O1_7 C24_7 1_555 1_555
O2_7 Zn3_3 1_555 1_555
O4_7 Zn3_3 1_555 1_555
O5_7 C5_7 1_555 1_555
C1_7 C5_7 1_555 1_555
C5_7 O4_7 1_555 1_555
C6_7 C1_7 1_555 1_555
H4_7 C6_7 1_555 1_555
C16_7 C1_7 1_555 1_555
H10_7 C16_7 1_555 1_555
C17_7 C11_7 1_555 1_555
C20_7 C6_7 1_555 1_555
H11_7 C20_7 1_555 1_555
C24_7 O2_7 1_555 1_555
O14_4 Zn5_3 1_555 1_555
N3_4 Zn5_3 1_555 1_555
C11_7 C16_7 1_555 1_555
C17_7 C20_7 1_555 1_555
N2_4 C4_7 1_555 1_555
C4_7 C3_7 1_555 1_555
C19_7 C3_7 1_555 1_555
C22_7 N2_4 1_555 1_555
H13_7 C22_7 1_555 1_555
C27_7 C19_7 1_555 1_555
Zn5_4 N2_4 1_555 1_555
C22_7 C27_7 1_555 1_555
C31_7 N1_7 1_555 1_555
H17_7 C31_7 1_555 1_555
C33_7 C25_7 1_555 1_555
H19_7 C33_7 1_555 1_555
C34_7 N1_7 1_555 1_555
H20_7 C34_7 1_555 1_555
C23_7 C25_7 1_555 1_555
C23_7 C31_7 1_555 1_555
C33_7 C34_7 1_555 1_555
Zn3_4 O1_8 1_555 1_555
Zn5_4 O4_8 1_555 1_555
O1_8 C24_8 1_555 1_555
O2_8 Zn3_4 1_555 1_555
O11_4 C14_8 1_555 1_555
O4_8 Zn3_4 1_555 1_555
O5_8 C5_8 1_555 1_555
O6_8 C30_8 1_555 1_555
O12_4 C9_8 1_555 1_555
O13_4 C14_8 1_555 1_555
N1_8 Zn3_4 1_555 1_555
N3_4 C4_8 1_555 1_555
C1_8 C5_8 1_555 1_555
C2_8 H1_8 1_555 1_555
C4_8 C3_8 1_555 1_555
C5_8 O4_8 1_555 1_555
C6_8 C1_8 1_555 1_555
H4_8 C6_8 1_555 1_555
C7_8 C8_8 1_555 1_555
C8_8 C2_8 1_555 1_555
H5_8 C8_8 1_555 1_555
C9_8 C28_8 1_555 1_555
C10_8 H6_8 1_555 1_555
C11_8 H7_8 1_555 1_555
C12_8 H8_8 1_555 1_555
C13_8 C2_8 1_555 1_555
C14_8 C26_8 1_555 1_555
O10_8 C35_8 1_555 1_555
C15_8 C7_8 1_555 1_555
H9_8 C15_8 1_555 1_555
C16_8 C1_8 1_555 1_555
H10_8 C16_8 1_555 1_555
C17_8 C11_8 1_555 1_555
C18_8 C21_8 1_555 1_555
C19_8 C3_8 1_555 1_555
C20_8 C6_8 1_555 1_555
H11_8 C20_8 1_555 1_555
C21_8 C10_8 1_555 1_555
H12_8 C21_8 1_555 1_555
C22_8 N3_4 1_555 1_555
H13_8 C22_8 1_555 1_555
C24_8 O2_8 1_555 1_555
C25_8 C19_8 1_555 1_555
C26_8 C12_8 1_555 1_555
C27_8 C19_8 1_555 1_555
H15_8 C27_8 1_555 1_555
C28_8 C10_8 1_555 1_555
C29_8 C28_8 1_555 1_555
H16_8 C29_8 1_555 1_555
C30_8 C17_8 1_555 1_555
C31_8 N1_8 1_555 1_555
H17_8 C31_8 1_555 1_555
C32_8 C26_8 1_555 1_555
H18_8 C32_8 1_555 1_555
C33_8 C25_8 1_555 1_555
H19_8 C33_8 1_555 1_555
C34_8 N1_8 1_555 1_555
H20_8 C34_8 1_555 1_555
C35_8 C13_8 1_555 1_555
C36_8 C35_8 1_555 1_555
C37_8 C18_8 1_555 1_555
H21_8 C37_8 1_555 1_555
C38_8 C13_8 1_555 1_555
H22_8 C38_8 1_555 1_555
C39_8 C12_8 1_555 1_555
H23_8 C39_8 1_555 1_555
C40_8 C32_8 1_555 1_555
H24_8 C40_8 1_555 1_555
C7_8 C24_8 1_555 1_555
C11_8 C16_8 1_555 1_555
C15_8 C38_8 1_555 1_555
C17_8 C20_8 1_555 1_555
C18_8 C30_8 1_555 1_555
C22_8 C27_8 1_555 1_555
C23_8 C25_8 1_555 1_555
C23_8 C31_8 1_555 1_555
C29_8 C37_8 1_555 1_555
C33_8 C34_8 1_555 1_555
C36_8 C39_8 1_555 1_555
C36_8 C40_8 1_555 1_555

#END
