
###############################################################################
#
# This file contains modified crystal structure data generated from the
# MOF subset of the Cambridge Structural Database (CSD) v543 
# hosted by the Cambridge Crystallographic Data Centre (CCDC).
#
# This work is licensed under the Creative Commons
# Attribution-NonCommercial-ShareAlike 4.0 International License.
# To view a copy of this license, visit
# http://creativecommons.org/licenses/by-nc-sa/4.0/
# or send a letter to
# Creative Commons, PO Box 1866, Mountain View, CA 94042, USA.
#
# CIF created using the CSD Python API on 29 September 2022
# The structure has been converted into the P1 space group
# The structure has a 3D framework
# The original CSD entry PUSXIL01 is in the tetragonal crystal system
# The framework has been calculated to contain at least 10.0% void space
# The void calculation uses a probe of radius 1.32A, grid spacing 0.4
# The framework is charged, counterions have been retained in the structure
# Generated hydrogen atom positions removed from atoms on special positions
#
###############################################################################

data_PUSXIL01
_chemical_formula_moiety         '(C128 H96 O128 P16 Zn24)n'
_symmetry_cell_setting           triclinic
_symmetry_space_group_name_H-M   'P 1'
_symmetry_Int_Tables_number      1
_space_group_name_Hall           'P 1'
loop_
_symmetry_equiv_pos_site_id
_symmetry_equiv_pos_as_xyz
1 x,y,z
_cell_length_a                   18.218(4)
_cell_length_b                   18.218(4)
_cell_length_c                   23.552(7)
_cell_angle_alpha                90
_cell_angle_beta                 90
_cell_angle_gamma                90
_cell_volume                     7816.8
loop_
_atom_site_label
_atom_site_type_symbol
_atom_site_fract_x
_atom_site_fract_y
_atom_site_fract_z
Zn1 Zn 0.28309(7) 0.27122(8) 0.02850(5)
Zn2 Zn 0.13068(11) 0.2500 0.1250
P1 P 0.2620(2) 0.14023(19) 0.10779(12)
O1 O 0.2983(5) 0.1719(5) 0.0554(4)
O2 O 0.1807(5) 0.1578(5) 0.1113(3)
O3 O 0.3017(5) 0.1596(5) 0.1623(4)
C1 C 0.2708(8) 0.0428(7) 0.0998(5)
H1 H 0.2705 0.0210 0.1837
C6 C 0.2689(8) 0.0068(7) 0.0483(4)
H3 H 0.2654 0.0342 0.0151
Zn3 Zn 0.28309(7) 0.22878(8) 0.22150(5)
Zn7 Zn 0.27122(8) 0.78309(7) 0.27850(5)
Zn9 Zn 0.2500 0.63068(11) 0.3750
P2 P 0.2620(2) 0.35977(19) 0.14221(12)
O8 O 0.2983(5) 0.3281(5) 0.1946(4)
O9 O 0.1807(5) 0.3422(5) 0.1387(3)
O10 O 0.3017(5) 0.3404(5) 0.0877(4)
O11 O 0.2795(7) 0.6890(6) 0.0530(4)
O13 O 0.3110(6) 0.2205(7) 0.3030(4)
O14 O 0.2809(8) 0.5893(6) 0.0043(4)
O15 O 0.2811(6) 0.6751(5) 0.2630(4)
O16 O 0.1751(5) 0.2811(6) 0.0130(4)
O17 O 0.1751(5) 0.2189(6) 0.2370(4)
O18 O 0.2603(6) 0.5682(5) 0.3064(3)
O19 O 0.0682(5) 0.2603(6) 0.0564(3)
O20 O 0.0682(5) 0.2397(6) 0.1936(3)
C9 C 0.2708(8) 0.4572(7) 0.1502(5)
C10 C 0.2723(9) 0.5012(7) 0.1019(5)
H4 H 0.2705 0.4790 0.0663
C11 C 0.2763(9) 0.5776(7) 0.1052(5)
C12 C 0.2779(8) 0.6114(7) 0.1568(5)
H5 H 0.2829 0.6621 0.1592
C13 C 0.2720(8) 0.5696(7) 0.2054(4)
C14 C 0.2689(8) 0.4932(7) 0.2017(4)
H6 H 0.2654 0.4658 0.2349
C15 C 0.2810(9) 0.6228(10) 0.0505(6)
C16 C 0.2693(9) 0.6085(7) 0.2624(5)
Zn6 Zn 0.27122(8) 0.71691(7) 0.97150(5)
O12 O 0.3110(6) 0.2795(7) 0.9470(4)
O4 O 0.2795(7) 0.8110(6) 0.1970(4)
O5 O 0.2809(8) 0.9107(6) 0.2457(4)
C2 C 0.2723(9) 0.9988(7) 0.1481(5)
C3 C 0.2763(9) 0.9224(7) 0.1448(5)
C4 C 0.2779(8) 0.8886(7) 0.0932(5)
H2 H 0.2829 0.8379 0.0908
C5 C 0.2720(8) 0.9304(7) 0.0446(4)
C7 C 0.2810(9) 0.8772(10) 0.1995(6)
O6 O 0.2811(6) 0.8249(5) 0.9870(4)
O7 O 0.2603(6) 0.9318(5) 0.9436(3)
C8 C 0.2693(9) 0.8915(7) 0.9876(5)
Zn8 Zn 0.2500 0.86932(11) 0.8750
O4_2 O 0.7205(7) 0.1890(6) 0.1970(4)
O5_2 O 0.7191(8) 0.0893(6) 0.2457(4)
C2_2 C 0.7277(9) 0.0012(7) 0.1481(5)
C3_2 C 0.7237(9) 0.0776(7) 0.1448(5)
C4_2 C 0.7221(8) 0.1114(7) 0.0932(5)
H2_2 H 0.7171 0.1621 0.0908
C5_2 C 0.7280(8) 0.0696(7) 0.0446(4)
C7_2 C 0.7190(9) 0.1228(10) 0.1995(6)
Zn4 Zn 0.72878(8) 0.21691(7) 0.27850(5)
O6_2 O 0.7189(6) 0.1751(5) 0.9870(4)
O7_2 O 0.7397(6) 0.0682(5) 0.9436(3)
C8_2 C 0.7307(9) 0.1085(7) 0.9876(5)
Zn5 Zn 0.72878(8) 0.28309(7) 0.97150(5)
Zn8_2 Zn 0.7500 0.13068(11) 0.8750
Zn1_2 Zn 0.71691(7) 0.72878(8) 0.02850(5)
Zn2_2 Zn 0.86932(11) 0.7500 0.1250
P1_2 P 0.7380(2) 0.85977(19) 0.10779(12)
O1_2 O 0.7017(5) 0.8281(5) 0.0554(4)
O2_2 O 0.8193(5) 0.8422(5) 0.1113(3)
O3_2 O 0.6983(5) 0.8404(5) 0.1623(4)
C1_2 C 0.7292(8) 0.9572(7) 0.0998(5)
H1_2 H 0.7295 0.9790 0.1837
C6_2 C 0.7311(8) 0.9932(7) 0.0483(4)
H3_2 H 0.7346 0.9658 0.0151
Zn3_2 Zn 0.71691(7) 0.77122(8) 0.22150(5)
Zn9_2 Zn 0.7500 0.36932(11) 0.3750
P2_2 P 0.7380(2) 0.64023(19) 0.14221(12)
O8_2 O 0.7017(5) 0.6719(5) 0.1946(4)
O9_2 O 0.8193(5) 0.6578(5) 0.1387(3)
O10_2 O 0.6983(5) 0.6596(5) 0.0877(4)
O11_2 O 0.7205(7) 0.3110(6) 0.0530(4)
O13_2 O 0.6890(6) 0.7795(7) 0.3030(4)
O14_2 O 0.7191(8) 0.4107(6) 0.0043(4)
O15_2 O 0.7189(6) 0.3249(5) 0.2630(4)
O16_2 O 0.8249(5) 0.7189(6) 0.0130(4)
O17_2 O 0.8249(5) 0.7811(6) 0.2370(4)
O18_2 O 0.7397(6) 0.4318(5) 0.3064(3)
O19_2 O 0.9318(5) 0.7397(6) 0.0564(3)
O20_2 O 0.9318(5) 0.7603(6) 0.1936(3)
C9_2 C 0.7292(8) 0.5428(7) 0.1502(5)
C10_2 C 0.7277(9) 0.4988(7) 0.1019(5)
H4_2 H 0.7295 0.5210 0.0663
C11_2 C 0.7237(9) 0.4224(7) 0.1052(5)
C12_2 C 0.7221(8) 0.3886(7) 0.1568(5)
H5_2 H 0.7171 0.3379 0.1592
C13_2 C 0.7280(8) 0.4304(7) 0.2054(4)
C14_2 C 0.7311(8) 0.5068(7) 0.2017(4)
H6_2 H 0.7346 0.5342 0.2349
C15_2 C 0.7190(9) 0.3772(10) 0.0505(6)
C16_2 C 0.7307(9) 0.3915(7) 0.2624(5)
O12_2 O 0.6890(6) 0.7205(7) 0.9470(4)
P1_3 P 0.14023(19) 0.7380(2) 0.89221(12)
O1_3 O 0.1719(5) 0.7017(5) 0.9446(4)
O2_3 O 0.1578(5) 0.8193(5) 0.8887(3)
O3_3 O 0.1596(5) 0.6983(5) 0.8377(4)
C1_3 C 0.0428(7) 0.7292(8) 0.9002(5)
H1_3 H 0.0210 0.7295 0.8163
C6_3 C 0.0068(7) 0.7311(8) 0.9517(4)
H3_3 H 0.0342 0.7346 0.9849
Zn3_3 Zn 0.22878(8) 0.71691(7) 0.77850(5)
Zn7_2 Zn 0.78309(7) 0.72878(8) 0.72150(5)
Zn9_3 Zn 0.63068(11) 0.7500 0.6250
P2_3 P 0.35977(19) 0.7380(2) 0.85779(12)
O8_3 O 0.3281(5) 0.7017(5) 0.8054(4)
O9_3 O 0.3422(5) 0.8193(5) 0.8613(3)
O10_3 O 0.3404(5) 0.6983(5) 0.9123(4)
O13_3 O 0.2205(7) 0.6890(6) 0.6970(4)
O14_3 O 0.5893(6) 0.7191(8) 0.9957(4)
O15_3 O 0.6751(5) 0.7189(6) 0.7370(4)
O17_3 O 0.2189(6) 0.8249(5) 0.7630(4)
O18_3 O 0.5682(5) 0.7397(6) 0.6936(3)
O20_3 O 0.2397(6) 0.9318(5) 0.8064(3)
C9_3 C 0.4572(7) 0.7292(8) 0.8498(5)
C10_3 C 0.5012(7) 0.7277(9) 0.8981(5)
H4_3 H 0.4790 0.7295 0.9337
C11_3 C 0.5776(7) 0.7237(9) 0.8948(5)
C12_3 C 0.6114(7) 0.7221(8) 0.8432(5)
H5_3 H 0.6621 0.7171 0.8408
C13_3 C 0.5696(7) 0.7280(8) 0.7946(4)
C14_3 C 0.4932(7) 0.7311(8) 0.7983(4)
H6_3 H 0.4658 0.7346 0.7651
C15_3 C 0.6228(10) 0.7190(9) 0.9495(6)
C16_3 C 0.6085(7) 0.7307(9) 0.7376(5)
C8_3 C 0.8915(7) 0.7307(9) 0.0124(5)
O4_3 O 0.8110(6) 0.7205(7) 0.8030(4)
O5_3 O 0.9107(6) 0.7191(8) 0.7543(4)
C2_3 C 0.9988(7) 0.7277(9) 0.8519(5)
C3_3 C 0.9224(7) 0.7237(9) 0.8552(5)
C4_3 C 0.8886(7) 0.7221(8) 0.9068(5)
H2_3 H 0.8379 0.7171 0.9092
C5_3 C 0.9304(7) 0.7280(8) 0.9554(4)
C7_3 C 0.8772(10) 0.7190(9) 0.8005(6)
C8_4 C 0.1085(7) 0.2693(9) 0.0124(5)
O4_4 O 0.1890(6) 0.2795(7) 0.8030(4)
O5_4 O 0.0893(6) 0.2809(8) 0.7543(4)
C2_4 C 0.0012(7) 0.2723(9) 0.8519(5)
C3_4 C 0.0776(7) 0.2763(9) 0.8552(5)
C4_4 C 0.1114(7) 0.2779(8) 0.9068(5)
H2_4 H 0.1621 0.2829 0.9092
C5_4 C 0.0696(7) 0.2720(8) 0.9554(4)
C7_4 C 0.1228(10) 0.2810(9) 0.8005(6)
Zn4_2 Zn 0.21691(7) 0.27122(8) 0.72150(5)
P1_4 P 0.85977(19) 0.2620(2) 0.89221(12)
O1_4 O 0.8281(5) 0.2983(5) 0.9446(4)
O2_4 O 0.8422(5) 0.1807(5) 0.8887(3)
O3_4 O 0.8404(5) 0.3017(5) 0.8377(4)
C1_4 C 0.9572(7) 0.2708(8) 0.9002(5)
H1_4 H 0.9790 0.2705 0.8163
C6_4 C 0.9932(7) 0.2689(8) 0.9517(4)
H3_4 H 0.9658 0.2654 0.9849
Zn3_4 Zn 0.77122(8) 0.28309(7) 0.77850(5)
Zn9_4 Zn 0.36932(11) 0.2500 0.6250
P2_4 P 0.64023(19) 0.2620(2) 0.85779(12)
O8_4 O 0.6719(5) 0.2983(5) 0.8054(4)
O9_4 O 0.6578(5) 0.1807(5) 0.8613(3)
O10_4 O 0.6596(5) 0.3017(5) 0.9123(4)
O13_4 O 0.7795(7) 0.3110(6) 0.6970(4)
O14_4 O 0.4107(6) 0.2809(8) 0.9957(4)
O15_4 O 0.3249(5) 0.2811(6) 0.7370(4)
O17_4 O 0.7811(6) 0.1751(5) 0.7630(4)
O18_4 O 0.4318(5) 0.2603(6) 0.6936(3)
O20_4 O 0.7603(6) 0.0682(5) 0.8064(3)
C9_4 C 0.5428(7) 0.2708(8) 0.8498(5)
C10_4 C 0.4988(7) 0.2723(9) 0.8981(5)
H4_4 H 0.5210 0.2705 0.9337
C11_4 C 0.4224(7) 0.2763(9) 0.8948(5)
C12_4 C 0.3886(7) 0.2779(8) 0.8432(5)
H5_4 H 0.3379 0.2829 0.8408
C13_4 C 0.4304(7) 0.2720(8) 0.7946(4)
C14_4 C 0.5068(7) 0.2689(8) 0.7983(4)
H6_4 H 0.5342 0.2654 0.7651
C15_4 C 0.3772(10) 0.2810(9) 0.9495(6)
C16_4 C 0.3915(7) 0.2693(9) 0.7376(5)
P1_5 P 0.2380(2) 0.14023(19) 0.64221(12)
O1_5 O 0.2017(5) 0.1719(5) 0.6946(4)
O2_5 O 0.3193(5) 0.1578(5) 0.6387(3)
O3_5 O 0.1983(5) 0.1596(5) 0.5877(4)
C1_5 C 0.2292(8) 0.0428(7) 0.6502(5)
H1_5 H 0.2295 0.0210 0.5663
C6_5 C 0.2311(8) 0.0068(7) 0.7017(4)
H3_5 H 0.2346 0.0342 0.7349
Zn3_5 Zn 0.21691(7) 0.22878(8) 0.52850(5)
Zn7_3 Zn 0.22878(8) 0.78309(7) 0.47150(5)
P2_5 P 0.2380(2) 0.35977(19) 0.60779(12)
O8_5 O 0.2017(5) 0.3281(5) 0.5554(4)
O9_5 O 0.3193(5) 0.3422(5) 0.6113(3)
O10_5 O 0.1983(5) 0.3404(5) 0.6623(4)
O13_5 O 0.1890(6) 0.2205(7) 0.4470(4)
O14_5 O 0.2191(8) 0.5893(6) 0.7457(4)
O15_5 O 0.2189(6) 0.6751(5) 0.4870(4)
O17_5 O 0.3249(5) 0.2189(6) 0.5130(4)
O18_5 O 0.2397(6) 0.5682(5) 0.4436(3)
O20_5 O 0.4318(5) 0.2397(6) 0.5564(3)
C9_5 C 0.2292(8) 0.4572(7) 0.5998(5)
C10_5 C 0.2277(9) 0.5012(7) 0.6481(5)
H4_5 H 0.2295 0.4790 0.6837
C11_5 C 0.2237(9) 0.5776(7) 0.6448(5)
C12_5 C 0.2221(8) 0.6114(7) 0.5932(5)
H5_5 H 0.2171 0.6621 0.5908
C13_5 C 0.2280(8) 0.5696(7) 0.5446(4)
C14_5 C 0.2311(8) 0.4932(7) 0.5483(4)
H6_5 H 0.2346 0.4658 0.5151
C15_5 C 0.2190(9) 0.6228(10) 0.6995(6)
C16_5 C 0.2307(9) 0.6085(7) 0.4876(5)
O4_5 O 0.2205(7) 0.8110(6) 0.5530(4)
O5_5 O 0.2191(8) 0.9107(6) 0.5043(4)
C2_5 C 0.2277(9) 0.9988(7) 0.6019(5)
C3_5 C 0.2237(9) 0.9224(7) 0.6052(5)
C4_5 C 0.2221(8) 0.8886(7) 0.6568(5)
H2_5 H 0.2171 0.8379 0.6592
C5_5 C 0.2280(8) 0.9304(7) 0.7054(4)
C7_5 C 0.2190(9) 0.8772(10) 0.5505(6)
C8_5 C 0.2307(9) 0.8915(7) 0.7624(5)
O4_6 O 0.7795(7) 0.1890(6) 0.5530(4)
O5_6 O 0.7809(8) 0.0893(6) 0.5043(4)
C2_6 C 0.7723(9) 0.0012(7) 0.6019(5)
C3_6 C 0.7763(9) 0.0776(7) 0.6052(5)
C4_6 C 0.7779(8) 0.1114(7) 0.6568(5)
H2_6 H 0.7829 0.1621 0.6592
C5_6 C 0.7720(8) 0.0696(7) 0.7054(4)
C7_6 C 0.7810(9) 0.1228(10) 0.5505(6)
C8_6 C 0.7693(9) 0.1085(7) 0.7624(5)
Zn4_3 Zn 0.77122(8) 0.21691(7) 0.47150(5)
P1_6 P 0.7620(2) 0.85977(19) 0.64221(12)
O1_6 O 0.7983(5) 0.8281(5) 0.6946(4)
O2_6 O 0.6807(5) 0.8422(5) 0.6387(3)
O3_6 O 0.8017(5) 0.8404(5) 0.5877(4)
C1_6 C 0.7708(8) 0.9572(7) 0.6502(5)
H1_6 H 0.7705 0.9790 0.5663
C6_6 C 0.7689(8) 0.9932(7) 0.7017(4)
H3_6 H 0.7654 0.9658 0.7349
Zn3_6 Zn 0.78309(7) 0.77122(8) 0.52850(5)
P2_6 P 0.7620(2) 0.64023(19) 0.60779(12)
O8_6 O 0.7983(5) 0.6719(5) 0.5554(4)
O9_6 O 0.6807(5) 0.6578(5) 0.6113(3)
O10_6 O 0.8017(5) 0.6596(5) 0.6623(4)
O13_6 O 0.8110(6) 0.7795(7) 0.4470(4)
O14_6 O 0.7809(8) 0.4107(6) 0.7457(4)
O15_6 O 0.7811(6) 0.3249(5) 0.4870(4)
O17_6 O 0.6751(5) 0.7811(6) 0.5130(4)
O18_6 O 0.7603(6) 0.4318(5) 0.4436(3)
O20_6 O 0.5682(5) 0.7603(6) 0.5564(3)
C9_6 C 0.7708(8) 0.5428(7) 0.5998(5)
C10_6 C 0.7723(9) 0.4988(7) 0.6481(5)
H4_6 H 0.7705 0.5210 0.6837
C11_6 C 0.7763(9) 0.4224(7) 0.6448(5)
C12_6 C 0.7779(8) 0.3886(7) 0.5932(5)
H5_6 H 0.7829 0.3379 0.5908
C13_6 C 0.7720(8) 0.4304(7) 0.5446(4)
C14_6 C 0.7689(8) 0.5068(7) 0.5483(4)
H6_6 H 0.7654 0.5342 0.5151
C15_6 C 0.7810(9) 0.3772(10) 0.6995(6)
C16_6 C 0.7693(9) 0.3915(7) 0.4876(5)
O14_7 O 0.0893(6) 0.2191(8) 0.4957(4)
C10_7 C 0.0012(7) 0.2277(9) 0.3981(5)
C11_7 C 0.0776(7) 0.2237(9) 0.3948(5)
C12_7 C 0.1114(7) 0.2221(8) 0.3432(5)
H5_7 H 0.1621 0.2171 0.3408
C13_7 C 0.0696(7) 0.2280(8) 0.2946(4)
C15_7 C 0.1228(10) 0.2190(9) 0.4495(6)
C16_7 C 0.1085(7) 0.2307(9) 0.2376(5)
P1_7 P 0.64023(19) 0.2380(2) 0.39221(12)
O1_7 O 0.6719(5) 0.2017(5) 0.4446(4)
O2_7 O 0.6578(5) 0.3193(5) 0.3887(3)
O3_7 O 0.6596(5) 0.1983(5) 0.3377(4)
O5_7 O 0.4107(6) 0.2191(8) 0.2543(4)
C1_7 C 0.5428(7) 0.2292(8) 0.4002(5)
C2_7 C 0.4988(7) 0.2277(9) 0.3519(5)
H1_7 H 0.5210 0.2295 0.3163
C3_7 C 0.4224(7) 0.2237(9) 0.3552(5)
C4_7 C 0.3886(7) 0.2221(8) 0.4068(5)
H2_7 H 0.3379 0.2171 0.4092
C5_7 C 0.4304(7) 0.2280(8) 0.4554(4)
C6_7 C 0.5068(7) 0.2311(8) 0.4517(4)
H3_7 H 0.5342 0.2346 0.4849
C7_7 C 0.3772(10) 0.2190(9) 0.3005(6)
C8_7 C 0.3915(7) 0.2307(9) 0.5124(5)
P2_7 P 0.85977(19) 0.2380(2) 0.35779(12)
O8_7 O 0.8281(5) 0.2017(5) 0.3054(4)
O9_7 O 0.8422(5) 0.3193(5) 0.3613(3)
O10_7 O 0.8404(5) 0.1983(5) 0.4123(4)
C9_7 C 0.9572(7) 0.2292(8) 0.3498(5)
H4_7 H 0.9790 0.2295 0.4337
C14_7 C 0.9932(7) 0.2311(8) 0.2983(4)
H6_7 H 0.9658 0.2346 0.2651
P1_8 P 0.35977(19) 0.7620(2) 0.39221(12)
O1_8 O 0.3281(5) 0.7983(5) 0.4446(4)
O2_8 O 0.3422(5) 0.6807(5) 0.3887(3)
O3_8 O 0.3404(5) 0.8017(5) 0.3377(4)
O5_8 O 0.5893(6) 0.7809(8) 0.2543(4)
C1_8 C 0.4572(7) 0.7708(8) 0.4002(5)
C2_8 C 0.5012(7) 0.7723(9) 0.3519(5)
H1_8 H 0.4790 0.7705 0.3163
C3_8 C 0.5776(7) 0.7763(9) 0.3552(5)
C4_8 C 0.6114(7) 0.7779(8) 0.4068(5)
H2_8 H 0.6621 0.7829 0.4092
C5_8 C 0.5696(7) 0.7720(8) 0.4554(4)
C6_8 C 0.4932(7) 0.7689(8) 0.4517(4)
H3_8 H 0.4658 0.7654 0.4849
C7_8 C 0.6228(10) 0.7810(9) 0.3005(6)
C8_8 C 0.6085(7) 0.7693(9) 0.5124(5)
P2_8 P 0.14023(19) 0.7620(2) 0.35779(12)
O8_8 O 0.1719(5) 0.7983(5) 0.3054(4)
O9_8 O 0.1578(5) 0.6807(5) 0.3613(3)
O10_8 O 0.1596(5) 0.8017(5) 0.4123(4)
C9_8 C 0.0428(7) 0.7708(8) 0.3498(5)
H4_8 H 0.0210 0.7705 0.4337
C14_8 C 0.0068(7) 0.7689(8) 0.2983(4)
H6_8 H 0.0342 0.7654 0.2651
O14_8 O 0.9107(6) 0.7809(8) 0.4957(4)
C10_8 C 0.9988(7) 0.7723(9) 0.3981(5)
C11_8 C 0.9224(7) 0.7763(9) 0.3948(5)
C12_8 C 0.8886(7) 0.7779(8) 0.3432(5)
H5_8 H 0.8379 0.7829 0.3408
C13_8 C 0.9304(7) 0.7720(8) 0.2946(4)
C15_8 C 0.8772(10) 0.7810(9) 0.4495(6)
C16_8 C 0.8915(7) 0.7693(9) 0.2376(5)
O21 O 0.193(2) 0.012(2) 0.3403(17)
H7 H 0.1757 0.0041 0.3803
H8 H 0.2166 0.0621 0.3392
H9 H 0.1989 0.9633 0.3023
H9_2 H 0.8011 0.0367 0.3023
O21_2 O 0.807(2) 0.988(2) 0.3403(17)
H7_2 H 0.8243 0.9959 0.3803
H8_2 H 0.7834 0.9379 0.3392
O21_3 O 0.012(2) 0.807(2) 0.6597(17)
H7_3 H 0.0041 0.8243 0.6197
H8_3 H 0.0621 0.7834 0.6608
H9_3 H 0.9633 0.8011 0.6977
H9_4 H 0.0367 0.1989 0.6977
O21_4 O 0.988(2) 0.193(2) 0.6597(17)
H7_4 H 0.9959 0.1757 0.6197
H8_4 H 0.9379 0.2166 0.6608
O21_5 O 0.307(2) 0.012(2) 0.4097(17)
H7_5 H 0.3243 0.0041 0.3697
H8_5 H 0.2834 0.0621 0.4108
H9_5 H 0.3011 0.9633 0.4477
H9_6 H 0.6989 0.0367 0.4477
O21_6 O 0.693(2) 0.988(2) 0.4097(17)
H7_6 H 0.6757 0.9959 0.3697
H8_6 H 0.7166 0.9379 0.4108
O21_7 O 0.488(2) 0.807(2) 0.0903(17)
O21_8 O 0.512(2) 0.193(2) 0.0903(17)
O21_9 O 0.693(2) 0.512(2) 0.8403(17)
O21_10 O 0.307(2) 0.488(2) 0.8403(17)
O21_11 O 0.512(2) 0.307(2) 0.1597(17)
O21_12 O 0.488(2) 0.693(2) 0.1597(17)
O21_13 O 0.807(2) 0.512(2) 0.9097(17)
O21_14 O 0.193(2) 0.488(2) 0.9097(17)
H9_7 H 0.0367 0.3011 0.5523
O21_15 O 0.988(2) 0.307(2) 0.5903(17)
H7_7 H 0.9959 0.3243 0.6303
H8_7 H 0.9379 0.2834 0.5892
O21_16 O 0.012(2) 0.693(2) 0.5903(17)
H7_8 H 0.0041 0.6757 0.6303
H8_8 H 0.0621 0.7166 0.5892
H9_8 H 0.9633 0.6989 0.5523
loop_
_geom_bond_atom_site_label_1
_geom_bond_atom_site_label_2
_geom_bond_site_symmetry_1
_geom_bond_site_symmetry_2
Zn1 O1 1_555 1_555
Zn2 O2 1_555 1_555
P1 O1 1_555 1_555
O2 P1 1_555 1_555
O3 P1 1_555 1_555
C1 P1 1_555 1_555
C6 C1 1_555 1_555
H3 C6 1_555 1_555
Zn3 O3 1_555 1_555
Zn7 O15 1_555 1_555
Zn9 O18 1_555 1_555
P2 O8 1_555 1_555
O8 Zn3 1_555 1_555
O9 Zn2 1_555 1_555
O10 Zn1 1_555 1_555
O11 C15 1_555 1_555
O13 Zn3 1_555 1_555
O14 C15 1_555 1_555
O15 C16 1_555 1_555
O16 Zn1 1_555 1_555
O17 Zn3 1_555 1_555
O18 C16 1_555 1_555
O19 Zn2 1_555 1_555
O20 Zn2 1_555 1_555
C9 P2 1_555 1_555
C10 C9 1_555 1_555
H4 C10 1_555 1_555
C11 C10 1_555 1_555
C12 C11 1_555 1_555
H5 C12 1_555 1_555
C13 C12 1_555 1_555
C14 C9 1_555 1_555
H6 C14 1_555 1_555
C15 C11 1_555 1_555
C16 C13 1_555 1_555
P2 O9 1_555 1_555
P2 O10 1_555 1_555
C13 C14 1_555 1_555
O4 C7 1_555 1_555
O5 C7 1_555 1_555
C3 C2 1_555 1_555
C4 C3 1_555 1_555
H2 C4 1_555 1_555
C5 C4 1_555 1_555
C7 C3 1_555 1_555
Zn7 O4 1_555 1_555
O6 C8 1_555 1_555
O7 C8 1_555 1_555
Zn6 O6 1_555 1_555
Zn8 O7 1_555 1_555
O4_2 C7_2 1_555 1_555
O5_2 C7_2 1_555 1_555
C3_2 C2_2 1_555 1_555
C4_2 C3_2 1_555 1_555
H2_2 C4_2 1_555 1_555
C5_2 C4_2 1_555 1_555
C7_2 C3_2 1_555 1_555
Zn4 O4_2 1_555 1_555
O6_2 C8_2 1_555 1_555
O7_2 C8_2 1_555 1_555
Zn5 O6_2 1_555 1_555
Zn8_2 O7_2 1_555 1_555
Zn1_2 O1_2 1_555 1_555
Zn2_2 O2_2 1_555 1_555
P1_2 O1_2 1_555 1_555
O2_2 P1_2 1_555 1_555
O3_2 P1_2 1_555 1_555
C1_2 P1_2 1_555 1_555
C6_2 C1_2 1_555 1_555
H3_2 C6_2 1_555 1_555
Zn3_2 O3_2 1_555 1_555
Zn4 O15_2 1_555 1_555
Zn9_2 O18_2 1_555 1_555
P2_2 O8_2 1_555 1_555
O8_2 Zn3_2 1_555 1_555
O9_2 Zn2_2 1_555 1_555
O10_2 Zn1_2 1_555 1_555
O11_2 C15_2 1_555 1_555
O13_2 Zn3_2 1_555 1_555
O14_2 C15_2 1_555 1_555
O15_2 C16_2 1_555 1_555
O16_2 Zn1_2 1_555 1_555
O17_2 Zn3_2 1_555 1_555
O18_2 C16_2 1_555 1_555
O19_2 Zn2_2 1_555 1_555
O20_2 Zn2_2 1_555 1_555
C9_2 P2_2 1_555 1_555
C10_2 C9_2 1_555 1_555
H4_2 C10_2 1_555 1_555
C11_2 C10_2 1_555 1_555
C12_2 C11_2 1_555 1_555
H5_2 C12_2 1_555 1_555
C13_2 C12_2 1_555 1_555
C14_2 C9_2 1_555 1_555
H6_2 C14_2 1_555 1_555
C15_2 C11_2 1_555 1_555
C16_2 C13_2 1_555 1_555
P2_2 O9_2 1_555 1_555
P2_2 O10_2 1_555 1_555
C13_2 C14_2 1_555 1_555
Zn6 O1_3 1_555 1_555
Zn8 O2_3 1_555 1_555
P1_3 O1_3 1_555 1_555
O2_3 P1_3 1_555 1_555
O3_3 P1_3 1_555 1_555
C1_3 P1_3 1_555 1_555
C6_3 C1_3 1_555 1_555
H3_3 C6_3 1_555 1_555
Zn3_3 O3_3 1_555 1_555
Zn7_2 O15_3 1_555 1_555
Zn9_3 O18_3 1_555 1_555
P2_3 O8_3 1_555 1_555
O8_3 Zn3_3 1_555 1_555
O9_3 Zn8 1_555 1_555
O10_3 Zn6 1_555 1_555
O12_2 C15_3 1_555 1_555
O13_3 Zn3_3 1_555 1_555
O14_3 C15_3 1_555 1_555
O15_3 C16_3 1_555 1_555
O17_3 Zn3_3 1_555 1_555
O18_3 C16_3 1_555 1_555
O20_3 Zn8 1_555 1_555
C9_3 P2_3 1_555 1_555
C10_3 C9_3 1_555 1_555
H4_3 C10_3 1_555 1_555
C11_3 C10_3 1_555 1_555
C12_3 C11_3 1_555 1_555
H5_3 C12_3 1_555 1_555
C13_3 C12_3 1_555 1_555
C14_3 C9_3 1_555 1_555
H6_3 C14_3 1_555 1_555
C15_3 C11_3 1_555 1_555
C16_3 C13_3 1_555 1_555
P2_3 O9_3 1_555 1_555
P2_3 O10_3 1_555 1_555
C13_3 C14_3 1_555 1_555
O16_2 C8_3 1_555 1_555
O19_2 C8_3 1_555 1_555
O4_3 C7_3 1_555 1_555
O5_3 C7_3 1_555 1_555
C3_3 C2_3 1_555 1_555
C4_3 C3_3 1_555 1_555
H2_3 C4_3 1_555 1_555
C5_3 C4_3 1_555 1_555
C7_3 C3_3 1_555 1_555
Zn7_2 O4_3 1_555 1_555
O16 C8_4 1_555 1_555
O19 C8_4 1_555 1_555
O4_4 C7_4 1_555 1_555
O5_4 C7_4 1_555 1_555
C3_4 C2_4 1_555 1_555
C4_4 C3_4 1_555 1_555
H2_4 C4_4 1_555 1_555
C5_4 C4_4 1_555 1_555
C7_4 C3_4 1_555 1_555
Zn4_2 O4_4 1_555 1_555
Zn5 O1_4 1_555 1_555
Zn8_2 O2_4 1_555 1_555
P1_4 O1_4 1_555 1_555
O2_4 P1_4 1_555 1_555
O3_4 P1_4 1_555 1_555
C1_4 P1_4 1_555 1_555
C6_4 C1_4 1_555 1_555
H3_4 C6_4 1_555 1_555
Zn3_4 O3_4 1_555 1_555
Zn4_2 O15_4 1_555 1_555
Zn9_4 O18_4 1_555 1_555
P2_4 O8_4 1_555 1_555
O8_4 Zn3_4 1_555 1_555
O9_4 Zn8_2 1_555 1_555
O10_4 Zn5 1_555 1_555
O12 C15_4 1_555 1_555
O13_4 Zn3_4 1_555 1_555
O14_4 C15_4 1_555 1_555
O15_4 C16_4 1_555 1_555
O17_4 Zn3_4 1_555 1_555
O18_4 C16_4 1_555 1_555
O20_4 Zn8_2 1_555 1_555
C9_4 P2_4 1_555 1_555
C10_4 C9_4 1_555 1_555
H4_4 C10_4 1_555 1_555
C11_4 C10_4 1_555 1_555
C12_4 C11_4 1_555 1_555
H5_4 C12_4 1_555 1_555
C13_4 C12_4 1_555 1_555
C14_4 C9_4 1_555 1_555
H6_4 C14_4 1_555 1_555
C15_4 C11_4 1_555 1_555
C16_4 C13_4 1_555 1_555
P2_4 O9_4 1_555 1_555
P2_4 O10_4 1_555 1_555
C13_4 C14_4 1_555 1_555
Zn4_2 O1_5 1_555 1_555
Zn9_4 O2_5 1_555 1_555
P1_5 O1_5 1_555 1_555
O2_5 P1_5 1_555 1_555
O3_5 P1_5 1_555 1_555
C1_5 P1_5 1_555 1_555
C6_5 C1_5 1_555 1_555
H3_5 C6_5 1_555 1_555
Zn3_5 O3_5 1_555 1_555
Zn7_3 O15_5 1_555 1_555
Zn9 O18_5 1_555 1_555
P2_5 O8_5 1_555 1_555
O8_5 Zn3_5 1_555 1_555
O9_5 Zn9_4 1_555 1_555
O10_5 Zn4_2 1_555 1_555
O13_3 C15_5 1_555 1_555
O13_5 Zn3_5 1_555 1_555
O14_5 C15_5 1_555 1_555
O15_5 C16_5 1_555 1_555
O17_5 Zn3_5 1_555 1_555
O18_5 C16_5 1_555 1_555
O20_5 Zn9_4 1_555 1_555
C9_5 P2_5 1_555 1_555
C10_5 C9_5 1_555 1_555
H4_5 C10_5 1_555 1_555
C11_5 C10_5 1_555 1_555
C12_5 C11_5 1_555 1_555
H5_5 C12_5 1_555 1_555
C13_5 C12_5 1_555 1_555
C14_5 C9_5 1_555 1_555
H6_5 C14_5 1_555 1_555
C15_5 C11_5 1_555 1_555
C16_5 C13_5 1_555 1_555
P2_5 O9_5 1_555 1_555
P2_5 O10_5 1_555 1_555
C13_5 C14_5 1_555 1_555
O4_5 C7_5 1_555 1_555
O5_5 C7_5 1_555 1_555
O17_3 C8_5 1_555 1_555
O20_3 C8_5 1_555 1_555
C3_5 C2_5 1_555 1_555
C4_5 C3_5 1_555 1_555
H2_5 C4_5 1_555 1_555
C5_5 C4_5 1_555 1_555
C7_5 C3_5 1_555 1_555
C8_5 C5_5 1_555 1_555
Zn7_3 O4_5 1_555 1_555
O4_6 C7_6 1_555 1_555
O5_6 C7_6 1_555 1_555
O17_4 C8_6 1_555 1_555
O20_4 C8_6 1_555 1_555
C3_6 C2_6 1_555 1_555
C4_6 C3_6 1_555 1_555
H2_6 C4_6 1_555 1_555
C5_6 C4_6 1_555 1_555
C7_6 C3_6 1_555 1_555
C8_6 C5_6 1_555 1_555
Zn4_3 O4_6 1_555 1_555
Zn7_2 O1_6 1_555 1_555
Zn9_3 O2_6 1_555 1_555
P1_6 O1_6 1_555 1_555
O2_6 P1_6 1_555 1_555
O3_6 P1_6 1_555 1_555
C1_6 P1_6 1_555 1_555
C6_6 C1_6 1_555 1_555
H3_6 C6_6 1_555 1_555
Zn3_6 O3_6 1_555 1_555
Zn4_3 O15_6 1_555 1_555
Zn9_2 O18_6 1_555 1_555
P2_6 O8_6 1_555 1_555
O8_6 Zn3_6 1_555 1_555
O9_6 Zn9_3 1_555 1_555
O10_6 Zn7_2 1_555 1_555
O13_4 C15_6 1_555 1_555
O13_6 Zn3_6 1_555 1_555
O14_6 C15_6 1_555 1_555
O15_6 C16_6 1_555 1_555
O17_6 Zn3_6 1_555 1_555
O18_6 C16_6 1_555 1_555
O20_6 Zn9_3 1_555 1_555
C9_6 P2_6 1_555 1_555
C10_6 C9_6 1_555 1_555
H4_6 C10_6 1_555 1_555
C11_6 C10_6 1_555 1_555
C12_6 C11_6 1_555 1_555
H5_6 C12_6 1_555 1_555
C13_6 C12_6 1_555 1_555
C14_6 C9_6 1_555 1_555
H6_6 C14_6 1_555 1_555
C15_6 C11_6 1_555 1_555
C16_6 C13_6 1_555 1_555
P2_6 O9_6 1_555 1_555
P2_6 O10_6 1_555 1_555
C13_6 C14_6 1_555 1_555
O13_5 C15_7 1_555 1_555
O14_7 C15_7 1_555 1_555
O17 C16_7 1_555 1_555
O20 C16_7 1_555 1_555
C11_7 C10_7 1_555 1_555
C12_7 C11_7 1_555 1_555
H5_7 C12_7 1_555 1_555
C13_7 C12_7 1_555 1_555
C15_7 C11_7 1_555 1_555
C16_7 C13_7 1_555 1_555
Zn4_3 O1_7 1_555 1_555
Zn9_2 O2_7 1_555 1_555
P1_7 O1_7 1_555 1_555
O2_7 P1_7 1_555 1_555
O3_7 P1_7 1_555 1_555
O13 C7_7 1_555 1_555
O5_7 C7_7 1_555 1_555
O17_5 C8_7 1_555 1_555
O20_5 C8_7 1_555 1_555
C1_7 P1_7 1_555 1_555
C2_7 C1_7 1_555 1_555
H1_7 C2_7 1_555 1_555
C3_7 C2_7 1_555 1_555
C4_7 C3_7 1_555 1_555
H2_7 C4_7 1_555 1_555
C5_7 C4_7 1_555 1_555
C6_7 C1_7 1_555 1_555
H3_7 C6_7 1_555 1_555
C7_7 C3_7 1_555 1_555
C8_7 C5_7 1_555 1_555
Zn4 O3_7 1_555 1_555
P2_7 O8_7 1_555 1_555
O8_7 Zn4 1_555 1_555
O9_7 Zn9_2 1_555 1_555
O10_7 Zn4_3 1_555 1_555
C9_7 P2_7 1_555 1_555
C14_7 C9_7 1_555 1_555
H6_7 C14_7 1_555 1_555
C5_7 C6_7 1_555 1_555
P2_7 O9_7 1_555 1_555
P2_7 O10_7 1_555 1_555
Zn7_3 O1_8 1_555 1_555
Zn9 O2_8 1_555 1_555
P1_8 O1_8 1_555 1_555
O2_8 P1_8 1_555 1_555
O3_8 P1_8 1_555 1_555
O13_2 C7_8 1_555 1_555
O5_8 C7_8 1_555 1_555
O17_6 C8_8 1_555 1_555
O20_6 C8_8 1_555 1_555
C1_8 P1_8 1_555 1_555
C2_8 C1_8 1_555 1_555
H1_8 C2_8 1_555 1_555
C3_8 C2_8 1_555 1_555
C4_8 C3_8 1_555 1_555
H2_8 C4_8 1_555 1_555
C5_8 C4_8 1_555 1_555
C6_8 C1_8 1_555 1_555
H3_8 C6_8 1_555 1_555
C7_8 C3_8 1_555 1_555
C8_8 C5_8 1_555 1_555
Zn7 O3_8 1_555 1_555
P2_8 O8_8 1_555 1_555
O8_8 Zn7 1_555 1_555
O9_8 Zn9 1_555 1_555
O10_8 Zn7_3 1_555 1_555
C9_8 P2_8 1_555 1_555
C14_8 C9_8 1_555 1_555
H6_8 C14_8 1_555 1_555
C5_8 C6_8 1_555 1_555
P2_8 O9_8 1_555 1_555
P2_8 O10_8 1_555 1_555
O13_6 C15_8 1_555 1_555
O14_8 C15_8 1_555 1_555
O17_2 C16_8 1_555 1_555
O20_2 C16_8 1_555 1_555
C11_8 C10_8 1_555 1_555
C12_8 C11_8 1_555 1_555
H5_8 C12_8 1_555 1_555
C13_8 C12_8 1_555 1_555
C15_8 C11_8 1_555 1_555
C16_8 C13_8 1_555 1_555
O21 H7 1_555 1_555
H8 O21 1_555 1_555
O21_2 H7_2 1_555 1_555
H8_2 O21_2 1_555 1_555
O21_3 H7_3 1_555 1_555
H8_3 O21_3 1_555 1_555
O21_4 H7_4 1_555 1_555
H8_4 O21_4 1_555 1_555
O21_5 H7_5 1_555 1_555
H8_5 O21_5 1_555 1_555
O21_6 H7_6 1_555 1_555
H8_6 O21_6 1_555 1_555
O21_15 H7_7 1_555 1_555
H8_7 O21_15 1_555 1_555
O21_16 H7_8 1_555 1_555
H8_8 O21_16 1_555 1_555

#END
