
###############################################################################
#
# This file contains modified crystal structure data generated from the
# MOF subset of the Cambridge Structural Database (CSD) v543 
# hosted by the Cambridge Crystallographic Data Centre (CCDC).
#
# This work is licensed under the Creative Commons
# Attribution-NonCommercial-ShareAlike 4.0 International License.
# To view a copy of this license, visit
# http://creativecommons.org/licenses/by-nc-sa/4.0/
# or send a letter to
# Creative Commons, PO Box 1866, Mountain View, CA 94042, USA.
#
# CIF created using the CSD Python API on 29 September 2022
# The structure has been converted into the P1 space group
# The structure has a 3D framework
# The original CSD entry PUSXIL is in the tetragonal crystal system
# The framework has been calculated to contain at least 10.0% void space
# The void calculation uses a probe of radius 1.32A, grid spacing 0.4
# The framework is charged, counterions have been retained in the structure
# H atom positions have been added when not included in the experimental data
# Generated hydrogen atom positions removed from atoms on special positions
#
###############################################################################

data_PUSXIL
_chemical_formula_moiety         '(C128 H88 O120 P16 Zn20 10-)n'
_symmetry_cell_setting           triclinic
_symmetry_space_group_name_H-M   'P 1'
_symmetry_Int_Tables_number      1
_space_group_name_Hall           'P 1'
loop_
_symmetry_equiv_pos_site_id
_symmetry_equiv_pos_as_xyz
1 x,y,z
_cell_length_a                   18.310(6)
_cell_length_b                   18.310(6)
_cell_length_c                   23.222(11)
_cell_angle_alpha                90
_cell_angle_beta                 90
_cell_angle_gamma                90
_cell_volume                     7785.32
loop_
_atom_site_label
_atom_site_type_symbol
_atom_site_fract_x
_atom_site_fract_y
_atom_site_fract_z
Zn1 Zn 0.28051(4) 0.22488(4) 0.22233(3)
Zn2 Zn 0.13207(6) 0.2500 0.1250
C1 C 0.2727(4) 0.4539(3) 0.1509(3)
C2 C 0.2787(4) 0.4944(4) 0.1000(3)
H1 H 0.2780 0.4704 0.0648
C3 C 0.2858(4) 0.5715(4) 0.1014(3)
C4 C 0.2867(4) 0.6072(3) 0.1533(3)
H2 H 0.2920 0.6576 0.1544
C5 C 0.2798(4) 0.5680(3) 0.2039(3)
C6 C 0.2733(4) 0.4909(4) 0.2026(3)
H3 H 0.2694 0.4651 0.2370
C7 C 0.2884(5) 0.6121(4) 0.0450(3)
C8 C 0.2761(4) 0.6088(4) 0.2604(3)
O1 O 0.2943(3) 0.3269(3) 0.2010(2)
O2 O 0.1819(3) 0.3420(3) 0.1397(2)
O3 O 0.3052(3) 0.3336(3) 0.0932(2)
O4 O 0.2939(3) 0.6796(3) 0.0481(2)
O6 O 0.2883(4) 0.6752(3) 0.2590(2)
O7 O 0.2646(3) 0.5715(2) 0.30577(17)
P1 P 0.26261(10) 0.35775(9) 0.14601(7)
Zn4 Zn 0.28051(4) 0.27512(4) 0.02767(3)
Zn6 Zn 0.27512(4) 0.78051(4) 0.27767(3)
Zn8 Zn 0.21949(4) 0.22488(4) 0.52767(3)
Zn9 Zn 0.2500 0.63207(6) 0.3750
C11 C 0.0715(4) 0.2142(4) 0.3986(3)
C12 C 0.1072(3) 0.2133(4) 0.3467(3)
H5 H 0.1576 0.2080 0.3456
C13 C 0.0680(3) 0.2202(4) 0.2961(3)
C15 C 0.1121(4) 0.2116(5) 0.4550(3)
C16 C 0.1088(4) 0.2239(4) 0.2396(3)
O10 O 0.1819(3) 0.1580(3) 0.1103(2)
O12 O 0.3052(3) 0.1664(3) 0.1568(2)
O14 O 0.1796(3) 0.2061(3) 0.4519(2)
O15 O 0.3204(3) 0.2061(3) 0.2981(2)
O17 O 0.0784(3) 0.2190(5) 0.5003(2)
O18 O 0.1752(3) 0.2117(4) 0.2410(2)
O20 O 0.0715(2) 0.2354(3) 0.19423(17)
O21 O 0.0715(2) 0.2646(3) 0.05577(17)
O5 O 0.2810(5) 0.5784(3) 0.9997(2)
Zn5 Zn 0.27512(4) 0.71949(4) 0.97233(3)
Zn3 Zn 0.72488(4) 0.21949(4) 0.27767(3)
Zn7 Zn 0.77512(4) 0.21949(4) 0.47233(3)
Zn10 Zn 0.7500 0.36793(6) 0.3750
C9 C 0.9539(3) 0.2273(4) 0.3491(3)
C10 C 0.9944(4) 0.2213(4) 0.4000(3)
H4 H 0.9704 0.2220 0.4352
C14 C 0.9909(4) 0.2267(4) 0.2974(3)
H6 H 0.9651 0.2306 0.2630
O8 O 0.8269(3) 0.2057(3) 0.2990(2)
O9 O 0.8420(3) 0.3181(3) 0.3603(2)
O11 O 0.8336(3) 0.1948(3) 0.4068(2)
O13 O 0.6664(3) 0.1948(3) 0.3432(2)
O16 O 0.7061(3) 0.1796(3) 0.2019(2)
O19 O 0.7117(4) 0.3248(3) 0.2590(2)
P2 P 0.85775(9) 0.23739(10) 0.35399(7)
Zn3_2 Zn 0.21949(4) 0.27512(4) 0.72233(3)
Zn10_2 Zn 0.36793(6) 0.2500 0.6250
C9_2 C 0.2273(4) 0.0461(3) 0.6509(3)
C10_2 C 0.2213(4) 0.0056(4) 0.6000(3)
H4_2 H 0.2220 0.0296 0.5648
C14_2 C 0.2267(4) 0.0091(4) 0.7026(3)
H6_2 H 0.2306 0.0349 0.7370
O8_2 O 0.2057(3) 0.1731(3) 0.7010(2)
O9_2 O 0.3181(3) 0.1580(3) 0.6397(2)
O11_2 O 0.1948(3) 0.1664(3) 0.5932(2)
O13_2 O 0.1948(3) 0.3336(3) 0.6568(2)
O16_2 O 0.1796(3) 0.2939(3) 0.7981(2)
O19_2 O 0.3248(3) 0.2883(4) 0.7410(2)
P2_2 P 0.23739(10) 0.14225(9) 0.64601(7)
O5_2 O 0.5784(3) 0.7190(5) 0.0003(2)
Zn5_2 Zn 0.71949(4) 0.72488(4) 0.02767(3)
Zn1_2 Zn 0.22488(4) 0.71949(4) 0.77767(3)
Zn2_2 Zn 0.2500 0.86793(6) 0.8750
C1_2 C 0.4539(3) 0.7273(4) 0.8491(3)
C2_2 C 0.4944(4) 0.7213(4) 0.9000(3)
H1_2 H 0.4704 0.7220 0.9352
C3_2 C 0.5715(4) 0.7142(4) 0.8986(3)
C4_2 C 0.6072(3) 0.7133(4) 0.8467(3)
H2_2 H 0.6576 0.7080 0.8456
C5_2 C 0.5680(3) 0.7202(4) 0.7961(3)
C6_2 C 0.4909(4) 0.7267(4) 0.7974(3)
H3_2 H 0.4651 0.7306 0.7630
C7_2 C 0.6121(4) 0.7116(5) 0.9550(3)
C8_2 C 0.6088(4) 0.7239(4) 0.7396(3)
O1_2 O 0.3269(3) 0.7057(3) 0.7990(2)
O2_2 O 0.3420(3) 0.8181(3) 0.8603(2)
O3_2 O 0.3336(3) 0.6948(3) 0.9068(2)
O4_2 O 0.6796(3) 0.7061(3) 0.9519(2)
O6_2 O 0.6752(3) 0.7117(4) 0.7410(2)
O7_2 O 0.5715(2) 0.7354(3) 0.69423(17)
P1_2 P 0.35775(9) 0.73739(10) 0.85399(7)
Zn6_2 Zn 0.78051(4) 0.72488(4) 0.72233(3)
Zn8_2 Zn 0.22488(4) 0.78051(4) 0.47233(3)
Zn9_2 Zn 0.63207(6) 0.7500 0.6250
C11_2 C 0.2142(4) 0.9285(4) 0.6014(3)
C12_2 C 0.2133(4) 0.8928(3) 0.6533(3)
H5_2 H 0.2080 0.8424 0.6544
C13_2 C 0.2202(4) 0.9320(3) 0.7039(3)
C15_2 C 0.2116(5) 0.8879(4) 0.5450(3)
C16_2 C 0.2239(4) 0.8912(4) 0.7604(3)
O10_2 O 0.1580(3) 0.8181(3) 0.8897(2)
O12_2 O 0.1664(3) 0.6948(3) 0.8432(2)
O14_2 O 0.2061(3) 0.8204(3) 0.5481(2)
O15_2 O 0.2061(3) 0.6796(3) 0.7019(2)
O17_2 O 0.2190(5) 0.9216(3) 0.4997(2)
O18_2 O 0.2117(4) 0.8248(3) 0.7590(2)
O20_2 O 0.2354(3) 0.9285(2) 0.80577(17)
O21_2 O 0.2646(3) 0.9285(2) 0.94423(17)
C9_3 C 0.0461(3) 0.7727(4) 0.3491(3)
C10_3 C 0.0056(4) 0.7787(4) 0.4000(3)
H4_3 H 0.0296 0.7780 0.4352
C14_3 C 0.0091(4) 0.7733(4) 0.2974(3)
H6_3 H 0.0349 0.7694 0.2630
O8_3 O 0.1731(3) 0.7943(3) 0.2990(2)
O9_3 O 0.1580(3) 0.6819(3) 0.3603(2)
O11_3 O 0.1664(3) 0.8052(3) 0.4068(2)
O13_3 O 0.3336(3) 0.8052(3) 0.3432(2)
O16_3 O 0.2939(3) 0.8204(3) 0.2019(2)
P2_3 P 0.14225(9) 0.76261(10) 0.35399(7)
Zn1_3 Zn 0.71949(4) 0.77512(4) 0.22233(3)
Zn2_3 Zn 0.86793(6) 0.7500 0.1250
C1_3 C 0.7273(4) 0.5461(3) 0.1509(3)
C2_3 C 0.7213(4) 0.5056(4) 0.1000(3)
H1_3 H 0.7220 0.5296 0.0648
C3_3 C 0.7142(4) 0.4285(4) 0.1014(3)
C4_3 C 0.7133(4) 0.3928(3) 0.1533(3)
H2_3 H 0.7080 0.3424 0.1544
C5_3 C 0.7202(4) 0.4320(3) 0.2039(3)
C6_3 C 0.7267(4) 0.5091(4) 0.2026(3)
H3_3 H 0.7306 0.5349 0.2370
C7_3 C 0.7116(5) 0.3879(4) 0.0450(3)
C8_3 C 0.7239(4) 0.3912(4) 0.2604(3)
O1_3 O 0.7057(3) 0.6731(3) 0.2010(2)
O2_3 O 0.8181(3) 0.6580(3) 0.1397(2)
O3_3 O 0.6948(3) 0.6664(3) 0.0932(2)
O4_3 O 0.7061(3) 0.3204(3) 0.0481(2)
O7_3 O 0.7354(3) 0.4285(2) 0.30577(17)
P1_3 P 0.73739(10) 0.64225(9) 0.14601(7)
Zn8_3 Zn 0.78051(4) 0.77512(4) 0.52767(3)
C11_3 C 0.9285(4) 0.7858(4) 0.3986(3)
C12_3 C 0.8928(3) 0.7867(4) 0.3467(3)
H5_3 H 0.8424 0.7920 0.3456
C13_3 C 0.9320(3) 0.7798(4) 0.2961(3)
C15_3 C 0.8879(4) 0.7884(5) 0.4550(3)
C16_3 C 0.8912(4) 0.7761(4) 0.2396(3)
O10_3 O 0.8181(3) 0.8420(3) 0.1103(2)
O12_3 O 0.6948(3) 0.8336(3) 0.1568(2)
O14_3 O 0.8204(3) 0.7939(3) 0.4519(2)
O15_3 O 0.6796(3) 0.7939(3) 0.2981(2)
O17_3 O 0.9216(3) 0.7810(5) 0.5003(2)
O18_3 O 0.8248(3) 0.7883(4) 0.2410(2)
O20_3 O 0.9285(2) 0.7646(3) 0.19423(17)
O21_3 O 0.9285(2) 0.7354(3) 0.05577(17)
O5_3 O 0.7190(5) 0.4216(3) 0.9997(2)
Zn5_3 Zn 0.72488(4) 0.28051(4) 0.97233(3)
O5_4 O 0.4216(3) 0.2810(5) 0.0003(2)
Zn1_4 Zn 0.77512(4) 0.28051(4) 0.77767(3)
Zn2_4 Zn 0.7500 0.13207(6) 0.8750
C1_4 C 0.5461(3) 0.2727(4) 0.8491(3)
C2_4 C 0.5056(4) 0.2787(4) 0.9000(3)
H1_4 H 0.5296 0.2780 0.9352
C3_4 C 0.4285(4) 0.2858(4) 0.8986(3)
C4_4 C 0.3928(3) 0.2867(4) 0.8467(3)
H2_4 H 0.3424 0.2920 0.8456
C5_4 C 0.4320(3) 0.2798(4) 0.7961(3)
C6_4 C 0.5091(4) 0.2733(4) 0.7974(3)
H3_4 H 0.5349 0.2694 0.7630
C7_4 C 0.3879(4) 0.2884(5) 0.9550(3)
C8_4 C 0.3912(4) 0.2761(4) 0.7396(3)
O1_4 O 0.6731(3) 0.2943(3) 0.7990(2)
O2_4 O 0.6580(3) 0.1819(3) 0.8603(2)
O3_4 O 0.6664(3) 0.3052(3) 0.9068(2)
O4_4 O 0.3204(3) 0.2939(3) 0.9519(2)
O7_4 O 0.4285(2) 0.2646(3) 0.69423(17)
P1_4 P 0.64225(9) 0.26261(10) 0.85399(7)
C11_4 C 0.7858(4) 0.0715(4) 0.6014(3)
C12_4 C 0.7867(4) 0.1072(3) 0.6533(3)
H5_4 H 0.7920 0.1576 0.6544
C13_4 C 0.7798(4) 0.0680(3) 0.7039(3)
C15_4 C 0.7884(5) 0.1121(4) 0.5450(3)
C16_4 C 0.7761(4) 0.1088(4) 0.7604(3)
O10_4 O 0.8420(3) 0.1819(3) 0.8897(2)
O12_4 O 0.8336(3) 0.3052(3) 0.8432(2)
O14_4 O 0.7939(3) 0.1796(3) 0.5481(2)
O15_4 O 0.7939(3) 0.3204(3) 0.7019(2)
O17_4 O 0.7810(5) 0.0784(3) 0.4997(2)
O18_4 O 0.7883(4) 0.1752(3) 0.7590(2)
O20_4 O 0.7646(3) 0.0715(2) 0.80577(17)
O21_4 O 0.7354(3) 0.0715(2) 0.94423(17)
C9_4 C 0.7727(4) 0.9539(3) 0.6509(3)
C10_4 C 0.7787(4) 0.9944(4) 0.6000(3)
H4_4 H 0.7780 0.9704 0.5648
C14_4 C 0.7733(4) 0.9909(4) 0.7026(3)
H6_4 H 0.7694 0.9651 0.7370
O8_4 O 0.7943(3) 0.8269(3) 0.7010(2)
O9_4 O 0.6819(3) 0.8420(3) 0.6397(2)
O11_4 O 0.8052(3) 0.8336(3) 0.5932(2)
O13_4 O 0.8052(3) 0.6664(3) 0.6568(2)
O16_4 O 0.8204(3) 0.7061(3) 0.7981(2)
P2_4 P 0.76261(10) 0.85775(9) 0.64601(7)
C1_5 C 0.2727(4) 0.0461(3) 0.0991(3)
C2_5 C 0.2787(4) 0.0056(4) 0.1500(3)
H1_5 H 0.2780 0.0296 0.1852
C6_5 C 0.2733(4) 0.0091(4) 0.0474(3)
H3_5 H 0.2694 0.0349 0.0130
O1_5 O 0.2943(3) 0.1731(3) 0.0490(2)
P1_5 P 0.26261(10) 0.14225(9) 0.10399(7)
C16_5 C 0.1088(4) 0.2761(4) 0.0104(3)
O18_5 O 0.1752(3) 0.2883(4) 0.0090(2)
C11_5 C 0.0715(4) 0.2858(4) 0.8514(3)
C12_5 C 0.1072(3) 0.2867(4) 0.9033(3)
H5_5 H 0.1576 0.2920 0.9044
C13_5 C 0.0680(3) 0.2798(4) 0.9539(3)
C15_5 C 0.1121(4) 0.2884(5) 0.7950(3)
O17_5 O 0.0784(3) 0.2810(5) 0.7497(2)
C3_5 C 0.2858(4) 0.9285(4) 0.1486(3)
C4_5 C 0.2867(4) 0.8928(3) 0.0967(3)
H2_5 H 0.2920 0.8424 0.0956
C5_5 C 0.2798(4) 0.9320(3) 0.0461(3)
C7_5 C 0.2884(5) 0.8879(4) 0.2050(3)
O5_5 O 0.2810(5) 0.9216(3) 0.2503(2)
C8_5 C 0.2761(4) 0.8912(4) 0.9896(3)
O6_3 O 0.2883(4) 0.8248(3) 0.9910(2)
C9_5 C 0.9539(3) 0.2727(4) 0.9009(3)
C10_5 C 0.9944(4) 0.2787(4) 0.8500(3)
H4_5 H 0.9704 0.2780 0.8148
C14_5 C 0.9909(4) 0.2733(4) 0.9526(3)
H6_5 H 0.9651 0.2694 0.9870
O8_5 O 0.8269(3) 0.2943(3) 0.9510(2)
O19_3 O 0.7117(4) 0.1752(3) 0.9910(2)
P2_5 P 0.85775(9) 0.26261(10) 0.89601(7)
C1_6 C 0.0461(3) 0.7273(4) 0.9009(3)
C2_6 C 0.0056(4) 0.7213(4) 0.8500(3)
H1_6 H 0.0296 0.7220 0.8148
C6_6 C 0.0091(4) 0.7267(4) 0.9526(3)
H3_6 H 0.0349 0.7306 0.9870
O1_6 O 0.1731(3) 0.7057(3) 0.9510(2)
P1_6 P 0.14225(9) 0.73739(10) 0.89601(7)
C8_6 C 0.8912(4) 0.7239(4) 0.0104(3)
O6_4 O 0.8248(3) 0.7117(4) 0.0090(2)
C3_6 C 0.9285(4) 0.7142(4) 0.8514(3)
C4_6 C 0.8928(3) 0.7133(4) 0.9033(3)
H2_6 H 0.8424 0.7080 0.9044
C5_6 C 0.9320(3) 0.7202(4) 0.9539(3)
C7_6 C 0.8879(4) 0.7116(5) 0.7950(3)
O5_6 O 0.9216(3) 0.7190(5) 0.7497(2)
C3_7 C 0.7142(4) 0.0715(4) 0.1486(3)
C4_7 C 0.7133(4) 0.1072(3) 0.0967(3)
H2_7 H 0.7080 0.1576 0.0956
C5_7 C 0.7202(4) 0.0680(3) 0.0461(3)
C7_7 C 0.7116(5) 0.1121(4) 0.2050(3)
O5_7 O 0.7190(5) 0.0784(3) 0.2503(2)
C8_7 C 0.7239(4) 0.1088(4) 0.9896(3)
C1_7 C 0.7273(4) 0.9539(3) 0.0991(3)
C2_7 C 0.7213(4) 0.9944(4) 0.1500(3)
H1_7 H 0.7220 0.9704 0.1852
C6_7 C 0.7267(4) 0.9909(4) 0.0474(3)
H3_7 H 0.7306 0.9651 0.0130
O1_7 O 0.7057(3) 0.8269(3) 0.0490(2)
P1_7 P 0.73739(10) 0.85775(9) 0.10399(7)
O10_5 O 0.6819(3) 0.6580(3) 0.6103(2)
O21_5 O 0.5715(2) 0.7646(3) 0.55577(17)
O10_6 O 0.6580(3) 0.3181(3) 0.3897(2)
O21_6 O 0.7646(3) 0.4285(2) 0.44423(17)
O10_7 O 0.3181(3) 0.3420(3) 0.6103(2)
O21_7 O 0.4285(2) 0.2354(3) 0.55577(17)
O10_8 O 0.3420(3) 0.6819(3) 0.3897(2)
O21_8 O 0.2354(3) 0.5715(2) 0.44423(17)
C1_8 C 0.7727(4) 0.5461(3) 0.5991(3)
C2_8 C 0.7787(4) 0.5056(4) 0.6500(3)
H1_8 H 0.7780 0.5296 0.6852
C3_8 C 0.7858(4) 0.4285(4) 0.6486(3)
C4_8 C 0.7867(4) 0.3928(3) 0.5967(3)
H2_8 H 0.7920 0.3424 0.5956
C5_8 C 0.7798(4) 0.4320(3) 0.5461(3)
C6_8 C 0.7733(4) 0.5091(4) 0.5474(3)
H3_8 H 0.7694 0.5349 0.5130
C7_8 C 0.7884(5) 0.3879(4) 0.7050(3)
C8_8 C 0.7761(4) 0.3912(4) 0.4896(3)
O1_8 O 0.7943(3) 0.6731(3) 0.5490(2)
O5_8 O 0.7810(5) 0.4216(3) 0.7503(2)
O6_5 O 0.7883(4) 0.3248(3) 0.4910(2)
P1_8 P 0.76261(10) 0.64225(9) 0.60399(7)
C9_6 C 0.4539(3) 0.7727(4) 0.4009(3)
C10_6 C 0.4944(4) 0.7787(4) 0.3500(3)
H4_6 H 0.4704 0.7780 0.3148
C11_6 C 0.5715(4) 0.7858(4) 0.3514(3)
C12_6 C 0.6072(3) 0.7867(4) 0.4033(3)
H5_6 H 0.6576 0.7920 0.4044
C13_6 C 0.5680(3) 0.7798(4) 0.4539(3)
C14_6 C 0.4909(4) 0.7733(4) 0.4526(3)
H6_6 H 0.4651 0.7694 0.4870
C15_6 C 0.6121(4) 0.7884(5) 0.2950(3)
C16_6 C 0.6088(4) 0.7761(4) 0.5104(3)
O8_6 O 0.3269(3) 0.7943(3) 0.4510(2)
O17_6 O 0.5784(3) 0.7810(5) 0.2497(2)
O18_6 O 0.6752(3) 0.7883(4) 0.5090(2)
O19_4 O 0.2117(4) 0.6752(3) 0.4910(2)
P2_6 P 0.35775(9) 0.76261(10) 0.39601(7)
C1_9 C 0.5461(3) 0.2273(4) 0.4009(3)
C2_9 C 0.5056(4) 0.2213(4) 0.3500(3)
H1_9 H 0.5296 0.2220 0.3148
C3_9 C 0.4285(4) 0.2142(4) 0.3514(3)
C4_9 C 0.3928(3) 0.2133(4) 0.4033(3)
H2_9 H 0.3424 0.2080 0.4044
C5_9 C 0.4320(3) 0.2202(4) 0.4539(3)
C6_9 C 0.5091(4) 0.2267(4) 0.4526(3)
H3_9 H 0.5349 0.2306 0.4870
C7_9 C 0.3879(4) 0.2116(5) 0.2950(3)
C8_9 C 0.3912(4) 0.2239(4) 0.5104(3)
O1_9 O 0.6731(3) 0.2057(3) 0.4510(2)
O5_9 O 0.4216(3) 0.2190(5) 0.2497(2)
O6_6 O 0.3248(3) 0.2117(4) 0.5090(2)
P1_9 P 0.64225(9) 0.23739(10) 0.39601(7)
C1_10 C 0.2273(4) 0.4539(3) 0.5991(3)
C2_10 C 0.2213(4) 0.4944(4) 0.6500(3)
H1_10 H 0.2220 0.4704 0.6852
C3_10 C 0.2142(4) 0.5715(4) 0.6486(3)
C4_10 C 0.2133(4) 0.6072(3) 0.5967(3)
H2_10 H 0.2080 0.6576 0.5956
C5_10 C 0.2202(4) 0.5680(3) 0.5461(3)
C6_10 C 0.2267(4) 0.4909(4) 0.5474(3)
H3_10 H 0.2306 0.4651 0.5130
C7_10 C 0.2116(5) 0.6121(4) 0.7050(3)
C8_10 C 0.2239(4) 0.6088(4) 0.4896(3)
O1_10 O 0.2057(3) 0.3269(3) 0.5490(2)
O5_10 O 0.2190(5) 0.5784(3) 0.7503(2)
P1_10 P 0.23739(10) 0.35775(9) 0.60399(7)
O22 O 0.0451(10) 0.2500 0.6250
O22_2 O 0.2500 0.9549(10) 0.3750
O22_3 O 0.9549(10) 0.7500 0.6250
O22_4 O 0.7500 0.0451(10) 0.3750
O22_5 O 0.5451(10) 0.7500 0.1250
O22_6 O 0.7500 0.4549(10) 0.8750
O22_7 O 0.4549(10) 0.2500 0.1250
O22_8 O 0.2500 0.5451(10) 0.8750
loop_
_geom_bond_atom_site_label_1
_geom_bond_atom_site_label_2
_geom_bond_site_symmetry_1
_geom_bond_site_symmetry_2
Zn1 O1 1_555 1_555
Zn2 O2 1_555 1_555
C1 C2 1_555 1_555
C2 H1 1_555 1_555
C3 C2 1_555 1_555
C4 C3 1_555 1_555
H2 C4 1_555 1_555
C5 C4 1_555 1_555
C6 C1 1_555 1_555
H3 C6 1_555 1_555
C7 C3 1_555 1_555
C8 C5 1_555 1_555
O1 P1 1_555 1_555
O2 P1 1_555 1_555
O3 P1 1_555 1_555
O4 C7 1_555 1_555
O6 C8 1_555 1_555
O7 C8 1_555 1_555
P1 C1 1_555 1_555
Zn4 O3 1_555 1_555
Zn6 O6 1_555 1_555
Zn8 O14 1_555 1_555
Zn9 O7 1_555 1_555
C12 C11 1_555 1_555
H5 C12 1_555 1_555
C13 C12 1_555 1_555
C15 C11 1_555 1_555
C16 C13 1_555 1_555
O10 Zn2 1_555 1_555
O12 Zn1 1_555 1_555
O14 C15 1_555 1_555
O15 Zn1 1_555 1_555
O17 C15 1_555 1_555
O18 Zn1 1_555 1_555
O20 Zn2 1_555 1_555
O21 Zn2 1_555 1_555
C5 C6 1_555 1_555
C16 O18 1_555 1_555
C16 O20 1_555 1_555
Zn3 O8 1_555 1_555
Zn7 O11 1_555 1_555
Zn10 O9 1_555 1_555
C9 C10 1_555 1_555
C10 H4 1_555 1_555
C14 C9 1_555 1_555
H6 C14 1_555 1_555
O8 P2 1_555 1_555
O9 P2 1_555 1_555
O11 P2 1_555 1_555
O13 Zn3 1_555 1_555
O16 Zn3 1_555 1_555
O19 Zn3 1_555 1_555
P2 C9 1_555 1_555
Zn3_2 O8_2 1_555 1_555
Zn8 O11_2 1_555 1_555
Zn10_2 O9_2 1_555 1_555
C9_2 C10_2 1_555 1_555
C10_2 H4_2 1_555 1_555
C14_2 C9_2 1_555 1_555
H6_2 C14_2 1_555 1_555
O8_2 P2_2 1_555 1_555
O9_2 P2_2 1_555 1_555
O11_2 P2_2 1_555 1_555
O13_2 Zn3_2 1_555 1_555
O16_2 Zn3_2 1_555 1_555
O19_2 Zn3_2 1_555 1_555
P2_2 C9_2 1_555 1_555
Zn1_2 O1_2 1_555 1_555
Zn2_2 O2_2 1_555 1_555
C1_2 C2_2 1_555 1_555
C2_2 H1_2 1_555 1_555
C3_2 C2_2 1_555 1_555
C4_2 C3_2 1_555 1_555
H2_2 C4_2 1_555 1_555
C5_2 C4_2 1_555 1_555
C6_2 C1_2 1_555 1_555
H3_2 C6_2 1_555 1_555
C7_2 C3_2 1_555 1_555
C8_2 C5_2 1_555 1_555
O1_2 P1_2 1_555 1_555
O2_2 P1_2 1_555 1_555
O3_2 P1_2 1_555 1_555
O4_2 C7_2 1_555 1_555
O6_2 C8_2 1_555 1_555
O7_2 C8_2 1_555 1_555
P1_2 C1_2 1_555 1_555
Zn5 O3_2 1_555 1_555
Zn6_2 O6_2 1_555 1_555
Zn8_2 O14_2 1_555 1_555
Zn9_2 O7_2 1_555 1_555
C12_2 C11_2 1_555 1_555
H5_2 C12_2 1_555 1_555
C13_2 C12_2 1_555 1_555
C15_2 C11_2 1_555 1_555
C16_2 C13_2 1_555 1_555
O10_2 Zn2_2 1_555 1_555
O12_2 Zn1_2 1_555 1_555
O14_2 C15_2 1_555 1_555
O15_2 Zn1_2 1_555 1_555
O17_2 C15_2 1_555 1_555
O18_2 Zn1_2 1_555 1_555
O20_2 Zn2_2 1_555 1_555
O21_2 Zn2_2 1_555 1_555
C5_2 C6_2 1_555 1_555
C16_2 O18_2 1_555 1_555
C16_2 O20_2 1_555 1_555
Zn6 O8_3 1_555 1_555
Zn8_2 O11_3 1_555 1_555
Zn9 O9_3 1_555 1_555
C9_3 C10_3 1_555 1_555
C10_3 H4_3 1_555 1_555
C14_3 C9_3 1_555 1_555
H6_3 C14_3 1_555 1_555
O8_3 P2_3 1_555 1_555
O9_3 P2_3 1_555 1_555
O11_3 P2_3 1_555 1_555
O13_3 Zn6 1_555 1_555
O16_3 Zn6 1_555 1_555
P2_3 C9_3 1_555 1_555
Zn1_3 O1_3 1_555 1_555
Zn2_3 O2_3 1_555 1_555
C1_3 C2_3 1_555 1_555
C2_3 H1_3 1_555 1_555
C3_3 C2_3 1_555 1_555
C4_3 C3_3 1_555 1_555
H2_3 C4_3 1_555 1_555
C5_3 C4_3 1_555 1_555
C6_3 C1_3 1_555 1_555
H3_3 C6_3 1_555 1_555
C7_3 C3_3 1_555 1_555
C8_3 C5_3 1_555 1_555
O1_3 P1_3 1_555 1_555
O2_3 P1_3 1_555 1_555
O3_3 P1_3 1_555 1_555
O4_3 C7_3 1_555 1_555
O19 C8_3 1_555 1_555
O7_3 C8_3 1_555 1_555
P1_3 C1_3 1_555 1_555
Zn5_2 O3_3 1_555 1_555
Zn8_3 O14_3 1_555 1_555
Zn10 O7_3 1_555 1_555
C12_3 C11_3 1_555 1_555
H5_3 C12_3 1_555 1_555
C13_3 C12_3 1_555 1_555
C15_3 C11_3 1_555 1_555
C16_3 C13_3 1_555 1_555
O10_3 Zn2_3 1_555 1_555
O12_3 Zn1_3 1_555 1_555
O14_3 C15_3 1_555 1_555
O15_3 Zn1_3 1_555 1_555
O17_3 C15_3 1_555 1_555
O18_3 Zn1_3 1_555 1_555
O20_3 Zn2_3 1_555 1_555
O21_3 Zn2_3 1_555 1_555
C5_3 C6_3 1_555 1_555
C16_3 O18_3 1_555 1_555
C16_3 O20_3 1_555 1_555
Zn1_4 O1_4 1_555 1_555
Zn2_4 O2_4 1_555 1_555
C1_4 C2_4 1_555 1_555
C2_4 H1_4 1_555 1_555
C3_4 C2_4 1_555 1_555
C4_4 C3_4 1_555 1_555
H2_4 C4_4 1_555 1_555
C5_4 C4_4 1_555 1_555
C6_4 C1_4 1_555 1_555
H3_4 C6_4 1_555 1_555
C7_4 C3_4 1_555 1_555
C8_4 C5_4 1_555 1_555
O1_4 P1_4 1_555 1_555
O2_4 P1_4 1_555 1_555
O3_4 P1_4 1_555 1_555
O4_4 C7_4 1_555 1_555
O19_2 C8_4 1_555 1_555
O7_4 C8_4 1_555 1_555
P1_4 C1_4 1_555 1_555
Zn5_3 O3_4 1_555 1_555
Zn7 O14_4 1_555 1_555
Zn10_2 O7_4 1_555 1_555
C12_4 C11_4 1_555 1_555
H5_4 C12_4 1_555 1_555
C13_4 C12_4 1_555 1_555
C15_4 C11_4 1_555 1_555
C16_4 C13_4 1_555 1_555
O10_4 Zn2_4 1_555 1_555
O12_4 Zn1_4 1_555 1_555
O14_4 C15_4 1_555 1_555
O15_4 Zn1_4 1_555 1_555
O17_4 C15_4 1_555 1_555
O18_4 Zn1_4 1_555 1_555
O20_4 Zn2_4 1_555 1_555
O21_4 Zn2_4 1_555 1_555
C5_4 C6_4 1_555 1_555
C16_4 O18_4 1_555 1_555
C16_4 O20_4 1_555 1_555
Zn6_2 O8_4 1_555 1_555
Zn8_3 O11_4 1_555 1_555
Zn9_2 O9_4 1_555 1_555
C9_4 C10_4 1_555 1_555
C10_4 H4_4 1_555 1_555
C14_4 C9_4 1_555 1_555
H6_4 C14_4 1_555 1_555
O8_4 P2_4 1_555 1_555
O9_4 P2_4 1_555 1_555
O11_4 P2_4 1_555 1_555
O13_4 Zn6_2 1_555 1_555
O16_4 Zn6_2 1_555 1_555
P2_4 C9_4 1_555 1_555
Zn4 O1_5 1_555 1_555
C1_5 C2_5 1_555 1_555
C2_5 H1_5 1_555 1_555
C6_5 C1_5 1_555 1_555
H3_5 C6_5 1_555 1_555
O1_5 P1_5 1_555 1_555
O10 P1_5 1_555 1_555
O12 P1_5 1_555 1_555
P1_5 C1_5 1_555 1_555
O18_5 Zn4 1_555 1_555
C16_5 O18_5 1_555 1_555
C16_5 O21 1_555 1_555
C12_5 C11_5 1_555 1_555
H5_5 C12_5 1_555 1_555
C13_5 C12_5 1_555 1_555
C15_5 C11_5 1_555 1_555
O16_2 C15_5 1_555 1_555
O17_5 C15_5 1_555 1_555
C4_5 C3_5 1_555 1_555
H2_5 C4_5 1_555 1_555
C5_5 C4_5 1_555 1_555
C7_5 C3_5 1_555 1_555
O16_3 C7_5 1_555 1_555
O5_5 C7_5 1_555 1_555
O6_3 C8_5 1_555 1_555
O21_2 C8_5 1_555 1_555
Zn5 O6_3 1_555 1_555
Zn5_3 O8_5 1_555 1_555
C9_5 C10_5 1_555 1_555
C10_5 H4_5 1_555 1_555
C14_5 C9_5 1_555 1_555
H6_5 C14_5 1_555 1_555
O8_5 P2_5 1_555 1_555
O10_4 P2_5 1_555 1_555
O12_4 P2_5 1_555 1_555
O19_3 Zn5_3 1_555 1_555
P2_5 C9_5 1_555 1_555
Zn5 O1_6 1_555 1_555
C1_6 C2_6 1_555 1_555
C2_6 H1_6 1_555 1_555
C6_6 C1_6 1_555 1_555
H3_6 C6_6 1_555 1_555
O1_6 P1_6 1_555 1_555
O10_2 P1_6 1_555 1_555
O12_2 P1_6 1_555 1_555
P1_6 C1_6 1_555 1_555
O6_4 C8_6 1_555 1_555
O21_3 C8_6 1_555 1_555
Zn5_2 O6_4 1_555 1_555
C4_6 C3_6 1_555 1_555
H2_6 C4_6 1_555 1_555
C5_6 C4_6 1_555 1_555
C7_6 C3_6 1_555 1_555
O16_4 C7_6 1_555 1_555
O5_6 C7_6 1_555 1_555
C4_7 C3_7 1_555 1_555
H2_7 C4_7 1_555 1_555
C5_7 C4_7 1_555 1_555
C7_7 C3_7 1_555 1_555
O16 C7_7 1_555 1_555
O5_7 C7_7 1_555 1_555
O19_3 C8_7 1_555 1_555
O21_4 C8_7 1_555 1_555
Zn5_2 O1_7 1_555 1_555
C1_7 C2_7 1_555 1_555
C2_7 H1_7 1_555 1_555
C6_7 C1_7 1_555 1_555
H3_7 C6_7 1_555 1_555
O1_7 P1_7 1_555 1_555
O10_3 P1_7 1_555 1_555
O12_3 P1_7 1_555 1_555
P1_7 C1_7 1_555 1_555
O10_5 Zn9_2 1_555 1_555
O21_5 Zn9_2 1_555 1_555
O10_6 Zn10 1_555 1_555
O21_6 Zn10 1_555 1_555
O10_7 Zn10_2 1_555 1_555
O21_7 Zn10_2 1_555 1_555
O10_8 Zn9 1_555 1_555
O21_8 Zn9 1_555 1_555
Zn8_3 O1_8 1_555 1_555
C1_8 C2_8 1_555 1_555
C2_8 H1_8 1_555 1_555
C3_8 C2_8 1_555 1_555
C4_8 C3_8 1_555 1_555
H2_8 C4_8 1_555 1_555
C5_8 C4_8 1_555 1_555
C6_8 C1_8 1_555 1_555
H3_8 C6_8 1_555 1_555
C7_8 C3_8 1_555 1_555
C8_8 C5_8 1_555 1_555
O1_8 P1_8 1_555 1_555
O10_5 P1_8 1_555 1_555
O13_4 P1_8 1_555 1_555
O15_4 C7_8 1_555 1_555
O5_8 C7_8 1_555 1_555
O6_5 C8_8 1_555 1_555
O21_6 C8_8 1_555 1_555
P1_8 C1_8 1_555 1_555
Zn8_2 O8_6 1_555 1_555
Zn7 O6_5 1_555 1_555
C9_6 C10_6 1_555 1_555
C10_6 H4_6 1_555 1_555
C11_6 C10_6 1_555 1_555
C12_6 C11_6 1_555 1_555
H5_6 C12_6 1_555 1_555
C13_6 C12_6 1_555 1_555
C14_6 C9_6 1_555 1_555
H6_6 C14_6 1_555 1_555
C15_6 C11_6 1_555 1_555
C16_6 C13_6 1_555 1_555
O8_6 P2_6 1_555 1_555
O10_8 P2_6 1_555 1_555
O13_3 P2_6 1_555 1_555
O15_3 C15_6 1_555 1_555
O17_6 C15_6 1_555 1_555
O18_6 Zn8_3 1_555 1_555
O19_4 Zn8_2 1_555 1_555
P2_6 C9_6 1_555 1_555
C5_8 C6_8 1_555 1_555
C13_6 C14_6 1_555 1_555
C16_6 O18_6 1_555 1_555
C16_6 O21_5 1_555 1_555
Zn7 O1_9 1_555 1_555
C1_9 C2_9 1_555 1_555
C2_9 H1_9 1_555 1_555
C3_9 C2_9 1_555 1_555
C4_9 C3_9 1_555 1_555
H2_9 C4_9 1_555 1_555
C5_9 C4_9 1_555 1_555
C6_9 C1_9 1_555 1_555
H3_9 C6_9 1_555 1_555
C7_9 C3_9 1_555 1_555
C8_9 C5_9 1_555 1_555
O1_9 P1_9 1_555 1_555
O10_6 P1_9 1_555 1_555
O13 P1_9 1_555 1_555
O15 C7_9 1_555 1_555
O5_9 C7_9 1_555 1_555
O6_6 C8_9 1_555 1_555
O21_7 C8_9 1_555 1_555
P1_9 C1_9 1_555 1_555
Zn8 O6_6 1_555 1_555
C5_9 C6_9 1_555 1_555
Zn8 O1_10 1_555 1_555
C1_10 C2_10 1_555 1_555
C2_10 H1_10 1_555 1_555
C3_10 C2_10 1_555 1_555
C4_10 C3_10 1_555 1_555
H2_10 C4_10 1_555 1_555
C5_10 C4_10 1_555 1_555
C6_10 C1_10 1_555 1_555
H3_10 C6_10 1_555 1_555
C7_10 C3_10 1_555 1_555
C8_10 C5_10 1_555 1_555
O1_10 P1_10 1_555 1_555
O10_7 P1_10 1_555 1_555
O13_2 P1_10 1_555 1_555
O15_2 C7_10 1_555 1_555
O5_10 C7_10 1_555 1_555
O19_4 C8_10 1_555 1_555
O21_8 C8_10 1_555 1_555
P1_10 C1_10 1_555 1_555
C5_10 C6_10 1_555 1_555

#END
