
###############################################################################
#
# This file contains modified crystal structure data generated from the
# MOF subset of the Cambridge Structural Database (CSD) v543 
# hosted by the Cambridge Crystallographic Data Centre (CCDC).
#
# This work is licensed under the Creative Commons
# Attribution-NonCommercial-ShareAlike 4.0 International License.
# To view a copy of this license, visit
# http://creativecommons.org/licenses/by-nc-sa/4.0/
# or send a letter to
# Creative Commons, PO Box 1866, Mountain View, CA 94042, USA.
#
# CIF created using the CSD Python API on 29 September 2022
# The structure has been converted into the P1 space group
# The structure has a 3D framework
# The original CSD entry PUTRAA is in the rhombohedral crystal system
# The framework has been calculated to contain at least 10.0% void space
# The void calculation uses a probe of radius 1.32A, grid spacing 0.4
#
###############################################################################

data_PUTRAA
_chemical_formula_moiety         '(C126 H72 Cl12 N72 Zn16)n'
_symmetry_cell_setting           triclinic
_symmetry_space_group_name_H-M   'P 1'
_symmetry_Int_Tables_number      1
_space_group_name_Hall           'P 1'
loop_
_symmetry_equiv_pos_site_id
_symmetry_equiv_pos_as_xyz
1 x,y,z
_cell_length_a                   20.397(3)
_cell_length_b                   20.397(3)
_cell_length_c                   12.0129(15)
_cell_angle_alpha                90
_cell_angle_beta                 90
_cell_angle_gamma                120
_cell_volume                     4328.24
loop_
_atom_site_label
_atom_site_type_symbol
_atom_site_fract_x
_atom_site_fract_y
_atom_site_fract_z
N5 N 0.8120(2) 0.1201(2) 0.8651(4)
C8 C 0.8326(4) 0.1927(3) 0.8489(5)
H5 H 0.8728 0.2294 0.8901
C9 C 0.7971(4) 0.2154(4) 0.7742(6)
H6 H 0.8125 0.2665 0.7664
C10 C 0.7395(4) 0.1630(4) 0.7123(5)
H7 H 0.7152 0.1777 0.6608
C11 C 0.7167(3) 0.0874(3) 0.7257(5)
H8 H 0.6776 0.0503 0.6833
C12 C 0.7542(3) 0.0687(3) 0.8044(4)
Zn6 Zn 0.86533(3) 0.06914(3) 0.97831(5)
Cl3 Cl 0.97812(7) 0.11052(13) 0.88393(10)
H3 H 0.6181 0.4890 0.0059
Zn4 Zn 0.79620(4) 0.86533(3) 0.02169(5)
Zn1 Zn 0.46800(3) 0.59753(3) 0.68836(5)
Cl1 Cl 0.35521(7) 0.55615(8) 0.78274(10)
N1 N 0.5213(2) 0.5466(2) 0.8016(4)
N2 N 0.6544(2) 0.7410(2) 0.8799(3)
N3 N 0.5563(2) 0.6866(2) 0.7622(3)
N4 N 0.5856(2) 0.76263(19) 0.7538(3)
C1 C 0.5007(4) 0.4740(3) 0.8178(5)
H1 H 0.4605 0.4373 0.7766
C2 C 0.5362(4) 0.4513(4) 0.8925(6)
H2 H 0.5208 0.4002 0.9003
C3 C 0.5938(4) 0.5037(4) 0.9544(5)
C4 C 0.6166(3) 0.5793(3) 0.9410(5)
H4 H 0.6557 0.6164 0.9834
C5 C 0.5791(3) 0.5980(3) 0.8623(4)
C6 C 0.5980(2) 0.6763(2) 0.8369(4)
C7 C 0.6435(2) 0.7928(2) 0.8247(4)
N6 N 0.6789(2) 0.9257(2) 0.7868(3)
N7 N 0.7770(2) 0.9801(2) 0.9045(3)
N8 N 0.7477(2) 0.90404(19) 0.9129(3)
C13 C 0.7353(2) 0.9904(2) 0.8298(4)
C14 C 0.6898(2) 0.8739(2) 0.8420(4)
Zn2 Zn 0.26420(3) 0.46286(4) 0.64497(5)
Cl2 Cl 0.22282(8) 0.53427(11) 0.55059(10)
Zn3 Zn 0.12953(4) 0.53200(3) 0.68836(5)
Zn5 Zn 0.53714(4) 0.80133(3) 0.64497(5)
Cl3_2 Cl 0.46573(11) 0.68854(7) 0.55059(10)
N9 N 0.2133(2) 0.3586(3) 0.5317(4)
N10 N 0.3533(2) 0.4636(3) 0.5711(3)
N11 N 0.17703(28) 0.4144(2) 0.7538(3)
N12 N 0.42930(19) 0.51036(28) 0.5795(3)
Zn1_2 Zn 0.40247(3) 0.87047(4) 0.68836(5)
Cl1_2 Cl 0.44385(8) 0.79906(11) 0.78274(10)
N1_2 N 0.4534(2) 0.9747(3) 0.8016(4)
N2_2 N 0.2590(2) 0.9134(3) 0.8799(3)
N3_2 N 0.3134(2) 0.8697(3) 0.7622(3)
N4_2 N 0.23737(19) 0.82297(28) 0.7538(3)
C5_2 C 0.4020(3) 0.9811(4) 0.8623(4)
C6_2 C 0.3237(2) 0.9217(3) 0.8369(4)
C7_2 C 0.2072(2) 0.8507(3) 0.8247(4)
N6_2 N 0.0743(2) 0.7533(3) 0.7868(3)
N7_2 N 0.0199(2) 0.7970(3) 0.9045(3)
N8_2 N 0.09596(19) 0.84370(28) 0.9129(3)
C13_2 C 0.0096(2) 0.7450(3) 0.8298(4)
C14_2 C 0.1261(2) 0.8160(3) 0.8420(4)
Zn5_2 Zn 0.19867(3) 0.73580(5) 0.64497(5)
Cl3_3 Cl 0.31146(7) 0.77718(13) 0.55059(10)
N9_2 N 0.6414(3) 0.8546(4) 0.5317(4)
N10_2 N 0.5364(3) 0.8896(4) 0.5711(3)
N12_2 N 0.48964(28) 0.91893(34) 0.5795(3)
N5_2 N 0.8799(2) 0.6920(3) 0.8651(4)
C8_2 C 0.8073(3) 0.6400(5) 0.8489(5)
H5_2 H 0.7706 0.6435 0.8901
C9_2 C 0.7846(4) 0.5818(6) 0.7742(6)
H6_2 H 0.7335 0.5461 0.7664
C10_2 C 0.8370(4) 0.5766(6) 0.7123(5)
H7_2 H 0.8223 0.5376 0.6608
C11_2 C 0.9126(3) 0.6294(4) 0.7257(5)
H8_2 H 0.9497 0.6274 0.6833
C12_2 C 0.9313(3) 0.6856(4) 0.8044(4)
Zn6_2 Zn 0.93086(3) 0.79620(4) 0.97831(5)
Zn4_2 Zn 0.06914(5) 0.20380(4) 0.02169(5)
Cl1_3 Cl 0.20094(11) 0.64479(7) 0.78274(10)
N1_3 N 0.0253(3) 0.4787(2) 0.8016(4)
N2_3 N 0.0866(3) 0.3456(2) 0.8799(3)
N3_3 N 0.1303(3) 0.4437(2) 0.7622(3)
C5_3 C 0.0189(4) 0.4209(3) 0.8623(4)
C6_3 C 0.0783(3) 0.4020(2) 0.8369(4)
C7_3 C 0.1493(3) 0.3565(2) 0.8247(4)
N5_3 N 0.3080(3) 0.1880(2) 0.8651(4)
N6_3 N 0.2467(3) 0.3211(2) 0.7868(3)
N7_3 N 0.2030(3) 0.2230(2) 0.9045(3)
N8_3 N 0.15630(28) 0.2523(2) 0.9129(3)
C8_3 C 0.3600(5) 0.1674(4) 0.8489(5)
H5_3 H 0.3565 0.1272 0.8901
C9_3 C 0.4182(6) 0.2029(4) 0.7742(6)
H6_3 H 0.4539 0.1875 0.7664
C10_3 C 0.4234(6) 0.2605(4) 0.7123(5)
H7_3 H 0.4624 0.2848 0.6608
C11_3 C 0.3706(4) 0.2833(3) 0.7257(5)
H8_3 H 0.3726 0.3224 0.6833
C12_3 C 0.3144(4) 0.2458(3) 0.8044(4)
C13_3 C 0.2550(3) 0.2647(2) 0.8298(4)
C14_3 C 0.1840(3) 0.3102(2) 0.8420(4)
Zn6_3 Zn 0.20380(4) 0.13467(3) 0.97831(5)
N9_3 N 0.1454(4) 0.7867(2) 0.5317(4)
N10_3 N 0.1104(4) 0.6467(2) 0.5711(3)
N12_3 N 0.08107(34) 0.57070(19) 0.5795(3)
N2_4 N 0.3211(2) 0.0743(2) 0.2132(3)
N3_4 N 0.2230(2) 0.0199(2) 0.0955(3)
N4_3 N 0.2523(2) 0.09596(19) 0.0871(3)
C6_4 C 0.2647(2) 0.0096(2) 0.1702(4)
C7_4 C 0.3102(2) 0.1261(2) 0.1580(4)
N5_4 N 0.4787(2) 0.4534(2) 0.1984(4)
N6_4 N 0.3456(2) 0.2590(2) 0.1201(3)
N7_4 N 0.4437(2) 0.3134(2) 0.2378(3)
N8_4 N 0.4144(2) 0.23737(19) 0.2462(3)
C8_4 C 0.4993(4) 0.5260(3) 0.1822(5)
H5_4 H 0.5395 0.5627 0.2234
C9_4 C 0.4638(4) 0.5487(4) 0.1075(6)
H6_4 H 0.4792 0.5998 0.0997
C10_4 C 0.4062(4) 0.4963(4) 0.0456(5)
C11_4 C 0.3834(3) 0.4207(3) 0.0590(5)
H8_4 H 0.3443 0.3836 0.0166
C12_4 C 0.4209(3) 0.4020(3) 0.1377(4)
C13_4 C 0.4020(2) 0.3237(2) 0.1631(4)
C14_4 C 0.3565(2) 0.2072(2) 0.1753(4)
Zn4_3 Zn 0.46286(4) 0.19867(3) 0.35503(5)
Zn6_4 Zn 0.53200(3) 0.40247(3) 0.31164(5)
H7_4 H 0.3819 0.5110 0.9941
Cl3_4 Cl 0.13239(11) 0.02188(7) 0.88393(10)
N11_2 N 0.84370(28) 0.7477(2) 0.0871(3)
Cl2_2 Cl 0.88948(8) 0.86761(11) 0.88393(10)
Cl1_4 Cl 0.11052(8) 0.13239(11) 0.11607(10)
N1_4 N 0.1201(2) 0.3080(3) 0.1349(4)
C1_2 C 0.1927(3) 0.3600(5) 0.1511(5)
H1_2 H 0.2294 0.3565 0.1099
C2_2 C 0.2154(4) 0.4182(6) 0.2258(6)
H2_2 H 0.2665 0.4539 0.2336
C3_2 C 0.1630(4) 0.4234(6) 0.2877(5)
H3_2 H 0.1777 0.4624 0.3392
C4_2 C 0.0874(3) 0.3706(4) 0.2743(5)
H4_2 H 0.0503 0.3726 0.3167
C5_4 C 0.0687(3) 0.3144(4) 0.1956(4)
N2_5 N 0.9257(2) 0.2467(3) 0.2132(3)
N3_5 N 0.9801(2) 0.2030(3) 0.0955(3)
N4_4 N 0.90404(19) 0.15630(28) 0.0871(3)
C6_5 C 0.9904(2) 0.2550(3) 0.1702(4)
C7_5 C 0.8739(2) 0.1840(3) 0.1580(4)
N5_5 N 0.5466(2) 0.0253(3) 0.1984(4)
N6_5 N 0.7410(2) 0.0866(3) 0.1201(3)
N7_5 N 0.6866(2) 0.1303(3) 0.2378(3)
N8_5 N 0.76263(19) 0.17703(28) 0.2462(3)
C12_5 C 0.5980(3) 0.0189(4) 0.1377(4)
C13_5 C 0.6763(2) 0.0783(3) 0.1631(4)
C14_5 C 0.7928(2) 0.1493(3) 0.1753(4)
Zn4_4 Zn 0.80133(3) 0.26420(5) 0.35503(5)
Zn6_5 Zn 0.59753(3) 0.12953(4) 0.31164(5)
Cl1_5 Cl 0.86761(11) 0.97812(7) 0.11607(10)
N1_5 N 0.6920(3) 0.8120(2) 0.1349(4)
N2_6 N 0.7533(3) 0.6789(2) 0.2132(3)
N3_6 N 0.7970(3) 0.7770(2) 0.0955(3)
C1_3 C 0.6400(5) 0.8326(4) 0.1511(5)
H1_3 H 0.6435 0.8728 0.1099
C2_3 C 0.5818(6) 0.7971(4) 0.2258(6)
H2_3 H 0.5461 0.8125 0.2336
C3_3 C 0.5766(6) 0.7395(4) 0.2877(5)
H3_3 H 0.5376 0.7152 0.3392
C4_3 C 0.6294(4) 0.7167(3) 0.2743(5)
H4_3 H 0.6274 0.6776 0.3167
C5_5 C 0.6856(4) 0.7542(3) 0.1956(4)
C6_6 C 0.7450(3) 0.7353(2) 0.1702(4)
C7_6 C 0.8160(3) 0.6898(2) 0.1580(4)
N5_6 N 0.9747(3) 0.5213(2) 0.1984(4)
N6_6 N 0.9134(3) 0.6544(2) 0.1201(3)
N7_6 N 0.8697(3) 0.5563(2) 0.2378(3)
N8_6 N 0.82297(28) 0.5856(2) 0.2462(3)
C12_6 C 0.9811(4) 0.5791(3) 0.1377(4)
C13_6 C 0.9217(3) 0.5980(2) 0.1631(4)
C14_6 C 0.8507(3) 0.6435(2) 0.1753(4)
Zn4_5 Zn 0.73580(5) 0.53714(4) 0.35503(5)
Zn6_6 Zn 0.87047(4) 0.46800(3) 0.31164(5)
N6_7 N 0.0123(2) 0.5923(2) 0.4534(3)
C8_5 C 0.1660(4) 0.8593(3) 0.5155(5)
H5_5 H 0.2062 0.8960 0.5567
C9_5 C 0.1305(4) 0.8820(4) 0.4408(6)
H6_5 H 0.1459 0.9331 0.4330
C10_5 C 0.0729(4) 0.8296(4) 0.3789(5)
H7_5 H 0.0486 0.8443 0.3274
C11_5 C 0.0501(3) 0.7540(3) 0.3923(5)
H8_5 H 0.0110 0.7169 0.3499
C12_7 C 0.0876(3) 0.7353(3) 0.4710(4)
C13_7 C 0.0687(2) 0.6570(2) 0.4964(4)
C14_7 C 0.0232(2) 0.5405(2) 0.5086(4)
Cl1_6 Cl 0.68854(7) 0.22282(8) 0.44941(10)
N1_6 N 0.8546(2) 0.2133(2) 0.4683(4)
N2_7 N 0.9877(2) 0.4077(2) 0.5466(3)
N3_7 N 0.8896(2) 0.3533(2) 0.4289(3)
N4_5 N 0.9189(2) 0.42930(19) 0.4205(3)
C1_4 C 0.8340(4) 0.1407(3) 0.4845(5)
H1_4 H 0.7938 0.1040 0.4433
C2_4 C 0.8695(4) 0.1180(4) 0.5592(6)
H2_4 H 0.8541 0.0669 0.5670
C3_4 C 0.9271(4) 0.1704(4) 0.6211(5)
H3_4 H 0.9514 0.1557 0.6726
C4_4 C 0.9499(3) 0.2460(3) 0.6077(5)
H4_4 H 0.9890 0.2831 0.6501
C5_6 C 0.9124(3) 0.2647(3) 0.5290(4)
C6_7 C 0.9313(2) 0.3430(2) 0.5036(4)
C7_7 C 0.9768(2) 0.4595(2) 0.4914(4)
Cl2_3 Cl 0.55615(8) 0.20094(11) 0.21726(10)
Cl3_5 Cl 0.79906(11) 0.35521(7) 0.21726(10)
N11_3 N 0.51036(28) 0.0811(2) 0.4205(3)
Cl1_7 Cl 0.77718(8) 0.46573(11) 0.44941(10)
N1_7 N 0.7867(2) 0.6414(3) 0.4683(4)
N2_8 N 0.5923(2) 0.5801(3) 0.5466(3)
N3_8 N 0.6467(2) 0.5364(3) 0.4289(3)
N4_6 N 0.57070(19) 0.48964(28) 0.4205(3)
C1_5 C 0.8593(3) 0.6934(5) 0.4845(5)
H1_5 H 0.8960 0.6899 0.4433
C2_5 C 0.8820(4) 0.7516(6) 0.5592(6)
H2_5 H 0.9331 0.7873 0.5670
C3_5 C 0.8296(4) 0.7568(6) 0.6211(5)
H3_5 H 0.8443 0.7958 0.6726
C4_5 C 0.7540(3) 0.7040(4) 0.6077(5)
H4_5 H 0.7169 0.7060 0.6501
C5_7 C 0.7353(3) 0.6478(4) 0.5290(4)
C6_8 C 0.6570(2) 0.5884(3) 0.5036(4)
C7_8 C 0.5405(2) 0.5174(3) 0.4914(4)
N6_8 N 0.4077(2) 0.4199(3) 0.4534(3)
C8_6 C 0.1407(3) 0.3066(5) 0.5155(5)
H5_6 H 0.1040 0.3101 0.5567
C9_6 C 0.1180(4) 0.2484(6) 0.4408(6)
H6_6 H 0.0669 0.2127 0.4330
C10_6 C 0.1704(4) 0.2432(6) 0.3789(5)
H7_6 H 0.1557 0.2042 0.3274
C11_6 C 0.2460(3) 0.2960(4) 0.3923(5)
H8_6 H 0.2831 0.2940 0.3499
C12_8 C 0.2647(3) 0.3522(4) 0.4710(4)
C13_8 C 0.3430(2) 0.4116(3) 0.4964(4)
C14_8 C 0.4595(2) 0.4826(3) 0.5086(4)
Cl3_6 Cl 0.64479(7) 0.44385(13) 0.21726(10)
Cl1_8 Cl 0.53427(11) 0.31146(7) 0.44941(10)
N1_8 N 0.3586(3) 0.1454(2) 0.4683(4)
N2_9 N 0.4199(3) 0.0123(2) 0.5466(3)
N3_9 N 0.4636(3) 0.1104(2) 0.4289(3)
C1_6 C 0.3066(5) 0.1660(4) 0.4845(5)
H1_6 H 0.3101 0.2062 0.4433
C2_6 C 0.2484(6) 0.1305(4) 0.5592(6)
H2_6 H 0.2127 0.1459 0.5670
C3_6 C 0.2432(6) 0.0729(4) 0.6211(5)
H3_6 H 0.2042 0.0486 0.6726
C4_6 C 0.2960(4) 0.0501(3) 0.6077(5)
H4_6 H 0.2940 0.0110 0.6501
C5_8 C 0.3522(4) 0.0876(3) 0.5290(4)
C6_9 C 0.4116(3) 0.0687(2) 0.5036(4)
C7_9 C 0.4826(3) 0.0232(2) 0.4914(4)
N6_9 N 0.5801(3) 0.9877(2) 0.4534(3)
C8_7 C 0.6934(5) 0.8340(4) 0.5155(5)
H5_7 H 0.6899 0.7938 0.5567
C9_7 C 0.7516(6) 0.8695(4) 0.4408(6)
H6_7 H 0.7873 0.8541 0.4330
C10_7 C 0.7568(6) 0.9271(4) 0.3789(5)
H7_7 H 0.7958 0.9514 0.3274
C11_7 C 0.7040(4) 0.9499(3) 0.3923(5)
H8_7 H 0.7060 0.9890 0.3499
C12_9 C 0.6478(4) 0.9124(3) 0.4710(4)
C13_9 C 0.5884(3) 0.9313(2) 0.4964(4)
C14_9 C 0.5174(3) 0.9768(2) 0.5086(4)
H3_7 H 0.5110 0.1291 0.0059
C1_7 C 0.5260(3) 0.0267(5) 0.8178(5)
H1_7 H 0.5627 0.0232 0.7766
C2_7 C 0.5487(4) 0.0849(6) 0.8925(6)
H2_7 H 0.5998 0.1206 0.9003
C3_7 C 0.4963(4) 0.0901(6) 0.9544(5)
C4_7 C 0.4207(3) 0.0373(4) 0.9410(5)
H4_7 H 0.3836 0.0393 0.9834
Zn4_6 Zn 0.13467(3) 0.93086(5) 0.02169(5)
Cl1_9 Cl 0.02188(7) 0.88948(8) 0.11607(10)
N1_9 N 0.1880(2) 0.8799(2) 0.1349(4)
C1_8 C 0.1674(4) 0.8073(3) 0.1511(5)
H1_8 H 0.1272 0.7706 0.1099
C2_8 C 0.2029(4) 0.7846(4) 0.2258(6)
H2_8 H 0.1875 0.7335 0.2336
C3_8 C 0.2605(4) 0.8370(4) 0.2877(5)
H3_8 H 0.2848 0.8223 0.3392
C4_8 C 0.2833(3) 0.9126(3) 0.2743(5)
H4_8 H 0.3224 0.9497 0.3167
C5_9 C 0.2458(3) 0.9313(3) 0.1956(4)
H3_9 H 0.8709 0.3819 0.0059
C1_9 C 0.9733(5) 0.4993(4) 0.8178(5)
H1_9 H 0.9768 0.5395 0.7766
C2_9 C 0.9151(6) 0.4638(4) 0.8925(6)
H2_9 H 0.8794 0.4792 0.9003
C3_9 C 0.9099(6) 0.4062(4) 0.9544(5)
C4_9 C 0.9627(4) 0.3834(3) 0.9410(5)
H4_9 H 0.9607 0.3443 0.9834
C8_8 C 0.4740(3) 0.9733(5) 0.1822(5)
H5_8 H 0.4373 0.9768 0.2234
C9_8 C 0.4513(4) 0.9151(6) 0.1075(6)
H6_8 H 0.4002 0.8794 0.0997
C10_8 C 0.5037(4) 0.9099(6) 0.0456(5)
C11_8 C 0.5793(3) 0.9627(4) 0.0590(5)
H8_8 H 0.6164 0.9607 0.0166
H7_8 H 0.4890 0.8709 0.9941
C8_9 C 0.0267(5) 0.5007(4) 0.1822(5)
H5_9 H 0.0232 0.4605 0.2234
C9_9 C 0.0849(6) 0.5362(4) 0.1075(6)
H6_9 H 0.1206 0.5208 0.0997
C10_9 C 0.0901(6) 0.5938(4) 0.0456(5)
C11_9 C 0.0373(4) 0.6166(3) 0.0590(5)
H8_9 H 0.0393 0.6557 0.0166
H7_9 H 0.1291 0.6181 0.9941
loop_
_geom_bond_atom_site_label_1
_geom_bond_atom_site_label_2
_geom_bond_site_symmetry_1
_geom_bond_site_symmetry_2
N5 C8 1_555 1_555
C8 H5 1_555 1_555
C9 C8 1_555 1_555
H6 C9 1_555 1_555
C10 C9 1_555 1_555
H7 C10 1_555 1_555
C11 C10 1_555 1_555
H8 C11 1_555 1_555
C12 N5 1_555 1_555
Zn6 N5 1_555 1_555
C11 C12 1_555 1_555
Zn6 Cl3 1_555 1_555
Zn1 Cl1 1_555 1_555
Cl1 Zn2 1_555 1_555
N1 Zn1 1_555 1_555
N2 C6 1_555 1_555
N3 Zn1 1_555 1_555
N4 N3 1_555 1_555
C1 N1 1_555 1_555
H1 C1 1_555 1_555
C2 C1 1_555 1_555
H2 C2 1_555 1_555
C3 C2 1_555 1_555
C4 C3 1_555 1_555
H4 C4 1_555 1_555
C5 N1 1_555 1_555
C6 N3 1_555 1_555
C7 N2 1_555 1_555
N6 C13 1_555 1_555
N7 N8 1_555 1_555
N8 C14 1_555 1_555
C13 N7 1_555 1_555
C14 C7 1_555 1_555
Zn2 Cl2 1_555 1_555
Cl2 Zn3 1_555 1_555
Zn5 N4 1_555 1_555
Cl3_2 Zn1 1_555 1_555
N9 Zn2 1_555 1_555
N10 Zn2 1_555 1_555
N11 Zn2 1_555 1_555
N12 Zn1 1_555 1_555
N4 C7 1_555 1_555
C4 C5 1_555 1_555
C5 C6 1_555 1_555
N6 C14 1_555 1_555
Zn5 Cl3_2 1_555 1_555
N10 N12 1_555 1_555
Zn1_2 Cl1_2 1_555 1_555
Cl1_2 Zn5 1_555 1_555
N1_2 Zn1_2 1_555 1_555
N2_2 C6_2 1_555 1_555
N3_2 Zn1_2 1_555 1_555
N4_2 N3_2 1_555 1_555
C5_2 N1_2 1_555 1_555
C6_2 N3_2 1_555 1_555
C7_2 N2_2 1_555 1_555
N6_2 C13_2 1_555 1_555
N7_2 N8_2 1_555 1_555
N8_2 C14_2 1_555 1_555
C13_2 N7_2 1_555 1_555
C14_2 C7_2 1_555 1_555
Zn5_2 N4_2 1_555 1_555
Cl3_3 Zn1_2 1_555 1_555
N9_2 Zn5 1_555 1_555
N10_2 Zn5 1_555 1_555
N12_2 Zn1_2 1_555 1_555
N4_2 C7_2 1_555 1_555
C5_2 C6_2 1_555 1_555
N6_2 C14_2 1_555 1_555
Zn5_2 Cl3_3 1_555 1_555
N10_2 N12_2 1_555 1_555
N5_2 C8_2 1_555 1_555
C8_2 H5_2 1_555 1_555
C9_2 C8_2 1_555 1_555
H6_2 C9_2 1_555 1_555
C10_2 C9_2 1_555 1_555
H7_2 C10_2 1_555 1_555
C11_2 C10_2 1_555 1_555
H8_2 C11_2 1_555 1_555
C12_2 N5_2 1_555 1_555
Zn6_2 N5_2 1_555 1_555
C11_2 C12_2 1_555 1_555
Zn3 Cl1_3 1_555 1_555
Cl1_3 Zn5_2 1_555 1_555
N1_3 Zn3 1_555 1_555
N2_3 C6_3 1_555 1_555
N3_3 Zn3 1_555 1_555
N11 N3_3 1_555 1_555
C5_3 N1_3 1_555 1_555
C6_3 N3_3 1_555 1_555
C7_3 N2_3 1_555 1_555
N5_3 C8_3 1_555 1_555
N6_3 C13_3 1_555 1_555
N7_3 N8_3 1_555 1_555
N8_3 C14_3 1_555 1_555
C8_3 H5_3 1_555 1_555
C9_3 C8_3 1_555 1_555
H6_3 C9_3 1_555 1_555
C10_3 C9_3 1_555 1_555
H7_3 C10_3 1_555 1_555
C11_3 C10_3 1_555 1_555
H8_3 C11_3 1_555 1_555
C12_3 N5_3 1_555 1_555
C13_3 N7_3 1_555 1_555
C14_3 C7_3 1_555 1_555
Zn6_3 N5_3 1_555 1_555
N9_3 Zn5_2 1_555 1_555
N10_3 Zn5_2 1_555 1_555
N12_3 Zn3 1_555 1_555
N11 C7_3 1_555 1_555
C5_3 C6_3 1_555 1_555
N6_3 C14_3 1_555 1_555
N7_3 Zn6_3 1_555 1_555
C11_3 C12_3 1_555 1_555
C12_3 C13_3 1_555 1_555
N10_3 N12_3 1_555 1_555
N2_4 C6_4 1_555 1_555
N4_3 N3_4 1_555 1_555
C6_4 N3_4 1_555 1_555
C7_4 N2_4 1_555 1_555
N5_4 C8_4 1_555 1_555
N6_4 C13_4 1_555 1_555
N7_4 N8_4 1_555 1_555
N8_4 C14_4 1_555 1_555
C8_4 H5_4 1_555 1_555
C9_4 C8_4 1_555 1_555
H6_4 C9_4 1_555 1_555
C10_4 C9_4 1_555 1_555
C11_4 C10_4 1_555 1_555
H8_4 C11_4 1_555 1_555
C12_4 N5_4 1_555 1_555
C13_4 N7_4 1_555 1_555
C14_4 C7_4 1_555 1_555
Zn4_3 N8_4 1_555 1_555
Zn6_4 N5_4 1_555 1_555
N4_3 C7_4 1_555 1_555
N6_4 C14_4 1_555 1_555
N7_4 Zn6_4 1_555 1_555
C11_4 C12_4 1_555 1_555
C12_4 C13_4 1_555 1_555
Zn6_3 Cl3_4 1_555 1_555
Zn6_2 Cl2_2 1_555 1_555
Zn4_2 Cl1_4 1_555 1_555
N1_4 Zn4_2 1_555 1_555
C1_2 N1_4 1_555 1_555
H1_2 C1_2 1_555 1_555
C2_2 C1_2 1_555 1_555
H2_2 C2_2 1_555 1_555
C3_2 C2_2 1_555 1_555
H3_2 C3_2 1_555 1_555
C4_2 C3_2 1_555 1_555
H4_2 C4_2 1_555 1_555
C5_4 N1_4 1_555 1_555
C4_2 C5_4 1_555 1_555
N2_5 C6_5 1_555 1_555
N4_4 N3_5 1_555 1_555
C6_5 N3_5 1_555 1_555
C7_5 N2_5 1_555 1_555
N6_5 C13_5 1_555 1_555
N7_5 N8_5 1_555 1_555
N8_5 C14_5 1_555 1_555
C12_5 N5_5 1_555 1_555
C13_5 N7_5 1_555 1_555
C14_5 C7_5 1_555 1_555
Zn4_4 N8_5 1_555 1_555
Zn6_5 N5_5 1_555 1_555
N4_4 C7_5 1_555 1_555
N6_5 C14_5 1_555 1_555
N7_5 Zn6_5 1_555 1_555
C12_5 C13_5 1_555 1_555
Zn4 Cl1_5 1_555 1_555
N1_5 Zn4 1_555 1_555
N2_6 C6_6 1_555 1_555
N3_6 Zn4 1_555 1_555
N11_2 N3_6 1_555 1_555
C1_3 N1_5 1_555 1_555
H1_3 C1_3 1_555 1_555
C2_3 C1_3 1_555 1_555
H2_3 C2_3 1_555 1_555
C3_3 C2_3 1_555 1_555
H3_3 C3_3 1_555 1_555
C4_3 C3_3 1_555 1_555
H4_3 C4_3 1_555 1_555
C5_5 N1_5 1_555 1_555
C6_6 N3_6 1_555 1_555
C7_6 N2_6 1_555 1_555
N6_6 C13_6 1_555 1_555
N7_6 N8_6 1_555 1_555
N8_6 C14_6 1_555 1_555
C12_6 N5_6 1_555 1_555
C13_6 N7_6 1_555 1_555
C14_6 C7_6 1_555 1_555
Zn4_5 N8_6 1_555 1_555
Zn6_6 N5_6 1_555 1_555
N11_2 C7_6 1_555 1_555
C4_3 C5_5 1_555 1_555
C5_5 C6_6 1_555 1_555
N6_6 C14_6 1_555 1_555
N7_6 Zn6_6 1_555 1_555
C12_6 C13_6 1_555 1_555
N9_3 C8_5 1_555 1_555
N6_7 C13_7 1_555 1_555
N12_3 C14_7 1_555 1_555
C8_5 H5_5 1_555 1_555
C9_5 C8_5 1_555 1_555
H6_5 C9_5 1_555 1_555
C10_5 C9_5 1_555 1_555
H7_5 C10_5 1_555 1_555
C11_5 C10_5 1_555 1_555
H8_5 C11_5 1_555 1_555
C12_7 N9_3 1_555 1_555
C13_7 N10_3 1_555 1_555
N6_7 C14_7 1_555 1_555
C11_5 C12_7 1_555 1_555
C12_7 C13_7 1_555 1_555
Zn4_4 Cl1_6 1_555 1_555
Cl1_6 Zn6_5 1_555 1_555
N1_6 Zn4_4 1_555 1_555
N2_7 C6_7 1_555 1_555
N3_7 Zn4_4 1_555 1_555
N4_5 N3_7 1_555 1_555
C1_4 N1_6 1_555 1_555
H1_4 C1_4 1_555 1_555
C2_4 C1_4 1_555 1_555
H2_4 C2_4 1_555 1_555
C3_4 C2_4 1_555 1_555
H3_4 C3_4 1_555 1_555
C4_4 C3_4 1_555 1_555
H4_4 C4_4 1_555 1_555
C5_6 N1_6 1_555 1_555
C6_7 N3_7 1_555 1_555
C7_7 N2_7 1_555 1_555
Zn6_5 Cl2_3 1_555 1_555
Cl2_3 Zn4_3 1_555 1_555
Zn6_6 N4_5 1_555 1_555
Cl3_5 Zn4_4 1_555 1_555
N11_3 Zn6_5 1_555 1_555
N4_5 C7_7 1_555 1_555
C4_4 C5_6 1_555 1_555
C5_6 C6_7 1_555 1_555
Zn6_6 Cl3_5 1_555 1_555
Zn4_5 Cl1_7 1_555 1_555
Cl1_7 Zn6_6 1_555 1_555
N1_7 Zn4_5 1_555 1_555
N2_8 C6_8 1_555 1_555
N3_8 Zn4_5 1_555 1_555
N4_6 N3_8 1_555 1_555
C1_5 N1_7 1_555 1_555
H1_5 C1_5 1_555 1_555
C2_5 C1_5 1_555 1_555
H2_5 C2_5 1_555 1_555
C3_5 C2_5 1_555 1_555
H3_5 C3_5 1_555 1_555
C4_5 C3_5 1_555 1_555
H4_5 C4_5 1_555 1_555
C5_7 N1_7 1_555 1_555
C6_8 N3_8 1_555 1_555
C7_8 N2_8 1_555 1_555
N9 C8_6 1_555 1_555
N6_8 C13_8 1_555 1_555
N12 C14_8 1_555 1_555
C8_6 H5_6 1_555 1_555
C9_6 C8_6 1_555 1_555
H6_6 C9_6 1_555 1_555
C10_6 C9_6 1_555 1_555
H7_6 C10_6 1_555 1_555
C11_6 C10_6 1_555 1_555
H8_6 C11_6 1_555 1_555
C12_8 N9 1_555 1_555
C13_8 N10 1_555 1_555
C14_8 C7_8 1_555 1_555
Zn6_4 N4_6 1_555 1_555
Cl3_6 Zn4_5 1_555 1_555
N4_6 C7_8 1_555 1_555
C4_5 C5_7 1_555 1_555
C5_7 C6_8 1_555 1_555
N6_8 C14_8 1_555 1_555
C11_6 C12_8 1_555 1_555
C12_8 C13_8 1_555 1_555
Zn6_4 Cl3_6 1_555 1_555
Zn4_3 Cl1_8 1_555 1_555
Cl1_8 Zn6_4 1_555 1_555
N1_8 Zn4_3 1_555 1_555
N2_9 C6_9 1_555 1_555
N3_9 Zn4_3 1_555 1_555
N11_3 N3_9 1_555 1_555
C1_6 N1_8 1_555 1_555
H1_6 C1_6 1_555 1_555
C2_6 C1_6 1_555 1_555
H2_6 C2_6 1_555 1_555
C3_6 C2_6 1_555 1_555
H3_6 C3_6 1_555 1_555
C4_6 C3_6 1_555 1_555
H4_6 C4_6 1_555 1_555
C5_8 N1_8 1_555 1_555
C6_9 N3_9 1_555 1_555
C7_9 N2_9 1_555 1_555
N11_3 C7_9 1_555 1_555
C4_6 C5_8 1_555 1_555
C5_8 C6_9 1_555 1_555
N9_2 C8_7 1_555 1_555
N6_9 C13_9 1_555 1_555
N12_2 C14_9 1_555 1_555
C8_7 H5_7 1_555 1_555
C9_7 C8_7 1_555 1_555
H6_7 C9_7 1_555 1_555
C10_7 C9_7 1_555 1_555
H7_7 C10_7 1_555 1_555
C11_7 C10_7 1_555 1_555
H8_7 C11_7 1_555 1_555
C12_9 N9_2 1_555 1_555
C13_9 N10_2 1_555 1_555
N6_9 C14_9 1_555 1_555
C11_7 C12_9 1_555 1_555
C12_9 C13_9 1_555 1_555
H1_7 C1_7 1_555 1_555
C2_7 C1_7 1_555 1_555
H2_7 C2_7 1_555 1_555
C3_7 C2_7 1_555 1_555
C4_7 C3_7 1_555 1_555
H4_7 C4_7 1_555 1_555
Zn4_6 Cl1_9 1_555 1_555
N1_9 Zn4_6 1_555 1_555
C1_8 N1_9 1_555 1_555
H1_8 C1_8 1_555 1_555
C2_8 C1_8 1_555 1_555
H2_8 C2_8 1_555 1_555
C3_8 C2_8 1_555 1_555
H3_8 C3_8 1_555 1_555
C4_8 C3_8 1_555 1_555
H4_8 C4_8 1_555 1_555
C5_9 N1_9 1_555 1_555
C4_8 C5_9 1_555 1_555
H1_9 C1_9 1_555 1_555
C2_9 C1_9 1_555 1_555
H2_9 C2_9 1_555 1_555
C3_9 C2_9 1_555 1_555
C4_9 C3_9 1_555 1_555
H4_9 C4_9 1_555 1_555
C8_8 H5_8 1_555 1_555
C9_8 C8_8 1_555 1_555
H6_8 C9_8 1_555 1_555
C10_8 C9_8 1_555 1_555
C11_8 C10_8 1_555 1_555
H8_8 C11_8 1_555 1_555
C8_9 H5_9 1_555 1_555
C9_9 C8_9 1_555 1_555
H6_9 C9_9 1_555 1_555
C10_9 C9_9 1_555 1_555
C11_9 C10_9 1_555 1_555
H8_9 C11_9 1_555 1_555

#END
