
###############################################################################
#
# This file contains modified crystal structure data generated from the
# MOF subset of the Cambridge Structural Database (CSD) v543 
# hosted by the Cambridge Crystallographic Data Centre (CCDC).
#
# This work is licensed under the Creative Commons
# Attribution-NonCommercial-ShareAlike 4.0 International License.
# To view a copy of this license, visit
# http://creativecommons.org/licenses/by-nc-sa/4.0/
# or send a letter to
# Creative Commons, PO Box 1866, Mountain View, CA 94042, USA.
#
# CIF created using the CSD Python API on 29 September 2022
# The structure has been converted into the P1 space group
# The structure has a 3D framework
# The original CSD entry PUTYAE is in the tetragonal crystal system
# The original CSD entry PUTYAE is in a Sohncke space group
# The framework has been calculated to contain at least 10.0% void space
# The void calculation uses a probe of radius 1.32A, grid spacing 0.4
# The framework is charged, counterions have been retained in the structure
#
###############################################################################

data_PUTYAE
_chemical_formula_moiety         '(C48 H24 Ag4 Cl5 N22 O16)n'
_symmetry_cell_setting           triclinic
_symmetry_space_group_name_H-M   'P 1'
_symmetry_Int_Tables_number      1
_space_group_name_Hall           'P 1'
loop_
_symmetry_equiv_pos_site_id
_symmetry_equiv_pos_as_xyz
1 x,y,z
_cell_length_a                   12.652(1)
_cell_length_b                   12.652(1)
_cell_length_c                   12.362(1)
_cell_angle_alpha                90
_cell_angle_beta                 90
_cell_angle_gamma                90
_cell_volume                     1978.82
loop_
_atom_site_label
_atom_site_type_symbol
_atom_site_fract_x
_atom_site_fract_y
_atom_site_fract_z
N4 N 0.0619(6) 0.0383(6) 0.6623(6)
Ag2 Ag 0.12912(5) 0.12912(5) 0.5000
N7 N 0.0295(6) 0.7862(5) 0.0702(5)
C4 C 0.0493(8) 0.9016(7) 0.7941(8)
H2 H 0.0798 0.8410 0.8229
C7 C 0.0984(7) 0.9507(8) 0.7059(8)
H6 H 0.1590 0.9202 0.6771
N1 N 0.7862(5) 0.0295(6) 0.9298(5)
N3 N 0.6984(6) 0.2136(6) 0.8402(5)
C1 C 0.7021(8) 0.0741(8) 0.9697(7)
C2 C 0.8296(6) 0.0766(7) 0.8417(6)
C3 C 0.9234(6) 0.0291(6) 0.7951(7)
C5 C 0.6582(8) 0.1664(8) 0.9285(8)
H3 H 0.5999 0.1961 0.9627
C6 C 0.7862(6) 0.1665(6) 0.7978(6)
C8 C 0.9709(6) 0.0766(6) 0.7049(7)
C9 C 0.9234(7) 0.1704(6) 0.6583(6)
N5 N 0.9705(6) 0.2138(5) 0.5702(5)
C10 C 0.9259(8) 0.2979(8) 0.5303(7)
H4 H 0.9575 0.3304 0.4711
C11 C 0.8336(8) 0.3418(8) 0.5715(8)
N6 N 0.7864(6) 0.3016(6) 0.6598(5)
C12 C 0.8335(6) 0.2138(6) 0.7022(6)
H5 H 0.8039 0.4001 0.5373
Ag3 Ag 0.62912(5) 0.37088(5) 0.7500
Ag1 Ag 0.87088(5) 0.87088(5) 0.0000
N8 N 0.9381(6) 0.9617(6) 0.1623(6)
N9 N 0.7136(6) 0.8016(6) 0.0902(5)
Ag1_2 Ag 0.87088(5) 0.87088(5) 1.0000
N2 N 0.9617(6) 0.9381(6) 0.8377(6)
N10 N 0.8016(6) 0.7136(6) 0.9098(5)
N2_2 N 0.0383(6) 0.0619(6) 0.3377(6)
N9_2 N 0.2864(6) 0.1984(6) 0.5902(5)
N10_2 N 0.1984(6) 0.2864(6) 0.4098(5)
N1_2 N 0.2138(5) 0.9705(6) 0.4298(5)
N3_2 N 0.3016(6) 0.7864(6) 0.3402(5)
C1_2 C 0.2979(8) 0.9259(8) 0.4697(7)
H1 H 0.3304 0.9575 0.5289
C2_2 C 0.1704(6) 0.9234(7) 0.3417(6)
C3_2 C 0.0766(6) 0.9709(6) 0.2951(7)
C5_2 C 0.3418(8) 0.8336(8) 0.4285(8)
H3_2 H 0.4001 0.8039 0.4627
C6_2 C 0.2138(6) 0.8335(6) 0.2978(6)
C8_2 C 0.0291(6) 0.9234(6) 0.2049(7)
C9_2 C 0.0766(7) 0.8296(6) 0.1583(6)
C10_2 C 0.0741(8) 0.7021(8) 0.0303(7)
C11_2 C 0.1664(8) 0.6582(8) 0.0715(8)
N6_2 N 0.2136(6) 0.6984(6) 0.1598(5)
C12_2 C 0.1665(6) 0.7862(6) 0.2022(6)
H5_2 H 0.1961 0.5999 0.0373
Ag3_2 Ag 0.37088(5) 0.62912(5) 0.2500
C4_2 C 0.9507(8) 0.0984(7) 0.2941(8)
H2_2 H 0.9202 0.1590 0.3229
C7_2 C 0.9016(7) 0.0493(8) 0.2059(8)
H6_2 H 0.8410 0.0798 0.1771
N1_3 N 0.4705(6) 0.2862(5) 0.6798(5)
N2_3 N 0.5619(6) 0.4617(6) 0.5877(6)
C1_3 C 0.4259(8) 0.2021(8) 0.7197(7)
H1_2 H 0.4575 0.1696 0.7789
C2_3 C 0.4234(7) 0.3296(6) 0.5917(6)
C3_3 C 0.4709(6) 0.4234(6) 0.5451(7)
C4_3 C 0.5984(7) 0.5493(8) 0.5441(8)
H2_3 H 0.6590 0.5798 0.5729
C5_3 C 0.3336(8) 0.1582(8) 0.6785(8)
H3_3 H 0.3039 0.0999 0.7127
C6_3 C 0.3335(6) 0.2862(6) 0.5478(6)
C7_3 C 0.5493(8) 0.5984(7) 0.4559(8)
N4_2 N 0.4617(6) 0.5619(6) 0.4123(6)
C8_3 C 0.4234(6) 0.4709(6) 0.4549(7)
C9_3 C 0.3296(6) 0.4234(7) 0.4083(6)
N5_2 N 0.2862(5) 0.4705(6) 0.3202(5)
C10_3 C 0.2021(8) 0.4259(8) 0.2803(7)
H4_2 H 0.1696 0.4575 0.2211
C11_3 C 0.1582(8) 0.3336(8) 0.3215(8)
C12_3 C 0.2862(6) 0.3335(6) 0.4522(6)
H5_3 H 0.0999 0.3039 0.2873
H6_3 H 0.5798 0.6590 0.4271
N7_2 N 0.7138(5) 0.5295(6) 0.8202(5)
N8_2 N 0.5383(6) 0.4381(6) 0.9123(6)
N1_4 N 0.5295(6) 0.7138(5) 0.1798(5)
N2_4 N 0.4381(6) 0.5383(6) 0.0877(6)
C1_4 C 0.5741(8) 0.7979(8) 0.2197(7)
H1_3 H 0.5425 0.8304 0.2789
C2_4 C 0.5766(7) 0.6704(6) 0.0917(6)
C3_4 C 0.5291(6) 0.5766(6) 0.0451(7)
C4_4 C 0.4016(7) 0.4507(8) 0.0441(8)
H2_4 H 0.3410 0.4202 0.0729
C5_4 C 0.6664(8) 0.8418(8) 0.1785(8)
H3_4 H 0.6961 0.9001 0.2127
C6_4 C 0.6665(6) 0.7138(6) 0.0478(6)
C7_4 C 0.4507(8) 0.4016(7) 0.9559(8)
C8_4 C 0.5766(6) 0.5291(6) 0.9549(7)
C9_4 C 0.6704(6) 0.5766(7) 0.9083(6)
C10_4 C 0.7979(8) 0.5741(8) 0.7803(7)
H4_3 H 0.8304 0.5425 0.7211
C11_4 C 0.8418(8) 0.6664(8) 0.8215(8)
C12_4 C 0.7138(6) 0.6665(6) 0.9522(6)
H5_4 H 0.9001 0.6961 0.7873
H6_4 H 0.4202 0.3410 0.9271
H1_4 H 0.6696 0.0425 0.0289
H4_4 H 0.0425 0.6696 0.9711
Cl1 Cl 0.1542(4) 0.1542(4) 0.0000
O2 O 0.172(3) 0.042(3) 0.004(3)
O3 O 0.1870(17) 0.2620(17) 0.0373(17)
Cl1_2 Cl 0.1542(4) 0.1542(4) 1.0000
O1 O 0.2620(17) 0.1870(17) 0.9627(17)
O4 O 0.042(3) 0.172(3) 0.996(3)
Cl1_3 Cl 0.8458(4) 0.8458(4) 0.5000
O1_2 O 0.7380(17) 0.8130(17) 0.4627(17)
O2_2 O 0.828(3) 0.958(3) 0.504(3)
O3_2 O 0.8130(17) 0.7380(17) 0.5373(17)
O4_2 O 0.958(3) 0.828(3) 0.496(3)
Cl1_4 Cl 0.3458(4) 0.6542(4) 0.7500
O1_3 O 0.3130(17) 0.7620(17) 0.7127(17)
O2_3 O 0.458(3) 0.672(3) 0.754(3)
O3_3 O 0.2380(17) 0.6870(17) 0.7873(17)
O4_3 O 0.328(3) 0.542(3) 0.746(3)
Cl1_5 Cl 0.6542(4) 0.3458(4) 0.2500
O1_4 O 0.6870(17) 0.2380(17) 0.2127(17)
O2_4 O 0.542(3) 0.328(3) 0.254(3)
O3_4 O 0.7620(17) 0.3130(17) 0.2873(17)
O4_4 O 0.672(3) 0.458(3) 0.246(3)
loop_
_geom_bond_atom_site_label_1
_geom_bond_atom_site_label_2
_geom_bond_site_symmetry_1
_geom_bond_site_symmetry_2
Ag2 N4 1_555 1_555
H2 C4 1_555 1_555
C7 C4 1_555 1_555
H6 C7 1_555 1_555
N1 C1 1_555 1_555
N3 C5 1_555 1_555
C2 N1 1_555 1_555
C5 C1 1_555 1_555
H3 C5 1_555 1_555
C6 N3 1_555 1_555
C8 C3 1_555 1_555
C9 C8 1_555 1_555
N5 C9 1_555 1_555
C10 N5 1_555 1_555
H4 C10 1_555 1_555
C11 C10 1_555 1_555
N6 C11 1_555 1_555
C12 C6 1_555 1_555
H5 C11 1_555 1_555
Ag3 N3 1_555 1_555
C2 C6 1_555 1_555
C2 C3 1_555 1_555
C9 C12 1_555 1_555
N6 C12 1_555 1_555
N6 Ag3 1_555 1_555
N8 Ag1 1_555 1_555
N9 Ag1 1_555 1_555
N2 Ag1_2 1_555 1_555
N10 Ag1_2 1_555 1_555
N2_2 Ag2 1_555 1_555
N9_2 Ag2 1_555 1_555
N10_2 Ag2 1_555 1_555
N1_2 C1_2 1_555 1_555
N3_2 C5_2 1_555 1_555
C1_2 H1 1_555 1_555
C2_2 N1_2 1_555 1_555
C5_2 C1_2 1_555 1_555
H3_2 C5_2 1_555 1_555
C6_2 N3_2 1_555 1_555
C8_2 C3_2 1_555 1_555
C9_2 C8_2 1_555 1_555
N7 C9_2 1_555 1_555
C10_2 N7 1_555 1_555
C11_2 C10_2 1_555 1_555
N6_2 C11_2 1_555 1_555
C12_2 C6_2 1_555 1_555
H5_2 C11_2 1_555 1_555
Ag3_2 N3_2 1_555 1_555
C2_2 C6_2 1_555 1_555
C2_2 C3_2 1_555 1_555
C9_2 C12_2 1_555 1_555
N6_2 C12_2 1_555 1_555
N6_2 Ag3_2 1_555 1_555
H2_2 C4_2 1_555 1_555
C7_2 C4_2 1_555 1_555
H6_2 C7_2 1_555 1_555
Ag3 N1_3 1_555 1_555
N1_3 C1_3 1_555 1_555
N2_3 Ag3 1_555 1_555
N9_2 C5_3 1_555 1_555
C1_3 H1_2 1_555 1_555
C2_3 N1_3 1_555 1_555
C3_3 N2_3 1_555 1_555
C4_3 N2_3 1_555 1_555
H2_3 C4_3 1_555 1_555
C5_3 C1_3 1_555 1_555
H3_3 C5_3 1_555 1_555
C6_3 N9_2 1_555 1_555
C7_3 C4_3 1_555 1_555
N4_2 C7_3 1_555 1_555
C8_3 C3_3 1_555 1_555
C9_3 C8_3 1_555 1_555
N5_2 C9_3 1_555 1_555
C10_3 N5_2 1_555 1_555
H4_2 C10_3 1_555 1_555
C11_3 C10_3 1_555 1_555
N10_2 C11_3 1_555 1_555
C12_3 C6_3 1_555 1_555
H5_3 C11_3 1_555 1_555
H6_3 C7_3 1_555 1_555
N7_2 Ag3 1_555 1_555
N8_2 Ag3 1_555 1_555
Ag3_2 N4_2 1_555 1_555
C2_3 C6_3 1_555 1_555
C2_3 C3_3 1_555 1_555
N4_2 C8_3 1_555 1_555
C9_3 C12_3 1_555 1_555
N5_2 Ag3_2 1_555 1_555
N10_2 C12_3 1_555 1_555
Ag3_2 N1_4 1_555 1_555
N1_4 C1_4 1_555 1_555
N2_4 Ag3_2 1_555 1_555
N9 C5_4 1_555 1_555
C1_4 H1_3 1_555 1_555
C2_4 N1_4 1_555 1_555
C3_4 N2_4 1_555 1_555
C4_4 N2_4 1_555 1_555
H2_4 C4_4 1_555 1_555
C5_4 C1_4 1_555 1_555
H3_4 C5_4 1_555 1_555
C6_4 N9 1_555 1_555
C2_4 C6_4 1_555 1_555
C2_4 C3_4 1_555 1_555
N8_2 C7_4 1_555 1_555
C9_4 C8_4 1_555 1_555
N7_2 C9_4 1_555 1_555
C10_4 N7_2 1_555 1_555
H4_3 C10_4 1_555 1_555
C11_4 C10_4 1_555 1_555
N10 C11_4 1_555 1_555
H5_4 C11_4 1_555 1_555
H6_4 C7_4 1_555 1_555
N8_2 C8_4 1_555 1_555
C9_4 C12_4 1_555 1_555
N10 C12_4 1_555 1_555
O2 Cl1 1_555 1_555
O3 Cl1 1_555 1_555
Cl1_2 O1 1_555 1_555
O4 Cl1_2 1_555 1_555
Cl1_3 O1_2 1_555 1_555
O2_2 Cl1_3 1_555 1_555
O3_2 Cl1_3 1_555 1_555
O4_2 Cl1_3 1_555 1_555
Cl1_4 O1_3 1_555 1_555
O2_3 Cl1_4 1_555 1_555
O3_3 Cl1_4 1_555 1_555
O4_3 Cl1_4 1_555 1_555
Cl1_5 O1_4 1_555 1_555
O2_4 Cl1_5 1_555 1_555
O3_4 Cl1_5 1_555 1_555
O4_4 Cl1_5 1_555 1_555

#END
