
###############################################################################
#
# This file contains modified crystal structure data generated from the
# MOF subset of the Cambridge Structural Database (CSD) v543 
# hosted by the Cambridge Crystallographic Data Centre (CCDC).
#
# This work is licensed under the Creative Commons
# Attribution-NonCommercial-ShareAlike 4.0 International License.
# To view a copy of this license, visit
# http://creativecommons.org/licenses/by-nc-sa/4.0/
# or send a letter to
# Creative Commons, PO Box 1866, Mountain View, CA 94042, USA.
#
# CIF created using the CSD Python API on 29 September 2022
# The structure has been converted into the P1 space group
# The structure has a 3D framework
# The original CSD entry PUVJOG is in the orthorhombic crystal system
# The framework has been calculated to contain at least 10.0% void space
# The void calculation uses a probe of radius 1.32A, grid spacing 0.4
# H atom positions have been added when not included in the experimental data
#
###############################################################################

data_PUVJOG
_chemical_formula_moiety         '(C40 H16 O18 V3)n'
_symmetry_cell_setting           triclinic
_symmetry_space_group_name_H-M   'P 1'
_symmetry_Int_Tables_number      1
_space_group_name_Hall           'P 1'
loop_
_symmetry_equiv_pos_site_id
_symmetry_equiv_pos_as_xyz
1 x,y,z
_cell_length_a                   6.7107(20)
_cell_length_b                   18.7431(30)
_cell_length_c                   10.2809(20)
_cell_angle_alpha                90
_cell_angle_beta                 90
_cell_angle_gamma                90
_cell_volume                     1293.12
loop_
_atom_site_label
_atom_site_type_symbol
_atom_site_fract_x
_atom_site_fract_y
_atom_site_fract_z
_atom_site_U_iso_or_equiv
_atom_site_thermal_displace_type
V3 V 0.2500 0.2500 0.75000 0.0380 Uiso
O5 O 0.1562(8) 0.1675(7) 0.8420(9) 0.0380 Uiso
C5 C 0.196(2) 0.0362(6) 0.9740(12) 0.0380 Uiso
C7 C 0.0000 0.0600(6) 0.9570(18) 0.0380 Uiso
C8 C 0.0000 0.1292(6) 0.8830(10) 0.0380 Uiso
H4 H 0.328942 0.0671887 0.951679 . .
V1 V 0.2500 0.7500 0.25000 0.0380 Uiso
O1 O -0.0000 0.7500 0.30697(8) 0.0380 Uiso
O2 O 0.1562(8) 0.8325(7) 0.1580(9) 0.0380 Uiso
C2 C 0.0000 0.9400(6) 0.0430(18) 0.0380 Uiso
C3 C -0.0000 0.8708(6) 0.1170(10) 0.0380 Uiso
O3 O 0.5000 0.7500 0.19303(8) 0.0380 Uiso
O7 O 0.3438(8) 0.8325(7) 0.3420(9) 0.0380 Uiso
O8 O 0.1562(8) 0.6675(7) 0.1580(9) 0.0380 Uiso
O9 O 0.3438(8) 0.6675(7) 0.3420(9) 0.0380 Uiso
C6 C 0.196(2) 0.9638(6) 0.0260(12) 0.0380 Uiso
H3 H 0.328942 0.932811 0.0483208 . .
V4 V 0.7500 0.2500 0.75000 0.0380 Uiso
O6 O 0.8438(8) 0.1675(7) 0.8420(9) 0.0380 Uiso
C4 C 0.804(2) 0.0362(6) 0.9740(12) 0.0380 Uiso
C7_2 C 1.0000 0.0600(6) 0.9570(18) 0.0380 Uiso
C8_2 C 1.0000 0.1292(6) 0.8830(10) 0.0380 Uiso
H2 H 0.671058 0.0671887 0.951679 . .
O1_2 O 1.0000 0.7500 0.30697(8) 0.0380 Uiso
C1 C 0.804(2) 0.9638(6) 0.0260(12) 0.0380 Uiso
C2_2 C 1.0000 0.9400(6) 0.0430(18) 0.0380 Uiso
C3_2 C 1.0000 0.8708(6) 0.1170(10) 0.0380 Uiso
V2 V 0.7500 0.7500 0.25000 0.0380 Uiso
O4 O 0.8438(8) 0.8325(7) 0.1580(9) 0.0380 Uiso
H1 H 0.671058 0.932811 0.0483208 . .
C1_2 C 0.196(2) 0.5362(6) 0.0260(12) 0.0380 Uiso
C2_3 C 0.0000 0.5600(6) 0.0430(18) 0.0380 Uiso
C3_3 C 0.0000 0.6292(6) 0.1170(10) 0.0380 Uiso
H1_2 H 0.328942 0.567189 0.0483208 . .
O6_2 O 0.1562(8) 0.3325(7) 0.8420(9) 0.0380 Uiso
C4_2 C 0.196(2) 0.4638(6) 0.9740(12) 0.0380 Uiso
C7_3 C -0.0000 0.4400(6) 0.9570(18) 0.0380 Uiso
C8_3 C -0.0000 0.3708(6) 0.8830(10) 0.0380 Uiso
H2_2 H 0.328942 0.432811 0.951679 . .
O2_2 O 0.8438(8) 0.6675(7) 0.1580(9) 0.0380 Uiso
C2_4 C 1.0000 0.5600(6) 0.0430(18) 0.0380 Uiso
C3_4 C 1.0000 0.6292(6) 0.1170(10) 0.0380 Uiso
O7_2 O 0.6562(8) 0.6675(7) 0.3420(9) 0.0380 Uiso
O9_2 O 0.6562(8) 0.8325(7) 0.3420(9) 0.0380 Uiso
C6_2 C 0.804(2) 0.5362(6) 0.0260(12) 0.0380 Uiso
H3_2 H 0.671058 0.567189 0.0483208 . .
O5_2 O 0.8438(8) 0.3325(7) 0.8420(9) 0.0380 Uiso
C5_2 C 0.804(2) 0.4638(6) 0.9740(12) 0.0380 Uiso
C7_4 C 1.0000 0.4400(6) 0.9570(18) 0.0380 Uiso
C8_4 C 1.0000 0.3708(6) 0.8830(10) 0.0380 Uiso
H4_2 H 0.671058 0.432811 0.951679 . .
O1_3 O 0.0000 0.2500 0.69303(8) 0.0380 Uiso
O1_4 O 1.0000 0.2500 0.69303(8) 0.0380 Uiso
O3_2 O 0.5000 0.2500 0.80697(8) 0.0380 Uiso
O7_3 O 0.6562(8) 0.3325(7) 0.6580(9) 0.0380 Uiso
O9_3 O 0.6562(8) 0.1675(7) 0.6580(9) 0.0380 Uiso
O7_4 O 0.3438(8) 0.1675(7) 0.6580(9) 0.0380 Uiso
O9_4 O 0.3438(8) 0.3325(7) 0.6580(9) 0.0380 Uiso
C1_3 C 0.304(2) 0.4638(6) 0.5260(12) 0.0380 Uiso
C2_5 C 0.5000 0.4400(6) 0.5430(18) 0.0380 Uiso
C3_5 C 0.5000 0.3708(6) 0.6170(10) 0.0380 Uiso
C4_3 C 0.304(2) 0.5362(6) 0.4740(12) 0.0380 Uiso
C5_3 C 0.696(2) 0.5362(6) 0.4740(12) 0.0380 Uiso
C6_3 C 0.696(2) 0.4638(6) 0.5260(12) 0.0380 Uiso
C7_5 C 0.5000 0.5600(6) 0.4570(18) 0.0380 Uiso
C8_5 C 0.5000 0.6292(6) 0.3830(10) 0.0380 Uiso
H1_3 H 0.171058 0.432811 0.548321 . .
H2_3 H 0.171058 0.567189 0.451679 . .
H3_3 H 0.828942 0.432811 0.548321 . .
H4_3 H 0.828942 0.567189 0.451679 . .
C1_4 C 0.696(2) 0.0362(6) 0.5260(12) 0.0380 Uiso
C2_6 C 0.5000 0.0600(6) 0.5430(18) 0.0380 Uiso
C3_6 C 0.5000 0.1292(6) 0.6170(10) 0.0380 Uiso
C6_4 C 0.304(2) 0.0362(6) 0.5260(12) 0.0380 Uiso
H1_4 H 0.828942 0.0671887 0.548321 . .
H3_4 H 0.171058 0.0671887 0.548321 . .
C4_4 C 0.696(2) 0.9638(6) 0.4740(12) 0.0380 Uiso
C5_4 C 0.304(2) 0.9638(6) 0.4740(12) 0.0380 Uiso
C7_6 C 0.5000 0.9400(6) 0.4570(18) 0.0380 Uiso
C8_6 C 0.5000 0.8708(6) 0.3830(10) 0.0380 Uiso
H2_4 H 0.828942 0.932811 0.451679 . .
H4_4 H 0.171058 0.932811 0.451679 . .
loop_
_geom_bond_atom_site_label_1
_geom_bond_atom_site_label_2
_geom_bond_site_symmetry_1
_geom_bond_site_symmetry_2
V3 O5 1_555 1_555
O5 C8 1_555 1_555
C8 C7 1_555 1_555
C5 C7 1_555 1_555
C5 H4 1_555 1_555
V1 O1 1_555 1_555
O2 V1 1_555 1_555
C2 C3 1_555 1_555
C3 O2 1_555 1_555
O3 V1 1_555 1_555
O7 V1 1_555 1_555
O8 V1 1_555 1_555
O9 V1 1_555 1_555
C6 C2 1_555 1_555
C6 H3 1_555 1_555
V4 O6 1_555 1_555
O6 C8_2 1_555 1_555
C7_2 C4 1_555 1_555
C8_2 C7_2 1_555 1_555
C4 H2 1_555 1_555
O1_2 V2 1_555 1_555
C1 C2_2 1_555 1_555
C2_2 C3_2 1_555 1_555
V2 O4 1_555 1_555
O4 C3_2 1_555 1_555
C1 H1 1_555 1_555
C1_2 C2_3 1_555 1_555
C2_3 C3_3 1_555 1_555
O8 C3_3 1_555 1_555
C1_2 H1_2 1_555 1_555
V3 O6_2 1_555 1_555
O6_2 C8_3 1_555 1_555
C7_3 C4_2 1_555 1_555
C8_3 C7_3 1_555 1_555
C4_2 H2_2 1_555 1_555
O2_2 V2 1_555 1_555
C2_4 C3_4 1_555 1_555
C3_4 O2_2 1_555 1_555
O3 V2 1_555 1_555
O7_2 V2 1_555 1_555
O9_2 V2 1_555 1_555
C6_2 C2_4 1_555 1_555
C6_2 H3_2 1_555 1_555
V4 O5_2 1_555 1_555
O5_2 C8_4 1_555 1_555
C8_4 C7_4 1_555 1_555
C5_2 C7_4 1_555 1_555
C5_2 H4_2 1_555 1_555
O1_3 V3 1_555 1_555
V4 O1_4 1_555 1_555
O3_2 V4 1_555 1_555
O7_3 V4 1_555 1_555
O9_3 V4 1_555 1_555
O3_2 V3 1_555 1_555
O7_4 V3 1_555 1_555
O9_4 V3 1_555 1_555
C1_3 C2_5 1_555 1_555
C2_5 C3_5 1_555 1_555
C3_5 O7_3 1_555 1_555
O9_4 C3_5 1_555 1_555
O7_2 C8_5 1_555 1_555
O9 C8_5 1_555 1_555
C4_3 C1_3 1_555 1_555
C5_3 C6_3 1_555 1_555
C6_3 C2_5 1_555 1_555
C7_5 C4_3 1_555 1_555
C8_5 C7_5 1_555 1_555
C5_3 C7_5 1_555 1_555
C1_3 H1_3 1_555 1_555
C4_3 H2_3 1_555 1_555
C6_3 H3_3 1_555 1_555
C5_3 H4_3 1_555 1_555
C1_4 C2_6 1_555 1_555
C2_6 C3_6 1_555 1_555
C3_6 O7_4 1_555 1_555
O9_3 C3_6 1_555 1_555
C6_4 C2_6 1_555 1_555
C1_4 H1_4 1_555 1_555
C6_4 H3_4 1_555 1_555
O7 C8_6 1_555 1_555
O9_2 C8_6 1_555 1_555
C7_6 C4_4 1_555 1_555
C8_6 C7_6 1_555 1_555
C5_4 C7_6 1_555 1_555
C4_4 H2_4 1_555 1_555
C5_4 H4_4 1_555 1_555

#END
