
###############################################################################
#
# This file contains modified crystal structure data generated from the
# MOF subset of the Cambridge Structural Database (CSD) v543 
# hosted by the Cambridge Crystallographic Data Centre (CCDC).
#
# This work is licensed under the Creative Commons
# Attribution-NonCommercial-ShareAlike 4.0 International License.
# To view a copy of this license, visit
# http://creativecommons.org/licenses/by-nc-sa/4.0/
# or send a letter to
# Creative Commons, PO Box 1866, Mountain View, CA 94042, USA.
#
# CIF created using the CSD Python API on 29 September 2022
# The structure has been converted into the P1 space group
# The structure has a 3D framework
# The original CSD entry PUWCOZ is in the orthorhombic crystal system
# The original CSD entry PUWCOZ is in a Sohncke space group
# The framework has been calculated to contain at least 10.0% void space
# The void calculation uses a probe of radius 1.32A, grid spacing 0.4
#
###############################################################################

data_PUWCOZ
_chemical_formula_moiety         '(C56 H80 Ni8 O45)n'
_symmetry_cell_setting           triclinic
_symmetry_space_group_name_H-M   'P 1'
_symmetry_Int_Tables_number      1
_space_group_name_Hall           'P 1'
loop_
_symmetry_equiv_pos_site_id
_symmetry_equiv_pos_as_xyz
1 x,y,z
_cell_length_a                   10.0656(3)
_cell_length_b                   11.1625(3)
_cell_length_c                   19.2011(2)
_cell_angle_alpha                90
_cell_angle_beta                 90
_cell_angle_gamma                90
_cell_volume                     2157.38
loop_
_atom_site_label
_atom_site_type_symbol
_atom_site_fract_x
_atom_site_fract_y
_atom_site_fract_z
O2 O 0.2432(4) 0.0961(3) 0.51842(16)
O3 O 0.5695(3) 0.4621(3) 0.36753(17)
O4 O 0.4502(3) 0.5052(3) 0.46209(16)
O7 O 0.3128(4) 0.2876(3) 0.16081(17)
O8 O 0.2331(4) 0.1106(3) 0.19137(16)
C1 C 0.2133(5) 0.0794(4) 0.4561(3)
C2 C 0.2289(5) 0.1870(4) 0.4060(2)
C3 C 0.3463(5) 0.2673(5) 0.4261(3)
C4 C 0.3516(5) 0.3783(5) 0.3781(2)
C5 C 0.2198(4) 0.4468(4) 0.3845(2)
C6 C 0.1020(5) 0.3684(5) 0.3632(2)
C7 C 0.0978(5) 0.2583(4) 0.4120(2)
C8 C 0.2465(5) 0.1463(4) 0.3295(2)
C9 C 0.2547(6) 0.2553(4) 0.2816(2)
C10 C 0.3699(5) 0.3367(5) 0.3021(2)
C11 C 0.1237(5) 0.3264(5) 0.2878(3)
C12 C 0.4676(5) 0.4564(4) 0.4033(2)
C14 C 0.2679(5) 0.2124(4) 0.2057(2)
H1 H 0.3362 0.2927 0.4730
H2 H 0.4266 0.2233 0.4215
H3 H 0.2084 0.4714 0.4314
H4 H 0.2228 0.5152 0.3552
H5 H 0.0254 0.2083 0.3992
H6 H 0.0864 0.2845 0.4587
H7 H 0.3259 0.1009 0.3254
H8 H 0.1728 0.0983 0.3162
H9 H 0.3716 0.4046 0.2723
H10 H 0.4511 0.2941 0.2979
H11 H 0.0517 0.2766 0.2742
H12 H 0.1276 0.3943 0.2580
O14 O 0.0695(3) 0.0379(3) 0.63247(17)
O16 O 0.3653(3) 0.1171(3) 0.65279(16)
Ni3 Ni 0.74838(7) 0.51502(5) 0.39820(3)
Ni4 Ni 0.53679(7) 0.62971(6) 0.52106(3)
Ni6 Ni 0.25162(7) 0.01502(5) 0.10180(3)
Ni1 Ni 0.03679(7) 0.87029(6) 0.47894(3)
Ni2 Ni 0.24838(7) 0.98498(5) 0.60180(3)
O1 O 0.1647(4) 0.9844(3) 0.43033(17)
O9 O 0.1934(3) 0.8312(3) 0.54721(16)
O12 O 0.0964(4) 0.7385(3) 0.4120(2)
H13 H 0.2495 0.7983 0.5160
H14 H 0.1714 0.7850 0.5771
H18 H 0.0564 0.6666 0.4032
H19 H 0.1824 0.7203 0.3990
O15 O 0.4580(3) 0.9758(3) 0.59120(16)
O17 O 0.2669(4) 0.8894(3) 0.69137(16)
O5 O 0.9580(3) 0.5242(3) 0.40880(16)
O6 O 0.8653(3) 0.3829(3) 0.34721(16)
C13 C 0.9687(5) 0.4299(4) 0.3726(3)
H15 H 0.8458 0.0062 0.4169
O10 O 0.8901(4) 0.9234(3) 0.4080(2)
O11 O 0.9143(4) 0.7421(3) 0.52797(17)
H16 H 0.8900 0.7803 0.5809
H17 H 0.9672 0.6542 0.5287
H20 H 0.8248 0.8638 0.3834
O13 O 0.9502(3) 0.9948(3) 0.53791(16)
O9_2 O 0.3066(3) 0.1688(3) 0.04721(16)
O11_2 O 0.5857(4) 0.2579(3) 0.02797(17)
H13_2 H 0.2505 0.2017 0.0160
H14_2 H 0.3286 0.2150 0.0771
H16_2 H 0.6100 0.2197 0.0809
H17_2 H 0.5328 0.3458 0.0287
O13_2 O 0.5498(3) 0.0052(3) 0.03791(16)
O15_2 O 0.0420(3) 0.0242(3) 0.09120(16)
O2_2 O 0.2568(4) 0.9039(3) 0.01842(16)
O14_2 O 0.4305(3) 0.9621(3) 0.13247(17)
O16_2 O 0.1347(3) 0.8829(3) 0.15279(16)
O4_2 O 0.0498(3) 0.4948(3) 0.96209(16)
O5_2 O 0.5420(3) 0.4758(3) 0.90880(16)
O6_2 O 0.6347(3) 0.6171(3) 0.84721(16)
O7_2 O 0.1872(4) 0.7124(3) 0.66081(17)
C1_2 C 0.2867(5) 0.9206(4) 0.9561(3)
C2_2 C 0.2711(5) 0.8130(4) 0.9060(2)
C3_2 C 0.1537(5) 0.7327(5) 0.9261(3)
C4_2 C 0.1484(5) 0.6217(5) 0.8781(2)
C5_2 C 0.2802(4) 0.5532(4) 0.8845(2)
C6_2 C 0.3980(5) 0.6316(5) 0.8632(2)
C7_2 C 0.4022(5) 0.7417(4) 0.9120(2)
C8_2 C 0.2535(5) 0.8537(4) 0.8295(2)
C9_2 C 0.2453(6) 0.7447(4) 0.7816(2)
C10_2 C 0.1301(5) 0.6633(5) 0.8021(2)
C11_2 C 0.3763(5) 0.6736(5) 0.7878(3)
C12_2 C 0.0324(5) 0.5436(4) 0.9033(2)
C13_2 C 0.5313(5) 0.5701(4) 0.8726(3)
C14_2 C 0.2321(5) 0.7876(4) 0.7057(2)
H1_2 H 0.1638 0.7073 0.9730
H2_2 H 0.0734 0.7767 0.9215
H3_2 H 0.2916 0.5286 0.9314
H4_2 H 0.2772 0.4848 0.8552
H5_2 H 0.4746 0.7917 0.8992
H6_2 H 0.4136 0.7155 0.9587
H7_2 H 0.1741 0.8991 0.8254
H8_2 H 0.3272 0.9017 0.8162
H9_2 H 0.1284 0.5954 0.7723
H10_2 H 0.0489 0.7059 0.7979
H11_2 H 0.4483 0.7234 0.7742
H12_2 H 0.3724 0.6057 0.7580
H15_2 H 0.6542 0.9938 0.9169
Ni5 Ni 0.75162(7) 0.48498(5) 0.89820(3)
Ni4_2 Ni 0.96321(7) 0.37029(6) 0.02106(3)
O3_2 O 0.9305(3) 0.5379(3) 0.86753(17)
O1_2 O 0.6647(4) 0.5156(3) 0.56967(17)
O2_3 O 0.7432(4) 0.4039(3) 0.48158(16)
O7_3 O 0.8128(4) 0.2124(3) 0.83919(17)
O8_2 O 0.7331(4) 0.3894(3) 0.80863(16)
O9_3 O 0.6934(3) 0.6688(3) 0.45279(16)
O10_2 O 0.3901(4) 0.5766(3) 0.5920(2)
O11_3 O 0.4143(4) 0.7579(3) 0.47203(17)
O12_2 O 0.5964(4) 0.7615(3) 0.5880(2)
C1_3 C 0.7133(5) 0.4206(4) 0.5439(3)
C2_3 C 0.7289(5) 0.3130(4) 0.5940(2)
C3_3 C 0.8463(5) 0.2327(5) 0.5739(3)
C4_3 C 0.8516(5) 0.1217(5) 0.6219(2)
C5_3 C 0.7198(4) 0.0532(4) 0.6155(2)
C6_3 C 0.6020(5) 0.1316(5) 0.6368(2)
C7_3 C 0.5978(5) 0.2417(4) 0.5880(2)
C8_3 C 0.7465(5) 0.3537(4) 0.6705(2)
C9_3 C 0.7547(6) 0.2447(4) 0.7184(2)
C10_3 C 0.8699(5) 0.1633(5) 0.6979(2)
C11_3 C 0.6237(5) 0.1736(5) 0.7122(3)
C12_3 C 0.9676(5) 0.0436(4) 0.5967(2)
C13_3 C 0.4687(5) 0.0701(4) 0.6274(3)
C14_3 C 0.7679(5) 0.2876(4) 0.7943(2)
H1_3 H 0.8362 0.2073 0.5270
H2_3 H 0.9266 0.2767 0.5785
H3_3 H 0.7084 0.0286 0.5686
H5_3 H 0.5254 0.2917 0.6008
H6_3 H 0.5864 0.2155 0.5413
H7_3 H 0.8259 0.3991 0.6746
H8_3 H 0.6728 0.4017 0.6838
H9_3 H 0.8716 0.0954 0.7277
H10_3 H 0.9511 0.2059 0.7021
H11_3 H 0.5517 0.2234 0.7258
H12_3 H 0.6276 0.1057 0.7420
H13_3 H 0.7495 0.7017 0.4840
H14_3 H 0.6714 0.7150 0.4229
H15_3 H 0.3458 0.4938 0.5831
H16_3 H 0.3900 0.7197 0.4191
H17_3 H 0.4672 0.8458 0.4713
H18_2 H 0.5564 0.8334 0.5968
H19_2 H 0.6824 0.7797 0.6010
H20_2 H 0.3248 0.6362 0.6166
O17_2 O 0.7669(4) 0.6106(3) 0.30863(16)
H4_3 H 0.7228 0.9848 0.6448
O10_3 O 0.1099(4) 0.4234(3) 0.0920(2)
C13_4 C 0.0313(5) 0.9299(4) 0.1274(3)
H15_4 H 0.1542 0.5062 0.0831
H20_3 H 0.1752 0.3638 0.1166
O11_4 O 0.0857(4) 0.2421(3) 0.97203(17)
H16_4 H 0.1100 0.2803 0.9191
H17_4 H 0.0328 0.1542 0.9713
H4_4 H 0.7772 0.0152 0.1448
O1_3 O 0.8353(4) 0.4844(3) 0.06967(17)
O7_4 O 0.6872(4) 0.7876(3) 0.33919(17)
O12_3 O 0.9036(4) 0.2385(3) 0.0880(2)
C1_4 C 0.7867(5) 0.5794(4) 0.0439(3)
C2_4 C 0.7711(5) 0.6870(4) 0.0940(2)
C3_4 C 0.6537(5) 0.7673(5) 0.0739(3)
C4_4 C 0.6484(5) 0.8783(5) 0.1219(2)
C5_4 C 0.7802(4) 0.9468(4) 0.1155(2)
C6_4 C 0.8980(5) 0.8684(5) 0.1368(2)
C7_4 C 0.9022(5) 0.7583(4) 0.0880(2)
C8_4 C 0.7535(5) 0.6463(4) 0.1705(2)
C9_4 C 0.7453(6) 0.7553(4) 0.2184(2)
C10_4 C 0.6301(5) 0.8367(5) 0.1979(2)
C11_4 C 0.8763(5) 0.8264(5) 0.2122(3)
C12_4 C 0.5324(5) 0.9564(4) 0.0967(2)
C14_4 C 0.7321(5) 0.7124(4) 0.2943(2)
H1_4 H 0.6638 0.7927 0.0270
H2_4 H 0.5734 0.7233 0.0785
H3_4 H 0.7916 0.9714 0.0686
H5_4 H 0.9746 0.7083 0.1008
H6_4 H 0.9136 0.7845 0.0413
H7_4 H 0.6741 0.6009 0.1746
H8_4 H 0.8272 0.5983 0.1838
H9_4 H 0.6284 0.9046 0.2277
H10_4 H 0.5489 0.7941 0.2021
H11_4 H 0.9483 0.7766 0.2258
H12_4 H 0.8724 0.8943 0.2420
H18_3 H 0.9436 0.1666 0.0968
H19_3 H 0.8176 0.2203 0.1010
O2_4 O 0.7568(4) 0.5961(3) 0.98158(16)
O9_4 O 0.8066(3) 0.3312(3) 0.95279(16)
H13_4 H 0.7505 0.2983 0.9840
H14_4 H 0.8286 0.2850 0.9229
Ni1_2 Ni 0.46321(7) 0.12971(6) 0.97894(3)
O1_4 O 0.3353(4) 0.0156(3) 0.93033(17)
O10_4 O 0.6099(4) 0.0766(3) 0.9080(2)
O12_4 O 0.4036(4) 0.2615(3) 0.9120(2)
H18_4 H 0.4436 0.3334 0.9032
H19_4 H 0.3176 0.2797 0.8990
H20_4 H 0.6752 0.1362 0.8834
loop_
_geom_bond_atom_site_label_1
_geom_bond_atom_site_label_2
_geom_bond_site_symmetry_1
_geom_bond_site_symmetry_2
O2 C1 1_555 1_555
O3 C12 1_555 1_555
O4 C12 1_555 1_555
O7 C14 1_555 1_555
O8 C14 1_555 1_555
C1 C2 1_555 1_555
C2 C3 1_555 1_555
C3 C4 1_555 1_555
C4 C5 1_555 1_555
C5 C6 1_555 1_555
C6 C7 1_555 1_555
C7 C2 1_555 1_555
C8 C2 1_555 1_555
C9 C8 1_555 1_555
C10 C4 1_555 1_555
C11 C6 1_555 1_555
C12 C4 1_555 1_555
C14 C9 1_555 1_555
H1 C3 1_555 1_555
H2 C3 1_555 1_555
H3 C5 1_555 1_555
H4 C5 1_555 1_555
H5 C7 1_555 1_555
H6 C7 1_555 1_555
H7 C8 1_555 1_555
H8 C8 1_555 1_555
H9 C10 1_555 1_555
H10 C10 1_555 1_555
H11 C11 1_555 1_555
H12 C11 1_555 1_555
Ni3 O3 1_555 1_555
Ni4 O4 1_555 1_555
Ni6 O8 1_555 1_555
C9 C10 1_555 1_555
C9 C11 1_555 1_555
Ni1 O1 1_555 1_555
O9 Ni1 1_555 1_555
O12 Ni1 1_555 1_555
H13 O9 1_555 1_555
H14 O9 1_555 1_555
H18 O12 1_555 1_555
H19 O12 1_555 1_555
O15 Ni2 1_555 1_555
O17 Ni2 1_555 1_555
Ni2 O9 1_555 1_555
O5 C13 1_555 1_555
O6 C13 1_555 1_555
Ni3 O5 1_555 1_555
O6 Ni3 1_555 1_555
H16 O11 1_555 1_555
H17 O11 1_555 1_555
H20 O10 1_555 1_555
H13_2 O9_2 1_555 1_555
H14_2 O9_2 1_555 1_555
H16_2 O11_2 1_555 1_555
H17_2 O11_2 1_555 1_555
O15_2 Ni6 1_555 1_555
Ni6 O9_2 1_555 1_555
O4_2 C12_2 1_555 1_555
O5_2 C13_2 1_555 1_555
O6_2 C13_2 1_555 1_555
O7_2 C14_2 1_555 1_555
O17 C14_2 1_555 1_555
C1_2 C2_2 1_555 1_555
C2_2 C3_2 1_555 1_555
C3_2 C4_2 1_555 1_555
C4_2 C5_2 1_555 1_555
C5_2 C6_2 1_555 1_555
C6_2 C7_2 1_555 1_555
C7_2 C2_2 1_555 1_555
C8_2 C2_2 1_555 1_555
C9_2 C8_2 1_555 1_555
C10_2 C4_2 1_555 1_555
C11_2 C6_2 1_555 1_555
C12_2 C4_2 1_555 1_555
C13_2 C6_2 1_555 1_555
C14_2 C9_2 1_555 1_555
H1_2 C3_2 1_555 1_555
H2_2 C3_2 1_555 1_555
H3_2 C5_2 1_555 1_555
H4_2 C5_2 1_555 1_555
H5_2 C7_2 1_555 1_555
H6_2 C7_2 1_555 1_555
H7_2 C8_2 1_555 1_555
H8_2 C8_2 1_555 1_555
H9_2 C10_2 1_555 1_555
H10_2 C10_2 1_555 1_555
H11_2 C11_2 1_555 1_555
H12_2 C11_2 1_555 1_555
Ni5 O5_2 1_555 1_555
O6_2 Ni5 1_555 1_555
C9_2 C10_2 1_555 1_555
C9_2 C11_2 1_555 1_555
Ni5 O3_2 1_555 1_555
Ni4 O1_2 1_555 1_555
Ni3 O2_3 1_555 1_555
O1_2 C1_3 1_555 1_555
O2_3 C1_3 1_555 1_555
O16 C13_3 1_555 1_555
O7_3 C14_3 1_555 1_555
O8_2 C14_3 1_555 1_555
O9_3 Ni4 1_555 1_555
O10_2 Ni4 1_555 1_555
O11_3 Ni4 1_555 1_555
O12_2 Ni4 1_555 1_555
C1_3 C2_3 1_555 1_555
C2_3 C3_3 1_555 1_555
C3_3 C4_3 1_555 1_555
C4_3 C5_3 1_555 1_555
C5_3 C6_3 1_555 1_555
C6_3 C7_3 1_555 1_555
C7_3 C2_3 1_555 1_555
C8_3 C2_3 1_555 1_555
C9_3 C8_3 1_555 1_555
C10_3 C4_3 1_555 1_555
C11_3 C6_3 1_555 1_555
C12_3 C4_3 1_555 1_555
C13_3 C6_3 1_555 1_555
C14_3 C9_3 1_555 1_555
H1_3 C3_3 1_555 1_555
H2_3 C3_3 1_555 1_555
H3_3 C5_3 1_555 1_555
H5_3 C7_3 1_555 1_555
H6_3 C7_3 1_555 1_555
H7_3 C8_3 1_555 1_555
H8_3 C8_3 1_555 1_555
H9_3 C10_3 1_555 1_555
H10_3 C10_3 1_555 1_555
H11_3 C11_3 1_555 1_555
H12_3 C11_3 1_555 1_555
H13_3 O9_3 1_555 1_555
H14_3 O9_3 1_555 1_555
H15_3 O10_2 1_555 1_555
H16_3 O11_3 1_555 1_555
H17_3 O11_3 1_555 1_555
H18_2 O12_2 1_555 1_555
H19_2 O12_2 1_555 1_555
H20_2 O10_2 1_555 1_555
O17_2 Ni3 1_555 1_555
Ni5 O8_2 1_555 1_555
Ni3 O9_3 1_555 1_555
C9_3 C10_3 1_555 1_555
C9_3 C11_3 1_555 1_555
O16_2 C13_4 1_555 1_555
H15_4 O10_3 1_555 1_555
H20_3 O10_3 1_555 1_555
H16_4 O11_4 1_555 1_555
H17_4 O11_4 1_555 1_555
Ni4_2 O1_3 1_555 1_555
O1_3 C1_4 1_555 1_555
O14_2 C12_4 1_555 1_555
O7_4 C14_4 1_555 1_555
O17_2 C14_4 1_555 1_555
O12_3 Ni4_2 1_555 1_555
C1_4 C2_4 1_555 1_555
C2_4 C3_4 1_555 1_555
C3_4 C4_4 1_555 1_555
C4_4 C5_4 1_555 1_555
C5_4 C6_4 1_555 1_555
C6_4 C7_4 1_555 1_555
C7_4 C2_4 1_555 1_555
C8_4 C2_4 1_555 1_555
C9_4 C8_4 1_555 1_555
C10_4 C4_4 1_555 1_555
C11_4 C6_4 1_555 1_555
C12_4 C4_4 1_555 1_555
C14_4 C9_4 1_555 1_555
H1_4 C3_4 1_555 1_555
H2_4 C3_4 1_555 1_555
H3_4 C5_4 1_555 1_555
H5_4 C7_4 1_555 1_555
H6_4 C7_4 1_555 1_555
H7_4 C8_4 1_555 1_555
H8_4 C8_4 1_555 1_555
H9_4 C10_4 1_555 1_555
H10_4 C10_4 1_555 1_555
H11_4 C11_4 1_555 1_555
H12_4 C11_4 1_555 1_555
H18_3 O12_3 1_555 1_555
H19_3 O12_3 1_555 1_555
C9_4 C10_4 1_555 1_555
C9_4 C11_4 1_555 1_555
Ni5 O2_4 1_555 1_555
H13_4 O9_4 1_555 1_555
H14_4 O9_4 1_555 1_555
Ni5 O9_4 1_555 1_555
Ni1_2 O1_4 1_555 1_555
O10_4 Ni1_2 1_555 1_555
O12_4 Ni1_2 1_555 1_555
H18_4 O12_4 1_555 1_555
H19_4 O12_4 1_555 1_555
H20_4 O10_4 1_555 1_555

#END
