
###############################################################################
#
# This file contains modified crystal structure data generated from the
# MOF subset of the Cambridge Structural Database (CSD) v543 
# hosted by the Cambridge Crystallographic Data Centre (CCDC).
#
# This work is licensed under the Creative Commons
# Attribution-NonCommercial-ShareAlike 4.0 International License.
# To view a copy of this license, visit
# http://creativecommons.org/licenses/by-nc-sa/4.0/
# or send a letter to
# Creative Commons, PO Box 1866, Mountain View, CA 94042, USA.
#
# CIF created using the CSD Python API on 29 September 2022
# The structure has been converted into the P1 space group
# The structure has a 3D framework
# The original CSD entry PUWCUF is in the orthorhombic crystal system
# The framework has been calculated to contain at least 10.0% void space
# The void calculation uses a probe of radius 1.32A, grid spacing 0.4
#
###############################################################################

data_PUWCUF
_chemical_formula_moiety         '(C128 H136 O68 Zn12)n'
_symmetry_cell_setting           triclinic
_symmetry_space_group_name_H-M   'P 1'
_symmetry_Int_Tables_number      1
_space_group_name_Hall           'P 1'
loop_
_symmetry_equiv_pos_site_id
_symmetry_equiv_pos_as_xyz
1 x,y,z
_cell_length_a                   15.745(7)
_cell_length_b                   16.907(7)
_cell_length_c                   18.167(8)
_cell_angle_alpha                90
_cell_angle_beta                 90
_cell_angle_gamma                90
_cell_volume                     4836.07
loop_
_atom_site_label
_atom_site_type_symbol
_atom_site_fract_x
_atom_site_fract_y
_atom_site_fract_z
Zn1 Zn 0.5659(1) 0.1769(1) 0.3556(1)
Zn2 Zn 0.5207(1) 0.3579(1) 0.4108(1)
O1 O 0.4919(6) 0.1862(5) 0.4421(4)
O2 O 0.4792(6) 0.3024(5) 0.4960(4)
O3 O 0.5102(5) 0.2717(5) 0.7695(4)
O4 O 0.4503(6) 0.1696(5) 0.8261(4)
O7 O 0.1407(5) 0.1498(6) 0.6080(5)
O8 O 0.1773(5) 0.2705(5) 0.6418(5)
O9 O 0.5086(5) 0.4731(5) 0.4159(5)
C1 C 0.4697(8) 0.2299(8) 0.4941(6)
C2 C 0.4264(7) 0.1908(7) 0.5597(6)
C3 C 0.4700(8) 0.2202(7) 0.6316(6)
C4 C 0.4249(7) 0.1831(7) 0.6985(6)
C5 C 0.4324(7) 0.0921(7) 0.6946(6)
C6 C 0.3886(8) 0.0610(7) 0.6232(6)
C7 C 0.2963(7) 0.0871(7) 0.6240(6)
C8 C 0.2872(7) 0.1764(7) 0.6282(6)
C9 C 0.3321(7) 0.2140(7) 0.5621(6)
C10 C 0.4343(8) 0.0986(7) 0.5556(6)
C11 C 0.3312(7) 0.2059(7) 0.6974(6)
C12 C 0.4672(8) 0.2101(8) 0.7694(6)
C14 C 0.1939(8) 0.2007(8) 0.6259(6)
C15 C 0.5765(9) 0.5268(8) 0.4042(8)
C16 C 0.5937(10) 0.5385(9) 0.3216(8)
H1 H 0.5306 0.2048 0.6315
H2 H 0.4666 0.2786 0.6346
H3 H 0.4050 0.0682 0.7383
H4 H 0.4930 0.0766 0.6946
H5 H 0.2673 0.0629 0.6667
H6 H 0.2679 0.0678 0.5788
H7 H 0.3271 0.2723 0.5652
H8 H 0.3040 0.1966 0.5161
H9 H 0.4081 0.0791 0.5095
H10 H 0.4950 0.0832 0.5555
H11 H 0.3027 0.1833 0.7412
H12 H 0.3261 0.2642 0.7000
H13 H 0.6284 0.5063 0.4284
H14 H 0.5623 0.5784 0.4268
H15 H 0.6012 0.4868 0.2980
H16 H 0.6453 0.5701 0.3151
H17 H 0.5455 0.5659 0.2990
O10 O 0.5102(5) 0.2283(5) 0.2695(4)
O11 O 0.5666(5) 0.0660(5) 0.3301(4)
O12 O 0.6773(5) 0.2295(5) 0.3582(5)
O13 O 0.4503(6) 0.3304(5) 0.3261(4)
O14 O 0.6407(5) 0.3502(6) 0.3920(5)
Zn3 Zn 0.5659(1) 0.3231(1) 0.8556(1)
Zn4 Zn 0.5207(1) 0.1421(1) 0.9108(1)
Zn6 Zn 0.0207(1) 0.1421(1) 0.5892(1)
Zn7 Zn 0.0659(1) 0.3231(1) 0.6444(1)
O5 O 0.4334(5) 0.9340(5) 0.6699(4)
O6 O 0.3632(6) 0.9357(5) 0.5662(5)
C13 C 0.3936(8) 0.9711(8) 0.6182(7)
Zn5 Zn 0.4341(1) 0.8231(1) 0.6444(1)
O5_2 O 0.0666(5) 0.0660(5) 0.1699(4)
O6_2 O 0.1368(6) 0.0643(5) 0.0662(5)
C13_2 C 0.1064(8) 0.0289(8) 0.1182(7)
Zn5_2 Zn 0.0659(1) 0.1769(1) 0.1444(1)
O4_2 O 0.0497(6) 0.8304(5) 0.3261(4)
O7_2 O 0.3593(5) 0.8502(6) 0.1080(5)
O8_2 O 0.3227(5) 0.7295(5) 0.1418(5)
C2_2 C 0.0736(7) 0.8092(7) 0.0597(6)
C3_2 C 0.0300(8) 0.7798(7) 0.1316(6)
C4_2 C 0.0751(7) 0.8169(7) 0.1985(6)
C5_2 C 0.0676(7) 0.9079(7) 0.1946(6)
C6_2 C 0.1114(8) 0.9390(7) 0.1232(6)
C7_2 C 0.2037(7) 0.9129(7) 0.1240(6)
C8_2 C 0.2128(7) 0.8236(7) 0.1282(6)
C9_2 C 0.1679(7) 0.7860(7) 0.0621(6)
C10_2 C 0.0657(8) 0.9014(7) 0.0556(6)
C11_2 C 0.1688(7) 0.7941(7) 0.1974(6)
C12_2 C 0.0328(8) 0.7899(8) 0.2694(6)
C14_2 C 0.3061(8) 0.7993(8) 0.1259(6)
H2_2 H 0.0334 0.7214 0.1346
H3_2 H 0.0950 0.9318 0.2383
H4_2 H 0.0070 0.9234 0.1946
H5_2 H 0.2327 0.9371 0.1667
H6_2 H 0.2321 0.9322 0.0788
H7_2 H 0.1729 0.7277 0.0652
H8_2 H 0.1960 0.8034 0.0161
H9_2 H 0.0919 0.9209 0.0095
H10_2 H 0.0050 0.9168 0.0555
H11_2 H 0.1973 0.8167 0.2412
H12_2 H 0.1739 0.7358 0.2000
Zn6_2 Zn 0.4793(1) 0.8579(1) 0.0892(1)
Zn7_2 Zn 0.4341(1) 0.6769(1) 0.1444(1)
O1_2 O 0.0081(6) 0.8138(5) 0.9421(4)
O2_2 O 0.0208(6) 0.6976(5) 0.9960(4)
C1_2 C 0.0303(8) 0.7701(8) 0.9941(6)
O13_2 O 0.0497(6) 0.6696(5) 0.8261(4)
O3_2 O 0.9898(5) 0.7283(5) 0.2695(4)
H1_2 H 0.9694 0.7952 0.1315
Zn3_2 Zn 0.9341(1) 0.6769(1) 0.3556(1)
Zn4_2 Zn 0.9793(1) 0.8579(1) 0.4108(1)
Zn1_2 Zn 0.9341(1) 0.8231(1) 0.8556(1)
Zn2_2 Zn 0.9793(1) 0.6421(1) 0.9108(1)
O9_2 O 0.9914(5) 0.5269(5) 0.9159(5)
C15_2 C 0.9235(9) 0.4732(8) 0.9042(8)
C16_2 C 0.9063(10) 0.4615(9) 0.8216(8)
H13_2 H 0.8716 0.4937 0.9284
H14_2 H 0.9377 0.4216 0.9268
H15_2 H 0.8988 0.5132 0.7980
H16_2 H 0.8547 0.4299 0.8151
H17_2 H 0.9545 0.4341 0.7990
O10_2 O 0.9898(5) 0.7717(5) 0.7695(4)
O11_2 O 0.9334(5) 0.9340(5) 0.8301(4)
O12_2 O 0.8227(5) 0.7705(5) 0.8582(5)
O14_2 O 0.8593(5) 0.6498(6) 0.8920(5)
O3_3 O 0.0102(5) 0.2283(5) 0.2305(4)
O9_3 O 0.0086(5) 0.0269(5) 0.5841(5)
H1_3 H 0.0306 0.2952 0.3685
H15_3 H 0.1012 0.0132 0.7020
O10_3 O 0.0102(5) 0.2717(5) 0.7305(4)
O11_3 O 0.0666(5) 0.4340(5) 0.6699(4)
Zn4_3 Zn 0.0207(1) 0.3579(1) 0.0892(1)
O1_3 O 0.9919(6) 0.3138(5) 0.5579(4)
O2_3 O 0.9792(6) 0.1976(5) 0.5040(4)
O4_3 O 0.9503(6) 0.3304(5) 0.1739(4)
O5_3 O 0.9334(5) 0.5660(5) 0.3301(4)
O6_3 O 0.8632(6) 0.5643(5) 0.4338(5)
C1_3 C 0.9697(8) 0.2701(8) 0.5059(6)
C2_3 C 0.9264(7) 0.3092(7) 0.4403(6)
C3_3 C 0.9700(8) 0.2798(7) 0.3684(6)
C4_3 C 0.9249(7) 0.3169(7) 0.3015(6)
C5_3 C 0.9324(7) 0.4079(7) 0.3054(6)
C6_3 C 0.8886(8) 0.4390(7) 0.3768(6)
C7_3 C 0.7963(7) 0.4129(7) 0.3760(6)
C8_3 C 0.7872(7) 0.3236(7) 0.3718(6)
C9_3 C 0.8321(7) 0.2860(7) 0.4379(6)
C10_3 C 0.9343(8) 0.4014(7) 0.4444(6)
C11_3 C 0.8312(7) 0.2941(7) 0.3026(6)
C12_3 C 0.9672(8) 0.2899(8) 0.2306(6)
C13_3 C 0.8936(8) 0.5289(8) 0.3818(7)
C14_3 C 0.6939(8) 0.2993(8) 0.3741(6)
H2_3 H 0.9666 0.2214 0.3654
H3_3 H 0.9050 0.4318 0.2617
H4_3 H 0.9930 0.4234 0.3054
H5_3 H 0.7673 0.4371 0.3333
H6_3 H 0.7679 0.4322 0.4212
H7_3 H 0.8271 0.2277 0.4348
H8_3 H 0.8040 0.3034 0.4839
H9_3 H 0.9081 0.4209 0.4905
H10_3 H 0.9950 0.4168 0.4445
H11_3 H 0.8027 0.3167 0.2588
H12_3 H 0.8261 0.2358 0.3000
O13_3 O 0.9503(6) 0.1696(5) 0.6739(4)
O1_4 O 0.5081(6) 0.6862(5) 0.0579(4)
O2_4 O 0.5208(6) 0.8024(5) 0.0040(4)
O9_4 O 0.4914(5) 0.9731(5) 0.0841(5)
C1_4 C 0.5303(8) 0.7299(8) 0.0059(6)
H15_4 H 0.3988 0.9868 0.2020
O10_4 O 0.4898(5) 0.7283(5) 0.2305(4)
O11_4 O 0.4334(5) 0.5660(5) 0.1699(4)
O13_4 O 0.5497(6) 0.8304(5) 0.1739(4)
O3_4 O 0.4898(5) 0.7717(5) 0.7305(4)
O4_4 O 0.5497(6) 0.6696(5) 0.6739(4)
O5_4 O 0.5666(5) 0.4340(5) 0.8301(4)
O6_4 O 0.6368(6) 0.4357(5) 0.9338(5)
C2_4 C 0.5736(7) 0.6908(7) 0.9403(6)
C3_4 C 0.5300(8) 0.7202(7) 0.8684(6)
C4_4 C 0.5751(7) 0.6831(7) 0.8015(6)
C5_4 C 0.5676(7) 0.5921(7) 0.8054(6)
C6_4 C 0.6114(8) 0.5610(7) 0.8768(6)
C7_4 C 0.7037(7) 0.5871(7) 0.8760(6)
C8_4 C 0.7128(7) 0.6764(7) 0.8718(6)
C9_4 C 0.6679(7) 0.7140(7) 0.9379(6)
C10_4 C 0.5657(8) 0.5986(7) 0.9444(6)
C11_4 C 0.6688(7) 0.7059(7) 0.8026(6)
C12_4 C 0.5328(8) 0.7101(8) 0.7306(6)
C13_4 C 0.6064(8) 0.4711(8) 0.8818(7)
C14_4 C 0.8061(8) 0.7007(8) 0.8741(6)
H1_4 H 0.4694 0.7048 0.8685
H2_4 H 0.5334 0.7786 0.8654
H3_4 H 0.5950 0.5682 0.7617
H4_4 H 0.5070 0.5766 0.8054
H5_4 H 0.7327 0.5629 0.8333
H6_4 H 0.7321 0.5678 0.9212
H7_4 H 0.6729 0.7723 0.9348
H8_4 H 0.6960 0.6966 0.9839
H9_4 H 0.5919 0.5791 0.9905
H10_4 H 0.5050 0.5832 0.9445
H11_4 H 0.6973 0.6833 0.7588
H12_4 H 0.6739 0.7642 0.8000
Zn4_4 Zn 0.4793(1) 0.6421(1) 0.5892(1)
O6_5 O 0.6368(6) 0.0643(5) 0.4338(5)
C13_5 C 0.6064(8) 0.0289(8) 0.3818(7)
O1_5 O 0.5081(6) 0.8138(5) 0.5579(4)
O2_5 O 0.5208(6) 0.6976(5) 0.5040(4)
O7_3 O 0.8593(5) 0.8502(6) 0.3920(5)
O8_3 O 0.8227(5) 0.7295(5) 0.3582(5)
O9_5 O 0.4914(5) 0.5269(5) 0.5841(5)
C1_5 C 0.5303(8) 0.7701(8) 0.5059(6)
C2_5 C 0.5736(7) 0.8092(7) 0.4403(6)
C3_5 C 0.5300(8) 0.7798(7) 0.3684(6)
C4_5 C 0.5751(7) 0.8169(7) 0.3015(6)
C5_5 C 0.5676(7) 0.9079(7) 0.3054(6)
C6_5 C 0.6114(8) 0.9390(7) 0.3768(6)
C7_5 C 0.7037(7) 0.9129(7) 0.3760(6)
C8_5 C 0.7128(7) 0.8236(7) 0.3718(6)
C9_5 C 0.6679(7) 0.7860(7) 0.4379(6)
C10_5 C 0.5657(8) 0.9014(7) 0.4444(6)
C11_5 C 0.6688(7) 0.7941(7) 0.3026(6)
C12_5 C 0.5328(8) 0.7899(8) 0.2306(6)
C14_5 C 0.8061(8) 0.7993(8) 0.3741(6)
C15_3 C 0.4235(9) 0.4732(8) 0.5958(8)
C16_3 C 0.4063(10) 0.4615(9) 0.6784(8)
H1_5 H 0.4694 0.7952 0.3685
H2_5 H 0.5334 0.7214 0.3654
H3_5 H 0.5950 0.9318 0.2617
H4_5 H 0.5070 0.9234 0.3054
H5_5 H 0.7327 0.9371 0.3333
H6_5 H 0.7321 0.9322 0.4212
H7_5 H 0.6729 0.7277 0.4348
H8_5 H 0.6960 0.8034 0.4839
H9_5 H 0.5919 0.9209 0.4905
H10_5 H 0.5050 0.9168 0.4445
H11_5 H 0.6973 0.8167 0.2588
H12_5 H 0.6739 0.7358 0.3000
H13_3 H 0.3716 0.4937 0.5716
H14_3 H 0.4377 0.4216 0.5732
H15_5 H 0.3988 0.5132 0.7020
H16_3 H 0.3547 0.4299 0.6849
H17_3 H 0.4545 0.4341 0.7010
O12_3 O 0.3227(5) 0.7705(5) 0.6418(5)
O14_3 O 0.3593(5) 0.6498(6) 0.6080(5)
O9_6 O 0.0086(5) 0.4731(5) 0.0841(5)
C15_4 C 0.0765(9) 0.5268(8) 0.0958(8)
C16_4 C 0.0937(10) 0.5385(9) 0.1784(8)
H13_4 H 0.1284 0.5063 0.0716
H14_4 H 0.0623 0.5784 0.0732
H15_6 H 0.1012 0.4868 0.2020
H16_4 H 0.1453 0.5701 0.1849
H17_4 H 0.0455 0.5659 0.2010
O12_4 O 0.1773(5) 0.2295(5) 0.1418(5)
O14_4 O 0.1407(5) 0.3502(6) 0.1080(5)
H1_6 H 0.0306 0.2048 0.8685
O1_6 O 0.9919(6) 0.1862(5) 0.0579(4)
O2_6 O 0.9792(6) 0.3024(5) 0.0040(4)
C1_6 C 0.9697(8) 0.2299(8) 0.0059(6)
O7_4 O 0.6407(5) 0.1498(6) 0.8920(5)
O8_4 O 0.6773(5) 0.2705(5) 0.8582(5)
C2_6 C 0.9264(7) 0.1908(7) 0.9403(6)
C3_6 C 0.9700(8) 0.2202(7) 0.8684(6)
C4_6 C 0.9249(7) 0.1831(7) 0.8015(6)
C5_6 C 0.9324(7) 0.0921(7) 0.8054(6)
C6_6 C 0.8886(8) 0.0610(7) 0.8768(6)
C7_6 C 0.7963(7) 0.0871(7) 0.8760(6)
C8_6 C 0.7872(7) 0.1764(7) 0.8718(6)
C9_6 C 0.8321(7) 0.2140(7) 0.9379(6)
C10_6 C 0.9343(8) 0.0986(7) 0.9444(6)
C11_6 C 0.8312(7) 0.2059(7) 0.8026(6)
C12_6 C 0.9672(8) 0.2101(8) 0.7306(6)
C14_6 C 0.6939(8) 0.2007(8) 0.8741(6)
H2_6 H 0.9666 0.2786 0.8654
H3_6 H 0.9050 0.0682 0.7617
H4_6 H 0.9930 0.0766 0.8054
H5_6 H 0.7673 0.0629 0.8333
H6_6 H 0.7679 0.0678 0.9212
H7_6 H 0.8271 0.2723 0.9348
H8_6 H 0.8040 0.1966 0.9839
H9_6 H 0.9081 0.0791 0.9905
H10_6 H 0.9950 0.0832 0.9445
H11_6 H 0.8027 0.1833 0.7588
H12_6 H 0.8261 0.2642 0.8000
O6_6 O 0.8632(6) 0.9357(5) 0.9338(5)
C13_6 C 0.8936(8) 0.9711(8) 0.8818(7)
O1_7 O 0.0081(6) 0.6862(5) 0.4421(4)
O2_7 O 0.0208(6) 0.8024(5) 0.4960(4)
O6_7 O 0.1368(6) 0.4357(5) 0.5662(5)
C1_7 C 0.0303(8) 0.7299(8) 0.4941(6)
C2_7 C 0.0736(7) 0.6908(7) 0.5597(6)
C3_7 C 0.0300(8) 0.7202(7) 0.6316(6)
C4_7 C 0.0751(7) 0.6831(7) 0.6985(6)
C5_7 C 0.0676(7) 0.5921(7) 0.6946(6)
C6_7 C 0.1114(8) 0.5610(7) 0.6232(6)
C7_7 C 0.2037(7) 0.5871(7) 0.6240(6)
C8_7 C 0.2128(7) 0.6764(7) 0.6282(6)
C9_7 C 0.1679(7) 0.7140(7) 0.5621(6)
C10_7 C 0.0657(8) 0.5986(7) 0.5556(6)
C11_7 C 0.1688(7) 0.7059(7) 0.6974(6)
C12_7 C 0.0328(8) 0.7101(8) 0.7694(6)
C13_7 C 0.1064(8) 0.4711(8) 0.6182(7)
C14_7 C 0.3061(8) 0.7007(8) 0.6259(6)
H2_7 H 0.0334 0.7786 0.6346
H3_7 H 0.0950 0.5682 0.7383
H4_7 H 0.0070 0.5766 0.6946
H5_7 H 0.2327 0.5629 0.6667
H6_7 H 0.2321 0.5678 0.5788
H7_7 H 0.1729 0.7723 0.5652
H8_7 H 0.1960 0.6966 0.5161
H9_7 H 0.0919 0.5791 0.5095
H10_7 H 0.0050 0.5832 0.5555
H11_7 H 0.1973 0.6833 0.7412
H12_7 H 0.1739 0.7642 0.7000
O9_7 O 0.9914(5) 0.9731(5) 0.4159(5)
H1_7 H 0.9694 0.7048 0.6315
H15_7 H 0.8988 0.9868 0.2980
O6_8 O 0.3632(6) 0.5643(5) 0.0662(5)
C2_8 C 0.4264(7) 0.3092(7) 0.0597(6)
C3_8 C 0.4700(8) 0.2798(7) 0.1316(6)
C4_8 C 0.4249(7) 0.3169(7) 0.1985(6)
C5_8 C 0.4324(7) 0.4079(7) 0.1946(6)
C6_8 C 0.3886(8) 0.4390(7) 0.1232(6)
C7_8 C 0.2963(7) 0.4129(7) 0.1240(6)
C8_8 C 0.2872(7) 0.3236(7) 0.1282(6)
C9_8 C 0.3321(7) 0.2860(7) 0.0621(6)
C10_8 C 0.4343(8) 0.4014(7) 0.0556(6)
C11_8 C 0.3312(7) 0.2941(7) 0.1974(6)
C12_8 C 0.4672(8) 0.2899(8) 0.2694(6)
C13_8 C 0.3936(8) 0.5289(8) 0.1182(7)
C14_8 C 0.1939(8) 0.2993(8) 0.1259(6)
H1_8 H 0.5306 0.2952 0.1315
H2_8 H 0.4666 0.2214 0.1346
H3_8 H 0.4050 0.4318 0.2383
H4_8 H 0.4930 0.4234 0.1946
H5_8 H 0.2673 0.4371 0.1667
H6_8 H 0.2679 0.4322 0.0788
H7_8 H 0.3271 0.2277 0.0652
H8_8 H 0.3040 0.3034 0.0161
H9_8 H 0.4081 0.4209 0.0095
H10_8 H 0.4950 0.4168 0.0555
H11_8 H 0.3027 0.3167 0.2412
H12_8 H 0.3261 0.2358 0.2000
O1_8 O 0.4919(6) 0.3138(5) 0.9421(4)
O2_8 O 0.4792(6) 0.1976(5) 0.9960(4)
O9_8 O 0.5086(5) 0.0269(5) 0.9159(5)
C1_8 C 0.4697(8) 0.2701(8) 0.9941(6)
H15_8 H 0.6012 0.0132 0.7980
C15_5 C 0.0765(9) 0.9732(8) 0.5958(8)
C16_5 C 0.0937(10) 0.9615(9) 0.6784(8)
H13_5 H 0.1284 0.9937 0.5716
H14_5 H 0.0623 0.9216 0.5732
H16_5 H 0.1453 0.9299 0.6849
H17_5 H 0.0455 0.9341 0.7010
C15_6 C 0.4235(9) 0.0268(8) 0.0958(8)
C16_6 C 0.4063(10) 0.0385(9) 0.1784(8)
H13_6 H 0.3716 0.0063 0.0716
H14_6 H 0.4377 0.0784 0.0732
H16_6 H 0.3547 0.0701 0.1849
H17_6 H 0.4545 0.0659 0.2010
C15_7 C 0.9235(9) 0.0268(8) 0.4042(8)
C16_7 C 0.9063(10) 0.0385(9) 0.3216(8)
H13_7 H 0.8716 0.0063 0.4284
H14_7 H 0.9377 0.0784 0.4268
H16_7 H 0.8547 0.0701 0.3151
H17_7 H 0.9545 0.0659 0.2990
C15_8 C 0.5765(9) 0.9732(8) 0.9042(8)
C16_8 C 0.5937(10) 0.9615(9) 0.8216(8)
H13_8 H 0.6284 0.9937 0.9284
H14_8 H 0.5623 0.9216 0.9268
H16_8 H 0.6453 0.9299 0.8151
H17_8 H 0.5455 0.9341 0.7990
loop_
_geom_bond_atom_site_label_1
_geom_bond_atom_site_label_2
_geom_bond_site_symmetry_1
_geom_bond_site_symmetry_2
Zn1 O1 1_555 1_555
Zn2 O2 1_555 1_555
O1 C1 1_555 1_555
O2 C1 1_555 1_555
O3 C12 1_555 1_555
O4 C12 1_555 1_555
O7 C14 1_555 1_555
O8 C14 1_555 1_555
O9 Zn2 1_555 1_555
C1 C2 1_555 1_555
C2 C3 1_555 1_555
C3 C4 1_555 1_555
C4 C5 1_555 1_555
C5 C6 1_555 1_555
C6 C7 1_555 1_555
C7 C8 1_555 1_555
C8 C9 1_555 1_555
C9 C2 1_555 1_555
C10 C2 1_555 1_555
C11 C4 1_555 1_555
C12 C4 1_555 1_555
C14 C8 1_555 1_555
C15 O9 1_555 1_555
C16 C15 1_555 1_555
H1 C3 1_555 1_555
H2 C3 1_555 1_555
H3 C5 1_555 1_555
H4 C5 1_555 1_555
H5 C7 1_555 1_555
H6 C7 1_555 1_555
H7 C9 1_555 1_555
H8 C9 1_555 1_555
H9 C10 1_555 1_555
H10 C10 1_555 1_555
H11 C11 1_555 1_555
H12 C11 1_555 1_555
H13 C15 1_555 1_555
H14 C15 1_555 1_555
H15 C16 1_555 1_555
H16 C16 1_555 1_555
H17 C16 1_555 1_555
O10 Zn1 1_555 1_555
O11 Zn1 1_555 1_555
O12 Zn1 1_555 1_555
O13 Zn2 1_555 1_555
O14 Zn2 1_555 1_555
Zn3 O3 1_555 1_555
Zn4 O4 1_555 1_555
Zn6 O7 1_555 1_555
Zn7 O8 1_555 1_555
C6 C10 1_555 1_555
C8 C11 1_555 1_555
O5 C13 1_555 1_555
O6 C13 1_555 1_555
Zn5 O5 1_555 1_555
O5_2 C13_2 1_555 1_555
O6_2 C13_2 1_555 1_555
Zn5_2 O5_2 1_555 1_555
O4_2 C12_2 1_555 1_555
O7_2 C14_2 1_555 1_555
O8_2 C14_2 1_555 1_555
C2_2 C3_2 1_555 1_555
C3_2 C4_2 1_555 1_555
C4_2 C5_2 1_555 1_555
C5_2 C6_2 1_555 1_555
C6_2 C7_2 1_555 1_555
C7_2 C8_2 1_555 1_555
C8_2 C9_2 1_555 1_555
C9_2 C2_2 1_555 1_555
C10_2 C2_2 1_555 1_555
C11_2 C4_2 1_555 1_555
C12_2 C4_2 1_555 1_555
C14_2 C8_2 1_555 1_555
H2_2 C3_2 1_555 1_555
H3_2 C5_2 1_555 1_555
H4_2 C5_2 1_555 1_555
H5_2 C7_2 1_555 1_555
H6_2 C7_2 1_555 1_555
H7_2 C9_2 1_555 1_555
H8_2 C9_2 1_555 1_555
H9_2 C10_2 1_555 1_555
H10_2 C10_2 1_555 1_555
H11_2 C11_2 1_555 1_555
H12_2 C11_2 1_555 1_555
Zn6_2 O7_2 1_555 1_555
Zn7_2 O8_2 1_555 1_555
C6_2 C10_2 1_555 1_555
C8_2 C11_2 1_555 1_555
O1_2 C1_2 1_555 1_555
O2_2 C1_2 1_555 1_555
Zn3_2 O3_2 1_555 1_555
O9_2 Zn2_2 1_555 1_555
C15_2 O9_2 1_555 1_555
C16_2 C15_2 1_555 1_555
H13_2 C15_2 1_555 1_555
H14_2 C15_2 1_555 1_555
H15_2 C16_2 1_555 1_555
H16_2 C16_2 1_555 1_555
H17_2 C16_2 1_555 1_555
O10_2 Zn1_2 1_555 1_555
O11_2 Zn1_2 1_555 1_555
O12_2 Zn1_2 1_555 1_555
O14_2 Zn2_2 1_555 1_555
O9_3 Zn6 1_555 1_555
O10_3 Zn7 1_555 1_555
O11_3 Zn7 1_555 1_555
Zn5_2 O3_3 1_555 1_555
O1_3 C1_3 1_555 1_555
O2_3 C1_3 1_555 1_555
O4_3 C12_3 1_555 1_555
O5_3 C13_3 1_555 1_555
O6_3 C13_3 1_555 1_555
O14 C14_3 1_555 1_555
O12 C14_3 1_555 1_555
C1_3 C2_3 1_555 1_555
C2_3 C3_3 1_555 1_555
C3_3 C4_3 1_555 1_555
C4_3 C5_3 1_555 1_555
C5_3 C6_3 1_555 1_555
C6_3 C7_3 1_555 1_555
C7_3 C8_3 1_555 1_555
C8_3 C9_3 1_555 1_555
C9_3 C2_3 1_555 1_555
C10_3 C2_3 1_555 1_555
C11_3 C4_3 1_555 1_555
C12_3 C4_3 1_555 1_555
C13_3 C6_3 1_555 1_555
C14_3 C8_3 1_555 1_555
H2_3 C3_3 1_555 1_555
H3_3 C5_3 1_555 1_555
H4_3 C5_3 1_555 1_555
H5_3 C7_3 1_555 1_555
H6_3 C7_3 1_555 1_555
H7_3 C9_3 1_555 1_555
H8_3 C9_3 1_555 1_555
H9_3 C10_3 1_555 1_555
H10_3 C10_3 1_555 1_555
H11_3 C11_3 1_555 1_555
H12_3 C11_3 1_555 1_555
Zn3_2 O5_3 1_555 1_555
C6_3 C10_3 1_555 1_555
C8_3 C11_3 1_555 1_555
Zn7_2 O1_4 1_555 1_555
Zn6_2 O2_4 1_555 1_555
O1_4 C1_4 1_555 1_555
O2_4 C1_4 1_555 1_555
O9_4 Zn6_2 1_555 1_555
O10_4 Zn7_2 1_555 1_555
O11_4 Zn7_2 1_555 1_555
O13_4 Zn6_2 1_555 1_555
O3_4 C12_4 1_555 1_555
O4_4 C12_4 1_555 1_555
O5_4 C13_4 1_555 1_555
O6_4 C13_4 1_555 1_555
O14_2 C14_4 1_555 1_555
O12_2 C14_4 1_555 1_555
C2_4 C3_4 1_555 1_555
C3_4 C4_4 1_555 1_555
C4_4 C5_4 1_555 1_555
C5_4 C6_4 1_555 1_555
C6_4 C7_4 1_555 1_555
C7_4 C8_4 1_555 1_555
C8_4 C9_4 1_555 1_555
C9_4 C2_4 1_555 1_555
C10_4 C2_4 1_555 1_555
C11_4 C4_4 1_555 1_555
C12_4 C4_4 1_555 1_555
C13_4 C6_4 1_555 1_555
C14_4 C8_4 1_555 1_555
H1_4 C3_4 1_555 1_555
H2_4 C3_4 1_555 1_555
H3_4 C5_4 1_555 1_555
H4_4 C5_4 1_555 1_555
H5_4 C7_4 1_555 1_555
H6_4 C7_4 1_555 1_555
H7_4 C9_4 1_555 1_555
H8_4 C9_4 1_555 1_555
H9_4 C10_4 1_555 1_555
H10_4 C10_4 1_555 1_555
H11_4 C11_4 1_555 1_555
H12_4 C11_4 1_555 1_555
Zn5 O3_4 1_555 1_555
Zn4_4 O4_4 1_555 1_555
Zn3 O5_4 1_555 1_555
C6_4 C10_4 1_555 1_555
C8_4 C11_4 1_555 1_555
O11 C13_5 1_555 1_555
O6_5 C13_5 1_555 1_555
Zn5 O1_5 1_555 1_555
Zn4_4 O2_5 1_555 1_555
O1_5 C1_5 1_555 1_555
O2_5 C1_5 1_555 1_555
O10_4 C12_5 1_555 1_555
O13_4 C12_5 1_555 1_555
O7_3 C14_5 1_555 1_555
O8_3 C14_5 1_555 1_555
O9_5 Zn4_4 1_555 1_555
C1_5 C2_5 1_555 1_555
C2_5 C3_5 1_555 1_555
C3_5 C4_5 1_555 1_555
C4_5 C5_5 1_555 1_555
C5_5 C6_5 1_555 1_555
C6_5 C7_5 1_555 1_555
C7_5 C8_5 1_555 1_555
C8_5 C9_5 1_555 1_555
C9_5 C2_5 1_555 1_555
C10_5 C2_5 1_555 1_555
C11_5 C4_5 1_555 1_555
C12_5 C4_5 1_555 1_555
C14_5 C8_5 1_555 1_555
C15_3 O9_5 1_555 1_555
C16_3 C15_3 1_555 1_555
H1_5 C3_5 1_555 1_555
H2_5 C3_5 1_555 1_555
H3_5 C5_5 1_555 1_555
H4_5 C5_5 1_555 1_555
H5_5 C7_5 1_555 1_555
H6_5 C7_5 1_555 1_555
H7_5 C9_5 1_555 1_555
H8_5 C9_5 1_555 1_555
H9_5 C10_5 1_555 1_555
H10_5 C10_5 1_555 1_555
H11_5 C11_5 1_555 1_555
H12_5 C11_5 1_555 1_555
H13_3 C15_3 1_555 1_555
H14_3 C15_3 1_555 1_555
H15_5 C16_3 1_555 1_555
H16_3 C16_3 1_555 1_555
H17_3 C16_3 1_555 1_555
O12_3 Zn5 1_555 1_555
O14_3 Zn4_4 1_555 1_555
Zn4_2 O7_3 1_555 1_555
Zn3_2 O8_3 1_555 1_555
C6_5 C10_5 1_555 1_555
C8_5 C11_5 1_555 1_555
O9_6 Zn4_3 1_555 1_555
C15_4 O9_6 1_555 1_555
C16_4 C15_4 1_555 1_555
H13_4 C15_4 1_555 1_555
H14_4 C15_4 1_555 1_555
H15_6 C16_4 1_555 1_555
H16_4 C16_4 1_555 1_555
H17_4 C16_4 1_555 1_555
O12_4 Zn5_2 1_555 1_555
O14_4 Zn4_3 1_555 1_555
O1_6 C1_6 1_555 1_555
O2_6 C1_6 1_555 1_555
O13_3 C12_6 1_555 1_555
O7_4 C14_6 1_555 1_555
O8_4 C14_6 1_555 1_555
C2_6 C3_6 1_555 1_555
C3_6 C4_6 1_555 1_555
C4_6 C5_6 1_555 1_555
C5_6 C6_6 1_555 1_555
C6_6 C7_6 1_555 1_555
C7_6 C8_6 1_555 1_555
C8_6 C9_6 1_555 1_555
C9_6 C2_6 1_555 1_555
C10_6 C2_6 1_555 1_555
C11_6 C4_6 1_555 1_555
C12_6 C4_6 1_555 1_555
C14_6 C8_6 1_555 1_555
H2_6 C3_6 1_555 1_555
H3_6 C5_6 1_555 1_555
H4_6 C5_6 1_555 1_555
H5_6 C7_6 1_555 1_555
H6_6 C7_6 1_555 1_555
H7_6 C9_6 1_555 1_555
H8_6 C9_6 1_555 1_555
H9_6 C10_6 1_555 1_555
H10_6 C10_6 1_555 1_555
H11_6 C11_6 1_555 1_555
H12_6 C11_6 1_555 1_555
Zn4 O7_4 1_555 1_555
Zn3 O8_4 1_555 1_555
C6_6 C10_6 1_555 1_555
C8_6 C11_6 1_555 1_555
O11_2 C13_6 1_555 1_555
O6_6 C13_6 1_555 1_555
O1_7 C1_7 1_555 1_555
O2_7 C1_7 1_555 1_555
O13_2 C12_7 1_555 1_555
O11_3 C13_7 1_555 1_555
O6_7 C13_7 1_555 1_555
O14_3 C14_7 1_555 1_555
O12_3 C14_7 1_555 1_555
C1_7 C2_7 1_555 1_555
C2_7 C3_7 1_555 1_555
C3_7 C4_7 1_555 1_555
C4_7 C5_7 1_555 1_555
C5_7 C6_7 1_555 1_555
C6_7 C7_7 1_555 1_555
C7_7 C8_7 1_555 1_555
C8_7 C9_7 1_555 1_555
C9_7 C2_7 1_555 1_555
C10_7 C2_7 1_555 1_555
C11_7 C4_7 1_555 1_555
C12_7 C4_7 1_555 1_555
C13_7 C6_7 1_555 1_555
C14_7 C8_7 1_555 1_555
H2_7 C3_7 1_555 1_555
H3_7 C5_7 1_555 1_555
H4_7 C5_7 1_555 1_555
H5_7 C7_7 1_555 1_555
H6_7 C7_7 1_555 1_555
H7_7 C9_7 1_555 1_555
H8_7 C9_7 1_555 1_555
H9_7 C10_7 1_555 1_555
H10_7 C10_7 1_555 1_555
H11_7 C11_7 1_555 1_555
H12_7 C11_7 1_555 1_555
C6_7 C10_7 1_555 1_555
C8_7 C11_7 1_555 1_555
O9_7 Zn4_2 1_555 1_555
O10 C12_8 1_555 1_555
O13 C12_8 1_555 1_555
O11_4 C13_8 1_555 1_555
O6_8 C13_8 1_555 1_555
O14_4 C14_8 1_555 1_555
O12_4 C14_8 1_555 1_555
C2_8 C3_8 1_555 1_555
C3_8 C4_8 1_555 1_555
C4_8 C5_8 1_555 1_555
C5_8 C6_8 1_555 1_555
C6_8 C7_8 1_555 1_555
C7_8 C8_8 1_555 1_555
C8_8 C9_8 1_555 1_555
C9_8 C2_8 1_555 1_555
C10_8 C2_8 1_555 1_555
C11_8 C4_8 1_555 1_555
C12_8 C4_8 1_555 1_555
C13_8 C6_8 1_555 1_555
C14_8 C8_8 1_555 1_555
H1_8 C3_8 1_555 1_555
H2_8 C3_8 1_555 1_555
H3_8 C5_8 1_555 1_555
H4_8 C5_8 1_555 1_555
H5_8 C7_8 1_555 1_555
H6_8 C7_8 1_555 1_555
H7_8 C9_8 1_555 1_555
H8_8 C9_8 1_555 1_555
H9_8 C10_8 1_555 1_555
H10_8 C10_8 1_555 1_555
H11_8 C11_8 1_555 1_555
H12_8 C11_8 1_555 1_555
C6_8 C10_8 1_555 1_555
C8_8 C11_8 1_555 1_555
Zn3 O1_8 1_555 1_555
Zn4 O2_8 1_555 1_555
O1_8 C1_8 1_555 1_555
O2_8 C1_8 1_555 1_555
O9_8 Zn4 1_555 1_555
C16_5 C15_5 1_555 1_555
H13_5 C15_5 1_555 1_555
H14_5 C15_5 1_555 1_555
H16_5 C16_5 1_555 1_555
H17_5 C16_5 1_555 1_555
C16_6 C15_6 1_555 1_555
H13_6 C15_6 1_555 1_555
H14_6 C15_6 1_555 1_555
H16_6 C16_6 1_555 1_555
H17_6 C16_6 1_555 1_555
C16_7 C15_7 1_555 1_555
H13_7 C15_7 1_555 1_555
H14_7 C15_7 1_555 1_555
H16_7 C16_7 1_555 1_555
H17_7 C16_7 1_555 1_555
C16_8 C15_8 1_555 1_555
H13_8 C15_8 1_555 1_555
H14_8 C15_8 1_555 1_555
H16_8 C16_8 1_555 1_555
H17_8 C16_8 1_555 1_555

#END
