
###############################################################################
#
# This file contains modified crystal structure data generated from the
# MOF subset of the Cambridge Structural Database (CSD) v543 
# hosted by the Cambridge Crystallographic Data Centre (CCDC).
#
# This work is licensed under the Creative Commons
# Attribution-NonCommercial-ShareAlike 4.0 International License.
# To view a copy of this license, visit
# http://creativecommons.org/licenses/by-nc-sa/4.0/
# or send a letter to
# Creative Commons, PO Box 1866, Mountain View, CA 94042, USA.
#
# CIF created using the CSD Python API on 29 September 2022
# The structure has been converted into the P1 space group
# The structure has a 3D framework
# The original CSD entry PUWDEQ is in the triclinic crystal system
# The framework has been calculated to contain at least 10.0% void space
# The void calculation uses a probe of radius 1.32A, grid spacing 0.4
# The framework is charged, counterions have been retained in the structure
#
###############################################################################

data_PUWDEQ
_chemical_formula_moiety         '(C48 H50 N2 O10 Zn2 1+)n'
_symmetry_cell_setting           triclinic
_symmetry_space_group_name_H-M   'P 1'
_symmetry_Int_Tables_number      1
_space_group_name_Hall           'P 1'
loop_
_symmetry_equiv_pos_site_id
_symmetry_equiv_pos_as_xyz
1 x,y,z
_cell_length_a                   9.9518(8)
_cell_length_b                   11.5761(9)
_cell_length_c                   15.5562(12)
_cell_angle_alpha                72.3770(10)
_cell_angle_beta                 83.1650(10)
_cell_angle_gamma                84.3260(10)
_cell_volume                     1692.13
loop_
_atom_site_label
_atom_site_type_symbol
_atom_site_fract_x
_atom_site_fract_y
_atom_site_fract_z
C5 C 0.1370(5) 0.5915(5) 0.0123(4)
H2 H 0.2332 0.5875 0.0096
C23 C 0.0640(5) 0.6879(5) 0.0299(4)
H10 H 0.1100 0.7507 0.0390
Zn1 Zn 0.4146(1) 0.0927(1) 0.8878(1)
O1 O 0.2867(3) 0.1906(3) 0.9439(2)
O2 O 0.0973(3) 0.1275(3) 0.9131(3)
O5 O 0.4782(4) 0.1935(3) 0.7675(3)
O6 O 0.2742(4) 0.1737(4) 0.7294(3)
C1 C 0.1571(5) 0.1976(5) 0.9384(3)
C2 C 0.0800(5) 0.3023(5) 0.9650(3)
C3 C 0.1447(5) 0.3919(5) 0.9793(3)
C4 C 0.0720(5) 0.4961(5) 0.9979(4)
C13 C 0.3852(6) 0.2215(5) 0.7143(4)
C14 C 0.4111(5) 0.3210(5) 0.6271(4)
C15 C 0.3245(6) 0.3448(5) 0.5576(4)
C16 C 0.3452(6) 0.4375(5) 0.4788(4)
C17 C 0.4557(5) 0.5119(5) 0.4658(4)
C18 C 0.5198(5) 0.3917(5) 0.6157(4)
H1 H 0.2409 0.3853 0.9768
H7 H 0.2503 0.2958 0.5654
H8 H 0.2856 0.4519 0.4327
H9 H 0.5785 0.3759 0.6624
C31 C 0.5443(5) 0.4881(5) 0.5342(4)
C32 C 0.6548(6) 0.5625(5) 0.5212(4)
C33 C 0.6755(6) 0.6552(5) 0.4424(4)
C34 C 0.5889(5) 0.6790(5) 0.3729(4)
C35 C 0.6148(6) 0.7785(5) 0.2857(4)
O11 O 0.5218(4) 0.8065(3) 0.2325(3)
O12 O 0.7258(4) 0.8263(4) 0.2706(3)
C36 C 0.4802(5) 0.6083(5) 0.3843(4)
H16 H 0.4215 0.6241 0.3376
H17 H 0.7497 0.7042 0.4346
H18 H 0.7144 0.5481 0.5673
O13 O 0.5803(3) 0.1049(3) 0.9501(2)
Zn6 Zn 0.5854(1) 0.9073(1) 0.1122(1)
O4 O 0.4197(3) 0.8951(3) 0.0499(2)
C8 C 0.4546(5) 0.7171(5) 0.0023(4)
C12 C 0.4505(5) 0.6421(5) 0.0943(5)
H6 H 0.4339 0.6789 0.1418
C25 C 0.4961(5) 0.4667(5) 0.0458(4)
C26 C 0.5195(5) 0.3334(5) 0.0667(5)
C28 C 0.5693(5) 0.1464(5) 0.0158(4)
O9 O 0.5790(3) 0.0814(3) 0.0975(2)
H14 H 0.5164 0.2835 0.1278
C30 C 0.4701(6) 0.5170(6) 0.1156(5)
H15 H 0.4657 0.4675 0.1768
O3 O 0.4210(3) 0.9186(3) 0.9025(2)
C7 C 0.4307(5) 0.8536(5) 0.9842(4)
C9 C 0.4805(5) 0.6666(5) 0.9333(5)
C10 C 0.5039(5) 0.5333(5) 0.9542(4)
C11 C 0.5299(6) 0.4830(6) 0.8844(5)
H4 H 0.4836 0.7165 0.8722
H5 H 0.5343 0.5325 0.8232
C27 C 0.5454(5) 0.2829(5) 0.9977(4)
C29 C 0.5495(5) 0.3579(5) 0.9057(5)
H13 H 0.5661 0.3211 0.8582
C19 C 0.9280(5) 0.5039(5) 0.0021(4)
C20 C 0.8553(5) 0.6081(5) 0.0207(3)
C21 C 0.9200(5) 0.6977(5) 0.0350(3)
C22 C 0.8429(5) 0.8024(5) 0.0616(3)
O7 O 0.7133(3) 0.8094(3) 0.0561(2)
O8 O 0.9027(3) 0.8725(3) 0.0869(3)
H11 H 0.7591 0.6147 0.0232
C6 C 0.9360(5) 0.3121(5) 0.9701(4)
H3 H 0.8900 0.2493 0.9610
C24 C 0.8630(5) 0.4085(5) 0.9877(4)
H12 H 0.7668 0.4125 0.9904
H19 H 0.0490(50) 0.0920(50) 0.8030(40)
H24 H 0.1529 0.0258 0.6857
H31 H 0.0253 0.2134 0.6609
C37 C 0.1527(6) 0.8772(6) 0.7970(5)
C38 C 0.0834(6) 0.9804(6) 0.7308(4)
H20 H 0.2050 0.8241 0.7649
H21 H 0.0847 0.8309 0.8416
H22 H 0.2139 0.9089 0.8281
H23 H 0.0247 0.9473 0.6981
N1 N 0.9987(5) 0.0670(4) 0.7731(3)
C40 C 0.8886(6) 0.0078(5) 0.8443(4)
C41 C 0.9471(6) 0.1743(5) 0.7007(4)
C42 C 0.8625(7) 0.2677(6) 0.7373(5)
H27 H 0.7392 0.0190 0.7614
H29 H 0.8429 0.0691 0.8725
H30 H 0.8917 0.1457 0.6633
H32 H 0.8313 0.3351 0.6868
H33 H 0.9173 0.2986 0.7728
H34 H 0.7839 0.2302 0.7760
C39 C 0.7834(6) 0.9548(6) 0.8081(5)
H25 H 0.7155 0.9188 0.8576
H26 H 0.8272 0.8919 0.7818
H28 H 0.9313 0.9425 0.8923
C39_2 C 0.2166(6) 0.0452(6) 0.1919(5)
H25_2 H 0.2845 0.0812 0.1424
H26_2 H 0.1728 0.1081 0.2182
H28_2 H 0.0687 0.0575 0.1077
N1_2 N 0.0013(5) 0.9330(4) 0.2269(3)
C40_2 C 0.1114(6) 0.9922(5) 0.1557(4)
C41_2 C 0.0529(6) 0.8257(5) 0.2993(4)
C42_2 C 0.1375(7) 0.7323(6) 0.2627(5)
H27_2 H 0.2608 0.9810 0.2386
H29_2 H 0.1571 0.9309 0.1275
H30_2 H 0.1083 0.8543 0.3367
H32_2 H 0.1687 0.6649 0.3132
H33_2 H 0.0827 0.7014 0.2272
H34_2 H 0.2161 0.7698 0.2240
C37_2 C 0.8473(6) 0.1228(6) 0.2030(5)
C38_2 C 0.9166(6) 0.0196(6) 0.2692(4)
H20_2 H 0.7950 0.1759 0.2351
H21_2 H 0.9153 0.1691 0.1584
H22_2 H 0.7861 0.0911 0.1719
H23_2 H 0.9753 0.0527 0.3019
H19_2 H 0.9510(50) 0.9080(50) 0.1970(40)
H24_2 H 0.8471 0.9742 0.3143
H31_2 H 0.9747 0.7866 0.3391
loop_
_geom_bond_atom_site_label_1
_geom_bond_atom_site_label_2
_geom_bond_site_symmetry_1
_geom_bond_site_symmetry_2
C5 H2 1_555 1_555
C23 C5 1_555 1_555
H10 C23 1_555 1_555
Zn1 O1 1_555 1_555
O1 C1 1_555 1_555
O2 C1 1_555 1_555
O5 Zn1 1_555 1_555
O6 C13 1_555 1_555
C1 C2 1_555 1_555
C2 C3 1_555 1_555
C3 C4 1_555 1_555
C13 O5 1_555 1_555
C14 C13 1_555 1_555
C15 C14 1_555 1_555
C16 C15 1_555 1_555
C17 C16 1_555 1_555
C18 C14 1_555 1_555
H1 C3 1_555 1_555
H7 C15 1_555 1_555
H8 C16 1_555 1_555
H9 C18 1_555 1_555
C31 C17 1_555 1_555
C32 C31 1_555 1_555
C33 C32 1_555 1_555
C34 C33 1_555 1_555
C35 C34 1_555 1_555
O11 C35 1_555 1_555
O12 C35 1_555 1_555
C36 C17 1_555 1_555
H16 C36 1_555 1_555
H17 C33 1_555 1_555
H18 C32 1_555 1_555
O13 Zn1 1_555 1_555
Zn6 O11 1_555 1_555
C18 C31 1_555 1_555
C34 C36 1_555 1_555
C12 C8 1_555 1_555
H6 C12 1_555 1_555
C26 C25 1_555 1_555
O9 C28 1_555 1_555
H14 C26 1_555 1_555
C30 C12 1_555 1_555
H15 C30 1_555 1_555
Zn6 O4 1_555 1_555
C25 C30 1_555 1_555
C7 O3 1_555 1_555
C10 C9 1_555 1_555
C11 C10 1_555 1_555
H4 C9 1_555 1_555
H5 C11 1_555 1_555
C29 C11 1_555 1_555
H13 C29 1_555 1_555
C27 C29 1_555 1_555
C20 C19 1_555 1_555
C21 C20 1_555 1_555
C22 C21 1_555 1_555
O7 C22 1_555 1_555
O8 C22 1_555 1_555
H11 C20 1_555 1_555
Zn6 O7 1_555 1_555
H3 C6 1_555 1_555
C24 C6 1_555 1_555
H12 C24 1_555 1_555
C37 C38 1_555 1_555
C38 H23 1_555 1_555
H20 C37 1_555 1_555
H21 C37 1_555 1_555
H22 C37 1_555 1_555
C40 N1 1_555 1_555
C41 N1 1_555 1_555
C42 C41 1_555 1_555
H29 C40 1_555 1_555
H30 C41 1_555 1_555
H32 C42 1_555 1_555
H33 C42 1_555 1_555
H34 C42 1_555 1_555
H25 C39 1_555 1_555
H26 C39 1_555 1_555
H25_2 C39_2 1_555 1_555
H26_2 C39_2 1_555 1_555
C40_2 N1_2 1_555 1_555
C41_2 N1_2 1_555 1_555
C42_2 C41_2 1_555 1_555
H29_2 C40_2 1_555 1_555
H30_2 C41_2 1_555 1_555
H32_2 C42_2 1_555 1_555
H33_2 C42_2 1_555 1_555
H34_2 C42_2 1_555 1_555
C37_2 C38_2 1_555 1_555
C38_2 H23_2 1_555 1_555
H20_2 C37_2 1_555 1_555
H21_2 C37_2 1_555 1_555
H22_2 C37_2 1_555 1_555

#END
