
###############################################################################
#
# This file contains modified crystal structure data generated from the
# MOF subset of the Cambridge Structural Database (CSD) v543 
# hosted by the Cambridge Crystallographic Data Centre (CCDC).
#
# This work is licensed under the Creative Commons
# Attribution-NonCommercial-ShareAlike 4.0 International License.
# To view a copy of this license, visit
# http://creativecommons.org/licenses/by-nc-sa/4.0/
# or send a letter to
# Creative Commons, PO Box 1866, Mountain View, CA 94042, USA.
#
# CIF created using the CSD Python API on 29 September 2022
# The structure has been converted into the P1 space group
# The structure has a 3D framework
# The original CSD entry PUWQAA is in the orthorhombic crystal system
# The framework has been calculated to contain at least 10.0% void space
# The void calculation uses a probe of radius 1.32A, grid spacing 0.4
#
###############################################################################

data_PUWQAA
_chemical_formula_moiety         '(C96 H64 Cd16 N96 O64)n'
_symmetry_cell_setting           triclinic
_symmetry_space_group_name_H-M   'P 1'
_symmetry_Int_Tables_number      1
_space_group_name_Hall           'P 1'
loop_
_symmetry_equiv_pos_site_id
_symmetry_equiv_pos_as_xyz
1 x,y,z
_cell_length_a                   9.4370(10)
_cell_length_b                   33.637(4)
_cell_length_c                   14.6329(15)
_cell_angle_alpha                90
_cell_angle_beta                 90
_cell_angle_gamma                90
_cell_volume                     4644.96
loop_
_atom_site_label
_atom_site_type_symbol
_atom_site_fract_x
_atom_site_fract_y
_atom_site_fract_z
Cd1 Cd 0.08888(4) 0.691330(11) 0.50705(2)
Cd2 Cd 0.0000 0.541720(16) 0.2500
Cd3 Cd 0.5000 0.411430(16) 0.2500
N1 N 0.2300(6) 0.46922(15) 0.1650(3)
C1 C 0.2569(6) 0.47727(15) 0.2590(4)
O1 O 0.3071(5) 0.44509(12) 0.1259(3)
N2 N 0.3531(5) 0.45871(13) 0.3070(3)
O2 O 0.1311(5) 0.48651(13) 0.1267(3)
C2 C 0.2436(8) 0.50517(18) 0.3871(4)
H1 H 0.2181 0.5214 0.4359
N3 N 0.1838(5) 0.50628(13) 0.3020(3)
C3 C 0.3470(7) 0.47650(17) 0.3897(4)
H2 H 0.4034 0.4704 0.4399
O3 O 0.1020(5) 0.65855(12) 0.6693(3)
O4 O 0.2388(5) 0.62293(13) 0.7564(3)
N4 N 0.4583(5) 0.63302(14) 0.6380(3)
N5 N 0.2178(6) 0.64305(13) 0.6866(3)
C4 C 0.3303(7) 0.64807(16) 0.6245(4)
N9 N 0.3122(5) 0.67058(14) 0.5501(3)
N10 N 0.0128(5) 0.62867(13) 0.4771(3)
C8 C 0.0439(6) 0.61065(16) 0.3990(4)
O7 O 0.1634(5) 0.60965(13) 0.2642(3)
O8 O 0.1743(5) 0.66307(12) 0.3470(3)
N12 N 0.1328(6) 0.62897(15) 0.3324(3)
C11 C 0.4444(7) 0.6700(2) 0.5120(4)
H7 H 0.4710 0.6832 0.4588
C12 C 0.5310(8) 0.6468(2) 0.5647(5)
H8 H 0.6256 0.6413 0.5521
Cd6 Cd 0.58888(4) 0.808670(11) 0.49295(2)
Cd7 Cd 0.08888(4) 0.308670(11) 0.00705(2)
Cd8 Cd 0.5000 0.588570(16) 0.7500
N15 N 0.6469(5) 0.45871(13) 0.1930(3)
O11 O 0.1020(5) 0.34145(12) 0.1693(3)
O12 O 0.2388(5) 0.37707(13) 0.2564(3)
N17 N 0.4583(5) 0.36698(14) 0.1380(3)
N18 N 0.5417(5) 0.36698(14) 0.3620(3)
N19 N 0.2178(6) 0.35695(13) 0.1866(3)
C16 C 0.3303(7) 0.35193(16) 0.1245(4)
O13 O 0.3920(5) 0.78640(13) 0.6207(3)
N20 N 0.2950(6) 0.76701(14) 0.5843(3)
N21 N 0.3849(5) 0.78509(13) 0.4348(3)
N23 N 0.1939(5) 0.74490(13) 0.4420(3)
N25 N 0.3122(5) 0.32942(14) 0.0501(3)
O14 O 0.2010(5) 0.74929(13) 0.6262(3)
C17 C 0.2904(6) 0.76583(15) 0.4855(3)
C18 C 0.2277(7) 0.75195(17) 0.3537(4)
H11 H 0.1799 0.7415 0.3035
C19 C 0.3410(7) 0.77637(17) 0.3493(4)
H12 H 0.3824 0.7857 0.2957
N28 N 0.0132(6) 0.57460(12) 0.1141(3)
C21 C 0.0872(8) 0.56920(18) 0.0354(4)
H13 H 0.1412 0.5469 0.0212
C23 C 0.4444(7) 0.3300(2) 0.0120(4)
C24 C 0.5310(8) 0.3532(2) 0.0647(5)
H16 H 0.6256 0.3587 0.0521
N22 N 0.1151(5) 0.71491(13) 0.9348(3)
C22 C 0.0697(8) 0.60168(17) 0.9807(4)
H14 H 0.1089 0.6047 0.9228
H15 H 0.4710 0.3168 0.9588
Cd2_2 Cd 1.0000 0.541720(16) 0.2500
O5 O 0.8920(5) 0.71360(13) 0.3793(3)
N6 N 0.7950(6) 0.73299(14) 0.4157(3)
N7 N 0.8849(5) 0.71491(13) 0.5652(3)
N8 N 0.6939(5) 0.75510(13) 0.5580(3)
O6 O 0.7010(5) 0.75071(13) 0.3738(3)
C5 C 0.7904(6) 0.73417(15) 0.5145(3)
C6 C 0.7277(7) 0.74805(17) 0.6463(4)
H3 H 0.6799 0.7585 0.6965
C7 C 0.8410(7) 0.72363(17) 0.6507(4)
H4 H 0.8824 0.7143 0.7043
N11 N 0.9868(6) 0.57460(12) 0.3859(3)
C9 C 0.9128(8) 0.56920(18) 0.4646(4)
H5 H 0.8588 0.5469 0.4788
C10 C 0.9303(8) 0.60168(17) 0.5193(4)
H6 H 0.8911 0.6047 0.5772
N13 N 0.7700(6) 0.46922(15) 0.3350(3)
C13 C 0.7431(6) 0.47727(15) 0.2410(4)
O9 O 0.6929(5) 0.44509(12) 0.3741(3)
O10 O 0.8689(5) 0.48651(13) 0.3733(3)
C14 C 0.7564(8) 0.50517(18) 0.1129(4)
H9 H 0.7819 0.5214 0.0641
N16 N 0.8162(5) 0.50628(13) 0.1980(3)
C15 C 0.6530(7) 0.47650(17) 0.1103(4)
H10 H 0.5966 0.4704 0.0601
N24 N 0.8061(5) 0.74490(13) 0.0580(3)
N27 N 0.9872(5) 0.62867(13) 0.0229(3)
C20 C 0.9561(6) 0.61065(16) 0.1010(4)
O15 O 0.8366(5) 0.60965(13) 0.2358(3)
O16 O 0.8257(5) 0.66307(12) 0.1530(3)
N29 N 0.8672(6) 0.62897(15) 0.1676(3)
Cd4 Cd 0.91112(4) 0.691330(11) 0.99295(2)
N26 N 0.6878(5) 0.67058(14) 0.9499(3)
Cd9 Cd 0.0000 0.088570(16) 0.7500
N1_2 N 0.2700(6) 0.03078(15) 0.6650(3)
C1_2 C 0.2431(6) 0.02273(15) 0.7590(4)
O1_2 O 0.1929(5) 0.05491(12) 0.6259(3)
N2_2 N 0.1469(5) 0.04129(13) 0.8070(3)
O2_2 O 0.3689(5) 0.01349(13) 0.6267(3)
C3_2 C 0.1530(7) 0.02350(17) 0.8897(4)
H2_2 H 0.0966 0.0296 0.9399
Cd7_2 Cd 0.41112(4) 0.191330(11) 0.50705(2)
Cd9_2 Cd 1.0000 0.088570(16) 0.7500
N13_2 N 0.7300(6) 0.03078(15) 0.8350(3)
C13_2 C 0.7569(6) 0.02273(15) 0.7410(4)
O9_2 O 0.8071(5) 0.05491(12) 0.8741(3)
N14 N 0.8531(5) 0.04129(13) 0.6930(3)
O10_2 O 0.6311(5) 0.01349(13) 0.8733(3)
C15_2 C 0.8470(7) 0.02350(17) 0.6103(4)
H10_2 H 0.9034 0.0296 0.5601
O11_2 O 0.3980(5) 0.15855(12) 0.6693(3)
O12_2 O 0.2612(5) 0.12293(13) 0.7564(3)
N17_2 N 0.0417(5) 0.13302(14) 0.6380(3)
N19_2 N 0.2822(6) 0.14305(13) 0.6866(3)
C16_2 C 0.1697(7) 0.14807(16) 0.6245(4)
N25_2 N 0.1878(5) 0.17058(14) 0.5501(3)
C23_2 C 0.0556(7) 0.1700(2) 0.5120(4)
H15_2 H 0.0290 0.1832 0.4588
Cd1_2 Cd 0.41112(4) 0.808670(11) 0.00705(2)
O3_2 O 0.3980(5) 0.84145(12) 0.1693(3)
O4_2 O 0.2612(5) 0.87707(13) 0.2564(3)
N4_2 N 0.0417(5) 0.86698(14) 0.1380(3)
N5_2 N 0.2822(6) 0.85695(13) 0.1866(3)
C4_2 C 0.1697(7) 0.85193(16) 0.1245(4)
N7_2 N 0.6151(5) 0.78509(13) 0.0652(3)
N9_2 N 0.1878(5) 0.82942(14) 0.0501(3)
C5_2 C 0.7096(6) 0.76583(15) 0.0145(3)
C6_2 C 0.7723(7) 0.75195(17) 0.1463(4)
H3_2 H 0.8201 0.7415 0.1965
C7_2 C 0.6590(7) 0.77637(17) 0.1507(4)
H4_2 H 0.6176 0.7857 0.2043
C10_2 C 0.5697(8) 0.89832(17) 0.0193(4)
H6_2 H 0.6089 0.8953 0.0772
C11_2 C 0.0556(7) 0.8300(2) 0.0120(4)
Cd8_2 Cd -0.0000 0.911430(16) 0.2500
O13_2 O 0.1080(5) 0.71360(13) 0.1207(3)
N20_2 N 0.2050(6) 0.73299(14) 0.0843(3)
O14_2 O 0.2990(5) 0.75071(13) 0.1262(3)
Cd2_3 Cd 0.5000 0.958280(16) 0.7500
C2_2 C 0.2564(8) 0.99483(18) 0.8871(4)
H1_2 H 0.2819 0.9786 0.9359
N3_2 N 0.3162(5) 0.99372(13) 0.8020(3)
O5_2 O 0.6080(5) 0.78640(13) 0.8793(3)
N6_2 N 0.7050(6) 0.76701(14) 0.9157(3)
N10_2 N 0.4872(5) 0.87133(13) 0.9771(3)
O6_2 O 0.7990(5) 0.74929(13) 0.8738(3)
N11_2 N 0.5132(6) 0.92540(12) 0.8859(3)
C8_2 C 0.4561(6) 0.88935(16) 0.8990(4)
C9_2 C 0.5872(8) 0.93080(18) 0.9646(4)
H5_2 H 0.6412 0.9531 0.9788
O7_2 O 0.3366(5) 0.89035(13) 0.7642(3)
O8_2 O 0.3257(5) 0.83693(12) 0.8470(3)
N12_2 N 0.3672(6) 0.87103(15) 0.8324(3)
H7_2 H 0.0290 0.8168 0.9588
C14_2 C 0.7436(8) 0.99483(18) 0.6129(4)
H9_2 H 0.7181 0.9786 0.5641
N16_2 N 0.6838(5) 0.99372(13) 0.6980(3)
N23_2 N 0.3061(5) 0.75510(13) 0.9420(3)
N26_2 N 0.8122(5) 0.82942(14) 0.4499(3)
N27_2 N 0.5128(5) 0.87133(13) 0.5229(3)
C17_2 C 0.2096(6) 0.73417(15) 0.9855(3)
C18_2 C 0.2723(7) 0.74805(17) 0.8537(4)
H11_2 H 0.3201 0.7585 0.8035
C19_2 C 0.1590(7) 0.72363(17) 0.8493(4)
H12_2 H 0.1176 0.7143 0.7957
N28_2 N 0.4868(6) 0.92540(12) 0.6141(3)
C20_2 C 0.5439(6) 0.88935(16) 0.6010(4)
C21_2 C 0.4128(8) 0.93080(18) 0.5354(4)
H13_2 H 0.3588 0.9531 0.5212
C22_2 C 0.4303(8) 0.89832(17) 0.4807(4)
H14_2 H 0.3911 0.8953 0.4228
O15_2 O 0.6634(5) 0.89035(13) 0.7358(3)
O16_2 O 0.6743(5) 0.83693(12) 0.6530(3)
N29_2 N 0.6328(6) 0.87103(15) 0.6676(3)
N18_2 N 0.9583(5) 0.13302(14) 0.8620(3)
C24_2 C 0.9690(8) 0.1468(2) 0.5647(5)
H16_2 H 0.8744 0.1413 0.5521
C12_2 C 0.9690(8) 0.8532(2) 0.0647(5)
H8_2 H 0.8744 0.8587 0.0521
Cd8_3 Cd 1.0000 0.911430(16) 0.2500
H7_3 H 0.5290 0.6832 0.0412
Cd7_3 Cd 0.91112(4) 0.308670(11) 0.49295(2)
O11_3 O 0.8980(5) 0.34145(12) 0.3307(3)
O12_3 O 0.7612(5) 0.37707(13) 0.2436(3)
N19_3 N 0.7822(6) 0.35695(13) 0.3134(3)
C16_3 C 0.6697(7) 0.35193(16) 0.3755(4)
N25_3 N 0.6878(5) 0.32942(14) 0.4499(3)
C23_3 C 0.5556(7) 0.3300(2) 0.4880(4)
H15_3 H 0.5290 0.3168 0.5412
C24_3 C 0.4690(8) 0.3532(2) 0.4353(5)
H16_3 H 0.3744 0.3587 0.4479
O3_3 O 0.8980(5) 0.65855(12) 0.8307(3)
O4_3 O 0.7612(5) 0.62293(13) 0.7436(3)
N4_3 N 0.5417(5) 0.63302(14) 0.8620(3)
N5_3 N 0.7822(6) 0.64305(13) 0.8134(3)
C4_3 C 0.6697(7) 0.64807(16) 0.8755(4)
C11_3 C 0.5556(7) 0.6700(2) 0.9880(4)
C12_3 C 0.4690(8) 0.6468(2) 0.9353(5)
H8_3 H 0.3744 0.6413 0.9479
C24_4 C 0.0310(8) 0.1468(2) 0.9353(5)
H16_4 H 0.1256 0.1413 0.9479
C12_4 C 0.0310(8) 0.8532(2) 0.4353(5)
H8_4 H 0.1256 0.8587 0.4479
H15_4 H 0.9710 0.1832 0.0412
Cd7_4 Cd 0.58888(4) 0.191330(11) 0.99295(2)
O11_4 O 0.6020(5) 0.15855(12) 0.8307(3)
O12_4 O 0.7388(5) 0.12293(13) 0.7436(3)
N19_4 N 0.7178(6) 0.14305(13) 0.8134(3)
C16_4 C 0.8303(7) 0.14807(16) 0.8755(4)
N25_4 N 0.8122(5) 0.17058(14) 0.9499(3)
C23_4 C 0.9444(7) 0.1700(2) 0.9880(4)
O3_4 O 0.6020(5) 0.84145(12) 0.3307(3)
O4_4 O 0.7388(5) 0.87707(13) 0.2436(3)
N4_4 N 0.9583(5) 0.86698(14) 0.3620(3)
N5_4 N 0.7178(6) 0.85695(13) 0.3134(3)
C4_4 C 0.8303(7) 0.85193(16) 0.3755(4)
C11_4 C 0.9444(7) 0.8300(2) 0.4880(4)
H7_4 H 0.9710 0.8168 0.5412
Cd2_4 Cd 0.0000 0.458280(16) 0.7500
O5_3 O 0.1080(5) 0.28640(13) 0.6207(3)
N6_3 N 0.2050(6) 0.26701(14) 0.5843(3)
N7_3 N 0.1151(5) 0.28509(13) 0.4348(3)
N8_2 N 0.3061(5) 0.24490(13) 0.4420(3)
O6_3 O 0.2990(5) 0.24929(13) 0.6262(3)
C5_3 C 0.2096(6) 0.26583(15) 0.4855(3)
C6_3 C 0.2723(7) 0.25195(17) 0.3537(4)
H3_3 H 0.3201 0.2415 0.3035
C7_3 C 0.1590(7) 0.27637(17) 0.3493(4)
H4_3 H 0.1176 0.2857 0.2957
N11_3 N 0.0132(6) 0.42540(12) 0.6141(3)
C9_3 C 0.0872(8) 0.43080(18) 0.5354(4)
H5_3 H 0.1412 0.4531 0.5212
C10_3 C 0.0697(8) 0.39832(17) 0.4807(4)
H6_3 H 0.1089 0.3953 0.4228
N13_3 N 0.2300(6) 0.53078(15) 0.6650(3)
C13_3 C 0.2569(6) 0.52273(15) 0.7590(4)
O9_3 O 0.3071(5) 0.55491(12) 0.6259(3)
N14_2 N 0.3531(5) 0.54129(13) 0.8070(3)
O10_3 O 0.1311(5) 0.51349(13) 0.6267(3)
C14_3 C 0.2436(8) 0.49483(18) 0.8871(4)
H9_3 H 0.2181 0.4786 0.9359
N16_3 N 0.1838(5) 0.49372(13) 0.8020(3)
C15_3 C 0.3470(7) 0.52350(17) 0.8897(4)
H10_3 H 0.4034 0.5296 0.9399
N24_2 N 0.1939(5) 0.25510(13) 0.9420(3)
N27_3 N 0.0128(5) 0.37133(13) 0.9771(3)
C20_3 C 0.0439(6) 0.38935(16) 0.8990(4)
O15_3 O 0.1634(5) 0.39035(13) 0.7642(3)
O16_3 O 0.1743(5) 0.33693(12) 0.8470(3)
N29_3 N 0.1328(6) 0.37103(15) 0.8324(3)
N22_2 N 0.8849(5) 0.28509(13) 0.0652(3)
C22_3 C 0.9303(8) 0.39832(17) 0.0193(4)
H14_3 H 0.8911 0.3953 0.0772
Cd2_5 Cd 1.0000 0.458280(16) 0.7500
N1_3 N 0.7700(6) 0.53078(15) 0.8350(3)
C1_3 C 0.7431(6) 0.52273(15) 0.7410(4)
O1_3 O 0.6929(5) 0.55491(12) 0.8741(3)
N2_3 N 0.6469(5) 0.54129(13) 0.6930(3)
O2_3 O 0.8689(5) 0.51349(13) 0.8733(3)
C2_3 C 0.7564(8) 0.49483(18) 0.6129(4)
H1_3 H 0.7819 0.4786 0.5641
N3_3 N 0.8162(5) 0.49372(13) 0.6980(3)
C3_3 C 0.6530(7) 0.52350(17) 0.6103(4)
H2_3 H 0.5966 0.5296 0.5601
N10_3 N 0.9872(5) 0.37133(13) 0.5229(3)
C8_3 C 0.9561(6) 0.38935(16) 0.6010(4)
O7_3 O 0.8366(5) 0.39035(13) 0.7358(3)
O8_3 O 0.8257(5) 0.33693(12) 0.6530(3)
N12_3 N 0.8672(6) 0.37103(15) 0.6676(3)
O13_3 O 0.6080(5) 0.21360(13) 0.3793(3)
N20_3 N 0.7050(6) 0.23299(14) 0.4157(3)
N21_2 N 0.6151(5) 0.21491(13) 0.5652(3)
N23_3 N 0.8061(5) 0.25510(13) 0.5580(3)
O14_3 O 0.7990(5) 0.25071(13) 0.3738(3)
C17_3 C 0.7096(6) 0.23417(15) 0.5145(3)
C18_3 C 0.7723(7) 0.24805(17) 0.6463(4)
H11_3 H 0.8201 0.2585 0.6965
C19_3 C 0.6590(7) 0.22363(17) 0.6507(4)
H12_3 H 0.6176 0.2143 0.7043
N28_3 N 0.9868(6) 0.42540(12) 0.8859(3)
C21_3 C 0.9128(8) 0.43080(18) 0.9646(4)
H13_3 H 0.8588 0.4531 0.9788
N15_2 N 0.1469(5) 0.95871(13) 0.3070(3)
Cd2_6 Cd 0.5000 0.041720(16) 0.2500
C2_4 C 0.7436(8) 0.00517(18) 0.1129(4)
H1_4 H 0.7181 0.0214 0.0641
N3_4 N 0.6838(5) 0.00628(13) 0.1980(3)
O5_4 O 0.3920(5) 0.21360(13) 0.1207(3)
N6_4 N 0.2950(6) 0.23299(14) 0.0843(3)
N10_4 N 0.5128(5) 0.12867(13) 0.0229(3)
O6_4 O 0.2010(5) 0.25071(13) 0.1262(3)
N11_4 N 0.4868(6) 0.07460(12) 0.1141(3)
C8_4 C 0.5439(6) 0.11065(16) 0.1010(4)
C9_4 C 0.4128(8) 0.06920(18) 0.0354(4)
H5_4 H 0.3588 0.0469 0.0212
O7_4 O 0.6634(5) 0.10965(13) 0.2358(3)
O8_4 O 0.6743(5) 0.16307(12) 0.1530(3)
N12_4 N 0.6328(6) 0.12897(15) 0.1676(3)
C14_4 C 0.2564(8) 0.00517(18) 0.3871(4)
H9_4 H 0.2819 0.0214 0.4359
N16_4 N 0.3162(5) 0.00628(13) 0.3020(3)
N23_4 N 0.6939(5) 0.24490(13) 0.0580(3)
N27_4 N 0.4872(5) 0.12867(13) 0.4771(3)
C17_4 C 0.7904(6) 0.26583(15) 0.0145(3)
C18_4 C 0.7277(7) 0.25195(17) 0.1463(4)
H11_4 H 0.6799 0.2415 0.1965
C19_4 C 0.8410(7) 0.27637(17) 0.1507(4)
H12_4 H 0.8824 0.2857 0.2043
N28_4 N 0.5132(6) 0.07460(12) 0.3859(3)
C20_4 C 0.4561(6) 0.11065(16) 0.3990(4)
C21_4 C 0.5872(8) 0.06920(18) 0.4646(4)
H13_4 H 0.6412 0.0469 0.4788
C22_4 C 0.5697(8) 0.10168(17) 0.5193(4)
H14_4 H 0.6089 0.1047 0.5772
O15_4 O 0.3366(5) 0.10965(13) 0.2642(3)
O16_4 O 0.3257(5) 0.16307(12) 0.3470(3)
N29_4 N 0.3672(6) 0.12897(15) 0.3324(3)
N7_4 N 0.3849(5) 0.21491(13) 0.9348(3)
C5_4 C 0.2904(6) 0.23417(15) 0.9855(3)
C6_4 C 0.2277(7) 0.24805(17) 0.8537(4)
H3_4 H 0.1799 0.2585 0.8035
C7_4 C 0.3410(7) 0.22363(17) 0.8493(4)
H4_4 H 0.3824 0.2143 0.7957
C10_4 C 0.4303(8) 0.10168(17) 0.9807(4)
H6_4 H 0.3911 0.1047 0.9228
O13_4 O 0.8920(5) 0.28640(13) 0.8793(3)
N20_4 N 0.7950(6) 0.26701(14) 0.9157(3)
O14_4 O 0.7010(5) 0.24929(13) 0.8738(3)
N1_4 N 0.7300(6) 0.96922(15) 0.3350(3)
C1_4 C 0.7569(6) 0.97727(15) 0.2410(4)
O1_4 O 0.8071(5) 0.94509(12) 0.3741(3)
N2_4 N 0.8531(5) 0.95871(13) 0.1930(3)
O2_4 O 0.6311(5) 0.98651(13) 0.3733(3)
C3_4 C 0.8470(7) 0.97650(17) 0.1103(4)
H2_4 H 0.9034 0.9704 0.0601
N13_4 N 0.2700(6) 0.96922(15) 0.1650(3)
C13_4 C 0.2431(6) 0.97727(15) 0.2590(4)
O9_4 O 0.1929(5) 0.94509(12) 0.1259(3)
O10_4 O 0.3689(5) 0.98651(13) 0.1267(3)
C15_4 C 0.1530(7) 0.97650(17) 0.3897(4)
H10_4 H 0.0966 0.9704 0.4399
loop_
_geom_bond_atom_site_label_1
_geom_bond_atom_site_label_2
_geom_bond_site_symmetry_1
_geom_bond_site_symmetry_2
Cd2 N3 1_555 1_555
Cd3 N2 1_555 1_555
N1 C1 1_555 1_555
C1 N2 1_555 1_555
O1 N1 1_555 1_555
N2 C3 1_555 1_555
O2 N1 1_555 1_555
C2 H1 1_555 1_555
N3 C1 1_555 1_555
C3 C2 1_555 1_555
H2 C3 1_555 1_555
O3 N5 1_555 1_555
O4 N5 1_555 1_555
N4 C4 1_555 1_555
N5 C4 1_555 1_555
C4 N9 1_555 1_555
N9 Cd1 1_555 1_555
N10 Cd1 1_555 1_555
C8 N10 1_555 1_555
O7 N12 1_555 1_555
O8 N12 1_555 1_555
N12 C8 1_555 1_555
C11 N9 1_555 1_555
H7 C11 1_555 1_555
C12 N4 1_555 1_555
H8 C12 1_555 1_555
Cd6 N21 1_555 1_555
Cd7 N25 1_555 1_555
Cd8 N4 1_555 1_555
N15 Cd3 1_555 1_555
O11 N19 1_555 1_555
O12 N19 1_555 1_555
N17 Cd3 1_555 1_555
N18 Cd3 1_555 1_555
N19 C16 1_555 1_555
C16 N17 1_555 1_555
O13 N20 1_555 1_555
N20 O14 1_555 1_555
N21 C17 1_555 1_555
N23 Cd1 1_555 1_555
N25 C16 1_555 1_555
C17 N20 1_555 1_555
C18 N23 1_555 1_555
H11 C18 1_555 1_555
C19 N21 1_555 1_555
H12 C19 1_555 1_555
N28 Cd2 1_555 1_555
C21 N28 1_555 1_555
H13 C21 1_555 1_555
C23 N25 1_555 1_555
C24 N17 1_555 1_555
H16 C24 1_555 1_555
C2 N3 1_555 1_555
C11 C12 1_555 1_555
N23 C17 1_555 1_555
C18 C19 1_555 1_555
C23 C24 1_555 1_555
H14 C22 1_555 1_555
O5 N6 1_555 1_555
N6 O6 1_555 1_555
N7 C5 1_555 1_555
N8 C5 1_555 1_555
C5 N6 1_555 1_555
C6 N8 1_555 1_555
H3 C6 1_555 1_555
C7 N7 1_555 1_555
H4 C7 1_555 1_555
N11 Cd2_2 1_555 1_555
C9 N11 1_555 1_555
H5 C9 1_555 1_555
H6 C10 1_555 1_555
Cd6 N8 1_555 1_555
N13 C13 1_555 1_555
C13 N15 1_555 1_555
O9 N13 1_555 1_555
N15 C15 1_555 1_555
O10 N13 1_555 1_555
C14 H9 1_555 1_555
N16 Cd2_2 1_555 1_555
C15 C14 1_555 1_555
H10 C15 1_555 1_555
C20 N27 1_555 1_555
O15 N29 1_555 1_555
O16 N29 1_555 1_555
N29 C20 1_555 1_555
C6 C7 1_555 1_555
C9 C10 1_555 1_555
C13 N16 1_555 1_555
C14 N16 1_555 1_555
N26 Cd4 1_555 1_555
Cd9 N2_2 1_555 1_555
N1_2 C1_2 1_555 1_555
C1_2 N2_2 1_555 1_555
O1_2 N1_2 1_555 1_555
N2_2 C3_2 1_555 1_555
O2_2 N1_2 1_555 1_555
H2_2 C3_2 1_555 1_555
Cd7_2 N25_2 1_555 1_555
Cd9_2 N14 1_555 1_555
N13_2 C13_2 1_555 1_555
C13_2 N14 1_555 1_555
O9_2 N13_2 1_555 1_555
N14 C15_2 1_555 1_555
O10_2 N13_2 1_555 1_555
H10_2 C15_2 1_555 1_555
O11_2 N19_2 1_555 1_555
O12_2 N19_2 1_555 1_555
N17_2 Cd9 1_555 1_555
N19_2 C16_2 1_555 1_555
C16_2 N17_2 1_555 1_555
N25_2 C16_2 1_555 1_555
C23_2 N25_2 1_555 1_555
H15_2 C23_2 1_555 1_555
Cd1_2 N7_2 1_555 1_555
O3_2 N5_2 1_555 1_555
O4_2 N5_2 1_555 1_555
N4_2 C4_2 1_555 1_555
N5_2 C4_2 1_555 1_555
C4_2 N9_2 1_555 1_555
N7_2 C5_2 1_555 1_555
N24 C5_2 1_555 1_555
N9_2 Cd1_2 1_555 1_555
C6_2 N24 1_555 1_555
H3_2 C6_2 1_555 1_555
C7_2 N7_2 1_555 1_555
H4_2 C7_2 1_555 1_555
H6_2 C10_2 1_555 1_555
C11_2 N9_2 1_555 1_555
Cd8_2 N4_2 1_555 1_555
O13_2 N20_2 1_555 1_555
N20_2 O14_2 1_555 1_555
C6_2 C7_2 1_555 1_555
Cd2_3 N3_2 1_555 1_555
C2_2 H1_2 1_555 1_555
O5_2 N6_2 1_555 1_555
N6_2 O6_2 1_555 1_555
N11_2 Cd2_3 1_555 1_555
C8_2 N10_2 1_555 1_555
C9_2 N11_2 1_555 1_555
H5_2 C9_2 1_555 1_555
O7_2 N12_2 1_555 1_555
O8_2 N12_2 1_555 1_555
N12_2 C8_2 1_555 1_555
C14_2 H9_2 1_555 1_555
N16_2 Cd2_3 1_555 1_555
N22 C17_2 1_555 1_555
N26_2 Cd6 1_555 1_555
N27_2 Cd6 1_555 1_555
C18_2 N23_2 1_555 1_555
H11_2 C18_2 1_555 1_555
C19_2 N22 1_555 1_555
H12_2 C19_2 1_555 1_555
N28_2 Cd2_3 1_555 1_555
C20_2 N27_2 1_555 1_555
C21_2 N28_2 1_555 1_555
H13_2 C21_2 1_555 1_555
C22_2 N27_2 1_555 1_555
H14_2 C22_2 1_555 1_555
O15_2 N29_2 1_555 1_555
O16_2 N29_2 1_555 1_555
N29_2 C20_2 1_555 1_555
C2_2 N3_2 1_555 1_555
N11_2 C8_2 1_555 1_555
C14_2 N16_2 1_555 1_555
N23_2 C17_2 1_555 1_555
C18_2 C19_2 1_555 1_555
N28_2 C20_2 1_555 1_555
C21_2 C22_2 1_555 1_555
N18_2 Cd9_2 1_555 1_555
H16_2 C24_2 1_555 1_555
H8_2 C12_2 1_555 1_555
Cd7_3 N25_3 1_555 1_555
O11_3 N19_3 1_555 1_555
O12_3 N19_3 1_555 1_555
N19_3 C16_3 1_555 1_555
C16_3 N18 1_555 1_555
N25_3 C16_3 1_555 1_555
C23_3 N25_3 1_555 1_555
H15_3 C23_3 1_555 1_555
C24_3 N18 1_555 1_555
H16_3 C24_3 1_555 1_555
C23_3 C24_3 1_555 1_555
O3_3 N5_3 1_555 1_555
O4_3 N5_3 1_555 1_555
N4_3 C4_3 1_555 1_555
N5_3 C4_3 1_555 1_555
C4_3 N26 1_555 1_555
C11_3 N26 1_555 1_555
C12_3 N4_3 1_555 1_555
H8_3 C12_3 1_555 1_555
Cd8 N4_3 1_555 1_555
C11_3 C12_3 1_555 1_555
H16_4 C24_4 1_555 1_555
H8_4 C12_4 1_555 1_555
Cd7_4 N25_4 1_555 1_555
O11_4 N19_4 1_555 1_555
O12_4 N19_4 1_555 1_555
N19_4 C16_4 1_555 1_555
C16_4 N18_2 1_555 1_555
N25_4 C16_4 1_555 1_555
C23_4 N25_4 1_555 1_555
O3_4 N5_4 1_555 1_555
O4_4 N5_4 1_555 1_555
N4_4 C4_4 1_555 1_555
N5_4 C4_4 1_555 1_555
C4_4 N26_2 1_555 1_555
C11_4 N26_2 1_555 1_555
H7_4 C11_4 1_555 1_555
Cd8_3 N4_4 1_555 1_555
O5_3 N6_3 1_555 1_555
N6_3 O6_3 1_555 1_555
N7_3 C5_3 1_555 1_555
N8_2 C5_3 1_555 1_555
C5_3 N6_3 1_555 1_555
C6_3 N8_2 1_555 1_555
H3_3 C6_3 1_555 1_555
C7_3 N7_3 1_555 1_555
H4_3 C7_3 1_555 1_555
N11_3 Cd2_4 1_555 1_555
C9_3 N11_3 1_555 1_555
H5_3 C9_3 1_555 1_555
H6_3 C10_3 1_555 1_555
Cd7_2 N8_2 1_555 1_555
Cd8 N14_2 1_555 1_555
N13_3 C13_3 1_555 1_555
C13_3 N14_2 1_555 1_555
O9_3 N13_3 1_555 1_555
N14_2 C15_3 1_555 1_555
O10_3 N13_3 1_555 1_555
C14_3 H9_3 1_555 1_555
N16_3 Cd2_4 1_555 1_555
C15_3 C14_3 1_555 1_555
H10_3 C15_3 1_555 1_555
C20_3 N27_3 1_555 1_555
O15_3 N29_3 1_555 1_555
O16_3 N29_3 1_555 1_555
N29_3 C20_3 1_555 1_555
C6_3 C7_3 1_555 1_555
C9_3 C10_3 1_555 1_555
C13_3 N16_3 1_555 1_555
C14_3 N16_3 1_555 1_555
H14_3 C22_3 1_555 1_555
Cd2_5 N3_3 1_555 1_555
Cd8 N2_3 1_555 1_555
N1_3 C1_3 1_555 1_555
C1_3 N2_3 1_555 1_555
O1_3 N1_3 1_555 1_555
N2_3 C3_3 1_555 1_555
O2_3 N1_3 1_555 1_555
C2_3 H1_3 1_555 1_555
N3_3 C1_3 1_555 1_555
C3_3 C2_3 1_555 1_555
H2_3 C3_3 1_555 1_555
N10_3 Cd7_3 1_555 1_555
C8_3 N10_3 1_555 1_555
O7_3 N12_3 1_555 1_555
O8_3 N12_3 1_555 1_555
N12_3 C8_3 1_555 1_555
Cd7_2 N21_2 1_555 1_555
O13_3 N20_3 1_555 1_555
N20_3 O14_3 1_555 1_555
N21_2 C17_3 1_555 1_555
N23_3 Cd7_3 1_555 1_555
C17_3 N20_3 1_555 1_555
C18_3 N23_3 1_555 1_555
H11_3 C18_3 1_555 1_555
C19_3 N21_2 1_555 1_555
H12_3 C19_3 1_555 1_555
N28_3 Cd2_5 1_555 1_555
C21_3 N28_3 1_555 1_555
H13_3 C21_3 1_555 1_555
C2_3 N3_3 1_555 1_555
N23_3 C17_3 1_555 1_555
C18_3 C19_3 1_555 1_555
N15_2 Cd8_2 1_555 1_555
Cd2_6 N3_4 1_555 1_555
C2_4 H1_4 1_555 1_555
O5_4 N6_4 1_555 1_555
N6_4 O6_4 1_555 1_555
N11_4 Cd2_6 1_555 1_555
C8_4 N10_4 1_555 1_555
C9_4 N11_4 1_555 1_555
H5_4 C9_4 1_555 1_555
O7_4 N12_4 1_555 1_555
O8_4 N12_4 1_555 1_555
N12_4 C8_4 1_555 1_555
C14_4 H9_4 1_555 1_555
N16_4 Cd2_6 1_555 1_555
N22_2 C17_4 1_555 1_555
N27_4 Cd7_2 1_555 1_555
C18_4 N23_4 1_555 1_555
H11_4 C18_4 1_555 1_555
C19_4 N22_2 1_555 1_555
H12_4 C19_4 1_555 1_555
N28_4 Cd2_6 1_555 1_555
C20_4 N27_4 1_555 1_555
C21_4 N28_4 1_555 1_555
H13_4 C21_4 1_555 1_555
C22_4 N27_4 1_555 1_555
H14_4 C22_4 1_555 1_555
O15_4 N29_4 1_555 1_555
O16_4 N29_4 1_555 1_555
N29_4 C20_4 1_555 1_555
C2_4 N3_4 1_555 1_555
N11_4 C8_4 1_555 1_555
C14_4 N16_4 1_555 1_555
N23_4 C17_4 1_555 1_555
C18_4 C19_4 1_555 1_555
N28_4 C20_4 1_555 1_555
C21_4 C22_4 1_555 1_555
Cd7_4 N7_4 1_555 1_555
N7_4 C5_4 1_555 1_555
N24_2 C5_4 1_555 1_555
C6_4 N24_2 1_555 1_555
H3_4 C6_4 1_555 1_555
C7_4 N7_4 1_555 1_555
H4_4 C7_4 1_555 1_555
H6_4 C10_4 1_555 1_555
O13_4 N20_4 1_555 1_555
N20_4 O14_4 1_555 1_555
C6_4 C7_4 1_555 1_555
Cd8_3 N2_4 1_555 1_555
N1_4 C1_4 1_555 1_555
C1_4 N2_4 1_555 1_555
O1_4 N1_4 1_555 1_555
N2_4 C3_4 1_555 1_555
O2_4 N1_4 1_555 1_555
H2_4 C3_4 1_555 1_555
N13_4 C13_4 1_555 1_555
C13_4 N15_2 1_555 1_555
O9_4 N13_4 1_555 1_555
N15_2 C15_4 1_555 1_555
O10_4 N13_4 1_555 1_555
H10_4 C15_4 1_555 1_555

#END
