
###############################################################################
#
# This file contains modified crystal structure data generated from the
# MOF subset of the Cambridge Structural Database (CSD) v543 
# hosted by the Cambridge Crystallographic Data Centre (CCDC).
#
# This work is licensed under the Creative Commons
# Attribution-NonCommercial-ShareAlike 4.0 International License.
# To view a copy of this license, visit
# http://creativecommons.org/licenses/by-nc-sa/4.0/
# or send a letter to
# Creative Commons, PO Box 1866, Mountain View, CA 94042, USA.
#
# CIF created using the CSD Python API on 29 September 2022
# The structure has been converted into the P1 space group
# The structure has a 3D framework
# The original CSD entry PUWVAG is in the orthorhombic crystal system
# The framework has been calculated to contain at least 10.0% void space
# The void calculation uses a probe of radius 1.32A, grid spacing 0.4
#
###############################################################################

data_PUWVAG
_chemical_formula_moiety         '(C132 H84 N36 O36 Zn8)n'
_symmetry_cell_setting           triclinic
_symmetry_space_group_name_H-M   'P 1'
_symmetry_Int_Tables_number      1
_space_group_name_Hall           'P 1'
loop_
_symmetry_equiv_pos_site_id
_symmetry_equiv_pos_as_xyz
1 x,y,z
_cell_length_a                   15.673(3)
_cell_length_b                   13.787(4)
_cell_length_c                   18.331(4)
_cell_angle_alpha                90
_cell_angle_beta                 90
_cell_angle_gamma                90
_cell_volume                     3961.03
loop_
_atom_site_label
_atom_site_type_symbol
_atom_site_fract_x
_atom_site_fract_y
_atom_site_fract_z
Zn1 Zn 0.32777(3) 0.7500 0.64298(2)
Zn2 Zn 0.24157(3) 0.7500 0.13385(3)
O1 O 0.2006(2) 0.7500 0.63975(16)
O2 O 0.1968(2) 0.7500 0.51880(17)
O7 O 0.1154(2) 0.7500 0.11656(19)
O8 O 0.1228(3) 0.7500 0.2379(2)
N1 N 0.0806(4) 0.7500 0.1804(4)
N2 N 0.37085(16) 0.50850(18) 0.51263(13)
N3 N 0.36379(17) 0.62661(19) 0.59251(14)
N4 N 0.31423(18) 0.50716(18) 0.25276(14)
N5 N 0.27542(18) 0.62254(19) 0.17723(14)
C1 C 0.0652(3) 0.7500 0.5844(2)
C2 C 0.0145(3) 0.7500 0.5225(2)
H1 H 0.0403 0.7500 0.4756
C6 C 0.0268(3) 0.7500 0.6523(2)
H3 H 0.0614 0.7500 0.6948
C7 C 0.1615(3) 0.7500 0.5790(2)
C10 C 0.34918(18) 0.3037(2) 0.38244(15)
C11 C 0.36118(18) 0.3559(2) 0.44723(16)
H4 H 0.3717 0.3226 0.4917
C12 C 0.35760(19) 0.4561(2) 0.44619(16)
C13 C 0.3431(2) 0.5080(2) 0.38268(16)
H5 H 0.3421 0.5769 0.3828
C14 C 0.3301(2) 0.4558(2) 0.31900(16)
C15 C 0.33317(19) 0.3558(2) 0.31821(16)
H6 H 0.3243 0.3219 0.2737
C16 C 0.3347(2) 0.5944(2) 0.52998(17)
H7 H 0.2937 0.6271 0.5008
C17 C 0.4204(2) 0.5586(2) 0.61724(18)
H8 H 0.4515 0.5624 0.6616
C18 C 0.4252(2) 0.4853(2) 0.56875(18)
H9 H 0.4594 0.4286 0.5726
C19 C 0.2787(2) 0.5957(2) 0.24608(17)
H10 H 0.2586 0.6336 0.2858
C20 C 0.3100(3) 0.5475(3) 0.13752(19)
H11 H 0.3162 0.5464 0.0860
C21 C 0.3334(3) 0.4761(3) 0.18321(19)
H12 H 0.3584 0.4158 0.1701
C22 C 0.34918(18) 0.1963(2) 0.38244(15)
C23 C 0.36118(18) 0.1441(2) 0.44723(16)
H13 H 0.3717 0.1774 0.4917
C24 C 0.35760(19) 0.0439(2) 0.44619(16)
C26 C 0.3301(2) 0.0442(2) 0.31900(16)
C27 C 0.33317(19) 0.1442(2) 0.31821(16)
H15 H 0.3243 0.1781 0.2737
C30 C 0.4252(2) 0.0147(2) 0.56875(18)
H18 H 0.4594 0.0714 0.5726
C33 C 0.3334(3) 0.0239(3) 0.18321(19)
H21 H 0.3584 0.0842 0.1701
O10 O 0.2922(2) 0.7500 0.03439(16)
O11 O 0.3254(2) 0.7500 0.75399(18)
O12 O 0.4548(2) 0.7500 0.71129(18)
N10 N 0.36379(17) 0.87339(19) 0.59251(14)
N11 N 0.27542(18) 0.87746(19) 0.17723(14)
N6 N 0.37085(16) 0.99150(18) 0.51263(13)
N8 N 0.31423(18) 0.99284(18) 0.25276(14)
C25 C 0.3431(2) 0.9920(2) 0.38268(16)
H14 H 0.3421 0.9231 0.3828
C28 C 0.3347(2) 0.9056(2) 0.52998(17)
H16 H 0.2937 0.8729 0.5008
C29 C 0.4204(2) 0.9414(2) 0.61724(18)
H17 H 0.4515 0.9376 0.6616
C31 C 0.2787(2) 0.9043(2) 0.24608(17)
H19 H 0.2586 0.8664 0.2858
C32 C 0.3100(3) 0.9525(3) 0.13752(19)
H20 H 0.3162 0.9536 0.0860
O3 O 0.7922(2) 0.7500 0.46561(16)
O4 O 0.9110(2) 0.7500 0.40004(17)
O5 O 0.8254(2) 0.7500 0.74601(18)
O6 O 0.9548(2) 0.7500 0.78871(18)
O9 O 0.9819(5) 0.7500 0.1831(6)
C3 C 0.9264(3) 0.7500 0.5286(2)
C4 C 0.8885(3) 0.7500 0.5978(2)
H2 H 0.8281 0.7500 0.6024
C5 C 0.9395(3) 0.7500 0.6596(2)
C8 C 0.8741(3) 0.7500 0.4590(2)
C9 C 0.9047(3) 0.7500 0.7360(2)
Zn4 Zn 0.82777(3) 0.7500 0.85702(2)
Zn6 Zn 0.74157(3) 0.7500 0.36615(3)
C10_2 C 0.84918(18) 0.1963(2) 0.11756(15)
C11_2 C 0.86118(18) 0.1441(2) 0.05277(16)
H4_2 H 0.8717 0.1774 0.0083
C12_2 C 0.85760(19) 0.0439(2) 0.05381(16)
C14_2 C 0.8301(2) 0.0442(2) 0.18100(16)
C15_2 C 0.83317(19) 0.1442(2) 0.18179(16)
H6_2 H 0.8243 0.1781 0.2263
C21_2 C 0.8334(3) 0.0239(3) 0.31679(19)
H12_2 H 0.8584 0.0842 0.3299
N8_2 N 0.81423(18) 0.50716(18) 0.24724(14)
N9 N 0.77542(18) 0.62254(19) 0.32277(14)
C22_2 C 0.84918(18) 0.3037(2) 0.11756(15)
C23_2 C 0.86118(18) 0.3559(2) 0.05277(16)
H13_2 H 0.8717 0.3226 0.0083
C24_2 C 0.85760(19) 0.4561(2) 0.05381(16)
C25_2 C 0.8431(2) 0.5080(2) 0.11732(16)
H14_2 H 0.8421 0.5769 0.1172
C26_2 C 0.8301(2) 0.4558(2) 0.18100(16)
C27_2 C 0.83317(19) 0.3558(2) 0.18179(16)
H15_2 H 0.8243 0.3219 0.2263
C31_2 C 0.7787(2) 0.5957(2) 0.25392(17)
H19_2 H 0.7586 0.6336 0.2142
C32_2 C 0.8100(3) 0.5475(3) 0.36248(19)
H20_2 H 0.8162 0.5464 0.4140
C33_2 C 0.8334(3) 0.4761(3) 0.31679(19)
H21_2 H 0.8584 0.4158 0.3299
C18_2 C 0.9252(2) 0.0147(2) 0.93125(18)
H9_2 H 0.9594 0.0714 0.9274
N6_2 N 0.87085(16) 0.50850(18) 0.98737(13)
N7 N 0.86379(17) 0.62661(19) 0.90749(14)
C28_2 C 0.8347(2) 0.5944(2) 0.97002(17)
H16_2 H 0.7937 0.6271 0.9992
C29_2 C 0.9204(2) 0.5586(2) 0.88276(18)
H17_2 H 0.9515 0.5624 0.8384
C30_2 C 0.9252(2) 0.4853(2) 0.93125(18)
H18_2 H 0.9594 0.4286 0.9274
O4_2 O 0.4110(2) 0.7500 0.09996(17)
O7_2 O 0.6154(2) 0.7500 0.38344(19)
O8_2 O 0.6228(3) 0.7500 0.2621(2)
O9_2 O 0.4819(5) 0.7500 0.3169(6)
N1_2 N 0.5806(4) 0.7500 0.3196(4)
N4_2 N 0.81423(18) 0.99284(18) 0.24724(14)
N5_2 N 0.77542(18) 0.87746(19) 0.32277(14)
H1_2 H 0.5403 0.7500 0.0244
C8_2 C 0.3741(3) 0.7500 0.0410(2)
C13_2 C 0.8431(2) 0.9920(2) 0.11732(16)
H5_2 H 0.8421 0.9231 0.1172
C19_2 C 0.7787(2) 0.9043(2) 0.25392(17)
H10_2 H 0.7586 0.8664 0.2142
C20_2 C 0.8100(3) 0.9525(3) 0.36248(19)
H11_2 H 0.8162 0.9536 0.4140
O1_2 O 0.7006(2) 0.7500 0.86025(16)
O2_2 O 0.6968(2) 0.7500 0.98120(17)
N2_2 N 0.87085(16) 0.99150(18) 0.98737(13)
N3_2 N 0.86379(17) 0.87339(19) 0.90749(14)
C1_2 C 0.5652(3) 0.7500 0.9156(2)
C2_2 C 0.5145(3) 0.7500 0.9775(2)
C3_2 C 0.4264(3) 0.7500 0.9714(2)
C4_2 C 0.3885(3) 0.7500 0.9022(2)
H2_2 H 0.3281 0.7500 0.8976
C5_2 C 0.4395(3) 0.7500 0.8404(2)
C6_2 C 0.5268(3) 0.7500 0.8477(2)
H3_2 H 0.5614 0.7500 0.8052
C7_2 C 0.6615(3) 0.7500 0.9210(2)
C9_2 C 0.4047(3) 0.7500 0.7640(2)
C16_2 C 0.8347(2) 0.9056(2) 0.97002(17)
H7_2 H 0.7937 0.8729 0.9992
C17_2 C 0.9204(2) 0.9414(2) 0.88276(18)
H8_2 H 0.9515 0.9376 0.8384
N6_3 N 0.12915(16) 0.00850(18) 0.01263(13)
N7_2 N 0.13621(17) 0.12661(19) 0.09251(14)
C28_3 C 0.1653(2) 0.0944(2) 0.02998(17)
H16_3 H 0.2063 0.1271 0.0008
C29_3 C 0.0796(2) 0.0586(2) 0.11724(18)
H17_3 H 0.0485 0.0624 0.1616
Zn3 Zn 0.17223(3) 0.2500 0.14298(2)
N8_3 N 0.18577(18) 0.00716(18) 0.75276(14)
N9_2 N 0.22458(18) 0.12254(19) 0.67723(14)
C25_3 C 0.1569(2) 0.0080(2) 0.88268(16)
H14_3 H 0.1579 0.0769 0.8828
C31_3 C 0.2213(2) 0.0957(2) 0.74608(17)
H19_3 H 0.2414 0.1336 0.7858
C32_3 C 0.1900(3) 0.0475(3) 0.63752(19)
H20_3 H 0.1838 0.0464 0.5860
Zn5 Zn 0.25843(3) 0.2500 0.63385(3)
O1_3 O 0.2994(2) 0.2500 0.13975(16)
O2_3 O 0.3032(2) 0.2500 0.01880(17)
O5_2 O 0.6746(2) 0.2500 0.24601(18)
O6_2 O 0.5452(2) 0.2500 0.28871(18)
N2_3 N 0.12915(16) 0.49150(18) 0.01263(13)
N3_3 N 0.13621(17) 0.37339(19) 0.09251(14)
C1_3 C 0.4348(3) 0.2500 0.0844(2)
C2_3 C 0.4855(3) 0.2500 0.0225(2)
C3_3 C 0.5736(3) 0.2500 0.0286(2)
C4_3 C 0.6115(3) 0.2500 0.0978(2)
H2_3 H 0.6719 0.2500 0.1024
C5_3 C 0.5605(3) 0.2500 0.1596(2)
C6_3 C 0.4732(3) 0.2500 0.1523(2)
H3_3 H 0.4386 0.2500 0.1948
C7_3 C 0.3385(3) 0.2500 0.0790(2)
C9_3 C 0.5953(3) 0.2500 0.2360(2)
C16_3 C 0.1653(2) 0.4056(2) 0.02998(17)
H7_3 H 0.2063 0.3729 0.0008
C17_3 C 0.0796(2) 0.4414(2) 0.11724(18)
H8_3 H 0.0485 0.4376 0.1616
C18_3 C 0.0748(2) 0.5147(2) 0.06875(18)
H9_3 H 0.0406 0.5714 0.0726
C30_3 C 0.0748(2) 0.9853(2) 0.06875(18)
H18_3 H 0.0406 0.9286 0.0726
Zn4_2 Zn 0.67223(3) 0.2500 0.35702(2)
O11_2 O 0.1746(2) 0.2500 0.25399(18)
O12_2 O 0.0452(2) 0.2500 0.21129(18)
O3_2 O 0.7078(2) 0.2500 0.96561(16)
O4_3 O 0.5890(2) 0.2500 0.90004(17)
O7_3 O 0.3846(2) 0.2500 0.61656(19)
O8_3 O 0.3772(3) 0.2500 0.7379(2)
O9_3 O 0.5181(5) 0.2500 0.6831(6)
N1_3 N 0.4194(4) 0.2500 0.6804(4)
N4_3 N 0.18577(18) 0.49284(18) 0.75276(14)
N5_3 N 0.22458(18) 0.37746(19) 0.67723(14)
H1_3 H 0.4597 0.2500 0.9756
C8_3 C 0.6259(3) 0.2500 0.9590(2)
C10_3 C 0.15082(18) 0.6963(2) 0.88244(15)
C11_3 C 0.13882(18) 0.6441(2) 0.94723(16)
H4_3 H 0.1283 0.6774 0.9917
C12_3 C 0.14240(19) 0.5439(2) 0.94619(16)
C13_3 C 0.1569(2) 0.4920(2) 0.88268(16)
H5_3 H 0.1579 0.4231 0.8828
C14_3 C 0.1699(2) 0.5442(2) 0.81900(16)
C15_3 C 0.16683(19) 0.6442(2) 0.81821(16)
H6_3 H 0.1757 0.6781 0.7737
C19_3 C 0.2213(2) 0.4043(2) 0.74608(17)
H10_3 H 0.2414 0.3664 0.7858
C20_3 C 0.1900(3) 0.4525(3) 0.63752(19)
H11_3 H 0.1838 0.4536 0.5860
C21_3 C 0.1666(3) 0.5239(3) 0.68321(19)
H12_3 H 0.1416 0.5842 0.6701
C22_3 C 0.15082(18) 0.8037(2) 0.88244(15)
C23_3 C 0.13882(18) 0.8559(2) 0.94723(16)
H13_3 H 0.1283 0.8226 0.9917
C24_3 C 0.14240(19) 0.9561(2) 0.94619(16)
C26_3 C 0.1699(2) 0.9558(2) 0.81900(16)
C27_3 C 0.16683(19) 0.8558(2) 0.81821(16)
H15_3 H 0.1757 0.8219 0.7737
C33_3 C 0.1666(3) 0.9761(3) 0.68321(19)
H21_3 H 0.1416 0.9158 0.6701
Zn6_2 Zn 0.75843(3) 0.2500 0.86615(3)
O10_2 O 0.2078(2) 0.2500 0.53439(16)
O4_4 O 0.0890(2) 0.2500 0.59996(17)
O9_4 O 0.0181(5) 0.2500 0.8169(6)
C3_4 C 0.0736(3) 0.2500 0.4714(2)
C4_4 C 0.1115(3) 0.2500 0.4022(2)
H2_4 H 0.1719 0.2500 0.3976
C5_4 C 0.0605(3) 0.2500 0.3404(2)
C8_4 C 0.1259(3) 0.2500 0.5410(2)
C9_4 C 0.0953(3) 0.2500 0.2640(2)
O1_4 O 0.7994(2) 0.2500 0.36025(16)
O2_4 O 0.8032(2) 0.2500 0.48120(17)
O7_4 O 0.8846(2) 0.2500 0.88344(19)
O8_4 O 0.8772(3) 0.2500 0.7621(2)
N1_4 N 0.9194(4) 0.2500 0.8196(4)
N2_4 N 0.62915(16) 0.00850(18) 0.48737(13)
N3_4 N 0.63621(17) 0.12661(19) 0.40749(14)
N4_4 N 0.68577(18) 0.00716(18) 0.74724(14)
N5_4 N 0.72458(18) 0.12254(19) 0.82277(14)
C1_4 C 0.9348(3) 0.2500 0.4156(2)
C2_4 C 0.9855(3) 0.2500 0.4775(2)
H1_4 H 0.9597 0.2500 0.5244
C6_4 C 0.9732(3) 0.2500 0.3477(2)
H3_4 H 0.9386 0.2500 0.3052
C7_4 C 0.8385(3) 0.2500 0.4210(2)
C13_4 C 0.6569(2) 0.0080(2) 0.61732(16)
H5_4 H 0.6579 0.0769 0.6172
C16_4 C 0.6653(2) 0.0944(2) 0.47002(17)
H7_4 H 0.7063 0.1271 0.4992
C17_4 C 0.5796(2) 0.0586(2) 0.38276(18)
H8_4 H 0.5485 0.0624 0.3384
C19_4 C 0.7213(2) 0.0957(2) 0.75392(17)
H10_4 H 0.7414 0.1336 0.7142
C20_4 C 0.6900(3) 0.0475(3) 0.86248(19)
H11_4 H 0.6838 0.0464 0.9140
N10_2 N 0.63621(17) 0.37339(19) 0.40749(14)
N11_2 N 0.72458(18) 0.37746(19) 0.82277(14)
C10_4 C 0.65082(18) 0.8037(2) 0.61756(15)
C11_4 C 0.63882(18) 0.8559(2) 0.55277(16)
H4_4 H 0.6283 0.8226 0.5083
C12_4 C 0.64240(19) 0.9561(2) 0.55381(16)
C14_4 C 0.6699(2) 0.9558(2) 0.68100(16)
C15_4 C 0.66683(19) 0.8558(2) 0.68179(16)
H6_4 H 0.6757 0.8219 0.7263
C18_4 C 0.5748(2) 0.9853(2) 0.43125(18)
H9_4 H 0.5406 0.9286 0.4274
C21_4 C 0.6666(3) 0.9761(3) 0.81679(19)
H12_4 H 0.6416 0.9158 0.8299
N6_4 N 0.62915(16) 0.49150(18) 0.48737(13)
N8_4 N 0.68577(18) 0.49284(18) 0.74724(14)
C22_4 C 0.65082(18) 0.6963(2) 0.61756(15)
C23_4 C 0.63882(18) 0.6441(2) 0.55277(16)
H13_4 H 0.6283 0.6774 0.5083
C24_4 C 0.64240(19) 0.5439(2) 0.55381(16)
C25_4 C 0.6569(2) 0.4920(2) 0.61732(16)
H14_4 H 0.6579 0.4231 0.6172
C26_4 C 0.6699(2) 0.5442(2) 0.68100(16)
C27_4 C 0.66683(19) 0.6442(2) 0.68179(16)
H15_4 H 0.6757 0.6781 0.7263
C28_4 C 0.6653(2) 0.4056(2) 0.47002(17)
H16_4 H 0.7063 0.3729 0.4992
C29_4 C 0.5796(2) 0.4414(2) 0.38276(18)
H17_4 H 0.5485 0.4376 0.3384
C30_4 C 0.5748(2) 0.5147(2) 0.43125(18)
H18_4 H 0.5406 0.5714 0.4274
C31_4 C 0.7213(2) 0.4043(2) 0.75392(17)
H19_4 H 0.7414 0.3664 0.7142
C32_4 C 0.6900(3) 0.4525(3) 0.86248(19)
H20_4 H 0.6838 0.4536 0.9140
C33_4 C 0.6666(3) 0.5239(3) 0.81679(19)
H21_4 H 0.6416 0.5842 0.8299
loop_
_geom_bond_atom_site_label_1
_geom_bond_atom_site_label_2
_geom_bond_site_symmetry_1
_geom_bond_site_symmetry_2
Zn1 O1 1_555 1_555
Zn2 O7 1_555 1_555
O1 C7 1_555 1_555
O2 C7 1_555 1_555
O7 N1 1_555 1_555
O8 N1 1_555 1_555
N2 C12 1_555 1_555
N3 Zn1 1_555 1_555
N4 C14 1_555 1_555
N5 Zn2 1_555 1_555
C1 C2 1_555 1_555
C2 H1 1_555 1_555
C6 C1 1_555 1_555
H3 C6 1_555 1_555
C7 C1 1_555 1_555
C10 C11 1_555 1_555
C11 H4 1_555 1_555
C12 C11 1_555 1_555
C13 C12 1_555 1_555
H5 C13 1_555 1_555
C14 C13 1_555 1_555
C15 C10 1_555 1_555
H6 C15 1_555 1_555
C16 N2 1_555 1_555
H7 C16 1_555 1_555
C17 N3 1_555 1_555
H8 C17 1_555 1_555
C18 N2 1_555 1_555
H9 C18 1_555 1_555
C19 N4 1_555 1_555
H10 C19 1_555 1_555
C20 N5 1_555 1_555
H11 C20 1_555 1_555
C21 N4 1_555 1_555
H12 C21 1_555 1_555
C22 C10 1_555 1_555
C23 C22 1_555 1_555
H13 C23 1_555 1_555
C24 C23 1_555 1_555
C27 C22 1_555 1_555
H15 C27 1_555 1_555
H18 C30 1_555 1_555
H21 C33 1_555 1_555
O10 Zn2 1_555 1_555
O11 Zn1 1_555 1_555
O12 Zn1 1_555 1_555
N10 Zn1 1_555 1_555
N11 Zn2 1_555 1_555
N3 C16 1_555 1_555
N5 C19 1_555 1_555
C14 C15 1_555 1_555
C17 C18 1_555 1_555
C20 C21 1_555 1_555
C26 C27 1_555 1_555
N10 C28 1_555 1_555
N11 C31 1_555 1_555
H14 C25 1_555 1_555
C28 N6 1_555 1_555
H16 C28 1_555 1_555
C29 N10 1_555 1_555
H17 C29 1_555 1_555
C31 N8 1_555 1_555
H19 C31 1_555 1_555
C32 N11 1_555 1_555
H20 C32 1_555 1_555
O3 C8 1_555 1_555
O4 C8 1_555 1_555
O5 C9 1_555 1_555
O6 C9 1_555 1_555
C4 C3 1_555 1_555
H2 C4 1_555 1_555
C5 C4 1_555 1_555
C8 C3 1_555 1_555
C9 C5 1_555 1_555
Zn4 O5 1_555 1_555
Zn6 O3 1_555 1_555
O6 Zn4 1_555 1_555
C10_2 C11_2 1_555 1_555
C11_2 H4_2 1_555 1_555
C12_2 C11_2 1_555 1_555
C15_2 C10_2 1_555 1_555
H6_2 C15_2 1_555 1_555
H12_2 C21_2 1_555 1_555
N8_2 C26_2 1_555 1_555
N9 C31_2 1_555 1_555
C22_2 C10_2 1_555 1_555
C23_2 C22_2 1_555 1_555
H13_2 C23_2 1_555 1_555
C24_2 C23_2 1_555 1_555
C25_2 C24_2 1_555 1_555
H14_2 C25_2 1_555 1_555
C26_2 C25_2 1_555 1_555
C27_2 C22_2 1_555 1_555
H15_2 C27_2 1_555 1_555
C31_2 N8_2 1_555 1_555
H19_2 C31_2 1_555 1_555
C32_2 N9 1_555 1_555
H20_2 C32_2 1_555 1_555
C33_2 N8_2 1_555 1_555
H21_2 C33_2 1_555 1_555
Zn6 N9 1_555 1_555
C14_2 C15_2 1_555 1_555
C26_2 C27_2 1_555 1_555
C32_2 C33_2 1_555 1_555
H9_2 C18_2 1_555 1_555
N7 C28_2 1_555 1_555
C28_2 N6_2 1_555 1_555
H16_2 C28_2 1_555 1_555
C29_2 N7 1_555 1_555
H17_2 C29_2 1_555 1_555
C30_2 N6_2 1_555 1_555
H18_2 C30_2 1_555 1_555
Zn4 N7 1_555 1_555
C29_2 C30_2 1_555 1_555
Zn6 O7_2 1_555 1_555
O10 C8_2 1_555 1_555
O4_2 C8_2 1_555 1_555
O7_2 N1_2 1_555 1_555
O8_2 N1_2 1_555 1_555
O9_2 N1_2 1_555 1_555
N5_2 Zn6 1_555 1_555
H5_2 C13_2 1_555 1_555
C19_2 N4_2 1_555 1_555
H10_2 C19_2 1_555 1_555
C20_2 N5_2 1_555 1_555
H11_2 C20_2 1_555 1_555
N5_2 C19_2 1_555 1_555
Zn4 O1_2 1_555 1_555
O1_2 C7_2 1_555 1_555
O2_2 C7_2 1_555 1_555
O11 C9_2 1_555 1_555
O12 C9_2 1_555 1_555
N3_2 Zn4 1_555 1_555
C1_2 C2_2 1_555 1_555
C3_2 C2_2 1_555 1_555
C4_2 C3_2 1_555 1_555
H2_2 C4_2 1_555 1_555
C5_2 C4_2 1_555 1_555
C6_2 C1_2 1_555 1_555
H3_2 C6_2 1_555 1_555
C7_2 C1_2 1_555 1_555
C9_2 C5_2 1_555 1_555
C16_2 N2_2 1_555 1_555
H7_2 C16_2 1_555 1_555
C17_2 N3_2 1_555 1_555
H8_2 C17_2 1_555 1_555
N3_2 C16_2 1_555 1_555
C5_2 C6_2 1_555 1_555
N7_2 C28_3 1_555 1_555
C28_3 N6_3 1_555 1_555
H16_3 C28_3 1_555 1_555
C29_3 N7_2 1_555 1_555
H17_3 C29_3 1_555 1_555
Zn3 N7_2 1_555 1_555
N9_2 C31_3 1_555 1_555
H14_3 C25_3 1_555 1_555
C31_3 N8_3 1_555 1_555
H19_3 C31_3 1_555 1_555
C32_3 N9_2 1_555 1_555
H20_3 C32_3 1_555 1_555
Zn5 N9_2 1_555 1_555
Zn3 O1_3 1_555 1_555
O1_3 C7_3 1_555 1_555
O2_3 C7_3 1_555 1_555
O5_2 C9_3 1_555 1_555
O6_2 C9_3 1_555 1_555
N3_3 Zn3 1_555 1_555
C1_3 C2_3 1_555 1_555
C3_3 C2_3 1_555 1_555
C4_3 C3_3 1_555 1_555
H2_3 C4_3 1_555 1_555
C5_3 C4_3 1_555 1_555
C6_3 C1_3 1_555 1_555
H3_3 C6_3 1_555 1_555
C7_3 C1_3 1_555 1_555
C9_3 C5_3 1_555 1_555
C16_3 N2_3 1_555 1_555
H7_3 C16_3 1_555 1_555
C17_3 N3_3 1_555 1_555
H8_3 C17_3 1_555 1_555
C18_3 N2_3 1_555 1_555
H9_3 C18_3 1_555 1_555
H18_3 C30_3 1_555 1_555
Zn4_2 O5_2 1_555 1_555
O11_2 Zn3 1_555 1_555
O12_2 Zn3 1_555 1_555
O6_2 Zn4_2 1_555 1_555
N3_3 C16_3 1_555 1_555
C5_3 C6_3 1_555 1_555
C17_3 C18_3 1_555 1_555
Zn5 O7_3 1_555 1_555
O3_2 C8_3 1_555 1_555
O4_3 C8_3 1_555 1_555
O7_3 N1_3 1_555 1_555
O8_3 N1_3 1_555 1_555
O9_3 N1_3 1_555 1_555
N4_3 C14_3 1_555 1_555
N5_3 Zn5 1_555 1_555
C10_3 C11_3 1_555 1_555
C11_3 H4_3 1_555 1_555
C12_3 C11_3 1_555 1_555
C13_3 C12_3 1_555 1_555
H5_3 C13_3 1_555 1_555
C14_3 C13_3 1_555 1_555
C15_3 C10_3 1_555 1_555
H6_3 C15_3 1_555 1_555
C19_3 N4_3 1_555 1_555
H10_3 C19_3 1_555 1_555
C20_3 N5_3 1_555 1_555
H11_3 C20_3 1_555 1_555
C21_3 N4_3 1_555 1_555
H12_3 C21_3 1_555 1_555
C22_3 C10_3 1_555 1_555
C23_3 C22_3 1_555 1_555
H13_3 C23_3 1_555 1_555
C24_3 C23_3 1_555 1_555
C27_3 C22_3 1_555 1_555
H15_3 C27_3 1_555 1_555
H21_3 C33_3 1_555 1_555
Zn6_2 O3_2 1_555 1_555
O10_2 Zn5 1_555 1_555
N5_3 C19_3 1_555 1_555
C14_3 C15_3 1_555 1_555
C20_3 C21_3 1_555 1_555
C26_3 C27_3 1_555 1_555
O10_2 C8_4 1_555 1_555
O4_4 C8_4 1_555 1_555
O11_2 C9_4 1_555 1_555
O12_2 C9_4 1_555 1_555
C4_4 C3_4 1_555 1_555
H2_4 C4_4 1_555 1_555
C5_4 C4_4 1_555 1_555
C8_4 C3_4 1_555 1_555
C9_4 C5_4 1_555 1_555
Zn4_2 O1_4 1_555 1_555
Zn6_2 O7_4 1_555 1_555
O1_4 C7_4 1_555 1_555
O2_4 C7_4 1_555 1_555
O7_4 N1_4 1_555 1_555
O8_4 N1_4 1_555 1_555
N3_4 Zn4_2 1_555 1_555
N5_4 Zn6_2 1_555 1_555
C1_4 C2_4 1_555 1_555
C2_4 H1_4 1_555 1_555
C6_4 C1_4 1_555 1_555
H3_4 C6_4 1_555 1_555
C7_4 C1_4 1_555 1_555
H5_4 C13_4 1_555 1_555
C16_4 N2_4 1_555 1_555
H7_4 C16_4 1_555 1_555
C17_4 N3_4 1_555 1_555
H8_4 C17_4 1_555 1_555
C19_4 N4_4 1_555 1_555
H10_4 C19_4 1_555 1_555
C20_4 N5_4 1_555 1_555
H11_4 C20_4 1_555 1_555
N10_2 Zn4_2 1_555 1_555
N11_2 Zn6_2 1_555 1_555
N3_4 C16_4 1_555 1_555
N5_4 C19_4 1_555 1_555
C10_4 C11_4 1_555 1_555
C11_4 H4_4 1_555 1_555
C12_4 C11_4 1_555 1_555
C15_4 C10_4 1_555 1_555
H6_4 C15_4 1_555 1_555
H9_4 C18_4 1_555 1_555
H12_4 C21_4 1_555 1_555
N6_4 C24_4 1_555 1_555
N10_2 C28_4 1_555 1_555
N8_4 C26_4 1_555 1_555
N11_2 C31_4 1_555 1_555
C22_4 C10_4 1_555 1_555
C23_4 C22_4 1_555 1_555
H13_4 C23_4 1_555 1_555
C24_4 C23_4 1_555 1_555
C25_4 C24_4 1_555 1_555
H14_4 C25_4 1_555 1_555
C26_4 C25_4 1_555 1_555
C27_4 C22_4 1_555 1_555
H15_4 C27_4 1_555 1_555
C28_4 N6_4 1_555 1_555
H16_4 C28_4 1_555 1_555
C29_4 N10_2 1_555 1_555
H17_4 C29_4 1_555 1_555
C30_4 N6_4 1_555 1_555
H18_4 C30_4 1_555 1_555
C31_4 N8_4 1_555 1_555
H19_4 C31_4 1_555 1_555
C32_4 N11_2 1_555 1_555
H20_4 C32_4 1_555 1_555
C33_4 N8_4 1_555 1_555
H21_4 C33_4 1_555 1_555
C14_4 C15_4 1_555 1_555
C26_4 C27_4 1_555 1_555
C29_4 C30_4 1_555 1_555
C32_4 C33_4 1_555 1_555

#END
