
###############################################################################
#
# This file contains modified crystal structure data generated from the
# MOF subset of the Cambridge Structural Database (CSD) v543 
# hosted by the Cambridge Crystallographic Data Centre (CCDC).
#
# This work is licensed under the Creative Commons
# Attribution-NonCommercial-ShareAlike 4.0 International License.
# To view a copy of this license, visit
# http://creativecommons.org/licenses/by-nc-sa/4.0/
# or send a letter to
# Creative Commons, PO Box 1866, Mountain View, CA 94042, USA.
#
# CIF created using the CSD Python API on 29 September 2022
# The structure has been converted into the P1 space group
# The structure has a 3D framework
# The original CSD entry PUWZOX is in the orthorhombic crystal system
# The framework has been calculated to contain at least 10.0% void space
# The void calculation uses a probe of radius 1.32A, grid spacing 0.4
#
###############################################################################

data_PUWZOX
_chemical_formula_moiety         '(C48 Cr8 Mn8 O94)n'
_symmetry_cell_setting           triclinic
_symmetry_space_group_name_H-M   'P 1'
_symmetry_Int_Tables_number      1
_space_group_name_Hall           'P 1'
loop_
_symmetry_equiv_pos_site_id
_symmetry_equiv_pos_as_xyz
1 x,y,z
_cell_length_a                   20.8484(16)
_cell_length_b                   21.710(2)
_cell_length_c                   15.4856(13)
_cell_angle_alpha                90
_cell_angle_beta                 90
_cell_angle_gamma                90
_cell_volume                     7009.07
loop_
_atom_site_label
_atom_site_type_symbol
_atom_site_fract_x
_atom_site_fract_y
_atom_site_fract_z
C7 C 0.0304(3) 0.2399(4) 0.0816(5)
O12 O 0.0037(3) 0.6215(3) 0.4291(3)
O13 O 0.0580(2) 0.2916(2) 0.0775(3)
O15 O 0.0589(2) 0.1881(3) 0.0914(4)
O25 O 0.0558(3) 0.4407(2) 0.0605(3)
Mn3 Mn 0.01220(6) 0.63517(6) 0.56949(8)
C1 C 0.7649(4) 0.4576(3) 0.3539(4)
C2 C 0.7625(4) 0.5290(3) 0.3480(5)
C3 C 0.9134(4) 0.4493(4) 0.1721(6)
C4 C 0.9547(4) 0.4128(4) 0.2381(5)
C5 C 0.9328(4) 0.5422(4) 0.4836(7)
C6 C 0.9652(4) 0.5801(4) 0.4114(6)
C8 C 0.9566(4) 0.2351(4) 0.0774(5)
C9 C 0.5853(5) 0.4509(3) 0.1911(5)
C10 C 0.5447(4) 0.4147(4) 0.2563(5)
C11 C 0.5800(3) 0.5373(4) 0.5188(5)
C12 C 0.5448(4) 0.5694(4) 0.4415(5)
O1 O 0.7107(3) 0.4305(2) 0.3628(4)
O2 O 0.7085(2) 0.5563(2) 0.3477(3)
O3 O 0.8171(3) 0.4348(2) 0.3467(3)
O4 O 0.8159(2) 0.5561(2) 0.3392(3)
O5 O 0.9125(2) 0.4333(2) 0.0947(4)
O6 O 0.9875(3) 0.3691(3) 0.2107(3)
O7 O 0.8799(2) 0.4916(2) 0.2053(3)
O8 O 0.9493(2) 0.4299(2) 0.3157(3)
O9 O 0.8990(3) 0.4973(2) 0.4584(3)
O10 O 0.9513(2) 0.5626(2) 0.3363(3)
O11 O 0.9442(3) 0.5593(2) 0.5605(3)
O14 O 0.9270(3) 0.2852(3) 0.0672(3)
O16 O 0.9330(2) 0.1839(2) 0.0869(3)
O17 O 0.5701(3) 0.4409(2) 0.1107(3)
O18 O 0.4993(2) 0.3799(2) 0.2250(3)
O19 O 0.6288(3) 0.4842(3) 0.2157(3)
O20 O 0.5574(3) 0.4209(2) 0.3343(4)
O21 O 0.6205(3) 0.4977(3) 0.4960(3)
O22 O 0.5549(2) 0.5595(2) 0.3710(3)
O23 O 0.5662(3) 0.5521(2) 0.5931(3)
O24 O 0.5004(3) 0.6077(3) 0.4701(3)
Cr1 Cr 0.88668(6) 0.49556(6) 0.33304(7)
Cr2 Cr 0.49905(7) 0.38111(6) 0.09757(8)
Mn1 Mn 0.98780(6) 0.36483(6) 0.06949(8)
Mn2 Mn 0.62967(5) 0.48987(6) 0.35751(8)
O27 O 0.5589(2) 0.3119(3) 0.0914(4)
O28 O 0.4330(2) 0.3161(2) 0.0869(3)
O29 O 0.4338(3) 0.4479(2) 0.0931(3)
Cr3 Cr 0.50095(7) 0.61889(6) 0.59757(8)
Cr4 Cr 0.99905(7) 0.11889(6) 0.09757(8)
O26 O 0.9963(3) 0.3785(3) 0.9291(3)
O30 O 0.4996(3) 0.3923(3) 0.9701(3)
C11_2 C 0.4200(3) 0.4627(4) 0.0188(5)
C1_2 C 0.2351(4) 0.5424(3) 0.8539(4)
C2_2 C 0.2375(4) 0.4710(3) 0.8480(5)
C3_2 C 0.0866(4) 0.5507(4) 0.6721(6)
C4_2 C 0.0453(4) 0.5872(4) 0.7381(5)
C5_2 C 0.0672(4) 0.4578(4) 0.9836(7)
C6_2 C 0.0348(4) 0.4199(4) 0.9114(6)
C8_2 C 0.0434(4) 0.7649(4) 0.5774(5)
C9_2 C 0.4147(5) 0.5491(3) 0.6911(5)
C10_2 C 0.4553(4) 0.5853(4) 0.7563(5)
C12_2 C 0.4552(4) 0.4306(4) 0.9415(5)
O1_2 O 0.2893(3) 0.5695(2) 0.8628(4)
O2_2 O 0.2915(2) 0.4437(2) 0.8477(3)
O3_2 O 0.1829(3) 0.5652(2) 0.8467(3)
O4_2 O 0.1841(2) 0.4439(2) 0.8392(3)
O5_2 O 0.0875(2) 0.5667(2) 0.5947(4)
O6_2 O 0.0125(3) 0.6309(3) 0.7107(3)
O7_2 O 0.1201(2) 0.5084(2) 0.7053(3)
O8_2 O 0.0507(2) 0.5701(2) 0.8157(3)
O9_2 O 0.1010(3) 0.5027(2) 0.9584(3)
O10_2 O 0.0487(2) 0.4374(2) 0.8363(3)
O14_2 O 0.0730(3) 0.7148(3) 0.5672(3)
O16_2 O 0.0670(2) 0.8161(2) 0.5869(3)
O17_2 O 0.4299(3) 0.5591(2) 0.6107(3)
O18_2 O 0.5007(2) 0.6201(2) 0.7250(3)
O19_2 O 0.3712(3) 0.5158(3) 0.7157(3)
O20_2 O 0.4426(3) 0.5791(2) 0.8343(4)
O21_2 O 0.3795(3) 0.5023(3) 0.9960(3)
O22_2 O 0.4451(2) 0.4405(2) 0.8710(3)
Cr1_2 Cr 0.11332(6) 0.50444(6) 0.83304(7)
Mn2_2 Mn 0.37033(5) 0.51013(6) 0.85751(8)
O27_2 O 0.4411(2) 0.6881(3) 0.5914(4)
O28_2 O 0.5670(2) 0.6839(2) 0.5869(3)
Cr4_2 Cr 0.00095(7) 0.88111(6) 0.59757(8)
C7_2 C 0.9696(3) 0.7601(4) 0.5816(5)
O13_2 O 0.9420(2) 0.7084(2) 0.5775(3)
O15_2 O 0.9411(2) 0.8119(3) 0.5914(4)
O18_3 O 0.0007(2) 0.8799(2) 0.7250(3)
O29_2 O 0.0662(3) 0.9479(2) 0.5931(3)
O30_2 O 0.0004(3) 0.8923(3) 0.4701(3)
C11_3 C 0.9200(3) 0.0373(4) 0.0188(5)
O11_2 O 0.5558(3) 0.0593(2) 0.0605(3)
O23_2 O 0.9338(3) 0.0521(2) 0.0931(3)
Mn3_2 Mn 0.48780(6) 0.13517(6) 0.06949(8)
C1_3 C 0.7351(4) 0.9576(3) 0.8539(4)
C3_3 C 0.5866(4) 0.9493(4) 0.6721(6)
C4_3 C 0.5453(4) 0.9128(4) 0.7381(5)
C7_3 C 0.4696(3) 0.7399(4) 0.5816(5)
C8_3 C 0.5434(4) 0.7351(4) 0.5774(5)
C9_3 C 0.9147(5) 0.9509(3) 0.6911(5)
C10_3 C 0.9553(4) 0.9147(4) 0.7563(5)
O1_3 O 0.7893(3) 0.9305(2) 0.8628(4)
O3_3 O 0.6829(3) 0.9348(2) 0.8467(3)
O5_3 O 0.5875(2) 0.9333(2) 0.5947(4)
O6_3 O 0.5125(3) 0.8691(3) 0.7107(3)
O7_3 O 0.6201(2) 0.9916(2) 0.7053(3)
O8_3 O 0.5507(2) 0.9299(2) 0.8157(3)
O9_3 O 0.6010(3) 0.9973(2) 0.9584(3)
O13_3 O 0.4420(2) 0.7916(2) 0.5775(3)
O14_3 O 0.5730(3) 0.7852(3) 0.5672(3)
O17_3 O 0.9299(3) 0.9409(2) 0.6107(3)
O19_3 O 0.8712(3) 0.9842(3) 0.7157(3)
O20_3 O 0.9426(3) 0.9209(2) 0.8343(4)
O21_3 O 0.8795(3) 0.9977(3) 0.9960(3)
Cr1_3 Cr 0.61332(6) 0.99556(6) 0.83304(7)
Mn1_2 Mn 0.51220(6) 0.86483(6) 0.56949(8)
Mn2_3 Mn 0.87033(5) 0.98987(6) 0.85751(8)
O25_2 O 0.4442(3) 0.9407(2) 0.5605(3)
O26_2 O 0.5037(3) 0.8785(3) 0.4291(3)
C1_4 C 0.2649(4) 0.0424(3) 0.3539(4)
C3_4 C 0.4134(4) 0.0507(4) 0.1721(6)
C4_4 C 0.4547(4) 0.0872(4) 0.2381(5)
C7_4 C 0.5304(3) 0.2601(4) 0.0816(5)
C8_4 C 0.4566(4) 0.2649(4) 0.0774(5)
C9_4 C 0.0853(5) 0.0491(3) 0.1911(5)
C10_4 C 0.0447(4) 0.0853(4) 0.2563(5)
O1_4 O 0.2107(3) 0.0695(2) 0.3628(4)
O3_4 O 0.3171(3) 0.0652(2) 0.3467(3)
O5_4 O 0.4125(2) 0.0667(2) 0.0947(4)
O6_4 O 0.4875(3) 0.1309(3) 0.2107(3)
O7_4 O 0.3799(2) 0.0084(2) 0.2053(3)
O8_4 O 0.4493(2) 0.0701(2) 0.3157(3)
O9_4 O 0.3990(3) 0.0027(2) 0.4584(3)
O13_4 O 0.5580(2) 0.2084(2) 0.0775(3)
O14_4 O 0.4270(3) 0.2148(3) 0.0672(3)
O17_4 O 0.0701(3) 0.0591(2) 0.1107(3)
O19_4 O 0.1288(3) 0.0158(3) 0.2157(3)
O20_4 O 0.0574(3) 0.0791(2) 0.3343(4)
O21_4 O 0.1205(3) 0.0023(3) 0.4960(3)
Cr1_4 Cr 0.38668(6) 0.00444(6) 0.33304(7)
Mn2_4 Mn 0.12967(5) 0.01013(6) 0.35751(8)
C2_3 C 0.2625(4) 0.9710(3) 0.3480(5)
C5_3 C 0.4328(4) 0.9578(4) 0.4836(7)
C6_3 C 0.4652(4) 0.9199(4) 0.4114(6)
C11_4 C 0.0800(3) 0.9627(4) 0.5188(5)
C12_3 C 0.0448(4) 0.9306(4) 0.4415(5)
O2_3 O 0.2085(2) 0.9437(2) 0.3477(3)
O4_3 O 0.3159(2) 0.9439(2) 0.3392(3)
O10_3 O 0.4513(2) 0.9374(2) 0.3363(3)
O22_3 O 0.0549(2) 0.9405(2) 0.3710(3)
O18_4 O 0.9993(2) 0.1201(2) 0.2250(3)
C2_4 C 0.7375(4) 0.0290(3) 0.8480(5)
C5_4 C 0.5672(4) 0.0422(4) 0.9836(7)
C6_4 C 0.5348(4) 0.0801(4) 0.9114(6)
C12_4 C 0.9552(4) 0.0694(4) 0.9415(5)
O2_4 O 0.7915(2) 0.0563(2) 0.8477(3)
O4_4 O 0.6841(2) 0.0561(2) 0.8392(3)
O10_4 O 0.5487(2) 0.0626(2) 0.8363(3)
O12_2 O 0.4963(3) 0.1215(3) 0.9291(3)
O22_4 O 0.9451(2) 0.0595(2) 0.8710(3)
O24_2 O 0.9996(3) 0.1077(3) 0.9701(3)
loop_
_geom_bond_atom_site_label_1
_geom_bond_atom_site_label_2
_geom_bond_site_symmetry_1
_geom_bond_site_symmetry_2
O13 C7 1_555 1_555
O15 C7 1_555 1_555
O12 Mn3 1_555 1_555
C1 C2 1_555 1_555
C2 O2 1_555 1_555
C3 C4 1_555 1_555
C4 O6 1_555 1_555
C5 C6 1_555 1_555
C6 O10 1_555 1_555
C8 O14 1_555 1_555
C9 C10 1_555 1_555
C10 O18 1_555 1_555
C11 C12 1_555 1_555
C12 O22 1_555 1_555
O1 C1 1_555 1_555
O2 Mn2 1_555 1_555
O3 C1 1_555 1_555
O4 C2 1_555 1_555
O5 C3 1_555 1_555
O6 Mn1 1_555 1_555
O7 C3 1_555 1_555
O8 C4 1_555 1_555
O9 C5 1_555 1_555
O10 Cr1 1_555 1_555
O11 C5 1_555 1_555
O14 Mn1 1_555 1_555
O16 C8 1_555 1_555
O17 C9 1_555 1_555
O18 Cr2 1_555 1_555
O19 C9 1_555 1_555
O20 C10 1_555 1_555
O21 C11 1_555 1_555
O22 Mn2 1_555 1_555
O23 C11 1_555 1_555
O24 C12 1_555 1_555
Cr1 O3 1_555 1_555
Cr2 O17 1_555 1_555
Mn1 O5 1_555 1_555
Mn2 O1 1_555 1_555
O27 Cr2 1_555 1_555
O28 Cr2 1_555 1_555
O29 Cr2 1_555 1_555
Cr3 O23 1_555 1_555
O4 Cr1 1_555 1_555
O7 Cr1 1_555 1_555
O8 Cr1 1_555 1_555
O9 Cr1 1_555 1_555
O16 Cr4 1_555 1_555
O19 Mn2 1_555 1_555
O20 Mn2 1_555 1_555
O21 Mn2 1_555 1_555
O24 Cr3 1_555 1_555
O29 C11_2 1_555 1_555
C1_2 C2_2 1_555 1_555
C2_2 O2_2 1_555 1_555
C3_2 C4_2 1_555 1_555
C4_2 O6_2 1_555 1_555
C5_2 C6_2 1_555 1_555
C6_2 O10_2 1_555 1_555
C8_2 O14_2 1_555 1_555
C9_2 C10_2 1_555 1_555
C10_2 O18_2 1_555 1_555
C12_2 O22_2 1_555 1_555
O1_2 C1_2 1_555 1_555
O2_2 Mn2_2 1_555 1_555
O3_2 C1_2 1_555 1_555
O4_2 C2_2 1_555 1_555
O5_2 C3_2 1_555 1_555
O6_2 Mn3 1_555 1_555
O7_2 C3_2 1_555 1_555
O8_2 C4_2 1_555 1_555
O9_2 C5_2 1_555 1_555
O10_2 Cr1_2 1_555 1_555
O14_2 Mn3 1_555 1_555
O16_2 C8_2 1_555 1_555
O17_2 C9_2 1_555 1_555
O18_2 Cr3 1_555 1_555
O19_2 C9_2 1_555 1_555
O20_2 C10_2 1_555 1_555
O22_2 Mn2_2 1_555 1_555
O30 C12_2 1_555 1_555
Cr1_2 O3_2 1_555 1_555
Cr3 O17_2 1_555 1_555
Mn3 O5_2 1_555 1_555
Mn2_2 O1_2 1_555 1_555
O27_2 Cr3 1_555 1_555
O28_2 Cr3 1_555 1_555
O4_2 Cr1_2 1_555 1_555
O7_2 Cr1_2 1_555 1_555
O8_2 Cr1_2 1_555 1_555
O9_2 Cr1_2 1_555 1_555
O16_2 Cr4_2 1_555 1_555
O19_2 Mn2_2 1_555 1_555
O20_2 Mn2_2 1_555 1_555
O21_2 Mn2_2 1_555 1_555
O13_2 C7_2 1_555 1_555
O15_2 C7_2 1_555 1_555
O18_3 Cr4_2 1_555 1_555
O29_2 Cr4_2 1_555 1_555
O30_2 Cr4_2 1_555 1_555
O23_2 C11_3 1_555 1_555
Cr4 O23_2 1_555 1_555
Mn3_2 O11_2 1_555 1_555
C3_3 C4_3 1_555 1_555
C4_3 O6_3 1_555 1_555
C7_3 C8_3 1_555 1_555
C8_3 O14_3 1_555 1_555
C9_3 C10_3 1_555 1_555
O1_3 C1_3 1_555 1_555
O3_3 C1_3 1_555 1_555
O5_3 C3_3 1_555 1_555
O6_3 Mn1_2 1_555 1_555
O7_3 C3_3 1_555 1_555
O8_3 C4_3 1_555 1_555
O13_3 C7_3 1_555 1_555
O14_3 Mn1_2 1_555 1_555
O27_2 C7_3 1_555 1_555
O28_2 C8_3 1_555 1_555
O17_3 C9_3 1_555 1_555
O19_3 C9_3 1_555 1_555
O20_3 C10_3 1_555 1_555
Cr1_3 O3_3 1_555 1_555
Mn1_2 O5_3 1_555 1_555
Mn2_3 O1_3 1_555 1_555
O25_2 Mn1_2 1_555 1_555
O26_2 Mn1_2 1_555 1_555
O7_3 Cr1_3 1_555 1_555
O8_3 Cr1_3 1_555 1_555
O9_3 Cr1_3 1_555 1_555
O13_3 Mn1_2 1_555 1_555
O19_3 Mn2_3 1_555 1_555
O20_3 Mn2_3 1_555 1_555
O21_3 Mn2_3 1_555 1_555
C3_4 C4_4 1_555 1_555
C4_4 O6_4 1_555 1_555
C7_4 C8_4 1_555 1_555
C8_4 O14_4 1_555 1_555
C9_4 C10_4 1_555 1_555
O1_4 C1_4 1_555 1_555
O3_4 C1_4 1_555 1_555
O5_4 C3_4 1_555 1_555
O6_4 Mn3_2 1_555 1_555
O7_4 C3_4 1_555 1_555
O8_4 C4_4 1_555 1_555
O13_4 C7_4 1_555 1_555
O14_4 Mn3_2 1_555 1_555
O27 C7_4 1_555 1_555
O28 C8_4 1_555 1_555
O17_4 C9_4 1_555 1_555
O19_4 C9_4 1_555 1_555
O20_4 C10_4 1_555 1_555
Cr1_4 O3_4 1_555 1_555
Mn3_2 O5_4 1_555 1_555
Mn2_4 O1_4 1_555 1_555
O7_4 Cr1_4 1_555 1_555
O8_4 Cr1_4 1_555 1_555
O9_4 Cr1_4 1_555 1_555
O13_4 Mn3_2 1_555 1_555
O19_4 Mn2_4 1_555 1_555
O20_4 Mn2_4 1_555 1_555
O21_4 Mn2_4 1_555 1_555
C2_3 O2_3 1_555 1_555
C5_3 C6_3 1_555 1_555
C6_3 O10_3 1_555 1_555
C11_4 C12_3 1_555 1_555
C12_3 O22_3 1_555 1_555
O4_3 C2_3 1_555 1_555
O25_2 C5_3 1_555 1_555
O26_2 C6_3 1_555 1_555
O29_2 C11_4 1_555 1_555
O30_2 C12_3 1_555 1_555
O18_4 Cr4 1_555 1_555
C2_4 O2_4 1_555 1_555
C5_4 C6_4 1_555 1_555
C6_4 O10_4 1_555 1_555
C12_4 O22_4 1_555 1_555
O4_4 C2_4 1_555 1_555
O12_2 C6_4 1_555 1_555
O24_2 C12_4 1_555 1_555

#END
