
###############################################################################
#
# This file contains modified crystal structure data generated from the
# MOF subset of the Cambridge Structural Database (CSD) v543 
# hosted by the Cambridge Crystallographic Data Centre (CCDC).
#
# This work is licensed under the Creative Commons
# Attribution-NonCommercial-ShareAlike 4.0 International License.
# To view a copy of this license, visit
# http://creativecommons.org/licenses/by-nc-sa/4.0/
# or send a letter to
# Creative Commons, PO Box 1866, Mountain View, CA 94042, USA.
#
# CIF created using the CSD Python API on 29 September 2022
# The structure has been converted into the P1 space group
# The structure has a 3D framework
# The original CSD entry PUXDUK is in the orthorhombic crystal system
# The framework has been calculated to contain at least 10.0% void space
# The void calculation uses a probe of radius 1.32A, grid spacing 0.4
#
###############################################################################

data_PUXDUK
_chemical_formula_moiety         '(C216 H128 N32 O31 Zn8)n'
_symmetry_cell_setting           triclinic
_symmetry_space_group_name_H-M   'P 1'
_symmetry_Int_Tables_number      1
_space_group_name_Hall           'P 1'
loop_
_symmetry_equiv_pos_site_id
_symmetry_equiv_pos_as_xyz
1 x,y,z
_cell_length_a                   8.4030(17)
_cell_length_b                   24.858(5)
_cell_length_c                   33.616(7)
_cell_angle_alpha                90
_cell_angle_beta                 90
_cell_angle_gamma                90
_cell_volume                     7021.77
loop_
_atom_site_label
_atom_site_type_symbol
_atom_site_fract_x
_atom_site_fract_y
_atom_site_fract_z
N1 N 0.4926(4) 0.19617(16) 0.93183(10)
N3 N 0.3538(5) 0.11343(17) 0.89280(12)
C1 C 0.5617(5) 0.23491(19) 0.95173(13)
H2 H 0.6304 0.2254 0.9722
N4 N 0.1016(4) 0.24756(18) 0.80486(11)
N7 N 0.2064(4) 0.31711(16) 0.84041(10)
H3 H 0.2270 0.3494 0.8481
C4 C 0.3637(5) 0.26216(19) 0.89096(12)
C5 C 0.5391(5) 0.2900(2) 0.94416(15)
H4 H 0.5900 0.3162 0.9593
C6 C 0.3941(5) 0.20870(19) 0.90101(12)
C7 C 0.4385(6) 0.3036(2) 0.91345(13)
H5 H 0.4195 0.3396 0.9074
C8 C 0.3230(5) 0.16421(18) 0.87913(12)
C10 C 0.2599(5) 0.2702(2) 0.85737(13)
C12 C 0.1135(6) 0.3021(2) 0.80873(14)
C13 C 0.2238(5) 0.1732(2) 0.84637(13)
C21 C 0.0317(6) 0.3395(2) 0.78291(14)
C23 C 0.2928(6) 0.0720(2) 0.87309(15)
H8 H 0.3160 0.0375 0.8820
C24 C 0.1953(6) 0.0778(2) 0.83966(15)
H9 H 0.1545 0.0477 0.8268
C32 C 0.1603(6) 0.1291(2) 0.82591(14)
H13 H 0.0962 0.1341 0.8037
C33 C 0.1970(5) 0.2290(2) 0.83566(13)
C45 C 0.0503(7) 0.3949(2) 0.78615(16)
H25 H 0.1150 0.4084 0.8062
Zn3 Zn 0.51199(6) 0.11285(2) 0.94472(2)
O2 O 0.7083(4) 0.09311(15) 0.89387(11)
O3 O 0.5745(4) 0.03319(13) 0.93002(10)
O5 O 0.6783(5) 0.12966(17) 0.98640(12)
O6 O 0.3310(5) 0.10336(16) 0.98555(11)
C11 C 0.6640(6) 0.0458(2) 0.90116(16)
C19 C 0.7093(6) 0.0013(2) 0.87246(15)
C36 C 0.7968(8) 0.1081(2) 0.99951(17)
H16 H 0.8122 0.0723 0.9923
C37 C 0.8148(6) 0.0109(2) 0.84218(15)
H17 H 0.8644 0.0443 0.8405
C52 C 0.2759(8) 0.0589(3) 0.99090(17)
H30 H 0.3137 0.0312 0.9749
Zn2 Zn 0.42192(7) 0.59939(2) 0.55630(2)
O1 O 0.5517(4) 0.54341(14) 0.58507(9)
O4 O 0.5840(4) 0.61059(15) 0.62863(10)
O6_2 O 0.1690(5) 0.60336(16) 0.48555(11)
O8 O 0.3278(5) 0.54717(18) 0.51621(13)
C18 C 0.6648(6) 0.52272(19) 0.64751(13)
C22 C 0.9760(6) 0.4310(2) 0.76053(15)
H7 H 0.9922 0.4677 0.7636
C26 C 0.8771(6) 0.4120(2) 0.73010(15)
C27 C 0.7998(6) 0.4500(2) 0.70192(14)
C28 C 0.6897(6) 0.5369(2) 0.68691(13)
H11 H 0.6635 0.5713 0.6956
C30 C 0.5951(5) 0.5628(2) 0.61887(14)
C31 C 0.7060(7) 0.4702(2) 0.63530(16)
H12 H 0.6876 0.4594 0.6092
C38 C 0.7544(6) 0.4995(2) 0.71387(14)
H18 H 0.7659 0.5091 0.7405
C39 C 0.8577(7) 0.3559(2) 0.72694(15)
H19 H 0.7940 0.3419 0.7068
C41 C 0.9304(7) 0.3216(2) 0.75285(17)
H21 H 0.9117 0.2849 0.7504
C49 C 0.7728(7) 0.4352(2) 0.66174(15)
H28 H 0.8011 0.4009 0.6532
C52_2 C 0.2241(8) 0.5589(3) 0.49090(17)
H30_2 H 0.1863 0.5312 0.4749
N9 N 0.0074(4) 0.69617(16) 0.43183(10)
N10 N 0.1462(5) 0.61343(17) 0.39280(12)
N11 N 0.3662(5) 0.68265(16) 0.56643(10)
O9 O 0.6031(5) 0.62764(17) 0.52083(12)
N12 N 0.2367(5) 0.59469(17) 0.60116(12)
Zn1 Zn 0.98801(6) 0.61285(2) 0.44472(2)
O2_2 O 0.7917(4) 0.59311(15) 0.39387(11)
N2 N 0.4300(5) 0.28962(17) 0.16452(11)
H1 H 0.4129 0.3227 0.1584
O3_2 O 0.9255(4) 0.53319(13) 0.43002(10)
N5 N 0.1338(5) 0.18265(16) 0.06643(10)
O5_2 O 0.8217(5) 0.62966(17) 0.48640(12)
N6 N 0.5203(5) 0.21637(19) 0.19723(12)
C2 C 0.3769(6) 0.2455(2) 0.14446(13)
C3 C 0.4338(5) 0.2011(2) 0.16435(14)
C9 C 0.2723(5) 0.2419(2) 0.11024(13)
N8 N 0.2633(5) 0.09469(17) 0.10116(12)
C11_2 C 0.8360(6) 0.5458(2) 0.40116(16)
C14 C 0.5162(6) 0.2708(2) 0.19644(14)
C15 C 0.5840(6) 0.3070(2) 0.22613(15)
C16 C 0.2364(5) 0.18944(19) 0.09726(12)
C17 C 0.2108(5) 0.2864(2) 0.08935(13)
H6 H 0.2387 0.3213 0.0963
C19_2 C 0.7907(6) 0.5013(2) 0.37246(15)
C20 C 0.3028(5) 0.1428(2) 0.11656(14)
C25 C 0.1082(5) 0.2766(2) 0.05830(15)
H10 H 0.0629 0.3049 0.0442
C29 C 0.4032(6) 0.1479(2) 0.15019(14)
C34 C 0.0726(6) 0.22297(19) 0.04815(12)
H14 H 0.0020 0.2165 0.0274
C35 C 0.6076(6) 0.3619(2) 0.21722(15)
H15 H 0.5911 0.3740 0.1914
C36_2 C 0.7032(8) 0.6081(2) 0.49951(17)
H16_2 H 0.6878 0.5723 0.4923
C37_2 C 0.6852(6) 0.5109(2) 0.34218(15)
H17_2 H 0.6356 0.5443 0.3405
C40 C 0.4183(7) 0.0513(2) 0.15103(18)
H20 H 0.4574 0.0194 0.1617
C42 C 0.4588(7) 0.0990(2) 0.16795(18)
H22 H 0.5216 0.0999 0.1907
C43 C 0.6514(6) 0.4727(2) 0.31450(17)
H23 H 0.5815 0.4810 0.2939
C44 C 0.8264(9) 0.4119(3) 0.34727(19)
H24 H 0.8762 0.3786 0.3489
C46 C 0.7180(7) 0.4218(2) 0.31599(17)
C47 C 0.3193(7) 0.0497(2) 0.11807(16)
H26 H 0.2911 0.0165 0.1074
C48 C 0.8597(8) 0.4501(2) 0.37499(18)
H27 H 0.9288 0.4422 0.3958
C50 C 0.6227(10) 0.2908(3) 0.26338(19)
H29 H 0.6171 0.2544 0.2696
C51 C 0.6810(8) 0.3807(2) 0.28513(17)
C53 C 0.6539(7) 0.3973(2) 0.24566(17)
H31 H 0.6679 0.4333 0.2390
C54 C 0.6704(12) 0.3270(3) 0.2925(2)
H32 H 0.6959 0.3142 0.3177
Zn5 Zn 0.07808(7) 0.09939(2) 0.05630(2)
N2_2 N 0.0700(5) 0.78962(17) 0.66452(11)
H1_2 H 0.0871 0.8227 0.6584
C2_2 C 0.1231(6) 0.7455(2) 0.64446(13)
C3_2 C 0.0662(5) 0.7011(2) 0.66435(14)
C9_2 C 0.2277(5) 0.7419(2) 0.61024(13)
C16_2 C 0.2636(5) 0.68944(19) 0.59726(12)
C17_2 C 0.2892(5) 0.7864(2) 0.58935(13)
H6_2 H 0.2613 0.8213 0.5963
C20_2 C 0.1972(5) 0.6428(2) 0.61656(14)
C25_2 C 0.3918(5) 0.7766(2) 0.55830(15)
H10_2 H 0.4371 0.8049 0.5442
C29_2 C 0.0968(6) 0.6479(2) 0.65019(14)
C34_2 C 0.4274(6) 0.72297(19) 0.54815(12)
H14_2 H 0.4980 0.7165 0.5274
C40_2 C 0.0817(7) 0.5513(2) 0.65103(18)
H20_2 H 0.0426 0.5194 0.6617
C42_2 C 0.0412(7) 0.5990(2) 0.66795(18)
C47_2 C 0.1807(7) 0.5497(2) 0.61807(16)
H26_2 H 0.2089 0.5165 0.6074
O7 O 0.8969(5) 0.12764(17) 0.02083(12)
O8_2 O 0.1722(5) 0.04717(18) 0.01621(13)
O1_2 O 0.9483(4) 0.04341(14) 0.08507(9)
O4_2 O 0.9160(4) 0.11059(15) 0.12863(10)
C18_2 C 0.8352(6) 0.02272(19) 0.14751(13)
C28_2 C 0.8103(6) 0.0369(2) 0.18691(13)
H11_2 H 0.8365 0.0713 0.1956
C30_2 C 0.9049(5) 0.0628(2) 0.11887(14)
H18_2 H 0.7341 0.0091 0.2405
N4_2 N 0.3984(4) 0.74756(18) 0.30486(11)
N7_2 N 0.2936(4) 0.81711(16) 0.34041(10)
H3_2 H 0.2730 0.8494 0.3481
C4_2 C 0.1363(5) 0.76216(19) 0.39096(12)
C6_2 C 0.1059(5) 0.70870(19) 0.40101(12)
C7_2 C 0.0615(6) 0.8036(2) 0.41345(13)
H5_2 H 0.0805 0.8396 0.4074
C8_2 C 0.1770(5) 0.66421(18) 0.37913(12)
C10_2 C 0.2401(5) 0.7702(2) 0.35737(13)
C12_2 C 0.3865(6) 0.8021(2) 0.30873(14)
C13_2 C 0.2762(5) 0.6732(2) 0.34637(13)
C21_2 C 0.4683(6) 0.8395(2) 0.28291(14)
C22_2 C 0.5240(6) 0.9310(2) 0.26053(15)
H7_2 H 0.5078 0.9677 0.2636
C23_2 C 0.2072(6) 0.5720(2) 0.37309(15)
H8_2 H 0.1840 0.5375 0.3820
C24_2 C 0.3047(6) 0.5778(2) 0.33966(15)
H9_2 H 0.3455 0.5477 0.3268
C26_2 C 0.6229(6) 0.9120(2) 0.23010(15)
C27_2 C 0.7002(6) 0.9500(2) 0.20192(14)
C31_2 C 0.7940(7) 0.9702(2) 0.13530(16)
H12_2 H 0.8124 0.9594 0.1092
C32_2 C 0.3397(6) 0.6291(2) 0.32591(14)
H13_2 H 0.4038 0.6341 0.3037
C33_2 C 0.3030(5) 0.7290(2) 0.33566(13)
C38_2 C 0.7456(6) 0.9995(2) 0.21387(14)
C39_2 C 0.6423(7) 0.8559(2) 0.22694(15)
H19_2 H 0.7060 0.8419 0.2068
C41_2 C 0.5696(7) 0.8216(2) 0.25285(17)
H21_2 H 0.5883 0.7849 0.2504
C45_2 C 0.4497(7) 0.8949(2) 0.28615(16)
H25_2 H 0.3850 0.9084 0.3062
C49_2 C 0.7272(7) 0.9352(2) 0.16174(15)
H28_2 H 0.6989 0.9009 0.1532
C1_2 C 0.9383(5) 0.73491(19) 0.45173(13)
H2_2 H 0.8696 0.7254 0.4722
C5_2 C 0.9609(5) 0.7900(2) 0.44416(15)
H4_2 H 0.9100 0.8162 0.4593
O7_2 O 0.3969(5) 0.37236(17) 0.02083(12)
Zn4 Zn 0.57808(7) 0.40061(2) 0.05630(2)
O1_3 O 0.4483(4) 0.45659(14) 0.08507(9)
O4_3 O 0.4160(4) 0.38941(15) 0.12863(10)
O8_3 O 0.6722(5) 0.45283(18) 0.01621(13)
C18_3 C 0.3352(6) 0.47728(19) 0.14751(13)
C22_3 C 0.0240(6) 0.5690(2) 0.26053(15)
H7_3 H 0.0078 0.5323 0.2636
C26_3 C 0.1229(6) 0.5880(2) 0.23010(15)
C27_3 C 0.2002(6) 0.5500(2) 0.20192(14)
C28_3 C 0.3103(6) 0.4631(2) 0.18691(13)
H11_3 H 0.3365 0.4287 0.1956
C30_3 C 0.4049(5) 0.4372(2) 0.11887(14)
C31_3 C 0.2940(7) 0.5298(2) 0.13530(16)
H12_3 H 0.3124 0.5406 0.1092
C38_3 C 0.2456(6) 0.5005(2) 0.21387(14)
H18_3 H 0.2341 0.4909 0.2405
C39_3 C 0.1423(7) 0.6441(2) 0.22694(15)
H19_3 H 0.2060 0.6581 0.2068
C41_3 C 0.0696(7) 0.6784(2) 0.25285(17)
H21_3 H 0.0883 0.7151 0.2504
C49_3 C 0.2272(7) 0.5648(2) 0.16174(15)
H28_3 H 0.1989 0.5991 0.1532
N11_2 N 0.6338(5) 0.31735(16) 0.06643(10)
N12_2 N 0.7633(5) 0.40531(17) 0.10116(12)
N2_3 N 0.9300(5) 0.21038(17) 0.16452(11)
H1_3 H 0.9129 0.1773 0.1584
C2_3 C 0.8769(6) 0.2545(2) 0.14446(13)
C3_3 C 0.9338(5) 0.2989(2) 0.16435(14)
C9_3 C 0.7723(5) 0.2581(2) 0.11024(13)
C16_3 C 0.7364(5) 0.31056(19) 0.09726(12)
C17_3 C 0.7108(5) 0.2136(2) 0.08935(13)
H6_3 H 0.7387 0.1787 0.0963
C20_3 C 0.8028(5) 0.3572(2) 0.11656(14)
C25_3 C 0.6082(5) 0.2234(2) 0.05830(15)
H10_3 H 0.5629 0.1951 0.0442
C29_3 C 0.9032(6) 0.3521(2) 0.15019(14)
C34_3 C 0.5726(6) 0.27703(19) 0.04815(12)
H14_3 H 0.5020 0.2835 0.0274
C40_3 C 0.9183(7) 0.4487(2) 0.15103(18)
H20_3 H 0.9574 0.4806 0.1617
C42_3 C 0.9588(7) 0.4010(2) 0.16795(18)
C47_3 C 0.8193(7) 0.4503(2) 0.11807(16)
H26_3 H 0.7911 0.4835 0.1074
Zn1_2 Zn 0.01199(6) 0.38715(2) 0.94472(2)
O2_3 O 0.2083(4) 0.40689(15) 0.89387(11)
N2_4 N 0.5700(5) 0.71038(17) 0.66452(11)
H1_4 H 0.5871 0.6773 0.6584
O3_3 O 0.0745(4) 0.46681(13) 0.93002(10)
N5_2 N 0.8662(5) 0.81735(16) 0.56643(10)
O5_3 O 0.1783(5) 0.37034(17) 0.98640(12)
N6_2 N 0.4797(5) 0.78363(19) 0.69723(12)
C2_4 C 0.6231(6) 0.7545(2) 0.64446(13)
C3_4 C 0.5662(5) 0.7989(2) 0.66435(14)
C9_4 C 0.7277(5) 0.7581(2) 0.61024(13)
N8_2 N 0.7367(5) 0.90531(17) 0.60116(12)
C11_3 C 0.1640(6) 0.4542(2) 0.90116(16)
C14_2 C 0.4838(6) 0.7292(2) 0.69644(14)
C15_2 C 0.4160(6) 0.6930(2) 0.72613(15)
C16_4 C 0.7636(5) 0.81056(19) 0.59726(12)
C17_4 C 0.7892(5) 0.7136(2) 0.58935(13)
H6_4 H 0.7613 0.6787 0.5963
C19_3 C 0.2093(6) 0.4987(2) 0.87246(15)
C20_4 C 0.6972(5) 0.8572(2) 0.61656(14)
C25_4 C 0.8918(5) 0.7234(2) 0.55830(15)
H10_4 H 0.9371 0.6951 0.5442
C29_4 C 0.5968(6) 0.8521(2) 0.65019(14)
C34_4 C 0.9274(6) 0.77703(19) 0.54815(12)
H14_4 H 0.9980 0.7835 0.5274
C35_2 C 0.3924(6) 0.6381(2) 0.71722(15)
H15_2 H 0.4089 0.6260 0.6914
C36_3 C 0.2968(8) 0.3919(2) 0.99951(17)
H16_3 H 0.3122 0.4277 0.9923
C37_3 C 0.3148(6) 0.4891(2) 0.84218(15)
H17_3 H 0.3644 0.4557 0.8405
C40_4 C 0.5817(7) 0.9487(2) 0.65103(18)
H20_4 H 0.5426 0.9806 0.6617
C42_4 C 0.5412(7) 0.9010(2) 0.66795(18)
H22_2 H 0.4784 0.9001 0.6907
C43_2 C 0.3486(6) 0.5273(2) 0.81450(17)
H23_2 H 0.4185 0.5190 0.7939
C44_2 C 0.1736(9) 0.5881(3) 0.84727(19)
H24_2 H 0.1238 0.6214 0.8489
C46_2 C 0.2820(7) 0.5782(2) 0.81599(17)
C47_4 C 0.6807(7) 0.9503(2) 0.61807(16)
H26_4 H 0.7089 0.9835 0.6074
C48_2 C 0.1403(8) 0.5499(2) 0.87499(18)
H27_2 H 0.0712 0.5578 0.8958
C50_2 C 0.3773(10) 0.7092(3) 0.76338(19)
H29_2 H 0.3829 0.7456 0.7696
C51_2 C 0.3190(8) 0.6193(2) 0.78513(17)
C53_2 C 0.3461(7) 0.6027(2) 0.74566(17)
H31_2 H 0.3321 0.5667 0.7390
C54_2 C 0.3296(12) 0.6730(3) 0.7925(2)
H32_2 H 0.3041 0.6858 0.8177
Zn5_2 Zn 0.92192(7) 0.90061(2) 0.55630(2)
N1_2 N 0.5074(4) 0.80383(16) 0.43183(10)
N3_2 N 0.6462(5) 0.88657(17) 0.39280(12)
C1_3 C 0.4383(5) 0.76509(19) 0.45173(13)
H2_3 H 0.3696 0.7746 0.4722
N4_3 N 0.8984(4) 0.75244(18) 0.30486(11)
N7_3 N 0.7936(4) 0.68289(16) 0.34041(10)
H3_3 H 0.7730 0.6506 0.3481
C4_3 C 0.6363(5) 0.73784(19) 0.39096(12)
C5_3 C 0.4609(5) 0.7100(2) 0.44416(15)
H4_3 H 0.4100 0.6838 0.4593
C6_3 C 0.6059(5) 0.79130(19) 0.40101(12)
C7_3 C 0.5615(6) 0.6964(2) 0.41345(13)
H5_3 H 0.5805 0.6604 0.4074
C8_3 C 0.6770(5) 0.83579(18) 0.37913(12)
C10_3 C 0.7401(5) 0.7298(2) 0.35737(13)
C12_3 C 0.8865(6) 0.6979(2) 0.30873(14)
C13_3 C 0.7762(5) 0.8268(2) 0.34637(13)
C21_3 C 0.9683(6) 0.6605(2) 0.28291(14)
C23_3 C 0.7072(6) 0.9280(2) 0.37309(15)
H8_3 H 0.6840 0.9625 0.3820
C24_3 C 0.8047(6) 0.9222(2) 0.33966(15)
H9_3 H 0.8455 0.9523 0.3268
C32_3 C 0.8397(6) 0.8709(2) 0.32591(14)
H13_3 H 0.9038 0.8659 0.3037
C33_3 C 0.8030(5) 0.7710(2) 0.33566(13)
C45_3 C 0.9497(7) 0.6051(2) 0.28615(16)
H25_3 H 0.8850 0.5916 0.3062
Zn3_2 Zn 0.48801(6) 0.88715(2) 0.44472(2)
C1_4 C 0.0617(5) 0.26509(19) 0.95173(13)
H2_4 H 0.1304 0.2746 0.9722
C5_4 C 0.0391(5) 0.2100(2) 0.94416(15)
H4_4 H 0.0900 0.1838 0.9593
O1_4 O 0.0517(4) 0.95659(14) 0.58507(9)
O4_4 O 0.0840(4) 0.88941(15) 0.62863(10)
C18_4 C 0.1648(6) 0.97728(19) 0.64751(13)
C28_4 C 0.1897(6) 0.9631(2) 0.68691(13)
H11_4 H 0.1635 0.9287 0.6956
C30_4 C 0.0951(5) 0.9372(2) 0.61887(14)
H18_4 H 0.2659 0.9909 0.7405
O9_2 O 0.1031(5) 0.87236(17) 0.52083(12)
O2_4 O 0.2917(4) 0.90689(15) 0.39387(11)
O3_4 O 0.4255(4) 0.96681(13) 0.43002(10)
O5_4 O 0.3217(5) 0.87034(17) 0.48640(12)
O6_3 O 0.6690(5) 0.89664(16) 0.48555(11)
C11_4 C 0.3360(6) 0.9542(2) 0.40116(16)
O8_4 O 0.8278(5) 0.95283(18) 0.51621(13)
C19_4 C 0.2907(6) 0.9987(2) 0.37246(15)
C36_4 C 0.2032(8) 0.8919(2) 0.49951(17)
H16_4 H 0.1878 0.9277 0.4923
C37_4 C 0.1852(6) 0.9891(2) 0.34218(15)
H17_4 H 0.1356 0.9557 0.3405
C52_3 C 0.7241(8) 0.9411(3) 0.49090(17)
H30_3 H 0.6863 0.9688 0.4749
O6_4 O 0.8310(5) 0.39664(16) 0.98555(11)
C52_4 C 0.7759(8) 0.4411(3) 0.99090(17)
H30_4 H 0.8137 0.4688 0.9749
N9_2 N 0.9926(4) 0.30383(16) 0.93183(10)
N10_2 N 0.8538(5) 0.38657(17) 0.89280(12)
N4_4 N 0.6016(4) 0.25244(18) 0.80486(11)
N7_4 N 0.7064(4) 0.18289(16) 0.84041(10)
H3_4 H 0.7270 0.1506 0.8481
C4_4 C 0.8637(5) 0.23784(19) 0.89096(12)
C6_4 C 0.8941(5) 0.29130(19) 0.90101(12)
C7_4 C 0.9385(6) 0.1964(2) 0.91345(13)
H5_4 H 0.9195 0.1604 0.9074
C8_4 C 0.8230(5) 0.33579(18) 0.87913(12)
C10_4 C 0.7599(5) 0.2298(2) 0.85737(13)
C12_4 C 0.6135(6) 0.1979(2) 0.80873(14)
C13_4 C 0.7238(5) 0.3268(2) 0.84637(13)
C21_4 C 0.5317(6) 0.1605(2) 0.78291(14)
C22_4 C 0.4760(6) 0.0690(2) 0.76053(15)
H7_4 H 0.4922 0.0323 0.7636
C23_4 C 0.7928(6) 0.4280(2) 0.87309(15)
H8_4 H 0.8160 0.4625 0.8820
C24_4 C 0.6953(6) 0.4222(2) 0.83966(15)
H9_4 H 0.6545 0.4523 0.8268
C26_4 C 0.3771(6) 0.0880(2) 0.73010(15)
C27_4 C 0.2998(6) 0.0500(2) 0.70192(14)
C31_4 C 0.2060(7) 0.0298(2) 0.63530(16)
H12_4 H 0.1876 0.0406 0.6092
C32_4 C 0.6603(6) 0.3709(2) 0.82591(14)
H13_4 H 0.5962 0.3659 0.8037
C33_4 C 0.6970(5) 0.2710(2) 0.83566(13)
C38_4 C 0.2544(6) 0.0005(2) 0.71387(14)
C39_4 C 0.3577(7) 0.1441(2) 0.72694(15)
H19_4 H 0.2940 0.1581 0.7068
C41_4 C 0.4304(7) 0.1784(2) 0.75285(17)
H21_4 H 0.4117 0.2151 0.7504
C45_4 C 0.5503(7) 0.1051(2) 0.78615(16)
H25_4 H 0.6150 0.0916 0.8062
C49_4 C 0.2728(7) 0.0648(2) 0.66174(15)
H28_4 H 0.3011 0.0991 0.6532
N6_3 N 0.0203(5) 0.28363(19) 0.19723(12)
C14_3 C 0.0162(6) 0.2292(2) 0.19644(14)
C15_3 C 0.0840(6) 0.1930(2) 0.22613(15)
C35_3 C 0.1076(6) 0.1381(2) 0.21722(15)
H15_3 H 0.0911 0.1260 0.1914
H22_3 H 0.0216 0.4001 0.1907
C43_3 C 0.1514(6) 0.0273(2) 0.31450(17)
H23_3 H 0.0815 0.0190 0.2939
C44_3 C 0.3264(9) 0.0881(3) 0.34727(19)
H24_3 H 0.3762 0.1214 0.3489
C46_3 C 0.2180(7) 0.0782(2) 0.31599(17)
C48_3 C 0.3597(8) 0.0499(2) 0.37499(18)
H27_3 H 0.4288 0.0578 0.3958
C50_3 C 0.1227(10) 0.2092(3) 0.26338(19)
H29_3 H 0.1171 0.2456 0.2696
C51_3 C 0.1810(8) 0.1193(2) 0.28513(17)
C53_3 C 0.1539(7) 0.1027(2) 0.24566(17)
H31_3 H 0.1679 0.0667 0.2390
C54_3 C 0.1704(12) 0.1730(3) 0.2925(2)
H32_3 H 0.1959 0.1858 0.3177
N6_4 N 0.9797(5) 0.71637(19) 0.69723(12)
C14_4 C 0.9838(6) 0.7708(2) 0.69644(14)
C15_4 C 0.9160(6) 0.8070(2) 0.72613(15)
C35_4 C 0.8924(6) 0.8619(2) 0.71722(15)
H15_4 H 0.9089 0.8740 0.6914
H22_4 H 0.9784 0.5999 0.6907
C43_4 C 0.8486(6) 0.9727(2) 0.81450(17)
H23_4 H 0.9185 0.9810 0.7939
C44_4 C 0.6736(9) 0.9119(3) 0.84727(19)
H24_4 H 0.6238 0.8786 0.8489
C46_4 C 0.7820(7) 0.9218(2) 0.81599(17)
C48_4 C 0.6403(8) 0.9501(2) 0.87499(18)
H27_4 H 0.5712 0.9422 0.8958
C50_4 C 0.8773(10) 0.7908(3) 0.76338(19)
H29_4 H 0.8829 0.7544 0.7696
C51_4 C 0.8190(8) 0.8807(2) 0.78513(17)
C53_4 C 0.8461(7) 0.8973(2) 0.74566(17)
H31_4 H 0.8321 0.9333 0.7390
C54_4 C 0.8296(12) 0.8270(3) 0.7925(2)
H32_4 H 0.8041 0.8142 0.8177
loop_
_geom_bond_atom_site_label_1
_geom_bond_atom_site_label_2
_geom_bond_site_symmetry_1
_geom_bond_site_symmetry_2
N1 C1 1_555 1_555
N3 C8 1_555 1_555
C1 H2 1_555 1_555
N4 C12 1_555 1_555
N7 H3 1_555 1_555
C4 C6 1_555 1_555
C5 C1 1_555 1_555
H4 C5 1_555 1_555
C6 N1 1_555 1_555
C7 C4 1_555 1_555
H5 C7 1_555 1_555
C8 C6 1_555 1_555
C10 N7 1_555 1_555
C12 N7 1_555 1_555
C13 C8 1_555 1_555
C21 C12 1_555 1_555
C23 N3 1_555 1_555
H8 C23 1_555 1_555
C24 C23 1_555 1_555
H9 C24 1_555 1_555
C32 C13 1_555 1_555
H13 C32 1_555 1_555
C33 N4 1_555 1_555
C45 C21 1_555 1_555
H25 C45 1_555 1_555
Zn3 N1 1_555 1_555
N3 Zn3 1_555 1_555
C4 C10 1_555 1_555
C5 C7 1_555 1_555
C10 C33 1_555 1_555
C13 C33 1_555 1_555
C24 C32 1_555 1_555
Zn3 O2 1_555 1_555
O2 C11 1_555 1_555
O3 Zn3 1_555 1_555
O5 Zn3 1_555 1_555
O6 Zn3 1_555 1_555
C11 O3 1_555 1_555
C19 C11 1_555 1_555
C36 O5 1_555 1_555
H16 C36 1_555 1_555
C37 C19 1_555 1_555
H17 C37 1_555 1_555
C52 O6 1_555 1_555
H30 C52 1_555 1_555
Zn2 O1 1_555 1_555
O1 C30 1_555 1_555
O4 C30 1_555 1_555
O8 Zn2 1_555 1_555
C18 C28 1_555 1_555
C22 H7 1_555 1_555
C26 C22 1_555 1_555
C27 C26 1_555 1_555
C28 H11 1_555 1_555
C30 C18 1_555 1_555
C31 C18 1_555 1_555
H12 C31 1_555 1_555
C38 C27 1_555 1_555
H18 C38 1_555 1_555
C39 C26 1_555 1_555
H19 C39 1_555 1_555
H21 C41 1_555 1_555
C49 C27 1_555 1_555
H28 C49 1_555 1_555
C52_2 O6_2 1_555 1_555
H30_2 C52_2 1_555 1_555
N11 Zn2 1_555 1_555
O9 Zn2 1_555 1_555
N12 Zn2 1_555 1_555
O8 C52_2 1_555 1_555
C28 C38 1_555 1_555
C31 C49 1_555 1_555
C39 C41 1_555 1_555
Zn1 O2_2 1_555 1_555
O2_2 C11_2 1_555 1_555
N2 H1 1_555 1_555
O3_2 Zn1 1_555 1_555
N5 C16 1_555 1_555
O5_2 Zn1 1_555 1_555
N6 C3 1_555 1_555
C2 N2 1_555 1_555
C3 C2 1_555 1_555
O9 C36_2 1_555 1_555
C9 C2 1_555 1_555
N8 C20 1_555 1_555
C11_2 O3_2 1_555 1_555
C14 N2 1_555 1_555
C15 C14 1_555 1_555
C16 C9 1_555 1_555
C17 C9 1_555 1_555
H6 C17 1_555 1_555
C19_2 C11_2 1_555 1_555
C20 C16 1_555 1_555
C25 C17 1_555 1_555
H10 C25 1_555 1_555
C29 C3 1_555 1_555
C34 N5 1_555 1_555
H14 C34 1_555 1_555
C35 C15 1_555 1_555
H15 C35 1_555 1_555
C36_2 O5_2 1_555 1_555
H16_2 C36_2 1_555 1_555
C37_2 C19_2 1_555 1_555
H17_2 C37_2 1_555 1_555
C40 H20 1_555 1_555
C42 C29 1_555 1_555
H22 C42 1_555 1_555
C43 C37_2 1_555 1_555
H23 C43 1_555 1_555
C44 H24 1_555 1_555
C46 C43 1_555 1_555
C47 N8 1_555 1_555
H26 C47 1_555 1_555
C48 C19_2 1_555 1_555
H27 C48 1_555 1_555
C50 C15 1_555 1_555
H29 C50 1_555 1_555
C51 C46 1_555 1_555
C53 C35 1_555 1_555
H31 C53 1_555 1_555
C54 C50 1_555 1_555
H32 C54 1_555 1_555
Zn5 N5 1_555 1_555
N6 C14 1_555 1_555
N8 Zn5 1_555 1_555
C20 C29 1_555 1_555
C25 C34 1_555 1_555
C40 C42 1_555 1_555
C40 C47 1_555 1_555
C44 C46 1_555 1_555
C44 C48 1_555 1_555
C51 C53 1_555 1_555
C51 C54 1_555 1_555
N2_2 H1_2 1_555 1_555
N11 C16_2 1_555 1_555
C2_2 N2_2 1_555 1_555
C3_2 C2_2 1_555 1_555
C9_2 C2_2 1_555 1_555
N12 C20_2 1_555 1_555
C16_2 C9_2 1_555 1_555
C17_2 C9_2 1_555 1_555
H6_2 C17_2 1_555 1_555
C20_2 C16_2 1_555 1_555
C25_2 C17_2 1_555 1_555
H10_2 C25_2 1_555 1_555
C29_2 C3_2 1_555 1_555
C34_2 N11 1_555 1_555
H14_2 C34_2 1_555 1_555
C40_2 H20_2 1_555 1_555
C42_2 C29_2 1_555 1_555
C47_2 N12 1_555 1_555
H26_2 C47_2 1_555 1_555
C20_2 C29_2 1_555 1_555
C25_2 C34_2 1_555 1_555
C40_2 C42_2 1_555 1_555
C40_2 C47_2 1_555 1_555
O8_2 Zn5 1_555 1_555
O1_2 C30_2 1_555 1_555
O4_2 C30_2 1_555 1_555
C18_2 C28_2 1_555 1_555
C28_2 H11_2 1_555 1_555
C30_2 C18_2 1_555 1_555
N10 C8_2 1_555 1_555
N4_2 C12_2 1_555 1_555
N7_2 H3_2 1_555 1_555
C4_2 C6_2 1_555 1_555
C6_2 N9 1_555 1_555
C7_2 C4_2 1_555 1_555
H5_2 C7_2 1_555 1_555
C8_2 C6_2 1_555 1_555
C10_2 N7_2 1_555 1_555
C12_2 N7_2 1_555 1_555
C13_2 C8_2 1_555 1_555
C21_2 C12_2 1_555 1_555
C22_2 H7_2 1_555 1_555
C23_2 N10 1_555 1_555
H8_2 C23_2 1_555 1_555
C24_2 C23_2 1_555 1_555
H9_2 C24_2 1_555 1_555
C26_2 C22_2 1_555 1_555
C27_2 C26_2 1_555 1_555
H12_2 C31_2 1_555 1_555
C32_2 C13_2 1_555 1_555
H13_2 C32_2 1_555 1_555
C33_2 N4_2 1_555 1_555
C38_2 C27_2 1_555 1_555
C39_2 C26_2 1_555 1_555
H19_2 C39_2 1_555 1_555
C41_2 C21_2 1_555 1_555
H21_2 C41_2 1_555 1_555
C45_2 C21_2 1_555 1_555
H25_2 C45_2 1_555 1_555
C49_2 C27_2 1_555 1_555
H28_2 C49_2 1_555 1_555
C4_2 C10_2 1_555 1_555
C10_2 C33_2 1_555 1_555
C13_2 C33_2 1_555 1_555
C22_2 C45_2 1_555 1_555
C24_2 C32_2 1_555 1_555
C31_2 C49_2 1_555 1_555
C39_2 C41_2 1_555 1_555
C1_2 H2_2 1_555 1_555
C5_2 C1_2 1_555 1_555
H4_2 C5_2 1_555 1_555
Zn4 O7_2 1_555 1_555
Zn4 O1_3 1_555 1_555
O1_3 C30_3 1_555 1_555
O4_3 C30_3 1_555 1_555
O8_3 Zn4 1_555 1_555
C18_3 C28_3 1_555 1_555
C22_3 H7_3 1_555 1_555
C26_3 C22_3 1_555 1_555
C27_3 C26_3 1_555 1_555
C28_3 H11_3 1_555 1_555
C30_3 C18_3 1_555 1_555
C31_3 C18_3 1_555 1_555
H12_3 C31_3 1_555 1_555
C38_3 C27_3 1_555 1_555
H18_3 C38_3 1_555 1_555
C39_3 C26_3 1_555 1_555
H19_3 C39_3 1_555 1_555
H21_3 C41_3 1_555 1_555
C49_3 C27_3 1_555 1_555
H28_3 C49_3 1_555 1_555
N11_2 Zn4 1_555 1_555
N12_2 Zn4 1_555 1_555
C28_3 C38_3 1_555 1_555
C31_3 C49_3 1_555 1_555
C39_3 C41_3 1_555 1_555
N2_3 H1_3 1_555 1_555
N11_2 C16_3 1_555 1_555
C2_3 N2_3 1_555 1_555
C3_3 C2_3 1_555 1_555
C9_3 C2_3 1_555 1_555
N12_2 C20_3 1_555 1_555
C16_3 C9_3 1_555 1_555
C17_3 C9_3 1_555 1_555
H6_3 C17_3 1_555 1_555
C20_3 C16_3 1_555 1_555
C25_3 C17_3 1_555 1_555
H10_3 C25_3 1_555 1_555
C29_3 C3_3 1_555 1_555
C34_3 N11_2 1_555 1_555
H14_3 C34_3 1_555 1_555
C40_3 H20_3 1_555 1_555
C42_3 C29_3 1_555 1_555
C47_3 N12_2 1_555 1_555
H26_3 C47_3 1_555 1_555
C20_3 C29_3 1_555 1_555
C25_3 C34_3 1_555 1_555
C40_3 C42_3 1_555 1_555
C40_3 C47_3 1_555 1_555
Zn1_2 O2_3 1_555 1_555
O2_3 C11_3 1_555 1_555
N2_4 H1_4 1_555 1_555
O3_3 Zn1_2 1_555 1_555
N5_2 C16_4 1_555 1_555
O5_3 Zn1_2 1_555 1_555
N6_2 C3_4 1_555 1_555
C2_4 N2_4 1_555 1_555
C3_4 C2_4 1_555 1_555
C9_4 C2_4 1_555 1_555
N8_2 C20_4 1_555 1_555
C11_3 O3_3 1_555 1_555
C14_2 N2_4 1_555 1_555
C15_2 C14_2 1_555 1_555
C16_4 C9_4 1_555 1_555
C17_4 C9_4 1_555 1_555
H6_4 C17_4 1_555 1_555
C19_3 C11_3 1_555 1_555
C20_4 C16_4 1_555 1_555
C25_4 C17_4 1_555 1_555
H10_4 C25_4 1_555 1_555
C29_4 C3_4 1_555 1_555
C34_4 N5_2 1_555 1_555
H14_4 C34_4 1_555 1_555
C35_2 C15_2 1_555 1_555
H15_2 C35_2 1_555 1_555
C36_3 O5_3 1_555 1_555
H16_3 C36_3 1_555 1_555
C37_3 C19_3 1_555 1_555
H17_3 C37_3 1_555 1_555
C40_4 H20_4 1_555 1_555
C42_4 C29_4 1_555 1_555
H22_2 C42_4 1_555 1_555
C43_2 C37_3 1_555 1_555
H23_2 C43_2 1_555 1_555
C44_2 H24_2 1_555 1_555
C46_2 C43_2 1_555 1_555
C47_4 N8_2 1_555 1_555
H26_4 C47_4 1_555 1_555
C48_2 C19_3 1_555 1_555
H27_2 C48_2 1_555 1_555
C50_2 C15_2 1_555 1_555
H29_2 C50_2 1_555 1_555
C51_2 C46_2 1_555 1_555
C53_2 C35_2 1_555 1_555
H31_2 C53_2 1_555 1_555
C54_2 C50_2 1_555 1_555
H32_2 C54_2 1_555 1_555
Zn5_2 N5_2 1_555 1_555
N6_2 C14_2 1_555 1_555
N8_2 Zn5_2 1_555 1_555
C20_4 C29_4 1_555 1_555
C25_4 C34_4 1_555 1_555
C40_4 C42_4 1_555 1_555
C40_4 C47_4 1_555 1_555
C44_2 C46_2 1_555 1_555
C44_2 C48_2 1_555 1_555
C51_2 C53_2 1_555 1_555
C51_2 C54_2 1_555 1_555
N1_2 C1_3 1_555 1_555
N3_2 C8_3 1_555 1_555
C1_3 H2_3 1_555 1_555
N4_3 C12_3 1_555 1_555
N7_3 H3_3 1_555 1_555
C4_3 C6_3 1_555 1_555
C5_3 C1_3 1_555 1_555
H4_3 C5_3 1_555 1_555
C6_3 N1_2 1_555 1_555
C7_3 C4_3 1_555 1_555
H5_3 C7_3 1_555 1_555
C8_3 C6_3 1_555 1_555
C10_3 N7_3 1_555 1_555
C12_3 N7_3 1_555 1_555
C13_3 C8_3 1_555 1_555
C21_3 C12_3 1_555 1_555
C23_3 N3_2 1_555 1_555
H8_3 C23_3 1_555 1_555
C24_3 C23_3 1_555 1_555
H9_3 C24_3 1_555 1_555
C32_3 C13_3 1_555 1_555
H13_3 C32_3 1_555 1_555
C33_3 N4_3 1_555 1_555
C45_3 C21_3 1_555 1_555
H25_3 C45_3 1_555 1_555
Zn3_2 N1_2 1_555 1_555
N3_2 Zn3_2 1_555 1_555
C4_3 C10_3 1_555 1_555
C5_3 C7_3 1_555 1_555
C10_3 C33_3 1_555 1_555
C13_3 C33_3 1_555 1_555
C24_3 C32_3 1_555 1_555
C1_4 H2_4 1_555 1_555
C5_4 C1_4 1_555 1_555
H4_4 C5_4 1_555 1_555
O1_4 C30_4 1_555 1_555
O4_4 C30_4 1_555 1_555
C18_4 C28_4 1_555 1_555
C28_4 H11_4 1_555 1_555
C30_4 C18_4 1_555 1_555
Zn3_2 O2_4 1_555 1_555
O2_4 C11_4 1_555 1_555
O3_4 Zn3_2 1_555 1_555
O5_4 Zn3_2 1_555 1_555
O6_3 Zn3_2 1_555 1_555
O9_2 C36_4 1_555 1_555
C11_4 O3_4 1_555 1_555
O8_4 Zn5_2 1_555 1_555
C19_4 C11_4 1_555 1_555
C36_4 O5_4 1_555 1_555
H16_4 C36_4 1_555 1_555
C37_4 C19_4 1_555 1_555
H17_4 C37_4 1_555 1_555
C52_3 O6_3 1_555 1_555
H30_3 C52_3 1_555 1_555
O8_4 C52_3 1_555 1_555
C52_4 O6_4 1_555 1_555
H30_4 C52_4 1_555 1_555
N10_2 C8_4 1_555 1_555
N4_4 C12_4 1_555 1_555
N7_4 H3_4 1_555 1_555
C4_4 C6_4 1_555 1_555
C6_4 N9_2 1_555 1_555
C7_4 C4_4 1_555 1_555
H5_4 C7_4 1_555 1_555
C8_4 C6_4 1_555 1_555
C10_4 N7_4 1_555 1_555
C12_4 N7_4 1_555 1_555
C13_4 C8_4 1_555 1_555
C21_4 C12_4 1_555 1_555
C22_4 H7_4 1_555 1_555
C23_4 N10_2 1_555 1_555
H8_4 C23_4 1_555 1_555
C24_4 C23_4 1_555 1_555
H9_4 C24_4 1_555 1_555
C26_4 C22_4 1_555 1_555
C27_4 C26_4 1_555 1_555
H12_4 C31_4 1_555 1_555
C32_4 C13_4 1_555 1_555
H13_4 C32_4 1_555 1_555
C33_4 N4_4 1_555 1_555
C38_4 C27_4 1_555 1_555
C39_4 C26_4 1_555 1_555
H19_4 C39_4 1_555 1_555
C41_4 C21_4 1_555 1_555
H21_4 C41_4 1_555 1_555
C45_4 C21_4 1_555 1_555
H25_4 C45_4 1_555 1_555
C49_4 C27_4 1_555 1_555
H28_4 C49_4 1_555 1_555
C4_4 C10_4 1_555 1_555
C10_4 C33_4 1_555 1_555
C13_4 C33_4 1_555 1_555
C22_4 C45_4 1_555 1_555
C24_4 C32_4 1_555 1_555
C31_4 C49_4 1_555 1_555
C39_4 C41_4 1_555 1_555
C15_3 C14_3 1_555 1_555
C35_3 C15_3 1_555 1_555
H15_3 C35_3 1_555 1_555
H23_3 C43_3 1_555 1_555
C44_3 H24_3 1_555 1_555
C46_3 C43_3 1_555 1_555
H27_3 C48_3 1_555 1_555
C50_3 C15_3 1_555 1_555
H29_3 C50_3 1_555 1_555
C51_3 C46_3 1_555 1_555
C53_3 C35_3 1_555 1_555
H31_3 C53_3 1_555 1_555
C54_3 C50_3 1_555 1_555
H32_3 C54_3 1_555 1_555
N6_3 C14_3 1_555 1_555
C44_3 C46_3 1_555 1_555
C44_3 C48_3 1_555 1_555
C51_3 C53_3 1_555 1_555
C51_3 C54_3 1_555 1_555
C15_4 C14_4 1_555 1_555
C35_4 C15_4 1_555 1_555
H15_4 C35_4 1_555 1_555
H23_4 C43_4 1_555 1_555
C44_4 H24_4 1_555 1_555
C46_4 C43_4 1_555 1_555
H27_4 C48_4 1_555 1_555
C50_4 C15_4 1_555 1_555
H29_4 C50_4 1_555 1_555
C51_4 C46_4 1_555 1_555
C53_4 C35_4 1_555 1_555
H31_4 C53_4 1_555 1_555
C54_4 C50_4 1_555 1_555
H32_4 C54_4 1_555 1_555
N6_4 C14_4 1_555 1_555
C44_4 C46_4 1_555 1_555
C44_4 C48_4 1_555 1_555
C51_4 C53_4 1_555 1_555
C51_4 C54_4 1_555 1_555

#END
