
###############################################################################
#
# This file contains modified crystal structure data generated from the
# MOF subset of the Cambridge Structural Database (CSD) v543 
# hosted by the Cambridge Crystallographic Data Centre (CCDC).
#
# This work is licensed under the Creative Commons
# Attribution-NonCommercial-ShareAlike 4.0 International License.
# To view a copy of this license, visit
# http://creativecommons.org/licenses/by-nc-sa/4.0/
# or send a letter to
# Creative Commons, PO Box 1866, Mountain View, CA 94042, USA.
#
# CIF created using the CSD Python API on 29 September 2022
# The structure has been converted into the P1 space group
# The structure has a 3D framework
# The original CSD entry PUXDOE is in the orthorhombic crystal system
# The framework has been calculated to contain at least 10.0% void space
# The void calculation uses a probe of radius 1.32A, grid spacing 0.4
#
###############################################################################

data_PUXDOE
_chemical_formula_moiety         '(C832 H480 Mn16 N128 O64)n'
_symmetry_cell_setting           triclinic
_symmetry_space_group_name_H-M   'P 1'
_symmetry_Int_Tables_number      1
_space_group_name_Hall           'P 1'
loop_
_symmetry_equiv_pos_site_id
_symmetry_equiv_pos_as_xyz
1 x,y,z
_cell_length_a                   17.6218(16)
_cell_length_b                   36.0338(19)
_cell_length_c                   50.356(2)
_cell_angle_alpha                90
_cell_angle_beta                 90
_cell_angle_gamma                90
_cell_volume                     31975.1
loop_
_atom_site_label
_atom_site_type_symbol
_atom_site_fract_x
_atom_site_fract_y
_atom_site_fract_z
N5 N 0.5840(3) 0.06659(10) 0.34913(6)
N6 N 0.5311(2) 0.13196(10) 0.36775(7)
N7 N 0.3642(3) 0.05899(11) 0.42623(7)
H16 H 0.3378 0.0747 0.4351
N8 N 0.4095(3) 0.00428(11) 0.41152(8)
C29 C 0.5314(3) 0.06542(12) 0.36850(8)
C30 C 0.4173(3) 0.06682(13) 0.40772(8)
C31 C 0.4460(3) 0.03291(13) 0.39871(9)
C32 C 0.6098(3) 0.03448(12) 0.33966(8)
H17 H 0.6453 0.0351 0.3260
C33 C 0.4460(3) 0.10171(12) 0.39816(8)
C34 C 0.5866(4) 0.00028(13) 0.34909(10)
C35 C 0.3607(4) 0.02096(14) 0.42808(10)
C36 C 0.5022(3) 0.10070(12) 0.37849(7)
C38 C 0.4213(4) 0.13647(14) 0.40714(9)
H20 H 0.3848 0.1381 0.4204
C39 C 0.5029(3) 0.03128(12) 0.37868(8)
C40 C 0.2064(4) 0.00287(14) 0.47797(10)
H21 H 0.1735 0.0166 0.4886
C41 C 0.3066(3) 0.00225(14) 0.44549(10)
C42 C 0.4512(4) 0.16795(15) 0.39622(10)
H22 H 0.4353 0.1912 0.4019
C44 C 0.2591(4) 0.02130(15) 0.46231(10)
H23 H 0.2623 0.0470 0.4632
C46 C 0.5049(3) 0.16466(13) 0.37681(10)
H25 H 0.5245 0.1863 0.3694
Mn3 Mn 0.6250 0.1250 0.33545(2)
N1 N 0.6660(3) 0.18341(10) 0.34913(6)
N2 N 0.7189(2) 0.11804(10) 0.36775(7)
N3 N 0.8858(3) 0.19101(11) 0.42623(7)
H1 H 0.9122 0.1753 0.4351
N4 N 0.8405(3) 0.24572(11) 0.41152(8)
C3 C 0.7186(3) 0.18458(12) 0.36850(8)
C4 C 0.8327(3) 0.18318(13) 0.40772(8)
C5 C 0.8040(3) 0.21709(13) 0.39871(9)
C6 C 0.6402(3) 0.21552(12) 0.33966(8)
H2 H 0.6047 0.2149 0.3260
C7 C 0.8040(3) 0.14829(12) 0.39816(8)
C8 C 0.6634(4) 0.24972(13) 0.34909(10)
H3 H 0.6427 0.2714 0.3422
C9 C 0.8893(4) 0.22904(14) 0.42808(10)
C10 C 0.7478(3) 0.14930(12) 0.37849(7)
C11 C 0.7162(4) 0.25135(13) 0.36827(10)
H4 H 0.7323 0.2743 0.3746
C12 C 0.8287(4) 0.11353(14) 0.40714(9)
H5 H 0.8652 0.1119 0.4204
C13 C 0.7471(3) 0.21872(12) 0.37868(8)
C15 C 0.9434(3) 0.24775(14) 0.44549(10)
C16 C 0.7988(4) 0.08205(15) 0.39622(10)
H7 H 0.8147 0.0588 0.4019
C18 C 0.9909(4) 0.22870(15) 0.46231(10)
H8 H 0.9877 0.2030 0.4632
C20 C 0.7451(3) 0.08534(13) 0.37681(10)
H10 H 0.7255 0.0637 0.3694
C23 C 0.9481(4) 0.28665(16) 0.44471(13)
H12 H 0.9163 0.3001 0.4336
O1 O 0.5656(2) 0.15742(8) 0.30640(6)
O2 O 0.4898(2) 0.10806(9) 0.30706(6)
N3_2 N 0.1358(3) 0.30899(11) 0.17623(7)
H1_2 H 0.1622 0.3247 0.1851
N4_2 N 0.0905(3) 0.25428(11) 0.16152(8)
C1 C 0.5064(3) 0.13987(13) 0.29882(8)
C2 C 0.4544(3) 0.15870(12) 0.27992(8)
C4_2 C 0.0827(3) 0.31682(13) 0.15772(8)
C5_2 C 0.0540(3) 0.28291(13) 0.14871(9)
C7_2 C 0.0540(3) 0.35171(12) 0.14816(8)
C9_2 C 0.1393(4) 0.27096(14) 0.17808(10)
C12_2 C 0.0787(4) 0.38647(14) 0.15714(9)
H5_2 H 0.1152 0.3881 0.1704
C14 C 0.2936(4) 0.25287(14) 0.22797(10)
H6 H 0.3265 0.2666 0.2386
C15_2 C 0.1934(3) 0.25225(14) 0.19549(10)
C16_2 C 0.0488(4) 0.41795(15) 0.14622(10)
H7_2 H 0.0647 0.4412 0.1519
C17 C 0.2982(4) 0.21461(15) 0.22816(11)
C18_2 C 0.2409(4) 0.27130(15) 0.21231(10)
H8_2 H 0.2377 0.2970 0.2132
C19 C 0.3914(4) 0.14157(15) 0.26997(10)
H9 H 0.3822 0.1170 0.2746
C21 C 0.3412(4) 0.15920(14) 0.25346(12)
H11 H 0.2982 0.1466 0.2477
C22 C 0.3528(4) 0.19490(14) 0.24522(10)
C23_2 C 0.1981(4) 0.21335(16) 0.19471(13)
H12_2 H 0.1663 0.1999 0.1836
C24 C 0.4674(4) 0.19407(15) 0.27079(13)
H13 H 0.5114 0.2063 0.2760
C25 C 0.2504(4) 0.19499(16) 0.21060(13)
H14 H 0.2540 0.1693 0.2097
C26 C 0.4181(4) 0.21179(17) 0.25439(14)
H15 H 0.4286 0.2360 0.2492
O3 O 0.6844(2) 0.09258(8) 0.30640(6)
O4 O 0.7602(2) 0.14194(9) 0.30706(6)
C27 C 0.7436(3) 0.11013(13) 0.29882(8)
C28 C 0.7956(3) 0.09130(12) 0.27992(8)
C43 C 0.9518(4) 0.03539(15) 0.22816(11)
C45 C 0.8586(4) 0.10843(15) 0.26997(10)
H24 H 0.8678 0.1330 0.2746
C47 C 0.9088(4) 0.09080(14) 0.25346(12)
H26 H 0.9518 0.1034 0.2477
C48 C 0.8972(4) 0.05510(14) 0.24522(10)
C50 C 0.7826(4) 0.05593(15) 0.27079(13)
H28 H 0.7386 0.0437 0.2760
C51 C 0.9996(4) 0.05501(16) 0.21060(13)
H29 H 0.9960 0.0807 0.2097
C52 C 0.8319(4) 0.03821(17) 0.25439(14)
H30 H 0.8214 0.0140 0.2492
O4_2 O 0.0102(2) 0.85806(9) 0.55706(6)
C28_2 C 0.0456(3) 0.90870(12) 0.52992(8)
H18 H 0.6073 0.9786 0.3422
C37 C 0.5338(4) 0.99865(13) 0.36827(10)
H19 H 0.5177 0.9757 0.3746
C43_2 C 0.2018(4) 0.96461(15) 0.47816(11)
C45_2 C 0.1086(4) 0.89157(15) 0.51997(10)
H24_2 H 0.1178 0.8670 0.5246
C47_2 C 0.1588(4) 0.90920(14) 0.50346(12)
H26_2 H 0.2018 0.8966 0.4977
C48_2 C 0.1472(4) 0.94490(14) 0.49522(10)
C49 C 0.3019(4) 0.96335(16) 0.44471(13)
H27 H 0.3337 0.9499 0.4336
C50_2 C 0.0326(4) 0.94407(15) 0.52079(13)
C51_2 C 0.2496(4) 0.94499(16) 0.46060(13)
H29_2 H 0.2460 0.9193 0.4597
C52_2 C 0.0819(4) 0.96179(17) 0.50439(14)
H30_2 H 0.0714 0.9860 0.4992
Mn1 Mn 0.8750 0.8750 0.58545(2)
O1_2 O 0.8156(2) 0.84258(8) 0.55640(6)
O2_2 O 0.7398(2) 0.89194(9) 0.55706(6)
N1_2 N 0.1660(3) 0.68341(10) 0.34913(6)
N2_2 N 0.2189(2) 0.61804(10) 0.36775(7)
N3_3 N 0.3858(3) 0.69101(11) 0.42623(7)
H1_3 H 0.4122 0.6753 0.4351
N4_3 N 0.3405(3) 0.74572(11) 0.41152(8)
C1_2 C 0.7564(3) 0.86013(13) 0.54882(8)
C2_2 C 0.7044(3) 0.84130(12) 0.52992(8)
C3_2 C 0.2186(3) 0.68458(12) 0.36850(8)
C4_3 C 0.3327(3) 0.68318(13) 0.40772(8)
C5_3 C 0.3040(3) 0.71709(13) 0.39871(9)
C6_2 C 0.1402(3) 0.71552(12) 0.33966(8)
H2_2 H 0.1047 0.7149 0.3260
C7_3 C 0.3040(3) 0.64829(12) 0.39816(8)
C8_2 C 0.1634(4) 0.74972(13) 0.34909(10)
H3_2 H 0.1427 0.7714 0.3422
C9_3 C 0.3893(4) 0.72904(14) 0.42808(10)
C10_2 C 0.2478(3) 0.64930(12) 0.37849(7)
C11_2 C 0.2162(4) 0.75135(13) 0.36827(10)
H4_2 H 0.2323 0.7743 0.3746
C12_3 C 0.3287(4) 0.61353(14) 0.40714(9)
H5_3 H 0.3652 0.6119 0.4204
C13_2 C 0.2471(3) 0.71872(12) 0.37868(8)
C14_2 C 0.5436(4) 0.74713(14) 0.47797(10)
H6_2 H 0.5765 0.7334 0.4886
C15_3 C 0.4434(3) 0.74775(14) 0.44549(10)
C16_3 C 0.2988(4) 0.58205(15) 0.39622(10)
H7_3 H 0.3147 0.5588 0.4019
C17_2 C 0.5482(4) 0.78539(15) 0.47816(11)
C18_3 C 0.4909(4) 0.72870(15) 0.46231(10)
H8_3 H 0.4877 0.7030 0.4632
C19_2 C 0.6414(4) 0.85843(15) 0.51997(10)
H9_2 H 0.6322 0.8830 0.5246
C20_2 C 0.2451(3) 0.58534(13) 0.37681(10)
H10_2 H 0.2255 0.5637 0.3694
C21_2 C 0.5912(4) 0.84080(14) 0.50346(12)
H11_2 H 0.5482 0.8534 0.4977
C22_2 C 0.6028(4) 0.80510(14) 0.49522(10)
C23_3 C 0.4481(4) 0.78665(16) 0.44471(13)
H12_3 H 0.4163 0.8001 0.4336
C24_2 C 0.7174(4) 0.80593(15) 0.52079(13)
H13_2 H 0.7614 0.7937 0.5260
C25_2 C 0.5004(4) 0.80501(16) 0.46060(13)
H14_2 H 0.5040 0.8307 0.4597
C26_2 C 0.6681(4) 0.78821(17) 0.50439(14)
H15_2 H 0.6786 0.7640 0.4992
O3_2 O 0.9344(2) 0.90742(8) 0.55640(6)
C27_2 C 0.9936(3) 0.88987(13) 0.54882(8)
H28_2 H 0.9886 0.9563 0.5260
Mn2 Mn 0.1250 0.6250 0.33545(2)
N9 N 0.8340(3) 0.93341(10) 0.59913(6)
N10 N 0.9160(3) 0.81659(10) 0.59913(6)
N11 N 0.7811(2) 0.86804(10) 0.61775(7)
N12 N 0.9689(2) 0.88196(10) 0.61775(7)
Mn1_2 Mn 0.8750 0.3750 0.08545(2)
O1_3 O 0.8156(2) 0.34258(8) 0.05640(6)
O2_3 O 0.7398(2) 0.39194(9) 0.05706(6)
C1_3 C 0.7564(3) 0.36013(13) 0.04882(8)
C2_3 C 0.7044(3) 0.34130(12) 0.02992(8)
C19_3 C 0.6414(4) 0.35843(15) 0.01997(10)
H9_3 H 0.6322 0.3830 0.0246
C21_3 C 0.5912(4) 0.34080(14) 0.00346(12)
C24_3 C 0.7174(4) 0.30593(15) 0.02079(13)
H13_3 H 0.7614 0.2937 0.0260
C26_3 C 0.6681(4) 0.28821(17) 0.00439(14)
O3_3 O 0.9344(2) 0.40742(8) 0.05640(6)
C27_3 C 0.9936(3) 0.38987(13) 0.04882(8)
H28_3 H 0.9886 0.4563 0.0260
N9_2 N 0.8340(3) 0.43341(10) 0.09913(6)
N10_2 N 0.9160(3) 0.31659(10) 0.09913(6)
N11_2 N 0.7811(2) 0.36804(10) 0.11775(7)
N12_2 N 0.9689(2) 0.38196(10) 0.11775(7)
N5_2 N 0.0840(3) 0.56659(10) 0.34913(6)
N6_2 N 0.0311(2) 0.63196(10) 0.36775(7)
C29_2 C 0.0314(3) 0.56542(12) 0.36850(8)
C32_2 C 0.1098(3) 0.53448(12) 0.33966(8)
H17_2 H 0.1453 0.5351 0.3260
C34_2 C 0.0866(4) 0.50028(13) 0.34909(10)
H18_2 H 0.1073 0.4786 0.3422
C36_2 C 0.0022(3) 0.60070(12) 0.37849(7)
C37_2 C 0.0338(4) 0.49865(13) 0.36827(10)
H19_2 H 0.0177 0.4757 0.3746
C39_2 C 0.0029(3) 0.53128(12) 0.37868(8)
C46_2 C 0.0049(3) 0.66466(13) 0.37681(10)
H25_2 H 0.0245 0.6863 0.3694
N7_2 N 0.6142(3) 0.94101(11) 0.67623(7)
H16_2 H 0.5878 0.9253 0.6851
N8_2 N 0.6595(3) 0.99572(11) 0.66152(8)
C29_3 C 0.7814(3) 0.93458(12) 0.61850(8)
C30_2 C 0.6673(3) 0.93318(13) 0.65772(8)
C31_2 C 0.6960(3) 0.96709(13) 0.64871(9)
C32_3 C 0.8598(3) 0.96552(12) 0.58966(8)
H17_3 H 0.8953 0.9649 0.5760
C33_2 C 0.6960(3) 0.89829(12) 0.64816(8)
C34_3 C 0.8366(4) 0.99972(13) 0.59909(10)
C35_2 C 0.6107(4) 0.97904(14) 0.67808(10)
C36_3 C 0.7522(3) 0.89930(12) 0.62849(7)
C38_2 C 0.6713(4) 0.86353(14) 0.65714(9)
H20_2 H 0.6348 0.8619 0.6704
C39_3 C 0.7529(3) 0.96872(12) 0.62868(8)
C40_2 C 0.4564(4) 0.99713(14) 0.72797(10)
H21_2 H 0.4235 0.9834 0.7386
C41_2 C 0.5566(3) 0.99775(14) 0.69549(10)
C42_2 C 0.7012(4) 0.83205(15) 0.64622(10)
H22_2 H 0.6853 0.8088 0.6519
C44_2 C 0.5091(4) 0.97870(15) 0.71231(10)
H23_2 H 0.5123 0.9530 0.7132
C46_3 C 0.7549(3) 0.83534(13) 0.62681(10)
H25_3 H 0.7745 0.8137 0.6194
O1_4 O 0.0656(2) 0.65742(8) 0.30640(6)
C1_4 C 0.0064(3) 0.63987(13) 0.29882(8)
H13_4 H 0.0114 0.7063 0.2760
O3_4 O 0.1844(2) 0.59258(8) 0.30640(6)
O4_3 O 0.2602(2) 0.64194(9) 0.30706(6)
N7_3 N 0.6142(3) 0.44101(11) 0.17623(7)
H16_3 H 0.5878 0.4253 0.1851
N8_3 N 0.6595(3) 0.49572(11) 0.16152(8)
C27_4 C 0.2436(3) 0.61013(13) 0.29882(8)
C28_3 C 0.2956(3) 0.59130(12) 0.27992(8)
C29_4 C 0.7814(3) 0.43458(12) 0.11850(8)
C30_3 C 0.6673(3) 0.43318(13) 0.15772(8)
C31_3 C 0.6960(3) 0.46709(13) 0.14871(9)
C32_4 C 0.8598(3) 0.46552(12) 0.08966(8)
H17_4 H 0.8953 0.4649 0.0760
C33_3 C 0.6960(3) 0.39829(12) 0.14816(8)
C34_4 C 0.8366(4) 0.49972(13) 0.09909(10)
H18_3 H 0.8573 0.5214 0.0922
C35_3 C 0.6107(4) 0.47904(14) 0.17808(10)
C36_4 C 0.7522(3) 0.39930(12) 0.12849(7)
C37_3 C 0.7838(4) 0.50135(13) 0.11827(10)
H19_3 H 0.7677 0.5243 0.1246
C38_3 C 0.6713(4) 0.36353(14) 0.15714(9)
H20_3 H 0.6348 0.3619 0.1704
C39_4 C 0.7529(3) 0.46872(12) 0.12868(8)
C40_3 C 0.4564(4) 0.49713(14) 0.22797(10)
H21_3 H 0.4235 0.4834 0.2386
C41_3 C 0.5566(3) 0.49775(14) 0.19549(10)
C42_3 C 0.7012(4) 0.33205(15) 0.14622(10)
H22_3 H 0.6853 0.3088 0.1519
C43_3 C 0.4518(4) 0.53539(15) 0.22816(11)
C44_3 C 0.5091(4) 0.47870(15) 0.21231(10)
H23_3 H 0.5123 0.4530 0.2132
C45_3 C 0.3586(4) 0.60843(15) 0.26997(10)
H24_3 H 0.3678 0.6330 0.2746
C46_4 C 0.7549(3) 0.33534(13) 0.12681(10)
H25_4 H 0.7745 0.3137 0.1194
C47_3 C 0.4088(4) 0.59080(14) 0.25346(12)
H26_3 H 0.4518 0.6034 0.2477
C48_3 C 0.3972(4) 0.55510(14) 0.24522(10)
C49_2 C 0.5519(4) 0.53665(16) 0.19471(13)
H27_2 H 0.5837 0.5501 0.1836
C50_3 C 0.2826(4) 0.55593(15) 0.27079(13)
H28_4 H 0.2386 0.5437 0.2760
C51_3 C 0.4996(4) 0.55501(16) 0.21060(13)
H29_3 H 0.4960 0.5807 0.2097
C52_3 C 0.3319(4) 0.53821(17) 0.25439(14)
H30_3 H 0.3214 0.5140 0.2492
C3_3 C 0.9686(3) 0.31542(12) 0.11850(8)
C6_3 C 0.8902(3) 0.28448(12) 0.08966(8)
H2_3 H 0.8547 0.2851 0.0760
C8_3 C 0.9134(4) 0.25028(13) 0.09909(10)
H3_3 H 0.8927 0.2286 0.0922
C10_3 C 0.9978(3) 0.35070(12) 0.12849(7)
C11_3 C 0.9662(4) 0.24865(13) 0.11827(10)
H4_3 H 0.9823 0.2257 0.1246
C13_3 C 0.9971(3) 0.28128(12) 0.12868(8)
C20_3 C 0.9951(3) 0.41466(13) 0.12681(10)
H10_3 H 0.9755 0.4363 0.1194
C3_4 C 0.9686(3) 0.81542(12) 0.61850(8)
C6_4 C 0.8902(3) 0.78448(12) 0.58966(8)
H2_4 H 0.8547 0.7851 0.5760
C8_4 C 0.9134(4) 0.75028(13) 0.59909(10)
H3_4 H 0.8927 0.7286 0.5922
C10_4 C 0.9978(3) 0.85070(12) 0.62849(7)
C11_4 C 0.9662(4) 0.74865(13) 0.61827(10)
H4_4 H 0.9823 0.7257 0.6246
C13_4 C 0.9971(3) 0.78128(12) 0.62868(8)
C20_4 C 0.9951(3) 0.91466(13) 0.62681(10)
H10_4 H 0.9755 0.9363 0.6194
O2_4 O 0.0102(2) 0.89194(9) 0.19294(6)
N1_3 N 0.5840(3) 0.68341(10) 0.40087(6)
N2_3 N 0.5311(2) 0.61804(10) 0.38225(7)
N3_4 N 0.3642(3) 0.69101(11) 0.32377(7)
H1_4 H 0.3378 0.6753 0.3149
N4_4 N 0.4095(3) 0.74572(11) 0.33848(8)
C2_4 C 0.0456(3) 0.84130(12) 0.22008(8)
C3_5 C 0.5314(3) 0.68458(12) 0.38150(8)
C4_4 C 0.4173(3) 0.68318(13) 0.34228(8)
C5_4 C 0.4460(3) 0.71709(13) 0.35129(9)
C6_5 C 0.6098(3) 0.71552(12) 0.41034(8)
H2_5 H 0.6453 0.7149 0.4240
C7_4 C 0.4460(3) 0.64829(12) 0.35184(8)
C8_5 C 0.5866(4) 0.74972(13) 0.40091(10)
H3_5 H 0.6073 0.7714 0.4078
C9_4 C 0.3607(4) 0.72904(14) 0.32192(10)
C10_5 C 0.5022(3) 0.64930(12) 0.37151(7)
C11_5 C 0.5338(4) 0.75135(13) 0.38173(10)
H4_5 H 0.5177 0.7743 0.3754
C12_4 C 0.4213(4) 0.61353(14) 0.34286(9)
H5_4 H 0.3848 0.6119 0.3296
C13_5 C 0.5029(3) 0.71872(12) 0.37132(8)
C14_3 C 0.2064(4) 0.74713(14) 0.27203(10)
H6_3 H 0.1735 0.7334 0.2614
C15_4 C 0.3066(3) 0.74775(14) 0.30451(10)
C16_4 C 0.4512(4) 0.58205(15) 0.35378(10)
H7_4 H 0.4353 0.5588 0.3481
C17_3 C 0.2018(4) 0.78539(15) 0.27184(11)
C18_4 C 0.2591(4) 0.72870(15) 0.28769(10)
H8_4 H 0.2623 0.7030 0.2868
C19_4 C 0.1086(4) 0.85843(15) 0.23003(10)
H9_4 H 0.1178 0.8830 0.2254
C20_5 C 0.5049(3) 0.58534(13) 0.37319(10)
H10_5 H 0.5245 0.5637 0.3806
C21_4 C 0.1588(4) 0.84080(14) 0.24654(12)
H11_3 H 0.2018 0.8534 0.2523
C22_3 C 0.1472(4) 0.80510(14) 0.25478(10)
C23_4 C 0.3019(4) 0.78665(16) 0.30529(13)
H12_4 H 0.3337 0.8001 0.3164
C24_4 C 0.0326(4) 0.80593(15) 0.22921(13)
C25_3 C 0.2496(4) 0.80501(16) 0.28940(13)
H14_3 H 0.2460 0.8307 0.2903
C26_4 C 0.0819(4) 0.78821(17) 0.24561(14)
H15_3 H 0.0714 0.7640 0.2508
Mn2_2 Mn 0.6250 0.6250 0.41455(2)
N5_3 N 0.6660(3) 0.56659(10) 0.40087(6)
N6_3 N 0.7189(2) 0.63196(10) 0.38225(7)
N7_4 N 0.8858(3) 0.55899(11) 0.32377(7)
H16_4 H 0.9122 0.5747 0.3149
N8_4 N 0.8405(3) 0.50428(11) 0.33848(8)
C29_5 C 0.7186(3) 0.56542(12) 0.38150(8)
C30_4 C 0.8327(3) 0.56682(13) 0.34228(8)
C31_4 C 0.8040(3) 0.53291(13) 0.35129(9)
C32_5 C 0.6402(3) 0.53448(12) 0.41034(8)
H17_5 H 0.6047 0.5351 0.4240
C33_4 C 0.8040(3) 0.60171(12) 0.35184(8)
C34_5 C 0.6634(4) 0.50028(13) 0.40091(10)
H18_4 H 0.6427 0.4786 0.4078
C35_4 C 0.8893(4) 0.52096(14) 0.32192(10)
C36_5 C 0.7478(3) 0.60070(12) 0.37151(7)
C37_4 C 0.7162(4) 0.49865(13) 0.38173(10)
H19_4 H 0.7323 0.4757 0.3754
C38_4 C 0.8287(4) 0.63647(14) 0.34286(9)
H20_4 H 0.8652 0.6381 0.3296
C39_5 C 0.7471(3) 0.53128(12) 0.37132(8)
C41_4 C 0.9434(3) 0.50225(14) 0.30451(10)
C42_4 C 0.7988(4) 0.66795(15) 0.35378(10)
H22_4 H 0.8147 0.6912 0.3481
C44_4 C 0.9909(4) 0.52130(15) 0.28769(10)
H23_4 H 0.9877 0.5470 0.2868
C46_5 C 0.7451(3) 0.66466(13) 0.37319(10)
H25_5 H 0.7255 0.6863 0.3806
C49_3 C 0.9481(4) 0.46335(16) 0.30529(13)
H27_3 H 0.9163 0.4499 0.3164
O1_5 O 0.6844(2) 0.65742(8) 0.44360(6)
O2_5 O 0.7602(2) 0.60806(9) 0.44294(6)
C1_5 C 0.7436(3) 0.63987(13) 0.45118(8)
C2_5 C 0.7956(3) 0.65870(12) 0.47008(8)
C14_4 C 0.9564(4) 0.75287(14) 0.52203(10)
H6_4 H 0.9235 0.7666 0.5114
C17_4 C 0.9518(4) 0.71461(15) 0.52184(11)
C19_5 C 0.8586(4) 0.64157(15) 0.48003(10)
H9_5 H 0.8678 0.6170 0.4754
C21_5 C 0.9088(4) 0.65920(14) 0.49654(12)
H11_4 H 0.9518 0.6466 0.5023
C22_4 C 0.8972(4) 0.69490(14) 0.50478(10)
C24_5 C 0.7826(4) 0.69407(15) 0.47921(13)
H13_5 H 0.7386 0.7063 0.4740
C25_4 C 0.9996(4) 0.69499(16) 0.53940(13)
H14_4 H 0.9960 0.6693 0.5403
C26_5 C 0.8319(4) 0.71179(17) 0.49561(14)
H15_4 H 0.8214 0.7360 0.5008
O3_5 O 0.5656(2) 0.59258(8) 0.44360(6)
O4_4 O 0.4898(2) 0.64194(9) 0.44294(6)
N7_5 N 0.1358(3) 0.44101(11) 0.57377(7)
H16_5 H 0.1622 0.4253 0.5649
N8_5 N 0.0905(3) 0.49572(11) 0.58848(8)
C27_5 C 0.5064(3) 0.61013(13) 0.45118(8)
C28_4 C 0.4544(3) 0.59130(12) 0.47008(8)
C30_5 C 0.0827(3) 0.43318(13) 0.59228(8)
C31_5 C 0.0540(3) 0.46709(13) 0.60129(9)
C33_5 C 0.0540(3) 0.39829(12) 0.60184(8)
C35_5 C 0.1393(4) 0.47904(14) 0.57192(10)
C38_5 C 0.0787(4) 0.36353(14) 0.59286(9)
H20_5 H 0.1152 0.3619 0.5796
C40_4 C 0.2936(4) 0.49713(14) 0.52203(10)
H21_4 H 0.3265 0.4834 0.5114
C41_5 C 0.1934(3) 0.49775(14) 0.55451(10)
C42_5 C 0.0488(4) 0.33205(15) 0.60378(10)
H22_5 H 0.0647 0.3088 0.5981
C43_4 C 0.2982(4) 0.53539(15) 0.52184(11)
C44_5 C 0.2409(4) 0.47870(15) 0.53769(10)
H23_5 H 0.2377 0.4530 0.5368
C45_4 C 0.3914(4) 0.60843(15) 0.48003(10)
H24_4 H 0.3822 0.6330 0.4754
C47_4 C 0.3412(4) 0.59080(14) 0.49654(12)
H26_4 H 0.2982 0.6034 0.5023
C48_4 C 0.3528(4) 0.55510(14) 0.50478(10)
C49_4 C 0.1981(4) 0.53665(16) 0.55529(13)
H27_4 H 0.1663 0.5501 0.5664
C50_4 C 0.4674(4) 0.55593(15) 0.47921(13)
H28_5 H 0.5114 0.5437 0.4740
C51_4 C 0.2504(4) 0.55501(16) 0.53940(13)
H29_4 H 0.2540 0.5807 0.5403
C52_4 C 0.4181(4) 0.53821(17) 0.49561(14)
H30_4 H 0.4286 0.5140 0.5008
N5_4 N 0.1660(3) 0.06659(10) 0.40087(6)
N6_4 N 0.2189(2) 0.13196(10) 0.38225(7)
N7_6 N 0.3858(3) 0.05899(11) 0.32377(7)
H16_6 H 0.4122 0.0747 0.3149
N8_6 N 0.3405(3) 0.00428(11) 0.33848(8)
C29_6 C 0.2186(3) 0.06542(12) 0.38150(8)
C30_6 C 0.3327(3) 0.06682(13) 0.34228(8)
C31_6 C 0.3040(3) 0.03291(13) 0.35129(9)
C32_6 C 0.1402(3) 0.03448(12) 0.41034(8)
H17_6 H 0.1047 0.0351 0.4240
C33_6 C 0.3040(3) 0.10171(12) 0.35184(8)
C34_6 C 0.1634(4) 0.00028(13) 0.40091(10)
C35_6 C 0.3893(4) 0.02096(14) 0.32192(10)
C36_6 C 0.2478(3) 0.10070(12) 0.37151(7)
C38_6 C 0.3287(4) 0.13647(14) 0.34286(9)
H20_6 H 0.3652 0.1381 0.3296
C39_6 C 0.2471(3) 0.03128(12) 0.37132(8)
C40_5 C 0.5436(4) 0.00287(14) 0.27203(10)
H21_5 H 0.5765 0.0166 0.2614
C41_6 C 0.4434(3) 0.00225(14) 0.30451(10)
C42_6 C 0.2988(4) 0.16795(15) 0.35378(10)
H22_6 H 0.3147 0.1912 0.3481
C44_6 C 0.4909(4) 0.02130(15) 0.28769(10)
H23_6 H 0.4877 0.0470 0.2868
C46_6 C 0.2451(3) 0.16466(13) 0.37319(10)
H25_6 H 0.2255 0.1863 0.3806
Mn3_2 Mn 0.1250 0.1250 0.41455(2)
Mn1_3 Mn 0.8750 0.3750 0.66455(2)
O1_6 O 0.9344(2) 0.34258(8) 0.69360(6)
C1_6 C 0.9936(3) 0.36013(13) 0.70118(8)
H13_6 H 0.9886 0.2937 0.7240
O3_6 O 0.8156(2) 0.40742(8) 0.69360(6)
O4_5 O 0.7398(2) 0.35806(9) 0.69294(6)
N5_5 N 0.1660(3) 0.56659(10) 0.90087(6)
N6_5 N 0.2189(2) 0.63196(10) 0.88225(7)
N7_7 N 0.3858(3) 0.55899(11) 0.82377(7)
H16_7 H 0.4122 0.5747 0.8149
N8_7 N 0.3405(3) 0.50428(11) 0.83848(8)
C27_6 C 0.7564(3) 0.38987(13) 0.70118(8)
C28_5 C 0.7044(3) 0.40870(12) 0.72008(8)
C29_7 C 0.2186(3) 0.56542(12) 0.88150(8)
C30_7 C 0.3327(3) 0.56682(13) 0.84228(8)
C31_7 C 0.3040(3) 0.53291(13) 0.85129(9)
C32_7 C 0.1402(3) 0.53448(12) 0.91034(8)
H17_7 H 0.1047 0.5351 0.9240
C33_7 C 0.3040(3) 0.60171(12) 0.85184(8)
C34_7 C 0.1634(4) 0.50028(13) 0.90091(10)
H18_5 H 0.1427 0.4786 0.9078
C35_7 C 0.3893(4) 0.52096(14) 0.82192(10)
C36_7 C 0.2478(3) 0.60070(12) 0.87151(7)
C37_5 C 0.2162(4) 0.49865(13) 0.88173(10)
H19_5 H 0.2323 0.4757 0.8754
C38_7 C 0.3287(4) 0.63647(14) 0.84286(9)
H20_7 H 0.3652 0.6381 0.8296
C39_7 C 0.2471(3) 0.53128(12) 0.87132(8)
C40_6 C 0.5436(4) 0.50287(14) 0.77203(10)
H21_6 H 0.5765 0.5166 0.7614
C41_7 C 0.4434(3) 0.50225(14) 0.80451(10)
C42_7 C 0.2988(4) 0.66795(15) 0.85378(10)
H22_7 H 0.3147 0.6912 0.8481
C43_5 C 0.5482(4) 0.46461(15) 0.77184(11)
C44_7 C 0.4909(4) 0.52130(15) 0.78769(10)
H23_7 H 0.4877 0.5470 0.7868
C45_5 C 0.6414(4) 0.39157(15) 0.73003(10)
H24_5 H 0.6322 0.3670 0.7254
C46_7 C 0.2451(3) 0.66466(13) 0.87319(10)
H25_7 H 0.2255 0.6863 0.8806
C47_5 C 0.5912(4) 0.40920(14) 0.74654(12)
H26_5 H 0.5482 0.3966 0.7523
C48_5 C 0.6028(4) 0.44490(14) 0.75478(10)
C49_5 C 0.4481(4) 0.46335(16) 0.80529(13)
H27_5 H 0.4163 0.4499 0.8164
C50_5 C 0.7174(4) 0.44407(15) 0.72921(13)
H28_6 H 0.7614 0.4563 0.7240
C51_5 C 0.5004(4) 0.44499(16) 0.78940(13)
H29_5 H 0.5040 0.4193 0.7903
C52_5 C 0.6681(4) 0.46179(17) 0.74561(14)
H30_5 H 0.6786 0.4860 0.7508
Mn3_3 Mn 0.1250 0.6250 0.91455(2)
N9_3 N 0.9160(3) 0.43341(10) 0.65087(6)
N10_3 N 0.8340(3) 0.31659(10) 0.65087(6)
N11_3 N 0.9689(2) 0.36804(10) 0.63225(7)
N12_3 N 0.7811(2) 0.38196(10) 0.63225(7)
N1_4 N 0.0840(3) 0.68341(10) 0.90087(6)
N2_4 N 0.0311(2) 0.61804(10) 0.88225(7)
C3_6 C 0.0314(3) 0.68458(12) 0.88150(8)
C6_6 C 0.1098(3) 0.71552(12) 0.91034(8)
H2_6 H 0.1453 0.7149 0.9240
C8_6 C 0.0866(4) 0.74972(13) 0.90091(10)
H3_6 H 0.1073 0.7714 0.9078
C10_6 C 0.0022(3) 0.64930(12) 0.87151(7)
C11_6 C 0.0338(4) 0.75135(13) 0.88173(10)
H4_6 H 0.0177 0.7743 0.8754
C13_6 C 0.0029(3) 0.71872(12) 0.87132(8)
C20_6 C 0.0049(3) 0.58534(13) 0.87319(10)
H10_6 H 0.0245 0.5637 0.8806
N1_5 N 0.0840(3) 0.18341(10) 0.40087(6)
N2_5 N 0.0311(2) 0.11804(10) 0.38225(7)
C3_7 C 0.0314(3) 0.18458(12) 0.38150(8)
C6_7 C 0.1098(3) 0.21552(12) 0.41034(8)
H2_7 H 0.1453 0.2149 0.4240
C8_7 C 0.0866(4) 0.24972(13) 0.40091(10)
H3_7 H 0.1073 0.2714 0.4078
C10_7 C 0.0022(3) 0.14930(12) 0.37151(7)
C11_7 C 0.0338(4) 0.25135(13) 0.38173(10)
H4_7 H 0.0177 0.2743 0.3754
C13_7 C 0.0029(3) 0.21872(12) 0.37132(8)
C20_7 C 0.0049(3) 0.08534(13) 0.37319(10)
H10_7 H 0.0245 0.0637 0.3806
O1_7 O 0.1844(2) 0.15742(8) 0.44360(6)
O2_6 O 0.2602(2) 0.10806(9) 0.44294(6)
N3_5 N 0.6142(3) 0.30899(11) 0.57377(7)
H1_5 H 0.5878 0.3247 0.5649
N4_5 N 0.6595(3) 0.25428(11) 0.58848(8)
C1_7 C 0.2436(3) 0.13987(13) 0.45118(8)
C2_6 C 0.2956(3) 0.15870(12) 0.47008(8)
C3_8 C 0.7814(3) 0.31542(12) 0.63150(8)
C4_5 C 0.6673(3) 0.31682(13) 0.59228(8)
C5_5 C 0.6960(3) 0.28291(13) 0.60129(9)
C6_8 C 0.8598(3) 0.28448(12) 0.66034(8)
H2_8 H 0.8953 0.2851 0.6740
C7_5 C 0.6960(3) 0.35171(12) 0.60184(8)
C8_8 C 0.8366(4) 0.25028(13) 0.65091(10)
H3_8 H 0.8573 0.2286 0.6578
C9_5 C 0.6107(4) 0.27096(14) 0.57192(10)
C10_8 C 0.7522(3) 0.35070(12) 0.62151(7)
C11_8 C 0.7838(4) 0.24865(13) 0.63173(10)
H4_8 H 0.7677 0.2257 0.6254
C12_5 C 0.6713(4) 0.38647(14) 0.59286(9)
H5_5 H 0.6348 0.3881 0.5796
C13_8 C 0.7529(3) 0.28128(12) 0.62132(8)
C14_5 C 0.4564(4) 0.25287(14) 0.52203(10)
H6_5 H 0.4235 0.2666 0.5114
C15_5 C 0.5566(3) 0.25225(14) 0.55451(10)
C16_5 C 0.7012(4) 0.41795(15) 0.60378(10)
H7_5 H 0.6853 0.4412 0.5981
C17_5 C 0.4518(4) 0.21461(15) 0.52184(11)
C18_5 C 0.5091(4) 0.27130(15) 0.53769(10)
H8_5 H 0.5123 0.2970 0.5368
C19_6 C 0.3586(4) 0.14157(15) 0.48003(10)
H9_6 H 0.3678 0.1170 0.4754
C20_8 C 0.7549(3) 0.41466(13) 0.62319(10)
H10_8 H 0.7745 0.4363 0.6306
C21_6 C 0.4088(4) 0.15920(14) 0.49654(12)
H11_5 H 0.4518 0.1466 0.5023
C22_5 C 0.3972(4) 0.19490(14) 0.50478(10)
C23_5 C 0.5519(4) 0.21335(16) 0.55529(13)
H12_5 H 0.5837 0.1999 0.5664
C24_6 C 0.2826(4) 0.19407(15) 0.47921(13)
H13_7 H 0.2386 0.2063 0.4740
C25_5 C 0.4996(4) 0.19499(16) 0.53940(13)
H14_5 H 0.4960 0.1693 0.5403
C26_6 C 0.3319(4) 0.21179(17) 0.49561(14)
H15_5 H 0.3214 0.2360 0.5008
O3_7 O 0.0656(2) 0.09258(8) 0.44360(6)
C27_7 C 0.0064(3) 0.11013(13) 0.45118(8)
H28_7 H 0.0114 0.0437 0.4740
O1_8 O 0.1844(2) 0.65742(8) 0.94360(6)
O2_7 O 0.2602(2) 0.60806(9) 0.94294(6)
C1_8 C 0.2436(3) 0.63987(13) 0.95118(8)
C2_7 C 0.2956(3) 0.65870(12) 0.97008(8)
C19_7 C 0.3586(4) 0.64157(15) 0.98003(10)
H9_7 H 0.3678 0.6170 0.9754
C21_7 C 0.4088(4) 0.65920(14) 0.99654(12)
C24_7 C 0.2826(4) 0.69407(15) 0.97921(13)
H13_8 H 0.2386 0.7063 0.9740
C26_7 C 0.3319(4) 0.71179(17) 0.99561(14)
O3_8 O 0.0656(2) 0.59258(8) 0.94360(6)
C27_8 C 0.0064(3) 0.61013(13) 0.95118(8)
H28_8 H 0.0114 0.5437 0.9740
C29_8 C 0.9686(3) 0.43458(12) 0.63150(8)
C32_8 C 0.8902(3) 0.46552(12) 0.66034(8)
H17_8 H 0.8547 0.4649 0.6740
C34_8 C 0.9134(4) 0.49972(13) 0.65091(10)
H18_6 H 0.8927 0.5214 0.6578
C36_8 C 0.9978(3) 0.39930(12) 0.62151(7)
C37_6 C 0.9662(4) 0.50135(13) 0.63173(10)
H19_6 H 0.9823 0.5243 0.6254
C39_8 C 0.9971(3) 0.46872(12) 0.62132(8)
C46_8 C 0.9951(3) 0.33534(13) 0.62319(10)
H25_8 H 0.9755 0.3137 0.6306
Mn1_4 Mn 0.8750 0.8750 0.16455(2)
O1_9 O 0.9344(2) 0.84258(8) 0.19360(6)
C1_9 C 0.9936(3) 0.86013(13) 0.20118(8)
H13_9 H 0.9886 0.7937 0.2240
O3_9 O 0.8156(2) 0.90742(8) 0.19360(6)
O4_6 O 0.7398(2) 0.85806(9) 0.19294(6)
C27_9 C 0.7564(3) 0.88987(13) 0.20118(8)
C28_6 C 0.7044(3) 0.90870(12) 0.22008(8)
H18_7 H 0.1427 0.9786 0.4078
C37_7 C 0.2162(4) 0.99865(13) 0.38173(10)
H19_7 H 0.2323 0.9757 0.3754
C43_6 C 0.5482(4) 0.96461(15) 0.27184(11)
C45_6 C 0.6414(4) 0.89157(15) 0.23003(10)
H24_6 H 0.6322 0.8670 0.2254
C47_6 C 0.5912(4) 0.90920(14) 0.24654(12)
H26_6 H 0.5482 0.8966 0.2523
C48_6 C 0.6028(4) 0.94490(14) 0.25478(10)
C49_6 C 0.4481(4) 0.96335(16) 0.30529(13)
H27_6 H 0.4163 0.9499 0.3164
C50_6 C 0.7174(4) 0.94407(15) 0.22921(13)
H28_9 H 0.7614 0.9563 0.2240
C51_6 C 0.5004(4) 0.94499(16) 0.28940(13)
H29_6 H 0.5040 0.9193 0.2903
C52_6 C 0.6681(4) 0.96179(17) 0.24561(14)
H30_6 H 0.6786 0.9860 0.2508
N9_4 N 0.9160(3) 0.93341(10) 0.15087(6)
N10_4 N 0.8340(3) 0.81659(10) 0.15087(6)
N11_4 N 0.9689(2) 0.86804(10) 0.13225(7)
N12_4 N 0.7811(2) 0.88196(10) 0.13225(7)
N3_6 N 0.6142(3) 0.80899(11) 0.07377(7)
H1_6 H 0.5878 0.8247 0.0649
N4_6 N 0.6595(3) 0.75428(11) 0.08848(8)
C3_9 C 0.7814(3) 0.81542(12) 0.13150(8)
C4_6 C 0.6673(3) 0.81682(13) 0.09228(8)
C5_6 C 0.6960(3) 0.78291(13) 0.10129(9)
C6_9 C 0.8598(3) 0.78448(12) 0.16034(8)
H2_9 H 0.8953 0.7851 0.1740
C7_6 C 0.6960(3) 0.85171(12) 0.10184(8)
C8_9 C 0.8366(4) 0.75028(13) 0.15091(10)
H3_9 H 0.8573 0.7286 0.1578
C9_6 C 0.6107(4) 0.77096(14) 0.07192(10)
C10_9 C 0.7522(3) 0.85070(12) 0.12151(7)
C11_9 C 0.7838(4) 0.74865(13) 0.13173(10)
H4_9 H 0.7677 0.7257 0.1254
C12_6 C 0.6713(4) 0.88647(14) 0.09286(9)
H5_6 H 0.6348 0.8881 0.0796
C13_9 C 0.7529(3) 0.78128(12) 0.12132(8)
C14_6 C 0.4564(4) 0.75287(14) 0.02203(10)
H6_6 H 0.4235 0.7666 0.0114
C15_6 C 0.5566(3) 0.75225(14) 0.05451(10)
C16_6 C 0.7012(4) 0.91795(15) 0.10378(10)
H7_6 H 0.6853 0.9412 0.0981
C17_6 C 0.4518(4) 0.71461(15) 0.02184(11)
C18_6 C 0.5091(4) 0.77130(15) 0.03769(10)
H8_6 H 0.5123 0.7970 0.0368
C20_9 C 0.7549(3) 0.91466(13) 0.12319(10)
H10_9 H 0.7745 0.9363 0.1306
H11_6 H 0.4518 0.6466 0.0023
C22_6 C 0.3972(4) 0.69490(14) 0.00478(10)
C23_6 C 0.5519(4) 0.71335(16) 0.05529(13)
H12_6 H 0.5837 0.6999 0.0664
C25_6 C 0.4996(4) 0.69499(16) 0.03940(13)
H14_6 H 0.4960 0.6693 0.0403
H15_6 H 0.3214 0.7360 0.0008
C29_9 C 0.9686(3) 0.93458(12) 0.13150(8)
C32_9 C 0.8902(3) 0.96552(12) 0.16034(8)
H17_9 H 0.8547 0.9649 0.1740
C34_9 C 0.9134(4) 0.99972(13) 0.15091(10)
C36_9 C 0.9978(3) 0.89930(12) 0.12151(7)
C39_9 C 0.9971(3) 0.96872(12) 0.12132(8)
C46_9 C 0.9951(3) 0.83534(13) 0.12319(10)
H25_9 H 0.9755 0.8137 0.1306
O4_7 O 0.0102(2) 0.35806(9) 0.05706(6)
C28_7 C 0.0456(3) 0.40870(12) 0.02992(8)
C45_7 C 0.1086(4) 0.39157(15) 0.01997(10)
H24_7 H 0.1178 0.3670 0.0246
C47_7 C 0.1588(4) 0.40920(14) 0.00346(12)
C50_7 C 0.0326(4) 0.44407(15) 0.02079(13)
C52_7 C 0.0819(4) 0.46179(17) 0.00439(14)
N5_6 N 0.5840(3) 0.56659(10) 0.84913(6)
N6_6 N 0.5311(2) 0.63196(10) 0.86775(7)
N7_8 N 0.3642(3) 0.55899(11) 0.92623(7)
H16_8 H 0.3378 0.5747 0.9351
N8_8 N 0.4095(3) 0.50428(11) 0.91152(8)
C29_10 C 0.5314(3) 0.56542(12) 0.86850(8)
C30_8 C 0.4173(3) 0.56682(13) 0.90772(8)
C31_8 C 0.4460(3) 0.53291(13) 0.89871(9)
C32_10 C 0.6098(3) 0.53448(12) 0.83966(8)
H17_10 H 0.6453 0.5351 0.8260
C33_8 C 0.4460(3) 0.60171(12) 0.89816(8)
C34_10 C 0.5866(4) 0.50028(13) 0.84909(10)
H18_8 H 0.6073 0.4786 0.8422
C35_8 C 0.3607(4) 0.52096(14) 0.92808(10)
C36_10 C 0.5022(3) 0.60070(12) 0.87849(7)
C37_8 C 0.5338(4) 0.49865(13) 0.86827(10)
H19_8 H 0.5177 0.4757 0.8746
C38_8 C 0.4213(4) 0.63647(14) 0.90714(9)
H20_8 H 0.3848 0.6381 0.9204
C39_10 C 0.5029(3) 0.53128(12) 0.87868(8)
C40_7 C 0.2064(4) 0.50287(14) 0.97797(10)
H21_7 H 0.1735 0.5166 0.9886
C41_8 C 0.3066(3) 0.50225(14) 0.94549(10)
C42_8 C 0.4512(4) 0.66795(15) 0.89622(10)
H22_8 H 0.4353 0.6912 0.9019
C43_7 C 0.2018(4) 0.46461(15) 0.97816(11)
C44_8 C 0.2591(4) 0.52130(15) 0.96231(10)
H23_8 H 0.2623 0.5470 0.9632
C46_10 C 0.5049(3) 0.66466(13) 0.87681(10)
H25_10 H 0.5245 0.6863 0.8694
H26_7 H 0.2018 0.3966 0.9977
C48_7 C 0.1472(4) 0.44490(14) 0.99522(10)
C49_7 C 0.3019(4) 0.46335(16) 0.94471(13)
H27_7 H 0.3337 0.4499 0.9336
C51_7 C 0.2496(4) 0.44499(16) 0.96060(13)
H29_7 H 0.2460 0.4193 0.9597
H30_7 H 0.0714 0.4860 0.9992
Mn3_4 Mn 0.6250 0.6250 0.83545(2)
N1_6 N 0.6660(3) 0.68341(10) 0.84913(6)
N2_6 N 0.7189(2) 0.61804(10) 0.86775(7)
N3_7 N 0.8858(3) 0.69101(11) 0.92623(7)
H1_7 H 0.9122 0.6753 0.9351
N4_7 N 0.8405(3) 0.74572(11) 0.91152(8)
C3_10 C 0.7186(3) 0.68458(12) 0.86850(8)
C4_7 C 0.8327(3) 0.68318(13) 0.90772(8)
C5_7 C 0.8040(3) 0.71709(13) 0.89871(9)
C6_10 C 0.6402(3) 0.71552(12) 0.83966(8)
H2_10 H 0.6047 0.7149 0.8260
C7_7 C 0.8040(3) 0.64829(12) 0.89816(8)
C8_10 C 0.6634(4) 0.74972(13) 0.84909(10)
H3_10 H 0.6427 0.7714 0.8422
C9_7 C 0.8893(4) 0.72904(14) 0.92808(10)
C10_10 C 0.7478(3) 0.64930(12) 0.87849(7)
C11_10 C 0.7162(4) 0.75135(13) 0.86827(10)
H4_10 H 0.7323 0.7743 0.8746
C12_7 C 0.8287(4) 0.61353(14) 0.90714(9)
H5_7 H 0.8652 0.6119 0.9204
C13_10 C 0.7471(3) 0.71872(12) 0.87868(8)
C15_7 C 0.9434(3) 0.74775(14) 0.94549(10)
C16_7 C 0.7988(4) 0.58205(15) 0.89622(10)
H7_7 H 0.8147 0.5588 0.9019
C18_7 C 0.9909(4) 0.72870(15) 0.96231(10)
H8_7 H 0.9877 0.7030 0.9632
C20_10 C 0.7451(3) 0.58534(13) 0.87681(10)
H10_10 H 0.7255 0.5637 0.8694
C23_7 C 0.9481(4) 0.78665(16) 0.94471(13)
H12_7 H 0.9163 0.8001 0.9336
O1_10 O 0.5656(2) 0.65742(8) 0.80640(6)
O2_8 O 0.4898(2) 0.60806(9) 0.80706(6)
N3_8 N 0.1358(3) 0.80899(11) 0.67623(7)
H1_8 H 0.1622 0.8247 0.6851
N4_8 N 0.0905(3) 0.75428(11) 0.66152(8)
C1_10 C 0.5064(3) 0.63987(13) 0.79882(8)
C2_8 C 0.4544(3) 0.65870(12) 0.77992(8)
C4_8 C 0.0827(3) 0.81682(13) 0.65772(8)
C5_8 C 0.0540(3) 0.78291(13) 0.64871(9)
C7_8 C 0.0540(3) 0.85171(12) 0.64816(8)
C9_8 C 0.1393(4) 0.77096(14) 0.67808(10)
C12_8 C 0.0787(4) 0.88647(14) 0.65714(9)
H5_8 H 0.1152 0.8881 0.6704
C14_7 C 0.2936(4) 0.75287(14) 0.72797(10)
H6_7 H 0.3265 0.7666 0.7386
C15_8 C 0.1934(3) 0.75225(14) 0.69549(10)
C16_8 C 0.0488(4) 0.91795(15) 0.64622(10)
H7_8 H 0.0647 0.9412 0.6519
C17_7 C 0.2982(4) 0.71461(15) 0.72816(11)
C18_8 C 0.2409(4) 0.77130(15) 0.71231(10)
H8_8 H 0.2377 0.7970 0.7132
C19_8 C 0.3914(4) 0.64157(15) 0.76997(10)
H9_8 H 0.3822 0.6170 0.7746
C21_8 C 0.3412(4) 0.65920(14) 0.75346(12)
H11_7 H 0.2982 0.6466 0.7477
C22_7 C 0.3528(4) 0.69490(14) 0.74522(10)
C23_8 C 0.1981(4) 0.71335(16) 0.69471(13)
H12_8 H 0.1663 0.6999 0.6836
C24_8 C 0.4674(4) 0.69407(15) 0.77079(13)
H13_10 H 0.5114 0.7063 0.7760
C25_7 C 0.2504(4) 0.69499(16) 0.71060(13)
H14_7 H 0.2540 0.6693 0.7097
C26_8 C 0.4181(4) 0.71179(17) 0.75439(14)
H15_7 H 0.4286 0.7360 0.7492
O3_10 O 0.6844(2) 0.59258(8) 0.80640(6)
O4_8 O 0.7602(2) 0.64194(9) 0.80706(6)
C27_10 C 0.7436(3) 0.61013(13) 0.79882(8)
C28_8 C 0.7956(3) 0.59130(12) 0.77992(8)
C40_8 C 0.9564(4) 0.49713(14) 0.72797(10)
H21_8 H 0.9235 0.4834 0.7386
C43_8 C 0.9518(4) 0.53539(15) 0.72816(11)
C45_8 C 0.8586(4) 0.60843(15) 0.76997(10)
H24_8 H 0.8678 0.6330 0.7746
C47_8 C 0.9088(4) 0.59080(14) 0.75346(12)
H26_8 H 0.9518 0.6034 0.7477
C48_8 C 0.8972(4) 0.55510(14) 0.74522(10)
C50_8 C 0.7826(4) 0.55593(15) 0.77079(13)
H28_10 H 0.7386 0.5437 0.7760
C51_8 C 0.9996(4) 0.55501(16) 0.71060(13)
H29_8 H 0.9960 0.5807 0.7097
C52_8 C 0.8319(4) 0.53821(17) 0.75439(14)
H30_8 H 0.8214 0.5140 0.7492
N1_7 N 0.1660(3) 0.18341(10) 0.84913(6)
N2_7 N 0.2189(2) 0.11804(10) 0.86775(7)
N3_9 N 0.3858(3) 0.19101(11) 0.92623(7)
H1_9 H 0.4122 0.1753 0.9351
N4_9 N 0.3405(3) 0.24572(11) 0.91152(8)
C3_11 C 0.2186(3) 0.18458(12) 0.86850(8)
C4_9 C 0.3327(3) 0.18318(13) 0.90772(8)
C5_9 C 0.3040(3) 0.21709(13) 0.89871(9)
C6_11 C 0.1402(3) 0.21552(12) 0.83966(8)
H2_11 H 0.1047 0.2149 0.8260
C7_9 C 0.3040(3) 0.14829(12) 0.89816(8)
C8_11 C 0.1634(4) 0.24972(13) 0.84909(10)
H3_11 H 0.1427 0.2714 0.8422
C9_9 C 0.3893(4) 0.22904(14) 0.92808(10)
C10_11 C 0.2478(3) 0.14930(12) 0.87849(7)
C11_11 C 0.2162(4) 0.25135(13) 0.86827(10)
H4_11 H 0.2323 0.2743 0.8746
C12_9 C 0.3287(4) 0.11353(14) 0.90714(9)
H5_9 H 0.3652 0.1119 0.9204
C13_11 C 0.2471(3) 0.21872(12) 0.87868(8)
C14_8 C 0.5436(4) 0.24713(14) 0.97797(10)
H6_8 H 0.5765 0.2334 0.9886
C15_9 C 0.4434(3) 0.24775(14) 0.94549(10)
C16_9 C 0.2988(4) 0.08205(15) 0.89622(10)
H7_9 H 0.3147 0.0588 0.9019
C17_8 C 0.5482(4) 0.28539(15) 0.97816(11)
C18_9 C 0.4909(4) 0.22870(15) 0.96231(10)
H8_9 H 0.4877 0.2030 0.9632
C20_11 C 0.2451(3) 0.08534(13) 0.87681(10)
H10_11 H 0.2255 0.0637 0.8694
H11_8 H 0.5482 0.3534 0.9977
C22_8 C 0.6028(4) 0.30510(14) 0.99522(10)
C23_9 C 0.4481(4) 0.28665(16) 0.94471(13)
H12_9 H 0.4163 0.3001 0.9336
C25_8 C 0.5004(4) 0.30501(16) 0.96060(13)
H14_8 H 0.5040 0.3307 0.9597
H15_8 H 0.6786 0.2640 0.9992
Mn2_3 Mn 0.1250 0.1250 0.83545(2)
N5_7 N 0.0840(3) 0.06659(10) 0.84913(6)
N6_7 N 0.0311(2) 0.13196(10) 0.86775(7)
C29_11 C 0.0314(3) 0.06542(12) 0.86850(8)
C32_11 C 0.1098(3) 0.03448(12) 0.83966(8)
H17_11 H 0.1453 0.0351 0.8260
C34_11 C 0.0866(4) 0.00028(13) 0.84909(10)
C36_11 C 0.0022(3) 0.10070(12) 0.87849(7)
C39_11 C 0.0029(3) 0.03128(12) 0.87868(8)
C46_11 C 0.0049(3) 0.16466(13) 0.87681(10)
H25_11 H 0.0245 0.1863 0.8694
O1_11 O 0.0656(2) 0.15742(8) 0.80640(6)
C1_11 C 0.0064(3) 0.13987(13) 0.79882(8)
H13_11 H 0.0114 0.2063 0.7760
O3_11 O 0.1844(2) 0.09258(8) 0.80640(6)
O4_9 O 0.2602(2) 0.14194(9) 0.80706(6)
C27_11 C 0.2436(3) 0.11013(13) 0.79882(8)
C28_9 C 0.2956(3) 0.09130(12) 0.77992(8)
H18_9 H 0.8573 0.0214 0.5922
C37_9 C 0.7838(4) 0.00135(13) 0.61827(10)
H19_9 H 0.7677 0.0243 0.6246
C43_9 C 0.4518(4) 0.03539(15) 0.72816(11)
C45_9 C 0.3586(4) 0.10843(15) 0.76997(10)
H24_9 H 0.3678 0.1330 0.7746
C47_9 C 0.4088(4) 0.09080(14) 0.75346(12)
H26_9 H 0.4518 0.1034 0.7477
C48_9 C 0.3972(4) 0.05510(14) 0.74522(10)
C49_8 C 0.5519(4) 0.03665(16) 0.69471(13)
H27_8 H 0.5837 0.0501 0.6836
C50_9 C 0.2826(4) 0.05593(15) 0.77079(13)
H28_11 H 0.2386 0.0437 0.7760
C51_9 C 0.4996(4) 0.05501(16) 0.71060(13)
H29_9 H 0.4960 0.0807 0.7097
C52_9 C 0.3319(4) 0.03821(17) 0.75439(14)
H30_9 H 0.3214 0.0140 0.7492
O2_9 O 0.0102(2) 0.39194(9) 0.69294(6)
N1_8 N 0.5840(3) 0.18341(10) 0.90087(6)
N2_8 N 0.5311(2) 0.11804(10) 0.88225(7)
N3_10 N 0.3642(3) 0.19101(11) 0.82377(7)
H1_10 H 0.3378 0.1753 0.8149
N4_10 N 0.4095(3) 0.24572(11) 0.83848(8)
C2_9 C 0.0456(3) 0.34130(12) 0.72008(8)
C3_12 C 0.5314(3) 0.18458(12) 0.88150(8)
C4_10 C 0.4173(3) 0.18318(13) 0.84228(8)
C5_10 C 0.4460(3) 0.21709(13) 0.85129(9)
C6_12 C 0.6098(3) 0.21552(12) 0.91034(8)
H2_12 H 0.6453 0.2149 0.9240
C7_10 C 0.4460(3) 0.14829(12) 0.85184(8)
C8_12 C 0.5866(4) 0.24972(13) 0.90091(10)
H3_12 H 0.6073 0.2714 0.9078
C9_10 C 0.3607(4) 0.22904(14) 0.82192(10)
C10_12 C 0.5022(3) 0.14930(12) 0.87151(7)
C11_12 C 0.5338(4) 0.25135(13) 0.88173(10)
H4_12 H 0.5177 0.2743 0.8754
C12_10 C 0.4213(4) 0.11353(14) 0.84286(9)
H5_10 H 0.3848 0.1119 0.8296
C13_12 C 0.5029(3) 0.21872(12) 0.87132(8)
C14_9 C 0.2064(4) 0.24713(14) 0.77203(10)
H6_9 H 0.1735 0.2334 0.7614
C15_10 C 0.3066(3) 0.24775(14) 0.80451(10)
C16_10 C 0.4512(4) 0.08205(15) 0.85378(10)
H7_10 H 0.4353 0.0588 0.8481
C17_9 C 0.2018(4) 0.28539(15) 0.77184(11)
C18_10 C 0.2591(4) 0.22870(15) 0.78769(10)
H8_10 H 0.2623 0.2030 0.7868
C19_9 C 0.1086(4) 0.35843(15) 0.73003(10)
H9_9 H 0.1178 0.3830 0.7254
C20_12 C 0.5049(3) 0.08534(13) 0.87319(10)
H10_12 H 0.5245 0.0637 0.8806
C21_9 C 0.1588(4) 0.34080(14) 0.74654(12)
H11_9 H 0.2018 0.3534 0.7523
C22_9 C 0.1472(4) 0.30510(14) 0.75478(10)
C23_10 C 0.3019(4) 0.28665(16) 0.80529(13)
H12_10 H 0.3337 0.3001 0.8164
C24_9 C 0.0326(4) 0.30593(15) 0.72921(13)
C25_9 C 0.2496(4) 0.30501(16) 0.78940(13)
H14_9 H 0.2460 0.3307 0.7903
C26_9 C 0.0819(4) 0.28821(17) 0.74561(14)
H15_9 H 0.0714 0.2640 0.7508
Mn2_4 Mn 0.6250 0.1250 0.91455(2)
N5_8 N 0.6660(3) 0.06659(10) 0.90087(6)
N6_8 N 0.7189(2) 0.13196(10) 0.88225(7)
N7_9 N 0.8858(3) 0.05899(11) 0.82377(7)
H16_9 H 0.9122 0.0747 0.8149
N8_9 N 0.8405(3) 0.00428(11) 0.83848(8)
C29_12 C 0.7186(3) 0.06542(12) 0.88150(8)
C30_9 C 0.8327(3) 0.06682(13) 0.84228(8)
C31_9 C 0.8040(3) 0.03291(13) 0.85129(9)
C32_12 C 0.6402(3) 0.03448(12) 0.91034(8)
H17_12 H 0.6047 0.0351 0.9240
C33_9 C 0.8040(3) 0.10171(12) 0.85184(8)
C34_12 C 0.6634(4) 0.00028(13) 0.90091(10)
C35_9 C 0.8893(4) 0.02096(14) 0.82192(10)
C36_12 C 0.7478(3) 0.10070(12) 0.87151(7)
C38_9 C 0.8287(4) 0.13647(14) 0.84286(9)
H20_9 H 0.8652 0.1381 0.8296
C39_12 C 0.7471(3) 0.03128(12) 0.87132(8)
C41_9 C 0.9434(3) 0.00225(14) 0.80451(10)
C42_9 C 0.7988(4) 0.16795(15) 0.85378(10)
H22_9 H 0.8147 0.1912 0.8481
C44_9 C 0.9909(4) 0.02130(15) 0.78769(10)
H23_9 H 0.9877 0.0470 0.7868
C46_12 C 0.7451(3) 0.16466(13) 0.87319(10)
H25_12 H 0.7255 0.1863 0.8806
O1_12 O 0.6844(2) 0.15742(8) 0.94360(6)
O2_10 O 0.7602(2) 0.10806(9) 0.94294(6)
C1_12 C 0.7436(3) 0.13987(13) 0.95118(8)
C2_10 C 0.7956(3) 0.15870(12) 0.97008(8)
C19_10 C 0.8586(4) 0.14157(15) 0.98003(10)
H9_10 H 0.8678 0.1170 0.9754
C21_10 C 0.9088(4) 0.15920(14) 0.99654(12)
C24_10 C 0.7826(4) 0.19407(15) 0.97921(13)
H13_12 H 0.7386 0.2063 0.9740
C26_10 C 0.8319(4) 0.21179(17) 0.99561(14)
O3_12 O 0.5656(2) 0.09258(8) 0.94360(6)
O4_10 O 0.4898(2) 0.14194(9) 0.94294(6)
C27_12 C 0.5064(3) 0.11013(13) 0.95118(8)
C28_10 C 0.4544(3) 0.09130(12) 0.97008(8)
C45_10 C 0.3914(4) 0.10843(15) 0.98003(10)
H24_10 H 0.3822 0.1330 0.9754
C47_10 C 0.3412(4) 0.09080(14) 0.99654(12)
C50_10 C 0.4674(4) 0.05593(15) 0.97921(13)
H28_12 H 0.5114 0.0437 0.9740
C52_10 C 0.4181(4) 0.03821(17) 0.99561(14)
H18_10 H 0.1073 0.9786 0.8422
C37_10 C 0.0338(4) 0.99865(13) 0.86827(10)
H19_10 H 0.0177 0.9757 0.8746
N7_10 N 0.8642(3) 0.05899(11) 0.92623(7)
H16_10 H 0.8378 0.0747 0.9351
N8_10 N 0.9095(3) 0.00428(11) 0.91152(8)
C30_10 C 0.9173(3) 0.06682(13) 0.90772(8)
C31_10 C 0.9460(3) 0.03291(13) 0.89871(9)
C33_10 C 0.9460(3) 0.10171(12) 0.89816(8)
C35_10 C 0.8607(4) 0.02096(14) 0.92808(10)
C38_10 C 0.9213(4) 0.13647(14) 0.90714(9)
H20_10 H 0.8848 0.1381 0.9204
C40_9 C 0.7064(4) 0.00287(14) 0.97797(10)
H21_9 H 0.6735 0.0166 0.9886
C41_10 C 0.8066(3) 0.00225(14) 0.94549(10)
C42_10 C 0.9512(4) 0.16795(15) 0.89622(10)
H22_10 H 0.9353 0.1912 0.9019
C44_10 C 0.7591(4) 0.02130(15) 0.96231(10)
H23_10 H 0.7623 0.0470 0.9632
Mn1_5 Mn 0.3750 0.8750 0.08545(2)
O1_13 O 0.3156(2) 0.84258(8) 0.05640(6)
O2_11 O 0.2398(2) 0.89194(9) 0.05706(6)
C1_13 C 0.2564(3) 0.86013(13) 0.04882(8)
C2_11 C 0.2044(3) 0.84130(12) 0.02992(8)
C19_11 C 0.1414(4) 0.85843(15) 0.01997(10)
H9_11 H 0.1322 0.8830 0.0246
C21_11 C 0.0912(4) 0.84080(14) 0.00346(12)
C24_11 C 0.2174(4) 0.80593(15) 0.02079(13)
H13_13 H 0.2614 0.7937 0.0260
C26_11 C 0.1681(4) 0.78821(17) 0.00439(14)
O3_13 O 0.4344(2) 0.90742(8) 0.05640(6)
O4_11 O 0.5102(2) 0.85806(9) 0.05706(6)
C27_13 C 0.4936(3) 0.88987(13) 0.04882(8)
C28_11 C 0.5456(3) 0.90870(12) 0.02992(8)
C45_11 C 0.6086(4) 0.89157(15) 0.01997(10)
H24_11 H 0.6178 0.8670 0.0246
C47_11 C 0.6588(4) 0.90920(14) 0.00346(12)
C50_11 C 0.5326(4) 0.94407(15) 0.02079(13)
H28_13 H 0.4886 0.9563 0.0260
C52_11 C 0.5819(4) 0.96179(17) 0.00439(14)
N9_5 N 0.3340(3) 0.93341(10) 0.09913(6)
N10_5 N 0.4160(3) 0.81659(10) 0.09913(6)
N11_5 N 0.2811(2) 0.86804(10) 0.11775(7)
N12_5 N 0.4689(2) 0.88196(10) 0.11775(7)
O2_12 O 0.9898(2) 0.60806(9) 0.30706(6)
N3_11 N 0.6358(3) 0.80899(11) 0.17623(7)
H1_11 H 0.6622 0.8247 0.1851
N4_11 N 0.5905(3) 0.75428(11) 0.16152(8)
C2_12 C 0.9544(3) 0.65870(12) 0.27992(8)
C3_13 C 0.4686(3) 0.81542(12) 0.11850(8)
C4_11 C 0.5827(3) 0.81682(13) 0.15772(8)
C5_11 C 0.5540(3) 0.78291(13) 0.14871(9)
C6_13 C 0.3902(3) 0.78448(12) 0.08966(8)
H2_13 H 0.3547 0.7851 0.0760
C7_11 C 0.5540(3) 0.85171(12) 0.14816(8)
C8_13 C 0.4134(4) 0.75028(13) 0.09909(10)
H3_13 H 0.3927 0.7286 0.0922
C9_11 C 0.6393(4) 0.77096(14) 0.17808(10)
C10_13 C 0.4978(3) 0.85070(12) 0.12849(7)
C11_13 C 0.4662(4) 0.74865(13) 0.11827(10)
H4_13 H 0.4823 0.7257 0.1246
C12_11 C 0.5787(4) 0.88647(14) 0.15714(9)
H5_11 H 0.6152 0.8881 0.1704
C13_13 C 0.4971(3) 0.78128(12) 0.12868(8)
C14_10 C 0.7936(4) 0.75287(14) 0.22797(10)
H6_10 H 0.8265 0.7666 0.2386
C15_11 C 0.6934(3) 0.75225(14) 0.19549(10)
C16_11 C 0.5488(4) 0.91795(15) 0.14622(10)
H7_11 H 0.5647 0.9412 0.1519
C17_10 C 0.7982(4) 0.71461(15) 0.22816(11)
C18_11 C 0.7409(4) 0.77130(15) 0.21231(10)
H8_11 H 0.7377 0.7970 0.2132
C19_12 C 0.8914(4) 0.64157(15) 0.26997(10)
H9_12 H 0.8822 0.6170 0.2746
C20_13 C 0.4951(3) 0.91466(13) 0.12681(10)
H10_13 H 0.4755 0.9363 0.1194
C21_12 C 0.8412(4) 0.65920(14) 0.25346(12)
H11_10 H 0.7982 0.6466 0.2477
C22_10 C 0.8528(4) 0.69490(14) 0.24522(10)
C23_11 C 0.6981(4) 0.71335(16) 0.19471(13)
H12_11 H 0.6663 0.6999 0.1836
C24_12 C 0.9674(4) 0.69407(15) 0.27079(13)
C25_10 C 0.7504(4) 0.69499(16) 0.21060(13)
H14_10 H 0.7540 0.6693 0.2097
C26_12 C 0.9181(4) 0.71179(17) 0.25439(14)
H15_10 H 0.9286 0.7360 0.2492
N7_11 N 0.1142(3) 0.94101(11) 0.17623(7)
H16_11 H 0.0878 0.9253 0.1851
N8_11 N 0.1595(3) 0.99572(11) 0.16152(8)
C29_13 C 0.2814(3) 0.93458(12) 0.11850(8)
C30_11 C 0.1673(3) 0.93318(13) 0.15772(8)
C31_11 C 0.1960(3) 0.96709(13) 0.14871(9)
C32_13 C 0.3598(3) 0.96552(12) 0.08966(8)
H17_13 H 0.3953 0.9649 0.0760
C33_11 C 0.1960(3) 0.89829(12) 0.14816(8)
C34_13 C 0.3366(4) 0.99972(13) 0.09909(10)
C35_11 C 0.1107(4) 0.97904(14) 0.17808(10)
C36_13 C 0.2522(3) 0.89930(12) 0.12849(7)
C38_11 C 0.1713(4) 0.86353(14) 0.15714(9)
H20_11 H 0.1348 0.8619 0.1704
C39_13 C 0.2529(3) 0.96872(12) 0.12868(8)
C41_11 C 0.0566(3) 0.99775(14) 0.19549(10)
C42_11 C 0.2012(4) 0.83205(15) 0.14622(10)
H22_11 H 0.1853 0.8088 0.1519
C44_11 C 0.0091(4) 0.97870(15) 0.21231(10)
H23_11 H 0.0123 0.9530 0.2132
C46_13 C 0.2549(3) 0.83534(13) 0.12681(10)
H25_13 H 0.2745 0.8137 0.1194
C14_11 C 0.0436(4) 0.74713(14) 0.97797(10)
H6_11 H 0.0765 0.7334 0.9886
C17_11 C 0.0482(4) 0.78539(15) 0.97816(11)
H11_11 H 0.0482 0.8534 0.9977
C22_11 C 0.1028(4) 0.80510(14) 0.99522(10)
C25_11 C 0.0004(4) 0.80501(16) 0.96060(13)
H14_11 H 0.0040 0.8307 0.9597
H15_11 H 0.1786 0.7640 0.9992
C43_10 C 0.7018(4) 0.96461(15) 0.97816(11)
H26_10 H 0.7018 0.8966 0.9977
C48_10 C 0.6472(4) 0.94490(14) 0.99522(10)
C49_9 C 0.8019(4) 0.96335(16) 0.94471(13)
H27_9 H 0.8337 0.9499 0.9336
C51_10 C 0.7496(4) 0.94499(16) 0.96060(13)
H29_10 H 0.7460 0.9193 0.9597
H30_10 H 0.5714 0.9860 0.9992
C40_10 C 0.0436(4) 0.00287(14) 0.77203(10)
H21_10 H 0.0765 0.0166 0.7614
Mn1_6 Mn 0.3750 0.8750 0.66455(2)
O1_14 O 0.4344(2) 0.84258(8) 0.69360(6)
O2_13 O 0.5102(2) 0.89194(9) 0.69294(6)
N3_12 N 0.8642(3) 0.69101(11) 0.82377(7)
H1_12 H 0.8378 0.6753 0.8149
N4_12 N 0.9095(3) 0.74572(11) 0.83848(8)
C1_14 C 0.4936(3) 0.86013(13) 0.70118(8)
C2_13 C 0.5456(3) 0.84130(12) 0.72008(8)
C4_12 C 0.9173(3) 0.68318(13) 0.84228(8)
C5_12 C 0.9460(3) 0.71709(13) 0.85129(9)
C7_12 C 0.9460(3) 0.64829(12) 0.85184(8)
C9_12 C 0.8607(4) 0.72904(14) 0.82192(10)
C12_12 C 0.9213(4) 0.61353(14) 0.84286(9)
H5_12 H 0.8848 0.6119 0.8296
C14_12 C 0.7064(4) 0.74713(14) 0.77203(10)
H6_12 H 0.6735 0.7334 0.7614
C15_12 C 0.8066(3) 0.74775(14) 0.80451(10)
C16_12 C 0.9512(4) 0.58205(15) 0.85378(10)
H7_12 H 0.9353 0.5588 0.8481
C17_12 C 0.7018(4) 0.78539(15) 0.77184(11)
C18_12 C 0.7591(4) 0.72870(15) 0.78769(10)
H8_12 H 0.7623 0.7030 0.7868
C19_13 C 0.6086(4) 0.85843(15) 0.73003(10)
H9_13 H 0.6178 0.8830 0.7254
C21_13 C 0.6588(4) 0.84080(14) 0.74654(12)
H11_12 H 0.7018 0.8534 0.7523
C22_12 C 0.6472(4) 0.80510(14) 0.75478(10)
C23_12 C 0.8019(4) 0.78665(16) 0.80529(13)
H12_12 H 0.8337 0.8001 0.8164
C24_13 C 0.5326(4) 0.80593(15) 0.72921(13)
H13_14 H 0.4886 0.7937 0.7240
C25_12 C 0.7496(4) 0.80501(16) 0.78940(13)
H14_12 H 0.7460 0.8307 0.7903
C26_13 C 0.5819(4) 0.78821(17) 0.74561(14)
H15_12 H 0.5714 0.7640 0.7508
O3_14 O 0.3156(2) 0.90742(8) 0.69360(6)
O4_12 O 0.2398(2) 0.85806(9) 0.69294(6)
C27_14 C 0.2564(3) 0.88987(13) 0.70118(8)
C28_12 C 0.2044(3) 0.90870(12) 0.72008(8)
C43_11 C 0.0482(4) 0.96461(15) 0.77184(11)
C45_12 C 0.1414(4) 0.89157(15) 0.73003(10)
H24_12 H 0.1322 0.8670 0.7254
C47_12 C 0.0912(4) 0.90920(14) 0.74654(12)
H26_11 H 0.0482 0.8966 0.7523
C48_11 C 0.1028(4) 0.94490(14) 0.75478(10)
C50_12 C 0.2174(4) 0.94407(15) 0.72921(13)
H28_14 H 0.2614 0.9563 0.7240
C51_11 C 0.0004(4) 0.94499(16) 0.78940(13)
H29_11 H 0.0040 0.9193 0.7903
C52_12 C 0.1681(4) 0.96179(17) 0.74561(14)
H30_11 H 0.1786 0.9860 0.7508
N9_6 N 0.4160(3) 0.93341(10) 0.65087(6)
N10_6 N 0.3340(3) 0.81659(10) 0.65087(6)
N11_6 N 0.4689(2) 0.86804(10) 0.63225(7)
N12_6 N 0.2811(2) 0.88196(10) 0.63225(7)
N7_12 N 0.6358(3) 0.94101(11) 0.57377(7)
H16_12 H 0.6622 0.9253 0.5649
N8_12 N 0.5905(3) 0.99572(11) 0.58848(8)
C29_14 C 0.4686(3) 0.93458(12) 0.63150(8)
C30_12 C 0.5827(3) 0.93318(13) 0.59228(8)
C31_12 C 0.5540(3) 0.96709(13) 0.60129(9)
C32_14 C 0.3902(3) 0.96552(12) 0.66034(8)
H17_14 H 0.3547 0.9649 0.6740
C33_12 C 0.5540(3) 0.89829(12) 0.60184(8)
C34_14 C 0.4134(4) 0.99972(13) 0.65091(10)
C35_12 C 0.6393(4) 0.97904(14) 0.57192(10)
C36_14 C 0.4978(3) 0.89930(12) 0.62151(7)
C38_12 C 0.5787(4) 0.86353(14) 0.59286(9)
H20_12 H 0.6152 0.8619 0.5796
C39_14 C 0.4971(3) 0.96872(12) 0.62132(8)
C40_11 C 0.7936(4) 0.99713(14) 0.52203(10)
H21_11 H 0.8265 0.9834 0.5114
C41_12 C 0.6934(3) 0.99775(14) 0.55451(10)
C42_12 C 0.5488(4) 0.83205(15) 0.60378(10)
H22_12 H 0.5647 0.8088 0.5981
C44_12 C 0.7409(4) 0.97870(15) 0.53769(10)
H23_12 H 0.7377 0.9530 0.5368
C46_14 C 0.4951(3) 0.83534(13) 0.62319(10)
H25_14 H 0.4755 0.8137 0.6306
N3_13 N 0.1142(3) 0.80899(11) 0.57377(7)
H1_13 H 0.0878 0.8247 0.5649
N4_13 N 0.1595(3) 0.75428(11) 0.58848(8)
C3_14 C 0.2814(3) 0.81542(12) 0.63150(8)
C4_13 C 0.1673(3) 0.81682(13) 0.59228(8)
C5_13 C 0.1960(3) 0.78291(13) 0.60129(9)
C6_14 C 0.3598(3) 0.78448(12) 0.66034(8)
H2_14 H 0.3953 0.7851 0.6740
C7_13 C 0.1960(3) 0.85171(12) 0.60184(8)
C8_14 C 0.3366(4) 0.75028(13) 0.65091(10)
H3_14 H 0.3573 0.7286 0.6578
C9_13 C 0.1107(4) 0.77096(14) 0.57192(10)
C10_14 C 0.2522(3) 0.85070(12) 0.62151(7)
C11_14 C 0.2838(4) 0.74865(13) 0.63173(10)
H4_14 H 0.2677 0.7257 0.6254
C12_13 C 0.1713(4) 0.88647(14) 0.59286(9)
H5_13 H 0.1348 0.8881 0.5796
C13_14 C 0.2529(3) 0.78128(12) 0.62132(8)
C15_13 C 0.0566(3) 0.75225(14) 0.55451(10)
C16_13 C 0.2012(4) 0.91795(15) 0.60378(10)
H7_13 H 0.1853 0.9412 0.5981
C18_13 C 0.0091(4) 0.77130(15) 0.53769(10)
H8_13 H 0.0123 0.7970 0.5368
C20_14 C 0.2549(3) 0.91466(13) 0.62319(10)
H10_14 H 0.2745 0.9363 0.6306
C23_13 C 0.0519(4) 0.71335(16) 0.55529(13)
H12_13 H 0.0837 0.6999 0.5664
H18_11 H 0.6427 0.9786 0.9078
C37_11 C 0.7162(4) 0.99865(13) 0.88173(10)
H19_11 H 0.7323 0.9757 0.8754
C49_10 C 0.9481(4) 0.96335(16) 0.80529(13)
H27_10 H 0.9163 0.9499 0.8164
Mn1_7 Mn 0.3750 0.3750 0.58545(2)
O1_15 O 0.3156(2) 0.34258(8) 0.55640(6)
O2_14 O 0.2398(2) 0.39194(9) 0.55706(6)
C1_15 C 0.2564(3) 0.36013(13) 0.54882(8)
C2_14 C 0.2044(3) 0.34130(12) 0.52992(8)
C14_13 C 0.0436(4) 0.24713(14) 0.47797(10)
H6_13 H 0.0765 0.2334 0.4886
C17_13 C 0.0482(4) 0.28539(15) 0.47816(11)
C19_14 C 0.1414(4) 0.35843(15) 0.51997(10)
H9_14 H 0.1322 0.3830 0.5246
C21_14 C 0.0912(4) 0.34080(14) 0.50346(12)
H11_13 H 0.0482 0.3534 0.4977
C22_13 C 0.1028(4) 0.30510(14) 0.49522(10)
C24_14 C 0.2174(4) 0.30593(15) 0.52079(13)
H13_15 H 0.2614 0.2937 0.5260
C25_13 C 0.0004(4) 0.30501(16) 0.46060(13)
H14_13 H 0.0040 0.3307 0.4597
C26_14 C 0.1681(4) 0.28821(17) 0.50439(14)
H15_13 H 0.1786 0.2640 0.4992
O3_15 O 0.4344(2) 0.40742(8) 0.55640(6)
O4_13 O 0.5102(2) 0.35806(9) 0.55706(6)
N7_13 N 0.8642(3) 0.55899(11) 0.42623(7)
H16_13 H 0.8378 0.5747 0.4351
N8_13 N 0.9095(3) 0.50428(11) 0.41152(8)
C27_15 C 0.4936(3) 0.38987(13) 0.54882(8)
C28_13 C 0.5456(3) 0.40870(12) 0.52992(8)
C30_13 C 0.9173(3) 0.56682(13) 0.40772(8)
C31_13 C 0.9460(3) 0.53291(13) 0.39871(9)
C33_13 C 0.9460(3) 0.60171(12) 0.39816(8)
C35_13 C 0.8607(4) 0.52096(14) 0.42808(10)
C38_13 C 0.9213(4) 0.63647(14) 0.40714(9)
H20_13 H 0.8848 0.6381 0.4204
C40_12 C 0.7064(4) 0.50287(14) 0.47797(10)
H21_12 H 0.6735 0.5166 0.4886
C41_13 C 0.8066(3) 0.50225(14) 0.44549(10)
C42_13 C 0.9512(4) 0.66795(15) 0.39622(10)
H22_13 H 0.9353 0.6912 0.4019
C43_12 C 0.7018(4) 0.46461(15) 0.47816(11)
C44_13 C 0.7591(4) 0.52130(15) 0.46231(10)
H23_13 H 0.7623 0.5470 0.4632
C45_13 C 0.6086(4) 0.39157(15) 0.51997(10)
H24_13 H 0.6178 0.3670 0.5246
C47_13 C 0.6588(4) 0.40920(14) 0.50346(12)
H26_12 H 0.7018 0.3966 0.4977
C48_12 C 0.6472(4) 0.44490(14) 0.49522(10)
C49_11 C 0.8019(4) 0.46335(16) 0.44471(13)
H27_11 H 0.8337 0.4499 0.4336
C50_13 C 0.5326(4) 0.44407(15) 0.52079(13)
H28_15 H 0.4886 0.4563 0.5260
C51_12 C 0.7496(4) 0.44499(16) 0.46060(13)
H29_12 H 0.7460 0.4193 0.4597
C52_13 C 0.5819(4) 0.46179(17) 0.50439(14)
H30_12 H 0.5714 0.4860 0.4992
N9_7 N 0.3340(3) 0.43341(10) 0.59913(6)
N10_7 N 0.4160(3) 0.31659(10) 0.59913(6)
N11_7 N 0.2811(2) 0.36804(10) 0.61775(7)
N12_7 N 0.4689(2) 0.38196(10) 0.61775(7)
O2_15 O 0.9898(2) 0.10806(9) 0.80706(6)
N3_14 N 0.6358(3) 0.30899(11) 0.67623(7)
H1_14 H 0.6622 0.3247 0.6851
N4_14 N 0.5905(3) 0.25428(11) 0.66152(8)
C2_15 C 0.9544(3) 0.15870(12) 0.77992(8)
C3_15 C 0.4686(3) 0.31542(12) 0.61850(8)
C4_14 C 0.5827(3) 0.31682(13) 0.65772(8)
C5_14 C 0.5540(3) 0.28291(13) 0.64871(9)
C6_15 C 0.3902(3) 0.28448(12) 0.58966(8)
H2_15 H 0.3547 0.2851 0.5760
C7_14 C 0.5540(3) 0.35171(12) 0.64816(8)
C8_15 C 0.4134(4) 0.25028(13) 0.59909(10)
H3_15 H 0.3927 0.2286 0.5922
C9_14 C 0.6393(4) 0.27096(14) 0.67808(10)
C10_15 C 0.4978(3) 0.35070(12) 0.62849(7)
C11_15 C 0.4662(4) 0.24865(13) 0.61827(10)
H4_15 H 0.4823 0.2257 0.6246
C12_14 C 0.5787(4) 0.38647(14) 0.65714(9)
H5_14 H 0.6152 0.3881 0.6704
C13_15 C 0.4971(3) 0.28128(12) 0.62868(8)
C14_14 C 0.7936(4) 0.25287(14) 0.72797(10)
H6_14 H 0.8265 0.2666 0.7386
C15_14 C 0.6934(3) 0.25225(14) 0.69549(10)
C16_14 C 0.5488(4) 0.41795(15) 0.64622(10)
H7_14 H 0.5647 0.4412 0.6519
C17_14 C 0.7982(4) 0.21461(15) 0.72816(11)
C18_14 C 0.7409(4) 0.27130(15) 0.71231(10)
H8_14 H 0.7377 0.2970 0.7132
C19_15 C 0.8914(4) 0.14157(15) 0.76997(10)
H9_15 H 0.8822 0.1170 0.7746
C20_15 C 0.4951(3) 0.41466(13) 0.62681(10)
H10_15 H 0.4755 0.4363 0.6194
C21_15 C 0.8412(4) 0.15920(14) 0.75346(12)
H11_14 H 0.7982 0.1466 0.7477
C22_14 C 0.8528(4) 0.19490(14) 0.74522(10)
C23_14 C 0.6981(4) 0.21335(16) 0.69471(13)
H12_14 H 0.6663 0.1999 0.6836
C24_15 C 0.9674(4) 0.19407(15) 0.77079(13)
C25_14 C 0.7504(4) 0.19499(16) 0.71060(13)
H14_14 H 0.7540 0.1693 0.7097
C26_15 C 0.9181(4) 0.21179(17) 0.75439(14)
H15_14 H 0.9286 0.2360 0.7492
N7_14 N 0.1142(3) 0.44101(11) 0.67623(7)
H16_14 H 0.0878 0.4253 0.6851
N8_14 N 0.1595(3) 0.49572(11) 0.66152(8)
C29_15 C 0.2814(3) 0.43458(12) 0.61850(8)
C30_14 C 0.1673(3) 0.43318(13) 0.65772(8)
C31_14 C 0.1960(3) 0.46709(13) 0.64871(9)
C32_15 C 0.3598(3) 0.46552(12) 0.58966(8)
H17_15 H 0.3953 0.4649 0.5760
C33_14 C 0.1960(3) 0.39829(12) 0.64816(8)
C34_15 C 0.3366(4) 0.49972(13) 0.59909(10)
H18_12 H 0.3573 0.5214 0.5922
C35_14 C 0.1107(4) 0.47904(14) 0.67808(10)
C36_15 C 0.2522(3) 0.39930(12) 0.62849(7)
C37_12 C 0.2838(4) 0.50135(13) 0.61827(10)
H19_12 H 0.2677 0.5243 0.6246
C38_14 C 0.1713(4) 0.36353(14) 0.65714(9)
H20_14 H 0.1348 0.3619 0.6704
C39_15 C 0.2529(3) 0.46872(12) 0.62868(8)
C41_14 C 0.0566(3) 0.49775(14) 0.69549(10)
C42_14 C 0.2012(4) 0.33205(15) 0.64622(10)
H22_14 H 0.1853 0.3088 0.6519
C44_14 C 0.0091(4) 0.47870(15) 0.71231(10)
H23_14 H 0.0123 0.4530 0.7132
C46_15 C 0.2549(3) 0.33534(13) 0.62681(10)
H25_15 H 0.2745 0.3137 0.6194
C49_12 C 0.0519(4) 0.53665(16) 0.69471(13)
H27_12 H 0.0837 0.5501 0.6836
Mn1_8 Mn 0.3750 0.3750 0.16455(2)
O1_16 O 0.4344(2) 0.34258(8) 0.19360(6)
O2_16 O 0.5102(2) 0.39194(9) 0.19294(6)
N3_15 N 0.8642(3) 0.19101(11) 0.32377(7)
H1_15 H 0.8378 0.1753 0.3149
N4_15 N 0.9095(3) 0.24572(11) 0.33848(8)
C1_16 C 0.4936(3) 0.36013(13) 0.20118(8)
C2_16 C 0.5456(3) 0.34130(12) 0.22008(8)
C4_15 C 0.9173(3) 0.18318(13) 0.34228(8)
C5_15 C 0.9460(3) 0.21709(13) 0.35129(9)
C7_15 C 0.9460(3) 0.14829(12) 0.35184(8)
C9_15 C 0.8607(4) 0.22904(14) 0.32192(10)
C12_15 C 0.9213(4) 0.11353(14) 0.34286(9)
H5_15 H 0.8848 0.1119 0.3296
C14_15 C 0.7064(4) 0.24713(14) 0.27203(10)
H6_15 H 0.6735 0.2334 0.2614
C15_15 C 0.8066(3) 0.24775(14) 0.30451(10)
C16_15 C 0.9512(4) 0.08205(15) 0.35378(10)
H7_15 H 0.9353 0.0588 0.3481
C17_15 C 0.7018(4) 0.28539(15) 0.27184(11)
C18_15 C 0.7591(4) 0.22870(15) 0.28769(10)
H8_15 H 0.7623 0.2030 0.2868
C19_16 C 0.6086(4) 0.35843(15) 0.23003(10)
H9_16 H 0.6178 0.3830 0.2254
C21_16 C 0.6588(4) 0.34080(14) 0.24654(12)
H11_15 H 0.7018 0.3534 0.2523
C22_15 C 0.6472(4) 0.30510(14) 0.25478(10)
C23_15 C 0.8019(4) 0.28665(16) 0.30529(13)
H12_15 H 0.8337 0.3001 0.3164
C24_16 C 0.5326(4) 0.30593(15) 0.22921(13)
H13_16 H 0.4886 0.2937 0.2240
C25_15 C 0.7496(4) 0.30501(16) 0.28940(13)
H14_15 H 0.7460 0.3307 0.2903
C26_16 C 0.5819(4) 0.28821(17) 0.24561(14)
H15_15 H 0.5714 0.2640 0.2508
O3_16 O 0.3156(2) 0.40742(8) 0.19360(6)
O4_14 O 0.2398(2) 0.35806(9) 0.19294(6)
C27_16 C 0.2564(3) 0.38987(13) 0.20118(8)
C28_14 C 0.2044(3) 0.40870(12) 0.22008(8)
C40_13 C 0.0436(4) 0.50287(14) 0.27203(10)
H21_13 H 0.0765 0.5166 0.2614
C43_13 C 0.0482(4) 0.46461(15) 0.27184(11)
C45_14 C 0.1414(4) 0.39157(15) 0.23003(10)
H24_14 H 0.1322 0.3670 0.2254
C47_14 C 0.0912(4) 0.40920(14) 0.24654(12)
H26_13 H 0.0482 0.3966 0.2523
C48_13 C 0.1028(4) 0.44490(14) 0.25478(10)
C50_14 C 0.2174(4) 0.44407(15) 0.22921(13)
H28_16 H 0.2614 0.4563 0.2240
C51_13 C 0.0004(4) 0.44499(16) 0.28940(13)
H29_13 H 0.0040 0.4193 0.2903
C52_14 C 0.1681(4) 0.46179(17) 0.24561(14)
H30_13 H 0.1786 0.4860 0.2508
N9_8 N 0.4160(3) 0.43341(10) 0.15087(6)
N10_8 N 0.3340(3) 0.31659(10) 0.15087(6)
N11_8 N 0.4689(2) 0.36804(10) 0.13225(7)
N12_8 N 0.2811(2) 0.38196(10) 0.13225(7)
N7_15 N 0.6358(3) 0.44101(11) 0.07377(7)
H16_15 H 0.6622 0.4253 0.0649
N8_15 N 0.5905(3) 0.49572(11) 0.08848(8)
C29_16 C 0.4686(3) 0.43458(12) 0.13150(8)
C30_15 C 0.5827(3) 0.43318(13) 0.09228(8)
C31_15 C 0.5540(3) 0.46709(13) 0.10129(9)
C32_16 C 0.3902(3) 0.46552(12) 0.16034(8)
H17_16 H 0.3547 0.4649 0.1740
C33_15 C 0.5540(3) 0.39829(12) 0.10184(8)
C34_16 C 0.4134(4) 0.49972(13) 0.15091(10)
H18_13 H 0.3927 0.5214 0.1578
C35_15 C 0.6393(4) 0.47904(14) 0.07192(10)
C36_16 C 0.4978(3) 0.39930(12) 0.12151(7)
C37_13 C 0.4662(4) 0.50135(13) 0.13173(10)
H19_13 H 0.4823 0.5243 0.1254
C38_15 C 0.5787(4) 0.36353(14) 0.09286(9)
H20_15 H 0.6152 0.3619 0.0796
C39_16 C 0.4971(3) 0.46872(12) 0.12132(8)
C40_14 C 0.7936(4) 0.49713(14) 0.02203(10)
H21_14 H 0.8265 0.4834 0.0114
C41_15 C 0.6934(3) 0.49775(14) 0.05451(10)
C42_15 C 0.5488(4) 0.33205(15) 0.10378(10)
H22_15 H 0.5647 0.3088 0.0981
C43_14 C 0.7982(4) 0.53539(15) 0.02184(11)
C44_15 C 0.7409(4) 0.47870(15) 0.03769(10)
H23_15 H 0.7377 0.4530 0.0368
C46_16 C 0.4951(3) 0.33534(13) 0.12319(10)
H25_16 H 0.4755 0.3137 0.1306
H26_14 H 0.7982 0.6034 0.0023
C48_14 C 0.8528(4) 0.55510(14) 0.00478(10)
C49_13 C 0.6981(4) 0.53665(16) 0.05529(13)
H27_13 H 0.6663 0.5501 0.0664
C51_14 C 0.7504(4) 0.55501(16) 0.03940(13)
H29_14 H 0.7540 0.5807 0.0403
H30_14 H 0.9286 0.5140 0.0008
N3_16 N 0.1142(3) 0.30899(11) 0.07377(7)
H1_16 H 0.0878 0.3247 0.0649
N4_16 N 0.1595(3) 0.25428(11) 0.08848(8)
C3_16 C 0.2814(3) 0.31542(12) 0.13150(8)
C4_16 C 0.1673(3) 0.31682(13) 0.09228(8)
C5_16 C 0.1960(3) 0.28291(13) 0.10129(9)
C6_16 C 0.3598(3) 0.28448(12) 0.16034(8)
H2_16 H 0.3953 0.2851 0.1740
C7_16 C 0.1960(3) 0.35171(12) 0.10184(8)
C8_16 C 0.3366(4) 0.25028(13) 0.15091(10)
H3_16 H 0.3573 0.2286 0.1578
C9_16 C 0.1107(4) 0.27096(14) 0.07192(10)
C10_16 C 0.2522(3) 0.35070(12) 0.12151(7)
C11_16 C 0.2838(4) 0.24865(13) 0.13173(10)
H4_16 H 0.2677 0.2257 0.1254
C12_16 C 0.1713(4) 0.38647(14) 0.09286(9)
H5_16 H 0.1348 0.3881 0.0796
C13_16 C 0.2529(3) 0.28128(12) 0.12132(8)
C15_16 C 0.0566(3) 0.25225(14) 0.05451(10)
C16_16 C 0.2012(4) 0.41795(15) 0.10378(10)
H7_16 H 0.1853 0.4412 0.0981
C18_16 C 0.0091(4) 0.27130(15) 0.03769(10)
H8_16 H 0.0123 0.2970 0.0368
C20_16 C 0.2549(3) 0.41466(13) 0.12319(10)
H10_16 H 0.2745 0.4363 0.1306
C23_16 C 0.0519(4) 0.21335(16) 0.05529(13)
H12_16 H 0.0837 0.1999 0.0664
O4_15 O 0.9898(2) 0.14194(9) 0.44294(6)
C28_15 C 0.9544(3) 0.09130(12) 0.47008(8)
H18_14 H 0.3927 0.0214 0.6578
C37_14 C 0.4662(4) 0.00135(13) 0.63173(10)
H19_14 H 0.4823 0.0243 0.6254
C43_15 C 0.7982(4) 0.03539(15) 0.52184(11)
C45_15 C 0.8914(4) 0.10843(15) 0.48003(10)
H24_15 H 0.8822 0.1330 0.4754
C47_15 C 0.8412(4) 0.09080(14) 0.49654(12)
H26_15 H 0.7982 0.1034 0.5023
C48_15 C 0.8528(4) 0.05510(14) 0.50478(10)
C49_14 C 0.6981(4) 0.03665(16) 0.55529(13)
H27_14 H 0.6663 0.0501 0.5664
C50_15 C 0.9674(4) 0.05593(15) 0.47921(13)
C51_15 C 0.7504(4) 0.05501(16) 0.53940(13)
H29_15 H 0.7540 0.0807 0.5403
C52_15 C 0.9181(4) 0.03821(17) 0.49561(14)
H30_15 H 0.9286 0.0140 0.5008
O4_16 O 0.9898(2) 0.64194(9) 0.94294(6)
C28_16 C 0.9544(3) 0.59130(12) 0.97008(8)
C45_16 C 0.8914(4) 0.60843(15) 0.98003(10)
H24_16 H 0.8822 0.6330 0.9754
C47_16 C 0.8412(4) 0.59080(14) 0.99654(12)
C50_16 C 0.9674(4) 0.55593(15) 0.97921(13)
C52_16 C 0.9181(4) 0.53821(17) 0.99561(14)
C14_16 C 0.9564(4) 0.25287(14) 0.02203(10)
H6_16 H 0.9235 0.2666 0.0114
C17_16 C 0.9518(4) 0.21461(15) 0.02184(11)
H11_16 H 0.9518 0.1466 0.0023
C22_16 C 0.8972(4) 0.19490(14) 0.00478(10)
C25_16 C 0.9996(4) 0.19499(16) 0.03940(13)
H14_16 H 0.9960 0.1693 0.0403
H15_16 H 0.8214 0.2360 0.0008
C43_16 C 0.2982(4) 0.03539(15) 0.02184(11)
H26_16 H 0.2982 0.1034 0.0023
C48_16 C 0.3528(4) 0.05510(14) 0.00478(10)
C49_15 C 0.1981(4) 0.03665(16) 0.05529(13)
H27_15 H 0.1663 0.0501 0.0664
C51_16 C 0.2504(4) 0.05501(16) 0.03940(13)
H29_16 H 0.2540 0.0807 0.0403
H30_16 H 0.4286 0.0140 0.0008
N7_16 N 0.1358(3) 0.94101(11) 0.07377(7)
H16_16 H 0.1622 0.9253 0.0649
N8_16 N 0.0905(3) 0.99572(11) 0.08848(8)
C30_16 C 0.0827(3) 0.93318(13) 0.09228(8)
C31_16 C 0.0540(3) 0.96709(13) 0.10129(9)
C33_16 C 0.0540(3) 0.89829(12) 0.10184(8)
C35_16 C 0.1393(4) 0.97904(14) 0.07192(10)
C38_16 C 0.0787(4) 0.86353(14) 0.09286(9)
H20_16 H 0.1152 0.8619 0.0796
C40_15 C 0.2936(4) 0.99713(14) 0.02203(10)
H21_15 H 0.3265 0.9834 0.0114
C41_16 C 0.1934(3) 0.99775(14) 0.05451(10)
C42_16 C 0.0488(4) 0.83205(15) 0.10378(10)
H22_16 H 0.0647 0.8088 0.0981
C44_16 C 0.2409(4) 0.97870(15) 0.03769(10)
H23_16 H 0.2377 0.9530 0.0368
H18_15 H 0.8927 0.0214 0.1578
C37_15 C 0.9662(4) 0.00135(13) 0.13173(10)
H19_15 H 0.9823 0.0243 0.1254
H18_16 H 0.3573 0.0214 0.0922
C37_16 C 0.2838(4) 0.00135(13) 0.11827(10)
H19_16 H 0.2677 0.0243 0.1246
C49_16 C 0.0519(4) 0.03665(16) 0.19471(13)
H27_16 H 0.0837 0.0501 0.1836
C40_16 C 0.9564(4) 0.99713(14) 0.22797(10)
H21_16 H 0.9235 0.9834 0.2386
loop_
_geom_bond_atom_site_label_1
_geom_bond_atom_site_label_2
_geom_bond_site_symmetry_1
_geom_bond_site_symmetry_2
N5 C29 1_555 1_555
N6 C36 1_555 1_555
N7 H16 1_555 1_555
N8 C31 1_555 1_555
C29 C36 1_555 1_555
C30 N7 1_555 1_555
C31 C30 1_555 1_555
C32 N5 1_555 1_555
H17 C32 1_555 1_555
C33 C30 1_555 1_555
C34 C32 1_555 1_555
C35 N7 1_555 1_555
C36 C33 1_555 1_555
C38 C33 1_555 1_555
H20 C38 1_555 1_555
C39 C29 1_555 1_555
C40 H21 1_555 1_555
C41 C35 1_555 1_555
C42 C38 1_555 1_555
H22 C42 1_555 1_555
C44 C40 1_555 1_555
H23 C44 1_555 1_555
C46 N6 1_555 1_555
H25 C46 1_555 1_555
Mn3 N5 1_555 1_555
N6 Mn3 1_555 1_555
N8 C35 1_555 1_555
C31 C39 1_555 1_555
C41 C44 1_555 1_555
C42 C46 1_555 1_555
N1 C3 1_555 1_555
N2 C10 1_555 1_555
N3 H1 1_555 1_555
N4 C5 1_555 1_555
C3 C10 1_555 1_555
C4 N3 1_555 1_555
C5 C4 1_555 1_555
C6 N1 1_555 1_555
H2 C6 1_555 1_555
C7 C4 1_555 1_555
C8 C6 1_555 1_555
H3 C8 1_555 1_555
C9 N3 1_555 1_555
C10 C7 1_555 1_555
C11 C8 1_555 1_555
H4 C11 1_555 1_555
C12 C7 1_555 1_555
H5 C12 1_555 1_555
C13 C3 1_555 1_555
C15 C9 1_555 1_555
C16 C12 1_555 1_555
H7 C16 1_555 1_555
H8 C18 1_555 1_555
C20 N2 1_555 1_555
H10 C20 1_555 1_555
C23 C15 1_555 1_555
H12 C23 1_555 1_555
Mn3 N1 1_555 1_555
N2 Mn3 1_555 1_555
N4 C9 1_555 1_555
C5 C13 1_555 1_555
C11 C13 1_555 1_555
C15 C18 1_555 1_555
C16 C20 1_555 1_555
Mn3 O1 1_555 1_555
O1 C1 1_555 1_555
O2 C1 1_555 1_555
N3_2 H1_2 1_555 1_555
N4_2 C5_2 1_555 1_555
C1 C2 1_555 1_555
C2 C19 1_555 1_555
C4_2 N3_2 1_555 1_555
C5_2 C4_2 1_555 1_555
C7_2 C4_2 1_555 1_555
C9_2 N3_2 1_555 1_555
C12_2 C7_2 1_555 1_555
H5_2 C12_2 1_555 1_555
C14 H6 1_555 1_555
C15_2 C9_2 1_555 1_555
C16_2 C12_2 1_555 1_555
H7_2 C16_2 1_555 1_555
C17 C14 1_555 1_555
C18_2 C14 1_555 1_555
H8_2 C18_2 1_555 1_555
C19 H9 1_555 1_555
C21 C19 1_555 1_555
H11 C21 1_555 1_555
C22 C17 1_555 1_555
C23_2 C15_2 1_555 1_555
H12_2 C23_2 1_555 1_555
C24 C2 1_555 1_555
H13 C24 1_555 1_555
C25 C17 1_555 1_555
H14 C25 1_555 1_555
C26 C22 1_555 1_555
H15 C26 1_555 1_555
O3 Mn3 1_555 1_555
O4 C27 1_555 1_555
C27 O3 1_555 1_555
C28 C27 1_555 1_555
C45 C28 1_555 1_555
H24 C45 1_555 1_555
C47 C45 1_555 1_555
H26 C47 1_555 1_555
C48 C43 1_555 1_555
C50 C28 1_555 1_555
H28 C50 1_555 1_555
C51 C43 1_555 1_555
H29 C51 1_555 1_555
C52 C48 1_555 1_555
H30 C52 1_555 1_555
N4_2 C9_2 1_555 1_555
C15_2 C18_2 1_555 1_555
C21 C22 1_555 1_555
C23_2 C25 1_555 1_555
C24 C26 1_555 1_555
C47 C48 1_555 1_555
C50 C52 1_555 1_555
H19 C37 1_555 1_555
C45_2 C28_2 1_555 1_555
H24_2 C45_2 1_555 1_555
C47_2 C45_2 1_555 1_555
H26_2 C47_2 1_555 1_555
C48_2 C43_2 1_555 1_555
H27 C49 1_555 1_555
C50_2 C28_2 1_555 1_555
C51_2 C43_2 1_555 1_555
H29_2 C51_2 1_555 1_555
C52_2 C48_2 1_555 1_555
H30_2 C52_2 1_555 1_555
C47_2 C48_2 1_555 1_555
C49 C51_2 1_555 1_555
C50_2 C52_2 1_555 1_555
Mn1 O1_2 1_555 1_555
O1_2 C1_2 1_555 1_555
O2_2 C1_2 1_555 1_555
N1_2 C3_2 1_555 1_555
N2_2 C10_2 1_555 1_555
N3_3 H1_3 1_555 1_555
N4_3 C5_3 1_555 1_555
C1_2 C2_2 1_555 1_555
C2_2 C19_2 1_555 1_555
C3_2 C10_2 1_555 1_555
C4_3 N3_3 1_555 1_555
C5_3 C4_3 1_555 1_555
C6_2 N1_2 1_555 1_555
H2_2 C6_2 1_555 1_555
C7_3 C4_3 1_555 1_555
C8_2 C6_2 1_555 1_555
H3_2 C8_2 1_555 1_555
C9_3 N3_3 1_555 1_555
C10_2 C7_3 1_555 1_555
C11_2 C8_2 1_555 1_555
H4_2 C11_2 1_555 1_555
C12_3 C7_3 1_555 1_555
H5_3 C12_3 1_555 1_555
C13_2 C3_2 1_555 1_555
C14_2 H6_2 1_555 1_555
C15_3 C9_3 1_555 1_555
C16_3 C12_3 1_555 1_555
H7_3 C16_3 1_555 1_555
C17_2 C14_2 1_555 1_555
C18_3 C14_2 1_555 1_555
H8_3 C18_3 1_555 1_555
C19_2 H9_2 1_555 1_555
C20_2 N2_2 1_555 1_555
H10_2 C20_2 1_555 1_555
C21_2 C19_2 1_555 1_555
H11_2 C21_2 1_555 1_555
C22_2 C17_2 1_555 1_555
C23_3 C15_3 1_555 1_555
H12_3 C23_3 1_555 1_555
C24_2 C2_2 1_555 1_555
H13_2 C24_2 1_555 1_555
C25_2 C17_2 1_555 1_555
H14_2 C25_2 1_555 1_555
C26_2 C22_2 1_555 1_555
H15_2 C26_2 1_555 1_555
O3_2 Mn1 1_555 1_555
C27_2 O3_2 1_555 1_555
Mn2 N1_2 1_555 1_555
N9 Mn1 1_555 1_555
N10 Mn1 1_555 1_555
N11 Mn1 1_555 1_555
N12 Mn1 1_555 1_555
N2_2 Mn2 1_555 1_555
N4_3 C9_3 1_555 1_555
C5_3 C13_2 1_555 1_555
C11_2 C13_2 1_555 1_555
C15_3 C18_3 1_555 1_555
C16_3 C20_2 1_555 1_555
C21_2 C22_2 1_555 1_555
C23_3 C25_2 1_555 1_555
C24_2 C26_2 1_555 1_555
Mn1_2 O1_3 1_555 1_555
O1_3 C1_3 1_555 1_555
O2_3 C1_3 1_555 1_555
C1_3 C2_3 1_555 1_555
C2_3 C19_3 1_555 1_555
C19_3 H9_3 1_555 1_555
C21_3 C19_3 1_555 1_555
C24_3 C2_3 1_555 1_555
H13_3 C24_3 1_555 1_555
O3_3 Mn1_2 1_555 1_555
C27_3 O3_3 1_555 1_555
N9_2 Mn1_2 1_555 1_555
N10_2 Mn1_2 1_555 1_555
N11_2 Mn1_2 1_555 1_555
N12_2 Mn1_2 1_555 1_555
C24_3 C26_3 1_555 1_555
N5_2 C29_2 1_555 1_555
N6_2 C36_2 1_555 1_555
C29_2 C36_2 1_555 1_555
C32_2 N5_2 1_555 1_555
H17_2 C32_2 1_555 1_555
C34_2 C32_2 1_555 1_555
H18_2 C34_2 1_555 1_555
C37_2 C34_2 1_555 1_555
H19_2 C37_2 1_555 1_555
C39_2 C29_2 1_555 1_555
C46_2 N6_2 1_555 1_555
H25_2 C46_2 1_555 1_555
Mn2 N5_2 1_555 1_555
N6_2 Mn2 1_555 1_555
C37_2 C39_2 1_555 1_555
N9 C29_3 1_555 1_555
N11 C36_3 1_555 1_555
N7_2 H16_2 1_555 1_555
N8_2 C31_2 1_555 1_555
C29_3 C36_3 1_555 1_555
C30_2 N7_2 1_555 1_555
C31_2 C30_2 1_555 1_555
C32_3 N9 1_555 1_555
H17_3 C32_3 1_555 1_555
C33_2 C30_2 1_555 1_555
C34_3 C32_3 1_555 1_555
C35_2 N7_2 1_555 1_555
C36_3 C33_2 1_555 1_555
C38_2 C33_2 1_555 1_555
H20_2 C38_2 1_555 1_555
C39_3 C29_3 1_555 1_555
C40_2 H21_2 1_555 1_555
C41_2 C35_2 1_555 1_555
C42_2 C38_2 1_555 1_555
H22_2 C42_2 1_555 1_555
C44_2 C40_2 1_555 1_555
H23_2 C44_2 1_555 1_555
C46_3 N11 1_555 1_555
H25_3 C46_3 1_555 1_555
N8_2 C35_2 1_555 1_555
C31_2 C39_3 1_555 1_555
C41_2 C44_2 1_555 1_555
C42_2 C46_3 1_555 1_555
Mn2 O1_4 1_555 1_555
O1_4 C1_4 1_555 1_555
O3_4 Mn2 1_555 1_555
O4_3 C27_4 1_555 1_555
N9_2 C29_4 1_555 1_555
N11_2 C36_4 1_555 1_555
N7_3 H16_3 1_555 1_555
N8_3 C31_3 1_555 1_555
C27_4 O3_4 1_555 1_555
C28_3 C27_4 1_555 1_555
C29_4 C36_4 1_555 1_555
C30_3 N7_3 1_555 1_555
C31_3 C30_3 1_555 1_555
C32_4 N9_2 1_555 1_555
H17_4 C32_4 1_555 1_555
C33_3 C30_3 1_555 1_555
C34_4 C32_4 1_555 1_555
H18_3 C34_4 1_555 1_555
C35_3 N7_3 1_555 1_555
C36_4 C33_3 1_555 1_555
C37_3 C34_4 1_555 1_555
H19_3 C37_3 1_555 1_555
C38_3 C33_3 1_555 1_555
H20_3 C38_3 1_555 1_555
C39_4 C29_4 1_555 1_555
C40_3 H21_3 1_555 1_555
C41_3 C35_3 1_555 1_555
C42_3 C38_3 1_555 1_555
H22_3 C42_3 1_555 1_555
C43_3 C40_3 1_555 1_555
C44_3 C40_3 1_555 1_555
H23_3 C44_3 1_555 1_555
C45_3 C28_3 1_555 1_555
H24_3 C45_3 1_555 1_555
C46_4 N11_2 1_555 1_555
H25_4 C46_4 1_555 1_555
C47_3 C45_3 1_555 1_555
H26_3 C47_3 1_555 1_555
C48_3 C43_3 1_555 1_555
C49_2 C41_3 1_555 1_555
H27_2 C49_2 1_555 1_555
C50_3 C28_3 1_555 1_555
H28_4 C50_3 1_555 1_555
C51_3 C43_3 1_555 1_555
H29_3 C51_3 1_555 1_555
C52_3 C48_3 1_555 1_555
H30_3 C52_3 1_555 1_555
N8_3 C35_3 1_555 1_555
C31_3 C39_4 1_555 1_555
C37_3 C39_4 1_555 1_555
C41_3 C44_3 1_555 1_555
C42_3 C46_4 1_555 1_555
C47_3 C48_3 1_555 1_555
C49_2 C51_3 1_555 1_555
C50_3 C52_3 1_555 1_555
N10_2 C3_3 1_555 1_555
N12_2 C10_3 1_555 1_555
C3_3 C10_3 1_555 1_555
C6_3 N10_2 1_555 1_555
H2_3 C6_3 1_555 1_555
C8_3 C6_3 1_555 1_555
H3_3 C8_3 1_555 1_555
C11_3 C8_3 1_555 1_555
H4_3 C11_3 1_555 1_555
C13_3 C3_3 1_555 1_555
C20_3 N12_2 1_555 1_555
H10_3 C20_3 1_555 1_555
C11_3 C13_3 1_555 1_555
N10 C3_4 1_555 1_555
N12 C10_4 1_555 1_555
C3_4 C10_4 1_555 1_555
C6_4 N10 1_555 1_555
H2_4 C6_4 1_555 1_555
C8_4 C6_4 1_555 1_555
H3_4 C8_4 1_555 1_555
C11_4 C8_4 1_555 1_555
H4_4 C11_4 1_555 1_555
C13_4 C3_4 1_555 1_555
C20_4 N12 1_555 1_555
H10_4 C20_4 1_555 1_555
C11_4 C13_4 1_555 1_555
N1_3 C3_5 1_555 1_555
N2_3 C10_5 1_555 1_555
N3_4 H1_4 1_555 1_555
N4_4 C5_4 1_555 1_555
C2_4 C19_4 1_555 1_555
C3_5 C10_5 1_555 1_555
C4_4 N3_4 1_555 1_555
C5_4 C4_4 1_555 1_555
C6_5 N1_3 1_555 1_555
H2_5 C6_5 1_555 1_555
C7_4 C4_4 1_555 1_555
C8_5 C6_5 1_555 1_555
H3_5 C8_5 1_555 1_555
C9_4 N3_4 1_555 1_555
C10_5 C7_4 1_555 1_555
C11_5 C8_5 1_555 1_555
H4_5 C11_5 1_555 1_555
C12_4 C7_4 1_555 1_555
H5_4 C12_4 1_555 1_555
C13_5 C3_5 1_555 1_555
C14_3 H6_3 1_555 1_555
C15_4 C9_4 1_555 1_555
C16_4 C12_4 1_555 1_555
H7_4 C16_4 1_555 1_555
C17_3 C14_3 1_555 1_555
C18_4 C14_3 1_555 1_555
H8_4 C18_4 1_555 1_555
C19_4 H9_4 1_555 1_555
C20_5 N2_3 1_555 1_555
H10_5 C20_5 1_555 1_555
C21_4 C19_4 1_555 1_555
H11_3 C21_4 1_555 1_555
C22_3 C17_3 1_555 1_555
C23_4 C15_4 1_555 1_555
H12_4 C23_4 1_555 1_555
C24_4 C2_4 1_555 1_555
C25_3 C17_3 1_555 1_555
H14_3 C25_3 1_555 1_555
C26_4 C22_3 1_555 1_555
H15_3 C26_4 1_555 1_555
Mn2_2 N1_3 1_555 1_555
N2_3 Mn2_2 1_555 1_555
N4_4 C9_4 1_555 1_555
C5_4 C13_5 1_555 1_555
C11_5 C13_5 1_555 1_555
C15_4 C18_4 1_555 1_555
C16_4 C20_5 1_555 1_555
C21_4 C22_3 1_555 1_555
C23_4 C25_3 1_555 1_555
C24_4 C26_4 1_555 1_555
N5_3 C29_5 1_555 1_555
N6_3 C36_5 1_555 1_555
N7_4 H16_4 1_555 1_555
N8_4 C31_4 1_555 1_555
C29_5 C36_5 1_555 1_555
C30_4 N7_4 1_555 1_555
C31_4 C30_4 1_555 1_555
C32_5 N5_3 1_555 1_555
H17_5 C32_5 1_555 1_555
C33_4 C30_4 1_555 1_555
C34_5 C32_5 1_555 1_555
H18_4 C34_5 1_555 1_555
C35_4 N7_4 1_555 1_555
C36_5 C33_4 1_555 1_555
C37_4 C34_5 1_555 1_555
H19_4 C37_4 1_555 1_555
C38_4 C33_4 1_555 1_555
H20_4 C38_4 1_555 1_555
C39_5 C29_5 1_555 1_555
C41_4 C35_4 1_555 1_555
C42_4 C38_4 1_555 1_555
H22_4 C42_4 1_555 1_555
H23_4 C44_4 1_555 1_555
C46_5 N6_3 1_555 1_555
H25_5 C46_5 1_555 1_555
C49_3 C41_4 1_555 1_555
H27_3 C49_3 1_555 1_555
Mn2_2 N5_3 1_555 1_555
N6_3 Mn2_2 1_555 1_555
N8_4 C35_4 1_555 1_555
C31_4 C39_5 1_555 1_555
C37_4 C39_5 1_555 1_555
C41_4 C44_4 1_555 1_555
C42_4 C46_5 1_555 1_555
Mn2_2 O1_5 1_555 1_555
O1_5 C1_5 1_555 1_555
O2_5 C1_5 1_555 1_555
C1_5 C2_5 1_555 1_555
C2_5 C19_5 1_555 1_555
C14_4 H6_4 1_555 1_555
C17_4 C14_4 1_555 1_555
C19_5 H9_5 1_555 1_555
C21_5 C19_5 1_555 1_555
H11_4 C21_5 1_555 1_555
C22_4 C17_4 1_555 1_555
C24_5 C2_5 1_555 1_555
H13_5 C24_5 1_555 1_555
C25_4 C17_4 1_555 1_555
H14_4 C25_4 1_555 1_555
C26_5 C22_4 1_555 1_555
H15_4 C26_5 1_555 1_555
O3_5 Mn2_2 1_555 1_555
O4_4 C27_5 1_555 1_555
N7_5 H16_5 1_555 1_555
N8_5 C31_5 1_555 1_555
C27_5 O3_5 1_555 1_555
C28_4 C27_5 1_555 1_555
C30_5 N7_5 1_555 1_555
C31_5 C30_5 1_555 1_555
C33_5 C30_5 1_555 1_555
C35_5 N7_5 1_555 1_555
C38_5 C33_5 1_555 1_555
H20_5 C38_5 1_555 1_555
C40_4 H21_4 1_555 1_555
C41_5 C35_5 1_555 1_555
C42_5 C38_5 1_555 1_555
H22_5 C42_5 1_555 1_555
C43_4 C40_4 1_555 1_555
C44_5 C40_4 1_555 1_555
H23_5 C44_5 1_555 1_555
C45_4 C28_4 1_555 1_555
H24_4 C45_4 1_555 1_555
C47_4 C45_4 1_555 1_555
H26_4 C47_4 1_555 1_555
C48_4 C43_4 1_555 1_555
C49_4 C41_5 1_555 1_555
H27_4 C49_4 1_555 1_555
C50_4 C28_4 1_555 1_555
H28_5 C50_4 1_555 1_555
C51_4 C43_4 1_555 1_555
H29_4 C51_4 1_555 1_555
C52_4 C48_4 1_555 1_555
H30_4 C52_4 1_555 1_555
C21_5 C22_4 1_555 1_555
C24_5 C26_5 1_555 1_555
N8_5 C35_5 1_555 1_555
C41_5 C44_5 1_555 1_555
C47_4 C48_4 1_555 1_555
C49_4 C51_4 1_555 1_555
C50_4 C52_4 1_555 1_555
N5_4 C29_6 1_555 1_555
N6_4 C36_6 1_555 1_555
N7_6 H16_6 1_555 1_555
N8_6 C31_6 1_555 1_555
C29_6 C36_6 1_555 1_555
C30_6 N7_6 1_555 1_555
C31_6 C30_6 1_555 1_555
C32_6 N5_4 1_555 1_555
H17_6 C32_6 1_555 1_555
C33_6 C30_6 1_555 1_555
C34_6 C32_6 1_555 1_555
C35_6 N7_6 1_555 1_555
C36_6 C33_6 1_555 1_555
C38_6 C33_6 1_555 1_555
H20_6 C38_6 1_555 1_555
C39_6 C29_6 1_555 1_555
C40_5 H21_5 1_555 1_555
C41_6 C35_6 1_555 1_555
C42_6 C38_6 1_555 1_555
H22_6 C42_6 1_555 1_555
C44_6 C40_5 1_555 1_555
H23_6 C44_6 1_555 1_555
C46_6 N6_4 1_555 1_555
H25_6 C46_6 1_555 1_555
Mn3_2 N5_4 1_555 1_555
N6_4 Mn3_2 1_555 1_555
N8_6 C35_6 1_555 1_555
C31_6 C39_6 1_555 1_555
C41_6 C44_6 1_555 1_555
C42_6 C46_6 1_555 1_555
Mn1_3 O1_6 1_555 1_555
O1_6 C1_6 1_555 1_555
O3_6 Mn1_3 1_555 1_555
O4_5 C27_6 1_555 1_555
N5_5 C29_7 1_555 1_555
N6_5 C36_7 1_555 1_555
N7_7 H16_7 1_555 1_555
N8_7 C31_7 1_555 1_555
C27_6 O3_6 1_555 1_555
C28_5 C27_6 1_555 1_555
C29_7 C36_7 1_555 1_555
C30_7 N7_7 1_555 1_555
C31_7 C30_7 1_555 1_555
C32_7 N5_5 1_555 1_555
H17_7 C32_7 1_555 1_555
C33_7 C30_7 1_555 1_555
C34_7 C32_7 1_555 1_555
H18_5 C34_7 1_555 1_555
C35_7 N7_7 1_555 1_555
C36_7 C33_7 1_555 1_555
C37_5 C34_7 1_555 1_555
H19_5 C37_5 1_555 1_555
C38_7 C33_7 1_555 1_555
H20_7 C38_7 1_555 1_555
C39_7 C29_7 1_555 1_555
C40_6 H21_6 1_555 1_555
C41_7 C35_7 1_555 1_555
C42_7 C38_7 1_555 1_555
H22_7 C42_7 1_555 1_555
C43_5 C40_6 1_555 1_555
C44_7 C40_6 1_555 1_555
H23_7 C44_7 1_555 1_555
C45_5 C28_5 1_555 1_555
H24_5 C45_5 1_555 1_555
C46_7 N6_5 1_555 1_555
H25_7 C46_7 1_555 1_555
C47_5 C45_5 1_555 1_555
H26_5 C47_5 1_555 1_555
C48_5 C43_5 1_555 1_555
C49_5 C41_7 1_555 1_555
H27_5 C49_5 1_555 1_555
C50_5 C28_5 1_555 1_555
H28_6 C50_5 1_555 1_555
C51_5 C43_5 1_555 1_555
H29_5 C51_5 1_555 1_555
C52_5 C48_5 1_555 1_555
H30_5 C52_5 1_555 1_555
Mn3_3 N5_5 1_555 1_555
N9_3 Mn1_3 1_555 1_555
N10_3 Mn1_3 1_555 1_555
N11_3 Mn1_3 1_555 1_555
N12_3 Mn1_3 1_555 1_555
N6_5 Mn3_3 1_555 1_555
N8_7 C35_7 1_555 1_555
C31_7 C39_7 1_555 1_555
C37_5 C39_7 1_555 1_555
C41_7 C44_7 1_555 1_555
C42_7 C46_7 1_555 1_555
C47_5 C48_5 1_555 1_555
C49_5 C51_5 1_555 1_555
C50_5 C52_5 1_555 1_555
N1_4 C3_6 1_555 1_555
N2_4 C10_6 1_555 1_555
C3_6 C10_6 1_555 1_555
C6_6 N1_4 1_555 1_555
H2_6 C6_6 1_555 1_555
C8_6 C6_6 1_555 1_555
H3_6 C8_6 1_555 1_555
C11_6 C8_6 1_555 1_555
H4_6 C11_6 1_555 1_555
C13_6 C3_6 1_555 1_555
C20_6 N2_4 1_555 1_555
H10_6 C20_6 1_555 1_555
Mn3_3 N1_4 1_555 1_555
N2_4 Mn3_3 1_555 1_555
C11_6 C13_6 1_555 1_555
N1_5 C3_7 1_555 1_555
N2_5 C10_7 1_555 1_555
C3_7 C10_7 1_555 1_555
C6_7 N1_5 1_555 1_555
H2_7 C6_7 1_555 1_555
C8_7 C6_7 1_555 1_555
H3_7 C8_7 1_555 1_555
C11_7 C8_7 1_555 1_555
H4_7 C11_7 1_555 1_555
C13_7 C3_7 1_555 1_555
C20_7 N2_5 1_555 1_555
H10_7 C20_7 1_555 1_555
Mn3_2 N1_5 1_555 1_555
N2_5 Mn3_2 1_555 1_555
C11_7 C13_7 1_555 1_555
Mn3_2 O1_7 1_555 1_555
O1_7 C1_7 1_555 1_555
O2_6 C1_7 1_555 1_555
N10_3 C3_8 1_555 1_555
N12_3 C10_8 1_555 1_555
N3_5 H1_5 1_555 1_555
N4_5 C5_5 1_555 1_555
C1_7 C2_6 1_555 1_555
C2_6 C19_6 1_555 1_555
C3_8 C10_8 1_555 1_555
C4_5 N3_5 1_555 1_555
C5_5 C4_5 1_555 1_555
C6_8 N10_3 1_555 1_555
H2_8 C6_8 1_555 1_555
C7_5 C4_5 1_555 1_555
C8_8 C6_8 1_555 1_555
H3_8 C8_8 1_555 1_555
C9_5 N3_5 1_555 1_555
C10_8 C7_5 1_555 1_555
C11_8 C8_8 1_555 1_555
H4_8 C11_8 1_555 1_555
C12_5 C7_5 1_555 1_555
H5_5 C12_5 1_555 1_555
C13_8 C3_8 1_555 1_555
C14_5 H6_5 1_555 1_555
C15_5 C9_5 1_555 1_555
C16_5 C12_5 1_555 1_555
H7_5 C16_5 1_555 1_555
C17_5 C14_5 1_555 1_555
C18_5 C14_5 1_555 1_555
H8_5 C18_5 1_555 1_555
C19_6 H9_6 1_555 1_555
C20_8 N12_3 1_555 1_555
H10_8 C20_8 1_555 1_555
C21_6 C19_6 1_555 1_555
H11_5 C21_6 1_555 1_555
C22_5 C17_5 1_555 1_555
C23_5 C15_5 1_555 1_555
H12_5 C23_5 1_555 1_555
C24_6 C2_6 1_555 1_555
H13_7 C24_6 1_555 1_555
C25_5 C17_5 1_555 1_555
H14_5 C25_5 1_555 1_555
C26_6 C22_5 1_555 1_555
H15_5 C26_6 1_555 1_555
O3_7 Mn3_2 1_555 1_555
C27_7 O3_7 1_555 1_555
N4_5 C9_5 1_555 1_555
C5_5 C13_8 1_555 1_555
C11_8 C13_8 1_555 1_555
C15_5 C18_5 1_555 1_555
C16_5 C20_8 1_555 1_555
C21_6 C22_5 1_555 1_555
C23_5 C25_5 1_555 1_555
C24_6 C26_6 1_555 1_555
Mn3_3 O1_8 1_555 1_555
O1_8 C1_8 1_555 1_555
O2_7 C1_8 1_555 1_555
C1_8 C2_7 1_555 1_555
C2_7 C19_7 1_555 1_555
C19_7 H9_7 1_555 1_555
C21_7 C19_7 1_555 1_555
C24_7 C2_7 1_555 1_555
H13_8 C24_7 1_555 1_555
O3_8 Mn3_3 1_555 1_555
C27_8 O3_8 1_555 1_555
C24_7 C26_7 1_555 1_555
N9_3 C29_8 1_555 1_555
N11_3 C36_8 1_555 1_555
C29_8 C36_8 1_555 1_555
C32_8 N9_3 1_555 1_555
H17_8 C32_8 1_555 1_555
C34_8 C32_8 1_555 1_555
H18_6 C34_8 1_555 1_555
C37_6 C34_8 1_555 1_555
H19_6 C37_6 1_555 1_555
C39_8 C29_8 1_555 1_555
C46_8 N11_3 1_555 1_555
H25_8 C46_8 1_555 1_555
C37_6 C39_8 1_555 1_555
Mn1_4 O1_9 1_555 1_555
O1_9 C1_9 1_555 1_555
O3_9 Mn1_4 1_555 1_555
O4_6 C27_9 1_555 1_555
C27_9 O3_9 1_555 1_555
C28_6 C27_9 1_555 1_555
H19_7 C37_7 1_555 1_555
C45_6 C28_6 1_555 1_555
H24_6 C45_6 1_555 1_555
C47_6 C45_6 1_555 1_555
H26_6 C47_6 1_555 1_555
C48_6 C43_6 1_555 1_555
H27_6 C49_6 1_555 1_555
C50_6 C28_6 1_555 1_555
H28_9 C50_6 1_555 1_555
C51_6 C43_6 1_555 1_555
H29_6 C51_6 1_555 1_555
C52_6 C48_6 1_555 1_555
H30_6 C52_6 1_555 1_555
N9_4 Mn1_4 1_555 1_555
N10_4 Mn1_4 1_555 1_555
N11_4 Mn1_4 1_555 1_555
N12_4 Mn1_4 1_555 1_555
C47_6 C48_6 1_555 1_555
C49_6 C51_6 1_555 1_555
C50_6 C52_6 1_555 1_555
N10_4 C3_9 1_555 1_555
N12_4 C10_9 1_555 1_555
N3_6 H1_6 1_555 1_555
N4_6 C5_6 1_555 1_555
C3_9 C10_9 1_555 1_555
C4_6 N3_6 1_555 1_555
C5_6 C4_6 1_555 1_555
C6_9 N10_4 1_555 1_555
H2_9 C6_9 1_555 1_555
C7_6 C4_6 1_555 1_555
C8_9 C6_9 1_555 1_555
H3_9 C8_9 1_555 1_555
C9_6 N3_6 1_555 1_555
C10_9 C7_6 1_555 1_555
C11_9 C8_9 1_555 1_555
H4_9 C11_9 1_555 1_555
C12_6 C7_6 1_555 1_555
H5_6 C12_6 1_555 1_555
C13_9 C3_9 1_555 1_555
C14_6 H6_6 1_555 1_555
C15_6 C9_6 1_555 1_555
C16_6 C12_6 1_555 1_555
H7_6 C16_6 1_555 1_555
C17_6 C14_6 1_555 1_555
C18_6 C14_6 1_555 1_555
H8_6 C18_6 1_555 1_555
C20_9 N12_4 1_555 1_555
H10_9 C20_9 1_555 1_555
C22_6 C17_6 1_555 1_555
C23_6 C15_6 1_555 1_555
H12_6 C23_6 1_555 1_555
C25_6 C17_6 1_555 1_555
H14_6 C25_6 1_555 1_555
N4_6 C9_6 1_555 1_555
C5_6 C13_9 1_555 1_555
C11_9 C13_9 1_555 1_555
C15_6 C18_6 1_555 1_555
C16_6 C20_9 1_555 1_555
C23_6 C25_6 1_555 1_555
N9_4 C29_9 1_555 1_555
N11_4 C36_9 1_555 1_555
C29_9 C36_9 1_555 1_555
C32_9 N9_4 1_555 1_555
H17_9 C32_9 1_555 1_555
C34_9 C32_9 1_555 1_555
C39_9 C29_9 1_555 1_555
C46_9 N11_4 1_555 1_555
H25_9 C46_9 1_555 1_555
C45_7 C28_7 1_555 1_555
H24_7 C45_7 1_555 1_555
C47_7 C45_7 1_555 1_555
C50_7 C28_7 1_555 1_555
C50_7 C52_7 1_555 1_555
N5_6 C29_10 1_555 1_555
N6_6 C36_10 1_555 1_555
N7_8 H16_8 1_555 1_555
N8_8 C31_8 1_555 1_555
C29_10 C36_10 1_555 1_555
C30_8 N7_8 1_555 1_555
C31_8 C30_8 1_555 1_555
C32_10 N5_6 1_555 1_555
H17_10 C32_10 1_555 1_555
C33_8 C30_8 1_555 1_555
C34_10 C32_10 1_555 1_555
H18_8 C34_10 1_555 1_555
C35_8 N7_8 1_555 1_555
C36_10 C33_8 1_555 1_555
C37_8 C34_10 1_555 1_555
H19_8 C37_8 1_555 1_555
C38_8 C33_8 1_555 1_555
H20_8 C38_8 1_555 1_555
C39_10 C29_10 1_555 1_555
C40_7 H21_7 1_555 1_555
C41_8 C35_8 1_555 1_555
C42_8 C38_8 1_555 1_555
H22_8 C42_8 1_555 1_555
C43_7 C40_7 1_555 1_555
C44_8 C40_7 1_555 1_555
H23_8 C44_8 1_555 1_555
C46_10 N6_6 1_555 1_555
H25_10 C46_10 1_555 1_555
C48_7 C43_7 1_555 1_555
C49_7 C41_8 1_555 1_555
H27_7 C49_7 1_555 1_555
C51_7 C43_7 1_555 1_555
H29_7 C51_7 1_555 1_555
Mn3_4 N5_6 1_555 1_555
N6_6 Mn3_4 1_555 1_555
N8_8 C35_8 1_555 1_555
C31_8 C39_10 1_555 1_555
C37_8 C39_10 1_555 1_555
C41_8 C44_8 1_555 1_555
C42_8 C46_10 1_555 1_555
C49_7 C51_7 1_555 1_555
N1_6 C3_10 1_555 1_555
N2_6 C10_10 1_555 1_555
N3_7 H1_7 1_555 1_555
N4_7 C5_7 1_555 1_555
C3_10 C10_10 1_555 1_555
C4_7 N3_7 1_555 1_555
C5_7 C4_7 1_555 1_555
C6_10 N1_6 1_555 1_555
H2_10 C6_10 1_555 1_555
C7_7 C4_7 1_555 1_555
C8_10 C6_10 1_555 1_555
H3_10 C8_10 1_555 1_555
C9_7 N3_7 1_555 1_555
C10_10 C7_7 1_555 1_555
C11_10 C8_10 1_555 1_555
H4_10 C11_10 1_555 1_555
C12_7 C7_7 1_555 1_555
H5_7 C12_7 1_555 1_555
C13_10 C3_10 1_555 1_555
C15_7 C9_7 1_555 1_555
C16_7 C12_7 1_555 1_555
H7_7 C16_7 1_555 1_555
H8_7 C18_7 1_555 1_555
C20_10 N2_6 1_555 1_555
H10_10 C20_10 1_555 1_555
C23_7 C15_7 1_555 1_555
H12_7 C23_7 1_555 1_555
Mn3_4 N1_6 1_555 1_555
N2_6 Mn3_4 1_555 1_555
N4_7 C9_7 1_555 1_555
C5_7 C13_10 1_555 1_555
C11_10 C13_10 1_555 1_555
C15_7 C18_7 1_555 1_555
C16_7 C20_10 1_555 1_555
Mn3_4 O1_10 1_555 1_555
O1_10 C1_10 1_555 1_555
O2_8 C1_10 1_555 1_555
N3_8 H1_8 1_555 1_555
N4_8 C5_8 1_555 1_555
C1_10 C2_8 1_555 1_555
C2_8 C19_8 1_555 1_555
C4_8 N3_8 1_555 1_555
C5_8 C4_8 1_555 1_555
C7_8 C4_8 1_555 1_555
C9_8 N3_8 1_555 1_555
C12_8 C7_8 1_555 1_555
H5_8 C12_8 1_555 1_555
C14_7 H6_7 1_555 1_555
C15_8 C9_8 1_555 1_555
C16_8 C12_8 1_555 1_555
H7_8 C16_8 1_555 1_555
C17_7 C14_7 1_555 1_555
C18_8 C14_7 1_555 1_555
H8_8 C18_8 1_555 1_555
C19_8 H9_8 1_555 1_555
C21_8 C19_8 1_555 1_555
H11_7 C21_8 1_555 1_555
C22_7 C17_7 1_555 1_555
C23_8 C15_8 1_555 1_555
H12_8 C23_8 1_555 1_555
C24_8 C2_8 1_555 1_555
H13_10 C24_8 1_555 1_555
C25_7 C17_7 1_555 1_555
H14_7 C25_7 1_555 1_555
C26_8 C22_7 1_555 1_555
H15_7 C26_8 1_555 1_555
O3_10 Mn3_4 1_555 1_555
O4_8 C27_10 1_555 1_555
C27_10 O3_10 1_555 1_555
C28_8 C27_10 1_555 1_555
C40_8 H21_8 1_555 1_555
C43_8 C40_8 1_555 1_555
C45_8 C28_8 1_555 1_555
H24_8 C45_8 1_555 1_555
C47_8 C45_8 1_555 1_555
H26_8 C47_8 1_555 1_555
C48_8 C43_8 1_555 1_555
C50_8 C28_8 1_555 1_555
H28_10 C50_8 1_555 1_555
C51_8 C43_8 1_555 1_555
H29_8 C51_8 1_555 1_555
C52_8 C48_8 1_555 1_555
H30_8 C52_8 1_555 1_555
N4_8 C9_8 1_555 1_555
C15_8 C18_8 1_555 1_555
C21_8 C22_7 1_555 1_555
C23_8 C25_7 1_555 1_555
C24_8 C26_8 1_555 1_555
C47_8 C48_8 1_555 1_555
C50_8 C52_8 1_555 1_555
N1_7 C3_11 1_555 1_555
N2_7 C10_11 1_555 1_555
N3_9 H1_9 1_555 1_555
N4_9 C5_9 1_555 1_555
C3_11 C10_11 1_555 1_555
C4_9 N3_9 1_555 1_555
C5_9 C4_9 1_555 1_555
C6_11 N1_7 1_555 1_555
H2_11 C6_11 1_555 1_555
C7_9 C4_9 1_555 1_555
C8_11 C6_11 1_555 1_555
H3_11 C8_11 1_555 1_555
C9_9 N3_9 1_555 1_555
C10_11 C7_9 1_555 1_555
C11_11 C8_11 1_555 1_555
H4_11 C11_11 1_555 1_555
C12_9 C7_9 1_555 1_555
H5_9 C12_9 1_555 1_555
C13_11 C3_11 1_555 1_555
C14_8 H6_8 1_555 1_555
C15_9 C9_9 1_555 1_555
C16_9 C12_9 1_555 1_555
H7_9 C16_9 1_555 1_555
C17_8 C14_8 1_555 1_555
C18_9 C14_8 1_555 1_555
H8_9 C18_9 1_555 1_555
C20_11 N2_7 1_555 1_555
H10_11 C20_11 1_555 1_555
C22_8 C17_8 1_555 1_555
C23_9 C15_9 1_555 1_555
H12_9 C23_9 1_555 1_555
C25_8 C17_8 1_555 1_555
H14_8 C25_8 1_555 1_555
Mn2_3 N1_7 1_555 1_555
N2_7 Mn2_3 1_555 1_555
N4_9 C9_9 1_555 1_555
C5_9 C13_11 1_555 1_555
C11_11 C13_11 1_555 1_555
C15_9 C18_9 1_555 1_555
C16_9 C20_11 1_555 1_555
C23_9 C25_8 1_555 1_555
N5_7 C29_11 1_555 1_555
N6_7 C36_11 1_555 1_555
C29_11 C36_11 1_555 1_555
C32_11 N5_7 1_555 1_555
H17_11 C32_11 1_555 1_555
C34_11 C32_11 1_555 1_555
C39_11 C29_11 1_555 1_555
C46_11 N6_7 1_555 1_555
H25_11 C46_11 1_555 1_555
Mn2_3 N5_7 1_555 1_555
N6_7 Mn2_3 1_555 1_555
Mn2_3 O1_11 1_555 1_555
O1_11 C1_11 1_555 1_555
O3_11 Mn2_3 1_555 1_555
O4_9 C27_11 1_555 1_555
C27_11 O3_11 1_555 1_555
C28_9 C27_11 1_555 1_555
H19_9 C37_9 1_555 1_555
C45_9 C28_9 1_555 1_555
H24_9 C45_9 1_555 1_555
C47_9 C45_9 1_555 1_555
H26_9 C47_9 1_555 1_555
C48_9 C43_9 1_555 1_555
H27_8 C49_8 1_555 1_555
C50_9 C28_9 1_555 1_555
H28_11 C50_9 1_555 1_555
C51_9 C43_9 1_555 1_555
H29_9 C51_9 1_555 1_555
C52_9 C48_9 1_555 1_555
H30_9 C52_9 1_555 1_555
C47_9 C48_9 1_555 1_555
C49_8 C51_9 1_555 1_555
C50_9 C52_9 1_555 1_555
N1_8 C3_12 1_555 1_555
N2_8 C10_12 1_555 1_555
N3_10 H1_10 1_555 1_555
N4_10 C5_10 1_555 1_555
C2_9 C19_9 1_555 1_555
C3_12 C10_12 1_555 1_555
C4_10 N3_10 1_555 1_555
C5_10 C4_10 1_555 1_555
C6_12 N1_8 1_555 1_555
H2_12 C6_12 1_555 1_555
C7_10 C4_10 1_555 1_555
C8_12 C6_12 1_555 1_555
H3_12 C8_12 1_555 1_555
C9_10 N3_10 1_555 1_555
C10_12 C7_10 1_555 1_555
C11_12 C8_12 1_555 1_555
H4_12 C11_12 1_555 1_555
C12_10 C7_10 1_555 1_555
H5_10 C12_10 1_555 1_555
C13_12 C3_12 1_555 1_555
C14_9 H6_9 1_555 1_555
C15_10 C9_10 1_555 1_555
C16_10 C12_10 1_555 1_555
H7_10 C16_10 1_555 1_555
C17_9 C14_9 1_555 1_555
C18_10 C14_9 1_555 1_555
H8_10 C18_10 1_555 1_555
C19_9 H9_9 1_555 1_555
C20_12 N2_8 1_555 1_555
H10_12 C20_12 1_555 1_555
C21_9 C19_9 1_555 1_555
H11_9 C21_9 1_555 1_555
C22_9 C17_9 1_555 1_555
C23_10 C15_10 1_555 1_555
H12_10 C23_10 1_555 1_555
C24_9 C2_9 1_555 1_555
C25_9 C17_9 1_555 1_555
H14_9 C25_9 1_555 1_555
C26_9 C22_9 1_555 1_555
H15_9 C26_9 1_555 1_555
Mn2_4 N1_8 1_555 1_555
N2_8 Mn2_4 1_555 1_555
N4_10 C9_10 1_555 1_555
C5_10 C13_12 1_555 1_555
C11_12 C13_12 1_555 1_555
C15_10 C18_10 1_555 1_555
C16_10 C20_12 1_555 1_555
C21_9 C22_9 1_555 1_555
C23_10 C25_9 1_555 1_555
C24_9 C26_9 1_555 1_555
N5_8 C29_12 1_555 1_555
N6_8 C36_12 1_555 1_555
N7_9 H16_9 1_555 1_555
N8_9 C31_9 1_555 1_555
C29_12 C36_12 1_555 1_555
C30_9 N7_9 1_555 1_555
C31_9 C30_9 1_555 1_555
C32_12 N5_8 1_555 1_555
H17_12 C32_12 1_555 1_555
C33_9 C30_9 1_555 1_555
C34_12 C32_12 1_555 1_555
C35_9 N7_9 1_555 1_555
C36_12 C33_9 1_555 1_555
C38_9 C33_9 1_555 1_555
H20_9 C38_9 1_555 1_555
C39_12 C29_12 1_555 1_555
C41_9 C35_9 1_555 1_555
C42_9 C38_9 1_555 1_555
H22_9 C42_9 1_555 1_555
H23_9 C44_9 1_555 1_555
C46_12 N6_8 1_555 1_555
H25_12 C46_12 1_555 1_555
Mn2_4 N5_8 1_555 1_555
N6_8 Mn2_4 1_555 1_555
N8_9 C35_9 1_555 1_555
C31_9 C39_12 1_555 1_555
C41_9 C44_9 1_555 1_555
C42_9 C46_12 1_555 1_555
Mn2_4 O1_12 1_555 1_555
O1_12 C1_12 1_555 1_555
O2_10 C1_12 1_555 1_555
C1_12 C2_10 1_555 1_555
C2_10 C19_10 1_555 1_555
C19_10 H9_10 1_555 1_555
C21_10 C19_10 1_555 1_555
C24_10 C2_10 1_555 1_555
H13_12 C24_10 1_555 1_555
O3_12 Mn2_4 1_555 1_555
O4_10 C27_12 1_555 1_555
C27_12 O3_12 1_555 1_555
C28_10 C27_12 1_555 1_555
C45_10 C28_10 1_555 1_555
H24_10 C45_10 1_555 1_555
C47_10 C45_10 1_555 1_555
C50_10 C28_10 1_555 1_555
H28_12 C50_10 1_555 1_555
C24_10 C26_10 1_555 1_555
C50_10 C52_10 1_555 1_555
H19_10 C37_10 1_555 1_555
N7_10 H16_10 1_555 1_555
N8_10 C31_10 1_555 1_555
C30_10 N7_10 1_555 1_555
C31_10 C30_10 1_555 1_555
C33_10 C30_10 1_555 1_555
C35_10 N7_10 1_555 1_555
C38_10 C33_10 1_555 1_555
H20_10 C38_10 1_555 1_555
C40_9 H21_9 1_555 1_555
C41_10 C35_10 1_555 1_555
C42_10 C38_10 1_555 1_555
H22_10 C42_10 1_555 1_555
C44_10 C40_9 1_555 1_555
H23_10 C44_10 1_555 1_555
N8_10 C35_10 1_555 1_555
C41_10 C44_10 1_555 1_555
Mn1_5 O1_13 1_555 1_555
O1_13 C1_13 1_555 1_555
O2_11 C1_13 1_555 1_555
C1_13 C2_11 1_555 1_555
C2_11 C19_11 1_555 1_555
C19_11 H9_11 1_555 1_555
C21_11 C19_11 1_555 1_555
C24_11 C2_11 1_555 1_555
H13_13 C24_11 1_555 1_555
O3_13 Mn1_5 1_555 1_555
O4_11 C27_13 1_555 1_555
C27_13 O3_13 1_555 1_555
C28_11 C27_13 1_555 1_555
C45_11 C28_11 1_555 1_555
H24_11 C45_11 1_555 1_555
C47_11 C45_11 1_555 1_555
C50_11 C28_11 1_555 1_555
H28_13 C50_11 1_555 1_555
N9_5 Mn1_5 1_555 1_555
N10_5 Mn1_5 1_555 1_555
N11_5 Mn1_5 1_555 1_555
N12_5 Mn1_5 1_555 1_555
C24_11 C26_11 1_555 1_555
C50_11 C52_11 1_555 1_555
N10_5 C3_13 1_555 1_555
N12_5 C10_13 1_555 1_555
N3_11 H1_11 1_555 1_555
N4_11 C5_11 1_555 1_555
C2_12 C19_12 1_555 1_555
C3_13 C10_13 1_555 1_555
C4_11 N3_11 1_555 1_555
C5_11 C4_11 1_555 1_555
C6_13 N10_5 1_555 1_555
H2_13 C6_13 1_555 1_555
C7_11 C4_11 1_555 1_555
C8_13 C6_13 1_555 1_555
H3_13 C8_13 1_555 1_555
C9_11 N3_11 1_555 1_555
C10_13 C7_11 1_555 1_555
C11_13 C8_13 1_555 1_555
H4_13 C11_13 1_555 1_555
C12_11 C7_11 1_555 1_555
H5_11 C12_11 1_555 1_555
C13_13 C3_13 1_555 1_555
C14_10 H6_10 1_555 1_555
C15_11 C9_11 1_555 1_555
C16_11 C12_11 1_555 1_555
H7_11 C16_11 1_555 1_555
C17_10 C14_10 1_555 1_555
C18_11 C14_10 1_555 1_555
H8_11 C18_11 1_555 1_555
C19_12 H9_12 1_555 1_555
C20_13 N12_5 1_555 1_555
H10_13 C20_13 1_555 1_555
C21_12 C19_12 1_555 1_555
H11_10 C21_12 1_555 1_555
C22_10 C17_10 1_555 1_555
C23_11 C15_11 1_555 1_555
H12_11 C23_11 1_555 1_555
C24_12 C2_12 1_555 1_555
C25_10 C17_10 1_555 1_555
H14_10 C25_10 1_555 1_555
C26_12 C22_10 1_555 1_555
H15_10 C26_12 1_555 1_555
N4_11 C9_11 1_555 1_555
C5_11 C13_13 1_555 1_555
C11_13 C13_13 1_555 1_555
C15_11 C18_11 1_555 1_555
C16_11 C20_13 1_555 1_555
C21_12 C22_10 1_555 1_555
C23_11 C25_10 1_555 1_555
C24_12 C26_12 1_555 1_555
N9_5 C29_13 1_555 1_555
N11_5 C36_13 1_555 1_555
N7_11 H16_11 1_555 1_555
N8_11 C31_11 1_555 1_555
C29_13 C36_13 1_555 1_555
C30_11 N7_11 1_555 1_555
C31_11 C30_11 1_555 1_555
C32_13 N9_5 1_555 1_555
H17_13 C32_13 1_555 1_555
C33_11 C30_11 1_555 1_555
C34_13 C32_13 1_555 1_555
C35_11 N7_11 1_555 1_555
C36_13 C33_11 1_555 1_555
C38_11 C33_11 1_555 1_555
H20_11 C38_11 1_555 1_555
C39_13 C29_13 1_555 1_555
C41_11 C35_11 1_555 1_555
C42_11 C38_11 1_555 1_555
H22_11 C42_11 1_555 1_555
H23_11 C44_11 1_555 1_555
C46_13 N11_5 1_555 1_555
H25_13 C46_13 1_555 1_555
N8_11 C35_11 1_555 1_555
C31_11 C39_13 1_555 1_555
C41_11 C44_11 1_555 1_555
C42_11 C46_13 1_555 1_555
C14_11 H6_11 1_555 1_555
C17_11 C14_11 1_555 1_555
C22_11 C17_11 1_555 1_555
C25_11 C17_11 1_555 1_555
H14_11 C25_11 1_555 1_555
C48_10 C43_10 1_555 1_555
H27_9 C49_9 1_555 1_555
C51_10 C43_10 1_555 1_555
H29_10 C51_10 1_555 1_555
C49_9 C51_10 1_555 1_555
C40_10 H21_10 1_555 1_555
Mn1_6 O1_14 1_555 1_555
O1_14 C1_14 1_555 1_555
O2_13 C1_14 1_555 1_555
N3_12 H1_12 1_555 1_555
N4_12 C5_12 1_555 1_555
C1_14 C2_13 1_555 1_555
C2_13 C19_13 1_555 1_555
C4_12 N3_12 1_555 1_555
C5_12 C4_12 1_555 1_555
C7_12 C4_12 1_555 1_555
C9_12 N3_12 1_555 1_555
C12_12 C7_12 1_555 1_555
H5_12 C12_12 1_555 1_555
C14_12 H6_12 1_555 1_555
C15_12 C9_12 1_555 1_555
C16_12 C12_12 1_555 1_555
H7_12 C16_12 1_555 1_555
C17_12 C14_12 1_555 1_555
C18_12 C14_12 1_555 1_555
H8_12 C18_12 1_555 1_555
C19_13 H9_13 1_555 1_555
C21_13 C19_13 1_555 1_555
H11_12 C21_13 1_555 1_555
C22_12 C17_12 1_555 1_555
C23_12 C15_12 1_555 1_555
H12_12 C23_12 1_555 1_555
C24_13 C2_13 1_555 1_555
H13_14 C24_13 1_555 1_555
C25_12 C17_12 1_555 1_555
H14_12 C25_12 1_555 1_555
C26_13 C22_12 1_555 1_555
H15_12 C26_13 1_555 1_555
O3_14 Mn1_6 1_555 1_555
O4_12 C27_14 1_555 1_555
C27_14 O3_14 1_555 1_555
C28_12 C27_14 1_555 1_555
C45_12 C28_12 1_555 1_555
H24_12 C45_12 1_555 1_555
C47_12 C45_12 1_555 1_555
H26_11 C47_12 1_555 1_555
C48_11 C43_11 1_555 1_555
C50_12 C28_12 1_555 1_555
H28_14 C50_12 1_555 1_555
C51_11 C43_11 1_555 1_555
H29_11 C51_11 1_555 1_555
C52_12 C48_11 1_555 1_555
H30_11 C52_12 1_555 1_555
N9_6 Mn1_6 1_555 1_555
N10_6 Mn1_6 1_555 1_555
N11_6 Mn1_6 1_555 1_555
N12_6 Mn1_6 1_555 1_555
N4_12 C9_12 1_555 1_555
C15_12 C18_12 1_555 1_555
C21_13 C22_12 1_555 1_555
C23_12 C25_12 1_555 1_555
C24_13 C26_13 1_555 1_555
C47_12 C48_11 1_555 1_555
C50_12 C52_12 1_555 1_555
N9_6 C29_14 1_555 1_555
N11_6 C36_14 1_555 1_555
N7_12 H16_12 1_555 1_555
N8_12 C31_12 1_555 1_555
C29_14 C36_14 1_555 1_555
C30_12 N7_12 1_555 1_555
C31_12 C30_12 1_555 1_555
C32_14 N9_6 1_555 1_555
H17_14 C32_14 1_555 1_555
C33_12 C30_12 1_555 1_555
C34_14 C32_14 1_555 1_555
C35_12 N7_12 1_555 1_555
C36_14 C33_12 1_555 1_555
C38_12 C33_12 1_555 1_555
H20_12 C38_12 1_555 1_555
C39_14 C29_14 1_555 1_555
C40_11 H21_11 1_555 1_555
C41_12 C35_12 1_555 1_555
C42_12 C38_12 1_555 1_555
H22_12 C42_12 1_555 1_555
C44_12 C40_11 1_555 1_555
H23_12 C44_12 1_555 1_555
C46_14 N11_6 1_555 1_555
H25_14 C46_14 1_555 1_555
N8_12 C35_12 1_555 1_555
C31_12 C39_14 1_555 1_555
C41_12 C44_12 1_555 1_555
C42_12 C46_14 1_555 1_555
N10_6 C3_14 1_555 1_555
N12_6 C10_14 1_555 1_555
N3_13 H1_13 1_555 1_555
N4_13 C5_13 1_555 1_555
C3_14 C10_14 1_555 1_555
C4_13 N3_13 1_555 1_555
C5_13 C4_13 1_555 1_555
C6_14 N10_6 1_555 1_555
H2_14 C6_14 1_555 1_555
C7_13 C4_13 1_555 1_555
C8_14 C6_14 1_555 1_555
H3_14 C8_14 1_555 1_555
C9_13 N3_13 1_555 1_555
C10_14 C7_13 1_555 1_555
C11_14 C8_14 1_555 1_555
H4_14 C11_14 1_555 1_555
C12_13 C7_13 1_555 1_555
H5_13 C12_13 1_555 1_555
C13_14 C3_14 1_555 1_555
C15_13 C9_13 1_555 1_555
C16_13 C12_13 1_555 1_555
H7_13 C16_13 1_555 1_555
H8_13 C18_13 1_555 1_555
C20_14 N12_6 1_555 1_555
H10_14 C20_14 1_555 1_555
C23_13 C15_13 1_555 1_555
H12_13 C23_13 1_555 1_555
N4_13 C9_13 1_555 1_555
C5_13 C13_14 1_555 1_555
C11_14 C13_14 1_555 1_555
C15_13 C18_13 1_555 1_555
C16_13 C20_14 1_555 1_555
H19_11 C37_11 1_555 1_555
H27_10 C49_10 1_555 1_555
Mn1_7 O1_15 1_555 1_555
O1_15 C1_15 1_555 1_555
O2_14 C1_15 1_555 1_555
C1_15 C2_14 1_555 1_555
C2_14 C19_14 1_555 1_555
C14_13 H6_13 1_555 1_555
C17_13 C14_13 1_555 1_555
C19_14 H9_14 1_555 1_555
C21_14 C19_14 1_555 1_555
H11_13 C21_14 1_555 1_555
C22_13 C17_13 1_555 1_555
C24_14 C2_14 1_555 1_555
H13_15 C24_14 1_555 1_555
C25_13 C17_13 1_555 1_555
H14_13 C25_13 1_555 1_555
C26_14 C22_13 1_555 1_555
H15_13 C26_14 1_555 1_555
O3_15 Mn1_7 1_555 1_555
O4_13 C27_15 1_555 1_555
N7_13 H16_13 1_555 1_555
N8_13 C31_13 1_555 1_555
C27_15 O3_15 1_555 1_555
C28_13 C27_15 1_555 1_555
C30_13 N7_13 1_555 1_555
C31_13 C30_13 1_555 1_555
C33_13 C30_13 1_555 1_555
C35_13 N7_13 1_555 1_555
C38_13 C33_13 1_555 1_555
H20_13 C38_13 1_555 1_555
C40_12 H21_12 1_555 1_555
C41_13 C35_13 1_555 1_555
C42_13 C38_13 1_555 1_555
H22_13 C42_13 1_555 1_555
C43_12 C40_12 1_555 1_555
C44_13 C40_12 1_555 1_555
H23_13 C44_13 1_555 1_555
C45_13 C28_13 1_555 1_555
H24_13 C45_13 1_555 1_555
C47_13 C45_13 1_555 1_555
H26_12 C47_13 1_555 1_555
C48_12 C43_12 1_555 1_555
C49_11 C41_13 1_555 1_555
H27_11 C49_11 1_555 1_555
C50_13 C28_13 1_555 1_555
H28_15 C50_13 1_555 1_555
C51_12 C43_12 1_555 1_555
H29_12 C51_12 1_555 1_555
C52_13 C48_12 1_555 1_555
H30_12 C52_13 1_555 1_555
N9_7 Mn1_7 1_555 1_555
N10_7 Mn1_7 1_555 1_555
N11_7 Mn1_7 1_555 1_555
N12_7 Mn1_7 1_555 1_555
C21_14 C22_13 1_555 1_555
C24_14 C26_14 1_555 1_555
N8_13 C35_13 1_555 1_555
C41_13 C44_13 1_555 1_555
C47_13 C48_12 1_555 1_555
C49_11 C51_12 1_555 1_555
C50_13 C52_13 1_555 1_555
N10_7 C3_15 1_555 1_555
N12_7 C10_15 1_555 1_555
N3_14 H1_14 1_555 1_555
N4_14 C5_14 1_555 1_555
C2_15 C19_15 1_555 1_555
C3_15 C10_15 1_555 1_555
C4_14 N3_14 1_555 1_555
C5_14 C4_14 1_555 1_555
C6_15 N10_7 1_555 1_555
H2_15 C6_15 1_555 1_555
C7_14 C4_14 1_555 1_555
C8_15 C6_15 1_555 1_555
H3_15 C8_15 1_555 1_555
C9_14 N3_14 1_555 1_555
C10_15 C7_14 1_555 1_555
C11_15 C8_15 1_555 1_555
H4_15 C11_15 1_555 1_555
C12_14 C7_14 1_555 1_555
H5_14 C12_14 1_555 1_555
C13_15 C3_15 1_555 1_555
C14_14 H6_14 1_555 1_555
C15_14 C9_14 1_555 1_555
C16_14 C12_14 1_555 1_555
H7_14 C16_14 1_555 1_555
C17_14 C14_14 1_555 1_555
C18_14 C14_14 1_555 1_555
H8_14 C18_14 1_555 1_555
C19_15 H9_15 1_555 1_555
C20_15 N12_7 1_555 1_555
H10_15 C20_15 1_555 1_555
C21_15 C19_15 1_555 1_555
H11_14 C21_15 1_555 1_555
C22_14 C17_14 1_555 1_555
C23_14 C15_14 1_555 1_555
H12_14 C23_14 1_555 1_555
C24_15 C2_15 1_555 1_555
C25_14 C17_14 1_555 1_555
H14_14 C25_14 1_555 1_555
C26_15 C22_14 1_555 1_555
H15_14 C26_15 1_555 1_555
N4_14 C9_14 1_555 1_555
C5_14 C13_15 1_555 1_555
C11_15 C13_15 1_555 1_555
C15_14 C18_14 1_555 1_555
C16_14 C20_15 1_555 1_555
C21_15 C22_14 1_555 1_555
C23_14 C25_14 1_555 1_555
C24_15 C26_15 1_555 1_555
N9_7 C29_15 1_555 1_555
N11_7 C36_15 1_555 1_555
N7_14 H16_14 1_555 1_555
N8_14 C31_14 1_555 1_555
C29_15 C36_15 1_555 1_555
C30_14 N7_14 1_555 1_555
C31_14 C30_14 1_555 1_555
C32_15 N9_7 1_555 1_555
H17_15 C32_15 1_555 1_555
C33_14 C30_14 1_555 1_555
C34_15 C32_15 1_555 1_555
H18_12 C34_15 1_555 1_555
C35_14 N7_14 1_555 1_555
C36_15 C33_14 1_555 1_555
C37_12 C34_15 1_555 1_555
H19_12 C37_12 1_555 1_555
C38_14 C33_14 1_555 1_555
H20_14 C38_14 1_555 1_555
C39_15 C29_15 1_555 1_555
C41_14 C35_14 1_555 1_555
C42_14 C38_14 1_555 1_555
H22_14 C42_14 1_555 1_555
H23_14 C44_14 1_555 1_555
C46_15 N11_7 1_555 1_555
H25_15 C46_15 1_555 1_555
C49_12 C41_14 1_555 1_555
H27_12 C49_12 1_555 1_555
N8_14 C35_14 1_555 1_555
C31_14 C39_15 1_555 1_555
C37_12 C39_15 1_555 1_555
C41_14 C44_14 1_555 1_555
C42_14 C46_15 1_555 1_555
Mn1_8 O1_16 1_555 1_555
O1_16 C1_16 1_555 1_555
O2_16 C1_16 1_555 1_555
N3_15 H1_15 1_555 1_555
N4_15 C5_15 1_555 1_555
C1_16 C2_16 1_555 1_555
C2_16 C19_16 1_555 1_555
C4_15 N3_15 1_555 1_555
C5_15 C4_15 1_555 1_555
C7_15 C4_15 1_555 1_555
C9_15 N3_15 1_555 1_555
C12_15 C7_15 1_555 1_555
H5_15 C12_15 1_555 1_555
C14_15 H6_15 1_555 1_555
C15_15 C9_15 1_555 1_555
C16_15 C12_15 1_555 1_555
H7_15 C16_15 1_555 1_555
C17_15 C14_15 1_555 1_555
C18_15 C14_15 1_555 1_555
H8_15 C18_15 1_555 1_555
C19_16 H9_16 1_555 1_555
C21_16 C19_16 1_555 1_555
H11_15 C21_16 1_555 1_555
C22_15 C17_15 1_555 1_555
C23_15 C15_15 1_555 1_555
H12_15 C23_15 1_555 1_555
C24_16 C2_16 1_555 1_555
H13_16 C24_16 1_555 1_555
C25_15 C17_15 1_555 1_555
H14_15 C25_15 1_555 1_555
C26_16 C22_15 1_555 1_555
H15_15 C26_16 1_555 1_555
O3_16 Mn1_8 1_555 1_555
O4_14 C27_16 1_555 1_555
C27_16 O3_16 1_555 1_555
C28_14 C27_16 1_555 1_555
C40_13 H21_13 1_555 1_555
C43_13 C40_13 1_555 1_555
C45_14 C28_14 1_555 1_555
H24_14 C45_14 1_555 1_555
C47_14 C45_14 1_555 1_555
H26_13 C47_14 1_555 1_555
C48_13 C43_13 1_555 1_555
C50_14 C28_14 1_555 1_555
H28_16 C50_14 1_555 1_555
C51_13 C43_13 1_555 1_555
H29_13 C51_13 1_555 1_555
C52_14 C48_13 1_555 1_555
H30_13 C52_14 1_555 1_555
N9_8 Mn1_8 1_555 1_555
N10_8 Mn1_8 1_555 1_555
N11_8 Mn1_8 1_555 1_555
N12_8 Mn1_8 1_555 1_555
N4_15 C9_15 1_555 1_555
C15_15 C18_15 1_555 1_555
C21_16 C22_15 1_555 1_555
C23_15 C25_15 1_555 1_555
C24_16 C26_16 1_555 1_555
C47_14 C48_13 1_555 1_555
C50_14 C52_14 1_555 1_555
N9_8 C29_16 1_555 1_555
N11_8 C36_16 1_555 1_555
N7_15 H16_15 1_555 1_555
N8_15 C31_15 1_555 1_555
C29_16 C36_16 1_555 1_555
C30_15 N7_15 1_555 1_555
C31_15 C30_15 1_555 1_555
C32_16 N9_8 1_555 1_555
H17_16 C32_16 1_555 1_555
C33_15 C30_15 1_555 1_555
C34_16 C32_16 1_555 1_555
H18_13 C34_16 1_555 1_555
C35_15 N7_15 1_555 1_555
C36_16 C33_15 1_555 1_555
C37_13 C34_16 1_555 1_555
H19_13 C37_13 1_555 1_555
C38_15 C33_15 1_555 1_555
H20_15 C38_15 1_555 1_555
C39_16 C29_16 1_555 1_555
C40_14 H21_14 1_555 1_555
C41_15 C35_15 1_555 1_555
C42_15 C38_15 1_555 1_555
H22_15 C42_15 1_555 1_555
C43_14 C40_14 1_555 1_555
C44_15 C40_14 1_555 1_555
H23_15 C44_15 1_555 1_555
C46_16 N11_8 1_555 1_555
H25_16 C46_16 1_555 1_555
C48_14 C43_14 1_555 1_555
C49_13 C41_15 1_555 1_555
H27_13 C49_13 1_555 1_555
C51_14 C43_14 1_555 1_555
H29_14 C51_14 1_555 1_555
N8_15 C35_15 1_555 1_555
C31_15 C39_16 1_555 1_555
C37_13 C39_16 1_555 1_555
C41_15 C44_15 1_555 1_555
C42_15 C46_16 1_555 1_555
C49_13 C51_14 1_555 1_555
N10_8 C3_16 1_555 1_555
N12_8 C10_16 1_555 1_555
N3_16 H1_16 1_555 1_555
N4_16 C5_16 1_555 1_555
C3_16 C10_16 1_555 1_555
C4_16 N3_16 1_555 1_555
C5_16 C4_16 1_555 1_555
C6_16 N10_8 1_555 1_555
H2_16 C6_16 1_555 1_555
C7_16 C4_16 1_555 1_555
C8_16 C6_16 1_555 1_555
H3_16 C8_16 1_555 1_555
C9_16 N3_16 1_555 1_555
C10_16 C7_16 1_555 1_555
C11_16 C8_16 1_555 1_555
H4_16 C11_16 1_555 1_555
C12_16 C7_16 1_555 1_555
H5_16 C12_16 1_555 1_555
C13_16 C3_16 1_555 1_555
C15_16 C9_16 1_555 1_555
C16_16 C12_16 1_555 1_555
H7_16 C16_16 1_555 1_555
H8_16 C18_16 1_555 1_555
C20_16 N12_8 1_555 1_555
H10_16 C20_16 1_555 1_555
C23_16 C15_16 1_555 1_555
H12_16 C23_16 1_555 1_555
N4_16 C9_16 1_555 1_555
C5_16 C13_16 1_555 1_555
C11_16 C13_16 1_555 1_555
C15_16 C18_16 1_555 1_555
C16_16 C20_16 1_555 1_555
H19_14 C37_14 1_555 1_555
C45_15 C28_15 1_555 1_555
H24_15 C45_15 1_555 1_555
C47_15 C45_15 1_555 1_555
H26_15 C47_15 1_555 1_555
C48_15 C43_15 1_555 1_555
H27_14 C49_14 1_555 1_555
C50_15 C28_15 1_555 1_555
C51_15 C43_15 1_555 1_555
H29_15 C51_15 1_555 1_555
C52_15 C48_15 1_555 1_555
H30_15 C52_15 1_555 1_555
C47_15 C48_15 1_555 1_555
C49_14 C51_15 1_555 1_555
C50_15 C52_15 1_555 1_555
C45_16 C28_16 1_555 1_555
H24_16 C45_16 1_555 1_555
C47_16 C45_16 1_555 1_555
C50_16 C28_16 1_555 1_555
C50_16 C52_16 1_555 1_555
C14_16 H6_16 1_555 1_555
C17_16 C14_16 1_555 1_555
C22_16 C17_16 1_555 1_555
C25_16 C17_16 1_555 1_555
H14_16 C25_16 1_555 1_555
C48_16 C43_16 1_555 1_555
H27_15 C49_15 1_555 1_555
C51_16 C43_16 1_555 1_555
H29_16 C51_16 1_555 1_555
C49_15 C51_16 1_555 1_555
N7_16 H16_16 1_555 1_555
N8_16 C31_16 1_555 1_555
C30_16 N7_16 1_555 1_555
C31_16 C30_16 1_555 1_555
C33_16 C30_16 1_555 1_555
C35_16 N7_16 1_555 1_555
C38_16 C33_16 1_555 1_555
H20_16 C38_16 1_555 1_555
C40_15 H21_15 1_555 1_555
C41_16 C35_16 1_555 1_555
C42_16 C38_16 1_555 1_555
H22_16 C42_16 1_555 1_555
C44_16 C40_15 1_555 1_555
H23_16 C44_16 1_555 1_555
N8_16 C35_16 1_555 1_555
C41_16 C44_16 1_555 1_555
H19_15 C37_15 1_555 1_555
H19_16 C37_16 1_555 1_555
H27_16 C49_16 1_555 1_555
C40_16 H21_16 1_555 1_555

#END
