
###############################################################################
#
# This file contains modified crystal structure data generated from the
# MOF subset of the Cambridge Structural Database (CSD) v543 
# hosted by the Cambridge Crystallographic Data Centre (CCDC).
#
# This work is licensed under the Creative Commons
# Attribution-NonCommercial-ShareAlike 4.0 International License.
# To view a copy of this license, visit
# http://creativecommons.org/licenses/by-nc-sa/4.0/
# or send a letter to
# Creative Commons, PO Box 1866, Mountain View, CA 94042, USA.
#
# CIF created using the CSD Python API on 29 September 2022
# The structure has been converted into the P1 space group
# The structure has a 3D framework
# The original CSD entry PUXTEJ is in the monoclinic crystal system
# The framework has been calculated to contain at least 10.0% void space
# The void calculation uses a probe of radius 1.32A, grid spacing 0.4
#
###############################################################################

data_PUXTEJ
_chemical_formula_moiety         '(C24 H24 N32 O16 Zn8)n'
_symmetry_cell_setting           triclinic
_symmetry_space_group_name_H-M   'P 1'
_symmetry_Int_Tables_number      1
_space_group_name_Hall           'P 1'
loop_
_symmetry_equiv_pos_site_id
_symmetry_equiv_pos_as_xyz
1 x,y,z
_cell_length_a                   17.576(4)
_cell_length_b                   7.9026(16)
_cell_length_c                   10.347(2)
_cell_angle_alpha                90
_cell_angle_beta                 100.213(7)
_cell_angle_gamma                90
_cell_volume                     1414.39
loop_
_atom_site_label
_atom_site_type_symbol
_atom_site_fract_x
_atom_site_fract_y
_atom_site_fract_z
Zn2 Zn 0.15538(6) 0.44284(15) 0.08173(11)
N5 N 0.3126(4) 0.6317(10) 0.1219(7)
N6 N 0.2386(4) 0.6290(10) 0.1500(8)
C3 C 0.3522(5) 0.7155(13) 0.2203(10)
H4 H 0.4062 0.7352 0.2293
C4 C 0.2401(6) 0.7120(15) 0.2574(12)
N7 N 0.3102(4) 0.7707(11) 0.3066(7)
N8 N 0.1776(6) 0.7296(17) 0.3199(12)
H5 H 0.1331 0.6825 0.2865
H6 H 0.1821 0.7881 0.3933
C5 C 0.0099(6) 0.5946(14) 0.0010(12)
O1 O 0.0776(4) 0.6369(10) 0.0411(10)
O6 O 0.0452(4) 0.3097(10) 0.0403(8)
C8 C 0.5090(6) 0.5915(13) 0.0109(10)
O7 O 0.5795(4) 0.6327(9) 0.0376(9)
O8 O 0.4528(4) 0.6957(9) 0.0016(8)
Zn6 Zn 0.65702(7) 0.43981(15) 0.04537(12)
Zn7 Zn 0.34298(7) 0.93981(15) 0.45463(12)
N18 N 0.1881(4) 0.2856(11) 0.2330(8)
Zn1 Zn 0.34298(7) 0.56019(15) 0.95463(12)
N1 N 0.2579(5) 0.3841(11) 0.8809(9)
N2 N 0.1892(4) 0.3493(10) 0.9195(7)
C1 C 0.1499(6) 0.2484(14) 0.8326(10)
H1 H 0.1004 0.2041 0.8386
N3 N 0.1881(4) 0.2144(11) 0.7330(8)
C2 C 0.2542(6) 0.2995(13) 0.7680(9)
N4 N 0.3105(6) 0.2996(15) 0.6953(11)
H2 H 0.3046 0.2420 0.6214
H3 H 0.3533 0.3573 0.7217
C6 C 0.4910(6) 0.4085(13) 0.9891(10)
O3 O 0.4205(4) 0.3673(9) 0.9624(9)
O4 O 0.5472(4) 0.3043(9) 0.9984(8)
Zn9 Zn 0.15538(6) 0.05716(15) 0.58173(11)
N20 N 0.3102(4) 0.7293(11) 0.8066(7)
N9 N 0.7421(5) 0.6159(11) 0.1191(9)
N10 N 0.8108(4) 0.6507(10) 0.0805(7)
C9 C 0.8501(6) 0.7516(14) 0.1674(10)
H7 H 0.8996 0.7959 0.1614
N11 N 0.8119(4) 0.7856(11) 0.2670(8)
C10 C 0.7458(6) 0.7005(13) 0.2320(9)
N12 N 0.6895(6) 0.7004(15) 0.3047(11)
H8 H 0.6954 0.7580 0.3786
H9 H 0.6467 0.6427 0.2783
Zn8 Zn 0.84462(6) 0.94284(15) 0.41827(11)
N19 N 0.6898(4) 0.2707(11) 0.1934(7)
O2 O 0.9548(4) 0.6903(10) 0.9597(8)
C7 C 0.9901(6) 0.4054(14) 0.9990(12)
O5 O 0.9224(4) 0.3631(10) 0.9589(10)
Zn4 Zn 0.84462(6) 0.55716(15) 0.91827(11)
N13 N 0.6874(4) 0.3683(10) 0.8781(7)
N14 N 0.7614(4) 0.3710(10) 0.8500(8)
C11 C 0.6478(5) 0.2845(13) 0.7797(10)
H10 H 0.5938 0.2648 0.7707
C12 C 0.7599(6) 0.2880(15) 0.7426(12)
N15 N 0.6898(4) 0.2293(11) 0.6934(7)
N16 N 0.8224(6) 0.2704(17) 0.6801(12)
H11 H 0.8669 0.3175 0.7135
H12 H 0.8179 0.2119 0.6067
Zn5 Zn 0.65702(7) 0.06019(15) 0.54537(12)
N17 N 0.8119(4) 0.7144(11) 0.7670(8)
O2_2 O 0.0452(4) 0.1903(10) 0.5403(8)
N9_2 N 0.2579(5) 0.1159(11) 0.3809(9)
N10_2 N 0.1892(4) 0.1507(10) 0.4195(7)
C9_2 C 0.1499(6) 0.2516(14) 0.3326(10)
H7_2 H 0.1004 0.2959 0.3386
C10_2 C 0.2542(6) 0.2005(13) 0.2680(9)
N12_2 N 0.3105(6) 0.2004(15) 0.1953(11)
H8_2 H 0.3046 0.2580 0.1214
H9_2 H 0.3533 0.1427 0.2217
O9 O 0.4205(4) 0.1327(9) 0.4624(9)
C7_2 C 0.0099(6) 0.9054(14) 0.5010(12)
O5_2 O 0.0776(4) 0.8631(10) 0.5411(10)
N13_2 N 0.3126(4) 0.8683(10) 0.6219(7)
N14_2 N 0.2386(4) 0.8710(10) 0.6500(8)
C11_2 C 0.3522(5) 0.7845(13) 0.7203(10)
H10_2 H 0.4062 0.7648 0.7293
C12_2 C 0.2401(6) 0.7880(15) 0.7574(12)
N16_2 N 0.1776(6) 0.7704(17) 0.8199(12)
H11_2 H 0.1331 0.8175 0.7865
H12_2 H 0.1821 0.7119 0.8933
O10 O 0.4528(4) 0.8043(9) 0.5016(8)
N5_2 N 0.6874(4) 0.1317(10) 0.3781(7)
N6_2 N 0.7614(4) 0.1290(10) 0.3500(8)
C3_2 C 0.6478(5) 0.2155(13) 0.2797(10)
H4_2 H 0.5938 0.2352 0.2707
C4_2 C 0.7599(6) 0.2120(15) 0.2426(12)
N8_2 N 0.8224(6) 0.2296(17) 0.1801(12)
H5_2 H 0.8669 0.1825 0.2135
H6_2 H 0.8179 0.2881 0.1067
C5_2 C 0.9901(6) 0.0946(14) 0.4990(12)
O1_2 O 0.9224(4) 0.1369(10) 0.4589(10)
C8_2 C 0.4910(6) 0.0915(13) 0.4891(10)
O8_2 O 0.5472(4) 0.1957(9) 0.4984(8)
N1_2 N 0.7421(5) 0.8841(11) 0.6191(9)
N2_2 N 0.8108(4) 0.8493(10) 0.5805(7)
C1_2 C 0.8501(6) 0.7484(14) 0.6674(10)
H1_2 H 0.8996 0.7041 0.6614
C2_2 C 0.7458(6) 0.7995(13) 0.7320(9)
N4_2 N 0.6895(6) 0.7996(15) 0.8047(11)
H2_2 H 0.6954 0.7420 0.8786
H3_2 H 0.6467 0.8573 0.7783
C6_2 C 0.5090(6) 0.9085(13) 0.5109(10)
O3_2 O 0.5795(4) 0.8673(9) 0.5376(9)
O6_2 O 0.9548(4) 0.8097(10) 0.4597(8)
loop_
_geom_bond_atom_site_label_1
_geom_bond_atom_site_label_2
_geom_bond_site_symmetry_1
_geom_bond_site_symmetry_2
N6 Zn2 1_555 1_555
C3 N5 1_555 1_555
H4 C3 1_555 1_555
C4 N6 1_555 1_555
N7 C3 1_555 1_555
N8 C4 1_555 1_555
H5 N8 1_555 1_555
H6 N8 1_555 1_555
C5 O1 1_555 1_555
O1 Zn2 1_555 1_555
O6 Zn2 1_555 1_555
O7 C8 1_555 1_555
Zn7 N7 1_555 1_555
N18 Zn2 1_555 1_555
N5 N6 1_555 1_555
C4 N7 1_555 1_555
C8 O8 1_555 1_555
O7 Zn6 1_555 1_555
Zn1 N1 1_555 1_555
N1 N2 1_555 1_555
N2 C1 1_555 1_555
C1 H1 1_555 1_555
N3 C1 1_555 1_555
C2 N1 1_555 1_555
N4 C2 1_555 1_555
H2 N4 1_555 1_555
H3 N4 1_555 1_555
C6 O3 1_555 1_555
O3 Zn1 1_555 1_555
O4 C6 1_555 1_555
Zn9 N3 1_555 1_555
N20 Zn1 1_555 1_555
N3 C2 1_555 1_555
Zn6 N9 1_555 1_555
N9 N10 1_555 1_555
C9 N10 1_555 1_555
H7 C9 1_555 1_555
N11 C9 1_555 1_555
C10 N9 1_555 1_555
N12 C10 1_555 1_555
H8 N12 1_555 1_555
H9 N12 1_555 1_555
Zn8 N11 1_555 1_555
N19 Zn6 1_555 1_555
N11 C10 1_555 1_555
O5 C7 1_555 1_555
Zn4 O2 1_555 1_555
N14 Zn4 1_555 1_555
C11 N13 1_555 1_555
H10 C11 1_555 1_555
C12 N14 1_555 1_555
N15 C11 1_555 1_555
N16 C12 1_555 1_555
H11 N16 1_555 1_555
H12 N16 1_555 1_555
Zn5 N15 1_555 1_555
N17 Zn4 1_555 1_555
O5 Zn4 1_555 1_555
N13 N14 1_555 1_555
C12 N15 1_555 1_555
Zn9 O2_2 1_555 1_555
N9_2 N10_2 1_555 1_555
N10_2 Zn9 1_555 1_555
C9_2 N10_2 1_555 1_555
H7_2 C9_2 1_555 1_555
N18 C9_2 1_555 1_555
C10_2 N9_2 1_555 1_555
N12_2 C10_2 1_555 1_555
H8_2 N12_2 1_555 1_555
H9_2 N12_2 1_555 1_555
N18 C10_2 1_555 1_555
O5_2 C7_2 1_555 1_555
N13_2 Zn7 1_555 1_555
C11_2 N13_2 1_555 1_555
H10_2 C11_2 1_555 1_555
C12_2 N14_2 1_555 1_555
N20 C11_2 1_555 1_555
N16_2 C12_2 1_555 1_555
H11_2 N16_2 1_555 1_555
H12_2 N16_2 1_555 1_555
O10 Zn7 1_555 1_555
N13_2 N14_2 1_555 1_555
C12_2 N20 1_555 1_555
N5_2 Zn5 1_555 1_555
C3_2 N5_2 1_555 1_555
H4_2 C3_2 1_555 1_555
C4_2 N6_2 1_555 1_555
N19 C3_2 1_555 1_555
N8_2 C4_2 1_555 1_555
H5_2 N8_2 1_555 1_555
H6_2 N8_2 1_555 1_555
C5_2 O1_2 1_555 1_555
O9 C8_2 1_555 1_555
O8_2 Zn5 1_555 1_555
N5_2 N6_2 1_555 1_555
C4_2 N19 1_555 1_555
C8_2 O8_2 1_555 1_555
Zn8 N2_2 1_555 1_555
N1_2 N2_2 1_555 1_555
N2_2 C1_2 1_555 1_555
C1_2 H1_2 1_555 1_555
N17 C1_2 1_555 1_555
C2_2 N1_2 1_555 1_555
N4_2 C2_2 1_555 1_555
H2_2 N4_2 1_555 1_555
H3_2 N4_2 1_555 1_555
C6_2 O3_2 1_555 1_555
O10 C6_2 1_555 1_555
O6_2 Zn8 1_555 1_555
N17 C2_2 1_555 1_555

#END
