
###############################################################################
#
# This file contains modified crystal structure data generated from the
# MOF subset of the Cambridge Structural Database (CSD) v543 
# hosted by the Cambridge Crystallographic Data Centre (CCDC).
#
# This work is licensed under the Creative Commons
# Attribution-NonCommercial-ShareAlike 4.0 International License.
# To view a copy of this license, visit
# http://creativecommons.org/licenses/by-nc-sa/4.0/
# or send a letter to
# Creative Commons, PO Box 1866, Mountain View, CA 94042, USA.
#
# CIF created using the CSD Python API on 29 September 2022
# The structure has been converted into the P1 space group
# The structure has a 3D framework
# The original CSD entry PUYRAF is in the orthorhombic crystal system
# The framework has been calculated to contain at least 10.0% void space
# The void calculation uses a probe of radius 1.32A, grid spacing 0.4
# H atom positions have been added when not included in the experimental data
# Generated hydrogen atom positions removed from atoms on special positions
#
###############################################################################

data_PUYRAF
_chemical_formula_moiety         '(C512 H560 O192 Zr42)n'
_symmetry_cell_setting           triclinic
_symmetry_space_group_name_H-M   'P 1'
_symmetry_Int_Tables_number      1
_space_group_name_Hall           'P 1'
loop_
_symmetry_equiv_pos_site_id
_symmetry_equiv_pos_as_xyz
1 x,y,z
_cell_length_a                   25.379(5)
_cell_length_b                   43.453(9)
_cell_length_c                   46.752(9)
_cell_angle_alpha                90
_cell_angle_beta                 90
_cell_angle_gamma                90
_cell_volume                     51557.8
loop_
_atom_site_label
_atom_site_type_symbol
_atom_site_fract_x
_atom_site_fract_y
_atom_site_fract_z
Zr6 Zr 0.000000 0.000000 0.55224(2)
Zr5 Zr 0.000000 0.500000 0.94776(2)
Zr6_2 Zr 0.000000 1.000000 0.55224(2)
Zr4 Zr 0.500000 -0.000000 0.94776(2)
Zr6_3 Zr 1.000000 0.000000 0.55224(2)
Zr9 Zr 0.56960(4) 0.95931(2) 0.000000
Zr10 Zr 0.93040(4) 0.54069(2) 0.000000
Zr1 Zr 0.500000 0.500000 0.55224(2)
Zr2 Zr 0.43040(4) 0.45931(2) 0.500000
O1 O 0.4298(3) 0.500000 0.52527(11)
O2 O 0.500000 0.45868(15) 0.52554(13)
O3 O 0.6917(3) 0.73389(10) 0.70710(8)
H1 H 0.681075 0.721964 0.694783
C1 C 0.6059(2) 0.57115(9) 0.59204(6)
C2 C 0.58148(18) 0.57059(9) 0.61865(8)
H2 H 0.552718 0.557754 0.621757
C3 C 0.6001(2) 0.58920(10) 0.64063(6)
H3 H 0.583733 0.588826 0.658431
C4 C 0.6431(2) 0.60839(9) 0.63599(7)
C5 C 0.66746(18) 0.60895(10) 0.60938(9)
H4 H 0.696224 0.621785 0.606276
C6 C 0.6489(2) 0.59033(11) 0.58741(6)
H5 H 0.665209 0.590713 0.569602
C7 C 0.7233(3) 0.71659(11) 0.72870(9)
C8 C 0.750000 0.73250(15) 0.750000
C9 C 0.6643(2) 0.62902(9) 0.65955(7)
C10 C 0.6943(2) 0.65494(10) 0.65340(5)
H6 H 0.702150 0.659855 0.634518
C11 C 0.7126(2) 0.67351(8) 0.67548(8)
H7 H 0.732692 0.690850 0.671365
C12 C 0.7009(2) 0.66616(9) 0.70371(6)
C13 C 0.6708(2) 0.64024(10) 0.70986(5)
H8 H 0.662983 0.635324 0.728741
C14 C 0.6525(2) 0.62167(9) 0.68778(8)
H9 H 0.632441 0.604329 0.691895
C15 C 0.7260(3) 0.68498(12) 0.72744(10)
C16 C 0.750000 0.66945(18) 0.750000
H10 H 0.750003 0.648044 0.750000
C17 C 0.5821(3) 0.55111(16) 0.56894(12)
O4 O 0.5512(2) 0.53034(9) 0.57635(6)
O5 O 0.3436(3) 0.46044(13) 0.500000
O6 O 0.4335(3) 0.40867(12) 0.500000
O7 O 0.5975(2) 0.55680(9) 0.54337(8)
O8 O 0.6917(3) 0.76611(10) 0.79290(8)
H11 H 0.681075 0.778036 0.805217
C18 C 0.6059(2) 0.92885(9) 0.90796(6)
C19 C 0.58148(18) 0.92941(9) 0.88135(8)
H12 H 0.552718 0.942246 0.878243
C20 C 0.6001(2) 0.91080(10) 0.85937(6)
H13 H 0.583733 0.911174 0.841569
C21 C 0.6431(2) 0.89161(9) 0.86401(7)
C22 C 0.66746(18) 0.89105(10) 0.89062(9)
H14 H 0.696224 0.878215 0.893724
C23 C 0.6489(2) 0.90967(11) 0.91259(6)
H15 H 0.665209 0.909287 0.930398
C24 C 0.7233(3) 0.78341(11) 0.77130(9)
C25 C 0.750000 0.76750(15) 0.750000
C26 C 0.6643(2) 0.87098(9) 0.84045(7)
C27 C 0.6943(2) 0.84506(10) 0.84660(5)
H16 H 0.702150 0.840145 0.865482
C28 C 0.7126(2) 0.82649(8) 0.82452(8)
H17 H 0.732692 0.809150 0.828635
C29 C 0.7009(2) 0.83384(9) 0.79629(6)
C30 C 0.6708(2) 0.85976(10) 0.79014(5)
H18 H 0.662983 0.864676 0.771259
C31 C 0.6525(2) 0.87833(9) 0.81222(8)
H19 H 0.632441 0.895671 0.808105
C32 C 0.7260(3) 0.81502(12) 0.77256(10)
C33 C 0.750000 0.83055(18) 0.750000
H20 H 0.750003 0.851956 0.750000
C34 C 0.5821(3) 0.94889(16) 0.93106(12)
O9 O 0.5512(2) 0.96966(9) 0.92365(6)
O10 O 0.5975(2) 0.94320(9) 0.95663(8)
O11 O 0.8083(3) 0.73389(10) 0.79290(8)
H21 H 0.818925 0.721964 0.805217
C35 C 0.8941(2) 0.57115(9) 0.90796(6)
C36 C 0.91852(18) 0.57059(9) 0.88135(8)
H22 H 0.947282 0.557754 0.878243
C37 C 0.8999(2) 0.58920(10) 0.85937(6)
H23 H 0.916267 0.588826 0.841569
C38 C 0.8569(2) 0.60839(9) 0.86401(7)
C39 C 0.83254(18) 0.60895(10) 0.89062(9)
H24 H 0.803776 0.621785 0.893724
C40 C 0.8511(2) 0.59033(11) 0.91259(6)
H25 H 0.834791 0.590713 0.930398
C41 C 0.7767(3) 0.71659(11) 0.77130(9)
C42 C 0.8357(2) 0.62902(9) 0.84045(7)
C43 C 0.8057(2) 0.65494(10) 0.84660(5)
H26 H 0.797850 0.659855 0.865482
C44 C 0.7874(2) 0.67351(8) 0.82452(8)
H27 H 0.767308 0.690850 0.828635
C45 C 0.7991(2) 0.66616(9) 0.79629(6)
C46 C 0.8292(2) 0.64024(10) 0.79014(5)
H28 H 0.837017 0.635324 0.771259
C47 C 0.8475(2) 0.62167(9) 0.81222(8)
H29 H 0.867559 0.604329 0.808105
C48 C 0.7740(3) 0.68498(12) 0.77256(10)
C49 C 0.9179(3) 0.55111(16) 0.93106(12)
O12 O 0.9488(2) 0.53034(9) 0.92365(6)
O13 O 0.9025(2) 0.55680(9) 0.95663(8)
O14 O 0.8083(3) 0.76611(10) 0.70710(8)
H30 H 0.818925 0.778036 0.694783
C50 C 0.8941(2) 0.92885(9) 0.59204(6)
C51 C 0.91852(18) 0.92941(9) 0.61865(8)
H31 H 0.947282 0.942246 0.621757
C52 C 0.8999(2) 0.91080(10) 0.64063(6)
H32 H 0.916267 0.911174 0.658431
C53 C 0.8569(2) 0.89161(9) 0.63599(7)
C54 C 0.83254(18) 0.89105(10) 0.60938(9)
H33 H 0.803776 0.878215 0.606276
C55 C 0.8511(2) 0.90967(11) 0.58741(6)
H34 H 0.834791 0.909287 0.569602
C56 C 0.7767(3) 0.78341(11) 0.72870(9)
C57 C 0.8357(2) 0.87098(9) 0.65955(7)
C58 C 0.8057(2) 0.84506(10) 0.65340(5)
H35 H 0.797850 0.840145 0.634518
C59 C 0.7874(2) 0.82649(8) 0.67548(8)
H36 H 0.767308 0.809150 0.671365
C60 C 0.7991(2) 0.83384(9) 0.70371(6)
C61 C 0.8292(2) 0.85976(10) 0.70986(5)
H37 H 0.837017 0.864676 0.728741
C62 C 0.8475(2) 0.87833(9) 0.68778(8)
H38 H 0.867559 0.895671 0.691895
C63 C 0.7740(3) 0.81502(12) 0.72744(10)
C64 C 0.9179(3) 0.94889(16) 0.56894(12)
O15 O 0.9488(2) 0.96966(9) 0.57635(6)
O16 O 0.9025(2) 0.94320(9) 0.54337(8)
Zr3 Zr 0.56960(4) 0.54069(2) 0.500000
O17 O 0.5702(3) 0.500000 0.52527(11)
O18 O 0.500000 0.54132(15) 0.52554(13)
O19 O 0.6564(3) 0.53956(13) 0.500000
O20 O 0.5665(3) 0.59133(12) 0.500000
Zr4_2 Zr 0.500000 1.000000 0.94776(2)
Zr5_2 Zr 1.000000 0.500000 0.94776(2)
Zr6_4 Zr 1.000000 1.000000 0.55224(2)
Zr7 Zr 0.56960(4) 0.45931(2) 0.500000
Zr8 Zr 0.43040(4) 0.54069(2) 0.500000
Zr9_2 Zr 0.56960(4) 0.95931(2) 1.000000
Zr10_2 Zr 0.93040(4) 0.54069(2) 1.000000
Zr11 Zr 0.93040(4) 0.95931(2) 0.500000
O21 O 0.5702(3) 0.500000 0.47473(11)
O22 O 0.4298(3) 0.500000 0.47473(11)
O23 O 0.500000 0.45868(15) 0.47446(13)
O24 O 0.500000 0.54132(15) 0.47446(13)
O25 O 0.4488(2) 0.46966(9) 0.57635(6)
O26 O 0.5512(2) 0.46966(9) 0.57635(6)
O27 O 0.4488(2) 0.53034(9) 0.57635(6)
O28 O 0.4025(2) 0.44320(9) 0.54337(8)
O29 O 0.4025(2) 0.44320(9) 0.45663(8)
O30 O 0.5975(2) 0.55680(9) 0.45663(8)
Zr9_3 Zr 0.43040(4) 0.04069(2) 0.000000
Zr10_3 Zr 0.06960(4) 0.45931(2) 0.000000
O3_2 O 0.3083(3) 0.26611(10) 0.70710(8)
H1_2 H 0.318925 0.278036 0.694783
C1_2 C 0.3941(2) 0.42885(9) 0.59204(6)
C2_2 C 0.41852(18) 0.42941(9) 0.61865(8)
H2_2 H 0.447282 0.442246 0.621757
C3_2 C 0.3999(2) 0.41080(10) 0.64063(6)
H3_2 H 0.416267 0.411174 0.658431
C4_2 C 0.3569(2) 0.39161(9) 0.63599(7)
C5_2 C 0.33254(18) 0.39105(10) 0.60938(9)
H4_2 H 0.303776 0.378215 0.606276
C6_2 C 0.3511(2) 0.40967(11) 0.58741(6)
H5_2 H 0.334791 0.409287 0.569602
C7_2 C 0.2767(3) 0.28341(11) 0.72870(9)
C8_2 C 0.250000 0.26750(15) 0.750000
C9_2 C 0.3357(2) 0.37098(9) 0.65955(7)
C10_2 C 0.3057(2) 0.34506(10) 0.65340(5)
H6_2 H 0.297850 0.340145 0.634518
C11_2 C 0.2874(2) 0.32649(8) 0.67548(8)
H7_2 H 0.267308 0.309150 0.671365
C12_2 C 0.2991(2) 0.33384(9) 0.70371(6)
C13_2 C 0.3292(2) 0.35976(10) 0.70986(5)
H8_2 H 0.337017 0.364676 0.728741
C14_2 C 0.3475(2) 0.37833(9) 0.68778(8)
H9_2 H 0.367559 0.395671 0.691895
C15_2 C 0.2740(3) 0.31502(12) 0.72744(10)
C16_2 C 0.250000 0.33055(18) 0.750000
H10_2 H 0.249997 0.351956 0.750000
C17_2 C 0.4179(3) 0.44889(16) 0.56894(12)
O8_2 O 0.3083(3) 0.23389(10) 0.79290(8)
H11_2 H 0.318925 0.221964 0.805217
C18_2 C 0.3941(2) 0.07115(9) 0.90796(6)
C19_2 C 0.41852(18) 0.07059(9) 0.88135(8)
H12_2 H 0.447282 0.057754 0.878243
C20_2 C 0.3999(2) 0.08920(10) 0.85937(6)
H13_2 H 0.416267 0.088826 0.841569
C21_2 C 0.3569(2) 0.10839(9) 0.86401(7)
C22_2 C 0.33254(18) 0.10895(10) 0.89062(9)
H14_2 H 0.303776 0.121785 0.893724
C23_2 C 0.3511(2) 0.09033(11) 0.91259(6)
H15_2 H 0.334791 0.090713 0.930398
C24_2 C 0.2767(3) 0.21659(11) 0.77130(9)
C25_2 C 0.250000 0.23250(15) 0.750000
C26_2 C 0.3357(2) 0.12902(9) 0.84045(7)
C27_2 C 0.3057(2) 0.15494(10) 0.84660(5)
H16_2 H 0.297850 0.159855 0.865482
C28_2 C 0.2874(2) 0.17351(8) 0.82452(8)
H17_2 H 0.267308 0.190850 0.828635
C29_2 C 0.2991(2) 0.16616(9) 0.79629(6)
C30_2 C 0.3292(2) 0.14024(10) 0.79014(5)
H18_2 H 0.337017 0.135324 0.771259
C31_2 C 0.3475(2) 0.12167(9) 0.81222(8)
H19_2 H 0.367559 0.104329 0.808105
C32_2 C 0.2740(3) 0.18498(12) 0.77256(10)
C33_2 C 0.250000 0.16945(18) 0.750000
H20_2 H 0.249997 0.148044 0.750000
C34_2 C 0.4179(3) 0.05111(16) 0.93106(12)
O9_2 O 0.4488(2) 0.03034(9) 0.92365(6)
O10_2 O 0.4025(2) 0.05680(9) 0.95663(8)
O11_2 O 0.1917(3) 0.26611(10) 0.79290(8)
H21_2 H 0.181075 0.278036 0.805217
C35_2 C 0.1059(2) 0.42885(9) 0.90796(6)
C36_2 C 0.08148(18) 0.42941(9) 0.88135(8)
H22_2 H 0.052718 0.442246 0.878243
C37_2 C 0.1001(2) 0.41080(10) 0.85937(6)
H23_2 H 0.083733 0.411174 0.841569
C38_2 C 0.1431(2) 0.39161(9) 0.86401(7)
C39_2 C 0.16746(18) 0.39105(10) 0.89062(9)
H24_2 H 0.196224 0.378215 0.893724
C40_2 C 0.1489(2) 0.40967(11) 0.91259(6)
H25_2 H 0.165209 0.409287 0.930398
C41_2 C 0.2233(3) 0.28341(11) 0.77130(9)
C42_2 C 0.1643(2) 0.37098(9) 0.84045(7)
C43_2 C 0.1943(2) 0.34506(10) 0.84660(5)
H26_2 H 0.202150 0.340145 0.865482
C44_2 C 0.2126(2) 0.32649(8) 0.82452(8)
H27_2 H 0.232692 0.309150 0.828635
C45_2 C 0.2009(2) 0.33384(9) 0.79629(6)
C46_2 C 0.1708(2) 0.35976(10) 0.79014(5)
H28_2 H 0.162983 0.364676 0.771259
C47_2 C 0.1525(2) 0.37833(9) 0.81222(8)
H29_2 H 0.132441 0.395671 0.808105
C48_2 C 0.2260(3) 0.31502(12) 0.77256(10)
C49_2 C 0.0821(3) 0.44889(16) 0.93106(12)
O12_2 O 0.0512(2) 0.46966(9) 0.92365(6)
O13_2 O 0.0975(2) 0.44320(9) 0.95663(8)
O14_2 O 0.1917(3) 0.23389(10) 0.70710(8)
H30_2 H 0.181075 0.221964 0.694783
C50_2 C 0.1059(2) 0.07115(9) 0.59204(6)
C51_2 C 0.08148(18) 0.07059(9) 0.61865(8)
H31_2 H 0.052718 0.057754 0.621757
C52_2 C 0.1001(2) 0.08920(10) 0.64063(6)
H32_2 H 0.083733 0.088826 0.658431
C53_2 C 0.1431(2) 0.10839(9) 0.63599(7)
C54_2 C 0.16746(18) 0.10895(10) 0.60938(9)
H33_2 H 0.196224 0.121785 0.606276
C55_2 C 0.1489(2) 0.09033(11) 0.58741(6)
H34_2 H 0.165209 0.090713 0.569602
C56_2 C 0.2233(3) 0.21659(11) 0.72870(9)
C57_2 C 0.1643(2) 0.12902(9) 0.65955(7)
C58_2 C 0.1943(2) 0.15494(10) 0.65340(5)
H35_2 H 0.202150 0.159855 0.634518
C59_2 C 0.2126(2) 0.17351(8) 0.67548(8)
H36_2 H 0.232692 0.190850 0.671365
C60_2 C 0.2009(2) 0.16616(9) 0.70371(6)
C61_2 C 0.1708(2) 0.14024(10) 0.70986(5)
H37_2 H 0.162983 0.135324 0.728741
C62_2 C 0.1525(2) 0.12167(9) 0.68778(8)
H38_2 H 0.132441 0.104329 0.691895
C63_2 C 0.2260(3) 0.18498(12) 0.72744(10)
C64_2 C 0.0821(3) 0.05111(16) 0.56894(12)
O15_2 O 0.0512(2) 0.03034(9) 0.57635(6)
O16_2 O 0.0975(2) 0.05680(9) 0.54337(8)
Zr9_4 Zr 0.43040(4) 0.04069(2) 1.000000
Zr10_4 Zr 0.06960(4) 0.45931(2) 1.000000
Zr11_2 Zr 0.06960(4) 0.04069(2) 0.500000
Zr4_3 Zr 0.500000 -0.000000 0.05224(2)
Zr6_5 Zr -0.000000 0.000000 0.44776(2)
Zr1_2 Zr 0.500000 0.500000 0.44776(2)
O3_3 O 0.3083(3) 0.73389(10) 0.29290(8)
H1_3 H 0.318925 0.721964 0.305217
C1_3 C 0.3941(2) 0.57115(9) 0.40796(6)
C2_3 C 0.41852(18) 0.57059(9) 0.38135(8)
H2_3 H 0.447282 0.557754 0.378243
C3_3 C 0.3999(2) 0.58920(10) 0.35937(6)
H3_3 H 0.416267 0.588826 0.341569
C4_3 C 0.3569(2) 0.60839(9) 0.36401(7)
C5_3 C 0.33254(18) 0.60895(10) 0.39062(9)
H4_3 H 0.303776 0.621785 0.393724
C6_3 C 0.3511(2) 0.59033(11) 0.41259(6)
H5_3 H 0.334791 0.590713 0.430398
C7_3 C 0.2767(3) 0.71659(11) 0.27130(9)
C8_3 C 0.250000 0.73250(15) 0.250000
C9_3 C 0.3357(2) 0.62902(9) 0.34045(7)
C10_3 C 0.3057(2) 0.65494(10) 0.34660(5)
H6_3 H 0.297850 0.659855 0.365482
C11_3 C 0.2874(2) 0.67351(8) 0.32452(8)
H7_3 H 0.267308 0.690850 0.328635
C12_3 C 0.2991(2) 0.66616(9) 0.29629(6)
C13_3 C 0.3292(2) 0.64024(10) 0.29014(5)
H8_3 H 0.337017 0.635324 0.271259
C14_3 C 0.3475(2) 0.62167(9) 0.31222(8)
H9_3 H 0.367559 0.604329 0.308105
C15_3 C 0.2740(3) 0.68498(12) 0.27256(10)
C16_3 C 0.250000 0.66945(18) 0.250000
H10_3 H 0.249997 0.648044 0.250000
C17_3 C 0.4179(3) 0.55111(16) 0.43106(12)
O4_2 O 0.4488(2) 0.53034(9) 0.42365(6)
O5_2 O 0.6564(3) 0.46044(13) 0.500000
O6_2 O 0.5665(3) 0.40867(12) 0.500000
O7_2 O 0.4025(2) 0.55680(9) 0.45663(8)
O8_3 O 0.3083(3) 0.76611(10) 0.20710(8)
H11_3 H 0.318925 0.778036 0.194783
C18_3 C 0.3941(2) 0.92885(9) 0.09204(6)
C19_3 C 0.41852(18) 0.92941(9) 0.11865(8)
H12_3 H 0.447282 0.942246 0.121757
C20_3 C 0.3999(2) 0.91080(10) 0.14063(6)
H13_3 H 0.416267 0.911174 0.158431
C21_3 C 0.3569(2) 0.89161(9) 0.13599(7)
C22_3 C 0.33254(18) 0.89105(10) 0.10938(9)
H14_3 H 0.303776 0.878215 0.106276
C23_3 C 0.3511(2) 0.90967(11) 0.08741(6)
H15_3 H 0.334791 0.909287 0.069602
C24_3 C 0.2767(3) 0.78341(11) 0.22870(9)
C25_3 C 0.250000 0.76750(15) 0.250000
C26_3 C 0.3357(2) 0.87098(9) 0.15955(7)
C27_3 C 0.3057(2) 0.84506(10) 0.15340(5)
H16_3 H 0.297850 0.840145 0.134518
C28_3 C 0.2874(2) 0.82649(8) 0.17548(8)
H17_3 H 0.267308 0.809150 0.171365
C29_3 C 0.2991(2) 0.83384(9) 0.20371(6)
C30_3 C 0.3292(2) 0.85976(10) 0.20986(5)
H18_3 H 0.337017 0.864676 0.228741
C31_3 C 0.3475(2) 0.87833(9) 0.18778(8)
H19_3 H 0.367559 0.895671 0.191895
C32_3 C 0.2740(3) 0.81502(12) 0.22744(10)
C33_3 C 0.250000 0.83055(18) 0.250000
H20_3 H 0.249997 0.851956 0.250000
C34_3 C 0.4179(3) 0.94889(16) 0.06894(12)
O9_3 O 0.4488(2) 0.96966(9) 0.07635(6)
O10_3 O 0.4025(2) 0.94320(9) 0.04337(8)
O11_3 O 0.1917(3) 0.73389(10) 0.20710(8)
H21_3 H 0.181075 0.721964 0.194783
C35_3 C 0.1059(2) 0.57115(9) 0.09204(6)
C36_3 C 0.08148(18) 0.57059(9) 0.11865(8)
H22_3 H 0.052718 0.557754 0.121757
C37_3 C 0.1001(2) 0.58920(10) 0.14063(6)
H23_3 H 0.083733 0.588826 0.158431
C38_3 C 0.1431(2) 0.60839(9) 0.13599(7)
C39_3 C 0.16746(18) 0.60895(10) 0.10938(9)
H24_3 H 0.196224 0.621785 0.106276
C40_3 C 0.1489(2) 0.59033(11) 0.08741(6)
H25_3 H 0.165209 0.590713 0.069602
C41_3 C 0.2233(3) 0.71659(11) 0.22870(9)
C42_3 C 0.1643(2) 0.62902(9) 0.15955(7)
C43_3 C 0.1943(2) 0.65494(10) 0.15340(5)
H26_3 H 0.202150 0.659855 0.134518
C44_3 C 0.2126(2) 0.67351(8) 0.17548(8)
H27_3 H 0.232692 0.690850 0.171365
C45_3 C 0.2009(2) 0.66616(9) 0.20371(6)
C46_3 C 0.1708(2) 0.64024(10) 0.20986(5)
H28_3 H 0.162983 0.635324 0.228741
C47_3 C 0.1525(2) 0.62167(9) 0.18778(8)
H29_3 H 0.132441 0.604329 0.191895
C48_3 C 0.2260(3) 0.68498(12) 0.22744(10)
C49_3 C 0.0821(3) 0.55111(16) 0.06894(12)
O12_3 O 0.0512(2) 0.53034(9) 0.07635(6)
O13_3 O 0.0975(2) 0.55680(9) 0.04337(8)
O14_3 O 0.1917(3) 0.76611(10) 0.29290(8)
H30_3 H 0.181075 0.778036 0.305217
C50_3 C 0.1059(2) 0.92885(9) 0.40796(6)
C51_3 C 0.08148(18) 0.92941(9) 0.38135(8)
H31_3 H 0.052718 0.942246 0.378243
C52_3 C 0.1001(2) 0.91080(10) 0.35937(6)
H32_3 H 0.083733 0.911174 0.341569
C53_3 C 0.1431(2) 0.89161(9) 0.36401(7)
C54_3 C 0.16746(18) 0.89105(10) 0.39062(9)
H33_3 H 0.196224 0.878215 0.393724
C55_3 C 0.1489(2) 0.90967(11) 0.41259(6)
H34_3 H 0.165209 0.909287 0.430398
C56_3 C 0.2233(3) 0.78341(11) 0.27130(9)
C57_3 C 0.1643(2) 0.87098(9) 0.34045(7)
C58_3 C 0.1943(2) 0.84506(10) 0.34660(5)
H35_3 H 0.202150 0.840145 0.365482
C59_3 C 0.2126(2) 0.82649(8) 0.32452(8)
H36_3 H 0.232692 0.809150 0.328635
C60_3 C 0.2009(2) 0.83384(9) 0.29629(6)
C61_3 C 0.1708(2) 0.85976(10) 0.29014(5)
H37_3 H 0.162983 0.864676 0.271259
C62_3 C 0.1525(2) 0.87833(9) 0.31222(8)
H38_3 H 0.132441 0.895671 0.308105
C63_3 C 0.2260(3) 0.81502(12) 0.27256(10)
C64_3 C 0.0821(3) 0.94889(16) 0.43106(12)
O15_3 O 0.0512(2) 0.96966(9) 0.42365(6)
O16_3 O 0.0975(2) 0.94320(9) 0.45663(8)
O19_2 O 0.3436(3) 0.53956(13) 0.500000
O20_2 O 0.4335(3) 0.59133(12) 0.500000
Zr4_4 Zr 0.500000 1.000000 0.05224(2)
Zr5_3 Zr -0.000000 0.500000 0.05224(2)
Zr6_6 Zr -0.000000 1.000000 0.44776(2)
Zr9_5 Zr 0.43040(4) 0.95931(2) 0.000000
Zr10_5 Zr 0.06960(4) 0.54069(2) 0.000000
Zr11_3 Zr 0.06960(4) 0.95931(2) 0.500000
O25_2 O 0.5512(2) 0.46966(9) 0.42365(6)
O26_2 O 0.4488(2) 0.46966(9) 0.42365(6)
O27_2 O 0.5512(2) 0.53034(9) 0.42365(6)
O28_2 O 0.5975(2) 0.44320(9) 0.45663(8)
O29_2 O 0.5975(2) 0.44320(9) 0.54337(8)
O30_2 O 0.4025(2) 0.55680(9) 0.54337(8)
Zr9_6 Zr 0.43040(4) 0.95931(2) 1.000000
Zr10_6 Zr 0.06960(4) 0.54069(2) 1.000000
Zr6_7 Zr 1.000000 0.000000 0.44776(2)
Zr5_4 Zr 1.000000 0.500000 0.05224(2)
Zr6_8 Zr 1.000000 1.000000 0.44776(2)
O3_4 O 0.6917(3) 0.26611(10) 0.29290(8)
H1_4 H 0.681075 0.278036 0.305217
C1_4 C 0.6059(2) 0.42885(9) 0.40796(6)
C2_4 C 0.58148(18) 0.42941(9) 0.38135(8)
H2_4 H 0.552718 0.442246 0.378243
C3_4 C 0.6001(2) 0.41080(10) 0.35937(6)
H3_4 H 0.583733 0.411174 0.341569
C4_4 C 0.6431(2) 0.39161(9) 0.36401(7)
C5_4 C 0.66746(18) 0.39105(10) 0.39062(9)
H4_4 H 0.696224 0.378215 0.393724
C6_4 C 0.6489(2) 0.40967(11) 0.41259(6)
H5_4 H 0.665209 0.409287 0.430398
C7_4 C 0.7233(3) 0.28341(11) 0.27130(9)
C8_4 C 0.750000 0.26750(15) 0.250000
C9_4 C 0.6643(2) 0.37098(9) 0.34045(7)
C10_4 C 0.6943(2) 0.34506(10) 0.34660(5)
H6_4 H 0.702150 0.340145 0.365482
C11_4 C 0.7126(2) 0.32649(8) 0.32452(8)
H7_4 H 0.732692 0.309150 0.328635
C12_4 C 0.7009(2) 0.33384(9) 0.29629(6)
C13_4 C 0.6708(2) 0.35976(10) 0.29014(5)
H8_4 H 0.662983 0.364676 0.271259
C14_4 C 0.6525(2) 0.37833(9) 0.31222(8)
H9_4 H 0.632441 0.395671 0.308105
C15_4 C 0.7260(3) 0.31502(12) 0.27256(10)
C16_4 C 0.750000 0.33055(18) 0.250000
H10_4 H 0.750003 0.351956 0.250000
C17_4 C 0.5821(3) 0.44889(16) 0.43106(12)
O8_4 O 0.6917(3) 0.23389(10) 0.20710(8)
H11_4 H 0.681075 0.221964 0.194783
C18_4 C 0.6059(2) 0.07115(9) 0.09204(6)
C19_4 C 0.58148(18) 0.07059(9) 0.11865(8)
H12_4 H 0.552718 0.057754 0.121757
C20_4 C 0.6001(2) 0.08920(10) 0.14063(6)
H13_4 H 0.583733 0.088826 0.158431
C21_4 C 0.6431(2) 0.10839(9) 0.13599(7)
C22_4 C 0.66746(18) 0.10895(10) 0.10938(9)
H14_4 H 0.696224 0.121785 0.106276
C23_4 C 0.6489(2) 0.09033(11) 0.08741(6)
H15_4 H 0.665209 0.090713 0.069602
C24_4 C 0.7233(3) 0.21659(11) 0.22870(9)
C25_4 C 0.750000 0.23250(15) 0.250000
C26_4 C 0.6643(2) 0.12902(9) 0.15955(7)
C27_4 C 0.6943(2) 0.15494(10) 0.15340(5)
H16_4 H 0.702150 0.159855 0.134518
C28_4 C 0.7126(2) 0.17351(8) 0.17548(8)
H17_4 H 0.732692 0.190850 0.171365
C29_4 C 0.7009(2) 0.16616(9) 0.20371(6)
C30_4 C 0.6708(2) 0.14024(10) 0.20986(5)
H18_4 H 0.662983 0.135324 0.228741
C31_4 C 0.6525(2) 0.12167(9) 0.18778(8)
H19_4 H 0.632441 0.104329 0.191895
C32_4 C 0.7260(3) 0.18498(12) 0.22744(10)
C33_4 C 0.750000 0.16945(18) 0.250000
H20_4 H 0.750003 0.148044 0.250000
C34_4 C 0.5821(3) 0.05111(16) 0.06894(12)
O9_4 O 0.5512(2) 0.03034(9) 0.07635(6)
O10_4 O 0.5975(2) 0.05680(9) 0.04337(8)
O11_4 O 0.8083(3) 0.26611(10) 0.20710(8)
H21_4 H 0.818925 0.278036 0.194783
C35_4 C 0.8941(2) 0.42885(9) 0.09204(6)
C36_4 C 0.91852(18) 0.42941(9) 0.11865(8)
H22_4 H 0.947282 0.442246 0.121757
C37_4 C 0.8999(2) 0.41080(10) 0.14063(6)
H23_4 H 0.916267 0.411174 0.158431
C38_4 C 0.8569(2) 0.39161(9) 0.13599(7)
C39_4 C 0.83254(18) 0.39105(10) 0.10938(9)
H24_4 H 0.803776 0.378215 0.106276
C40_4 C 0.8511(2) 0.40967(11) 0.08741(6)
H25_4 H 0.834791 0.409287 0.069602
C41_4 C 0.7767(3) 0.28341(11) 0.22870(9)
C42_4 C 0.8357(2) 0.37098(9) 0.15955(7)
C43_4 C 0.8057(2) 0.34506(10) 0.15340(5)
H26_4 H 0.797850 0.340145 0.134518
C44_4 C 0.7874(2) 0.32649(8) 0.17548(8)
H27_4 H 0.767308 0.309150 0.171365
C45_4 C 0.7991(2) 0.33384(9) 0.20371(6)
C46_4 C 0.8292(2) 0.35976(10) 0.20986(5)
H28_4 H 0.837017 0.364676 0.228741
C47_4 C 0.8475(2) 0.37833(9) 0.18778(8)
H29_4 H 0.867559 0.395671 0.191895
C48_4 C 0.7740(3) 0.31502(12) 0.22744(10)
C49_4 C 0.9179(3) 0.44889(16) 0.06894(12)
O12_4 O 0.9488(2) 0.46966(9) 0.07635(6)
O13_4 O 0.9025(2) 0.44320(9) 0.04337(8)
O14_4 O 0.8083(3) 0.23389(10) 0.29290(8)
H30_4 H 0.818925 0.221964 0.305217
C50_4 C 0.8941(2) 0.07115(9) 0.40796(6)
C51_4 C 0.91852(18) 0.07059(9) 0.38135(8)
H31_4 H 0.947282 0.057754 0.378243
C52_4 C 0.8999(2) 0.08920(10) 0.35937(6)
H32_4 H 0.916267 0.088826 0.341569
C53_4 C 0.8569(2) 0.10839(9) 0.36401(7)
C54_4 C 0.83254(18) 0.10895(10) 0.39062(9)
H33_4 H 0.803776 0.121785 0.393724
C55_4 C 0.8511(2) 0.09033(11) 0.41259(6)
H34_4 H 0.834791 0.090713 0.430398
C56_4 C 0.7767(3) 0.21659(11) 0.27130(9)
C57_4 C 0.8357(2) 0.12902(9) 0.34045(7)
C58_4 C 0.8057(2) 0.15494(10) 0.34660(5)
H35_4 H 0.797850 0.159855 0.365482
C59_4 C 0.7874(2) 0.17351(8) 0.32452(8)
H36_4 H 0.767308 0.190850 0.328635
C60_4 C 0.7991(2) 0.16616(9) 0.29629(6)
C61_4 C 0.8292(2) 0.14024(10) 0.29014(5)
H37_4 H 0.837017 0.135324 0.271259
C62_4 C 0.8475(2) 0.12167(9) 0.31222(8)
H38_4 H 0.867559 0.104329 0.308105
C63_4 C 0.7740(3) 0.18498(12) 0.27256(10)
C64_4 C 0.9179(3) 0.05111(16) 0.43106(12)
O15_4 O 0.9488(2) 0.03034(9) 0.42365(6)
O16_4 O 0.9025(2) 0.05680(9) 0.45663(8)
Zr9_7 Zr 0.56960(4) 0.04069(2) 0.000000
Zr10_7 Zr 0.93040(4) 0.45931(2) 0.000000
Zr11_4 Zr 0.93040(4) 0.04069(2) 0.500000
Zr9_8 Zr 0.56960(4) 0.04069(2) 1.000000
Zr10_8 Zr 0.93040(4) 0.45931(2) 1.000000
O1_2 O 0.4298(3) -0.000000 0.02527(11)
O17_2 O 0.5702(3) -0.000000 0.02527(11)
O18_2 O 0.500000 0.04132(15) 0.02554(13)
O19_3 O 0.6564(3) 0.03956(13) 0.000000
O20_3 O 0.5665(3) 0.09133(12) 0.000000
O27_3 O 0.4488(2) 0.03034(9) 0.07635(6)
O19_4 O 0.6564(3) 0.03956(13) 1.000000
O20_4 O 0.5665(3) 0.09133(12) 1.000000
O21_2 O 0.5702(3) -0.000000 0.97473(11)
O22_2 O 0.4298(3) -0.000000 0.97473(11)
O24_2 O 0.500000 0.04132(15) 0.97446(13)
O30_3 O 0.5975(2) 0.05680(9) 0.95663(8)
O1_3 O 0.4298(3) 1.000000 0.02527(11)
O2_2 O 0.500000 0.95868(15) 0.02554(13)
O5_3 O 0.3436(3) 0.96044(13) 0.000000
O6_3 O 0.4335(3) 0.90867(12) 0.000000
O17_3 O 0.5702(3) 1.000000 0.02527(11)
O26_3 O 0.5512(2) 0.96966(9) 0.07635(6)
O5_4 O 0.3436(3) 0.96044(13) 1.000000
O6_4 O 0.4335(3) 0.90867(12) 1.000000
O21_3 O 0.5702(3) 1.000000 0.97473(11)
O22_3 O 0.4298(3) 1.000000 0.97473(11)
O23_2 O 0.500000 0.95868(15) 0.97446(13)
O29_3 O 0.4025(2) 0.94320(9) 0.95663(8)
O19_5 O 0.3436(3) 0.03956(13) 0.000000
O20_5 O 0.4335(3) 0.09133(12) 0.000000
O30_4 O 0.4025(2) 0.05680(9) 0.04337(8)
O19_6 O 0.3436(3) 0.03956(13) 1.000000
O20_6 O 0.4335(3) 0.09133(12) 1.000000
O27_4 O 0.5512(2) 0.03034(9) 0.92365(6)
O5_5 O 0.6564(3) 0.96044(13) 0.000000
O6_5 O 0.5665(3) 0.90867(12) 0.000000
O29_4 O 0.5975(2) 0.94320(9) 0.04337(8)
O5_6 O 0.6564(3) 0.96044(13) 1.000000
O6_6 O 0.5665(3) 0.90867(12) 1.000000
O26_4 O 0.4488(2) 0.96966(9) 0.92365(6)
O2_3 O 0.000000 0.45868(15) 0.02554(13)
O17_4 O 0.0702(3) 0.500000 0.02527(11)
O18_3 O -0.000000 0.54132(15) 0.02554(13)
O19_7 O 0.1564(3) 0.53956(13) 0.000000
O20_7 O 0.0665(3) 0.59133(12) 0.000000
O26_5 O 0.0512(2) 0.46966(9) 0.07635(6)
O19_8 O 0.1564(3) 0.53956(13) 1.000000
O20_8 O 0.0665(3) 0.59133(12) 1.000000
O21_4 O 0.0702(3) 0.500000 0.97473(11)
O23_3 O 0.000000 0.45868(15) 0.97446(13)
O24_3 O 0.000000 0.54132(15) 0.97446(13)
O30_5 O 0.0975(2) 0.55680(9) 0.95663(8)
O1_4 O 0.9298(3) 0.500000 0.02527(11)
O2_4 O 1.000000 0.45868(15) 0.02554(13)
O5_7 O 0.8436(3) 0.46044(13) 0.000000
O6_7 O 0.9335(3) 0.40867(12) 0.000000
O18_4 O 1.000000 0.54132(15) 0.02554(13)
O27_5 O 0.9488(2) 0.53034(9) 0.07635(6)
O5_8 O 0.8436(3) 0.46044(13) 1.000000
O6_8 O 0.9335(3) 0.40867(12) 1.000000
O22_4 O 0.9298(3) 0.500000 0.97473(11)
O23_4 O 1.000000 0.45868(15) 0.97446(13)
O24_4 O 1.000000 0.54132(15) 0.97446(13)
O29_5 O 0.9025(2) 0.44320(9) 0.95663(8)
O5_9 O 0.1564(3) 0.46044(13) 0.000000
O6_9 O 0.0665(3) 0.40867(12) 0.000000
O29_6 O 0.0975(2) 0.44320(9) 0.04337(8)
O5_10 O 0.1564(3) 0.46044(13) 1.000000
O6_10 O 0.0665(3) 0.40867(12) 1.000000
O27_6 O 0.0512(2) 0.53034(9) 0.92365(6)
O19_9 O 0.8436(3) 0.53956(13) 0.000000
O20_9 O 0.9335(3) 0.59133(12) 0.000000
O30_6 O 0.9025(2) 0.55680(9) 0.04337(8)
O19_10 O 0.8436(3) 0.53956(13) 1.000000
O20_10 O 0.9335(3) 0.59133(12) 1.000000
O26_6 O 0.9488(2) 0.46966(9) 0.92365(6)
O17_5 O 0.0702(3) -0.000000 0.52527(11)
O18_5 O 0.000000 0.04132(15) 0.52554(13)
O19_11 O 0.1564(3) 0.03956(13) 0.500000
O20_11 O 0.0665(3) 0.09133(12) 0.500000
O21_5 O 0.0702(3) -0.000000 0.47473(11)
O24_5 O 0.000000 0.04132(15) 0.47446(13)
O30_7 O 0.0975(2) 0.05680(9) 0.45663(8)
O2_5 O 0.000000 0.95868(15) 0.52554(13)
O17_6 O 0.0702(3) 1.000000 0.52527(11)
O21_6 O 0.0702(3) 1.000000 0.47473(11)
O23_5 O 0.000000 0.95868(15) 0.47446(13)
O26_7 O 0.0512(2) 0.96966(9) 0.57635(6)
O1_5 O 0.9298(3) -0.000000 0.52527(11)
O18_6 O 1.000000 0.04132(15) 0.52554(13)
O22_5 O 0.9298(3) -0.000000 0.47473(11)
O24_6 O 1.000000 0.04132(15) 0.47446(13)
O27_7 O 0.9488(2) 0.03034(9) 0.57635(6)
O1_6 O 0.9298(3) 1.000000 0.52527(11)
O2_6 O 1.000000 0.95868(15) 0.52554(13)
O5_11 O 0.8436(3) 0.96044(13) 0.500000
O6_11 O 0.9335(3) 0.90867(12) 0.500000
O22_6 O 0.9298(3) 1.000000 0.47473(11)
O23_6 O 1.000000 0.95868(15) 0.47446(13)
O29_7 O 0.9025(2) 0.94320(9) 0.45663(8)
O27_8 O 0.0512(2) 0.03034(9) 0.42365(6)
O5_12 O 0.1564(3) 0.96044(13) 0.500000
O6_12 O 0.0665(3) 0.90867(12) 0.500000
O29_8 O 0.0975(2) 0.94320(9) 0.54337(8)
O19_12 O 0.8436(3) 0.03956(13) 0.500000
O20_12 O 0.9335(3) 0.09133(12) 0.500000
O30_8 O 0.9025(2) 0.05680(9) 0.54337(8)
O26_8 O 0.9488(2) 0.96966(9) 0.42365(6)
O3_5 O 0.3083(3) 0.26611(10) 0.29290(8)
H1_5 H 0.318925 0.278036 0.305217
C1_5 C 0.3941(2) 0.42885(9) 0.40796(6)
C2_5 C 0.41852(18) 0.42941(9) 0.38135(8)
H2_5 H 0.447282 0.442246 0.378243
C3_5 C 0.3999(2) 0.41080(10) 0.35937(6)
H3_5 H 0.416267 0.411174 0.341569
C4_5 C 0.3569(2) 0.39161(9) 0.36401(7)
C5_5 C 0.33254(18) 0.39105(10) 0.39062(9)
H4_5 H 0.303776 0.378215 0.393724
C6_5 C 0.3511(2) 0.40967(11) 0.41259(6)
H5_5 H 0.334791 0.409287 0.430398
C7_5 C 0.2767(3) 0.28341(11) 0.27130(9)
C8_5 C 0.250000 0.26750(15) 0.250000
C9_5 C 0.3357(2) 0.37098(9) 0.34045(7)
C10_5 C 0.3057(2) 0.34506(10) 0.34660(5)
H6_5 H 0.297850 0.340145 0.365482
C11_5 C 0.2874(2) 0.32649(8) 0.32452(8)
H7_5 H 0.267308 0.309150 0.328635
C12_5 C 0.2991(2) 0.33384(9) 0.29629(6)
C13_5 C 0.3292(2) 0.35976(10) 0.29014(5)
H8_5 H 0.337017 0.364676 0.271259
C14_5 C 0.3475(2) 0.37833(9) 0.31222(8)
H9_5 H 0.367559 0.395671 0.308105
C15_5 C 0.2740(3) 0.31502(12) 0.27256(10)
C16_5 C 0.250000 0.33055(18) 0.250000
H10_5 H 0.249997 0.351956 0.250000
C17_5 C 0.4179(3) 0.44889(16) 0.43106(12)
O8_5 O 0.3083(3) 0.23389(10) 0.20710(8)
H11_5 H 0.318925 0.221964 0.194783
C18_5 C 0.3941(2) 0.07115(9) 0.09204(6)
C19_5 C 0.41852(18) 0.07059(9) 0.11865(8)
H12_5 H 0.447282 0.057754 0.121757
C20_5 C 0.3999(2) 0.08920(10) 0.14063(6)
H13_5 H 0.416267 0.088826 0.158431
C21_5 C 0.3569(2) 0.10839(9) 0.13599(7)
C22_5 C 0.33254(18) 0.10895(10) 0.10938(9)
H14_5 H 0.303776 0.121785 0.106276
C23_5 C 0.3511(2) 0.09033(11) 0.08741(6)
H15_5 H 0.334791 0.090713 0.069602
C24_5 C 0.2767(3) 0.21659(11) 0.22870(9)
C25_5 C 0.250000 0.23250(15) 0.250000
C26_5 C 0.3357(2) 0.12902(9) 0.15955(7)
C27_5 C 0.3057(2) 0.15494(10) 0.15340(5)
H16_5 H 0.297850 0.159855 0.134518
C28_5 C 0.2874(2) 0.17351(8) 0.17548(8)
H17_5 H 0.267308 0.190850 0.171365
C29_5 C 0.2991(2) 0.16616(9) 0.20371(6)
C30_5 C 0.3292(2) 0.14024(10) 0.20986(5)
H18_5 H 0.337017 0.135324 0.228741
C31_5 C 0.3475(2) 0.12167(9) 0.18778(8)
H19_5 H 0.367559 0.104329 0.191895
C32_5 C 0.2740(3) 0.18498(12) 0.22744(10)
C33_5 C 0.250000 0.16945(18) 0.250000
H20_5 H 0.249997 0.148044 0.250000
C34_5 C 0.4179(3) 0.05111(16) 0.06894(12)
O11_5 O 0.1917(3) 0.26611(10) 0.20710(8)
H21_5 H 0.181075 0.278036 0.194783
C35_5 C 0.1059(2) 0.42885(9) 0.09204(6)
C36_5 C 0.08148(18) 0.42941(9) 0.11865(8)
H22_5 H 0.052718 0.442246 0.121757
C37_5 C 0.1001(2) 0.41080(10) 0.14063(6)
H23_5 H 0.083733 0.411174 0.158431
C38_5 C 0.1431(2) 0.39161(9) 0.13599(7)
C39_5 C 0.16746(18) 0.39105(10) 0.10938(9)
H24_5 H 0.196224 0.378215 0.106276
C40_5 C 0.1489(2) 0.40967(11) 0.08741(6)
H25_5 H 0.165209 0.409287 0.069602
C41_5 C 0.2233(3) 0.28341(11) 0.22870(9)
C42_5 C 0.1643(2) 0.37098(9) 0.15955(7)
C43_5 C 0.1943(2) 0.34506(10) 0.15340(5)
H26_5 H 0.202150 0.340145 0.134518
C44_5 C 0.2126(2) 0.32649(8) 0.17548(8)
H27_5 H 0.232692 0.309150 0.171365
C45_5 C 0.2009(2) 0.33384(9) 0.20371(6)
C46_5 C 0.1708(2) 0.35976(10) 0.20986(5)
H28_5 H 0.162983 0.364676 0.228741
C47_5 C 0.1525(2) 0.37833(9) 0.18778(8)
H29_5 H 0.132441 0.395671 0.191895
C48_5 C 0.2260(3) 0.31502(12) 0.22744(10)
C49_5 C 0.0821(3) 0.44889(16) 0.06894(12)
O14_5 O 0.1917(3) 0.23389(10) 0.29290(8)
H30_5 H 0.181075 0.221964 0.305217
C50_5 C 0.1059(2) 0.07115(9) 0.40796(6)
C51_5 C 0.08148(18) 0.07059(9) 0.38135(8)
H31_5 H 0.052718 0.057754 0.378243
C52_5 C 0.1001(2) 0.08920(10) 0.35937(6)
H32_5 H 0.083733 0.088826 0.341569
C53_5 C 0.1431(2) 0.10839(9) 0.36401(7)
C54_5 C 0.16746(18) 0.10895(10) 0.39062(9)
H33_5 H 0.196224 0.121785 0.393724
C55_5 C 0.1489(2) 0.09033(11) 0.41259(6)
H34_5 H 0.165209 0.090713 0.430398
C56_5 C 0.2233(3) 0.21659(11) 0.27130(9)
C57_5 C 0.1643(2) 0.12902(9) 0.34045(7)
C58_5 C 0.1943(2) 0.15494(10) 0.34660(5)
H35_5 H 0.202150 0.159855 0.365482
C59_5 C 0.2126(2) 0.17351(8) 0.32452(8)
H36_5 H 0.232692 0.190850 0.328635
C60_5 C 0.2009(2) 0.16616(9) 0.29629(6)
C61_5 C 0.1708(2) 0.14024(10) 0.29014(5)
H37_5 H 0.162983 0.135324 0.271259
C62_5 C 0.1525(2) 0.12167(9) 0.31222(8)
H38_5 H 0.132441 0.104329 0.308105
C63_5 C 0.2260(3) 0.18498(12) 0.27256(10)
C64_5 C 0.0821(3) 0.05111(16) 0.43106(12)
O3_6 O 0.6917(3) 0.73389(10) 0.29290(8)
H1_6 H 0.681075 0.721964 0.305217
C1_6 C 0.6059(2) 0.57115(9) 0.40796(6)
C2_6 C 0.58148(18) 0.57059(9) 0.38135(8)
H2_6 H 0.552718 0.557754 0.378243
C3_6 C 0.6001(2) 0.58920(10) 0.35937(6)
H3_6 H 0.583733 0.588826 0.341569
C4_6 C 0.6431(2) 0.60839(9) 0.36401(7)
C5_6 C 0.66746(18) 0.60895(10) 0.39062(9)
H4_6 H 0.696224 0.621785 0.393724
C6_6 C 0.6489(2) 0.59033(11) 0.41259(6)
H5_6 H 0.665209 0.590713 0.430398
C7_6 C 0.7233(3) 0.71659(11) 0.27130(9)
C8_6 C 0.750000 0.73250(15) 0.250000
C9_6 C 0.6643(2) 0.62902(9) 0.34045(7)
C10_6 C 0.6943(2) 0.65494(10) 0.34660(5)
H6_6 H 0.702150 0.659855 0.365482
C11_6 C 0.7126(2) 0.67351(8) 0.32452(8)
H7_6 H 0.732692 0.690850 0.328635
C12_6 C 0.7009(2) 0.66616(9) 0.29629(6)
C13_6 C 0.6708(2) 0.64024(10) 0.29014(5)
H8_6 H 0.662983 0.635324 0.271259
C14_6 C 0.6525(2) 0.62167(9) 0.31222(8)
H9_6 H 0.632441 0.604329 0.308105
C15_6 C 0.7260(3) 0.68498(12) 0.27256(10)
C16_6 C 0.750000 0.66945(18) 0.250000
H10_6 H 0.750003 0.648044 0.250000
C17_6 C 0.5821(3) 0.55111(16) 0.43106(12)
O8_6 O 0.6917(3) 0.76611(10) 0.20710(8)
H11_6 H 0.681075 0.778036 0.194783
C18_6 C 0.6059(2) 0.92885(9) 0.09204(6)
C19_6 C 0.58148(18) 0.92941(9) 0.11865(8)
H12_6 H 0.552718 0.942246 0.121757
C20_6 C 0.6001(2) 0.91080(10) 0.14063(6)
H13_6 H 0.583733 0.911174 0.158431
C21_6 C 0.6431(2) 0.89161(9) 0.13599(7)
C22_6 C 0.66746(18) 0.89105(10) 0.10938(9)
H14_6 H 0.696224 0.878215 0.106276
C23_6 C 0.6489(2) 0.90967(11) 0.08741(6)
H15_6 H 0.665209 0.909287 0.069602
C24_6 C 0.7233(3) 0.78341(11) 0.22870(9)
C25_6 C 0.750000 0.76750(15) 0.250000
C26_6 C 0.6643(2) 0.87098(9) 0.15955(7)
C27_6 C 0.6943(2) 0.84506(10) 0.15340(5)
H16_6 H 0.702150 0.840145 0.134518
C28_6 C 0.7126(2) 0.82649(8) 0.17548(8)
H17_6 H 0.732692 0.809150 0.171365
C29_6 C 0.7009(2) 0.83384(9) 0.20371(6)
C30_6 C 0.6708(2) 0.85976(10) 0.20986(5)
H18_6 H 0.662983 0.864676 0.228741
C31_6 C 0.6525(2) 0.87833(9) 0.18778(8)
H19_6 H 0.632441 0.895671 0.191895
C32_6 C 0.7260(3) 0.81502(12) 0.22744(10)
C33_6 C 0.750000 0.83055(18) 0.250000
H20_6 H 0.750003 0.851956 0.250000
C34_6 C 0.5821(3) 0.94889(16) 0.06894(12)
O11_6 O 0.8083(3) 0.73389(10) 0.20710(8)
H21_6 H 0.818925 0.721964 0.194783
C35_6 C 0.8941(2) 0.57115(9) 0.09204(6)
C36_6 C 0.91852(18) 0.57059(9) 0.11865(8)
H22_6 H 0.947282 0.557754 0.121757
C37_6 C 0.8999(2) 0.58920(10) 0.14063(6)
H23_6 H 0.916267 0.588826 0.158431
C38_6 C 0.8569(2) 0.60839(9) 0.13599(7)
C39_6 C 0.83254(18) 0.60895(10) 0.10938(9)
H24_6 H 0.803776 0.621785 0.106276
C40_6 C 0.8511(2) 0.59033(11) 0.08741(6)
H25_6 H 0.834791 0.590713 0.069602
C41_6 C 0.7767(3) 0.71659(11) 0.22870(9)
C42_6 C 0.8357(2) 0.62902(9) 0.15955(7)
C43_6 C 0.8057(2) 0.65494(10) 0.15340(5)
H26_6 H 0.797850 0.659855 0.134518
C44_6 C 0.7874(2) 0.67351(8) 0.17548(8)
H27_6 H 0.767308 0.690850 0.171365
C45_6 C 0.7991(2) 0.66616(9) 0.20371(6)
C46_6 C 0.8292(2) 0.64024(10) 0.20986(5)
H28_6 H 0.837017 0.635324 0.228741
C47_6 C 0.8475(2) 0.62167(9) 0.18778(8)
H29_6 H 0.867559 0.604329 0.191895
C48_6 C 0.7740(3) 0.68498(12) 0.22744(10)
C49_6 C 0.9179(3) 0.55111(16) 0.06894(12)
O14_6 O 0.8083(3) 0.76611(10) 0.29290(8)
H30_6 H 0.818925 0.778036 0.305217
C50_6 C 0.8941(2) 0.92885(9) 0.40796(6)
C51_6 C 0.91852(18) 0.92941(9) 0.38135(8)
H31_6 H 0.947282 0.942246 0.378243
C52_6 C 0.8999(2) 0.91080(10) 0.35937(6)
H32_6 H 0.916267 0.911174 0.341569
C53_6 C 0.8569(2) 0.89161(9) 0.36401(7)
C54_6 C 0.83254(18) 0.89105(10) 0.39062(9)
H33_6 H 0.803776 0.878215 0.393724
C55_6 C 0.8511(2) 0.90967(11) 0.41259(6)
H34_6 H 0.834791 0.909287 0.430398
C56_6 C 0.7767(3) 0.78341(11) 0.27130(9)
C57_6 C 0.8357(2) 0.87098(9) 0.34045(7)
C58_6 C 0.8057(2) 0.84506(10) 0.34660(5)
H35_6 H 0.797850 0.840145 0.365482
C59_6 C 0.7874(2) 0.82649(8) 0.32452(8)
H36_6 H 0.767308 0.809150 0.328635
C60_6 C 0.7991(2) 0.83384(9) 0.29629(6)
C61_6 C 0.8292(2) 0.85976(10) 0.29014(5)
H37_6 H 0.837017 0.864676 0.271259
C62_6 C 0.8475(2) 0.87833(9) 0.31222(8)
H38_6 H 0.867559 0.895671 0.308105
C63_6 C 0.7740(3) 0.81502(12) 0.27256(10)
C64_6 C 0.9179(3) 0.94889(16) 0.43106(12)
O3_7 O 0.6917(3) 0.26611(10) 0.70710(8)
H1_7 H 0.681075 0.278036 0.694783
C1_7 C 0.6059(2) 0.42885(9) 0.59204(6)
C2_7 C 0.58148(18) 0.42941(9) 0.61865(8)
H2_7 H 0.552718 0.442246 0.621757
C3_7 C 0.6001(2) 0.41080(10) 0.64063(6)
H3_7 H 0.583733 0.411174 0.658431
C4_7 C 0.6431(2) 0.39161(9) 0.63599(7)
C5_7 C 0.66746(18) 0.39105(10) 0.60938(9)
H4_7 H 0.696224 0.378215 0.606276
C6_7 C 0.6489(2) 0.40967(11) 0.58741(6)
H5_7 H 0.665209 0.409287 0.569602
C7_7 C 0.7233(3) 0.28341(11) 0.72870(9)
C8_7 C 0.750000 0.26750(15) 0.750000
C9_7 C 0.6643(2) 0.37098(9) 0.65955(7)
C10_7 C 0.6943(2) 0.34506(10) 0.65340(5)
H6_7 H 0.702150 0.340145 0.634518
C11_7 C 0.7126(2) 0.32649(8) 0.67548(8)
H7_7 H 0.732692 0.309150 0.671365
C12_7 C 0.7009(2) 0.33384(9) 0.70371(6)
C13_7 C 0.6708(2) 0.35976(10) 0.70986(5)
H8_7 H 0.662983 0.364676 0.728741
C14_7 C 0.6525(2) 0.37833(9) 0.68778(8)
H9_7 H 0.632441 0.395671 0.691895
C15_7 C 0.7260(3) 0.31502(12) 0.72744(10)
C16_7 C 0.750000 0.33055(18) 0.750000
H10_7 H 0.750003 0.351956 0.750000
C17_7 C 0.5821(3) 0.44889(16) 0.56894(12)
O8_7 O 0.6917(3) 0.23389(10) 0.79290(8)
H11_7 H 0.681075 0.221964 0.805217
C18_7 C 0.6059(2) 0.07115(9) 0.90796(6)
C19_7 C 0.58148(18) 0.07059(9) 0.88135(8)
H12_7 H 0.552718 0.057754 0.878243
C20_7 C 0.6001(2) 0.08920(10) 0.85937(6)
H13_7 H 0.583733 0.088826 0.841569
C21_7 C 0.6431(2) 0.10839(9) 0.86401(7)
C22_7 C 0.66746(18) 0.10895(10) 0.89062(9)
H14_7 H 0.696224 0.121785 0.893724
C23_7 C 0.6489(2) 0.09033(11) 0.91259(6)
H15_7 H 0.665209 0.090713 0.930398
C24_7 C 0.7233(3) 0.21659(11) 0.77130(9)
C25_7 C 0.750000 0.23250(15) 0.750000
C26_7 C 0.6643(2) 0.12902(9) 0.84045(7)
C27_7 C 0.6943(2) 0.15494(10) 0.84660(5)
H16_7 H 0.702150 0.159855 0.865482
C28_7 C 0.7126(2) 0.17351(8) 0.82452(8)
H17_7 H 0.732692 0.190850 0.828635
C29_7 C 0.7009(2) 0.16616(9) 0.79629(6)
C30_7 C 0.6708(2) 0.14024(10) 0.79014(5)
H18_7 H 0.662983 0.135324 0.771259
C31_7 C 0.6525(2) 0.12167(9) 0.81222(8)
H19_7 H 0.632441 0.104329 0.808105
C32_7 C 0.7260(3) 0.18498(12) 0.77256(10)
C33_7 C 0.750000 0.16945(18) 0.750000
H20_7 H 0.750003 0.148044 0.750000
C34_7 C 0.5821(3) 0.05111(16) 0.93106(12)
O11_7 O 0.8083(3) 0.26611(10) 0.79290(8)
H21_7 H 0.818925 0.278036 0.805217
C35_7 C 0.8941(2) 0.42885(9) 0.90796(6)
C36_7 C 0.91852(18) 0.42941(9) 0.88135(8)
H22_7 H 0.947282 0.442246 0.878243
C37_7 C 0.8999(2) 0.41080(10) 0.85937(6)
H23_7 H 0.916267 0.411174 0.841569
C38_7 C 0.8569(2) 0.39161(9) 0.86401(7)
C39_7 C 0.83254(18) 0.39105(10) 0.89062(9)
H24_7 H 0.803776 0.378215 0.893724
C40_7 C 0.8511(2) 0.40967(11) 0.91259(6)
H25_7 H 0.834791 0.409287 0.930398
C41_7 C 0.7767(3) 0.28341(11) 0.77130(9)
C42_7 C 0.8357(2) 0.37098(9) 0.84045(7)
C43_7 C 0.8057(2) 0.34506(10) 0.84660(5)
H26_7 H 0.797850 0.340145 0.865482
C44_7 C 0.7874(2) 0.32649(8) 0.82452(8)
H27_7 H 0.767308 0.309150 0.828635
C45_7 C 0.7991(2) 0.33384(9) 0.79629(6)
C46_7 C 0.8292(2) 0.35976(10) 0.79014(5)
H28_7 H 0.837017 0.364676 0.771259
C47_7 C 0.8475(2) 0.37833(9) 0.81222(8)
H29_7 H 0.867559 0.395671 0.808105
C48_7 C 0.7740(3) 0.31502(12) 0.77256(10)
C49_7 C 0.9179(3) 0.44889(16) 0.93106(12)
O14_7 O 0.8083(3) 0.23389(10) 0.70710(8)
H30_7 H 0.818925 0.221964 0.694783
C50_7 C 0.8941(2) 0.07115(9) 0.59204(6)
C51_7 C 0.91852(18) 0.07059(9) 0.61865(8)
H31_7 H 0.947282 0.057754 0.621757
C52_7 C 0.8999(2) 0.08920(10) 0.64063(6)
H32_7 H 0.916267 0.088826 0.658431
C53_7 C 0.8569(2) 0.10839(9) 0.63599(7)
C54_7 C 0.83254(18) 0.10895(10) 0.60938(9)
H33_7 H 0.803776 0.121785 0.606276
C55_7 C 0.8511(2) 0.09033(11) 0.58741(6)
H34_7 H 0.834791 0.090713 0.569602
C56_7 C 0.7767(3) 0.21659(11) 0.72870(9)
C57_7 C 0.8357(2) 0.12902(9) 0.65955(7)
C58_7 C 0.8057(2) 0.15494(10) 0.65340(5)
H35_7 H 0.797850 0.159855 0.634518
C59_7 C 0.7874(2) 0.17351(8) 0.67548(8)
H36_7 H 0.767308 0.190850 0.671365
C60_7 C 0.7991(2) 0.16616(9) 0.70371(6)
C61_7 C 0.8292(2) 0.14024(10) 0.70986(5)
H37_7 H 0.837017 0.135324 0.728741
C62_7 C 0.8475(2) 0.12167(9) 0.68778(8)
H38_7 H 0.867559 0.104329 0.691895
C63_7 C 0.7740(3) 0.18498(12) 0.72744(10)
C64_7 C 0.9179(3) 0.05111(16) 0.56894(12)
O3_8 O 0.3083(3) 0.73389(10) 0.70710(8)
H1_8 H 0.318925 0.721964 0.694783
C1_8 C 0.3941(2) 0.57115(9) 0.59204(6)
C2_8 C 0.41852(18) 0.57059(9) 0.61865(8)
H2_8 H 0.447282 0.557754 0.621757
C3_8 C 0.3999(2) 0.58920(10) 0.64063(6)
H3_8 H 0.416267 0.588826 0.658431
C4_8 C 0.3569(2) 0.60839(9) 0.63599(7)
C5_8 C 0.33254(18) 0.60895(10) 0.60938(9)
H4_8 H 0.303776 0.621785 0.606276
C6_8 C 0.3511(2) 0.59033(11) 0.58741(6)
H5_8 H 0.334791 0.590713 0.569602
C7_8 C 0.2767(3) 0.71659(11) 0.72870(9)
C8_8 C 0.250000 0.73250(15) 0.750000
C9_8 C 0.3357(2) 0.62902(9) 0.65955(7)
C10_8 C 0.3057(2) 0.65494(10) 0.65340(5)
H6_8 H 0.297850 0.659855 0.634518
C11_8 C 0.2874(2) 0.67351(8) 0.67548(8)
H7_8 H 0.267308 0.690850 0.671365
C12_8 C 0.2991(2) 0.66616(9) 0.70371(6)
C13_8 C 0.3292(2) 0.64024(10) 0.70986(5)
H8_8 H 0.337017 0.635324 0.728741
C14_8 C 0.3475(2) 0.62167(9) 0.68778(8)
H9_8 H 0.367559 0.604329 0.691895
C15_8 C 0.2740(3) 0.68498(12) 0.72744(10)
C16_8 C 0.250000 0.66945(18) 0.750000
H10_8 H 0.249997 0.648044 0.750000
C17_8 C 0.4179(3) 0.55111(16) 0.56894(12)
O8_8 O 0.3083(3) 0.76611(10) 0.79290(8)
H11_8 H 0.318925 0.778036 0.805217
C18_8 C 0.3941(2) 0.92885(9) 0.90796(6)
C19_8 C 0.41852(18) 0.92941(9) 0.88135(8)
H12_8 H 0.447282 0.942246 0.878243
C20_8 C 0.3999(2) 0.91080(10) 0.85937(6)
H13_8 H 0.416267 0.911174 0.841569
C21_8 C 0.3569(2) 0.89161(9) 0.86401(7)
C22_8 C 0.33254(18) 0.89105(10) 0.89062(9)
H14_8 H 0.303776 0.878215 0.893724
C23_8 C 0.3511(2) 0.90967(11) 0.91259(6)
H15_8 H 0.334791 0.909287 0.930398
C24_8 C 0.2767(3) 0.78341(11) 0.77130(9)
C25_8 C 0.250000 0.76750(15) 0.750000
C26_8 C 0.3357(2) 0.87098(9) 0.84045(7)
C27_8 C 0.3057(2) 0.84506(10) 0.84660(5)
H16_8 H 0.297850 0.840145 0.865482
C28_8 C 0.2874(2) 0.82649(8) 0.82452(8)
H17_8 H 0.267308 0.809150 0.828635
C29_8 C 0.2991(2) 0.83384(9) 0.79629(6)
C30_8 C 0.3292(2) 0.85976(10) 0.79014(5)
H18_8 H 0.337017 0.864676 0.771259
C31_8 C 0.3475(2) 0.87833(9) 0.81222(8)
H19_8 H 0.367559 0.895671 0.808105
C32_8 C 0.2740(3) 0.81502(12) 0.77256(10)
C33_8 C 0.250000 0.83055(18) 0.750000
H20_8 H 0.249997 0.851956 0.750000
C34_8 C 0.4179(3) 0.94889(16) 0.93106(12)
O11_8 O 0.1917(3) 0.73389(10) 0.79290(8)
H21_8 H 0.181075 0.721964 0.805217
C35_8 C 0.1059(2) 0.57115(9) 0.90796(6)
C36_8 C 0.08148(18) 0.57059(9) 0.88135(8)
H22_8 H 0.052718 0.557754 0.878243
C37_8 C 0.1001(2) 0.58920(10) 0.85937(6)
H23_8 H 0.083733 0.588826 0.841569
C38_8 C 0.1431(2) 0.60839(9) 0.86401(7)
C39_8 C 0.16746(18) 0.60895(10) 0.89062(9)
H24_8 H 0.196224 0.621785 0.893724
C40_8 C 0.1489(2) 0.59033(11) 0.91259(6)
H25_8 H 0.165209 0.590713 0.930398
C41_8 C 0.2233(3) 0.71659(11) 0.77130(9)
C42_8 C 0.1643(2) 0.62902(9) 0.84045(7)
C43_8 C 0.1943(2) 0.65494(10) 0.84660(5)
H26_8 H 0.202150 0.659855 0.865482
C44_8 C 0.2126(2) 0.67351(8) 0.82452(8)
H27_8 H 0.232692 0.690850 0.828635
C45_8 C 0.2009(2) 0.66616(9) 0.79629(6)
C46_8 C 0.1708(2) 0.64024(10) 0.79014(5)
H28_8 H 0.162983 0.635324 0.771259
C47_8 C 0.1525(2) 0.62167(9) 0.81222(8)
H29_8 H 0.132441 0.604329 0.808105
C48_8 C 0.2260(3) 0.68498(12) 0.77256(10)
C49_8 C 0.0821(3) 0.55111(16) 0.93106(12)
O14_8 O 0.1917(3) 0.76611(10) 0.70710(8)
H30_8 H 0.181075 0.778036 0.694783
C50_8 C 0.1059(2) 0.92885(9) 0.59204(6)
C51_8 C 0.08148(18) 0.92941(9) 0.61865(8)
H31_8 H 0.052718 0.942246 0.621757
C52_8 C 0.1001(2) 0.91080(10) 0.64063(6)
H32_8 H 0.083733 0.911174 0.658431
C53_8 C 0.1431(2) 0.89161(9) 0.63599(7)
C54_8 C 0.16746(18) 0.89105(10) 0.60938(9)
H33_8 H 0.196224 0.878215 0.606276
C55_8 C 0.1489(2) 0.90967(11) 0.58741(6)
H34_8 H 0.165209 0.909287 0.569602
C56_8 C 0.2233(3) 0.78341(11) 0.72870(9)
C57_8 C 0.1643(2) 0.87098(9) 0.65955(7)
C58_8 C 0.1943(2) 0.84506(10) 0.65340(5)
H35_8 H 0.202150 0.840145 0.634518
C59_8 C 0.2126(2) 0.82649(8) 0.67548(8)
H36_8 H 0.232692 0.809150 0.671365
C60_8 C 0.2009(2) 0.83384(9) 0.70371(6)
C61_8 C 0.1708(2) 0.85976(10) 0.70986(5)
H37_8 H 0.162983 0.864676 0.728741
C62_8 C 0.1525(2) 0.87833(9) 0.68778(8)
H38_8 H 0.132441 0.895671 0.691895
C63_8 C 0.2260(3) 0.81502(12) 0.72744(10)
C64_8 C 0.0821(3) 0.94889(16) 0.56894(12)
loop_
_geom_bond_atom_site_label_1
_geom_bond_atom_site_label_2
_geom_bond_site_symmetry_1
_geom_bond_site_symmetry_2
Zr1 O1 1_555 1_555
Zr2 O1 1_555 1_555
O1 Zr8 1_555 1_555
O2 Zr1 1_555 1_555
O3 H1 1_555 1_555
C1 C2 1_555 1_555
C2 H2 1_555 1_555
C3 C2 1_555 1_555
H3 C3 1_555 1_555
C4 C3 1_555 1_555
C5 C4 1_555 1_555
H4 C5 1_555 1_555
C6 C1 1_555 1_555
H5 C6 1_555 1_555
C7 O3 1_555 1_555
C8 C7 1_555 1_555
C9 C4 1_555 1_555
C10 C9 1_555 1_555
H6 C10 1_555 1_555
C11 C10 1_555 1_555
H7 C11 1_555 1_555
C12 C11 1_555 1_555
C13 C12 1_555 1_555
H8 C13 1_555 1_555
C14 C9 1_555 1_555
H9 C14 1_555 1_555
C15 C7 1_555 1_555
C16 C15 1_555 1_555
H10 C16 1_555 1_555
C17 C1 1_555 1_555
O4 Zr1 1_555 1_555
O5 Zr2 1_555 1_555
O6 Zr2 1_555 1_555
O7 C17 1_555 1_555
O8 H11 1_555 1_555
C18 C19 1_555 1_555
C19 H12 1_555 1_555
C20 C19 1_555 1_555
H13 C20 1_555 1_555
C21 C20 1_555 1_555
C22 C21 1_555 1_555
H14 C22 1_555 1_555
C23 C18 1_555 1_555
H15 C23 1_555 1_555
C24 O8 1_555 1_555
C25 C8 1_555 1_555
C26 C21 1_555 1_555
C27 C26 1_555 1_555
H16 C27 1_555 1_555
C28 C27 1_555 1_555
H17 C28 1_555 1_555
C29 C28 1_555 1_555
C30 C29 1_555 1_555
H18 C30 1_555 1_555
C31 C26 1_555 1_555
H19 C31 1_555 1_555
C32 C24 1_555 1_555
C33 C32 1_555 1_555
H20 C33 1_555 1_555
C34 C18 1_555 1_555
O9 C34 1_555 1_555
O10 C34 1_555 1_555
O11 H21 1_555 1_555
C35 C36 1_555 1_555
C36 H22 1_555 1_555
C37 C36 1_555 1_555
H23 C37 1_555 1_555
C38 C37 1_555 1_555
C39 C38 1_555 1_555
H24 C39 1_555 1_555
C40 C35 1_555 1_555
H25 C40 1_555 1_555
C41 C8 1_555 1_555
C42 C38 1_555 1_555
C43 C42 1_555 1_555
H26 C43 1_555 1_555
C44 C43 1_555 1_555
H27 C44 1_555 1_555
C45 C44 1_555 1_555
C46 C45 1_555 1_555
H28 C46 1_555 1_555
C47 C42 1_555 1_555
H29 C47 1_555 1_555
C48 C16 1_555 1_555
C49 C35 1_555 1_555
O12 C49 1_555 1_555
O13 C49 1_555 1_555
O14 H30 1_555 1_555
C50 C51 1_555 1_555
C51 H31 1_555 1_555
C52 C51 1_555 1_555
H32 C52 1_555 1_555
C53 C52 1_555 1_555
C54 C53 1_555 1_555
H33 C54 1_555 1_555
C55 C50 1_555 1_555
H34 C55 1_555 1_555
C56 C25 1_555 1_555
C57 C53 1_555 1_555
C58 C57 1_555 1_555
H35 C58 1_555 1_555
C59 C58 1_555 1_555
H36 C59 1_555 1_555
C60 C59 1_555 1_555
C61 C60 1_555 1_555
H37 C61 1_555 1_555
C62 C57 1_555 1_555
H38 C62 1_555 1_555
C63 C33 1_555 1_555
C64 C50 1_555 1_555
O15 C64 1_555 1_555
O16 C64 1_555 1_555
Zr3 O7 1_555 1_555
O17 Zr1 1_555 1_555
O18 Zr1 1_555 1_555
O19 Zr3 1_555 1_555
O20 Zr3 1_555 1_555
Zr4_2 O9 1_555 1_555
Zr5_2 O12 1_555 1_555
Zr6_4 O15 1_555 1_555
Zr7 O2 1_555 1_555
Zr8 O18 1_555 1_555
Zr9_2 O10 1_555 1_555
Zr10_2 O13 1_555 1_555
Zr11 O16 1_555 1_555
O21 Zr3 1_555 1_555
O22 Zr2 1_555 1_555
O23 Zr2 1_555 1_555
O24 Zr3 1_555 1_555
O25 Zr1 1_555 1_555
O26 Zr1 1_555 1_555
O27 Zr1 1_555 1_555
O28 Zr2 1_555 1_555
O29 Zr2 1_555 1_555
O30 Zr3 1_555 1_555
Zr2 O2 1_555 1_555
C5 C6 1_555 1_555
C12 C15 1_555 1_555
C13 C14 1_555 1_555
C17 O4 1_555 1_555
C22 C23 1_555 1_555
C24 C25 1_555 1_555
C29 C32 1_555 1_555
C30 C31 1_555 1_555
O11 C41 1_555 1_555
C39 C40 1_555 1_555
C41 C48 1_555 1_555
C45 C48 1_555 1_555
C46 C47 1_555 1_555
O14 C56 1_555 1_555
C54 C55 1_555 1_555
C56 C63 1_555 1_555
C60 C63 1_555 1_555
C61 C62 1_555 1_555
Zr3 O17 1_555 1_555
Zr3 O18 1_555 1_555
O17 Zr7 1_555 1_555
Zr7 O21 1_555 1_555
Zr7 O23 1_555 1_555
Zr8 O22 1_555 1_555
Zr8 O24 1_555 1_555
O3_2 H1_2 1_555 1_555
C1_2 C2_2 1_555 1_555
C2_2 H2_2 1_555 1_555
C3_2 C2_2 1_555 1_555
H3_2 C3_2 1_555 1_555
C4_2 C3_2 1_555 1_555
C5_2 C4_2 1_555 1_555
H4_2 C5_2 1_555 1_555
C6_2 C1_2 1_555 1_555
H5_2 C6_2 1_555 1_555
C7_2 O3_2 1_555 1_555
C8_2 C7_2 1_555 1_555
C9_2 C4_2 1_555 1_555
C10_2 C9_2 1_555 1_555
H6_2 C10_2 1_555 1_555
C11_2 C10_2 1_555 1_555
H7_2 C11_2 1_555 1_555
C12_2 C11_2 1_555 1_555
C13_2 C12_2 1_555 1_555
H8_2 C13_2 1_555 1_555
C14_2 C9_2 1_555 1_555
H9_2 C14_2 1_555 1_555
C15_2 C7_2 1_555 1_555
C16_2 C15_2 1_555 1_555
H10_2 C16_2 1_555 1_555
C17_2 C1_2 1_555 1_555
O28 C17_2 1_555 1_555
O8_2 H11_2 1_555 1_555
C18_2 C19_2 1_555 1_555
C19_2 H12_2 1_555 1_555
C20_2 C19_2 1_555 1_555
H13_2 C20_2 1_555 1_555
C21_2 C20_2 1_555 1_555
C22_2 C21_2 1_555 1_555
H14_2 C22_2 1_555 1_555
C23_2 C18_2 1_555 1_555
H15_2 C23_2 1_555 1_555
C24_2 O8_2 1_555 1_555
C25_2 C8_2 1_555 1_555
C26_2 C21_2 1_555 1_555
C27_2 C26_2 1_555 1_555
H16_2 C27_2 1_555 1_555
C28_2 C27_2 1_555 1_555
H17_2 C28_2 1_555 1_555
C29_2 C28_2 1_555 1_555
C30_2 C29_2 1_555 1_555
H18_2 C30_2 1_555 1_555
C31_2 C26_2 1_555 1_555
H19_2 C31_2 1_555 1_555
C32_2 C24_2 1_555 1_555
C33_2 C32_2 1_555 1_555
H20_2 C33_2 1_555 1_555
C34_2 C18_2 1_555 1_555
O9_2 C34_2 1_555 1_555
O10_2 C34_2 1_555 1_555
O11_2 H21_2 1_555 1_555
C35_2 C36_2 1_555 1_555
C36_2 H22_2 1_555 1_555
C37_2 C36_2 1_555 1_555
H23_2 C37_2 1_555 1_555
C38_2 C37_2 1_555 1_555
C39_2 C38_2 1_555 1_555
H24_2 C39_2 1_555 1_555
C40_2 C35_2 1_555 1_555
H25_2 C40_2 1_555 1_555
C41_2 C8_2 1_555 1_555
C42_2 C38_2 1_555 1_555
C43_2 C42_2 1_555 1_555
H26_2 C43_2 1_555 1_555
C44_2 C43_2 1_555 1_555
H27_2 C44_2 1_555 1_555
C45_2 C44_2 1_555 1_555
C46_2 C45_2 1_555 1_555
H28_2 C46_2 1_555 1_555
C47_2 C42_2 1_555 1_555
H29_2 C47_2 1_555 1_555
C48_2 C16_2 1_555 1_555
C49_2 C35_2 1_555 1_555
O12_2 C49_2 1_555 1_555
O13_2 C49_2 1_555 1_555
O14_2 H30_2 1_555 1_555
C50_2 C51_2 1_555 1_555
C51_2 H31_2 1_555 1_555
C52_2 C51_2 1_555 1_555
H32_2 C52_2 1_555 1_555
C53_2 C52_2 1_555 1_555
C54_2 C53_2 1_555 1_555
H33_2 C54_2 1_555 1_555
C55_2 C50_2 1_555 1_555
H34_2 C55_2 1_555 1_555
C56_2 C25_2 1_555 1_555
C57_2 C53_2 1_555 1_555
C58_2 C57_2 1_555 1_555
H35_2 C58_2 1_555 1_555
C59_2 C58_2 1_555 1_555
H36_2 C59_2 1_555 1_555
C60_2 C59_2 1_555 1_555
C61_2 C60_2 1_555 1_555
H37_2 C61_2 1_555 1_555
C62_2 C57_2 1_555 1_555
H38_2 C62_2 1_555 1_555
C63_2 C33_2 1_555 1_555
C64_2 C50_2 1_555 1_555
O15_2 C64_2 1_555 1_555
O16_2 C64_2 1_555 1_555
Zr4 O9_2 1_555 1_555
Zr5 O12_2 1_555 1_555
Zr6 O15_2 1_555 1_555
Zr9_4 O10_2 1_555 1_555
Zr10_4 O13_2 1_555 1_555
Zr11_2 O16_2 1_555 1_555
C5_2 C6_2 1_555 1_555
C12_2 C15_2 1_555 1_555
C13_2 C14_2 1_555 1_555
C17_2 O25 1_555 1_555
C22_2 C23_2 1_555 1_555
C24_2 C25_2 1_555 1_555
C29_2 C32_2 1_555 1_555
C30_2 C31_2 1_555 1_555
O11_2 C41_2 1_555 1_555
C39_2 C40_2 1_555 1_555
C41_2 C48_2 1_555 1_555
C45_2 C48_2 1_555 1_555
C46_2 C47_2 1_555 1_555
O14_2 C56_2 1_555 1_555
C54_2 C55_2 1_555 1_555
C56_2 C63_2 1_555 1_555
C60_2 C63_2 1_555 1_555
C61_2 C62_2 1_555 1_555
Zr1_2 O21 1_555 1_555
O23 Zr1_2 1_555 1_555
O3_3 H1_3 1_555 1_555
C1_3 C2_3 1_555 1_555
C2_3 H2_3 1_555 1_555
C3_3 C2_3 1_555 1_555
H3_3 C3_3 1_555 1_555
C4_3 C3_3 1_555 1_555
C5_3 C4_3 1_555 1_555
H4_3 C5_3 1_555 1_555
C6_3 C1_3 1_555 1_555
H5_3 C6_3 1_555 1_555
C7_3 O3_3 1_555 1_555
C8_3 C7_3 1_555 1_555
C9_3 C4_3 1_555 1_555
C10_3 C9_3 1_555 1_555
H6_3 C10_3 1_555 1_555
C11_3 C10_3 1_555 1_555
H7_3 C11_3 1_555 1_555
C12_3 C11_3 1_555 1_555
C13_3 C12_3 1_555 1_555
H8_3 C13_3 1_555 1_555
C14_3 C9_3 1_555 1_555
H9_3 C14_3 1_555 1_555
C15_3 C7_3 1_555 1_555
C16_3 C15_3 1_555 1_555
H10_3 C16_3 1_555 1_555
C17_3 C1_3 1_555 1_555
O4_2 Zr1_2 1_555 1_555
O5_2 Zr7 1_555 1_555
O6_2 Zr7 1_555 1_555
O7_2 C17_3 1_555 1_555
O8_3 H11_3 1_555 1_555
C18_3 C19_3 1_555 1_555
C19_3 H12_3 1_555 1_555
C20_3 C19_3 1_555 1_555
H13_3 C20_3 1_555 1_555
C21_3 C20_3 1_555 1_555
C22_3 C21_3 1_555 1_555
H14_3 C22_3 1_555 1_555
C23_3 C18_3 1_555 1_555
H15_3 C23_3 1_555 1_555
C24_3 O8_3 1_555 1_555
C25_3 C8_3 1_555 1_555
C26_3 C21_3 1_555 1_555
C27_3 C26_3 1_555 1_555
H16_3 C27_3 1_555 1_555
C28_3 C27_3 1_555 1_555
H17_3 C28_3 1_555 1_555
C29_3 C28_3 1_555 1_555
C30_3 C29_3 1_555 1_555
H18_3 C30_3 1_555 1_555
C31_3 C26_3 1_555 1_555
H19_3 C31_3 1_555 1_555
C32_3 C24_3 1_555 1_555
C33_3 C32_3 1_555 1_555
H20_3 C33_3 1_555 1_555
C34_3 C18_3 1_555 1_555
O9_3 C34_3 1_555 1_555
O10_3 C34_3 1_555 1_555
O11_3 H21_3 1_555 1_555
C35_3 C36_3 1_555 1_555
C36_3 H22_3 1_555 1_555
C37_3 C36_3 1_555 1_555
H23_3 C37_3 1_555 1_555
C38_3 C37_3 1_555 1_555
C39_3 C38_3 1_555 1_555
H24_3 C39_3 1_555 1_555
C40_3 C35_3 1_555 1_555
H25_3 C40_3 1_555 1_555
C41_3 C8_3 1_555 1_555
C42_3 C38_3 1_555 1_555
C43_3 C42_3 1_555 1_555
H26_3 C43_3 1_555 1_555
C44_3 C43_3 1_555 1_555
H27_3 C44_3 1_555 1_555
C45_3 C44_3 1_555 1_555
C46_3 C45_3 1_555 1_555
H28_3 C46_3 1_555 1_555
C47_3 C42_3 1_555 1_555
H29_3 C47_3 1_555 1_555
C48_3 C16_3 1_555 1_555
C49_3 C35_3 1_555 1_555
O12_3 C49_3 1_555 1_555
O13_3 C49_3 1_555 1_555
O14_3 H30_3 1_555 1_555
C50_3 C51_3 1_555 1_555
C51_3 H31_3 1_555 1_555
C52_3 C51_3 1_555 1_555
H32_3 C52_3 1_555 1_555
C53_3 C52_3 1_555 1_555
C54_3 C53_3 1_555 1_555
H33_3 C54_3 1_555 1_555
C55_3 C50_3 1_555 1_555
H34_3 C55_3 1_555 1_555
C56_3 C25_3 1_555 1_555
C57_3 C53_3 1_555 1_555
C58_3 C57_3 1_555 1_555
H35_3 C58_3 1_555 1_555
C59_3 C58_3 1_555 1_555
H36_3 C59_3 1_555 1_555
C60_3 C59_3 1_555 1_555
C61_3 C60_3 1_555 1_555
H37_3 C61_3 1_555 1_555
C62_3 C57_3 1_555 1_555
H38_3 C62_3 1_555 1_555
C63_3 C33_3 1_555 1_555
C64_3 C50_3 1_555 1_555
O15_3 C64_3 1_555 1_555
O16_3 C64_3 1_555 1_555
Zr8 O7_2 1_555 1_555
O22 Zr1_2 1_555 1_555
O24 Zr1_2 1_555 1_555
O19_2 Zr8 1_555 1_555
O20_2 Zr8 1_555 1_555
Zr4_4 O9_3 1_555 1_555
Zr5_3 O12_3 1_555 1_555
Zr6_6 O15_3 1_555 1_555
Zr9_5 O10_3 1_555 1_555
Zr10_5 O13_3 1_555 1_555
Zr11_3 O16_3 1_555 1_555
O25_2 Zr1_2 1_555 1_555
O26_2 Zr1_2 1_555 1_555
O27_2 Zr1_2 1_555 1_555
O28_2 Zr7 1_555 1_555
O29_2 Zr7 1_555 1_555
O30_2 Zr8 1_555 1_555
C5_3 C6_3 1_555 1_555
C12_3 C15_3 1_555 1_555
C13_3 C14_3 1_555 1_555
C17_3 O4_2 1_555 1_555
C22_3 C23_3 1_555 1_555
C24_3 C25_3 1_555 1_555
C29_3 C32_3 1_555 1_555
C30_3 C31_3 1_555 1_555
O11_3 C41_3 1_555 1_555
C39_3 C40_3 1_555 1_555
C41_3 C48_3 1_555 1_555
C45_3 C48_3 1_555 1_555
C46_3 C47_3 1_555 1_555
O14_3 C56_3 1_555 1_555
C54_3 C55_3 1_555 1_555
C56_3 C63_3 1_555 1_555
C60_3 C63_3 1_555 1_555
C61_3 C62_3 1_555 1_555
O3_4 H1_4 1_555 1_555
C1_4 C2_4 1_555 1_555
C2_4 H2_4 1_555 1_555
C3_4 C2_4 1_555 1_555
H3_4 C3_4 1_555 1_555
C4_4 C3_4 1_555 1_555
C5_4 C4_4 1_555 1_555
H4_4 C5_4 1_555 1_555
C6_4 C1_4 1_555 1_555
H5_4 C6_4 1_555 1_555
C7_4 O3_4 1_555 1_555
C8_4 C7_4 1_555 1_555
C9_4 C4_4 1_555 1_555
C10_4 C9_4 1_555 1_555
H6_4 C10_4 1_555 1_555
C11_4 C10_4 1_555 1_555
H7_4 C11_4 1_555 1_555
C12_4 C11_4 1_555 1_555
C13_4 C12_4 1_555 1_555
H8_4 C13_4 1_555 1_555
C14_4 C9_4 1_555 1_555
H9_4 C14_4 1_555 1_555
C15_4 C7_4 1_555 1_555
C16_4 C15_4 1_555 1_555
H10_4 C16_4 1_555 1_555
C17_4 C1_4 1_555 1_555
O28_2 C17_4 1_555 1_555
O8_4 H11_4 1_555 1_555
C18_4 C19_4 1_555 1_555
C19_4 H12_4 1_555 1_555
C20_4 C19_4 1_555 1_555
H13_4 C20_4 1_555 1_555
C21_4 C20_4 1_555 1_555
C22_4 C21_4 1_555 1_555
H14_4 C22_4 1_555 1_555
C23_4 C18_4 1_555 1_555
H15_4 C23_4 1_555 1_555
C24_4 O8_4 1_555 1_555
C25_4 C8_4 1_555 1_555
C26_4 C21_4 1_555 1_555
C27_4 C26_4 1_555 1_555
H16_4 C27_4 1_555 1_555
C28_4 C27_4 1_555 1_555
H17_4 C28_4 1_555 1_555
C29_4 C28_4 1_555 1_555
C30_4 C29_4 1_555 1_555
H18_4 C30_4 1_555 1_555
C31_4 C26_4 1_555 1_555
H19_4 C31_4 1_555 1_555
C32_4 C24_4 1_555 1_555
C33_4 C32_4 1_555 1_555
H20_4 C33_4 1_555 1_555
C34_4 C18_4 1_555 1_555
O9_4 C34_4 1_555 1_555
O10_4 C34_4 1_555 1_555
O11_4 H21_4 1_555 1_555
C35_4 C36_4 1_555 1_555
C36_4 H22_4 1_555 1_555
C37_4 C36_4 1_555 1_555
H23_4 C37_4 1_555 1_555
C38_4 C37_4 1_555 1_555
C39_4 C38_4 1_555 1_555
H24_4 C39_4 1_555 1_555
C40_4 C35_4 1_555 1_555
H25_4 C40_4 1_555 1_555
C41_4 C8_4 1_555 1_555
C42_4 C38_4 1_555 1_555
C43_4 C42_4 1_555 1_555
H26_4 C43_4 1_555 1_555
C44_4 C43_4 1_555 1_555
H27_4 C44_4 1_555 1_555
C45_4 C44_4 1_555 1_555
C46_4 C45_4 1_555 1_555
H28_4 C46_4 1_555 1_555
C47_4 C42_4 1_555 1_555
H29_4 C47_4 1_555 1_555
C48_4 C16_4 1_555 1_555
C49_4 C35_4 1_555 1_555
O12_4 C49_4 1_555 1_555
O13_4 C49_4 1_555 1_555
O14_4 H30_4 1_555 1_555
C50_4 C51_4 1_555 1_555
C51_4 H31_4 1_555 1_555
C52_4 C51_4 1_555 1_555
H32_4 C52_4 1_555 1_555
C53_4 C52_4 1_555 1_555
C54_4 C53_4 1_555 1_555
H33_4 C54_4 1_555 1_555
C55_4 C50_4 1_555 1_555
H34_4 C55_4 1_555 1_555
C56_4 C25_4 1_555 1_555
C57_4 C53_4 1_555 1_555
C58_4 C57_4 1_555 1_555
H35_4 C58_4 1_555 1_555
C59_4 C58_4 1_555 1_555
H36_4 C59_4 1_555 1_555
C60_4 C59_4 1_555 1_555
C61_4 C60_4 1_555 1_555
H37_4 C61_4 1_555 1_555
C62_4 C57_4 1_555 1_555
H38_4 C62_4 1_555 1_555
C63_4 C33_4 1_555 1_555
C64_4 C50_4 1_555 1_555
O15_4 C64_4 1_555 1_555
O16_4 C64_4 1_555 1_555
Zr4_3 O9_4 1_555 1_555
Zr5_4 O12_4 1_555 1_555
Zr6_7 O15_4 1_555 1_555
Zr9_7 O10_4 1_555 1_555
Zr10_7 O13_4 1_555 1_555
Zr11_4 O16_4 1_555 1_555
C5_4 C6_4 1_555 1_555
C12_4 C15_4 1_555 1_555
C13_4 C14_4 1_555 1_555
C17_4 O25_2 1_555 1_555
C22_4 C23_4 1_555 1_555
C24_4 C25_4 1_555 1_555
C29_4 C32_4 1_555 1_555
C30_4 C31_4 1_555 1_555
O11_4 C41_4 1_555 1_555
C39_4 C40_4 1_555 1_555
C41_4 C48_4 1_555 1_555
C45_4 C48_4 1_555 1_555
C46_4 C47_4 1_555 1_555
O14_4 C56_4 1_555 1_555
C54_4 C55_4 1_555 1_555
C56_4 C63_4 1_555 1_555
C60_4 C63_4 1_555 1_555
C61_4 C62_4 1_555 1_555
Zr4_3 O1_2 1_555 1_555
O1_2 Zr9_3 1_555 1_555
O17_2 Zr4_3 1_555 1_555
O18_2 Zr4_3 1_555 1_555
O19_3 Zr9_7 1_555 1_555
O20_3 Zr9_7 1_555 1_555
Zr9_3 O18_2 1_555 1_555
O27_3 Zr4_3 1_555 1_555
Zr9_7 O17_2 1_555 1_555
Zr9_7 O18_2 1_555 1_555
O19_4 Zr9_8 1_555 1_555
O20_4 Zr9_8 1_555 1_555
O21_2 Zr9_8 1_555 1_555
O24_2 Zr9_8 1_555 1_555
O30_3 Zr9_8 1_555 1_555
Zr9_4 O22_2 1_555 1_555
Zr9_4 O24_2 1_555 1_555
Zr4_4 O1_3 1_555 1_555
Zr9_5 O1_3 1_555 1_555
O2_2 Zr4_4 1_555 1_555
O5_3 Zr9_5 1_555 1_555
O6_3 Zr9_5 1_555 1_555
O17_3 Zr4_4 1_555 1_555
Zr9 O2_2 1_555 1_555
O26_3 Zr4_4 1_555 1_555
Zr9_5 O2_2 1_555 1_555
O17_3 Zr9 1_555 1_555
O5_4 Zr9_6 1_555 1_555
O6_4 Zr9_6 1_555 1_555
O22_3 Zr9_6 1_555 1_555
O23_2 Zr9_6 1_555 1_555
O29_3 Zr9_6 1_555 1_555
Zr9_2 O21_3 1_555 1_555
Zr9_2 O23_2 1_555 1_555
O19_5 Zr9_3 1_555 1_555
O20_5 Zr9_3 1_555 1_555
O30_4 Zr9_3 1_555 1_555
Zr4 O21_2 1_555 1_555
O22_2 Zr4 1_555 1_555
O24_2 Zr4 1_555 1_555
O19_6 Zr9_4 1_555 1_555
O20_6 Zr9_4 1_555 1_555
O27_4 Zr4 1_555 1_555
O5_5 Zr9 1_555 1_555
O6_5 Zr9 1_555 1_555
O29_4 Zr9 1_555 1_555
Zr4_2 O21_3 1_555 1_555
O23_2 Zr4_2 1_555 1_555
O5_6 Zr9_2 1_555 1_555
O6_6 Zr9_2 1_555 1_555
O22_3 Zr4_2 1_555 1_555
O26_4 Zr4_2 1_555 1_555
O2_3 Zr5_3 1_555 1_555
O17_4 Zr5_3 1_555 1_555
O18_3 Zr5_3 1_555 1_555
O19_7 Zr10_5 1_555 1_555
O20_7 Zr10_5 1_555 1_555
Zr10_3 O2_3 1_555 1_555
O26_5 Zr5_3 1_555 1_555
Zr10_5 O17_4 1_555 1_555
Zr10_5 O18_3 1_555 1_555
O17_4 Zr10_3 1_555 1_555
O19_8 Zr10_6 1_555 1_555
O20_8 Zr10_6 1_555 1_555
O21_4 Zr10_6 1_555 1_555
O24_3 Zr10_6 1_555 1_555
O30_5 Zr10_6 1_555 1_555
Zr10_4 O21_4 1_555 1_555
Zr10_4 O23_3 1_555 1_555
Zr5_4 O1_4 1_555 1_555
Zr10_7 O1_4 1_555 1_555
O1_4 Zr10 1_555 1_555
O2_4 Zr5_4 1_555 1_555
O5_7 Zr10_7 1_555 1_555
O6_7 Zr10_7 1_555 1_555
O18_4 Zr5_4 1_555 1_555
Zr10 O18_4 1_555 1_555
O27_5 Zr5_4 1_555 1_555
Zr10_7 O2_4 1_555 1_555
O5_8 Zr10_8 1_555 1_555
O6_8 Zr10_8 1_555 1_555
O22_4 Zr10_8 1_555 1_555
O23_4 Zr10_8 1_555 1_555
O29_5 Zr10_8 1_555 1_555
Zr10_2 O22_4 1_555 1_555
Zr10_2 O24_4 1_555 1_555
O5_9 Zr10_3 1_555 1_555
O6_9 Zr10_3 1_555 1_555
O29_6 Zr10_3 1_555 1_555
Zr5 O21_4 1_555 1_555
O23_3 Zr5 1_555 1_555
O5_10 Zr10_4 1_555 1_555
O6_10 Zr10_4 1_555 1_555
O24_3 Zr5 1_555 1_555
O27_6 Zr5 1_555 1_555
O19_9 Zr10 1_555 1_555
O20_9 Zr10 1_555 1_555
O30_6 Zr10 1_555 1_555
O23_4 Zr5_2 1_555 1_555
O22_4 Zr5_2 1_555 1_555
O24_4 Zr5_2 1_555 1_555
O19_10 Zr10_2 1_555 1_555
O20_10 Zr10_2 1_555 1_555
O26_6 Zr5_2 1_555 1_555
O17_5 Zr6 1_555 1_555
O18_5 Zr6 1_555 1_555
O19_11 Zr11_2 1_555 1_555
O20_11 Zr11_2 1_555 1_555
O21_5 Zr11_2 1_555 1_555
O24_5 Zr11_2 1_555 1_555
O30_7 Zr11_2 1_555 1_555
Zr11_2 O17_5 1_555 1_555
Zr11_2 O18_5 1_555 1_555
O2_5 Zr6_2 1_555 1_555
O17_6 Zr6_2 1_555 1_555
Zr11_3 O2_5 1_555 1_555
O26_7 Zr6_2 1_555 1_555
O17_6 Zr11_3 1_555 1_555
Zr11_3 O21_6 1_555 1_555
Zr11_3 O23_5 1_555 1_555
Zr6_3 O1_5 1_555 1_555
O1_5 Zr11_4 1_555 1_555
O18_6 Zr6_3 1_555 1_555
Zr11_4 O18_6 1_555 1_555
O27_7 Zr6_3 1_555 1_555
Zr11_4 O22_5 1_555 1_555
Zr11_4 O24_6 1_555 1_555
Zr6_4 O1_6 1_555 1_555
Zr11 O1_6 1_555 1_555
O2_6 Zr6_4 1_555 1_555
O5_11 Zr11 1_555 1_555
O6_11 Zr11 1_555 1_555
O22_6 Zr11 1_555 1_555
O23_6 Zr11 1_555 1_555
O29_7 Zr11 1_555 1_555
Zr11 O2_6 1_555 1_555
Zr6_5 O21_5 1_555 1_555
O24_5 Zr6_5 1_555 1_555
O27_8 Zr6_5 1_555 1_555
Zr6_6 O21_6 1_555 1_555
O23_5 Zr6_6 1_555 1_555
O5_12 Zr11_3 1_555 1_555
O6_12 Zr11_3 1_555 1_555
O29_8 Zr11_3 1_555 1_555
O22_5 Zr6_7 1_555 1_555
O24_6 Zr6_7 1_555 1_555
O19_12 Zr11_4 1_555 1_555
O20_12 Zr11_4 1_555 1_555
O30_8 Zr11_4 1_555 1_555
O23_6 Zr6_8 1_555 1_555
O22_6 Zr6_8 1_555 1_555
O26_8 Zr6_8 1_555 1_555
O3_5 H1_5 1_555 1_555
C1_5 C2_5 1_555 1_555
C2_5 H2_5 1_555 1_555
C3_5 C2_5 1_555 1_555
H3_5 C3_5 1_555 1_555
C4_5 C3_5 1_555 1_555
C5_5 C4_5 1_555 1_555
H4_5 C5_5 1_555 1_555
C6_5 C1_5 1_555 1_555
H5_5 C6_5 1_555 1_555
C7_5 O3_5 1_555 1_555
C8_5 C7_5 1_555 1_555
C9_5 C4_5 1_555 1_555
C10_5 C9_5 1_555 1_555
H6_5 C10_5 1_555 1_555
C11_5 C10_5 1_555 1_555
H7_5 C11_5 1_555 1_555
C12_5 C11_5 1_555 1_555
C13_5 C12_5 1_555 1_555
H8_5 C13_5 1_555 1_555
C14_5 C9_5 1_555 1_555
H9_5 C14_5 1_555 1_555
C15_5 C7_5 1_555 1_555
C16_5 C15_5 1_555 1_555
H10_5 C16_5 1_555 1_555
C17_5 C1_5 1_555 1_555
O29 C17_5 1_555 1_555
O8_5 H11_5 1_555 1_555
C18_5 C19_5 1_555 1_555
C19_5 H12_5 1_555 1_555
C20_5 C19_5 1_555 1_555
H13_5 C20_5 1_555 1_555
C21_5 C20_5 1_555 1_555
C22_5 C21_5 1_555 1_555
H14_5 C22_5 1_555 1_555
C23_5 C18_5 1_555 1_555
H15_5 C23_5 1_555 1_555
C24_5 O8_5 1_555 1_555
C25_5 C8_5 1_555 1_555
C26_5 C21_5 1_555 1_555
C27_5 C26_5 1_555 1_555
H16_5 C27_5 1_555 1_555
C28_5 C27_5 1_555 1_555
H17_5 C28_5 1_555 1_555
C29_5 C28_5 1_555 1_555
C30_5 C29_5 1_555 1_555
H18_5 C30_5 1_555 1_555
C31_5 C26_5 1_555 1_555
H19_5 C31_5 1_555 1_555
C32_5 C24_5 1_555 1_555
C33_5 C32_5 1_555 1_555
H20_5 C33_5 1_555 1_555
C34_5 C18_5 1_555 1_555
O27_3 C34_5 1_555 1_555
O30_4 C34_5 1_555 1_555
O11_5 H21_5 1_555 1_555
C35_5 C36_5 1_555 1_555
C36_5 H22_5 1_555 1_555
C37_5 C36_5 1_555 1_555
H23_5 C37_5 1_555 1_555
C38_5 C37_5 1_555 1_555
C39_5 C38_5 1_555 1_555
H24_5 C39_5 1_555 1_555
C40_5 C35_5 1_555 1_555
H25_5 C40_5 1_555 1_555
C41_5 C8_5 1_555 1_555
C42_5 C38_5 1_555 1_555
C43_5 C42_5 1_555 1_555
H26_5 C43_5 1_555 1_555
C44_5 C43_5 1_555 1_555
H27_5 C44_5 1_555 1_555
C45_5 C44_5 1_555 1_555
C46_5 C45_5 1_555 1_555
H28_5 C46_5 1_555 1_555
C47_5 C42_5 1_555 1_555
H29_5 C47_5 1_555 1_555
C48_5 C16_5 1_555 1_555
C49_5 C35_5 1_555 1_555
O26_5 C49_5 1_555 1_555
O29_6 C49_5 1_555 1_555
O14_5 H30_5 1_555 1_555
C50_5 C51_5 1_555 1_555
C51_5 H31_5 1_555 1_555
C52_5 C51_5 1_555 1_555
H32_5 C52_5 1_555 1_555
C53_5 C52_5 1_555 1_555
C54_5 C53_5 1_555 1_555
H33_5 C54_5 1_555 1_555
C55_5 C50_5 1_555 1_555
H34_5 C55_5 1_555 1_555
C56_5 C25_5 1_555 1_555
C57_5 C53_5 1_555 1_555
C58_5 C57_5 1_555 1_555
H35_5 C58_5 1_555 1_555
C59_5 C58_5 1_555 1_555
H36_5 C59_5 1_555 1_555
C60_5 C59_5 1_555 1_555
C61_5 C60_5 1_555 1_555
H37_5 C61_5 1_555 1_555
C62_5 C57_5 1_555 1_555
H38_5 C62_5 1_555 1_555
C63_5 C33_5 1_555 1_555
C64_5 C50_5 1_555 1_555
O27_8 C64_5 1_555 1_555
O30_7 C64_5 1_555 1_555
C5_5 C6_5 1_555 1_555
C12_5 C15_5 1_555 1_555
C13_5 C14_5 1_555 1_555
C17_5 O26_2 1_555 1_555
C22_5 C23_5 1_555 1_555
C24_5 C25_5 1_555 1_555
C29_5 C32_5 1_555 1_555
C30_5 C31_5 1_555 1_555
O11_5 C41_5 1_555 1_555
C39_5 C40_5 1_555 1_555
C41_5 C48_5 1_555 1_555
C45_5 C48_5 1_555 1_555
C46_5 C47_5 1_555 1_555
O14_5 C56_5 1_555 1_555
C54_5 C55_5 1_555 1_555
C56_5 C63_5 1_555 1_555
C60_5 C63_5 1_555 1_555
C61_5 C62_5 1_555 1_555
O3_6 H1_6 1_555 1_555
C1_6 C2_6 1_555 1_555
C2_6 H2_6 1_555 1_555
C3_6 C2_6 1_555 1_555
H3_6 C3_6 1_555 1_555
C4_6 C3_6 1_555 1_555
C5_6 C4_6 1_555 1_555
H4_6 C5_6 1_555 1_555
C6_6 C1_6 1_555 1_555
H5_6 C6_6 1_555 1_555
C7_6 O3_6 1_555 1_555
C8_6 C7_6 1_555 1_555
C9_6 C4_6 1_555 1_555
C10_6 C9_6 1_555 1_555
H6_6 C10_6 1_555 1_555
C11_6 C10_6 1_555 1_555
H7_6 C11_6 1_555 1_555
C12_6 C11_6 1_555 1_555
C13_6 C12_6 1_555 1_555
H8_6 C13_6 1_555 1_555
C14_6 C9_6 1_555 1_555
H9_6 C14_6 1_555 1_555
C15_6 C7_6 1_555 1_555
C16_6 C15_6 1_555 1_555
H10_6 C16_6 1_555 1_555
C17_6 C1_6 1_555 1_555
O30 C17_6 1_555 1_555
O8_6 H11_6 1_555 1_555
C18_6 C19_6 1_555 1_555
C19_6 H12_6 1_555 1_555
C20_6 C19_6 1_555 1_555
H13_6 C20_6 1_555 1_555
C21_6 C20_6 1_555 1_555
C22_6 C21_6 1_555 1_555
H14_6 C22_6 1_555 1_555
C23_6 C18_6 1_555 1_555
H15_6 C23_6 1_555 1_555
C24_6 O8_6 1_555 1_555
C25_6 C8_6 1_555 1_555
C26_6 C21_6 1_555 1_555
C27_6 C26_6 1_555 1_555
H16_6 C27_6 1_555 1_555
C28_6 C27_6 1_555 1_555
H17_6 C28_6 1_555 1_555
C29_6 C28_6 1_555 1_555
C30_6 C29_6 1_555 1_555
H18_6 C30_6 1_555 1_555
C31_6 C26_6 1_555 1_555
H19_6 C31_6 1_555 1_555
C32_6 C24_6 1_555 1_555
C33_6 C32_6 1_555 1_555
H20_6 C33_6 1_555 1_555
C34_6 C18_6 1_555 1_555
O26_3 C34_6 1_555 1_555
O29_4 C34_6 1_555 1_555
O11_6 H21_6 1_555 1_555
C35_6 C36_6 1_555 1_555
C36_6 H22_6 1_555 1_555
C37_6 C36_6 1_555 1_555
H23_6 C37_6 1_555 1_555
C38_6 C37_6 1_555 1_555
C39_6 C38_6 1_555 1_555
H24_6 C39_6 1_555 1_555
C40_6 C35_6 1_555 1_555
H25_6 C40_6 1_555 1_555
C41_6 C8_6 1_555 1_555
C42_6 C38_6 1_555 1_555
C43_6 C42_6 1_555 1_555
H26_6 C43_6 1_555 1_555
C44_6 C43_6 1_555 1_555
H27_6 C44_6 1_555 1_555
C45_6 C44_6 1_555 1_555
C46_6 C45_6 1_555 1_555
H28_6 C46_6 1_555 1_555
C47_6 C42_6 1_555 1_555
H29_6 C47_6 1_555 1_555
C48_6 C16_6 1_555 1_555
C49_6 C35_6 1_555 1_555
O27_5 C49_6 1_555 1_555
O30_6 C49_6 1_555 1_555
O14_6 H30_6 1_555 1_555
C50_6 C51_6 1_555 1_555
C51_6 H31_6 1_555 1_555
C52_6 C51_6 1_555 1_555
H32_6 C52_6 1_555 1_555
C53_6 C52_6 1_555 1_555
C54_6 C53_6 1_555 1_555
H33_6 C54_6 1_555 1_555
C55_6 C50_6 1_555 1_555
H34_6 C55_6 1_555 1_555
C56_6 C25_6 1_555 1_555
C57_6 C53_6 1_555 1_555
C58_6 C57_6 1_555 1_555
H35_6 C58_6 1_555 1_555
C59_6 C58_6 1_555 1_555
H36_6 C59_6 1_555 1_555
C60_6 C59_6 1_555 1_555
C61_6 C60_6 1_555 1_555
H37_6 C61_6 1_555 1_555
C62_6 C57_6 1_555 1_555
H38_6 C62_6 1_555 1_555
C63_6 C33_6 1_555 1_555
C64_6 C50_6 1_555 1_555
O26_8 C64_6 1_555 1_555
O29_7 C64_6 1_555 1_555
C5_6 C6_6 1_555 1_555
C12_6 C15_6 1_555 1_555
C13_6 C14_6 1_555 1_555
C17_6 O27_2 1_555 1_555
C22_6 C23_6 1_555 1_555
C24_6 C25_6 1_555 1_555
C29_6 C32_6 1_555 1_555
C30_6 C31_6 1_555 1_555
O11_6 C41_6 1_555 1_555
C39_6 C40_6 1_555 1_555
C41_6 C48_6 1_555 1_555
C45_6 C48_6 1_555 1_555
C46_6 C47_6 1_555 1_555
O14_6 C56_6 1_555 1_555
C54_6 C55_6 1_555 1_555
C56_6 C63_6 1_555 1_555
C60_6 C63_6 1_555 1_555
C61_6 C62_6 1_555 1_555
O3_7 H1_7 1_555 1_555
C1_7 C2_7 1_555 1_555
C2_7 H2_7 1_555 1_555
C3_7 C2_7 1_555 1_555
H3_7 C3_7 1_555 1_555
C4_7 C3_7 1_555 1_555
C5_7 C4_7 1_555 1_555
H4_7 C5_7 1_555 1_555
C6_7 C1_7 1_555 1_555
H5_7 C6_7 1_555 1_555
C7_7 O3_7 1_555 1_555
C8_7 C7_7 1_555 1_555
C9_7 C4_7 1_555 1_555
C10_7 C9_7 1_555 1_555
H6_7 C10_7 1_555 1_555
C11_7 C10_7 1_555 1_555
H7_7 C11_7 1_555 1_555
C12_7 C11_7 1_555 1_555
C13_7 C12_7 1_555 1_555
H8_7 C13_7 1_555 1_555
C14_7 C9_7 1_555 1_555
H9_7 C14_7 1_555 1_555
C15_7 C7_7 1_555 1_555
C16_7 C15_7 1_555 1_555
H10_7 C16_7 1_555 1_555
C17_7 C1_7 1_555 1_555
O29_2 C17_7 1_555 1_555
O8_7 H11_7 1_555 1_555
C18_7 C19_7 1_555 1_555
C19_7 H12_7 1_555 1_555
C20_7 C19_7 1_555 1_555
H13_7 C20_7 1_555 1_555
C21_7 C20_7 1_555 1_555
C22_7 C21_7 1_555 1_555
H14_7 C22_7 1_555 1_555
C23_7 C18_7 1_555 1_555
H15_7 C23_7 1_555 1_555
C24_7 O8_7 1_555 1_555
C25_7 C8_7 1_555 1_555
C26_7 C21_7 1_555 1_555
C27_7 C26_7 1_555 1_555
H16_7 C27_7 1_555 1_555
C28_7 C27_7 1_555 1_555
H17_7 C28_7 1_555 1_555
C29_7 C28_7 1_555 1_555
C30_7 C29_7 1_555 1_555
H18_7 C30_7 1_555 1_555
C31_7 C26_7 1_555 1_555
H19_7 C31_7 1_555 1_555
C32_7 C24_7 1_555 1_555
C33_7 C32_7 1_555 1_555
H20_7 C33_7 1_555 1_555
C34_7 C18_7 1_555 1_555
O27_4 C34_7 1_555 1_555
O30_3 C34_7 1_555 1_555
O11_7 H21_7 1_555 1_555
C35_7 C36_7 1_555 1_555
C36_7 H22_7 1_555 1_555
C37_7 C36_7 1_555 1_555
H23_7 C37_7 1_555 1_555
C38_7 C37_7 1_555 1_555
C39_7 C38_7 1_555 1_555
H24_7 C39_7 1_555 1_555
C40_7 C35_7 1_555 1_555
H25_7 C40_7 1_555 1_555
C41_7 C8_7 1_555 1_555
C42_7 C38_7 1_555 1_555
C43_7 C42_7 1_555 1_555
H26_7 C43_7 1_555 1_555
C44_7 C43_7 1_555 1_555
H27_7 C44_7 1_555 1_555
C45_7 C44_7 1_555 1_555
C46_7 C45_7 1_555 1_555
H28_7 C46_7 1_555 1_555
C47_7 C42_7 1_555 1_555
H29_7 C47_7 1_555 1_555
C48_7 C16_7 1_555 1_555
C49_7 C35_7 1_555 1_555
O26_6 C49_7 1_555 1_555
O29_5 C49_7 1_555 1_555
O14_7 H30_7 1_555 1_555
C50_7 C51_7 1_555 1_555
C51_7 H31_7 1_555 1_555
C52_7 C51_7 1_555 1_555
H32_7 C52_7 1_555 1_555
C53_7 C52_7 1_555 1_555
C54_7 C53_7 1_555 1_555
H33_7 C54_7 1_555 1_555
C55_7 C50_7 1_555 1_555
H34_7 C55_7 1_555 1_555
C56_7 C25_7 1_555 1_555
C57_7 C53_7 1_555 1_555
C58_7 C57_7 1_555 1_555
H35_7 C58_7 1_555 1_555
C59_7 C58_7 1_555 1_555
H36_7 C59_7 1_555 1_555
C60_7 C59_7 1_555 1_555
C61_7 C60_7 1_555 1_555
H37_7 C61_7 1_555 1_555
C62_7 C57_7 1_555 1_555
H38_7 C62_7 1_555 1_555
C63_7 C33_7 1_555 1_555
C64_7 C50_7 1_555 1_555
O27_7 C64_7 1_555 1_555
O30_8 C64_7 1_555 1_555
C5_7 C6_7 1_555 1_555
C12_7 C15_7 1_555 1_555
C13_7 C14_7 1_555 1_555
C17_7 O26 1_555 1_555
C22_7 C23_7 1_555 1_555
C24_7 C25_7 1_555 1_555
C29_7 C32_7 1_555 1_555
C30_7 C31_7 1_555 1_555
O11_7 C41_7 1_555 1_555
C39_7 C40_7 1_555 1_555
C41_7 C48_7 1_555 1_555
C45_7 C48_7 1_555 1_555
C46_7 C47_7 1_555 1_555
O14_7 C56_7 1_555 1_555
C54_7 C55_7 1_555 1_555
C56_7 C63_7 1_555 1_555
C60_7 C63_7 1_555 1_555
C61_7 C62_7 1_555 1_555
O3_8 H1_8 1_555 1_555
C1_8 C2_8 1_555 1_555
C2_8 H2_8 1_555 1_555
C3_8 C2_8 1_555 1_555
H3_8 C3_8 1_555 1_555
C4_8 C3_8 1_555 1_555
C5_8 C4_8 1_555 1_555
H4_8 C5_8 1_555 1_555
C6_8 C1_8 1_555 1_555
H5_8 C6_8 1_555 1_555
C7_8 O3_8 1_555 1_555
C8_8 C7_8 1_555 1_555
C9_8 C4_8 1_555 1_555
C10_8 C9_8 1_555 1_555
H6_8 C10_8 1_555 1_555
C11_8 C10_8 1_555 1_555
H7_8 C11_8 1_555 1_555
C12_8 C11_8 1_555 1_555
C13_8 C12_8 1_555 1_555
H8_8 C13_8 1_555 1_555
C14_8 C9_8 1_555 1_555
H9_8 C14_8 1_555 1_555
C15_8 C7_8 1_555 1_555
C16_8 C15_8 1_555 1_555
H10_8 C16_8 1_555 1_555
C17_8 C1_8 1_555 1_555
O30_2 C17_8 1_555 1_555
O8_8 H11_8 1_555 1_555
C18_8 C19_8 1_555 1_555
C19_8 H12_8 1_555 1_555
C20_8 C19_8 1_555 1_555
H13_8 C20_8 1_555 1_555
C21_8 C20_8 1_555 1_555
C22_8 C21_8 1_555 1_555
H14_8 C22_8 1_555 1_555
C23_8 C18_8 1_555 1_555
H15_8 C23_8 1_555 1_555
C24_8 O8_8 1_555 1_555
C25_8 C8_8 1_555 1_555
C26_8 C21_8 1_555 1_555
C27_8 C26_8 1_555 1_555
H16_8 C27_8 1_555 1_555
C28_8 C27_8 1_555 1_555
H17_8 C28_8 1_555 1_555
C29_8 C28_8 1_555 1_555
C30_8 C29_8 1_555 1_555
H18_8 C30_8 1_555 1_555
C31_8 C26_8 1_555 1_555
H19_8 C31_8 1_555 1_555
C32_8 C24_8 1_555 1_555
C33_8 C32_8 1_555 1_555
H20_8 C33_8 1_555 1_555
C34_8 C18_8 1_555 1_555
O26_4 C34_8 1_555 1_555
O29_3 C34_8 1_555 1_555
O11_8 H21_8 1_555 1_555
C35_8 C36_8 1_555 1_555
C36_8 H22_8 1_555 1_555
C37_8 C36_8 1_555 1_555
H23_8 C37_8 1_555 1_555
C38_8 C37_8 1_555 1_555
C39_8 C38_8 1_555 1_555
H24_8 C39_8 1_555 1_555
C40_8 C35_8 1_555 1_555
H25_8 C40_8 1_555 1_555
C41_8 C8_8 1_555 1_555
C42_8 C38_8 1_555 1_555
C43_8 C42_8 1_555 1_555
H26_8 C43_8 1_555 1_555
C44_8 C43_8 1_555 1_555
H27_8 C44_8 1_555 1_555
C45_8 C44_8 1_555 1_555
C46_8 C45_8 1_555 1_555
H28_8 C46_8 1_555 1_555
C47_8 C42_8 1_555 1_555
H29_8 C47_8 1_555 1_555
C48_8 C16_8 1_555 1_555
C49_8 C35_8 1_555 1_555
O27_6 C49_8 1_555 1_555
O30_5 C49_8 1_555 1_555
O14_8 H30_8 1_555 1_555
C50_8 C51_8 1_555 1_555
C51_8 H31_8 1_555 1_555
C52_8 C51_8 1_555 1_555
H32_8 C52_8 1_555 1_555
C53_8 C52_8 1_555 1_555
C54_8 C53_8 1_555 1_555
H33_8 C54_8 1_555 1_555
C55_8 C50_8 1_555 1_555
H34_8 C55_8 1_555 1_555
C56_8 C25_8 1_555 1_555
C57_8 C53_8 1_555 1_555
C58_8 C57_8 1_555 1_555
H35_8 C58_8 1_555 1_555
C59_8 C58_8 1_555 1_555
H36_8 C59_8 1_555 1_555
C60_8 C59_8 1_555 1_555
C61_8 C60_8 1_555 1_555
H37_8 C61_8 1_555 1_555
C62_8 C57_8 1_555 1_555
H38_8 C62_8 1_555 1_555
C63_8 C33_8 1_555 1_555
C64_8 C50_8 1_555 1_555
O26_7 C64_8 1_555 1_555
O29_8 C64_8 1_555 1_555
C5_8 C6_8 1_555 1_555
C12_8 C15_8 1_555 1_555
C13_8 C14_8 1_555 1_555
C17_8 O27 1_555 1_555
C22_8 C23_8 1_555 1_555
C24_8 C25_8 1_555 1_555
C29_8 C32_8 1_555 1_555
C30_8 C31_8 1_555 1_555
O11_8 C41_8 1_555 1_555
C39_8 C40_8 1_555 1_555
C41_8 C48_8 1_555 1_555
C45_8 C48_8 1_555 1_555
C46_8 C47_8 1_555 1_555
O14_8 C56_8 1_555 1_555
C54_8 C55_8 1_555 1_555
C56_8 C63_8 1_555 1_555
C60_8 C63_8 1_555 1_555
C61_8 C62_8 1_555 1_555

#END
