
###############################################################################
#
# This file contains modified crystal structure data generated from the
# MOF subset of the Cambridge Structural Database (CSD) v543 
# hosted by the Cambridge Crystallographic Data Centre (CCDC).
#
# This work is licensed under the Creative Commons
# Attribution-NonCommercial-ShareAlike 4.0 International License.
# To view a copy of this license, visit
# http://creativecommons.org/licenses/by-nc-sa/4.0/
# or send a letter to
# Creative Commons, PO Box 1866, Mountain View, CA 94042, USA.
#
# CIF created using the CSD Python API on 29 September 2022
# The structure has been converted into the P1 space group
# The structure has a 3D framework
# The original CSD entry PUYTAG is in the tetragonal crystal system
# The framework has been calculated to contain at least 10.0% void space
# The void calculation uses a probe of radius 1.32A, grid spacing 0.4
#
###############################################################################

data_PUYTAG
_chemical_formula_moiety         '(C100 H128 N16 O16 Zn8)n'
_symmetry_cell_setting           triclinic
_symmetry_space_group_name_H-M   'P 1'
_symmetry_Int_Tables_number      1
_space_group_name_Hall           'P 1'
loop_
_symmetry_equiv_pos_site_id
_symmetry_equiv_pos_as_xyz
1 x,y,z
_cell_length_a                   17.1627(10)
_cell_length_b                   17.1627(10)
_cell_length_c                   12.407(2)
_cell_angle_alpha                90
_cell_angle_beta                 90
_cell_angle_gamma                90
_cell_volume                     3654.58
loop_
_atom_site_label
_atom_site_type_symbol
_atom_site_fract_x
_atom_site_fract_y
_atom_site_fract_z
Zn1 Zn 0.0000 0.5000 0.5000
O2 O 0.0475(2) 0.3811(3) 0.2797(3)
C13 C 0.0633(3) 0.6384(3) 0.3765(5)
H15 H 0.0741 0.6651 0.4456
H16 H 0.0555 0.6788 0.3206
N3 N 0.1141(2) 0.4700(2) 0.4590(3)
H29 H 0.1106 0.4371 0.3926
N4 N 0.0071(2) 0.4072(2) 0.6129(3)
H30 H 0.0188 0.4305 0.6851
C35 C 0.1414(3) 0.4189(3) 0.5455(5)
H31 H 0.1874 0.3891 0.5208
H32 H 0.1570 0.4506 0.6086
C36 C 0.1660(3) 0.5366(3) 0.4320(4)
H33 H 0.1750 0.5679 0.4979
H34 H 0.2169 0.5162 0.4076
C37 C 0.1330(3) 0.5882(4) 0.3462(5)
H35 H 0.1751 0.6232 0.3208
H36 H 0.1178 0.5550 0.2845
C38 C 0.0776(3) 0.3634(3) 0.5775(5)
H37 H 0.0961 0.3296 0.6370
H38 H 0.0642 0.3296 0.5155
O9 O 0.05053(18) 0.57679(18) 0.6230(3)
Zn2 Zn 0.5000 1.0000 0.5000
N5 N 0.6141(2) 0.9700(2) 0.5410(3)
H41 H 0.6106 0.9371 0.6074
N6 N 0.5071(2) 0.9072(2) 0.3871(3)
H42 H 0.5188 0.9305 0.3149
C40 C 0.6414(3) 0.9189(3) 0.4545(5)
H43 H 0.6874 0.8891 0.4792
H44 H 0.6570 0.9506 0.3914
C43 C 0.5776(3) 0.8634(3) 0.4225(5)
H49 H 0.5961 0.8296 0.3630
H50 H 0.5642 0.8296 0.4845
C44 C 0.4367(3) 0.8616(3) 0.3765(5)
H51 H 0.4259 0.8349 0.4456
H52 H 0.4445 0.8212 0.3206
C46 C 0.3340(3) 0.9634(3) 0.4320(4)
H57 H 0.3250 0.9321 0.4979
H58 H 0.2831 0.9838 0.4076
C47 C 0.3670(3) 0.9118(4) 0.3462(5)
H59 H 0.3249 0.8768 0.3208
H60 H 0.3822 0.9450 0.2845
O10 O 0.44947(18) 0.92321(18) 0.6230(3)
C1 C 0.2500 0.7500 1.0000
C21 C 0.3129(2) 0.7858(2) 0.9245(3)
O6 O 0.5475(2) 0.8811(3) 0.7203(3)
C22 C 0.4201(2) 0.8521(2) 0.7800(3)
C23 C 0.3422(2) 0.8671(2) 0.7704(3)
H21 H 0.3242 0.9004 0.7144
C24 C 0.2895(2) 0.8345(2) 0.8410(3)
H22 H 0.2356 0.8455 0.8325
C25 C 0.4795(3) 0.8894(3) 0.6991(4)
C26 C 0.3914(3) 0.7699(2) 0.9337(3)
H23 H 0.4093 0.7359 0.9888
C27 C 0.4448(2) 0.8036(3) 0.8622(4)
H24 H 0.4988 0.7931 0.8703
C28 C 0.1871(2) 0.7142(2) 0.9245(3)
C29 C 0.0799(2) 0.6479(2) 0.7800(3)
C30 C 0.1578(2) 0.6329(2) 0.7704(3)
H25 H 0.1758 0.5996 0.7144
C31 C 0.2105(2) 0.6655(2) 0.8410(3)
H26 H 0.2644 0.6545 0.8325
C32 C 0.0205(3) 0.6106(3) 0.6991(4)
C33 C 0.1086(3) 0.7301(2) 0.9337(3)
H27 H 0.0907 0.7641 0.9888
C34 C 0.0552(2) 0.6964(3) 0.8622(4)
H28 H 0.0012 0.7069 0.8703
Zn3 Zn 0.0000 0.0000 0.5000
O2_2 O 0.1189(3) 0.0475(2) 0.2797(3)
N3_2 N 0.0300(2) 0.1141(2) 0.4590(3)
H29_2 H 0.0629 0.1106 0.3926
N4_2 N 0.0928(2) 0.0071(2) 0.6129(3)
H30_2 H 0.0695 0.0188 0.6851
C35_2 C 0.0811(3) 0.1414(3) 0.5455(5)
H31_2 H 0.1109 0.1874 0.5208
H32_2 H 0.0494 0.1570 0.6086
C38_2 C 0.1366(3) 0.0776(3) 0.5775(5)
H37_2 H 0.1704 0.0961 0.6370
H38_2 H 0.1704 0.0642 0.5155
Zn3_2 Zn -0.0000 1.0000 0.5000
C1_2 C 0.7500 0.2500 1.0000
O5 O 0.92321(18) 0.05053(18) 0.6230(3)
C21_2 C 0.7858(2) 0.1871(2) 0.9245(3)
C22_2 C 0.8521(2) 0.0799(2) 0.7800(3)
C23_2 C 0.8671(2) 0.1578(2) 0.7704(3)
H21_2 H 0.9004 0.1758 0.7144
C24_2 C 0.8345(2) 0.2105(2) 0.8410(3)
H22_2 H 0.8455 0.2644 0.8325
C25_2 C 0.8894(3) 0.0205(3) 0.6991(4)
C26_2 C 0.7699(2) 0.1086(3) 0.9337(3)
H23_2 H 0.7359 0.0907 0.9888
C27_2 C 0.8036(3) 0.0552(2) 0.8622(4)
H24_2 H 0.7931 0.0012 0.8703
O7 O 0.57679(18) 0.44947(18) 0.6230(3)
C28_2 C 0.7142(2) 0.3129(2) 0.9245(3)
O8 O 0.6189(3) 0.5475(2) 0.7203(3)
C29_2 C 0.6479(2) 0.4201(2) 0.7800(3)
C30_2 C 0.6329(2) 0.3422(2) 0.7704(3)
H25_2 H 0.5996 0.3242 0.7144
C31_2 C 0.6655(2) 0.2895(2) 0.8410(3)
H26_2 H 0.6545 0.2356 0.8325
C32_2 C 0.6106(3) 0.4795(3) 0.6991(4)
C33_2 C 0.7301(2) 0.3914(3) 0.9337(3)
H27_2 H 0.7641 0.4093 0.9888
C34_2 C 0.6964(3) 0.4448(2) 0.8622(4)
H28_2 H 0.7069 0.4988 0.8703
Zn3_3 Zn 1.0000 0.0000 0.5000
Zn4 Zn 0.5000 0.5000 0.5000
O1 O 0.07679(18) 0.94947(18) 0.3770(3)
C1_3 C 0.2500 0.7500 0.0000
C2 C 0.2142(2) 0.8129(2) 0.0755(3)
C3 C 0.1479(2) 0.9201(2) 0.2200(3)
C4 C 0.1329(2) 0.8422(2) 0.2296(3)
H2 H 0.0996 0.8242 0.2856
C5 C 0.1655(2) 0.7895(2) 0.1590(3)
H3 H 0.1545 0.7356 0.1675
C6 C 0.1106(3) 0.9795(3) 0.3009(4)
C7 C 0.2301(2) 0.8914(3) 0.0663(3)
H5 H 0.2641 0.9093 0.0112
C8 C 0.1964(3) 0.9448(2) 0.1378(4)
H6 H 0.2069 0.9988 0.1297
C10 C 0.0366(3) 0.8340(3) 0.5680(4)
H9 H 0.0679 0.8250 0.5021
H10 H 0.0162 0.7831 0.5924
C11 C 0.0882(4) 0.8670(3) 0.6538(5)
H11 H 0.1232 0.8249 0.6792
H12 H 0.0550 0.8822 0.7155
O3 O 0.42321(18) 0.55053(18) 0.3770(3)
C14 C 0.2858(2) 0.6871(2) 0.0755(3)
O4 O 0.3811(3) 0.4525(2) 0.2797(3)
C15 C 0.3521(2) 0.5799(2) 0.2200(3)
C16 C 0.3671(2) 0.6578(2) 0.2296(3)
H17 H 0.4004 0.6758 0.2856
C17 C 0.3345(2) 0.7105(2) 0.1590(3)
H18 H 0.3455 0.7644 0.1675
C18 C 0.3894(3) 0.5205(3) 0.3009(4)
C19 C 0.2699(2) 0.6086(3) 0.0663(3)
H19 H 0.2359 0.5907 0.0112
C20 C 0.3036(3) 0.5552(2) 0.1378(4)
H20 H 0.2931 0.5012 0.1297
C39 C 0.1384(3) 0.9367(3) 0.6235(5)
H39 H 0.1651 0.9259 0.5544
H40 H 0.1788 0.9445 0.6794
N5_2 N 0.5300(2) 0.6141(2) 0.5410(3)
H41_2 H 0.5629 0.6106 0.6074
N6_2 N 0.5928(2) 0.5071(2) 0.3871(3)
H42_2 H 0.5695 0.5188 0.3149
C40_2 C 0.5811(3) 0.6414(3) 0.4545(5)
H43_2 H 0.6109 0.6874 0.4792
H44_2 H 0.5494 0.6570 0.3914
C41 C 0.4634(3) 0.6660(3) 0.5680(4)
H45 H 0.4321 0.6750 0.5021
H46 H 0.4838 0.7169 0.5924
C42 C 0.4118(4) 0.6330(3) 0.6538(5)
H47 H 0.3768 0.6751 0.6792
H48 H 0.4450 0.6178 0.7155
C43_2 C 0.6366(3) 0.5776(3) 0.4225(5)
H49_2 H 0.6704 0.5961 0.3630
H50_2 H 0.6704 0.5642 0.4845
C44_2 C 0.6384(3) 0.4367(3) 0.3765(5)
H51_2 H 0.6651 0.4259 0.4456
H52_2 H 0.6788 0.4445 0.3206
N7 N 0.4700(2) 0.3859(2) 0.4590(3)
H53 H 0.4371 0.3894 0.3926
N8 N 0.4072(2) 0.4929(2) 0.6129(3)
H54 H 0.4305 0.4812 0.6851
C45 C 0.4189(3) 0.3586(3) 0.5455(5)
H55 H 0.3891 0.3126 0.5208
H56 H 0.4506 0.3430 0.6086
C46_2 C 0.5366(3) 0.3340(3) 0.4320(4)
H57_2 H 0.5679 0.3250 0.4979
H58_2 H 0.5162 0.2831 0.4076
C47_2 C 0.5882(4) 0.3670(3) 0.3462(5)
H59_2 H 0.6232 0.3249 0.3208
H60_2 H 0.5550 0.3822 0.2845
C48 C 0.3634(3) 0.4224(3) 0.5775(5)
H61 H 0.3296 0.4039 0.6370
H62 H 0.3296 0.4358 0.5155
C49 C 0.3616(3) 0.5633(3) 0.6235(5)
H63 H 0.3349 0.5741 0.5544
H64 H 0.3212 0.5555 0.6794
C13_2 C 0.8616(3) 0.0633(3) 0.3765(5)
H15_2 H 0.8349 0.0741 0.4456
H16_2 H 0.8212 0.0555 0.3206
C36_2 C 0.9634(3) 0.1660(3) 0.4320(4)
H33_2 H 0.9321 0.1750 0.4979
H34_2 H 0.9838 0.2169 0.4076
C37_2 C 0.9118(4) 0.1330(3) 0.3462(5)
H35_2 H 0.8768 0.1751 0.3208
H36_2 H 0.9450 0.1178 0.2845
Zn1_2 Zn 1.0000 0.5000 0.5000
O1_2 O 0.94947(18) 0.42321(18) 0.3770(3)
C1_4 C 0.7500 0.2500 0.0000
N1 N 0.8859(2) 0.5300(2) 0.5410(3)
H1 H 0.8894 0.5629 0.6074
C2_2 C 0.8129(2) 0.2858(2) 0.0755(3)
C3_2 C 0.9201(2) 0.3521(2) 0.2200(3)
C4_2 C 0.8422(2) 0.3671(2) 0.2296(3)
H2_2 H 0.8242 0.4004 0.2856
C5_2 C 0.7895(2) 0.3345(2) 0.1590(3)
H3_2 H 0.7356 0.3455 0.1675
N2 N 0.9929(2) 0.5928(2) 0.3871(3)
H4 H 0.9812 0.5695 0.3149
C6_2 C 0.9795(3) 0.3894(3) 0.3009(4)
C7_2 C 0.8914(3) 0.2699(2) 0.0663(3)
H5_2 H 0.9093 0.2359 0.0112
C8_2 C 0.9448(2) 0.3036(3) 0.1378(4)
H6_2 H 0.9988 0.2931 0.1297
C9 C 0.8586(3) 0.5811(3) 0.4545(5)
H7 H 0.8126 0.6109 0.4792
H8 H 0.8430 0.5494 0.3914
C10_2 C 0.8340(3) 0.4634(3) 0.5680(4)
H9_2 H 0.8250 0.4321 0.5021
H10_2 H 0.7831 0.4838 0.5924
C11_2 C 0.8670(3) 0.4118(4) 0.6538(5)
H11_2 H 0.8249 0.3768 0.6792
H12_2 H 0.8822 0.4450 0.7155
C12 C 0.9224(3) 0.6366(3) 0.4225(5)
H13 H 0.9039 0.6704 0.3630
H14 H 0.9358 0.6704 0.4845
O3_2 O 0.55053(18) 0.07679(18) 0.3770(3)
C14_2 C 0.6871(2) 0.2142(2) 0.0755(3)
O4_2 O 0.4525(2) 0.1189(3) 0.2797(3)
C15_2 C 0.5799(2) 0.1479(2) 0.2200(3)
C16_2 C 0.6578(2) 0.1329(2) 0.2296(3)
H17_2 H 0.6758 0.0996 0.2856
C17_2 C 0.7105(2) 0.1655(2) 0.1590(3)
H18_2 H 0.7644 0.1545 0.1675
C18_2 C 0.5205(3) 0.1106(3) 0.3009(4)
C19_2 C 0.6086(3) 0.2301(2) 0.0663(3)
H19_2 H 0.5907 0.2641 0.0112
C20_2 C 0.5552(2) 0.1964(3) 0.1378(4)
H20_2 H 0.5012 0.2069 0.1297
C39_2 C 0.9367(3) 0.3616(3) 0.6235(5)
H39_2 H 0.9259 0.3349 0.5544
H40_2 H 0.9445 0.3212 0.6794
Zn2_2 Zn 0.5000 0.0000 0.5000
C41_2 C 0.6660(3) 0.0366(3) 0.5680(4)
H45_2 H 0.6750 0.0679 0.5021
H46_2 H 0.7169 0.0162 0.5924
C42_2 C 0.6330(3) 0.0882(4) 0.6538(5)
H47_2 H 0.6751 0.1232 0.6792
H48_2 H 0.6178 0.0550 0.7155
N7_2 N 0.3859(2) 0.0300(2) 0.4590(3)
H53_2 H 0.3894 0.0629 0.3926
N8_2 N 0.4929(2) 0.0928(2) 0.6129(3)
H54_2 H 0.4812 0.0695 0.6851
C45_2 C 0.3586(3) 0.0811(3) 0.5455(5)
H55_2 H 0.3126 0.1109 0.5208
H56_2 H 0.3430 0.0494 0.6086
C48_2 C 0.4224(3) 0.1366(3) 0.5775(5)
H61_2 H 0.4039 0.1704 0.6370
H62_2 H 0.4358 0.1704 0.5155
C49_2 C 0.5633(3) 0.1384(3) 0.6235(5)
H63_2 H 0.5741 0.1651 0.5544
H64_2 H 0.5555 0.1788 0.6794
O8_2 O 0.9525(2) 0.6189(3) 0.7203(3)
O6_2 O 0.8811(3) 0.9525(2) 0.7203(3)
Zn3_4 Zn 1.0000 1.0000 0.5000
N1_2 N 0.9700(2) 0.8859(2) 0.5410(3)
H1_2 H 0.9371 0.8894 0.6074
N2_2 N 0.9072(2) 0.9929(2) 0.3871(3)
H4_2 H 0.9305 0.9812 0.3149
C9_2 C 0.9189(3) 0.8586(3) 0.4545(5)
H7_2 H 0.8891 0.8126 0.4792
H8_2 H 0.9506 0.8430 0.3914
C12_2 C 0.8634(3) 0.9224(3) 0.4225(5)
H13_2 H 0.8296 0.9039 0.3630
H14_2 H 0.8296 0.9358 0.4845
loop_
_geom_bond_atom_site_label_1
_geom_bond_atom_site_label_2
_geom_bond_site_symmetry_1
_geom_bond_site_symmetry_2
H15 C13 1_555 1_555
H16 C13 1_555 1_555
N3 Zn1 1_555 1_555
H29 N3 1_555 1_555
N4 Zn1 1_555 1_555
H30 N4 1_555 1_555
C35 N3 1_555 1_555
H31 C35 1_555 1_555
H32 C35 1_555 1_555
C36 N3 1_555 1_555
H33 C36 1_555 1_555
H34 C36 1_555 1_555
C37 C13 1_555 1_555
H35 C37 1_555 1_555
H36 C37 1_555 1_555
C38 N4 1_555 1_555
H37 C38 1_555 1_555
H38 C38 1_555 1_555
O9 Zn1 1_555 1_555
C35 C38 1_555 1_555
C36 C37 1_555 1_555
N5 Zn2 1_555 1_555
H41 N5 1_555 1_555
N6 Zn2 1_555 1_555
H42 N6 1_555 1_555
C40 N5 1_555 1_555
H43 C40 1_555 1_555
H44 C40 1_555 1_555
C43 N6 1_555 1_555
H49 C43 1_555 1_555
H50 C43 1_555 1_555
C44 N6 1_555 1_555
H51 C44 1_555 1_555
H52 C44 1_555 1_555
H57 C46 1_555 1_555
H58 C46 1_555 1_555
C47 C44 1_555 1_555
H59 C47 1_555 1_555
H60 C47 1_555 1_555
O10 Zn2 1_555 1_555
C40 C43 1_555 1_555
C46 C47 1_555 1_555
O10 C25 1_555 1_555
C21 C1 1_555 1_555
O6 C25 1_555 1_555
C22 C23 1_555 1_555
C23 H21 1_555 1_555
C24 C21 1_555 1_555
H22 C24 1_555 1_555
C25 C22 1_555 1_555
C26 C21 1_555 1_555
H23 C26 1_555 1_555
C27 C22 1_555 1_555
H24 C27 1_555 1_555
O9 C32 1_555 1_555
C28 C1 1_555 1_555
C29 C30 1_555 1_555
C30 H25 1_555 1_555
C31 C28 1_555 1_555
H26 C31 1_555 1_555
C32 C29 1_555 1_555
C33 C28 1_555 1_555
H27 C33 1_555 1_555
C34 C29 1_555 1_555
H28 C34 1_555 1_555
C23 C24 1_555 1_555
C26 C27 1_555 1_555
C30 C31 1_555 1_555
C33 C34 1_555 1_555
N3_2 Zn3 1_555 1_555
H29_2 N3_2 1_555 1_555
N4_2 Zn3 1_555 1_555
H30_2 N4_2 1_555 1_555
C35_2 N3_2 1_555 1_555
H31_2 C35_2 1_555 1_555
H32_2 C35_2 1_555 1_555
C38_2 N4_2 1_555 1_555
H37_2 C38_2 1_555 1_555
H38_2 C38_2 1_555 1_555
C35_2 C38_2 1_555 1_555
O5 C25_2 1_555 1_555
C21_2 C1_2 1_555 1_555
C22_2 C23_2 1_555 1_555
C23_2 H21_2 1_555 1_555
C24_2 C21_2 1_555 1_555
H22_2 C24_2 1_555 1_555
C25_2 C22_2 1_555 1_555
C26_2 C21_2 1_555 1_555
H23_2 C26_2 1_555 1_555
C27_2 C22_2 1_555 1_555
H24_2 C27_2 1_555 1_555
O7 C32_2 1_555 1_555
C28_2 C1_2 1_555 1_555
O8 C32_2 1_555 1_555
C29_2 C30_2 1_555 1_555
C30_2 H25_2 1_555 1_555
C31_2 C28_2 1_555 1_555
H26_2 C31_2 1_555 1_555
C32_2 C29_2 1_555 1_555
C33_2 C28_2 1_555 1_555
H27_2 C33_2 1_555 1_555
C34_2 C29_2 1_555 1_555
H28_2 C34_2 1_555 1_555
Zn3_3 O5 1_555 1_555
Zn4 O7 1_555 1_555
C23_2 C24_2 1_555 1_555
C26_2 C27_2 1_555 1_555
C30_2 C31_2 1_555 1_555
C33_2 C34_2 1_555 1_555
Zn3_2 O1 1_555 1_555
O1 C6 1_555 1_555
C1_3 C2 1_555 1_555
C2 C5 1_555 1_555
C3 C4 1_555 1_555
C4 H2 1_555 1_555
C5 C4 1_555 1_555
H3 C5 1_555 1_555
C6 C3 1_555 1_555
C7 C2 1_555 1_555
H5 C7 1_555 1_555
C8 C3 1_555 1_555
H6 C8 1_555 1_555
H9 C10 1_555 1_555
H10 C10 1_555 1_555
C11 C10 1_555 1_555
H11 C11 1_555 1_555
H12 C11 1_555 1_555
O3 C18 1_555 1_555
C14 C1_3 1_555 1_555
O4 C18 1_555 1_555
C15 C16 1_555 1_555
C16 H17 1_555 1_555
C17 C14 1_555 1_555
H18 C17 1_555 1_555
C18 C15 1_555 1_555
C19 C14 1_555 1_555
H19 C19 1_555 1_555
C20 C15 1_555 1_555
H20 C20 1_555 1_555
C39 C11 1_555 1_555
H39 C39 1_555 1_555
H40 C39 1_555 1_555
Zn4 O3 1_555 1_555
N5_2 Zn4 1_555 1_555
H41_2 N5_2 1_555 1_555
N6_2 Zn4 1_555 1_555
H42_2 N6_2 1_555 1_555
C40_2 N5_2 1_555 1_555
H43_2 C40_2 1_555 1_555
H44_2 C40_2 1_555 1_555
C41 N5_2 1_555 1_555
H45 C41 1_555 1_555
H46 C41 1_555 1_555
C42 C41 1_555 1_555
H47 C42 1_555 1_555
H48 C42 1_555 1_555
C43_2 N6_2 1_555 1_555
H49_2 C43_2 1_555 1_555
H50_2 C43_2 1_555 1_555
C44_2 N6_2 1_555 1_555
H51_2 C44_2 1_555 1_555
H52_2 C44_2 1_555 1_555
N7 Zn4 1_555 1_555
H53 N7 1_555 1_555
N8 Zn4 1_555 1_555
H54 N8 1_555 1_555
C45 N7 1_555 1_555
H55 C45 1_555 1_555
H56 C45 1_555 1_555
C46_2 N7 1_555 1_555
H57_2 C46_2 1_555 1_555
H58_2 C46_2 1_555 1_555
C47_2 C44_2 1_555 1_555
H59_2 C47_2 1_555 1_555
H60_2 C47_2 1_555 1_555
C48 N8 1_555 1_555
H61 C48 1_555 1_555
H62 C48 1_555 1_555
C49 C42 1_555 1_555
H63 C49 1_555 1_555
H64 C49 1_555 1_555
C7 C8 1_555 1_555
C16 C17 1_555 1_555
C19 C20 1_555 1_555
C40_2 C43_2 1_555 1_555
N8 C49 1_555 1_555
C45 C48 1_555 1_555
C46_2 C47_2 1_555 1_555
H15_2 C13_2 1_555 1_555
H16_2 C13_2 1_555 1_555
H33_2 C36_2 1_555 1_555
H34_2 C36_2 1_555 1_555
C37_2 C13_2 1_555 1_555
H35_2 C37_2 1_555 1_555
H36_2 C37_2 1_555 1_555
C36_2 C37_2 1_555 1_555
Zn1_2 O1_2 1_555 1_555
O1_2 C6_2 1_555 1_555
C1_4 C2_2 1_555 1_555
N1 Zn1_2 1_555 1_555
H1 N1 1_555 1_555
C2_2 C5_2 1_555 1_555
C3_2 C4_2 1_555 1_555
C4_2 H2_2 1_555 1_555
C5_2 C4_2 1_555 1_555
H3_2 C5_2 1_555 1_555
N2 Zn1_2 1_555 1_555
H4 N2 1_555 1_555
C6_2 C3_2 1_555 1_555
C7_2 C2_2 1_555 1_555
H5_2 C7_2 1_555 1_555
C8_2 C3_2 1_555 1_555
H6_2 C8_2 1_555 1_555
C9 N1 1_555 1_555
H7 C9 1_555 1_555
H8 C9 1_555 1_555
C10_2 N1 1_555 1_555
H9_2 C10_2 1_555 1_555
H10_2 C10_2 1_555 1_555
C11_2 C10_2 1_555 1_555
H11_2 C11_2 1_555 1_555
H12_2 C11_2 1_555 1_555
C12 N2 1_555 1_555
H13 C12 1_555 1_555
H14 C12 1_555 1_555
O3_2 C18_2 1_555 1_555
C14_2 C1_4 1_555 1_555
O4_2 C18_2 1_555 1_555
C15_2 C16_2 1_555 1_555
C16_2 H17_2 1_555 1_555
C17_2 C14_2 1_555 1_555
H18_2 C17_2 1_555 1_555
C18_2 C15_2 1_555 1_555
C19_2 C14_2 1_555 1_555
H19_2 C19_2 1_555 1_555
C20_2 C15_2 1_555 1_555
H20_2 C20_2 1_555 1_555
C39_2 C11_2 1_555 1_555
H39_2 C39_2 1_555 1_555
H40_2 C39_2 1_555 1_555
Zn2_2 O3_2 1_555 1_555
H45_2 C41_2 1_555 1_555
H46_2 C41_2 1_555 1_555
C42_2 C41_2 1_555 1_555
H47_2 C42_2 1_555 1_555
H48_2 C42_2 1_555 1_555
N7_2 Zn2_2 1_555 1_555
H53_2 N7_2 1_555 1_555
N8_2 Zn2_2 1_555 1_555
H54_2 N8_2 1_555 1_555
C45_2 N7_2 1_555 1_555
H55_2 C45_2 1_555 1_555
H56_2 C45_2 1_555 1_555
C48_2 N8_2 1_555 1_555
H61_2 C48_2 1_555 1_555
H62_2 C48_2 1_555 1_555
C49_2 C42_2 1_555 1_555
H63_2 C49_2 1_555 1_555
H64_2 C49_2 1_555 1_555
C7_2 C8_2 1_555 1_555
C9 C12 1_555 1_555
C16_2 C17_2 1_555 1_555
C19_2 C20_2 1_555 1_555
N8_2 C49_2 1_555 1_555
C45_2 C48_2 1_555 1_555
N1_2 Zn3_4 1_555 1_555
H1_2 N1_2 1_555 1_555
N2_2 Zn3_4 1_555 1_555
H4_2 N2_2 1_555 1_555
C9_2 N1_2 1_555 1_555
H7_2 C9_2 1_555 1_555
H8_2 C9_2 1_555 1_555
C12_2 N2_2 1_555 1_555
H13_2 C12_2 1_555 1_555
H14_2 C12_2 1_555 1_555
C9_2 C12_2 1_555 1_555

#END
