
###############################################################################
#
# This file contains modified crystal structure data generated from the
# MOF subset of the Cambridge Structural Database (CSD) v543 
# hosted by the Cambridge Crystallographic Data Centre (CCDC).
#
# This work is licensed under the Creative Commons
# Attribution-NonCommercial-ShareAlike 4.0 International License.
# To view a copy of this license, visit
# http://creativecommons.org/licenses/by-nc-sa/4.0/
# or send a letter to
# Creative Commons, PO Box 1866, Mountain View, CA 94042, USA.
#
# CIF created using the CSD Python API on 29 September 2022
# The structure has been converted into the P1 space group
# The structure has a 3D framework
# The original CSD entry PUZLUS is in the tetragonal crystal system
# The framework has been calculated to contain at least 10.0% void space
# The void calculation uses a probe of radius 1.32A, grid spacing 0.4
#
###############################################################################

data_PUZLUS
_chemical_formula_moiety         '(C316 H192 Co20 N124 S28)n'
_symmetry_cell_setting           triclinic
_symmetry_space_group_name_H-M   'P 1'
_symmetry_Int_Tables_number      1
_space_group_name_Hall           'P 1'
loop_
_symmetry_equiv_pos_site_id
_symmetry_equiv_pos_as_xyz
1 x,y,z
_cell_length_a                   26.405(4)
_cell_length_b                   26.405(4)
_cell_length_c                   36.631(5)
_cell_angle_alpha                90
_cell_angle_beta                 90
_cell_angle_gamma                90
_cell_volume                     25540
loop_
_atom_site_label
_atom_site_type_symbol
_atom_site_fract_x
_atom_site_fract_y
_atom_site_fract_z
Co2 Co 0.0000 0.5000 0.0000
N1 N 0.01973(18) 0.42443(17) 0.0000
N2 N 0.15663(14) 0.58191(12) 0.14873(10)
N5 N 0.28417(12) 0.36993(12) 0.21098(9)
N6 N 0.18672(14) 0.49924(12) 0.13967(10)
S2 S 0.0276(2) 0.31993(9) 0.0000
N7 N 0.05497(13) 0.51401(11) 0.04289(9)
N8 N 0.21626(13) 0.54779(12) 0.19008(10)
C1 C 0.24340(17) 0.45985(15) 0.18301(12)
C2 C 0.21350(18) 0.50506(14) 0.16983(12)
C3 C 0.12312(16) 0.53096(15) 0.09986(12)
C4 C 0.18810(17) 0.58454(14) 0.17757(12)
C5 C 0.15775(16) 0.53720(15) 0.13114(12)
C6 C 0.28522(17) 0.41460(14) 0.22917(13)
H1 H 0.2994 0.4148 0.2530
C7 C 0.26733(16) 0.45933(16) 0.21555(13)
H2 H 0.2717 0.4899 0.2289
C8 C 0.0226(3) 0.3799(2) 0.0000
C9 C 0.24515(18) 0.41716(17) 0.16218(13)
H3 H 0.2339 0.4181 0.1375
C10 C 0.2630(2) 0.37302(17) 0.17674(12)
H4 H 0.2608 0.3430 0.1625
C11 C 0.0534(2) 0.55405(19) 0.06427(14)
H5 H 0.0272 0.5779 0.0596
C12 C 0.08585(18) 0.56481(17) 0.09274(14)
H6 H 0.0822 0.5948 0.1068
C13 C 0.09401(19) 0.48299(18) 0.04829(14)
H7 H 0.0989 0.4554 0.0320
C15 C 0.1282(2) 0.48954(18) 0.07720(17)
H8 H 0.1546 0.4657 0.0811
C17 C 0.19039(15) 0.63333(15) 0.19760(12)
C18 C 0.1655(2) 0.67533(17) 0.18465(15)
H9 H 0.1469 0.6738 0.1625
C19 C 0.2122(3) 0.63620(16) 0.23000(16)
H10 H 0.2254 0.6067 0.2414
N9 N 0.19460(12) 0.72549(12) 0.23512(10)
C20 C 0.2158(2) 0.68635(19) 0.24818(15)
H11 H 0.2345 0.6892 0.2702
C21 C 0.1681(2) 0.71905(17) 0.20410(15)
H12 H 0.1497 0.7473 0.1951
Co3 Co 0.29835(2) 0.29835(2) 0.23703(2)
Co5 Co 0.20165(2) 0.79835(2) 0.26297(2)
Co1 Co 0.29835(2) 0.29835(2) 0.76297(2)
Co2_2 Co 0.0000 0.5000 1.0000
N1_2 N 0.01973(18) 0.42443(17) 1.0000
S1 S 0.20771(13) 0.20771(13) 0.85671(14)
N3 N 0.33360(12) 0.33360(12) 0.72062(13)
N4 N 0.26230(15) 0.26230(15) 0.80520(14)
S2_2 S 0.0276(2) 0.31993(9) 1.0000
C8_2 C 0.0226(3) 0.3799(2) 1.0000
C14 C 0.2397(2) 0.2397(2) 0.8269(2)
C16 C 0.3514(3) 0.3514(3) 0.6962(2)
S3 S 0.3777(2) 0.3777(2) 0.66232(18)
Co8 Co 0.20165(2) 0.79835(2) 0.73703(2)
S4 S 0.29229(13) 0.70771(13) 0.64329(14)
N13 N 0.15663(14) 0.58191(12) 0.85127(10)
N14 N 0.16640(12) 0.83360(12) 0.77938(13)
N15 N 0.23770(15) 0.76230(15) 0.69480(14)
N18 N 0.28417(12) 0.36993(12) 0.78902(9)
N19 N 0.36993(12) 0.28417(12) 0.78902(9)
N20 N 0.13007(12) 0.78417(12) 0.71098(9)
N21 N 0.21583(12) 0.86993(12) 0.71098(9)
N24 N 0.18672(14) 0.49924(12) 0.86033(10)
N27 N 0.05497(13) 0.51401(11) 0.95711(9)
N30 N 0.21626(13) 0.54779(12) 0.80992(10)
C24 C 0.24340(17) 0.45985(15) 0.81699(12)
C27 C 0.21350(18) 0.50506(14) 0.83017(12)
C30 C 0.12312(16) 0.53096(15) 0.90014(12)
C33 C 0.18810(17) 0.58454(14) 0.82243(12)
C36 C 0.15775(16) 0.53720(15) 0.86886(12)
C39 C 0.28522(17) 0.41460(14) 0.77083(13)
H15 H 0.2994 0.4148 0.7470
C42 C 0.26733(16) 0.45933(16) 0.78445(13)
H18 H 0.2717 0.4899 0.7711
C46 C 0.24515(18) 0.41716(17) 0.83782(13)
H21 H 0.2339 0.4181 0.8625
C49 C 0.2630(2) 0.37302(17) 0.82326(12)
H24 H 0.2608 0.3430 0.8375
C52 C 0.0534(2) 0.55405(19) 0.93573(14)
H27 H 0.0272 0.5779 0.9404
C55 C 0.08585(18) 0.56481(17) 0.90726(14)
H30 H 0.0822 0.5948 0.8932
C58 C 0.09401(19) 0.48299(18) 0.95171(14)
H33 H 0.0989 0.4554 0.9680
C59 C 0.2603(2) 0.7397(2) 0.6731(2)
C62 C 0.1282(2) 0.48954(18) 0.92280(17)
H36 H 0.1546 0.4657 0.9189
C63 C 0.1486(3) 0.8514(3) 0.8038(2)
S6 S 0.1223(2) 0.8777(2) 0.83768(18)
C66 C 0.19039(15) 0.63333(15) 0.80240(12)
C69 C 0.1655(2) 0.67533(17) 0.81535(15)
H39 H 0.1469 0.6738 0.8375
C72 C 0.2122(3) 0.63620(16) 0.77000(16)
H42 H 0.2254 0.6067 0.7586
N33 N 0.19460(12) 0.72549(12) 0.76488(10)
N34 N 0.22549(12) 0.30540(12) 0.73512(10)
N35 N 0.30540(12) 0.22549(12) 0.73512(10)
N36 N 0.27451(12) 0.80540(12) 0.76488(10)
C75 C 0.2158(2) 0.68635(19) 0.75182(15)
H45 H 0.2345 0.6892 0.7298
C78 C 0.1681(2) 0.71905(17) 0.79590(15)
H48 H 0.1497 0.7473 0.8049
Co2_3 Co 1.0000 0.5000 0.0000
Co4 Co 0.79835(2) 0.20165(2) 0.26297(2)
Co9 Co 0.70165(2) 0.70165(2) 0.23703(2)
N10 N 0.98027(18) 0.57557(17) 0.0000
N11 N 0.84337(14) 0.41809(12) 0.14873(10)
N16 N 0.71583(12) 0.63007(12) 0.21098(9)
N22 N 0.81328(14) 0.50076(12) 0.13967(10)
S5 S 0.9724(2) 0.68007(9) 0.0000
N25 N 0.94503(13) 0.48599(11) 0.04289(9)
N28 N 0.78374(13) 0.45221(12) 0.19008(10)
C22 C 0.75660(17) 0.54015(15) 0.18301(12)
C25 C 0.78650(18) 0.49494(14) 0.16983(12)
C28 C 0.87688(16) 0.46904(15) 0.09986(12)
C31 C 0.81190(17) 0.41546(14) 0.17757(12)
C34 C 0.84225(16) 0.46280(15) 0.13114(12)
C37 C 0.71478(17) 0.58540(14) 0.22917(13)
H13 H 0.7006 0.5852 0.2530
C40 C 0.73267(16) 0.54067(16) 0.21555(13)
H16 H 0.7283 0.5101 0.2289
C43 C 0.9774(3) 0.6201(2) 0.0000
C44 C 0.75485(18) 0.58284(17) 0.16218(13)
H19 H 0.7661 0.5819 0.1375
C47 C 0.7370(2) 0.62698(17) 0.17674(12)
H22 H 0.7392 0.6570 0.1625
C50 C 0.9466(2) 0.44595(19) 0.06427(14)
H25 H 0.9728 0.4221 0.0596
C53 C 0.91415(18) 0.43519(17) 0.09274(14)
H28 H 0.9178 0.4052 0.1068
C56 C 0.90599(19) 0.51701(18) 0.04829(14)
H31 H 0.9011 0.5446 0.0320
C60 C 0.8718(2) 0.51046(18) 0.07720(17)
H34 H 0.8454 0.5343 0.0811
C64 C 0.80961(15) 0.36667(15) 0.19760(12)
C67 C 0.8345(2) 0.32467(17) 0.18465(15)
H37 H 0.8531 0.3262 0.1625
C70 C 0.7878(3) 0.36380(16) 0.23000(16)
H40 H 0.7746 0.3933 0.2414
N31 N 0.80540(12) 0.27451(12) 0.23512(10)
C73 C 0.7842(2) 0.31365(19) 0.24818(15)
H43 H 0.7655 0.3108 0.2702
C76 C 0.8319(2) 0.28095(17) 0.20410(15)
H46 H 0.8503 0.2527 0.1951
Co2_4 Co 1.0000 0.5000 1.0000
Co6 Co 0.70165(2) 0.70165(2) 0.76297(2)
Co7 Co 0.79835(2) 0.20165(2) 0.73703(2)
N10_2 N 0.98027(18) 0.57557(17) 1.0000
N12 N 0.84337(14) 0.41809(12) 0.85127(10)
N17 N 0.71583(12) 0.63007(12) 0.78902(9)
N23 N 0.81328(14) 0.50076(12) 0.86033(10)
S5_2 S 0.9724(2) 0.68007(9) 1.0000
N26 N 0.94503(13) 0.48599(11) 0.95711(9)
N29 N 0.78374(13) 0.45221(12) 0.80992(10)
C23 C 0.75660(17) 0.54015(15) 0.81699(12)
C26 C 0.78650(18) 0.49494(14) 0.83017(12)
C29 C 0.87688(16) 0.46904(15) 0.90014(12)
C32 C 0.81190(17) 0.41546(14) 0.82243(12)
C35 C 0.84225(16) 0.46280(15) 0.86886(12)
C38 C 0.71478(17) 0.58540(14) 0.77083(13)
H14 H 0.7006 0.5852 0.7470
C41 C 0.73267(16) 0.54067(16) 0.78445(13)
H17 H 0.7283 0.5101 0.7711
C43_2 C 0.9774(3) 0.6201(2) 1.0000
C45 C 0.75485(18) 0.58284(17) 0.83782(13)
H20 H 0.7661 0.5819 0.8625
C48 C 0.7370(2) 0.62698(17) 0.82326(12)
H23 H 0.7392 0.6570 0.8375
C51 C 0.9466(2) 0.44595(19) 0.93573(14)
H26 H 0.9728 0.4221 0.9404
C54 C 0.91415(18) 0.43519(17) 0.90726(14)
H29 H 0.9178 0.4052 0.8932
C57 C 0.90599(19) 0.51701(18) 0.95171(14)
H32 H 0.9011 0.5446 0.9680
C61 C 0.8718(2) 0.51046(18) 0.92280(17)
H35 H 0.8454 0.5343 0.9189
C65 C 0.80961(15) 0.36667(15) 0.80240(12)
C68 C 0.8345(2) 0.32467(17) 0.81535(15)
H38 H 0.8531 0.3262 0.8375
C71 C 0.7878(3) 0.36380(16) 0.77000(16)
H41 H 0.7746 0.3933 0.7586
N32 N 0.80540(12) 0.27451(12) 0.76488(10)
C74 C 0.7842(2) 0.31365(19) 0.75182(15)
H44 H 0.7655 0.3108 0.7298
C77 C 0.8319(2) 0.28095(17) 0.79590(15)
H47 H 0.8503 0.2527 0.8049
S1_2 S 0.79229(13) 0.79229(13) 0.85671(14)
N3_2 N 0.66640(12) 0.66640(12) 0.72062(13)
N4_2 N 0.73770(15) 0.73770(15) 0.80520(14)
C14_2 C 0.7603(2) 0.7603(2) 0.8269(2)
C16_2 C 0.6486(3) 0.6486(3) 0.6962(2)
S3_2 S 0.6223(2) 0.6223(2) 0.66232(18)
S4_2 S 0.70771(13) 0.29229(13) 0.64329(14)
N14_2 N 0.83360(12) 0.16640(12) 0.77938(13)
N15_2 N 0.76230(15) 0.23770(15) 0.69480(14)
N19_2 N 0.63007(12) 0.71583(12) 0.78902(9)
N20_2 N 0.86993(12) 0.21583(12) 0.71098(9)
N21_2 N 0.78417(12) 0.13007(12) 0.71098(9)
C59_2 C 0.7397(2) 0.2603(2) 0.6731(2)
C63_2 C 0.8514(3) 0.1486(3) 0.8038(2)
S6_2 S 0.8777(2) 0.1223(2) 0.83768(18)
N34_2 N 0.77451(12) 0.69460(12) 0.73512(10)
N35_2 N 0.69460(12) 0.77451(12) 0.73512(10)
N36_2 N 0.72549(12) 0.19460(12) 0.76488(10)
Co2_5 Co 0.5000 0.0000 0.5000
N1_3 N 0.51973(18) 0.07557(17) 0.5000
N5_2 N 0.78417(12) 0.13007(12) 0.28902(9)
N6_2 N 0.68672(14) 0.00076(12) 0.36033(10)
S2_3 S 0.5276(2) 0.18007(9) 0.5000
C1_2 C 0.74340(17) 0.04015(15) 0.31699(12)
C6_2 C 0.78522(17) 0.08540(14) 0.27083(13)
H1_2 H 0.7994 0.0852 0.2470
C7_2 C 0.76733(16) 0.04067(16) 0.28445(13)
H2_2 H 0.7717 0.0101 0.2711
C8_3 C 0.5226(3) 0.1201(2) 0.5000
C9_2 C 0.74515(18) 0.08284(17) 0.33782(13)
H3_2 H 0.7339 0.0819 0.3625
C10_2 C 0.7630(2) 0.12698(17) 0.32326(12)
H4_2 H 0.7608 0.1570 0.3375
C13_2 C 0.59401(19) 0.01701(18) 0.45171(14)
H7_2 H 0.5989 0.0446 0.4680
C15_2 C 0.6282(2) 0.01046(18) 0.42280(17)
H8_2 H 0.6546 0.0343 0.4189
N11_2 N 0.34337(14) 0.08191(12) 0.35127(10)
N12_2 N 0.34337(14) 0.08191(12) 0.64873(10)
N24_2 N 0.68672(14) 0.00076(12) 0.63967(10)
N25_2 N 0.44503(13) 0.01401(11) 0.45711(9)
N26_2 N 0.44503(13) 0.01401(11) 0.54289(9)
N28_2 N 0.28374(13) 0.04779(12) 0.30992(10)
N29_2 N 0.28374(13) 0.04779(12) 0.69008(10)
C24_2 C 0.74340(17) 0.04015(15) 0.68301(12)
C25_2 C 0.28650(18) 0.00506(14) 0.33017(12)
C26_2 C 0.28650(18) 0.00506(14) 0.66983(12)
C28_2 C 0.37688(16) 0.03096(15) 0.40014(12)
C29_2 C 0.37688(16) 0.03096(15) 0.59986(12)
C31_2 C 0.31190(17) 0.08454(14) 0.32243(12)
C32_2 C 0.31190(17) 0.08454(14) 0.67757(12)
C34_2 C 0.34225(16) 0.03720(15) 0.36886(12)
C35_2 C 0.34225(16) 0.03720(15) 0.63114(12)
C39_2 C 0.78522(17) 0.08540(14) 0.72917(13)
H15_2 H 0.7994 0.0852 0.7530
C42_2 C 0.76733(16) 0.04067(16) 0.71555(13)
H18_2 H 0.7717 0.0101 0.7289
C46_2 C 0.74515(18) 0.08284(17) 0.66218(13)
H21_2 H 0.7339 0.0819 0.6375
C49_2 C 0.7630(2) 0.12698(17) 0.67674(12)
H24_2 H 0.7608 0.1570 0.6625
C50_2 C 0.4466(2) 0.05405(19) 0.43573(14)
C51_2 C 0.4466(2) 0.05405(19) 0.56427(14)
H25_2 H 0.4728 0.0779 0.4404
H26_2 H 0.4728 0.0779 0.5596
C53_2 C 0.41415(18) 0.06481(17) 0.40726(14)
C54_2 C 0.41415(18) 0.06481(17) 0.59274(14)
H28_2 H 0.4178 0.0948 0.3932
H29_2 H 0.4178 0.0948 0.6068
C58_2 C 0.59401(19) 0.01701(18) 0.54829(14)
H33_2 H 0.5989 0.0446 0.5320
C62_2 C 0.6282(2) 0.01046(18) 0.57720(17)
H36_2 H 0.6546 0.0343 0.5811
C64_2 C 0.30961(15) 0.13333(15) 0.30240(12)
C65_2 C 0.30961(15) 0.13333(15) 0.69760(12)
C67_2 C 0.3345(2) 0.17533(17) 0.31535(15)
C68_2 C 0.3345(2) 0.17533(17) 0.68465(15)
H37_2 H 0.3531 0.1738 0.3375
H38_2 H 0.3531 0.1738 0.6625
C70_2 C 0.2878(3) 0.13620(16) 0.27000(16)
C71_2 C 0.2878(3) 0.13620(16) 0.73000(16)
H40_2 H 0.2746 0.1067 0.2586
H41_2 H 0.2746 0.1067 0.7414
N31_2 N 0.30540(12) 0.22549(12) 0.26488(10)
C73_2 C 0.2842(2) 0.18635(19) 0.25182(15)
C74_2 C 0.2842(2) 0.18635(19) 0.74818(15)
H43_2 H 0.2655 0.1892 0.2298
H44_2 H 0.2655 0.1892 0.7702
C76_2 C 0.3319(2) 0.21905(17) 0.29590(15)
C77_2 C 0.3319(2) 0.21905(17) 0.70410(15)
H46_2 H 0.3503 0.2473 0.3049
H47_2 H 0.3503 0.2473 0.6951
Co2_6 Co 0.5000 1.0000 0.5000
N2_2 N 0.65663(14) 0.91809(12) 0.35127(10)
N7_2 N 0.55497(13) 0.98599(11) 0.45711(9)
N8_2 N 0.71626(13) 0.95221(12) 0.30992(10)
C2_2 C 0.71350(18) 0.99494(14) 0.33017(12)
C3_2 C 0.62312(16) 0.96904(15) 0.40014(12)
C4_2 C 0.68810(17) 0.91546(14) 0.32243(12)
C5_2 C 0.65775(16) 0.96280(15) 0.36886(12)
C11_2 C 0.5534(2) 0.94595(19) 0.43573(14)
H5_2 H 0.5272 0.9221 0.4404
C12_2 C 0.58585(18) 0.93519(17) 0.40726(14)
H6_2 H 0.5822 0.9052 0.3932
C17_2 C 0.69039(15) 0.86667(15) 0.30240(12)
C18_2 C 0.6655(2) 0.82467(17) 0.31535(15)
H9_2 H 0.6469 0.8262 0.3375
C19_2 C 0.7122(3) 0.86380(16) 0.27000(16)
H10_2 H 0.7254 0.8933 0.2586
N9_2 N 0.69460(12) 0.77451(12) 0.26488(10)
C20_2 C 0.7158(2) 0.81365(19) 0.25182(15)
H11_2 H 0.7345 0.8108 0.2298
C21_2 C 0.6681(2) 0.78095(17) 0.29590(15)
H12_2 H 0.6497 0.7527 0.3049
N10_3 N 0.48027(18) 0.92443(17) 0.5000
N13_2 N 0.65663(14) 0.91809(12) 0.64873(10)
N16_2 N 0.21583(12) 0.86993(12) 0.28902(9)
N22_2 N 0.31328(14) 0.99924(12) 0.36033(10)
N23_2 N 0.31328(14) 0.99924(12) 0.63967(10)
S5_3 S 0.4724(2) 0.81993(9) 0.5000
N27_2 N 0.55497(13) 0.98599(11) 0.54289(9)
N30_2 N 0.71626(13) 0.95221(12) 0.69008(10)
C22_2 C 0.25660(17) 0.95985(15) 0.31699(12)
C23_2 C 0.25660(17) 0.95985(15) 0.68301(12)
C27_2 C 0.71350(18) 0.99494(14) 0.66983(12)
C30_2 C 0.62312(16) 0.96904(15) 0.59986(12)
C33_2 C 0.68810(17) 0.91546(14) 0.67757(12)
C36_2 C 0.65775(16) 0.96280(15) 0.63114(12)
C37_2 C 0.21478(17) 0.91460(14) 0.27083(13)
C38_2 C 0.21478(17) 0.91460(14) 0.72917(13)
H13_2 H 0.2006 0.9148 0.2470
H14_2 H 0.2006 0.9148 0.7530
C40_2 C 0.23267(16) 0.95933(16) 0.28445(13)
C41_2 C 0.23267(16) 0.95933(16) 0.71555(13)
H16_2 H 0.2283 0.9899 0.2711
H17_2 H 0.2283 0.9899 0.7289
C43_3 C 0.4774(3) 0.8799(2) 0.5000
C44_2 C 0.25485(18) 0.91716(17) 0.33782(13)
C45_2 C 0.25485(18) 0.91716(17) 0.66218(13)
H19_2 H 0.2661 0.9181 0.3625
H20_2 H 0.2661 0.9181 0.6375
C47_2 C 0.2370(2) 0.87302(17) 0.32326(12)
C48_2 C 0.2370(2) 0.87302(17) 0.67674(12)
H22_2 H 0.2392 0.8430 0.3375
H23_2 H 0.2392 0.8430 0.6625
C52_2 C 0.5534(2) 0.94595(19) 0.56427(14)
H27_2 H 0.5272 0.9221 0.5596
C55_2 C 0.58585(18) 0.93519(17) 0.59274(14)
H30_2 H 0.5822 0.9052 0.6068
C56_2 C 0.40599(19) 0.98299(18) 0.45171(14)
C57_2 C 0.40599(19) 0.98299(18) 0.54829(14)
H31_2 H 0.4011 0.9554 0.4680
H32_2 H 0.4011 0.9554 0.5320
C60_2 C 0.3718(2) 0.98954(18) 0.42280(17)
C61_2 C 0.3718(2) 0.98954(18) 0.57720(17)
H34_2 H 0.3454 0.9657 0.4189
H35_2 H 0.3454 0.9657 0.5811
C66_2 C 0.69039(15) 0.86667(15) 0.69760(12)
C69_2 C 0.6655(2) 0.82467(17) 0.68465(15)
H39_2 H 0.6469 0.8262 0.6625
C72_2 C 0.7122(3) 0.86380(16) 0.73000(16)
H42_2 H 0.7254 0.8933 0.7414
C75_2 C 0.7158(2) 0.81365(19) 0.74818(15)
H45_2 H 0.7345 0.8108 0.7702
C78_2 C 0.6681(2) 0.78095(17) 0.70410(15)
H48_2 H 0.6497 0.7527 0.6951
Co2_7 Co 0.5000 0.0000 0.0000
N10_4 N 0.42443(17) 0.01973(18) 0.0000
N12_3 N 0.58191(12) 0.15663(14) 0.14873(10)
N17_2 N 0.36993(12) 0.28417(12) 0.21098(9)
N23_3 N 0.49924(12) 0.18672(14) 0.13967(10)
S5_4 S 0.31993(9) 0.0276(2) 0.0000
N26_3 N 0.51401(11) 0.05497(13) 0.04289(9)
N29_3 N 0.54779(12) 0.21626(13) 0.19008(10)
C23_3 C 0.45985(15) 0.24340(17) 0.18301(12)
C26_3 C 0.50506(14) 0.21350(18) 0.16983(12)
C29_3 C 0.53096(15) 0.12312(16) 0.09986(12)
C32_3 C 0.58454(14) 0.18810(17) 0.17757(12)
C35_3 C 0.53720(15) 0.15775(16) 0.13114(12)
C38_3 C 0.41460(14) 0.28522(17) 0.22917(13)
H14_3 H 0.4148 0.2994 0.2530
C41_3 C 0.45933(16) 0.26733(16) 0.21555(13)
H17_3 H 0.4899 0.2717 0.2289
C43_4 C 0.3799(2) 0.0226(3) 0.0000
C45_3 C 0.41716(17) 0.24515(18) 0.16218(13)
H20_3 H 0.4181 0.2339 0.1375
C48_3 C 0.37302(17) 0.2630(2) 0.17674(12)
H23_3 H 0.3430 0.2608 0.1625
C51_3 C 0.55405(19) 0.0534(2) 0.06427(14)
H26_3 H 0.5779 0.0272 0.0596
C54_3 C 0.56481(17) 0.08585(18) 0.09274(14)
H29_3 H 0.5948 0.0822 0.1068
C57_3 C 0.48299(18) 0.09401(19) 0.04829(14)
H32_3 H 0.4554 0.0989 0.0320
C61_3 C 0.48954(18) 0.1282(2) 0.07720(17)
H35_3 H 0.4657 0.1546 0.0811
C65_3 C 0.63333(15) 0.19039(15) 0.19760(12)
C68_3 C 0.67533(17) 0.1655(2) 0.18465(15)
H38_3 H 0.6738 0.1469 0.1625
C71_3 C 0.63620(16) 0.2122(3) 0.23000(16)
H41_3 H 0.6067 0.2254 0.2414
N32_2 N 0.72549(12) 0.19460(12) 0.23512(10)
C74_3 C 0.68635(19) 0.2158(2) 0.24818(15)
H44_3 H 0.6892 0.2345 0.2702
C77_3 C 0.71905(17) 0.1681(2) 0.20410(15)
H47_3 H 0.7473 0.1497 0.1951
Co2_8 Co 0.5000 0.0000 1.0000
N10_5 N 0.42443(17) 0.01973(18) 1.0000
N11_3 N 0.58191(12) 0.15663(14) 0.85127(10)
N22_3 N 0.49924(12) 0.18672(14) 0.86033(10)
S5_5 S 0.31993(9) 0.0276(2) 1.0000
N25_3 N 0.51401(11) 0.05497(13) 0.95711(9)
N28_3 N 0.54779(12) 0.21626(13) 0.80992(10)
C22_3 C 0.45985(15) 0.24340(17) 0.81699(12)
C25_3 C 0.50506(14) 0.21350(18) 0.83017(12)
C28_3 C 0.53096(15) 0.12312(16) 0.90014(12)
C31_3 C 0.58454(14) 0.18810(17) 0.82243(12)
C34_3 C 0.53720(15) 0.15775(16) 0.86886(12)
C37_3 C 0.41460(14) 0.28522(17) 0.77083(13)
H13_3 H 0.4148 0.2994 0.7470
C40_3 C 0.45933(16) 0.26733(16) 0.78445(13)
H16_3 H 0.4899 0.2717 0.7711
C43_5 C 0.3799(2) 0.0226(3) 1.0000
C44_3 C 0.41716(17) 0.24515(18) 0.83782(13)
H19_3 H 0.4181 0.2339 0.8625
C47_3 C 0.37302(17) 0.2630(2) 0.82326(12)
H22_3 H 0.3430 0.2608 0.8375
C50_3 C 0.55405(19) 0.0534(2) 0.93573(14)
H25_3 H 0.5779 0.0272 0.9404
C53_3 C 0.56481(17) 0.08585(18) 0.90726(14)
H28_3 H 0.5948 0.0822 0.8932
C56_3 C 0.48299(18) 0.09401(19) 0.95171(14)
H31_3 H 0.4554 0.0989 0.9680
C60_3 C 0.48954(18) 0.1282(2) 0.92280(17)
H34_3 H 0.4657 0.1546 0.9189
C64_3 C 0.63333(15) 0.19039(15) 0.80240(12)
C67_3 C 0.67533(17) 0.1655(2) 0.81535(15)
H37_3 H 0.6738 0.1469 0.8375
C70_3 C 0.63620(16) 0.2122(3) 0.77000(16)
H40_3 H 0.6067 0.2254 0.7586
C73_3 C 0.68635(19) 0.2158(2) 0.75182(15)
H43_3 H 0.6892 0.2345 0.7298
C76_3 C 0.71905(17) 0.1681(2) 0.79590(15)
H46_3 H 0.7473 0.1497 0.8049
Co2_9 Co 0.5000 1.0000 0.0000
N1_4 N 0.57557(17) 0.98027(18) 0.0000
S1_3 S 0.79229(13) 0.79229(13) 0.14329(14)
N3_3 N 0.66640(12) 0.66640(12) 0.27938(13)
N4_3 N 0.73770(15) 0.73770(15) 0.19480(14)
S2_4 S 0.68007(9) 0.9724(2) 0.0000
C8_4 C 0.6201(2) 0.9774(3) 0.0000
C14_3 C 0.7603(2) 0.7603(2) 0.1731(2)
C16_3 C 0.6486(3) 0.6486(3) 0.3038(2)
S3_3 S 0.6223(2) 0.6223(2) 0.33768(18)
S4_3 S 0.29229(13) 0.70771(13) 0.35671(14)
N13_3 N 0.41809(12) 0.84337(14) 0.14873(10)
N14_3 N 0.16640(12) 0.83360(12) 0.22062(13)
N15_3 N 0.23770(15) 0.76230(15) 0.30520(14)
N18_2 N 0.63007(12) 0.71583(12) 0.21098(9)
N21_3 N 0.13007(12) 0.78417(12) 0.28902(9)
N24_3 N 0.50076(12) 0.81328(14) 0.13967(10)
N27_3 N 0.48599(11) 0.94503(13) 0.04289(9)
N30_3 N 0.45221(12) 0.78374(13) 0.19008(10)
C24_3 C 0.54015(15) 0.75660(17) 0.18301(12)
C27_3 C 0.49494(14) 0.78650(18) 0.16983(12)
C30_3 C 0.46904(15) 0.87688(16) 0.09986(12)
C33_3 C 0.41546(14) 0.81190(17) 0.17757(12)
C36_3 C 0.46280(15) 0.84225(16) 0.13114(12)
C39_3 C 0.58540(14) 0.71478(17) 0.22917(13)
H15_3 H 0.5852 0.7006 0.2530
C42_3 C 0.54067(16) 0.73267(16) 0.21555(13)
H18_3 H 0.5101 0.7283 0.2289
C46_3 C 0.58284(17) 0.75485(18) 0.16218(13)
H21_3 H 0.5819 0.7661 0.1375
C49_3 C 0.62698(17) 0.7370(2) 0.17674(12)
H24_3 H 0.6570 0.7392 0.1625
C52_3 C 0.44595(19) 0.9466(2) 0.06427(14)
H27_3 H 0.4221 0.9728 0.0596
C55_3 C 0.43519(17) 0.91415(18) 0.09274(14)
H30_3 H 0.4052 0.9178 0.1068
C58_3 C 0.51701(18) 0.90599(19) 0.04829(14)
H33_3 H 0.5446 0.9011 0.0320
C59_3 C 0.2603(2) 0.7397(2) 0.3269(2)
C62_3 C 0.51046(18) 0.8718(2) 0.07720(17)
H36_3 H 0.5343 0.8454 0.0811
C63_3 C 0.1486(3) 0.8514(3) 0.1962(2)
S6_3 S 0.1223(2) 0.8777(2) 0.16232(18)
C66_3 C 0.36667(15) 0.80961(15) 0.19760(12)
C69_3 C 0.32467(17) 0.8345(2) 0.18465(15)
H39_3 H 0.3262 0.8531 0.1625
C72_3 C 0.36380(16) 0.7878(3) 0.23000(16)
H42_3 H 0.3933 0.7746 0.2414
N33_2 N 0.27451(12) 0.80540(12) 0.23512(10)
N35_3 N 0.77451(12) 0.69460(12) 0.26488(10)
C75_3 C 0.31365(19) 0.7842(2) 0.24818(15)
H45_3 H 0.3108 0.7655 0.2702
C78_3 C 0.28095(17) 0.8319(2) 0.20410(15)
H48_3 H 0.2527 0.8503 0.1951
Co2_10 Co 0.5000 1.0000 1.0000
N1_5 N 0.57557(17) 0.98027(18) 1.0000
N2_3 N 0.41809(12) 0.84337(14) 0.85127(10)
N6_3 N 0.50076(12) 0.81328(14) 0.86033(10)
S2_5 S 0.68007(9) 0.9724(2) 1.0000
N7_3 N 0.48599(11) 0.94503(13) 0.95711(9)
N8_3 N 0.45221(12) 0.78374(13) 0.80992(10)
C1_3 C 0.54015(15) 0.75660(17) 0.81699(12)
C2_3 C 0.49494(14) 0.78650(18) 0.83017(12)
C3_3 C 0.46904(15) 0.87688(16) 0.90014(12)
C4_3 C 0.41546(14) 0.81190(17) 0.82243(12)
C5_3 C 0.46280(15) 0.84225(16) 0.86886(12)
C6_3 C 0.58540(14) 0.71478(17) 0.77083(13)
H1_3 H 0.5852 0.7006 0.7470
C7_3 C 0.54067(16) 0.73267(16) 0.78445(13)
H2_3 H 0.5101 0.7283 0.7711
C8_5 C 0.6201(2) 0.9774(3) 1.0000
C9_3 C 0.58284(17) 0.75485(18) 0.83782(13)
H3_3 H 0.5819 0.7661 0.8625
C10_3 C 0.62698(17) 0.7370(2) 0.82326(12)
H4_3 H 0.6570 0.7392 0.8375
C11_3 C 0.44595(19) 0.9466(2) 0.93573(14)
H5_3 H 0.4221 0.9728 0.9404
C12_3 C 0.43519(17) 0.91415(18) 0.90726(14)
H6_3 H 0.4052 0.9178 0.8932
C13_3 C 0.51701(18) 0.90599(19) 0.95171(14)
H7_3 H 0.5446 0.9011 0.9680
C15_3 C 0.51046(18) 0.8718(2) 0.92280(17)
H8_3 H 0.5343 0.8454 0.9189
C17_3 C 0.36667(15) 0.80961(15) 0.80240(12)
C18_3 C 0.32467(17) 0.8345(2) 0.81535(15)
H9_3 H 0.3262 0.8531 0.8375
C19_3 C 0.36380(16) 0.7878(3) 0.77000(16)
H10_3 H 0.3933 0.7746 0.7586
C20_3 C 0.31365(19) 0.7842(2) 0.75182(15)
H11_3 H 0.3108 0.7655 0.7298
C21_3 C 0.28095(17) 0.8319(2) 0.79590(15)
H12_3 H 0.2527 0.8503 0.8049
S1_4 S 0.20771(13) 0.20771(13) 0.14329(14)
N3_4 N 0.33360(12) 0.33360(12) 0.27938(13)
N4_4 N 0.26230(15) 0.26230(15) 0.19480(14)
C14_4 C 0.2397(2) 0.2397(2) 0.1731(2)
C16_4 C 0.3514(3) 0.3514(3) 0.3038(2)
S3_4 S 0.3777(2) 0.3777(2) 0.33768(18)
S4_4 S 0.70771(13) 0.29229(13) 0.35671(14)
N14_4 N 0.83360(12) 0.16640(12) 0.22062(13)
N15_4 N 0.76230(15) 0.23770(15) 0.30520(14)
N21_4 N 0.86993(12) 0.21583(12) 0.28902(9)
C59_4 C 0.7397(2) 0.2603(2) 0.3269(2)
C63_4 C 0.8514(3) 0.1486(3) 0.1962(2)
S6_4 S 0.8777(2) 0.1223(2) 0.16232(18)
N35_4 N 0.22549(12) 0.30540(12) 0.26488(10)
Co2_11 Co -0.0000 0.5000 0.5000
N2_4 N 0.08191(12) 0.34337(14) 0.64873(10)
N7_4 N 0.01401(11) 0.44503(13) 0.54289(9)
N8_4 N 0.04779(12) 0.28374(13) 0.69008(10)
C2_4 C 0.00506(14) 0.28650(18) 0.66983(12)
C3_4 C 0.03096(15) 0.37688(16) 0.59986(12)
C4_4 C 0.08454(14) 0.31190(17) 0.67757(12)
C5_4 C 0.03720(15) 0.34225(16) 0.63114(12)
C11_4 C 0.05405(19) 0.4466(2) 0.56427(14)
H5_4 H 0.0779 0.4728 0.5596
C12_4 C 0.06481(17) 0.41415(18) 0.59274(14)
H6_4 H 0.0948 0.4178 0.6068
C17_4 C 0.13333(15) 0.30961(15) 0.69760(12)
C18_4 C 0.17533(17) 0.3345(2) 0.68465(15)
H9_4 H 0.1738 0.3531 0.6625
C19_4 C 0.13620(16) 0.2878(3) 0.73000(16)
H10_4 H 0.1067 0.2746 0.7414
C20_4 C 0.18635(19) 0.2842(2) 0.74818(15)
H11_4 H 0.1892 0.2655 0.7702
C21_4 C 0.21905(17) 0.3319(2) 0.70410(15)
H12_4 H 0.2473 0.3503 0.6951
N10_6 N 0.07557(17) 0.51973(18) 0.5000
N13_4 N 0.08191(12) 0.34337(14) 0.35127(10)
N22_4 N 0.00076(12) 0.68672(14) 0.63967(10)
N23_4 N 0.00076(12) 0.68672(14) 0.36033(10)
S5_6 S 0.18007(9) 0.5276(2) 0.5000
N27_4 N 0.01401(11) 0.44503(13) 0.45711(9)
N30_4 N 0.04779(12) 0.28374(13) 0.30992(10)
C22_4 C 0.04015(15) 0.74340(17) 0.68301(12)
C23_4 C 0.04015(15) 0.74340(17) 0.31699(12)
C27_4 C 0.00506(14) 0.28650(18) 0.33017(12)
C30_4 C 0.03096(15) 0.37688(16) 0.40014(12)
C33_4 C 0.08454(14) 0.31190(17) 0.32243(12)
C36_4 C 0.03720(15) 0.34225(16) 0.36886(12)
C37_4 C 0.08540(14) 0.78522(17) 0.72917(13)
C38_4 C 0.08540(14) 0.78522(17) 0.27083(13)
H13_4 H 0.0852 0.7994 0.7530
H14_4 H 0.0852 0.7994 0.2470
C40_4 C 0.04067(16) 0.76733(16) 0.71555(13)
C41_4 C 0.04067(16) 0.76733(16) 0.28445(13)
H16_4 H 0.0101 0.7717 0.7289
H17_4 H 0.0101 0.7717 0.2711
C43_6 C 0.1201(2) 0.5226(3) 0.5000
C44_4 C 0.08284(17) 0.74515(18) 0.66218(13)
C45_4 C 0.08284(17) 0.74515(18) 0.33782(13)
H19_4 H 0.0819 0.7339 0.6375
H20_4 H 0.0819 0.7339 0.3625
C47_4 C 0.12698(17) 0.7630(2) 0.67674(12)
C48_4 C 0.12698(17) 0.7630(2) 0.32326(12)
H22_4 H 0.1570 0.7608 0.6625
H23_4 H 0.1570 0.7608 0.3375
C52_4 C 0.05405(19) 0.4466(2) 0.43573(14)
H27_4 H 0.0779 0.4728 0.4404
C55_4 C 0.06481(17) 0.41415(18) 0.40726(14)
H30_4 H 0.0948 0.4178 0.3932
C56_4 C 0.01701(18) 0.59401(19) 0.54829(14)
C57_4 C 0.01701(18) 0.59401(19) 0.45171(14)
H31_4 H 0.0446 0.5989 0.5320
H32_4 H 0.0446 0.5989 0.4680
C60_4 C 0.01046(18) 0.6282(2) 0.57720(17)
C61_4 C 0.01046(18) 0.6282(2) 0.42280(17)
H34_4 H 0.0343 0.6546 0.5811
H35_4 H 0.0343 0.6546 0.4189
C66_4 C 0.13333(15) 0.30961(15) 0.30240(12)
C69_4 C 0.17533(17) 0.3345(2) 0.31535(15)
H39_4 H 0.1738 0.3531 0.3375
C72_4 C 0.13620(16) 0.2878(3) 0.27000(16)
H42_4 H 0.1067 0.2746 0.2586
C75_4 C 0.18635(19) 0.2842(2) 0.25182(15)
H45_4 H 0.1892 0.2655 0.2298
C78_4 C 0.21905(17) 0.3319(2) 0.29590(15)
H48_4 H 0.2473 0.3503 0.3049
Co2_12 Co 1.0000 0.5000 0.5000
N1_6 N 0.92443(17) 0.48027(18) 0.5000
N6_4 N 0.99924(12) 0.31328(14) 0.63967(10)
S2_6 S 0.81993(9) 0.4724(2) 0.5000
C1_4 C 0.95985(15) 0.25660(17) 0.68301(12)
C6_4 C 0.91460(14) 0.21478(17) 0.72917(13)
H1_4 H 0.9148 0.2006 0.7530
C7_4 C 0.95933(16) 0.23267(16) 0.71555(13)
H2_4 H 0.9899 0.2283 0.7289
C8_6 C 0.8799(2) 0.4774(3) 0.5000
C9_4 C 0.91716(17) 0.25485(18) 0.66218(13)
H3_4 H 0.9181 0.2661 0.6375
C10_4 C 0.87302(17) 0.2370(2) 0.67674(12)
H4_4 H 0.8430 0.2392 0.6625
C13_4 C 0.98299(18) 0.40599(19) 0.54829(14)
H7_4 H 0.9554 0.4011 0.5320
C15_4 C 0.98954(18) 0.3718(2) 0.57720(17)
H8_4 H 0.9657 0.3454 0.5811
N11_4 N 0.91809(12) 0.65663(14) 0.64873(10)
N12_4 N 0.91809(12) 0.65663(14) 0.35127(10)
N24_4 N 0.99924(12) 0.31328(14) 0.36033(10)
N25_4 N 0.98599(11) 0.55497(13) 0.54289(9)
N26_4 N 0.98599(11) 0.55497(13) 0.45711(9)
N28_4 N 0.95221(12) 0.71626(13) 0.69008(10)
N29_4 N 0.95221(12) 0.71626(13) 0.30992(10)
C24_4 C 0.95985(15) 0.25660(17) 0.31699(12)
C25_4 C 0.99494(14) 0.71350(18) 0.66983(12)
C26_4 C 0.99494(14) 0.71350(18) 0.33017(12)
C28_4 C 0.96904(15) 0.62312(16) 0.59986(12)
C29_4 C 0.96904(15) 0.62312(16) 0.40014(12)
C31_4 C 0.91546(14) 0.68810(17) 0.67757(12)
C32_4 C 0.91546(14) 0.68810(17) 0.32243(12)
C34_4 C 0.96280(15) 0.65775(16) 0.63114(12)
C35_4 C 0.96280(15) 0.65775(16) 0.36886(12)
C39_4 C 0.91460(14) 0.21478(17) 0.27083(13)
H15_4 H 0.9148 0.2006 0.2470
C42_4 C 0.95933(16) 0.23267(16) 0.28445(13)
H18_4 H 0.9899 0.2283 0.2711
C46_4 C 0.91716(17) 0.25485(18) 0.33782(13)
H21_4 H 0.9181 0.2661 0.3625
C49_4 C 0.87302(17) 0.2370(2) 0.32326(12)
H24_4 H 0.8430 0.2392 0.3375
C50_4 C 0.94595(19) 0.5534(2) 0.56427(14)
C51_4 C 0.94595(19) 0.5534(2) 0.43573(14)
H25_4 H 0.9221 0.5272 0.5596
H26_4 H 0.9221 0.5272 0.4404
C53_4 C 0.93519(17) 0.58585(18) 0.59274(14)
C54_4 C 0.93519(17) 0.58585(18) 0.40726(14)
H28_4 H 0.9052 0.5822 0.6068
H29_4 H 0.9052 0.5822 0.3932
C58_4 C 0.98299(18) 0.40599(19) 0.45171(14)
H33_4 H 0.9554 0.4011 0.4680
C62_4 C 0.98954(18) 0.3718(2) 0.42280(17)
H36_4 H 0.9657 0.3454 0.4189
C64_4 C 0.86667(15) 0.69039(15) 0.69760(12)
C65_4 C 0.86667(15) 0.69039(15) 0.30240(12)
C67_4 C 0.82467(17) 0.6655(2) 0.68465(15)
C68_4 C 0.82467(17) 0.6655(2) 0.31535(15)
H37_4 H 0.8262 0.6469 0.6625
H38_4 H 0.8262 0.6469 0.3375
C70_4 C 0.86380(16) 0.7122(3) 0.73000(16)
C71_4 C 0.86380(16) 0.7122(3) 0.27000(16)
H40_4 H 0.8933 0.7254 0.7414
H41_4 H 0.8933 0.7254 0.2586
C73_4 C 0.81365(19) 0.7158(2) 0.74818(15)
C74_4 C 0.81365(19) 0.7158(2) 0.25182(15)
H43_4 H 0.8108 0.7345 0.7702
H44_4 H 0.8108 0.7345 0.2298
C76_4 C 0.78095(17) 0.6681(2) 0.70410(15)
C77_4 C 0.78095(17) 0.6681(2) 0.29590(15)
H46_4 H 0.7527 0.6497 0.6951
H47_4 H 0.7527 0.6497 0.3049
loop_
_geom_bond_atom_site_label_1
_geom_bond_atom_site_label_2
_geom_bond_site_symmetry_1
_geom_bond_site_symmetry_2
Co2 N1 1_555 1_555
N1 C8 1_555 1_555
N2 C4 1_555 1_555
N5 C6 1_555 1_555
N6 C2 1_555 1_555
S2 C8 1_555 1_555
N7 Co2 1_555 1_555
N8 C2 1_555 1_555
C1 C2 1_555 1_555
C3 C5 1_555 1_555
C4 N8 1_555 1_555
C5 N2 1_555 1_555
C6 H1 1_555 1_555
C7 C1 1_555 1_555
H2 C7 1_555 1_555
C9 C1 1_555 1_555
H3 C9 1_555 1_555
C10 N5 1_555 1_555
H4 C10 1_555 1_555
C11 N7 1_555 1_555
H5 C11 1_555 1_555
C12 C3 1_555 1_555
H6 C12 1_555 1_555
C13 N7 1_555 1_555
H7 C13 1_555 1_555
C15 C3 1_555 1_555
H8 C15 1_555 1_555
C17 C4 1_555 1_555
C18 C17 1_555 1_555
H9 C18 1_555 1_555
C19 C17 1_555 1_555
H10 C19 1_555 1_555
N9 C20 1_555 1_555
C20 C19 1_555 1_555
H11 C20 1_555 1_555
C21 C18 1_555 1_555
H12 C21 1_555 1_555
Co3 N5 1_555 1_555
Co5 N9 1_555 1_555
N6 C5 1_555 1_555
C6 C7 1_555 1_555
C9 C10 1_555 1_555
C11 C12 1_555 1_555
C13 C15 1_555 1_555
N9 C21 1_555 1_555
Co1 N3 1_555 1_555
Co2_2 N1_2 1_555 1_555
N1_2 C8_2 1_555 1_555
S1 C14 1_555 1_555
N3 C16 1_555 1_555
N4 Co1 1_555 1_555
S2_2 C8_2 1_555 1_555
C14 N4 1_555 1_555
C16 S3 1_555 1_555
Co8 N14 1_555 1_555
S4 C59 1_555 1_555
N13 C33 1_555 1_555
N14 C63 1_555 1_555
N15 Co8 1_555 1_555
N18 Co1 1_555 1_555
N19 Co1 1_555 1_555
N20 Co8 1_555 1_555
N21 Co8 1_555 1_555
N24 C27 1_555 1_555
N27 Co2_2 1_555 1_555
N30 C27 1_555 1_555
C24 C27 1_555 1_555
C30 C36 1_555 1_555
C33 N30 1_555 1_555
C36 N13 1_555 1_555
C39 N18 1_555 1_555
H15 C39 1_555 1_555
C42 C24 1_555 1_555
H18 C42 1_555 1_555
C46 C24 1_555 1_555
H21 C46 1_555 1_555
C49 N18 1_555 1_555
H24 C49 1_555 1_555
C52 N27 1_555 1_555
H27 C52 1_555 1_555
C55 C30 1_555 1_555
H30 C55 1_555 1_555
C58 N27 1_555 1_555
H33 C58 1_555 1_555
C59 N15 1_555 1_555
C62 C30 1_555 1_555
H36 C62 1_555 1_555
C63 S6 1_555 1_555
C66 C33 1_555 1_555
C69 C66 1_555 1_555
H39 C69 1_555 1_555
C72 C66 1_555 1_555
H42 C72 1_555 1_555
N33 Co8 1_555 1_555
N34 Co1 1_555 1_555
N35 Co1 1_555 1_555
N36 Co8 1_555 1_555
C75 C72 1_555 1_555
H45 C75 1_555 1_555
C78 C69 1_555 1_555
H48 C78 1_555 1_555
N24 C36 1_555 1_555
C39 C42 1_555 1_555
C46 C49 1_555 1_555
C52 C55 1_555 1_555
C58 C62 1_555 1_555
N33 C75 1_555 1_555
N33 C78 1_555 1_555
Co4 N31 1_555 1_555
Co9 N16 1_555 1_555
N10 Co2_3 1_555 1_555
N11 C31 1_555 1_555
N16 C37 1_555 1_555
N22 C25 1_555 1_555
S5 C43 1_555 1_555
N25 Co2_3 1_555 1_555
N28 C25 1_555 1_555
C22 C25 1_555 1_555
C28 C34 1_555 1_555
C31 N28 1_555 1_555
C34 N11 1_555 1_555
C37 H13 1_555 1_555
C40 C22 1_555 1_555
H16 C40 1_555 1_555
C43 N10 1_555 1_555
C44 C22 1_555 1_555
H19 C44 1_555 1_555
C47 N16 1_555 1_555
H22 C47 1_555 1_555
C50 N25 1_555 1_555
H25 C50 1_555 1_555
C53 C28 1_555 1_555
H28 C53 1_555 1_555
C56 N25 1_555 1_555
H31 C56 1_555 1_555
C60 C28 1_555 1_555
H34 C60 1_555 1_555
C64 C31 1_555 1_555
C67 C64 1_555 1_555
H37 C67 1_555 1_555
C70 C64 1_555 1_555
H40 C70 1_555 1_555
N31 C73 1_555 1_555
C73 C70 1_555 1_555
H43 C73 1_555 1_555
C76 C67 1_555 1_555
H46 C76 1_555 1_555
N22 C34 1_555 1_555
C37 C40 1_555 1_555
C44 C47 1_555 1_555
C50 C53 1_555 1_555
C56 C60 1_555 1_555
N31 C76 1_555 1_555
Co6 N17 1_555 1_555
Co7 N32 1_555 1_555
N10_2 Co2_4 1_555 1_555
N12 C32 1_555 1_555
N17 C38 1_555 1_555
N23 C26 1_555 1_555
S5_2 C43_2 1_555 1_555
N26 Co2_4 1_555 1_555
N29 C26 1_555 1_555
C23 C26 1_555 1_555
C29 C35 1_555 1_555
C32 N29 1_555 1_555
C35 N12 1_555 1_555
C38 H14 1_555 1_555
C41 C23 1_555 1_555
H17 C41 1_555 1_555
C43_2 N10_2 1_555 1_555
C45 C23 1_555 1_555
H20 C45 1_555 1_555
C48 N17 1_555 1_555
H23 C48 1_555 1_555
C51 N26 1_555 1_555
H26 C51 1_555 1_555
C54 C29 1_555 1_555
H29 C54 1_555 1_555
C57 N26 1_555 1_555
H32 C57 1_555 1_555
C61 C29 1_555 1_555
H35 C61 1_555 1_555
C65 C32 1_555 1_555
C68 C65 1_555 1_555
H38 C68 1_555 1_555
C71 C65 1_555 1_555
H41 C71 1_555 1_555
N32 C74 1_555 1_555
C74 C71 1_555 1_555
H44 C74 1_555 1_555
C77 C68 1_555 1_555
H47 C77 1_555 1_555
N23 C35 1_555 1_555
C38 C41 1_555 1_555
C45 C48 1_555 1_555
C51 C54 1_555 1_555
C57 C61 1_555 1_555
N32 C77 1_555 1_555
Co6 N3_2 1_555 1_555
S1_2 C14_2 1_555 1_555
N3_2 C16_2 1_555 1_555
N4_2 Co6 1_555 1_555
C14_2 N4_2 1_555 1_555
C16_2 S3_2 1_555 1_555
Co7 N14_2 1_555 1_555
S4_2 C59_2 1_555 1_555
N14_2 C63_2 1_555 1_555
N15_2 Co7 1_555 1_555
N19_2 Co6 1_555 1_555
N20_2 Co7 1_555 1_555
N21_2 Co7 1_555 1_555
C59_2 N15_2 1_555 1_555
C63_2 S6_2 1_555 1_555
N34_2 Co6 1_555 1_555
N35_2 Co6 1_555 1_555
N36_2 Co7 1_555 1_555
Co2_5 N1_3 1_555 1_555
N1_3 C8_3 1_555 1_555
N5_2 C6_2 1_555 1_555
S2_3 C8_3 1_555 1_555
C6_2 H1_2 1_555 1_555
C7_2 C1_2 1_555 1_555
H2_2 C7_2 1_555 1_555
C9_2 C1_2 1_555 1_555
H3_2 C9_2 1_555 1_555
C10_2 N5_2 1_555 1_555
H4_2 C10_2 1_555 1_555
H7_2 C13_2 1_555 1_555
H8_2 C15_2 1_555 1_555
Co4 N5_2 1_555 1_555
Co3 N31_2 1_555 1_555
N11_2 C31_2 1_555 1_555
N12_2 C32_2 1_555 1_555
N25_2 Co2_5 1_555 1_555
N26_2 Co2_5 1_555 1_555
N28_2 C25_2 1_555 1_555
N29_2 C26_2 1_555 1_555
C28_2 C34_2 1_555 1_555
C29_2 C35_2 1_555 1_555
C31_2 N28_2 1_555 1_555
C32_2 N29_2 1_555 1_555
C34_2 N11_2 1_555 1_555
C35_2 N12_2 1_555 1_555
C39_2 N21_2 1_555 1_555
H15_2 C39_2 1_555 1_555
C42_2 C24_2 1_555 1_555
H18_2 C42_2 1_555 1_555
C46_2 C24_2 1_555 1_555
H21_2 C46_2 1_555 1_555
C49_2 N21_2 1_555 1_555
H24_2 C49_2 1_555 1_555
C50_2 N25_2 1_555 1_555
C51_2 N26_2 1_555 1_555
H25_2 C50_2 1_555 1_555
H26_2 C51_2 1_555 1_555
C53_2 C28_2 1_555 1_555
C54_2 C29_2 1_555 1_555
H28_2 C53_2 1_555 1_555
H29_2 C54_2 1_555 1_555
H33_2 C58_2 1_555 1_555
H36_2 C62_2 1_555 1_555
C64_2 C31_2 1_555 1_555
C65_2 C32_2 1_555 1_555
C67_2 C64_2 1_555 1_555
C68_2 C65_2 1_555 1_555
H37_2 C67_2 1_555 1_555
H38_2 C68_2 1_555 1_555
C70_2 C64_2 1_555 1_555
C71_2 C65_2 1_555 1_555
H40_2 C70_2 1_555 1_555
H41_2 C71_2 1_555 1_555
N31_2 C73_2 1_555 1_555
N35 C74_2 1_555 1_555
C73_2 C70_2 1_555 1_555
C74_2 C71_2 1_555 1_555
H43_2 C73_2 1_555 1_555
H44_2 C74_2 1_555 1_555
C76_2 C67_2 1_555 1_555
C77_2 C68_2 1_555 1_555
H46_2 C76_2 1_555 1_555
H47_2 C77_2 1_555 1_555
C6_2 C7_2 1_555 1_555
C9_2 C10_2 1_555 1_555
C13_2 C15_2 1_555 1_555
C39_2 C42_2 1_555 1_555
C46_2 C49_2 1_555 1_555
C50_2 C53_2 1_555 1_555
C51_2 C54_2 1_555 1_555
C58_2 C62_2 1_555 1_555
N31_2 C76_2 1_555 1_555
N35 C77_2 1_555 1_555
N2_2 C4_2 1_555 1_555
N7_2 Co2_6 1_555 1_555
N8_2 C2_2 1_555 1_555
C3_2 C5_2 1_555 1_555
C4_2 N8_2 1_555 1_555
C5_2 N2_2 1_555 1_555
C11_2 N7_2 1_555 1_555
H5_2 C11_2 1_555 1_555
C12_2 C3_2 1_555 1_555
H6_2 C12_2 1_555 1_555
C17_2 C4_2 1_555 1_555
C18_2 C17_2 1_555 1_555
H9_2 C18_2 1_555 1_555
C19_2 C17_2 1_555 1_555
H10_2 C19_2 1_555 1_555
N9_2 C20_2 1_555 1_555
C20_2 C19_2 1_555 1_555
H11_2 C20_2 1_555 1_555
C21_2 C18_2 1_555 1_555
H12_2 C21_2 1_555 1_555
Co9 N9_2 1_555 1_555
Co5 N16_2 1_555 1_555
N10_3 Co2_6 1_555 1_555
N13_2 C33_2 1_555 1_555
N16_2 C37_2 1_555 1_555
N21 C38_2 1_555 1_555
S5_3 C43_3 1_555 1_555
N27_2 Co2_6 1_555 1_555
N30_2 C27_2 1_555 1_555
C30_2 C36_2 1_555 1_555
C33_2 N30_2 1_555 1_555
C36_2 N13_2 1_555 1_555
C37_2 H13_2 1_555 1_555
C38_2 H14_2 1_555 1_555
C40_2 C22_2 1_555 1_555
C41_2 C23_2 1_555 1_555
H16_2 C40_2 1_555 1_555
H17_2 C41_2 1_555 1_555
C43_3 N10_3 1_555 1_555
C44_2 C22_2 1_555 1_555
C45_2 C23_2 1_555 1_555
H19_2 C44_2 1_555 1_555
H20_2 C45_2 1_555 1_555
C47_2 N16_2 1_555 1_555
C48_2 N21 1_555 1_555
H22_2 C47_2 1_555 1_555
H23_2 C48_2 1_555 1_555
C52_2 N27_2 1_555 1_555
H27_2 C52_2 1_555 1_555
C55_2 C30_2 1_555 1_555
H30_2 C55_2 1_555 1_555
H31_2 C56_2 1_555 1_555
H32_2 C57_2 1_555 1_555
H34_2 C60_2 1_555 1_555
H35_2 C61_2 1_555 1_555
C66_2 C33_2 1_555 1_555
C69_2 C66_2 1_555 1_555
H39_2 C69_2 1_555 1_555
C72_2 C66_2 1_555 1_555
H42_2 C72_2 1_555 1_555
C75_2 C72_2 1_555 1_555
H45_2 C75_2 1_555 1_555
C78_2 C69_2 1_555 1_555
H48_2 C78_2 1_555 1_555
C11_2 C12_2 1_555 1_555
N9_2 C21_2 1_555 1_555
C37_2 C40_2 1_555 1_555
C38_2 C41_2 1_555 1_555
C44_2 C47_2 1_555 1_555
C45_2 C48_2 1_555 1_555
C52_2 C55_2 1_555 1_555
C56_2 C60_2 1_555 1_555
C57_2 C61_2 1_555 1_555
N35_2 C75_2 1_555 1_555
N35_2 C78_2 1_555 1_555
Co3 N17_2 1_555 1_555
Co4 N32_2 1_555 1_555
N10_4 Co2_7 1_555 1_555
N12_3 C32_3 1_555 1_555
N17_2 C38_3 1_555 1_555
N23_3 C26_3 1_555 1_555
S5_4 C43_4 1_555 1_555
N26_3 Co2_7 1_555 1_555
N29_3 C26_3 1_555 1_555
C23_3 C26_3 1_555 1_555
C29_3 C35_3 1_555 1_555
C32_3 N29_3 1_555 1_555
C35_3 N12_3 1_555 1_555
C38_3 H14_3 1_555 1_555
C41_3 C23_3 1_555 1_555
H17_3 C41_3 1_555 1_555
C43_4 N10_4 1_555 1_555
C45_3 C23_3 1_555 1_555
H20_3 C45_3 1_555 1_555
C48_3 N17_2 1_555 1_555
H23_3 C48_3 1_555 1_555
C51_3 N26_3 1_555 1_555
H26_3 C51_3 1_555 1_555
C54_3 C29_3 1_555 1_555
H29_3 C54_3 1_555 1_555
C57_3 N26_3 1_555 1_555
H32_3 C57_3 1_555 1_555
C61_3 C29_3 1_555 1_555
H35_3 C61_3 1_555 1_555
C65_3 C32_3 1_555 1_555
C68_3 C65_3 1_555 1_555
H38_3 C68_3 1_555 1_555
C71_3 C65_3 1_555 1_555
H41_3 C71_3 1_555 1_555
N32_2 C74_3 1_555 1_555
C74_3 C71_3 1_555 1_555
H44_3 C74_3 1_555 1_555
C77_3 C68_3 1_555 1_555
H47_3 C77_3 1_555 1_555
N23_3 C35_3 1_555 1_555
C38_3 C41_3 1_555 1_555
C45_3 C48_3 1_555 1_555
C51_3 C54_3 1_555 1_555
C57_3 C61_3 1_555 1_555
N32_2 C77_3 1_555 1_555
N10_5 Co2_8 1_555 1_555
N11_3 C31_3 1_555 1_555
N19 C37_3 1_555 1_555
N22_3 C25_3 1_555 1_555
S5_5 C43_5 1_555 1_555
N25_3 Co2_8 1_555 1_555
N28_3 C25_3 1_555 1_555
C22_3 C25_3 1_555 1_555
C28_3 C34_3 1_555 1_555
C31_3 N28_3 1_555 1_555
C34_3 N11_3 1_555 1_555
C37_3 H13_3 1_555 1_555
C40_3 C22_3 1_555 1_555
H16_3 C40_3 1_555 1_555
C43_5 N10_5 1_555 1_555
C44_3 C22_3 1_555 1_555
H19_3 C44_3 1_555 1_555
C47_3 N19 1_555 1_555
H22_3 C47_3 1_555 1_555
C50_3 N25_3 1_555 1_555
H25_3 C50_3 1_555 1_555
C53_3 C28_3 1_555 1_555
H28_3 C53_3 1_555 1_555
C56_3 N25_3 1_555 1_555
H31_3 C56_3 1_555 1_555
C60_3 C28_3 1_555 1_555
H34_3 C60_3 1_555 1_555
C64_3 C31_3 1_555 1_555
C67_3 C64_3 1_555 1_555
H37_3 C67_3 1_555 1_555
C70_3 C64_3 1_555 1_555
H40_3 C70_3 1_555 1_555
N36_2 C73_3 1_555 1_555
C73_3 C70_3 1_555 1_555
H43_3 C73_3 1_555 1_555
C76_3 C67_3 1_555 1_555
H46_3 C76_3 1_555 1_555
N22_3 C34_3 1_555 1_555
C37_3 C40_3 1_555 1_555
C44_3 C47_3 1_555 1_555
C50_3 C53_3 1_555 1_555
C56_3 C60_3 1_555 1_555
N36_2 C76_3 1_555 1_555
Co9 N3_3 1_555 1_555
Co2_9 N1_4 1_555 1_555
N1_4 C8_4 1_555 1_555
S1_3 C14_3 1_555 1_555
N3_3 C16_3 1_555 1_555
N4_3 Co9 1_555 1_555
S2_4 C8_4 1_555 1_555
C14_3 N4_3 1_555 1_555
C16_3 S3_3 1_555 1_555
Co5 N14_3 1_555 1_555
S4_3 C59_3 1_555 1_555
N13_3 C33_3 1_555 1_555
N14_3 C63_3 1_555 1_555
N15_3 Co5 1_555 1_555
N18_2 Co9 1_555 1_555
N21_3 Co5 1_555 1_555
N24_3 C27_3 1_555 1_555
N27_3 Co2_9 1_555 1_555
N30_3 C27_3 1_555 1_555
C24_3 C27_3 1_555 1_555
C30_3 C36_3 1_555 1_555
C33_3 N30_3 1_555 1_555
C36_3 N13_3 1_555 1_555
C39_3 N18_2 1_555 1_555
H15_3 C39_3 1_555 1_555
C42_3 C24_3 1_555 1_555
H18_3 C42_3 1_555 1_555
C46_3 C24_3 1_555 1_555
H21_3 C46_3 1_555 1_555
C49_3 N18_2 1_555 1_555
H24_3 C49_3 1_555 1_555
C52_3 N27_3 1_555 1_555
H27_3 C52_3 1_555 1_555
C55_3 C30_3 1_555 1_555
H30_3 C55_3 1_555 1_555
C58_3 N27_3 1_555 1_555
H33_3 C58_3 1_555 1_555
C59_3 N15_3 1_555 1_555
C62_3 C30_3 1_555 1_555
H36_3 C62_3 1_555 1_555
C63_3 S6_3 1_555 1_555
C66_3 C33_3 1_555 1_555
C69_3 C66_3 1_555 1_555
H39_3 C69_3 1_555 1_555
C72_3 C66_3 1_555 1_555
H42_3 C72_3 1_555 1_555
N33_2 Co5 1_555 1_555
N35_3 Co9 1_555 1_555
C75_3 C72_3 1_555 1_555
H45_3 C75_3 1_555 1_555
C78_3 C69_3 1_555 1_555
H48_3 C78_3 1_555 1_555
N24_3 C36_3 1_555 1_555
C39_3 C42_3 1_555 1_555
C46_3 C49_3 1_555 1_555
C52_3 C55_3 1_555 1_555
C58_3 C62_3 1_555 1_555
N33_2 C75_3 1_555 1_555
N33_2 C78_3 1_555 1_555
Co2_10 N1_5 1_555 1_555
N1_5 C8_5 1_555 1_555
N2_3 C4_3 1_555 1_555
N19_2 C6_3 1_555 1_555
N6_3 C2_3 1_555 1_555
S2_5 C8_5 1_555 1_555
N7_3 Co2_10 1_555 1_555
N8_3 C2_3 1_555 1_555
C1_3 C2_3 1_555 1_555
C3_3 C5_3 1_555 1_555
C4_3 N8_3 1_555 1_555
C5_3 N2_3 1_555 1_555
C6_3 H1_3 1_555 1_555
C7_3 C1_3 1_555 1_555
H2_3 C7_3 1_555 1_555
C9_3 C1_3 1_555 1_555
H3_3 C9_3 1_555 1_555
C10_3 N19_2 1_555 1_555
H4_3 C10_3 1_555 1_555
C11_3 N7_3 1_555 1_555
H5_3 C11_3 1_555 1_555
C12_3 C3_3 1_555 1_555
H6_3 C12_3 1_555 1_555
C13_3 N7_3 1_555 1_555
H7_3 C13_3 1_555 1_555
C15_3 C3_3 1_555 1_555
H8_3 C15_3 1_555 1_555
C17_3 C4_3 1_555 1_555
C18_3 C17_3 1_555 1_555
H9_3 C18_3 1_555 1_555
C19_3 C17_3 1_555 1_555
H10_3 C19_3 1_555 1_555
N36 C20_3 1_555 1_555
C20_3 C19_3 1_555 1_555
H11_3 C20_3 1_555 1_555
C21_3 C18_3 1_555 1_555
H12_3 C21_3 1_555 1_555
N6_3 C5_3 1_555 1_555
C6_3 C7_3 1_555 1_555
C9_3 C10_3 1_555 1_555
C11_3 C12_3 1_555 1_555
C13_3 C15_3 1_555 1_555
N36 C21_3 1_555 1_555
Co3 N3_4 1_555 1_555
S1_4 C14_4 1_555 1_555
N3_4 C16_4 1_555 1_555
N4_4 Co3 1_555 1_555
C14_4 N4_4 1_555 1_555
C16_4 S3_4 1_555 1_555
Co4 N14_4 1_555 1_555
S4_4 C59_4 1_555 1_555
N14_4 C63_4 1_555 1_555
N15_4 Co4 1_555 1_555
N21_4 Co4 1_555 1_555
C59_4 N15_4 1_555 1_555
C63_4 S6_4 1_555 1_555
N35_4 Co3 1_555 1_555
N2_4 C4_4 1_555 1_555
N7_4 Co2_11 1_555 1_555
N8_4 C2_4 1_555 1_555
C3_4 C5_4 1_555 1_555
C4_4 N8_4 1_555 1_555
C5_4 N2_4 1_555 1_555
C11_4 N7_4 1_555 1_555
H5_4 C11_4 1_555 1_555
C12_4 C3_4 1_555 1_555
H6_4 C12_4 1_555 1_555
C17_4 C4_4 1_555 1_555
C18_4 C17_4 1_555 1_555
H9_4 C18_4 1_555 1_555
C19_4 C17_4 1_555 1_555
H10_4 C19_4 1_555 1_555
N34 C20_4 1_555 1_555
C20_4 C19_4 1_555 1_555
H11_4 C20_4 1_555 1_555
C21_4 C18_4 1_555 1_555
H12_4 C21_4 1_555 1_555
N10_6 Co2_11 1_555 1_555
N13_4 C33_4 1_555 1_555
N20 C37_4 1_555 1_555
N21_3 C38_4 1_555 1_555
S5_6 C43_6 1_555 1_555
N27_4 Co2_11 1_555 1_555
N30_4 C27_4 1_555 1_555
C30_4 C36_4 1_555 1_555
C33_4 N30_4 1_555 1_555
C36_4 N13_4 1_555 1_555
C37_4 H13_4 1_555 1_555
C38_4 H14_4 1_555 1_555
C40_4 C22_4 1_555 1_555
C41_4 C23_4 1_555 1_555
H16_4 C40_4 1_555 1_555
H17_4 C41_4 1_555 1_555
C43_6 N10_6 1_555 1_555
C44_4 C22_4 1_555 1_555
C45_4 C23_4 1_555 1_555
H19_4 C44_4 1_555 1_555
H20_4 C45_4 1_555 1_555
C47_4 N20 1_555 1_555
C48_4 N21_3 1_555 1_555
H22_4 C47_4 1_555 1_555
H23_4 C48_4 1_555 1_555
C52_4 N27_4 1_555 1_555
H27_4 C52_4 1_555 1_555
C55_4 C30_4 1_555 1_555
H30_4 C55_4 1_555 1_555
H31_4 C56_4 1_555 1_555
H32_4 C57_4 1_555 1_555
H34_4 C60_4 1_555 1_555
H35_4 C61_4 1_555 1_555
C66_4 C33_4 1_555 1_555
C69_4 C66_4 1_555 1_555
H39_4 C69_4 1_555 1_555
C72_4 C66_4 1_555 1_555
H42_4 C72_4 1_555 1_555
C75_4 C72_4 1_555 1_555
H45_4 C75_4 1_555 1_555
C78_4 C69_4 1_555 1_555
H48_4 C78_4 1_555 1_555
C11_4 C12_4 1_555 1_555
N34 C21_4 1_555 1_555
C37_4 C40_4 1_555 1_555
C38_4 C41_4 1_555 1_555
C44_4 C47_4 1_555 1_555
C45_4 C48_4 1_555 1_555
C52_4 C55_4 1_555 1_555
C56_4 C60_4 1_555 1_555
C57_4 C61_4 1_555 1_555
N35_4 C75_4 1_555 1_555
N35_4 C78_4 1_555 1_555
Co2_12 N1_6 1_555 1_555
N1_6 C8_6 1_555 1_555
N20_2 C6_4 1_555 1_555
S2_6 C8_6 1_555 1_555
C6_4 H1_4 1_555 1_555
C7_4 C1_4 1_555 1_555
H2_4 C7_4 1_555 1_555
C9_4 C1_4 1_555 1_555
H3_4 C9_4 1_555 1_555
C10_4 N20_2 1_555 1_555
H4_4 C10_4 1_555 1_555
H7_4 C13_4 1_555 1_555
H8_4 C15_4 1_555 1_555
N11_4 C31_4 1_555 1_555
N12_4 C32_4 1_555 1_555
N25_4 Co2_12 1_555 1_555
N26_4 Co2_12 1_555 1_555
N28_4 C25_4 1_555 1_555
N29_4 C26_4 1_555 1_555
C28_4 C34_4 1_555 1_555
C29_4 C35_4 1_555 1_555
C31_4 N28_4 1_555 1_555
C32_4 N29_4 1_555 1_555
C34_4 N11_4 1_555 1_555
C35_4 N12_4 1_555 1_555
C39_4 N21_4 1_555 1_555
H15_4 C39_4 1_555 1_555
C42_4 C24_4 1_555 1_555
H18_4 C42_4 1_555 1_555
C46_4 C24_4 1_555 1_555
H21_4 C46_4 1_555 1_555
C49_4 N21_4 1_555 1_555
H24_4 C49_4 1_555 1_555
C50_4 N25_4 1_555 1_555
C51_4 N26_4 1_555 1_555
H25_4 C50_4 1_555 1_555
H26_4 C51_4 1_555 1_555
C53_4 C28_4 1_555 1_555
C54_4 C29_4 1_555 1_555
H28_4 C53_4 1_555 1_555
H29_4 C54_4 1_555 1_555
H33_4 C58_4 1_555 1_555
H36_4 C62_4 1_555 1_555
C64_4 C31_4 1_555 1_555
C65_4 C32_4 1_555 1_555
C67_4 C64_4 1_555 1_555
C68_4 C65_4 1_555 1_555
H37_4 C67_4 1_555 1_555
H38_4 C68_4 1_555 1_555
C70_4 C64_4 1_555 1_555
C71_4 C65_4 1_555 1_555
H40_4 C70_4 1_555 1_555
H41_4 C71_4 1_555 1_555
N34_2 C73_4 1_555 1_555
N35_3 C74_4 1_555 1_555
C73_4 C70_4 1_555 1_555
C74_4 C71_4 1_555 1_555
H43_4 C73_4 1_555 1_555
H44_4 C74_4 1_555 1_555
C76_4 C67_4 1_555 1_555
C77_4 C68_4 1_555 1_555
H46_4 C76_4 1_555 1_555
H47_4 C77_4 1_555 1_555
C6_4 C7_4 1_555 1_555
C9_4 C10_4 1_555 1_555
C13_4 C15_4 1_555 1_555
C39_4 C42_4 1_555 1_555
C46_4 C49_4 1_555 1_555
C50_4 C53_4 1_555 1_555
C51_4 C54_4 1_555 1_555
C58_4 C62_4 1_555 1_555
N34_2 C76_4 1_555 1_555
N35_3 C77_4 1_555 1_555

#END
