
###############################################################################
#
# This file contains modified crystal structure data generated from the
# MOF subset of the Cambridge Structural Database (CSD) v543 
# hosted by the Cambridge Crystallographic Data Centre (CCDC).
#
# This work is licensed under the Creative Commons
# Attribution-NonCommercial-ShareAlike 4.0 International License.
# To view a copy of this license, visit
# http://creativecommons.org/licenses/by-nc-sa/4.0/
# or send a letter to
# Creative Commons, PO Box 1866, Mountain View, CA 94042, USA.
#
# CIF created using the CSD Python API on 29 September 2022
# The structure has been converted into the P1 space group
# The structure has a 3D framework
# The original CSD entry PUZLOM is in the cubic crystal system
# The framework has been calculated to contain at least 10.0% void space
# The void calculation uses a probe of radius 1.32A, grid spacing 0.4
#
###############################################################################

data_PUZLOM
_chemical_formula_moiety         '(C648 H384 Co36 N264 S72)n'
_symmetry_cell_setting           triclinic
_symmetry_space_group_name_H-M   'P 1'
_symmetry_Int_Tables_number      1
_space_group_name_Hall           'P 1'
loop_
_symmetry_equiv_pos_site_id
_symmetry_equiv_pos_as_xyz
1 x,y,z
_cell_length_a                   37.461(5)
_cell_length_b                   37.461(5)
_cell_length_c                   37.461(5)
_cell_angle_alpha                90
_cell_angle_beta                 90
_cell_angle_gamma                90
_cell_volume                     52570
loop_
_atom_site_label
_atom_site_type_symbol
_atom_site_fract_x
_atom_site_fract_y
_atom_site_fract_z
C1 C 0.26713(19) 0.44608(17) 0.30825(16)
C2 C 0.1880(2) 0.5000 0.3120(2)
S1 S 0.15940(7) 0.5000 0.34060(7)
N1 N 0.21058(12) 0.5000 0.28942(12)
Co1 Co 0.2500 0.5000 0.2500
N2 N 0.27817(11) 0.45903(12) 0.27817(11)
H1 H 0.2468 0.4565 0.3192
C3 C 0.28377(18) 0.41737(17) 0.32541(16)
H2 H 0.2734 0.4081 0.3466
C4 C 0.31326(12) 0.40273(15) 0.31326(12)
C5 C 0.33078(13) 0.37392(15) 0.33078(13)
N3 N 0.35988(10) 0.35988(10) 0.31569(13)
C6 C 0.30825(16) 0.44608(17) 0.26713(19)
C7 C 0.44608(17) 0.26713(19) 0.30825(16)
C8 C 0.44608(17) 0.30825(16) 0.26713(19)
C9 C 0.26713(19) 0.30825(16) 0.44608(17)
C10 C 0.30825(16) 0.26713(19) 0.44608(17)
C11 C 0.30825(16) 0.55392(17) 0.26713(19)
C12 C 0.26713(19) 0.55392(17) 0.30825(16)
C13 C 0.30825(16) 0.73287(19) 0.44608(17)
C14 C 0.26713(19) 0.69175(16) 0.44608(17)
C15 C 0.44608(17) 0.69175(16) 0.26713(19)
C16 C 0.44608(17) 0.73287(19) 0.30825(16)
C17 C 0.23287(19) 0.44608(17) 0.19175(16)
C18 C 0.19175(16) 0.44608(17) 0.23287(19)
C19 C 0.05392(17) 0.26713(19) 0.19175(16)
C20 C 0.05392(17) 0.30825(16) 0.23287(19)
C21 C 0.23287(19) 0.30825(16) 0.05392(17)
C22 C 0.19175(16) 0.26713(19) 0.05392(17)
C23 C 0.19175(16) 0.55392(17) 0.23287(19)
C24 C 0.23287(19) 0.55392(17) 0.19175(16)
C25 C 0.19175(16) 0.73287(19) 0.05392(17)
C26 C 0.23287(19) 0.69175(16) 0.05392(17)
C27 C 0.05392(17) 0.69175(16) 0.23287(19)
C28 C 0.05392(17) 0.73287(19) 0.19175(16)
C29 C 0.3120(2) 0.5000 0.1880(2)
C30 C 0.5000 0.1880(2) 0.3120(2)
C31 C 0.5000 0.3120(2) 0.1880(2)
C32 C 0.1880(2) 0.3120(2) 0.5000
C33 C 0.3120(2) 0.1880(2) 0.5000
S2 S 0.34060(7) 0.5000 0.15940(7)
S3 S 0.5000 0.15940(7) 0.34060(7)
S4 S 0.5000 0.34060(7) 0.15940(7)
S5 S 0.15940(7) 0.34060(7) 0.5000
S6 S 0.34060(7) 0.15940(7) 0.5000
N4 N 0.28942(12) 0.5000 0.21058(12)
N5 N 0.5000 0.21058(12) 0.28942(12)
N6 N 0.5000 0.28942(12) 0.21058(12)
N7 N 0.21058(12) 0.28942(12) 0.5000
N8 N 0.28942(12) 0.21058(12) 0.5000
Co2 Co 0.5000 0.2500 0.2500
Co3 Co 0.2500 0.2500 0.5000
Co4 Co 0.2500 0.7500 0.5000
Co5 Co 0.5000 0.7500 0.2500
Co6 Co 0.0000 0.2500 0.2500
Co7 Co 0.2500 0.2500 0.0000
Co8 Co 0.2500 0.7500 0.0000
Co9 Co -0.0000 0.7500 0.2500
N9 N 0.45903(12) 0.27817(11) 0.27817(11)
N10 N 0.27817(11) 0.27817(11) 0.45903(12)
N11 N 0.27817(11) 0.54097(12) 0.27817(11)
N12 N 0.27817(11) 0.72183(11) 0.45903(12)
N13 N 0.45903(12) 0.72183(11) 0.27817(11)
N14 N 0.22183(11) 0.45903(12) 0.22183(11)
N15 N 0.04097(12) 0.27817(11) 0.22183(11)
N16 N 0.22183(11) 0.27817(11) 0.04097(12)
N17 N 0.22183(11) 0.54097(12) 0.22183(11)
N18 N 0.22183(11) 0.72183(11) 0.04097(12)
N19 N 0.04097(12) 0.72183(11) 0.22183(11)
N20 N 0.54097(12) 0.27817(11) 0.27817(11)
N21 N 0.45903(12) 0.22183(11) 0.22183(11)
N22 N 0.54097(12) 0.22183(11) 0.22183(11)
N23 N 0.27817(11) 0.27817(11) 0.54097(12)
N24 N 0.22183(11) 0.22183(11) 0.45903(12)
N25 N 0.22183(11) 0.22183(11) 0.54097(12)
H3 H 0.3192 0.4565 0.2468
H4 H 0.4565 0.3192 0.2468
H5 H 0.4565 0.2468 0.3192
H6 H 0.3192 0.2468 0.4565
H7 H 0.2468 0.3192 0.4565
H8 H 0.3192 0.5435 0.2468
H9 H 0.2468 0.5435 0.3192
H10 H 0.2468 0.6808 0.4565
H11 H 0.3192 0.7532 0.4565
H12 H 0.4565 0.7532 0.3192
H13 H 0.4565 0.6808 0.2468
H14 H 0.2532 0.4565 0.1808
H15 H 0.1808 0.4565 0.2532
H16 H 0.0435 0.3192 0.2532
H17 H 0.0435 0.2468 0.1808
H18 H 0.1808 0.2468 0.0435
H19 H 0.2532 0.3192 0.0435
H20 H 0.1808 0.5435 0.2532
H21 H 0.2532 0.5435 0.1808
H22 H 0.2532 0.6808 0.0435
H23 H 0.1808 0.7532 0.0435
H24 H 0.0435 0.7532 0.1808
H25 H 0.0435 0.6808 0.2532
C34 C 0.32541(16) 0.41737(17) 0.28377(18)
C35 C 0.41737(17) 0.28377(18) 0.32541(16)
C36 C 0.41737(17) 0.32541(16) 0.28377(18)
C37 C 0.28377(18) 0.32541(16) 0.41737(17)
C38 C 0.32541(16) 0.28377(18) 0.41737(17)
C39 C 0.32541(16) 0.58263(17) 0.28377(18)
C40 C 0.28377(18) 0.58263(17) 0.32541(16)
C41 C 0.32541(16) 0.71623(18) 0.41737(17)
C42 C 0.28377(18) 0.67459(16) 0.41737(17)
C43 C 0.41737(17) 0.67459(16) 0.28377(18)
C44 C 0.41737(17) 0.71623(18) 0.32541(16)
C45 C 0.21623(18) 0.41737(17) 0.17459(16)
C46 C 0.17459(16) 0.41737(17) 0.21623(18)
C47 C 0.08263(17) 0.28377(18) 0.17459(16)
C48 C 0.08263(17) 0.32541(16) 0.21623(18)
C49 C 0.21623(18) 0.32541(16) 0.08263(17)
C50 C 0.17459(16) 0.28377(18) 0.08263(17)
C51 C 0.17459(16) 0.58263(17) 0.21623(18)
C52 C 0.21623(18) 0.58263(17) 0.17459(16)
C53 C 0.17459(16) 0.71623(18) 0.08263(17)
C54 C 0.21623(18) 0.67459(16) 0.08263(17)
C55 C 0.08263(17) 0.67459(16) 0.21623(18)
C56 C 0.08263(17) 0.71623(18) 0.17459(16)
H26 H 0.3466 0.4081 0.2734
H27 H 0.4081 0.3466 0.2734
H28 H 0.4081 0.2734 0.3466
H29 H 0.3466 0.2734 0.4081
H30 H 0.2734 0.3466 0.4081
H31 H 0.3466 0.5919 0.2734
H32 H 0.2734 0.5919 0.3466
H33 H 0.2734 0.6534 0.4081
H34 H 0.3466 0.7266 0.4081
H35 H 0.4081 0.7266 0.3466
H36 H 0.4081 0.6534 0.2734
H37 H 0.2266 0.4081 0.1534
H38 H 0.1534 0.4081 0.2266
H39 H 0.0919 0.3466 0.2266
H40 H 0.0919 0.2734 0.1534
H41 H 0.1534 0.2734 0.0919
H42 H 0.2266 0.3466 0.0919
H43 H 0.1534 0.5919 0.2266
H44 H 0.2266 0.5919 0.1534
H45 H 0.2266 0.6534 0.0919
H46 H 0.1534 0.7266 0.0919
H47 H 0.0919 0.7266 0.1534
H48 H 0.0919 0.6534 0.2266
C57 C 0.40273(15) 0.31326(12) 0.31326(12)
C58 C 0.31326(12) 0.31326(12) 0.40273(15)
C59 C 0.31326(12) 0.59727(15) 0.31326(12)
C60 C 0.31326(12) 0.68674(12) 0.40273(15)
C61 C 0.40273(15) 0.68674(12) 0.31326(12)
C62 C 0.18674(12) 0.40273(15) 0.18674(12)
C63 C 0.09727(15) 0.31326(12) 0.18674(12)
C64 C 0.18674(12) 0.31326(12) 0.09727(15)
C65 C 0.18674(12) 0.59727(15) 0.18674(12)
C66 C 0.18674(12) 0.68674(12) 0.09727(15)
C67 C 0.09727(15) 0.68674(12) 0.18674(12)
C68 C 0.37392(15) 0.33078(13) 0.33078(13)
C69 C 0.33078(13) 0.33078(13) 0.37392(15)
C70 C 0.33078(13) 0.62608(15) 0.33078(13)
C71 C 0.33078(13) 0.66922(13) 0.37392(15)
C72 C 0.37392(15) 0.66922(13) 0.33078(13)
C73 C 0.16922(13) 0.37392(15) 0.16922(13)
C74 C 0.12608(15) 0.33078(13) 0.16922(13)
C75 C 0.16922(13) 0.33078(13) 0.12608(15)
C76 C 0.16922(13) 0.62608(15) 0.16922(13)
C77 C 0.16922(13) 0.66922(13) 0.12608(15)
C78 C 0.12608(15) 0.66922(13) 0.16922(13)
N26 N 0.35988(10) 0.31569(13) 0.35988(10)
N27 N 0.31569(13) 0.35988(10) 0.35988(10)
N28 N 0.31569(13) 0.64012(10) 0.35988(10)
N29 N 0.35988(10) 0.68431(13) 0.35988(10)
N30 N 0.35988(10) 0.64012(10) 0.31569(13)
N31 N 0.14012(10) 0.35988(10) 0.18431(13)
N32 N 0.14012(10) 0.31569(13) 0.14012(10)
N33 N 0.18431(13) 0.35988(10) 0.14012(10)
N34 N 0.18431(13) 0.64012(10) 0.14012(10)
N35 N 0.14012(10) 0.68431(13) 0.14012(10)
N36 N 0.14012(10) 0.64012(10) 0.18431(13)
Co7_2 Co 0.2500 0.2500 1.0000
Co8_2 Co 0.2500 0.7500 1.0000
Co6_2 Co 1.0000 0.2500 0.2500
Co9_2 Co 1.0000 0.7500 0.2500
Co8_3 Co 0.7500 0.2500 0.0000
C1_2 C 0.44608(17) 0.26713(19) 0.69175(16)
C2_2 C 0.5000 0.1880(2) 0.6880(2)
S1_2 S 0.5000 0.15940(7) 0.65940(7)
N1_2 N 0.5000 0.21058(12) 0.71058(12)
Co1_2 Co 0.5000 0.2500 0.7500
N2_2 N 0.45903(12) 0.27817(11) 0.72183(11)
H1_2 H 0.4565 0.2468 0.6808
C3_2 C 0.41737(17) 0.28377(18) 0.67459(16)
H2_2 H 0.4081 0.2734 0.6534
C4_2 C 0.40273(15) 0.31326(12) 0.68674(12)
C5_2 C 0.37392(15) 0.33078(13) 0.66922(13)
N3_2 N 0.35988(10) 0.35988(10) 0.68431(13)
C6_2 C 0.44608(17) 0.30825(16) 0.73287(19)
C7_2 C 0.26713(19) 0.44608(17) 0.69175(16)
C8_2 C 0.30825(16) 0.44608(17) 0.73287(19)
C9_2 C 0.30825(16) 0.26713(19) 0.55392(17)
C10_2 C 0.26713(19) 0.30825(16) 0.55392(17)
C11_2 C 0.55392(17) 0.30825(16) 0.73287(19)
C12_2 C 0.55392(17) 0.26713(19) 0.69175(16)
C13_2 C 0.73287(19) 0.30825(16) 0.55392(17)
C14_2 C 0.69175(16) 0.26713(19) 0.55392(17)
C15_2 C 0.69175(16) 0.44608(17) 0.73287(19)
C16_2 C 0.73287(19) 0.44608(17) 0.69175(16)
C17_2 C 0.44608(17) 0.23287(19) 0.80825(16)
C18_2 C 0.44608(17) 0.19175(16) 0.76713(19)
C19_2 C 0.26713(19) 0.05392(17) 0.80825(16)
C20_2 C 0.30825(16) 0.05392(17) 0.76713(19)
C21_2 C 0.30825(16) 0.23287(19) 0.94608(17)
C22_2 C 0.26713(19) 0.19175(16) 0.94608(17)
C23_2 C 0.55392(17) 0.19175(16) 0.76713(19)
C24_2 C 0.55392(17) 0.23287(19) 0.80825(16)
C25_2 C 0.73287(19) 0.19175(16) 0.94608(17)
C26_2 C 0.69175(16) 0.23287(19) 0.94608(17)
C27_2 C 0.69175(16) 0.05392(17) 0.76713(19)
C28_2 C 0.73287(19) 0.05392(17) 0.80825(16)
C29_2 C 0.5000 0.3120(2) 0.8120(2)
C30_2 C 0.1880(2) 0.5000 0.6880(2)
C31_2 C 0.3120(2) 0.5000 0.8120(2)
S2_2 S 0.5000 0.34060(7) 0.84060(7)
S3_2 S 0.15940(7) 0.5000 0.65940(7)
S4_2 S 0.34060(7) 0.5000 0.84060(7)
N4_2 N 0.5000 0.28942(12) 0.78942(12)
N5_2 N 0.21058(12) 0.5000 0.71058(12)
N6_2 N 0.28942(12) 0.5000 0.78942(12)
Co2_2 Co 0.2500 0.5000 0.7500
Co4_2 Co 0.7500 0.2500 0.5000
Co5_2 Co 0.7500 0.5000 0.7500
Co6_3 Co 0.2500 0.0000 0.7500
Co8_4 Co 0.7500 0.2500 1.0000
Co9_3 Co 0.7500 -0.0000 0.7500
N9_2 N 0.27817(11) 0.45903(12) 0.72183(11)
N11_2 N 0.54097(12) 0.27817(11) 0.72183(11)
N12_2 N 0.72183(11) 0.27817(11) 0.54097(12)
N13_2 N 0.72183(11) 0.45903(12) 0.72183(11)
N14_2 N 0.45903(12) 0.22183(11) 0.77817(11)
N15_2 N 0.27817(11) 0.04097(12) 0.77817(11)
N16_2 N 0.27817(11) 0.22183(11) 0.95903(12)
N17_2 N 0.54097(12) 0.22183(11) 0.77817(11)
N18_2 N 0.72183(11) 0.22183(11) 0.95903(12)
N19_2 N 0.72183(11) 0.04097(12) 0.77817(11)
N20_2 N 0.27817(11) 0.54097(12) 0.72183(11)
N21_2 N 0.22183(11) 0.45903(12) 0.77817(11)
N22_2 N 0.22183(11) 0.54097(12) 0.77817(11)
H3_2 H 0.4565 0.3192 0.7532
H4_2 H 0.3192 0.4565 0.7532
H5_2 H 0.2468 0.4565 0.6808
H6_2 H 0.2468 0.3192 0.5435
H7_2 H 0.3192 0.2468 0.5435
H8_2 H 0.5435 0.3192 0.7532
H9_2 H 0.5435 0.2468 0.6808
H10_2 H 0.6808 0.2468 0.5435
H11_2 H 0.7532 0.3192 0.5435
H12_2 H 0.7532 0.4565 0.6808
H13_2 H 0.6808 0.4565 0.7532
H14_2 H 0.4565 0.2532 0.8192
H15_2 H 0.4565 0.1808 0.7468
H16_2 H 0.3192 0.0435 0.7468
H17_2 H 0.2468 0.0435 0.8192
H18_2 H 0.2468 0.1808 0.9565
H19_2 H 0.3192 0.2532 0.9565
H20_2 H 0.5435 0.1808 0.7468
H21_2 H 0.5435 0.2532 0.8192
H22_2 H 0.6808 0.2532 0.9565
H23_2 H 0.7532 0.1808 0.9565
H24_2 H 0.7532 0.0435 0.8192
H25_2 H 0.6808 0.0435 0.7468
C34_2 C 0.41737(17) 0.32541(16) 0.71623(18)
C35_2 C 0.28377(18) 0.41737(17) 0.67459(16)
C36_2 C 0.32541(16) 0.41737(17) 0.71623(18)
C37_2 C 0.32541(16) 0.28377(18) 0.58263(17)
C38_2 C 0.28377(18) 0.32541(16) 0.58263(17)
C39_2 C 0.58263(17) 0.32541(16) 0.71623(18)
C40_2 C 0.58263(17) 0.28377(18) 0.67459(16)
C41_2 C 0.71623(18) 0.32541(16) 0.58263(17)
C42_2 C 0.67459(16) 0.28377(18) 0.58263(17)
C43_2 C 0.67459(16) 0.41737(17) 0.71623(18)
C44_2 C 0.71623(18) 0.41737(17) 0.67459(16)
C45_2 C 0.41737(17) 0.21623(18) 0.82541(16)
C46_2 C 0.41737(17) 0.17459(16) 0.78377(18)
C47_2 C 0.28377(18) 0.08263(17) 0.82541(16)
C48_2 C 0.32541(16) 0.08263(17) 0.78377(18)
C49_2 C 0.32541(16) 0.21623(18) 0.91737(17)
C50_2 C 0.28377(18) 0.17459(16) 0.91737(17)
C51_2 C 0.58263(17) 0.17459(16) 0.78377(18)
C52_2 C 0.58263(17) 0.21623(18) 0.82541(16)
C53_2 C 0.71623(18) 0.17459(16) 0.91737(17)
C54_2 C 0.67459(16) 0.21623(18) 0.91737(17)
C55_2 C 0.67459(16) 0.08263(17) 0.78377(18)
C56_2 C 0.71623(18) 0.08263(17) 0.82541(16)
H26_2 H 0.4081 0.3466 0.7266
H27_2 H 0.3466 0.4081 0.7266
H28_2 H 0.2734 0.4081 0.6534
H29_2 H 0.2734 0.3466 0.5919
H30_2 H 0.3466 0.2734 0.5919
H31_2 H 0.5919 0.3466 0.7266
H32_2 H 0.5919 0.2734 0.6534
H33_2 H 0.6534 0.2734 0.5919
H34_2 H 0.7266 0.3466 0.5919
H35_2 H 0.7266 0.4081 0.6534
H36_2 H 0.6534 0.4081 0.7266
H37_2 H 0.4081 0.2266 0.8466
H38_2 H 0.4081 0.1534 0.7734
H39_2 H 0.3466 0.0919 0.7734
H40_2 H 0.2734 0.0919 0.8466
H41_2 H 0.2734 0.1534 0.9081
H42_2 H 0.3466 0.2266 0.9081
H43_2 H 0.5919 0.1534 0.7734
H44_2 H 0.5919 0.2266 0.8466
H45_2 H 0.6534 0.2266 0.9081
H46_2 H 0.7266 0.1534 0.9081
H47_2 H 0.7266 0.0919 0.8466
H48_2 H 0.6534 0.0919 0.7734
C57_2 C 0.31326(12) 0.40273(15) 0.68674(12)
C58_2 C 0.31326(12) 0.31326(12) 0.59727(15)
C59_2 C 0.59727(15) 0.31326(12) 0.68674(12)
C60_2 C 0.68674(12) 0.31326(12) 0.59727(15)
C61_2 C 0.68674(12) 0.40273(15) 0.68674(12)
C62_2 C 0.40273(15) 0.18674(12) 0.81326(12)
C63_2 C 0.31326(12) 0.09727(15) 0.81326(12)
C64_2 C 0.31326(12) 0.18674(12) 0.90273(15)
C65_2 C 0.59727(15) 0.18674(12) 0.81326(12)
C66_2 C 0.68674(12) 0.18674(12) 0.90273(15)
C67_2 C 0.68674(12) 0.09727(15) 0.81326(12)
C68_2 C 0.33078(13) 0.37392(15) 0.66922(13)
C69_2 C 0.33078(13) 0.33078(13) 0.62608(15)
C70_2 C 0.62608(15) 0.33078(13) 0.66922(13)
C71_2 C 0.66922(13) 0.33078(13) 0.62608(15)
C72_2 C 0.66922(13) 0.37392(15) 0.66922(13)
C73_2 C 0.37392(15) 0.16922(13) 0.83078(13)
C74_2 C 0.33078(13) 0.12608(15) 0.83078(13)
C75_2 C 0.33078(13) 0.16922(13) 0.87392(15)
C76_2 C 0.62608(15) 0.16922(13) 0.83078(13)
C77_2 C 0.66922(13) 0.16922(13) 0.87392(15)
C78_2 C 0.66922(13) 0.12608(15) 0.83078(13)
N26_2 N 0.31569(13) 0.35988(10) 0.64012(10)
N27_2 N 0.35988(10) 0.31569(13) 0.64012(10)
N28_2 N 0.64012(10) 0.31569(13) 0.64012(10)
N29_2 N 0.68431(13) 0.35988(10) 0.64012(10)
N30_2 N 0.64012(10) 0.35988(10) 0.68431(13)
N31_2 N 0.35988(10) 0.14012(10) 0.81569(13)
N32_2 N 0.31569(13) 0.14012(10) 0.85988(10)
N33_2 N 0.35988(10) 0.18431(13) 0.85988(10)
N34_2 N 0.64012(10) 0.18431(13) 0.85988(10)
N35_2 N 0.68431(13) 0.14012(10) 0.85988(10)
N36_2 N 0.64012(10) 0.14012(10) 0.81569(13)
Co6_4 Co 0.2500 1.0000 0.7500
Co9_4 Co 0.7500 1.0000 0.7500
Co7_3 Co 0.2500 0.0000 0.2500
C2_3 C 0.1880(2) 0.6880(2) 0.5000
S1_3 S 0.15940(7) 0.65940(7) 0.5000
N1_3 N 0.21058(12) 0.71058(12) 0.5000
C11_3 C 0.30825(16) 0.73287(19) 0.55392(17)
C12_3 C 0.26713(19) 0.69175(16) 0.55392(17)
C13_3 C 0.30825(16) 0.55392(17) 0.73287(19)
C14_3 C 0.26713(19) 0.55392(17) 0.69175(16)
C15_3 C 0.44608(17) 0.73287(19) 0.69175(16)
C16_3 C 0.44608(17) 0.69175(16) 0.73287(19)
C17_3 C 0.23287(19) 0.80825(16) 0.44608(17)
C18_3 C 0.19175(16) 0.76713(19) 0.44608(17)
C19_3 C 0.05392(17) 0.80825(16) 0.26713(19)
C20_3 C 0.05392(17) 0.76713(19) 0.30825(16)
C21_3 C 0.23287(19) 0.94608(17) 0.30825(16)
C22_3 C 0.19175(16) 0.94608(17) 0.26713(19)
C23_3 C 0.19175(16) 0.76713(19) 0.55392(17)
C24_3 C 0.23287(19) 0.80825(16) 0.55392(17)
C25_3 C 0.19175(16) 0.94608(17) 0.73287(19)
C26_3 C 0.23287(19) 0.94608(17) 0.69175(16)
C27_3 C 0.05392(17) 0.76713(19) 0.69175(16)
C28_3 C 0.05392(17) 0.80825(16) 0.73287(19)
C29_3 C 0.3120(2) 0.8120(2) 0.5000
C30_3 C 0.5000 0.6880(2) 0.1880(2)
C31_3 C 0.5000 0.8120(2) 0.3120(2)
S2_3 S 0.34060(7) 0.84060(7) 0.5000
S3_3 S 0.5000 0.65940(7) 0.15940(7)
S4_3 S 0.5000 0.84060(7) 0.34060(7)
N4_3 N 0.28942(12) 0.78942(12) 0.5000
N5_3 N 0.5000 0.71058(12) 0.21058(12)
N6_3 N 0.5000 0.78942(12) 0.28942(12)
Co5_3 Co 0.5000 0.7500 0.7500
Co7_4 Co 0.2500 1.0000 0.2500
Co9_5 Co -0.0000 0.7500 0.7500
N11_3 N 0.27817(11) 0.72183(11) 0.54097(12)
N13_3 N 0.45903(12) 0.72183(11) 0.72183(11)
N14_3 N 0.22183(11) 0.77817(11) 0.45903(12)
N15_3 N 0.04097(12) 0.77817(11) 0.27817(11)
N16_3 N 0.22183(11) 0.95903(12) 0.27817(11)
N17_3 N 0.22183(11) 0.77817(11) 0.54097(12)
N18_3 N 0.22183(11) 0.95903(12) 0.72183(11)
N19_3 N 0.04097(12) 0.77817(11) 0.72183(11)
N20_3 N 0.54097(12) 0.72183(11) 0.27817(11)
N21_3 N 0.45903(12) 0.77817(11) 0.22183(11)
N22_3 N 0.54097(12) 0.77817(11) 0.22183(11)
H8_3 H 0.3192 0.7532 0.5435
H9_3 H 0.2468 0.6808 0.5435
H10_3 H 0.2468 0.5435 0.6808
H11_3 H 0.3192 0.5435 0.7532
H12_3 H 0.4565 0.6808 0.7532
H13_3 H 0.4565 0.7532 0.6808
H14_3 H 0.2532 0.8192 0.4565
H15_3 H 0.1808 0.7468 0.4565
H16_3 H 0.0435 0.7468 0.3192
H17_3 H 0.0435 0.8192 0.2468
H18_3 H 0.1808 0.9565 0.2468
H19_3 H 0.2532 0.9565 0.3192
H20_3 H 0.1808 0.7468 0.5435
H21_3 H 0.2532 0.8192 0.5435
H22_3 H 0.2532 0.9565 0.6808
H23_3 H 0.1808 0.9565 0.7532
H24_3 H 0.0435 0.8192 0.7532
H25_3 H 0.0435 0.7468 0.6808
C39_3 C 0.32541(16) 0.71623(18) 0.58263(17)
C40_3 C 0.28377(18) 0.67459(16) 0.58263(17)
C41_3 C 0.32541(16) 0.58263(17) 0.71623(18)
C42_3 C 0.28377(18) 0.58263(17) 0.67459(16)
C43_3 C 0.41737(17) 0.71623(18) 0.67459(16)
C44_3 C 0.41737(17) 0.67459(16) 0.71623(18)
C45_3 C 0.21623(18) 0.82541(16) 0.41737(17)
C46_3 C 0.17459(16) 0.78377(18) 0.41737(17)
C47_3 C 0.08263(17) 0.82541(16) 0.28377(18)
C48_3 C 0.08263(17) 0.78377(18) 0.32541(16)
C49_3 C 0.21623(18) 0.91737(17) 0.32541(16)
C50_3 C 0.17459(16) 0.91737(17) 0.28377(18)
C51_3 C 0.17459(16) 0.78377(18) 0.58263(17)
C52_3 C 0.21623(18) 0.82541(16) 0.58263(17)
C53_3 C 0.17459(16) 0.91737(17) 0.71623(18)
C54_3 C 0.21623(18) 0.91737(17) 0.67459(16)
C55_3 C 0.08263(17) 0.78377(18) 0.67459(16)
C56_3 C 0.08263(17) 0.82541(16) 0.71623(18)
H31_3 H 0.3466 0.7266 0.5919
H32_3 H 0.2734 0.6534 0.5919
H33_3 H 0.2734 0.5919 0.6534
H34_3 H 0.3466 0.5919 0.7266
H35_3 H 0.4081 0.6534 0.7266
H36_3 H 0.4081 0.7266 0.6534
H37_3 H 0.2266 0.8466 0.4081
H38_3 H 0.1534 0.7734 0.4081
H39_3 H 0.0919 0.7734 0.3466
H40_3 H 0.0919 0.8466 0.2734
H41_3 H 0.1534 0.9081 0.2734
H42_3 H 0.2266 0.9081 0.3466
H43_3 H 0.1534 0.7734 0.5919
H44_3 H 0.2266 0.8466 0.5919
H45_3 H 0.2266 0.9081 0.6534
H46_3 H 0.1534 0.9081 0.7266
H47_3 H 0.0919 0.8466 0.7266
H48_3 H 0.0919 0.7734 0.6534
C59_3 C 0.31326(12) 0.68674(12) 0.59727(15)
C60_3 C 0.31326(12) 0.59727(15) 0.68674(12)
C61_3 C 0.40273(15) 0.68674(12) 0.68674(12)
C62_3 C 0.18674(12) 0.81326(12) 0.40273(15)
C63_3 C 0.09727(15) 0.81326(12) 0.31326(12)
C64_3 C 0.18674(12) 0.90273(15) 0.31326(12)
C65_3 C 0.18674(12) 0.81326(12) 0.59727(15)
C66_3 C 0.18674(12) 0.90273(15) 0.68674(12)
C67_3 C 0.09727(15) 0.81326(12) 0.68674(12)
C70_3 C 0.33078(13) 0.66922(13) 0.62608(15)
C71_3 C 0.33078(13) 0.62608(15) 0.66922(13)
C72_3 C 0.37392(15) 0.66922(13) 0.66922(13)
C73_3 C 0.16922(13) 0.83078(13) 0.37392(15)
C74_3 C 0.12608(15) 0.83078(13) 0.33078(13)
C75_3 C 0.16922(13) 0.87392(15) 0.33078(13)
C76_3 C 0.16922(13) 0.83078(13) 0.62608(15)
C77_3 C 0.16922(13) 0.87392(15) 0.66922(13)
C78_3 C 0.12608(15) 0.83078(13) 0.66922(13)
N28_3 N 0.31569(13) 0.64012(10) 0.64012(10)
N29_3 N 0.35988(10) 0.64012(10) 0.68431(13)
N30_3 N 0.35988(10) 0.68431(13) 0.64012(10)
N31_3 N 0.14012(10) 0.81569(13) 0.35988(10)
N32_3 N 0.14012(10) 0.85988(10) 0.31569(13)
N33_3 N 0.18431(13) 0.85988(10) 0.35988(10)
N34_3 N 0.18431(13) 0.85988(10) 0.64012(10)
N35_3 N 0.14012(10) 0.85988(10) 0.68431(13)
N36_3 N 0.14012(10) 0.81569(13) 0.64012(10)
Co9_6 Co 1.0000 0.7500 0.7500
C1_3 C 0.69175(16) 0.44608(17) 0.26713(19)
C2_4 C 0.6880(2) 0.5000 0.1880(2)
S1_4 S 0.65940(7) 0.5000 0.15940(7)
N1_4 N 0.71058(12) 0.5000 0.21058(12)
Co1_3 Co 0.7500 0.5000 0.2500
N2_3 N 0.72183(11) 0.45903(12) 0.27817(11)
H1_3 H 0.6808 0.4565 0.2468
C3_3 C 0.67459(16) 0.41737(17) 0.28377(18)
H2_3 H 0.6534 0.4081 0.2734
C4_3 C 0.68674(12) 0.40273(15) 0.31326(12)
C5_3 C 0.66922(13) 0.37392(15) 0.33078(13)
N3_3 N 0.68431(13) 0.35988(10) 0.35988(10)
C6_3 C 0.73287(19) 0.44608(17) 0.30825(16)
C7_3 C 0.69175(16) 0.26713(19) 0.44608(17)
C8_3 C 0.73287(19) 0.30825(16) 0.44608(17)
C9_3 C 0.55392(17) 0.30825(16) 0.26713(19)
C10_3 C 0.55392(17) 0.26713(19) 0.30825(16)
C11_4 C 0.73287(19) 0.55392(17) 0.30825(16)
C12_4 C 0.69175(16) 0.55392(17) 0.26713(19)
C13_4 C 0.55392(17) 0.73287(19) 0.30825(16)
C14_4 C 0.55392(17) 0.69175(16) 0.26713(19)
C15_4 C 0.73287(19) 0.69175(16) 0.44608(17)
C16_4 C 0.69175(16) 0.73287(19) 0.44608(17)
C17_4 C 0.80825(16) 0.44608(17) 0.23287(19)
C18_4 C 0.76713(19) 0.44608(17) 0.19175(16)
C19_4 C 0.80825(16) 0.26713(19) 0.05392(17)
C20_4 C 0.76713(19) 0.30825(16) 0.05392(17)
C21_4 C 0.94608(17) 0.30825(16) 0.23287(19)
C22_4 C 0.94608(17) 0.26713(19) 0.19175(16)
C23_4 C 0.76713(19) 0.55392(17) 0.19175(16)
C24_4 C 0.80825(16) 0.55392(17) 0.23287(19)
C25_4 C 0.94608(17) 0.73287(19) 0.19175(16)
C26_4 C 0.94608(17) 0.69175(16) 0.23287(19)
C27_4 C 0.76713(19) 0.69175(16) 0.05392(17)
C28_4 C 0.80825(16) 0.73287(19) 0.05392(17)
C29_4 C 0.8120(2) 0.5000 0.3120(2)
C30_4 C 0.6880(2) 0.1880(2) 0.5000
C31_4 C 0.8120(2) 0.3120(2) 0.5000
S2_4 S 0.84060(7) 0.5000 0.34060(7)
S3_4 S 0.65940(7) 0.15940(7) 0.5000
S4_4 S 0.84060(7) 0.34060(7) 0.5000
N4_4 N 0.78942(12) 0.5000 0.28942(12)
N5_4 N 0.71058(12) 0.21058(12) 0.5000
N6_4 N 0.78942(12) 0.28942(12) 0.5000
Co5_4 Co 0.7500 0.7500 0.5000
Co9_7 Co 0.7500 0.7500 -0.0000
N9_3 N 0.72183(11) 0.27817(11) 0.45903(12)
N11_4 N 0.72183(11) 0.54097(12) 0.27817(11)
N13_4 N 0.72183(11) 0.72183(11) 0.45903(12)
N14_4 N 0.77817(11) 0.45903(12) 0.22183(11)
N15_4 N 0.77817(11) 0.27817(11) 0.04097(12)
N16_4 N 0.95903(12) 0.27817(11) 0.22183(11)
N17_4 N 0.77817(11) 0.54097(12) 0.22183(11)
N18_4 N 0.95903(12) 0.72183(11) 0.22183(11)
N19_4 N 0.77817(11) 0.72183(11) 0.04097(12)
N21_4 N 0.77817(11) 0.22183(11) 0.45903(12)
N22_4 N 0.77817(11) 0.22183(11) 0.54097(12)
H3_3 H 0.7532 0.4565 0.3192
H4_3 H 0.7532 0.3192 0.4565
H5_3 H 0.6808 0.2468 0.4565
H6_3 H 0.5435 0.2468 0.3192
H7_3 H 0.5435 0.3192 0.2468
H8_4 H 0.7532 0.5435 0.3192
H9_4 H 0.6808 0.5435 0.2468
H10_4 H 0.5435 0.6808 0.2468
H11_4 H 0.5435 0.7532 0.3192
H12_4 H 0.6808 0.7532 0.4565
H13_4 H 0.7532 0.6808 0.4565
H14_4 H 0.8192 0.4565 0.2532
H15_4 H 0.7468 0.4565 0.1808
H16_4 H 0.7468 0.3192 0.0435
H17_4 H 0.8192 0.2468 0.0435
H18_4 H 0.9565 0.2468 0.1808
H19_4 H 0.9565 0.3192 0.2532
H20_4 H 0.7468 0.5435 0.1808
H21_4 H 0.8192 0.5435 0.2532
H22_4 H 0.9565 0.6808 0.2532
H23_4 H 0.9565 0.7532 0.1808
H24_4 H 0.8192 0.7532 0.0435
H25_4 H 0.7468 0.6808 0.0435
C34_3 C 0.71623(18) 0.41737(17) 0.32541(16)
C35_3 C 0.67459(16) 0.28377(18) 0.41737(17)
C36_3 C 0.71623(18) 0.32541(16) 0.41737(17)
C37_3 C 0.58263(17) 0.32541(16) 0.28377(18)
C38_3 C 0.58263(17) 0.28377(18) 0.32541(16)
C39_4 C 0.71623(18) 0.58263(17) 0.32541(16)
C40_4 C 0.67459(16) 0.58263(17) 0.28377(18)
C41_4 C 0.58263(17) 0.71623(18) 0.32541(16)
C42_4 C 0.58263(17) 0.67459(16) 0.28377(18)
C43_4 C 0.71623(18) 0.67459(16) 0.41737(17)
C44_4 C 0.67459(16) 0.71623(18) 0.41737(17)
C45_4 C 0.82541(16) 0.41737(17) 0.21623(18)
C46_4 C 0.78377(18) 0.41737(17) 0.17459(16)
C47_4 C 0.82541(16) 0.28377(18) 0.08263(17)
C48_4 C 0.78377(18) 0.32541(16) 0.08263(17)
C49_4 C 0.91737(17) 0.32541(16) 0.21623(18)
C50_4 C 0.91737(17) 0.28377(18) 0.17459(16)
C51_4 C 0.78377(18) 0.58263(17) 0.17459(16)
C52_4 C 0.82541(16) 0.58263(17) 0.21623(18)
C53_4 C 0.91737(17) 0.71623(18) 0.17459(16)
C54_4 C 0.91737(17) 0.67459(16) 0.21623(18)
C55_4 C 0.78377(18) 0.67459(16) 0.08263(17)
C56_4 C 0.82541(16) 0.71623(18) 0.08263(17)
H26_3 H 0.7266 0.4081 0.3466
H27_3 H 0.7266 0.3466 0.4081
H28_3 H 0.6534 0.2734 0.4081
H29_3 H 0.5919 0.2734 0.3466
H30_3 H 0.5919 0.3466 0.2734
H31_4 H 0.7266 0.5919 0.3466
H32_4 H 0.6534 0.5919 0.2734
H33_4 H 0.5919 0.6534 0.2734
H34_4 H 0.5919 0.7266 0.3466
H35_4 H 0.6534 0.7266 0.4081
H36_4 H 0.7266 0.6534 0.4081
H37_4 H 0.8466 0.4081 0.2266
H38_4 H 0.7734 0.4081 0.1534
H39_4 H 0.7734 0.3466 0.0919
H40_4 H 0.8466 0.2734 0.0919
H41_4 H 0.9081 0.2734 0.1534
H42_4 H 0.9081 0.3466 0.2266
H43_4 H 0.7734 0.5919 0.1534
H44_4 H 0.8466 0.5919 0.2266
H45_4 H 0.9081 0.6534 0.2266
H46_4 H 0.9081 0.7266 0.1534
H47_4 H 0.8466 0.7266 0.0919
H48_4 H 0.7734 0.6534 0.0919
C57_3 C 0.68674(12) 0.31326(12) 0.40273(15)
C58_3 C 0.59727(15) 0.31326(12) 0.31326(12)
C59_4 C 0.68674(12) 0.59727(15) 0.31326(12)
C60_4 C 0.59727(15) 0.68674(12) 0.31326(12)
C61_4 C 0.68674(12) 0.68674(12) 0.40273(15)
C62_4 C 0.81326(12) 0.40273(15) 0.18674(12)
C63_4 C 0.81326(12) 0.31326(12) 0.09727(15)
C64_4 C 0.90273(15) 0.31326(12) 0.18674(12)
C65_4 C 0.81326(12) 0.59727(15) 0.18674(12)
C66_4 C 0.90273(15) 0.68674(12) 0.18674(12)
C67_4 C 0.81326(12) 0.68674(12) 0.09727(15)
C68_3 C 0.66922(13) 0.33078(13) 0.37392(15)
C69_3 C 0.62608(15) 0.33078(13) 0.33078(13)
C70_4 C 0.66922(13) 0.62608(15) 0.33078(13)
C71_4 C 0.62608(15) 0.66922(13) 0.33078(13)
C72_4 C 0.66922(13) 0.66922(13) 0.37392(15)
C73_4 C 0.83078(13) 0.37392(15) 0.16922(13)
C74_4 C 0.83078(13) 0.33078(13) 0.12608(15)
C75_4 C 0.87392(15) 0.33078(13) 0.16922(13)
C76_4 C 0.83078(13) 0.62608(15) 0.16922(13)
C77_4 C 0.87392(15) 0.66922(13) 0.16922(13)
C78_4 C 0.83078(13) 0.66922(13) 0.12608(15)
N26_3 N 0.64012(10) 0.31569(13) 0.35988(10)
N27_3 N 0.64012(10) 0.35988(10) 0.31569(13)
N28_4 N 0.64012(10) 0.64012(10) 0.31569(13)
N29_4 N 0.64012(10) 0.68431(13) 0.35988(10)
N30_4 N 0.68431(13) 0.64012(10) 0.35988(10)
N31_4 N 0.81569(13) 0.35988(10) 0.14012(10)
N32_4 N 0.85988(10) 0.31569(13) 0.14012(10)
N33_4 N 0.85988(10) 0.35988(10) 0.18431(13)
N34_4 N 0.85988(10) 0.64012(10) 0.18431(13)
N35_4 N 0.85988(10) 0.68431(13) 0.14012(10)
N36_4 N 0.81569(13) 0.64012(10) 0.14012(10)
Co9_8 Co 0.7500 0.7500 1.0000
C17_5 C 0.19175(16) 0.44608(17) 0.76713(19)
C18_5 C 0.23287(19) 0.44608(17) 0.80825(16)
C19_5 C 0.19175(16) 0.26713(19) 0.94608(17)
C20_5 C 0.23287(19) 0.30825(16) 0.94608(17)
C21_5 C 0.05392(17) 0.30825(16) 0.76713(19)
C22_5 C 0.05392(17) 0.26713(19) 0.80825(16)
C23_5 C 0.23287(19) 0.55392(17) 0.80825(16)
C24_5 C 0.19175(16) 0.55392(17) 0.76713(19)
C25_5 C 0.05392(17) 0.73287(19) 0.80825(16)
C26_5 C 0.05392(17) 0.69175(16) 0.76713(19)
C27_5 C 0.23287(19) 0.69175(16) 0.94608(17)
C28_5 C 0.19175(16) 0.73287(19) 0.94608(17)
Co7_5 Co -0.0000 0.2500 0.7500
N15_5 N 0.22183(11) 0.27817(11) 0.95903(12)
N16_5 N 0.04097(12) 0.27817(11) 0.77817(11)
N18_5 N 0.04097(12) 0.72183(11) 0.77817(11)
N19_5 N 0.22183(11) 0.72183(11) 0.95903(12)
H14_5 H 0.1808 0.4565 0.7468
H15_5 H 0.2532 0.4565 0.8192
H16_5 H 0.2532 0.3192 0.9565
H17_5 H 0.1808 0.2468 0.9565
H18_5 H 0.0435 0.2468 0.8192
H19_5 H 0.0435 0.3192 0.7468
H20_5 H 0.2532 0.5435 0.8192
H21_5 H 0.1808 0.5435 0.7468
H22_5 H 0.0435 0.6808 0.7468
H23_5 H 0.0435 0.7532 0.8192
H24_5 H 0.1808 0.7532 0.9565
H25_5 H 0.2532 0.6808 0.9565
C45_5 C 0.17459(16) 0.41737(17) 0.78377(18)
C46_5 C 0.21623(18) 0.41737(17) 0.82541(16)
C47_5 C 0.17459(16) 0.28377(18) 0.91737(17)
C48_5 C 0.21623(18) 0.32541(16) 0.91737(17)
C49_5 C 0.08263(17) 0.32541(16) 0.78377(18)
C50_5 C 0.08263(17) 0.28377(18) 0.82541(16)
C51_5 C 0.21623(18) 0.58263(17) 0.82541(16)
C52_5 C 0.17459(16) 0.58263(17) 0.78377(18)
C53_5 C 0.08263(17) 0.71623(18) 0.82541(16)
C54_5 C 0.08263(17) 0.67459(16) 0.78377(18)
C55_5 C 0.21623(18) 0.67459(16) 0.91737(17)
C56_5 C 0.17459(16) 0.71623(18) 0.91737(17)
H37_5 H 0.1534 0.4081 0.7734
H38_5 H 0.2266 0.4081 0.8466
H39_5 H 0.2266 0.3466 0.9081
H40_5 H 0.1534 0.2734 0.9081
H41_5 H 0.0919 0.2734 0.8466
H42_5 H 0.0919 0.3466 0.7734
H43_5 H 0.2266 0.5919 0.8466
H44_5 H 0.1534 0.5919 0.7734
H45_5 H 0.0919 0.6534 0.7734
H46_5 H 0.0919 0.7266 0.8466
H47_5 H 0.1534 0.7266 0.9081
H48_5 H 0.2266 0.6534 0.9081
C62_5 C 0.18674(12) 0.40273(15) 0.81326(12)
C63_5 C 0.18674(12) 0.31326(12) 0.90273(15)
C64_5 C 0.09727(15) 0.31326(12) 0.81326(12)
C65_5 C 0.18674(12) 0.59727(15) 0.81326(12)
C66_5 C 0.09727(15) 0.68674(12) 0.81326(12)
C67_5 C 0.18674(12) 0.68674(12) 0.90273(15)
C73_5 C 0.16922(13) 0.37392(15) 0.83078(13)
C74_5 C 0.16922(13) 0.33078(13) 0.87392(15)
C75_5 C 0.12608(15) 0.33078(13) 0.83078(13)
C76_5 C 0.16922(13) 0.62608(15) 0.83078(13)
C77_5 C 0.12608(15) 0.66922(13) 0.83078(13)
C78_5 C 0.16922(13) 0.66922(13) 0.87392(15)
N31_5 N 0.18431(13) 0.35988(10) 0.85988(10)
N32_5 N 0.14012(10) 0.31569(13) 0.85988(10)
N33_5 N 0.14012(10) 0.35988(10) 0.81569(13)
N34_5 N 0.14012(10) 0.64012(10) 0.81569(13)
N35_5 N 0.14012(10) 0.68431(13) 0.85988(10)
N36_5 N 0.18431(13) 0.64012(10) 0.85988(10)
Co7_6 Co 1.0000 0.2500 0.7500
C17_6 C 0.80825(16) 0.23287(19) 0.55392(17)
C18_6 C 0.76713(19) 0.19175(16) 0.55392(17)
C19_6 C 0.80825(16) 0.05392(17) 0.73287(19)
C20_6 C 0.76713(19) 0.05392(17) 0.69175(16)
C21_6 C 0.94608(17) 0.23287(19) 0.69175(16)
C22_6 C 0.94608(17) 0.19175(16) 0.73287(19)
C23_6 C 0.76713(19) 0.19175(16) 0.44608(17)
C24_6 C 0.80825(16) 0.23287(19) 0.44608(17)
C25_6 C 0.94608(17) 0.19175(16) 0.26713(19)
C26_6 C 0.94608(17) 0.23287(19) 0.30825(16)
C27_6 C 0.76713(19) 0.05392(17) 0.30825(16)
C28_6 C 0.80825(16) 0.05392(17) 0.26713(19)
C30_5 C 0.6880(2) 0.5000 0.8120(2)
C31_5 C 0.8120(2) 0.5000 0.6880(2)
S3_5 S 0.65940(7) 0.5000 0.84060(7)
S4_5 S 0.84060(7) 0.5000 0.65940(7)
N5_5 N 0.71058(12) 0.5000 0.78942(12)
N6_5 N 0.78942(12) 0.5000 0.71058(12)
Co9_9 Co 0.7500 -0.0000 0.2500
N15_6 N 0.77817(11) 0.04097(12) 0.72183(11)
N16_6 N 0.95903(12) 0.22183(11) 0.72183(11)
N18_6 N 0.95903(12) 0.22183(11) 0.27817(11)
N19_6 N 0.77817(11) 0.04097(12) 0.27817(11)
N20_4 N 0.72183(11) 0.54097(12) 0.72183(11)
N21_5 N 0.77817(11) 0.45903(12) 0.77817(11)
N22_5 N 0.77817(11) 0.54097(12) 0.77817(11)
H14_6 H 0.8192 0.2532 0.5435
H15_6 H 0.7468 0.1808 0.5435
H16_6 H 0.7468 0.0435 0.6808
H17_6 H 0.8192 0.0435 0.7532
H18_6 H 0.9565 0.1808 0.7532
H19_6 H 0.9565 0.2532 0.6808
H20_6 H 0.7468 0.1808 0.4565
H21_6 H 0.8192 0.2532 0.4565
H22_6 H 0.9565 0.2532 0.3192
H23_6 H 0.9565 0.1808 0.2468
H24_6 H 0.8192 0.0435 0.2468
H25_6 H 0.7468 0.0435 0.3192
C45_6 C 0.82541(16) 0.21623(18) 0.58263(17)
C46_6 C 0.78377(18) 0.17459(16) 0.58263(17)
C47_6 C 0.82541(16) 0.08263(17) 0.71623(18)
C48_6 C 0.78377(18) 0.08263(17) 0.67459(16)
C49_6 C 0.91737(17) 0.21623(18) 0.67459(16)
C50_6 C 0.91737(17) 0.17459(16) 0.71623(18)
C51_6 C 0.78377(18) 0.17459(16) 0.41737(17)
C52_6 C 0.82541(16) 0.21623(18) 0.41737(17)
C53_6 C 0.91737(17) 0.17459(16) 0.28377(18)
C54_6 C 0.91737(17) 0.21623(18) 0.32541(16)
C55_6 C 0.78377(18) 0.08263(17) 0.32541(16)
C56_6 C 0.82541(16) 0.08263(17) 0.28377(18)
H37_6 H 0.8466 0.2266 0.5919
H38_6 H 0.7734 0.1534 0.5919
H39_6 H 0.7734 0.0919 0.6534
H40_6 H 0.8466 0.0919 0.7266
H41_6 H 0.9081 0.1534 0.7266
H42_6 H 0.9081 0.2266 0.6534
H43_6 H 0.7734 0.1534 0.4081
H44_6 H 0.8466 0.2266 0.4081
H45_6 H 0.9081 0.2266 0.3466
H46_6 H 0.9081 0.1534 0.2734
H47_6 H 0.8466 0.0919 0.2734
H48_6 H 0.7734 0.0919 0.3466
C62_6 C 0.81326(12) 0.18674(12) 0.59727(15)
C63_6 C 0.81326(12) 0.09727(15) 0.68674(12)
C64_6 C 0.90273(15) 0.18674(12) 0.68674(12)
C65_6 C 0.81326(12) 0.18674(12) 0.40273(15)
C66_6 C 0.90273(15) 0.18674(12) 0.31326(12)
C67_6 C 0.81326(12) 0.09727(15) 0.31326(12)
C73_6 C 0.83078(13) 0.16922(13) 0.62608(15)
C74_6 C 0.83078(13) 0.12608(15) 0.66922(13)
C75_6 C 0.87392(15) 0.16922(13) 0.66922(13)
C76_6 C 0.83078(13) 0.16922(13) 0.37392(15)
C77_6 C 0.87392(15) 0.16922(13) 0.33078(13)
C78_6 C 0.83078(13) 0.12608(15) 0.33078(13)
N31_6 N 0.81569(13) 0.14012(10) 0.64012(10)
N32_6 N 0.85988(10) 0.14012(10) 0.68431(13)
N33_6 N 0.85988(10) 0.18431(13) 0.64012(10)
N34_6 N 0.85988(10) 0.18431(13) 0.35988(10)
N35_6 N 0.85988(10) 0.14012(10) 0.31569(13)
N36_6 N 0.81569(13) 0.14012(10) 0.35988(10)
Co9_10 Co 0.7500 1.0000 0.2500
C17_7 C 0.23287(19) 0.19175(16) 0.55392(17)
C18_7 C 0.19175(16) 0.23287(19) 0.55392(17)
C19_7 C 0.05392(17) 0.19175(16) 0.73287(19)
C20_7 C 0.05392(17) 0.23287(19) 0.69175(16)
C21_7 C 0.23287(19) 0.05392(17) 0.69175(16)
C22_7 C 0.19175(16) 0.05392(17) 0.73287(19)
C23_7 C 0.19175(16) 0.23287(19) 0.44608(17)
C24_7 C 0.23287(19) 0.19175(16) 0.44608(17)
C25_7 C 0.19175(16) 0.05392(17) 0.26713(19)
C26_7 C 0.23287(19) 0.05392(17) 0.30825(16)
C27_7 C 0.05392(17) 0.23287(19) 0.30825(16)
C28_7 C 0.05392(17) 0.19175(16) 0.26713(19)
N15_7 N 0.04097(12) 0.22183(11) 0.72183(11)
N16_7 N 0.22183(11) 0.04097(12) 0.72183(11)
N18_7 N 0.22183(11) 0.04097(12) 0.27817(11)
N19_7 N 0.04097(12) 0.22183(11) 0.27817(11)
H14_7 H 0.2532 0.1808 0.5435
H15_7 H 0.1808 0.2532 0.5435
H16_7 H 0.0435 0.2532 0.6808
H17_7 H 0.0435 0.1808 0.7532
H18_7 H 0.1808 0.0435 0.7532
H19_7 H 0.2532 0.0435 0.6808
H20_7 H 0.1808 0.2532 0.4565
H21_7 H 0.2532 0.1808 0.4565
H22_7 H 0.2532 0.0435 0.3192
H23_7 H 0.1808 0.0435 0.2468
H24_7 H 0.0435 0.1808 0.2468
H25_7 H 0.0435 0.2532 0.3192
C45_7 C 0.21623(18) 0.17459(16) 0.58263(17)
C46_7 C 0.17459(16) 0.21623(18) 0.58263(17)
C47_7 C 0.08263(17) 0.17459(16) 0.71623(18)
C48_7 C 0.08263(17) 0.21623(18) 0.67459(16)
C49_7 C 0.21623(18) 0.08263(17) 0.67459(16)
C50_7 C 0.17459(16) 0.08263(17) 0.71623(18)
C51_7 C 0.17459(16) 0.21623(18) 0.41737(17)
C52_7 C 0.21623(18) 0.17459(16) 0.41737(17)
C53_7 C 0.17459(16) 0.08263(17) 0.28377(18)
C54_7 C 0.21623(18) 0.08263(17) 0.32541(16)
C55_7 C 0.08263(17) 0.21623(18) 0.32541(16)
C56_7 C 0.08263(17) 0.17459(16) 0.28377(18)
H37_7 H 0.2266 0.1534 0.5919
H38_7 H 0.1534 0.2266 0.5919
H39_7 H 0.0919 0.2266 0.6534
H40_7 H 0.0919 0.1534 0.7266
H41_7 H 0.1534 0.0919 0.7266
H42_7 H 0.2266 0.0919 0.6534
H43_7 H 0.1534 0.2266 0.4081
H44_7 H 0.2266 0.1534 0.4081
H45_7 H 0.2266 0.0919 0.3466
H46_7 H 0.1534 0.0919 0.2734
H47_7 H 0.0919 0.1534 0.2734
H48_7 H 0.0919 0.2266 0.3466
C62_7 C 0.18674(12) 0.18674(12) 0.59727(15)
C63_7 C 0.09727(15) 0.18674(12) 0.68674(12)
C64_7 C 0.18674(12) 0.09727(15) 0.68674(12)
C65_7 C 0.18674(12) 0.18674(12) 0.40273(15)
C66_7 C 0.18674(12) 0.09727(15) 0.31326(12)
C67_7 C 0.09727(15) 0.18674(12) 0.31326(12)
C73_7 C 0.16922(13) 0.16922(13) 0.62608(15)
C74_7 C 0.12608(15) 0.16922(13) 0.66922(13)
C75_7 C 0.16922(13) 0.12608(15) 0.66922(13)
C76_7 C 0.16922(13) 0.16922(13) 0.37392(15)
C77_7 C 0.16922(13) 0.12608(15) 0.33078(13)
C78_7 C 0.12608(15) 0.16922(13) 0.33078(13)
N31_7 N 0.14012(10) 0.18431(13) 0.64012(10)
N32_7 N 0.14012(10) 0.14012(10) 0.68431(13)
N33_7 N 0.18431(13) 0.14012(10) 0.64012(10)
N34_7 N 0.18431(13) 0.14012(10) 0.35988(10)
N35_7 N 0.14012(10) 0.14012(10) 0.31569(13)
N36_7 N 0.14012(10) 0.18431(13) 0.35988(10)
C2_5 C 0.5000 0.6880(2) 0.8120(2)
S1_5 S 0.5000 0.65940(7) 0.84060(7)
N1_5 N 0.5000 0.71058(12) 0.78942(12)
C11_5 C 0.55392(17) 0.73287(19) 0.69175(16)
C12_5 C 0.55392(17) 0.69175(16) 0.73287(19)
C13_5 C 0.73287(19) 0.55392(17) 0.69175(16)
C14_5 C 0.69175(16) 0.55392(17) 0.73287(19)
C15_5 C 0.69175(16) 0.73287(19) 0.55392(17)
C16_5 C 0.73287(19) 0.69175(16) 0.55392(17)
C17_8 C 0.44608(17) 0.80825(16) 0.76713(19)
C18_8 C 0.44608(17) 0.76713(19) 0.80825(16)
C19_8 C 0.26713(19) 0.80825(16) 0.94608(17)
C20_8 C 0.30825(16) 0.76713(19) 0.94608(17)
C21_8 C 0.30825(16) 0.94608(17) 0.76713(19)
C22_8 C 0.26713(19) 0.94608(17) 0.80825(16)
C23_8 C 0.55392(17) 0.76713(19) 0.80825(16)
C24_8 C 0.55392(17) 0.80825(16) 0.76713(19)
C25_8 C 0.73287(19) 0.94608(17) 0.80825(16)
C26_8 C 0.69175(16) 0.94608(17) 0.76713(19)
C27_8 C 0.69175(16) 0.76713(19) 0.94608(17)
C28_8 C 0.73287(19) 0.80825(16) 0.94608(17)
C29_5 C 0.5000 0.8120(2) 0.6880(2)
S2_5 S 0.5000 0.84060(7) 0.65940(7)
N4_5 N 0.5000 0.78942(12) 0.71058(12)
N11_5 N 0.54097(12) 0.72183(11) 0.72183(11)
N13_5 N 0.72183(11) 0.72183(11) 0.54097(12)
N14_5 N 0.45903(12) 0.77817(11) 0.77817(11)
N15_8 N 0.27817(11) 0.77817(11) 0.95903(12)
N16_8 N 0.27817(11) 0.95903(12) 0.77817(11)
N17_5 N 0.54097(12) 0.77817(11) 0.77817(11)
N18_8 N 0.72183(11) 0.95903(12) 0.77817(11)
N19_8 N 0.72183(11) 0.77817(11) 0.95903(12)
H8_5 H 0.5435 0.7532 0.6808
H9_5 H 0.5435 0.6808 0.7532
H10_5 H 0.6808 0.5435 0.7532
H11_5 H 0.7532 0.5435 0.6808
H12_5 H 0.7532 0.6808 0.5435
H13_5 H 0.6808 0.7532 0.5435
H14_8 H 0.4565 0.8192 0.7468
H15_8 H 0.4565 0.7468 0.8192
H16_8 H 0.3192 0.7468 0.9565
H17_8 H 0.2468 0.8192 0.9565
H18_8 H 0.2468 0.9565 0.8192
H19_8 H 0.3192 0.9565 0.7468
H20_8 H 0.5435 0.7468 0.8192
H21_8 H 0.5435 0.8192 0.7468
H22_8 H 0.6808 0.9565 0.7468
H23_8 H 0.7532 0.9565 0.8192
H24_8 H 0.7532 0.8192 0.9565
H25_8 H 0.6808 0.7468 0.9565
C39_5 C 0.58263(17) 0.71623(18) 0.67459(16)
C40_5 C 0.58263(17) 0.67459(16) 0.71623(18)
C41_5 C 0.71623(18) 0.58263(17) 0.67459(16)
C42_5 C 0.67459(16) 0.58263(17) 0.71623(18)
C43_5 C 0.67459(16) 0.71623(18) 0.58263(17)
C44_5 C 0.71623(18) 0.67459(16) 0.58263(17)
C45_8 C 0.41737(17) 0.82541(16) 0.78377(18)
C46_8 C 0.41737(17) 0.78377(18) 0.82541(16)
C47_8 C 0.28377(18) 0.82541(16) 0.91737(17)
C48_8 C 0.32541(16) 0.78377(18) 0.91737(17)
C49_8 C 0.32541(16) 0.91737(17) 0.78377(18)
C50_8 C 0.28377(18) 0.91737(17) 0.82541(16)
C51_8 C 0.58263(17) 0.78377(18) 0.82541(16)
C52_8 C 0.58263(17) 0.82541(16) 0.78377(18)
C53_8 C 0.71623(18) 0.91737(17) 0.82541(16)
C54_8 C 0.67459(16) 0.91737(17) 0.78377(18)
C55_8 C 0.67459(16) 0.78377(18) 0.91737(17)
C56_8 C 0.71623(18) 0.82541(16) 0.91737(17)
H31_5 H 0.5919 0.7266 0.6534
H32_5 H 0.5919 0.6534 0.7266
H33_5 H 0.6534 0.5919 0.7266
H34_5 H 0.7266 0.5919 0.6534
H35_5 H 0.7266 0.6534 0.5919
H36_5 H 0.6534 0.7266 0.5919
H37_8 H 0.4081 0.8466 0.7734
H38_8 H 0.4081 0.7734 0.8466
H39_8 H 0.3466 0.7734 0.9081
H40_8 H 0.2734 0.8466 0.9081
H41_8 H 0.2734 0.9081 0.8466
H42_8 H 0.3466 0.9081 0.7734
H43_8 H 0.5919 0.7734 0.8466
H44_8 H 0.5919 0.8466 0.7734
H45_8 H 0.6534 0.9081 0.7734
H46_8 H 0.7266 0.9081 0.8466
H47_8 H 0.7266 0.8466 0.9081
H48_8 H 0.6534 0.7734 0.9081
C59_5 C 0.59727(15) 0.68674(12) 0.68674(12)
C60_5 C 0.68674(12) 0.59727(15) 0.68674(12)
C61_5 C 0.68674(12) 0.68674(12) 0.59727(15)
C62_8 C 0.40273(15) 0.81326(12) 0.81326(12)
C63_8 C 0.31326(12) 0.81326(12) 0.90273(15)
C64_8 C 0.31326(12) 0.90273(15) 0.81326(12)
C65_8 C 0.59727(15) 0.81326(12) 0.81326(12)
C66_8 C 0.68674(12) 0.90273(15) 0.81326(12)
C67_8 C 0.68674(12) 0.81326(12) 0.90273(15)
C70_5 C 0.62608(15) 0.66922(13) 0.66922(13)
C71_5 C 0.66922(13) 0.62608(15) 0.66922(13)
C72_5 C 0.66922(13) 0.66922(13) 0.62608(15)
C73_8 C 0.37392(15) 0.83078(13) 0.83078(13)
C74_8 C 0.33078(13) 0.83078(13) 0.87392(15)
C75_8 C 0.33078(13) 0.87392(15) 0.83078(13)
C76_8 C 0.62608(15) 0.83078(13) 0.83078(13)
C77_8 C 0.66922(13) 0.87392(15) 0.83078(13)
C78_8 C 0.66922(13) 0.83078(13) 0.87392(15)
N28_5 N 0.64012(10) 0.64012(10) 0.68431(13)
N29_5 N 0.68431(13) 0.64012(10) 0.64012(10)
N30_5 N 0.64012(10) 0.68431(13) 0.64012(10)
N31_8 N 0.35988(10) 0.81569(13) 0.85988(10)
N32_8 N 0.31569(13) 0.85988(10) 0.85988(10)
N33_8 N 0.35988(10) 0.85988(10) 0.81569(13)
N34_8 N 0.64012(10) 0.85988(10) 0.81569(13)
N35_8 N 0.68431(13) 0.85988(10) 0.85988(10)
N36_8 N 0.64012(10) 0.81569(13) 0.85988(10)
C17_9 C 0.44608(17) 0.76713(19) 0.19175(16)
C18_9 C 0.44608(17) 0.80825(16) 0.23287(19)
C19_9 C 0.26713(19) 0.94608(17) 0.19175(16)
C20_9 C 0.30825(16) 0.94608(17) 0.23287(19)
C21_9 C 0.30825(16) 0.76713(19) 0.05392(17)
C22_9 C 0.26713(19) 0.80825(16) 0.05392(17)
C23_9 C 0.55392(17) 0.80825(16) 0.23287(19)
C24_9 C 0.55392(17) 0.76713(19) 0.19175(16)
C25_9 C 0.73287(19) 0.80825(16) 0.05392(17)
C26_9 C 0.69175(16) 0.76713(19) 0.05392(17)
C27_9 C 0.69175(16) 0.94608(17) 0.23287(19)
C28_9 C 0.73287(19) 0.94608(17) 0.19175(16)
N15_9 N 0.27817(11) 0.95903(12) 0.22183(11)
N16_9 N 0.27817(11) 0.77817(11) 0.04097(12)
N18_9 N 0.72183(11) 0.77817(11) 0.04097(12)
N19_9 N 0.72183(11) 0.95903(12) 0.22183(11)
H14_9 H 0.4565 0.7468 0.1808
H15_9 H 0.4565 0.8192 0.2532
H16_9 H 0.3192 0.9565 0.2532
H17_9 H 0.2468 0.9565 0.1808
H18_9 H 0.2468 0.8192 0.0435
H19_9 H 0.3192 0.7468 0.0435
H20_9 H 0.5435 0.8192 0.2532
H21_9 H 0.5435 0.7468 0.1808
H22_9 H 0.6808 0.7468 0.0435
H23_9 H 0.7532 0.8192 0.0435
H24_9 H 0.7532 0.9565 0.1808
H25_9 H 0.6808 0.9565 0.2532
C45_9 C 0.41737(17) 0.78377(18) 0.17459(16)
C46_9 C 0.41737(17) 0.82541(16) 0.21623(18)
C47_9 C 0.28377(18) 0.91737(17) 0.17459(16)
C48_9 C 0.32541(16) 0.91737(17) 0.21623(18)
C49_9 C 0.32541(16) 0.78377(18) 0.08263(17)
C50_9 C 0.28377(18) 0.82541(16) 0.08263(17)
C51_9 C 0.58263(17) 0.82541(16) 0.21623(18)
C52_9 C 0.58263(17) 0.78377(18) 0.17459(16)
C53_9 C 0.71623(18) 0.82541(16) 0.08263(17)
C54_9 C 0.67459(16) 0.78377(18) 0.08263(17)
C55_9 C 0.67459(16) 0.91737(17) 0.21623(18)
C56_9 C 0.71623(18) 0.91737(17) 0.17459(16)
H37_9 H 0.4081 0.7734 0.1534
H38_9 H 0.4081 0.8466 0.2266
H39_9 H 0.3466 0.9081 0.2266
H40_9 H 0.2734 0.9081 0.1534
H41_9 H 0.2734 0.8466 0.0919
H42_9 H 0.3466 0.7734 0.0919
H43_9 H 0.5919 0.8466 0.2266
H44_9 H 0.5919 0.7734 0.1534
H45_9 H 0.6534 0.7734 0.0919
H46_9 H 0.7266 0.8466 0.0919
H47_9 H 0.7266 0.9081 0.1534
H48_9 H 0.6534 0.9081 0.2266
C62_9 C 0.40273(15) 0.81326(12) 0.18674(12)
C63_9 C 0.31326(12) 0.90273(15) 0.18674(12)
C64_9 C 0.31326(12) 0.81326(12) 0.09727(15)
C65_9 C 0.59727(15) 0.81326(12) 0.18674(12)
C66_9 C 0.68674(12) 0.81326(12) 0.09727(15)
C67_9 C 0.68674(12) 0.90273(15) 0.18674(12)
C73_9 C 0.37392(15) 0.83078(13) 0.16922(13)
C74_9 C 0.33078(13) 0.87392(15) 0.16922(13)
C75_9 C 0.33078(13) 0.83078(13) 0.12608(15)
C76_9 C 0.62608(15) 0.83078(13) 0.16922(13)
C77_9 C 0.66922(13) 0.83078(13) 0.12608(15)
C78_9 C 0.66922(13) 0.87392(15) 0.16922(13)
N31_9 N 0.35988(10) 0.85988(10) 0.18431(13)
N32_9 N 0.31569(13) 0.85988(10) 0.14012(10)
N33_9 N 0.35988(10) 0.81569(13) 0.14012(10)
N34_9 N 0.64012(10) 0.81569(13) 0.14012(10)
N35_9 N 0.68431(13) 0.85988(10) 0.14012(10)
N36_9 N 0.64012(10) 0.85988(10) 0.18431(13)
C32_2 C 0.8120(2) 0.6880(2) 0.5000
C33_2 C 0.6880(2) 0.8120(2) 0.5000
S5_2 S 0.84060(7) 0.65940(7) 0.5000
S6_2 S 0.65940(7) 0.84060(7) 0.5000
N7_2 N 0.78942(12) 0.71058(12) 0.5000
N8_2 N 0.71058(12) 0.78942(12) 0.5000
N24_2 N 0.77817(11) 0.77817(11) 0.45903(12)
N25_2 N 0.77817(11) 0.77817(11) 0.54097(12)
C17_10 C 0.80825(16) 0.55392(17) 0.76713(19)
C18_10 C 0.76713(19) 0.55392(17) 0.80825(16)
C19_10 C 0.80825(16) 0.73287(19) 0.94608(17)
C20_10 C 0.76713(19) 0.69175(16) 0.94608(17)
C21_10 C 0.94608(17) 0.69175(16) 0.76713(19)
C22_10 C 0.94608(17) 0.73287(19) 0.80825(16)
C23_10 C 0.76713(19) 0.44608(17) 0.80825(16)
C24_10 C 0.80825(16) 0.44608(17) 0.76713(19)
C25_10 C 0.94608(17) 0.26713(19) 0.80825(16)
C26_10 C 0.94608(17) 0.30825(16) 0.76713(19)
C27_10 C 0.76713(19) 0.30825(16) 0.94608(17)
C28_10 C 0.80825(16) 0.26713(19) 0.94608(17)
N15_10 N 0.77817(11) 0.72183(11) 0.95903(12)
N16_10 N 0.95903(12) 0.72183(11) 0.77817(11)
N18_10 N 0.95903(12) 0.27817(11) 0.77817(11)
N19_10 N 0.77817(11) 0.27817(11) 0.95903(12)
H14_10 H 0.8192 0.5435 0.7468
H15_10 H 0.7468 0.5435 0.8192
H16_10 H 0.7468 0.6808 0.9565
H17_10 H 0.8192 0.7532 0.9565
H18_10 H 0.9565 0.7532 0.8192
H19_10 H 0.9565 0.6808 0.7468
H20_10 H 0.7468 0.4565 0.8192
H21_10 H 0.8192 0.4565 0.7468
H22_10 H 0.9565 0.3192 0.7468
H23_10 H 0.9565 0.2468 0.8192
H24_10 H 0.8192 0.2468 0.9565
H25_10 H 0.7468 0.3192 0.9565
C45_10 C 0.82541(16) 0.58263(17) 0.78377(18)
C46_10 C 0.78377(18) 0.58263(17) 0.82541(16)
C47_10 C 0.82541(16) 0.71623(18) 0.91737(17)
C48_10 C 0.78377(18) 0.67459(16) 0.91737(17)
C49_10 C 0.91737(17) 0.67459(16) 0.78377(18)
C50_10 C 0.91737(17) 0.71623(18) 0.82541(16)
C51_10 C 0.78377(18) 0.41737(17) 0.82541(16)
C52_10 C 0.82541(16) 0.41737(17) 0.78377(18)
C53_10 C 0.91737(17) 0.28377(18) 0.82541(16)
C54_10 C 0.91737(17) 0.32541(16) 0.78377(18)
C55_10 C 0.78377(18) 0.32541(16) 0.91737(17)
C56_10 C 0.82541(16) 0.28377(18) 0.91737(17)
H37_10 H 0.8466 0.5919 0.7734
H38_10 H 0.7734 0.5919 0.8466
H39_10 H 0.7734 0.6534 0.9081
H40_10 H 0.8466 0.7266 0.9081
H41_10 H 0.9081 0.7266 0.8466
H42_10 H 0.9081 0.6534 0.7734
H43_10 H 0.7734 0.4081 0.8466
H44_10 H 0.8466 0.4081 0.7734
H45_10 H 0.9081 0.3466 0.7734
H46_10 H 0.9081 0.2734 0.8466
H47_10 H 0.8466 0.2734 0.9081
H48_10 H 0.7734 0.3466 0.9081
C62_10 C 0.81326(12) 0.59727(15) 0.81326(12)
C63_10 C 0.81326(12) 0.68674(12) 0.90273(15)
C64_10 C 0.90273(15) 0.68674(12) 0.81326(12)
C65_10 C 0.81326(12) 0.40273(15) 0.81326(12)
C66_10 C 0.90273(15) 0.31326(12) 0.81326(12)
C67_10 C 0.81326(12) 0.31326(12) 0.90273(15)
C73_10 C 0.83078(13) 0.62608(15) 0.83078(13)
C74_10 C 0.83078(13) 0.66922(13) 0.87392(15)
C75_10 C 0.87392(15) 0.66922(13) 0.83078(13)
C76_10 C 0.83078(13) 0.37392(15) 0.83078(13)
C77_10 C 0.87392(15) 0.33078(13) 0.83078(13)
C78_10 C 0.83078(13) 0.33078(13) 0.87392(15)
N31_10 N 0.81569(13) 0.64012(10) 0.85988(10)
N32_10 N 0.85988(10) 0.68431(13) 0.85988(10)
N33_10 N 0.85988(10) 0.64012(10) 0.81569(13)
N34_10 N 0.85988(10) 0.35988(10) 0.81569(13)
N35_10 N 0.85988(10) 0.31569(13) 0.85988(10)
N36_10 N 0.81569(13) 0.35988(10) 0.85988(10)
C2_6 C 0.1880(2) 0.0000 0.8120(2)
S1_6 S 0.15940(7) 0.0000 0.84060(7)
N1_6 N 0.21058(12) 0.0000 0.78942(12)
C29_6 C 0.3120(2) 0.0000 0.6880(2)
S2_6 S 0.34060(7) 0.0000 0.65940(7)
N4_6 N 0.28942(12) 0.0000 0.71058(12)
C32_3 C 0.1880(2) 0.8120(2) 0.0000
C33_3 C 0.3120(2) 0.6880(2) 0.0000
S5_3 S 0.15940(7) 0.84060(7) 0.0000
S6_3 S 0.34060(7) 0.65940(7) 0.0000
N7_3 N 0.21058(12) 0.78942(12) 0.0000
N8_3 N 0.28942(12) 0.71058(12) 0.0000
C2_7 C 0.1880(2) 1.0000 0.8120(2)
S1_7 S 0.15940(7) 1.0000 0.84060(7)
N1_7 N 0.21058(12) 1.0000 0.78942(12)
C29_7 C 0.3120(2) 1.0000 0.6880(2)
C32_4 C 0.1880(2) 0.8120(2) 1.0000
C33_4 C 0.3120(2) 0.6880(2) 1.0000
S2_7 S 0.34060(7) 1.0000 0.65940(7)
S5_4 S 0.15940(7) 0.84060(7) 1.0000
S6_4 S 0.34060(7) 0.65940(7) 1.0000
N4_7 N 0.28942(12) 1.0000 0.71058(12)
N7_4 N 0.21058(12) 0.78942(12) 1.0000
N8_4 N 0.28942(12) 0.71058(12) 1.0000
C30_6 C 0.1880(2) 0.0000 0.1880(2)
C31_6 C 0.3120(2) -0.0000 0.3120(2)
S3_6 S 0.15940(7) -0.0000 0.15940(7)
S4_6 S 0.34060(7) 0.0000 0.34060(7)
N5_6 N 0.21058(12) 0.0000 0.21058(12)
N6_6 N 0.28942(12) -0.0000 0.28942(12)
N20_5 N 0.27817(11) 0.04097(12) 0.22183(11)
C30_7 C 0.1880(2) 1.0000 0.1880(2)
C31_7 C 0.3120(2) 1.0000 0.3120(2)
S3_7 S 0.15940(7) 1.0000 0.15940(7)
S4_7 S 0.34060(7) 1.0000 0.34060(7)
N5_7 N 0.21058(12) 1.0000 0.21058(12)
N6_7 N 0.28942(12) 1.0000 0.28942(12)
C2_8 C 0.1880(2) 0.1880(2) 0.0000
S1_8 S 0.15940(7) 0.15940(7) 0.0000
N1_8 N 0.21058(12) 0.21058(12) 0.0000
C11_6 C 0.30825(16) 0.23287(19) 0.05392(17)
C12_6 C 0.26713(19) 0.19175(16) 0.05392(17)
C13_6 C 0.30825(16) 0.05392(17) 0.23287(19)
C14_6 C 0.26713(19) 0.05392(17) 0.19175(16)
C15_6 C 0.44608(17) 0.23287(19) 0.19175(16)
C16_6 C 0.44608(17) 0.19175(16) 0.23287(19)
C29_8 C 0.3120(2) 0.3120(2) 0.0000
S2_8 S 0.34060(7) 0.34060(7) 0.0000
N4_8 N 0.28942(12) 0.28942(12) 0.0000
N11_6 N 0.27817(11) 0.22183(11) 0.04097(12)
H8_6 H 0.3192 0.2532 0.0435
H9_6 H 0.2468 0.1808 0.0435
H10_6 H 0.2468 0.0435 0.1808
H11_6 H 0.3192 0.0435 0.2532
H12_6 H 0.4565 0.1808 0.2532
H13_6 H 0.4565 0.2532 0.1808
C39_6 C 0.32541(16) 0.21623(18) 0.08263(17)
C40_6 C 0.28377(18) 0.17459(16) 0.08263(17)
C41_6 C 0.32541(16) 0.08263(17) 0.21623(18)
C42_6 C 0.28377(18) 0.08263(17) 0.17459(16)
C43_6 C 0.41737(17) 0.21623(18) 0.17459(16)
C44_6 C 0.41737(17) 0.17459(16) 0.21623(18)
H31_6 H 0.3466 0.2266 0.0919
H32_6 H 0.2734 0.1534 0.0919
H33_6 H 0.2734 0.0919 0.1534
H34_6 H 0.3466 0.0919 0.2266
H35_6 H 0.4081 0.1534 0.2266
H36_6 H 0.4081 0.2266 0.1534
C59_6 C 0.31326(12) 0.18674(12) 0.09727(15)
C60_6 C 0.31326(12) 0.09727(15) 0.18674(12)
C61_6 C 0.40273(15) 0.18674(12) 0.18674(12)
C70_6 C 0.33078(13) 0.16922(13) 0.12608(15)
C71_6 C 0.33078(13) 0.12608(15) 0.16922(13)
C72_6 C 0.37392(15) 0.16922(13) 0.16922(13)
N28_6 N 0.31569(13) 0.14012(10) 0.14012(10)
N29_6 N 0.35988(10) 0.14012(10) 0.18431(13)
N30_6 N 0.35988(10) 0.18431(13) 0.14012(10)
C2_9 C 0.1880(2) 0.1880(2) 1.0000
S1_9 S 0.15940(7) 0.15940(7) 1.0000
N1_9 N 0.21058(12) 0.21058(12) 1.0000
C29_9 C 0.3120(2) 0.3120(2) 1.0000
S2_9 S 0.34060(7) 0.34060(7) 1.0000
N4_9 N 0.28942(12) 0.28942(12) 1.0000
C2_10 C 0.6880(2) 0.0000 0.6880(2)
S1_10 S 0.65940(7) 0.0000 0.65940(7)
N1_10 N 0.71058(12) 0.0000 0.71058(12)
C29_10 C 0.8120(2) 0.0000 0.8120(2)
S2_10 S 0.84060(7) 0.0000 0.84060(7)
N4_10 N 0.78942(12) 0.0000 0.78942(12)
C30_8 C 0.6880(2) 0.6880(2) 0.0000
C31_8 C 0.8120(2) 0.8120(2) 0.0000
S3_8 S 0.65940(7) 0.65940(7) 0.0000
S4_8 S 0.84060(7) 0.84060(7) 0.0000
N5_8 N 0.71058(12) 0.71058(12) 0.0000
N6_8 N 0.78942(12) 0.78942(12) 0.0000
C2_11 C 0.6880(2) 1.0000 0.6880(2)
S1_11 S 0.65940(7) 1.0000 0.65940(7)
N1_11 N 0.71058(12) 1.0000 0.71058(12)
C17_11 C 0.80825(16) 0.94608(17) 0.73287(19)
C18_11 C 0.76713(19) 0.94608(17) 0.69175(16)
C19_11 C 0.80825(16) 0.76713(19) 0.55392(17)
C20_11 C 0.76713(19) 0.80825(16) 0.55392(17)
C21_11 C 0.94608(17) 0.80825(16) 0.73287(19)
C22_11 C 0.94608(17) 0.76713(19) 0.69175(16)
C29_11 C 0.8120(2) 1.0000 0.8120(2)
C30_9 C 0.6880(2) 0.6880(2) 1.0000
C31_9 C 0.8120(2) 0.8120(2) 1.0000
S2_11 S 0.84060(7) 1.0000 0.84060(7)
S3_9 S 0.65940(7) 0.65940(7) 1.0000
S4_9 S 0.84060(7) 0.84060(7) 1.0000
N4_11 N 0.78942(12) 1.0000 0.78942(12)
N5_9 N 0.71058(12) 0.71058(12) 1.0000
N6_9 N 0.78942(12) 0.78942(12) 1.0000
N14_6 N 0.77817(11) 0.95903(12) 0.72183(11)
N16_11 N 0.95903(12) 0.77817(11) 0.72183(11)
H14_11 H 0.8192 0.9565 0.7532
H15_11 H 0.7468 0.9565 0.6808
H16_11 H 0.7468 0.8192 0.5435
H17_11 H 0.8192 0.7468 0.5435
H18_11 H 0.9565 0.7468 0.6808
H19_11 H 0.9565 0.8192 0.7532
C45_11 C 0.82541(16) 0.91737(17) 0.71623(18)
C46_11 C 0.78377(18) 0.91737(17) 0.67459(16)
C47_11 C 0.82541(16) 0.78377(18) 0.58263(17)
C48_11 C 0.78377(18) 0.82541(16) 0.58263(17)
C49_11 C 0.91737(17) 0.82541(16) 0.71623(18)
C50_11 C 0.91737(17) 0.78377(18) 0.67459(16)
H37_11 H 0.8466 0.9081 0.7266
H38_11 H 0.7734 0.9081 0.6534
H39_11 H 0.7734 0.8466 0.5919
H40_11 H 0.8466 0.7734 0.5919
H41_11 H 0.9081 0.7734 0.6534
H42_11 H 0.9081 0.8466 0.7266
C62_11 C 0.81326(12) 0.90273(15) 0.68674(12)
C63_11 C 0.81326(12) 0.81326(12) 0.59727(15)
C64_11 C 0.90273(15) 0.81326(12) 0.68674(12)
C73_11 C 0.83078(13) 0.87392(15) 0.66922(13)
C74_11 C 0.83078(13) 0.83078(13) 0.62608(15)
C75_11 C 0.87392(15) 0.83078(13) 0.66922(13)
N31_11 N 0.81569(13) 0.85988(10) 0.64012(10)
N32_11 N 0.85988(10) 0.81569(13) 0.64012(10)
N33_11 N 0.85988(10) 0.85988(10) 0.68431(13)
C30_10 C 0.6880(2) -0.0000 0.3120(2)
C31_10 C 0.8120(2) 0.0000 0.1880(2)
S3_10 S 0.65940(7) 0.0000 0.34060(7)
S4_10 S 0.84060(7) -0.0000 0.15940(7)
N5_10 N 0.71058(12) -0.0000 0.28942(12)
N6_10 N 0.78942(12) 0.0000 0.21058(12)
N20_6 N 0.72183(11) 0.04097(12) 0.22183(11)
C30_11 C 0.6880(2) 1.0000 0.3120(2)
C31_11 C 0.8120(2) 1.0000 0.1880(2)
S3_11 S 0.65940(7) 1.0000 0.34060(7)
S4_11 S 0.84060(7) 1.0000 0.15940(7)
N5_11 N 0.71058(12) 1.0000 0.28942(12)
N6_11 N 0.78942(12) 1.0000 0.21058(12)
N21_6 N 0.77817(11) 0.95903(12) 0.27817(11)
C11_7 C 0.55392(17) 0.23287(19) 0.19175(16)
C12_7 C 0.55392(17) 0.19175(16) 0.23287(19)
C13_7 C 0.73287(19) 0.05392(17) 0.19175(16)
C14_7 C 0.69175(16) 0.05392(17) 0.23287(19)
C15_7 C 0.69175(16) 0.23287(19) 0.05392(17)
C16_7 C 0.73287(19) 0.19175(16) 0.05392(17)
N13_6 N 0.72183(11) 0.22183(11) 0.04097(12)
H8_7 H 0.5435 0.2532 0.1808
H9_7 H 0.5435 0.1808 0.2532
H10_7 H 0.6808 0.0435 0.2532
H11_7 H 0.7532 0.0435 0.1808
H12_7 H 0.7532 0.1808 0.0435
H13_7 H 0.6808 0.2532 0.0435
C39_7 C 0.58263(17) 0.21623(18) 0.17459(16)
C40_7 C 0.58263(17) 0.17459(16) 0.21623(18)
C41_7 C 0.71623(18) 0.08263(17) 0.17459(16)
C42_7 C 0.67459(16) 0.08263(17) 0.21623(18)
C43_7 C 0.67459(16) 0.21623(18) 0.08263(17)
C44_7 C 0.71623(18) 0.17459(16) 0.08263(17)
H31_7 H 0.5919 0.2266 0.1534
H32_7 H 0.5919 0.1534 0.2266
H33_7 H 0.6534 0.0919 0.2266
H34_7 H 0.7266 0.0919 0.1534
H35_7 H 0.7266 0.1534 0.0919
H36_7 H 0.6534 0.2266 0.0919
C59_7 C 0.59727(15) 0.18674(12) 0.18674(12)
C60_7 C 0.68674(12) 0.09727(15) 0.18674(12)
C61_7 C 0.68674(12) 0.18674(12) 0.09727(15)
C70_7 C 0.62608(15) 0.16922(13) 0.16922(13)
C71_7 C 0.66922(13) 0.12608(15) 0.16922(13)
C72_7 C 0.66922(13) 0.16922(13) 0.12608(15)
N28_7 N 0.64012(10) 0.14012(10) 0.18431(13)
N29_7 N 0.68431(13) 0.14012(10) 0.14012(10)
N30_7 N 0.64012(10) 0.18431(13) 0.14012(10)
C32_5 C 0.8120(2) 0.1880(2) 0.0000
C33_5 C 0.6880(2) 0.3120(2) 0.0000
S5_5 S 0.84060(7) 0.15940(7) 0.0000
S6_5 S 0.65940(7) 0.34060(7) 0.0000
N7_5 N 0.78942(12) 0.21058(12) 0.0000
N8_5 N 0.71058(12) 0.28942(12) 0.0000
C32_6 C 0.8120(2) 0.1880(2) 1.0000
C33_6 C 0.6880(2) 0.3120(2) 1.0000
S5_6 S 0.84060(7) 0.15940(7) 1.0000
S6_6 S 0.65940(7) 0.34060(7) 1.0000
N7_6 N 0.78942(12) 0.21058(12) 1.0000
N8_6 N 0.71058(12) 0.28942(12) 1.0000
C23_11 C 0.76713(19) 0.94608(17) 0.30825(16)
C24_11 C 0.80825(16) 0.94608(17) 0.26713(19)
C25_11 C 0.94608(17) 0.76713(19) 0.30825(16)
C26_11 C 0.94608(17) 0.80825(16) 0.26713(19)
C27_11 C 0.76713(19) 0.80825(16) 0.44608(17)
C28_11 C 0.80825(16) 0.76713(19) 0.44608(17)
N18_11 N 0.95903(12) 0.77817(11) 0.27817(11)
H20_11 H 0.7468 0.9565 0.3192
H21_11 H 0.8192 0.9565 0.2468
H22_11 H 0.9565 0.8192 0.2468
H23_11 H 0.9565 0.7468 0.3192
H24_11 H 0.8192 0.7468 0.4565
H25_11 H 0.7468 0.8192 0.4565
C51_11 C 0.78377(18) 0.91737(17) 0.32541(16)
C52_11 C 0.82541(16) 0.91737(17) 0.28377(18)
C53_11 C 0.91737(17) 0.78377(18) 0.32541(16)
C54_11 C 0.91737(17) 0.82541(16) 0.28377(18)
C55_11 C 0.78377(18) 0.82541(16) 0.41737(17)
C56_11 C 0.82541(16) 0.78377(18) 0.41737(17)
H43_11 H 0.7734 0.9081 0.3466
H44_11 H 0.8466 0.9081 0.2734
H45_11 H 0.9081 0.8466 0.2734
H46_11 H 0.9081 0.7734 0.3466
H47_11 H 0.8466 0.7734 0.4081
H48_11 H 0.7734 0.8466 0.4081
C65_11 C 0.81326(12) 0.90273(15) 0.31326(12)
C66_11 C 0.90273(15) 0.81326(12) 0.31326(12)
C67_11 C 0.81326(12) 0.81326(12) 0.40273(15)
C76_11 C 0.83078(13) 0.87392(15) 0.33078(13)
C77_11 C 0.87392(15) 0.83078(13) 0.33078(13)
C78_11 C 0.83078(13) 0.83078(13) 0.37392(15)
N34_11 N 0.85988(10) 0.85988(10) 0.31569(13)
N35_11 N 0.85988(10) 0.81569(13) 0.35988(10)
N36_11 N 0.81569(13) 0.85988(10) 0.35988(10)
C30_12 C -0.0000 0.1880(2) 0.8120(2)
C31_12 C -0.0000 0.3120(2) 0.6880(2)
S3_12 S -0.0000 0.15940(7) 0.84060(7)
S4_12 S -0.0000 0.34060(7) 0.65940(7)
N5_12 N -0.0000 0.21058(12) 0.78942(12)
N6_12 N -0.0000 0.28942(12) 0.71058(12)
C30_13 C 1.0000 0.1880(2) 0.8120(2)
C31_13 C 1.0000 0.3120(2) 0.6880(2)
S3_13 S 1.0000 0.15940(7) 0.84060(7)
S4_13 S 1.0000 0.34060(7) 0.65940(7)
N5_13 N 1.0000 0.21058(12) 0.78942(12)
N6_13 N 1.0000 0.28942(12) 0.71058(12)
C2_12 C 0.0000 0.1880(2) 0.1880(2)
S1_12 S -0.0000 0.15940(7) 0.15940(7)
N1_12 N 0.0000 0.21058(12) 0.21058(12)
C29_12 C -0.0000 0.3120(2) 0.3120(2)
S2_12 S 0.0000 0.34060(7) 0.34060(7)
N4_12 N -0.0000 0.28942(12) 0.28942(12)
C2_13 C 1.0000 0.1880(2) 0.1880(2)
S1_13 S 1.0000 0.15940(7) 0.15940(7)
N1_13 N 1.0000 0.21058(12) 0.21058(12)
C29_13 C 1.0000 0.3120(2) 0.3120(2)
S2_13 S 1.0000 0.34060(7) 0.34060(7)
N4_13 N 1.0000 0.28942(12) 0.28942(12)
C30_14 C 0.0000 0.6880(2) 0.6880(2)
C31_14 C -0.0000 0.8120(2) 0.8120(2)
S3_14 S 0.0000 0.65940(7) 0.65940(7)
S4_14 S -0.0000 0.84060(7) 0.84060(7)
N5_14 N 0.0000 0.71058(12) 0.71058(12)
N6_14 N -0.0000 0.78942(12) 0.78942(12)
C30_15 C 1.0000 0.6880(2) 0.6880(2)
C31_15 C 1.0000 0.8120(2) 0.8120(2)
S3_15 S 1.0000 0.65940(7) 0.65940(7)
S4_15 S 1.0000 0.84060(7) 0.84060(7)
N5_15 N 1.0000 0.71058(12) 0.71058(12)
N6_15 N 1.0000 0.78942(12) 0.78942(12)
C2_14 C -0.0000 0.6880(2) 0.3120(2)
S1_14 S -0.0000 0.65940(7) 0.34060(7)
N1_14 N -0.0000 0.71058(12) 0.28942(12)
C29_14 C -0.0000 0.8120(2) 0.1880(2)
S2_14 S -0.0000 0.84060(7) 0.15940(7)
N4_14 N -0.0000 0.78942(12) 0.21058(12)
C2_15 C 1.0000 0.6880(2) 0.3120(2)
S1_15 S 1.0000 0.65940(7) 0.34060(7)
N1_15 N 1.0000 0.71058(12) 0.28942(12)
C29_15 C 1.0000 0.8120(2) 0.1880(2)
S2_15 S 1.0000 0.84060(7) 0.15940(7)
N4_15 N 1.0000 0.78942(12) 0.21058(12)
loop_
_geom_bond_atom_site_label_1
_geom_bond_atom_site_label_2
_geom_bond_site_symmetry_1
_geom_bond_site_symmetry_2
C1 N2 1_555 1_555
C2 S1 1_555 1_555
N1 C2 1_555 1_555
Co1 N1 1_555 1_555
N2 Co1 1_555 1_555
H1 C1 1_555 1_555
C3 C1 1_555 1_555
H2 C3 1_555 1_555
C4 C3 1_555 1_555
C5 C4 1_555 1_555
N3 C5 1_555 1_555
C6 N2 1_555 1_555
C7 N9 1_555 1_555
C8 N9 1_555 1_555
C9 N10 1_555 1_555
C10 N10 1_555 1_555
C11 N11 1_555 1_555
C12 N11 1_555 1_555
C13 N12 1_555 1_555
C14 N12 1_555 1_555
C15 N13 1_555 1_555
C16 N13 1_555 1_555
C17 N14 1_555 1_555
C18 N14 1_555 1_555
C19 N15 1_555 1_555
C20 N15 1_555 1_555
C21 N16 1_555 1_555
C22 N16 1_555 1_555
C23 N17 1_555 1_555
C24 N17 1_555 1_555
C25 N18 1_555 1_555
C26 N18 1_555 1_555
C27 N19 1_555 1_555
C28 N19 1_555 1_555
C29 S2 1_555 1_555
C30 S3 1_555 1_555
C31 S4 1_555 1_555
C32 S5 1_555 1_555
C33 S6 1_555 1_555
N4 Co1 1_555 1_555
N5 C30 1_555 1_555
N6 C31 1_555 1_555
N7 C32 1_555 1_555
N8 C33 1_555 1_555
Co2 N5 1_555 1_555
Co3 N7 1_555 1_555
Co4 N12 1_555 1_555
Co5 N13 1_555 1_555
Co6 N15 1_555 1_555
Co7 N16 1_555 1_555
Co8 N18 1_555 1_555
Co9 N19 1_555 1_555
N9 Co2 1_555 1_555
N10 Co3 1_555 1_555
N11 Co1 1_555 1_555
N14 Co1 1_555 1_555
N17 Co1 1_555 1_555
N20 Co2 1_555 1_555
N21 Co2 1_555 1_555
N22 Co2 1_555 1_555
N23 Co3 1_555 1_555
N24 Co3 1_555 1_555
N25 Co3 1_555 1_555
H3 C6 1_555 1_555
H4 C8 1_555 1_555
H5 C7 1_555 1_555
H6 C10 1_555 1_555
H7 C9 1_555 1_555
H8 C11 1_555 1_555
H9 C12 1_555 1_555
H10 C14 1_555 1_555
H11 C13 1_555 1_555
H12 C16 1_555 1_555
H13 C15 1_555 1_555
H14 C17 1_555 1_555
H15 C18 1_555 1_555
H16 C20 1_555 1_555
H17 C19 1_555 1_555
H18 C22 1_555 1_555
H19 C21 1_555 1_555
H20 C23 1_555 1_555
H21 C24 1_555 1_555
H22 C26 1_555 1_555
H23 C25 1_555 1_555
H24 C28 1_555 1_555
H25 C27 1_555 1_555
C34 C4 1_555 1_555
C35 C7 1_555 1_555
C36 C8 1_555 1_555
C37 C9 1_555 1_555
C38 C10 1_555 1_555
C39 C11 1_555 1_555
C40 C12 1_555 1_555
C41 C13 1_555 1_555
C42 C14 1_555 1_555
C43 C15 1_555 1_555
C44 C16 1_555 1_555
C45 C17 1_555 1_555
C46 C18 1_555 1_555
C47 C19 1_555 1_555
C48 C20 1_555 1_555
C49 C21 1_555 1_555
C50 C22 1_555 1_555
C51 C23 1_555 1_555
C52 C24 1_555 1_555
C53 C25 1_555 1_555
C54 C26 1_555 1_555
C55 C27 1_555 1_555
C56 C28 1_555 1_555
H26 C34 1_555 1_555
H27 C36 1_555 1_555
H28 C35 1_555 1_555
H29 C38 1_555 1_555
H30 C37 1_555 1_555
H31 C39 1_555 1_555
H32 C40 1_555 1_555
H33 C42 1_555 1_555
H34 C41 1_555 1_555
H35 C44 1_555 1_555
H36 C43 1_555 1_555
H37 C45 1_555 1_555
H38 C46 1_555 1_555
H39 C48 1_555 1_555
H40 C47 1_555 1_555
H41 C50 1_555 1_555
H42 C49 1_555 1_555
H43 C51 1_555 1_555
H44 C52 1_555 1_555
H45 C54 1_555 1_555
H46 C53 1_555 1_555
H47 C56 1_555 1_555
H48 C55 1_555 1_555
C57 C35 1_555 1_555
C58 C37 1_555 1_555
C59 C39 1_555 1_555
C60 C41 1_555 1_555
C61 C43 1_555 1_555
C62 C45 1_555 1_555
C63 C47 1_555 1_555
C64 C49 1_555 1_555
C65 C51 1_555 1_555
C66 C53 1_555 1_555
C67 C55 1_555 1_555
C68 N3 1_555 1_555
C69 C58 1_555 1_555
C70 C59 1_555 1_555
C71 C60 1_555 1_555
C72 C61 1_555 1_555
C73 C62 1_555 1_555
C74 C63 1_555 1_555
C75 C64 1_555 1_555
C76 C65 1_555 1_555
C77 C66 1_555 1_555
C78 C67 1_555 1_555
N26 C68 1_555 1_555
N27 C5 1_555 1_555
N28 C70 1_555 1_555
N29 C71 1_555 1_555
N30 C70 1_555 1_555
N31 C73 1_555 1_555
N32 C74 1_555 1_555
N33 C73 1_555 1_555
N34 C76 1_555 1_555
N35 C77 1_555 1_555
N36 C76 1_555 1_555
C6 C34 1_555 1_555
C29 N4 1_555 1_555
N6 Co2 1_555 1_555
N8 Co3 1_555 1_555
C36 C57 1_555 1_555
C38 C58 1_555 1_555
C40 C59 1_555 1_555
C42 C60 1_555 1_555
C44 C61 1_555 1_555
C46 C62 1_555 1_555
C48 C63 1_555 1_555
C50 C64 1_555 1_555
C52 C65 1_555 1_555
C54 C66 1_555 1_555
C56 C67 1_555 1_555
C57 C68 1_555 1_555
C69 N26 1_555 1_555
C69 N27 1_555 1_555
C71 N28 1_555 1_555
C72 N29 1_555 1_555
C72 N30 1_555 1_555
C74 N31 1_555 1_555
C75 N32 1_555 1_555
C75 N33 1_555 1_555
C77 N34 1_555 1_555
C78 N35 1_555 1_555
C78 N36 1_555 1_555
C1_2 N2_2 1_555 1_555
C2_2 S1_2 1_555 1_555
N1_2 C2_2 1_555 1_555
Co1_2 N1_2 1_555 1_555
N2_2 Co1_2 1_555 1_555
H1_2 C1_2 1_555 1_555
C3_2 C1_2 1_555 1_555
H2_2 C3_2 1_555 1_555
C4_2 C3_2 1_555 1_555
C5_2 C4_2 1_555 1_555
N3_2 C5_2 1_555 1_555
C6_2 N2_2 1_555 1_555
C7_2 N9_2 1_555 1_555
C8_2 N9_2 1_555 1_555
C9_2 N23 1_555 1_555
C10_2 N23 1_555 1_555
C11_2 N11_2 1_555 1_555
C12_2 N11_2 1_555 1_555
C13_2 N12_2 1_555 1_555
C14_2 N12_2 1_555 1_555
C15_2 N13_2 1_555 1_555
C16_2 N13_2 1_555 1_555
C17_2 N14_2 1_555 1_555
C18_2 N14_2 1_555 1_555
C19_2 N15_2 1_555 1_555
C20_2 N15_2 1_555 1_555
C21_2 N16_2 1_555 1_555
C22_2 N16_2 1_555 1_555
C23_2 N17_2 1_555 1_555
C24_2 N17_2 1_555 1_555
C25_2 N18_2 1_555 1_555
C26_2 N18_2 1_555 1_555
C27_2 N19_2 1_555 1_555
C28_2 N19_2 1_555 1_555
C29_2 S2_2 1_555 1_555
C30_2 S3_2 1_555 1_555
C31_2 S4_2 1_555 1_555
N4_2 Co1_2 1_555 1_555
N5_2 C30_2 1_555 1_555
N6_2 C31_2 1_555 1_555
Co2_2 N5_2 1_555 1_555
Co4_2 N12_2 1_555 1_555
Co5_2 N13_2 1_555 1_555
Co6_3 N15_2 1_555 1_555
Co7_2 N16_2 1_555 1_555
Co8_4 N18_2 1_555 1_555
Co9_3 N19_2 1_555 1_555
N9_2 Co2_2 1_555 1_555
N11_2 Co1_2 1_555 1_555
N14_2 Co1_2 1_555 1_555
N17_2 Co1_2 1_555 1_555
N20_2 Co2_2 1_555 1_555
N21_2 Co2_2 1_555 1_555
N22_2 Co2_2 1_555 1_555
H3_2 C6_2 1_555 1_555
H4_2 C8_2 1_555 1_555
H5_2 C7_2 1_555 1_555
H6_2 C10_2 1_555 1_555
H7_2 C9_2 1_555 1_555
H8_2 C11_2 1_555 1_555
H9_2 C12_2 1_555 1_555
H10_2 C14_2 1_555 1_555
H11_2 C13_2 1_555 1_555
H12_2 C16_2 1_555 1_555
H13_2 C15_2 1_555 1_555
H14_2 C17_2 1_555 1_555
H15_2 C18_2 1_555 1_555
H16_2 C20_2 1_555 1_555
H17_2 C19_2 1_555 1_555
H18_2 C22_2 1_555 1_555
H19_2 C21_2 1_555 1_555
H20_2 C23_2 1_555 1_555
H21_2 C24_2 1_555 1_555
H22_2 C26_2 1_555 1_555
H23_2 C25_2 1_555 1_555
H24_2 C28_2 1_555 1_555
H25_2 C27_2 1_555 1_555
C34_2 C4_2 1_555 1_555
C35_2 C7_2 1_555 1_555
C36_2 C8_2 1_555 1_555
C37_2 C9_2 1_555 1_555
C38_2 C10_2 1_555 1_555
C39_2 C11_2 1_555 1_555
C40_2 C12_2 1_555 1_555
C41_2 C13_2 1_555 1_555
C42_2 C14_2 1_555 1_555
C43_2 C15_2 1_555 1_555
C44_2 C16_2 1_555 1_555
C45_2 C17_2 1_555 1_555
C46_2 C18_2 1_555 1_555
C47_2 C19_2 1_555 1_555
C48_2 C20_2 1_555 1_555
C49_2 C21_2 1_555 1_555
C50_2 C22_2 1_555 1_555
C51_2 C23_2 1_555 1_555
C52_2 C24_2 1_555 1_555
C53_2 C25_2 1_555 1_555
C54_2 C26_2 1_555 1_555
C55_2 C27_2 1_555 1_555
C56_2 C28_2 1_555 1_555
H26_2 C34_2 1_555 1_555
H27_2 C36_2 1_555 1_555
H28_2 C35_2 1_555 1_555
H29_2 C38_2 1_555 1_555
H30_2 C37_2 1_555 1_555
H31_2 C39_2 1_555 1_555
H32_2 C40_2 1_555 1_555
H33_2 C42_2 1_555 1_555
H34_2 C41_2 1_555 1_555
H35_2 C44_2 1_555 1_555
H36_2 C43_2 1_555 1_555
H37_2 C45_2 1_555 1_555
H38_2 C46_2 1_555 1_555
H39_2 C48_2 1_555 1_555
H40_2 C47_2 1_555 1_555
H41_2 C50_2 1_555 1_555
H42_2 C49_2 1_555 1_555
H43_2 C51_2 1_555 1_555
H44_2 C52_2 1_555 1_555
H45_2 C54_2 1_555 1_555
H46_2 C53_2 1_555 1_555
H47_2 C56_2 1_555 1_555
H48_2 C55_2 1_555 1_555
C57_2 C35_2 1_555 1_555
C58_2 C37_2 1_555 1_555
C59_2 C39_2 1_555 1_555
C60_2 C41_2 1_555 1_555
C61_2 C43_2 1_555 1_555
C62_2 C45_2 1_555 1_555
C63_2 C47_2 1_555 1_555
C64_2 C49_2 1_555 1_555
C65_2 C51_2 1_555 1_555
C66_2 C53_2 1_555 1_555
C67_2 C55_2 1_555 1_555
C68_2 N3_2 1_555 1_555
C69_2 C58_2 1_555 1_555
C70_2 C59_2 1_555 1_555
C71_2 C60_2 1_555 1_555
C72_2 C61_2 1_555 1_555
C73_2 C62_2 1_555 1_555
C74_2 C63_2 1_555 1_555
C75_2 C64_2 1_555 1_555
C76_2 C65_2 1_555 1_555
C77_2 C66_2 1_555 1_555
C78_2 C67_2 1_555 1_555
N26_2 C68_2 1_555 1_555
N27_2 C5_2 1_555 1_555
N28_2 C70_2 1_555 1_555
N29_2 C71_2 1_555 1_555
N30_2 C70_2 1_555 1_555
N31_2 C73_2 1_555 1_555
N32_2 C74_2 1_555 1_555
N33_2 C73_2 1_555 1_555
N34_2 C76_2 1_555 1_555
N35_2 C77_2 1_555 1_555
N36_2 C76_2 1_555 1_555
C6_2 C34_2 1_555 1_555
C29_2 N4_2 1_555 1_555
N6_2 Co2_2 1_555 1_555
C36_2 C57_2 1_555 1_555
C38_2 C58_2 1_555 1_555
C40_2 C59_2 1_555 1_555
C42_2 C60_2 1_555 1_555
C44_2 C61_2 1_555 1_555
C46_2 C62_2 1_555 1_555
C48_2 C63_2 1_555 1_555
C50_2 C64_2 1_555 1_555
C52_2 C65_2 1_555 1_555
C54_2 C66_2 1_555 1_555
C56_2 C67_2 1_555 1_555
C57_2 C68_2 1_555 1_555
C69_2 N26_2 1_555 1_555
C69_2 N27_2 1_555 1_555
C71_2 N28_2 1_555 1_555
C72_2 N29_2 1_555 1_555
C72_2 N30_2 1_555 1_555
C74_2 N31_2 1_555 1_555
C75_2 N32_2 1_555 1_555
C75_2 N33_2 1_555 1_555
C77_2 N34_2 1_555 1_555
C78_2 N35_2 1_555 1_555
C78_2 N36_2 1_555 1_555
C2_3 S1_3 1_555 1_555
N1_3 C2_3 1_555 1_555
Co4 N1_3 1_555 1_555
C11_3 N11_3 1_555 1_555
C12_3 N11_3 1_555 1_555
C13_3 N20_2 1_555 1_555
C14_3 N20_2 1_555 1_555
C15_3 N13_3 1_555 1_555
C16_3 N13_3 1_555 1_555
C17_3 N14_3 1_555 1_555
C18_3 N14_3 1_555 1_555
C19_3 N15_3 1_555 1_555
C20_3 N15_3 1_555 1_555
C21_3 N16_3 1_555 1_555
C22_3 N16_3 1_555 1_555
C23_3 N17_3 1_555 1_555
C24_3 N17_3 1_555 1_555
C25_3 N18_3 1_555 1_555
C26_3 N18_3 1_555 1_555
C27_3 N19_3 1_555 1_555
C28_3 N19_3 1_555 1_555
C29_3 S2_3 1_555 1_555
C30_3 S3_3 1_555 1_555
C31_3 S4_3 1_555 1_555
N4_3 Co4 1_555 1_555
N5_3 C30_3 1_555 1_555
N6_3 C31_3 1_555 1_555
Co5 N5_3 1_555 1_555
Co5_3 N13_3 1_555 1_555
Co9 N15_3 1_555 1_555
Co7_4 N16_3 1_555 1_555
Co6_4 N18_3 1_555 1_555
Co9_5 N19_3 1_555 1_555
N11_3 Co4 1_555 1_555
N14_3 Co4 1_555 1_555
N17_3 Co4 1_555 1_555
N20_3 Co5 1_555 1_555
N21_3 Co5 1_555 1_555
N22_3 Co5 1_555 1_555
H8_3 C11_3 1_555 1_555
H9_3 C12_3 1_555 1_555
H10_3 C14_3 1_555 1_555
H11_3 C13_3 1_555 1_555
H12_3 C16_3 1_555 1_555
H13_3 C15_3 1_555 1_555
H14_3 C17_3 1_555 1_555
H15_3 C18_3 1_555 1_555
H16_3 C20_3 1_555 1_555
H17_3 C19_3 1_555 1_555
H18_3 C22_3 1_555 1_555
H19_3 C21_3 1_555 1_555
H20_3 C23_3 1_555 1_555
H21_3 C24_3 1_555 1_555
H22_3 C26_3 1_555 1_555
H23_3 C25_3 1_555 1_555
H24_3 C28_3 1_555 1_555
H25_3 C27_3 1_555 1_555
C39_3 C11_3 1_555 1_555
C40_3 C12_3 1_555 1_555
C41_3 C13_3 1_555 1_555
C42_3 C14_3 1_555 1_555
C43_3 C15_3 1_555 1_555
C44_3 C16_3 1_555 1_555
C45_3 C17_3 1_555 1_555
C46_3 C18_3 1_555 1_555
C47_3 C19_3 1_555 1_555
C48_3 C20_3 1_555 1_555
C49_3 C21_3 1_555 1_555
C50_3 C22_3 1_555 1_555
C51_3 C23_3 1_555 1_555
C52_3 C24_3 1_555 1_555
C53_3 C25_3 1_555 1_555
C54_3 C26_3 1_555 1_555
C55_3 C27_3 1_555 1_555
C56_3 C28_3 1_555 1_555
H31_3 C39_3 1_555 1_555
H32_3 C40_3 1_555 1_555
H33_3 C42_3 1_555 1_555
H34_3 C41_3 1_555 1_555
H35_3 C44_3 1_555 1_555
H36_3 C43_3 1_555 1_555
H37_3 C45_3 1_555 1_555
H38_3 C46_3 1_555 1_555
H39_3 C48_3 1_555 1_555
H40_3 C47_3 1_555 1_555
H41_3 C50_3 1_555 1_555
H42_3 C49_3 1_555 1_555
H43_3 C51_3 1_555 1_555
H44_3 C52_3 1_555 1_555
H45_3 C54_3 1_555 1_555
H46_3 C53_3 1_555 1_555
H47_3 C56_3 1_555 1_555
H48_3 C55_3 1_555 1_555
C59_3 C39_3 1_555 1_555
C60_3 C41_3 1_555 1_555
C61_3 C43_3 1_555 1_555
C62_3 C45_3 1_555 1_555
C63_3 C47_3 1_555 1_555
C64_3 C49_3 1_555 1_555
C65_3 C51_3 1_555 1_555
C66_3 C53_3 1_555 1_555
C67_3 C55_3 1_555 1_555
C70_3 C59_3 1_555 1_555
C71_3 C60_3 1_555 1_555
C72_3 C61_3 1_555 1_555
C73_3 C62_3 1_555 1_555
C74_3 C63_3 1_555 1_555
C75_3 C64_3 1_555 1_555
C76_3 C65_3 1_555 1_555
C77_3 C66_3 1_555 1_555
C78_3 C67_3 1_555 1_555
N28_3 C70_3 1_555 1_555
N29_3 C71_3 1_555 1_555
N30_3 C70_3 1_555 1_555
N31_3 C73_3 1_555 1_555
N32_3 C74_3 1_555 1_555
N33_3 C73_3 1_555 1_555
N34_3 C76_3 1_555 1_555
N35_3 C77_3 1_555 1_555
N36_3 C76_3 1_555 1_555
C29_3 N4_3 1_555 1_555
N6_3 Co5 1_555 1_555
C40_3 C59_3 1_555 1_555
C42_3 C60_3 1_555 1_555
C44_3 C61_3 1_555 1_555
C46_3 C62_3 1_555 1_555
C48_3 C63_3 1_555 1_555
C50_3 C64_3 1_555 1_555
C52_3 C65_3 1_555 1_555
C54_3 C66_3 1_555 1_555
C56_3 C67_3 1_555 1_555
C71_3 N28_3 1_555 1_555
C72_3 N29_3 1_555 1_555
C72_3 N30_3 1_555 1_555
C74_3 N31_3 1_555 1_555
C75_3 N32_3 1_555 1_555
C75_3 N33_3 1_555 1_555
C77_3 N34_3 1_555 1_555
C78_3 N35_3 1_555 1_555
C78_3 N36_3 1_555 1_555
C1_3 N2_3 1_555 1_555
C2_4 S1_4 1_555 1_555
N1_4 C2_4 1_555 1_555
Co1_3 N1_4 1_555 1_555
N2_3 Co1_3 1_555 1_555
H1_3 C1_3 1_555 1_555
C3_3 C1_3 1_555 1_555
H2_3 C3_3 1_555 1_555
C4_3 C3_3 1_555 1_555
C5_3 C4_3 1_555 1_555
N3_3 C5_3 1_555 1_555
C6_3 N2_3 1_555 1_555
C7_3 N9_3 1_555 1_555
C8_3 N9_3 1_555 1_555
C9_3 N20 1_555 1_555
C10_3 N20 1_555 1_555
C11_4 N11_4 1_555 1_555
C12_4 N11_4 1_555 1_555
C13_4 N20_3 1_555 1_555
C14_4 N20_3 1_555 1_555
C15_4 N13_4 1_555 1_555
C16_4 N13_4 1_555 1_555
C17_4 N14_4 1_555 1_555
C18_4 N14_4 1_555 1_555
C19_4 N15_4 1_555 1_555
C20_4 N15_4 1_555 1_555
C21_4 N16_4 1_555 1_555
C22_4 N16_4 1_555 1_555
C23_4 N17_4 1_555 1_555
C24_4 N17_4 1_555 1_555
C25_4 N18_4 1_555 1_555
C26_4 N18_4 1_555 1_555
C27_4 N19_4 1_555 1_555
C28_4 N19_4 1_555 1_555
C29_4 S2_4 1_555 1_555
C30_4 S3_4 1_555 1_555
C31_4 S4_4 1_555 1_555
N4_4 Co1_3 1_555 1_555
N5_4 C30_4 1_555 1_555
N6_4 C31_4 1_555 1_555
Co4_2 N5_4 1_555 1_555
Co5_4 N13_4 1_555 1_555
Co8_3 N15_4 1_555 1_555
Co6_2 N16_4 1_555 1_555
Co9_2 N18_4 1_555 1_555
Co9_7 N19_4 1_555 1_555
N9_3 Co4_2 1_555 1_555
N11_4 Co1_3 1_555 1_555
N14_4 Co1_3 1_555 1_555
N17_4 Co1_3 1_555 1_555
N21_4 Co4_2 1_555 1_555
N22_4 Co4_2 1_555 1_555
H3_3 C6_3 1_555 1_555
H4_3 C8_3 1_555 1_555
H5_3 C7_3 1_555 1_555
H6_3 C10_3 1_555 1_555
H7_3 C9_3 1_555 1_555
H8_4 C11_4 1_555 1_555
H9_4 C12_4 1_555 1_555
H10_4 C14_4 1_555 1_555
H11_4 C13_4 1_555 1_555
H12_4 C16_4 1_555 1_555
H13_4 C15_4 1_555 1_555
H14_4 C17_4 1_555 1_555
H15_4 C18_4 1_555 1_555
H16_4 C20_4 1_555 1_555
H17_4 C19_4 1_555 1_555
H18_4 C22_4 1_555 1_555
H19_4 C21_4 1_555 1_555
H20_4 C23_4 1_555 1_555
H21_4 C24_4 1_555 1_555
H22_4 C26_4 1_555 1_555
H23_4 C25_4 1_555 1_555
H24_4 C28_4 1_555 1_555
H25_4 C27_4 1_555 1_555
C34_3 C4_3 1_555 1_555
C35_3 C7_3 1_555 1_555
C36_3 C8_3 1_555 1_555
C37_3 C9_3 1_555 1_555
C38_3 C10_3 1_555 1_555
C39_4 C11_4 1_555 1_555
C40_4 C12_4 1_555 1_555
C41_4 C13_4 1_555 1_555
C42_4 C14_4 1_555 1_555
C43_4 C15_4 1_555 1_555
C44_4 C16_4 1_555 1_555
C45_4 C17_4 1_555 1_555
C46_4 C18_4 1_555 1_555
C47_4 C19_4 1_555 1_555
C48_4 C20_4 1_555 1_555
C49_4 C21_4 1_555 1_555
C50_4 C22_4 1_555 1_555
C51_4 C23_4 1_555 1_555
C52_4 C24_4 1_555 1_555
C53_4 C25_4 1_555 1_555
C54_4 C26_4 1_555 1_555
C55_4 C27_4 1_555 1_555
C56_4 C28_4 1_555 1_555
H26_3 C34_3 1_555 1_555
H27_3 C36_3 1_555 1_555
H28_3 C35_3 1_555 1_555
H29_3 C38_3 1_555 1_555
H30_3 C37_3 1_555 1_555
H31_4 C39_4 1_555 1_555
H32_4 C40_4 1_555 1_555
H33_4 C42_4 1_555 1_555
H34_4 C41_4 1_555 1_555
H35_4 C44_4 1_555 1_555
H36_4 C43_4 1_555 1_555
H37_4 C45_4 1_555 1_555
H38_4 C46_4 1_555 1_555
H39_4 C48_4 1_555 1_555
H40_4 C47_4 1_555 1_555
H41_4 C50_4 1_555 1_555
H42_4 C49_4 1_555 1_555
H43_4 C51_4 1_555 1_555
H44_4 C52_4 1_555 1_555
H45_4 C54_4 1_555 1_555
H46_4 C53_4 1_555 1_555
H47_4 C56_4 1_555 1_555
H48_4 C55_4 1_555 1_555
C57_3 C35_3 1_555 1_555
C58_3 C37_3 1_555 1_555
C59_4 C39_4 1_555 1_555
C60_4 C41_4 1_555 1_555
C61_4 C43_4 1_555 1_555
C62_4 C45_4 1_555 1_555
C63_4 C47_4 1_555 1_555
C64_4 C49_4 1_555 1_555
C65_4 C51_4 1_555 1_555
C66_4 C53_4 1_555 1_555
C67_4 C55_4 1_555 1_555
C68_3 N3_3 1_555 1_555
C69_3 C58_3 1_555 1_555
C70_4 C59_4 1_555 1_555
C71_4 C60_4 1_555 1_555
C72_4 C61_4 1_555 1_555
C73_4 C62_4 1_555 1_555
C74_4 C63_4 1_555 1_555
C75_4 C64_4 1_555 1_555
C76_4 C65_4 1_555 1_555
C77_4 C66_4 1_555 1_555
C78_4 C67_4 1_555 1_555
N26_3 C68_3 1_555 1_555
N27_3 C5_3 1_555 1_555
N28_4 C70_4 1_555 1_555
N29_4 C71_4 1_555 1_555
N30_4 C70_4 1_555 1_555
N31_4 C73_4 1_555 1_555
N32_4 C74_4 1_555 1_555
N33_4 C73_4 1_555 1_555
N34_4 C76_4 1_555 1_555
N35_4 C77_4 1_555 1_555
N36_4 C76_4 1_555 1_555
C6_3 C34_3 1_555 1_555
C29_4 N4_4 1_555 1_555
N6_4 Co4_2 1_555 1_555
C36_3 C57_3 1_555 1_555
C38_3 C58_3 1_555 1_555
C40_4 C59_4 1_555 1_555
C42_4 C60_4 1_555 1_555
C44_4 C61_4 1_555 1_555
C46_4 C62_4 1_555 1_555
C48_4 C63_4 1_555 1_555
C50_4 C64_4 1_555 1_555
C52_4 C65_4 1_555 1_555
C54_4 C66_4 1_555 1_555
C56_4 C67_4 1_555 1_555
C57_3 C68_3 1_555 1_555
C69_3 N26_3 1_555 1_555
C69_3 N27_3 1_555 1_555
C71_4 N28_4 1_555 1_555
C72_4 N29_4 1_555 1_555
C72_4 N30_4 1_555 1_555
C74_4 N31_4 1_555 1_555
C75_4 N32_4 1_555 1_555
C75_4 N33_4 1_555 1_555
C77_4 N34_4 1_555 1_555
C78_4 N35_4 1_555 1_555
C78_4 N36_4 1_555 1_555
C17_5 N21_2 1_555 1_555
C18_5 N21_2 1_555 1_555
C19_5 N15_5 1_555 1_555
C20_5 N15_5 1_555 1_555
C21_5 N16_5 1_555 1_555
C22_5 N16_5 1_555 1_555
C23_5 N22_2 1_555 1_555
C24_5 N22_2 1_555 1_555
C25_5 N18_5 1_555 1_555
C26_5 N18_5 1_555 1_555
C27_5 N19_5 1_555 1_555
C28_5 N19_5 1_555 1_555
Co7_2 N15_5 1_555 1_555
Co7_5 N16_5 1_555 1_555
Co9_5 N18_5 1_555 1_555
Co8_2 N19_5 1_555 1_555
H14_5 C17_5 1_555 1_555
H15_5 C18_5 1_555 1_555
H16_5 C20_5 1_555 1_555
H17_5 C19_5 1_555 1_555
H18_5 C22_5 1_555 1_555
H19_5 C21_5 1_555 1_555
H20_5 C23_5 1_555 1_555
H21_5 C24_5 1_555 1_555
H22_5 C26_5 1_555 1_555
H23_5 C25_5 1_555 1_555
H24_5 C28_5 1_555 1_555
H25_5 C27_5 1_555 1_555
C45_5 C17_5 1_555 1_555
C46_5 C18_5 1_555 1_555
C47_5 C19_5 1_555 1_555
C48_5 C20_5 1_555 1_555
C49_5 C21_5 1_555 1_555
C50_5 C22_5 1_555 1_555
C51_5 C23_5 1_555 1_555
C52_5 C24_5 1_555 1_555
C53_5 C25_5 1_555 1_555
C54_5 C26_5 1_555 1_555
C55_5 C27_5 1_555 1_555
C56_5 C28_5 1_555 1_555
H37_5 C45_5 1_555 1_555
H38_5 C46_5 1_555 1_555
H39_5 C48_5 1_555 1_555
H40_5 C47_5 1_555 1_555
H41_5 C50_5 1_555 1_555
H42_5 C49_5 1_555 1_555
H43_5 C51_5 1_555 1_555
H44_5 C52_5 1_555 1_555
H45_5 C54_5 1_555 1_555
H46_5 C53_5 1_555 1_555
H47_5 C56_5 1_555 1_555
H48_5 C55_5 1_555 1_555
C62_5 C45_5 1_555 1_555
C63_5 C47_5 1_555 1_555
C64_5 C49_5 1_555 1_555
C65_5 C51_5 1_555 1_555
C66_5 C53_5 1_555 1_555
C67_5 C55_5 1_555 1_555
C73_5 C62_5 1_555 1_555
C74_5 C63_5 1_555 1_555
C75_5 C64_5 1_555 1_555
C76_5 C65_5 1_555 1_555
C77_5 C66_5 1_555 1_555
C78_5 C67_5 1_555 1_555
N31_5 C73_5 1_555 1_555
N32_5 C74_5 1_555 1_555
N33_5 C73_5 1_555 1_555
N34_5 C76_5 1_555 1_555
N35_5 C77_5 1_555 1_555
N36_5 C76_5 1_555 1_555
C46_5 C62_5 1_555 1_555
C48_5 C63_5 1_555 1_555
C50_5 C64_5 1_555 1_555
C52_5 C65_5 1_555 1_555
C54_5 C66_5 1_555 1_555
C56_5 C67_5 1_555 1_555
C74_5 N31_5 1_555 1_555
C75_5 N32_5 1_555 1_555
C75_5 N33_5 1_555 1_555
C77_5 N34_5 1_555 1_555
C78_5 N35_5 1_555 1_555
C78_5 N36_5 1_555 1_555
C17_6 N22_4 1_555 1_555
C18_6 N22_4 1_555 1_555
C19_6 N15_6 1_555 1_555
C20_6 N15_6 1_555 1_555
C21_6 N16_6 1_555 1_555
C22_6 N16_6 1_555 1_555
C23_6 N21_4 1_555 1_555
C24_6 N21_4 1_555 1_555
C25_6 N18_6 1_555 1_555
C26_6 N18_6 1_555 1_555
C27_6 N19_6 1_555 1_555
C28_6 N19_6 1_555 1_555
C30_5 S3_5 1_555 1_555
C31_5 S4_5 1_555 1_555
N5_5 C30_5 1_555 1_555
N6_5 C31_5 1_555 1_555
Co5_2 N5_5 1_555 1_555
Co9_3 N15_6 1_555 1_555
Co7_6 N16_6 1_555 1_555
Co6_2 N18_6 1_555 1_555
Co9_9 N19_6 1_555 1_555
N20_4 Co5_2 1_555 1_555
N21_5 Co5_2 1_555 1_555
N22_5 Co5_2 1_555 1_555
H14_6 C17_6 1_555 1_555
H15_6 C18_6 1_555 1_555
H16_6 C20_6 1_555 1_555
H17_6 C19_6 1_555 1_555
H18_6 C22_6 1_555 1_555
H19_6 C21_6 1_555 1_555
H20_6 C23_6 1_555 1_555
H21_6 C24_6 1_555 1_555
H22_6 C26_6 1_555 1_555
H23_6 C25_6 1_555 1_555
H24_6 C28_6 1_555 1_555
H25_6 C27_6 1_555 1_555
C45_6 C17_6 1_555 1_555
C46_6 C18_6 1_555 1_555
C47_6 C19_6 1_555 1_555
C48_6 C20_6 1_555 1_555
C49_6 C21_6 1_555 1_555
C50_6 C22_6 1_555 1_555
C51_6 C23_6 1_555 1_555
C52_6 C24_6 1_555 1_555
C53_6 C25_6 1_555 1_555
C54_6 C26_6 1_555 1_555
C55_6 C27_6 1_555 1_555
C56_6 C28_6 1_555 1_555
H37_6 C45_6 1_555 1_555
H38_6 C46_6 1_555 1_555
H39_6 C48_6 1_555 1_555
H40_6 C47_6 1_555 1_555
H41_6 C50_6 1_555 1_555
H42_6 C49_6 1_555 1_555
H43_6 C51_6 1_555 1_555
H44_6 C52_6 1_555 1_555
H45_6 C54_6 1_555 1_555
H46_6 C53_6 1_555 1_555
H47_6 C56_6 1_555 1_555
H48_6 C55_6 1_555 1_555
C62_6 C45_6 1_555 1_555
C63_6 C47_6 1_555 1_555
C64_6 C49_6 1_555 1_555
C65_6 C51_6 1_555 1_555
C66_6 C53_6 1_555 1_555
C67_6 C55_6 1_555 1_555
C73_6 C62_6 1_555 1_555
C74_6 C63_6 1_555 1_555
C75_6 C64_6 1_555 1_555
C76_6 C65_6 1_555 1_555
C77_6 C66_6 1_555 1_555
C78_6 C67_6 1_555 1_555
N31_6 C73_6 1_555 1_555
N32_6 C74_6 1_555 1_555
N33_6 C73_6 1_555 1_555
N34_6 C76_6 1_555 1_555
N35_6 C77_6 1_555 1_555
N36_6 C76_6 1_555 1_555
N6_5 Co5_2 1_555 1_555
C46_6 C62_6 1_555 1_555
C48_6 C63_6 1_555 1_555
C50_6 C64_6 1_555 1_555
C52_6 C65_6 1_555 1_555
C54_6 C66_6 1_555 1_555
C56_6 C67_6 1_555 1_555
C74_6 N31_6 1_555 1_555
C75_6 N32_6 1_555 1_555
C75_6 N33_6 1_555 1_555
C77_6 N34_6 1_555 1_555
C78_6 N35_6 1_555 1_555
C78_6 N36_6 1_555 1_555
C17_7 N25 1_555 1_555
C18_7 N25 1_555 1_555
C19_7 N15_7 1_555 1_555
C20_7 N15_7 1_555 1_555
C21_7 N16_7 1_555 1_555
C22_7 N16_7 1_555 1_555
C23_7 N24 1_555 1_555
C24_7 N24 1_555 1_555
C25_7 N18_7 1_555 1_555
C26_7 N18_7 1_555 1_555
C27_7 N19_7 1_555 1_555
C28_7 N19_7 1_555 1_555
Co7_5 N15_7 1_555 1_555
Co6_3 N16_7 1_555 1_555
Co7_3 N18_7 1_555 1_555
Co6 N19_7 1_555 1_555
H14_7 C17_7 1_555 1_555
H15_7 C18_7 1_555 1_555
H16_7 C20_7 1_555 1_555
H17_7 C19_7 1_555 1_555
H18_7 C22_7 1_555 1_555
H19_7 C21_7 1_555 1_555
H20_7 C23_7 1_555 1_555
H21_7 C24_7 1_555 1_555
H22_7 C26_7 1_555 1_555
H23_7 C25_7 1_555 1_555
H24_7 C28_7 1_555 1_555
H25_7 C27_7 1_555 1_555
C45_7 C17_7 1_555 1_555
C46_7 C18_7 1_555 1_555
C47_7 C19_7 1_555 1_555
C48_7 C20_7 1_555 1_555
C49_7 C21_7 1_555 1_555
C50_7 C22_7 1_555 1_555
C51_7 C23_7 1_555 1_555
C52_7 C24_7 1_555 1_555
C53_7 C25_7 1_555 1_555
C54_7 C26_7 1_555 1_555
C55_7 C27_7 1_555 1_555
C56_7 C28_7 1_555 1_555
H37_7 C45_7 1_555 1_555
H38_7 C46_7 1_555 1_555
H39_7 C48_7 1_555 1_555
H40_7 C47_7 1_555 1_555
H41_7 C50_7 1_555 1_555
H42_7 C49_7 1_555 1_555
H43_7 C51_7 1_555 1_555
H44_7 C52_7 1_555 1_555
H45_7 C54_7 1_555 1_555
H46_7 C53_7 1_555 1_555
H47_7 C56_7 1_555 1_555
H48_7 C55_7 1_555 1_555
C62_7 C45_7 1_555 1_555
C63_7 C47_7 1_555 1_555
C64_7 C49_7 1_555 1_555
C65_7 C51_7 1_555 1_555
C66_7 C53_7 1_555 1_555
C67_7 C55_7 1_555 1_555
C73_7 C62_7 1_555 1_555
C74_7 C63_7 1_555 1_555
C75_7 C64_7 1_555 1_555
C76_7 C65_7 1_555 1_555
C77_7 C66_7 1_555 1_555
C78_7 C67_7 1_555 1_555
N31_7 C73_7 1_555 1_555
N32_7 C74_7 1_555 1_555
N33_7 C73_7 1_555 1_555
N34_7 C76_7 1_555 1_555
N35_7 C77_7 1_555 1_555
N36_7 C76_7 1_555 1_555
C46_7 C62_7 1_555 1_555
C48_7 C63_7 1_555 1_555
C50_7 C64_7 1_555 1_555
C52_7 C65_7 1_555 1_555
C54_7 C66_7 1_555 1_555
C56_7 C67_7 1_555 1_555
C74_7 N31_7 1_555 1_555
C75_7 N32_7 1_555 1_555
C75_7 N33_7 1_555 1_555
C77_7 N34_7 1_555 1_555
C78_7 N35_7 1_555 1_555
C78_7 N36_7 1_555 1_555
C2_5 S1_5 1_555 1_555
N1_5 C2_5 1_555 1_555
Co5_3 N1_5 1_555 1_555
C11_5 N11_5 1_555 1_555
C12_5 N11_5 1_555 1_555
C13_5 N20_4 1_555 1_555
C14_5 N20_4 1_555 1_555
C15_5 N13_5 1_555 1_555
C16_5 N13_5 1_555 1_555
C17_8 N14_5 1_555 1_555
C18_8 N14_5 1_555 1_555
C19_8 N15_8 1_555 1_555
C20_8 N15_8 1_555 1_555
C21_8 N16_8 1_555 1_555
C22_8 N16_8 1_555 1_555
C23_8 N17_5 1_555 1_555
C24_8 N17_5 1_555 1_555
C25_8 N18_8 1_555 1_555
C26_8 N18_8 1_555 1_555
C27_8 N19_8 1_555 1_555
C28_8 N19_8 1_555 1_555
C29_5 S2_5 1_555 1_555
N4_5 Co5_3 1_555 1_555
Co5_4 N13_5 1_555 1_555
Co8_2 N15_8 1_555 1_555
Co6_4 N16_8 1_555 1_555
Co9_4 N18_8 1_555 1_555
Co9_8 N19_8 1_555 1_555
N11_5 Co5_3 1_555 1_555
N14_5 Co5_3 1_555 1_555
N17_5 Co5_3 1_555 1_555
H8_5 C11_5 1_555 1_555
H9_5 C12_5 1_555 1_555
H10_5 C14_5 1_555 1_555
H11_5 C13_5 1_555 1_555
H12_5 C16_5 1_555 1_555
H13_5 C15_5 1_555 1_555
H14_8 C17_8 1_555 1_555
H15_8 C18_8 1_555 1_555
H16_8 C20_8 1_555 1_555
H17_8 C19_8 1_555 1_555
H18_8 C22_8 1_555 1_555
H19_8 C21_8 1_555 1_555
H20_8 C23_8 1_555 1_555
H21_8 C24_8 1_555 1_555
H22_8 C26_8 1_555 1_555
H23_8 C25_8 1_555 1_555
H24_8 C28_8 1_555 1_555
H25_8 C27_8 1_555 1_555
C39_5 C11_5 1_555 1_555
C40_5 C12_5 1_555 1_555
C41_5 C13_5 1_555 1_555
C42_5 C14_5 1_555 1_555
C43_5 C15_5 1_555 1_555
C44_5 C16_5 1_555 1_555
C45_8 C17_8 1_555 1_555
C46_8 C18_8 1_555 1_555
C47_8 C19_8 1_555 1_555
C48_8 C20_8 1_555 1_555
C49_8 C21_8 1_555 1_555
C50_8 C22_8 1_555 1_555
C51_8 C23_8 1_555 1_555
C52_8 C24_8 1_555 1_555
C53_8 C25_8 1_555 1_555
C54_8 C26_8 1_555 1_555
C55_8 C27_8 1_555 1_555
C56_8 C28_8 1_555 1_555
H31_5 C39_5 1_555 1_555
H32_5 C40_5 1_555 1_555
H33_5 C42_5 1_555 1_555
H34_5 C41_5 1_555 1_555
H35_5 C44_5 1_555 1_555
H36_5 C43_5 1_555 1_555
H37_8 C45_8 1_555 1_555
H38_8 C46_8 1_555 1_555
H39_8 C48_8 1_555 1_555
H40_8 C47_8 1_555 1_555
H41_8 C50_8 1_555 1_555
H42_8 C49_8 1_555 1_555
H43_8 C51_8 1_555 1_555
H44_8 C52_8 1_555 1_555
H45_8 C54_8 1_555 1_555
H46_8 C53_8 1_555 1_555
H47_8 C56_8 1_555 1_555
H48_8 C55_8 1_555 1_555
C59_5 C39_5 1_555 1_555
C60_5 C41_5 1_555 1_555
C61_5 C43_5 1_555 1_555
C62_8 C45_8 1_555 1_555
C63_8 C47_8 1_555 1_555
C64_8 C49_8 1_555 1_555
C65_8 C51_8 1_555 1_555
C66_8 C53_8 1_555 1_555
C67_8 C55_8 1_555 1_555
C70_5 C59_5 1_555 1_555
C71_5 C60_5 1_555 1_555
C72_5 C61_5 1_555 1_555
C73_8 C62_8 1_555 1_555
C74_8 C63_8 1_555 1_555
C75_8 C64_8 1_555 1_555
C76_8 C65_8 1_555 1_555
C77_8 C66_8 1_555 1_555
C78_8 C67_8 1_555 1_555
N28_5 C70_5 1_555 1_555
N29_5 C71_5 1_555 1_555
N30_5 C70_5 1_555 1_555
N31_8 C73_8 1_555 1_555
N32_8 C74_8 1_555 1_555
N33_8 C73_8 1_555 1_555
N34_8 C76_8 1_555 1_555
N35_8 C77_8 1_555 1_555
N36_8 C76_8 1_555 1_555
C29_5 N4_5 1_555 1_555
C40_5 C59_5 1_555 1_555
C42_5 C60_5 1_555 1_555
C44_5 C61_5 1_555 1_555
C46_8 C62_8 1_555 1_555
C48_8 C63_8 1_555 1_555
C50_8 C64_8 1_555 1_555
C52_8 C65_8 1_555 1_555
C54_8 C66_8 1_555 1_555
C56_8 C67_8 1_555 1_555
C71_5 N28_5 1_555 1_555
C72_5 N29_5 1_555 1_555
C72_5 N30_5 1_555 1_555
C74_8 N31_8 1_555 1_555
C75_8 N32_8 1_555 1_555
C75_8 N33_8 1_555 1_555
C77_8 N34_8 1_555 1_555
C78_8 N35_8 1_555 1_555
C78_8 N36_8 1_555 1_555
C17_9 N21_3 1_555 1_555
C18_9 N21_3 1_555 1_555
C19_9 N15_9 1_555 1_555
C20_9 N15_9 1_555 1_555
C21_9 N16_9 1_555 1_555
C22_9 N16_9 1_555 1_555
C23_9 N22_3 1_555 1_555
C24_9 N22_3 1_555 1_555
C25_9 N18_9 1_555 1_555
C26_9 N18_9 1_555 1_555
C27_9 N19_9 1_555 1_555
C28_9 N19_9 1_555 1_555
Co7_4 N15_9 1_555 1_555
Co8 N16_9 1_555 1_555
Co9_7 N18_9 1_555 1_555
Co9_10 N19_9 1_555 1_555
H14_9 C17_9 1_555 1_555
H15_9 C18_9 1_555 1_555
H16_9 C20_9 1_555 1_555
H17_9 C19_9 1_555 1_555
H18_9 C22_9 1_555 1_555
H19_9 C21_9 1_555 1_555
H20_9 C23_9 1_555 1_555
H21_9 C24_9 1_555 1_555
H22_9 C26_9 1_555 1_555
H23_9 C25_9 1_555 1_555
H24_9 C28_9 1_555 1_555
H25_9 C27_9 1_555 1_555
C45_9 C17_9 1_555 1_555
C46_9 C18_9 1_555 1_555
C47_9 C19_9 1_555 1_555
C48_9 C20_9 1_555 1_555
C49_9 C21_9 1_555 1_555
C50_9 C22_9 1_555 1_555
C51_9 C23_9 1_555 1_555
C52_9 C24_9 1_555 1_555
C53_9 C25_9 1_555 1_555
C54_9 C26_9 1_555 1_555
C55_9 C27_9 1_555 1_555
C56_9 C28_9 1_555 1_555
H37_9 C45_9 1_555 1_555
H38_9 C46_9 1_555 1_555
H39_9 C48_9 1_555 1_555
H40_9 C47_9 1_555 1_555
H41_9 C50_9 1_555 1_555
H42_9 C49_9 1_555 1_555
H43_9 C51_9 1_555 1_555
H44_9 C52_9 1_555 1_555
H45_9 C54_9 1_555 1_555
H46_9 C53_9 1_555 1_555
H47_9 C56_9 1_555 1_555
H48_9 C55_9 1_555 1_555
C62_9 C45_9 1_555 1_555
C63_9 C47_9 1_555 1_555
C64_9 C49_9 1_555 1_555
C65_9 C51_9 1_555 1_555
C66_9 C53_9 1_555 1_555
C67_9 C55_9 1_555 1_555
C73_9 C62_9 1_555 1_555
C74_9 C63_9 1_555 1_555
C75_9 C64_9 1_555 1_555
C76_9 C65_9 1_555 1_555
C77_9 C66_9 1_555 1_555
C78_9 C67_9 1_555 1_555
N31_9 C73_9 1_555 1_555
N32_9 C74_9 1_555 1_555
N33_9 C73_9 1_555 1_555
N34_9 C76_9 1_555 1_555
N35_9 C77_9 1_555 1_555
N36_9 C76_9 1_555 1_555
C46_9 C62_9 1_555 1_555
C48_9 C63_9 1_555 1_555
C50_9 C64_9 1_555 1_555
C52_9 C65_9 1_555 1_555
C54_9 C66_9 1_555 1_555
C56_9 C67_9 1_555 1_555
C74_9 N31_9 1_555 1_555
C75_9 N32_9 1_555 1_555
C75_9 N33_9 1_555 1_555
C77_9 N34_9 1_555 1_555
C78_9 N35_9 1_555 1_555
C78_9 N36_9 1_555 1_555
C32_2 S5_2 1_555 1_555
C33_2 S6_2 1_555 1_555
N7_2 C32_2 1_555 1_555
N8_2 C33_2 1_555 1_555
Co5_4 N7_2 1_555 1_555
N24_2 Co5_4 1_555 1_555
N25_2 Co5_4 1_555 1_555
N8_2 Co5_4 1_555 1_555
C17_10 N22_5 1_555 1_555
C18_10 N22_5 1_555 1_555
C19_10 N15_10 1_555 1_555
C20_10 N15_10 1_555 1_555
C21_10 N16_10 1_555 1_555
C22_10 N16_10 1_555 1_555
C23_10 N21_5 1_555 1_555
C24_10 N21_5 1_555 1_555
C25_10 N18_10 1_555 1_555
C26_10 N18_10 1_555 1_555
C27_10 N19_10 1_555 1_555
C28_10 N19_10 1_555 1_555
Co9_8 N15_10 1_555 1_555
Co9_6 N16_10 1_555 1_555
Co7_6 N18_10 1_555 1_555
Co8_4 N19_10 1_555 1_555
H14_10 C17_10 1_555 1_555
H15_10 C18_10 1_555 1_555
H16_10 C20_10 1_555 1_555
H17_10 C19_10 1_555 1_555
H18_10 C22_10 1_555 1_555
H19_10 C21_10 1_555 1_555
H20_10 C23_10 1_555 1_555
H21_10 C24_10 1_555 1_555
H22_10 C26_10 1_555 1_555
H23_10 C25_10 1_555 1_555
H24_10 C28_10 1_555 1_555
H25_10 C27_10 1_555 1_555
C45_10 C17_10 1_555 1_555
C46_10 C18_10 1_555 1_555
C47_10 C19_10 1_555 1_555
C48_10 C20_10 1_555 1_555
C49_10 C21_10 1_555 1_555
C50_10 C22_10 1_555 1_555
C51_10 C23_10 1_555 1_555
C52_10 C24_10 1_555 1_555
C53_10 C25_10 1_555 1_555
C54_10 C26_10 1_555 1_555
C55_10 C27_10 1_555 1_555
C56_10 C28_10 1_555 1_555
H37_10 C45_10 1_555 1_555
H38_10 C46_10 1_555 1_555
H39_10 C48_10 1_555 1_555
H40_10 C47_10 1_555 1_555
H41_10 C50_10 1_555 1_555
H42_10 C49_10 1_555 1_555
H43_10 C51_10 1_555 1_555
H44_10 C52_10 1_555 1_555
H45_10 C54_10 1_555 1_555
H46_10 C53_10 1_555 1_555
H47_10 C56_10 1_555 1_555
H48_10 C55_10 1_555 1_555
C62_10 C45_10 1_555 1_555
C63_10 C47_10 1_555 1_555
C64_10 C49_10 1_555 1_555
C65_10 C51_10 1_555 1_555
C66_10 C53_10 1_555 1_555
C67_10 C55_10 1_555 1_555
C73_10 C62_10 1_555 1_555
C74_10 C63_10 1_555 1_555
C75_10 C64_10 1_555 1_555
C76_10 C65_10 1_555 1_555
C77_10 C66_10 1_555 1_555
C78_10 C67_10 1_555 1_555
N31_10 C73_10 1_555 1_555
N32_10 C74_10 1_555 1_555
N33_10 C73_10 1_555 1_555
N34_10 C76_10 1_555 1_555
N35_10 C77_10 1_555 1_555
N36_10 C76_10 1_555 1_555
C46_10 C62_10 1_555 1_555
C48_10 C63_10 1_555 1_555
C50_10 C64_10 1_555 1_555
C52_10 C65_10 1_555 1_555
C54_10 C66_10 1_555 1_555
C56_10 C67_10 1_555 1_555
C74_10 N31_10 1_555 1_555
C75_10 N32_10 1_555 1_555
C75_10 N33_10 1_555 1_555
C77_10 N34_10 1_555 1_555
C78_10 N35_10 1_555 1_555
C78_10 N36_10 1_555 1_555
C2_6 S1_6 1_555 1_555
N1_6 C2_6 1_555 1_555
Co6_3 N1_6 1_555 1_555
C29_6 S2_6 1_555 1_555
N4_6 Co6_3 1_555 1_555
C29_6 N4_6 1_555 1_555
C32_3 S5_3 1_555 1_555
C33_3 S6_3 1_555 1_555
N7_3 C32_3 1_555 1_555
N8_3 C33_3 1_555 1_555
Co8 N7_3 1_555 1_555
N8_3 Co8 1_555 1_555
C2_7 S1_7 1_555 1_555
N1_7 C2_7 1_555 1_555
Co6_4 N1_7 1_555 1_555
C29_7 S2_7 1_555 1_555
C32_4 S5_4 1_555 1_555
C33_4 S6_4 1_555 1_555
N4_7 Co6_4 1_555 1_555
N7_4 C32_4 1_555 1_555
N8_4 C33_4 1_555 1_555
Co8_2 N7_4 1_555 1_555
C29_7 N4_7 1_555 1_555
N8_4 Co8_2 1_555 1_555
C30_6 S3_6 1_555 1_555
C31_6 S4_6 1_555 1_555
N5_6 C30_6 1_555 1_555
N6_6 C31_6 1_555 1_555
Co7_3 N5_6 1_555 1_555
N20_5 Co7_3 1_555 1_555
N6_6 Co7_3 1_555 1_555
C30_7 S3_7 1_555 1_555
C31_7 S4_7 1_555 1_555
N5_7 C30_7 1_555 1_555
N6_7 C31_7 1_555 1_555
Co7_4 N5_7 1_555 1_555
N6_7 Co7_4 1_555 1_555
C2_8 S1_8 1_555 1_555
N1_8 C2_8 1_555 1_555
Co7 N1_8 1_555 1_555
C11_6 N11_6 1_555 1_555
C12_6 N11_6 1_555 1_555
C13_6 N20_5 1_555 1_555
C14_6 N20_5 1_555 1_555
C15_6 N21 1_555 1_555
C16_6 N21 1_555 1_555
C29_8 S2_8 1_555 1_555
N4_8 Co7 1_555 1_555
N11_6 Co7 1_555 1_555
H8_6 C11_6 1_555 1_555
H9_6 C12_6 1_555 1_555
H10_6 C14_6 1_555 1_555
H11_6 C13_6 1_555 1_555
H12_6 C16_6 1_555 1_555
H13_6 C15_6 1_555 1_555
C39_6 C11_6 1_555 1_555
C40_6 C12_6 1_555 1_555
C41_6 C13_6 1_555 1_555
C42_6 C14_6 1_555 1_555
C43_6 C15_6 1_555 1_555
C44_6 C16_6 1_555 1_555
H31_6 C39_6 1_555 1_555
H32_6 C40_6 1_555 1_555
H33_6 C42_6 1_555 1_555
H34_6 C41_6 1_555 1_555
H35_6 C44_6 1_555 1_555
H36_6 C43_6 1_555 1_555
C59_6 C39_6 1_555 1_555
C60_6 C41_6 1_555 1_555
C61_6 C43_6 1_555 1_555
C70_6 C59_6 1_555 1_555
C71_6 C60_6 1_555 1_555
C72_6 C61_6 1_555 1_555
N28_6 C70_6 1_555 1_555
N29_6 C71_6 1_555 1_555
N30_6 C70_6 1_555 1_555
C29_8 N4_8 1_555 1_555
C40_6 C59_6 1_555 1_555
C42_6 C60_6 1_555 1_555
C44_6 C61_6 1_555 1_555
C71_6 N28_6 1_555 1_555
C72_6 N29_6 1_555 1_555
C72_6 N30_6 1_555 1_555
C2_9 S1_9 1_555 1_555
N1_9 C2_9 1_555 1_555
Co7_2 N1_9 1_555 1_555
C29_9 S2_9 1_555 1_555
N4_9 Co7_2 1_555 1_555
C29_9 N4_9 1_555 1_555
C2_10 S1_10 1_555 1_555
N1_10 C2_10 1_555 1_555
Co9_3 N1_10 1_555 1_555
C29_10 S2_10 1_555 1_555
N4_10 Co9_3 1_555 1_555
C29_10 N4_10 1_555 1_555
C30_8 S3_8 1_555 1_555
C31_8 S4_8 1_555 1_555
N5_8 C30_8 1_555 1_555
N6_8 C31_8 1_555 1_555
Co9_7 N5_8 1_555 1_555
N6_8 Co9_7 1_555 1_555
C2_11 S1_11 1_555 1_555
N1_11 C2_11 1_555 1_555
Co9_4 N1_11 1_555 1_555
C17_11 N14_6 1_555 1_555
C18_11 N14_6 1_555 1_555
C19_11 N25_2 1_555 1_555
C20_11 N25_2 1_555 1_555
C21_11 N16_11 1_555 1_555
C22_11 N16_11 1_555 1_555
C29_11 S2_11 1_555 1_555
C30_9 S3_9 1_555 1_555
C31_9 S4_9 1_555 1_555
N4_11 Co9_4 1_555 1_555
N5_9 C30_9 1_555 1_555
N6_9 C31_9 1_555 1_555
Co9_8 N5_9 1_555 1_555
Co9_6 N16_11 1_555 1_555
N14_6 Co9_4 1_555 1_555
H14_11 C17_11 1_555 1_555
H15_11 C18_11 1_555 1_555
H16_11 C20_11 1_555 1_555
H17_11 C19_11 1_555 1_555
H18_11 C22_11 1_555 1_555
H19_11 C21_11 1_555 1_555
C45_11 C17_11 1_555 1_555
C46_11 C18_11 1_555 1_555
C47_11 C19_11 1_555 1_555
C48_11 C20_11 1_555 1_555
C49_11 C21_11 1_555 1_555
C50_11 C22_11 1_555 1_555
H37_11 C45_11 1_555 1_555
H38_11 C46_11 1_555 1_555
H39_11 C48_11 1_555 1_555
H40_11 C47_11 1_555 1_555
H41_11 C50_11 1_555 1_555
H42_11 C49_11 1_555 1_555
C62_11 C45_11 1_555 1_555
C63_11 C47_11 1_555 1_555
C64_11 C49_11 1_555 1_555
C73_11 C62_11 1_555 1_555
C74_11 C63_11 1_555 1_555
C75_11 C64_11 1_555 1_555
N31_11 C73_11 1_555 1_555
N32_11 C74_11 1_555 1_555
N33_11 C73_11 1_555 1_555
C29_11 N4_11 1_555 1_555
N6_9 Co9_8 1_555 1_555
C46_11 C62_11 1_555 1_555
C48_11 C63_11 1_555 1_555
C50_11 C64_11 1_555 1_555
C74_11 N31_11 1_555 1_555
C75_11 N32_11 1_555 1_555
C75_11 N33_11 1_555 1_555
C30_10 S3_10 1_555 1_555
C31_10 S4_10 1_555 1_555
N5_10 C30_10 1_555 1_555
N6_10 C31_10 1_555 1_555
Co9_9 N5_10 1_555 1_555
N20_6 Co9_9 1_555 1_555
N6_10 Co9_9 1_555 1_555
C30_11 S3_11 1_555 1_555
C31_11 S4_11 1_555 1_555
N5_11 C30_11 1_555 1_555
N6_11 C31_11 1_555 1_555
Co9_10 N5_11 1_555 1_555
N21_6 Co9_10 1_555 1_555
N6_11 Co9_10 1_555 1_555
C11_7 N22 1_555 1_555
C12_7 N22 1_555 1_555
C13_7 N20_6 1_555 1_555
C14_7 N20_6 1_555 1_555
C15_7 N13_6 1_555 1_555
C16_7 N13_6 1_555 1_555
Co8_3 N13_6 1_555 1_555
H8_7 C11_7 1_555 1_555
H9_7 C12_7 1_555 1_555
H10_7 C14_7 1_555 1_555
H11_7 C13_7 1_555 1_555
H12_7 C16_7 1_555 1_555
H13_7 C15_7 1_555 1_555
C39_7 C11_7 1_555 1_555
C40_7 C12_7 1_555 1_555
C41_7 C13_7 1_555 1_555
C42_7 C14_7 1_555 1_555
C43_7 C15_7 1_555 1_555
C44_7 C16_7 1_555 1_555
H31_7 C39_7 1_555 1_555
H32_7 C40_7 1_555 1_555
H33_7 C42_7 1_555 1_555
H34_7 C41_7 1_555 1_555
H35_7 C44_7 1_555 1_555
H36_7 C43_7 1_555 1_555
C59_7 C39_7 1_555 1_555
C60_7 C41_7 1_555 1_555
C61_7 C43_7 1_555 1_555
C70_7 C59_7 1_555 1_555
C71_7 C60_7 1_555 1_555
C72_7 C61_7 1_555 1_555
N28_7 C70_7 1_555 1_555
N29_7 C71_7 1_555 1_555
N30_7 C70_7 1_555 1_555
C40_7 C59_7 1_555 1_555
C42_7 C60_7 1_555 1_555
C44_7 C61_7 1_555 1_555
C71_7 N28_7 1_555 1_555
C72_7 N29_7 1_555 1_555
C72_7 N30_7 1_555 1_555
C32_5 S5_5 1_555 1_555
C33_5 S6_5 1_555 1_555
N7_5 C32_5 1_555 1_555
N8_5 C33_5 1_555 1_555
Co8_3 N7_5 1_555 1_555
N8_5 Co8_3 1_555 1_555
C32_6 S5_6 1_555 1_555
C33_6 S6_6 1_555 1_555
N7_6 C32_6 1_555 1_555
N8_6 C33_6 1_555 1_555
Co8_4 N7_6 1_555 1_555
N8_6 Co8_4 1_555 1_555
C23_11 N21_6 1_555 1_555
C24_11 N21_6 1_555 1_555
C25_11 N18_11 1_555 1_555
C26_11 N18_11 1_555 1_555
C27_11 N24_2 1_555 1_555
C28_11 N24_2 1_555 1_555
Co9_2 N18_11 1_555 1_555
H20_11 C23_11 1_555 1_555
H21_11 C24_11 1_555 1_555
H22_11 C26_11 1_555 1_555
H23_11 C25_11 1_555 1_555
H24_11 C28_11 1_555 1_555
H25_11 C27_11 1_555 1_555
C51_11 C23_11 1_555 1_555
C52_11 C24_11 1_555 1_555
C53_11 C25_11 1_555 1_555
C54_11 C26_11 1_555 1_555
C55_11 C27_11 1_555 1_555
C56_11 C28_11 1_555 1_555
H43_11 C51_11 1_555 1_555
H44_11 C52_11 1_555 1_555
H45_11 C54_11 1_555 1_555
H46_11 C53_11 1_555 1_555
H47_11 C56_11 1_555 1_555
H48_11 C55_11 1_555 1_555
C65_11 C51_11 1_555 1_555
C66_11 C53_11 1_555 1_555
C67_11 C55_11 1_555 1_555
C76_11 C65_11 1_555 1_555
C77_11 C66_11 1_555 1_555
C78_11 C67_11 1_555 1_555
N34_11 C76_11 1_555 1_555
N35_11 C77_11 1_555 1_555
N36_11 C76_11 1_555 1_555
C52_11 C65_11 1_555 1_555
C54_11 C66_11 1_555 1_555
C56_11 C67_11 1_555 1_555
C77_11 N34_11 1_555 1_555
C78_11 N35_11 1_555 1_555
C78_11 N36_11 1_555 1_555
C30_12 S3_12 1_555 1_555
C31_12 S4_12 1_555 1_555
N5_12 C30_12 1_555 1_555
N6_12 C31_12 1_555 1_555
Co7_5 N5_12 1_555 1_555
N6_12 Co7_5 1_555 1_555
C30_13 S3_13 1_555 1_555
C31_13 S4_13 1_555 1_555
N5_13 C30_13 1_555 1_555
N6_13 C31_13 1_555 1_555
Co7_6 N5_13 1_555 1_555
N6_13 Co7_6 1_555 1_555
C2_12 S1_12 1_555 1_555
N1_12 C2_12 1_555 1_555
Co6 N1_12 1_555 1_555
C29_12 S2_12 1_555 1_555
N4_12 Co6 1_555 1_555
C29_12 N4_12 1_555 1_555
C2_13 S1_13 1_555 1_555
N1_13 C2_13 1_555 1_555
Co6_2 N1_13 1_555 1_555
C29_13 S2_13 1_555 1_555
N4_13 Co6_2 1_555 1_555
C29_13 N4_13 1_555 1_555
C30_14 S3_14 1_555 1_555
C31_14 S4_14 1_555 1_555
N5_14 C30_14 1_555 1_555
N6_14 C31_14 1_555 1_555
Co9_5 N5_14 1_555 1_555
N6_14 Co9_5 1_555 1_555
C30_15 S3_15 1_555 1_555
C31_15 S4_15 1_555 1_555
N5_15 C30_15 1_555 1_555
N6_15 C31_15 1_555 1_555
Co9_6 N5_15 1_555 1_555
N6_15 Co9_6 1_555 1_555
C2_14 S1_14 1_555 1_555
N1_14 C2_14 1_555 1_555
Co9 N1_14 1_555 1_555
C29_14 S2_14 1_555 1_555
N4_14 Co9 1_555 1_555
C29_14 N4_14 1_555 1_555
C2_15 S1_15 1_555 1_555
N1_15 C2_15 1_555 1_555
Co9_2 N1_15 1_555 1_555
C29_15 S2_15 1_555 1_555
N4_15 Co9_2 1_555 1_555
C29_15 N4_15 1_555 1_555

#END
