
###############################################################################
#
# This file contains modified crystal structure data generated from the
# MOF subset of the Cambridge Structural Database (CSD) v543 
# hosted by the Cambridge Crystallographic Data Centre (CCDC).
#
# This work is licensed under the Creative Commons
# Attribution-NonCommercial-ShareAlike 4.0 International License.
# To view a copy of this license, visit
# http://creativecommons.org/licenses/by-nc-sa/4.0/
# or send a letter to
# Creative Commons, PO Box 1866, Mountain View, CA 94042, USA.
#
# CIF created using the CSD Python API on 29 September 2022
# The structure has been converted into the P1 space group
# The structure has a 3D framework
# The original CSD entry PUZLAZ is in the tetragonal crystal system
# The original CSD entry PUZLAZ is in a Sohncke space group
# The framework has been calculated to contain at least 10.0% void space
# The void calculation uses a probe of radius 1.32A, grid spacing 0.4
# H atom positions have been added when not included in the experimental data
#
###############################################################################

data_PUZLAZ
_chemical_formula_moiety         '(C56 H48 N10 O30 S8 6+)n'
_symmetry_cell_setting           triclinic
_symmetry_space_group_name_H-M   'P 1'
_symmetry_Int_Tables_number      1
_space_group_name_Hall           'P 1'
loop_
_symmetry_equiv_pos_site_id
_symmetry_equiv_pos_as_xyz
1 x,y,z
_cell_length_a                   13.5642(13)
_cell_length_b                   13.5642(13)
_cell_length_c                   15.6425(12)
_cell_angle_alpha                90
_cell_angle_beta                 90
_cell_angle_gamma                90
_cell_volume                     2878.02
loop_
_atom_site_label
_atom_site_type_symbol
_atom_site_fract_x
_atom_site_fract_y
_atom_site_fract_z
In1 In 0.5000 0.0766 0.0000
O9 O 0.3934 0.1926 0.0415
O12 O 0.6143 0.1477 0.0922
In1_2 In 0.5000 0.0766 1.0000
O10 O 0.6066 0.1926 0.9585
O11 O 0.3857 0.1477 0.9078
In1_3 In 0.5000 0.9234 0.5000
O9_2 O 0.6066 0.8074 0.5415
O10_2 O 0.3934 0.8074 0.4585
O11_2 O 0.6143 0.8523 0.4078
O12_2 O 0.3857 0.8523 0.5922
C5 C 0.2342 0.3322 0.0128
H1 H 0.2579 0.3402 0.0682
H2 H 0.1155 0.4291 0.0102
S1 S 0.2153 0.2764 0.8579
O1 O 0.0487 0.3790 0.7645
O2 O 0.0030 0.4728 0.8714
C1 C 0.3555 0.2011 0.9676
C2 C 0.0579 0.4062 0.8400
C3 C 0.1352 0.3632 0.8957
C4 C 0.2730 0.2691 0.9551
C6 C 0.1529 0.3845 0.9787
S2 S 0.2153 0.7236 0.6421
O5 O 0.0487 0.6210 0.7355
O6 O 0.0030 0.5272 0.6286
C7 C 0.3555 0.7989 0.5324
C8 C 0.0579 0.5938 0.6600
C9 C 0.1352 0.6368 0.6043
C10 C 0.2730 0.7309 0.5449
C11 C 0.2342 0.6678 0.4872
H3 H 0.2579 0.6598 0.4318
C12 C 0.1529 0.6155 0.5213
H4 H 0.1155 0.5709 0.4898
S1_2 S 0.7847 0.7236 0.3579
O1_2 O 0.9513 0.6210 0.2645
O2_2 O 0.9970 0.5272 0.3714
C1_2 C 0.6445 0.7989 0.4676
C2_2 C 0.9421 0.5938 0.3400
C3_2 C 0.8648 0.6368 0.3957
C4_2 C 0.7270 0.7309 0.4551
C5_2 C 0.7658 0.6678 0.5128
H1_2 H 0.7421 0.6598 0.5682
C6_2 C 0.8471 0.6155 0.4787
H2_2 H 0.8845 0.5709 0.5102
S2_2 S 0.7847 0.2764 0.1421
O5_2 O 0.9513 0.3790 0.2355
O6_2 O 0.9970 0.4728 0.1286
C7_2 C 0.6445 0.2011 0.0324
C8_2 C 0.9421 0.4062 0.1600
C9_2 C 0.8648 0.3632 0.1043
C10_2 C 0.7270 0.2691 0.0449
C12_2 C 0.8471 0.3845 0.0213
C11_2 C 0.7658 0.3322 0.9872
H3_2 H 0.7421 0.3402 0.9318
H4_2 H 0.8845 0.4291 0.9898
S2_3 S 0.2764 0.7847 0.1079
O5_3 O 0.3790 0.9513 0.0145
O6_3 O 0.4728 0.9970 0.1214
O7 O 0.1926 0.6066 0.2915
O8 O 0.1477 0.6143 0.1578
C7_3 C 0.2011 0.6445 0.2176
C8_3 C 0.4062 0.9421 0.0900
C9_3 C 0.3632 0.8648 0.1457
C10_3 C 0.2691 0.7270 0.2051
C11_3 C 0.3322 0.7658 0.2628
H3_3 H 0.3402 0.7421 0.3182
C12_3 C 0.3845 0.8471 0.2287
H4_3 H 0.4291 0.8845 0.2602
In3 In 0.0766 0.5000 0.2500
S1_3 S 0.7236 0.7847 0.8921
O1_3 O 0.6210 0.9513 0.9855
O2_3 O 0.5272 0.9970 0.8786
O3 O 0.8074 0.6066 0.7085
O4 O 0.8523 0.6143 0.8422
C1_3 C 0.7989 0.6445 0.7824
C2_3 C 0.5938 0.9421 0.9100
C3_3 C 0.6368 0.8648 0.8543
C4_3 C 0.7309 0.7270 0.7949
C5_3 C 0.6678 0.7658 0.7372
H1_3 H 0.6598 0.7421 0.6818
C6_3 C 0.6155 0.8471 0.7713
H2_3 H 0.5709 0.8845 0.7398
In2 In 0.9234 0.5000 0.7500
S1_4 S 0.2764 0.2153 0.3921
O1_4 O 0.3790 0.0487 0.4855
O2_4 O 0.4728 0.0030 0.3786
O3_2 O 0.1926 0.3934 0.2085
O4_2 O 0.1477 0.3857 0.3422
C1_4 C 0.2011 0.3555 0.2824
C2_4 C 0.4062 0.0579 0.4100
C3_4 C 0.3632 0.1352 0.3543
C4_4 C 0.2691 0.2730 0.2949
C5_4 C 0.3322 0.2342 0.2372
H1_4 H 0.3402 0.2579 0.1818
C6_4 C 0.3845 0.1529 0.2713
H2_4 H 0.4291 0.1155 0.2398
S2_4 S 0.7236 0.2153 0.6079
O5_4 O 0.6210 0.0487 0.5145
O6_4 O 0.5272 0.0030 0.6214
O7_2 O 0.8074 0.3934 0.7915
O8_2 O 0.8523 0.3857 0.6578
C7_4 C 0.7989 0.3555 0.7176
C8_4 C 0.5938 0.0579 0.5900
C9_4 C 0.6368 0.1352 0.6457
C10_4 C 0.7309 0.2730 0.7051
C11_4 C 0.6678 0.2342 0.7628
H3_4 H 0.6598 0.2579 0.8182
C12_4 C 0.6155 0.1529 0.7287
H4_4 H 0.5709 0.1155 0.7602
N1 N 0.6797 -0.0000 0.2500
C14 C 0.6859 0.0826 0.3137
H6 H 0.636497 0.0406029 0.210411
H10 H 0.725186 0.144545 0.285401
H11 H 0.611824 0.105733 0.33154
H12 H 0.725186 0.0574191 0.370351
N1_2 N 0.6797 1.0000 0.2500
C13 C 0.6859 0.9174 0.1863
H5 H 0.636497 0.959397 0.289589
H7 H 0.725186 0.855455 0.214599
H8 H 0.611824 0.894267 0.16846
H9 H 0.725186 0.942581 0.129649
N1_3 N 0.3203 0.0000 0.7500
C13_2 C 0.3141 0.0826 0.6863
H5_2 H 0.363503 0.0406029 0.789589
H7_2 H 0.274814 0.144545 0.714599
H8_2 H 0.388176 0.105733 0.66846
H9_2 H 0.274814 0.0574191 0.629649
N1_4 N 0.3203 1.0000 0.7500
C14_2 C 0.3141 0.9174 0.8137
H6_2 H 0.363503 0.959397 0.710411
H10_2 H 0.274814 0.855455 0.785401
H11_2 H 0.388176 0.894267 0.83154
H12_2 H 0.274814 0.942581 0.870351
N1_5 N 0.0000 0.3203 0.5000
C13_3 C 0.0826 0.3141 0.5637
H5_3 H 0.0406029 0.363503 0.460411
H7_3 H 0.144545 0.274814 0.535401
H8_3 H 0.105733 0.388176 0.58154
H9_3 H 0.0574191 0.274814 0.620351
N1_6 N 1.0000 0.3203 0.5000
C14_3 C 0.9174 0.3141 0.4363
H6_3 H 0.959397 0.363503 0.539589
H10_3 H 0.855455 0.274814 0.464599
H11_3 H 0.894267 0.388176 0.41846
H12_3 H 0.942581 0.274814 0.379649
N1_7 N -0.0000 0.6797 0.0000
H6_4 H 0.0406029 0.636497 0.0395889
N1_8 N 0.0000 0.6797 1.0000
C14_4 C 0.0826 0.6859 0.9363
H10_4 H 0.144545 0.725186 0.964599
H11_4 H 0.105733 0.611824 0.91846
H12_4 H 0.0574191 0.725186 0.879649
N1_9 N 1.0000 0.6797 0.0000
C13_4 C 0.9174 0.6859 0.0637
H7_4 H 0.855455 0.725186 0.0354009
H8_4 H 0.894267 0.611824 0.0815401
H9_4 H 0.942581 0.725186 0.120351
N1_10 N 1.0000 0.6797 1.0000
H5_4 H 0.959397 0.636497 0.960411
loop_
_geom_bond_atom_site_label_1
_geom_bond_atom_site_label_2
_geom_bond_site_symmetry_1
_geom_bond_site_symmetry_2
O9 In1 1_555 1_555
O12 In1 1_555 1_555
O10 In1_2 1_555 1_555
O11 In1_2 1_555 1_555
O9_2 In1_3 1_555 1_555
O10_2 In1_3 1_555 1_555
O11_2 In1_3 1_555 1_555
O12_2 In1_3 1_555 1_555
H1 C5 1_555 1_555
S1 C3 1_555 1_555
O1 C2 1_555 1_555
O11 C1 1_555 1_555
C1 C4 1_555 1_555
C2 O2 1_555 1_555
C3 C2 1_555 1_555
C4 S1 1_555 1_555
C6 C3 1_555 1_555
S2 C9 1_555 1_555
O10_2 C7 1_555 1_555
O12_2 C7 1_555 1_555
C7 C10 1_555 1_555
C8 O5 1_555 1_555
C9 C8 1_555 1_555
C10 S2 1_555 1_555
C11 C10 1_555 1_555
H3 C11 1_555 1_555
C12 C9 1_555 1_555
H4 C12 1_555 1_555
O6 C8 1_555 1_555
C11 C12 1_555 1_555
S1_2 C3_2 1_555 1_555
O1_2 C2_2 1_555 1_555
O9_2 C1_2 1_555 1_555
O11_2 C1_2 1_555 1_555
C1_2 C4_2 1_555 1_555
C2_2 O2_2 1_555 1_555
C3_2 C2_2 1_555 1_555
C4_2 S1_2 1_555 1_555
C5_2 C4_2 1_555 1_555
H1_2 C5_2 1_555 1_555
C6_2 C3_2 1_555 1_555
H2_2 C6_2 1_555 1_555
S2_2 C9_2 1_555 1_555
O12 C7_2 1_555 1_555
C7_2 C10_2 1_555 1_555
C8_2 O5_2 1_555 1_555
C9_2 C8_2 1_555 1_555
C10_2 S2_2 1_555 1_555
C12_2 C9_2 1_555 1_555
C5_2 C6_2 1_555 1_555
O6_2 C8_2 1_555 1_555
H3_2 C11_2 1_555 1_555
S2_3 C9_3 1_555 1_555
O7 C7_3 1_555 1_555
O8 C7_3 1_555 1_555
C7_3 C10_3 1_555 1_555
C8_3 O5_3 1_555 1_555
C9_3 C8_3 1_555 1_555
C10_3 S2_3 1_555 1_555
C11_3 C10_3 1_555 1_555
H3_3 C11_3 1_555 1_555
C12_3 C9_3 1_555 1_555
H4_3 C12_3 1_555 1_555
In3 O7 1_555 1_555
O6_3 C8_3 1_555 1_555
O8 In3 1_555 1_555
C11_3 C12_3 1_555 1_555
S1_3 C3_3 1_555 1_555
O1_3 C2_3 1_555 1_555
O3 C1_3 1_555 1_555
O4 C1_3 1_555 1_555
C1_3 C4_3 1_555 1_555
C2_3 O2_3 1_555 1_555
C3_3 C2_3 1_555 1_555
C4_3 S1_3 1_555 1_555
C5_3 C4_3 1_555 1_555
H1_3 C5_3 1_555 1_555
C6_3 C3_3 1_555 1_555
H2_3 C6_3 1_555 1_555
In2 O3 1_555 1_555
O4 In2 1_555 1_555
C5_3 C6_3 1_555 1_555
S1_4 C3_4 1_555 1_555
O1_4 C2_4 1_555 1_555
O3_2 C1_4 1_555 1_555
O4_2 C1_4 1_555 1_555
C1_4 C4_4 1_555 1_555
C2_4 O2_4 1_555 1_555
C3_4 C2_4 1_555 1_555
C4_4 S1_4 1_555 1_555
C5_4 C4_4 1_555 1_555
H1_4 C5_4 1_555 1_555
C6_4 C3_4 1_555 1_555
H2_4 C6_4 1_555 1_555
S2_4 C9_4 1_555 1_555
O7_2 C7_4 1_555 1_555
O8_2 C7_4 1_555 1_555
C7_4 C10_4 1_555 1_555
C8_4 O5_4 1_555 1_555
C9_4 C8_4 1_555 1_555
C10_4 S2_4 1_555 1_555
C11_4 C10_4 1_555 1_555
H3_4 C11_4 1_555 1_555
C12_4 C9_4 1_555 1_555
H4_4 C12_4 1_555 1_555
In3 O3_2 1_555 1_555
In2 O7_2 1_555 1_555
O4_2 In3 1_555 1_555
C5_4 C6_4 1_555 1_555
O6_4 C8_4 1_555 1_555
O8_2 In2 1_555 1_555
C11_4 C12_4 1_555 1_555
C14 N1 1_555 1_555
N1 H6 1_555 1_555
C14 H10 1_555 1_555
C14 H11 1_555 1_555
C14 H12 1_555 1_555
N1_2 C13 1_555 1_555
N1_2 H5 1_555 1_555
C13 H7 1_555 1_555
C13 H8 1_555 1_555
C13 H9 1_555 1_555
N1_3 C13_2 1_555 1_555
N1_3 H5_2 1_555 1_555
C13_2 H7_2 1_555 1_555
C13_2 H8_2 1_555 1_555
C13_2 H9_2 1_555 1_555
C14_2 N1_4 1_555 1_555
N1_4 H6_2 1_555 1_555
C14_2 H10_2 1_555 1_555
C14_2 H11_2 1_555 1_555
C14_2 H12_2 1_555 1_555
N1_5 C13_3 1_555 1_555
N1_5 H5_3 1_555 1_555
C13_3 H7_3 1_555 1_555
C13_3 H8_3 1_555 1_555
C13_3 H9_3 1_555 1_555
C14_3 N1_6 1_555 1_555
N1_6 H6_3 1_555 1_555
C14_3 H10_3 1_555 1_555
C14_3 H11_3 1_555 1_555
C14_3 H12_3 1_555 1_555
N1_7 H6_4 1_555 1_555
C14_4 N1_8 1_555 1_555
C14_4 H10_4 1_555 1_555
C14_4 H11_4 1_555 1_555
C14_4 H12_4 1_555 1_555
N1_9 C13_4 1_555 1_555
C13_4 H7_4 1_555 1_555
C13_4 H8_4 1_555 1_555
C13_4 H9_4 1_555 1_555
N1_10 H5_4 1_555 1_555

#END
