
###############################################################################
#
# This file contains modified crystal structure data generated from the
# MOF subset of the Cambridge Structural Database (CSD) v543 
# hosted by the Cambridge Crystallographic Data Centre (CCDC).
#
# This work is licensed under the Creative Commons
# Attribution-NonCommercial-ShareAlike 4.0 International License.
# To view a copy of this license, visit
# http://creativecommons.org/licenses/by-nc-sa/4.0/
# or send a letter to
# Creative Commons, PO Box 1866, Mountain View, CA 94042, USA.
#
# CIF created using the CSD Python API on 29 September 2022
# The structure has been converted into the P1 space group
# The structure has a 3D framework
# The original CSD entry PUZMAZ is in the cubic crystal system
# The framework has been calculated to contain at least 10.0% void space
# The void calculation uses a probe of radius 1.32A, grid spacing 0.4
#
###############################################################################

data_PUZMAZ
_chemical_formula_moiety         '(C4992 H3072 Co216 N1920 S384)n'
_symmetry_cell_setting           triclinic
_symmetry_space_group_name_H-M   'P 1'
_symmetry_Int_Tables_number      1
_space_group_name_Hall           'P 1'
loop_
_symmetry_equiv_pos_site_id
_symmetry_equiv_pos_as_xyz
1 x,y,z
_cell_length_a                   74.972(2)
_cell_length_b                   74.972(2)
_cell_length_c                   74.972(2)
_cell_angle_alpha                90
_cell_angle_beta                 90
_cell_angle_gamma                90
_cell_volume                     421403
loop_
_atom_site_label
_atom_site_type_symbol
_atom_site_fract_x
_atom_site_fract_y
_atom_site_fract_z
N1 N 0.07010(7) 0.17949(6) 0.59256(6)
C1 C 0.08466(8) 0.18644(8) 0.58483(8)
N2 N 0.11044(5) 0.22936(6) 0.61141(6)
C2 C 0.09372(8) 0.22506(8) 0.61502(8)
H1 H 0.0875 0.2319 0.6237
C3 C 0.08472(9) 0.21120(8) 0.60695(9)
H2 H 0.0729 0.2083 0.6104
C4 C 0.09304(8) 0.20176(8) 0.59395(7)
C5 C 0.11064(10) 0.20598(10) 0.58988(10)
H3 H 0.1169 0.1995 0.5810
C6 C 0.11880(11) 0.21978(10) 0.59903(10)
H4 H 0.1309 0.2225 0.5964
Co1 Co 0.125000(10) 0.2504 0.6250
N3 N 0.10615(5) 0.25073(4) 0.64556(5)
C7 C 0.10015(8) 0.24933(7) 0.65956(9)
S1 S 0.09255(4) 0.24680(4) 0.68001(3)
N4 N 0.10979(5) 0.27097(5) 0.61148(5)
C8 C 0.09251(6) 0.27347(6) 0.61498(6)
H5 H 0.0868 0.2656 0.6231
C9 C 0.08250(6) 0.28688(6) 0.60738(6)
H6 H 0.0703 0.2883 0.6104
C10 C 0.09056(6) 0.29816(6) 0.59539(6)
C11 C 0.10858(7) 0.29543(7) 0.59108(7)
H7 H 0.1144 0.3026 0.5824
C12 C 0.11750(6) 0.28218(7) 0.59970(7)
H8 H 0.1299 0.2807 0.5973
C13 C 0.07859(6) 0.33354(6) 0.56527(6)
N5 N 0.08684(6) 0.31910(5) 0.57146(5)
C14 C 0.08110(6) 0.31340(6) 0.58736(6)
N6 N 0.06784(5) 0.32083(5) 0.59688(5)
C15 C 0.06035(6) 0.33505(6) 0.58904(7)
N7 N 0.06502(6) 0.34189(6) 0.57339(5)
N8 N 0.10247(5) 0.35679(5) 0.51958(5)
C16 C 0.10593(8) 0.33985(7) 0.52426(7)
H9 H 0.1144 0.3333 0.5175
C17 C 0.09772(7) 0.33161(7) 0.53851(7)
H10 H 0.1005 0.3196 0.5415
C18 C 0.08541(7) 0.34111(6) 0.54844(6)
C19 C 0.08102(6) 0.35818(7) 0.54301(7)
H11 H 0.0721 0.3648 0.5491
C20 C 0.08976(6) 0.36541(6) 0.52860(6)
H12 H 0.0866 0.3771 0.5249
N9 N 0.01951(5) 0.36329(5) 0.61693(5)
C21 C 0.02202(7) 0.36509(7) 0.59932(7)
H13 H 0.0143 0.3729 0.5930
C22 C 0.03498(7) 0.35638(7) 0.58993(7)
H14 H 0.0364 0.3584 0.5775
C23 C 0.04605(6) 0.34457(6) 0.59888(6)
C24 C 0.04304(7) 0.34172(7) 0.61709(7)
H15 H 0.0499 0.3332 0.6235
C25 C 0.02995(6) 0.35149(7) 0.62549(6)
H16 H 0.0282 0.3498 0.6379
Co2 Co 0.1196 0.369641(9) 0.500000(9)
N10 N 0.13938(5) 0.35058(5) 0.50348(5)
C26 C 0.14802(7) 0.34307(7) 0.51417(8)
S2 S 0.15991(3) 0.33312(3) 0.52926(3)
N11 N 0.09256(6) 0.17990(7) 0.57051(6)
N12 N 0.07051(6) 0.15744(6) 0.57010(7)
N13 N 0.17990(7) 0.17949(6) 0.65744(6)
N14 N 0.15744(6) 0.17990(7) 0.67949(6)
N15 N 0.17949(6) 0.15744(6) 0.67990(7)
C27 C 0.08483(8) 0.16534(8) 0.56356(8)
C28 C 0.06356(8) 0.16517(8) 0.58466(8)
C29 C 0.16534(8) 0.18644(8) 0.66517(8)
C30 C 0.16517(8) 0.16534(8) 0.68644(8)
C31 C 0.18644(8) 0.16517(8) 0.66534(8)
N16 N 0.02064(6) 0.13859(6) 0.61044(5)
N17 N 0.11141(6) 0.13956(5) 0.52064(6)
N18 N 0.13956(5) 0.22936(6) 0.63859(6)
N19 N 0.22936(6) 0.13859(6) 0.63956(5)
N20 N 0.13859(6) 0.13956(5) 0.72936(6)
C32 C 0.02494(8) 0.13498(8) 0.59372(8)
C33 C 0.11502(8) 0.15628(8) 0.52494(8)
C34 C 0.15628(8) 0.22506(8) 0.63498(8)
C35 C 0.22506(8) 0.13498(8) 0.65628(8)
C36 C 0.13498(8) 0.15628(8) 0.72506(8)
H17 H 0.0181 0.1263 0.5875
H18 H 0.1237 0.1625 0.5181
H19 H 0.1625 0.2319 0.6263
H20 H 0.2319 0.1263 0.6625
H21 H 0.1263 0.1625 0.7319
C37 C 0.03880(8) 0.14305(9) 0.58472(9)
C38 C 0.10695(9) 0.16528(9) 0.53880(8)
C39 C 0.16528(9) 0.21120(8) 0.64305(9)
C40 C 0.21120(8) 0.14305(9) 0.66528(9)
C41 C 0.14305(9) 0.16528(9) 0.71120(8)
H22 H 0.0417 0.1396 0.5729
H23 H 0.1104 0.1771 0.5417
H24 H 0.1771 0.2083 0.6396
H25 H 0.2083 0.1396 0.6771
H26 H 0.1396 0.1771 0.7083
C42 C 0.04824(8) 0.15605(7) 0.59304(8)
C43 C 0.09395(7) 0.15696(8) 0.54824(8)
C44 C 0.15696(8) 0.20176(8) 0.65605(7)
C45 C 0.20176(8) 0.15605(7) 0.65696(8)
C46 C 0.15605(7) 0.15696(8) 0.70176(8)
C47 C 0.04402(10) 0.16012(10) 0.61064(10)
C48 C 0.08988(10) 0.13936(10) 0.54402(10)
C49 C 0.13936(10) 0.20598(10) 0.66012(10)
C50 C 0.20598(10) 0.16012(10) 0.63936(10)
C51 C 0.16012(10) 0.13936(10) 0.70598(10)
H27 H 0.0505 0.1690 0.6169
H28 H 0.0810 0.1331 0.5505
H29 H 0.1331 0.1995 0.6690
H30 H 0.1995 0.1690 0.6331
H31 H 0.1690 0.1331 0.6995
C52 C 0.03022(10) 0.15097(10) 0.61880(11)
C53 C 0.09903(10) 0.13120(11) 0.53022(10)
C54 C 0.13120(11) 0.21978(10) 0.65097(10)
C55 C 0.21978(10) 0.15097(10) 0.63120(11)
C56 C 0.15097(10) 0.13120(11) 0.71978(10)
H32 H 0.0275 0.1536 0.6309
H33 H 0.0964 0.1191 0.5275
H34 H 0.1191 0.2225 0.6536
H35 H 0.2225 0.1536 0.6191
H36 H 0.1536 0.1191 0.7225
Co4 Co 0.1250 0.125000(10) 0.4996
Co5 Co 0.2504 0.1250 0.625000(10)
Co6 Co 0.1250 0.125000(10) 0.7504
N21 N 0.14385(5) 0.25073(4) 0.60444(5)
C57 C 0.14985(8) 0.24933(7) 0.59044(9)
S3 S 0.15745(4) 0.24680(4) 0.56999(3)
N22 N 0.14021(5) 0.27097(5) 0.63852(5)
C58 C 0.15749(6) 0.27347(6) 0.63502(6)
H37 H 0.1632 0.2656 0.6269
C59 C 0.16750(6) 0.28688(6) 0.64262(6)
H38 H 0.1797 0.2883 0.6396
C60 C 0.15944(6) 0.29816(6) 0.65461(6)
C61 C 0.14142(7) 0.29543(7) 0.65892(7)
H39 H 0.1356 0.3026 0.6676
C62 C 0.13250(6) 0.28218(7) 0.65030(7)
H40 H 0.1201 0.2807 0.6527
C63 C 0.17141(6) 0.33354(6) 0.68473(6)
N23 N 0.16316(6) 0.31910(5) 0.67854(5)
C64 C 0.16890(6) 0.31340(6) 0.66264(6)
N24 N 0.18216(5) 0.32083(5) 0.65312(5)
C65 C 0.18965(6) 0.33505(6) 0.66096(7)
N25 N 0.18498(6) 0.34189(6) 0.67661(5)
N26 N 0.14753(5) 0.35679(5) 0.73042(5)
N27 N 0.10679(5) 0.35247(5) 0.48042(5)
N28 N 0.01958(5) 0.39321(5) 0.64753(5)
C66 C 0.14407(8) 0.33985(7) 0.72574(7)
H41 H 0.1356 0.3333 0.7325
C67 C 0.15228(7) 0.33161(7) 0.71149(7)
H42 H 0.1495 0.3196 0.7085
C68 C 0.16459(7) 0.34111(6) 0.70156(6)
C69 C 0.16898(6) 0.35818(7) 0.70699(7)
H43 H 0.1779 0.3648 0.7009
C70 C 0.16024(6) 0.36541(6) 0.72140(6)
H44 H 0.1634 0.3771 0.7251
N30 N 0.23049(5) 0.36329(5) 0.63307(5)
N31 N 0.13307(5) 0.38671(5) 0.51951(5)
N32 N 0.13671(5) 0.38307(5) 0.48049(5)
C71 C 0.22798(7) 0.36509(7) 0.65068(7)
H45 H 0.2357 0.3729 0.6570
C72 C 0.21502(7) 0.35638(7) 0.66007(7)
H46 H 0.2136 0.3584 0.6725
C73 C 0.20395(6) 0.34457(6) 0.65112(6)
C74 C 0.20696(7) 0.34172(7) 0.63291(7)
H47 H 0.2001 0.3332 0.6265
C75 C 0.22005(6) 0.35149(7) 0.62451(6)
H48 H 0.2218 0.3498 0.6121
Co7 Co 0.1304 0.369641(9) 0.750000(9)
Co8 Co -0.000000(9) 0.380359(9) 0.6304
Co9 Co 0.250000(9) 0.380359(9) 0.6196
N34 N 0.10058(5) 0.38938(5) 0.49652(5)
N35 N 0.00348(5) 0.39942(5) 0.61062(5)
C76 C 0.09307(7) 0.39802(7) 0.48583(8)
C77 C 0.01417(8) 0.40693(7) 0.60198(7)
S4 S 0.08312(3) 0.40991(3) 0.47074(3)
S5 S 0.02926(3) 0.41688(3) 0.59009(3)
Co3 Co 0.9996 0.1250 0.625000(10)
N29 N 0.98042(5) 0.39753(5) 0.64321(5)
N33 N 0.98049(5) 0.36693(5) 0.61329(5)
Co8_2 Co 1.000000(9) 0.380359(9) 0.6304
N36 N 0.99652(5) 0.36062(5) 0.64942(5)
C78 C 0.98583(8) 0.35198(7) 0.65693(7)
S6 S 0.97074(3) 0.34009(3) 0.66688(3)
Co2_2 Co 0.619641(9) 0.3696 0.000000(9)
Co4_2 Co 0.375000(10) 0.3750 0.0004
N27_2 N 0.60247(5) 0.35679(5) 0.01958(5)
N32_2 N 0.63307(5) 0.38671(5) 0.01951(5)
N34_2 N 0.63938(5) 0.35058(5) 0.00348(5)
C76_2 C 0.64802(7) 0.34307(7) 0.01417(8)
S4_2 S 0.65991(3) 0.33312(3) 0.02926(3)
N1_2 N 0.42949(6) 0.32010(7) 0.90744(6)
C1_2 C 0.43644(8) 0.33466(8) 0.91517(8)
N2_2 N 0.47936(6) 0.36044(5) 0.88859(6)
C2_2 C 0.47506(8) 0.34372(8) 0.88498(8)
H1_2 H 0.4819 0.3375 0.8763
C3_2 C 0.46120(8) 0.33472(9) 0.89305(9)
H2_2 H 0.4583 0.3229 0.8896
C4_2 C 0.45176(8) 0.34304(8) 0.90605(7)
C5_2 C 0.45598(10) 0.36064(10) 0.91012(10)
H3_2 H 0.4495 0.3669 0.9190
C6_2 C 0.46978(10) 0.36880(11) 0.90097(10)
H4_2 H 0.4725 0.3809 0.9036
Co1_2 Co 0.5004 0.375000(10) 0.8750
N3_2 N 0.50073(4) 0.35615(5) 0.85444(5)
C7_2 C 0.49933(7) 0.35015(8) 0.84044(9)
S1_2 S 0.49680(4) 0.34255(4) 0.81999(3)
N4_2 N 0.52097(5) 0.35979(5) 0.88852(5)
C8_2 C 0.52347(6) 0.34251(6) 0.88502(6)
H5_2 H 0.5156 0.3368 0.8769
C9_2 C 0.53688(6) 0.33250(6) 0.89262(6)
H6_2 H 0.5383 0.3203 0.8896
C10_2 C 0.54816(6) 0.34056(6) 0.90461(6)
C11_2 C 0.54543(7) 0.35858(7) 0.90892(7)
H7_2 H 0.5526 0.3644 0.9176
C12_2 C 0.53218(7) 0.36750(6) 0.90030(7)
H8_2 H 0.5307 0.3799 0.9027
C13_2 C 0.58354(6) 0.32859(6) 0.93473(6)
N5_2 N 0.56910(5) 0.33684(6) 0.92854(5)
C14_2 C 0.56340(6) 0.33110(6) 0.91264(6)
N6_2 N 0.57083(5) 0.31784(5) 0.90312(5)
C15_2 C 0.58505(6) 0.31035(6) 0.91096(7)
N7_2 N 0.59189(6) 0.31502(6) 0.92661(5)
N8_2 N 0.60679(5) 0.35247(5) 0.98042(5)
C16_2 C 0.58985(7) 0.35593(8) 0.97574(7)
H9_2 H 0.5833 0.3644 0.9825
C17_2 C 0.58161(7) 0.34772(7) 0.96149(7)
H10_2 H 0.5696 0.3505 0.9585
C18_2 C 0.59111(6) 0.33541(7) 0.95156(6)
C19_2 C 0.60818(7) 0.33102(6) 0.95699(7)
H11_2 H 0.6148 0.3221 0.9509
C20_2 C 0.61541(6) 0.33976(6) 0.97140(6)
H12_2 H 0.6271 0.3366 0.9751
N9_2 N 0.61329(5) 0.26951(5) 0.88307(5)
C21_2 C 0.61509(7) 0.27202(7) 0.90068(7)
H13_2 H 0.6229 0.2643 0.9070
C22_2 C 0.60638(7) 0.28498(7) 0.91007(7)
H14_2 H 0.6084 0.2864 0.9225
C23_2 C 0.59457(6) 0.29605(6) 0.90112(6)
C24_2 C 0.59172(7) 0.29304(7) 0.88291(7)
H15_2 H 0.5832 0.2999 0.8765
C25_2 C 0.60149(7) 0.27995(6) 0.87451(6)
H16_2 H 0.5998 0.2782 0.8621
Co2_3 Co 0.619641(9) 0.3696 1.000000(9)
N10_2 N 0.60058(5) 0.38938(5) 0.99652(5)
C26_2 C 0.59307(7) 0.39802(7) 0.98583(8)
S2_2 S 0.58312(3) 0.40991(3) 0.97074(3)
N11_2 N 0.42990(7) 0.34256(6) 0.92949(6)
N12_2 N 0.40744(6) 0.32051(6) 0.92990(7)
N13_2 N 0.42949(6) 0.42990(7) 0.84256(6)
N14_2 N 0.42990(7) 0.40744(6) 0.82051(6)
N15_2 N 0.40744(6) 0.42949(6) 0.82010(7)
C27_2 C 0.41534(8) 0.33483(8) 0.93644(8)
C28_2 C 0.41517(8) 0.31356(8) 0.91534(8)
C29_2 C 0.43644(8) 0.41534(8) 0.83483(8)
C30_2 C 0.41534(8) 0.41517(8) 0.81356(8)
C31_2 C 0.41517(8) 0.43644(8) 0.83466(8)
N16_2 N 0.38859(6) 0.27064(6) 0.88956(5)
N17_2 N 0.38956(5) 0.36141(6) 0.97936(6)
N18_2 N 0.47936(6) 0.38956(5) 0.86141(6)
N19_2 N 0.38859(6) 0.47936(6) 0.86044(5)
N20_2 N 0.38956(5) 0.38859(6) 0.77064(6)
C32_2 C 0.38498(8) 0.27494(8) 0.90628(8)
C33_2 C 0.40628(8) 0.36502(8) 0.97506(8)
C34_2 C 0.47506(8) 0.40628(8) 0.86502(8)
C35_2 C 0.38498(8) 0.47506(8) 0.84372(8)
C36_2 C 0.40628(8) 0.38498(8) 0.77494(8)
H17_2 H 0.3763 0.2681 0.9125
H18_2 H 0.4125 0.3737 0.9819
H19_2 H 0.4819 0.4125 0.8737
H20_2 H 0.3763 0.4819 0.8375
H21_2 H 0.4125 0.3763 0.7681
C37_2 C 0.39305(9) 0.28880(8) 0.91528(9)
C38_2 C 0.41528(9) 0.35695(9) 0.96120(8)
C39_2 C 0.46120(8) 0.41528(9) 0.85695(9)
C40_2 C 0.39305(9) 0.46120(8) 0.83472(9)
C41_2 C 0.41528(9) 0.39305(9) 0.78880(8)
H22_2 H 0.3896 0.2917 0.9271
H23_2 H 0.4271 0.3604 0.9583
H24_2 H 0.4583 0.4271 0.8604
H25_2 H 0.3896 0.4583 0.8229
H26_2 H 0.4271 0.3896 0.7917
C42_2 C 0.40605(7) 0.29824(8) 0.90696(8)
C43_2 C 0.40696(8) 0.34395(7) 0.95176(8)
C44_2 C 0.45176(8) 0.40696(8) 0.84395(7)
C45_2 C 0.40605(7) 0.45176(8) 0.84304(8)
C46_2 C 0.40696(8) 0.40605(7) 0.79824(8)
C47_2 C 0.41012(10) 0.29402(10) 0.88936(10)
C48_2 C 0.38936(10) 0.33988(10) 0.95598(10)
C49_2 C 0.45598(10) 0.38936(10) 0.83988(10)
C50_2 C 0.41012(10) 0.45598(10) 0.86064(10)
C51_2 C 0.38936(10) 0.41012(10) 0.79402(10)
H27_2 H 0.4190 0.3005 0.8831
H28_2 H 0.3831 0.3310 0.9495
H29_2 H 0.4495 0.3831 0.8310
H30_2 H 0.4190 0.4495 0.8669
H31_2 H 0.3831 0.4190 0.8005
C52_2 C 0.40097(10) 0.28022(10) 0.88120(11)
C53_2 C 0.38120(11) 0.34903(10) 0.96978(10)
C54_2 C 0.46978(10) 0.38120(11) 0.84903(10)
C55_2 C 0.40097(10) 0.46978(10) 0.86880(11)
C56_2 C 0.38120(11) 0.40097(10) 0.78022(10)
H32_2 H 0.4036 0.2775 0.8691
H33_2 H 0.3691 0.3464 0.9725
H34_2 H 0.4725 0.3691 0.8464
H35_2 H 0.4036 0.4725 0.8809
H36_2 H 0.3691 0.4036 0.7775
Co3_2 Co 0.3750 0.2496 0.875000(10)
Co5_2 Co 0.3750 0.5004 0.875000(10)
Co6_2 Co 0.375000(10) 0.3750 0.7496
N21_2 N 0.50073(4) 0.39385(5) 0.89556(5)
C57_2 C 0.49933(7) 0.39985(8) 0.90956(9)
S3_2 S 0.49680(4) 0.40745(4) 0.93001(3)
N22_2 N 0.52097(5) 0.39021(5) 0.86148(5)
C58_2 C 0.52347(6) 0.40749(6) 0.86498(6)
H37_2 H 0.5156 0.4132 0.8731
C59_2 C 0.53688(6) 0.41750(6) 0.85738(6)
H38_2 H 0.5383 0.4297 0.8604
C60_2 C 0.54816(6) 0.40944(6) 0.84539(6)
C61_2 C 0.54543(7) 0.39142(7) 0.84108(7)
H39_2 H 0.5526 0.3856 0.8324
C62_2 C 0.53218(7) 0.38250(6) 0.84970(7)
H40_2 H 0.5307 0.3701 0.8473
C63_2 C 0.58354(6) 0.42141(6) 0.81527(6)
N23_2 N 0.56910(5) 0.41316(6) 0.82146(5)
C64_2 C 0.56340(6) 0.41890(6) 0.83736(6)
N24_2 N 0.57083(5) 0.43216(5) 0.84688(5)
C65_2 C 0.58505(6) 0.43965(6) 0.83904(7)
N25_2 N 0.59189(6) 0.43498(6) 0.82339(5)
N26_2 N 0.60679(5) 0.39753(5) 0.76958(5)
N28_2 N 0.64321(5) 0.26958(5) 0.85247(5)
N29_2 N 0.64753(5) 0.23042(5) 0.85679(5)
C66_2 C 0.58985(7) 0.39407(8) 0.77426(7)
H41_2 H 0.5833 0.3856 0.7675
C67_2 C 0.58161(7) 0.40228(7) 0.78851(7)
H42_2 H 0.5696 0.3995 0.7915
C68_2 C 0.59111(6) 0.41459(7) 0.79844(6)
C69_2 C 0.60818(7) 0.41898(6) 0.79301(7)
H43_2 H 0.6148 0.4279 0.7991
C70_2 C 0.61541(6) 0.41024(6) 0.77860(6)
H44_2 H 0.6271 0.4134 0.7749
N30_2 N 0.61329(5) 0.48049(5) 0.86693(5)
N31_2 N 0.63671(5) 0.38307(5) 0.98049(5)
N33_2 N 0.61693(5) 0.23049(5) 0.88671(5)
C71_2 C 0.61509(7) 0.47798(7) 0.84932(7)
H45_2 H 0.6229 0.4857 0.8430
C72_2 C 0.60638(7) 0.46502(7) 0.83993(7)
H46_2 H 0.6084 0.4636 0.8275
C73_2 C 0.59457(6) 0.45395(6) 0.84888(6)
C74_2 C 0.59172(7) 0.45696(7) 0.86709(7)
H47_2 H 0.5832 0.4501 0.8735
C75_2 C 0.60149(7) 0.47005(6) 0.87549(6)
H48_2 H 0.5998 0.4718 0.8879
Co7_2 Co 0.619641(9) 0.3804 0.750000(9)
Co8_3 Co 0.630359(9) 0.250000(9) 0.8696
Co9_2 Co 0.630359(9) 0.500000(9) 0.8804
N35_2 N 0.64942(5) 0.25348(5) 0.88938(5)
N36_2 N 0.61062(5) 0.24652(5) 0.85058(5)
C77_2 C 0.65693(7) 0.26417(8) 0.89802(7)
C78_2 C 0.60198(7) 0.23583(8) 0.84307(7)
S5_2 S 0.66688(3) 0.27926(3) 0.90991(3)
S6_2 S 0.59009(3) 0.22074(3) 0.83312(3)
N3_3 N 0.35615(5) 0.35444(5) 0.00073(4)
N4_3 N 0.35979(5) 0.38852(5) 0.02097(5)
C8_3 C 0.34251(6) 0.38502(6) 0.02347(6)
H5_3 H 0.3368 0.3769 0.0156
C9_3 C 0.33250(6) 0.39262(6) 0.03688(6)
H6_3 H 0.3203 0.3896 0.0383
C10_3 C 0.34056(6) 0.40461(6) 0.04816(6)
C11_3 C 0.35858(7) 0.40892(7) 0.04543(7)
H7_3 H 0.3644 0.4176 0.0526
C12_3 C 0.36750(6) 0.40030(7) 0.03218(7)
H8_3 H 0.3799 0.4027 0.0307
C13_3 C 0.32859(6) 0.43473(6) 0.08354(6)
N5_3 N 0.33684(6) 0.42854(5) 0.06910(5)
C14_3 C 0.33110(6) 0.41264(6) 0.06340(6)
N6_3 N 0.31784(5) 0.40312(5) 0.07083(5)
C15_3 C 0.31035(6) 0.41096(7) 0.08505(6)
N7_3 N 0.31502(6) 0.42661(5) 0.09189(6)
N8_3 N 0.35247(5) 0.48042(5) 0.10679(5)
C16_3 C 0.35593(8) 0.47574(7) 0.08985(7)
H9_3 H 0.3644 0.4825 0.0833
C17_3 C 0.34772(7) 0.46149(7) 0.08161(7)
H10_3 H 0.3505 0.4585 0.0696
C18_3 C 0.33541(7) 0.45156(6) 0.09111(6)
C19_3 C 0.33102(6) 0.45699(7) 0.10818(7)
H11_3 H 0.3221 0.4509 0.1148
C20_3 C 0.33976(6) 0.47140(6) 0.11541(6)
H12_3 H 0.3366 0.4751 0.1271
N9_3 N 0.26951(5) 0.38307(5) 0.11329(5)
C21_3 C 0.27202(7) 0.40068(7) 0.11509(7)
H13_3 H 0.2643 0.4070 0.1229
C22_3 C 0.28498(7) 0.41007(7) 0.10638(7)
H14_3 H 0.2864 0.4225 0.1084
C23_3 C 0.29605(6) 0.40112(6) 0.09457(6)
C24_3 C 0.29304(7) 0.38291(7) 0.09172(7)
H15_3 H 0.2999 0.3765 0.0832
C25_3 C 0.27995(6) 0.37451(6) 0.10149(7)
H16_3 H 0.2782 0.3621 0.0998
Co2_4 Co 0.3696 0.500000(9) 0.119641(9)
N10_3 N 0.38938(5) 0.49652(5) 0.10058(5)
C26_3 C 0.39802(7) 0.48583(8) 0.09307(7)
S2_3 S 0.40991(3) 0.47074(3) 0.08312(3)
N21_3 N 0.39385(5) 0.39556(5) 0.00073(4)
N22_3 N 0.39021(5) 0.36148(5) 0.02097(5)
C58_3 C 0.40749(6) 0.36498(6) 0.02347(6)
H37_3 H 0.4132 0.3731 0.0156
C59_3 C 0.41750(6) 0.35738(6) 0.03688(6)
H38_3 H 0.4297 0.3604 0.0383
C60_3 C 0.40944(6) 0.34539(6) 0.04816(6)
C61_3 C 0.39142(7) 0.34108(7) 0.04543(7)
H39_3 H 0.3856 0.3324 0.0526
C62_3 C 0.38250(6) 0.34970(7) 0.03218(7)
H40_3 H 0.3701 0.3473 0.0307
C63_3 C 0.42141(6) 0.31527(6) 0.08354(6)
N23_3 N 0.41316(6) 0.32146(5) 0.06910(5)
C64_3 C 0.41890(6) 0.33736(6) 0.06340(6)
N24_3 N 0.43216(5) 0.34688(5) 0.07083(5)
C65_3 C 0.43965(6) 0.33904(7) 0.08505(6)
N25_3 N 0.43498(6) 0.32339(5) 0.09189(6)
N26_3 N 0.39753(5) 0.26958(5) 0.10679(5)
N27_3 N 0.35679(5) 0.51958(5) 0.10247(5)
N28_3 N 0.26958(5) 0.35247(5) 0.14321(5)
N29_3 N 0.23042(5) 0.35679(5) 0.14753(5)
C66_3 C 0.39407(8) 0.27426(7) 0.08985(7)
H41_3 H 0.3856 0.2675 0.0833
C67_3 C 0.40228(7) 0.28851(7) 0.08161(7)
H42_3 H 0.3995 0.2915 0.0696
C68_3 C 0.41459(7) 0.29844(6) 0.09111(6)
C69_3 C 0.41898(6) 0.29301(7) 0.10818(7)
H43_3 H 0.4279 0.2991 0.1148
C70_3 C 0.41024(6) 0.27860(6) 0.11541(6)
H44_3 H 0.4134 0.2749 0.1271
N30_3 N 0.48049(5) 0.36693(5) 0.11329(5)
N31_3 N 0.38307(5) 0.48049(5) 0.13671(5)
N32_3 N 0.38671(5) 0.51951(5) 0.13307(5)
N33_3 N 0.23049(5) 0.38671(5) 0.11693(5)
C71_3 C 0.47798(7) 0.34932(7) 0.11509(7)
H45_3 H 0.4857 0.3430 0.1229
C72_3 C 0.46502(7) 0.33993(7) 0.10638(7)
H46_3 H 0.4636 0.3275 0.1084
C73_3 C 0.45395(6) 0.34888(6) 0.09457(6)
C74_3 C 0.45696(7) 0.36709(7) 0.09172(7)
H47_3 H 0.4501 0.3735 0.0832
C75_3 C 0.47005(6) 0.37549(6) 0.10149(7)
H48_3 H 0.4718 0.3879 0.0998
Co7_3 Co 0.3804 0.250000(9) 0.119641(9)
Co8_4 Co 0.250000(9) 0.3696 0.130359(9)
Co9_3 Co 0.500000(9) 0.3804 0.130359(9)
N34_3 N 0.35058(5) 0.50348(5) 0.13938(5)
N35_3 N 0.25348(5) 0.38938(5) 0.14942(5)
N36_3 N 0.24652(5) 0.35058(5) 0.11062(5)
C76_3 C 0.34307(7) 0.51417(8) 0.14802(7)
C77_3 C 0.26417(8) 0.39802(7) 0.15693(7)
C78_3 C 0.23583(8) 0.34307(7) 0.10198(7)
S4_3 S 0.33312(3) 0.52926(3) 0.15991(3)
S5_3 S 0.27926(3) 0.40991(3) 0.16688(3)
S6_3 S 0.22074(3) 0.33312(3) 0.09009(3)
N1_3 N 0.32010(7) 0.40744(6) 0.92949(6)
C1_3 C 0.33466(8) 0.41517(8) 0.93644(8)
N2_3 N 0.36044(5) 0.38859(6) 0.97936(6)
C2_3 C 0.34372(8) 0.38498(8) 0.97506(8)
H1_3 H 0.3375 0.3763 0.9819
C3_3 C 0.33472(9) 0.39305(9) 0.96120(8)
H2_3 H 0.3229 0.3896 0.9583
C4_3 C 0.34304(8) 0.40605(7) 0.95176(8)
C5_3 C 0.36064(10) 0.41012(10) 0.95598(10)
H3_3 H 0.3669 0.4190 0.9495
C6_3 C 0.36880(11) 0.40097(10) 0.96978(10)
H4_3 H 0.3809 0.4036 0.9725
C7_3 C 0.35015(8) 0.34044(9) 0.99933(7)
S1_3 S 0.34255(4) 0.31999(3) 0.99680(4)
N11_3 N 0.34256(6) 0.42949(6) 0.92990(7)
N12_3 N 0.32051(6) 0.42990(7) 0.90744(6)
C27_3 C 0.33483(8) 0.43644(8) 0.91534(8)
C28_3 C 0.31356(8) 0.41534(8) 0.91517(8)
N16_3 N 0.27064(6) 0.38956(5) 0.88859(6)
N17_3 N 0.36141(6) 0.47936(6) 0.88956(5)
C32_3 C 0.27494(8) 0.40628(8) 0.88498(8)
C33_3 C 0.36502(8) 0.47506(8) 0.90628(8)
H17_3 H 0.2681 0.4125 0.8763
H18_3 H 0.3737 0.4819 0.9125
C37_3 C 0.28880(8) 0.41528(9) 0.89305(9)
C38_3 C 0.35695(9) 0.46120(8) 0.91528(9)
H22_3 H 0.2917 0.4271 0.8896
H23_3 H 0.3604 0.4583 0.9271
C42_3 C 0.29824(8) 0.40696(8) 0.90605(7)
C43_3 C 0.34395(7) 0.45176(8) 0.90696(8)
C47_3 C 0.29402(10) 0.38936(10) 0.91012(10)
C48_3 C 0.33988(10) 0.45598(10) 0.88936(10)
H27_3 H 0.3005 0.3831 0.9190
H28_3 H 0.3310 0.4495 0.8831
C52_3 C 0.28022(10) 0.38120(11) 0.90097(10)
C53_3 C 0.34903(10) 0.46978(10) 0.88120(11)
H32_3 H 0.2775 0.3691 0.9036
H33_3 H 0.3464 0.4725 0.8691
Co3_3 Co 0.2496 0.375000(10) 0.8750
C57_3 C 0.39985(8) 0.40956(9) 0.99933(7)
S3_3 S 0.40745(4) 0.43001(3) 0.99680(4)
Co9_4 Co 0.3804 0.630359(9) 0.000000(9)
N3_4 N 0.35444(5) 0.50073(4) 0.85615(5)
C7_4 C 0.34044(9) 0.49933(7) 0.85015(8)
S1_4 S 0.31999(3) 0.49680(4) 0.84255(4)
N4_4 N 0.38852(5) 0.52097(5) 0.85979(5)
C8_4 C 0.38502(6) 0.52347(6) 0.84251(6)
H5_4 H 0.3769 0.5156 0.8368
C9_4 C 0.39262(6) 0.53688(6) 0.83250(6)
H6_4 H 0.3896 0.5383 0.8203
C10_4 C 0.40461(6) 0.54816(6) 0.84056(6)
C11_4 C 0.40892(7) 0.54543(7) 0.85858(7)
H7_4 H 0.4176 0.5526 0.8644
C12_4 C 0.40030(7) 0.53218(7) 0.86750(6)
H8_4 H 0.4027 0.5307 0.8799
C13_4 C 0.43473(6) 0.58354(6) 0.82859(6)
N5_4 N 0.42854(5) 0.56910(5) 0.83684(6)
C14_4 C 0.41264(6) 0.56340(6) 0.83110(6)
N6_4 N 0.40312(5) 0.57083(5) 0.81784(5)
C15_4 C 0.41096(7) 0.58505(6) 0.81035(6)
N7_4 N 0.42661(5) 0.59189(6) 0.81502(6)
N8_4 N 0.48042(5) 0.60679(5) 0.85247(5)
C16_4 C 0.47574(7) 0.58985(7) 0.85593(8)
H9_4 H 0.4825 0.5833 0.8644
C17_4 C 0.46149(7) 0.58161(7) 0.84772(7)
H10_4 H 0.4585 0.5696 0.8505
C18_4 C 0.45156(6) 0.59111(6) 0.83541(7)
C19_4 C 0.45699(7) 0.60818(7) 0.83102(6)
H11_4 H 0.4509 0.6148 0.8221
C20_4 C 0.47140(6) 0.61541(6) 0.83976(6)
H12_4 H 0.4751 0.6271 0.8366
N9_4 N 0.38307(5) 0.61329(5) 0.76951(5)
C21_4 C 0.40068(7) 0.61509(7) 0.77202(7)
H13_4 H 0.4070 0.6229 0.7643
C22_4 C 0.41007(7) 0.60638(7) 0.78498(7)
H14_4 H 0.4225 0.6084 0.7864
C23_4 C 0.40112(6) 0.59457(6) 0.79605(6)
C24_4 C 0.38291(7) 0.59172(7) 0.79304(7)
H15_4 H 0.3765 0.5832 0.7999
C25_4 C 0.37451(6) 0.60149(7) 0.77995(6)
H16_4 H 0.3621 0.5998 0.7782
Co2_5 Co 0.500000(9) 0.619641(9) 0.8696
N10_4 N 0.49652(5) 0.60058(5) 0.88938(5)
C26_4 C 0.48583(8) 0.59307(7) 0.89802(7)
S2_4 S 0.47074(3) 0.58312(3) 0.90991(3)
N21_4 N 0.39556(5) 0.50073(4) 0.89385(5)
C57_4 C 0.40956(9) 0.49933(7) 0.89985(8)
S3_4 S 0.43001(3) 0.49680(4) 0.90745(4)
N22_4 N 0.36148(5) 0.52097(5) 0.89021(5)
C58_4 C 0.36498(6) 0.52347(6) 0.90749(6)
H37_4 H 0.3731 0.5156 0.9132
C59_4 C 0.35738(6) 0.53688(6) 0.91750(6)
H38_4 H 0.3604 0.5383 0.9297
C60_4 C 0.34539(6) 0.54816(6) 0.90944(6)
C61_4 C 0.34108(7) 0.54543(7) 0.89142(7)
H39_4 H 0.3324 0.5526 0.8856
C62_4 C 0.34970(7) 0.53218(7) 0.88250(6)
H40_4 H 0.3473 0.5307 0.8701
C63_4 C 0.31527(6) 0.58354(6) 0.92141(6)
N23_4 N 0.32146(5) 0.56910(5) 0.91316(6)
C64_4 C 0.33736(6) 0.56340(6) 0.91890(6)
N24_4 N 0.34688(5) 0.57083(5) 0.93216(5)
C65_4 C 0.33904(7) 0.58505(6) 0.93965(6)
N25_4 N 0.32339(5) 0.59189(6) 0.93498(6)
N26_4 N 0.26958(5) 0.60679(5) 0.89753(5)
N27_4 N 0.51958(5) 0.60247(5) 0.85679(5)
N28_4 N 0.35247(5) 0.64321(5) 0.76958(5)
N29_4 N 0.35679(5) 0.64753(5) 0.73042(5)
C66_4 C 0.27426(7) 0.58985(7) 0.89407(8)
H41_4 H 0.2675 0.5833 0.8856
C67_4 C 0.28851(7) 0.58161(7) 0.90228(7)
H42_4 H 0.2915 0.5696 0.8995
C68_4 C 0.29844(6) 0.59111(6) 0.91459(7)
C69_4 C 0.29301(7) 0.60818(7) 0.91898(6)
H43_4 H 0.2991 0.6148 0.9279
C70_4 C 0.27860(6) 0.61541(6) 0.91024(6)
H44_4 H 0.2749 0.6271 0.9134
N30_4 N 0.36693(5) 0.61329(5) 0.98049(5)
N31_4 N 0.48049(5) 0.63671(5) 0.88307(5)
N32_4 N 0.51951(5) 0.63307(5) 0.88671(5)
N33_4 N 0.38671(5) 0.61693(5) 0.73049(5)
C71_4 C 0.34932(7) 0.61509(7) 0.97798(7)
H45_4 H 0.3430 0.6229 0.9857
C72_4 C 0.33993(7) 0.60638(7) 0.96502(7)
H46_4 H 0.3275 0.6084 0.9636
C73_4 C 0.34888(6) 0.59457(6) 0.95395(6)
C74_4 C 0.36709(7) 0.59172(7) 0.95696(7)
H47_4 H 0.3735 0.5832 0.9501
C75_4 C 0.37549(6) 0.60149(7) 0.97005(6)
H48_4 H 0.3879 0.5998 0.9718
Co7_4 Co 0.250000(9) 0.619641(9) 0.8804
Co8_5 Co 0.3696 0.630359(9) 0.750000(9)
Co9_5 Co 0.3804 0.630359(9) 1.000000(9)
N34_4 N 0.50348(5) 0.63938(5) 0.85058(5)
N35_4 N 0.38938(5) 0.64942(5) 0.75348(5)
N36_4 N 0.35058(5) 0.61062(5) 0.74652(5)
C76_4 C 0.51417(8) 0.64802(7) 0.84307(7)
C77_4 C 0.39802(7) 0.65693(7) 0.76417(8)
C78_4 C 0.34307(7) 0.60198(7) 0.73583(8)
S4_4 S 0.52926(3) 0.65991(3) 0.83312(3)
S5_4 S 0.40991(3) 0.66688(3) 0.77926(3)
S6_4 S 0.33312(3) 0.59009(3) 0.72074(3)
N29_5 N 0.39321(5) 0.64753(5) 0.01958(5)
N33_5 N 0.36329(5) 0.61693(5) 0.01951(5)
N36_5 N 0.39942(5) 0.61062(5) 0.00348(5)
C78_5 C 0.40693(7) 0.60198(7) 0.01417(8)
S6_5 S 0.41688(3) 0.59009(3) 0.02926(3)
N10_5 N 0.25348(5) 0.60058(5) 0.86062(5)
C26_5 C 0.26417(8) 0.59307(7) 0.85198(7)
S2_5 S 0.27926(3) 0.58312(3) 0.84009(3)
N27_5 N 0.23042(5) 0.60247(5) 0.89321(5)
N28_5 N 0.39753(5) 0.64321(5) 0.98042(5)
N31_5 N 0.26951(5) 0.63671(5) 0.86693(5)
N32_5 N 0.23049(5) 0.63307(5) 0.86329(5)
N34_5 N 0.24652(5) 0.63938(5) 0.89942(5)
N35_5 N 0.36062(5) 0.64942(5) 0.99652(5)
C76_5 C 0.23583(8) 0.64802(7) 0.90693(7)
C77_5 C 0.35198(7) 0.65693(7) 0.98583(8)
S4_5 S 0.22074(3) 0.65991(3) 0.91688(3)
S5_5 S 0.34009(3) 0.66688(3) 0.97074(3)
N1_4 N 0.65744(6) 0.07010(7) 0.07051(6)
C1_4 C 0.66517(8) 0.08466(8) 0.06356(8)
N2_4 N 0.63859(6) 0.11044(5) 0.02064(6)
C2_4 C 0.63498(8) 0.09372(8) 0.02494(8)
H1_4 H 0.6263 0.0875 0.0181
C3_4 C 0.64305(9) 0.08472(9) 0.03880(8)
H2_4 H 0.6396 0.0729 0.0417
C4_4 C 0.65605(7) 0.09304(8) 0.04824(8)
C5_4 C 0.66012(10) 0.11064(10) 0.04402(10)
H3_4 H 0.6690 0.1169 0.0505
C6_4 C 0.65097(10) 0.11880(11) 0.03022(10)
H4_4 H 0.6536 0.1309 0.0275
C7_5 C 0.59044(9) 0.10015(8) 0.00067(7)
S1_5 S 0.56999(3) 0.09255(4) 0.00320(4)
N11_4 N 0.67949(6) 0.09256(6) 0.07010(7)
N12_4 N 0.67990(7) 0.07051(6) 0.09256(6)
N13_3 N 0.59256(6) 0.17990(7) 0.07051(6)
N14_3 N 0.57051(6) 0.15744(6) 0.07010(7)
N15_3 N 0.57010(7) 0.17949(6) 0.09256(6)
C27_4 C 0.68644(8) 0.08483(8) 0.08466(8)
C28_4 C 0.66534(8) 0.06356(8) 0.08483(8)
C29_3 C 0.58483(8) 0.16534(8) 0.06356(8)
C30_3 C 0.56356(8) 0.16517(8) 0.08466(8)
C31_3 C 0.58466(8) 0.18644(8) 0.08483(8)
N16_4 N 0.63956(5) 0.02064(6) 0.11141(6)
N17_4 N 0.72936(6) 0.11141(6) 0.11044(5)
N18_3 N 0.61141(6) 0.13956(5) 0.02064(6)
N19_3 N 0.61044(5) 0.22936(6) 0.11141(6)
N20_3 N 0.52064(6) 0.13859(6) 0.11044(5)
C32_4 C 0.65628(8) 0.02494(8) 0.11502(8)
C33_4 C 0.72506(8) 0.11502(8) 0.09372(8)
C34_3 C 0.61502(8) 0.15628(8) 0.02494(8)
C35_3 C 0.59372(8) 0.22506(8) 0.11502(8)
C36_3 C 0.52494(8) 0.13498(8) 0.09372(8)
H17_4 H 0.6625 0.0181 0.1237
H18_4 H 0.7319 0.1237 0.0875
H19_3 H 0.6237 0.1625 0.0181
H20_3 H 0.5875 0.2319 0.1237
H21_3 H 0.5181 0.1263 0.0875
C37_4 C 0.66528(9) 0.03880(8) 0.10695(9)
C38_4 C 0.71120(8) 0.10695(9) 0.08472(9)
C39_3 C 0.60695(9) 0.16528(9) 0.03880(8)
C40_3 C 0.58472(9) 0.21120(8) 0.10695(9)
C41_3 C 0.53880(8) 0.14305(9) 0.08472(9)
H22_4 H 0.6771 0.0417 0.1104
H23_4 H 0.7083 0.1104 0.0729
H24_3 H 0.6104 0.1771 0.0417
H25_3 H 0.5729 0.2083 0.1104
H26_3 H 0.5417 0.1396 0.0729
C42_4 C 0.65696(8) 0.04824(8) 0.09395(7)
C43_4 C 0.70176(8) 0.09395(7) 0.09304(8)
C44_3 C 0.59395(7) 0.15696(8) 0.04824(8)
C45_3 C 0.59304(8) 0.20176(8) 0.09395(7)
C46_3 C 0.54824(8) 0.15605(7) 0.09304(8)
C47_4 C 0.63936(10) 0.04402(10) 0.08988(10)
C48_4 C 0.70598(10) 0.08988(10) 0.11064(10)
C49_3 C 0.58988(10) 0.13936(10) 0.04402(10)
C50_3 C 0.61064(10) 0.20598(10) 0.08988(10)
C51_3 C 0.54402(10) 0.16012(10) 0.11064(10)
H27_4 H 0.6331 0.0505 0.0810
H28_4 H 0.6995 0.0810 0.1169
H29_3 H 0.5810 0.1331 0.0505
H30_3 H 0.6169 0.1995 0.0810
H31_3 H 0.5505 0.1690 0.1169
C52_4 C 0.63120(11) 0.03022(10) 0.09903(10)
C53_4 C 0.71978(10) 0.09903(10) 0.11880(11)
C54_3 C 0.59903(10) 0.13120(11) 0.03022(10)
C55_3 C 0.61880(11) 0.21978(10) 0.09903(10)
C56_3 C 0.53022(10) 0.15097(10) 0.11880(11)
H32_4 H 0.6191 0.0275 0.0964
H33_4 H 0.7225 0.0964 0.1309
H34_3 H 0.5964 0.1191 0.0275
H35_3 H 0.6309 0.2225 0.0964
H36_3 H 0.5275 0.1536 0.1309
Co4_3 Co 0.7504 0.1250 0.125000(10)
Co5_3 Co 0.625000(10) 0.2504 0.1250
Co6_3 Co 0.4996 0.1250 0.125000(10)
C57_5 C 0.65956(9) 0.14985(8) 0.00067(7)
S3_5 S 0.68001(3) 0.15745(4) 0.00320(4)
Co1_3 Co 0.6250 0.125000(10) 0.9996
N3_5 N 0.60444(5) 0.10615(5) 0.99927(4)
N4_5 N 0.63852(5) 0.10979(5) 0.97903(5)
C8_5 C 0.63502(6) 0.09251(6) 0.97653(6)
H5_5 H 0.6269 0.0868 0.9844
C9_5 C 0.64262(6) 0.08250(6) 0.96312(6)
H6_5 H 0.6396 0.0703 0.9617
C10_5 C 0.65461(6) 0.09056(6) 0.95184(6)
C11_5 C 0.65892(7) 0.10858(7) 0.95457(7)
H7_5 H 0.6676 0.1144 0.9474
C12_5 C 0.65030(7) 0.11750(6) 0.96782(7)
H8_5 H 0.6527 0.1299 0.9693
C13_5 C 0.68473(6) 0.07859(6) 0.91646(6)
N5_5 N 0.67854(5) 0.08684(6) 0.93090(5)
C14_5 C 0.66264(6) 0.08110(6) 0.93660(6)
N6_5 N 0.65312(5) 0.06784(5) 0.92917(5)
C15_5 C 0.66096(7) 0.06035(6) 0.91495(6)
N7_5 N 0.67661(5) 0.06502(6) 0.90811(6)
N8_5 N 0.73042(5) 0.10247(5) 0.89321(5)
C16_5 C 0.72574(7) 0.10593(8) 0.91015(7)
H9_5 H 0.7325 0.1144 0.9167
C17_5 C 0.71149(7) 0.09772(7) 0.91839(7)
H10_5 H 0.7085 0.1005 0.9304
C18_5 C 0.70156(6) 0.08541(7) 0.90889(6)
C19_5 C 0.70699(7) 0.08102(6) 0.89182(7)
H11_5 H 0.7009 0.0721 0.8852
C20_5 C 0.72140(6) 0.08976(6) 0.88459(6)
H12_5 H 0.7251 0.0866 0.8729
N9_5 N 0.63307(5) 0.01951(5) 0.88671(5)
C21_5 C 0.65068(7) 0.02202(7) 0.88491(7)
H13_5 H 0.6570 0.0143 0.8771
C22_5 C 0.66007(7) 0.03498(7) 0.89362(7)
H14_5 H 0.6725 0.0364 0.8916
C23_5 C 0.65112(6) 0.04605(6) 0.90543(6)
C24_5 C 0.63291(7) 0.04304(7) 0.90828(7)
H15_5 H 0.6265 0.0499 0.9168
C25_5 C 0.62451(6) 0.02995(6) 0.89851(7)
H16_5 H 0.6121 0.0282 0.9002
Co2_6 Co 0.750000(9) 0.1196 0.880359(9)
N10_6 N 0.74652(5) 0.13938(5) 0.89942(5)
C26_6 C 0.73583(8) 0.14802(7) 0.90693(7)
S2_6 S 0.72074(3) 0.15991(3) 0.91688(3)
N21_5 N 0.64556(5) 0.14385(5) 0.99927(4)
N22_5 N 0.61148(5) 0.14021(5) 0.97903(5)
C58_5 C 0.61498(6) 0.15749(6) 0.97653(6)
H37_5 H 0.6231 0.1632 0.9844
C59_5 C 0.60738(6) 0.16750(6) 0.96312(6)
H38_5 H 0.6104 0.1797 0.9617
C60_5 C 0.59539(6) 0.15944(6) 0.95184(6)
C61_5 C 0.59108(7) 0.14142(7) 0.95457(7)
H39_5 H 0.5824 0.1356 0.9474
C62_5 C 0.59970(7) 0.13250(6) 0.96782(7)
H40_5 H 0.5973 0.1201 0.9693
C63_5 C 0.56527(6) 0.17141(6) 0.91646(6)
N23_5 N 0.57146(5) 0.16316(6) 0.93090(5)
C64_5 C 0.58736(6) 0.16890(6) 0.93660(6)
N24_5 N 0.59688(5) 0.18216(5) 0.92917(5)
C65_5 C 0.58904(7) 0.18965(6) 0.91495(6)
N25_5 N 0.57339(5) 0.18498(6) 0.90811(6)
N26_5 N 0.51958(5) 0.14753(5) 0.89321(5)
N27_6 N 0.76958(5) 0.10679(5) 0.89753(5)
N28_6 N 0.60247(5) 0.01958(5) 0.85679(5)
C66_5 C 0.52426(7) 0.14407(8) 0.91015(7)
H41_5 H 0.5175 0.1356 0.9167
C67_5 C 0.53851(7) 0.15228(7) 0.91839(7)
H42_5 H 0.5415 0.1495 0.9304
C68_5 C 0.54844(6) 0.16459(7) 0.90889(6)
C69_5 C 0.54301(7) 0.16898(6) 0.89182(7)
H43_5 H 0.5491 0.1779 0.8852
C70_5 C 0.52860(6) 0.16024(6) 0.88459(6)
H44_5 H 0.5249 0.1634 0.8729
N31_6 N 0.73049(5) 0.13307(5) 0.86329(5)
N32_6 N 0.76951(5) 0.13671(5) 0.86693(5)
C71_5 C 0.59932(7) 0.22798(7) 0.88491(7)
H45_5 H 0.5930 0.2357 0.8771
C72_5 C 0.58993(7) 0.21502(7) 0.89362(7)
H46_5 H 0.5775 0.2136 0.8916
C73_5 C 0.59888(6) 0.20395(6) 0.90543(6)
C74_5 C 0.61709(7) 0.20696(7) 0.90828(7)
H47_5 H 0.6235 0.2001 0.9168
C75_5 C 0.62549(6) 0.22005(6) 0.89851(7)
H48_5 H 0.6379 0.2218 0.9002
Co7_5 Co 0.500000(9) 0.1304 0.880359(9)
Co8_6 Co 0.6196 -0.000000(9) 0.869641(9)
N34_6 N 0.75348(5) 0.10058(5) 0.86062(5)
N35_6 N 0.63938(5) 0.00348(5) 0.85058(5)
C76_6 C 0.76417(8) 0.09307(7) 0.85198(7)
C77_6 C 0.64802(7) 0.01417(8) 0.84307(7)
S4_6 S 0.77926(3) 0.08312(3) 0.84009(3)
S5_6 S 0.65991(3) 0.02926(3) 0.83312(3)
Co3_4 Co 0.625000(10) 0.9996 0.1250
N29_6 N 0.60679(5) 0.98042(5) 0.85247(5)
N33_6 N 0.63671(5) 0.98049(5) 0.88307(5)
Co8_7 Co 0.6196 1.000000(9) 0.869641(9)
N36_6 N 0.60058(5) 0.99652(5) 0.88938(5)
C78_6 C 0.59307(7) 0.98583(8) 0.89802(7)
S6_6 S 0.58312(3) 0.97074(3) 0.90991(3)
N1_5 N 0.32010(7) 0.34256(6) 0.82051(6)
C1_5 C 0.33466(8) 0.33483(8) 0.81356(8)
N2_5 N 0.36044(5) 0.36141(6) 0.77064(6)
C2_5 C 0.34372(8) 0.36502(8) 0.77494(8)
H1_5 H 0.3375 0.3737 0.7681
C3_5 C 0.33472(9) 0.35695(9) 0.78880(8)
H2_5 H 0.3229 0.3604 0.7917
C4_5 C 0.34304(8) 0.34395(7) 0.79824(8)
C5_5 C 0.36064(10) 0.33988(10) 0.79402(10)
H3_5 H 0.3669 0.3310 0.8005
C6_5 C 0.36880(11) 0.34903(10) 0.78022(10)
H4_5 H 0.3809 0.3464 0.7775
N3_6 N 0.35615(5) 0.39556(5) 0.74927(4)
C7_6 C 0.35015(8) 0.40956(9) 0.75067(7)
S1_6 S 0.34255(4) 0.43001(3) 0.75320(4)
N4_6 N 0.35979(5) 0.36148(5) 0.72903(5)
C8_6 C 0.34251(6) 0.36498(6) 0.72653(6)
H5_6 H 0.3368 0.3731 0.7344
C9_6 C 0.33250(6) 0.35738(6) 0.71312(6)
H6_6 H 0.3203 0.3604 0.7117
C10_6 C 0.34056(6) 0.34539(6) 0.70184(6)
C11_6 C 0.35858(7) 0.34108(7) 0.70457(7)
H7_6 H 0.3644 0.3324 0.6974
C12_6 C 0.36750(6) 0.34970(7) 0.71782(7)
H8_6 H 0.3799 0.3473 0.7193
C13_6 C 0.32859(6) 0.31527(6) 0.66646(6)
N5_6 N 0.33684(6) 0.32146(5) 0.68090(5)
C14_6 C 0.33110(6) 0.33736(6) 0.68660(6)
N6_6 N 0.31784(5) 0.34688(5) 0.67917(5)
C15_6 C 0.31035(6) 0.33904(7) 0.66495(6)
N7_6 N 0.31502(6) 0.32339(5) 0.65811(6)
N8_6 N 0.35247(5) 0.26958(5) 0.64321(5)
C16_6 C 0.35593(8) 0.27426(7) 0.66015(7)
H9_6 H 0.3644 0.2675 0.6667
C17_6 C 0.34772(7) 0.28851(7) 0.66839(7)
H10_6 H 0.3505 0.2915 0.6804
C18_6 C 0.33541(7) 0.29844(6) 0.65889(6)
C19_6 C 0.33102(6) 0.29301(7) 0.64182(7)
H11_6 H 0.3221 0.2991 0.6352
C20_6 C 0.33976(6) 0.27860(6) 0.63459(6)
H12_6 H 0.3366 0.2749 0.6229
N9_6 N 0.26951(5) 0.36693(5) 0.63671(5)
C21_6 C 0.27202(7) 0.34932(7) 0.63491(7)
H13_6 H 0.2643 0.3430 0.6271
C22_6 C 0.28498(7) 0.33993(7) 0.64362(7)
H14_6 H 0.2864 0.3275 0.6416
C23_6 C 0.29605(6) 0.34888(6) 0.65543(6)
C24_6 C 0.29304(7) 0.36709(7) 0.65828(7)
H15_6 H 0.2999 0.3735 0.6668
C25_6 C 0.27995(6) 0.37549(6) 0.64851(7)
H16_6 H 0.2782 0.3879 0.6502
Co2_7 Co 0.3696 0.250000(9) 0.630359(9)
N10_7 N 0.38938(5) 0.25348(5) 0.64942(5)
C26_7 C 0.39802(7) 0.26417(8) 0.65693(7)
S2_7 S 0.40991(3) 0.27926(3) 0.66688(3)
N11_5 N 0.34256(6) 0.32051(6) 0.82010(7)
N12_5 N 0.32051(6) 0.32010(7) 0.84256(6)
C27_5 C 0.33483(8) 0.31356(8) 0.83466(8)
C28_5 C 0.31356(8) 0.33466(8) 0.83483(8)
N16_5 N 0.27064(6) 0.36044(5) 0.86141(6)
N17_5 N 0.36141(6) 0.27064(6) 0.86044(5)
C32_5 C 0.27494(8) 0.34372(8) 0.86502(8)
C33_5 C 0.36502(8) 0.27494(8) 0.84372(8)
H17_5 H 0.2681 0.3375 0.8737
H18_5 H 0.3737 0.2681 0.8375
C37_5 C 0.28880(8) 0.33472(9) 0.85695(9)
C38_5 C 0.35695(9) 0.28880(8) 0.83472(9)
H22_5 H 0.2917 0.3229 0.8604
H23_5 H 0.3604 0.2917 0.8229
C42_5 C 0.29824(8) 0.34304(8) 0.84395(7)
C43_5 C 0.34395(7) 0.29824(8) 0.84304(8)
C47_5 C 0.29402(10) 0.36064(10) 0.83988(10)
C48_5 C 0.33988(10) 0.29402(10) 0.86064(10)
H27_5 H 0.3005 0.3669 0.8310
H28_5 H 0.3310 0.3005 0.8669
C52_5 C 0.28022(10) 0.36880(11) 0.84903(10)
C53_5 C 0.34903(10) 0.28022(10) 0.86880(11)
H32_5 H 0.2775 0.3809 0.8464
H33_5 H 0.3464 0.2775 0.8809
N21_6 N 0.39385(5) 0.35444(5) 0.74927(4)
C57_6 C 0.39985(8) 0.34044(9) 0.75067(7)
S3_6 S 0.40745(4) 0.31999(3) 0.75320(4)
N22_6 N 0.39021(5) 0.38852(5) 0.72903(5)
C58_6 C 0.40749(6) 0.38502(6) 0.72653(6)
H37_6 H 0.4132 0.3769 0.7344
C59_6 C 0.41750(6) 0.39262(6) 0.71312(6)
H38_6 H 0.4297 0.3896 0.7117
C60_6 C 0.40944(6) 0.40461(6) 0.70184(6)
C61_6 C 0.39142(7) 0.40892(7) 0.70457(7)
H39_6 H 0.3856 0.4176 0.6974
C62_6 C 0.38250(6) 0.40030(7) 0.71782(7)
H40_6 H 0.3701 0.4027 0.7193
C63_6 C 0.42141(6) 0.43473(6) 0.66646(6)
N23_6 N 0.41316(6) 0.42854(5) 0.68090(5)
C64_6 C 0.41890(6) 0.41264(6) 0.68660(6)
N24_6 N 0.43216(5) 0.40312(5) 0.67917(5)
C65_6 C 0.43965(6) 0.41096(7) 0.66495(6)
N25_6 N 0.43498(6) 0.42661(5) 0.65811(6)
N26_6 N 0.39753(5) 0.48042(5) 0.64321(5)
N27_7 N 0.35679(5) 0.23042(5) 0.64753(5)
N28_7 N 0.26958(5) 0.39753(5) 0.60679(5)
N29_7 N 0.23042(5) 0.39321(5) 0.60247(5)
C66_6 C 0.39407(8) 0.47574(7) 0.66015(7)
H41_6 H 0.3856 0.4825 0.6667
C67_6 C 0.40228(7) 0.46149(7) 0.66839(7)
H42_6 H 0.3995 0.4585 0.6804
C68_6 C 0.41459(7) 0.45156(6) 0.65889(6)
C69_6 C 0.41898(6) 0.45699(7) 0.64182(7)
H43_6 H 0.4279 0.4509 0.6352
C70_6 C 0.41024(6) 0.47140(6) 0.63459(6)
H44_6 H 0.4134 0.4751 0.6229
N30_5 N 0.48049(5) 0.38307(5) 0.63671(5)
N31_7 N 0.38307(5) 0.26951(5) 0.61329(5)
N32_7 N 0.38671(5) 0.23049(5) 0.61693(5)
C71_6 C 0.47798(7) 0.40068(7) 0.63491(7)
H45_6 H 0.4857 0.4070 0.6271
C72_6 C 0.46502(7) 0.41007(7) 0.64362(7)
H46_6 H 0.4636 0.4225 0.6416
C73_6 C 0.45395(6) 0.40112(6) 0.65543(6)
C74_6 C 0.45696(7) 0.38291(7) 0.65828(7)
H47_6 H 0.4501 0.3765 0.6668
C75_6 C 0.47005(6) 0.37451(6) 0.64851(7)
H48_6 H 0.4718 0.3621 0.6502
Co7_6 Co 0.3804 0.500000(9) 0.630359(9)
Co9_6 Co 0.500000(9) 0.3696 0.619641(9)
N34_7 N 0.35058(5) 0.24652(5) 0.61062(5)
N35_7 N 0.25348(5) 0.36062(5) 0.60058(5)
N36_7 N 0.24652(5) 0.39942(5) 0.63938(5)
C76_7 C 0.34307(7) 0.23583(8) 0.60198(7)
C77_7 C 0.26417(8) 0.35198(7) 0.59307(7)
C78_7 C 0.23583(8) 0.40693(7) 0.64802(7)
S4_7 S 0.33312(3) 0.22074(3) 0.59009(3)
S5_7 S 0.27926(3) 0.34009(3) 0.58312(3)
S6_7 S 0.22074(3) 0.41688(3) 0.65991(3)
N1_6 N 0.17949(6) 0.65744(6) 0.17990(7)
C1_6 C 0.18644(8) 0.66517(8) 0.16534(8)
N2_6 N 0.22936(6) 0.63859(6) 0.13956(5)
C2_6 C 0.22506(8) 0.63498(8) 0.15628(8)
H1_6 H 0.2319 0.6263 0.1625
C3_6 C 0.21120(8) 0.64305(9) 0.16528(9)
H2_6 H 0.2083 0.6396 0.1771
C4_6 C 0.20176(8) 0.65605(7) 0.15696(8)
C5_6 C 0.20598(10) 0.66012(10) 0.13936(10)
H3_6 H 0.1995 0.6690 0.1331
C6_6 C 0.21978(10) 0.65097(10) 0.13120(11)
H4_6 H 0.2225 0.6536 0.1191
Co1_4 Co 0.2504 0.6250 0.125000(10)
N3_7 N 0.25073(4) 0.60444(5) 0.14385(5)
C7_7 C 0.24933(7) 0.59044(9) 0.14985(8)
S1_7 S 0.24680(4) 0.56999(3) 0.15745(4)
N4_7 N 0.27097(5) 0.63852(5) 0.14021(5)
C8_7 C 0.27347(6) 0.63502(6) 0.15749(6)
H5_7 H 0.2656 0.6269 0.1632
C9_7 C 0.28688(6) 0.64262(6) 0.16750(6)
H6_7 H 0.2883 0.6396 0.1797
C10_7 C 0.29816(6) 0.65461(6) 0.15944(6)
C11_7 C 0.29543(7) 0.65892(7) 0.14142(7)
H7_7 H 0.3026 0.6676 0.1356
C12_7 C 0.28218(7) 0.65030(7) 0.13250(6)
H8_7 H 0.2807 0.6527 0.1201
C13_7 C 0.33354(6) 0.68473(6) 0.17141(6)
N5_7 N 0.31910(5) 0.67854(5) 0.16316(6)
C14_7 C 0.31340(6) 0.66264(6) 0.16890(6)
N6_7 N 0.32083(5) 0.65312(5) 0.18216(5)
C15_7 C 0.33505(6) 0.66096(7) 0.18965(6)
N7_7 N 0.34189(6) 0.67661(5) 0.18498(6)
N8_7 N 0.35679(5) 0.73042(5) 0.14753(5)
C16_7 C 0.33985(7) 0.72574(7) 0.14407(8)
H9_7 H 0.3333 0.7325 0.1356
C17_7 C 0.33161(7) 0.71149(7) 0.15228(7)
H10_7 H 0.3196 0.7085 0.1495
C18_7 C 0.34111(6) 0.70156(6) 0.16459(7)
C19_7 C 0.35818(7) 0.70699(7) 0.16898(6)
H11_7 H 0.3648 0.7009 0.1779
C20_7 C 0.36541(6) 0.72140(6) 0.16024(6)
H12_7 H 0.3771 0.7251 0.1634
N9_7 N 0.36329(5) 0.63307(5) 0.23049(5)
C21_7 C 0.36509(7) 0.65068(7) 0.22798(7)
H13_7 H 0.3729 0.6570 0.2357
C22_7 C 0.35638(7) 0.66007(7) 0.21502(7)
H14_7 H 0.3584 0.6725 0.2136
C23_7 C 0.34457(6) 0.65112(6) 0.20395(6)
C24_7 C 0.34172(7) 0.63291(7) 0.20696(7)
H15_7 H 0.3332 0.6265 0.2001
C25_7 C 0.35149(7) 0.62451(6) 0.22005(6)
H16_7 H 0.3498 0.6121 0.2218
Co2_8 Co 0.369641(9) 0.750000(9) 0.1304
N10_8 N 0.35058(5) 0.74652(5) 0.11062(5)
C26_8 C 0.34307(7) 0.73583(8) 0.10198(7)
S2_8 S 0.33312(3) 0.72074(3) 0.09009(3)
N11_6 N 0.17990(7) 0.67949(6) 0.15744(6)
N12_6 N 0.15744(6) 0.67990(7) 0.17949(6)
N13_4 N 0.17949(6) 0.59256(6) 0.07010(7)
N14_4 N 0.17990(7) 0.57051(6) 0.09256(6)
N15_4 N 0.15744(6) 0.57010(7) 0.07051(6)
C27_6 C 0.16534(8) 0.68644(8) 0.16517(8)
C28_6 C 0.16517(8) 0.66534(8) 0.18644(8)
C29_4 C 0.18644(8) 0.58483(8) 0.08466(8)
C30_4 C 0.16534(8) 0.56356(8) 0.08483(8)
C31_4 C 0.16517(8) 0.58466(8) 0.06356(8)
N16_6 N 0.13859(6) 0.63956(5) 0.22936(6)
N17_6 N 0.13956(5) 0.72936(6) 0.13859(6)
N18_4 N 0.22936(6) 0.61141(6) 0.11044(5)
N19_4 N 0.13859(6) 0.61044(5) 0.02064(6)
N20_4 N 0.13956(5) 0.52064(6) 0.11141(6)
C32_6 C 0.13498(8) 0.65628(8) 0.22506(8)
C33_6 C 0.15628(8) 0.72506(8) 0.13498(8)
C34_4 C 0.22506(8) 0.61502(8) 0.09372(8)
C35_4 C 0.13498(8) 0.59372(8) 0.02494(8)
C36_4 C 0.15628(8) 0.52494(8) 0.11502(8)
H17_6 H 0.1263 0.6625 0.2319
H18_6 H 0.1625 0.7319 0.1263
H19_4 H 0.2319 0.6237 0.0875
H20_4 H 0.1263 0.5875 0.0181
H21_4 H 0.1625 0.5181 0.1237
C37_6 C 0.14305(9) 0.66528(9) 0.21120(8)
C38_6 C 0.16528(9) 0.71120(8) 0.14305(9)
C39_4 C 0.21120(8) 0.60695(9) 0.08472(9)
C40_4 C 0.14305(9) 0.58472(9) 0.03880(8)
C41_4 C 0.16528(9) 0.53880(8) 0.10695(9)
H22_6 H 0.1396 0.6771 0.2083
H23_6 H 0.1771 0.7083 0.1396
H24_4 H 0.2083 0.6104 0.0729
H25_4 H 0.1396 0.5729 0.0417
H26_4 H 0.1771 0.5417 0.1104
C42_6 C 0.15605(7) 0.65696(8) 0.20176(8)
C43_6 C 0.15696(8) 0.70176(8) 0.15605(7)
C44_4 C 0.20176(8) 0.59395(7) 0.09304(8)
C45_4 C 0.15605(7) 0.59304(8) 0.04824(8)
C46_4 C 0.15696(8) 0.54824(8) 0.09395(7)
C47_6 C 0.16012(10) 0.63936(10) 0.20598(10)
C48_6 C 0.13936(10) 0.70598(10) 0.16012(10)
C49_4 C 0.20598(10) 0.58988(10) 0.11064(10)
C50_4 C 0.16012(10) 0.61064(10) 0.04402(10)
C51_4 C 0.13936(10) 0.54402(10) 0.08988(10)
H27_6 H 0.1690 0.6331 0.1995
H28_6 H 0.1331 0.6995 0.1690
H29_4 H 0.1995 0.5810 0.1169
H30_4 H 0.1690 0.6169 0.0505
H31_4 H 0.1331 0.5505 0.0810
C52_6 C 0.15097(10) 0.63120(11) 0.21978(10)
C53_6 C 0.13120(11) 0.71978(10) 0.15097(10)
C54_4 C 0.21978(10) 0.59903(10) 0.11880(11)
C55_4 C 0.15097(10) 0.61880(11) 0.03022(10)
C56_4 C 0.13120(11) 0.53022(10) 0.09903(10)
H32_6 H 0.1536 0.6191 0.2225
H33_6 H 0.1191 0.7225 0.1536
H34_4 H 0.2225 0.5964 0.1309
H35_4 H 0.1536 0.6309 0.0275
H36_4 H 0.1191 0.5275 0.0964
Co3_5 Co 0.1250 0.625000(10) 0.2504
Co4_4 Co 0.125000(10) 0.7504 0.1250
Co6_4 Co 0.125000(10) 0.4996 0.1250
N21_7 N 0.25073(4) 0.64556(5) 0.10615(5)
C57_7 C 0.24933(7) 0.65956(9) 0.10015(8)
S3_7 S 0.24680(4) 0.68001(3) 0.09255(4)
N22_7 N 0.27097(5) 0.61148(5) 0.10979(5)
C58_7 C 0.27347(6) 0.61498(6) 0.09251(6)
H37_7 H 0.2656 0.6231 0.0868
C59_7 C 0.28688(6) 0.60738(6) 0.08250(6)
H38_7 H 0.2883 0.6104 0.0703
C60_7 C 0.29816(6) 0.59539(6) 0.09056(6)
C61_7 C 0.29543(7) 0.59108(7) 0.10858(7)
H39_7 H 0.3026 0.5824 0.1144
C62_7 C 0.28218(7) 0.59970(7) 0.11750(6)
H40_7 H 0.2807 0.5973 0.1299
C63_7 C 0.33354(6) 0.56527(6) 0.07859(6)
N23_7 N 0.31910(5) 0.57146(5) 0.08684(6)
C64_7 C 0.31340(6) 0.58736(6) 0.08110(6)
N24_7 N 0.32083(5) 0.59688(5) 0.06784(5)
C65_7 C 0.33505(6) 0.58904(7) 0.06035(6)
N25_7 N 0.34189(6) 0.57339(5) 0.06502(6)
N27_8 N 0.35247(5) 0.76958(5) 0.14321(5)
N28_8 N 0.39321(5) 0.60247(5) 0.23042(5)
N29_8 N 0.39753(5) 0.60679(5) 0.26958(5)
C66_7 C 0.33985(7) 0.52426(7) 0.10593(8)
H41_7 H 0.3333 0.5175 0.1144
C67_7 C 0.33161(7) 0.53851(7) 0.09772(7)
H42_7 H 0.3196 0.5415 0.1005
C68_7 C 0.34111(6) 0.54844(6) 0.08541(7)
C69_7 C 0.35818(7) 0.54301(7) 0.08102(6)
H43_7 H 0.3648 0.5491 0.0721
C70_7 C 0.36541(6) 0.52860(6) 0.08976(6)
H44_7 H 0.3771 0.5249 0.0866
N31_8 N 0.38671(5) 0.73049(5) 0.11693(5)
N32_8 N 0.38307(5) 0.76951(5) 0.11329(5)
N33_7 N 0.36693(5) 0.63671(5) 0.26951(5)
C71_7 C 0.36509(7) 0.59932(7) 0.02202(7)
H45_7 H 0.3729 0.5930 0.0143
C72_7 C 0.35638(7) 0.58993(7) 0.03498(7)
H46_7 H 0.3584 0.5775 0.0364
C73_7 C 0.34457(6) 0.59888(6) 0.04605(6)
C74_7 C 0.34172(7) 0.61709(7) 0.04304(7)
H47_7 H 0.3332 0.6235 0.0499
C75_7 C 0.35149(7) 0.62549(6) 0.02995(6)
H48_7 H 0.3498 0.6379 0.0282
Co8_8 Co 0.380359(9) 0.6196 0.250000(9)
N34_8 N 0.38938(5) 0.75348(5) 0.14942(5)
N35_8 N 0.39942(5) 0.63938(5) 0.24652(5)
N36_8 N 0.36062(5) 0.60058(5) 0.25348(5)
C76_8 C 0.39802(7) 0.76417(8) 0.15693(7)
C77_8 C 0.40693(7) 0.64802(7) 0.23583(8)
C78_8 C 0.35198(7) 0.59307(7) 0.26417(8)
S4_8 S 0.40991(3) 0.77926(3) 0.16688(3)
S5_8 S 0.41688(3) 0.65991(3) 0.22074(3)
S6_8 S 0.34009(3) 0.58312(3) 0.27926(3)
Co5_4 Co 0.1250 0.625000(10) 0.9996
Co3_6 Co 0.3750 0.0004 0.375000(10)
N29_9 N 0.64753(5) 0.01958(5) 0.39321(5)
N33_8 N 0.61693(5) 0.01951(5) 0.36329(5)
Co8_9 Co 0.630359(9) 0.000000(9) 0.3804
N36_9 N 0.61062(5) 0.00348(5) 0.39942(5)
C78_9 C 0.60198(7) 0.01417(8) 0.40693(7)
S6_9 S 0.59009(3) 0.02926(3) 0.41688(3)
N1_7 N 0.42949(6) 0.92990(7) 0.34256(6)
C1_7 C 0.43644(8) 0.91534(8) 0.33483(8)
N2_7 N 0.47936(6) 0.88956(5) 0.36141(6)
C2_7 C 0.47506(8) 0.90628(8) 0.36502(8)
H1_7 H 0.4819 0.9125 0.3737
C3_7 C 0.46120(8) 0.91528(9) 0.35695(9)
H2_7 H 0.4583 0.9271 0.3604
C4_7 C 0.45176(8) 0.90696(8) 0.34395(7)
C5_7 C 0.45598(10) 0.88936(10) 0.33988(10)
H3_7 H 0.4495 0.8831 0.3310
C6_7 C 0.46978(10) 0.88120(11) 0.34903(10)
H4_7 H 0.4725 0.8691 0.3464
Co1_5 Co 0.5004 0.875000(10) 0.3750
N3_8 N 0.50073(4) 0.89385(5) 0.39556(5)
C7_8 C 0.49933(7) 0.89985(8) 0.40956(9)
S1_8 S 0.49680(4) 0.90745(4) 0.43001(3)
N4_8 N 0.52097(5) 0.89021(5) 0.36148(5)
C8_8 C 0.52347(6) 0.90749(6) 0.36498(6)
H5_8 H 0.5156 0.9132 0.3731
C9_8 C 0.53688(6) 0.91750(6) 0.35738(6)
H6_8 H 0.5383 0.9297 0.3604
C10_8 C 0.54816(6) 0.90944(6) 0.34539(6)
C11_8 C 0.54543(7) 0.89142(7) 0.34108(7)
H7_8 H 0.5526 0.8856 0.3324
C12_8 C 0.53218(7) 0.88250(6) 0.34970(7)
H8_8 H 0.5307 0.8701 0.3473
C13_8 C 0.58354(6) 0.92141(6) 0.31527(6)
N5_8 N 0.56910(5) 0.91316(6) 0.32146(5)
C14_8 C 0.56340(6) 0.91890(6) 0.33736(6)
N6_8 N 0.57083(5) 0.93216(5) 0.34688(5)
C15_8 C 0.58505(6) 0.93965(6) 0.33904(7)
N7_8 N 0.59189(6) 0.93498(6) 0.32339(5)
N8_8 N 0.60679(5) 0.89753(5) 0.26958(5)
C16_8 C 0.58985(7) 0.89407(8) 0.27426(7)
H9_8 H 0.5833 0.8856 0.2675
C17_8 C 0.58161(7) 0.90228(7) 0.28851(7)
H10_8 H 0.5696 0.8995 0.2915
C18_8 C 0.59111(6) 0.91459(7) 0.29844(6)
C19_8 C 0.60818(7) 0.91898(6) 0.29301(7)
H11_8 H 0.6148 0.9279 0.2991
C20_8 C 0.61541(6) 0.91024(6) 0.27860(6)
H12_8 H 0.6271 0.9134 0.2749
N9_8 N 0.61329(5) 0.98049(5) 0.36693(5)
C21_8 C 0.61509(7) 0.97798(7) 0.34932(7)
H13_8 H 0.6229 0.9857 0.3430
C22_8 C 0.60638(7) 0.96502(7) 0.33993(7)
H14_8 H 0.6084 0.9636 0.3275
C23_8 C 0.59457(6) 0.95395(6) 0.34888(6)
C24_8 C 0.59172(7) 0.95696(7) 0.36709(7)
H15_8 H 0.5832 0.9501 0.3735
C25_8 C 0.60149(7) 0.97005(6) 0.37549(6)
H16_8 H 0.5998 0.9718 0.3879
Co2_9 Co 0.619641(9) 0.8804 0.250000(9)
N10_9 N 0.60058(5) 0.86062(5) 0.25348(5)
C26_9 C 0.59307(7) 0.85198(7) 0.26417(8)
S2_9 S 0.58312(3) 0.84009(3) 0.27926(3)
N11_7 N 0.42990(7) 0.90744(6) 0.32051(6)
N12_7 N 0.40744(6) 0.92949(6) 0.32010(7)
N13_5 N 0.42949(6) 0.82010(7) 0.40744(6)
N14_5 N 0.42990(7) 0.84256(6) 0.42949(6)
N15_5 N 0.40744(6) 0.82051(6) 0.42990(7)
C27_7 C 0.41534(8) 0.91517(8) 0.31356(8)
C28_7 C 0.41517(8) 0.93644(8) 0.33466(8)
C29_5 C 0.43644(8) 0.83466(8) 0.41517(8)
C30_5 C 0.41534(8) 0.83483(8) 0.43644(8)
C31_5 C 0.41517(8) 0.81356(8) 0.41534(8)
N16_7 N 0.38859(6) 0.97936(6) 0.36044(5)
N17_7 N 0.38956(5) 0.88859(6) 0.27064(6)
N18_5 N 0.47936(6) 0.86044(5) 0.38859(6)
N19_5 N 0.38859(6) 0.77064(6) 0.38956(5)
N20_5 N 0.38956(5) 0.86141(6) 0.47936(6)
C32_7 C 0.38498(8) 0.97506(8) 0.34372(8)
C33_7 C 0.40628(8) 0.88498(8) 0.27494(8)
C34_5 C 0.47506(8) 0.84372(8) 0.38498(8)
C35_5 C 0.38498(8) 0.77494(8) 0.40628(8)
C36_5 C 0.40628(8) 0.86502(8) 0.47506(8)
H17_7 H 0.3763 0.9819 0.3375
H18_7 H 0.4125 0.8763 0.2681
H19_5 H 0.4819 0.8375 0.3763
H20_5 H 0.3763 0.7681 0.4125
H21_5 H 0.4125 0.8737 0.4819
C37_7 C 0.39305(9) 0.96120(8) 0.33472(9)
C38_7 C 0.41528(9) 0.89305(9) 0.28880(8)
C39_5 C 0.46120(8) 0.83472(9) 0.39305(9)
C40_5 C 0.39305(9) 0.78880(8) 0.41528(9)
C41_5 C 0.41528(9) 0.85695(9) 0.46120(8)
H22_7 H 0.3896 0.9583 0.3229
H23_7 H 0.4271 0.8896 0.2917
H24_5 H 0.4583 0.8229 0.3896
H25_5 H 0.3896 0.7917 0.4271
H26_5 H 0.4271 0.8604 0.4583
C42_7 C 0.40605(7) 0.95176(8) 0.34304(8)
C43_7 C 0.40696(8) 0.90605(7) 0.29824(8)
C44_5 C 0.45176(8) 0.84304(8) 0.40605(7)
C45_5 C 0.40605(7) 0.79824(8) 0.40696(8)
C46_5 C 0.40696(8) 0.84395(7) 0.45176(8)
C47_7 C 0.41012(10) 0.95598(10) 0.36064(10)
C48_7 C 0.38936(10) 0.91012(10) 0.29402(10)
C49_5 C 0.45598(10) 0.86064(10) 0.41012(10)
C50_5 C 0.41012(10) 0.79402(10) 0.38936(10)
C51_5 C 0.38936(10) 0.83988(10) 0.45598(10)
H27_7 H 0.4190 0.9495 0.3669
H28_7 H 0.3831 0.9190 0.3005
H29_5 H 0.4495 0.8669 0.4190
H30_5 H 0.4190 0.8005 0.3831
H31_5 H 0.3831 0.8310 0.4495
C52_7 C 0.40097(10) 0.96978(10) 0.36880(11)
C53_7 C 0.38120(11) 0.90097(10) 0.28022(10)
C54_5 C 0.46978(10) 0.86880(11) 0.40097(10)
C55_5 C 0.40097(10) 0.78022(10) 0.38120(11)
C56_5 C 0.38120(11) 0.84903(10) 0.46978(10)
H32_7 H 0.4036 0.9725 0.3809
H33_7 H 0.3691 0.9036 0.2775
H34_5 H 0.4725 0.8809 0.4036
H35_5 H 0.4036 0.7775 0.3691
H36_5 H 0.3691 0.8464 0.4725
Co4_5 Co 0.375000(10) 0.8750 0.2496
Co5_5 Co 0.3750 0.7496 0.375000(10)
Co6_5 Co 0.375000(10) 0.8750 0.5004
N21_8 N 0.50073(4) 0.85615(5) 0.35444(5)
C57_8 C 0.49933(7) 0.85015(8) 0.34044(9)
S3_8 S 0.49680(4) 0.84255(4) 0.31999(3)
N22_8 N 0.52097(5) 0.85979(5) 0.38852(5)
C58_8 C 0.52347(6) 0.84251(6) 0.38502(6)
H37_8 H 0.5156 0.8368 0.3769
C59_8 C 0.53688(6) 0.83250(6) 0.39262(6)
H38_8 H 0.5383 0.8203 0.3896
C60_8 C 0.54816(6) 0.84056(6) 0.40461(6)
C61_8 C 0.54543(7) 0.85858(7) 0.40892(7)
H39_8 H 0.5526 0.8644 0.4176
C62_8 C 0.53218(7) 0.86750(6) 0.40030(7)
H40_8 H 0.5307 0.8799 0.4027
C63_8 C 0.58354(6) 0.82859(6) 0.43473(6)
N23_8 N 0.56910(5) 0.83684(6) 0.42854(5)
C64_8 C 0.56340(6) 0.83110(6) 0.41264(6)
N24_8 N 0.57083(5) 0.81784(5) 0.40312(5)
C65_8 C 0.58505(6) 0.81035(6) 0.41096(7)
N25_8 N 0.59189(6) 0.81502(6) 0.42661(5)
N26_7 N 0.60679(5) 0.85247(5) 0.48042(5)
N27_9 N 0.60247(5) 0.89321(5) 0.23042(5)
N28_9 N 0.64321(5) 0.98042(5) 0.39753(5)
C66_8 C 0.58985(7) 0.85593(8) 0.47574(7)
H41_8 H 0.5833 0.8644 0.4825
C67_8 C 0.58161(7) 0.84772(7) 0.46149(7)
H42_8 H 0.5696 0.8505 0.4585
C68_8 C 0.59111(6) 0.83541(7) 0.45156(6)
C69_8 C 0.60818(7) 0.83102(6) 0.45699(7)
H43_8 H 0.6148 0.8221 0.4509
C70_8 C 0.61541(6) 0.83976(6) 0.47140(6)
H44_8 H 0.6271 0.8366 0.4751
N30_6 N 0.61329(5) 0.76951(5) 0.38307(5)
N31_9 N 0.63671(5) 0.86693(5) 0.26951(5)
N32_9 N 0.63307(5) 0.86329(5) 0.23049(5)
C71_8 C 0.61509(7) 0.77202(7) 0.40068(7)
H45_8 H 0.6229 0.7643 0.4070
C72_8 C 0.60638(7) 0.78498(7) 0.41007(7)
H46_8 H 0.6084 0.7864 0.4225
C73_8 C 0.59457(6) 0.79605(6) 0.40112(6)
C74_8 C 0.59172(7) 0.79304(7) 0.38291(7)
H47_8 H 0.5832 0.7999 0.3765
C75_8 C 0.60149(7) 0.77995(6) 0.37451(6)
H48_8 H 0.5998 0.7782 0.3621
Co7_7 Co 0.619641(9) 0.8696 0.500000(9)
Co8_10 Co 0.630359(9) 1.000000(9) 0.3804
Co9_7 Co 0.630359(9) 0.750000(9) 0.3696
N34_9 N 0.63938(5) 0.89942(5) 0.24652(5)
N35_9 N 0.64942(5) 0.99652(5) 0.36062(5)
C76_9 C 0.64802(7) 0.90693(7) 0.23583(8)
C77_9 C 0.65693(7) 0.98583(8) 0.35198(7)
S4_9 S 0.65991(3) 0.91688(3) 0.22074(3)
S5_9 S 0.66688(3) 0.97074(3) 0.34009(3)
N1_8 N 0.07010(7) 0.07051(6) 0.65744(6)
C1_8 C 0.08466(8) 0.06356(8) 0.66517(8)
N2_8 N 0.11044(5) 0.02064(6) 0.63859(6)
C2_8 C 0.09372(8) 0.02494(8) 0.63498(8)
H1_8 H 0.0875 0.0181 0.6263
C3_8 C 0.08472(9) 0.03880(8) 0.64305(9)
H2_8 H 0.0729 0.0417 0.6396
C4_8 C 0.09304(8) 0.04824(8) 0.65605(7)
C5_8 C 0.11064(10) 0.04402(10) 0.66012(10)
H3_8 H 0.1169 0.0505 0.6690
C6_8 C 0.11880(11) 0.03022(10) 0.65097(10)
H4_8 H 0.1309 0.0275 0.6536
C7_9 C 0.10015(8) 0.00067(7) 0.59044(9)
S1_9 S 0.09255(4) 0.00320(4) 0.56999(3)
N11_8 N 0.09256(6) 0.07010(7) 0.67949(6)
N12_8 N 0.07051(6) 0.09256(6) 0.67990(7)
N13_6 N 0.17990(7) 0.07051(6) 0.59256(6)
N14_6 N 0.15744(6) 0.07010(7) 0.57051(6)
N15_6 N 0.17949(6) 0.09256(6) 0.57010(7)
C27_8 C 0.08483(8) 0.08466(8) 0.68644(8)
C28_8 C 0.06356(8) 0.08483(8) 0.66534(8)
C29_6 C 0.16534(8) 0.06356(8) 0.58483(8)
C30_6 C 0.16517(8) 0.08466(8) 0.56356(8)
C31_6 C 0.18644(8) 0.08483(8) 0.58466(8)
N16_8 N 0.02064(6) 0.11141(6) 0.63956(5)
N17_8 N 0.11141(6) 0.11044(5) 0.72936(6)
N18_6 N 0.13956(5) 0.02064(6) 0.61141(6)
N19_6 N 0.22936(6) 0.11141(6) 0.61044(5)
N20_6 N 0.13859(6) 0.11044(5) 0.52064(6)
C32_8 C 0.02494(8) 0.11502(8) 0.65628(8)
C33_8 C 0.11502(8) 0.09372(8) 0.72506(8)
C34_6 C 0.15628(8) 0.02494(8) 0.61502(8)
C35_6 C 0.22506(8) 0.11502(8) 0.59372(8)
C36_6 C 0.13498(8) 0.09372(8) 0.52494(8)
H17_8 H 0.0181 0.1237 0.6625
H18_8 H 0.1237 0.0875 0.7319
H19_6 H 0.1625 0.0181 0.6237
H20_6 H 0.2319 0.1237 0.5875
H21_6 H 0.1263 0.0875 0.5181
C37_8 C 0.03880(8) 0.10695(9) 0.66528(9)
C38_8 C 0.10695(9) 0.08472(9) 0.71120(8)
C39_6 C 0.16528(9) 0.03880(8) 0.60695(9)
C40_6 C 0.21120(8) 0.10695(9) 0.58472(9)
C41_6 C 0.14305(9) 0.08472(9) 0.53880(8)
H22_8 H 0.0417 0.1104 0.6771
H23_8 H 0.1104 0.0729 0.7083
H24_6 H 0.1771 0.0417 0.6104
H25_6 H 0.2083 0.1104 0.5729
H26_6 H 0.1396 0.0729 0.5417
C42_8 C 0.04824(8) 0.09395(7) 0.65696(8)
C43_8 C 0.09395(7) 0.09304(8) 0.70176(8)
C44_6 C 0.15696(8) 0.04824(8) 0.59395(7)
C45_6 C 0.20176(8) 0.09395(7) 0.59304(8)
C46_6 C 0.15605(7) 0.09304(8) 0.54824(8)
C47_8 C 0.04402(10) 0.08988(10) 0.63936(10)
C48_8 C 0.08988(10) 0.11064(10) 0.70598(10)
C49_6 C 0.13936(10) 0.04402(10) 0.58988(10)
C50_6 C 0.20598(10) 0.08988(10) 0.61064(10)
C51_6 C 0.16012(10) 0.11064(10) 0.54402(10)
H27_8 H 0.0505 0.0810 0.6331
H28_8 H 0.0810 0.1169 0.6995
H29_6 H 0.1331 0.0505 0.5810
H30_6 H 0.1995 0.0810 0.6169
H31_6 H 0.1690 0.1169 0.5505
C52_8 C 0.03022(10) 0.09903(10) 0.63120(11)
C53_8 C 0.09903(10) 0.11880(11) 0.71978(10)
C54_6 C 0.13120(11) 0.03022(10) 0.59903(10)
C55_6 C 0.21978(10) 0.09903(10) 0.61880(11)
C56_6 C 0.15097(10) 0.11880(11) 0.53022(10)
H32_8 H 0.0275 0.0964 0.6191
H33_8 H 0.0964 0.1309 0.7225
H34_6 H 0.1191 0.0275 0.5964
H35_6 H 0.2225 0.0964 0.6309
H36_6 H 0.1536 0.1309 0.5275
C57_9 C 0.14985(8) 0.00067(7) 0.65956(9)
S3_9 S 0.15745(4) 0.00320(4) 0.68001(3)
Co1_6 Co 0.125000(10) 0.9996 0.6250
N3_9 N 0.10615(5) 0.99927(4) 0.60444(5)
N4_9 N 0.10979(5) 0.97903(5) 0.63852(5)
C8_9 C 0.09251(6) 0.97653(6) 0.63502(6)
H5_9 H 0.0868 0.9844 0.6269
C9_9 C 0.08250(6) 0.96312(6) 0.64262(6)
H6_9 H 0.0703 0.9617 0.6396
C10_9 C 0.09056(6) 0.95184(6) 0.65461(6)
C11_9 C 0.10858(7) 0.95457(7) 0.65892(7)
H7_9 H 0.1144 0.9474 0.6676
C12_9 C 0.11750(6) 0.96782(7) 0.65030(7)
H8_9 H 0.1299 0.9693 0.6527
C13_9 C 0.07859(6) 0.91646(6) 0.68473(6)
N5_9 N 0.08684(6) 0.93090(5) 0.67854(5)
C14_9 C 0.08110(6) 0.93660(6) 0.66264(6)
N6_9 N 0.06784(5) 0.92917(5) 0.65312(5)
C15_9 C 0.06035(6) 0.91495(6) 0.66096(7)
N7_9 N 0.06502(6) 0.90811(6) 0.67661(5)
N8_9 N 0.10247(5) 0.89321(5) 0.73042(5)
C16_9 C 0.10593(8) 0.91015(7) 0.72574(7)
H9_9 H 0.1144 0.9167 0.7325
C17_9 C 0.09772(7) 0.91839(7) 0.71149(7)
H10_9 H 0.1005 0.9304 0.7085
C18_9 C 0.08541(7) 0.90889(6) 0.70156(6)
C19_9 C 0.08102(6) 0.89182(7) 0.70699(7)
H11_9 H 0.0721 0.8852 0.7009
C20_9 C 0.08976(6) 0.88459(6) 0.72140(6)
H12_9 H 0.0866 0.8729 0.7251
N9_9 N 0.01951(5) 0.88671(5) 0.63307(5)
C21_9 C 0.02202(7) 0.88491(7) 0.65068(7)
H13_9 H 0.0143 0.8771 0.6570
C22_9 C 0.03498(7) 0.89362(7) 0.66007(7)
H14_9 H 0.0364 0.8916 0.6725
C23_9 C 0.04605(6) 0.90543(6) 0.65112(6)
C24_9 C 0.04304(7) 0.90828(7) 0.63291(7)
H15_9 H 0.0499 0.9168 0.6265
C25_9 C 0.02995(6) 0.89851(7) 0.62451(6)
H16_9 H 0.0282 0.9002 0.6121
Co2_10 Co 0.1196 0.880359(9) 0.750000(9)
N10_10 N 0.13938(5) 0.89942(5) 0.74652(5)
C26_10 C 0.14802(7) 0.90693(7) 0.73583(8)
S2_10 S 0.15991(3) 0.91688(3) 0.72074(3)
N21_9 N 0.14385(5) 0.99927(4) 0.64556(5)
N22_9 N 0.14021(5) 0.97903(5) 0.61148(5)
C58_9 C 0.15749(6) 0.97653(6) 0.61498(6)
H37_9 H 0.1632 0.9844 0.6231
C59_9 C 0.16750(6) 0.96312(6) 0.60738(6)
H38_9 H 0.1797 0.9617 0.6104
C60_9 C 0.15944(6) 0.95184(6) 0.59539(6)
C61_9 C 0.14142(7) 0.95457(7) 0.59108(7)
H39_9 H 0.1356 0.9474 0.5824
C62_9 C 0.13250(6) 0.96782(7) 0.59970(7)
H40_9 H 0.1201 0.9693 0.5973
C63_9 C 0.17141(6) 0.91646(6) 0.56527(6)
N23_9 N 0.16316(6) 0.93090(5) 0.57146(5)
C64_9 C 0.16890(6) 0.93660(6) 0.58736(6)
N24_9 N 0.18216(5) 0.92917(5) 0.59688(5)
C65_9 C 0.18965(6) 0.91495(6) 0.58904(7)
N25_9 N 0.18498(6) 0.90811(6) 0.57339(5)
N26_8 N 0.14753(5) 0.89321(5) 0.51958(5)
N27_10 N 0.10679(5) 0.89753(5) 0.76958(5)
N28_10 N 0.01958(5) 0.85679(5) 0.60247(5)
C66_9 C 0.14407(8) 0.91015(7) 0.52426(7)
H41_9 H 0.1356 0.9167 0.5175
C67_9 C 0.15228(7) 0.91839(7) 0.53851(7)
H42_9 H 0.1495 0.9304 0.5415
C68_9 C 0.16459(7) 0.90889(6) 0.54844(6)
C69_9 C 0.16898(6) 0.89182(7) 0.54301(7)
H43_9 H 0.1779 0.8852 0.5491
C70_9 C 0.16024(6) 0.88459(6) 0.52860(6)
H44_9 H 0.1634 0.8729 0.5249
N30_7 N 0.23049(5) 0.88671(5) 0.61693(5)
N31_10 N 0.13307(5) 0.86329(5) 0.73049(5)
N32_10 N 0.13671(5) 0.86693(5) 0.76951(5)
C71_9 C 0.22798(7) 0.88491(7) 0.59932(7)
H45_9 H 0.2357 0.8771 0.5930
C72_9 C 0.21502(7) 0.89362(7) 0.58993(7)
H46_9 H 0.2136 0.8916 0.5775
C73_9 C 0.20395(6) 0.90543(6) 0.59888(6)
C74_9 C 0.20696(7) 0.90828(7) 0.61709(7)
H47_9 H 0.2001 0.9168 0.6235
C75_9 C 0.22005(6) 0.89851(7) 0.62549(6)
H48_9 H 0.2218 0.9002 0.6379
Co7_8 Co 0.1304 0.880359(9) 0.500000(9)
Co8_11 Co -0.000000(9) 0.869641(9) 0.6196
Co9_8 Co 0.250000(9) 0.869641(9) 0.6304
N34_10 N 0.10058(5) 0.86062(5) 0.75348(5)
N35_10 N 0.00348(5) 0.85058(5) 0.63938(5)
C76_10 C 0.09307(7) 0.85198(7) 0.76417(8)
C77_10 C 0.01417(8) 0.84307(7) 0.64802(7)
S4_10 S 0.08312(3) 0.84009(3) 0.77926(3)
S5_10 S 0.02926(3) 0.83312(3) 0.65991(3)
N29_10 N 0.98042(5) 0.85247(5) 0.60679(5)
N33_9 N 0.98049(5) 0.88307(5) 0.63671(5)
Co8_12 Co 1.000000(9) 0.869641(9) 0.6196
N36_10 N 0.99652(5) 0.88938(5) 0.60058(5)
C78_10 C 0.98583(8) 0.89802(7) 0.59307(7)
S6_10 S 0.97074(3) 0.90991(3) 0.58312(3)
N10_11 N 0.11062(5) 0.89942(5) 0.50348(5)
C26_11 C 0.10198(7) 0.90693(7) 0.51417(8)
S2_11 S 0.09009(3) 0.91688(3) 0.52926(3)
N27_11 N 0.14321(5) 0.89753(5) 0.48042(5)
N28_11 N 0.23042(5) 0.85679(5) 0.64753(5)
N29_11 N 0.26958(5) 0.85247(5) 0.64321(5)
N31_11 N 0.11693(5) 0.86329(5) 0.51951(5)
N32_11 N 0.11329(5) 0.86693(5) 0.48049(5)
N33_10 N 0.26951(5) 0.88307(5) 0.61329(5)
N34_11 N 0.14942(5) 0.86062(5) 0.49652(5)
N35_11 N 0.24652(5) 0.85058(5) 0.61062(5)
N36_11 N 0.25348(5) 0.88938(5) 0.64942(5)
C76_11 C 0.15693(7) 0.85198(7) 0.48583(8)
C77_11 C 0.23583(8) 0.84307(7) 0.60198(7)
C78_11 C 0.26417(8) 0.89802(7) 0.65693(7)
S4_11 S 0.16688(3) 0.84009(3) 0.47074(3)
S5_11 S 0.22074(3) 0.83312(3) 0.59009(3)
S6_11 S 0.27926(3) 0.90991(3) 0.66688(3)
N29_12 N 0.10247(5) 0.01958(5) 0.35679(5)
N33_11 N 0.13307(5) 0.01951(5) 0.38671(5)
Co8_13 Co 0.119641(9) 0.000000(9) 0.3696
N36_12 N 0.13938(5) 0.00348(5) 0.35058(5)
C78_12 C 0.14802(7) 0.01417(8) 0.34307(7)
S6_12 S 0.15991(3) 0.02926(3) 0.33312(3)
N1_9 N 0.32051(6) 0.92990(7) 0.40744(6)
C1_9 C 0.31356(8) 0.91534(8) 0.41517(8)
N2_9 N 0.27064(6) 0.88956(5) 0.38859(6)
C2_9 C 0.27494(8) 0.90628(8) 0.38498(8)
H1_9 H 0.2681 0.9125 0.3763
C3_9 C 0.28880(8) 0.91528(9) 0.39305(9)
H2_9 H 0.2917 0.9271 0.3896
C4_9 C 0.29824(8) 0.90696(8) 0.40605(7)
C5_9 C 0.29402(10) 0.88936(10) 0.41012(10)
H3_9 H 0.3005 0.8831 0.4190
C6_9 C 0.28022(10) 0.88120(11) 0.40097(10)
H4_9 H 0.2775 0.8691 0.4036
Co1_7 Co 0.2496 0.875000(10) 0.3750
N3_10 N 0.24927(4) 0.89385(5) 0.35444(5)
C7_10 C 0.25067(7) 0.89985(8) 0.34044(9)
S1_10 S 0.25320(4) 0.90745(4) 0.31999(3)
N4_10 N 0.22903(5) 0.89021(5) 0.38852(5)
C8_10 C 0.22653(6) 0.90749(6) 0.38502(6)
H5_10 H 0.2344 0.9132 0.3769
C9_10 C 0.21312(6) 0.91750(6) 0.39262(6)
H6_10 H 0.2117 0.9297 0.3896
C10_10 C 0.20184(6) 0.90944(6) 0.40461(6)
C11_10 C 0.20457(7) 0.89142(7) 0.40892(7)
H7_10 H 0.1974 0.8856 0.4176
C12_10 C 0.21782(7) 0.88250(6) 0.40030(7)
H8_10 H 0.2193 0.8701 0.4027
C13_10 C 0.16646(6) 0.92141(6) 0.43473(6)
N5_10 N 0.18090(5) 0.91316(6) 0.42854(5)
C14_10 C 0.18660(6) 0.91890(6) 0.41264(6)
N6_10 N 0.17917(5) 0.93216(5) 0.40312(5)
C15_10 C 0.16495(6) 0.93965(6) 0.41096(7)
N7_10 N 0.15811(6) 0.93498(6) 0.42661(5)
C16_10 C 0.16015(7) 0.89407(8) 0.47574(7)
H9_10 H 0.1667 0.8856 0.4825
C17_10 C 0.16839(7) 0.90228(7) 0.46149(7)
H10_10 H 0.1804 0.8995 0.4585
C18_10 C 0.15889(6) 0.91459(7) 0.45156(6)
C19_10 C 0.14182(7) 0.91898(6) 0.45699(7)
H11_10 H 0.1352 0.9279 0.4509
C20_10 C 0.13459(6) 0.91024(6) 0.47140(6)
H12_10 H 0.1229 0.9134 0.4751
N9_10 N 0.13671(5) 0.98049(5) 0.38307(5)
C21_10 C 0.13491(7) 0.97798(7) 0.40068(7)
H13_10 H 0.1271 0.9857 0.4070
C22_10 C 0.14362(7) 0.96502(7) 0.41007(7)
H14_10 H 0.1416 0.9636 0.4225
C23_10 C 0.15543(6) 0.95395(6) 0.40112(6)
C24_10 C 0.15828(7) 0.95696(7) 0.38291(7)
H15_10 H 0.1668 0.9501 0.3765
C25_10 C 0.14851(7) 0.97005(6) 0.37451(6)
H16_10 H 0.1502 0.9718 0.3621
N11_9 N 0.32010(7) 0.90744(6) 0.42949(6)
N12_9 N 0.34256(6) 0.92949(6) 0.42990(7)
N13_7 N 0.32051(6) 0.82010(7) 0.34256(6)
N14_7 N 0.32010(7) 0.84256(6) 0.32051(6)
N15_7 N 0.34256(6) 0.82051(6) 0.32010(7)
C27_9 C 0.33466(8) 0.91517(8) 0.43644(8)
C28_9 C 0.33483(8) 0.93644(8) 0.41534(8)
C29_7 C 0.31356(8) 0.83466(8) 0.33483(8)
C30_7 C 0.33466(8) 0.83483(8) 0.31356(8)
C31_7 C 0.33483(8) 0.81356(8) 0.33466(8)
N16_9 N 0.36141(6) 0.97936(6) 0.38956(5)
N17_9 N 0.36044(5) 0.88859(6) 0.47936(6)
N18_7 N 0.27064(6) 0.86044(5) 0.36141(6)
N19_7 N 0.36141(6) 0.77064(6) 0.36044(5)
N20_7 N 0.36044(5) 0.86141(6) 0.27064(6)
C32_9 C 0.36502(8) 0.97506(8) 0.40628(8)
C33_9 C 0.34372(8) 0.88498(8) 0.47506(8)
C34_7 C 0.27494(8) 0.84372(8) 0.36502(8)
C35_7 C 0.36502(8) 0.77494(8) 0.34372(8)
C36_7 C 0.34372(8) 0.86502(8) 0.27494(8)
H17_9 H 0.3737 0.9819 0.4125
H18_9 H 0.3375 0.8763 0.4819
H19_7 H 0.2681 0.8375 0.3737
H20_7 H 0.3737 0.7681 0.3375
H21_7 H 0.3375 0.8737 0.2681
C37_9 C 0.35695(9) 0.96120(8) 0.41528(9)
C38_9 C 0.33472(9) 0.89305(9) 0.46120(8)
C39_7 C 0.28880(8) 0.83472(9) 0.35695(9)
C40_7 C 0.35695(9) 0.78880(8) 0.33472(9)
C41_7 C 0.33472(9) 0.85695(9) 0.28880(8)
H22_9 H 0.3604 0.9583 0.4271
H23_9 H 0.3229 0.8896 0.4583
H24_7 H 0.2917 0.8229 0.3604
H25_7 H 0.3604 0.7917 0.3229
H26_7 H 0.3229 0.8604 0.2917
C42_9 C 0.34395(7) 0.95176(8) 0.40696(8)
C43_9 C 0.34304(8) 0.90605(7) 0.45176(8)
C44_7 C 0.29824(8) 0.84304(8) 0.34395(7)
C45_7 C 0.34395(7) 0.79824(8) 0.34304(8)
C46_7 C 0.34304(8) 0.84395(7) 0.29824(8)
C47_9 C 0.33988(10) 0.95598(10) 0.38936(10)
C48_9 C 0.36064(10) 0.91012(10) 0.45598(10)
C49_7 C 0.29402(10) 0.86064(10) 0.33988(10)
C50_7 C 0.33988(10) 0.79402(10) 0.36064(10)
C51_7 C 0.36064(10) 0.83988(10) 0.29402(10)
H27_9 H 0.3310 0.9495 0.3831
H28_9 H 0.3669 0.9190 0.4495
H29_7 H 0.3005 0.8669 0.3310
H30_7 H 0.3310 0.8005 0.3669
H31_7 H 0.3669 0.8310 0.3005
C52_9 C 0.34903(10) 0.96978(10) 0.38120(11)
C53_9 C 0.36880(11) 0.90097(10) 0.46978(10)
C54_7 C 0.28022(10) 0.86880(11) 0.34903(10)
C55_7 C 0.34903(10) 0.78022(10) 0.36880(11)
C56_7 C 0.36880(11) 0.84903(10) 0.28022(10)
H32_9 H 0.3464 0.9725 0.3691
H33_9 H 0.3809 0.9036 0.4725
H34_7 H 0.2775 0.8809 0.3464
H35_7 H 0.3464 0.7775 0.3809
H36_7 H 0.3809 0.8464 0.2775
N21_10 N 0.24927(4) 0.85615(5) 0.39556(5)
C57_10 C 0.25067(7) 0.85015(8) 0.40956(9)
S3_10 S 0.25320(4) 0.84255(4) 0.43001(3)
N22_10 N 0.22903(5) 0.85979(5) 0.36148(5)
C58_10 C 0.22653(6) 0.84251(6) 0.36498(6)
H37_10 H 0.2344 0.8368 0.3731
C59_10 C 0.21312(6) 0.83250(6) 0.35738(6)
H38_10 H 0.2117 0.8203 0.3604
C60_10 C 0.20184(6) 0.84056(6) 0.34539(6)
C61_10 C 0.20457(7) 0.85858(7) 0.34108(7)
H39_10 H 0.1974 0.8644 0.3324
C62_10 C 0.21782(7) 0.86750(6) 0.34970(7)
H40_10 H 0.2193 0.8799 0.3473
C63_10 C 0.16646(6) 0.82859(6) 0.31527(6)
N23_10 N 0.18090(5) 0.83684(6) 0.32146(5)
C64_10 C 0.18660(6) 0.83110(6) 0.33736(6)
N24_10 N 0.17917(5) 0.81784(5) 0.34688(5)
C65_10 C 0.16495(6) 0.81035(6) 0.33904(7)
N25_10 N 0.15811(6) 0.81502(6) 0.32339(5)
N26_9 N 0.14321(5) 0.85247(5) 0.26958(5)
N28_12 N 0.10679(5) 0.98042(5) 0.35247(5)
C66_10 C 0.16015(7) 0.85593(8) 0.27426(7)
H41_10 H 0.1667 0.8644 0.2675
C67_10 C 0.16839(7) 0.84772(7) 0.28851(7)
H42_10 H 0.1804 0.8505 0.2915
C68_10 C 0.15889(6) 0.83541(7) 0.29844(6)
C69_10 C 0.14182(7) 0.83102(6) 0.29301(7)
H43_10 H 0.1352 0.8221 0.2991
C70_10 C 0.13459(6) 0.83976(6) 0.27860(6)
H44_10 H 0.1229 0.8366 0.2749
N30_8 N 0.13671(5) 0.76951(5) 0.36693(5)
C71_10 C 0.13491(7) 0.77202(7) 0.34932(7)
H45_10 H 0.1271 0.7643 0.3430
C72_10 C 0.14362(7) 0.78498(7) 0.33993(7)
H46_10 H 0.1416 0.7864 0.3275
C73_10 C 0.15543(6) 0.79605(6) 0.34888(6)
C74_10 C 0.15828(7) 0.79304(7) 0.36709(7)
H47_10 H 0.1668 0.7999 0.3735
C75_10 C 0.14851(7) 0.77995(6) 0.37549(6)
H48_10 H 0.1502 0.7782 0.3879
Co7_9 Co 0.130359(9) 0.8696 0.250000(9)
Co8_14 Co 0.119641(9) 1.000000(9) 0.3696
Co9_9 Co 0.119641(9) 0.750000(9) 0.3804
N35_12 N 0.10058(5) 0.99652(5) 0.38938(5)
C77_12 C 0.09307(7) 0.98583(8) 0.39802(7)
S5_12 S 0.08312(3) 0.97074(3) 0.40991(3)
N3_11 N 0.35444(5) 0.74927(4) 0.39385(5)
C7_11 C 0.34044(9) 0.75067(7) 0.39985(8)
S1_11 S 0.31999(3) 0.75320(4) 0.40745(4)
N4_11 N 0.38852(5) 0.72903(5) 0.39021(5)
C8_11 C 0.38502(6) 0.72653(6) 0.40749(6)
H5_11 H 0.3769 0.7344 0.4132
C9_11 C 0.39262(6) 0.71312(6) 0.41750(6)
H6_11 H 0.3896 0.7117 0.4297
C10_11 C 0.40461(6) 0.70184(6) 0.40944(6)
C11_11 C 0.40892(7) 0.70457(7) 0.39142(7)
H7_11 H 0.4176 0.6974 0.3856
C12_11 C 0.40030(7) 0.71782(7) 0.38250(6)
H8_11 H 0.4027 0.7193 0.3701
C13_11 C 0.43473(6) 0.66646(6) 0.42141(6)
N5_11 N 0.42854(5) 0.68090(5) 0.41316(6)
C14_11 C 0.41264(6) 0.68660(6) 0.41890(6)
N6_11 N 0.40312(5) 0.67917(5) 0.43216(5)
C15_11 C 0.41096(7) 0.66495(6) 0.43965(6)
N7_11 N 0.42661(5) 0.65811(6) 0.43498(6)
N8_10 N 0.48042(5) 0.64321(5) 0.39753(5)
C16_11 C 0.47574(7) 0.66015(7) 0.39407(8)
H9_11 H 0.4825 0.6667 0.3856
C17_11 C 0.46149(7) 0.66839(7) 0.40228(7)
H10_11 H 0.4585 0.6804 0.3995
C18_11 C 0.45156(6) 0.65889(6) 0.41459(7)
C19_11 C 0.45699(7) 0.64182(7) 0.41898(6)
H11_11 H 0.4509 0.6352 0.4279
C20_11 C 0.47140(6) 0.63459(6) 0.41024(6)
H12_11 H 0.4751 0.6229 0.4134
N9_11 N 0.38307(5) 0.63671(5) 0.48049(5)
C21_11 C 0.40068(7) 0.63491(7) 0.47798(7)
H13_11 H 0.4070 0.6271 0.4857
C22_11 C 0.41007(7) 0.64362(7) 0.46502(7)
H14_11 H 0.4225 0.6416 0.4636
C23_11 C 0.40112(6) 0.65543(6) 0.45395(6)
C24_11 C 0.38291(7) 0.65828(7) 0.45696(7)
H15_11 H 0.3765 0.6668 0.4501
C25_11 C 0.37451(6) 0.64851(7) 0.47005(6)
H16_11 H 0.3621 0.6502 0.4718
Co2_11 Co 0.500000(9) 0.630359(9) 0.3804
N10_12 N 0.49652(5) 0.64942(5) 0.36062(5)
C26_12 C 0.48583(8) 0.65693(7) 0.35198(7)
S2_12 S 0.47074(3) 0.66688(3) 0.34009(3)
N21_11 N 0.39556(5) 0.74927(4) 0.35615(5)
C57_11 C 0.40956(9) 0.75067(7) 0.35015(8)
S3_11 S 0.43001(3) 0.75320(4) 0.34255(4)
N22_11 N 0.36148(5) 0.72903(5) 0.35979(5)
C58_11 C 0.36498(6) 0.72653(6) 0.34251(6)
H37_11 H 0.3731 0.7344 0.3368
C59_11 C 0.35738(6) 0.71312(6) 0.33250(6)
H38_11 H 0.3604 0.7117 0.3203
C60_11 C 0.34539(6) 0.70184(6) 0.34056(6)
C61_11 C 0.34108(7) 0.70457(7) 0.35858(7)
H39_11 H 0.3324 0.6974 0.3644
C62_11 C 0.34970(7) 0.71782(7) 0.36750(6)
H40_11 H 0.3473 0.7193 0.3799
C63_11 C 0.31527(6) 0.66646(6) 0.32859(6)
N23_11 N 0.32146(5) 0.68090(5) 0.33684(6)
C64_11 C 0.33736(6) 0.68660(6) 0.33110(6)
N24_11 N 0.34688(5) 0.67917(5) 0.31784(5)
C65_11 C 0.33904(7) 0.66495(6) 0.31035(6)
N25_11 N 0.32339(5) 0.65811(6) 0.31502(6)
N26_10 N 0.26958(5) 0.64321(5) 0.35247(5)
N27_12 N 0.51958(5) 0.64753(5) 0.39321(5)
N28_13 N 0.35247(5) 0.60679(5) 0.48042(5)
N29_13 N 0.35679(5) 0.60247(5) 0.51958(5)
C66_11 C 0.27426(7) 0.66015(7) 0.35593(8)
H41_11 H 0.2675 0.6667 0.3644
C67_11 C 0.28851(7) 0.66839(7) 0.34772(7)
H42_11 H 0.2915 0.6804 0.3505
C68_11 C 0.29844(6) 0.65889(6) 0.33541(7)
C69_11 C 0.29301(7) 0.64182(7) 0.33102(6)
H43_11 H 0.2991 0.6352 0.3221
C70_11 C 0.27860(6) 0.63459(6) 0.33976(6)
H44_11 H 0.2749 0.6229 0.3366
N31_12 N 0.48049(5) 0.61329(5) 0.36693(5)
N32_12 N 0.51951(5) 0.61693(5) 0.36329(5)
N33_12 N 0.38671(5) 0.63307(5) 0.51951(5)
C71_11 C 0.34932(7) 0.63491(7) 0.27202(7)
H45_11 H 0.3430 0.6271 0.2643
C72_11 C 0.33993(7) 0.64362(7) 0.28498(7)
H46_11 H 0.3275 0.6416 0.2864
C73_11 C 0.34888(6) 0.65543(6) 0.29605(6)
C74_11 C 0.36709(7) 0.65828(7) 0.29304(7)
H47_11 H 0.3735 0.6668 0.2999
C75_11 C 0.37549(6) 0.64851(7) 0.27995(6)
H48_11 H 0.3879 0.6502 0.2782
Co7_10 Co 0.250000(9) 0.630359(9) 0.3696
Co8_15 Co 0.3696 0.619641(9) 0.500000(9)
N34_12 N 0.50348(5) 0.61062(5) 0.39942(5)
N35_13 N 0.38938(5) 0.60058(5) 0.49652(5)
N36_13 N 0.35058(5) 0.63938(5) 0.50348(5)
C76_12 C 0.51417(8) 0.60198(7) 0.40693(7)
C77_13 C 0.39802(7) 0.59307(7) 0.48583(8)
C78_13 C 0.34307(7) 0.64802(7) 0.51417(8)
S4_12 S 0.52926(3) 0.59009(3) 0.41688(3)
S5_13 S 0.40991(3) 0.58312(3) 0.47074(3)
S6_13 S 0.33312(3) 0.65991(3) 0.52926(3)
N10_13 N 0.50348(5) 0.11062(5) 0.89942(5)
C26_13 C 0.51417(8) 0.10198(7) 0.90693(7)
S2_13 S 0.52926(3) 0.09009(3) 0.91688(3)
N27_13 N 0.48042(5) 0.14321(5) 0.89753(5)
N31_13 N 0.51951(5) 0.11693(5) 0.86329(5)
N32_13 N 0.48049(5) 0.11329(5) 0.86693(5)
N34_13 N 0.49652(5) 0.14942(5) 0.86062(5)
C76_13 C 0.48583(8) 0.15693(7) 0.85198(7)
S4_13 S 0.47074(3) 0.16688(3) 0.84009(3)
N1_10 N 0.07010(7) 0.67949(6) 0.09256(6)
C1_10 C 0.08466(8) 0.68644(8) 0.08483(8)
N2_10 N 0.11044(5) 0.72936(6) 0.11141(6)
C2_10 C 0.09372(8) 0.72506(8) 0.11502(8)
H1_10 H 0.0875 0.7319 0.1237
C3_10 C 0.08472(9) 0.71120(8) 0.10695(9)
H2_10 H 0.0729 0.7083 0.1104
C4_10 C 0.09304(8) 0.70176(8) 0.09395(7)
C5_10 C 0.11064(10) 0.70598(10) 0.08988(10)
H3_10 H 0.1169 0.6995 0.0810
C6_10 C 0.11880(11) 0.71978(10) 0.09903(10)
H4_10 H 0.1309 0.7225 0.0964
N3_12 N 0.10615(5) 0.75073(4) 0.14556(5)
C7_12 C 0.10015(8) 0.74933(7) 0.15956(9)
S1_12 S 0.09255(4) 0.74680(4) 0.18001(3)
N4_12 N 0.10979(5) 0.77097(5) 0.11148(5)
C8_12 C 0.09251(6) 0.77347(6) 0.11498(6)
H5_12 H 0.0868 0.7656 0.1231
C9_12 C 0.08250(6) 0.78688(6) 0.10738(6)
H6_12 H 0.0703 0.7883 0.1104
C10_12 C 0.09056(6) 0.79816(6) 0.09539(6)
C11_12 C 0.10858(7) 0.79543(7) 0.09108(7)
H7_12 H 0.1144 0.8026 0.0824
C12_12 C 0.11750(6) 0.78218(7) 0.09970(7)
H8_12 H 0.1299 0.7807 0.0973
C13_12 C 0.07859(6) 0.83354(6) 0.06527(6)
N5_12 N 0.08684(6) 0.81910(5) 0.07146(5)
C14_12 C 0.08110(6) 0.81340(6) 0.08736(6)
N6_12 N 0.06784(5) 0.82083(5) 0.09688(5)
C15_12 C 0.06035(6) 0.83505(6) 0.08904(7)
N7_12 N 0.06502(6) 0.84189(6) 0.07339(5)
N8_11 N 0.10247(5) 0.85679(5) 0.01958(5)
C16_12 C 0.10593(8) 0.83985(7) 0.02426(7)
H9_12 H 0.1144 0.8333 0.0175
C17_12 C 0.09772(7) 0.83161(7) 0.03851(7)
H10_12 H 0.1005 0.8196 0.0415
C18_12 C 0.08541(7) 0.84111(6) 0.04844(6)
C19_12 C 0.08102(6) 0.85818(7) 0.04301(7)
H11_12 H 0.0721 0.8648 0.0491
C20_12 C 0.08976(6) 0.86541(6) 0.02860(6)
H12_12 H 0.0866 0.8771 0.0249
N9_12 N 0.01951(5) 0.86329(5) 0.11693(5)
C21_12 C 0.02202(7) 0.86509(7) 0.09932(7)
H13_12 H 0.0143 0.8729 0.0930
C22_12 C 0.03498(7) 0.85638(7) 0.08993(7)
H14_12 H 0.0364 0.8584 0.0775
C23_12 C 0.04605(6) 0.84457(6) 0.09888(6)
C24_12 C 0.04304(7) 0.84172(7) 0.11709(7)
H15_12 H 0.0499 0.8332 0.1235
C25_12 C 0.02995(6) 0.85149(7) 0.12549(6)
H16_12 H 0.0282 0.8498 0.1379
Co2_12 Co 0.1196 0.869641(9) -0.000000(9)
N10_14 N 0.13938(5) 0.85058(5) 0.00348(5)
C26_14 C 0.14802(7) 0.84307(7) 0.01417(8)
S2_14 S 0.15991(3) 0.83312(3) 0.02926(3)
N11_10 N 0.09256(6) 0.67990(7) 0.07051(6)
N12_10 N 0.07051(6) 0.65744(6) 0.07010(7)
C27_10 C 0.08483(8) 0.66534(8) 0.06356(8)
C28_10 C 0.06356(8) 0.66517(8) 0.08466(8)
N16_10 N 0.02064(6) 0.63859(6) 0.11044(5)
N17_10 N 0.11141(6) 0.63956(5) 0.02064(6)
C32_10 C 0.02494(8) 0.63498(8) 0.09372(8)
C33_10 C 0.11502(8) 0.65628(8) 0.02494(8)
H17_10 H 0.0181 0.6263 0.0875
H18_10 H 0.1237 0.6625 0.0181
C37_10 C 0.03880(8) 0.64305(9) 0.08472(9)
C38_10 C 0.10695(9) 0.66528(9) 0.03880(8)
H22_10 H 0.0417 0.6396 0.0729
H23_10 H 0.1104 0.6771 0.0417
C42_10 C 0.04824(8) 0.65605(7) 0.09304(8)
C43_10 C 0.09395(7) 0.65696(8) 0.04824(8)
C47_10 C 0.04402(10) 0.66012(10) 0.11064(10)
C48_10 C 0.08988(10) 0.63936(10) 0.04402(10)
H27_10 H 0.0505 0.6690 0.1169
H28_10 H 0.0810 0.6331 0.0505
C52_10 C 0.03022(10) 0.65097(10) 0.11880(11)
C53_10 C 0.09903(10) 0.63120(11) 0.03022(10)
H32_10 H 0.0275 0.6536 0.1309
H33_10 H 0.0964 0.6191 0.0275
N21_12 N 0.14385(5) 0.75073(4) 0.10444(5)
C57_12 C 0.14985(8) 0.74933(7) 0.09044(9)
S3_12 S 0.15745(4) 0.74680(4) 0.06999(3)
N22_12 N 0.14021(5) 0.77097(5) 0.13852(5)
C58_12 C 0.15749(6) 0.77347(6) 0.13502(6)
H37_12 H 0.1632 0.7656 0.1269
C59_12 C 0.16750(6) 0.78688(6) 0.14262(6)
H38_12 H 0.1797 0.7883 0.1396
C60_12 C 0.15944(6) 0.79816(6) 0.15461(6)
C61_12 C 0.14142(7) 0.79543(7) 0.15892(7)
H39_12 H 0.1356 0.8026 0.1676
C62_12 C 0.13250(6) 0.78218(7) 0.15030(7)
H40_12 H 0.1201 0.7807 0.1527
C63_12 C 0.17141(6) 0.83354(6) 0.18473(6)
N23_12 N 0.16316(6) 0.81910(5) 0.17854(5)
C64_12 C 0.16890(6) 0.81340(6) 0.16264(6)
N24_12 N 0.18216(5) 0.82083(5) 0.15312(5)
C65_12 C 0.18965(6) 0.83505(6) 0.16096(7)
N25_12 N 0.18498(6) 0.84189(6) 0.17661(5)
N26_11 N 0.14753(5) 0.85679(5) 0.23042(5)
N28_14 N 0.01958(5) 0.89321(5) 0.14753(5)
C66_12 C 0.14407(8) 0.83985(7) 0.22574(7)
H41_12 H 0.1356 0.8333 0.2325
C67_12 C 0.15228(7) 0.83161(7) 0.21149(7)
H42_12 H 0.1495 0.8196 0.2085
C68_12 C 0.16459(7) 0.84111(6) 0.20156(6)
C69_12 C 0.16898(6) 0.85818(7) 0.20699(7)
H43_12 H 0.1779 0.8648 0.2009
C70_12 C 0.16024(6) 0.86541(6) 0.22140(6)
H44_12 H 0.1634 0.8771 0.2251
N30_9 N 0.23049(5) 0.86329(5) 0.13307(5)
N31_14 N 0.13307(5) 0.88671(5) 0.01951(5)
C71_12 C 0.22798(7) 0.86509(7) 0.15068(7)
H45_12 H 0.2357 0.8729 0.1570
C72_12 C 0.21502(7) 0.85638(7) 0.16007(7)
H46_12 H 0.2136 0.8584 0.1725
C73_12 C 0.20395(6) 0.84457(6) 0.15112(6)
C74_12 C 0.20696(7) 0.84172(7) 0.13291(7)
H47_12 H 0.2001 0.8332 0.1265
C75_12 C 0.22005(6) 0.85149(7) 0.12451(6)
H48_12 H 0.2218 0.8498 0.1121
Co8_16 Co -0.000000(9) 0.880359(9) 0.1304
Co9_10 Co 0.250000(9) 0.880359(9) 0.1196
N35_14 N 0.00348(5) 0.89942(5) 0.11062(5)
C77_14 C 0.01417(8) 0.90693(7) 0.10198(7)
S5_14 S 0.02926(3) 0.91688(3) 0.09009(3)
Co2_13 Co 0.1196 0.869641(9) 1.000000(9)
N27_14 N 0.10679(5) 0.85247(5) 0.98042(5)
N32_14 N 0.13671(5) 0.88307(5) 0.98049(5)
N34_14 N 0.10058(5) 0.88938(5) 0.99652(5)
C76_14 C 0.09307(7) 0.89802(7) 0.98583(8)
S4_14 S 0.08312(3) 0.90991(3) 0.97074(3)
Co3_7 Co 0.9996 0.6250 0.125000(10)
N29_14 N 0.98042(5) 0.89753(5) 0.14321(5)
N33_13 N 0.98049(5) 0.86693(5) 0.11329(5)
Co8_17 Co 1.000000(9) 0.880359(9) 0.1304
N36_14 N 0.99652(5) 0.86062(5) 0.14942(5)
C78_14 C 0.98583(8) 0.85198(7) 0.15693(7)
S6_14 S 0.97074(3) 0.84009(3) 0.16688(3)
N10_15 N 0.60058(5) 0.88938(5) 0.49652(5)
C26_15 C 0.59307(7) 0.89802(7) 0.48583(8)
S2_15 S 0.58312(3) 0.90991(3) 0.47074(3)
N27_15 N 0.60247(5) 0.85679(5) 0.51958(5)
N28_15 N 0.64321(5) 0.76958(5) 0.35247(5)
N29_15 N 0.64753(5) 0.73042(5) 0.35679(5)
N31_15 N 0.63671(5) 0.88307(5) 0.48049(5)
N32_15 N 0.63307(5) 0.88671(5) 0.51951(5)
N33_14 N 0.61693(5) 0.73049(5) 0.38671(5)
N34_15 N 0.63938(5) 0.85058(5) 0.50348(5)
N35_15 N 0.64942(5) 0.75348(5) 0.38938(5)
N36_15 N 0.61062(5) 0.74652(5) 0.35058(5)
C76_15 C 0.64802(7) 0.84307(7) 0.51417(8)
C77_15 C 0.65693(7) 0.76417(8) 0.39802(7)
C78_15 C 0.60198(7) 0.73583(8) 0.34307(7)
S4_15 S 0.65991(3) 0.83312(3) 0.52926(3)
S5_15 S 0.66688(3) 0.77926(3) 0.40991(3)
S6_15 S 0.59009(3) 0.72074(3) 0.33312(3)
Co2_14 Co 0.3696 0.000000(9) 0.619641(9)
N27_16 N 0.35679(5) 0.01958(5) 0.60247(5)
N32_16 N 0.38671(5) 0.01951(5) 0.63307(5)
N34_16 N 0.35058(5) 0.00348(5) 0.63938(5)
C76_16 C 0.34307(7) 0.01417(8) 0.64802(7)
S4_16 S 0.33312(3) 0.02926(3) 0.65991(3)
N3_13 N 0.35615(5) 0.85444(5) 0.50073(4)
C7_13 C 0.35015(8) 0.84044(9) 0.49933(7)
S1_13 S 0.34255(4) 0.81999(3) 0.49680(4)
N4_13 N 0.35979(5) 0.88852(5) 0.52097(5)
C8_13 C 0.34251(6) 0.88502(6) 0.52347(6)
H5_13 H 0.3368 0.8769 0.5156
C9_13 C 0.33250(6) 0.89262(6) 0.53688(6)
H6_13 H 0.3203 0.8896 0.5383
C10_13 C 0.34056(6) 0.90461(6) 0.54816(6)
C11_13 C 0.35858(7) 0.90892(7) 0.54543(7)
H7_13 H 0.3644 0.9176 0.5526
C12_13 C 0.36750(6) 0.90030(7) 0.53218(7)
H8_13 H 0.3799 0.9027 0.5307
C13_13 C 0.32859(6) 0.93473(6) 0.58354(6)
N5_13 N 0.33684(6) 0.92854(5) 0.56910(5)
C14_13 C 0.33110(6) 0.91264(6) 0.56340(6)
N6_13 N 0.31784(5) 0.90312(5) 0.57083(5)
C15_13 C 0.31035(6) 0.91096(7) 0.58505(6)
N7_13 N 0.31502(6) 0.92661(5) 0.59189(6)
N8_12 N 0.35247(5) 0.98042(5) 0.60679(5)
C16_13 C 0.35593(8) 0.97574(7) 0.58985(7)
H9_13 H 0.3644 0.9825 0.5833
C17_13 C 0.34772(7) 0.96149(7) 0.58161(7)
H10_13 H 0.3505 0.9585 0.5696
C18_13 C 0.33541(7) 0.95156(6) 0.59111(6)
C19_13 C 0.33102(6) 0.95699(7) 0.60818(7)
H11_13 H 0.3221 0.9509 0.6148
C20_13 C 0.33976(6) 0.97140(6) 0.61541(6)
H12_13 H 0.3366 0.9751 0.6271
C21_13 C 0.27202(7) 0.90068(7) 0.61509(7)
H13_13 H 0.2643 0.9070 0.6229
C22_13 C 0.28498(7) 0.91007(7) 0.60638(7)
H14_13 H 0.2864 0.9225 0.6084
C23_13 C 0.29605(6) 0.90112(6) 0.59457(6)
C24_13 C 0.29304(7) 0.88291(7) 0.59172(7)
H15_13 H 0.2999 0.8765 0.5832
C25_13 C 0.27995(6) 0.87451(6) 0.60149(7)
H16_13 H 0.2782 0.8621 0.5998
Co2_15 Co 0.3696 1.000000(9) 0.619641(9)
N10_16 N 0.38938(5) 0.99652(5) 0.60058(5)
C26_16 C 0.39802(7) 0.98583(8) 0.59307(7)
S2_16 S 0.40991(3) 0.97074(3) 0.58312(3)
N21_13 N 0.39385(5) 0.89556(5) 0.50073(4)
C57_13 C 0.39985(8) 0.90956(9) 0.49933(7)
S3_13 S 0.40745(4) 0.93001(3) 0.49680(4)
N22_13 N 0.39021(5) 0.86148(5) 0.52097(5)
C58_13 C 0.40749(6) 0.86498(6) 0.52347(6)
H37_13 H 0.4132 0.8731 0.5156
C59_13 C 0.41750(6) 0.85738(6) 0.53688(6)
H38_13 H 0.4297 0.8604 0.5383
C60_13 C 0.40944(6) 0.84539(6) 0.54816(6)
C61_13 C 0.39142(7) 0.84108(7) 0.54543(7)
H39_13 H 0.3856 0.8324 0.5526
C62_13 C 0.38250(6) 0.84970(7) 0.53218(7)
H40_13 H 0.3701 0.8473 0.5307
C63_13 C 0.42141(6) 0.81527(6) 0.58354(6)
N23_13 N 0.41316(6) 0.82146(5) 0.56910(5)
C64_13 C 0.41890(6) 0.83736(6) 0.56340(6)
N24_13 N 0.43216(5) 0.84688(5) 0.57083(5)
C65_13 C 0.43965(6) 0.83904(7) 0.58505(6)
N25_13 N 0.43498(6) 0.82339(5) 0.59189(6)
N26_12 N 0.39753(5) 0.76958(5) 0.60679(5)
C66_13 C 0.39407(8) 0.77426(7) 0.58985(7)
H41_13 H 0.3856 0.7675 0.5833
C67_13 C 0.40228(7) 0.78851(7) 0.58161(7)
H42_13 H 0.3995 0.7915 0.5696
C68_13 C 0.41459(7) 0.79844(6) 0.59111(6)
C69_13 C 0.41898(6) 0.79301(7) 0.60818(7)
H43_13 H 0.4279 0.7991 0.6148
C70_13 C 0.41024(6) 0.77860(6) 0.61541(6)
H44_13 H 0.4134 0.7749 0.6271
N30_10 N 0.48049(5) 0.86693(5) 0.61329(5)
N31_16 N 0.38307(5) 0.98049(5) 0.63671(5)
C71_13 C 0.47798(7) 0.84932(7) 0.61509(7)
H45_13 H 0.4857 0.8430 0.6229
C72_13 C 0.46502(7) 0.83993(7) 0.60638(7)
H46_13 H 0.4636 0.8275 0.6084
C73_13 C 0.45395(6) 0.84888(6) 0.59457(6)
C74_13 C 0.45696(7) 0.86709(7) 0.59172(7)
H47_13 H 0.4501 0.8735 0.5832
C75_13 C 0.47005(6) 0.87549(6) 0.60149(7)
H48_13 H 0.4718 0.8879 0.5998
Co7_11 Co 0.3804 0.750000(9) 0.619641(9)
Co9_11 Co 0.500000(9) 0.8804 0.630359(9)
N3_14 N 0.35444(5) 0.00073(4) 0.35615(5)
N4_14 N 0.38852(5) 0.02097(5) 0.35979(5)
C8_14 C 0.38502(6) 0.02347(6) 0.34251(6)
H5_14 H 0.3769 0.0156 0.3368
C9_14 C 0.39262(6) 0.03688(6) 0.33250(6)
H6_14 H 0.3896 0.0383 0.3203
C10_14 C 0.40461(6) 0.04816(6) 0.34056(6)
C11_14 C 0.40892(7) 0.04543(7) 0.35858(7)
H7_14 H 0.4176 0.0526 0.3644
C12_14 C 0.40030(7) 0.03218(7) 0.36750(6)
H8_14 H 0.4027 0.0307 0.3799
C13_14 C 0.43473(6) 0.08354(6) 0.32859(6)
N5_14 N 0.42854(5) 0.06910(5) 0.33684(6)
C14_14 C 0.41264(6) 0.06340(6) 0.33110(6)
N6_14 N 0.40312(5) 0.07083(5) 0.31784(5)
C15_14 C 0.41096(7) 0.08505(6) 0.31035(6)
N7_14 N 0.42661(5) 0.09189(6) 0.31502(6)
N8_13 N 0.48042(5) 0.10679(5) 0.35247(5)
C16_14 C 0.47574(7) 0.08985(7) 0.35593(8)
H9_14 H 0.4825 0.0833 0.3644
C17_14 C 0.46149(7) 0.08161(7) 0.34772(7)
H10_14 H 0.4585 0.0696 0.3505
C18_14 C 0.45156(6) 0.09111(6) 0.33541(7)
C19_14 C 0.45699(7) 0.10818(7) 0.33102(6)
H11_14 H 0.4509 0.1148 0.3221
C20_14 C 0.47140(6) 0.11541(6) 0.33976(6)
H12_14 H 0.4751 0.1271 0.3366
N9_13 N 0.38307(5) 0.11329(5) 0.26951(5)
C21_14 C 0.40068(7) 0.11509(7) 0.27202(7)
H13_14 H 0.4070 0.1229 0.2643
C22_14 C 0.41007(7) 0.10638(7) 0.28498(7)
H14_14 H 0.4225 0.1084 0.2864
C23_14 C 0.40112(6) 0.09457(6) 0.29605(6)
C24_14 C 0.38291(7) 0.09172(7) 0.29304(7)
H15_14 H 0.3765 0.0832 0.2999
C25_14 C 0.37451(6) 0.10149(7) 0.27995(6)
H16_14 H 0.3621 0.0998 0.2782
Co2_16 Co 0.500000(9) 0.119641(9) 0.3696
N10_17 N 0.49652(5) 0.10058(5) 0.38938(5)
C26_17 C 0.48583(8) 0.09307(7) 0.39802(7)
S2_17 S 0.47074(3) 0.08312(3) 0.40991(3)
N21_14 N 0.39556(5) 0.00073(4) 0.39385(5)
N22_14 N 0.36148(5) 0.02097(5) 0.39021(5)
C58_14 C 0.36498(6) 0.02347(6) 0.40749(6)
H37_14 H 0.3731 0.0156 0.4132
C59_14 C 0.35738(6) 0.03688(6) 0.41750(6)
H38_14 H 0.3604 0.0383 0.4297
C60_14 C 0.34539(6) 0.04816(6) 0.40944(6)
C61_14 C 0.34108(7) 0.04543(7) 0.39142(7)
H39_14 H 0.3324 0.0526 0.3856
C62_14 C 0.34970(7) 0.03218(7) 0.38250(6)
H40_14 H 0.3473 0.0307 0.3701
C63_14 C 0.31527(6) 0.08354(6) 0.42141(6)
N23_14 N 0.32146(5) 0.06910(5) 0.41316(6)
C64_14 C 0.33736(6) 0.06340(6) 0.41890(6)
N24_14 N 0.34688(5) 0.07083(5) 0.43216(5)
C65_14 C 0.33904(7) 0.08505(6) 0.43965(6)
N25_14 N 0.32339(5) 0.09189(6) 0.43498(6)
N26_13 N 0.26958(5) 0.10679(5) 0.39753(5)
N27_17 N 0.51958(5) 0.10247(5) 0.35679(5)
N28_16 N 0.35247(5) 0.14321(5) 0.26958(5)
N29_16 N 0.35679(5) 0.14753(5) 0.23042(5)
C66_14 C 0.27426(7) 0.08985(7) 0.39407(8)
H41_14 H 0.2675 0.0833 0.3856
C67_14 C 0.28851(7) 0.08161(7) 0.40228(7)
H42_14 H 0.2915 0.0696 0.3995
C68_14 C 0.29844(6) 0.09111(6) 0.41459(7)
C69_14 C 0.29301(7) 0.10818(7) 0.41898(6)
H43_14 H 0.2991 0.1148 0.4279
C70_14 C 0.27860(6) 0.11541(6) 0.41024(6)
H44_14 H 0.2749 0.1271 0.4134
N30_11 N 0.36693(5) 0.11329(5) 0.48049(5)
N31_17 N 0.48049(5) 0.13671(5) 0.38307(5)
N32_17 N 0.51951(5) 0.13307(5) 0.38671(5)
N33_15 N 0.38671(5) 0.11693(5) 0.23049(5)
C71_14 C 0.34932(7) 0.11509(7) 0.47798(7)
H45_14 H 0.3430 0.1229 0.4857
C72_14 C 0.33993(7) 0.10638(7) 0.46502(7)
H46_14 H 0.3275 0.1084 0.4636
C73_14 C 0.34888(6) 0.09457(6) 0.45395(6)
C74_14 C 0.36709(7) 0.09172(7) 0.45696(7)
H47_14 H 0.3735 0.0832 0.4501
C75_14 C 0.37549(6) 0.10149(7) 0.47005(6)
H48_14 H 0.3879 0.0998 0.4718
Co7_12 Co 0.250000(9) 0.119641(9) 0.3804
Co8_18 Co 0.3696 0.130359(9) 0.250000(9)
Co9_12 Co 0.3804 0.130359(9) 0.500000(9)
N34_17 N 0.50348(5) 0.13938(5) 0.35058(5)
N35_16 N 0.38938(5) 0.14942(5) 0.25348(5)
N36_16 N 0.35058(5) 0.11062(5) 0.24652(5)
C76_17 C 0.51417(8) 0.14802(7) 0.34307(7)
C77_16 C 0.39802(7) 0.15693(7) 0.26417(8)
C78_16 C 0.34307(7) 0.10198(7) 0.23583(8)
S4_17 S 0.52926(3) 0.15991(3) 0.33312(3)
S5_16 S 0.40991(3) 0.16688(3) 0.27926(3)
S6_16 S 0.33312(3) 0.09009(3) 0.22074(3)
C7_14 C 0.34044(9) 0.99933(7) 0.35015(8)
S1_14 S 0.31999(3) 0.99680(4) 0.34255(4)
C57_14 C 0.40956(9) 0.99933(7) 0.39985(8)
S3_14 S 0.43001(3) 0.99680(4) 0.40745(4)
N10_18 N 0.25348(5) 0.10058(5) 0.36062(5)
C26_18 C 0.26417(8) 0.09307(7) 0.35198(7)
S2_18 S 0.27926(3) 0.08312(3) 0.34009(3)
N27_18 N 0.23042(5) 0.10247(5) 0.39321(5)
N28_17 N 0.39753(5) 0.14321(5) 0.48042(5)
N29_17 N 0.39321(5) 0.14753(5) 0.51958(5)
N31_18 N 0.26951(5) 0.13671(5) 0.36693(5)
N32_18 N 0.23049(5) 0.13307(5) 0.36329(5)
N33_16 N 0.36329(5) 0.11693(5) 0.51951(5)
N34_18 N 0.24652(5) 0.13938(5) 0.39942(5)
N35_17 N 0.36062(5) 0.14942(5) 0.49652(5)
N36_17 N 0.39942(5) 0.11062(5) 0.50348(5)
C76_18 C 0.23583(8) 0.14802(7) 0.40693(7)
C77_17 C 0.35198(7) 0.15693(7) 0.48583(8)
C78_17 C 0.40693(7) 0.10198(7) 0.51417(8)
S4_18 S 0.22074(3) 0.15991(3) 0.41688(3)
S5_17 S 0.34009(3) 0.16688(3) 0.47074(3)
S6_17 S 0.41688(3) 0.09009(3) 0.52926(3)
N1_11 N 0.65744(6) 0.57010(7) 0.57051(6)
C1_11 C 0.66517(8) 0.58466(8) 0.56356(8)
N2_11 N 0.63859(6) 0.61044(5) 0.52064(6)
C2_11 C 0.63498(8) 0.59372(8) 0.52494(8)
H1_11 H 0.6263 0.5875 0.5181
C3_11 C 0.64305(9) 0.58472(9) 0.53880(8)
H2_11 H 0.6396 0.5729 0.5417
C4_11 C 0.65605(7) 0.59304(8) 0.54824(8)
C5_11 C 0.66012(10) 0.61064(10) 0.54402(10)
H3_11 H 0.6690 0.6169 0.5505
C6_11 C 0.65097(10) 0.61880(11) 0.53022(10)
H4_11 H 0.6536 0.6309 0.5275
Co1_8 Co 0.6250 0.625000(10) 0.4996
N3_15 N 0.60444(5) 0.60615(5) 0.49927(4)
C7_15 C 0.59044(9) 0.60015(8) 0.50067(7)
S1_15 S 0.56999(3) 0.59255(4) 0.50320(4)
N4_15 N 0.63852(5) 0.60979(5) 0.47903(5)
C8_15 C 0.63502(6) 0.59251(6) 0.47653(6)
H5_15 H 0.6269 0.5868 0.4844
C9_15 C 0.64262(6) 0.58250(6) 0.46312(6)
H6_15 H 0.6396 0.5703 0.4617
C10_15 C 0.65461(6) 0.59056(6) 0.45184(6)
C11_15 C 0.65892(7) 0.60858(7) 0.45457(7)
H7_15 H 0.6676 0.6144 0.4474
C12_15 C 0.65030(7) 0.61750(6) 0.46782(7)
H8_15 H 0.6527 0.6299 0.4693
C13_15 C 0.68473(6) 0.57859(6) 0.41646(6)
N5_15 N 0.67854(5) 0.58684(6) 0.43090(5)
C14_15 C 0.66264(6) 0.58110(6) 0.43660(6)
N6_15 N 0.65312(5) 0.56784(5) 0.42917(5)
C15_15 C 0.66096(7) 0.56035(6) 0.41495(6)
N7_15 N 0.67661(5) 0.56502(6) 0.40811(6)
N8_14 N 0.73042(5) 0.60247(5) 0.39321(5)
C16_15 C 0.72574(7) 0.60593(8) 0.41015(7)
H9_15 H 0.7325 0.6144 0.4167
C17_15 C 0.71149(7) 0.59772(7) 0.41839(7)
H10_15 H 0.7085 0.6005 0.4304
C18_15 C 0.70156(6) 0.58541(7) 0.40889(6)
C19_15 C 0.70699(7) 0.58102(6) 0.39182(7)
H11_15 H 0.7009 0.5721 0.3852
C20_15 C 0.72140(6) 0.58976(6) 0.38459(6)
H12_15 H 0.7251 0.5866 0.3729
N9_14 N 0.63307(5) 0.51951(5) 0.38671(5)
C21_15 C 0.65068(7) 0.52202(7) 0.38491(7)
H13_15 H 0.6570 0.5143 0.3771
C22_15 C 0.66007(7) 0.53498(7) 0.39362(7)
H14_15 H 0.6725 0.5364 0.3916
C23_15 C 0.65112(6) 0.54605(6) 0.40543(6)
C24_15 C 0.63291(7) 0.54304(7) 0.40828(7)
H15_15 H 0.6265 0.5499 0.4168
C25_15 C 0.62451(6) 0.52995(6) 0.39851(7)
H16_15 H 0.6121 0.5282 0.4002
Co2_17 Co 0.750000(9) 0.6196 0.380359(9)
N10_19 N 0.74652(5) 0.63938(5) 0.39942(5)
C26_19 C 0.73583(8) 0.64802(7) 0.40693(7)
S2_19 S 0.72074(3) 0.65991(3) 0.41688(3)
N11_11 N 0.67949(6) 0.59256(6) 0.57010(7)
N12_11 N 0.67990(7) 0.57051(6) 0.59256(6)
N13_8 N 0.59256(6) 0.67990(7) 0.57051(6)
N14_8 N 0.57051(6) 0.65744(6) 0.57010(7)
N15_8 N 0.57010(7) 0.67949(6) 0.59256(6)
C27_11 C 0.68644(8) 0.58483(8) 0.58466(8)
C28_11 C 0.66534(8) 0.56356(8) 0.58483(8)
C29_8 C 0.58483(8) 0.66534(8) 0.56356(8)
C30_8 C 0.56356(8) 0.66517(8) 0.58466(8)
C31_8 C 0.58466(8) 0.68644(8) 0.58483(8)
N16_11 N 0.63956(5) 0.52064(6) 0.61141(6)
N17_11 N 0.72936(6) 0.61141(6) 0.61044(5)
N18_8 N 0.61141(6) 0.63956(5) 0.52064(6)
N19_8 N 0.61044(5) 0.72936(6) 0.61141(6)
N20_8 N 0.52064(6) 0.63859(6) 0.61044(5)
C32_11 C 0.65628(8) 0.52494(8) 0.61502(8)
C33_11 C 0.72506(8) 0.61502(8) 0.59372(8)
C34_8 C 0.61502(8) 0.65628(8) 0.52494(8)
C35_8 C 0.59372(8) 0.72506(8) 0.61502(8)
C36_8 C 0.52494(8) 0.63498(8) 0.59372(8)
H17_11 H 0.6625 0.5181 0.6237
H18_11 H 0.7319 0.6237 0.5875
H19_8 H 0.6237 0.6625 0.5181
H20_8 H 0.5875 0.7319 0.6237
H21_8 H 0.5181 0.6263 0.5875
C37_11 C 0.66528(9) 0.53880(8) 0.60695(9)
C38_11 C 0.71120(8) 0.60695(9) 0.58472(9)
C39_8 C 0.60695(9) 0.66528(9) 0.53880(8)
C40_8 C 0.58472(9) 0.71120(8) 0.60695(9)
C41_8 C 0.53880(8) 0.64305(9) 0.58472(9)
H22_11 H 0.6771 0.5417 0.6104
H23_11 H 0.7083 0.6104 0.5729
H24_8 H 0.6104 0.6771 0.5417
H25_8 H 0.5729 0.7083 0.6104
H26_8 H 0.5417 0.6396 0.5729
C42_11 C 0.65696(8) 0.54824(8) 0.59395(7)
C43_11 C 0.70176(8) 0.59395(7) 0.59304(8)
C44_8 C 0.59395(7) 0.65696(8) 0.54824(8)
C45_8 C 0.59304(8) 0.70176(8) 0.59395(7)
C46_8 C 0.54824(8) 0.65605(7) 0.59304(8)
C47_11 C 0.63936(10) 0.54402(10) 0.58988(10)
C48_11 C 0.70598(10) 0.58988(10) 0.61064(10)
C49_8 C 0.58988(10) 0.63936(10) 0.54402(10)
C50_8 C 0.61064(10) 0.70598(10) 0.58988(10)
C51_8 C 0.54402(10) 0.66012(10) 0.61064(10)
H27_11 H 0.6331 0.5505 0.5810
H28_11 H 0.6995 0.5810 0.6169
H29_8 H 0.5810 0.6331 0.5505
H30_8 H 0.6169 0.6995 0.5810
H31_8 H 0.5505 0.6690 0.6169
C52_11 C 0.63120(11) 0.53022(10) 0.59903(10)
C53_11 C 0.71978(10) 0.59903(10) 0.61880(11)
C54_8 C 0.59903(10) 0.63120(11) 0.53022(10)
C55_8 C 0.61880(11) 0.71978(10) 0.59903(10)
C56_8 C 0.53022(10) 0.65097(10) 0.61880(11)
H32_11 H 0.6191 0.5275 0.5964
H33_11 H 0.7225 0.5964 0.6309
H34_8 H 0.5964 0.6191 0.5275
H35_8 H 0.6309 0.7225 0.5964
H36_8 H 0.5275 0.6536 0.6309
Co3_8 Co 0.625000(10) 0.4996 0.6250
Co4_6 Co 0.7504 0.6250 0.625000(10)
Co5_6 Co 0.625000(10) 0.7504 0.6250
Co6_6 Co 0.4996 0.6250 0.625000(10)
N21_15 N 0.64556(5) 0.64385(5) 0.49927(4)
C57_15 C 0.65956(9) 0.64985(8) 0.50067(7)
S3_15 S 0.68001(3) 0.65745(4) 0.50320(4)
N22_15 N 0.61148(5) 0.64021(5) 0.47903(5)
C58_15 C 0.61498(6) 0.65749(6) 0.47653(6)
H37_15 H 0.6231 0.6632 0.4844
C59_15 C 0.60738(6) 0.66750(6) 0.46312(6)
H38_15 H 0.6104 0.6797 0.4617
C60_15 C 0.59539(6) 0.65944(6) 0.45184(6)
C61_15 C 0.59108(7) 0.64142(7) 0.45457(7)
H39_15 H 0.5824 0.6356 0.4474
C62_15 C 0.59970(7) 0.63250(6) 0.46782(7)
H40_15 H 0.5973 0.6201 0.4693
C63_15 C 0.56527(6) 0.67141(6) 0.41646(6)
N23_15 N 0.57146(5) 0.66316(6) 0.43090(5)
C64_15 C 0.58736(6) 0.66890(6) 0.43660(6)
N24_15 N 0.59688(5) 0.68216(5) 0.42917(5)
C65_15 C 0.58904(7) 0.68965(6) 0.41495(6)
N25_15 N 0.57339(5) 0.68498(6) 0.40811(6)
N27_19 N 0.76958(5) 0.60679(5) 0.39753(5)
N28_18 N 0.60247(5) 0.51958(5) 0.35679(5)
N29_18 N 0.60679(5) 0.48042(5) 0.35247(5)
C66_15 C 0.52426(7) 0.64407(8) 0.41015(7)
H41_15 H 0.5175 0.6356 0.4167
C67_15 C 0.53851(7) 0.65228(7) 0.41839(7)
H42_15 H 0.5415 0.6495 0.4304
C68_15 C 0.54844(6) 0.66459(7) 0.40889(6)
C69_15 C 0.54301(7) 0.66898(6) 0.39182(7)
H43_15 H 0.5491 0.6779 0.3852
C70_15 C 0.52860(6) 0.66024(6) 0.38459(6)
H44_15 H 0.5249 0.6634 0.3729
N31_19 N 0.73049(5) 0.63307(5) 0.36329(5)
N32_19 N 0.76951(5) 0.63671(5) 0.36693(5)
N33_17 N 0.63671(5) 0.48049(5) 0.38307(5)
C71_15 C 0.59932(7) 0.72798(7) 0.38491(7)
H45_15 H 0.5930 0.7357 0.3771
C72_15 C 0.58993(7) 0.71502(7) 0.39362(7)
H46_15 H 0.5775 0.7136 0.3916
C73_15 C 0.59888(6) 0.70395(6) 0.40543(6)
C74_15 C 0.61709(7) 0.70696(7) 0.40828(7)
H47_15 H 0.6235 0.7001 0.4168
C75_15 C 0.62549(6) 0.72005(6) 0.39851(7)
H48_15 H 0.6379 0.7218 0.4002
Co8_19 Co 0.6196 0.500000(9) 0.369641(9)
N34_19 N 0.75348(5) 0.60058(5) 0.36062(5)
N35_18 N 0.63938(5) 0.50348(5) 0.35058(5)
N36_18 N 0.60058(5) 0.49652(5) 0.38938(5)
C76_19 C 0.76417(8) 0.59307(7) 0.35198(7)
C77_18 C 0.64802(7) 0.51417(8) 0.34307(7)
C78_18 C 0.59307(7) 0.48583(8) 0.39802(7)
S4_19 S 0.77926(3) 0.58312(3) 0.34009(3)
S5_18 S 0.65991(3) 0.52926(3) 0.33312(3)
S6_18 S 0.58312(3) 0.47074(3) 0.40991(3)
Co7_13 Co 0.3804 0.000000(9) 0.130359(9)
N3_16 N 0.35615(5) 0.89556(5) 0.24927(4)
C7_16 C 0.35015(8) 0.90956(9) 0.25067(7)
S1_16 S 0.34255(4) 0.93001(3) 0.25320(4)
N4_16 N 0.35979(5) 0.86148(5) 0.22903(5)
C8_16 C 0.34251(6) 0.86498(6) 0.22653(6)
H5_16 H 0.3368 0.8731 0.2344
C9_16 C 0.33250(6) 0.85738(6) 0.21312(6)
H6_16 H 0.3203 0.8604 0.2117
C10_16 C 0.34056(6) 0.84539(6) 0.20184(6)
C11_16 C 0.35858(7) 0.84108(7) 0.20457(7)
H7_16 H 0.3644 0.8324 0.1974
C12_16 C 0.36750(6) 0.84970(7) 0.21782(7)
H8_16 H 0.3799 0.8473 0.2193
C13_16 C 0.32859(6) 0.81527(6) 0.16646(6)
N5_16 N 0.33684(6) 0.82146(5) 0.18090(5)
C14_16 C 0.33110(6) 0.83736(6) 0.18660(6)
N6_16 N 0.31784(5) 0.84688(5) 0.17917(5)
C15_16 C 0.31035(6) 0.83904(7) 0.16495(6)
N7_16 N 0.31502(6) 0.82339(5) 0.15811(6)
C16_16 C 0.35593(8) 0.77426(7) 0.16015(7)
H9_16 H 0.3644 0.7675 0.1667
C17_16 C 0.34772(7) 0.78851(7) 0.16839(7)
H10_16 H 0.3505 0.7915 0.1804
C18_16 C 0.33541(7) 0.79844(6) 0.15889(6)
C19_16 C 0.33102(6) 0.79301(7) 0.14182(7)
H11_16 H 0.3221 0.7991 0.1352
C20_16 C 0.33976(6) 0.77860(6) 0.13459(6)
H12_16 H 0.3366 0.7749 0.1229
N9_15 N 0.26951(5) 0.86693(5) 0.13671(5)
C21_16 C 0.27202(7) 0.84932(7) 0.13491(7)
H13_16 H 0.2643 0.8430 0.1271
C22_16 C 0.28498(7) 0.83993(7) 0.14362(7)
H14_16 H 0.2864 0.8275 0.1416
C23_16 C 0.29605(6) 0.84888(6) 0.15543(6)
C24_16 C 0.29304(7) 0.86709(7) 0.15828(7)
H15_16 H 0.2999 0.8735 0.1668
C25_16 C 0.27995(6) 0.87549(6) 0.14851(7)
H16_16 H 0.2782 0.8879 0.1502
N21_16 N 0.39385(5) 0.85444(5) 0.24927(4)
C57_16 C 0.39985(8) 0.84044(9) 0.25067(7)
S3_16 S 0.40745(4) 0.81999(3) 0.25320(4)
N22_16 N 0.39021(5) 0.88852(5) 0.22903(5)
C58_16 C 0.40749(6) 0.88502(6) 0.22653(6)
H37_16 H 0.4132 0.8769 0.2344
C59_16 C 0.41750(6) 0.89262(6) 0.21312(6)
H38_16 H 0.4297 0.8896 0.2117
C60_16 C 0.40944(6) 0.90461(6) 0.20184(6)
C61_16 C 0.39142(7) 0.90892(7) 0.20457(7)
H39_16 H 0.3856 0.9176 0.1974
C62_16 C 0.38250(6) 0.90030(7) 0.21782(7)
H40_16 H 0.3701 0.9027 0.2193
C63_16 C 0.42141(6) 0.93473(6) 0.16646(6)
N23_16 N 0.41316(6) 0.92854(5) 0.18090(5)
C64_16 C 0.41890(6) 0.91264(6) 0.18660(6)
N24_16 N 0.43216(5) 0.90312(5) 0.17917(5)
C65_16 C 0.43965(6) 0.91096(7) 0.16495(6)
N25_16 N 0.43498(6) 0.92661(5) 0.15811(6)
N26_14 N 0.39753(5) 0.98042(5) 0.14321(5)
N28_19 N 0.26958(5) 0.89753(5) 0.10679(5)
N29_19 N 0.23042(5) 0.89321(5) 0.10247(5)
C66_16 C 0.39407(8) 0.97574(7) 0.16015(7)
H41_16 H 0.3856 0.9825 0.1667
C67_16 C 0.40228(7) 0.96149(7) 0.16839(7)
H42_16 H 0.3995 0.9585 0.1804
C68_16 C 0.41459(7) 0.95156(6) 0.15889(6)
C69_16 C 0.41898(6) 0.95699(7) 0.14182(7)
H43_16 H 0.4279 0.9509 0.1352
C70_16 C 0.41024(6) 0.97140(6) 0.13459(6)
H44_16 H 0.4134 0.9751 0.1229
N30_12 N 0.48049(5) 0.88307(5) 0.13671(5)
C71_16 C 0.47798(7) 0.90068(7) 0.13491(7)
H45_16 H 0.4857 0.9070 0.1271
C72_16 C 0.46502(7) 0.91007(7) 0.14362(7)
H46_16 H 0.4636 0.9225 0.1416
C73_16 C 0.45395(6) 0.90112(6) 0.15543(6)
C74_16 C 0.45696(7) 0.88291(7) 0.15828(7)
H47_16 H 0.4501 0.8765 0.1668
C75_16 C 0.47005(6) 0.87451(6) 0.14851(7)
H48_16 H 0.4718 0.8621 0.1502
Co7_14 Co 0.3804 1.000000(9) 0.130359(9)
Co9_13 Co 0.500000(9) 0.8696 0.119641(9)
N35_19 N 0.25348(5) 0.86062(5) 0.10058(5)
N36_19 N 0.24652(5) 0.89942(5) 0.13938(5)
C77_19 C 0.26417(8) 0.85198(7) 0.09307(7)
C78_19 C 0.23583(8) 0.90693(7) 0.14802(7)
S5_19 S 0.27926(3) 0.84009(3) 0.08312(3)
S6_19 S 0.22074(3) 0.91688(3) 0.15991(3)
N3_17 N 0.25073(4) 0.10444(5) 0.64385(5)
C7_17 C 0.24933(7) 0.09044(9) 0.64985(8)
S1_17 S 0.24680(4) 0.06999(3) 0.65745(4)
N4_17 N 0.27097(5) 0.13852(5) 0.64021(5)
C8_17 C 0.27347(6) 0.13502(6) 0.65749(6)
H5_17 H 0.2656 0.1269 0.6632
C9_17 C 0.28688(6) 0.14262(6) 0.66750(6)
H6_17 H 0.2883 0.1396 0.6797
C10_17 C 0.29816(6) 0.15461(6) 0.65944(6)
C11_17 C 0.29543(7) 0.15892(7) 0.64142(7)
H7_17 H 0.3026 0.1676 0.6356
C12_17 C 0.28218(7) 0.15030(7) 0.63250(6)
H8_17 H 0.2807 0.1527 0.6201
C13_17 C 0.33354(6) 0.18473(6) 0.67141(6)
N5_17 N 0.31910(5) 0.17854(5) 0.66316(6)
C14_17 C 0.31340(6) 0.16264(6) 0.66890(6)
N6_17 N 0.32083(5) 0.15312(5) 0.68216(5)
C15_17 C 0.33505(6) 0.16096(7) 0.68965(6)
N7_17 N 0.34189(6) 0.17661(5) 0.68498(6)
C16_17 C 0.33985(7) 0.22574(7) 0.64407(8)
H9_17 H 0.3333 0.2325 0.6356
C17_17 C 0.33161(7) 0.21149(7) 0.65228(7)
H10_17 H 0.3196 0.2085 0.6495
C18_17 C 0.34111(6) 0.20156(6) 0.66459(7)
C19_17 C 0.35818(7) 0.20699(7) 0.66898(6)
H11_17 H 0.3648 0.2009 0.6779
C20_17 C 0.36541(6) 0.22140(6) 0.66024(6)
H12_17 H 0.3771 0.2251 0.6634
N9_16 N 0.36329(5) 0.13307(5) 0.73049(5)
C21_17 C 0.36509(7) 0.15068(7) 0.72798(7)
H13_17 H 0.3729 0.1570 0.7357
C22_17 C 0.35638(7) 0.16007(7) 0.71502(7)
H14_17 H 0.3584 0.1725 0.7136
C23_17 C 0.34457(6) 0.15112(6) 0.70395(6)
C24_17 C 0.34172(7) 0.13291(7) 0.70696(7)
H15_17 H 0.3332 0.1265 0.7001
C25_17 C 0.35149(7) 0.12451(6) 0.72005(6)
H16_17 H 0.3498 0.1121 0.7218
N21_17 N 0.25073(4) 0.14556(5) 0.60615(5)
C57_17 C 0.24933(7) 0.15956(9) 0.60015(8)
S3_17 S 0.24680(4) 0.18001(3) 0.59255(4)
N22_17 N 0.27097(5) 0.11148(5) 0.60979(5)
C58_17 C 0.27347(6) 0.11498(6) 0.59251(6)
H37_17 H 0.2656 0.1231 0.5868
C59_17 C 0.28688(6) 0.10738(6) 0.58250(6)
H38_17 H 0.2883 0.1104 0.5703
C60_17 C 0.29816(6) 0.09539(6) 0.59056(6)
C61_17 C 0.29543(7) 0.09108(7) 0.60858(7)
H39_17 H 0.3026 0.0824 0.6144
C62_17 C 0.28218(7) 0.09970(7) 0.61750(6)
H40_17 H 0.2807 0.0973 0.6299
C63_17 C 0.33354(6) 0.06527(6) 0.57859(6)
N23_17 N 0.31910(5) 0.07146(5) 0.58684(6)
C64_17 C 0.31340(6) 0.08736(6) 0.58110(6)
N24_17 N 0.32083(5) 0.09688(5) 0.56784(5)
C65_17 C 0.33505(6) 0.08904(7) 0.56035(6)
N25_17 N 0.34189(6) 0.07339(5) 0.56502(6)
N28_20 N 0.39321(5) 0.10247(5) 0.73042(5)
N29_20 N 0.39753(5) 0.10679(5) 0.76958(5)
C66_17 C 0.33985(7) 0.02426(7) 0.60593(8)
H41_17 H 0.3333 0.0175 0.6144
C67_17 C 0.33161(7) 0.03851(7) 0.59772(7)
H42_17 H 0.3196 0.0415 0.6005
C68_17 C 0.34111(6) 0.04844(6) 0.58541(7)
C69_17 C 0.35818(7) 0.04301(7) 0.58102(6)
H43_17 H 0.3648 0.0491 0.5721
C70_17 C 0.36541(6) 0.02860(6) 0.58976(6)
H44_17 H 0.3771 0.0249 0.5866
N33_18 N 0.36693(5) 0.13671(5) 0.76951(5)
C71_17 C 0.36509(7) 0.09932(7) 0.52202(7)
H45_17 H 0.3729 0.0930 0.5143
C72_17 C 0.35638(7) 0.08993(7) 0.53498(7)
H46_17 H 0.3584 0.0775 0.5364
C73_17 C 0.34457(6) 0.09888(6) 0.54605(6)
C74_17 C 0.34172(7) 0.11709(7) 0.54304(7)
H47_17 H 0.3332 0.1235 0.5499
C75_17 C 0.35149(7) 0.12549(6) 0.52995(6)
H48_17 H 0.3498 0.1379 0.5282
Co8_20 Co 0.380359(9) 0.1196 0.750000(9)
N35_20 N 0.39942(5) 0.13938(5) 0.74652(5)
N36_20 N 0.36062(5) 0.10058(5) 0.75348(5)
C77_20 C 0.40693(7) 0.14802(7) 0.73583(8)
C78_20 C 0.35198(7) 0.09307(7) 0.76417(8)
S5_20 S 0.41688(3) 0.15991(3) 0.72074(3)
S6_20 S 0.34009(3) 0.08312(3) 0.77926(3)
N10_20 N 0.60058(5) 0.36062(5) 0.75348(5)
C26_20 C 0.59307(7) 0.35198(7) 0.76417(8)
S2_20 S 0.58312(3) 0.34009(3) 0.77926(3)
N27_20 N 0.60247(5) 0.39321(5) 0.73042(5)
N28_21 N 0.64321(5) 0.48042(5) 0.89753(5)
N29_21 N 0.64753(5) 0.51958(5) 0.89321(5)
N31_20 N 0.63671(5) 0.36693(5) 0.76951(5)
N32_20 N 0.63307(5) 0.36329(5) 0.73049(5)
N33_19 N 0.61693(5) 0.51951(5) 0.86329(5)
N34_20 N 0.63938(5) 0.39942(5) 0.74652(5)
N35_21 N 0.64942(5) 0.49652(5) 0.86062(5)
N36_21 N 0.61062(5) 0.50348(5) 0.89942(5)
C76_20 C 0.64802(7) 0.40693(7) 0.73583(8)
C77_21 C 0.65693(7) 0.48583(8) 0.85198(7)
C78_21 C 0.60198(7) 0.51417(8) 0.90693(7)
S4_20 S 0.65991(3) 0.41688(3) 0.72074(3)
S5_21 S 0.66688(3) 0.47074(3) 0.84009(3)
S6_21 S 0.59009(3) 0.52926(3) 0.91688(3)
N1_12 N 0.07010(7) 0.57051(6) 0.15744(6)
C1_12 C 0.08466(8) 0.56356(8) 0.16517(8)
N2_12 N 0.11044(5) 0.52064(6) 0.13859(6)
C2_12 C 0.09372(8) 0.52494(8) 0.13498(8)
H1_12 H 0.0875 0.5181 0.1263
C3_12 C 0.08472(9) 0.53880(8) 0.14305(9)
H2_12 H 0.0729 0.5417 0.1396
C4_12 C 0.09304(8) 0.54824(8) 0.15605(7)
C5_12 C 0.11064(10) 0.54402(10) 0.16012(10)
H3_12 H 0.1169 0.5505 0.1690
C6_12 C 0.11880(11) 0.53022(10) 0.15097(10)
H4_12 H 0.1309 0.5275 0.1536
N3_18 N 0.10615(5) 0.49927(4) 0.10444(5)
C7_18 C 0.10015(8) 0.50067(7) 0.09044(9)
S1_18 S 0.09255(4) 0.50320(4) 0.06999(3)
N4_18 N 0.10979(5) 0.47903(5) 0.13852(5)
C8_18 C 0.09251(6) 0.47653(6) 0.13502(6)
H5_18 H 0.0868 0.4844 0.1269
C9_18 C 0.08250(6) 0.46312(6) 0.14262(6)
H6_18 H 0.0703 0.4617 0.1396
C10_18 C 0.09056(6) 0.45184(6) 0.15461(6)
C11_18 C 0.10858(7) 0.45457(7) 0.15892(7)
H7_18 H 0.1144 0.4474 0.1676
C12_18 C 0.11750(6) 0.46782(7) 0.15030(7)
H8_18 H 0.1299 0.4693 0.1527
C13_18 C 0.07859(6) 0.41646(6) 0.18473(6)
N5_18 N 0.08684(6) 0.43090(5) 0.17854(5)
C14_18 C 0.08110(6) 0.43660(6) 0.16264(6)
N6_18 N 0.06784(5) 0.42917(5) 0.15312(5)
C15_18 C 0.06035(6) 0.41495(6) 0.16096(7)
N7_18 N 0.06502(6) 0.40811(6) 0.17661(5)
N8_15 N 0.10247(5) 0.39321(5) 0.23042(5)
C16_18 C 0.10593(8) 0.41015(7) 0.22574(7)
H9_18 H 0.1144 0.4167 0.2325
C17_18 C 0.09772(7) 0.41839(7) 0.21149(7)
H10_18 H 0.1005 0.4304 0.2085
C18_18 C 0.08541(7) 0.40889(6) 0.20156(6)
C19_18 C 0.08102(6) 0.39182(7) 0.20699(7)
H11_18 H 0.0721 0.3852 0.2009
C20_18 C 0.08976(6) 0.38459(6) 0.22140(6)
H12_18 H 0.0866 0.3729 0.2251
N9_17 N 0.01951(5) 0.38671(5) 0.13307(5)
C21_18 C 0.02202(7) 0.38491(7) 0.15068(7)
H13_18 H 0.0143 0.3771 0.1570
C22_18 C 0.03498(7) 0.39362(7) 0.16007(7)
H14_18 H 0.0364 0.3916 0.1725
C23_18 C 0.04605(6) 0.40543(6) 0.15112(6)
C24_18 C 0.04304(7) 0.40828(7) 0.13291(7)
H15_18 H 0.0499 0.4168 0.1265
C25_18 C 0.02995(6) 0.39851(7) 0.12451(6)
H16_18 H 0.0282 0.4002 0.1121
Co2_18 Co 0.1196 0.380359(9) 0.250000(9)
N10_21 N 0.13938(5) 0.39942(5) 0.24652(5)
C26_21 C 0.14802(7) 0.40693(7) 0.23583(8)
S2_21 S 0.15991(3) 0.41688(3) 0.22074(3)
N11_12 N 0.09256(6) 0.57010(7) 0.17949(6)
N12_12 N 0.07051(6) 0.59256(6) 0.17990(7)
C27_12 C 0.08483(8) 0.58466(8) 0.18644(8)
C28_12 C 0.06356(8) 0.58483(8) 0.16534(8)
N16_12 N 0.02064(6) 0.61141(6) 0.13956(5)
N17_12 N 0.11141(6) 0.61044(5) 0.22936(6)
C32_12 C 0.02494(8) 0.61502(8) 0.15628(8)
C33_12 C 0.11502(8) 0.59372(8) 0.22506(8)
H17_12 H 0.0181 0.6237 0.1625
H18_12 H 0.1237 0.5875 0.2319
C37_12 C 0.03880(8) 0.60695(9) 0.16528(9)
C38_12 C 0.10695(9) 0.58472(9) 0.21120(8)
H22_12 H 0.0417 0.6104 0.1771
H23_12 H 0.1104 0.5729 0.2083
C42_12 C 0.04824(8) 0.59395(7) 0.15696(8)
C43_12 C 0.09395(7) 0.59304(8) 0.20176(8)
C47_12 C 0.04402(10) 0.58988(10) 0.13936(10)
C48_12 C 0.08988(10) 0.61064(10) 0.20598(10)
H27_12 H 0.0505 0.5810 0.1331
H28_12 H 0.0810 0.6169 0.1995
C52_12 C 0.03022(10) 0.59903(10) 0.13120(11)
C53_12 C 0.09903(10) 0.61880(11) 0.21978(10)
H32_12 H 0.0275 0.5964 0.1191
H33_12 H 0.0964 0.6309 0.2225
N21_18 N 0.14385(5) 0.49927(4) 0.14556(5)
C57_18 C 0.14985(8) 0.50067(7) 0.15956(9)
S3_18 S 0.15745(4) 0.50320(4) 0.18001(3)
N22_18 N 0.14021(5) 0.47903(5) 0.11148(5)
C58_18 C 0.15749(6) 0.47653(6) 0.11498(6)
H37_18 H 0.1632 0.4844 0.1231
C59_18 C 0.16750(6) 0.46312(6) 0.10738(6)
H38_18 H 0.1797 0.4617 0.1104
C60_18 C 0.15944(6) 0.45184(6) 0.09539(6)
C61_18 C 0.14142(7) 0.45457(7) 0.09108(7)
H39_18 H 0.1356 0.4474 0.0824
C62_18 C 0.13250(6) 0.46782(7) 0.09970(7)
H40_18 H 0.1201 0.4693 0.0973
C63_18 C 0.17141(6) 0.41646(6) 0.06527(6)
N23_18 N 0.16316(6) 0.43090(5) 0.07146(5)
C64_18 C 0.16890(6) 0.43660(6) 0.08736(6)
N24_18 N 0.18216(5) 0.42917(5) 0.09688(5)
C65_18 C 0.18965(6) 0.41495(6) 0.08904(7)
N25_18 N 0.18498(6) 0.40811(6) 0.07339(5)
N26_15 N 0.14753(5) 0.39321(5) 0.01958(5)
N27_21 N 0.10679(5) 0.39753(5) 0.26958(5)
N28_22 N 0.01958(5) 0.35679(5) 0.10247(5)
C66_18 C 0.14407(8) 0.41015(7) 0.02426(7)
H41_18 H 0.1356 0.4167 0.0175
C67_18 C 0.15228(7) 0.41839(7) 0.03851(7)
H42_18 H 0.1495 0.4304 0.0415
C68_18 C 0.16459(7) 0.40889(6) 0.04844(6)
C69_18 C 0.16898(6) 0.39182(7) 0.04301(7)
H43_18 H 0.1779 0.3852 0.0491
C70_18 C 0.16024(6) 0.38459(6) 0.02860(6)
H44_18 H 0.1634 0.3729 0.0249
N31_21 N 0.13307(5) 0.36329(5) 0.23049(5)
N32_21 N 0.13671(5) 0.36693(5) 0.26951(5)
C71_18 C 0.22798(7) 0.38491(7) 0.09932(7)
H45_18 H 0.2357 0.3771 0.0930
C72_18 C 0.21502(7) 0.39362(7) 0.08993(7)
H46_18 H 0.2136 0.3916 0.0775
C73_18 C 0.20395(6) 0.40543(6) 0.09888(6)
C74_18 C 0.20696(7) 0.40828(7) 0.11709(7)
H47_18 H 0.2001 0.4168 0.1235
C75_18 C 0.22005(6) 0.39851(7) 0.12549(6)
H48_18 H 0.2218 0.4002 0.1379
Co7_15 Co 0.1304 0.380359(9) 0.000000(9)
Co8_21 Co -0.000000(9) 0.369641(9) 0.1196
N34_21 N 0.10058(5) 0.36062(5) 0.25348(5)
N35_22 N 0.00348(5) 0.35058(5) 0.13938(5)
C76_21 C 0.09307(7) 0.35198(7) 0.26417(8)
C77_22 C 0.01417(8) 0.34307(7) 0.14802(7)
S4_21 S 0.08312(3) 0.34009(3) 0.27926(3)
S5_22 S 0.02926(3) 0.33312(3) 0.15991(3)
Co7_16 Co 0.1304 0.380359(9) 1.000000(9)
N29_22 N 0.98042(5) 0.35247(5) 0.10679(5)
N33_20 N 0.98049(5) 0.38307(5) 0.13671(5)
Co8_22 Co 1.000000(9) 0.369641(9) 0.1196
N36_22 N 0.99652(5) 0.38938(5) 0.10058(5)
C78_22 C 0.98583(8) 0.39802(7) 0.09307(7)
S6_22 S 0.97074(3) 0.40991(3) 0.08312(3)
N10_22 N 0.11062(5) 0.39942(5) 0.00348(5)
C26_22 C 0.10198(7) 0.40693(7) 0.01417(8)
S2_22 S 0.09009(3) 0.41688(3) 0.02926(3)
N31_22 N 0.11693(5) 0.36329(5) 0.01951(5)
N27_22 N 0.14321(5) 0.39753(5) 0.98042(5)
N32_22 N 0.11329(5) 0.36693(5) 0.98049(5)
N34_22 N 0.14942(5) 0.36062(5) 0.99652(5)
C76_22 C 0.15693(7) 0.35198(7) 0.98583(8)
S4_22 S 0.16688(3) 0.34009(3) 0.97074(3)
N3_19 N 0.24927(4) 0.39385(5) 0.85444(5)
C7_19 C 0.25067(7) 0.39985(8) 0.84044(9)
S1_19 S 0.25320(4) 0.40745(4) 0.81999(3)
N4_19 N 0.22903(5) 0.39021(5) 0.88852(5)
C8_19 C 0.22653(6) 0.40749(6) 0.88502(6)
H5_19 H 0.2344 0.4132 0.8769
C9_19 C 0.21312(6) 0.41750(6) 0.89262(6)
H6_19 H 0.2117 0.4297 0.8896
C10_19 C 0.20184(6) 0.40944(6) 0.90461(6)
C11_19 C 0.20457(7) 0.39142(7) 0.90892(7)
H7_19 H 0.1974 0.3856 0.9176
C12_19 C 0.21782(7) 0.38250(6) 0.90030(7)
H8_19 H 0.2193 0.3701 0.9027
C13_19 C 0.16646(6) 0.42141(6) 0.93473(6)
N5_19 N 0.18090(5) 0.41316(6) 0.92854(5)
C14_19 C 0.18660(6) 0.41890(6) 0.91264(6)
N6_19 N 0.17917(5) 0.43216(5) 0.90312(5)
C15_19 C 0.16495(6) 0.43965(6) 0.91096(7)
N7_19 N 0.15811(6) 0.43498(6) 0.92661(5)
C16_19 C 0.16015(7) 0.39407(8) 0.97574(7)
H9_19 H 0.1667 0.3856 0.9825
C17_19 C 0.16839(7) 0.40228(7) 0.96149(7)
H10_19 H 0.1804 0.3995 0.9585
C18_19 C 0.15889(6) 0.41459(7) 0.95156(6)
C19_19 C 0.14182(7) 0.41898(6) 0.95699(7)
H11_19 H 0.1352 0.4279 0.9509
C20_19 C 0.13459(6) 0.41024(6) 0.97140(6)
H12_19 H 0.1229 0.4134 0.9751
N9_18 N 0.13671(5) 0.48049(5) 0.88307(5)
C21_19 C 0.13491(7) 0.47798(7) 0.90068(7)
H13_19 H 0.1271 0.4857 0.9070
C22_19 C 0.14362(7) 0.46502(7) 0.91007(7)
H14_19 H 0.1416 0.4636 0.9225
C23_19 C 0.15543(6) 0.45395(6) 0.90112(6)
C24_19 C 0.15828(7) 0.45696(7) 0.88291(7)
H15_19 H 0.1668 0.4501 0.8765
C25_19 C 0.14851(7) 0.47005(6) 0.87451(6)
H16_19 H 0.1502 0.4718 0.8621
N21_19 N 0.24927(4) 0.35615(5) 0.89556(5)
C57_19 C 0.25067(7) 0.35015(8) 0.90956(9)
S3_19 S 0.25320(4) 0.34255(4) 0.93001(3)
N22_19 N 0.22903(5) 0.35979(5) 0.86148(5)
C58_19 C 0.22653(6) 0.34251(6) 0.86498(6)
H37_19 H 0.2344 0.3368 0.8731
C59_19 C 0.21312(6) 0.33250(6) 0.85738(6)
H38_19 H 0.2117 0.3203 0.8604
C60_19 C 0.20184(6) 0.34056(6) 0.84539(6)
C61_19 C 0.20457(7) 0.35858(7) 0.84108(7)
H39_19 H 0.1974 0.3644 0.8324
C62_19 C 0.21782(7) 0.36750(6) 0.84970(7)
H40_19 H 0.2193 0.3799 0.8473
C63_19 C 0.16646(6) 0.32859(6) 0.81527(6)
N23_19 N 0.18090(5) 0.33684(6) 0.82146(5)
C64_19 C 0.18660(6) 0.33110(6) 0.83736(6)
N24_19 N 0.17917(5) 0.31784(5) 0.84688(5)
C65_19 C 0.16495(6) 0.31035(6) 0.83904(7)
N25_19 N 0.15811(6) 0.31502(6) 0.82339(5)
N26_16 N 0.14321(5) 0.35247(5) 0.76958(5)
N28_23 N 0.10679(5) 0.48042(5) 0.85247(5)
N29_23 N 0.10247(5) 0.51958(5) 0.85679(5)
C66_19 C 0.16015(7) 0.35593(8) 0.77426(7)
H41_19 H 0.1667 0.3644 0.7675
C67_19 C 0.16839(7) 0.34772(7) 0.78851(7)
H42_19 H 0.1804 0.3505 0.7915
C68_19 C 0.15889(6) 0.33541(7) 0.79844(6)
C69_19 C 0.14182(7) 0.33102(6) 0.79301(7)
H43_19 H 0.1352 0.3221 0.7991
C70_19 C 0.13459(6) 0.33976(6) 0.77860(6)
H44_19 H 0.1229 0.3366 0.7749
N30_13 N 0.13671(5) 0.26951(5) 0.86693(5)
N33_21 N 0.13307(5) 0.51951(5) 0.88671(5)
C71_19 C 0.13491(7) 0.27202(7) 0.84932(7)
H45_19 H 0.1271 0.2643 0.8430
C72_19 C 0.14362(7) 0.28498(7) 0.83993(7)
H46_19 H 0.1416 0.2864 0.8275
C73_19 C 0.15543(6) 0.29605(6) 0.84888(6)
C74_19 C 0.15828(7) 0.29304(7) 0.86709(7)
H47_19 H 0.1668 0.2999 0.8735
C75_19 C 0.14851(7) 0.27995(6) 0.87549(6)
H48_19 H 0.1502 0.2782 0.8879
Co8_23 Co 0.119641(9) 0.500000(9) 0.8696
Co9_14 Co 0.119641(9) 0.250000(9) 0.8804
N35_23 N 0.10058(5) 0.49652(5) 0.88938(5)
N36_23 N 0.13938(5) 0.50348(5) 0.85058(5)
C77_23 C 0.09307(7) 0.48583(8) 0.89802(7)
C78_23 C 0.14802(7) 0.51417(8) 0.84307(7)
S5_23 S 0.08312(3) 0.47074(3) 0.90991(3)
S6_23 S 0.15991(3) 0.52926(3) 0.83312(3)
N29_24 N 0.35679(5) 0.10247(5) 0.01958(5)
N33_22 N 0.38671(5) 0.13307(5) 0.01951(5)
Co8_24 Co 0.3696 0.119641(9) 0.000000(9)
N36_24 N 0.35058(5) 0.13938(5) 0.00348(5)
C78_24 C 0.34307(7) 0.14802(7) 0.01417(8)
S6_24 S 0.33312(3) 0.15991(3) 0.02926(3)
N3_20 N 0.35444(5) 0.24927(4) 0.89385(5)
C7_20 C 0.34044(9) 0.25067(7) 0.89985(8)
S1_20 S 0.31999(3) 0.25320(4) 0.90745(4)
N4_20 N 0.38852(5) 0.22903(5) 0.89021(5)
C8_20 C 0.38502(6) 0.22653(6) 0.90749(6)
H5_20 H 0.3769 0.2344 0.9132
C9_20 C 0.39262(6) 0.21312(6) 0.91750(6)
H6_20 H 0.3896 0.2117 0.9297
C10_20 C 0.40461(6) 0.20184(6) 0.90944(6)
C11_20 C 0.40892(7) 0.20457(7) 0.89142(7)
H7_20 H 0.4176 0.1974 0.8856
C12_20 C 0.40030(7) 0.21782(7) 0.88250(6)
H8_20 H 0.4027 0.2193 0.8701
C13_20 C 0.43473(6) 0.16646(6) 0.92141(6)
N5_20 N 0.42854(5) 0.18090(5) 0.91316(6)
C14_20 C 0.41264(6) 0.18660(6) 0.91890(6)
N6_20 N 0.40312(5) 0.17917(5) 0.93216(5)
C15_20 C 0.41096(7) 0.16495(6) 0.93965(6)
N7_20 N 0.42661(5) 0.15811(6) 0.93498(6)
C16_20 C 0.47574(7) 0.16015(7) 0.89407(8)
H9_20 H 0.4825 0.1667 0.8856
C17_20 C 0.46149(7) 0.16839(7) 0.90228(7)
H10_20 H 0.4585 0.1804 0.8995
C18_20 C 0.45156(6) 0.15889(6) 0.91459(7)
C19_20 C 0.45699(7) 0.14182(7) 0.91898(6)
H11_20 H 0.4509 0.1352 0.9279
C20_20 C 0.47140(6) 0.13459(6) 0.91024(6)
H12_20 H 0.4751 0.1229 0.9134
N9_19 N 0.38307(5) 0.13671(5) 0.98049(5)
C21_20 C 0.40068(7) 0.13491(7) 0.97798(7)
H13_20 H 0.4070 0.1271 0.9857
C22_20 C 0.41007(7) 0.14362(7) 0.96502(7)
H14_20 H 0.4225 0.1416 0.9636
C23_20 C 0.40112(6) 0.15543(6) 0.95395(6)
C24_20 C 0.38291(7) 0.15828(7) 0.95696(7)
H15_20 H 0.3765 0.1668 0.9501
C25_20 C 0.37451(6) 0.14851(7) 0.97005(6)
H16_20 H 0.3621 0.1502 0.9718
N21_20 N 0.39556(5) 0.24927(4) 0.85615(5)
C57_20 C 0.40956(9) 0.25067(7) 0.85015(8)
S3_20 S 0.43001(3) 0.25320(4) 0.84255(4)
N22_20 N 0.36148(5) 0.22903(5) 0.85979(5)
C58_20 C 0.36498(6) 0.22653(6) 0.84251(6)
H37_20 H 0.3731 0.2344 0.8368
C59_20 C 0.35738(6) 0.21312(6) 0.83250(6)
H38_20 H 0.3604 0.2117 0.8203
C60_20 C 0.34539(6) 0.20184(6) 0.84056(6)
C61_20 C 0.34108(7) 0.20457(7) 0.85858(7)
H39_20 H 0.3324 0.1974 0.8644
C62_20 C 0.34970(7) 0.21782(7) 0.86750(6)
H40_20 H 0.3473 0.2193 0.8799
C63_20 C 0.31527(6) 0.16646(6) 0.82859(6)
N23_20 N 0.32146(5) 0.18090(5) 0.83684(6)
C64_20 C 0.33736(6) 0.18660(6) 0.83110(6)
N24_20 N 0.34688(5) 0.17917(5) 0.81784(5)
C65_20 C 0.33904(7) 0.16495(6) 0.81035(6)
N25_20 N 0.32339(5) 0.15811(6) 0.81502(6)
N26_17 N 0.26958(5) 0.14321(5) 0.85247(5)
N28_24 N 0.35247(5) 0.10679(5) 0.98042(5)
C66_20 C 0.27426(7) 0.16015(7) 0.85593(8)
H41_20 H 0.2675 0.1667 0.8644
C67_20 C 0.28851(7) 0.16839(7) 0.84772(7)
H42_20 H 0.2915 0.1804 0.8505
C68_20 C 0.29844(6) 0.15889(6) 0.83541(7)
C69_20 C 0.29301(7) 0.14182(7) 0.83102(6)
H43_20 H 0.2991 0.1352 0.8221
C70_20 C 0.27860(6) 0.13459(6) 0.83976(6)
H44_20 H 0.2749 0.1229 0.8366
C71_20 C 0.34932(7) 0.13491(7) 0.77202(7)
H45_20 H 0.3430 0.1271 0.7643
C72_20 C 0.33993(7) 0.14362(7) 0.78498(7)
H46_20 H 0.3275 0.1416 0.7864
C73_20 C 0.34888(6) 0.15543(6) 0.79605(6)
C74_20 C 0.36709(7) 0.15828(7) 0.79304(7)
H47_20 H 0.3735 0.1668 0.7999
C75_20 C 0.37549(6) 0.14851(7) 0.77995(6)
H48_20 H 0.3879 0.1502 0.7782
Co7_17 Co 0.250000(9) 0.130359(9) 0.8696
Co8_25 Co 0.3696 0.119641(9) 1.000000(9)
N35_24 N 0.38938(5) 0.10058(5) 0.99652(5)
C77_24 C 0.39802(7) 0.09307(7) 0.98583(8)
S5_24 S 0.40991(3) 0.08312(3) 0.97074(3)
N3_21 N 0.60615(5) 0.25073(4) 0.14556(5)
C7_21 C 0.60015(8) 0.24933(7) 0.15956(9)
S1_21 S 0.59255(4) 0.24680(4) 0.18001(3)
N4_21 N 0.60979(5) 0.27097(5) 0.11148(5)
C8_21 C 0.59251(6) 0.27347(6) 0.11498(6)
H5_21 H 0.5868 0.2656 0.1231
C9_21 C 0.58250(6) 0.28688(6) 0.10738(6)
H6_21 H 0.5703 0.2883 0.1104
C10_21 C 0.59056(6) 0.29816(6) 0.09539(6)
C11_21 C 0.60858(7) 0.29543(7) 0.09108(7)
H7_21 H 0.6144 0.3026 0.0824
C12_21 C 0.61750(6) 0.28218(7) 0.09970(7)
H8_21 H 0.6299 0.2807 0.0973
C13_21 C 0.57859(6) 0.33354(6) 0.06527(6)
N5_21 N 0.58684(6) 0.31910(5) 0.07146(5)
C14_21 C 0.58110(6) 0.31340(6) 0.08736(6)
N6_21 N 0.56784(5) 0.32083(5) 0.09688(5)
C15_21 C 0.56035(6) 0.33505(6) 0.08904(7)
N7_21 N 0.56502(6) 0.34189(6) 0.07339(5)
C16_21 C 0.60593(8) 0.33985(7) 0.02426(7)
H9_21 H 0.6144 0.3333 0.0175
C17_21 C 0.59772(7) 0.33161(7) 0.03851(7)
H10_21 H 0.6005 0.3196 0.0415
C18_21 C 0.58541(7) 0.34111(6) 0.04844(6)
C19_21 C 0.58102(6) 0.35818(7) 0.04301(7)
H11_21 H 0.5721 0.3648 0.0491
C20_21 C 0.58976(6) 0.36541(6) 0.02860(6)
H12_21 H 0.5866 0.3771 0.0249
N9_20 N 0.51951(5) 0.36329(5) 0.11693(5)
C21_21 C 0.52202(7) 0.36509(7) 0.09932(7)
H13_21 H 0.5143 0.3729 0.0930
C22_21 C 0.53498(7) 0.35638(7) 0.08993(7)
H14_21 H 0.5364 0.3584 0.0775
C23_21 C 0.54605(6) 0.34457(6) 0.09888(6)
C24_21 C 0.54304(7) 0.34172(7) 0.11709(7)
H15_21 H 0.5499 0.3332 0.1235
C25_21 C 0.52995(6) 0.35149(7) 0.12549(6)
H16_21 H 0.5282 0.3498 0.1379
N13_9 N 0.67990(7) 0.17949(6) 0.15744(6)
N14_9 N 0.65744(6) 0.17990(7) 0.17949(6)
N15_9 N 0.67949(6) 0.15744(6) 0.17990(7)
C29_9 C 0.66534(8) 0.18644(8) 0.16517(8)
C30_9 C 0.66517(8) 0.16534(8) 0.18644(8)
C31_9 C 0.68644(8) 0.16517(8) 0.16534(8)
N18_9 N 0.63956(5) 0.22936(6) 0.13859(6)
N19_9 N 0.72936(6) 0.13859(6) 0.13956(5)
N20_9 N 0.63859(6) 0.13956(5) 0.22936(6)
C34_9 C 0.65628(8) 0.22506(8) 0.13498(8)
C35_9 C 0.72506(8) 0.13498(8) 0.15628(8)
C36_9 C 0.63498(8) 0.15628(8) 0.22506(8)
H19_9 H 0.6625 0.2319 0.1263
H20_9 H 0.7319 0.1263 0.1625
H21_9 H 0.6263 0.1625 0.2319
C39_9 C 0.66528(9) 0.21120(8) 0.14305(9)
C40_9 C 0.71120(8) 0.14305(9) 0.16528(9)
C41_9 C 0.64305(9) 0.16528(9) 0.21120(8)
H24_9 H 0.6771 0.2083 0.1396
H25_9 H 0.7083 0.1396 0.1771
H26_9 H 0.6396 0.1771 0.2083
C44_9 C 0.65696(8) 0.20176(8) 0.15605(7)
C45_9 C 0.70176(8) 0.15605(7) 0.15696(8)
C46_9 C 0.65605(7) 0.15696(8) 0.20176(8)
C49_9 C 0.63936(10) 0.20598(10) 0.16012(10)
C50_9 C 0.70598(10) 0.16012(10) 0.13936(10)
C51_9 C 0.66012(10) 0.13936(10) 0.20598(10)
H29_9 H 0.6331 0.1995 0.1690
H30_9 H 0.6995 0.1690 0.1331
H31_9 H 0.6690 0.1331 0.1995
C54_9 C 0.63120(11) 0.21978(10) 0.15097(10)
C55_9 C 0.71978(10) 0.15097(10) 0.13120(11)
C56_9 C 0.65097(10) 0.13120(11) 0.21978(10)
H34_9 H 0.6191 0.2225 0.1536
H35_9 H 0.7225 0.1536 0.1191
H36_9 H 0.6536 0.1191 0.2225
Co6_7 Co 0.6250 0.125000(10) 0.2504
N21_21 N 0.64385(5) 0.25073(4) 0.10444(5)
C57_21 C 0.64985(8) 0.24933(7) 0.09044(9)
S3_21 S 0.65745(4) 0.24680(4) 0.06999(3)
N22_21 N 0.64021(5) 0.27097(5) 0.13852(5)
C58_21 C 0.65749(6) 0.27347(6) 0.13502(6)
H37_21 H 0.6632 0.2656 0.1269
C59_21 C 0.66750(6) 0.28688(6) 0.14262(6)
H38_21 H 0.6797 0.2883 0.1396
C60_21 C 0.65944(6) 0.29816(6) 0.15461(6)
C61_21 C 0.64142(7) 0.29543(7) 0.15892(7)
H39_21 H 0.6356 0.3026 0.1676
C62_21 C 0.63250(6) 0.28218(7) 0.15030(7)
H40_21 H 0.6201 0.2807 0.1527
C63_21 C 0.67141(6) 0.33354(6) 0.18473(6)
N23_21 N 0.66316(6) 0.31910(5) 0.17854(5)
C64_21 C 0.66890(6) 0.31340(6) 0.16264(6)
N24_21 N 0.68216(5) 0.32083(5) 0.15312(5)
C65_21 C 0.68965(6) 0.33505(6) 0.16096(7)
N25_21 N 0.68498(6) 0.34189(6) 0.17661(5)
N26_18 N 0.64753(5) 0.35679(5) 0.23042(5)
N28_25 N 0.51958(5) 0.39321(5) 0.14753(5)
N29_25 N 0.48042(5) 0.39753(5) 0.14321(5)
C66_21 C 0.64407(8) 0.33985(7) 0.22574(7)
H41_21 H 0.6356 0.3333 0.2325
C67_21 C 0.65228(7) 0.33161(7) 0.21149(7)
H42_21 H 0.6495 0.3196 0.2085
C68_21 C 0.66459(7) 0.34111(6) 0.20156(6)
C69_21 C 0.66898(6) 0.35818(7) 0.20699(7)
H43_21 H 0.6779 0.3648 0.2009
C70_21 C 0.66024(6) 0.36541(6) 0.22140(6)
H44_21 H 0.6634 0.3771 0.2251
N30_14 N 0.73049(5) 0.36329(5) 0.13307(5)
C71_21 C 0.72798(7) 0.36509(7) 0.15068(7)
H45_21 H 0.7357 0.3729 0.1570
C72_21 C 0.71502(7) 0.35638(7) 0.16007(7)
H46_21 H 0.7136 0.3584 0.1725
C73_21 C 0.70395(6) 0.34457(6) 0.15112(6)
C74_21 C 0.70696(7) 0.34172(7) 0.13291(7)
H47_21 H 0.7001 0.3332 0.1265
C75_21 C 0.72005(6) 0.35149(7) 0.12451(6)
H48_21 H 0.7218 0.3498 0.1121
Co7_18 Co 0.6304 0.369641(9) 0.250000(9)
Co9_15 Co 0.750000(9) 0.380359(9) 0.1196
N35_25 N 0.50348(5) 0.39942(5) 0.11062(5)
N36_25 N 0.49652(5) 0.36062(5) 0.14942(5)
C77_25 C 0.51417(8) 0.40693(7) 0.10198(7)
C78_25 C 0.48583(8) 0.35198(7) 0.15693(7)
S5_25 S 0.52926(3) 0.41688(3) 0.09009(3)
S6_25 S 0.47074(3) 0.34009(3) 0.16688(3)
Co1_9 Co 0.0004 0.375000(10) 0.3750
N3_22 N 0.00073(4) 0.35615(5) 0.35444(5)
N4_22 N 0.02097(5) 0.35979(5) 0.38852(5)
C8_22 C 0.02347(6) 0.34251(6) 0.38502(6)
H5_22 H 0.0156 0.3368 0.3769
C9_22 C 0.03688(6) 0.33250(6) 0.39262(6)
H6_22 H 0.0383 0.3203 0.3896
C10_22 C 0.04816(6) 0.34056(6) 0.40461(6)
C11_22 C 0.04543(7) 0.35858(7) 0.40892(7)
H7_22 H 0.0526 0.3644 0.4176
C12_22 C 0.03218(7) 0.36750(6) 0.40030(7)
H8_22 H 0.0307 0.3799 0.4027
C13_22 C 0.08354(6) 0.32859(6) 0.43473(6)
N5_22 N 0.06910(5) 0.33684(6) 0.42854(5)
C14_22 C 0.06340(6) 0.33110(6) 0.41264(6)
N6_22 N 0.07083(5) 0.31784(5) 0.40312(5)
C15_22 C 0.08505(6) 0.31035(6) 0.41096(7)
N7_22 N 0.09189(6) 0.31502(6) 0.42661(5)
C16_22 C 0.08985(7) 0.35593(8) 0.47574(7)
H9_22 H 0.0833 0.3644 0.4825
C17_22 C 0.08161(7) 0.34772(7) 0.46149(7)
H10_22 H 0.0696 0.3505 0.4585
C18_22 C 0.09111(6) 0.33541(7) 0.45156(6)
C19_22 C 0.10818(7) 0.33102(6) 0.45699(7)
H11_22 H 0.1148 0.3221 0.4509
C20_22 C 0.11541(6) 0.33976(6) 0.47140(6)
H12_22 H 0.1271 0.3366 0.4751
N9_21 N 0.11329(5) 0.26951(5) 0.38307(5)
C21_22 C 0.11509(7) 0.27202(7) 0.40068(7)
H13_22 H 0.1229 0.2643 0.4070
C22_22 C 0.10638(7) 0.28498(7) 0.41007(7)
H14_22 H 0.1084 0.2864 0.4225
C23_22 C 0.09457(6) 0.29605(6) 0.40112(6)
C24_22 C 0.09172(7) 0.29304(7) 0.38291(7)
H15_22 H 0.0832 0.2999 0.3765
C25_22 C 0.10149(7) 0.27995(6) 0.37451(6)
H16_22 H 0.0998 0.2782 0.3621
N21_22 N 0.00073(4) 0.39385(5) 0.39556(5)
N22_22 N 0.02097(5) 0.39021(5) 0.36148(5)
C58_22 C 0.02347(6) 0.40749(6) 0.36498(6)
H37_22 H 0.0156 0.4132 0.3731
C59_22 C 0.03688(6) 0.41750(6) 0.35738(6)
H38_22 H 0.0383 0.4297 0.3604
C60_22 C 0.04816(6) 0.40944(6) 0.34539(6)
C61_22 C 0.04543(7) 0.39142(7) 0.34108(7)
H39_22 H 0.0526 0.3856 0.3324
C62_22 C 0.03218(7) 0.38250(6) 0.34970(7)
H40_22 H 0.0307 0.3701 0.3473
C63_22 C 0.08354(6) 0.42141(6) 0.31527(6)
N23_22 N 0.06910(5) 0.41316(6) 0.32146(5)
C64_22 C 0.06340(6) 0.41890(6) 0.33736(6)
N24_22 N 0.07083(5) 0.43216(5) 0.34688(5)
C65_22 C 0.08505(6) 0.43965(6) 0.33904(7)
N25_22 N 0.09189(6) 0.43498(6) 0.32339(5)
N28_26 N 0.14321(5) 0.26958(5) 0.35247(5)
N29_26 N 0.14753(5) 0.23042(5) 0.35679(5)
C66_22 C 0.08985(7) 0.39407(8) 0.27426(7)
H41_22 H 0.0833 0.3856 0.2675
C67_22 C 0.08161(7) 0.40228(7) 0.28851(7)
H42_22 H 0.0696 0.3995 0.2915
C68_22 C 0.09111(6) 0.41459(7) 0.29844(6)
C69_22 C 0.10818(7) 0.41898(6) 0.29301(7)
H43_22 H 0.1148 0.4279 0.2991
C70_22 C 0.11541(6) 0.41024(6) 0.27860(6)
H44_22 H 0.1271 0.4134 0.2749
N30_15 N 0.11329(5) 0.48049(5) 0.36693(5)
N33_23 N 0.11693(5) 0.23049(5) 0.38671(5)
C71_22 C 0.11509(7) 0.47798(7) 0.34932(7)
H45_22 H 0.1229 0.4857 0.3430
C72_22 C 0.10638(7) 0.46502(7) 0.33993(7)
H46_22 H 0.1084 0.4636 0.3275
C73_22 C 0.09457(6) 0.45395(6) 0.34888(6)
C74_22 C 0.09172(7) 0.45696(7) 0.36709(7)
H47_22 H 0.0832 0.4501 0.3735
C75_22 C 0.10149(7) 0.47005(6) 0.37549(6)
H48_22 H 0.0998 0.4718 0.3879
Co8_26 Co 0.130359(9) 0.250000(9) 0.3696
Co9_16 Co 0.130359(9) 0.500000(9) 0.3804
N35_26 N 0.14942(5) 0.25348(5) 0.38938(5)
N36_26 N 0.11062(5) 0.24652(5) 0.35058(5)
C77_26 C 0.15693(7) 0.26417(8) 0.39802(7)
C78_26 C 0.10198(7) 0.23583(8) 0.34307(7)
S5_26 S 0.16688(3) 0.27926(3) 0.40991(3)
S6_26 S 0.09009(3) 0.22074(3) 0.33312(3)
N1_13 N 0.92949(6) 0.32010(7) 0.40744(6)
C1_13 C 0.93644(8) 0.33466(8) 0.41517(8)
N2_13 N 0.97936(6) 0.36044(5) 0.38859(6)
C2_13 C 0.97506(8) 0.34372(8) 0.38498(8)
H1_13 H 0.9819 0.3375 0.3763
C3_13 C 0.96120(8) 0.33472(9) 0.39305(9)
H2_13 H 0.9583 0.3229 0.3896
C4_13 C 0.95176(8) 0.34304(8) 0.40605(7)
C5_13 C 0.95598(10) 0.36064(10) 0.41012(10)
H3_13 H 0.9495 0.3669 0.4190
C6_13 C 0.96978(10) 0.36880(11) 0.40097(10)
H4_13 H 0.9725 0.3809 0.4036
C7_22 C 0.99933(7) 0.35015(8) 0.34044(9)
S1_22 S 0.99680(4) 0.34255(4) 0.31999(3)
N11_13 N 0.92990(7) 0.34256(6) 0.42949(6)
N12_13 N 0.90744(6) 0.32051(6) 0.42990(7)
N13_10 N 0.92949(6) 0.42990(7) 0.34256(6)
N14_10 N 0.92990(7) 0.40744(6) 0.32051(6)
N15_10 N 0.90744(6) 0.42949(6) 0.32010(7)
C27_13 C 0.91534(8) 0.33483(8) 0.43644(8)
C28_13 C 0.91517(8) 0.31356(8) 0.41534(8)
C29_10 C 0.93644(8) 0.41534(8) 0.33483(8)
C30_10 C 0.91534(8) 0.41517(8) 0.31356(8)
C31_10 C 0.91517(8) 0.43644(8) 0.33466(8)
N16_13 N 0.88859(6) 0.27064(6) 0.38956(5)
N17_13 N 0.88956(5) 0.36141(6) 0.47936(6)
N18_10 N 0.97936(6) 0.38956(5) 0.36141(6)
N19_10 N 0.88859(6) 0.47936(6) 0.36044(5)
N20_10 N 0.88956(5) 0.38859(6) 0.27064(6)
C32_13 C 0.88498(8) 0.27494(8) 0.40628(8)
C33_13 C 0.90628(8) 0.36502(8) 0.47506(8)
C34_10 C 0.97506(8) 0.40628(8) 0.36502(8)
C35_10 C 0.88498(8) 0.47506(8) 0.34372(8)
C36_10 C 0.90628(8) 0.38498(8) 0.27494(8)
H17_13 H 0.8763 0.2681 0.4125
H18_13 H 0.9125 0.3737 0.4819
H19_10 H 0.9819 0.4125 0.3737
H20_10 H 0.8763 0.4819 0.3375
H21_10 H 0.9125 0.3763 0.2681
C37_13 C 0.89305(9) 0.28880(8) 0.41528(9)
C38_13 C 0.91528(9) 0.35695(9) 0.46120(8)
C39_10 C 0.96120(8) 0.41528(9) 0.35695(9)
C40_10 C 0.89305(9) 0.46120(8) 0.33472(9)
C41_10 C 0.91528(9) 0.39305(9) 0.28880(8)
H22_13 H 0.8896 0.2917 0.4271
H23_13 H 0.9271 0.3604 0.4583
H24_10 H 0.9583 0.4271 0.3604
H25_10 H 0.8896 0.4583 0.3229
H26_10 H 0.9271 0.3896 0.2917
C42_13 C 0.90605(7) 0.29824(8) 0.40696(8)
C43_13 C 0.90696(8) 0.34395(7) 0.45176(8)
C44_10 C 0.95176(8) 0.40696(8) 0.34395(7)
C45_10 C 0.90605(7) 0.45176(8) 0.34304(8)
C46_10 C 0.90696(8) 0.40605(7) 0.29824(8)
C47_13 C 0.91012(10) 0.29402(10) 0.38936(10)
C48_13 C 0.88936(10) 0.33988(10) 0.45598(10)
C49_10 C 0.95598(10) 0.38936(10) 0.33988(10)
C50_10 C 0.91012(10) 0.45598(10) 0.36064(10)
C51_10 C 0.88936(10) 0.41012(10) 0.29402(10)
H27_13 H 0.9190 0.3005 0.3831
H28_13 H 0.8831 0.3310 0.4495
H29_10 H 0.9495 0.3831 0.3310
H30_10 H 0.9190 0.4495 0.3669
H31_10 H 0.8831 0.4190 0.3005
C52_13 C 0.90097(10) 0.28022(10) 0.38120(11)
C53_13 C 0.88120(11) 0.34903(10) 0.46978(10)
C54_10 C 0.96978(10) 0.38120(11) 0.34903(10)
C55_10 C 0.90097(10) 0.46978(10) 0.36880(11)
C56_10 C 0.88120(11) 0.40097(10) 0.28022(10)
H32_13 H 0.9036 0.2775 0.3691
H33_13 H 0.8691 0.3464 0.4725
H34_10 H 0.9725 0.3691 0.3464
H35_10 H 0.9036 0.4725 0.3809
H36_10 H 0.8691 0.4036 0.2775
Co3_9 Co 0.8750 0.2496 0.375000(10)
Co4_7 Co 0.875000(10) 0.3750 0.5004
Co5_7 Co 0.8750 0.5004 0.375000(10)
Co6_8 Co 0.875000(10) 0.3750 0.2496
C57_22 C 0.99933(7) 0.39985(8) 0.40956(9)
S3_22 S 0.99680(4) 0.40745(4) 0.43001(3)
N1_14 N 0.82010(7) 0.40744(6) 0.42949(6)
C1_14 C 0.83466(8) 0.41517(8) 0.43644(8)
N2_14 N 0.86044(5) 0.38859(6) 0.47936(6)
C2_14 C 0.84372(8) 0.38498(8) 0.47506(8)
H1_14 H 0.8375 0.3763 0.4819
C3_14 C 0.83472(9) 0.39305(9) 0.46120(8)
H2_14 H 0.8229 0.3896 0.4583
C4_14 C 0.84304(8) 0.40605(7) 0.45176(8)
C5_14 C 0.86064(10) 0.41012(10) 0.45598(10)
H3_14 H 0.8669 0.4190 0.4495
C6_14 C 0.86880(11) 0.40097(10) 0.46978(10)
H4_14 H 0.8809 0.4036 0.4725
N3_23 N 0.85615(5) 0.35444(5) 0.50073(4)
C7_23 C 0.85015(8) 0.34044(9) 0.49933(7)
S1_23 S 0.84255(4) 0.31999(3) 0.49680(4)
N4_23 N 0.85979(5) 0.38852(5) 0.52097(5)
C8_23 C 0.84251(6) 0.38502(6) 0.52347(6)
H5_23 H 0.8368 0.3769 0.5156
C9_23 C 0.83250(6) 0.39262(6) 0.53688(6)
H6_23 H 0.8203 0.3896 0.5383
C10_23 C 0.84056(6) 0.40461(6) 0.54816(6)
C11_23 C 0.85858(7) 0.40892(7) 0.54543(7)
H7_23 H 0.8644 0.4176 0.5526
C12_23 C 0.86750(6) 0.40030(7) 0.53218(7)
H8_23 H 0.8799 0.4027 0.5307
C13_23 C 0.82859(6) 0.43473(6) 0.58354(6)
N5_23 N 0.83684(6) 0.42854(5) 0.56910(5)
C14_23 C 0.83110(6) 0.41264(6) 0.56340(6)
N6_23 N 0.81784(5) 0.40312(5) 0.57083(5)
C15_23 C 0.81035(6) 0.41096(7) 0.58505(6)
N7_23 N 0.81502(6) 0.42661(5) 0.59189(6)
N8_16 N 0.85247(5) 0.48042(5) 0.60679(5)
C16_23 C 0.85593(8) 0.47574(7) 0.58985(7)
H9_23 H 0.8644 0.4825 0.5833
C17_23 C 0.84772(7) 0.46149(7) 0.58161(7)
H10_23 H 0.8505 0.4585 0.5696
C18_23 C 0.83541(7) 0.45156(6) 0.59111(6)
C19_23 C 0.83102(6) 0.45699(7) 0.60818(7)
H11_23 H 0.8221 0.4509 0.6148
C20_23 C 0.83976(6) 0.47140(6) 0.61541(6)
H12_23 H 0.8366 0.4751 0.6271
N9_22 N 0.76951(5) 0.38307(5) 0.61329(5)
C21_23 C 0.77202(7) 0.40068(7) 0.61509(7)
H13_23 H 0.7643 0.4070 0.6229
C22_23 C 0.78498(7) 0.41007(7) 0.60638(7)
H14_23 H 0.7864 0.4225 0.6084
C23_23 C 0.79605(6) 0.40112(6) 0.59457(6)
C24_23 C 0.79304(7) 0.38291(7) 0.59172(7)
H15_23 H 0.7999 0.3765 0.5832
C25_23 C 0.77995(6) 0.37451(6) 0.60149(7)
H16_23 H 0.7782 0.3621 0.5998
Co2_19 Co 0.8696 0.500000(9) 0.619641(9)
N10_23 N 0.88938(5) 0.49652(5) 0.60058(5)
C26_23 C 0.89802(7) 0.48583(8) 0.59307(7)
S2_23 S 0.90991(3) 0.47074(3) 0.58312(3)
N11_14 N 0.84256(6) 0.42949(6) 0.42990(7)
N12_14 N 0.82051(6) 0.42990(7) 0.40744(6)
C27_14 C 0.83483(8) 0.43644(8) 0.41534(8)
C28_14 C 0.81356(8) 0.41534(8) 0.41517(8)
N16_14 N 0.77064(6) 0.38956(5) 0.38859(6)
N17_14 N 0.86141(6) 0.47936(6) 0.38956(5)
C32_14 C 0.77494(8) 0.40628(8) 0.38498(8)
C33_14 C 0.86502(8) 0.47506(8) 0.40628(8)
H17_14 H 0.7681 0.4125 0.3763
H18_14 H 0.8737 0.4819 0.4125
C37_14 C 0.78880(8) 0.41528(9) 0.39305(9)
C38_14 C 0.85695(9) 0.46120(8) 0.41528(9)
H22_14 H 0.7917 0.4271 0.3896
H23_14 H 0.8604 0.4583 0.4271
C42_14 C 0.79824(8) 0.40696(8) 0.40605(7)
C43_14 C 0.84395(7) 0.45176(8) 0.40696(8)
C47_14 C 0.79402(10) 0.38936(10) 0.41012(10)
C48_14 C 0.83988(10) 0.45598(10) 0.38936(10)
H27_14 H 0.8005 0.3831 0.4190
H28_14 H 0.8310 0.4495 0.3831
C52_14 C 0.78022(10) 0.38120(11) 0.40097(10)
C53_14 C 0.84903(10) 0.46978(10) 0.38120(11)
H32_14 H 0.7775 0.3691 0.4036
H33_14 H 0.8464 0.4725 0.3691
Co3_10 Co 0.7496 0.375000(10) 0.3750
N21_23 N 0.89385(5) 0.39556(5) 0.50073(4)
C57_23 C 0.89985(8) 0.40956(9) 0.49933(7)
S3_23 S 0.90745(4) 0.43001(3) 0.49680(4)
N22_23 N 0.89021(5) 0.36148(5) 0.52097(5)
C58_23 C 0.90749(6) 0.36498(6) 0.52347(6)
H37_23 H 0.9132 0.3731 0.5156
C59_23 C 0.91750(6) 0.35738(6) 0.53688(6)
H38_23 H 0.9297 0.3604 0.5383
C60_23 C 0.90944(6) 0.34539(6) 0.54816(6)
C61_23 C 0.89142(7) 0.34108(7) 0.54543(7)
H39_23 H 0.8856 0.3324 0.5526
C62_23 C 0.88250(6) 0.34970(7) 0.53218(7)
H40_23 H 0.8701 0.3473 0.5307
C63_23 C 0.92141(6) 0.31527(6) 0.58354(6)
N23_23 N 0.91316(6) 0.32146(5) 0.56910(5)
C64_23 C 0.91890(6) 0.33736(6) 0.56340(6)
N24_23 N 0.93216(5) 0.34688(5) 0.57083(5)
C65_23 C 0.93965(6) 0.33904(7) 0.58505(6)
N25_23 N 0.93498(6) 0.32339(5) 0.59189(6)
N26_19 N 0.89753(5) 0.26958(5) 0.60679(5)
N27_23 N 0.85679(5) 0.51958(5) 0.60247(5)
N28_27 N 0.76958(5) 0.35247(5) 0.64321(5)
N29_27 N 0.73042(5) 0.35679(5) 0.64753(5)
C66_23 C 0.89407(8) 0.27426(7) 0.58985(7)
H41_23 H 0.8856 0.2675 0.5833
C67_23 C 0.90228(7) 0.28851(7) 0.58161(7)
H42_23 H 0.8995 0.2915 0.5696
C68_23 C 0.91459(7) 0.29844(6) 0.59111(6)
C69_23 C 0.91898(6) 0.29301(7) 0.60818(7)
H43_23 H 0.9279 0.2991 0.6148
C70_23 C 0.91024(6) 0.27860(6) 0.61541(6)
H44_23 H 0.9134 0.2749 0.6271
N31_23 N 0.88307(5) 0.48049(5) 0.63671(5)
N32_23 N 0.88671(5) 0.51951(5) 0.63307(5)
N33_24 N 0.73049(5) 0.38671(5) 0.61693(5)
C71_23 C 0.97798(7) 0.34932(7) 0.61509(7)
H45_23 H 0.9857 0.3430 0.6229
C72_23 C 0.96502(7) 0.33993(7) 0.60638(7)
H46_23 H 0.9636 0.3275 0.6084
C73_23 C 0.95395(6) 0.34888(6) 0.59457(6)
C74_23 C 0.95696(7) 0.36709(7) 0.59172(7)
H47_23 H 0.9501 0.3735 0.5832
C75_23 C 0.97005(6) 0.37549(6) 0.60149(7)
H48_23 H 0.9718 0.3879 0.5998
Co7_19 Co 0.8804 0.250000(9) 0.619641(9)
Co8_27 Co 0.750000(9) 0.3696 0.630359(9)
N34_23 N 0.85058(5) 0.50348(5) 0.63938(5)
N35_27 N 0.75348(5) 0.38938(5) 0.64942(5)
N36_27 N 0.74652(5) 0.35058(5) 0.61062(5)
C76_23 C 0.84307(7) 0.51417(8) 0.64802(7)
C77_27 C 0.76417(8) 0.39802(7) 0.65693(7)
C78_27 C 0.73583(8) 0.34307(7) 0.60198(7)
S4_23 S 0.83312(3) 0.52926(3) 0.65991(3)
S5_27 S 0.77926(3) 0.40991(3) 0.66688(3)
S6_27 S 0.72074(3) 0.33312(3) 0.59009(3)
Co2_20 Co 0.000000(9) 0.619641(9) 0.3696
N27_24 N 0.01958(5) 0.60247(5) 0.35679(5)
N32_24 N 0.01951(5) 0.63307(5) 0.38671(5)
N34_24 N 0.00348(5) 0.63938(5) 0.35058(5)
C76_24 C 0.01417(8) 0.64802(7) 0.34307(7)
S4_24 S 0.02926(3) 0.65991(3) 0.33312(3)
N3_24 N 0.85444(5) 0.50073(4) 0.35615(5)
C7_24 C 0.84044(9) 0.49933(7) 0.35015(8)
S1_24 S 0.81999(3) 0.49680(4) 0.34255(4)
N4_24 N 0.88852(5) 0.52097(5) 0.35979(5)
C8_24 C 0.88502(6) 0.52347(6) 0.34251(6)
H5_24 H 0.8769 0.5156 0.3368
C9_24 C 0.89262(6) 0.53688(6) 0.33250(6)
H6_24 H 0.8896 0.5383 0.3203
C10_24 C 0.90461(6) 0.54816(6) 0.34056(6)
C11_24 C 0.90892(7) 0.54543(7) 0.35858(7)
H7_24 H 0.9176 0.5526 0.3644
C12_24 C 0.90030(7) 0.53218(7) 0.36750(6)
H8_24 H 0.9027 0.5307 0.3799
C13_24 C 0.93473(6) 0.58354(6) 0.32859(6)
N5_24 N 0.92854(5) 0.56910(5) 0.33684(6)
C14_24 C 0.91264(6) 0.56340(6) 0.33110(6)
N6_24 N 0.90312(5) 0.57083(5) 0.31784(5)
C15_24 C 0.91096(7) 0.58505(6) 0.31035(6)
N7_24 N 0.92661(5) 0.59189(6) 0.31502(6)
N8_17 N 0.98042(5) 0.60679(5) 0.35247(5)
C16_24 C 0.97574(7) 0.58985(7) 0.35593(8)
H9_24 H 0.9825 0.5833 0.3644
C17_24 C 0.96149(7) 0.58161(7) 0.34772(7)
H10_24 H 0.9585 0.5696 0.3505
C18_24 C 0.95156(6) 0.59111(6) 0.33541(7)
C19_24 C 0.95699(7) 0.60818(7) 0.33102(6)
H11_24 H 0.9509 0.6148 0.3221
C20_24 C 0.97140(6) 0.61541(6) 0.33976(6)
H12_24 H 0.9751 0.6271 0.3366
N9_23 N 0.88307(5) 0.61329(5) 0.26951(5)
C21_24 C 0.90068(7) 0.61509(7) 0.27202(7)
H13_24 H 0.9070 0.6229 0.2643
C22_24 C 0.91007(7) 0.60638(7) 0.28498(7)
H14_24 H 0.9225 0.6084 0.2864
C23_24 C 0.90112(6) 0.59457(6) 0.29605(6)
C24_24 C 0.88291(7) 0.59172(7) 0.29304(7)
H15_24 H 0.8765 0.5832 0.2999
C25_24 C 0.87451(6) 0.60149(7) 0.27995(6)
H16_24 H 0.8621 0.5998 0.2782
Co2_21 Co 1.000000(9) 0.619641(9) 0.3696
N10_24 N 0.99652(5) 0.60058(5) 0.38938(5)
C26_24 C 0.98583(8) 0.59307(7) 0.39802(7)
S2_24 S 0.97074(3) 0.58312(3) 0.40991(3)
N21_24 N 0.89556(5) 0.50073(4) 0.39385(5)
C57_24 C 0.90956(9) 0.49933(7) 0.39985(8)
S3_24 S 0.93001(3) 0.49680(4) 0.40745(4)
N22_24 N 0.86148(5) 0.52097(5) 0.39021(5)
C58_24 C 0.86498(6) 0.52347(6) 0.40749(6)
H37_24 H 0.8731 0.5156 0.4132
C59_24 C 0.85738(6) 0.53688(6) 0.41750(6)
H38_24 H 0.8604 0.5383 0.4297
C60_24 C 0.84539(6) 0.54816(6) 0.40944(6)
C61_24 C 0.84108(7) 0.54543(7) 0.39142(7)
H39_24 H 0.8324 0.5526 0.3856
C62_24 C 0.84970(7) 0.53218(7) 0.38250(6)
H40_24 H 0.8473 0.5307 0.3701
C63_24 C 0.81527(6) 0.58354(6) 0.42141(6)
N23_24 N 0.82146(5) 0.56910(5) 0.41316(6)
C64_24 C 0.83736(6) 0.56340(6) 0.41890(6)
N24_24 N 0.84688(5) 0.57083(5) 0.43216(5)
C65_24 C 0.83904(7) 0.58505(6) 0.43965(6)
N25_24 N 0.82339(5) 0.59189(6) 0.43498(6)
N28_28 N 0.85247(5) 0.64321(5) 0.26958(5)
N29_28 N 0.85679(5) 0.64753(5) 0.23042(5)
C66_24 C 0.77426(7) 0.58985(7) 0.39407(8)
H41_24 H 0.7675 0.5833 0.3856
C67_24 C 0.78851(7) 0.58161(7) 0.40228(7)
H42_24 H 0.7915 0.5696 0.3995
C68_24 C 0.79844(6) 0.59111(6) 0.41459(7)
C69_24 C 0.79301(7) 0.60818(7) 0.41898(6)
H43_24 H 0.7991 0.6148 0.4279
C70_24 C 0.77860(6) 0.61541(6) 0.41024(6)
H44_24 H 0.7749 0.6271 0.4134
N30_16 N 0.86693(5) 0.61329(5) 0.48049(5)
N31_24 N 0.98049(5) 0.63671(5) 0.38307(5)
N33_25 N 0.88671(5) 0.61693(5) 0.23049(5)
C71_24 C 0.84932(7) 0.61509(7) 0.47798(7)
H45_24 H 0.8430 0.6229 0.4857
C72_24 C 0.83993(7) 0.60638(7) 0.46502(7)
H46_24 H 0.8275 0.6084 0.4636
C73_24 C 0.84888(6) 0.59457(6) 0.45395(6)
C74_24 C 0.86709(7) 0.59172(7) 0.45696(7)
H47_24 H 0.8735 0.5832 0.4501
C75_24 C 0.87549(6) 0.60149(7) 0.47005(6)
H48_24 H 0.8879 0.5998 0.4718
Co8_28 Co 0.8696 0.630359(9) 0.250000(9)
Co9_17 Co 0.8804 0.630359(9) 0.500000(9)
N35_28 N 0.88938(5) 0.64942(5) 0.25348(5)
N36_28 N 0.85058(5) 0.61062(5) 0.24652(5)
C77_28 C 0.89802(7) 0.65693(7) 0.26417(8)
C78_28 C 0.84307(7) 0.60198(7) 0.23583(8)
S5_28 S 0.90991(3) 0.66688(3) 0.27926(3)
S6_28 S 0.83312(3) 0.59009(3) 0.22074(3)
N28_29 N 0.89753(5) 0.64321(5) 0.48042(5)
N29_29 N 0.89321(5) 0.64753(5) 0.51958(5)
N33_26 N 0.86329(5) 0.61693(5) 0.51951(5)
N35_29 N 0.86062(5) 0.64942(5) 0.49652(5)
N36_29 N 0.89942(5) 0.61062(5) 0.50348(5)
C77_29 C 0.85198(7) 0.65693(7) 0.48583(8)
C78_29 C 0.90693(7) 0.60198(7) 0.51417(8)
S5_29 S 0.84009(3) 0.66688(3) 0.47074(3)
S6_29 S 0.91688(3) 0.59009(3) 0.52926(3)
N3_25 N 0.10444(5) 0.10615(5) 0.49927(4)
C7_25 C 0.09044(9) 0.10015(8) 0.50067(7)
S1_25 S 0.06999(3) 0.09255(4) 0.50320(4)
N4_25 N 0.13852(5) 0.10979(5) 0.47903(5)
C8_25 C 0.13502(6) 0.09251(6) 0.47653(6)
H5_25 H 0.1269 0.0868 0.4844
C9_25 C 0.14262(6) 0.08250(6) 0.46312(6)
H6_25 H 0.1396 0.0703 0.4617
C10_25 C 0.15461(6) 0.09056(6) 0.45184(6)
C11_25 C 0.15892(7) 0.10858(7) 0.45457(7)
H7_25 H 0.1676 0.1144 0.4474
C12_25 C 0.15030(7) 0.11750(6) 0.46782(7)
H8_25 H 0.1527 0.1299 0.4693
C13_25 C 0.18473(6) 0.07859(6) 0.41646(6)
N5_25 N 0.17854(5) 0.08684(6) 0.43090(5)
C14_25 C 0.16264(6) 0.08110(6) 0.43660(6)
N6_25 N 0.15312(5) 0.06784(5) 0.42917(5)
C15_25 C 0.16096(7) 0.06035(6) 0.41495(6)
N7_25 N 0.17661(5) 0.06502(6) 0.40811(6)
C16_25 C 0.22574(7) 0.10593(8) 0.41015(7)
H9_25 H 0.2325 0.1144 0.4167
C17_25 C 0.21149(7) 0.09772(7) 0.41839(7)
H10_25 H 0.2085 0.1005 0.4304
C18_25 C 0.20156(6) 0.08541(7) 0.40889(6)
C19_25 C 0.20699(7) 0.08102(6) 0.39182(7)
H11_25 H 0.2009 0.0721 0.3852
C20_25 C 0.22140(6) 0.08976(6) 0.38459(6)
H12_25 H 0.2251 0.0866 0.3729
C21_25 C 0.15068(7) 0.02202(7) 0.38491(7)
H13_25 H 0.1570 0.0143 0.3771
C22_25 C 0.16007(7) 0.03498(7) 0.39362(7)
H14_25 H 0.1725 0.0364 0.3916
C23_25 C 0.15112(6) 0.04605(6) 0.40543(6)
C24_25 C 0.13291(7) 0.04304(7) 0.40828(7)
H15_25 H 0.1265 0.0499 0.4168
C25_25 C 0.12451(6) 0.02995(6) 0.39851(7)
H16_25 H 0.1121 0.0282 0.4002
N21_25 N 0.14556(5) 0.14385(5) 0.49927(4)
C57_25 C 0.15956(9) 0.14985(8) 0.50067(7)
S3_25 S 0.18001(3) 0.15745(4) 0.50320(4)
N22_25 N 0.11148(5) 0.14021(5) 0.47903(5)
C58_25 C 0.11498(6) 0.15749(6) 0.47653(6)
H37_25 H 0.1231 0.1632 0.4844
C59_25 C 0.10738(6) 0.16750(6) 0.46312(6)
H38_25 H 0.1104 0.1797 0.4617
C60_25 C 0.09539(6) 0.15944(6) 0.45184(6)
C61_25 C 0.09108(7) 0.14142(7) 0.45457(7)
H39_25 H 0.0824 0.1356 0.4474
C62_25 C 0.09970(7) 0.13250(6) 0.46782(7)
H40_25 H 0.0973 0.1201 0.4693
C63_25 C 0.06527(6) 0.17141(6) 0.41646(6)
N23_25 N 0.07146(5) 0.16316(6) 0.43090(5)
C64_25 C 0.08736(6) 0.16890(6) 0.43660(6)
N24_25 N 0.09688(5) 0.18216(5) 0.42917(5)
C65_25 C 0.08904(7) 0.18965(6) 0.41495(6)
N25_25 N 0.07339(5) 0.18498(6) 0.40811(6)
N26_20 N 0.01958(5) 0.14753(5) 0.39321(5)
C66_25 C 0.02426(7) 0.14407(8) 0.41015(7)
H41_25 H 0.0175 0.1356 0.4167
C67_25 C 0.03851(7) 0.15228(7) 0.41839(7)
H42_25 H 0.0415 0.1495 0.4304
C68_25 C 0.04844(6) 0.16459(7) 0.40889(6)
C69_25 C 0.04301(7) 0.16898(6) 0.39182(7)
H43_25 H 0.0491 0.1779 0.3852
C70_25 C 0.02860(6) 0.16024(6) 0.38459(6)
H44_25 H 0.0249 0.1634 0.3729
C71_25 C 0.09932(7) 0.22798(7) 0.38491(7)
H45_25 H 0.0930 0.2357 0.3771
C72_25 C 0.08993(7) 0.21502(7) 0.39362(7)
H46_25 H 0.0775 0.2136 0.3916
C73_25 C 0.09888(6) 0.20395(6) 0.40543(6)
C74_25 C 0.11709(7) 0.20696(7) 0.40828(7)
H47_25 H 0.1235 0.2001 0.4168
C75_25 C 0.12549(6) 0.22005(6) 0.39851(7)
H48_25 H 0.1379 0.2218 0.4002
Co7_20 Co -0.000000(9) 0.1304 0.380359(9)
Co7_21 Co 1.000000(9) 0.1304 0.380359(9)
N1_15 N 0.82010(7) 0.34256(6) 0.32051(6)
C1_15 C 0.83466(8) 0.33483(8) 0.31356(8)
N2_15 N 0.86044(5) 0.36141(6) 0.27064(6)
C2_15 C 0.84372(8) 0.36502(8) 0.27494(8)
H1_15 H 0.8375 0.3737 0.2681
C3_15 C 0.83472(9) 0.35695(9) 0.28880(8)
H2_15 H 0.8229 0.3604 0.2917
C4_15 C 0.84304(8) 0.34395(7) 0.29824(8)
C5_15 C 0.86064(10) 0.33988(10) 0.29402(10)
H3_15 H 0.8669 0.3310 0.3005
C6_15 C 0.86880(11) 0.34903(10) 0.28022(10)
H4_15 H 0.8809 0.3464 0.2775
N3_26 N 0.85615(5) 0.39556(5) 0.24927(4)
C7_26 C 0.85015(8) 0.40956(9) 0.25067(7)
S1_26 S 0.84255(4) 0.43001(3) 0.25320(4)
N4_26 N 0.85979(5) 0.36148(5) 0.22903(5)
C8_26 C 0.84251(6) 0.36498(6) 0.22653(6)
H5_26 H 0.8368 0.3731 0.2344
C9_26 C 0.83250(6) 0.35738(6) 0.21312(6)
H6_26 H 0.8203 0.3604 0.2117
C10_26 C 0.84056(6) 0.34539(6) 0.20184(6)
C11_26 C 0.85858(7) 0.34108(7) 0.20457(7)
H7_26 H 0.8644 0.3324 0.1974
C12_26 C 0.86750(6) 0.34970(7) 0.21782(7)
H8_26 H 0.8799 0.3473 0.2193
C13_26 C 0.82859(6) 0.31527(6) 0.16646(6)
N5_26 N 0.83684(6) 0.32146(5) 0.18090(5)
C14_26 C 0.83110(6) 0.33736(6) 0.18660(6)
N6_26 N 0.81784(5) 0.34688(5) 0.17917(5)
C15_26 C 0.81035(6) 0.33904(7) 0.16495(6)
N7_26 N 0.81502(6) 0.32339(5) 0.15811(6)
N8_18 N 0.85247(5) 0.26958(5) 0.14321(5)
C16_26 C 0.85593(8) 0.27426(7) 0.16015(7)
H9_26 H 0.8644 0.2675 0.1667
C17_26 C 0.84772(7) 0.28851(7) 0.16839(7)
H10_26 H 0.8505 0.2915 0.1804
C18_26 C 0.83541(7) 0.29844(6) 0.15889(6)
C19_26 C 0.83102(6) 0.29301(7) 0.14182(7)
H11_26 H 0.8221 0.2991 0.1352
C20_26 C 0.83976(6) 0.27860(6) 0.13459(6)
H12_26 H 0.8366 0.2749 0.1229
N9_24 N 0.76951(5) 0.36693(5) 0.13671(5)
C21_26 C 0.77202(7) 0.34932(7) 0.13491(7)
H13_26 H 0.7643 0.3430 0.1271
C22_26 C 0.78498(7) 0.33993(7) 0.14362(7)
H14_26 H 0.7864 0.3275 0.1416
C23_26 C 0.79605(6) 0.34888(6) 0.15543(6)
C24_26 C 0.79304(7) 0.36709(7) 0.15828(7)
H15_26 H 0.7999 0.3735 0.1668
C25_26 C 0.77995(6) 0.37549(6) 0.14851(7)
H16_26 H 0.7782 0.3879 0.1502
Co2_22 Co 0.8696 0.250000(9) 0.130359(9)
N10_25 N 0.88938(5) 0.25348(5) 0.14942(5)
C26_25 C 0.89802(7) 0.26417(8) 0.15693(7)
S2_25 S 0.90991(3) 0.27926(3) 0.16688(3)
N11_15 N 0.84256(6) 0.32051(6) 0.32010(7)
N12_15 N 0.82051(6) 0.32010(7) 0.34256(6)
C27_15 C 0.83483(8) 0.31356(8) 0.33466(8)
C28_15 C 0.81356(8) 0.33466(8) 0.33483(8)
N16_15 N 0.77064(6) 0.36044(5) 0.36141(6)
N17_15 N 0.86141(6) 0.27064(6) 0.36044(5)
C32_15 C 0.77494(8) 0.34372(8) 0.36502(8)
C33_15 C 0.86502(8) 0.27494(8) 0.34372(8)
H17_15 H 0.7681 0.3375 0.3737
H18_15 H 0.8737 0.2681 0.3375
C37_15 C 0.78880(8) 0.33472(9) 0.35695(9)
C38_15 C 0.85695(9) 0.28880(8) 0.33472(9)
H22_15 H 0.7917 0.3229 0.3604
H23_15 H 0.8604 0.2917 0.3229
C42_15 C 0.79824(8) 0.34304(8) 0.34395(7)
C43_15 C 0.84395(7) 0.29824(8) 0.34304(8)
C47_15 C 0.79402(10) 0.36064(10) 0.33988(10)
C48_15 C 0.83988(10) 0.29402(10) 0.36064(10)
H27_15 H 0.8005 0.3669 0.3310
H28_15 H 0.8310 0.3005 0.3669
C52_15 C 0.78022(10) 0.36880(11) 0.34903(10)
C53_15 C 0.84903(10) 0.28022(10) 0.36880(11)
H32_15 H 0.7775 0.3809 0.3464
H33_15 H 0.8464 0.2775 0.3809
N21_26 N 0.89385(5) 0.35444(5) 0.24927(4)
C57_26 C 0.89985(8) 0.34044(9) 0.25067(7)
S3_26 S 0.90745(4) 0.31999(3) 0.25320(4)
N22_26 N 0.89021(5) 0.38852(5) 0.22903(5)
C58_26 C 0.90749(6) 0.38502(6) 0.22653(6)
H37_26 H 0.9132 0.3769 0.2344
C59_26 C 0.91750(6) 0.39262(6) 0.21312(6)
H38_26 H 0.9297 0.3896 0.2117
C60_26 C 0.90944(6) 0.40461(6) 0.20184(6)
C61_26 C 0.89142(7) 0.40892(7) 0.20457(7)
H39_26 H 0.8856 0.4176 0.1974
C62_26 C 0.88250(6) 0.40030(7) 0.21782(7)
H40_26 H 0.8701 0.4027 0.2193
C63_26 C 0.92141(6) 0.43473(6) 0.16646(6)
N23_26 N 0.91316(6) 0.42854(5) 0.18090(5)
C64_26 C 0.91890(6) 0.41264(6) 0.18660(6)
N24_26 N 0.93216(5) 0.40312(5) 0.17917(5)
C65_26 C 0.93965(6) 0.41096(7) 0.16495(6)
N25_26 N 0.93498(6) 0.42661(5) 0.15811(6)
N26_21 N 0.89753(5) 0.48042(5) 0.14321(5)
N27_25 N 0.85679(5) 0.23042(5) 0.14753(5)
N28_30 N 0.76958(5) 0.39753(5) 0.10679(5)
N29_30 N 0.73042(5) 0.39321(5) 0.10247(5)
C66_26 C 0.89407(8) 0.47574(7) 0.16015(7)
H41_26 H 0.8856 0.4825 0.1667
C67_26 C 0.90228(7) 0.46149(7) 0.16839(7)
H42_26 H 0.8995 0.4585 0.1804
C68_26 C 0.91459(7) 0.45156(6) 0.15889(6)
C69_26 C 0.91898(6) 0.45699(7) 0.14182(7)
H43_26 H 0.9279 0.4509 0.1352
C70_26 C 0.91024(6) 0.47140(6) 0.13459(6)
H44_26 H 0.9134 0.4751 0.1229
N31_25 N 0.88307(5) 0.26951(5) 0.11329(5)
N32_25 N 0.88671(5) 0.23049(5) 0.11693(5)
C71_26 C 0.97798(7) 0.40068(7) 0.13491(7)
H45_26 H 0.9857 0.4070 0.1271
C72_26 C 0.96502(7) 0.41007(7) 0.14362(7)
H46_26 H 0.9636 0.4225 0.1416
C73_26 C 0.95395(6) 0.40112(6) 0.15543(6)
C74_26 C 0.95696(7) 0.38291(7) 0.15828(7)
H47_26 H 0.9501 0.3765 0.1668
C75_26 C 0.97005(6) 0.37451(6) 0.14851(7)
H48_26 H 0.9718 0.3621 0.1502
Co7_22 Co 0.8804 0.500000(9) 0.130359(9)
N34_25 N 0.85058(5) 0.24652(5) 0.11062(5)
N35_30 N 0.75348(5) 0.36062(5) 0.10058(5)
N36_30 N 0.74652(5) 0.39942(5) 0.13938(5)
C76_25 C 0.84307(7) 0.23583(8) 0.10198(7)
C77_30 C 0.76417(8) 0.35198(7) 0.09307(7)
C78_30 C 0.73583(8) 0.40693(7) 0.14802(7)
S4_25 S 0.83312(3) 0.22074(3) 0.09009(3)
S5_30 S 0.77926(3) 0.34009(3) 0.08312(3)
S6_30 S 0.72074(3) 0.41688(3) 0.15991(3)
N1_16 N 0.67949(6) 0.65744(6) 0.67990(7)
C1_16 C 0.68644(8) 0.66517(8) 0.66534(8)
N2_16 N 0.72936(6) 0.63859(6) 0.63956(5)
C2_16 C 0.72506(8) 0.63498(8) 0.65628(8)
H1_16 H 0.7319 0.6263 0.6625
C3_16 C 0.71120(8) 0.64305(9) 0.66528(9)
H2_16 H 0.7083 0.6396 0.6771
C4_16 C 0.70176(8) 0.65605(7) 0.65696(8)
C5_16 C 0.70598(10) 0.66012(10) 0.63936(10)
H3_16 H 0.6995 0.6690 0.6331
C6_16 C 0.71978(10) 0.65097(10) 0.63120(11)
H4_16 H 0.7225 0.6536 0.6191
N3_27 N 0.75073(4) 0.60444(5) 0.64385(5)
C7_27 C 0.74933(7) 0.59044(9) 0.64985(8)
S1_27 S 0.74680(4) 0.56999(3) 0.65745(4)
N4_27 N 0.77097(5) 0.63852(5) 0.64021(5)
C8_27 C 0.77347(6) 0.63502(6) 0.65749(6)
H5_27 H 0.7656 0.6269 0.6632
C9_27 C 0.78688(6) 0.64262(6) 0.66750(6)
H6_27 H 0.7883 0.6396 0.6797
C10_27 C 0.79816(6) 0.65461(6) 0.65944(6)
C11_27 C 0.79543(7) 0.65892(7) 0.64142(7)
H7_27 H 0.8026 0.6676 0.6356
C12_27 C 0.78218(7) 0.65030(7) 0.63250(6)
H8_27 H 0.7807 0.6527 0.6201
C13_27 C 0.83354(6) 0.68473(6) 0.67141(6)
N5_27 N 0.81910(5) 0.67854(5) 0.66316(6)
C14_27 C 0.81340(6) 0.66264(6) 0.66890(6)
N6_27 N 0.82083(5) 0.65312(5) 0.68216(5)
C15_27 C 0.83505(6) 0.66096(7) 0.68965(6)
N7_27 N 0.84189(6) 0.67661(5) 0.68498(6)
N8_19 N 0.85679(5) 0.73042(5) 0.64753(5)
C16_27 C 0.83985(7) 0.72574(7) 0.64407(8)
H9_27 H 0.8333 0.7325 0.6356
C17_27 C 0.83161(7) 0.71149(7) 0.65228(7)
H10_27 H 0.8196 0.7085 0.6495
C18_27 C 0.84111(6) 0.70156(6) 0.66459(7)
C19_27 C 0.85818(7) 0.70699(7) 0.66898(6)
H11_27 H 0.8648 0.7009 0.6779
C20_27 C 0.86541(6) 0.72140(6) 0.66024(6)
H12_27 H 0.8771 0.7251 0.6634
N9_25 N 0.86329(5) 0.63307(5) 0.73049(5)
C21_27 C 0.86509(7) 0.65068(7) 0.72798(7)
H13_27 H 0.8729 0.6570 0.7357
C22_27 C 0.85638(7) 0.66007(7) 0.71502(7)
H14_27 H 0.8584 0.6725 0.7136
C23_27 C 0.84457(6) 0.65112(6) 0.70395(6)
C24_27 C 0.84172(7) 0.63291(7) 0.70696(7)
H15_27 H 0.8332 0.6265 0.7001
C25_27 C 0.85149(7) 0.62451(6) 0.72005(6)
H16_27 H 0.8498 0.6121 0.7218
Co2_23 Co 0.869641(9) 0.750000(9) 0.6304
N10_26 N 0.85058(5) 0.74652(5) 0.61062(5)
C26_26 C 0.84307(7) 0.73583(8) 0.60198(7)
S2_26 S 0.83312(3) 0.72074(3) 0.59009(3)
N11_16 N 0.67990(7) 0.67949(6) 0.65744(6)
N12_16 N 0.65744(6) 0.67990(7) 0.67949(6)
C27_16 C 0.66534(8) 0.68644(8) 0.66517(8)
C28_16 C 0.66517(8) 0.66534(8) 0.68644(8)
N16_16 N 0.63859(6) 0.63956(5) 0.72936(6)
N17_16 N 0.63956(5) 0.72936(6) 0.63859(6)
C32_16 C 0.63498(8) 0.65628(8) 0.72506(8)
C33_16 C 0.65628(8) 0.72506(8) 0.63498(8)
H17_16 H 0.6263 0.6625 0.7319
H18_16 H 0.6625 0.7319 0.6263
C37_16 C 0.64305(9) 0.66528(9) 0.71120(8)
C38_16 C 0.66528(9) 0.71120(8) 0.64305(9)
H22_16 H 0.6396 0.6771 0.7083
H23_16 H 0.6771 0.7083 0.6396
C42_16 C 0.65605(7) 0.65696(8) 0.70176(8)
C43_16 C 0.65696(8) 0.70176(8) 0.65605(7)
C47_16 C 0.66012(10) 0.63936(10) 0.70598(10)
C48_16 C 0.63936(10) 0.70598(10) 0.66012(10)
H27_16 H 0.6690 0.6331 0.6995
H28_16 H 0.6331 0.6995 0.6690
C52_16 C 0.65097(10) 0.63120(11) 0.71978(10)
C53_16 C 0.63120(11) 0.71978(10) 0.65097(10)
H32_16 H 0.6536 0.6191 0.7225
H33_16 H 0.6191 0.7225 0.6536
Co3_11 Co 0.6250 0.625000(10) 0.7504
N21_27 N 0.75073(4) 0.64556(5) 0.60615(5)
C57_27 C 0.74933(7) 0.65956(9) 0.60015(8)
S3_27 S 0.74680(4) 0.68001(3) 0.59255(4)
N22_27 N 0.77097(5) 0.61148(5) 0.60979(5)
C58_27 C 0.77347(6) 0.61498(6) 0.59251(6)
H37_27 H 0.7656 0.6231 0.5868
C59_27 C 0.78688(6) 0.60738(6) 0.58250(6)
H38_27 H 0.7883 0.6104 0.5703
C60_27 C 0.79816(6) 0.59539(6) 0.59056(6)
C61_27 C 0.79543(7) 0.59108(7) 0.60858(7)
H39_27 H 0.8026 0.5824 0.6144
C62_27 C 0.78218(7) 0.59970(7) 0.61750(6)
H40_27 H 0.7807 0.5973 0.6299
C63_27 C 0.83354(6) 0.56527(6) 0.57859(6)
N23_27 N 0.81910(5) 0.57146(5) 0.58684(6)
C64_27 C 0.81340(6) 0.58736(6) 0.58110(6)
N24_27 N 0.82083(5) 0.59688(5) 0.56784(5)
C65_27 C 0.83505(6) 0.58904(7) 0.56035(6)
N25_27 N 0.84189(6) 0.57339(5) 0.56502(6)
N27_26 N 0.85247(5) 0.76958(5) 0.64321(5)
N28_31 N 0.89321(5) 0.60247(5) 0.73042(5)
N29_31 N 0.89753(5) 0.60679(5) 0.76958(5)
C66_27 C 0.83985(7) 0.52426(7) 0.60593(8)
H41_27 H 0.8333 0.5175 0.6144
C67_27 C 0.83161(7) 0.53851(7) 0.59772(7)
H42_27 H 0.8196 0.5415 0.6005
C68_27 C 0.84111(6) 0.54844(6) 0.58541(7)
C69_27 C 0.85818(7) 0.54301(7) 0.58102(6)
H43_27 H 0.8648 0.5491 0.5721
C70_27 C 0.86541(6) 0.52860(6) 0.58976(6)
H44_27 H 0.8771 0.5249 0.5866
N31_26 N 0.88671(5) 0.73049(5) 0.61693(5)
N32_26 N 0.88307(5) 0.76951(5) 0.61329(5)
N33_27 N 0.86693(5) 0.63671(5) 0.76951(5)
C71_27 C 0.86509(7) 0.59932(7) 0.52202(7)
H45_27 H 0.8729 0.5930 0.5143
C72_27 C 0.85638(7) 0.58993(7) 0.53498(7)
H46_27 H 0.8584 0.5775 0.5364
C73_27 C 0.84457(6) 0.59888(6) 0.54605(6)
C74_27 C 0.84172(7) 0.61709(7) 0.54304(7)
H47_27 H 0.8332 0.6235 0.5499
C75_27 C 0.85149(7) 0.62549(6) 0.52995(6)
H48_27 H 0.8498 0.6379 0.5282
Co8_29 Co 0.880359(9) 0.6196 0.750000(9)
N34_26 N 0.88938(5) 0.75348(5) 0.64942(5)
N35_31 N 0.89942(5) 0.63938(5) 0.74652(5)
N36_31 N 0.86062(5) 0.60058(5) 0.75348(5)
C76_26 C 0.89802(7) 0.76417(8) 0.65693(7)
C77_31 C 0.90693(7) 0.64802(7) 0.73583(8)
C78_31 C 0.85198(7) 0.59307(7) 0.76417(8)
S4_26 S 0.90991(3) 0.77926(3) 0.66688(3)
S5_31 S 0.91688(3) 0.65991(3) 0.72074(3)
S6_31 S 0.84009(3) 0.58312(3) 0.77926(3)
N29_32 N 0.14753(5) 0.01958(5) 0.89321(5)
N33_28 N 0.11693(5) 0.01951(5) 0.86329(5)
Co8_30 Co 0.130359(9) 0.000000(9) 0.8804
N36_32 N 0.11062(5) 0.00348(5) 0.89942(5)
C78_32 C 0.10198(7) 0.01417(8) 0.90693(7)
S6_32 S 0.09009(3) 0.02926(3) 0.91688(3)
Co1_10 Co 0.0004 0.875000(10) 0.8750
N3_28 N 0.00073(4) 0.89385(5) 0.89556(5)
N4_28 N 0.02097(5) 0.89021(5) 0.86148(5)
C8_28 C 0.02347(6) 0.90749(6) 0.86498(6)
H5_28 H 0.0156 0.9132 0.8731
C9_28 C 0.03688(6) 0.91750(6) 0.85738(6)
H6_28 H 0.0383 0.9297 0.8604
C10_28 C 0.04816(6) 0.90944(6) 0.84539(6)
C11_28 C 0.04543(7) 0.89142(7) 0.84108(7)
H7_28 H 0.0526 0.8856 0.8324
C12_28 C 0.03218(7) 0.88250(6) 0.84970(7)
H8_28 H 0.0307 0.8701 0.8473
C13_28 C 0.08354(6) 0.92141(6) 0.81527(6)
N5_28 N 0.06910(5) 0.91316(6) 0.82146(5)
C14_28 C 0.06340(6) 0.91890(6) 0.83736(6)
N6_28 N 0.07083(5) 0.93216(5) 0.84688(5)
C15_28 C 0.08505(6) 0.93965(6) 0.83904(7)
N7_28 N 0.09189(6) 0.93498(6) 0.82339(5)
C16_28 C 0.08985(7) 0.89407(8) 0.77426(7)
H9_28 H 0.0833 0.8856 0.7675
C17_28 C 0.08161(7) 0.90228(7) 0.78851(7)
H10_28 H 0.0696 0.8995 0.7915
C18_28 C 0.09111(6) 0.91459(7) 0.79844(6)
C19_28 C 0.10818(7) 0.91898(6) 0.79301(7)
H11_28 H 0.1148 0.9279 0.7991
C20_28 C 0.11541(6) 0.91024(6) 0.77860(6)
H12_28 H 0.1271 0.9134 0.7749
N9_26 N 0.11329(5) 0.98049(5) 0.86693(5)
C21_28 C 0.11509(7) 0.97798(7) 0.84932(7)
H13_28 H 0.1229 0.9857 0.8430
C22_28 C 0.10638(7) 0.96502(7) 0.83993(7)
H14_28 H 0.1084 0.9636 0.8275
C23_28 C 0.09457(6) 0.95395(6) 0.84888(6)
C24_28 C 0.09172(7) 0.95696(7) 0.86709(7)
H15_28 H 0.0832 0.9501 0.8735
C25_28 C 0.10149(7) 0.97005(6) 0.87549(6)
H16_28 H 0.0998 0.9718 0.8879
N21_28 N 0.00073(4) 0.85615(5) 0.85444(5)
N22_28 N 0.02097(5) 0.85979(5) 0.88852(5)
C58_28 C 0.02347(6) 0.84251(6) 0.88502(6)
H37_28 H 0.0156 0.8368 0.8769
C59_28 C 0.03688(6) 0.83250(6) 0.89262(6)
H38_28 H 0.0383 0.8203 0.8896
C60_28 C 0.04816(6) 0.84056(6) 0.90461(6)
C61_28 C 0.04543(7) 0.85858(7) 0.90892(7)
H39_28 H 0.0526 0.8644 0.9176
C62_28 C 0.03218(7) 0.86750(6) 0.90030(7)
H40_28 H 0.0307 0.8799 0.9027
C63_28 C 0.08354(6) 0.82859(6) 0.93473(6)
N23_28 N 0.06910(5) 0.83684(6) 0.92854(5)
C64_28 C 0.06340(6) 0.83110(6) 0.91264(6)
N24_28 N 0.07083(5) 0.81784(5) 0.90312(5)
C65_28 C 0.08505(6) 0.81035(6) 0.91096(7)
N25_28 N 0.09189(6) 0.81502(6) 0.92661(5)
N28_32 N 0.14321(5) 0.98042(5) 0.89753(5)
C66_28 C 0.08985(7) 0.85593(8) 0.97574(7)
H41_28 H 0.0833 0.8644 0.9825
C67_28 C 0.08161(7) 0.84772(7) 0.96149(7)
H42_28 H 0.0696 0.8505 0.9585
C68_28 C 0.09111(6) 0.83541(7) 0.95156(6)
C69_28 C 0.10818(7) 0.83102(6) 0.95699(7)
H43_28 H 0.1148 0.8221 0.9509
C70_28 C 0.11541(6) 0.83976(6) 0.97140(6)
H44_28 H 0.1271 0.8366 0.9751
N30_17 N 0.11329(5) 0.76951(5) 0.88307(5)
C71_28 C 0.11509(7) 0.77202(7) 0.90068(7)
H45_28 H 0.1229 0.7643 0.9070
C72_28 C 0.10638(7) 0.78498(7) 0.91007(7)
H46_28 H 0.1084 0.7864 0.9225
C73_28 C 0.09457(6) 0.79605(6) 0.90112(6)
C74_28 C 0.09172(7) 0.79304(7) 0.88291(7)
H47_28 H 0.0832 0.7999 0.8765
C75_28 C 0.10149(7) 0.77995(6) 0.87451(6)
H48_28 H 0.0998 0.7782 0.8621
Co8_31 Co 0.130359(9) 1.000000(9) 0.8804
Co9_18 Co 0.130359(9) 0.750000(9) 0.8696
N35_32 N 0.14942(5) 0.99652(5) 0.86062(5)
C77_32 C 0.15693(7) 0.98583(8) 0.85198(7)
S5_32 S 0.16688(3) 0.97074(3) 0.84009(3)
Co3_12 Co 0.8750 0.0004 0.875000(10)
Co6_9 Co 0.875000(10) 0.8750 0.0004
N1_17 N 0.92949(6) 0.92990(7) 0.84256(6)
C1_17 C 0.93644(8) 0.91534(8) 0.83483(8)
N2_17 N 0.97936(6) 0.88956(5) 0.86141(6)
C2_17 C 0.97506(8) 0.90628(8) 0.86502(8)
H1_17 H 0.9819 0.9125 0.8737
C3_17 C 0.96120(8) 0.91528(9) 0.85695(9)
H2_17 H 0.9583 0.9271 0.8604
C4_17 C 0.95176(8) 0.90696(8) 0.84395(7)
C5_17 C 0.95598(10) 0.88936(10) 0.83988(10)
H3_17 H 0.9495 0.8831 0.8310
C6_17 C 0.96978(10) 0.88120(11) 0.84903(10)
H4_17 H 0.9725 0.8691 0.8464
C7_28 C 0.99933(7) 0.89985(8) 0.90956(9)
S1_28 S 0.99680(4) 0.90745(4) 0.93001(3)
N11_17 N 0.92990(7) 0.90744(6) 0.82051(6)
N12_17 N 0.90744(6) 0.92949(6) 0.82010(7)
N13_11 N 0.92949(6) 0.82010(7) 0.90744(6)
N14_11 N 0.92990(7) 0.84256(6) 0.92949(6)
N15_11 N 0.90744(6) 0.82051(6) 0.92990(7)
C27_17 C 0.91534(8) 0.91517(8) 0.81356(8)
C28_17 C 0.91517(8) 0.93644(8) 0.83466(8)
C29_11 C 0.93644(8) 0.83466(8) 0.91517(8)
C30_11 C 0.91534(8) 0.83483(8) 0.93644(8)
C31_11 C 0.91517(8) 0.81356(8) 0.91534(8)
N16_17 N 0.88859(6) 0.97936(6) 0.86044(5)
N17_17 N 0.88956(5) 0.88859(6) 0.77064(6)
N18_11 N 0.97936(6) 0.86044(5) 0.88859(6)
N19_11 N 0.88859(6) 0.77064(6) 0.88956(5)
N20_11 N 0.88956(5) 0.86141(6) 0.97936(6)
C32_17 C 0.88498(8) 0.97506(8) 0.84372(8)
C33_17 C 0.90628(8) 0.88498(8) 0.77494(8)
C34_11 C 0.97506(8) 0.84372(8) 0.88498(8)
C35_11 C 0.88498(8) 0.77494(8) 0.90628(8)
C36_11 C 0.90628(8) 0.86502(8) 0.97506(8)
H17_17 H 0.8763 0.9819 0.8375
H18_17 H 0.9125 0.8763 0.7681
H19_11 H 0.9819 0.8375 0.8763
H20_11 H 0.8763 0.7681 0.9125
H21_11 H 0.9125 0.8737 0.9819
C37_17 C 0.89305(9) 0.96120(8) 0.83472(9)
C38_17 C 0.91528(9) 0.89305(9) 0.78880(8)
C39_11 C 0.96120(8) 0.83472(9) 0.89305(9)
C40_11 C 0.89305(9) 0.78880(8) 0.91528(9)
C41_11 C 0.91528(9) 0.85695(9) 0.96120(8)
H22_17 H 0.8896 0.9583 0.8229
H23_17 H 0.9271 0.8896 0.7917
H24_11 H 0.9583 0.8229 0.8896
H25_11 H 0.8896 0.7917 0.9271
H26_11 H 0.9271 0.8604 0.9583
C42_17 C 0.90605(7) 0.95176(8) 0.84304(8)
C43_17 C 0.90696(8) 0.90605(7) 0.79824(8)
C44_11 C 0.95176(8) 0.84304(8) 0.90605(7)
C45_11 C 0.90605(7) 0.79824(8) 0.90696(8)
C46_11 C 0.90696(8) 0.84395(7) 0.95176(8)
C47_17 C 0.91012(10) 0.95598(10) 0.86064(10)
C48_17 C 0.88936(10) 0.91012(10) 0.79402(10)
C49_11 C 0.95598(10) 0.86064(10) 0.91012(10)
C50_11 C 0.91012(10) 0.79402(10) 0.88936(10)
C51_11 C 0.88936(10) 0.83988(10) 0.95598(10)
H27_17 H 0.9190 0.9495 0.8669
H28_17 H 0.8831 0.9190 0.8005
H29_11 H 0.9495 0.8669 0.9190
H30_11 H 0.9190 0.8005 0.8831
H31_11 H 0.8831 0.8310 0.9495
C52_17 C 0.90097(10) 0.96978(10) 0.86880(11)
C53_17 C 0.88120(11) 0.90097(10) 0.78022(10)
C54_11 C 0.96978(10) 0.86880(11) 0.90097(10)
C55_11 C 0.90097(10) 0.78022(10) 0.88120(11)
C56_11 C 0.88120(11) 0.84903(10) 0.96978(10)
H32_17 H 0.9036 0.9725 0.8809
H33_17 H 0.8691 0.9036 0.7775
H34_11 H 0.9725 0.8809 0.9036
H35_11 H 0.9036 0.7775 0.8691
H36_11 H 0.8691 0.8464 0.9725
Co4_8 Co 0.875000(10) 0.8750 0.7496
Co5_8 Co 0.8750 0.7496 0.875000(10)
C57_28 C 0.99933(7) 0.85015(8) 0.84044(9)
S3_28 S 0.99680(4) 0.84255(4) 0.81999(3)
N1_18 N 0.57010(7) 0.07051(6) 0.15744(6)
C1_18 C 0.58466(8) 0.06356(8) 0.16517(8)
N2_18 N 0.61044(5) 0.02064(6) 0.13859(6)
C2_18 C 0.59372(8) 0.02494(8) 0.13498(8)
H1_18 H 0.5875 0.0181 0.1263
C3_18 C 0.58472(9) 0.03880(8) 0.14305(9)
H2_18 H 0.5729 0.0417 0.1396
C4_18 C 0.59304(8) 0.04824(8) 0.15605(7)
C5_18 C 0.61064(10) 0.04402(10) 0.16012(10)
H3_18 H 0.6169 0.0505 0.1690
C6_18 C 0.61880(11) 0.03022(10) 0.15097(10)
H4_18 H 0.6309 0.0275 0.1536
C7_29 C 0.60015(8) 0.00067(7) 0.09044(9)
S1_29 S 0.59255(4) 0.00320(4) 0.06999(3)
N11_18 N 0.59256(6) 0.07010(7) 0.17949(6)
N12_18 N 0.57051(6) 0.09256(6) 0.17990(7)
C27_18 C 0.58483(8) 0.08466(8) 0.18644(8)
C28_18 C 0.56356(8) 0.08483(8) 0.16534(8)
N16_18 N 0.52064(6) 0.11141(6) 0.13956(5)
N17_18 N 0.61141(6) 0.11044(5) 0.22936(6)
C32_18 C 0.52494(8) 0.11502(8) 0.15628(8)
C33_18 C 0.61502(8) 0.09372(8) 0.22506(8)
H17_18 H 0.5181 0.1237 0.1625
H18_18 H 0.6237 0.0875 0.2319
C37_18 C 0.53880(8) 0.10695(9) 0.16528(9)
C38_18 C 0.60695(9) 0.08472(9) 0.21120(8)
H22_18 H 0.5417 0.1104 0.1771
H23_18 H 0.6104 0.0729 0.2083
C42_18 C 0.54824(8) 0.09395(7) 0.15696(8)
C43_18 C 0.59395(7) 0.09304(8) 0.20176(8)
C47_18 C 0.54402(10) 0.08988(10) 0.13936(10)
C48_18 C 0.58988(10) 0.11064(10) 0.20598(10)
H27_18 H 0.5505 0.0810 0.1331
H28_18 H 0.5810 0.1169 0.1995
C52_18 C 0.53022(10) 0.09903(10) 0.13120(11)
C53_18 C 0.59903(10) 0.11880(11) 0.21978(10)
H32_18 H 0.5275 0.0964 0.1191
H33_18 H 0.5964 0.1309 0.2225
C57_29 C 0.64985(8) 0.00067(7) 0.15956(9)
S3_29 S 0.65745(4) 0.00320(4) 0.18001(3)
N3_29 N 0.60615(5) 0.99927(4) 0.10444(5)
N4_29 N 0.60979(5) 0.97903(5) 0.13852(5)
C8_29 C 0.59251(6) 0.97653(6) 0.13502(6)
H5_29 H 0.5868 0.9844 0.1269
C9_29 C 0.58250(6) 0.96312(6) 0.14262(6)
H6_29 H 0.5703 0.9617 0.1396
C10_29 C 0.59056(6) 0.95184(6) 0.15461(6)
C11_29 C 0.60858(7) 0.95457(7) 0.15892(7)
H7_29 H 0.6144 0.9474 0.1676
C12_29 C 0.61750(6) 0.96782(7) 0.15030(7)
H8_29 H 0.6299 0.9693 0.1527
C13_29 C 0.57859(6) 0.91646(6) 0.18473(6)
N5_29 N 0.58684(6) 0.93090(5) 0.17854(5)
C14_29 C 0.58110(6) 0.93660(6) 0.16264(6)
N6_29 N 0.56784(5) 0.92917(5) 0.15312(5)
C15_29 C 0.56035(6) 0.91495(6) 0.16096(7)
N7_29 N 0.56502(6) 0.90811(6) 0.17661(5)
C16_29 C 0.60593(8) 0.91015(7) 0.22574(7)
H9_29 H 0.6144 0.9167 0.2325
C17_29 C 0.59772(7) 0.91839(7) 0.21149(7)
H10_29 H 0.6005 0.9304 0.2085
C18_29 C 0.58541(7) 0.90889(6) 0.20156(6)
C19_29 C 0.58102(6) 0.89182(7) 0.20699(7)
H11_29 H 0.5721 0.8852 0.2009
C20_29 C 0.58976(6) 0.88459(6) 0.22140(6)
H12_29 H 0.5866 0.8729 0.2251
N9_27 N 0.51951(5) 0.88671(5) 0.13307(5)
C21_29 C 0.52202(7) 0.88491(7) 0.15068(7)
H13_29 H 0.5143 0.8771 0.1570
C22_29 C 0.53498(7) 0.89362(7) 0.16007(7)
H14_29 H 0.5364 0.8916 0.1725
C23_29 C 0.54605(6) 0.90543(6) 0.15112(6)
C24_29 C 0.54304(7) 0.90828(7) 0.13291(7)
H15_29 H 0.5499 0.9168 0.1265
C25_29 C 0.52995(6) 0.89851(7) 0.12451(6)
H16_29 H 0.5282 0.9002 0.1121
N21_29 N 0.64385(5) 0.99927(4) 0.14556(5)
N22_29 N 0.64021(5) 0.97903(5) 0.11148(5)
C58_29 C 0.65749(6) 0.97653(6) 0.11498(6)
H37_29 H 0.6632 0.9844 0.1231
C59_29 C 0.66750(6) 0.96312(6) 0.10738(6)
H38_29 H 0.6797 0.9617 0.1104
C60_29 C 0.65944(6) 0.95184(6) 0.09539(6)
C61_29 C 0.64142(7) 0.95457(7) 0.09108(7)
H39_29 H 0.6356 0.9474 0.0824
C62_29 C 0.63250(6) 0.96782(7) 0.09970(7)
H40_29 H 0.6201 0.9693 0.0973
C63_29 C 0.67141(6) 0.91646(6) 0.06527(6)
N23_29 N 0.66316(6) 0.93090(5) 0.07146(5)
C64_29 C 0.66890(6) 0.93660(6) 0.08736(6)
N24_29 N 0.68216(5) 0.92917(5) 0.09688(5)
C65_29 C 0.68965(6) 0.91495(6) 0.08904(7)
N25_29 N 0.68498(6) 0.90811(6) 0.07339(5)
N26_22 N 0.64753(5) 0.89321(5) 0.01958(5)
N28_33 N 0.51958(5) 0.85679(5) 0.10247(5)
N29_33 N 0.48042(5) 0.85247(5) 0.10679(5)
C66_29 C 0.64407(8) 0.91015(7) 0.02426(7)
H41_29 H 0.6356 0.9167 0.0175
C67_29 C 0.65228(7) 0.91839(7) 0.03851(7)
H42_29 H 0.6495 0.9304 0.0415
C68_29 C 0.66459(7) 0.90889(6) 0.04844(6)
C69_29 C 0.66898(6) 0.89182(7) 0.04301(7)
H43_29 H 0.6779 0.8852 0.0491
C70_29 C 0.66024(6) 0.88459(6) 0.02860(6)
H44_29 H 0.6634 0.8729 0.0249
N30_18 N 0.73049(5) 0.88671(5) 0.11693(5)
C71_29 C 0.72798(7) 0.88491(7) 0.09932(7)
H45_29 H 0.7357 0.8771 0.0930
C72_29 C 0.71502(7) 0.89362(7) 0.08993(7)
H46_29 H 0.7136 0.8916 0.0775
C73_29 C 0.70395(6) 0.90543(6) 0.09888(6)
C74_29 C 0.70696(7) 0.90828(7) 0.11709(7)
H47_29 H 0.7001 0.9168 0.1235
C75_29 C 0.72005(6) 0.89851(7) 0.12549(6)
H48_29 H 0.7218 0.9002 0.1379
Co7_23 Co 0.6304 0.880359(9) 0.000000(9)
Co9_19 Co 0.750000(9) 0.869641(9) 0.1304
N35_33 N 0.50348(5) 0.85058(5) 0.13938(5)
N36_33 N 0.49652(5) 0.88938(5) 0.10058(5)
C77_33 C 0.51417(8) 0.84307(7) 0.14802(7)
C78_33 C 0.48583(8) 0.89802(7) 0.09307(7)
S5_33 S 0.52926(3) 0.83312(3) 0.15991(3)
S6_33 S 0.47074(3) 0.90991(3) 0.08312(3)
Co7_24 Co 0.6304 0.880359(9) 1.000000(9)
N10_27 N 0.61062(5) 0.89942(5) 0.00348(5)
C26_27 C 0.60198(7) 0.90693(7) 0.01417(8)
S2_27 S 0.59009(3) 0.91688(3) 0.02926(3)
N28_34 N 0.73042(5) 0.85679(5) 0.14753(5)
N29_34 N 0.76958(5) 0.85247(5) 0.14321(5)
N31_27 N 0.61693(5) 0.86329(5) 0.01951(5)
N33_29 N 0.76951(5) 0.88307(5) 0.11329(5)
N35_34 N 0.74652(5) 0.85058(5) 0.11062(5)
N36_34 N 0.75348(5) 0.88938(5) 0.14942(5)
C77_34 C 0.73583(8) 0.84307(7) 0.10198(7)
C78_34 C 0.76417(8) 0.89802(7) 0.15693(7)
S5_34 S 0.72074(3) 0.83312(3) 0.09009(3)
S6_34 S 0.77926(3) 0.90991(3) 0.16688(3)
N27_27 N 0.64321(5) 0.89753(5) 0.98042(5)
N32_27 N 0.61329(5) 0.86693(5) 0.98049(5)
N34_27 N 0.64942(5) 0.86062(5) 0.99652(5)
C76_27 C 0.65693(7) 0.85198(7) 0.98583(8)
S4_27 S 0.66688(3) 0.84009(3) 0.97074(3)
N1_19 N 0.82051(6) 0.92990(7) 0.90744(6)
C1_19 C 0.81356(8) 0.91534(8) 0.91517(8)
N2_19 N 0.77064(6) 0.88956(5) 0.88859(6)
C2_19 C 0.77494(8) 0.90628(8) 0.88498(8)
H1_19 H 0.7681 0.9125 0.8763
C3_19 C 0.78880(8) 0.91528(9) 0.89305(9)
H2_19 H 0.7917 0.9271 0.8896
C4_19 C 0.79824(8) 0.90696(8) 0.90605(7)
C5_19 C 0.79402(10) 0.88936(10) 0.91012(10)
H3_19 H 0.8005 0.8831 0.9190
C6_19 C 0.78022(10) 0.88120(11) 0.90097(10)
H4_19 H 0.7775 0.8691 0.9036
Co1_11 Co 0.7496 0.875000(10) 0.8750
N3_30 N 0.74927(4) 0.89385(5) 0.85444(5)
C7_30 C 0.75067(7) 0.89985(8) 0.84044(9)
S1_30 S 0.75320(4) 0.90745(4) 0.81999(3)
N4_30 N 0.72903(5) 0.89021(5) 0.88852(5)
C8_30 C 0.72653(6) 0.90749(6) 0.88502(6)
H5_30 H 0.7344 0.9132 0.8769
C9_30 C 0.71312(6) 0.91750(6) 0.89262(6)
H6_30 H 0.7117 0.9297 0.8896
C10_30 C 0.70184(6) 0.90944(6) 0.90461(6)
C11_30 C 0.70457(7) 0.89142(7) 0.90892(7)
H7_30 H 0.6974 0.8856 0.9176
C12_30 C 0.71782(7) 0.88250(6) 0.90030(7)
H8_30 H 0.7193 0.8701 0.9027
C13_30 C 0.66646(6) 0.92141(6) 0.93473(6)
N5_30 N 0.68090(5) 0.91316(6) 0.92854(5)
C14_30 C 0.68660(6) 0.91890(6) 0.91264(6)
N6_30 N 0.67917(5) 0.93216(5) 0.90312(5)
C15_30 C 0.66495(6) 0.93965(6) 0.91096(7)
N7_30 N 0.65811(6) 0.93498(6) 0.92661(5)
C16_30 C 0.66015(7) 0.89407(8) 0.97574(7)
H9_30 H 0.6667 0.8856 0.9825
C17_30 C 0.66839(7) 0.90228(7) 0.96149(7)
H10_30 H 0.6804 0.8995 0.9585
C18_30 C 0.65889(6) 0.91459(7) 0.95156(6)
C19_30 C 0.64182(7) 0.91898(6) 0.95699(7)
H11_30 H 0.6352 0.9279 0.9509
C20_30 C 0.63459(6) 0.91024(6) 0.97140(6)
H12_30 H 0.6229 0.9134 0.9751
C21_30 C 0.63491(7) 0.97798(7) 0.90068(7)
H13_30 H 0.6271 0.9857 0.9070
C22_30 C 0.64362(7) 0.96502(7) 0.91007(7)
H14_30 H 0.6416 0.9636 0.9225
C23_30 C 0.65543(6) 0.95395(6) 0.90112(6)
C24_30 C 0.65828(7) 0.95696(7) 0.88291(7)
H15_30 H 0.6668 0.9501 0.8765
C25_30 C 0.64851(7) 0.97005(6) 0.87451(6)
H16_30 H 0.6502 0.9718 0.8621
N11_19 N 0.82010(7) 0.90744(6) 0.92949(6)
N12_19 N 0.84256(6) 0.92949(6) 0.92990(7)
N13_12 N 0.82051(6) 0.82010(7) 0.84256(6)
N14_12 N 0.82010(7) 0.84256(6) 0.82051(6)
N15_12 N 0.84256(6) 0.82051(6) 0.82010(7)
C27_19 C 0.83466(8) 0.91517(8) 0.93644(8)
C28_19 C 0.83483(8) 0.93644(8) 0.91534(8)
C29_12 C 0.81356(8) 0.83466(8) 0.83483(8)
C30_12 C 0.83466(8) 0.83483(8) 0.81356(8)
C31_12 C 0.83483(8) 0.81356(8) 0.83466(8)
N16_19 N 0.86141(6) 0.97936(6) 0.88956(5)
N17_19 N 0.86044(5) 0.88859(6) 0.97936(6)
N18_12 N 0.77064(6) 0.86044(5) 0.86141(6)
N19_12 N 0.86141(6) 0.77064(6) 0.86044(5)
N20_12 N 0.86044(5) 0.86141(6) 0.77064(6)
C32_19 C 0.86502(8) 0.97506(8) 0.90628(8)
C33_19 C 0.84372(8) 0.88498(8) 0.97506(8)
C34_12 C 0.77494(8) 0.84372(8) 0.86502(8)
C35_12 C 0.86502(8) 0.77494(8) 0.84372(8)
C36_12 C 0.84372(8) 0.86502(8) 0.77494(8)
H17_19 H 0.8737 0.9819 0.9125
H18_19 H 0.8375 0.8763 0.9819
H19_12 H 0.7681 0.8375 0.8737
H20_12 H 0.8737 0.7681 0.8375
H21_12 H 0.8375 0.8737 0.7681
C37_19 C 0.85695(9) 0.96120(8) 0.91528(9)
C38_19 C 0.83472(9) 0.89305(9) 0.96120(8)
C39_12 C 0.78880(8) 0.83472(9) 0.85695(9)
C40_12 C 0.85695(9) 0.78880(8) 0.83472(9)
C41_12 C 0.83472(9) 0.85695(9) 0.78880(8)
H22_19 H 0.8604 0.9583 0.9271
H23_19 H 0.8229 0.8896 0.9583
H24_12 H 0.7917 0.8229 0.8604
H25_12 H 0.8604 0.7917 0.8229
H26_12 H 0.8229 0.8604 0.7917
C42_19 C 0.84395(7) 0.95176(8) 0.90696(8)
C43_19 C 0.84304(8) 0.90605(7) 0.95176(8)
C44_12 C 0.79824(8) 0.84304(8) 0.84395(7)
C45_12 C 0.84395(7) 0.79824(8) 0.84304(8)
C46_12 C 0.84304(8) 0.84395(7) 0.79824(8)
C47_19 C 0.83988(10) 0.95598(10) 0.88936(10)
C48_19 C 0.86064(10) 0.91012(10) 0.95598(10)
C49_12 C 0.79402(10) 0.86064(10) 0.83988(10)
C50_12 C 0.83988(10) 0.79402(10) 0.86064(10)
C51_12 C 0.86064(10) 0.83988(10) 0.79402(10)
H27_19 H 0.8310 0.9495 0.8831
H28_19 H 0.8669 0.9190 0.9495
H29_12 H 0.8005 0.8669 0.8310
H30_12 H 0.8310 0.8005 0.8669
H31_12 H 0.8669 0.8310 0.8005
C52_19 C 0.84903(10) 0.96978(10) 0.88120(11)
C53_19 C 0.86880(11) 0.90097(10) 0.96978(10)
C54_12 C 0.78022(10) 0.86880(11) 0.84903(10)
C55_12 C 0.84903(10) 0.78022(10) 0.86880(11)
C56_12 C 0.86880(11) 0.84903(10) 0.78022(10)
H32_19 H 0.8464 0.9725 0.8691
H33_19 H 0.8809 0.9036 0.9725
H34_12 H 0.7775 0.8809 0.8464
H35_12 H 0.8464 0.7775 0.8809
H36_12 H 0.8809 0.8464 0.7775
N21_30 N 0.74927(4) 0.85615(5) 0.89556(5)
C57_30 C 0.75067(7) 0.85015(8) 0.90956(9)
S3_30 S 0.75320(4) 0.84255(4) 0.93001(3)
N22_30 N 0.72903(5) 0.85979(5) 0.86148(5)
C58_30 C 0.72653(6) 0.84251(6) 0.86498(6)
H37_30 H 0.7344 0.8368 0.8731
C59_30 C 0.71312(6) 0.83250(6) 0.85738(6)
H38_30 H 0.7117 0.8203 0.8604
C60_30 C 0.70184(6) 0.84056(6) 0.84539(6)
C61_30 C 0.70457(7) 0.85858(7) 0.84108(7)
H39_30 H 0.6974 0.8644 0.8324
C62_30 C 0.71782(7) 0.86750(6) 0.84970(7)
H40_30 H 0.7193 0.8799 0.8473
C63_30 C 0.66646(6) 0.82859(6) 0.81527(6)
N23_30 N 0.68090(5) 0.83684(6) 0.82146(5)
C64_30 C 0.68660(6) 0.83110(6) 0.83736(6)
N24_30 N 0.67917(5) 0.81784(5) 0.84688(5)
C65_30 C 0.66495(6) 0.81035(6) 0.83904(7)
N25_30 N 0.65811(6) 0.81502(6) 0.82339(5)
N26_23 N 0.64321(5) 0.85247(5) 0.76958(5)
C66_30 C 0.66015(7) 0.85593(8) 0.77426(7)
H41_30 H 0.6667 0.8644 0.7675
C67_30 C 0.66839(7) 0.84772(7) 0.78851(7)
H42_30 H 0.6804 0.8505 0.7915
C68_30 C 0.65889(6) 0.83541(7) 0.79844(6)
C69_30 C 0.64182(7) 0.83102(6) 0.79301(7)
H43_30 H 0.6352 0.8221 0.7991
C70_30 C 0.63459(6) 0.83976(6) 0.77860(6)
H44_30 H 0.6229 0.8366 0.7749
N30_19 N 0.63671(5) 0.76951(5) 0.86693(5)
C71_30 C 0.63491(7) 0.77202(7) 0.84932(7)
H45_30 H 0.6271 0.7643 0.8430
C72_30 C 0.64362(7) 0.78498(7) 0.83993(7)
H46_30 H 0.6416 0.7864 0.8275
C73_30 C 0.65543(6) 0.79605(6) 0.84888(6)
C74_30 C 0.65828(7) 0.79304(7) 0.86709(7)
H47_30 H 0.6668 0.7999 0.8735
C75_30 C 0.64851(7) 0.77995(6) 0.87549(6)
H48_30 H 0.6502 0.7782 0.8879
Co7_25 Co 0.630359(9) 0.8696 0.750000(9)
Co9_20 Co 0.619641(9) 0.750000(9) 0.8804
Co2_24 Co 0.000000(9) 0.630359(9) 0.8804
N27_28 N 0.01958(5) 0.64753(5) 0.89321(5)
N32_28 N 0.01951(5) 0.61693(5) 0.86329(5)
N34_28 N 0.00348(5) 0.61062(5) 0.89942(5)
C76_28 C 0.01417(8) 0.60198(7) 0.90693(7)
S4_28 S 0.02926(3) 0.59009(3) 0.91688(3)
N29_35 N 0.85679(5) 0.60247(5) 0.01958(5)
N33_30 N 0.88671(5) 0.63307(5) 0.01951(5)
Co8_32 Co 0.8696 0.619641(9) 0.000000(9)
N36_35 N 0.85058(5) 0.63938(5) 0.00348(5)
C78_35 C 0.84307(7) 0.64802(7) 0.01417(8)
S6_35 S 0.83312(3) 0.65991(3) 0.02926(3)
N3_31 N 0.85444(5) 0.74927(4) 0.89385(5)
C7_31 C 0.84044(9) 0.75067(7) 0.89985(8)
S1_31 S 0.81999(3) 0.75320(4) 0.90745(4)
N4_31 N 0.88852(5) 0.72903(5) 0.89021(5)
C8_31 C 0.88502(6) 0.72653(6) 0.90749(6)
H5_31 H 0.8769 0.7344 0.9132
C9_31 C 0.89262(6) 0.71312(6) 0.91750(6)
H6_31 H 0.8896 0.7117 0.9297
C10_31 C 0.90461(6) 0.70184(6) 0.90944(6)
C11_31 C 0.90892(7) 0.70457(7) 0.89142(7)
H7_31 H 0.9176 0.6974 0.8856
C12_31 C 0.90030(7) 0.71782(7) 0.88250(6)
H8_31 H 0.9027 0.7193 0.8701
C13_31 C 0.93473(6) 0.66646(6) 0.92141(6)
N5_31 N 0.92854(5) 0.68090(5) 0.91316(6)
C14_31 C 0.91264(6) 0.68660(6) 0.91890(6)
N6_31 N 0.90312(5) 0.67917(5) 0.93216(5)
C15_31 C 0.91096(7) 0.66495(6) 0.93965(6)
N7_31 N 0.92661(5) 0.65811(6) 0.93498(6)
N8_20 N 0.98042(5) 0.64321(5) 0.89753(5)
C16_31 C 0.97574(7) 0.66015(7) 0.89407(8)
H9_31 H 0.9825 0.6667 0.8856
C17_31 C 0.96149(7) 0.66839(7) 0.90228(7)
H10_31 H 0.9585 0.6804 0.8995
C18_31 C 0.95156(6) 0.65889(6) 0.91459(7)
C19_31 C 0.95699(7) 0.64182(7) 0.91898(6)
H11_31 H 0.9509 0.6352 0.9279
C20_31 C 0.97140(6) 0.63459(6) 0.91024(6)
H12_31 H 0.9751 0.6229 0.9134
N9_28 N 0.88307(5) 0.63671(5) 0.98049(5)
C21_31 C 0.90068(7) 0.63491(7) 0.97798(7)
H13_31 H 0.9070 0.6271 0.9857
C22_31 C 0.91007(7) 0.64362(7) 0.96502(7)
H14_31 H 0.9225 0.6416 0.9636
C23_31 C 0.90112(6) 0.65543(6) 0.95395(6)
C24_31 C 0.88291(7) 0.65828(7) 0.95696(7)
H15_31 H 0.8765 0.6668 0.9501
C25_31 C 0.87451(6) 0.64851(7) 0.97005(6)
H16_31 H 0.8621 0.6502 0.9718
Co2_25 Co 1.000000(9) 0.630359(9) 0.8804
N10_28 N 0.99652(5) 0.64942(5) 0.86062(5)
C26_28 C 0.98583(8) 0.65693(7) 0.85198(7)
S2_28 S 0.97074(3) 0.66688(3) 0.84009(3)
N21_31 N 0.89556(5) 0.74927(4) 0.85615(5)
C57_31 C 0.90956(9) 0.75067(7) 0.85015(8)
S3_31 S 0.93001(3) 0.75320(4) 0.84255(4)
N22_31 N 0.86148(5) 0.72903(5) 0.85979(5)
C58_31 C 0.86498(6) 0.72653(6) 0.84251(6)
H37_31 H 0.8731 0.7344 0.8368
C59_31 C 0.85738(6) 0.71312(6) 0.83250(6)
H38_31 H 0.8604 0.7117 0.8203
C60_31 C 0.84539(6) 0.70184(6) 0.84056(6)
C61_31 C 0.84108(7) 0.70457(7) 0.85858(7)
H39_31 H 0.8324 0.6974 0.8644
C62_31 C 0.84970(7) 0.71782(7) 0.86750(6)
H40_31 H 0.8473 0.7193 0.8799
C63_31 C 0.81527(6) 0.66646(6) 0.82859(6)
N23_31 N 0.82146(5) 0.68090(5) 0.83684(6)
C64_31 C 0.83736(6) 0.68660(6) 0.83110(6)
N24_31 N 0.84688(5) 0.67917(5) 0.81784(5)
C65_31 C 0.83904(7) 0.66495(6) 0.81035(6)
N25_31 N 0.82339(5) 0.65811(6) 0.81502(6)
N26_24 N 0.76958(5) 0.64321(5) 0.85247(5)
N28_35 N 0.85247(5) 0.60679(5) 0.98042(5)
C66_31 C 0.77426(7) 0.66015(7) 0.85593(8)
H41_31 H 0.7675 0.6667 0.8644
C67_31 C 0.78851(7) 0.66839(7) 0.84772(7)
H42_31 H 0.7915 0.6804 0.8505
C68_31 C 0.79844(6) 0.65889(6) 0.83541(7)
C69_31 C 0.79301(7) 0.64182(7) 0.83102(6)
H43_31 H 0.7991 0.6352 0.8221
C70_31 C 0.77860(6) 0.63459(6) 0.83976(6)
H44_31 H 0.7749 0.6229 0.8366
N31_28 N 0.98049(5) 0.61329(5) 0.86693(5)
C71_31 C 0.84932(7) 0.63491(7) 0.77202(7)
H45_31 H 0.8430 0.6271 0.7643
C72_31 C 0.83993(7) 0.64362(7) 0.78498(7)
H46_31 H 0.8275 0.6416 0.7864
C73_31 C 0.84888(6) 0.65543(6) 0.79605(6)
C74_31 C 0.86709(7) 0.65828(7) 0.79304(7)
H47_31 H 0.8735 0.6668 0.7999
C75_31 C 0.87549(6) 0.64851(7) 0.77995(6)
H48_31 H 0.8879 0.6502 0.7782
Co7_26 Co 0.750000(9) 0.630359(9) 0.8696
Co8_33 Co 0.8696 0.619641(9) 1.000000(9)
N35_35 N 0.88938(5) 0.60058(5) 0.99652(5)
C77_35 C 0.89802(7) 0.59307(7) 0.98583(8)
S5_35 S 0.90991(3) 0.58312(3) 0.97074(3)
N10_29 N 0.00348(5) 0.11062(5) 0.39942(5)
C26_29 C 0.01417(8) 0.10198(7) 0.40693(7)
S2_29 S 0.02926(3) 0.09009(3) 0.41688(3)
N31_29 N 0.01951(5) 0.11693(5) 0.36329(5)
N27_29 N 0.98042(5) 0.14321(5) 0.39753(5)
N32_29 N 0.98049(5) 0.11329(5) 0.36693(5)
N34_29 N 0.99652(5) 0.14942(5) 0.36062(5)
C76_29 C 0.98583(8) 0.15693(7) 0.35198(7)
S4_29 S 0.97074(3) 0.16688(3) 0.34009(3)
N3_32 N 0.60615(5) 0.75073(4) 0.64556(5)
C7_32 C 0.60015(8) 0.74933(7) 0.65956(9)
S1_32 S 0.59255(4) 0.74680(4) 0.68001(3)
N4_32 N 0.60979(5) 0.77097(5) 0.61148(5)
C8_32 C 0.59251(6) 0.77347(6) 0.61498(6)
H5_32 H 0.5868 0.7656 0.6231
C9_32 C 0.58250(6) 0.78688(6) 0.60738(6)
H6_32 H 0.5703 0.7883 0.6104
C10_32 C 0.59056(6) 0.79816(6) 0.59539(6)
C11_32 C 0.60858(7) 0.79543(7) 0.59108(7)
H7_32 H 0.6144 0.8026 0.5824
C12_32 C 0.61750(6) 0.78218(7) 0.59970(7)
H8_32 H 0.6299 0.7807 0.5973
C13_32 C 0.57859(6) 0.83354(6) 0.56527(6)
N5_32 N 0.58684(6) 0.81910(5) 0.57146(5)
C14_32 C 0.58110(6) 0.81340(6) 0.58736(6)
N6_32 N 0.56784(5) 0.82083(5) 0.59688(5)
C15_32 C 0.56035(6) 0.83505(6) 0.58904(7)
N7_32 N 0.56502(6) 0.84189(6) 0.57339(5)
C16_32 C 0.60593(8) 0.83985(7) 0.52426(7)
H9_32 H 0.6144 0.8333 0.5175
C17_32 C 0.59772(7) 0.83161(7) 0.53851(7)
H10_32 H 0.6005 0.8196 0.5415
C18_32 C 0.58541(7) 0.84111(6) 0.54844(6)
C19_32 C 0.58102(6) 0.85818(7) 0.54301(7)
H11_32 H 0.5721 0.8648 0.5491
C20_32 C 0.58976(6) 0.86541(6) 0.52860(6)
H12_32 H 0.5866 0.8771 0.5249
N9_29 N 0.51951(5) 0.86329(5) 0.61693(5)
C21_32 C 0.52202(7) 0.86509(7) 0.59932(7)
H13_32 H 0.5143 0.8729 0.5930
C22_32 C 0.53498(7) 0.85638(7) 0.58993(7)
H14_32 H 0.5364 0.8584 0.5775
C23_32 C 0.54605(6) 0.84457(6) 0.59888(6)
C24_32 C 0.54304(7) 0.84172(7) 0.61709(7)
H15_32 H 0.5499 0.8332 0.6235
C25_32 C 0.52995(6) 0.85149(7) 0.62549(6)
H16_32 H 0.5282 0.8498 0.6379
N21_32 N 0.64385(5) 0.75073(4) 0.60444(5)
C57_32 C 0.64985(8) 0.74933(7) 0.59044(9)
S3_32 S 0.65745(4) 0.74680(4) 0.56999(3)
N22_32 N 0.64021(5) 0.77097(5) 0.63852(5)
C58_32 C 0.65749(6) 0.77347(6) 0.63502(6)
H37_32 H 0.6632 0.7656 0.6269
C59_32 C 0.66750(6) 0.78688(6) 0.64262(6)
H38_32 H 0.6797 0.7883 0.6396
C60_32 C 0.65944(6) 0.79816(6) 0.65461(6)
C61_32 C 0.64142(7) 0.79543(7) 0.65892(7)
H39_32 H 0.6356 0.8026 0.6676
C62_32 C 0.63250(6) 0.78218(7) 0.65030(7)
H40_32 H 0.6201 0.7807 0.6527
C63_32 C 0.67141(6) 0.83354(6) 0.68473(6)
N23_32 N 0.66316(6) 0.81910(5) 0.67854(5)
C64_32 C 0.66890(6) 0.81340(6) 0.66264(6)
N24_32 N 0.68216(5) 0.82083(5) 0.65312(5)
C65_32 C 0.68965(6) 0.83505(6) 0.66096(7)
N25_32 N 0.68498(6) 0.84189(6) 0.67661(5)
N26_25 N 0.64753(5) 0.85679(5) 0.73042(5)
N28_36 N 0.51958(5) 0.89321(5) 0.64753(5)
N29_36 N 0.48042(5) 0.89753(5) 0.64321(5)
C66_32 C 0.64407(8) 0.83985(7) 0.72574(7)
H41_32 H 0.6356 0.8333 0.7325
C67_32 C 0.65228(7) 0.83161(7) 0.71149(7)
H42_32 H 0.6495 0.8196 0.7085
C68_32 C 0.66459(7) 0.84111(6) 0.70156(6)
C69_32 C 0.66898(6) 0.85818(7) 0.70699(7)
H43_32 H 0.6779 0.8648 0.7009
C70_32 C 0.66024(6) 0.86541(6) 0.72140(6)
H44_32 H 0.6634 0.8771 0.7251
N30_20 N 0.73049(5) 0.86329(5) 0.63307(5)
C71_32 C 0.72798(7) 0.86509(7) 0.65068(7)
H45_32 H 0.7357 0.8729 0.6570
C72_32 C 0.71502(7) 0.85638(7) 0.66007(7)
H46_32 H 0.7136 0.8584 0.6725
C73_32 C 0.70395(6) 0.84457(6) 0.65112(6)
C74_32 C 0.70696(7) 0.84172(7) 0.63291(7)
H47_32 H 0.7001 0.8332 0.6265
C75_32 C 0.72005(6) 0.85149(7) 0.62451(6)
H48_32 H 0.7218 0.8498 0.6121
Co9_21 Co 0.750000(9) 0.880359(9) 0.6196
N35_36 N 0.50348(5) 0.89942(5) 0.61062(5)
N36_36 N 0.49652(5) 0.86062(5) 0.64942(5)
C77_36 C 0.51417(8) 0.90693(7) 0.60198(7)
C78_36 C 0.48583(8) 0.85198(7) 0.65693(7)
S5_36 S 0.52926(3) 0.91688(3) 0.59009(3)
S6_36 S 0.47074(3) 0.84009(3) 0.66688(3)
N28_37 N 0.14321(5) 0.76958(5) 0.85247(5)
N29_37 N 0.14753(5) 0.73042(5) 0.85679(5)
N33_31 N 0.11693(5) 0.73049(5) 0.88671(5)
N35_37 N 0.14942(5) 0.75348(5) 0.88938(5)
N36_37 N 0.11062(5) 0.74652(5) 0.85058(5)
C77_37 C 0.15693(7) 0.76417(8) 0.89802(7)
C78_37 C 0.10198(7) 0.73583(8) 0.84307(7)
S5_37 S 0.16688(3) 0.77926(3) 0.90991(3)
S6_37 S 0.09009(3) 0.72074(3) 0.83312(3)
Co2_26 Co 0.8696 0.000000(9) 0.119641(9)
N27_30 N 0.85679(5) 0.01958(5) 0.10247(5)
N32_30 N 0.88671(5) 0.01951(5) 0.13307(5)
N34_30 N 0.85058(5) 0.00348(5) 0.13938(5)
C76_30 C 0.84307(7) 0.01417(8) 0.14802(7)
S4_30 S 0.83312(3) 0.02926(3) 0.15991(3)
N3_33 N 0.85615(5) 0.85444(5) 0.00073(4)
N4_33 N 0.85979(5) 0.88852(5) 0.02097(5)
C8_33 C 0.84251(6) 0.88502(6) 0.02347(6)
H5_33 H 0.8368 0.8769 0.0156
C9_33 C 0.83250(6) 0.89262(6) 0.03688(6)
H6_33 H 0.8203 0.8896 0.0383
C10_33 C 0.84056(6) 0.90461(6) 0.04816(6)
C11_33 C 0.85858(7) 0.90892(7) 0.04543(7)
H7_33 H 0.8644 0.9176 0.0526
C12_33 C 0.86750(6) 0.90030(7) 0.03218(7)
H8_33 H 0.8799 0.9027 0.0307
C13_33 C 0.82859(6) 0.93473(6) 0.08354(6)
N5_33 N 0.83684(6) 0.92854(5) 0.06910(5)
C14_33 C 0.83110(6) 0.91264(6) 0.06340(6)
N6_33 N 0.81784(5) 0.90312(5) 0.07083(5)
C15_33 C 0.81035(6) 0.91096(7) 0.08505(6)
N7_33 N 0.81502(6) 0.92661(5) 0.09189(6)
N8_21 N 0.85247(5) 0.98042(5) 0.10679(5)
C16_33 C 0.85593(8) 0.97574(7) 0.08985(7)
H9_33 H 0.8644 0.9825 0.0833
C17_33 C 0.84772(7) 0.96149(7) 0.08161(7)
H10_33 H 0.8505 0.9585 0.0696
C18_33 C 0.83541(7) 0.95156(6) 0.09111(6)
C19_33 C 0.83102(6) 0.95699(7) 0.10818(7)
H11_33 H 0.8221 0.9509 0.1148
C20_33 C 0.83976(6) 0.97140(6) 0.11541(6)
H12_33 H 0.8366 0.9751 0.1271
C21_33 C 0.77202(7) 0.90068(7) 0.11509(7)
H13_33 H 0.7643 0.9070 0.1229
C22_33 C 0.78498(7) 0.91007(7) 0.10638(7)
H14_33 H 0.7864 0.9225 0.1084
C23_33 C 0.79605(6) 0.90112(6) 0.09457(6)
C24_33 C 0.79304(7) 0.88291(7) 0.09172(7)
H15_33 H 0.7999 0.8765 0.0832
C25_33 C 0.77995(6) 0.87451(6) 0.10149(7)
H16_33 H 0.7782 0.8621 0.0998
Co2_27 Co 0.8696 1.000000(9) 0.119641(9)
N10_30 N 0.88938(5) 0.99652(5) 0.10058(5)
C26_30 C 0.89802(7) 0.98583(8) 0.09307(7)
S2_30 S 0.90991(3) 0.97074(3) 0.08312(3)
N21_33 N 0.89385(5) 0.89556(5) 0.00073(4)
N22_33 N 0.89021(5) 0.86148(5) 0.02097(5)
C58_33 C 0.90749(6) 0.86498(6) 0.02347(6)
H37_33 H 0.9132 0.8731 0.0156
C59_33 C 0.91750(6) 0.85738(6) 0.03688(6)
H38_33 H 0.9297 0.8604 0.0383
C60_33 C 0.90944(6) 0.84539(6) 0.04816(6)
C61_33 C 0.89142(7) 0.84108(7) 0.04543(7)
H39_33 H 0.8856 0.8324 0.0526
C62_33 C 0.88250(6) 0.84970(7) 0.03218(7)
H40_33 H 0.8701 0.8473 0.0307
C63_33 C 0.92141(6) 0.81527(6) 0.08354(6)
N23_33 N 0.91316(6) 0.82146(5) 0.06910(5)
C64_33 C 0.91890(6) 0.83736(6) 0.06340(6)
N24_33 N 0.93216(5) 0.84688(5) 0.07083(5)
C65_33 C 0.93965(6) 0.83904(7) 0.08505(6)
N25_33 N 0.93498(6) 0.82339(5) 0.09189(6)
N26_26 N 0.89753(5) 0.76958(5) 0.10679(5)
C66_33 C 0.89407(8) 0.77426(7) 0.08985(7)
H41_33 H 0.8856 0.7675 0.0833
C67_33 C 0.90228(7) 0.78851(7) 0.08161(7)
H42_33 H 0.8995 0.7915 0.0696
C68_33 C 0.91459(7) 0.79844(6) 0.09111(6)
C69_33 C 0.91898(6) 0.79301(7) 0.10818(7)
H43_33 H 0.9279 0.7991 0.1148
C70_33 C 0.91024(6) 0.77860(6) 0.11541(6)
H44_33 H 0.9134 0.7749 0.1271
N31_30 N 0.88307(5) 0.98049(5) 0.13671(5)
C71_33 C 0.97798(7) 0.84932(7) 0.11509(7)
H45_33 H 0.9857 0.8430 0.1229
C72_33 C 0.96502(7) 0.83993(7) 0.10638(7)
H46_33 H 0.9636 0.8275 0.1084
C73_33 C 0.95395(6) 0.84888(6) 0.09457(6)
C74_33 C 0.95696(7) 0.86709(7) 0.09172(7)
H47_33 H 0.9501 0.8735 0.0832
C75_33 C 0.97005(6) 0.87549(6) 0.10149(7)
H48_33 H 0.9718 0.8879 0.0998
Co7_27 Co 0.8804 0.750000(9) 0.119641(9)
C7_33 C 0.85015(8) 0.84044(9) 0.99933(7)
S1_33 S 0.84255(4) 0.81999(3) 0.99680(4)
C57_33 C 0.89985(8) 0.90956(9) 0.99933(7)
S3_33 S 0.90745(4) 0.93001(3) 0.99680(4)
Co2_28 Co 0.000000(9) 0.119641(9) 0.8696
N27_31 N 0.01958(5) 0.10247(5) 0.85679(5)
N32_31 N 0.01951(5) 0.13307(5) 0.88671(5)
N34_31 N 0.00348(5) 0.13938(5) 0.85058(5)
C76_31 C 0.01417(8) 0.14802(7) 0.84307(7)
S4_31 S 0.02926(3) 0.15991(3) 0.83312(3)
Co9_22 Co 0.8804 0.130359(9) 0.000000(9)
N3_34 N 0.85444(5) 0.00073(4) 0.85615(5)
N4_34 N 0.88852(5) 0.02097(5) 0.85979(5)
C8_34 C 0.88502(6) 0.02347(6) 0.84251(6)
H5_34 H 0.8769 0.0156 0.8368
C9_34 C 0.89262(6) 0.03688(6) 0.83250(6)
H6_34 H 0.8896 0.0383 0.8203
C10_34 C 0.90461(6) 0.04816(6) 0.84056(6)
C11_34 C 0.90892(7) 0.04543(7) 0.85858(7)
H7_34 H 0.9176 0.0526 0.8644
C12_34 C 0.90030(7) 0.03218(7) 0.86750(6)
H8_34 H 0.9027 0.0307 0.8799
C13_34 C 0.93473(6) 0.08354(6) 0.82859(6)
N5_34 N 0.92854(5) 0.06910(5) 0.83684(6)
C14_34 C 0.91264(6) 0.06340(6) 0.83110(6)
N6_34 N 0.90312(5) 0.07083(5) 0.81784(5)
C15_34 C 0.91096(7) 0.08505(6) 0.81035(6)
N7_34 N 0.92661(5) 0.09189(6) 0.81502(6)
N8_22 N 0.98042(5) 0.10679(5) 0.85247(5)
C16_34 C 0.97574(7) 0.08985(7) 0.85593(8)
H9_34 H 0.9825 0.0833 0.8644
C17_34 C 0.96149(7) 0.08161(7) 0.84772(7)
H10_34 H 0.9585 0.0696 0.8505
C18_34 C 0.95156(6) 0.09111(6) 0.83541(7)
C19_34 C 0.95699(7) 0.10818(7) 0.83102(6)
H11_34 H 0.9509 0.1148 0.8221
C20_34 C 0.97140(6) 0.11541(6) 0.83976(6)
H12_34 H 0.9751 0.1271 0.8366
N9_30 N 0.88307(5) 0.11329(5) 0.76951(5)
C21_34 C 0.90068(7) 0.11509(7) 0.77202(7)
H13_34 H 0.9070 0.1229 0.7643
C22_34 C 0.91007(7) 0.10638(7) 0.78498(7)
H14_34 H 0.9225 0.1084 0.7864
C23_34 C 0.90112(6) 0.09457(6) 0.79605(6)
C24_34 C 0.88291(7) 0.09172(7) 0.79304(7)
H15_34 H 0.8765 0.0832 0.7999
C25_34 C 0.87451(6) 0.10149(7) 0.77995(6)
H16_34 H 0.8621 0.0998 0.7782
Co2_29 Co 1.000000(9) 0.119641(9) 0.8696
N10_31 N 0.99652(5) 0.10058(5) 0.88938(5)
C26_31 C 0.98583(8) 0.09307(7) 0.89802(7)
S2_31 S 0.97074(3) 0.08312(3) 0.90991(3)
N21_34 N 0.89556(5) 0.00073(4) 0.89385(5)
N22_34 N 0.86148(5) 0.02097(5) 0.89021(5)
C58_34 C 0.86498(6) 0.02347(6) 0.90749(6)
H37_34 H 0.8731 0.0156 0.9132
C59_34 C 0.85738(6) 0.03688(6) 0.91750(6)
H38_34 H 0.8604 0.0383 0.9297
C60_34 C 0.84539(6) 0.04816(6) 0.90944(6)
C61_34 C 0.84108(7) 0.04543(7) 0.89142(7)
H39_34 H 0.8324 0.0526 0.8856
C62_34 C 0.84970(7) 0.03218(7) 0.88250(6)
H40_34 H 0.8473 0.0307 0.8701
C63_34 C 0.81527(6) 0.08354(6) 0.92141(6)
N23_34 N 0.82146(5) 0.06910(5) 0.91316(6)
C64_34 C 0.83736(6) 0.06340(6) 0.91890(6)
N24_34 N 0.84688(5) 0.07083(5) 0.93216(5)
C65_34 C 0.83904(7) 0.08505(6) 0.93965(6)
N25_34 N 0.82339(5) 0.09189(6) 0.93498(6)
N28_38 N 0.85247(5) 0.14321(5) 0.76958(5)
N29_38 N 0.85679(5) 0.14753(5) 0.73042(5)
C66_34 C 0.77426(7) 0.08985(7) 0.89407(8)
H41_34 H 0.7675 0.0833 0.8856
C67_34 C 0.78851(7) 0.08161(7) 0.90228(7)
H42_34 H 0.7915 0.0696 0.8995
C68_34 C 0.79844(6) 0.09111(6) 0.91459(7)
C69_34 C 0.79301(7) 0.10818(7) 0.91898(6)
H43_34 H 0.7991 0.1148 0.9279
C70_34 C 0.77860(6) 0.11541(6) 0.91024(6)
H44_34 H 0.7749 0.1271 0.9134
N30_21 N 0.86693(5) 0.11329(5) 0.98049(5)
N31_31 N 0.98049(5) 0.13671(5) 0.88307(5)
N33_32 N 0.88671(5) 0.11693(5) 0.73049(5)
C71_34 C 0.84932(7) 0.11509(7) 0.97798(7)
H45_34 H 0.8430 0.1229 0.9857
C72_34 C 0.83993(7) 0.10638(7) 0.96502(7)
H46_34 H 0.8275 0.1084 0.9636
C73_34 C 0.84888(6) 0.09457(6) 0.95395(6)
C74_34 C 0.86709(7) 0.09172(7) 0.95696(7)
H47_34 H 0.8735 0.0832 0.9501
C75_34 C 0.87549(6) 0.10149(7) 0.97005(6)
H48_34 H 0.8879 0.0998 0.9718
Co8_34 Co 0.8696 0.130359(9) 0.750000(9)
Co9_23 Co 0.8804 0.130359(9) 1.000000(9)
N35_38 N 0.88938(5) 0.14942(5) 0.75348(5)
N36_38 N 0.85058(5) 0.11062(5) 0.74652(5)
C77_38 C 0.89802(7) 0.15693(7) 0.76417(8)
C78_38 C 0.84307(7) 0.10198(7) 0.73583(8)
S5_38 S 0.90991(3) 0.16688(3) 0.77926(3)
S6_38 S 0.83312(3) 0.09009(3) 0.72074(3)
C7_34 C 0.84044(9) 0.99933(7) 0.85015(8)
S1_34 S 0.81999(3) 0.99680(4) 0.84255(4)
C57_34 C 0.90956(9) 0.99933(7) 0.89985(8)
S3_34 S 0.93001(3) 0.99680(4) 0.90745(4)
N29_39 N 0.89321(5) 0.14753(5) 0.01958(5)
N33_33 N 0.86329(5) 0.11693(5) 0.01951(5)
N36_39 N 0.89942(5) 0.11062(5) 0.00348(5)
C78_39 C 0.90693(7) 0.10198(7) 0.01417(8)
S6_39 S 0.91688(3) 0.09009(3) 0.02926(3)
N28_39 N 0.89753(5) 0.14321(5) 0.98042(5)
N35_39 N 0.86062(5) 0.14942(5) 0.99652(5)
C77_39 C 0.85198(7) 0.15693(7) 0.98583(8)
S5_39 S 0.84009(3) 0.16688(3) 0.97074(3)
C7_35 C 0.09044(9) 0.60015(8) 0.00067(7)
S1_35 S 0.06999(3) 0.59255(4) 0.00320(4)
C57_35 C 0.15956(9) 0.64985(8) 0.00067(7)
S3_35 S 0.18001(3) 0.65745(4) 0.00320(4)
N3_35 N 0.10444(5) 0.60615(5) 0.99927(4)
N4_35 N 0.13852(5) 0.60979(5) 0.97903(5)
C8_35 C 0.13502(6) 0.59251(6) 0.97653(6)
H5_35 H 0.1269 0.5868 0.9844
C9_35 C 0.14262(6) 0.58250(6) 0.96312(6)
H6_35 H 0.1396 0.5703 0.9617
C10_35 C 0.15461(6) 0.59056(6) 0.95184(6)
C11_35 C 0.15892(7) 0.60858(7) 0.95457(7)
H7_35 H 0.1676 0.6144 0.9474
C12_35 C 0.15030(7) 0.61750(6) 0.96782(7)
H8_35 H 0.1527 0.6299 0.9693
C13_35 C 0.18473(6) 0.57859(6) 0.91646(6)
N5_35 N 0.17854(5) 0.58684(6) 0.93090(5)
C14_35 C 0.16264(6) 0.58110(6) 0.93660(6)
N6_35 N 0.15312(5) 0.56784(5) 0.92917(5)
C15_35 C 0.16096(7) 0.56035(6) 0.91495(6)
N7_35 N 0.17661(5) 0.56502(6) 0.90811(6)
C16_35 C 0.22574(7) 0.60593(8) 0.91015(7)
H9_35 H 0.2325 0.6144 0.9167
C17_35 C 0.21149(7) 0.59772(7) 0.91839(7)
H10_35 H 0.2085 0.6005 0.9304
C18_35 C 0.20156(6) 0.58541(7) 0.90889(6)
C19_35 C 0.20699(7) 0.58102(6) 0.89182(7)
H11_35 H 0.2009 0.5721 0.8852
C20_35 C 0.22140(6) 0.58976(6) 0.88459(6)
H12_35 H 0.2251 0.5866 0.8729
C21_35 C 0.15068(7) 0.52202(7) 0.88491(7)
H13_35 H 0.1570 0.5143 0.8771
C22_35 C 0.16007(7) 0.53498(7) 0.89362(7)
H14_35 H 0.1725 0.5364 0.8916
C23_35 C 0.15112(6) 0.54605(6) 0.90543(6)
C24_35 C 0.13291(7) 0.54304(7) 0.90828(7)
H15_35 H 0.1265 0.5499 0.9168
C25_35 C 0.12451(6) 0.52995(6) 0.89851(7)
H16_35 H 0.1121 0.5282 0.9002
N21_35 N 0.14556(5) 0.64385(5) 0.99927(4)
N22_35 N 0.11148(5) 0.64021(5) 0.97903(5)
C58_35 C 0.11498(6) 0.65749(6) 0.97653(6)
H37_35 H 0.1231 0.6632 0.9844
C59_35 C 0.10738(6) 0.66750(6) 0.96312(6)
H38_35 H 0.1104 0.6797 0.9617
C60_35 C 0.09539(6) 0.65944(6) 0.95184(6)
C61_35 C 0.09108(7) 0.64142(7) 0.95457(7)
H39_35 H 0.0824 0.6356 0.9474
C62_35 C 0.09970(7) 0.63250(6) 0.96782(7)
H40_35 H 0.0973 0.6201 0.9693
C63_35 C 0.06527(6) 0.67141(6) 0.91646(6)
N23_35 N 0.07146(5) 0.66316(6) 0.93090(5)
C64_35 C 0.08736(6) 0.66890(6) 0.93660(6)
N24_35 N 0.09688(5) 0.68216(5) 0.92917(5)
C65_35 C 0.08904(7) 0.68965(6) 0.91495(6)
N25_35 N 0.07339(5) 0.68498(6) 0.90811(6)
C66_35 C 0.02426(7) 0.64407(8) 0.91015(7)
H41_35 H 0.0175 0.6356 0.9167
C67_35 C 0.03851(7) 0.65228(7) 0.91839(7)
H42_35 H 0.0415 0.6495 0.9304
C68_35 C 0.04844(6) 0.66459(7) 0.90889(6)
C69_35 C 0.04301(7) 0.66898(6) 0.89182(7)
H43_35 H 0.0491 0.6779 0.8852
C70_35 C 0.02860(6) 0.66024(6) 0.88459(6)
H44_35 H 0.0249 0.6634 0.8729
C71_35 C 0.09932(7) 0.72798(7) 0.88491(7)
H45_35 H 0.0930 0.7357 0.8771
C72_35 C 0.08993(7) 0.71502(7) 0.89362(7)
H46_35 H 0.0775 0.7136 0.8916
C73_35 C 0.09888(6) 0.70395(6) 0.90543(6)
C74_35 C 0.11709(7) 0.70696(7) 0.90828(7)
H47_35 H 0.1235 0.7001 0.9168
C75_35 C 0.12549(6) 0.72005(6) 0.89851(7)
H48_35 H 0.1379 0.7218 0.9002
Co7_28 Co 0.8804 0.000000(9) 0.630359(9)
N3_36 N 0.85615(5) 0.89556(5) 0.74927(4)
C7_36 C 0.85015(8) 0.90956(9) 0.75067(7)
S1_36 S 0.84255(4) 0.93001(3) 0.75320(4)
N4_36 N 0.85979(5) 0.86148(5) 0.72903(5)
C8_36 C 0.84251(6) 0.86498(6) 0.72653(6)
H5_36 H 0.8368 0.8731 0.7344
C9_36 C 0.83250(6) 0.85738(6) 0.71312(6)
H6_36 H 0.8203 0.8604 0.7117
C10_36 C 0.84056(6) 0.84539(6) 0.70184(6)
C11_36 C 0.85858(7) 0.84108(7) 0.70457(7)
H7_36 H 0.8644 0.8324 0.6974
C12_36 C 0.86750(6) 0.84970(7) 0.71782(7)
H8_36 H 0.8799 0.8473 0.7193
C13_36 C 0.82859(6) 0.81527(6) 0.66646(6)
N5_36 N 0.83684(6) 0.82146(5) 0.68090(5)
C14_36 C 0.83110(6) 0.83736(6) 0.68660(6)
N6_36 N 0.81784(5) 0.84688(5) 0.67917(5)
C15_36 C 0.81035(6) 0.83904(7) 0.66495(6)
N7_36 N 0.81502(6) 0.82339(5) 0.65811(6)
C16_36 C 0.85593(8) 0.77426(7) 0.66015(7)
H9_36 H 0.8644 0.7675 0.6667
C17_36 C 0.84772(7) 0.78851(7) 0.66839(7)
H10_36 H 0.8505 0.7915 0.6804
C18_36 C 0.83541(7) 0.79844(6) 0.65889(6)
C19_36 C 0.83102(6) 0.79301(7) 0.64182(7)
H11_36 H 0.8221 0.7991 0.6352
C20_36 C 0.83976(6) 0.77860(6) 0.63459(6)
H12_36 H 0.8366 0.7749 0.6229
N9_31 N 0.76951(5) 0.86693(5) 0.63671(5)
C21_36 C 0.77202(7) 0.84932(7) 0.63491(7)
H13_36 H 0.7643 0.8430 0.6271
C22_36 C 0.78498(7) 0.83993(7) 0.64362(7)
H14_36 H 0.7864 0.8275 0.6416
C23_36 C 0.79605(6) 0.84888(6) 0.65543(6)
C24_36 C 0.79304(7) 0.86709(7) 0.65828(7)
H15_36 H 0.7999 0.8735 0.6668
C25_36 C 0.77995(6) 0.87549(6) 0.64851(7)
H16_36 H 0.7782 0.8879 0.6502
N21_36 N 0.89385(5) 0.85444(5) 0.74927(4)
C57_36 C 0.89985(8) 0.84044(9) 0.75067(7)
S3_36 S 0.90745(4) 0.81999(3) 0.75320(4)
N22_36 N 0.89021(5) 0.88852(5) 0.72903(5)
C58_36 C 0.90749(6) 0.88502(6) 0.72653(6)
H37_36 H 0.9132 0.8769 0.7344
C59_36 C 0.91750(6) 0.89262(6) 0.71312(6)
H38_36 H 0.9297 0.8896 0.7117
C60_36 C 0.90944(6) 0.90461(6) 0.70184(6)
C61_36 C 0.89142(7) 0.90892(7) 0.70457(7)
H39_36 H 0.8856 0.9176 0.6974
C62_36 C 0.88250(6) 0.90030(7) 0.71782(7)
H40_36 H 0.8701 0.9027 0.7193
C63_36 C 0.92141(6) 0.93473(6) 0.66646(6)
N23_36 N 0.91316(6) 0.92854(5) 0.68090(5)
C64_36 C 0.91890(6) 0.91264(6) 0.68660(6)
N24_36 N 0.93216(5) 0.90312(5) 0.67917(5)
C65_36 C 0.93965(6) 0.91096(7) 0.66495(6)
N25_36 N 0.93498(6) 0.92661(5) 0.65811(6)
N26_27 N 0.89753(5) 0.98042(5) 0.64321(5)
N28_40 N 0.76958(5) 0.89753(5) 0.60679(5)
N29_40 N 0.73042(5) 0.89321(5) 0.60247(5)
C66_36 C 0.89407(8) 0.97574(7) 0.66015(7)
H41_36 H 0.8856 0.9825 0.6667
C67_36 C 0.90228(7) 0.96149(7) 0.66839(7)
H42_36 H 0.8995 0.9585 0.6804
C68_36 C 0.91459(7) 0.95156(6) 0.65889(6)
C69_36 C 0.91898(6) 0.95699(7) 0.64182(7)
H43_36 H 0.9279 0.9509 0.6352
C70_36 C 0.91024(6) 0.97140(6) 0.63459(6)
H44_36 H 0.9134 0.9751 0.6229
C71_36 C 0.97798(7) 0.90068(7) 0.63491(7)
H45_36 H 0.9857 0.9070 0.6271
C72_36 C 0.96502(7) 0.91007(7) 0.64362(7)
H46_36 H 0.9636 0.9225 0.6416
C73_36 C 0.95395(6) 0.90112(6) 0.65543(6)
C74_36 C 0.95696(7) 0.88291(7) 0.65828(7)
H47_36 H 0.9501 0.8765 0.6668
C75_36 C 0.97005(6) 0.87451(6) 0.64851(7)
H48_36 H 0.9718 0.8621 0.6502
Co7_29 Co 0.8804 1.000000(9) 0.630359(9)
N35_40 N 0.75348(5) 0.86062(5) 0.60058(5)
N36_40 N 0.74652(5) 0.89942(5) 0.63938(5)
C77_40 C 0.76417(8) 0.85198(7) 0.59307(7)
C78_40 C 0.73583(8) 0.90693(7) 0.64802(7)
S5_40 S 0.77926(3) 0.84009(3) 0.58312(3)
S6_40 S 0.72074(3) 0.91688(3) 0.65991(3)
N3_37 N 0.75073(4) 0.10444(5) 0.14385(5)
C7_37 C 0.74933(7) 0.09044(9) 0.14985(8)
S1_37 S 0.74680(4) 0.06999(3) 0.15745(4)
N4_37 N 0.77097(5) 0.13852(5) 0.14021(5)
C8_37 C 0.77347(6) 0.13502(6) 0.15749(6)
H5_37 H 0.7656 0.1269 0.1632
C9_37 C 0.78688(6) 0.14262(6) 0.16750(6)
H6_37 H 0.7883 0.1396 0.1797
C10_37 C 0.79816(6) 0.15461(6) 0.15944(6)
C11_37 C 0.79543(7) 0.15892(7) 0.14142(7)
H7_37 H 0.8026 0.1676 0.1356
C12_37 C 0.78218(7) 0.15030(7) 0.13250(6)
H8_37 H 0.7807 0.1527 0.1201
C13_37 C 0.83354(6) 0.18473(6) 0.17141(6)
N5_37 N 0.81910(5) 0.17854(5) 0.16316(6)
C14_37 C 0.81340(6) 0.16264(6) 0.16890(6)
N6_37 N 0.82083(5) 0.15312(5) 0.18216(5)
C15_37 C 0.83505(6) 0.16096(7) 0.18965(6)
N7_37 N 0.84189(6) 0.17661(5) 0.18498(6)
C16_37 C 0.83985(7) 0.22574(7) 0.14407(8)
H9_37 H 0.8333 0.2325 0.1356
C17_37 C 0.83161(7) 0.21149(7) 0.15228(7)
H10_37 H 0.8196 0.2085 0.1495
C18_37 C 0.84111(6) 0.20156(6) 0.16459(7)
C19_37 C 0.85818(7) 0.20699(7) 0.16898(6)
H11_37 H 0.8648 0.2009 0.1779
C20_37 C 0.86541(6) 0.22140(6) 0.16024(6)
H12_37 H 0.8771 0.2251 0.1634
N9_32 N 0.86329(5) 0.13307(5) 0.23049(5)
C21_37 C 0.86509(7) 0.15068(7) 0.22798(7)
H13_37 H 0.8729 0.1570 0.2357
C22_37 C 0.85638(7) 0.16007(7) 0.21502(7)
H14_37 H 0.8584 0.1725 0.2136
C23_37 C 0.84457(6) 0.15112(6) 0.20395(6)
C24_37 C 0.84172(7) 0.13291(7) 0.20696(7)
H15_37 H 0.8332 0.1265 0.2001
C25_37 C 0.85149(7) 0.12451(6) 0.22005(6)
H16_37 H 0.8498 0.1121 0.2218
N21_37 N 0.75073(4) 0.14556(5) 0.10615(5)
C57_37 C 0.74933(7) 0.15956(9) 0.10015(8)
S3_37 S 0.74680(4) 0.18001(3) 0.09255(4)
N22_37 N 0.77097(5) 0.11148(5) 0.10979(5)
C58_37 C 0.77347(6) 0.11498(6) 0.09251(6)
H37_37 H 0.7656 0.1231 0.0868
C59_37 C 0.78688(6) 0.10738(6) 0.08250(6)
H38_37 H 0.7883 0.1104 0.0703
C60_37 C 0.79816(6) 0.09539(6) 0.09056(6)
C61_37 C 0.79543(7) 0.09108(7) 0.10858(7)
H39_37 H 0.8026 0.0824 0.1144
C62_37 C 0.78218(7) 0.09970(7) 0.11750(6)
H40_37 H 0.7807 0.0973 0.1299
C63_37 C 0.83354(6) 0.06527(6) 0.07859(6)
N23_37 N 0.81910(5) 0.07146(5) 0.08684(6)
C64_37 C 0.81340(6) 0.08736(6) 0.08110(6)
N24_37 N 0.82083(5) 0.09688(5) 0.06784(5)
C65_37 C 0.83505(6) 0.08904(7) 0.06035(6)
N25_37 N 0.84189(6) 0.07339(5) 0.06502(6)
N28_41 N 0.89321(5) 0.10247(5) 0.23042(5)
N29_41 N 0.89753(5) 0.10679(5) 0.26958(5)
C66_37 C 0.83985(7) 0.02426(7) 0.10593(8)
H41_37 H 0.8333 0.0175 0.1144
C67_37 C 0.83161(7) 0.03851(7) 0.09772(7)
H42_37 H 0.8196 0.0415 0.1005
C68_37 C 0.84111(6) 0.04844(6) 0.08541(7)
C69_37 C 0.85818(7) 0.04301(7) 0.08102(6)
H43_37 H 0.8648 0.0491 0.0721
C70_37 C 0.86541(6) 0.02860(6) 0.08976(6)
H44_37 H 0.8771 0.0249 0.0866
N33_34 N 0.86693(5) 0.13671(5) 0.26951(5)
C71_37 C 0.86509(7) 0.09932(7) 0.02202(7)
H45_37 H 0.8729 0.0930 0.0143
C72_37 C 0.85638(7) 0.08993(7) 0.03498(7)
H46_37 H 0.8584 0.0775 0.0364
C73_37 C 0.84457(6) 0.09888(6) 0.04605(6)
C74_37 C 0.84172(7) 0.11709(7) 0.04304(7)
H47_37 H 0.8332 0.1235 0.0499
C75_37 C 0.85149(7) 0.12549(6) 0.02995(6)
H48_37 H 0.8498 0.1379 0.0282
Co8_35 Co 0.880359(9) 0.1196 0.250000(9)
N35_41 N 0.89942(5) 0.13938(5) 0.24652(5)
N36_41 N 0.86062(5) 0.10058(5) 0.25348(5)
C77_41 C 0.90693(7) 0.14802(7) 0.23583(8)
C78_41 C 0.85198(7) 0.09307(7) 0.26417(8)
S5_41 S 0.91688(3) 0.15991(3) 0.22074(3)
S6_41 S 0.84009(3) 0.08312(3) 0.27926(3)
N28_42 N 0.14321(5) 0.48042(5) 0.39753(5)
N29_42 N 0.14753(5) 0.51958(5) 0.39321(5)
N33_35 N 0.11693(5) 0.51951(5) 0.36329(5)
N35_42 N 0.14942(5) 0.49652(5) 0.36062(5)
N36_42 N 0.11062(5) 0.50348(5) 0.39942(5)
C77_42 C 0.15693(7) 0.48583(8) 0.35198(7)
C78_42 C 0.10198(7) 0.51417(8) 0.40693(7)
S5_42 S 0.16688(3) 0.47074(3) 0.34009(3)
S6_42 S 0.09009(3) 0.52926(3) 0.41688(3)
N1_20 N 0.57010(7) 0.57051(6) 0.65744(6)
C1_20 C 0.58466(8) 0.56356(8) 0.66517(8)
N2_20 N 0.61044(5) 0.52064(6) 0.63859(6)
C2_20 C 0.59372(8) 0.52494(8) 0.63498(8)
H1_20 H 0.5875 0.5181 0.6263
C3_20 C 0.58472(9) 0.53880(8) 0.64305(9)
H2_20 H 0.5729 0.5417 0.6396
C4_20 C 0.59304(8) 0.54824(8) 0.65605(7)
C5_20 C 0.61064(10) 0.54402(10) 0.66012(10)
H3_20 H 0.6169 0.5505 0.6690
C6_20 C 0.61880(11) 0.53022(10) 0.65097(10)
H4_20 H 0.6309 0.5275 0.6536
N3_38 N 0.60615(5) 0.49927(4) 0.60444(5)
C7_38 C 0.60015(8) 0.50067(7) 0.59044(9)
S1_38 S 0.59255(4) 0.50320(4) 0.56999(3)
N4_38 N 0.60979(5) 0.47903(5) 0.63852(5)
C8_38 C 0.59251(6) 0.47653(6) 0.63502(6)
H5_38 H 0.5868 0.4844 0.6269
C9_38 C 0.58250(6) 0.46312(6) 0.64262(6)
H6_38 H 0.5703 0.4617 0.6396
C10_38 C 0.59056(6) 0.45184(6) 0.65461(6)
C11_38 C 0.60858(7) 0.45457(7) 0.65892(7)
H7_38 H 0.6144 0.4474 0.6676
C12_38 C 0.61750(6) 0.46782(7) 0.65030(7)
H8_38 H 0.6299 0.4693 0.6527
C13_38 C 0.57859(6) 0.41646(6) 0.68473(6)
N5_38 N 0.58684(6) 0.43090(5) 0.67854(5)
C14_38 C 0.58110(6) 0.43660(6) 0.66264(6)
N6_38 N 0.56784(5) 0.42917(5) 0.65312(5)
C15_38 C 0.56035(6) 0.41495(6) 0.66096(7)
N7_38 N 0.56502(6) 0.40811(6) 0.67661(5)
C16_38 C 0.60593(8) 0.41015(7) 0.72574(7)
H9_38 H 0.6144 0.4167 0.7325
C17_38 C 0.59772(7) 0.41839(7) 0.71149(7)
H10_38 H 0.6005 0.4304 0.7085
C18_38 C 0.58541(7) 0.40889(6) 0.70156(6)
C19_38 C 0.58102(6) 0.39182(7) 0.70699(7)
H11_38 H 0.5721 0.3852 0.7009
C20_38 C 0.58976(6) 0.38459(6) 0.72140(6)
H12_38 H 0.5866 0.3729 0.7251
N9_33 N 0.51951(5) 0.38671(5) 0.63307(5)
C21_38 C 0.52202(7) 0.38491(7) 0.65068(7)
H13_38 H 0.5143 0.3771 0.6570
C22_38 C 0.53498(7) 0.39362(7) 0.66007(7)
H14_38 H 0.5364 0.3916 0.6725
C23_38 C 0.54605(6) 0.40543(6) 0.65112(6)
C24_38 C 0.54304(7) 0.40828(7) 0.63291(7)
H15_38 H 0.5499 0.4168 0.6265
C25_38 C 0.52995(6) 0.39851(7) 0.62451(6)
H16_38 H 0.5282 0.4002 0.6121
N11_20 N 0.59256(6) 0.57010(7) 0.67949(6)
N12_20 N 0.57051(6) 0.59256(6) 0.67990(7)
C27_20 C 0.58483(8) 0.58466(8) 0.68644(8)
C28_20 C 0.56356(8) 0.58483(8) 0.66534(8)
N16_20 N 0.52064(6) 0.61141(6) 0.63956(5)
N17_20 N 0.61141(6) 0.61044(5) 0.72936(6)
C32_20 C 0.52494(8) 0.61502(8) 0.65628(8)
C33_20 C 0.61502(8) 0.59372(8) 0.72506(8)
H17_20 H 0.5181 0.6237 0.6625
H18_20 H 0.6237 0.5875 0.7319
C37_20 C 0.53880(8) 0.60695(9) 0.66528(9)
C38_20 C 0.60695(9) 0.58472(9) 0.71120(8)
H22_20 H 0.5417 0.6104 0.6771
H23_20 H 0.6104 0.5729 0.7083
C42_20 C 0.54824(8) 0.59395(7) 0.65696(8)
C43_20 C 0.59395(7) 0.59304(8) 0.70176(8)
C47_20 C 0.54402(10) 0.58988(10) 0.63936(10)
C48_20 C 0.58988(10) 0.61064(10) 0.70598(10)
H27_20 H 0.5505 0.5810 0.6331
H28_20 H 0.5810 0.6169 0.6995
C52_20 C 0.53022(10) 0.59903(10) 0.63120(11)
C53_20 C 0.59903(10) 0.61880(11) 0.71978(10)
H32_20 H 0.5275 0.5964 0.6191
H33_20 H 0.5964 0.6309 0.7225
N21_38 N 0.64385(5) 0.49927(4) 0.64556(5)
C57_38 C 0.64985(8) 0.50067(7) 0.65956(9)
S3_38 S 0.65745(4) 0.50320(4) 0.68001(3)
N22_38 N 0.64021(5) 0.47903(5) 0.61148(5)
C58_38 C 0.65749(6) 0.47653(6) 0.61498(6)
H37_38 H 0.6632 0.4844 0.6231
C59_38 C 0.66750(6) 0.46312(6) 0.60738(6)
H38_38 H 0.6797 0.4617 0.6104
C60_38 C 0.65944(6) 0.45184(6) 0.59539(6)
C61_38 C 0.64142(7) 0.45457(7) 0.59108(7)
H39_38 H 0.6356 0.4474 0.5824
C62_38 C 0.63250(6) 0.46782(7) 0.59970(7)
H40_38 H 0.6201 0.4693 0.5973
C63_38 C 0.67141(6) 0.41646(6) 0.56527(6)
N23_38 N 0.66316(6) 0.43090(5) 0.57146(5)
C64_38 C 0.66890(6) 0.43660(6) 0.58736(6)
N24_38 N 0.68216(5) 0.42917(5) 0.59688(5)
C65_38 C 0.68965(6) 0.41495(6) 0.58904(7)
N25_38 N 0.68498(6) 0.40811(6) 0.57339(5)
N26_28 N 0.64753(5) 0.39321(5) 0.51958(5)
N28_43 N 0.51958(5) 0.35679(5) 0.60247(5)
N29_43 N 0.48042(5) 0.35247(5) 0.60679(5)
C66_38 C 0.64407(8) 0.41015(7) 0.52426(7)
H41_38 H 0.6356 0.4167 0.5175
C67_38 C 0.65228(7) 0.41839(7) 0.53851(7)
H42_38 H 0.6495 0.4304 0.5415
C68_38 C 0.66459(7) 0.40889(6) 0.54844(6)
C69_38 C 0.66898(6) 0.39182(7) 0.54301(7)
H43_38 H 0.6779 0.3852 0.5491
C70_38 C 0.66024(6) 0.38459(6) 0.52860(6)
H44_38 H 0.6634 0.3729 0.5249
C71_38 C 0.72798(7) 0.38491(7) 0.59932(7)
H45_38 H 0.7357 0.3771 0.5930
C72_38 C 0.71502(7) 0.39362(7) 0.58993(7)
H46_38 H 0.7136 0.3916 0.5775
C73_38 C 0.70395(6) 0.40543(6) 0.59888(6)
C74_38 C 0.70696(7) 0.40828(7) 0.61709(7)
H47_38 H 0.7001 0.4168 0.6235
C75_38 C 0.72005(6) 0.39851(7) 0.62549(6)
H48_38 H 0.7218 0.4002 0.6379
Co7_30 Co 0.6304 0.380359(9) 0.500000(9)
N35_43 N 0.50348(5) 0.35058(5) 0.63938(5)
N36_43 N 0.49652(5) 0.38938(5) 0.60058(5)
C77_43 C 0.51417(8) 0.34307(7) 0.64802(7)
C78_43 C 0.48583(8) 0.39802(7) 0.59307(7)
S5_43 S 0.52926(3) 0.33312(3) 0.65991(3)
S6_43 S 0.47074(3) 0.40991(3) 0.58312(3)
N10_32 N 0.61062(5) 0.39942(5) 0.50348(5)
C26_32 C 0.60198(7) 0.40693(7) 0.51417(8)
S2_32 S 0.59009(3) 0.41688(3) 0.52926(3)
N27_32 N 0.64321(5) 0.39753(5) 0.48042(5)
N31_32 N 0.61693(5) 0.36329(5) 0.51951(5)
N32_32 N 0.61329(5) 0.36693(5) 0.48049(5)
N34_32 N 0.64942(5) 0.36062(5) 0.49652(5)
C76_32 C 0.65693(7) 0.35198(7) 0.48583(8)
S4_32 S 0.66688(3) 0.34009(3) 0.47074(3)
N3_39 N 0.74927(4) 0.39385(5) 0.35444(5)
C7_39 C 0.75067(7) 0.39985(8) 0.34044(9)
S1_39 S 0.75320(4) 0.40745(4) 0.31999(3)
N4_39 N 0.72903(5) 0.39021(5) 0.38852(5)
C8_39 C 0.72653(6) 0.40749(6) 0.38502(6)
H5_39 H 0.7344 0.4132 0.3769
C9_39 C 0.71312(6) 0.41750(6) 0.39262(6)
H6_39 H 0.7117 0.4297 0.3896
C10_39 C 0.70184(6) 0.40944(6) 0.40461(6)
C11_39 C 0.70457(7) 0.39142(7) 0.40892(7)
H7_39 H 0.6974 0.3856 0.4176
C12_39 C 0.71782(7) 0.38250(6) 0.40030(7)
H8_39 H 0.7193 0.3701 0.4027
C13_39 C 0.66646(6) 0.42141(6) 0.43473(6)
N5_39 N 0.68090(5) 0.41316(6) 0.42854(5)
C14_39 C 0.68660(6) 0.41890(6) 0.41264(6)
N6_39 N 0.67917(5) 0.43216(5) 0.40312(5)
C15_39 C 0.66495(6) 0.43965(6) 0.41096(7)
N7_39 N 0.65811(6) 0.43498(6) 0.42661(5)
C16_39 C 0.66015(7) 0.39407(8) 0.47574(7)
H9_39 H 0.6667 0.3856 0.4825
C17_39 C 0.66839(7) 0.40228(7) 0.46149(7)
H10_39 H 0.6804 0.3995 0.4585
C18_39 C 0.65889(6) 0.41459(7) 0.45156(6)
C19_39 C 0.64182(7) 0.41898(6) 0.45699(7)
H11_39 H 0.6352 0.4279 0.4509
C20_39 C 0.63459(6) 0.41024(6) 0.47140(6)
H12_39 H 0.6229 0.4134 0.4751
C21_39 C 0.63491(7) 0.47798(7) 0.40068(7)
H13_39 H 0.6271 0.4857 0.4070
C22_39 C 0.64362(7) 0.46502(7) 0.41007(7)
H14_39 H 0.6416 0.4636 0.4225
C23_39 C 0.65543(6) 0.45395(6) 0.40112(6)
C24_39 C 0.65828(7) 0.45696(7) 0.38291(7)
H15_39 H 0.6668 0.4501 0.3765
C25_39 C 0.64851(7) 0.47005(6) 0.37451(6)
H16_39 H 0.6502 0.4718 0.3621
N21_39 N 0.74927(4) 0.35615(5) 0.39556(5)
C57_39 C 0.75067(7) 0.35015(8) 0.40956(9)
S3_39 S 0.75320(4) 0.34255(4) 0.43001(3)
N22_39 N 0.72903(5) 0.35979(5) 0.36148(5)
C58_39 C 0.72653(6) 0.34251(6) 0.36498(6)
H37_39 H 0.7344 0.3368 0.3731
C59_39 C 0.71312(6) 0.33250(6) 0.35738(6)
H38_39 H 0.7117 0.3203 0.3604
C60_39 C 0.70184(6) 0.34056(6) 0.34539(6)
C61_39 C 0.70457(7) 0.35858(7) 0.34108(7)
H39_39 H 0.6974 0.3644 0.3324
C62_39 C 0.71782(7) 0.36750(6) 0.34970(7)
H40_39 H 0.7193 0.3799 0.3473
C63_39 C 0.66646(6) 0.32859(6) 0.31527(6)
N23_39 N 0.68090(5) 0.33684(6) 0.32146(5)
C64_39 C 0.68660(6) 0.33110(6) 0.33736(6)
N24_39 N 0.67917(5) 0.31784(5) 0.34688(5)
C65_39 C 0.66495(6) 0.31035(6) 0.33904(7)
N25_39 N 0.65811(6) 0.31502(6) 0.32339(5)
N26_29 N 0.64321(5) 0.35247(5) 0.26958(5)
C66_39 C 0.66015(7) 0.35593(8) 0.27426(7)
H41_39 H 0.6667 0.3644 0.2675
C67_39 C 0.66839(7) 0.34772(7) 0.28851(7)
H42_39 H 0.6804 0.3505 0.2915
C68_39 C 0.65889(6) 0.33541(7) 0.29844(6)
C69_39 C 0.64182(7) 0.33102(6) 0.29301(7)
H43_39 H 0.6352 0.3221 0.2991
C70_39 C 0.63459(6) 0.33976(6) 0.27860(6)
H44_39 H 0.6229 0.3366 0.2749
N30_22 N 0.63671(5) 0.26951(5) 0.36693(5)
C71_39 C 0.63491(7) 0.27202(7) 0.34932(7)
H45_39 H 0.6271 0.2643 0.3430
C72_39 C 0.64362(7) 0.28498(7) 0.33993(7)
H46_39 H 0.6416 0.2864 0.3275
C73_39 C 0.65543(6) 0.29605(6) 0.34888(6)
C74_39 C 0.65828(7) 0.29304(7) 0.36709(7)
H47_39 H 0.6668 0.2999 0.3735
C75_39 C 0.64851(7) 0.27995(6) 0.37549(6)
H48_39 H 0.6502 0.2782 0.3879
Co9_24 Co 0.619641(9) 0.250000(9) 0.3804
N3_40 N 0.85444(5) 0.24927(4) 0.39385(5)
C7_40 C 0.84044(9) 0.25067(7) 0.39985(8)
S1_40 S 0.81999(3) 0.25320(4) 0.40745(4)
N4_40 N 0.88852(5) 0.22903(5) 0.39021(5)
C8_40 C 0.88502(6) 0.22653(6) 0.40749(6)
H5_40 H 0.8769 0.2344 0.4132
C9_40 C 0.89262(6) 0.21312(6) 0.41750(6)
H6_40 H 0.8896 0.2117 0.4297
C10_40 C 0.90461(6) 0.20184(6) 0.40944(6)
C11_40 C 0.90892(7) 0.20457(7) 0.39142(7)
H7_40 H 0.9176 0.1974 0.3856
C12_40 C 0.90030(7) 0.21782(7) 0.38250(6)
H8_40 H 0.9027 0.2193 0.3701
C13_40 C 0.93473(6) 0.16646(6) 0.42141(6)
N5_40 N 0.92854(5) 0.18090(5) 0.41316(6)
C14_40 C 0.91264(6) 0.18660(6) 0.41890(6)
N6_40 N 0.90312(5) 0.17917(5) 0.43216(5)
C15_40 C 0.91096(7) 0.16495(6) 0.43965(6)
N7_40 N 0.92661(5) 0.15811(6) 0.43498(6)
C16_40 C 0.97574(7) 0.16015(7) 0.39407(8)
H9_40 H 0.9825 0.1667 0.3856
C17_40 C 0.96149(7) 0.16839(7) 0.40228(7)
H10_40 H 0.9585 0.1804 0.3995
C18_40 C 0.95156(6) 0.15889(6) 0.41459(7)
C19_40 C 0.95699(7) 0.14182(7) 0.41898(6)
H11_40 H 0.9509 0.1352 0.4279
C20_40 C 0.97140(6) 0.13459(6) 0.41024(6)
H12_40 H 0.9751 0.1229 0.4134
N9_34 N 0.88307(5) 0.13671(5) 0.48049(5)
C21_40 C 0.90068(7) 0.13491(7) 0.47798(7)
H13_40 H 0.9070 0.1271 0.4857
C22_40 C 0.91007(7) 0.14362(7) 0.46502(7)
H14_40 H 0.9225 0.1416 0.4636
C23_40 C 0.90112(6) 0.15543(6) 0.45395(6)
C24_40 C 0.88291(7) 0.15828(7) 0.45696(7)
H15_40 H 0.8765 0.1668 0.4501
C25_40 C 0.87451(6) 0.14851(7) 0.47005(6)
H16_40 H 0.8621 0.1502 0.4718
N21_40 N 0.89556(5) 0.24927(4) 0.35615(5)
C57_40 C 0.90956(9) 0.25067(7) 0.35015(8)
S3_40 S 0.93001(3) 0.25320(4) 0.34255(4)
N22_40 N 0.86148(5) 0.22903(5) 0.35979(5)
C58_40 C 0.86498(6) 0.22653(6) 0.34251(6)
H37_40 H 0.8731 0.2344 0.3368
C59_40 C 0.85738(6) 0.21312(6) 0.33250(6)
H38_40 H 0.8604 0.2117 0.3203
C60_40 C 0.84539(6) 0.20184(6) 0.34056(6)
C61_40 C 0.84108(7) 0.20457(7) 0.35858(7)
H39_40 H 0.8324 0.1974 0.3644
C62_40 C 0.84970(7) 0.21782(7) 0.36750(6)
H40_40 H 0.8473 0.2193 0.3799
C63_40 C 0.81527(6) 0.16646(6) 0.32859(6)
N23_40 N 0.82146(5) 0.18090(5) 0.33684(6)
C64_40 C 0.83736(6) 0.18660(6) 0.33110(6)
N24_40 N 0.84688(5) 0.17917(5) 0.31784(5)
C65_40 C 0.83904(7) 0.16495(6) 0.31035(6)
N25_40 N 0.82339(5) 0.15811(6) 0.31502(6)
N26_30 N 0.76958(5) 0.14321(5) 0.35247(5)
N28_44 N 0.85247(5) 0.10679(5) 0.48042(5)
N29_44 N 0.85679(5) 0.10247(5) 0.51958(5)
C66_40 C 0.77426(7) 0.16015(7) 0.35593(8)
H41_40 H 0.7675 0.1667 0.3644
C67_40 C 0.78851(7) 0.16839(7) 0.34772(7)
H42_40 H 0.7915 0.1804 0.3505
C68_40 C 0.79844(6) 0.15889(6) 0.33541(7)
C69_40 C 0.79301(7) 0.14182(7) 0.33102(6)
H43_40 H 0.7991 0.1352 0.3221
C70_40 C 0.77860(6) 0.13459(6) 0.33976(6)
H44_40 H 0.7749 0.1229 0.3366
N33_36 N 0.88671(5) 0.13307(5) 0.51951(5)
C71_40 C 0.84932(7) 0.13491(7) 0.27202(7)
H45_40 H 0.8430 0.1271 0.2643
C72_40 C 0.83993(7) 0.14362(7) 0.28498(7)
H46_40 H 0.8275 0.1416 0.2864
C73_40 C 0.84888(6) 0.15543(6) 0.29605(6)
C74_40 C 0.86709(7) 0.15828(7) 0.29304(7)
H47_40 H 0.8735 0.1668 0.2999
C75_40 C 0.87549(6) 0.14851(7) 0.27995(6)
H48_40 H 0.8879 0.1502 0.2782
Co7_31 Co 0.750000(9) 0.130359(9) 0.3696
Co8_36 Co 0.8696 0.119641(9) 0.500000(9)
N35_44 N 0.88938(5) 0.10058(5) 0.49652(5)
N36_44 N 0.85058(5) 0.13938(5) 0.50348(5)
C77_44 C 0.89802(7) 0.09307(7) 0.48583(8)
C78_44 C 0.84307(7) 0.14802(7) 0.51417(8)
S5_44 S 0.90991(3) 0.08312(3) 0.47074(3)
S6_44 S 0.83312(3) 0.15991(3) 0.52926(3)
N27_33 N 0.89321(5) 0.01958(5) 0.64753(5)
N32_33 N 0.86329(5) 0.01951(5) 0.61693(5)
N34_33 N 0.89942(5) 0.00348(5) 0.61062(5)
C76_33 C 0.90693(7) 0.01417(8) 0.60198(7)
S4_33 S 0.91688(3) 0.02926(3) 0.59009(3)
N10_33 N 0.86062(5) 0.99652(5) 0.64942(5)
C26_33 C 0.85198(7) 0.98583(8) 0.65693(7)
S2_33 S 0.84009(3) 0.97074(3) 0.66688(3)
N31_33 N 0.86693(5) 0.98049(5) 0.61329(5)
N3_41 N 0.49927(4) 0.64556(5) 0.64385(5)
C7_41 C 0.50067(7) 0.65956(9) 0.64985(8)
S1_41 S 0.50320(4) 0.68001(3) 0.65745(4)
N4_41 N 0.47903(5) 0.61148(5) 0.64021(5)
C8_41 C 0.47653(6) 0.61498(6) 0.65749(6)
H5_41 H 0.4844 0.6231 0.6632
C9_41 C 0.46312(6) 0.60738(6) 0.66750(6)
H6_41 H 0.4617 0.6104 0.6797
C10_41 C 0.45184(6) 0.59539(6) 0.65944(6)
C11_41 C 0.45457(7) 0.59108(7) 0.64142(7)
H7_41 H 0.4474 0.5824 0.6356
C12_41 C 0.46782(7) 0.59970(7) 0.63250(6)
H8_41 H 0.4693 0.5973 0.6201
C13_41 C 0.41646(6) 0.56527(6) 0.67141(6)
N5_41 N 0.43090(5) 0.57146(5) 0.66316(6)
C14_41 C 0.43660(6) 0.58736(6) 0.66890(6)
N6_41 N 0.42917(5) 0.59688(5) 0.68216(5)
C15_41 C 0.41495(6) 0.58904(7) 0.68965(6)
N7_41 N 0.40811(6) 0.57339(5) 0.68498(6)
N8_23 N 0.39321(5) 0.51958(5) 0.64753(5)
C16_41 C 0.41015(7) 0.52426(7) 0.64407(8)
H9_41 H 0.4167 0.5175 0.6356
C17_41 C 0.41839(7) 0.53851(7) 0.65228(7)
H10_41 H 0.4304 0.5415 0.6495
C18_41 C 0.40889(6) 0.54844(6) 0.66459(7)
C19_41 C 0.39182(7) 0.54301(7) 0.66898(6)
H11_41 H 0.3852 0.5491 0.6779
C20_41 C 0.38459(6) 0.52860(6) 0.66024(6)
H12_41 H 0.3729 0.5249 0.6634
C21_41 C 0.38491(7) 0.59932(7) 0.72798(7)
H13_41 H 0.3771 0.5930 0.7357
C22_41 C 0.39362(7) 0.58993(7) 0.71502(7)
H14_41 H 0.3916 0.5775 0.7136
C23_41 C 0.40543(6) 0.59888(6) 0.70395(6)
C24_41 C 0.40828(7) 0.61709(7) 0.70696(7)
H15_41 H 0.4168 0.6235 0.7001
C25_41 C 0.39851(7) 0.62549(6) 0.72005(6)
H16_41 H 0.4002 0.6379 0.7218
N10_34 N 0.39942(5) 0.50348(5) 0.61062(5)
C26_34 C 0.40693(7) 0.51417(8) 0.60198(7)
S2_34 S 0.41688(3) 0.52926(3) 0.59009(3)
N21_41 N 0.49927(4) 0.60444(5) 0.60615(5)
C57_41 C 0.50067(7) 0.59044(9) 0.60015(8)
S3_41 S 0.50320(4) 0.56999(3) 0.59255(4)
N22_41 N 0.47903(5) 0.63852(5) 0.60979(5)
C58_41 C 0.47653(6) 0.63502(6) 0.59251(6)
H37_41 H 0.4844 0.6269 0.5868
C59_41 C 0.46312(6) 0.64262(6) 0.58250(6)
H38_41 H 0.4617 0.6396 0.5703
C60_41 C 0.45184(6) 0.65461(6) 0.59056(6)
C61_41 C 0.45457(7) 0.65892(7) 0.60858(7)
H39_41 H 0.4474 0.6676 0.6144
C62_41 C 0.46782(7) 0.65030(7) 0.61750(6)
H40_41 H 0.4693 0.6527 0.6299
C63_41 C 0.41646(6) 0.68473(6) 0.57859(6)
N23_41 N 0.43090(5) 0.67854(5) 0.58684(6)
C64_41 C 0.43660(6) 0.66264(6) 0.58110(6)
N24_41 N 0.42917(5) 0.65312(5) 0.56784(5)
C65_41 C 0.41495(6) 0.66096(7) 0.56035(6)
N25_41 N 0.40811(6) 0.67661(5) 0.56502(6)
N26_31 N 0.39321(5) 0.73042(5) 0.60247(5)
C66_41 C 0.41015(7) 0.72574(7) 0.60593(8)
H41_41 H 0.4167 0.7325 0.6144
C67_41 C 0.41839(7) 0.71149(7) 0.59772(7)
H42_41 H 0.4304 0.7085 0.6005
C68_41 C 0.40889(6) 0.70156(6) 0.58541(7)
C69_41 C 0.39182(7) 0.70699(7) 0.58102(6)
H43_41 H 0.3852 0.7009 0.5721
C70_41 C 0.38459(6) 0.72140(6) 0.58976(6)
H44_41 H 0.3729 0.7251 0.5866
N31_34 N 0.36329(5) 0.51951(5) 0.61693(5)
N32_34 N 0.36693(5) 0.48049(5) 0.61329(5)
C71_41 C 0.38491(7) 0.65068(7) 0.52202(7)
H45_41 H 0.3771 0.6570 0.5143
C72_41 C 0.39362(7) 0.66007(7) 0.53498(7)
H46_41 H 0.3916 0.6725 0.5364
C73_41 C 0.40543(6) 0.65112(6) 0.54605(6)
C74_41 C 0.40828(7) 0.63291(7) 0.54304(7)
H47_41 H 0.4168 0.6265 0.5499
C75_41 C 0.39851(7) 0.62451(6) 0.52995(6)
H48_41 H 0.4002 0.6121 0.5282
N34_34 N 0.36062(5) 0.49652(5) 0.64942(5)
C76_34 C 0.35198(7) 0.48583(8) 0.65693(7)
S4_34 S 0.34009(3) 0.47074(3) 0.66688(3)
N3_42 N 0.10444(5) 0.64385(5) 0.25073(4)
C7_42 C 0.09044(9) 0.64985(8) 0.24933(7)
S1_42 S 0.06999(3) 0.65745(4) 0.24680(4)
N4_42 N 0.13852(5) 0.64021(5) 0.27097(5)
C8_42 C 0.13502(6) 0.65749(6) 0.27347(6)
H5_42 H 0.1269 0.6632 0.2656
C9_42 C 0.14262(6) 0.66750(6) 0.28688(6)
H6_42 H 0.1396 0.6797 0.2883
C10_42 C 0.15461(6) 0.65944(6) 0.29816(6)
C11_42 C 0.15892(7) 0.64142(7) 0.29543(7)
H7_42 H 0.1676 0.6356 0.3026
C12_42 C 0.15030(7) 0.63250(6) 0.28218(7)
H8_42 H 0.1527 0.6201 0.2807
C13_42 C 0.18473(6) 0.67141(6) 0.33354(6)
N5_42 N 0.17854(5) 0.66316(6) 0.31910(5)
C14_42 C 0.16264(6) 0.66890(6) 0.31340(6)
N6_42 N 0.15312(5) 0.68216(5) 0.32083(5)
C15_42 C 0.16096(7) 0.68965(6) 0.33505(6)
N7_42 N 0.17661(5) 0.68498(6) 0.34189(6)
N8_24 N 0.23042(5) 0.64753(5) 0.35679(5)
C16_42 C 0.22574(7) 0.64407(8) 0.33985(7)
H9_42 H 0.2325 0.6356 0.3333
C17_42 C 0.21149(7) 0.65228(7) 0.33161(7)
H10_42 H 0.2085 0.6495 0.3196
C18_42 C 0.20156(6) 0.66459(7) 0.34111(6)
C19_42 C 0.20699(7) 0.66898(6) 0.35818(7)
H11_42 H 0.2009 0.6779 0.3648
C20_42 C 0.22140(6) 0.66024(6) 0.36541(6)
H12_42 H 0.2251 0.6634 0.3771
N9_35 N 0.13307(5) 0.73049(5) 0.36329(5)
C21_42 C 0.15068(7) 0.72798(7) 0.36509(7)
H13_42 H 0.1570 0.7357 0.3729
C22_42 C 0.16007(7) 0.71502(7) 0.35638(7)
H14_42 H 0.1725 0.7136 0.3584
C23_42 C 0.15112(6) 0.70395(6) 0.34457(6)
C24_42 C 0.13291(7) 0.70696(7) 0.34172(7)
H15_42 H 0.1265 0.7001 0.3332
C25_42 C 0.12451(6) 0.72005(6) 0.35149(7)
H16_42 H 0.1121 0.7218 0.3498
N10_35 N 0.24652(5) 0.61062(5) 0.35058(5)
C26_35 C 0.23583(8) 0.60198(7) 0.34307(7)
S2_35 S 0.22074(3) 0.59009(3) 0.33312(3)
N21_42 N 0.14556(5) 0.60615(5) 0.25073(4)
C57_42 C 0.15956(9) 0.60015(8) 0.24933(7)
S3_42 S 0.18001(3) 0.59255(4) 0.24680(4)
N22_42 N 0.11148(5) 0.60979(5) 0.27097(5)
C58_42 C 0.11498(6) 0.59251(6) 0.27347(6)
H37_42 H 0.1231 0.5868 0.2656
C59_42 C 0.10738(6) 0.58250(6) 0.28688(6)
H38_42 H 0.1104 0.5703 0.2883
C60_42 C 0.09539(6) 0.59056(6) 0.29816(6)
C61_42 C 0.09108(7) 0.60858(7) 0.29543(7)
H39_42 H 0.0824 0.6144 0.3026
C62_42 C 0.09970(7) 0.61750(6) 0.28218(7)
H40_42 H 0.0973 0.6299 0.2807
C63_42 C 0.06527(6) 0.57859(6) 0.33354(6)
N23_42 N 0.07146(5) 0.58684(6) 0.31910(5)
C64_42 C 0.08736(6) 0.58110(6) 0.31340(6)
N24_42 N 0.09688(5) 0.56784(5) 0.32083(5)
C65_42 C 0.08904(7) 0.56035(6) 0.33505(6)
N25_42 N 0.07339(5) 0.56502(6) 0.34189(6)
N28_45 N 0.10247(5) 0.73042(5) 0.39321(5)
N29_45 N 0.10679(5) 0.76958(5) 0.39753(5)
C66_42 C 0.02426(7) 0.60593(8) 0.33985(7)
H41_42 H 0.0175 0.6144 0.3333
C67_42 C 0.03851(7) 0.59772(7) 0.33161(7)
H42_42 H 0.0415 0.6005 0.3196
C68_42 C 0.04844(6) 0.58541(7) 0.34111(6)
C69_42 C 0.04301(7) 0.58102(6) 0.35818(7)
H43_42 H 0.0491 0.5721 0.3648
C70_42 C 0.02860(6) 0.58976(6) 0.36541(6)
H44_42 H 0.0249 0.5866 0.3771
N31_35 N 0.23049(5) 0.61693(5) 0.38671(5)
N32_35 N 0.26951(5) 0.61329(5) 0.38307(5)
C71_42 C 0.09932(7) 0.52202(7) 0.36509(7)
H45_42 H 0.0930 0.5143 0.3729
C72_42 C 0.08993(7) 0.53498(7) 0.35638(7)
H46_42 H 0.0775 0.5364 0.3584
C73_42 C 0.09888(6) 0.54605(6) 0.34457(6)
C74_42 C 0.11709(7) 0.54304(7) 0.34172(7)
H47_42 H 0.1235 0.5499 0.3332
C75_42 C 0.12549(6) 0.52995(6) 0.35149(7)
H48_42 H 0.1379 0.5282 0.3498
N34_35 N 0.25348(5) 0.64942(5) 0.38938(5)
N35_45 N 0.13938(5) 0.74652(5) 0.39942(5)
N36_45 N 0.10058(5) 0.75348(5) 0.36062(5)
C76_35 C 0.26417(8) 0.65693(7) 0.39802(7)
C77_45 C 0.14802(7) 0.73583(8) 0.40693(7)
C78_45 C 0.09307(7) 0.76417(8) 0.35198(7)
S4_35 S 0.27926(3) 0.66688(3) 0.40991(3)
S5_45 S 0.15991(3) 0.72074(3) 0.41688(3)
S6_45 S 0.08312(3) 0.77926(3) 0.34009(3)
N3_43 N 0.49927(4) 0.10444(5) 0.10615(5)
C7_43 C 0.50067(7) 0.09044(9) 0.10015(8)
S1_43 S 0.50320(4) 0.06999(3) 0.09255(4)
N4_43 N 0.47903(5) 0.13852(5) 0.10979(5)
C8_43 C 0.47653(6) 0.13502(6) 0.09251(6)
H5_43 H 0.4844 0.1269 0.0868
C9_43 C 0.46312(6) 0.14262(6) 0.08250(6)
H6_43 H 0.4617 0.1396 0.0703
C10_43 C 0.45184(6) 0.15461(6) 0.09056(6)
C11_43 C 0.45457(7) 0.15892(7) 0.10858(7)
H7_43 H 0.4474 0.1676 0.1144
C12_43 C 0.46782(7) 0.15030(7) 0.11750(6)
H8_43 H 0.4693 0.1527 0.1299
C13_43 C 0.41646(6) 0.18473(6) 0.07859(6)
N5_43 N 0.43090(5) 0.17854(5) 0.08684(6)
C14_43 C 0.43660(6) 0.16264(6) 0.08110(6)
N6_43 N 0.42917(5) 0.15312(5) 0.06784(5)
C15_43 C 0.41495(6) 0.16096(7) 0.06035(6)
N7_43 N 0.40811(6) 0.17661(5) 0.06502(6)
N8_25 N 0.39321(5) 0.23042(5) 0.10247(5)
C16_43 C 0.41015(7) 0.22574(7) 0.10593(8)
H9_43 H 0.4167 0.2325 0.1144
C17_43 C 0.41839(7) 0.21149(7) 0.09772(7)
H10_43 H 0.4304 0.2085 0.1005
C18_43 C 0.40889(6) 0.20156(6) 0.08541(7)
C19_43 C 0.39182(7) 0.20699(7) 0.08102(6)
H11_43 H 0.3852 0.2009 0.0721
C20_43 C 0.38459(6) 0.22140(6) 0.08976(6)
H12_43 H 0.3729 0.2251 0.0866
C21_43 C 0.38491(7) 0.15068(7) 0.02202(7)
H13_43 H 0.3771 0.1570 0.0143
C22_43 C 0.39362(7) 0.16007(7) 0.03498(7)
H14_43 H 0.3916 0.1725 0.0364
C23_43 C 0.40543(6) 0.15112(6) 0.04605(6)
C24_43 C 0.40828(7) 0.13291(7) 0.04304(7)
H15_43 H 0.4168 0.1265 0.0499
C25_43 C 0.39851(7) 0.12451(6) 0.02995(6)
H16_43 H 0.4002 0.1121 0.0282
N10_36 N 0.39942(5) 0.24652(5) 0.13938(5)
C26_36 C 0.40693(7) 0.23583(8) 0.14802(7)
S2_36 S 0.41688(3) 0.22074(3) 0.15991(3)
N21_43 N 0.49927(4) 0.14556(5) 0.14385(5)
C57_43 C 0.50067(7) 0.15956(9) 0.14985(8)
S3_43 S 0.50320(4) 0.18001(3) 0.15745(4)
N22_43 N 0.47903(5) 0.11148(5) 0.14021(5)
C58_43 C 0.47653(6) 0.11498(6) 0.15749(6)
H37_43 H 0.4844 0.1231 0.1632
C59_43 C 0.46312(6) 0.10738(6) 0.16750(6)
H38_43 H 0.4617 0.1104 0.1797
C60_43 C 0.45184(6) 0.09539(6) 0.15944(6)
C61_43 C 0.45457(7) 0.09108(7) 0.14142(7)
H39_43 H 0.4474 0.0824 0.1356
C62_43 C 0.46782(7) 0.09970(7) 0.13250(6)
H40_43 H 0.4693 0.0973 0.1201
C63_43 C 0.41646(6) 0.06527(6) 0.17141(6)
N23_43 N 0.43090(5) 0.07146(5) 0.16316(6)
C64_43 C 0.43660(6) 0.08736(6) 0.16890(6)
N24_43 N 0.42917(5) 0.09688(5) 0.18216(5)
C65_43 C 0.41495(6) 0.08904(7) 0.18965(6)
N25_43 N 0.40811(6) 0.07339(5) 0.18498(6)
N26_32 N 0.39321(5) 0.01958(5) 0.14753(5)
C66_43 C 0.41015(7) 0.02426(7) 0.14407(8)
H41_43 H 0.4167 0.0175 0.1356
C67_43 C 0.41839(7) 0.03851(7) 0.15228(7)
H42_43 H 0.4304 0.0415 0.1495
C68_43 C 0.40889(6) 0.04844(6) 0.16459(7)
C69_43 C 0.39182(7) 0.04301(7) 0.16898(6)
H43_43 H 0.3852 0.0491 0.1779
C70_43 C 0.38459(6) 0.02860(6) 0.16024(6)
H44_43 H 0.3729 0.0249 0.1634
N31_36 N 0.36329(5) 0.23049(5) 0.13307(5)
N32_36 N 0.36693(5) 0.26951(5) 0.13671(5)
C71_43 C 0.38491(7) 0.09932(7) 0.22798(7)
H45_43 H 0.3771 0.0930 0.2357
C72_43 C 0.39362(7) 0.08993(7) 0.21502(7)
H46_43 H 0.3916 0.0775 0.2136
C73_43 C 0.40543(6) 0.09888(6) 0.20395(6)
C74_43 C 0.40828(7) 0.11709(7) 0.20696(7)
H47_43 H 0.4168 0.1235 0.2001
C75_43 C 0.39851(7) 0.12549(6) 0.22005(6)
H48_43 H 0.4002 0.1379 0.2218
N34_36 N 0.36062(5) 0.25348(5) 0.10058(5)
C76_36 C 0.35198(7) 0.26417(8) 0.09307(7)
S4_36 S 0.34009(3) 0.27926(3) 0.08312(3)
N10_37 N 0.25348(5) 0.14942(5) 0.88938(5)
C26_37 C 0.26417(8) 0.15693(7) 0.89802(7)
S2_37 S 0.27926(3) 0.16688(3) 0.90991(3)
N27_34 N 0.23042(5) 0.14753(5) 0.85679(5)
N31_37 N 0.26951(5) 0.11329(5) 0.88307(5)
N32_37 N 0.23049(5) 0.11693(5) 0.88671(5)
N34_37 N 0.24652(5) 0.11062(5) 0.85058(5)
C76_37 C 0.23583(8) 0.10198(7) 0.84307(7)
S4_37 S 0.22074(3) 0.09009(3) 0.83312(3)
N10_38 N 0.61062(5) 0.35058(5) 0.24652(5)
C26_38 C 0.60198(7) 0.34307(7) 0.23583(8)
S2_38 S 0.59009(3) 0.33312(3) 0.22074(3)
N31_38 N 0.61693(5) 0.38671(5) 0.23049(5)
N32_38 N 0.61329(5) 0.38307(5) 0.26951(5)
N34_38 N 0.64942(5) 0.38938(5) 0.25348(5)
C76_38 C 0.65693(7) 0.39802(7) 0.26417(8)
S4_38 S 0.66688(3) 0.40991(3) 0.27926(3)
N10_39 N 0.14942(5) 0.88938(5) 0.25348(5)
C26_39 C 0.15693(7) 0.89802(7) 0.26417(8)
S2_39 S 0.16688(3) 0.90991(3) 0.27926(3)
N31_39 N 0.11329(5) 0.88307(5) 0.26951(5)
N32_39 N 0.11693(5) 0.88671(5) 0.23049(5)
N34_39 N 0.11062(5) 0.85058(5) 0.24652(5)
C76_39 C 0.10198(7) 0.84307(7) 0.23583(8)
S4_39 S 0.09009(3) 0.83312(3) 0.22074(3)
N3_44 N 0.64556(5) 0.10615(5) 0.25073(4)
C7_44 C 0.65956(9) 0.10015(8) 0.24933(7)
S1_44 S 0.68001(3) 0.09255(4) 0.24680(4)
N4_44 N 0.61148(5) 0.10979(5) 0.27097(5)
C8_44 C 0.61498(6) 0.09251(6) 0.27347(6)
H5_44 H 0.6231 0.0868 0.2656
C9_44 C 0.60738(6) 0.08250(6) 0.28688(6)
H6_44 H 0.6104 0.0703 0.2883
C10_44 C 0.59539(6) 0.09056(6) 0.29816(6)
C11_44 C 0.59108(7) 0.10858(7) 0.29543(7)
H7_44 H 0.5824 0.1144 0.3026
C12_44 C 0.59970(7) 0.11750(6) 0.28218(7)
H8_44 H 0.5973 0.1299 0.2807
C13_44 C 0.56527(6) 0.07859(6) 0.33354(6)
N5_44 N 0.57146(5) 0.08684(6) 0.31910(5)
C14_44 C 0.58736(6) 0.08110(6) 0.31340(6)
N6_44 N 0.59688(5) 0.06784(5) 0.32083(5)
C15_44 C 0.58904(7) 0.06035(6) 0.33505(6)
N7_44 N 0.57339(5) 0.06502(6) 0.34189(6)
C16_44 C 0.52426(7) 0.10593(8) 0.33985(7)
H9_44 H 0.5175 0.1144 0.3333
C17_44 C 0.53851(7) 0.09772(7) 0.33161(7)
H10_44 H 0.5415 0.1005 0.3196
C18_44 C 0.54844(6) 0.08541(7) 0.34111(6)
C19_44 C 0.54301(7) 0.08102(6) 0.35818(7)
H11_44 H 0.5491 0.0721 0.3648
C20_44 C 0.52860(6) 0.08976(6) 0.36541(6)
H12_44 H 0.5249 0.0866 0.3771
C21_44 C 0.59932(7) 0.02202(7) 0.36509(7)
H13_44 H 0.5930 0.0143 0.3729
C22_44 C 0.58993(7) 0.03498(7) 0.35638(7)
H14_44 H 0.5775 0.0364 0.3584
C23_44 C 0.59888(6) 0.04605(6) 0.34457(6)
C24_44 C 0.61709(7) 0.04304(7) 0.34172(7)
H15_44 H 0.6235 0.0499 0.3332
C25_44 C 0.62549(6) 0.02995(6) 0.35149(7)
H16_44 H 0.6379 0.0282 0.3498
N21_44 N 0.60444(5) 0.14385(5) 0.25073(4)
C57_44 C 0.59044(9) 0.14985(8) 0.24933(7)
S3_44 S 0.56999(3) 0.15745(4) 0.24680(4)
N22_44 N 0.63852(5) 0.14021(5) 0.27097(5)
C58_44 C 0.63502(6) 0.15749(6) 0.27347(6)
H37_44 H 0.6269 0.1632 0.2656
C59_44 C 0.64262(6) 0.16750(6) 0.28688(6)
H38_44 H 0.6396 0.1797 0.2883
C60_44 C 0.65461(6) 0.15944(6) 0.29816(6)
C61_44 C 0.65892(7) 0.14142(7) 0.29543(7)
H39_44 H 0.6676 0.1356 0.3026
C62_44 C 0.65030(7) 0.13250(6) 0.28218(7)
H40_44 H 0.6527 0.1201 0.2807
C63_44 C 0.68473(6) 0.17141(6) 0.33354(6)
N23_44 N 0.67854(5) 0.16316(6) 0.31910(5)
C64_44 C 0.66264(6) 0.16890(6) 0.31340(6)
N24_44 N 0.65312(5) 0.18216(5) 0.32083(5)
C65_44 C 0.66096(7) 0.18965(6) 0.33505(6)
N25_44 N 0.67661(5) 0.18498(6) 0.34189(6)
N26_33 N 0.73042(5) 0.14753(5) 0.35679(5)
C66_44 C 0.72574(7) 0.14407(8) 0.33985(7)
H41_44 H 0.7325 0.1356 0.3333
C67_44 C 0.71149(7) 0.15228(7) 0.33161(7)
H42_44 H 0.7085 0.1495 0.3196
C68_44 C 0.70156(6) 0.16459(7) 0.34111(6)
C69_44 C 0.70699(7) 0.16898(6) 0.35818(7)
H43_44 H 0.7009 0.1779 0.3648
C70_44 C 0.72140(6) 0.16024(6) 0.36541(6)
H44_44 H 0.7251 0.1634 0.3771
N30_23 N 0.63307(5) 0.23049(5) 0.36329(5)
C71_44 C 0.65068(7) 0.22798(7) 0.36509(7)
H45_44 H 0.6570 0.2357 0.3729
C72_44 C 0.66007(7) 0.21502(7) 0.35638(7)
H46_44 H 0.6725 0.2136 0.3584
C73_44 C 0.65112(6) 0.20395(6) 0.34457(6)
C74_44 C 0.63291(7) 0.20696(7) 0.34172(7)
H47_44 H 0.6265 0.2001 0.3332
C75_44 C 0.62451(6) 0.22005(6) 0.35149(7)
H48_44 H 0.6121 0.2218 0.3498
N10_40 N 0.86062(5) 0.49652(5) 0.14942(5)
C26_40 C 0.85198(7) 0.48583(8) 0.15693(7)
S2_40 S 0.84009(3) 0.47074(3) 0.16688(3)
N27_35 N 0.89321(5) 0.51958(5) 0.14753(5)
N31_40 N 0.86693(5) 0.48049(5) 0.11329(5)
N32_40 N 0.86329(5) 0.51951(5) 0.11693(5)
N34_40 N 0.89942(5) 0.50348(5) 0.11062(5)
C76_40 C 0.90693(7) 0.51417(8) 0.10198(7)
S4_40 S 0.91688(3) 0.52926(3) 0.09009(3)
N10_41 N 0.39942(5) 0.00348(5) 0.11062(5)
C26_41 C 0.40693(7) 0.01417(8) 0.10198(7)
S2_41 S 0.41688(3) 0.02926(3) 0.09009(3)
N31_41 N 0.36329(5) 0.01951(5) 0.11693(5)
N32_41 N 0.36693(5) 0.98049(5) 0.11329(5)
N34_41 N 0.36062(5) 0.99652(5) 0.14942(5)
C76_41 C 0.35198(7) 0.98583(8) 0.15693(7)
S4_41 S 0.34009(3) 0.97074(3) 0.16688(3)
N3_45 N 0.10444(5) 0.14385(5) 0.75073(4)
C7_45 C 0.09044(9) 0.14985(8) 0.74933(7)
S1_45 S 0.06999(3) 0.15745(4) 0.74680(4)
N4_45 N 0.13852(5) 0.14021(5) 0.77097(5)
C8_45 C 0.13502(6) 0.15749(6) 0.77347(6)
H5_45 H 0.1269 0.1632 0.7656
C9_45 C 0.14262(6) 0.16750(6) 0.78688(6)
H6_45 H 0.1396 0.1797 0.7883
C10_45 C 0.15461(6) 0.15944(6) 0.79816(6)
C11_45 C 0.15892(7) 0.14142(7) 0.79543(7)
H7_45 H 0.1676 0.1356 0.8026
C12_45 C 0.15030(7) 0.13250(6) 0.78218(7)
H8_45 H 0.1527 0.1201 0.7807
C13_45 C 0.18473(6) 0.17141(6) 0.83354(6)
N5_45 N 0.17854(5) 0.16316(6) 0.81910(5)
C14_45 C 0.16264(6) 0.16890(6) 0.81340(6)
N6_45 N 0.15312(5) 0.18216(5) 0.82083(5)
C15_45 C 0.16096(7) 0.18965(6) 0.83505(6)
N7_45 N 0.17661(5) 0.18498(6) 0.84189(6)
C16_45 C 0.22574(7) 0.14407(8) 0.83985(7)
H9_45 H 0.2325 0.1356 0.8333
C17_45 C 0.21149(7) 0.15228(7) 0.83161(7)
H10_45 H 0.2085 0.1495 0.8196
C18_45 C 0.20156(6) 0.16459(7) 0.84111(6)
C19_45 C 0.20699(7) 0.16898(6) 0.85818(7)
H11_45 H 0.2009 0.1779 0.8648
C20_45 C 0.22140(6) 0.16024(6) 0.86541(6)
H12_45 H 0.2251 0.1634 0.8771
N9_36 N 0.13307(5) 0.23049(5) 0.86329(5)
C21_45 C 0.15068(7) 0.22798(7) 0.86509(7)
H13_45 H 0.1570 0.2357 0.8729
C22_45 C 0.16007(7) 0.21502(7) 0.85638(7)
H14_45 H 0.1725 0.2136 0.8584
C23_45 C 0.15112(6) 0.20395(6) 0.84457(6)
C24_45 C 0.13291(7) 0.20696(7) 0.84172(7)
H15_45 H 0.1265 0.2001 0.8332
C25_45 C 0.12451(6) 0.22005(6) 0.85149(7)
H16_45 H 0.1121 0.2218 0.8498
N21_45 N 0.14556(5) 0.10615(5) 0.75073(4)
C57_45 C 0.15956(9) 0.10015(8) 0.74933(7)
S3_45 S 0.18001(3) 0.09255(4) 0.74680(4)
N22_45 N 0.11148(5) 0.10979(5) 0.77097(5)
C58_45 C 0.11498(6) 0.09251(6) 0.77347(6)
H37_45 H 0.1231 0.0868 0.7656
C59_45 C 0.10738(6) 0.08250(6) 0.78688(6)
H38_45 H 0.1104 0.0703 0.7883
C60_45 C 0.09539(6) 0.09056(6) 0.79816(6)
C61_45 C 0.09108(7) 0.10858(7) 0.79543(7)
H39_45 H 0.0824 0.1144 0.8026
C62_45 C 0.09970(7) 0.11750(6) 0.78218(7)
H40_45 H 0.0973 0.1299 0.7807
C63_45 C 0.06527(6) 0.07859(6) 0.83354(6)
N23_45 N 0.07146(5) 0.08684(6) 0.81910(5)
C64_45 C 0.08736(6) 0.08110(6) 0.81340(6)
N24_45 N 0.09688(5) 0.06784(5) 0.82083(5)
C65_45 C 0.08904(7) 0.06035(6) 0.83505(6)
N25_45 N 0.07339(5) 0.06502(6) 0.84189(6)
N28_46 N 0.10247(5) 0.23042(5) 0.89321(5)
N29_46 N 0.10679(5) 0.26958(5) 0.89753(5)
C66_45 C 0.02426(7) 0.10593(8) 0.83985(7)
H41_45 H 0.0175 0.1144 0.8333
C67_45 C 0.03851(7) 0.09772(7) 0.83161(7)
H42_45 H 0.0415 0.1005 0.8196
C68_45 C 0.04844(6) 0.08541(7) 0.84111(6)
C69_45 C 0.04301(7) 0.08102(6) 0.85818(7)
H43_45 H 0.0491 0.0721 0.8648
C70_45 C 0.02860(6) 0.08976(6) 0.86541(6)
H44_45 H 0.0249 0.0866 0.8771
C71_45 C 0.09932(7) 0.02202(7) 0.86509(7)
H45_45 H 0.0930 0.0143 0.8729
C72_45 C 0.08993(7) 0.03498(7) 0.85638(7)
H46_45 H 0.0775 0.0364 0.8584
C73_45 C 0.09888(6) 0.04605(6) 0.84457(6)
C74_45 C 0.11709(7) 0.04304(7) 0.84172(7)
H47_45 H 0.1235 0.0499 0.8332
C75_45 C 0.12549(6) 0.02995(6) 0.85149(7)
H48_45 H 0.1379 0.0282 0.8498
N35_46 N 0.13938(5) 0.24652(5) 0.89942(5)
N36_46 N 0.10058(5) 0.25348(5) 0.86062(5)
C77_46 C 0.14802(7) 0.23583(8) 0.90693(7)
C78_46 C 0.09307(7) 0.26417(8) 0.85198(7)
S5_46 S 0.15991(3) 0.22074(3) 0.91688(3)
S6_46 S 0.08312(3) 0.27926(3) 0.84009(3)
N10_42 N 0.39942(5) 0.74652(5) 0.63938(5)
C26_42 C 0.40693(7) 0.73583(8) 0.64802(7)
S2_42 S 0.41688(3) 0.72074(3) 0.65991(3)
N31_42 N 0.36329(5) 0.73049(5) 0.63307(5)
N32_42 N 0.36693(5) 0.76951(5) 0.63671(5)
N34_42 N 0.36062(5) 0.75348(5) 0.60058(5)
C76_42 C 0.35198(7) 0.76417(8) 0.59307(7)
S4_42 S 0.34009(3) 0.77926(3) 0.58312(3)
N10_43 N 0.61062(5) 0.85058(5) 0.74652(5)
C26_43 C 0.60198(7) 0.84307(7) 0.73583(8)
S2_43 S 0.59009(3) 0.83312(3) 0.72074(3)
N31_43 N 0.61693(5) 0.88671(5) 0.73049(5)
N32_43 N 0.61329(5) 0.88307(5) 0.76951(5)
N34_43 N 0.64942(5) 0.88938(5) 0.75348(5)
C76_43 C 0.65693(7) 0.89802(7) 0.76417(8)
S4_43 S 0.66688(3) 0.90991(3) 0.77926(3)
N10_44 N 0.14942(5) 0.38938(5) 0.75348(5)
C26_44 C 0.15693(7) 0.39802(7) 0.76417(8)
S2_44 S 0.16688(3) 0.40991(3) 0.77926(3)
N31_44 N 0.11329(5) 0.38307(5) 0.76951(5)
N32_44 N 0.11693(5) 0.38671(5) 0.73049(5)
N34_44 N 0.11062(5) 0.35058(5) 0.74652(5)
C76_44 C 0.10198(7) 0.34307(7) 0.73583(8)
S4_44 S 0.09009(3) 0.33312(3) 0.72074(3)
N3_46 N 0.64556(5) 0.60615(5) 0.75073(4)
C7_46 C 0.65956(9) 0.60015(8) 0.74933(7)
S1_46 S 0.68001(3) 0.59255(4) 0.74680(4)
N4_46 N 0.61148(5) 0.60979(5) 0.77097(5)
C8_46 C 0.61498(6) 0.59251(6) 0.77347(6)
H5_46 H 0.6231 0.5868 0.7656
C9_46 C 0.60738(6) 0.58250(6) 0.78688(6)
H6_46 H 0.6104 0.5703 0.7883
C10_46 C 0.59539(6) 0.59056(6) 0.79816(6)
C11_46 C 0.59108(7) 0.60858(7) 0.79543(7)
H7_46 H 0.5824 0.6144 0.8026
C12_46 C 0.59970(7) 0.61750(6) 0.78218(7)
H8_46 H 0.5973 0.6299 0.7807
C13_46 C 0.56527(6) 0.57859(6) 0.83354(6)
N5_46 N 0.57146(5) 0.58684(6) 0.81910(5)
C14_46 C 0.58736(6) 0.58110(6) 0.81340(6)
N6_46 N 0.59688(5) 0.56784(5) 0.82083(5)
C15_46 C 0.58904(7) 0.56035(6) 0.83505(6)
N7_46 N 0.57339(5) 0.56502(6) 0.84189(6)
C16_46 C 0.52426(7) 0.60593(8) 0.83985(7)
H9_46 H 0.5175 0.6144 0.8333
C17_46 C 0.53851(7) 0.59772(7) 0.83161(7)
H10_46 H 0.5415 0.6005 0.8196
C18_46 C 0.54844(6) 0.58541(7) 0.84111(6)
C19_46 C 0.54301(7) 0.58102(6) 0.85818(7)
H11_46 H 0.5491 0.5721 0.8648
C20_46 C 0.52860(6) 0.58976(6) 0.86541(6)
H12_46 H 0.5249 0.5866 0.8771
C21_46 C 0.59932(7) 0.52202(7) 0.86509(7)
H13_46 H 0.5930 0.5143 0.8729
C22_46 C 0.58993(7) 0.53498(7) 0.85638(7)
H14_46 H 0.5775 0.5364 0.8584
C23_46 C 0.59888(6) 0.54605(6) 0.84457(6)
C24_46 C 0.61709(7) 0.54304(7) 0.84172(7)
H15_46 H 0.6235 0.5499 0.8332
C25_46 C 0.62549(6) 0.52995(6) 0.85149(7)
H16_46 H 0.6379 0.5282 0.8498
N21_46 N 0.60444(5) 0.64385(5) 0.75073(4)
C57_46 C 0.59044(9) 0.64985(8) 0.74933(7)
S3_46 S 0.56999(3) 0.65745(4) 0.74680(4)
N22_46 N 0.63852(5) 0.64021(5) 0.77097(5)
C58_46 C 0.63502(6) 0.65749(6) 0.77347(6)
H37_46 H 0.6269 0.6632 0.7656
C59_46 C 0.64262(6) 0.66750(6) 0.78688(6)
H38_46 H 0.6396 0.6797 0.7883
C60_46 C 0.65461(6) 0.65944(6) 0.79816(6)
C61_46 C 0.65892(7) 0.64142(7) 0.79543(7)
H39_46 H 0.6676 0.6356 0.8026
C62_46 C 0.65030(7) 0.63250(6) 0.78218(7)
H40_46 H 0.6527 0.6201 0.7807
C63_46 C 0.68473(6) 0.67141(6) 0.83354(6)
N23_46 N 0.67854(5) 0.66316(6) 0.81910(5)
C64_46 C 0.66264(6) 0.66890(6) 0.81340(6)
N24_46 N 0.65312(5) 0.68216(5) 0.82083(5)
C65_46 C 0.66096(7) 0.68965(6) 0.83505(6)
N25_46 N 0.67661(5) 0.68498(6) 0.84189(6)
N26_34 N 0.73042(5) 0.64753(5) 0.85679(5)
C66_46 C 0.72574(7) 0.64407(8) 0.83985(7)
H41_46 H 0.7325 0.6356 0.8333
C67_46 C 0.71149(7) 0.65228(7) 0.83161(7)
H42_46 H 0.7085 0.6495 0.8196
C68_46 C 0.70156(6) 0.66459(7) 0.84111(6)
C69_46 C 0.70699(7) 0.66898(6) 0.85818(7)
H43_46 H 0.7009 0.6779 0.8648
C70_46 C 0.72140(6) 0.66024(6) 0.86541(6)
H44_46 H 0.7251 0.6634 0.8771
N30_24 N 0.63307(5) 0.73049(5) 0.86329(5)
C71_46 C 0.65068(7) 0.72798(7) 0.86509(7)
H45_46 H 0.6570 0.7357 0.8729
C72_46 C 0.66007(7) 0.71502(7) 0.85638(7)
H46_46 H 0.6725 0.7136 0.8584
C73_46 C 0.65112(6) 0.70395(6) 0.84457(6)
C74_46 C 0.63291(7) 0.70696(7) 0.84172(7)
H47_46 H 0.6265 0.7001 0.8332
C75_46 C 0.62451(6) 0.72005(6) 0.85149(7)
H48_46 H 0.6121 0.7218 0.8498
C7_47 C 0.00067(7) 0.65956(9) 0.14985(8)
S1_47 S 0.00320(4) 0.68001(3) 0.15745(4)
C57_47 C 0.00067(7) 0.59044(9) 0.10015(8)
S3_47 S 0.00320(4) 0.56999(3) 0.09255(4)
N3_47 N 0.99927(4) 0.64556(5) 0.14385(5)
N4_47 N 0.97903(5) 0.61148(5) 0.14021(5)
C8_47 C 0.97653(6) 0.61498(6) 0.15749(6)
H5_47 H 0.9844 0.6231 0.1632
C9_47 C 0.96312(6) 0.60738(6) 0.16750(6)
H6_47 H 0.9617 0.6104 0.1797
C10_47 C 0.95184(6) 0.59539(6) 0.15944(6)
C11_47 C 0.95457(7) 0.59108(7) 0.14142(7)
H7_47 H 0.9474 0.5824 0.1356
C12_47 C 0.96782(7) 0.59970(7) 0.13250(6)
H8_47 H 0.9693 0.5973 0.1201
C13_47 C 0.91646(6) 0.56527(6) 0.17141(6)
N5_47 N 0.93090(5) 0.57146(5) 0.16316(6)
C14_47 C 0.93660(6) 0.58736(6) 0.16890(6)
N6_47 N 0.92917(5) 0.59688(5) 0.18216(5)
C15_47 C 0.91495(6) 0.58904(7) 0.18965(6)
N7_47 N 0.90811(6) 0.57339(5) 0.18498(6)
C16_47 C 0.91015(7) 0.52426(7) 0.14407(8)
H9_47 H 0.9167 0.5175 0.1356
C17_47 C 0.91839(7) 0.53851(7) 0.15228(7)
H10_47 H 0.9304 0.5415 0.1495
C18_47 C 0.90889(6) 0.54844(6) 0.16459(7)
C19_47 C 0.89182(7) 0.54301(7) 0.16898(6)
H11_47 H 0.8852 0.5491 0.1779
C20_47 C 0.88459(6) 0.52860(6) 0.16024(6)
H12_47 H 0.8729 0.5249 0.1634
C21_47 C 0.88491(7) 0.59932(7) 0.22798(7)
H13_47 H 0.8771 0.5930 0.2357
C22_47 C 0.89362(7) 0.58993(7) 0.21502(7)
H14_47 H 0.8916 0.5775 0.2136
C23_47 C 0.90543(6) 0.59888(6) 0.20395(6)
C24_47 C 0.90828(7) 0.61709(7) 0.20696(7)
H15_47 H 0.9168 0.6235 0.2001
C25_47 C 0.89851(7) 0.62549(6) 0.22005(6)
H16_47 H 0.9002 0.6379 0.2218
N21_47 N 0.99927(4) 0.60444(5) 0.10615(5)
N22_47 N 0.97903(5) 0.63852(5) 0.10979(5)
C58_47 C 0.97653(6) 0.63502(6) 0.09251(6)
H37_47 H 0.9844 0.6269 0.0868
C59_47 C 0.96312(6) 0.64262(6) 0.08250(6)
H38_47 H 0.9617 0.6396 0.0703
C60_47 C 0.95184(6) 0.65461(6) 0.09056(6)
C61_47 C 0.95457(7) 0.65892(7) 0.10858(7)
H39_47 H 0.9474 0.6676 0.1144
C62_47 C 0.96782(7) 0.65030(7) 0.11750(6)
H40_47 H 0.9693 0.6527 0.1299
C63_47 C 0.91646(6) 0.68473(6) 0.07859(6)
N23_47 N 0.93090(5) 0.67854(5) 0.08684(6)
C64_47 C 0.93660(6) 0.66264(6) 0.08110(6)
N24_47 N 0.92917(5) 0.65312(5) 0.06784(5)
C65_47 C 0.91495(6) 0.66096(7) 0.06035(6)
N25_47 N 0.90811(6) 0.67661(5) 0.06502(6)
N26_35 N 0.89321(5) 0.73042(5) 0.10247(5)
C66_47 C 0.91015(7) 0.72574(7) 0.10593(8)
H41_47 H 0.9167 0.7325 0.1144
C67_47 C 0.91839(7) 0.71149(7) 0.09772(7)
H42_47 H 0.9304 0.7085 0.1005
C68_47 C 0.90889(6) 0.70156(6) 0.08541(7)
C69_47 C 0.89182(7) 0.70699(7) 0.08102(6)
H43_47 H 0.8852 0.7009 0.0721
C70_47 C 0.88459(6) 0.72140(6) 0.08976(6)
H44_47 H 0.8729 0.7251 0.0866
C71_47 C 0.88491(7) 0.65068(7) 0.02202(7)
H45_47 H 0.8771 0.6570 0.0143
C72_47 C 0.89362(7) 0.66007(7) 0.03498(7)
H46_47 H 0.8916 0.6725 0.0364
C73_47 C 0.90543(6) 0.65112(6) 0.04605(6)
C74_47 C 0.90828(7) 0.63291(7) 0.04304(7)
H47_47 H 0.9168 0.6265 0.0499
C75_47 C 0.89851(7) 0.62451(6) 0.02995(6)
H48_47 H 0.9002 0.6121 0.0282
N10_45 N 0.74652(5) 0.61062(5) 0.85058(5)
C26_45 C 0.73583(8) 0.60198(7) 0.84307(7)
S2_45 S 0.72074(3) 0.59009(3) 0.83312(3)
N28_47 N 0.60247(5) 0.73042(5) 0.89321(5)
N29_47 N 0.60679(5) 0.76958(5) 0.89753(5)
N31_45 N 0.73049(5) 0.61693(5) 0.88671(5)
N32_45 N 0.76951(5) 0.61329(5) 0.88307(5)
N34_45 N 0.75348(5) 0.64942(5) 0.88938(5)
N35_47 N 0.63938(5) 0.74652(5) 0.89942(5)
N36_47 N 0.60058(5) 0.75348(5) 0.86062(5)
C76_45 C 0.76417(8) 0.65693(7) 0.89802(7)
C77_47 C 0.64802(7) 0.73583(8) 0.90693(7)
C78_47 C 0.59307(7) 0.76417(8) 0.85198(7)
S4_45 S 0.77926(3) 0.66688(3) 0.90991(3)
S5_47 S 0.65991(3) 0.72074(3) 0.91688(3)
S6_47 S 0.58312(3) 0.77926(3) 0.84009(3)
C7_48 C 0.00067(7) 0.09044(9) 0.60015(8)
S1_48 S 0.00320(4) 0.06999(3) 0.59255(4)
C57_48 C 0.00067(7) 0.15956(9) 0.64985(8)
S3_48 S 0.00320(4) 0.18001(3) 0.65745(4)
N3_48 N 0.99927(4) 0.10444(5) 0.60615(5)
N4_48 N 0.97903(5) 0.13852(5) 0.60979(5)
C8_48 C 0.97653(6) 0.13502(6) 0.59251(6)
H5_48 H 0.9844 0.1269 0.5868
C9_48 C 0.96312(6) 0.14262(6) 0.58250(6)
H6_48 H 0.9617 0.1396 0.5703
C10_48 C 0.95184(6) 0.15461(6) 0.59056(6)
C11_48 C 0.95457(7) 0.15892(7) 0.60858(7)
H7_48 H 0.9474 0.1676 0.6144
C12_48 C 0.96782(7) 0.15030(7) 0.61750(6)
H8_48 H 0.9693 0.1527 0.6299
C13_48 C 0.91646(6) 0.18473(6) 0.57859(6)
N5_48 N 0.93090(5) 0.17854(5) 0.58684(6)
C14_48 C 0.93660(6) 0.16264(6) 0.58110(6)
N6_48 N 0.92917(5) 0.15312(5) 0.56784(5)
C15_48 C 0.91495(6) 0.16096(7) 0.56035(6)
N7_48 N 0.90811(6) 0.17661(5) 0.56502(6)
N8_26 N 0.89321(5) 0.23042(5) 0.60247(5)
C16_48 C 0.91015(7) 0.22574(7) 0.60593(8)
H9_48 H 0.9167 0.2325 0.6144
C17_48 C 0.91839(7) 0.21149(7) 0.59772(7)
H10_48 H 0.9304 0.2085 0.6005
C18_48 C 0.90889(6) 0.20156(6) 0.58541(7)
C19_48 C 0.89182(7) 0.20699(7) 0.58102(6)
H11_48 H 0.8852 0.2009 0.5721
C20_48 C 0.88459(6) 0.22140(6) 0.58976(6)
H12_48 H 0.8729 0.2251 0.5866
C21_48 C 0.88491(7) 0.15068(7) 0.52202(7)
H13_48 H 0.8771 0.1570 0.5143
C22_48 C 0.89362(7) 0.16007(7) 0.53498(7)
H14_48 H 0.8916 0.1725 0.5364
C23_48 C 0.90543(6) 0.15112(6) 0.54605(6)
C24_48 C 0.90828(7) 0.13291(7) 0.54304(7)
H15_48 H 0.9168 0.1265 0.5499
C25_48 C 0.89851(7) 0.12451(6) 0.52995(6)
H16_48 H 0.9002 0.1121 0.5282
N10_46 N 0.89942(5) 0.24652(5) 0.63938(5)
C26_46 C 0.90693(7) 0.23583(8) 0.64802(7)
S2_46 S 0.91688(3) 0.22074(3) 0.65991(3)
N21_48 N 0.99927(4) 0.14556(5) 0.64385(5)
N22_48 N 0.97903(5) 0.11148(5) 0.64021(5)
C58_48 C 0.97653(6) 0.11498(6) 0.65749(6)
H37_48 H 0.9844 0.1231 0.6632
C59_48 C 0.96312(6) 0.10738(6) 0.66750(6)
H38_48 H 0.9617 0.1104 0.6797
C60_48 C 0.95184(6) 0.09539(6) 0.65944(6)
C61_48 C 0.95457(7) 0.09108(7) 0.64142(7)
H39_48 H 0.9474 0.0824 0.6356
C62_48 C 0.96782(7) 0.09970(7) 0.63250(6)
H40_48 H 0.9693 0.0973 0.6201
C63_48 C 0.91646(6) 0.06527(6) 0.67141(6)
N23_48 N 0.93090(5) 0.07146(5) 0.66316(6)
C64_48 C 0.93660(6) 0.08736(6) 0.66890(6)
N24_48 N 0.92917(5) 0.09688(5) 0.68216(5)
C65_48 C 0.91495(6) 0.08904(7) 0.68965(6)
N25_48 N 0.90811(6) 0.07339(5) 0.68498(6)
C66_48 C 0.91015(7) 0.02426(7) 0.64407(8)
H41_48 H 0.9167 0.0175 0.6356
C67_48 C 0.91839(7) 0.03851(7) 0.65228(7)
H42_48 H 0.9304 0.0415 0.6495
C68_48 C 0.90889(6) 0.04844(6) 0.66459(7)
C69_48 C 0.89182(7) 0.04301(7) 0.66898(6)
H43_48 H 0.8852 0.0491 0.6779
C70_48 C 0.88459(6) 0.02860(6) 0.66024(6)
H44_48 H 0.8729 0.0249 0.6634
N31_46 N 0.86329(5) 0.23049(5) 0.63307(5)
N32_46 N 0.86693(5) 0.26951(5) 0.63671(5)
C71_48 C 0.88491(7) 0.09932(7) 0.72798(7)
H45_48 H 0.8771 0.0930 0.7357
C72_48 C 0.89362(7) 0.08993(7) 0.71502(7)
H46_48 H 0.8916 0.0775 0.7136
C73_48 C 0.90543(6) 0.09888(6) 0.70395(6)
C74_48 C 0.90828(7) 0.11709(7) 0.70696(7)
H47_48 H 0.9168 0.1235 0.7001
C75_48 C 0.89851(7) 0.12549(6) 0.72005(6)
H48_48 H 0.9002 0.1379 0.7218
N34_46 N 0.86062(5) 0.25348(5) 0.60058(5)
C76_46 C 0.85198(7) 0.26417(8) 0.59307(7)
S4_46 S 0.84009(3) 0.27926(3) 0.58312(3)
N10_47 N 0.75348(5) 0.14942(5) 0.38938(5)
C26_47 C 0.76417(8) 0.15693(7) 0.39802(7)
S2_47 S 0.77926(3) 0.16688(3) 0.40991(3)
N31_47 N 0.76951(5) 0.11329(5) 0.38307(5)
N32_47 N 0.73049(5) 0.11693(5) 0.38671(5)
N34_47 N 0.74652(5) 0.11062(5) 0.35058(5)
C76_47 C 0.73583(8) 0.10198(7) 0.34307(7)
S4_47 S 0.72074(3) 0.09009(3) 0.33312(3)
N28_48 N 0.60247(5) 0.23042(5) 0.39321(5)
N29_48 N 0.60679(5) 0.26958(5) 0.39753(5)
N35_48 N 0.63938(5) 0.24652(5) 0.39942(5)
N36_48 N 0.60058(5) 0.25348(5) 0.36062(5)
C77_48 C 0.64802(7) 0.23583(8) 0.40693(7)
C78_48 C 0.59307(7) 0.26417(8) 0.35198(7)
S5_48 S 0.65991(3) 0.22074(3) 0.41688(3)
S6_48 S 0.58312(3) 0.27926(3) 0.34009(3)
N10_48 N 0.89942(5) 0.74652(5) 0.13938(5)
C26_48 C 0.90693(7) 0.73583(8) 0.14802(7)
S2_48 S 0.91688(3) 0.72074(3) 0.15991(3)
N31_48 N 0.86329(5) 0.73049(5) 0.13307(5)
N32_48 N 0.86693(5) 0.76951(5) 0.13671(5)
N34_48 N 0.86062(5) 0.75348(5) 0.10058(5)
C76_48 C 0.85198(7) 0.76417(8) 0.09307(7)
S4_48 S 0.84009(3) 0.77926(3) 0.08312(3)
Co3_13 Co 0.0004 0.8750 0.375000(10)
N1_21 N 0.92990(7) 0.82051(6) 0.40744(6)
C1_21 C 0.91534(8) 0.81356(8) 0.41517(8)
N2_21 N 0.88956(5) 0.77064(6) 0.38859(6)
C2_21 C 0.90628(8) 0.77494(8) 0.38498(8)
H1_21 H 0.9125 0.7681 0.3763
C3_21 C 0.91528(9) 0.78880(8) 0.39305(9)
H2_21 H 0.9271 0.7917 0.3896
C4_21 C 0.90696(8) 0.79824(8) 0.40605(7)
C5_21 C 0.88936(10) 0.79402(10) 0.41012(10)
H3_21 H 0.8831 0.8005 0.4190
C6_21 C 0.88120(11) 0.78022(10) 0.40097(10)
H4_21 H 0.8691 0.7775 0.4036
Co1_12 Co 0.875000(10) 0.7496 0.3750
N3_49 N 0.89385(5) 0.74927(4) 0.35444(5)
C7_49 C 0.89985(8) 0.75067(7) 0.34044(9)
S1_49 S 0.90745(4) 0.75320(4) 0.31999(3)
N4_49 N 0.89021(5) 0.72903(5) 0.38852(5)
C8_49 C 0.90749(6) 0.72653(6) 0.38502(6)
H5_49 H 0.9132 0.7344 0.3769
C9_49 C 0.91750(6) 0.71312(6) 0.39262(6)
H6_49 H 0.9297 0.7117 0.3896
C10_49 C 0.90944(6) 0.70184(6) 0.40461(6)
C11_49 C 0.89142(7) 0.70457(7) 0.40892(7)
H7_49 H 0.8856 0.6974 0.4176
C12_49 C 0.88250(6) 0.71782(7) 0.40030(7)
H8_49 H 0.8701 0.7193 0.4027
C13_49 C 0.92141(6) 0.66646(6) 0.43473(6)
N5_49 N 0.91316(6) 0.68090(5) 0.42854(5)
C14_49 C 0.91890(6) 0.68660(6) 0.41264(6)
N6_49 N 0.93216(5) 0.67917(5) 0.40312(5)
C15_49 C 0.93965(6) 0.66495(6) 0.41096(7)
N7_49 N 0.93498(6) 0.65811(6) 0.42661(5)
C16_49 C 0.89407(8) 0.66015(7) 0.47574(7)
H9_49 H 0.8856 0.6667 0.4825
C17_49 C 0.90228(7) 0.66839(7) 0.46149(7)
H10_49 H 0.8995 0.6804 0.4585
C18_49 C 0.91459(7) 0.65889(6) 0.45156(6)
C19_49 C 0.91898(6) 0.64182(7) 0.45699(7)
H11_49 H 0.9279 0.6352 0.4509
C20_49 C 0.91024(6) 0.63459(6) 0.47140(6)
H12_49 H 0.9134 0.6229 0.4751
C21_49 C 0.97798(7) 0.63491(7) 0.40068(7)
H13_49 H 0.9857 0.6271 0.4070
C22_49 C 0.96502(7) 0.64362(7) 0.41007(7)
H14_49 H 0.9636 0.6416 0.4225
C23_49 C 0.95395(6) 0.65543(6) 0.40112(6)
C24_49 C 0.95696(7) 0.65828(7) 0.38291(7)
H15_49 H 0.9501 0.6668 0.3765
C25_49 C 0.97005(6) 0.64851(7) 0.37451(6)
H16_49 H 0.9718 0.6502 0.3621
N11_21 N 0.90744(6) 0.82010(7) 0.42949(6)
N12_21 N 0.92949(6) 0.84256(6) 0.42990(7)
N13_13 N 0.82010(7) 0.82051(6) 0.34256(6)
N14_13 N 0.84256(6) 0.82010(7) 0.32051(6)
N15_13 N 0.82051(6) 0.84256(6) 0.32010(7)
C27_21 C 0.91517(8) 0.83466(8) 0.43644(8)
C28_21 C 0.93644(8) 0.83483(8) 0.41534(8)
C29_13 C 0.83466(8) 0.81356(8) 0.33483(8)
C30_13 C 0.83483(8) 0.83466(8) 0.31356(8)
C31_13 C 0.81356(8) 0.83483(8) 0.33466(8)
N16_21 N 0.97936(6) 0.86141(6) 0.38956(5)
N17_21 N 0.88859(6) 0.86044(5) 0.47936(6)
N18_13 N 0.86044(5) 0.77064(6) 0.36141(6)
N19_13 N 0.77064(6) 0.86141(6) 0.36044(5)
N20_13 N 0.86141(6) 0.86044(5) 0.27064(6)
C32_21 C 0.97506(8) 0.86502(8) 0.40628(8)
C33_21 C 0.88498(8) 0.84372(8) 0.47506(8)
C34_13 C 0.84372(8) 0.77494(8) 0.36502(8)
C35_13 C 0.77494(8) 0.86502(8) 0.34372(8)
C36_13 C 0.86502(8) 0.84372(8) 0.27494(8)
H17_21 H 0.9819 0.8737 0.4125
H18_21 H 0.8763 0.8375 0.4819
H19_13 H 0.8375 0.7681 0.3737
H20_13 H 0.7681 0.8737 0.3375
H21_13 H 0.8737 0.8375 0.2681
C37_21 C 0.96120(8) 0.85695(9) 0.41528(9)
C38_21 C 0.89305(9) 0.83472(9) 0.46120(8)
C39_13 C 0.83472(9) 0.78880(8) 0.35695(9)
C40_13 C 0.78880(8) 0.85695(9) 0.33472(9)
C41_13 C 0.85695(9) 0.83472(9) 0.28880(8)
H22_21 H 0.9583 0.8604 0.4271
H23_21 H 0.8896 0.8229 0.4583
H24_13 H 0.8229 0.7917 0.3604
H25_13 H 0.7917 0.8604 0.3229
H26_13 H 0.8604 0.8229 0.2917
C42_21 C 0.95176(8) 0.84395(7) 0.40696(8)
C43_21 C 0.90605(7) 0.84304(8) 0.45176(8)
C44_13 C 0.84304(8) 0.79824(8) 0.34395(7)
C45_13 C 0.79824(8) 0.84395(7) 0.34304(8)
C46_13 C 0.84395(7) 0.84304(8) 0.29824(8)
C47_21 C 0.95598(10) 0.83988(10) 0.38936(10)
C48_21 C 0.91012(10) 0.86064(10) 0.45598(10)
C49_13 C 0.86064(10) 0.79402(10) 0.33988(10)
C50_13 C 0.79402(10) 0.83988(10) 0.36064(10)
C51_13 C 0.83988(10) 0.86064(10) 0.29402(10)
H27_21 H 0.9495 0.8310 0.3831
H28_21 H 0.9190 0.8669 0.4495
H29_13 H 0.8669 0.8005 0.3310
H30_13 H 0.8005 0.8310 0.3669
H31_13 H 0.8310 0.8669 0.3005
C52_21 C 0.96978(10) 0.84903(10) 0.38120(11)
C53_21 C 0.90097(10) 0.86880(11) 0.46978(10)
C54_13 C 0.86880(11) 0.78022(10) 0.34903(10)
C55_13 C 0.78022(10) 0.84903(10) 0.36880(11)
C56_13 C 0.84903(10) 0.86880(11) 0.28022(10)
H32_21 H 0.9725 0.8464 0.3691
H33_21 H 0.9036 0.8809 0.4725
H34_13 H 0.8809 0.7775 0.3464
H35_13 H 0.7775 0.8464 0.3809
H36_13 H 0.8464 0.8809 0.2775
Co4_9 Co 0.8750 0.875000(10) 0.5004
Co5_9 Co 0.7496 0.8750 0.375000(10)
Co6_10 Co 0.8750 0.875000(10) 0.2496
N21_49 N 0.85615(5) 0.74927(4) 0.39556(5)
C57_49 C 0.85015(8) 0.75067(7) 0.40956(9)
S3_49 S 0.84255(4) 0.75320(4) 0.43001(3)
N22_49 N 0.85979(5) 0.72903(5) 0.36148(5)
C58_49 C 0.84251(6) 0.72653(6) 0.36498(6)
H37_49 H 0.8368 0.7344 0.3731
C59_49 C 0.83250(6) 0.71312(6) 0.35738(6)
H38_49 H 0.8203 0.7117 0.3604
C60_49 C 0.84056(6) 0.70184(6) 0.34539(6)
C61_49 C 0.85858(7) 0.70457(7) 0.34108(7)
H39_49 H 0.8644 0.6974 0.3324
C62_49 C 0.86750(6) 0.71782(7) 0.34970(7)
H40_49 H 0.8799 0.7193 0.3473
C63_49 C 0.82859(6) 0.66646(6) 0.31527(6)
N23_49 N 0.83684(6) 0.68090(5) 0.32146(5)
C64_49 C 0.83110(6) 0.68660(6) 0.33736(6)
N24_49 N 0.81784(5) 0.67917(5) 0.34688(5)
C65_49 C 0.81035(6) 0.66495(6) 0.33904(7)
N25_49 N 0.81502(6) 0.65811(6) 0.32339(5)
C66_49 C 0.85593(8) 0.66015(7) 0.27426(7)
H41_49 H 0.8644 0.6667 0.2675
C67_49 C 0.84772(7) 0.66839(7) 0.28851(7)
H42_49 H 0.8505 0.6804 0.2915
C68_49 C 0.83541(7) 0.65889(6) 0.29844(6)
C69_49 C 0.83102(6) 0.64182(7) 0.29301(7)
H43_49 H 0.8221 0.6352 0.2991
C70_49 C 0.83976(6) 0.63459(6) 0.27860(6)
H44_49 H 0.8366 0.6229 0.2749
C71_49 C 0.77202(7) 0.63491(7) 0.34932(7)
H45_49 H 0.7643 0.6271 0.3430
C72_49 C 0.78498(7) 0.64362(7) 0.33993(7)
H46_49 H 0.7864 0.6416 0.3275
C73_49 C 0.79605(6) 0.65543(6) 0.34888(6)
C74_49 C 0.79304(7) 0.65828(7) 0.36709(7)
H47_49 H 0.7999 0.6668 0.3735
C75_49 C 0.77995(6) 0.64851(7) 0.37549(6)
H48_49 H 0.7782 0.6502 0.3879
N1_22 N 0.57051(6) 0.67990(7) 0.09256(6)
C1_22 C 0.56356(8) 0.66534(8) 0.08483(8)
N2_22 N 0.52064(6) 0.63956(5) 0.11141(6)
C2_22 C 0.52494(8) 0.65628(8) 0.11502(8)
H1_22 H 0.5181 0.6625 0.1237
C3_22 C 0.53880(8) 0.66528(9) 0.10695(9)
H2_22 H 0.5417 0.6771 0.1104
C4_22 C 0.54824(8) 0.65696(8) 0.09395(7)
C5_22 C 0.54402(10) 0.63936(10) 0.08988(10)
H3_22 H 0.5505 0.6331 0.0810
C6_22 C 0.53022(10) 0.63120(11) 0.09903(10)
H4_22 H 0.5275 0.6191 0.0964
Co1_13 Co 0.4996 0.625000(10) 0.1250
N3_50 N 0.49927(4) 0.64385(5) 0.14556(5)
C7_50 C 0.50067(7) 0.64985(8) 0.15956(9)
S1_50 S 0.50320(4) 0.65745(4) 0.18001(3)
N4_50 N 0.47903(5) 0.64021(5) 0.11148(5)
C8_50 C 0.47653(6) 0.65749(6) 0.11498(6)
H5_50 H 0.4844 0.6632 0.1231
C9_50 C 0.46312(6) 0.66750(6) 0.10738(6)
H6_50 H 0.4617 0.6797 0.1104
C10_50 C 0.45184(6) 0.65944(6) 0.09539(6)
C11_50 C 0.45457(7) 0.64142(7) 0.09108(7)
H7_50 H 0.4474 0.6356 0.0824
C12_50 C 0.46782(7) 0.63250(6) 0.09970(7)
H8_50 H 0.4693 0.6201 0.0973
C13_50 C 0.41646(6) 0.67141(6) 0.06527(6)
N5_50 N 0.43090(5) 0.66316(6) 0.07146(5)
C14_50 C 0.43660(6) 0.66890(6) 0.08736(6)
N6_50 N 0.42917(5) 0.68216(5) 0.09688(5)
C15_50 C 0.41495(6) 0.68965(6) 0.08904(7)
N7_50 N 0.40811(6) 0.68498(6) 0.07339(5)
C16_50 C 0.41015(7) 0.64407(8) 0.02426(7)
H9_50 H 0.4167 0.6356 0.0175
C17_50 C 0.41839(7) 0.65228(7) 0.03851(7)
H10_50 H 0.4304 0.6495 0.0415
C18_50 C 0.40889(6) 0.66459(7) 0.04844(6)
C19_50 C 0.39182(7) 0.66898(6) 0.04301(7)
H11_50 H 0.3852 0.6779 0.0491
C20_50 C 0.38459(6) 0.66024(6) 0.02860(6)
H12_50 H 0.3729 0.6634 0.0249
C21_50 C 0.38491(7) 0.72798(7) 0.09932(7)
H13_50 H 0.3771 0.7357 0.0930
C22_50 C 0.39362(7) 0.71502(7) 0.08993(7)
H14_50 H 0.3916 0.7136 0.0775
C23_50 C 0.40543(6) 0.70395(6) 0.09888(6)
C24_50 C 0.40828(7) 0.70696(7) 0.11709(7)
H15_50 H 0.4168 0.7001 0.1235
C25_50 C 0.39851(7) 0.72005(6) 0.12549(6)
H16_50 H 0.4002 0.7218 0.1379
N11_22 N 0.57010(7) 0.65744(6) 0.07051(6)
N12_22 N 0.59256(6) 0.67949(6) 0.07010(7)
N13_14 N 0.57051(6) 0.57010(7) 0.15744(6)
N14_14 N 0.57010(7) 0.59256(6) 0.17949(6)
N15_14 N 0.59256(6) 0.57051(6) 0.17990(7)
C27_22 C 0.58466(8) 0.66517(8) 0.06356(8)
C28_22 C 0.58483(8) 0.68644(8) 0.08466(8)
C29_14 C 0.56356(8) 0.58466(8) 0.16517(8)
C30_14 C 0.58466(8) 0.58483(8) 0.18644(8)
C31_14 C 0.58483(8) 0.56356(8) 0.16534(8)
N16_22 N 0.61141(6) 0.72936(6) 0.11044(5)
N17_22 N 0.61044(5) 0.63859(6) 0.02064(6)
N18_14 N 0.52064(6) 0.61044(5) 0.13859(6)
N19_14 N 0.61141(6) 0.52064(6) 0.13956(5)
N20_14 N 0.61044(5) 0.61141(6) 0.22936(6)
C32_22 C 0.61502(8) 0.72506(8) 0.09372(8)
C33_22 C 0.59372(8) 0.63498(8) 0.02494(8)
C34_14 C 0.52494(8) 0.59372(8) 0.13498(8)
C35_14 C 0.61502(8) 0.52494(8) 0.15628(8)
C36_14 C 0.59372(8) 0.61502(8) 0.22506(8)
H17_22 H 0.6237 0.7319 0.0875
H18_22 H 0.5875 0.6263 0.0181
H19_14 H 0.5181 0.5875 0.1263
H20_14 H 0.6237 0.5181 0.1625
H21_14 H 0.5875 0.6237 0.2319
C37_22 C 0.60695(9) 0.71120(8) 0.08472(9)
C38_22 C 0.58472(9) 0.64305(9) 0.03880(8)
C39_14 C 0.53880(8) 0.58472(9) 0.14305(9)
C40_14 C 0.60695(9) 0.53880(8) 0.16528(9)
C41_14 C 0.58472(9) 0.60695(9) 0.21120(8)
H22_22 H 0.6104 0.7083 0.0729
H23_22 H 0.5729 0.6396 0.0417
H24_14 H 0.5417 0.5729 0.1396
H25_14 H 0.6104 0.5417 0.1771
H26_14 H 0.5729 0.6104 0.2083
C42_22 C 0.59395(7) 0.70176(8) 0.09304(8)
C43_22 C 0.59304(8) 0.65605(7) 0.04824(8)
C44_14 C 0.54824(8) 0.59304(8) 0.15605(7)
C45_14 C 0.59395(7) 0.54824(8) 0.15696(8)
C46_14 C 0.59304(8) 0.59395(7) 0.20176(8)
C47_22 C 0.58988(10) 0.70598(10) 0.11064(10)
C48_22 C 0.61064(10) 0.66012(10) 0.04402(10)
C49_14 C 0.54402(10) 0.61064(10) 0.16012(10)
C50_14 C 0.58988(10) 0.54402(10) 0.13936(10)
C51_14 C 0.61064(10) 0.58988(10) 0.20598(10)
H27_22 H 0.5810 0.6995 0.1169
H28_22 H 0.6169 0.6690 0.0505
H29_14 H 0.5505 0.6169 0.1690
H30_14 H 0.5810 0.5505 0.1331
H31_14 H 0.6169 0.5810 0.1995
C52_22 C 0.59903(10) 0.71978(10) 0.11880(11)
C53_22 C 0.61880(11) 0.65097(10) 0.03022(10)
C54_14 C 0.53022(10) 0.61880(11) 0.15097(10)
C55_14 C 0.59903(10) 0.53022(10) 0.13120(11)
C56_14 C 0.61880(11) 0.59903(10) 0.21978(10)
H32_22 H 0.5964 0.7225 0.1309
H33_22 H 0.6309 0.6536 0.0275
H34_14 H 0.5275 0.6309 0.1536
H35_14 H 0.5964 0.5275 0.1191
H36_14 H 0.6309 0.5964 0.2225
Co3_14 Co 0.6250 0.7504 0.125000(10)
Co5_10 Co 0.6250 0.4996 0.125000(10)
Co6_11 Co 0.625000(10) 0.6250 0.2504
N21_50 N 0.49927(4) 0.60615(5) 0.10444(5)
C57_50 C 0.50067(7) 0.60015(8) 0.09044(9)
S3_50 S 0.50320(4) 0.59255(4) 0.06999(3)
N22_50 N 0.47903(5) 0.60979(5) 0.13852(5)
C58_50 C 0.47653(6) 0.59251(6) 0.13502(6)
H37_50 H 0.4844 0.5868 0.1269
C59_50 C 0.46312(6) 0.58250(6) 0.14262(6)
H38_50 H 0.4617 0.5703 0.1396
C60_50 C 0.45184(6) 0.59056(6) 0.15461(6)
C61_50 C 0.45457(7) 0.60858(7) 0.15892(7)
H39_50 H 0.4474 0.6144 0.1676
C62_50 C 0.46782(7) 0.61750(6) 0.15030(7)
H40_50 H 0.4693 0.6299 0.1527
C63_50 C 0.41646(6) 0.57859(6) 0.18473(6)
N23_50 N 0.43090(5) 0.58684(6) 0.17854(5)
C64_50 C 0.43660(6) 0.58110(6) 0.16264(6)
N24_50 N 0.42917(5) 0.56784(5) 0.15312(5)
C65_50 C 0.41495(6) 0.56035(6) 0.16096(7)
N25_50 N 0.40811(6) 0.56502(6) 0.17661(5)
C66_50 C 0.41015(7) 0.60593(8) 0.22574(7)
H41_50 H 0.4167 0.6144 0.2325
C67_50 C 0.41839(7) 0.59772(7) 0.21149(7)
H42_50 H 0.4304 0.6005 0.2085
C68_50 C 0.40889(6) 0.58541(7) 0.20156(6)
C69_50 C 0.39182(7) 0.58102(6) 0.20699(7)
H43_50 H 0.3852 0.5721 0.2009
C70_50 C 0.38459(6) 0.58976(6) 0.22140(6)
H44_50 H 0.3729 0.5866 0.2251
C71_50 C 0.38491(7) 0.52202(7) 0.15068(7)
H45_50 H 0.3771 0.5143 0.1570
C72_50 C 0.39362(7) 0.53498(7) 0.16007(7)
H46_50 H 0.3916 0.5364 0.1725
C73_50 C 0.40543(6) 0.54605(6) 0.15112(6)
C74_50 C 0.40828(7) 0.54304(7) 0.13291(7)
H47_50 H 0.4168 0.5499 0.1265
C75_50 C 0.39851(7) 0.52995(6) 0.12451(6)
H48_50 H 0.4002 0.5282 0.1121
Co4_10 Co 0.625000(10) 0.6250 0.9996
N1_23 N 0.67990(7) 0.59256(6) 0.07051(6)
C1_23 C 0.66534(8) 0.58483(8) 0.06356(8)
N2_23 N 0.63956(5) 0.61141(6) 0.02064(6)
C2_23 C 0.65628(8) 0.61502(8) 0.02494(8)
H1_23 H 0.6625 0.6237 0.0181
C3_23 C 0.66528(9) 0.60695(9) 0.03880(8)
H2_23 H 0.6771 0.6104 0.0417
C4_23 C 0.65696(8) 0.59395(7) 0.04824(8)
C5_23 C 0.63936(10) 0.58988(10) 0.04402(10)
H3_23 H 0.6331 0.5810 0.0505
C6_23 C 0.63120(11) 0.59903(10) 0.03022(10)
H4_23 H 0.6191 0.5964 0.0275
C7_51 C 0.64985(8) 0.65956(9) 0.00067(7)
S1_51 S 0.65745(4) 0.68001(3) 0.00320(4)
N11_23 N 0.65744(6) 0.57051(6) 0.07010(7)
N12_23 N 0.67949(6) 0.57010(7) 0.09256(6)
C27_23 C 0.66517(8) 0.56356(8) 0.08466(8)
C28_23 C 0.68644(8) 0.58466(8) 0.08483(8)
N16_23 N 0.72936(6) 0.61044(5) 0.11141(6)
N17_23 N 0.63859(6) 0.52064(6) 0.11044(5)
C32_23 C 0.72506(8) 0.59372(8) 0.11502(8)
C33_23 C 0.63498(8) 0.52494(8) 0.09372(8)
H17_23 H 0.7319 0.5875 0.1237
H18_23 H 0.6263 0.5181 0.0875
C37_23 C 0.71120(8) 0.58472(9) 0.10695(9)
C38_23 C 0.64305(9) 0.53880(8) 0.08472(9)
H22_23 H 0.7083 0.5729 0.1104
H23_23 H 0.6396 0.5417 0.0729
C42_23 C 0.70176(8) 0.59304(8) 0.09395(7)
C43_23 C 0.65605(7) 0.54824(8) 0.09304(8)
C47_23 C 0.70598(10) 0.61064(10) 0.08988(10)
C48_23 C 0.66012(10) 0.54402(10) 0.11064(10)
H27_23 H 0.6995 0.6169 0.0810
H28_23 H 0.6690 0.5505 0.1169
C52_23 C 0.71978(10) 0.61880(11) 0.09903(10)
C53_23 C 0.65097(10) 0.53022(10) 0.11880(11)
H32_23 H 0.7225 0.6309 0.0964
H33_23 H 0.6536 0.5275 0.1309
Co3_15 Co 0.7504 0.625000(10) 0.1250
C57_51 C 0.60015(8) 0.59044(9) 0.00067(7)
S3_51 S 0.59255(4) 0.56999(3) 0.00320(4)
N3_51 N 0.64385(5) 0.64556(5) 0.99927(4)
N4_51 N 0.64021(5) 0.61148(5) 0.97903(5)
C8_51 C 0.65749(6) 0.61498(6) 0.97653(6)
H5_51 H 0.6632 0.6231 0.9844
C9_51 C 0.66750(6) 0.60738(6) 0.96312(6)
H6_51 H 0.6797 0.6104 0.9617
C10_51 C 0.65944(6) 0.59539(6) 0.95184(6)
C11_51 C 0.64142(7) 0.59108(7) 0.95457(7)
H7_51 H 0.6356 0.5824 0.9474
C12_51 C 0.63250(6) 0.59970(7) 0.96782(7)
H8_51 H 0.6201 0.5973 0.9693
C13_51 C 0.67141(6) 0.56527(6) 0.91646(6)
N5_51 N 0.66316(6) 0.57146(5) 0.93090(5)
C14_51 C 0.66890(6) 0.58736(6) 0.93660(6)
N6_51 N 0.68216(5) 0.59688(5) 0.92917(5)
C15_51 C 0.68965(6) 0.58904(7) 0.91495(6)
N7_51 N 0.68498(6) 0.57339(5) 0.90811(6)
C16_51 C 0.64407(8) 0.52426(7) 0.91015(7)
H9_51 H 0.6356 0.5175 0.9167
C17_51 C 0.65228(7) 0.53851(7) 0.91839(7)
H10_51 H 0.6495 0.5415 0.9304
C18_51 C 0.66459(7) 0.54844(6) 0.90889(6)
C19_51 C 0.66898(6) 0.54301(7) 0.89182(7)
H11_51 H 0.6779 0.5491 0.8852
C20_51 C 0.66024(6) 0.52860(6) 0.88459(6)
H12_51 H 0.6634 0.5249 0.8729
C21_51 C 0.72798(7) 0.59932(7) 0.88491(7)
H13_51 H 0.7357 0.5930 0.8771
C22_51 C 0.71502(7) 0.58993(7) 0.89362(7)
H14_51 H 0.7136 0.5775 0.8916
C23_51 C 0.70395(6) 0.59888(6) 0.90543(6)
C24_51 C 0.70696(7) 0.61709(7) 0.90828(7)
H15_51 H 0.7001 0.6235 0.9168
C25_51 C 0.72005(6) 0.62549(6) 0.89851(7)
H16_51 H 0.7218 0.6379 0.9002
N21_51 N 0.60615(5) 0.60444(5) 0.99927(4)
N22_51 N 0.60979(5) 0.63852(5) 0.97903(5)
C58_51 C 0.59251(6) 0.63502(6) 0.97653(6)
H37_51 H 0.5868 0.6269 0.9844
C59_51 C 0.58250(6) 0.64262(6) 0.96312(6)
H38_51 H 0.5703 0.6396 0.9617
C60_51 C 0.59056(6) 0.65461(6) 0.95184(6)
C61_51 C 0.60858(7) 0.65892(7) 0.95457(7)
H39_51 H 0.6144 0.6676 0.9474
C62_51 C 0.61750(6) 0.65030(7) 0.96782(7)
H40_51 H 0.6299 0.6527 0.9693
C63_51 C 0.57859(6) 0.68473(6) 0.91646(6)
N23_51 N 0.58684(6) 0.67854(5) 0.93090(5)
C64_51 C 0.58110(6) 0.66264(6) 0.93660(6)
N24_51 N 0.56784(5) 0.65312(5) 0.92917(5)
C65_51 C 0.56035(6) 0.66096(7) 0.91495(6)
N25_51 N 0.56502(6) 0.67661(5) 0.90811(6)
C66_51 C 0.60593(8) 0.72574(7) 0.91015(7)
H41_51 H 0.6144 0.7325 0.9167
C67_51 C 0.59772(7) 0.71149(7) 0.91839(7)
H42_51 H 0.6005 0.7085 0.9304
C68_51 C 0.58541(7) 0.70156(6) 0.90889(6)
C69_51 C 0.58102(6) 0.70699(7) 0.89182(7)
H43_51 H 0.5721 0.7009 0.8852
C70_51 C 0.58976(6) 0.72140(6) 0.88459(6)
H44_51 H 0.5866 0.7251 0.8729
C71_51 C 0.52202(7) 0.65068(7) 0.88491(7)
H45_51 H 0.5143 0.6570 0.8771
C72_51 C 0.53498(7) 0.66007(7) 0.89362(7)
H46_51 H 0.5364 0.6725 0.8916
C73_51 C 0.54605(6) 0.65112(6) 0.90543(6)
C74_51 C 0.54304(7) 0.63291(7) 0.90828(7)
H47_51 H 0.5499 0.6265 0.9168
C75_51 C 0.52995(6) 0.62451(6) 0.89851(7)
H48_51 H 0.5282 0.6121 0.9002
N3_52 N 0.64556(5) 0.49927(4) 0.14385(5)
C7_52 C 0.65956(9) 0.50067(7) 0.14985(8)
S1_52 S 0.68001(3) 0.50320(4) 0.15745(4)
N4_52 N 0.61148(5) 0.47903(5) 0.14021(5)
C8_52 C 0.61498(6) 0.47653(6) 0.15749(6)
H5_52 H 0.6231 0.4844 0.1632
C9_52 C 0.60738(6) 0.46312(6) 0.16750(6)
H6_52 H 0.6104 0.4617 0.1797
C10_52 C 0.59539(6) 0.45184(6) 0.15944(6)
C11_52 C 0.59108(7) 0.45457(7) 0.14142(7)
H7_52 H 0.5824 0.4474 0.1356
C12_52 C 0.59970(7) 0.46782(7) 0.13250(6)
H8_52 H 0.5973 0.4693 0.1201
C13_52 C 0.56527(6) 0.41646(6) 0.17141(6)
N5_52 N 0.57146(5) 0.43090(5) 0.16316(6)
C14_52 C 0.58736(6) 0.43660(6) 0.16890(6)
N6_52 N 0.59688(5) 0.42917(5) 0.18216(5)
C15_52 C 0.58904(7) 0.41495(6) 0.18965(6)
N7_52 N 0.57339(5) 0.40811(6) 0.18498(6)
C16_52 C 0.52426(7) 0.41015(7) 0.14407(8)
H9_52 H 0.5175 0.4167 0.1356
C17_52 C 0.53851(7) 0.41839(7) 0.15228(7)
H10_52 H 0.5415 0.4304 0.1495
C18_52 C 0.54844(6) 0.40889(6) 0.16459(7)
C19_52 C 0.54301(7) 0.39182(7) 0.16898(6)
H11_52 H 0.5491 0.3852 0.1779
C20_52 C 0.52860(6) 0.38459(6) 0.16024(6)
H12_52 H 0.5249 0.3729 0.1634
C21_52 C 0.59932(7) 0.38491(7) 0.22798(7)
H13_52 H 0.5930 0.3771 0.2357
C22_52 C 0.58993(7) 0.39362(7) 0.21502(7)
H14_52 H 0.5775 0.3916 0.2136
C23_52 C 0.59888(6) 0.40543(6) 0.20395(6)
C24_52 C 0.61709(7) 0.40828(7) 0.20696(7)
H15_52 H 0.6235 0.4168 0.2001
C25_52 C 0.62549(6) 0.39851(7) 0.22005(6)
H16_52 H 0.6379 0.4002 0.2218
N21_52 N 0.60444(5) 0.49927(4) 0.10615(5)
C57_52 C 0.59044(9) 0.50067(7) 0.10015(8)
S3_52 S 0.56999(3) 0.50320(4) 0.09255(4)
N22_52 N 0.63852(5) 0.47903(5) 0.10979(5)
C58_52 C 0.63502(6) 0.47653(6) 0.09251(6)
H37_52 H 0.6269 0.4844 0.0868
C59_52 C 0.64262(6) 0.46312(6) 0.08250(6)
H38_52 H 0.6396 0.4617 0.0703
C60_52 C 0.65461(6) 0.45184(6) 0.09056(6)
C61_52 C 0.65892(7) 0.45457(7) 0.10858(7)
H39_52 H 0.6676 0.4474 0.1144
C62_52 C 0.65030(7) 0.46782(7) 0.11750(6)
H40_52 H 0.6527 0.4693 0.1299
C63_52 C 0.68473(6) 0.41646(6) 0.07859(6)
N23_52 N 0.67854(5) 0.43090(5) 0.08684(6)
C64_52 C 0.66264(6) 0.43660(6) 0.08110(6)
N24_52 N 0.65312(5) 0.42917(5) 0.06784(5)
C65_52 C 0.66096(7) 0.41495(6) 0.06035(6)
N25_52 N 0.67661(5) 0.40811(6) 0.06502(6)
C66_52 C 0.72574(7) 0.41015(7) 0.10593(8)
H41_52 H 0.7325 0.4167 0.1144
C67_52 C 0.71149(7) 0.41839(7) 0.09772(7)
H42_52 H 0.7085 0.4304 0.1005
C68_52 C 0.70156(6) 0.40889(6) 0.08541(7)
C69_52 C 0.70699(7) 0.39182(7) 0.08102(6)
H43_52 H 0.7009 0.3852 0.0721
C70_52 C 0.72140(6) 0.38459(6) 0.08976(6)
H44_52 H 0.7251 0.3729 0.0866
C71_52 C 0.65068(7) 0.38491(7) 0.02202(7)
H45_52 H 0.6570 0.3771 0.0143
C72_52 C 0.66007(7) 0.39362(7) 0.03498(7)
H46_52 H 0.6725 0.3916 0.0364
C73_52 C 0.65112(6) 0.40543(6) 0.04605(6)
C74_52 C 0.63291(7) 0.40828(7) 0.04304(7)
H47_52 H 0.6265 0.4168 0.0499
C75_52 C 0.62451(6) 0.39851(7) 0.02995(6)
H48_52 H 0.6121 0.4002 0.0282
Co3_16 Co 0.375000(10) 0.0004 0.8750
Co1_14 Co 0.3750 0.875000(10) 0.0004
N3_53 N 0.39556(5) 0.89385(5) 0.00073(4)
N4_53 N 0.36148(5) 0.89021(5) 0.02097(5)
C8_53 C 0.36498(6) 0.90749(6) 0.02347(6)
H5_53 H 0.3731 0.9132 0.0156
C9_53 C 0.35738(6) 0.91750(6) 0.03688(6)
H6_53 H 0.3604 0.9297 0.0383
C10_53 C 0.34539(6) 0.90944(6) 0.04816(6)
C11_53 C 0.34108(7) 0.89142(7) 0.04543(7)
H7_53 H 0.3324 0.8856 0.0526
C12_53 C 0.34970(7) 0.88250(6) 0.03218(7)
H8_53 H 0.3473 0.8701 0.0307
C13_53 C 0.31527(6) 0.92141(6) 0.08354(6)
N5_53 N 0.32146(5) 0.91316(6) 0.06910(5)
C14_53 C 0.33736(6) 0.91890(6) 0.06340(6)
N6_53 N 0.34688(5) 0.93216(5) 0.07083(5)
C15_53 C 0.33904(7) 0.93965(6) 0.08505(6)
N7_53 N 0.32339(5) 0.93498(6) 0.09189(6)
C16_53 C 0.27426(7) 0.89407(8) 0.08985(7)
H9_53 H 0.2675 0.8856 0.0833
C17_53 C 0.28851(7) 0.90228(7) 0.08161(7)
H10_53 H 0.2915 0.8995 0.0696
C18_53 C 0.29844(6) 0.91459(7) 0.09111(6)
C19_53 C 0.29301(7) 0.91898(6) 0.10818(7)
H11_53 H 0.2991 0.9279 0.1148
C20_53 C 0.27860(6) 0.91024(6) 0.11541(6)
H12_53 H 0.2749 0.9134 0.1271
C21_53 C 0.34932(7) 0.97798(7) 0.11509(7)
H13_53 H 0.3430 0.9857 0.1229
C22_53 C 0.33993(7) 0.96502(7) 0.10638(7)
H14_53 H 0.3275 0.9636 0.1084
C23_53 C 0.34888(6) 0.95395(6) 0.09457(6)
C24_53 C 0.36709(7) 0.95696(7) 0.09172(7)
H15_53 H 0.3735 0.9501 0.0832
C25_53 C 0.37549(6) 0.97005(6) 0.10149(7)
H16_53 H 0.3879 0.9718 0.0998
N21_53 N 0.35444(5) 0.85615(5) 0.00073(4)
N22_53 N 0.38852(5) 0.85979(5) 0.02097(5)
C58_53 C 0.38502(6) 0.84251(6) 0.02347(6)
H37_53 H 0.3769 0.8368 0.0156
C59_53 C 0.39262(6) 0.83250(6) 0.03688(6)
H38_53 H 0.3896 0.8203 0.0383
C60_53 C 0.40461(6) 0.84056(6) 0.04816(6)
C61_53 C 0.40892(7) 0.85858(7) 0.04543(7)
H39_53 H 0.4176 0.8644 0.0526
C62_53 C 0.40030(7) 0.86750(6) 0.03218(7)
H40_53 H 0.4027 0.8799 0.0307
C63_53 C 0.43473(6) 0.82859(6) 0.08354(6)
N23_53 N 0.42854(5) 0.83684(6) 0.06910(5)
C64_53 C 0.41264(6) 0.83110(6) 0.06340(6)
N24_53 N 0.40312(5) 0.81784(5) 0.07083(5)
C65_53 C 0.41096(7) 0.81035(6) 0.08505(6)
N25_53 N 0.42661(5) 0.81502(6) 0.09189(6)
C66_53 C 0.47574(7) 0.85593(8) 0.08985(7)
H41_53 H 0.4825 0.8644 0.0833
C67_53 C 0.46149(7) 0.84772(7) 0.08161(7)
H42_53 H 0.4585 0.8505 0.0696
C68_53 C 0.45156(6) 0.83541(7) 0.09111(6)
C69_53 C 0.45699(7) 0.83102(6) 0.10818(7)
H43_53 H 0.4509 0.8221 0.1148
C70_53 C 0.47140(6) 0.83976(6) 0.11541(6)
H44_53 H 0.4751 0.8366 0.1271
C71_53 C 0.40068(7) 0.77202(7) 0.11509(7)
H45_53 H 0.4070 0.7643 0.1229
C72_53 C 0.41007(7) 0.78498(7) 0.10638(7)
H46_53 H 0.4225 0.7864 0.1084
C73_53 C 0.40112(6) 0.79605(6) 0.09457(6)
C74_53 C 0.38291(7) 0.79304(7) 0.09172(7)
H47_53 H 0.3765 0.7999 0.0832
C75_53 C 0.37451(6) 0.77995(6) 0.10149(7)
H48_53 H 0.3621 0.7782 0.0998
N1_24 N 0.34256(6) 0.92990(7) 0.92949(6)
C1_24 C 0.33483(8) 0.91534(8) 0.93644(8)
N2_24 N 0.36141(6) 0.88956(5) 0.97936(6)
C2_24 C 0.36502(8) 0.90628(8) 0.97506(8)
H1_24 H 0.3737 0.9125 0.9819
C3_24 C 0.35695(9) 0.91528(9) 0.96120(8)
H2_24 H 0.3604 0.9271 0.9583
C4_24 C 0.34395(7) 0.90696(8) 0.95176(8)
C5_24 C 0.33988(10) 0.88936(10) 0.95598(10)
H3_24 H 0.3310 0.8831 0.9495
C6_24 C 0.34903(10) 0.88120(11) 0.96978(10)
H4_24 H 0.3464 0.8691 0.9725
C7_53 C 0.40956(9) 0.89985(8) 0.99933(7)
S1_53 S 0.43001(3) 0.90745(4) 0.99680(4)
N11_24 N 0.32051(6) 0.90744(6) 0.92990(7)
N12_24 N 0.32010(7) 0.92949(6) 0.90744(6)
N13_15 N 0.40744(6) 0.82010(7) 0.92949(6)
N14_15 N 0.42949(6) 0.84256(6) 0.92990(7)
N15_15 N 0.42990(7) 0.82051(6) 0.90744(6)
C27_24 C 0.31356(8) 0.91517(8) 0.91534(8)
C28_24 C 0.33466(8) 0.93644(8) 0.91517(8)
C29_15 C 0.41517(8) 0.83466(8) 0.93644(8)
C30_15 C 0.43644(8) 0.83483(8) 0.91534(8)
C31_15 C 0.41534(8) 0.81356(8) 0.91517(8)
N16_24 N 0.36044(5) 0.97936(6) 0.88859(6)
N17_24 N 0.27064(6) 0.88859(6) 0.88956(5)
N18_15 N 0.38859(6) 0.86044(5) 0.97936(6)
N19_15 N 0.38956(5) 0.77064(6) 0.88859(6)
N20_15 N 0.47936(6) 0.86141(6) 0.88956(5)
C32_24 C 0.34372(8) 0.97506(8) 0.88498(8)
C33_24 C 0.27494(8) 0.88498(8) 0.90628(8)
C34_15 C 0.38498(8) 0.84372(8) 0.97506(8)
C35_15 C 0.40628(8) 0.77494(8) 0.88498(8)
C36_15 C 0.47506(8) 0.86502(8) 0.90628(8)
H17_24 H 0.3375 0.9819 0.8763
H18_24 H 0.2681 0.8763 0.9125
H19_15 H 0.3763 0.8375 0.9819
H20_15 H 0.4125 0.7681 0.8763
H21_15 H 0.4819 0.8737 0.9125
C37_24 C 0.33472(9) 0.96120(8) 0.89305(9)
C38_24 C 0.28880(8) 0.89305(9) 0.91528(9)
C39_15 C 0.39305(9) 0.83472(9) 0.96120(8)
C40_15 C 0.41528(9) 0.78880(8) 0.89305(9)
C41_15 C 0.46120(8) 0.85695(9) 0.91528(9)
H22_24 H 0.3229 0.9583 0.8896
H23_24 H 0.2917 0.8896 0.9271
H24_15 H 0.3896 0.8229 0.9583
H25_15 H 0.4271 0.7917 0.8896
H26_15 H 0.4583 0.8604 0.9271
C42_24 C 0.34304(8) 0.95176(8) 0.90605(7)
C43_24 C 0.29824(8) 0.90605(7) 0.90696(8)
C44_15 C 0.40605(7) 0.84304(8) 0.95176(8)
C45_15 C 0.40696(8) 0.79824(8) 0.90605(7)
C46_15 C 0.45176(8) 0.84395(7) 0.90696(8)
C47_24 C 0.36064(10) 0.95598(10) 0.91012(10)
C48_24 C 0.29402(10) 0.91012(10) 0.88936(10)
C49_15 C 0.41012(10) 0.86064(10) 0.95598(10)
C50_15 C 0.38936(10) 0.79402(10) 0.91012(10)
C51_15 C 0.45598(10) 0.83988(10) 0.88936(10)
H27_24 H 0.3669 0.9495 0.9190
H28_24 H 0.3005 0.9190 0.8831
H29_15 H 0.4190 0.8669 0.9495
H30_15 H 0.3831 0.8005 0.9190
H31_15 H 0.4495 0.8310 0.8831
C52_24 C 0.36880(11) 0.96978(10) 0.90097(10)
C53_24 C 0.28022(10) 0.90097(10) 0.88120(11)
C54_15 C 0.40097(10) 0.86880(11) 0.96978(10)
C55_15 C 0.38120(11) 0.78022(10) 0.90097(10)
C56_15 C 0.46978(10) 0.84903(10) 0.88120(11)
H32_24 H 0.3809 0.9725 0.9036
H33_24 H 0.2775 0.9036 0.8691
H34_15 H 0.4036 0.8809 0.9725
H35_15 H 0.3691 0.7775 0.9036
H36_15 H 0.4725 0.8464 0.8691
Co4_11 Co 0.2496 0.8750 0.875000(10)
Co5_11 Co 0.375000(10) 0.7496 0.8750
Co6_12 Co 0.5004 0.8750 0.875000(10)
C57_53 C 0.34044(9) 0.85015(8) 0.99933(7)
S3_53 S 0.31999(3) 0.84255(4) 0.99680(4)
N1_25 N 0.67990(7) 0.65744(6) 0.17949(6)
C1_25 C 0.66534(8) 0.66517(8) 0.18644(8)
N2_25 N 0.63956(5) 0.63859(6) 0.22936(6)
C2_25 C 0.65628(8) 0.63498(8) 0.22506(8)
H1_25 H 0.6625 0.6263 0.2319
C3_25 C 0.66528(9) 0.64305(9) 0.21120(8)
H2_25 H 0.6771 0.6396 0.2083
C4_25 C 0.65696(8) 0.65605(7) 0.20176(8)
C5_25 C 0.63936(10) 0.66012(10) 0.20598(10)
H3_25 H 0.6331 0.6690 0.1995
C6_25 C 0.63120(11) 0.65097(10) 0.21978(10)
H4_25 H 0.6191 0.6536 0.2225
N3_54 N 0.64385(5) 0.60444(5) 0.25073(4)
C7_54 C 0.64985(8) 0.59044(9) 0.24933(7)
S1_54 S 0.65745(4) 0.56999(3) 0.24680(4)
N4_54 N 0.64021(5) 0.63852(5) 0.27097(5)
C8_54 C 0.65749(6) 0.63502(6) 0.27347(6)
H5_54 H 0.6632 0.6269 0.2656
C9_54 C 0.66750(6) 0.64262(6) 0.28688(6)
H6_54 H 0.6797 0.6396 0.2883
C10_54 C 0.65944(6) 0.65461(6) 0.29816(6)
C11_54 C 0.64142(7) 0.65892(7) 0.29543(7)
H7_54 H 0.6356 0.6676 0.3026
C12_54 C 0.63250(6) 0.65030(7) 0.28218(7)
H8_54 H 0.6201 0.6527 0.2807
C13_54 C 0.67141(6) 0.68473(6) 0.33354(6)
N5_54 N 0.66316(6) 0.67854(5) 0.31910(5)
C14_54 C 0.66890(6) 0.66264(6) 0.31340(6)
N6_54 N 0.68216(5) 0.65312(5) 0.32083(5)
C15_54 C 0.68965(6) 0.66096(7) 0.33505(6)
N7_54 N 0.68498(6) 0.67661(5) 0.34189(6)
C16_54 C 0.64407(8) 0.72574(7) 0.33985(7)
H9_54 H 0.6356 0.7325 0.3333
C17_54 C 0.65228(7) 0.71149(7) 0.33161(7)
H10_54 H 0.6495 0.7085 0.3196
C18_54 C 0.66459(7) 0.70156(6) 0.34111(6)
C19_54 C 0.66898(6) 0.70699(7) 0.35818(7)
H11_54 H 0.6779 0.7009 0.3648
C20_54 C 0.66024(6) 0.72140(6) 0.36541(6)
H12_54 H 0.6634 0.7251 0.3771
C21_54 C 0.72798(7) 0.65068(7) 0.36509(7)
H13_54 H 0.7357 0.6570 0.3729
C22_54 C 0.71502(7) 0.66007(7) 0.35638(7)
H14_54 H 0.7136 0.6725 0.3584
C23_54 C 0.70395(6) 0.65112(6) 0.34457(6)
C24_54 C 0.70696(7) 0.63291(7) 0.34172(7)
H15_54 H 0.7001 0.6265 0.3332
C25_54 C 0.72005(6) 0.62451(6) 0.35149(7)
H16_54 H 0.7218 0.6121 0.3498
N11_25 N 0.65744(6) 0.67949(6) 0.17990(7)
N12_25 N 0.67949(6) 0.67990(7) 0.15744(6)
C27_25 C 0.66517(8) 0.68644(8) 0.16534(8)
C28_25 C 0.68644(8) 0.66534(8) 0.16517(8)
N16_25 N 0.72936(6) 0.63956(5) 0.13859(6)
N17_25 N 0.63859(6) 0.72936(6) 0.13956(5)
C32_25 C 0.72506(8) 0.65628(8) 0.13498(8)
C33_25 C 0.63498(8) 0.72506(8) 0.15628(8)
H17_25 H 0.7319 0.6625 0.1263
H18_25 H 0.6263 0.7319 0.1625
C37_25 C 0.71120(8) 0.66528(9) 0.14305(9)
C38_25 C 0.64305(9) 0.71120(8) 0.16528(9)
H22_25 H 0.7083 0.6771 0.1396
H23_25 H 0.6396 0.7083 0.1771
C42_25 C 0.70176(8) 0.65696(8) 0.15605(7)
C43_25 C 0.65605(7) 0.70176(8) 0.15696(8)
C47_25 C 0.70598(10) 0.63936(10) 0.16012(10)
C48_25 C 0.66012(10) 0.70598(10) 0.13936(10)
H27_25 H 0.6995 0.6331 0.1690
H28_25 H 0.6690 0.6995 0.1331
C52_25 C 0.71978(10) 0.63120(11) 0.15097(10)
C53_25 C 0.65097(10) 0.71978(10) 0.13120(11)
H32_25 H 0.7225 0.6191 0.1536
H33_25 H 0.6536 0.7225 0.1191
N21_54 N 0.60615(5) 0.64556(5) 0.25073(4)
C57_54 C 0.60015(8) 0.65956(9) 0.24933(7)
S3_54 S 0.59255(4) 0.68001(3) 0.24680(4)
N22_54 N 0.60979(5) 0.61148(5) 0.27097(5)
C58_54 C 0.59251(6) 0.61498(6) 0.27347(6)
H37_54 H 0.5868 0.6231 0.2656
C59_54 C 0.58250(6) 0.60738(6) 0.28688(6)
H38_54 H 0.5703 0.6104 0.2883
C60_54 C 0.59056(6) 0.59539(6) 0.29816(6)
C61_54 C 0.60858(7) 0.59108(7) 0.29543(7)
H39_54 H 0.6144 0.5824 0.3026
C62_54 C 0.61750(6) 0.59970(7) 0.28218(7)
H40_54 H 0.6299 0.5973 0.2807
C63_54 C 0.57859(6) 0.56527(6) 0.33354(6)
N23_54 N 0.58684(6) 0.57146(5) 0.31910(5)
C64_54 C 0.58110(6) 0.58736(6) 0.31340(6)
N24_54 N 0.56784(5) 0.59688(5) 0.32083(5)
C65_54 C 0.56035(6) 0.58904(7) 0.33505(6)
N25_54 N 0.56502(6) 0.57339(5) 0.34189(6)
C66_54 C 0.60593(8) 0.52426(7) 0.33985(7)
H41_54 H 0.6144 0.5175 0.3333
C67_54 C 0.59772(7) 0.53851(7) 0.33161(7)
H42_54 H 0.6005 0.5415 0.3196
C68_54 C 0.58541(7) 0.54844(6) 0.34111(6)
C69_54 C 0.58102(6) 0.54301(7) 0.35818(7)
H43_54 H 0.5721 0.5491 0.3648
C70_54 C 0.58976(6) 0.52860(6) 0.36541(6)
H44_54 H 0.5866 0.5249 0.3771
C71_54 C 0.52202(7) 0.59932(7) 0.36509(7)
H45_54 H 0.5143 0.5930 0.3729
C72_54 C 0.53498(7) 0.58993(7) 0.35638(7)
H46_54 H 0.5364 0.5775 0.3584
C73_54 C 0.54605(6) 0.59888(6) 0.34457(6)
C74_54 C 0.54304(7) 0.61709(7) 0.34172(7)
H47_54 H 0.5499 0.6235 0.3332
C75_54 C 0.52995(6) 0.62549(6) 0.35149(7)
H48_54 H 0.5282 0.6379 0.3498
Co5_12 Co 0.8750 0.375000(10) 0.0004
N1_26 N 0.82051(6) 0.34256(6) 0.82010(7)
C1_26 C 0.81356(8) 0.33483(8) 0.83466(8)
N2_26 N 0.77064(6) 0.36141(6) 0.86044(5)
C2_26 C 0.77494(8) 0.36502(8) 0.84372(8)
H1_26 H 0.7681 0.3737 0.8375
C3_26 C 0.78880(8) 0.35695(9) 0.83472(9)
H2_26 H 0.7917 0.3604 0.8229
C4_26 C 0.79824(8) 0.34395(7) 0.84304(8)
C5_26 C 0.79402(10) 0.33988(10) 0.86064(10)
H3_26 H 0.8005 0.3310 0.8669
C6_26 C 0.78022(10) 0.34903(10) 0.86880(11)
H4_26 H 0.7775 0.3464 0.8809
Co1_15 Co 0.7496 0.3750 0.875000(10)
N3_55 N 0.74927(4) 0.39556(5) 0.85615(5)
C7_55 C 0.75067(7) 0.40956(9) 0.85015(8)
S1_55 S 0.75320(4) 0.43001(3) 0.84255(4)
N4_55 N 0.72903(5) 0.36148(5) 0.85979(5)
C8_55 C 0.72653(6) 0.36498(6) 0.84251(6)
H5_55 H 0.7344 0.3731 0.8368
C9_55 C 0.71312(6) 0.35738(6) 0.83250(6)
H6_55 H 0.7117 0.3604 0.8203
C10_55 C 0.70184(6) 0.34539(6) 0.84056(6)
C11_55 C 0.70457(7) 0.34108(7) 0.85858(7)
H7_55 H 0.6974 0.3324 0.8644
C12_55 C 0.71782(7) 0.34970(7) 0.86750(6)
H8_55 H 0.7193 0.3473 0.8799
C13_55 C 0.66646(6) 0.31527(6) 0.82859(6)
N5_55 N 0.68090(5) 0.32146(5) 0.83684(6)
C14_55 C 0.68660(6) 0.33736(6) 0.83110(6)
N6_55 N 0.67917(5) 0.34688(5) 0.81784(5)
C15_55 C 0.66495(6) 0.33904(7) 0.81035(6)
N7_55 N 0.65811(6) 0.32339(5) 0.81502(6)
C16_55 C 0.66015(7) 0.27426(7) 0.85593(8)
H9_55 H 0.6667 0.2675 0.8644
C17_55 C 0.66839(7) 0.28851(7) 0.84772(7)
H10_55 H 0.6804 0.2915 0.8505
C18_55 C 0.65889(6) 0.29844(6) 0.83541(7)
C19_55 C 0.64182(7) 0.29301(7) 0.83102(6)
H11_55 H 0.6352 0.2991 0.8221
C20_55 C 0.63459(6) 0.27860(6) 0.83976(6)
H12_55 H 0.6229 0.2749 0.8366
C21_55 C 0.63491(7) 0.34932(7) 0.77202(7)
H13_55 H 0.6271 0.3430 0.7643
C22_55 C 0.64362(7) 0.33993(7) 0.78498(7)
H14_55 H 0.6416 0.3275 0.7864
C23_55 C 0.65543(6) 0.34888(6) 0.79605(6)
C24_55 C 0.65828(7) 0.36709(7) 0.79304(7)
H15_55 H 0.6668 0.3735 0.7999
C25_55 C 0.64851(7) 0.37549(6) 0.77995(6)
H16_55 H 0.6502 0.3879 0.7782
N11_26 N 0.82010(7) 0.32051(6) 0.84256(6)
N12_26 N 0.84256(6) 0.32010(7) 0.82051(6)
N13_16 N 0.82051(6) 0.40744(6) 0.92990(7)
N14_16 N 0.82010(7) 0.42949(6) 0.90744(6)
N15_16 N 0.84256(6) 0.42990(7) 0.92949(6)
C27_26 C 0.83466(8) 0.31356(8) 0.83483(8)
C28_26 C 0.83483(8) 0.33466(8) 0.81356(8)
C29_16 C 0.81356(8) 0.41517(8) 0.91534(8)
C30_16 C 0.83466(8) 0.43644(8) 0.91517(8)
C31_16 C 0.83483(8) 0.41534(8) 0.93644(8)
N16_26 N 0.86141(6) 0.36044(5) 0.77064(6)
N17_26 N 0.86044(5) 0.27064(6) 0.86141(6)
N18_16 N 0.77064(6) 0.38859(6) 0.88956(5)
N19_16 N 0.86141(6) 0.38956(5) 0.97936(6)
N20_16 N 0.86044(5) 0.47936(6) 0.88859(6)
C32_26 C 0.86502(8) 0.34372(8) 0.77494(8)
C33_26 C 0.84372(8) 0.27494(8) 0.86502(8)
C34_16 C 0.77494(8) 0.38498(8) 0.90628(8)
C35_16 C 0.86502(8) 0.40628(8) 0.97506(8)
C36_16 C 0.84372(8) 0.47506(8) 0.88498(8)
H17_26 H 0.8737 0.3375 0.7681
H18_26 H 0.8375 0.2681 0.8737
H19_16 H 0.7681 0.3763 0.9125
H20_16 H 0.8737 0.4125 0.9819
H21_16 H 0.8375 0.4819 0.8763
C37_26 C 0.85695(9) 0.33472(9) 0.78880(8)
C38_26 C 0.83472(9) 0.28880(8) 0.85695(9)
C39_16 C 0.78880(8) 0.39305(9) 0.91528(9)
C40_16 C 0.85695(9) 0.41528(9) 0.96120(8)
C41_16 C 0.83472(9) 0.46120(8) 0.89305(9)
H22_26 H 0.8604 0.3229 0.7917
H23_26 H 0.8229 0.2917 0.8604
H24_16 H 0.7917 0.3896 0.9271
H25_16 H 0.8604 0.4271 0.9583
H26_16 H 0.8229 0.4583 0.8896
C42_26 C 0.84395(7) 0.34304(8) 0.79824(8)
C43_26 C 0.84304(8) 0.29824(8) 0.84395(7)
C44_16 C 0.79824(8) 0.40605(7) 0.90696(8)
C45_16 C 0.84395(7) 0.40696(8) 0.95176(8)
C46_16 C 0.84304(8) 0.45176(8) 0.90605(7)
C47_26 C 0.83988(10) 0.36064(10) 0.79402(10)
C48_26 C 0.86064(10) 0.29402(10) 0.83988(10)
C49_16 C 0.79402(10) 0.41012(10) 0.88936(10)
C50_16 C 0.83988(10) 0.38936(10) 0.95598(10)
C51_16 C 0.86064(10) 0.45598(10) 0.91012(10)
H27_26 H 0.8310 0.3669 0.8005
H28_26 H 0.8669 0.3005 0.8310
H29_16 H 0.8005 0.4190 0.8831
H30_16 H 0.8310 0.3831 0.9495
H31_16 H 0.8669 0.4495 0.9190
C52_26 C 0.84903(10) 0.36880(11) 0.78022(10)
C53_26 C 0.86880(11) 0.28022(10) 0.84903(10)
C54_16 C 0.78022(10) 0.40097(10) 0.88120(11)
C55_16 C 0.84903(10) 0.38120(11) 0.96978(10)
C56_16 C 0.86880(11) 0.46978(10) 0.90097(10)
H32_26 H 0.8464 0.3809 0.7775
H33_26 H 0.8809 0.2775 0.8464
H34_16 H 0.7775 0.4036 0.8691
H35_16 H 0.8464 0.3691 0.9725
H36_16 H 0.8809 0.4725 0.9036
Co3_17 Co 0.8750 0.375000(10) 0.7496
Co4_12 Co 0.875000(10) 0.2496 0.8750
Co6_13 Co 0.875000(10) 0.5004 0.8750
N21_55 N 0.74927(4) 0.35444(5) 0.89385(5)
C57_55 C 0.75067(7) 0.34044(9) 0.89985(8)
S3_55 S 0.75320(4) 0.31999(3) 0.90745(4)
N22_55 N 0.72903(5) 0.38852(5) 0.89021(5)
C58_55 C 0.72653(6) 0.38502(6) 0.90749(6)
H37_55 H 0.7344 0.3769 0.9132
C59_55 C 0.71312(6) 0.39262(6) 0.91750(6)
H38_55 H 0.7117 0.3896 0.9297
C60_55 C 0.70184(6) 0.40461(6) 0.90944(6)
C61_55 C 0.70457(7) 0.40892(7) 0.89142(7)
H39_55 H 0.6974 0.4176 0.8856
C62_55 C 0.71782(7) 0.40030(7) 0.88250(6)
H40_55 H 0.7193 0.4027 0.8701
C63_55 C 0.66646(6) 0.43473(6) 0.92141(6)
N23_55 N 0.68090(5) 0.42854(5) 0.91316(6)
C64_55 C 0.68660(6) 0.41264(6) 0.91890(6)
N24_55 N 0.67917(5) 0.40312(5) 0.93216(5)
C65_55 C 0.66495(6) 0.41096(7) 0.93965(6)
N25_55 N 0.65811(6) 0.42661(5) 0.93498(6)
C66_55 C 0.66015(7) 0.47574(7) 0.89407(8)
H41_55 H 0.6667 0.4825 0.8856
C67_55 C 0.66839(7) 0.46149(7) 0.90228(7)
H42_55 H 0.6804 0.4585 0.8995
C68_55 C 0.65889(6) 0.45156(6) 0.91459(7)
C69_55 C 0.64182(7) 0.45699(7) 0.91898(6)
H43_55 H 0.6352 0.4509 0.9279
C70_55 C 0.63459(6) 0.47140(6) 0.91024(6)
H44_55 H 0.6229 0.4751 0.9134
C71_55 C 0.63491(7) 0.40068(7) 0.97798(7)
H45_55 H 0.6271 0.4070 0.9857
C72_55 C 0.64362(7) 0.41007(7) 0.96502(7)
H46_55 H 0.6416 0.4225 0.9636
C73_55 C 0.65543(6) 0.40112(6) 0.95395(6)
C74_55 C 0.65828(7) 0.38291(7) 0.95696(7)
H47_55 H 0.6668 0.3765 0.9501
C75_55 C 0.64851(7) 0.37451(6) 0.97005(6)
H48_55 H 0.6502 0.3621 0.9718
N1_27 N 0.57051(6) 0.07010(7) 0.65744(6)
C1_27 C 0.56356(8) 0.08466(8) 0.66517(8)
N2_27 N 0.52064(6) 0.11044(5) 0.63859(6)
C2_27 C 0.52494(8) 0.09372(8) 0.63498(8)
H1_27 H 0.5181 0.0875 0.6263
C3_27 C 0.53880(8) 0.08472(9) 0.64305(9)
H2_27 H 0.5417 0.0729 0.6396
C4_27 C 0.54824(8) 0.09304(8) 0.65605(7)
C5_27 C 0.54402(10) 0.11064(10) 0.66012(10)
H3_27 H 0.5505 0.1169 0.6690
C6_27 C 0.53022(10) 0.11880(11) 0.65097(10)
H4_27 H 0.5275 0.1309 0.6536
Co1_16 Co 0.4996 0.125000(10) 0.6250
N3_56 N 0.49927(4) 0.10615(5) 0.60444(5)
C7_56 C 0.50067(7) 0.10015(8) 0.59044(9)
S1_56 S 0.50320(4) 0.09255(4) 0.56999(3)
N4_56 N 0.47903(5) 0.10979(5) 0.63852(5)
C8_56 C 0.47653(6) 0.09251(6) 0.63502(6)
H5_56 H 0.4844 0.0868 0.6269
C9_56 C 0.46312(6) 0.08250(6) 0.64262(6)
H6_56 H 0.4617 0.0703 0.6396
C10_56 C 0.45184(6) 0.09056(6) 0.65461(6)
C11_56 C 0.45457(7) 0.10858(7) 0.65892(7)
H7_56 H 0.4474 0.1144 0.6676
C12_56 C 0.46782(7) 0.11750(6) 0.65030(7)
H8_56 H 0.4693 0.1299 0.6527
C13_56 C 0.41646(6) 0.07859(6) 0.68473(6)
N5_56 N 0.43090(5) 0.08684(6) 0.67854(5)
C14_56 C 0.43660(6) 0.08110(6) 0.66264(6)
N6_56 N 0.42917(5) 0.06784(5) 0.65312(5)
C15_56 C 0.41495(6) 0.06035(6) 0.66096(7)
N7_56 N 0.40811(6) 0.06502(6) 0.67661(5)
C16_56 C 0.41015(7) 0.10593(8) 0.72574(7)
H9_56 H 0.4167 0.1144 0.7325
C17_56 C 0.41839(7) 0.09772(7) 0.71149(7)
H10_56 H 0.4304 0.1005 0.7085
C18_56 C 0.40889(6) 0.08541(7) 0.70156(6)
C19_56 C 0.39182(7) 0.08102(6) 0.70699(7)
H11_56 H 0.3852 0.0721 0.7009
C20_56 C 0.38459(6) 0.08976(6) 0.72140(6)
H12_56 H 0.3729 0.0866 0.7251
C21_56 C 0.38491(7) 0.02202(7) 0.65068(7)
H13_56 H 0.3771 0.0143 0.6570
C22_56 C 0.39362(7) 0.03498(7) 0.66007(7)
H14_56 H 0.3916 0.0364 0.6725
C23_56 C 0.40543(6) 0.04605(6) 0.65112(6)
C24_56 C 0.40828(7) 0.04304(7) 0.63291(7)
H15_56 H 0.4168 0.0499 0.6265
C25_56 C 0.39851(7) 0.02995(6) 0.62451(6)
H16_56 H 0.4002 0.0282 0.6121
N11_27 N 0.57010(7) 0.09256(6) 0.67949(6)
N12_27 N 0.59256(6) 0.07051(6) 0.67990(7)
N13_17 N 0.57051(6) 0.17990(7) 0.59256(6)
N14_17 N 0.57010(7) 0.15744(6) 0.57051(6)
N15_17 N 0.59256(6) 0.17949(6) 0.57010(7)
C27_27 C 0.58466(8) 0.08483(8) 0.68644(8)
C28_27 C 0.58483(8) 0.06356(8) 0.66534(8)
C29_17 C 0.56356(8) 0.16534(8) 0.58483(8)
C30_17 C 0.58466(8) 0.16517(8) 0.56356(8)
C31_17 C 0.58483(8) 0.18644(8) 0.58466(8)
N16_27 N 0.61141(6) 0.02064(6) 0.63956(5)
N17_27 N 0.61044(5) 0.11141(6) 0.72936(6)
N18_17 N 0.52064(6) 0.13956(5) 0.61141(6)
N19_17 N 0.61141(6) 0.22936(6) 0.61044(5)
N20_17 N 0.61044(5) 0.13859(6) 0.52064(6)
C32_27 C 0.61502(8) 0.02494(8) 0.65628(8)
C33_27 C 0.59372(8) 0.11502(8) 0.72506(8)
C34_17 C 0.52494(8) 0.15628(8) 0.61502(8)
C35_17 C 0.61502(8) 0.22506(8) 0.59372(8)
C36_17 C 0.59372(8) 0.13498(8) 0.52494(8)
H17_27 H 0.6237 0.0181 0.6625
H18_27 H 0.5875 0.1237 0.7319
H19_17 H 0.5181 0.1625 0.6237
H20_17 H 0.6237 0.2319 0.5875
H21_17 H 0.5875 0.1263 0.5181
C37_27 C 0.60695(9) 0.03880(8) 0.66528(9)
C38_27 C 0.58472(9) 0.10695(9) 0.71120(8)
C39_17 C 0.53880(8) 0.16528(9) 0.60695(9)
C40_17 C 0.60695(9) 0.21120(8) 0.58472(9)
C41_17 C 0.58472(9) 0.14305(9) 0.53880(8)
H22_27 H 0.6104 0.0417 0.6771
H23_27 H 0.5729 0.1104 0.7083
H24_17 H 0.5417 0.1771 0.6104
H25_17 H 0.6104 0.2083 0.5729
H26_17 H 0.5729 0.1396 0.5417
C42_27 C 0.59395(7) 0.04824(8) 0.65696(8)
C43_27 C 0.59304(8) 0.09395(7) 0.70176(8)
C44_17 C 0.54824(8) 0.15696(8) 0.59395(7)
C45_17 C 0.59395(7) 0.20176(8) 0.59304(8)
C46_17 C 0.59304(8) 0.15605(7) 0.54824(8)
C47_27 C 0.58988(10) 0.04402(10) 0.63936(10)
C48_27 C 0.61064(10) 0.08988(10) 0.70598(10)
C49_17 C 0.54402(10) 0.13936(10) 0.58988(10)
C50_17 C 0.58988(10) 0.20598(10) 0.61064(10)
C51_17 C 0.61064(10) 0.16012(10) 0.54402(10)
H27_27 H 0.5810 0.0505 0.6331
H28_27 H 0.6169 0.0810 0.6995
H29_17 H 0.5505 0.1331 0.5810
H30_17 H 0.5810 0.1995 0.6169
H31_17 H 0.6169 0.1690 0.5505
C52_27 C 0.59903(10) 0.03022(10) 0.63120(11)
C53_27 C 0.61880(11) 0.09903(10) 0.71978(10)
C54_17 C 0.53022(10) 0.13120(11) 0.59903(10)
C55_17 C 0.59903(10) 0.21978(10) 0.61880(11)
C56_17 C 0.61880(11) 0.15097(10) 0.53022(10)
H32_27 H 0.5964 0.0275 0.6191
H33_27 H 0.6309 0.0964 0.7225
H34_17 H 0.5275 0.1191 0.5964
H35_17 H 0.5964 0.2225 0.6309
H36_17 H 0.6309 0.1536 0.5275
Co4_13 Co 0.625000(10) 0.1250 0.7504
Co5_13 Co 0.6250 0.2504 0.625000(10)
Co6_14 Co 0.625000(10) 0.1250 0.4996
N21_56 N 0.49927(4) 0.14385(5) 0.64556(5)
C57_56 C 0.50067(7) 0.14985(8) 0.65956(9)
S3_56 S 0.50320(4) 0.15745(4) 0.68001(3)
N22_56 N 0.47903(5) 0.14021(5) 0.61148(5)
C58_56 C 0.47653(6) 0.15749(6) 0.61498(6)
H37_56 H 0.4844 0.1632 0.6231
C59_56 C 0.46312(6) 0.16750(6) 0.60738(6)
H38_56 H 0.4617 0.1797 0.6104
C60_56 C 0.45184(6) 0.15944(6) 0.59539(6)
C61_56 C 0.45457(7) 0.14142(7) 0.59108(7)
H39_56 H 0.4474 0.1356 0.5824
C62_56 C 0.46782(7) 0.13250(6) 0.59970(7)
H40_56 H 0.4693 0.1201 0.5973
C63_56 C 0.41646(6) 0.17141(6) 0.56527(6)
N23_56 N 0.43090(5) 0.16316(6) 0.57146(5)
C64_56 C 0.43660(6) 0.16890(6) 0.58736(6)
N24_56 N 0.42917(5) 0.18216(5) 0.59688(5)
C65_56 C 0.41495(6) 0.18965(6) 0.58904(7)
N25_56 N 0.40811(6) 0.18498(6) 0.57339(5)
C66_56 C 0.41015(7) 0.14407(8) 0.52426(7)
H41_56 H 0.4167 0.1356 0.5175
C67_56 C 0.41839(7) 0.15228(7) 0.53851(7)
H42_56 H 0.4304 0.1495 0.5415
C68_56 C 0.40889(6) 0.16459(7) 0.54844(6)
C69_56 C 0.39182(7) 0.16898(6) 0.54301(7)
H43_56 H 0.3852 0.1779 0.5491
C70_56 C 0.38459(6) 0.16024(6) 0.52860(6)
H44_56 H 0.3729 0.1634 0.5249
C71_56 C 0.38491(7) 0.22798(7) 0.59932(7)
H45_56 H 0.3771 0.2357 0.5930
C72_56 C 0.39362(7) 0.21502(7) 0.58993(7)
H46_56 H 0.3916 0.2136 0.5775
C73_56 C 0.40543(6) 0.20395(6) 0.59888(6)
C74_56 C 0.40828(7) 0.20696(7) 0.61709(7)
H47_56 H 0.4168 0.2001 0.6235
C75_56 C 0.39851(7) 0.22005(6) 0.62549(6)
H48_56 H 0.4002 0.2218 0.6379
Co3_18 Co 0.6250 0.9996 0.625000(10)
Co1_17 Co 0.875000(10) 0.0004 0.3750
N3_57 N 0.89385(5) 0.00073(4) 0.39556(5)
N4_57 N 0.89021(5) 0.02097(5) 0.36148(5)
C8_57 C 0.90749(6) 0.02347(6) 0.36498(6)
H5_57 H 0.9132 0.0156 0.3731
C9_57 C 0.91750(6) 0.03688(6) 0.35738(6)
H6_57 H 0.9297 0.0383 0.3604
C10_57 C 0.90944(6) 0.04816(6) 0.34539(6)
C11_57 C 0.89142(7) 0.04543(7) 0.34108(7)
H7_57 H 0.8856 0.0526 0.3324
C12_57 C 0.88250(6) 0.03218(7) 0.34970(7)
H8_57 H 0.8701 0.0307 0.3473
C13_57 C 0.92141(6) 0.08354(6) 0.31527(6)
N5_57 N 0.91316(6) 0.06910(5) 0.32146(5)
C14_57 C 0.91890(6) 0.06340(6) 0.33736(6)
N6_57 N 0.93216(5) 0.07083(5) 0.34688(5)
C15_57 C 0.93965(6) 0.08505(6) 0.33904(7)
N7_57 N 0.93498(6) 0.09189(6) 0.32339(5)
C16_57 C 0.89407(8) 0.08985(7) 0.27426(7)
H9_57 H 0.8856 0.0833 0.2675
C17_57 C 0.90228(7) 0.08161(7) 0.28851(7)
H10_57 H 0.8995 0.0696 0.2915
C18_57 C 0.91459(7) 0.09111(6) 0.29844(6)
C19_57 C 0.91898(6) 0.10818(7) 0.29301(7)
H11_57 H 0.9279 0.1148 0.2991
C20_57 C 0.91024(6) 0.11541(6) 0.27860(6)
H12_57 H 0.9134 0.1271 0.2749
C21_57 C 0.97798(7) 0.11509(7) 0.34932(7)
H13_57 H 0.9857 0.1229 0.3430
C22_57 C 0.96502(7) 0.10638(7) 0.33993(7)
H14_57 H 0.9636 0.1084 0.3275
C23_57 C 0.95395(6) 0.09457(6) 0.34888(6)
C24_57 C 0.95696(7) 0.09172(7) 0.36709(7)
H15_57 H 0.9501 0.0832 0.3735
C25_57 C 0.97005(6) 0.10149(7) 0.37549(6)
H16_57 H 0.9718 0.0998 0.3879
N21_57 N 0.85615(5) 0.00073(4) 0.35444(5)
N22_57 N 0.85979(5) 0.02097(5) 0.38852(5)
C58_57 C 0.84251(6) 0.02347(6) 0.38502(6)
H37_57 H 0.8368 0.0156 0.3769
C59_57 C 0.83250(6) 0.03688(6) 0.39262(6)
H38_57 H 0.8203 0.0383 0.3896
C60_57 C 0.84056(6) 0.04816(6) 0.40461(6)
C61_57 C 0.85858(7) 0.04543(7) 0.40892(7)
H39_57 H 0.8644 0.0526 0.4176
C62_57 C 0.86750(6) 0.03218(7) 0.40030(7)
H40_57 H 0.8799 0.0307 0.4027
C63_57 C 0.82859(6) 0.08354(6) 0.43473(6)
N23_57 N 0.83684(6) 0.06910(5) 0.42854(5)
C64_57 C 0.83110(6) 0.06340(6) 0.41264(6)
N24_57 N 0.81784(5) 0.07083(5) 0.40312(5)
C65_57 C 0.81035(6) 0.08505(6) 0.41096(7)
N25_57 N 0.81502(6) 0.09189(6) 0.42661(5)
C66_57 C 0.85593(8) 0.08985(7) 0.47574(7)
H41_57 H 0.8644 0.0833 0.4825
C67_57 C 0.84772(7) 0.08161(7) 0.46149(7)
H42_57 H 0.8505 0.0696 0.4585
C68_57 C 0.83541(7) 0.09111(6) 0.45156(6)
C69_57 C 0.83102(6) 0.10818(7) 0.45699(7)
H43_57 H 0.8221 0.1148 0.4509
C70_57 C 0.83976(6) 0.11541(6) 0.47140(6)
H44_57 H 0.8366 0.1271 0.4751
C71_57 C 0.77202(7) 0.11509(7) 0.40068(7)
H45_57 H 0.7643 0.1229 0.4070
C72_57 C 0.78498(7) 0.10638(7) 0.41007(7)
H46_57 H 0.7864 0.1084 0.4225
C73_57 C 0.79605(6) 0.09457(6) 0.40112(6)
C74_57 C 0.79304(7) 0.09172(7) 0.38291(7)
H47_57 H 0.7999 0.0832 0.3765
C75_57 C 0.77995(6) 0.10149(7) 0.37451(6)
H48_57 H 0.7782 0.0998 0.3621
N1_28 N 0.92990(7) 0.92949(6) 0.34256(6)
C1_28 C 0.91534(8) 0.93644(8) 0.33483(8)
N2_28 N 0.88956(5) 0.97936(6) 0.36141(6)
C2_28 C 0.90628(8) 0.97506(8) 0.36502(8)
H1_28 H 0.9125 0.9819 0.3737
C3_28 C 0.91528(9) 0.96120(8) 0.35695(9)
H2_28 H 0.9271 0.9583 0.3604
C4_28 C 0.90696(8) 0.95176(8) 0.34395(7)
C5_28 C 0.88936(10) 0.95598(10) 0.33988(10)
H3_28 H 0.8831 0.9495 0.3310
C6_28 C 0.88120(11) 0.96978(10) 0.34903(10)
H4_28 H 0.8691 0.9725 0.3464
C7_57 C 0.89985(8) 0.99933(7) 0.40956(9)
S1_57 S 0.90745(4) 0.99680(4) 0.43001(3)
N11_28 N 0.90744(6) 0.92990(7) 0.32051(6)
N12_28 N 0.92949(6) 0.90744(6) 0.32010(7)
N13_18 N 0.82010(7) 0.92949(6) 0.40744(6)
N14_18 N 0.84256(6) 0.92990(7) 0.42949(6)
N15_18 N 0.82051(6) 0.90744(6) 0.42990(7)
C27_28 C 0.91517(8) 0.91534(8) 0.31356(8)
C28_28 C 0.93644(8) 0.91517(8) 0.33466(8)
C29_18 C 0.83466(8) 0.93644(8) 0.41517(8)
C30_18 C 0.83483(8) 0.91534(8) 0.43644(8)
C31_18 C 0.81356(8) 0.91517(8) 0.41534(8)
N16_28 N 0.97936(6) 0.88859(6) 0.36044(5)
N17_28 N 0.88859(6) 0.88956(5) 0.27064(6)
N18_18 N 0.86044(5) 0.97936(6) 0.38859(6)
N19_18 N 0.77064(6) 0.88859(6) 0.38956(5)
N20_18 N 0.86141(6) 0.88956(5) 0.47936(6)
C32_28 C 0.97506(8) 0.88498(8) 0.34372(8)
C33_28 C 0.88498(8) 0.90628(8) 0.27494(8)
C34_18 C 0.84372(8) 0.97506(8) 0.38498(8)
C35_18 C 0.77494(8) 0.88498(8) 0.40628(8)
C36_18 C 0.86502(8) 0.90628(8) 0.47506(8)
H17_28 H 0.9819 0.8763 0.3375
H18_28 H 0.8763 0.9125 0.2681
H19_18 H 0.8375 0.9819 0.3763
H20_18 H 0.7681 0.8763 0.4125
H21_18 H 0.8737 0.9125 0.4819
C37_28 C 0.96120(8) 0.89305(9) 0.33472(9)
C38_28 C 0.89305(9) 0.91528(9) 0.28880(8)
C39_18 C 0.83472(9) 0.96120(8) 0.39305(9)
C40_18 C 0.78880(8) 0.89305(9) 0.41528(9)
C41_18 C 0.85695(9) 0.91528(9) 0.46120(8)
H22_28 H 0.9583 0.8896 0.3229
H23_28 H 0.8896 0.9271 0.2917
H24_18 H 0.8229 0.9583 0.3896
H25_18 H 0.7917 0.8896 0.4271
H26_18 H 0.8604 0.9271 0.4583
C42_28 C 0.95176(8) 0.90605(7) 0.34304(8)
C43_28 C 0.90605(7) 0.90696(8) 0.29824(8)
C44_18 C 0.84304(8) 0.95176(8) 0.40605(7)
C45_18 C 0.79824(8) 0.90605(7) 0.40696(8)
C46_18 C 0.84395(7) 0.90696(8) 0.45176(8)
C47_28 C 0.95598(10) 0.91012(10) 0.36064(10)
C48_28 C 0.91012(10) 0.88936(10) 0.29402(10)
C49_18 C 0.86064(10) 0.95598(10) 0.41012(10)
C50_18 C 0.79402(10) 0.91012(10) 0.38936(10)
C51_18 C 0.83988(10) 0.88936(10) 0.45598(10)
H27_28 H 0.9495 0.9190 0.3669
H28_28 H 0.9190 0.8831 0.3005
H29_18 H 0.8669 0.9495 0.4190
H30_18 H 0.8005 0.9190 0.3831
H31_18 H 0.8310 0.8831 0.4495
C52_28 C 0.96978(10) 0.90097(10) 0.36880(11)
C53_28 C 0.90097(10) 0.88120(11) 0.28022(10)
C54_18 C 0.86880(11) 0.96978(10) 0.40097(10)
C55_18 C 0.78022(10) 0.90097(10) 0.38120(11)
C56_18 C 0.84903(10) 0.88120(11) 0.46978(10)
H32_28 H 0.9725 0.9036 0.3809
H33_28 H 0.9036 0.8691 0.2775
H34_18 H 0.8809 0.9725 0.4036
H35_18 H 0.7775 0.9036 0.3691
H36_18 H 0.8464 0.8691 0.4725
C57_57 C 0.85015(8) 0.99933(7) 0.34044(9)
S3_57 S 0.84255(4) 0.99680(4) 0.31999(3)
N1_29 N 0.67949(6) 0.07010(7) 0.59256(6)
C1_29 C 0.68644(8) 0.08466(8) 0.58483(8)
N2_29 N 0.72936(6) 0.11044(5) 0.61141(6)
C2_29 C 0.72506(8) 0.09372(8) 0.61502(8)
H1_29 H 0.7319 0.0875 0.6237
C3_29 C 0.71120(8) 0.08472(9) 0.60695(9)
H2_29 H 0.7083 0.0729 0.6104
C4_29 C 0.70176(8) 0.09304(8) 0.59395(7)
C5_29 C 0.70598(10) 0.11064(10) 0.58988(10)
H3_29 H 0.6995 0.1169 0.5810
C6_29 C 0.71978(10) 0.11880(11) 0.59903(10)
H4_29 H 0.7225 0.1309 0.5964
Co1_18 Co 0.7504 0.125000(10) 0.6250
N3_58 N 0.75073(4) 0.10615(5) 0.64556(5)
C7_58 C 0.74933(7) 0.10015(8) 0.65956(9)
S1_58 S 0.74680(4) 0.09255(4) 0.68001(3)
N4_58 N 0.77097(5) 0.10979(5) 0.61148(5)
C8_58 C 0.77347(6) 0.09251(6) 0.61498(6)
H5_58 H 0.7656 0.0868 0.6231
C9_58 C 0.78688(6) 0.08250(6) 0.60738(6)
H6_58 H 0.7883 0.0703 0.6104
C10_58 C 0.79816(6) 0.09056(6) 0.59539(6)
C11_58 C 0.79543(7) 0.10858(7) 0.59108(7)
H7_58 H 0.8026 0.1144 0.5824
C12_58 C 0.78218(7) 0.11750(6) 0.59970(7)
H8_58 H 0.7807 0.1299 0.5973
C13_58 C 0.83354(6) 0.07859(6) 0.56527(6)
N5_58 N 0.81910(5) 0.08684(6) 0.57146(5)
C14_58 C 0.81340(6) 0.08110(6) 0.58736(6)
N6_58 N 0.82083(5) 0.06784(5) 0.59688(5)
C15_58 C 0.83505(6) 0.06035(6) 0.58904(7)
N7_58 N 0.84189(6) 0.06502(6) 0.57339(5)
C16_58 C 0.83985(7) 0.10593(8) 0.52426(7)
H9_58 H 0.8333 0.1144 0.5175
C17_58 C 0.83161(7) 0.09772(7) 0.53851(7)
H10_58 H 0.8196 0.1005 0.5415
C18_58 C 0.84111(6) 0.08541(7) 0.54844(6)
C19_58 C 0.85818(7) 0.08102(6) 0.54301(7)
H11_58 H 0.8648 0.0721 0.5491
C20_58 C 0.86541(6) 0.08976(6) 0.52860(6)
H12_58 H 0.8771 0.0866 0.5249
C21_58 C 0.86509(7) 0.02202(7) 0.59932(7)
H13_58 H 0.8729 0.0143 0.5930
C22_58 C 0.85638(7) 0.03498(7) 0.58993(7)
H14_58 H 0.8584 0.0364 0.5775
C23_58 C 0.84457(6) 0.04605(6) 0.59888(6)
C24_58 C 0.84172(7) 0.04304(7) 0.61709(7)
H15_58 H 0.8332 0.0499 0.6235
C25_58 C 0.85149(7) 0.02995(6) 0.62549(6)
H16_58 H 0.8498 0.0282 0.6379
N11_29 N 0.67990(7) 0.09256(6) 0.57051(6)
N12_29 N 0.65744(6) 0.07051(6) 0.57010(7)
N13_19 N 0.67949(6) 0.17990(7) 0.65744(6)
N14_19 N 0.67990(7) 0.15744(6) 0.67949(6)
N15_19 N 0.65744(6) 0.17949(6) 0.67990(7)
C27_29 C 0.66534(8) 0.08483(8) 0.56356(8)
C28_29 C 0.66517(8) 0.06356(8) 0.58466(8)
C29_19 C 0.68644(8) 0.16534(8) 0.66517(8)
C30_19 C 0.66534(8) 0.16517(8) 0.68644(8)
C31_19 C 0.66517(8) 0.18644(8) 0.66534(8)
N16_29 N 0.63859(6) 0.02064(6) 0.61044(5)
N17_29 N 0.63956(5) 0.11141(6) 0.52064(6)
N18_19 N 0.72936(6) 0.13956(5) 0.63859(6)
N19_19 N 0.63859(6) 0.22936(6) 0.63956(5)
N20_19 N 0.63956(5) 0.13859(6) 0.72936(6)
C32_29 C 0.63498(8) 0.02494(8) 0.59372(8)
C33_29 C 0.65628(8) 0.11502(8) 0.52494(8)
C34_19 C 0.72506(8) 0.15628(8) 0.63498(8)
C35_19 C 0.63498(8) 0.22506(8) 0.65628(8)
C36_19 C 0.65628(8) 0.13498(8) 0.72506(8)
H17_29 H 0.6263 0.0181 0.5875
H18_29 H 0.6625 0.1237 0.5181
H19_19 H 0.7319 0.1625 0.6263
H20_19 H 0.6263 0.2319 0.6625
H21_19 H 0.6625 0.1263 0.7319
C37_29 C 0.64305(9) 0.03880(8) 0.58472(9)
C38_29 C 0.66528(9) 0.10695(9) 0.53880(8)
C39_19 C 0.71120(8) 0.16528(9) 0.64305(9)
C40_19 C 0.64305(9) 0.21120(8) 0.66528(9)
C41_19 C 0.66528(9) 0.14305(9) 0.71120(8)
H22_29 H 0.6396 0.0417 0.5729
H23_29 H 0.6771 0.1104 0.5417
H24_19 H 0.7083 0.1771 0.6396
H25_19 H 0.6396 0.2083 0.6771
H26_19 H 0.6771 0.1396 0.7083
C42_29 C 0.65605(7) 0.04824(8) 0.59304(8)
C43_29 C 0.65696(8) 0.09395(7) 0.54824(8)
C44_19 C 0.70176(8) 0.15696(8) 0.65605(7)
C45_19 C 0.65605(7) 0.20176(8) 0.65696(8)
C46_19 C 0.65696(8) 0.15605(7) 0.70176(8)
C47_29 C 0.66012(10) 0.04402(10) 0.61064(10)
C48_29 C 0.63936(10) 0.08988(10) 0.54402(10)
C49_19 C 0.70598(10) 0.13936(10) 0.66012(10)
C50_19 C 0.66012(10) 0.20598(10) 0.63936(10)
C51_19 C 0.63936(10) 0.16012(10) 0.70598(10)
H27_29 H 0.6690 0.0505 0.6169
H28_29 H 0.6331 0.0810 0.5505
H29_19 H 0.6995 0.1331 0.6690
H30_19 H 0.6690 0.1995 0.6331
H31_19 H 0.6331 0.1690 0.6995
C52_29 C 0.65097(10) 0.03022(10) 0.61880(11)
C53_29 C 0.63120(11) 0.09903(10) 0.53022(10)
C54_19 C 0.71978(10) 0.13120(11) 0.65097(10)
C55_19 C 0.65097(10) 0.21978(10) 0.63120(11)
C56_19 C 0.63120(11) 0.15097(10) 0.71978(10)
H32_29 H 0.6536 0.0275 0.6309
H33_29 H 0.6191 0.0964 0.5275
H34_19 H 0.7225 0.1191 0.6536
H35_19 H 0.6536 0.2225 0.6191
H36_19 H 0.6191 0.1536 0.7225
N21_58 N 0.75073(4) 0.14385(5) 0.60444(5)
C57_58 C 0.74933(7) 0.14985(8) 0.59044(9)
S3_58 S 0.74680(4) 0.15745(4) 0.56999(3)
N22_58 N 0.77097(5) 0.14021(5) 0.63852(5)
C58_58 C 0.77347(6) 0.15749(6) 0.63502(6)
H37_58 H 0.7656 0.1632 0.6269
C59_58 C 0.78688(6) 0.16750(6) 0.64262(6)
H38_58 H 0.7883 0.1797 0.6396
C60_58 C 0.79816(6) 0.15944(6) 0.65461(6)
C61_58 C 0.79543(7) 0.14142(7) 0.65892(7)
H39_58 H 0.8026 0.1356 0.6676
C62_58 C 0.78218(7) 0.13250(6) 0.65030(7)
H40_58 H 0.7807 0.1201 0.6527
C63_58 C 0.83354(6) 0.17141(6) 0.68473(6)
N23_58 N 0.81910(5) 0.16316(6) 0.67854(5)
C64_58 C 0.81340(6) 0.16890(6) 0.66264(6)
N24_58 N 0.82083(5) 0.18216(5) 0.65312(5)
C65_58 C 0.83505(6) 0.18965(6) 0.66096(7)
N25_58 N 0.84189(6) 0.18498(6) 0.67661(5)
C66_58 C 0.83985(7) 0.14407(8) 0.72574(7)
H41_58 H 0.8333 0.1356 0.7325
C67_58 C 0.83161(7) 0.15228(7) 0.71149(7)
H42_58 H 0.8196 0.1495 0.7085
C68_58 C 0.84111(6) 0.16459(7) 0.70156(6)
C69_58 C 0.85818(7) 0.16898(6) 0.70699(7)
H43_58 H 0.8648 0.1779 0.7009
C70_58 C 0.86541(6) 0.16024(6) 0.72140(6)
H44_58 H 0.8771 0.1634 0.7251
C71_58 C 0.86509(7) 0.22798(7) 0.65068(7)
H45_58 H 0.8729 0.2357 0.6570
C72_58 C 0.85638(7) 0.21502(7) 0.66007(7)
H46_58 H 0.8584 0.2136 0.6725
C73_58 C 0.84457(6) 0.20395(6) 0.65112(6)
C74_58 C 0.84172(7) 0.20696(7) 0.63291(7)
H47_58 H 0.8332 0.2001 0.6265
C75_58 C 0.85149(7) 0.22005(6) 0.62451(6)
H48_58 H 0.8498 0.2218 0.6121
N3_59 N 0.64556(5) 0.25073(4) 0.60615(5)
C7_59 C 0.65956(9) 0.24933(7) 0.60015(8)
S1_59 S 0.68001(3) 0.24680(4) 0.59255(4)
N4_59 N 0.61148(5) 0.27097(5) 0.60979(5)
C8_59 C 0.61498(6) 0.27347(6) 0.59251(6)
H5_59 H 0.6231 0.2656 0.5868
C9_59 C 0.60738(6) 0.28688(6) 0.58250(6)
H6_59 H 0.6104 0.2883 0.5703
C10_59 C 0.59539(6) 0.29816(6) 0.59056(6)
C11_59 C 0.59108(7) 0.29543(7) 0.60858(7)
H7_59 H 0.5824 0.3026 0.6144
C12_59 C 0.59970(7) 0.28218(7) 0.61750(6)
H8_59 H 0.5973 0.2807 0.6299
C13_59 C 0.56527(6) 0.33354(6) 0.57859(6)
N5_59 N 0.57146(5) 0.31910(5) 0.58684(6)
C14_59 C 0.58736(6) 0.31340(6) 0.58110(6)
N6_59 N 0.59688(5) 0.32083(5) 0.56784(5)
C15_59 C 0.58904(7) 0.33505(6) 0.56035(6)
N7_59 N 0.57339(5) 0.34189(6) 0.56502(6)
C16_59 C 0.52426(7) 0.33985(7) 0.60593(8)
H9_59 H 0.5175 0.3333 0.6144
C17_59 C 0.53851(7) 0.33161(7) 0.59772(7)
H10_59 H 0.5415 0.3196 0.6005
C18_59 C 0.54844(6) 0.34111(6) 0.58541(7)
C19_59 C 0.54301(7) 0.35818(7) 0.58102(6)
H11_59 H 0.5491 0.3648 0.5721
C20_59 C 0.52860(6) 0.36541(6) 0.58976(6)
H12_59 H 0.5249 0.3771 0.5866
C21_59 C 0.59932(7) 0.36509(7) 0.52202(7)
H13_59 H 0.5930 0.3729 0.5143
C22_59 C 0.58993(7) 0.35638(7) 0.53498(7)
H14_59 H 0.5775 0.3584 0.5364
C23_59 C 0.59888(6) 0.34457(6) 0.54605(6)
C24_59 C 0.61709(7) 0.34172(7) 0.54304(7)
H15_59 H 0.6235 0.3332 0.5499
C25_59 C 0.62549(6) 0.35149(7) 0.52995(6)
H16_59 H 0.6379 0.3498 0.5282
N21_59 N 0.60444(5) 0.25073(4) 0.64385(5)
C57_59 C 0.59044(9) 0.24933(7) 0.64985(8)
S3_59 S 0.56999(3) 0.24680(4) 0.65745(4)
N22_59 N 0.63852(5) 0.27097(5) 0.64021(5)
C58_59 C 0.63502(6) 0.27347(6) 0.65749(6)
H37_59 H 0.6269 0.2656 0.6632
C59_59 C 0.64262(6) 0.28688(6) 0.66750(6)
H38_59 H 0.6396 0.2883 0.6797
C60_59 C 0.65461(6) 0.29816(6) 0.65944(6)
C61_59 C 0.65892(7) 0.29543(7) 0.64142(7)
H39_59 H 0.6676 0.3026 0.6356
C62_59 C 0.65030(7) 0.28218(7) 0.63250(6)
H40_59 H 0.6527 0.2807 0.6201
C63_59 C 0.68473(6) 0.33354(6) 0.67141(6)
N23_59 N 0.67854(5) 0.31910(5) 0.66316(6)
C64_59 C 0.66264(6) 0.31340(6) 0.66890(6)
N24_59 N 0.65312(5) 0.32083(5) 0.68216(5)
C65_59 C 0.66096(7) 0.33505(6) 0.68965(6)
N25_59 N 0.67661(5) 0.34189(6) 0.68498(6)
C66_59 C 0.72574(7) 0.33985(7) 0.64407(8)
H41_59 H 0.7325 0.3333 0.6356
C67_59 C 0.71149(7) 0.33161(7) 0.65228(7)
H42_59 H 0.7085 0.3196 0.6495
C68_59 C 0.70156(6) 0.34111(6) 0.66459(7)
C69_59 C 0.70699(7) 0.35818(7) 0.66898(6)
H43_59 H 0.7009 0.3648 0.6779
C70_59 C 0.72140(6) 0.36541(6) 0.66024(6)
H44_59 H 0.7251 0.3771 0.6634
C71_59 C 0.65068(7) 0.36509(7) 0.72798(7)
H45_59 H 0.6570 0.3729 0.7357
C72_59 C 0.66007(7) 0.35638(7) 0.71502(7)
H46_59 H 0.6725 0.3584 0.7136
C73_59 C 0.65112(6) 0.34457(6) 0.70395(6)
C74_59 C 0.63291(7) 0.34172(7) 0.70696(7)
H47_59 H 0.6265 0.3332 0.7001
C75_59 C 0.62451(6) 0.35149(7) 0.72005(6)
H48_59 H 0.6121 0.3498 0.7218
Co3_19 Co 0.0004 0.3750 0.875000(10)
N1_30 N 0.92990(7) 0.32051(6) 0.90744(6)
C1_30 C 0.91534(8) 0.31356(8) 0.91517(8)
N2_30 N 0.88956(5) 0.27064(6) 0.88859(6)
C2_30 C 0.90628(8) 0.27494(8) 0.88498(8)
H1_30 H 0.9125 0.2681 0.8763
C3_30 C 0.91528(9) 0.28880(8) 0.89305(9)
H2_30 H 0.9271 0.2917 0.8896
C4_30 C 0.90696(8) 0.29824(8) 0.90605(7)
C5_30 C 0.88936(10) 0.29402(10) 0.91012(10)
H3_30 H 0.8831 0.3005 0.9190
C6_30 C 0.88120(11) 0.28022(10) 0.90097(10)
H4_30 H 0.8691 0.2775 0.9036
N3_60 N 0.89385(5) 0.24927(4) 0.85444(5)
C7_60 C 0.89985(8) 0.25067(7) 0.84044(9)
S1_60 S 0.90745(4) 0.25320(4) 0.81999(3)
N4_60 N 0.89021(5) 0.22903(5) 0.88852(5)
C8_60 C 0.90749(6) 0.22653(6) 0.88502(6)
H5_60 H 0.9132 0.2344 0.8769
C9_60 C 0.91750(6) 0.21312(6) 0.89262(6)
H6_60 H 0.9297 0.2117 0.8896
C10_60 C 0.90944(6) 0.20184(6) 0.90461(6)
C11_60 C 0.89142(7) 0.20457(7) 0.90892(7)
H7_60 H 0.8856 0.1974 0.9176
C12_60 C 0.88250(6) 0.21782(7) 0.90030(7)
H8_60 H 0.8701 0.2193 0.9027
C13_60 C 0.92141(6) 0.16646(6) 0.93473(6)
N5_60 N 0.91316(6) 0.18090(5) 0.92854(5)
C14_60 C 0.91890(6) 0.18660(6) 0.91264(6)
N6_60 N 0.93216(5) 0.17917(5) 0.90312(5)
C15_60 C 0.93965(6) 0.16495(6) 0.91096(7)
N7_60 N 0.93498(6) 0.15811(6) 0.92661(5)
C16_60 C 0.89407(8) 0.16015(7) 0.97574(7)
H9_60 H 0.8856 0.1667 0.9825
C17_60 C 0.90228(7) 0.16839(7) 0.96149(7)
H10_60 H 0.8995 0.1804 0.9585
C18_60 C 0.91459(7) 0.15889(6) 0.95156(6)
C19_60 C 0.91898(6) 0.14182(7) 0.95699(7)
H11_60 H 0.9279 0.1352 0.9509
C20_60 C 0.91024(6) 0.13459(6) 0.97140(6)
H12_60 H 0.9134 0.1229 0.9751
C21_60 C 0.97798(7) 0.13491(7) 0.90068(7)
H13_60 H 0.9857 0.1271 0.9070
C22_60 C 0.96502(7) 0.14362(7) 0.91007(7)
H14_60 H 0.9636 0.1416 0.9225
C23_60 C 0.95395(6) 0.15543(6) 0.90112(6)
C24_60 C 0.95696(7) 0.15828(7) 0.88291(7)
H15_60 H 0.9501 0.1668 0.8765
C25_60 C 0.97005(6) 0.14851(7) 0.87451(6)
H16_60 H 0.9718 0.1502 0.8621
N11_30 N 0.90744(6) 0.32010(7) 0.92949(6)
N12_30 N 0.92949(6) 0.34256(6) 0.92990(7)
C27_30 C 0.91517(8) 0.33466(8) 0.93644(8)
C28_30 C 0.93644(8) 0.33483(8) 0.91534(8)
N16_30 N 0.97936(6) 0.36141(6) 0.88956(5)
N17_30 N 0.88859(6) 0.36044(5) 0.97936(6)
C32_30 C 0.97506(8) 0.36502(8) 0.90628(8)
C33_30 C 0.88498(8) 0.34372(8) 0.97506(8)
H17_30 H 0.9819 0.3737 0.9125
H18_30 H 0.8763 0.3375 0.9819
C37_30 C 0.96120(8) 0.35695(9) 0.91528(9)
C38_30 C 0.89305(9) 0.33472(9) 0.96120(8)
H22_30 H 0.9583 0.3604 0.9271
H23_30 H 0.8896 0.3229 0.9583
C42_30 C 0.95176(8) 0.34395(7) 0.90696(8)
C43_30 C 0.90605(7) 0.34304(8) 0.95176(8)
C47_30 C 0.95598(10) 0.33988(10) 0.88936(10)
C48_30 C 0.91012(10) 0.36064(10) 0.95598(10)
H27_30 H 0.9495 0.3310 0.8831
H28_30 H 0.9190 0.3669 0.9495
C52_30 C 0.96978(10) 0.34903(10) 0.88120(11)
C53_30 C 0.90097(10) 0.36880(11) 0.96978(10)
H32_30 H 0.9725 0.3464 0.8691
H33_30 H 0.9036 0.3809 0.9725
N21_60 N 0.85615(5) 0.24927(4) 0.89556(5)
C57_60 C 0.85015(8) 0.25067(7) 0.90956(9)
S3_60 S 0.84255(4) 0.25320(4) 0.93001(3)
N22_60 N 0.85979(5) 0.22903(5) 0.86148(5)
C58_60 C 0.84251(6) 0.22653(6) 0.86498(6)
H37_60 H 0.8368 0.2344 0.8731
C59_60 C 0.83250(6) 0.21312(6) 0.85738(6)
H38_60 H 0.8203 0.2117 0.8604
C60_60 C 0.84056(6) 0.20184(6) 0.84539(6)
C61_60 C 0.85858(7) 0.20457(7) 0.84108(7)
H39_60 H 0.8644 0.1974 0.8324
C62_60 C 0.86750(6) 0.21782(7) 0.84970(7)
H40_60 H 0.8799 0.2193 0.8473
C63_60 C 0.82859(6) 0.16646(6) 0.81527(6)
N23_60 N 0.83684(6) 0.18090(5) 0.82146(5)
C64_60 C 0.83110(6) 0.18660(6) 0.83736(6)
N24_60 N 0.81784(5) 0.17917(5) 0.84688(5)
C65_60 C 0.81035(6) 0.16495(6) 0.83904(7)
N25_60 N 0.81502(6) 0.15811(6) 0.82339(5)
C66_60 C 0.85593(8) 0.16015(7) 0.77426(7)
H41_60 H 0.8644 0.1667 0.7675
C67_60 C 0.84772(7) 0.16839(7) 0.78851(7)
H42_60 H 0.8505 0.1804 0.7915
C68_60 C 0.83541(7) 0.15889(6) 0.79844(6)
C69_60 C 0.83102(6) 0.14182(7) 0.79301(7)
H43_60 H 0.8221 0.1352 0.7991
C70_60 C 0.83976(6) 0.13459(6) 0.77860(6)
H44_60 H 0.8366 0.1229 0.7749
C71_60 C 0.77202(7) 0.13491(7) 0.84932(7)
H45_60 H 0.7643 0.1271 0.8430
C72_60 C 0.78498(7) 0.14362(7) 0.83993(7)
H46_60 H 0.7864 0.1416 0.8275
C73_60 C 0.79605(6) 0.15543(6) 0.84888(6)
C74_60 C 0.79304(7) 0.15828(7) 0.86709(7)
H47_60 H 0.7999 0.1668 0.8735
C75_60 C 0.77995(6) 0.14851(7) 0.87549(6)
H48_60 H 0.7782 0.1502 0.8879
N3_61 N 0.64385(5) 0.14556(5) 0.49927(4)
C7_61 C 0.64985(8) 0.15956(9) 0.50067(7)
S1_61 S 0.65745(4) 0.18001(3) 0.50320(4)
N4_61 N 0.64021(5) 0.11148(5) 0.47903(5)
C8_61 C 0.65749(6) 0.11498(6) 0.47653(6)
H5_61 H 0.6632 0.1231 0.4844
C9_61 C 0.66750(6) 0.10738(6) 0.46312(6)
H6_61 H 0.6797 0.1104 0.4617
C10_61 C 0.65944(6) 0.09539(6) 0.45184(6)
C11_61 C 0.64142(7) 0.09108(7) 0.45457(7)
H7_61 H 0.6356 0.0824 0.4474
C12_61 C 0.63250(6) 0.09970(7) 0.46782(7)
H8_61 H 0.6201 0.0973 0.4693
C13_61 C 0.67141(6) 0.06527(6) 0.41646(6)
N5_61 N 0.66316(6) 0.07146(5) 0.43090(5)
C14_61 C 0.66890(6) 0.08736(6) 0.43660(6)
N6_61 N 0.68216(5) 0.09688(5) 0.42917(5)
C15_61 C 0.68965(6) 0.08904(7) 0.41495(6)
N7_61 N 0.68498(6) 0.07339(5) 0.40811(6)
C16_61 C 0.64407(8) 0.02426(7) 0.41015(7)
H9_61 H 0.6356 0.0175 0.4167
C17_61 C 0.65228(7) 0.03851(7) 0.41839(7)
H10_61 H 0.6495 0.0415 0.4304
C18_61 C 0.66459(7) 0.04844(6) 0.40889(6)
C19_61 C 0.66898(6) 0.04301(7) 0.39182(7)
H11_61 H 0.6779 0.0491 0.3852
C20_61 C 0.66024(6) 0.02860(6) 0.38459(6)
H12_61 H 0.6634 0.0249 0.3729
C21_61 C 0.72798(7) 0.09932(7) 0.38491(7)
H13_61 H 0.7357 0.0930 0.3771
C22_61 C 0.71502(7) 0.08993(7) 0.39362(7)
H14_61 H 0.7136 0.0775 0.3916
C23_61 C 0.70395(6) 0.09888(6) 0.40543(6)
C24_61 C 0.70696(7) 0.11709(7) 0.40828(7)
H15_61 H 0.7001 0.1235 0.4168
C25_61 C 0.72005(6) 0.12549(6) 0.39851(7)
H16_61 H 0.7218 0.1379 0.4002
N21_61 N 0.60615(5) 0.10444(5) 0.49927(4)
C57_61 C 0.60015(8) 0.09044(9) 0.50067(7)
S3_61 S 0.59255(4) 0.06999(3) 0.50320(4)
N22_61 N 0.60979(5) 0.13852(5) 0.47903(5)
C58_61 C 0.59251(6) 0.13502(6) 0.47653(6)
H37_61 H 0.5868 0.1269 0.4844
C59_61 C 0.58250(6) 0.14262(6) 0.46312(6)
H38_61 H 0.5703 0.1396 0.4617
C60_61 C 0.59056(6) 0.15461(6) 0.45184(6)
C61_61 C 0.60858(7) 0.15892(7) 0.45457(7)
H39_61 H 0.6144 0.1676 0.4474
C62_61 C 0.61750(6) 0.15030(7) 0.46782(7)
H40_61 H 0.6299 0.1527 0.4693
C63_61 C 0.57859(6) 0.18473(6) 0.41646(6)
N23_61 N 0.58684(6) 0.17854(5) 0.43090(5)
C64_61 C 0.58110(6) 0.16264(6) 0.43660(6)
N24_61 N 0.56784(5) 0.15312(5) 0.42917(5)
C65_61 C 0.56035(6) 0.16096(7) 0.41495(6)
N25_61 N 0.56502(6) 0.17661(5) 0.40811(6)
C66_61 C 0.60593(8) 0.22574(7) 0.41015(7)
H41_61 H 0.6144 0.2325 0.4167
C67_61 C 0.59772(7) 0.21149(7) 0.41839(7)
H42_61 H 0.6005 0.2085 0.4304
C68_61 C 0.58541(7) 0.20156(6) 0.40889(6)
C69_61 C 0.58102(6) 0.20699(7) 0.39182(7)
H43_61 H 0.5721 0.2009 0.3852
C70_61 C 0.58976(6) 0.22140(6) 0.38459(6)
H44_61 H 0.5866 0.2251 0.3729
C71_61 C 0.52202(7) 0.15068(7) 0.38491(7)
H45_61 H 0.5143 0.1570 0.3771
C72_61 C 0.53498(7) 0.16007(7) 0.39362(7)
H46_61 H 0.5364 0.1725 0.3916
C73_61 C 0.54605(6) 0.15112(6) 0.40543(6)
C74_61 C 0.54304(7) 0.13291(7) 0.40828(7)
H47_61 H 0.5499 0.1265 0.4168
C75_61 C 0.52995(6) 0.12451(6) 0.39851(7)
H48_61 H 0.5282 0.1121 0.4002
C7_62 C 0.65956(9) 0.00067(7) 0.64985(8)
S1_62 S 0.68001(3) 0.00320(4) 0.65745(4)
C57_62 C 0.59044(9) 0.00067(7) 0.60015(8)
S3_62 S 0.56999(3) 0.00320(4) 0.59255(4)
N3_62 N 0.64556(5) 0.99927(4) 0.64385(5)
N4_62 N 0.61148(5) 0.97903(5) 0.64021(5)
C8_62 C 0.61498(6) 0.97653(6) 0.65749(6)
H5_62 H 0.6231 0.9844 0.6632
C9_62 C 0.60738(6) 0.96312(6) 0.66750(6)
H6_62 H 0.6104 0.9617 0.6797
C10_62 C 0.59539(6) 0.95184(6) 0.65944(6)
C11_62 C 0.59108(7) 0.95457(7) 0.64142(7)
H7_62 H 0.5824 0.9474 0.6356
C12_62 C 0.59970(7) 0.96782(7) 0.63250(6)
H8_62 H 0.5973 0.9693 0.6201
C13_62 C 0.56527(6) 0.91646(6) 0.67141(6)
N5_62 N 0.57146(5) 0.93090(5) 0.66316(6)
C14_62 C 0.58736(6) 0.93660(6) 0.66890(6)
N6_62 N 0.59688(5) 0.92917(5) 0.68216(5)
C15_62 C 0.58904(7) 0.91495(6) 0.68965(6)
N7_62 N 0.57339(5) 0.90811(6) 0.68498(6)
C16_62 C 0.52426(7) 0.91015(7) 0.64407(8)
H9_62 H 0.5175 0.9167 0.6356
C17_62 C 0.53851(7) 0.91839(7) 0.65228(7)
H10_62 H 0.5415 0.9304 0.6495
C18_62 C 0.54844(6) 0.90889(6) 0.66459(7)
C19_62 C 0.54301(7) 0.89182(7) 0.66898(6)
H11_62 H 0.5491 0.8852 0.6779
C20_62 C 0.52860(6) 0.88459(6) 0.66024(6)
H12_62 H 0.5249 0.8729 0.6634
C21_62 C 0.59932(7) 0.88491(7) 0.72798(7)
H13_62 H 0.5930 0.8771 0.7357
C22_62 C 0.58993(7) 0.89362(7) 0.71502(7)
H14_62 H 0.5775 0.8916 0.7136
C23_62 C 0.59888(6) 0.90543(6) 0.70395(6)
C24_62 C 0.61709(7) 0.90828(7) 0.70696(7)
H15_62 H 0.6235 0.9168 0.7001
C25_62 C 0.62549(6) 0.89851(7) 0.72005(6)
H16_62 H 0.6379 0.9002 0.7218
N21_62 N 0.60444(5) 0.99927(4) 0.60615(5)
N22_62 N 0.63852(5) 0.97903(5) 0.60979(5)
C58_62 C 0.63502(6) 0.97653(6) 0.59251(6)
H37_62 H 0.6269 0.9844 0.5868
C59_62 C 0.64262(6) 0.96312(6) 0.58250(6)
H38_62 H 0.6396 0.9617 0.5703
C60_62 C 0.65461(6) 0.95184(6) 0.59056(6)
C61_62 C 0.65892(7) 0.95457(7) 0.60858(7)
H39_62 H 0.6676 0.9474 0.6144
C62_62 C 0.65030(7) 0.96782(7) 0.61750(6)
H40_62 H 0.6527 0.9693 0.6299
C63_62 C 0.68473(6) 0.91646(6) 0.57859(6)
N23_62 N 0.67854(5) 0.93090(5) 0.58684(6)
C64_62 C 0.66264(6) 0.93660(6) 0.58110(6)
N24_62 N 0.65312(5) 0.92917(5) 0.56784(5)
C65_62 C 0.66096(7) 0.91495(6) 0.56035(6)
N25_62 N 0.67661(5) 0.90811(6) 0.56502(6)
C66_62 C 0.72574(7) 0.91015(7) 0.60593(8)
H41_62 H 0.7325 0.9167 0.6144
C67_62 C 0.71149(7) 0.91839(7) 0.59772(7)
H42_62 H 0.7085 0.9304 0.6005
C68_62 C 0.70156(6) 0.90889(6) 0.58541(7)
C69_62 C 0.70699(7) 0.89182(7) 0.58102(6)
H43_62 H 0.7009 0.8852 0.5721
C70_62 C 0.72140(6) 0.88459(6) 0.58976(6)
H44_62 H 0.7251 0.8729 0.5866
C71_62 C 0.65068(7) 0.88491(7) 0.52202(7)
H45_62 H 0.6570 0.8771 0.5143
C72_62 C 0.66007(7) 0.89362(7) 0.53498(7)
H46_62 H 0.6725 0.8916 0.5364
C73_62 C 0.65112(6) 0.90543(6) 0.54605(6)
C74_62 C 0.63291(7) 0.90828(7) 0.54304(7)
H47_62 H 0.6265 0.9168 0.5499
C75_62 C 0.62451(6) 0.89851(7) 0.52995(6)
H48_62 H 0.6121 0.9002 0.5282
N1_31 N 0.34256(6) 0.42990(7) 0.42949(6)
C1_31 C 0.33483(8) 0.41534(8) 0.43644(8)
N2_31 N 0.36141(6) 0.38956(5) 0.47936(6)
C2_31 C 0.36502(8) 0.40628(8) 0.47506(8)
H1_31 H 0.3737 0.4125 0.4819
C3_31 C 0.35695(9) 0.41528(9) 0.46120(8)
H2_31 H 0.3604 0.4271 0.4583
C4_31 C 0.34395(7) 0.40696(8) 0.45176(8)
C5_31 C 0.33988(10) 0.38936(10) 0.45598(10)
H3_31 H 0.3310 0.3831 0.4495
C6_31 C 0.34903(10) 0.38120(11) 0.46978(10)
H4_31 H 0.3464 0.3691 0.4725
Co1_19 Co 0.3750 0.375000(10) 0.5004
N3_63 N 0.39556(5) 0.39385(5) 0.50073(4)
C7_63 C 0.40956(9) 0.39985(8) 0.49933(7)
S1_63 S 0.43001(3) 0.40745(4) 0.49680(4)
N4_63 N 0.36148(5) 0.39021(5) 0.52097(5)
C8_63 C 0.36498(6) 0.40749(6) 0.52347(6)
H5_63 H 0.3731 0.4132 0.5156
C9_63 C 0.35738(6) 0.41750(6) 0.53688(6)
H6_63 H 0.3604 0.4297 0.5383
C10_63 C 0.34539(6) 0.40944(6) 0.54816(6)
C11_63 C 0.34108(7) 0.39142(7) 0.54543(7)
H7_63 H 0.3324 0.3856 0.5526
C12_63 C 0.34970(7) 0.38250(6) 0.53218(7)
H8_63 H 0.3473 0.3701 0.5307
C13_63 C 0.31527(6) 0.42141(6) 0.58354(6)
N5_63 N 0.32146(5) 0.41316(6) 0.56910(5)
C14_63 C 0.33736(6) 0.41890(6) 0.56340(6)
N6_63 N 0.34688(5) 0.43216(5) 0.57083(5)
C15_63 C 0.33904(7) 0.43965(6) 0.58505(6)
N7_63 N 0.32339(5) 0.43498(6) 0.59189(6)
C16_63 C 0.27426(7) 0.39407(8) 0.58985(7)
H9_63 H 0.2675 0.3856 0.5833
C17_63 C 0.28851(7) 0.40228(7) 0.58161(7)
H10_63 H 0.2915 0.3995 0.5696
C18_63 C 0.29844(6) 0.41459(7) 0.59111(6)
C19_63 C 0.29301(7) 0.41898(6) 0.60818(7)
H11_63 H 0.2991 0.4279 0.6148
C20_63 C 0.27860(6) 0.41024(6) 0.61541(6)
H12_63 H 0.2749 0.4134 0.6271
C21_63 C 0.34932(7) 0.47798(7) 0.61509(7)
H13_63 H 0.3430 0.4857 0.6229
C22_63 C 0.33993(7) 0.46502(7) 0.60638(7)
H14_63 H 0.3275 0.4636 0.6084
C23_63 C 0.34888(6) 0.45395(6) 0.59457(6)
C24_63 C 0.36709(7) 0.45696(7) 0.59172(7)
H15_63 H 0.3735 0.4501 0.5832
C25_63 C 0.37549(6) 0.47005(6) 0.60149(7)
H16_63 H 0.3879 0.4718 0.5998
N11_31 N 0.32051(6) 0.40744(6) 0.42990(7)
N12_31 N 0.32010(7) 0.42949(6) 0.40744(6)
N13_20 N 0.40744(6) 0.32010(7) 0.42949(6)
N14_20 N 0.42949(6) 0.34256(6) 0.42990(7)
N15_20 N 0.42990(7) 0.32051(6) 0.40744(6)
C27_31 C 0.31356(8) 0.41517(8) 0.41534(8)
C28_31 C 0.33466(8) 0.43644(8) 0.41517(8)
C29_20 C 0.41517(8) 0.33466(8) 0.43644(8)
C30_20 C 0.43644(8) 0.33483(8) 0.41534(8)
C31_20 C 0.41534(8) 0.31356(8) 0.41517(8)
N16_31 N 0.36044(5) 0.47936(6) 0.38859(6)
N17_31 N 0.27064(6) 0.38859(6) 0.38956(5)
N18_20 N 0.38859(6) 0.36044(5) 0.47936(6)
N19_20 N 0.38956(5) 0.27064(6) 0.38859(6)
N20_20 N 0.47936(6) 0.36141(6) 0.38956(5)
C32_31 C 0.34372(8) 0.47506(8) 0.38498(8)
C33_31 C 0.27494(8) 0.38498(8) 0.40628(8)
C34_20 C 0.38498(8) 0.34372(8) 0.47506(8)
C35_20 C 0.40628(8) 0.27494(8) 0.38498(8)
C36_20 C 0.47506(8) 0.36502(8) 0.40628(8)
H17_31 H 0.3375 0.4819 0.3763
H18_31 H 0.2681 0.3763 0.4125
H19_20 H 0.3763 0.3375 0.4819
H20_20 H 0.4125 0.2681 0.3763
H21_20 H 0.4819 0.3737 0.4125
C37_31 C 0.33472(9) 0.46120(8) 0.39305(9)
C38_31 C 0.28880(8) 0.39305(9) 0.41528(9)
C39_20 C 0.39305(9) 0.33472(9) 0.46120(8)
C40_20 C 0.41528(9) 0.28880(8) 0.39305(9)
C41_20 C 0.46120(8) 0.35695(9) 0.41528(9)
H22_31 H 0.3229 0.4583 0.3896
H23_31 H 0.2917 0.3896 0.4271
H24_20 H 0.3896 0.3229 0.4583
H25_20 H 0.4271 0.2917 0.3896
H26_20 H 0.4583 0.3604 0.4271
C42_31 C 0.34304(8) 0.45176(8) 0.40605(7)
C43_31 C 0.29824(8) 0.40605(7) 0.40696(8)
C44_20 C 0.40605(7) 0.34304(8) 0.45176(8)
C45_20 C 0.40696(8) 0.29824(8) 0.40605(7)
C46_20 C 0.45176(8) 0.34395(7) 0.40696(8)
C47_31 C 0.36064(10) 0.45598(10) 0.41012(10)
C48_31 C 0.29402(10) 0.41012(10) 0.38936(10)
C49_20 C 0.41012(10) 0.36064(10) 0.45598(10)
C50_20 C 0.38936(10) 0.29402(10) 0.41012(10)
C51_20 C 0.45598(10) 0.33988(10) 0.38936(10)
H27_31 H 0.3669 0.4495 0.4190
H28_31 H 0.3005 0.4190 0.3831
H29_20 H 0.4190 0.3669 0.4495
H30_20 H 0.3831 0.3005 0.4190
H31_20 H 0.4495 0.3310 0.3831
C52_31 C 0.36880(11) 0.46978(10) 0.40097(10)
C53_31 C 0.28022(10) 0.40097(10) 0.38120(11)
C54_20 C 0.40097(10) 0.36880(11) 0.46978(10)
C55_20 C 0.38120(11) 0.28022(10) 0.40097(10)
C56_20 C 0.46978(10) 0.34903(10) 0.38120(11)
H32_31 H 0.3809 0.4725 0.4036
H33_31 H 0.2775 0.4036 0.3691
H34_20 H 0.4036 0.3809 0.4725
H35_20 H 0.3691 0.2775 0.4036
H36_20 H 0.4725 0.3464 0.3691
Co3_20 Co 0.375000(10) 0.5004 0.3750
Co4_14 Co 0.2496 0.3750 0.375000(10)
Co5_14 Co 0.375000(10) 0.2496 0.3750
Co6_15 Co 0.5004 0.3750 0.375000(10)
N21_63 N 0.35444(5) 0.35615(5) 0.50073(4)
C57_63 C 0.34044(9) 0.35015(8) 0.49933(7)
S3_63 S 0.31999(3) 0.34255(4) 0.49680(4)
N22_63 N 0.38852(5) 0.35979(5) 0.52097(5)
C58_63 C 0.38502(6) 0.34251(6) 0.52347(6)
H37_63 H 0.3769 0.3368 0.5156
C59_63 C 0.39262(6) 0.33250(6) 0.53688(6)
H38_63 H 0.3896 0.3203 0.5383
C60_63 C 0.40461(6) 0.34056(6) 0.54816(6)
C61_63 C 0.40892(7) 0.35858(7) 0.54543(7)
H39_63 H 0.4176 0.3644 0.5526
C62_63 C 0.40030(7) 0.36750(6) 0.53218(7)
H40_63 H 0.4027 0.3799 0.5307
C63_63 C 0.43473(6) 0.32859(6) 0.58354(6)
N23_63 N 0.42854(5) 0.33684(6) 0.56910(5)
C64_63 C 0.41264(6) 0.33110(6) 0.56340(6)
N24_63 N 0.40312(5) 0.31784(5) 0.57083(5)
C65_63 C 0.41096(7) 0.31035(6) 0.58505(6)
N25_63 N 0.42661(5) 0.31502(6) 0.59189(6)
C66_63 C 0.47574(7) 0.35593(8) 0.58985(7)
H41_63 H 0.4825 0.3644 0.5833
C67_63 C 0.46149(7) 0.34772(7) 0.58161(7)
H42_63 H 0.4585 0.3505 0.5696
C68_63 C 0.45156(6) 0.33541(7) 0.59111(6)
C69_63 C 0.45699(7) 0.33102(6) 0.60818(7)
H43_63 H 0.4509 0.3221 0.6148
C70_63 C 0.47140(6) 0.33976(6) 0.61541(6)
H44_63 H 0.4751 0.3366 0.6271
C71_63 C 0.40068(7) 0.27202(7) 0.61509(7)
H45_63 H 0.4070 0.2643 0.6229
C72_63 C 0.41007(7) 0.28498(7) 0.60638(7)
H46_63 H 0.4225 0.2864 0.6084
C73_63 C 0.40112(6) 0.29605(6) 0.59457(6)
C74_63 C 0.38291(7) 0.29304(7) 0.59172(7)
H47_63 H 0.3765 0.2999 0.5832
C75_63 C 0.37451(6) 0.27995(6) 0.60149(7)
H48_63 H 0.3621 0.2782 0.5998
N3_64 N 0.64385(5) 0.10444(5) 0.75073(4)
C7_64 C 0.64985(8) 0.09044(9) 0.74933(7)
S1_64 S 0.65745(4) 0.06999(3) 0.74680(4)
N4_64 N 0.64021(5) 0.13852(5) 0.77097(5)
C8_64 C 0.65749(6) 0.13502(6) 0.77347(6)
H5_64 H 0.6632 0.1269 0.7656
C9_64 C 0.66750(6) 0.14262(6) 0.78688(6)
H6_64 H 0.6797 0.1396 0.7883
C10_64 C 0.65944(6) 0.15461(6) 0.79816(6)
C11_64 C 0.64142(7) 0.15892(7) 0.79543(7)
H7_64 H 0.6356 0.1676 0.8026
C12_64 C 0.63250(6) 0.15030(7) 0.78218(7)
H8_64 H 0.6201 0.1527 0.7807
C13_64 C 0.67141(6) 0.18473(6) 0.83354(6)
N5_64 N 0.66316(6) 0.17854(5) 0.81910(5)
C14_64 C 0.66890(6) 0.16264(6) 0.81340(6)
N6_64 N 0.68216(5) 0.15312(5) 0.82083(5)
C15_64 C 0.68965(6) 0.16096(7) 0.83505(6)
N7_64 N 0.68498(6) 0.17661(5) 0.84189(6)
C16_64 C 0.64407(8) 0.22574(7) 0.83985(7)
H9_64 H 0.6356 0.2325 0.8333
C17_64 C 0.65228(7) 0.21149(7) 0.83161(7)
H10_64 H 0.6495 0.2085 0.8196
C18_64 C 0.66459(7) 0.20156(6) 0.84111(6)
C19_64 C 0.66898(6) 0.20699(7) 0.85818(7)
H11_64 H 0.6779 0.2009 0.8648
C20_64 C 0.66024(6) 0.22140(6) 0.86541(6)
H12_64 H 0.6634 0.2251 0.8771
C21_64 C 0.72798(7) 0.15068(7) 0.86509(7)
H13_64 H 0.7357 0.1570 0.8729
C22_64 C 0.71502(7) 0.16007(7) 0.85638(7)
H14_64 H 0.7136 0.1725 0.8584
C23_64 C 0.70395(6) 0.15112(6) 0.84457(6)
C24_64 C 0.70696(7) 0.13291(7) 0.84172(7)
H15_64 H 0.7001 0.1265 0.8332
C25_64 C 0.72005(6) 0.12451(6) 0.85149(7)
H16_64 H 0.7218 0.1121 0.8498
N21_64 N 0.60615(5) 0.14556(5) 0.75073(4)
C57_64 C 0.60015(8) 0.15956(9) 0.74933(7)
S3_64 S 0.59255(4) 0.18001(3) 0.74680(4)
N22_64 N 0.60979(5) 0.11148(5) 0.77097(5)
C58_64 C 0.59251(6) 0.11498(6) 0.77347(6)
H37_64 H 0.5868 0.1231 0.7656
C59_64 C 0.58250(6) 0.10738(6) 0.78688(6)
H38_64 H 0.5703 0.1104 0.7883
C60_64 C 0.59056(6) 0.09539(6) 0.79816(6)
C61_64 C 0.60858(7) 0.09108(7) 0.79543(7)
H39_64 H 0.6144 0.0824 0.8026
C62_64 C 0.61750(6) 0.09970(7) 0.78218(7)
H40_64 H 0.6299 0.0973 0.7807
C63_64 C 0.57859(6) 0.06527(6) 0.83354(6)
N23_64 N 0.58684(6) 0.07146(5) 0.81910(5)
C64_64 C 0.58110(6) 0.08736(6) 0.81340(6)
N24_64 N 0.56784(5) 0.09688(5) 0.82083(5)
C65_64 C 0.56035(6) 0.08904(7) 0.83505(6)
N25_64 N 0.56502(6) 0.07339(5) 0.84189(6)
C66_64 C 0.60593(8) 0.02426(7) 0.83985(7)
H41_64 H 0.6144 0.0175 0.8333
C67_64 C 0.59772(7) 0.03851(7) 0.83161(7)
H42_64 H 0.6005 0.0415 0.8196
C68_64 C 0.58541(7) 0.04844(6) 0.84111(6)
C69_64 C 0.58102(6) 0.04301(7) 0.85818(7)
H43_64 H 0.5721 0.0491 0.8648
C70_64 C 0.58976(6) 0.02860(6) 0.86541(6)
H44_64 H 0.5866 0.0249 0.8771
C71_64 C 0.52202(7) 0.09932(7) 0.86509(7)
H45_64 H 0.5143 0.0930 0.8729
C72_64 C 0.53498(7) 0.08993(7) 0.85638(7)
H46_64 H 0.5364 0.0775 0.8584
C73_64 C 0.54605(6) 0.09888(6) 0.84457(6)
C74_64 C 0.54304(7) 0.11709(7) 0.84172(7)
H47_64 H 0.5499 0.1235 0.8332
C75_64 C 0.52995(6) 0.12549(6) 0.85149(7)
H48_64 H 0.5282 0.1379 0.8498
N3_65 N 0.74927(4) 0.89556(5) 0.35615(5)
C7_65 C 0.75067(7) 0.90956(9) 0.35015(8)
S1_65 S 0.75320(4) 0.93001(3) 0.34255(4)
N4_65 N 0.72903(5) 0.86148(5) 0.35979(5)
C8_65 C 0.72653(6) 0.86498(6) 0.34251(6)
H5_65 H 0.7344 0.8731 0.3368
C9_65 C 0.71312(6) 0.85738(6) 0.33250(6)
H6_65 H 0.7117 0.8604 0.3203
C10_65 C 0.70184(6) 0.84539(6) 0.34056(6)
C11_65 C 0.70457(7) 0.84108(7) 0.35858(7)
H7_65 H 0.6974 0.8324 0.3644
C12_65 C 0.71782(7) 0.84970(7) 0.36750(6)
H8_65 H 0.7193 0.8473 0.3799
C13_65 C 0.66646(6) 0.81527(6) 0.32859(6)
N5_65 N 0.68090(5) 0.82146(5) 0.33684(6)
C14_65 C 0.68660(6) 0.83736(6) 0.33110(6)
N6_65 N 0.67917(5) 0.84688(5) 0.31784(5)
C15_65 C 0.66495(6) 0.83904(7) 0.31035(6)
N7_65 N 0.65811(6) 0.82339(5) 0.31502(6)
C16_65 C 0.66015(7) 0.77426(7) 0.35593(8)
H9_65 H 0.6667 0.7675 0.3644
C17_65 C 0.66839(7) 0.78851(7) 0.34772(7)
H10_65 H 0.6804 0.7915 0.3505
C18_65 C 0.65889(6) 0.79844(6) 0.33541(7)
C19_65 C 0.64182(7) 0.79301(7) 0.33102(6)
H11_65 H 0.6352 0.7991 0.3221
C20_65 C 0.63459(6) 0.77860(6) 0.33976(6)
H12_65 H 0.6229 0.7749 0.3366
C21_65 C 0.63491(7) 0.84932(7) 0.27202(7)
H13_65 H 0.6271 0.8430 0.2643
C22_65 C 0.64362(7) 0.83993(7) 0.28498(7)
H14_65 H 0.6416 0.8275 0.2864
C23_65 C 0.65543(6) 0.84888(6) 0.29605(6)
C24_65 C 0.65828(7) 0.86709(7) 0.29304(7)
H15_65 H 0.6668 0.8735 0.2999
C25_65 C 0.64851(7) 0.87549(6) 0.27995(6)
H16_65 H 0.6502 0.8879 0.2782
N21_65 N 0.74927(4) 0.85444(5) 0.39385(5)
C57_65 C 0.75067(7) 0.84044(9) 0.39985(8)
S3_65 S 0.75320(4) 0.81999(3) 0.40745(4)
N22_65 N 0.72903(5) 0.88852(5) 0.39021(5)
C58_65 C 0.72653(6) 0.88502(6) 0.40749(6)
H37_65 H 0.7344 0.8769 0.4132
C59_65 C 0.71312(6) 0.89262(6) 0.41750(6)
H38_65 H 0.7117 0.8896 0.4297
C60_65 C 0.70184(6) 0.90461(6) 0.40944(6)
C61_65 C 0.70457(7) 0.90892(7) 0.39142(7)
H39_65 H 0.6974 0.9176 0.3856
C62_65 C 0.71782(7) 0.90030(7) 0.38250(6)
H40_65 H 0.7193 0.9027 0.3701
C63_65 C 0.66646(6) 0.93473(6) 0.42141(6)
N23_65 N 0.68090(5) 0.92854(5) 0.41316(6)
C64_65 C 0.68660(6) 0.91264(6) 0.41890(6)
N24_65 N 0.67917(5) 0.90312(5) 0.43216(5)
C65_65 C 0.66495(6) 0.91096(7) 0.43965(6)
N25_65 N 0.65811(6) 0.92661(5) 0.43498(6)
C66_65 C 0.66015(7) 0.97574(7) 0.39407(8)
H41_65 H 0.6667 0.9825 0.3856
C67_65 C 0.66839(7) 0.96149(7) 0.40228(7)
H42_65 H 0.6804 0.9585 0.3995
C68_65 C 0.65889(6) 0.95156(6) 0.41459(7)
C69_65 C 0.64182(7) 0.95699(7) 0.41898(6)
H43_65 H 0.6352 0.9509 0.4279
C70_65 C 0.63459(6) 0.97140(6) 0.41024(6)
H44_65 H 0.6229 0.9751 0.4134
C71_65 C 0.63491(7) 0.90068(7) 0.47798(7)
H45_65 H 0.6271 0.9070 0.4857
C72_65 C 0.64362(7) 0.91007(7) 0.46502(7)
H46_65 H 0.6416 0.9225 0.4636
C73_65 C 0.65543(6) 0.90112(6) 0.45395(6)
C74_65 C 0.65828(7) 0.88291(7) 0.45696(7)
H47_65 H 0.6668 0.8765 0.4501
C75_65 C 0.64851(7) 0.87451(6) 0.47005(6)
H48_65 H 0.6502 0.8621 0.4718
N1_32 N 0.92990(7) 0.42949(6) 0.84256(6)
C1_32 C 0.91534(8) 0.43644(8) 0.83483(8)
N2_32 N 0.88956(5) 0.47936(6) 0.86141(6)
C2_32 C 0.90628(8) 0.47506(8) 0.86502(8)
H1_32 H 0.9125 0.4819 0.8737
C3_32 C 0.91528(9) 0.46120(8) 0.85695(9)
H2_32 H 0.9271 0.4583 0.8604
C4_32 C 0.90696(8) 0.45176(8) 0.84395(7)
C5_32 C 0.88936(10) 0.45598(10) 0.83988(10)
H3_32 H 0.8831 0.4495 0.8310
C6_32 C 0.88120(11) 0.46978(10) 0.84903(10)
H4_32 H 0.8691 0.4725 0.8464
N3_66 N 0.89385(5) 0.50073(4) 0.89556(5)
C7_66 C 0.89985(8) 0.49933(7) 0.90956(9)
S1_66 S 0.90745(4) 0.49680(4) 0.93001(3)
N4_66 N 0.89021(5) 0.52097(5) 0.86148(5)
C8_66 C 0.90749(6) 0.52347(6) 0.86498(6)
H5_66 H 0.9132 0.5156 0.8731
C9_66 C 0.91750(6) 0.53688(6) 0.85738(6)
H6_66 H 0.9297 0.5383 0.8604
C10_66 C 0.90944(6) 0.54816(6) 0.84539(6)
C11_66 C 0.89142(7) 0.54543(7) 0.84108(7)
H7_66 H 0.8856 0.5526 0.8324
C12_66 C 0.88250(6) 0.53218(7) 0.84970(7)
H8_66 H 0.8701 0.5307 0.8473
C13_66 C 0.92141(6) 0.58354(6) 0.81527(6)
N5_66 N 0.91316(6) 0.56910(5) 0.82146(5)
C14_66 C 0.91890(6) 0.56340(6) 0.83736(6)
N6_66 N 0.93216(5) 0.57083(5) 0.84688(5)
C15_66 C 0.93965(6) 0.58505(6) 0.83904(7)
N7_66 N 0.93498(6) 0.59189(6) 0.82339(5)
C16_66 C 0.89407(8) 0.58985(7) 0.77426(7)
H9_66 H 0.8856 0.5833 0.7675
C17_66 C 0.90228(7) 0.58161(7) 0.78851(7)
H10_66 H 0.8995 0.5696 0.7915
C18_66 C 0.91459(7) 0.59111(6) 0.79844(6)
C19_66 C 0.91898(6) 0.60818(7) 0.79301(7)
H11_66 H 0.9279 0.6148 0.7991
C20_66 C 0.91024(6) 0.61541(6) 0.77860(6)
H12_66 H 0.9134 0.6271 0.7749
C21_66 C 0.97798(7) 0.61509(7) 0.84932(7)
H13_66 H 0.9857 0.6229 0.8430
C22_66 C 0.96502(7) 0.60638(7) 0.83993(7)
H14_66 H 0.9636 0.6084 0.8275
C23_66 C 0.95395(6) 0.59457(6) 0.84888(6)
C24_66 C 0.95696(7) 0.59172(7) 0.86709(7)
H15_66 H 0.9501 0.5832 0.8735
C25_66 C 0.97005(6) 0.60149(7) 0.87549(6)
H16_66 H 0.9718 0.5998 0.8879
N11_32 N 0.90744(6) 0.42990(7) 0.82051(6)
N12_32 N 0.92949(6) 0.40744(6) 0.82010(7)
C27_32 C 0.91517(8) 0.41534(8) 0.81356(8)
C28_32 C 0.93644(8) 0.41517(8) 0.83466(8)
N16_32 N 0.97936(6) 0.38859(6) 0.86044(5)
N17_32 N 0.88859(6) 0.38956(5) 0.77064(6)
C32_32 C 0.97506(8) 0.38498(8) 0.84372(8)
C33_32 C 0.88498(8) 0.40628(8) 0.77494(8)
H17_32 H 0.9819 0.3763 0.8375
H18_32 H 0.8763 0.4125 0.7681
C37_32 C 0.96120(8) 0.39305(9) 0.83472(9)
C38_32 C 0.89305(9) 0.41528(9) 0.78880(8)
H22_32 H 0.9583 0.3896 0.8229
H23_32 H 0.8896 0.4271 0.7917
C42_32 C 0.95176(8) 0.40605(7) 0.84304(8)
C43_32 C 0.90605(7) 0.40696(8) 0.79824(8)
C47_32 C 0.95598(10) 0.41012(10) 0.86064(10)
C48_32 C 0.91012(10) 0.38936(10) 0.79402(10)
H27_32 H 0.9495 0.4190 0.8669
H28_32 H 0.9190 0.3831 0.8005
C52_32 C 0.96978(10) 0.40097(10) 0.86880(11)
C53_32 C 0.90097(10) 0.38120(11) 0.78022(10)
H32_32 H 0.9725 0.4036 0.8809
H33_32 H 0.9036 0.3691 0.7775
N21_66 N 0.85615(5) 0.50073(4) 0.85444(5)
C57_66 C 0.85015(8) 0.49933(7) 0.84044(9)
S3_66 S 0.84255(4) 0.49680(4) 0.81999(3)
N22_66 N 0.85979(5) 0.52097(5) 0.88852(5)
C58_66 C 0.84251(6) 0.52347(6) 0.88502(6)
H37_66 H 0.8368 0.5156 0.8769
C59_66 C 0.83250(6) 0.53688(6) 0.89262(6)
H38_66 H 0.8203 0.5383 0.8896
C60_66 C 0.84056(6) 0.54816(6) 0.90461(6)
C61_66 C 0.85858(7) 0.54543(7) 0.90892(7)
H39_66 H 0.8644 0.5526 0.9176
C62_66 C 0.86750(6) 0.53218(7) 0.90030(7)
H40_66 H 0.8799 0.5307 0.9027
C63_66 C 0.82859(6) 0.58354(6) 0.93473(6)
N23_66 N 0.83684(6) 0.56910(5) 0.92854(5)
C64_66 C 0.83110(6) 0.56340(6) 0.91264(6)
N24_66 N 0.81784(5) 0.57083(5) 0.90312(5)
C65_66 C 0.81035(6) 0.58505(6) 0.91096(7)
N25_66 N 0.81502(6) 0.59189(6) 0.92661(5)
C66_66 C 0.85593(8) 0.58985(7) 0.97574(7)
H41_66 H 0.8644 0.5833 0.9825
C67_66 C 0.84772(7) 0.58161(7) 0.96149(7)
H42_66 H 0.8505 0.5696 0.9585
C68_66 C 0.83541(7) 0.59111(6) 0.95156(6)
C69_66 C 0.83102(6) 0.60818(7) 0.95699(7)
H43_66 H 0.8221 0.6148 0.9509
C70_66 C 0.83976(6) 0.61541(6) 0.97140(6)
H44_66 H 0.8366 0.6271 0.9751
C71_66 C 0.77202(7) 0.61509(7) 0.90068(7)
H45_66 H 0.7643 0.6229 0.9070
C72_66 C 0.78498(7) 0.60638(7) 0.91007(7)
H46_66 H 0.7864 0.6084 0.9225
C73_66 C 0.79605(6) 0.59457(6) 0.90112(6)
C74_66 C 0.79304(7) 0.59172(7) 0.88291(7)
H47_66 H 0.7999 0.5832 0.8765
C75_66 C 0.77995(6) 0.60149(7) 0.87451(6)
H48_66 H 0.7782 0.5998 0.8621
N3_67 N 0.75073(4) 0.60615(5) 0.14556(5)
C7_67 C 0.74933(7) 0.60015(8) 0.15956(9)
S1_67 S 0.74680(4) 0.59255(4) 0.18001(3)
N4_67 N 0.77097(5) 0.60979(5) 0.11148(5)
C8_67 C 0.77347(6) 0.59251(6) 0.11498(6)
H5_67 H 0.7656 0.5868 0.1231
C9_67 C 0.78688(6) 0.58250(6) 0.10738(6)
H6_67 H 0.7883 0.5703 0.1104
C10_67 C 0.79816(6) 0.59056(6) 0.09539(6)
C11_67 C 0.79543(7) 0.60858(7) 0.09108(7)
H7_67 H 0.8026 0.6144 0.0824
C12_67 C 0.78218(7) 0.61750(6) 0.09970(7)
H8_67 H 0.7807 0.6299 0.0973
C13_67 C 0.83354(6) 0.57859(6) 0.06527(6)
N5_67 N 0.81910(5) 0.58684(6) 0.07146(5)
C14_67 C 0.81340(6) 0.58110(6) 0.08736(6)
N6_67 N 0.82083(5) 0.56784(5) 0.09688(5)
C15_67 C 0.83505(6) 0.56035(6) 0.08904(7)
N7_67 N 0.84189(6) 0.56502(6) 0.07339(5)
C16_67 C 0.83985(7) 0.60593(8) 0.02426(7)
H9_67 H 0.8333 0.6144 0.0175
C17_67 C 0.83161(7) 0.59772(7) 0.03851(7)
H10_67 H 0.8196 0.6005 0.0415
C18_67 C 0.84111(6) 0.58541(7) 0.04844(6)
C19_67 C 0.85818(7) 0.58102(6) 0.04301(7)
H11_67 H 0.8648 0.5721 0.0491
C20_67 C 0.86541(6) 0.58976(6) 0.02860(6)
H12_67 H 0.8771 0.5866 0.0249
C21_67 C 0.86509(7) 0.52202(7) 0.09932(7)
H13_67 H 0.8729 0.5143 0.0930
C22_67 C 0.85638(7) 0.53498(7) 0.08993(7)
H14_67 H 0.8584 0.5364 0.0775
C23_67 C 0.84457(6) 0.54605(6) 0.09888(6)
C24_67 C 0.84172(7) 0.54304(7) 0.11709(7)
H15_67 H 0.8332 0.5499 0.1235
C25_67 C 0.85149(7) 0.52995(6) 0.12549(6)
H16_67 H 0.8498 0.5282 0.1379
N21_67 N 0.75073(4) 0.64385(5) 0.10444(5)
C57_67 C 0.74933(7) 0.64985(8) 0.09044(9)
S3_67 S 0.74680(4) 0.65745(4) 0.06999(3)
N22_67 N 0.77097(5) 0.64021(5) 0.13852(5)
C58_67 C 0.77347(6) 0.65749(6) 0.13502(6)
H37_67 H 0.7656 0.6632 0.1269
C59_67 C 0.78688(6) 0.66750(6) 0.14262(6)
H38_67 H 0.7883 0.6797 0.1396
C60_67 C 0.79816(6) 0.65944(6) 0.15461(6)
C61_67 C 0.79543(7) 0.64142(7) 0.15892(7)
H39_67 H 0.8026 0.6356 0.1676
C62_67 C 0.78218(7) 0.63250(6) 0.15030(7)
H40_67 H 0.7807 0.6201 0.1527
C63_67 C 0.83354(6) 0.67141(6) 0.18473(6)
N23_67 N 0.81910(5) 0.66316(6) 0.17854(5)
C64_67 C 0.81340(6) 0.66890(6) 0.16264(6)
N24_67 N 0.82083(5) 0.68216(5) 0.15312(5)
C65_67 C 0.83505(6) 0.68965(6) 0.16096(7)
N25_67 N 0.84189(6) 0.68498(6) 0.17661(5)
C66_67 C 0.83985(7) 0.64407(8) 0.22574(7)
H41_67 H 0.8333 0.6356 0.2325
C67_67 C 0.83161(7) 0.65228(7) 0.21149(7)
H42_67 H 0.8196 0.6495 0.2085
C68_67 C 0.84111(6) 0.66459(7) 0.20156(6)
C69_67 C 0.85818(7) 0.66898(6) 0.20699(7)
H43_67 H 0.8648 0.6779 0.2009
C70_67 C 0.86541(6) 0.66024(6) 0.22140(6)
H44_67 H 0.8771 0.6634 0.2251
C71_67 C 0.86509(7) 0.72798(7) 0.15068(7)
H45_67 H 0.8729 0.7357 0.1570
C72_67 C 0.85638(7) 0.71502(7) 0.16007(7)
H46_67 H 0.8584 0.7136 0.1725
C73_67 C 0.84457(6) 0.70395(6) 0.15112(6)
C74_67 C 0.84172(7) 0.70696(7) 0.13291(7)
H47_67 H 0.8332 0.7001 0.1265
C75_67 C 0.85149(7) 0.72005(6) 0.12451(6)
H48_67 H 0.8498 0.7218 0.1121
N3_68 N 0.64556(5) 0.75073(4) 0.10615(5)
C7_68 C 0.65956(9) 0.74933(7) 0.10015(8)
S1_68 S 0.68001(3) 0.74680(4) 0.09255(4)
N4_68 N 0.61148(5) 0.77097(5) 0.10979(5)
C8_68 C 0.61498(6) 0.77347(6) 0.09251(6)
H5_68 H 0.6231 0.7656 0.0868
C9_68 C 0.60738(6) 0.78688(6) 0.08250(6)
H6_68 H 0.6104 0.7883 0.0703
C10_68 C 0.59539(6) 0.79816(6) 0.09056(6)
C11_68 C 0.59108(7) 0.79543(7) 0.10858(7)
H7_68 H 0.5824 0.8026 0.1144
C12_68 C 0.59970(7) 0.78218(7) 0.11750(6)
H8_68 H 0.5973 0.7807 0.1299
C13_68 C 0.56527(6) 0.83354(6) 0.07859(6)
N5_68 N 0.57146(5) 0.81910(5) 0.08684(6)
C14_68 C 0.58736(6) 0.81340(6) 0.08110(6)
N6_68 N 0.59688(5) 0.82083(5) 0.06784(5)
C15_68 C 0.58904(7) 0.83505(6) 0.06035(6)
N7_68 N 0.57339(5) 0.84189(6) 0.06502(6)
C16_68 C 0.52426(7) 0.83985(7) 0.10593(8)
H9_68 H 0.5175 0.8333 0.1144
C17_68 C 0.53851(7) 0.83161(7) 0.09772(7)
H10_68 H 0.5415 0.8196 0.1005
C18_68 C 0.54844(6) 0.84111(6) 0.08541(7)
C19_68 C 0.54301(7) 0.85818(7) 0.08102(6)
H11_68 H 0.5491 0.8648 0.0721
C20_68 C 0.52860(6) 0.86541(6) 0.08976(6)
H12_68 H 0.5249 0.8771 0.0866
C21_68 C 0.59932(7) 0.86509(7) 0.02202(7)
H13_68 H 0.5930 0.8729 0.0143
C22_68 C 0.58993(7) 0.85638(7) 0.03498(7)
H14_68 H 0.5775 0.8584 0.0364
C23_68 C 0.59888(6) 0.84457(6) 0.04605(6)
C24_68 C 0.61709(7) 0.84172(7) 0.04304(7)
H15_68 H 0.6235 0.8332 0.0499
C25_68 C 0.62549(6) 0.85149(7) 0.02995(6)
H16_68 H 0.6379 0.8498 0.0282
N21_68 N 0.60444(5) 0.75073(4) 0.14385(5)
C57_68 C 0.59044(9) 0.74933(7) 0.14985(8)
S3_68 S 0.56999(3) 0.74680(4) 0.15745(4)
N22_68 N 0.63852(5) 0.77097(5) 0.14021(5)
C58_68 C 0.63502(6) 0.77347(6) 0.15749(6)
H37_68 H 0.6269 0.7656 0.1632
C59_68 C 0.64262(6) 0.78688(6) 0.16750(6)
H38_68 H 0.6396 0.7883 0.1797
C60_68 C 0.65461(6) 0.79816(6) 0.15944(6)
C61_68 C 0.65892(7) 0.79543(7) 0.14142(7)
H39_68 H 0.6676 0.8026 0.1356
C62_68 C 0.65030(7) 0.78218(7) 0.13250(6)
H40_68 H 0.6527 0.7807 0.1201
C63_68 C 0.68473(6) 0.83354(6) 0.17141(6)
N23_68 N 0.67854(5) 0.81910(5) 0.16316(6)
C64_68 C 0.66264(6) 0.81340(6) 0.16890(6)
N24_68 N 0.65312(5) 0.82083(5) 0.18216(5)
C65_68 C 0.66096(7) 0.83505(6) 0.18965(6)
N25_68 N 0.67661(5) 0.84189(6) 0.18498(6)
C66_68 C 0.72574(7) 0.83985(7) 0.14407(8)
H41_68 H 0.7325 0.8333 0.1356
C67_68 C 0.71149(7) 0.83161(7) 0.15228(7)
H42_68 H 0.7085 0.8196 0.1495
C68_68 C 0.70156(6) 0.84111(6) 0.16459(7)
C69_68 C 0.70699(7) 0.85818(7) 0.16898(6)
H43_68 H 0.7009 0.8648 0.1779
C70_68 C 0.72140(6) 0.86541(6) 0.16024(6)
H44_68 H 0.7251 0.8771 0.1634
C71_68 C 0.65068(7) 0.86509(7) 0.22798(7)
H45_68 H 0.6570 0.8729 0.2357
C72_68 C 0.66007(7) 0.85638(7) 0.21502(7)
H46_68 H 0.6725 0.8584 0.2136
C73_68 C 0.65112(6) 0.84457(6) 0.20395(6)
C74_68 C 0.63291(7) 0.84172(7) 0.20696(7)
H47_68 H 0.6265 0.8332 0.2001
C75_68 C 0.62451(6) 0.85149(7) 0.22005(6)
H48_68 H 0.6121 0.8498 0.2218
N3_69 N 0.39385(5) 0.74927(4) 0.85444(5)
C7_69 C 0.39985(8) 0.75067(7) 0.84044(9)
S1_69 S 0.40745(4) 0.75320(4) 0.81999(3)
N4_69 N 0.39021(5) 0.72903(5) 0.88852(5)
C8_69 C 0.40749(6) 0.72653(6) 0.88502(6)
H5_69 H 0.4132 0.7344 0.8769
C9_69 C 0.41750(6) 0.71312(6) 0.89262(6)
H6_69 H 0.4297 0.7117 0.8896
C10_69 C 0.40944(6) 0.70184(6) 0.90461(6)
C11_69 C 0.39142(7) 0.70457(7) 0.90892(7)
H7_69 H 0.3856 0.6974 0.9176
C12_69 C 0.38250(6) 0.71782(7) 0.90030(7)
H8_69 H 0.3701 0.7193 0.9027
C13_69 C 0.42141(6) 0.66646(6) 0.93473(6)
N5_69 N 0.41316(6) 0.68090(5) 0.92854(5)
C14_69 C 0.41890(6) 0.68660(6) 0.91264(6)
N6_69 N 0.43216(5) 0.67917(5) 0.90312(5)
C15_69 C 0.43965(6) 0.66495(6) 0.91096(7)
N7_69 N 0.43498(6) 0.65811(6) 0.92661(5)
C16_69 C 0.39407(8) 0.66015(7) 0.97574(7)
H9_69 H 0.3856 0.6667 0.9825
C17_69 C 0.40228(7) 0.66839(7) 0.96149(7)
H10_69 H 0.3995 0.6804 0.9585
C18_69 C 0.41459(7) 0.65889(6) 0.95156(6)
C19_69 C 0.41898(6) 0.64182(7) 0.95699(7)
H11_69 H 0.4279 0.6352 0.9509
C20_69 C 0.41024(6) 0.63459(6) 0.97140(6)
H12_69 H 0.4134 0.6229 0.9751
C21_69 C 0.47798(7) 0.63491(7) 0.90068(7)
H13_69 H 0.4857 0.6271 0.9070
C22_69 C 0.46502(7) 0.64362(7) 0.91007(7)
H14_69 H 0.4636 0.6416 0.9225
C23_69 C 0.45395(6) 0.65543(6) 0.90112(6)
C24_69 C 0.45696(7) 0.65828(7) 0.88291(7)
H15_69 H 0.4501 0.6668 0.8765
C25_69 C 0.47005(6) 0.64851(7) 0.87451(6)
H16_69 H 0.4718 0.6502 0.8621
N13_21 N 0.32010(7) 0.82051(6) 0.84256(6)
N14_21 N 0.34256(6) 0.82010(7) 0.82051(6)
N15_21 N 0.32051(6) 0.84256(6) 0.82010(7)
C29_21 C 0.33466(8) 0.81356(8) 0.83483(8)
C30_21 C 0.33483(8) 0.83466(8) 0.81356(8)
C31_21 C 0.31356(8) 0.83483(8) 0.83466(8)
N18_21 N 0.36044(5) 0.77064(6) 0.86141(6)
N19_21 N 0.27064(6) 0.86141(6) 0.86044(5)
N20_21 N 0.36141(6) 0.86044(5) 0.77064(6)
C34_21 C 0.34372(8) 0.77494(8) 0.86502(8)
C35_21 C 0.27494(8) 0.86502(8) 0.84372(8)
C36_21 C 0.36502(8) 0.84372(8) 0.77494(8)
H19_21 H 0.3375 0.7681 0.8737
H20_21 H 0.2681 0.8737 0.8375
H21_21 H 0.3737 0.8375 0.7681
C39_21 C 0.33472(9) 0.78880(8) 0.85695(9)
C40_21 C 0.28880(8) 0.85695(9) 0.83472(9)
C41_21 C 0.35695(9) 0.83472(9) 0.78880(8)
H24_21 H 0.3229 0.7917 0.8604
H25_21 H 0.2917 0.8604 0.8229
H26_21 H 0.3604 0.8229 0.7917
C44_21 C 0.34304(8) 0.79824(8) 0.84395(7)
C45_21 C 0.29824(8) 0.84395(7) 0.84304(8)
C46_21 C 0.34395(7) 0.84304(8) 0.79824(8)
C49_21 C 0.36064(10) 0.79402(10) 0.83988(10)
C50_21 C 0.29402(10) 0.83988(10) 0.86064(10)
C51_21 C 0.33988(10) 0.86064(10) 0.79402(10)
H29_21 H 0.3669 0.8005 0.8310
H30_21 H 0.3005 0.8310 0.8669
H31_21 H 0.3310 0.8669 0.8005
C54_21 C 0.36880(11) 0.78022(10) 0.84903(10)
C55_21 C 0.28022(10) 0.84903(10) 0.86880(11)
C56_21 C 0.34903(10) 0.86880(11) 0.78022(10)
H34_21 H 0.3809 0.7775 0.8464
H35_21 H 0.2775 0.8464 0.8809
H36_21 H 0.3464 0.8809 0.7775
Co6_16 Co 0.3750 0.875000(10) 0.7496
N21_69 N 0.35615(5) 0.74927(4) 0.89556(5)
C57_69 C 0.35015(8) 0.75067(7) 0.90956(9)
S3_69 S 0.34255(4) 0.75320(4) 0.93001(3)
N22_69 N 0.35979(5) 0.72903(5) 0.86148(5)
C58_69 C 0.34251(6) 0.72653(6) 0.86498(6)
H37_69 H 0.3368 0.7344 0.8731
C59_69 C 0.33250(6) 0.71312(6) 0.85738(6)
H38_69 H 0.3203 0.7117 0.8604
C60_69 C 0.34056(6) 0.70184(6) 0.84539(6)
C61_69 C 0.35858(7) 0.70457(7) 0.84108(7)
H39_69 H 0.3644 0.6974 0.8324
C62_69 C 0.36750(6) 0.71782(7) 0.84970(7)
H40_69 H 0.3799 0.7193 0.8473
C63_69 C 0.32859(6) 0.66646(6) 0.81527(6)
N23_69 N 0.33684(6) 0.68090(5) 0.82146(5)
C64_69 C 0.33110(6) 0.68660(6) 0.83736(6)
N24_69 N 0.31784(5) 0.67917(5) 0.84688(5)
C65_69 C 0.31035(6) 0.66495(6) 0.83904(7)
N25_69 N 0.31502(6) 0.65811(6) 0.82339(5)
C66_69 C 0.35593(8) 0.66015(7) 0.77426(7)
H41_69 H 0.3644 0.6667 0.7675
C67_69 C 0.34772(7) 0.66839(7) 0.78851(7)
H42_69 H 0.3505 0.6804 0.7915
C68_69 C 0.33541(7) 0.65889(6) 0.79844(6)
C69_69 C 0.33102(6) 0.64182(7) 0.79301(7)
H43_69 H 0.3221 0.6352 0.7991
C70_69 C 0.33976(6) 0.63459(6) 0.77860(6)
H44_69 H 0.3366 0.6229 0.7749
C71_69 C 0.27202(7) 0.63491(7) 0.84932(7)
H45_69 H 0.2643 0.6271 0.8430
C72_69 C 0.28498(7) 0.64362(7) 0.83993(7)
H46_69 H 0.2864 0.6416 0.8275
C73_69 C 0.29605(6) 0.65543(6) 0.84888(6)
C74_69 C 0.29304(7) 0.65828(7) 0.86709(7)
H47_69 H 0.2999 0.6668 0.8735
C75_69 C 0.27995(6) 0.64851(7) 0.87549(6)
H48_69 H 0.2782 0.6502 0.8879
N1_33 N 0.07051(6) 0.67990(7) 0.59256(6)
C1_33 C 0.06356(8) 0.66534(8) 0.58483(8)
N2_33 N 0.02064(6) 0.63956(5) 0.61141(6)
C2_33 C 0.02494(8) 0.65628(8) 0.61502(8)
H1_33 H 0.0181 0.6625 0.6237
C3_33 C 0.03880(8) 0.66528(9) 0.60695(9)
H2_33 H 0.0417 0.6771 0.6104
C4_33 C 0.04824(8) 0.65696(8) 0.59395(7)
C5_33 C 0.04402(10) 0.63936(10) 0.58988(10)
H3_33 H 0.0505 0.6331 0.5810
C6_33 C 0.03022(10) 0.63120(11) 0.59903(10)
H4_33 H 0.0275 0.6191 0.5964
C7_70 C 0.00067(7) 0.64985(8) 0.65956(9)
S1_70 S 0.00320(4) 0.65745(4) 0.68001(3)
N11_33 N 0.07010(7) 0.65744(6) 0.57051(6)
N12_33 N 0.09256(6) 0.67949(6) 0.57010(7)
N13_22 N 0.07051(6) 0.57010(7) 0.65744(6)
N14_22 N 0.07010(7) 0.59256(6) 0.67949(6)
N15_22 N 0.09256(6) 0.57051(6) 0.67990(7)
C27_33 C 0.08466(8) 0.66517(8) 0.56356(8)
C28_33 C 0.08483(8) 0.68644(8) 0.58466(8)
C29_22 C 0.06356(8) 0.58466(8) 0.66517(8)
C30_22 C 0.08466(8) 0.58483(8) 0.68644(8)
C31_22 C 0.08483(8) 0.56356(8) 0.66534(8)
N16_33 N 0.11141(6) 0.72936(6) 0.61044(5)
N17_33 N 0.11044(5) 0.63859(6) 0.52064(6)
N18_22 N 0.02064(6) 0.61044(5) 0.63859(6)
N19_22 N 0.11141(6) 0.52064(6) 0.63956(5)
N20_22 N 0.11044(5) 0.61141(6) 0.72936(6)
C32_33 C 0.11502(8) 0.72506(8) 0.59372(8)
C33_33 C 0.09372(8) 0.63498(8) 0.52494(8)
C34_22 C 0.02494(8) 0.59372(8) 0.63498(8)
C35_22 C 0.11502(8) 0.52494(8) 0.65628(8)
C36_22 C 0.09372(8) 0.61502(8) 0.72506(8)
H17_33 H 0.1237 0.7319 0.5875
H18_33 H 0.0875 0.6263 0.5181
H19_22 H 0.0181 0.5875 0.6263
H20_22 H 0.1237 0.5181 0.6625
H21_22 H 0.0875 0.6237 0.7319
C37_33 C 0.10695(9) 0.71120(8) 0.58472(9)
C38_33 C 0.08472(9) 0.64305(9) 0.53880(8)
C39_22 C 0.03880(8) 0.58472(9) 0.64305(9)
C40_22 C 0.10695(9) 0.53880(8) 0.66528(9)
C41_22 C 0.08472(9) 0.60695(9) 0.71120(8)
H22_33 H 0.1104 0.7083 0.5729
H23_33 H 0.0729 0.6396 0.5417
H24_22 H 0.0417 0.5729 0.6396
H25_22 H 0.1104 0.5417 0.6771
H26_22 H 0.0729 0.6104 0.7083
C42_33 C 0.09395(7) 0.70176(8) 0.59304(8)
C43_33 C 0.09304(8) 0.65605(7) 0.54824(8)
C44_22 C 0.04824(8) 0.59304(8) 0.65605(7)
C45_22 C 0.09395(7) 0.54824(8) 0.65696(8)
C46_22 C 0.09304(8) 0.59395(7) 0.70176(8)
C47_33 C 0.08988(10) 0.70598(10) 0.61064(10)
C48_33 C 0.11064(10) 0.66012(10) 0.54402(10)
C49_22 C 0.04402(10) 0.61064(10) 0.66012(10)
C50_22 C 0.08988(10) 0.54402(10) 0.63936(10)
C51_22 C 0.11064(10) 0.58988(10) 0.70598(10)
H27_33 H 0.0810 0.6995 0.6169
H28_33 H 0.1169 0.6690 0.5505
H29_22 H 0.0505 0.6169 0.6690
H30_22 H 0.0810 0.5505 0.6331
H31_22 H 0.1169 0.5810 0.6995
C52_33 C 0.09903(10) 0.71978(10) 0.61880(11)
C53_33 C 0.11880(11) 0.65097(10) 0.53022(10)
C54_22 C 0.03022(10) 0.61880(11) 0.65097(10)
C55_22 C 0.09903(10) 0.53022(10) 0.63120(11)
C56_22 C 0.11880(11) 0.59903(10) 0.71978(10)
H32_33 H 0.0964 0.7225 0.6309
H33_33 H 0.1309 0.6536 0.5275
H34_22 H 0.0275 0.6309 0.6536
H35_22 H 0.0964 0.5275 0.6191
H36_22 H 0.1309 0.5964 0.7225
Co3_21 Co 0.1250 0.7504 0.625000(10)
Co4_15 Co 0.125000(10) 0.6250 0.4996
Co5_15 Co 0.1250 0.4996 0.625000(10)
Co6_17 Co 0.125000(10) 0.6250 0.7504
C57_70 C 0.00067(7) 0.60015(8) 0.59044(9)
S3_70 S 0.00320(4) 0.59255(4) 0.56999(3)
Co1_20 Co 0.9996 0.625000(10) 0.6250
N3_70 N 0.99927(4) 0.64385(5) 0.64556(5)
N4_70 N 0.97903(5) 0.64021(5) 0.61148(5)
C8_70 C 0.97653(6) 0.65749(6) 0.61498(6)
H5_70 H 0.9844 0.6632 0.6231
C9_70 C 0.96312(6) 0.66750(6) 0.60738(6)
H6_70 H 0.9617 0.6797 0.6104
C10_70 C 0.95184(6) 0.65944(6) 0.59539(6)
C11_70 C 0.95457(7) 0.64142(7) 0.59108(7)
H7_70 H 0.9474 0.6356 0.5824
C12_70 C 0.96782(7) 0.63250(6) 0.59970(7)
H8_70 H 0.9693 0.6201 0.5973
C13_70 C 0.91646(6) 0.67141(6) 0.56527(6)
N5_70 N 0.93090(5) 0.66316(6) 0.57146(5)
C14_70 C 0.93660(6) 0.66890(6) 0.58736(6)
N6_70 N 0.92917(5) 0.68216(5) 0.59688(5)
C15_70 C 0.91495(6) 0.68965(6) 0.58904(7)
N7_70 N 0.90811(6) 0.68498(6) 0.57339(5)
C16_70 C 0.91015(7) 0.64407(8) 0.52426(7)
H9_70 H 0.9167 0.6356 0.5175
C17_70 C 0.91839(7) 0.65228(7) 0.53851(7)
H10_70 H 0.9304 0.6495 0.5415
C18_70 C 0.90889(6) 0.66459(7) 0.54844(6)
C19_70 C 0.89182(7) 0.66898(6) 0.54301(7)
H11_70 H 0.8852 0.6779 0.5491
C20_70 C 0.88459(6) 0.66024(6) 0.52860(6)
H12_70 H 0.8729 0.6634 0.5249
C21_70 C 0.88491(7) 0.72798(7) 0.59932(7)
H13_70 H 0.8771 0.7357 0.5930
C22_70 C 0.89362(7) 0.71502(7) 0.58993(7)
H14_70 H 0.8916 0.7136 0.5775
C23_70 C 0.90543(6) 0.70395(6) 0.59888(6)
C24_70 C 0.90828(7) 0.70696(7) 0.61709(7)
H15_70 H 0.9168 0.7001 0.6235
C25_70 C 0.89851(7) 0.72005(6) 0.62549(6)
H16_70 H 0.9002 0.7218 0.6379
N21_70 N 0.99927(4) 0.60615(5) 0.60444(5)
N22_70 N 0.97903(5) 0.60979(5) 0.63852(5)
C58_70 C 0.97653(6) 0.59251(6) 0.63502(6)
H37_70 H 0.9844 0.5868 0.6269
C59_70 C 0.96312(6) 0.58250(6) 0.64262(6)
H38_70 H 0.9617 0.5703 0.6396
C60_70 C 0.95184(6) 0.59056(6) 0.65461(6)
C61_70 C 0.95457(7) 0.60858(7) 0.65892(7)
H39_70 H 0.9474 0.6144 0.6676
C62_70 C 0.96782(7) 0.61750(6) 0.65030(7)
H40_70 H 0.9693 0.6299 0.6527
C63_70 C 0.91646(6) 0.57859(6) 0.68473(6)
N23_70 N 0.93090(5) 0.58684(6) 0.67854(5)
C64_70 C 0.93660(6) 0.58110(6) 0.66264(6)
N24_70 N 0.92917(5) 0.56784(5) 0.65312(5)
C65_70 C 0.91495(6) 0.56035(6) 0.66096(7)
N25_70 N 0.90811(6) 0.56502(6) 0.67661(5)
C66_70 C 0.91015(7) 0.60593(8) 0.72574(7)
H41_70 H 0.9167 0.6144 0.7325
C67_70 C 0.91839(7) 0.59772(7) 0.71149(7)
H42_70 H 0.9304 0.6005 0.7085
C68_70 C 0.90889(6) 0.58541(7) 0.70156(6)
C69_70 C 0.89182(7) 0.58102(6) 0.70699(7)
H43_70 H 0.8852 0.5721 0.7009
C70_70 C 0.88459(6) 0.58976(6) 0.72140(6)
H44_70 H 0.8729 0.5866 0.7251
C71_70 C 0.88491(7) 0.52202(7) 0.65068(7)
H45_70 H 0.8771 0.5143 0.6570
C72_70 C 0.89362(7) 0.53498(7) 0.66007(7)
H46_70 H 0.8916 0.5364 0.6725
C73_70 C 0.90543(6) 0.54605(6) 0.65112(6)
C74_70 C 0.90828(7) 0.54304(7) 0.63291(7)
H47_70 H 0.9168 0.5499 0.6265
C75_70 C 0.89851(7) 0.52995(6) 0.62451(6)
H48_70 H 0.9002 0.5282 0.6121
N1_34 N 0.17990(7) 0.59256(6) 0.57051(6)
C1_34 C 0.16534(8) 0.58483(8) 0.56356(8)
N2_34 N 0.13956(5) 0.61141(6) 0.52064(6)
C2_34 C 0.15628(8) 0.61502(8) 0.52494(8)
H1_34 H 0.1625 0.6237 0.5181
C3_34 C 0.16528(9) 0.60695(9) 0.53880(8)
H2_34 H 0.1771 0.6104 0.5417
C4_34 C 0.15696(8) 0.59395(7) 0.54824(8)
C5_34 C 0.13936(10) 0.58988(10) 0.54402(10)
H3_34 H 0.1331 0.5810 0.5505
C6_34 C 0.13120(11) 0.59903(10) 0.53022(10)
H4_34 H 0.1191 0.5964 0.5275
N3_71 N 0.14385(5) 0.64556(5) 0.49927(4)
C7_71 C 0.14985(8) 0.65956(9) 0.50067(7)
S1_71 S 0.15745(4) 0.68001(3) 0.50320(4)
N4_71 N 0.14021(5) 0.61148(5) 0.47903(5)
C8_71 C 0.15749(6) 0.61498(6) 0.47653(6)
H5_71 H 0.1632 0.6231 0.4844
C9_71 C 0.16750(6) 0.60738(6) 0.46312(6)
H6_71 H 0.1797 0.6104 0.4617
C10_71 C 0.15944(6) 0.59539(6) 0.45184(6)
C11_71 C 0.14142(7) 0.59108(7) 0.45457(7)
H7_71 H 0.1356 0.5824 0.4474
C12_71 C 0.13250(6) 0.59970(7) 0.46782(7)
H8_71 H 0.1201 0.5973 0.4693
C13_71 C 0.17141(6) 0.56527(6) 0.41646(6)
N5_71 N 0.16316(6) 0.57146(5) 0.43090(5)
C14_71 C 0.16890(6) 0.58736(6) 0.43660(6)
N6_71 N 0.18216(5) 0.59688(5) 0.42917(5)
C15_71 C 0.18965(6) 0.58904(7) 0.41495(6)
N7_71 N 0.18498(6) 0.57339(5) 0.40811(6)
C16_71 C 0.14407(8) 0.52426(7) 0.41015(7)
H9_71 H 0.1356 0.5175 0.4167
C17_71 C 0.15228(7) 0.53851(7) 0.41839(7)
H10_71 H 0.1495 0.5415 0.4304
C18_71 C 0.16459(7) 0.54844(6) 0.40889(6)
C19_71 C 0.16898(6) 0.54301(7) 0.39182(7)
H11_71 H 0.1779 0.5491 0.3852
C20_71 C 0.16024(6) 0.52860(6) 0.38459(6)
H12_71 H 0.1634 0.5249 0.3729
C21_71 C 0.22798(7) 0.59932(7) 0.38491(7)
H13_71 H 0.2357 0.5930 0.3771
C22_71 C 0.21502(7) 0.58993(7) 0.39362(7)
H14_71 H 0.2136 0.5775 0.3916
C23_71 C 0.20395(6) 0.59888(6) 0.40543(6)
C24_71 C 0.20696(7) 0.61709(7) 0.40828(7)
H15_71 H 0.2001 0.6235 0.4168
C25_71 C 0.22005(6) 0.62549(6) 0.39851(7)
H16_71 H 0.2218 0.6379 0.4002
N11_34 N 0.15744(6) 0.57051(6) 0.57010(7)
N12_34 N 0.17949(6) 0.57010(7) 0.59256(6)
C27_34 C 0.16517(8) 0.56356(8) 0.58466(8)
C28_34 C 0.18644(8) 0.58466(8) 0.58483(8)
N16_34 N 0.22936(6) 0.61044(5) 0.61141(6)
N17_34 N 0.13859(6) 0.52064(6) 0.61044(5)
C32_34 C 0.22506(8) 0.59372(8) 0.61502(8)
C33_34 C 0.13498(8) 0.52494(8) 0.59372(8)
H17_34 H 0.2319 0.5875 0.6237
H18_34 H 0.1263 0.5181 0.5875
C37_34 C 0.21120(8) 0.58472(9) 0.60695(9)
C38_34 C 0.14305(9) 0.53880(8) 0.58472(9)
H22_34 H 0.2083 0.5729 0.6104
H23_34 H 0.1396 0.5417 0.5729
C42_34 C 0.20176(8) 0.59304(8) 0.59395(7)
C43_34 C 0.15605(7) 0.54824(8) 0.59304(8)
C47_34 C 0.20598(10) 0.61064(10) 0.58988(10)
C48_34 C 0.16012(10) 0.54402(10) 0.61064(10)
H27_34 H 0.1995 0.6169 0.5810
H28_34 H 0.1690 0.5505 0.6169
C52_34 C 0.21978(10) 0.61880(11) 0.59903(10)
C53_34 C 0.15097(10) 0.53022(10) 0.61880(11)
H32_34 H 0.2225 0.6309 0.5964
H33_34 H 0.1536 0.5275 0.6309
Co3_22 Co 0.2504 0.625000(10) 0.6250
N21_71 N 0.10615(5) 0.60444(5) 0.49927(4)
C57_71 C 0.10015(8) 0.59044(9) 0.50067(7)
S3_71 S 0.09255(4) 0.56999(3) 0.50320(4)
N22_71 N 0.10979(5) 0.63852(5) 0.47903(5)
C58_71 C 0.09251(6) 0.63502(6) 0.47653(6)
H37_71 H 0.0868 0.6269 0.4844
C59_71 C 0.08250(6) 0.64262(6) 0.46312(6)
H38_71 H 0.0703 0.6396 0.4617
C60_71 C 0.09056(6) 0.65461(6) 0.45184(6)
C61_71 C 0.10858(7) 0.65892(7) 0.45457(7)
H39_71 H 0.1144 0.6676 0.4474
C62_71 C 0.11750(6) 0.65030(7) 0.46782(7)
H40_71 H 0.1299 0.6527 0.4693
C63_71 C 0.07859(6) 0.68473(6) 0.41646(6)
N23_71 N 0.08684(6) 0.67854(5) 0.43090(5)
C64_71 C 0.08110(6) 0.66264(6) 0.43660(6)
N24_71 N 0.06784(5) 0.65312(5) 0.42917(5)
C65_71 C 0.06035(6) 0.66096(7) 0.41495(6)
N25_71 N 0.06502(6) 0.67661(5) 0.40811(6)
C66_71 C 0.10593(8) 0.72574(7) 0.41015(7)
H41_71 H 0.1144 0.7325 0.4167
C67_71 C 0.09772(7) 0.71149(7) 0.41839(7)
H42_71 H 0.1005 0.7085 0.4304
C68_71 C 0.08541(7) 0.70156(6) 0.40889(6)
C69_71 C 0.08102(6) 0.70699(7) 0.39182(7)
H43_71 H 0.0721 0.7009 0.3852
C70_71 C 0.08976(6) 0.72140(6) 0.38459(6)
H44_71 H 0.0866 0.7251 0.3729
C71_71 C 0.02202(7) 0.65068(7) 0.38491(7)
H45_71 H 0.0143 0.6570 0.3771
C72_71 C 0.03498(7) 0.66007(7) 0.39362(7)
H46_71 H 0.0364 0.6725 0.3916
C73_71 C 0.04605(6) 0.65112(6) 0.40543(6)
C74_71 C 0.04304(7) 0.63291(7) 0.40828(7)
H47_71 H 0.0499 0.6265 0.4168
C75_71 C 0.02995(6) 0.62451(6) 0.39851(7)
H48_71 H 0.0282 0.6121 0.4002
N3_72 N 0.14556(5) 0.49927(4) 0.64385(5)
C7_72 C 0.15956(9) 0.50067(7) 0.64985(8)
S1_72 S 0.18001(3) 0.50320(4) 0.65745(4)
N4_72 N 0.11148(5) 0.47903(5) 0.64021(5)
C8_72 C 0.11498(6) 0.47653(6) 0.65749(6)
H5_72 H 0.1231 0.4844 0.6632
C9_72 C 0.10738(6) 0.46312(6) 0.66750(6)
H6_72 H 0.1104 0.4617 0.6797
C10_72 C 0.09539(6) 0.45184(6) 0.65944(6)
C11_72 C 0.09108(7) 0.45457(7) 0.64142(7)
H7_72 H 0.0824 0.4474 0.6356
C12_72 C 0.09970(7) 0.46782(7) 0.63250(6)
H8_72 H 0.0973 0.4693 0.6201
C13_72 C 0.06527(6) 0.41646(6) 0.67141(6)
N5_72 N 0.07146(5) 0.43090(5) 0.66316(6)
C14_72 C 0.08736(6) 0.43660(6) 0.66890(6)
N6_72 N 0.09688(5) 0.42917(5) 0.68216(5)
C15_72 C 0.08904(7) 0.41495(6) 0.68965(6)
N7_72 N 0.07339(5) 0.40811(6) 0.68498(6)
C16_72 C 0.02426(7) 0.41015(7) 0.64407(8)
H9_72 H 0.0175 0.4167 0.6356
C17_72 C 0.03851(7) 0.41839(7) 0.65228(7)
H10_72 H 0.0415 0.4304 0.6495
C18_72 C 0.04844(6) 0.40889(6) 0.66459(7)
C19_72 C 0.04301(7) 0.39182(7) 0.66898(6)
H11_72 H 0.0491 0.3852 0.6779
C20_72 C 0.02860(6) 0.38459(6) 0.66024(6)
H12_72 H 0.0249 0.3729 0.6634
C21_72 C 0.09932(7) 0.38491(7) 0.72798(7)
H13_72 H 0.0930 0.3771 0.7357
C22_72 C 0.08993(7) 0.39362(7) 0.71502(7)
H14_72 H 0.0775 0.3916 0.7136
C23_72 C 0.09888(6) 0.40543(6) 0.70395(6)
C24_72 C 0.11709(7) 0.40828(7) 0.70696(7)
H15_72 H 0.1235 0.4168 0.7001
C25_72 C 0.12549(6) 0.39851(7) 0.72005(6)
H16_72 H 0.1379 0.4002 0.7218
N21_72 N 0.10444(5) 0.49927(4) 0.60615(5)
C57_72 C 0.09044(9) 0.50067(7) 0.60015(8)
S3_72 S 0.06999(3) 0.50320(4) 0.59255(4)
N22_72 N 0.13852(5) 0.47903(5) 0.60979(5)
C58_72 C 0.13502(6) 0.47653(6) 0.59251(6)
H37_72 H 0.1269 0.4844 0.5868
C59_72 C 0.14262(6) 0.46312(6) 0.58250(6)
H38_72 H 0.1396 0.4617 0.5703
C60_72 C 0.15461(6) 0.45184(6) 0.59056(6)
C61_72 C 0.15892(7) 0.45457(7) 0.60858(7)
H39_72 H 0.1676 0.4474 0.6144
C62_72 C 0.15030(7) 0.46782(7) 0.61750(6)
H40_72 H 0.1527 0.4693 0.6299
C63_72 C 0.18473(6) 0.41646(6) 0.57859(6)
N23_72 N 0.17854(5) 0.43090(5) 0.58684(6)
C64_72 C 0.16264(6) 0.43660(6) 0.58110(6)
N24_72 N 0.15312(5) 0.42917(5) 0.56784(5)
C65_72 C 0.16096(7) 0.41495(6) 0.56035(6)
N25_72 N 0.17661(5) 0.40811(6) 0.56502(6)
C66_72 C 0.22574(7) 0.41015(7) 0.60593(8)
H41_72 H 0.2325 0.4167 0.6144
C67_72 C 0.21149(7) 0.41839(7) 0.59772(7)
H42_72 H 0.2085 0.4304 0.6005
C68_72 C 0.20156(6) 0.40889(6) 0.58541(7)
C69_72 C 0.20699(7) 0.39182(7) 0.58102(6)
H43_72 H 0.2009 0.3852 0.5721
C70_72 C 0.22140(6) 0.38459(6) 0.58976(6)
H44_72 H 0.2251 0.3729 0.5866
C71_72 C 0.15068(7) 0.38491(7) 0.52202(7)
H45_72 H 0.1570 0.3771 0.5143
C72_72 C 0.16007(7) 0.39362(7) 0.53498(7)
H46_72 H 0.1725 0.3916 0.5364
C73_72 C 0.15112(6) 0.40543(6) 0.54605(6)
C74_72 C 0.13291(7) 0.40828(7) 0.54304(7)
H47_72 H 0.1265 0.4168 0.5499
C75_72 C 0.12451(6) 0.39851(7) 0.52995(6)
H48_72 H 0.1121 0.4002 0.5282
N3_73 N 0.89556(5) 0.89385(5) 0.50073(4)
C7_73 C 0.90956(9) 0.89985(8) 0.49933(7)
S1_73 S 0.93001(3) 0.90745(4) 0.49680(4)
N4_73 N 0.86148(5) 0.89021(5) 0.52097(5)
C8_73 C 0.86498(6) 0.90749(6) 0.52347(6)
H5_73 H 0.8731 0.9132 0.5156
C9_73 C 0.85738(6) 0.91750(6) 0.53688(6)
H6_73 H 0.8604 0.9297 0.5383
C10_73 C 0.84539(6) 0.90944(6) 0.54816(6)
C11_73 C 0.84108(7) 0.89142(7) 0.54543(7)
H7_73 H 0.8324 0.8856 0.5526
C12_73 C 0.84970(7) 0.88250(6) 0.53218(7)
H8_73 H 0.8473 0.8701 0.5307
C13_73 C 0.81527(6) 0.92141(6) 0.58354(6)
N5_73 N 0.82146(5) 0.91316(6) 0.56910(5)
C14_73 C 0.83736(6) 0.91890(6) 0.56340(6)
N6_73 N 0.84688(5) 0.93216(5) 0.57083(5)
C15_73 C 0.83904(7) 0.93965(6) 0.58505(6)
N7_73 N 0.82339(5) 0.93498(6) 0.59189(6)
C16_73 C 0.77426(7) 0.89407(8) 0.58985(7)
H9_73 H 0.7675 0.8856 0.5833
C17_73 C 0.78851(7) 0.90228(7) 0.58161(7)
H10_73 H 0.7915 0.8995 0.5696
C18_73 C 0.79844(6) 0.91459(7) 0.59111(6)
C19_73 C 0.79301(7) 0.91898(6) 0.60818(7)
H11_73 H 0.7991 0.9279 0.6148
C20_73 C 0.77860(6) 0.91024(6) 0.61541(6)
H12_73 H 0.7749 0.9134 0.6271
C21_73 C 0.84932(7) 0.97798(7) 0.61509(7)
H13_73 H 0.8430 0.9857 0.6229
C22_73 C 0.83993(7) 0.96502(7) 0.60638(7)
H14_73 H 0.8275 0.9636 0.6084
C23_73 C 0.84888(6) 0.95395(6) 0.59457(6)
C24_73 C 0.86709(7) 0.95696(7) 0.59172(7)
H15_73 H 0.8735 0.9501 0.5832
C25_73 C 0.87549(6) 0.97005(6) 0.60149(7)
H16_73 H 0.8879 0.9718 0.5998
N21_73 N 0.85444(5) 0.85615(5) 0.50073(4)
C57_73 C 0.84044(9) 0.85015(8) 0.49933(7)
S3_73 S 0.81999(3) 0.84255(4) 0.49680(4)
N22_73 N 0.88852(5) 0.85979(5) 0.52097(5)
C58_73 C 0.88502(6) 0.84251(6) 0.52347(6)
H37_73 H 0.8769 0.8368 0.5156
C59_73 C 0.89262(6) 0.83250(6) 0.53688(6)
H38_73 H 0.8896 0.8203 0.5383
C60_73 C 0.90461(6) 0.84056(6) 0.54816(6)
C61_73 C 0.90892(7) 0.85858(7) 0.54543(7)
H39_73 H 0.9176 0.8644 0.5526
C62_73 C 0.90030(7) 0.86750(6) 0.53218(7)
H40_73 H 0.9027 0.8799 0.5307
C63_73 C 0.93473(6) 0.82859(6) 0.58354(6)
N23_73 N 0.92854(5) 0.83684(6) 0.56910(5)
C64_73 C 0.91264(6) 0.83110(6) 0.56340(6)
N24_73 N 0.90312(5) 0.81784(5) 0.57083(5)
C65_73 C 0.91096(7) 0.81035(6) 0.58505(6)
N25_73 N 0.92661(5) 0.81502(6) 0.59189(6)
C66_73 C 0.97574(7) 0.85593(8) 0.58985(7)
H41_73 H 0.9825 0.8644 0.5833
C67_73 C 0.96149(7) 0.84772(7) 0.58161(7)
H42_73 H 0.9585 0.8505 0.5696
C68_73 C 0.95156(6) 0.83541(7) 0.59111(6)
C69_73 C 0.95699(7) 0.83102(6) 0.60818(7)
H43_73 H 0.9509 0.8221 0.6148
C70_73 C 0.97140(6) 0.83976(6) 0.61541(6)
H44_73 H 0.9751 0.8366 0.6271
C71_73 C 0.90068(7) 0.77202(7) 0.61509(7)
H45_73 H 0.9070 0.7643 0.6229
C72_73 C 0.91007(7) 0.78498(7) 0.60638(7)
H46_73 H 0.9225 0.7864 0.6084
C73_73 C 0.90112(6) 0.79605(6) 0.59457(6)
C74_73 C 0.88291(7) 0.79304(7) 0.59172(7)
H47_73 H 0.8765 0.7999 0.5832
C75_73 C 0.87451(6) 0.77995(6) 0.60149(7)
H48_73 H 0.8621 0.7782 0.5998
N1_35 N 0.17990(7) 0.65744(6) 0.67949(6)
C1_35 C 0.16534(8) 0.66517(8) 0.68644(8)
N2_35 N 0.13956(5) 0.63859(6) 0.72936(6)
C2_35 C 0.15628(8) 0.63498(8) 0.72506(8)
H1_35 H 0.1625 0.6263 0.7319
C3_35 C 0.16528(9) 0.64305(9) 0.71120(8)
H2_35 H 0.1771 0.6396 0.7083
C4_35 C 0.15696(8) 0.65605(7) 0.70176(8)
C5_35 C 0.13936(10) 0.66012(10) 0.70598(10)
H3_35 H 0.1331 0.6690 0.6995
C6_35 C 0.13120(11) 0.65097(10) 0.71978(10)
H4_35 H 0.1191 0.6536 0.7225
N3_74 N 0.14385(5) 0.60444(5) 0.75073(4)
C7_74 C 0.14985(8) 0.59044(9) 0.74933(7)
S1_74 S 0.15745(4) 0.56999(3) 0.74680(4)
N4_74 N 0.14021(5) 0.63852(5) 0.77097(5)
C8_74 C 0.15749(6) 0.63502(6) 0.77347(6)
H5_74 H 0.1632 0.6269 0.7656
C9_74 C 0.16750(6) 0.64262(6) 0.78688(6)
H6_74 H 0.1797 0.6396 0.7883
C10_74 C 0.15944(6) 0.65461(6) 0.79816(6)
C11_74 C 0.14142(7) 0.65892(7) 0.79543(7)
H7_74 H 0.1356 0.6676 0.8026
C12_74 C 0.13250(6) 0.65030(7) 0.78218(7)
H8_74 H 0.1201 0.6527 0.7807
C13_74 C 0.17141(6) 0.68473(6) 0.83354(6)
N5_74 N 0.16316(6) 0.67854(5) 0.81910(5)
C14_74 C 0.16890(6) 0.66264(6) 0.81340(6)
N6_74 N 0.18216(5) 0.65312(5) 0.82083(5)
C15_74 C 0.18965(6) 0.66096(7) 0.83505(6)
N7_74 N 0.18498(6) 0.67661(5) 0.84189(6)
C16_74 C 0.14407(8) 0.72574(7) 0.83985(7)
H9_74 H 0.1356 0.7325 0.8333
C17_74 C 0.15228(7) 0.71149(7) 0.83161(7)
H10_74 H 0.1495 0.7085 0.8196
C18_74 C 0.16459(7) 0.70156(6) 0.84111(6)
C19_74 C 0.16898(6) 0.70699(7) 0.85818(7)
H11_74 H 0.1779 0.7009 0.8648
C20_74 C 0.16024(6) 0.72140(6) 0.86541(6)
H12_74 H 0.1634 0.7251 0.8771
C21_74 C 0.22798(7) 0.65068(7) 0.86509(7)
H13_74 H 0.2357 0.6570 0.8729
C22_74 C 0.21502(7) 0.66007(7) 0.85638(7)
H14_74 H 0.2136 0.6725 0.8584
C23_74 C 0.20395(6) 0.65112(6) 0.84457(6)
C24_74 C 0.20696(7) 0.63291(7) 0.84172(7)
H15_74 H 0.2001 0.6265 0.8332
C25_74 C 0.22005(6) 0.62451(6) 0.85149(7)
H16_74 H 0.2218 0.6121 0.8498
N11_35 N 0.15744(6) 0.67949(6) 0.67990(7)
N12_35 N 0.17949(6) 0.67990(7) 0.65744(6)
C27_35 C 0.16517(8) 0.68644(8) 0.66534(8)
C28_35 C 0.18644(8) 0.66534(8) 0.66517(8)
N16_35 N 0.22936(6) 0.63956(5) 0.63859(6)
N17_35 N 0.13859(6) 0.72936(6) 0.63956(5)
C32_35 C 0.22506(8) 0.65628(8) 0.63498(8)
C33_35 C 0.13498(8) 0.72506(8) 0.65628(8)
H17_35 H 0.2319 0.6625 0.6263
H18_35 H 0.1263 0.7319 0.6625
C37_35 C 0.21120(8) 0.66528(9) 0.64305(9)
C38_35 C 0.14305(9) 0.71120(8) 0.66528(9)
H22_35 H 0.2083 0.6771 0.6396
H23_35 H 0.1396 0.7083 0.6771
C42_35 C 0.20176(8) 0.65696(8) 0.65605(7)
C43_35 C 0.15605(7) 0.70176(8) 0.65696(8)
C47_35 C 0.20598(10) 0.63936(10) 0.66012(10)
C48_35 C 0.16012(10) 0.70598(10) 0.63936(10)
H27_35 H 0.1995 0.6331 0.6690
H28_35 H 0.1690 0.6995 0.6331
C52_35 C 0.21978(10) 0.63120(11) 0.65097(10)
C53_35 C 0.15097(10) 0.71978(10) 0.63120(11)
H32_35 H 0.2225 0.6191 0.6536
H33_35 H 0.1536 0.7225 0.6191
N21_74 N 0.10615(5) 0.64556(5) 0.75073(4)
C57_74 C 0.10015(8) 0.65956(9) 0.74933(7)
S3_74 S 0.09255(4) 0.68001(3) 0.74680(4)
N22_74 N 0.10979(5) 0.61148(5) 0.77097(5)
C58_74 C 0.09251(6) 0.61498(6) 0.77347(6)
H37_74 H 0.0868 0.6231 0.7656
C59_74 C 0.08250(6) 0.60738(6) 0.78688(6)
H38_74 H 0.0703 0.6104 0.7883
C60_74 C 0.09056(6) 0.59539(6) 0.79816(6)
C61_74 C 0.10858(7) 0.59108(7) 0.79543(7)
H39_74 H 0.1144 0.5824 0.8026
C62_74 C 0.11750(6) 0.59970(7) 0.78218(7)
H40_74 H 0.1299 0.5973 0.7807
C63_74 C 0.07859(6) 0.56527(6) 0.83354(6)
N23_74 N 0.08684(6) 0.57146(5) 0.81910(5)
C64_74 C 0.08110(6) 0.58736(6) 0.81340(6)
N24_74 N 0.06784(5) 0.59688(5) 0.82083(5)
C65_74 C 0.06035(6) 0.58904(7) 0.83505(6)
N25_74 N 0.06502(6) 0.57339(5) 0.84189(6)
C66_74 C 0.10593(8) 0.52426(7) 0.83985(7)
H41_74 H 0.1144 0.5175 0.8333
C67_74 C 0.09772(7) 0.53851(7) 0.83161(7)
H42_74 H 0.1005 0.5415 0.8196
C68_74 C 0.08541(7) 0.54844(6) 0.84111(6)
C69_74 C 0.08102(6) 0.54301(7) 0.85818(7)
H43_74 H 0.0721 0.5491 0.8648
C70_74 C 0.08976(6) 0.52860(6) 0.86541(6)
H44_74 H 0.0866 0.5249 0.8771
C71_74 C 0.02202(7) 0.59932(7) 0.86509(7)
H45_74 H 0.0143 0.5930 0.8729
C72_74 C 0.03498(7) 0.58993(7) 0.85638(7)
H46_74 H 0.0364 0.5775 0.8584
C73_74 C 0.04605(6) 0.59888(6) 0.84457(6)
C74_74 C 0.04304(7) 0.61709(7) 0.84172(7)
H47_74 H 0.0499 0.6235 0.8332
C75_74 C 0.02995(6) 0.62549(6) 0.85149(7)
H48_74 H 0.0282 0.6379 0.8498
N1_36 N 0.32051(6) 0.34256(6) 0.32010(7)
C1_36 C 0.31356(8) 0.33483(8) 0.33466(8)
N2_36 N 0.27064(6) 0.36141(6) 0.36044(5)
C2_36 C 0.27494(8) 0.36502(8) 0.34372(8)
H1_36 H 0.2681 0.3737 0.3375
C3_36 C 0.28880(8) 0.35695(9) 0.33472(9)
H2_36 H 0.2917 0.3604 0.3229
C4_36 C 0.29824(8) 0.34395(7) 0.34304(8)
C5_36 C 0.29402(10) 0.33988(10) 0.36064(10)
H3_36 H 0.3005 0.3310 0.3669
C6_36 C 0.28022(10) 0.34903(10) 0.36880(11)
H4_36 H 0.2775 0.3464 0.3809
N3_75 N 0.24927(4) 0.39556(5) 0.35615(5)
C7_75 C 0.25067(7) 0.40956(9) 0.35015(8)
S1_75 S 0.25320(4) 0.43001(3) 0.34255(4)
N4_75 N 0.22903(5) 0.36148(5) 0.35979(5)
C8_75 C 0.22653(6) 0.36498(6) 0.34251(6)
H5_75 H 0.2344 0.3731 0.3368
C9_75 C 0.21312(6) 0.35738(6) 0.33250(6)
H6_75 H 0.2117 0.3604 0.3203
C10_75 C 0.20184(6) 0.34539(6) 0.34056(6)
C11_75 C 0.20457(7) 0.34108(7) 0.35858(7)
H7_75 H 0.1974 0.3324 0.3644
C12_75 C 0.21782(7) 0.34970(7) 0.36750(6)
H8_75 H 0.2193 0.3473 0.3799
C13_75 C 0.16646(6) 0.31527(6) 0.32859(6)
N5_75 N 0.18090(5) 0.32146(5) 0.33684(6)
C14_75 C 0.18660(6) 0.33736(6) 0.33110(6)
N6_75 N 0.17917(5) 0.34688(5) 0.31784(5)
C15_75 C 0.16495(6) 0.33904(7) 0.31035(6)
N7_75 N 0.15811(6) 0.32339(5) 0.31502(6)
C16_75 C 0.16015(7) 0.27426(7) 0.35593(8)
H9_75 H 0.1667 0.2675 0.3644
C17_75 C 0.16839(7) 0.28851(7) 0.34772(7)
H10_75 H 0.1804 0.2915 0.3505
C18_75 C 0.15889(6) 0.29844(6) 0.33541(7)
C19_75 C 0.14182(7) 0.29301(7) 0.33102(6)
H11_75 H 0.1352 0.2991 0.3221
C20_75 C 0.13459(6) 0.27860(6) 0.33976(6)
H12_75 H 0.1229 0.2749 0.3366
C21_75 C 0.13491(7) 0.34932(7) 0.27202(7)
H13_75 H 0.1271 0.3430 0.2643
C22_75 C 0.14362(7) 0.33993(7) 0.28498(7)
H14_75 H 0.1416 0.3275 0.2864
C23_75 C 0.15543(6) 0.34888(6) 0.29605(6)
C24_75 C 0.15828(7) 0.36709(7) 0.29304(7)
H15_75 H 0.1668 0.3735 0.2999
C25_75 C 0.14851(7) 0.37549(6) 0.27995(6)
H16_75 H 0.1502 0.3879 0.2782
N11_36 N 0.32010(7) 0.32051(6) 0.34256(6)
N12_36 N 0.34256(6) 0.32010(7) 0.32051(6)
C27_36 C 0.33466(8) 0.31356(8) 0.33483(8)
C28_36 C 0.33483(8) 0.33466(8) 0.31356(8)
N16_36 N 0.36141(6) 0.36044(5) 0.27064(6)
N17_36 N 0.36044(5) 0.27064(6) 0.36141(6)
C32_36 C 0.36502(8) 0.34372(8) 0.27494(8)
C33_36 C 0.34372(8) 0.27494(8) 0.36502(8)
H17_36 H 0.3737 0.3375 0.2681
H18_36 H 0.3375 0.2681 0.3737
C37_36 C 0.35695(9) 0.33472(9) 0.28880(8)
C38_36 C 0.33472(9) 0.28880(8) 0.35695(9)
H22_36 H 0.3604 0.3229 0.2917
H23_36 H 0.3229 0.2917 0.3604
C42_36 C 0.34395(7) 0.34304(8) 0.29824(8)
C43_36 C 0.34304(8) 0.29824(8) 0.34395(7)
C47_36 C 0.33988(10) 0.36064(10) 0.29402(10)
C48_36 C 0.36064(10) 0.29402(10) 0.33988(10)
H27_36 H 0.3310 0.3669 0.3005
H28_36 H 0.3669 0.3005 0.3310
C52_36 C 0.34903(10) 0.36880(11) 0.28022(10)
C53_36 C 0.36880(11) 0.28022(10) 0.34903(10)
H32_36 H 0.3464 0.3809 0.2775
H33_36 H 0.3809 0.2775 0.3464
Co3_23 Co 0.3750 0.375000(10) 0.2496
N21_75 N 0.24927(4) 0.35444(5) 0.39385(5)
C57_75 C 0.25067(7) 0.34044(9) 0.39985(8)
S3_75 S 0.25320(4) 0.31999(3) 0.40745(4)
N22_75 N 0.22903(5) 0.38852(5) 0.39021(5)
C58_75 C 0.22653(6) 0.38502(6) 0.40749(6)
H37_75 H 0.2344 0.3769 0.4132
C59_75 C 0.21312(6) 0.39262(6) 0.41750(6)
H38_75 H 0.2117 0.3896 0.4297
C60_75 C 0.20184(6) 0.40461(6) 0.40944(6)
C61_75 C 0.20457(7) 0.40892(7) 0.39142(7)
H39_75 H 0.1974 0.4176 0.3856
C62_75 C 0.21782(7) 0.40030(7) 0.38250(6)
H40_75 H 0.2193 0.4027 0.3701
C63_75 C 0.16646(6) 0.43473(6) 0.42141(6)
N23_75 N 0.18090(5) 0.42854(5) 0.41316(6)
C64_75 C 0.18660(6) 0.41264(6) 0.41890(6)
N24_75 N 0.17917(5) 0.40312(5) 0.43216(5)
C65_75 C 0.16495(6) 0.41096(7) 0.43965(6)
N25_75 N 0.15811(6) 0.42661(5) 0.43498(6)
C66_75 C 0.16015(7) 0.47574(7) 0.39407(8)
H41_75 H 0.1667 0.4825 0.3856
C67_75 C 0.16839(7) 0.46149(7) 0.40228(7)
H42_75 H 0.1804 0.4585 0.3995
C68_75 C 0.15889(6) 0.45156(6) 0.41459(7)
C69_75 C 0.14182(7) 0.45699(7) 0.41898(6)
H43_75 H 0.1352 0.4509 0.4279
C70_75 C 0.13459(6) 0.47140(6) 0.41024(6)
H44_75 H 0.1229 0.4751 0.4134
C71_75 C 0.13491(7) 0.40068(7) 0.47798(7)
H45_75 H 0.1271 0.4070 0.4857
C72_75 C 0.14362(7) 0.41007(7) 0.46502(7)
H46_75 H 0.1416 0.4225 0.4636
C73_75 C 0.15543(6) 0.40112(6) 0.45395(6)
C74_75 C 0.15828(7) 0.38291(7) 0.45696(7)
H47_75 H 0.1668 0.3765 0.4501
C75_75 C 0.14851(7) 0.37451(6) 0.47005(6)
H48_75 H 0.1502 0.3621 0.4718
N1_37 N 0.07051(6) 0.07010(7) 0.15744(6)
C1_37 C 0.06356(8) 0.08466(8) 0.16517(8)
N2_37 N 0.02064(6) 0.11044(5) 0.13859(6)
C2_37 C 0.02494(8) 0.09372(8) 0.13498(8)
H1_37 H 0.0181 0.0875 0.1263
C3_37 C 0.03880(8) 0.08472(9) 0.14305(9)
H2_37 H 0.0417 0.0729 0.1396
C4_37 C 0.04824(8) 0.09304(8) 0.15605(7)
C5_37 C 0.04402(10) 0.11064(10) 0.16012(10)
H3_37 H 0.0505 0.1169 0.1690
C6_37 C 0.03022(10) 0.11880(11) 0.15097(10)
H4_37 H 0.0275 0.1309 0.1536
C7_76 C 0.00067(7) 0.10015(8) 0.09044(9)
S1_76 S 0.00320(4) 0.09255(4) 0.06999(3)
N11_37 N 0.07010(7) 0.09256(6) 0.17949(6)
N12_37 N 0.09256(6) 0.07051(6) 0.17990(7)
N13_23 N 0.07051(6) 0.17990(7) 0.09256(6)
N14_23 N 0.07010(7) 0.15744(6) 0.07051(6)
N15_23 N 0.09256(6) 0.17949(6) 0.07010(7)
C27_37 C 0.08466(8) 0.08483(8) 0.18644(8)
C28_37 C 0.08483(8) 0.06356(8) 0.16534(8)
C29_23 C 0.06356(8) 0.16534(8) 0.08483(8)
C30_23 C 0.08466(8) 0.16517(8) 0.06356(8)
C31_23 C 0.08483(8) 0.18644(8) 0.08466(8)
N16_37 N 0.11141(6) 0.02064(6) 0.13956(5)
N17_37 N 0.11044(5) 0.11141(6) 0.22936(6)
N18_23 N 0.02064(6) 0.13956(5) 0.11141(6)
N19_23 N 0.11141(6) 0.22936(6) 0.11044(5)
N20_23 N 0.11044(5) 0.13859(6) 0.02064(6)
C32_37 C 0.11502(8) 0.02494(8) 0.15628(8)
C33_37 C 0.09372(8) 0.11502(8) 0.22506(8)
C34_23 C 0.02494(8) 0.15628(8) 0.11502(8)
C35_23 C 0.11502(8) 0.22506(8) 0.09372(8)
C36_23 C 0.09372(8) 0.13498(8) 0.02494(8)
H17_37 H 0.1237 0.0181 0.1625
H18_37 H 0.0875 0.1237 0.2319
H19_23 H 0.0181 0.1625 0.1237
H20_23 H 0.1237 0.2319 0.0875
H21_23 H 0.0875 0.1263 0.0181
C37_37 C 0.10695(9) 0.03880(8) 0.16528(9)
C38_37 C 0.08472(9) 0.10695(9) 0.21120(8)
C39_23 C 0.03880(8) 0.16528(9) 0.10695(9)
C40_23 C 0.10695(9) 0.21120(8) 0.08472(9)
C41_23 C 0.08472(9) 0.14305(9) 0.03880(8)
H22_37 H 0.1104 0.0417 0.1771
H23_37 H 0.0729 0.1104 0.2083
H24_23 H 0.0417 0.1771 0.1104
H25_23 H 0.1104 0.2083 0.0729
H26_23 H 0.0729 0.1396 0.0417
C42_37 C 0.09395(7) 0.04824(8) 0.15696(8)
C43_37 C 0.09304(8) 0.09395(7) 0.20176(8)
C44_23 C 0.04824(8) 0.15696(8) 0.09395(7)
C45_23 C 0.09395(7) 0.20176(8) 0.09304(8)
C46_23 C 0.09304(8) 0.15605(7) 0.04824(8)
C47_37 C 0.08988(10) 0.04402(10) 0.13936(10)
C48_37 C 0.11064(10) 0.08988(10) 0.20598(10)
C49_23 C 0.04402(10) 0.13936(10) 0.08988(10)
C50_23 C 0.08988(10) 0.20598(10) 0.11064(10)
C51_23 C 0.11064(10) 0.16012(10) 0.04402(10)
H27_37 H 0.0810 0.0505 0.1331
H28_37 H 0.1169 0.0810 0.1995
H29_23 H 0.0505 0.1331 0.0810
H30_23 H 0.0810 0.1995 0.1169
H31_23 H 0.1169 0.1690 0.0505
C52_37 C 0.09903(10) 0.03022(10) 0.13120(11)
C53_37 C 0.11880(11) 0.09903(10) 0.21978(10)
C54_23 C 0.03022(10) 0.13120(11) 0.09903(10)
C55_23 C 0.09903(10) 0.21978(10) 0.11880(11)
C56_23 C 0.11880(11) 0.15097(10) 0.03022(10)
H32_37 H 0.0964 0.0275 0.1191
H33_37 H 0.1309 0.0964 0.2225
H34_23 H 0.0275 0.1191 0.0964
H35_23 H 0.0964 0.2225 0.1309
H36_23 H 0.1309 0.1536 0.0275
Co4_16 Co 0.125000(10) 0.1250 0.2504
Co5_16 Co 0.1250 0.2504 0.125000(10)
C57_76 C 0.00067(7) 0.14985(8) 0.15956(9)
S3_76 S 0.00320(4) 0.15745(4) 0.18001(3)
Co6_18 Co 0.125000(10) 0.1250 0.9996
Co3_24 Co 0.1250 0.9996 0.125000(10)
Co1_21 Co 0.9996 0.125000(10) 0.1250
N3_76 N 0.99927(4) 0.10615(5) 0.10444(5)
N4_76 N 0.97903(5) 0.10979(5) 0.13852(5)
C8_76 C 0.97653(6) 0.09251(6) 0.13502(6)
H5_76 H 0.9844 0.0868 0.1269
C9_76 C 0.96312(6) 0.08250(6) 0.14262(6)
H6_76 H 0.9617 0.0703 0.1396
C10_76 C 0.95184(6) 0.09056(6) 0.15461(6)
C11_76 C 0.95457(7) 0.10858(7) 0.15892(7)
H7_76 H 0.9474 0.1144 0.1676
C12_76 C 0.96782(7) 0.11750(6) 0.15030(7)
H8_76 H 0.9693 0.1299 0.1527
C13_76 C 0.91646(6) 0.07859(6) 0.18473(6)
N5_76 N 0.93090(5) 0.08684(6) 0.17854(5)
C14_76 C 0.93660(6) 0.08110(6) 0.16264(6)
N6_76 N 0.92917(5) 0.06784(5) 0.15312(5)
C15_76 C 0.91495(6) 0.06035(6) 0.16096(7)
N7_76 N 0.90811(6) 0.06502(6) 0.17661(5)
C16_76 C 0.91015(7) 0.10593(8) 0.22574(7)
H9_76 H 0.9167 0.1144 0.2325
C17_76 C 0.91839(7) 0.09772(7) 0.21149(7)
H10_76 H 0.9304 0.1005 0.2085
C18_76 C 0.90889(6) 0.08541(7) 0.20156(6)
C19_76 C 0.89182(7) 0.08102(6) 0.20699(7)
H11_76 H 0.8852 0.0721 0.2009
C20_76 C 0.88459(6) 0.08976(6) 0.22140(6)
H12_76 H 0.8729 0.0866 0.2251
C21_76 C 0.88491(7) 0.02202(7) 0.15068(7)
H13_76 H 0.8771 0.0143 0.1570
C22_76 C 0.89362(7) 0.03498(7) 0.16007(7)
H14_76 H 0.8916 0.0364 0.1725
C23_76 C 0.90543(6) 0.04605(6) 0.15112(6)
C24_76 C 0.90828(7) 0.04304(7) 0.13291(7)
H15_76 H 0.9168 0.0499 0.1265
C25_76 C 0.89851(7) 0.02995(6) 0.12451(6)
H16_76 H 0.9002 0.0282 0.1121
N21_76 N 0.99927(4) 0.14385(5) 0.14556(5)
N22_76 N 0.97903(5) 0.14021(5) 0.11148(5)
C58_76 C 0.97653(6) 0.15749(6) 0.11498(6)
H37_76 H 0.9844 0.1632 0.1231
C59_76 C 0.96312(6) 0.16750(6) 0.10738(6)
H38_76 H 0.9617 0.1797 0.1104
C60_76 C 0.95184(6) 0.15944(6) 0.09539(6)
C61_76 C 0.95457(7) 0.14142(7) 0.09108(7)
H39_76 H 0.9474 0.1356 0.0824
C62_76 C 0.96782(7) 0.13250(6) 0.09970(7)
H40_76 H 0.9693 0.1201 0.0973
C63_76 C 0.91646(6) 0.17141(6) 0.06527(6)
N23_76 N 0.93090(5) 0.16316(6) 0.07146(5)
C64_76 C 0.93660(6) 0.16890(6) 0.08736(6)
N24_76 N 0.92917(5) 0.18216(5) 0.09688(5)
C65_76 C 0.91495(6) 0.18965(6) 0.08904(7)
N25_76 N 0.90811(6) 0.18498(6) 0.07339(5)
C66_76 C 0.91015(7) 0.14407(8) 0.02426(7)
H41_76 H 0.9167 0.1356 0.0175
C67_76 C 0.91839(7) 0.15228(7) 0.03851(7)
H42_76 H 0.9304 0.1495 0.0415
C68_76 C 0.90889(6) 0.16459(7) 0.04844(6)
C69_76 C 0.89182(7) 0.16898(6) 0.04301(7)
H43_76 H 0.8852 0.1779 0.0491
C70_76 C 0.88459(6) 0.16024(6) 0.02860(6)
H44_76 H 0.8729 0.1634 0.0249
C71_76 C 0.88491(7) 0.22798(7) 0.09932(7)
H45_76 H 0.8771 0.2357 0.0930
C72_76 C 0.89362(7) 0.21502(7) 0.08993(7)
H46_76 H 0.8916 0.2136 0.0775
C73_76 C 0.90543(6) 0.20395(6) 0.09888(6)
C74_76 C 0.90828(7) 0.20696(7) 0.11709(7)
H47_76 H 0.9168 0.2001 0.1235
C75_76 C 0.89851(7) 0.22005(6) 0.12549(6)
H48_76 H 0.9002 0.2218 0.1379
N3_77 N 0.39385(5) 0.00073(4) 0.89556(5)
N4_77 N 0.39021(5) 0.02097(5) 0.86148(5)
C8_77 C 0.40749(6) 0.02347(6) 0.86498(6)
H5_77 H 0.4132 0.0156 0.8731
C9_77 C 0.41750(6) 0.03688(6) 0.85738(6)
H6_77 H 0.4297 0.0383 0.8604
C10_77 C 0.40944(6) 0.04816(6) 0.84539(6)
C11_77 C 0.39142(7) 0.04543(7) 0.84108(7)
H7_77 H 0.3856 0.0526 0.8324
C12_77 C 0.38250(6) 0.03218(7) 0.84970(7)
H8_77 H 0.3701 0.0307 0.8473
C13_77 C 0.42141(6) 0.08354(6) 0.81527(6)
N5_77 N 0.41316(6) 0.06910(5) 0.82146(5)
C14_77 C 0.41890(6) 0.06340(6) 0.83736(6)
N6_77 N 0.43216(5) 0.07083(5) 0.84688(5)
C15_77 C 0.43965(6) 0.08505(6) 0.83904(7)
N7_77 N 0.43498(6) 0.09189(6) 0.82339(5)
C16_77 C 0.39407(8) 0.08985(7) 0.77426(7)
H9_77 H 0.3856 0.0833 0.7675
C17_77 C 0.40228(7) 0.08161(7) 0.78851(7)
H10_77 H 0.3995 0.0696 0.7915
C18_77 C 0.41459(7) 0.09111(6) 0.79844(6)
C19_77 C 0.41898(6) 0.10818(7) 0.79301(7)
H11_77 H 0.4279 0.1148 0.7991
C20_77 C 0.41024(6) 0.11541(6) 0.77860(6)
H12_77 H 0.4134 0.1271 0.7749
C21_77 C 0.47798(7) 0.11509(7) 0.84932(7)
H13_77 H 0.4857 0.1229 0.8430
C22_77 C 0.46502(7) 0.10638(7) 0.83993(7)
H14_77 H 0.4636 0.1084 0.8275
C23_77 C 0.45395(6) 0.09457(6) 0.84888(6)
C24_77 C 0.45696(7) 0.09172(7) 0.86709(7)
H15_77 H 0.4501 0.0832 0.8735
C25_77 C 0.47005(6) 0.10149(7) 0.87549(6)
H16_77 H 0.4718 0.0998 0.8879
N21_77 N 0.35615(5) 0.00073(4) 0.85444(5)
N22_77 N 0.35979(5) 0.02097(5) 0.88852(5)
C58_77 C 0.34251(6) 0.02347(6) 0.88502(6)
H37_77 H 0.3368 0.0156 0.8769
C59_77 C 0.33250(6) 0.03688(6) 0.89262(6)
H38_77 H 0.3203 0.0383 0.8896
C60_77 C 0.34056(6) 0.04816(6) 0.90461(6)
C61_77 C 0.35858(7) 0.04543(7) 0.90892(7)
H39_77 H 0.3644 0.0526 0.9176
C62_77 C 0.36750(6) 0.03218(7) 0.90030(7)
H40_77 H 0.3799 0.0307 0.9027
C63_77 C 0.32859(6) 0.08354(6) 0.93473(6)
N23_77 N 0.33684(6) 0.06910(5) 0.92854(5)
C64_77 C 0.33110(6) 0.06340(6) 0.91264(6)
N24_77 N 0.31784(5) 0.07083(5) 0.90312(5)
C65_77 C 0.31035(6) 0.08505(6) 0.91096(7)
N25_77 N 0.31502(6) 0.09189(6) 0.92661(5)
C66_77 C 0.35593(8) 0.08985(7) 0.97574(7)
H41_77 H 0.3644 0.0833 0.9825
C67_77 C 0.34772(7) 0.08161(7) 0.96149(7)
H42_77 H 0.3505 0.0696 0.9585
C68_77 C 0.33541(7) 0.09111(6) 0.95156(6)
C69_77 C 0.33102(6) 0.10818(7) 0.95699(7)
H43_77 H 0.3221 0.1148 0.9509
C70_77 C 0.33976(6) 0.11541(6) 0.97140(6)
H44_77 H 0.3366 0.1271 0.9751
C71_77 C 0.27202(7) 0.11509(7) 0.90068(7)
H45_77 H 0.2643 0.1229 0.9070
C72_77 C 0.28498(7) 0.10638(7) 0.91007(7)
H46_77 H 0.2864 0.1084 0.9225
C73_77 C 0.29605(6) 0.09457(6) 0.90112(6)
C74_77 C 0.29304(7) 0.09172(7) 0.88291(7)
H47_77 H 0.2999 0.0832 0.8765
C75_77 C 0.27995(6) 0.10149(7) 0.87451(6)
H48_77 H 0.2782 0.0998 0.8621
N1_38 N 0.42990(7) 0.92949(6) 0.84256(6)
C1_38 C 0.41534(8) 0.93644(8) 0.83483(8)
N2_38 N 0.38956(5) 0.97936(6) 0.86141(6)
C2_38 C 0.40628(8) 0.97506(8) 0.86502(8)
H1_38 H 0.4125 0.9819 0.8737
C3_38 C 0.41528(9) 0.96120(8) 0.85695(9)
H2_38 H 0.4271 0.9583 0.8604
C4_38 C 0.40696(8) 0.95176(8) 0.84395(7)
C5_38 C 0.38936(10) 0.95598(10) 0.83988(10)
H3_38 H 0.3831 0.9495 0.8310
C6_38 C 0.38120(11) 0.96978(10) 0.84903(10)
H4_38 H 0.3691 0.9725 0.8464
C7_77 C 0.39985(8) 0.99933(7) 0.90956(9)
S1_77 S 0.40745(4) 0.99680(4) 0.93001(3)
N11_38 N 0.40744(6) 0.92990(7) 0.82051(6)
N12_38 N 0.42949(6) 0.90744(6) 0.82010(7)
C27_38 C 0.41517(8) 0.91534(8) 0.81356(8)
C28_38 C 0.43644(8) 0.91517(8) 0.83466(8)
N16_38 N 0.47936(6) 0.88859(6) 0.86044(5)
N17_38 N 0.38859(6) 0.88956(5) 0.77064(6)
C32_38 C 0.47506(8) 0.88498(8) 0.84372(8)
C33_38 C 0.38498(8) 0.90628(8) 0.77494(8)
H17_38 H 0.4819 0.8763 0.8375
H18_38 H 0.3763 0.9125 0.7681
C37_38 C 0.46120(8) 0.89305(9) 0.83472(9)
C38_38 C 0.39305(9) 0.91528(9) 0.78880(8)
H22_38 H 0.4583 0.8896 0.8229
H23_38 H 0.3896 0.9271 0.7917
C42_38 C 0.45176(8) 0.90605(7) 0.84304(8)
C43_38 C 0.40605(7) 0.90696(8) 0.79824(8)
C47_38 C 0.45598(10) 0.91012(10) 0.86064(10)
C48_38 C 0.41012(10) 0.88936(10) 0.79402(10)
H27_38 H 0.4495 0.9190 0.8669
H28_38 H 0.4190 0.8831 0.8005
C52_38 C 0.46978(10) 0.90097(10) 0.86880(11)
C53_38 C 0.40097(10) 0.88120(11) 0.78022(10)
H32_38 H 0.4725 0.9036 0.8809
H33_38 H 0.4036 0.8691 0.7775
C57_77 C 0.35015(8) 0.99933(7) 0.84044(9)
S3_77 S 0.34255(4) 0.99680(4) 0.81999(3)
N1_39 N 0.17949(6) 0.07010(7) 0.09256(6)
C1_39 C 0.18644(8) 0.08466(8) 0.08483(8)
N2_39 N 0.22936(6) 0.11044(5) 0.11141(6)
C2_39 C 0.22506(8) 0.09372(8) 0.11502(8)
H1_39 H 0.2319 0.0875 0.1237
C3_39 C 0.21120(8) 0.08472(9) 0.10695(9)
H2_39 H 0.2083 0.0729 0.1104
C4_39 C 0.20176(8) 0.09304(8) 0.09395(7)
C5_39 C 0.20598(10) 0.11064(10) 0.08988(10)
H3_39 H 0.1995 0.1169 0.0810
C6_39 C 0.21978(10) 0.11880(11) 0.09903(10)
H4_39 H 0.2225 0.1309 0.0964
Co1_22 Co 0.2504 0.125000(10) 0.1250
N3_78 N 0.25073(4) 0.10615(5) 0.14556(5)
C7_78 C 0.24933(7) 0.10015(8) 0.15956(9)
S1_78 S 0.24680(4) 0.09255(4) 0.18001(3)
N4_78 N 0.27097(5) 0.10979(5) 0.11148(5)
C8_78 C 0.27347(6) 0.09251(6) 0.11498(6)
H5_78 H 0.2656 0.0868 0.1231
C9_78 C 0.28688(6) 0.08250(6) 0.10738(6)
H6_78 H 0.2883 0.0703 0.1104
C10_78 C 0.29816(6) 0.09056(6) 0.09539(6)
C11_78 C 0.29543(7) 0.10858(7) 0.09108(7)
H7_78 H 0.3026 0.1144 0.0824
C12_78 C 0.28218(7) 0.11750(6) 0.09970(7)
H8_78 H 0.2807 0.1299 0.0973
C13_78 C 0.33354(6) 0.07859(6) 0.06527(6)
N5_78 N 0.31910(5) 0.08684(6) 0.07146(5)
C14_78 C 0.31340(6) 0.08110(6) 0.08736(6)
N6_78 N 0.32083(5) 0.06784(5) 0.09688(5)
C15_78 C 0.33505(6) 0.06035(6) 0.08904(7)
N7_78 N 0.34189(6) 0.06502(6) 0.07339(5)
C16_78 C 0.33985(7) 0.10593(8) 0.02426(7)
H9_78 H 0.3333 0.1144 0.0175
C17_78 C 0.33161(7) 0.09772(7) 0.03851(7)
H10_78 H 0.3196 0.1005 0.0415
C18_78 C 0.34111(6) 0.08541(7) 0.04844(6)
C19_78 C 0.35818(7) 0.08102(6) 0.04301(7)
H11_78 H 0.3648 0.0721 0.0491
C20_78 C 0.36541(6) 0.08976(6) 0.02860(6)
H12_78 H 0.3771 0.0866 0.0249
C21_78 C 0.36509(7) 0.02202(7) 0.09932(7)
H13_78 H 0.3729 0.0143 0.0930
C22_78 C 0.35638(7) 0.03498(7) 0.08993(7)
H14_78 H 0.3584 0.0364 0.0775
C23_78 C 0.34457(6) 0.04605(6) 0.09888(6)
C24_78 C 0.34172(7) 0.04304(7) 0.11709(7)
H15_78 H 0.3332 0.0499 0.1235
C25_78 C 0.35149(7) 0.02995(6) 0.12549(6)
H16_78 H 0.3498 0.0282 0.1379
N11_39 N 0.17990(7) 0.09256(6) 0.07051(6)
N12_39 N 0.15744(6) 0.07051(6) 0.07010(7)
N13_24 N 0.17949(6) 0.17990(7) 0.15744(6)
N14_24 N 0.17990(7) 0.15744(6) 0.17949(6)
N15_24 N 0.15744(6) 0.17949(6) 0.17990(7)
C27_39 C 0.16534(8) 0.08483(8) 0.06356(8)
C28_39 C 0.16517(8) 0.06356(8) 0.08466(8)
C29_24 C 0.18644(8) 0.16534(8) 0.16517(8)
C30_24 C 0.16534(8) 0.16517(8) 0.18644(8)
C31_24 C 0.16517(8) 0.18644(8) 0.16534(8)
N16_39 N 0.13859(6) 0.02064(6) 0.11044(5)
N17_39 N 0.13956(5) 0.11141(6) 0.02064(6)
N18_24 N 0.22936(6) 0.13956(5) 0.13859(6)
N19_24 N 0.13859(6) 0.22936(6) 0.13956(5)
N20_24 N 0.13956(5) 0.13859(6) 0.22936(6)
C32_39 C 0.13498(8) 0.02494(8) 0.09372(8)
C33_39 C 0.15628(8) 0.11502(8) 0.02494(8)
C34_24 C 0.22506(8) 0.15628(8) 0.13498(8)
C35_24 C 0.13498(8) 0.22506(8) 0.15628(8)
C36_24 C 0.15628(8) 0.13498(8) 0.22506(8)
H17_39 H 0.1263 0.0181 0.0875
H18_39 H 0.1625 0.1237 0.0181
H19_24 H 0.2319 0.1625 0.1263
H20_24 H 0.1263 0.2319 0.1625
H21_24 H 0.1625 0.1263 0.2319
C37_39 C 0.14305(9) 0.03880(8) 0.08472(9)
C38_39 C 0.16528(9) 0.10695(9) 0.03880(8)
C39_24 C 0.21120(8) 0.16528(9) 0.14305(9)
C40_24 C 0.14305(9) 0.21120(8) 0.16528(9)
C41_24 C 0.16528(9) 0.14305(9) 0.21120(8)
H22_39 H 0.1396 0.0417 0.0729
H23_39 H 0.1771 0.1104 0.0417
H24_24 H 0.2083 0.1771 0.1396
H25_24 H 0.1396 0.2083 0.1771
H26_24 H 0.1771 0.1396 0.2083
C42_39 C 0.15605(7) 0.04824(8) 0.09304(8)
C43_39 C 0.15696(8) 0.09395(7) 0.04824(8)
C44_24 C 0.20176(8) 0.15696(8) 0.15605(7)
C45_24 C 0.15605(7) 0.20176(8) 0.15696(8)
C46_24 C 0.15696(8) 0.15605(7) 0.20176(8)
C47_39 C 0.16012(10) 0.04402(10) 0.11064(10)
C48_39 C 0.13936(10) 0.08988(10) 0.04402(10)
C49_24 C 0.20598(10) 0.13936(10) 0.16012(10)
C50_24 C 0.16012(10) 0.20598(10) 0.13936(10)
C51_24 C 0.13936(10) 0.16012(10) 0.20598(10)
H27_39 H 0.1690 0.0505 0.1169
H28_39 H 0.1331 0.0810 0.0505
H29_24 H 0.1995 0.1331 0.1690
H30_24 H 0.1690 0.1995 0.1331
H31_24 H 0.1331 0.1690 0.1995
C52_39 C 0.15097(10) 0.03022(10) 0.11880(11)
C53_39 C 0.13120(11) 0.09903(10) 0.03022(10)
C54_24 C 0.21978(10) 0.13120(11) 0.15097(10)
C55_24 C 0.15097(10) 0.21978(10) 0.13120(11)
C56_24 C 0.13120(11) 0.15097(10) 0.21978(10)
H32_39 H 0.1536 0.0275 0.1309
H33_39 H 0.1191 0.0964 0.0275
H34_24 H 0.2225 0.1191 0.1536
H35_24 H 0.1536 0.2225 0.1191
H36_24 H 0.1191 0.1536 0.2225
N21_78 N 0.25073(4) 0.14385(5) 0.10444(5)
C57_78 C 0.24933(7) 0.14985(8) 0.09044(9)
S3_78 S 0.24680(4) 0.15745(4) 0.06999(3)
N22_78 N 0.27097(5) 0.14021(5) 0.13852(5)
C58_78 C 0.27347(6) 0.15749(6) 0.13502(6)
H37_78 H 0.2656 0.1632 0.1269
C59_78 C 0.28688(6) 0.16750(6) 0.14262(6)
H38_78 H 0.2883 0.1797 0.1396
C60_78 C 0.29816(6) 0.15944(6) 0.15461(6)
C61_78 C 0.29543(7) 0.14142(7) 0.15892(7)
H39_78 H 0.3026 0.1356 0.1676
C62_78 C 0.28218(7) 0.13250(6) 0.15030(7)
H40_78 H 0.2807 0.1201 0.1527
C63_78 C 0.33354(6) 0.17141(6) 0.18473(6)
N23_78 N 0.31910(5) 0.16316(6) 0.17854(5)
C64_78 C 0.31340(6) 0.16890(6) 0.16264(6)
N24_78 N 0.32083(5) 0.18216(5) 0.15312(5)
C65_78 C 0.33505(6) 0.18965(6) 0.16096(7)
N25_78 N 0.34189(6) 0.18498(6) 0.17661(5)
C66_78 C 0.33985(7) 0.14407(8) 0.22574(7)
H41_78 H 0.3333 0.1356 0.2325
C67_78 C 0.33161(7) 0.15228(7) 0.21149(7)
H42_78 H 0.3196 0.1495 0.2085
C68_78 C 0.34111(6) 0.16459(7) 0.20156(6)
C69_78 C 0.35818(7) 0.16898(6) 0.20699(7)
H43_78 H 0.3648 0.1779 0.2009
C70_78 C 0.36541(6) 0.16024(6) 0.22140(6)
H44_78 H 0.3771 0.1634 0.2251
C71_78 C 0.36509(7) 0.22798(7) 0.15068(7)
H45_78 H 0.3729 0.2357 0.1570
C72_78 C 0.35638(7) 0.21502(7) 0.16007(7)
H46_78 H 0.3584 0.2136 0.1725
C73_78 C 0.34457(6) 0.20395(6) 0.15112(6)
C74_78 C 0.34172(7) 0.20696(7) 0.13291(7)
H47_78 H 0.3332 0.2001 0.1265
C75_78 C 0.35149(7) 0.22005(6) 0.12451(6)
H48_78 H 0.3498 0.2218 0.1121
N3_79 N 0.14556(5) 0.25073(4) 0.10615(5)
C7_79 C 0.15956(9) 0.24933(7) 0.10015(8)
S1_79 S 0.18001(3) 0.24680(4) 0.09255(4)
N4_79 N 0.11148(5) 0.27097(5) 0.10979(5)
C8_79 C 0.11498(6) 0.27347(6) 0.09251(6)
H5_79 H 0.1231 0.2656 0.0868
C9_79 C 0.10738(6) 0.28688(6) 0.08250(6)
H6_79 H 0.1104 0.2883 0.0703
C10_79 C 0.09539(6) 0.29816(6) 0.09056(6)
C11_79 C 0.09108(7) 0.29543(7) 0.10858(7)
H7_79 H 0.0824 0.3026 0.1144
C12_79 C 0.09970(7) 0.28218(7) 0.11750(6)
H8_79 H 0.0973 0.2807 0.1299
C13_79 C 0.06527(6) 0.33354(6) 0.07859(6)
N5_79 N 0.07146(5) 0.31910(5) 0.08684(6)
C14_79 C 0.08736(6) 0.31340(6) 0.08110(6)
N6_79 N 0.09688(5) 0.32083(5) 0.06784(5)
C15_79 C 0.08904(7) 0.33505(6) 0.06035(6)
N7_79 N 0.07339(5) 0.34189(6) 0.06502(6)
C16_79 C 0.02426(7) 0.33985(7) 0.10593(8)
H9_79 H 0.0175 0.3333 0.1144
C17_79 C 0.03851(7) 0.33161(7) 0.09772(7)
H10_79 H 0.0415 0.3196 0.1005
C18_79 C 0.04844(6) 0.34111(6) 0.08541(7)
C19_79 C 0.04301(7) 0.35818(7) 0.08102(6)
H11_79 H 0.0491 0.3648 0.0721
C20_79 C 0.02860(6) 0.36541(6) 0.08976(6)
H12_79 H 0.0249 0.3771 0.0866
C21_79 C 0.09932(7) 0.36509(7) 0.02202(7)
H13_79 H 0.0930 0.3729 0.0143
C22_79 C 0.08993(7) 0.35638(7) 0.03498(7)
H14_79 H 0.0775 0.3584 0.0364
C23_79 C 0.09888(6) 0.34457(6) 0.04605(6)
C24_79 C 0.11709(7) 0.34172(7) 0.04304(7)
H15_79 H 0.1235 0.3332 0.0499
C25_79 C 0.12549(6) 0.35149(7) 0.02995(6)
H16_79 H 0.1379 0.3498 0.0282
N21_79 N 0.10444(5) 0.25073(4) 0.14385(5)
C57_79 C 0.09044(9) 0.24933(7) 0.14985(8)
S3_79 S 0.06999(3) 0.24680(4) 0.15745(4)
N22_79 N 0.13852(5) 0.27097(5) 0.14021(5)
C58_79 C 0.13502(6) 0.27347(6) 0.15749(6)
H37_79 H 0.1269 0.2656 0.1632
C59_79 C 0.14262(6) 0.28688(6) 0.16750(6)
H38_79 H 0.1396 0.2883 0.1797
C60_79 C 0.15461(6) 0.29816(6) 0.15944(6)
C61_79 C 0.15892(7) 0.29543(7) 0.14142(7)
H39_79 H 0.1676 0.3026 0.1356
C62_79 C 0.15030(7) 0.28218(7) 0.13250(6)
H40_79 H 0.1527 0.2807 0.1201
C63_79 C 0.18473(6) 0.33354(6) 0.17141(6)
N23_79 N 0.17854(5) 0.31910(5) 0.16316(6)
C64_79 C 0.16264(6) 0.31340(6) 0.16890(6)
N24_79 N 0.15312(5) 0.32083(5) 0.18216(5)
C65_79 C 0.16096(7) 0.33505(6) 0.18965(6)
N25_79 N 0.17661(5) 0.34189(6) 0.18498(6)
C66_79 C 0.22574(7) 0.33985(7) 0.14407(8)
H41_79 H 0.2325 0.3333 0.1356
C67_79 C 0.21149(7) 0.33161(7) 0.15228(7)
H42_79 H 0.2085 0.3196 0.1495
C68_79 C 0.20156(6) 0.34111(6) 0.16459(7)
C69_79 C 0.20699(7) 0.35818(7) 0.16898(6)
H43_79 H 0.2009 0.3648 0.1779
C70_79 C 0.22140(6) 0.36541(6) 0.16024(6)
H44_79 H 0.2251 0.3771 0.1634
C71_79 C 0.15068(7) 0.36509(7) 0.22798(7)
H45_79 H 0.1570 0.3729 0.2357
C72_79 C 0.16007(7) 0.35638(7) 0.21502(7)
H46_79 H 0.1725 0.3584 0.2136
C73_79 C 0.15112(6) 0.34457(6) 0.20395(6)
C74_79 C 0.13291(7) 0.34172(7) 0.20696(7)
H47_79 H 0.1265 0.3332 0.2001
C75_79 C 0.12451(6) 0.35149(7) 0.22005(6)
H48_79 H 0.1121 0.3498 0.2218
N3_80 N 0.39385(5) 0.24927(4) 0.35444(5)
C7_80 C 0.39985(8) 0.25067(7) 0.34044(9)
S1_80 S 0.40745(4) 0.25320(4) 0.31999(3)
N4_80 N 0.39021(5) 0.22903(5) 0.38852(5)
C8_80 C 0.40749(6) 0.22653(6) 0.38502(6)
H5_80 H 0.4132 0.2344 0.3769
C9_80 C 0.41750(6) 0.21312(6) 0.39262(6)
H6_80 H 0.4297 0.2117 0.3896
C10_80 C 0.40944(6) 0.20184(6) 0.40461(6)
C11_80 C 0.39142(7) 0.20457(7) 0.40892(7)
H7_80 H 0.3856 0.1974 0.4176
C12_80 C 0.38250(6) 0.21782(7) 0.40030(7)
H8_80 H 0.3701 0.2193 0.4027
C13_80 C 0.42141(6) 0.16646(6) 0.43473(6)
N5_80 N 0.41316(6) 0.18090(5) 0.42854(5)
C14_80 C 0.41890(6) 0.18660(6) 0.41264(6)
N6_80 N 0.43216(5) 0.17917(5) 0.40312(5)
C15_80 C 0.43965(6) 0.16495(6) 0.41096(7)
N7_80 N 0.43498(6) 0.15811(6) 0.42661(5)
C16_80 C 0.39407(8) 0.16015(7) 0.47574(7)
H9_80 H 0.3856 0.1667 0.4825
C17_80 C 0.40228(7) 0.16839(7) 0.46149(7)
H10_80 H 0.3995 0.1804 0.4585
C18_80 C 0.41459(7) 0.15889(6) 0.45156(6)
C19_80 C 0.41898(6) 0.14182(7) 0.45699(7)
H11_80 H 0.4279 0.1352 0.4509
C20_80 C 0.41024(6) 0.13459(6) 0.47140(6)
H12_80 H 0.4134 0.1229 0.4751
C21_80 C 0.47798(7) 0.13491(7) 0.40068(7)
H13_80 H 0.4857 0.1271 0.4070
C22_80 C 0.46502(7) 0.14362(7) 0.41007(7)
H14_80 H 0.4636 0.1416 0.4225
C23_80 C 0.45395(6) 0.15543(6) 0.40112(6)
C24_80 C 0.45696(7) 0.15828(7) 0.38291(7)
H15_80 H 0.4501 0.1668 0.3765
C25_80 C 0.47005(6) 0.14851(7) 0.37451(6)
H16_80 H 0.4718 0.1502 0.3621
N21_80 N 0.35615(5) 0.24927(4) 0.39556(5)
C57_80 C 0.35015(8) 0.25067(7) 0.40956(9)
S3_80 S 0.34255(4) 0.25320(4) 0.43001(3)
N22_80 N 0.35979(5) 0.22903(5) 0.36148(5)
C58_80 C 0.34251(6) 0.22653(6) 0.36498(6)
H37_80 H 0.3368 0.2344 0.3731
C59_80 C 0.33250(6) 0.21312(6) 0.35738(6)
H38_80 H 0.3203 0.2117 0.3604
C60_80 C 0.34056(6) 0.20184(6) 0.34539(6)
C61_80 C 0.35858(7) 0.20457(7) 0.34108(7)
H39_80 H 0.3644 0.1974 0.3324
C62_80 C 0.36750(6) 0.21782(7) 0.34970(7)
H40_80 H 0.3799 0.2193 0.3473
C63_80 C 0.32859(6) 0.16646(6) 0.31527(6)
N23_80 N 0.33684(6) 0.18090(5) 0.32146(5)
C64_80 C 0.33110(6) 0.18660(6) 0.33736(6)
N24_80 N 0.31784(5) 0.17917(5) 0.34688(5)
C65_80 C 0.31035(6) 0.16495(6) 0.33904(7)
N25_80 N 0.31502(6) 0.15811(6) 0.32339(5)
C66_80 C 0.35593(8) 0.16015(7) 0.27426(7)
H41_80 H 0.3644 0.1667 0.2675
C67_80 C 0.34772(7) 0.16839(7) 0.28851(7)
H42_80 H 0.3505 0.1804 0.2915
C68_80 C 0.33541(7) 0.15889(6) 0.29844(6)
C69_80 C 0.33102(6) 0.14182(7) 0.29301(7)
H43_80 H 0.3221 0.1352 0.2991
C70_80 C 0.33976(6) 0.13459(6) 0.27860(6)
H44_80 H 0.3366 0.1229 0.2749
C71_80 C 0.27202(7) 0.13491(7) 0.34932(7)
H45_80 H 0.2643 0.1271 0.3430
C72_80 C 0.28498(7) 0.14362(7) 0.33993(7)
H46_80 H 0.2864 0.1416 0.3275
C73_80 C 0.29605(6) 0.15543(6) 0.34888(6)
C74_80 C 0.29304(7) 0.15828(7) 0.36709(7)
H47_80 H 0.2999 0.1668 0.3735
C75_80 C 0.27995(6) 0.14851(7) 0.37549(6)
H48_80 H 0.2782 0.1502 0.3879
C7_81 C 0.14985(8) 0.15956(9) 0.00067(7)
S1_81 S 0.15745(4) 0.18001(3) 0.00320(4)
C57_81 C 0.10015(8) 0.09044(9) 0.00067(7)
S3_81 S 0.09255(4) 0.06999(3) 0.00320(4)
N3_81 N 0.14385(5) 0.14556(5) 0.99927(4)
N4_81 N 0.14021(5) 0.11148(5) 0.97903(5)
C8_81 C 0.15749(6) 0.11498(6) 0.97653(6)
H5_81 H 0.1632 0.1231 0.9844
C9_81 C 0.16750(6) 0.10738(6) 0.96312(6)
H6_81 H 0.1797 0.1104 0.9617
C10_81 C 0.15944(6) 0.09539(6) 0.95184(6)
C11_81 C 0.14142(7) 0.09108(7) 0.95457(7)
H7_81 H 0.1356 0.0824 0.9474
C12_81 C 0.13250(6) 0.09970(7) 0.96782(7)
H8_81 H 0.1201 0.0973 0.9693
C13_81 C 0.17141(6) 0.06527(6) 0.91646(6)
N5_81 N 0.16316(6) 0.07146(5) 0.93090(5)
C14_81 C 0.16890(6) 0.08736(6) 0.93660(6)
N6_81 N 0.18216(5) 0.09688(5) 0.92917(5)
C15_81 C 0.18965(6) 0.08904(7) 0.91495(6)
N7_81 N 0.18498(6) 0.07339(5) 0.90811(6)
C16_81 C 0.14407(8) 0.02426(7) 0.91015(7)
H9_81 H 0.1356 0.0175 0.9167
C17_81 C 0.15228(7) 0.03851(7) 0.91839(7)
H10_81 H 0.1495 0.0415 0.9304
C18_81 C 0.16459(7) 0.04844(6) 0.90889(6)
C19_81 C 0.16898(6) 0.04301(7) 0.89182(7)
H11_81 H 0.1779 0.0491 0.8852
C20_81 C 0.16024(6) 0.02860(6) 0.88459(6)
H12_81 H 0.1634 0.0249 0.8729
C21_81 C 0.22798(7) 0.09932(7) 0.88491(7)
H13_81 H 0.2357 0.0930 0.8771
C22_81 C 0.21502(7) 0.08993(7) 0.89362(7)
H14_81 H 0.2136 0.0775 0.8916
C23_81 C 0.20395(6) 0.09888(6) 0.90543(6)
C24_81 C 0.20696(7) 0.11709(7) 0.90828(7)
H15_81 H 0.2001 0.1235 0.9168
C25_81 C 0.22005(6) 0.12549(6) 0.89851(7)
H16_81 H 0.2218 0.1379 0.9002
N21_81 N 0.10615(5) 0.10444(5) 0.99927(4)
N22_81 N 0.10979(5) 0.13852(5) 0.97903(5)
C58_81 C 0.09251(6) 0.13502(6) 0.97653(6)
H37_81 H 0.0868 0.1269 0.9844
C59_81 C 0.08250(6) 0.14262(6) 0.96312(6)
H38_81 H 0.0703 0.1396 0.9617
C60_81 C 0.09056(6) 0.15461(6) 0.95184(6)
C61_81 C 0.10858(7) 0.15892(7) 0.95457(7)
H39_81 H 0.1144 0.1676 0.9474
C62_81 C 0.11750(6) 0.15030(7) 0.96782(7)
H40_81 H 0.1299 0.1527 0.9693
C63_81 C 0.07859(6) 0.18473(6) 0.91646(6)
N23_81 N 0.08684(6) 0.17854(5) 0.93090(5)
C64_81 C 0.08110(6) 0.16264(6) 0.93660(6)
N24_81 N 0.06784(5) 0.15312(5) 0.92917(5)
C65_81 C 0.06035(6) 0.16096(7) 0.91495(6)
N25_81 N 0.06502(6) 0.17661(5) 0.90811(6)
C66_81 C 0.10593(8) 0.22574(7) 0.91015(7)
H41_81 H 0.1144 0.2325 0.9167
C67_81 C 0.09772(7) 0.21149(7) 0.91839(7)
H42_81 H 0.1005 0.2085 0.9304
C68_81 C 0.08541(7) 0.20156(6) 0.90889(6)
C69_81 C 0.08102(6) 0.20699(7) 0.89182(7)
H43_81 H 0.0721 0.2009 0.8852
C70_81 C 0.08976(6) 0.22140(6) 0.88459(6)
H44_81 H 0.0866 0.2251 0.8729
C71_81 C 0.02202(7) 0.15068(7) 0.88491(7)
H45_81 H 0.0143 0.1570 0.8771
C72_81 C 0.03498(7) 0.16007(7) 0.89362(7)
H46_81 H 0.0364 0.1725 0.8916
C73_81 C 0.04605(6) 0.15112(6) 0.90543(6)
C74_81 C 0.04304(7) 0.13291(7) 0.90828(7)
H47_81 H 0.0499 0.1265 0.9168
C75_81 C 0.02995(6) 0.12451(6) 0.89851(7)
H48_81 H 0.0282 0.1121 0.9002
C7_82 C 0.15956(9) 0.00067(7) 0.14985(8)
S1_82 S 0.18001(3) 0.00320(4) 0.15745(4)
C57_82 C 0.09044(9) 0.00067(7) 0.10015(8)
S3_82 S 0.06999(3) 0.00320(4) 0.09255(4)
N3_82 N 0.14556(5) 0.99927(4) 0.14385(5)
N4_82 N 0.11148(5) 0.97903(5) 0.14021(5)
C8_82 C 0.11498(6) 0.97653(6) 0.15749(6)
H5_82 H 0.1231 0.9844 0.1632
C9_82 C 0.10738(6) 0.96312(6) 0.16750(6)
H6_82 H 0.1104 0.9617 0.1797
C10_82 C 0.09539(6) 0.95184(6) 0.15944(6)
C11_82 C 0.09108(7) 0.95457(7) 0.14142(7)
H7_82 H 0.0824 0.9474 0.1356
C12_82 C 0.09970(7) 0.96782(7) 0.13250(6)
H8_82 H 0.0973 0.9693 0.1201
C13_82 C 0.06527(6) 0.91646(6) 0.17141(6)
N5_82 N 0.07146(5) 0.93090(5) 0.16316(6)
C14_82 C 0.08736(6) 0.93660(6) 0.16890(6)
N6_82 N 0.09688(5) 0.92917(5) 0.18216(5)
C15_82 C 0.08904(7) 0.91495(6) 0.18965(6)
N7_82 N 0.07339(5) 0.90811(6) 0.18498(6)
C16_82 C 0.02426(7) 0.91015(7) 0.14407(8)
H9_82 H 0.0175 0.9167 0.1356
C17_82 C 0.03851(7) 0.91839(7) 0.15228(7)
H10_82 H 0.0415 0.9304 0.1495
C18_82 C 0.04844(6) 0.90889(6) 0.16459(7)
C19_82 C 0.04301(7) 0.89182(7) 0.16898(6)
H11_82 H 0.0491 0.8852 0.1779
C20_82 C 0.02860(6) 0.88459(6) 0.16024(6)
H12_82 H 0.0249 0.8729 0.1634
C21_82 C 0.09932(7) 0.88491(7) 0.22798(7)
H13_82 H 0.0930 0.8771 0.2357
C22_82 C 0.08993(7) 0.89362(7) 0.21502(7)
H14_82 H 0.0775 0.8916 0.2136
C23_82 C 0.09888(6) 0.90543(6) 0.20395(6)
C24_82 C 0.11709(7) 0.90828(7) 0.20696(7)
H15_82 H 0.1235 0.9168 0.2001
C25_82 C 0.12549(6) 0.89851(7) 0.22005(6)
H16_82 H 0.1379 0.9002 0.2218
N21_82 N 0.10444(5) 0.99927(4) 0.10615(5)
N22_82 N 0.13852(5) 0.97903(5) 0.10979(5)
C58_82 C 0.13502(6) 0.97653(6) 0.09251(6)
H37_82 H 0.1269 0.9844 0.0868
C59_82 C 0.14262(6) 0.96312(6) 0.08250(6)
H38_82 H 0.1396 0.9617 0.0703
C60_82 C 0.15461(6) 0.95184(6) 0.09056(6)
C61_82 C 0.15892(7) 0.95457(7) 0.10858(7)
H39_82 H 0.1676 0.9474 0.1144
C62_82 C 0.15030(7) 0.96782(7) 0.11750(6)
H40_82 H 0.1527 0.9693 0.1299
C63_82 C 0.18473(6) 0.91646(6) 0.07859(6)
N23_82 N 0.17854(5) 0.93090(5) 0.08684(6)
C64_82 C 0.16264(6) 0.93660(6) 0.08110(6)
N24_82 N 0.15312(5) 0.92917(5) 0.06784(5)
C65_82 C 0.16096(7) 0.91495(6) 0.06035(6)
N25_82 N 0.17661(5) 0.90811(6) 0.06502(6)
C66_82 C 0.22574(7) 0.91015(7) 0.10593(8)
H41_82 H 0.2325 0.9167 0.1144
C67_82 C 0.21149(7) 0.91839(7) 0.09772(7)
H42_82 H 0.2085 0.9304 0.1005
C68_82 C 0.20156(6) 0.90889(6) 0.08541(7)
C69_82 C 0.20699(7) 0.89182(7) 0.08102(6)
H43_82 H 0.2009 0.8852 0.0721
C70_82 C 0.22140(6) 0.88459(6) 0.08976(6)
H44_82 H 0.2251 0.8729 0.0866
C71_82 C 0.15068(7) 0.88491(7) 0.02202(7)
H45_82 H 0.1570 0.8771 0.0143
C72_82 C 0.16007(7) 0.89362(7) 0.03498(7)
H46_82 H 0.1725 0.8916 0.0364
C73_82 C 0.15112(6) 0.90543(6) 0.04605(6)
C74_82 C 0.13291(7) 0.90828(7) 0.04304(7)
H47_82 H 0.1265 0.9168 0.0499
C75_82 C 0.12451(6) 0.89851(7) 0.02995(6)
H48_82 H 0.1121 0.9002 0.0282
N3_83 N 0.89556(5) 0.39385(5) 0.00073(4)
N4_83 N 0.86148(5) 0.39021(5) 0.02097(5)
C8_83 C 0.86498(6) 0.40749(6) 0.02347(6)
H5_83 H 0.8731 0.4132 0.0156
C9_83 C 0.85738(6) 0.41750(6) 0.03688(6)
H6_83 H 0.8604 0.4297 0.0383
C10_83 C 0.84539(6) 0.40944(6) 0.04816(6)
C11_83 C 0.84108(7) 0.39142(7) 0.04543(7)
H7_83 H 0.8324 0.3856 0.0526
C12_83 C 0.84970(7) 0.38250(6) 0.03218(7)
H8_83 H 0.8473 0.3701 0.0307
C13_83 C 0.81527(6) 0.42141(6) 0.08354(6)
N5_83 N 0.82146(5) 0.41316(6) 0.06910(5)
C14_83 C 0.83736(6) 0.41890(6) 0.06340(6)
N6_83 N 0.84688(5) 0.43216(5) 0.07083(5)
C15_83 C 0.83904(7) 0.43965(6) 0.08505(6)
N7_83 N 0.82339(5) 0.43498(6) 0.09189(6)
C16_83 C 0.77426(7) 0.39407(8) 0.08985(7)
H9_83 H 0.7675 0.3856 0.0833
C17_83 C 0.78851(7) 0.40228(7) 0.08161(7)
H10_83 H 0.7915 0.3995 0.0696
C18_83 C 0.79844(6) 0.41459(7) 0.09111(6)
C19_83 C 0.79301(7) 0.41898(6) 0.10818(7)
H11_83 H 0.7991 0.4279 0.1148
C20_83 C 0.77860(6) 0.41024(6) 0.11541(6)
H12_83 H 0.7749 0.4134 0.1271
C21_83 C 0.84932(7) 0.47798(7) 0.11509(7)
H13_83 H 0.8430 0.4857 0.1229
C22_83 C 0.83993(7) 0.46502(7) 0.10638(7)
H14_83 H 0.8275 0.4636 0.1084
C23_83 C 0.84888(6) 0.45395(6) 0.09457(6)
C24_83 C 0.86709(7) 0.45696(7) 0.09172(7)
H15_83 H 0.8735 0.4501 0.0832
C25_83 C 0.87549(6) 0.47005(6) 0.10149(7)
H16_83 H 0.8879 0.4718 0.0998
N21_83 N 0.85444(5) 0.35615(5) 0.00073(4)
N22_83 N 0.88852(5) 0.35979(5) 0.02097(5)
C58_83 C 0.88502(6) 0.34251(6) 0.02347(6)
H37_83 H 0.8769 0.3368 0.0156
C59_83 C 0.89262(6) 0.33250(6) 0.03688(6)
H38_83 H 0.8896 0.3203 0.0383
C60_83 C 0.90461(6) 0.34056(6) 0.04816(6)
C61_83 C 0.90892(7) 0.35858(7) 0.04543(7)
H39_83 H 0.9176 0.3644 0.0526
C62_83 C 0.90030(7) 0.36750(6) 0.03218(7)
H40_83 H 0.9027 0.3799 0.0307
C63_83 C 0.93473(6) 0.32859(6) 0.08354(6)
N23_83 N 0.92854(5) 0.33684(6) 0.06910(5)
C64_83 C 0.91264(6) 0.33110(6) 0.06340(6)
N24_83 N 0.90312(5) 0.31784(5) 0.07083(5)
C65_83 C 0.91096(7) 0.31035(6) 0.08505(6)
N25_83 N 0.92661(5) 0.31502(6) 0.09189(6)
C66_83 C 0.97574(7) 0.35593(8) 0.08985(7)
H41_83 H 0.9825 0.3644 0.0833
C67_83 C 0.96149(7) 0.34772(7) 0.08161(7)
H42_83 H 0.9585 0.3505 0.0696
C68_83 C 0.95156(6) 0.33541(7) 0.09111(6)
C69_83 C 0.95699(7) 0.33102(6) 0.10818(7)
H43_83 H 0.9509 0.3221 0.1148
C70_83 C 0.97140(6) 0.33976(6) 0.11541(6)
H44_83 H 0.9751 0.3366 0.1271
C71_83 C 0.90068(7) 0.27202(7) 0.11509(7)
H45_83 H 0.9070 0.2643 0.1229
C72_83 C 0.91007(7) 0.28498(7) 0.10638(7)
H46_83 H 0.9225 0.2864 0.1084
C73_83 C 0.90112(6) 0.29605(6) 0.09457(6)
C74_83 C 0.88291(7) 0.29304(7) 0.09172(7)
H47_83 H 0.8765 0.2999 0.0832
C75_83 C 0.87451(6) 0.27995(6) 0.10149(7)
H48_83 H 0.8621 0.2782 0.0998
C7_83 C 0.90956(9) 0.39985(8) 0.99933(7)
S1_83 S 0.93001(3) 0.40745(4) 0.99680(4)
C57_83 C 0.84044(9) 0.35015(8) 0.99933(7)
S3_83 S 0.81999(3) 0.34255(4) 0.99680(4)
N3_84 N 0.14385(5) 0.10444(5) 0.25073(4)
C7_84 C 0.14985(8) 0.09044(9) 0.24933(7)
S1_84 S 0.15745(4) 0.06999(3) 0.24680(4)
N4_84 N 0.14021(5) 0.13852(5) 0.27097(5)
C8_84 C 0.15749(6) 0.13502(6) 0.27347(6)
H5_84 H 0.1632 0.1269 0.2656
C9_84 C 0.16750(6) 0.14262(6) 0.28688(6)
H6_84 H 0.1797 0.1396 0.2883
C10_84 C 0.15944(6) 0.15461(6) 0.29816(6)
C11_84 C 0.14142(7) 0.15892(7) 0.29543(7)
H7_84 H 0.1356 0.1676 0.3026
C12_84 C 0.13250(6) 0.15030(7) 0.28218(7)
H8_84 H 0.1201 0.1527 0.2807
C13_84 C 0.17141(6) 0.18473(6) 0.33354(6)
N5_84 N 0.16316(6) 0.17854(5) 0.31910(5)
C14_84 C 0.16890(6) 0.16264(6) 0.31340(6)
N6_84 N 0.18216(5) 0.15312(5) 0.32083(5)
C15_84 C 0.18965(6) 0.16096(7) 0.33505(6)
N7_84 N 0.18498(6) 0.17661(5) 0.34189(6)
C16_84 C 0.14407(8) 0.22574(7) 0.33985(7)
H9_84 H 0.1356 0.2325 0.3333
C17_84 C 0.15228(7) 0.21149(7) 0.33161(7)
H10_84 H 0.1495 0.2085 0.3196
C18_84 C 0.16459(7) 0.20156(6) 0.34111(6)
C19_84 C 0.16898(6) 0.20699(7) 0.35818(7)
H11_84 H 0.1779 0.2009 0.3648
C20_84 C 0.16024(6) 0.22140(6) 0.36541(6)
H12_84 H 0.1634 0.2251 0.3771
C21_84 C 0.22798(7) 0.15068(7) 0.36509(7)
H13_84 H 0.2357 0.1570 0.3729
C22_84 C 0.21502(7) 0.16007(7) 0.35638(7)
H14_84 H 0.2136 0.1725 0.3584
C23_84 C 0.20395(6) 0.15112(6) 0.34457(6)
C24_84 C 0.20696(7) 0.13291(7) 0.34172(7)
H15_84 H 0.2001 0.1265 0.3332
C25_84 C 0.22005(6) 0.12451(6) 0.35149(7)
H16_84 H 0.2218 0.1121 0.3498
N21_84 N 0.10615(5) 0.14556(5) 0.25073(4)
C57_84 C 0.10015(8) 0.15956(9) 0.24933(7)
S3_84 S 0.09255(4) 0.18001(3) 0.24680(4)
N22_84 N 0.10979(5) 0.11148(5) 0.27097(5)
C58_84 C 0.09251(6) 0.11498(6) 0.27347(6)
H37_84 H 0.0868 0.1231 0.2656
C59_84 C 0.08250(6) 0.10738(6) 0.28688(6)
H38_84 H 0.0703 0.1104 0.2883
C60_84 C 0.09056(6) 0.09539(6) 0.29816(6)
C61_84 C 0.10858(7) 0.09108(7) 0.29543(7)
H39_84 H 0.1144 0.0824 0.3026
C62_84 C 0.11750(6) 0.09970(7) 0.28218(7)
H40_84 H 0.1299 0.0973 0.2807
C63_84 C 0.07859(6) 0.06527(6) 0.33354(6)
N23_84 N 0.08684(6) 0.07146(5) 0.31910(5)
C64_84 C 0.08110(6) 0.08736(6) 0.31340(6)
N24_84 N 0.06784(5) 0.09688(5) 0.32083(5)
C65_84 C 0.06035(6) 0.08904(7) 0.33505(6)
N25_84 N 0.06502(6) 0.07339(5) 0.34189(6)
C66_84 C 0.10593(8) 0.02426(7) 0.33985(7)
H41_84 H 0.1144 0.0175 0.3333
C67_84 C 0.09772(7) 0.03851(7) 0.33161(7)
H42_84 H 0.1005 0.0415 0.3196
C68_84 C 0.08541(7) 0.04844(6) 0.34111(6)
C69_84 C 0.08102(6) 0.04301(7) 0.35818(7)
H43_84 H 0.0721 0.0491 0.3648
C70_84 C 0.08976(6) 0.02860(6) 0.36541(6)
H44_84 H 0.0866 0.0249 0.3771
C71_84 C 0.02202(7) 0.09932(7) 0.36509(7)
H45_84 H 0.0143 0.0930 0.3729
C72_84 C 0.03498(7) 0.08993(7) 0.35638(7)
H46_84 H 0.0364 0.0775 0.3584
C73_84 C 0.04605(6) 0.09888(6) 0.34457(6)
C74_84 C 0.04304(7) 0.11709(7) 0.34172(7)
H47_84 H 0.0499 0.1235 0.3332
C75_84 C 0.02995(6) 0.12549(6) 0.35149(7)
H48_84 H 0.0282 0.1379 0.3498
N3_85 N 0.24927(4) 0.89556(5) 0.85615(5)
C7_85 C 0.25067(7) 0.90956(9) 0.85015(8)
S1_85 S 0.25320(4) 0.93001(3) 0.84255(4)
N4_85 N 0.22903(5) 0.86148(5) 0.85979(5)
C8_85 C 0.22653(6) 0.86498(6) 0.84251(6)
H5_85 H 0.2344 0.8731 0.8368
C9_85 C 0.21312(6) 0.85738(6) 0.83250(6)
H6_85 H 0.2117 0.8604 0.8203
C10_85 C 0.20184(6) 0.84539(6) 0.84056(6)
C11_85 C 0.20457(7) 0.84108(7) 0.85858(7)
H7_85 H 0.1974 0.8324 0.8644
C12_85 C 0.21782(7) 0.84970(7) 0.86750(6)
H8_85 H 0.2193 0.8473 0.8799
C13_85 C 0.16646(6) 0.81527(6) 0.82859(6)
N5_85 N 0.18090(5) 0.82146(5) 0.83684(6)
C14_85 C 0.18660(6) 0.83736(6) 0.83110(6)
N6_85 N 0.17917(5) 0.84688(5) 0.81784(5)
C15_85 C 0.16495(6) 0.83904(7) 0.81035(6)
N7_85 N 0.15811(6) 0.82339(5) 0.81502(6)
C16_85 C 0.16015(7) 0.77426(7) 0.85593(8)
H9_85 H 0.1667 0.7675 0.8644
C17_85 C 0.16839(7) 0.78851(7) 0.84772(7)
H10_85 H 0.1804 0.7915 0.8505
C18_85 C 0.15889(6) 0.79844(6) 0.83541(7)
C19_85 C 0.14182(7) 0.79301(7) 0.83102(6)
H11_85 H 0.1352 0.7991 0.8221
C20_85 C 0.13459(6) 0.77860(6) 0.83976(6)
H12_85 H 0.1229 0.7749 0.8366
C21_85 C 0.13491(7) 0.84932(7) 0.77202(7)
H13_85 H 0.1271 0.8430 0.7643
C22_85 C 0.14362(7) 0.83993(7) 0.78498(7)
H14_85 H 0.1416 0.8275 0.7864
C23_85 C 0.15543(6) 0.84888(6) 0.79605(6)
C24_85 C 0.15828(7) 0.86709(7) 0.79304(7)
H15_85 H 0.1668 0.8735 0.7999
C25_85 C 0.14851(7) 0.87549(6) 0.77995(6)
H16_85 H 0.1502 0.8879 0.7782
N21_85 N 0.24927(4) 0.85444(5) 0.89385(5)
C57_85 C 0.25067(7) 0.84044(9) 0.89985(8)
S3_85 S 0.25320(4) 0.81999(3) 0.90745(4)
N22_85 N 0.22903(5) 0.88852(5) 0.89021(5)
C58_85 C 0.22653(6) 0.88502(6) 0.90749(6)
H37_85 H 0.2344 0.8769 0.9132
C59_85 C 0.21312(6) 0.89262(6) 0.91750(6)
H38_85 H 0.2117 0.8896 0.9297
C60_85 C 0.20184(6) 0.90461(6) 0.90944(6)
C61_85 C 0.20457(7) 0.90892(7) 0.89142(7)
H39_85 H 0.1974 0.9176 0.8856
C62_85 C 0.21782(7) 0.90030(7) 0.88250(6)
H40_85 H 0.2193 0.9027 0.8701
C63_85 C 0.16646(6) 0.93473(6) 0.92141(6)
N23_85 N 0.18090(5) 0.92854(5) 0.91316(6)
C64_85 C 0.18660(6) 0.91264(6) 0.91890(6)
N24_85 N 0.17917(5) 0.90312(5) 0.93216(5)
C65_85 C 0.16495(6) 0.91096(7) 0.93965(6)
N25_85 N 0.15811(6) 0.92661(5) 0.93498(6)
C66_85 C 0.16015(7) 0.97574(7) 0.89407(8)
H41_85 H 0.1667 0.9825 0.8856
C67_85 C 0.16839(7) 0.96149(7) 0.90228(7)
H42_85 H 0.1804 0.9585 0.8995
C68_85 C 0.15889(6) 0.95156(6) 0.91459(7)
C69_85 C 0.14182(7) 0.95699(7) 0.91898(6)
H43_85 H 0.1352 0.9509 0.9279
C70_85 C 0.13459(6) 0.97140(6) 0.91024(6)
H44_85 H 0.1229 0.9751 0.9134
C71_85 C 0.13491(7) 0.90068(7) 0.97798(7)
H45_85 H 0.1271 0.9070 0.9857
C72_85 C 0.14362(7) 0.91007(7) 0.96502(7)
H46_85 H 0.1416 0.9225 0.9636
C73_85 C 0.15543(6) 0.90112(6) 0.95395(6)
C74_85 C 0.15828(7) 0.88291(7) 0.95696(7)
H47_85 H 0.1668 0.8765 0.9501
C75_85 C 0.14851(7) 0.87451(6) 0.97005(6)
H48_85 H 0.1502 0.8621 0.9718
N1_40 N 0.42990(7) 0.42949(6) 0.34256(6)
C1_40 C 0.41534(8) 0.43644(8) 0.33483(8)
N2_40 N 0.38956(5) 0.47936(6) 0.36141(6)
C2_40 C 0.40628(8) 0.47506(8) 0.36502(8)
H1_40 H 0.4125 0.4819 0.3737
C3_40 C 0.41528(9) 0.46120(8) 0.35695(9)
H2_40 H 0.4271 0.4583 0.3604
C4_40 C 0.40696(8) 0.45176(8) 0.34395(7)
C5_40 C 0.38936(10) 0.45598(10) 0.33988(10)
H3_40 H 0.3831 0.4495 0.3310
C6_40 C 0.38120(11) 0.46978(10) 0.34903(10)
H4_40 H 0.3691 0.4725 0.3464
N3_86 N 0.39385(5) 0.50073(4) 0.39556(5)
C7_86 C 0.39985(8) 0.49933(7) 0.40956(9)
S1_86 S 0.40745(4) 0.49680(4) 0.43001(3)
N4_86 N 0.39021(5) 0.52097(5) 0.36148(5)
C8_86 C 0.40749(6) 0.52347(6) 0.36498(6)
H5_86 H 0.4132 0.5156 0.3731
C9_86 C 0.41750(6) 0.53688(6) 0.35738(6)
H6_86 H 0.4297 0.5383 0.3604
C10_86 C 0.40944(6) 0.54816(6) 0.34539(6)
C11_86 C 0.39142(7) 0.54543(7) 0.34108(7)
H7_86 H 0.3856 0.5526 0.3324
C12_86 C 0.38250(6) 0.53218(7) 0.34970(7)
H8_86 H 0.3701 0.5307 0.3473
C13_86 C 0.42141(6) 0.58354(6) 0.31527(6)
N5_86 N 0.41316(6) 0.56910(5) 0.32146(5)
C14_86 C 0.41890(6) 0.56340(6) 0.33736(6)
N6_86 N 0.43216(5) 0.57083(5) 0.34688(5)
C15_86 C 0.43965(6) 0.58505(6) 0.33904(7)
N7_86 N 0.43498(6) 0.59189(6) 0.32339(5)
C16_86 C 0.39407(8) 0.58985(7) 0.27426(7)
H9_86 H 0.3856 0.5833 0.2675
C17_86 C 0.40228(7) 0.58161(7) 0.28851(7)
H10_86 H 0.3995 0.5696 0.2915
C18_86 C 0.41459(7) 0.59111(6) 0.29844(6)
C19_86 C 0.41898(6) 0.60818(7) 0.29301(7)
H11_86 H 0.4279 0.6148 0.2991
C20_86 C 0.41024(6) 0.61541(6) 0.27860(6)
H12_86 H 0.4134 0.6271 0.2749
C21_86 C 0.47798(7) 0.61509(7) 0.34932(7)
H13_86 H 0.4857 0.6229 0.3430
C22_86 C 0.46502(7) 0.60638(7) 0.33993(7)
H14_86 H 0.4636 0.6084 0.3275
C23_86 C 0.45395(6) 0.59457(6) 0.34888(6)
C24_86 C 0.45696(7) 0.59172(7) 0.36709(7)
H15_86 H 0.4501 0.5832 0.3735
C25_86 C 0.47005(6) 0.60149(7) 0.37549(6)
H16_86 H 0.4718 0.5998 0.3879
N11_40 N 0.40744(6) 0.42990(7) 0.32051(6)
N12_40 N 0.42949(6) 0.40744(6) 0.32010(7)
C27_40 C 0.41517(8) 0.41534(8) 0.31356(8)
C28_40 C 0.43644(8) 0.41517(8) 0.33466(8)
N16_40 N 0.47936(6) 0.38859(6) 0.36044(5)
N17_40 N 0.38859(6) 0.38956(5) 0.27064(6)
C32_40 C 0.47506(8) 0.38498(8) 0.34372(8)
C33_40 C 0.38498(8) 0.40628(8) 0.27494(8)
H17_40 H 0.4819 0.3763 0.3375
H18_40 H 0.3763 0.4125 0.2681
C37_40 C 0.46120(8) 0.39305(9) 0.33472(9)
C38_40 C 0.39305(9) 0.41528(9) 0.28880(8)
H22_40 H 0.4583 0.3896 0.3229
H23_40 H 0.3896 0.4271 0.2917
C42_40 C 0.45176(8) 0.40605(7) 0.34304(8)
C43_40 C 0.40605(7) 0.40696(8) 0.29824(8)
C47_40 C 0.45598(10) 0.41012(10) 0.36064(10)
C48_40 C 0.41012(10) 0.38936(10) 0.29402(10)
H27_40 H 0.4495 0.4190 0.3669
H28_40 H 0.4190 0.3831 0.3005
C52_40 C 0.46978(10) 0.40097(10) 0.36880(11)
C53_40 C 0.40097(10) 0.38120(11) 0.28022(10)
H32_40 H 0.4725 0.4036 0.3809
H33_40 H 0.4036 0.3691 0.2775
N21_86 N 0.35615(5) 0.50073(4) 0.35444(5)
C57_86 C 0.35015(8) 0.49933(7) 0.34044(9)
S3_86 S 0.34255(4) 0.49680(4) 0.31999(3)
N22_86 N 0.35979(5) 0.52097(5) 0.38852(5)
C58_86 C 0.34251(6) 0.52347(6) 0.38502(6)
H37_86 H 0.3368 0.5156 0.3769
C59_86 C 0.33250(6) 0.53688(6) 0.39262(6)
H38_86 H 0.3203 0.5383 0.3896
C60_86 C 0.34056(6) 0.54816(6) 0.40461(6)
C61_86 C 0.35858(7) 0.54543(7) 0.40892(7)
H39_86 H 0.3644 0.5526 0.4176
C62_86 C 0.36750(6) 0.53218(7) 0.40030(7)
H40_86 H 0.3799 0.5307 0.4027
C63_86 C 0.32859(6) 0.58354(6) 0.43473(6)
N23_86 N 0.33684(6) 0.56910(5) 0.42854(5)
C64_86 C 0.33110(6) 0.56340(6) 0.41264(6)
N24_86 N 0.31784(5) 0.57083(5) 0.40312(5)
C65_86 C 0.31035(6) 0.58505(6) 0.41096(7)
N25_86 N 0.31502(6) 0.59189(6) 0.42661(5)
C66_86 C 0.35593(8) 0.58985(7) 0.47574(7)
H41_86 H 0.3644 0.5833 0.4825
C67_86 C 0.34772(7) 0.58161(7) 0.46149(7)
H42_86 H 0.3505 0.5696 0.4585
C68_86 C 0.33541(7) 0.59111(6) 0.45156(6)
C69_86 C 0.33102(6) 0.60818(7) 0.45699(7)
H43_86 H 0.3221 0.6148 0.4509
C70_86 C 0.33976(6) 0.61541(6) 0.47140(6)
H44_86 H 0.3366 0.6271 0.4751
C71_86 C 0.27202(7) 0.61509(7) 0.40068(7)
H45_86 H 0.2643 0.6229 0.4070
C72_86 C 0.28498(7) 0.60638(7) 0.41007(7)
H46_86 H 0.2864 0.6084 0.4225
C73_86 C 0.29605(6) 0.59457(6) 0.40112(6)
C74_86 C 0.29304(7) 0.59172(7) 0.38291(7)
H47_86 H 0.2999 0.5832 0.3765
C75_86 C 0.27995(6) 0.60149(7) 0.37451(6)
H48_86 H 0.2782 0.5998 0.3621
N3_87 N 0.25073(4) 0.60615(5) 0.64556(5)
C7_87 C 0.24933(7) 0.60015(8) 0.65956(9)
S1_87 S 0.24680(4) 0.59255(4) 0.68001(3)
N4_87 N 0.27097(5) 0.60979(5) 0.61148(5)
C8_87 C 0.27347(6) 0.59251(6) 0.61498(6)
H5_87 H 0.2656 0.5868 0.6231
C9_87 C 0.28688(6) 0.58250(6) 0.60738(6)
H6_87 H 0.2883 0.5703 0.6104
C10_87 C 0.29816(6) 0.59056(6) 0.59539(6)
C11_87 C 0.29543(7) 0.60858(7) 0.59108(7)
H7_87 H 0.3026 0.6144 0.5824
C12_87 C 0.28218(7) 0.61750(6) 0.59970(7)
H8_87 H 0.2807 0.6299 0.5973
C13_87 C 0.33354(6) 0.57859(6) 0.56527(6)
N5_87 N 0.31910(5) 0.58684(6) 0.57146(5)
C14_87 C 0.31340(6) 0.58110(6) 0.58736(6)
N6_87 N 0.32083(5) 0.56784(5) 0.59688(5)
C15_87 C 0.33505(6) 0.56035(6) 0.58904(7)
N7_87 N 0.34189(6) 0.56502(6) 0.57339(5)
C16_87 C 0.33985(7) 0.60593(8) 0.52426(7)
H9_87 H 0.3333 0.6144 0.5175
C17_87 C 0.33161(7) 0.59772(7) 0.53851(7)
H10_87 H 0.3196 0.6005 0.5415
C18_87 C 0.34111(6) 0.58541(7) 0.54844(6)
C19_87 C 0.35818(7) 0.58102(6) 0.54301(7)
H11_87 H 0.3648 0.5721 0.5491
C20_87 C 0.36541(6) 0.58976(6) 0.52860(6)
H12_87 H 0.3771 0.5866 0.5249
C21_87 C 0.36509(7) 0.52202(7) 0.59932(7)
H13_87 H 0.3729 0.5143 0.5930
C22_87 C 0.35638(7) 0.53498(7) 0.58993(7)
H14_87 H 0.3584 0.5364 0.5775
C23_87 C 0.34457(6) 0.54605(6) 0.59888(6)
C24_87 C 0.34172(7) 0.54304(7) 0.61709(7)
H15_87 H 0.3332 0.5499 0.6235
C25_87 C 0.35149(7) 0.52995(6) 0.62549(6)
H16_87 H 0.3498 0.5282 0.6379
N21_87 N 0.25073(4) 0.64385(5) 0.60444(5)
C57_87 C 0.24933(7) 0.64985(8) 0.59044(9)
S3_87 S 0.24680(4) 0.65745(4) 0.56999(3)
N22_87 N 0.27097(5) 0.64021(5) 0.63852(5)
C58_87 C 0.27347(6) 0.65749(6) 0.63502(6)
H37_87 H 0.2656 0.6632 0.6269
C59_87 C 0.28688(6) 0.66750(6) 0.64262(6)
H38_87 H 0.2883 0.6797 0.6396
C60_87 C 0.29816(6) 0.65944(6) 0.65461(6)
C61_87 C 0.29543(7) 0.64142(7) 0.65892(7)
H39_87 H 0.3026 0.6356 0.6676
C62_87 C 0.28218(7) 0.63250(6) 0.65030(7)
H40_87 H 0.2807 0.6201 0.6527
C63_87 C 0.33354(6) 0.67141(6) 0.68473(6)
N23_87 N 0.31910(5) 0.66316(6) 0.67854(5)
C64_87 C 0.31340(6) 0.66890(6) 0.66264(6)
N24_87 N 0.32083(5) 0.68216(5) 0.65312(5)
C65_87 C 0.33505(6) 0.68965(6) 0.66096(7)
N25_87 N 0.34189(6) 0.68498(6) 0.67661(5)
C66_87 C 0.33985(7) 0.64407(8) 0.72574(7)
H41_87 H 0.3333 0.6356 0.7325
C67_87 C 0.33161(7) 0.65228(7) 0.71149(7)
H42_87 H 0.3196 0.6495 0.7085
C68_87 C 0.34111(6) 0.66459(7) 0.70156(6)
C69_87 C 0.35818(7) 0.66898(6) 0.70699(7)
H43_87 H 0.3648 0.6779 0.7009
C70_87 C 0.36541(6) 0.66024(6) 0.72140(6)
H44_87 H 0.3771 0.6634 0.7251
C71_87 C 0.36509(7) 0.72798(7) 0.65068(7)
H45_87 H 0.3729 0.7357 0.6570
C72_87 C 0.35638(7) 0.71502(7) 0.66007(7)
H46_87 H 0.3584 0.7136 0.6725
C73_87 C 0.34457(6) 0.70395(6) 0.65112(6)
C74_87 C 0.34172(7) 0.70696(7) 0.63291(7)
H47_87 H 0.3332 0.7001 0.6265
C75_87 C 0.35149(7) 0.72005(6) 0.62451(6)
H48_87 H 0.3498 0.7218 0.6121
N3_88 N 0.14556(5) 0.75073(4) 0.60615(5)
C7_88 C 0.15956(9) 0.74933(7) 0.60015(8)
S1_88 S 0.18001(3) 0.74680(4) 0.59255(4)
N4_88 N 0.11148(5) 0.77097(5) 0.60979(5)
C8_88 C 0.11498(6) 0.77347(6) 0.59251(6)
H5_88 H 0.1231 0.7656 0.5868
C9_88 C 0.10738(6) 0.78688(6) 0.58250(6)
H6_88 H 0.1104 0.7883 0.5703
C10_88 C 0.09539(6) 0.79816(6) 0.59056(6)
C11_88 C 0.09108(7) 0.79543(7) 0.60858(7)
H7_88 H 0.0824 0.8026 0.6144
C12_88 C 0.09970(7) 0.78218(7) 0.61750(6)
H8_88 H 0.0973 0.7807 0.6299
C13_88 C 0.06527(6) 0.83354(6) 0.57859(6)
N5_88 N 0.07146(5) 0.81910(5) 0.58684(6)
C14_88 C 0.08736(6) 0.81340(6) 0.58110(6)
N6_88 N 0.09688(5) 0.82083(5) 0.56784(5)
C15_88 C 0.08904(7) 0.83505(6) 0.56035(6)
N7_88 N 0.07339(5) 0.84189(6) 0.56502(6)
C16_88 C 0.02426(7) 0.83985(7) 0.60593(8)
H9_88 H 0.0175 0.8333 0.6144
C17_88 C 0.03851(7) 0.83161(7) 0.59772(7)
H10_88 H 0.0415 0.8196 0.6005
C18_88 C 0.04844(6) 0.84111(6) 0.58541(7)
C19_88 C 0.04301(7) 0.85818(7) 0.58102(6)
H11_88 H 0.0491 0.8648 0.5721
C20_88 C 0.02860(6) 0.86541(6) 0.58976(6)
H12_88 H 0.0249 0.8771 0.5866
C21_88 C 0.09932(7) 0.86509(7) 0.52202(7)
H13_88 H 0.0930 0.8729 0.5143
C22_88 C 0.08993(7) 0.85638(7) 0.53498(7)
H14_88 H 0.0775 0.8584 0.5364
C23_88 C 0.09888(6) 0.84457(6) 0.54605(6)
C24_88 C 0.11709(7) 0.84172(7) 0.54304(7)
H15_88 H 0.1235 0.8332 0.5499
C25_88 C 0.12549(6) 0.85149(7) 0.52995(6)
H16_88 H 0.1379 0.8498 0.5282
N21_88 N 0.10444(5) 0.75073(4) 0.64385(5)
C57_88 C 0.09044(9) 0.74933(7) 0.64985(8)
S3_88 S 0.06999(3) 0.74680(4) 0.65745(4)
N22_88 N 0.13852(5) 0.77097(5) 0.64021(5)
C58_88 C 0.13502(6) 0.77347(6) 0.65749(6)
H37_88 H 0.1269 0.7656 0.6632
C59_88 C 0.14262(6) 0.78688(6) 0.66750(6)
H38_88 H 0.1396 0.7883 0.6797
C60_88 C 0.15461(6) 0.79816(6) 0.65944(6)
C61_88 C 0.15892(7) 0.79543(7) 0.64142(7)
H39_88 H 0.1676 0.8026 0.6356
C62_88 C 0.15030(7) 0.78218(7) 0.63250(6)
H40_88 H 0.1527 0.7807 0.6201
C63_88 C 0.18473(6) 0.83354(6) 0.67141(6)
N23_88 N 0.17854(5) 0.81910(5) 0.66316(6)
C64_88 C 0.16264(6) 0.81340(6) 0.66890(6)
N24_88 N 0.15312(5) 0.82083(5) 0.68216(5)
C65_88 C 0.16096(7) 0.83505(6) 0.68965(6)
N25_88 N 0.17661(5) 0.84189(6) 0.68498(6)
C66_88 C 0.22574(7) 0.83985(7) 0.64407(8)
H41_88 H 0.2325 0.8333 0.6356
C67_88 C 0.21149(7) 0.83161(7) 0.65228(7)
H42_88 H 0.2085 0.8196 0.6495
C68_88 C 0.20156(6) 0.84111(6) 0.66459(7)
C69_88 C 0.20699(7) 0.85818(7) 0.66898(6)
H43_88 H 0.2009 0.8648 0.6779
C70_88 C 0.22140(6) 0.86541(6) 0.66024(6)
H44_88 H 0.2251 0.8771 0.6634
C71_88 C 0.15068(7) 0.86509(7) 0.72798(7)
H45_88 H 0.1570 0.8729 0.7357
C72_88 C 0.16007(7) 0.85638(7) 0.71502(7)
H46_88 H 0.1725 0.8584 0.7136
C73_88 C 0.15112(6) 0.84457(6) 0.70395(6)
C74_88 C 0.13291(7) 0.84172(7) 0.70696(7)
H47_88 H 0.1265 0.8332 0.7001
C75_88 C 0.12451(6) 0.85149(7) 0.72005(6)
H48_88 H 0.1121 0.8498 0.7218
N3_89 N 0.50073(4) 0.35444(5) 0.35615(5)
C7_89 C 0.49933(7) 0.34044(9) 0.35015(8)
S1_89 S 0.49680(4) 0.31999(3) 0.34255(4)
N4_89 N 0.52097(5) 0.38852(5) 0.35979(5)
C8_89 C 0.52347(6) 0.38502(6) 0.34251(6)
H5_89 H 0.5156 0.3769 0.3368
C9_89 C 0.53688(6) 0.39262(6) 0.33250(6)
H6_89 H 0.5383 0.3896 0.3203
C10_89 C 0.54816(6) 0.40461(6) 0.34056(6)
C11_89 C 0.54543(7) 0.40892(7) 0.35858(7)
H7_89 H 0.5526 0.4176 0.3644
C12_89 C 0.53218(7) 0.40030(7) 0.36750(6)
H8_89 H 0.5307 0.4027 0.3799
C13_89 C 0.58354(6) 0.43473(6) 0.32859(6)
N5_89 N 0.56910(5) 0.42854(5) 0.33684(6)
C14_89 C 0.56340(6) 0.41264(6) 0.33110(6)
N6_89 N 0.57083(5) 0.40312(5) 0.31784(5)
C15_89 C 0.58505(6) 0.41096(7) 0.31035(6)
N7_89 N 0.59189(6) 0.42661(5) 0.31502(6)
C16_89 C 0.58985(7) 0.47574(7) 0.35593(8)
H9_89 H 0.5833 0.4825 0.3644
C17_89 C 0.58161(7) 0.46149(7) 0.34772(7)
H10_89 H 0.5696 0.4585 0.3505
C18_89 C 0.59111(6) 0.45156(6) 0.33541(7)
C19_89 C 0.60818(7) 0.45699(7) 0.33102(6)
H11_89 H 0.6148 0.4509 0.3221
C20_89 C 0.61541(6) 0.47140(6) 0.33976(6)
H12_89 H 0.6271 0.4751 0.3366
C21_89 C 0.61509(7) 0.40068(7) 0.27202(7)
H13_89 H 0.6229 0.4070 0.2643
C22_89 C 0.60638(7) 0.41007(7) 0.28498(7)
H14_89 H 0.6084 0.4225 0.2864
C23_89 C 0.59457(6) 0.40112(6) 0.29605(6)
C24_89 C 0.59172(7) 0.38291(7) 0.29304(7)
H15_89 H 0.5832 0.3765 0.2999
C25_89 C 0.60149(7) 0.37451(6) 0.27995(6)
H16_89 H 0.5998 0.3621 0.2782
N21_89 N 0.50073(4) 0.39556(5) 0.39385(5)
C57_89 C 0.49933(7) 0.40956(9) 0.39985(8)
S3_89 S 0.49680(4) 0.43001(3) 0.40745(4)
N22_89 N 0.52097(5) 0.36148(5) 0.39021(5)
C58_89 C 0.52347(6) 0.36498(6) 0.40749(6)
H37_89 H 0.5156 0.3731 0.4132
C59_89 C 0.53688(6) 0.35738(6) 0.41750(6)
H38_89 H 0.5383 0.3604 0.4297
C60_89 C 0.54816(6) 0.34539(6) 0.40944(6)
C61_89 C 0.54543(7) 0.34108(7) 0.39142(7)
H39_89 H 0.5526 0.3324 0.3856
C62_89 C 0.53218(7) 0.34970(7) 0.38250(6)
H40_89 H 0.5307 0.3473 0.3701
C63_89 C 0.58354(6) 0.31527(6) 0.42141(6)
N23_89 N 0.56910(5) 0.32146(5) 0.41316(6)
C64_89 C 0.56340(6) 0.33736(6) 0.41890(6)
N24_89 N 0.57083(5) 0.34688(5) 0.43216(5)
C65_89 C 0.58505(6) 0.33904(7) 0.43965(6)
N25_89 N 0.59189(6) 0.32339(5) 0.43498(6)
C66_89 C 0.58985(7) 0.27426(7) 0.39407(8)
H41_89 H 0.5833 0.2675 0.3856
C67_89 C 0.58161(7) 0.28851(7) 0.40228(7)
H42_89 H 0.5696 0.2915 0.3995
C68_89 C 0.59111(6) 0.29844(6) 0.41459(7)
C69_89 C 0.60818(7) 0.29301(7) 0.41898(6)
H43_89 H 0.6148 0.2991 0.4279
C70_89 C 0.61541(6) 0.27860(6) 0.41024(6)
H44_89 H 0.6271 0.2749 0.4134
C71_89 C 0.61509(7) 0.34932(7) 0.47798(7)
H45_89 H 0.6229 0.3430 0.4857
C72_89 C 0.60638(7) 0.33993(7) 0.46502(7)
H46_89 H 0.6084 0.3275 0.4636
C73_89 C 0.59457(6) 0.34888(6) 0.45395(6)
C74_89 C 0.59172(7) 0.36709(7) 0.45696(7)
H47_89 H 0.5832 0.3735 0.4501
C75_89 C 0.60149(7) 0.37549(6) 0.47005(6)
H48_89 H 0.5998 0.3879 0.4718
N3_90 N 0.89556(5) 0.35615(5) 0.74927(4)
C7_90 C 0.90956(9) 0.35015(8) 0.75067(7)
S1_90 S 0.93001(3) 0.34255(4) 0.75320(4)
N4_90 N 0.86148(5) 0.35979(5) 0.72903(5)
C8_90 C 0.86498(6) 0.34251(6) 0.72653(6)
H5_90 H 0.8731 0.3368 0.7344
C9_90 C 0.85738(6) 0.33250(6) 0.71312(6)
H6_90 H 0.8604 0.3203 0.7117
C10_90 C 0.84539(6) 0.34056(6) 0.70184(6)
C11_90 C 0.84108(7) 0.35858(7) 0.70457(7)
H7_90 H 0.8324 0.3644 0.6974
C12_90 C 0.84970(7) 0.36750(6) 0.71782(7)
H8_90 H 0.8473 0.3799 0.7193
C13_90 C 0.81527(6) 0.32859(6) 0.66646(6)
N5_90 N 0.82146(5) 0.33684(6) 0.68090(5)
C14_90 C 0.83736(6) 0.33110(6) 0.68660(6)
N6_90 N 0.84688(5) 0.31784(5) 0.67917(5)
C15_90 C 0.83904(7) 0.31035(6) 0.66495(6)
N7_90 N 0.82339(5) 0.31502(6) 0.65811(6)
C16_90 C 0.77426(7) 0.35593(8) 0.66015(7)
H9_90 H 0.7675 0.3644 0.6667
C17_90 C 0.78851(7) 0.34772(7) 0.66839(7)
H10_90 H 0.7915 0.3505 0.6804
C18_90 C 0.79844(6) 0.33541(7) 0.65889(6)
C19_90 C 0.79301(7) 0.33102(6) 0.64182(7)
H11_90 H 0.7991 0.3221 0.6352
C20_90 C 0.77860(6) 0.33976(6) 0.63459(6)
H12_90 H 0.7749 0.3366 0.6229
C21_90 C 0.84932(7) 0.27202(7) 0.63491(7)
H13_90 H 0.8430 0.2643 0.6271
C22_90 C 0.83993(7) 0.28498(7) 0.64362(7)
H14_90 H 0.8275 0.2864 0.6416
C23_90 C 0.84888(6) 0.29605(6) 0.65543(6)
C24_90 C 0.86709(7) 0.29304(7) 0.65828(7)
H15_90 H 0.8735 0.2999 0.6668
C25_90 C 0.87549(6) 0.27995(6) 0.64851(7)
H16_90 H 0.8879 0.2782 0.6502
N21_90 N 0.85444(5) 0.39385(5) 0.74927(4)
C57_90 C 0.84044(9) 0.39985(8) 0.75067(7)
S3_90 S 0.81999(3) 0.40745(4) 0.75320(4)
N22_90 N 0.88852(5) 0.39021(5) 0.72903(5)
C58_90 C 0.88502(6) 0.40749(6) 0.72653(6)
H37_90 H 0.8769 0.4132 0.7344
C59_90 C 0.89262(6) 0.41750(6) 0.71312(6)
H38_90 H 0.8896 0.4297 0.7117
C60_90 C 0.90461(6) 0.40944(6) 0.70184(6)
C61_90 C 0.90892(7) 0.39142(7) 0.70457(7)
H39_90 H 0.9176 0.3856 0.6974
C62_90 C 0.90030(7) 0.38250(6) 0.71782(7)
H40_90 H 0.9027 0.3701 0.7193
C63_90 C 0.93473(6) 0.42141(6) 0.66646(6)
N23_90 N 0.92854(5) 0.41316(6) 0.68090(5)
C64_90 C 0.91264(6) 0.41890(6) 0.68660(6)
N24_90 N 0.90312(5) 0.43216(5) 0.67917(5)
C65_90 C 0.91096(7) 0.43965(6) 0.66495(6)
N25_90 N 0.92661(5) 0.43498(6) 0.65811(6)
C66_90 C 0.97574(7) 0.39407(8) 0.66015(7)
H41_90 H 0.9825 0.3856 0.6667
C67_90 C 0.96149(7) 0.40228(7) 0.66839(7)
H42_90 H 0.9585 0.3995 0.6804
C68_90 C 0.95156(6) 0.41459(7) 0.65889(6)
C69_90 C 0.95699(7) 0.41898(6) 0.64182(7)
H43_90 H 0.9509 0.4279 0.6352
C70_90 C 0.97140(6) 0.41024(6) 0.63459(6)
H44_90 H 0.9751 0.4134 0.6229
C71_90 C 0.90068(7) 0.47798(7) 0.63491(7)
H45_90 H 0.9070 0.4857 0.6271
C72_90 C 0.91007(7) 0.46502(7) 0.64362(7)
H46_90 H 0.9225 0.4636 0.6416
C73_90 C 0.90112(6) 0.45395(6) 0.65543(6)
C74_90 C 0.88291(7) 0.45696(7) 0.65828(7)
H47_90 H 0.8765 0.4501 0.6668
C75_90 C 0.87451(6) 0.47005(6) 0.64851(7)
H48_90 H 0.8621 0.4718 0.6502
N3_91 N 0.50073(4) 0.89556(5) 0.89385(5)
C7_91 C 0.49933(7) 0.90956(9) 0.89985(8)
S1_91 S 0.49680(4) 0.93001(3) 0.90745(4)
N4_91 N 0.52097(5) 0.86148(5) 0.89021(5)
C8_91 C 0.52347(6) 0.86498(6) 0.90749(6)
H5_91 H 0.5156 0.8731 0.9132
C9_91 C 0.53688(6) 0.85738(6) 0.91750(6)
H6_91 H 0.5383 0.8604 0.9297
C10_91 C 0.54816(6) 0.84539(6) 0.90944(6)
C11_91 C 0.54543(7) 0.84108(7) 0.89142(7)
H7_91 H 0.5526 0.8324 0.8856
C12_91 C 0.53218(7) 0.84970(7) 0.88250(6)
H8_91 H 0.5307 0.8473 0.8701
C13_91 C 0.58354(6) 0.81527(6) 0.92141(6)
N5_91 N 0.56910(5) 0.82146(5) 0.91316(6)
C14_91 C 0.56340(6) 0.83736(6) 0.91890(6)
N6_91 N 0.57083(5) 0.84688(5) 0.93216(5)
C15_91 C 0.58505(6) 0.83904(7) 0.93965(6)
N7_91 N 0.59189(6) 0.82339(5) 0.93498(6)
C16_91 C 0.58985(7) 0.77426(7) 0.89407(8)
H9_91 H 0.5833 0.7675 0.8856
C17_91 C 0.58161(7) 0.78851(7) 0.90228(7)
H10_91 H 0.5696 0.7915 0.8995
C18_91 C 0.59111(6) 0.79844(6) 0.91459(7)
C19_91 C 0.60818(7) 0.79301(7) 0.91898(6)
H11_91 H 0.6148 0.7991 0.9279
C20_91 C 0.61541(6) 0.77860(6) 0.91024(6)
H12_91 H 0.6271 0.7749 0.9134
C21_91 C 0.61509(7) 0.84932(7) 0.97798(7)
H13_91 H 0.6229 0.8430 0.9857
C22_91 C 0.60638(7) 0.83993(7) 0.96502(7)
H14_91 H 0.6084 0.8275 0.9636
C23_91 C 0.59457(6) 0.84888(6) 0.95395(6)
C24_91 C 0.59172(7) 0.86709(7) 0.95696(7)
H15_91 H 0.5832 0.8735 0.9501
C25_91 C 0.60149(7) 0.87549(6) 0.97005(6)
H16_91 H 0.5998 0.8879 0.9718
N21_91 N 0.50073(4) 0.85444(5) 0.85615(5)
C57_91 C 0.49933(7) 0.84044(9) 0.85015(8)
S3_91 S 0.49680(4) 0.81999(3) 0.84255(4)
N22_91 N 0.52097(5) 0.88852(5) 0.85979(5)
C58_91 C 0.52347(6) 0.88502(6) 0.84251(6)
H37_91 H 0.5156 0.8769 0.8368
C59_91 C 0.53688(6) 0.89262(6) 0.83250(6)
H38_91 H 0.5383 0.8896 0.8203
C60_91 C 0.54816(6) 0.90461(6) 0.84056(6)
C61_91 C 0.54543(7) 0.90892(7) 0.85858(7)
H39_91 H 0.5526 0.9176 0.8644
C62_91 C 0.53218(7) 0.90030(7) 0.86750(6)
H40_91 H 0.5307 0.9027 0.8799
C63_91 C 0.58354(6) 0.93473(6) 0.82859(6)
N23_91 N 0.56910(5) 0.92854(5) 0.83684(6)
C64_91 C 0.56340(6) 0.91264(6) 0.83110(6)
N24_91 N 0.57083(5) 0.90312(5) 0.81784(5)
C65_91 C 0.58505(6) 0.91096(7) 0.81035(6)
N25_91 N 0.59189(6) 0.92661(5) 0.81502(6)
C66_91 C 0.58985(7) 0.97574(7) 0.85593(8)
H41_91 H 0.5833 0.9825 0.8644
C67_91 C 0.58161(7) 0.96149(7) 0.84772(7)
H42_91 H 0.5696 0.9585 0.8505
C68_91 C 0.59111(6) 0.95156(6) 0.83541(7)
C69_91 C 0.60818(7) 0.95699(7) 0.83102(6)
H43_91 H 0.6148 0.9509 0.8221
C70_91 C 0.61541(6) 0.97140(6) 0.83976(6)
H44_91 H 0.6271 0.9751 0.8366
C71_91 C 0.61509(7) 0.90068(7) 0.77202(7)
H45_91 H 0.6229 0.9070 0.7643
C72_91 C 0.60638(7) 0.91007(7) 0.78498(7)
H46_91 H 0.6084 0.9225 0.7864
C73_91 C 0.59457(6) 0.90112(6) 0.79605(6)
C74_91 C 0.59172(7) 0.88291(7) 0.79304(7)
H47_91 H 0.5832 0.8765 0.7999
C75_91 C 0.60149(7) 0.87451(6) 0.77995(6)
H48_91 H 0.5998 0.8621 0.7782
N3_92 N 0.35444(5) 0.89385(5) 0.74927(4)
C7_92 C 0.34044(9) 0.89985(8) 0.75067(7)
S1_92 S 0.31999(3) 0.90745(4) 0.75320(4)
N4_92 N 0.38852(5) 0.89021(5) 0.72903(5)
C8_92 C 0.38502(6) 0.90749(6) 0.72653(6)
H5_92 H 0.3769 0.9132 0.7344
C9_92 C 0.39262(6) 0.91750(6) 0.71312(6)
H6_92 H 0.3896 0.9297 0.7117
C10_92 C 0.40461(6) 0.90944(6) 0.70184(6)
C11_92 C 0.40892(7) 0.89142(7) 0.70457(7)
H7_92 H 0.4176 0.8856 0.6974
C12_92 C 0.40030(7) 0.88250(6) 0.71782(7)
H8_92 H 0.4027 0.8701 0.7193
C13_92 C 0.43473(6) 0.92141(6) 0.66646(6)
N5_92 N 0.42854(5) 0.91316(6) 0.68090(5)
C14_92 C 0.41264(6) 0.91890(6) 0.68660(6)
N6_92 N 0.40312(5) 0.93216(5) 0.67917(5)
C15_92 C 0.41096(7) 0.93965(6) 0.66495(6)
N7_92 N 0.42661(5) 0.93498(6) 0.65811(6)
C16_92 C 0.47574(7) 0.89407(8) 0.66015(7)
H9_92 H 0.4825 0.8856 0.6667
C17_92 C 0.46149(7) 0.90228(7) 0.66839(7)
H10_92 H 0.4585 0.8995 0.6804
C18_92 C 0.45156(6) 0.91459(7) 0.65889(6)
C19_92 C 0.45699(7) 0.91898(6) 0.64182(7)
H11_92 H 0.4509 0.9279 0.6352
C20_92 C 0.47140(6) 0.91024(6) 0.63459(6)
H12_92 H 0.4751 0.9134 0.6229
C21_92 C 0.40068(7) 0.97798(7) 0.63491(7)
H13_92 H 0.4070 0.9857 0.6271
C22_92 C 0.41007(7) 0.96502(7) 0.64362(7)
H14_92 H 0.4225 0.9636 0.6416
C23_92 C 0.40112(6) 0.95395(6) 0.65543(6)
C24_92 C 0.38291(7) 0.95696(7) 0.65828(7)
H15_92 H 0.3765 0.9501 0.6668
C25_92 C 0.37451(6) 0.97005(6) 0.64851(7)
H16_92 H 0.3621 0.9718 0.6502
N21_92 N 0.39556(5) 0.85615(5) 0.74927(4)
C57_92 C 0.40956(9) 0.85015(8) 0.75067(7)
S3_92 S 0.43001(3) 0.84255(4) 0.75320(4)
N22_92 N 0.36148(5) 0.85979(5) 0.72903(5)
C58_92 C 0.36498(6) 0.84251(6) 0.72653(6)
H37_92 H 0.3731 0.8368 0.7344
C59_92 C 0.35738(6) 0.83250(6) 0.71312(6)
H38_92 H 0.3604 0.8203 0.7117
C60_92 C 0.34539(6) 0.84056(6) 0.70184(6)
C61_92 C 0.34108(7) 0.85858(7) 0.70457(7)
H39_92 H 0.3324 0.8644 0.6974
C62_92 C 0.34970(7) 0.86750(6) 0.71782(7)
H40_92 H 0.3473 0.8799 0.7193
C63_92 C 0.31527(6) 0.82859(6) 0.66646(6)
N23_92 N 0.32146(5) 0.83684(6) 0.68090(5)
C64_92 C 0.33736(6) 0.83110(6) 0.68660(6)
N24_92 N 0.34688(5) 0.81784(5) 0.67917(5)
C65_92 C 0.33904(7) 0.81035(6) 0.66495(6)
N25_92 N 0.32339(5) 0.81502(6) 0.65811(6)
C66_92 C 0.27426(7) 0.85593(8) 0.66015(7)
H41_92 H 0.2675 0.8644 0.6667
C67_92 C 0.28851(7) 0.84772(7) 0.66839(7)
H42_92 H 0.2915 0.8505 0.6804
C68_92 C 0.29844(6) 0.83541(7) 0.65889(6)
C69_92 C 0.29301(7) 0.83102(6) 0.64182(7)
H43_92 H 0.2991 0.8221 0.6352
C70_92 C 0.27860(6) 0.83976(6) 0.63459(6)
H44_92 H 0.2749 0.8366 0.6229
C71_92 C 0.34932(7) 0.77202(7) 0.63491(7)
H45_92 H 0.3430 0.7643 0.6271
C72_92 C 0.33993(7) 0.78498(7) 0.64362(7)
H46_92 H 0.3275 0.7864 0.6416
C73_92 C 0.34888(6) 0.79605(6) 0.65543(6)
C74_92 C 0.36709(7) 0.79304(7) 0.65828(7)
H47_92 H 0.3735 0.7999 0.6668
C75_92 C 0.37549(6) 0.77995(6) 0.64851(7)
H48_92 H 0.3879 0.7782 0.6502
N3_93 N 0.89556(5) 0.85615(5) 0.24927(4)
C7_93 C 0.90956(9) 0.85015(8) 0.25067(7)
S1_93 S 0.93001(3) 0.84255(4) 0.25320(4)
N4_93 N 0.86148(5) 0.85979(5) 0.22903(5)
C8_93 C 0.86498(6) 0.84251(6) 0.22653(6)
H5_93 H 0.8731 0.8368 0.2344
C9_93 C 0.85738(6) 0.83250(6) 0.21312(6)
H6_93 H 0.8604 0.8203 0.2117
C10_93 C 0.84539(6) 0.84056(6) 0.20184(6)
C11_93 C 0.84108(7) 0.85858(7) 0.20457(7)
H7_93 H 0.8324 0.8644 0.1974
C12_93 C 0.84970(7) 0.86750(6) 0.21782(7)
H8_93 H 0.8473 0.8799 0.2193
C13_93 C 0.81527(6) 0.82859(6) 0.16646(6)
N5_93 N 0.82146(5) 0.83684(6) 0.18090(5)
C14_93 C 0.83736(6) 0.83110(6) 0.18660(6)
N6_93 N 0.84688(5) 0.81784(5) 0.17917(5)
C15_93 C 0.83904(7) 0.81035(6) 0.16495(6)
N7_93 N 0.82339(5) 0.81502(6) 0.15811(6)
C16_93 C 0.77426(7) 0.85593(8) 0.16015(7)
H9_93 H 0.7675 0.8644 0.1667
C17_93 C 0.78851(7) 0.84772(7) 0.16839(7)
H10_93 H 0.7915 0.8505 0.1804
C18_93 C 0.79844(6) 0.83541(7) 0.15889(6)
C19_93 C 0.79301(7) 0.83102(6) 0.14182(7)
H11_93 H 0.7991 0.8221 0.1352
C20_93 C 0.77860(6) 0.83976(6) 0.13459(6)
H12_93 H 0.7749 0.8366 0.1229
C21_93 C 0.84932(7) 0.77202(7) 0.13491(7)
H13_93 H 0.8430 0.7643 0.1271
C22_93 C 0.83993(7) 0.78498(7) 0.14362(7)
H14_93 H 0.8275 0.7864 0.1416
C23_93 C 0.84888(6) 0.79605(6) 0.15543(6)
C24_93 C 0.86709(7) 0.79304(7) 0.15828(7)
H15_93 H 0.8735 0.7999 0.1668
C25_93 C 0.87549(6) 0.77995(6) 0.14851(7)
H16_93 H 0.8879 0.7782 0.1502
N21_93 N 0.85444(5) 0.89385(5) 0.24927(4)
C57_93 C 0.84044(9) 0.89985(8) 0.25067(7)
S3_93 S 0.81999(3) 0.90745(4) 0.25320(4)
N22_93 N 0.88852(5) 0.89021(5) 0.22903(5)
C58_93 C 0.88502(6) 0.90749(6) 0.22653(6)
H37_93 H 0.8769 0.9132 0.2344
C59_93 C 0.89262(6) 0.91750(6) 0.21312(6)
H38_93 H 0.8896 0.9297 0.2117
C60_93 C 0.90461(6) 0.90944(6) 0.20184(6)
C61_93 C 0.90892(7) 0.89142(7) 0.20457(7)
H39_93 H 0.9176 0.8856 0.1974
C62_93 C 0.90030(7) 0.88250(6) 0.21782(7)
H40_93 H 0.9027 0.8701 0.2193
C63_93 C 0.93473(6) 0.92141(6) 0.16646(6)
N23_93 N 0.92854(5) 0.91316(6) 0.18090(5)
C64_93 C 0.91264(6) 0.91890(6) 0.18660(6)
N24_93 N 0.90312(5) 0.93216(5) 0.17917(5)
C65_93 C 0.91096(7) 0.93965(6) 0.16495(6)
N25_93 N 0.92661(5) 0.93498(6) 0.15811(6)
C66_93 C 0.97574(7) 0.89407(8) 0.16015(7)
H41_93 H 0.9825 0.8856 0.1667
C67_93 C 0.96149(7) 0.90228(7) 0.16839(7)
H42_93 H 0.9585 0.8995 0.1804
C68_93 C 0.95156(6) 0.91459(7) 0.15889(6)
C69_93 C 0.95699(7) 0.91898(6) 0.14182(7)
H43_93 H 0.9509 0.9279 0.1352
C70_93 C 0.97140(6) 0.91024(6) 0.13459(6)
H44_93 H 0.9751 0.9134 0.1229
C71_93 C 0.90068(7) 0.97798(7) 0.13491(7)
H45_93 H 0.9070 0.9857 0.1271
C72_93 C 0.91007(7) 0.96502(7) 0.14362(7)
H46_93 H 0.9225 0.9636 0.1416
C73_93 C 0.90112(6) 0.95395(6) 0.15543(6)
C74_93 C 0.88291(7) 0.95696(7) 0.15828(7)
H47_93 H 0.8765 0.9501 0.1668
C75_93 C 0.87451(6) 0.97005(6) 0.14851(7)
H48_93 H 0.8621 0.9718 0.1502
N3_94 N 0.35444(5) 0.39385(5) 0.24927(4)
C7_94 C 0.34044(9) 0.39985(8) 0.25067(7)
S1_94 S 0.31999(3) 0.40745(4) 0.25320(4)
N4_94 N 0.38852(5) 0.39021(5) 0.22903(5)
C8_94 C 0.38502(6) 0.40749(6) 0.22653(6)
H5_94 H 0.3769 0.4132 0.2344
C9_94 C 0.39262(6) 0.41750(6) 0.21312(6)
H6_94 H 0.3896 0.4297 0.2117
C10_94 C 0.40461(6) 0.40944(6) 0.20184(6)
C11_94 C 0.40892(7) 0.39142(7) 0.20457(7)
H7_94 H 0.4176 0.3856 0.1974
C12_94 C 0.40030(7) 0.38250(6) 0.21782(7)
H8_94 H 0.4027 0.3701 0.2193
C13_94 C 0.43473(6) 0.42141(6) 0.16646(6)
N5_94 N 0.42854(5) 0.41316(6) 0.18090(5)
C14_94 C 0.41264(6) 0.41890(6) 0.18660(6)
N6_94 N 0.40312(5) 0.43216(5) 0.17917(5)
C15_94 C 0.41096(7) 0.43965(6) 0.16495(6)
N7_94 N 0.42661(5) 0.43498(6) 0.15811(6)
C16_94 C 0.47574(7) 0.39407(8) 0.16015(7)
H9_94 H 0.4825 0.3856 0.1667
C17_94 C 0.46149(7) 0.40228(7) 0.16839(7)
H10_94 H 0.4585 0.3995 0.1804
C18_94 C 0.45156(6) 0.41459(7) 0.15889(6)
C19_94 C 0.45699(7) 0.41898(6) 0.14182(7)
H11_94 H 0.4509 0.4279 0.1352
C20_94 C 0.47140(6) 0.41024(6) 0.13459(6)
H12_94 H 0.4751 0.4134 0.1229
C21_94 C 0.40068(7) 0.47798(7) 0.13491(7)
H13_94 H 0.4070 0.4857 0.1271
C22_94 C 0.41007(7) 0.46502(7) 0.14362(7)
H14_94 H 0.4225 0.4636 0.1416
C23_94 C 0.40112(6) 0.45395(6) 0.15543(6)
C24_94 C 0.38291(7) 0.45696(7) 0.15828(7)
H15_94 H 0.3765 0.4501 0.1668
C25_94 C 0.37451(6) 0.47005(6) 0.14851(7)
H16_94 H 0.3621 0.4718 0.1502
N21_94 N 0.39556(5) 0.35615(5) 0.24927(4)
C57_94 C 0.40956(9) 0.35015(8) 0.25067(7)
S3_94 S 0.43001(3) 0.34255(4) 0.25320(4)
N22_94 N 0.36148(5) 0.35979(5) 0.22903(5)
C58_94 C 0.36498(6) 0.34251(6) 0.22653(6)
H37_94 H 0.3731 0.3368 0.2344
C59_94 C 0.35738(6) 0.33250(6) 0.21312(6)
H38_94 H 0.3604 0.3203 0.2117
C60_94 C 0.34539(6) 0.34056(6) 0.20184(6)
C61_94 C 0.34108(7) 0.35858(7) 0.20457(7)
H39_94 H 0.3324 0.3644 0.1974
C62_94 C 0.34970(7) 0.36750(6) 0.21782(7)
H40_94 H 0.3473 0.3799 0.2193
C63_94 C 0.31527(6) 0.32859(6) 0.16646(6)
N23_94 N 0.32146(5) 0.33684(6) 0.18090(5)
C64_94 C 0.33736(6) 0.33110(6) 0.18660(6)
N24_94 N 0.34688(5) 0.31784(5) 0.17917(5)
C65_94 C 0.33904(7) 0.31035(6) 0.16495(6)
N25_94 N 0.32339(5) 0.31502(6) 0.15811(6)
C66_94 C 0.27426(7) 0.35593(8) 0.16015(7)
H41_94 H 0.2675 0.3644 0.1667
C67_94 C 0.28851(7) 0.34772(7) 0.16839(7)
H42_94 H 0.2915 0.3505 0.1804
C68_94 C 0.29844(6) 0.33541(7) 0.15889(6)
C69_94 C 0.29301(7) 0.33102(6) 0.14182(7)
H43_94 H 0.2991 0.3221 0.1352
C70_94 C 0.27860(6) 0.33976(6) 0.13459(6)
H44_94 H 0.2749 0.3366 0.1229
C71_94 C 0.34932(7) 0.27202(7) 0.13491(7)
H45_94 H 0.3430 0.2643 0.1271
C72_94 C 0.33993(7) 0.28498(7) 0.14362(7)
H46_94 H 0.3275 0.2864 0.1416
C73_94 C 0.34888(6) 0.29605(6) 0.15543(6)
C74_94 C 0.36709(7) 0.29304(7) 0.15828(7)
H47_94 H 0.3735 0.2999 0.1668
C75_94 C 0.37549(6) 0.27995(6) 0.14851(7)
H48_94 H 0.3879 0.2782 0.1502
N3_95 N 0.00073(4) 0.35444(5) 0.85615(5)
N4_95 N 0.02097(5) 0.38852(5) 0.85979(5)
C8_95 C 0.02347(6) 0.38502(6) 0.84251(6)
H5_95 H 0.0156 0.3769 0.8368
C9_95 C 0.03688(6) 0.39262(6) 0.83250(6)
H6_95 H 0.0383 0.3896 0.8203
C10_95 C 0.04816(6) 0.40461(6) 0.84056(6)
C11_95 C 0.04543(7) 0.40892(7) 0.85858(7)
H7_95 H 0.0526 0.4176 0.8644
C12_95 C 0.03218(7) 0.40030(7) 0.86750(6)
H8_95 H 0.0307 0.4027 0.8799
C13_95 C 0.08354(6) 0.43473(6) 0.82859(6)
N5_95 N 0.06910(5) 0.42854(5) 0.83684(6)
C14_95 C 0.06340(6) 0.41264(6) 0.83110(6)
N6_95 N 0.07083(5) 0.40312(5) 0.81784(5)
C15_95 C 0.08505(6) 0.41096(7) 0.81035(6)
N7_95 N 0.09189(6) 0.42661(5) 0.81502(6)
C16_95 C 0.08985(7) 0.47574(7) 0.85593(8)
H9_95 H 0.0833 0.4825 0.8644
C17_95 C 0.08161(7) 0.46149(7) 0.84772(7)
H10_95 H 0.0696 0.4585 0.8505
C18_95 C 0.09111(6) 0.45156(6) 0.83541(7)
C19_95 C 0.10818(7) 0.45699(7) 0.83102(6)
H11_95 H 0.1148 0.4509 0.8221
C20_95 C 0.11541(6) 0.47140(6) 0.83976(6)
H12_95 H 0.1271 0.4751 0.8366
C21_95 C 0.11509(7) 0.40068(7) 0.77202(7)
H13_95 H 0.1229 0.4070 0.7643
C22_95 C 0.10638(7) 0.41007(7) 0.78498(7)
H14_95 H 0.1084 0.4225 0.7864
C23_95 C 0.09457(6) 0.40112(6) 0.79605(6)
C24_95 C 0.09172(7) 0.38291(7) 0.79304(7)
H15_95 H 0.0832 0.3765 0.7999
C25_95 C 0.10149(7) 0.37451(6) 0.77995(6)
H16_95 H 0.0998 0.3621 0.7782
N21_95 N 0.00073(4) 0.39556(5) 0.89385(5)
N22_95 N 0.02097(5) 0.36148(5) 0.89021(5)
C58_95 C 0.02347(6) 0.36498(6) 0.90749(6)
H37_95 H 0.0156 0.3731 0.9132
C59_95 C 0.03688(6) 0.35738(6) 0.91750(6)
H38_95 H 0.0383 0.3604 0.9297
C60_95 C 0.04816(6) 0.34539(6) 0.90944(6)
C61_95 C 0.04543(7) 0.34108(7) 0.89142(7)
H39_95 H 0.0526 0.3324 0.8856
C62_95 C 0.03218(7) 0.34970(7) 0.88250(6)
H40_95 H 0.0307 0.3473 0.8701
C63_95 C 0.08354(6) 0.31527(6) 0.92141(6)
N23_95 N 0.06910(5) 0.32146(5) 0.91316(6)
C64_95 C 0.06340(6) 0.33736(6) 0.91890(6)
N24_95 N 0.07083(5) 0.34688(5) 0.93216(5)
C65_95 C 0.08505(6) 0.33904(7) 0.93965(6)
N25_95 N 0.09189(6) 0.32339(5) 0.93498(6)
C66_95 C 0.08985(7) 0.27426(7) 0.89407(8)
H41_95 H 0.0833 0.2675 0.8856
C67_95 C 0.08161(7) 0.28851(7) 0.90228(7)
H42_95 H 0.0696 0.2915 0.8995
C68_95 C 0.09111(6) 0.29844(6) 0.91459(7)
C69_95 C 0.10818(7) 0.29301(7) 0.91898(6)
H43_95 H 0.1148 0.2991 0.9279
C70_95 C 0.11541(6) 0.27860(6) 0.91024(6)
H44_95 H 0.1271 0.2749 0.9134
C71_95 C 0.11509(7) 0.34932(7) 0.97798(7)
H45_95 H 0.1229 0.3430 0.9857
C72_95 C 0.10638(7) 0.33993(7) 0.96502(7)
H46_95 H 0.1084 0.3275 0.9636
C73_95 C 0.09457(6) 0.34888(6) 0.95395(6)
C74_95 C 0.09172(7) 0.36709(7) 0.95696(7)
H47_95 H 0.0832 0.3735 0.9501
C75_95 C 0.10149(7) 0.37549(6) 0.97005(6)
H48_95 H 0.0998 0.3879 0.9718
C7_95 C 0.99933(7) 0.34044(9) 0.85015(8)
S1_95 S 0.99680(4) 0.31999(3) 0.84255(4)
C57_95 C 0.99933(7) 0.40956(9) 0.89985(8)
S3_95 S 0.99680(4) 0.43001(3) 0.90745(4)
N3_96 N 0.00073(4) 0.89556(5) 0.39385(5)
N4_96 N 0.02097(5) 0.86148(5) 0.39021(5)
C8_96 C 0.02347(6) 0.86498(6) 0.40749(6)
H5_96 H 0.0156 0.8731 0.4132
C9_96 C 0.03688(6) 0.85738(6) 0.41750(6)
H6_96 H 0.0383 0.8604 0.4297
C10_96 C 0.04816(6) 0.84539(6) 0.40944(6)
C11_96 C 0.04543(7) 0.84108(7) 0.39142(7)
H7_96 H 0.0526 0.8324 0.3856
C12_96 C 0.03218(7) 0.84970(7) 0.38250(6)
H8_96 H 0.0307 0.8473 0.3701
C13_96 C 0.08354(6) 0.81527(6) 0.42141(6)
N5_96 N 0.06910(5) 0.82146(5) 0.41316(6)
C14_96 C 0.06340(6) 0.83736(6) 0.41890(6)
N6_96 N 0.07083(5) 0.84688(5) 0.43216(5)
C15_96 C 0.08505(6) 0.83904(7) 0.43965(6)
N7_96 N 0.09189(6) 0.82339(5) 0.43498(6)
C16_96 C 0.08985(7) 0.77426(7) 0.39407(8)
H9_96 H 0.0833 0.7675 0.3856
C17_96 C 0.08161(7) 0.78851(7) 0.40228(7)
H10_96 H 0.0696 0.7915 0.3995
C18_96 C 0.09111(6) 0.79844(6) 0.41459(7)
C19_96 C 0.10818(7) 0.79301(7) 0.41898(6)
H11_96 H 0.1148 0.7991 0.4279
C20_96 C 0.11541(6) 0.77860(6) 0.41024(6)
H12_96 H 0.1271 0.7749 0.4134
C21_96 C 0.11509(7) 0.84932(7) 0.47798(7)
H13_96 H 0.1229 0.8430 0.4857
C22_96 C 0.10638(7) 0.83993(7) 0.46502(7)
H14_96 H 0.1084 0.8275 0.4636
C23_96 C 0.09457(6) 0.84888(6) 0.45395(6)
C24_96 C 0.09172(7) 0.86709(7) 0.45696(7)
H15_96 H 0.0832 0.8735 0.4501
C25_96 C 0.10149(7) 0.87549(6) 0.47005(6)
H16_96 H 0.0998 0.8879 0.4718
N21_96 N 0.00073(4) 0.85444(5) 0.35615(5)
N22_96 N 0.02097(5) 0.88852(5) 0.35979(5)
C58_96 C 0.02347(6) 0.88502(6) 0.34251(6)
H37_96 H 0.0156 0.8769 0.3368
C59_96 C 0.03688(6) 0.89262(6) 0.33250(6)
H38_96 H 0.0383 0.8896 0.3203
C60_96 C 0.04816(6) 0.90461(6) 0.34056(6)
C61_96 C 0.04543(7) 0.90892(7) 0.35858(7)
H39_96 H 0.0526 0.9176 0.3644
C62_96 C 0.03218(7) 0.90030(7) 0.36750(6)
H40_96 H 0.0307 0.9027 0.3799
C63_96 C 0.08354(6) 0.93473(6) 0.32859(6)
N23_96 N 0.06910(5) 0.92854(5) 0.33684(6)
C64_96 C 0.06340(6) 0.91264(6) 0.33110(6)
N24_96 N 0.07083(5) 0.90312(5) 0.31784(5)
C65_96 C 0.08505(6) 0.91096(7) 0.31035(6)
N25_96 N 0.09189(6) 0.92661(5) 0.31502(6)
C66_96 C 0.08985(7) 0.97574(7) 0.35593(8)
H41_96 H 0.0833 0.9825 0.3644
C67_96 C 0.08161(7) 0.96149(7) 0.34772(7)
H42_96 H 0.0696 0.9585 0.3505
C68_96 C 0.09111(6) 0.95156(6) 0.33541(7)
C69_96 C 0.10818(7) 0.95699(7) 0.33102(6)
H43_96 H 0.1148 0.9509 0.3221
C70_96 C 0.11541(6) 0.97140(6) 0.33976(6)
H44_96 H 0.1271 0.9751 0.3366
C71_96 C 0.11509(7) 0.90068(7) 0.27202(7)
H45_96 H 0.1229 0.9070 0.2643
C72_96 C 0.10638(7) 0.91007(7) 0.28498(7)
H46_96 H 0.1084 0.9225 0.2864
C73_96 C 0.09457(6) 0.90112(6) 0.29605(6)
C74_96 C 0.09172(7) 0.88291(7) 0.29304(7)
H47_96 H 0.0832 0.8765 0.2999
C75_96 C 0.10149(7) 0.87451(6) 0.27995(6)
H48_96 H 0.0998 0.8621 0.2782
C7_96 C 0.99933(7) 0.90956(9) 0.39985(8)
S1_96 S 0.99680(4) 0.93001(3) 0.40745(4)
C57_96 C 0.99933(7) 0.84044(9) 0.35015(8)
S3_96 S 0.99680(4) 0.81999(3) 0.34255(4)
loop_
_geom_bond_atom_site_label_1
_geom_bond_atom_site_label_2
_geom_bond_site_symmetry_1
_geom_bond_site_symmetry_2
N1 C1 1_555 1_555
C1 C4 1_555 1_555
N2 C2 1_555 1_555
C2 H1 1_555 1_555
C3 C2 1_555 1_555
H2 C3 1_555 1_555
C4 C3 1_555 1_555
C5 C4 1_555 1_555
H3 C5 1_555 1_555
C6 N2 1_555 1_555
H4 C6 1_555 1_555
Co1 N2 1_555 1_555
N3 Co1 1_555 1_555
C7 N3 1_555 1_555
S1 C7 1_555 1_555
N4 Co1 1_555 1_555
C8 N4 1_555 1_555
H5 C8 1_555 1_555
C9 C8 1_555 1_555
H6 C9 1_555 1_555
C10 C9 1_555 1_555
C11 C10 1_555 1_555
H7 C11 1_555 1_555
C12 N4 1_555 1_555
H8 C12 1_555 1_555
C13 N5 1_555 1_555
N5 C14 1_555 1_555
C14 C10 1_555 1_555
N6 C14 1_555 1_555
C15 N6 1_555 1_555
N7 C13 1_555 1_555
N8 C16 1_555 1_555
C16 H9 1_555 1_555
C17 C16 1_555 1_555
H10 C17 1_555 1_555
C18 C13 1_555 1_555
C19 C18 1_555 1_555
H11 C19 1_555 1_555
C20 N8 1_555 1_555
H12 C20 1_555 1_555
N9 C21 1_555 1_555
C21 H13 1_555 1_555
C22 C21 1_555 1_555
H14 C22 1_555 1_555
C23 C15 1_555 1_555
C24 C23 1_555 1_555
H15 C24 1_555 1_555
C25 N9 1_555 1_555
H16 C25 1_555 1_555
Co2 N8 1_555 1_555
N10 Co2 1_555 1_555
C26 N10 1_555 1_555
S2 C26 1_555 1_555
N11 C1 1_555 1_555
N12 C27 1_555 1_555
N13 C29 1_555 1_555
N14 C29 1_555 1_555
N15 C30 1_555 1_555
C27 N11 1_555 1_555
C28 N1 1_555 1_555
C29 C44 1_555 1_555
C30 N14 1_555 1_555
C31 N13 1_555 1_555
N16 C32 1_555 1_555
N17 C33 1_555 1_555
N18 Co1 1_555 1_555
N19 C35 1_555 1_555
N20 C36 1_555 1_555
C32 H17 1_555 1_555
C33 H18 1_555 1_555
C34 N18 1_555 1_555
C35 H20 1_555 1_555
C36 H21 1_555 1_555
H19 C34 1_555 1_555
C37 C32 1_555 1_555
C38 C33 1_555 1_555
C39 C34 1_555 1_555
C40 C35 1_555 1_555
C41 C36 1_555 1_555
H22 C37 1_555 1_555
H23 C38 1_555 1_555
H24 C39 1_555 1_555
H25 C40 1_555 1_555
H26 C41 1_555 1_555
C42 C28 1_555 1_555
C43 C27 1_555 1_555
C44 C39 1_555 1_555
C45 C31 1_555 1_555
C46 C30 1_555 1_555
C47 C42 1_555 1_555
C48 C43 1_555 1_555
C49 C44 1_555 1_555
C50 C45 1_555 1_555
C51 C46 1_555 1_555
H27 C47 1_555 1_555
H28 C48 1_555 1_555
H29 C49 1_555 1_555
H30 C50 1_555 1_555
H31 C51 1_555 1_555
C52 N16 1_555 1_555
C53 N17 1_555 1_555
C54 N18 1_555 1_555
C55 N19 1_555 1_555
C56 N20 1_555 1_555
H32 C52 1_555 1_555
H33 C53 1_555 1_555
H34 C54 1_555 1_555
H35 C55 1_555 1_555
H36 C56 1_555 1_555
Co4 N17 1_555 1_555
Co5 N19 1_555 1_555
Co6 N20 1_555 1_555
N21 Co1 1_555 1_555
C57 N21 1_555 1_555
S3 C57 1_555 1_555
N22 Co1 1_555 1_555
C58 N22 1_555 1_555
H37 C58 1_555 1_555
C59 C58 1_555 1_555
H38 C59 1_555 1_555
C60 C59 1_555 1_555
C61 C60 1_555 1_555
H39 C61 1_555 1_555
C62 N22 1_555 1_555
H40 C62 1_555 1_555
C63 N23 1_555 1_555
N23 C64 1_555 1_555
C64 C60 1_555 1_555
N24 C64 1_555 1_555
C65 N24 1_555 1_555
N25 C63 1_555 1_555
N26 C66 1_555 1_555
N27 Co2 1_555 1_555
N28 Co8 1_555 1_555
C66 H41 1_555 1_555
C67 C66 1_555 1_555
H42 C67 1_555 1_555
C68 C63 1_555 1_555
C69 C68 1_555 1_555
H43 C69 1_555 1_555
C70 N26 1_555 1_555
H44 C70 1_555 1_555
N30 C71 1_555 1_555
N31 Co2 1_555 1_555
N32 Co2 1_555 1_555
C71 H45 1_555 1_555
C72 C71 1_555 1_555
H46 C72 1_555 1_555
C73 C65 1_555 1_555
C74 C73 1_555 1_555
H47 C74 1_555 1_555
C75 N30 1_555 1_555
H48 C75 1_555 1_555
Co7 N26 1_555 1_555
Co8 N9 1_555 1_555
Co9 N30 1_555 1_555
N34 Co2 1_555 1_555
N35 Co8 1_555 1_555
C76 N34 1_555 1_555
C77 N35 1_555 1_555
S4 C76 1_555 1_555
S5 C77 1_555 1_555
C5 C6 1_555 1_555
C11 C12 1_555 1_555
C15 N7 1_555 1_555
C17 C18 1_555 1_555
C19 C20 1_555 1_555
C22 C23 1_555 1_555
C24 C25 1_555 1_555
N12 C28 1_555 1_555
N15 C31 1_555 1_555
C37 C42 1_555 1_555
C38 C43 1_555 1_555
C40 C45 1_555 1_555
C41 C46 1_555 1_555
C47 C52 1_555 1_555
C48 C53 1_555 1_555
C49 C54 1_555 1_555
C50 C55 1_555 1_555
C51 C56 1_555 1_555
C61 C62 1_555 1_555
C65 N25 1_555 1_555
C67 C68 1_555 1_555
C69 C70 1_555 1_555
C72 C73 1_555 1_555
C74 C75 1_555 1_555
N29 Co8_2 1_555 1_555
N33 Co8_2 1_555 1_555
N36 Co8_2 1_555 1_555
C78 N36 1_555 1_555
S6 C78 1_555 1_555
N27_2 Co2_2 1_555 1_555
N32_2 Co2_2 1_555 1_555
N34_2 Co2_2 1_555 1_555
C76_2 N34_2 1_555 1_555
S4_2 C76_2 1_555 1_555
N1_2 C1_2 1_555 1_555
C1_2 C4_2 1_555 1_555
N2_2 C2_2 1_555 1_555
C2_2 H1_2 1_555 1_555
C3_2 C2_2 1_555 1_555
H2_2 C3_2 1_555 1_555
C4_2 C3_2 1_555 1_555
C5_2 C4_2 1_555 1_555
H3_2 C5_2 1_555 1_555
C6_2 N2_2 1_555 1_555
H4_2 C6_2 1_555 1_555
Co1_2 N2_2 1_555 1_555
N3_2 Co1_2 1_555 1_555
C7_2 N3_2 1_555 1_555
S1_2 C7_2 1_555 1_555
N4_2 Co1_2 1_555 1_555
C8_2 N4_2 1_555 1_555
H5_2 C8_2 1_555 1_555
C9_2 C8_2 1_555 1_555
H6_2 C9_2 1_555 1_555
C10_2 C9_2 1_555 1_555
C11_2 C10_2 1_555 1_555
H7_2 C11_2 1_555 1_555
C12_2 N4_2 1_555 1_555
H8_2 C12_2 1_555 1_555
C13_2 N5_2 1_555 1_555
N5_2 C14_2 1_555 1_555
C14_2 C10_2 1_555 1_555
N6_2 C14_2 1_555 1_555
C15_2 N6_2 1_555 1_555
N7_2 C13_2 1_555 1_555
N8_2 C16_2 1_555 1_555
C16_2 H9_2 1_555 1_555
C17_2 C16_2 1_555 1_555
H10_2 C17_2 1_555 1_555
C18_2 C13_2 1_555 1_555
C19_2 C18_2 1_555 1_555
H11_2 C19_2 1_555 1_555
C20_2 N8_2 1_555 1_555
H12_2 C20_2 1_555 1_555
N9_2 C21_2 1_555 1_555
C21_2 H13_2 1_555 1_555
C22_2 C21_2 1_555 1_555
H14_2 C22_2 1_555 1_555
C23_2 C15_2 1_555 1_555
C24_2 C23_2 1_555 1_555
H15_2 C24_2 1_555 1_555
C25_2 N9_2 1_555 1_555
H16_2 C25_2 1_555 1_555
Co2_3 N8_2 1_555 1_555
N10_2 Co2_3 1_555 1_555
C26_2 N10_2 1_555 1_555
S2_2 C26_2 1_555 1_555
N11_2 C1_2 1_555 1_555
N12_2 C27_2 1_555 1_555
N13_2 C29_2 1_555 1_555
N14_2 C29_2 1_555 1_555
N15_2 C30_2 1_555 1_555
C27_2 N11_2 1_555 1_555
C28_2 N1_2 1_555 1_555
C29_2 C44_2 1_555 1_555
C30_2 N14_2 1_555 1_555
C31_2 N13_2 1_555 1_555
N16_2 C32_2 1_555 1_555
N17_2 C33_2 1_555 1_555
N18_2 Co1_2 1_555 1_555
N19_2 C35_2 1_555 1_555
N20_2 C36_2 1_555 1_555
C32_2 H17_2 1_555 1_555
C33_2 H18_2 1_555 1_555
C34_2 N18_2 1_555 1_555
C35_2 H20_2 1_555 1_555
C36_2 H21_2 1_555 1_555
H19_2 C34_2 1_555 1_555
C37_2 C32_2 1_555 1_555
C38_2 C33_2 1_555 1_555
C39_2 C34_2 1_555 1_555
C40_2 C35_2 1_555 1_555
C41_2 C36_2 1_555 1_555
H22_2 C37_2 1_555 1_555
H23_2 C38_2 1_555 1_555
H24_2 C39_2 1_555 1_555
H25_2 C40_2 1_555 1_555
H26_2 C41_2 1_555 1_555
C42_2 C28_2 1_555 1_555
C43_2 C27_2 1_555 1_555
C44_2 C39_2 1_555 1_555
C45_2 C31_2 1_555 1_555
C46_2 C30_2 1_555 1_555
C47_2 C42_2 1_555 1_555
C48_2 C43_2 1_555 1_555
C49_2 C44_2 1_555 1_555
C50_2 C45_2 1_555 1_555
C51_2 C46_2 1_555 1_555
H27_2 C47_2 1_555 1_555
H28_2 C48_2 1_555 1_555
H29_2 C49_2 1_555 1_555
H30_2 C50_2 1_555 1_555
H31_2 C51_2 1_555 1_555
C52_2 N16_2 1_555 1_555
C53_2 N17_2 1_555 1_555
C54_2 N18_2 1_555 1_555
C55_2 N19_2 1_555 1_555
C56_2 N20_2 1_555 1_555
H32_2 C52_2 1_555 1_555
H33_2 C53_2 1_555 1_555
H34_2 C54_2 1_555 1_555
H35_2 C55_2 1_555 1_555
H36_2 C56_2 1_555 1_555
Co3_2 N16_2 1_555 1_555
Co5_2 N19_2 1_555 1_555
Co6_2 N20_2 1_555 1_555
N21_2 Co1_2 1_555 1_555
C57_2 N21_2 1_555 1_555
S3_2 C57_2 1_555 1_555
N22_2 Co1_2 1_555 1_555
C58_2 N22_2 1_555 1_555
H37_2 C58_2 1_555 1_555
C59_2 C58_2 1_555 1_555
H38_2 C59_2 1_555 1_555
C60_2 C59_2 1_555 1_555
C61_2 C60_2 1_555 1_555
H39_2 C61_2 1_555 1_555
C62_2 N22_2 1_555 1_555
H40_2 C62_2 1_555 1_555
C63_2 N23_2 1_555 1_555
N23_2 C64_2 1_555 1_555
C64_2 C60_2 1_555 1_555
N24_2 C64_2 1_555 1_555
C65_2 N24_2 1_555 1_555
N25_2 C63_2 1_555 1_555
N26_2 C66_2 1_555 1_555
N28_2 Co8_3 1_555 1_555
N29_2 Co8_3 1_555 1_555
C66_2 H41_2 1_555 1_555
C67_2 C66_2 1_555 1_555
H42_2 C67_2 1_555 1_555
C68_2 C63_2 1_555 1_555
C69_2 C68_2 1_555 1_555
H43_2 C69_2 1_555 1_555
C70_2 N26_2 1_555 1_555
H44_2 C70_2 1_555 1_555
N30_2 C71_2 1_555 1_555
N31_2 Co2_3 1_555 1_555
N33_2 Co8_3 1_555 1_555
C71_2 H45_2 1_555 1_555
C72_2 C71_2 1_555 1_555
H46_2 C72_2 1_555 1_555
C73_2 C65_2 1_555 1_555
C74_2 C73_2 1_555 1_555
H47_2 C74_2 1_555 1_555
C75_2 N30_2 1_555 1_555
H48_2 C75_2 1_555 1_555
Co7_2 N26_2 1_555 1_555
Co8_3 N9_2 1_555 1_555
Co9_2 N30_2 1_555 1_555
N35_2 Co8_3 1_555 1_555
N36_2 Co8_3 1_555 1_555
C77_2 N35_2 1_555 1_555
C78_2 N36_2 1_555 1_555
S5_2 C77_2 1_555 1_555
S6_2 C78_2 1_555 1_555
C5_2 C6_2 1_555 1_555
C11_2 C12_2 1_555 1_555
C15_2 N7_2 1_555 1_555
C17_2 C18_2 1_555 1_555
C19_2 C20_2 1_555 1_555
C22_2 C23_2 1_555 1_555
C24_2 C25_2 1_555 1_555
N12_2 C28_2 1_555 1_555
N15_2 C31_2 1_555 1_555
C37_2 C42_2 1_555 1_555
C38_2 C43_2 1_555 1_555
C40_2 C45_2 1_555 1_555
C41_2 C46_2 1_555 1_555
C47_2 C52_2 1_555 1_555
C48_2 C53_2 1_555 1_555
C49_2 C54_2 1_555 1_555
C50_2 C55_2 1_555 1_555
C51_2 C56_2 1_555 1_555
C61_2 C62_2 1_555 1_555
C65_2 N25_2 1_555 1_555
C67_2 C68_2 1_555 1_555
C69_2 C70_2 1_555 1_555
C72_2 C73_2 1_555 1_555
C74_2 C75_2 1_555 1_555
N3_3 Co4_2 1_555 1_555
N4_3 Co4_2 1_555 1_555
C8_3 N4_3 1_555 1_555
H5_3 C8_3 1_555 1_555
C9_3 C8_3 1_555 1_555
H6_3 C9_3 1_555 1_555
C10_3 C9_3 1_555 1_555
C11_3 C10_3 1_555 1_555
H7_3 C11_3 1_555 1_555
C12_3 N4_3 1_555 1_555
H8_3 C12_3 1_555 1_555
C13_3 N5_3 1_555 1_555
N5_3 C14_3 1_555 1_555
C14_3 C10_3 1_555 1_555
N6_3 C14_3 1_555 1_555
C15_3 N6_3 1_555 1_555
N7_3 C13_3 1_555 1_555
N8_3 C16_3 1_555 1_555
C16_3 H9_3 1_555 1_555
C17_3 C16_3 1_555 1_555
H10_3 C17_3 1_555 1_555
C18_3 C13_3 1_555 1_555
C19_3 C18_3 1_555 1_555
H11_3 C19_3 1_555 1_555
C20_3 N8_3 1_555 1_555
H12_3 C20_3 1_555 1_555
N9_3 C21_3 1_555 1_555
C21_3 H13_3 1_555 1_555
C22_3 C21_3 1_555 1_555
H14_3 C22_3 1_555 1_555
C23_3 C15_3 1_555 1_555
C24_3 C23_3 1_555 1_555
H15_3 C24_3 1_555 1_555
C25_3 N9_3 1_555 1_555
H16_3 C25_3 1_555 1_555
Co2_4 N8_3 1_555 1_555
N10_3 Co2_4 1_555 1_555
C26_3 N10_3 1_555 1_555
S2_3 C26_3 1_555 1_555
N21_3 Co4_2 1_555 1_555
N22_3 Co4_2 1_555 1_555
C58_3 N22_3 1_555 1_555
H37_3 C58_3 1_555 1_555
C59_3 C58_3 1_555 1_555
H38_3 C59_3 1_555 1_555
C60_3 C59_3 1_555 1_555
C61_3 C60_3 1_555 1_555
H39_3 C61_3 1_555 1_555
C62_3 N22_3 1_555 1_555
H40_3 C62_3 1_555 1_555
C63_3 N23_3 1_555 1_555
N23_3 C64_3 1_555 1_555
C64_3 C60_3 1_555 1_555
N24_3 C64_3 1_555 1_555
C65_3 N24_3 1_555 1_555
N25_3 C63_3 1_555 1_555
N26_3 C66_3 1_555 1_555
N27_3 Co2_4 1_555 1_555
N28_3 Co8_4 1_555 1_555
N29_3 Co8_4 1_555 1_555
C66_3 H41_3 1_555 1_555
C67_3 C66_3 1_555 1_555
H42_3 C67_3 1_555 1_555
C68_3 C63_3 1_555 1_555
C69_3 C68_3 1_555 1_555
H43_3 C69_3 1_555 1_555
C70_3 N26_3 1_555 1_555
H44_3 C70_3 1_555 1_555
N30_3 C71_3 1_555 1_555
N31_3 Co2_4 1_555 1_555
N32_3 Co2_4 1_555 1_555
N33_3 Co8_4 1_555 1_555
C71_3 H45_3 1_555 1_555
C72_3 C71_3 1_555 1_555
H46_3 C72_3 1_555 1_555
C73_3 C65_3 1_555 1_555
C74_3 C73_3 1_555 1_555
H47_3 C74_3 1_555 1_555
C75_3 N30_3 1_555 1_555
H48_3 C75_3 1_555 1_555
Co7_3 N26_3 1_555 1_555
Co8_4 N9_3 1_555 1_555
Co9_3 N30_3 1_555 1_555
N34_3 Co2_4 1_555 1_555
N35_3 Co8_4 1_555 1_555
N36_3 Co8_4 1_555 1_555
C76_3 N34_3 1_555 1_555
C77_3 N35_3 1_555 1_555
C78_3 N36_3 1_555 1_555
S4_3 C76_3 1_555 1_555
S5_3 C77_3 1_555 1_555
S6_3 C78_3 1_555 1_555
C11_3 C12_3 1_555 1_555
C15_3 N7_3 1_555 1_555
C17_3 C18_3 1_555 1_555
C19_3 C20_3 1_555 1_555
C22_3 C23_3 1_555 1_555
C24_3 C25_3 1_555 1_555
C61_3 C62_3 1_555 1_555
C65_3 N25_3 1_555 1_555
C67_3 C68_3 1_555 1_555
C69_3 C70_3 1_555 1_555
C72_3 C73_3 1_555 1_555
C74_3 C75_3 1_555 1_555
N1_3 C1_3 1_555 1_555
C1_3 C4_3 1_555 1_555
N2_3 C2_3 1_555 1_555
C2_3 H1_3 1_555 1_555
C3_3 C2_3 1_555 1_555
H2_3 C3_3 1_555 1_555
C4_3 C3_3 1_555 1_555
C5_3 C4_3 1_555 1_555
H3_3 C5_3 1_555 1_555
C6_3 N2_3 1_555 1_555
H4_3 C6_3 1_555 1_555
S1_3 C7_3 1_555 1_555
N11_3 C1_3 1_555 1_555
N12_3 C27_3 1_555 1_555
C27_3 N11_3 1_555 1_555
C28_3 N1_3 1_555 1_555
N16_3 C32_3 1_555 1_555
N17_3 C33_3 1_555 1_555
C32_3 H17_3 1_555 1_555
C33_3 H18_3 1_555 1_555
C37_3 C32_3 1_555 1_555
C38_3 C33_3 1_555 1_555
H22_3 C37_3 1_555 1_555
H23_3 C38_3 1_555 1_555
C42_3 C28_3 1_555 1_555
C43_3 C27_3 1_555 1_555
C47_3 C42_3 1_555 1_555
C48_3 C43_3 1_555 1_555
H27_3 C47_3 1_555 1_555
H28_3 C48_3 1_555 1_555
C52_3 N16_3 1_555 1_555
C53_3 N17_3 1_555 1_555
H32_3 C52_3 1_555 1_555
H33_3 C53_3 1_555 1_555
Co3_3 N16_3 1_555 1_555
Co5_2 N17_3 1_555 1_555
S3_3 C57_3 1_555 1_555
C5_3 C6_3 1_555 1_555
N12_3 C28_3 1_555 1_555
C37_3 C42_3 1_555 1_555
C38_3 C43_3 1_555 1_555
C47_3 C52_3 1_555 1_555
C48_3 C53_3 1_555 1_555
N3_4 Co5_2 1_555 1_555
C7_4 N3_4 1_555 1_555
S1_4 C7_4 1_555 1_555
N4_4 Co5_2 1_555 1_555
C8_4 N4_4 1_555 1_555
H5_4 C8_4 1_555 1_555
C9_4 C8_4 1_555 1_555
H6_4 C9_4 1_555 1_555
C10_4 C9_4 1_555 1_555
C11_4 C10_4 1_555 1_555
H7_4 C11_4 1_555 1_555
C12_4 N4_4 1_555 1_555
H8_4 C12_4 1_555 1_555
C13_4 N5_4 1_555 1_555
N5_4 C14_4 1_555 1_555
C14_4 C10_4 1_555 1_555
N6_4 C14_4 1_555 1_555
C15_4 N6_4 1_555 1_555
N7_4 C13_4 1_555 1_555
N8_4 C16_4 1_555 1_555
C16_4 H9_4 1_555 1_555
C17_4 C16_4 1_555 1_555
H10_4 C17_4 1_555 1_555
C18_4 C13_4 1_555 1_555
C19_4 C18_4 1_555 1_555
H11_4 C19_4 1_555 1_555
C20_4 N8_4 1_555 1_555
H12_4 C20_4 1_555 1_555
N9_4 C21_4 1_555 1_555
C21_4 H13_4 1_555 1_555
C22_4 C21_4 1_555 1_555
H14_4 C22_4 1_555 1_555
C23_4 C15_4 1_555 1_555
C24_4 C23_4 1_555 1_555
H15_4 C24_4 1_555 1_555
C25_4 N9_4 1_555 1_555
H16_4 C25_4 1_555 1_555
Co2_5 N8_4 1_555 1_555
N10_4 Co2_5 1_555 1_555
C26_4 N10_4 1_555 1_555
S2_4 C26_4 1_555 1_555
N21_4 Co5_2 1_555 1_555
C57_4 N21_4 1_555 1_555
S3_4 C57_4 1_555 1_555
N22_4 Co5_2 1_555 1_555
C58_4 N22_4 1_555 1_555
H37_4 C58_4 1_555 1_555
C59_4 C58_4 1_555 1_555
H38_4 C59_4 1_555 1_555
C60_4 C59_4 1_555 1_555
C61_4 C60_4 1_555 1_555
H39_4 C61_4 1_555 1_555
C62_4 N22_4 1_555 1_555
H40_4 C62_4 1_555 1_555
C63_4 N23_4 1_555 1_555
N23_4 C64_4 1_555 1_555
C64_4 C60_4 1_555 1_555
N24_4 C64_4 1_555 1_555
C65_4 N24_4 1_555 1_555
N25_4 C63_4 1_555 1_555
N26_4 C66_4 1_555 1_555
N27_4 Co2_5 1_555 1_555
N28_4 Co8_5 1_555 1_555
N29_4 Co8_5 1_555 1_555
C66_4 H41_4 1_555 1_555
C67_4 C66_4 1_555 1_555
H42_4 C67_4 1_555 1_555
C68_4 C63_4 1_555 1_555
C69_4 C68_4 1_555 1_555
H43_4 C69_4 1_555 1_555
C70_4 N26_4 1_555 1_555
H44_4 C70_4 1_555 1_555
N30_4 C71_4 1_555 1_555
N31_4 Co2_5 1_555 1_555
N32_4 Co2_5 1_555 1_555
N33_4 Co8_5 1_555 1_555
C71_4 H45_4 1_555 1_555
C72_4 C71_4 1_555 1_555
H46_4 C72_4 1_555 1_555
C73_4 C65_4 1_555 1_555
C74_4 C73_4 1_555 1_555
H47_4 C74_4 1_555 1_555
C75_4 N30_4 1_555 1_555
H48_4 C75_4 1_555 1_555
Co7_4 N26_4 1_555 1_555
Co8_5 N9_4 1_555 1_555
Co9_5 N30_4 1_555 1_555
N34_4 Co2_5 1_555 1_555
N35_4 Co8_5 1_555 1_555
N36_4 Co8_5 1_555 1_555
C76_4 N34_4 1_555 1_555
C77_4 N35_4 1_555 1_555
C78_4 N36_4 1_555 1_555
S4_4 C76_4 1_555 1_555
S5_4 C77_4 1_555 1_555
S6_4 C78_4 1_555 1_555
C11_4 C12_4 1_555 1_555
C15_4 N7_4 1_555 1_555
C17_4 C18_4 1_555 1_555
C19_4 C20_4 1_555 1_555
C22_4 C23_4 1_555 1_555
C24_4 C25_4 1_555 1_555
C61_4 C62_4 1_555 1_555
C65_4 N25_4 1_555 1_555
C67_4 C68_4 1_555 1_555
C69_4 C70_4 1_555 1_555
C72_4 C73_4 1_555 1_555
C74_4 C75_4 1_555 1_555
N29_5 Co9_4 1_555 1_555
N33_5 Co9_4 1_555 1_555
N36_5 Co9_4 1_555 1_555
C78_5 N36_5 1_555 1_555
S6_5 C78_5 1_555 1_555
N10_5 Co7_4 1_555 1_555
C26_5 N10_5 1_555 1_555
S2_5 C26_5 1_555 1_555
N27_5 Co7_4 1_555 1_555
N28_5 Co9_5 1_555 1_555
N31_5 Co7_4 1_555 1_555
N32_5 Co7_4 1_555 1_555
N34_5 Co7_4 1_555 1_555
N35_5 Co9_5 1_555 1_555
C76_5 N34_5 1_555 1_555
C77_5 N35_5 1_555 1_555
S4_5 C76_5 1_555 1_555
S5_5 C77_5 1_555 1_555
N1_4 C1_4 1_555 1_555
C1_4 C4_4 1_555 1_555
N2_4 C2_4 1_555 1_555
C2_4 H1_4 1_555 1_555
C3_4 C2_4 1_555 1_555
H2_4 C3_4 1_555 1_555
C4_4 C3_4 1_555 1_555
C5_4 C4_4 1_555 1_555
H3_4 C5_4 1_555 1_555
C6_4 N2_4 1_555 1_555
H4_4 C6_4 1_555 1_555
S1_5 C7_5 1_555 1_555
N11_4 C1_4 1_555 1_555
N12_4 C27_4 1_555 1_555
N13_3 C29_3 1_555 1_555
N14_3 C29_3 1_555 1_555
N15_3 C30_3 1_555 1_555
C27_4 N11_4 1_555 1_555
C28_4 N1_4 1_555 1_555
C29_3 C44_3 1_555 1_555
C30_3 N14_3 1_555 1_555
C31_3 N13_3 1_555 1_555
N16_4 C32_4 1_555 1_555
N17_4 C33_4 1_555 1_555
N19_3 C35_3 1_555 1_555
N20_3 C36_3 1_555 1_555
C32_4 H17_4 1_555 1_555
C33_4 H18_4 1_555 1_555
C34_3 N18_3 1_555 1_555
C35_3 H20_3 1_555 1_555
C36_3 H21_3 1_555 1_555
H19_3 C34_3 1_555 1_555
C37_4 C32_4 1_555 1_555
C38_4 C33_4 1_555 1_555
C39_3 C34_3 1_555 1_555
C40_3 C35_3 1_555 1_555
C41_3 C36_3 1_555 1_555
H22_4 C37_4 1_555 1_555
H23_4 C38_4 1_555 1_555
H24_3 C39_3 1_555 1_555
H25_3 C40_3 1_555 1_555
H26_3 C41_3 1_555 1_555
C42_4 C28_4 1_555 1_555
C43_4 C27_4 1_555 1_555
C44_3 C39_3 1_555 1_555
C45_3 C31_3 1_555 1_555
C46_3 C30_3 1_555 1_555
C47_4 C42_4 1_555 1_555
C48_4 C43_4 1_555 1_555
C49_3 C44_3 1_555 1_555
C50_3 C45_3 1_555 1_555
C51_3 C46_3 1_555 1_555
H27_4 C47_4 1_555 1_555
H28_4 C48_4 1_555 1_555
H29_3 C49_3 1_555 1_555
H30_3 C50_3 1_555 1_555
H31_3 C51_3 1_555 1_555
C52_4 N16_4 1_555 1_555
C53_4 N17_4 1_555 1_555
C54_3 N18_3 1_555 1_555
C55_3 N19_3 1_555 1_555
C56_3 N20_3 1_555 1_555
H32_4 C52_4 1_555 1_555
H33_4 C53_4 1_555 1_555
H34_3 C54_3 1_555 1_555
H35_3 C55_3 1_555 1_555
H36_3 C56_3 1_555 1_555
Co4_3 N17_4 1_555 1_555
Co5_3 N19_3 1_555 1_555
Co6_3 N20_3 1_555 1_555
S3_5 C57_5 1_555 1_555
C5_4 C6_4 1_555 1_555
N12_4 C28_4 1_555 1_555
N15_3 C31_3 1_555 1_555
C37_4 C42_4 1_555 1_555
C38_4 C43_4 1_555 1_555
C40_3 C45_3 1_555 1_555
C41_3 C46_3 1_555 1_555
C47_4 C52_4 1_555 1_555
C48_4 C53_4 1_555 1_555
C49_3 C54_3 1_555 1_555
C50_3 C55_3 1_555 1_555
C51_3 C56_3 1_555 1_555
N3_5 Co1_3 1_555 1_555
N4_5 Co1_3 1_555 1_555
C8_5 N4_5 1_555 1_555
H5_5 C8_5 1_555 1_555
C9_5 C8_5 1_555 1_555
H6_5 C9_5 1_555 1_555
C10_5 C9_5 1_555 1_555
C11_5 C10_5 1_555 1_555
H7_5 C11_5 1_555 1_555
C12_5 N4_5 1_555 1_555
H8_5 C12_5 1_555 1_555
C13_5 N5_5 1_555 1_555
N5_5 C14_5 1_555 1_555
C14_5 C10_5 1_555 1_555
N6_5 C14_5 1_555 1_555
C15_5 N6_5 1_555 1_555
N7_5 C13_5 1_555 1_555
N8_5 C16_5 1_555 1_555
C16_5 H9_5 1_555 1_555
C17_5 C16_5 1_555 1_555
H10_5 C17_5 1_555 1_555
C18_5 C13_5 1_555 1_555
C19_5 C18_5 1_555 1_555
H11_5 C19_5 1_555 1_555
C20_5 N8_5 1_555 1_555
H12_5 C20_5 1_555 1_555
N9_5 C21_5 1_555 1_555
C21_5 H13_5 1_555 1_555
C22_5 C21_5 1_555 1_555
H14_5 C22_5 1_555 1_555
C23_5 C15_5 1_555 1_555
C24_5 C23_5 1_555 1_555
H15_5 C24_5 1_555 1_555
C25_5 N9_5 1_555 1_555
H16_5 C25_5 1_555 1_555
Co2_6 N8_5 1_555 1_555
N10_6 Co2_6 1_555 1_555
C26_6 N10_6 1_555 1_555
S2_6 C26_6 1_555 1_555
N21_5 Co1_3 1_555 1_555
N22_5 Co1_3 1_555 1_555
C58_5 N22_5 1_555 1_555
H37_5 C58_5 1_555 1_555
C59_5 C58_5 1_555 1_555
H38_5 C59_5 1_555 1_555
C60_5 C59_5 1_555 1_555
C61_5 C60_5 1_555 1_555
H39_5 C61_5 1_555 1_555
C62_5 N22_5 1_555 1_555
H40_5 C62_5 1_555 1_555
C63_5 N23_5 1_555 1_555
N23_5 C64_5 1_555 1_555
C64_5 C60_5 1_555 1_555
N24_5 C64_5 1_555 1_555
C65_5 N24_5 1_555 1_555
N25_5 C63_5 1_555 1_555
N26_5 C66_5 1_555 1_555
N27_6 Co2_6 1_555 1_555
N28_6 Co8_6 1_555 1_555
C66_5 H41_5 1_555 1_555
C67_5 C66_5 1_555 1_555
H42_5 C67_5 1_555 1_555
C68_5 C63_5 1_555 1_555
C69_5 C68_5 1_555 1_555
H43_5 C69_5 1_555 1_555
C70_5 N26_5 1_555 1_555
H44_5 C70_5 1_555 1_555
N33_2 C71_5 1_555 1_555
N31_6 Co2_6 1_555 1_555
N32_6 Co2_6 1_555 1_555
C71_5 H45_5 1_555 1_555
C72_5 C71_5 1_555 1_555
H46_5 C72_5 1_555 1_555
C73_5 C65_5 1_555 1_555
C74_5 C73_5 1_555 1_555
H47_5 C74_5 1_555 1_555
C75_5 N33_2 1_555 1_555
H48_5 C75_5 1_555 1_555
Co7_5 N26_5 1_555 1_555
Co8_6 N9_5 1_555 1_555
N34_6 Co2_6 1_555 1_555
N35_6 Co8_6 1_555 1_555
C76_6 N34_6 1_555 1_555
C77_6 N35_6 1_555 1_555
S4_6 C76_6 1_555 1_555
S5_6 C77_6 1_555 1_555
C11_5 C12_5 1_555 1_555
C15_5 N7_5 1_555 1_555
C17_5 C18_5 1_555 1_555
C19_5 C20_5 1_555 1_555
C22_5 C23_5 1_555 1_555
C24_5 C25_5 1_555 1_555
C61_5 C62_5 1_555 1_555
C65_5 N25_5 1_555 1_555
C67_5 C68_5 1_555 1_555
C69_5 C70_5 1_555 1_555
C72_5 C73_5 1_555 1_555
C74_5 C75_5 1_555 1_555
N29_6 Co8_7 1_555 1_555
N33_6 Co8_7 1_555 1_555
N36_6 Co8_7 1_555 1_555
C78_6 N36_6 1_555 1_555
S6_6 C78_6 1_555 1_555
N1_5 C1_5 1_555 1_555
C1_5 C4_5 1_555 1_555
N2_5 C2_5 1_555 1_555
C2_5 H1_5 1_555 1_555
C3_5 C2_5 1_555 1_555
H2_5 C3_5 1_555 1_555
C4_5 C3_5 1_555 1_555
C5_5 C4_5 1_555 1_555
H3_5 C5_5 1_555 1_555
C6_5 N2_5 1_555 1_555
H4_5 C6_5 1_555 1_555
Co6_2 N2_5 1_555 1_555
N3_6 Co6_2 1_555 1_555
C7_6 N3_6 1_555 1_555
S1_6 C7_6 1_555 1_555
N4_6 Co6_2 1_555 1_555
C8_6 N4_6 1_555 1_555
H5_6 C8_6 1_555 1_555
C9_6 C8_6 1_555 1_555
H6_6 C9_6 1_555 1_555
C10_6 C9_6 1_555 1_555
C11_6 C10_6 1_555 1_555
H7_6 C11_6 1_555 1_555
C12_6 N4_6 1_555 1_555
H8_6 C12_6 1_555 1_555
C13_6 N5_6 1_555 1_555
N5_6 C14_6 1_555 1_555
C14_6 C10_6 1_555 1_555
N6_6 C14_6 1_555 1_555
C15_6 N6_6 1_555 1_555
N7_6 C13_6 1_555 1_555
N8_6 C16_6 1_555 1_555
C16_6 H9_6 1_555 1_555
C17_6 C16_6 1_555 1_555
H10_6 C17_6 1_555 1_555
C18_6 C13_6 1_555 1_555
C19_6 C18_6 1_555 1_555
H11_6 C19_6 1_555 1_555
C20_6 N8_6 1_555 1_555
H12_6 C20_6 1_555 1_555
N9_6 C21_6 1_555 1_555
C21_6 H13_6 1_555 1_555
C22_6 C21_6 1_555 1_555
H14_6 C22_6 1_555 1_555
C23_6 C15_6 1_555 1_555
C24_6 C23_6 1_555 1_555
H15_6 C24_6 1_555 1_555
C25_6 N9_6 1_555 1_555
H16_6 C25_6 1_555 1_555
Co2_7 N8_6 1_555 1_555
N10_7 Co2_7 1_555 1_555
C26_7 N10_7 1_555 1_555
S2_7 C26_7 1_555 1_555
N11_5 C1_5 1_555 1_555
N12_5 C27_5 1_555 1_555
C27_5 N11_5 1_555 1_555
C28_5 N1_5 1_555 1_555
N16_5 C32_5 1_555 1_555
N17_5 C33_5 1_555 1_555
C32_5 H17_5 1_555 1_555
C33_5 H18_5 1_555 1_555
C37_5 C32_5 1_555 1_555
C38_5 C33_5 1_555 1_555
H22_5 C37_5 1_555 1_555
H23_5 C38_5 1_555 1_555
C42_5 C28_5 1_555 1_555
C43_5 C27_5 1_555 1_555
C47_5 C42_5 1_555 1_555
C48_5 C43_5 1_555 1_555
H27_5 C47_5 1_555 1_555
H28_5 C48_5 1_555 1_555
C52_5 N16_5 1_555 1_555
C53_5 N17_5 1_555 1_555
H32_5 C52_5 1_555 1_555
H33_5 C53_5 1_555 1_555
Co3_3 N16_5 1_555 1_555
Co3_2 N17_5 1_555 1_555
N21_6 Co6_2 1_555 1_555
C57_6 N21_6 1_555 1_555
S3_6 C57_6 1_555 1_555
N22_6 Co6_2 1_555 1_555
C58_6 N22_6 1_555 1_555
H37_6 C58_6 1_555 1_555
C59_6 C58_6 1_555 1_555
H38_6 C59_6 1_555 1_555
C60_6 C59_6 1_555 1_555
C61_6 C60_6 1_555 1_555
H39_6 C61_6 1_555 1_555
C62_6 N22_6 1_555 1_555
H40_6 C62_6 1_555 1_555
C63_6 N23_6 1_555 1_555
N23_6 C64_6 1_555 1_555
C64_6 C60_6 1_555 1_555
N24_6 C64_6 1_555 1_555
C65_6 N24_6 1_555 1_555
N25_6 C63_6 1_555 1_555
N26_6 C66_6 1_555 1_555
N27_7 Co2_7 1_555 1_555
N28_7 Co9 1_555 1_555
N29_7 Co9 1_555 1_555
C66_6 H41_6 1_555 1_555
C67_6 C66_6 1_555 1_555
H42_6 C67_6 1_555 1_555
C68_6 C63_6 1_555 1_555
C69_6 C68_6 1_555 1_555
H43_6 C69_6 1_555 1_555
C70_6 N26_6 1_555 1_555
H44_6 C70_6 1_555 1_555
N30_5 C71_6 1_555 1_555
N31_7 Co2_7 1_555 1_555
N32_7 Co2_7 1_555 1_555
C71_6 H45_6 1_555 1_555
C72_6 C71_6 1_555 1_555
H46_6 C72_6 1_555 1_555
C73_6 C65_6 1_555 1_555
C74_6 C73_6 1_555 1_555
H47_6 C74_6 1_555 1_555
C75_6 N30_5 1_555 1_555
H48_6 C75_6 1_555 1_555
Co7_6 N26_6 1_555 1_555
Co9 N9_6 1_555 1_555
Co9_6 N30_5 1_555 1_555
N34_7 Co2_7 1_555 1_555
N35_7 Co9 1_555 1_555
N36_7 Co9 1_555 1_555
C76_7 N34_7 1_555 1_555
C77_7 N35_7 1_555 1_555
C78_7 N36_7 1_555 1_555
S4_7 C76_7 1_555 1_555
S5_7 C77_7 1_555 1_555
S6_7 C78_7 1_555 1_555
C5_5 C6_5 1_555 1_555
C11_6 C12_6 1_555 1_555
C15_6 N7_6 1_555 1_555
C17_6 C18_6 1_555 1_555
C19_6 C20_6 1_555 1_555
C22_6 C23_6 1_555 1_555
C24_6 C25_6 1_555 1_555
N12_5 C28_5 1_555 1_555
C37_5 C42_5 1_555 1_555
C38_5 C43_5 1_555 1_555
C47_5 C52_5 1_555 1_555
C48_5 C53_5 1_555 1_555
C61_6 C62_6 1_555 1_555
C65_6 N25_6 1_555 1_555
C67_6 C68_6 1_555 1_555
C69_6 C70_6 1_555 1_555
C72_6 C73_6 1_555 1_555
C74_6 C75_6 1_555 1_555
N1_6 C1_6 1_555 1_555
C1_6 C4_6 1_555 1_555
N2_6 C2_6 1_555 1_555
C2_6 H1_6 1_555 1_555
C3_6 C2_6 1_555 1_555
H2_6 C3_6 1_555 1_555
C4_6 C3_6 1_555 1_555
C5_6 C4_6 1_555 1_555
H3_6 C5_6 1_555 1_555
C6_6 N2_6 1_555 1_555
H4_6 C6_6 1_555 1_555
Co1_4 N2_6 1_555 1_555
N3_7 Co1_4 1_555 1_555
C7_7 N3_7 1_555 1_555
S1_7 C7_7 1_555 1_555
N4_7 Co1_4 1_555 1_555
C8_7 N4_7 1_555 1_555
H5_7 C8_7 1_555 1_555
C9_7 C8_7 1_555 1_555
H6_7 C9_7 1_555 1_555
C10_7 C9_7 1_555 1_555
C11_7 C10_7 1_555 1_555
H7_7 C11_7 1_555 1_555
C12_7 N4_7 1_555 1_555
H8_7 C12_7 1_555 1_555
C13_7 N5_7 1_555 1_555
N5_7 C14_7 1_555 1_555
C14_7 C10_7 1_555 1_555
N6_7 C14_7 1_555 1_555
C15_7 N6_7 1_555 1_555
N7_7 C13_7 1_555 1_555
N8_7 C16_7 1_555 1_555
C16_7 H9_7 1_555 1_555
C17_7 C16_7 1_555 1_555
H10_7 C17_7 1_555 1_555
C18_7 C13_7 1_555 1_555
C19_7 C18_7 1_555 1_555
H11_7 C19_7 1_555 1_555
C20_7 N8_7 1_555 1_555
H12_7 C20_7 1_555 1_555
N9_7 C21_7 1_555 1_555
C21_7 H13_7 1_555 1_555
C22_7 C21_7 1_555 1_555
H14_7 C22_7 1_555 1_555
C23_7 C15_7 1_555 1_555
C24_7 C23_7 1_555 1_555
H15_7 C24_7 1_555 1_555
C25_7 N9_7 1_555 1_555
H16_7 C25_7 1_555 1_555
Co2_8 N8_7 1_555 1_555
N10_8 Co2_8 1_555 1_555
C26_8 N10_8 1_555 1_555
S2_8 C26_8 1_555 1_555
N11_6 C1_6 1_555 1_555
N12_6 C27_6 1_555 1_555
N13_4 C29_4 1_555 1_555
N14_4 C29_4 1_555 1_555
N15_4 C30_4 1_555 1_555
C27_6 N11_6 1_555 1_555
C28_6 N1_6 1_555 1_555
C29_4 C44_4 1_555 1_555
C30_4 N14_4 1_555 1_555
C31_4 N13_4 1_555 1_555
N16_6 C32_6 1_555 1_555
N17_6 C33_6 1_555 1_555
N18_4 Co1_4 1_555 1_555
N19_4 C35_4 1_555 1_555
N20_4 C36_4 1_555 1_555
C32_6 H17_6 1_555 1_555
C33_6 H18_6 1_555 1_555
C34_4 N18_4 1_555 1_555
C35_4 H20_4 1_555 1_555
C36_4 H21_4 1_555 1_555
H19_4 C34_4 1_555 1_555
C37_6 C32_6 1_555 1_555
C38_6 C33_6 1_555 1_555
C39_4 C34_4 1_555 1_555
C40_4 C35_4 1_555 1_555
C41_4 C36_4 1_555 1_555
H22_6 C37_6 1_555 1_555
H23_6 C38_6 1_555 1_555
H24_4 C39_4 1_555 1_555
H25_4 C40_4 1_555 1_555
H26_4 C41_4 1_555 1_555
C42_6 C28_6 1_555 1_555
C43_6 C27_6 1_555 1_555
C44_4 C39_4 1_555 1_555
C45_4 C31_4 1_555 1_555
C46_4 C30_4 1_555 1_555
C47_6 C42_6 1_555 1_555
C48_6 C43_6 1_555 1_555
C49_4 C44_4 1_555 1_555
C50_4 C45_4 1_555 1_555
C51_4 C46_4 1_555 1_555
H27_6 C47_6 1_555 1_555
H28_6 C48_6 1_555 1_555
H29_4 C49_4 1_555 1_555
H30_4 C50_4 1_555 1_555
H31_4 C51_4 1_555 1_555
C52_6 N16_6 1_555 1_555
C53_6 N17_6 1_555 1_555
C54_4 N18_4 1_555 1_555
C55_4 N19_4 1_555 1_555
C56_4 N20_4 1_555 1_555
H32_6 C52_6 1_555 1_555
H33_6 C53_6 1_555 1_555
H34_4 C54_4 1_555 1_555
H35_4 C55_4 1_555 1_555
H36_4 C56_4 1_555 1_555
Co3_5 N16_6 1_555 1_555
Co4_4 N17_6 1_555 1_555
Co6_4 N20_4 1_555 1_555
N21_7 Co1_4 1_555 1_555
C57_7 N21_7 1_555 1_555
S3_7 C57_7 1_555 1_555
N22_7 Co1_4 1_555 1_555
C58_7 N22_7 1_555 1_555
H37_7 C58_7 1_555 1_555
C59_7 C58_7 1_555 1_555
H38_7 C59_7 1_555 1_555
C60_7 C59_7 1_555 1_555
C61_7 C60_7 1_555 1_555
H39_7 C61_7 1_555 1_555
C62_7 N22_7 1_555 1_555
H40_7 C62_7 1_555 1_555
C63_7 N23_7 1_555 1_555
N23_7 C64_7 1_555 1_555
C64_7 C60_7 1_555 1_555
N24_7 C64_7 1_555 1_555
C65_7 N24_7 1_555 1_555
N25_7 C63_7 1_555 1_555
N27_3 C66_7 1_555 1_555
N27_8 Co2_8 1_555 1_555
N28_8 Co8_8 1_555 1_555
N29_8 Co8_8 1_555 1_555
C66_7 H41_7 1_555 1_555
C67_7 C66_7 1_555 1_555
H42_7 C67_7 1_555 1_555
C68_7 C63_7 1_555 1_555
C69_7 C68_7 1_555 1_555
H43_7 C69_7 1_555 1_555
C70_7 N27_3 1_555 1_555
H44_7 C70_7 1_555 1_555
N33_5 C71_7 1_555 1_555
N31_8 Co2_8 1_555 1_555
N32_8 Co2_8 1_555 1_555
N33_7 Co8_8 1_555 1_555
C71_7 H45_7 1_555 1_555
C72_7 C71_7 1_555 1_555
H46_7 C72_7 1_555 1_555
C73_7 C65_7 1_555 1_555
C74_7 C73_7 1_555 1_555
H47_7 C74_7 1_555 1_555
C75_7 N33_5 1_555 1_555
H48_7 C75_7 1_555 1_555
Co8_8 N9_7 1_555 1_555
N34_8 Co2_8 1_555 1_555
N35_8 Co8_8 1_555 1_555
N36_8 Co8_8 1_555 1_555
C76_8 N34_8 1_555 1_555
C77_8 N35_8 1_555 1_555
C78_8 N36_8 1_555 1_555
S4_8 C76_8 1_555 1_555
S5_8 C77_8 1_555 1_555
S6_8 C78_8 1_555 1_555
C5_6 C6_6 1_555 1_555
C11_7 C12_7 1_555 1_555
C15_7 N7_7 1_555 1_555
C17_7 C18_7 1_555 1_555
C19_7 C20_7 1_555 1_555
C22_7 C23_7 1_555 1_555
C24_7 C25_7 1_555 1_555
N12_6 C28_6 1_555 1_555
N15_4 C31_4 1_555 1_555
C37_6 C42_6 1_555 1_555
C38_6 C43_6 1_555 1_555
C40_4 C45_4 1_555 1_555
C41_4 C46_4 1_555 1_555
C47_6 C52_6 1_555 1_555
C48_6 C53_6 1_555 1_555
C49_4 C54_4 1_555 1_555
C50_4 C55_4 1_555 1_555
C51_4 C56_4 1_555 1_555
C61_7 C62_7 1_555 1_555
C65_7 N25_7 1_555 1_555
C67_7 C68_7 1_555 1_555
C69_7 C70_7 1_555 1_555
C72_7 C73_7 1_555 1_555
C74_7 C75_7 1_555 1_555
N29_9 Co8_9 1_555 1_555
N33_8 Co8_9 1_555 1_555
N36_9 Co8_9 1_555 1_555
C78_9 N36_9 1_555 1_555
S6_9 C78_9 1_555 1_555
N1_7 C1_7 1_555 1_555
C1_7 C4_7 1_555 1_555
N2_7 C2_7 1_555 1_555
C2_7 H1_7 1_555 1_555
C3_7 C2_7 1_555 1_555
H2_7 C3_7 1_555 1_555
C4_7 C3_7 1_555 1_555
C5_7 C4_7 1_555 1_555
H3_7 C5_7 1_555 1_555
C6_7 N2_7 1_555 1_555
H4_7 C6_7 1_555 1_555
Co1_5 N2_7 1_555 1_555
N3_8 Co1_5 1_555 1_555
C7_8 N3_8 1_555 1_555
S1_8 C7_8 1_555 1_555
N4_8 Co1_5 1_555 1_555
C8_8 N4_8 1_555 1_555
H5_8 C8_8 1_555 1_555
C9_8 C8_8 1_555 1_555
H6_8 C9_8 1_555 1_555
C10_8 C9_8 1_555 1_555
C11_8 C10_8 1_555 1_555
H7_8 C11_8 1_555 1_555
C12_8 N4_8 1_555 1_555
H8_8 C12_8 1_555 1_555
C13_8 N5_8 1_555 1_555
N5_8 C14_8 1_555 1_555
C14_8 C10_8 1_555 1_555
N6_8 C14_8 1_555 1_555
C15_8 N6_8 1_555 1_555
N7_8 C13_8 1_555 1_555
N8_8 C16_8 1_555 1_555
C16_8 H9_8 1_555 1_555
C17_8 C16_8 1_555 1_555
H10_8 C17_8 1_555 1_555
C18_8 C13_8 1_555 1_555
C19_8 C18_8 1_555 1_555
H11_8 C19_8 1_555 1_555
C20_8 N8_8 1_555 1_555
H12_8 C20_8 1_555 1_555
N9_8 C21_8 1_555 1_555
C21_8 H13_8 1_555 1_555
C22_8 C21_8 1_555 1_555
H14_8 C22_8 1_555 1_555
C23_8 C15_8 1_555 1_555
C24_8 C23_8 1_555 1_555
H15_8 C24_8 1_555 1_555
C25_8 N9_8 1_555 1_555
H16_8 C25_8 1_555 1_555
Co2_9 N8_8 1_555 1_555
N10_9 Co2_9 1_555 1_555
C26_9 N10_9 1_555 1_555
S2_9 C26_9 1_555 1_555
N11_7 C1_7 1_555 1_555
N12_7 C27_7 1_555 1_555
N13_5 C29_5 1_555 1_555
N14_5 C29_5 1_555 1_555
N15_5 C30_5 1_555 1_555
C27_7 N11_7 1_555 1_555
C28_7 N1_7 1_555 1_555
C29_5 C44_5 1_555 1_555
C30_5 N14_5 1_555 1_555
C31_5 N13_5 1_555 1_555
N16_7 C32_7 1_555 1_555
N17_7 C33_7 1_555 1_555
N18_5 Co1_5 1_555 1_555
N19_5 C35_5 1_555 1_555
N20_5 C36_5 1_555 1_555
C32_7 H17_7 1_555 1_555
C33_7 H18_7 1_555 1_555
C34_5 N18_5 1_555 1_555
C35_5 H20_5 1_555 1_555
C36_5 H21_5 1_555 1_555
H19_5 C34_5 1_555 1_555
C37_7 C32_7 1_555 1_555
C38_7 C33_7 1_555 1_555
C39_5 C34_5 1_555 1_555
C40_5 C35_5 1_555 1_555
C41_5 C36_5 1_555 1_555
H22_7 C37_7 1_555 1_555
H23_7 C38_7 1_555 1_555
H24_5 C39_5 1_555 1_555
H25_5 C40_5 1_555 1_555
H26_5 C41_5 1_555 1_555
C42_7 C28_7 1_555 1_555
C43_7 C27_7 1_555 1_555
C44_5 C39_5 1_555 1_555
C45_5 C31_5 1_555 1_555
C46_5 C30_5 1_555 1_555
C47_7 C42_7 1_555 1_555
C48_7 C43_7 1_555 1_555
C49_5 C44_5 1_555 1_555
C50_5 C45_5 1_555 1_555
C51_5 C46_5 1_555 1_555
H27_7 C47_7 1_555 1_555
H28_7 C48_7 1_555 1_555
H29_5 C49_5 1_555 1_555
H30_5 C50_5 1_555 1_555
H31_5 C51_5 1_555 1_555
C52_7 N16_7 1_555 1_555
C53_7 N17_7 1_555 1_555
C54_5 N18_5 1_555 1_555
C55_5 N19_5 1_555 1_555
C56_5 N20_5 1_555 1_555
H32_7 C52_7 1_555 1_555
H33_7 C53_7 1_555 1_555
H34_5 C54_5 1_555 1_555
H35_5 C55_5 1_555 1_555
H36_5 C56_5 1_555 1_555
Co4_5 N17_7 1_555 1_555
Co5_5 N19_5 1_555 1_555
Co6_5 N20_5 1_555 1_555
N21_8 Co1_5 1_555 1_555
C57_8 N21_8 1_555 1_555
S3_8 C57_8 1_555 1_555
N22_8 Co1_5 1_555 1_555
C58_8 N22_8 1_555 1_555
H37_8 C58_8 1_555 1_555
C59_8 C58_8 1_555 1_555
H38_8 C59_8 1_555 1_555
C60_8 C59_8 1_555 1_555
C61_8 C60_8 1_555 1_555
H39_8 C61_8 1_555 1_555
C62_8 N22_8 1_555 1_555
H40_8 C62_8 1_555 1_555
C63_8 N23_8 1_555 1_555
N23_8 C64_8 1_555 1_555
C64_8 C60_8 1_555 1_555
N24_8 C64_8 1_555 1_555
C65_8 N24_8 1_555 1_555
N25_8 C63_8 1_555 1_555
N26_7 C66_8 1_555 1_555
N27_9 Co2_9 1_555 1_555
N28_9 Co8_10 1_555 1_555
C66_8 H41_8 1_555 1_555
C67_8 C66_8 1_555 1_555
H42_8 C67_8 1_555 1_555
C68_8 C63_8 1_555 1_555
C69_8 C68_8 1_555 1_555
H43_8 C69_8 1_555 1_555
C70_8 N26_7 1_555 1_555
H44_8 C70_8 1_555 1_555
N30_6 C71_8 1_555 1_555
N31_9 Co2_9 1_555 1_555
N32_9 Co2_9 1_555 1_555
C71_8 H45_8 1_555 1_555
C72_8 C71_8 1_555 1_555
H46_8 C72_8 1_555 1_555
C73_8 C65_8 1_555 1_555
C74_8 C73_8 1_555 1_555
H47_8 C74_8 1_555 1_555
C75_8 N30_6 1_555 1_555
H48_8 C75_8 1_555 1_555
Co7_7 N26_7 1_555 1_555
Co8_10 N9_8 1_555 1_555
Co9_7 N30_6 1_555 1_555
N34_9 Co2_9 1_555 1_555
N35_9 Co8_10 1_555 1_555
C76_9 N34_9 1_555 1_555
C77_9 N35_9 1_555 1_555
S4_9 C76_9 1_555 1_555
S5_9 C77_9 1_555 1_555
C5_7 C6_7 1_555 1_555
C11_8 C12_8 1_555 1_555
C15_8 N7_8 1_555 1_555
C17_8 C18_8 1_555 1_555
C19_8 C20_8 1_555 1_555
C22_8 C23_8 1_555 1_555
C24_8 C25_8 1_555 1_555
N12_7 C28_7 1_555 1_555
N15_5 C31_5 1_555 1_555
C37_7 C42_7 1_555 1_555
C38_7 C43_7 1_555 1_555
C40_5 C45_5 1_555 1_555
C41_5 C46_5 1_555 1_555
C47_7 C52_7 1_555 1_555
C48_7 C53_7 1_555 1_555
C49_5 C54_5 1_555 1_555
C50_5 C55_5 1_555 1_555
C51_5 C56_5 1_555 1_555
C61_8 C62_8 1_555 1_555
C65_8 N25_8 1_555 1_555
C67_8 C68_8 1_555 1_555
C69_8 C70_8 1_555 1_555
C72_8 C73_8 1_555 1_555
C74_8 C75_8 1_555 1_555
N1_8 C1_8 1_555 1_555
C1_8 C4_8 1_555 1_555
N2_8 C2_8 1_555 1_555
C2_8 H1_8 1_555 1_555
C3_8 C2_8 1_555 1_555
H2_8 C3_8 1_555 1_555
C4_8 C3_8 1_555 1_555
C5_8 C4_8 1_555 1_555
H3_8 C5_8 1_555 1_555
C6_8 N2_8 1_555 1_555
H4_8 C6_8 1_555 1_555
S1_9 C7_9 1_555 1_555
N11_8 C1_8 1_555 1_555
N12_8 C27_8 1_555 1_555
N13_6 C29_6 1_555 1_555
N14_6 C29_6 1_555 1_555
N15_6 C30_6 1_555 1_555
C27_8 N11_8 1_555 1_555
C28_8 N1_8 1_555 1_555
C29_6 C44_6 1_555 1_555
C30_6 N14_6 1_555 1_555
C31_6 N13_6 1_555 1_555
N16_8 C32_8 1_555 1_555
N17_8 C33_8 1_555 1_555
N19_6 C35_6 1_555 1_555
N20_6 C36_6 1_555 1_555
C32_8 H17_8 1_555 1_555
C33_8 H18_8 1_555 1_555
C34_6 N18_6 1_555 1_555
C35_6 H20_6 1_555 1_555
C36_6 H21_6 1_555 1_555
H19_6 C34_6 1_555 1_555
C37_8 C32_8 1_555 1_555
C38_8 C33_8 1_555 1_555
C39_6 C34_6 1_555 1_555
C40_6 C35_6 1_555 1_555
C41_6 C36_6 1_555 1_555
H22_8 C37_8 1_555 1_555
H23_8 C38_8 1_555 1_555
H24_6 C39_6 1_555 1_555
H25_6 C40_6 1_555 1_555
H26_6 C41_6 1_555 1_555
C42_8 C28_8 1_555 1_555
C43_8 C27_8 1_555 1_555
C44_6 C39_6 1_555 1_555
C45_6 C31_6 1_555 1_555
C46_6 C30_6 1_555 1_555
C47_8 C42_8 1_555 1_555
C48_8 C43_8 1_555 1_555
C49_6 C44_6 1_555 1_555
C50_6 C45_6 1_555 1_555
C51_6 C46_6 1_555 1_555
H27_8 C47_8 1_555 1_555
H28_8 C48_8 1_555 1_555
H29_6 C49_6 1_555 1_555
H30_6 C50_6 1_555 1_555
H31_6 C51_6 1_555 1_555
C52_8 N16_8 1_555 1_555
C53_8 N17_8 1_555 1_555
C54_6 N18_6 1_555 1_555
C55_6 N19_6 1_555 1_555
C56_6 N20_6 1_555 1_555
H32_8 C52_8 1_555 1_555
H33_8 C53_8 1_555 1_555
H34_6 C54_6 1_555 1_555
H35_6 C55_6 1_555 1_555
H36_6 C56_6 1_555 1_555
Co6 N17_8 1_555 1_555
Co5 N19_6 1_555 1_555
Co4 N20_6 1_555 1_555
S3_9 C57_9 1_555 1_555
C5_8 C6_8 1_555 1_555
N12_8 C28_8 1_555 1_555
N15_6 C31_6 1_555 1_555
C37_8 C42_8 1_555 1_555
C38_8 C43_8 1_555 1_555
C40_6 C45_6 1_555 1_555
C41_6 C46_6 1_555 1_555
C47_8 C52_8 1_555 1_555
C48_8 C53_8 1_555 1_555
C49_6 C54_6 1_555 1_555
C50_6 C55_6 1_555 1_555
C51_6 C56_6 1_555 1_555
N3_9 Co1_6 1_555 1_555
N4_9 Co1_6 1_555 1_555
C8_9 N4_9 1_555 1_555
H5_9 C8_9 1_555 1_555
C9_9 C8_9 1_555 1_555
H6_9 C9_9 1_555 1_555
C10_9 C9_9 1_555 1_555
C11_9 C10_9 1_555 1_555
H7_9 C11_9 1_555 1_555
C12_9 N4_9 1_555 1_555
H8_9 C12_9 1_555 1_555
C13_9 N5_9 1_555 1_555
N5_9 C14_9 1_555 1_555
C14_9 C10_9 1_555 1_555
N6_9 C14_9 1_555 1_555
C15_9 N6_9 1_555 1_555
N7_9 C13_9 1_555 1_555
N8_9 C16_9 1_555 1_555
C16_9 H9_9 1_555 1_555
C17_9 C16_9 1_555 1_555
H10_9 C17_9 1_555 1_555
C18_9 C13_9 1_555 1_555
C19_9 C18_9 1_555 1_555
H11_9 C19_9 1_555 1_555
C20_9 N8_9 1_555 1_555
H12_9 C20_9 1_555 1_555
N9_9 C21_9 1_555 1_555
C21_9 H13_9 1_555 1_555
C22_9 C21_9 1_555 1_555
H14_9 C22_9 1_555 1_555
C23_9 C15_9 1_555 1_555
C24_9 C23_9 1_555 1_555
H15_9 C24_9 1_555 1_555
C25_9 N9_9 1_555 1_555
H16_9 C25_9 1_555 1_555
Co2_10 N8_9 1_555 1_555
N10_10 Co2_10 1_555 1_555
C26_10 N10_10 1_555 1_555
S2_10 C26_10 1_555 1_555
N21_9 Co1_6 1_555 1_555
N22_9 Co1_6 1_555 1_555
C58_9 N22_9 1_555 1_555
H37_9 C58_9 1_555 1_555
C59_9 C58_9 1_555 1_555
H38_9 C59_9 1_555 1_555
C60_9 C59_9 1_555 1_555
C61_9 C60_9 1_555 1_555
H39_9 C61_9 1_555 1_555
C62_9 N22_9 1_555 1_555
H40_9 C62_9 1_555 1_555
C63_9 N23_9 1_555 1_555
N23_9 C64_9 1_555 1_555
C64_9 C60_9 1_555 1_555
N24_9 C64_9 1_555 1_555
C65_9 N24_9 1_555 1_555
N25_9 C63_9 1_555 1_555
N26_8 C66_9 1_555 1_555
N27_10 Co2_10 1_555 1_555
N28_10 Co8_11 1_555 1_555
C66_9 H41_9 1_555 1_555
C67_9 C66_9 1_555 1_555
H42_9 C67_9 1_555 1_555
C68_9 C63_9 1_555 1_555
C69_9 C68_9 1_555 1_555
H43_9 C69_9 1_555 1_555
C70_9 N26_8 1_555 1_555
H44_9 C70_9 1_555 1_555
N30_7 C71_9 1_555 1_555
N31_10 Co2_10 1_555 1_555
N32_10 Co2_10 1_555 1_555
C71_9 H45_9 1_555 1_555
C72_9 C71_9 1_555 1_555
H46_9 C72_9 1_555 1_555
C73_9 C65_9 1_555 1_555
C74_9 C73_9 1_555 1_555
H47_9 C74_9 1_555 1_555
C75_9 N30_7 1_555 1_555
H48_9 C75_9 1_555 1_555
Co7_8 N26_8 1_555 1_555
Co8_11 N9_9 1_555 1_555
Co9_8 N30_7 1_555 1_555
N34_10 Co2_10 1_555 1_555
N35_10 Co8_11 1_555 1_555
C76_10 N34_10 1_555 1_555
C77_10 N35_10 1_555 1_555
S4_10 C76_10 1_555 1_555
S5_10 C77_10 1_555 1_555
C11_9 C12_9 1_555 1_555
C15_9 N7_9 1_555 1_555
C17_9 C18_9 1_555 1_555
C19_9 C20_9 1_555 1_555
C22_9 C23_9 1_555 1_555
C24_9 C25_9 1_555 1_555
C61_9 C62_9 1_555 1_555
C65_9 N25_9 1_555 1_555
C67_9 C68_9 1_555 1_555
C69_9 C70_9 1_555 1_555
C72_9 C73_9 1_555 1_555
C74_9 C75_9 1_555 1_555
N29_10 Co8_12 1_555 1_555
N33_9 Co8_12 1_555 1_555
N36_10 Co8_12 1_555 1_555
C78_10 N36_10 1_555 1_555
S6_10 C78_10 1_555 1_555
N10_11 Co7_8 1_555 1_555
C26_11 N10_11 1_555 1_555
S2_11 C26_11 1_555 1_555
N27_11 Co7_8 1_555 1_555
N28_11 Co9_8 1_555 1_555
N29_11 Co9_8 1_555 1_555
N31_11 Co7_8 1_555 1_555
N32_11 Co7_8 1_555 1_555
N33_10 Co9_8 1_555 1_555
N34_11 Co7_8 1_555 1_555
N35_11 Co9_8 1_555 1_555
N36_11 Co9_8 1_555 1_555
C76_11 N34_11 1_555 1_555
C77_11 N35_11 1_555 1_555
C78_11 N36_11 1_555 1_555
S4_11 C76_11 1_555 1_555
S5_11 C77_11 1_555 1_555
S6_11 C78_11 1_555 1_555
N29_12 Co8_13 1_555 1_555
N33_11 Co8_13 1_555 1_555
N36_12 Co8_13 1_555 1_555
C78_12 N36_12 1_555 1_555
S6_12 C78_12 1_555 1_555
N1_9 C1_9 1_555 1_555
C1_9 C4_9 1_555 1_555
N2_9 C2_9 1_555 1_555
C2_9 H1_9 1_555 1_555
C3_9 C2_9 1_555 1_555
H2_9 C3_9 1_555 1_555
C4_9 C3_9 1_555 1_555
C5_9 C4_9 1_555 1_555
H3_9 C5_9 1_555 1_555
C6_9 N2_9 1_555 1_555
H4_9 C6_9 1_555 1_555
Co1_7 N2_9 1_555 1_555
N3_10 Co1_7 1_555 1_555
C7_10 N3_10 1_555 1_555
S1_10 C7_10 1_555 1_555
N4_10 Co1_7 1_555 1_555
C8_10 N4_10 1_555 1_555
H5_10 C8_10 1_555 1_555
C9_10 C8_10 1_555 1_555
H6_10 C9_10 1_555 1_555
C10_10 C9_10 1_555 1_555
C11_10 C10_10 1_555 1_555
H7_10 C11_10 1_555 1_555
C12_10 N4_10 1_555 1_555
H8_10 C12_10 1_555 1_555
C13_10 N5_10 1_555 1_555
N5_10 C14_10 1_555 1_555
C14_10 C10_10 1_555 1_555
N6_10 C14_10 1_555 1_555
C15_10 N6_10 1_555 1_555
N7_10 C13_10 1_555 1_555
N27_11 C16_10 1_555 1_555
C16_10 H9_10 1_555 1_555
C17_10 C16_10 1_555 1_555
H10_10 C17_10 1_555 1_555
C18_10 C13_10 1_555 1_555
C19_10 C18_10 1_555 1_555
H11_10 C19_10 1_555 1_555
C20_10 N27_11 1_555 1_555
H12_10 C20_10 1_555 1_555
N9_10 C21_10 1_555 1_555
C21_10 H13_10 1_555 1_555
C22_10 C21_10 1_555 1_555
H14_10 C22_10 1_555 1_555
C23_10 C15_10 1_555 1_555
C24_10 C23_10 1_555 1_555
H15_10 C24_10 1_555 1_555
C25_10 N9_10 1_555 1_555
H16_10 C25_10 1_555 1_555
N11_9 C1_9 1_555 1_555
N12_9 C27_9 1_555 1_555
N13_7 C29_7 1_555 1_555
N14_7 C29_7 1_555 1_555
N15_7 C30_7 1_555 1_555
C27_9 N11_9 1_555 1_555
C28_9 N1_9 1_555 1_555
C29_7 C44_7 1_555 1_555
C30_7 N14_7 1_555 1_555
C31_7 N13_7 1_555 1_555
N16_9 C32_9 1_555 1_555
N17_9 C33_9 1_555 1_555
N18_7 Co1_7 1_555 1_555
N19_7 C35_7 1_555 1_555
N20_7 C36_7 1_555 1_555
C32_9 H17_9 1_555 1_555
C33_9 H18_9 1_555 1_555
C34_7 N18_7 1_555 1_555
C35_7 H20_7 1_555 1_555
C36_7 H21_7 1_555 1_555
H19_7 C34_7 1_555 1_555
C37_9 C32_9 1_555 1_555
C38_9 C33_9 1_555 1_555
C39_7 C34_7 1_555 1_555
C40_7 C35_7 1_555 1_555
C41_7 C36_7 1_555 1_555
H22_9 C37_9 1_555 1_555
H23_9 C38_9 1_555 1_555
H24_7 C39_7 1_555 1_555
H25_7 C40_7 1_555 1_555
H26_7 C41_7 1_555 1_555
C42_9 C28_9 1_555 1_555
C43_9 C27_9 1_555 1_555
C44_7 C39_7 1_555 1_555
C45_7 C31_7 1_555 1_555
C46_7 C30_7 1_555 1_555
C47_9 C42_9 1_555 1_555
C48_9 C43_9 1_555 1_555
C49_7 C44_7 1_555 1_555
C50_7 C45_7 1_555 1_555
C51_7 C46_7 1_555 1_555
H27_9 C47_9 1_555 1_555
H28_9 C48_9 1_555 1_555
H29_7 C49_7 1_555 1_555
H30_7 C50_7 1_555 1_555
H31_7 C51_7 1_555 1_555
C52_9 N16_9 1_555 1_555
C53_9 N17_9 1_555 1_555
C54_7 N18_7 1_555 1_555
C55_7 N19_7 1_555 1_555
C56_7 N20_7 1_555 1_555
H32_9 C52_9 1_555 1_555
H33_9 C53_9 1_555 1_555
H34_7 C54_7 1_555 1_555
H35_7 C55_7 1_555 1_555
H36_7 C56_7 1_555 1_555
Co6_5 N17_9 1_555 1_555
Co5_5 N19_7 1_555 1_555
Co4_5 N20_7 1_555 1_555
N21_10 Co1_7 1_555 1_555
C57_10 N21_10 1_555 1_555
S3_10 C57_10 1_555 1_555
N22_10 Co1_7 1_555 1_555
C58_10 N22_10 1_555 1_555
H37_10 C58_10 1_555 1_555
C59_10 C58_10 1_555 1_555
H38_10 C59_10 1_555 1_555
C60_10 C59_10 1_555 1_555
C61_10 C60_10 1_555 1_555
H39_10 C61_10 1_555 1_555
C62_10 N22_10 1_555 1_555
H40_10 C62_10 1_555 1_555
C63_10 N23_10 1_555 1_555
N23_10 C64_10 1_555 1_555
C64_10 C60_10 1_555 1_555
N24_10 C64_10 1_555 1_555
C65_10 N24_10 1_555 1_555
N25_10 C63_10 1_555 1_555
N26_9 C66_10 1_555 1_555
N28_12 Co8_14 1_555 1_555
C66_10 H41_10 1_555 1_555
C67_10 C66_10 1_555 1_555
H42_10 C67_10 1_555 1_555
C68_10 C63_10 1_555 1_555
C69_10 C68_10 1_555 1_555
H43_10 C69_10 1_555 1_555
C70_10 N26_9 1_555 1_555
H44_10 C70_10 1_555 1_555
N30_8 C71_10 1_555 1_555
C71_10 H45_10 1_555 1_555
C72_10 C71_10 1_555 1_555
H46_10 C72_10 1_555 1_555
C73_10 C65_10 1_555 1_555
C74_10 C73_10 1_555 1_555
H47_10 C74_10 1_555 1_555
C75_10 N30_8 1_555 1_555
H48_10 C75_10 1_555 1_555
Co7_9 N26_9 1_555 1_555
Co8_14 N9_10 1_555 1_555
Co9_9 N30_8 1_555 1_555
N35_12 Co8_14 1_555 1_555
C77_12 N35_12 1_555 1_555
S5_12 C77_12 1_555 1_555
C5_9 C6_9 1_555 1_555
C11_10 C12_10 1_555 1_555
C15_10 N7_10 1_555 1_555
C17_10 C18_10 1_555 1_555
C19_10 C20_10 1_555 1_555
C22_10 C23_10 1_555 1_555
C24_10 C25_10 1_555 1_555
N12_9 C28_9 1_555 1_555
N15_7 C31_7 1_555 1_555
C37_9 C42_9 1_555 1_555
C38_9 C43_9 1_555 1_555
C40_7 C45_7 1_555 1_555
C41_7 C46_7 1_555 1_555
C47_9 C52_9 1_555 1_555
C48_9 C53_9 1_555 1_555
C49_7 C54_7 1_555 1_555
C50_7 C55_7 1_555 1_555
C51_7 C56_7 1_555 1_555
C61_10 C62_10 1_555 1_555
C65_10 N25_10 1_555 1_555
C67_10 C68_10 1_555 1_555
C69_10 C70_10 1_555 1_555
C72_10 C73_10 1_555 1_555
C74_10 C75_10 1_555 1_555
N3_11 Co5_5 1_555 1_555
C7_11 N3_11 1_555 1_555
S1_11 C7_11 1_555 1_555
N4_11 Co5_5 1_555 1_555
C8_11 N4_11 1_555 1_555
H5_11 C8_11 1_555 1_555
C9_11 C8_11 1_555 1_555
H6_11 C9_11 1_555 1_555
C10_11 C9_11 1_555 1_555
C11_11 C10_11 1_555 1_555
H7_11 C11_11 1_555 1_555
C12_11 N4_11 1_555 1_555
H8_11 C12_11 1_555 1_555
C13_11 N5_11 1_555 1_555
N5_11 C14_11 1_555 1_555
C14_11 C10_11 1_555 1_555
N6_11 C14_11 1_555 1_555
C15_11 N6_11 1_555 1_555
N7_11 C13_11 1_555 1_555
N8_10 C16_11 1_555 1_555
C16_11 H9_11 1_555 1_555
C17_11 C16_11 1_555 1_555
H10_11 C17_11 1_555 1_555
C18_11 C13_11 1_555 1_555
C19_11 C18_11 1_555 1_555
H11_11 C19_11 1_555 1_555
C20_11 N8_10 1_555 1_555
H12_11 C20_11 1_555 1_555
N9_11 C21_11 1_555 1_555
C21_11 H13_11 1_555 1_555
C22_11 C21_11 1_555 1_555
H14_11 C22_11 1_555 1_555
C23_11 C15_11 1_555 1_555
C24_11 C23_11 1_555 1_555
H15_11 C24_11 1_555 1_555
C25_11 N9_11 1_555 1_555
H16_11 C25_11 1_555 1_555
Co2_11 N8_10 1_555 1_555
N10_12 Co2_11 1_555 1_555
C26_12 N10_12 1_555 1_555
S2_12 C26_12 1_555 1_555
N21_11 Co5_5 1_555 1_555
C57_11 N21_11 1_555 1_555
S3_11 C57_11 1_555 1_555
N22_11 Co5_5 1_555 1_555
C58_11 N22_11 1_555 1_555
H37_11 C58_11 1_555 1_555
C59_11 C58_11 1_555 1_555
H38_11 C59_11 1_555 1_555
C60_11 C59_11 1_555 1_555
C61_11 C60_11 1_555 1_555
H39_11 C61_11 1_555 1_555
C62_11 N22_11 1_555 1_555
H40_11 C62_11 1_555 1_555
C63_11 N23_11 1_555 1_555
N23_11 C64_11 1_555 1_555
C64_11 C60_11 1_555 1_555
N24_11 C64_11 1_555 1_555
C65_11 N24_11 1_555 1_555
N25_11 C63_11 1_555 1_555
N26_10 C66_11 1_555 1_555
N27_12 Co2_11 1_555 1_555
N28_13 Co8_15 1_555 1_555
N29_13 Co8_15 1_555 1_555
C66_11 H41_11 1_555 1_555
C67_11 C66_11 1_555 1_555
H42_11 C67_11 1_555 1_555
C68_11 C63_11 1_555 1_555
C69_11 C68_11 1_555 1_555
H43_11 C69_11 1_555 1_555
C70_11 N26_10 1_555 1_555
H44_11 C70_11 1_555 1_555
N33_7 C71_11 1_555 1_555
N31_12 Co2_11 1_555 1_555
N32_12 Co2_11 1_555 1_555
N33_12 Co8_15 1_555 1_555
C71_11 H45_11 1_555 1_555
C72_11 C71_11 1_555 1_555
H46_11 C72_11 1_555 1_555
C73_11 C65_11 1_555 1_555
C74_11 C73_11 1_555 1_555
H47_11 C74_11 1_555 1_555
C75_11 N33_7 1_555 1_555
H48_11 C75_11 1_555 1_555
Co7_10 N26_10 1_555 1_555
Co8_15 N9_11 1_555 1_555
N34_12 Co2_11 1_555 1_555
N35_13 Co8_15 1_555 1_555
N36_13 Co8_15 1_555 1_555
C76_12 N34_12 1_555 1_555
C77_13 N35_13 1_555 1_555
C78_13 N36_13 1_555 1_555
S4_12 C76_12 1_555 1_555
S5_13 C77_13 1_555 1_555
S6_13 C78_13 1_555 1_555
C11_11 C12_11 1_555 1_555
C15_11 N7_11 1_555 1_555
C17_11 C18_11 1_555 1_555
C19_11 C20_11 1_555 1_555
C22_11 C23_11 1_555 1_555
C24_11 C25_11 1_555 1_555
C61_11 C62_11 1_555 1_555
C65_11 N25_11 1_555 1_555
C67_11 C68_11 1_555 1_555
C69_11 C70_11 1_555 1_555
C72_11 C73_11 1_555 1_555
C74_11 C75_11 1_555 1_555
N10_13 Co7_5 1_555 1_555
C26_13 N10_13 1_555 1_555
S2_13 C26_13 1_555 1_555
N27_13 Co7_5 1_555 1_555
N31_13 Co7_5 1_555 1_555
N32_13 Co7_5 1_555 1_555
N34_13 Co7_5 1_555 1_555
C76_13 N34_13 1_555 1_555
S4_13 C76_13 1_555 1_555
N1_10 C1_10 1_555 1_555
C1_10 C4_10 1_555 1_555
N2_10 C2_10 1_555 1_555
C2_10 H1_10 1_555 1_555
C3_10 C2_10 1_555 1_555
H2_10 C3_10 1_555 1_555
C4_10 C3_10 1_555 1_555
C5_10 C4_10 1_555 1_555
H3_10 C5_10 1_555 1_555
C6_10 N2_10 1_555 1_555
H4_10 C6_10 1_555 1_555
Co4_4 N2_10 1_555 1_555
N3_12 Co4_4 1_555 1_555
C7_12 N3_12 1_555 1_555
S1_12 C7_12 1_555 1_555
N4_12 Co4_4 1_555 1_555
C8_12 N4_12 1_555 1_555
H5_12 C8_12 1_555 1_555
C9_12 C8_12 1_555 1_555
H6_12 C9_12 1_555 1_555
C10_12 C9_12 1_555 1_555
C11_12 C10_12 1_555 1_555
H7_12 C11_12 1_555 1_555
C12_12 N4_12 1_555 1_555
H8_12 C12_12 1_555 1_555
C13_12 N5_12 1_555 1_555
N5_12 C14_12 1_555 1_555
C14_12 C10_12 1_555 1_555
N6_12 C14_12 1_555 1_555
C15_12 N6_12 1_555 1_555
N7_12 C13_12 1_555 1_555
N8_11 C16_12 1_555 1_555
C16_12 H9_12 1_555 1_555
C17_12 C16_12 1_555 1_555
H10_12 C17_12 1_555 1_555
C18_12 C13_12 1_555 1_555
C19_12 C18_12 1_555 1_555
H11_12 C19_12 1_555 1_555
C20_12 N8_11 1_555 1_555
H12_12 C20_12 1_555 1_555
N9_12 C21_12 1_555 1_555
C21_12 H13_12 1_555 1_555
C22_12 C21_12 1_555 1_555
H14_12 C22_12 1_555 1_555
C23_12 C15_12 1_555 1_555
C24_12 C23_12 1_555 1_555
H15_12 C24_12 1_555 1_555
C25_12 N9_12 1_555 1_555
H16_12 C25_12 1_555 1_555
Co2_12 N8_11 1_555 1_555
N10_14 Co2_12 1_555 1_555
C26_14 N10_14 1_555 1_555
S2_14 C26_14 1_555 1_555
N11_10 C1_10 1_555 1_555
N12_10 C27_10 1_555 1_555
C27_10 N11_10 1_555 1_555
C28_10 N1_10 1_555 1_555
N16_10 C32_10 1_555 1_555
N17_10 C33_10 1_555 1_555
C32_10 H17_10 1_555 1_555
C33_10 H18_10 1_555 1_555
C37_10 C32_10 1_555 1_555
C38_10 C33_10 1_555 1_555
H22_10 C37_10 1_555 1_555
H23_10 C38_10 1_555 1_555
C42_10 C28_10 1_555 1_555
C43_10 C27_10 1_555 1_555
C47_10 C42_10 1_555 1_555
C48_10 C43_10 1_555 1_555
H27_10 C47_10 1_555 1_555
H28_10 C48_10 1_555 1_555
C52_10 N16_10 1_555 1_555
C53_10 N17_10 1_555 1_555
H32_10 C52_10 1_555 1_555
H33_10 C53_10 1_555 1_555
N21_12 Co4_4 1_555 1_555
C57_12 N21_12 1_555 1_555
S3_12 C57_12 1_555 1_555
N22_12 Co4_4 1_555 1_555
C58_12 N22_12 1_555 1_555
H37_12 C58_12 1_555 1_555
C59_12 C58_12 1_555 1_555
H38_12 C59_12 1_555 1_555
C60_12 C59_12 1_555 1_555
C61_12 C60_12 1_555 1_555
H39_12 C61_12 1_555 1_555
C62_12 N22_12 1_555 1_555
H40_12 C62_12 1_555 1_555
C63_12 N23_12 1_555 1_555
N23_12 C64_12 1_555 1_555
C64_12 C60_12 1_555 1_555
N24_12 C64_12 1_555 1_555
C65_12 N24_12 1_555 1_555
N25_12 C63_12 1_555 1_555
N26_11 C66_12 1_555 1_555
N28_14 Co8_16 1_555 1_555
C66_12 H41_12 1_555 1_555
C67_12 C66_12 1_555 1_555
H42_12 C67_12 1_555 1_555
C68_12 C63_12 1_555 1_555
C69_12 C68_12 1_555 1_555
H43_12 C69_12 1_555 1_555
C70_12 N26_11 1_555 1_555
H44_12 C70_12 1_555 1_555
N30_9 C71_12 1_555 1_555
N31_14 Co2_12 1_555 1_555
C71_12 H45_12 1_555 1_555
C72_12 C71_12 1_555 1_555
H46_12 C72_12 1_555 1_555
C73_12 C65_12 1_555 1_555
C74_12 C73_12 1_555 1_555
H47_12 C74_12 1_555 1_555
C75_12 N30_9 1_555 1_555
H48_12 C75_12 1_555 1_555
Co7_9 N26_11 1_555 1_555
Co8_16 N9_12 1_555 1_555
Co9_10 N30_9 1_555 1_555
N35_14 Co8_16 1_555 1_555
C77_14 N35_14 1_555 1_555
S5_14 C77_14 1_555 1_555
C5_10 C6_10 1_555 1_555
C11_12 C12_12 1_555 1_555
C15_12 N7_12 1_555 1_555
C17_12 C18_12 1_555 1_555
C19_12 C20_12 1_555 1_555
C22_12 C23_12 1_555 1_555
C24_12 C25_12 1_555 1_555
N12_10 C28_10 1_555 1_555
C37_10 C42_10 1_555 1_555
C38_10 C43_10 1_555 1_555
C47_10 C52_10 1_555 1_555
C48_10 C53_10 1_555 1_555
C61_12 C62_12 1_555 1_555
C65_12 N25_12 1_555 1_555
C67_12 C68_12 1_555 1_555
C69_12 C70_12 1_555 1_555
C72_12 C73_12 1_555 1_555
C74_12 C75_12 1_555 1_555
N27_14 Co2_13 1_555 1_555
N32_14 Co2_13 1_555 1_555
N34_14 Co2_13 1_555 1_555
C76_14 N34_14 1_555 1_555
S4_14 C76_14 1_555 1_555
N29_14 Co8_17 1_555 1_555
N33_13 Co8_17 1_555 1_555
N36_14 Co8_17 1_555 1_555
C78_14 N36_14 1_555 1_555
S6_14 C78_14 1_555 1_555
N10_15 Co7_7 1_555 1_555
C26_15 N10_15 1_555 1_555
S2_15 C26_15 1_555 1_555
N27_15 Co7_7 1_555 1_555
N28_15 Co9_7 1_555 1_555
N29_15 Co9_7 1_555 1_555
N31_15 Co7_7 1_555 1_555
N32_15 Co7_7 1_555 1_555
N33_14 Co9_7 1_555 1_555
N34_15 Co7_7 1_555 1_555
N35_15 Co9_7 1_555 1_555
N36_15 Co9_7 1_555 1_555
C76_15 N34_15 1_555 1_555
C77_15 N35_15 1_555 1_555
C78_15 N36_15 1_555 1_555
S4_15 C76_15 1_555 1_555
S5_15 C77_15 1_555 1_555
S6_15 C78_15 1_555 1_555
N27_16 Co2_14 1_555 1_555
N32_16 Co2_14 1_555 1_555
N34_16 Co2_14 1_555 1_555
C76_16 N34_16 1_555 1_555
S4_16 C76_16 1_555 1_555
N3_13 Co6_5 1_555 1_555
C7_13 N3_13 1_555 1_555
S1_13 C7_13 1_555 1_555
N4_13 Co6_5 1_555 1_555
C8_13 N4_13 1_555 1_555
H5_13 C8_13 1_555 1_555
C9_13 C8_13 1_555 1_555
H6_13 C9_13 1_555 1_555
C10_13 C9_13 1_555 1_555
C11_13 C10_13 1_555 1_555
H7_13 C11_13 1_555 1_555
C12_13 N4_13 1_555 1_555
H8_13 C12_13 1_555 1_555
C13_13 N5_13 1_555 1_555
N5_13 C14_13 1_555 1_555
C14_13 C10_13 1_555 1_555
N6_13 C14_13 1_555 1_555
C15_13 N6_13 1_555 1_555
N7_13 C13_13 1_555 1_555
N8_12 C16_13 1_555 1_555
C16_13 H9_13 1_555 1_555
C17_13 C16_13 1_555 1_555
H10_13 C17_13 1_555 1_555
C18_13 C13_13 1_555 1_555
C19_13 C18_13 1_555 1_555
H11_13 C19_13 1_555 1_555
C20_13 N8_12 1_555 1_555
H12_13 C20_13 1_555 1_555
N33_10 C21_13 1_555 1_555
C21_13 H13_13 1_555 1_555
C22_13 C21_13 1_555 1_555
H14_13 C22_13 1_555 1_555
C23_13 C15_13 1_555 1_555
C24_13 C23_13 1_555 1_555
H15_13 C24_13 1_555 1_555
C25_13 N33_10 1_555 1_555
H16_13 C25_13 1_555 1_555
Co2_15 N8_12 1_555 1_555
N10_16 Co2_15 1_555 1_555
C26_16 N10_16 1_555 1_555
S2_16 C26_16 1_555 1_555
N21_13 Co6_5 1_555 1_555
C57_13 N21_13 1_555 1_555
S3_13 C57_13 1_555 1_555
N22_13 Co6_5 1_555 1_555
C58_13 N22_13 1_555 1_555
H37_13 C58_13 1_555 1_555
C59_13 C58_13 1_555 1_555
H38_13 C59_13 1_555 1_555
C60_13 C59_13 1_555 1_555
C61_13 C60_13 1_555 1_555
H39_13 C61_13 1_555 1_555
C62_13 N22_13 1_555 1_555
H40_13 C62_13 1_555 1_555
C63_13 N23_13 1_555 1_555
N23_13 C64_13 1_555 1_555
C64_13 C60_13 1_555 1_555
N24_13 C64_13 1_555 1_555
C65_13 N24_13 1_555 1_555
N25_13 C63_13 1_555 1_555
N26_12 C66_13 1_555 1_555
C66_13 H41_13 1_555 1_555
C67_13 C66_13 1_555 1_555
H42_13 C67_13 1_555 1_555
C68_13 C63_13 1_555 1_555
C69_13 C68_13 1_555 1_555
H43_13 C69_13 1_555 1_555
C70_13 N26_12 1_555 1_555
H44_13 C70_13 1_555 1_555
N30_10 C71_13 1_555 1_555
N31_16 Co2_15 1_555 1_555
C71_13 H45_13 1_555 1_555
C72_13 C71_13 1_555 1_555
H46_13 C72_13 1_555 1_555
C73_13 C65_13 1_555 1_555
C74_13 C73_13 1_555 1_555
H47_13 C74_13 1_555 1_555
C75_13 N30_10 1_555 1_555
H48_13 C75_13 1_555 1_555
Co7_11 N26_12 1_555 1_555
Co9_11 N30_10 1_555 1_555
C11_13 C12_13 1_555 1_555
C15_13 N7_13 1_555 1_555
C17_13 C18_13 1_555 1_555
C19_13 C20_13 1_555 1_555
C22_13 C23_13 1_555 1_555
C24_13 C25_13 1_555 1_555
C61_13 C62_13 1_555 1_555
C65_13 N25_13 1_555 1_555
C67_13 C68_13 1_555 1_555
C69_13 C70_13 1_555 1_555
C72_13 C73_13 1_555 1_555
C74_13 C75_13 1_555 1_555
N3_14 Co3_6 1_555 1_555
N4_14 Co3_6 1_555 1_555
C8_14 N4_14 1_555 1_555
H5_14 C8_14 1_555 1_555
C9_14 C8_14 1_555 1_555
H6_14 C9_14 1_555 1_555
C10_14 C9_14 1_555 1_555
C11_14 C10_14 1_555 1_555
H7_14 C11_14 1_555 1_555
C12_14 N4_14 1_555 1_555
H8_14 C12_14 1_555 1_555
C13_14 N5_14 1_555 1_555
N5_14 C14_14 1_555 1_555
C14_14 C10_14 1_555 1_555
N6_14 C14_14 1_555 1_555
C15_14 N6_14 1_555 1_555
N7_14 C13_14 1_555 1_555
N8_13 C16_14 1_555 1_555
C16_14 H9_14 1_555 1_555
C17_14 C16_14 1_555 1_555
H10_14 C17_14 1_555 1_555
C18_14 C13_14 1_555 1_555
C19_14 C18_14 1_555 1_555
H11_14 C19_14 1_555 1_555
C20_14 N8_13 1_555 1_555
H12_14 C20_14 1_555 1_555
N9_13 C21_14 1_555 1_555
C21_14 H13_14 1_555 1_555
C22_14 C21_14 1_555 1_555
H14_14 C22_14 1_555 1_555
C23_14 C15_14 1_555 1_555
C24_14 C23_14 1_555 1_555
H15_14 C24_14 1_555 1_555
C25_14 N9_13 1_555 1_555
H16_14 C25_14 1_555 1_555
Co2_16 N8_13 1_555 1_555
N10_17 Co2_16 1_555 1_555
C26_17 N10_17 1_555 1_555
S2_17 C26_17 1_555 1_555
N21_14 Co3_6 1_555 1_555
N22_14 Co3_6 1_555 1_555
C58_14 N22_14 1_555 1_555
H37_14 C58_14 1_555 1_555
C59_14 C58_14 1_555 1_555
H38_14 C59_14 1_555 1_555
C60_14 C59_14 1_555 1_555
C61_14 C60_14 1_555 1_555
H39_14 C61_14 1_555 1_555
C62_14 N22_14 1_555 1_555
H40_14 C62_14 1_555 1_555
C63_14 N23_14 1_555 1_555
N23_14 C64_14 1_555 1_555
C64_14 C60_14 1_555 1_555
N24_14 C64_14 1_555 1_555
C65_14 N24_14 1_555 1_555
N25_14 C63_14 1_555 1_555
N26_13 C66_14 1_555 1_555
N27_17 Co2_16 1_555 1_555
N28_16 Co8_18 1_555 1_555
N29_16 Co8_18 1_555 1_555
C66_14 H41_14 1_555 1_555
C67_14 C66_14 1_555 1_555
H42_14 C67_14 1_555 1_555
C68_14 C63_14 1_555 1_555
C69_14 C68_14 1_555 1_555
H43_14 C69_14 1_555 1_555
C70_14 N26_13 1_555 1_555
H44_14 C70_14 1_555 1_555
N30_11 C71_14 1_555 1_555
N31_17 Co2_16 1_555 1_555
N32_17 Co2_16 1_555 1_555
N33_15 Co8_18 1_555 1_555
C71_14 H45_14 1_555 1_555
C72_14 C71_14 1_555 1_555
H46_14 C72_14 1_555 1_555
C73_14 C65_14 1_555 1_555
C74_14 C73_14 1_555 1_555
H47_14 C74_14 1_555 1_555
C75_14 N30_11 1_555 1_555
H48_14 C75_14 1_555 1_555
Co7_12 N26_13 1_555 1_555
Co8_18 N9_13 1_555 1_555
Co9_12 N30_11 1_555 1_555
N34_17 Co2_16 1_555 1_555
N35_16 Co8_18 1_555 1_555
N36_16 Co8_18 1_555 1_555
C76_17 N34_17 1_555 1_555
C77_16 N35_16 1_555 1_555
C78_16 N36_16 1_555 1_555
S4_17 C76_17 1_555 1_555
S5_16 C77_16 1_555 1_555
S6_16 C78_16 1_555 1_555
C11_14 C12_14 1_555 1_555
C15_14 N7_14 1_555 1_555
C17_14 C18_14 1_555 1_555
C19_14 C20_14 1_555 1_555
C22_14 C23_14 1_555 1_555
C24_14 C25_14 1_555 1_555
C61_14 C62_14 1_555 1_555
C65_14 N25_14 1_555 1_555
C67_14 C68_14 1_555 1_555
C69_14 C70_14 1_555 1_555
C72_14 C73_14 1_555 1_555
C74_14 C75_14 1_555 1_555
S1_14 C7_14 1_555 1_555
S3_14 C57_14 1_555 1_555
N10_18 Co7_12 1_555 1_555
C26_18 N10_18 1_555 1_555
S2_18 C26_18 1_555 1_555
N27_18 Co7_12 1_555 1_555
N28_17 Co9_12 1_555 1_555
N29_17 Co9_12 1_555 1_555
N31_18 Co7_12 1_555 1_555
N32_18 Co7_12 1_555 1_555
N33_16 Co9_12 1_555 1_555
N34_18 Co7_12 1_555 1_555
N35_17 Co9_12 1_555 1_555
N36_17 Co9_12 1_555 1_555
C76_18 N34_18 1_555 1_555
C77_17 N35_17 1_555 1_555
C78_17 N36_17 1_555 1_555
S4_18 C76_18 1_555 1_555
S5_17 C77_17 1_555 1_555
S6_17 C78_17 1_555 1_555
N1_11 C1_11 1_555 1_555
C1_11 C4_11 1_555 1_555
N2_11 C2_11 1_555 1_555
C2_11 H1_11 1_555 1_555
C3_11 C2_11 1_555 1_555
H2_11 C3_11 1_555 1_555
C4_11 C3_11 1_555 1_555
C5_11 C4_11 1_555 1_555
H3_11 C5_11 1_555 1_555
C6_11 N2_11 1_555 1_555
H4_11 C6_11 1_555 1_555
Co1_8 N2_11 1_555 1_555
N3_15 Co1_8 1_555 1_555
C7_15 N3_15 1_555 1_555
S1_15 C7_15 1_555 1_555
N4_15 Co1_8 1_555 1_555
C8_15 N4_15 1_555 1_555
H5_15 C8_15 1_555 1_555
C9_15 C8_15 1_555 1_555
H6_15 C9_15 1_555 1_555
C10_15 C9_15 1_555 1_555
C11_15 C10_15 1_555 1_555
H7_15 C11_15 1_555 1_555
C12_15 N4_15 1_555 1_555
H8_15 C12_15 1_555 1_555
C13_15 N5_15 1_555 1_555
N5_15 C14_15 1_555 1_555
C14_15 C10_15 1_555 1_555
N6_15 C14_15 1_555 1_555
C15_15 N6_15 1_555 1_555
N7_15 C13_15 1_555 1_555
N8_14 C16_15 1_555 1_555
C16_15 H9_15 1_555 1_555
C17_15 C16_15 1_555 1_555
H10_15 C17_15 1_555 1_555
C18_15 C13_15 1_555 1_555
C19_15 C18_15 1_555 1_555
H11_15 C19_15 1_555 1_555
C20_15 N8_14 1_555 1_555
H12_15 C20_15 1_555 1_555
N9_14 C21_15 1_555 1_555
C21_15 H13_15 1_555 1_555
C22_15 C21_15 1_555 1_555
H14_15 C22_15 1_555 1_555
C23_15 C15_15 1_555 1_555
C24_15 C23_15 1_555 1_555
H15_15 C24_15 1_555 1_555
C25_15 N9_14 1_555 1_555
H16_15 C25_15 1_555 1_555
Co2_17 N8_14 1_555 1_555
N10_19 Co2_17 1_555 1_555
C26_19 N10_19 1_555 1_555
S2_19 C26_19 1_555 1_555
N11_11 C1_11 1_555 1_555
N12_11 C27_11 1_555 1_555
N13_8 C29_8 1_555 1_555
N14_8 C29_8 1_555 1_555
N15_8 C30_8 1_555 1_555
C27_11 N11_11 1_555 1_555
C28_11 N1_11 1_555 1_555
C29_8 C44_8 1_555 1_555
C30_8 N14_8 1_555 1_555
C31_8 N13_8 1_555 1_555
N16_11 C32_11 1_555 1_555
N17_11 C33_11 1_555 1_555
N18_8 Co1_8 1_555 1_555
N19_8 C35_8 1_555 1_555
N20_8 C36_8 1_555 1_555
C32_11 H17_11 1_555 1_555
C33_11 H18_11 1_555 1_555
C34_8 N18_8 1_555 1_555
C35_8 H20_8 1_555 1_555
C36_8 H21_8 1_555 1_555
H19_8 C34_8 1_555 1_555
C37_11 C32_11 1_555 1_555
C38_11 C33_11 1_555 1_555
C39_8 C34_8 1_555 1_555
C40_8 C35_8 1_555 1_555
C41_8 C36_8 1_555 1_555
H22_11 C37_11 1_555 1_555
H23_11 C38_11 1_555 1_555
H24_8 C39_8 1_555 1_555
H25_8 C40_8 1_555 1_555
H26_8 C41_8 1_555 1_555
C42_11 C28_11 1_555 1_555
C43_11 C27_11 1_555 1_555
C44_8 C39_8 1_555 1_555
C45_8 C31_8 1_555 1_555
C46_8 C30_8 1_555 1_555
C47_11 C42_11 1_555 1_555
C48_11 C43_11 1_555 1_555
C49_8 C44_8 1_555 1_555
C50_8 C45_8 1_555 1_555
C51_8 C46_8 1_555 1_555
H27_11 C47_11 1_555 1_555
H28_11 C48_11 1_555 1_555
H29_8 C49_8 1_555 1_555
H30_8 C50_8 1_555 1_555
H31_8 C51_8 1_555 1_555
C52_11 N16_11 1_555 1_555
C53_11 N17_11 1_555 1_555
C54_8 N18_8 1_555 1_555
C55_8 N19_8 1_555 1_555
C56_8 N20_8 1_555 1_555
H32_11 C52_11 1_555 1_555
H33_11 C53_11 1_555 1_555
H34_8 C54_8 1_555 1_555
H35_8 C55_8 1_555 1_555
H36_8 C56_8 1_555 1_555
Co3_8 N16_11 1_555 1_555
Co4_6 N17_11 1_555 1_555
Co5_6 N19_8 1_555 1_555
Co6_6 N20_8 1_555 1_555
N21_15 Co1_8 1_555 1_555
C57_15 N21_15 1_555 1_555
S3_15 C57_15 1_555 1_555
N22_15 Co1_8 1_555 1_555
C58_15 N22_15 1_555 1_555
H37_15 C58_15 1_555 1_555
C59_15 C58_15 1_555 1_555
H38_15 C59_15 1_555 1_555
C60_15 C59_15 1_555 1_555
C61_15 C60_15 1_555 1_555
H39_15 C61_15 1_555 1_555
C62_15 N22_15 1_555 1_555
H40_15 C62_15 1_555 1_555
C63_15 N23_15 1_555 1_555
N23_15 C64_15 1_555 1_555
C64_15 C60_15 1_555 1_555
N24_15 C64_15 1_555 1_555
C65_15 N24_15 1_555 1_555
N25_15 C63_15 1_555 1_555
N27_12 C66_15 1_555 1_555
N27_19 Co2_17 1_555 1_555
N28_18 Co8_19 1_555 1_555
N29_18 Co8_19 1_555 1_555
C66_15 H41_15 1_555 1_555
C67_15 C66_15 1_555 1_555
H42_15 C67_15 1_555 1_555
C68_15 C63_15 1_555 1_555
C69_15 C68_15 1_555 1_555
H43_15 C69_15 1_555 1_555
C70_15 N27_12 1_555 1_555
H44_15 C70_15 1_555 1_555
N33_14 C71_15 1_555 1_555
N31_19 Co2_17 1_555 1_555
N32_19 Co2_17 1_555 1_555
N33_17 Co8_19 1_555 1_555
C71_15 H45_15 1_555 1_555
C72_15 C71_15 1_555 1_555
H46_15 C72_15 1_555 1_555
C73_15 C65_15 1_555 1_555
C74_15 C73_15 1_555 1_555
H47_15 C74_15 1_555 1_555
C75_15 N33_14 1_555 1_555
H48_15 C75_15 1_555 1_555
Co8_19 N9_14 1_555 1_555
N34_19 Co2_17 1_555 1_555
N35_18 Co8_19 1_555 1_555
N36_18 Co8_19 1_555 1_555
C76_19 N34_19 1_555 1_555
C77_18 N35_18 1_555 1_555
C78_18 N36_18 1_555 1_555
S4_19 C76_19 1_555 1_555
S5_18 C77_18 1_555 1_555
S6_18 C78_18 1_555 1_555
C5_11 C6_11 1_555 1_555
C11_15 C12_15 1_555 1_555
C15_15 N7_15 1_555 1_555
C17_15 C18_15 1_555 1_555
C19_15 C20_15 1_555 1_555
C22_15 C23_15 1_555 1_555
C24_15 C25_15 1_555 1_555
N12_11 C28_11 1_555 1_555
N15_8 C31_8 1_555 1_555
C37_11 C42_11 1_555 1_555
C38_11 C43_11 1_555 1_555
C40_8 C45_8 1_555 1_555
C41_8 C46_8 1_555 1_555
C47_11 C52_11 1_555 1_555
C48_11 C53_11 1_555 1_555
C49_8 C54_8 1_555 1_555
C50_8 C55_8 1_555 1_555
C51_8 C56_8 1_555 1_555
C61_15 C62_15 1_555 1_555
C65_15 N25_15 1_555 1_555
C67_15 C68_15 1_555 1_555
C69_15 C70_15 1_555 1_555
C72_15 C73_15 1_555 1_555
C74_15 C75_15 1_555 1_555
N3_16 Co4_5 1_555 1_555
C7_16 N3_16 1_555 1_555
S1_16 C7_16 1_555 1_555
N4_16 Co4_5 1_555 1_555
C8_16 N4_16 1_555 1_555
H5_16 C8_16 1_555 1_555
C9_16 C8_16 1_555 1_555
H6_16 C9_16 1_555 1_555
C10_16 C9_16 1_555 1_555
C11_16 C10_16 1_555 1_555
H7_16 C11_16 1_555 1_555
C12_16 N4_16 1_555 1_555
H8_16 C12_16 1_555 1_555
C13_16 N5_16 1_555 1_555
N5_16 C14_16 1_555 1_555
C14_16 C10_16 1_555 1_555
N6_16 C14_16 1_555 1_555
C15_16 N6_16 1_555 1_555
N7_16 C13_16 1_555 1_555
N27_8 C16_16 1_555 1_555
C16_16 H9_16 1_555 1_555
C17_16 C16_16 1_555 1_555
H10_16 C17_16 1_555 1_555
C18_16 C13_16 1_555 1_555
C19_16 C18_16 1_555 1_555
H11_16 C19_16 1_555 1_555
C20_16 N27_8 1_555 1_555
H12_16 C20_16 1_555 1_555
N9_15 C21_16 1_555 1_555
C21_16 H13_16 1_555 1_555
C22_16 C21_16 1_555 1_555
H14_16 C22_16 1_555 1_555
C23_16 C15_16 1_555 1_555
C24_16 C23_16 1_555 1_555
H15_16 C24_16 1_555 1_555
C25_16 N9_15 1_555 1_555
H16_16 C25_16 1_555 1_555
N21_16 Co4_5 1_555 1_555
C57_16 N21_16 1_555 1_555
S3_16 C57_16 1_555 1_555
N22_16 Co4_5 1_555 1_555
C58_16 N22_16 1_555 1_555
H37_16 C58_16 1_555 1_555
C59_16 C58_16 1_555 1_555
H38_16 C59_16 1_555 1_555
C60_16 C59_16 1_555 1_555
C61_16 C60_16 1_555 1_555
H39_16 C61_16 1_555 1_555
C62_16 N22_16 1_555 1_555
H40_16 C62_16 1_555 1_555
C63_16 N23_16 1_555 1_555
N23_16 C64_16 1_555 1_555
C64_16 C60_16 1_555 1_555
N24_16 C64_16 1_555 1_555
C65_16 N24_16 1_555 1_555
N25_16 C63_16 1_555 1_555
N26_14 C66_16 1_555 1_555
N28_19 Co9_10 1_555 1_555
N29_19 Co9_10 1_555 1_555
C66_16 H41_16 1_555 1_555
C67_16 C66_16 1_555 1_555
H42_16 C67_16 1_555 1_555
C68_16 C63_16 1_555 1_555
C69_16 C68_16 1_555 1_555
H43_16 C69_16 1_555 1_555
C70_16 N26_14 1_555 1_555
H44_16 C70_16 1_555 1_555
N30_12 C71_16 1_555 1_555
C71_16 H45_16 1_555 1_555
C72_16 C71_16 1_555 1_555
H46_16 C72_16 1_555 1_555
C73_16 C65_16 1_555 1_555
C74_16 C73_16 1_555 1_555
H47_16 C74_16 1_555 1_555
C75_16 N30_12 1_555 1_555
H48_16 C75_16 1_555 1_555
Co7_14 N26_14 1_555 1_555
Co9_10 N9_15 1_555 1_555
Co9_13 N30_12 1_555 1_555
N35_19 Co9_10 1_555 1_555
N36_19 Co9_10 1_555 1_555
C77_19 N35_19 1_555 1_555
C78_19 N36_19 1_555 1_555
S5_19 C77_19 1_555 1_555
S6_19 C78_19 1_555 1_555
C11_16 C12_16 1_555 1_555
C15_16 N7_16 1_555 1_555
C17_16 C18_16 1_555 1_555
C19_16 C20_16 1_555 1_555
C22_16 C23_16 1_555 1_555
C24_16 C25_16 1_555 1_555
C61_16 C62_16 1_555 1_555
C65_16 N25_16 1_555 1_555
C67_16 C68_16 1_555 1_555
C69_16 C70_16 1_555 1_555
C72_16 C73_16 1_555 1_555
C74_16 C75_16 1_555 1_555
N3_17 Co5 1_555 1_555
C7_17 N3_17 1_555 1_555
S1_17 C7_17 1_555 1_555
N4_17 Co5 1_555 1_555
C8_17 N4_17 1_555 1_555
H5_17 C8_17 1_555 1_555
C9_17 C8_17 1_555 1_555
H6_17 C9_17 1_555 1_555
C10_17 C9_17 1_555 1_555
C11_17 C10_17 1_555 1_555
H7_17 C11_17 1_555 1_555
C12_17 N4_17 1_555 1_555
H8_17 C12_17 1_555 1_555
C13_17 N5_17 1_555 1_555
N5_17 C14_17 1_555 1_555
C14_17 C10_17 1_555 1_555
N6_17 C14_17 1_555 1_555
C15_17 N6_17 1_555 1_555
N7_17 C13_17 1_555 1_555
N27_7 C16_17 1_555 1_555
C16_17 H9_17 1_555 1_555
C17_17 C16_17 1_555 1_555
H10_17 C17_17 1_555 1_555
C18_17 C13_17 1_555 1_555
C19_17 C18_17 1_555 1_555
H11_17 C19_17 1_555 1_555
C20_17 N27_7 1_555 1_555
H12_17 C20_17 1_555 1_555
N9_16 C21_17 1_555 1_555
C21_17 H13_17 1_555 1_555
C22_17 C21_17 1_555 1_555
H14_17 C22_17 1_555 1_555
C23_17 C15_17 1_555 1_555
C24_17 C23_17 1_555 1_555
H15_17 C24_17 1_555 1_555
C25_17 N9_16 1_555 1_555
H16_17 C25_17 1_555 1_555
N21_17 Co5 1_555 1_555
C57_17 N21_17 1_555 1_555
S3_17 C57_17 1_555 1_555
N22_17 Co5 1_555 1_555
C58_17 N22_17 1_555 1_555
H37_17 C58_17 1_555 1_555
C59_17 C58_17 1_555 1_555
H38_17 C59_17 1_555 1_555
C60_17 C59_17 1_555 1_555
C61_17 C60_17 1_555 1_555
H39_17 C61_17 1_555 1_555
C62_17 N22_17 1_555 1_555
H40_17 C62_17 1_555 1_555
C63_17 N23_17 1_555 1_555
N23_17 C64_17 1_555 1_555
C64_17 C60_17 1_555 1_555
N24_17 C64_17 1_555 1_555
C65_17 N24_17 1_555 1_555
N25_17 C63_17 1_555 1_555
N27_16 C66_17 1_555 1_555
N28_20 Co8_20 1_555 1_555
N29_20 Co8_20 1_555 1_555
C66_17 H41_17 1_555 1_555
C67_17 C66_17 1_555 1_555
H42_17 C67_17 1_555 1_555
C68_17 C63_17 1_555 1_555
C69_17 C68_17 1_555 1_555
H43_17 C69_17 1_555 1_555
C70_17 N27_16 1_555 1_555
H44_17 C70_17 1_555 1_555
N33_16 C71_17 1_555 1_555
N33_18 Co8_20 1_555 1_555
C71_17 H45_17 1_555 1_555
C72_17 C71_17 1_555 1_555
H46_17 C72_17 1_555 1_555
C73_17 C65_17 1_555 1_555
C74_17 C73_17 1_555 1_555
H47_17 C74_17 1_555 1_555
C75_17 N33_16 1_555 1_555
H48_17 C75_17 1_555 1_555
Co8_20 N9_16 1_555 1_555
N35_20 Co8_20 1_555 1_555
N36_20 Co8_20 1_555 1_555
C77_20 N35_20 1_555 1_555
C78_20 N36_20 1_555 1_555
S5_20 C77_20 1_555 1_555
S6_20 C78_20 1_555 1_555
C11_17 C12_17 1_555 1_555
C15_17 N7_17 1_555 1_555
C17_17 C18_17 1_555 1_555
C19_17 C20_17 1_555 1_555
C22_17 C23_17 1_555 1_555
C24_17 C25_17 1_555 1_555
C61_17 C62_17 1_555 1_555
C65_17 N25_17 1_555 1_555
C67_17 C68_17 1_555 1_555
C69_17 C70_17 1_555 1_555
C72_17 C73_17 1_555 1_555
C74_17 C75_17 1_555 1_555
N10_20 Co7_2 1_555 1_555
C26_20 N10_20 1_555 1_555
S2_20 C26_20 1_555 1_555
N27_20 Co7_2 1_555 1_555
N28_21 Co9_2 1_555 1_555
N29_21 Co9_2 1_555 1_555
N31_20 Co7_2 1_555 1_555
N32_20 Co7_2 1_555 1_555
N33_19 Co9_2 1_555 1_555
N34_20 Co7_2 1_555 1_555
N35_21 Co9_2 1_555 1_555
N36_21 Co9_2 1_555 1_555
C76_20 N34_20 1_555 1_555
C77_21 N35_21 1_555 1_555
C78_21 N36_21 1_555 1_555
S4_20 C76_20 1_555 1_555
S5_21 C77_21 1_555 1_555
S6_21 C78_21 1_555 1_555
N1_12 C1_12 1_555 1_555
C1_12 C4_12 1_555 1_555
N2_12 C2_12 1_555 1_555
C2_12 H1_12 1_555 1_555
C3_12 C2_12 1_555 1_555
H2_12 C3_12 1_555 1_555
C4_12 C3_12 1_555 1_555
C5_12 C4_12 1_555 1_555
H3_12 C5_12 1_555 1_555
C6_12 N2_12 1_555 1_555
H4_12 C6_12 1_555 1_555
Co6_4 N2_12 1_555 1_555
N3_18 Co6_4 1_555 1_555
C7_18 N3_18 1_555 1_555
S1_18 C7_18 1_555 1_555
N4_18 Co6_4 1_555 1_555
C8_18 N4_18 1_555 1_555
H5_18 C8_18 1_555 1_555
C9_18 C8_18 1_555 1_555
H6_18 C9_18 1_555 1_555
C10_18 C9_18 1_555 1_555
C11_18 C10_18 1_555 1_555
H7_18 C11_18 1_555 1_555
C12_18 N4_18 1_555 1_555
H8_18 C12_18 1_555 1_555
C13_18 N5_18 1_555 1_555
N5_18 C14_18 1_555 1_555
C14_18 C10_18 1_555 1_555
N6_18 C14_18 1_555 1_555
C15_18 N6_18 1_555 1_555
N7_18 C13_18 1_555 1_555
N8_15 C16_18 1_555 1_555
C16_18 H9_18 1_555 1_555
C17_18 C16_18 1_555 1_555
H10_18 C17_18 1_555 1_555
C18_18 C13_18 1_555 1_555
C19_18 C18_18 1_555 1_555
H11_18 C19_18 1_555 1_555
C20_18 N8_15 1_555 1_555
H12_18 C20_18 1_555 1_555
N9_17 C21_18 1_555 1_555
C21_18 H13_18 1_555 1_555
C22_18 C21_18 1_555 1_555
H14_18 C22_18 1_555 1_555
C23_18 C15_18 1_555 1_555
C24_18 C23_18 1_555 1_555
H15_18 C24_18 1_555 1_555
C25_18 N9_17 1_555 1_555
H16_18 C25_18 1_555 1_555
Co2_18 N8_15 1_555 1_555
N10_21 Co2_18 1_555 1_555
C26_21 N10_21 1_555 1_555
S2_21 C26_21 1_555 1_555
N11_12 C1_12 1_555 1_555
N12_12 C27_12 1_555 1_555
C27_12 N11_12 1_555 1_555
C28_12 N1_12 1_555 1_555
N16_12 C32_12 1_555 1_555
N17_12 C33_12 1_555 1_555
C32_12 H17_12 1_555 1_555
C33_12 H18_12 1_555 1_555
C37_12 C32_12 1_555 1_555
C38_12 C33_12 1_555 1_555
H22_12 C37_12 1_555 1_555
H23_12 C38_12 1_555 1_555
C42_12 C28_12 1_555 1_555
C43_12 C27_12 1_555 1_555
C47_12 C42_12 1_555 1_555
C48_12 C43_12 1_555 1_555
H27_12 C47_12 1_555 1_555
H28_12 C48_12 1_555 1_555
C52_12 N16_12 1_555 1_555
C53_12 N17_12 1_555 1_555
H32_12 C52_12 1_555 1_555
H33_12 C53_12 1_555 1_555
Co3_5 N17_12 1_555 1_555
N21_18 Co6_4 1_555 1_555
C57_18 N21_18 1_555 1_555
S3_18 C57_18 1_555 1_555
N22_18 Co6_4 1_555 1_555
C58_18 N22_18 1_555 1_555
H37_18 C58_18 1_555 1_555
C59_18 C58_18 1_555 1_555
H38_18 C59_18 1_555 1_555
C60_18 C59_18 1_555 1_555
C61_18 C60_18 1_555 1_555
H39_18 C61_18 1_555 1_555
C62_18 N22_18 1_555 1_555
H40_18 C62_18 1_555 1_555
C63_18 N23_18 1_555 1_555
N23_18 C64_18 1_555 1_555
C64_18 C60_18 1_555 1_555
N24_18 C64_18 1_555 1_555
C65_18 N24_18 1_555 1_555
N25_18 C63_18 1_555 1_555
N26_15 C66_18 1_555 1_555
N27_21 Co2_18 1_555 1_555
N28_22 Co8_21 1_555 1_555
C66_18 H41_18 1_555 1_555
C67_18 C66_18 1_555 1_555
H42_18 C67_18 1_555 1_555
C68_18 C63_18 1_555 1_555
C69_18 C68_18 1_555 1_555
H43_18 C69_18 1_555 1_555
C70_18 N26_15 1_555 1_555
H44_18 C70_18 1_555 1_555
N33_3 C71_18 1_555 1_555
N31_21 Co2_18 1_555 1_555
N32_21 Co2_18 1_555 1_555
C71_18 H45_18 1_555 1_555
C72_18 C71_18 1_555 1_555
H46_18 C72_18 1_555 1_555
C73_18 C65_18 1_555 1_555
C74_18 C73_18 1_555 1_555
H47_18 C74_18 1_555 1_555
C75_18 N33_3 1_555 1_555
H48_18 C75_18 1_555 1_555
Co7_15 N26_15 1_555 1_555
Co8_21 N9_17 1_555 1_555
N34_21 Co2_18 1_555 1_555
N35_22 Co8_21 1_555 1_555
C76_21 N34_21 1_555 1_555
C77_22 N35_22 1_555 1_555
S4_21 C76_21 1_555 1_555
S5_22 C77_22 1_555 1_555
C5_12 C6_12 1_555 1_555
C11_18 C12_18 1_555 1_555
C15_18 N7_18 1_555 1_555
C17_18 C18_18 1_555 1_555
C19_18 C20_18 1_555 1_555
C22_18 C23_18 1_555 1_555
C24_18 C25_18 1_555 1_555
N12_12 C28_12 1_555 1_555
C37_12 C42_12 1_555 1_555
C38_12 C43_12 1_555 1_555
C47_12 C52_12 1_555 1_555
C48_12 C53_12 1_555 1_555
C61_18 C62_18 1_555 1_555
C65_18 N25_18 1_555 1_555
C67_18 C68_18 1_555 1_555
C69_18 C70_18 1_555 1_555
C72_18 C73_18 1_555 1_555
C74_18 C75_18 1_555 1_555
N29_22 Co8_22 1_555 1_555
N33_20 Co8_22 1_555 1_555
N36_22 Co8_22 1_555 1_555
C78_22 N36_22 1_555 1_555
S6_22 C78_22 1_555 1_555
N10_22 Co7_15 1_555 1_555
C26_22 N10_22 1_555 1_555
S2_22 C26_22 1_555 1_555
N31_22 Co7_15 1_555 1_555
N27_22 Co7_16 1_555 1_555
N32_22 Co7_16 1_555 1_555
N34_22 Co7_16 1_555 1_555
C76_22 N34_22 1_555 1_555
S4_22 C76_22 1_555 1_555
N3_19 Co3_3 1_555 1_555
C7_19 N3_19 1_555 1_555
S1_19 C7_19 1_555 1_555
N4_19 Co3_3 1_555 1_555
C8_19 N4_19 1_555 1_555
H5_19 C8_19 1_555 1_555
C9_19 C8_19 1_555 1_555
H6_19 C9_19 1_555 1_555
C10_19 C9_19 1_555 1_555
C11_19 C10_19 1_555 1_555
H7_19 C11_19 1_555 1_555
C12_19 N4_19 1_555 1_555
H8_19 C12_19 1_555 1_555
C13_19 N5_19 1_555 1_555
N5_19 C14_19 1_555 1_555
C14_19 C10_19 1_555 1_555
N6_19 C14_19 1_555 1_555
C15_19 N6_19 1_555 1_555
N7_19 C13_19 1_555 1_555
N27_22 C16_19 1_555 1_555
C16_19 H9_19 1_555 1_555
C17_19 C16_19 1_555 1_555
H10_19 C17_19 1_555 1_555
C18_19 C13_19 1_555 1_555
C19_19 C18_19 1_555 1_555
H11_19 C19_19 1_555 1_555
C20_19 N27_22 1_555 1_555
H12_19 C20_19 1_555 1_555
N9_18 C21_19 1_555 1_555
C21_19 H13_19 1_555 1_555
C22_19 C21_19 1_555 1_555
H14_19 C22_19 1_555 1_555
C23_19 C15_19 1_555 1_555
C24_19 C23_19 1_555 1_555
H15_19 C24_19 1_555 1_555
C25_19 N9_18 1_555 1_555
H16_19 C25_19 1_555 1_555
N21_19 Co3_3 1_555 1_555
C57_19 N21_19 1_555 1_555
S3_19 C57_19 1_555 1_555
N22_19 Co3_3 1_555 1_555
C58_19 N22_19 1_555 1_555
H37_19 C58_19 1_555 1_555
C59_19 C58_19 1_555 1_555
H38_19 C59_19 1_555 1_555
C60_19 C59_19 1_555 1_555
C61_19 C60_19 1_555 1_555
H39_19 C61_19 1_555 1_555
C62_19 N22_19 1_555 1_555
H40_19 C62_19 1_555 1_555
C63_19 N23_19 1_555 1_555
N23_19 C64_19 1_555 1_555
C64_19 C60_19 1_555 1_555
N24_19 C64_19 1_555 1_555
C65_19 N24_19 1_555 1_555
N25_19 C63_19 1_555 1_555
N26_16 C66_19 1_555 1_555
N28_23 Co8_23 1_555 1_555
N29_23 Co8_23 1_555 1_555
C66_19 H41_19 1_555 1_555
C67_19 C66_19 1_555 1_555
H42_19 C67_19 1_555 1_555
C68_19 C63_19 1_555 1_555
C69_19 C68_19 1_555 1_555
H43_19 C69_19 1_555 1_555
C70_19 N26_16 1_555 1_555
H44_19 C70_19 1_555 1_555
N30_13 C71_19 1_555 1_555
N33_21 Co8_23 1_555 1_555
C71_19 H45_19 1_555 1_555
C72_19 C71_19 1_555 1_555
H46_19 C72_19 1_555 1_555
C73_19 C65_19 1_555 1_555
C74_19 C73_19 1_555 1_555
H47_19 C74_19 1_555 1_555
C75_19 N30_13 1_555 1_555
H48_19 C75_19 1_555 1_555
Co7 N26_16 1_555 1_555
Co8_23 N9_18 1_555 1_555
Co9_14 N30_13 1_555 1_555
N35_23 Co8_23 1_555 1_555
N36_23 Co8_23 1_555 1_555
C77_23 N35_23 1_555 1_555
C78_23 N36_23 1_555 1_555
S5_23 C77_23 1_555 1_555
S6_23 C78_23 1_555 1_555
C11_19 C12_19 1_555 1_555
C15_19 N7_19 1_555 1_555
C17_19 C18_19 1_555 1_555
C19_19 C20_19 1_555 1_555
C22_19 C23_19 1_555 1_555
C24_19 C25_19 1_555 1_555
C61_19 C62_19 1_555 1_555
C65_19 N25_19 1_555 1_555
C67_19 C68_19 1_555 1_555
C69_19 C70_19 1_555 1_555
C72_19 C73_19 1_555 1_555
C74_19 C75_19 1_555 1_555
N29_24 Co8_24 1_555 1_555
N33_22 Co8_24 1_555 1_555
N36_24 Co8_24 1_555 1_555
C78_24 N36_24 1_555 1_555
S6_24 C78_24 1_555 1_555
N3_20 Co3_2 1_555 1_555
C7_20 N3_20 1_555 1_555
S1_20 C7_20 1_555 1_555
N4_20 Co3_2 1_555 1_555
C8_20 N4_20 1_555 1_555
H5_20 C8_20 1_555 1_555
C9_20 C8_20 1_555 1_555
H6_20 C9_20 1_555 1_555
C10_20 C9_20 1_555 1_555
C11_20 C10_20 1_555 1_555
H7_20 C11_20 1_555 1_555
C12_20 N4_20 1_555 1_555
H8_20 C12_20 1_555 1_555
C13_20 N5_20 1_555 1_555
N5_20 C14_20 1_555 1_555
C14_20 C10_20 1_555 1_555
N6_20 C14_20 1_555 1_555
C15_20 N6_20 1_555 1_555
N7_20 C13_20 1_555 1_555
N27_13 C16_20 1_555 1_555
C16_20 H9_20 1_555 1_555
C17_20 C16_20 1_555 1_555
H10_20 C17_20 1_555 1_555
C18_20 C13_20 1_555 1_555
C19_20 C18_20 1_555 1_555
H11_20 C19_20 1_555 1_555
C20_20 N27_13 1_555 1_555
H12_20 C20_20 1_555 1_555
N9_19 C21_20 1_555 1_555
C21_20 H13_20 1_555 1_555
C22_20 C21_20 1_555 1_555
H14_20 C22_20 1_555 1_555
C23_20 C15_20 1_555 1_555
C24_20 C23_20 1_555 1_555
H15_20 C24_20 1_555 1_555
C25_20 N9_19 1_555 1_555
H16_20 C25_20 1_555 1_555
N21_20 Co3_2 1_555 1_555
C57_20 N21_20 1_555 1_555
S3_20 C57_20 1_555 1_555
N22_20 Co3_2 1_555 1_555
C58_20 N22_20 1_555 1_555
H37_20 C58_20 1_555 1_555
C59_20 C58_20 1_555 1_555
H38_20 C59_20 1_555 1_555
C60_20 C59_20 1_555 1_555
C61_20 C60_20 1_555 1_555
H39_20 C61_20 1_555 1_555
C62_20 N22_20 1_555 1_555
H40_20 C62_20 1_555 1_555
C63_20 N23_20 1_555 1_555
N23_20 C64_20 1_555 1_555
C64_20 C60_20 1_555 1_555
N24_20 C64_20 1_555 1_555
C65_20 N24_20 1_555 1_555
N25_20 C63_20 1_555 1_555
N26_17 C66_20 1_555 1_555
N28_24 Co8_25 1_555 1_555
C66_20 H41_20 1_555 1_555
C67_20 C66_20 1_555 1_555
H42_20 C67_20 1_555 1_555
C68_20 C63_20 1_555 1_555
C69_20 C68_20 1_555 1_555
H43_20 C69_20 1_555 1_555
C70_20 N26_17 1_555 1_555
H44_20 C70_20 1_555 1_555
N33_18 C71_20 1_555 1_555
C71_20 H45_20 1_555 1_555
C72_20 C71_20 1_555 1_555
H46_20 C72_20 1_555 1_555
C73_20 C65_20 1_555 1_555
C74_20 C73_20 1_555 1_555
H47_20 C74_20 1_555 1_555
C75_20 N33_18 1_555 1_555
H48_20 C75_20 1_555 1_555
Co7_17 N26_17 1_555 1_555
Co8_25 N9_19 1_555 1_555
N35_24 Co8_25 1_555 1_555
C77_24 N35_24 1_555 1_555
S5_24 C77_24 1_555 1_555
C11_20 C12_20 1_555 1_555
C15_20 N7_20 1_555 1_555
C17_20 C18_20 1_555 1_555
C19_20 C20_20 1_555 1_555
C22_20 C23_20 1_555 1_555
C24_20 C25_20 1_555 1_555
C61_20 C62_20 1_555 1_555
C65_20 N25_20 1_555 1_555
C67_20 C68_20 1_555 1_555
C69_20 C70_20 1_555 1_555
C72_20 C73_20 1_555 1_555
C74_20 C75_20 1_555 1_555
N3_21 Co5_3 1_555 1_555
C7_21 N3_21 1_555 1_555
S1_21 C7_21 1_555 1_555
N4_21 Co5_3 1_555 1_555
C8_21 N4_21 1_555 1_555
H5_21 C8_21 1_555 1_555
C9_21 C8_21 1_555 1_555
H6_21 C9_21 1_555 1_555
C10_21 C9_21 1_555 1_555
C11_21 C10_21 1_555 1_555
H7_21 C11_21 1_555 1_555
C12_21 N4_21 1_555 1_555
H8_21 C12_21 1_555 1_555
C13_21 N5_21 1_555 1_555
N5_21 C14_21 1_555 1_555
C14_21 C10_21 1_555 1_555
N6_21 C14_21 1_555 1_555
C15_21 N6_21 1_555 1_555
N7_21 C13_21 1_555 1_555
N27_2 C16_21 1_555 1_555
C16_21 H9_21 1_555 1_555
C17_21 C16_21 1_555 1_555
H10_21 C17_21 1_555 1_555
C18_21 C13_21 1_555 1_555
C19_21 C18_21 1_555 1_555
H11_21 C19_21 1_555 1_555
C20_21 N27_2 1_555 1_555
H12_21 C20_21 1_555 1_555
N9_20 C21_21 1_555 1_555
C21_21 H13_21 1_555 1_555
C22_21 C21_21 1_555 1_555
H14_21 C22_21 1_555 1_555
C23_21 C15_21 1_555 1_555
C24_21 C23_21 1_555 1_555
H15_21 C24_21 1_555 1_555
C25_21 N9_20 1_555 1_555
H16_21 C25_21 1_555 1_555
N13_9 C29_9 1_555 1_555
N14_9 C29_9 1_555 1_555
N15_9 C30_9 1_555 1_555
C29_9 C44_9 1_555 1_555
C30_9 N14_9 1_555 1_555
C31_9 N13_9 1_555 1_555
N18_9 Co5_3 1_555 1_555
N19_9 C35_9 1_555 1_555
N20_9 C36_9 1_555 1_555
C34_9 N18_9 1_555 1_555
C35_9 H20_9 1_555 1_555
C36_9 H21_9 1_555 1_555
H19_9 C34_9 1_555 1_555
C39_9 C34_9 1_555 1_555
C40_9 C35_9 1_555 1_555
C41_9 C36_9 1_555 1_555
H24_9 C39_9 1_555 1_555
H25_9 C40_9 1_555 1_555
H26_9 C41_9 1_555 1_555
C44_9 C39_9 1_555 1_555
C45_9 C31_9 1_555 1_555
C46_9 C30_9 1_555 1_555
C49_9 C44_9 1_555 1_555
C50_9 C45_9 1_555 1_555
C51_9 C46_9 1_555 1_555
H29_9 C49_9 1_555 1_555
H30_9 C50_9 1_555 1_555
H31_9 C51_9 1_555 1_555
C54_9 N18_9 1_555 1_555
C55_9 N19_9 1_555 1_555
C56_9 N20_9 1_555 1_555
H34_9 C54_9 1_555 1_555
H35_9 C55_9 1_555 1_555
H36_9 C56_9 1_555 1_555
Co4_3 N19_9 1_555 1_555
Co6_7 N20_9 1_555 1_555
N21_21 Co5_3 1_555 1_555
C57_21 N21_21 1_555 1_555
S3_21 C57_21 1_555 1_555
N22_21 Co5_3 1_555 1_555
C58_21 N22_21 1_555 1_555
H37_21 C58_21 1_555 1_555
C59_21 C58_21 1_555 1_555
H38_21 C59_21 1_555 1_555
C60_21 C59_21 1_555 1_555
C61_21 C60_21 1_555 1_555
H39_21 C61_21 1_555 1_555
C62_21 N22_21 1_555 1_555
H40_21 C62_21 1_555 1_555
C63_21 N23_21 1_555 1_555
N23_21 C64_21 1_555 1_555
C64_21 C60_21 1_555 1_555
N24_21 C64_21 1_555 1_555
C65_21 N24_21 1_555 1_555
N25_21 C63_21 1_555 1_555
N26_18 C66_21 1_555 1_555
N28_25 Co9_3 1_555 1_555
N29_25 Co9_3 1_555 1_555
C66_21 H41_21 1_555 1_555
C67_21 C66_21 1_555 1_555
H42_21 C67_21 1_555 1_555
C68_21 C63_21 1_555 1_555
C69_21 C68_21 1_555 1_555
H43_21 C69_21 1_555 1_555
C70_21 N26_18 1_555 1_555
H44_21 C70_21 1_555 1_555
N30_14 C71_21 1_555 1_555
C71_21 H45_21 1_555 1_555
C72_21 C71_21 1_555 1_555
H46_21 C72_21 1_555 1_555
C73_21 C65_21 1_555 1_555
C74_21 C73_21 1_555 1_555
H47_21 C74_21 1_555 1_555
C75_21 N30_14 1_555 1_555
H48_21 C75_21 1_555 1_555
Co7_18 N26_18 1_555 1_555
Co9_3 N9_20 1_555 1_555
Co9_15 N30_14 1_555 1_555
N35_25 Co9_3 1_555 1_555
N36_25 Co9_3 1_555 1_555
C77_25 N35_25 1_555 1_555
C78_25 N36_25 1_555 1_555
S5_25 C77_25 1_555 1_555
S6_25 C78_25 1_555 1_555
C11_21 C12_21 1_555 1_555
C15_21 N7_21 1_555 1_555
C17_21 C18_21 1_555 1_555
C19_21 C20_21 1_555 1_555
C22_21 C23_21 1_555 1_555
C24_21 C25_21 1_555 1_555
N15_9 C31_9 1_555 1_555
C40_9 C45_9 1_555 1_555
C41_9 C46_9 1_555 1_555
C49_9 C54_9 1_555 1_555
C50_9 C55_9 1_555 1_555
C51_9 C56_9 1_555 1_555
C61_21 C62_21 1_555 1_555
C65_21 N25_21 1_555 1_555
C67_21 C68_21 1_555 1_555
C69_21 C70_21 1_555 1_555
C72_21 C73_21 1_555 1_555
C74_21 C75_21 1_555 1_555
N3_22 Co1_9 1_555 1_555
N4_22 Co1_9 1_555 1_555
C8_22 N4_22 1_555 1_555
H5_22 C8_22 1_555 1_555
C9_22 C8_22 1_555 1_555
H6_22 C9_22 1_555 1_555
C10_22 C9_22 1_555 1_555
C11_22 C10_22 1_555 1_555
H7_22 C11_22 1_555 1_555
C12_22 N4_22 1_555 1_555
H8_22 C12_22 1_555 1_555
C13_22 N5_22 1_555 1_555
N5_22 C14_22 1_555 1_555
C14_22 C10_22 1_555 1_555
N6_22 C14_22 1_555 1_555
C15_22 N6_22 1_555 1_555
N7_22 C13_22 1_555 1_555
N27 C16_22 1_555 1_555
C16_22 H9_22 1_555 1_555
C17_22 C16_22 1_555 1_555
H10_22 C17_22 1_555 1_555
C18_22 C13_22 1_555 1_555
C19_22 C18_22 1_555 1_555
H11_22 C19_22 1_555 1_555
C20_22 N27 1_555 1_555
H12_22 C20_22 1_555 1_555
N9_21 C21_22 1_555 1_555
C21_22 H13_22 1_555 1_555
C22_22 C21_22 1_555 1_555
H14_22 C22_22 1_555 1_555
C23_22 C15_22 1_555 1_555
C24_22 C23_22 1_555 1_555
H15_22 C24_22 1_555 1_555
C25_22 N9_21 1_555 1_555
H16_22 C25_22 1_555 1_555
N21_22 Co1_9 1_555 1_555
N22_22 Co1_9 1_555 1_555
C58_22 N22_22 1_555 1_555
H37_22 C58_22 1_555 1_555
C59_22 C58_22 1_555 1_555
H38_22 C59_22 1_555 1_555
C60_22 C59_22 1_555 1_555
C61_22 C60_22 1_555 1_555
H39_22 C61_22 1_555 1_555
C62_22 N22_22 1_555 1_555
H40_22 C62_22 1_555 1_555
C63_22 N23_22 1_555 1_555
N23_22 C64_22 1_555 1_555
C64_22 C60_22 1_555 1_555
N24_22 C64_22 1_555 1_555
C65_22 N24_22 1_555 1_555
N25_22 C63_22 1_555 1_555
N27_21 C66_22 1_555 1_555
N28_26 Co8_26 1_555 1_555
N29_26 Co8_26 1_555 1_555
C66_22 H41_22 1_555 1_555
C67_22 C66_22 1_555 1_555
H42_22 C67_22 1_555 1_555
C68_22 C63_22 1_555 1_555
C69_22 C68_22 1_555 1_555
H43_22 C69_22 1_555 1_555
C70_22 N27_21 1_555 1_555
H44_22 C70_22 1_555 1_555
N30_15 C71_22 1_555 1_555
N33_23 Co8_26 1_555 1_555
C71_22 H45_22 1_555 1_555
C72_22 C71_22 1_555 1_555
H46_22 C72_22 1_555 1_555
C73_22 C65_22 1_555 1_555
C74_22 C73_22 1_555 1_555
H47_22 C74_22 1_555 1_555
C75_22 N30_15 1_555 1_555
H48_22 C75_22 1_555 1_555
Co8_26 N9_21 1_555 1_555
Co9_16 N30_15 1_555 1_555
N35_26 Co8_26 1_555 1_555
N36_26 Co8_26 1_555 1_555
C77_26 N35_26 1_555 1_555
C78_26 N36_26 1_555 1_555
S5_26 C77_26 1_555 1_555
S6_26 C78_26 1_555 1_555
C11_22 C12_22 1_555 1_555
C15_22 N7_22 1_555 1_555
C17_22 C18_22 1_555 1_555
C19_22 C20_22 1_555 1_555
C22_22 C23_22 1_555 1_555
C24_22 C25_22 1_555 1_555
C61_22 C62_22 1_555 1_555
C65_22 N25_22 1_555 1_555
C67_22 C68_22 1_555 1_555
C69_22 C70_22 1_555 1_555
C72_22 C73_22 1_555 1_555
C74_22 C75_22 1_555 1_555
N1_13 C1_13 1_555 1_555
C1_13 C4_13 1_555 1_555
N2_13 C2_13 1_555 1_555
C2_13 H1_13 1_555 1_555
C3_13 C2_13 1_555 1_555
H2_13 C3_13 1_555 1_555
C4_13 C3_13 1_555 1_555
C5_13 C4_13 1_555 1_555
H3_13 C5_13 1_555 1_555
C6_13 N2_13 1_555 1_555
H4_13 C6_13 1_555 1_555
S1_22 C7_22 1_555 1_555
N11_13 C1_13 1_555 1_555
N12_13 C27_13 1_555 1_555
N13_10 C29_10 1_555 1_555
N14_10 C29_10 1_555 1_555
N15_10 C30_10 1_555 1_555
C27_13 N11_13 1_555 1_555
C28_13 N1_13 1_555 1_555
C29_10 C44_10 1_555 1_555
C30_10 N14_10 1_555 1_555
C31_10 N13_10 1_555 1_555
N16_13 C32_13 1_555 1_555
N17_13 C33_13 1_555 1_555
N19_10 C35_10 1_555 1_555
N20_10 C36_10 1_555 1_555
C32_13 H17_13 1_555 1_555
C33_13 H18_13 1_555 1_555
C34_10 N18_10 1_555 1_555
C35_10 H20_10 1_555 1_555
C36_10 H21_10 1_555 1_555
H19_10 C34_10 1_555 1_555
C37_13 C32_13 1_555 1_555
C38_13 C33_13 1_555 1_555
C39_10 C34_10 1_555 1_555
C40_10 C35_10 1_555 1_555
C41_10 C36_10 1_555 1_555
H22_13 C37_13 1_555 1_555
H23_13 C38_13 1_555 1_555
H24_10 C39_10 1_555 1_555
H25_10 C40_10 1_555 1_555
H26_10 C41_10 1_555 1_555
C42_13 C28_13 1_555 1_555
C43_13 C27_13 1_555 1_555
C44_10 C39_10 1_555 1_555
C45_10 C31_10 1_555 1_555
C46_10 C30_10 1_555 1_555
C47_13 C42_13 1_555 1_555
C48_13 C43_13 1_555 1_555
C49_10 C44_10 1_555 1_555
C50_10 C45_10 1_555 1_555
C51_10 C46_10 1_555 1_555
H27_13 C47_13 1_555 1_555
H28_13 C48_13 1_555 1_555
H29_10 C49_10 1_555 1_555
H30_10 C50_10 1_555 1_555
H31_10 C51_10 1_555 1_555
C52_13 N16_13 1_555 1_555
C53_13 N17_13 1_555 1_555
C54_10 N18_10 1_555 1_555
C55_10 N19_10 1_555 1_555
C56_10 N20_10 1_555 1_555
H32_13 C52_13 1_555 1_555
H33_13 C53_13 1_555 1_555
H34_10 C54_10 1_555 1_555
H35_10 C55_10 1_555 1_555
H36_10 C56_10 1_555 1_555
Co3_9 N16_13 1_555 1_555
Co4_7 N17_13 1_555 1_555
Co5_7 N19_10 1_555 1_555
Co6_8 N20_10 1_555 1_555
S3_22 C57_22 1_555 1_555
C5_13 C6_13 1_555 1_555
N12_13 C28_13 1_555 1_555
N15_10 C31_10 1_555 1_555
C37_13 C42_13 1_555 1_555
C38_13 C43_13 1_555 1_555
C40_10 C45_10 1_555 1_555
C41_10 C46_10 1_555 1_555
C47_13 C52_13 1_555 1_555
C48_13 C53_13 1_555 1_555
C49_10 C54_10 1_555 1_555
C50_10 C55_10 1_555 1_555
C51_10 C56_10 1_555 1_555
N1_14 C1_14 1_555 1_555
C1_14 C4_14 1_555 1_555
N2_14 C2_14 1_555 1_555
C2_14 H1_14 1_555 1_555
C3_14 C2_14 1_555 1_555
H2_14 C3_14 1_555 1_555
C4_14 C3_14 1_555 1_555
C5_14 C4_14 1_555 1_555
H3_14 C5_14 1_555 1_555
C6_14 N2_14 1_555 1_555
H4_14 C6_14 1_555 1_555
Co4_7 N2_14 1_555 1_555
N3_23 Co4_7 1_555 1_555
C7_23 N3_23 1_555 1_555
S1_23 C7_23 1_555 1_555
N4_23 Co4_7 1_555 1_555
C8_23 N4_23 1_555 1_555
H5_23 C8_23 1_555 1_555
C9_23 C8_23 1_555 1_555
H6_23 C9_23 1_555 1_555
C10_23 C9_23 1_555 1_555
C11_23 C10_23 1_555 1_555
H7_23 C11_23 1_555 1_555
C12_23 N4_23 1_555 1_555
H8_23 C12_23 1_555 1_555
C13_23 N5_23 1_555 1_555
N5_23 C14_23 1_555 1_555
C14_23 C10_23 1_555 1_555
N6_23 C14_23 1_555 1_555
C15_23 N6_23 1_555 1_555
N7_23 C13_23 1_555 1_555
N8_16 C16_23 1_555 1_555
C16_23 H9_23 1_555 1_555
C17_23 C16_23 1_555 1_555
H10_23 C17_23 1_555 1_555
C18_23 C13_23 1_555 1_555
C19_23 C18_23 1_555 1_555
H11_23 C19_23 1_555 1_555
C20_23 N8_16 1_555 1_555
H12_23 C20_23 1_555 1_555
N9_22 C21_23 1_555 1_555
C21_23 H13_23 1_555 1_555
C22_23 C21_23 1_555 1_555
H14_23 C22_23 1_555 1_555
C23_23 C15_23 1_555 1_555
C24_23 C23_23 1_555 1_555
H15_23 C24_23 1_555 1_555
C25_23 N9_22 1_555 1_555
H16_23 C25_23 1_555 1_555
Co2_19 N8_16 1_555 1_555
N10_23 Co2_19 1_555 1_555
C26_23 N10_23 1_555 1_555
S2_23 C26_23 1_555 1_555
N11_14 C1_14 1_555 1_555
N12_14 C27_14 1_555 1_555
C27_14 N11_14 1_555 1_555
C28_14 N1_14 1_555 1_555
N16_14 C32_14 1_555 1_555
N17_14 C33_14 1_555 1_555
C32_14 H17_14 1_555 1_555
C33_14 H18_14 1_555 1_555
C37_14 C32_14 1_555 1_555
C38_14 C33_14 1_555 1_555
H22_14 C37_14 1_555 1_555
H23_14 C38_14 1_555 1_555
C42_14 C28_14 1_555 1_555
C43_14 C27_14 1_555 1_555
C47_14 C42_14 1_555 1_555
C48_14 C43_14 1_555 1_555
H27_14 C47_14 1_555 1_555
H28_14 C48_14 1_555 1_555
C52_14 N16_14 1_555 1_555
C53_14 N17_14 1_555 1_555
H32_14 C52_14 1_555 1_555
H33_14 C53_14 1_555 1_555
Co3_10 N16_14 1_555 1_555
Co5_7 N17_14 1_555 1_555
N21_23 Co4_7 1_555 1_555
C57_23 N21_23 1_555 1_555
S3_23 C57_23 1_555 1_555
N22_23 Co4_7 1_555 1_555
C58_23 N22_23 1_555 1_555
H37_23 C58_23 1_555 1_555
C59_23 C58_23 1_555 1_555
H38_23 C59_23 1_555 1_555
C60_23 C59_23 1_555 1_555
C61_23 C60_23 1_555 1_555
H39_23 C61_23 1_555 1_555
C62_23 N22_23 1_555 1_555
H40_23 C62_23 1_555 1_555
C63_23 N23_23 1_555 1_555
N23_23 C64_23 1_555 1_555
C64_23 C60_23 1_555 1_555
N24_23 C64_23 1_555 1_555
C65_23 N24_23 1_555 1_555
N25_23 C63_23 1_555 1_555
N26_19 C66_23 1_555 1_555
N27_23 Co2_19 1_555 1_555
N28_27 Co8_27 1_555 1_555
N29_27 Co8_27 1_555 1_555
C66_23 H41_23 1_555 1_555
C67_23 C66_23 1_555 1_555
H42_23 C67_23 1_555 1_555
C68_23 C63_23 1_555 1_555
C69_23 C68_23 1_555 1_555
H43_23 C69_23 1_555 1_555
C70_23 N26_19 1_555 1_555
H44_23 C70_23 1_555 1_555
N33 C71_23 1_555 1_555
N31_23 Co2_19 1_555 1_555
N32_23 Co2_19 1_555 1_555
N33_24 Co8_27 1_555 1_555
C71_23 H45_23 1_555 1_555
C72_23 C71_23 1_555 1_555
H46_23 C72_23 1_555 1_555
C73_23 C65_23 1_555 1_555
C74_23 C73_23 1_555 1_555
H47_23 C74_23 1_555 1_555
C75_23 N33 1_555 1_555
H48_23 C75_23 1_555 1_555
Co7_19 N26_19 1_555 1_555
Co8_27 N9_22 1_555 1_555
N34_23 Co2_19 1_555 1_555
N35_27 Co8_27 1_555 1_555
N36_27 Co8_27 1_555 1_555
C76_23 N34_23 1_555 1_555
C77_27 N35_27 1_555 1_555
C78_27 N36_27 1_555 1_555
S4_23 C76_23 1_555 1_555
S5_27 C77_27 1_555 1_555
S6_27 C78_27 1_555 1_555
C5_14 C6_14 1_555 1_555
C11_23 C12_23 1_555 1_555
C15_23 N7_23 1_555 1_555
C17_23 C18_23 1_555 1_555
C19_23 C20_23 1_555 1_555
C22_23 C23_23 1_555 1_555
C24_23 C25_23 1_555 1_555
N12_14 C28_14 1_555 1_555
C37_14 C42_14 1_555 1_555
C38_14 C43_14 1_555 1_555
C47_14 C52_14 1_555 1_555
C48_14 C53_14 1_555 1_555
C61_23 C62_23 1_555 1_555
C65_23 N25_23 1_555 1_555
C67_23 C68_23 1_555 1_555
C69_23 C70_23 1_555 1_555
C72_23 C73_23 1_555 1_555
C74_23 C75_23 1_555 1_555
N27_24 Co2_20 1_555 1_555
N32_24 Co2_20 1_555 1_555
N34_24 Co2_20 1_555 1_555
C76_24 N34_24 1_555 1_555
S4_24 C76_24 1_555 1_555
N3_24 Co5_7 1_555 1_555
C7_24 N3_24 1_555 1_555
S1_24 C7_24 1_555 1_555
N4_24 Co5_7 1_555 1_555
C8_24 N4_24 1_555 1_555
H5_24 C8_24 1_555 1_555
C9_24 C8_24 1_555 1_555
H6_24 C9_24 1_555 1_555
C10_24 C9_24 1_555 1_555
C11_24 C10_24 1_555 1_555
H7_24 C11_24 1_555 1_555
C12_24 N4_24 1_555 1_555
H8_24 C12_24 1_555 1_555
C13_24 N5_24 1_555 1_555
N5_24 C14_24 1_555 1_555
C14_24 C10_24 1_555 1_555
N6_24 C14_24 1_555 1_555
C15_24 N6_24 1_555 1_555
N7_24 C13_24 1_555 1_555
N8_17 C16_24 1_555 1_555
C16_24 H9_24 1_555 1_555
C17_24 C16_24 1_555 1_555
H10_24 C17_24 1_555 1_555
C18_24 C13_24 1_555 1_555
C19_24 C18_24 1_555 1_555
H11_24 C19_24 1_555 1_555
C20_24 N8_17 1_555 1_555
H12_24 C20_24 1_555 1_555
N9_23 C21_24 1_555 1_555
C21_24 H13_24 1_555 1_555
C22_24 C21_24 1_555 1_555
H14_24 C22_24 1_555 1_555
C23_24 C15_24 1_555 1_555
C24_24 C23_24 1_555 1_555
H15_24 C24_24 1_555 1_555
C25_24 N9_23 1_555 1_555
H16_24 C25_24 1_555 1_555
Co2_21 N8_17 1_555 1_555
N10_24 Co2_21 1_555 1_555
C26_24 N10_24 1_555 1_555
S2_24 C26_24 1_555 1_555
N21_24 Co5_7 1_555 1_555
C57_24 N21_24 1_555 1_555
S3_24 C57_24 1_555 1_555
N22_24 Co5_7 1_555 1_555
C58_24 N22_24 1_555 1_555
H37_24 C58_24 1_555 1_555
C59_24 C58_24 1_555 1_555
H38_24 C59_24 1_555 1_555
C60_24 C59_24 1_555 1_555
C61_24 C60_24 1_555 1_555
H39_24 C61_24 1_555 1_555
C62_24 N22_24 1_555 1_555
H40_24 C62_24 1_555 1_555
C63_24 N23_24 1_555 1_555
N23_24 C64_24 1_555 1_555
C64_24 C60_24 1_555 1_555
N24_24 C64_24 1_555 1_555
C65_24 N24_24 1_555 1_555
N25_24 C63_24 1_555 1_555
N27_19 C66_24 1_555 1_555
N28_28 Co8_28 1_555 1_555
N29_28 Co8_28 1_555 1_555
C66_24 H41_24 1_555 1_555
C67_24 C66_24 1_555 1_555
H42_24 C67_24 1_555 1_555
C68_24 C63_24 1_555 1_555
C69_24 C68_24 1_555 1_555
H43_24 C69_24 1_555 1_555
C70_24 N27_19 1_555 1_555
H44_24 C70_24 1_555 1_555
N30_16 C71_24 1_555 1_555
N31_24 Co2_21 1_555 1_555
N33_25 Co8_28 1_555 1_555
C71_24 H45_24 1_555 1_555
C72_24 C71_24 1_555 1_555
H46_24 C72_24 1_555 1_555
C73_24 C65_24 1_555 1_555
C74_24 C73_24 1_555 1_555
H47_24 C74_24 1_555 1_555
C75_24 N30_16 1_555 1_555
H48_24 C75_24 1_555 1_555
Co8_28 N9_23 1_555 1_555
Co9_17 N30_16 1_555 1_555
N35_28 Co8_28 1_555 1_555
N36_28 Co8_28 1_555 1_555
C77_28 N35_28 1_555 1_555
C78_28 N36_28 1_555 1_555
S5_28 C77_28 1_555 1_555
S6_28 C78_28 1_555 1_555
C11_24 C12_24 1_555 1_555
C15_24 N7_24 1_555 1_555
C17_24 C18_24 1_555 1_555
C19_24 C20_24 1_555 1_555
C22_24 C23_24 1_555 1_555
C24_24 C25_24 1_555 1_555
C61_24 C62_24 1_555 1_555
C65_24 N25_24 1_555 1_555
C67_24 C68_24 1_555 1_555
C69_24 C70_24 1_555 1_555
C72_24 C73_24 1_555 1_555
C74_24 C75_24 1_555 1_555
N28_29 Co9_17 1_555 1_555
N29_29 Co9_17 1_555 1_555
N33_26 Co9_17 1_555 1_555
N35_29 Co9_17 1_555 1_555
N36_29 Co9_17 1_555 1_555
C77_29 N35_29 1_555 1_555
C78_29 N36_29 1_555 1_555
S5_29 C77_29 1_555 1_555
S6_29 C78_29 1_555 1_555
N3_25 Co4 1_555 1_555
C7_25 N3_25 1_555 1_555
S1_25 C7_25 1_555 1_555
N4_25 Co4 1_555 1_555
C8_25 N4_25 1_555 1_555
H5_25 C8_25 1_555 1_555
C9_25 C8_25 1_555 1_555
H6_25 C9_25 1_555 1_555
C10_25 C9_25 1_555 1_555
C11_25 C10_25 1_555 1_555
H7_25 C11_25 1_555 1_555
C12_25 N4_25 1_555 1_555
H8_25 C12_25 1_555 1_555
C13_25 N5_25 1_555 1_555
N5_25 C14_25 1_555 1_555
C14_25 C10_25 1_555 1_555
N6_25 C14_25 1_555 1_555
C15_25 N6_25 1_555 1_555
N7_25 C13_25 1_555 1_555
N27_18 C16_25 1_555 1_555
C16_25 H9_25 1_555 1_555
C17_25 C16_25 1_555 1_555
H10_25 C17_25 1_555 1_555
C18_25 C13_25 1_555 1_555
C19_25 C18_25 1_555 1_555
H11_25 C19_25 1_555 1_555
C20_25 N27_18 1_555 1_555
H12_25 C20_25 1_555 1_555
N33_11 C21_25 1_555 1_555
C21_25 H13_25 1_555 1_555
C22_25 C21_25 1_555 1_555
H14_25 C22_25 1_555 1_555
C23_25 C15_25 1_555 1_555
C24_25 C23_25 1_555 1_555
H15_25 C24_25 1_555 1_555
C25_25 N33_11 1_555 1_555
H16_25 C25_25 1_555 1_555
N21_25 Co4 1_555 1_555
C57_25 N21_25 1_555 1_555
S3_25 C57_25 1_555 1_555
N22_25 Co4 1_555 1_555
C58_25 N22_25 1_555 1_555
H37_25 C58_25 1_555 1_555
C59_25 C58_25 1_555 1_555
H38_25 C59_25 1_555 1_555
C60_25 C59_25 1_555 1_555
C61_25 C60_25 1_555 1_555
H39_25 C61_25 1_555 1_555
C62_25 N22_25 1_555 1_555
H40_25 C62_25 1_555 1_555
C63_25 N23_25 1_555 1_555
N23_25 C64_25 1_555 1_555
C64_25 C60_25 1_555 1_555
N24_25 C64_25 1_555 1_555
C65_25 N24_25 1_555 1_555
N25_25 C63_25 1_555 1_555
N26_20 C66_25 1_555 1_555
C66_25 H41_25 1_555 1_555
C67_25 C66_25 1_555 1_555
H42_25 C67_25 1_555 1_555
C68_25 C63_25 1_555 1_555
C69_25 C68_25 1_555 1_555
H43_25 C69_25 1_555 1_555
C70_25 N26_20 1_555 1_555
H44_25 C70_25 1_555 1_555
N33_23 C71_25 1_555 1_555
C71_25 H45_25 1_555 1_555
C72_25 C71_25 1_555 1_555
H46_25 C72_25 1_555 1_555
C73_25 C65_25 1_555 1_555
C74_25 C73_25 1_555 1_555
H47_25 C74_25 1_555 1_555
C75_25 N33_23 1_555 1_555
H48_25 C75_25 1_555 1_555
Co7_20 N26_20 1_555 1_555
C11_25 C12_25 1_555 1_555
C15_25 N7_25 1_555 1_555
C17_25 C18_25 1_555 1_555
C19_25 C20_25 1_555 1_555
C22_25 C23_25 1_555 1_555
C24_25 C25_25 1_555 1_555
C61_25 C62_25 1_555 1_555
C65_25 N25_25 1_555 1_555
C67_25 C68_25 1_555 1_555
C69_25 C70_25 1_555 1_555
C72_25 C73_25 1_555 1_555
C74_25 C75_25 1_555 1_555
N1_15 C1_15 1_555 1_555
C1_15 C4_15 1_555 1_555
N2_15 C2_15 1_555 1_555
C2_15 H1_15 1_555 1_555
C3_15 C2_15 1_555 1_555
H2_15 C3_15 1_555 1_555
C4_15 C3_15 1_555 1_555
C5_15 C4_15 1_555 1_555
H3_15 C5_15 1_555 1_555
C6_15 N2_15 1_555 1_555
H4_15 C6_15 1_555 1_555
Co6_8 N2_15 1_555 1_555
N3_26 Co6_8 1_555 1_555
C7_26 N3_26 1_555 1_555
S1_26 C7_26 1_555 1_555
N4_26 Co6_8 1_555 1_555
C8_26 N4_26 1_555 1_555
H5_26 C8_26 1_555 1_555
C9_26 C8_26 1_555 1_555
H6_26 C9_26 1_555 1_555
C10_26 C9_26 1_555 1_555
C11_26 C10_26 1_555 1_555
H7_26 C11_26 1_555 1_555
C12_26 N4_26 1_555 1_555
H8_26 C12_26 1_555 1_555
C13_26 N5_26 1_555 1_555
N5_26 C14_26 1_555 1_555
C14_26 C10_26 1_555 1_555
N6_26 C14_26 1_555 1_555
C15_26 N6_26 1_555 1_555
N7_26 C13_26 1_555 1_555
N8_18 C16_26 1_555 1_555
C16_26 H9_26 1_555 1_555
C17_26 C16_26 1_555 1_555
H10_26 C17_26 1_555 1_555
C18_26 C13_26 1_555 1_555
C19_26 C18_26 1_555 1_555
H11_26 C19_26 1_555 1_555
C20_26 N8_18 1_555 1_555
H12_26 C20_26 1_555 1_555
N9_24 C21_26 1_555 1_555
C21_26 H13_26 1_555 1_555
C22_26 C21_26 1_555 1_555
H14_26 C22_26 1_555 1_555
C23_26 C15_26 1_555 1_555
C24_26 C23_26 1_555 1_555
H15_26 C24_26 1_555 1_555
C25_26 N9_24 1_555 1_555
H16_26 C25_26 1_555 1_555
Co2_22 N8_18 1_555 1_555
N10_25 Co2_22 1_555 1_555
C26_25 N10_25 1_555 1_555
S2_25 C26_25 1_555 1_555
N11_15 C1_15 1_555 1_555
N12_15 C27_15 1_555 1_555
C27_15 N11_15 1_555 1_555
C28_15 N1_15 1_555 1_555
N16_15 C32_15 1_555 1_555
N17_15 C33_15 1_555 1_555
C32_15 H17_15 1_555 1_555
C33_15 H18_15 1_555 1_555
C37_15 C32_15 1_555 1_555
C38_15 C33_15 1_555 1_555
H22_15 C37_15 1_555 1_555
H23_15 C38_15 1_555 1_555
C42_15 C28_15 1_555 1_555
C43_15 C27_15 1_555 1_555
C47_15 C42_15 1_555 1_555
C48_15 C43_15 1_555 1_555
H27_15 C47_15 1_555 1_555
H28_15 C48_15 1_555 1_555
C52_15 N16_15 1_555 1_555
C53_15 N17_15 1_555 1_555
H32_15 C52_15 1_555 1_555
H33_15 C53_15 1_555 1_555
Co3_10 N16_15 1_555 1_555
Co3_9 N17_15 1_555 1_555
N21_26 Co6_8 1_555 1_555
C57_26 N21_26 1_555 1_555
S3_26 C57_26 1_555 1_555
N22_26 Co6_8 1_555 1_555
C58_26 N22_26 1_555 1_555
H37_26 C58_26 1_555 1_555
C59_26 C58_26 1_555 1_555
H38_26 C59_26 1_555 1_555
C60_26 C59_26 1_555 1_555
C61_26 C60_26 1_555 1_555
H39_26 C61_26 1_555 1_555
C62_26 N22_26 1_555 1_555
H40_26 C62_26 1_555 1_555
C63_26 N23_26 1_555 1_555
N23_26 C64_26 1_555 1_555
C64_26 C60_26 1_555 1_555
N24_26 C64_26 1_555 1_555
C65_26 N24_26 1_555 1_555
N25_26 C63_26 1_555 1_555
N26_21 C66_26 1_555 1_555
N27_25 Co2_22 1_555 1_555
N28_30 Co9_15 1_555 1_555
N29_30 Co9_15 1_555 1_555
C66_26 H41_26 1_555 1_555
C67_26 C66_26 1_555 1_555
H42_26 C67_26 1_555 1_555
C68_26 C63_26 1_555 1_555
C69_26 C68_26 1_555 1_555
H43_26 C69_26 1_555 1_555
C70_26 N26_21 1_555 1_555
H44_26 C70_26 1_555 1_555
N33_20 C71_26 1_555 1_555
N31_25 Co2_22 1_555 1_555
N32_25 Co2_22 1_555 1_555
C71_26 H45_26 1_555 1_555
C72_26 C71_26 1_555 1_555
H46_26 C72_26 1_555 1_555
C73_26 C65_26 1_555 1_555
C74_26 C73_26 1_555 1_555
H47_26 C74_26 1_555 1_555
C75_26 N33_20 1_555 1_555
H48_26 C75_26 1_555 1_555
Co7_22 N26_21 1_555 1_555
Co9_15 N9_24 1_555 1_555
N34_25 Co2_22 1_555 1_555
N35_30 Co9_15 1_555 1_555
N36_30 Co9_15 1_555 1_555
C76_25 N34_25 1_555 1_555
C77_30 N35_30 1_555 1_555
C78_30 N36_30 1_555 1_555
S4_25 C76_25 1_555 1_555
S5_30 C77_30 1_555 1_555
S6_30 C78_30 1_555 1_555
C5_15 C6_15 1_555 1_555
C11_26 C12_26 1_555 1_555
C15_26 N7_26 1_555 1_555
C17_26 C18_26 1_555 1_555
C19_26 C20_26 1_555 1_555
C22_26 C23_26 1_555 1_555
C24_26 C25_26 1_555 1_555
N12_15 C28_15 1_555 1_555
C37_15 C42_15 1_555 1_555
C38_15 C43_15 1_555 1_555
C47_15 C52_15 1_555 1_555
C48_15 C53_15 1_555 1_555
C61_26 C62_26 1_555 1_555
C65_26 N25_26 1_555 1_555
C67_26 C68_26 1_555 1_555
C69_26 C70_26 1_555 1_555
C72_26 C73_26 1_555 1_555
C74_26 C75_26 1_555 1_555
N1_16 C1_16 1_555 1_555
C1_16 C4_16 1_555 1_555
N2_16 C2_16 1_555 1_555
C2_16 H1_16 1_555 1_555
C3_16 C2_16 1_555 1_555
H2_16 C3_16 1_555 1_555
C4_16 C3_16 1_555 1_555
C5_16 C4_16 1_555 1_555
H3_16 C5_16 1_555 1_555
C6_16 N2_16 1_555 1_555
H4_16 C6_16 1_555 1_555
Co4_6 N2_16 1_555 1_555
N3_27 Co4_6 1_555 1_555
C7_27 N3_27 1_555 1_555
S1_27 C7_27 1_555 1_555
N4_27 Co4_6 1_555 1_555
C8_27 N4_27 1_555 1_555
H5_27 C8_27 1_555 1_555
C9_27 C8_27 1_555 1_555
H6_27 C9_27 1_555 1_555
C10_27 C9_27 1_555 1_555
C11_27 C10_27 1_555 1_555
H7_27 C11_27 1_555 1_555
C12_27 N4_27 1_555 1_555
H8_27 C12_27 1_555 1_555
C13_27 N5_27 1_555 1_555
N5_27 C14_27 1_555 1_555
C14_27 C10_27 1_555 1_555
N6_27 C14_27 1_555 1_555
C15_27 N6_27 1_555 1_555
N7_27 C13_27 1_555 1_555
N8_19 C16_27 1_555 1_555
C16_27 H9_27 1_555 1_555
C17_27 C16_27 1_555 1_555
H10_27 C17_27 1_555 1_555
C18_27 C13_27 1_555 1_555
C19_27 C18_27 1_555 1_555
H11_27 C19_27 1_555 1_555
C20_27 N8_19 1_555 1_555
H12_27 C20_27 1_555 1_555
N9_25 C21_27 1_555 1_555
C21_27 H13_27 1_555 1_555
C22_27 C21_27 1_555 1_555
H14_27 C22_27 1_555 1_555
C23_27 C15_27 1_555 1_555
C24_27 C23_27 1_555 1_555
H15_27 C24_27 1_555 1_555
C25_27 N9_25 1_555 1_555
H16_27 C25_27 1_555 1_555
Co2_23 N8_19 1_555 1_555
N10_26 Co2_23 1_555 1_555
C26_26 N10_26 1_555 1_555
S2_26 C26_26 1_555 1_555
N11_16 C1_16 1_555 1_555
N12_16 C27_16 1_555 1_555
C27_16 N11_16 1_555 1_555
C28_16 N1_16 1_555 1_555
N16_16 C32_16 1_555 1_555
N17_16 C33_16 1_555 1_555
C32_16 H17_16 1_555 1_555
C33_16 H18_16 1_555 1_555
C37_16 C32_16 1_555 1_555
C38_16 C33_16 1_555 1_555
H22_16 C37_16 1_555 1_555
H23_16 C38_16 1_555 1_555
C42_16 C28_16 1_555 1_555
C43_16 C27_16 1_555 1_555
C47_16 C42_16 1_555 1_555
C48_16 C43_16 1_555 1_555
H27_16 C47_16 1_555 1_555
H28_16 C48_16 1_555 1_555
C52_16 N16_16 1_555 1_555
C53_16 N17_16 1_555 1_555
H32_16 C52_16 1_555 1_555
H33_16 C53_16 1_555 1_555
Co3_11 N16_16 1_555 1_555
Co5_6 N17_16 1_555 1_555
N21_27 Co4_6 1_555 1_555
C57_27 N21_27 1_555 1_555
S3_27 C57_27 1_555 1_555
N22_27 Co4_6 1_555 1_555
C58_27 N22_27 1_555 1_555
H37_27 C58_27 1_555 1_555
C59_27 C58_27 1_555 1_555
H38_27 C59_27 1_555 1_555
C60_27 C59_27 1_555 1_555
C61_27 C60_27 1_555 1_555
H39_27 C61_27 1_555 1_555
C62_27 N22_27 1_555 1_555
H40_27 C62_27 1_555 1_555
C63_27 N23_27 1_555 1_555
N23_27 C64_27 1_555 1_555
C64_27 C60_27 1_555 1_555
N24_27 C64_27 1_555 1_555
C65_27 N24_27 1_555 1_555
N25_27 C63_27 1_555 1_555
N27_23 C66_27 1_555 1_555
N27_26 Co2_23 1_555 1_555
N28_31 Co8_29 1_555 1_555
N29_31 Co8_29 1_555 1_555
C66_27 H41_27 1_555 1_555
C67_27 C66_27 1_555 1_555
H42_27 C67_27 1_555 1_555
C68_27 C63_27 1_555 1_555
C69_27 C68_27 1_555 1_555
H43_27 C69_27 1_555 1_555
C70_27 N27_23 1_555 1_555
H44_27 C70_27 1_555 1_555
N33_26 C71_27 1_555 1_555
N31_26 Co2_23 1_555 1_555
N32_26 Co2_23 1_555 1_555
N33_27 Co8_29 1_555 1_555
C71_27 H45_27 1_555 1_555
C72_27 C71_27 1_555 1_555
H46_27 C72_27 1_555 1_555
C73_27 C65_27 1_555 1_555
C74_27 C73_27 1_555 1_555
H47_27 C74_27 1_555 1_555
C75_27 N33_26 1_555 1_555
H48_27 C75_27 1_555 1_555
Co8_29 N9_25 1_555 1_555
N34_26 Co2_23 1_555 1_555
N35_31 Co8_29 1_555 1_555
N36_31 Co8_29 1_555 1_555
C76_26 N34_26 1_555 1_555
C77_31 N35_31 1_555 1_555
C78_31 N36_31 1_555 1_555
S4_26 C76_26 1_555 1_555
S5_31 C77_31 1_555 1_555
S6_31 C78_31 1_555 1_555
C5_16 C6_16 1_555 1_555
C11_27 C12_27 1_555 1_555
C15_27 N7_27 1_555 1_555
C17_27 C18_27 1_555 1_555
C19_27 C20_27 1_555 1_555
C22_27 C23_27 1_555 1_555
C24_27 C25_27 1_555 1_555
N12_16 C28_16 1_555 1_555
C37_16 C42_16 1_555 1_555
C38_16 C43_16 1_555 1_555
C47_16 C52_16 1_555 1_555
C48_16 C53_16 1_555 1_555
C61_27 C62_27 1_555 1_555
C65_27 N25_27 1_555 1_555
C67_27 C68_27 1_555 1_555
C69_27 C70_27 1_555 1_555
C72_27 C73_27 1_555 1_555
C74_27 C75_27 1_555 1_555
N29_32 Co8_30 1_555 1_555
N33_28 Co8_30 1_555 1_555
N36_32 Co8_30 1_555 1_555
C78_32 N36_32 1_555 1_555
S6_32 C78_32 1_555 1_555
N3_28 Co1_10 1_555 1_555
N4_28 Co1_10 1_555 1_555
C8_28 N4_28 1_555 1_555
H5_28 C8_28 1_555 1_555
C9_28 C8_28 1_555 1_555
H6_28 C9_28 1_555 1_555
C10_28 C9_28 1_555 1_555
C11_28 C10_28 1_555 1_555
H7_28 C11_28 1_555 1_555
C12_28 N4_28 1_555 1_555
H8_28 C12_28 1_555 1_555
C13_28 N5_28 1_555 1_555
N5_28 C14_28 1_555 1_555
C14_28 C10_28 1_555 1_555
N6_28 C14_28 1_555 1_555
C15_28 N6_28 1_555 1_555
N7_28 C13_28 1_555 1_555
N27_10 C16_28 1_555 1_555
C16_28 H9_28 1_555 1_555
C17_28 C16_28 1_555 1_555
H10_28 C17_28 1_555 1_555
C18_28 C13_28 1_555 1_555
C19_28 C18_28 1_555 1_555
H11_28 C19_28 1_555 1_555
C20_28 N27_10 1_555 1_555
H12_28 C20_28 1_555 1_555
N9_26 C21_28 1_555 1_555
C21_28 H13_28 1_555 1_555
C22_28 C21_28 1_555 1_555
H14_28 C22_28 1_555 1_555
C23_28 C15_28 1_555 1_555
C24_28 C23_28 1_555 1_555
H15_28 C24_28 1_555 1_555
C25_28 N9_26 1_555 1_555
H16_28 C25_28 1_555 1_555
N21_28 Co1_10 1_555 1_555
N22_28 Co1_10 1_555 1_555
C58_28 N22_28 1_555 1_555
H37_28 C58_28 1_555 1_555
C59_28 C58_28 1_555 1_555
H38_28 C59_28 1_555 1_555
C60_28 C59_28 1_555 1_555
C61_28 C60_28 1_555 1_555
H39_28 C61_28 1_555 1_555
C62_28 N22_28 1_555 1_555
H40_28 C62_28 1_555 1_555
C63_28 N23_28 1_555 1_555
N23_28 C64_28 1_555 1_555
C64_28 C60_28 1_555 1_555
N24_28 C64_28 1_555 1_555
C65_28 N24_28 1_555 1_555
N25_28 C63_28 1_555 1_555
N27_14 C66_28 1_555 1_555
N28_32 Co8_31 1_555 1_555
C66_28 H41_28 1_555 1_555
C67_28 C66_28 1_555 1_555
H42_28 C67_28 1_555 1_555
C68_28 C63_28 1_555 1_555
C69_28 C68_28 1_555 1_555
H43_28 C69_28 1_555 1_555
C70_28 N27_14 1_555 1_555
H44_28 C70_28 1_555 1_555
N30_17 C71_28 1_555 1_555
C71_28 H45_28 1_555 1_555
C72_28 C71_28 1_555 1_555
H46_28 C72_28 1_555 1_555
C73_28 C65_28 1_555 1_555
C74_28 C73_28 1_555 1_555
H47_28 C74_28 1_555 1_555
C75_28 N30_17 1_555 1_555
H48_28 C75_28 1_555 1_555
Co8_31 N9_26 1_555 1_555
Co9_18 N30_17 1_555 1_555
N35_32 Co8_31 1_555 1_555
C77_32 N35_32 1_555 1_555
S5_32 C77_32 1_555 1_555
C11_28 C12_28 1_555 1_555
C15_28 N7_28 1_555 1_555
C17_28 C18_28 1_555 1_555
C19_28 C20_28 1_555 1_555
C22_28 C23_28 1_555 1_555
C24_28 C25_28 1_555 1_555
C61_28 C62_28 1_555 1_555
C65_28 N25_28 1_555 1_555
C67_28 C68_28 1_555 1_555
C69_28 C70_28 1_555 1_555
C72_28 C73_28 1_555 1_555
C74_28 C75_28 1_555 1_555
N1_17 C1_17 1_555 1_555
C1_17 C4_17 1_555 1_555
N2_17 C2_17 1_555 1_555
C2_17 H1_17 1_555 1_555
C3_17 C2_17 1_555 1_555
H2_17 C3_17 1_555 1_555
C4_17 C3_17 1_555 1_555
C5_17 C4_17 1_555 1_555
H3_17 C5_17 1_555 1_555
C6_17 N2_17 1_555 1_555
H4_17 C6_17 1_555 1_555
S1_28 C7_28 1_555 1_555
N11_17 C1_17 1_555 1_555
N12_17 C27_17 1_555 1_555
N13_11 C29_11 1_555 1_555
N14_11 C29_11 1_555 1_555
N15_11 C30_11 1_555 1_555
C27_17 N11_17 1_555 1_555
C28_17 N1_17 1_555 1_555
C29_11 C44_11 1_555 1_555
C30_11 N14_11 1_555 1_555
C31_11 N13_11 1_555 1_555
N16_17 C32_17 1_555 1_555
N17_17 C33_17 1_555 1_555
N19_11 C35_11 1_555 1_555
N20_11 C36_11 1_555 1_555
C32_17 H17_17 1_555 1_555
C33_17 H18_17 1_555 1_555
C34_11 N18_11 1_555 1_555
C35_11 H20_11 1_555 1_555
C36_11 H21_11 1_555 1_555
H19_11 C34_11 1_555 1_555
C37_17 C32_17 1_555 1_555
C38_17 C33_17 1_555 1_555
C39_11 C34_11 1_555 1_555
C40_11 C35_11 1_555 1_555
C41_11 C36_11 1_555 1_555
H22_17 C37_17 1_555 1_555
H23_17 C38_17 1_555 1_555
H24_11 C39_11 1_555 1_555
H25_11 C40_11 1_555 1_555
H26_11 C41_11 1_555 1_555
C42_17 C28_17 1_555 1_555
C43_17 C27_17 1_555 1_555
C44_11 C39_11 1_555 1_555
C45_11 C31_11 1_555 1_555
C46_11 C30_11 1_555 1_555
C47_17 C42_17 1_555 1_555
C48_17 C43_17 1_555 1_555
C49_11 C44_11 1_555 1_555
C50_11 C45_11 1_555 1_555
C51_11 C46_11 1_555 1_555
H27_17 C47_17 1_555 1_555
H28_17 C48_17 1_555 1_555
H29_11 C49_11 1_555 1_555
H30_11 C50_11 1_555 1_555
H31_11 C51_11 1_555 1_555
C52_17 N16_17 1_555 1_555
C53_17 N17_17 1_555 1_555
C54_11 N18_11 1_555 1_555
C55_11 N19_11 1_555 1_555
C56_11 N20_11 1_555 1_555
H32_17 C52_17 1_555 1_555
H33_17 C53_17 1_555 1_555
H34_11 C54_11 1_555 1_555
H35_11 C55_11 1_555 1_555
H36_11 C56_11 1_555 1_555
Co4_8 N17_17 1_555 1_555
Co5_8 N19_11 1_555 1_555
S3_28 C57_28 1_555 1_555
C5_17 C6_17 1_555 1_555
N12_17 C28_17 1_555 1_555
N15_11 C31_11 1_555 1_555
C37_17 C42_17 1_555 1_555
C38_17 C43_17 1_555 1_555
C40_11 C45_11 1_555 1_555
C41_11 C46_11 1_555 1_555
C47_17 C52_17 1_555 1_555
C48_17 C53_17 1_555 1_555
C49_11 C54_11 1_555 1_555
C50_11 C55_11 1_555 1_555
C51_11 C56_11 1_555 1_555
N1_18 C1_18 1_555 1_555
C1_18 C4_18 1_555 1_555
N2_18 C2_18 1_555 1_555
C2_18 H1_18 1_555 1_555
C3_18 C2_18 1_555 1_555
H2_18 C3_18 1_555 1_555
C4_18 C3_18 1_555 1_555
C5_18 C4_18 1_555 1_555
H3_18 C5_18 1_555 1_555
C6_18 N2_18 1_555 1_555
H4_18 C6_18 1_555 1_555
S1_29 C7_29 1_555 1_555
N11_18 C1_18 1_555 1_555
N12_18 C27_18 1_555 1_555
C27_18 N11_18 1_555 1_555
C28_18 N1_18 1_555 1_555
N16_18 C32_18 1_555 1_555
N17_18 C33_18 1_555 1_555
C32_18 H17_18 1_555 1_555
C33_18 H18_18 1_555 1_555
C37_18 C32_18 1_555 1_555
C38_18 C33_18 1_555 1_555
H22_18 C37_18 1_555 1_555
H23_18 C38_18 1_555 1_555
C42_18 C28_18 1_555 1_555
C43_18 C27_18 1_555 1_555
C47_18 C42_18 1_555 1_555
C48_18 C43_18 1_555 1_555
H27_18 C47_18 1_555 1_555
H28_18 C48_18 1_555 1_555
C52_18 N16_18 1_555 1_555
C53_18 N17_18 1_555 1_555
H32_18 C52_18 1_555 1_555
H33_18 C53_18 1_555 1_555
Co6_3 N16_18 1_555 1_555
Co6_7 N17_18 1_555 1_555
S3_29 C57_29 1_555 1_555
C5_18 C6_18 1_555 1_555
N12_18 C28_18 1_555 1_555
C37_18 C42_18 1_555 1_555
C38_18 C43_18 1_555 1_555
C47_18 C52_18 1_555 1_555
C48_18 C53_18 1_555 1_555
N3_29 Co3_4 1_555 1_555
N4_29 Co3_4 1_555 1_555
C8_29 N4_29 1_555 1_555
H5_29 C8_29 1_555 1_555
C9_29 C8_29 1_555 1_555
H6_29 C9_29 1_555 1_555
C10_29 C9_29 1_555 1_555
C11_29 C10_29 1_555 1_555
H7_29 C11_29 1_555 1_555
C12_29 N4_29 1_555 1_555
H8_29 C12_29 1_555 1_555
C13_29 N5_29 1_555 1_555
N5_29 C14_29 1_555 1_555
C14_29 C10_29 1_555 1_555
N6_29 C14_29 1_555 1_555
C15_29 N6_29 1_555 1_555
N7_29 C13_29 1_555 1_555
N27_9 C16_29 1_555 1_555
C16_29 H9_29 1_555 1_555
C17_29 C16_29 1_555 1_555
H10_29 C17_29 1_555 1_555
C18_29 C13_29 1_555 1_555
C19_29 C18_29 1_555 1_555
H11_29 C19_29 1_555 1_555
C20_29 N27_9 1_555 1_555
H12_29 C20_29 1_555 1_555
N9_27 C21_29 1_555 1_555
C21_29 H13_29 1_555 1_555
C22_29 C21_29 1_555 1_555
H14_29 C22_29 1_555 1_555
C23_29 C15_29 1_555 1_555
C24_29 C23_29 1_555 1_555
H15_29 C24_29 1_555 1_555
C25_29 N9_27 1_555 1_555
H16_29 C25_29 1_555 1_555
N21_29 Co3_4 1_555 1_555
N22_29 Co3_4 1_555 1_555
C58_29 N22_29 1_555 1_555
H37_29 C58_29 1_555 1_555
C59_29 C58_29 1_555 1_555
H38_29 C59_29 1_555 1_555
C60_29 C59_29 1_555 1_555
C61_29 C60_29 1_555 1_555
H39_29 C61_29 1_555 1_555
C62_29 N22_29 1_555 1_555
H40_29 C62_29 1_555 1_555
C63_29 N23_29 1_555 1_555
N23_29 C64_29 1_555 1_555
C64_29 C60_29 1_555 1_555
N24_29 C64_29 1_555 1_555
C65_29 N24_29 1_555 1_555
N25_29 C63_29 1_555 1_555
N26_22 C66_29 1_555 1_555
N28_33 Co9_13 1_555 1_555
N29_33 Co9_13 1_555 1_555
C66_29 H41_29 1_555 1_555
C67_29 C66_29 1_555 1_555
H42_29 C67_29 1_555 1_555
C68_29 C63_29 1_555 1_555
C69_29 C68_29 1_555 1_555
H43_29 C69_29 1_555 1_555
C70_29 N26_22 1_555 1_555
H44_29 C70_29 1_555 1_555
N30_18 C71_29 1_555 1_555
C71_29 H45_29 1_555 1_555
C72_29 C71_29 1_555 1_555
H46_29 C72_29 1_555 1_555
C73_29 C65_29 1_555 1_555
C74_29 C73_29 1_555 1_555
H47_29 C74_29 1_555 1_555
C75_29 N30_18 1_555 1_555
H48_29 C75_29 1_555 1_555
Co7_23 N26_22 1_555 1_555
Co9_13 N9_27 1_555 1_555
Co9_19 N30_18 1_555 1_555
N35_33 Co9_13 1_555 1_555
N36_33 Co9_13 1_555 1_555
C77_33 N35_33 1_555 1_555
C78_33 N36_33 1_555 1_555
S5_33 C77_33 1_555 1_555
S6_33 C78_33 1_555 1_555
C11_29 C12_29 1_555 1_555
C15_29 N7_29 1_555 1_555
C17_29 C18_29 1_555 1_555
C19_29 C20_29 1_555 1_555
C22_29 C23_29 1_555 1_555
C24_29 C25_29 1_555 1_555
C61_29 C62_29 1_555 1_555
C65_29 N25_29 1_555 1_555
C67_29 C68_29 1_555 1_555
C69_29 C70_29 1_555 1_555
C72_29 C73_29 1_555 1_555
C74_29 C75_29 1_555 1_555
N10_27 Co7_23 1_555 1_555
C26_27 N10_27 1_555 1_555
S2_27 C26_27 1_555 1_555
N28_34 Co9_19 1_555 1_555
N29_34 Co9_19 1_555 1_555
N31_27 Co7_23 1_555 1_555
N33_29 Co9_19 1_555 1_555
N35_34 Co9_19 1_555 1_555
N36_34 Co9_19 1_555 1_555
C77_34 N35_34 1_555 1_555
C78_34 N36_34 1_555 1_555
S5_34 C77_34 1_555 1_555
S6_34 C78_34 1_555 1_555
N27_27 Co7_24 1_555 1_555
N32_27 Co7_24 1_555 1_555
N34_27 Co7_24 1_555 1_555
C76_27 N34_27 1_555 1_555
S4_27 C76_27 1_555 1_555
N1_19 C1_19 1_555 1_555
C1_19 C4_19 1_555 1_555
N2_19 C2_19 1_555 1_555
C2_19 H1_19 1_555 1_555
C3_19 C2_19 1_555 1_555
H2_19 C3_19 1_555 1_555
C4_19 C3_19 1_555 1_555
C5_19 C4_19 1_555 1_555
H3_19 C5_19 1_555 1_555
C6_19 N2_19 1_555 1_555
H4_19 C6_19 1_555 1_555
Co1_11 N2_19 1_555 1_555
N3_30 Co1_11 1_555 1_555
C7_30 N3_30 1_555 1_555
S1_30 C7_30 1_555 1_555
N4_30 Co1_11 1_555 1_555
C8_30 N4_30 1_555 1_555
H5_30 C8_30 1_555 1_555
C9_30 C8_30 1_555 1_555
H6_30 C9_30 1_555 1_555
C10_30 C9_30 1_555 1_555
C11_30 C10_30 1_555 1_555
H7_30 C11_30 1_555 1_555
C12_30 N4_30 1_555 1_555
H8_30 C12_30 1_555 1_555
C13_30 N5_30 1_555 1_555
N5_30 C14_30 1_555 1_555
C14_30 C10_30 1_555 1_555
N6_30 C14_30 1_555 1_555
C15_30 N6_30 1_555 1_555
N7_30 C13_30 1_555 1_555
N27_27 C16_30 1_555 1_555
C16_30 H9_30 1_555 1_555
C17_30 C16_30 1_555 1_555
H10_30 C17_30 1_555 1_555
C18_30 C13_30 1_555 1_555
C19_30 C18_30 1_555 1_555
H11_30 C19_30 1_555 1_555
C20_30 N27_27 1_555 1_555
H12_30 C20_30 1_555 1_555
N33_6 C21_30 1_555 1_555
C21_30 H13_30 1_555 1_555
C22_30 C21_30 1_555 1_555
H14_30 C22_30 1_555 1_555
C23_30 C15_30 1_555 1_555
C24_30 C23_30 1_555 1_555
H15_30 C24_30 1_555 1_555
C25_30 N33_6 1_555 1_555
H16_30 C25_30 1_555 1_555
N11_19 C1_19 1_555 1_555
N12_19 C27_19 1_555 1_555
N13_12 C29_12 1_555 1_555
N14_12 C29_12 1_555 1_555
N15_12 C30_12 1_555 1_555
C27_19 N11_19 1_555 1_555
C28_19 N1_19 1_555 1_555
C29_12 C44_12 1_555 1_555
C30_12 N14_12 1_555 1_555
C31_12 N13_12 1_555 1_555
N16_19 C32_19 1_555 1_555
N17_19 C33_19 1_555 1_555
N18_12 Co1_11 1_555 1_555
N19_12 C35_12 1_555 1_555
N20_12 C36_12 1_555 1_555
C32_19 H17_19 1_555 1_555
C33_19 H18_19 1_555 1_555
C34_12 N18_12 1_555 1_555
C35_12 H20_12 1_555 1_555
C36_12 H21_12 1_555 1_555
H19_12 C34_12 1_555 1_555
C37_19 C32_19 1_555 1_555
C38_19 C33_19 1_555 1_555
C39_12 C34_12 1_555 1_555
C40_12 C35_12 1_555 1_555
C41_12 C36_12 1_555 1_555
H22_19 C37_19 1_555 1_555
H23_19 C38_19 1_555 1_555
H24_12 C39_12 1_555 1_555
H25_12 C40_12 1_555 1_555
H26_12 C41_12 1_555 1_555
C42_19 C28_19 1_555 1_555
C43_19 C27_19 1_555 1_555
C44_12 C39_12 1_555 1_555
C45_12 C31_12 1_555 1_555
C46_12 C30_12 1_555 1_555
C47_19 C42_19 1_555 1_555
C48_19 C43_19 1_555 1_555
C49_12 C44_12 1_555 1_555
C50_12 C45_12 1_555 1_555
C51_12 C46_12 1_555 1_555
H27_19 C47_19 1_555 1_555
H28_19 C48_19 1_555 1_555
H29_12 C49_12 1_555 1_555
H30_12 C50_12 1_555 1_555
H31_12 C51_12 1_555 1_555
C52_19 N16_19 1_555 1_555
C53_19 N17_19 1_555 1_555
C54_12 N18_12 1_555 1_555
C55_12 N19_12 1_555 1_555
C56_12 N20_12 1_555 1_555
H32_19 C52_19 1_555 1_555
H33_19 C53_19 1_555 1_555
H34_12 C54_12 1_555 1_555
H35_12 C55_12 1_555 1_555
H36_12 C56_12 1_555 1_555
Co5_8 N19_12 1_555 1_555
Co4_8 N20_12 1_555 1_555
N21_30 Co1_11 1_555 1_555
C57_30 N21_30 1_555 1_555
S3_30 C57_30 1_555 1_555
N22_30 Co1_11 1_555 1_555
C58_30 N22_30 1_555 1_555
H37_30 C58_30 1_555 1_555
C59_30 C58_30 1_555 1_555
H38_30 C59_30 1_555 1_555
C60_30 C59_30 1_555 1_555
C61_30 C60_30 1_555 1_555
H39_30 C61_30 1_555 1_555
C62_30 N22_30 1_555 1_555
H40_30 C62_30 1_555 1_555
C63_30 N23_30 1_555 1_555
N23_30 C64_30 1_555 1_555
C64_30 C60_30 1_555 1_555
N24_30 C64_30 1_555 1_555
C65_30 N24_30 1_555 1_555
N25_30 C63_30 1_555 1_555
N26_23 C66_30 1_555 1_555
C66_30 H41_30 1_555 1_555
C67_30 C66_30 1_555 1_555
H42_30 C67_30 1_555 1_555
C68_30 C63_30 1_555 1_555
C69_30 C68_30 1_555 1_555
H43_30 C69_30 1_555 1_555
C70_30 N26_23 1_555 1_555
H44_30 C70_30 1_555 1_555
N30_19 C71_30 1_555 1_555
C71_30 H45_30 1_555 1_555
C72_30 C71_30 1_555 1_555
H46_30 C72_30 1_555 1_555
C73_30 C65_30 1_555 1_555
C74_30 C73_30 1_555 1_555
H47_30 C74_30 1_555 1_555
C75_30 N30_19 1_555 1_555
H48_30 C75_30 1_555 1_555
Co7_25 N26_23 1_555 1_555
Co9_20 N30_19 1_555 1_555
C5_19 C6_19 1_555 1_555
C11_30 C12_30 1_555 1_555
C15_30 N7_30 1_555 1_555
C17_30 C18_30 1_555 1_555
C19_30 C20_30 1_555 1_555
C22_30 C23_30 1_555 1_555
C24_30 C25_30 1_555 1_555
N12_19 C28_19 1_555 1_555
N15_12 C31_12 1_555 1_555
C37_19 C42_19 1_555 1_555
C38_19 C43_19 1_555 1_555
C40_12 C45_12 1_555 1_555
C41_12 C46_12 1_555 1_555
C47_19 C52_19 1_555 1_555
C48_19 C53_19 1_555 1_555
C49_12 C54_12 1_555 1_555
C50_12 C55_12 1_555 1_555
C51_12 C56_12 1_555 1_555
C61_30 C62_30 1_555 1_555
C65_30 N25_30 1_555 1_555
C67_30 C68_30 1_555 1_555
C69_30 C70_30 1_555 1_555
C72_30 C73_30 1_555 1_555
C74_30 C75_30 1_555 1_555
N27_28 Co2_24 1_555 1_555
N32_28 Co2_24 1_555 1_555
N34_28 Co2_24 1_555 1_555
C76_28 N34_28 1_555 1_555
S4_28 C76_28 1_555 1_555
N29_35 Co8_32 1_555 1_555
N33_30 Co8_32 1_555 1_555
N36_35 Co8_32 1_555 1_555
C78_35 N36_35 1_555 1_555
S6_35 C78_35 1_555 1_555
N3_31 Co5_8 1_555 1_555
C7_31 N3_31 1_555 1_555
S1_31 C7_31 1_555 1_555
N4_31 Co5_8 1_555 1_555
C8_31 N4_31 1_555 1_555
H5_31 C8_31 1_555 1_555
C9_31 C8_31 1_555 1_555
H6_31 C9_31 1_555 1_555
C10_31 C9_31 1_555 1_555
C11_31 C10_31 1_555 1_555
H7_31 C11_31 1_555 1_555
C12_31 N4_31 1_555 1_555
H8_31 C12_31 1_555 1_555
C13_31 N5_31 1_555 1_555
N5_31 C14_31 1_555 1_555
C14_31 C10_31 1_555 1_555
N6_31 C14_31 1_555 1_555
C15_31 N6_31 1_555 1_555
N7_31 C13_31 1_555 1_555
N8_20 C16_31 1_555 1_555
C16_31 H9_31 1_555 1_555
C17_31 C16_31 1_555 1_555
H10_31 C17_31 1_555 1_555
C18_31 C13_31 1_555 1_555
C19_31 C18_31 1_555 1_555
H11_31 C19_31 1_555 1_555
C20_31 N8_20 1_555 1_555
H12_31 C20_31 1_555 1_555
N9_28 C21_31 1_555 1_555
C21_31 H13_31 1_555 1_555
C22_31 C21_31 1_555 1_555
H14_31 C22_31 1_555 1_555
C23_31 C15_31 1_555 1_555
C24_31 C23_31 1_555 1_555
H15_31 C24_31 1_555 1_555
C25_31 N9_28 1_555 1_555
H16_31 C25_31 1_555 1_555
Co2_25 N8_20 1_555 1_555
N10_28 Co2_25 1_555 1_555
C26_28 N10_28 1_555 1_555
S2_28 C26_28 1_555 1_555
N21_31 Co5_8 1_555 1_555
C57_31 N21_31 1_555 1_555
S3_31 C57_31 1_555 1_555
N22_31 Co5_8 1_555 1_555
C58_31 N22_31 1_555 1_555
H37_31 C58_31 1_555 1_555
C59_31 C58_31 1_555 1_555
H38_31 C59_31 1_555 1_555
C60_31 C59_31 1_555 1_555
C61_31 C60_31 1_555 1_555
H39_31 C61_31 1_555 1_555
C62_31 N22_31 1_555 1_555
H40_31 C62_31 1_555 1_555
C63_31 N23_31 1_555 1_555
N23_31 C64_31 1_555 1_555
C64_31 C60_31 1_555 1_555
N24_31 C64_31 1_555 1_555
C65_31 N24_31 1_555 1_555
N25_31 C63_31 1_555 1_555
N26_24 C66_31 1_555 1_555
N28_35 Co8_33 1_555 1_555
C66_31 H41_31 1_555 1_555
C67_31 C66_31 1_555 1_555
H42_31 C67_31 1_555 1_555
C68_31 C63_31 1_555 1_555
C69_31 C68_31 1_555 1_555
H43_31 C69_31 1_555 1_555
C70_31 N26_24 1_555 1_555
H44_31 C70_31 1_555 1_555
N33_27 C71_31 1_555 1_555
N31_28 Co2_25 1_555 1_555
C71_31 H45_31 1_555 1_555
C72_31 C71_31 1_555 1_555
H46_31 C72_31 1_555 1_555
C73_31 C65_31 1_555 1_555
C74_31 C73_31 1_555 1_555
H47_31 C74_31 1_555 1_555
C75_31 N33_27 1_555 1_555
H48_31 C75_31 1_555 1_555
Co7_26 N26_24 1_555 1_555
Co8_33 N9_28 1_555 1_555
N35_35 Co8_33 1_555 1_555
C77_35 N35_35 1_555 1_555
S5_35 C77_35 1_555 1_555
C11_31 C12_31 1_555 1_555
C15_31 N7_31 1_555 1_555
C17_31 C18_31 1_555 1_555
C19_31 C20_31 1_555 1_555
C22_31 C23_31 1_555 1_555
C24_31 C25_31 1_555 1_555
C61_31 C62_31 1_555 1_555
C65_31 N25_31 1_555 1_555
C67_31 C68_31 1_555 1_555
C69_31 C70_31 1_555 1_555
C72_31 C73_31 1_555 1_555
C74_31 C75_31 1_555 1_555
N10_29 Co7_20 1_555 1_555
C26_29 N10_29 1_555 1_555
S2_29 C26_29 1_555 1_555
N31_29 Co7_20 1_555 1_555
N27_29 Co7_21 1_555 1_555
N32_29 Co7_21 1_555 1_555
N34_29 Co7_21 1_555 1_555
C76_29 N34_29 1_555 1_555
S4_29 C76_29 1_555 1_555
N3_32 Co5_6 1_555 1_555
C7_32 N3_32 1_555 1_555
S1_32 C7_32 1_555 1_555
N4_32 Co5_6 1_555 1_555
C8_32 N4_32 1_555 1_555
H5_32 C8_32 1_555 1_555
C9_32 C8_32 1_555 1_555
H6_32 C9_32 1_555 1_555
C10_32 C9_32 1_555 1_555
C11_32 C10_32 1_555 1_555
H7_32 C11_32 1_555 1_555
C12_32 N4_32 1_555 1_555
H8_32 C12_32 1_555 1_555
C13_32 N5_32 1_555 1_555
N5_32 C14_32 1_555 1_555
C14_32 C10_32 1_555 1_555
N6_32 C14_32 1_555 1_555
C15_32 N6_32 1_555 1_555
N7_32 C13_32 1_555 1_555
N27_15 C16_32 1_555 1_555
C16_32 H9_32 1_555 1_555
C17_32 C16_32 1_555 1_555
H10_32 C17_32 1_555 1_555
C18_32 C13_32 1_555 1_555
C19_32 C18_32 1_555 1_555
H11_32 C19_32 1_555 1_555
C20_32 N27_15 1_555 1_555
H12_32 C20_32 1_555 1_555
N9_29 C21_32 1_555 1_555
C21_32 H13_32 1_555 1_555
C22_32 C21_32 1_555 1_555
H14_32 C22_32 1_555 1_555
C23_32 C15_32 1_555 1_555
C24_32 C23_32 1_555 1_555
H15_32 C24_32 1_555 1_555
C25_32 N9_29 1_555 1_555
H16_32 C25_32 1_555 1_555
N21_32 Co5_6 1_555 1_555
C57_32 N21_32 1_555 1_555
S3_32 C57_32 1_555 1_555
N22_32 Co5_6 1_555 1_555
C58_32 N22_32 1_555 1_555
H37_32 C58_32 1_555 1_555
C59_32 C58_32 1_555 1_555
H38_32 C59_32 1_555 1_555
C60_32 C59_32 1_555 1_555
C61_32 C60_32 1_555 1_555
H39_32 C61_32 1_555 1_555
C62_32 N22_32 1_555 1_555
H40_32 C62_32 1_555 1_555
C63_32 N23_32 1_555 1_555
N23_32 C64_32 1_555 1_555
C64_32 C60_32 1_555 1_555
N24_32 C64_32 1_555 1_555
C65_32 N24_32 1_555 1_555
N25_32 C63_32 1_555 1_555
N26_25 C66_32 1_555 1_555
N28_36 Co9_11 1_555 1_555
N29_36 Co9_11 1_555 1_555
C66_32 H41_32 1_555 1_555
C67_32 C66_32 1_555 1_555
H42_32 C67_32 1_555 1_555
C68_32 C63_32 1_555 1_555
C69_32 C68_32 1_555 1_555
H43_32 C69_32 1_555 1_555
C70_32 N26_25 1_555 1_555
H44_32 C70_32 1_555 1_555
N30_20 C71_32 1_555 1_555
C71_32 H45_32 1_555 1_555
C72_32 C71_32 1_555 1_555
H46_32 C72_32 1_555 1_555
C73_32 C65_32 1_555 1_555
C74_32 C73_32 1_555 1_555
H47_32 C74_32 1_555 1_555
C75_32 N30_20 1_555 1_555
H48_32 C75_32 1_555 1_555
Co7_25 N26_25 1_555 1_555
Co9_11 N9_29 1_555 1_555
Co9_21 N30_20 1_555 1_555
N35_36 Co9_11 1_555 1_555
N36_36 Co9_11 1_555 1_555
C77_36 N35_36 1_555 1_555
C78_36 N36_36 1_555 1_555
S5_36 C77_36 1_555 1_555
S6_36 C78_36 1_555 1_555
C11_32 C12_32 1_555 1_555
C15_32 N7_32 1_555 1_555
C17_32 C18_32 1_555 1_555
C19_32 C20_32 1_555 1_555
C22_32 C23_32 1_555 1_555
C24_32 C25_32 1_555 1_555
C61_32 C62_32 1_555 1_555
C65_32 N25_32 1_555 1_555
C67_32 C68_32 1_555 1_555
C69_32 C70_32 1_555 1_555
C72_32 C73_32 1_555 1_555
C74_32 C75_32 1_555 1_555
N28_37 Co9_18 1_555 1_555
N29_37 Co9_18 1_555 1_555
N33_31 Co9_18 1_555 1_555
N35_37 Co9_18 1_555 1_555
N36_37 Co9_18 1_555 1_555
C77_37 N35_37 1_555 1_555
C78_37 N36_37 1_555 1_555
S5_37 C77_37 1_555 1_555
S6_37 C78_37 1_555 1_555
N27_30 Co2_26 1_555 1_555
N32_30 Co2_26 1_555 1_555
N34_30 Co2_26 1_555 1_555
C76_30 N34_30 1_555 1_555
S4_30 C76_30 1_555 1_555
N3_33 Co6_9 1_555 1_555
N4_33 Co6_9 1_555 1_555
C8_33 N4_33 1_555 1_555
H5_33 C8_33 1_555 1_555
C9_33 C8_33 1_555 1_555
H6_33 C9_33 1_555 1_555
C10_33 C9_33 1_555 1_555
C11_33 C10_33 1_555 1_555
H7_33 C11_33 1_555 1_555
C12_33 N4_33 1_555 1_555
H8_33 C12_33 1_555 1_555
C13_33 N5_33 1_555 1_555
N5_33 C14_33 1_555 1_555
C14_33 C10_33 1_555 1_555
N6_33 C14_33 1_555 1_555
C15_33 N6_33 1_555 1_555
N7_33 C13_33 1_555 1_555
N8_21 C16_33 1_555 1_555
C16_33 H9_33 1_555 1_555
C17_33 C16_33 1_555 1_555
H10_33 C17_33 1_555 1_555
C18_33 C13_33 1_555 1_555
C19_33 C18_33 1_555 1_555
H11_33 C19_33 1_555 1_555
C20_33 N8_21 1_555 1_555
H12_33 C20_33 1_555 1_555
N33_29 C21_33 1_555 1_555
C21_33 H13_33 1_555 1_555
C22_33 C21_33 1_555 1_555
H14_33 C22_33 1_555 1_555
C23_33 C15_33 1_555 1_555
C24_33 C23_33 1_555 1_555
H15_33 C24_33 1_555 1_555
C25_33 N33_29 1_555 1_555
H16_33 C25_33 1_555 1_555
Co2_27 N8_21 1_555 1_555
N10_30 Co2_27 1_555 1_555
C26_30 N10_30 1_555 1_555
S2_30 C26_30 1_555 1_555
N21_33 Co6_9 1_555 1_555
N22_33 Co6_9 1_555 1_555
C58_33 N22_33 1_555 1_555
H37_33 C58_33 1_555 1_555
C59_33 C58_33 1_555 1_555
H38_33 C59_33 1_555 1_555
C60_33 C59_33 1_555 1_555
C61_33 C60_33 1_555 1_555
H39_33 C61_33 1_555 1_555
C62_33 N22_33 1_555 1_555
H40_33 C62_33 1_555 1_555
C63_33 N23_33 1_555 1_555
N23_33 C64_33 1_555 1_555
C64_33 C60_33 1_555 1_555
N24_33 C64_33 1_555 1_555
C65_33 N24_33 1_555 1_555
N25_33 C63_33 1_555 1_555
N26_26 C66_33 1_555 1_555
C66_33 H41_33 1_555 1_555
C67_33 C66_33 1_555 1_555
H42_33 C67_33 1_555 1_555
C68_33 C63_33 1_555 1_555
C69_33 C68_33 1_555 1_555
H43_33 C69_33 1_555 1_555
C70_33 N26_26 1_555 1_555
H44_33 C70_33 1_555 1_555
N33_13 C71_33 1_555 1_555
N31_30 Co2_27 1_555 1_555
C71_33 H45_33 1_555 1_555
C72_33 C71_33 1_555 1_555
H46_33 C72_33 1_555 1_555
C73_33 C65_33 1_555 1_555
C74_33 C73_33 1_555 1_555
H47_33 C74_33 1_555 1_555
C75_33 N33_13 1_555 1_555
H48_33 C75_33 1_555 1_555
Co7_27 N26_26 1_555 1_555
C11_33 C12_33 1_555 1_555
C15_33 N7_33 1_555 1_555
C17_33 C18_33 1_555 1_555
C19_33 C20_33 1_555 1_555
C22_33 C23_33 1_555 1_555
C24_33 C25_33 1_555 1_555
C61_33 C62_33 1_555 1_555
C65_33 N25_33 1_555 1_555
C67_33 C68_33 1_555 1_555
C69_33 C70_33 1_555 1_555
C72_33 C73_33 1_555 1_555
C74_33 C75_33 1_555 1_555
S1_33 C7_33 1_555 1_555
S3_33 C57_33 1_555 1_555
N27_31 Co2_28 1_555 1_555
N32_31 Co2_28 1_555 1_555
N34_31 Co2_28 1_555 1_555
C76_31 N34_31 1_555 1_555
S4_31 C76_31 1_555 1_555
N3_34 Co3_12 1_555 1_555
N4_34 Co3_12 1_555 1_555
C8_34 N4_34 1_555 1_555
H5_34 C8_34 1_555 1_555
C9_34 C8_34 1_555 1_555
H6_34 C9_34 1_555 1_555
C10_34 C9_34 1_555 1_555
C11_34 C10_34 1_555 1_555
H7_34 C11_34 1_555 1_555
C12_34 N4_34 1_555 1_555
H8_34 C12_34 1_555 1_555
C13_34 N5_34 1_555 1_555
N5_34 C14_34 1_555 1_555
C14_34 C10_34 1_555 1_555
N6_34 C14_34 1_555 1_555
C15_34 N6_34 1_555 1_555
N7_34 C13_34 1_555 1_555
N8_22 C16_34 1_555 1_555
C16_34 H9_34 1_555 1_555
C17_34 C16_34 1_555 1_555
H10_34 C17_34 1_555 1_555
C18_34 C13_34 1_555 1_555
C19_34 C18_34 1_555 1_555
H11_34 C19_34 1_555 1_555
C20_34 N8_22 1_555 1_555
H12_34 C20_34 1_555 1_555
N9_30 C21_34 1_555 1_555
C21_34 H13_34 1_555 1_555
C22_34 C21_34 1_555 1_555
H14_34 C22_34 1_555 1_555
C23_34 C15_34 1_555 1_555
C24_34 C23_34 1_555 1_555
H15_34 C24_34 1_555 1_555
C25_34 N9_30 1_555 1_555
H16_34 C25_34 1_555 1_555
Co2_29 N8_22 1_555 1_555
N10_31 Co2_29 1_555 1_555
C26_31 N10_31 1_555 1_555
S2_31 C26_31 1_555 1_555
N21_34 Co3_12 1_555 1_555
N22_34 Co3_12 1_555 1_555
C58_34 N22_34 1_555 1_555
H37_34 C58_34 1_555 1_555
C59_34 C58_34 1_555 1_555
H38_34 C59_34 1_555 1_555
C60_34 C59_34 1_555 1_555
C61_34 C60_34 1_555 1_555
H39_34 C61_34 1_555 1_555
C62_34 N22_34 1_555 1_555
H40_34 C62_34 1_555 1_555
C63_34 N23_34 1_555 1_555
N23_34 C64_34 1_555 1_555
C64_34 C60_34 1_555 1_555
N24_34 C64_34 1_555 1_555
C65_34 N24_34 1_555 1_555
N25_34 C63_34 1_555 1_555
N27_6 C66_34 1_555 1_555
N28_38 Co8_34 1_555 1_555
N29_38 Co8_34 1_555 1_555
C66_34 H41_34 1_555 1_555
C67_34 C66_34 1_555 1_555
H42_34 C67_34 1_555 1_555
C68_34 C63_34 1_555 1_555
C69_34 C68_34 1_555 1_555
H43_34 C69_34 1_555 1_555
C70_34 N27_6 1_555 1_555
H44_34 C70_34 1_555 1_555
N30_21 C71_34 1_555 1_555
N31_31 Co2_29 1_555 1_555
N33_32 Co8_34 1_555 1_555
C71_34 H45_34 1_555 1_555
C72_34 C71_34 1_555 1_555
H46_34 C72_34 1_555 1_555
C73_34 C65_34 1_555 1_555
C74_34 C73_34 1_555 1_555
H47_34 C74_34 1_555 1_555
C75_34 N30_21 1_555 1_555
H48_34 C75_34 1_555 1_555
Co8_34 N9_30 1_555 1_555
Co9_23 N30_21 1_555 1_555
N35_38 Co8_34 1_555 1_555
N36_38 Co8_34 1_555 1_555
C77_38 N35_38 1_555 1_555
C78_38 N36_38 1_555 1_555
S5_38 C77_38 1_555 1_555
S6_38 C78_38 1_555 1_555
C11_34 C12_34 1_555 1_555
C15_34 N7_34 1_555 1_555
C17_34 C18_34 1_555 1_555
C19_34 C20_34 1_555 1_555
C22_34 C23_34 1_555 1_555
C24_34 C25_34 1_555 1_555
C61_34 C62_34 1_555 1_555
C65_34 N25_34 1_555 1_555
C67_34 C68_34 1_555 1_555
C69_34 C70_34 1_555 1_555
C72_34 C73_34 1_555 1_555
C74_34 C75_34 1_555 1_555
S1_34 C7_34 1_555 1_555
S3_34 C57_34 1_555 1_555
N29_39 Co9_22 1_555 1_555
N33_33 Co9_22 1_555 1_555
N36_39 Co9_22 1_555 1_555
C78_39 N36_39 1_555 1_555
S6_39 C78_39 1_555 1_555
N28_39 Co9_23 1_555 1_555
N35_39 Co9_23 1_555 1_555
C77_39 N35_39 1_555 1_555
S5_39 C77_39 1_555 1_555
S1_35 C7_35 1_555 1_555
S3_35 C57_35 1_555 1_555
N3_35 Co5_4 1_555 1_555
N4_35 Co5_4 1_555 1_555
C8_35 N4_35 1_555 1_555
H5_35 C8_35 1_555 1_555
C9_35 C8_35 1_555 1_555
H6_35 C9_35 1_555 1_555
C10_35 C9_35 1_555 1_555
C11_35 C10_35 1_555 1_555
H7_35 C11_35 1_555 1_555
C12_35 N4_35 1_555 1_555
H8_35 C12_35 1_555 1_555
C13_35 N5_35 1_555 1_555
N5_35 C14_35 1_555 1_555
C14_35 C10_35 1_555 1_555
N6_35 C14_35 1_555 1_555
C15_35 N6_35 1_555 1_555
N7_35 C13_35 1_555 1_555
N27_5 C16_35 1_555 1_555
C16_35 H9_35 1_555 1_555
C17_35 C16_35 1_555 1_555
H10_35 C17_35 1_555 1_555
C18_35 C13_35 1_555 1_555
C19_35 C18_35 1_555 1_555
H11_35 C19_35 1_555 1_555
C20_35 N27_5 1_555 1_555
H12_35 C20_35 1_555 1_555
N33_21 C21_35 1_555 1_555
C21_35 H13_35 1_555 1_555
C22_35 C21_35 1_555 1_555
H14_35 C22_35 1_555 1_555
C23_35 C15_35 1_555 1_555
C24_35 C23_35 1_555 1_555
H15_35 C24_35 1_555 1_555
C25_35 N33_21 1_555 1_555
H16_35 C25_35 1_555 1_555
N21_35 Co5_4 1_555 1_555
N22_35 Co5_4 1_555 1_555
C58_35 N22_35 1_555 1_555
H37_35 C58_35 1_555 1_555
C59_35 C58_35 1_555 1_555
H38_35 C59_35 1_555 1_555
C60_35 C59_35 1_555 1_555
C61_35 C60_35 1_555 1_555
H39_35 C61_35 1_555 1_555
C62_35 N22_35 1_555 1_555
H40_35 C62_35 1_555 1_555
C63_35 N23_35 1_555 1_555
N23_35 C64_35 1_555 1_555
C64_35 C60_35 1_555 1_555
N24_35 C64_35 1_555 1_555
C65_35 N24_35 1_555 1_555
N25_35 C63_35 1_555 1_555
N27_28 C66_35 1_555 1_555
C66_35 H41_35 1_555 1_555
C67_35 C66_35 1_555 1_555
H42_35 C67_35 1_555 1_555
C68_35 C63_35 1_555 1_555
C69_35 C68_35 1_555 1_555
H43_35 C69_35 1_555 1_555
C70_35 N27_28 1_555 1_555
H44_35 C70_35 1_555 1_555
N33_31 C71_35 1_555 1_555
C71_35 H45_35 1_555 1_555
C72_35 C71_35 1_555 1_555
H46_35 C72_35 1_555 1_555
C73_35 C65_35 1_555 1_555
C74_35 C73_35 1_555 1_555
H47_35 C74_35 1_555 1_555
C75_35 N33_31 1_555 1_555
H48_35 C75_35 1_555 1_555
C11_35 C12_35 1_555 1_555
C15_35 N7_35 1_555 1_555
C17_35 C18_35 1_555 1_555
C19_35 C20_35 1_555 1_555
C22_35 C23_35 1_555 1_555
C24_35 C25_35 1_555 1_555
C61_35 C62_35 1_555 1_555
C65_35 N25_35 1_555 1_555
C67_35 C68_35 1_555 1_555
C69_35 C70_35 1_555 1_555
C72_35 C73_35 1_555 1_555
C74_35 C75_35 1_555 1_555
N3_36 Co4_8 1_555 1_555
C7_36 N3_36 1_555 1_555
S1_36 C7_36 1_555 1_555
N4_36 Co4_8 1_555 1_555
C8_36 N4_36 1_555 1_555
H5_36 C8_36 1_555 1_555
C9_36 C8_36 1_555 1_555
H6_36 C9_36 1_555 1_555
C10_36 C9_36 1_555 1_555
C11_36 C10_36 1_555 1_555
H7_36 C11_36 1_555 1_555
C12_36 N4_36 1_555 1_555
H8_36 C12_36 1_555 1_555
C13_36 N5_36 1_555 1_555
N5_36 C14_36 1_555 1_555
C14_36 C10_36 1_555 1_555
N6_36 C14_36 1_555 1_555
C15_36 N6_36 1_555 1_555
N7_36 C13_36 1_555 1_555
N27_26 C16_36 1_555 1_555
C16_36 H9_36 1_555 1_555
C17_36 C16_36 1_555 1_555
H10_36 C17_36 1_555 1_555
C18_36 C13_36 1_555 1_555
C19_36 C18_36 1_555 1_555
H11_36 C19_36 1_555 1_555
C20_36 N27_26 1_555 1_555
H12_36 C20_36 1_555 1_555
N9_31 C21_36 1_555 1_555
C21_36 H13_36 1_555 1_555
C22_36 C21_36 1_555 1_555
H14_36 C22_36 1_555 1_555
C23_36 C15_36 1_555 1_555
C24_36 C23_36 1_555 1_555
H15_36 C24_36 1_555 1_555
C25_36 N9_31 1_555 1_555
H16_36 C25_36 1_555 1_555
N21_36 Co4_8 1_555 1_555
C57_36 N21_36 1_555 1_555
S3_36 C57_36 1_555 1_555
N22_36 Co4_8 1_555 1_555
C58_36 N22_36 1_555 1_555
H37_36 C58_36 1_555 1_555
C59_36 C58_36 1_555 1_555
H38_36 C59_36 1_555 1_555
C60_36 C59_36 1_555 1_555
C61_36 C60_36 1_555 1_555
H39_36 C61_36 1_555 1_555
C62_36 N22_36 1_555 1_555
H40_36 C62_36 1_555 1_555
C63_36 N23_36 1_555 1_555
N23_36 C64_36 1_555 1_555
C64_36 C60_36 1_555 1_555
N24_36 C64_36 1_555 1_555
C65_36 N24_36 1_555 1_555
N25_36 C63_36 1_555 1_555
N26_27 C66_36 1_555 1_555
N28_40 Co9_21 1_555 1_555
N29_40 Co9_21 1_555 1_555
C66_36 H41_36 1_555 1_555
C67_36 C66_36 1_555 1_555
H42_36 C67_36 1_555 1_555
C68_36 C63_36 1_555 1_555
C69_36 C68_36 1_555 1_555
H43_36 C69_36 1_555 1_555
C70_36 N26_27 1_555 1_555
H44_36 C70_36 1_555 1_555
N33_9 C71_36 1_555 1_555
C71_36 H45_36 1_555 1_555
C72_36 C71_36 1_555 1_555
H46_36 C72_36 1_555 1_555
C73_36 C65_36 1_555 1_555
C74_36 C73_36 1_555 1_555
H47_36 C74_36 1_555 1_555
C75_36 N33_9 1_555 1_555
H48_36 C75_36 1_555 1_555
Co7_29 N26_27 1_555 1_555
Co9_21 N9_31 1_555 1_555
N35_40 Co9_21 1_555 1_555
N36_40 Co9_21 1_555 1_555
C77_40 N35_40 1_555 1_555
C78_40 N36_40 1_555 1_555
S5_40 C77_40 1_555 1_555
S6_40 C78_40 1_555 1_555
C11_36 C12_36 1_555 1_555
C15_36 N7_36 1_555 1_555
C17_36 C18_36 1_555 1_555
C19_36 C20_36 1_555 1_555
C22_36 C23_36 1_555 1_555
C24_36 C25_36 1_555 1_555
C61_36 C62_36 1_555 1_555
C65_36 N25_36 1_555 1_555
C67_36 C68_36 1_555 1_555
C69_36 C70_36 1_555 1_555
C72_36 C73_36 1_555 1_555
C74_36 C75_36 1_555 1_555
N3_37 Co4_3 1_555 1_555
C7_37 N3_37 1_555 1_555
S1_37 C7_37 1_555 1_555
N4_37 Co4_3 1_555 1_555
C8_37 N4_37 1_555 1_555
H5_37 C8_37 1_555 1_555
C9_37 C8_37 1_555 1_555
H6_37 C9_37 1_555 1_555
C10_37 C9_37 1_555 1_555
C11_37 C10_37 1_555 1_555
H7_37 C11_37 1_555 1_555
C12_37 N4_37 1_555 1_555
H8_37 C12_37 1_555 1_555
C13_37 N5_37 1_555 1_555
N5_37 C14_37 1_555 1_555
C14_37 C10_37 1_555 1_555
N6_37 C14_37 1_555 1_555
C15_37 N6_37 1_555 1_555
N7_37 C13_37 1_555 1_555
N27_25 C16_37 1_555 1_555
C16_37 H9_37 1_555 1_555
C17_37 C16_37 1_555 1_555
H10_37 C17_37 1_555 1_555
C18_37 C13_37 1_555 1_555
C19_37 C18_37 1_555 1_555
H11_37 C19_37 1_555 1_555
C20_37 N27_25 1_555 1_555
H12_37 C20_37 1_555 1_555
N9_32 C21_37 1_555 1_555
C21_37 H13_37 1_555 1_555
C22_37 C21_37 1_555 1_555
H14_37 C22_37 1_555 1_555
C23_37 C15_37 1_555 1_555
C24_37 C23_37 1_555 1_555
H15_37 C24_37 1_555 1_555
C25_37 N9_32 1_555 1_555
H16_37 C25_37 1_555 1_555
N21_37 Co4_3 1_555 1_555
C57_37 N21_37 1_555 1_555
S3_37 C57_37 1_555 1_555
N22_37 Co4_3 1_555 1_555
C58_37 N22_37 1_555 1_555
H37_37 C58_37 1_555 1_555
C59_37 C58_37 1_555 1_555
H38_37 C59_37 1_555 1_555
C60_37 C59_37 1_555 1_555
C61_37 C60_37 1_555 1_555
H39_37 C61_37 1_555 1_555
C62_37 N22_37 1_555 1_555
H40_37 C62_37 1_555 1_555
C63_37 N23_37 1_555 1_555
N23_37 C64_37 1_555 1_555
C64_37 C60_37 1_555 1_555
N24_37 C64_37 1_555 1_555
C65_37 N24_37 1_555 1_555
N25_37 C63_37 1_555 1_555
N27_30 C66_37 1_555 1_555
N28_41 Co8_35 1_555 1_555
N29_41 Co8_35 1_555 1_555
C66_37 H41_37 1_555 1_555
C67_37 C66_37 1_555 1_555
H42_37 C67_37 1_555 1_555
C68_37 C63_37 1_555 1_555
C69_37 C68_37 1_555 1_555
H43_37 C69_37 1_555 1_555
C70_37 N27_30 1_555 1_555
H44_37 C70_37 1_555 1_555
N33_33 C71_37 1_555 1_555
N33_34 Co8_35 1_555 1_555
C71_37 H45_37 1_555 1_555
C72_37 C71_37 1_555 1_555
H46_37 C72_37 1_555 1_555
C73_37 C65_37 1_555 1_555
C74_37 C73_37 1_555 1_555
H47_37 C74_37 1_555 1_555
C75_37 N33_33 1_555 1_555
H48_37 C75_37 1_555 1_555
Co8_35 N9_32 1_555 1_555
N35_41 Co8_35 1_555 1_555
N36_41 Co8_35 1_555 1_555
C77_41 N35_41 1_555 1_555
C78_41 N36_41 1_555 1_555
S5_41 C77_41 1_555 1_555
S6_41 C78_41 1_555 1_555
C11_37 C12_37 1_555 1_555
C15_37 N7_37 1_555 1_555
C17_37 C18_37 1_555 1_555
C19_37 C20_37 1_555 1_555
C22_37 C23_37 1_555 1_555
C24_37 C25_37 1_555 1_555
C61_37 C62_37 1_555 1_555
C65_37 N25_37 1_555 1_555
C67_37 C68_37 1_555 1_555
C69_37 C70_37 1_555 1_555
C72_37 C73_37 1_555 1_555
C74_37 C75_37 1_555 1_555
N28_42 Co9_16 1_555 1_555
N29_42 Co9_16 1_555 1_555
N33_35 Co9_16 1_555 1_555
N35_42 Co9_16 1_555 1_555
N36_42 Co9_16 1_555 1_555
C77_42 N35_42 1_555 1_555
C78_42 N36_42 1_555 1_555
S5_42 C77_42 1_555 1_555
S6_42 C78_42 1_555 1_555
N1_20 C1_20 1_555 1_555
C1_20 C4_20 1_555 1_555
N2_20 C2_20 1_555 1_555
C2_20 H1_20 1_555 1_555
C3_20 C2_20 1_555 1_555
H2_20 C3_20 1_555 1_555
C4_20 C3_20 1_555 1_555
C5_20 C4_20 1_555 1_555
H3_20 C5_20 1_555 1_555
C6_20 N2_20 1_555 1_555
H4_20 C6_20 1_555 1_555
Co3_8 N2_20 1_555 1_555
N3_38 Co3_8 1_555 1_555
C7_38 N3_38 1_555 1_555
S1_38 C7_38 1_555 1_555
N4_38 Co3_8 1_555 1_555
C8_38 N4_38 1_555 1_555
H5_38 C8_38 1_555 1_555
C9_38 C8_38 1_555 1_555
H6_38 C9_38 1_555 1_555
C10_38 C9_38 1_555 1_555
C11_38 C10_38 1_555 1_555
H7_38 C11_38 1_555 1_555
C12_38 N4_38 1_555 1_555
H8_38 C12_38 1_555 1_555
C13_38 N5_38 1_555 1_555
N5_38 C14_38 1_555 1_555
C14_38 C10_38 1_555 1_555
N6_38 C14_38 1_555 1_555
C15_38 N6_38 1_555 1_555
N7_38 C13_38 1_555 1_555
N27_20 C16_38 1_555 1_555
C16_38 H9_38 1_555 1_555
C17_38 C16_38 1_555 1_555
H10_38 C17_38 1_555 1_555
C18_38 C13_38 1_555 1_555
C19_38 C18_38 1_555 1_555
H11_38 C19_38 1_555 1_555
C20_38 N27_20 1_555 1_555
H12_38 C20_38 1_555 1_555
N9_33 C21_38 1_555 1_555
C21_38 H13_38 1_555 1_555
C22_38 C21_38 1_555 1_555
H14_38 C22_38 1_555 1_555
C23_38 C15_38 1_555 1_555
C24_38 C23_38 1_555 1_555
H15_38 C24_38 1_555 1_555
C25_38 N9_33 1_555 1_555
H16_38 C25_38 1_555 1_555
N11_20 C1_20 1_555 1_555
N12_20 C27_20 1_555 1_555
C27_20 N11_20 1_555 1_555
C28_20 N1_20 1_555 1_555
N16_20 C32_20 1_555 1_555
N17_20 C33_20 1_555 1_555
C32_20 H17_20 1_555 1_555
C33_20 H18_20 1_555 1_555
C37_20 C32_20 1_555 1_555
C38_20 C33_20 1_555 1_555
H22_20 C37_20 1_555 1_555
H23_20 C38_20 1_555 1_555
C42_20 C28_20 1_555 1_555
C43_20 C27_20 1_555 1_555
C47_20 C42_20 1_555 1_555
C48_20 C43_20 1_555 1_555
H27_20 C47_20 1_555 1_555
H28_20 C48_20 1_555 1_555
C52_20 N16_20 1_555 1_555
C53_20 N17_20 1_555 1_555
H32_20 C52_20 1_555 1_555
H33_20 C53_20 1_555 1_555
Co6_6 N16_20 1_555 1_555
Co3_11 N17_20 1_555 1_555
N21_38 Co3_8 1_555 1_555
C57_38 N21_38 1_555 1_555
S3_38 C57_38 1_555 1_555
N22_38 Co3_8 1_555 1_555
C58_38 N22_38 1_555 1_555
H37_38 C58_38 1_555 1_555
C59_38 C58_38 1_555 1_555
H38_38 C59_38 1_555 1_555
C60_38 C59_38 1_555 1_555
C61_38 C60_38 1_555 1_555
H39_38 C61_38 1_555 1_555
C62_38 N22_38 1_555 1_555
H40_38 C62_38 1_555 1_555
C63_38 N23_38 1_555 1_555
N23_38 C64_38 1_555 1_555
C64_38 C60_38 1_555 1_555
N24_38 C64_38 1_555 1_555
C65_38 N24_38 1_555 1_555
N25_38 C63_38 1_555 1_555
N26_28 C66_38 1_555 1_555
N28_43 Co9_6 1_555 1_555
N29_43 Co9_6 1_555 1_555
C66_38 H41_38 1_555 1_555
C67_38 C66_38 1_555 1_555
H42_38 C67_38 1_555 1_555
C68_38 C63_38 1_555 1_555
C69_38 C68_38 1_555 1_555
H43_38 C69_38 1_555 1_555
C70_38 N26_28 1_555 1_555
H44_38 C70_38 1_555 1_555
N33_24 C71_38 1_555 1_555
C71_38 H45_38 1_555 1_555
C72_38 C71_38 1_555 1_555
H46_38 C72_38 1_555 1_555
C73_38 C65_38 1_555 1_555
C74_38 C73_38 1_555 1_555
H47_38 C74_38 1_555 1_555
C75_38 N33_24 1_555 1_555
H48_38 C75_38 1_555 1_555
Co7_30 N26_28 1_555 1_555
Co9_6 N9_33 1_555 1_555
N35_43 Co9_6 1_555 1_555
N36_43 Co9_6 1_555 1_555
C77_43 N35_43 1_555 1_555
C78_43 N36_43 1_555 1_555
S5_43 C77_43 1_555 1_555
S6_43 C78_43 1_555 1_555
C5_20 C6_20 1_555 1_555
C11_38 C12_38 1_555 1_555
C15_38 N7_38 1_555 1_555
C17_38 C18_38 1_555 1_555
C19_38 C20_38 1_555 1_555
C22_38 C23_38 1_555 1_555
C24_38 C25_38 1_555 1_555
N12_20 C28_20 1_555 1_555
C37_20 C42_20 1_555 1_555
C38_20 C43_20 1_555 1_555
C47_20 C52_20 1_555 1_555
C48_20 C53_20 1_555 1_555
C61_38 C62_38 1_555 1_555
C65_38 N25_38 1_555 1_555
C67_38 C68_38 1_555 1_555
C69_38 C70_38 1_555 1_555
C72_38 C73_38 1_555 1_555
C74_38 C75_38 1_555 1_555
N10_32 Co7_30 1_555 1_555
C26_32 N10_32 1_555 1_555
S2_32 C26_32 1_555 1_555
N27_32 Co7_30 1_555 1_555
N31_32 Co7_30 1_555 1_555
N32_32 Co7_30 1_555 1_555
N34_32 Co7_30 1_555 1_555
C76_32 N34_32 1_555 1_555
S4_32 C76_32 1_555 1_555
N3_39 Co3_10 1_555 1_555
C7_39 N3_39 1_555 1_555
S1_39 C7_39 1_555 1_555
N4_39 Co3_10 1_555 1_555
C8_39 N4_39 1_555 1_555
H5_39 C8_39 1_555 1_555
C9_39 C8_39 1_555 1_555
H6_39 C9_39 1_555 1_555
C10_39 C9_39 1_555 1_555
C11_39 C10_39 1_555 1_555
H7_39 C11_39 1_555 1_555
C12_39 N4_39 1_555 1_555
H8_39 C12_39 1_555 1_555
C13_39 N5_39 1_555 1_555
N5_39 C14_39 1_555 1_555
C14_39 C10_39 1_555 1_555
N6_39 C14_39 1_555 1_555
C15_39 N6_39 1_555 1_555
N7_39 C13_39 1_555 1_555
N27_32 C16_39 1_555 1_555
C16_39 H9_39 1_555 1_555
C17_39 C16_39 1_555 1_555
H10_39 C17_39 1_555 1_555
C18_39 C13_39 1_555 1_555
C19_39 C18_39 1_555 1_555
H11_39 C19_39 1_555 1_555
C20_39 N27_32 1_555 1_555
H12_39 C20_39 1_555 1_555
N33_17 C21_39 1_555 1_555
C21_39 H13_39 1_555 1_555
C22_39 C21_39 1_555 1_555
H14_39 C22_39 1_555 1_555
C23_39 C15_39 1_555 1_555
C24_39 C23_39 1_555 1_555
H15_39 C24_39 1_555 1_555
C25_39 N33_17 1_555 1_555
H16_39 C25_39 1_555 1_555
N21_39 Co3_10 1_555 1_555
C57_39 N21_39 1_555 1_555
S3_39 C57_39 1_555 1_555
N22_39 Co3_10 1_555 1_555
C58_39 N22_39 1_555 1_555
H37_39 C58_39 1_555 1_555
C59_39 C58_39 1_555 1_555
H38_39 C59_39 1_555 1_555
C60_39 C59_39 1_555 1_555
C61_39 C60_39 1_555 1_555
H39_39 C61_39 1_555 1_555
C62_39 N22_39 1_555 1_555
H40_39 C62_39 1_555 1_555
C63_39 N23_39 1_555 1_555
N23_39 C64_39 1_555 1_555
C64_39 C60_39 1_555 1_555
N24_39 C64_39 1_555 1_555
C65_39 N24_39 1_555 1_555
N25_39 C63_39 1_555 1_555
N26_29 C66_39 1_555 1_555
C66_39 H41_39 1_555 1_555
C67_39 C66_39 1_555 1_555
H42_39 C67_39 1_555 1_555
C68_39 C63_39 1_555 1_555
C69_39 C68_39 1_555 1_555
H43_39 C69_39 1_555 1_555
C70_39 N26_29 1_555 1_555
H44_39 C70_39 1_555 1_555
N30_22 C71_39 1_555 1_555
C71_39 H45_39 1_555 1_555
C72_39 C71_39 1_555 1_555
H46_39 C72_39 1_555 1_555
C73_39 C65_39 1_555 1_555
C74_39 C73_39 1_555 1_555
H47_39 C74_39 1_555 1_555
C75_39 N30_22 1_555 1_555
H48_39 C75_39 1_555 1_555
Co7_18 N26_29 1_555 1_555
Co9_24 N30_22 1_555 1_555
C11_39 C12_39 1_555 1_555
C15_39 N7_39 1_555 1_555
C17_39 C18_39 1_555 1_555
C19_39 C20_39 1_555 1_555
C22_39 C23_39 1_555 1_555
C24_39 C25_39 1_555 1_555
C61_39 C62_39 1_555 1_555
C65_39 N25_39 1_555 1_555
C67_39 C68_39 1_555 1_555
C69_39 C70_39 1_555 1_555
C72_39 C73_39 1_555 1_555
C74_39 C75_39 1_555 1_555
N3_40 Co3_9 1_555 1_555
C7_40 N3_40 1_555 1_555
S1_40 C7_40 1_555 1_555
N4_40 Co3_9 1_555 1_555
C8_40 N4_40 1_555 1_555
H5_40 C8_40 1_555 1_555
C9_40 C8_40 1_555 1_555
H6_40 C9_40 1_555 1_555
C10_40 C9_40 1_555 1_555
C11_40 C10_40 1_555 1_555
H7_40 C11_40 1_555 1_555
C12_40 N4_40 1_555 1_555
H8_40 C12_40 1_555 1_555
C13_40 N5_40 1_555 1_555
N5_40 C14_40 1_555 1_555
C14_40 C10_40 1_555 1_555
N6_40 C14_40 1_555 1_555
C15_40 N6_40 1_555 1_555
N7_40 C13_40 1_555 1_555
N27_29 C16_40 1_555 1_555
C16_40 H9_40 1_555 1_555
C17_40 C16_40 1_555 1_555
H10_40 C17_40 1_555 1_555
C18_40 C13_40 1_555 1_555
C19_40 C18_40 1_555 1_555
H11_40 C19_40 1_555 1_555
C20_40 N27_29 1_555 1_555
H12_40 C20_40 1_555 1_555
N9_34 C21_40 1_555 1_555
C21_40 H13_40 1_555 1_555
C22_40 C21_40 1_555 1_555
H14_40 C22_40 1_555 1_555
C23_40 C15_40 1_555 1_555
C24_40 C23_40 1_555 1_555
H15_40 C24_40 1_555 1_555
C25_40 N9_34 1_555 1_555
H16_40 C25_40 1_555 1_555
N21_40 Co3_9 1_555 1_555
C57_40 N21_40 1_555 1_555
S3_40 C57_40 1_555 1_555
N22_40 Co3_9 1_555 1_555
C58_40 N22_40 1_555 1_555
H37_40 C58_40 1_555 1_555
C59_40 C58_40 1_555 1_555
H38_40 C59_40 1_555 1_555
C60_40 C59_40 1_555 1_555
C61_40 C60_40 1_555 1_555
H39_40 C61_40 1_555 1_555
C62_40 N22_40 1_555 1_555
H40_40 C62_40 1_555 1_555
C63_40 N23_40 1_555 1_555
N23_40 C64_40 1_555 1_555
C64_40 C60_40 1_555 1_555
N24_40 C64_40 1_555 1_555
C65_40 N24_40 1_555 1_555
N25_40 C63_40 1_555 1_555
N26_30 C66_40 1_555 1_555
N28_44 Co8_36 1_555 1_555
N29_44 Co8_36 1_555 1_555
C66_40 H41_40 1_555 1_555
C67_40 C66_40 1_555 1_555
H42_40 C67_40 1_555 1_555
C68_40 C63_40 1_555 1_555
C69_40 C68_40 1_555 1_555
H43_40 C69_40 1_555 1_555
C70_40 N26_30 1_555 1_555
H44_40 C70_40 1_555 1_555
N33_34 C71_40 1_555 1_555
N33_36 Co8_36 1_555 1_555
C71_40 H45_40 1_555 1_555
C72_40 C71_40 1_555 1_555
H46_40 C72_40 1_555 1_555
C73_40 C65_40 1_555 1_555
C74_40 C73_40 1_555 1_555
H47_40 C74_40 1_555 1_555
C75_40 N33_34 1_555 1_555
H48_40 C75_40 1_555 1_555
Co7_31 N26_30 1_555 1_555
Co8_36 N9_34 1_555 1_555
N35_44 Co8_36 1_555 1_555
N36_44 Co8_36 1_555 1_555
C77_44 N35_44 1_555 1_555
C78_44 N36_44 1_555 1_555
S5_44 C77_44 1_555 1_555
S6_44 C78_44 1_555 1_555
C11_40 C12_40 1_555 1_555
C15_40 N7_40 1_555 1_555
C17_40 C18_40 1_555 1_555
C19_40 C20_40 1_555 1_555
C22_40 C23_40 1_555 1_555
C24_40 C25_40 1_555 1_555
C61_40 C62_40 1_555 1_555
C65_40 N25_40 1_555 1_555
C67_40 C68_40 1_555 1_555
C69_40 C70_40 1_555 1_555
C72_40 C73_40 1_555 1_555
C74_40 C75_40 1_555 1_555
N27_33 Co7_28 1_555 1_555
N32_33 Co7_28 1_555 1_555
N34_33 Co7_28 1_555 1_555
C76_33 N34_33 1_555 1_555
S4_33 C76_33 1_555 1_555
N10_33 Co7_29 1_555 1_555
C26_33 N10_33 1_555 1_555
S2_33 C26_33 1_555 1_555
N31_33 Co7_29 1_555 1_555
N3_41 Co6_6 1_555 1_555
C7_41 N3_41 1_555 1_555
S1_41 C7_41 1_555 1_555
N4_41 Co6_6 1_555 1_555
C8_41 N4_41 1_555 1_555
H5_41 C8_41 1_555 1_555
C9_41 C8_41 1_555 1_555
H6_41 C9_41 1_555 1_555
C10_41 C9_41 1_555 1_555
C11_41 C10_41 1_555 1_555
H7_41 C11_41 1_555 1_555
C12_41 N4_41 1_555 1_555
H8_41 C12_41 1_555 1_555
C13_41 N5_41 1_555 1_555
N5_41 C14_41 1_555 1_555
C14_41 C10_41 1_555 1_555
N6_41 C14_41 1_555 1_555
C15_41 N6_41 1_555 1_555
N7_41 C13_41 1_555 1_555
N8_23 C16_41 1_555 1_555
C16_41 H9_41 1_555 1_555
C17_41 C16_41 1_555 1_555
H10_41 C17_41 1_555 1_555
C18_41 C13_41 1_555 1_555
C19_41 C18_41 1_555 1_555
H11_41 C19_41 1_555 1_555
C20_41 N8_23 1_555 1_555
H12_41 C20_41 1_555 1_555
N33_4 C21_41 1_555 1_555
C21_41 H13_41 1_555 1_555
C22_41 C21_41 1_555 1_555
H14_41 C22_41 1_555 1_555
C23_41 C15_41 1_555 1_555
C24_41 C23_41 1_555 1_555
H15_41 C24_41 1_555 1_555
C25_41 N33_4 1_555 1_555
H16_41 C25_41 1_555 1_555
Co7_6 N8_23 1_555 1_555
N10_34 Co7_6 1_555 1_555
C26_34 N10_34 1_555 1_555
S2_34 C26_34 1_555 1_555
N21_41 Co6_6 1_555 1_555
C57_41 N21_41 1_555 1_555
S3_41 C57_41 1_555 1_555
N22_41 Co6_6 1_555 1_555
C58_41 N22_41 1_555 1_555
H37_41 C58_41 1_555 1_555
C59_41 C58_41 1_555 1_555
H38_41 C59_41 1_555 1_555
C60_41 C59_41 1_555 1_555
C61_41 C60_41 1_555 1_555
H39_41 C61_41 1_555 1_555
C62_41 N22_41 1_555 1_555
H40_41 C62_41 1_555 1_555
C63_41 N23_41 1_555 1_555
N23_41 C64_41 1_555 1_555
C64_41 C60_41 1_555 1_555
N24_41 C64_41 1_555 1_555
C65_41 N24_41 1_555 1_555
N25_41 C63_41 1_555 1_555
N26_31 C66_41 1_555 1_555
C66_41 H41_41 1_555 1_555
C67_41 C66_41 1_555 1_555
H42_41 C67_41 1_555 1_555
C68_41 C63_41 1_555 1_555
C69_41 C68_41 1_555 1_555
H43_41 C69_41 1_555 1_555
C70_41 N26_31 1_555 1_555
H44_41 C70_41 1_555 1_555
N33_12 C71_41 1_555 1_555
N31_34 Co7_6 1_555 1_555
N32_34 Co7_6 1_555 1_555
C71_41 H45_41 1_555 1_555
C72_41 C71_41 1_555 1_555
H46_41 C72_41 1_555 1_555
C73_41 C65_41 1_555 1_555
C74_41 C73_41 1_555 1_555
H47_41 C74_41 1_555 1_555
C75_41 N33_12 1_555 1_555
H48_41 C75_41 1_555 1_555
Co7_11 N26_31 1_555 1_555
N34_34 Co7_6 1_555 1_555
C76_34 N34_34 1_555 1_555
S4_34 C76_34 1_555 1_555
C11_41 C12_41 1_555 1_555
C15_41 N7_41 1_555 1_555
C17_41 C18_41 1_555 1_555
C19_41 C20_41 1_555 1_555
C22_41 C23_41 1_555 1_555
C24_41 C25_41 1_555 1_555
C61_41 C62_41 1_555 1_555
C65_41 N25_41 1_555 1_555
C67_41 C68_41 1_555 1_555
C69_41 C70_41 1_555 1_555
C72_41 C73_41 1_555 1_555
C74_41 C75_41 1_555 1_555
N3_42 Co3_5 1_555 1_555
C7_42 N3_42 1_555 1_555
S1_42 C7_42 1_555 1_555
N4_42 Co3_5 1_555 1_555
C8_42 N4_42 1_555 1_555
H5_42 C8_42 1_555 1_555
C9_42 C8_42 1_555 1_555
H6_42 C9_42 1_555 1_555
C10_42 C9_42 1_555 1_555
C11_42 C10_42 1_555 1_555
H7_42 C11_42 1_555 1_555
C12_42 N4_42 1_555 1_555
H8_42 C12_42 1_555 1_555
C13_42 N5_42 1_555 1_555
N5_42 C14_42 1_555 1_555
C14_42 C10_42 1_555 1_555
N6_42 C14_42 1_555 1_555
C15_42 N6_42 1_555 1_555
N7_42 C13_42 1_555 1_555
N8_24 C16_42 1_555 1_555
C16_42 H9_42 1_555 1_555
C17_42 C16_42 1_555 1_555
H10_42 C17_42 1_555 1_555
C18_42 C13_42 1_555 1_555
C19_42 C18_42 1_555 1_555
H11_42 C19_42 1_555 1_555
C20_42 N8_24 1_555 1_555
H12_42 C20_42 1_555 1_555
N9_35 C21_42 1_555 1_555
C21_42 H13_42 1_555 1_555
C22_42 C21_42 1_555 1_555
H14_42 C22_42 1_555 1_555
C23_42 C15_42 1_555 1_555
C24_42 C23_42 1_555 1_555
H15_42 C24_42 1_555 1_555
C25_42 N9_35 1_555 1_555
H16_42 C25_42 1_555 1_555
Co7_10 N8_24 1_555 1_555
N10_35 Co7_10 1_555 1_555
C26_35 N10_35 1_555 1_555
S2_35 C26_35 1_555 1_555
N21_42 Co3_5 1_555 1_555
C57_42 N21_42 1_555 1_555
S3_42 C57_42 1_555 1_555
N22_42 Co3_5 1_555 1_555
C58_42 N22_42 1_555 1_555
H37_42 C58_42 1_555 1_555
C59_42 C58_42 1_555 1_555
H38_42 C59_42 1_555 1_555
C60_42 C59_42 1_555 1_555
C61_42 C60_42 1_555 1_555
H39_42 C61_42 1_555 1_555
C62_42 N22_42 1_555 1_555
H40_42 C62_42 1_555 1_555
C63_42 N23_42 1_555 1_555
N23_42 C64_42 1_555 1_555
C64_42 C60_42 1_555 1_555
N24_42 C64_42 1_555 1_555
C65_42 N24_42 1_555 1_555
N25_42 C63_42 1_555 1_555
N27_24 C66_42 1_555 1_555
N28_45 Co9_9 1_555 1_555
N29_45 Co9_9 1_555 1_555
C66_42 H41_42 1_555 1_555
C67_42 C66_42 1_555 1_555
H42_42 C67_42 1_555 1_555
C68_42 C63_42 1_555 1_555
C69_42 C68_42 1_555 1_555
H43_42 C69_42 1_555 1_555
C70_42 N27_24 1_555 1_555
H44_42 C70_42 1_555 1_555
N33_35 C71_42 1_555 1_555
N31_35 Co7_10 1_555 1_555
N32_35 Co7_10 1_555 1_555
C71_42 H45_42 1_555 1_555
C72_42 C71_42 1_555 1_555
H46_42 C72_42 1_555 1_555
C73_42 C65_42 1_555 1_555
C74_42 C73_42 1_555 1_555
H47_42 C74_42 1_555 1_555
C75_42 N33_35 1_555 1_555
H48_42 C75_42 1_555 1_555
Co9_9 N9_35 1_555 1_555
N34_35 Co7_10 1_555 1_555
N35_45 Co9_9 1_555 1_555
N36_45 Co9_9 1_555 1_555
C76_35 N34_35 1_555 1_555
C77_45 N35_45 1_555 1_555
C78_45 N36_45 1_555 1_555
S4_35 C76_35 1_555 1_555
S5_45 C77_45 1_555 1_555
S6_45 C78_45 1_555 1_555
C11_42 C12_42 1_555 1_555
C15_42 N7_42 1_555 1_555
C17_42 C18_42 1_555 1_555
C19_42 C20_42 1_555 1_555
C22_42 C23_42 1_555 1_555
C24_42 C25_42 1_555 1_555
C61_42 C62_42 1_555 1_555
C65_42 N25_42 1_555 1_555
C67_42 C68_42 1_555 1_555
C69_42 C70_42 1_555 1_555
C72_42 C73_42 1_555 1_555
C74_42 C75_42 1_555 1_555
N3_43 Co6_3 1_555 1_555
C7_43 N3_43 1_555 1_555
S1_43 C7_43 1_555 1_555
N4_43 Co6_3 1_555 1_555
C8_43 N4_43 1_555 1_555
H5_43 C8_43 1_555 1_555
C9_43 C8_43 1_555 1_555
H6_43 C9_43 1_555 1_555
C10_43 C9_43 1_555 1_555
C11_43 C10_43 1_555 1_555
H7_43 C11_43 1_555 1_555
C12_43 N4_43 1_555 1_555
H8_43 C12_43 1_555 1_555
C13_43 N5_43 1_555 1_555
N5_43 C14_43 1_555 1_555
C14_43 C10_43 1_555 1_555
N6_43 C14_43 1_555 1_555
C15_43 N6_43 1_555 1_555
N7_43 C13_43 1_555 1_555
N8_25 C16_43 1_555 1_555
C16_43 H9_43 1_555 1_555
C17_43 C16_43 1_555 1_555
H10_43 C17_43 1_555 1_555
C18_43 C13_43 1_555 1_555
C19_43 C18_43 1_555 1_555
H11_43 C19_43 1_555 1_555
C20_43 N8_25 1_555 1_555
H12_43 C20_43 1_555 1_555
N33_22 C21_43 1_555 1_555
C21_43 H13_43 1_555 1_555
C22_43 C21_43 1_555 1_555
H14_43 C22_43 1_555 1_555
C23_43 C15_43 1_555 1_555
C24_43 C23_43 1_555 1_555
H15_43 C24_43 1_555 1_555
C25_43 N33_22 1_555 1_555
H16_43 C25_43 1_555 1_555
Co7_3 N8_25 1_555 1_555
N10_36 Co7_3 1_555 1_555
C26_36 N10_36 1_555 1_555
S2_36 C26_36 1_555 1_555
N21_43 Co6_3 1_555 1_555
C57_43 N21_43 1_555 1_555
S3_43 C57_43 1_555 1_555
N22_43 Co6_3 1_555 1_555
C58_43 N22_43 1_555 1_555
H37_43 C58_43 1_555 1_555
C59_43 C58_43 1_555 1_555
H38_43 C59_43 1_555 1_555
C60_43 C59_43 1_555 1_555
C61_43 C60_43 1_555 1_555
H39_43 C61_43 1_555 1_555
C62_43 N22_43 1_555 1_555
H40_43 C62_43 1_555 1_555
C63_43 N23_43 1_555 1_555
N23_43 C64_43 1_555 1_555
C64_43 C60_43 1_555 1_555
N24_43 C64_43 1_555 1_555
C65_43 N24_43 1_555 1_555
N25_43 C63_43 1_555 1_555
N26_32 C66_43 1_555 1_555
C66_43 H41_43 1_555 1_555
C67_43 C66_43 1_555 1_555
H42_43 C67_43 1_555 1_555
C68_43 C63_43 1_555 1_555
C69_43 C68_43 1_555 1_555
H43_43 C69_43 1_555 1_555
C70_43 N26_32 1_555 1_555
H44_43 C70_43 1_555 1_555
N33_15 C71_43 1_555 1_555
N31_36 Co7_3 1_555 1_555
N32_36 Co7_3 1_555 1_555
C71_43 H45_43 1_555 1_555
C72_43 C71_43 1_555 1_555
H46_43 C72_43 1_555 1_555
C73_43 C65_43 1_555 1_555
C74_43 C73_43 1_555 1_555
H47_43 C74_43 1_555 1_555
C75_43 N33_15 1_555 1_555
H48_43 C75_43 1_555 1_555
Co7_13 N26_32 1_555 1_555
N34_36 Co7_3 1_555 1_555
C76_36 N34_36 1_555 1_555
S4_36 C76_36 1_555 1_555
C11_43 C12_43 1_555 1_555
C15_43 N7_43 1_555 1_555
C17_43 C18_43 1_555 1_555
C19_43 C20_43 1_555 1_555
C22_43 C23_43 1_555 1_555
C24_43 C25_43 1_555 1_555
C61_43 C62_43 1_555 1_555
C65_43 N25_43 1_555 1_555
C67_43 C68_43 1_555 1_555
C69_43 C70_43 1_555 1_555
C72_43 C73_43 1_555 1_555
C74_43 C75_43 1_555 1_555
N10_37 Co7_17 1_555 1_555
C26_37 N10_37 1_555 1_555
S2_37 C26_37 1_555 1_555
N27_34 Co7_17 1_555 1_555
N31_37 Co7_17 1_555 1_555
N32_37 Co7_17 1_555 1_555
N34_37 Co7_17 1_555 1_555
C76_37 N34_37 1_555 1_555
S4_37 C76_37 1_555 1_555
N10_38 Co7_18 1_555 1_555
C26_38 N10_38 1_555 1_555
S2_38 C26_38 1_555 1_555
N31_38 Co7_18 1_555 1_555
N32_38 Co7_18 1_555 1_555
N34_38 Co7_18 1_555 1_555
C76_38 N34_38 1_555 1_555
S4_38 C76_38 1_555 1_555
N10_39 Co7_9 1_555 1_555
C26_39 N10_39 1_555 1_555
S2_39 C26_39 1_555 1_555
N31_39 Co7_9 1_555 1_555
N32_39 Co7_9 1_555 1_555
N34_39 Co7_9 1_555 1_555
C76_39 N34_39 1_555 1_555
S4_39 C76_39 1_555 1_555
N3_44 Co6_7 1_555 1_555
C7_44 N3_44 1_555 1_555
S1_44 C7_44 1_555 1_555
N4_44 Co6_7 1_555 1_555
C8_44 N4_44 1_555 1_555
H5_44 C8_44 1_555 1_555
C9_44 C8_44 1_555 1_555
H6_44 C9_44 1_555 1_555
C10_44 C9_44 1_555 1_555
C11_44 C10_44 1_555 1_555
H7_44 C11_44 1_555 1_555
C12_44 N4_44 1_555 1_555
H8_44 C12_44 1_555 1_555
C13_44 N5_44 1_555 1_555
N5_44 C14_44 1_555 1_555
C14_44 C10_44 1_555 1_555
N6_44 C14_44 1_555 1_555
C15_44 N6_44 1_555 1_555
N7_44 C13_44 1_555 1_555
N27_17 C16_44 1_555 1_555
C16_44 H9_44 1_555 1_555
C17_44 C16_44 1_555 1_555
H10_44 C17_44 1_555 1_555
C18_44 C13_44 1_555 1_555
C19_44 C18_44 1_555 1_555
H11_44 C19_44 1_555 1_555
C20_44 N27_17 1_555 1_555
H12_44 C20_44 1_555 1_555
N33_8 C21_44 1_555 1_555
C21_44 H13_44 1_555 1_555
C22_44 C21_44 1_555 1_555
H14_44 C22_44 1_555 1_555
C23_44 C15_44 1_555 1_555
C24_44 C23_44 1_555 1_555
H15_44 C24_44 1_555 1_555
C25_44 N33_8 1_555 1_555
H16_44 C25_44 1_555 1_555
N21_44 Co6_7 1_555 1_555
C57_44 N21_44 1_555 1_555
S3_44 C57_44 1_555 1_555
N22_44 Co6_7 1_555 1_555
C58_44 N22_44 1_555 1_555
H37_44 C58_44 1_555 1_555
C59_44 C58_44 1_555 1_555
H38_44 C59_44 1_555 1_555
C60_44 C59_44 1_555 1_555
C61_44 C60_44 1_555 1_555
H39_44 C61_44 1_555 1_555
C62_44 N22_44 1_555 1_555
H40_44 C62_44 1_555 1_555
C63_44 N23_44 1_555 1_555
N23_44 C64_44 1_555 1_555
C64_44 C60_44 1_555 1_555
N24_44 C64_44 1_555 1_555
C65_44 N24_44 1_555 1_555
N25_44 C63_44 1_555 1_555
N26_33 C66_44 1_555 1_555
C66_44 H41_44 1_555 1_555
C67_44 C66_44 1_555 1_555
H42_44 C67_44 1_555 1_555
C68_44 C63_44 1_555 1_555
C69_44 C68_44 1_555 1_555
H43_44 C69_44 1_555 1_555
C70_44 N26_33 1_555 1_555
H44_44 C70_44 1_555 1_555
N30_23 C71_44 1_555 1_555
C71_44 H45_44 1_555 1_555
C72_44 C71_44 1_555 1_555
H46_44 C72_44 1_555 1_555
C73_44 C65_44 1_555 1_555
C74_44 C73_44 1_555 1_555
H47_44 C74_44 1_555 1_555
C75_44 N30_23 1_555 1_555
H48_44 C75_44 1_555 1_555
Co7_31 N26_33 1_555 1_555
Co9_24 N30_23 1_555 1_555
C11_44 C12_44 1_555 1_555
C15_44 N7_44 1_555 1_555
C17_44 C18_44 1_555 1_555
C19_44 C20_44 1_555 1_555
C22_44 C23_44 1_555 1_555
C24_44 C25_44 1_555 1_555
C61_44 C62_44 1_555 1_555
C65_44 N25_44 1_555 1_555
C67_44 C68_44 1_555 1_555
C69_44 C70_44 1_555 1_555
C72_44 C73_44 1_555 1_555
C74_44 C75_44 1_555 1_555
N10_40 Co7_22 1_555 1_555
C26_40 N10_40 1_555 1_555
S2_40 C26_40 1_555 1_555
N27_35 Co7_22 1_555 1_555
N31_40 Co7_22 1_555 1_555
N32_40 Co7_22 1_555 1_555
N34_40 Co7_22 1_555 1_555
C76_40 N34_40 1_555 1_555
S4_40 C76_40 1_555 1_555
N10_41 Co7_13 1_555 1_555
C26_41 N10_41 1_555 1_555
S2_41 C26_41 1_555 1_555
N31_41 Co7_13 1_555 1_555
N32_41 Co7_14 1_555 1_555
N34_41 Co7_14 1_555 1_555
C76_41 N34_41 1_555 1_555
S4_41 C76_41 1_555 1_555
N3_45 Co6 1_555 1_555
C7_45 N3_45 1_555 1_555
S1_45 C7_45 1_555 1_555
N4_45 Co6 1_555 1_555
C8_45 N4_45 1_555 1_555
H5_45 C8_45 1_555 1_555
C9_45 C8_45 1_555 1_555
H6_45 C9_45 1_555 1_555
C10_45 C9_45 1_555 1_555
C11_45 C10_45 1_555 1_555
H7_45 C11_45 1_555 1_555
C12_45 N4_45 1_555 1_555
H8_45 C12_45 1_555 1_555
C13_45 N5_45 1_555 1_555
N5_45 C14_45 1_555 1_555
C14_45 C10_45 1_555 1_555
N6_45 C14_45 1_555 1_555
C15_45 N6_45 1_555 1_555
N7_45 C13_45 1_555 1_555
N27_34 C16_45 1_555 1_555
C16_45 H9_45 1_555 1_555
C17_45 C16_45 1_555 1_555
H10_45 C17_45 1_555 1_555
C18_45 C13_45 1_555 1_555
C19_45 C18_45 1_555 1_555
H11_45 C19_45 1_555 1_555
C20_45 N27_34 1_555 1_555
H12_45 C20_45 1_555 1_555
N9_36 C21_45 1_555 1_555
C21_45 H13_45 1_555 1_555
C22_45 C21_45 1_555 1_555
H14_45 C22_45 1_555 1_555
C23_45 C15_45 1_555 1_555
C24_45 C23_45 1_555 1_555
H15_45 C24_45 1_555 1_555
C25_45 N9_36 1_555 1_555
H16_45 C25_45 1_555 1_555
N21_45 Co6 1_555 1_555
C57_45 N21_45 1_555 1_555
S3_45 C57_45 1_555 1_555
N22_45 Co6 1_555 1_555
C58_45 N22_45 1_555 1_555
H37_45 C58_45 1_555 1_555
C59_45 C58_45 1_555 1_555
H38_45 C59_45 1_555 1_555
C60_45 C59_45 1_555 1_555
C61_45 C60_45 1_555 1_555
H39_45 C61_45 1_555 1_555
C62_45 N22_45 1_555 1_555
H40_45 C62_45 1_555 1_555
C63_45 N23_45 1_555 1_555
N23_45 C64_45 1_555 1_555
C64_45 C60_45 1_555 1_555
N24_45 C64_45 1_555 1_555
C65_45 N24_45 1_555 1_555
N25_45 C63_45 1_555 1_555
N27_31 C66_45 1_555 1_555
N28_46 Co9_14 1_555 1_555
N29_46 Co9_14 1_555 1_555
C66_45 H41_45 1_555 1_555
C67_45 C66_45 1_555 1_555
H42_45 C67_45 1_555 1_555
C68_45 C63_45 1_555 1_555
C69_45 C68_45 1_555 1_555
H43_45 C69_45 1_555 1_555
C70_45 N27_31 1_555 1_555
H44_45 C70_45 1_555 1_555
N33_28 C71_45 1_555 1_555
C71_45 H45_45 1_555 1_555
C72_45 C71_45 1_555 1_555
H46_45 C72_45 1_555 1_555
C73_45 C65_45 1_555 1_555
C74_45 C73_45 1_555 1_555
H47_45 C74_45 1_555 1_555
C75_45 N33_28 1_555 1_555
H48_45 C75_45 1_555 1_555
Co9_14 N9_36 1_555 1_555
N35_46 Co9_14 1_555 1_555
N36_46 Co9_14 1_555 1_555
C77_46 N35_46 1_555 1_555
C78_46 N36_46 1_555 1_555
S5_46 C77_46 1_555 1_555
S6_46 C78_46 1_555 1_555
C11_45 C12_45 1_555 1_555
C15_45 N7_45 1_555 1_555
C17_45 C18_45 1_555 1_555
C19_45 C20_45 1_555 1_555
C22_45 C23_45 1_555 1_555
C24_45 C25_45 1_555 1_555
C61_45 C62_45 1_555 1_555
C65_45 N25_45 1_555 1_555
C67_45 C68_45 1_555 1_555
C69_45 C70_45 1_555 1_555
C72_45 C73_45 1_555 1_555
C74_45 C75_45 1_555 1_555
N10_42 Co7_11 1_555 1_555
C26_42 N10_42 1_555 1_555
S2_42 C26_42 1_555 1_555
N31_42 Co7_11 1_555 1_555
N32_42 Co7_11 1_555 1_555
N34_42 Co7_11 1_555 1_555
C76_42 N34_42 1_555 1_555
S4_42 C76_42 1_555 1_555
N10_43 Co7_25 1_555 1_555
C26_43 N10_43 1_555 1_555
S2_43 C26_43 1_555 1_555
N31_43 Co7_25 1_555 1_555
N32_43 Co7_25 1_555 1_555
N34_43 Co7_25 1_555 1_555
C76_43 N34_43 1_555 1_555
S4_43 C76_43 1_555 1_555
N10_44 Co7 1_555 1_555
C26_44 N10_44 1_555 1_555
S2_44 C26_44 1_555 1_555
N31_44 Co7 1_555 1_555
N32_44 Co7 1_555 1_555
N34_44 Co7 1_555 1_555
C76_44 N34_44 1_555 1_555
S4_44 C76_44 1_555 1_555
N3_46 Co3_11 1_555 1_555
C7_46 N3_46 1_555 1_555
S1_46 C7_46 1_555 1_555
N4_46 Co3_11 1_555 1_555
C8_46 N4_46 1_555 1_555
H5_46 C8_46 1_555 1_555
C9_46 C8_46 1_555 1_555
H6_46 C9_46 1_555 1_555
C10_46 C9_46 1_555 1_555
C11_46 C10_46 1_555 1_555
H7_46 C11_46 1_555 1_555
C12_46 N4_46 1_555 1_555
H8_46 C12_46 1_555 1_555
C13_46 N5_46 1_555 1_555
N5_46 C14_46 1_555 1_555
C14_46 C10_46 1_555 1_555
N6_46 C14_46 1_555 1_555
C15_46 N6_46 1_555 1_555
N7_46 C13_46 1_555 1_555
N27_4 C16_46 1_555 1_555
C16_46 H9_46 1_555 1_555
C17_46 C16_46 1_555 1_555
H10_46 C17_46 1_555 1_555
C18_46 C13_46 1_555 1_555
C19_46 C18_46 1_555 1_555
H11_46 C19_46 1_555 1_555
C20_46 N27_4 1_555 1_555
H12_46 C20_46 1_555 1_555
N33_19 C21_46 1_555 1_555
C21_46 H13_46 1_555 1_555
C22_46 C21_46 1_555 1_555
H14_46 C22_46 1_555 1_555
C23_46 C15_46 1_555 1_555
C24_46 C23_46 1_555 1_555
H15_46 C24_46 1_555 1_555
C25_46 N33_19 1_555 1_555
H16_46 C25_46 1_555 1_555
N21_46 Co3_11 1_555 1_555
C57_46 N21_46 1_555 1_555
S3_46 C57_46 1_555 1_555
N22_46 Co3_11 1_555 1_555
C58_46 N22_46 1_555 1_555
H37_46 C58_46 1_555 1_555
C59_46 C58_46 1_555 1_555
H38_46 C59_46 1_555 1_555
C60_46 C59_46 1_555 1_555
C61_46 C60_46 1_555 1_555
H39_46 C61_46 1_555 1_555
C62_46 N22_46 1_555 1_555
H40_46 C62_46 1_555 1_555
C63_46 N23_46 1_555 1_555
N23_46 C64_46 1_555 1_555
C64_46 C60_46 1_555 1_555
N24_46 C64_46 1_555 1_555
C65_46 N24_46 1_555 1_555
N25_46 C63_46 1_555 1_555
N26_34 C66_46 1_555 1_555
C66_46 H41_46 1_555 1_555
C67_46 C66_46 1_555 1_555
H42_46 C67_46 1_555 1_555
C68_46 C63_46 1_555 1_555
C69_46 C68_46 1_555 1_555
H43_46 C69_46 1_555 1_555
C70_46 N26_34 1_555 1_555
H44_46 C70_46 1_555 1_555
N30_24 C71_46 1_555 1_555
C71_46 H45_46 1_555 1_555
C72_46 C71_46 1_555 1_555
H46_46 C72_46 1_555 1_555
C73_46 C65_46 1_555 1_555
C74_46 C73_46 1_555 1_555
H47_46 C74_46 1_555 1_555
C75_46 N30_24 1_555 1_555
H48_46 C75_46 1_555 1_555
Co7_26 N26_34 1_555 1_555
Co9_20 N30_24 1_555 1_555
C11_46 C12_46 1_555 1_555
C15_46 N7_46 1_555 1_555
C17_46 C18_46 1_555 1_555
C19_46 C20_46 1_555 1_555
C22_46 C23_46 1_555 1_555
C24_46 C25_46 1_555 1_555
C61_46 C62_46 1_555 1_555
C65_46 N25_46 1_555 1_555
C67_46 C68_46 1_555 1_555
C69_46 C70_46 1_555 1_555
C72_46 C73_46 1_555 1_555
C74_46 C75_46 1_555 1_555
S1_47 C7_47 1_555 1_555
S3_47 C57_47 1_555 1_555
N3_47 Co3_7 1_555 1_555
N4_47 Co3_7 1_555 1_555
C8_47 N4_47 1_555 1_555
H5_47 C8_47 1_555 1_555
C9_47 C8_47 1_555 1_555
H6_47 C9_47 1_555 1_555
C10_47 C9_47 1_555 1_555
C11_47 C10_47 1_555 1_555
H7_47 C11_47 1_555 1_555
C12_47 N4_47 1_555 1_555
H8_47 C12_47 1_555 1_555
C13_47 N5_47 1_555 1_555
N5_47 C14_47 1_555 1_555
C14_47 C10_47 1_555 1_555
N6_47 C14_47 1_555 1_555
C15_47 N6_47 1_555 1_555
N7_47 C13_47 1_555 1_555
N27_35 C16_47 1_555 1_555
C16_47 H9_47 1_555 1_555
C17_47 C16_47 1_555 1_555
H10_47 C17_47 1_555 1_555
C18_47 C13_47 1_555 1_555
C19_47 C18_47 1_555 1_555
H11_47 C19_47 1_555 1_555
C20_47 N27_35 1_555 1_555
H12_47 C20_47 1_555 1_555
N33_25 C21_47 1_555 1_555
C21_47 H13_47 1_555 1_555
C22_47 C21_47 1_555 1_555
H14_47 C22_47 1_555 1_555
C23_47 C15_47 1_555 1_555
C24_47 C23_47 1_555 1_555
H15_47 C24_47 1_555 1_555
C25_47 N33_25 1_555 1_555
H16_47 C25_47 1_555 1_555
N21_47 Co3_7 1_555 1_555
N22_47 Co3_7 1_555 1_555
C58_47 N22_47 1_555 1_555
H37_47 C58_47 1_555 1_555
C59_47 C58_47 1_555 1_555
H38_47 C59_47 1_555 1_555
C60_47 C59_47 1_555 1_555
C61_47 C60_47 1_555 1_555
H39_47 C61_47 1_555 1_555
C62_47 N22_47 1_555 1_555
H40_47 C62_47 1_555 1_555
C63_47 N23_47 1_555 1_555
N23_47 C64_47 1_555 1_555
C64_47 C60_47 1_555 1_555
N24_47 C64_47 1_555 1_555
C65_47 N24_47 1_555 1_555
N25_47 C63_47 1_555 1_555
N26_35 C66_47 1_555 1_555
C66_47 H41_47 1_555 1_555
C67_47 C66_47 1_555 1_555
H42_47 C67_47 1_555 1_555
C68_47 C63_47 1_555 1_555
C69_47 C68_47 1_555 1_555
H43_47 C69_47 1_555 1_555
C70_47 N26_35 1_555 1_555
H44_47 C70_47 1_555 1_555
N33_30 C71_47 1_555 1_555
C71_47 H45_47 1_555 1_555
C72_47 C71_47 1_555 1_555
H46_47 C72_47 1_555 1_555
C73_47 C65_47 1_555 1_555
C74_47 C73_47 1_555 1_555
H47_47 C74_47 1_555 1_555
C75_47 N33_30 1_555 1_555
H48_47 C75_47 1_555 1_555
Co7_27 N26_35 1_555 1_555
C11_47 C12_47 1_555 1_555
C15_47 N7_47 1_555 1_555
C17_47 C18_47 1_555 1_555
C19_47 C20_47 1_555 1_555
C22_47 C23_47 1_555 1_555
C24_47 C25_47 1_555 1_555
C61_47 C62_47 1_555 1_555
C65_47 N25_47 1_555 1_555
C67_47 C68_47 1_555 1_555
C69_47 C70_47 1_555 1_555
C72_47 C73_47 1_555 1_555
C74_47 C75_47 1_555 1_555
N10_45 Co7_26 1_555 1_555
C26_45 N10_45 1_555 1_555
S2_45 C26_45 1_555 1_555
N28_47 Co9_20 1_555 1_555
N29_47 Co9_20 1_555 1_555
N31_45 Co7_26 1_555 1_555
N32_45 Co7_26 1_555 1_555
N34_45 Co7_26 1_555 1_555
N35_47 Co9_20 1_555 1_555
N36_47 Co9_20 1_555 1_555
C76_45 N34_45 1_555 1_555
C77_47 N35_47 1_555 1_555
C78_47 N36_47 1_555 1_555
S4_45 C76_45 1_555 1_555
S5_47 C77_47 1_555 1_555
S6_47 C78_47 1_555 1_555
S1_48 C7_48 1_555 1_555
S3_48 C57_48 1_555 1_555
N3_48 Co3 1_555 1_555
N4_48 Co3 1_555 1_555
C8_48 N4_48 1_555 1_555
H5_48 C8_48 1_555 1_555
C9_48 C8_48 1_555 1_555
H6_48 C9_48 1_555 1_555
C10_48 C9_48 1_555 1_555
C11_48 C10_48 1_555 1_555
H7_48 C11_48 1_555 1_555
C12_48 N4_48 1_555 1_555
H8_48 C12_48 1_555 1_555
C13_48 N5_48 1_555 1_555
N5_48 C14_48 1_555 1_555
C14_48 C10_48 1_555 1_555
N6_48 C14_48 1_555 1_555
C15_48 N6_48 1_555 1_555
N7_48 C13_48 1_555 1_555
N8_26 C16_48 1_555 1_555
C16_48 H9_48 1_555 1_555
C17_48 C16_48 1_555 1_555
H10_48 C17_48 1_555 1_555
C18_48 C13_48 1_555 1_555
C19_48 C18_48 1_555 1_555
H11_48 C19_48 1_555 1_555
C20_48 N8_26 1_555 1_555
H12_48 C20_48 1_555 1_555
N33_36 C21_48 1_555 1_555
C21_48 H13_48 1_555 1_555
C22_48 C21_48 1_555 1_555
H14_48 C22_48 1_555 1_555
C23_48 C15_48 1_555 1_555
C24_48 C23_48 1_555 1_555
H15_48 C24_48 1_555 1_555
C25_48 N33_36 1_555 1_555
H16_48 C25_48 1_555 1_555
Co7_19 N8_26 1_555 1_555
N10_46 Co7_19 1_555 1_555
C26_46 N10_46 1_555 1_555
S2_46 C26_46 1_555 1_555
N21_48 Co3 1_555 1_555
N22_48 Co3 1_555 1_555
C58_48 N22_48 1_555 1_555
H37_48 C58_48 1_555 1_555
C59_48 C58_48 1_555 1_555
H38_48 C59_48 1_555 1_555
C60_48 C59_48 1_555 1_555
C61_48 C60_48 1_555 1_555
H39_48 C61_48 1_555 1_555
C62_48 N22_48 1_555 1_555
H40_48 C62_48 1_555 1_555
C63_48 N23_48 1_555 1_555
N23_48 C64_48 1_555 1_555
C64_48 C60_48 1_555 1_555
N24_48 C64_48 1_555 1_555
C65_48 N24_48 1_555 1_555
N25_48 C63_48 1_555 1_555
N27_33 C66_48 1_555 1_555
C66_48 H41_48 1_555 1_555
C67_48 C66_48 1_555 1_555
H42_48 C67_48 1_555 1_555
C68_48 C63_48 1_555 1_555
C69_48 C68_48 1_555 1_555
H43_48 C69_48 1_555 1_555
C70_48 N27_33 1_555 1_555
H44_48 C70_48 1_555 1_555
N33_32 C71_48 1_555 1_555
N31_46 Co7_19 1_555 1_555
N32_46 Co7_19 1_555 1_555
C71_48 H45_48 1_555 1_555
C72_48 C71_48 1_555 1_555
H46_48 C72_48 1_555 1_555
C73_48 C65_48 1_555 1_555
C74_48 C73_48 1_555 1_555
H47_48 C74_48 1_555 1_555
C75_48 N33_32 1_555 1_555
H48_48 C75_48 1_555 1_555
N34_46 Co7_19 1_555 1_555
C76_46 N34_46 1_555 1_555
S4_46 C76_46 1_555 1_555
C11_48 C12_48 1_555 1_555
C15_48 N7_48 1_555 1_555
C17_48 C18_48 1_555 1_555
C19_48 C20_48 1_555 1_555
C22_48 C23_48 1_555 1_555
C24_48 C25_48 1_555 1_555
C61_48 C62_48 1_555 1_555
C65_48 N25_48 1_555 1_555
C67_48 C68_48 1_555 1_555
C69_48 C70_48 1_555 1_555
C72_48 C73_48 1_555 1_555
C74_48 C75_48 1_555 1_555
N10_47 Co7_31 1_555 1_555
C26_47 N10_47 1_555 1_555
S2_47 C26_47 1_555 1_555
N31_47 Co7_31 1_555 1_555
N32_47 Co7_31 1_555 1_555
N34_47 Co7_31 1_555 1_555
C76_47 N34_47 1_555 1_555
S4_47 C76_47 1_555 1_555
N28_48 Co9_24 1_555 1_555
N29_48 Co9_24 1_555 1_555
N35_48 Co9_24 1_555 1_555
N36_48 Co9_24 1_555 1_555
C77_48 N35_48 1_555 1_555
C78_48 N36_48 1_555 1_555
S5_48 C77_48 1_555 1_555
S6_48 C78_48 1_555 1_555
N10_48 Co7_27 1_555 1_555
C26_48 N10_48 1_555 1_555
S2_48 C26_48 1_555 1_555
N31_48 Co7_27 1_555 1_555
N32_48 Co7_27 1_555 1_555
N34_48 Co7_27 1_555 1_555
C76_48 N34_48 1_555 1_555
S4_48 C76_48 1_555 1_555
N1_21 C1_21 1_555 1_555
C1_21 C4_21 1_555 1_555
N2_21 C2_21 1_555 1_555
C2_21 H1_21 1_555 1_555
C3_21 C2_21 1_555 1_555
H2_21 C3_21 1_555 1_555
C4_21 C3_21 1_555 1_555
C5_21 C4_21 1_555 1_555
H3_21 C5_21 1_555 1_555
C6_21 N2_21 1_555 1_555
H4_21 C6_21 1_555 1_555
Co1_12 N2_21 1_555 1_555
N3_49 Co1_12 1_555 1_555
C7_49 N3_49 1_555 1_555
S1_49 C7_49 1_555 1_555
N4_49 Co1_12 1_555 1_555
C8_49 N4_49 1_555 1_555
H5_49 C8_49 1_555 1_555
C9_49 C8_49 1_555 1_555
H6_49 C9_49 1_555 1_555
C10_49 C9_49 1_555 1_555
C11_49 C10_49 1_555 1_555
H7_49 C11_49 1_555 1_555
C12_49 N4_49 1_555 1_555
H8_49 C12_49 1_555 1_555
C13_49 N5_49 1_555 1_555
N5_49 C14_49 1_555 1_555
C14_49 C10_49 1_555 1_555
N6_49 C14_49 1_555 1_555
C15_49 N6_49 1_555 1_555
N7_49 C13_49 1_555 1_555
N28_29 C16_49 1_555 1_555
C16_49 H9_49 1_555 1_555
C17_49 C16_49 1_555 1_555
H10_49 C17_49 1_555 1_555
C18_49 C13_49 1_555 1_555
C19_49 C18_49 1_555 1_555
H11_49 C19_49 1_555 1_555
C20_49 N28_29 1_555 1_555
H12_49 C20_49 1_555 1_555
N31_24 C21_49 1_555 1_555
C21_49 H13_49 1_555 1_555
C22_49 C21_49 1_555 1_555
H14_49 C22_49 1_555 1_555
C23_49 C15_49 1_555 1_555
C24_49 C23_49 1_555 1_555
H15_49 C24_49 1_555 1_555
C25_49 N31_24 1_555 1_555
H16_49 C25_49 1_555 1_555
N11_21 C1_21 1_555 1_555
N12_21 C27_21 1_555 1_555
N13_13 C29_13 1_555 1_555
N14_13 C29_13 1_555 1_555
N15_13 C30_13 1_555 1_555
C27_21 N11_21 1_555 1_555
C28_21 N1_21 1_555 1_555
C29_13 C44_13 1_555 1_555
C30_13 N14_13 1_555 1_555
C31_13 N13_13 1_555 1_555
N16_21 C32_21 1_555 1_555
N17_21 C33_21 1_555 1_555
N18_13 Co1_12 1_555 1_555
N19_13 C35_13 1_555 1_555
N20_13 C36_13 1_555 1_555
C32_21 H17_21 1_555 1_555
C33_21 H18_21 1_555 1_555
C34_13 N18_13 1_555 1_555
C35_13 H20_13 1_555 1_555
C36_13 H21_13 1_555 1_555
H19_13 C34_13 1_555 1_555
C37_21 C32_21 1_555 1_555
C38_21 C33_21 1_555 1_555
C39_13 C34_13 1_555 1_555
C40_13 C35_13 1_555 1_555
C41_13 C36_13 1_555 1_555
H22_21 C37_21 1_555 1_555
H23_21 C38_21 1_555 1_555
H24_13 C39_13 1_555 1_555
H25_13 C40_13 1_555 1_555
H26_13 C41_13 1_555 1_555
C42_21 C28_21 1_555 1_555
C43_21 C27_21 1_555 1_555
C44_13 C39_13 1_555 1_555
C45_13 C31_13 1_555 1_555
C46_13 C30_13 1_555 1_555
C47_21 C42_21 1_555 1_555
C48_21 C43_21 1_555 1_555
C49_13 C44_13 1_555 1_555
C50_13 C45_13 1_555 1_555
C51_13 C46_13 1_555 1_555
H27_21 C47_21 1_555 1_555
H28_21 C48_21 1_555 1_555
H29_13 C49_13 1_555 1_555
H30_13 C50_13 1_555 1_555
H31_13 C51_13 1_555 1_555
C52_21 N16_21 1_555 1_555
C53_21 N17_21 1_555 1_555
C54_13 N18_13 1_555 1_555
C55_13 N19_13 1_555 1_555
C56_13 N20_13 1_555 1_555
H32_21 C52_21 1_555 1_555
H33_21 C53_21 1_555 1_555
H34_13 C54_13 1_555 1_555
H35_13 C55_13 1_555 1_555
H36_13 C56_13 1_555 1_555
Co4_9 N17_21 1_555 1_555
Co5_9 N19_13 1_555 1_555
Co6_10 N20_13 1_555 1_555
N21_49 Co1_12 1_555 1_555
C57_49 N21_49 1_555 1_555
S3_49 C57_49 1_555 1_555
N22_49 Co1_12 1_555 1_555
C58_49 N22_49 1_555 1_555
H37_49 C58_49 1_555 1_555
C59_49 C58_49 1_555 1_555
H38_49 C59_49 1_555 1_555
C60_49 C59_49 1_555 1_555
C61_49 C60_49 1_555 1_555
H39_49 C61_49 1_555 1_555
C62_49 N22_49 1_555 1_555
H40_49 C62_49 1_555 1_555
C63_49 N23_49 1_555 1_555
N23_49 C64_49 1_555 1_555
C64_49 C60_49 1_555 1_555
N24_49 C64_49 1_555 1_555
C65_49 N24_49 1_555 1_555
N25_49 C63_49 1_555 1_555
N28_28 C66_49 1_555 1_555
C66_49 H41_49 1_555 1_555
C67_49 C66_49 1_555 1_555
H42_49 C67_49 1_555 1_555
C68_49 C63_49 1_555 1_555
C69_49 C68_49 1_555 1_555
H43_49 C69_49 1_555 1_555
C70_49 N28_28 1_555 1_555
H44_49 C70_49 1_555 1_555
N32_19 C71_49 1_555 1_555
C71_49 H45_49 1_555 1_555
C72_49 C71_49 1_555 1_555
H46_49 C72_49 1_555 1_555
C73_49 C65_49 1_555 1_555
C74_49 C73_49 1_555 1_555
H47_49 C74_49 1_555 1_555
C75_49 N32_19 1_555 1_555
H48_49 C75_49 1_555 1_555
C5_21 C6_21 1_555 1_555
C11_49 C12_49 1_555 1_555
C15_49 N7_49 1_555 1_555
C17_49 C18_49 1_555 1_555
C19_49 C20_49 1_555 1_555
C22_49 C23_49 1_555 1_555
C24_49 C25_49 1_555 1_555
N12_21 C28_21 1_555 1_555
N15_13 C31_13 1_555 1_555
C37_21 C42_21 1_555 1_555
C38_21 C43_21 1_555 1_555
C40_13 C45_13 1_555 1_555
C41_13 C46_13 1_555 1_555
C47_21 C52_21 1_555 1_555
C48_21 C53_21 1_555 1_555
C49_13 C54_13 1_555 1_555
C50_13 C55_13 1_555 1_555
C51_13 C56_13 1_555 1_555
C61_49 C62_49 1_555 1_555
C65_49 N25_49 1_555 1_555
C67_49 C68_49 1_555 1_555
C69_49 C70_49 1_555 1_555
C72_49 C73_49 1_555 1_555
C74_49 C75_49 1_555 1_555
N1_22 C1_22 1_555 1_555
C1_22 C4_22 1_555 1_555
N2_22 C2_22 1_555 1_555
C2_22 H1_22 1_555 1_555
C3_22 C2_22 1_555 1_555
H2_22 C3_22 1_555 1_555
C4_22 C3_22 1_555 1_555
C5_22 C4_22 1_555 1_555
H3_22 C5_22 1_555 1_555
C6_22 N2_22 1_555 1_555
H4_22 C6_22 1_555 1_555
Co1_13 N2_22 1_555 1_555
N3_50 Co1_13 1_555 1_555
C7_50 N3_50 1_555 1_555
S1_50 C7_50 1_555 1_555
N4_50 Co1_13 1_555 1_555
C8_50 N4_50 1_555 1_555
H5_50 C8_50 1_555 1_555
C9_50 C8_50 1_555 1_555
H6_50 C9_50 1_555 1_555
C10_50 C9_50 1_555 1_555
C11_50 C10_50 1_555 1_555
H7_50 C11_50 1_555 1_555
C12_50 N4_50 1_555 1_555
H8_50 C12_50 1_555 1_555
C13_50 N5_50 1_555 1_555
N5_50 C14_50 1_555 1_555
C14_50 C10_50 1_555 1_555
N6_50 C14_50 1_555 1_555
C15_50 N6_50 1_555 1_555
N7_50 C13_50 1_555 1_555
N29_5 C16_50 1_555 1_555
C16_50 H9_50 1_555 1_555
C17_50 C16_50 1_555 1_555
H10_50 C17_50 1_555 1_555
C18_50 C13_50 1_555 1_555
C19_50 C18_50 1_555 1_555
H11_50 C19_50 1_555 1_555
C20_50 N29_5 1_555 1_555
H12_50 C20_50 1_555 1_555
N31_8 C21_50 1_555 1_555
C21_50 H13_50 1_555 1_555
C22_50 C21_50 1_555 1_555
H14_50 C22_50 1_555 1_555
C23_50 C15_50 1_555 1_555
C24_50 C23_50 1_555 1_555
H15_50 C24_50 1_555 1_555
C25_50 N31_8 1_555 1_555
H16_50 C25_50 1_555 1_555
N11_22 C1_22 1_555 1_555
N12_22 C27_22 1_555 1_555
N13_14 C29_14 1_555 1_555
N14_14 C29_14 1_555 1_555
N15_14 C30_14 1_555 1_555
C27_22 N11_22 1_555 1_555
C28_22 N1_22 1_555 1_555
C29_14 C44_14 1_555 1_555
C30_14 N14_14 1_555 1_555
C31_14 N13_14 1_555 1_555
N16_22 C32_22 1_555 1_555
N17_22 C33_22 1_555 1_555
N18_14 Co1_13 1_555 1_555
N19_14 C35_14 1_555 1_555
N20_14 C36_14 1_555 1_555
C32_22 H17_22 1_555 1_555
C33_22 H18_22 1_555 1_555
C34_14 N18_14 1_555 1_555
C35_14 H20_14 1_555 1_555
C36_14 H21_14 1_555 1_555
H19_14 C34_14 1_555 1_555
C37_22 C32_22 1_555 1_555
C38_22 C33_22 1_555 1_555
C39_14 C34_14 1_555 1_555
C40_14 C35_14 1_555 1_555
C41_14 C36_14 1_555 1_555
H22_22 C37_22 1_555 1_555
H23_22 C38_22 1_555 1_555
H24_14 C39_14 1_555 1_555
H25_14 C40_14 1_555 1_555
H26_14 C41_14 1_555 1_555
C42_22 C28_22 1_555 1_555
C43_22 C27_22 1_555 1_555
C44_14 C39_14 1_555 1_555
C45_14 C31_14 1_555 1_555
C46_14 C30_14 1_555 1_555
C47_22 C42_22 1_555 1_555
C48_22 C43_22 1_555 1_555
C49_14 C44_14 1_555 1_555
C50_14 C45_14 1_555 1_555
C51_14 C46_14 1_555 1_555
H27_22 C47_22 1_555 1_555
H28_22 C48_22 1_555 1_555
H29_14 C49_14 1_555 1_555
H30_14 C50_14 1_555 1_555
H31_14 C51_14 1_555 1_555
C52_22 N16_22 1_555 1_555
C53_22 N17_22 1_555 1_555
C54_14 N18_14 1_555 1_555
C55_14 N19_14 1_555 1_555
C56_14 N20_14 1_555 1_555
H32_22 C52_22 1_555 1_555
H33_22 C53_22 1_555 1_555
H34_14 C54_14 1_555 1_555
H35_14 C55_14 1_555 1_555
H36_14 C56_14 1_555 1_555
Co3_14 N16_22 1_555 1_555
Co5_10 N19_14 1_555 1_555
Co6_11 N20_14 1_555 1_555
N21_50 Co1_13 1_555 1_555
C57_50 N21_50 1_555 1_555
S3_50 C57_50 1_555 1_555
N22_50 Co1_13 1_555 1_555
C58_50 N22_50 1_555 1_555
H37_50 C58_50 1_555 1_555
C59_50 C58_50 1_555 1_555
H38_50 C59_50 1_555 1_555
C60_50 C59_50 1_555 1_555
C61_50 C60_50 1_555 1_555
H39_50 C61_50 1_555 1_555
C62_50 N22_50 1_555 1_555
H40_50 C62_50 1_555 1_555
C63_50 N23_50 1_555 1_555
N23_50 C64_50 1_555 1_555
C64_50 C60_50 1_555 1_555
N24_50 C64_50 1_555 1_555
C65_50 N24_50 1_555 1_555
N25_50 C63_50 1_555 1_555
N28_8 C66_50 1_555 1_555
C66_50 H41_50 1_555 1_555
C67_50 C66_50 1_555 1_555
H42_50 C67_50 1_555 1_555
C68_50 C63_50 1_555 1_555
C69_50 C68_50 1_555 1_555
H43_50 C69_50 1_555 1_555
C70_50 N28_8 1_555 1_555
H44_50 C70_50 1_555 1_555
N32_3 C71_50 1_555 1_555
C71_50 H45_50 1_555 1_555
C72_50 C71_50 1_555 1_555
H46_50 C72_50 1_555 1_555
C73_50 C65_50 1_555 1_555
C74_50 C73_50 1_555 1_555
H47_50 C74_50 1_555 1_555
C75_50 N32_3 1_555 1_555
H48_50 C75_50 1_555 1_555
C5_22 C6_22 1_555 1_555
C11_50 C12_50 1_555 1_555
C15_50 N7_50 1_555 1_555
C17_50 C18_50 1_555 1_555
C19_50 C20_50 1_555 1_555
C22_50 C23_50 1_555 1_555
C24_50 C25_50 1_555 1_555
N12_22 C28_22 1_555 1_555
N15_14 C31_14 1_555 1_555
C37_22 C42_22 1_555 1_555
C38_22 C43_22 1_555 1_555
C40_14 C45_14 1_555 1_555
C41_14 C46_14 1_555 1_555
C47_22 C52_22 1_555 1_555
C48_22 C53_22 1_555 1_555
C49_14 C54_14 1_555 1_555
C50_14 C55_14 1_555 1_555
C51_14 C56_14 1_555 1_555
C61_50 C62_50 1_555 1_555
C65_50 N25_50 1_555 1_555
C67_50 C68_50 1_555 1_555
C69_50 C70_50 1_555 1_555
C72_50 C73_50 1_555 1_555
C74_50 C75_50 1_555 1_555
N1_23 C1_23 1_555 1_555
C1_23 C4_23 1_555 1_555
N2_23 C2_23 1_555 1_555
C2_23 H1_23 1_555 1_555
C3_23 C2_23 1_555 1_555
H2_23 C3_23 1_555 1_555
C4_23 C3_23 1_555 1_555
C5_23 C4_23 1_555 1_555
H3_23 C5_23 1_555 1_555
C6_23 N2_23 1_555 1_555
H4_23 C6_23 1_555 1_555
S1_51 C7_51 1_555 1_555
N11_23 C1_23 1_555 1_555
N12_23 C27_23 1_555 1_555
C27_23 N11_23 1_555 1_555
C28_23 N1_23 1_555 1_555
N16_23 C32_23 1_555 1_555
N17_23 C33_23 1_555 1_555
C32_23 H17_23 1_555 1_555
C33_23 H18_23 1_555 1_555
C37_23 C32_23 1_555 1_555
C38_23 C33_23 1_555 1_555
H22_23 C37_23 1_555 1_555
H23_23 C38_23 1_555 1_555
C42_23 C28_23 1_555 1_555
C43_23 C27_23 1_555 1_555
C47_23 C42_23 1_555 1_555
C48_23 C43_23 1_555 1_555
H27_23 C47_23 1_555 1_555
H28_23 C48_23 1_555 1_555
C52_23 N16_23 1_555 1_555
C53_23 N17_23 1_555 1_555
H32_23 C52_23 1_555 1_555
H33_23 C53_23 1_555 1_555
Co3_15 N16_23 1_555 1_555
Co5_10 N17_23 1_555 1_555
S3_51 C57_51 1_555 1_555
C5_23 C6_23 1_555 1_555
N12_23 C28_23 1_555 1_555
C37_23 C42_23 1_555 1_555
C38_23 C43_23 1_555 1_555
C47_23 C52_23 1_555 1_555
C48_23 C53_23 1_555 1_555
N3_51 Co4_10 1_555 1_555
N4_51 Co4_10 1_555 1_555
C8_51 N4_51 1_555 1_555
H5_51 C8_51 1_555 1_555
C9_51 C8_51 1_555 1_555
H6_51 C9_51 1_555 1_555
C10_51 C9_51 1_555 1_555
C11_51 C10_51 1_555 1_555
H7_51 C11_51 1_555 1_555
C12_51 N4_51 1_555 1_555
H8_51 C12_51 1_555 1_555
C13_51 N5_51 1_555 1_555
N5_51 C14_51 1_555 1_555
C14_51 C10_51 1_555 1_555
N6_51 C14_51 1_555 1_555
C15_51 N6_51 1_555 1_555
N7_51 C13_51 1_555 1_555
N29_21 C16_51 1_555 1_555
C16_51 H9_51 1_555 1_555
C17_51 C16_51 1_555 1_555
H10_51 C17_51 1_555 1_555
C18_51 C13_51 1_555 1_555
C19_51 C18_51 1_555 1_555
H11_51 C19_51 1_555 1_555
C20_51 N29_21 1_555 1_555
H12_51 C20_51 1_555 1_555
N31_45 C21_51 1_555 1_555
C21_51 H13_51 1_555 1_555
C22_51 C21_51 1_555 1_555
H14_51 C22_51 1_555 1_555
C23_51 C15_51 1_555 1_555
C24_51 C23_51 1_555 1_555
H15_51 C24_51 1_555 1_555
C25_51 N31_45 1_555 1_555
H16_51 C25_51 1_555 1_555
N21_51 Co4_10 1_555 1_555
N22_51 Co4_10 1_555 1_555
C58_51 N22_51 1_555 1_555
H37_51 C58_51 1_555 1_555
C59_51 C58_51 1_555 1_555
H38_51 C59_51 1_555 1_555
C60_51 C59_51 1_555 1_555
C61_51 C60_51 1_555 1_555
H39_51 C61_51 1_555 1_555
C62_51 N22_51 1_555 1_555
H40_51 C62_51 1_555 1_555
C63_51 N23_51 1_555 1_555
N23_51 C64_51 1_555 1_555
C64_51 C60_51 1_555 1_555
N24_51 C64_51 1_555 1_555
C65_51 N24_51 1_555 1_555
N25_51 C63_51 1_555 1_555
N28_47 C66_51 1_555 1_555
C66_51 H41_51 1_555 1_555
C67_51 C66_51 1_555 1_555
H42_51 C67_51 1_555 1_555
C68_51 C63_51 1_555 1_555
C69_51 C68_51 1_555 1_555
H43_51 C69_51 1_555 1_555
C70_51 N28_47 1_555 1_555
H44_51 C70_51 1_555 1_555
N32_4 C71_51 1_555 1_555
C71_51 H45_51 1_555 1_555
C72_51 C71_51 1_555 1_555
H46_51 C72_51 1_555 1_555
C73_51 C65_51 1_555 1_555
C74_51 C73_51 1_555 1_555
H47_51 C74_51 1_555 1_555
C75_51 N32_4 1_555 1_555
H48_51 C75_51 1_555 1_555
C11_51 C12_51 1_555 1_555
C15_51 N7_51 1_555 1_555
C17_51 C18_51 1_555 1_555
C19_51 C20_51 1_555 1_555
C22_51 C23_51 1_555 1_555
C24_51 C25_51 1_555 1_555
C61_51 C62_51 1_555 1_555
C65_51 N25_51 1_555 1_555
C67_51 C68_51 1_555 1_555
C69_51 C70_51 1_555 1_555
C72_51 C73_51 1_555 1_555
C74_51 C75_51 1_555 1_555
N3_52 Co5_10 1_555 1_555
C7_52 N3_52 1_555 1_555
S1_52 C7_52 1_555 1_555
N4_52 Co5_10 1_555 1_555
C8_52 N4_52 1_555 1_555
H5_52 C8_52 1_555 1_555
C9_52 C8_52 1_555 1_555
H6_52 C9_52 1_555 1_555
C10_52 C9_52 1_555 1_555
C11_52 C10_52 1_555 1_555
H7_52 C11_52 1_555 1_555
C12_52 N4_52 1_555 1_555
H8_52 C12_52 1_555 1_555
C13_52 N5_52 1_555 1_555
N5_52 C14_52 1_555 1_555
C14_52 C10_52 1_555 1_555
N6_52 C14_52 1_555 1_555
C15_52 N6_52 1_555 1_555
N7_52 C13_52 1_555 1_555
N28_25 C16_52 1_555 1_555
C16_52 H9_52 1_555 1_555
C17_52 C16_52 1_555 1_555
H10_52 C17_52 1_555 1_555
C18_52 C13_52 1_555 1_555
C19_52 C18_52 1_555 1_555
H11_52 C19_52 1_555 1_555
C20_52 N28_25 1_555 1_555
H12_52 C20_52 1_555 1_555
N31_38 C21_52 1_555 1_555
C21_52 H13_52 1_555 1_555
C22_52 C21_52 1_555 1_555
H14_52 C22_52 1_555 1_555
C23_52 C15_52 1_555 1_555
C24_52 C23_52 1_555 1_555
H15_52 C24_52 1_555 1_555
C25_52 N31_38 1_555 1_555
H16_52 C25_52 1_555 1_555
N21_52 Co5_10 1_555 1_555
C57_52 N21_52 1_555 1_555
S3_52 C57_52 1_555 1_555
N22_52 Co5_10 1_555 1_555
C58_52 N22_52 1_555 1_555
H37_52 C58_52 1_555 1_555
C59_52 C58_52 1_555 1_555
H38_52 C59_52 1_555 1_555
C60_52 C59_52 1_555 1_555
C61_52 C60_52 1_555 1_555
H39_52 C61_52 1_555 1_555
C62_52 N22_52 1_555 1_555
H40_52 C62_52 1_555 1_555
C63_52 N23_52 1_555 1_555
N23_52 C64_52 1_555 1_555
C64_52 C60_52 1_555 1_555
N24_52 C64_52 1_555 1_555
C65_52 N24_52 1_555 1_555
N25_52 C63_52 1_555 1_555
N29_30 C66_52 1_555 1_555
C66_52 H41_52 1_555 1_555
C67_52 C66_52 1_555 1_555
H42_52 C67_52 1_555 1_555
C68_52 C63_52 1_555 1_555
C69_52 C68_52 1_555 1_555
H43_52 C69_52 1_555 1_555
C70_52 N29_30 1_555 1_555
H44_52 C70_52 1_555 1_555
N32_2 C71_52 1_555 1_555
C71_52 H45_52 1_555 1_555
C72_52 C71_52 1_555 1_555
H46_52 C72_52 1_555 1_555
C73_52 C65_52 1_555 1_555
C74_52 C73_52 1_555 1_555
H47_52 C74_52 1_555 1_555
C75_52 N32_2 1_555 1_555
H48_52 C75_52 1_555 1_555
C11_52 C12_52 1_555 1_555
C15_52 N7_52 1_555 1_555
C17_52 C18_52 1_555 1_555
C19_52 C20_52 1_555 1_555
C22_52 C23_52 1_555 1_555
C24_52 C25_52 1_555 1_555
C61_52 C62_52 1_555 1_555
C65_52 N25_52 1_555 1_555
C67_52 C68_52 1_555 1_555
C69_52 C70_52 1_555 1_555
C72_52 C73_52 1_555 1_555
C74_52 C75_52 1_555 1_555
N3_53 Co1_14 1_555 1_555
N4_53 Co1_14 1_555 1_555
C8_53 N4_53 1_555 1_555
H5_53 C8_53 1_555 1_555
C9_53 C8_53 1_555 1_555
H6_53 C9_53 1_555 1_555
C10_53 C9_53 1_555 1_555
C11_53 C10_53 1_555 1_555
H7_53 C11_53 1_555 1_555
C12_53 N4_53 1_555 1_555
H8_53 C12_53 1_555 1_555
C13_53 N5_53 1_555 1_555
N5_53 C14_53 1_555 1_555
C14_53 C10_53 1_555 1_555
N6_53 C14_53 1_555 1_555
C15_53 N6_53 1_555 1_555
N7_53 C13_53 1_555 1_555
N28_19 C16_53 1_555 1_555
C16_53 H9_53 1_555 1_555
C17_53 C16_53 1_555 1_555
H10_53 C17_53 1_555 1_555
C18_53 C13_53 1_555 1_555
C19_53 C18_53 1_555 1_555
H11_53 C19_53 1_555 1_555
C20_53 N28_19 1_555 1_555
H12_53 C20_53 1_555 1_555
N32_41 C21_53 1_555 1_555
C21_53 H13_53 1_555 1_555
C22_53 C21_53 1_555 1_555
H14_53 C22_53 1_555 1_555
C23_53 C15_53 1_555 1_555
C24_53 C23_53 1_555 1_555
H15_53 C24_53 1_555 1_555
C25_53 N32_41 1_555 1_555
H16_53 C25_53 1_555 1_555
N21_53 Co1_14 1_555 1_555
N22_53 Co1_14 1_555 1_555
C58_53 N22_53 1_555 1_555
H37_53 C58_53 1_555 1_555
C59_53 C58_53 1_555 1_555
H38_53 C59_53 1_555 1_555
C60_53 C59_53 1_555 1_555
C61_53 C60_53 1_555 1_555
H39_53 C61_53 1_555 1_555
C62_53 N22_53 1_555 1_555
H40_53 C62_53 1_555 1_555
C63_53 N23_53 1_555 1_555
N23_53 C64_53 1_555 1_555
C64_53 C60_53 1_555 1_555
N24_53 C64_53 1_555 1_555
C65_53 N24_53 1_555 1_555
N25_53 C63_53 1_555 1_555
N29_33 C66_53 1_555 1_555
C66_53 H41_53 1_555 1_555
C67_53 C66_53 1_555 1_555
H42_53 C67_53 1_555 1_555
C68_53 C63_53 1_555 1_555
C69_53 C68_53 1_555 1_555
H43_53 C69_53 1_555 1_555
C70_53 N29_33 1_555 1_555
H44_53 C70_53 1_555 1_555
N32_8 C71_53 1_555 1_555
C71_53 H45_53 1_555 1_555
C72_53 C71_53 1_555 1_555
H46_53 C72_53 1_555 1_555
C73_53 C65_53 1_555 1_555
C74_53 C73_53 1_555 1_555
H47_53 C74_53 1_555 1_555
C75_53 N32_8 1_555 1_555
H48_53 C75_53 1_555 1_555
C11_53 C12_53 1_555 1_555
C15_53 N7_53 1_555 1_555
C17_53 C18_53 1_555 1_555
C19_53 C20_53 1_555 1_555
C22_53 C23_53 1_555 1_555
C24_53 C25_53 1_555 1_555
C61_53 C62_53 1_555 1_555
C65_53 N25_53 1_555 1_555
C67_53 C68_53 1_555 1_555
C69_53 C70_53 1_555 1_555
C72_53 C73_53 1_555 1_555
C74_53 C75_53 1_555 1_555
N1_24 C1_24 1_555 1_555
C1_24 C4_24 1_555 1_555
N2_24 C2_24 1_555 1_555
C2_24 H1_24 1_555 1_555
C3_24 C2_24 1_555 1_555
H2_24 C3_24 1_555 1_555
C4_24 C3_24 1_555 1_555
C5_24 C4_24 1_555 1_555
H3_24 C5_24 1_555 1_555
C6_24 N2_24 1_555 1_555
H4_24 C6_24 1_555 1_555
S1_53 C7_53 1_555 1_555
N11_24 C1_24 1_555 1_555
N12_24 C27_24 1_555 1_555
N13_15 C29_15 1_555 1_555
N14_15 C29_15 1_555 1_555
N15_15 C30_15 1_555 1_555
C27_24 N11_24 1_555 1_555
C28_24 N1_24 1_555 1_555
C29_15 C44_15 1_555 1_555
C30_15 N14_15 1_555 1_555
C31_15 N13_15 1_555 1_555
N16_24 C32_24 1_555 1_555
N17_24 C33_24 1_555 1_555
N19_15 C35_15 1_555 1_555
N20_15 C36_15 1_555 1_555
C32_24 H17_24 1_555 1_555
C33_24 H18_24 1_555 1_555
C34_15 N18_15 1_555 1_555
C35_15 H20_15 1_555 1_555
C36_15 H21_15 1_555 1_555
H19_15 C34_15 1_555 1_555
C37_24 C32_24 1_555 1_555
C38_24 C33_24 1_555 1_555
C39_15 C34_15 1_555 1_555
C40_15 C35_15 1_555 1_555
C41_15 C36_15 1_555 1_555
H22_24 C37_24 1_555 1_555
H23_24 C38_24 1_555 1_555
H24_15 C39_15 1_555 1_555
H25_15 C40_15 1_555 1_555
H26_15 C41_15 1_555 1_555
C42_24 C28_24 1_555 1_555
C43_24 C27_24 1_555 1_555
C44_15 C39_15 1_555 1_555
C45_15 C31_15 1_555 1_555
C46_15 C30_15 1_555 1_555
C47_24 C42_24 1_555 1_555
C48_24 C43_24 1_555 1_555
C49_15 C44_15 1_555 1_555
C50_15 C45_15 1_555 1_555
C51_15 C46_15 1_555 1_555
H27_24 C47_24 1_555 1_555
H28_24 C48_24 1_555 1_555
H29_15 C49_15 1_555 1_555
H30_15 C50_15 1_555 1_555
H31_15 C51_15 1_555 1_555
C52_24 N16_24 1_555 1_555
C53_24 N17_24 1_555 1_555
C54_15 N18_15 1_555 1_555
C55_15 N19_15 1_555 1_555
C56_15 N20_15 1_555 1_555
H32_24 C52_24 1_555 1_555
H33_24 C53_24 1_555 1_555
H34_15 C54_15 1_555 1_555
H35_15 C55_15 1_555 1_555
H36_15 C56_15 1_555 1_555
Co4_11 N17_24 1_555 1_555
Co5_11 N19_15 1_555 1_555
Co6_12 N20_15 1_555 1_555
S3_53 C57_53 1_555 1_555
C5_24 C6_24 1_555 1_555
N12_24 C28_24 1_555 1_555
N15_15 C31_15 1_555 1_555
C37_24 C42_24 1_555 1_555
C38_24 C43_24 1_555 1_555
C40_15 C45_15 1_555 1_555
C41_15 C46_15 1_555 1_555
C47_24 C52_24 1_555 1_555
C48_24 C53_24 1_555 1_555
C49_15 C54_15 1_555 1_555
C50_15 C55_15 1_555 1_555
C51_15 C56_15 1_555 1_555
N1_25 C1_25 1_555 1_555
C1_25 C4_25 1_555 1_555
N2_25 C2_25 1_555 1_555
C2_25 H1_25 1_555 1_555
C3_25 C2_25 1_555 1_555
H2_25 C3_25 1_555 1_555
C4_25 C3_25 1_555 1_555
C5_25 C4_25 1_555 1_555
H3_25 C5_25 1_555 1_555
C6_25 N2_25 1_555 1_555
H4_25 C6_25 1_555 1_555
Co6_11 N2_25 1_555 1_555
N3_54 Co6_11 1_555 1_555
C7_54 N3_54 1_555 1_555
S1_54 C7_54 1_555 1_555
N4_54 Co6_11 1_555 1_555
C8_54 N4_54 1_555 1_555
H5_54 C8_54 1_555 1_555
C9_54 C8_54 1_555 1_555
H6_54 C9_54 1_555 1_555
C10_54 C9_54 1_555 1_555
C11_54 C10_54 1_555 1_555
H7_54 C11_54 1_555 1_555
C12_54 N4_54 1_555 1_555
H8_54 C12_54 1_555 1_555
C13_54 N5_54 1_555 1_555
N5_54 C14_54 1_555 1_555
C14_54 C10_54 1_555 1_555
N6_54 C14_54 1_555 1_555
C15_54 N6_54 1_555 1_555
N7_54 C13_54 1_555 1_555
N29_15 C16_54 1_555 1_555
C16_54 H9_54 1_555 1_555
C17_54 C16_54 1_555 1_555
H10_54 C17_54 1_555 1_555
C18_54 C13_54 1_555 1_555
C19_54 C18_54 1_555 1_555
H11_54 C19_54 1_555 1_555
C20_54 N29_15 1_555 1_555
H12_54 C20_54 1_555 1_555
N31_19 C21_54 1_555 1_555
C21_54 H13_54 1_555 1_555
C22_54 C21_54 1_555 1_555
H14_54 C22_54 1_555 1_555
C23_54 C15_54 1_555 1_555
C24_54 C23_54 1_555 1_555
H15_54 C24_54 1_555 1_555
C25_54 N31_19 1_555 1_555
H16_54 C25_54 1_555 1_555
N11_25 C1_25 1_555 1_555
N12_25 C27_25 1_555 1_555
C27_25 N11_25 1_555 1_555
C28_25 N1_25 1_555 1_555
N16_25 C32_25 1_555 1_555
N17_25 C33_25 1_555 1_555
C32_25 H17_25 1_555 1_555
C33_25 H18_25 1_555 1_555
C37_25 C32_25 1_555 1_555
C38_25 C33_25 1_555 1_555
H22_25 C37_25 1_555 1_555
H23_25 C38_25 1_555 1_555
C42_25 C28_25 1_555 1_555
C43_25 C27_25 1_555 1_555
C47_25 C42_25 1_555 1_555
C48_25 C43_25 1_555 1_555
H27_25 C47_25 1_555 1_555
H28_25 C48_25 1_555 1_555
C52_25 N16_25 1_555 1_555
C53_25 N17_25 1_555 1_555
H32_25 C52_25 1_555 1_555
H33_25 C53_25 1_555 1_555
Co3_15 N16_25 1_555 1_555
Co3_14 N17_25 1_555 1_555
N21_54 Co6_11 1_555 1_555
C57_54 N21_54 1_555 1_555
S3_54 C57_54 1_555 1_555
N22_54 Co6_11 1_555 1_555
C58_54 N22_54 1_555 1_555
H37_54 C58_54 1_555 1_555
C59_54 C58_54 1_555 1_555
H38_54 C59_54 1_555 1_555
C60_54 C59_54 1_555 1_555
C61_54 C60_54 1_555 1_555
H39_54 C61_54 1_555 1_555
C62_54 N22_54 1_555 1_555
H40_54 C62_54 1_555 1_555
C63_54 N23_54 1_555 1_555
N23_54 C64_54 1_555 1_555
C64_54 C60_54 1_555 1_555
N24_54 C64_54 1_555 1_555
C65_54 N24_54 1_555 1_555
N25_54 C63_54 1_555 1_555
N28_18 C66_54 1_555 1_555
C66_54 H41_54 1_555 1_555
C67_54 C66_54 1_555 1_555
H42_54 C67_54 1_555 1_555
C68_54 C63_54 1_555 1_555
C69_54 C68_54 1_555 1_555
H43_54 C69_54 1_555 1_555
C70_54 N28_18 1_555 1_555
H44_54 C70_54 1_555 1_555
N32_12 C71_54 1_555 1_555
C71_54 H45_54 1_555 1_555
C72_54 C71_54 1_555 1_555
H46_54 C72_54 1_555 1_555
C73_54 C65_54 1_555 1_555
C74_54 C73_54 1_555 1_555
H47_54 C74_54 1_555 1_555
C75_54 N32_12 1_555 1_555
H48_54 C75_54 1_555 1_555
C5_25 C6_25 1_555 1_555
C11_54 C12_54 1_555 1_555
C15_54 N7_54 1_555 1_555
C17_54 C18_54 1_555 1_555
C19_54 C20_54 1_555 1_555
C22_54 C23_54 1_555 1_555
C24_54 C25_54 1_555 1_555
N12_25 C28_25 1_555 1_555
C37_25 C42_25 1_555 1_555
C38_25 C43_25 1_555 1_555
C47_25 C52_25 1_555 1_555
C48_25 C53_25 1_555 1_555
C61_54 C62_54 1_555 1_555
C65_54 N25_54 1_555 1_555
C67_54 C68_54 1_555 1_555
C69_54 C70_54 1_555 1_555
C72_54 C73_54 1_555 1_555
C74_54 C75_54 1_555 1_555
N1_26 C1_26 1_555 1_555
C1_26 C4_26 1_555 1_555
N2_26 C2_26 1_555 1_555
C2_26 H1_26 1_555 1_555
C3_26 C2_26 1_555 1_555
H2_26 C3_26 1_555 1_555
C4_26 C3_26 1_555 1_555
C5_26 C4_26 1_555 1_555
H3_26 C5_26 1_555 1_555
C6_26 N2_26 1_555 1_555
H4_26 C6_26 1_555 1_555
Co1_15 N2_26 1_555 1_555
N3_55 Co1_15 1_555 1_555
C7_55 N3_55 1_555 1_555
S1_55 C7_55 1_555 1_555
N4_55 Co1_15 1_555 1_555
C8_55 N4_55 1_555 1_555
H5_55 C8_55 1_555 1_555
C9_55 C8_55 1_555 1_555
H6_55 C9_55 1_555 1_555
C10_55 C9_55 1_555 1_555
C11_55 C10_55 1_555 1_555
H7_55 C11_55 1_555 1_555
C12_55 N4_55 1_555 1_555
H8_55 C12_55 1_555 1_555
C13_55 N5_55 1_555 1_555
N5_55 C14_55 1_555 1_555
C14_55 C10_55 1_555 1_555
N6_55 C14_55 1_555 1_555
C15_55 N6_55 1_555 1_555
N7_55 C13_55 1_555 1_555
N28_2 C16_55 1_555 1_555
C16_55 H9_55 1_555 1_555
C17_55 C16_55 1_555 1_555
H10_55 C17_55 1_555 1_555
C18_55 C13_55 1_555 1_555
C19_55 C18_55 1_555 1_555
H11_55 C19_55 1_555 1_555
C20_55 N28_2 1_555 1_555
H12_55 C20_55 1_555 1_555
N31_20 C21_55 1_555 1_555
C21_55 H13_55 1_555 1_555
C22_55 C21_55 1_555 1_555
H14_55 C22_55 1_555 1_555
C23_55 C15_55 1_555 1_555
C24_55 C23_55 1_555 1_555
H15_55 C24_55 1_555 1_555
C25_55 N31_20 1_555 1_555
H16_55 C25_55 1_555 1_555
N11_26 C1_26 1_555 1_555
N12_26 C27_26 1_555 1_555
N13_16 C29_16 1_555 1_555
N14_16 C29_16 1_555 1_555
N15_16 C30_16 1_555 1_555
C27_26 N11_26 1_555 1_555
C28_26 N1_26 1_555 1_555
C29_16 C44_16 1_555 1_555
C30_16 N14_16 1_555 1_555
C31_16 N13_16 1_555 1_555
N16_26 C32_26 1_555 1_555
N17_26 C33_26 1_555 1_555
N18_16 Co1_15 1_555 1_555
N19_16 C35_16 1_555 1_555
N20_16 C36_16 1_555 1_555
C32_26 H17_26 1_555 1_555
C33_26 H18_26 1_555 1_555
C34_16 N18_16 1_555 1_555
C35_16 H20_16 1_555 1_555
C36_16 H21_16 1_555 1_555
H19_16 C34_16 1_555 1_555
C37_26 C32_26 1_555 1_555
C38_26 C33_26 1_555 1_555
C39_16 C34_16 1_555 1_555
C40_16 C35_16 1_555 1_555
C41_16 C36_16 1_555 1_555
H22_26 C37_26 1_555 1_555
H23_26 C38_26 1_555 1_555
H24_16 C39_16 1_555 1_555
H25_16 C40_16 1_555 1_555
H26_16 C41_16 1_555 1_555
C42_26 C28_26 1_555 1_555
C43_26 C27_26 1_555 1_555
C44_16 C39_16 1_555 1_555
C45_16 C31_16 1_555 1_555
C46_16 C30_16 1_555 1_555
C47_26 C42_26 1_555 1_555
C48_26 C43_26 1_555 1_555
C49_16 C44_16 1_555 1_555
C50_16 C45_16 1_555 1_555
C51_16 C46_16 1_555 1_555
H27_26 C47_26 1_555 1_555
H28_26 C48_26 1_555 1_555
H29_16 C49_16 1_555 1_555
H30_16 C50_16 1_555 1_555
H31_16 C51_16 1_555 1_555
C52_26 N16_26 1_555 1_555
C53_26 N17_26 1_555 1_555
C54_16 N18_16 1_555 1_555
C55_16 N19_16 1_555 1_555
C56_16 N20_16 1_555 1_555
H32_26 C52_26 1_555 1_555
H33_26 C53_26 1_555 1_555
H34_16 C54_16 1_555 1_555
H35_16 C55_16 1_555 1_555
H36_16 C56_16 1_555 1_555
Co3_17 N16_26 1_555 1_555
Co4_12 N17_26 1_555 1_555
Co6_13 N20_16 1_555 1_555
N21_55 Co1_15 1_555 1_555
C57_55 N21_55 1_555 1_555
S3_55 C57_55 1_555 1_555
N22_55 Co1_15 1_555 1_555
C58_55 N22_55 1_555 1_555
H37_55 C58_55 1_555 1_555
C59_55 C58_55 1_555 1_555
H38_55 C59_55 1_555 1_555
C60_55 C59_55 1_555 1_555
C61_55 C60_55 1_555 1_555
H39_55 C61_55 1_555 1_555
C62_55 N22_55 1_555 1_555
H40_55 C62_55 1_555 1_555
C63_55 N23_55 1_555 1_555
N23_55 C64_55 1_555 1_555
C64_55 C60_55 1_555 1_555
N24_55 C64_55 1_555 1_555
C65_55 N24_55 1_555 1_555
N25_55 C63_55 1_555 1_555
N28_21 C66_55 1_555 1_555
C66_55 H41_55 1_555 1_555
C67_55 C66_55 1_555 1_555
H42_55 C67_55 1_555 1_555
C68_55 C63_55 1_555 1_555
C69_55 C68_55 1_555 1_555
H43_55 C69_55 1_555 1_555
C70_55 N28_21 1_555 1_555
H44_55 C70_55 1_555 1_555
N31_2 C71_55 1_555 1_555
C71_55 H45_55 1_555 1_555
C72_55 C71_55 1_555 1_555
H46_55 C72_55 1_555 1_555
C73_55 C65_55 1_555 1_555
C74_55 C73_55 1_555 1_555
H47_55 C74_55 1_555 1_555
C75_55 N31_2 1_555 1_555
H48_55 C75_55 1_555 1_555
C5_26 C6_26 1_555 1_555
C11_55 C12_55 1_555 1_555
C15_55 N7_55 1_555 1_555
C17_55 C18_55 1_555 1_555
C19_55 C20_55 1_555 1_555
C22_55 C23_55 1_555 1_555
C24_55 C25_55 1_555 1_555
N12_26 C28_26 1_555 1_555
N15_16 C31_16 1_555 1_555
C37_26 C42_26 1_555 1_555
C38_26 C43_26 1_555 1_555
C40_16 C45_16 1_555 1_555
C41_16 C46_16 1_555 1_555
C47_26 C52_26 1_555 1_555
C48_26 C53_26 1_555 1_555
C49_16 C54_16 1_555 1_555
C50_16 C55_16 1_555 1_555
C51_16 C56_16 1_555 1_555
C61_55 C62_55 1_555 1_555
C65_55 N25_55 1_555 1_555
C67_55 C68_55 1_555 1_555
C69_55 C70_55 1_555 1_555
C72_55 C73_55 1_555 1_555
C74_55 C75_55 1_555 1_555
N1_27 C1_27 1_555 1_555
C1_27 C4_27 1_555 1_555
N2_27 C2_27 1_555 1_555
C2_27 H1_27 1_555 1_555
C3_27 C2_27 1_555 1_555
H2_27 C3_27 1_555 1_555
C4_27 C3_27 1_555 1_555
C5_27 C4_27 1_555 1_555
H3_27 C5_27 1_555 1_555
C6_27 N2_27 1_555 1_555
H4_27 C6_27 1_555 1_555
Co1_16 N2_27 1_555 1_555
N3_56 Co1_16 1_555 1_555
C7_56 N3_56 1_555 1_555
S1_56 C7_56 1_555 1_555
N4_56 Co1_16 1_555 1_555
C8_56 N4_56 1_555 1_555
H5_56 C8_56 1_555 1_555
C9_56 C8_56 1_555 1_555
H6_56 C9_56 1_555 1_555
C10_56 C9_56 1_555 1_555
C11_56 C10_56 1_555 1_555
H7_56 C11_56 1_555 1_555
C12_56 N4_56 1_555 1_555
H8_56 C12_56 1_555 1_555
C13_56 N5_56 1_555 1_555
N5_56 C14_56 1_555 1_555
C14_56 C10_56 1_555 1_555
N6_56 C14_56 1_555 1_555
C15_56 N6_56 1_555 1_555
N7_56 C13_56 1_555 1_555
N28_20 C16_56 1_555 1_555
C16_56 H9_56 1_555 1_555
C17_56 C16_56 1_555 1_555
H10_56 C17_56 1_555 1_555
C18_56 C13_56 1_555 1_555
C19_56 C18_56 1_555 1_555
H11_56 C19_56 1_555 1_555
C20_56 N28_20 1_555 1_555
H12_56 C20_56 1_555 1_555
N32_16 C21_56 1_555 1_555
C21_56 H13_56 1_555 1_555
C22_56 C21_56 1_555 1_555
H14_56 C22_56 1_555 1_555
C23_56 C15_56 1_555 1_555
C24_56 C23_56 1_555 1_555
H15_56 C24_56 1_555 1_555
C25_56 N32_16 1_555 1_555
H16_56 C25_56 1_555 1_555
N11_27 C1_27 1_555 1_555
N12_27 C27_27 1_555 1_555
N13_17 C29_17 1_555 1_555
N14_17 C29_17 1_555 1_555
N15_17 C30_17 1_555 1_555
C27_27 N11_27 1_555 1_555
C28_27 N1_27 1_555 1_555
C29_17 C44_17 1_555 1_555
C30_17 N14_17 1_555 1_555
C31_17 N13_17 1_555 1_555
N16_27 C32_27 1_555 1_555
N17_27 C33_27 1_555 1_555
N18_17 Co1_16 1_555 1_555
N19_17 C35_17 1_555 1_555
N20_17 C36_17 1_555 1_555
C32_27 H17_27 1_555 1_555
C33_27 H18_27 1_555 1_555
C34_17 N18_17 1_555 1_555
C35_17 H20_17 1_555 1_555
C36_17 H21_17 1_555 1_555
H19_17 C34_17 1_555 1_555
C37_27 C32_27 1_555 1_555
C38_27 C33_27 1_555 1_555
C39_17 C34_17 1_555 1_555
C40_17 C35_17 1_555 1_555
C41_17 C36_17 1_555 1_555
H22_27 C37_27 1_555 1_555
H23_27 C38_27 1_555 1_555
H24_17 C39_17 1_555 1_555
H25_17 C40_17 1_555 1_555
H26_17 C41_17 1_555 1_555
C42_27 C28_27 1_555 1_555
C43_27 C27_27 1_555 1_555
C44_17 C39_17 1_555 1_555
C45_17 C31_17 1_555 1_555
C46_17 C30_17 1_555 1_555
C47_27 C42_27 1_555 1_555
C48_27 C43_27 1_555 1_555
C49_17 C44_17 1_555 1_555
C50_17 C45_17 1_555 1_555
C51_17 C46_17 1_555 1_555
H27_27 C47_27 1_555 1_555
H28_27 C48_27 1_555 1_555
H29_17 C49_17 1_555 1_555
H30_17 C50_17 1_555 1_555
H31_17 C51_17 1_555 1_555
C52_27 N16_27 1_555 1_555
C53_27 N17_27 1_555 1_555
C54_17 N18_17 1_555 1_555
C55_17 N19_17 1_555 1_555
C56_17 N20_17 1_555 1_555
H32_27 C52_27 1_555 1_555
H33_27 C53_27 1_555 1_555
H34_17 C54_17 1_555 1_555
H35_17 C55_17 1_555 1_555
H36_17 C56_17 1_555 1_555
Co4_13 N17_27 1_555 1_555
Co5_13 N19_17 1_555 1_555
Co6_14 N20_17 1_555 1_555
N21_56 Co1_16 1_555 1_555
C57_56 N21_56 1_555 1_555
S3_56 C57_56 1_555 1_555
N22_56 Co1_16 1_555 1_555
C58_56 N22_56 1_555 1_555
H37_56 C58_56 1_555 1_555
C59_56 C58_56 1_555 1_555
H38_56 C59_56 1_555 1_555
C60_56 C59_56 1_555 1_555
C61_56 C60_56 1_555 1_555
H39_56 C61_56 1_555 1_555
C62_56 N22_56 1_555 1_555
H40_56 C62_56 1_555 1_555
C63_56 N23_56 1_555 1_555
N23_56 C64_56 1_555 1_555
C64_56 C60_56 1_555 1_555
N24_56 C64_56 1_555 1_555
C65_56 N24_56 1_555 1_555
N25_56 C63_56 1_555 1_555
N29_17 C66_56 1_555 1_555
C66_56 H41_56 1_555 1_555
C67_56 C66_56 1_555 1_555
H42_56 C67_56 1_555 1_555
C68_56 C63_56 1_555 1_555
C69_56 C68_56 1_555 1_555
H43_56 C69_56 1_555 1_555
C70_56 N29_17 1_555 1_555
H44_56 C70_56 1_555 1_555
N32_7 C71_56 1_555 1_555
C71_56 H45_56 1_555 1_555
C72_56 C71_56 1_555 1_555
H46_56 C72_56 1_555 1_555
C73_56 C65_56 1_555 1_555
C74_56 C73_56 1_555 1_555
H47_56 C74_56 1_555 1_555
C75_56 N32_7 1_555 1_555
H48_56 C75_56 1_555 1_555
C5_27 C6_27 1_555 1_555
C11_56 C12_56 1_555 1_555
C15_56 N7_56 1_555 1_555
C17_56 C18_56 1_555 1_555
C19_56 C20_56 1_555 1_555
C22_56 C23_56 1_555 1_555
C24_56 C25_56 1_555 1_555
N12_27 C28_27 1_555 1_555
N15_17 C31_17 1_555 1_555
C37_27 C42_27 1_555 1_555
C38_27 C43_27 1_555 1_555
C40_17 C45_17 1_555 1_555
C41_17 C46_17 1_555 1_555
C47_27 C52_27 1_555 1_555
C48_27 C53_27 1_555 1_555
C49_17 C54_17 1_555 1_555
C50_17 C55_17 1_555 1_555
C51_17 C56_17 1_555 1_555
C61_56 C62_56 1_555 1_555
C65_56 N25_56 1_555 1_555
C67_56 C68_56 1_555 1_555
C69_56 C70_56 1_555 1_555
C72_56 C73_56 1_555 1_555
C74_56 C75_56 1_555 1_555
N3_57 Co1_17 1_555 1_555
N4_57 Co1_17 1_555 1_555
C8_57 N4_57 1_555 1_555
H5_57 C8_57 1_555 1_555
C9_57 C8_57 1_555 1_555
H6_57 C9_57 1_555 1_555
C10_57 C9_57 1_555 1_555
C11_57 C10_57 1_555 1_555
H7_57 C11_57 1_555 1_555
C12_57 N4_57 1_555 1_555
H8_57 C12_57 1_555 1_555
C13_57 N5_57 1_555 1_555
N5_57 C14_57 1_555 1_555
C14_57 C10_57 1_555 1_555
N6_57 C14_57 1_555 1_555
C15_57 N6_57 1_555 1_555
N7_57 C13_57 1_555 1_555
N29_41 C16_57 1_555 1_555
C16_57 H9_57 1_555 1_555
C17_57 C16_57 1_555 1_555
H10_57 C17_57 1_555 1_555
C18_57 C13_57 1_555 1_555
C19_57 C18_57 1_555 1_555
H11_57 C19_57 1_555 1_555
C20_57 N29_41 1_555 1_555
H12_57 C20_57 1_555 1_555
N32_29 C21_57 1_555 1_555
C21_57 H13_57 1_555 1_555
C22_57 C21_57 1_555 1_555
H14_57 C22_57 1_555 1_555
C23_57 C15_57 1_555 1_555
C24_57 C23_57 1_555 1_555
H15_57 C24_57 1_555 1_555
C25_57 N32_29 1_555 1_555
H16_57 C25_57 1_555 1_555
N21_57 Co1_17 1_555 1_555
N22_57 Co1_17 1_555 1_555
C58_57 N22_57 1_555 1_555
H37_57 C58_57 1_555 1_555
C59_57 C58_57 1_555 1_555
H38_57 C59_57 1_555 1_555
C60_57 C59_57 1_555 1_555
C61_57 C60_57 1_555 1_555
H39_57 C61_57 1_555 1_555
C62_57 N22_57 1_555 1_555
H40_57 C62_57 1_555 1_555
C63_57 N23_57 1_555 1_555
N23_57 C64_57 1_555 1_555
C64_57 C60_57 1_555 1_555
N24_57 C64_57 1_555 1_555
C65_57 N24_57 1_555 1_555
N25_57 C63_57 1_555 1_555
N28_44 C66_57 1_555 1_555
C66_57 H41_57 1_555 1_555
C67_57 C66_57 1_555 1_555
H42_57 C67_57 1_555 1_555
C68_57 C63_57 1_555 1_555
C69_57 C68_57 1_555 1_555
H43_57 C69_57 1_555 1_555
C70_57 N28_44 1_555 1_555
H44_57 C70_57 1_555 1_555
N31_47 C71_57 1_555 1_555
C71_57 H45_57 1_555 1_555
C72_57 C71_57 1_555 1_555
H46_57 C72_57 1_555 1_555
C73_57 C65_57 1_555 1_555
C74_57 C73_57 1_555 1_555
H47_57 C74_57 1_555 1_555
C75_57 N31_47 1_555 1_555
H48_57 C75_57 1_555 1_555
C11_57 C12_57 1_555 1_555
C15_57 N7_57 1_555 1_555
C17_57 C18_57 1_555 1_555
C19_57 C20_57 1_555 1_555
C22_57 C23_57 1_555 1_555
C24_57 C25_57 1_555 1_555
C61_57 C62_57 1_555 1_555
C65_57 N25_57 1_555 1_555
C67_57 C68_57 1_555 1_555
C69_57 C70_57 1_555 1_555
C72_57 C73_57 1_555 1_555
C74_57 C75_57 1_555 1_555
N1_28 C1_28 1_555 1_555
C1_28 C4_28 1_555 1_555
N2_28 C2_28 1_555 1_555
C2_28 H1_28 1_555 1_555
C3_28 C2_28 1_555 1_555
H2_28 C3_28 1_555 1_555
C4_28 C3_28 1_555 1_555
C5_28 C4_28 1_555 1_555
H3_28 C5_28 1_555 1_555
C6_28 N2_28 1_555 1_555
H4_28 C6_28 1_555 1_555
S1_57 C7_57 1_555 1_555
N11_28 C1_28 1_555 1_555
N12_28 C27_28 1_555 1_555
N13_18 C29_18 1_555 1_555
N14_18 C29_18 1_555 1_555
N15_18 C30_18 1_555 1_555
C27_28 N11_28 1_555 1_555
C28_28 N1_28 1_555 1_555
C29_18 C44_18 1_555 1_555
C30_18 N14_18 1_555 1_555
C31_18 N13_18 1_555 1_555
N16_28 C32_28 1_555 1_555
N17_28 C33_28 1_555 1_555
N19_18 C35_18 1_555 1_555
N20_18 C36_18 1_555 1_555
C32_28 H17_28 1_555 1_555
C33_28 H18_28 1_555 1_555
C34_18 N18_18 1_555 1_555
C35_18 H20_18 1_555 1_555
C36_18 H21_18 1_555 1_555
H19_18 C34_18 1_555 1_555
C37_28 C32_28 1_555 1_555
C38_28 C33_28 1_555 1_555
C39_18 C34_18 1_555 1_555
C40_18 C35_18 1_555 1_555
C41_18 C36_18 1_555 1_555
H22_28 C37_28 1_555 1_555
H23_28 C38_28 1_555 1_555
H24_18 C39_18 1_555 1_555
H25_18 C40_18 1_555 1_555
H26_18 C41_18 1_555 1_555
C42_28 C28_28 1_555 1_555
C43_28 C27_28 1_555 1_555
C44_18 C39_18 1_555 1_555
C45_18 C31_18 1_555 1_555
C46_18 C30_18 1_555 1_555
C47_28 C42_28 1_555 1_555
C48_28 C43_28 1_555 1_555
C49_18 C44_18 1_555 1_555
C50_18 C45_18 1_555 1_555
C51_18 C46_18 1_555 1_555
H27_28 C47_28 1_555 1_555
H28_28 C48_28 1_555 1_555
H29_18 C49_18 1_555 1_555
H30_18 C50_18 1_555 1_555
H31_18 C51_18 1_555 1_555
C52_28 N16_28 1_555 1_555
C53_28 N17_28 1_555 1_555
C54_18 N18_18 1_555 1_555
C55_18 N19_18 1_555 1_555
C56_18 N20_18 1_555 1_555
H32_28 C52_28 1_555 1_555
H33_28 C53_28 1_555 1_555
H34_18 C54_18 1_555 1_555
H35_18 C55_18 1_555 1_555
H36_18 C56_18 1_555 1_555
Co6_10 N17_28 1_555 1_555
Co5_9 N19_18 1_555 1_555
Co4_9 N20_18 1_555 1_555
S3_57 C57_57 1_555 1_555
C5_28 C6_28 1_555 1_555
N12_28 C28_28 1_555 1_555
N15_18 C31_18 1_555 1_555
C37_28 C42_28 1_555 1_555
C38_28 C43_28 1_555 1_555
C40_18 C45_18 1_555 1_555
C41_18 C46_18 1_555 1_555
C47_28 C52_28 1_555 1_555
C48_28 C53_28 1_555 1_555
C49_18 C54_18 1_555 1_555
C50_18 C55_18 1_555 1_555
C51_18 C56_18 1_555 1_555
N1_29 C1_29 1_555 1_555
C1_29 C4_29 1_555 1_555
N2_29 C2_29 1_555 1_555
C2_29 H1_29 1_555 1_555
C3_29 C2_29 1_555 1_555
H2_29 C3_29 1_555 1_555
C4_29 C3_29 1_555 1_555
C5_29 C4_29 1_555 1_555
H3_29 C5_29 1_555 1_555
C6_29 N2_29 1_555 1_555
H4_29 C6_29 1_555 1_555
Co1_18 N2_29 1_555 1_555
N3_58 Co1_18 1_555 1_555
C7_58 N3_58 1_555 1_555
S1_58 C7_58 1_555 1_555
N4_58 Co1_18 1_555 1_555
C8_58 N4_58 1_555 1_555
H5_58 C8_58 1_555 1_555
C9_58 C8_58 1_555 1_555
H6_58 C9_58 1_555 1_555
C10_58 C9_58 1_555 1_555
C11_58 C10_58 1_555 1_555
H7_58 C11_58 1_555 1_555
C12_58 N4_58 1_555 1_555
H8_58 C12_58 1_555 1_555
C13_58 N5_58 1_555 1_555
N5_58 C14_58 1_555 1_555
C14_58 C10_58 1_555 1_555
N6_58 C14_58 1_555 1_555
C15_58 N6_58 1_555 1_555
N7_58 C13_58 1_555 1_555
N29_44 C16_58 1_555 1_555
C16_58 H9_58 1_555 1_555
C17_58 C16_58 1_555 1_555
H10_58 C17_58 1_555 1_555
C18_58 C13_58 1_555 1_555
C19_58 C18_58 1_555 1_555
H11_58 C19_58 1_555 1_555
C20_58 N29_44 1_555 1_555
H12_58 C20_58 1_555 1_555
N32_33 C21_58 1_555 1_555
C21_58 H13_58 1_555 1_555
C22_58 C21_58 1_555 1_555
H14_58 C22_58 1_555 1_555
C23_58 C15_58 1_555 1_555
C24_58 C23_58 1_555 1_555
H15_58 C24_58 1_555 1_555
C25_58 N32_33 1_555 1_555
H16_58 C25_58 1_555 1_555
N11_29 C1_29 1_555 1_555
N12_29 C27_29 1_555 1_555
N13_19 C29_19 1_555 1_555
N14_19 C29_19 1_555 1_555
N15_19 C30_19 1_555 1_555
C27_29 N11_29 1_555 1_555
C28_29 N1_29 1_555 1_555
C29_19 C44_19 1_555 1_555
C30_19 N14_19 1_555 1_555
C31_19 N13_19 1_555 1_555
N16_29 C32_29 1_555 1_555
N17_29 C33_29 1_555 1_555
N18_19 Co1_18 1_555 1_555
N19_19 C35_19 1_555 1_555
N20_19 C36_19 1_555 1_555
C32_29 H17_29 1_555 1_555
C33_29 H18_29 1_555 1_555
C34_19 N18_19 1_555 1_555
C35_19 H20_19 1_555 1_555
C36_19 H21_19 1_555 1_555
H19_19 C34_19 1_555 1_555
C37_29 C32_29 1_555 1_555
C38_29 C33_29 1_555 1_555
C39_19 C34_19 1_555 1_555
C40_19 C35_19 1_555 1_555
C41_19 C36_19 1_555 1_555
H22_29 C37_29 1_555 1_555
H23_29 C38_29 1_555 1_555
H24_19 C39_19 1_555 1_555
H25_19 C40_19 1_555 1_555
H26_19 C41_19 1_555 1_555
C42_29 C28_29 1_555 1_555
C43_29 C27_29 1_555 1_555
C44_19 C39_19 1_555 1_555
C45_19 C31_19 1_555 1_555
C46_19 C30_19 1_555 1_555
C47_29 C42_29 1_555 1_555
C48_29 C43_29 1_555 1_555
C49_19 C44_19 1_555 1_555
C50_19 C45_19 1_555 1_555
C51_19 C46_19 1_555 1_555
H27_29 C47_29 1_555 1_555
H28_29 C48_29 1_555 1_555
H29_19 C49_19 1_555 1_555
H30_19 C50_19 1_555 1_555
H31_19 C51_19 1_555 1_555
C52_29 N16_29 1_555 1_555
C53_29 N17_29 1_555 1_555
C54_19 N18_19 1_555 1_555
C55_19 N19_19 1_555 1_555
C56_19 N20_19 1_555 1_555
H32_29 C52_29 1_555 1_555
H33_29 C53_29 1_555 1_555
H34_19 C54_19 1_555 1_555
H35_19 C55_19 1_555 1_555
H36_19 C56_19 1_555 1_555
Co6_14 N17_29 1_555 1_555
Co5_13 N19_19 1_555 1_555
Co4_13 N20_19 1_555 1_555
N21_58 Co1_18 1_555 1_555
C57_58 N21_58 1_555 1_555
S3_58 C57_58 1_555 1_555
N22_58 Co1_18 1_555 1_555
C58_58 N22_58 1_555 1_555
H37_58 C58_58 1_555 1_555
C59_58 C58_58 1_555 1_555
H38_58 C59_58 1_555 1_555
C60_58 C59_58 1_555 1_555
C61_58 C60_58 1_555 1_555
H39_58 C61_58 1_555 1_555
C62_58 N22_58 1_555 1_555
H40_58 C62_58 1_555 1_555
C63_58 N23_58 1_555 1_555
N23_58 C64_58 1_555 1_555
C64_58 C60_58 1_555 1_555
N24_58 C64_58 1_555 1_555
C65_58 N24_58 1_555 1_555
N25_58 C63_58 1_555 1_555
N29_38 C66_58 1_555 1_555
C66_58 H41_58 1_555 1_555
C67_58 C66_58 1_555 1_555
H42_58 C67_58 1_555 1_555
C68_58 C63_58 1_555 1_555
C69_58 C68_58 1_555 1_555
H43_58 C69_58 1_555 1_555
C70_58 N29_38 1_555 1_555
H44_58 C70_58 1_555 1_555
N31_46 C71_58 1_555 1_555
C71_58 H45_58 1_555 1_555
C72_58 C71_58 1_555 1_555
H46_58 C72_58 1_555 1_555
C73_58 C65_58 1_555 1_555
C74_58 C73_58 1_555 1_555
H47_58 C74_58 1_555 1_555
C75_58 N31_46 1_555 1_555
H48_58 C75_58 1_555 1_555
C5_29 C6_29 1_555 1_555
C11_58 C12_58 1_555 1_555
C15_58 N7_58 1_555 1_555
C17_58 C18_58 1_555 1_555
C19_58 C20_58 1_555 1_555
C22_58 C23_58 1_555 1_555
C24_58 C25_58 1_555 1_555
N12_29 C28_29 1_555 1_555
N15_19 C31_19 1_555 1_555
C37_29 C42_29 1_555 1_555
C38_29 C43_29 1_555 1_555
C40_19 C45_19 1_555 1_555
C41_19 C46_19 1_555 1_555
C47_29 C52_29 1_555 1_555
C48_29 C53_29 1_555 1_555
C49_19 C54_19 1_555 1_555
C50_19 C55_19 1_555 1_555
C51_19 C56_19 1_555 1_555
C61_58 C62_58 1_555 1_555
C65_58 N25_58 1_555 1_555
C67_58 C68_58 1_555 1_555
C69_58 C70_58 1_555 1_555
C72_58 C73_58 1_555 1_555
C74_58 C75_58 1_555 1_555
N3_59 Co5_13 1_555 1_555
C7_59 N3_59 1_555 1_555
S1_59 C7_59 1_555 1_555
N4_59 Co5_13 1_555 1_555
C8_59 N4_59 1_555 1_555
H5_59 C8_59 1_555 1_555
C9_59 C8_59 1_555 1_555
H6_59 C9_59 1_555 1_555
C10_59 C9_59 1_555 1_555
C11_59 C10_59 1_555 1_555
H7_59 C11_59 1_555 1_555
C12_59 N4_59 1_555 1_555
H8_59 C12_59 1_555 1_555
C13_59 N5_59 1_555 1_555
N5_59 C14_59 1_555 1_555
C14_59 C10_59 1_555 1_555
N6_59 C14_59 1_555 1_555
C15_59 N6_59 1_555 1_555
N7_59 C13_59 1_555 1_555
N28_43 C16_59 1_555 1_555
C16_59 H9_59 1_555 1_555
C17_59 C16_59 1_555 1_555
H10_59 C17_59 1_555 1_555
C18_59 C13_59 1_555 1_555
C19_59 C18_59 1_555 1_555
H11_59 C19_59 1_555 1_555
C20_59 N28_43 1_555 1_555
H12_59 C20_59 1_555 1_555
N31_32 C21_59 1_555 1_555
C21_59 H13_59 1_555 1_555
C22_59 C21_59 1_555 1_555
H14_59 C22_59 1_555 1_555
C23_59 C15_59 1_555 1_555
C24_59 C23_59 1_555 1_555
H15_59 C24_59 1_555 1_555
C25_59 N31_32 1_555 1_555
H16_59 C25_59 1_555 1_555
N21_59 Co5_13 1_555 1_555
C57_59 N21_59 1_555 1_555
S3_59 C57_59 1_555 1_555
N22_59 Co5_13 1_555 1_555
C58_59 N22_59 1_555 1_555
H37_59 C58_59 1_555 1_555
C59_59 C58_59 1_555 1_555
H38_59 C59_59 1_555 1_555
C60_59 C59_59 1_555 1_555
C61_59 C60_59 1_555 1_555
H39_59 C61_59 1_555 1_555
C62_59 N22_59 1_555 1_555
H40_59 C62_59 1_555 1_555
C63_59 N23_59 1_555 1_555
N23_59 C64_59 1_555 1_555
C64_59 C60_59 1_555 1_555
N24_59 C64_59 1_555 1_555
C65_59 N24_59 1_555 1_555
N25_59 C63_59 1_555 1_555
N29_27 C66_59 1_555 1_555
C66_59 H41_59 1_555 1_555
C67_59 C66_59 1_555 1_555
H42_59 C67_59 1_555 1_555
C68_59 C63_59 1_555 1_555
C69_59 C68_59 1_555 1_555
H43_59 C69_59 1_555 1_555
C70_59 N29_27 1_555 1_555
H44_59 C70_59 1_555 1_555
N32_20 C71_59 1_555 1_555
C71_59 H45_59 1_555 1_555
C72_59 C71_59 1_555 1_555
H46_59 C72_59 1_555 1_555
C73_59 C65_59 1_555 1_555
C74_59 C73_59 1_555 1_555
H47_59 C74_59 1_555 1_555
C75_59 N32_20 1_555 1_555
H48_59 C75_59 1_555 1_555
C11_59 C12_59 1_555 1_555
C15_59 N7_59 1_555 1_555
C17_59 C18_59 1_555 1_555
C19_59 C20_59 1_555 1_555
C22_59 C23_59 1_555 1_555
C24_59 C25_59 1_555 1_555
C61_59 C62_59 1_555 1_555
C65_59 N25_59 1_555 1_555
C67_59 C68_59 1_555 1_555
C69_59 C70_59 1_555 1_555
C72_59 C73_59 1_555 1_555
C74_59 C75_59 1_555 1_555
N1_30 C1_30 1_555 1_555
C1_30 C4_30 1_555 1_555
N2_30 C2_30 1_555 1_555
C2_30 H1_30 1_555 1_555
C3_30 C2_30 1_555 1_555
H2_30 C3_30 1_555 1_555
C4_30 C3_30 1_555 1_555
C5_30 C4_30 1_555 1_555
H3_30 C5_30 1_555 1_555
C6_30 N2_30 1_555 1_555
H4_30 C6_30 1_555 1_555
Co4_12 N2_30 1_555 1_555
N3_60 Co4_12 1_555 1_555
C7_60 N3_60 1_555 1_555
S1_60 C7_60 1_555 1_555
N4_60 Co4_12 1_555 1_555
C8_60 N4_60 1_555 1_555
H5_60 C8_60 1_555 1_555
C9_60 C8_60 1_555 1_555
H6_60 C9_60 1_555 1_555
C10_60 C9_60 1_555 1_555
C11_60 C10_60 1_555 1_555
H7_60 C11_60 1_555 1_555
C12_60 N4_60 1_555 1_555
H8_60 C12_60 1_555 1_555
C13_60 N5_60 1_555 1_555
N5_60 C14_60 1_555 1_555
C14_60 C10_60 1_555 1_555
N6_60 C14_60 1_555 1_555
C15_60 N6_60 1_555 1_555
N7_60 C13_60 1_555 1_555
N28_39 C16_60 1_555 1_555
C16_60 H9_60 1_555 1_555
C17_60 C16_60 1_555 1_555
H10_60 C17_60 1_555 1_555
C18_60 C13_60 1_555 1_555
C19_60 C18_60 1_555 1_555
H11_60 C19_60 1_555 1_555
C20_60 N28_39 1_555 1_555
H12_60 C20_60 1_555 1_555
N31_31 C21_60 1_555 1_555
C21_60 H13_60 1_555 1_555
C22_60 C21_60 1_555 1_555
H14_60 C22_60 1_555 1_555
C23_60 C15_60 1_555 1_555
C24_60 C23_60 1_555 1_555
H15_60 C24_60 1_555 1_555
C25_60 N31_31 1_555 1_555
H16_60 C25_60 1_555 1_555
N11_30 C1_30 1_555 1_555
N12_30 C27_30 1_555 1_555
C27_30 N11_30 1_555 1_555
C28_30 N1_30 1_555 1_555
N16_30 C32_30 1_555 1_555
N17_30 C33_30 1_555 1_555
C32_30 H17_30 1_555 1_555
C33_30 H18_30 1_555 1_555
C37_30 C32_30 1_555 1_555
C38_30 C33_30 1_555 1_555
H22_30 C37_30 1_555 1_555
H23_30 C38_30 1_555 1_555
C42_30 C28_30 1_555 1_555
C43_30 C27_30 1_555 1_555
C47_30 C42_30 1_555 1_555
C48_30 C43_30 1_555 1_555
H27_30 C47_30 1_555 1_555
H28_30 C48_30 1_555 1_555
C52_30 N16_30 1_555 1_555
C53_30 N17_30 1_555 1_555
H32_30 C52_30 1_555 1_555
H33_30 C53_30 1_555 1_555
N21_60 Co4_12 1_555 1_555
C57_60 N21_60 1_555 1_555
S3_60 C57_60 1_555 1_555
N22_60 Co4_12 1_555 1_555
C58_60 N22_60 1_555 1_555
H37_60 C58_60 1_555 1_555
C59_60 C58_60 1_555 1_555
H38_60 C59_60 1_555 1_555
C60_60 C59_60 1_555 1_555
C61_60 C60_60 1_555 1_555
H39_60 C61_60 1_555 1_555
C62_60 N22_60 1_555 1_555
H40_60 C62_60 1_555 1_555
C63_60 N23_60 1_555 1_555
N23_60 C64_60 1_555 1_555
C64_60 C60_60 1_555 1_555
N24_60 C64_60 1_555 1_555
C65_60 N24_60 1_555 1_555
N25_60 C63_60 1_555 1_555
N28_38 C66_60 1_555 1_555
C66_60 H41_60 1_555 1_555
C67_60 C66_60 1_555 1_555
H42_60 C67_60 1_555 1_555
C68_60 C63_60 1_555 1_555
C69_60 C68_60 1_555 1_555
H43_60 C69_60 1_555 1_555
C70_60 N28_38 1_555 1_555
H44_60 C70_60 1_555 1_555
N32_6 C71_60 1_555 1_555
C71_60 H45_60 1_555 1_555
C72_60 C71_60 1_555 1_555
H46_60 C72_60 1_555 1_555
C73_60 C65_60 1_555 1_555
C74_60 C73_60 1_555 1_555
H47_60 C74_60 1_555 1_555
C75_60 N32_6 1_555 1_555
H48_60 C75_60 1_555 1_555
C5_30 C6_30 1_555 1_555
C11_60 C12_60 1_555 1_555
C15_60 N7_60 1_555 1_555
C17_60 C18_60 1_555 1_555
C19_60 C20_60 1_555 1_555
C22_60 C23_60 1_555 1_555
C24_60 C25_60 1_555 1_555
N12_30 C28_30 1_555 1_555
C37_30 C42_30 1_555 1_555
C38_30 C43_30 1_555 1_555
C47_30 C52_30 1_555 1_555
C48_30 C53_30 1_555 1_555
C61_60 C62_60 1_555 1_555
C65_60 N25_60 1_555 1_555
C67_60 C68_60 1_555 1_555
C69_60 C70_60 1_555 1_555
C72_60 C73_60 1_555 1_555
C74_60 C75_60 1_555 1_555
N3_61 Co6_14 1_555 1_555
C7_61 N3_61 1_555 1_555
S1_61 C7_61 1_555 1_555
N4_61 Co6_14 1_555 1_555
C8_61 N4_61 1_555 1_555
H5_61 C8_61 1_555 1_555
C9_61 C8_61 1_555 1_555
H6_61 C9_61 1_555 1_555
C10_61 C9_61 1_555 1_555
C11_61 C10_61 1_555 1_555
H7_61 C11_61 1_555 1_555
C12_61 N4_61 1_555 1_555
H8_61 C12_61 1_555 1_555
C13_61 N5_61 1_555 1_555
N5_61 C14_61 1_555 1_555
C14_61 C10_61 1_555 1_555
N6_61 C14_61 1_555 1_555
C15_61 N6_61 1_555 1_555
N7_61 C13_61 1_555 1_555
N29_9 C16_61 1_555 1_555
C16_61 H9_61 1_555 1_555
C17_61 C16_61 1_555 1_555
H10_61 C17_61 1_555 1_555
C18_61 C13_61 1_555 1_555
C19_61 C18_61 1_555 1_555
H11_61 C19_61 1_555 1_555
C20_61 N29_9 1_555 1_555
H12_61 C20_61 1_555 1_555
N32_47 C21_61 1_555 1_555
C21_61 H13_61 1_555 1_555
C22_61 C21_61 1_555 1_555
H14_61 C22_61 1_555 1_555
C23_61 C15_61 1_555 1_555
C24_61 C23_61 1_555 1_555
H15_61 C24_61 1_555 1_555
C25_61 N32_47 1_555 1_555
H16_61 C25_61 1_555 1_555
N21_61 Co6_14 1_555 1_555
C57_61 N21_61 1_555 1_555
S3_61 C57_61 1_555 1_555
N22_61 Co6_14 1_555 1_555
C58_61 N22_61 1_555 1_555
H37_61 C58_61 1_555 1_555
C59_61 C58_61 1_555 1_555
H38_61 C59_61 1_555 1_555
C60_61 C59_61 1_555 1_555
C61_61 C60_61 1_555 1_555
H39_61 C61_61 1_555 1_555
C62_61 N22_61 1_555 1_555
H40_61 C62_61 1_555 1_555
C63_61 N23_61 1_555 1_555
N23_61 C64_61 1_555 1_555
C64_61 C60_61 1_555 1_555
N24_61 C64_61 1_555 1_555
C65_61 N24_61 1_555 1_555
N25_61 C63_61 1_555 1_555
N28_48 C66_61 1_555 1_555
C66_61 H41_61 1_555 1_555
C67_61 C66_61 1_555 1_555
H42_61 C67_61 1_555 1_555
C68_61 C63_61 1_555 1_555
C69_61 C68_61 1_555 1_555
H43_61 C69_61 1_555 1_555
C70_61 N28_48 1_555 1_555
H44_61 C70_61 1_555 1_555
N32_17 C71_61 1_555 1_555
C71_61 H45_61 1_555 1_555
C72_61 C71_61 1_555 1_555
H46_61 C72_61 1_555 1_555
C73_61 C65_61 1_555 1_555
C74_61 C73_61 1_555 1_555
H47_61 C74_61 1_555 1_555
C75_61 N32_17 1_555 1_555
H48_61 C75_61 1_555 1_555
C11_61 C12_61 1_555 1_555
C15_61 N7_61 1_555 1_555
C17_61 C18_61 1_555 1_555
C19_61 C20_61 1_555 1_555
C22_61 C23_61 1_555 1_555
C24_61 C25_61 1_555 1_555
C61_61 C62_61 1_555 1_555
C65_61 N25_61 1_555 1_555
C67_61 C68_61 1_555 1_555
C69_61 C70_61 1_555 1_555
C72_61 C73_61 1_555 1_555
C74_61 C75_61 1_555 1_555
S1_62 C7_62 1_555 1_555
S3_62 C57_62 1_555 1_555
N3_62 Co3_18 1_555 1_555
N4_62 Co3_18 1_555 1_555
C8_62 N4_62 1_555 1_555
H5_62 C8_62 1_555 1_555
C9_62 C8_62 1_555 1_555
H6_62 C9_62 1_555 1_555
C10_62 C9_62 1_555 1_555
C11_62 C10_62 1_555 1_555
H7_62 C11_62 1_555 1_555
C12_62 N4_62 1_555 1_555
H8_62 C12_62 1_555 1_555
C13_62 N5_62 1_555 1_555
N5_62 C14_62 1_555 1_555
C14_62 C10_62 1_555 1_555
N6_62 C14_62 1_555 1_555
C15_62 N6_62 1_555 1_555
N7_62 C13_62 1_555 1_555
N28_36 C16_62 1_555 1_555
C16_62 H9_62 1_555 1_555
C17_62 C16_62 1_555 1_555
H10_62 C17_62 1_555 1_555
C18_62 C13_62 1_555 1_555
C19_62 C18_62 1_555 1_555
H11_62 C19_62 1_555 1_555
C20_62 N28_36 1_555 1_555
H12_62 C20_62 1_555 1_555
N31_43 C21_62 1_555 1_555
C21_62 H13_62 1_555 1_555
C22_62 C21_62 1_555 1_555
H14_62 C22_62 1_555 1_555
C23_62 C15_62 1_555 1_555
C24_62 C23_62 1_555 1_555
H15_62 C24_62 1_555 1_555
C25_62 N31_43 1_555 1_555
H16_62 C25_62 1_555 1_555
N21_62 Co3_18 1_555 1_555
N22_62 Co3_18 1_555 1_555
C58_62 N22_62 1_555 1_555
H37_62 C58_62 1_555 1_555
C59_62 C58_62 1_555 1_555
H38_62 C59_62 1_555 1_555
C60_62 C59_62 1_555 1_555
C61_62 C60_62 1_555 1_555
H39_62 C61_62 1_555 1_555
C62_62 N22_62 1_555 1_555
H40_62 C62_62 1_555 1_555
C63_62 N23_62 1_555 1_555
N23_62 C64_62 1_555 1_555
C64_62 C60_62 1_555 1_555
N24_62 C64_62 1_555 1_555
C65_62 N24_62 1_555 1_555
N25_62 C63_62 1_555 1_555
N29_40 C66_62 1_555 1_555
C66_62 H41_62 1_555 1_555
C67_62 C66_62 1_555 1_555
H42_62 C67_62 1_555 1_555
C68_62 C63_62 1_555 1_555
C69_62 C68_62 1_555 1_555
H43_62 C69_62 1_555 1_555
C70_62 N29_40 1_555 1_555
H44_62 C70_62 1_555 1_555
N32_15 C71_62 1_555 1_555
C71_62 H45_62 1_555 1_555
C72_62 C71_62 1_555 1_555
H46_62 C72_62 1_555 1_555
C73_62 C65_62 1_555 1_555
C74_62 C73_62 1_555 1_555
H47_62 C74_62 1_555 1_555
C75_62 N32_15 1_555 1_555
H48_62 C75_62 1_555 1_555
C11_62 C12_62 1_555 1_555
C15_62 N7_62 1_555 1_555
C17_62 C18_62 1_555 1_555
C19_62 C20_62 1_555 1_555
C22_62 C23_62 1_555 1_555
C24_62 C25_62 1_555 1_555
C61_62 C62_62 1_555 1_555
C65_62 N25_62 1_555 1_555
C67_62 C68_62 1_555 1_555
C69_62 C70_62 1_555 1_555
C72_62 C73_62 1_555 1_555
C74_62 C75_62 1_555 1_555
N1_31 C1_31 1_555 1_555
C1_31 C4_31 1_555 1_555
N2_31 C2_31 1_555 1_555
C2_31 H1_31 1_555 1_555
C3_31 C2_31 1_555 1_555
H2_31 C3_31 1_555 1_555
C4_31 C3_31 1_555 1_555
C5_31 C4_31 1_555 1_555
H3_31 C5_31 1_555 1_555
C6_31 N2_31 1_555 1_555
H4_31 C6_31 1_555 1_555
Co1_19 N2_31 1_555 1_555
N3_63 Co1_19 1_555 1_555
C7_63 N3_63 1_555 1_555
S1_63 C7_63 1_555 1_555
N4_63 Co1_19 1_555 1_555
C8_63 N4_63 1_555 1_555
H5_63 C8_63 1_555 1_555
C9_63 C8_63 1_555 1_555
H6_63 C9_63 1_555 1_555
C10_63 C9_63 1_555 1_555
C11_63 C10_63 1_555 1_555
H7_63 C11_63 1_555 1_555
C12_63 N4_63 1_555 1_555
H8_63 C12_63 1_555 1_555
C13_63 N5_63 1_555 1_555
N5_63 C14_63 1_555 1_555
C14_63 C10_63 1_555 1_555
N6_63 C14_63 1_555 1_555
C15_63 N6_63 1_555 1_555
N7_63 C13_63 1_555 1_555
N28_7 C16_63 1_555 1_555
C16_63 H9_63 1_555 1_555
C17_63 C16_63 1_555 1_555
H10_63 C17_63 1_555 1_555
C18_63 C13_63 1_555 1_555
C19_63 C18_63 1_555 1_555
H11_63 C19_63 1_555 1_555
C20_63 N28_7 1_555 1_555
H12_63 C20_63 1_555 1_555
N32_34 C21_63 1_555 1_555
C21_63 H13_63 1_555 1_555
C22_63 C21_63 1_555 1_555
H14_63 C22_63 1_555 1_555
C23_63 C15_63 1_555 1_555
C24_63 C23_63 1_555 1_555
H15_63 C24_63 1_555 1_555
C25_63 N32_34 1_555 1_555
H16_63 C25_63 1_555 1_555
N11_31 C1_31 1_555 1_555
N12_31 C27_31 1_555 1_555
N13_20 C29_20 1_555 1_555
N14_20 C29_20 1_555 1_555
N15_20 C30_20 1_555 1_555
C27_31 N11_31 1_555 1_555
C28_31 N1_31 1_555 1_555
C29_20 C44_20 1_555 1_555
C30_20 N14_20 1_555 1_555
C31_20 N13_20 1_555 1_555
N16_31 C32_31 1_555 1_555
N17_31 C33_31 1_555 1_555
N18_20 Co1_19 1_555 1_555
N19_20 C35_20 1_555 1_555
N20_20 C36_20 1_555 1_555
C32_31 H17_31 1_555 1_555
C33_31 H18_31 1_555 1_555
C34_20 N18_20 1_555 1_555
C35_20 H20_20 1_555 1_555
C36_20 H21_20 1_555 1_555
H19_20 C34_20 1_555 1_555
C37_31 C32_31 1_555 1_555
C38_31 C33_31 1_555 1_555
C39_20 C34_20 1_555 1_555
C40_20 C35_20 1_555 1_555
C41_20 C36_20 1_555 1_555
H22_31 C37_31 1_555 1_555
H23_31 C38_31 1_555 1_555
H24_20 C39_20 1_555 1_555
H25_20 C40_20 1_555 1_555
H26_20 C41_20 1_555 1_555
C42_31 C28_31 1_555 1_555
C43_31 C27_31 1_555 1_555
C44_20 C39_20 1_555 1_555
C45_20 C31_20 1_555 1_555
C46_20 C30_20 1_555 1_555
C47_31 C42_31 1_555 1_555
C48_31 C43_31 1_555 1_555
C49_20 C44_20 1_555 1_555
C50_20 C45_20 1_555 1_555
C51_20 C46_20 1_555 1_555
H27_31 C47_31 1_555 1_555
H28_31 C48_31 1_555 1_555
H29_20 C49_20 1_555 1_555
H30_20 C50_20 1_555 1_555
H31_20 C51_20 1_555 1_555
C52_31 N16_31 1_555 1_555
C53_31 N17_31 1_555 1_555
C54_20 N18_20 1_555 1_555
C55_20 N19_20 1_555 1_555
C56_20 N20_20 1_555 1_555
H32_31 C52_31 1_555 1_555
H33_31 C53_31 1_555 1_555
H34_20 C54_20 1_555 1_555
H35_20 C55_20 1_555 1_555
H36_20 C56_20 1_555 1_555
Co3_20 N16_31 1_555 1_555
Co4_14 N17_31 1_555 1_555
Co5_14 N19_20 1_555 1_555
Co6_15 N20_20 1_555 1_555
N21_63 Co1_19 1_555 1_555
C57_63 N21_63 1_555 1_555
S3_63 C57_63 1_555 1_555
N22_63 Co1_19 1_555 1_555
C58_63 N22_63 1_555 1_555
H37_63 C58_63 1_555 1_555
C59_63 C58_63 1_555 1_555
H38_63 C59_63 1_555 1_555
C60_63 C59_63 1_555 1_555
C61_63 C60_63 1_555 1_555
H39_63 C61_63 1_555 1_555
C62_63 N22_63 1_555 1_555
H40_63 C62_63 1_555 1_555
C63_63 N23_63 1_555 1_555
N23_63 C64_63 1_555 1_555
C64_63 C60_63 1_555 1_555
N24_63 C64_63 1_555 1_555
C65_63 N24_63 1_555 1_555
N25_63 C63_63 1_555 1_555
N29_43 C66_63 1_555 1_555
C66_63 H41_63 1_555 1_555
C67_63 C66_63 1_555 1_555
H42_63 C67_63 1_555 1_555
C68_63 C63_63 1_555 1_555
C69_63 C68_63 1_555 1_555
H43_63 C69_63 1_555 1_555
C70_63 N29_43 1_555 1_555
H44_63 C70_63 1_555 1_555
N31_7 C71_63 1_555 1_555
C71_63 H45_63 1_555 1_555
C72_63 C71_63 1_555 1_555
H46_63 C72_63 1_555 1_555
C73_63 C65_63 1_555 1_555
C74_63 C73_63 1_555 1_555
H47_63 C74_63 1_555 1_555
C75_63 N31_7 1_555 1_555
H48_63 C75_63 1_555 1_555
C5_31 C6_31 1_555 1_555
C11_63 C12_63 1_555 1_555
C15_63 N7_63 1_555 1_555
C17_63 C18_63 1_555 1_555
C19_63 C20_63 1_555 1_555
C22_63 C23_63 1_555 1_555
C24_63 C25_63 1_555 1_555
N12_31 C28_31 1_555 1_555
N15_20 C31_20 1_555 1_555
C37_31 C42_31 1_555 1_555
C38_31 C43_31 1_555 1_555
C40_20 C45_20 1_555 1_555
C41_20 C46_20 1_555 1_555
C47_31 C52_31 1_555 1_555
C48_31 C53_31 1_555 1_555
C49_20 C54_20 1_555 1_555
C50_20 C55_20 1_555 1_555
C51_20 C56_20 1_555 1_555
C61_63 C62_63 1_555 1_555
C65_63 N25_63 1_555 1_555
C67_63 C68_63 1_555 1_555
C69_63 C70_63 1_555 1_555
C72_63 C73_63 1_555 1_555
C74_63 C75_63 1_555 1_555
N3_64 Co4_13 1_555 1_555
C7_64 N3_64 1_555 1_555
S1_64 C7_64 1_555 1_555
N4_64 Co4_13 1_555 1_555
C8_64 N4_64 1_555 1_555
H5_64 C8_64 1_555 1_555
C9_64 C8_64 1_555 1_555
H6_64 C9_64 1_555 1_555
C10_64 C9_64 1_555 1_555
C11_64 C10_64 1_555 1_555
H7_64 C11_64 1_555 1_555
C12_64 N4_64 1_555 1_555
H8_64 C12_64 1_555 1_555
C13_64 N5_64 1_555 1_555
N5_64 C14_64 1_555 1_555
C14_64 C10_64 1_555 1_555
N6_64 C14_64 1_555 1_555
C15_64 N6_64 1_555 1_555
N7_64 C13_64 1_555 1_555
N29_2 C16_64 1_555 1_555
C16_64 H9_64 1_555 1_555
C17_64 C16_64 1_555 1_555
H10_64 C17_64 1_555 1_555
C18_64 C13_64 1_555 1_555
C19_64 C18_64 1_555 1_555
H11_64 C19_64 1_555 1_555
C20_64 N29_2 1_555 1_555
H12_64 C20_64 1_555 1_555
N31_6 C21_64 1_555 1_555
C21_64 H13_64 1_555 1_555
C22_64 C21_64 1_555 1_555
H14_64 C22_64 1_555 1_555
C23_64 C15_64 1_555 1_555
C24_64 C23_64 1_555 1_555
H15_64 C24_64 1_555 1_555
C25_64 N31_6 1_555 1_555
H16_64 C25_64 1_555 1_555
N21_64 Co4_13 1_555 1_555
C57_64 N21_64 1_555 1_555
S3_64 C57_64 1_555 1_555
N22_64 Co4_13 1_555 1_555
C58_64 N22_64 1_555 1_555
H37_64 C58_64 1_555 1_555
C59_64 C58_64 1_555 1_555
H38_64 C59_64 1_555 1_555
C60_64 C59_64 1_555 1_555
C61_64 C60_64 1_555 1_555
H39_64 C61_64 1_555 1_555
C62_64 N22_64 1_555 1_555
H40_64 C62_64 1_555 1_555
C63_64 N23_64 1_555 1_555
N23_64 C64_64 1_555 1_555
C64_64 C60_64 1_555 1_555
N24_64 C64_64 1_555 1_555
C65_64 N24_64 1_555 1_555
N25_64 C63_64 1_555 1_555
N28_6 C66_64 1_555 1_555
C66_64 H41_64 1_555 1_555
C67_64 C66_64 1_555 1_555
H42_64 C67_64 1_555 1_555
C68_64 C63_64 1_555 1_555
C69_64 C68_64 1_555 1_555
H43_64 C69_64 1_555 1_555
C70_64 N28_6 1_555 1_555
H44_64 C70_64 1_555 1_555
N31_13 C71_64 1_555 1_555
C71_64 H45_64 1_555 1_555
C72_64 C71_64 1_555 1_555
H46_64 C72_64 1_555 1_555
C73_64 C65_64 1_555 1_555
C74_64 C73_64 1_555 1_555
H47_64 C74_64 1_555 1_555
C75_64 N31_13 1_555 1_555
H48_64 C75_64 1_555 1_555
C11_64 C12_64 1_555 1_555
C15_64 N7_64 1_555 1_555
C17_64 C18_64 1_555 1_555
C19_64 C20_64 1_555 1_555
C22_64 C23_64 1_555 1_555
C24_64 C25_64 1_555 1_555
C61_64 C62_64 1_555 1_555
C65_64 N25_64 1_555 1_555
C67_64 C68_64 1_555 1_555
C69_64 C70_64 1_555 1_555
C72_64 C73_64 1_555 1_555
C74_64 C75_64 1_555 1_555
N3_65 Co5_9 1_555 1_555
C7_65 N3_65 1_555 1_555
S1_65 C7_65 1_555 1_555
N4_65 Co5_9 1_555 1_555
C8_65 N4_65 1_555 1_555
H5_65 C8_65 1_555 1_555
C9_65 C8_65 1_555 1_555
H6_65 C9_65 1_555 1_555
C10_65 C9_65 1_555 1_555
C11_65 C10_65 1_555 1_555
H7_65 C11_65 1_555 1_555
C12_65 N4_65 1_555 1_555
H8_65 C12_65 1_555 1_555
C13_65 N5_65 1_555 1_555
N5_65 C14_65 1_555 1_555
C14_65 C10_65 1_555 1_555
N6_65 C14_65 1_555 1_555
C15_65 N6_65 1_555 1_555
N7_65 C13_65 1_555 1_555
N28_15 C16_65 1_555 1_555
C16_65 H9_65 1_555 1_555
C17_65 C16_65 1_555 1_555
H10_65 C17_65 1_555 1_555
C18_65 C13_65 1_555 1_555
C19_65 C18_65 1_555 1_555
H11_65 C19_65 1_555 1_555
C20_65 N28_15 1_555 1_555
H12_65 C20_65 1_555 1_555
N31_9 C21_65 1_555 1_555
C21_65 H13_65 1_555 1_555
C22_65 C21_65 1_555 1_555
H14_65 C22_65 1_555 1_555
C23_65 C15_65 1_555 1_555
C24_65 C23_65 1_555 1_555
H15_65 C24_65 1_555 1_555
C25_65 N31_9 1_555 1_555
H16_65 C25_65 1_555 1_555
N21_65 Co5_9 1_555 1_555
C57_65 N21_65 1_555 1_555
S3_65 C57_65 1_555 1_555
N22_65 Co5_9 1_555 1_555
C58_65 N22_65 1_555 1_555
H37_65 C58_65 1_555 1_555
C59_65 C58_65 1_555 1_555
H38_65 C59_65 1_555 1_555
C60_65 C59_65 1_555 1_555
C61_65 C60_65 1_555 1_555
H39_65 C61_65 1_555 1_555
C62_65 N22_65 1_555 1_555
H40_65 C62_65 1_555 1_555
C63_65 N23_65 1_555 1_555
N23_65 C64_65 1_555 1_555
C64_65 C60_65 1_555 1_555
N24_65 C64_65 1_555 1_555
C65_65 N24_65 1_555 1_555
N25_65 C63_65 1_555 1_555
N28_9 C66_65 1_555 1_555
C66_65 H41_65 1_555 1_555
C67_65 C66_65 1_555 1_555
H42_65 C67_65 1_555 1_555
C68_65 C63_65 1_555 1_555
C69_65 C68_65 1_555 1_555
H43_65 C69_65 1_555 1_555
C70_65 N28_9 1_555 1_555
H44_65 C70_65 1_555 1_555
N31_15 C71_65 1_555 1_555
C71_65 H45_65 1_555 1_555
C72_65 C71_65 1_555 1_555
H46_65 C72_65 1_555 1_555
C73_65 C65_65 1_555 1_555
C74_65 C73_65 1_555 1_555
H47_65 C74_65 1_555 1_555
C75_65 N31_15 1_555 1_555
H48_65 C75_65 1_555 1_555
C11_65 C12_65 1_555 1_555
C15_65 N7_65 1_555 1_555
C17_65 C18_65 1_555 1_555
C19_65 C20_65 1_555 1_555
C22_65 C23_65 1_555 1_555
C24_65 C25_65 1_555 1_555
C61_65 C62_65 1_555 1_555
C65_65 N25_65 1_555 1_555
C67_65 C68_65 1_555 1_555
C69_65 C70_65 1_555 1_555
C72_65 C73_65 1_555 1_555
C74_65 C75_65 1_555 1_555
N1_32 C1_32 1_555 1_555
C1_32 C4_32 1_555 1_555
N2_32 C2_32 1_555 1_555
C2_32 H1_32 1_555 1_555
C3_32 C2_32 1_555 1_555
H2_32 C3_32 1_555 1_555
C4_32 C3_32 1_555 1_555
C5_32 C4_32 1_555 1_555
H3_32 C5_32 1_555 1_555
C6_32 N2_32 1_555 1_555
H4_32 C6_32 1_555 1_555
Co6_13 N2_32 1_555 1_555
N3_66 Co6_13 1_555 1_555
C7_66 N3_66 1_555 1_555
S1_66 C7_66 1_555 1_555
N4_66 Co6_13 1_555 1_555
C8_66 N4_66 1_555 1_555
H5_66 C8_66 1_555 1_555
C9_66 C8_66 1_555 1_555
H6_66 C9_66 1_555 1_555
C10_66 C9_66 1_555 1_555
C11_66 C10_66 1_555 1_555
H7_66 C11_66 1_555 1_555
C12_66 N4_66 1_555 1_555
H8_66 C12_66 1_555 1_555
C13_66 N5_66 1_555 1_555
N5_66 C14_66 1_555 1_555
C14_66 C10_66 1_555 1_555
N6_66 C14_66 1_555 1_555
C15_66 N6_66 1_555 1_555
N7_66 C13_66 1_555 1_555
N29_31 C16_66 1_555 1_555
C16_66 H9_66 1_555 1_555
C17_66 C16_66 1_555 1_555
H10_66 C17_66 1_555 1_555
C18_66 C13_66 1_555 1_555
C19_66 C18_66 1_555 1_555
H11_66 C19_66 1_555 1_555
C20_66 N29_31 1_555 1_555
H12_66 C20_66 1_555 1_555
N31_28 C21_66 1_555 1_555
C21_66 H13_66 1_555 1_555
C22_66 C21_66 1_555 1_555
H14_66 C22_66 1_555 1_555
C23_66 C15_66 1_555 1_555
C24_66 C23_66 1_555 1_555
H15_66 C24_66 1_555 1_555
C25_66 N31_28 1_555 1_555
H16_66 C25_66 1_555 1_555
N11_32 C1_32 1_555 1_555
N12_32 C27_32 1_555 1_555
C27_32 N11_32 1_555 1_555
C28_32 N1_32 1_555 1_555
N16_32 C32_32 1_555 1_555
N17_32 C33_32 1_555 1_555
C32_32 H17_32 1_555 1_555
C33_32 H18_32 1_555 1_555
C37_32 C32_32 1_555 1_555
C38_32 C33_32 1_555 1_555
H22_32 C37_32 1_555 1_555
H23_32 C38_32 1_555 1_555
C42_32 C28_32 1_555 1_555
C43_32 C27_32 1_555 1_555
C47_32 C42_32 1_555 1_555
C48_32 C43_32 1_555 1_555
H27_32 C47_32 1_555 1_555
H28_32 C48_32 1_555 1_555
C52_32 N16_32 1_555 1_555
C53_32 N17_32 1_555 1_555
H32_32 C52_32 1_555 1_555
H33_32 C53_32 1_555 1_555
Co3_17 N17_32 1_555 1_555
N21_66 Co6_13 1_555 1_555
C57_66 N21_66 1_555 1_555
S3_66 C57_66 1_555 1_555
N22_66 Co6_13 1_555 1_555
C58_66 N22_66 1_555 1_555
H37_66 C58_66 1_555 1_555
C59_66 C58_66 1_555 1_555
H38_66 C59_66 1_555 1_555
C60_66 C59_66 1_555 1_555
C61_66 C60_66 1_555 1_555
H39_66 C61_66 1_555 1_555
C62_66 N22_66 1_555 1_555
H40_66 C62_66 1_555 1_555
C63_66 N23_66 1_555 1_555
N23_66 C64_66 1_555 1_555
C64_66 C60_66 1_555 1_555
N24_66 C64_66 1_555 1_555
C65_66 N24_66 1_555 1_555
N25_66 C63_66 1_555 1_555
N28_35 C66_66 1_555 1_555
C66_66 H41_66 1_555 1_555
C67_66 C66_66 1_555 1_555
H42_66 C67_66 1_555 1_555
C68_66 C63_66 1_555 1_555
C69_66 C68_66 1_555 1_555
H43_66 C69_66 1_555 1_555
C70_66 N28_35 1_555 1_555
H44_66 C70_66 1_555 1_555
N32_45 C71_66 1_555 1_555
C71_66 H45_66 1_555 1_555
C72_66 C71_66 1_555 1_555
H46_66 C72_66 1_555 1_555
C73_66 C65_66 1_555 1_555
C74_66 C73_66 1_555 1_555
H47_66 C74_66 1_555 1_555
C75_66 N32_45 1_555 1_555
H48_66 C75_66 1_555 1_555
C5_32 C6_32 1_555 1_555
C11_66 C12_66 1_555 1_555
C15_66 N7_66 1_555 1_555
C17_66 C18_66 1_555 1_555
C19_66 C20_66 1_555 1_555
C22_66 C23_66 1_555 1_555
C24_66 C25_66 1_555 1_555
N12_32 C28_32 1_555 1_555
C37_32 C42_32 1_555 1_555
C38_32 C43_32 1_555 1_555
C47_32 C52_32 1_555 1_555
C48_32 C53_32 1_555 1_555
C61_66 C62_66 1_555 1_555
C65_66 N25_66 1_555 1_555
C67_66 C68_66 1_555 1_555
C69_66 C70_66 1_555 1_555
C72_66 C73_66 1_555 1_555
C74_66 C75_66 1_555 1_555
N3_67 Co3_15 1_555 1_555
C7_67 N3_67 1_555 1_555
S1_67 C7_67 1_555 1_555
N4_67 Co3_15 1_555 1_555
C8_67 N4_67 1_555 1_555
H5_67 C8_67 1_555 1_555
C9_67 C8_67 1_555 1_555
H6_67 C9_67 1_555 1_555
C10_67 C9_67 1_555 1_555
C11_67 C10_67 1_555 1_555
H7_67 C11_67 1_555 1_555
C12_67 N4_67 1_555 1_555
H8_67 C12_67 1_555 1_555
C13_67 N5_67 1_555 1_555
N5_67 C14_67 1_555 1_555
C14_67 C10_67 1_555 1_555
N6_67 C14_67 1_555 1_555
C15_67 N6_67 1_555 1_555
N7_67 C13_67 1_555 1_555
N29_35 C16_67 1_555 1_555
C16_67 H9_67 1_555 1_555
C17_67 C16_67 1_555 1_555
H10_67 C17_67 1_555 1_555
C18_67 C13_67 1_555 1_555
C19_67 C18_67 1_555 1_555
H11_67 C19_67 1_555 1_555
C20_67 N29_35 1_555 1_555
H12_67 C20_67 1_555 1_555
N32_40 C21_67 1_555 1_555
C21_67 H13_67 1_555 1_555
C22_67 C21_67 1_555 1_555
H14_67 C22_67 1_555 1_555
C23_67 C15_67 1_555 1_555
C24_67 C23_67 1_555 1_555
H15_67 C24_67 1_555 1_555
C25_67 N32_40 1_555 1_555
H16_67 C25_67 1_555 1_555
N21_67 Co3_15 1_555 1_555
C57_67 N21_67 1_555 1_555
S3_67 C57_67 1_555 1_555
N22_67 Co3_15 1_555 1_555
C58_67 N22_67 1_555 1_555
H37_67 C58_67 1_555 1_555
C59_67 C58_67 1_555 1_555
H38_67 C59_67 1_555 1_555
C60_67 C59_67 1_555 1_555
C61_67 C60_67 1_555 1_555
H39_67 C61_67 1_555 1_555
C62_67 N22_67 1_555 1_555
H40_67 C62_67 1_555 1_555
C63_67 N23_67 1_555 1_555
N23_67 C64_67 1_555 1_555
C64_67 C60_67 1_555 1_555
N24_67 C64_67 1_555 1_555
C65_67 N24_67 1_555 1_555
N25_67 C63_67 1_555 1_555
N29_28 C66_67 1_555 1_555
C66_67 H41_67 1_555 1_555
C67_67 C66_67 1_555 1_555
H42_67 C67_67 1_555 1_555
C68_67 C63_67 1_555 1_555
C69_67 C68_67 1_555 1_555
H43_67 C69_67 1_555 1_555
C70_67 N29_28 1_555 1_555
H44_67 C70_67 1_555 1_555
N31_48 C71_67 1_555 1_555
C71_67 H45_67 1_555 1_555
C72_67 C71_67 1_555 1_555
H46_67 C72_67 1_555 1_555
C73_67 C65_67 1_555 1_555
C74_67 C73_67 1_555 1_555
H47_67 C74_67 1_555 1_555
C75_67 N31_48 1_555 1_555
H48_67 C75_67 1_555 1_555
C11_67 C12_67 1_555 1_555
C15_67 N7_67 1_555 1_555
C17_67 C18_67 1_555 1_555
C19_67 C20_67 1_555 1_555
C22_67 C23_67 1_555 1_555
C24_67 C25_67 1_555 1_555
C61_67 C62_67 1_555 1_555
C65_67 N25_67 1_555 1_555
C67_67 C68_67 1_555 1_555
C69_67 C70_67 1_555 1_555
C72_67 C73_67 1_555 1_555
C74_67 C75_67 1_555 1_555
N3_68 Co3_14 1_555 1_555
C7_68 N3_68 1_555 1_555
S1_68 C7_68 1_555 1_555
N4_68 Co3_14 1_555 1_555
C8_68 N4_68 1_555 1_555
H5_68 C8_68 1_555 1_555
C9_68 C8_68 1_555 1_555
H6_68 C9_68 1_555 1_555
C10_68 C9_68 1_555 1_555
C11_68 C10_68 1_555 1_555
H7_68 C11_68 1_555 1_555
C12_68 N4_68 1_555 1_555
H8_68 C12_68 1_555 1_555
C13_68 N5_68 1_555 1_555
N5_68 C14_68 1_555 1_555
C14_68 C10_68 1_555 1_555
N6_68 C14_68 1_555 1_555
C15_68 N6_68 1_555 1_555
N7_68 C13_68 1_555 1_555
N28_33 C16_68 1_555 1_555
C16_68 H9_68 1_555 1_555
C17_68 C16_68 1_555 1_555
H10_68 C17_68 1_555 1_555
C18_68 C13_68 1_555 1_555
C19_68 C18_68 1_555 1_555
H11_68 C19_68 1_555 1_555
C20_68 N28_33 1_555 1_555
H12_68 C20_68 1_555 1_555
N31_27 C21_68 1_555 1_555
C21_68 H13_68 1_555 1_555
C22_68 C21_68 1_555 1_555
H14_68 C22_68 1_555 1_555
C23_68 C15_68 1_555 1_555
C24_68 C23_68 1_555 1_555
H15_68 C24_68 1_555 1_555
C25_68 N31_27 1_555 1_555
H16_68 C25_68 1_555 1_555
N21_68 Co3_14 1_555 1_555
C57_68 N21_68 1_555 1_555
S3_68 C57_68 1_555 1_555
N22_68 Co3_14 1_555 1_555
C58_68 N22_68 1_555 1_555
H37_68 C58_68 1_555 1_555
C59_68 C58_68 1_555 1_555
H38_68 C59_68 1_555 1_555
C60_68 C59_68 1_555 1_555
C61_68 C60_68 1_555 1_555
H39_68 C61_68 1_555 1_555
C62_68 N22_68 1_555 1_555
H40_68 C62_68 1_555 1_555
C63_68 N23_68 1_555 1_555
N23_68 C64_68 1_555 1_555
C64_68 C60_68 1_555 1_555
N24_68 C64_68 1_555 1_555
C65_68 N24_68 1_555 1_555
N25_68 C63_68 1_555 1_555
N28_34 C66_68 1_555 1_555
C66_68 H41_68 1_555 1_555
C67_68 C66_68 1_555 1_555
H42_68 C67_68 1_555 1_555
C68_68 C63_68 1_555 1_555
C69_68 C68_68 1_555 1_555
H43_68 C69_68 1_555 1_555
C70_68 N28_34 1_555 1_555
H44_68 C70_68 1_555 1_555
N32_9 C71_68 1_555 1_555
C71_68 H45_68 1_555 1_555
C72_68 C71_68 1_555 1_555
H46_68 C72_68 1_555 1_555
C73_68 C65_68 1_555 1_555
C74_68 C73_68 1_555 1_555
H47_68 C74_68 1_555 1_555
C75_68 N32_9 1_555 1_555
H48_68 C75_68 1_555 1_555
C11_68 C12_68 1_555 1_555
C15_68 N7_68 1_555 1_555
C17_68 C18_68 1_555 1_555
C19_68 C20_68 1_555 1_555
C22_68 C23_68 1_555 1_555
C24_68 C25_68 1_555 1_555
C61_68 C62_68 1_555 1_555
C65_68 N25_68 1_555 1_555
C67_68 C68_68 1_555 1_555
C69_68 C70_68 1_555 1_555
C72_68 C73_68 1_555 1_555
C74_68 C75_68 1_555 1_555
N3_69 Co5_11 1_555 1_555
C7_69 N3_69 1_555 1_555
S1_69 C7_69 1_555 1_555
N4_69 Co5_11 1_555 1_555
C8_69 N4_69 1_555 1_555
H5_69 C8_69 1_555 1_555
C9_69 C8_69 1_555 1_555
H6_69 C9_69 1_555 1_555
C10_69 C9_69 1_555 1_555
C11_69 C10_69 1_555 1_555
H7_69 C11_69 1_555 1_555
C12_69 N4_69 1_555 1_555
H8_69 C12_69 1_555 1_555
C13_69 N5_69 1_555 1_555
N5_69 C14_69 1_555 1_555
C14_69 C10_69 1_555 1_555
N6_69 C14_69 1_555 1_555
C15_69 N6_69 1_555 1_555
N7_69 C13_69 1_555 1_555
N28_5 C16_69 1_555 1_555
C16_69 H9_69 1_555 1_555
C17_69 C16_69 1_555 1_555
H10_69 C17_69 1_555 1_555
C18_69 C13_69 1_555 1_555
C19_69 C18_69 1_555 1_555
H11_69 C19_69 1_555 1_555
C20_69 N28_5 1_555 1_555
H12_69 C20_69 1_555 1_555
N31_4 C21_69 1_555 1_555
C21_69 H13_69 1_555 1_555
C22_69 C21_69 1_555 1_555
H14_69 C22_69 1_555 1_555
C23_69 C15_69 1_555 1_555
C24_69 C23_69 1_555 1_555
H15_69 C24_69 1_555 1_555
C25_69 N31_4 1_555 1_555
H16_69 C25_69 1_555 1_555
N13_21 C29_21 1_555 1_555
N14_21 C29_21 1_555 1_555
N15_21 C30_21 1_555 1_555
C29_21 C44_21 1_555 1_555
C30_21 N14_21 1_555 1_555
C31_21 N13_21 1_555 1_555
N18_21 Co5_11 1_555 1_555
N19_21 C35_21 1_555 1_555
N20_21 C36_21 1_555 1_555
C34_21 N18_21 1_555 1_555
C35_21 H20_21 1_555 1_555
C36_21 H21_21 1_555 1_555
H19_21 C34_21 1_555 1_555
C39_21 C34_21 1_555 1_555
C40_21 C35_21 1_555 1_555
C41_21 C36_21 1_555 1_555
H24_21 C39_21 1_555 1_555
H25_21 C40_21 1_555 1_555
H26_21 C41_21 1_555 1_555
C44_21 C39_21 1_555 1_555
C45_21 C31_21 1_555 1_555
C46_21 C30_21 1_555 1_555
C49_21 C44_21 1_555 1_555
C50_21 C45_21 1_555 1_555
C51_21 C46_21 1_555 1_555
H29_21 C49_21 1_555 1_555
H30_21 C50_21 1_555 1_555
H31_21 C51_21 1_555 1_555
C54_21 N18_21 1_555 1_555
C55_21 N19_21 1_555 1_555
C56_21 N20_21 1_555 1_555
H34_21 C54_21 1_555 1_555
H35_21 C55_21 1_555 1_555
H36_21 C56_21 1_555 1_555
Co4_11 N19_21 1_555 1_555
Co6_16 N20_21 1_555 1_555
N21_69 Co5_11 1_555 1_555
C57_69 N21_69 1_555 1_555
S3_69 C57_69 1_555 1_555
N22_69 Co5_11 1_555 1_555
C58_69 N22_69 1_555 1_555
H37_69 C58_69 1_555 1_555
C59_69 C58_69 1_555 1_555
H38_69 C59_69 1_555 1_555
C60_69 C59_69 1_555 1_555
C61_69 C60_69 1_555 1_555
H39_69 C61_69 1_555 1_555
C62_69 N22_69 1_555 1_555
H40_69 C62_69 1_555 1_555
C63_69 N23_69 1_555 1_555
N23_69 C64_69 1_555 1_555
C64_69 C60_69 1_555 1_555
N24_69 C64_69 1_555 1_555
C65_69 N24_69 1_555 1_555
N25_69 C63_69 1_555 1_555
N28_4 C66_69 1_555 1_555
C66_69 H41_69 1_555 1_555
C67_69 C66_69 1_555 1_555
H42_69 C67_69 1_555 1_555
C68_69 C63_69 1_555 1_555
C69_69 C68_69 1_555 1_555
H43_69 C69_69 1_555 1_555
C70_69 N28_4 1_555 1_555
H44_69 C70_69 1_555 1_555
N31_5 C71_69 1_555 1_555
C71_69 H45_69 1_555 1_555
C72_69 C71_69 1_555 1_555
H46_69 C72_69 1_555 1_555
C73_69 C65_69 1_555 1_555
C74_69 C73_69 1_555 1_555
H47_69 C74_69 1_555 1_555
C75_69 N31_5 1_555 1_555
H48_69 C75_69 1_555 1_555
C11_69 C12_69 1_555 1_555
C15_69 N7_69 1_555 1_555
C17_69 C18_69 1_555 1_555
C19_69 C20_69 1_555 1_555
C22_69 C23_69 1_555 1_555
C24_69 C25_69 1_555 1_555
N15_21 C31_21 1_555 1_555
C40_21 C45_21 1_555 1_555
C41_21 C46_21 1_555 1_555
C49_21 C54_21 1_555 1_555
C50_21 C55_21 1_555 1_555
C51_21 C56_21 1_555 1_555
C61_69 C62_69 1_555 1_555
C65_69 N25_69 1_555 1_555
C67_69 C68_69 1_555 1_555
C69_69 C70_69 1_555 1_555
C72_69 C73_69 1_555 1_555
C74_69 C75_69 1_555 1_555
N1_33 C1_33 1_555 1_555
C1_33 C4_33 1_555 1_555
N2_33 C2_33 1_555 1_555
C2_33 H1_33 1_555 1_555
C3_33 C2_33 1_555 1_555
H2_33 C3_33 1_555 1_555
C4_33 C3_33 1_555 1_555
C5_33 C4_33 1_555 1_555
H3_33 C5_33 1_555 1_555
C6_33 N2_33 1_555 1_555
H4_33 C6_33 1_555 1_555
S1_70 C7_70 1_555 1_555
N11_33 C1_33 1_555 1_555
N12_33 C27_33 1_555 1_555
N13_22 C29_22 1_555 1_555
N14_22 C29_22 1_555 1_555
N15_22 C30_22 1_555 1_555
C27_33 N11_33 1_555 1_555
C28_33 N1_33 1_555 1_555
C29_22 C44_22 1_555 1_555
C30_22 N14_22 1_555 1_555
C31_22 N13_22 1_555 1_555
N16_33 C32_33 1_555 1_555
N17_33 C33_33 1_555 1_555
N19_22 C35_22 1_555 1_555
N20_22 C36_22 1_555 1_555
C32_33 H17_33 1_555 1_555
C33_33 H18_33 1_555 1_555
C34_22 N18_22 1_555 1_555
C35_22 H20_22 1_555 1_555
C36_22 H21_22 1_555 1_555
H19_22 C34_22 1_555 1_555
C37_33 C32_33 1_555 1_555
C38_33 C33_33 1_555 1_555
C39_22 C34_22 1_555 1_555
C40_22 C35_22 1_555 1_555
C41_22 C36_22 1_555 1_555
H22_33 C37_33 1_555 1_555
H23_33 C38_33 1_555 1_555
H24_22 C39_22 1_555 1_555
H25_22 C40_22 1_555 1_555
H26_22 C41_22 1_555 1_555
C42_33 C28_33 1_555 1_555
C43_33 C27_33 1_555 1_555
C44_22 C39_22 1_555 1_555
C45_22 C31_22 1_555 1_555
C46_22 C30_22 1_555 1_555
C47_33 C42_33 1_555 1_555
C48_33 C43_33 1_555 1_555
C49_22 C44_22 1_555 1_555
C50_22 C45_22 1_555 1_555
C51_22 C46_22 1_555 1_555
H27_33 C47_33 1_555 1_555
H28_33 C48_33 1_555 1_555
H29_22 C49_22 1_555 1_555
H30_22 C50_22 1_555 1_555
H31_22 C51_22 1_555 1_555
C52_33 N16_33 1_555 1_555
C53_33 N17_33 1_555 1_555
C54_22 N18_22 1_555 1_555
C55_22 N19_22 1_555 1_555
C56_22 N20_22 1_555 1_555
H32_33 C52_33 1_555 1_555
H33_33 C53_33 1_555 1_555
H34_22 C54_22 1_555 1_555
H35_22 C55_22 1_555 1_555
H36_22 C56_22 1_555 1_555
Co3_21 N16_33 1_555 1_555
Co4_15 N17_33 1_555 1_555
Co5_15 N19_22 1_555 1_555
Co6_17 N20_22 1_555 1_555
S3_70 C57_70 1_555 1_555
C5_33 C6_33 1_555 1_555
N12_33 C28_33 1_555 1_555
N15_22 C31_22 1_555 1_555
C37_33 C42_33 1_555 1_555
C38_33 C43_33 1_555 1_555
C40_22 C45_22 1_555 1_555
C41_22 C46_22 1_555 1_555
C47_33 C52_33 1_555 1_555
C48_33 C53_33 1_555 1_555
C49_22 C54_22 1_555 1_555
C50_22 C55_22 1_555 1_555
C51_22 C56_22 1_555 1_555
N3_70 Co1_20 1_555 1_555
N4_70 Co1_20 1_555 1_555
C8_70 N4_70 1_555 1_555
H5_70 C8_70 1_555 1_555
C9_70 C8_70 1_555 1_555
H6_70 C9_70 1_555 1_555
C10_70 C9_70 1_555 1_555
C11_70 C10_70 1_555 1_555
H7_70 C11_70 1_555 1_555
C12_70 N4_70 1_555 1_555
H8_70 C12_70 1_555 1_555
C13_70 N5_70 1_555 1_555
N5_70 C14_70 1_555 1_555
C14_70 C10_70 1_555 1_555
N6_70 C14_70 1_555 1_555
C15_70 N6_70 1_555 1_555
N7_70 C13_70 1_555 1_555
N29_29 C16_70 1_555 1_555
C16_70 H9_70 1_555 1_555
C17_70 C16_70 1_555 1_555
H10_70 C17_70 1_555 1_555
C18_70 C13_70 1_555 1_555
C19_70 C18_70 1_555 1_555
H11_70 C19_70 1_555 1_555
C20_70 N29_29 1_555 1_555
H12_70 C20_70 1_555 1_555
N31_26 C21_70 1_555 1_555
C21_70 H13_70 1_555 1_555
C22_70 C21_70 1_555 1_555
H14_70 C22_70 1_555 1_555
C23_70 C15_70 1_555 1_555
C24_70 C23_70 1_555 1_555
H15_70 C24_70 1_555 1_555
C25_70 N31_26 1_555 1_555
H16_70 C25_70 1_555 1_555
N21_70 Co1_20 1_555 1_555
N22_70 Co1_20 1_555 1_555
C58_70 N22_70 1_555 1_555
H37_70 C58_70 1_555 1_555
C59_70 C58_70 1_555 1_555
H38_70 C59_70 1_555 1_555
C60_70 C59_70 1_555 1_555
C61_70 C60_70 1_555 1_555
H39_70 C61_70 1_555 1_555
C62_70 N22_70 1_555 1_555
H40_70 C62_70 1_555 1_555
C63_70 N23_70 1_555 1_555
N23_70 C64_70 1_555 1_555
C64_70 C60_70 1_555 1_555
N24_70 C64_70 1_555 1_555
C65_70 N24_70 1_555 1_555
N25_70 C63_70 1_555 1_555
N28_31 C66_70 1_555 1_555
C66_70 H41_70 1_555 1_555
C67_70 C66_70 1_555 1_555
H42_70 C67_70 1_555 1_555
C68_70 C63_70 1_555 1_555
C69_70 C68_70 1_555 1_555
H43_70 C69_70 1_555 1_555
C70_70 N28_31 1_555 1_555
H44_70 C70_70 1_555 1_555
N32_23 C71_70 1_555 1_555
C71_70 H45_70 1_555 1_555
C72_70 C71_70 1_555 1_555
H46_70 C72_70 1_555 1_555
C73_70 C65_70 1_555 1_555
C74_70 C73_70 1_555 1_555
H47_70 C74_70 1_555 1_555
C75_70 N32_23 1_555 1_555
H48_70 C75_70 1_555 1_555
C11_70 C12_70 1_555 1_555
C15_70 N7_70 1_555 1_555
C17_70 C18_70 1_555 1_555
C19_70 C20_70 1_555 1_555
C22_70 C23_70 1_555 1_555
C24_70 C25_70 1_555 1_555
C61_70 C62_70 1_555 1_555
C65_70 N25_70 1_555 1_555
C67_70 C68_70 1_555 1_555
C69_70 C70_70 1_555 1_555
C72_70 C73_70 1_555 1_555
C74_70 C75_70 1_555 1_555
N1_34 C1_34 1_555 1_555
C1_34 C4_34 1_555 1_555
N2_34 C2_34 1_555 1_555
C2_34 H1_34 1_555 1_555
C3_34 C2_34 1_555 1_555
H2_34 C3_34 1_555 1_555
C4_34 C3_34 1_555 1_555
C5_34 C4_34 1_555 1_555
H3_34 C5_34 1_555 1_555
C6_34 N2_34 1_555 1_555
H4_34 C6_34 1_555 1_555
Co4_15 N2_34 1_555 1_555
N3_71 Co4_15 1_555 1_555
C7_71 N3_71 1_555 1_555
S1_71 C7_71 1_555 1_555
N4_71 Co4_15 1_555 1_555
C8_71 N4_71 1_555 1_555
H5_71 C8_71 1_555 1_555
C9_71 C8_71 1_555 1_555
H6_71 C9_71 1_555 1_555
C10_71 C9_71 1_555 1_555
C11_71 C10_71 1_555 1_555
H7_71 C11_71 1_555 1_555
C12_71 N4_71 1_555 1_555
H8_71 C12_71 1_555 1_555
C13_71 N5_71 1_555 1_555
N5_71 C14_71 1_555 1_555
C14_71 C10_71 1_555 1_555
N6_71 C14_71 1_555 1_555
C15_71 N6_71 1_555 1_555
N7_71 C13_71 1_555 1_555
N29_42 C16_71 1_555 1_555
C16_71 H9_71 1_555 1_555
C17_71 C16_71 1_555 1_555
H10_71 C17_71 1_555 1_555
C18_71 C13_71 1_555 1_555
C19_71 C18_71 1_555 1_555
H11_71 C19_71 1_555 1_555
C20_71 N29_42 1_555 1_555
H12_71 C20_71 1_555 1_555
N31_35 C21_71 1_555 1_555
C21_71 H13_71 1_555 1_555
C22_71 C21_71 1_555 1_555
H14_71 C22_71 1_555 1_555
C23_71 C15_71 1_555 1_555
C24_71 C23_71 1_555 1_555
H15_71 C24_71 1_555 1_555
C25_71 N31_35 1_555 1_555
H16_71 C25_71 1_555 1_555
N11_34 C1_34 1_555 1_555
N12_34 C27_34 1_555 1_555
C27_34 N11_34 1_555 1_555
C28_34 N1_34 1_555 1_555
N16_34 C32_34 1_555 1_555
N17_34 C33_34 1_555 1_555
C32_34 H17_34 1_555 1_555
C33_34 H18_34 1_555 1_555
C37_34 C32_34 1_555 1_555
C38_34 C33_34 1_555 1_555
H22_34 C37_34 1_555 1_555
H23_34 C38_34 1_555 1_555
C42_34 C28_34 1_555 1_555
C43_34 C27_34 1_555 1_555
C47_34 C42_34 1_555 1_555
C48_34 C43_34 1_555 1_555
H27_34 C47_34 1_555 1_555
H28_34 C48_34 1_555 1_555
C52_34 N16_34 1_555 1_555
C53_34 N17_34 1_555 1_555
H32_34 C52_34 1_555 1_555
H33_34 C53_34 1_555 1_555
Co3_22 N16_34 1_555 1_555
Co5_15 N17_34 1_555 1_555
N21_71 Co4_15 1_555 1_555
C57_71 N21_71 1_555 1_555
S3_71 C57_71 1_555 1_555
N22_71 Co4_15 1_555 1_555
C58_71 N22_71 1_555 1_555
H37_71 C58_71 1_555 1_555
C59_71 C58_71 1_555 1_555
H38_71 C59_71 1_555 1_555
C60_71 C59_71 1_555 1_555
C61_71 C60_71 1_555 1_555
H39_71 C61_71 1_555 1_555
C62_71 N22_71 1_555 1_555
H40_71 C62_71 1_555 1_555
C63_71 N23_71 1_555 1_555
N23_71 C64_71 1_555 1_555
C64_71 C60_71 1_555 1_555
N24_71 C64_71 1_555 1_555
C65_71 N24_71 1_555 1_555
N25_71 C63_71 1_555 1_555
N28_45 C66_71 1_555 1_555
C66_71 H41_71 1_555 1_555
C67_71 C66_71 1_555 1_555
H42_71 C67_71 1_555 1_555
C68_71 C63_71 1_555 1_555
C69_71 C68_71 1_555 1_555
H43_71 C69_71 1_555 1_555
C70_71 N28_45 1_555 1_555
H44_71 C70_71 1_555 1_555
N32_24 C71_71 1_555 1_555
C71_71 H45_71 1_555 1_555
C72_71 C71_71 1_555 1_555
H46_71 C72_71 1_555 1_555
C73_71 C65_71 1_555 1_555
C74_71 C73_71 1_555 1_555
H47_71 C74_71 1_555 1_555
C75_71 N32_24 1_555 1_555
H48_71 C75_71 1_555 1_555
C5_34 C6_34 1_555 1_555
C11_71 C12_71 1_555 1_555
C15_71 N7_71 1_555 1_555
C17_71 C18_71 1_555 1_555
C19_71 C20_71 1_555 1_555
C22_71 C23_71 1_555 1_555
C24_71 C25_71 1_555 1_555
N12_34 C28_34 1_555 1_555
C37_34 C42_34 1_555 1_555
C38_34 C43_34 1_555 1_555
C47_34 C52_34 1_555 1_555
C48_34 C53_34 1_555 1_555
C61_71 C62_71 1_555 1_555
C65_71 N25_71 1_555 1_555
C67_71 C68_71 1_555 1_555
C69_71 C70_71 1_555 1_555
C72_71 C73_71 1_555 1_555
C74_71 C75_71 1_555 1_555
N3_72 Co5_15 1_555 1_555
C7_72 N3_72 1_555 1_555
S1_72 C7_72 1_555 1_555
N4_72 Co5_15 1_555 1_555
C8_72 N4_72 1_555 1_555
H5_72 C8_72 1_555 1_555
C9_72 C8_72 1_555 1_555
H6_72 C9_72 1_555 1_555
C10_72 C9_72 1_555 1_555
C11_72 C10_72 1_555 1_555
H7_72 C11_72 1_555 1_555
C12_72 N4_72 1_555 1_555
H8_72 C12_72 1_555 1_555
C13_72 N5_72 1_555 1_555
N5_72 C14_72 1_555 1_555
C14_72 C10_72 1_555 1_555
N6_72 C14_72 1_555 1_555
C15_72 N6_72 1_555 1_555
N7_72 C13_72 1_555 1_555
N28 C16_72 1_555 1_555
C16_72 H9_72 1_555 1_555
C17_72 C16_72 1_555 1_555
H10_72 C17_72 1_555 1_555
C18_72 C13_72 1_555 1_555
C19_72 C18_72 1_555 1_555
H11_72 C19_72 1_555 1_555
C20_72 N28 1_555 1_555
H12_72 C20_72 1_555 1_555
N32_44 C21_72 1_555 1_555
C21_72 H13_72 1_555 1_555
C22_72 C21_72 1_555 1_555
H14_72 C22_72 1_555 1_555
C23_72 C15_72 1_555 1_555
C24_72 C23_72 1_555 1_555
H15_72 C24_72 1_555 1_555
C25_72 N32_44 1_555 1_555
H16_72 C25_72 1_555 1_555
N21_72 Co5_15 1_555 1_555
C57_72 N21_72 1_555 1_555
S3_72 C57_72 1_555 1_555
N22_72 Co5_15 1_555 1_555
C58_72 N22_72 1_555 1_555
H37_72 C58_72 1_555 1_555
C59_72 C58_72 1_555 1_555
H38_72 C59_72 1_555 1_555
C60_72 C59_72 1_555 1_555
C61_72 C60_72 1_555 1_555
H39_72 C61_72 1_555 1_555
C62_72 N22_72 1_555 1_555
H40_72 C62_72 1_555 1_555
C63_72 N23_72 1_555 1_555
N23_72 C64_72 1_555 1_555
C64_72 C60_72 1_555 1_555
N24_72 C64_72 1_555 1_555
C65_72 N24_72 1_555 1_555
N25_72 C63_72 1_555 1_555
N29_7 C66_72 1_555 1_555
C66_72 H41_72 1_555 1_555
C67_72 C66_72 1_555 1_555
H42_72 C67_72 1_555 1_555
C68_72 C63_72 1_555 1_555
C69_72 C68_72 1_555 1_555
H43_72 C69_72 1_555 1_555
C70_72 N29_7 1_555 1_555
H44_72 C70_72 1_555 1_555
N31 C71_72 1_555 1_555
C71_72 H45_72 1_555 1_555
C72_72 C71_72 1_555 1_555
H46_72 C72_72 1_555 1_555
C73_72 C65_72 1_555 1_555
C74_72 C73_72 1_555 1_555
H47_72 C74_72 1_555 1_555
C75_72 N31 1_555 1_555
H48_72 C75_72 1_555 1_555
C11_72 C12_72 1_555 1_555
C15_72 N7_72 1_555 1_555
C17_72 C18_72 1_555 1_555
C19_72 C20_72 1_555 1_555
C22_72 C23_72 1_555 1_555
C24_72 C25_72 1_555 1_555
C61_72 C62_72 1_555 1_555
C65_72 N25_72 1_555 1_555
C67_72 C68_72 1_555 1_555
C69_72 C70_72 1_555 1_555
C72_72 C73_72 1_555 1_555
C74_72 C75_72 1_555 1_555
N3_73 Co4_9 1_555 1_555
C7_73 N3_73 1_555 1_555
S1_73 C7_73 1_555 1_555
N4_73 Co4_9 1_555 1_555
C8_73 N4_73 1_555 1_555
H5_73 C8_73 1_555 1_555
C9_73 C8_73 1_555 1_555
H6_73 C9_73 1_555 1_555
C10_73 C9_73 1_555 1_555
C11_73 C10_73 1_555 1_555
H7_73 C11_73 1_555 1_555
C12_73 N4_73 1_555 1_555
H8_73 C12_73 1_555 1_555
C13_73 N5_73 1_555 1_555
N5_73 C14_73 1_555 1_555
C14_73 C10_73 1_555 1_555
N6_73 C14_73 1_555 1_555
C15_73 N6_73 1_555 1_555
N7_73 C13_73 1_555 1_555
N28_40 C16_73 1_555 1_555
C16_73 H9_73 1_555 1_555
C17_73 C16_73 1_555 1_555
H10_73 C17_73 1_555 1_555
C18_73 C13_73 1_555 1_555
C19_73 C18_73 1_555 1_555
H11_73 C19_73 1_555 1_555
C20_73 N28_40 1_555 1_555
H12_73 C20_73 1_555 1_555
N31_33 C21_73 1_555 1_555
C21_73 H13_73 1_555 1_555
C22_73 C21_73 1_555 1_555
H14_73 C22_73 1_555 1_555
C23_73 C15_73 1_555 1_555
C24_73 C23_73 1_555 1_555
H15_73 C24_73 1_555 1_555
C25_73 N31_33 1_555 1_555
H16_73 C25_73 1_555 1_555
N21_73 Co4_9 1_555 1_555
C57_73 N21_73 1_555 1_555
S3_73 C57_73 1_555 1_555
N22_73 Co4_9 1_555 1_555
C58_73 N22_73 1_555 1_555
H37_73 C58_73 1_555 1_555
C59_73 C58_73 1_555 1_555
H38_73 C59_73 1_555 1_555
C60_73 C59_73 1_555 1_555
C61_73 C60_73 1_555 1_555
H39_73 C61_73 1_555 1_555
C62_73 N22_73 1_555 1_555
H40_73 C62_73 1_555 1_555
C63_73 N23_73 1_555 1_555
N23_73 C64_73 1_555 1_555
C64_73 C60_73 1_555 1_555
N24_73 C64_73 1_555 1_555
C65_73 N24_73 1_555 1_555
N25_73 C63_73 1_555 1_555
N29_10 C66_73 1_555 1_555
C66_73 H41_73 1_555 1_555
C67_73 C66_73 1_555 1_555
H42_73 C67_73 1_555 1_555
C68_73 C63_73 1_555 1_555
C69_73 C68_73 1_555 1_555
H43_73 C69_73 1_555 1_555
C70_73 N29_10 1_555 1_555
H44_73 C70_73 1_555 1_555
N32_26 C71_73 1_555 1_555
C71_73 H45_73 1_555 1_555
C72_73 C71_73 1_555 1_555
H46_73 C72_73 1_555 1_555
C73_73 C65_73 1_555 1_555
C74_73 C73_73 1_555 1_555
H47_73 C74_73 1_555 1_555
C75_73 N32_26 1_555 1_555
H48_73 C75_73 1_555 1_555
C11_73 C12_73 1_555 1_555
C15_73 N7_73 1_555 1_555
C17_73 C18_73 1_555 1_555
C19_73 C20_73 1_555 1_555
C22_73 C23_73 1_555 1_555
C24_73 C25_73 1_555 1_555
C61_73 C62_73 1_555 1_555
C65_73 N25_73 1_555 1_555
C67_73 C68_73 1_555 1_555
C69_73 C70_73 1_555 1_555
C72_73 C73_73 1_555 1_555
C74_73 C75_73 1_555 1_555
N1_35 C1_35 1_555 1_555
C1_35 C4_35 1_555 1_555
N2_35 C2_35 1_555 1_555
C2_35 H1_35 1_555 1_555
C3_35 C2_35 1_555 1_555
H2_35 C3_35 1_555 1_555
C4_35 C3_35 1_555 1_555
C5_35 C4_35 1_555 1_555
H3_35 C5_35 1_555 1_555
C6_35 N2_35 1_555 1_555
H4_35 C6_35 1_555 1_555
Co6_17 N2_35 1_555 1_555
N3_74 Co6_17 1_555 1_555
C7_74 N3_74 1_555 1_555
S1_74 C7_74 1_555 1_555
N4_74 Co6_17 1_555 1_555
C8_74 N4_74 1_555 1_555
H5_74 C8_74 1_555 1_555
C9_74 C8_74 1_555 1_555
H6_74 C9_74 1_555 1_555
C10_74 C9_74 1_555 1_555
C11_74 C10_74 1_555 1_555
H7_74 C11_74 1_555 1_555
C12_74 N4_74 1_555 1_555
H8_74 C12_74 1_555 1_555
C13_74 N5_74 1_555 1_555
N5_74 C14_74 1_555 1_555
C14_74 C10_74 1_555 1_555
N6_74 C14_74 1_555 1_555
C15_74 N6_74 1_555 1_555
N7_74 C13_74 1_555 1_555
N29_37 C16_74 1_555 1_555
C16_74 H9_74 1_555 1_555
C17_74 C16_74 1_555 1_555
H10_74 C17_74 1_555 1_555
C18_74 C13_74 1_555 1_555
C19_74 C18_74 1_555 1_555
H11_74 C19_74 1_555 1_555
C20_74 N29_37 1_555 1_555
H12_74 C20_74 1_555 1_555
N32_5 C21_74 1_555 1_555
C21_74 H13_74 1_555 1_555
C22_74 C21_74 1_555 1_555
H14_74 C22_74 1_555 1_555
C23_74 C15_74 1_555 1_555
C24_74 C23_74 1_555 1_555
H15_74 C24_74 1_555 1_555
C25_74 N32_5 1_555 1_555
H16_74 C25_74 1_555 1_555
N11_35 C1_35 1_555 1_555
N12_35 C27_35 1_555 1_555
C27_35 N11_35 1_555 1_555
C28_35 N1_35 1_555 1_555
N16_35 C32_35 1_555 1_555
N17_35 C33_35 1_555 1_555
C32_35 H17_35 1_555 1_555
C33_35 H18_35 1_555 1_555
C37_35 C32_35 1_555 1_555
C38_35 C33_35 1_555 1_555
H22_35 C37_35 1_555 1_555
H23_35 C38_35 1_555 1_555
C42_35 C28_35 1_555 1_555
C43_35 C27_35 1_555 1_555
C47_35 C42_35 1_555 1_555
C48_35 C43_35 1_555 1_555
H27_35 C47_35 1_555 1_555
H28_35 C48_35 1_555 1_555
C52_35 N16_35 1_555 1_555
C53_35 N17_35 1_555 1_555
H32_35 C52_35 1_555 1_555
H33_35 C53_35 1_555 1_555
Co3_22 N16_35 1_555 1_555
Co3_21 N17_35 1_555 1_555
N21_74 Co6_17 1_555 1_555
C57_74 N21_74 1_555 1_555
S3_74 C57_74 1_555 1_555
N22_74 Co6_17 1_555 1_555
C58_74 N22_74 1_555 1_555
H37_74 C58_74 1_555 1_555
C59_74 C58_74 1_555 1_555
H38_74 C59_74 1_555 1_555
C60_74 C59_74 1_555 1_555
C61_74 C60_74 1_555 1_555
H39_74 C61_74 1_555 1_555
C62_74 N22_74 1_555 1_555
H40_74 C62_74 1_555 1_555
C63_74 N23_74 1_555 1_555
N23_74 C64_74 1_555 1_555
C64_74 C60_74 1_555 1_555
N24_74 C64_74 1_555 1_555
C65_74 N24_74 1_555 1_555
N25_74 C63_74 1_555 1_555
N29_23 C66_74 1_555 1_555
C66_74 H41_74 1_555 1_555
C67_74 C66_74 1_555 1_555
H42_74 C67_74 1_555 1_555
C68_74 C63_74 1_555 1_555
C69_74 C68_74 1_555 1_555
H43_74 C69_74 1_555 1_555
C70_74 N29_23 1_555 1_555
H44_74 C70_74 1_555 1_555
N32_28 C71_74 1_555 1_555
C71_74 H45_74 1_555 1_555
C72_74 C71_74 1_555 1_555
H46_74 C72_74 1_555 1_555
C73_74 C65_74 1_555 1_555
C74_74 C73_74 1_555 1_555
H47_74 C74_74 1_555 1_555
C75_74 N32_28 1_555 1_555
H48_74 C75_74 1_555 1_555
C5_35 C6_35 1_555 1_555
C11_74 C12_74 1_555 1_555
C15_74 N7_74 1_555 1_555
C17_74 C18_74 1_555 1_555
C19_74 C20_74 1_555 1_555
C22_74 C23_74 1_555 1_555
C24_74 C25_74 1_555 1_555
N12_35 C28_35 1_555 1_555
C37_35 C42_35 1_555 1_555
C38_35 C43_35 1_555 1_555
C47_35 C52_35 1_555 1_555
C48_35 C53_35 1_555 1_555
C61_74 C62_74 1_555 1_555
C65_74 N25_74 1_555 1_555
C67_74 C68_74 1_555 1_555
C69_74 C70_74 1_555 1_555
C72_74 C73_74 1_555 1_555
C74_74 C75_74 1_555 1_555
N1_36 C1_36 1_555 1_555
C1_36 C4_36 1_555 1_555
N2_36 C2_36 1_555 1_555
C2_36 H1_36 1_555 1_555
C3_36 C2_36 1_555 1_555
H2_36 C3_36 1_555 1_555
C4_36 C3_36 1_555 1_555
C5_36 C4_36 1_555 1_555
H3_36 C5_36 1_555 1_555
C6_36 N2_36 1_555 1_555
H4_36 C6_36 1_555 1_555
Co4_14 N2_36 1_555 1_555
N3_75 Co4_14 1_555 1_555
C7_75 N3_75 1_555 1_555
S1_75 C7_75 1_555 1_555
N4_75 Co4_14 1_555 1_555
C8_75 N4_75 1_555 1_555
H5_75 C8_75 1_555 1_555
C9_75 C8_75 1_555 1_555
H6_75 C9_75 1_555 1_555
C10_75 C9_75 1_555 1_555
C11_75 C10_75 1_555 1_555
H7_75 C11_75 1_555 1_555
C12_75 N4_75 1_555 1_555
H8_75 C12_75 1_555 1_555
C13_75 N5_75 1_555 1_555
N5_75 C14_75 1_555 1_555
C14_75 C10_75 1_555 1_555
N6_75 C14_75 1_555 1_555
C15_75 N6_75 1_555 1_555
N7_75 C13_75 1_555 1_555
N28_26 C16_75 1_555 1_555
C16_75 H9_75 1_555 1_555
C17_75 C16_75 1_555 1_555
H10_75 C17_75 1_555 1_555
C18_75 C13_75 1_555 1_555
C19_75 C18_75 1_555 1_555
H11_75 C19_75 1_555 1_555
C20_75 N28_26 1_555 1_555
H12_75 C20_75 1_555 1_555
N32_21 C21_75 1_555 1_555
C21_75 H13_75 1_555 1_555
C22_75 C21_75 1_555 1_555
H14_75 C22_75 1_555 1_555
C23_75 C15_75 1_555 1_555
C24_75 C23_75 1_555 1_555
H15_75 C24_75 1_555 1_555
C25_75 N32_21 1_555 1_555
H16_75 C25_75 1_555 1_555
N11_36 C1_36 1_555 1_555
N12_36 C27_36 1_555 1_555
C27_36 N11_36 1_555 1_555
C28_36 N1_36 1_555 1_555
N16_36 C32_36 1_555 1_555
N17_36 C33_36 1_555 1_555
C32_36 H17_36 1_555 1_555
C33_36 H18_36 1_555 1_555
C37_36 C32_36 1_555 1_555
C38_36 C33_36 1_555 1_555
H22_36 C37_36 1_555 1_555
H23_36 C38_36 1_555 1_555
C42_36 C28_36 1_555 1_555
C43_36 C27_36 1_555 1_555
C47_36 C42_36 1_555 1_555
C48_36 C43_36 1_555 1_555
H27_36 C47_36 1_555 1_555
H28_36 C48_36 1_555 1_555
C52_36 N16_36 1_555 1_555
C53_36 N17_36 1_555 1_555
H32_36 C52_36 1_555 1_555
H33_36 C53_36 1_555 1_555
Co3_23 N16_36 1_555 1_555
Co5_14 N17_36 1_555 1_555
N21_75 Co4_14 1_555 1_555
C57_75 N21_75 1_555 1_555
S3_75 C57_75 1_555 1_555
N22_75 Co4_14 1_555 1_555
C58_75 N22_75 1_555 1_555
H37_75 C58_75 1_555 1_555
C59_75 C58_75 1_555 1_555
H38_75 C59_75 1_555 1_555
C60_75 C59_75 1_555 1_555
C61_75 C60_75 1_555 1_555
H39_75 C61_75 1_555 1_555
C62_75 N22_75 1_555 1_555
H40_75 C62_75 1_555 1_555
C63_75 N23_75 1_555 1_555
N23_75 C64_75 1_555 1_555
C64_75 C60_75 1_555 1_555
N24_75 C64_75 1_555 1_555
C65_75 N24_75 1_555 1_555
N25_75 C63_75 1_555 1_555
N28_42 C66_75 1_555 1_555
C66_75 H41_75 1_555 1_555
C67_75 C66_75 1_555 1_555
H42_75 C67_75 1_555 1_555
C68_75 C63_75 1_555 1_555
C69_75 C68_75 1_555 1_555
H43_75 C69_75 1_555 1_555
C70_75 N28_42 1_555 1_555
H44_75 C70_75 1_555 1_555
N32 C71_75 1_555 1_555
C71_75 H45_75 1_555 1_555
C72_75 C71_75 1_555 1_555
H46_75 C72_75 1_555 1_555
C73_75 C65_75 1_555 1_555
C74_75 C73_75 1_555 1_555
H47_75 C74_75 1_555 1_555
C75_75 N32 1_555 1_555
H48_75 C75_75 1_555 1_555
C5_36 C6_36 1_555 1_555
C11_75 C12_75 1_555 1_555
C15_75 N7_75 1_555 1_555
C17_75 C18_75 1_555 1_555
C19_75 C20_75 1_555 1_555
C22_75 C23_75 1_555 1_555
C24_75 C25_75 1_555 1_555
N12_36 C28_36 1_555 1_555
C37_36 C42_36 1_555 1_555
C38_36 C43_36 1_555 1_555
C47_36 C52_36 1_555 1_555
C48_36 C53_36 1_555 1_555
C61_75 C62_75 1_555 1_555
C65_75 N25_75 1_555 1_555
C67_75 C68_75 1_555 1_555
C69_75 C70_75 1_555 1_555
C72_75 C73_75 1_555 1_555
C74_75 C75_75 1_555 1_555
N1_37 C1_37 1_555 1_555
C1_37 C4_37 1_555 1_555
N2_37 C2_37 1_555 1_555
C2_37 H1_37 1_555 1_555
C3_37 C2_37 1_555 1_555
H2_37 C3_37 1_555 1_555
C4_37 C3_37 1_555 1_555
C5_37 C4_37 1_555 1_555
H3_37 C5_37 1_555 1_555
C6_37 N2_37 1_555 1_555
H4_37 C6_37 1_555 1_555
S1_76 C7_76 1_555 1_555
N11_37 C1_37 1_555 1_555
N12_37 C27_37 1_555 1_555
N13_23 C29_23 1_555 1_555
N14_23 C29_23 1_555 1_555
N15_23 C30_23 1_555 1_555
C27_37 N11_37 1_555 1_555
C28_37 N1_37 1_555 1_555
C29_23 C44_23 1_555 1_555
C30_23 N14_23 1_555 1_555
C31_23 N13_23 1_555 1_555
N16_37 C32_37 1_555 1_555
N17_37 C33_37 1_555 1_555
N19_23 C35_23 1_555 1_555
N20_23 C36_23 1_555 1_555
C32_37 H17_37 1_555 1_555
C33_37 H18_37 1_555 1_555
C34_23 N18_23 1_555 1_555
C35_23 H20_23 1_555 1_555
C36_23 H21_23 1_555 1_555
H19_23 C34_23 1_555 1_555
C37_37 C32_37 1_555 1_555
C38_37 C33_37 1_555 1_555
C39_23 C34_23 1_555 1_555
C40_23 C35_23 1_555 1_555
C41_23 C36_23 1_555 1_555
H22_37 C37_37 1_555 1_555
H23_37 C38_37 1_555 1_555
H24_23 C39_23 1_555 1_555
H25_23 C40_23 1_555 1_555
H26_23 C41_23 1_555 1_555
C42_37 C28_37 1_555 1_555
C43_37 C27_37 1_555 1_555
C44_23 C39_23 1_555 1_555
C45_23 C31_23 1_555 1_555
C46_23 C30_23 1_555 1_555
C47_37 C42_37 1_555 1_555
C48_37 C43_37 1_555 1_555
C49_23 C44_23 1_555 1_555
C50_23 C45_23 1_555 1_555
C51_23 C46_23 1_555 1_555
H27_37 C47_37 1_555 1_555
H28_37 C48_37 1_555 1_555
H29_23 C49_23 1_555 1_555
H30_23 C50_23 1_555 1_555
H31_23 C51_23 1_555 1_555
C52_37 N16_37 1_555 1_555
C53_37 N17_37 1_555 1_555
C54_23 N18_23 1_555 1_555
C55_23 N19_23 1_555 1_555
C56_23 N20_23 1_555 1_555
H32_37 C52_37 1_555 1_555
H33_37 C53_37 1_555 1_555
H34_23 C54_23 1_555 1_555
H35_23 C55_23 1_555 1_555
H36_23 C56_23 1_555 1_555
Co4_16 N17_37 1_555 1_555
Co5_16 N19_23 1_555 1_555
S3_76 C57_76 1_555 1_555
C5_37 C6_37 1_555 1_555
N12_37 C28_37 1_555 1_555
N15_23 C31_23 1_555 1_555
C37_37 C42_37 1_555 1_555
C38_37 C43_37 1_555 1_555
C40_23 C45_23 1_555 1_555
C41_23 C46_23 1_555 1_555
C47_37 C52_37 1_555 1_555
C48_37 C53_37 1_555 1_555
C49_23 C54_23 1_555 1_555
C50_23 C55_23 1_555 1_555
C51_23 C56_23 1_555 1_555
N3_76 Co1_21 1_555 1_555
N4_76 Co1_21 1_555 1_555
C8_76 N4_76 1_555 1_555
H5_76 C8_76 1_555 1_555
C9_76 C8_76 1_555 1_555
H6_76 C9_76 1_555 1_555
C10_76 C9_76 1_555 1_555
C11_76 C10_76 1_555 1_555
H7_76 C11_76 1_555 1_555
C12_76 N4_76 1_555 1_555
H8_76 C12_76 1_555 1_555
C13_76 N5_76 1_555 1_555
N5_76 C14_76 1_555 1_555
C14_76 C10_76 1_555 1_555
N6_76 C14_76 1_555 1_555
C15_76 N6_76 1_555 1_555
N7_76 C13_76 1_555 1_555
N28_41 C16_76 1_555 1_555
C16_76 H9_76 1_555 1_555
C17_76 C16_76 1_555 1_555
H10_76 C17_76 1_555 1_555
C18_76 C13_76 1_555 1_555
C19_76 C18_76 1_555 1_555
H11_76 C19_76 1_555 1_555
C20_76 N28_41 1_555 1_555
H12_76 C20_76 1_555 1_555
N32_30 C21_76 1_555 1_555
C21_76 H13_76 1_555 1_555
C22_76 C21_76 1_555 1_555
H14_76 C22_76 1_555 1_555
C23_76 C15_76 1_555 1_555
C24_76 C23_76 1_555 1_555
H15_76 C24_76 1_555 1_555
C25_76 N32_30 1_555 1_555
H16_76 C25_76 1_555 1_555
N21_76 Co1_21 1_555 1_555
N22_76 Co1_21 1_555 1_555
C58_76 N22_76 1_555 1_555
H37_76 C58_76 1_555 1_555
C59_76 C58_76 1_555 1_555
H38_76 C59_76 1_555 1_555
C60_76 C59_76 1_555 1_555
C61_76 C60_76 1_555 1_555
H39_76 C61_76 1_555 1_555
C62_76 N22_76 1_555 1_555
H40_76 C62_76 1_555 1_555
C63_76 N23_76 1_555 1_555
N23_76 C64_76 1_555 1_555
C64_76 C60_76 1_555 1_555
N24_76 C64_76 1_555 1_555
C65_76 N24_76 1_555 1_555
N25_76 C63_76 1_555 1_555
N29_39 C66_76 1_555 1_555
C66_76 H41_76 1_555 1_555
C67_76 C66_76 1_555 1_555
H42_76 C67_76 1_555 1_555
C68_76 C63_76 1_555 1_555
C69_76 C68_76 1_555 1_555
H43_76 C69_76 1_555 1_555
C70_76 N29_39 1_555 1_555
H44_76 C70_76 1_555 1_555
N32_25 C71_76 1_555 1_555
C71_76 H45_76 1_555 1_555
C72_76 C71_76 1_555 1_555
H46_76 C72_76 1_555 1_555
C73_76 C65_76 1_555 1_555
C74_76 C73_76 1_555 1_555
H47_76 C74_76 1_555 1_555
C75_76 N32_25 1_555 1_555
H48_76 C75_76 1_555 1_555
C11_76 C12_76 1_555 1_555
C15_76 N7_76 1_555 1_555
C17_76 C18_76 1_555 1_555
C19_76 C20_76 1_555 1_555
C22_76 C23_76 1_555 1_555
C24_76 C25_76 1_555 1_555
C61_76 C62_76 1_555 1_555
C65_76 N25_76 1_555 1_555
C67_76 C68_76 1_555 1_555
C69_76 C70_76 1_555 1_555
C72_76 C73_76 1_555 1_555
C74_76 C75_76 1_555 1_555
N3_77 Co3_16 1_555 1_555
N4_77 Co3_16 1_555 1_555
C8_77 N4_77 1_555 1_555
H5_77 C8_77 1_555 1_555
C9_77 C8_77 1_555 1_555
H6_77 C9_77 1_555 1_555
C10_77 C9_77 1_555 1_555
C11_77 C10_77 1_555 1_555
H7_77 C11_77 1_555 1_555
C12_77 N4_77 1_555 1_555
H8_77 C12_77 1_555 1_555
C13_77 N5_77 1_555 1_555
N5_77 C14_77 1_555 1_555
C14_77 C10_77 1_555 1_555
N6_77 C14_77 1_555 1_555
C15_77 N6_77 1_555 1_555
N7_77 C13_77 1_555 1_555
N29_20 C16_77 1_555 1_555
C16_77 H9_77 1_555 1_555
C17_77 C16_77 1_555 1_555
H10_77 C17_77 1_555 1_555
C18_77 C13_77 1_555 1_555
C19_77 C18_77 1_555 1_555
H11_77 C19_77 1_555 1_555
C20_77 N29_20 1_555 1_555
H12_77 C20_77 1_555 1_555
N32_13 C21_77 1_555 1_555
C21_77 H13_77 1_555 1_555
C22_77 C21_77 1_555 1_555
H14_77 C22_77 1_555 1_555
C23_77 C15_77 1_555 1_555
C24_77 C23_77 1_555 1_555
H15_77 C24_77 1_555 1_555
C25_77 N32_13 1_555 1_555
H16_77 C25_77 1_555 1_555
N21_77 Co3_16 1_555 1_555
N22_77 Co3_16 1_555 1_555
C58_77 N22_77 1_555 1_555
H37_77 C58_77 1_555 1_555
C59_77 C58_77 1_555 1_555
H38_77 C59_77 1_555 1_555
C60_77 C59_77 1_555 1_555
C61_77 C60_77 1_555 1_555
H39_77 C61_77 1_555 1_555
C62_77 N22_77 1_555 1_555
H40_77 C62_77 1_555 1_555
C63_77 N23_77 1_555 1_555
N23_77 C64_77 1_555 1_555
C64_77 C60_77 1_555 1_555
N24_77 C64_77 1_555 1_555
C65_77 N24_77 1_555 1_555
N25_77 C63_77 1_555 1_555
N28_24 C66_77 1_555 1_555
C66_77 H41_77 1_555 1_555
C67_77 C66_77 1_555 1_555
H42_77 C67_77 1_555 1_555
C68_77 C63_77 1_555 1_555
C69_77 C68_77 1_555 1_555
H43_77 C69_77 1_555 1_555
C70_77 N28_24 1_555 1_555
H44_77 C70_77 1_555 1_555
N31_37 C71_77 1_555 1_555
C71_77 H45_77 1_555 1_555
C72_77 C71_77 1_555 1_555
H46_77 C72_77 1_555 1_555
C73_77 C65_77 1_555 1_555
C74_77 C73_77 1_555 1_555
H47_77 C74_77 1_555 1_555
C75_77 N31_37 1_555 1_555
H48_77 C75_77 1_555 1_555
C11_77 C12_77 1_555 1_555
C15_77 N7_77 1_555 1_555
C17_77 C18_77 1_555 1_555
C19_77 C20_77 1_555 1_555
C22_77 C23_77 1_555 1_555
C24_77 C25_77 1_555 1_555
C61_77 C62_77 1_555 1_555
C65_77 N25_77 1_555 1_555
C67_77 C68_77 1_555 1_555
C69_77 C70_77 1_555 1_555
C72_77 C73_77 1_555 1_555
C74_77 C75_77 1_555 1_555
N1_38 C1_38 1_555 1_555
C1_38 C4_38 1_555 1_555
N2_38 C2_38 1_555 1_555
C2_38 H1_38 1_555 1_555
C3_38 C2_38 1_555 1_555
H2_38 C3_38 1_555 1_555
C4_38 C3_38 1_555 1_555
C5_38 C4_38 1_555 1_555
H3_38 C5_38 1_555 1_555
C6_38 N2_38 1_555 1_555
H4_38 C6_38 1_555 1_555
S1_77 C7_77 1_555 1_555
N11_38 C1_38 1_555 1_555
N12_38 C27_38 1_555 1_555
C27_38 N11_38 1_555 1_555
C28_38 N1_38 1_555 1_555
N16_38 C32_38 1_555 1_555
N17_38 C33_38 1_555 1_555
C32_38 H17_38 1_555 1_555
C33_38 H18_38 1_555 1_555
C37_38 C32_38 1_555 1_555
C38_38 C33_38 1_555 1_555
H22_38 C37_38 1_555 1_555
H23_38 C38_38 1_555 1_555
C42_38 C28_38 1_555 1_555
C43_38 C27_38 1_555 1_555
C47_38 C42_38 1_555 1_555
C48_38 C43_38 1_555 1_555
H27_38 C47_38 1_555 1_555
H28_38 C48_38 1_555 1_555
C52_38 N16_38 1_555 1_555
C53_38 N17_38 1_555 1_555
H32_38 C52_38 1_555 1_555
H33_38 C53_38 1_555 1_555
Co6_12 N16_38 1_555 1_555
Co6_16 N17_38 1_555 1_555
S3_77 C57_77 1_555 1_555
C5_38 C6_38 1_555 1_555
N12_38 C28_38 1_555 1_555
C37_38 C42_38 1_555 1_555
C38_38 C43_38 1_555 1_555
C47_38 C52_38 1_555 1_555
C48_38 C53_38 1_555 1_555
N1_39 C1_39 1_555 1_555
C1_39 C4_39 1_555 1_555
N2_39 C2_39 1_555 1_555
C2_39 H1_39 1_555 1_555
C3_39 C2_39 1_555 1_555
H2_39 C3_39 1_555 1_555
C4_39 C3_39 1_555 1_555
C5_39 C4_39 1_555 1_555
H3_39 C5_39 1_555 1_555
C6_39 N2_39 1_555 1_555
H4_39 C6_39 1_555 1_555
Co1_22 N2_39 1_555 1_555
N3_78 Co1_22 1_555 1_555
C7_78 N3_78 1_555 1_555
S1_78 C7_78 1_555 1_555
N4_78 Co1_22 1_555 1_555
C8_78 N4_78 1_555 1_555
H5_78 C8_78 1_555 1_555
C9_78 C8_78 1_555 1_555
H6_78 C9_78 1_555 1_555
C10_78 C9_78 1_555 1_555
C11_78 C10_78 1_555 1_555
H7_78 C11_78 1_555 1_555
C12_78 N4_78 1_555 1_555
H8_78 C12_78 1_555 1_555
C13_78 N5_78 1_555 1_555
N5_78 C14_78 1_555 1_555
C14_78 C10_78 1_555 1_555
N6_78 C14_78 1_555 1_555
C15_78 N6_78 1_555 1_555
N7_78 C13_78 1_555 1_555
N29_24 C16_78 1_555 1_555
C16_78 H9_78 1_555 1_555
C17_78 C16_78 1_555 1_555
H10_78 C17_78 1_555 1_555
C18_78 C13_78 1_555 1_555
C19_78 C18_78 1_555 1_555
H11_78 C19_78 1_555 1_555
C20_78 N29_24 1_555 1_555
H12_78 C20_78 1_555 1_555
N31_41 C21_78 1_555 1_555
C21_78 H13_78 1_555 1_555
C22_78 C21_78 1_555 1_555
H14_78 C22_78 1_555 1_555
C23_78 C15_78 1_555 1_555
C24_78 C23_78 1_555 1_555
H15_78 C24_78 1_555 1_555
C25_78 N31_41 1_555 1_555
H16_78 C25_78 1_555 1_555
N11_39 C1_39 1_555 1_555
N12_39 C27_39 1_555 1_555
N13_24 C29_24 1_555 1_555
N14_24 C29_24 1_555 1_555
N15_24 C30_24 1_555 1_555
C27_39 N11_39 1_555 1_555
C28_39 N1_39 1_555 1_555
C29_24 C44_24 1_555 1_555
C30_24 N14_24 1_555 1_555
C31_24 N13_24 1_555 1_555
N16_39 C32_39 1_555 1_555
N17_39 C33_39 1_555 1_555
N18_24 Co1_22 1_555 1_555
N19_24 C35_24 1_555 1_555
N20_24 C36_24 1_555 1_555
C32_39 H17_39 1_555 1_555
C33_39 H18_39 1_555 1_555
C34_24 N18_24 1_555 1_555
C35_24 H20_24 1_555 1_555
C36_24 H21_24 1_555 1_555
H19_24 C34_24 1_555 1_555
C37_39 C32_39 1_555 1_555
C38_39 C33_39 1_555 1_555
C39_24 C34_24 1_555 1_555
C40_24 C35_24 1_555 1_555
C41_24 C36_24 1_555 1_555
H22_39 C37_39 1_555 1_555
H23_39 C38_39 1_555 1_555
H24_24 C39_24 1_555 1_555
H25_24 C40_24 1_555 1_555
H26_24 C41_24 1_555 1_555
C42_39 C28_39 1_555 1_555
C43_39 C27_39 1_555 1_555
C44_24 C39_24 1_555 1_555
C45_24 C31_24 1_555 1_555
C46_24 C30_24 1_555 1_555
C47_39 C42_39 1_555 1_555
C48_39 C43_39 1_555 1_555
C49_24 C44_24 1_555 1_555
C50_24 C45_24 1_555 1_555
C51_24 C46_24 1_555 1_555
H27_39 C47_39 1_555 1_555
H28_39 C48_39 1_555 1_555
H29_24 C49_24 1_555 1_555
H30_24 C50_24 1_555 1_555
H31_24 C51_24 1_555 1_555
C52_39 N16_39 1_555 1_555
C53_39 N17_39 1_555 1_555
C54_24 N18_24 1_555 1_555
C55_24 N19_24 1_555 1_555
C56_24 N20_24 1_555 1_555
H32_39 C52_39 1_555 1_555
H33_39 C53_39 1_555 1_555
H34_24 C54_24 1_555 1_555
H35_24 C55_24 1_555 1_555
H36_24 C56_24 1_555 1_555
Co5_16 N19_24 1_555 1_555
Co4_16 N20_24 1_555 1_555
N21_78 Co1_22 1_555 1_555
C57_78 N21_78 1_555 1_555
S3_78 C57_78 1_555 1_555
N22_78 Co1_22 1_555 1_555
C58_78 N22_78 1_555 1_555
H37_78 C58_78 1_555 1_555
C59_78 C58_78 1_555 1_555
H38_78 C59_78 1_555 1_555
C60_78 C59_78 1_555 1_555
C61_78 C60_78 1_555 1_555
H39_78 C61_78 1_555 1_555
C62_78 N22_78 1_555 1_555
H40_78 C62_78 1_555 1_555
C63_78 N23_78 1_555 1_555
N23_78 C64_78 1_555 1_555
C64_78 C60_78 1_555 1_555
N24_78 C64_78 1_555 1_555
C65_78 N24_78 1_555 1_555
N25_78 C63_78 1_555 1_555
N29_16 C66_78 1_555 1_555
C66_78 H41_78 1_555 1_555
C67_78 C66_78 1_555 1_555
H42_78 C67_78 1_555 1_555
C68_78 C63_78 1_555 1_555
C69_78 C68_78 1_555 1_555
H43_78 C69_78 1_555 1_555
C70_78 N29_16 1_555 1_555
H44_78 C70_78 1_555 1_555
N31_36 C71_78 1_555 1_555
C71_78 H45_78 1_555 1_555
C72_78 C71_78 1_555 1_555
H46_78 C72_78 1_555 1_555
C73_78 C65_78 1_555 1_555
C74_78 C73_78 1_555 1_555
H47_78 C74_78 1_555 1_555
C75_78 N31_36 1_555 1_555
H48_78 C75_78 1_555 1_555
C5_39 C6_39 1_555 1_555
C11_78 C12_78 1_555 1_555
C15_78 N7_78 1_555 1_555
C17_78 C18_78 1_555 1_555
C19_78 C20_78 1_555 1_555
C22_78 C23_78 1_555 1_555
C24_78 C25_78 1_555 1_555
N12_39 C28_39 1_555 1_555
N15_24 C31_24 1_555 1_555
C37_39 C42_39 1_555 1_555
C38_39 C43_39 1_555 1_555
C40_24 C45_24 1_555 1_555
C41_24 C46_24 1_555 1_555
C47_39 C52_39 1_555 1_555
C48_39 C53_39 1_555 1_555
C49_24 C54_24 1_555 1_555
C50_24 C55_24 1_555 1_555
C51_24 C56_24 1_555 1_555
C61_78 C62_78 1_555 1_555
C65_78 N25_78 1_555 1_555
C67_78 C68_78 1_555 1_555
C69_78 C70_78 1_555 1_555
C72_78 C73_78 1_555 1_555
C74_78 C75_78 1_555 1_555
N3_79 Co5_16 1_555 1_555
C7_79 N3_79 1_555 1_555
S1_79 C7_79 1_555 1_555
N4_79 Co5_16 1_555 1_555
C8_79 N4_79 1_555 1_555
H5_79 C8_79 1_555 1_555
C9_79 C8_79 1_555 1_555
H6_79 C9_79 1_555 1_555
C10_79 C9_79 1_555 1_555
C11_79 C10_79 1_555 1_555
H7_79 C11_79 1_555 1_555
C12_79 N4_79 1_555 1_555
H8_79 C12_79 1_555 1_555
C13_79 N5_79 1_555 1_555
N5_79 C14_79 1_555 1_555
C14_79 C10_79 1_555 1_555
N6_79 C14_79 1_555 1_555
C15_79 N6_79 1_555 1_555
N7_79 C13_79 1_555 1_555
N28_22 C16_79 1_555 1_555
C16_79 H9_79 1_555 1_555
C17_79 C16_79 1_555 1_555
H10_79 C17_79 1_555 1_555
C18_79 C13_79 1_555 1_555
C19_79 C18_79 1_555 1_555
H11_79 C19_79 1_555 1_555
C20_79 N28_22 1_555 1_555
H12_79 C20_79 1_555 1_555
N31_22 C21_79 1_555 1_555
C21_79 H13_79 1_555 1_555
C22_79 C21_79 1_555 1_555
H14_79 C22_79 1_555 1_555
C23_79 C15_79 1_555 1_555
C24_79 C23_79 1_555 1_555
H15_79 C24_79 1_555 1_555
C25_79 N31_22 1_555 1_555
H16_79 C25_79 1_555 1_555
N21_79 Co5_16 1_555 1_555
C57_79 N21_79 1_555 1_555
S3_79 C57_79 1_555 1_555
N22_79 Co5_16 1_555 1_555
C58_79 N22_79 1_555 1_555
H37_79 C58_79 1_555 1_555
C59_79 C58_79 1_555 1_555
H38_79 C59_79 1_555 1_555
C60_79 C59_79 1_555 1_555
C61_79 C60_79 1_555 1_555
H39_79 C61_79 1_555 1_555
C62_79 N22_79 1_555 1_555
H40_79 C62_79 1_555 1_555
C63_79 N23_79 1_555 1_555
N23_79 C64_79 1_555 1_555
C64_79 C60_79 1_555 1_555
N24_79 C64_79 1_555 1_555
C65_79 N24_79 1_555 1_555
N25_79 C63_79 1_555 1_555
N29_3 C66_79 1_555 1_555
C66_79 H41_79 1_555 1_555
C67_79 C66_79 1_555 1_555
H42_79 C67_79 1_555 1_555
C68_79 C63_79 1_555 1_555
C69_79 C68_79 1_555 1_555
H43_79 C69_79 1_555 1_555
C70_79 N29_3 1_555 1_555
H44_79 C70_79 1_555 1_555
N31_21 C71_79 1_555 1_555
C71_79 H45_79 1_555 1_555
C72_79 C71_79 1_555 1_555
H46_79 C72_79 1_555 1_555
C73_79 C65_79 1_555 1_555
C74_79 C73_79 1_555 1_555
H47_79 C74_79 1_555 1_555
C75_79 N31_21 1_555 1_555
H48_79 C75_79 1_555 1_555
C11_79 C12_79 1_555 1_555
C15_79 N7_79 1_555 1_555
C17_79 C18_79 1_555 1_555
C19_79 C20_79 1_555 1_555
C22_79 C23_79 1_555 1_555
C24_79 C25_79 1_555 1_555
C61_79 C62_79 1_555 1_555
C65_79 N25_79 1_555 1_555
C67_79 C68_79 1_555 1_555
C69_79 C70_79 1_555 1_555
C72_79 C73_79 1_555 1_555
C74_79 C75_79 1_555 1_555
N3_80 Co5_14 1_555 1_555
C7_80 N3_80 1_555 1_555
S1_80 C7_80 1_555 1_555
N4_80 Co5_14 1_555 1_555
C8_80 N4_80 1_555 1_555
H5_80 C8_80 1_555 1_555
C9_80 C8_80 1_555 1_555
H6_80 C9_80 1_555 1_555
C10_80 C9_80 1_555 1_555
C11_80 C10_80 1_555 1_555
H7_80 C11_80 1_555 1_555
C12_80 N4_80 1_555 1_555
H8_80 C12_80 1_555 1_555
C13_80 N5_80 1_555 1_555
N5_80 C14_80 1_555 1_555
C14_80 C10_80 1_555 1_555
N6_80 C14_80 1_555 1_555
C15_80 N6_80 1_555 1_555
N7_80 C13_80 1_555 1_555
N28_17 C16_80 1_555 1_555
C16_80 H9_80 1_555 1_555
C17_80 C16_80 1_555 1_555
H10_80 C17_80 1_555 1_555
C18_80 C13_80 1_555 1_555
C19_80 C18_80 1_555 1_555
H11_80 C19_80 1_555 1_555
C20_80 N28_17 1_555 1_555
H12_80 C20_80 1_555 1_555
N31_17 C21_80 1_555 1_555
C21_80 H13_80 1_555 1_555
C22_80 C21_80 1_555 1_555
H14_80 C22_80 1_555 1_555
C23_80 C15_80 1_555 1_555
C24_80 C23_80 1_555 1_555
H15_80 C24_80 1_555 1_555
C25_80 N31_17 1_555 1_555
H16_80 C25_80 1_555 1_555
N21_80 Co5_14 1_555 1_555
C57_80 N21_80 1_555 1_555
S3_80 C57_80 1_555 1_555
N22_80 Co5_14 1_555 1_555
C58_80 N22_80 1_555 1_555
H37_80 C58_80 1_555 1_555
C59_80 C58_80 1_555 1_555
H38_80 C59_80 1_555 1_555
C60_80 C59_80 1_555 1_555
C61_80 C60_80 1_555 1_555
H39_80 C61_80 1_555 1_555
C62_80 N22_80 1_555 1_555
H40_80 C62_80 1_555 1_555
C63_80 N23_80 1_555 1_555
N23_80 C64_80 1_555 1_555
C64_80 C60_80 1_555 1_555
N24_80 C64_80 1_555 1_555
C65_80 N24_80 1_555 1_555
N25_80 C63_80 1_555 1_555
N28_16 C66_80 1_555 1_555
C66_80 H41_80 1_555 1_555
C67_80 C66_80 1_555 1_555
H42_80 C67_80 1_555 1_555
C68_80 C63_80 1_555 1_555
C69_80 C68_80 1_555 1_555
H43_80 C69_80 1_555 1_555
C70_80 N28_16 1_555 1_555
H44_80 C70_80 1_555 1_555
N31_18 C71_80 1_555 1_555
C71_80 H45_80 1_555 1_555
C72_80 C71_80 1_555 1_555
H46_80 C72_80 1_555 1_555
C73_80 C65_80 1_555 1_555
C74_80 C73_80 1_555 1_555
H47_80 C74_80 1_555 1_555
C75_80 N31_18 1_555 1_555
H48_80 C75_80 1_555 1_555
C11_80 C12_80 1_555 1_555
C15_80 N7_80 1_555 1_555
C17_80 C18_80 1_555 1_555
C19_80 C20_80 1_555 1_555
C22_80 C23_80 1_555 1_555
C24_80 C25_80 1_555 1_555
C61_80 C62_80 1_555 1_555
C65_80 N25_80 1_555 1_555
C67_80 C68_80 1_555 1_555
C69_80 C70_80 1_555 1_555
C72_80 C73_80 1_555 1_555
C74_80 C75_80 1_555 1_555
S1_81 C7_81 1_555 1_555
S3_81 C57_81 1_555 1_555
N3_81 Co6_18 1_555 1_555
N4_81 Co6_18 1_555 1_555
C8_81 N4_81 1_555 1_555
H5_81 C8_81 1_555 1_555
C9_81 C8_81 1_555 1_555
H6_81 C9_81 1_555 1_555
C10_81 C9_81 1_555 1_555
C11_81 C10_81 1_555 1_555
H7_81 C11_81 1_555 1_555
C12_81 N4_81 1_555 1_555
H8_81 C12_81 1_555 1_555
C13_81 N5_81 1_555 1_555
N5_81 C14_81 1_555 1_555
C14_81 C10_81 1_555 1_555
N6_81 C14_81 1_555 1_555
C15_81 N6_81 1_555 1_555
N7_81 C13_81 1_555 1_555
N29_32 C16_81 1_555 1_555
C16_81 H9_81 1_555 1_555
C17_81 C16_81 1_555 1_555
H10_81 C17_81 1_555 1_555
C18_81 C13_81 1_555 1_555
C19_81 C18_81 1_555 1_555
H11_81 C19_81 1_555 1_555
C20_81 N29_32 1_555 1_555
H12_81 C20_81 1_555 1_555
N32_37 C21_81 1_555 1_555
C21_81 H13_81 1_555 1_555
C22_81 C21_81 1_555 1_555
H14_81 C22_81 1_555 1_555
C23_81 C15_81 1_555 1_555
C24_81 C23_81 1_555 1_555
H15_81 C24_81 1_555 1_555
C25_81 N32_37 1_555 1_555
H16_81 C25_81 1_555 1_555
N21_81 Co6_18 1_555 1_555
N22_81 Co6_18 1_555 1_555
C58_81 N22_81 1_555 1_555
H37_81 C58_81 1_555 1_555
C59_81 C58_81 1_555 1_555
H38_81 C59_81 1_555 1_555
C60_81 C59_81 1_555 1_555
C61_81 C60_81 1_555 1_555
H39_81 C61_81 1_555 1_555
C62_81 N22_81 1_555 1_555
H40_81 C62_81 1_555 1_555
C63_81 N23_81 1_555 1_555
N23_81 C64_81 1_555 1_555
C64_81 C60_81 1_555 1_555
N24_81 C64_81 1_555 1_555
C65_81 N24_81 1_555 1_555
N25_81 C63_81 1_555 1_555
N28_46 C66_81 1_555 1_555
C66_81 H41_81 1_555 1_555
C67_81 C66_81 1_555 1_555
H42_81 C67_81 1_555 1_555
C68_81 C63_81 1_555 1_555
C69_81 C68_81 1_555 1_555
H43_81 C69_81 1_555 1_555
C70_81 N28_46 1_555 1_555
H44_81 C70_81 1_555 1_555
N32_31 C71_81 1_555 1_555
C71_81 H45_81 1_555 1_555
C72_81 C71_81 1_555 1_555
H46_81 C72_81 1_555 1_555
C73_81 C65_81 1_555 1_555
C74_81 C73_81 1_555 1_555
H47_81 C74_81 1_555 1_555
C75_81 N32_31 1_555 1_555
H48_81 C75_81 1_555 1_555
C11_81 C12_81 1_555 1_555
C15_81 N7_81 1_555 1_555
C17_81 C18_81 1_555 1_555
C19_81 C20_81 1_555 1_555
C22_81 C23_81 1_555 1_555
C24_81 C25_81 1_555 1_555
C61_81 C62_81 1_555 1_555
C65_81 N25_81 1_555 1_555
C67_81 C68_81 1_555 1_555
C69_81 C70_81 1_555 1_555
C72_81 C73_81 1_555 1_555
C74_81 C75_81 1_555 1_555
S1_82 C7_82 1_555 1_555
S3_82 C57_82 1_555 1_555
N3_82 Co3_24 1_555 1_555
N4_82 Co3_24 1_555 1_555
C8_82 N4_82 1_555 1_555
H5_82 C8_82 1_555 1_555
C9_82 C8_82 1_555 1_555
H6_82 C9_82 1_555 1_555
C10_82 C9_82 1_555 1_555
C11_82 C10_82 1_555 1_555
H7_82 C11_82 1_555 1_555
C12_82 N4_82 1_555 1_555
H8_82 C12_82 1_555 1_555
C13_82 N5_82 1_555 1_555
N5_82 C14_82 1_555 1_555
C14_82 C10_82 1_555 1_555
N6_82 C14_82 1_555 1_555
C15_82 N6_82 1_555 1_555
N7_82 C13_82 1_555 1_555
N28_14 C16_82 1_555 1_555
C16_82 H9_82 1_555 1_555
C17_82 C16_82 1_555 1_555
H10_82 C17_82 1_555 1_555
C18_82 C13_82 1_555 1_555
C19_82 C18_82 1_555 1_555
H11_82 C19_82 1_555 1_555
C20_82 N28_14 1_555 1_555
H12_82 C20_82 1_555 1_555
N32_39 C21_82 1_555 1_555
C21_82 H13_82 1_555 1_555
C22_82 C21_82 1_555 1_555
H14_82 C22_82 1_555 1_555
C23_82 C15_82 1_555 1_555
C24_82 C23_82 1_555 1_555
H15_82 C24_82 1_555 1_555
C25_82 N32_39 1_555 1_555
H16_82 C25_82 1_555 1_555
N21_82 Co3_24 1_555 1_555
N22_82 Co3_24 1_555 1_555
C58_82 N22_82 1_555 1_555
H37_82 C58_82 1_555 1_555
C59_82 C58_82 1_555 1_555
H38_82 C59_82 1_555 1_555
C60_82 C59_82 1_555 1_555
C61_82 C60_82 1_555 1_555
H39_82 C61_82 1_555 1_555
C62_82 N22_82 1_555 1_555
H40_82 C62_82 1_555 1_555
C63_82 N23_82 1_555 1_555
N23_82 C64_82 1_555 1_555
C64_82 C60_82 1_555 1_555
N24_82 C64_82 1_555 1_555
C65_82 N24_82 1_555 1_555
N25_82 C63_82 1_555 1_555
N29_19 C66_82 1_555 1_555
C66_82 H41_82 1_555 1_555
C67_82 C66_82 1_555 1_555
H42_82 C67_82 1_555 1_555
C68_82 C63_82 1_555 1_555
C69_82 C68_82 1_555 1_555
H43_82 C69_82 1_555 1_555
C70_82 N29_19 1_555 1_555
H44_82 C70_82 1_555 1_555
N31_14 C71_82 1_555 1_555
C71_82 H45_82 1_555 1_555
C72_82 C71_82 1_555 1_555
H46_82 C72_82 1_555 1_555
C73_82 C65_82 1_555 1_555
C74_82 C73_82 1_555 1_555
H47_82 C74_82 1_555 1_555
C75_82 N31_14 1_555 1_555
H48_82 C75_82 1_555 1_555
C11_82 C12_82 1_555 1_555
C15_82 N7_82 1_555 1_555
C17_82 C18_82 1_555 1_555
C19_82 C20_82 1_555 1_555
C22_82 C23_82 1_555 1_555
C24_82 C25_82 1_555 1_555
C61_82 C62_82 1_555 1_555
C65_82 N25_82 1_555 1_555
C67_82 C68_82 1_555 1_555
C69_82 C70_82 1_555 1_555
C72_82 C73_82 1_555 1_555
C74_82 C75_82 1_555 1_555
N3_83 Co5_12 1_555 1_555
N4_83 Co5_12 1_555 1_555
C8_83 N4_83 1_555 1_555
H5_83 C8_83 1_555 1_555
C9_83 C8_83 1_555 1_555
H6_83 C9_83 1_555 1_555
C10_83 C9_83 1_555 1_555
C11_83 C10_83 1_555 1_555
H7_83 C11_83 1_555 1_555
C12_83 N4_83 1_555 1_555
H8_83 C12_83 1_555 1_555
C13_83 N5_83 1_555 1_555
N5_83 C14_83 1_555 1_555
C14_83 C10_83 1_555 1_555
N6_83 C14_83 1_555 1_555
C15_83 N6_83 1_555 1_555
N7_83 C13_83 1_555 1_555
N28_30 C16_83 1_555 1_555
C16_83 H9_83 1_555 1_555
C17_83 C16_83 1_555 1_555
H10_83 C17_83 1_555 1_555
C18_83 C13_83 1_555 1_555
C19_83 C18_83 1_555 1_555
H11_83 C19_83 1_555 1_555
C20_83 N28_30 1_555 1_555
H12_83 C20_83 1_555 1_555
N31_40 C21_83 1_555 1_555
C21_83 H13_83 1_555 1_555
C22_83 C21_83 1_555 1_555
H14_83 C22_83 1_555 1_555
C23_83 C15_83 1_555 1_555
C24_83 C23_83 1_555 1_555
H15_83 C24_83 1_555 1_555
C25_83 N31_40 1_555 1_555
H16_83 C25_83 1_555 1_555
N21_83 Co5_12 1_555 1_555
N22_83 Co5_12 1_555 1_555
C58_83 N22_83 1_555 1_555
H37_83 C58_83 1_555 1_555
C59_83 C58_83 1_555 1_555
H38_83 C59_83 1_555 1_555
C60_83 C59_83 1_555 1_555
C61_83 C60_83 1_555 1_555
H39_83 C61_83 1_555 1_555
C62_83 N22_83 1_555 1_555
H40_83 C62_83 1_555 1_555
C63_83 N23_83 1_555 1_555
N23_83 C64_83 1_555 1_555
C64_83 C60_83 1_555 1_555
N24_83 C64_83 1_555 1_555
C65_83 N24_83 1_555 1_555
N25_83 C63_83 1_555 1_555
N29_22 C66_83 1_555 1_555
C66_83 H41_83 1_555 1_555
C67_83 C66_83 1_555 1_555
H42_83 C67_83 1_555 1_555
C68_83 C63_83 1_555 1_555
C69_83 C68_83 1_555 1_555
H43_83 C69_83 1_555 1_555
C70_83 N29_22 1_555 1_555
H44_83 C70_83 1_555 1_555
N31_25 C71_83 1_555 1_555
C71_83 H45_83 1_555 1_555
C72_83 C71_83 1_555 1_555
H46_83 C72_83 1_555 1_555
C73_83 C65_83 1_555 1_555
C74_83 C73_83 1_555 1_555
H47_83 C74_83 1_555 1_555
C75_83 N31_25 1_555 1_555
H48_83 C75_83 1_555 1_555
C11_83 C12_83 1_555 1_555
C15_83 N7_83 1_555 1_555
C17_83 C18_83 1_555 1_555
C19_83 C20_83 1_555 1_555
C22_83 C23_83 1_555 1_555
C24_83 C25_83 1_555 1_555
C61_83 C62_83 1_555 1_555
C65_83 N25_83 1_555 1_555
C67_83 C68_83 1_555 1_555
C69_83 C70_83 1_555 1_555
C72_83 C73_83 1_555 1_555
C74_83 C75_83 1_555 1_555
S1_83 C7_83 1_555 1_555
S3_83 C57_83 1_555 1_555
N3_84 Co4_16 1_555 1_555
C7_84 N3_84 1_555 1_555
S1_84 C7_84 1_555 1_555
N4_84 Co4_16 1_555 1_555
C8_84 N4_84 1_555 1_555
H5_84 C8_84 1_555 1_555
C9_84 C8_84 1_555 1_555
H6_84 C9_84 1_555 1_555
C10_84 C9_84 1_555 1_555
C11_84 C10_84 1_555 1_555
H7_84 C11_84 1_555 1_555
C12_84 N4_84 1_555 1_555
H8_84 C12_84 1_555 1_555
C13_84 N5_84 1_555 1_555
N5_84 C14_84 1_555 1_555
C14_84 C10_84 1_555 1_555
N6_84 C14_84 1_555 1_555
C15_84 N6_84 1_555 1_555
N7_84 C13_84 1_555 1_555
N29_26 C16_84 1_555 1_555
C16_84 H9_84 1_555 1_555
C17_84 C16_84 1_555 1_555
H10_84 C17_84 1_555 1_555
C18_84 C13_84 1_555 1_555
C19_84 C18_84 1_555 1_555
H11_84 C19_84 1_555 1_555
C20_84 N29_26 1_555 1_555
H12_84 C20_84 1_555 1_555
N32_18 C21_84 1_555 1_555
C21_84 H13_84 1_555 1_555
C22_84 C21_84 1_555 1_555
H14_84 C22_84 1_555 1_555
C23_84 C15_84 1_555 1_555
C24_84 C23_84 1_555 1_555
H15_84 C24_84 1_555 1_555
C25_84 N32_18 1_555 1_555
H16_84 C25_84 1_555 1_555
N21_84 Co4_16 1_555 1_555
C57_84 N21_84 1_555 1_555
S3_84 C57_84 1_555 1_555
N22_84 Co4_16 1_555 1_555
C58_84 N22_84 1_555 1_555
H37_84 C58_84 1_555 1_555
C59_84 C58_84 1_555 1_555
H38_84 C59_84 1_555 1_555
C60_84 C59_84 1_555 1_555
C61_84 C60_84 1_555 1_555
H39_84 C61_84 1_555 1_555
C62_84 N22_84 1_555 1_555
H40_84 C62_84 1_555 1_555
C63_84 N23_84 1_555 1_555
N23_84 C64_84 1_555 1_555
C64_84 C60_84 1_555 1_555
N24_84 C64_84 1_555 1_555
C65_84 N24_84 1_555 1_555
N25_84 C63_84 1_555 1_555
N29_12 C66_84 1_555 1_555
C66_84 H41_84 1_555 1_555
C67_84 C66_84 1_555 1_555
H42_84 C67_84 1_555 1_555
C68_84 C63_84 1_555 1_555
C69_84 C68_84 1_555 1_555
H43_84 C69_84 1_555 1_555
C70_84 N29_12 1_555 1_555
H44_84 C70_84 1_555 1_555
N31_29 C71_84 1_555 1_555
C71_84 H45_84 1_555 1_555
C72_84 C71_84 1_555 1_555
H46_84 C72_84 1_555 1_555
C73_84 C65_84 1_555 1_555
C74_84 C73_84 1_555 1_555
H47_84 C74_84 1_555 1_555
C75_84 N31_29 1_555 1_555
H48_84 C75_84 1_555 1_555
C11_84 C12_84 1_555 1_555
C15_84 N7_84 1_555 1_555
C17_84 C18_84 1_555 1_555
C19_84 C20_84 1_555 1_555
C22_84 C23_84 1_555 1_555
C24_84 C25_84 1_555 1_555
C61_84 C62_84 1_555 1_555
C65_84 N25_84 1_555 1_555
C67_84 C68_84 1_555 1_555
C69_84 C70_84 1_555 1_555
C72_84 C73_84 1_555 1_555
C74_84 C75_84 1_555 1_555
N3_85 Co4_11 1_555 1_555
C7_85 N3_85 1_555 1_555
S1_85 C7_85 1_555 1_555
N4_85 Co4_11 1_555 1_555
C8_85 N4_85 1_555 1_555
H5_85 C8_85 1_555 1_555
C9_85 C8_85 1_555 1_555
H6_85 C9_85 1_555 1_555
C10_85 C9_85 1_555 1_555
C11_85 C10_85 1_555 1_555
H7_85 C11_85 1_555 1_555
C12_85 N4_85 1_555 1_555
H8_85 C12_85 1_555 1_555
C13_85 N5_85 1_555 1_555
N5_85 C14_85 1_555 1_555
C14_85 C10_85 1_555 1_555
N6_85 C14_85 1_555 1_555
C15_85 N6_85 1_555 1_555
N7_85 C13_85 1_555 1_555
N28_37 C16_85 1_555 1_555
C16_85 H9_85 1_555 1_555
C17_85 C16_85 1_555 1_555
H10_85 C17_85 1_555 1_555
C18_85 C13_85 1_555 1_555
C19_85 C18_85 1_555 1_555
H11_85 C19_85 1_555 1_555
C20_85 N28_37 1_555 1_555
H12_85 C20_85 1_555 1_555
N32_10 C21_85 1_555 1_555
C21_85 H13_85 1_555 1_555
C22_85 C21_85 1_555 1_555
H14_85 C22_85 1_555 1_555
C23_85 C15_85 1_555 1_555
C24_85 C23_85 1_555 1_555
H15_85 C24_85 1_555 1_555
C25_85 N32_10 1_555 1_555
H16_85 C25_85 1_555 1_555
N21_85 Co4_11 1_555 1_555
C57_85 N21_85 1_555 1_555
S3_85 C57_85 1_555 1_555
N22_85 Co4_11 1_555 1_555
C58_85 N22_85 1_555 1_555
H37_85 C58_85 1_555 1_555
C59_85 C58_85 1_555 1_555
H38_85 C59_85 1_555 1_555
C60_85 C59_85 1_555 1_555
C61_85 C60_85 1_555 1_555
H39_85 C61_85 1_555 1_555
C62_85 N22_85 1_555 1_555
H40_85 C62_85 1_555 1_555
C63_85 N23_85 1_555 1_555
N23_85 C64_85 1_555 1_555
C64_85 C60_85 1_555 1_555
N24_85 C64_85 1_555 1_555
C65_85 N24_85 1_555 1_555
N25_85 C63_85 1_555 1_555
N28_32 C66_85 1_555 1_555
C66_85 H41_85 1_555 1_555
C67_85 C66_85 1_555 1_555
H42_85 C67_85 1_555 1_555
C68_85 C63_85 1_555 1_555
C69_85 C68_85 1_555 1_555
H43_85 C69_85 1_555 1_555
C70_85 N28_32 1_555 1_555
H44_85 C70_85 1_555 1_555
N32_14 C71_85 1_555 1_555
C71_85 H45_85 1_555 1_555
C72_85 C71_85 1_555 1_555
H46_85 C72_85 1_555 1_555
C73_85 C65_85 1_555 1_555
C74_85 C73_85 1_555 1_555
H47_85 C74_85 1_555 1_555
C75_85 N32_14 1_555 1_555
H48_85 C75_85 1_555 1_555
C11_85 C12_85 1_555 1_555
C15_85 N7_85 1_555 1_555
C17_85 C18_85 1_555 1_555
C19_85 C20_85 1_555 1_555
C22_85 C23_85 1_555 1_555
C24_85 C25_85 1_555 1_555
C61_85 C62_85 1_555 1_555
C65_85 N25_85 1_555 1_555
C67_85 C68_85 1_555 1_555
C69_85 C70_85 1_555 1_555
C72_85 C73_85 1_555 1_555
C74_85 C75_85 1_555 1_555
N1_40 C1_40 1_555 1_555
C1_40 C4_40 1_555 1_555
N2_40 C2_40 1_555 1_555
C2_40 H1_40 1_555 1_555
C3_40 C2_40 1_555 1_555
H2_40 C3_40 1_555 1_555
C4_40 C3_40 1_555 1_555
C5_40 C4_40 1_555 1_555
H3_40 C5_40 1_555 1_555
C6_40 N2_40 1_555 1_555
H4_40 C6_40 1_555 1_555
Co3_20 N2_40 1_555 1_555
N3_86 Co3_20 1_555 1_555
C7_86 N3_86 1_555 1_555
S1_86 C7_86 1_555 1_555
N4_86 Co3_20 1_555 1_555
C8_86 N4_86 1_555 1_555
H5_86 C8_86 1_555 1_555
C9_86 C8_86 1_555 1_555
H6_86 C9_86 1_555 1_555
C10_86 C9_86 1_555 1_555
C11_86 C10_86 1_555 1_555
H7_86 C11_86 1_555 1_555
C12_86 N4_86 1_555 1_555
H8_86 C12_86 1_555 1_555
C13_86 N5_86 1_555 1_555
N5_86 C14_86 1_555 1_555
C14_86 C10_86 1_555 1_555
N6_86 C14_86 1_555 1_555
C15_86 N6_86 1_555 1_555
N7_86 C13_86 1_555 1_555
N29_8 C16_86 1_555 1_555
C16_86 H9_86 1_555 1_555
C17_86 C16_86 1_555 1_555
H10_86 C17_86 1_555 1_555
C18_86 C13_86 1_555 1_555
C19_86 C18_86 1_555 1_555
H11_86 C19_86 1_555 1_555
C20_86 N29_8 1_555 1_555
H12_86 C20_86 1_555 1_555
N31_12 C21_86 1_555 1_555
C21_86 H13_86 1_555 1_555
C22_86 C21_86 1_555 1_555
H14_86 C22_86 1_555 1_555
C23_86 C15_86 1_555 1_555
C24_86 C23_86 1_555 1_555
H15_86 C24_86 1_555 1_555
C25_86 N31_12 1_555 1_555
H16_86 C25_86 1_555 1_555
N11_40 C1_40 1_555 1_555
N12_40 C27_40 1_555 1_555
C27_40 N11_40 1_555 1_555
C28_40 N1_40 1_555 1_555
N16_40 C32_40 1_555 1_555
N17_40 C33_40 1_555 1_555
C32_40 H17_40 1_555 1_555
C33_40 H18_40 1_555 1_555
C37_40 C32_40 1_555 1_555
C38_40 C33_40 1_555 1_555
H22_40 C37_40 1_555 1_555
H23_40 C38_40 1_555 1_555
C42_40 C28_40 1_555 1_555
C43_40 C27_40 1_555 1_555
C47_40 C42_40 1_555 1_555
C48_40 C43_40 1_555 1_555
H27_40 C47_40 1_555 1_555
H28_40 C48_40 1_555 1_555
C52_40 N16_40 1_555 1_555
C53_40 N17_40 1_555 1_555
H32_40 C52_40 1_555 1_555
H33_40 C53_40 1_555 1_555
Co6_15 N16_40 1_555 1_555
Co3_23 N17_40 1_555 1_555
N21_86 Co3_20 1_555 1_555
C57_86 N21_86 1_555 1_555
S3_86 C57_86 1_555 1_555
N22_86 Co3_20 1_555 1_555
C58_86 N22_86 1_555 1_555
H37_86 C58_86 1_555 1_555
C59_86 C58_86 1_555 1_555
H38_86 C59_86 1_555 1_555
C60_86 C59_86 1_555 1_555
C61_86 C60_86 1_555 1_555
H39_86 C61_86 1_555 1_555
C62_86 N22_86 1_555 1_555
H40_86 C62_86 1_555 1_555
C63_86 N23_86 1_555 1_555
N23_86 C64_86 1_555 1_555
C64_86 C60_86 1_555 1_555
N24_86 C64_86 1_555 1_555
C65_86 N24_86 1_555 1_555
N25_86 C63_86 1_555 1_555
N28_13 C66_86 1_555 1_555
C66_86 H41_86 1_555 1_555
C67_86 C66_86 1_555 1_555
H42_86 C67_86 1_555 1_555
C68_86 C63_86 1_555 1_555
C69_86 C68_86 1_555 1_555
H43_86 C69_86 1_555 1_555
C70_86 N28_13 1_555 1_555
H44_86 C70_86 1_555 1_555
N32_35 C71_86 1_555 1_555
C71_86 H45_86 1_555 1_555
C72_86 C71_86 1_555 1_555
H46_86 C72_86 1_555 1_555
C73_86 C65_86 1_555 1_555
C74_86 C73_86 1_555 1_555
H47_86 C74_86 1_555 1_555
C75_86 N32_35 1_555 1_555
H48_86 C75_86 1_555 1_555
C5_40 C6_40 1_555 1_555
C11_86 C12_86 1_555 1_555
C15_86 N7_86 1_555 1_555
C17_86 C18_86 1_555 1_555
C19_86 C20_86 1_555 1_555
C22_86 C23_86 1_555 1_555
C24_86 C25_86 1_555 1_555
N12_40 C28_40 1_555 1_555
C37_40 C42_40 1_555 1_555
C38_40 C43_40 1_555 1_555
C47_40 C52_40 1_555 1_555
C48_40 C53_40 1_555 1_555
C61_86 C62_86 1_555 1_555
C65_86 N25_86 1_555 1_555
C67_86 C68_86 1_555 1_555
C69_86 C70_86 1_555 1_555
C72_86 C73_86 1_555 1_555
C74_86 C75_86 1_555 1_555
N3_87 Co3_22 1_555 1_555
C7_87 N3_87 1_555 1_555
S1_87 C7_87 1_555 1_555
N4_87 Co3_22 1_555 1_555
C8_87 N4_87 1_555 1_555
H5_87 C8_87 1_555 1_555
C9_87 C8_87 1_555 1_555
H6_87 C9_87 1_555 1_555
C10_87 C9_87 1_555 1_555
C11_87 C10_87 1_555 1_555
H7_87 C11_87 1_555 1_555
C12_87 N4_87 1_555 1_555
H8_87 C12_87 1_555 1_555
C13_87 N5_87 1_555 1_555
N5_87 C14_87 1_555 1_555
C14_87 C10_87 1_555 1_555
N6_87 C14_87 1_555 1_555
C15_87 N6_87 1_555 1_555
N7_87 C13_87 1_555 1_555
N29_13 C16_87 1_555 1_555
C16_87 H9_87 1_555 1_555
C17_87 C16_87 1_555 1_555
H10_87 C17_87 1_555 1_555
C18_87 C13_87 1_555 1_555
C19_87 C18_87 1_555 1_555
H11_87 C19_87 1_555 1_555
C20_87 N29_13 1_555 1_555
H12_87 C20_87 1_555 1_555
N31_34 C21_87 1_555 1_555
C21_87 H13_87 1_555 1_555
C22_87 C21_87 1_555 1_555
H14_87 C22_87 1_555 1_555
C23_87 C15_87 1_555 1_555
C24_87 C23_87 1_555 1_555
H15_87 C24_87 1_555 1_555
C25_87 N31_34 1_555 1_555
H16_87 C25_87 1_555 1_555
N21_87 Co3_22 1_555 1_555
C57_87 N21_87 1_555 1_555
S3_87 C57_87 1_555 1_555
N22_87 Co3_22 1_555 1_555
C58_87 N22_87 1_555 1_555
H37_87 C58_87 1_555 1_555
C59_87 C58_87 1_555 1_555
H38_87 C59_87 1_555 1_555
C60_87 C59_87 1_555 1_555
C61_87 C60_87 1_555 1_555
H39_87 C61_87 1_555 1_555
C62_87 N22_87 1_555 1_555
H40_87 C62_87 1_555 1_555
C63_87 N23_87 1_555 1_555
N23_87 C64_87 1_555 1_555
C64_87 C60_87 1_555 1_555
N24_87 C64_87 1_555 1_555
C65_87 N24_87 1_555 1_555
N25_87 C63_87 1_555 1_555
N29_4 C66_87 1_555 1_555
C66_87 H41_87 1_555 1_555
C67_87 C66_87 1_555 1_555
H42_87 C67_87 1_555 1_555
C68_87 C63_87 1_555 1_555
C69_87 C68_87 1_555 1_555
H43_87 C69_87 1_555 1_555
C70_87 N29_4 1_555 1_555
H44_87 C70_87 1_555 1_555
N31_42 C71_87 1_555 1_555
C71_87 H45_87 1_555 1_555
C72_87 C71_87 1_555 1_555
H46_87 C72_87 1_555 1_555
C73_87 C65_87 1_555 1_555
C74_87 C73_87 1_555 1_555
H47_87 C74_87 1_555 1_555
C75_87 N31_42 1_555 1_555
H48_87 C75_87 1_555 1_555
C11_87 C12_87 1_555 1_555
C15_87 N7_87 1_555 1_555
C17_87 C18_87 1_555 1_555
C19_87 C20_87 1_555 1_555
C22_87 C23_87 1_555 1_555
C24_87 C25_87 1_555 1_555
C61_87 C62_87 1_555 1_555
C65_87 N25_87 1_555 1_555
C67_87 C68_87 1_555 1_555
C69_87 C70_87 1_555 1_555
C72_87 C73_87 1_555 1_555
C74_87 C75_87 1_555 1_555
N3_88 Co3_21 1_555 1_555
C7_88 N3_88 1_555 1_555
S1_88 C7_88 1_555 1_555
N4_88 Co3_21 1_555 1_555
C8_88 N4_88 1_555 1_555
H5_88 C8_88 1_555 1_555
C9_88 C8_88 1_555 1_555
H6_88 C9_88 1_555 1_555
C10_88 C9_88 1_555 1_555
C11_88 C10_88 1_555 1_555
H7_88 C11_88 1_555 1_555
C12_88 N4_88 1_555 1_555
H8_88 C12_88 1_555 1_555
C13_88 N5_88 1_555 1_555
N5_88 C14_88 1_555 1_555
C14_88 C10_88 1_555 1_555
N6_88 C14_88 1_555 1_555
C15_88 N6_88 1_555 1_555
N7_88 C13_88 1_555 1_555
N28_10 C16_88 1_555 1_555
C16_88 H9_88 1_555 1_555
C17_88 C16_88 1_555 1_555
H10_88 C17_88 1_555 1_555
C18_88 C13_88 1_555 1_555
C19_88 C18_88 1_555 1_555
H11_88 C19_88 1_555 1_555
C20_88 N28_10 1_555 1_555
H12_88 C20_88 1_555 1_555
N31_11 C21_88 1_555 1_555
C21_88 H13_88 1_555 1_555
C22_88 C21_88 1_555 1_555
H14_88 C22_88 1_555 1_555
C23_88 C15_88 1_555 1_555
C24_88 C23_88 1_555 1_555
H15_88 C24_88 1_555 1_555
C25_88 N31_11 1_555 1_555
H16_88 C25_88 1_555 1_555
N21_88 Co3_21 1_555 1_555
C57_88 N21_88 1_555 1_555
S3_88 C57_88 1_555 1_555
N22_88 Co3_21 1_555 1_555
C58_88 N22_88 1_555 1_555
H37_88 C58_88 1_555 1_555
C59_88 C58_88 1_555 1_555
H38_88 C59_88 1_555 1_555
C60_88 C59_88 1_555 1_555
C61_88 C60_88 1_555 1_555
H39_88 C61_88 1_555 1_555
C62_88 N22_88 1_555 1_555
H40_88 C62_88 1_555 1_555
C63_88 N23_88 1_555 1_555
N23_88 C64_88 1_555 1_555
C64_88 C60_88 1_555 1_555
N24_88 C64_88 1_555 1_555
C65_88 N24_88 1_555 1_555
N25_88 C63_88 1_555 1_555
N28_11 C66_88 1_555 1_555
C66_88 H41_88 1_555 1_555
C67_88 C66_88 1_555 1_555
H42_88 C67_88 1_555 1_555
C68_88 C63_88 1_555 1_555
C69_88 C68_88 1_555 1_555
H43_88 C69_88 1_555 1_555
C70_88 N28_11 1_555 1_555
H44_88 C70_88 1_555 1_555
N31_10 C71_88 1_555 1_555
C71_88 H45_88 1_555 1_555
C72_88 C71_88 1_555 1_555
H46_88 C72_88 1_555 1_555
C73_88 C65_88 1_555 1_555
C74_88 C73_88 1_555 1_555
H47_88 C74_88 1_555 1_555
C75_88 N31_10 1_555 1_555
H48_88 C75_88 1_555 1_555
C11_88 C12_88 1_555 1_555
C15_88 N7_88 1_555 1_555
C17_88 C18_88 1_555 1_555
C19_88 C20_88 1_555 1_555
C22_88 C23_88 1_555 1_555
C24_88 C25_88 1_555 1_555
C61_88 C62_88 1_555 1_555
C65_88 N25_88 1_555 1_555
C67_88 C68_88 1_555 1_555
C69_88 C70_88 1_555 1_555
C72_88 C73_88 1_555 1_555
C74_88 C75_88 1_555 1_555
N3_89 Co6_15 1_555 1_555
C7_89 N3_89 1_555 1_555
S1_89 C7_89 1_555 1_555
N4_89 Co6_15 1_555 1_555
C8_89 N4_89 1_555 1_555
H5_89 C8_89 1_555 1_555
C9_89 C8_89 1_555 1_555
H6_89 C9_89 1_555 1_555
C10_89 C9_89 1_555 1_555
C11_89 C10_89 1_555 1_555
H7_89 C11_89 1_555 1_555
C12_89 N4_89 1_555 1_555
H8_89 C12_89 1_555 1_555
C13_89 N5_89 1_555 1_555
N5_89 C14_89 1_555 1_555
C14_89 C10_89 1_555 1_555
N6_89 C14_89 1_555 1_555
C15_89 N6_89 1_555 1_555
N7_89 C13_89 1_555 1_555
N29_18 C16_89 1_555 1_555
C16_89 H9_89 1_555 1_555
C17_89 C16_89 1_555 1_555
H10_89 C17_89 1_555 1_555
C18_89 C13_89 1_555 1_555
C19_89 C18_89 1_555 1_555
H11_89 C19_89 1_555 1_555
C20_89 N29_18 1_555 1_555
H12_89 C20_89 1_555 1_555
N32_38 C21_89 1_555 1_555
C21_89 H13_89 1_555 1_555
C22_89 C21_89 1_555 1_555
H14_89 C22_89 1_555 1_555
C23_89 C15_89 1_555 1_555
C24_89 C23_89 1_555 1_555
H15_89 C24_89 1_555 1_555
C25_89 N32_38 1_555 1_555
H16_89 C25_89 1_555 1_555
N21_89 Co6_15 1_555 1_555
C57_89 N21_89 1_555 1_555
S3_89 C57_89 1_555 1_555
N22_89 Co6_15 1_555 1_555
C58_89 N22_89 1_555 1_555
H37_89 C58_89 1_555 1_555
C59_89 C58_89 1_555 1_555
H38_89 C59_89 1_555 1_555
C60_89 C59_89 1_555 1_555
C61_89 C60_89 1_555 1_555
H39_89 C61_89 1_555 1_555
C62_89 N22_89 1_555 1_555
H40_89 C62_89 1_555 1_555
C63_89 N23_89 1_555 1_555
N23_89 C64_89 1_555 1_555
C64_89 C60_89 1_555 1_555
N24_89 C64_89 1_555 1_555
C65_89 N24_89 1_555 1_555
N25_89 C63_89 1_555 1_555
N29_48 C66_89 1_555 1_555
C66_89 H41_89 1_555 1_555
C67_89 C66_89 1_555 1_555
H42_89 C67_89 1_555 1_555
C68_89 C63_89 1_555 1_555
C69_89 C68_89 1_555 1_555
H43_89 C69_89 1_555 1_555
C70_89 N29_48 1_555 1_555
H44_89 C70_89 1_555 1_555
N32_32 C71_89 1_555 1_555
C71_89 H45_89 1_555 1_555
C72_89 C71_89 1_555 1_555
H46_89 C72_89 1_555 1_555
C73_89 C65_89 1_555 1_555
C74_89 C73_89 1_555 1_555
H47_89 C74_89 1_555 1_555
C75_89 N32_32 1_555 1_555
H48_89 C75_89 1_555 1_555
C11_89 C12_89 1_555 1_555
C15_89 N7_89 1_555 1_555
C17_89 C18_89 1_555 1_555
C19_89 C20_89 1_555 1_555
C22_89 C23_89 1_555 1_555
C24_89 C25_89 1_555 1_555
C61_89 C62_89 1_555 1_555
C65_89 N25_89 1_555 1_555
C67_89 C68_89 1_555 1_555
C69_89 C70_89 1_555 1_555
C72_89 C73_89 1_555 1_555
C74_89 C75_89 1_555 1_555
N3_90 Co3_17 1_555 1_555
C7_90 N3_90 1_555 1_555
S1_90 C7_90 1_555 1_555
N4_90 Co3_17 1_555 1_555
C8_90 N4_90 1_555 1_555
H5_90 C8_90 1_555 1_555
C9_90 C8_90 1_555 1_555
H6_90 C9_90 1_555 1_555
C10_90 C9_90 1_555 1_555
C11_90 C10_90 1_555 1_555
H7_90 C11_90 1_555 1_555
C12_90 N4_90 1_555 1_555
H8_90 C12_90 1_555 1_555
C13_90 N5_90 1_555 1_555
N5_90 C14_90 1_555 1_555
C14_90 C10_90 1_555 1_555
N6_90 C14_90 1_555 1_555
C15_90 N6_90 1_555 1_555
N7_90 C13_90 1_555 1_555
N28_27 C16_90 1_555 1_555
C16_90 H9_90 1_555 1_555
C17_90 C16_90 1_555 1_555
H10_90 C17_90 1_555 1_555
C18_90 C13_90 1_555 1_555
C19_90 C18_90 1_555 1_555
H11_90 C19_90 1_555 1_555
C20_90 N28_27 1_555 1_555
H12_90 C20_90 1_555 1_555
N32_46 C21_90 1_555 1_555
C21_90 H13_90 1_555 1_555
C22_90 C21_90 1_555 1_555
H14_90 C22_90 1_555 1_555
C23_90 C15_90 1_555 1_555
C24_90 C23_90 1_555 1_555
H15_90 C24_90 1_555 1_555
C25_90 N32_46 1_555 1_555
H16_90 C25_90 1_555 1_555
N21_90 Co3_17 1_555 1_555
C57_90 N21_90 1_555 1_555
S3_90 C57_90 1_555 1_555
N22_90 Co3_17 1_555 1_555
C58_90 N22_90 1_555 1_555
H37_90 C58_90 1_555 1_555
C59_90 C58_90 1_555 1_555
H38_90 C59_90 1_555 1_555
C60_90 C59_90 1_555 1_555
C61_90 C60_90 1_555 1_555
H39_90 C61_90 1_555 1_555
C62_90 N22_90 1_555 1_555
H40_90 C62_90 1_555 1_555
C63_90 N23_90 1_555 1_555
N23_90 C64_90 1_555 1_555
C64_90 C60_90 1_555 1_555
N24_90 C64_90 1_555 1_555
C65_90 N24_90 1_555 1_555
N25_90 C63_90 1_555 1_555
N29 C66_90 1_555 1_555
C66_90 H41_90 1_555 1_555
C67_90 C66_90 1_555 1_555
H42_90 C67_90 1_555 1_555
C68_90 C63_90 1_555 1_555
C69_90 C68_90 1_555 1_555
H43_90 C69_90 1_555 1_555
C70_90 N29 1_555 1_555
H44_90 C70_90 1_555 1_555
N31_23 C71_90 1_555 1_555
C71_90 H45_90 1_555 1_555
C72_90 C71_90 1_555 1_555
H46_90 C72_90 1_555 1_555
C73_90 C65_90 1_555 1_555
C74_90 C73_90 1_555 1_555
H47_90 C74_90 1_555 1_555
C75_90 N31_23 1_555 1_555
H48_90 C75_90 1_555 1_555
C11_90 C12_90 1_555 1_555
C15_90 N7_90 1_555 1_555
C17_90 C18_90 1_555 1_555
C19_90 C20_90 1_555 1_555
C22_90 C23_90 1_555 1_555
C24_90 C25_90 1_555 1_555
C61_90 C62_90 1_555 1_555
C65_90 N25_90 1_555 1_555
C67_90 C68_90 1_555 1_555
C69_90 C70_90 1_555 1_555
C72_90 C73_90 1_555 1_555
C74_90 C75_90 1_555 1_555
N3_91 Co6_12 1_555 1_555
C7_91 N3_91 1_555 1_555
S1_91 C7_91 1_555 1_555
N4_91 Co6_12 1_555 1_555
C8_91 N4_91 1_555 1_555
H5_91 C8_91 1_555 1_555
C9_91 C8_91 1_555 1_555
H6_91 C9_91 1_555 1_555
C10_91 C9_91 1_555 1_555
C11_91 C10_91 1_555 1_555
H7_91 C11_91 1_555 1_555
C12_91 N4_91 1_555 1_555
H8_91 C12_91 1_555 1_555
C13_91 N5_91 1_555 1_555
N5_91 C14_91 1_555 1_555
C14_91 C10_91 1_555 1_555
N6_91 C14_91 1_555 1_555
C15_91 N6_91 1_555 1_555
N7_91 C13_91 1_555 1_555
N29_47 C16_91 1_555 1_555
C16_91 H9_91 1_555 1_555
C17_91 C16_91 1_555 1_555
H10_91 C17_91 1_555 1_555
C18_91 C13_91 1_555 1_555
C19_91 C18_91 1_555 1_555
H11_91 C19_91 1_555 1_555
C20_91 N29_47 1_555 1_555
H12_91 C20_91 1_555 1_555
N32_27 C21_91 1_555 1_555
C21_91 H13_91 1_555 1_555
C22_91 C21_91 1_555 1_555
H14_91 C22_91 1_555 1_555
C23_91 C15_91 1_555 1_555
C24_91 C23_91 1_555 1_555
H15_91 C24_91 1_555 1_555
C25_91 N32_27 1_555 1_555
H16_91 C25_91 1_555 1_555
N21_91 Co6_12 1_555 1_555
C57_91 N21_91 1_555 1_555
S3_91 C57_91 1_555 1_555
N22_91 Co6_12 1_555 1_555
C58_91 N22_91 1_555 1_555
H37_91 C58_91 1_555 1_555
C59_91 C58_91 1_555 1_555
H38_91 C59_91 1_555 1_555
C60_91 C59_91 1_555 1_555
C61_91 C60_91 1_555 1_555
H39_91 C61_91 1_555 1_555
C62_91 N22_91 1_555 1_555
H40_91 C62_91 1_555 1_555
C63_91 N23_91 1_555 1_555
N23_91 C64_91 1_555 1_555
C64_91 C60_91 1_555 1_555
N24_91 C64_91 1_555 1_555
C65_91 N24_91 1_555 1_555
N25_91 C63_91 1_555 1_555
N29_6 C66_91 1_555 1_555
C66_91 H41_91 1_555 1_555
C67_91 C66_91 1_555 1_555
H42_91 C67_91 1_555 1_555
C68_91 C63_91 1_555 1_555
C69_91 C68_91 1_555 1_555
H43_91 C69_91 1_555 1_555
C70_91 N29_6 1_555 1_555
H44_91 C70_91 1_555 1_555
N32_43 C71_91 1_555 1_555
C71_91 H45_91 1_555 1_555
C72_91 C71_91 1_555 1_555
H46_91 C72_91 1_555 1_555
C73_91 C65_91 1_555 1_555
C74_91 C73_91 1_555 1_555
H47_91 C74_91 1_555 1_555
C75_91 N32_43 1_555 1_555
H48_91 C75_91 1_555 1_555
C11_91 C12_91 1_555 1_555
C15_91 N7_91 1_555 1_555
C17_91 C18_91 1_555 1_555
C19_91 C20_91 1_555 1_555
C22_91 C23_91 1_555 1_555
C24_91 C25_91 1_555 1_555
C61_91 C62_91 1_555 1_555
C65_91 N25_91 1_555 1_555
C67_91 C68_91 1_555 1_555
C69_91 C70_91 1_555 1_555
C72_91 C73_91 1_555 1_555
C74_91 C75_91 1_555 1_555
N3_92 Co6_16 1_555 1_555
C7_92 N3_92 1_555 1_555
S1_92 C7_92 1_555 1_555
N4_92 Co6_16 1_555 1_555
C8_92 N4_92 1_555 1_555
H5_92 C8_92 1_555 1_555
C9_92 C8_92 1_555 1_555
H6_92 C9_92 1_555 1_555
C10_92 C9_92 1_555 1_555
C11_92 C10_92 1_555 1_555
H7_92 C11_92 1_555 1_555
C12_92 N4_92 1_555 1_555
H8_92 C12_92 1_555 1_555
C13_92 N5_92 1_555 1_555
N5_92 C14_92 1_555 1_555
C14_92 C10_92 1_555 1_555
N6_92 C14_92 1_555 1_555
C15_92 N6_92 1_555 1_555
N7_92 C13_92 1_555 1_555
N29_36 C16_92 1_555 1_555
C16_92 H9_92 1_555 1_555
C17_92 C16_92 1_555 1_555
H10_92 C17_92 1_555 1_555
C18_92 C13_92 1_555 1_555
C19_92 C18_92 1_555 1_555
H11_92 C19_92 1_555 1_555
C20_92 N29_36 1_555 1_555
H12_92 C20_92 1_555 1_555
N31_16 C21_92 1_555 1_555
C21_92 H13_92 1_555 1_555
C22_92 C21_92 1_555 1_555
H14_92 C22_92 1_555 1_555
C23_92 C15_92 1_555 1_555
C24_92 C23_92 1_555 1_555
H15_92 C24_92 1_555 1_555
C25_92 N31_16 1_555 1_555
H16_92 C25_92 1_555 1_555
N21_92 Co6_16 1_555 1_555
C57_92 N21_92 1_555 1_555
S3_92 C57_92 1_555 1_555
N22_92 Co6_16 1_555 1_555
C58_92 N22_92 1_555 1_555
H37_92 C58_92 1_555 1_555
C59_92 C58_92 1_555 1_555
H38_92 C59_92 1_555 1_555
C60_92 C59_92 1_555 1_555
C61_92 C60_92 1_555 1_555
H39_92 C61_92 1_555 1_555
C62_92 N22_92 1_555 1_555
H40_92 C62_92 1_555 1_555
C63_92 N23_92 1_555 1_555
N23_92 C64_92 1_555 1_555
C64_92 C60_92 1_555 1_555
N24_92 C64_92 1_555 1_555
C65_92 N24_92 1_555 1_555
N25_92 C63_92 1_555 1_555
N29_11 C66_92 1_555 1_555
C66_92 H41_92 1_555 1_555
C67_92 C66_92 1_555 1_555
H42_92 C67_92 1_555 1_555
C68_92 C63_92 1_555 1_555
C69_92 C68_92 1_555 1_555
H43_92 C69_92 1_555 1_555
C70_92 N29_11 1_555 1_555
H44_92 C70_92 1_555 1_555
N32_42 C71_92 1_555 1_555
C71_92 H45_92 1_555 1_555
C72_92 C71_92 1_555 1_555
H46_92 C72_92 1_555 1_555
C73_92 C65_92 1_555 1_555
C74_92 C73_92 1_555 1_555
H47_92 C74_92 1_555 1_555
C75_92 N32_42 1_555 1_555
H48_92 C75_92 1_555 1_555
C11_92 C12_92 1_555 1_555
C15_92 N7_92 1_555 1_555
C17_92 C18_92 1_555 1_555
C19_92 C20_92 1_555 1_555
C22_92 C23_92 1_555 1_555
C24_92 C25_92 1_555 1_555
C61_92 C62_92 1_555 1_555
C65_92 N25_92 1_555 1_555
C67_92 C68_92 1_555 1_555
C69_92 C70_92 1_555 1_555
C72_92 C73_92 1_555 1_555
C74_92 C75_92 1_555 1_555
N3_93 Co6_10 1_555 1_555
C7_93 N3_93 1_555 1_555
S1_93 C7_93 1_555 1_555
N4_93 Co6_10 1_555 1_555
C8_93 N4_93 1_555 1_555
H5_93 C8_93 1_555 1_555
C9_93 C8_93 1_555 1_555
H6_93 C9_93 1_555 1_555
C10_93 C9_93 1_555 1_555
C11_93 C10_93 1_555 1_555
H7_93 C11_93 1_555 1_555
C12_93 N4_93 1_555 1_555
H8_93 C12_93 1_555 1_555
C13_93 N5_93 1_555 1_555
N5_93 C14_93 1_555 1_555
C14_93 C10_93 1_555 1_555
N6_93 C14_93 1_555 1_555
C15_93 N6_93 1_555 1_555
N7_93 C13_93 1_555 1_555
N29_34 C16_93 1_555 1_555
C16_93 H9_93 1_555 1_555
C17_93 C16_93 1_555 1_555
H10_93 C17_93 1_555 1_555
C18_93 C13_93 1_555 1_555
C19_93 C18_93 1_555 1_555
H11_93 C19_93 1_555 1_555
C20_93 N29_34 1_555 1_555
H12_93 C20_93 1_555 1_555
N32_48 C21_93 1_555 1_555
C21_93 H13_93 1_555 1_555
C22_93 C21_93 1_555 1_555
H14_93 C22_93 1_555 1_555
C23_93 C15_93 1_555 1_555
C24_93 C23_93 1_555 1_555
H15_93 C24_93 1_555 1_555
C25_93 N32_48 1_555 1_555
H16_93 C25_93 1_555 1_555
N21_93 Co6_10 1_555 1_555
C57_93 N21_93 1_555 1_555
S3_93 C57_93 1_555 1_555
N22_93 Co6_10 1_555 1_555
C58_93 N22_93 1_555 1_555
H37_93 C58_93 1_555 1_555
C59_93 C58_93 1_555 1_555
H38_93 C59_93 1_555 1_555
C60_93 C59_93 1_555 1_555
C61_93 C60_93 1_555 1_555
H39_93 C61_93 1_555 1_555
C62_93 N22_93 1_555 1_555
H40_93 C62_93 1_555 1_555
C63_93 N23_93 1_555 1_555
N23_93 C64_93 1_555 1_555
C64_93 C60_93 1_555 1_555
N24_93 C64_93 1_555 1_555
C65_93 N24_93 1_555 1_555
N25_93 C63_93 1_555 1_555
N29_14 C66_93 1_555 1_555
C66_93 H41_93 1_555 1_555
C67_93 C66_93 1_555 1_555
H42_93 C67_93 1_555 1_555
C68_93 C63_93 1_555 1_555
C69_93 C68_93 1_555 1_555
H43_93 C69_93 1_555 1_555
C70_93 N29_14 1_555 1_555
H44_93 C70_93 1_555 1_555
N31_30 C71_93 1_555 1_555
C71_93 H45_93 1_555 1_555
C72_93 C71_93 1_555 1_555
H46_93 C72_93 1_555 1_555
C73_93 C65_93 1_555 1_555
C74_93 C73_93 1_555 1_555
H47_93 C74_93 1_555 1_555
C75_93 N31_30 1_555 1_555
H48_93 C75_93 1_555 1_555
C11_93 C12_93 1_555 1_555
C15_93 N7_93 1_555 1_555
C17_93 C18_93 1_555 1_555
C19_93 C20_93 1_555 1_555
C22_93 C23_93 1_555 1_555
C24_93 C25_93 1_555 1_555
C61_93 C62_93 1_555 1_555
C65_93 N25_93 1_555 1_555
C67_93 C68_93 1_555 1_555
C69_93 C70_93 1_555 1_555
C72_93 C73_93 1_555 1_555
C74_93 C75_93 1_555 1_555
N3_94 Co3_23 1_555 1_555
C7_94 N3_94 1_555 1_555
S1_94 C7_94 1_555 1_555
N4_94 Co3_23 1_555 1_555
C8_94 N4_94 1_555 1_555
H5_94 C8_94 1_555 1_555
C9_94 C8_94 1_555 1_555
H6_94 C9_94 1_555 1_555
C10_94 C9_94 1_555 1_555
C11_94 C10_94 1_555 1_555
H7_94 C11_94 1_555 1_555
C12_94 N4_94 1_555 1_555
H8_94 C12_94 1_555 1_555
C13_94 N5_94 1_555 1_555
N5_94 C14_94 1_555 1_555
C14_94 C10_94 1_555 1_555
N6_94 C14_94 1_555 1_555
C15_94 N6_94 1_555 1_555
N7_94 C13_94 1_555 1_555
N29_25 C16_94 1_555 1_555
C16_94 H9_94 1_555 1_555
C17_94 C16_94 1_555 1_555
H10_94 C17_94 1_555 1_555
C18_94 C13_94 1_555 1_555
C19_94 C18_94 1_555 1_555
H11_94 C19_94 1_555 1_555
C20_94 N29_25 1_555 1_555
H12_94 C20_94 1_555 1_555
N31_3 C21_94 1_555 1_555
C21_94 H13_94 1_555 1_555
C22_94 C21_94 1_555 1_555
H14_94 C22_94 1_555 1_555
C23_94 C15_94 1_555 1_555
C24_94 C23_94 1_555 1_555
H15_94 C24_94 1_555 1_555
C25_94 N31_3 1_555 1_555
H16_94 C25_94 1_555 1_555
N21_94 Co3_23 1_555 1_555
C57_94 N21_94 1_555 1_555
S3_94 C57_94 1_555 1_555
N22_94 Co3_23 1_555 1_555
C58_94 N22_94 1_555 1_555
H37_94 C58_94 1_555 1_555
C59_94 C58_94 1_555 1_555
H38_94 C59_94 1_555 1_555
C60_94 C59_94 1_555 1_555
C61_94 C60_94 1_555 1_555
H39_94 C61_94 1_555 1_555
C62_94 N22_94 1_555 1_555
H40_94 C62_94 1_555 1_555
C63_94 N23_94 1_555 1_555
N23_94 C64_94 1_555 1_555
C64_94 C60_94 1_555 1_555
N24_94 C64_94 1_555 1_555
C65_94 N24_94 1_555 1_555
N25_94 C63_94 1_555 1_555
N28_3 C66_94 1_555 1_555
C66_94 H41_94 1_555 1_555
C67_94 C66_94 1_555 1_555
H42_94 C67_94 1_555 1_555
C68_94 C63_94 1_555 1_555
C69_94 C68_94 1_555 1_555
H43_94 C69_94 1_555 1_555
C70_94 N28_3 1_555 1_555
H44_94 C70_94 1_555 1_555
N32_36 C71_94 1_555 1_555
C71_94 H45_94 1_555 1_555
C72_94 C71_94 1_555 1_555
H46_94 C72_94 1_555 1_555
C73_94 C65_94 1_555 1_555
C74_94 C73_94 1_555 1_555
H47_94 C74_94 1_555 1_555
C75_94 N32_36 1_555 1_555
H48_94 C75_94 1_555 1_555
C11_94 C12_94 1_555 1_555
C15_94 N7_94 1_555 1_555
C17_94 C18_94 1_555 1_555
C19_94 C20_94 1_555 1_555
C22_94 C23_94 1_555 1_555
C24_94 C25_94 1_555 1_555
C61_94 C62_94 1_555 1_555
C65_94 N25_94 1_555 1_555
C67_94 C68_94 1_555 1_555
C69_94 C70_94 1_555 1_555
C72_94 C73_94 1_555 1_555
C74_94 C75_94 1_555 1_555
N3_95 Co3_19 1_555 1_555
N4_95 Co3_19 1_555 1_555
C8_95 N4_95 1_555 1_555
H5_95 C8_95 1_555 1_555
C9_95 C8_95 1_555 1_555
H6_95 C9_95 1_555 1_555
C10_95 C9_95 1_555 1_555
C11_95 C10_95 1_555 1_555
H7_95 C11_95 1_555 1_555
C12_95 N4_95 1_555 1_555
H8_95 C12_95 1_555 1_555
C13_95 N5_95 1_555 1_555
N5_95 C14_95 1_555 1_555
C14_95 C10_95 1_555 1_555
N6_95 C14_95 1_555 1_555
C15_95 N6_95 1_555 1_555
N7_95 C13_95 1_555 1_555
N28_23 C16_95 1_555 1_555
C16_95 H9_95 1_555 1_555
C17_95 C16_95 1_555 1_555
H10_95 C17_95 1_555 1_555
C18_95 C13_95 1_555 1_555
C19_95 C18_95 1_555 1_555
H11_95 C19_95 1_555 1_555
C20_95 N28_23 1_555 1_555
H12_95 C20_95 1_555 1_555
N31_44 C21_95 1_555 1_555
C21_95 H13_95 1_555 1_555
C22_95 C21_95 1_555 1_555
H14_95 C22_95 1_555 1_555
C23_95 C15_95 1_555 1_555
C24_95 C23_95 1_555 1_555
H15_95 C24_95 1_555 1_555
C25_95 N31_44 1_555 1_555
H16_95 C25_95 1_555 1_555
N21_95 Co3_19 1_555 1_555
N22_95 Co3_19 1_555 1_555
C58_95 N22_95 1_555 1_555
H37_95 C58_95 1_555 1_555
C59_95 C58_95 1_555 1_555
H38_95 C59_95 1_555 1_555
C60_95 C59_95 1_555 1_555
C61_95 C60_95 1_555 1_555
H39_95 C61_95 1_555 1_555
C62_95 N22_95 1_555 1_555
H40_95 C62_95 1_555 1_555
C63_95 N23_95 1_555 1_555
N23_95 C64_95 1_555 1_555
C64_95 C60_95 1_555 1_555
N24_95 C64_95 1_555 1_555
C65_95 N24_95 1_555 1_555
N25_95 C63_95 1_555 1_555
N29_46 C66_95 1_555 1_555
C66_95 H41_95 1_555 1_555
C67_95 C66_95 1_555 1_555
H42_95 C67_95 1_555 1_555
C68_95 C63_95 1_555 1_555
C69_95 C68_95 1_555 1_555
H43_95 C69_95 1_555 1_555
C70_95 N29_46 1_555 1_555
H44_95 C70_95 1_555 1_555
N32_22 C71_95 1_555 1_555
C71_95 H45_95 1_555 1_555
C72_95 C71_95 1_555 1_555
H46_95 C72_95 1_555 1_555
C73_95 C65_95 1_555 1_555
C74_95 C73_95 1_555 1_555
H47_95 C74_95 1_555 1_555
C75_95 N32_22 1_555 1_555
H48_95 C75_95 1_555 1_555
C11_95 C12_95 1_555 1_555
C15_95 N7_95 1_555 1_555
C17_95 C18_95 1_555 1_555
C19_95 C20_95 1_555 1_555
C22_95 C23_95 1_555 1_555
C24_95 C25_95 1_555 1_555
C61_95 C62_95 1_555 1_555
C65_95 N25_95 1_555 1_555
C67_95 C68_95 1_555 1_555
C69_95 C70_95 1_555 1_555
C72_95 C73_95 1_555 1_555
C74_95 C75_95 1_555 1_555
S1_95 C7_95 1_555 1_555
S3_95 C57_95 1_555 1_555
N3_96 Co3_13 1_555 1_555
N4_96 Co3_13 1_555 1_555
C8_96 N4_96 1_555 1_555
H5_96 C8_96 1_555 1_555
C9_96 C8_96 1_555 1_555
H6_96 C9_96 1_555 1_555
C10_96 C9_96 1_555 1_555
C11_96 C10_96 1_555 1_555
H7_96 C11_96 1_555 1_555
C12_96 N4_96 1_555 1_555
H8_96 C12_96 1_555 1_555
C13_96 N5_96 1_555 1_555
N5_96 C14_96 1_555 1_555
C14_96 C10_96 1_555 1_555
N6_96 C14_96 1_555 1_555
C15_96 N6_96 1_555 1_555
N7_96 C13_96 1_555 1_555
N29_45 C16_96 1_555 1_555
C16_96 H9_96 1_555 1_555
C17_96 C16_96 1_555 1_555
H10_96 C17_96 1_555 1_555
C18_96 C13_96 1_555 1_555
C19_96 C18_96 1_555 1_555
H11_96 C19_96 1_555 1_555
C20_96 N29_45 1_555 1_555
H12_96 C20_96 1_555 1_555
N32_11 C21_96 1_555 1_555
C21_96 H13_96 1_555 1_555
C22_96 C21_96 1_555 1_555
H14_96 C22_96 1_555 1_555
C23_96 C15_96 1_555 1_555
C24_96 C23_96 1_555 1_555
H15_96 C24_96 1_555 1_555
C25_96 N32_11 1_555 1_555
H16_96 C25_96 1_555 1_555
N21_96 Co3_13 1_555 1_555
N22_96 Co3_13 1_555 1_555
C58_96 N22_96 1_555 1_555
H37_96 C58_96 1_555 1_555
C59_96 C58_96 1_555 1_555
H38_96 C59_96 1_555 1_555
C60_96 C59_96 1_555 1_555
C61_96 C60_96 1_555 1_555
H39_96 C61_96 1_555 1_555
C62_96 N22_96 1_555 1_555
H40_96 C62_96 1_555 1_555
C63_96 N23_96 1_555 1_555
N23_96 C64_96 1_555 1_555
C64_96 C60_96 1_555 1_555
N24_96 C64_96 1_555 1_555
C65_96 N24_96 1_555 1_555
N25_96 C63_96 1_555 1_555
N28_12 C66_96 1_555 1_555
C66_96 H41_96 1_555 1_555
C67_96 C66_96 1_555 1_555
H42_96 C67_96 1_555 1_555
C68_96 C63_96 1_555 1_555
C69_96 C68_96 1_555 1_555
H43_96 C69_96 1_555 1_555
C70_96 N28_12 1_555 1_555
H44_96 C70_96 1_555 1_555
N31_39 C71_96 1_555 1_555
C71_96 H45_96 1_555 1_555
C72_96 C71_96 1_555 1_555
H46_96 C72_96 1_555 1_555
C73_96 C65_96 1_555 1_555
C74_96 C73_96 1_555 1_555
H47_96 C74_96 1_555 1_555
C75_96 N31_39 1_555 1_555
H48_96 C75_96 1_555 1_555
C11_96 C12_96 1_555 1_555
C15_96 N7_96 1_555 1_555
C17_96 C18_96 1_555 1_555
C19_96 C20_96 1_555 1_555
C22_96 C23_96 1_555 1_555
C24_96 C25_96 1_555 1_555
C61_96 C62_96 1_555 1_555
C65_96 N25_96 1_555 1_555
C67_96 C68_96 1_555 1_555
C69_96 C70_96 1_555 1_555
C72_96 C73_96 1_555 1_555
C74_96 C75_96 1_555 1_555
S1_96 C7_96 1_555 1_555
S3_96 C57_96 1_555 1_555

#END
