
###############################################################################
#
# This file contains modified crystal structure data generated from the
# MOF subset of the Cambridge Structural Database (CSD) v543 
# hosted by the Cambridge Crystallographic Data Centre (CCDC).
#
# This work is licensed under the Creative Commons
# Attribution-NonCommercial-ShareAlike 4.0 International License.
# To view a copy of this license, visit
# http://creativecommons.org/licenses/by-nc-sa/4.0/
# or send a letter to
# Creative Commons, PO Box 1866, Mountain View, CA 94042, USA.
#
# CIF created using the CSD Python API on 29 September 2022
# The structure has been converted into the P1 space group
# The structure has a 3D framework
# The original CSD entry PUZXAM is in the hexagonal crystal system
# The framework has been calculated to contain at least 10.0% void space
# The void calculation uses a probe of radius 1.32A, grid spacing 0.4
#
###############################################################################

data_PUZXAM
_chemical_formula_moiety         '(C276 H156 O78 Zn23)n'
_symmetry_cell_setting           triclinic
_symmetry_space_group_name_H-M   'P 1'
_symmetry_Int_Tables_number      1
_space_group_name_Hall           'P 1'
loop_
_symmetry_equiv_pos_site_id
_symmetry_equiv_pos_as_xyz
1 x,y,z
_cell_length_a                   40.572(6)
_cell_length_b                   40.572(6)
_cell_length_c                   17.806(4)
_cell_angle_alpha                90
_cell_angle_beta                 90
_cell_angle_gamma                120
_cell_volume                     25383.4
loop_
_atom_site_label
_atom_site_type_symbol
_atom_site_fract_x
_atom_site_fract_y
_atom_site_fract_z
C104 C 0.4819(8) 0.0165(6) 0.5430(11)
H58 H 0.4725 0.0272 0.5828
C105 C 0.5008(8) 0.0377(6) 0.4745(11)
H59 H 0.5006 0.0605 0.4538
O35 O 0.5561(4) 0.0452(3) 0.6630(5)
O36 O 0.5782(4) 0.0094(3) 0.6067(5)
C123 C 0.5570(7) 0.0232(5) 0.6169(9)
C124 C 0.5251(7) 0.0092(5) 0.5586(10)
C127 C 0.5324(8) 0.0266(6) 0.4637(11)
H71 H 0.5583 0.0458 0.4457
Zn13 Zn 0.58850(7) 0.06450(5) 0.7500
Zn16 Zn 0.62377(5) 0.02208(3) 0.83791(7)
Zn22 Zn 0.62377(5) 0.02208(3) 0.66209(7)
O54 O 0.3769(2) 0.0242(3) 0.3118(5)
O11 O 0.0477(3) 0.3828(2) 0.0914(5)
O12 O 0.1041(3) 0.4038(3) 0.1517(6)
C36 C 0.0831(5) 0.3945(5) 0.0940(10)
C37 C 0.0958(5) 0.3842(4) 0.0245(10)
C38 C 0.1382(5) 0.3995(4) 0.0202(10)
H20 H 0.1539 0.4093 0.0634
O26 O 0.6172(2) 0.6649(4) 0.0914(5)
O27 O 0.5962(3) 0.7003(4) 0.1517(6)
C91 C 0.6055(5) 0.6886(7) 0.0940(10)
C92 C 0.6158(4) 0.7116(6) 0.0245(10)
C93 C 0.6005(4) 0.7387(6) 0.0202(10)
H51 H 0.5907 0.7446 0.0634
O37 O 0.3351(4) 0.9523(3) 0.0914(5)
O38 O 0.2997(4) 0.8959(3) 0.1517(6)
C128 C 0.3114(7) 0.9169(5) 0.0940(10)
C129 C 0.2884(6) 0.9042(5) 0.0245(10)
C130 C 0.2613(6) 0.8618(5) 0.0202(10)
H72 H 0.2554 0.8461 0.0634
Zn20 Zn 0.37623(5) 0.97792(3) 0.16209(7)
Zn21 Zn 0.02208(3) 0.39831(4) 0.16209(7)
Zn24 Zn 0.60169(4) 0.62377(5) 0.16209(7)
Zn25 Zn 0.09876(5) 0.41979(5) 0.2500
Zn26 Zn 0.58021(5) 0.67897(7) 0.2500
Zn27 Zn 0.32103(7) 0.90124(5) 0.2500
Zn1 Zn 0.06450(5) 0.47600(5) 0.2500
Zn2 Zn 0.02208(3) 0.39831(4) 0.33791(7)
O1 O 0.0526(2) 0.4235(2) 0.2500
O2 O 0.0452(3) 0.4891(3) 0.3370(5)
O3 O 0.0094(3) 0.4312(3) 0.3933(5)
O4 O 0.0477(3) 0.3828(2) 0.4086(5)
O5 O 0.1041(3) 0.4038(3) 0.3483(6)
O6 O 0.3527(2) 0.3769(2) 0.6882(5)
O7 O 0.1427(3) 0.4738(3) 0.2500
O8 O 0.1190(3) 0.5115(3) 0.2500
C1 C 0.0232(5) 0.4662(5) 0.3831(9)
C2 C 0.0092(5) 0.4841(5) 0.4414(10)
C5 C 0.0266(6) 0.4942(6) 0.5363(11)
H3 H 0.0458 0.4875 0.5543
C6 C 0.0831(5) 0.3945(5) 0.4060(10)
C7 C 0.0958(5) 0.3842(4) 0.4755(10)
C8 C 0.1382(5) 0.3995(4) 0.4798(10)
H4 H 0.1539 0.4093 0.4366
C9 C 0.1533(6) 0.3986(5) 0.5492(11)
H5 H 0.1801 0.4117 0.5562
C10 C 0.1282(5) 0.3775(5) 0.6109(10)
C11 C 0.0866(5) 0.3602(5) 0.6053(10)
H6 H 0.0701 0.3459 0.6453
C12 C 0.0726(4) 0.3661(4) 0.5356(9)
H7 H 0.0461 0.3571 0.5309
C13 C 0.1411(5) 0.3682(5) 0.6864(10)
C14 C 0.1263(7) 0.3746(6) 0.7500
H8 H 0.1080 0.3825 0.7500
C15 C 0.1769(5) 0.3699(5) 0.6788(10)
H9 H 0.1892 0.3718 0.6322
C16 C 0.1919(7) 0.3685(7) 0.7500
C17 C 0.2305(7) 0.3713(6) 0.7500
C18 C 0.2470(6) 0.3704(6) 0.6871(13)
H10 H 0.2339 0.3657 0.6406
C19 C 0.2868(6) 0.3767(6) 0.6897(12)
H11 H 0.3012 0.3836 0.6446
C20 C 0.3023(5) 0.3732(5) 0.7500
C21 C 0.3378(5) 0.3749(5) 0.7500
C22 C 0.1448(6) 0.5044(6) 0.2500
C23 C 0.1831(6) 0.5367(6) 0.2500
C24 C 0.2158(8) 0.5343(8) 0.2500
H12 H 0.2131 0.5097 0.2500
C25 C 0.2518(9) 0.5650(9) 0.2500
H13 H 0.2729 0.5609 0.2500
C26 C 0.2583(6) 0.6014(6) 0.2500
C27 C 0.2274(9) 0.6045(9) 0.2500
H14 H 0.2302 0.6292 0.2500
C28 C 0.1900(9) 0.5721(9) 0.2500
H15 H 0.1689 0.5763 0.2500
C29 C 0.2971(6) 0.6349(6) 0.2500
C30 C 0.3283(6) 0.6288(6) 0.2500
H16 H 0.3250 0.6040 0.2500
C33 C 0.0165(6) 0.5346(6) 0.4570(11)
H17 H 0.0272 0.5547 0.4172
C34 C 0.0377(6) 0.5369(6) 0.5255(11)
H18 H 0.0605 0.5599 0.5462
O13 O 0.3527(2) 0.3769(2) 0.8118(5)
C39 C 0.1533(6) 0.3986(5) 0.9508(11)
H21 H 0.1801 0.4117 0.9438
C40 C 0.1282(5) 0.3775(5) 0.8891(10)
C41 C 0.0866(5) 0.3602(5) 0.8947(10)
H22 H 0.0701 0.3459 0.8547
C42 C 0.0726(4) 0.3661(4) 0.9644(9)
H23 H 0.0461 0.3571 0.9691
C43 C 0.1411(5) 0.3682(5) 0.8136(10)
C44 C 0.1769(5) 0.3699(5) 0.8212(10)
H24 H 0.1892 0.3718 0.8678
C45 C 0.2470(6) 0.3704(6) 0.8129(13)
H25 H 0.2339 0.3657 0.8594
C46 C 0.2868(6) 0.3767(6) 0.8103(12)
H26 H 0.3012 0.3836 0.8554
O14 O 0.5262(3) 0.6689(4) 0.2500
O15 O 0.4885(3) 0.6075(4) 0.2500
C47 C 0.4956(6) 0.6404(8) 0.2500
C48 C 0.4633(6) 0.6464(8) 0.2500
C49 C 0.4657(8) 0.6815(11) 0.2500
H27 H 0.4903 0.7034 0.2500
C50 C 0.4350(9) 0.6868(13) 0.2500
H28 H 0.4391 0.7120 0.2500
C51 C 0.3986(6) 0.6569(8) 0.2500
C52 C 0.3955(9) 0.6229(13) 0.2500
H29 H 0.3708 0.6010 0.2500
C53 C 0.4279(9) 0.6179(13) 0.2500
H30 H 0.4237 0.5926 0.2500
C54 C 0.3651(6) 0.6622(8) 0.2500
C55 C 0.3712(6) 0.6995(8) 0.2500
H31 H 0.3960 0.7210 0.2500
O16 O 0.3311(4) 0.8573(3) 0.2500
O17 O 0.3925(4) 0.8810(3) 0.2500
C56 C 0.3596(8) 0.8552(6) 0.2500
C57 C 0.3536(8) 0.8169(6) 0.2500
C58 C 0.3185(11) 0.7842(8) 0.2500
H32 H 0.2966 0.7869 0.2500
C59 C 0.3132(13) 0.7482(9) 0.2500
H33 H 0.2880 0.7271 0.2500
C60 C 0.3431(8) 0.7417(6) 0.2500
C61 C 0.3771(13) 0.7726(9) 0.2500
H34 H 0.3990 0.7698 0.2500
C62 C 0.3821(13) 0.8100(9) 0.2500
H35 H 0.4074 0.8311 0.2500
C63 C 0.3378(8) 0.7029(6) 0.2500
C64 C 0.3005(8) 0.6717(6) 0.2500
H36 H 0.2790 0.6750 0.2500
Zn4 Zn 0.52400(5) 0.58850(7) 0.2500
Zn5 Zn 0.60169(4) 0.62377(5) 0.33791(7)
O18 O 0.5765(2) 0.6291(3) 0.2500
O19 O 0.5109(3) 0.5561(4) 0.3370(5)
O20 O 0.5688(3) 0.5782(4) 0.3933(5)
O21 O 0.6172(2) 0.6649(4) 0.4086(5)
O22 O 0.5962(3) 0.7003(4) 0.3483(6)
O23 O 0.6231(2) 0.9758(3) 0.6882(5)
C65 C 0.5338(5) 0.5570(7) 0.3831(9)
C66 C 0.5159(5) 0.5251(7) 0.4414(10)
C67 C 0.5346(6) 0.5181(8) 0.5430(11)
H37 H 0.5547 0.5275 0.5828
C68 C 0.5369(6) 0.4992(8) 0.4745(11)
H38 H 0.5599 0.4994 0.4538
C69 C 0.5058(6) 0.5324(8) 0.5363(11)
H39 H 0.5125 0.5583 0.5543
C70 C 0.6055(5) 0.6886(7) 0.4060(10)
C71 C 0.6158(4) 0.7116(6) 0.4755(10)
C72 C 0.6005(4) 0.7387(6) 0.4798(10)
H40 H 0.5907 0.7446 0.4366
C73 C 0.6014(5) 0.7547(8) 0.5492(11)
H41 H 0.5883 0.7684 0.5562
C74 C 0.6225(5) 0.7507(7) 0.6109(10)
C75 C 0.6398(5) 0.7264(7) 0.6053(10)
H42 H 0.6541 0.7242 0.6453
C76 C 0.6339(4) 0.7065(6) 0.5356(9)
H43 H 0.6429 0.6890 0.5309
C77 C 0.6318(5) 0.7729(7) 0.6864(10)
C78 C 0.6254(6) 0.7517(9) 0.7500
H44 H 0.6175 0.7255 0.7500
C79 C 0.6301(5) 0.8070(7) 0.6788(10)
H45 H 0.6282 0.8174 0.6322
C80 C 0.6315(7) 0.8234(10) 0.7500
C81 C 0.6287(6) 0.8592(9) 0.7500
C82 C 0.6296(6) 0.8766(8) 0.6871(13)
H46 H 0.6343 0.8682 0.6406
C83 C 0.6233(6) 0.9101(8) 0.6897(12)
H47 H 0.6164 0.9176 0.6446
C84 C 0.6268(5) 0.9291(7) 0.7500
C85 C 0.6251(5) 0.9629(7) 0.7500
O24 O 0.4891(3) 0.4439(4) 0.6630(5)
O25 O 0.4312(3) 0.4218(4) 0.6067(5)
C86 C 0.4662(5) 0.4430(7) 0.6169(9)
C87 C 0.4841(5) 0.4749(7) 0.5586(10)
C88 C 0.4654(6) 0.4819(8) 0.4570(11)
H48 H 0.4453 0.4725 0.4172
C89 C 0.4631(6) 0.5008(8) 0.5255(11)
H49 H 0.4401 0.5006 0.5462
C90 C 0.4942(6) 0.4676(8) 0.4637(11)
H50 H 0.4875 0.4417 0.4457
O28 O 0.6231(2) 0.9758(3) 0.8118(5)
C94 C 0.6014(5) 0.7547(8) 0.9508(11)
H52 H 0.5883 0.7684 0.9438
C95 C 0.6225(5) 0.7507(7) 0.8891(10)
C96 C 0.6398(5) 0.7264(7) 0.8947(10)
H53 H 0.6541 0.7242 0.8547
C97 C 0.6339(4) 0.7065(6) 0.9644(9)
H54 H 0.6429 0.6890 0.9691
C98 C 0.6318(5) 0.7729(7) 0.8136(10)
C99 C 0.6301(5) 0.8070(7) 0.8212(10)
H55 H 0.6282 0.8174 0.8678
C100 C 0.6296(6) 0.8766(8) 0.8129(13)
H56 H 0.6343 0.8682 0.8594
C101 C 0.6233(6) 0.9101(8) 0.8103(12)
H57 H 0.6164 0.9176 0.8554
Zn7 Zn 0.41150(7) 0.93550(5) 0.2500
Zn8 Zn 0.37623(5) 0.97792(3) 0.33791(7)
O29 O 0.3709(3) 0.9474(2) 0.2500
O30 O 0.4439(4) 0.9548(3) 0.3370(5)
O31 O 0.4218(4) 0.9906(3) 0.3933(5)
O32 O 0.3351(4) 0.9523(3) 0.4086(5)
O33 O 0.2997(4) 0.8959(3) 0.3483(6)
O34 O 0.0242(3) 0.6473(2) 0.6882(5)
C102 C 0.4430(7) 0.9768(5) 0.3831(9)
C103 C 0.4749(7) 0.9908(5) 0.4414(10)
C106 C 0.4676(8) 0.9734(6) 0.5363(11)
H60 H 0.4417 0.9542 0.5543
C107 C 0.3114(7) 0.9169(5) 0.4060(10)
C108 C 0.2884(6) 0.9042(5) 0.4755(10)
C109 C 0.2613(6) 0.8618(5) 0.4798(10)
H61 H 0.2554 0.8461 0.4366
C110 C 0.2453(8) 0.8467(6) 0.5492(11)
H62 H 0.2316 0.8199 0.5562
C111 C 0.2493(7) 0.8718(5) 0.6109(10)
C112 C 0.2736(7) 0.9134(5) 0.6053(10)
H63 H 0.2758 0.9299 0.6453
C113 C 0.2935(6) 0.9274(4) 0.5356(9)
H64 H 0.3110 0.9539 0.5309
C114 C 0.2271(7) 0.8589(5) 0.6864(10)
C115 C 0.2483(9) 0.8737(7) 0.7500
H65 H 0.2745 0.8920 0.7500
C116 C 0.1930(7) 0.8231(5) 0.6788(10)
H66 H 0.1826 0.8108 0.6322
C117 C 0.1766(10) 0.8081(7) 0.7500
C118 C 0.1408(9) 0.7695(7) 0.7500
C119 C 0.1234(8) 0.7530(6) 0.6871(13)
H67 H 0.1318 0.7661 0.6406
C120 C 0.0899(8) 0.7132(6) 0.6897(12)
H68 H 0.0824 0.6988 0.6446
C121 C 0.0709(7) 0.6977(5) 0.7500
C122 C 0.0371(7) 0.6622(5) 0.7500
C125 C 0.5181(8) 0.9835(6) 0.4570(11)
H69 H 0.5275 0.9728 0.4172
C126 C 0.4992(8) 0.9623(6) 0.5255(11)
H70 H 0.4994 0.9395 0.5462
O39 O 0.0242(3) 0.6473(2) 0.8118(5)
C131 C 0.2453(8) 0.8467(6) 0.9508(11)
H73 H 0.2316 0.8199 0.9438
C132 C 0.2493(7) 0.8718(5) 0.8891(10)
C133 C 0.2736(7) 0.9134(5) 0.8947(10)
H74 H 0.2758 0.9299 0.8547
C134 C 0.2935(6) 0.9274(4) 0.9644(9)
H75 H 0.3110 0.9539 0.9691
C135 C 0.2271(7) 0.8589(5) 0.8136(10)
C136 C 0.1930(7) 0.8231(5) 0.8212(10)
H76 H 0.1826 0.8108 0.8678
C137 C 0.1234(8) 0.7530(6) 0.8129(13)
H77 H 0.1318 0.7661 0.8594
C138 C 0.0899(8) 0.7132(6) 0.8103(12)
H78 H 0.0824 0.6988 0.8554
Zn12 Zn 0.39831(4) 0.37623(5) 0.66209(7)
Zn15 Zn 0.47600(5) 0.41150(7) 0.7500
Zn18 Zn 0.39831(4) 0.37623(5) 0.83791(7)
O41 O 0.4235(2) 0.3709(3) 0.7500
O42 O 0.4439(4) 0.9548(3) 0.1630(5)
O43 O 0.0452(3) 0.4891(3) 0.1630(5)
O44 O 0.5109(3) 0.5561(4) 0.1630(5)
O45 O 0.0094(3) 0.4312(3) 0.1067(5)
O47 O 0.3828(2) 0.3351(4) 0.5914(5)
O53 O 0.6473(2) 0.6231(2) 0.3118(5)
C3 C 0.9835(6) 0.4654(6) 0.5430(11)
H1 H 0.9728 0.4453 0.5828
C4 C 0.9623(6) 0.4631(6) 0.4745(11)
H2 H 0.9395 0.4401 0.4538
O9 O 0.9548(3) 0.5109(3) 0.6630(5)
O10 O 0.9906(3) 0.5688(3) 0.6067(5)
C31 C 0.9768(5) 0.5338(5) 0.6169(9)
C32 C 0.9908(5) 0.5159(5) 0.5586(10)
C35 C 0.9734(6) 0.5058(6) 0.4637(11)
H19 H 0.9542 0.5125 0.4457
Zn10 Zn 0.97792(3) 0.60169(4) 0.66209(7)
Zn14 Zn 0.93550(5) 0.52400(5) 0.7500
Zn17 Zn 0.97792(3) 0.60169(4) 0.83791(7)
O40 O 0.9474(2) 0.5765(2) 0.7500
O46 O 0.9523(3) 0.6172(2) 0.5914(5)
O52 O 0.9758(3) 0.3527(2) 0.1882(5)
O55 O 0.9758(3) 0.3527(2) 0.3118(5)
C67_2 C 0.0165(10) 0.5346(6) 0.0430(11)
H37_2 H 0.0272 0.5547 0.0828
C86_2 C 0.0232(9) 0.4662(5) 0.1169(9)
C87_2 C 0.0092(9) 0.4841(5) 0.0586(10)
C68_2 C 0.0377(10) 0.5369(6) 0.9745(11)
H38_2 H 0.0605 0.5599 0.9538
C90_2 C 0.0266(10) 0.4942(6) 0.9637(11)
H50_2 H 0.0458 0.4875 0.9457
C5_2 C 0.5324(8) 0.0266(6) 0.0363(11)
H3_2 H 0.5583 0.0458 0.0543
C9_2 C 0.7547(8) 0.1533(6) 0.0492(11)
H5_2 H 0.7684 0.1801 0.0562
C10_2 C 0.7507(7) 0.1282(5) 0.1109(10)
C11_2 C 0.7264(7) 0.0866(5) 0.1053(10)
H6_2 H 0.7242 0.0701 0.1453
C12_2 C 0.7065(6) 0.0726(4) 0.0356(9)
H7_2 H 0.6890 0.0461 0.0309
C13_2 C 0.7729(7) 0.1411(5) 0.1864(10)
C14_2 C 0.7517(9) 0.1263(7) 0.2500
H8_2 H 0.7255 0.1080 0.2500
C15_2 C 0.8070(7) 0.1769(5) 0.1788(10)
H9_2 H 0.8174 0.1892 0.1322
C16_2 C 0.8234(10) 0.1919(7) 0.2500
C17_2 C 0.8592(9) 0.2305(7) 0.2500
C18_2 C 0.8766(8) 0.2470(6) 0.1871(13)
H10_2 H 0.8682 0.2339 0.1406
C19_2 C 0.9101(8) 0.2868(6) 0.1897(12)
H11_2 H 0.9176 0.3012 0.1446
C20_2 C 0.9291(7) 0.3023(5) 0.2500
C21_2 C 0.9629(7) 0.3378(5) 0.2500
C34_2 C 0.5008(8) 0.0377(6) 0.0255(11)
H18_2 H 0.5006 0.0605 0.0462
O11_2 O 0.6649(4) 0.0477(3) 0.5914(5)
O12_2 O 0.7003(4) 0.1041(3) 0.6517(6)
C36_2 C 0.6886(7) 0.0831(5) 0.5940(10)
C37_2 C 0.7116(6) 0.0958(5) 0.5245(10)
C38_2 C 0.7387(6) 0.1382(5) 0.5202(10)
H20_2 H 0.7446 0.1539 0.5634
C39_2 C 0.7547(8) 0.1533(6) 0.4508(11)
H21_2 H 0.7684 0.1801 0.4438
C40_2 C 0.7507(7) 0.1282(5) 0.3891(10)
C41_2 C 0.7264(7) 0.0866(5) 0.3947(10)
H22_2 H 0.7242 0.0701 0.3547
C42_2 C 0.7065(6) 0.0726(4) 0.4644(9)
H23_2 H 0.6890 0.0461 0.4691
C43_2 C 0.7729(7) 0.1411(5) 0.3136(10)
C44_2 C 0.8070(7) 0.1769(5) 0.3212(10)
H24_2 H 0.8174 0.1892 0.3678
C45_2 C 0.8766(8) 0.2470(6) 0.3129(13)
H25_2 H 0.8682 0.2339 0.3594
C46_2 C 0.9101(8) 0.2868(6) 0.3103(12)
H26_2 H 0.9176 0.3012 0.3554
O23_2 O 0.6473(4) 0.6231(2) 0.1882(5)
C69_2 C 0.9734(10) 0.5058(6) 0.0363(11)
H39_2 H 0.9542 0.5125 0.0543
C73_2 C 0.8467(9) 0.6014(5) 0.0492(11)
H41_2 H 0.8199 0.5883 0.0562
C74_2 C 0.8718(9) 0.6225(5) 0.1109(10)
C75_2 C 0.9134(9) 0.6398(5) 0.1053(10)
H42_2 H 0.9299 0.6541 0.1453
C76_2 C 0.9274(7) 0.6339(4) 0.0356(9)
H43_2 H 0.9539 0.6429 0.0309
C77_2 C 0.8589(9) 0.6318(5) 0.1864(10)
C78_2 C 0.8737(11) 0.6254(6) 0.2500
H44_2 H 0.8920 0.6175 0.2500
C79_2 C 0.8231(9) 0.6301(5) 0.1788(10)
H45_2 H 0.8108 0.6282 0.1322
C80_2 C 0.8081(12) 0.6315(7) 0.2500
C81_2 C 0.7695(11) 0.6287(6) 0.2500
C82_2 C 0.7530(10) 0.6296(6) 0.1871(13)
H46_2 H 0.7661 0.6343 0.1406
C83_2 C 0.7132(10) 0.6233(6) 0.1897(12)
H47_2 H 0.6988 0.6164 0.1446
C84_2 C 0.6977(9) 0.6268(5) 0.2500
C85_2 C 0.6622(9) 0.6251(5) 0.2500
C89_2 C 0.9623(10) 0.4631(6) 0.0255(11)
H49_2 H 0.9395 0.4401 0.0462
O27_2 O 0.8959(5) 0.5962(3) 0.6517(6)
C91_2 C 0.9169(9) 0.6055(5) 0.5940(10)
C92_2 C 0.9042(7) 0.6158(4) 0.5245(10)
C93_2 C 0.8618(7) 0.6005(4) 0.5202(10)
H51_2 H 0.8461 0.5907 0.5634
C94_2 C 0.8467(9) 0.6014(5) 0.4508(11)
H52_2 H 0.8199 0.5883 0.4438
C95_2 C 0.8718(9) 0.6225(5) 0.3891(10)
C96_2 C 0.9134(9) 0.6398(5) 0.3947(10)
H53_2 H 0.9299 0.6541 0.3547
C97_2 C 0.9274(7) 0.6339(4) 0.4644(9)
H54_2 H 0.9539 0.6429 0.4691
C98_2 C 0.8589(9) 0.6318(5) 0.3136(10)
C99_2 C 0.8231(9) 0.6301(5) 0.3212(10)
H55_2 H 0.8108 0.6282 0.3678
C100_2 C 0.7530(10) 0.6296(6) 0.3129(13)
H56_2 H 0.7661 0.6343 0.3594
C101_2 C 0.7132(10) 0.6233(6) 0.3103(12)
H57_2 H 0.6988 0.6164 0.3554
O34_2 O 0.3769(4) 0.0242(3) 0.1882(5)
C104_2 C 0.4654(10) 0.4819(8) 0.0430(11)
H58_2 H 0.4453 0.4725 0.0828
C106_2 C 0.4942(10) 0.4676(8) 0.0363(11)
H60_2 H 0.4875 0.4417 0.0543
C110_2 C 0.3986(10) 0.2453(8) 0.0492(11)
H62_2 H 0.4117 0.2316 0.0562
C111_2 C 0.3775(9) 0.2493(7) 0.1109(10)
C112_2 C 0.3602(9) 0.2736(7) 0.1053(10)
H63_2 H 0.3459 0.2758 0.1453
C113_2 C 0.3661(7) 0.2935(6) 0.0356(9)
H64_2 H 0.3571 0.3110 0.0309
C114_2 C 0.3682(9) 0.2271(7) 0.1864(10)
C115_2 C 0.3746(11) 0.2483(9) 0.2500
H65_2 H 0.3825 0.2745 0.2500
C116_2 C 0.3699(9) 0.1930(7) 0.1788(10)
H66_2 H 0.3718 0.1826 0.1322
C117_2 C 0.3685(12) 0.1766(10) 0.2500
C118_2 C 0.3713(11) 0.1408(9) 0.2500
C119_2 C 0.3704(10) 0.1234(8) 0.1871(13)
H67_2 H 0.3657 0.1318 0.1406
C120_2 C 0.3767(10) 0.0899(8) 0.1897(12)
H68_2 H 0.3836 0.0824 0.1446
C121_2 C 0.3732(9) 0.0709(7) 0.2500
C122_2 C 0.3749(9) 0.0371(7) 0.2500
O36_2 O 0.5688(5) 0.5782(4) 0.1067(5)
C123_2 C 0.5338(9) 0.5570(7) 0.1169(9)
C124_2 C 0.5159(9) 0.5251(7) 0.0586(10)
C126_2 C 0.5369(10) 0.4992(8) 0.0255(11)
H70_2 H 0.5599 0.4994 0.0462
O38_2 O 0.4038(5) 0.2997(4) 0.6517(6)
C128_2 C 0.3945(9) 0.3114(7) 0.5940(10)
C129_2 C 0.3842(8) 0.2884(6) 0.5245(10)
C130_2 C 0.3995(8) 0.2613(6) 0.5202(10)
H72_2 H 0.4093 0.2554 0.5634
C131_2 C 0.3986(10) 0.2453(8) 0.4508(11)
H73_2 H 0.4117 0.2316 0.4438
C132_2 C 0.3775(9) 0.2493(7) 0.3891(10)
C133_2 C 0.3602(9) 0.2736(7) 0.3947(10)
H74_2 H 0.3459 0.2758 0.3547
C134_2 C 0.3661(7) 0.2935(6) 0.4644(9)
H75_2 H 0.3571 0.3110 0.4691
C135_2 C 0.3682(9) 0.2271(7) 0.3136(10)
C136_2 C 0.3699(9) 0.1930(7) 0.3212(10)
H76_2 H 0.3718 0.1826 0.3678
C137_2 C 0.3704(10) 0.1234(8) 0.3129(13)
H77_2 H 0.3657 0.1318 0.3594
C138_2 C 0.3767(10) 0.0899(8) 0.3103(12)
H78_2 H 0.3836 0.0824 0.3554
Zn25_2 Zn 0.67897(7) 0.09876(5) 0.7500
Zn26_2 Zn 0.90124(9) 0.58021(5) 0.7500
Zn27_2 Zn 0.41979(9) 0.32103(7) 0.7500
O1_2 O 0.6291(3) 0.0526(2) 0.7500
O2_2 O 0.5561(4) 0.0452(3) 0.8370(5)
O3_2 O 0.5782(4) 0.0094(3) 0.8933(5)
O4_2 O 0.6649(4) 0.0477(3) 0.9086(5)
O5_2 O 0.7003(4) 0.1041(3) 0.8483(6)
O7_2 O 0.6689(4) 0.1427(3) 0.7500
O8_2 O 0.6075(4) 0.1190(3) 0.7500
C1_2 C 0.5570(7) 0.0232(5) 0.8831(9)
C2_2 C 0.5251(7) 0.0092(5) 0.9414(10)
C6_2 C 0.6886(7) 0.0831(5) 0.9060(10)
C7_2 C 0.7116(6) 0.0958(5) 0.9755(10)
C8_2 C 0.7387(6) 0.1382(5) 0.9798(10)
H4_2 H 0.7446 0.1539 0.9366
C22_2 C 0.6404(8) 0.1448(6) 0.7500
C23_2 C 0.6464(8) 0.1831(6) 0.7500
C24_2 C 0.6815(11) 0.2158(8) 0.7500
H12_2 H 0.7034 0.2131 0.7500
C25_2 C 0.6868(13) 0.2518(9) 0.7500
H13_2 H 0.7120 0.2729 0.7500
C26_2 C 0.6569(8) 0.2583(6) 0.7500
C27_2 C 0.6229(13) 0.2274(9) 0.7500
H14_2 H 0.6010 0.2302 0.7500
C28_2 C 0.6179(13) 0.1900(9) 0.7500
H15_2 H 0.5926 0.1689 0.7500
C29_2 C 0.6622(8) 0.2971(6) 0.7500
C30_2 C 0.6995(8) 0.3283(6) 0.7500
H16_2 H 0.7210 0.3250 0.7500
C33_2 C 0.4819(8) 0.0165(6) 0.9570(11)
H17_2 H 0.4725 0.0272 0.9172
O14_2 O 0.8573(5) 0.5262(3) 0.7500
O15_2 O 0.8810(5) 0.4885(3) 0.7500
C47_2 C 0.8552(10) 0.4956(6) 0.7500
C48_2 C 0.8169(10) 0.4633(6) 0.7500
C49_2 C 0.7842(14) 0.4657(8) 0.7500
H27_2 H 0.7869 0.4903 0.7500
C50_2 C 0.7482(16) 0.4350(9) 0.7500
H28_2 H 0.7271 0.4391 0.7500
C51_2 C 0.7417(10) 0.3986(6) 0.7500
C52_2 C 0.7726(16) 0.3955(9) 0.7500
H29_2 H 0.7698 0.3708 0.7500
C53_2 C 0.8100(16) 0.4279(9) 0.7500
H30_2 H 0.8311 0.4237 0.7500
C54_2 C 0.7029(10) 0.3651(6) 0.7500
C55_2 C 0.6717(10) 0.3712(6) 0.7500
H31_2 H 0.6750 0.3960 0.7500
O16_2 O 0.4738(5) 0.3311(4) 0.7500
O17_2 O 0.5115(5) 0.3925(4) 0.7500
C56_2 C 0.5044(10) 0.3596(8) 0.7500
C57_2 C 0.5367(10) 0.3536(8) 0.7500
C58_2 C 0.5343(14) 0.3185(11) 0.7500
H32_2 H 0.5097 0.2966 0.7500
C59_2 C 0.5650(16) 0.3132(13) 0.7500
H33_2 H 0.5609 0.2880 0.7500
C60_2 C 0.6014(10) 0.3431(8) 0.7500
C61_2 C 0.6045(16) 0.3771(13) 0.7500
H34_2 H 0.6292 0.3990 0.7500
C62_2 C 0.5721(16) 0.3821(13) 0.7500
H35_2 H 0.5763 0.4074 0.7500
C63_2 C 0.6349(10) 0.3378(8) 0.7500
C64_2 C 0.6288(10) 0.3005(8) 0.7500
H36_2 H 0.6040 0.2790 0.7500
O19_2 O 0.9548(5) 0.5109(3) 0.8370(5)
O20_2 O 0.9906(5) 0.5688(3) 0.8933(5)
O21_2 O 0.9523(4) 0.6172(2) 0.9086(5)
O22_2 O 0.8959(5) 0.5962(3) 0.8483(6)
C65_2 C 0.9768(9) 0.5338(5) 0.8831(9)
C66_2 C 0.9908(9) 0.5159(5) 0.9414(10)
C70_2 C 0.9169(9) 0.6055(5) 0.9060(10)
C71_2 C 0.9042(7) 0.6158(4) 0.9755(10)
C72_2 C 0.8618(7) 0.6005(4) 0.9798(10)
H40_2 H 0.8461 0.5907 0.9366
C88_2 C 0.9835(10) 0.4654(6) 0.9570(11)
H48_2 H 0.9728 0.4453 0.9172
O30_2 O 0.4891(5) 0.4439(4) 0.8370(5)
O31_2 O 0.4312(5) 0.4218(4) 0.8933(5)
O32_2 O 0.3828(5) 0.3351(4) 0.9086(5)
O33_2 O 0.4038(5) 0.2997(4) 0.8483(6)
C102_2 C 0.4662(9) 0.4430(7) 0.8831(9)
C103_2 C 0.4841(9) 0.4749(7) 0.9414(10)
C105_2 C 0.4631(10) 0.5008(8) 0.9745(11)
H59_2 H 0.4401 0.5006 0.9538
C107_2 C 0.3945(9) 0.3114(7) 0.9060(10)
C108_2 C 0.3842(8) 0.2884(6) 0.9755(10)
C109_2 C 0.3995(8) 0.2613(6) 0.9798(10)
H61_2 H 0.4093 0.2554 0.9366
C125_2 C 0.5346(10) 0.5181(8) 0.9570(11)
H69_2 H 0.5547 0.5275 0.9172
C127_2 C 0.5058(10) 0.5324(8) 0.9637(11)
H71_2 H 0.5125 0.5583 0.9457
C3_2 C 0.5181(8) 0.9835(6) 0.0430(11)
H1_2 H 0.5275 0.9728 0.0828
O10_2 O 0.4218(4) 0.9906(3) 0.1067(5)
C31_2 C 0.4430(7) 0.9768(5) 0.1169(9)
C32_2 C 0.4749(7) 0.9908(5) 0.0586(10)
C4_2 C 0.4992(8) 0.9623(6) 0.9745(11)
H2_2 H 0.4994 0.9395 0.9538
C35_2 C 0.4676(8) 0.9734(6) 0.9637(11)
H19_2 H 0.4417 0.9542 0.9457
loop_
_geom_bond_atom_site_label_1
_geom_bond_atom_site_label_2
_geom_bond_site_symmetry_1
_geom_bond_site_symmetry_2
C104 H58 1_555 1_555
H59 C105 1_555 1_555
O35 C123 1_555 1_555
O36 C123 1_555 1_555
C123 C124 1_555 1_555
C124 C104 1_555 1_555
C127 C105 1_555 1_555
H71 C127 1_555 1_555
Zn13 O35 1_555 1_555
C104 C105 1_555 1_555
O36 Zn22 1_555 1_555
C124 C127 1_555 1_555
O11 C36 1_555 1_555
O12 C36 1_555 1_555
C36 C37 1_555 1_555
C37 C38 1_555 1_555
C38 H20 1_555 1_555
O26 C91 1_555 1_555
O27 C91 1_555 1_555
C91 C92 1_555 1_555
C92 C93 1_555 1_555
C93 H51 1_555 1_555
O37 C128 1_555 1_555
O38 C128 1_555 1_555
C128 C129 1_555 1_555
C129 C130 1_555 1_555
C130 H72 1_555 1_555
Zn20 O37 1_555 1_555
Zn21 O11 1_555 1_555
Zn24 O26 1_555 1_555
Zn25 O12 1_555 1_555
Zn26 O27 1_555 1_555
Zn27 O38 1_555 1_555
Zn1 O1 1_555 1_555
Zn2 O1 1_555 1_555
Zn25 O1 1_555 1_555
O1 Zn21 1_555 1_555
O2 Zn1 1_555 1_555
O3 Zn2 1_555 1_555
O4 Zn2 1_555 1_555
O5 Zn25 1_555 1_555
O6 C21 1_555 1_555
O7 Zn25 1_555 1_555
O8 Zn1 1_555 1_555
C1 O2 1_555 1_555
C2 C1 1_555 1_555
C5 C2 1_555 1_555
H3 C5 1_555 1_555
C6 O4 1_555 1_555
C7 C6 1_555 1_555
C8 C7 1_555 1_555
H4 C8 1_555 1_555
C9 C8 1_555 1_555
H5 C9 1_555 1_555
C10 C9 1_555 1_555
C11 C10 1_555 1_555
H6 C11 1_555 1_555
C12 C7 1_555 1_555
H7 C12 1_555 1_555
C13 C10 1_555 1_555
C14 C13 1_555 1_555
H8 C14 1_555 1_555
C15 C13 1_555 1_555
H9 C15 1_555 1_555
C16 C15 1_555 1_555
C17 C16 1_555 1_555
C18 C17 1_555 1_555
H10 C18 1_555 1_555
C19 C18 1_555 1_555
H11 C19 1_555 1_555
C20 C19 1_555 1_555
C21 C20 1_555 1_555
C22 O7 1_555 1_555
C23 C22 1_555 1_555
C24 C23 1_555 1_555
H12 C24 1_555 1_555
C25 C24 1_555 1_555
H13 C25 1_555 1_555
C26 C25 1_555 1_555
C27 C26 1_555 1_555
H14 C27 1_555 1_555
C28 C23 1_555 1_555
H15 C28 1_555 1_555
C29 C26 1_555 1_555
C30 C29 1_555 1_555
H16 C30 1_555 1_555
C33 C2 1_555 1_555
H17 C33 1_555 1_555
C34 C5 1_555 1_555
H18 C34 1_555 1_555
O13 C21 1_555 1_555
H21 C39 1_555 1_555
C40 C39 1_555 1_555
C41 C40 1_555 1_555
H22 C41 1_555 1_555
H23 C42 1_555 1_555
C43 C14 1_555 1_555
C44 C16 1_555 1_555
H24 C44 1_555 1_555
C45 C17 1_555 1_555
H25 C45 1_555 1_555
C46 C20 1_555 1_555
H26 C46 1_555 1_555
O14 C47 1_555 1_555
O15 C47 1_555 1_555
C47 C48 1_555 1_555
C48 C49 1_555 1_555
C49 H27 1_555 1_555
C50 C49 1_555 1_555
H28 C50 1_555 1_555
C51 C50 1_555 1_555
C52 C51 1_555 1_555
H29 C52 1_555 1_555
C53 C48 1_555 1_555
H30 C53 1_555 1_555
C54 C30 1_555 1_555
C55 C54 1_555 1_555
H31 C55 1_555 1_555
O16 C56 1_555 1_555
O17 C56 1_555 1_555
C56 C57 1_555 1_555
C57 C58 1_555 1_555
C58 H32 1_555 1_555
C59 C58 1_555 1_555
H33 C59 1_555 1_555
C60 C59 1_555 1_555
C61 C60 1_555 1_555
H34 C61 1_555 1_555
C62 C57 1_555 1_555
H35 C62 1_555 1_555
C63 C55 1_555 1_555
C64 C29 1_555 1_555
H36 C64 1_555 1_555
Zn4 O15 1_555 1_555
Zn5 O18 1_555 1_555
Zn26 O14 1_555 1_555
O18 Zn4 1_555 1_555
O19 Zn4 1_555 1_555
O20 Zn5 1_555 1_555
O21 Zn5 1_555 1_555
O22 Zn26 1_555 1_555
O23 C85 1_555 1_555
C65 O19 1_555 1_555
C66 C65 1_555 1_555
C67 H37 1_555 1_555
C68 C66 1_555 1_555
H38 C68 1_555 1_555
C69 C66 1_555 1_555
H39 C69 1_555 1_555
C70 O21 1_555 1_555
C71 C70 1_555 1_555
C72 C71 1_555 1_555
H40 C72 1_555 1_555
C73 C72 1_555 1_555
H41 C73 1_555 1_555
C74 C73 1_555 1_555
C75 C74 1_555 1_555
H42 C75 1_555 1_555
C76 C71 1_555 1_555
H43 C76 1_555 1_555
C77 C74 1_555 1_555
C78 C77 1_555 1_555
H44 C78 1_555 1_555
C79 C77 1_555 1_555
H45 C79 1_555 1_555
C80 C79 1_555 1_555
C81 C80 1_555 1_555
C82 C81 1_555 1_555
H46 C82 1_555 1_555
C83 C82 1_555 1_555
H47 C83 1_555 1_555
C84 C83 1_555 1_555
C85 C84 1_555 1_555
O24 C86 1_555 1_555
O25 C86 1_555 1_555
C86 C87 1_555 1_555
C87 C67 1_555 1_555
C88 C66 1_555 1_555
H48 C88 1_555 1_555
C89 C69 1_555 1_555
H49 C89 1_555 1_555
C90 C68 1_555 1_555
H50 C90 1_555 1_555
O28 C85 1_555 1_555
H52 C94 1_555 1_555
C95 C94 1_555 1_555
C96 C95 1_555 1_555
H53 C96 1_555 1_555
H54 C97 1_555 1_555
C98 C78 1_555 1_555
C99 C80 1_555 1_555
H55 C99 1_555 1_555
C100 C81 1_555 1_555
H56 C100 1_555 1_555
C101 C84 1_555 1_555
H57 C101 1_555 1_555
Zn7 O17 1_555 1_555
Zn8 O29 1_555 1_555
Zn27 O16 1_555 1_555
O29 Zn7 1_555 1_555
O30 Zn7 1_555 1_555
O31 Zn8 1_555 1_555
O32 Zn8 1_555 1_555
O33 Zn27 1_555 1_555
O34 C122 1_555 1_555
C102 O30 1_555 1_555
C103 C102 1_555 1_555
C106 C103 1_555 1_555
H60 C106 1_555 1_555
C107 O32 1_555 1_555
C108 C107 1_555 1_555
C109 C108 1_555 1_555
H61 C109 1_555 1_555
C110 C109 1_555 1_555
H62 C110 1_555 1_555
C111 C110 1_555 1_555
C112 C111 1_555 1_555
H63 C112 1_555 1_555
C113 C108 1_555 1_555
H64 C113 1_555 1_555
C114 C111 1_555 1_555
C115 C114 1_555 1_555
H65 C115 1_555 1_555
C116 C114 1_555 1_555
H66 C116 1_555 1_555
C117 C116 1_555 1_555
C118 C117 1_555 1_555
C119 C118 1_555 1_555
H67 C119 1_555 1_555
C120 C119 1_555 1_555
H68 C120 1_555 1_555
C121 C120 1_555 1_555
C122 C121 1_555 1_555
C125 C103 1_555 1_555
H69 C125 1_555 1_555
C126 C106 1_555 1_555
H70 C126 1_555 1_555
O39 C122 1_555 1_555
H73 C131 1_555 1_555
C132 C131 1_555 1_555
C133 C132 1_555 1_555
H74 C133 1_555 1_555
H75 C134 1_555 1_555
C135 C115 1_555 1_555
C136 C117 1_555 1_555
H76 C136 1_555 1_555
C137 C118 1_555 1_555
H77 C137 1_555 1_555
C138 C121 1_555 1_555
H78 C138 1_555 1_555
Zn21 O45 1_555 1_555
Zn12 O6 1_555 1_555
Zn15 O24 1_555 1_555
Zn18 O13 1_555 1_555
Zn20 O29 1_555 1_555
Zn24 O18 1_555 1_555
O41 Zn12 1_555 1_555
O42 Zn7 1_555 1_555
O43 Zn1 1_555 1_555
O44 Zn4 1_555 1_555
O47 Zn12 1_555 1_555
O53 Zn5 1_555 1_555
O3 C1 1_555 1_555
O5 C6 1_555 1_555
O8 C22 1_555 1_555
C11 C12 1_555 1_555
C27 C28 1_555 1_555
C33 C34 1_555 1_555
C40 C43 1_555 1_555
C41 C42 1_555 1_555
C43 C44 1_555 1_555
C45 C46 1_555 1_555
C51 C54 1_555 1_555
C52 C53 1_555 1_555
C60 C63 1_555 1_555
C61 C62 1_555 1_555
C63 C64 1_555 1_555
Zn26 O18 1_555 1_555
O20 C65 1_555 1_555
O22 C70 1_555 1_555
C67 C68 1_555 1_555
C67 C69 1_555 1_555
C75 C76 1_555 1_555
O25 Zn12 1_555 1_555
C87 C89 1_555 1_555
C87 C90 1_555 1_555
C88 C89 1_555 1_555
C88 C90 1_555 1_555
C95 C98 1_555 1_555
C96 C97 1_555 1_555
C98 C99 1_555 1_555
C100 C101 1_555 1_555
Zn27 O29 1_555 1_555
O31 C102 1_555 1_555
O33 C107 1_555 1_555
C112 C113 1_555 1_555
C125 C126 1_555 1_555
C132 C135 1_555 1_555
C133 C134 1_555 1_555
C135 C136 1_555 1_555
C137 C138 1_555 1_555
Zn15 O41 1_555 1_555
Zn18 O41 1_555 1_555
C3 H1 1_555 1_555
H2 C4 1_555 1_555
O9 C31 1_555 1_555
O10 C31 1_555 1_555
C31 C32 1_555 1_555
C32 C3 1_555 1_555
C35 C4 1_555 1_555
H19 C35 1_555 1_555
Zn10 O10 1_555 1_555
Zn14 O9 1_555 1_555
O40 Zn10 1_555 1_555
O46 Zn10 1_555 1_555
C3 C4 1_555 1_555
C32 C35 1_555 1_555
Zn14 O40 1_555 1_555
Zn17 O40 1_555 1_555
C67_2 H37_2 1_555 1_555
O43 C86_2 1_555 1_555
O45 C86_2 1_555 1_555
C86_2 C87_2 1_555 1_555
C87_2 C67_2 1_555 1_555
H38_2 C68_2 1_555 1_555
C90_2 C68_2 1_555 1_555
H50_2 C90_2 1_555 1_555
O52 C21_2 1_555 1_555
H3_2 C5_2 1_555 1_555
H5_2 C9_2 1_555 1_555
C10_2 C9_2 1_555 1_555
C11_2 C10_2 1_555 1_555
H6_2 C11_2 1_555 1_555
H7_2 C12_2 1_555 1_555
C13_2 C10_2 1_555 1_555
C14_2 C13_2 1_555 1_555
H8_2 C14_2 1_555 1_555
C15_2 C13_2 1_555 1_555
H9_2 C15_2 1_555 1_555
C16_2 C15_2 1_555 1_555
C17_2 C16_2 1_555 1_555
C18_2 C17_2 1_555 1_555
H10_2 C18_2 1_555 1_555
C19_2 C18_2 1_555 1_555
H11_2 C19_2 1_555 1_555
C20_2 C19_2 1_555 1_555
C21_2 C20_2 1_555 1_555
C34_2 C5_2 1_555 1_555
H18_2 C34_2 1_555 1_555
O11_2 C36_2 1_555 1_555
O12_2 C36_2 1_555 1_555
O55 C21_2 1_555 1_555
C36_2 C37_2 1_555 1_555
C37_2 C38_2 1_555 1_555
C38_2 H20_2 1_555 1_555
C39_2 C38_2 1_555 1_555
H21_2 C39_2 1_555 1_555
C40_2 C39_2 1_555 1_555
C41_2 C40_2 1_555 1_555
H22_2 C41_2 1_555 1_555
C42_2 C37_2 1_555 1_555
H23_2 C42_2 1_555 1_555
C43_2 C14_2 1_555 1_555
C44_2 C16_2 1_555 1_555
H24_2 C44_2 1_555 1_555
C45_2 C17_2 1_555 1_555
H25_2 C45_2 1_555 1_555
C46_2 C20_2 1_555 1_555
H26_2 C46_2 1_555 1_555
O23_2 C85_2 1_555 1_555
H39_2 C69_2 1_555 1_555
H41_2 C73_2 1_555 1_555
C74_2 C73_2 1_555 1_555
C75_2 C74_2 1_555 1_555
H42_2 C75_2 1_555 1_555
H43_2 C76_2 1_555 1_555
C77_2 C74_2 1_555 1_555
C78_2 C77_2 1_555 1_555
H44_2 C78_2 1_555 1_555
C79_2 C77_2 1_555 1_555
H45_2 C79_2 1_555 1_555
C80_2 C79_2 1_555 1_555
C81_2 C80_2 1_555 1_555
C82_2 C81_2 1_555 1_555
H46_2 C82_2 1_555 1_555
C83_2 C82_2 1_555 1_555
H47_2 C83_2 1_555 1_555
C84_2 C83_2 1_555 1_555
C85_2 C84_2 1_555 1_555
C89_2 C69_2 1_555 1_555
H49_2 C89_2 1_555 1_555
O46 C91_2 1_555 1_555
O27_2 C91_2 1_555 1_555
O53 C85_2 1_555 1_555
C91_2 C92_2 1_555 1_555
C92_2 C93_2 1_555 1_555
C93_2 H51_2 1_555 1_555
C94_2 C93_2 1_555 1_555
H52_2 C94_2 1_555 1_555
C95_2 C94_2 1_555 1_555
C96_2 C95_2 1_555 1_555
H53_2 C96_2 1_555 1_555
C97_2 C92_2 1_555 1_555
H54_2 C97_2 1_555 1_555
C98_2 C78_2 1_555 1_555
C99_2 C80_2 1_555 1_555
H55_2 C99_2 1_555 1_555
C100_2 C81_2 1_555 1_555
H56_2 C100_2 1_555 1_555
C101_2 C84_2 1_555 1_555
H57_2 C101_2 1_555 1_555
O34_2 C122_2 1_555 1_555
C104_2 H58_2 1_555 1_555
H60_2 C106_2 1_555 1_555
H62_2 C110_2 1_555 1_555
C111_2 C110_2 1_555 1_555
C112_2 C111_2 1_555 1_555
H63_2 C112_2 1_555 1_555
H64_2 C113_2 1_555 1_555
C114_2 C111_2 1_555 1_555
C115_2 C114_2 1_555 1_555
H65_2 C115_2 1_555 1_555
C116_2 C114_2 1_555 1_555
H66_2 C116_2 1_555 1_555
C117_2 C116_2 1_555 1_555
C118_2 C117_2 1_555 1_555
C119_2 C118_2 1_555 1_555
H67_2 C119_2 1_555 1_555
C120_2 C119_2 1_555 1_555
H68_2 C120_2 1_555 1_555
C121_2 C120_2 1_555 1_555
C122_2 C121_2 1_555 1_555
O44 C123_2 1_555 1_555
O36_2 C123_2 1_555 1_555
C123_2 C124_2 1_555 1_555
C124_2 C104_2 1_555 1_555
C126_2 C106_2 1_555 1_555
H70_2 C126_2 1_555 1_555
O47 C128_2 1_555 1_555
O38_2 C128_2 1_555 1_555
O54 C122_2 1_555 1_555
C128_2 C129_2 1_555 1_555
C129_2 C130_2 1_555 1_555
C130_2 H72_2 1_555 1_555
C131_2 C130_2 1_555 1_555
H73_2 C131_2 1_555 1_555
C132_2 C131_2 1_555 1_555
C133_2 C132_2 1_555 1_555
H74_2 C133_2 1_555 1_555
C134_2 C129_2 1_555 1_555
H75_2 C134_2 1_555 1_555
C135_2 C115_2 1_555 1_555
C136_2 C117_2 1_555 1_555
H76_2 C136_2 1_555 1_555
C137_2 C118_2 1_555 1_555
H77_2 C137_2 1_555 1_555
C138_2 C121_2 1_555 1_555
H78_2 C138_2 1_555 1_555
Zn22 O11_2 1_555 1_555
Zn24 O23_2 1_555 1_555
Zn25_2 O12_2 1_555 1_555
Zn26_2 O27_2 1_555 1_555
Zn27_2 O38_2 1_555 1_555
C11_2 C12_2 1_555 1_555
C40_2 C43_2 1_555 1_555
C41_2 C42_2 1_555 1_555
C43_2 C44_2 1_555 1_555
C45_2 C46_2 1_555 1_555
C75_2 C76_2 1_555 1_555
C95_2 C98_2 1_555 1_555
C96_2 C97_2 1_555 1_555
C98_2 C99_2 1_555 1_555
C100_2 C101_2 1_555 1_555
C104_2 C106_2 1_555 1_555
C112_2 C113_2 1_555 1_555
O36_2 Zn24 1_555 1_555
C124_2 C126_2 1_555 1_555
C132_2 C135_2 1_555 1_555
C133_2 C134_2 1_555 1_555
C135_2 C136_2 1_555 1_555
C137_2 C138_2 1_555 1_555
Zn13 O1_2 1_555 1_555
Zn16 O1_2 1_555 1_555
Zn25_2 O1_2 1_555 1_555
O1_2 Zn22 1_555 1_555
O2_2 Zn13 1_555 1_555
O3_2 Zn16 1_555 1_555
O4_2 Zn16 1_555 1_555
O5_2 Zn25_2 1_555 1_555
O7_2 Zn25_2 1_555 1_555
O8_2 Zn13 1_555 1_555
C1_2 O2_2 1_555 1_555
C2_2 C1_2 1_555 1_555
C6_2 O4_2 1_555 1_555
C7_2 C6_2 1_555 1_555
C8_2 C7_2 1_555 1_555
H4_2 C8_2 1_555 1_555
C22_2 O7_2 1_555 1_555
C23_2 C22_2 1_555 1_555
C24_2 C23_2 1_555 1_555
H12_2 C24_2 1_555 1_555
C25_2 C24_2 1_555 1_555
H13_2 C25_2 1_555 1_555
C26_2 C25_2 1_555 1_555
C27_2 C26_2 1_555 1_555
H14_2 C27_2 1_555 1_555
C28_2 C23_2 1_555 1_555
H15_2 C28_2 1_555 1_555
C29_2 C26_2 1_555 1_555
C30_2 C29_2 1_555 1_555
H16_2 C30_2 1_555 1_555
C33_2 C2_2 1_555 1_555
H17_2 C33_2 1_555 1_555
O14_2 C47_2 1_555 1_555
O15_2 C47_2 1_555 1_555
C47_2 C48_2 1_555 1_555
C48_2 C49_2 1_555 1_555
C49_2 H27_2 1_555 1_555
C50_2 C49_2 1_555 1_555
H28_2 C50_2 1_555 1_555
C51_2 C50_2 1_555 1_555
C52_2 C51_2 1_555 1_555
H29_2 C52_2 1_555 1_555
C53_2 C48_2 1_555 1_555
H30_2 C53_2 1_555 1_555
C54_2 C30_2 1_555 1_555
C55_2 C54_2 1_555 1_555
H31_2 C55_2 1_555 1_555
O16_2 C56_2 1_555 1_555
O17_2 C56_2 1_555 1_555
C56_2 C57_2 1_555 1_555
C57_2 C58_2 1_555 1_555
C58_2 H32_2 1_555 1_555
C59_2 C58_2 1_555 1_555
H33_2 C59_2 1_555 1_555
C60_2 C59_2 1_555 1_555
C61_2 C60_2 1_555 1_555
H34_2 C61_2 1_555 1_555
C62_2 C57_2 1_555 1_555
H35_2 C62_2 1_555 1_555
C63_2 C55_2 1_555 1_555
C64_2 C29_2 1_555 1_555
H36_2 C64_2 1_555 1_555
Zn14 O15_2 1_555 1_555
Zn26_2 O14_2 1_555 1_555
O19_2 Zn14 1_555 1_555
O20_2 Zn17 1_555 1_555
O21_2 Zn17 1_555 1_555
O22_2 Zn26_2 1_555 1_555
C65_2 O19_2 1_555 1_555
C66_2 C65_2 1_555 1_555
C70_2 O21_2 1_555 1_555
C71_2 C70_2 1_555 1_555
C72_2 C71_2 1_555 1_555
H40_2 C72_2 1_555 1_555
C88_2 C66_2 1_555 1_555
H48_2 C88_2 1_555 1_555
Zn15 O17_2 1_555 1_555
Zn27_2 O16_2 1_555 1_555
O30_2 Zn15 1_555 1_555
O31_2 Zn18 1_555 1_555
O32_2 Zn18 1_555 1_555
O33_2 Zn27_2 1_555 1_555
C102_2 O30_2 1_555 1_555
C103_2 C102_2 1_555 1_555
C105_2 C103_2 1_555 1_555
H59_2 C105_2 1_555 1_555
C107_2 O32_2 1_555 1_555
C108_2 C107_2 1_555 1_555
C109_2 C108_2 1_555 1_555
H61_2 C109_2 1_555 1_555
C125_2 C103_2 1_555 1_555
H69_2 C125_2 1_555 1_555
C127_2 C105_2 1_555 1_555
H71_2 C127_2 1_555 1_555
O3_2 C1_2 1_555 1_555
O5_2 C6_2 1_555 1_555
O8_2 C22_2 1_555 1_555
C27_2 C28_2 1_555 1_555
C51_2 C54_2 1_555 1_555
C52_2 C53_2 1_555 1_555
C60_2 C63_2 1_555 1_555
C61_2 C62_2 1_555 1_555
C63_2 C64_2 1_555 1_555
Zn26_2 O40 1_555 1_555
O20_2 C65_2 1_555 1_555
O22_2 C70_2 1_555 1_555
Zn27_2 O41 1_555 1_555
O31_2 C102_2 1_555 1_555
O33_2 C107_2 1_555 1_555
C125_2 C127_2 1_555 1_555
C3_2 H1_2 1_555 1_555
O42 C31_2 1_555 1_555
O10_2 C31_2 1_555 1_555
C31_2 C32_2 1_555 1_555
C32_2 C3_2 1_555 1_555
Zn20 O10_2 1_555 1_555
H2_2 C4_2 1_555 1_555
C35_2 C4_2 1_555 1_555
H19_2 C35_2 1_555 1_555

#END
