
###############################################################################
#
# This file contains modified crystal structure data generated from the
# MOF subset of the Cambridge Structural Database (CSD) v543 
# hosted by the Cambridge Crystallographic Data Centre (CCDC).
#
# This work is licensed under the Creative Commons
# Attribution-NonCommercial-ShareAlike 4.0 International License.
# To view a copy of this license, visit
# http://creativecommons.org/licenses/by-nc-sa/4.0/
# or send a letter to
# Creative Commons, PO Box 1866, Mountain View, CA 94042, USA.
#
# CIF created using the CSD Python API on 29 September 2022
# The structure has been converted into the P1 space group
# The structure has a 3D framework
# The original CSD entry QABVEW is in the rhombohedral crystal system
# The framework has been calculated to contain at least 10.0% void space
# The void calculation uses a probe of radius 1.32A, grid spacing 0.4
#
###############################################################################

data_QABVEW
_chemical_formula_moiety         '(C396 H312 B24 Co16 Cu36 N108 O130 18-)n'
_symmetry_cell_setting           triclinic
_symmetry_space_group_name_H-M   'P 1'
_symmetry_Int_Tables_number      1
_space_group_name_Hall           'P 1'
loop_
_symmetry_equiv_pos_site_id
_symmetry_equiv_pos_as_xyz
1 x,y,z
_cell_length_a                   24.0967(4)
_cell_length_b                   24.0967(4)
_cell_length_c                   37.7074(12)
_cell_angle_alpha                90
_cell_angle_beta                 90
_cell_angle_gamma                120
_cell_volume                     18961.5
loop_
_atom_site_label
_atom_site_type_symbol
_atom_site_fract_x
_atom_site_fract_y
_atom_site_fract_z
Co1 Co 0.0000 -0.0000 0.0000
B1 B 0.0000 -0.0000 0.08578(9)
H1 H -0.0000 -0.0000 0.1118
N5 N 0.02810(10) 0.07928(7) 0.03519(4)
C13 C 0.05282(13) 0.14169(9) 0.03251(5)
H12 H 0.0593 0.1629 0.0110
N10 N 0.02691(10) 0.06838(7) 0.07082(4)
C18 C 0.05134(13) 0.12420(9) 0.08706(5)
H17 H 0.0564 0.1295 0.1115
N15 N 0.06781(11) 0.17184(8) 0.06419(4)
Cu3 Cu 0.113941(16) 0.270852(11) 0.076291(6)
Cu10 Cu 0.176422(12) 0.395815(11) 0.090376(6)
O10 O 0.07167(10) 0.29014(7) 0.03806(4)
C35 C 0.31689(10) 0.02724(14) 0.00070(5)
C50 C 0.44203(13) 0.05864(22) 0.01725(12)
C55 C 0.39012(13) 0.00315(21) 0.03023(9)
C60 C 0.51092(17) 0.07542(34) 0.0258(2)
H39 H 0.5355 0.0863 0.0043
H44 H 0.5106 0.0392 0.0366
H49 H 0.5298 0.1112 0.0418
O18 O 0.04981(7) 0.27613(7) 0.10913(4)
O28 O 0.15996(10) 0.26139(7) 0.11627(4)
O37 O 0.19235(7) 0.29929(7) 0.04596(4)
Co1_2 Co 0.0000 -0.0000 1.0000
B2 B 0.0000 -0.0000 0.91422(9)
H10 H 0.0000 -0.0000 0.8882
N6 N 0.07928(7) 0.05118(7) 0.96481(4)
C14 C 0.14169(9) 0.08887(9) 0.96749(5)
H13 H 0.1629 0.1036 0.9890
N11 N 0.06838(7) 0.04147(7) 0.92918(4)
C19 C 0.12420(9) 0.07286(9) 0.91294(5)
H18 H 0.1295 0.0731 0.8885
N16 N 0.17184(8) 0.10403(8) 0.93581(4)
Cu4 Cu 0.270852(11) 0.156911(12) 0.923709(6)
Cu11 Cu 0.395815(11) 0.219392(16) 0.909624(6)
O11 O 0.29014(7) 0.21847(7) 0.96194(4)
H24 H 0.2752 0.0170 0.9953
C40 C 0.36831(10) 0.08223(15) 0.98630(6)
C45 C 0.43007(12) 0.09716(19) 0.99480(9)
H29 H 0.4644 0.1338 0.9853
O19 O 0.27613(7) 0.22631(10) 0.89087(4)
O25 O 0.40528(7) 0.17337(10) 0.94960(4)
O29 O 0.26139(7) 0.10142(7) 0.88373(4)
C65 C 0.35651(10) 0.12409(14) 0.96163(5)
O35 O 0.29929(7) 0.10694(10) 0.95404(4)
Co1_3 Co 0.0000 1.0000 0.0000
B1_2 B -0.0000 1.0000 0.08578(9)
H1_2 H -0.0000 1.0000 0.1118
N4 N 0.05118(7) 0.97190(10) 0.03519(4)
C12 C 0.08887(9) 0.94718(13) 0.03251(5)
H11 H 0.1036 0.9407 0.0110
N9 N 0.04147(7) 0.97309(10) 0.07082(4)
C17 C 0.07286(9) 0.94866(13) 0.08706(5)
H16 H 0.0731 0.9436 0.1115
N14 N 0.10403(8) 0.93219(11) 0.06419(4)
Cu2 Cu 0.156911(12) 0.886059(16) 0.076291(6)
Cu9 Cu 0.219392(16) 0.823578(12) 0.090376(6)
O8 O 0.21847(7) 0.92833(10) 0.03806(4)
C25 C 0.27254(10) 0.93143(14) 0.04047(6)
C30 C 0.32759(11) 0.98784(16) 0.02290(6)
H25 H 0.0170 0.7418 0.0047
C41 C 0.08223(15) 0.71392(11) 0.01370(6)
C46 C 0.09716(19) 0.66709(15) 0.00520(9)
H30 H 0.1338 0.6694 0.0147
H34 H 0.3973 0.9755 0.0442
O15 O 0.28352(7) 0.89298(10) 0.05754(4)
O17 O 0.22631(10) 0.95019(7) 0.10913(4)
O26 O 0.17337(10) 0.76809(7) 0.05040(4)
O27 O 0.10142(7) 0.84004(10) 0.11627(4)
C66 C 0.12409(14) 0.76758(10) 0.03837(5)
O36 O 0.10694(10) 0.80765(7) 0.04596(4)
Co1_4 Co -0.0000 1.0000 1.0000
B2_2 B -0.0000 1.0000 0.91422(9)
H10_2 H -0.0000 1.0000 0.8882
C36 C 0.02724(14) 0.71035(10) 0.99930(5)
C51 C 0.05864(22) 0.61661(18) 0.98275(12)
C56 C 0.00315(21) 0.61303(16) 0.96977(9)
C61 C 0.07542(34) 0.5645(3) 0.9742(2)
H40 H 0.0863 0.5508 0.9957
H45 H 0.0392 0.5286 0.9634
H50 H 0.1112 0.5814 0.9582
Co1_5 Co 1.0000 -0.0000 0.0000
B1_3 B 1.0000 -0.0000 0.08578(9)
H1_3 H 1.0000 -0.0000 0.1118
Cu14 Cu 0.552726(16) 0.062481(11) 0.257042(6)
C23 C 0.60587(10) 0.00778(10) 0.20714(6)
C28 C 0.66092(11) 0.00642(11) 0.18957(6)
C48 C 0.77536(13) 0.05006(18) 0.18392(12)
C53 C 0.72345(13) 0.05364(16) 0.19690(9)
H32 H 0.7306 0.0885 0.2109
C58 C 0.84425(17) 0.1022(3) 0.1925(2)
H37 H 0.8688 0.1159 0.1710
H42 H 0.8439 0.1381 0.2033
H47 H 0.8631 0.0853 0.2085
O13 O 0.61685(7) 0.05721(7) 0.22421(4)
Co1_6 Co 1.0000 -0.0000 1.0000
B2_3 B 1.0000 -0.0000 0.91422(9)
H10_3 H 1.0000 -0.0000 0.8882
N7 N 0.94882(7) 0.02810(10) 0.96481(4)
C15 C 0.91113(9) 0.05282(13) 0.96749(5)
H14 H 0.8964 0.0593 0.9890
N12 N 0.95853(7) 0.02691(10) 0.92918(4)
C20 C 0.92714(9) 0.05134(13) 0.91294(5)
H19 H 0.9269 0.0564 0.8885
N17 N 0.89597(8) 0.06781(11) 0.93581(4)
Cu5 Cu 0.843089(12) 0.113941(16) 0.923709(6)
Cu12 Cu 0.780608(16) 0.176422(12) 0.909624(6)
O5 O 0.78153(7) 0.07167(10) 0.96194(4)
C22 C 0.72746(10) 0.06857(14) 0.95953(6)
C27 C 0.67241(11) 0.01216(16) 0.97710(6)
H31 H 0.6027 0.0245 0.9558
O12 O 0.71648(7) 0.10702(10) 0.94246(4)
O20 O 0.77369(10) 0.04981(7) 0.89087(4)
O30 O 0.89858(7) 0.15996(10) 0.88373(4)
O38 O 0.89306(10) 0.19235(7) 0.95404(4)
Co1_7 Co 1.0000 1.0000 0.0000
B1_4 B 1.0000 1.0000 0.08578(9)
H1_4 H 1.0000 1.0000 0.1118
N1 N 0.92072(7) 0.94882(7) 0.03519(4)
C1 C 0.85831(9) 0.91113(9) 0.03251(5)
H2 H 0.8371 0.8964 0.0110
N2 N 0.93162(7) 0.95853(7) 0.07082(4)
C2 C 0.87580(9) 0.92714(9) 0.08706(5)
H3 H 0.8705 0.9269 0.1115
N3 N 0.82816(8) 0.89597(8) 0.06419(4)
Cu1 Cu 0.729148(11) 0.843089(12) 0.076291(6)
O1 O 0.70986(7) 0.78153(7) 0.03806(4)
C3 C 0.65889(10) 0.72746(10) 0.04047(6)
C4 C 0.66025(11) 0.67241(11) 0.02290(6)
C5 C 0.71035(10) 0.68311(10) 0.00070(5)
C8 C 0.61661(18) 0.55797(13) 0.01725(12)
C9 C 0.61303(16) 0.60988(13) 0.03023(9)
H6 H 0.5782 0.6027 0.0442
C10 C 0.5645(3) 0.48908(17) 0.0258(2)
H7 H 0.5508 0.4645 0.0043
H8 H 0.5286 0.4894 0.0366
H9 H 0.5814 0.4702 0.0418
O2 O 0.60946(7) 0.71648(7) 0.05754(4)
Cu7 Cu 0.604185(11) 0.780608(16) 0.090376(6)
Cu13 Cu 0.490244(12) 0.937519(11) 0.242958(6)
Cu15 Cu 0.509756(12) 0.447274(16) 0.257042(6)
Cu16 Cu 0.447274(16) 0.509756(12) 0.242958(6)
O6 O 0.55180(7) 0.95681(7) 0.20473(4)
O7 O 0.62347(7) 0.73834(10) 0.12861(4)
C24 C 0.67444(10) 0.73524(14) 0.12620(6)
C29 C 0.67308(11) 0.67883(16) 0.14377(6)
C33 C 0.65022(10) 0.95632(10) 0.16737(5)
C34 C 0.62298(10) 0.63943(14) 0.16597(5)
H21 H 0.7248 0.9830 0.0047
H22 H 0.6085 0.9249 0.1620
H23 H 0.5915 0.6497 0.1714
C37 C 0.63169(10) 0.91777(15) 0.01370(6)
C38 C 0.70164(10) 0.95275(11) 0.15297(6)
C39 C 0.61941(11) 0.58444(15) 0.18037(6)
C42 C 0.56993(12) 0.90284(19) 0.00520(9)
C43 C 0.76340(12) 0.99958(15) 0.16147(9)
C44 C 0.66624(15) 0.56951(19) 0.17187(9)
H26 H 0.5356 0.8662 0.0147
H27 H 0.7977 0.9973 0.1520
H28 H 0.6639 0.5329 0.1814
C49 C 0.71672(18) 0.60803(22) 0.14942(12)
C54 C 0.72030(16) 0.66352(21) 0.13644(9)
H33 H 0.7551 0.6912 0.1225
C59 C 0.7688(3) 0.59125(34) 0.1409(2)
H38 H 0.7825 0.5804 0.1624
H43 H 0.8047 0.6275 0.1301
H48 H 0.7519 0.5555 0.1249
O14 O 0.72387(7) 0.77369(10) 0.10913(4)
O22 O 0.59472(7) 0.82663(10) 0.05040(4)
O23 O 0.73861(7) 0.89858(7) 0.11627(4)
O24 O 0.56524(7) 0.49330(10) 0.21707(4)
C62 C 0.64349(10) 0.87591(14) 0.03837(5)
C63 C 0.68984(10) 0.89909(10) 0.12830(5)
C64 C 0.56575(10) 0.54258(14) 0.20504(5)
O32 O 0.70071(7) 0.89306(10) 0.04596(4)
O33 O 0.63262(7) 0.85902(7) 0.12071(4)
O34 O 0.52568(7) 0.55973(10) 0.21263(4)
Co1_8 Co 1.0000 1.0000 1.0000
H4 H 0.7418 0.7248 0.9953
C6 C 0.71392(11) 0.63169(10) 0.98630(6)
C7 C 0.66709(15) 0.56993(12) 0.99480(9)
H5 H 0.6694 0.5356 0.9853
O3 O 0.76809(7) 0.59472(7) 0.94960(4)
C11 C 0.76758(10) 0.64349(10) 0.96163(5)
O4 O 0.80765(7) 0.70071(7) 0.95404(4)
B2_4 B 1.0000 1.0000 0.91422(9)
H10_4 H 1.0000 1.0000 0.8882
N8 N 0.97190(10) 0.92072(7) 0.96481(4)
C16 C 0.94718(13) 0.85831(9) 0.96749(5)
H15 H 0.9407 0.8371 0.9890
N13 N 0.97309(10) 0.93162(7) 0.92918(4)
C21 C 0.94866(13) 0.87580(9) 0.91294(5)
H20 H 0.9436 0.8705 0.8885
N18 N 0.93219(11) 0.82816(8) 0.93581(4)
Cu6 Cu 0.886059(16) 0.729148(11) 0.923709(6)
Cu8 Cu 0.823578(12) 0.604185(11) 0.909624(6)
O9 O 0.92833(10) 0.70986(7) 0.96194(4)
C26 C 0.93143(14) 0.65889(10) 0.95953(6)
C31 C 0.98784(16) 0.66025(11) 0.97710(6)
C32 C 0.68311(10) 0.97276(14) 0.99930(5)
C47 C 0.55797(13) 0.94136(22) 0.98275(12)
C52 C 0.60988(13) 0.99685(21) 0.96977(9)
H35 H 0.9755 0.5782 0.9558
C57 C 0.48908(17) 0.92458(34) 0.9742(2)
H36 H 0.4645 0.9137 0.9957
H41 H 0.4894 0.9608 0.9634
H46 H 0.4702 0.8888 0.9582
O16 O 0.89298(10) 0.60946(7) 0.94246(4)
O21 O 0.95019(7) 0.72387(7) 0.89087(4)
O31 O 0.84004(10) 0.73861(7) 0.88373(4)
C25_2 C 0.06857(14) 0.34111(17) 0.04047(6)
C30_2 C 0.01216(16) 0.33975(19) 0.02290(6)
H25_2 H 0.2582 0.2752 0.0047
C39_2 C 0.41556(15) 0.03498(19) 0.18037(6)
C41_2 C 0.28608(11) 0.36831(19) 0.01370(6)
C44_2 C 0.43049(19) 0.09674(24) 0.17187(9)
C46_2 C 0.33291(15) 0.43007(24) 0.00520(9)
H28_2 H 0.4671 0.1311 0.1814
H30_2 H 0.3306 0.4644 0.0147
C49_2 C 0.39197(22) 0.10870(28) 0.14942(12)
C54_2 C 0.33648(21) 0.05679(26) 0.13644(9)
H33_2 H 0.3088 0.0640 0.1225
H34_2 H 0.0245 0.4218 0.0442
C59_2 C 0.40875(34) 0.17759(45) 0.1409(2)
H38_2 H 0.4196 0.2022 0.1624
H43_2 H 0.3725 0.1773 0.1301
H48_2 H 0.4445 0.1965 0.1249
O15_2 O 0.10702(10) 0.39054(12) 0.05754(4)
O24_2 O 0.50670(10) 0.07195(12) 0.21707(4)
O26_2 O 0.23191(7) 0.40528(12) 0.05040(4)
C64_2 C 0.45742(14) 0.02318(17) 0.20504(5)
C66_2 C 0.23242(10) 0.35651(17) 0.03837(5)
C26_2 C 0.34111(10) 0.27254(17) 0.95953(6)
C31_2 C 0.33975(11) 0.32759(19) 0.97710(6)
C36_2 C 0.28965(10) 0.31689(17) 0.99930(5)
C51_2 C 0.38339(18) 0.44203(28) 0.98275(12)
C56_2 C 0.38697(16) 0.39012(26) 0.96977(9)
H35_2 H 0.4218 0.3973 0.9558
C61_2 C 0.4355(3) 0.51092(45) 0.9742(2)
H40_2 H 0.4492 0.5355 0.9957
H45_2 H 0.4714 0.5106 0.9634
H50_2 H 0.4186 0.5298 0.9582
O16_2 O 0.39054(7) 0.28352(12) 0.94246(4)
Cu13_2 Cu 0.062481(11) 0.552726(16) 0.242958(6)
O6_2 O 0.04319(7) 0.59500(10) 0.20473(4)
O7_2 O 0.26166(10) 0.88514(12) 0.12861(4)
C24_2 C 0.26476(14) 0.93921(17) 0.12620(6)
C29_2 C 0.32117(16) 0.99426(19) 0.14377(6)
C33_2 C 0.04368(10) 0.69391(14) 0.16737(5)
C34_2 C 0.36057(14) 0.98356(17) 0.16597(5)
H22_2 H 0.0751 0.6837 0.1620
H23_2 H 0.3503 0.9419 0.1714
C38_2 C 0.04725(11) 0.74890(15) 0.15297(6)
C43_2 C 0.00042(15) 0.76383(19) 0.16147(9)
H27_2 H 0.0027 0.8005 0.1520
C63_2 C 0.10091(10) 0.79076(14) 0.12830(5)
O33_2 O 0.14098(7) 0.77361(10) 0.12071(4)
O34_2 O 0.44027(10) 0.96596(12) 0.21263(4)
C35_2 C 0.97276(14) 0.28965(17) 0.00070(5)
C50_2 C 0.94136(22) 0.38339(26) 0.01725(12)
C55_2 C 0.99685(21) 0.38697(25) 0.03023(9)
C60_2 C 0.92458(34) 0.43550(38) 0.0258(2)
H39_2 H 0.9137 0.4492 0.0043
H44_2 H 0.9608 0.4714 0.0366
H49_2 H 0.8888 0.4186 0.0418
H24_2 H 0.9830 0.2582 0.9953
C40_2 C 0.91777(15) 0.28608(18) 0.98630(6)
C45_2 C 0.90284(19) 0.33291(22) 0.99480(9)
H29_2 H 0.8662 0.3306 0.9853
O25_2 O 0.82663(10) 0.23191(12) 0.94960(4)
C65_2 C 0.87591(14) 0.23242(17) 0.96163(5)
Cu14_2 Cu 0.937519(11) 0.490244(19) 0.257042(6)
C23_2 C 0.99222(10) 0.59810(14) 0.20714(6)
C28_2 C 0.99358(11) 0.65451(16) 0.18957(6)
C48_2 C 0.94994(18) 0.72531(22) 0.18392(12)
C53_2 C 0.94636(16) 0.66982(21) 0.19690(9)
H32_2 H 0.9115 0.6422 0.2109
C58_2 C 0.8978(3) 0.74209(34) 0.1925(2)
H37_2 H 0.8841 0.7530 0.1710
H42_2 H 0.8619 0.7059 0.2033
H47_2 H 0.9147 0.7779 0.2085
O13_2 O 0.94279(7) 0.55965(10) 0.22421(4)
O6_3 O 0.40500(10) 0.44820(7) 0.20473(4)
O7_3 O 0.11486(12) 0.37653(7) 0.12861(4)
C23_3 C 0.40190(14) 0.39413(10) 0.20714(6)
C24_3 C 0.06079(17) 0.32556(10) 0.12620(6)
C28_3 C 0.34549(16) 0.33908(11) 0.18957(6)
C29_3 C 0.00574(19) 0.32692(11) 0.14377(6)
C33_3 C 0.30609(14) 0.34978(10) 0.16737(5)
C34_3 C 0.01644(17) 0.37702(10) 0.16597(5)
H22_3 H 0.3163 0.3915 0.1620
H23_3 H 0.0581 0.4085 0.1714
C38_3 C 0.25110(15) 0.29836(10) 0.15297(6)
C43_3 C 0.23617(19) 0.23660(12) 0.16147(9)
H27_3 H 0.1995 0.2023 0.1520
C48_3 C 0.27469(22) 0.22464(13) 0.18392(12)
C53_3 C 0.33018(21) 0.27655(13) 0.19690(9)
H32_3 H 0.3578 0.2694 0.2109
C58_3 C 0.25791(34) 0.15575(17) 0.1925(2)
H37_3 H 0.2470 0.1312 0.1710
H42_3 H 0.2941 0.1561 0.2033
H47_3 H 0.2221 0.1369 0.2085
O13_3 O 0.44035(10) 0.38315(7) 0.22421(4)
C63_3 C 0.20924(14) 0.31016(10) 0.12830(5)
O33_3 O 0.22639(10) 0.36738(7) 0.12071(4)
O34_3 O 0.03404(12) 0.47432(7) 0.21263(4)
C39_3 C 0.96502(19) 0.38059(11) 0.18037(6)
C44_3 C 0.90326(24) 0.33376(15) 0.17187(9)
H28_3 H 0.8689 0.3361 0.1814
C49_3 C 0.89130(28) 0.28328(18) 0.14942(12)
C54_3 C 0.94321(26) 0.27970(16) 0.13644(9)
H33_3 H 0.9360 0.2449 0.1225
C59_3 C 0.82241(45) 0.2312(3) 0.1409(2)
H38_3 H 0.7978 0.2175 0.1624
H43_3 H 0.8227 0.1953 0.1301
H48_3 H 0.8035 0.2481 0.1249
O24_3 O 0.92805(12) 0.43476(7) 0.21707(4)
C64_3 C 0.97682(17) 0.43425(10) 0.20504(5)
Co1_9 Co -0.0000 0.0000 0.5000
B1_5 B -0.0000 0.0000 0.41422(9)
H1_5 H -0.0000 0.0000 0.3882
B2_5 B -0.0000 -0.0000 0.58578(9)
H10_5 H -0.0000 0.0000 0.6118
N5_2 N 0.07928(7) 0.02810(10) 0.46481(4)
N6_2 N 0.05118(7) 0.07928(7) 0.53519(4)
C13_2 C 0.14169(9) 0.05282(13) 0.46749(5)
C14_2 C 0.08887(9) 0.14169(9) 0.53251(5)
H12_2 H 0.1629 0.0593 0.4890
H13_2 H 0.1036 0.1629 0.5110
N10_2 N 0.06838(7) 0.02691(10) 0.42918(4)
N11_2 N 0.04147(7) 0.06838(7) 0.57082(4)
C18_2 C 0.12420(9) 0.05134(13) 0.41294(5)
C19_2 C 0.07286(9) 0.12420(9) 0.58706(5)
H17_2 H 0.1295 0.0564 0.3885
H18_2 H 0.0731 0.1295 0.6115
N15_2 N 0.17184(8) 0.06781(11) 0.43581(4)
N16_2 N 0.10403(8) 0.17184(8) 0.56419(4)
Cu3_2 Cu 0.270852(11) 0.113941(16) 0.423709(6)
Cu4_2 Cu 0.156911(12) 0.270852(11) 0.576291(6)
Cu10_2 Cu 0.395815(11) 0.176422(12) 0.409624(6)
Cu11_2 Cu 0.219392(16) 0.395815(11) 0.590376(6)
O10_2 O 0.29014(7) 0.07167(10) 0.46194(4)
O11_2 O 0.21847(7) 0.29014(7) 0.53806(4)
C35_3 C 0.02724(14) 0.31689(10) 0.49930(5)
H24_3 H 0.0170 0.2752 0.5047
C40_3 C 0.08223(15) 0.36831(10) 0.51370(6)
C45_3 C 0.09716(19) 0.43007(12) 0.50520(9)
H29_3 H 0.1338 0.4644 0.5147
C50_3 C 0.05864(22) 0.44203(13) 0.48275(12)
C55_3 C 0.00315(21) 0.39012(13) 0.46977(9)
C60_3 C 0.07542(34) 0.51092(17) 0.4742(2)
H39_3 H 0.0863 0.5355 0.4957
H44_3 H 0.0392 0.5106 0.4634
H49_3 H 0.1112 0.5298 0.4582
O18_2 O 0.27613(7) 0.04981(7) 0.39087(4)
O19_2 O 0.22631(10) 0.27613(7) 0.60913(4)
O25_3 O 0.17337(10) 0.40528(7) 0.55040(4)
O28_2 O 0.26139(7) 0.15996(10) 0.38373(4)
O29_2 O 0.10142(7) 0.26139(7) 0.61627(4)
C65_3 C 0.12409(14) 0.35651(10) 0.53837(5)
O35_2 O 0.10694(10) 0.29929(7) 0.54596(4)
O37_2 O 0.29929(7) 0.19235(7) 0.45404(4)
Co1_10 Co -0.0000 1.0000 0.5000
B1_6 B -0.0000 1.0000 0.41422(9)
H1_6 H -0.0000 1.0000 0.3882
B2_6 B -0.0000 1.0000 0.58578(9)
H10_6 H -0.0000 1.0000 0.6118
N7_2 N 0.02810(10) 0.94882(7) 0.53519(4)
C15_2 C 0.05282(13) 0.91113(9) 0.53251(5)
H14_2 H 0.0593 0.8964 0.5110
N12_2 N 0.02691(10) 0.95853(7) 0.57082(4)
C20_2 C 0.05134(13) 0.92714(9) 0.58706(5)
H19_2 H 0.0564 0.9269 0.6115
N17_2 N 0.06781(11) 0.89597(8) 0.56419(4)
Cu5_2 Cu 0.113941(16) 0.843089(12) 0.576291(6)
Cu12_2 Cu 0.176422(12) 0.780608(16) 0.590376(6)
O5_2 O 0.07167(10) 0.78153(7) 0.53806(4)
C22_2 C 0.06857(14) 0.72746(10) 0.54047(6)
C23_4 C 0.00778(10) 0.60587(10) 0.29286(6)
C27_2 C 0.01216(16) 0.67241(11) 0.52290(6)
C28_4 C 0.00642(11) 0.66092(11) 0.31043(6)
C48_4 C 0.05006(18) 0.77536(13) 0.31608(12)
C53_4 C 0.05364(16) 0.72345(13) 0.30310(9)
H31_2 H 0.0245 0.6027 0.5442
H32_4 H 0.0885 0.7306 0.2891
C58_4 C 0.1022(3) 0.84425(17) 0.3075(2)
H37_4 H 0.1159 0.8688 0.3290
H42_4 H 0.1381 0.8439 0.2967
H47_4 H 0.0853 0.8631 0.2915
O12_2 O 0.10702(10) 0.71648(7) 0.55754(4)
O13_4 O 0.05721(7) 0.61685(7) 0.27579(4)
O20_2 O 0.04981(7) 0.77369(10) 0.60913(4)
O30_2 O 0.15996(10) 0.89858(7) 0.61627(4)
O38_2 O 0.19235(7) 0.89306(10) 0.54596(4)
Co1_11 Co 1.0000 0.0000 0.5000
B1_7 B 1.0000 0.0000 0.41422(9)
H1_7 H 1.0000 0.0000 0.3882
B2_7 B 1.0000 -0.0000 0.58578(9)
H10_7 H 1.0000 0.0000 0.6118
N4_2 N 0.97190(10) 0.05118(7) 0.46481(4)
C12_2 C 0.94718(13) 0.08887(9) 0.46749(5)
H11_2 H 0.9407 0.1036 0.4890
N9_2 N 0.97309(10) 0.04147(7) 0.42918(4)
C17_2 C 0.94866(13) 0.07286(9) 0.41294(5)
H16_2 H 0.9436 0.0731 0.3885
N14_2 N 0.93219(11) 0.10403(8) 0.43581(4)
Cu2_2 Cu 0.886059(16) 0.156911(12) 0.423709(6)
Cu9_2 Cu 0.823578(12) 0.219392(16) 0.409624(6)
O8_2 O 0.92833(10) 0.21847(7) 0.46194(4)
C25_3 C 0.93143(14) 0.27254(10) 0.45953(6)
C30_3 C 0.98784(16) 0.32759(11) 0.47710(6)
C36_3 C 0.71035(10) 0.02724(14) 0.50070(5)
H25_3 H 0.7418 0.0170 0.4953
C41_3 C 0.71392(11) 0.08223(15) 0.48630(6)
C46_3 C 0.66709(15) 0.09716(19) 0.49480(9)
H30_3 H 0.6694 0.1338 0.4853
C51_3 C 0.61661(18) 0.05864(22) 0.51725(12)
C56_3 C 0.61303(16) 0.00315(21) 0.53023(9)
H34_3 H 0.9755 0.3973 0.4558
C61_3 C 0.5645(3) 0.07542(34) 0.5258(2)
H40_3 H 0.5508 0.0863 0.5043
H45_3 H 0.5286 0.0392 0.5366
H50_3 H 0.5814 0.1112 0.5418
O15_3 O 0.89298(10) 0.28352(7) 0.44246(4)
O17_2 O 0.95019(7) 0.22631(10) 0.39087(4)
O26_3 O 0.76809(7) 0.17337(10) 0.44960(4)
O27_2 O 0.84004(10) 0.10142(7) 0.38373(4)
C66_3 C 0.76758(10) 0.12409(14) 0.46163(5)
O36_2 O 0.80765(7) 0.10694(10) 0.45404(4)
Co1_12 Co 1.0000 1.0000 0.5000
B1_8 B 1.0000 1.0000 0.41422(9)
H1_8 H 1.0000 1.0000 0.3882
N1_2 N 0.94882(7) 0.92072(7) 0.46481(4)
C1_2 C 0.91113(9) 0.85831(9) 0.46749(5)
H2_2 H 0.8964 0.8371 0.4890
N2_2 N 0.95853(7) 0.93162(7) 0.42918(4)
C2_2 C 0.92714(9) 0.87580(9) 0.41294(5)
H3_2 H 0.9269 0.8705 0.3885
N3_2 N 0.89597(8) 0.82816(8) 0.43581(4)
Cu1_2 Cu 0.843089(12) 0.729148(11) 0.423709(6)
O1_2 O 0.78153(7) 0.70986(7) 0.46194(4)
C3_2 C 0.72746(10) 0.65889(10) 0.45953(6)
C4_2 C 0.67241(11) 0.66025(11) 0.47710(6)
C5_2 C 0.68311(10) 0.71035(10) 0.49930(5)
H4_2 H 0.7248 0.7418 0.5047
C6_2 C 0.63169(10) 0.71392(11) 0.51370(6)
C7_2 C 0.56993(12) 0.66709(15) 0.50520(9)
H5_2 H 0.5356 0.6694 0.5147
C8_2 C 0.55797(13) 0.61661(18) 0.48275(12)
C9_2 C 0.60988(13) 0.61303(16) 0.46977(9)
H6_2 H 0.6027 0.5782 0.4558
C10_2 C 0.48908(17) 0.5645(3) 0.4742(2)
H7_2 H 0.4645 0.5508 0.4957
H8_2 H 0.4894 0.5286 0.4634
H9_2 H 0.4702 0.5814 0.4582
O2_2 O 0.71648(7) 0.60946(7) 0.44246(4)
O3_2 O 0.59472(7) 0.76809(7) 0.55040(4)
C11_2 C 0.64349(10) 0.76758(10) 0.53837(5)
O4_2 O 0.70071(7) 0.80765(7) 0.54596(4)
B2_8 B 1.0000 1.0000 0.58578(9)
H10_8 H 1.0000 1.0000 0.6118
N8_2 N 0.92072(7) 0.97190(10) 0.53519(4)
C16_2 C 0.85831(9) 0.94718(13) 0.53251(5)
H15_2 H 0.8371 0.9407 0.5110
N13_2 N 0.93162(7) 0.97309(10) 0.57082(4)
C21_2 C 0.87580(9) 0.94866(13) 0.58706(5)
H20_2 H 0.8705 0.9436 0.6115
N18_2 N 0.82816(8) 0.93219(11) 0.56419(4)
Cu6_2 Cu 0.729148(11) 0.886059(16) 0.576291(6)
Cu7_2 Cu 0.780608(16) 0.604185(11) 0.409624(6)
Cu8_2 Cu 0.604185(11) 0.823578(12) 0.590376(6)
O6_4 O 0.95681(7) 0.55180(7) 0.29527(4)
O7_4 O 0.73834(10) 0.62347(7) 0.37139(4)
O9_2 O 0.70986(7) 0.92833(10) 0.53806(4)
C24_4 C 0.73524(14) 0.67444(10) 0.37380(6)
C26_3 C 0.65889(10) 0.93143(14) 0.54047(6)
C29_4 C 0.67883(16) 0.67308(11) 0.35623(6)
C31_3 C 0.66025(11) 0.98784(16) 0.52290(6)
C32_2 C 0.97276(14) 0.68311(10) 0.50070(5)
C33_4 C 0.95632(10) 0.65022(10) 0.33263(5)
C34_4 C 0.63943(14) 0.62298(10) 0.33403(5)
H21_2 H 0.9830 0.7248 0.4953
H22_4 H 0.9249 0.6085 0.3380
H23_4 H 0.6497 0.5915 0.3286
C37_2 C 0.91777(15) 0.63169(10) 0.48630(6)
C38_4 C 0.95275(11) 0.70164(10) 0.34703(6)
C39_4 C 0.58444(15) 0.61941(11) 0.31963(6)
C42_2 C 0.90284(19) 0.56993(12) 0.49480(9)
C43_4 C 0.99958(15) 0.76340(12) 0.33853(9)
C44_4 C 0.56951(19) 0.66624(15) 0.32813(9)
H26_2 H 0.8662 0.5356 0.4853
H27_4 H 0.9973 0.7977 0.3480
H28_4 H 0.5329 0.6639 0.3186
C47_2 C 0.94136(22) 0.55797(13) 0.51725(12)
C49_4 C 0.60803(22) 0.71672(18) 0.35058(12)
C52_2 C 0.99685(21) 0.60988(13) 0.53023(9)
C54_4 C 0.66352(21) 0.72030(16) 0.36356(9)
H33_4 H 0.6912 0.7551 0.3775
H35_3 H 0.5782 0.9755 0.5442
C57_2 C 0.92458(34) 0.48908(17) 0.5258(2)
C59_4 C 0.59125(34) 0.7688(3) 0.3591(2)
H36_2 H 0.9137 0.4645 0.5043
H38_4 H 0.5804 0.7825 0.3376
H41_2 H 0.9608 0.4894 0.5366
H43_4 H 0.6275 0.8047 0.3699
H46_2 H 0.8888 0.4702 0.5418
H48_4 H 0.5555 0.7519 0.3751
O14_2 O 0.77369(10) 0.72387(7) 0.39087(4)
O16_3 O 0.60946(7) 0.89298(10) 0.55754(4)
O21_2 O 0.72387(7) 0.95019(7) 0.60913(4)
O22_2 O 0.82663(10) 0.59472(7) 0.44960(4)
O23_2 O 0.89858(7) 0.73861(7) 0.38373(4)
O24_4 O 0.49330(10) 0.56524(7) 0.28293(4)
O31_2 O 0.73861(7) 0.84004(10) 0.61627(4)
C62_2 C 0.87591(14) 0.64349(10) 0.46163(5)
C63_4 C 0.89909(10) 0.68984(10) 0.37170(5)
C64_4 C 0.54258(14) 0.56575(10) 0.29496(5)
O32_2 O 0.89306(10) 0.70071(7) 0.45404(4)
O33_4 O 0.85902(7) 0.63262(7) 0.37929(4)
O34_4 O 0.55973(10) 0.52568(7) 0.28737(4)
C25_4 C 0.34111(17) 0.06857(14) 0.45953(6)
C26_4 C 0.27254(17) 0.34111(10) 0.54047(6)
C30_4 C 0.33975(19) 0.01216(16) 0.47710(6)
C31_4 C 0.32759(19) 0.33975(11) 0.52290(6)
C36_4 C 0.31689(17) 0.28965(10) 0.50070(5)
H25_4 H 0.2752 0.2582 0.4953
C39_5 C 0.03498(19) 0.41556(15) 0.31963(6)
C41_4 C 0.36831(19) 0.28608(11) 0.48630(6)
C44_5 C 0.09674(24) 0.43049(19) 0.32813(9)
C46_4 C 0.43007(24) 0.33291(15) 0.49480(9)
H28_5 H 0.1311 0.4671 0.3186
H30_4 H 0.4644 0.3306 0.4853
C49_5 C 0.10870(28) 0.39197(22) 0.35058(12)
C51_4 C 0.44203(28) 0.38339(18) 0.51725(12)
C54_5 C 0.05679(26) 0.33648(21) 0.36356(9)
C56_4 C 0.39012(26) 0.38697(16) 0.53023(9)
H33_5 H 0.0640 0.3088 0.3775
H34_4 H 0.4218 0.0245 0.4558
H35_4 H 0.3973 0.4218 0.5442
C59_5 C 0.17759(45) 0.40875(34) 0.3591(2)
C61_4 C 0.51092(45) 0.4355(3) 0.5258(2)
H38_5 H 0.2022 0.4196 0.3376
H40_4 H 0.5355 0.4492 0.5043
H43_5 H 0.1773 0.3725 0.3699
H45_4 H 0.5106 0.4714 0.5366
H48_5 H 0.1965 0.4445 0.3751
H50_4 H 0.5298 0.4186 0.5418
O15_4 O 0.39054(12) 0.10702(10) 0.44246(4)
O16_4 O 0.28352(12) 0.39054(7) 0.55754(4)
O24_5 O 0.07195(12) 0.50670(10) 0.28293(4)
O26_4 O 0.40528(12) 0.23191(7) 0.44960(4)
C64_5 C 0.02318(17) 0.45742(14) 0.29496(5)
C66_4 C 0.35651(17) 0.23242(10) 0.46163(5)
C35_4 C 0.28965(17) 0.97276(14) 0.49930(5)
H24_4 H 0.2582 0.9830 0.5047
C40_4 C 0.28608(18) 0.91777(15) 0.51370(6)
C45_4 C 0.33291(22) 0.90284(19) 0.50520(9)
H29_4 H 0.3306 0.8662 0.5147
C50_4 C 0.38339(26) 0.94136(22) 0.48275(12)
C55_4 C 0.38697(25) 0.99685(21) 0.46977(9)
C60_4 C 0.43550(38) 0.92458(34) 0.4742(2)
H39_4 H 0.4492 0.9137 0.4957
H44_4 H 0.4714 0.9608 0.4634
H49_4 H 0.4186 0.8888 0.4582
O25_4 O 0.23191(12) 0.82663(10) 0.55040(4)
C65_4 C 0.23242(17) 0.87591(14) 0.53837(5)
O6_5 O 0.59500(10) 0.04319(7) 0.29527(4)
O7_5 O 0.88514(12) 0.26166(10) 0.37139(4)
C24_5 C 0.93921(17) 0.26476(14) 0.37380(6)
C29_5 C 0.99426(19) 0.32117(16) 0.35623(6)
C33_5 C 0.69391(14) 0.04368(10) 0.33263(5)
C34_5 C 0.98356(17) 0.36057(14) 0.33403(5)
H22_5 H 0.6837 0.0751 0.3380
H23_5 H 0.9419 0.3503 0.3286
C38_5 C 0.74890(15) 0.04725(11) 0.34703(6)
C43_5 C 0.76383(19) 0.00042(15) 0.33853(9)
H27_5 H 0.8005 0.0027 0.3480
C63_5 C 0.79076(14) 0.10091(10) 0.37170(5)
O33_5 O 0.77361(10) 0.14098(7) 0.37929(4)
O34_5 O 0.96596(12) 0.44027(10) 0.28737(4)
C23_5 C 0.59810(14) 0.99222(10) 0.29286(6)
C28_5 C 0.65451(16) 0.99358(11) 0.31043(6)
C48_5 C 0.72531(22) 0.94994(18) 0.31608(12)
C53_5 C 0.66982(21) 0.94636(16) 0.30310(9)
H32_5 H 0.6422 0.9115 0.2891
C58_5 C 0.74209(34) 0.8978(3) 0.3075(2)
H37_5 H 0.7530 0.8841 0.3290
H42_5 H 0.7059 0.8619 0.2967
H47_5 H 0.7779 0.9147 0.2915
O13_5 O 0.55965(10) 0.94279(7) 0.27579(4)
O6_6 O 0.44820(7) 0.40500(10) 0.29527(4)
O7_6 O 0.37653(7) 0.11486(12) 0.37139(4)
C23_6 C 0.39413(10) 0.40190(14) 0.29286(6)
C24_6 C 0.32556(10) 0.06079(17) 0.37380(6)
C28_6 C 0.33908(11) 0.34549(16) 0.31043(6)
C29_6 C 0.32692(11) 0.00574(19) 0.35623(6)
C33_6 C 0.34978(10) 0.30609(14) 0.33263(5)
C34_6 C 0.37702(10) 0.01644(17) 0.33403(5)
H22_6 H 0.3915 0.3163 0.3380
H23_6 H 0.4085 0.0581 0.3286
C38_6 C 0.29836(10) 0.25110(15) 0.34703(6)
C43_6 C 0.23660(12) 0.23617(19) 0.33853(9)
H27_6 H 0.2023 0.1995 0.3480
C48_6 C 0.22464(13) 0.27469(22) 0.31608(12)
C53_6 C 0.27655(13) 0.33018(21) 0.30310(9)
H32_6 H 0.2694 0.3578 0.2891
C58_6 C 0.15575(17) 0.25791(34) 0.3075(2)
H37_6 H 0.1312 0.2470 0.3290
H42_6 H 0.1561 0.2941 0.2967
H47_6 H 0.1369 0.2221 0.2915
O13_6 O 0.38315(7) 0.44035(10) 0.27579(4)
C63_6 C 0.31016(10) 0.20924(14) 0.37170(5)
O33_6 O 0.36738(7) 0.22639(10) 0.37929(4)
O34_6 O 0.47432(7) 0.03404(12) 0.28737(4)
C39_6 C 0.38059(11) 0.96502(19) 0.31963(6)
C44_6 C 0.33376(15) 0.90326(24) 0.32813(9)
H28_6 H 0.3361 0.8689 0.3186
C49_6 C 0.28328(18) 0.89130(28) 0.35058(12)
C54_6 C 0.27970(16) 0.94321(26) 0.36356(9)
H33_6 H 0.2449 0.9360 0.3775
C59_6 C 0.2312(3) 0.82241(45) 0.3591(2)
H38_6 H 0.2175 0.7978 0.3376
H43_6 H 0.1953 0.8227 0.3699
H48_6 H 0.2481 0.8035 0.3751
O24_6 O 0.43476(7) 0.92805(12) 0.28293(4)
C64_6 C 0.43425(10) 0.97682(17) 0.29496(5)
Co1_13 Co 0.6667 0.3333 0.3333
B1_9 B 0.6667 0.3333 0.41911(9)
H1_9 H 0.6667 0.3333 0.4451
N1_3 N 0.58739(7) 0.28215(7) 0.36852(4)
C1_3 C 0.52498(9) 0.24446(9) 0.36584(5)
H2_3 H 0.5038 0.2297 0.3443
N2_3 N 0.59829(7) 0.29186(7) 0.40415(4)
C2_3 C 0.54247(9) 0.26047(9) 0.42039(5)
H3_3 H 0.5372 0.2602 0.4448
N3_3 N 0.49483(8) 0.22930(8) 0.39752(4)
B2_9 B 0.6667 0.3333 0.24755(9)
H10_9 H 0.6667 0.3333 0.2215
N4_3 N 0.71785(7) 0.30523(10) 0.36852(4)
N5_3 N 0.69477(10) 0.41261(7) 0.36852(4)
N6_3 N 0.74595(7) 0.38451(7) 0.29814(4)
N7_3 N 0.61549(7) 0.36143(10) 0.29814(4)
N8_3 N 0.63857(10) 0.25405(7) 0.29814(4)
C12_3 C 0.75554(9) 0.28051(13) 0.36584(5)
C13_3 C 0.71949(13) 0.47502(9) 0.36584(5)
C14_3 C 0.80836(9) 0.42220(9) 0.30082(5)
C15_3 C 0.57780(9) 0.38615(13) 0.30082(5)
C16_3 C 0.61385(13) 0.19164(9) 0.30082(5)
H11_3 H 0.7703 0.2740 0.3443
H12_3 H 0.7260 0.4962 0.3443
H13_3 H 0.8296 0.4369 0.3223
H14_3 H 0.5631 0.3926 0.3223
H15_3 H 0.6074 0.1704 0.3223
N9_3 N 0.70814(7) 0.30642(10) 0.40415(4)
N10_3 N 0.69358(10) 0.40171(7) 0.40415(4)
N11_3 N 0.73505(7) 0.37480(7) 0.26251(4)
N12_3 N 0.62520(7) 0.36024(10) 0.26251(4)
N13_3 N 0.63976(10) 0.26495(7) 0.26251(4)
C17_3 C 0.73953(9) 0.28199(13) 0.42039(5)
C18_3 C 0.71801(13) 0.45753(9) 0.42039(5)
C19_3 C 0.79087(9) 0.40619(9) 0.24627(5)
C20_3 C 0.59381(9) 0.38467(13) 0.24627(5)
C21_3 C 0.61533(13) 0.20913(9) 0.24627(5)
H16_3 H 0.7398 0.2769 0.4448
H17_3 H 0.7231 0.4628 0.4448
H18_3 H 0.7962 0.4064 0.2218
H19_3 H 0.5936 0.3897 0.2218
H20_3 H 0.6103 0.2038 0.2218
N14_3 N 0.77070(8) 0.26552(11) 0.39752(4)
N15_3 N 0.73448(11) 0.50517(8) 0.39752(4)
N16_3 N 0.83851(8) 0.43736(8) 0.26914(4)
N17_3 N 0.56264(8) 0.40114(11) 0.26914(4)
N18_3 N 0.59886(11) 0.16149(8) 0.26914(4)
Cu10_3 Cu 0.062481(11) 0.509756(12) 0.742958(6)
Co1_14 Co 0.6667 0.3333 0.8333
B1_10 B 0.6667 0.3333 0.74755(9)
H1_10 H 0.6667 0.3333 0.7215
N1_4 N 0.61549(7) 0.25405(7) 0.79814(4)
C1_4 C 0.57780(9) 0.19164(9) 0.80082(5)
H2_4 H 0.5631 0.1704 0.8223
N2_4 N 0.62520(7) 0.26495(7) 0.76251(4)
C2_4 C 0.59381(9) 0.20913(9) 0.74627(5)
H3_4 H 0.5936 0.2038 0.7218
N3_4 N 0.56264(8) 0.16149(8) 0.76914(4)
Cu1_3 Cu 0.509756(12) 0.062481(11) 0.757042(6)
O1_3 O 0.44820(7) 0.04319(7) 0.79527(4)
C5_3 C 0.34978(10) 0.04368(10) 0.83263(5)
H4_3 H 0.3915 0.0751 0.8380
C6_3 C 0.29836(10) 0.04725(11) 0.84703(6)
C7_3 C 0.23660(12) 0.00042(15) 0.83853(9)
H5_3 H 0.2023 0.0027 0.8480
C11_3 C 0.31016(10) 0.10091(10) 0.87170(5)
O4_3 O 0.36738(7) 0.14098(7) 0.87929(4)
B2_10 B 0.6667 0.3333 0.91911(9)
H10_10 H 0.6667 0.3333 0.9451
N4_4 N 0.63857(10) 0.38451(7) 0.79814(4)
N5_4 N 0.74595(7) 0.36143(10) 0.79814(4)
N6_4 N 0.71785(7) 0.41261(7) 0.86852(4)
N7_4 N 0.69477(10) 0.28215(7) 0.86852(4)
N8_4 N 0.58739(7) 0.30523(10) 0.86852(4)
C12_4 C 0.61385(13) 0.42220(9) 0.80082(5)
C13_4 C 0.80836(9) 0.38615(13) 0.80082(5)
C14_4 C 0.75554(9) 0.47502(9) 0.86584(5)
C15_4 C 0.71949(13) 0.24446(9) 0.86584(5)
C16_4 C 0.52498(9) 0.28051(13) 0.86584(5)
H11_4 H 0.6074 0.4369 0.8223
H12_4 H 0.8296 0.3926 0.8223
H13_4 H 0.7703 0.4962 0.8443
H14_4 H 0.7260 0.2297 0.8443
H15_4 H 0.5038 0.2740 0.8443
N9_4 N 0.63976(10) 0.37480(7) 0.76251(4)
N10_4 N 0.73505(7) 0.36024(10) 0.76251(4)
N11_4 N 0.70814(7) 0.40171(7) 0.90415(4)
N12_4 N 0.69358(10) 0.29186(7) 0.90415(4)
N13_4 N 0.59829(7) 0.30642(10) 0.90415(4)
C17_4 C 0.61533(13) 0.40619(9) 0.74627(5)
C18_4 C 0.79087(9) 0.38467(13) 0.74627(5)
C19_4 C 0.73953(9) 0.45753(9) 0.92039(5)
C20_4 C 0.71801(13) 0.26047(9) 0.92039(5)
C21_4 C 0.54247(9) 0.28199(13) 0.92039(5)
H16_4 H 0.6103 0.4064 0.7218
H17_4 H 0.7962 0.3897 0.7218
H18_4 H 0.7398 0.4628 0.9448
H19_4 H 0.7231 0.2602 0.9448
H20_4 H 0.5372 0.2769 0.9448
N14_4 N 0.59886(11) 0.43736(8) 0.76914(4)
N15_4 N 0.83851(8) 0.40114(11) 0.76914(4)
N16_4 N 0.77070(8) 0.50517(8) 0.89752(4)
N17_4 N 0.73448(11) 0.22930(8) 0.89752(4)
N18_4 N 0.49483(8) 0.26552(11) 0.89752(4)
Cu2_3 Cu 0.552726(16) 0.490244(12) 0.757042(6)
Cu3_3 Cu 0.937519(11) 0.447274(16) 0.757042(6)
Cu9_3 Cu 0.490244(12) 0.552726(16) 0.742958(6)
O5_3 O 0.73834(10) 0.11486(7) 0.87139(4)
O8_3 O 0.59500(10) 0.55180(7) 0.79527(4)
O9_3 O 0.37653(7) 0.26166(10) 0.87139(4)
O10_3 O 0.95681(7) 0.40500(10) 0.79527(4)
O11_3 O 0.88514(7) 0.62347(7) 0.87139(4)
C22_3 C 0.73524(14) 0.06079(10) 0.87380(6)
C24_7 C 0.40190(14) 0.00778(10) 0.70714(6)
C25_5 C 0.59810(14) 0.60587(10) 0.79286(6)
C26_5 C 0.32556(10) 0.26476(14) 0.87380(6)
C27_3 C 0.67883(16) 0.00574(11) 0.85623(6)
C29_7 C 0.34549(16) 0.00642(11) 0.68957(6)
C30_5 C 0.65451(16) 0.66092(11) 0.81043(6)
C31_5 C 0.32692(11) 0.32117(16) 0.85623(6)
C32_3 C 0.63943(14) 0.01644(10) 0.83403(5)
C35_5 C 0.69391(14) 0.65022(10) 0.83263(5)
C36_5 C 0.37702(10) 0.36057(14) 0.83403(5)
H21_3 H 0.6497 0.0581 0.8286
H24_5 H 0.6837 0.6085 0.8380
H25_5 H 0.4085 0.3503 0.8286
C38_7 C 0.61941(11) 0.03498(10) 0.68037(6)
C40_5 C 0.74890(15) 0.70164(10) 0.84703(6)
C41_5 C 0.38059(11) 0.41556(15) 0.81963(6)
C43_7 C 0.66624(15) 0.09674(12) 0.67187(9)
C45_5 C 0.76383(19) 0.76340(12) 0.83853(9)
C46_5 C 0.33376(15) 0.43049(19) 0.82813(9)
H27_7 H 0.6639 0.1311 0.6814
H29_5 H 0.8005 0.7977 0.8480
H30_5 H 0.3361 0.4671 0.8186
C48_7 C 0.71672(18) 0.10870(13) 0.64942(12)
C49_7 C 0.27469(22) 0.05006(18) 0.68392(12)
C50_5 C 0.72531(22) 0.77536(13) 0.81608(12)
C51_5 C 0.28328(18) 0.39197(22) 0.85058(12)
C53_7 C 0.72030(16) 0.05679(13) 0.63644(9)
C54_7 C 0.33018(21) 0.05364(16) 0.69690(9)
C55_5 C 0.66982(21) 0.72345(13) 0.80310(9)
C56_5 C 0.27970(16) 0.33648(21) 0.86356(9)
H32_7 H 0.7551 0.0640 0.6225
H33_7 H 0.3578 0.0885 0.7109
H34_5 H 0.6422 0.7306 0.7891
H35_5 H 0.2449 0.3088 0.8775
C58_7 C 0.7688(3) 0.17759(17) 0.6409(2)
C59_7 C 0.25791(34) 0.1022(3) 0.6925(2)
C60_5 C 0.74209(34) 0.84425(17) 0.8075(2)
C61_5 C 0.2312(3) 0.40875(34) 0.8591(2)
H37_7 H 0.7825 0.2022 0.6624
H38_7 H 0.2470 0.1159 0.6710
H39_5 H 0.7530 0.8688 0.8290
H40_5 H 0.2175 0.4196 0.8376
H42_7 H 0.8047 0.1773 0.6301
H43_7 H 0.2941 0.1381 0.7033
H44_5 H 0.7059 0.8439 0.7967
H45_5 H 0.1953 0.3725 0.8699
H47_7 H 0.7519 0.1965 0.6249
H48_7 H 0.2221 0.0853 0.7085
H49_5 H 0.7779 0.8631 0.7915
H50_5 H 0.2481 0.4445 0.8751
O14_3 O 0.44035(10) 0.05721(7) 0.72421(4)
O15_5 O 0.55965(10) 0.61685(7) 0.77579(4)
O17_3 O 0.61685(7) 0.55965(10) 0.72421(4)
O18_3 O 0.94279(7) 0.38315(7) 0.72421(4)
O23_3 O 0.56524(7) 0.07195(7) 0.71707(4)
O26_5 O 0.43476(7) 0.50670(10) 0.78293(4)
O27_3 O 0.50670(10) 0.43476(7) 0.71707(4)
O28_3 O 0.92805(7) 0.49330(10) 0.71707(4)
C63_7 C 0.56575(10) 0.02318(10) 0.70504(5)
C65_5 C 0.79076(14) 0.68984(10) 0.87170(5)
C66_5 C 0.43425(10) 0.45742(14) 0.79496(5)
O32_3 O 0.55973(10) 0.03404(7) 0.78737(4)
O35_3 O 0.77361(10) 0.63262(7) 0.87929(4)
O36_3 O 0.47432(7) 0.44027(10) 0.78737(4)
O37_3 O 0.96596(7) 0.52568(7) 0.78737(4)
O38_3 O 0.85902(7) 0.22639(10) 0.87929(4)
C3_3 C 0.39413(10) 0.99222(10) 0.79286(6)
C4_3 C 0.33908(11) 0.99358(11) 0.81043(6)
C8_3 C 0.22464(13) 0.94994(18) 0.81608(12)
C9_3 C 0.27655(13) 0.94636(16) 0.80310(9)
H6_3 H 0.2694 0.9115 0.7891
C10_3 C 0.15575(17) 0.8978(3) 0.8075(2)
H7_3 H 0.1312 0.8841 0.8290
H8_3 H 0.1561 0.8619 0.7967
H9_3 H 0.1369 0.9147 0.7915
O2_3 O 0.38315(7) 0.94279(7) 0.77579(4)
Cu7_3 Cu 0.447274(16) 0.937519(11) 0.742958(6)
O6_7 O 0.62347(7) 0.88514(7) 0.62861(4)
O7_7 O 0.40500(10) 0.95681(7) 0.70473(4)
C23_7 C 0.67444(10) 0.93921(10) 0.62620(6)
C28_7 C 0.67308(11) 0.99426(11) 0.64377(6)
C33_7 C 0.62298(10) 0.98356(10) 0.66597(5)
C34_7 C 0.30609(14) 0.95632(10) 0.66737(5)
H22_7 H 0.5915 0.9419 0.6714
H23_7 H 0.3163 0.9249 0.6620
C37_3 C 0.58444(15) 0.96502(10) 0.81963(6)
C39_7 C 0.25110(15) 0.95275(11) 0.65297(6)
C42_3 C 0.56951(19) 0.90326(12) 0.82813(9)
C44_7 C 0.23617(19) 0.99958(15) 0.66147(9)
H26_3 H 0.5329 0.8689 0.8186
H28_7 H 0.1995 0.9973 0.6520
C47_3 C 0.60803(22) 0.89130(13) 0.85058(12)
C52_3 C 0.66352(21) 0.94321(13) 0.86356(9)
H31_3 H 0.6912 0.9360 0.8775
C57_3 C 0.59125(34) 0.82241(17) 0.8591(2)
H36_3 H 0.5804 0.7978 0.8376
H41_3 H 0.6275 0.8227 0.8699
H46_3 H 0.5555 0.8035 0.8751
O22_3 O 0.49330(10) 0.92805(7) 0.78293(4)
C62_3 C 0.54258(14) 0.97682(10) 0.79496(5)
C64_7 C 0.20924(14) 0.89909(10) 0.62830(5)
O33_7 O 0.52568(7) 0.96596(7) 0.71263(4)
O34_7 O 0.22639(10) 0.85902(7) 0.62071(4)
C25_6 C 0.00778(17) 0.40190(14) 0.79286(6)
C30_6 C 0.00642(19) 0.34549(16) 0.81043(6)
C41_6 C 0.03498(19) 0.61941(11) 0.81963(6)
C46_6 C 0.09674(24) 0.66624(15) 0.82813(9)
H30_6 H 0.1311 0.6639 0.8186
C50_6 C 0.05006(26) 0.27469(22) 0.81608(12)
C51_6 C 0.10870(28) 0.71672(18) 0.85058(12)
C55_6 C 0.05364(25) 0.33018(21) 0.80310(9)
C56_6 C 0.05679(26) 0.72030(16) 0.86356(9)
H34_6 H 0.0885 0.3578 0.7891
H35_6 H 0.0640 0.7551 0.8775
C60_6 C 0.10217(38) 0.25791(34) 0.8075(2)
C61_6 C 0.17759(45) 0.7688(3) 0.8591(2)
H39_6 H 0.1159 0.2470 0.8290
H40_6 H 0.2022 0.7825 0.8376
H44_6 H 0.1381 0.2941 0.7967
H45_6 H 0.1773 0.8047 0.8699
H49_6 H 0.0853 0.2221 0.7915
H50_6 H 0.1965 0.7519 0.8751
O15_6 O 0.05721(12) 0.44035(10) 0.77579(4)
O26_6 O 0.07195(12) 0.56524(7) 0.78293(4)
C66_6 C 0.02318(17) 0.56575(10) 0.79496(5)
O6_8 O 0.26166(10) 0.37653(7) 0.62861(4)
O7_8 O 0.55180(12) 0.59500(10) 0.70473(4)
C23_8 C 0.26476(14) 0.32556(10) 0.62620(6)
C24_8 C 0.60587(17) 0.59810(14) 0.70714(6)
C26_6 C 0.93921(17) 0.67444(10) 0.87380(6)
C28_8 C 0.32117(16) 0.32692(11) 0.64377(6)
C29_8 C 0.66092(19) 0.65451(16) 0.68957(6)
C31_6 C 0.99426(19) 0.67308(11) 0.85623(6)
C33_8 C 0.36057(14) 0.37702(10) 0.66597(5)
C34_8 C 0.65022(17) 0.69391(14) 0.66737(5)
C35_6 C 0.95632(17) 0.30609(14) 0.83263(5)
C36_6 C 0.98356(17) 0.62298(10) 0.83403(5)
H22_8 H 0.3503 0.4085 0.6714
H23_8 H 0.6085 0.6837 0.6620
H24_6 H 0.9249 0.3163 0.8380
H25_6 H 0.9419 0.5915 0.8286
C38_8 C 0.41556(15) 0.38059(11) 0.68037(6)
C39_8 C 0.70164(19) 0.74890(15) 0.65297(6)
C40_6 C 0.95275(18) 0.25110(15) 0.84703(6)
C43_8 C 0.43049(19) 0.33376(15) 0.67187(9)
C44_8 C 0.76340(24) 0.76383(19) 0.66147(9)
C45_6 C 0.99958(22) 0.23617(19) 0.83853(9)
H27_8 H 0.4671 0.3361 0.6814
H28_8 H 0.7977 0.8005 0.6520
H29_6 H 0.9973 0.1995 0.8480
C48_8 C 0.39197(22) 0.28328(18) 0.64942(12)
C49_8 C 0.77536(28) 0.72531(22) 0.68392(12)
C53_8 C 0.33648(21) 0.27970(16) 0.63644(9)
C54_8 C 0.72345(26) 0.66982(21) 0.69690(9)
H32_8 H 0.3088 0.2449 0.6225
H33_8 H 0.7306 0.6422 0.7109
C58_8 C 0.40875(34) 0.2312(3) 0.6409(2)
C59_8 C 0.84425(45) 0.74209(34) 0.6925(2)
H37_8 H 0.4196 0.2175 0.6624
H38_8 H 0.8688 0.7530 0.6710
H42_8 H 0.3725 0.1953 0.6301
H43_8 H 0.8439 0.7059 0.7033
H47_8 H 0.4445 0.2481 0.6249
H48_8 H 0.8631 0.7779 0.7085
C63_8 C 0.45742(14) 0.43425(10) 0.70504(5)
C64_8 C 0.68984(17) 0.79076(14) 0.62830(5)
C65_6 C 0.89909(17) 0.20924(14) 0.87170(5)
O33_8 O 0.44027(10) 0.47432(7) 0.71263(4)
O34_8 O 0.63262(12) 0.77361(10) 0.62071(4)
O6_9 O 0.11486(7) 0.73834(10) 0.62861(4)
O7_9 O 0.04319(7) 0.44820(12) 0.70473(4)
C23_9 C 0.06079(10) 0.73524(14) 0.62620(6)
C28_9 C 0.00574(11) 0.67883(16) 0.64377(6)
C33_9 C 0.01644(10) 0.63943(14) 0.66597(5)
C34_9 C 0.04368(10) 0.34978(17) 0.66737(5)
H22_9 H 0.0581 0.6497 0.6714
H23_9 H 0.0751 0.3915 0.6620
C39_9 C 0.04725(11) 0.29836(19) 0.65297(6)
C44_9 C 0.00042(15) 0.23660(24) 0.66147(9)
H28_9 H 0.0027 0.2023 0.6520
C64_9 C 0.10091(10) 0.31016(17) 0.62830(5)
O33_9 O 0.03404(7) 0.55973(10) 0.71263(4)
O34_9 O 0.14098(7) 0.36738(12) 0.62071(4)
C24_9 C 0.99222(10) 0.39413(17) 0.70714(6)
C29_9 C 0.99358(11) 0.33908(19) 0.68957(6)
C38_9 C 0.96502(10) 0.58444(15) 0.68037(6)
C43_9 C 0.90326(12) 0.56951(19) 0.67187(9)
H27_9 H 0.8689 0.5329 0.6814
C48_9 C 0.89130(13) 0.60803(22) 0.64942(12)
C49_9 C 0.94994(18) 0.22464(28) 0.68392(12)
C53_9 C 0.94321(13) 0.66352(21) 0.63644(9)
C54_9 C 0.94636(16) 0.27655(26) 0.69690(9)
H32_9 H 0.9360 0.6912 0.6225
H33_9 H 0.9115 0.2694 0.7109
C58_9 C 0.82241(17) 0.59125(34) 0.6409(2)
C59_9 C 0.8978(3) 0.15575(45) 0.6925(2)
H37_9 H 0.7978 0.5804 0.6624
H38_9 H 0.8841 0.1312 0.6710
H42_9 H 0.8227 0.6275 0.6301
H43_9 H 0.8619 0.1561 0.7033
H47_9 H 0.8035 0.5555 0.6249
H48_9 H 0.9147 0.1369 0.7085
C63_9 C 0.97682(10) 0.54258(14) 0.70504(5)
Co1_15 Co 0.3333 0.6667 0.6667
B1_11 B 0.3333 0.6667 0.75245(9)
H1_11 H 0.3333 0.6667 0.7785
N1_5 N 0.25405(7) 0.61549(7) 0.70186(4)
C1_5 C 0.19164(9) 0.57780(9) 0.69918(5)
H2_5 H 0.1704 0.5631 0.6777
N2_5 N 0.26495(7) 0.62520(7) 0.73749(4)
C2_5 C 0.20913(9) 0.59381(9) 0.75373(5)
H3_5 H 0.2038 0.5936 0.7782
N3_5 N 0.16149(8) 0.56264(8) 0.73086(4)
B2_11 B 0.3333 0.6667 0.58089(9)
H10_11 H 0.3333 0.6667 0.5549
N4_5 N 0.38451(7) 0.63857(10) 0.70186(4)
N5_5 N 0.36143(10) 0.74595(7) 0.70186(4)
N6_5 N 0.41261(7) 0.71785(7) 0.63148(4)
N7_5 N 0.28215(7) 0.69477(10) 0.63148(4)
N8_5 N 0.30523(10) 0.58739(7) 0.63148(4)
C12_5 C 0.42220(9) 0.61385(13) 0.69918(5)
C13_5 C 0.38615(13) 0.80836(9) 0.69918(5)
C14_5 C 0.47502(9) 0.75554(9) 0.63416(5)
C15_5 C 0.24446(9) 0.71949(13) 0.63416(5)
C16_5 C 0.28051(13) 0.52498(9) 0.63416(5)
H11_5 H 0.4369 0.6074 0.6777
H12_5 H 0.3926 0.8296 0.6777
H13_5 H 0.4962 0.7703 0.6557
H14_5 H 0.2297 0.7260 0.6557
H15_5 H 0.2740 0.5038 0.6557
N9_5 N 0.37480(7) 0.63976(10) 0.73749(4)
N10_5 N 0.36024(10) 0.73505(7) 0.73749(4)
N11_5 N 0.40171(7) 0.70814(7) 0.59585(4)
N12_5 N 0.29186(7) 0.69358(10) 0.59585(4)
N13_5 N 0.30642(10) 0.59829(7) 0.59585(4)
C17_5 C 0.40619(9) 0.61533(13) 0.75373(5)
C18_5 C 0.38467(13) 0.79087(9) 0.75373(5)
C19_5 C 0.45753(9) 0.73953(9) 0.57961(5)
C20_5 C 0.26047(9) 0.71801(13) 0.57961(5)
C21_5 C 0.28199(13) 0.54247(9) 0.57961(5)
H16_5 H 0.4064 0.6103 0.7782
H17_5 H 0.3897 0.7962 0.7782
H18_5 H 0.4628 0.7398 0.5552
H19_5 H 0.2602 0.7231 0.5552
H20_5 H 0.2769 0.5372 0.5552
N14_5 N 0.43736(8) 0.59886(11) 0.73086(4)
N15_5 N 0.40114(11) 0.83851(8) 0.73086(4)
N16_5 N 0.50517(8) 0.77070(8) 0.60248(4)
N17_5 N 0.22930(8) 0.73448(11) 0.60248(4)
N18_5 N 0.26552(11) 0.49483(8) 0.60248(4)
Co1_16 Co 0.3333 0.6667 0.1667
B1_12 B 0.3333 0.6667 0.08089(9)
H1_12 H 0.3333 0.6667 0.0549
N1_6 N 0.28215(7) 0.58739(7) 0.13148(4)
C1_6 C 0.24446(9) 0.52498(9) 0.13416(5)
H2_6 H 0.2297 0.5038 0.1557
N2_6 N 0.29186(7) 0.59829(7) 0.09585(4)
C2_6 C 0.26047(9) 0.54247(9) 0.07961(5)
H3_6 H 0.2602 0.5372 0.0552
N3_6 N 0.22930(8) 0.49483(8) 0.10248(4)
B2_12 B 0.3333 0.6667 0.25245(9)
H10_12 H 0.3333 0.6667 0.2785
N4_6 N 0.30523(10) 0.71785(7) 0.13148(4)
N5_6 N 0.41261(7) 0.69477(10) 0.13148(4)
N6_6 N 0.38451(7) 0.74595(7) 0.20186(4)
N7_6 N 0.36143(10) 0.61549(7) 0.20186(4)
N8_6 N 0.25405(7) 0.63857(10) 0.20186(4)
C12_6 C 0.28051(13) 0.75554(9) 0.13416(5)
C13_6 C 0.47502(9) 0.71949(13) 0.13416(5)
C14_6 C 0.42220(9) 0.80836(9) 0.19918(5)
C15_6 C 0.38615(13) 0.57780(9) 0.19918(5)
C16_6 C 0.19164(9) 0.61385(13) 0.19918(5)
H11_6 H 0.2740 0.7703 0.1557
H12_6 H 0.4962 0.7260 0.1557
H13_6 H 0.4369 0.8296 0.1777
H14_6 H 0.3926 0.5631 0.1777
H15_6 H 0.1704 0.6074 0.1777
N9_6 N 0.30642(10) 0.70814(7) 0.09585(4)
N10_6 N 0.40171(7) 0.69358(10) 0.09585(4)
N11_6 N 0.37480(7) 0.73505(7) 0.23749(4)
N12_6 N 0.36024(10) 0.62520(7) 0.23749(4)
N13_6 N 0.26495(7) 0.63976(10) 0.23749(4)
C17_6 C 0.28199(13) 0.73953(9) 0.07961(5)
C18_6 C 0.45753(9) 0.71801(13) 0.07961(5)
C19_6 C 0.40619(9) 0.79087(9) 0.25373(5)
C20_6 C 0.38467(13) 0.59381(9) 0.25373(5)
C21_6 C 0.20913(9) 0.61533(13) 0.25373(5)
H16_6 H 0.2769 0.7398 0.0552
H17_6 H 0.4628 0.7231 0.0552
H18_6 H 0.4064 0.7962 0.2782
H19_6 H 0.3897 0.5936 0.2782
H20_6 H 0.2038 0.6103 0.2782
N14_6 N 0.26552(11) 0.77070(8) 0.10248(4)
N15_6 N 0.50517(8) 0.73448(11) 0.10248(4)
N16_6 N 0.43736(8) 0.83851(8) 0.23086(4)
N17_6 N 0.40114(11) 0.56264(8) 0.23086(4)
N18_6 N 0.16149(8) 0.59886(11) 0.23086(4)
loop_
_geom_bond_atom_site_label_1
_geom_bond_atom_site_label_2
_geom_bond_site_symmetry_1
_geom_bond_site_symmetry_2
B1 H1 1_555 1_555
N5 Co1 1_555 1_555
C13 N5 1_555 1_555
H12 C13 1_555 1_555
N10 B1 1_555 1_555
C18 N10 1_555 1_555
H17 C18 1_555 1_555
N15 C13 1_555 1_555
Cu3 N15 1_555 1_555
Cu10 Cu3 1_555 1_555
O10 Cu3 1_555 1_555
C60 C50 1_555 1_555
H39 C60 1_555 1_555
H44 C60 1_555 1_555
H49 C60 1_555 1_555
O18 Cu3 1_555 1_555
O28 Cu3 1_555 1_555
O37 Cu3 1_555 1_555
N5 N10 1_555 1_555
C18 N15 1_555 1_555
C50 C55 1_555 1_555
B2 H10 1_555 1_555
N6 Co1_2 1_555 1_555
C14 N6 1_555 1_555
H13 C14 1_555 1_555
N11 B2 1_555 1_555
C19 N11 1_555 1_555
H18 C19 1_555 1_555
N16 C14 1_555 1_555
Cu4 N16 1_555 1_555
Cu11 Cu4 1_555 1_555
O11 Cu4 1_555 1_555
C45 C40 1_555 1_555
H29 C45 1_555 1_555
O19 Cu4 1_555 1_555
O25 Cu11 1_555 1_555
O29 Cu4 1_555 1_555
C65 C40 1_555 1_555
O35 Cu4 1_555 1_555
N6 N11 1_555 1_555
C19 N16 1_555 1_555
O25 C65 1_555 1_555
C65 O35 1_555 1_555
B1_2 H1_2 1_555 1_555
N4 Co1_3 1_555 1_555
C12 N4 1_555 1_555
H11 C12 1_555 1_555
N9 B1_2 1_555 1_555
C17 N9 1_555 1_555
H16 C17 1_555 1_555
N14 C12 1_555 1_555
Cu2 N14 1_555 1_555
Cu9 Cu2 1_555 1_555
O8 Cu2 1_555 1_555
C25 O8 1_555 1_555
C30 C25 1_555 1_555
C46 C41 1_555 1_555
H30 C46 1_555 1_555
O15 Cu9 1_555 1_555
O17 Cu2 1_555 1_555
O26 Cu9 1_555 1_555
O27 Cu2 1_555 1_555
C66 C41 1_555 1_555
O36 Cu2 1_555 1_555
N4 N9 1_555 1_555
C17 N14 1_555 1_555
C25 O15 1_555 1_555
O26 C66 1_555 1_555
C66 O36 1_555 1_555
B2_2 H10_2 1_555 1_555
C61 C51 1_555 1_555
H40 C61 1_555 1_555
H45 C61 1_555 1_555
H50 C61 1_555 1_555
C51 C56 1_555 1_555
B1_3 H1_3 1_555 1_555
Cu14 O13 1_555 1_555
C28 C23 1_555 1_555
C53 C28 1_555 1_555
H32 C53 1_555 1_555
C58 C48 1_555 1_555
H37 C58 1_555 1_555
H42 C58 1_555 1_555
H47 C58 1_555 1_555
O13 C23 1_555 1_555
C48 C53 1_555 1_555
B2_3 H10_3 1_555 1_555
N7 Co1_6 1_555 1_555
C15 N7 1_555 1_555
H14 C15 1_555 1_555
N12 B2_3 1_555 1_555
C20 N12 1_555 1_555
H19 C20 1_555 1_555
N17 C15 1_555 1_555
Cu5 N17 1_555 1_555
Cu12 Cu5 1_555 1_555
O5 Cu5 1_555 1_555
C22 O5 1_555 1_555
C27 C22 1_555 1_555
O12 Cu12 1_555 1_555
O20 Cu5 1_555 1_555
O30 Cu5 1_555 1_555
O38 Cu5 1_555 1_555
N7 N12 1_555 1_555
C20 N17 1_555 1_555
C22 O12 1_555 1_555
Co1_7 N1 1_555 1_555
B1_4 H1_4 1_555 1_555
N1 C1 1_555 1_555
C1 H2 1_555 1_555
N2 B1_4 1_555 1_555
C2 N2 1_555 1_555
H3 C2 1_555 1_555
N3 C1 1_555 1_555
Cu1 N3 1_555 1_555
O1 Cu1 1_555 1_555
C3 O1 1_555 1_555
C4 C3 1_555 1_555
C5 C4 1_555 1_555
C9 C4 1_555 1_555
H6 C9 1_555 1_555
C10 C8 1_555 1_555
H7 C10 1_555 1_555
H8 C10 1_555 1_555
H9 C10 1_555 1_555
O2 C3 1_555 1_555
Cu7 Cu1 1_555 1_555
Cu15 Cu16 1_555 1_555
Cu16 O34 1_555 1_555
O6 Cu13 1_555 1_555
O7 Cu7 1_555 1_555
C24 O7 1_555 1_555
C29 C24 1_555 1_555
C34 C29 1_555 1_555
H22 C33 1_555 1_555
H23 C34 1_555 1_555
C38 C33 1_555 1_555
C39 C34 1_555 1_555
C42 C37 1_555 1_555
C43 C38 1_555 1_555
C44 C39 1_555 1_555
H26 C42 1_555 1_555
H27 C43 1_555 1_555
H28 C44 1_555 1_555
C49 C44 1_555 1_555
C54 C29 1_555 1_555
H33 C54 1_555 1_555
C59 C49 1_555 1_555
H38 C59 1_555 1_555
H43 C59 1_555 1_555
H48 C59 1_555 1_555
O14 Cu1 1_555 1_555
O22 Cu7 1_555 1_555
O23 Cu1 1_555 1_555
O24 Cu15 1_555 1_555
C62 C37 1_555 1_555
C63 C38 1_555 1_555
C64 C39 1_555 1_555
O32 Cu1 1_555 1_555
O33 Cu7 1_555 1_555
O34 C64 1_555 1_555
N1 N2 1_555 1_555
C2 N3 1_555 1_555
C8 C9 1_555 1_555
O2 Cu7 1_555 1_555
C24 O14 1_555 1_555
C49 C54 1_555 1_555
O22 C62 1_555 1_555
O23 C63 1_555 1_555
O24 C64 1_555 1_555
C62 O32 1_555 1_555
C63 O33 1_555 1_555
C7 C6 1_555 1_555
H5 C7 1_555 1_555
O3 C11 1_555 1_555
C11 C6 1_555 1_555
O4 C11 1_555 1_555
B2_4 H10_4 1_555 1_555
N8 Co1_8 1_555 1_555
C16 N8 1_555 1_555
H15 C16 1_555 1_555
N13 B2_4 1_555 1_555
C21 N13 1_555 1_555
H20 C21 1_555 1_555
N18 C16 1_555 1_555
Cu6 O4 1_555 1_555
Cu8 O3 1_555 1_555
O9 Cu6 1_555 1_555
C26 O9 1_555 1_555
C31 C26 1_555 1_555
C57 C47 1_555 1_555
H36 C57 1_555 1_555
H41 C57 1_555 1_555
H46 C57 1_555 1_555
O16 Cu8 1_555 1_555
O21 Cu6 1_555 1_555
O31 Cu6 1_555 1_555
N8 N13 1_555 1_555
C21 N18 1_555 1_555
N18 Cu6 1_555 1_555
Cu6 Cu8 1_555 1_555
C26 O16 1_555 1_555
C47 C52 1_555 1_555
C25_2 O10 1_555 1_555
C30_2 C25_2 1_555 1_555
C44_2 C39_2 1_555 1_555
C46_2 C41_2 1_555 1_555
H28_2 C44_2 1_555 1_555
H30_2 C46_2 1_555 1_555
C49_2 C44_2 1_555 1_555
H33_2 C54_2 1_555 1_555
C59_2 C49_2 1_555 1_555
H38_2 C59_2 1_555 1_555
H43_2 C59_2 1_555 1_555
H48_2 C59_2 1_555 1_555
O15_2 Cu10 1_555 1_555
O24_2 Cu14 1_555 1_555
O26_2 Cu10 1_555 1_555
C64_2 C39_2 1_555 1_555
C66_2 C41_2 1_555 1_555
C25_2 O15_2 1_555 1_555
C49_2 C54_2 1_555 1_555
O24_2 C64_2 1_555 1_555
O26_2 C66_2 1_555 1_555
C66_2 O37 1_555 1_555
C26_2 O11 1_555 1_555
C31_2 C26_2 1_555 1_555
C36_2 C31_2 1_555 1_555
C56_2 C31_2 1_555 1_555
H35_2 C56_2 1_555 1_555
C61_2 C51_2 1_555 1_555
H40_2 C61_2 1_555 1_555
H45_2 C61_2 1_555 1_555
H50_2 C61_2 1_555 1_555
O16_2 Cu11 1_555 1_555
C26_2 O16_2 1_555 1_555
C51_2 C56_2 1_555 1_555
Cu13 O34_2 1_555 1_555
O6_2 Cu13_2 1_555 1_555
O7_2 Cu9 1_555 1_555
C24_2 O7_2 1_555 1_555
C29_2 C24_2 1_555 1_555
C34_2 C29_2 1_555 1_555
H22_2 C33_2 1_555 1_555
H23_2 C34_2 1_555 1_555
C38_2 C33_2 1_555 1_555
C43_2 C38_2 1_555 1_555
H27_2 C43_2 1_555 1_555
C63_2 C38_2 1_555 1_555
O33_2 Cu9 1_555 1_555
C24_2 O17 1_555 1_555
O27 C63_2 1_555 1_555
C63_2 O33_2 1_555 1_555
C60_2 C50_2 1_555 1_555
H39_2 C60_2 1_555 1_555
H44_2 C60_2 1_555 1_555
H49_2 C60_2 1_555 1_555
C50_2 C55_2 1_555 1_555
C45_2 C40_2 1_555 1_555
H29_2 C45_2 1_555 1_555
O25_2 Cu12 1_555 1_555
C65_2 C40_2 1_555 1_555
O25_2 C65_2 1_555 1_555
C65_2 O38 1_555 1_555
Cu14_2 O13_2 1_555 1_555
C28_2 C23_2 1_555 1_555
C53_2 C28_2 1_555 1_555
H32_2 C53_2 1_555 1_555
C58_2 C48_2 1_555 1_555
H37_2 C58_2 1_555 1_555
H42_2 C58_2 1_555 1_555
H47_2 C58_2 1_555 1_555
O13_2 C23_2 1_555 1_555
C48_2 C53_2 1_555 1_555
Cu15 O13_3 1_555 1_555
Cu13_2 O34_3 1_555 1_555
O6_3 Cu16 1_555 1_555
O7_3 Cu10 1_555 1_555
C23_3 O6_3 1_555 1_555
C24_3 O7_3 1_555 1_555
C28_3 C23_3 1_555 1_555
C29_3 C24_3 1_555 1_555
C33_3 C28_3 1_555 1_555
C34_3 C29_3 1_555 1_555
H22_3 C33_3 1_555 1_555
H23_3 C34_3 1_555 1_555
C38_3 C33_3 1_555 1_555
C43_3 C38_3 1_555 1_555
H27_3 C43_3 1_555 1_555
C48_3 C43_3 1_555 1_555
C53_3 C28_3 1_555 1_555
H32_3 C53_3 1_555 1_555
C58_3 C48_3 1_555 1_555
H37_3 C58_3 1_555 1_555
H42_3 C58_3 1_555 1_555
H47_3 C58_3 1_555 1_555
O13_3 C23_3 1_555 1_555
C63_3 C38_3 1_555 1_555
O33_3 Cu10 1_555 1_555
C24_3 O18 1_555 1_555
C48_3 C53_3 1_555 1_555
O28 C63_3 1_555 1_555
C63_3 O33_3 1_555 1_555
C44_3 C39_3 1_555 1_555
H28_3 C44_3 1_555 1_555
C49_3 C44_3 1_555 1_555
H33_3 C54_3 1_555 1_555
C59_3 C49_3 1_555 1_555
H38_3 C59_3 1_555 1_555
H43_3 C59_3 1_555 1_555
H48_3 C59_3 1_555 1_555
O24_3 Cu14_2 1_555 1_555
C64_3 C39_3 1_555 1_555
C49_3 C54_3 1_555 1_555
O24_3 C64_3 1_555 1_555
B1_5 H1_5 1_555 1_555
B2_5 H10_5 1_555 1_555
N5_2 Co1_9 1_555 1_555
N6_2 Co1_9 1_555 1_555
C13_2 N5_2 1_555 1_555
C14_2 N6_2 1_555 1_555
H12_2 C13_2 1_555 1_555
H13_2 C14_2 1_555 1_555
N10_2 B1_5 1_555 1_555
N11_2 B2_5 1_555 1_555
C18_2 N10_2 1_555 1_555
C19_2 N11_2 1_555 1_555
H17_2 C18_2 1_555 1_555
H18_2 C19_2 1_555 1_555
N15_2 C13_2 1_555 1_555
N16_2 C14_2 1_555 1_555
Cu3_2 N15_2 1_555 1_555
Cu4_2 N16_2 1_555 1_555
Cu10_2 Cu3_2 1_555 1_555
Cu11_2 Cu4_2 1_555 1_555
O10_2 Cu3_2 1_555 1_555
O11_2 Cu4_2 1_555 1_555
H24_3 C35_3 1_555 1_555
C40_3 C35_3 1_555 1_555
C45_3 C40_3 1_555 1_555
H29_3 C45_3 1_555 1_555
C50_3 C45_3 1_555 1_555
C60_3 C50_3 1_555 1_555
H39_3 C60_3 1_555 1_555
H44_3 C60_3 1_555 1_555
H49_3 C60_3 1_555 1_555
O18_2 Cu3_2 1_555 1_555
O19_2 Cu4_2 1_555 1_555
O25_3 Cu11_2 1_555 1_555
O28_2 Cu3_2 1_555 1_555
O29_2 Cu4_2 1_555 1_555
C65_3 C40_3 1_555 1_555
O35_2 Cu4_2 1_555 1_555
O37_2 Cu3_2 1_555 1_555
N5_2 N10_2 1_555 1_555
N6_2 N11_2 1_555 1_555
C18_2 N15_2 1_555 1_555
C19_2 N16_2 1_555 1_555
C50_3 C55_3 1_555 1_555
O25_3 C65_3 1_555 1_555
C65_3 O35_2 1_555 1_555
B1_6 H1_6 1_555 1_555
B2_6 H10_6 1_555 1_555
N7_2 Co1_10 1_555 1_555
C15_2 N7_2 1_555 1_555
H14_2 C15_2 1_555 1_555
N12_2 B2_6 1_555 1_555
C20_2 N12_2 1_555 1_555
H19_2 C20_2 1_555 1_555
N17_2 C15_2 1_555 1_555
Cu5_2 N17_2 1_555 1_555
Cu12_2 Cu5_2 1_555 1_555
Cu13_2 O13_4 1_555 1_555
O5_2 Cu5_2 1_555 1_555
C22_2 O5_2 1_555 1_555
C27_2 C22_2 1_555 1_555
C28_4 C23_4 1_555 1_555
C53_4 C28_4 1_555 1_555
H32_4 C53_4 1_555 1_555
C58_4 C48_4 1_555 1_555
H37_4 C58_4 1_555 1_555
H42_4 C58_4 1_555 1_555
H47_4 C58_4 1_555 1_555
O12_2 Cu12_2 1_555 1_555
O13_4 C23_4 1_555 1_555
O20_2 Cu5_2 1_555 1_555
O30_2 Cu5_2 1_555 1_555
O38_2 Cu5_2 1_555 1_555
N7_2 N12_2 1_555 1_555
C20_2 N17_2 1_555 1_555
C22_2 O12_2 1_555 1_555
C48_4 C53_4 1_555 1_555
B1_7 H1_7 1_555 1_555
B2_7 H10_7 1_555 1_555
N4_2 Co1_11 1_555 1_555
C12_2 N4_2 1_555 1_555
H11_2 C12_2 1_555 1_555
N9_2 B1_7 1_555 1_555
C17_2 N9_2 1_555 1_555
H16_2 C17_2 1_555 1_555
N14_2 C12_2 1_555 1_555
Cu2_2 N14_2 1_555 1_555
Cu9_2 Cu2_2 1_555 1_555
O8_2 Cu2_2 1_555 1_555
C25_3 O8_2 1_555 1_555
C30_3 C25_3 1_555 1_555
H25_3 C36_3 1_555 1_555
C41_3 C36_3 1_555 1_555
C46_3 C41_3 1_555 1_555
H30_3 C46_3 1_555 1_555
C51_3 C46_3 1_555 1_555
C61_3 C51_3 1_555 1_555
H40_3 C61_3 1_555 1_555
H45_3 C61_3 1_555 1_555
H50_3 C61_3 1_555 1_555
O15_3 Cu9_2 1_555 1_555
O17_2 Cu2_2 1_555 1_555
O26_3 Cu9_2 1_555 1_555
O27_2 Cu2_2 1_555 1_555
C66_3 C41_3 1_555 1_555
O36_2 Cu2_2 1_555 1_555
N4_2 N9_2 1_555 1_555
C17_2 N14_2 1_555 1_555
C25_3 O15_3 1_555 1_555
C51_3 C56_3 1_555 1_555
O26_3 C66_3 1_555 1_555
C66_3 O36_2 1_555 1_555
Co1_12 N1_2 1_555 1_555
B1_8 H1_8 1_555 1_555
N1_2 C1_2 1_555 1_555
C1_2 H2_2 1_555 1_555
N2_2 B1_8 1_555 1_555
C2_2 N2_2 1_555 1_555
H3_2 C2_2 1_555 1_555
N3_2 C1_2 1_555 1_555
Cu1_2 N3_2 1_555 1_555
O1_2 Cu1_2 1_555 1_555
C3_2 O1_2 1_555 1_555
C4_2 C3_2 1_555 1_555
C5_2 C4_2 1_555 1_555
H4_2 C5_2 1_555 1_555
C6_2 C5_2 1_555 1_555
C7_2 C6_2 1_555 1_555
H5_2 C7_2 1_555 1_555
C8_2 C7_2 1_555 1_555
C9_2 C4_2 1_555 1_555
H6_2 C9_2 1_555 1_555
C10_2 C8_2 1_555 1_555
H7_2 C10_2 1_555 1_555
H8_2 C10_2 1_555 1_555
H9_2 C10_2 1_555 1_555
O2_2 C3_2 1_555 1_555
O3_2 C11_2 1_555 1_555
C11_2 C6_2 1_555 1_555
O4_2 C11_2 1_555 1_555
B2_8 H10_8 1_555 1_555
N8_2 Co1_12 1_555 1_555
C16_2 N8_2 1_555 1_555
H15_2 C16_2 1_555 1_555
N13_2 B2_8 1_555 1_555
C21_2 N13_2 1_555 1_555
H20_2 C21_2 1_555 1_555
N18_2 C16_2 1_555 1_555
Cu6_2 O4_2 1_555 1_555
Cu7_2 Cu1_2 1_555 1_555
Cu8_2 O3_2 1_555 1_555
Cu15 O34_4 1_555 1_555
O6_4 Cu14_2 1_555 1_555
O7_4 Cu7_2 1_555 1_555
O9_2 Cu6_2 1_555 1_555
C24_4 O7_4 1_555 1_555
C26_3 O9_2 1_555 1_555
C29_4 C24_4 1_555 1_555
C31_3 C26_3 1_555 1_555
C34_4 C29_4 1_555 1_555
H21_2 C32_2 1_555 1_555
H22_4 C33_4 1_555 1_555
H23_4 C34_4 1_555 1_555
C37_2 C32_2 1_555 1_555
C38_4 C33_4 1_555 1_555
C39_4 C34_4 1_555 1_555
C42_2 C37_2 1_555 1_555
C43_4 C38_4 1_555 1_555
C44_4 C39_4 1_555 1_555
H26_2 C42_2 1_555 1_555
H27_4 C43_4 1_555 1_555
H28_4 C44_4 1_555 1_555
C47_2 C42_2 1_555 1_555
C49_4 C44_4 1_555 1_555
C54_4 C29_4 1_555 1_555
H33_4 C54_4 1_555 1_555
C57_2 C47_2 1_555 1_555
C59_4 C49_4 1_555 1_555
H36_2 C57_2 1_555 1_555
H38_4 C59_4 1_555 1_555
H41_2 C57_2 1_555 1_555
H43_4 C59_4 1_555 1_555
H46_2 C57_2 1_555 1_555
H48_4 C59_4 1_555 1_555
O14_2 Cu1_2 1_555 1_555
O16_3 Cu8_2 1_555 1_555
O21_2 Cu6_2 1_555 1_555
O22_2 Cu7_2 1_555 1_555
O23_2 Cu1_2 1_555 1_555
O24_4 Cu16 1_555 1_555
O31_2 Cu6_2 1_555 1_555
C62_2 C37_2 1_555 1_555
C63_4 C38_4 1_555 1_555
C64_4 C39_4 1_555 1_555
O32_2 Cu1_2 1_555 1_555
O33_4 Cu7_2 1_555 1_555
O34_4 C64_4 1_555 1_555
N1_2 N2_2 1_555 1_555
C2_2 N3_2 1_555 1_555
C8_2 C9_2 1_555 1_555
O2_2 Cu7_2 1_555 1_555
N8_2 N13_2 1_555 1_555
C21_2 N18_2 1_555 1_555
N18_2 Cu6_2 1_555 1_555
Cu6_2 Cu8_2 1_555 1_555
C24_4 O14_2 1_555 1_555
C26_3 O16_3 1_555 1_555
C47_2 C52_2 1_555 1_555
C49_4 C54_4 1_555 1_555
O22_2 C62_2 1_555 1_555
O23_2 C63_4 1_555 1_555
O24_4 C64_4 1_555 1_555
C62_2 O32_2 1_555 1_555
C63_4 O33_4 1_555 1_555
C25_4 O10_2 1_555 1_555
C26_4 O11_2 1_555 1_555
C30_4 C25_4 1_555 1_555
C31_4 C26_4 1_555 1_555
C36_4 C31_4 1_555 1_555
H25_4 C36_4 1_555 1_555
C41_4 C36_4 1_555 1_555
C44_5 C39_5 1_555 1_555
C46_4 C41_4 1_555 1_555
H28_5 C44_5 1_555 1_555
H30_4 C46_4 1_555 1_555
C49_5 C44_5 1_555 1_555
C51_4 C46_4 1_555 1_555
C56_4 C31_4 1_555 1_555
H33_5 C54_5 1_555 1_555
H35_4 C56_4 1_555 1_555
C59_5 C49_5 1_555 1_555
C61_4 C51_4 1_555 1_555
H38_5 C59_5 1_555 1_555
H40_4 C61_4 1_555 1_555
H43_5 C59_5 1_555 1_555
H45_4 C61_4 1_555 1_555
H48_5 C59_5 1_555 1_555
H50_4 C61_4 1_555 1_555
O15_4 Cu10_2 1_555 1_555
O16_4 Cu11_2 1_555 1_555
O24_5 Cu13_2 1_555 1_555
O26_4 Cu10_2 1_555 1_555
C64_5 C39_5 1_555 1_555
C66_4 C41_4 1_555 1_555
C25_4 O15_4 1_555 1_555
C26_4 O16_4 1_555 1_555
C49_5 C54_5 1_555 1_555
C51_4 C56_4 1_555 1_555
O24_5 C64_5 1_555 1_555
O26_4 C66_4 1_555 1_555
C66_4 O37_2 1_555 1_555
H24_4 C35_4 1_555 1_555
C40_4 C35_4 1_555 1_555
C45_4 C40_4 1_555 1_555
H29_4 C45_4 1_555 1_555
C50_4 C45_4 1_555 1_555
C60_4 C50_4 1_555 1_555
H39_4 C60_4 1_555 1_555
H44_4 C60_4 1_555 1_555
H49_4 C60_4 1_555 1_555
O25_4 Cu12_2 1_555 1_555
C65_4 C40_4 1_555 1_555
C50_4 C55_4 1_555 1_555
O25_4 C65_4 1_555 1_555
C65_4 O38_2 1_555 1_555
Cu14_2 O34_5 1_555 1_555
O6_5 Cu14 1_555 1_555
O7_5 Cu9_2 1_555 1_555
C24_5 O7_5 1_555 1_555
C29_5 C24_5 1_555 1_555
C34_5 C29_5 1_555 1_555
H22_5 C33_5 1_555 1_555
H23_5 C34_5 1_555 1_555
C38_5 C33_5 1_555 1_555
C43_5 C38_5 1_555 1_555
H27_5 C43_5 1_555 1_555
C63_5 C38_5 1_555 1_555
O33_5 Cu9_2 1_555 1_555
C24_5 O17_2 1_555 1_555
O27_2 C63_5 1_555 1_555
C63_5 O33_5 1_555 1_555
Cu13 O13_5 1_555 1_555
C28_5 C23_5 1_555 1_555
C53_5 C28_5 1_555 1_555
H32_5 C53_5 1_555 1_555
C58_5 C48_5 1_555 1_555
H37_5 C58_5 1_555 1_555
H42_5 C58_5 1_555 1_555
H47_5 C58_5 1_555 1_555
O13_5 C23_5 1_555 1_555
C48_5 C53_5 1_555 1_555
Cu16 O13_6 1_555 1_555
Cu14 O34_6 1_555 1_555
O6_6 Cu15 1_555 1_555
O7_6 Cu10_2 1_555 1_555
C23_6 O6_6 1_555 1_555
C24_6 O7_6 1_555 1_555
C28_6 C23_6 1_555 1_555
C29_6 C24_6 1_555 1_555
C33_6 C28_6 1_555 1_555
C34_6 C29_6 1_555 1_555
H22_6 C33_6 1_555 1_555
H23_6 C34_6 1_555 1_555
C38_6 C33_6 1_555 1_555
C43_6 C38_6 1_555 1_555
H27_6 C43_6 1_555 1_555
C48_6 C43_6 1_555 1_555
C53_6 C28_6 1_555 1_555
H32_6 C53_6 1_555 1_555
C58_6 C48_6 1_555 1_555
H37_6 C58_6 1_555 1_555
H42_6 C58_6 1_555 1_555
H47_6 C58_6 1_555 1_555
O13_6 C23_6 1_555 1_555
C63_6 C38_6 1_555 1_555
O33_6 Cu10_2 1_555 1_555
C24_6 O18_2 1_555 1_555
C48_6 C53_6 1_555 1_555
O28_2 C63_6 1_555 1_555
C63_6 O33_6 1_555 1_555
C44_6 C39_6 1_555 1_555
H28_6 C44_6 1_555 1_555
C49_6 C44_6 1_555 1_555
H33_6 C54_6 1_555 1_555
C59_6 C49_6 1_555 1_555
H38_6 C59_6 1_555 1_555
H43_6 C59_6 1_555 1_555
H48_6 C59_6 1_555 1_555
O24_6 Cu13 1_555 1_555
C64_6 C39_6 1_555 1_555
C49_6 C54_6 1_555 1_555
O24_6 C64_6 1_555 1_555
Co1_13 N1_3 1_555 1_555
B1_9 H1_9 1_555 1_555
N1_3 C1_3 1_555 1_555
C1_3 H2_3 1_555 1_555
N2_3 B1_9 1_555 1_555
C2_3 N2_3 1_555 1_555
H3_3 C2_3 1_555 1_555
N3_3 C1_3 1_555 1_555
Cu10_2 N3_3 1_555 1_555
B2_9 H10_9 1_555 1_555
N4_3 Co1_13 1_555 1_555
N5_3 Co1_13 1_555 1_555
N6_3 Co1_13 1_555 1_555
N7_3 Co1_13 1_555 1_555
N8_3 Co1_13 1_555 1_555
C12_3 N4_3 1_555 1_555
C13_3 N5_3 1_555 1_555
C14_3 N6_3 1_555 1_555
C15_3 N7_3 1_555 1_555
C16_3 N8_3 1_555 1_555
H11_3 C12_3 1_555 1_555
H12_3 C13_3 1_555 1_555
H13_3 C14_3 1_555 1_555
H14_3 C15_3 1_555 1_555
H15_3 C16_3 1_555 1_555
N9_3 B1_9 1_555 1_555
N10_3 B1_9 1_555 1_555
N11_3 B2_9 1_555 1_555
N12_3 B2_9 1_555 1_555
N13_3 B2_9 1_555 1_555
C17_3 N9_3 1_555 1_555
C18_3 N10_3 1_555 1_555
C19_3 N11_3 1_555 1_555
C20_3 N12_3 1_555 1_555
C21_3 N13_3 1_555 1_555
H16_3 C17_3 1_555 1_555
H17_3 C18_3 1_555 1_555
H18_3 C19_3 1_555 1_555
H19_3 C20_3 1_555 1_555
H20_3 C21_3 1_555 1_555
N14_3 C12_3 1_555 1_555
N15_3 C13_3 1_555 1_555
N16_3 C14_3 1_555 1_555
N17_3 C15_3 1_555 1_555
N18_3 C16_3 1_555 1_555
Cu9_2 N14_3 1_555 1_555
Cu7_2 N15_3 1_555 1_555
Cu14_2 N16_3 1_555 1_555
Cu15 N17_3 1_555 1_555
N1_3 N2_3 1_555 1_555
C2_3 N3_3 1_555 1_555
N4_3 N9_3 1_555 1_555
N5_3 N10_3 1_555 1_555
N6_3 N11_3 1_555 1_555
N7_3 N12_3 1_555 1_555
N8_3 N13_3 1_555 1_555
C17_3 N14_3 1_555 1_555
C18_3 N15_3 1_555 1_555
C19_3 N16_3 1_555 1_555
C20_3 N17_3 1_555 1_555
C21_3 N18_3 1_555 1_555
N18_3 Cu14 1_555 1_555
Co1_14 N1_4 1_555 1_555
B1_10 H1_10 1_555 1_555
N1_4 C1_4 1_555 1_555
C1_4 H2_4 1_555 1_555
N2_4 B1_10 1_555 1_555
C2_4 N2_4 1_555 1_555
H3_4 C2_4 1_555 1_555
N3_4 C1_4 1_555 1_555
Cu1_3 N3_4 1_555 1_555
O1_3 Cu1_3 1_555 1_555
H4_3 C5_3 1_555 1_555
C6_3 C5_3 1_555 1_555
C7_3 C6_3 1_555 1_555
H5_3 C7_3 1_555 1_555
O29 C11_3 1_555 1_555
C11_3 C6_3 1_555 1_555
O4_3 C11_3 1_555 1_555
B2_10 H10_10 1_555 1_555
N4_4 Co1_14 1_555 1_555
N5_4 Co1_14 1_555 1_555
N6_4 Co1_14 1_555 1_555
N7_4 Co1_14 1_555 1_555
N8_4 Co1_14 1_555 1_555
C12_4 N4_4 1_555 1_555
C13_4 N5_4 1_555 1_555
C14_4 N6_4 1_555 1_555
C15_4 N7_4 1_555 1_555
C16_4 N8_4 1_555 1_555
H11_4 C12_4 1_555 1_555
H12_4 C13_4 1_555 1_555
H13_4 C14_4 1_555 1_555
H14_4 C15_4 1_555 1_555
H15_4 C16_4 1_555 1_555
N9_4 B1_10 1_555 1_555
N10_4 B1_10 1_555 1_555
N11_4 B2_10 1_555 1_555
N12_4 B2_10 1_555 1_555
N13_4 B2_10 1_555 1_555
C17_4 N9_4 1_555 1_555
C18_4 N10_4 1_555 1_555
C19_4 N11_4 1_555 1_555
C20_4 N12_4 1_555 1_555
C21_4 N13_4 1_555 1_555
H16_4 C17_4 1_555 1_555
H17_4 C18_4 1_555 1_555
H18_4 C19_4 1_555 1_555
H19_4 C20_4 1_555 1_555
H20_4 C21_4 1_555 1_555
N14_4 C12_4 1_555 1_555
N15_4 C13_4 1_555 1_555
N16_4 C14_4 1_555 1_555
N17_4 C15_4 1_555 1_555
N18_4 C16_4 1_555 1_555
Cu2_3 N14_4 1_555 1_555
Cu3_3 N15_4 1_555 1_555
Cu8 N16_4 1_555 1_555
Cu12 N17_4 1_555 1_555
Cu11 O4_3 1_555 1_555
Cu9_3 Cu2_3 1_555 1_555
O5_3 Cu12 1_555 1_555
O8_3 Cu2_3 1_555 1_555
O9_3 Cu11 1_555 1_555
O10_3 Cu3_3 1_555 1_555
O11_3 Cu8 1_555 1_555
C22_3 O5_3 1_555 1_555
C25_5 O8_3 1_555 1_555
C26_5 O9_3 1_555 1_555
C27_3 C22_3 1_555 1_555
C29_7 C24_7 1_555 1_555
C30_5 C25_5 1_555 1_555
C31_5 C26_5 1_555 1_555
C32_3 C27_3 1_555 1_555
C35_5 C30_5 1_555 1_555
C36_5 C31_5 1_555 1_555
H21_3 C32_3 1_555 1_555
H24_5 C35_5 1_555 1_555
H25_5 C36_5 1_555 1_555
C40_5 C35_5 1_555 1_555
C41_5 C36_5 1_555 1_555
C43_7 C38_7 1_555 1_555
C45_5 C40_5 1_555 1_555
C46_5 C41_5 1_555 1_555
H27_7 C43_7 1_555 1_555
H29_5 C45_5 1_555 1_555
H30_5 C46_5 1_555 1_555
C48_7 C43_7 1_555 1_555
C50_5 C45_5 1_555 1_555
C51_5 C46_5 1_555 1_555
C54_7 C29_7 1_555 1_555
C55_5 C30_5 1_555 1_555
C56_5 C31_5 1_555 1_555
H32_7 C53_7 1_555 1_555
H33_7 C54_7 1_555 1_555
H34_5 C55_5 1_555 1_555
H35_5 C56_5 1_555 1_555
C58_7 C48_7 1_555 1_555
C59_7 C49_7 1_555 1_555
C60_5 C50_5 1_555 1_555
C61_5 C51_5 1_555 1_555
H37_7 C58_7 1_555 1_555
H38_7 C59_7 1_555 1_555
H39_5 C60_5 1_555 1_555
H40_5 C61_5 1_555 1_555
H42_7 C58_7 1_555 1_555
H43_7 C59_7 1_555 1_555
H44_5 C60_5 1_555 1_555
H45_5 C61_5 1_555 1_555
H47_7 C58_7 1_555 1_555
H48_7 C59_7 1_555 1_555
H49_5 C60_5 1_555 1_555
H50_5 C61_5 1_555 1_555
O14_3 Cu1_3 1_555 1_555
O15_5 Cu9_3 1_555 1_555
O17_3 Cu2_3 1_555 1_555
O18_3 Cu3_3 1_555 1_555
O23_3 Cu1_3 1_555 1_555
O26_5 Cu9_3 1_555 1_555
O27_3 Cu2_3 1_555 1_555
O28_3 Cu3_3 1_555 1_555
C63_7 C38_7 1_555 1_555
C65_5 C40_5 1_555 1_555
C66_5 C41_5 1_555 1_555
O32_3 Cu1_3 1_555 1_555
O35_3 Cu8 1_555 1_555
O36_3 Cu2_3 1_555 1_555
O37_3 Cu3_3 1_555 1_555
O38_3 Cu12 1_555 1_555
N1_4 N2_4 1_555 1_555
C2_4 N3_4 1_555 1_555
N4_4 N9_4 1_555 1_555
N5_4 N10_4 1_555 1_555
N6_4 N11_4 1_555 1_555
N7_4 N12_4 1_555 1_555
N8_4 N13_4 1_555 1_555
C17_4 N14_4 1_555 1_555
C18_4 N15_4 1_555 1_555
C19_4 N16_4 1_555 1_555
C20_4 N17_4 1_555 1_555
C21_4 N18_4 1_555 1_555
N18_4 Cu11 1_555 1_555
C22_3 O20 1_555 1_555
C24_7 O14_3 1_555 1_555
C25_5 O15_5 1_555 1_555
C26_5 O19 1_555 1_555
C48_7 C53_7 1_555 1_555
C49_7 C54_7 1_555 1_555
C50_5 C55_5 1_555 1_555
C51_5 C56_5 1_555 1_555
O23_3 C63_7 1_555 1_555
O31 C65_5 1_555 1_555
O26_5 C66_5 1_555 1_555
C65_5 O35_3 1_555 1_555
C66_5 O36_3 1_555 1_555
C4_3 C3_3 1_555 1_555
C9_3 C4_3 1_555 1_555
H6_3 C9_3 1_555 1_555
C10_3 C8_3 1_555 1_555
H7_3 C10_3 1_555 1_555
H8_3 C10_3 1_555 1_555
H9_3 C10_3 1_555 1_555
O2_3 C3_3 1_555 1_555
Cu12_2 O34_7 1_555 1_555
O6_7 Cu8_2 1_555 1_555
O7_7 Cu7_3 1_555 1_555
C23_7 O6_7 1_555 1_555
C28_7 C23_7 1_555 1_555
C33_7 C28_7 1_555 1_555
H22_7 C33_7 1_555 1_555
H23_7 C34_7 1_555 1_555
C39_7 C34_7 1_555 1_555
C42_3 C37_3 1_555 1_555
C44_7 C39_7 1_555 1_555
H26_3 C42_3 1_555 1_555
H28_7 C44_7 1_555 1_555
C47_3 C42_3 1_555 1_555
H31_3 C52_3 1_555 1_555
C57_3 C47_3 1_555 1_555
H36_3 C57_3 1_555 1_555
H41_3 C57_3 1_555 1_555
H46_3 C57_3 1_555 1_555
O21_2 C23_7 1_555 1_555
O22_3 Cu7_3 1_555 1_555
C62_3 C37_3 1_555 1_555
C64_7 C39_7 1_555 1_555
O33_7 Cu7_3 1_555 1_555
O34_7 C64_7 1_555 1_555
C8_3 C9_3 1_555 1_555
O2_3 Cu7_3 1_555 1_555
C47_3 C52_3 1_555 1_555
O22_3 C62_3 1_555 1_555
O30_2 C64_7 1_555 1_555
C30_6 C25_6 1_555 1_555
C46_6 C41_6 1_555 1_555
H30_6 C46_6 1_555 1_555
C51_6 C46_6 1_555 1_555
C55_6 C30_6 1_555 1_555
H34_6 C55_6 1_555 1_555
H35_6 C56_6 1_555 1_555
C60_6 C50_6 1_555 1_555
C61_6 C51_6 1_555 1_555
H39_6 C60_6 1_555 1_555
H40_6 C61_6 1_555 1_555
H44_6 C60_6 1_555 1_555
H45_6 C61_6 1_555 1_555
H49_6 C60_6 1_555 1_555
H50_6 C61_6 1_555 1_555
O15_6 Cu10_3 1_555 1_555
O26_6 Cu10_3 1_555 1_555
C66_6 C41_6 1_555 1_555
C25_6 O15_6 1_555 1_555
C50_6 C55_6 1_555 1_555
C51_6 C56_6 1_555 1_555
O26_6 C66_6 1_555 1_555
Cu8_2 O34_8 1_555 1_555
O6_8 Cu11_2 1_555 1_555
O7_8 Cu9_3 1_555 1_555
C23_8 O6_8 1_555 1_555
C24_8 O7_8 1_555 1_555
C26_6 O11_3 1_555 1_555
C28_8 C23_8 1_555 1_555
C29_8 C24_8 1_555 1_555
C31_6 C26_6 1_555 1_555
C33_8 C28_8 1_555 1_555
C34_8 C29_8 1_555 1_555
C36_6 C31_6 1_555 1_555
H22_8 C33_8 1_555 1_555
H23_8 C34_8 1_555 1_555
H24_6 C35_6 1_555 1_555
H25_6 C36_6 1_555 1_555
C38_8 C33_8 1_555 1_555
C39_8 C34_8 1_555 1_555
C40_6 C35_6 1_555 1_555
C43_8 C38_8 1_555 1_555
C44_8 C39_8 1_555 1_555
C45_6 C40_6 1_555 1_555
H27_8 C43_8 1_555 1_555
H28_8 C44_8 1_555 1_555
H29_6 C45_6 1_555 1_555
C48_8 C43_8 1_555 1_555
C49_8 C44_8 1_555 1_555
C53_8 C28_8 1_555 1_555
C54_8 C29_8 1_555 1_555
H32_8 C53_8 1_555 1_555
H33_8 C54_8 1_555 1_555
C58_8 C48_8 1_555 1_555
C59_8 C49_8 1_555 1_555
H37_8 C58_8 1_555 1_555
H38_8 C59_8 1_555 1_555
H42_8 C58_8 1_555 1_555
H43_8 C59_8 1_555 1_555
H47_8 C58_8 1_555 1_555
H48_8 C59_8 1_555 1_555
O19_2 C23_8 1_555 1_555
C63_8 C38_8 1_555 1_555
C64_8 C39_8 1_555 1_555
C65_6 C40_6 1_555 1_555
O33_8 Cu9_3 1_555 1_555
O34_8 C64_8 1_555 1_555
C24_8 O17_3 1_555 1_555
C26_6 O21 1_555 1_555
C48_8 C53_8 1_555 1_555
C49_8 C54_8 1_555 1_555
O27_3 C63_8 1_555 1_555
O31_2 C64_8 1_555 1_555
O30 C65_6 1_555 1_555
C63_8 O33_8 1_555 1_555
C65_6 O38_3 1_555 1_555
Cu11_2 O34_9 1_555 1_555
O6_9 Cu12_2 1_555 1_555
O7_9 Cu10_3 1_555 1_555
C23_9 O6_9 1_555 1_555
C28_9 C23_9 1_555 1_555
C33_9 C28_9 1_555 1_555
H22_9 C33_9 1_555 1_555
H23_9 C34_9 1_555 1_555
C39_9 C34_9 1_555 1_555
C44_9 C39_9 1_555 1_555
H28_9 C44_9 1_555 1_555
O20_2 C23_9 1_555 1_555
C64_9 C39_9 1_555 1_555
O33_9 Cu10_3 1_555 1_555
O34_9 C64_9 1_555 1_555
O29_2 C64_9 1_555 1_555
C29_9 C24_9 1_555 1_555
C43_9 C38_9 1_555 1_555
H27_9 C43_9 1_555 1_555
C48_9 C43_9 1_555 1_555
C54_9 C29_9 1_555 1_555
H32_9 C53_9 1_555 1_555
H33_9 C54_9 1_555 1_555
C58_9 C48_9 1_555 1_555
C59_9 C49_9 1_555 1_555
H37_9 C58_9 1_555 1_555
H38_9 C59_9 1_555 1_555
H42_9 C58_9 1_555 1_555
H43_9 C59_9 1_555 1_555
H47_9 C58_9 1_555 1_555
H48_9 C59_9 1_555 1_555
C63_9 C38_9 1_555 1_555
C24_9 O18_3 1_555 1_555
C48_9 C53_9 1_555 1_555
C49_9 C54_9 1_555 1_555
O28_3 C63_9 1_555 1_555
Co1_15 N1_5 1_555 1_555
B1_11 H1_11 1_555 1_555
N1_5 C1_5 1_555 1_555
C1_5 H2_5 1_555 1_555
N2_5 B1_11 1_555 1_555
C2_5 N2_5 1_555 1_555
H3_5 C2_5 1_555 1_555
N3_5 C1_5 1_555 1_555
Cu10_3 N3_5 1_555 1_555
B2_11 H10_11 1_555 1_555
N4_5 Co1_15 1_555 1_555
N5_5 Co1_15 1_555 1_555
N6_5 Co1_15 1_555 1_555
N7_5 Co1_15 1_555 1_555
N8_5 Co1_15 1_555 1_555
C12_5 N4_5 1_555 1_555
C13_5 N5_5 1_555 1_555
C14_5 N6_5 1_555 1_555
C15_5 N7_5 1_555 1_555
C16_5 N8_5 1_555 1_555
H11_5 C12_5 1_555 1_555
H12_5 C13_5 1_555 1_555
H13_5 C14_5 1_555 1_555
H14_5 C15_5 1_555 1_555
H15_5 C16_5 1_555 1_555
N9_5 B1_11 1_555 1_555
N10_5 B1_11 1_555 1_555
N11_5 B2_11 1_555 1_555
N12_5 B2_11 1_555 1_555
N13_5 B2_11 1_555 1_555
C17_5 N9_5 1_555 1_555
C18_5 N10_5 1_555 1_555
C19_5 N11_5 1_555 1_555
C20_5 N12_5 1_555 1_555
C21_5 N13_5 1_555 1_555
H16_5 C17_5 1_555 1_555
H17_5 C18_5 1_555 1_555
H18_5 C19_5 1_555 1_555
H19_5 C20_5 1_555 1_555
H20_5 C21_5 1_555 1_555
N14_5 C12_5 1_555 1_555
N15_5 C13_5 1_555 1_555
N16_5 C14_5 1_555 1_555
N17_5 C15_5 1_555 1_555
N18_5 C16_5 1_555 1_555
Cu9_3 N14_5 1_555 1_555
Cu7_3 N15_5 1_555 1_555
Cu8_2 N16_5 1_555 1_555
Cu12_2 N17_5 1_555 1_555
N1_5 N2_5 1_555 1_555
C2_5 N3_5 1_555 1_555
N4_5 N9_5 1_555 1_555
N5_5 N10_5 1_555 1_555
N6_5 N11_5 1_555 1_555
N7_5 N12_5 1_555 1_555
N8_5 N13_5 1_555 1_555
C17_5 N14_5 1_555 1_555
C18_5 N15_5 1_555 1_555
C19_5 N16_5 1_555 1_555
C20_5 N17_5 1_555 1_555
C21_5 N18_5 1_555 1_555
N18_5 Cu11_2 1_555 1_555
Co1_16 N1_6 1_555 1_555
B1_12 H1_12 1_555 1_555
N1_6 C1_6 1_555 1_555
C1_6 H2_6 1_555 1_555
N2_6 B1_12 1_555 1_555
C2_6 N2_6 1_555 1_555
H3_6 C2_6 1_555 1_555
N3_6 C1_6 1_555 1_555
Cu10 N3_6 1_555 1_555
B2_12 H10_12 1_555 1_555
N4_6 Co1_16 1_555 1_555
N5_6 Co1_16 1_555 1_555
N6_6 Co1_16 1_555 1_555
N7_6 Co1_16 1_555 1_555
N8_6 Co1_16 1_555 1_555
C12_6 N4_6 1_555 1_555
C13_6 N5_6 1_555 1_555
C14_6 N6_6 1_555 1_555
C15_6 N7_6 1_555 1_555
C16_6 N8_6 1_555 1_555
H11_6 C12_6 1_555 1_555
H12_6 C13_6 1_555 1_555
H13_6 C14_6 1_555 1_555
H14_6 C15_6 1_555 1_555
H15_6 C16_6 1_555 1_555
N9_6 B1_12 1_555 1_555
N10_6 B1_12 1_555 1_555
N11_6 B2_12 1_555 1_555
N12_6 B2_12 1_555 1_555
N13_6 B2_12 1_555 1_555
C17_6 N9_6 1_555 1_555
C18_6 N10_6 1_555 1_555
C19_6 N11_6 1_555 1_555
C20_6 N12_6 1_555 1_555
C21_6 N13_6 1_555 1_555
H16_6 C17_6 1_555 1_555
H17_6 C18_6 1_555 1_555
H18_6 C19_6 1_555 1_555
H19_6 C20_6 1_555 1_555
H20_6 C21_6 1_555 1_555
N14_6 C12_6 1_555 1_555
N15_6 C13_6 1_555 1_555
N16_6 C14_6 1_555 1_555
N17_6 C15_6 1_555 1_555
N18_6 C16_6 1_555 1_555
Cu9 N14_6 1_555 1_555
Cu7 N15_6 1_555 1_555
Cu13 N16_6 1_555 1_555
Cu16 N17_6 1_555 1_555
N1_6 N2_6 1_555 1_555
C2_6 N3_6 1_555 1_555
N4_6 N9_6 1_555 1_555
N5_6 N10_6 1_555 1_555
N6_6 N11_6 1_555 1_555
N7_6 N12_6 1_555 1_555
N8_6 N13_6 1_555 1_555
C17_6 N14_6 1_555 1_555
C18_6 N15_6 1_555 1_555
C19_6 N16_6 1_555 1_555
C20_6 N17_6 1_555 1_555
C21_6 N18_6 1_555 1_555
N18_6 Cu13_2 1_555 1_555

#END
