
###############################################################################
#
# This file contains modified crystal structure data generated from the
# MOF subset of the Cambridge Structural Database (CSD) v543 
# hosted by the Cambridge Crystallographic Data Centre (CCDC).
#
# This work is licensed under the Creative Commons
# Attribution-NonCommercial-ShareAlike 4.0 International License.
# To view a copy of this license, visit
# http://creativecommons.org/licenses/by-nc-sa/4.0/
# or send a letter to
# Creative Commons, PO Box 1866, Mountain View, CA 94042, USA.
#
# CIF created using the CSD Python API on 29 September 2022
# The structure has been converted into the P1 space group
# The structure has a 3D framework
# The original CSD entry QABXOK is in the monoclinic crystal system
# The framework has been calculated to contain at least 10.0% void space
# The void calculation uses a probe of radius 1.32A, grid spacing 0.4
# H atom positions have been added when not included in the experimental data
#
###############################################################################

data_QABXOK
_chemical_formula_moiety         '(C88 H88 Cu14 N48 O200 Si6 W48)n'
_symmetry_cell_setting           triclinic
_symmetry_space_group_name_H-M   'P 1'
_symmetry_Int_Tables_number      1
_space_group_name_Hall           'P 1'
loop_
_symmetry_equiv_pos_site_id
_symmetry_equiv_pos_as_xyz
1 x,y,z
_cell_length_a                   23.0808(19)
_cell_length_b                   15.3920(13)
_cell_length_c                   21.8698(18)
_cell_angle_alpha                90
_cell_angle_beta                 119.1980(10)
_cell_angle_gamma                90
_cell_volume                     6782.26
loop_
_atom_site_label
_atom_site_type_symbol
_atom_site_fract_x
_atom_site_fract_y
_atom_site_fract_z
O3 O 0.6549(3) 0.0418(4) 0.2365(3)
O4 O 0.4162(3) 0.0460(3) 0.0588(3)
O7 O 0.4121(4) 0.3408(4) 0.0606(3)
O18 O 0.6019(3) 0.0256(3) 0.3253(2)
O25 O 0.3375(3) 0.1910(3) 0.0008(3)
O28 O 0.7410(4) 0.3665(5) 0.5307(5)
Cu3 Cu 0.64552(5) 0.09055(6) 0.53865(4)
Cu4 Cu 0.65659(5) 0.30149(6) 0.53569(5)
O30 O 0.3451(3) 0.0418(4) 0.2635(3)
O31 O 0.5838(3) 0.0460(3) 0.4412(3)
O33 O 0.5879(4) 0.3408(4) 0.4394(3)
O43 O 0.3981(3) 0.0256(3) 0.1747(2)
O50 O 0.6625(3) 0.1910(3) 0.4992(3)
N14 N 0.6366(3) 0.4106(4) 0.5706(3)
O52 O 0.5621(3) 0.1780(4) 0.5513(3)
O53 O 0.7083(3) 0.1215(3) 0.6340(3)
O55 O 0.7148(3) 0.2662(3) 0.6328(3)
H17 H 0.400699 0.317864 0.095849
H18 H 0.456382 0.318643 0.0709842
H19 H 0.732594 0.42999 0.524149
H20 H 0.782852 0.355752 0.575
H21 H 0.599301 0.317864 0.404151
H22 H 0.543618 0.318643 0.429016
O1 O 0.2590(4) 0.3665(5) 0.9693(5)
Cu1 Cu 0.35448(5) 0.09055(6) 0.96135(4)
Cu2 Cu 0.34341(5) 0.30149(6) 0.96431(5)
N13 N 0.3634(3) 0.4106(4) 0.9294(3)
O51 O 0.4379(3) 0.1780(4) 0.9487(3)
O54 O 0.2917(3) 0.1215(3) 0.8660(3)
O56 O 0.2852(3) 0.2662(3) 0.8672(3)
H15 H 0.267406 0.42999 0.975851
H16 H 0.217148 0.355752 0.925
W1 W 0.43292(2) 0.96860(2) 0.12238(2)
Si1 Si 0.5000 0.80740(17) 0.2500
O2 O 0.6828(2) 0.9031(3) 0.3248(3)
W2 W 0.44180(2) 0.64310(2) 0.11984(2)
W3 W 0.61187(2) 0.96504(2) 0.25339(2)
O5 O 0.5634(2) 0.8689(3) 0.2984(2)
W4 W 0.32971(2) 0.81288(2) 0.12069(2)
W5 W 0.54118(2) 0.79784(2) 0.11474(2)
O6 O 0.3459(3) 0.7343(3) 0.1957(3)
W6 W 0.39551(2) 0.64659(2) 0.25930(2)
O8 O 0.3774(3) 0.7331(3) 0.0972(3)
O9 O 0.5197(2) 0.9982(3) 0.1902(2)
O10 O 0.5966(2) 0.8787(3) 0.1870(3)
O11 O 0.4771(3) 0.7095(3) 0.0700(3)
O12 O 0.4724(3) 0.8792(3) 0.0949(2)
O13 O 0.5621(3) 0.8220(4) 0.0513(3)
O14 O 0.3975(3) 0.5664(4) 0.0599(3)
O15 O 0.5160(2) 0.7467(3) 0.1994(2)
O16 O 0.3502(2) 0.9049(3) 0.0753(2)
O17 O 0.4237(3) 0.6153(3) 0.1933(3)
O19 O 0.3362(3) 0.5705(4) 0.2436(3)
O20 O 0.3946(3) 0.7103(3) 0.3335(3)
O21 O 0.2502(3) 0.7930(4) 0.0612(3)
O22 O 0.5270(3) 0.5874(3) 0.1700(3)
O26 O 0.4366(2) 0.8689(3) 0.2016(2)
O27 O 0.4840(2) 0.7467(3) 0.3006(2)
W7 W 0.56708(2) 0.96860(2) 0.37762(2)
O29 O 0.3172(2) 0.9031(3) 0.1752(3)
N7 N 0.5775(3) 0.5236(4) 0.5734(4)
C12 C 0.5762(4) 0.4460(5) 0.5469(5)
H8 H 0.5372 0.4186 0.5148
W8 W 0.55820(2) 0.64310(2) 0.38016(2)
N8 N 0.5765(4) 0.8702(5) 0.5900(4)
C13 C 0.7103(4) 0.7718(5) 0.7248(4)
H9 H 0.7255 0.8243 0.7482
W9 W 0.38813(2) 0.96504(2) 0.24661(2)
N9 N 0.6415(3) 0.8498(4) 0.6166(3)
C14 C 0.7305(4) 0.6936(5) 0.7604(4)
W10 W 0.67029(2) 0.81288(2) 0.37931(2)
N10 N 0.6300(3) 0.9808(4) 0.5741(3)
C15 C 0.7728(4) 0.6942(5) 0.8378(4)
N11 N 0.6446(3) 0.5370(4) 0.6161(3)
W11 W 0.45882(2) 0.79784(2) 0.38526(2)
O32 O 0.6541(3) 0.7343(3) 0.3043(3)
C16 C 0.5725(4) 0.9484(6) 0.5651(5)
H10 H 0.5328 0.9791 0.5428
W12 W 0.60449(2) 0.64659(2) 0.24070(2)
O34 O 0.6226(3) 0.7331(3) 0.4028(3)
C17 C 0.6665(4) 0.6163(5) 0.6526(4)
C18 C 0.7094(4) 0.6151(4) 0.7244(4)
H11 H 0.7238 0.5626 0.7481
O35 O 0.4803(2) 0.9982(3) 0.3098(2)
C19 C 0.6665(4) 0.7695(5) 0.6530(4)
O36 O 0.4034(2) 0.8787(3) 0.3130(3)
C20 C 0.6441(4) 0.6937(5) 0.6164(4)
H12 H 0.6147 0.6941 0.5685
O37 O 0.5229(3) 0.7095(3) 0.4300(3)
C21 C 0.6780(4) 0.4684(5) 0.6137(4)
H13 H 0.7238 0.4622 0.6388
O38 O 0.5276(3) 0.8792(3) 0.4051(2)
C22 C 0.6730(4) 0.9167(5) 0.6076(4)
H14 H 0.7182 0.9185 0.6224
O39 O 0.4379(3) 0.8220(4) 0.4487(3)
O40 O 0.6025(3) 0.5664(4) 0.4401(3)
O41 O 0.6498(2) 0.9049(3) 0.4247(2)
O42 O 0.5763(3) 0.6153(3) 0.3067(3)
O44 O 0.6638(3) 0.5705(4) 0.2564(3)
O45 O 0.6054(3) 0.7103(3) 0.1665(3)
O46 O 0.7498(3) 0.7930(4) 0.4388(3)
O47 O 0.4730(3) 0.5874(3) 0.3300(3)
O48 O 0.7917(3) 0.6215(3) 0.8660(3)
O49 O 0.7852(3) 0.7662(3) 0.8672(3)
Cu5 Cu 0.85448(5) 0.59055(6) 0.96135(4)
Cu7 Cu 0.64552(5) 0.90945(6) 0.03865(4)
Cu8 Cu 0.35448(5) 0.90945(6) 0.46135(4)
Cu11 Cu 0.84341(5) 0.80149(6) 0.96431(5)
N1 N 0.4225(3) 0.5236(4) 0.9266(4)
C1 C 0.4238(4) 0.4460(5) 0.9531(5)
H1 H 0.4628 0.4186 0.9852
N2 N 0.4235(4) 0.8702(5) 0.9100(4)
C2 C 0.2897(4) 0.7718(5) 0.7752(4)
H2 H 0.2745 0.8243 0.7518
N3 N 0.3585(3) 0.8498(4) 0.8834(3)
C3 C 0.2695(4) 0.6936(5) 0.7396(4)
N4 N 0.3700(3) 0.9808(4) 0.9259(3)
C4 C 0.2272(4) 0.6942(5) 0.6622(4)
N5 N 0.3554(3) 0.5370(4) 0.8839(3)
C5 C 0.4275(4) 0.9484(6) 0.9349(5)
H3 H 0.4672 0.9791 0.9572
C6 C 0.3335(4) 0.6163(5) 0.8474(4)
C7 C 0.2906(4) 0.6151(4) 0.7756(4)
H4 H 0.2762 0.5626 0.7519
C8 C 0.3335(4) 0.7695(5) 0.8470(4)
C9 C 0.3559(4) 0.6937(5) 0.8836(4)
H5 H 0.3853 0.6941 0.9315
C10 C 0.3220(4) 0.4684(5) 0.8863(4)
H6 H 0.2762 0.4622 0.8612
C11 C 0.3270(4) 0.9167(5) 0.8924(4)
H7 H 0.2818 0.9185 0.8776
O23 O 0.2083(3) 0.6215(3) 0.6340(3)
O24 O 0.2148(3) 0.7662(3) 0.6328(3)
Cu6 Cu 0.14552(5) 0.59055(6) 0.53865(4)
Cu12 Cu 0.15659(5) 0.80149(6) 0.53569(5)
Si1_2 Si -0.0000 0.30740(17) 0.2500
O2_2 O 0.1828(2) 0.4031(3) 0.3248(3)
O3_2 O 0.1549(3) 0.5418(4) 0.2365(3)
W3_2 W 0.11187(2) 0.46504(2) 0.25339(2)
O5_2 O 0.0634(2) 0.3689(3) 0.2984(2)
W5_2 W 0.04118(2) 0.29784(2) 0.11474(2)
O9_2 O 0.0197(2) 0.4982(3) 0.1902(2)
O10_2 O 0.0966(2) 0.3787(3) 0.1870(3)
O13_2 O 0.0621(3) 0.3220(4) 0.0513(3)
O15_2 O 0.0160(2) 0.2467(3) 0.1994(2)
O18_2 O 0.1019(3) 0.5256(3) 0.3253(2)
O22_2 O 0.0270(3) 0.0874(3) 0.1700(3)
W7_2 W 0.06708(2) 0.46860(2) 0.37762(2)
O28_2 O 0.2410(4) 0.8665(5) 0.5307(5)
N7_2 N 0.0775(3) 0.0236(4) 0.5734(4)
W8_2 W 0.05820(2) 0.14310(2) 0.38016(2)
N8_2 N 0.0765(4) 0.3702(5) 0.5900(4)
C13_2 C 0.2103(4) 0.2718(5) 0.7248(4)
H9_2 H 0.2255 0.3243 0.7482
O31_2 O 0.0838(3) 0.5460(3) 0.4412(3)
N9_2 N 0.1415(3) 0.3498(4) 0.6166(3)
C14_2 C 0.2305(4) 0.1936(5) 0.7604(4)
W10_2 W 0.17029(2) 0.31288(2) 0.37931(2)
N10_2 N 0.1300(3) 0.4808(4) 0.5741(3)
C15_2 C 0.2728(4) 0.1942(5) 0.8378(4)
N11_2 N 0.1446(3) 0.0370(4) 0.6161(3)
O32_2 O 0.1541(3) 0.2343(3) 0.3043(3)
C16_2 C 0.0725(4) 0.4484(6) 0.5651(5)
H10_2 H 0.0328 0.4791 0.5428
O33_2 O 0.0879(4) 0.8408(4) 0.4394(3)
W12_2 W 0.10449(2) 0.14659(2) 0.24070(2)
O34_2 O 0.1226(3) 0.2331(3) 0.4028(3)
C17_2 C 0.1665(4) 0.1163(5) 0.6526(4)
C18_2 C 0.2094(4) 0.1151(4) 0.7244(4)
H11_2 H 0.2238 0.0626 0.7481
C19_2 C 0.1665(4) 0.2695(5) 0.6530(4)
C20_2 C 0.1441(4) 0.1937(5) 0.6164(4)
H12_2 H 0.1147 0.1941 0.5685
O37_2 O 0.0229(3) 0.2095(3) 0.4300(3)
O38_2 O 0.0276(3) 0.3792(3) 0.4051(2)
C22_2 C 0.1730(4) 0.4167(5) 0.6076(4)
H14_2 H 0.2182 0.4185 0.6224
O40_2 O 0.1025(3) 0.0664(4) 0.4401(3)
O41_2 O 0.1498(2) 0.4049(3) 0.4247(2)
O42_2 O 0.0763(3) 0.1153(3) 0.3067(3)
O44_2 O 0.1638(3) 0.0705(4) 0.2564(3)
O45_2 O 0.1054(3) 0.2103(3) 0.1665(3)
O46_2 O 0.2498(3) 0.2930(4) 0.4388(3)
O50_2 O 0.1625(3) 0.6910(3) 0.4992(3)
Cu7_2 Cu 0.14552(5) 0.40945(6) 0.03865(4)
N14_2 N 0.1366(3) 0.9106(4) 0.5706(3)
O52_2 O 0.0621(3) 0.6780(4) 0.5513(3)
H19_2 H 0.232594 0.92999 0.524149
H20_2 H 0.282852 0.855752 0.575
H21_2 H 0.0993005 0.817864 0.404151
H22_2 H 0.0436178 0.818643 0.429016
C12_2 C 0.0762(4) 0.9460(5) 0.5469(5)
H8_2 H 0.0372 0.9186 0.5148
C21_2 C 0.1780(4) 0.9684(5) 0.6137(4)
H13_2 H 0.2238 0.9622 0.6388
W1_2 W 0.93292(2) 0.46860(2) 0.12238(2)
Si1_3 Si 1.0000 0.30740(17) 0.2500
W2_2 W 0.94180(2) 0.14310(2) 0.11984(2)
O4_2 O 0.9162(3) 0.5460(3) 0.0588(3)
W4_2 W 0.82971(2) 0.31288(2) 0.12069(2)
O6_2 O 0.8459(3) 0.2343(3) 0.1957(3)
O7_2 O 0.9121(4) 0.8408(4) 0.0606(3)
W6_2 W 0.89551(2) 0.14659(2) 0.25930(2)
O8_2 O 0.8774(3) 0.2331(3) 0.0972(3)
O11_2 O 0.9771(3) 0.2095(3) 0.0700(3)
O12_2 O 0.9724(3) 0.3792(3) 0.0949(2)
O14_2 O 0.8975(3) 0.0664(4) 0.0599(3)
O16_2 O 0.8502(2) 0.4049(3) 0.0753(2)
O17_2 O 0.9237(3) 0.1153(3) 0.1933(3)
O19_2 O 0.8362(3) 0.0705(4) 0.2436(3)
O20_2 O 0.8946(3) 0.2103(3) 0.3335(3)
O21_2 O 0.7502(3) 0.2930(4) 0.0612(3)
O25_2 O 0.8375(3) 0.6910(3) 0.0008(3)
O26_2 O 0.9366(2) 0.3689(3) 0.2016(2)
O27_2 O 0.9840(2) 0.2467(3) 0.3006(2)
O29_2 O 0.8172(2) 0.4031(3) 0.1752(3)
O30_2 O 0.8451(3) 0.5418(4) 0.2635(3)
W9_2 W 0.88813(2) 0.46504(2) 0.24661(2)
W11_2 W 0.95882(2) 0.29784(2) 0.38526(2)
O35_2 O 0.9803(2) 0.4982(3) 0.3098(2)
O36_2 O 0.9034(2) 0.3787(3) 0.3130(3)
O39_2 O 0.9379(3) 0.3220(4) 0.4487(3)
O43_2 O 0.8981(3) 0.5256(3) 0.1747(2)
O47_2 O 0.9730(3) 0.0874(3) 0.3300(3)
Cu8_2 Cu 0.85448(5) 0.40945(6) 0.46135(4)
H17_2 H 0.900699 0.817864 0.095849
H18_2 H 0.956382 0.818643 0.0709842
O1_2 O 0.7590(4) 0.8665(5) 0.9693(5)
N1_2 N 0.9225(3) 0.0236(4) 0.9266(4)
N2_2 N 0.9235(4) 0.3702(5) 0.9100(4)
C2_2 C 0.7897(4) 0.2718(5) 0.7752(4)
H2_2 H 0.7745 0.3243 0.7518
N3_2 N 0.8585(3) 0.3498(4) 0.8834(3)
C3_2 C 0.7695(4) 0.1936(5) 0.7396(4)
N4_2 N 0.8700(3) 0.4808(4) 0.9259(3)
C4_2 C 0.7272(4) 0.1942(5) 0.6622(4)
N5_2 N 0.8554(3) 0.0370(4) 0.8839(3)
C5_2 C 0.9275(4) 0.4484(6) 0.9349(5)
H3_2 H 0.9672 0.4791 0.9572
C6_2 C 0.8335(4) 0.1163(5) 0.8474(4)
C7_2 C 0.7906(4) 0.1151(4) 0.7756(4)
H4_2 H 0.7762 0.0626 0.7519
C8_2 C 0.8335(4) 0.2695(5) 0.8470(4)
C9_2 C 0.8559(4) 0.1937(5) 0.8836(4)
H5_2 H 0.8853 0.1941 0.9315
C11_2 C 0.8270(4) 0.4167(5) 0.8924(4)
H7_2 H 0.7818 0.4185 0.8776
N13_2 N 0.8634(3) 0.9106(4) 0.9294(3)
O51_2 O 0.9379(3) 0.6780(4) 0.9487(3)
H15_2 H 0.767406 0.92999 0.975851
H16_2 H 0.717148 0.855752 0.925
C1_2 C 0.9238(4) 0.9460(5) 0.9531(5)
H1_2 H 0.9628 0.9186 0.9852
C10_2 C 0.8220(4) 0.9684(5) 0.8863(4)
H6_2 H 0.7762 0.9622 0.8612
N1_3 N 0.5775(3) 0.4764(4) 0.0734(4)
C1_3 C 0.5762(4) 0.5540(5) 0.0469(5)
H1_3 H 0.5372 0.5814 0.0148
N2_3 N 0.5765(4) 0.1298(5) 0.0900(4)
C2_3 C 0.7103(4) 0.2282(5) 0.2248(4)
H2_3 H 0.7255 0.1757 0.2482
N3_3 N 0.6415(3) 0.1502(4) 0.1166(3)
C3_3 C 0.7305(4) 0.3064(5) 0.2604(4)
N4_3 N 0.6300(3) 0.0192(4) 0.0741(3)
C4_3 C 0.7728(4) 0.3058(5) 0.3378(4)
N5_3 N 0.6446(3) 0.4630(4) 0.1161(3)
C5_3 C 0.5725(4) 0.0516(6) 0.0651(5)
H3_3 H 0.5328 0.0209 0.0428
N6 N 0.6366(3) 0.5894(4) 0.0706(3)
C6_3 C 0.6665(4) 0.3837(5) 0.1526(4)
C7_3 C 0.7094(4) 0.3849(4) 0.2244(4)
H4_3 H 0.7238 0.4374 0.2481
C8_3 C 0.6665(4) 0.2305(5) 0.1530(4)
C9_3 C 0.6441(4) 0.3063(5) 0.1164(4)
H5_3 H 0.6147 0.3059 0.0685
C10_3 C 0.6780(4) 0.5316(5) 0.1137(4)
H6_3 H 0.7238 0.5378 0.1388
C11_3 C 0.6730(4) 0.0833(5) 0.1076(4)
H7_3 H 0.7182 0.0815 0.1224
O23_2 O 0.7917(3) 0.3785(3) 0.3660(3)
O24_2 O 0.7852(3) 0.2338(3) 0.3672(3)
Cu9 Cu 0.65659(5) 0.69851(6) 0.03569(5)
Cu12_2 Cu 0.84341(5) 0.19851(6) 0.46431(5)
W1_3 W 0.56708(2) 0.03140(2) 0.87762(2)
Si1_4 Si 0.5000 0.19260(17) 0.7500
O2_3 O 0.3172(2) 0.0969(3) 0.6752(3)
W2_3 W 0.55820(2) 0.35690(2) 0.88016(2)
W3_3 W 0.38813(2) 0.03496(2) 0.74661(2)
O5_3 O 0.4366(2) 0.1311(3) 0.7016(2)
W4_3 W 0.67029(2) 0.18712(2) 0.87931(2)
W5_3 W 0.45882(2) 0.20216(2) 0.88526(2)
O6_3 O 0.6541(3) 0.2657(3) 0.8043(3)
W6_3 W 0.60449(2) 0.35341(2) 0.74070(2)
O8_3 O 0.6226(3) 0.2669(3) 0.9028(3)
O9_3 O 0.4803(2) 0.0018(3) 0.8098(2)
O10_3 O 0.4034(2) 0.1213(3) 0.8130(3)
O11_3 O 0.5229(3) 0.2905(3) 0.9300(3)
O12_3 O 0.5276(3) 0.1208(3) 0.9051(2)
O14_3 O 0.6025(3) 0.4336(4) 0.9401(3)
O15_3 O 0.4840(2) 0.2533(3) 0.8006(2)
O16_3 O 0.6498(2) 0.0951(3) 0.9247(2)
O17_3 O 0.5763(3) 0.3847(3) 0.8067(3)
O19_3 O 0.6638(3) 0.4295(4) 0.7564(3)
O20_3 O 0.6054(3) 0.2897(3) 0.6665(3)
O21_3 O 0.7498(3) 0.2070(4) 0.9388(3)
O22_3 O 0.4730(3) 0.4126(3) 0.8300(3)
O26_3 O 0.5634(2) 0.1311(3) 0.7984(2)
O27_3 O 0.5160(2) 0.2533(3) 0.6994(2)
W7_3 W 0.43292(2) 0.03140(2) 0.62238(2)
O29_3 O 0.6828(2) 0.0969(3) 0.8248(3)
N7_3 N 0.4225(3) 0.4764(4) 0.4266(4)
C12_3 C 0.4238(4) 0.5540(5) 0.4531(5)
H8_3 H 0.4628 0.5814 0.4852
W8_3 W 0.44180(2) 0.35690(2) 0.61984(2)
N8_3 N 0.4235(4) 0.1298(5) 0.4100(4)
C13_3 C 0.2897(4) 0.2282(5) 0.2752(4)
H9_3 H 0.2745 0.1757 0.2518
W9_3 W 0.61187(2) 0.03496(2) 0.75339(2)
N9_3 N 0.3585(3) 0.1502(4) 0.3834(3)
C14_3 C 0.2695(4) 0.3064(5) 0.2396(4)
W10_3 W 0.32971(2) 0.18712(2) 0.62069(2)
N10_3 N 0.3700(3) 0.0192(4) 0.4259(3)
C15_3 C 0.2272(4) 0.3058(5) 0.1622(4)
N11_3 N 0.3554(3) 0.4630(4) 0.3839(3)
W11_3 W 0.54118(2) 0.20216(2) 0.61474(2)
O32_3 O 0.3459(3) 0.2657(3) 0.6957(3)
C16_3 C 0.4275(4) 0.0516(6) 0.4349(5)
H10_3 H 0.4672 0.0209 0.4572
N12 N 0.3634(3) 0.5894(4) 0.4294(3)
W12_3 W 0.39551(2) 0.35341(2) 0.75930(2)
O34_3 O 0.3774(3) 0.2669(3) 0.5972(3)
C17_3 C 0.3335(4) 0.3837(5) 0.3474(4)
C18_3 C 0.2906(4) 0.3849(4) 0.2756(4)
H11_3 H 0.2762 0.4374 0.2519
O35_3 O 0.5197(2) 0.0018(3) 0.6902(2)
C19_3 C 0.3335(4) 0.2305(5) 0.3470(4)
O36_3 O 0.5966(2) 0.1213(3) 0.6870(3)
C20_3 C 0.3559(4) 0.3063(5) 0.3836(4)
H12_3 H 0.3853 0.3059 0.4315
O37_3 O 0.4771(3) 0.2905(3) 0.5700(3)
C21_3 C 0.3220(4) 0.5316(5) 0.3863(4)
H13_3 H 0.2762 0.5378 0.3612
O38_3 O 0.4724(3) 0.1208(3) 0.5949(2)
C22_3 C 0.3270(4) 0.0833(5) 0.3924(4)
H14_3 H 0.2818 0.0815 0.3776
O40_3 O 0.3975(3) 0.4336(4) 0.5599(3)
O41_3 O 0.3502(2) 0.0951(3) 0.5753(2)
O42_3 O 0.4237(3) 0.3847(3) 0.6933(3)
O44_3 O 0.3362(3) 0.4295(4) 0.7436(3)
O45_3 O 0.3946(3) 0.2897(3) 0.8335(3)
O46_3 O 0.2502(3) 0.2070(4) 0.5612(3)
O47_3 O 0.5270(3) 0.4126(3) 0.6700(3)
O48_2 O 0.2083(3) 0.3785(3) 0.1340(3)
O49_2 O 0.2148(3) 0.2338(3) 0.1328(3)
Cu10 Cu 0.34341(5) 0.69851(6) 0.46431(5)
Cu11_2 Cu 0.15659(5) 0.19851(6) 0.03569(5)
O1_3 O 0.7410(4) 0.6335(5) 0.0307(5)
O54_2 O 0.7083(3) 0.8785(3) 0.1340(3)
O56_2 O 0.7148(3) 0.7338(3) 0.1328(3)
H15_3 H 0.732594 0.57001 0.0241488
H16_3 H 0.782852 0.644248 0.0750005
O3_3 O 0.3451(3) 0.9582(4) 0.7635(3)
O4_3 O 0.5838(3) 0.9540(3) 0.9412(3)
O7_3 O 0.5879(4) 0.6592(4) 0.9394(3)
O18_3 O 0.3981(3) 0.9744(3) 0.6747(2)
O25_3 O 0.6625(3) 0.8090(3) 0.9992(3)
O28_3 O 0.2590(4) 0.6335(5) 0.4693(5)
O30_3 O 0.6549(3) 0.9582(4) 0.7365(3)
O31_3 O 0.4162(3) 0.9540(3) 0.5588(3)
O33_3 O 0.4121(4) 0.6592(4) 0.5606(3)
O43_3 O 0.6019(3) 0.9744(3) 0.8253(2)
O50_3 O 0.3375(3) 0.8090(3) 0.5008(3)
O53_2 O 0.2917(3) 0.8785(3) 0.3660(3)
O55_2 O 0.2852(3) 0.7338(3) 0.3672(3)
H17_3 H 0.599301 0.682136 0.904151
H18_3 H 0.543618 0.681357 0.929016
H19_3 H 0.267406 0.57001 0.475851
H20_3 H 0.217148 0.644248 0.425
H21_3 H 0.400699 0.682136 0.595849
H22_3 H 0.456382 0.681357 0.570984
C1_4 C 0.0762(4) 0.0540(5) 0.0469(5)
H1_4 H 0.0372 0.0814 0.0148
N6_2 N 0.1366(3) 0.0894(4) 0.0706(3)
C10_4 C 0.1780(4) 0.0316(5) 0.1137(4)
H6_4 H 0.2238 0.0378 0.1388
O1_4 O 0.2410(4) 0.1335(5) 0.0307(5)
N1_4 N 0.0775(3) 0.9764(4) 0.0734(4)
N2_4 N 0.0765(4) 0.6298(5) 0.0900(4)
C2_4 C 0.2103(4) 0.7282(5) 0.2248(4)
H2_4 H 0.2255 0.6757 0.2482
N3_4 N 0.1415(3) 0.6502(4) 0.1166(3)
C3_4 C 0.2305(4) 0.8064(5) 0.2604(4)
N4_4 N 0.1300(3) 0.5192(4) 0.0741(3)
C4_4 C 0.2728(4) 0.8058(5) 0.3378(4)
N5_4 N 0.1446(3) 0.9630(4) 0.1161(3)
C5_4 C 0.0725(4) 0.5516(6) 0.0651(5)
H3_4 H 0.0328 0.5209 0.0428
C6_4 C 0.1665(4) 0.8837(5) 0.1526(4)
C7_4 C 0.2094(4) 0.8849(4) 0.2244(4)
H4_4 H 0.2238 0.9374 0.2481
C8_4 C 0.1665(4) 0.7305(5) 0.1530(4)
C9_4 C 0.1441(4) 0.8063(5) 0.1164(4)
H5_4 H 0.1147 0.8059 0.0685
C11_4 C 0.1730(4) 0.5833(5) 0.1076(4)
H7_4 H 0.2182 0.5815 0.1224
H15_4 H 0.232594 0.0700098 0.0241488
H16_4 H 0.282852 0.144248 0.0750005
W1_4 W 0.06708(2) 0.53140(2) 0.87762(2)
Si1_5 Si 0.0000 0.69260(17) 0.7500
W2_4 W 0.05820(2) 0.85690(2) 0.88016(2)
O4_4 O 0.0838(3) 0.4540(3) 0.9412(3)
W4_4 W 0.17029(2) 0.68712(2) 0.87931(2)
O6_4 O 0.1541(3) 0.7657(3) 0.8043(3)
O7_4 O 0.0879(4) 0.1592(4) 0.9394(3)
W6_4 W 0.10449(2) 0.85341(2) 0.74070(2)
O8_4 O 0.1226(3) 0.7669(3) 0.9028(3)
O11_4 O 0.0229(3) 0.7905(3) 0.9300(3)
O12_4 O 0.0276(3) 0.6208(3) 0.9051(2)
O14_4 O 0.1025(3) 0.9336(4) 0.9401(3)
O16_4 O 0.1498(2) 0.5951(3) 0.9247(2)
O17_4 O 0.0763(3) 0.8847(3) 0.8067(3)
O19_4 O 0.1638(3) 0.9295(4) 0.7564(3)
O20_4 O 0.1054(3) 0.7897(3) 0.6665(3)
O21_4 O 0.2498(3) 0.7070(4) 0.9388(3)
O25_4 O 0.1625(3) 0.3090(3) 0.9992(3)
O26_4 O 0.0634(2) 0.6311(3) 0.7984(2)
O27_4 O 0.0160(2) 0.7533(3) 0.6994(2)
O29_4 O 0.1828(2) 0.5969(3) 0.8248(3)
O30_4 O 0.1549(3) 0.4582(4) 0.7365(3)
W9_4 W 0.11187(2) 0.53496(2) 0.75339(2)
W11_4 W 0.04118(2) 0.70216(2) 0.61474(2)
O35_4 O 0.0197(2) 0.5018(3) 0.6902(2)
O36_4 O 0.0966(2) 0.6213(3) 0.6870(3)
O43_4 O 0.1019(3) 0.4744(3) 0.8253(2)
O47_4 O 0.0270(3) 0.9126(3) 0.6700(3)
H17_4 H 0.0993005 0.182136 0.904151
H18_4 H 0.0436178 0.181357 0.929016
C12_4 C 0.9238(4) 0.0540(5) 0.4531(5)
H8_4 H 0.9628 0.0814 0.4852
N12_2 N 0.8634(3) 0.0894(4) 0.4294(3)
C21_4 C 0.8220(4) 0.0316(5) 0.3863(4)
H13_4 H 0.7762 0.0378 0.3612
Si1_6 Si 1.0000 0.69260(17) 0.7500
O2_4 O 0.8172(2) 0.5969(3) 0.6752(3)
O3_4 O 0.8451(3) 0.4582(4) 0.7635(3)
W3_4 W 0.88813(2) 0.53496(2) 0.74661(2)
O5_4 O 0.9366(2) 0.6311(3) 0.7016(2)
W5_4 W 0.95882(2) 0.70216(2) 0.88526(2)
O9_4 O 0.9803(2) 0.5018(3) 0.8098(2)
O10_4 O 0.9034(2) 0.6213(3) 0.8130(3)
O15_4 O 0.9840(2) 0.7533(3) 0.8006(2)
O18_4 O 0.8981(3) 0.4744(3) 0.6747(2)
O22_4 O 0.9730(3) 0.9126(3) 0.8300(3)
W7_4 W 0.93292(2) 0.53140(2) 0.62238(2)
O28_4 O 0.7590(4) 0.1335(5) 0.4693(5)
N7_4 N 0.9225(3) 0.9764(4) 0.4266(4)
W8_4 W 0.94180(2) 0.85690(2) 0.61984(2)
N8_4 N 0.9235(4) 0.6298(5) 0.4100(4)
C13_4 C 0.7897(4) 0.7282(5) 0.2752(4)
H9_4 H 0.7745 0.6757 0.2518
O31_4 O 0.9162(3) 0.4540(3) 0.5588(3)
N9_4 N 0.8585(3) 0.6502(4) 0.3834(3)
C14_4 C 0.7695(4) 0.8064(5) 0.2396(4)
W10_4 W 0.82971(2) 0.68712(2) 0.62069(2)
N10_4 N 0.8700(3) 0.5192(4) 0.4259(3)
C15_4 C 0.7272(4) 0.8058(5) 0.1622(4)
N11_4 N 0.8554(3) 0.9630(4) 0.3839(3)
O32_4 O 0.8459(3) 0.7657(3) 0.6957(3)
C16_4 C 0.9275(4) 0.5516(6) 0.4349(5)
H10_4 H 0.9672 0.5209 0.4572
O33_4 O 0.9121(4) 0.1592(4) 0.5606(3)
W12_4 W 0.89551(2) 0.85341(2) 0.75930(2)
O34_4 O 0.8774(3) 0.7669(3) 0.5972(3)
C17_4 C 0.8335(4) 0.8837(5) 0.3474(4)
C18_4 C 0.7906(4) 0.8849(4) 0.2756(4)
H11_4 H 0.7762 0.9374 0.2519
C19_4 C 0.8335(4) 0.7305(5) 0.3470(4)
C20_4 C 0.8559(4) 0.8063(5) 0.3836(4)
H12_4 H 0.8853 0.8059 0.4315
O37_4 O 0.9771(3) 0.7905(3) 0.5700(3)
O38_4 O 0.9724(3) 0.6208(3) 0.5949(2)
C22_4 C 0.8270(4) 0.5833(5) 0.3924(4)
H14_4 H 0.7818 0.5815 0.3776
O40_4 O 0.8975(3) 0.9336(4) 0.5599(3)
O41_4 O 0.8502(2) 0.5951(3) 0.5753(2)
O42_4 O 0.9237(3) 0.8847(3) 0.6933(3)
O44_4 O 0.8362(3) 0.9295(4) 0.7436(3)
O45_4 O 0.8946(3) 0.7897(3) 0.8335(3)
O46_4 O 0.7502(3) 0.7070(4) 0.5612(3)
O50_4 O 0.8375(3) 0.3090(3) 0.5008(3)
H19_4 H 0.767406 0.0700098 0.475851
H20_4 H 0.717148 0.144248 0.425
H21_4 H 0.900699 0.182136 0.595849
H22_4 H 0.956382 0.181357 0.570984
loop_
_geom_bond_atom_site_label_1
_geom_bond_atom_site_label_2
_geom_bond_site_symmetry_1
_geom_bond_site_symmetry_2
O28 Cu4 1_555 1_555
Cu3 O31 1_555 1_555
Cu4 O33 1_555 1_555
O50 Cu3 1_555 1_555
N14 Cu4 1_555 1_555
O52 Cu3 1_555 1_555
O53 Cu3 1_555 1_555
O55 Cu4 1_555 1_555
Cu4 O50 1_555 1_555
O7 H17 1_555 1_555
O7 H18 1_555 1_555
O28 H19 1_555 1_555
O28 H20 1_555 1_555
O33 H21 1_555 1_555
O33 H22 1_555 1_555
O1 Cu2 1_555 1_555
N13 Cu2 1_555 1_555
O51 Cu1 1_555 1_555
O54 Cu1 1_555 1_555
O56 Cu2 1_555 1_555
O1 H15 1_555 1_555
O1 H16 1_555 1_555
Si1 O5 1_555 1_555
O2 W3 1_555 1_555
W2 O8 1_555 1_555
W3 O5 1_555 1_555
O5 W7 1_555 1_555
W4 O6 1_555 1_555
W5 O10 1_555 1_555
O6 W6 1_555 1_555
W6 O17 1_555 1_555
O8 W4 1_555 1_555
O9 W1 1_555 1_555
O10 W3 1_555 1_555
O11 W2 1_555 1_555
O12 W1 1_555 1_555
O13 W5 1_555 1_555
O14 W2 1_555 1_555
O15 Si1 1_555 1_555
O16 W1 1_555 1_555
O17 W2 1_555 1_555
O19 W6 1_555 1_555
O20 W6 1_555 1_555
O21 W4 1_555 1_555
O22 W2 1_555 1_555
O26 W1 1_555 1_555
O27 Si1 1_555 1_555
O29 W4 1_555 1_555
N7 C12 1_555 1_555
C12 H8 1_555 1_555
W8 O27 1_555 1_555
N8 N9 1_555 1_555
C13 H9 1_555 1_555
W9 O26 1_555 1_555
N9 C19 1_555 1_555
C14 C13 1_555 1_555
W10 O2 1_555 1_555
C15 C14 1_555 1_555
N11 N7 1_555 1_555
W11 O20 1_555 1_555
O32 W10 1_555 1_555
C16 N8 1_555 1_555
H10 C16 1_555 1_555
N14 C12 1_555 1_555
W12 O15 1_555 1_555
O34 W8 1_555 1_555
C17 N11 1_555 1_555
C18 C14 1_555 1_555
H11 C18 1_555 1_555
O35 W7 1_555 1_555
C19 C13 1_555 1_555
O36 W9 1_555 1_555
C20 C17 1_555 1_555
H12 C20 1_555 1_555
O37 W8 1_555 1_555
C21 N11 1_555 1_555
H13 C21 1_555 1_555
O38 W7 1_555 1_555
C22 N9 1_555 1_555
H14 C22 1_555 1_555
O39 W11 1_555 1_555
O40 W8 1_555 1_555
O41 W7 1_555 1_555
O42 W8 1_555 1_555
O44 W12 1_555 1_555
O45 W5 1_555 1_555
O46 W10 1_555 1_555
O47 W6 1_555 1_555
O48 C15 1_555 1_555
O49 C15 1_555 1_555
Cu5 O48 1_555 1_555
Cu7 O13 1_555 1_555
Cu8 O39 1_555 1_555
Cu11 O49 1_555 1_555
Si1 O26 1_555 1_555
W2 O15 1_555 1_555
W3 O9 1_555 1_555
O5 W10 1_555 1_555
W4 O16 1_555 1_555
W4 O26 1_555 1_555
W5 O11 1_555 1_555
W5 O12 1_555 1_555
W5 O15 1_555 1_555
W6 O27 1_555 1_555
O22 W12 1_555 1_555
O27 W11 1_555 1_555
O29 W9 1_555 1_555
W8 O47 1_555 1_555
W9 O35 1_555 1_555
W10 O34 1_555 1_555
W10 O41 1_555 1_555
N10 C16 1_555 1_555
N10 C22 1_555 1_555
W11 O36 1_555 1_555
W11 O37 1_555 1_555
W11 O38 1_555 1_555
O32 W12 1_555 1_555
N14 C21 1_555 1_555
W12 O42 1_555 1_555
W12 O45 1_555 1_555
C17 C18 1_555 1_555
C19 C20 1_555 1_555
N1 C1 1_555 1_555
C1 H1 1_555 1_555
N2 N3 1_555 1_555
C2 H2 1_555 1_555
N3 C8 1_555 1_555
C3 C2 1_555 1_555
C4 C3 1_555 1_555
N5 N1 1_555 1_555
C5 N2 1_555 1_555
H3 C5 1_555 1_555
N13 C1 1_555 1_555
C6 N5 1_555 1_555
C7 C3 1_555 1_555
H4 C7 1_555 1_555
C8 C2 1_555 1_555
C9 C6 1_555 1_555
H5 C9 1_555 1_555
C10 N5 1_555 1_555
H6 C10 1_555 1_555
C11 N3 1_555 1_555
H7 C11 1_555 1_555
O23 C4 1_555 1_555
O24 C4 1_555 1_555
Cu6 O23 1_555 1_555
Cu12 O24 1_555 1_555
N4 C5 1_555 1_555
N4 C11 1_555 1_555
N13 C10 1_555 1_555
C6 C7 1_555 1_555
C8 C9 1_555 1_555
Si1_2 O5_2 1_555 1_555
O2_2 W3_2 1_555 1_555
O3_2 W3_2 1_555 1_555
W3_2 O5_2 1_555 1_555
O5_2 W7_2 1_555 1_555
W5_2 O10_2 1_555 1_555
O10_2 W3_2 1_555 1_555
O13_2 W5_2 1_555 1_555
O15_2 Si1_2 1_555 1_555
O18_2 W3_2 1_555 1_555
W7_2 O18_2 1_555 1_555
O28_2 Cu12 1_555 1_555
Cu6 O31_2 1_555 1_555
Cu12 O33_2 1_555 1_555
N8_2 N9_2 1_555 1_555
C13_2 H9_2 1_555 1_555
O31_2 W7_2 1_555 1_555
N9_2 C19_2 1_555 1_555
C14_2 C13_2 1_555 1_555
W10_2 O2_2 1_555 1_555
N10_2 Cu6 1_555 1_555
C15_2 C14_2 1_555 1_555
N11_2 N7_2 1_555 1_555
O32_2 W10_2 1_555 1_555
C16_2 N8_2 1_555 1_555
H10_2 C16_2 1_555 1_555
W12_2 O15_2 1_555 1_555
O34_2 W8_2 1_555 1_555
C17_2 N11_2 1_555 1_555
C18_2 C14_2 1_555 1_555
H11_2 C18_2 1_555 1_555
C19_2 C13_2 1_555 1_555
C20_2 C17_2 1_555 1_555
H12_2 C20_2 1_555 1_555
O37_2 W8_2 1_555 1_555
O38_2 W7_2 1_555 1_555
C22_2 N9_2 1_555 1_555
H14_2 C22_2 1_555 1_555
O40_2 W8_2 1_555 1_555
O41_2 W7_2 1_555 1_555
O42_2 W8_2 1_555 1_555
O44_2 W12_2 1_555 1_555
O45_2 W5_2 1_555 1_555
O46_2 W10_2 1_555 1_555
O54 C15_2 1_555 1_555
O56 C15_2 1_555 1_555
O50_2 Cu6 1_555 1_555
Cu7_2 O13_2 1_555 1_555
N14_2 Cu12 1_555 1_555
O52_2 Cu6 1_555 1_555
W3_2 O9_2 1_555 1_555
O5_2 W10_2 1_555 1_555
W5_2 O15_2 1_555 1_555
O22_2 W12_2 1_555 1_555
Cu12 O50_2 1_555 1_555
W10_2 O34_2 1_555 1_555
W10_2 O41_2 1_555 1_555
N10_2 C16_2 1_555 1_555
N10_2 C22_2 1_555 1_555
O32_2 W12_2 1_555 1_555
W12_2 O42_2 1_555 1_555
W12_2 O45_2 1_555 1_555
C17_2 C18_2 1_555 1_555
C19_2 C20_2 1_555 1_555
O28_2 H19_2 1_555 1_555
O28_2 H20_2 1_555 1_555
O33_2 H21_2 1_555 1_555
O33_2 H22_2 1_555 1_555
C12_2 H8_2 1_555 1_555
N14_2 C12_2 1_555 1_555
H13_2 C21_2 1_555 1_555
N14_2 C21_2 1_555 1_555
W1_2 O4_2 1_555 1_555
W2_2 O8_2 1_555 1_555
W4_2 O6_2 1_555 1_555
O6_2 W6_2 1_555 1_555
W6_2 O17_2 1_555 1_555
O8_2 W4_2 1_555 1_555
O11_2 W2_2 1_555 1_555
O12_2 W1_2 1_555 1_555
O14_2 W2_2 1_555 1_555
O16_2 W1_2 1_555 1_555
O17_2 W2_2 1_555 1_555
O19_2 W6_2 1_555 1_555
O20_2 W6_2 1_555 1_555
O21_2 W4_2 1_555 1_555
O26_2 W1_2 1_555 1_555
O27_2 Si1_3 1_555 1_555
O29_2 W4_2 1_555 1_555
O30_2 W9_2 1_555 1_555
W9_2 O26_2 1_555 1_555
W11_2 O20_2 1_555 1_555
O36_2 W9_2 1_555 1_555
O39_2 W11_2 1_555 1_555
O43_2 W1_2 1_555 1_555
O47_2 W6_2 1_555 1_555
Cu8_2 O39_2 1_555 1_555
Si1_3 O26_2 1_555 1_555
W4_2 O16_2 1_555 1_555
W4_2 O26_2 1_555 1_555
W6_2 O27_2 1_555 1_555
O27_2 W11_2 1_555 1_555
O29_2 W9_2 1_555 1_555
W9_2 O35_2 1_555 1_555
W9_2 O43_2 1_555 1_555
W11_2 O36_2 1_555 1_555
O7_2 H17_2 1_555 1_555
O7_2 H18_2 1_555 1_555
O1_2 Cu11 1_555 1_555
N2_2 N3_2 1_555 1_555
C2_2 H2_2 1_555 1_555
N3_2 C8_2 1_555 1_555
C3_2 C2_2 1_555 1_555
N4_2 Cu5 1_555 1_555
C4_2 C3_2 1_555 1_555
N5_2 N1_2 1_555 1_555
C5_2 N2_2 1_555 1_555
H3_2 C5_2 1_555 1_555
C6_2 N5_2 1_555 1_555
C7_2 C3_2 1_555 1_555
H4_2 C7_2 1_555 1_555
C8_2 C2_2 1_555 1_555
C9_2 C6_2 1_555 1_555
H5_2 C9_2 1_555 1_555
C11_2 N3_2 1_555 1_555
H7_2 C11_2 1_555 1_555
O53 C4_2 1_555 1_555
O55 C4_2 1_555 1_555
N13_2 Cu11 1_555 1_555
O51_2 Cu5 1_555 1_555
N4_2 C5_2 1_555 1_555
N4_2 C11_2 1_555 1_555
C6_2 C7_2 1_555 1_555
C8_2 C9_2 1_555 1_555
O1_2 H15_2 1_555 1_555
O1_2 H16_2 1_555 1_555
C1_2 H1_2 1_555 1_555
N13_2 C1_2 1_555 1_555
H6_2 C10_2 1_555 1_555
N13_2 C10_2 1_555 1_555
N1_3 C1_3 1_555 1_555
C1_3 H1_3 1_555 1_555
N2_3 N3_3 1_555 1_555
C2_3 H2_3 1_555 1_555
N3_3 C8_3 1_555 1_555
C3_3 C2_3 1_555 1_555
C4_3 C3_3 1_555 1_555
N5_3 N1_3 1_555 1_555
C5_3 N2_3 1_555 1_555
H3_3 C5_3 1_555 1_555
N6 C1_3 1_555 1_555
C6_3 N5_3 1_555 1_555
C7_3 C3_3 1_555 1_555
H4_3 C7_3 1_555 1_555
C8_3 C2_3 1_555 1_555
C9_3 C6_3 1_555 1_555
H5_3 C9_3 1_555 1_555
C10_3 N5_3 1_555 1_555
H6_3 C10_3 1_555 1_555
C11_3 N3_3 1_555 1_555
H7_3 C11_3 1_555 1_555
O23_2 C4_3 1_555 1_555
O24_2 C4_3 1_555 1_555
Cu8_2 O23_2 1_555 1_555
Cu9 N6 1_555 1_555
Cu12_2 O24_2 1_555 1_555
N4_3 C5_3 1_555 1_555
N4_3 C11_3 1_555 1_555
N6 C10_3 1_555 1_555
C6_3 C7_3 1_555 1_555
C8_3 C9_3 1_555 1_555
Si1_4 O5_3 1_555 1_555
O2_3 W3_3 1_555 1_555
W2_3 O8_3 1_555 1_555
W3_3 O5_3 1_555 1_555
O5_3 W7_3 1_555 1_555
W4_3 O6_3 1_555 1_555
W5_3 O10_3 1_555 1_555
O6_3 W6_3 1_555 1_555
W6_3 O17_3 1_555 1_555
O8_3 W4_3 1_555 1_555
O9_3 W1_3 1_555 1_555
O10_3 W3_3 1_555 1_555
O11_3 W2_3 1_555 1_555
O12_3 W1_3 1_555 1_555
O51 W5_3 1_555 1_555
O14_3 W2_3 1_555 1_555
O15_3 Si1_4 1_555 1_555
O16_3 W1_3 1_555 1_555
O17_3 W2_3 1_555 1_555
O19_3 W6_3 1_555 1_555
O20_3 W6_3 1_555 1_555
O21_3 W4_3 1_555 1_555
O22_3 W2_3 1_555 1_555
O26_3 W1_3 1_555 1_555
O27_3 Si1_4 1_555 1_555
O29_3 W4_3 1_555 1_555
N7_3 C12_3 1_555 1_555
C12_3 H8_3 1_555 1_555
W8_3 O27_3 1_555 1_555
N8_3 N9_3 1_555 1_555
C13_3 H9_3 1_555 1_555
W9_3 O26_3 1_555 1_555
N9_3 C19_3 1_555 1_555
C14_3 C13_3 1_555 1_555
W10_3 O2_3 1_555 1_555
C15_3 C14_3 1_555 1_555
N11_3 N7_3 1_555 1_555
W11_3 O20_3 1_555 1_555
O32_3 W10_3 1_555 1_555
C16_3 N8_3 1_555 1_555
H10_3 C16_3 1_555 1_555
N12 C12_3 1_555 1_555
W12_3 O15_3 1_555 1_555
O34_3 W8_3 1_555 1_555
C17_3 N11_3 1_555 1_555
C18_3 C14_3 1_555 1_555
H11_3 C18_3 1_555 1_555
O35_3 W7_3 1_555 1_555
C19_3 C13_3 1_555 1_555
O36_3 W9_3 1_555 1_555
C20_3 C17_3 1_555 1_555
H12_3 C20_3 1_555 1_555
O37_3 W8_3 1_555 1_555
C21_3 N11_3 1_555 1_555
H13_3 C21_3 1_555 1_555
O38_3 W7_3 1_555 1_555
C22_3 N9_3 1_555 1_555
H14_3 C22_3 1_555 1_555
O52 W11_3 1_555 1_555
O40_3 W8_3 1_555 1_555
O41_3 W7_3 1_555 1_555
O42_3 W8_3 1_555 1_555
O44_3 W12_3 1_555 1_555
O45_3 W5_3 1_555 1_555
O46_3 W10_3 1_555 1_555
O47_3 W6_3 1_555 1_555
O48_2 C15_3 1_555 1_555
O49_2 C15_3 1_555 1_555
Cu7_2 O48_2 1_555 1_555
Cu10 N12 1_555 1_555
Cu11_2 O49_2 1_555 1_555
Si1_4 O26_3 1_555 1_555
W2_3 O15_3 1_555 1_555
W3_3 O9_3 1_555 1_555
O5_3 W10_3 1_555 1_555
W4_3 O16_3 1_555 1_555
W4_3 O26_3 1_555 1_555
W5_3 O11_3 1_555 1_555
W5_3 O12_3 1_555 1_555
W5_3 O15_3 1_555 1_555
W6_3 O27_3 1_555 1_555
O22_3 W12_3 1_555 1_555
O27_3 W11_3 1_555 1_555
O29_3 W9_3 1_555 1_555
W8_3 O47_3 1_555 1_555
W9_3 O35_3 1_555 1_555
W10_3 O34_3 1_555 1_555
W10_3 O41_3 1_555 1_555
N10_3 C16_3 1_555 1_555
N10_3 C22_3 1_555 1_555
W11_3 O36_3 1_555 1_555
W11_3 O37_3 1_555 1_555
W11_3 O38_3 1_555 1_555
O32_3 W12_3 1_555 1_555
N12 C21_3 1_555 1_555
W12_3 O42_3 1_555 1_555
W12_3 O45_3 1_555 1_555
C17_3 C18_3 1_555 1_555
C19_3 C20_3 1_555 1_555
O1_3 Cu9 1_555 1_555
O54_2 Cu7 1_555 1_555
O56_2 Cu9 1_555 1_555
O1_3 H15_3 1_555 1_555
O1_3 H16_3 1_555 1_555
O28_3 Cu10 1_555 1_555
Cu8 O31_3 1_555 1_555
Cu10 O33_3 1_555 1_555
O50_3 Cu8 1_555 1_555
O53_2 Cu8 1_555 1_555
O55_2 Cu10 1_555 1_555
Cu10 O50_3 1_555 1_555
O7_3 H17_3 1_555 1_555
O7_3 H18_3 1_555 1_555
O28_3 H19_3 1_555 1_555
O28_3 H20_3 1_555 1_555
O33_3 H21_3 1_555 1_555
O33_3 H22_3 1_555 1_555
C1_4 H1_4 1_555 1_555
N6_2 C1_4 1_555 1_555
H6_4 C10_4 1_555 1_555
Cu11_2 N6_2 1_555 1_555
N6_2 C10_4 1_555 1_555
O1_4 Cu11_2 1_555 1_555
N2_4 N3_4 1_555 1_555
C2_4 H2_4 1_555 1_555
N3_4 C8_4 1_555 1_555
C3_4 C2_4 1_555 1_555
N4_4 Cu7_2 1_555 1_555
C4_4 C3_4 1_555 1_555
N5_4 N1_4 1_555 1_555
C5_4 N2_4 1_555 1_555
H3_4 C5_4 1_555 1_555
C6_4 N5_4 1_555 1_555
C7_4 C3_4 1_555 1_555
H4_4 C7_4 1_555 1_555
C8_4 C2_4 1_555 1_555
C9_4 C6_4 1_555 1_555
H5_4 C9_4 1_555 1_555
C11_4 N3_4 1_555 1_555
H7_4 C11_4 1_555 1_555
O53_2 C4_4 1_555 1_555
O55_2 C4_4 1_555 1_555
N4_4 C5_4 1_555 1_555
N4_4 C11_4 1_555 1_555
C6_4 C7_4 1_555 1_555
C8_4 C9_4 1_555 1_555
O1_4 H15_4 1_555 1_555
O1_4 H16_4 1_555 1_555
W1_4 O4_4 1_555 1_555
W2_4 O8_4 1_555 1_555
W4_4 O6_4 1_555 1_555
O6_4 W6_4 1_555 1_555
W6_4 O17_4 1_555 1_555
O8_4 W4_4 1_555 1_555
O11_4 W2_4 1_555 1_555
O12_4 W1_4 1_555 1_555
O14_4 W2_4 1_555 1_555
O16_4 W1_4 1_555 1_555
O17_4 W2_4 1_555 1_555
O19_4 W6_4 1_555 1_555
O20_4 W6_4 1_555 1_555
O21_4 W4_4 1_555 1_555
O26_4 W1_4 1_555 1_555
O27_4 Si1_5 1_555 1_555
O29_4 W4_4 1_555 1_555
O30_4 W9_4 1_555 1_555
W9_4 O26_4 1_555 1_555
W11_4 O20_4 1_555 1_555
O36_4 W9_4 1_555 1_555
O52_2 W11_4 1_555 1_555
O43_4 W1_4 1_555 1_555
O47_4 W6_4 1_555 1_555
Si1_5 O26_4 1_555 1_555
W4_4 O16_4 1_555 1_555
W4_4 O26_4 1_555 1_555
W6_4 O27_4 1_555 1_555
O27_4 W11_4 1_555 1_555
O29_4 W9_4 1_555 1_555
W9_4 O35_4 1_555 1_555
W9_4 O43_4 1_555 1_555
W11_4 O36_4 1_555 1_555
O7_4 H17_4 1_555 1_555
O7_4 H18_4 1_555 1_555
C12_4 H8_4 1_555 1_555
N12_2 C12_4 1_555 1_555
H13_4 C21_4 1_555 1_555
Cu12_2 N12_2 1_555 1_555
N12_2 C21_4 1_555 1_555
Si1_6 O5_4 1_555 1_555
O2_4 W3_4 1_555 1_555
O3_4 W3_4 1_555 1_555
W3_4 O5_4 1_555 1_555
O5_4 W7_4 1_555 1_555
W5_4 O10_4 1_555 1_555
O10_4 W3_4 1_555 1_555
O51_2 W5_4 1_555 1_555
O15_4 Si1_6 1_555 1_555
O18_4 W3_4 1_555 1_555
W7_4 O18_4 1_555 1_555
O28_4 Cu12_2 1_555 1_555
Cu8_2 O31_4 1_555 1_555
Cu12_2 O33_4 1_555 1_555
N8_4 N9_4 1_555 1_555
C13_4 H9_4 1_555 1_555
O31_4 W7_4 1_555 1_555
N9_4 C19_4 1_555 1_555
C14_4 C13_4 1_555 1_555
W10_4 O2_4 1_555 1_555
N10_4 Cu8_2 1_555 1_555
C15_4 C14_4 1_555 1_555
N11_4 N7_4 1_555 1_555
O32_4 W10_4 1_555 1_555
C16_4 N8_4 1_555 1_555
H10_4 C16_4 1_555 1_555
W12_4 O15_4 1_555 1_555
O34_4 W8_4 1_555 1_555
C17_4 N11_4 1_555 1_555
C18_4 C14_4 1_555 1_555
H11_4 C18_4 1_555 1_555
C19_4 C13_4 1_555 1_555
C20_4 C17_4 1_555 1_555
H12_4 C20_4 1_555 1_555
O37_4 W8_4 1_555 1_555
O38_4 W7_4 1_555 1_555
C22_4 N9_4 1_555 1_555
H14_4 C22_4 1_555 1_555
O40_4 W8_4 1_555 1_555
O41_4 W7_4 1_555 1_555
O42_4 W8_4 1_555 1_555
O44_4 W12_4 1_555 1_555
O45_4 W5_4 1_555 1_555
O46_4 W10_4 1_555 1_555
O54_2 C15_4 1_555 1_555
O56_2 C15_4 1_555 1_555
O50_4 Cu8_2 1_555 1_555
W3_4 O9_4 1_555 1_555
O5_4 W10_4 1_555 1_555
W5_4 O15_4 1_555 1_555
O22_4 W12_4 1_555 1_555
Cu12_2 O50_4 1_555 1_555
W10_4 O34_4 1_555 1_555
W10_4 O41_4 1_555 1_555
N10_4 C16_4 1_555 1_555
N10_4 C22_4 1_555 1_555
O32_4 W12_4 1_555 1_555
W12_4 O42_4 1_555 1_555
W12_4 O45_4 1_555 1_555
C17_4 C18_4 1_555 1_555
C19_4 C20_4 1_555 1_555
O28_4 H19_4 1_555 1_555
O28_4 H20_4 1_555 1_555
O33_4 H21_4 1_555 1_555
O33_4 H22_4 1_555 1_555

#END
