
###############################################################################
#
# This file contains modified crystal structure data generated from the
# MOF subset of the Cambridge Structural Database (CSD) v543 
# hosted by the Cambridge Crystallographic Data Centre (CCDC).
#
# This work is licensed under the Creative Commons
# Attribution-NonCommercial-ShareAlike 4.0 International License.
# To view a copy of this license, visit
# http://creativecommons.org/licenses/by-nc-sa/4.0/
# or send a letter to
# Creative Commons, PO Box 1866, Mountain View, CA 94042, USA.
#
# CIF created using the CSD Python API on 29 September 2022
# The structure has been converted into the P1 space group
# The structure has a 3D framework
# The original CSD entry QACGIO is in the monoclinic crystal system
# The framework has been calculated to contain at least 10.0% void space
# The void calculation uses a probe of radius 1.32A, grid spacing 0.4
# The framework is charged, counterions have been retained in the structure
#
###############################################################################

data_QACGIO
_chemical_formula_moiety         '(C328 H352 N24 O84 Zn22)n'
_symmetry_cell_setting           triclinic
_symmetry_space_group_name_H-M   'P 1'
_symmetry_Int_Tables_number      1
_space_group_name_Hall           'P 1'
loop_
_symmetry_equiv_pos_site_id
_symmetry_equiv_pos_as_xyz
1 x,y,z
_cell_length_a                   20.8995(2)
_cell_length_b                   21.0392(2)
_cell_length_c                   32.8802(3)
_cell_angle_alpha                90
_cell_angle_beta                 94.4980(10)
_cell_angle_gamma                90
_cell_volume                     14413.2
loop_
_atom_site_label
_atom_site_type_symbol
_atom_site_fract_x
_atom_site_fract_y
_atom_site_fract_z
O3 O 0.82206(12) 0.02668(12) 0.69322(7)
O4 O 0.8102(2) 0.11656(15) 0.65814(11)
C17 C 0.7273(3) 0.0169(2) 0.55711(13)
H22 H 0.708910 0.037932 0.534228
C18 C 0.7541(3) 0.0517(2) 0.59003(14)
H23 H 0.753012 0.095894 0.589400
C19 C 0.7828(2) 0.02021(19) 0.62401(12)
C22 C 0.8065(2) 0.05832(19) 0.66073(12)
H40 H 0.367737 0.004847 0.735635
H41 H 0.292541 0.002256 0.731918
Zn17 Zn 0.84738(2) 0.07953(2) 0.74067(2)
O14 O 0.17794(12) 0.02668(12) 0.80678(7)
O15 O 0.1898(2) 0.11656(15) 0.84186(11)
C58 C 0.2727(3) 0.0169(2) 0.94289(13)
H66 H 0.291090 0.037932 0.965772
C59 C 0.2459(3) 0.0517(2) 0.90997(14)
H67 H 0.246988 0.095894 0.910600
C60 C 0.2172(2) 0.02021(19) 0.87599(12)
C63 C 0.1935(2) 0.05832(19) 0.83927(12)
H84 H 0.632263 0.004847 0.764365
H85 H 0.707459 0.002256 0.768082
Zn16 Zn 0.15262(2) 0.07953(2) 0.75933(2)
Zn1 Zn 0.38400(2) 0.73283(2) 0.74377(2)
Zn2 Zn 0.500000 0.36264(3) 0.250000
Zn3 Zn 0.34738(2) 0.42047(2) 0.24067(2)
O1 O 0.44339(12) 0.77275(11) 0.70357(8)
O2 O 0.53331(11) 0.71473(10) 0.71222(7)
O5 O 0.82534(12) 0.80482(13) 0.28579(8)
O6 O 0.76869(12) 0.88852(12) 0.26249(8)
O7 O 0.48308(13) 0.43139(12) 0.29371(8)
O8 O 0.38610(12) 0.47654(11) 0.28260(8)
O9 O 0.40878(11) 0.35657(10) 0.22483(7)
O10 O 0.30721(14) 0.73303(14) 0.69758(9)
H1 H 0.312122 0.708350 0.672320
H2 H 0.267041 0.755477 0.687998
O11 O 0.36138(14) 0.82066(12) 0.76428(9)
N1 N 0.64761(16) 0.86874(15) 0.54086(8)
N2 N 0.56977(15) 0.71295(14) 0.40026(9)
H3 H 0.603177 0.681296 0.396432
N3 N 0.3330(3) 0.9226(2) 0.7549(2)
C1 C 0.59655(17) 0.75829(17) 0.43121(10)
H4 H 0.629612 0.782403 0.418323
C2 C 0.5487(2) 0.80735(19) 0.44505(11)
H5 H 0.527459 0.828238 0.421391
H6 H 0.516183 0.786112 0.459616
C3 C 0.5831(2) 0.85667(18) 0.47273(11)
H7 H 0.552377 0.887492 0.481273
H8 H 0.614490 0.879035 0.457838
C4 C 0.61674(18) 0.82455(16) 0.51019(10)
H9 H 0.583422 0.801824 0.523728
C5 C 0.66377(19) 0.77407(18) 0.49706(11)
H10 H 0.697891 0.794659 0.483626
H11 H 0.682978 0.752462 0.521065
C6 C 0.63064(19) 0.72515(17) 0.46808(11)
H12 H 0.662253 0.695673 0.459028
H13 H 0.599713 0.701130 0.482355
C7 C 0.5993(2) 0.90159(17) 0.56295(10)
H14 H 0.564479 0.915117 0.543683
H15 H 0.618440 0.939328 0.575766
C8 C 0.57258(19) 0.86044(16) 0.59522(10)
C9 C 0.5111(2) 0.8730(2) 0.60724(12)
H16 H 0.485829 0.903905 0.593654
C10 C 0.4874(2) 0.8396(2) 0.63930(12)
H17 H 0.446432 0.848330 0.647032
C11 C 0.52447(17) 0.79330(16) 0.65979(10)
C12 C 0.58454(19) 0.77891(18) 0.64722(11)
H18 H 0.608874 0.746660 0.660116
C13 C 0.6084(2) 0.81253(19) 0.61544(11)
H19 H 0.649080 0.802933 0.607491
C14 C 0.49829(16) 0.75782(15) 0.69442(10)
C15 C 0.6923(2) 0.9136(2) 0.52393(11)
H20 H 0.668777 0.942487 0.505256
H21 H 0.722890 0.890500 0.508823
C16 C 0.7278(2) 0.9511(2) 0.55802(11)
C20 C 0.78438(18) 0.95416(19) 0.62465(11)
H24 H 0.803591 0.933112 0.647299
C21 C 0.7575(2) 0.91938(19) 0.59170(12)
H25 H 0.759281 0.875216 0.592064
C23 C 0.51337(19) 0.67829(19) 0.41251(12)
H26 H 0.477467 0.707430 0.412966
H27 H 0.522476 0.661817 0.439911
C24 C 0.49492(18) 0.62379(18) 0.38389(11)
C25 C 0.54070(19) 0.5805(2) 0.37308(13)
H28 H 0.582978 0.584522 0.383884
C26 C 0.52405(18) 0.53124(18) 0.34636(12)
H29 H 0.555107 0.502453 0.339339
C27 C 0.46106(16) 0.52476(16) 0.33002(10)
C28 C 0.41517(18) 0.56830(18) 0.34084(11)
H30 H 0.372901 0.564525 0.329981
C29 C 0.43240(18) 0.61759(18) 0.36793(12)
H31 H 0.401497 0.646341 0.375225
C30 C 0.44276(17) 0.47311(15) 0.29951(10)
C31 C 0.55443(18) 0.74343(19) 0.36077(11)
H32 H 0.524973 0.778281 0.364270
H33 H 0.532735 0.712925 0.342357
C32 C 0.61258(17) 0.76862(17) 0.34157(10)
C33 C 0.61008(18) 0.82698(19) 0.32177(13)
H34 H 0.573179 0.851707 0.321671
C34 C 0.66222(19) 0.84860(19) 0.30215(13)
H35 H 0.659697 0.887291 0.288434
C35 C 0.71795(17) 0.81308(16) 0.30280(10)
C36 C 0.72086(18) 0.75477(17) 0.32290(11)
H36 H 0.757968 0.730309 0.323339
C37 C 0.66871(19) 0.73334(17) 0.34215(11)
H37 H 0.671206 0.694556 0.355752
C38 C 0.77455(17) 0.83652(16) 0.28208(10)
C39 C 0.3532(3) 0.8667(2) 0.74211(17)
H38 H 0.361571 0.862604 0.714862
C40 C 0.3310(6) 0.9786(4) 0.7285(4)
H39 H 0.331445 0.965397 0.700553
C41 C 0.3204(6) 0.9328(3) 0.7967(3)
H42 H 0.330414 0.894912 0.812207
H43 H 0.275842 0.943080 0.798199
H44 H 0.346367 0.967267 0.807760
Zn5 Zn 0.65262(2) 0.42047(2) 0.25933(2)
O16 O 0.17466(12) 0.80482(13) 0.21421(8)
O17 O 0.23131(12) 0.88852(12) 0.23751(8)
O18 O 0.51692(13) 0.43139(12) 0.20629(8)
O19 O 0.61390(12) 0.47654(11) 0.21740(8)
O20 O 0.59122(11) 0.35657(10) 0.27517(7)
N5 N 0.43023(15) 0.71295(14) 0.09974(9)
H47 H 0.396823 0.681296 0.103568
C42 C 0.40345(17) 0.75829(17) 0.06879(10)
H48 H 0.370388 0.782403 0.081677
C43 C 0.4513(2) 0.80735(19) 0.05495(11)
H49 H 0.472541 0.828238 0.078609
H50 H 0.483817 0.786112 0.040384
C44 C 0.4169(2) 0.85667(18) 0.02727(11)
H51 H 0.447623 0.887492 0.018727
H52 H 0.385510 0.879035 0.042162
C46 C 0.33623(19) 0.77407(18) 0.00294(11)
H54 H 0.302109 0.794659 0.016374
C47 C 0.36936(19) 0.72515(17) 0.03192(11)
H56 H 0.337747 0.695673 0.040972
H57 H 0.400287 0.701130 0.017645
C64 C 0.48663(19) 0.67829(19) 0.08749(12)
H70 H 0.522533 0.707430 0.087034
H71 H 0.477524 0.661817 0.060089
C65 C 0.50508(18) 0.62379(18) 0.11611(11)
C66 C 0.45930(19) 0.5805(2) 0.12692(13)
H72 H 0.417022 0.584522 0.116116
C67 C 0.47595(18) 0.53124(18) 0.15364(12)
H73 H 0.444893 0.502453 0.160661
C68 C 0.53894(16) 0.52476(16) 0.16998(10)
C69 C 0.58483(18) 0.56830(18) 0.15916(11)
H74 H 0.627099 0.564525 0.170019
C70 C 0.56760(18) 0.61759(18) 0.13207(12)
H75 H 0.598503 0.646341 0.124775
C71 C 0.55724(17) 0.47311(15) 0.20049(10)
C72 C 0.44557(18) 0.74343(19) 0.13923(11)
H76 H 0.475027 0.778281 0.135730
H77 H 0.467265 0.712925 0.157643
C73 C 0.38742(17) 0.76862(17) 0.15843(10)
C74 C 0.38992(18) 0.82698(19) 0.17823(13)
H78 H 0.426821 0.851707 0.178329
C75 C 0.33778(19) 0.84860(19) 0.19785(13)
H79 H 0.340303 0.887291 0.211566
C76 C 0.28205(17) 0.81308(16) 0.19720(10)
C77 C 0.27914(18) 0.75477(17) 0.17710(11)
H80 H 0.242032 0.730309 0.176661
C78 C 0.33129(19) 0.73334(17) 0.15785(11)
H81 H 0.328794 0.694556 0.144248
C79 C 0.22545(17) 0.83652(16) 0.21792(10)
Zn7 Zn 0.61600(2) 0.73283(2) 0.75623(2)
Zn8 Zn 0.61600(2) 0.26717(2) 0.25623(2)
Zn9 Zn 0.38400(2) 0.26717(2) 0.24377(2)
Zn10 Zn 0.11600(2) 0.76717(2) 0.25623(2)
Zn11 Zn 0.88400(2) 0.76717(2) 0.24377(2)
Zn13 Zn 0.500000 0.63736(3) 0.750000
Zn14 Zn 0.84738(2) 0.92047(2) 0.24067(2)
Zn15 Zn 0.15262(2) 0.92047(2) 0.25933(2)
O24 O 0.46669(11) 0.71473(10) 0.78778(7)
O25 O 0.46669(11) 0.28527(10) 0.28778(7)
O26 O 0.53331(11) 0.28527(10) 0.21222(7)
O27 O 0.67794(12) 0.47332(12) 0.30678(7)
O28 O 0.32206(12) 0.47332(12) 0.19322(7)
O30 O 0.32534(12) 0.69518(13) 0.78579(8)
O31 O 0.26869(12) 0.38852(12) 0.26249(8)
O32 O 0.73131(12) 0.38852(12) 0.23751(8)
O34 O 0.40878(11) 0.64343(10) 0.72483(7)
O12 O 0.55661(12) 0.77275(11) 0.79643(8)
O21 O 0.69279(14) 0.73303(14) 0.80242(9)
H45 H 0.687878 0.708350 0.827680
H46 H 0.732959 0.755477 0.812002
O22 O 0.63862(14) 0.82066(12) 0.73572(9)
N4 N 0.35239(16) 0.86874(15) 0.95914(8)
N6 N 0.6670(3) 0.9226(2) 0.7451(2)
C45 C 0.38326(18) 0.82455(16) 0.98981(10)
H53 H 0.416578 0.801824 0.976272
H55 H 0.317022 0.752462 0.978935
C48 C 0.4007(2) 0.90159(17) 0.93705(10)
H58 H 0.435521 0.915117 0.956317
H59 H 0.381560 0.939328 0.924234
C49 C 0.42742(19) 0.86044(16) 0.90478(10)
C50 C 0.4889(2) 0.8730(2) 0.89276(12)
H60 H 0.514171 0.903905 0.906346
C51 C 0.5126(2) 0.8396(2) 0.86070(12)
H61 H 0.553568 0.848330 0.852968
C52 C 0.47553(17) 0.79330(16) 0.84021(10)
C53 C 0.41546(19) 0.77891(18) 0.85278(11)
H62 H 0.391126 0.746660 0.839884
C54 C 0.3916(2) 0.81253(19) 0.88456(11)
H63 H 0.350920 0.802933 0.892509
C55 C 0.50171(16) 0.75782(15) 0.80558(10)
C56 C 0.3077(2) 0.9136(2) 0.97607(11)
H64 H 0.331223 0.942487 0.994744
H65 H 0.277110 0.890500 0.991177
C57 C 0.2722(2) 0.9511(2) 0.94198(11)
C61 C 0.21562(18) 0.95416(19) 0.87535(11)
H68 H 0.196409 0.933112 0.852701
C62 C 0.2425(2) 0.91938(19) 0.90830(12)
H69 H 0.240719 0.875216 0.907936
C80 C 0.6468(3) 0.8667(2) 0.75789(17)
H82 H 0.638429 0.862604 0.785138
C81 C 0.6690(6) 0.9786(4) 0.7715(4)
H83 H 0.668555 0.965397 0.799447
C82 C 0.6796(6) 0.9328(3) 0.7033(3)
H86 H 0.669586 0.894912 0.687793
H87 H 0.724158 0.943080 0.701801
H88 H 0.653633 0.967267 0.692240
O29 O 0.67466(12) 0.69518(13) 0.71421(8)
O33 O 0.59122(11) 0.64343(10) 0.77517(7)
O2_2 O 0.03331(11) 0.21473(10) 0.71222(7)
O3_2 O 0.32206(12) 0.52668(12) 0.69322(7)
O4_2 O 0.3102(2) 0.61656(15) 0.65814(11)
O5_2 O 0.32534(12) 0.30482(13) 0.28579(8)
N1_2 N 0.14761(16) 0.36874(15) 0.54086(8)
N2_2 N 0.06977(15) 0.21295(14) 0.40026(9)
H3_2 H 0.103177 0.181296 0.396432
C1_2 C 0.09655(17) 0.25829(17) 0.43121(10)
H4_2 H 0.129612 0.282403 0.418323
C2_2 C 0.0487(2) 0.30735(19) 0.44505(11)
H5_2 H 0.027459 0.328238 0.421391
H6_2 H 0.016183 0.286112 0.459616
C3_2 C 0.0831(2) 0.35667(18) 0.47273(11)
H7_2 H 0.052377 0.387492 0.481273
H8_2 H 0.114490 0.379035 0.457838
C4_2 C 0.11674(18) 0.32455(16) 0.51019(10)
H9_2 H 0.083422 0.301824 0.523728
C5_2 C 0.16377(19) 0.27407(18) 0.49706(11)
H10_2 H 0.197891 0.294659 0.483626
H11_2 H 0.182978 0.252462 0.521065
C6_2 C 0.13064(19) 0.22515(17) 0.46808(11)
H12_2 H 0.162253 0.195673 0.459028
H13_2 H 0.099713 0.201130 0.482355
C7_2 C 0.0993(2) 0.40159(17) 0.56295(10)
H14_2 H 0.064479 0.415117 0.543683
H15_2 H 0.118440 0.439328 0.575766
C8_2 C 0.07258(19) 0.36044(16) 0.59522(10)
C9_2 C 0.0111(2) 0.3730(2) 0.60724(12)
C11_2 C 0.02447(17) 0.29330(16) 0.65979(10)
C12_2 C 0.08454(19) 0.27891(18) 0.64722(11)
H18_2 H 0.108874 0.246660 0.660116
C13_2 C 0.1084(2) 0.31253(19) 0.61544(11)
H19_2 H 0.149080 0.302933 0.607491
C15_2 C 0.1923(2) 0.4136(2) 0.52393(11)
H20_2 H 0.168777 0.442487 0.505256
H21_2 H 0.222890 0.390500 0.508823
C16_2 C 0.2278(2) 0.4511(2) 0.55802(11)
C17_2 C 0.2273(3) 0.5169(2) 0.55711(13)
H22_2 H 0.208910 0.537932 0.534228
C18_2 C 0.2541(3) 0.5517(2) 0.59003(14)
H23_2 H 0.253012 0.595894 0.589400
C19_2 C 0.2828(2) 0.52021(19) 0.62401(12)
C20_2 C 0.28438(18) 0.45416(19) 0.62465(11)
H24_2 H 0.303591 0.433112 0.647299
C21_2 C 0.2575(2) 0.41938(19) 0.59170(12)
H25_2 H 0.259281 0.375216 0.592064
C22_2 C 0.3065(2) 0.55832(19) 0.66073(12)
C23_2 C 0.01337(19) 0.17829(19) 0.41251(12)
H27_2 H 0.022476 0.161817 0.439911
C25_2 C 0.04070(19) 0.0805(2) 0.37308(13)
H28_2 H 0.082978 0.084522 0.383884
C26_2 C 0.02405(18) 0.03124(18) 0.34636(12)
H29_2 H 0.055107 0.002453 0.339339
C31_2 C 0.05443(18) 0.24343(19) 0.36077(11)
H32_2 H 0.024973 0.278281 0.364270
H33_2 H 0.032735 0.212925 0.342357
C32_2 C 0.11258(17) 0.26862(17) 0.34157(10)
C33_2 C 0.11008(18) 0.32698(19) 0.32177(13)
H34_2 H 0.073179 0.351707 0.321671
C34_2 C 0.16222(19) 0.34860(19) 0.30215(13)
H35_2 H 0.159697 0.387291 0.288434
C35_2 C 0.21795(17) 0.31308(16) 0.30280(10)
C36_2 C 0.22086(18) 0.25477(17) 0.32290(11)
H36_2 H 0.257968 0.230309 0.323339
C37_2 C 0.16871(19) 0.23334(17) 0.34215(11)
H37_2 H 0.171206 0.194556 0.355752
C38_2 C 0.27455(17) 0.33652(16) 0.28208(10)
H70_2 H 0.022533 0.207430 0.087034
C65_2 C 0.00508(18) 0.12379(18) 0.11611(11)
C68_2 C 0.03894(16) 0.02476(16) 0.16998(10)
C69_2 C 0.08483(18) 0.06830(18) 0.15916(11)
H74_2 H 0.127099 0.064525 0.170019
C70_2 C 0.06760(18) 0.11759(18) 0.13207(12)
H75_2 H 0.098503 0.146341 0.124775
Zn7_2 Zn 0.11600(2) 0.23283(2) 0.75623(2)
Zn13_2 Zn -0.000000 0.13736(3) 0.750000
Zn17_2 Zn 0.34738(2) 0.57953(2) 0.74067(2)
O12_2 O 0.05661(12) 0.27275(11) 0.79643(8)
O21_2 O 0.19279(14) 0.23303(14) 0.80242(9)
H45_2 H 0.187878 0.208350 0.827680
H46_2 H 0.232959 0.255477 0.812002
O22_2 O 0.13862(14) 0.32066(12) 0.73572(9)
N6_2 N 0.1670(3) 0.4226(2) 0.7451(2)
H60_2 H 0.014171 0.403905 0.906346
C51_2 C 0.0126(2) 0.3396(2) 0.86070(12)
H61_2 H 0.053568 0.348330 0.852968
C55_2 C 0.00171(16) 0.25782(15) 0.80558(10)
C80_2 C 0.1468(3) 0.3667(2) 0.75789(17)
H82_2 H 0.138429 0.362604 0.785138
C81_2 C 0.1690(6) 0.4786(4) 0.7715(4)
H83_2 H 0.168555 0.465397 0.799447
H84_2 H 0.132263 0.504847 0.764365
H85_2 H 0.207459 0.502256 0.768082
C82_2 C 0.1796(6) 0.4328(3) 0.7033(3)
H86_2 H 0.169586 0.394912 0.687793
H87_2 H 0.224158 0.443080 0.701801
H88_2 H 0.153633 0.467267 0.692240
O29_2 O 0.17466(12) 0.19518(13) 0.71421(8)
O33_2 O 0.09122(11) 0.14343(10) 0.77517(7)
Zn2_2 Zn 0.000000 0.86264(3) 0.250000
O18_2 O 0.01692(13) 0.93139(12) 0.20629(8)
O19_2 O 0.11390(12) 0.97654(11) 0.21740(8)
O20_2 O 0.09122(11) 0.85657(10) 0.27517(7)
C71_2 C 0.05724(17) 0.97311(15) 0.20049(10)
O26_2 O 0.03331(11) 0.78527(10) 0.21222(7)
O27_2 O 0.17794(12) 0.97332(12) 0.30678(7)
Zn1_2 Zn 0.88400(2) 0.23283(2) 0.74377(2)
O1_2 O 0.94339(12) 0.27275(11) 0.70357(8)
O10_2 O 0.80721(14) 0.23303(14) 0.69758(9)
H1_2 H 0.812122 0.208350 0.672320
H2_2 H 0.767041 0.255477 0.687998
O11_2 O 0.86138(14) 0.32066(12) 0.76428(9)
N3_2 N 0.8330(3) 0.4226(2) 0.7549(2)
H16_2 H 0.985829 0.403905 0.593654
C10_2 C 0.9874(2) 0.3396(2) 0.63930(12)
H17_2 H 0.946432 0.348330 0.647032
C14_2 C 0.99829(16) 0.25782(15) 0.69442(10)
H26_2 H 0.977467 0.207430 0.412966
C24_2 C 0.99492(18) 0.12379(18) 0.38389(11)
C27_2 C 0.96106(16) 0.02476(16) 0.33002(10)
C28_2 C 0.91517(18) 0.06830(18) 0.34084(11)
H30_2 H 0.872901 0.064525 0.329981
C29_2 C 0.93240(18) 0.11759(18) 0.36793(12)
H31_2 H 0.901497 0.146341 0.375225
C39_2 C 0.8532(3) 0.3667(2) 0.74211(17)
H38_2 H 0.861571 0.362604 0.714862
C40_2 C 0.8310(6) 0.4786(4) 0.7285(4)
H39_2 H 0.831445 0.465397 0.700553
H40_2 H 0.867737 0.504847 0.735635
H41_2 H 0.792541 0.502256 0.731918
C41_2 C 0.8204(6) 0.4328(3) 0.7967(3)
H42_2 H 0.830414 0.394912 0.812207
H43_2 H 0.775842 0.443080 0.798199
H44_2 H 0.846367 0.467267 0.807760
O16_2 O 0.67466(12) 0.30482(13) 0.21421(8)
N5_2 N 0.93023(15) 0.21295(14) 0.09974(9)
H47_2 H 0.896823 0.181296 0.103568
C42_2 C 0.90345(17) 0.25829(17) 0.06879(10)
H48_2 H 0.870388 0.282403 0.081677
C43_2 C 0.9513(2) 0.30735(19) 0.05495(11)
H49_2 H 0.972541 0.328238 0.078609
H50_2 H 0.983817 0.286112 0.040384
C44_2 C 0.9169(2) 0.35667(18) 0.02727(11)
H51_2 H 0.947623 0.387492 0.018727
H52_2 H 0.885510 0.379035 0.042162
C46_2 C 0.83623(19) 0.27407(18) 0.00294(11)
H54_2 H 0.802109 0.294659 0.016374
C47_2 C 0.86936(19) 0.22515(17) 0.03192(11)
H56_2 H 0.837747 0.195673 0.040972
H57_2 H 0.900287 0.201130 0.017645
C64_2 C 0.98663(19) 0.17829(19) 0.08749(12)
H71_2 H 0.977524 0.161817 0.060089
C66_2 C 0.95930(19) 0.0805(2) 0.12692(13)
H72_2 H 0.917022 0.084522 0.116116
C67_2 C 0.97595(18) 0.03124(18) 0.15364(12)
H73_2 H 0.944893 0.002453 0.160661
C72_2 C 0.94557(18) 0.24343(19) 0.13923(11)
H76_2 H 0.975027 0.278281 0.135730
H77_2 H 0.967265 0.212925 0.157643
C73_2 C 0.88742(17) 0.26862(17) 0.15843(10)
C74_2 C 0.88992(18) 0.32698(19) 0.17823(13)
H78_2 H 0.926821 0.351707 0.178329
C75_2 C 0.83778(19) 0.34860(19) 0.19785(13)
H79_2 H 0.840303 0.387291 0.211566
C76_2 C 0.78205(17) 0.31308(16) 0.19720(10)
C77_2 C 0.77914(18) 0.25477(17) 0.17710(11)
H80_2 H 0.742032 0.230309 0.176661
C78_2 C 0.83129(19) 0.23334(17) 0.15785(11)
H81_2 H 0.828794 0.194556 0.144248
C79_2 C 0.72545(17) 0.33652(16) 0.21792(10)
Zn13_3 Zn 1.000000 0.13736(3) 0.750000
O24_2 O 0.96669(11) 0.21473(10) 0.78778(7)
O30_2 O 0.82534(12) 0.19518(13) 0.78579(8)
O34_2 O 0.90878(11) 0.14343(10) 0.72483(7)
O14_2 O 0.67794(12) 0.52668(12) 0.80678(7)
O15_2 O 0.6898(2) 0.61656(15) 0.84186(11)
N4_2 N 0.85239(16) 0.36874(15) 0.95914(8)
C45_2 C 0.88326(18) 0.32455(16) 0.98981(10)
H53_2 H 0.916578 0.301824 0.976272
H55_2 H 0.817022 0.252462 0.978935
C48_2 C 0.9007(2) 0.40159(17) 0.93705(10)
H58_2 H 0.935521 0.415117 0.956317
H59_2 H 0.881560 0.439328 0.924234
C49_2 C 0.92742(19) 0.36044(16) 0.90478(10)
C50_2 C 0.9889(2) 0.3730(2) 0.89276(12)
C52_2 C 0.97553(17) 0.29330(16) 0.84021(10)
C53_2 C 0.91546(19) 0.27891(18) 0.85278(11)
H62_2 H 0.891126 0.246660 0.839884
C54_2 C 0.8916(2) 0.31253(19) 0.88456(11)
H63_2 H 0.850920 0.302933 0.892509
C56_2 C 0.8077(2) 0.4136(2) 0.97607(11)
H64_2 H 0.831223 0.442487 0.994744
H65_2 H 0.777110 0.390500 0.991177
C57_2 C 0.7722(2) 0.4511(2) 0.94198(11)
C58_2 C 0.7727(3) 0.5169(2) 0.94289(13)
H66_2 H 0.791090 0.537932 0.965772
C59_2 C 0.7459(3) 0.5517(2) 0.90997(14)
H67_2 H 0.746988 0.595894 0.910600
C60_2 C 0.7172(2) 0.52021(19) 0.87599(12)
C61_2 C 0.71562(18) 0.45416(19) 0.87535(11)
H68_2 H 0.696409 0.433112 0.852701
C62_2 C 0.7425(2) 0.41938(19) 0.90830(12)
H69_2 H 0.740719 0.375216 0.907936
C63_2 C 0.6935(2) 0.55832(19) 0.83927(12)
Zn16_2 Zn 0.65262(2) 0.57953(2) 0.75933(2)
Zn2_3 Zn 1.000000 0.86264(3) 0.250000
O7_2 O 0.98308(13) 0.93139(12) 0.29371(8)
O8_2 O 0.88610(12) 0.97654(11) 0.28260(8)
O9_2 O 0.90878(11) 0.85657(10) 0.22483(7)
C30_2 C 0.94276(17) 0.97311(15) 0.29951(10)
O25_2 O 0.96669(11) 0.78527(10) 0.28778(7)
O28_2 O 0.82206(12) 0.97332(12) 0.19322(7)
O12_3 O 0.44339(12) 0.22725(11) 0.20357(8)
O21_3 O 0.30721(14) 0.26697(14) 0.19758(9)
H45_3 H 0.312122 0.291650 0.172320
H46_3 H 0.267041 0.244523 0.187998
O22_3 O 0.36138(14) 0.17934(12) 0.26428(9)
N4_3 N 0.64761(16) 0.13126(15) 0.04086(8)
N6_3 N 0.3330(3) 0.0774(2) 0.2549(2)
C45_3 C 0.61674(18) 0.17545(16) 0.01019(10)
H53_3 H 0.583422 0.198176 0.023728
H55_3 H 0.682978 0.247538 0.021065
C48_3 C 0.5993(2) 0.09841(17) 0.06295(10)
H58_3 H 0.564479 0.084883 0.043683
H59_3 H 0.618440 0.060672 0.075766
C49_3 C 0.57258(19) 0.13956(16) 0.09522(10)
C50_3 C 0.5111(2) 0.1270(2) 0.10724(12)
H60_3 H 0.485829 0.096095 0.093654
C51_3 C 0.4874(2) 0.1604(2) 0.13930(12)
H61_3 H 0.446432 0.151670 0.147032
C52_3 C 0.52447(17) 0.20670(16) 0.15979(10)
C53_3 C 0.58454(19) 0.22109(18) 0.14722(11)
H62_3 H 0.608874 0.253340 0.160116
C54_3 C 0.6084(2) 0.18747(19) 0.11544(11)
H63_3 H 0.649080 0.197067 0.107491
C55_3 C 0.49829(16) 0.24218(15) 0.19442(10)
C56_3 C 0.6923(2) 0.0864(2) 0.02393(11)
H64_3 H 0.668777 0.057513 0.005256
H65_3 H 0.722890 0.109500 0.008823
C57_3 C 0.7278(2) 0.0489(2) 0.05802(11)
C61_3 C 0.78438(18) 0.04584(19) 0.12465(11)
H68_3 H 0.803591 0.066888 0.147299
C62_3 C 0.7575(2) 0.08062(19) 0.09170(12)
H69_3 H 0.759281 0.124784 0.092064
C80_3 C 0.3532(3) 0.1333(2) 0.24211(17)
H82_3 H 0.361571 0.137396 0.214862
C81_3 C 0.3310(6) 0.0214(4) 0.2285(4)
H83_3 H 0.331445 0.034603 0.200553
C82_3 C 0.3204(6) 0.0672(3) 0.2967(3)
H86_3 H 0.330414 0.105088 0.312207
H87_3 H 0.275842 0.056920 0.298199
H88_3 H 0.346367 0.032733 0.307760
O1_3 O 0.55661(12) 0.22725(11) 0.29643(8)
O6_2 O 0.23131(12) 0.11148(12) 0.73751(8)
O7_3 O 0.51692(13) 0.56861(12) 0.70629(8)
O8_3 O 0.61390(12) 0.52346(11) 0.71740(8)
O10_3 O 0.69279(14) 0.26697(14) 0.30242(9)
H1_3 H 0.687878 0.291650 0.327680
H2_3 H 0.732959 0.244523 0.312002
O11_3 O 0.63862(14) 0.17934(12) 0.23572(9)
N1_3 N 0.35239(16) 0.13126(15) 0.45914(8)
N2_3 N 0.43023(15) 0.28705(14) 0.59974(9)
H3_3 H 0.396823 0.318704 0.603568
N3_3 N 0.6670(3) 0.0774(2) 0.2451(2)
C1_3 C 0.40345(17) 0.24171(17) 0.56879(10)
H4_3 H 0.370388 0.217597 0.581677
C2_3 C 0.4513(2) 0.19265(19) 0.55495(11)
H5_3 H 0.472541 0.171762 0.578609
H6_3 H 0.483817 0.213888 0.540384
C3_3 C 0.4169(2) 0.14333(18) 0.52727(11)
H7_3 H 0.447623 0.112508 0.518727
H8_3 H 0.385510 0.120965 0.542162
C4_3 C 0.38326(18) 0.17545(16) 0.48981(10)
H9_3 H 0.416578 0.198176 0.476272
C5_3 C 0.33623(19) 0.22593(18) 0.50294(11)
H10_3 H 0.302109 0.205341 0.516374
H11_3 H 0.317022 0.247538 0.478935
C6_3 C 0.36936(19) 0.27485(17) 0.53192(11)
H12_3 H 0.337747 0.304327 0.540972
H13_3 H 0.400287 0.298870 0.517645
C7_3 C 0.4007(2) 0.09841(17) 0.43705(10)
H14_3 H 0.435521 0.084883 0.456317
H15_3 H 0.381560 0.060672 0.424234
C8_3 C 0.42742(19) 0.13956(16) 0.40478(10)
C9_3 C 0.4889(2) 0.1270(2) 0.39276(12)
H16_3 H 0.514171 0.096095 0.406346
C10_3 C 0.5126(2) 0.1604(2) 0.36070(12)
H17_3 H 0.553568 0.151670 0.352968
C11_3 C 0.47553(17) 0.20670(16) 0.34021(10)
C12_3 C 0.41546(19) 0.22109(18) 0.35278(11)
H18_3 H 0.391126 0.253340 0.339884
C13_3 C 0.3916(2) 0.18747(19) 0.38456(11)
H19_3 H 0.350920 0.197067 0.392509
C14_3 C 0.50171(16) 0.24218(15) 0.30558(10)
C15_3 C 0.3077(2) 0.0864(2) 0.47607(11)
H20_3 H 0.331223 0.057513 0.494744
H21_3 H 0.277110 0.109500 0.491177
C16_3 C 0.2722(2) 0.0489(2) 0.44198(11)
C20_3 C 0.21562(18) 0.04584(19) 0.37535(11)
H24_3 H 0.196409 0.066888 0.352701
C21_3 C 0.2425(2) 0.08062(19) 0.40830(12)
H25_3 H 0.240719 0.124784 0.407936
C23_3 C 0.48663(19) 0.32171(19) 0.58749(12)
H26_3 H 0.522533 0.292570 0.587034
H27_3 H 0.477524 0.338183 0.560089
C24_3 C 0.50508(18) 0.37621(18) 0.61611(11)
C25_3 C 0.45930(19) 0.4195(2) 0.62692(13)
H28_3 H 0.417022 0.415478 0.616116
C26_3 C 0.47595(18) 0.46876(18) 0.65364(12)
H29_3 H 0.444893 0.497547 0.660661
C27_3 C 0.53894(16) 0.47524(16) 0.66998(10)
C28_3 C 0.58483(18) 0.43170(18) 0.65916(11)
H30_3 H 0.627099 0.435475 0.670019
C29_3 C 0.56760(18) 0.38241(18) 0.63207(12)
H31_3 H 0.598503 0.353659 0.624775
C30_3 C 0.55724(17) 0.52689(15) 0.70049(10)
C31_3 C 0.44557(18) 0.25657(19) 0.63923(11)
H32_3 H 0.475027 0.221719 0.635730
H33_3 H 0.467265 0.287075 0.657643
C32_3 C 0.38742(17) 0.23138(17) 0.65843(10)
C33_3 C 0.38992(18) 0.17302(19) 0.67823(13)
H34_3 H 0.426821 0.148293 0.678329
C34_3 C 0.33778(19) 0.15140(19) 0.69785(13)
H35_3 H 0.340303 0.112709 0.711566
C35_3 C 0.28205(17) 0.18692(16) 0.69720(10)
C36_3 C 0.27914(18) 0.24523(17) 0.67710(11)
H36_3 H 0.242032 0.269691 0.676661
C37_3 C 0.33129(19) 0.26666(17) 0.65785(11)
H37_3 H 0.328794 0.305444 0.644248
C38_3 C 0.22545(17) 0.16348(16) 0.71792(10)
C39_3 C 0.6468(3) 0.1333(2) 0.25789(17)
H38_3 H 0.638429 0.137396 0.285138
C40_3 C 0.6690(6) 0.0214(4) 0.2715(4)
H39_3 H 0.668555 0.034603 0.299447
C41_3 C 0.6796(6) 0.0672(3) 0.2033(3)
H42_3 H 0.669586 0.105088 0.187793
H43_3 H 0.724158 0.056920 0.201801
H44_3 H 0.653633 0.032733 0.192240
O17_2 O 0.76869(12) 0.11148(12) 0.76249(8)
O18_3 O 0.48308(13) 0.56861(12) 0.79371(8)
O19_3 O 0.38610(12) 0.52346(11) 0.78260(8)
N5_3 N 0.56977(15) 0.28705(14) 0.90026(9)
H47_3 H 0.603177 0.318704 0.896432
C42_3 C 0.59655(17) 0.24171(17) 0.93121(10)
H48_3 H 0.629612 0.217597 0.918323
C43_3 C 0.5487(2) 0.19265(19) 0.94505(11)
H49_3 H 0.527459 0.171762 0.921391
H50_3 H 0.516183 0.213888 0.959616
C44_3 C 0.5831(2) 0.14333(18) 0.97273(11)
H51_3 H 0.552377 0.112508 0.981273
H52_3 H 0.614490 0.120965 0.957838
C46_3 C 0.66377(19) 0.22593(18) 0.99706(11)
H54_3 H 0.697891 0.205341 0.983626
C47_3 C 0.63064(19) 0.27485(17) 0.96808(11)
H56_3 H 0.662253 0.304327 0.959028
H57_3 H 0.599713 0.298870 0.982355
C64_3 C 0.51337(19) 0.32171(19) 0.91251(12)
H70_3 H 0.477467 0.292570 0.912966
H71_3 H 0.522476 0.338183 0.939911
C65_3 C 0.49492(18) 0.37621(18) 0.88389(11)
C66_3 C 0.54070(19) 0.4195(2) 0.87308(13)
H72_3 H 0.582978 0.415478 0.883884
C67_3 C 0.52405(18) 0.46876(18) 0.84636(12)
H73_3 H 0.555107 0.497547 0.839339
C68_3 C 0.46106(16) 0.47524(16) 0.83002(10)
C69_3 C 0.41517(18) 0.43170(18) 0.84084(11)
H74_3 H 0.372901 0.435475 0.829981
C70_3 C 0.43240(18) 0.38241(18) 0.86793(12)
H75_3 H 0.401497 0.353659 0.875225
C71_3 C 0.44276(17) 0.52689(15) 0.79951(10)
C72_3 C 0.55443(18) 0.25657(19) 0.86077(11)
H76_3 H 0.524973 0.221719 0.864270
H77_3 H 0.532735 0.287075 0.842357
C73_3 C 0.61258(17) 0.23138(17) 0.84157(10)
C74_3 C 0.61008(18) 0.17302(19) 0.82177(13)
H78_3 H 0.573179 0.148293 0.821671
C75_3 C 0.66222(19) 0.15140(19) 0.80215(13)
H79_3 H 0.659697 0.112709 0.788434
C76_3 C 0.71795(17) 0.18692(16) 0.80280(10)
C77_3 C 0.72086(18) 0.24523(17) 0.82290(11)
H80_3 H 0.757968 0.269691 0.823339
C78_3 C 0.66871(19) 0.26666(17) 0.84215(11)
H81_3 H 0.671206 0.305444 0.855752
C79_3 C 0.77455(17) 0.16348(16) 0.78208(10)
O31_2 O 0.73131(12) 0.61148(12) 0.73751(8)
O32_2 O 0.26869(12) 0.61148(12) 0.76249(8)
O15_3 O 0.8102(2) 0.88344(15) 0.15814(11)
C58_3 C 0.7273(3) 0.9831(2) 0.05711(13)
H66_3 H 0.708910 0.962068 0.034228
C59_3 C 0.7541(3) 0.9483(2) 0.09003(14)
H67_3 H 0.753012 0.904106 0.089400
C60_3 C 0.7828(2) 0.97979(19) 0.12401(12)
C63_3 C 0.8065(2) 0.94168(19) 0.16073(12)
H84_3 H 0.367737 0.995153 0.235635
H85_3 H 0.292541 0.997744 0.231918
O4_3 O 0.1898(2) 0.88344(15) 0.34186(11)
C17_3 C 0.2727(3) 0.9831(2) 0.44289(13)
H22_3 H 0.291090 0.962068 0.465772
C18_3 C 0.2459(3) 0.9483(2) 0.40997(14)
H23_3 H 0.246988 0.904106 0.410600
C19_3 C 0.2172(2) 0.97979(19) 0.37599(12)
C22_3 C 0.1935(2) 0.94168(19) 0.33927(12)
H40_3 H 0.632263 0.995153 0.264365
H41_3 H 0.707459 0.997744 0.268082
O7_4 O 0.01692(13) 0.06861(12) 0.70629(8)
O8_4 O 0.11390(12) 0.02346(11) 0.71740(8)
C30_4 C 0.05724(17) 0.02689(15) 0.70049(10)
O15_4 O 0.3102(2) 0.38344(15) 0.15814(11)
N4_4 N 0.14761(16) 0.63126(15) 0.04086(8)
C45_4 C 0.11674(18) 0.67545(16) 0.01019(10)
H53_4 H 0.083422 0.698176 0.023728
H55_4 H 0.182978 0.747538 0.021065
C48_4 C 0.0993(2) 0.59841(17) 0.06295(10)
H58_4 H 0.064479 0.584883 0.043683
H59_4 H 0.118440 0.560672 0.075766
C49_4 C 0.07258(19) 0.63956(16) 0.09522(10)
C50_4 C 0.0111(2) 0.6270(2) 0.10724(12)
C52_4 C 0.02447(17) 0.70670(16) 0.15979(10)
C53_4 C 0.08454(19) 0.72109(18) 0.14722(11)
H62_4 H 0.108874 0.753340 0.160116
C54_4 C 0.1084(2) 0.68747(19) 0.11544(11)
H63_4 H 0.149080 0.697067 0.107491
C56_4 C 0.1923(2) 0.5864(2) 0.02393(11)
H64_4 H 0.168777 0.557513 0.005256
H65_4 H 0.222890 0.609500 0.008823
C57_4 C 0.2278(2) 0.5489(2) 0.05802(11)
C58_4 C 0.2273(3) 0.4831(2) 0.05711(13)
H66_4 H 0.208910 0.462068 0.034228
C59_4 C 0.2541(3) 0.4483(2) 0.09003(14)
H67_4 H 0.253012 0.404106 0.089400
C60_4 C 0.2828(2) 0.47979(19) 0.12401(12)
C61_4 C 0.28438(18) 0.54584(19) 0.12465(11)
H68_4 H 0.303591 0.566888 0.147299
C62_4 C 0.2575(2) 0.58062(19) 0.09170(12)
H69_4 H 0.259281 0.624784 0.092064
C63_4 C 0.3065(2) 0.44168(19) 0.16073(12)
O1_4 O 0.05661(12) 0.72725(11) 0.29643(8)
O10_4 O 0.19279(14) 0.76697(14) 0.30242(9)
H1_4 H 0.187878 0.791650 0.327680
H2_4 H 0.232959 0.744523 0.312002
O11_4 O 0.13862(14) 0.67934(12) 0.23572(9)
N3_4 N 0.1670(3) 0.5774(2) 0.2451(2)
H16_4 H 0.014171 0.596095 0.406346
C10_4 C 0.0126(2) 0.6604(2) 0.36070(12)
H17_4 H 0.053568 0.651670 0.352968
C14_4 C 0.00171(16) 0.74218(15) 0.30558(10)
H26_4 H 0.022533 0.792570 0.587034
C24_4 C 0.00508(18) 0.87621(18) 0.61611(11)
C27_4 C 0.03894(16) 0.97524(16) 0.66998(10)
C28_4 C 0.08483(18) 0.93170(18) 0.65916(11)
H30_4 H 0.127099 0.935475 0.670019
C29_4 C 0.06760(18) 0.88241(18) 0.63207(12)
H31_4 H 0.098503 0.853659 0.624775
C39_4 C 0.1468(3) 0.6333(2) 0.25789(17)
H38_4 H 0.138429 0.637396 0.285138
C40_4 C 0.1690(6) 0.5214(4) 0.2715(4)
H39_4 H 0.168555 0.534603 0.299447
H40_4 H 0.132263 0.495153 0.264365
H41_4 H 0.207459 0.497744 0.268082
C41_4 C 0.1796(6) 0.5672(3) 0.2033(3)
H42_4 H 0.169586 0.605088 0.187793
H43_4 H 0.224158 0.556920 0.201801
H44_4 H 0.153633 0.532733 0.192240
N5_4 N 0.06977(15) 0.78705(14) 0.90026(9)
H47_4 H 0.103177 0.818704 0.896432
C42_4 C 0.09655(17) 0.74171(17) 0.93121(10)
H48_4 H 0.129612 0.717597 0.918323
C43_4 C 0.0487(2) 0.69265(19) 0.94505(11)
H49_4 H 0.027459 0.671762 0.921391
H50_4 H 0.016183 0.713888 0.959616
C44_4 C 0.0831(2) 0.64333(18) 0.97273(11)
H51_4 H 0.052377 0.612508 0.981273
H52_4 H 0.114490 0.620965 0.957838
C46_4 C 0.16377(19) 0.72593(18) 0.99706(11)
H54_4 H 0.197891 0.705341 0.983626
C47_4 C 0.13064(19) 0.77485(17) 0.96808(11)
H56_4 H 0.162253 0.804327 0.959028
H57_4 H 0.099713 0.798870 0.982355
C64_4 C 0.01337(19) 0.82171(19) 0.91251(12)
H71_4 H 0.022476 0.838183 0.939911
C66_4 C 0.04070(19) 0.9195(2) 0.87308(13)
H72_4 H 0.082978 0.915478 0.883884
C67_4 C 0.02405(18) 0.96876(18) 0.84636(12)
H73_4 H 0.055107 0.997547 0.839339
C72_4 C 0.05443(18) 0.75657(19) 0.86077(11)
H76_4 H 0.024973 0.721719 0.864270
H77_4 H 0.032735 0.787075 0.842357
C73_4 C 0.11258(17) 0.73138(17) 0.84157(10)
C74_4 C 0.11008(18) 0.67302(19) 0.82177(13)
H78_4 H 0.073179 0.648293 0.821671
C75_4 C 0.16222(19) 0.65140(19) 0.80215(13)
H79_4 H 0.159697 0.612709 0.788434
C76_4 C 0.21795(17) 0.68692(16) 0.80280(10)
C77_4 C 0.22086(18) 0.74523(17) 0.82290(11)
H80_4 H 0.257968 0.769691 0.823339
C78_4 C 0.16871(19) 0.76666(17) 0.84215(11)
H81_4 H 0.171206 0.805444 0.855752
C79_4 C 0.27455(17) 0.66348(16) 0.78208(10)
O18_4 O 0.98308(13) 0.06861(12) 0.79371(8)
O19_4 O 0.88610(12) 0.02346(11) 0.78260(8)
C71_4 C 0.94276(17) 0.02689(15) 0.79951(10)
O12_4 O 0.94339(12) 0.72725(11) 0.20357(8)
O21_4 O 0.80721(14) 0.76697(14) 0.19758(9)
H45_4 H 0.812122 0.791650 0.172320
H46_4 H 0.767041 0.744523 0.187998
O22_4 O 0.86138(14) 0.67934(12) 0.26428(9)
N6_4 N 0.8330(3) 0.5774(2) 0.2549(2)
H60_4 H 0.985829 0.596095 0.093654
C51_4 C 0.9874(2) 0.6604(2) 0.13930(12)
H61_4 H 0.946432 0.651670 0.147032
C55_4 C 0.99829(16) 0.74218(15) 0.19442(10)
C80_4 C 0.8532(3) 0.6333(2) 0.24211(17)
H82_4 H 0.861571 0.637396 0.214862
C81_4 C 0.8310(6) 0.5214(4) 0.2285(4)
H83_4 H 0.831445 0.534603 0.200553
H84_4 H 0.867737 0.495153 0.235635
H85_4 H 0.792541 0.497744 0.231918
C82_4 C 0.8204(6) 0.5672(3) 0.2967(3)
H86_4 H 0.830414 0.605088 0.312207
H87_4 H 0.775842 0.556920 0.298199
H88_4 H 0.846367 0.532733 0.307760
O4_4 O 0.6898(2) 0.38344(15) 0.34186(11)
N1_4 N 0.85239(16) 0.63126(15) 0.45914(8)
N2_4 N 0.93023(15) 0.78705(14) 0.59974(9)
H3_4 H 0.896823 0.818704 0.603568
C1_4 C 0.90345(17) 0.74171(17) 0.56879(10)
H4_4 H 0.870388 0.717597 0.581677
C2_4 C 0.9513(2) 0.69265(19) 0.55495(11)
H5_4 H 0.972541 0.671762 0.578609
H6_4 H 0.983817 0.713888 0.540384
C3_4 C 0.9169(2) 0.64333(18) 0.52727(11)
H7_4 H 0.947623 0.612508 0.518727
H8_4 H 0.885510 0.620965 0.542162
C4_4 C 0.88326(18) 0.67545(16) 0.48981(10)
H9_4 H 0.916578 0.698176 0.476272
C5_4 C 0.83623(19) 0.72593(18) 0.50294(11)
H10_4 H 0.802109 0.705341 0.516374
H11_4 H 0.817022 0.747538 0.478935
C6_4 C 0.86936(19) 0.77485(17) 0.53192(11)
H12_4 H 0.837747 0.804327 0.540972
H13_4 H 0.900287 0.798870 0.517645
C7_4 C 0.9007(2) 0.59841(17) 0.43705(10)
H14_4 H 0.935521 0.584883 0.456317
H15_4 H 0.881560 0.560672 0.424234
C8_4 C 0.92742(19) 0.63956(16) 0.40478(10)
C9_4 C 0.9889(2) 0.6270(2) 0.39276(12)
C11_4 C 0.97553(17) 0.70670(16) 0.34021(10)
C12_4 C 0.91546(19) 0.72109(18) 0.35278(11)
H18_4 H 0.891126 0.753340 0.339884
C13_4 C 0.8916(2) 0.68747(19) 0.38456(11)
H19_4 H 0.850920 0.697067 0.392509
C15_4 C 0.8077(2) 0.5864(2) 0.47607(11)
H20_4 H 0.831223 0.557513 0.494744
H21_4 H 0.777110 0.609500 0.491177
C16_4 C 0.7722(2) 0.5489(2) 0.44198(11)
C17_4 C 0.7727(3) 0.4831(2) 0.44289(13)
H22_4 H 0.791090 0.462068 0.465772
C18_4 C 0.7459(3) 0.4483(2) 0.40997(14)
H23_4 H 0.746988 0.404106 0.410600
C19_4 C 0.7172(2) 0.47979(19) 0.37599(12)
C20_4 C 0.71562(18) 0.54584(19) 0.37535(11)
H24_4 H 0.696409 0.566888 0.352701
C21_4 C 0.7425(2) 0.58062(19) 0.40830(12)
H25_4 H 0.740719 0.624784 0.407936
C22_4 C 0.6935(2) 0.44168(19) 0.33927(12)
C23_4 C 0.98663(19) 0.82171(19) 0.58749(12)
H27_4 H 0.977524 0.838183 0.560089
C25_4 C 0.95930(19) 0.9195(2) 0.62692(13)
H28_4 H 0.917022 0.915478 0.616116
C26_4 C 0.97595(18) 0.96876(18) 0.65364(12)
H29_4 H 0.944893 0.997547 0.660661
C31_4 C 0.94557(18) 0.75657(19) 0.63923(11)
H32_4 H 0.975027 0.721719 0.635730
H33_4 H 0.967265 0.787075 0.657643
C32_4 C 0.88742(17) 0.73138(17) 0.65843(10)
C33_4 C 0.88992(18) 0.67302(19) 0.67823(13)
H34_4 H 0.926821 0.648293 0.678329
C34_4 C 0.83778(19) 0.65140(19) 0.69785(13)
H35_4 H 0.840303 0.612709 0.711566
C35_4 C 0.78205(17) 0.68692(16) 0.69720(10)
C36_4 C 0.77914(18) 0.74523(17) 0.67710(11)
H36_4 H 0.742032 0.769691 0.676661
C37_4 C 0.83129(19) 0.76666(17) 0.65785(11)
H37_4 H 0.828794 0.805444 0.644248
C38_4 C 0.72545(17) 0.66348(16) 0.71792(10)
H70_4 H 0.977467 0.792570 0.912966
C65_4 C 0.99492(18) 0.87621(18) 0.88389(11)
C68_4 C 0.96106(16) 0.97524(16) 0.83002(10)
C69_4 C 0.91517(18) 0.93170(18) 0.84084(11)
H74_4 H 0.872901 0.935475 0.829981
C70_4 C 0.93240(18) 0.88241(18) 0.86793(12)
H75_4 H 0.901497 0.853659 0.875225
loop_
_geom_bond_atom_site_label_1
_geom_bond_atom_site_label_2
_geom_bond_site_symmetry_1
_geom_bond_site_symmetry_2
O3 C22 1_555 1_555
O4 C22 1_555 1_555
H22 C17 1_555 1_555
C18 C17 1_555 1_555
H23 C18 1_555 1_555
C19 C18 1_555 1_555
C22 C19 1_555 1_555
Zn17 O3 1_555 1_555
O14 C63 1_555 1_555
O15 C63 1_555 1_555
H66 C58 1_555 1_555
C59 C58 1_555 1_555
H67 C59 1_555 1_555
C60 C59 1_555 1_555
C63 C60 1_555 1_555
Zn16 O14 1_555 1_555
Zn1 O1 1_555 1_555
Zn2 O7 1_555 1_555
Zn3 O8 1_555 1_555
O1 C14 1_555 1_555
O2 C14 1_555 1_555
O5 C38 1_555 1_555
O6 C38 1_555 1_555
O7 C30 1_555 1_555
O8 C30 1_555 1_555
O9 Zn2 1_555 1_555
O10 Zn1 1_555 1_555
H1 O10 1_555 1_555
H2 O10 1_555 1_555
O11 Zn1 1_555 1_555
N1 C4 1_555 1_555
N2 H3 1_555 1_555
N3 C39 1_555 1_555
C1 N2 1_555 1_555
H4 C1 1_555 1_555
C2 C1 1_555 1_555
H5 C2 1_555 1_555
H6 C2 1_555 1_555
C3 C2 1_555 1_555
H7 C3 1_555 1_555
H8 C3 1_555 1_555
C4 C3 1_555 1_555
H9 C4 1_555 1_555
C5 C4 1_555 1_555
H10 C5 1_555 1_555
H11 C5 1_555 1_555
C6 C1 1_555 1_555
H12 C6 1_555 1_555
H13 C6 1_555 1_555
C7 N1 1_555 1_555
H14 C7 1_555 1_555
H15 C7 1_555 1_555
C8 C7 1_555 1_555
C9 C8 1_555 1_555
H16 C9 1_555 1_555
C10 C9 1_555 1_555
H17 C10 1_555 1_555
C11 C10 1_555 1_555
C12 C11 1_555 1_555
H18 C12 1_555 1_555
C13 C8 1_555 1_555
H19 C13 1_555 1_555
C14 C11 1_555 1_555
C15 N1 1_555 1_555
H20 C15 1_555 1_555
H21 C15 1_555 1_555
C16 C15 1_555 1_555
H24 C20 1_555 1_555
C21 C16 1_555 1_555
H25 C21 1_555 1_555
C23 N2 1_555 1_555
H26 C23 1_555 1_555
H27 C23 1_555 1_555
C24 C23 1_555 1_555
C25 C24 1_555 1_555
H28 C25 1_555 1_555
C26 C25 1_555 1_555
H29 C26 1_555 1_555
C27 C26 1_555 1_555
C28 C27 1_555 1_555
H30 C28 1_555 1_555
C29 C24 1_555 1_555
H31 C29 1_555 1_555
C30 C27 1_555 1_555
C31 N2 1_555 1_555
H32 C31 1_555 1_555
H33 C31 1_555 1_555
C32 C31 1_555 1_555
C33 C32 1_555 1_555
H34 C33 1_555 1_555
C34 C33 1_555 1_555
H35 C34 1_555 1_555
C35 C34 1_555 1_555
C36 C35 1_555 1_555
H36 C36 1_555 1_555
C37 C32 1_555 1_555
H37 C37 1_555 1_555
C38 C35 1_555 1_555
C39 O11 1_555 1_555
H38 C39 1_555 1_555
C40 N3 1_555 1_555
H39 C40 1_555 1_555
C41 N3 1_555 1_555
H42 C41 1_555 1_555
H43 C41 1_555 1_555
H44 C41 1_555 1_555
Zn5 O19 1_555 1_555
O16 C79 1_555 1_555
O17 C79 1_555 1_555
O18 Zn2 1_555 1_555
O19 C71 1_555 1_555
O20 Zn2 1_555 1_555
N5 H47 1_555 1_555
C42 N5 1_555 1_555
H48 C42 1_555 1_555
C43 C42 1_555 1_555
H49 C43 1_555 1_555
H50 C43 1_555 1_555
C44 C43 1_555 1_555
H51 C44 1_555 1_555
H52 C44 1_555 1_555
H54 C46 1_555 1_555
C47 C42 1_555 1_555
H56 C47 1_555 1_555
H57 C47 1_555 1_555
C64 N5 1_555 1_555
H70 C64 1_555 1_555
H71 C64 1_555 1_555
C65 C64 1_555 1_555
C66 C65 1_555 1_555
H72 C66 1_555 1_555
C67 C66 1_555 1_555
H73 C67 1_555 1_555
C68 C67 1_555 1_555
C69 C68 1_555 1_555
H74 C69 1_555 1_555
C70 C65 1_555 1_555
H75 C70 1_555 1_555
C71 O18 1_555 1_555
C72 N5 1_555 1_555
H76 C72 1_555 1_555
H77 C72 1_555 1_555
C73 C72 1_555 1_555
C74 C73 1_555 1_555
H78 C74 1_555 1_555
C75 C74 1_555 1_555
H79 C75 1_555 1_555
C76 C75 1_555 1_555
C77 C76 1_555 1_555
H80 C77 1_555 1_555
C78 C73 1_555 1_555
H81 C78 1_555 1_555
C79 C76 1_555 1_555
Zn7 O2 1_555 1_555
Zn8 O20 1_555 1_555
Zn9 O9 1_555 1_555
Zn10 O16 1_555 1_555
Zn11 O5 1_555 1_555
Zn13 O2 1_555 1_555
Zn14 O6 1_555 1_555
Zn15 O17 1_555 1_555
O24 Zn1 1_555 1_555
O25 Zn2 1_555 1_555
O26 Zn2 1_555 1_555
O27 Zn5 1_555 1_555
O28 Zn3 1_555 1_555
O30 Zn1 1_555 1_555
O31 Zn3 1_555 1_555
O32 Zn5 1_555 1_555
O34 Zn1 1_555 1_555
Zn3 O9 1_555 1_555
C5 C6 1_555 1_555
C12 C13 1_555 1_555
C20 C21 1_555 1_555
C28 C29 1_555 1_555
C36 C37 1_555 1_555
Zn5 O20 1_555 1_555
C46 C47 1_555 1_555
C68 C71 1_555 1_555
C69 C70 1_555 1_555
C77 C78 1_555 1_555
Zn8 O26 1_555 1_555
Zn9 O25 1_555 1_555
Zn13 O24 1_555 1_555
Zn13 O34 1_555 1_555
Zn7 O12 1_555 1_555
O12 C55 1_555 1_555
O24 C55 1_555 1_555
O21 Zn7 1_555 1_555
H45 O21 1_555 1_555
H46 O21 1_555 1_555
O22 Zn7 1_555 1_555
N4 C45 1_555 1_555
N6 C80 1_555 1_555
H53 C45 1_555 1_555
C48 N4 1_555 1_555
H58 C48 1_555 1_555
H59 C48 1_555 1_555
C49 C48 1_555 1_555
C50 C49 1_555 1_555
H60 C50 1_555 1_555
C51 C50 1_555 1_555
H61 C51 1_555 1_555
C52 C51 1_555 1_555
C53 C52 1_555 1_555
H62 C53 1_555 1_555
C54 C49 1_555 1_555
H63 C54 1_555 1_555
C55 C52 1_555 1_555
C56 N4 1_555 1_555
H64 C56 1_555 1_555
H65 C56 1_555 1_555
C57 C56 1_555 1_555
H68 C61 1_555 1_555
C62 C57 1_555 1_555
H69 C62 1_555 1_555
C80 O22 1_555 1_555
H82 C80 1_555 1_555
C81 N6 1_555 1_555
H83 C81 1_555 1_555
C82 N6 1_555 1_555
H86 C82 1_555 1_555
H87 C82 1_555 1_555
H88 C82 1_555 1_555
O29 Zn7 1_555 1_555
O33 Zn7 1_555 1_555
C53 C54 1_555 1_555
C61 C62 1_555 1_555
Zn13 O33 1_555 1_555
O3_2 C22_2 1_555 1_555
O4_2 C22_2 1_555 1_555
O5_2 C38_2 1_555 1_555
O31 C38_2 1_555 1_555
N1_2 C4_2 1_555 1_555
N2_2 H3_2 1_555 1_555
C1_2 N2_2 1_555 1_555
H4_2 C1_2 1_555 1_555
C2_2 C1_2 1_555 1_555
H5_2 C2_2 1_555 1_555
H6_2 C2_2 1_555 1_555
C3_2 C2_2 1_555 1_555
H7_2 C3_2 1_555 1_555
H8_2 C3_2 1_555 1_555
C4_2 C3_2 1_555 1_555
H9_2 C4_2 1_555 1_555
C5_2 C4_2 1_555 1_555
H10_2 C5_2 1_555 1_555
H11_2 C5_2 1_555 1_555
C6_2 C1_2 1_555 1_555
H12_2 C6_2 1_555 1_555
H13_2 C6_2 1_555 1_555
C7_2 N1_2 1_555 1_555
H14_2 C7_2 1_555 1_555
H15_2 C7_2 1_555 1_555
C8_2 C7_2 1_555 1_555
C9_2 C8_2 1_555 1_555
C12_2 C11_2 1_555 1_555
H18_2 C12_2 1_555 1_555
C13_2 C8_2 1_555 1_555
H19_2 C13_2 1_555 1_555
C15_2 N1_2 1_555 1_555
H20_2 C15_2 1_555 1_555
H21_2 C15_2 1_555 1_555
C16_2 C15_2 1_555 1_555
C17_2 C16_2 1_555 1_555
H22_2 C17_2 1_555 1_555
C18_2 C17_2 1_555 1_555
H23_2 C18_2 1_555 1_555
C19_2 C18_2 1_555 1_555
C20_2 C19_2 1_555 1_555
H24_2 C20_2 1_555 1_555
C21_2 C16_2 1_555 1_555
H25_2 C21_2 1_555 1_555
C22_2 C19_2 1_555 1_555
C23_2 N2_2 1_555 1_555
H27_2 C23_2 1_555 1_555
H28_2 C25_2 1_555 1_555
C26_2 C25_2 1_555 1_555
H29_2 C26_2 1_555 1_555
C31_2 N2_2 1_555 1_555
H32_2 C31_2 1_555 1_555
H33_2 C31_2 1_555 1_555
C32_2 C31_2 1_555 1_555
C33_2 C32_2 1_555 1_555
H34_2 C33_2 1_555 1_555
C34_2 C33_2 1_555 1_555
H35_2 C34_2 1_555 1_555
C35_2 C34_2 1_555 1_555
C36_2 C35_2 1_555 1_555
H36_2 C36_2 1_555 1_555
C37_2 C32_2 1_555 1_555
H37_2 C37_2 1_555 1_555
C38_2 C35_2 1_555 1_555
C69_2 C68_2 1_555 1_555
H74_2 C69_2 1_555 1_555
C70_2 C65_2 1_555 1_555
H75_2 C70_2 1_555 1_555
Zn7_2 O2_2 1_555 1_555
Zn9 O5_2 1_555 1_555
Zn13_2 O2_2 1_555 1_555
Zn17_2 O3_2 1_555 1_555
C5_2 C6_2 1_555 1_555
C12_2 C13_2 1_555 1_555
C20_2 C21_2 1_555 1_555
C36_2 C37_2 1_555 1_555
C69_2 C70_2 1_555 1_555
Zn7_2 O12_2 1_555 1_555
O12_2 C55_2 1_555 1_555
O21_2 Zn7_2 1_555 1_555
H45_2 O21_2 1_555 1_555
H46_2 O21_2 1_555 1_555
O22_2 Zn7_2 1_555 1_555
N6_2 C80_2 1_555 1_555
H61_2 C51_2 1_555 1_555
C80_2 O22_2 1_555 1_555
H82_2 C80_2 1_555 1_555
C81_2 N6_2 1_555 1_555
H83_2 C81_2 1_555 1_555
H84_2 C81_2 1_555 1_555
H85_2 C81_2 1_555 1_555
C82_2 N6_2 1_555 1_555
H86_2 C82_2 1_555 1_555
H87_2 C82_2 1_555 1_555
H88_2 C82_2 1_555 1_555
O29_2 Zn7_2 1_555 1_555
O33_2 Zn7_2 1_555 1_555
Zn13_2 O33_2 1_555 1_555
Zn15 O19_2 1_555 1_555
O18_2 Zn2_2 1_555 1_555
O19_2 C71_2 1_555 1_555
O20_2 Zn2_2 1_555 1_555
C71_2 O18_2 1_555 1_555
Zn10 O20_2 1_555 1_555
O26_2 Zn2_2 1_555 1_555
O27_2 Zn15 1_555 1_555
Zn15 O20_2 1_555 1_555
Zn10 O26_2 1_555 1_555
Zn1_2 O1_2 1_555 1_555
O1_2 C14_2 1_555 1_555
O10_2 Zn1_2 1_555 1_555
H1_2 O10_2 1_555 1_555
H2_2 O10_2 1_555 1_555
O11_2 Zn1_2 1_555 1_555
N3_2 C39_2 1_555 1_555
H17_2 C10_2 1_555 1_555
C28_2 C27_2 1_555 1_555
H30_2 C28_2 1_555 1_555
C29_2 C24_2 1_555 1_555
H31_2 C29_2 1_555 1_555
C39_2 O11_2 1_555 1_555
H38_2 C39_2 1_555 1_555
C40_2 N3_2 1_555 1_555
H39_2 C40_2 1_555 1_555
H40_2 C40_2 1_555 1_555
H41_2 C40_2 1_555 1_555
C41_2 N3_2 1_555 1_555
H42_2 C41_2 1_555 1_555
H43_2 C41_2 1_555 1_555
H44_2 C41_2 1_555 1_555
O16_2 C79_2 1_555 1_555
O32 C79_2 1_555 1_555
N5_2 H47_2 1_555 1_555
C42_2 N5_2 1_555 1_555
H48_2 C42_2 1_555 1_555
C43_2 C42_2 1_555 1_555
H49_2 C43_2 1_555 1_555
H50_2 C43_2 1_555 1_555
C44_2 C43_2 1_555 1_555
H51_2 C44_2 1_555 1_555
H52_2 C44_2 1_555 1_555
H54_2 C46_2 1_555 1_555
C47_2 C42_2 1_555 1_555
H56_2 C47_2 1_555 1_555
H57_2 C47_2 1_555 1_555
C64_2 N5_2 1_555 1_555
H71_2 C64_2 1_555 1_555
H72_2 C66_2 1_555 1_555
C67_2 C66_2 1_555 1_555
H73_2 C67_2 1_555 1_555
C72_2 N5_2 1_555 1_555
H76_2 C72_2 1_555 1_555
H77_2 C72_2 1_555 1_555
C73_2 C72_2 1_555 1_555
C74_2 C73_2 1_555 1_555
H78_2 C74_2 1_555 1_555
C75_2 C74_2 1_555 1_555
H79_2 C75_2 1_555 1_555
C76_2 C75_2 1_555 1_555
C77_2 C76_2 1_555 1_555
H80_2 C77_2 1_555 1_555
C78_2 C73_2 1_555 1_555
H81_2 C78_2 1_555 1_555
C79_2 C76_2 1_555 1_555
Zn8 O16_2 1_555 1_555
O24_2 Zn1_2 1_555 1_555
O30_2 Zn1_2 1_555 1_555
O34_2 Zn1_2 1_555 1_555
C28_2 C29_2 1_555 1_555
C46_2 C47_2 1_555 1_555
C77_2 C78_2 1_555 1_555
Zn13_3 O24_2 1_555 1_555
Zn13_3 O34_2 1_555 1_555
O14_2 C63_2 1_555 1_555
O15_2 C63_2 1_555 1_555
N4_2 C45_2 1_555 1_555
H53_2 C45_2 1_555 1_555
C48_2 N4_2 1_555 1_555
H58_2 C48_2 1_555 1_555
H59_2 C48_2 1_555 1_555
C49_2 C48_2 1_555 1_555
C50_2 C49_2 1_555 1_555
C53_2 C52_2 1_555 1_555
H62_2 C53_2 1_555 1_555
C54_2 C49_2 1_555 1_555
H63_2 C54_2 1_555 1_555
C56_2 N4_2 1_555 1_555
H64_2 C56_2 1_555 1_555
H65_2 C56_2 1_555 1_555
C57_2 C56_2 1_555 1_555
C58_2 C57_2 1_555 1_555
H66_2 C58_2 1_555 1_555
C59_2 C58_2 1_555 1_555
H67_2 C59_2 1_555 1_555
C60_2 C59_2 1_555 1_555
C61_2 C60_2 1_555 1_555
H68_2 C61_2 1_555 1_555
C62_2 C57_2 1_555 1_555
H69_2 C62_2 1_555 1_555
C63_2 C60_2 1_555 1_555
Zn16_2 O14_2 1_555 1_555
C53_2 C54_2 1_555 1_555
C61_2 C62_2 1_555 1_555
Zn2_3 O7_2 1_555 1_555
Zn14 O8_2 1_555 1_555
O7_2 C30_2 1_555 1_555
O8_2 C30_2 1_555 1_555
O9_2 Zn2_3 1_555 1_555
Zn11 O9_2 1_555 1_555
O25_2 Zn2_3 1_555 1_555
O28_2 Zn14 1_555 1_555
Zn14 O9_2 1_555 1_555
Zn11 O25_2 1_555 1_555
Zn9 O12_3 1_555 1_555
O12_3 C55_3 1_555 1_555
O26 C55_3 1_555 1_555
O21_3 Zn9 1_555 1_555
H45_3 O21_3 1_555 1_555
H46_3 O21_3 1_555 1_555
O22_3 Zn9 1_555 1_555
N4_3 C45_3 1_555 1_555
N6_3 C80_3 1_555 1_555
H53_3 C45_3 1_555 1_555
C48_3 N4_3 1_555 1_555
H58_3 C48_3 1_555 1_555
H59_3 C48_3 1_555 1_555
C49_3 C48_3 1_555 1_555
C50_3 C49_3 1_555 1_555
H60_3 C50_3 1_555 1_555
C51_3 C50_3 1_555 1_555
H61_3 C51_3 1_555 1_555
C52_3 C51_3 1_555 1_555
C53_3 C52_3 1_555 1_555
H62_3 C53_3 1_555 1_555
C54_3 C49_3 1_555 1_555
H63_3 C54_3 1_555 1_555
C55_3 C52_3 1_555 1_555
C56_3 N4_3 1_555 1_555
H64_3 C56_3 1_555 1_555
H65_3 C56_3 1_555 1_555
C57_3 C56_3 1_555 1_555
H68_3 C61_3 1_555 1_555
C62_3 C57_3 1_555 1_555
H69_3 C62_3 1_555 1_555
C80_3 O22_3 1_555 1_555
H82_3 C80_3 1_555 1_555
C81_3 N6_3 1_555 1_555
H83_3 C81_3 1_555 1_555
C82_3 N6_3 1_555 1_555
H86_3 C82_3 1_555 1_555
H87_3 C82_3 1_555 1_555
H88_3 C82_3 1_555 1_555
C53_3 C54_3 1_555 1_555
C61_3 C62_3 1_555 1_555
Zn8 O1_3 1_555 1_555
Zn13 O7_3 1_555 1_555
Zn16_2 O8_3 1_555 1_555
O1_3 C14_3 1_555 1_555
O25 C14_3 1_555 1_555
O29_2 C38_3 1_555 1_555
O6_2 C38_3 1_555 1_555
O7_3 C30_3 1_555 1_555
O8_3 C30_3 1_555 1_555
O10_3 Zn8 1_555 1_555
H1_3 O10_3 1_555 1_555
H2_3 O10_3 1_555 1_555
O11_3 Zn8 1_555 1_555
N1_3 C4_3 1_555 1_555
N2_3 H3_3 1_555 1_555
N3_3 C39_3 1_555 1_555
C1_3 N2_3 1_555 1_555
H4_3 C1_3 1_555 1_555
C2_3 C1_3 1_555 1_555
H5_3 C2_3 1_555 1_555
H6_3 C2_3 1_555 1_555
C3_3 C2_3 1_555 1_555
H7_3 C3_3 1_555 1_555
H8_3 C3_3 1_555 1_555
C4_3 C3_3 1_555 1_555
H9_3 C4_3 1_555 1_555
C5_3 C4_3 1_555 1_555
H10_3 C5_3 1_555 1_555
H11_3 C5_3 1_555 1_555
C6_3 C1_3 1_555 1_555
H12_3 C6_3 1_555 1_555
H13_3 C6_3 1_555 1_555
C7_3 N1_3 1_555 1_555
H14_3 C7_3 1_555 1_555
H15_3 C7_3 1_555 1_555
C8_3 C7_3 1_555 1_555
C9_3 C8_3 1_555 1_555
H16_3 C9_3 1_555 1_555
C10_3 C9_3 1_555 1_555
H17_3 C10_3 1_555 1_555
C11_3 C10_3 1_555 1_555
C12_3 C11_3 1_555 1_555
H18_3 C12_3 1_555 1_555
C13_3 C8_3 1_555 1_555
H19_3 C13_3 1_555 1_555
C14_3 C11_3 1_555 1_555
C15_3 N1_3 1_555 1_555
H20_3 C15_3 1_555 1_555
H21_3 C15_3 1_555 1_555
C16_3 C15_3 1_555 1_555
H24_3 C20_3 1_555 1_555
C21_3 C16_3 1_555 1_555
H25_3 C21_3 1_555 1_555
C23_3 N2_3 1_555 1_555
H26_3 C23_3 1_555 1_555
H27_3 C23_3 1_555 1_555
C24_3 C23_3 1_555 1_555
C25_3 C24_3 1_555 1_555
H28_3 C25_3 1_555 1_555
C26_3 C25_3 1_555 1_555
H29_3 C26_3 1_555 1_555
C27_3 C26_3 1_555 1_555
C28_3 C27_3 1_555 1_555
H30_3 C28_3 1_555 1_555
C29_3 C24_3 1_555 1_555
H31_3 C29_3 1_555 1_555
C30_3 C27_3 1_555 1_555
C31_3 N2_3 1_555 1_555
H32_3 C31_3 1_555 1_555
H33_3 C31_3 1_555 1_555
C32_3 C31_3 1_555 1_555
C33_3 C32_3 1_555 1_555
H34_3 C33_3 1_555 1_555
C34_3 C33_3 1_555 1_555
H35_3 C34_3 1_555 1_555
C35_3 C34_3 1_555 1_555
C36_3 C35_3 1_555 1_555
H36_3 C36_3 1_555 1_555
C37_3 C32_3 1_555 1_555
H37_3 C37_3 1_555 1_555
C38_3 C35_3 1_555 1_555
C39_3 O11_3 1_555 1_555
H38_3 C39_3 1_555 1_555
C40_3 N3_3 1_555 1_555
H39_3 C40_3 1_555 1_555
C41_3 N3_3 1_555 1_555
H42_3 C41_3 1_555 1_555
H43_3 C41_3 1_555 1_555
H44_3 C41_3 1_555 1_555
Zn17_2 O19_3 1_555 1_555
O30_2 C79_3 1_555 1_555
O17_2 C79_3 1_555 1_555
O18_3 Zn13 1_555 1_555
O19_3 C71_3 1_555 1_555
N5_3 H47_3 1_555 1_555
C42_3 N5_3 1_555 1_555
H48_3 C42_3 1_555 1_555
C43_3 C42_3 1_555 1_555
H49_3 C43_3 1_555 1_555
H50_3 C43_3 1_555 1_555
C44_3 C43_3 1_555 1_555
H51_3 C44_3 1_555 1_555
H52_3 C44_3 1_555 1_555
H54_3 C46_3 1_555 1_555
C47_3 C42_3 1_555 1_555
H56_3 C47_3 1_555 1_555
H57_3 C47_3 1_555 1_555
C64_3 N5_3 1_555 1_555
H70_3 C64_3 1_555 1_555
H71_3 C64_3 1_555 1_555
C65_3 C64_3 1_555 1_555
C66_3 C65_3 1_555 1_555
H72_3 C66_3 1_555 1_555
C67_3 C66_3 1_555 1_555
H73_3 C67_3 1_555 1_555
C68_3 C67_3 1_555 1_555
C69_3 C68_3 1_555 1_555
H74_3 C69_3 1_555 1_555
C70_3 C65_3 1_555 1_555
H75_3 C70_3 1_555 1_555
C71_3 O18_3 1_555 1_555
C72_3 N5_3 1_555 1_555
H76_3 C72_3 1_555 1_555
H77_3 C72_3 1_555 1_555
C73_3 C72_3 1_555 1_555
C74_3 C73_3 1_555 1_555
H78_3 C74_3 1_555 1_555
C75_3 C74_3 1_555 1_555
H79_3 C75_3 1_555 1_555
C76_3 C75_3 1_555 1_555
C77_3 C76_3 1_555 1_555
H80_3 C77_3 1_555 1_555
C78_3 C73_3 1_555 1_555
H81_3 C78_3 1_555 1_555
C79_3 C76_3 1_555 1_555
Zn16 O6_2 1_555 1_555
Zn17 O17_2 1_555 1_555
O31_2 Zn16_2 1_555 1_555
O32_2 Zn17_2 1_555 1_555
Zn16_2 O33 1_555 1_555
C5_3 C6_3 1_555 1_555
C12_3 C13_3 1_555 1_555
C20_3 C21_3 1_555 1_555
C28_3 C29_3 1_555 1_555
C36_3 C37_3 1_555 1_555
Zn17_2 O34 1_555 1_555
C46_3 C47_3 1_555 1_555
C68_3 C71_3 1_555 1_555
C69_3 C70_3 1_555 1_555
C77_3 C78_3 1_555 1_555
O28_2 C63_3 1_555 1_555
O15_3 C63_3 1_555 1_555
H66_3 C58_3 1_555 1_555
C59_3 C58_3 1_555 1_555
H67_3 C59_3 1_555 1_555
C60_3 C59_3 1_555 1_555
C63_3 C60_3 1_555 1_555
O27_2 C22_3 1_555 1_555
O4_3 C22_3 1_555 1_555
H22_3 C17_3 1_555 1_555
C18_3 C17_3 1_555 1_555
H23_3 C18_3 1_555 1_555
C19_3 C18_3 1_555 1_555
C22_3 C19_3 1_555 1_555
Zn13_2 O7_4 1_555 1_555
Zn16 O8_4 1_555 1_555
O7_4 C30_4 1_555 1_555
O8_4 C30_4 1_555 1_555
Zn16 O33_2 1_555 1_555
O28 C63_4 1_555 1_555
O15_4 C63_4 1_555 1_555
N4_4 C45_4 1_555 1_555
H53_4 C45_4 1_555 1_555
C48_4 N4_4 1_555 1_555
H58_4 C48_4 1_555 1_555
H59_4 C48_4 1_555 1_555
C49_4 C48_4 1_555 1_555
C50_4 C49_4 1_555 1_555
C53_4 C52_4 1_555 1_555
H62_4 C53_4 1_555 1_555
C54_4 C49_4 1_555 1_555
H63_4 C54_4 1_555 1_555
C56_4 N4_4 1_555 1_555
H64_4 C56_4 1_555 1_555
H65_4 C56_4 1_555 1_555
C57_4 C56_4 1_555 1_555
C58_4 C57_4 1_555 1_555
H66_4 C58_4 1_555 1_555
C59_4 C58_4 1_555 1_555
H67_4 C59_4 1_555 1_555
C60_4 C59_4 1_555 1_555
C61_4 C60_4 1_555 1_555
H68_4 C61_4 1_555 1_555
C62_4 C57_4 1_555 1_555
H69_4 C62_4 1_555 1_555
C63_4 C60_4 1_555 1_555
C53_4 C54_4 1_555 1_555
C61_4 C62_4 1_555 1_555
Zn10 O1_4 1_555 1_555
O1_4 C14_4 1_555 1_555
O10_4 Zn10 1_555 1_555
H1_4 O10_4 1_555 1_555
H2_4 O10_4 1_555 1_555
O11_4 Zn10 1_555 1_555
N3_4 C39_4 1_555 1_555
H17_4 C10_4 1_555 1_555
C28_4 C27_4 1_555 1_555
H30_4 C28_4 1_555 1_555
C29_4 C24_4 1_555 1_555
H31_4 C29_4 1_555 1_555
C39_4 O11_4 1_555 1_555
H38_4 C39_4 1_555 1_555
C40_4 N3_4 1_555 1_555
H39_4 C40_4 1_555 1_555
H40_4 C40_4 1_555 1_555
H41_4 C40_4 1_555 1_555
C41_4 N3_4 1_555 1_555
H42_4 C41_4 1_555 1_555
H43_4 C41_4 1_555 1_555
H44_4 C41_4 1_555 1_555
O30 C79_4 1_555 1_555
O32_2 C79_4 1_555 1_555
N5_4 H47_4 1_555 1_555
C42_4 N5_4 1_555 1_555
H48_4 C42_4 1_555 1_555
C43_4 C42_4 1_555 1_555
H49_4 C43_4 1_555 1_555
H50_4 C43_4 1_555 1_555
C44_4 C43_4 1_555 1_555
H51_4 C44_4 1_555 1_555
H52_4 C44_4 1_555 1_555
H54_4 C46_4 1_555 1_555
C47_4 C42_4 1_555 1_555
H56_4 C47_4 1_555 1_555
H57_4 C47_4 1_555 1_555
C64_4 N5_4 1_555 1_555
H71_4 C64_4 1_555 1_555
H72_4 C66_4 1_555 1_555
C67_4 C66_4 1_555 1_555
H73_4 C67_4 1_555 1_555
C72_4 N5_4 1_555 1_555
H76_4 C72_4 1_555 1_555
H77_4 C72_4 1_555 1_555
C73_4 C72_4 1_555 1_555
C74_4 C73_4 1_555 1_555
H78_4 C74_4 1_555 1_555
C75_4 C74_4 1_555 1_555
H79_4 C75_4 1_555 1_555
C76_4 C75_4 1_555 1_555
C77_4 C76_4 1_555 1_555
H80_4 C77_4 1_555 1_555
C78_4 C73_4 1_555 1_555
H81_4 C78_4 1_555 1_555
C79_4 C76_4 1_555 1_555
C28_4 C29_4 1_555 1_555
C46_4 C47_4 1_555 1_555
C77_4 C78_4 1_555 1_555
Zn17 O19_4 1_555 1_555
O18_4 Zn13_3 1_555 1_555
O19_4 C71_4 1_555 1_555
C71_4 O18_4 1_555 1_555
Zn17 O34_2 1_555 1_555
Zn11 O12_4 1_555 1_555
O12_4 C55_4 1_555 1_555
O21_4 Zn11 1_555 1_555
H45_4 O21_4 1_555 1_555
H46_4 O21_4 1_555 1_555
O22_4 Zn11 1_555 1_555
N6_4 C80_4 1_555 1_555
H61_4 C51_4 1_555 1_555
C80_4 O22_4 1_555 1_555
H82_4 C80_4 1_555 1_555
C81_4 N6_4 1_555 1_555
H83_4 C81_4 1_555 1_555
H84_4 C81_4 1_555 1_555
H85_4 C81_4 1_555 1_555
C82_4 N6_4 1_555 1_555
H86_4 C82_4 1_555 1_555
H87_4 C82_4 1_555 1_555
H88_4 C82_4 1_555 1_555
O27 C22_4 1_555 1_555
O4_4 C22_4 1_555 1_555
O29 C38_4 1_555 1_555
O31_2 C38_4 1_555 1_555
N1_4 C4_4 1_555 1_555
N2_4 H3_4 1_555 1_555
C1_4 N2_4 1_555 1_555
H4_4 C1_4 1_555 1_555
C2_4 C1_4 1_555 1_555
H5_4 C2_4 1_555 1_555
H6_4 C2_4 1_555 1_555
C3_4 C2_4 1_555 1_555
H7_4 C3_4 1_555 1_555
H8_4 C3_4 1_555 1_555
C4_4 C3_4 1_555 1_555
H9_4 C4_4 1_555 1_555
C5_4 C4_4 1_555 1_555
H10_4 C5_4 1_555 1_555
H11_4 C5_4 1_555 1_555
C6_4 C1_4 1_555 1_555
H12_4 C6_4 1_555 1_555
H13_4 C6_4 1_555 1_555
C7_4 N1_4 1_555 1_555
H14_4 C7_4 1_555 1_555
H15_4 C7_4 1_555 1_555
C8_4 C7_4 1_555 1_555
C9_4 C8_4 1_555 1_555
C12_4 C11_4 1_555 1_555
H18_4 C12_4 1_555 1_555
C13_4 C8_4 1_555 1_555
H19_4 C13_4 1_555 1_555
C15_4 N1_4 1_555 1_555
H20_4 C15_4 1_555 1_555
H21_4 C15_4 1_555 1_555
C16_4 C15_4 1_555 1_555
C17_4 C16_4 1_555 1_555
H22_4 C17_4 1_555 1_555
C18_4 C17_4 1_555 1_555
H23_4 C18_4 1_555 1_555
C19_4 C18_4 1_555 1_555
C20_4 C19_4 1_555 1_555
H24_4 C20_4 1_555 1_555
C21_4 C16_4 1_555 1_555
H25_4 C21_4 1_555 1_555
C22_4 C19_4 1_555 1_555
C23_4 N2_4 1_555 1_555
H27_4 C23_4 1_555 1_555
H28_4 C25_4 1_555 1_555
C26_4 C25_4 1_555 1_555
H29_4 C26_4 1_555 1_555
C31_4 N2_4 1_555 1_555
H32_4 C31_4 1_555 1_555
H33_4 C31_4 1_555 1_555
C32_4 C31_4 1_555 1_555
C33_4 C32_4 1_555 1_555
H34_4 C33_4 1_555 1_555
C34_4 C33_4 1_555 1_555
H35_4 C34_4 1_555 1_555
C35_4 C34_4 1_555 1_555
C36_4 C35_4 1_555 1_555
H36_4 C36_4 1_555 1_555
C37_4 C32_4 1_555 1_555
H37_4 C37_4 1_555 1_555
C38_4 C35_4 1_555 1_555
C69_4 C68_4 1_555 1_555
H74_4 C69_4 1_555 1_555
C70_4 C65_4 1_555 1_555
H75_4 C70_4 1_555 1_555
C5_4 C6_4 1_555 1_555
C12_4 C13_4 1_555 1_555
C20_4 C21_4 1_555 1_555
C36_4 C37_4 1_555 1_555
C69_4 C70_4 1_555 1_555

#END
