
###############################################################################
#
# This file contains modified crystal structure data generated from the
# MOF subset of the Cambridge Structural Database (CSD) v543 
# hosted by the Cambridge Crystallographic Data Centre (CCDC).
#
# This work is licensed under the Creative Commons
# Attribution-NonCommercial-ShareAlike 4.0 International License.
# To view a copy of this license, visit
# http://creativecommons.org/licenses/by-nc-sa/4.0/
# or send a letter to
# Creative Commons, PO Box 1866, Mountain View, CA 94042, USA.
#
# CIF created using the CSD Python API on 29 September 2022
# The structure has been converted into the P1 space group
# The structure has a 3D framework
# The original CSD entry QACGAG is in the monoclinic crystal system
# The framework has been calculated to contain at least 10.0% void space
# The void calculation uses a probe of radius 1.32A, grid spacing 0.4
#
###############################################################################

data_QACGAG
_chemical_formula_moiety         '(C248 H200 Cd6 N8 O32)n'
_symmetry_cell_setting           triclinic
_symmetry_space_group_name_H-M   'P 1'
_symmetry_Int_Tables_number      1
_space_group_name_Hall           'P 1'
loop_
_symmetry_equiv_pos_site_id
_symmetry_equiv_pos_as_xyz
1 x,y,z
_cell_length_a                   26.397(5)
_cell_length_b                   11.976(2)
_cell_length_c                   29.443(6)
_cell_angle_alpha                90
_cell_angle_beta                 97.51(3)
_cell_angle_gamma                90
_cell_volume                     9227.99
loop_
_atom_site_label
_atom_site_type_symbol
_atom_site_fract_x
_atom_site_fract_y
_atom_site_fract_z
Cd4 Cd 0.27608(4) 0.02850(11) 0.28101(3)
O5 O 0.3112(3) 0.7550(8) 0.1477(2)
O6 O 0.2951(4) 0.5960(8) 0.1859(3)
H44 H 0.324515 0.255220 0.005241
C56 C 0.3127(4) 0.4733(10) 0.0237(4)
C57 C 0.2966(5) 0.4233(9) 0.0637(5)
H47 H 0.286302 0.349024 0.061797
C58 C 0.2953(5) 0.4748(9) 0.1023(4)
H48 H 0.285427 0.437127 0.127343
C59 C 0.3090(4) 0.5882(10) 0.1058(4)
C60 C 0.3251(5) 0.6380(10) 0.0680(5)
H49 H 0.335018 0.712529 0.070114
C61 C 0.3273(5) 0.5845(10) 0.0285(4)
H50 H 0.338572 0.622029 0.004048
C62 C 0.3017(5) 0.6419(12) 0.1529(6)
Cd3 Cd 0.22392(4) 0.52850(11) 0.21899(3)
Cd10 Cd 0.29707(3) 0.77745(6) 0.22422(2)
Cd2 Cd 0.79707(3) 0.72255(6) 0.72422(2)
O1 O 0.2696(4) 0.6696(9) 0.2782(4)
O2 O 0.2905(4) 0.8249(16) 0.3178(3)
O3 O 0.7281(4) 0.6153(9) 0.7235(3)
O4 O 0.6953(4) 0.7681(14) 0.6905(3)
N1 N 0.3131(3) 0.3054(6) 0.6382(3)
N2 N 0.2612(3) 0.2667(6) 0.8205(3)
C1 C 0.2637(4) 0.2706(7) 0.7729(3)
H1 H 0.228509 0.272304 0.757465
C2 C 0.2911(4) 0.1694(8) 0.7524(3)
H2 H 0.326974 0.168724 0.764933
H3 H 0.275892 0.100031 0.760822
C3 C 0.2861(4) 0.1787(7) 0.6993(3)
H4 H 0.250307 0.178117 0.686503
H5 H 0.302718 0.115490 0.686854
C4 C 0.3116(4) 0.2893(7) 0.6863(4)
H6 H 0.347216 0.285601 0.700544
C5 C 0.2881(4) 0.3870(8) 0.7082(3)
H7 H 0.305750 0.454661 0.701205
H8 H 0.252688 0.394180 0.694757
C6 C 0.2901(4) 0.3773(8) 0.7588(3)
H9 H 0.273691 0.441898 0.770314
H10 H 0.325558 0.376937 0.772655
C7 C 0.2660(4) 0.2842(9) 0.6075(4)
H11 H 0.237001 0.303647 0.623029
H12 H 0.263729 0.205137 0.600370
C8 C 0.2632(4) 0.3477(9) 0.5648(4)
C9 C 0.2590(7) 0.2976(11) 0.5227(6)
H13 H 0.256623 0.220173 0.520903
C10 C 0.2583(6) 0.3592(12) 0.4826(4)
H14 H 0.255610 0.321007 0.454851
C11 C 0.2613(5) 0.4743(11) 0.4818(4)
C12 C 0.2653(5) 0.5233(9) 0.5243(4)
H15 H 0.267985 0.600554 0.526764
C13 C 0.2655(5) 0.4582(10) 0.5643(3)
H16 H 0.267293 0.495436 0.592144
C14 C 0.2622(5) 0.5404(12) 0.4400(4)
C15 C 0.2458(6) 0.4960(10) 0.3949(5)
H17 H 0.232212 0.424252 0.392741
C16 C 0.2490(6) 0.5513(14) 0.3561(4)
H18 H 0.238019 0.517216 0.328140
C17 C 0.2680(6) 0.6571(16) 0.3567(4)
C18 C 0.2865(6) 0.7037(12) 0.3997(5)
H19 H 0.302058 0.773498 0.401393
C19 C 0.2814(6) 0.6448(13) 0.4392(4)
H20 H 0.292002 0.679338 0.467135
C20 C 0.2821(7) 0.7183(11) 0.3145(6)
C21 C 0.3575(4) 0.2540(8) 0.6215(4)
H21 H 0.351791 0.251210 0.588324
H22 H 0.361053 0.177957 0.632776
C22 C 0.4054(4) 0.3160(9) 0.6364(3)
C23 C 0.4523(7) 0.2629(10) 0.6441(5)
H23 H 0.453621 0.186323 0.639147
C24 C 0.4968(5) 0.3184(11) 0.6588(5)
H24 H 0.526745 0.277195 0.665523
C25 C 0.4992(4) 0.4323(10) 0.6641(4)
C26 C 0.4534(5) 0.4866(9) 0.6551(4)
H25 H 0.452482 0.564028 0.657234
C27 C 0.4071(4) 0.4267(10) 0.6427(4)
H26 H 0.376600 0.466323 0.638793
C28 C 0.5486(5) 0.4903(9) 0.6762(4)
C29 C 0.5895(6) 0.4464(10) 0.7012(5)
H27 H 0.587755 0.372820 0.710943
C30 C 0.6341(5) 0.5046(14) 0.7134(5)
H28 H 0.660112 0.468732 0.732207
C31 C 0.6427(4) 0.6071(13) 0.7005(5)
C32 C 0.5999(6) 0.6553(11) 0.6697(4)
H29 H 0.603210 0.724651 0.656187
C33 C 0.5549(4) 0.5962(13) 0.6612(4)
H30 H 0.527176 0.630871 0.644154
C34 C 0.6938(5) 0.6686(12) 0.7023(5)
C35 C 0.2194(4) 0.2013(8) 0.8351(3)
H31 H 0.224240 0.193754 0.868137
H32 H 0.219188 0.127094 0.821800
C36 C 0.1689(5) 0.2583(8) 0.8198(4)
C37 C 0.1634(4) 0.3648(10) 0.8280(5)
H33 H 0.190597 0.404797 0.843402
C38 C 0.1174(5) 0.4186(9) 0.8139(5)
H34 H 0.115166 0.494996 0.818907
C39 C 0.0753(4) 0.3639(9) 0.7930(4)
C40 C 0.0812(5) 0.2508(8) 0.7840(4)
H35 H 0.054241 0.210060 0.768709
C41 C 0.1257(5) 0.2018(9) 0.7974(4)
H36 H 0.128591 0.125884 0.791702
C42 C 0.0241(4) 0.4201(9) 0.7802(4)
C43 C 0.0225(5) 0.5367(9) 0.7680(5)
H37 H 0.052921 0.575498 0.767543
C49 C 0.3094(4) 0.2401(9) 0.8508(4)
H41 H 0.338401 0.264184 0.836211
H42 H 0.311976 0.160034 0.855427
C50 C 0.3106(4) 0.2982(9) 0.8970(4)
C51 C 0.3196(5) 0.2388(9) 0.9365(4)
H43 H 0.325429 0.162255 0.935989
C52 C 0.3198(5) 0.2960(9) 0.9781(4)
C53 C 0.3134(4) 0.4103(10) 0.9806(4)
C54 C 0.3069(5) 0.4658(10) 0.9376(5)
H45 H 0.304181 0.543243 0.936708
C55 C 0.3046(4) 0.4082(10) 0.8980(3)
H46 H 0.298619 0.446902 0.870473
Cd6 Cd 0.77608(4) 0.47150(11) 0.78101(3)
Cd7 Cd 0.72392(4) 0.97150(11) 0.71899(3)
O9 O 0.7696(4) 0.8304(9) 0.7782(4)
O10 O 0.2095(4) 0.3249(16) 0.1822(3)
O11 O 0.2719(4) 0.3847(9) 0.2765(3)
O12 O 0.1953(4) 0.7319(14) 0.1905(3)
O13 O 0.8112(3) 0.7450(8) 0.6477(2)
O15 O 0.7951(4) 0.9040(8) 0.6859(3)
O16 O 0.8400(3) 0.5407(6) 0.7390(2)
O17 O 0.1600(3) 0.4593(6) 0.2610(2)
O18 O 0.8834(3) 0.7009(7) 0.7422(3)
C44 C 0.9780(6) 0.5903(10) 0.7574(4)
H38 H 0.978364 0.666044 0.750410
C45 C 0.9308(4) 0.5358(9) 0.7565(3)
C46 C 0.9325(4) 0.4244(10) 0.7663(4)
H39 H 0.901846 0.385699 0.765566
C47 C 0.9775(5) 0.3670(9) 0.7774(4)
H40 H 0.976540 0.290658 0.783035
C48 C 0.8817(5) 0.5929(12) 0.7469(3)
O1_2 O 0.2304(4) 0.1696(9) 0.2218(4)
C14_2 C 0.2378(5) 0.0404(12) 0.0600(4)
C16_2 C 0.2510(6) 0.0513(14) 0.1439(4)
H18_2 H 0.261981 0.017216 0.171860
C17_2 C 0.2320(6) 0.1571(16) 0.1433(4)
C18_2 C 0.2135(6) 0.2037(12) 0.1003(5)
H19_2 H 0.197942 0.273498 0.098607
C19_2 C 0.2186(6) 0.1448(13) 0.0608(4)
H20_2 H 0.207998 0.179338 0.032865
C20_2 C 0.2179(7) 0.2183(11) 0.1855(6)
Cd9 Cd 0.20293(3) 0.27745(6) 0.27578(2)
O12_2 O 0.3047(4) 0.2319(14) 0.3095(3)
O14 O 0.2049(4) 0.0960(8) 0.3141(3)
O5_2 O 0.1888(3) 0.2550(8) 0.3523(2)
O7 O 0.6600(3) 0.0407(6) 0.7610(2)
O8 O 0.6166(3) 0.2009(7) 0.7578(3)
C12_2 C 0.2347(5) 0.0233(9) 0.9757(4)
H15_2 H 0.232015 0.100554 0.973236
H25_2 H 0.047518 0.064028 0.842766
C43_2 C 0.4775(5) 0.0367(9) 0.7320(5)
H37_2 H 0.447079 0.075498 0.732457
C44_2 C 0.5220(6) 0.0903(10) 0.7426(4)
H38_2 H 0.521636 0.166044 0.749590
C45_2 C 0.5692(4) 0.0358(9) 0.7435(3)
C48_2 C 0.6183(5) 0.0929(12) 0.7531(3)
H45_2 H 0.195819 0.043243 0.563292
C59_2 C 0.1910(4) 0.0882(10) 0.3942(4)
C60_2 C 0.1749(5) 0.1380(10) 0.4320(5)
H49_2 H 0.164982 0.212529 0.429886
C61_2 C 0.1727(5) 0.0845(10) 0.4715(4)
H50_2 H 0.161428 0.122029 0.495952
C62_2 C 0.1983(5) 0.1419(12) 0.3471(6)
Cd8 Cd 0.70293(3) 0.22255(6) 0.77578(2)
C10_2 C 0.2417(6) 0.8592(12) 0.0174(4)
H14_2 H 0.244390 0.821007 0.045149
C11_2 C 0.2387(5) 0.9743(11) 0.0182(4)
C15_2 C 0.2542(6) 0.9960(10) 0.1051(5)
H17_2 H 0.267788 0.924252 0.107259
O11_2 O 0.2281(4) 0.8847(9) 0.2235(3)
O17_2 O 0.3400(3) 0.9593(6) 0.2390(2)
N1_2 N 0.1869(3) 0.8054(6) 0.8618(3)
N2_2 N 0.2388(3) 0.7667(6) 0.6795(3)
C1_2 C 0.2363(4) 0.7706(7) 0.7271(3)
H1_2 H 0.271491 0.772304 0.742535
C2_2 C 0.2089(4) 0.6694(8) 0.7476(3)
H2_2 H 0.173026 0.668724 0.735067
H3_2 H 0.224108 0.600031 0.739178
C3_2 C 0.2139(4) 0.6787(7) 0.8007(3)
H4_2 H 0.249693 0.678117 0.813497
H5_2 H 0.197282 0.615490 0.813146
C4_2 C 0.1884(4) 0.7893(7) 0.8137(4)
H6_2 H 0.152784 0.785601 0.799456
C5_2 C 0.2119(4) 0.8870(8) 0.7918(3)
H7_2 H 0.194250 0.954661 0.798795
H8_2 H 0.247312 0.894180 0.805243
C6_2 C 0.2099(4) 0.8773(8) 0.7412(3)
H9_2 H 0.226309 0.941898 0.729686
H10_2 H 0.174442 0.876937 0.727345
C7_2 C 0.2340(4) 0.7842(9) 0.8925(4)
H11_2 H 0.262999 0.803647 0.876971
H12_2 H 0.236271 0.705137 0.899630
C8_2 C 0.2368(4) 0.8477(9) 0.9352(4)
C9_2 C 0.2410(7) 0.7976(11) 0.9773(6)
H13_2 H 0.243377 0.720173 0.979097
C13_2 C 0.2345(5) 0.9582(10) 0.9357(3)
H16_2 H 0.232707 0.995436 0.907856
C21_2 C 0.1425(4) 0.7540(8) 0.8785(4)
H21_2 H 0.148209 0.751210 0.911676
H22_2 H 0.138947 0.677957 0.867224
C22_2 C 0.0946(4) 0.8160(9) 0.8636(3)
C23_2 C 0.0477(7) 0.7629(10) 0.8559(5)
H23_2 H 0.046379 0.686323 0.860853
C24_2 C 0.0032(5) 0.8184(11) 0.8412(5)
C25_2 C 0.0008(4) 0.9323(10) 0.8359(4)
C26_2 C 0.0466(5) 0.9866(9) 0.8449(4)
C27_2 C 0.0929(4) 0.9267(10) 0.8573(4)
H26_2 H 0.123400 0.966323 0.861207
C35_2 C 0.2806(4) 0.7013(8) 0.6649(3)
H31_2 H 0.275760 0.693754 0.631863
H32_2 H 0.280812 0.627094 0.678200
C36_2 C 0.3311(5) 0.7583(8) 0.6802(4)
C37_2 C 0.3366(4) 0.8648(10) 0.6720(5)
H33_2 H 0.309403 0.904797 0.656598
C38_2 C 0.3826(5) 0.9186(9) 0.6861(5)
H34_2 H 0.384834 0.994996 0.681093
C39_2 C 0.4247(4) 0.8639(9) 0.7070(4)
C40_2 C 0.4188(5) 0.7508(8) 0.7160(4)
H35_2 H 0.445759 0.710060 0.731291
C41_2 C 0.3743(5) 0.7018(9) 0.7026(4)
H36_2 H 0.371409 0.625884 0.708298
C42_2 C 0.4759(4) 0.9201(9) 0.7198(4)
C46_2 C 0.5675(4) 0.9244(10) 0.7337(4)
H39_2 H 0.598154 0.885699 0.734434
C47_2 C 0.5225(5) 0.8670(9) 0.7226(4)
H40_2 H 0.523460 0.790658 0.716965
C49_2 C 0.1906(4) 0.7401(9) 0.6492(4)
H41_2 H 0.161599 0.764184 0.663789
H42_2 H 0.188024 0.660034 0.644573
C50_2 C 0.1894(4) 0.7982(9) 0.6030(4)
C51_2 C 0.1804(5) 0.7388(9) 0.5635(4)
H43_2 H 0.174571 0.662255 0.564011
C52_2 C 0.1802(5) 0.7960(9) 0.5219(4)
H44_2 H 0.175485 0.755220 0.494759
C53_2 C 0.1866(4) 0.9103(10) 0.5194(4)
C54_2 C 0.1931(5) 0.9658(10) 0.5624(5)
C55_2 C 0.1954(4) 0.9082(10) 0.6020(3)
H46_2 H 0.201381 0.946902 0.629527
C56_2 C 0.1873(4) 0.9733(10) 0.4763(4)
C57_2 C 0.2034(5) 0.9233(9) 0.4363(5)
H47_2 H 0.213698 0.849024 0.438203
C58_2 C 0.2047(5) 0.9748(9) 0.3977(4)
H48_2 H 0.214573 0.937127 0.372657
O3_2 O 0.7719(4) 0.1153(9) 0.7765(3)
O4_2 O 0.8047(4) 0.2681(14) 0.8095(3)
C30_2 C 0.8659(5) 0.0046(14) 0.7866(5)
C31_2 C 0.8573(4) 0.1071(13) 0.7995(5)
C32_2 C 0.9001(6) 0.1553(11) 0.8303(4)
H29_2 H 0.896790 0.224651 0.843813
C33_2 C 0.9451(4) 0.0962(13) 0.8388(4)
H30_2 H 0.972824 0.130871 0.855846
C34_2 C 0.8062(5) 0.1686(12) 0.7977(5)
O9_2 O 0.7304(4) 0.3304(9) 0.7218(4)
O13_2 O 0.6888(3) 0.2450(8) 0.8523(2)
O15_2 O 0.7049(4) 0.4040(8) 0.8141(3)
H24_2 H 0.973255 0.777195 0.834477
C28_2 C 0.9514(5) 0.9903(9) 0.8238(4)
C29_2 C 0.9105(6) 0.9464(10) 0.7988(5)
H27_2 H 0.912245 0.872820 0.789057
H28_2 H 0.839888 0.968732 0.767793
O8_2 O 0.1166(3) 0.2991(7) 0.2578(3)
C44_3 C 0.0220(6) 0.4097(10) 0.2426(4)
H38_3 H 0.021636 0.333956 0.249590
C45_3 C 0.0692(4) 0.4642(9) 0.2435(3)
C46_3 C 0.0675(4) 0.5756(10) 0.2337(4)
H39_3 H 0.098154 0.614301 0.234434
C47_3 C 0.0225(5) 0.6330(9) 0.2226(4)
H40_3 H 0.023460 0.709342 0.216965
C48_3 C 0.1183(5) 0.4071(12) 0.2531(3)
O2_2 O 0.7095(4) 0.1751(16) 0.6822(3)
N1_3 N 0.6869(3) 0.6946(6) 0.3618(3)
N2_3 N 0.7388(3) 0.7333(6) 0.1795(3)
C1_3 C 0.7363(4) 0.7294(7) 0.2271(3)
H1_3 H 0.771491 0.727696 0.242535
C2_3 C 0.7089(4) 0.8306(8) 0.2476(3)
H2_3 H 0.673026 0.831276 0.235067
H3_3 H 0.724108 0.899969 0.239178
C3_3 C 0.7139(4) 0.8213(7) 0.3007(3)
H4_3 H 0.749693 0.821883 0.313497
H5_3 H 0.697282 0.884510 0.313146
C4_3 C 0.6884(4) 0.7107(7) 0.3137(4)
H6_3 H 0.652784 0.714399 0.299456
C5_3 C 0.7119(4) 0.6130(8) 0.2918(3)
H7_3 H 0.694250 0.545339 0.298795
H8_3 H 0.747312 0.605820 0.305243
C6_3 C 0.7099(4) 0.6227(8) 0.2412(3)
H9_3 H 0.726309 0.558102 0.229686
H10_3 H 0.674442 0.623063 0.227345
C7_3 C 0.7340(4) 0.7158(9) 0.3925(4)
H11_3 H 0.762999 0.696353 0.376971
H12_3 H 0.736271 0.794863 0.399630
C8_3 C 0.7368(4) 0.6523(9) 0.4352(4)
C9_3 C 0.7410(7) 0.7024(11) 0.4773(6)
H13_3 H 0.743377 0.779827 0.479097
C10_3 C 0.7417(6) 0.6408(12) 0.5174(4)
H14_3 H 0.744390 0.678993 0.545149
C11_3 C 0.7387(5) 0.5257(11) 0.5182(4)
C12_3 C 0.7347(5) 0.4767(9) 0.4757(4)
H15_3 H 0.732015 0.399446 0.473236
C13_3 C 0.7345(5) 0.5418(10) 0.4357(3)
H16_3 H 0.732707 0.504564 0.407856
C14_3 C 0.7378(5) 0.4596(12) 0.5600(4)
C15_3 C 0.7542(6) 0.5040(10) 0.6051(5)
H17_3 H 0.767788 0.575748 0.607259
C16_3 C 0.7510(6) 0.4487(14) 0.6439(4)
H18_3 H 0.761981 0.482784 0.671860
C17_3 C 0.7320(6) 0.3429(16) 0.6433(4)
C18_3 C 0.7135(6) 0.2963(12) 0.6003(5)
H19_3 H 0.697942 0.226502 0.598607
C19_3 C 0.7186(6) 0.3552(13) 0.5608(4)
H20_3 H 0.707998 0.320662 0.532865
C20_3 C 0.7179(7) 0.2817(11) 0.6855(6)
C21_3 C 0.6425(4) 0.7460(8) 0.3785(4)
H21_3 H 0.648209 0.748790 0.411676
H22_3 H 0.638947 0.822043 0.367224
C22_3 C 0.5946(4) 0.6840(9) 0.3636(3)
C23_3 C 0.5477(7) 0.7371(10) 0.3559(5)
H23_3 H 0.546379 0.813677 0.360853
C24_3 C 0.5032(5) 0.6816(11) 0.3412(5)
H24_3 H 0.473255 0.722805 0.334477
C25_3 C 0.5008(4) 0.5677(10) 0.3359(4)
C26_3 C 0.5466(5) 0.5134(9) 0.3449(4)
H25_3 H 0.547518 0.435972 0.342766
C27_3 C 0.5929(4) 0.5733(10) 0.3573(4)
H26_3 H 0.623400 0.533677 0.361207
C28_3 C 0.4514(5) 0.5097(9) 0.3238(4)
C29_3 C 0.4105(6) 0.5536(10) 0.2988(5)
H27_3 H 0.412245 0.627180 0.289057
C30_3 C 0.3659(5) 0.4954(14) 0.2866(5)
H28_3 H 0.339888 0.531268 0.267793
C31_3 C 0.3573(4) 0.3929(13) 0.2995(5)
C32_3 C 0.4001(6) 0.3447(11) 0.3303(4)
H29_3 H 0.396790 0.275349 0.343813
C33_3 C 0.4451(4) 0.4038(13) 0.3388(4)
H30_3 H 0.472824 0.369129 0.355846
C34_3 C 0.3062(5) 0.3314(12) 0.2977(5)
C35_3 C 0.7806(4) 0.7987(8) 0.1649(3)
H31_3 H 0.775760 0.806246 0.131863
H32_3 H 0.780812 0.872906 0.178200
C36_3 C 0.8311(5) 0.7417(8) 0.1802(4)
C37_3 C 0.8366(4) 0.6352(10) 0.1720(5)
H33_3 H 0.809403 0.595203 0.156598
C38_3 C 0.8826(5) 0.5814(9) 0.1861(5)
H34_3 H 0.884834 0.505004 0.181093
C39_3 C 0.9247(4) 0.6361(9) 0.2070(4)
C40_3 C 0.9188(5) 0.7492(8) 0.2160(4)
H35_3 H 0.945759 0.789940 0.231291
C41_3 C 0.8743(5) 0.7982(9) 0.2026(4)
H36_3 H 0.871409 0.874116 0.208298
C42_3 C 0.9759(4) 0.5799(9) 0.2198(4)
C43_3 C 0.9775(5) 0.4633(9) 0.2320(5)
H37_3 H 0.947079 0.424502 0.232457
C49_3 C 0.6906(4) 0.7599(9) 0.1492(4)
H41_3 H 0.661599 0.735816 0.163789
H42_3 H 0.688024 0.839966 0.144573
C50_3 C 0.6894(4) 0.7018(9) 0.1030(4)
C51_3 C 0.6804(5) 0.7612(9) 0.0635(4)
H43_3 H 0.674571 0.837745 0.064011
C52_3 C 0.6802(5) 0.7040(9) 0.0219(4)
C53_3 C 0.6866(4) 0.5897(10) 0.0194(4)
C54_3 C 0.6931(5) 0.5342(10) 0.0624(5)
H45_3 H 0.695819 0.456757 0.063292
C55_3 C 0.6954(4) 0.5918(10) 0.1020(3)
H46_3 H 0.701381 0.553098 0.129527
O10_2 O 0.7905(4) 0.6751(16) 0.8178(3)
H44_3 H 0.675485 0.744780 0.994759
C56_3 C 0.6873(4) 0.5267(10) 0.9763(4)
C57_3 C 0.7034(5) 0.5767(9) 0.9363(5)
H47_3 H 0.713698 0.650976 0.938203
C58_3 C 0.7047(5) 0.5252(9) 0.8977(4)
H48_3 H 0.714573 0.562873 0.872657
C59_3 C 0.6910(4) 0.4118(10) 0.8942(4)
C60_3 C 0.6749(5) 0.3620(10) 0.9320(5)
H49_3 H 0.664982 0.287471 0.929886
C61_3 C 0.6727(5) 0.4155(10) 0.9715(4)
H50_3 H 0.661428 0.377971 0.995952
C62_3 C 0.6983(5) 0.3581(12) 0.8471(6)
H24_4 H 0.026745 0.222805 0.165523
C28_4 C 0.0486(5) 0.0097(9) 0.1762(4)
C29_4 C 0.0895(6) 0.0536(10) 0.2012(5)
H27_4 H 0.087755 0.127180 0.210943
H28_4 H 0.160112 0.031268 0.232207
C30_4 C 0.1341(5) 0.9954(14) 0.2134(5)
C31_4 C 0.1427(4) 0.8929(13) 0.2005(5)
C32_4 C 0.0999(6) 0.8447(11) 0.1697(4)
H29_4 H 0.103210 0.775349 0.156187
C33_4 C 0.0549(4) 0.9038(13) 0.1612(4)
H30_4 H 0.027176 0.869129 0.144154
C34_4 C 0.1938(5) 0.8314(12) 0.2023(5)
O18_2 O 0.3834(3) 0.7991(7) 0.2422(3)
N1_4 N 0.8131(3) 0.1946(6) 0.1382(3)
N2_4 N 0.7612(3) 0.2333(6) 0.3205(3)
C1_4 C 0.7637(4) 0.2294(7) 0.2729(3)
H1_4 H 0.728509 0.227696 0.257465
C2_4 C 0.7911(4) 0.3306(8) 0.2524(3)
H2_4 H 0.826974 0.331276 0.264933
H3_4 H 0.775892 0.399969 0.260822
C3_4 C 0.7861(4) 0.3213(7) 0.1993(3)
H4_4 H 0.750307 0.321883 0.186503
H5_4 H 0.802718 0.384510 0.186854
C4_4 C 0.8116(4) 0.2107(7) 0.1863(4)
H6_4 H 0.847216 0.214399 0.200544
C5_4 C 0.7881(4) 0.1130(8) 0.2082(3)
H7_4 H 0.805750 0.045339 0.201205
H8_4 H 0.752688 0.105820 0.194757
C6_4 C 0.7901(4) 0.1227(8) 0.2588(3)
H9_4 H 0.773691 0.058102 0.270314
H10_4 H 0.825558 0.123063 0.272655
C7_4 C 0.7660(4) 0.2158(9) 0.1075(4)
H11_4 H 0.737001 0.196353 0.123029
H12_4 H 0.763729 0.294863 0.100370
C8_4 C 0.7632(4) 0.1523(9) 0.0648(4)
C9_4 C 0.7590(7) 0.2024(11) 0.0227(6)
H13_4 H 0.756623 0.279827 0.020903
C13_4 C 0.7655(5) 0.0418(10) 0.0643(3)
H16_4 H 0.767293 0.004564 0.092144
C21_4 C 0.8575(4) 0.2460(8) 0.1215(4)
H21_4 H 0.851791 0.248790 0.088324
H22_4 H 0.861053 0.322043 0.132776
C22_4 C 0.9054(4) 0.1840(9) 0.1364(3)
C23_4 C 0.9523(7) 0.2371(10) 0.1441(5)
H23_4 H 0.953621 0.313677 0.139147
C24_4 C 0.9968(5) 0.1816(11) 0.1588(5)
C25_4 C 0.9992(4) 0.0677(10) 0.1641(4)
C26_4 C 0.9534(5) 0.0134(9) 0.1551(4)
C27_4 C 0.9071(4) 0.0733(10) 0.1427(4)
H26_4 H 0.876600 0.033677 0.138793
C35_4 C 0.7194(4) 0.2987(8) 0.3351(3)
H31_4 H 0.724240 0.306246 0.368137
H32_4 H 0.719188 0.372906 0.321800
C36_4 C 0.6689(5) 0.2417(8) 0.3198(4)
C37_4 C 0.6634(4) 0.1352(10) 0.3280(5)
H33_4 H 0.690597 0.095203 0.343402
C38_4 C 0.6174(5) 0.0814(9) 0.3139(5)
H34_4 H 0.615166 0.005004 0.318907
C39_4 C 0.5753(4) 0.1361(9) 0.2930(4)
C40_4 C 0.5812(5) 0.2492(8) 0.2840(4)
H35_4 H 0.554241 0.289940 0.268709
C41_4 C 0.6257(5) 0.2982(9) 0.2974(4)
H36_4 H 0.628591 0.374116 0.291702
C42_4 C 0.5241(4) 0.0799(9) 0.2802(4)
C46_4 C 0.4325(4) 0.0756(10) 0.2663(4)
H39_4 H 0.401846 0.114301 0.265566
C47_4 C 0.4775(5) 0.1330(9) 0.2774(4)
H40_4 H 0.476540 0.209342 0.283035
C49_4 C 0.8094(4) 0.2599(9) 0.3508(4)
H41_4 H 0.838401 0.235816 0.336211
H42_4 H 0.811976 0.339966 0.355427
C50_4 C 0.8106(4) 0.2018(9) 0.3970(4)
C51_4 C 0.8196(5) 0.2612(9) 0.4365(4)
H43_4 H 0.825429 0.337745 0.435989
C52_4 C 0.8198(5) 0.2040(9) 0.4781(4)
H44_4 H 0.824515 0.244780 0.505241
C53_4 C 0.8134(4) 0.0897(10) 0.4806(4)
C54_4 C 0.8069(5) 0.0342(10) 0.4376(5)
C55_4 C 0.8046(4) 0.0918(10) 0.3980(3)
H46_4 H 0.798619 0.053098 0.370473
C56_4 C 0.8127(4) 0.0267(10) 0.5237(4)
C57_4 C 0.7966(5) 0.0767(9) 0.5637(5)
H47_4 H 0.786302 0.150976 0.561797
C58_4 C 0.7953(5) 0.0252(9) 0.6023(4)
H48_4 H 0.785427 0.062873 0.627343
C10_4 C 0.7583(6) 0.1408(12) 0.9826(4)
H14_4 H 0.755610 0.178993 0.954851
C11_4 C 0.7613(5) 0.0257(11) 0.9818(4)
C15_4 C 0.7458(6) 0.0040(10) 0.8949(5)
H17_4 H 0.732212 0.075748 0.892741
C12_4 C 0.7653(5) 0.9767(9) 0.0243(4)
H15_4 H 0.767985 0.899446 0.026764
H25_4 H 0.952482 0.935972 0.157234
C43_4 C 0.5225(5) 0.9633(9) 0.2680(5)
H37_4 H 0.552921 0.924502 0.267543
C44_4 C 0.4780(6) 0.9097(10) 0.2574(4)
H38_4 H 0.478364 0.833956 0.250410
C45_4 C 0.4308(4) 0.9642(9) 0.2565(3)
C48_4 C 0.3817(5) 0.9071(12) 0.2469(3)
H45_4 H 0.804181 0.956757 0.436708
C59_4 C 0.8090(4) 0.9118(10) 0.6058(4)
C60_4 C 0.8251(5) 0.8620(10) 0.5680(5)
H49_4 H 0.835018 0.787471 0.570114
C61_4 C 0.8273(5) 0.9155(10) 0.5285(4)
H50_4 H 0.838572 0.877971 0.504048
C62_4 C 0.8017(5) 0.8581(12) 0.6529(6)
C14_4 C 0.7622(5) 0.9596(12) 0.9400(4)
C16_4 C 0.7490(6) 0.9487(14) 0.8561(4)
H18_4 H 0.738019 0.982784 0.828140
C17_4 C 0.7680(6) 0.8429(16) 0.8567(4)
C18_4 C 0.7865(6) 0.7963(12) 0.8997(5)
H19_4 H 0.802058 0.726502 0.901393
C19_4 C 0.7814(6) 0.8552(13) 0.9392(4)
H20_4 H 0.792002 0.820662 0.967135
C20_4 C 0.7821(7) 0.7817(11) 0.8145(6)
loop_
_geom_bond_atom_site_label_1
_geom_bond_atom_site_label_2
_geom_bond_site_symmetry_1
_geom_bond_site_symmetry_2
O5 C62 1_555 1_555
O6 C62 1_555 1_555
C57 C56 1_555 1_555
H47 C57 1_555 1_555
C58 C57 1_555 1_555
H48 C58 1_555 1_555
C59 C58 1_555 1_555
C60 C59 1_555 1_555
H49 C60 1_555 1_555
C61 C56 1_555 1_555
H50 C61 1_555 1_555
C62 C59 1_555 1_555
Cd3 O6 1_555 1_555
Cd10 O5 1_555 1_555
O6 Cd10 1_555 1_555
C60 C61 1_555 1_555
Cd3 O1 1_555 1_555
Cd2 O3 1_555 1_555
O1 C20 1_555 1_555
O2 C20 1_555 1_555
O3 C34 1_555 1_555
O4 Cd2 1_555 1_555
N1 C4 1_555 1_555
N2 C1 1_555 1_555
C1 H1 1_555 1_555
C2 C1 1_555 1_555
H2 C2 1_555 1_555
H3 C2 1_555 1_555
C3 C2 1_555 1_555
H4 C3 1_555 1_555
H5 C3 1_555 1_555
C4 C3 1_555 1_555
H6 C4 1_555 1_555
C5 C4 1_555 1_555
H7 C5 1_555 1_555
H8 C5 1_555 1_555
C6 C1 1_555 1_555
H9 C6 1_555 1_555
H10 C6 1_555 1_555
C7 N1 1_555 1_555
H11 C7 1_555 1_555
H12 C7 1_555 1_555
C8 C7 1_555 1_555
C9 C8 1_555 1_555
H13 C9 1_555 1_555
C10 C9 1_555 1_555
H14 C10 1_555 1_555
C11 C10 1_555 1_555
C12 C11 1_555 1_555
H15 C12 1_555 1_555
C13 C8 1_555 1_555
H16 C13 1_555 1_555
C14 C11 1_555 1_555
C15 C14 1_555 1_555
H17 C15 1_555 1_555
C16 C15 1_555 1_555
H18 C16 1_555 1_555
C17 C16 1_555 1_555
C18 C17 1_555 1_555
H19 C18 1_555 1_555
C19 C14 1_555 1_555
H20 C19 1_555 1_555
C20 C17 1_555 1_555
C21 N1 1_555 1_555
H21 C21 1_555 1_555
H22 C21 1_555 1_555
C22 C21 1_555 1_555
C23 C22 1_555 1_555
H23 C23 1_555 1_555
C24 C23 1_555 1_555
H24 C24 1_555 1_555
C25 C24 1_555 1_555
C26 C25 1_555 1_555
H25 C26 1_555 1_555
C27 C22 1_555 1_555
H26 C27 1_555 1_555
C28 C25 1_555 1_555
C29 C28 1_555 1_555
H27 C29 1_555 1_555
C30 C29 1_555 1_555
H28 C30 1_555 1_555
C31 C30 1_555 1_555
C32 C31 1_555 1_555
H29 C32 1_555 1_555
C33 C28 1_555 1_555
H30 C33 1_555 1_555
C34 O4 1_555 1_555
C35 N2 1_555 1_555
H31 C35 1_555 1_555
H32 C35 1_555 1_555
C36 C35 1_555 1_555
C37 C36 1_555 1_555
H33 C37 1_555 1_555
C38 C37 1_555 1_555
H34 C38 1_555 1_555
C39 C38 1_555 1_555
C40 C39 1_555 1_555
H35 C40 1_555 1_555
C41 C36 1_555 1_555
H36 C41 1_555 1_555
C42 C39 1_555 1_555
C43 C42 1_555 1_555
H37 C43 1_555 1_555
C49 N2 1_555 1_555
H41 C49 1_555 1_555
H42 C49 1_555 1_555
C50 C49 1_555 1_555
C51 C50 1_555 1_555
H43 C51 1_555 1_555
C52 C51 1_555 1_555
C53 C52 1_555 1_555
C54 C53 1_555 1_555
H45 C54 1_555 1_555
C55 C50 1_555 1_555
H46 C55 1_555 1_555
Cd6 O3 1_555 1_555
Cd7 O4 1_555 1_555
Cd10 O1 1_555 1_555
O9 Cd2 1_555 1_555
O10 Cd3 1_555 1_555
O11 Cd3 1_555 1_555
O12 Cd3 1_555 1_555
O13 Cd2 1_555 1_555
O15 Cd2 1_555 1_555
O16 Cd2 1_555 1_555
O17 Cd3 1_555 1_555
O18 Cd2 1_555 1_555
C5 C6 1_555 1_555
C12 C13 1_555 1_555
C18 C19 1_555 1_555
C26 C27 1_555 1_555
C31 C34 1_555 1_555
C32 C33 1_555 1_555
C40 C41 1_555 1_555
C54 C55 1_555 1_555
Cd6 O16 1_555 1_555
Cd7 O9 1_555 1_555
Cd7 O15 1_555 1_555
Cd10 O12 1_555 1_555
O16 C48 1_555 1_555
O18 C48 1_555 1_555
H38 C44 1_555 1_555
C45 C44 1_555 1_555
C46 C45 1_555 1_555
H39 C46 1_555 1_555
H40 C47 1_555 1_555
C48 C45 1_555 1_555
C46 C47 1_555 1_555
Cd4 O1_2 1_555 1_555
O1_2 C20_2 1_555 1_555
O10 C20_2 1_555 1_555
H18_2 C16_2 1_555 1_555
C17_2 C16_2 1_555 1_555
C18_2 C17_2 1_555 1_555
H19_2 C18_2 1_555 1_555
C19_2 C14_2 1_555 1_555
H20_2 C19_2 1_555 1_555
C20_2 C17_2 1_555 1_555
Cd9 O1_2 1_555 1_555
O12_2 Cd4 1_555 1_555
O14 Cd4 1_555 1_555
C18_2 C19_2 1_555 1_555
Cd9 O12_2 1_555 1_555
Cd9 O14 1_555 1_555
O5_2 C62_2 1_555 1_555
O14 C62_2 1_555 1_555
O7 C48_2 1_555 1_555
O8 C48_2 1_555 1_555
H15_2 C12_2 1_555 1_555
H37_2 C43_2 1_555 1_555
C44_2 C43_2 1_555 1_555
H38_2 C44_2 1_555 1_555
C45_2 C44_2 1_555 1_555
C48_2 C45_2 1_555 1_555
C60_2 C59_2 1_555 1_555
H49_2 C60_2 1_555 1_555
H50_2 C61_2 1_555 1_555
C62_2 C59_2 1_555 1_555
Cd8 O7 1_555 1_555
Cd9 O5_2 1_555 1_555
O8 Cd8 1_555 1_555
C60_2 C61_2 1_555 1_555
H14_2 C10_2 1_555 1_555
C11_2 C10_2 1_555 1_555
H17_2 C15_2 1_555 1_555
N1_2 C4_2 1_555 1_555
N2_2 C1_2 1_555 1_555
C1_2 H1_2 1_555 1_555
C2_2 C1_2 1_555 1_555
H2_2 C2_2 1_555 1_555
H3_2 C2_2 1_555 1_555
C3_2 C2_2 1_555 1_555
H4_2 C3_2 1_555 1_555
H5_2 C3_2 1_555 1_555
C4_2 C3_2 1_555 1_555
H6_2 C4_2 1_555 1_555
C5_2 C4_2 1_555 1_555
H7_2 C5_2 1_555 1_555
H8_2 C5_2 1_555 1_555
C6_2 C1_2 1_555 1_555
H9_2 C6_2 1_555 1_555
H10_2 C6_2 1_555 1_555
C7_2 N1_2 1_555 1_555
H11_2 C7_2 1_555 1_555
H12_2 C7_2 1_555 1_555
C8_2 C7_2 1_555 1_555
C9_2 C8_2 1_555 1_555
H13_2 C9_2 1_555 1_555
C13_2 C8_2 1_555 1_555
H16_2 C13_2 1_555 1_555
C21_2 N1_2 1_555 1_555
H21_2 C21_2 1_555 1_555
H22_2 C21_2 1_555 1_555
C22_2 C21_2 1_555 1_555
C23_2 C22_2 1_555 1_555
H23_2 C23_2 1_555 1_555
C24_2 C23_2 1_555 1_555
C25_2 C24_2 1_555 1_555
C26_2 C25_2 1_555 1_555
C27_2 C22_2 1_555 1_555
H26_2 C27_2 1_555 1_555
C35_2 N2_2 1_555 1_555
H31_2 C35_2 1_555 1_555
H32_2 C35_2 1_555 1_555
C36_2 C35_2 1_555 1_555
C37_2 C36_2 1_555 1_555
H33_2 C37_2 1_555 1_555
C38_2 C37_2 1_555 1_555
H34_2 C38_2 1_555 1_555
C39_2 C38_2 1_555 1_555
C40_2 C39_2 1_555 1_555
H35_2 C40_2 1_555 1_555
C41_2 C36_2 1_555 1_555
H36_2 C41_2 1_555 1_555
C42_2 C39_2 1_555 1_555
H39_2 C46_2 1_555 1_555
C47_2 C42_2 1_555 1_555
H40_2 C47_2 1_555 1_555
C49_2 N2_2 1_555 1_555
H41_2 C49_2 1_555 1_555
H42_2 C49_2 1_555 1_555
C50_2 C49_2 1_555 1_555
C51_2 C50_2 1_555 1_555
H43_2 C51_2 1_555 1_555
C52_2 C51_2 1_555 1_555
H44_2 C52_2 1_555 1_555
C53_2 C52_2 1_555 1_555
C54_2 C53_2 1_555 1_555
C55_2 C50_2 1_555 1_555
H46_2 C55_2 1_555 1_555
C56_2 C53_2 1_555 1_555
C57_2 C56_2 1_555 1_555
H47_2 C57_2 1_555 1_555
C58_2 C57_2 1_555 1_555
H48_2 C58_2 1_555 1_555
C5_2 C6_2 1_555 1_555
C26_2 C27_2 1_555 1_555
C40_2 C41_2 1_555 1_555
C46_2 C47_2 1_555 1_555
C54_2 C55_2 1_555 1_555
Cd8 O3_2 1_555 1_555
O3_2 C34_2 1_555 1_555
O4_2 Cd8 1_555 1_555
C31_2 C30_2 1_555 1_555
C32_2 C31_2 1_555 1_555
H29_2 C32_2 1_555 1_555
H30_2 C33_2 1_555 1_555
C34_2 O4_2 1_555 1_555
Cd6 O4_2 1_555 1_555
O9_2 Cd8 1_555 1_555
O13_2 Cd8 1_555 1_555
O15_2 Cd8 1_555 1_555
C31_2 C34_2 1_555 1_555
C32_2 C33_2 1_555 1_555
Cd6 O9_2 1_555 1_555
Cd6 O15_2 1_555 1_555
C29_2 C28_2 1_555 1_555
H27_2 C29_2 1_555 1_555
O17 C48_3 1_555 1_555
O8_2 C48_3 1_555 1_555
H38_3 C44_3 1_555 1_555
C45_3 C44_3 1_555 1_555
C46_3 C45_3 1_555 1_555
H39_3 C46_3 1_555 1_555
H40_3 C47_3 1_555 1_555
C48_3 C45_3 1_555 1_555
Cd9 O17 1_555 1_555
O8_2 Cd9 1_555 1_555
C46_3 C47_3 1_555 1_555
Cd9 O11 1_555 1_555
O9_2 C20_3 1_555 1_555
O2_2 C20_3 1_555 1_555
O11 C34_3 1_555 1_555
N1_3 C4_3 1_555 1_555
N2_3 C1_3 1_555 1_555
C1_3 H1_3 1_555 1_555
C2_3 C1_3 1_555 1_555
H2_3 C2_3 1_555 1_555
H3_3 C2_3 1_555 1_555
C3_3 C2_3 1_555 1_555
H4_3 C3_3 1_555 1_555
H5_3 C3_3 1_555 1_555
C4_3 C3_3 1_555 1_555
H6_3 C4_3 1_555 1_555
C5_3 C4_3 1_555 1_555
H7_3 C5_3 1_555 1_555
H8_3 C5_3 1_555 1_555
C6_3 C1_3 1_555 1_555
H9_3 C6_3 1_555 1_555
H10_3 C6_3 1_555 1_555
C7_3 N1_3 1_555 1_555
H11_3 C7_3 1_555 1_555
H12_3 C7_3 1_555 1_555
C8_3 C7_3 1_555 1_555
C9_3 C8_3 1_555 1_555
H13_3 C9_3 1_555 1_555
C10_3 C9_3 1_555 1_555
H14_3 C10_3 1_555 1_555
C11_3 C10_3 1_555 1_555
C12_3 C11_3 1_555 1_555
H15_3 C12_3 1_555 1_555
C13_3 C8_3 1_555 1_555
H16_3 C13_3 1_555 1_555
C14_3 C11_3 1_555 1_555
C15_3 C14_3 1_555 1_555
H17_3 C15_3 1_555 1_555
C16_3 C15_3 1_555 1_555
H18_3 C16_3 1_555 1_555
C17_3 C16_3 1_555 1_555
C18_3 C17_3 1_555 1_555
H19_3 C18_3 1_555 1_555
C19_3 C14_3 1_555 1_555
H20_3 C19_3 1_555 1_555
C20_3 C17_3 1_555 1_555
C21_3 N1_3 1_555 1_555
H21_3 C21_3 1_555 1_555
H22_3 C21_3 1_555 1_555
C22_3 C21_3 1_555 1_555
C23_3 C22_3 1_555 1_555
H23_3 C23_3 1_555 1_555
C24_3 C23_3 1_555 1_555
H24_3 C24_3 1_555 1_555
C25_3 C24_3 1_555 1_555
C26_3 C25_3 1_555 1_555
H25_3 C26_3 1_555 1_555
C27_3 C22_3 1_555 1_555
H26_3 C27_3 1_555 1_555
C28_3 C25_3 1_555 1_555
C29_3 C28_3 1_555 1_555
H27_3 C29_3 1_555 1_555
C30_3 C29_3 1_555 1_555
H28_3 C30_3 1_555 1_555
C31_3 C30_3 1_555 1_555
C32_3 C31_3 1_555 1_555
H29_3 C32_3 1_555 1_555
C33_3 C28_3 1_555 1_555
H30_3 C33_3 1_555 1_555
C34_3 O12_2 1_555 1_555
C35_3 N2_3 1_555 1_555
H31_3 C35_3 1_555 1_555
H32_3 C35_3 1_555 1_555
C36_3 C35_3 1_555 1_555
C37_3 C36_3 1_555 1_555
H33_3 C37_3 1_555 1_555
C38_3 C37_3 1_555 1_555
H34_3 C38_3 1_555 1_555
C39_3 C38_3 1_555 1_555
C40_3 C39_3 1_555 1_555
H35_3 C40_3 1_555 1_555
C41_3 C36_3 1_555 1_555
H36_3 C41_3 1_555 1_555
C42_3 C39_3 1_555 1_555
C43_3 C42_3 1_555 1_555
H37_3 C43_3 1_555 1_555
C49_3 N2_3 1_555 1_555
H41_3 C49_3 1_555 1_555
H42_3 C49_3 1_555 1_555
C50_3 C49_3 1_555 1_555
C51_3 C50_3 1_555 1_555
H43_3 C51_3 1_555 1_555
C52_3 C51_3 1_555 1_555
C53_3 C52_3 1_555 1_555
C54_3 C53_3 1_555 1_555
H45_3 C54_3 1_555 1_555
C55_3 C50_3 1_555 1_555
H46_3 C55_3 1_555 1_555
O10_2 Cd6 1_555 1_555
C5_3 C6_3 1_555 1_555
C12_3 C13_3 1_555 1_555
C18_3 C19_3 1_555 1_555
C26_3 C27_3 1_555 1_555
C31_3 C34_3 1_555 1_555
C32_3 C33_3 1_555 1_555
C40_3 C41_3 1_555 1_555
C54_3 C55_3 1_555 1_555
O13_2 C62_3 1_555 1_555
O15_2 C62_3 1_555 1_555
C57_3 C56_3 1_555 1_555
H47_3 C57_3 1_555 1_555
C58_3 C57_3 1_555 1_555
H48_3 C58_3 1_555 1_555
C59_3 C58_3 1_555 1_555
C60_3 C59_3 1_555 1_555
H49_3 C60_3 1_555 1_555
C61_3 C56_3 1_555 1_555
H50_3 C61_3 1_555 1_555
C62_3 C59_3 1_555 1_555
C60_3 C61_3 1_555 1_555
C29_4 C28_4 1_555 1_555
H27_4 C29_4 1_555 1_555
Cd10 O11_2 1_555 1_555
O11_2 C34_4 1_555 1_555
C31_4 C30_4 1_555 1_555
C32_4 C31_4 1_555 1_555
H29_4 C32_4 1_555 1_555
H30_4 C33_4 1_555 1_555
C34_4 O12 1_555 1_555
O17_2 Cd10 1_555 1_555
O18_2 Cd10 1_555 1_555
C31_4 C34_4 1_555 1_555
C32_4 C33_4 1_555 1_555
N1_4 C4_4 1_555 1_555
N2_4 C1_4 1_555 1_555
C1_4 H1_4 1_555 1_555
C2_4 C1_4 1_555 1_555
H2_4 C2_4 1_555 1_555
H3_4 C2_4 1_555 1_555
C3_4 C2_4 1_555 1_555
H4_4 C3_4 1_555 1_555
H5_4 C3_4 1_555 1_555
C4_4 C3_4 1_555 1_555
H6_4 C4_4 1_555 1_555
C5_4 C4_4 1_555 1_555
H7_4 C5_4 1_555 1_555
H8_4 C5_4 1_555 1_555
C6_4 C1_4 1_555 1_555
H9_4 C6_4 1_555 1_555
H10_4 C6_4 1_555 1_555
C7_4 N1_4 1_555 1_555
H11_4 C7_4 1_555 1_555
H12_4 C7_4 1_555 1_555
C8_4 C7_4 1_555 1_555
C9_4 C8_4 1_555 1_555
H13_4 C9_4 1_555 1_555
C13_4 C8_4 1_555 1_555
H16_4 C13_4 1_555 1_555
C21_4 N1_4 1_555 1_555
H21_4 C21_4 1_555 1_555
H22_4 C21_4 1_555 1_555
C22_4 C21_4 1_555 1_555
C23_4 C22_4 1_555 1_555
H23_4 C23_4 1_555 1_555
C24_4 C23_4 1_555 1_555
C25_4 C24_4 1_555 1_555
C26_4 C25_4 1_555 1_555
C27_4 C22_4 1_555 1_555
H26_4 C27_4 1_555 1_555
C35_4 N2_4 1_555 1_555
H31_4 C35_4 1_555 1_555
H32_4 C35_4 1_555 1_555
C36_4 C35_4 1_555 1_555
C37_4 C36_4 1_555 1_555
H33_4 C37_4 1_555 1_555
C38_4 C37_4 1_555 1_555
H34_4 C38_4 1_555 1_555
C39_4 C38_4 1_555 1_555
C40_4 C39_4 1_555 1_555
H35_4 C40_4 1_555 1_555
C41_4 C36_4 1_555 1_555
H36_4 C41_4 1_555 1_555
C42_4 C39_4 1_555 1_555
H39_4 C46_4 1_555 1_555
C47_4 C42_4 1_555 1_555
H40_4 C47_4 1_555 1_555
C49_4 N2_4 1_555 1_555
H41_4 C49_4 1_555 1_555
H42_4 C49_4 1_555 1_555
C50_4 C49_4 1_555 1_555
C51_4 C50_4 1_555 1_555
H43_4 C51_4 1_555 1_555
C52_4 C51_4 1_555 1_555
H44_4 C52_4 1_555 1_555
C53_4 C52_4 1_555 1_555
C54_4 C53_4 1_555 1_555
C55_4 C50_4 1_555 1_555
H46_4 C55_4 1_555 1_555
C56_4 C53_4 1_555 1_555
C57_4 C56_4 1_555 1_555
H47_4 C57_4 1_555 1_555
C58_4 C57_4 1_555 1_555
H48_4 C58_4 1_555 1_555
C5_4 C6_4 1_555 1_555
C26_4 C27_4 1_555 1_555
C40_4 C41_4 1_555 1_555
C46_4 C47_4 1_555 1_555
C54_4 C55_4 1_555 1_555
H14_4 C10_4 1_555 1_555
C11_4 C10_4 1_555 1_555
H17_4 C15_4 1_555 1_555
O13 C62_4 1_555 1_555
O15 C62_4 1_555 1_555
O17_2 C48_4 1_555 1_555
O18_2 C48_4 1_555 1_555
H15_4 C12_4 1_555 1_555
H37_4 C43_4 1_555 1_555
C44_4 C43_4 1_555 1_555
H38_4 C44_4 1_555 1_555
C45_4 C44_4 1_555 1_555
C48_4 C45_4 1_555 1_555
C60_4 C59_4 1_555 1_555
H49_4 C60_4 1_555 1_555
H50_4 C61_4 1_555 1_555
C62_4 C59_4 1_555 1_555
C60_4 C61_4 1_555 1_555
O9 C20_4 1_555 1_555
O10_2 C20_4 1_555 1_555
H18_4 C16_4 1_555 1_555
C17_4 C16_4 1_555 1_555
C18_4 C17_4 1_555 1_555
H19_4 C18_4 1_555 1_555
C19_4 C14_4 1_555 1_555
H20_4 C19_4 1_555 1_555
C20_4 C17_4 1_555 1_555
C18_4 C19_4 1_555 1_555

#END
