
###############################################################################
#
# This file contains modified crystal structure data generated from the
# MOF subset of the Cambridge Structural Database (CSD) v543 
# hosted by the Cambridge Crystallographic Data Centre (CCDC).
#
# This work is licensed under the Creative Commons
# Attribution-NonCommercial-ShareAlike 4.0 International License.
# To view a copy of this license, visit
# http://creativecommons.org/licenses/by-nc-sa/4.0/
# or send a letter to
# Creative Commons, PO Box 1866, Mountain View, CA 94042, USA.
#
# CIF created using the CSD Python API on 29 September 2022
# The structure has been converted into the P1 space group
# The structure has a 3D framework
# The original CSD entry QACHOV is in the triclinic crystal system
# The framework has been calculated to contain at least 10.0% void space
# The void calculation uses a probe of radius 1.32A, grid spacing 0.4
#
###############################################################################

data_QACHOV
_chemical_formula_moiety         '(C126 H130 N10 Na4 O28 Zr2)n'
_symmetry_cell_setting           triclinic
_symmetry_space_group_name_H-M   'P 1'
_symmetry_Int_Tables_number      1
_space_group_name_Hall           'P 1'
loop_
_symmetry_equiv_pos_site_id
_symmetry_equiv_pos_as_xyz
1 x,y,z
_cell_length_a                   12.330(3)
_cell_length_b                   18.330(4)
_cell_length_c                   18.920(4)
_cell_angle_alpha                66.42(3)
_cell_angle_beta                 77.02(3)
_cell_angle_gamma                74.70(3)
_cell_volume                     3745.71
loop_
_atom_site_label
_atom_site_type_symbol
_atom_site_fract_x
_atom_site_fract_y
_atom_site_fract_z
_atom_site_U_iso_or_equiv
_atom_site_thermal_displace_type
Na7 Na 0.38072(11) 0.00237(7) 0.46205(7) 0.0491 Uani
Zr6 Zr 0.51073(2) 0.03420(2) 0.23030(2) 0.0418 Uani
O11 O 0.3790(2) 0.96724(14) 0.35722(15) 0.0586 Uani
O12 O 0.4851(2) 0.90736(13) 0.27992(14) 0.0579 Uani
N3 N 0.0849(2) 0.64763(15) 0.45561(17) 0.0539 Uani
C39 C 0.0233(3) 0.58248(19) 0.4739(2) 0.0537 Uani
C40 C 0.0726(4) 0.5273(2) 0.4256(2) 0.0632 Uani
H36 H 0.080892 0.561158 0.369532 0.0760 Uiso
H37 H 0.148711 0.496301 0.439304 0.0760 Uiso
C41 C 0.0064(4) 0.5320(2) 0.5580(2) 0.0616 Uani
H39 H 0.080808 0.500883 0.575040 0.0740 Uiso
C42 C 0.0594(3) 0.71226(19) 0.38249(19) 0.0513 Uani
H40 H 0.058859 0.687582 0.344648 0.0610 Uiso
H41 H 0.121133 0.743583 0.362008 0.0610 Uiso
C50 C 0.2041(3) 0.6214(2) 0.4648(3) 0.0690 Uani
H46 H 0.241601 0.587575 0.433093 0.0830 Uiso
H47 H 0.211543 0.587267 0.519969 0.0830 Uiso
C51 C 0.2647(3) 0.6921(2) 0.4405(2) 0.0610 Uani
C52 C 0.3582(3) 0.6974(2) 0.3835(3) 0.0676 Uani
H48 H 0.388351 0.654583 0.364194 0.0810 Uiso
C53 C 0.4078(3) 0.7653(2) 0.3546(3) 0.0648 Uani
H49 H 0.472940 0.767841 0.316324 0.0780 Uiso
C54 C 0.3635(3) 0.8299(2) 0.3809(2) 0.0555 Uani
C55 C 0.4100(3) 0.90592(19) 0.3393(2) 0.0533 Uani
C56 C 0.2742(3) 0.8231(2) 0.4395(2) 0.0609 Uani
H50 H 0.245674 0.864977 0.460266 0.0730 Uiso
C57 C 0.2244(3) 0.7532(2) 0.4693(2) 0.0647 Uani
H51 H 0.162156 0.748792 0.509767 0.0780 Uiso
O15 O 0.42096(19) 0.04824(14) 0.55277(12) 0.0527 Uani
O16 O 0.39118(19) 0.00961(13) 0.68069(12) 0.0517 Uani
H66 H 0.054397 0.389858 0.540569 0.0640 Uiso
H69 H 0.026882 0.432264 0.411658 0.0740 Uiso
C68 C 0.0528(3) 0.22928(18) 0.61281(18) 0.0484 Uani
C69 C 0.0940(3) 0.1762(2) 0.68172(19) 0.0539 Uani
H73 H 0.052585 0.178554 0.729843 0.0650 Uiso
C70 C 0.1936(3) 0.12022(19) 0.68182(18) 0.0507 Uani
H74 H 0.219995 0.084211 0.729680 0.0610 Uiso
C71 C 0.2559(3) 0.11642(17) 0.61127(17) 0.0455 Uani
C72 C 0.2163(3) 0.16854(18) 0.54217(18) 0.0504 Uani
H75 H 0.257798 0.166010 0.494138 0.0600 Uiso
C73 C 0.1150(3) 0.22511(18) 0.54282(18) 0.0510 Uani
H76 H 0.088304 0.261085 0.495039 0.0610 Uiso
C74 C 0.3643(3) 0.05550(17) 0.61256(16) 0.0440 Uani
H129 H 0.047581 0.994629 0.371322 0.1090 Uiso
Na9 Na 0.61928(11) 0.99763(7) 0.53795(7) 0.0491 Uani
Zr10 Zr 0.48927(2) 0.96580(2) 0.76970(2) 0.0418 Uani
Na2 Na 0.46512(11) 0.09529(8) 0.01531(7) 0.0535 Uani
O7 O 0.2932(2) 0.12854(19) 0.08029(14) 0.0682 Uani
O8 O 0.35625(18) 0.05059(13) 0.19311(13) 0.0482 Uani
N2 N 0.0463(2) 0.62581(14) 0.11681(15) 0.0473 Uani
C2 C 0.0008(3) 0.50399(19) 0.23525(18) 0.0506 Uani
H2 H 0.076455 0.470494 0.227051 0.0610 Uiso
H3 H 0.005251 0.531741 0.269621 0.0610 Uiso
H10 H 0.030014 0.494385 0.090642 0.0600 Uiso
C7 C 0.0326(3) 0.68278(18) 0.15569(19) 0.0503 Uani
H11 H 0.098092 0.710512 0.136460 0.0600 Uiso
H12 H 0.032534 0.652292 0.212286 0.0600 Uiso
C8 C 0.1661(3) 0.58943(18) 0.10296(19) 0.0501 Uani
H13 H 0.173301 0.545319 0.083615 0.0600 Uiso
H14 H 0.199415 0.565901 0.152220 0.0600 Uiso
C18 C 0.2291(3) 0.65431(18) 0.04315(18) 0.0482 Uani
C22 C 0.3794(3) 0.73047(18) 0.00464(19) 0.0511 Uani
H25 H 0.446430 0.738514 0.014900 0.0610 Uiso
C23 C 0.3270(3) 0.66722(19) 0.05697(19) 0.0522 Uani
H26 H 0.358827 0.632113 0.103134 0.0630 Uiso
C26 C 0.0038(3) 0.24114(19) 0.18835(18) 0.0495 Uani
C27 C 0.0962(3) 0.20296(19) 0.15131(18) 0.0500 Uani
H28 H 0.101479 0.214619 0.097139 0.0600 Uiso
C28 C 0.1827(3) 0.14682(18) 0.19317(17) 0.0465 Uani
C29 C 0.1739(3) 0.13036(18) 0.27240(17) 0.0460 Uani
H29 H 0.231059 0.091749 0.301675 0.0550 Uiso
C30 C 0.0813(3) 0.17062(17) 0.30844(16) 0.0451 Uani
H30 H 0.076662 0.160119 0.362324 0.0540 Uiso
C31 C 0.2835(3) 0.1077(2) 0.15125(18) 0.0504 Uani
O36 O 0.65824(18) 0.10102(13) 0.17968(12) 0.0485 Uani
O38 O 0.52107(18) 0.13854(12) 0.10938(11) 0.0466 Uani
O39 O 0.44001(18) 0.13430(12) 0.26223(12) 0.0452 Uani
O3 O 0.34176(18) 0.89898(13) 0.82032(12) 0.0485 Uani
O4 O 0.47893(18) 0.86146(12) 0.89062(11) 0.0466 Uani
O13 O 0.5631(3) 0.1603(2) 0.89809(19) 0.0879 Uani
N4 N 0.7233(3) 0.1433(2) 0.8165(2) 0.0753 Uani
C19 C 0.1850(3) 0.7044(2) 0.97383(19) 0.0524 Uani
H23 H 0.119697 0.694949 0.962626 0.0630 Uiso
C20 C 0.2365(3) 0.7676(2) 0.92150(18) 0.0523 Uani
H24 H 0.205962 0.801639 0.874537 0.0630 Uiso
C21 C 0.3325(3) 0.78194(18) 0.93704(17) 0.0476 Uani
C24 C 0.3861(3) 0.85046(18) 0.88076(17) 0.0457 Uani
C58 C 0.6299(4) 0.1225(2) 0.8587(2) 0.0697 Uani
H52 H 0.610995 0.075158 0.859520 0.0830 Uiso
C59 C 0.7974(4) 0.0977(3) 0.7705(3) 0.0744 Uani
H53 H 0.871595 0.076084 0.789211 0.1120 Uiso
H54 H 0.806942 0.133562 0.715724 0.1120 Uiso
H55 H 0.763793 0.052753 0.775479 0.1120 Uiso
C60 C 0.7592(6) 0.2145(4) 0.8129(4) 0.1182 Uani
H56 H 0.720951 0.263093 0.774436 0.1770 Uiso
H57 H 0.841546 0.208632 0.797752 0.1770 Uiso
H58 H 0.739359 0.219516 0.864111 0.1770 Uiso
Na15 Na 0.53488(11) 0.90471(8) 0.98469(7) 0.0535 Uani
O34 O 0.4017(2) 0.02448(16) 0.95539(15) 0.0636 Uani
O9 O 0.57904(19) 0.95176(14) 0.44723(12) 0.0527 Uani
O10 O 0.60882(19) 0.99039(13) 0.31931(12) 0.0517 Uani
H35 H 0.945603 0.610142 0.459431 0.0640 Uiso
H38 H 0.973118 0.567736 0.588342 0.0740 Uiso
C43 C 0.9472(3) 0.77072(18) 0.38719(18) 0.0484 Uani
C44 C 0.9060(3) 0.8238(2) 0.31828(19) 0.0539 Uani
H42 H 0.947415 0.821446 0.270157 0.0650 Uiso
C45 C 0.8064(3) 0.87978(19) 0.31818(18) 0.0507 Uani
H43 H 0.780005 0.915789 0.270320 0.0610 Uiso
C46 C 0.7441(3) 0.88358(17) 0.38873(17) 0.0455 Uani
C47 C 0.7837(3) 0.83146(18) 0.45783(18) 0.0504 Uani
H44 H 0.742202 0.833990 0.505862 0.0600 Uiso
C48 C 0.8850(3) 0.77489(18) 0.45718(18) 0.0510 Uani
H45 H 0.911696 0.738915 0.504961 0.0610 Uiso
C49 C 0.6357(3) 0.94450(17) 0.38744(16) 0.0440 Uani
O17 O 0.6210(2) 0.03276(14) 0.64278(15) 0.0586 Uani
O18 O 0.5149(2) 0.09264(13) 0.72008(14) 0.0579 Uani
N6 N 0.9151(2) 0.35237(15) 0.54439(17) 0.0539 Uani
C64 C 0.9767(3) 0.41752(19) 0.5261(2) 0.0537 Uani
C65 C 0.9274(4) 0.4727(2) 0.5744(2) 0.0632 Uani
H67 H 0.919108 0.438842 0.630468 0.0760 Uiso
H68 H 0.851289 0.503699 0.560696 0.0760 Uiso
C66 C 0.9936(4) 0.4680(2) 0.4420(2) 0.0616 Uani
H70 H 0.919192 0.499117 0.424960 0.0740 Uiso
C67 C 0.9406(3) 0.28774(19) 0.61751(19) 0.0513 Uani
H71 H 0.941141 0.312418 0.655352 0.0610 Uiso
H72 H 0.878867 0.256417 0.637992 0.0610 Uiso
C75 C 0.7959(3) 0.3786(2) 0.5352(3) 0.0690 Uani
H77 H 0.758399 0.412425 0.566907 0.0830 Uiso
H78 H 0.788457 0.412733 0.480031 0.0830 Uiso
C76 C 0.7353(3) 0.3079(2) 0.5595(2) 0.0610 Uani
C77 C 0.6418(3) 0.3026(2) 0.6165(3) 0.0676 Uani
H79 H 0.611649 0.345417 0.635806 0.0810 Uiso
C78 C 0.5922(3) 0.2347(2) 0.6454(3) 0.0648 Uani
H80 H 0.527060 0.232159 0.683676 0.0780 Uiso
C79 C 0.6365(3) 0.1701(2) 0.6191(2) 0.0555 Uani
C80 C 0.5900(3) 0.09408(19) 0.6607(2) 0.0533 Uani
C81 C 0.7258(3) 0.1769(2) 0.5605(2) 0.0609 Uani
H81 H 0.754326 0.135023 0.539734 0.0730 Uiso
C82 C 0.7756(3) 0.2468(2) 0.5307(2) 0.0647 Uani
H82 H 0.837844 0.251208 0.490233 0.0780 Uiso
O28 O 0.7658(3) 0.05068(19) 0.45433(18) 0.0794 Uani
N10 N 0.8868(3) 0.03532(17) 0.35040(17) 0.0562 Uani
C124 C 0.7897(4) 0.0661(2) 0.3824(3) 0.0674 Uani
H124 H 0.734712 0.101903 0.349704 0.0810 Uiso
C125 C 0.9080(4) 0.0525(3) 0.2666(2) 0.0706 Uani
H125 H 0.840182 0.086974 0.242995 0.1060 Uiso
H126 H 0.972014 0.080678 0.243366 0.1060 Uiso
H127 H 0.925921 0.001492 0.257303 0.1060 Uiso
O29 O 0.6144(2) 0.97345(14) 0.15919(13) 0.0569 Uani
O32 O 0.5983(2) 0.97552(16) 0.04461(15) 0.0636 Uani
O19 O 0.3856(2) 0.02655(14) 0.84081(13) 0.0569 Uani
O23 O 0.64059(19) 0.86583(13) 0.62002(12) 0.0498 Uani
O24 O 0.55999(18) 0.86570(12) 0.73777(12) 0.0452 Uani
N7 N 0.1646(2) 0.65607(14) 0.74358(15) 0.0465 Uani
C83 C 0.0307(3) 0.43245(18) 0.84319(18) 0.0469 Uani
H83 H 0.107100 0.400035 0.832090 0.0560 Uiso
C85 C 0.0866(3) 0.5510(2) 0.72520(18) 0.0521 Uani
H86 H 0.063841 0.591945 0.675077 0.0630 Uiso
H87 H 0.161702 0.518236 0.714409 0.0630 Uiso
C86 C 0.0942(3) 0.59351(18) 0.77838(18) 0.0465 Uani
H88 H 0.015295 0.622080 0.790530 0.0560 Uiso
C87 C 0.1293(3) 0.53065(19) 0.85586(19) 0.0504 Uani
H89 H 0.132978 0.558610 0.890230 0.0600 Uiso
H90 H 0.205715 0.498535 0.846673 0.0600 Uiso
C88 C 0.0445(3) 0.47406(19) 0.89553(18) 0.0501 Uani
H91 H 0.070700 0.432250 0.944293 0.0600 Uiso
C91 C 0.2774(3) 0.63035(19) 0.70638(19) 0.0493 Uani
H97 H 0.308641 0.573661 0.737916 0.0590 Uiso
H98 H 0.271785 0.632174 0.654291 0.0590 Uiso
C92 C 0.1061(3) 0.73219(18) 0.69121(18) 0.0477 Uani
H99 H 0.160337 0.769279 0.664087 0.0570 Uiso
H100 H 0.080045 0.721108 0.651302 0.0570 Uiso
C93 C 0.0751(3) 0.25450(18) 0.85759(19) 0.0487 Uani
C94 C 0.0910(3) 0.1989(2) 0.9319(2) 0.0581 Uani
H101 H 0.036574 0.203919 0.974935 0.0700 Uiso
C95 C 0.1846(3) 0.1363(2) 0.9444(2) 0.0595 Uani
H102 H 0.194947 0.099660 0.995869 0.0720 Uiso
C96 C 0.2635(3) 0.12675(19) 0.88239(19) 0.0489 Uani
C97 C 0.2520(3) 0.1840(2) 0.8086(2) 0.0571 Uani
H103 H 0.307674 0.179525 0.765962 0.0690 Uiso
C98 C 0.1591(3) 0.2482(2) 0.7965(2) 0.0581 Uani
H104 H 0.153149 0.288197 0.745866 0.0700 Uiso
C99 C 0.3577(3) 0.05436(19) 0.89533(18) 0.0484 Uani
C107 C 0.0052(2) 0.77385(17) 0.73261(17) 0.0441 Uani
H109 H 0.054810 0.721700 0.840452 0.0590 Uiso
C114 C 0.3564(2) 0.68479(17) 0.69822(18) 0.0459 Uani
C115 C 0.3747(3) 0.69307(18) 0.76431(19) 0.0507 Uani
H113 H 0.338749 0.663551 0.813882 0.0610 Uiso
C116 C 0.4445(3) 0.74370(18) 0.75897(18) 0.0486 Uani
H114 H 0.455453 0.749181 0.804585 0.0580 Uiso
C117 C 0.4987(2) 0.78670(17) 0.68637(17) 0.0436 Uani
C118 C 0.4830(3) 0.77724(18) 0.62070(18) 0.0474 Uani
H115 H 0.521230 0.804948 0.571309 0.0570 Uiso
C119 C 0.4114(3) 0.72733(19) 0.62681(18) 0.0488 Uani
H116 H 0.399939 0.722232 0.581120 0.0590 Uiso
C120 C 0.5720(3) 0.84322(16) 0.67948(17) 0.0439 Uani
C126 C 0.9740(4) 0.9793(2) 0.3959(3) 0.0725 Uani
H128 H 0.976350 0.924263 0.398849 0.1090 Uiso
H130 H 0.957183 0.980769 0.448506 0.1090 Uiso
O5 O 0.35941(19) 0.13417(13) 0.37998(12) 0.0498 Uani
N1 N 0.8354(2) 0.34393(14) 0.25642(15) 0.0465 Uani
C1 C 0.9693(3) 0.56755(18) 0.15681(18) 0.0469 Uani
H1 H 0.892900 0.599965 0.167910 0.0560 Uiso
C3 C 0.9134(3) 0.4490(2) 0.27480(18) 0.0521 Uani
H4 H 0.936159 0.408055 0.324923 0.0630 Uiso
H5 H 0.838298 0.481764 0.285591 0.0630 Uiso
C4 C 0.9058(3) 0.40649(18) 0.22162(18) 0.0465 Uani
H6 H 0.984705 0.377920 0.209470 0.0560 Uiso
C5 C 0.8707(3) 0.46935(19) 0.14414(19) 0.0504 Uani
H7 H 0.867022 0.441390 0.109770 0.0600 Uiso
H8 H 0.794285 0.501465 0.153327 0.0600 Uiso
C6 C 0.9555(3) 0.52594(19) 0.10447(18) 0.0501 Uani
H9 H 0.929300 0.567750 0.055707 0.0600 Uiso
C9 C 0.7226(3) 0.36965(19) 0.29362(19) 0.0493 Uani
H15 H 0.691359 0.426339 0.262084 0.0590 Uiso
H16 H 0.728215 0.367826 0.345709 0.0590 Uiso
C10 C 0.8939(3) 0.26781(18) 0.30879(18) 0.0477 Uani
H17 H 0.839663 0.230721 0.335913 0.0570 Uiso
H18 H 0.919955 0.278892 0.348698 0.0570 Uiso
C11 C 0.9249(3) 0.74550(18) 0.14241(19) 0.0487 Uani
C12 C 0.9090(3) 0.8011(2) 0.0681(2) 0.0581 Uani
H19 H 0.963426 0.796081 0.025065 0.0700 Uiso
C13 C 0.8154(3) 0.8637(2) 0.0556(2) 0.0595 Uani
H20 H 0.805053 0.900340 0.004131 0.0720 Uiso
C14 C 0.7365(3) 0.87325(19) 0.11761(19) 0.0489 Uani
C15 C 0.7480(3) 0.8160(2) 0.1914(2) 0.0571 Uani
H21 H 0.692326 0.820475 0.234038 0.0690 Uiso
C16 C 0.8409(3) 0.7518(2) 0.2035(2) 0.0581 Uani
H22 H 0.846851 0.711803 0.254134 0.0700 Uiso
C17 C 0.6423(3) 0.94564(19) 0.10467(18) 0.0484 Uani
C25 C 0.9948(2) 0.22615(17) 0.26739(17) 0.0441 Uani
H27 H 0.945190 0.278300 0.159548 0.0590 Uiso
C32 C 0.6436(2) 0.31521(17) 0.30178(18) 0.0459 Uani
C33 C 0.6253(3) 0.30693(18) 0.23569(19) 0.0507 Uani
H31 H 0.661251 0.336449 0.186118 0.0610 Uiso
C34 C 0.5555(3) 0.25630(18) 0.24103(18) 0.0486 Uani
H32 H 0.544547 0.250819 0.195415 0.0580 Uiso
C35 C 0.5013(2) 0.21330(17) 0.31363(17) 0.0436 Uani
C36 C 0.5170(3) 0.22276(18) 0.37930(18) 0.0474 Uani
H33 H 0.478770 0.195052 0.428691 0.0570 Uiso
C37 C 0.5886(3) 0.27267(19) 0.37319(18) 0.0488 Uani
H34 H 0.600061 0.277768 0.418880 0.0590 Uiso
C38 C 0.4280(3) 0.15678(16) 0.32052(17) 0.0439 Uani
C63 C 0.0260(4) 0.0207(2) 0.6041(3) 0.0725 Uani
H63 H 0.023650 0.075737 0.601151 0.1090 Uiso
H65 H 0.042817 0.019231 0.551494 0.1090 Uiso
O14 O 0.2342(3) 0.94932(19) 0.54567(18) 0.0794 Uani
N5 N 0.1132(3) 0.96468(17) 0.64960(17) 0.0562 Uani
C61 C 0.2103(4) 0.9339(2) 0.6176(3) 0.0674 Uani
H59 H 0.265288 0.898097 0.650296 0.0810 Uiso
C62 C 0.0920(4) 0.9475(3) 0.7334(2) 0.0706 Uani
H60 H 0.159818 0.913026 0.757005 0.1060 Uiso
H61 H 0.027986 0.919322 0.756634 0.1060 Uiso
H62 H 0.074079 0.998508 0.742697 0.1060 Uiso
O27 O 0.4369(3) 0.8397(2) 0.10191(19) 0.0879 Uani
N9 N 0.2767(3) 0.8567(2) 0.1835(2) 0.0753 Uani
C101 C 0.8150(3) 0.2956(2) 0.02617(19) 0.0524 Uani
H105 H 0.880303 0.305051 0.037374 0.0630 Uiso
C102 C 0.7635(3) 0.2324(2) 0.07850(18) 0.0523 Uani
H106 H 0.794038 0.198361 0.125463 0.0630 Uiso
C103 C 0.6675(3) 0.21806(18) 0.06296(17) 0.0476 Uani
C106 C 0.6139(3) 0.14954(18) 0.11924(17) 0.0457 Uani
C121 C 0.3701(4) 0.8775(2) 0.1413(2) 0.0697 Uani
H117 H 0.389005 0.924842 0.140480 0.0830 Uiso
C122 C 0.2026(4) 0.9023(3) 0.2295(3) 0.0744 Uani
H118 H 0.128405 0.923916 0.210789 0.1120 Uiso
H119 H 0.193058 0.866438 0.284276 0.1120 Uiso
H120 H 0.236207 0.947247 0.224521 0.1120 Uiso
C123 C 0.2408(6) 0.7855(4) 0.1871(4) 0.1182 Uani
H121 H 0.279049 0.736907 0.225564 0.1770 Uiso
H122 H 0.158454 0.791368 0.202248 0.1770 Uiso
H123 H 0.260641 0.780484 0.135889 0.1770 Uiso
O25 O 0.7068(2) 0.87146(19) 0.91971(14) 0.0682 Uani
O26 O 0.64375(18) 0.94941(13) 0.80689(13) 0.0482 Uani
N8 N 0.9537(2) 0.37419(14) 0.88319(15) 0.0473 Uani
C84 C 0.9992(3) 0.49601(19) 0.76475(18) 0.0506 Uani
H84 H 0.923545 0.529506 0.772949 0.0610 Uiso
H85 H 0.994749 0.468259 0.730379 0.0610 Uiso
H92 H 0.969986 0.505615 0.909358 0.0600 Uiso
C89 C 0.9674(3) 0.31722(18) 0.84431(19) 0.0503 Uani
H93 H 0.901908 0.289488 0.863540 0.0600 Uiso
H94 H 0.967466 0.347708 0.787714 0.0600 Uiso
C90 C 0.8339(3) 0.41057(18) 0.89704(19) 0.0501 Uani
H95 H 0.826699 0.454681 0.916385 0.0600 Uiso
H96 H 0.800585 0.434099 0.847780 0.0600 Uiso
C100 C 0.7709(3) 0.34569(18) 0.95685(18) 0.0482 Uani
C104 C 0.6206(3) 0.26953(18) 0.99536(19) 0.0511 Uani
H107 H 0.553570 0.261486 0.985100 0.0610 Uiso
C105 C 0.6730(3) 0.33278(19) 0.94303(19) 0.0522 Uani
H108 H 0.641173 0.367887 0.896866 0.0630 Uiso
C108 C 0.9962(3) 0.75886(19) 0.81165(18) 0.0495 Uani
C109 C 0.9038(3) 0.79704(19) 0.84869(18) 0.0500 Uani
H110 H 0.898521 0.785381 0.902861 0.0600 Uiso
C110 C 0.8173(3) 0.85318(18) 0.80683(17) 0.0465 Uani
C111 C 0.8261(3) 0.86964(18) 0.72760(17) 0.0460 Uani
H111 H 0.768941 0.908251 0.698325 0.0550 Uiso
C112 C 0.9187(3) 0.82938(17) 0.69156(16) 0.0451 Uani
H112 H 0.923338 0.839881 0.637676 0.0540 Uiso
C113 C 0.7165(3) 0.8923(2) 0.84875(18) 0.0504 Uani
H64 H 0.952419 0.005371 0.628678 0.1090 Uiso
loop_
_atom_site_aniso_label
_atom_site_aniso_U_11
_atom_site_aniso_U_22
_atom_site_aniso_U_33
_atom_site_aniso_U_23
_atom_site_aniso_U_13
_atom_site_aniso_U_12
Na7 0.0551 0.0457 0.0433 -0.0126 -0.005 -0.0116
Zr6 0.04984 0.03562 0.03691 -0.01009 -0.00572 -0.0084
O11 0.0706 0.0498 0.0607 -0.0213 -0.0204 -0.0088
O12 0.0684 0.043 0.0582 -0.0116 -0.0083 -0.0151
N3 0.0584 0.0379 0.0597 -0.0078 -0.0099 -0.0143
C39 0.0589 0.0421 0.0566 -0.0152 0.0007 -0.0154
C40 0.081 0.0492 0.0548 -0.0133 0.0009 -0.0224
C41 0.078 0.0503 0.0556 -0.0145 -0.0075 -0.0199
C42 0.0547 0.0445 0.0521 -0.0145 -0.0038 -0.0133
C50 0.064 0.0441 0.082 -0.0055 -0.0128 -0.008
C51 0.064 0.0453 0.064 -0.0072 -0.0162 -0.0088
C52 0.06 0.0453 0.091 -0.0187 -0.0103 -0.0091
C53 0.0582 0.0464 0.081 -0.0134 -0.0084 -0.0122
C54 0.0588 0.0484 0.0553 -0.007 -0.0151 -0.0164
C55 0.0602 0.0449 0.054 -0.0129 -0.0136 -0.012
C56 0.073 0.061 0.0521 -0.018 -0.0126 -0.0192
C57 0.064 0.073 0.0462 -0.0079 -0.0063 -0.0182
O15 0.0565 0.0565 0.0419 -0.0197 -0.0077 -0.0018
O16 0.0606 0.0493 0.0395 -0.0048 -0.0109 -0.016
C68 0.0555 0.0392 0.0504 -0.015 -0.005 -0.013
C69 0.0607 0.0518 0.0434 -0.0141 -0.0016 -0.0109
C70 0.06 0.0473 0.0399 -0.01 -0.0057 -0.0127
C71 0.0531 0.0369 0.0435 -0.0115 -0.0041 -0.0106
C72 0.0591 0.0423 0.0415 -0.0091 -0.0051 -0.0075
C73 0.0628 0.0382 0.0445 -0.0065 -0.0081 -0.0102
C74 0.0529 0.0368 0.0384 -0.0067 -0.0087 -0.0115
Na9 0.0551 0.0457 0.0433 -0.0126 -0.005 -0.0116
Zr10 0.04984 0.03562 0.03691 -0.01009 -0.00572 -0.0084
Na2 0.0608 0.0557 0.043 -0.0195 -0.0053 -0.0086
O7 0.0582 0.097 0.0479 -0.0349 -0.0107 0.004
O8 0.05 0.0447 0.0521 -0.0194 -0.0084 -0.0084
N2 0.0533 0.0346 0.05 -0.0122 -0.0049 -0.0089
C2 0.0615 0.0463 0.044 -0.0098 -0.008 -0.0201
C7 0.0549 0.0424 0.0535 -0.0157 -0.0093 -0.0104
C8 0.0537 0.0389 0.0503 -0.0095 -0.0063 -0.0082
C18 0.0528 0.0389 0.0462 -0.0102 -0.005 -0.0078
C22 0.055 0.0426 0.049 -0.0064 -0.0118 -0.0109
C23 0.0556 0.0416 0.0503 -0.0042 -0.0133 -0.0092
C26 0.0545 0.0449 0.0465 -0.0145 -0.0115 -0.0047
C27 0.0572 0.0514 0.041 -0.016 -0.0096 -0.0088
C28 0.0514 0.0451 0.0442 -0.0171 -0.0068 -0.0094
C29 0.0516 0.0434 0.0414 -0.0121 -0.0077 -0.0109
C30 0.0532 0.0412 0.0372 -0.0093 -0.0055 -0.0117
C31 0.054 0.0557 0.0474 -0.0243 -0.0083 -0.0101
O36 0.0507 0.0481 0.0392 -0.0056 -0.0063 -0.0137
O38 0.0552 0.0421 0.0385 -0.0073 -0.0083 -0.013
O39 0.0538 0.0381 0.0425 -0.0124 -0.0038 -0.0128
O3 0.0507 0.0481 0.0392 -0.0056 -0.0063 -0.0137
O4 0.0552 0.0421 0.0385 -0.0073 -0.0083 -0.013
O13 0.114 0.0774 0.0674 -0.0274 0.019 -0.0352
N4 0.095 0.079 0.0621 -0.0307 0.0091 -0.042
C19 0.0573 0.0518 0.0462 -0.0117 -0.0084 -0.0161
C20 0.0583 0.0533 0.0405 -0.0084 -0.0094 -0.0143
C21 0.0528 0.0431 0.0409 -0.0093 -0.0065 -0.0087
C24 0.0513 0.0427 0.0389 -0.011 -0.0056 -0.0087
C58 0.09 0.061 0.0528 -0.0146 0.006 -0.0287
C59 0.082 0.079 0.072 -0.034 -0.002 -0.028
C60 0.163 0.122 0.105 -0.074 0.052 -0.092
Na15 0.0608 0.0557 0.043 -0.0195 -0.0053 -0.0086
O34 0.0639 0.0675 0.066 -0.0352 -0.0243 0.0072
O9 0.0565 0.0565 0.0419 -0.0197 -0.0077 -0.0018
O10 0.0606 0.0493 0.0395 -0.0048 -0.0109 -0.016
C43 0.0555 0.0392 0.0504 -0.015 -0.005 -0.013
C44 0.0607 0.0518 0.0434 -0.0141 -0.0016 -0.0109
C45 0.06 0.0473 0.0399 -0.01 -0.0057 -0.0127
C46 0.0531 0.0369 0.0435 -0.0115 -0.0041 -0.0106
C47 0.0591 0.0423 0.0415 -0.0091 -0.0051 -0.0075
C48 0.0628 0.0382 0.0445 -0.0065 -0.0081 -0.0102
C49 0.0529 0.0368 0.0384 -0.0067 -0.0087 -0.0115
O17 0.0706 0.0498 0.0607 -0.0213 -0.0204 -0.0088
O18 0.0684 0.043 0.0582 -0.0116 -0.0083 -0.0151
N6 0.0584 0.0379 0.0597 -0.0078 -0.0099 -0.0143
C64 0.0589 0.0421 0.0566 -0.0152 0.0007 -0.0154
C65 0.081 0.0492 0.0548 -0.0133 0.0009 -0.0224
C66 0.078 0.0503 0.0556 -0.0145 -0.0075 -0.0199
C67 0.0547 0.0445 0.0521 -0.0145 -0.0038 -0.0133
C75 0.064 0.0441 0.082 -0.0055 -0.0128 -0.008
C76 0.064 0.0453 0.064 -0.0072 -0.0162 -0.0088
C77 0.06 0.0453 0.091 -0.0187 -0.0103 -0.0091
C78 0.0582 0.0464 0.081 -0.0134 -0.0084 -0.0122
C79 0.0588 0.0484 0.0553 -0.007 -0.0151 -0.0164
C80 0.0602 0.0449 0.054 -0.0129 -0.0136 -0.012
C81 0.073 0.061 0.0521 -0.018 -0.0126 -0.0192
C82 0.064 0.073 0.0462 -0.0079 -0.0063 -0.0182
O28 0.09 0.0771 0.0719 -0.0317 0.0224 -0.0381
N10 0.0629 0.0453 0.0561 -0.0135 -0.0023 -0.0163
C124 0.071 0.0527 0.077 -0.0219 0.0044 -0.0243
C125 0.083 0.068 0.059 -0.0192 0.0013 -0.027
O29 0.0693 0.0487 0.0455 -0.0175 -0.0039 -0.0024
O32 0.0639 0.0675 0.066 -0.0352 -0.0243 0.0072
O19 0.0693 0.0487 0.0455 -0.0175 -0.0039 -0.0024
O23 0.0602 0.0456 0.042 -0.0136 -0.0002 -0.017
O24 0.0538 0.0381 0.0425 -0.0124 -0.0038 -0.0128
N7 0.0499 0.0371 0.0506 -0.0137 -0.0023 -0.0126
C83 0.0507 0.0404 0.0489 -0.0137 -0.0051 -0.0129
C85 0.0648 0.0482 0.0444 -0.0123 -0.0051 -0.0217
C86 0.0511 0.0402 0.0473 -0.0121 -0.0063 -0.0135
C87 0.0571 0.0447 0.0499 -0.0134 -0.0102 -0.0141
C88 0.0595 0.0449 0.0437 -0.0108 -0.0084 -0.0137
C91 0.0491 0.0444 0.0571 -0.0217 -0.0041 -0.0108
C92 0.0529 0.0408 0.0454 -0.0122 -0.0037 -0.0106
C93 0.0545 0.0384 0.0536 -0.0164 -0.0085 -0.0092
C94 0.0601 0.063 0.048 -0.0248 -0.0079 0.001
C95 0.0607 0.066 0.0484 -0.0235 -0.0132 0.0027
C96 0.0523 0.0456 0.0514 -0.0202 -0.0097 -0.0071
C97 0.0627 0.0448 0.056 -0.0153 0.0028 -0.0115
C98 0.071 0.0414 0.0517 -0.0093 -0.003 -0.0109
C99 0.0502 0.0478 0.049 -0.0203 -0.0037 -0.0108
C107 0.0497 0.0374 0.0443 -0.0131 -0.0043 -0.0114
C114 0.0452 0.0397 0.0529 -0.018 -0.0049 -0.0079
C115 0.0581 0.0427 0.0479 -0.0128 -0.001 -0.0152
C116 0.0579 0.044 0.0432 -0.0134 -0.0059 -0.0134
C117 0.0467 0.0368 0.0437 -0.0115 -0.0063 -0.0072
C118 0.0544 0.045 0.0426 -0.0142 -0.0041 -0.0139
C119 0.0532 0.0471 0.0471 -0.0174 -0.0063 -0.0111
C120 0.0509 0.0356 0.0428 -0.012 -0.006 -0.0085
C126 0.076 0.056 0.077 -0.011 -0.013 -0.0176
O5 0.0602 0.0456 0.042 -0.0136 -0.0002 -0.017
N1 0.0499 0.0371 0.0506 -0.0137 -0.0023 -0.0126
C1 0.0507 0.0404 0.0489 -0.0137 -0.0051 -0.0129
C3 0.0648 0.0482 0.0444 -0.0123 -0.0051 -0.0217
C4 0.0511 0.0402 0.0473 -0.0121 -0.0063 -0.0135
C5 0.0571 0.0447 0.0499 -0.0134 -0.0102 -0.0141
C6 0.0595 0.0449 0.0437 -0.0108 -0.0084 -0.0137
C9 0.0491 0.0444 0.0571 -0.0217 -0.0041 -0.0108
C10 0.0529 0.0408 0.0454 -0.0122 -0.0037 -0.0106
C11 0.0545 0.0384 0.0536 -0.0164 -0.0085 -0.0092
C12 0.0601 0.063 0.048 -0.0248 -0.0079 0.001
C13 0.0607 0.066 0.0484 -0.0235 -0.0132 0.0027
C14 0.0523 0.0456 0.0514 -0.0202 -0.0097 -0.0071
C15 0.0627 0.0448 0.056 -0.0153 0.0028 -0.0115
C16 0.071 0.0414 0.0517 -0.0093 -0.003 -0.0109
C17 0.0502 0.0478 0.049 -0.0203 -0.0037 -0.0108
C25 0.0497 0.0374 0.0443 -0.0131 -0.0043 -0.0114
C32 0.0452 0.0397 0.0529 -0.018 -0.0049 -0.0079
C33 0.0581 0.0427 0.0479 -0.0128 -0.001 -0.0152
C34 0.0579 0.044 0.0432 -0.0134 -0.0059 -0.0134
C35 0.0467 0.0368 0.0437 -0.0115 -0.0063 -0.0072
C36 0.0544 0.045 0.0426 -0.0142 -0.0041 -0.0139
C37 0.0532 0.0471 0.0471 -0.0174 -0.0063 -0.0111
C38 0.0509 0.0356 0.0428 -0.012 -0.006 -0.0085
C63 0.076 0.056 0.077 -0.011 -0.013 -0.0176
O14 0.09 0.0771 0.0719 -0.0317 0.0224 -0.0381
N5 0.0629 0.0453 0.0561 -0.0135 -0.0023 -0.0163
C61 0.071 0.0527 0.077 -0.0219 0.0044 -0.0243
C62 0.083 0.068 0.059 -0.0192 0.0013 -0.027
O27 0.114 0.0774 0.0674 -0.0274 0.019 -0.0352
N9 0.095 0.079 0.0621 -0.0307 0.0091 -0.042
C101 0.0573 0.0518 0.0462 -0.0117 -0.0084 -0.0161
C102 0.0583 0.0533 0.0405 -0.0084 -0.0094 -0.0143
C103 0.0528 0.0431 0.0409 -0.0093 -0.0065 -0.0087
C106 0.0513 0.0427 0.0389 -0.011 -0.0056 -0.0087
C121 0.09 0.061 0.0528 -0.0146 0.006 -0.0287
C122 0.082 0.079 0.072 -0.034 -0.002 -0.028
C123 0.163 0.122 0.105 -0.074 0.052 -0.092
O25 0.0582 0.097 0.0479 -0.0349 -0.0107 0.004
O26 0.05 0.0447 0.0521 -0.0194 -0.0084 -0.0084
N8 0.0533 0.0346 0.05 -0.0122 -0.0049 -0.0089
C84 0.0615 0.0463 0.044 -0.0098 -0.008 -0.0201
C89 0.0549 0.0424 0.0535 -0.0157 -0.0093 -0.0104
C90 0.0537 0.0389 0.0503 -0.0095 -0.0063 -0.0082
C100 0.0528 0.0389 0.0462 -0.0102 -0.005 -0.0078
C104 0.055 0.0426 0.049 -0.0064 -0.0118 -0.0109
C105 0.0556 0.0416 0.0503 -0.0042 -0.0133 -0.0092
C108 0.0545 0.0449 0.0465 -0.0145 -0.0115 -0.0047
C109 0.0572 0.0514 0.041 -0.016 -0.0096 -0.0088
C110 0.0514 0.0451 0.0442 -0.0171 -0.0068 -0.0094
C111 0.0516 0.0434 0.0414 -0.0121 -0.0077 -0.0109
C112 0.0532 0.0412 0.0372 -0.0093 -0.0055 -0.0117
C113 0.054 0.0557 0.0474 -0.0243 -0.0083 -0.0101
loop_
_geom_bond_atom_site_label_1
_geom_bond_atom_site_label_2
_geom_bond_site_symmetry_1
_geom_bond_site_symmetry_2
O11 C55 1_555 1_555
O12 C55 1_555 1_555
N3 C39 1_555 1_555
C40 C39 1_555 1_555
H36 C40 1_555 1_555
H37 C40 1_555 1_555
C41 C39 1_555 1_555
H39 C41 1_555 1_555
C42 N3 1_555 1_555
H40 C42 1_555 1_555
H41 C42 1_555 1_555
C50 N3 1_555 1_555
H46 C50 1_555 1_555
H47 C50 1_555 1_555
C51 C50 1_555 1_555
C52 C51 1_555 1_555
H48 C52 1_555 1_555
C53 C52 1_555 1_555
H49 C53 1_555 1_555
C54 C53 1_555 1_555
C55 C54 1_555 1_555
C56 C54 1_555 1_555
H50 C56 1_555 1_555
C57 C51 1_555 1_555
H51 C57 1_555 1_555
O15 C74 1_555 1_555
O16 C74 1_555 1_555
C69 C68 1_555 1_555
H73 C69 1_555 1_555
C70 C69 1_555 1_555
H74 C70 1_555 1_555
C71 C70 1_555 1_555
C72 C71 1_555 1_555
H75 C72 1_555 1_555
C73 C68 1_555 1_555
H76 C73 1_555 1_555
C74 C71 1_555 1_555
Na7 O15 1_555 1_555
C56 C57 1_555 1_555
C72 C73 1_555 1_555
Zr6 O8 1_555 1_555
Na2 O7 1_555 1_555
O7 C31 1_555 1_555
O8 C31 1_555 1_555
H2 C2 1_555 1_555
H3 C2 1_555 1_555
C7 N2 1_555 1_555
H11 C7 1_555 1_555
H12 C7 1_555 1_555
C8 N2 1_555 1_555
H13 C8 1_555 1_555
H14 C8 1_555 1_555
C18 C8 1_555 1_555
H25 C22 1_555 1_555
C23 C18 1_555 1_555
H26 C23 1_555 1_555
C27 C26 1_555 1_555
H28 C27 1_555 1_555
C28 C27 1_555 1_555
C29 C28 1_555 1_555
H29 C29 1_555 1_555
H30 C30 1_555 1_555
C31 C28 1_555 1_555
O36 Zr6 1_555 1_555
O38 Zr6 1_555 1_555
O39 Zr6 1_555 1_555
Na2 O38 1_555 1_555
C22 C23 1_555 1_555
C29 C30 1_555 1_555
O3 C24 1_555 1_555
O4 C24 1_555 1_555
N4 C58 1_555 1_555
H23 C19 1_555 1_555
C20 C19 1_555 1_555
H24 C20 1_555 1_555
C21 C20 1_555 1_555
C24 C21 1_555 1_555
C58 O13 1_555 1_555
H52 C58 1_555 1_555
C59 N4 1_555 1_555
H53 C59 1_555 1_555
H54 C59 1_555 1_555
H55 C59 1_555 1_555
C60 N4 1_555 1_555
H56 C60 1_555 1_555
H57 C60 1_555 1_555
H58 C60 1_555 1_555
Zr10 O3 1_555 1_555
Na15 O4 1_555 1_555
O4 Zr10 1_555 1_555
O9 C49 1_555 1_555
C44 C43 1_555 1_555
H42 C44 1_555 1_555
C45 C44 1_555 1_555
H43 C45 1_555 1_555
C46 C45 1_555 1_555
C47 C46 1_555 1_555
H44 C47 1_555 1_555
C48 C43 1_555 1_555
H45 C48 1_555 1_555
C49 O10 1_555 1_555
O17 C80 1_555 1_555
O18 C80 1_555 1_555
N6 C64 1_555 1_555
H67 C65 1_555 1_555
H68 C65 1_555 1_555
H70 C66 1_555 1_555
C67 N6 1_555 1_555
H71 C67 1_555 1_555
H72 C67 1_555 1_555
C75 N6 1_555 1_555
H77 C75 1_555 1_555
H78 C75 1_555 1_555
C76 C75 1_555 1_555
C77 C76 1_555 1_555
H79 C77 1_555 1_555
C78 C77 1_555 1_555
H80 C78 1_555 1_555
C79 C78 1_555 1_555
C80 C79 1_555 1_555
C81 C79 1_555 1_555
H81 C81 1_555 1_555
C82 C76 1_555 1_555
H82 C82 1_555 1_555
N10 C124 1_555 1_555
C124 O28 1_555 1_555
H124 C124 1_555 1_555
C125 N10 1_555 1_555
H125 C125 1_555 1_555
H126 C125 1_555 1_555
H127 C125 1_555 1_555
Na9 O9 1_555 1_555
C46 C49 1_555 1_555
C47 C48 1_555 1_555
C64 C65 1_555 1_555
C64 C66 1_555 1_555
C81 C82 1_555 1_555
O19 C99 1_555 1_555
O34 C99 1_555 1_555
O23 Na9 1_555 1_555
O24 C120 1_555 1_555
N7 C86 1_555 1_555
C83 H83 1_555 1_555
H86 C85 1_555 1_555
H87 C85 1_555 1_555
C86 C85 1_555 1_555
H88 C86 1_555 1_555
C87 C86 1_555 1_555
H89 C87 1_555 1_555
H90 C87 1_555 1_555
C88 C83 1_555 1_555
H91 C88 1_555 1_555
C91 N7 1_555 1_555
H97 C91 1_555 1_555
H98 C91 1_555 1_555
C92 N7 1_555 1_555
H99 C92 1_555 1_555
H100 C92 1_555 1_555
C94 C93 1_555 1_555
H101 C94 1_555 1_555
C95 C94 1_555 1_555
H102 C95 1_555 1_555
C96 C95 1_555 1_555
C97 C96 1_555 1_555
H103 C97 1_555 1_555
C98 C93 1_555 1_555
H104 C98 1_555 1_555
C99 C96 1_555 1_555
C107 C92 1_555 1_555
C114 C91 1_555 1_555
C115 C114 1_555 1_555
H113 C115 1_555 1_555
C116 C115 1_555 1_555
H114 C116 1_555 1_555
C117 C116 1_555 1_555
C118 C117 1_555 1_555
H115 C118 1_555 1_555
C119 C114 1_555 1_555
H116 C119 1_555 1_555
C120 O23 1_555 1_555
H128 C126 1_555 1_555
H130 C126 1_555 1_555
O24 Zr10 1_555 1_555
C87 C88 1_555 1_555
C97 C98 1_555 1_555
C117 C120 1_555 1_555
C118 C119 1_555 1_555
Na7 O5 1_555 1_555
O29 C17 1_555 1_555
O32 C17 1_555 1_555
O5 C38 1_555 1_555
O39 C38 1_555 1_555
N1 C4 1_555 1_555
C1 H1 1_555 1_555
H4 C3 1_555 1_555
H5 C3 1_555 1_555
C4 C3 1_555 1_555
H6 C4 1_555 1_555
C5 C4 1_555 1_555
H7 C5 1_555 1_555
H8 C5 1_555 1_555
C6 C1 1_555 1_555
H9 C6 1_555 1_555
C9 N1 1_555 1_555
H15 C9 1_555 1_555
H16 C9 1_555 1_555
C10 N1 1_555 1_555
H17 C10 1_555 1_555
H18 C10 1_555 1_555
C12 C11 1_555 1_555
H19 C12 1_555 1_555
C13 C12 1_555 1_555
H20 C13 1_555 1_555
C14 C13 1_555 1_555
C15 C14 1_555 1_555
H21 C15 1_555 1_555
C16 C11 1_555 1_555
H22 C16 1_555 1_555
C17 C14 1_555 1_555
C25 C10 1_555 1_555
C32 C9 1_555 1_555
C33 C32 1_555 1_555
H31 C33 1_555 1_555
C34 C33 1_555 1_555
H32 C34 1_555 1_555
C35 C34 1_555 1_555
C36 C35 1_555 1_555
H33 C36 1_555 1_555
C37 C32 1_555 1_555
H34 C37 1_555 1_555
C38 C35 1_555 1_555
H63 C63 1_555 1_555
H65 C63 1_555 1_555
C5 C6 1_555 1_555
C15 C16 1_555 1_555
C36 C37 1_555 1_555
N5 C61 1_555 1_555
C61 O14 1_555 1_555
H59 C61 1_555 1_555
C62 N5 1_555 1_555
H60 C62 1_555 1_555
H61 C62 1_555 1_555
H62 C62 1_555 1_555
O36 C106 1_555 1_555
O38 C106 1_555 1_555
N9 C121 1_555 1_555
H105 C101 1_555 1_555
C102 C101 1_555 1_555
H106 C102 1_555 1_555
C103 C102 1_555 1_555
C106 C103 1_555 1_555
C121 O27 1_555 1_555
H117 C121 1_555 1_555
C122 N9 1_555 1_555
H118 C122 1_555 1_555
H119 C122 1_555 1_555
H120 C122 1_555 1_555
C123 N9 1_555 1_555
H121 C123 1_555 1_555
H122 C123 1_555 1_555
H123 C123 1_555 1_555
Zr10 O26 1_555 1_555
Na15 O25 1_555 1_555
O25 C113 1_555 1_555
O26 C113 1_555 1_555
H84 C84 1_555 1_555
H85 C84 1_555 1_555
C89 N8 1_555 1_555
H93 C89 1_555 1_555
H94 C89 1_555 1_555
C90 N8 1_555 1_555
H95 C90 1_555 1_555
H96 C90 1_555 1_555
C100 C90 1_555 1_555
H107 C104 1_555 1_555
C105 C100 1_555 1_555
H108 C105 1_555 1_555
C109 C108 1_555 1_555
H110 C109 1_555 1_555
C110 C109 1_555 1_555
C111 C110 1_555 1_555
H111 C111 1_555 1_555
H112 C112 1_555 1_555
C113 C110 1_555 1_555
C104 C105 1_555 1_555
C111 C112 1_555 1_555

#END
