
###############################################################################
#
# This file contains modified crystal structure data generated from the
# MOF subset of the Cambridge Structural Database (CSD) v543 
# hosted by the Cambridge Crystallographic Data Centre (CCDC).
#
# This work is licensed under the Creative Commons
# Attribution-NonCommercial-ShareAlike 4.0 International License.
# To view a copy of this license, visit
# http://creativecommons.org/licenses/by-nc-sa/4.0/
# or send a letter to
# Creative Commons, PO Box 1866, Mountain View, CA 94042, USA.
#
# CIF created using the CSD Python API on 29 September 2022
# The structure has been converted into the P1 space group
# The structure has a 3D framework
# The original CSD entry QACJAJ is in the monoclinic crystal system
# The framework has been calculated to contain at least 10.0% void space
# The void calculation uses a probe of radius 1.32A, grid spacing 0.4
# The framework is charged, counterions have been retained in the structure
#
###############################################################################

data_QACJAJ
_chemical_formula_moiety         '(C304 H272 Co4 K16 N16 O64)n'
_symmetry_cell_setting           triclinic
_symmetry_space_group_name_H-M   'P 1'
_symmetry_Int_Tables_number      1
_space_group_name_Hall           'P 1'
loop_
_symmetry_equiv_pos_site_id
_symmetry_equiv_pos_as_xyz
1 x,y,z
_cell_length_a                   32.349(7)
_cell_length_b                   12.005(2)
_cell_length_c                   26.750(5)
_cell_angle_alpha                90
_cell_angle_beta                 100.76(3)
_cell_angle_gamma                90
_cell_volume                     10205.7
loop_
_atom_site_label
_atom_site_type_symbol
_atom_site_fract_x
_atom_site_fract_y
_atom_site_fract_z
O4 O 0.33883(13) 0.0987(3) 0.33024(15)
H20 H 0.375824 0.039867 0.421078
Co4 Co 0.28774(2) 0.04188(5) 0.23050(2)
Co1 Co 0.78774(2) 0.45812(5) 0.73050(2)
O1 O 0.72792(11) 0.4872(3) 0.26789(13)
O2 O 0.74871(10) 0.6571(3) 0.25356(12)
O3 O 0.31700(11) 0.9459(3) 0.28746(13)
O5 O 0.32636(11) 0.7288(3) 0.70857(15)
O6 O 0.33714(10) 0.9111(3) 0.70007(13)
O7 O 0.75763(11) 0.5524(3) 0.67345(12)
O8 O 0.73853(13) 0.3933(3) 0.63238(14)
N1 N 0.61520(12) 0.7285(3) 0.43984(14)
N2 N 0.46003(12) 0.7550(3) 0.51849(14)
C1 C 0.72429(14) 0.5902(4) 0.27204(16)
C2 C 0.69257(14) 0.6373(4) 0.30018(17)
C3 C 0.68110(15) 0.7495(4) 0.29582(18)
H1 H 0.692775 0.795589 0.274197
C4 C 0.65250(15) 0.7932(4) 0.32334(18)
H2 H 0.644932 0.867929 0.319749
C5 C 0.63493(15) 0.7249(4) 0.35660(18)
C6 C 0.6469(2) 0.6147(5) 0.3611(2)
H3 H 0.635734 0.569029 0.383355
C7 C 0.67546(18) 0.5693(5) 0.3333(2)
H4 H 0.682904 0.494453 0.336829
C8 C 0.60489(15) 0.7711(4) 0.38778(18)
H5 H 0.606508 0.851744 0.388191
H6 H 0.576353 0.749897 0.372642
C9 C 0.58141(14) 0.7330(4) 0.46967(17)
H7 H 0.594058 0.712966 0.504708
C10 C 0.56053(15) 0.8470(4) 0.47193(19)
H8 H 0.546480 0.868592 0.438053
H9 H 0.581856 0.902429 0.484124
C11 C 0.52789(15) 0.8427(4) 0.50812(19)
H10 H 0.542017 0.824488 0.542396
H11 H 0.514533 0.914869 0.508919
C12 C 0.49445(14) 0.7536(4) 0.48864(17)
H12 H 0.481696 0.775059 0.453828
C13 C 0.51458(15) 0.6407(4) 0.48492(19)
H13 H 0.493008 0.587002 0.471265
H14 H 0.527780 0.616086 0.518672
C14 C 0.54754(15) 0.6450(4) 0.45082(19)
H15 H 0.533906 0.662661 0.416283
H16 H 0.560720 0.572526 0.450476
C15 C 0.42110(15) 0.7062(4) 0.4898(2)
H17 H 0.401495 0.694049 0.512635
H18 H 0.427421 0.634395 0.476389
C16 C 0.40061(14) 0.7804(4) 0.44619(18)
C17 C 0.39779(17) 0.8930(5) 0.45423(19)
H19 H 0.409433 0.922872 0.485796
C18 C 0.37742(19) 0.9638(4) 0.4151(2)
C19 C 0.35986(15) 0.9208(4) 0.36800(18)
C20 C 0.36286(16) 0.8058(4) 0.36053(19)
H21 H 0.351098 0.775227 0.329135
C21 C 0.38282(16) 0.7370(4) 0.39866(19)
H22 H 0.384479 0.660982 0.392698
C22 C 0.33715(15) 0.9957(5) 0.32579(19)
C23 C 0.47184(16) 0.7049(5) 0.56916(19)
H23 H 0.499659 0.730523 0.584952
H24 H 0.472904 0.624503 0.565893
C24 C 0.44003(15) 0.7360(4) 0.60326(18)
C25 C 0.42784(16) 0.8456(5) 0.60928(19)
H25 H 0.439513 0.902836 0.593010
C26 C 0.39816(16) 0.8706(4) 0.6396(2)
H26 H 0.390672 0.944432 0.643613
C27 C 0.37979(15) 0.7871(4) 0.66375(18)
C28 C 0.39343(19) 0.6761(5) 0.6591(2)
H27 H 0.382599 0.619250 0.676461
C29 C 0.42282(18) 0.6513(5) 0.6289(2)
H28 H 0.431107 0.577860 0.625788
C30 C 0.34518(14) 0.8095(4) 0.69332(18)
C31 C 0.65488(15) 0.7751(4) 0.4680(2)
H29 H 0.649154 0.846850 0.481893
H30 H 0.673864 0.787395 0.444389
C32 C 0.67651(16) 0.7010(4) 0.51095(19)
C33 C 0.66741(17) 0.5875(4) 0.5133(2)
H31 H 0.647494 0.555747 0.487733
C34 C 0.68731(17) 0.5215(5) 0.55287(19)
H32 H 0.680266 0.446668 0.554395
C35 C 0.71858(16) 0.5690(4) 0.59108(17)
C36 C 0.72809(18) 0.6802(5) 0.58867(19)
H33 H 0.748755 0.711905 0.613420
C37 C 0.70672(19) 0.7449(5) 0.5492(2)
H34 H 0.712977 0.820472 0.548395
C38 C 0.73950(15) 0.4966(5) 0.63461(17)
Co2 Co 0.28774(2) 0.95812(5) 0.73050(2)
Co3 Co 0.78774(2) 0.54188(5) 0.23050(2)
O9 O 0.72792(11) 0.5128(3) 0.76789(13)
O10 O 0.74871(10) 0.3429(3) 0.75356(12)
O11 O 0.81700(11) 0.5541(3) 0.78746(13)
O12 O 0.83714(10) 0.4111(3) 0.70007(13)
O2_2 O 0.24871(10) 0.1571(3) 0.25356(12)
O7_2 O 0.25763(11) 0.0524(3) 0.67345(12)
N1_2 N 0.11520(12) 0.2285(3) 0.43984(14)
C1_2 C 0.22429(14) 0.0902(4) 0.27204(16)
C2_2 C 0.19257(14) 0.1373(4) 0.30018(17)
C3_2 C 0.18110(15) 0.2495(4) 0.29582(18)
H1_2 H 0.192775 0.295589 0.274197
C4_2 C 0.15250(15) 0.2932(4) 0.32334(18)
H2_2 H 0.144932 0.367929 0.319749
C5_2 C 0.13493(15) 0.2249(4) 0.35660(18)
C6_2 C 0.1469(2) 0.1147(5) 0.3611(2)
H3_2 H 0.135734 0.069029 0.383355
C7_2 C 0.17546(18) 0.0693(5) 0.3333(2)
C8_2 C 0.10489(15) 0.2711(4) 0.38778(18)
H5_2 H 0.106508 0.351744 0.388191
H6_2 H 0.076353 0.249897 0.372642
C9_2 C 0.08141(14) 0.2330(4) 0.46967(17)
H7_2 H 0.094058 0.212966 0.504708
C10_2 C 0.06053(15) 0.3470(4) 0.47193(19)
H8_2 H 0.046480 0.368592 0.438053
H9_2 H 0.081856 0.402429 0.484124
C11_2 C 0.02789(15) 0.3427(4) 0.50812(19)
H10_2 H 0.042017 0.324488 0.542396
H11_2 H 0.014533 0.414869 0.508919
C13_2 C 0.01458(15) 0.1407(4) 0.48492(19)
H14_2 H 0.027780 0.116086 0.518672
C14_2 C 0.04754(15) 0.1450(4) 0.45082(19)
H15_2 H 0.033906 0.162661 0.416283
H16_2 H 0.060720 0.072526 0.450476
C31_2 C 0.15488(15) 0.2751(4) 0.4680(2)
H29_2 H 0.149154 0.346850 0.481893
H30_2 H 0.173864 0.287395 0.444389
C32_2 C 0.17651(16) 0.2010(4) 0.51095(19)
C33_2 C 0.16741(17) 0.0875(4) 0.5133(2)
H31_2 H 0.147494 0.055747 0.487733
C34_2 C 0.18731(17) 0.0215(5) 0.55287(19)
C35_2 C 0.21858(16) 0.0690(4) 0.59108(17)
C36_2 C 0.22809(18) 0.1802(5) 0.58867(19)
H33_2 H 0.248755 0.211905 0.613420
C37_2 C 0.20672(19) 0.2449(5) 0.5492(2)
H34_2 H 0.212977 0.320472 0.548395
O9_2 O 0.22792(11) 0.0128(3) 0.76789(13)
O11_2 O 0.31700(11) 0.0541(3) 0.78746(13)
O1_2 O 0.22792(11) 0.9872(3) 0.26789(13)
O8_2 O 0.23853(13) 0.8933(3) 0.63238(14)
H4_2 H 0.182904 0.994453 0.336829
H32_2 H 0.180266 0.946668 0.554395
C38_2 C 0.23950(15) 0.9966(5) 0.63461(17)
O10_2 O 0.24871(10) 0.8429(3) 0.75356(12)
O3_2 O 0.81700(11) 0.4459(3) 0.28746(13)
O4_2 O 0.83883(13) 0.5987(3) 0.33024(15)
O5_2 O 0.82636(11) 0.2288(3) 0.70857(15)
N2_2 N 0.96003(12) 0.2550(3) 0.51849(14)
C12_2 C 0.99445(14) 0.2536(4) 0.48864(17)
H12_2 H 0.981696 0.275059 0.453828
H13_2 H 0.993008 0.087002 0.471265
C15_2 C 0.92110(15) 0.2062(4) 0.4898(2)
H17_2 H 0.901495 0.194049 0.512635
H18_2 H 0.927421 0.134395 0.476389
C16_2 C 0.90061(14) 0.2804(4) 0.44619(18)
C17_2 C 0.89779(17) 0.3930(5) 0.45423(19)
H19_2 H 0.909433 0.422872 0.485796
C18_2 C 0.87742(19) 0.4638(4) 0.4151(2)
H20_2 H 0.875824 0.539867 0.421078
C19_2 C 0.85986(15) 0.4208(4) 0.36800(18)
C20_2 C 0.86286(16) 0.3058(4) 0.36053(19)
H21_2 H 0.851098 0.275227 0.329135
C21_2 C 0.88282(16) 0.2370(4) 0.39866(19)
H22_2 H 0.884479 0.160982 0.392698
C22_2 C 0.83715(15) 0.4957(5) 0.32579(19)
C23_2 C 0.97184(16) 0.2049(5) 0.56916(19)
H23_2 H 0.999659 0.230523 0.584952
H24_2 H 0.972904 0.124503 0.565893
C24_2 C 0.94003(15) 0.2360(4) 0.60326(18)
C25_2 C 0.92784(16) 0.3456(5) 0.60928(19)
H25_2 H 0.939513 0.402836 0.593010
C26_2 C 0.89816(16) 0.3706(4) 0.6396(2)
H26_2 H 0.890672 0.444432 0.643613
C27_2 C 0.87979(15) 0.2871(4) 0.66375(18)
C28_2 C 0.89343(19) 0.1761(5) 0.6591(2)
H27_2 H 0.882599 0.119250 0.676461
C29_2 C 0.92282(18) 0.1513(5) 0.6289(2)
H28_2 H 0.931107 0.077860 0.625788
C30_2 C 0.84518(14) 0.3095(4) 0.69332(18)
O5_3 O 0.32636(11) 0.2712(3) 0.20857(15)
O6_2 O 0.33714(10) 0.0889(3) 0.20007(13)
O7_3 O 0.75763(11) 0.4476(3) 0.17345(12)
O8_3 O 0.73853(13) 0.6067(3) 0.13238(14)
N2_3 N 0.46003(12) 0.2450(3) 0.01849(14)
H7_3 H 0.594058 0.287034 0.004708
C11_3 C 0.52789(15) 0.1573(4) 0.00812(19)
H10_3 H 0.542017 0.175512 0.042396
H11_3 H 0.514533 0.085131 0.008919
H14_3 H 0.527780 0.383914 0.018672
H17_3 H 0.401495 0.305951 0.012635
C23_3 C 0.47184(16) 0.2951(5) 0.06916(19)
H23_3 H 0.499659 0.269477 0.084952
H24_3 H 0.472904 0.375497 0.065893
C24_3 C 0.44003(15) 0.2640(4) 0.10326(18)
C25_3 C 0.42784(16) 0.1544(5) 0.10928(19)
H25_3 H 0.439513 0.097164 0.093010
C26_3 C 0.39816(16) 0.1294(4) 0.1396(2)
H26_3 H 0.390672 0.055568 0.143613
C27_3 C 0.37979(15) 0.2129(4) 0.16375(18)
C28_3 C 0.39343(19) 0.3239(5) 0.1591(2)
H27_3 H 0.382599 0.380750 0.176461
C29_3 C 0.42282(18) 0.3487(5) 0.1289(2)
H28_3 H 0.431107 0.422140 0.125788
C30_3 C 0.34518(14) 0.1905(4) 0.19332(18)
C32_3 C 0.67651(16) 0.2990(4) 0.01095(19)
C33_3 C 0.66741(17) 0.4125(4) 0.0133(2)
C34_3 C 0.68731(17) 0.4785(5) 0.05287(19)
H32_3 H 0.680266 0.553332 0.054395
C35_3 C 0.71858(16) 0.4310(4) 0.09108(17)
C36_3 C 0.72809(18) 0.3198(5) 0.08867(19)
H33_3 H 0.748755 0.288095 0.113420
C37_3 C 0.70672(19) 0.2551(5) 0.0492(2)
H34_3 H 0.712977 0.179528 0.048395
C38_3 C 0.73950(15) 0.5034(5) 0.13461(17)
O12_2 O 0.83714(10) 0.5889(3) 0.20007(13)
N1_3 N 0.61520(12) 0.2715(3) 0.93984(14)
C1_3 C 0.72429(14) 0.4098(4) 0.77204(16)
C2_3 C 0.69257(14) 0.3627(4) 0.80018(17)
C3_3 C 0.68110(15) 0.2505(4) 0.79582(18)
H1_3 H 0.692775 0.204411 0.774197
C4_3 C 0.65250(15) 0.2068(4) 0.82334(18)
H2_3 H 0.644932 0.132071 0.819749
C5_3 C 0.63493(15) 0.2751(4) 0.85660(18)
C6_3 C 0.6469(2) 0.3853(5) 0.8611(2)
H3_3 H 0.635734 0.430971 0.883355
C7_3 C 0.67546(18) 0.4307(5) 0.8333(2)
H4_3 H 0.682904 0.505547 0.836829
C8_3 C 0.60489(15) 0.2289(4) 0.88778(18)
H5_3 H 0.606508 0.148256 0.888191
H6_3 H 0.576353 0.250103 0.872642
C9_3 C 0.58141(14) 0.2670(4) 0.96967(17)
C10_3 C 0.56053(15) 0.1530(4) 0.97193(19)
H8_3 H 0.546480 0.131408 0.938053
H9_3 H 0.581856 0.097571 0.984124
C12_3 C 0.49445(14) 0.2464(4) 0.98864(17)
H12_3 H 0.481696 0.224941 0.953828
C13_3 C 0.51458(15) 0.3593(4) 0.98492(19)
H13_3 H 0.493008 0.412998 0.971265
C14_3 C 0.54754(15) 0.3550(4) 0.95082(19)
H15_3 H 0.533906 0.337339 0.916283
H16_3 H 0.560720 0.427474 0.950476
C15_3 C 0.42110(15) 0.2938(4) 0.9898(2)
H18_3 H 0.427421 0.365605 0.976389
C16_3 C 0.40061(14) 0.2196(4) 0.94619(18)
C17_3 C 0.39779(17) 0.1070(5) 0.95423(19)
H19_3 H 0.409433 0.077128 0.985796
C18_3 C 0.37742(19) 0.0362(4) 0.9151(2)
C19_3 C 0.35986(15) 0.0792(4) 0.86800(18)
C20_3 C 0.36286(16) 0.1942(4) 0.86053(19)
H21_3 H 0.351098 0.224773 0.829135
C21_3 C 0.38282(16) 0.2630(4) 0.89866(19)
H22_3 H 0.384479 0.339018 0.892698
C22_3 C 0.33715(15) 0.0043(5) 0.82579(19)
C31_3 C 0.65488(15) 0.2249(4) 0.9680(2)
H29_3 H 0.649154 0.153150 0.981893
H30_3 H 0.673864 0.212605 0.944389
H31_3 H 0.647494 0.444253 0.987733
O4_3 O 0.33883(13) 0.9013(3) 0.83024(15)
H20_3 H 0.375824 0.960133 0.921078
O8_4 O 0.23853(13) 0.1067(3) 0.13238(14)
H32_4 H 0.180266 0.053332 0.054395
C38_4 C 0.23950(15) 0.0034(5) 0.13461(17)
H4_4 H 0.182904 0.005547 0.836829
O7_4 O 0.25763(11) 0.9476(3) 0.17345(12)
H7_4 H 0.094058 0.787034 0.004708
C11_4 C 0.02789(15) 0.6573(4) 0.00812(19)
H10_4 H 0.042017 0.675512 0.042396
H11_4 H 0.014533 0.585131 0.008919
H14_4 H 0.027780 0.883914 0.018672
C32_4 C 0.17651(16) 0.7990(4) 0.01095(19)
C33_4 C 0.16741(17) 0.9125(4) 0.0133(2)
C34_4 C 0.18731(17) 0.9785(5) 0.05287(19)
C35_4 C 0.21858(16) 0.9310(4) 0.09108(17)
C36_4 C 0.22809(18) 0.8198(5) 0.08867(19)
H33_4 H 0.248755 0.788095 0.113420
C37_4 C 0.20672(19) 0.7551(5) 0.0492(2)
H34_4 H 0.212977 0.679528 0.048395
N1_4 N 0.11520(12) 0.7715(3) 0.93984(14)
C1_4 C 0.22429(14) 0.9098(4) 0.77204(16)
C2_4 C 0.19257(14) 0.8627(4) 0.80018(17)
C3_4 C 0.18110(15) 0.7505(4) 0.79582(18)
H1_4 H 0.192775 0.704411 0.774197
C4_4 C 0.15250(15) 0.7068(4) 0.82334(18)
H2_4 H 0.144932 0.632071 0.819749
C5_4 C 0.13493(15) 0.7751(4) 0.85660(18)
C6_4 C 0.1469(2) 0.8853(5) 0.8611(2)
H3_4 H 0.135734 0.930971 0.883355
C7_4 C 0.17546(18) 0.9307(5) 0.8333(2)
C8_4 C 0.10489(15) 0.7289(4) 0.88778(18)
H5_4 H 0.106508 0.648256 0.888191
H6_4 H 0.076353 0.750103 0.872642
C9_4 C 0.08141(14) 0.7670(4) 0.96967(17)
C10_4 C 0.06053(15) 0.6530(4) 0.97193(19)
H8_4 H 0.046480 0.631408 0.938053
H9_4 H 0.081856 0.597571 0.984124
C13_4 C 0.01458(15) 0.8593(4) 0.98492(19)
C14_4 C 0.04754(15) 0.8550(4) 0.95082(19)
H15_4 H 0.033906 0.837339 0.916283
H16_4 H 0.060720 0.927474 0.950476
C31_4 C 0.15488(15) 0.7249(4) 0.9680(2)
H29_4 H 0.149154 0.653150 0.981893
H30_4 H 0.173864 0.712605 0.944389
H31_4 H 0.147494 0.944253 0.987733
O5_4 O 0.82636(11) 0.7712(3) 0.20857(15)
N2_4 N 0.96003(12) 0.7450(3) 0.01849(14)
H17_4 H 0.901495 0.805951 0.012635
C23_4 C 0.97184(16) 0.7951(5) 0.06916(19)
H23_4 H 0.999659 0.769477 0.084952
H24_4 H 0.972904 0.875497 0.065893
C24_4 C 0.94003(15) 0.7640(4) 0.10326(18)
C25_4 C 0.92784(16) 0.6544(5) 0.10928(19)
H25_4 H 0.939513 0.597164 0.093010
C26_4 C 0.89816(16) 0.6294(4) 0.1396(2)
H26_4 H 0.890672 0.555568 0.143613
C27_4 C 0.87979(15) 0.7129(4) 0.16375(18)
C28_4 C 0.89343(19) 0.8239(5) 0.1591(2)
H27_4 H 0.882599 0.880750 0.176461
C29_4 C 0.92282(18) 0.8487(5) 0.1289(2)
H28_4 H 0.931107 0.922140 0.125788
C30_4 C 0.84518(14) 0.6905(4) 0.19332(18)
O4_4 O 0.83883(13) 0.4013(3) 0.83024(15)
C12_4 C 0.99445(14) 0.7464(4) 0.98864(17)
H12_4 H 0.981696 0.724941 0.953828
H13_4 H 0.993008 0.912998 0.971265
C15_4 C 0.92110(15) 0.7938(4) 0.9898(2)
H18_4 H 0.927421 0.865605 0.976389
C16_4 C 0.90061(14) 0.7196(4) 0.94619(18)
C17_4 C 0.89779(17) 0.6070(5) 0.95423(19)
H19_4 H 0.909433 0.577128 0.985796
C18_4 C 0.87742(19) 0.5362(4) 0.9151(2)
H20_4 H 0.875824 0.460133 0.921078
C19_4 C 0.85986(15) 0.5792(4) 0.86800(18)
C20_4 C 0.86286(16) 0.6942(4) 0.86053(19)
H21_4 H 0.851098 0.724773 0.829135
C21_4 C 0.88282(16) 0.7630(4) 0.89866(19)
H22_4 H 0.884479 0.839018 0.892698
C22_4 C 0.83715(15) 0.5043(5) 0.82579(19)
O4_5 O 0.66117(13) 0.0987(3) 0.16976(15)
H20_5 H 0.624176 0.039867 0.078922
Co4_2 Co 0.71226(2) 0.04188(5) 0.26950(2)
O1_3 O 0.27208(11) 0.4872(3) 0.23211(13)
O2_3 O 0.25129(10) 0.6571(3) 0.24644(12)
O3_3 O 0.68300(11) 0.9459(3) 0.21254(13)
N1_5 N 0.38480(12) 0.7285(3) 0.06016(14)
C1_5 C 0.27571(14) 0.5902(4) 0.22796(16)
C2_5 C 0.30743(14) 0.6373(4) 0.19982(17)
C3_5 C 0.31890(15) 0.7495(4) 0.20418(18)
H1_5 H 0.307225 0.795589 0.225803
C4_5 C 0.34750(15) 0.7932(4) 0.17666(18)
H2_5 H 0.355068 0.867929 0.180251
C5_5 C 0.36507(15) 0.7249(4) 0.14340(18)
C6_5 C 0.3531(2) 0.6147(5) 0.1389(2)
H3_5 H 0.364266 0.569029 0.116645
C7_5 C 0.32454(18) 0.5693(5) 0.1667(2)
H4_5 H 0.317096 0.494453 0.163171
C8_5 C 0.39511(15) 0.7711(4) 0.11222(18)
H5_5 H 0.393492 0.851744 0.111809
H6_5 H 0.423647 0.749897 0.127358
C9_5 C 0.41859(14) 0.7330(4) 0.03033(17)
C10_5 C 0.43947(15) 0.8470(4) 0.02807(19)
H8_5 H 0.453520 0.868592 0.061947
H9_5 H 0.418144 0.902429 0.015876
C12_5 C 0.50555(14) 0.7536(4) 0.01136(17)
H12_5 H 0.518304 0.775059 0.046172
C13_5 C 0.48542(15) 0.6407(4) 0.01508(19)
H13_5 H 0.506992 0.587002 0.028735
C14_5 C 0.45246(15) 0.6450(4) 0.04918(19)
H15_5 H 0.466094 0.662661 0.083717
H16_5 H 0.439280 0.572526 0.049524
C15_5 C 0.57890(15) 0.7062(4) 0.0102(2)
H18_5 H 0.572579 0.634395 0.023611
C16_5 C 0.59939(14) 0.7804(4) 0.05381(18)
C17_5 C 0.60221(17) 0.8930(5) 0.04577(19)
H19_5 H 0.590567 0.922872 0.014204
C18_5 C 0.62258(19) 0.9638(4) 0.0849(2)
C19_5 C 0.64014(15) 0.9208(4) 0.13200(18)
C20_5 C 0.63714(16) 0.8058(4) 0.13947(19)
H21_5 H 0.648902 0.775227 0.170865
C21_5 C 0.61718(16) 0.7370(4) 0.10134(19)
H22_5 H 0.615521 0.660982 0.107302
C22_5 C 0.66285(15) 0.9957(5) 0.17421(19)
C31_5 C 0.34512(15) 0.7751(4) 0.0320(2)
H29_5 H 0.350846 0.846850 0.018107
H30_5 H 0.326136 0.787395 0.055611
H31_5 H 0.352506 0.555747 0.012267
Co3_2 Co 0.21226(2) 0.54188(5) 0.26950(2)
Co1_2 Co 0.21226(2) 0.45812(5) 0.76950(2)
O5_5 O 0.67364(11) 0.7288(3) 0.79143(15)
O6_3 O 0.66286(10) 0.9111(3) 0.79993(13)
O7_5 O 0.24237(11) 0.5524(3) 0.82655(12)
O8_5 O 0.26147(13) 0.3933(3) 0.86762(14)
N2_5 N 0.53997(12) 0.7550(3) 0.98151(14)
H7_5 H 0.405942 0.712966 0.995292
C11_5 C 0.47211(15) 0.8427(4) 0.99188(19)
H10_5 H 0.457983 0.824488 0.957604
H11_5 H 0.485467 0.914869 0.991081
H14_5 H 0.472220 0.616086 0.981328
H17_5 H 0.598505 0.694049 0.987365
C23_5 C 0.52816(16) 0.7049(5) 0.93084(19)
H23_5 H 0.500341 0.730523 0.915048
H24_5 H 0.527096 0.624503 0.934107
C24_5 C 0.55997(15) 0.7360(4) 0.89674(18)
C25_5 C 0.57216(16) 0.8456(5) 0.89072(19)
H25_5 H 0.560487 0.902836 0.906990
C26_5 C 0.60184(16) 0.8706(4) 0.8604(2)
H26_5 H 0.609328 0.944432 0.856387
C27_5 C 0.62021(15) 0.7871(4) 0.83625(18)
C28_5 C 0.60657(19) 0.6761(5) 0.8409(2)
H27_5 H 0.617401 0.619250 0.823539
C29_5 C 0.57718(18) 0.6513(5) 0.8711(2)
H28_5 H 0.568893 0.577860 0.874212
C30_5 C 0.65482(14) 0.8095(4) 0.80668(18)
C32_5 C 0.32349(16) 0.7010(4) 0.98905(19)
C33_5 C 0.33259(17) 0.5875(4) 0.9867(2)
C34_5 C 0.31269(17) 0.5215(5) 0.94713(19)
H32_5 H 0.319734 0.446668 0.945605
C35_5 C 0.28142(16) 0.5690(4) 0.90892(17)
C36_5 C 0.27191(18) 0.6802(5) 0.91133(19)
H33_5 H 0.251245 0.711905 0.886580
C37_5 C 0.29328(19) 0.7449(5) 0.9508(2)
H34_5 H 0.287023 0.820472 0.951605
C38_5 C 0.26050(15) 0.4966(5) 0.86539(17)
Co2_2 Co 0.71226(2) 0.95812(5) 0.76950(2)
O9_3 O 0.27208(11) 0.5128(3) 0.73211(13)
O10_3 O 0.25129(10) 0.3429(3) 0.74644(12)
O11_3 O 0.18300(11) 0.5541(3) 0.71254(13)
O12_3 O 0.16286(10) 0.4111(3) 0.79993(13)
O3_4 O 0.18300(11) 0.4459(3) 0.21254(13)
O4_6 O 0.16117(13) 0.5987(3) 0.16976(15)
C12_6 C 0.00555(14) 0.2536(4) 0.01136(17)
H12_6 H 0.018304 0.275059 0.046172
H13_6 H 0.006992 0.087002 0.028735
C15_6 C 0.07890(15) 0.2062(4) 0.0102(2)
H18_6 H 0.072579 0.134395 0.023611
C16_6 C 0.09939(14) 0.2804(4) 0.05381(18)
C17_6 C 0.10221(17) 0.3930(5) 0.04577(19)
H19_6 H 0.090567 0.422872 0.014204
C18_6 C 0.12258(19) 0.4638(4) 0.0849(2)
H20_6 H 0.124176 0.539867 0.078922
C19_6 C 0.14014(15) 0.4208(4) 0.13200(18)
C20_6 C 0.13714(16) 0.3058(4) 0.13947(19)
H21_6 H 0.148902 0.275227 0.170865
C21_6 C 0.11718(16) 0.2370(4) 0.10134(19)
H22_6 H 0.115521 0.160982 0.107302
C22_6 C 0.16285(15) 0.4957(5) 0.17421(19)
O5_6 O 0.17364(11) 0.2288(3) 0.79143(15)
N2_6 N 0.03997(12) 0.2550(3) 0.98151(14)
H17_6 H 0.098505 0.194049 0.987365
C23_6 C 0.02816(16) 0.2049(5) 0.93084(19)
H23_6 H 0.000341 0.230523 0.915048
H24_6 H 0.027096 0.124503 0.934107
C24_6 C 0.05997(15) 0.2360(4) 0.89674(18)
C25_6 C 0.07216(16) 0.3456(5) 0.89072(19)
H25_6 H 0.060487 0.402836 0.906990
C26_6 C 0.10184(16) 0.3706(4) 0.8604(2)
H26_6 H 0.109328 0.444432 0.856387
C27_6 C 0.12021(15) 0.2871(4) 0.83625(18)
C28_6 C 0.10657(19) 0.1761(5) 0.8409(2)
H27_6 H 0.117401 0.119250 0.823539
C29_6 C 0.07718(18) 0.1513(5) 0.8711(2)
H28_6 H 0.068893 0.077860 0.874212
C30_6 C 0.15482(14) 0.3095(4) 0.80668(18)
O2_4 O 0.75129(10) 0.1571(3) 0.24644(12)
N1_6 N 0.88480(12) 0.2285(3) 0.06016(14)
C1_6 C 0.77571(14) 0.0902(4) 0.22796(16)
C2_6 C 0.80743(14) 0.1373(4) 0.19982(17)
C3_6 C 0.81890(15) 0.2495(4) 0.20418(18)
H1_6 H 0.807225 0.295589 0.225803
C4_6 C 0.84750(15) 0.2932(4) 0.17666(18)
H2_6 H 0.855068 0.367929 0.180251
C5_6 C 0.86507(15) 0.2249(4) 0.14340(18)
C6_6 C 0.8531(2) 0.1147(5) 0.1389(2)
H3_6 H 0.864266 0.069029 0.116645
C7_6 C 0.82454(18) 0.0693(5) 0.1667(2)
C8_6 C 0.89511(15) 0.2711(4) 0.11222(18)
H5_6 H 0.893492 0.351744 0.111809
H6_6 H 0.923647 0.249897 0.127358
C9_6 C 0.91859(14) 0.2330(4) 0.03033(17)
C10_6 C 0.93947(15) 0.3470(4) 0.02807(19)
H8_6 H 0.953520 0.368592 0.061947
H9_6 H 0.918144 0.402429 0.015876
C13_6 C 0.98542(15) 0.1407(4) 0.01508(19)
C14_6 C 0.95246(15) 0.1450(4) 0.04918(19)
H15_6 H 0.966094 0.162661 0.083717
H16_6 H 0.939280 0.072526 0.049524
C31_6 C 0.84512(15) 0.2751(4) 0.0320(2)
H29_6 H 0.850846 0.346850 0.018107
H30_6 H 0.826136 0.287395 0.055611
H31_6 H 0.852506 0.055747 0.012267
O7_6 O 0.74237(11) 0.0524(3) 0.82655(12)
H7_6 H 0.905942 0.212966 0.995292
C11_6 C 0.97211(15) 0.3427(4) 0.99188(19)
H10_6 H 0.957983 0.324488 0.957604
H11_6 H 0.985467 0.414869 0.991081
H14_6 H 0.972220 0.116086 0.981328
C32_6 C 0.82349(16) 0.2010(4) 0.98905(19)
C33_6 C 0.83259(17) 0.0875(4) 0.9867(2)
C34_6 C 0.81269(17) 0.0215(5) 0.94713(19)
C35_6 C 0.78142(16) 0.0690(4) 0.90892(17)
C36_6 C 0.77191(18) 0.1802(5) 0.91133(19)
H33_6 H 0.751245 0.211905 0.886580
C37_6 C 0.79328(19) 0.2449(5) 0.9508(2)
H34_6 H 0.787023 0.320472 0.951605
O9_4 O 0.77208(11) 0.0128(3) 0.73211(13)
O11_4 O 0.68300(11) 0.0541(3) 0.71254(13)
O1_4 O 0.77208(11) 0.9872(3) 0.23211(13)
H4_6 H 0.817096 0.994453 0.163171
O8_6 O 0.76147(13) 0.8933(3) 0.86762(14)
H32_6 H 0.819734 0.946668 0.945605
C38_6 C 0.76050(15) 0.9966(5) 0.86539(17)
O10_4 O 0.75129(10) 0.8429(3) 0.74644(12)
O5_7 O 0.67364(11) 0.2712(3) 0.29143(15)
O6_4 O 0.66286(10) 0.0889(3) 0.29993(13)
O7_7 O 0.24237(11) 0.4476(3) 0.32655(12)
O8_7 O 0.26147(13) 0.6067(3) 0.36762(14)
N1_7 N 0.38480(12) 0.2715(3) 0.56016(14)
N2_7 N 0.53997(12) 0.2450(3) 0.48151(14)
C1_7 C 0.27571(14) 0.4098(4) 0.72796(16)
C2_7 C 0.30743(14) 0.3627(4) 0.69982(17)
C3_7 C 0.31890(15) 0.2505(4) 0.70418(18)
H1_7 H 0.307225 0.204411 0.725803
C4_7 C 0.34750(15) 0.2068(4) 0.67666(18)
H2_7 H 0.355068 0.132071 0.680251
C5_7 C 0.36507(15) 0.2751(4) 0.64340(18)
C6_7 C 0.3531(2) 0.3853(5) 0.6389(2)
H3_7 H 0.364266 0.430971 0.616645
C7_7 C 0.32454(18) 0.4307(5) 0.6667(2)
H4_7 H 0.317096 0.505547 0.663171
C8_7 C 0.39511(15) 0.2289(4) 0.61222(18)
H5_7 H 0.393492 0.148256 0.611809
H6_7 H 0.423647 0.250103 0.627358
C9_7 C 0.41859(14) 0.2670(4) 0.53033(17)
H7_7 H 0.405942 0.287034 0.495292
C10_7 C 0.43947(15) 0.1530(4) 0.52807(19)
H8_7 H 0.453520 0.131408 0.561947
H9_7 H 0.418144 0.097571 0.515876
C11_7 C 0.47211(15) 0.1573(4) 0.49188(19)
H10_7 H 0.457983 0.175512 0.457604
H11_7 H 0.485467 0.085131 0.491081
C12_7 C 0.50555(14) 0.2464(4) 0.51136(17)
H12_7 H 0.518304 0.224941 0.546172
C13_7 C 0.48542(15) 0.3593(4) 0.51508(19)
H13_7 H 0.506992 0.412998 0.528735
H14_7 H 0.472220 0.383914 0.481328
C14_7 C 0.45246(15) 0.3550(4) 0.54918(19)
H15_7 H 0.466094 0.337339 0.583717
H16_7 H 0.439280 0.427474 0.549524
C15_7 C 0.57890(15) 0.2938(4) 0.5102(2)
H17_7 H 0.598505 0.305951 0.487365
H18_7 H 0.572579 0.365605 0.523611
C16_7 C 0.59939(14) 0.2196(4) 0.55381(18)
C17_7 C 0.60221(17) 0.1070(5) 0.54577(19)
H19_7 H 0.590567 0.077128 0.514204
C18_7 C 0.62258(19) 0.0362(4) 0.5849(2)
C19_7 C 0.64014(15) 0.0792(4) 0.63200(18)
C20_7 C 0.63714(16) 0.1942(4) 0.63947(19)
H21_7 H 0.648902 0.224773 0.670865
C21_7 C 0.61718(16) 0.2630(4) 0.60134(19)
H22_7 H 0.615521 0.339018 0.607302
C22_7 C 0.66285(15) 0.0043(5) 0.67421(19)
C23_7 C 0.52816(16) 0.2951(5) 0.43084(19)
H23_7 H 0.500341 0.269477 0.415048
H24_7 H 0.527096 0.375497 0.434107
C24_7 C 0.55997(15) 0.2640(4) 0.39674(18)
C25_7 C 0.57216(16) 0.1544(5) 0.39072(19)
H25_7 H 0.560487 0.097164 0.406990
C26_7 C 0.60184(16) 0.1294(4) 0.3604(2)
H26_7 H 0.609328 0.055568 0.356387
C27_7 C 0.62021(15) 0.2129(4) 0.33625(18)
C28_7 C 0.60657(19) 0.3239(5) 0.3409(2)
H27_7 H 0.617401 0.380750 0.323539
C29_7 C 0.57718(18) 0.3487(5) 0.3711(2)
H28_7 H 0.568893 0.422140 0.374212
C30_7 C 0.65482(14) 0.1905(4) 0.30668(18)
C31_7 C 0.34512(15) 0.2249(4) 0.5320(2)
H29_7 H 0.350846 0.153150 0.518107
H30_7 H 0.326136 0.212605 0.555611
C32_7 C 0.32349(16) 0.2990(4) 0.48905(19)
C33_7 C 0.33259(17) 0.4125(4) 0.4867(2)
H31_7 H 0.352506 0.444253 0.512267
C34_7 C 0.31269(17) 0.4785(5) 0.44713(19)
H32_7 H 0.319734 0.553332 0.445605
C35_7 C 0.28142(16) 0.4310(4) 0.40892(17)
C36_7 C 0.27191(18) 0.3198(5) 0.41133(19)
H33_7 H 0.251245 0.288095 0.386580
C37_7 C 0.29328(19) 0.2551(5) 0.4508(2)
H34_7 H 0.287023 0.179528 0.451605
C38_7 C 0.26050(15) 0.5034(5) 0.36539(17)
O12_4 O 0.16286(10) 0.5889(3) 0.29993(13)
O4_7 O 0.66117(13) 0.9013(3) 0.66976(15)
H20_7 H 0.624176 0.960133 0.578922
O4_8 O 0.16117(13) 0.4013(3) 0.66976(15)
O5_8 O 0.17364(11) 0.7712(3) 0.29143(15)
N2_8 N 0.03997(12) 0.7450(3) 0.48151(14)
C12_8 C 0.00555(14) 0.7464(4) 0.51136(17)
H12_8 H 0.018304 0.724941 0.546172
H13_8 H 0.006992 0.912998 0.528735
C15_8 C 0.07890(15) 0.7938(4) 0.5102(2)
H17_8 H 0.098505 0.805951 0.487365
H18_8 H 0.072579 0.865605 0.523611
C16_8 C 0.09939(14) 0.7196(4) 0.55381(18)
C17_8 C 0.10221(17) 0.6070(5) 0.54577(19)
H19_8 H 0.090567 0.577128 0.514204
C18_8 C 0.12258(19) 0.5362(4) 0.5849(2)
H20_8 H 0.124176 0.460133 0.578922
C19_8 C 0.14014(15) 0.5792(4) 0.63200(18)
C20_8 C 0.13714(16) 0.6942(4) 0.63947(19)
H21_8 H 0.148902 0.724773 0.670865
C21_8 C 0.11718(16) 0.7630(4) 0.60134(19)
H22_8 H 0.115521 0.839018 0.607302
C22_8 C 0.16285(15) 0.5043(5) 0.67421(19)
C23_8 C 0.02816(16) 0.7951(5) 0.43084(19)
H23_8 H 0.000341 0.769477 0.415048
H24_8 H 0.027096 0.875497 0.434107
C24_8 C 0.05997(15) 0.7640(4) 0.39674(18)
C25_8 C 0.07216(16) 0.6544(5) 0.39072(19)
H25_8 H 0.060487 0.597164 0.406990
C26_8 C 0.10184(16) 0.6294(4) 0.3604(2)
H26_8 H 0.109328 0.555568 0.356387
C27_8 C 0.12021(15) 0.7129(4) 0.33625(18)
C28_8 C 0.10657(19) 0.8239(5) 0.3409(2)
H27_8 H 0.117401 0.880750 0.323539
C29_8 C 0.07718(18) 0.8487(5) 0.3711(2)
H28_8 H 0.068893 0.922140 0.374212
C30_8 C 0.15482(14) 0.6905(4) 0.30668(18)
O8_8 O 0.76147(13) 0.1067(3) 0.36762(14)
H4_8 H 0.817096 0.005547 0.663171
H32_8 H 0.819734 0.053332 0.445605
C38_8 C 0.76050(15) 0.0034(5) 0.36539(17)
O7_8 O 0.74237(11) 0.9476(3) 0.32655(12)
N1_8 N 0.88480(12) 0.7715(3) 0.56016(14)
C1_8 C 0.77571(14) 0.9098(4) 0.72796(16)
C2_8 C 0.80743(14) 0.8627(4) 0.69982(17)
C3_8 C 0.81890(15) 0.7505(4) 0.70418(18)
H1_8 H 0.807225 0.704411 0.725803
C4_8 C 0.84750(15) 0.7068(4) 0.67666(18)
H2_8 H 0.855068 0.632071 0.680251
C5_8 C 0.86507(15) 0.7751(4) 0.64340(18)
C6_8 C 0.8531(2) 0.8853(5) 0.6389(2)
H3_8 H 0.864266 0.930971 0.616645
C7_8 C 0.82454(18) 0.9307(5) 0.6667(2)
C8_8 C 0.89511(15) 0.7289(4) 0.61222(18)
H5_8 H 0.893492 0.648256 0.611809
H6_8 H 0.923647 0.750103 0.627358
C9_8 C 0.91859(14) 0.7670(4) 0.53033(17)
H7_8 H 0.905942 0.787034 0.495292
C10_8 C 0.93947(15) 0.6530(4) 0.52807(19)
H8_8 H 0.953520 0.631408 0.561947
H9_8 H 0.918144 0.597571 0.515876
C11_8 C 0.97211(15) 0.6573(4) 0.49188(19)
H10_8 H 0.957983 0.675512 0.457604
H11_8 H 0.985467 0.585131 0.491081
C13_8 C 0.98542(15) 0.8593(4) 0.51508(19)
H14_8 H 0.972220 0.883914 0.481328
C14_8 C 0.95246(15) 0.8550(4) 0.54918(19)
H15_8 H 0.966094 0.837339 0.583717
H16_8 H 0.939280 0.927474 0.549524
C31_8 C 0.84512(15) 0.7249(4) 0.5320(2)
H29_8 H 0.850846 0.653150 0.518107
H30_8 H 0.826136 0.712605 0.555611
C32_8 C 0.82349(16) 0.7990(4) 0.48905(19)
C33_8 C 0.83259(17) 0.9125(4) 0.4867(2)
H31_8 H 0.852506 0.944253 0.512267
C34_8 C 0.81269(17) 0.9785(5) 0.44713(19)
C35_8 C 0.78142(16) 0.9310(4) 0.40892(17)
C36_8 C 0.77191(18) 0.8198(5) 0.41133(19)
H33_8 H 0.751245 0.788095 0.386580
C37_8 C 0.79328(19) 0.7551(5) 0.4508(2)
H34_8 H 0.787023 0.679528 0.451605
K1 K 0.25656(4) 0.81054(9) 0.32820(4)
K1_2 K 0.74344(4) 0.81054(9) 0.17180(4)
K1_3 K 0.75656(4) 0.31054(9) 0.32820(4)
K1_4 K 0.24344(4) 0.31054(9) 0.17180(4)
K1_5 K 0.74344(4) 0.18946(9) 0.67180(4)
K1_6 K 0.25656(4) 0.18946(9) 0.82820(4)
K1_7 K 0.24344(4) 0.68946(9) 0.67180(4)
K1_8 K 0.75656(4) 0.68946(9) 0.82820(4)
K2 K 0.30748(4) 0.68926(11) 0.80154(5)
K2_2 K 0.69252(4) 0.68926(11) 0.69846(5)
K2_3 K 0.80748(4) 0.18926(11) 0.80154(5)
K2_4 K 0.19252(4) 0.18926(11) 0.69846(5)
K2_5 K 0.69252(4) 0.31074(11) 0.19846(5)
K2_6 K 0.30748(4) 0.31074(11) 0.30154(5)
K2_7 K 0.19252(4) 0.81074(11) 0.19846(5)
K2_8 K 0.80748(4) 0.81074(11) 0.30154(5)
loop_
_geom_bond_atom_site_label_1
_geom_bond_atom_site_label_2
_geom_bond_site_symmetry_1
_geom_bond_site_symmetry_2
Co1 O7 1_555 1_555
O1 C1 1_555 1_555
O2 C1 1_555 1_555
O3 C22 1_555 1_555
O5 C30 1_555 1_555
O6 C30 1_555 1_555
O7 C38 1_555 1_555
O8 C38 1_555 1_555
N1 C8 1_555 1_555
N2 C12 1_555 1_555
C1 C2 1_555 1_555
C2 C3 1_555 1_555
C3 H1 1_555 1_555
C4 C3 1_555 1_555
H2 C4 1_555 1_555
C5 C4 1_555 1_555
C6 C5 1_555 1_555
H3 C6 1_555 1_555
C7 C2 1_555 1_555
H4 C7 1_555 1_555
C8 C5 1_555 1_555
H5 C8 1_555 1_555
H6 C8 1_555 1_555
C9 N1 1_555 1_555
H7 C9 1_555 1_555
C10 C9 1_555 1_555
H8 C10 1_555 1_555
H9 C10 1_555 1_555
C11 C10 1_555 1_555
H10 C11 1_555 1_555
H11 C11 1_555 1_555
C12 C11 1_555 1_555
H12 C12 1_555 1_555
C13 C12 1_555 1_555
H13 C13 1_555 1_555
H14 C13 1_555 1_555
C14 C9 1_555 1_555
H15 C14 1_555 1_555
H16 C14 1_555 1_555
C15 N2 1_555 1_555
H17 C15 1_555 1_555
H18 C15 1_555 1_555
C16 C15 1_555 1_555
C17 C16 1_555 1_555
H19 C17 1_555 1_555
C18 C17 1_555 1_555
C19 C18 1_555 1_555
C20 C19 1_555 1_555
H21 C20 1_555 1_555
C21 C16 1_555 1_555
H22 C21 1_555 1_555
C22 C19 1_555 1_555
C23 N2 1_555 1_555
H23 C23 1_555 1_555
H24 C23 1_555 1_555
C24 C23 1_555 1_555
C25 C24 1_555 1_555
H25 C25 1_555 1_555
C26 C25 1_555 1_555
H26 C26 1_555 1_555
C27 C26 1_555 1_555
C28 C27 1_555 1_555
H27 C28 1_555 1_555
C29 C24 1_555 1_555
H28 C29 1_555 1_555
C30 C27 1_555 1_555
C31 N1 1_555 1_555
H29 C31 1_555 1_555
H30 C31 1_555 1_555
C32 C31 1_555 1_555
C33 C32 1_555 1_555
H31 C33 1_555 1_555
C34 C33 1_555 1_555
H32 C34 1_555 1_555
C35 C34 1_555 1_555
C36 C35 1_555 1_555
H33 C36 1_555 1_555
C37 C32 1_555 1_555
H34 C37 1_555 1_555
C38 C35 1_555 1_555
Co2 O6 1_555 1_555
Co3 O1 1_555 1_555
O9 Co1 1_555 1_555
O10 Co1 1_555 1_555
O11 Co1 1_555 1_555
O12 Co1 1_555 1_555
O2 Co3 1_555 1_555
C6 C7 1_555 1_555
C13 C14 1_555 1_555
C20 C21 1_555 1_555
C28 C29 1_555 1_555
C36 C37 1_555 1_555
O2_2 C1_2 1_555 1_555
N1_2 C8_2 1_555 1_555
C1_2 C2_2 1_555 1_555
C2_2 C3_2 1_555 1_555
C3_2 H1_2 1_555 1_555
C4_2 C3_2 1_555 1_555
H2_2 C4_2 1_555 1_555
C5_2 C4_2 1_555 1_555
C6_2 C5_2 1_555 1_555
H3_2 C6_2 1_555 1_555
C7_2 C2_2 1_555 1_555
C8_2 C5_2 1_555 1_555
H5_2 C8_2 1_555 1_555
H6_2 C8_2 1_555 1_555
C9_2 N1_2 1_555 1_555
H7_2 C9_2 1_555 1_555
C10_2 C9_2 1_555 1_555
H8_2 C10_2 1_555 1_555
H9_2 C10_2 1_555 1_555
C11_2 C10_2 1_555 1_555
H10_2 C11_2 1_555 1_555
H11_2 C11_2 1_555 1_555
H14_2 C13_2 1_555 1_555
C14_2 C9_2 1_555 1_555
H15_2 C14_2 1_555 1_555
H16_2 C14_2 1_555 1_555
C31_2 N1_2 1_555 1_555
H29_2 C31_2 1_555 1_555
H30_2 C31_2 1_555 1_555
C32_2 C31_2 1_555 1_555
C33_2 C32_2 1_555 1_555
H31_2 C33_2 1_555 1_555
C34_2 C33_2 1_555 1_555
C35_2 C34_2 1_555 1_555
C36_2 C35_2 1_555 1_555
H33_2 C36_2 1_555 1_555
C37_2 C32_2 1_555 1_555
H34_2 C37_2 1_555 1_555
O2_2 Co4 1_555 1_555
C6_2 C7_2 1_555 1_555
C13_2 C14_2 1_555 1_555
C36_2 C37_2 1_555 1_555
O8_2 C38_2 1_555 1_555
O10_2 Co2 1_555 1_555
O3_2 C22_2 1_555 1_555
O4_2 C22_2 1_555 1_555
O5_2 C30_2 1_555 1_555
O12 C30_2 1_555 1_555
N2_2 C12_2 1_555 1_555
H12_2 C12_2 1_555 1_555
C15_2 N2_2 1_555 1_555
H17_2 C15_2 1_555 1_555
H18_2 C15_2 1_555 1_555
C16_2 C15_2 1_555 1_555
C17_2 C16_2 1_555 1_555
H19_2 C17_2 1_555 1_555
C18_2 C17_2 1_555 1_555
H20_2 C18_2 1_555 1_555
C19_2 C18_2 1_555 1_555
C20_2 C19_2 1_555 1_555
H21_2 C20_2 1_555 1_555
C21_2 C16_2 1_555 1_555
H22_2 C21_2 1_555 1_555
C22_2 C19_2 1_555 1_555
C23_2 N2_2 1_555 1_555
H23_2 C23_2 1_555 1_555
H24_2 C23_2 1_555 1_555
C24_2 C23_2 1_555 1_555
C25_2 C24_2 1_555 1_555
H25_2 C25_2 1_555 1_555
C26_2 C25_2 1_555 1_555
H26_2 C26_2 1_555 1_555
C27_2 C26_2 1_555 1_555
C28_2 C27_2 1_555 1_555
H27_2 C28_2 1_555 1_555
C29_2 C24_2 1_555 1_555
H28_2 C29_2 1_555 1_555
C30_2 C27_2 1_555 1_555
Co3 O3_2 1_555 1_555
C20_2 C21_2 1_555 1_555
C28_2 C29_2 1_555 1_555
Co3 O7_3 1_555 1_555
O5_3 C30_3 1_555 1_555
O6_2 C30_3 1_555 1_555
O7_3 C38_3 1_555 1_555
O8_3 C38_3 1_555 1_555
H10_3 C11_3 1_555 1_555
H11_3 C11_3 1_555 1_555
C23_3 N2_3 1_555 1_555
H23_3 C23_3 1_555 1_555
H24_3 C23_3 1_555 1_555
C24_3 C23_3 1_555 1_555
C25_3 C24_3 1_555 1_555
H25_3 C25_3 1_555 1_555
C26_3 C25_3 1_555 1_555
H26_3 C26_3 1_555 1_555
C27_3 C26_3 1_555 1_555
C28_3 C27_3 1_555 1_555
H27_3 C28_3 1_555 1_555
C29_3 C24_3 1_555 1_555
H28_3 C29_3 1_555 1_555
C30_3 C27_3 1_555 1_555
C33_3 C32_3 1_555 1_555
C34_3 C33_3 1_555 1_555
H32_3 C34_3 1_555 1_555
C35_3 C34_3 1_555 1_555
C36_3 C35_3 1_555 1_555
H33_3 C36_3 1_555 1_555
C37_3 C32_3 1_555 1_555
H34_3 C37_3 1_555 1_555
C38_3 C35_3 1_555 1_555
Co4 O6_2 1_555 1_555
O12_2 Co3 1_555 1_555
C28_3 C29_3 1_555 1_555
C36_3 C37_3 1_555 1_555
O9 C1_3 1_555 1_555
O10 C1_3 1_555 1_555
O11_2 C22_3 1_555 1_555
N1_3 C8_3 1_555 1_555
C1_3 C2_3 1_555 1_555
C2_3 C3_3 1_555 1_555
C3_3 H1_3 1_555 1_555
C4_3 C3_3 1_555 1_555
H2_3 C4_3 1_555 1_555
C5_3 C4_3 1_555 1_555
C6_3 C5_3 1_555 1_555
H3_3 C6_3 1_555 1_555
C7_3 C2_3 1_555 1_555
H4_3 C7_3 1_555 1_555
C8_3 C5_3 1_555 1_555
H5_3 C8_3 1_555 1_555
H6_3 C8_3 1_555 1_555
C9_3 N1_3 1_555 1_555
C10_3 C9_3 1_555 1_555
H8_3 C10_3 1_555 1_555
H9_3 C10_3 1_555 1_555
H12_3 C12_3 1_555 1_555
C13_3 C12_3 1_555 1_555
H13_3 C13_3 1_555 1_555
C14_3 C9_3 1_555 1_555
H15_3 C14_3 1_555 1_555
H16_3 C14_3 1_555 1_555
H18_3 C15_3 1_555 1_555
C16_3 C15_3 1_555 1_555
C17_3 C16_3 1_555 1_555
H19_3 C17_3 1_555 1_555
C18_3 C17_3 1_555 1_555
C19_3 C18_3 1_555 1_555
C20_3 C19_3 1_555 1_555
H21_3 C20_3 1_555 1_555
C21_3 C16_3 1_555 1_555
H22_3 C21_3 1_555 1_555
C22_3 C19_3 1_555 1_555
C31_3 N1_3 1_555 1_555
H29_3 C31_3 1_555 1_555
H30_3 C31_3 1_555 1_555
C6_3 C7_3 1_555 1_555
C13_3 C14_3 1_555 1_555
C20_3 C21_3 1_555 1_555
O8_4 C38_4 1_555 1_555
H10_4 C11_4 1_555 1_555
H11_4 C11_4 1_555 1_555
C33_4 C32_4 1_555 1_555
C34_4 C33_4 1_555 1_555
C35_4 C34_4 1_555 1_555
C36_4 C35_4 1_555 1_555
H33_4 C36_4 1_555 1_555
C37_4 C32_4 1_555 1_555
H34_4 C37_4 1_555 1_555
C36_4 C37_4 1_555 1_555
O10_2 C1_4 1_555 1_555
N1_4 C8_4 1_555 1_555
C1_4 C2_4 1_555 1_555
C2_4 C3_4 1_555 1_555
C3_4 H1_4 1_555 1_555
C4_4 C3_4 1_555 1_555
H2_4 C4_4 1_555 1_555
C5_4 C4_4 1_555 1_555
C6_4 C5_4 1_555 1_555
H3_4 C6_4 1_555 1_555
C7_4 C2_4 1_555 1_555
C8_4 C5_4 1_555 1_555
H5_4 C8_4 1_555 1_555
H6_4 C8_4 1_555 1_555
C9_4 N1_4 1_555 1_555
C10_4 C9_4 1_555 1_555
H8_4 C10_4 1_555 1_555
H9_4 C10_4 1_555 1_555
C14_4 C9_4 1_555 1_555
H15_4 C14_4 1_555 1_555
H16_4 C14_4 1_555 1_555
C31_4 N1_4 1_555 1_555
H29_4 C31_4 1_555 1_555
H30_4 C31_4 1_555 1_555
C6_4 C7_4 1_555 1_555
C13_4 C14_4 1_555 1_555
O5_4 C30_4 1_555 1_555
O12_2 C30_4 1_555 1_555
C23_4 N2_4 1_555 1_555
H23_4 C23_4 1_555 1_555
H24_4 C23_4 1_555 1_555
C24_4 C23_4 1_555 1_555
C25_4 C24_4 1_555 1_555
H25_4 C25_4 1_555 1_555
C26_4 C25_4 1_555 1_555
H26_4 C26_4 1_555 1_555
C27_4 C26_4 1_555 1_555
C28_4 C27_4 1_555 1_555
H27_4 C28_4 1_555 1_555
C29_4 C24_4 1_555 1_555
H28_4 C29_4 1_555 1_555
C30_4 C27_4 1_555 1_555
C28_4 C29_4 1_555 1_555
O11 C22_4 1_555 1_555
O4_4 C22_4 1_555 1_555
H12_4 C12_4 1_555 1_555
H18_4 C15_4 1_555 1_555
C16_4 C15_4 1_555 1_555
C17_4 C16_4 1_555 1_555
H19_4 C17_4 1_555 1_555
C18_4 C17_4 1_555 1_555
H20_4 C18_4 1_555 1_555
C19_4 C18_4 1_555 1_555
C20_4 C19_4 1_555 1_555
H21_4 C20_4 1_555 1_555
C21_4 C16_4 1_555 1_555
H22_4 C21_4 1_555 1_555
C22_4 C19_4 1_555 1_555
C20_4 C21_4 1_555 1_555
O1_3 C1_5 1_555 1_555
O2_3 C1_5 1_555 1_555
O3_3 C22_5 1_555 1_555
N1_5 C8_5 1_555 1_555
C1_5 C2_5 1_555 1_555
C2_5 C3_5 1_555 1_555
C3_5 H1_5 1_555 1_555
C4_5 C3_5 1_555 1_555
H2_5 C4_5 1_555 1_555
C5_5 C4_5 1_555 1_555
C6_5 C5_5 1_555 1_555
H3_5 C6_5 1_555 1_555
C7_5 C2_5 1_555 1_555
H4_5 C7_5 1_555 1_555
C8_5 C5_5 1_555 1_555
H5_5 C8_5 1_555 1_555
H6_5 C8_5 1_555 1_555
C9_5 N1_5 1_555 1_555
C10_5 C9_5 1_555 1_555
H8_5 C10_5 1_555 1_555
H9_5 C10_5 1_555 1_555
H12_5 C12_5 1_555 1_555
C13_5 C12_5 1_555 1_555
H13_5 C13_5 1_555 1_555
C14_5 C9_5 1_555 1_555
H15_5 C14_5 1_555 1_555
H16_5 C14_5 1_555 1_555
H18_5 C15_5 1_555 1_555
C16_5 C15_5 1_555 1_555
C17_5 C16_5 1_555 1_555
H19_5 C17_5 1_555 1_555
C18_5 C17_5 1_555 1_555
C19_5 C18_5 1_555 1_555
C20_5 C19_5 1_555 1_555
H21_5 C20_5 1_555 1_555
C21_5 C16_5 1_555 1_555
H22_5 C21_5 1_555 1_555
C22_5 C19_5 1_555 1_555
C31_5 N1_5 1_555 1_555
H29_5 C31_5 1_555 1_555
H30_5 C31_5 1_555 1_555
Co3_2 O1_3 1_555 1_555
O2_3 Co3_2 1_555 1_555
C6_5 C7_5 1_555 1_555
C13_5 C14_5 1_555 1_555
C20_5 C21_5 1_555 1_555
Co1_2 O7_5 1_555 1_555
O5_5 C30_5 1_555 1_555
O6_3 C30_5 1_555 1_555
O7_5 C38_5 1_555 1_555
O8_5 C38_5 1_555 1_555
H10_5 C11_5 1_555 1_555
H11_5 C11_5 1_555 1_555
C23_5 N2_5 1_555 1_555
H23_5 C23_5 1_555 1_555
H24_5 C23_5 1_555 1_555
C24_5 C23_5 1_555 1_555
C25_5 C24_5 1_555 1_555
H25_5 C25_5 1_555 1_555
C26_5 C25_5 1_555 1_555
H26_5 C26_5 1_555 1_555
C27_5 C26_5 1_555 1_555
C28_5 C27_5 1_555 1_555
H27_5 C28_5 1_555 1_555
C29_5 C24_5 1_555 1_555
H28_5 C29_5 1_555 1_555
C30_5 C27_5 1_555 1_555
C33_5 C32_5 1_555 1_555
C34_5 C33_5 1_555 1_555
H32_5 C34_5 1_555 1_555
C35_5 C34_5 1_555 1_555
C36_5 C35_5 1_555 1_555
H33_5 C36_5 1_555 1_555
C37_5 C32_5 1_555 1_555
H34_5 C37_5 1_555 1_555
C38_5 C35_5 1_555 1_555
Co2_2 O6_3 1_555 1_555
O9_3 Co1_2 1_555 1_555
O10_3 Co1_2 1_555 1_555
O11_3 Co1_2 1_555 1_555
O12_3 Co1_2 1_555 1_555
C28_5 C29_5 1_555 1_555
C36_5 C37_5 1_555 1_555
O3_4 C22_6 1_555 1_555
O4_6 C22_6 1_555 1_555
H12_6 C12_6 1_555 1_555
H18_6 C15_6 1_555 1_555
C16_6 C15_6 1_555 1_555
C17_6 C16_6 1_555 1_555
H19_6 C17_6 1_555 1_555
C18_6 C17_6 1_555 1_555
H20_6 C18_6 1_555 1_555
C19_6 C18_6 1_555 1_555
C20_6 C19_6 1_555 1_555
H21_6 C20_6 1_555 1_555
C21_6 C16_6 1_555 1_555
H22_6 C21_6 1_555 1_555
C22_6 C19_6 1_555 1_555
Co3_2 O3_4 1_555 1_555
C20_6 C21_6 1_555 1_555
O5_6 C30_6 1_555 1_555
O12_3 C30_6 1_555 1_555
C23_6 N2_6 1_555 1_555
H23_6 C23_6 1_555 1_555
H24_6 C23_6 1_555 1_555
C24_6 C23_6 1_555 1_555
C25_6 C24_6 1_555 1_555
H25_6 C25_6 1_555 1_555
C26_6 C25_6 1_555 1_555
H26_6 C26_6 1_555 1_555
C27_6 C26_6 1_555 1_555
C28_6 C27_6 1_555 1_555
H27_6 C28_6 1_555 1_555
C29_6 C24_6 1_555 1_555
H28_6 C29_6 1_555 1_555
C30_6 C27_6 1_555 1_555
C28_6 C29_6 1_555 1_555
O2_4 C1_6 1_555 1_555
N1_6 C8_6 1_555 1_555
C1_6 C2_6 1_555 1_555
C2_6 C3_6 1_555 1_555
C3_6 H1_6 1_555 1_555
C4_6 C3_6 1_555 1_555
H2_6 C4_6 1_555 1_555
C5_6 C4_6 1_555 1_555
C6_6 C5_6 1_555 1_555
H3_6 C6_6 1_555 1_555
C7_6 C2_6 1_555 1_555
C8_6 C5_6 1_555 1_555
H5_6 C8_6 1_555 1_555
H6_6 C8_6 1_555 1_555
C9_6 N1_6 1_555 1_555
C10_6 C9_6 1_555 1_555
H8_6 C10_6 1_555 1_555
H9_6 C10_6 1_555 1_555
C14_6 C9_6 1_555 1_555
H15_6 C14_6 1_555 1_555
H16_6 C14_6 1_555 1_555
C31_6 N1_6 1_555 1_555
H29_6 C31_6 1_555 1_555
H30_6 C31_6 1_555 1_555
O2_4 Co4_2 1_555 1_555
C6_6 C7_6 1_555 1_555
C13_6 C14_6 1_555 1_555
H10_6 C11_6 1_555 1_555
H11_6 C11_6 1_555 1_555
C33_6 C32_6 1_555 1_555
C34_6 C33_6 1_555 1_555
C35_6 C34_6 1_555 1_555
C36_6 C35_6 1_555 1_555
H33_6 C36_6 1_555 1_555
C37_6 C32_6 1_555 1_555
H34_6 C37_6 1_555 1_555
C36_6 C37_6 1_555 1_555
O8_6 C38_6 1_555 1_555
O10_4 Co2_2 1_555 1_555
Co3_2 O7_7 1_555 1_555
O9_3 C1_7 1_555 1_555
O10_3 C1_7 1_555 1_555
O11_4 C22_7 1_555 1_555
O5_7 C30_7 1_555 1_555
O6_4 C30_7 1_555 1_555
O7_7 C38_7 1_555 1_555
O8_7 C38_7 1_555 1_555
N1_7 C8_7 1_555 1_555
N2_7 C12_7 1_555 1_555
C1_7 C2_7 1_555 1_555
C2_7 C3_7 1_555 1_555
C3_7 H1_7 1_555 1_555
C4_7 C3_7 1_555 1_555
H2_7 C4_7 1_555 1_555
C5_7 C4_7 1_555 1_555
C6_7 C5_7 1_555 1_555
H3_7 C6_7 1_555 1_555
C7_7 C2_7 1_555 1_555
H4_7 C7_7 1_555 1_555
C8_7 C5_7 1_555 1_555
H5_7 C8_7 1_555 1_555
H6_7 C8_7 1_555 1_555
C9_7 N1_7 1_555 1_555
H7_7 C9_7 1_555 1_555
C10_7 C9_7 1_555 1_555
H8_7 C10_7 1_555 1_555
H9_7 C10_7 1_555 1_555
C11_7 C10_7 1_555 1_555
H10_7 C11_7 1_555 1_555
H11_7 C11_7 1_555 1_555
C12_7 C11_7 1_555 1_555
H12_7 C12_7 1_555 1_555
C13_7 C12_7 1_555 1_555
H13_7 C13_7 1_555 1_555
H14_7 C13_7 1_555 1_555
C14_7 C9_7 1_555 1_555
H15_7 C14_7 1_555 1_555
H16_7 C14_7 1_555 1_555
C15_7 N2_7 1_555 1_555
H17_7 C15_7 1_555 1_555
H18_7 C15_7 1_555 1_555
C16_7 C15_7 1_555 1_555
C17_7 C16_7 1_555 1_555
H19_7 C17_7 1_555 1_555
C18_7 C17_7 1_555 1_555
C19_7 C18_7 1_555 1_555
C20_7 C19_7 1_555 1_555
H21_7 C20_7 1_555 1_555
C21_7 C16_7 1_555 1_555
H22_7 C21_7 1_555 1_555
C22_7 C19_7 1_555 1_555
C23_7 N2_7 1_555 1_555
H23_7 C23_7 1_555 1_555
H24_7 C23_7 1_555 1_555
C24_7 C23_7 1_555 1_555
C25_7 C24_7 1_555 1_555
H25_7 C25_7 1_555 1_555
C26_7 C25_7 1_555 1_555
H26_7 C26_7 1_555 1_555
C27_7 C26_7 1_555 1_555
C28_7 C27_7 1_555 1_555
H27_7 C28_7 1_555 1_555
C29_7 C24_7 1_555 1_555
H28_7 C29_7 1_555 1_555
C30_7 C27_7 1_555 1_555
C31_7 N1_7 1_555 1_555
H29_7 C31_7 1_555 1_555
H30_7 C31_7 1_555 1_555
C32_7 C31_7 1_555 1_555
C33_7 C32_7 1_555 1_555
H31_7 C33_7 1_555 1_555
C34_7 C33_7 1_555 1_555
H32_7 C34_7 1_555 1_555
C35_7 C34_7 1_555 1_555
C36_7 C35_7 1_555 1_555
H33_7 C36_7 1_555 1_555
C37_7 C32_7 1_555 1_555
H34_7 C37_7 1_555 1_555
C38_7 C35_7 1_555 1_555
Co4_2 O6_4 1_555 1_555
O12_4 Co3_2 1_555 1_555
C6_7 C7_7 1_555 1_555
C13_7 C14_7 1_555 1_555
C20_7 C21_7 1_555 1_555
C28_7 C29_7 1_555 1_555
C36_7 C37_7 1_555 1_555
O11_3 C22_8 1_555 1_555
O4_8 C22_8 1_555 1_555
O5_8 C30_8 1_555 1_555
O12_4 C30_8 1_555 1_555
N2_8 C12_8 1_555 1_555
H12_8 C12_8 1_555 1_555
C15_8 N2_8 1_555 1_555
H17_8 C15_8 1_555 1_555
H18_8 C15_8 1_555 1_555
C16_8 C15_8 1_555 1_555
C17_8 C16_8 1_555 1_555
H19_8 C17_8 1_555 1_555
C18_8 C17_8 1_555 1_555
H20_8 C18_8 1_555 1_555
C19_8 C18_8 1_555 1_555
C20_8 C19_8 1_555 1_555
H21_8 C20_8 1_555 1_555
C21_8 C16_8 1_555 1_555
H22_8 C21_8 1_555 1_555
C22_8 C19_8 1_555 1_555
C23_8 N2_8 1_555 1_555
H23_8 C23_8 1_555 1_555
H24_8 C23_8 1_555 1_555
C24_8 C23_8 1_555 1_555
C25_8 C24_8 1_555 1_555
H25_8 C25_8 1_555 1_555
C26_8 C25_8 1_555 1_555
H26_8 C26_8 1_555 1_555
C27_8 C26_8 1_555 1_555
C28_8 C27_8 1_555 1_555
H27_8 C28_8 1_555 1_555
C29_8 C24_8 1_555 1_555
H28_8 C29_8 1_555 1_555
C30_8 C27_8 1_555 1_555
C20_8 C21_8 1_555 1_555
C28_8 C29_8 1_555 1_555
O8_8 C38_8 1_555 1_555
O10_4 C1_8 1_555 1_555
N1_8 C8_8 1_555 1_555
C1_8 C2_8 1_555 1_555
C2_8 C3_8 1_555 1_555
C3_8 H1_8 1_555 1_555
C4_8 C3_8 1_555 1_555
H2_8 C4_8 1_555 1_555
C5_8 C4_8 1_555 1_555
C6_8 C5_8 1_555 1_555
H3_8 C6_8 1_555 1_555
C7_8 C2_8 1_555 1_555
C8_8 C5_8 1_555 1_555
H5_8 C8_8 1_555 1_555
H6_8 C8_8 1_555 1_555
C9_8 N1_8 1_555 1_555
H7_8 C9_8 1_555 1_555
C10_8 C9_8 1_555 1_555
H8_8 C10_8 1_555 1_555
H9_8 C10_8 1_555 1_555
C11_8 C10_8 1_555 1_555
H10_8 C11_8 1_555 1_555
H11_8 C11_8 1_555 1_555
H14_8 C13_8 1_555 1_555
C14_8 C9_8 1_555 1_555
H15_8 C14_8 1_555 1_555
H16_8 C14_8 1_555 1_555
C31_8 N1_8 1_555 1_555
H29_8 C31_8 1_555 1_555
H30_8 C31_8 1_555 1_555
C32_8 C31_8 1_555 1_555
C33_8 C32_8 1_555 1_555
H31_8 C33_8 1_555 1_555
C34_8 C33_8 1_555 1_555
C35_8 C34_8 1_555 1_555
C36_8 C35_8 1_555 1_555
H33_8 C36_8 1_555 1_555
C37_8 C32_8 1_555 1_555
H34_8 C37_8 1_555 1_555
C6_8 C7_8 1_555 1_555
C13_8 C14_8 1_555 1_555
C36_8 C37_8 1_555 1_555

#END
