
###############################################################################
#
# This file contains modified crystal structure data generated from the
# MOF subset of the Cambridge Structural Database (CSD) v543 
# hosted by the Cambridge Crystallographic Data Centre (CCDC).
#
# This work is licensed under the Creative Commons
# Attribution-NonCommercial-ShareAlike 4.0 International License.
# To view a copy of this license, visit
# http://creativecommons.org/licenses/by-nc-sa/4.0/
# or send a letter to
# Creative Commons, PO Box 1866, Mountain View, CA 94042, USA.
#
# CIF created using the CSD Python API on 29 September 2022
# The structure has been converted into the P1 space group
# The structure has a 3D framework
# The original CSD entry QACZAZ is in the tetragonal crystal system
# The framework has been calculated to contain at least 10.0% void space
# The void calculation uses a probe of radius 1.32A, grid spacing 0.4
#
###############################################################################

data_QACZAZ
_chemical_formula_moiety         '(C368 H304 N64 O128 Zn38)n'
_symmetry_cell_setting           triclinic
_symmetry_space_group_name_H-M   'P 1'
_symmetry_Int_Tables_number      1
_space_group_name_Hall           'P 1'
loop_
_symmetry_equiv_pos_site_id
_symmetry_equiv_pos_as_xyz
1 x,y,z
_cell_length_a                   21.4461(16)
_cell_length_b                   21.4461(16)
_cell_length_c                   25.695(2)
_cell_angle_alpha                90
_cell_angle_beta                 90
_cell_angle_gamma                90
_cell_volume                     11818
loop_
_atom_site_label
_atom_site_type_symbol
_atom_site_fract_x
_atom_site_fract_y
_atom_site_fract_z
C1 C 0.30195(19) 0.37784(18) 0.06560(16)
C2 C 0.33261(17) 0.43469(18) 0.09084(16)
H1 H 0.3311 0.4677 0.0650
H2 H 0.3763 0.4241 0.0951
C3 C 0.31160(19) 0.4649(2) 0.14334(17)
H3 H 0.3518 0.4783 0.1596
C4 C 0.2950(2) 0.41014(19) 0.17935(16)
C5 C 0.21294(17) 0.23609(17) 0.10025(14)
H4 H 0.2429 0.2613 0.1158
C6 C 0.17607(16) 0.19701(16) 0.13168(14)
H5 H 0.1842 0.1998 0.1672
C7 C 0.13257(16) 0.15828(16) 0.10832(13)
C8 C 0.12435(16) 0.15988(16) 0.05490(14)
H6 H 0.0960 0.1363 0.0359
C9 C 0.16080(18) 0.19877(17) 0.02488(15)
C10 C 0.09275(16) 0.34744(16) 0.08030(13)
H8 H 0.1066 0.3652 0.0494
C11 C 0.04668(16) 0.30054(16) 0.07879(15)
H9 H 0.0312 0.2871 0.0469
C12 C 0.02403(16) 0.27403(16) 0.1250
N1 N 0.26337(14) 0.51337(14) 0.1250
H10 H 0.2933 0.5433 0.1250
N2 N 0.20571(14) 0.23777(14) 0.04799(12)
N3 N 0.11647(14) 0.36647(14) 0.1250
O1 O 0.33008(12) 0.33836(11) 0.03756(10)
O2 O 0.24554(11) 0.36725(11) 0.07838(10)
O3 O 0.23784(12) 0.39762(12) 0.18687(10)
O4 O 0.34147(12) 0.38133(12) 0.19775(10)
Zn1 Zn 0.184953(19) 0.434953(19) 0.1250
Zn2 Zn 0.2500 0.29973(3) 0.0000
C13 C 0.12784(18) 0.55195(19) 0.18440(16)
C14 C 0.18469(18) 0.58261(17) 0.15916(16)
H11 H 0.2177 0.5811 0.1850
H12 H 0.1741 0.6263 0.1549
C15 C 0.2149(2) 0.56160(19) 0.10666(17)
H13 H 0.2283 0.6018 0.0904
C16 C 0.16014(19) 0.5450(2) 0.07065(16)
O5 O 0.08836(11) 0.58008(12) 0.21244(10)
O6 O 0.11725(11) 0.49554(11) 0.17162(10)
O7 O 0.14762(12) 0.48784(12) 0.06313(10)
O8 O 0.13133(12) 0.59147(12) 0.05225(10)
C17 C 0.01391(17) 0.03706(17) 0.14975(14)
C18 C 0.05299(16) 0.07393(16) 0.11832(14)
H15 H 0.0502 0.0658 0.0828
C19 C 0.09172(16) 0.11743(16) 0.14168(13)
C20 C 0.09012(16) 0.12565(16) 0.19510(14)
H16 H 0.1137 0.1540 0.2141
C21 C 0.05123(17) 0.08920(18) 0.22512(15)
H17 H 0.0508 0.0944 0.2611
N4 N 0.01223(14) 0.04429(14) 0.20201(12)
C27 C 0.09744(16) 0.34275(16) 0.16970(13)
H22 H 0.1152 0.3566 0.2006
C28 C 0.05054(16) 0.29668(16) 0.17121(15)
H23 H 0.0371 0.2812 0.2031
H34 H 0.3444 0.1992 0.0111
Zn7 Zn 0.04973(3) 0.5000 0.2500
H7 H 0.1556 0.1992 0.9889
Zn2_2 Zn 0.2500 0.29973(3) 1.0000
C37 C 0.28706(17) 0.23609(17) 0.89975(14)
H31 H 0.2571 0.2613 0.8842
C38 C 0.32393(16) 0.19701(16) 0.86832(14)
H32 H 0.3158 0.1998 0.8328
C39 C 0.36743(16) 0.15828(16) 0.89168(13)
C40 C 0.37565(16) 0.15988(16) 0.94510(14)
H33 H 0.4040 0.1363 0.9641
C41 C 0.33920(18) 0.19877(17) 0.97512(15)
N7 N 0.29429(14) 0.23777(14) 0.95201(12)
C42 C 0.48609(17) 0.03706(17) 0.85025(14)
H35 H 0.5113 0.0071 0.8658
C43 C 0.44701(16) 0.07393(16) 0.88168(14)
H36 H 0.4498 0.0658 0.9172
C44 C 0.40828(16) 0.11743(16) 0.85832(13)
C45 C 0.40988(16) 0.12565(16) 0.80490(14)
H37 H 0.3863 0.1540 0.7859
C46 C 0.44877(17) 0.08920(18) 0.77488(15)
H38 H 0.4492 0.0944 0.7389
N8 N 0.48777(14) 0.04429(14) 0.79799(12)
O18 O 0.16992(12) 0.33836(11) 0.96244(10)
O20 O 0.25446(11) 0.36725(11) 0.92162(10)
Zn5 Zn 0.54973(3) -0.0000 0.7500
N9 N 0.01223(14) 0.95571(14) 0.29799(12)
Zn5_2 Zn 0.54973(3) 1.0000 0.7500
H14 H 0.9887 0.0071 0.1342
C22 C 0.90256(16) 0.15725(16) 0.16970(13)
H18 H 0.8848 0.1434 0.2006
C23 C 0.94946(16) 0.20332(16) 0.17121(15)
H19 H 0.9629 0.2188 0.2031
C24 C 0.97597(16) 0.22597(16) 0.1250
N5 N 0.88353(14) 0.13353(14) 0.1250
C25 C 0.90725(16) 0.15256(16) 0.08030(13)
H20 H 0.8934 0.1348 0.0494
C26 C 0.95332(16) 0.19946(16) 0.07879(15)
H21 H 0.9688 0.2129 0.0469
O10 O 0.88275(11) 0.00446(11) 0.17162(10)
O11 O 0.85238(12) 0.01216(12) 0.06313(10)
Zn3 Zn 0.815047(19) 0.065047(19) 0.1250
Zn4 Zn 0.95027(3) 0.0000 0.2500
C33 C 0.69805(19) 0.12216(18) 0.06560(16)
C34 C 0.66739(17) 0.06531(18) 0.09084(16)
H28 H 0.6689 0.0323 0.0650
H29 H 0.6237 0.0759 0.0951
C35 C 0.68840(19) 0.0351(2) 0.14334(17)
H30 H 0.6482 0.0217 0.1596
C36 C 0.7050(2) 0.08986(19) 0.17935(16)
O13 O 0.66992(12) 0.16164(11) 0.03756(10)
O14 O 0.75446(11) 0.13275(11) 0.07838(10)
O15 O 0.76216(12) 0.10238(12) 0.18687(10)
O16 O 0.65853(12) 0.11867(12) 0.19775(10)
O17 O 0.91164(11) 0.08008(12) 0.28756(10)
Zn6 Zn 0.7500 0.20027(3) 0.0000
Zn6_2 Zn 0.7500 0.20027(3) 1.0000
C29 C 0.87216(18) 0.94805(19) 0.18440(16)
C30 C 0.81531(18) 0.91739(17) 0.15916(16)
H24 H 0.7823 0.9189 0.1850
H25 H 0.8259 0.8737 0.1549
C31 C 0.7851(2) 0.93840(19) 0.10666(17)
H26 H 0.7717 0.8982 0.0904
C32 C 0.83986(19) 0.9550(2) 0.07065(16)
N6 N 0.73663(14) 0.98663(14) 0.1250
H27 H 0.7067 0.9567 0.1250
O9 O 0.91164(11) 0.91992(12) 0.21244(10)
O12 O 0.86867(12) 0.90853(12) 0.05225(10)
Zn4_2 Zn 0.95027(3) 1.0000 0.2500
O19 O 0.88275(11) 0.99554(11) 0.32838(10)
C29_2 C 0.62784(18) 0.05195(19) 0.68440(16)
C30_2 C 0.68469(18) 0.08261(17) 0.65916(16)
H24_2 H 0.7177 0.0811 0.6850
H25_2 H 0.6741 0.1263 0.6549
C31_2 C 0.7149(2) 0.06160(19) 0.60666(17)
H26_2 H 0.7283 0.1018 0.5904
C32_2 C 0.66014(19) 0.0450(2) 0.57065(16)
N6_2 N 0.76337(14) 0.01337(14) 0.6250
H27_2 H 0.7933 0.0433 0.6250
O9_2 O 0.58836(11) 0.08008(12) 0.71244(10)
O12_2 O 0.63133(12) 0.09147(12) 0.55225(10)
O19_2 O 0.61725(11) 0.00446(11) 0.82838(10)
C1_2 C 0.19805(19) 0.62216(18) 0.56560(16)
C2_2 C 0.16739(17) 0.56531(18) 0.59084(16)
H1_2 H 0.1689 0.5323 0.5650
H2_2 H 0.1237 0.5759 0.5951
C3_2 C 0.18840(19) 0.5351(2) 0.64334(17)
H3_2 H 0.1482 0.5217 0.6596
C4_2 C 0.2050(2) 0.58986(19) 0.67935(16)
C5_2 C 0.28706(17) 0.76391(17) 0.60025(14)
H4_2 H 0.2571 0.7387 0.6158
C6_2 C 0.32393(16) 0.80299(16) 0.63168(14)
H5_2 H 0.3158 0.8002 0.6672
C7_2 C 0.36743(16) 0.84172(16) 0.60832(13)
C8_2 C 0.37565(16) 0.84012(16) 0.55490(14)
H6_2 H 0.4040 0.8637 0.5359
C9_2 C 0.33920(18) 0.80123(17) 0.52488(15)
H7_2 H 0.3444 0.8008 0.4889
C10_2 C 0.40725(16) 0.65256(16) 0.58030(13)
H8_2 H 0.3934 0.6348 0.5494
C11_2 C 0.45332(16) 0.69946(16) 0.57879(15)
H9_2 H 0.4688 0.7129 0.5469
C12_2 C 0.47597(16) 0.72597(16) 0.6250
N1_2 N 0.23663(14) 0.48663(14) 0.6250
H10_2 H 0.2067 0.4567 0.6250
N2_2 N 0.29429(14) 0.76223(14) 0.54799(12)
N3_2 N 0.38353(14) 0.63353(14) 0.6250
O1_2 O 0.16992(12) 0.66164(11) 0.53756(10)
O2_2 O 0.25446(11) 0.63275(11) 0.57838(10)
O3_2 O 0.26216(12) 0.60238(12) 0.68687(10)
O4_2 O 0.15853(12) 0.61867(12) 0.69775(10)
Zn1_2 Zn 0.315047(19) 0.565047(19) 0.6250
Zn2_3 Zn 0.2500 0.70027(3) 0.5000
C13_2 C 0.37216(18) 0.44805(19) 0.68440(16)
C14_2 C 0.31531(18) 0.41739(17) 0.65916(16)
H11_2 H 0.2823 0.4189 0.6850
H12_2 H 0.3259 0.3737 0.6549
C15_2 C 0.2851(2) 0.43840(19) 0.60666(17)
H13_2 H 0.2717 0.3982 0.5904
C16_2 C 0.33986(19) 0.4550(2) 0.57065(16)
O5_2 O 0.41164(11) 0.41992(12) 0.71244(10)
O6_2 O 0.38275(11) 0.50446(11) 0.67162(10)
O7_2 O 0.35238(12) 0.51216(12) 0.56313(10)
O8_2 O 0.36867(12) 0.40853(12) 0.55225(10)
C17_2 C 0.48609(17) 0.96294(17) 0.64975(14)
H14_2 H 0.5113 0.9929 0.6342
C18_2 C 0.44701(16) 0.92607(16) 0.61832(14)
H15_2 H 0.4498 0.9342 0.5828
C19_2 C 0.40828(16) 0.88257(16) 0.64168(13)
C20_2 C 0.40988(16) 0.87435(16) 0.69510(14)
H16_2 H 0.3863 0.8460 0.7141
C21_2 C 0.44877(17) 0.91080(18) 0.72512(15)
H17_2 H 0.4492 0.9056 0.7611
N4_2 N 0.48777(14) 0.95571(14) 0.70201(12)
C22_2 C 0.59744(16) 0.84275(16) 0.66970(13)
H18_2 H 0.6152 0.8566 0.7006
C23_2 C 0.55054(16) 0.79668(16) 0.67121(15)
H19_2 H 0.5371 0.7812 0.7031
C24_2 C 0.52403(16) 0.77403(16) 0.6250
N5_2 N 0.61647(14) 0.86647(14) 0.6250
C25_2 C 0.59275(16) 0.84744(16) 0.58030(13)
H20_2 H 0.6066 0.8652 0.5494
C26_2 C 0.54668(16) 0.80054(16) 0.57879(15)
H21_2 H 0.5312 0.7871 0.5469
C27_2 C 0.40256(16) 0.65725(16) 0.66970(13)
H22_2 H 0.3848 0.6434 0.7006
C28_2 C 0.44946(16) 0.70332(16) 0.67121(15)
H23_2 H 0.4629 0.7188 0.7031
O10_2 O 0.61725(11) 0.99554(11) 0.67162(10)
O11_2 O 0.64762(12) 0.98784(12) 0.56313(10)
Zn3_2 Zn 0.684953(19) 0.934953(19) 0.6250
C33_2 C 0.80195(19) 0.87784(18) 0.56560(16)
C34_2 C 0.83261(17) 0.93469(18) 0.59084(16)
H28_2 H 0.8311 0.9677 0.5650
H29_2 H 0.8763 0.9241 0.5951
C35_2 C 0.81160(19) 0.9649(2) 0.64334(17)
H30_2 H 0.8518 0.9783 0.6596
C36_2 C 0.7950(2) 0.91014(19) 0.67935(16)
O13_2 O 0.83008(12) 0.83836(11) 0.53756(10)
O14_2 O 0.74554(11) 0.86725(11) 0.57838(10)
O15_2 O 0.73784(12) 0.89762(12) 0.68687(10)
O16_2 O 0.84147(12) 0.88133(12) 0.69775(10)
C37_2 C 0.21294(17) 0.76391(17) 0.39975(14)
H31_2 H 0.2429 0.7387 0.3842
C38_2 C 0.17607(16) 0.80299(16) 0.36832(14)
H32_2 H 0.1842 0.8002 0.3328
C39_2 C 0.13257(16) 0.84172(16) 0.39168(13)
C40_2 C 0.12435(16) 0.84012(16) 0.44510(14)
H33_2 H 0.0960 0.8637 0.4641
C41_2 C 0.16080(18) 0.80123(17) 0.47512(15)
H34_2 H 0.1556 0.8008 0.5111
N7_2 N 0.20571(14) 0.76223(14) 0.45201(12)
C42_2 C 0.01391(17) 0.96294(17) 0.35025(14)
C43_2 C 0.05299(16) 0.92607(16) 0.38168(14)
H36_2 H 0.0502 0.9342 0.4172
C44_2 C 0.09172(16) 0.88257(16) 0.35832(13)
C45_2 C 0.09012(16) 0.87435(16) 0.30490(14)
H37_2 H 0.1137 0.8460 0.2859
C46_2 C 0.05123(17) 0.91080(18) 0.27488(15)
H38_2 H 0.0508 0.9056 0.2389
O17_2 O 0.58836(11) 0.91992(12) 0.78756(10)
O18_2 O 0.33008(12) 0.66164(11) 0.46244(10)
O20_2 O 0.24554(11) 0.63275(11) 0.42162(10)
Zn6_3 Zn 0.7500 0.79973(3) 0.5000
Zn7_2 Zn 0.45027(3) 0.5000 0.7500
H35_2 H 0.9887 0.9929 0.3658
C22_3 C 0.09275(16) 0.65256(16) 0.41970(13)
H18_3 H 0.1066 0.6348 0.4506
C23_3 C 0.04668(16) 0.69946(16) 0.42121(15)
H19_3 H 0.0312 0.7129 0.4531
C24_3 C 0.02403(16) 0.72597(16) 0.3750
N5_3 N 0.11647(14) 0.63353(14) 0.3750
C25_3 C 0.09744(16) 0.65725(16) 0.33030(13)
H20_3 H 0.1152 0.6434 0.2994
C26_3 C 0.05054(16) 0.70332(16) 0.32879(15)
H21_3 H 0.0371 0.7188 0.2969
C29_3 C 0.30195(19) 0.62216(18) 0.43440(16)
C30_3 C 0.33261(17) 0.56531(18) 0.40916(16)
H24_3 H 0.3311 0.5323 0.4350
H25_3 H 0.3763 0.5759 0.4049
C31_3 C 0.31160(19) 0.5351(2) 0.35666(17)
H26_3 H 0.3518 0.5217 0.3404
C32_3 C 0.2950(2) 0.58986(19) 0.32065(16)
N6_3 N 0.26337(14) 0.48663(14) 0.3750
H27_3 H 0.2933 0.4567 0.3750
O11_3 O 0.23784(12) 0.60238(12) 0.31313(10)
O12_3 O 0.34147(12) 0.61867(12) 0.30225(10)
Zn3_3 Zn 0.184953(19) 0.565047(19) 0.3750
C33_3 C 0.12784(18) 0.44805(19) 0.31560(16)
C34_3 C 0.18469(18) 0.41739(17) 0.34084(16)
H28_3 H 0.2177 0.4189 0.3150
H29_3 H 0.1741 0.3737 0.3451
C35_3 C 0.2149(2) 0.43840(19) 0.39334(17)
H30_3 H 0.2283 0.3982 0.4096
C36_3 C 0.16014(19) 0.4550(2) 0.42935(16)
O13_3 O 0.08836(11) 0.41992(12) 0.28756(10)
O14_3 O 0.11725(11) 0.50446(11) 0.32838(10)
O15_3 O 0.14762(12) 0.51216(12) 0.43687(10)
O16_3 O 0.13133(12) 0.40853(12) 0.44775(10)
C1_3 C 0.87216(18) 0.05195(19) 0.31560(16)
C2_3 C 0.81531(18) 0.08261(17) 0.34084(16)
H1_3 H 0.7823 0.0811 0.3150
H2_3 H 0.8259 0.1263 0.3451
C3_3 C 0.7851(2) 0.06160(19) 0.39334(17)
H3_3 H 0.7717 0.1018 0.4096
C4_3 C 0.83986(19) 0.0450(2) 0.42935(16)
N1_3 N 0.73663(14) 0.01337(14) 0.3750
H10_3 H 0.7067 0.0433 0.3750
O4_3 O 0.86867(12) 0.09147(12) 0.44775(10)
C10_3 C 0.90256(16) 0.84275(16) 0.33030(13)
H8_3 H 0.8848 0.8566 0.2994
C11_3 C 0.94946(16) 0.79668(16) 0.32879(15)
H9_3 H 0.9629 0.7812 0.2969
C12_3 C 0.97597(16) 0.77403(16) 0.3750
N3_3 N 0.88353(14) 0.86647(14) 0.3750
O3_3 O 0.85238(12) 0.98784(12) 0.43687(10)
Zn1_3 Zn 0.815047(19) 0.934953(19) 0.3750
C13_3 C 0.69805(19) 0.87784(18) 0.43440(16)
C14_3 C 0.66739(17) 0.93469(18) 0.40916(16)
H11_3 H 0.6689 0.9677 0.4350
H12_3 H 0.6237 0.9241 0.4049
C15_3 C 0.68840(19) 0.9649(2) 0.35666(17)
H13_3 H 0.6482 0.9783 0.3404
C16_3 C 0.7050(2) 0.91014(19) 0.32065(16)
O5_3 O 0.66992(12) 0.83836(11) 0.46244(10)
O6_3 O 0.75446(11) 0.86725(11) 0.42162(10)
O7_3 O 0.76216(12) 0.89762(12) 0.31313(10)
O8_3 O 0.65853(12) 0.88133(12) 0.30225(10)
C27_3 C 0.90725(16) 0.84744(16) 0.41970(13)
H22_3 H 0.8934 0.8652 0.4506
C28_3 C 0.95332(16) 0.80054(16) 0.42121(15)
H23_3 H 0.9688 0.7871 0.4531
C10_4 C 0.59744(16) 0.15725(16) 0.83030(13)
H8_4 H 0.6152 0.1434 0.7994
C11_4 C 0.55054(16) 0.20332(16) 0.82879(15)
H9_4 H 0.5371 0.2188 0.7969
C12_4 C 0.52403(16) 0.22597(16) 0.8750
N3_4 N 0.61647(14) 0.13353(14) 0.8750
O3_4 O 0.64762(12) 0.01216(12) 0.93687(10)
Zn1_4 Zn 0.684953(19) 0.065047(19) 0.8750
C13_4 C 0.80195(19) 0.12216(18) 0.93440(16)
C14_4 C 0.83261(17) 0.06531(18) 0.90916(16)
H11_4 H 0.8311 0.0323 0.9350
H12_4 H 0.8763 0.0759 0.9049
C15_4 C 0.81160(19) 0.0351(2) 0.85666(17)
H13_4 H 0.8518 0.0217 0.8404
C16_4 C 0.7950(2) 0.08986(19) 0.82065(16)
O5_4 O 0.83008(12) 0.16164(11) 0.96244(10)
O6_4 O 0.74554(11) 0.13275(11) 0.92162(10)
O7_4 O 0.73784(12) 0.10238(12) 0.81313(10)
O8_4 O 0.84147(12) 0.11867(12) 0.80225(10)
C22_4 C 0.40725(16) 0.34744(16) 0.91970(13)
H18_4 H 0.3934 0.3652 0.9506
C23_4 C 0.45332(16) 0.30054(16) 0.92121(15)
H19_4 H 0.4688 0.2871 0.9531
C24_4 C 0.47597(16) 0.27403(16) 0.8750
N5_4 N 0.38353(14) 0.36647(14) 0.8750
C25_4 C 0.40256(16) 0.34275(16) 0.83030(13)
H20_4 H 0.3848 0.3566 0.7994
C26_4 C 0.44946(16) 0.29668(16) 0.82879(15)
H21_4 H 0.4629 0.2812 0.7969
C27_4 C 0.59275(16) 0.15256(16) 0.91970(13)
H22_4 H 0.6066 0.1348 0.9506
C28_4 C 0.54668(16) 0.19946(16) 0.92121(15)
H23_4 H 0.5312 0.2129 0.9531
C29_4 C 0.19805(19) 0.37784(18) 0.93440(16)
C30_4 C 0.16739(17) 0.43469(18) 0.90916(16)
H24_4 H 0.1689 0.4677 0.9350
H25_4 H 0.1237 0.4241 0.9049
C31_4 C 0.18840(19) 0.4649(2) 0.85666(17)
H26_4 H 0.1482 0.4783 0.8404
C32_4 C 0.2050(2) 0.41014(19) 0.82065(16)
N6_4 N 0.23663(14) 0.51337(14) 0.8750
H27_4 H 0.2067 0.5433 0.8750
O11_4 O 0.26216(12) 0.39762(12) 0.81313(10)
O12_4 O 0.15853(12) 0.38133(12) 0.80225(10)
Zn3_4 Zn 0.315047(19) 0.434953(19) 0.8750
C33_4 C 0.37216(18) 0.55195(19) 0.81560(16)
C34_4 C 0.31531(18) 0.58261(17) 0.84084(16)
H28_4 H 0.2823 0.5811 0.8150
H29_4 H 0.3259 0.6263 0.8451
C35_4 C 0.2851(2) 0.56160(19) 0.89334(17)
H30_4 H 0.2717 0.6018 0.9096
C36_4 C 0.33986(19) 0.5450(2) 0.92935(16)
O13_4 O 0.41164(11) 0.58008(12) 0.78756(10)
O14_4 O 0.38275(11) 0.49554(11) 0.82838(10)
O15_4 O 0.35238(12) 0.48784(12) 0.93687(10)
O16_4 O 0.36867(12) 0.59147(12) 0.94775(10)
C1_4 C 0.62784(18) 0.94805(19) 0.81560(16)
C2_4 C 0.68469(18) 0.91739(17) 0.84084(16)
H1_4 H 0.7177 0.9189 0.8150
H2_4 H 0.6741 0.8737 0.8451
C3_4 C 0.7149(2) 0.93840(19) 0.89334(17)
H3_4 H 0.7283 0.8982 0.9096
C4_4 C 0.66014(19) 0.9550(2) 0.92935(16)
N1_4 N 0.76337(14) 0.98663(14) 0.8750
H10_4 H 0.7933 0.9567 0.8750
O4_4 O 0.63133(12) 0.90853(12) 0.94775(10)
H35_3 H 0.0113 0.5071 0.3658
C5_3 C 0.71294(17) 0.73609(17) 0.60025(14)
H4_3 H 0.7429 0.7613 0.6158
C6_3 C 0.67607(16) 0.69701(16) 0.63168(14)
H5_3 H 0.6842 0.6998 0.6672
C7_3 C 0.63257(16) 0.65828(16) 0.60832(13)
C8_3 C 0.62435(16) 0.65988(16) 0.55490(14)
H6_3 H 0.5960 0.6363 0.5359
C9_3 C 0.66080(18) 0.69877(17) 0.52488(15)
H7_3 H 0.6556 0.6992 0.4889
N2_3 N 0.70571(14) 0.73777(14) 0.54799(12)
C17_3 C 0.51391(17) 0.53706(17) 0.64975(14)
H14_3 H 0.4887 0.5071 0.6342
C18_3 C 0.55299(16) 0.57393(16) 0.61832(14)
H15_3 H 0.5502 0.5658 0.5828
C19_3 C 0.59172(16) 0.61743(16) 0.64168(13)
C20_3 C 0.59012(16) 0.62565(16) 0.69510(14)
H16_3 H 0.6137 0.6540 0.7141
C21_3 C 0.55123(17) 0.58920(18) 0.72512(15)
H17_3 H 0.5508 0.5944 0.7611
N4_3 N 0.51223(14) 0.54429(14) 0.70201(12)
C37_3 C 0.78706(17) 0.73609(17) 0.39975(14)
H31_3 H 0.7571 0.7613 0.3842
C38_3 C 0.82393(16) 0.69701(16) 0.36832(14)
H32_3 H 0.8158 0.6998 0.3328
C39_3 C 0.86743(16) 0.65828(16) 0.39168(13)
C40_3 C 0.87565(16) 0.65988(16) 0.44510(14)
H33_3 H 0.9040 0.6363 0.4641
C41_3 C 0.83920(18) 0.69877(17) 0.47512(15)
H34_3 H 0.8444 0.6992 0.5111
N7_3 N 0.79429(14) 0.73777(14) 0.45201(12)
C42_3 C 0.98609(17) 0.53706(17) 0.35025(14)
C43_3 C 0.94701(16) 0.57393(16) 0.38168(14)
H36_3 H 0.9498 0.5658 0.4172
C44_3 C 0.90828(16) 0.61743(16) 0.35832(13)
C45_3 C 0.90988(16) 0.62565(16) 0.30490(14)
H37_3 H 0.8863 0.6540 0.2859
C46_3 C 0.94877(17) 0.58920(18) 0.27488(15)
H38_3 H 0.9492 0.5944 0.2389
N8_2 N 0.98777(14) 0.54429(14) 0.29799(12)
N9_2 N 0.51223(14) 0.45571(14) 0.79799(12)
H14_4 H 0.0113 0.4929 0.1342
C5_4 C 0.78706(17) 0.26391(17) 0.10025(14)
H4_4 H 0.7571 0.2387 0.1158
C6_4 C 0.82393(16) 0.30299(16) 0.13168(14)
H5_4 H 0.8158 0.3002 0.1672
C7_4 C 0.86743(16) 0.34172(16) 0.10832(13)
C8_4 C 0.87565(16) 0.34012(16) 0.05490(14)
H6_4 H 0.9040 0.3637 0.0359
C9_4 C 0.83920(18) 0.30123(17) 0.02488(15)
N2_4 N 0.79429(14) 0.26223(14) 0.04799(12)
C17_4 C 0.98609(17) 0.46294(17) 0.14975(14)
C18_4 C 0.94701(16) 0.42607(16) 0.11832(14)
H15_4 H 0.9498 0.4342 0.0828
C19_4 C 0.90828(16) 0.38257(16) 0.14168(13)
C20_4 C 0.90988(16) 0.37435(16) 0.19510(14)
H16_4 H 0.8863 0.3460 0.2141
C21_4 C 0.94877(17) 0.41080(18) 0.22512(15)
H17_4 H 0.9492 0.4056 0.2611
N4_4 N 0.98777(14) 0.45571(14) 0.20201(12)
H34_4 H 0.6556 0.3008 0.0111
H7_4 H 0.8444 0.3008 0.9889
C37_4 C 0.71294(17) 0.26391(17) 0.89975(14)
H31_4 H 0.7429 0.2387 0.8842
C38_4 C 0.67607(16) 0.30299(16) 0.86832(14)
H32_4 H 0.6842 0.3002 0.8328
C39_4 C 0.63257(16) 0.34172(16) 0.89168(13)
C40_4 C 0.62435(16) 0.34012(16) 0.94510(14)
H33_4 H 0.5960 0.3637 0.9641
C41_4 C 0.66080(18) 0.30123(17) 0.97512(15)
N7_4 N 0.70571(14) 0.26223(14) 0.95201(12)
C42_4 C 0.51391(17) 0.46294(17) 0.85025(14)
H35_4 H 0.4887 0.4929 0.8658
C43_4 C 0.55299(16) 0.42607(16) 0.88168(14)
H36_4 H 0.5502 0.4342 0.9172
C44_4 C 0.59172(16) 0.38257(16) 0.85832(13)
C45_4 C 0.59012(16) 0.37435(16) 0.80490(14)
H37_4 H 0.6137 0.3460 0.7859
C46_4 C 0.55123(17) 0.41080(18) 0.77488(15)
H38_4 H 0.5508 0.4056 0.7389
C29_5 C 0.12784(18) 0.05195(19) 0.81560(16)
C30_5 C 0.18469(18) 0.08261(17) 0.84084(16)
H24_5 H 0.2177 0.0811 0.8150
H25_5 H 0.1741 0.1263 0.8451
C31_5 C 0.2149(2) 0.06160(19) 0.89334(17)
H26_5 H 0.2283 0.1018 0.9096
C32_5 C 0.16014(19) 0.0450(2) 0.92935(16)
N6_5 N 0.26337(14) 0.01337(14) 0.8750
H27_5 H 0.2933 0.0433 0.8750
O9_3 O 0.08836(11) 0.08008(12) 0.78756(10)
O12_5 O 0.13133(12) 0.09147(12) 0.94775(10)
Zn4_3 Zn 0.04973(3) -0.0000 0.7500
O19_3 O 0.11725(11) 0.00446(11) 0.67162(10)
Zn6_4 Zn 0.2500 0.79973(3) 0.0000
H14_5 H 0.0113 0.9929 0.8658
C22_5 C 0.09744(16) 0.84275(16) 0.83030(13)
H18_5 H 0.1152 0.8566 0.7994
C23_5 C 0.05054(16) 0.79668(16) 0.82879(15)
H19_5 H 0.0371 0.7812 0.7969
C24_5 C 0.02403(16) 0.77403(16) 0.8750
N5_5 N 0.11647(14) 0.86647(14) 0.8750
C25_5 C 0.09275(16) 0.84744(16) 0.91970(13)
H20_5 H 0.1066 0.8652 0.9506
C26_5 C 0.04668(16) 0.80054(16) 0.92121(15)
H21_5 H 0.0312 0.7871 0.9531
O10_3 O 0.11725(11) 0.99554(11) 0.82838(10)
O11_5 O 0.14762(12) 0.98784(12) 0.93687(10)
Zn3_5 Zn 0.184953(19) 0.934953(19) 0.8750
Zn4_4 Zn 0.04973(3) 1.0000 0.7500
C33_5 C 0.30195(19) 0.87784(18) 0.93440(16)
C34_5 C 0.33261(17) 0.93469(18) 0.90916(16)
H28_5 H 0.3311 0.9677 0.9350
H29_5 H 0.3763 0.9241 0.9049
C35_5 C 0.31160(19) 0.9649(2) 0.85666(17)
H30_5 H 0.3518 0.9783 0.8404
C36_5 C 0.2950(2) 0.91014(19) 0.82065(16)
O13_5 O 0.33008(12) 0.83836(11) 0.96244(10)
O14_5 O 0.24554(11) 0.86725(11) 0.92162(10)
O15_5 O 0.23784(12) 0.89762(12) 0.81313(10)
O16_5 O 0.34147(12) 0.88133(12) 0.80225(10)
O17_3 O 0.08836(11) 0.91992(12) 0.71244(10)
Zn6_5 Zn 0.2500 0.79973(3) 1.0000
Zn5_3 Zn 0.45027(3) 0.0000 0.2500
N9_3 N 0.98777(14) 0.04429(14) 0.70201(12)
H7_5 H 0.8444 0.8008 0.0111
Zn2_4 Zn 0.7500 0.70027(3) 0.0000
C37_5 C 0.71294(17) 0.76391(17) 0.10025(14)
H31_5 H 0.7429 0.7387 0.1158
C38_5 C 0.67607(16) 0.80299(16) 0.13168(14)
H32_5 H 0.6842 0.8002 0.1672
C39_5 C 0.63257(16) 0.84172(16) 0.10832(13)
C40_5 C 0.62435(16) 0.84012(16) 0.05490(14)
H33_5 H 0.5960 0.8637 0.0359
C41_5 C 0.66080(18) 0.80123(17) 0.02488(15)
N7_5 N 0.70571(14) 0.76223(14) 0.04799(12)
C42_5 C 0.51391(17) 0.96294(17) 0.14975(14)
H35_5 H 0.4887 0.9929 0.1342
C43_5 C 0.55299(16) 0.92607(16) 0.11832(14)
H36_5 H 0.5502 0.9342 0.0828
C44_5 C 0.59172(16) 0.88257(16) 0.14168(13)
C45_5 C 0.59012(16) 0.87435(16) 0.19510(14)
H37_5 H 0.6137 0.8460 0.2141
C46_5 C 0.55123(17) 0.91080(18) 0.22512(15)
H38_5 H 0.5508 0.9056 0.2611
N8_3 N 0.51223(14) 0.95571(14) 0.20201(12)
O18_3 O 0.83008(12) 0.66164(11) 0.03756(10)
O20_3 O 0.74554(11) 0.63275(11) 0.07838(10)
Zn5_4 Zn 0.45027(3) 1.0000 0.2500
C1_5 C 0.69805(19) 0.62216(18) 0.93440(16)
C2_5 C 0.66739(17) 0.56531(18) 0.90916(16)
H1_5 H 0.6689 0.5323 0.9350
H2_5 H 0.6237 0.5759 0.9049
C3_5 C 0.68840(19) 0.5351(2) 0.85666(17)
H3_5 H 0.6482 0.5217 0.8404
C4_5 C 0.7050(2) 0.58986(19) 0.82065(16)
C5_5 C 0.78706(17) 0.76391(17) 0.89975(14)
H4_5 H 0.7571 0.7387 0.8842
C6_5 C 0.82393(16) 0.80299(16) 0.86832(14)
H5_5 H 0.8158 0.8002 0.8328
C7_5 C 0.86743(16) 0.84172(16) 0.89168(13)
C8_5 C 0.87565(16) 0.84012(16) 0.94510(14)
H6_5 H 0.9040 0.8637 0.9641
C9_5 C 0.83920(18) 0.80123(17) 0.97512(15)
C10_5 C 0.90725(16) 0.65256(16) 0.91970(13)
H8_5 H 0.8934 0.6348 0.9506
C11_5 C 0.95332(16) 0.69946(16) 0.92121(15)
H9_5 H 0.9688 0.7129 0.9531
C12_5 C 0.97597(16) 0.72597(16) 0.8750
N1_5 N 0.73663(14) 0.48663(14) 0.8750
H10_5 H 0.7067 0.4567 0.8750
N2_5 N 0.79429(14) 0.76223(14) 0.95201(12)
N3_5 N 0.88353(14) 0.63353(14) 0.8750
O1_3 O 0.66992(12) 0.66164(11) 0.96244(10)
O2_3 O 0.75446(11) 0.63275(11) 0.92162(10)
O3_5 O 0.76216(12) 0.60238(12) 0.81313(10)
O4_5 O 0.65853(12) 0.61867(12) 0.80225(10)
Zn1_5 Zn 0.815047(19) 0.565047(19) 0.8750
Zn2_5 Zn 0.7500 0.70027(3) 1.0000
C13_5 C 0.87216(18) 0.44805(19) 0.81560(16)
C14_5 C 0.81531(18) 0.41739(17) 0.84084(16)
H11_5 H 0.7823 0.4189 0.8150
H12_5 H 0.8259 0.3737 0.8451
C15_5 C 0.7851(2) 0.43840(19) 0.89334(17)
H13_5 H 0.7717 0.3982 0.9096
C16_5 C 0.83986(19) 0.4550(2) 0.92935(16)
O5_5 O 0.91164(11) 0.41992(12) 0.78756(10)
O6_5 O 0.88275(11) 0.50446(11) 0.82838(10)
O7_5 O 0.85238(12) 0.51216(12) 0.93687(10)
O8_5 O 0.86867(12) 0.40853(12) 0.94775(10)
C17_5 C 0.98609(17) 0.96294(17) 0.85025(14)
C18_5 C 0.94701(16) 0.92607(16) 0.88168(14)
H15_5 H 0.9498 0.9342 0.9172
C19_5 C 0.90828(16) 0.88257(16) 0.85832(13)
C20_5 C 0.90988(16) 0.87435(16) 0.80490(14)
H16_5 H 0.8863 0.8460 0.7859
C21_5 C 0.94877(17) 0.91080(18) 0.77488(15)
H17_5 H 0.9492 0.9056 0.7389
N4_5 N 0.98777(14) 0.95571(14) 0.79799(12)
C27_5 C 0.90256(16) 0.65725(16) 0.83030(13)
H22_5 H 0.8848 0.6434 0.7994
C28_5 C 0.94946(16) 0.70332(16) 0.82879(15)
H23_5 H 0.9629 0.7188 0.7969
H34_5 H 0.6556 0.8008 0.9889
Zn7_3 Zn 0.95027(3) 0.5000 0.7500
H35_6 H 0.0113 0.0071 0.6342
C1_6 C 0.80195(19) 0.37784(18) 0.43440(16)
C2_6 C 0.83261(17) 0.43469(18) 0.40916(16)
H1_6 H 0.8311 0.4677 0.4350
H2_6 H 0.8763 0.4241 0.4049
C3_6 C 0.81160(19) 0.4649(2) 0.35666(17)
H3_6 H 0.8518 0.4783 0.3404
C4_6 C 0.7950(2) 0.41014(19) 0.32065(16)
C5_6 C 0.71294(17) 0.23609(17) 0.39975(14)
H4_6 H 0.7429 0.2613 0.3842
C6_6 C 0.67607(16) 0.19701(16) 0.36832(14)
H5_6 H 0.6842 0.1998 0.3328
C7_6 C 0.63257(16) 0.15828(16) 0.39168(13)
C8_6 C 0.62435(16) 0.15988(16) 0.44510(14)
H6_6 H 0.5960 0.1363 0.4641
C9_6 C 0.66080(18) 0.19877(17) 0.47512(15)
H7_6 H 0.6556 0.1992 0.5111
C10_6 C 0.59275(16) 0.34744(16) 0.41970(13)
H8_6 H 0.6066 0.3652 0.4506
C11_6 C 0.54668(16) 0.30054(16) 0.42121(15)
H9_6 H 0.5312 0.2871 0.4531
C12_6 C 0.52403(16) 0.27403(16) 0.3750
N1_6 N 0.76337(14) 0.51337(14) 0.3750
H10_6 H 0.7933 0.5433 0.3750
N2_6 N 0.70571(14) 0.23777(14) 0.45201(12)
N3_6 N 0.61647(14) 0.36647(14) 0.3750
O1_4 O 0.83008(12) 0.33836(11) 0.46244(10)
O2_4 O 0.74554(11) 0.36725(11) 0.42162(10)
O3_6 O 0.73784(12) 0.39762(12) 0.31313(10)
O4_6 O 0.84147(12) 0.38133(12) 0.30225(10)
Zn1_6 Zn 0.684953(19) 0.434953(19) 0.3750
Zn2_6 Zn 0.7500 0.29973(3) 0.5000
C13_6 C 0.62784(18) 0.55195(19) 0.31560(16)
C14_6 C 0.68469(18) 0.58261(17) 0.34084(16)
H11_6 H 0.7177 0.5811 0.3150
H12_6 H 0.6741 0.6263 0.3451
C15_6 C 0.7149(2) 0.56160(19) 0.39334(17)
H13_6 H 0.7283 0.6018 0.4096
C16_6 C 0.66014(19) 0.5450(2) 0.42935(16)
O5_6 O 0.58836(11) 0.58008(12) 0.28756(10)
O6_6 O 0.61725(11) 0.49554(11) 0.32838(10)
O7_6 O 0.64762(12) 0.48784(12) 0.43687(10)
O8_6 O 0.63133(12) 0.59147(12) 0.44775(10)
C17_6 C 0.51391(17) 0.03706(17) 0.35025(14)
H14_6 H 0.4887 0.0071 0.3658
C18_6 C 0.55299(16) 0.07393(16) 0.38168(14)
H15_6 H 0.5502 0.0658 0.4172
C19_6 C 0.59172(16) 0.11743(16) 0.35832(13)
C20_6 C 0.59012(16) 0.12565(16) 0.30490(14)
H16_6 H 0.6137 0.1540 0.2859
C21_6 C 0.55123(17) 0.08920(18) 0.27488(15)
H17_6 H 0.5508 0.0944 0.2389
N4_6 N 0.51223(14) 0.04429(14) 0.29799(12)
C22_6 C 0.40256(16) 0.15725(16) 0.33030(13)
H18_6 H 0.3848 0.1434 0.2994
C23_6 C 0.44946(16) 0.20332(16) 0.32879(15)
H19_6 H 0.4629 0.2188 0.2969
C24_6 C 0.47597(16) 0.22597(16) 0.3750
N5_6 N 0.38353(14) 0.13353(14) 0.3750
C25_6 C 0.40725(16) 0.15256(16) 0.41970(13)
H20_6 H 0.3934 0.1348 0.4506
C26_6 C 0.45332(16) 0.19946(16) 0.42121(15)
H21_6 H 0.4688 0.2129 0.4531
C27_6 C 0.59744(16) 0.34275(16) 0.33030(13)
H22_6 H 0.6152 0.3566 0.2994
C28_6 C 0.55054(16) 0.29668(16) 0.32879(15)
H23_6 H 0.5371 0.2812 0.2969
O10_4 O 0.38275(11) 0.00446(11) 0.32838(10)
O11_6 O 0.35238(12) 0.01216(12) 0.43687(10)
Zn3_6 Zn 0.315047(19) 0.065047(19) 0.3750
C33_6 C 0.19805(19) 0.12216(18) 0.43440(16)
C34_6 C 0.16739(17) 0.06531(18) 0.40916(16)
H28_6 H 0.1689 0.0323 0.4350
H29_6 H 0.1237 0.0759 0.4049
C35_6 C 0.18840(19) 0.0351(2) 0.35666(17)
H30_6 H 0.1482 0.0217 0.3404
C36_6 C 0.2050(2) 0.08986(19) 0.32065(16)
O13_6 O 0.16992(12) 0.16164(11) 0.46244(10)
O14_6 O 0.25446(11) 0.13275(11) 0.42162(10)
O15_6 O 0.26216(12) 0.10238(12) 0.31313(10)
O16_6 O 0.15853(12) 0.11867(12) 0.30225(10)
C37_6 C 0.78706(17) 0.23609(17) 0.60025(14)
H31_6 H 0.7571 0.2613 0.6158
C38_6 C 0.82393(16) 0.19701(16) 0.63168(14)
H32_6 H 0.8158 0.1998 0.6672
C39_6 C 0.86743(16) 0.15828(16) 0.60832(13)
C40_6 C 0.87565(16) 0.15988(16) 0.55490(14)
H33_6 H 0.9040 0.1363 0.5359
C41_6 C 0.83920(18) 0.19877(17) 0.52488(15)
H34_6 H 0.8444 0.1992 0.4889
N7_6 N 0.79429(14) 0.23777(14) 0.54799(12)
C42_6 C 0.98609(17) 0.03706(17) 0.64975(14)
C43_6 C 0.94701(16) 0.07393(16) 0.61832(14)
H36_6 H 0.9498 0.0658 0.5828
C44_6 C 0.90828(16) 0.11743(16) 0.64168(13)
C45_6 C 0.90988(16) 0.12565(16) 0.69510(14)
H37_6 H 0.8863 0.1540 0.7141
C46_6 C 0.94877(17) 0.08920(18) 0.72512(15)
H38_6 H 0.9492 0.0944 0.7611
O17_4 O 0.41164(11) 0.08008(12) 0.21244(10)
O18_4 O 0.66992(12) 0.33836(11) 0.53756(10)
O20_4 O 0.75446(11) 0.36725(11) 0.57838(10)
Zn6_6 Zn 0.2500 0.20027(3) 0.5000
Zn7_4 Zn 0.54973(3) 0.5000 0.2500
C29_6 C 0.37216(18) 0.94805(19) 0.31560(16)
C30_6 C 0.31531(18) 0.91739(17) 0.34084(16)
H24_6 H 0.2823 0.9189 0.3150
H25_6 H 0.3259 0.8737 0.3451
C31_6 C 0.2851(2) 0.93840(19) 0.39334(17)
H26_6 H 0.2717 0.8982 0.4096
C32_6 C 0.33986(19) 0.9550(2) 0.42935(16)
N6_6 N 0.23663(14) 0.98663(14) 0.3750
H27_6 H 0.2067 0.9567 0.3750
O9_4 O 0.41164(11) 0.91992(12) 0.28756(10)
O12_6 O 0.36867(12) 0.90853(12) 0.44775(10)
O19_4 O 0.38275(11) 0.99554(11) 0.17162(10)
C10_7 C 0.09744(16) 0.15725(16) 0.66970(13)
H8_7 H 0.1152 0.1434 0.7006
C11_7 C 0.05054(16) 0.20332(16) 0.67121(15)
H9_7 H 0.0371 0.2188 0.7031
C12_7 C 0.02403(16) 0.22597(16) 0.6250
N3_7 N 0.11647(14) 0.13353(14) 0.6250
O3_7 O 0.14762(12) 0.01216(12) 0.56313(10)
Zn1_7 Zn 0.184953(19) 0.065047(19) 0.6250
C13_7 C 0.30195(19) 0.12216(18) 0.56560(16)
C14_7 C 0.33261(17) 0.06531(18) 0.59084(16)
H11_7 H 0.3311 0.0323 0.5650
H12_7 H 0.3763 0.0759 0.5951
C15_7 C 0.31160(19) 0.0351(2) 0.64334(17)
H13_7 H 0.3518 0.0217 0.6596
C16_7 C 0.2950(2) 0.08986(19) 0.67935(16)
O5_7 O 0.33008(12) 0.16164(11) 0.53756(10)
O6_7 O 0.24554(11) 0.13275(11) 0.57838(10)
O7_7 O 0.23784(12) 0.10238(12) 0.68687(10)
O8_7 O 0.34147(12) 0.11867(12) 0.69775(10)
C27_7 C 0.09275(16) 0.15256(16) 0.58030(13)
H22_7 H 0.1066 0.1348 0.5494
C28_7 C 0.04668(16) 0.19946(16) 0.57879(15)
H23_7 H 0.0312 0.2129 0.5469
C1_7 C 0.12784(18) 0.94805(19) 0.68440(16)
C2_7 C 0.18469(18) 0.91739(17) 0.65916(16)
H1_7 H 0.2177 0.9189 0.6850
H2_7 H 0.1741 0.8737 0.6549
C3_7 C 0.2149(2) 0.93840(19) 0.60666(17)
H3_7 H 0.2283 0.8982 0.5904
C4_7 C 0.16014(19) 0.9550(2) 0.57065(16)
N1_7 N 0.26337(14) 0.98663(14) 0.6250
H10_7 H 0.2933 0.9567 0.6250
O4_7 O 0.13133(12) 0.90853(12) 0.55225(10)
C22_7 C 0.90725(16) 0.34744(16) 0.58030(13)
H18_7 H 0.8934 0.3652 0.5494
C23_7 C 0.95332(16) 0.30054(16) 0.57879(15)
H19_7 H 0.9688 0.2871 0.5469
C24_7 C 0.97597(16) 0.27403(16) 0.6250
N5_7 N 0.88353(14) 0.36647(14) 0.6250
C25_7 C 0.90256(16) 0.34275(16) 0.66970(13)
H20_7 H 0.8848 0.3566 0.7006
C26_7 C 0.94946(16) 0.29668(16) 0.67121(15)
H21_7 H 0.9629 0.2812 0.7031
C29_7 C 0.69805(19) 0.37784(18) 0.56560(16)
C30_7 C 0.66739(17) 0.43469(18) 0.59084(16)
H24_7 H 0.6689 0.4677 0.5650
H25_7 H 0.6237 0.4241 0.5951
C31_7 C 0.68840(19) 0.4649(2) 0.64334(17)
H26_7 H 0.6482 0.4783 0.6596
C32_7 C 0.7050(2) 0.41014(19) 0.67935(16)
N6_7 N 0.73663(14) 0.51337(14) 0.6250
H27_7 H 0.7067 0.5433 0.6250
O11_7 O 0.76216(12) 0.39762(12) 0.68687(10)
O12_7 O 0.65853(12) 0.38133(12) 0.69775(10)
Zn3_7 Zn 0.815047(19) 0.434953(19) 0.6250
C33_7 C 0.87216(18) 0.55195(19) 0.68440(16)
C34_7 C 0.81531(18) 0.58261(17) 0.65916(16)
H28_7 H 0.7823 0.5811 0.6850
H29_7 H 0.8259 0.6263 0.6549
C35_7 C 0.7851(2) 0.56160(19) 0.60666(17)
H30_7 H 0.7717 0.6018 0.5904
C36_7 C 0.83986(19) 0.5450(2) 0.57065(16)
O13_7 O 0.91164(11) 0.58008(12) 0.71244(10)
O14_7 O 0.88275(11) 0.49554(11) 0.67162(10)
O15_7 O 0.85238(12) 0.48784(12) 0.56313(10)
O16_7 O 0.86867(12) 0.59147(12) 0.55225(10)
C1_8 C 0.37216(18) 0.05195(19) 0.18440(16)
C2_8 C 0.31531(18) 0.08261(17) 0.15916(16)
H1_8 H 0.2823 0.0811 0.1850
H2_8 H 0.3259 0.1263 0.1549
C3_8 C 0.2851(2) 0.06160(19) 0.10666(17)
H3_8 H 0.2717 0.1018 0.0904
C4_8 C 0.33986(19) 0.0450(2) 0.07065(16)
N1_8 N 0.23663(14) 0.01337(14) 0.1250
H10_8 H 0.2067 0.0433 0.1250
O4_8 O 0.36867(12) 0.09147(12) 0.05225(10)
C10_8 C 0.40256(16) 0.84275(16) 0.16970(13)
H8_8 H 0.3848 0.8566 0.2006
C11_8 C 0.44946(16) 0.79668(16) 0.17121(15)
H9_8 H 0.4629 0.7812 0.2031
C12_8 C 0.47597(16) 0.77403(16) 0.1250
N3_8 N 0.38353(14) 0.86647(14) 0.1250
O3_8 O 0.35238(12) 0.98784(12) 0.06313(10)
Zn1_8 Zn 0.315047(19) 0.934953(19) 0.1250
C13_8 C 0.19805(19) 0.87784(18) 0.06560(16)
C14_8 C 0.16739(17) 0.93469(18) 0.09084(16)
H11_8 H 0.1689 0.9677 0.0650
H12_8 H 0.1237 0.9241 0.0951
C15_8 C 0.18840(19) 0.9649(2) 0.14334(17)
H13_8 H 0.1482 0.9783 0.1596
C16_8 C 0.2050(2) 0.91014(19) 0.17935(16)
O5_8 O 0.16992(12) 0.83836(11) 0.03756(10)
O6_8 O 0.25446(11) 0.86725(11) 0.07838(10)
O7_8 O 0.26216(12) 0.89762(12) 0.18687(10)
O8_8 O 0.15853(12) 0.88133(12) 0.19775(10)
C22_8 C 0.59275(16) 0.65256(16) 0.08030(13)
H18_8 H 0.6066 0.6348 0.0494
C23_8 C 0.54668(16) 0.69946(16) 0.07879(15)
H19_8 H 0.5312 0.7129 0.0469
C24_8 C 0.52403(16) 0.72597(16) 0.1250
N5_8 N 0.61647(14) 0.63353(14) 0.1250
C25_8 C 0.59744(16) 0.65725(16) 0.16970(13)
H20_8 H 0.6152 0.6434 0.2006
C26_8 C 0.55054(16) 0.70332(16) 0.17121(15)
H21_8 H 0.5371 0.7188 0.2031
C27_8 C 0.40725(16) 0.84744(16) 0.08030(13)
H22_8 H 0.3934 0.8652 0.0494
C28_8 C 0.45332(16) 0.80054(16) 0.07879(15)
H23_8 H 0.4688 0.7871 0.0469
C29_8 C 0.80195(19) 0.62216(18) 0.06560(16)
C30_8 C 0.83261(17) 0.56531(18) 0.09084(16)
H24_8 H 0.8311 0.5323 0.0650
H25_8 H 0.8763 0.5759 0.0951
C31_8 C 0.81160(19) 0.5351(2) 0.14334(17)
H26_8 H 0.8518 0.5217 0.1596
C32_8 C 0.7950(2) 0.58986(19) 0.17935(16)
N6_8 N 0.76337(14) 0.48663(14) 0.1250
H27_8 H 0.7933 0.4567 0.1250
O11_8 O 0.73784(12) 0.60238(12) 0.18687(10)
O12_8 O 0.84147(12) 0.61867(12) 0.19775(10)
Zn3_8 Zn 0.684953(19) 0.565047(19) 0.1250
C33_8 C 0.62784(18) 0.44805(19) 0.18440(16)
C34_8 C 0.68469(18) 0.41739(17) 0.15916(16)
H28_8 H 0.7177 0.4189 0.1850
H29_8 H 0.6741 0.3737 0.1549
C35_8 C 0.7149(2) 0.43840(19) 0.10666(17)
H30_8 H 0.7283 0.3982 0.0904
C36_8 C 0.66014(19) 0.4550(2) 0.07065(16)
O13_8 O 0.58836(11) 0.41992(12) 0.21244(10)
O14_8 O 0.61725(11) 0.50446(11) 0.17162(10)
O15_8 O 0.64762(12) 0.51216(12) 0.06313(10)
O16_8 O 0.63133(12) 0.40853(12) 0.05225(10)
C5_7 C 0.28706(17) 0.26391(17) 0.39975(14)
H4_7 H 0.2571 0.2387 0.3842
C6_7 C 0.32393(16) 0.30299(16) 0.36832(14)
H5_7 H 0.3158 0.3002 0.3328
C7_7 C 0.36743(16) 0.34172(16) 0.39168(13)
C8_7 C 0.37565(16) 0.34012(16) 0.44510(14)
H6_7 H 0.4040 0.3637 0.4641
C9_7 C 0.33920(18) 0.30123(17) 0.47512(15)
H7_7 H 0.3444 0.3008 0.5111
N2_7 N 0.29429(14) 0.26223(14) 0.45201(12)
C17_7 C 0.48609(17) 0.46294(17) 0.35025(14)
H14_7 H 0.5113 0.4929 0.3658
C18_7 C 0.44701(16) 0.42607(16) 0.38168(14)
H15_7 H 0.4498 0.4342 0.4172
C19_7 C 0.40828(16) 0.38257(16) 0.35832(13)
C20_7 C 0.40988(16) 0.37435(16) 0.30490(14)
H16_7 H 0.3863 0.3460 0.2859
C21_7 C 0.44877(17) 0.41080(18) 0.27488(15)
H17_7 H 0.4492 0.4056 0.2389
N4_7 N 0.48777(14) 0.45571(14) 0.29799(12)
C37_7 C 0.21294(17) 0.26391(17) 0.60025(14)
H31_7 H 0.2429 0.2387 0.6158
C38_7 C 0.17607(16) 0.30299(16) 0.63168(14)
H32_7 H 0.1842 0.3002 0.6672
C39_7 C 0.13257(16) 0.34172(16) 0.60832(13)
C40_7 C 0.12435(16) 0.34012(16) 0.55490(14)
H33_7 H 0.0960 0.3637 0.5359
C41_7 C 0.16080(18) 0.30123(17) 0.52488(15)
H34_7 H 0.1556 0.3008 0.4889
N7_7 N 0.20571(14) 0.26223(14) 0.54799(12)
C42_7 C 0.01391(17) 0.46294(17) 0.64975(14)
C43_7 C 0.05299(16) 0.42607(16) 0.61832(14)
H36_7 H 0.0502 0.4342 0.5828
C44_7 C 0.09172(16) 0.38257(16) 0.64168(13)
C45_7 C 0.09012(16) 0.37435(16) 0.69510(14)
H37_7 H 0.1137 0.3460 0.7141
C46_7 C 0.05123(17) 0.41080(18) 0.72512(15)
H38_7 H 0.0508 0.4056 0.7611
N8_4 N 0.01223(14) 0.45571(14) 0.70201(12)
N9_4 N 0.48777(14) 0.54429(14) 0.20201(12)
H35_7 H 0.9887 0.4929 0.6342
H7_8 H 0.1556 0.6992 0.0111
C37_8 C 0.28706(17) 0.73609(17) 0.10025(14)
H31_8 H 0.2571 0.7613 0.1158
C38_8 C 0.32393(16) 0.69701(16) 0.13168(14)
H32_8 H 0.3158 0.6998 0.1672
C39_8 C 0.36743(16) 0.65828(16) 0.10832(13)
C40_8 C 0.37565(16) 0.65988(16) 0.05490(14)
H33_8 H 0.4040 0.6363 0.0359
C41_8 C 0.33920(18) 0.69877(17) 0.02488(15)
N7_8 N 0.29429(14) 0.73777(14) 0.04799(12)
C42_8 C 0.48609(17) 0.53706(17) 0.14975(14)
H35_8 H 0.5113 0.5071 0.1342
C43_8 C 0.44701(16) 0.57393(16) 0.11832(14)
H36_8 H 0.4498 0.5658 0.0828
C44_8 C 0.40828(16) 0.61743(16) 0.14168(13)
C45_8 C 0.40988(16) 0.62565(16) 0.19510(14)
H37_8 H 0.3863 0.6540 0.2141
C46_8 C 0.44877(17) 0.58920(18) 0.22512(15)
H38_8 H 0.4492 0.5944 0.2611
C5_8 C 0.21294(17) 0.73609(17) 0.89975(14)
H4_8 H 0.2429 0.7613 0.8842
C6_8 C 0.17607(16) 0.69701(16) 0.86832(14)
H5_8 H 0.1842 0.6998 0.8328
C7_8 C 0.13257(16) 0.65828(16) 0.89168(13)
C8_8 C 0.12435(16) 0.65988(16) 0.94510(14)
H6_8 H 0.0960 0.6363 0.9641
C9_8 C 0.16080(18) 0.69877(17) 0.97512(15)
N2_8 N 0.20571(14) 0.73777(14) 0.95201(12)
C17_8 C 0.01391(17) 0.53706(17) 0.85025(14)
C18_8 C 0.05299(16) 0.57393(16) 0.88168(14)
H15_8 H 0.0502 0.5658 0.9172
C19_8 C 0.09172(16) 0.61743(16) 0.85832(13)
C20_8 C 0.09012(16) 0.62565(16) 0.80490(14)
H16_8 H 0.1137 0.6540 0.7859
C21_8 C 0.05123(17) 0.58920(18) 0.77488(15)
H17_8 H 0.0508 0.5944 0.7389
N4_8 N 0.01223(14) 0.54429(14) 0.79799(12)
H34_8 H 0.3444 0.6992 0.9889
H14_8 H 0.9887 0.5071 0.8658
loop_
_geom_bond_atom_site_label_1
_geom_bond_atom_site_label_2
_geom_bond_site_symmetry_1
_geom_bond_site_symmetry_2
C1 C2 1_555 1_555
C2 H1 1_555 1_555
H2 C2 1_555 1_555
C3 C2 1_555 1_555
H3 C3 1_555 1_555
C4 C3 1_555 1_555
C5 H4 1_555 1_555
C6 C5 1_555 1_555
H5 C6 1_555 1_555
C7 C6 1_555 1_555
C8 C7 1_555 1_555
H6 C8 1_555 1_555
C9 C8 1_555 1_555
C10 H8 1_555 1_555
C11 C10 1_555 1_555
H9 C11 1_555 1_555
C12 C11 1_555 1_555
N1 C3 1_555 1_555
H10 N1 1_555 1_555
N2 C5 1_555 1_555
N3 C10 1_555 1_555
O1 C1 1_555 1_555
O2 C1 1_555 1_555
O3 C4 1_555 1_555
O4 C4 1_555 1_555
Zn1 N1 1_555 1_555
Zn2 N2 1_555 1_555
C13 C14 1_555 1_555
C14 H11 1_555 1_555
H12 C14 1_555 1_555
C15 N1 1_555 1_555
H13 C15 1_555 1_555
C16 C15 1_555 1_555
O5 C13 1_555 1_555
O6 Zn1 1_555 1_555
O7 Zn1 1_555 1_555
O8 C16 1_555 1_555
C18 C17 1_555 1_555
H15 C18 1_555 1_555
C19 C7 1_555 1_555
C20 C19 1_555 1_555
H16 C20 1_555 1_555
C21 C20 1_555 1_555
H17 C21 1_555 1_555
N4 C17 1_555 1_555
C27 N3 1_555 1_555
H22 C27 1_555 1_555
C28 C12 1_555 1_555
H23 C28 1_555 1_555
Zn7 O5 1_555 1_555
C9 N2 1_555 1_555
N3 Zn1 1_555 1_555
O1 Zn2 1_555 1_555
O2 Zn1 1_555 1_555
O2 Zn2 1_555 1_555
O3 Zn1 1_555 1_555
C13 O6 1_555 1_555
C14 C15 1_555 1_555
C16 O7 1_555 1_555
O6 Zn7 1_555 1_555
C18 C19 1_555 1_555
C21 N4 1_555 1_555
C27 C28 1_555 1_555
C37 H31 1_555 1_555
C38 C37 1_555 1_555
H32 C38 1_555 1_555
C39 C38 1_555 1_555
C40 C39 1_555 1_555
H33 C40 1_555 1_555
C41 C40 1_555 1_555
N7 Zn2_2 1_555 1_555
C42 H35 1_555 1_555
C43 C42 1_555 1_555
H36 C43 1_555 1_555
C44 C39 1_555 1_555
C45 C44 1_555 1_555
H37 C45 1_555 1_555
C46 C45 1_555 1_555
H38 C46 1_555 1_555
N8 C42 1_555 1_555
O18 Zn2_2 1_555 1_555
O20 Zn2_2 1_555 1_555
Zn5 N8 1_555 1_555
C37 N7 1_555 1_555
C41 N7 1_555 1_555
C43 C44 1_555 1_555
C46 N8 1_555 1_555
C22 H18 1_555 1_555
C23 C22 1_555 1_555
H19 C23 1_555 1_555
N5 C22 1_555 1_555
C25 N5 1_555 1_555
H20 C25 1_555 1_555
C26 C24 1_555 1_555
H21 C26 1_555 1_555
Zn3 N5 1_555 1_555
C33 C34 1_555 1_555
C34 H28 1_555 1_555
H29 C34 1_555 1_555
H30 C35 1_555 1_555
C36 C35 1_555 1_555
O13 C33 1_555 1_555
O14 Zn3 1_555 1_555
O15 Zn3 1_555 1_555
O16 C36 1_555 1_555
O17 Zn4 1_555 1_555
Zn6 O13 1_555 1_555
C23 C24 1_555 1_555
C25 C26 1_555 1_555
O10 Zn3 1_555 1_555
O10 Zn4 1_555 1_555
O11 Zn3 1_555 1_555
C33 O14 1_555 1_555
C34 C35 1_555 1_555
C36 O15 1_555 1_555
O14 Zn6 1_555 1_555
C29 C30 1_555 1_555
C30 H24 1_555 1_555
H25 C30 1_555 1_555
C31 C30 1_555 1_555
H26 C31 1_555 1_555
C32 C31 1_555 1_555
N6 C31 1_555 1_555
H27 N6 1_555 1_555
O9 C29 1_555 1_555
O12 C32 1_555 1_555
O19 Zn4_2 1_555 1_555
O9 Zn4_2 1_555 1_555
C29_2 C30_2 1_555 1_555
C30_2 H24_2 1_555 1_555
H25_2 C30_2 1_555 1_555
C31_2 C30_2 1_555 1_555
H26_2 C31_2 1_555 1_555
C32_2 C31_2 1_555 1_555
N6_2 C31_2 1_555 1_555
H27_2 N6_2 1_555 1_555
O9_2 C29_2 1_555 1_555
O12_2 C32_2 1_555 1_555
O19_2 Zn5 1_555 1_555
O9_2 Zn5 1_555 1_555
C1_2 C2_2 1_555 1_555
C2_2 H1_2 1_555 1_555
H2_2 C2_2 1_555 1_555
C3_2 C2_2 1_555 1_555
H3_2 C3_2 1_555 1_555
C4_2 C3_2 1_555 1_555
C5_2 H4_2 1_555 1_555
C6_2 C5_2 1_555 1_555
H5_2 C6_2 1_555 1_555
C7_2 C6_2 1_555 1_555
C8_2 C7_2 1_555 1_555
H6_2 C8_2 1_555 1_555
C9_2 C8_2 1_555 1_555
H7_2 C9_2 1_555 1_555
C10_2 H8_2 1_555 1_555
C11_2 C10_2 1_555 1_555
H9_2 C11_2 1_555 1_555
C12_2 C11_2 1_555 1_555
N1_2 C3_2 1_555 1_555
H10_2 N1_2 1_555 1_555
N2_2 C5_2 1_555 1_555
N3_2 C10_2 1_555 1_555
O1_2 C1_2 1_555 1_555
O2_2 C1_2 1_555 1_555
O3_2 C4_2 1_555 1_555
O4_2 C4_2 1_555 1_555
Zn1_2 N1_2 1_555 1_555
Zn2_3 N2_2 1_555 1_555
C13_2 C14_2 1_555 1_555
C14_2 H11_2 1_555 1_555
H12_2 C14_2 1_555 1_555
C15_2 N1_2 1_555 1_555
H13_2 C15_2 1_555 1_555
C16_2 C15_2 1_555 1_555
O5_2 C13_2 1_555 1_555
O6_2 Zn1_2 1_555 1_555
O7_2 Zn1_2 1_555 1_555
O8_2 C16_2 1_555 1_555
C17_2 H14_2 1_555 1_555
C18_2 C17_2 1_555 1_555
H15_2 C18_2 1_555 1_555
C19_2 C7_2 1_555 1_555
C20_2 C19_2 1_555 1_555
H16_2 C20_2 1_555 1_555
C21_2 C20_2 1_555 1_555
H17_2 C21_2 1_555 1_555
N4_2 C17_2 1_555 1_555
C22_2 H18_2 1_555 1_555
C23_2 C22_2 1_555 1_555
H19_2 C23_2 1_555 1_555
C24_2 C12_2 1_555 1_555
N5_2 C22_2 1_555 1_555
C25_2 N5_2 1_555 1_555
H20_2 C25_2 1_555 1_555
C26_2 C24_2 1_555 1_555
H21_2 C26_2 1_555 1_555
C27_2 N3_2 1_555 1_555
H22_2 C27_2 1_555 1_555
C28_2 C12_2 1_555 1_555
H23_2 C28_2 1_555 1_555
Zn3_2 N5_2 1_555 1_555
Zn5_2 N4_2 1_555 1_555
C33_2 C34_2 1_555 1_555
C34_2 H28_2 1_555 1_555
H29_2 C34_2 1_555 1_555
H30_2 C35_2 1_555 1_555
C36_2 C35_2 1_555 1_555
O13_2 C33_2 1_555 1_555
O14_2 Zn3_2 1_555 1_555
O15_2 Zn3_2 1_555 1_555
O16_2 C36_2 1_555 1_555
C37_2 H31_2 1_555 1_555
C38_2 C37_2 1_555 1_555
H32_2 C38_2 1_555 1_555
C39_2 C38_2 1_555 1_555
C40_2 C39_2 1_555 1_555
H33_2 C40_2 1_555 1_555
C41_2 C40_2 1_555 1_555
H34_2 C41_2 1_555 1_555
N7_2 Zn2_3 1_555 1_555
C43_2 C42_2 1_555 1_555
H36_2 C43_2 1_555 1_555
C44_2 C39_2 1_555 1_555
C45_2 C44_2 1_555 1_555
H37_2 C45_2 1_555 1_555
C46_2 C45_2 1_555 1_555
H38_2 C46_2 1_555 1_555
N9 C42_2 1_555 1_555
O17_2 Zn5_2 1_555 1_555
O18_2 Zn2_3 1_555 1_555
O20_2 Zn2_3 1_555 1_555
Zn6_3 O13_2 1_555 1_555
Zn7_2 O5_2 1_555 1_555
C9_2 N2_2 1_555 1_555
N3_2 Zn1_2 1_555 1_555
O1_2 Zn2_3 1_555 1_555
O2_2 Zn1_2 1_555 1_555
O2_2 Zn2_3 1_555 1_555
O3_2 Zn1_2 1_555 1_555
C13_2 O6_2 1_555 1_555
C14_2 C15_2 1_555 1_555
C16_2 O7_2 1_555 1_555
O6_2 Zn7_2 1_555 1_555
C18_2 C19_2 1_555 1_555
C21_2 N4_2 1_555 1_555
C23_2 C24_2 1_555 1_555
C25_2 C26_2 1_555 1_555
C27_2 C28_2 1_555 1_555
O10_2 Zn3_2 1_555 1_555
O10_2 Zn5_2 1_555 1_555
O11_2 Zn3_2 1_555 1_555
C33_2 O14_2 1_555 1_555
C34_2 C35_2 1_555 1_555
C36_2 O15_2 1_555 1_555
O14_2 Zn6_3 1_555 1_555
C37_2 N7_2 1_555 1_555
C41_2 N7_2 1_555 1_555
C43_2 C44_2 1_555 1_555
C46_2 N9 1_555 1_555
C22_3 H18_3 1_555 1_555
C23_3 C22_3 1_555 1_555
H19_3 C23_3 1_555 1_555
N5_3 C22_3 1_555 1_555
C25_3 N5_3 1_555 1_555
H20_3 C25_3 1_555 1_555
C26_3 C24_3 1_555 1_555
H21_3 C26_3 1_555 1_555
C29_3 C30_3 1_555 1_555
C30_3 H24_3 1_555 1_555
H25_3 C30_3 1_555 1_555
C31_3 C30_3 1_555 1_555
H26_3 C31_3 1_555 1_555
C32_3 C31_3 1_555 1_555
N6_3 C31_3 1_555 1_555
H27_3 N6_3 1_555 1_555
O18_2 C29_3 1_555 1_555
O20_2 C29_3 1_555 1_555
O11_3 C32_3 1_555 1_555
O12_3 C32_3 1_555 1_555
Zn3_3 N5_3 1_555 1_555
C33_3 C34_3 1_555 1_555
C34_3 H28_3 1_555 1_555
H29_3 C34_3 1_555 1_555
C35_3 N6_3 1_555 1_555
H30_3 C35_3 1_555 1_555
C36_3 C35_3 1_555 1_555
O13_3 C33_3 1_555 1_555
O14_3 Zn3_3 1_555 1_555
O15_3 Zn3_3 1_555 1_555
O16_3 C36_3 1_555 1_555
Zn7 O13_3 1_555 1_555
C23_3 C24_3 1_555 1_555
C25_3 C26_3 1_555 1_555
N6_3 Zn3_3 1_555 1_555
O20_2 Zn3_3 1_555 1_555
O11_3 Zn3_3 1_555 1_555
C33_3 O14_3 1_555 1_555
C34_3 C35_3 1_555 1_555
C36_3 O15_3 1_555 1_555
O14_3 Zn7 1_555 1_555
C1_3 C2_3 1_555 1_555
C2_3 H1_3 1_555 1_555
H2_3 C2_3 1_555 1_555
C3_3 C2_3 1_555 1_555
H3_3 C3_3 1_555 1_555
C4_3 C3_3 1_555 1_555
N1_3 C3_3 1_555 1_555
H10_3 N1_3 1_555 1_555
O17 C1_3 1_555 1_555
O4_3 C4_3 1_555 1_555
C10_3 H8_3 1_555 1_555
C11_3 C10_3 1_555 1_555
H9_3 C11_3 1_555 1_555
C12_3 C11_3 1_555 1_555
N3_3 C10_3 1_555 1_555
C13_3 C14_3 1_555 1_555
C14_3 H11_3 1_555 1_555
H12_3 C14_3 1_555 1_555
H13_3 C15_3 1_555 1_555
C16_3 C15_3 1_555 1_555
O5_3 C13_3 1_555 1_555
O6_3 Zn1_3 1_555 1_555
O7_3 Zn1_3 1_555 1_555
O8_3 C16_3 1_555 1_555
C27_3 N3_3 1_555 1_555
H22_3 C27_3 1_555 1_555
C28_3 C12_3 1_555 1_555
H23_3 C28_3 1_555 1_555
Zn6_3 O5_3 1_555 1_555
N3_3 Zn1_3 1_555 1_555
O19 Zn1_3 1_555 1_555
O3_3 Zn1_3 1_555 1_555
C13_3 O6_3 1_555 1_555
C14_3 C15_3 1_555 1_555
C16_3 O7_3 1_555 1_555
O6_3 Zn6_3 1_555 1_555
C27_3 C28_3 1_555 1_555
C10_4 H8_4 1_555 1_555
C11_4 C10_4 1_555 1_555
H9_4 C11_4 1_555 1_555
C12_4 C11_4 1_555 1_555
N3_4 C10_4 1_555 1_555
C13_4 C14_4 1_555 1_555
C14_4 H11_4 1_555 1_555
H12_4 C14_4 1_555 1_555
H13_4 C15_4 1_555 1_555
C16_4 C15_4 1_555 1_555
O5_4 C13_4 1_555 1_555
O6_4 Zn1_4 1_555 1_555
O7_4 Zn1_4 1_555 1_555
O8_4 C16_4 1_555 1_555
C22_4 H18_4 1_555 1_555
C23_4 C22_4 1_555 1_555
H19_4 C23_4 1_555 1_555
C24_4 C12_4 1_555 1_555
N5_4 C22_4 1_555 1_555
C25_4 N5_4 1_555 1_555
H20_4 C25_4 1_555 1_555
C26_4 C24_4 1_555 1_555
H21_4 C26_4 1_555 1_555
C27_4 N3_4 1_555 1_555
H22_4 C27_4 1_555 1_555
C28_4 C12_4 1_555 1_555
H23_4 C28_4 1_555 1_555
C29_4 C30_4 1_555 1_555
C30_4 H24_4 1_555 1_555
H25_4 C30_4 1_555 1_555
C31_4 C30_4 1_555 1_555
H26_4 C31_4 1_555 1_555
C32_4 C31_4 1_555 1_555
N6_4 C31_4 1_555 1_555
H27_4 N6_4 1_555 1_555
O18 C29_4 1_555 1_555
O20 C29_4 1_555 1_555
O11_4 C32_4 1_555 1_555
O12_4 C32_4 1_555 1_555
Zn3_4 N5_4 1_555 1_555
C33_4 C34_4 1_555 1_555
C34_4 H28_4 1_555 1_555
H29_4 C34_4 1_555 1_555
C35_4 N6_4 1_555 1_555
H30_4 C35_4 1_555 1_555
C36_4 C35_4 1_555 1_555
O13_4 C33_4 1_555 1_555
O14_4 Zn3_4 1_555 1_555
O15_4 Zn3_4 1_555 1_555
O16_4 C36_4 1_555 1_555
Zn7_2 O13_4 1_555 1_555
Zn6_2 O5_4 1_555 1_555
N3_4 Zn1_4 1_555 1_555
O19_2 Zn1_4 1_555 1_555
O3_4 Zn1_4 1_555 1_555
C13_4 O6_4 1_555 1_555
C14_4 C15_4 1_555 1_555
C16_4 O7_4 1_555 1_555
O6_4 Zn6_2 1_555 1_555
C23_4 C24_4 1_555 1_555
C25_4 C26_4 1_555 1_555
C27_4 C28_4 1_555 1_555
N6_4 Zn3_4 1_555 1_555
O20 Zn3_4 1_555 1_555
O11_4 Zn3_4 1_555 1_555
C33_4 O14_4 1_555 1_555
C34_4 C35_4 1_555 1_555
C36_4 O15_4 1_555 1_555
O14_4 Zn7_2 1_555 1_555
C1_4 C2_4 1_555 1_555
C2_4 H1_4 1_555 1_555
H2_4 C2_4 1_555 1_555
C3_4 C2_4 1_555 1_555
H3_4 C3_4 1_555 1_555
C4_4 C3_4 1_555 1_555
N1_4 C3_4 1_555 1_555
H10_4 N1_4 1_555 1_555
O17_2 C1_4 1_555 1_555
O4_4 C4_4 1_555 1_555
C5_3 H4_3 1_555 1_555
C6_3 C5_3 1_555 1_555
H5_3 C6_3 1_555 1_555
C7_3 C6_3 1_555 1_555
C8_3 C7_3 1_555 1_555
H6_3 C8_3 1_555 1_555
C9_3 C8_3 1_555 1_555
H7_3 C9_3 1_555 1_555
N2_3 C5_3 1_555 1_555
Zn6_3 N2_3 1_555 1_555
C17_3 H14_3 1_555 1_555
C18_3 C17_3 1_555 1_555
H15_3 C18_3 1_555 1_555
C19_3 C7_3 1_555 1_555
C20_3 C19_3 1_555 1_555
H16_3 C20_3 1_555 1_555
C21_3 C20_3 1_555 1_555
H17_3 C21_3 1_555 1_555
N4_3 C17_3 1_555 1_555
Zn7_2 N4_3 1_555 1_555
C37_3 H31_3 1_555 1_555
C38_3 C37_3 1_555 1_555
H32_3 C38_3 1_555 1_555
C39_3 C38_3 1_555 1_555
C40_3 C39_3 1_555 1_555
H33_3 C40_3 1_555 1_555
C41_3 C40_3 1_555 1_555
H34_3 C41_3 1_555 1_555
N7_3 Zn6_3 1_555 1_555
C43_3 C42_3 1_555 1_555
H36_3 C43_3 1_555 1_555
C44_3 C39_3 1_555 1_555
C45_3 C44_3 1_555 1_555
H37_3 C45_3 1_555 1_555
C46_3 C45_3 1_555 1_555
H38_3 C46_3 1_555 1_555
N8_2 C42_3 1_555 1_555
N9_2 Zn7_2 1_555 1_555
C9_3 N2_3 1_555 1_555
C18_3 C19_3 1_555 1_555
C21_3 N4_3 1_555 1_555
C37_3 N7_3 1_555 1_555
C41_3 N7_3 1_555 1_555
C43_3 C44_3 1_555 1_555
C46_3 N8_2 1_555 1_555
C5_4 H4_4 1_555 1_555
C6_4 C5_4 1_555 1_555
H5_4 C6_4 1_555 1_555
C7_4 C6_4 1_555 1_555
C8_4 C7_4 1_555 1_555
H6_4 C8_4 1_555 1_555
C9_4 C8_4 1_555 1_555
N2_4 C5_4 1_555 1_555
Zn6 N2_4 1_555 1_555
C18_4 C17_4 1_555 1_555
H15_4 C18_4 1_555 1_555
C19_4 C7_4 1_555 1_555
C20_4 C19_4 1_555 1_555
H16_4 C20_4 1_555 1_555
C21_4 C20_4 1_555 1_555
H17_4 C21_4 1_555 1_555
N4_4 C17_4 1_555 1_555
C9_4 N2_4 1_555 1_555
C18_4 C19_4 1_555 1_555
C21_4 N4_4 1_555 1_555
C37_4 H31_4 1_555 1_555
C38_4 C37_4 1_555 1_555
H32_4 C38_4 1_555 1_555
C39_4 C38_4 1_555 1_555
C40_4 C39_4 1_555 1_555
H33_4 C40_4 1_555 1_555
C41_4 C40_4 1_555 1_555
N7_4 Zn6_2 1_555 1_555
C42_4 H35_4 1_555 1_555
C43_4 C42_4 1_555 1_555
H36_4 C43_4 1_555 1_555
C44_4 C39_4 1_555 1_555
C45_4 C44_4 1_555 1_555
H37_4 C45_4 1_555 1_555
C46_4 C45_4 1_555 1_555
H38_4 C46_4 1_555 1_555
N9_2 C42_4 1_555 1_555
C37_4 N7_4 1_555 1_555
C41_4 N7_4 1_555 1_555
C43_4 C44_4 1_555 1_555
C46_4 N9_2 1_555 1_555
C29_5 C30_5 1_555 1_555
C30_5 H24_5 1_555 1_555
H25_5 C30_5 1_555 1_555
C31_5 C30_5 1_555 1_555
H26_5 C31_5 1_555 1_555
C32_5 C31_5 1_555 1_555
N6_5 C31_5 1_555 1_555
H27_5 N6_5 1_555 1_555
O9_3 C29_5 1_555 1_555
O12_5 C32_5 1_555 1_555
O19_3 Zn4_3 1_555 1_555
O9_3 Zn4_3 1_555 1_555
C22_5 H18_5 1_555 1_555
C23_5 C22_5 1_555 1_555
H19_5 C23_5 1_555 1_555
N5_5 C22_5 1_555 1_555
C25_5 N5_5 1_555 1_555
H20_5 C25_5 1_555 1_555
C26_5 C24_5 1_555 1_555
H21_5 C26_5 1_555 1_555
Zn3_5 N5_5 1_555 1_555
C33_5 C34_5 1_555 1_555
C34_5 H28_5 1_555 1_555
H29_5 C34_5 1_555 1_555
H30_5 C35_5 1_555 1_555
C36_5 C35_5 1_555 1_555
O13_5 C33_5 1_555 1_555
O14_5 Zn3_5 1_555 1_555
O15_5 Zn3_5 1_555 1_555
O16_5 C36_5 1_555 1_555
O17_3 Zn4_4 1_555 1_555
Zn6_5 O13_5 1_555 1_555
C23_5 C24_5 1_555 1_555
C25_5 C26_5 1_555 1_555
O10_3 Zn3_5 1_555 1_555
O10_3 Zn4_4 1_555 1_555
O11_5 Zn3_5 1_555 1_555
C33_5 O14_5 1_555 1_555
C34_5 C35_5 1_555 1_555
C36_5 O15_5 1_555 1_555
O14_5 Zn6_5 1_555 1_555
C37_5 H31_5 1_555 1_555
C38_5 C37_5 1_555 1_555
H32_5 C38_5 1_555 1_555
C39_5 C38_5 1_555 1_555
C40_5 C39_5 1_555 1_555
H33_5 C40_5 1_555 1_555
C41_5 C40_5 1_555 1_555
N7_5 Zn2_4 1_555 1_555
C42_5 H35_5 1_555 1_555
C43_5 C42_5 1_555 1_555
H36_5 C43_5 1_555 1_555
C44_5 C39_5 1_555 1_555
C45_5 C44_5 1_555 1_555
H37_5 C45_5 1_555 1_555
C46_5 C45_5 1_555 1_555
H38_5 C46_5 1_555 1_555
N8_3 C42_5 1_555 1_555
O18_3 Zn2_4 1_555 1_555
O20_3 Zn2_4 1_555 1_555
Zn5_4 N8_3 1_555 1_555
C37_5 N7_5 1_555 1_555
C41_5 N7_5 1_555 1_555
C43_5 C44_5 1_555 1_555
C46_5 N8_3 1_555 1_555
C1_5 C2_5 1_555 1_555
C2_5 H1_5 1_555 1_555
H2_5 C2_5 1_555 1_555
C3_5 C2_5 1_555 1_555
H3_5 C3_5 1_555 1_555
C4_5 C3_5 1_555 1_555
C5_5 H4_5 1_555 1_555
C6_5 C5_5 1_555 1_555
H5_5 C6_5 1_555 1_555
C7_5 C6_5 1_555 1_555
C8_5 C7_5 1_555 1_555
H6_5 C8_5 1_555 1_555
C9_5 C8_5 1_555 1_555
C10_5 H8_5 1_555 1_555
C11_5 C10_5 1_555 1_555
H9_5 C11_5 1_555 1_555
C12_5 C11_5 1_555 1_555
N1_5 C3_5 1_555 1_555
H10_5 N1_5 1_555 1_555
N2_5 C5_5 1_555 1_555
N3_5 C10_5 1_555 1_555
O1_3 C1_5 1_555 1_555
O2_3 C1_5 1_555 1_555
O3_5 C4_5 1_555 1_555
O4_5 C4_5 1_555 1_555
Zn1_5 N1_5 1_555 1_555
Zn2_5 N2_5 1_555 1_555
C13_5 C14_5 1_555 1_555
C14_5 H11_5 1_555 1_555
H12_5 C14_5 1_555 1_555
C15_5 N1_5 1_555 1_555
H13_5 C15_5 1_555 1_555
C16_5 C15_5 1_555 1_555
O5_5 C13_5 1_555 1_555
O6_5 Zn1_5 1_555 1_555
O7_5 Zn1_5 1_555 1_555
O8_5 C16_5 1_555 1_555
C18_5 C17_5 1_555 1_555
H15_5 C18_5 1_555 1_555
C19_5 C7_5 1_555 1_555
C20_5 C19_5 1_555 1_555
H16_5 C20_5 1_555 1_555
C21_5 C20_5 1_555 1_555
H17_5 C21_5 1_555 1_555
N4_5 C17_5 1_555 1_555
C27_5 N3_5 1_555 1_555
H22_5 C27_5 1_555 1_555
C28_5 C12_5 1_555 1_555
H23_5 C28_5 1_555 1_555
Zn7_3 O5_5 1_555 1_555
C9_5 N2_5 1_555 1_555
N3_5 Zn1_5 1_555 1_555
O1_3 Zn2_5 1_555 1_555
O2_3 Zn1_5 1_555 1_555
O2_3 Zn2_5 1_555 1_555
O3_5 Zn1_5 1_555 1_555
C13_5 O6_5 1_555 1_555
C14_5 C15_5 1_555 1_555
C16_5 O7_5 1_555 1_555
O6_5 Zn7_3 1_555 1_555
C18_5 C19_5 1_555 1_555
C21_5 N4_5 1_555 1_555
C27_5 C28_5 1_555 1_555
C1_6 C2_6 1_555 1_555
C2_6 H1_6 1_555 1_555
H2_6 C2_6 1_555 1_555
C3_6 C2_6 1_555 1_555
H3_6 C3_6 1_555 1_555
C4_6 C3_6 1_555 1_555
C5_6 H4_6 1_555 1_555
C6_6 C5_6 1_555 1_555
H5_6 C6_6 1_555 1_555
C7_6 C6_6 1_555 1_555
C8_6 C7_6 1_555 1_555
H6_6 C8_6 1_555 1_555
C9_6 C8_6 1_555 1_555
H7_6 C9_6 1_555 1_555
C10_6 H8_6 1_555 1_555
C11_6 C10_6 1_555 1_555
H9_6 C11_6 1_555 1_555
C12_6 C11_6 1_555 1_555
N1_6 C3_6 1_555 1_555
H10_6 N1_6 1_555 1_555
N2_6 C5_6 1_555 1_555
N3_6 C10_6 1_555 1_555
O1_4 C1_6 1_555 1_555
O2_4 C1_6 1_555 1_555
O3_6 C4_6 1_555 1_555
O4_6 C4_6 1_555 1_555
Zn1_6 N1_6 1_555 1_555
Zn2_6 N2_6 1_555 1_555
C13_6 C14_6 1_555 1_555
C14_6 H11_6 1_555 1_555
H12_6 C14_6 1_555 1_555
C15_6 N1_6 1_555 1_555
H13_6 C15_6 1_555 1_555
C16_6 C15_6 1_555 1_555
O5_6 C13_6 1_555 1_555
O6_6 Zn1_6 1_555 1_555
O7_6 Zn1_6 1_555 1_555
O8_6 C16_6 1_555 1_555
C17_6 H14_6 1_555 1_555
C18_6 C17_6 1_555 1_555
H15_6 C18_6 1_555 1_555
C19_6 C7_6 1_555 1_555
C20_6 C19_6 1_555 1_555
H16_6 C20_6 1_555 1_555
C21_6 C20_6 1_555 1_555
H17_6 C21_6 1_555 1_555
N4_6 C17_6 1_555 1_555
C22_6 H18_6 1_555 1_555
C23_6 C22_6 1_555 1_555
H19_6 C23_6 1_555 1_555
C24_6 C12_6 1_555 1_555
N5_6 C22_6 1_555 1_555
C25_6 N5_6 1_555 1_555
H20_6 C25_6 1_555 1_555
C26_6 C24_6 1_555 1_555
H21_6 C26_6 1_555 1_555
C27_6 N3_6 1_555 1_555
H22_6 C27_6 1_555 1_555
C28_6 C12_6 1_555 1_555
H23_6 C28_6 1_555 1_555
Zn3_6 N5_6 1_555 1_555
Zn5_3 N4_6 1_555 1_555
C33_6 C34_6 1_555 1_555
C34_6 H28_6 1_555 1_555
H29_6 C34_6 1_555 1_555
H30_6 C35_6 1_555 1_555
C36_6 C35_6 1_555 1_555
O13_6 C33_6 1_555 1_555
O14_6 Zn3_6 1_555 1_555
O15_6 Zn3_6 1_555 1_555
O16_6 C36_6 1_555 1_555
C37_6 H31_6 1_555 1_555
C38_6 C37_6 1_555 1_555
H32_6 C38_6 1_555 1_555
C39_6 C38_6 1_555 1_555
C40_6 C39_6 1_555 1_555
H33_6 C40_6 1_555 1_555
C41_6 C40_6 1_555 1_555
H34_6 C41_6 1_555 1_555
N7_6 Zn2_6 1_555 1_555
C43_6 C42_6 1_555 1_555
H36_6 C43_6 1_555 1_555
C44_6 C39_6 1_555 1_555
C45_6 C44_6 1_555 1_555
H37_6 C45_6 1_555 1_555
C46_6 C45_6 1_555 1_555
H38_6 C46_6 1_555 1_555
N9_3 C42_6 1_555 1_555
O17_4 Zn5_3 1_555 1_555
O18_4 Zn2_6 1_555 1_555
O20_4 Zn2_6 1_555 1_555
Zn6_6 O13_6 1_555 1_555
Zn7_4 O5_6 1_555 1_555
C9_6 N2_6 1_555 1_555
N3_6 Zn1_6 1_555 1_555
O1_4 Zn2_6 1_555 1_555
O2_4 Zn1_6 1_555 1_555
O2_4 Zn2_6 1_555 1_555
O3_6 Zn1_6 1_555 1_555
C13_6 O6_6 1_555 1_555
C14_6 C15_6 1_555 1_555
C16_6 O7_6 1_555 1_555
O6_6 Zn7_4 1_555 1_555
C18_6 C19_6 1_555 1_555
C21_6 N4_6 1_555 1_555
C23_6 C24_6 1_555 1_555
C25_6 C26_6 1_555 1_555
C27_6 C28_6 1_555 1_555
O10_4 Zn3_6 1_555 1_555
O10_4 Zn5_3 1_555 1_555
O11_6 Zn3_6 1_555 1_555
C33_6 O14_6 1_555 1_555
C34_6 C35_6 1_555 1_555
C36_6 O15_6 1_555 1_555
O14_6 Zn6_6 1_555 1_555
C37_6 N7_6 1_555 1_555
C41_6 N7_6 1_555 1_555
C43_6 C44_6 1_555 1_555
C46_6 N9_3 1_555 1_555
C29_6 C30_6 1_555 1_555
C30_6 H24_6 1_555 1_555
H25_6 C30_6 1_555 1_555
C31_6 C30_6 1_555 1_555
H26_6 C31_6 1_555 1_555
C32_6 C31_6 1_555 1_555
N6_6 C31_6 1_555 1_555
H27_6 N6_6 1_555 1_555
O9_4 C29_6 1_555 1_555
O12_6 C32_6 1_555 1_555
O19_4 Zn5_4 1_555 1_555
O9_4 Zn5_4 1_555 1_555
C10_7 H8_7 1_555 1_555
C11_7 C10_7 1_555 1_555
H9_7 C11_7 1_555 1_555
C12_7 C11_7 1_555 1_555
N3_7 C10_7 1_555 1_555
C13_7 C14_7 1_555 1_555
C14_7 H11_7 1_555 1_555
H12_7 C14_7 1_555 1_555
H13_7 C15_7 1_555 1_555
C16_7 C15_7 1_555 1_555
O5_7 C13_7 1_555 1_555
O6_7 Zn1_7 1_555 1_555
O7_7 Zn1_7 1_555 1_555
O8_7 C16_7 1_555 1_555
C27_7 N3_7 1_555 1_555
H22_7 C27_7 1_555 1_555
C28_7 C12_7 1_555 1_555
H23_7 C28_7 1_555 1_555
Zn6_6 O5_7 1_555 1_555
N3_7 Zn1_7 1_555 1_555
O19_3 Zn1_7 1_555 1_555
O3_7 Zn1_7 1_555 1_555
C13_7 O6_7 1_555 1_555
C14_7 C15_7 1_555 1_555
C16_7 O7_7 1_555 1_555
O6_7 Zn6_6 1_555 1_555
C27_7 C28_7 1_555 1_555
C1_7 C2_7 1_555 1_555
C2_7 H1_7 1_555 1_555
H2_7 C2_7 1_555 1_555
C3_7 C2_7 1_555 1_555
H3_7 C3_7 1_555 1_555
C4_7 C3_7 1_555 1_555
N1_7 C3_7 1_555 1_555
H10_7 N1_7 1_555 1_555
O17_3 C1_7 1_555 1_555
O4_7 C4_7 1_555 1_555
C22_7 H18_7 1_555 1_555
C23_7 C22_7 1_555 1_555
H19_7 C23_7 1_555 1_555
N5_7 C22_7 1_555 1_555
C25_7 N5_7 1_555 1_555
H20_7 C25_7 1_555 1_555
C26_7 C24_7 1_555 1_555
H21_7 C26_7 1_555 1_555
C29_7 C30_7 1_555 1_555
C30_7 H24_7 1_555 1_555
H25_7 C30_7 1_555 1_555
C31_7 C30_7 1_555 1_555
H26_7 C31_7 1_555 1_555
C32_7 C31_7 1_555 1_555
N6_7 C31_7 1_555 1_555
H27_7 N6_7 1_555 1_555
O18_4 C29_7 1_555 1_555
O20_4 C29_7 1_555 1_555
O11_7 C32_7 1_555 1_555
O12_7 C32_7 1_555 1_555
Zn3_7 N5_7 1_555 1_555
C33_7 C34_7 1_555 1_555
C34_7 H28_7 1_555 1_555
H29_7 C34_7 1_555 1_555
C35_7 N6_7 1_555 1_555
H30_7 C35_7 1_555 1_555
C36_7 C35_7 1_555 1_555
O13_7 C33_7 1_555 1_555
O14_7 Zn3_7 1_555 1_555
O15_7 Zn3_7 1_555 1_555
O16_7 C36_7 1_555 1_555
Zn7_3 O13_7 1_555 1_555
C23_7 C24_7 1_555 1_555
C25_7 C26_7 1_555 1_555
N6_7 Zn3_7 1_555 1_555
O20_4 Zn3_7 1_555 1_555
O11_7 Zn3_7 1_555 1_555
C33_7 O14_7 1_555 1_555
C34_7 C35_7 1_555 1_555
C36_7 O15_7 1_555 1_555
O14_7 Zn7_3 1_555 1_555
C1_8 C2_8 1_555 1_555
C2_8 H1_8 1_555 1_555
H2_8 C2_8 1_555 1_555
C3_8 C2_8 1_555 1_555
H3_8 C3_8 1_555 1_555
C4_8 C3_8 1_555 1_555
N1_8 C3_8 1_555 1_555
H10_8 N1_8 1_555 1_555
O17_4 C1_8 1_555 1_555
O4_8 C4_8 1_555 1_555
C10_8 H8_8 1_555 1_555
C11_8 C10_8 1_555 1_555
H9_8 C11_8 1_555 1_555
C12_8 C11_8 1_555 1_555
N3_8 C10_8 1_555 1_555
C13_8 C14_8 1_555 1_555
C14_8 H11_8 1_555 1_555
H12_8 C14_8 1_555 1_555
H13_8 C15_8 1_555 1_555
C16_8 C15_8 1_555 1_555
O5_8 C13_8 1_555 1_555
O6_8 Zn1_8 1_555 1_555
O7_8 Zn1_8 1_555 1_555
O8_8 C16_8 1_555 1_555
C22_8 H18_8 1_555 1_555
C23_8 C22_8 1_555 1_555
H19_8 C23_8 1_555 1_555
C24_8 C12_8 1_555 1_555
N5_8 C22_8 1_555 1_555
C25_8 N5_8 1_555 1_555
H20_8 C25_8 1_555 1_555
C26_8 C24_8 1_555 1_555
H21_8 C26_8 1_555 1_555
C27_8 N3_8 1_555 1_555
H22_8 C27_8 1_555 1_555
C28_8 C12_8 1_555 1_555
H23_8 C28_8 1_555 1_555
C29_8 C30_8 1_555 1_555
C30_8 H24_8 1_555 1_555
H25_8 C30_8 1_555 1_555
C31_8 C30_8 1_555 1_555
H26_8 C31_8 1_555 1_555
C32_8 C31_8 1_555 1_555
N6_8 C31_8 1_555 1_555
H27_8 N6_8 1_555 1_555
O18_3 C29_8 1_555 1_555
O20_3 C29_8 1_555 1_555
O11_8 C32_8 1_555 1_555
O12_8 C32_8 1_555 1_555
Zn3_8 N5_8 1_555 1_555
C33_8 C34_8 1_555 1_555
C34_8 H28_8 1_555 1_555
H29_8 C34_8 1_555 1_555
C35_8 N6_8 1_555 1_555
H30_8 C35_8 1_555 1_555
C36_8 C35_8 1_555 1_555
O13_8 C33_8 1_555 1_555
O14_8 Zn3_8 1_555 1_555
O15_8 Zn3_8 1_555 1_555
O16_8 C36_8 1_555 1_555
Zn7_4 O13_8 1_555 1_555
Zn6_4 O5_8 1_555 1_555
N3_8 Zn1_8 1_555 1_555
O19_4 Zn1_8 1_555 1_555
O3_8 Zn1_8 1_555 1_555
C13_8 O6_8 1_555 1_555
C14_8 C15_8 1_555 1_555
C16_8 O7_8 1_555 1_555
O6_8 Zn6_4 1_555 1_555
C23_8 C24_8 1_555 1_555
C25_8 C26_8 1_555 1_555
C27_8 C28_8 1_555 1_555
N6_8 Zn3_8 1_555 1_555
O20_3 Zn3_8 1_555 1_555
O11_8 Zn3_8 1_555 1_555
C33_8 O14_8 1_555 1_555
C34_8 C35_8 1_555 1_555
C36_8 O15_8 1_555 1_555
O14_8 Zn7_4 1_555 1_555
C5_7 H4_7 1_555 1_555
C6_7 C5_7 1_555 1_555
H5_7 C6_7 1_555 1_555
C7_7 C6_7 1_555 1_555
C8_7 C7_7 1_555 1_555
H6_7 C8_7 1_555 1_555
C9_7 C8_7 1_555 1_555
H7_7 C9_7 1_555 1_555
N2_7 C5_7 1_555 1_555
Zn6_6 N2_7 1_555 1_555
C17_7 H14_7 1_555 1_555
C18_7 C17_7 1_555 1_555
H15_7 C18_7 1_555 1_555
C19_7 C7_7 1_555 1_555
C20_7 C19_7 1_555 1_555
H16_7 C20_7 1_555 1_555
C21_7 C20_7 1_555 1_555
H17_7 C21_7 1_555 1_555
N4_7 C17_7 1_555 1_555
Zn7_4 N4_7 1_555 1_555
C37_7 H31_7 1_555 1_555
C38_7 C37_7 1_555 1_555
H32_7 C38_7 1_555 1_555
C39_7 C38_7 1_555 1_555
C40_7 C39_7 1_555 1_555
H33_7 C40_7 1_555 1_555
C41_7 C40_7 1_555 1_555
H34_7 C41_7 1_555 1_555
N7_7 Zn6_6 1_555 1_555
C43_7 C42_7 1_555 1_555
H36_7 C43_7 1_555 1_555
C44_7 C39_7 1_555 1_555
C45_7 C44_7 1_555 1_555
H37_7 C45_7 1_555 1_555
C46_7 C45_7 1_555 1_555
H38_7 C46_7 1_555 1_555
N8_4 C42_7 1_555 1_555
N9_4 Zn7_4 1_555 1_555
C9_7 N2_7 1_555 1_555
C18_7 C19_7 1_555 1_555
C21_7 N4_7 1_555 1_555
C37_7 N7_7 1_555 1_555
C41_7 N7_7 1_555 1_555
C43_7 C44_7 1_555 1_555
C46_7 N8_4 1_555 1_555
C37_8 H31_8 1_555 1_555
C38_8 C37_8 1_555 1_555
H32_8 C38_8 1_555 1_555
C39_8 C38_8 1_555 1_555
C40_8 C39_8 1_555 1_555
H33_8 C40_8 1_555 1_555
C41_8 C40_8 1_555 1_555
N7_8 Zn6_4 1_555 1_555
C42_8 H35_8 1_555 1_555
C43_8 C42_8 1_555 1_555
H36_8 C43_8 1_555 1_555
C44_8 C39_8 1_555 1_555
C45_8 C44_8 1_555 1_555
H37_8 C45_8 1_555 1_555
C46_8 C45_8 1_555 1_555
H38_8 C46_8 1_555 1_555
N9_4 C42_8 1_555 1_555
C37_8 N7_8 1_555 1_555
C41_8 N7_8 1_555 1_555
C43_8 C44_8 1_555 1_555
C46_8 N9_4 1_555 1_555
C5_8 H4_8 1_555 1_555
C6_8 C5_8 1_555 1_555
H5_8 C6_8 1_555 1_555
C7_8 C6_8 1_555 1_555
C8_8 C7_8 1_555 1_555
H6_8 C8_8 1_555 1_555
C9_8 C8_8 1_555 1_555
N2_8 C5_8 1_555 1_555
Zn6_5 N2_8 1_555 1_555
C18_8 C17_8 1_555 1_555
H15_8 C18_8 1_555 1_555
C19_8 C7_8 1_555 1_555
C20_8 C19_8 1_555 1_555
H16_8 C20_8 1_555 1_555
C21_8 C20_8 1_555 1_555
H17_8 C21_8 1_555 1_555
N4_8 C17_8 1_555 1_555
C9_8 N2_8 1_555 1_555
C18_8 C19_8 1_555 1_555
C21_8 N4_8 1_555 1_555

#END
