
###############################################################################
#
# This file contains modified crystal structure data generated from the
# MOF subset of the Cambridge Structural Database (CSD) v543 
# hosted by the Cambridge Crystallographic Data Centre (CCDC).
#
# This work is licensed under the Creative Commons
# Attribution-NonCommercial-ShareAlike 4.0 International License.
# To view a copy of this license, visit
# http://creativecommons.org/licenses/by-nc-sa/4.0/
# or send a letter to
# Creative Commons, PO Box 1866, Mountain View, CA 94042, USA.
#
# CIF created using the CSD Python API on 29 September 2022
# The structure has been converted into the P1 space group
# The structure has a 3D framework
# The original CSD entry QADBIK01 is in the monoclinic crystal system
# The framework has been calculated to contain at least 10.0% void space
# The void calculation uses a probe of radius 1.32A, grid spacing 0.4
#
###############################################################################

data_QADBIK01
_chemical_formula_moiety         '(C312 H288 Co14 N88 S24)n'
_symmetry_cell_setting           triclinic
_symmetry_space_group_name_H-M   'P 1'
_symmetry_Int_Tables_number      1
_space_group_name_Hall           'P 1'
loop_
_symmetry_equiv_pos_site_id
_symmetry_equiv_pos_as_xyz
1 x,y,z
_cell_length_a                   15.7038(5)
_cell_length_b                   18.1035(8)
_cell_length_c                   34.5205(11)
_cell_angle_alpha                90
_cell_angle_beta                 96.857(3)
_cell_angle_gamma                90
_cell_volume                     9743.77
loop_
_atom_site_label
_atom_site_type_symbol
_atom_site_fract_x
_atom_site_fract_y
_atom_site_fract_z
Co9 Co 0.74033(4) 0.00903(3) 0.26950(2)
H70 H 0.104945 0.874851 0.010930
Co5 Co 0.250000 0.98637(5) 0.000000
Co1 Co 0.250000 0.51363(5) 0.500000
Co2 Co 0.25967(4) 0.50903(3) 0.23050(2)
S1 S 0.11520(7) 0.49384(6) 0.61684(3)
S2 S 0.22750(7) 0.38273(7) 0.10599(3)
S3 S 0.27271(7) 0.68576(7) 0.33271(4)
N1 N 0.1750(2) 0.42730(19) 0.46788(8)
N3 N 0.3330(2) 0.90594(19) 0.03290(8)
N4 N 0.51885(18) 0.75235(18) 0.13300(8)
N5 N 0.65061(18) 0.92169(18) 0.24565(8)
N6 N 0.34493(19) 0.56356(18) 0.19632(8)
N7 N 0.17063(19) 0.45513(19) 0.26486(8)
N8 N 0.2235(2) 0.43955(19) 0.18148(8)
N9 N 0.2987(2) 0.5789(2) 0.27686(8)
N10 N 0.0597(2) 0.2751(2) 0.35586(8)
N11 N 0.1671(2) 0.5101(2) 0.54281(9)
C1 C 0.6004(2) 0.8056(2) 0.19331(9)
C2 C 0.4398(2) 0.6391(2) 0.14567(9)
C3 C 0.5652(2) 0.8753(2) 0.18819(9)
H1 H 0.523571 0.884881 0.167291
C4 C 0.5457(2) 0.7979(2) 0.10156(10)
H2 H 0.577359 0.767711 0.084980
H3 H 0.583617 0.836772 0.112672
C5 C 0.3361(2) 0.8974(2) 0.07157(10)
H4 H 0.291812 0.917404 0.083846
C7 C 0.2153(2) 0.3725(2) 0.45135(9)
H5 H 0.274933 0.370970 0.455361
C8 C 0.4694(2) 0.8319(2) 0.07737(10)
C9 C 0.3883(2) 0.6766(2) 0.16973(10)
H6 H 0.385337 0.727908 0.169250
C10 C 0.4009(2) 0.8609(2) 0.09431(9)
H7 H 0.398671 0.855651 0.120971
C11 C 0.2252(2) 0.4164(2) 0.15009(10)
C12 C 0.0898(2) 0.4287(2) 0.46158(10)
H8 H 0.060713 0.466575 0.472597
C13 C 0.5922(2) 0.9311(2) 0.21438(9)
H9 H 0.568408 0.977795 0.209993
C15 C 0.6564(2) 0.7940(2) 0.22776(10)
H11 H 0.678463 0.747169 0.233686
C16 C 0.1920(2) 0.4459(2) 0.30337(10)
H12 H 0.242819 0.466680 0.315121
C17 C 0.4442(2) 0.5637(2) 0.14896(10)
H13 H 0.479605 0.536988 0.134310
C18 C 0.3426(2) 0.6374(2) 0.19381(10)
H14 H 0.307998 0.663107 0.209267
C19 C 0.0650(2) 0.3767(2) 0.30954(10)
C20 C 0.6784(2) 0.8516(2) 0.25242(10)
H15 H 0.714529 0.842069 0.275225
C21 C 0.4880(2) 0.6810(2) 0.11749(9)
H16 H 0.536452 0.651670 0.111556
H17 H 0.450636 0.688755 0.093362
C22 C 0.5871(2) 0.7425(2) 0.16504(9)
H18 H 0.640350 0.733939 0.154118
H19 H 0.574829 0.698445 0.179369
C24 C 0.2884(2) 0.6233(2) 0.30040(11)
C26 C 0.1726(3) 0.3180(2) 0.42862(11)
H22 H 0.203108 0.280816 0.417843
C27 C 0.1414(2) 0.4068(2) 0.32609(10)
H23 H 0.158829 0.400754 0.352611
C28 C 0.0709(2) 0.2097(2) 0.33256(10)
H24 H 0.110589 0.176792 0.347772
H25 H 0.097420 0.224599 0.309818
C29 C 0.0841(3) 0.3194(2) 0.42207(10)
C30 C 0.0094(2) 0.3332(2) 0.33430(10)
C31 C 0.0962(2) 0.4273(2) 0.24885(10)
H28 H 0.080099 0.434731 0.222326
C32 C 0.0414(2) 0.3877(2) 0.26992(10)
C33 C 0.0420(3) 0.3751(3) 0.43892(10)
C34 C 0.3958(2) 0.5272(2) 0.17424(11)
H31 H 0.398783 0.475968 0.175882
C36 C 0.1453(2) 0.5033(2) 0.57360(10)
C37 C 0.4649(3) 0.8375(3) 0.03717(11)
H33 H 0.508035 0.816963 0.024311
C38 C 0.3970(3) 0.8732(3) 0.01609(11)
C39 C 0.0373(3) 0.2626(3) 0.39509(10)
H35 H 0.053973 0.213170 0.403751
Co3 Co 0.24033(4) 0.50903(3) 0.76950(2)
S4 S 0.38480(7) 0.49384(6) 0.38316(3)
S5 S 0.27250(7) 0.38273(7) 0.89401(3)
S6 S 0.22729(7) 0.68576(7) 0.66729(4)
N12 N 0.3250(2) 0.42730(19) 0.53212(8)
N13 N 0.65637(19) 0.08417(18) 0.70860(8)
N14 N 0.1670(2) 0.90594(19) 0.96710(8)
N17 N 0.15507(19) 0.56356(18) 0.80368(8)
N18 N 0.32937(19) 0.45513(19) 0.73514(8)
N19 N 0.2765(2) 0.43955(19) 0.81852(8)
N20 N 0.2013(2) 0.5789(2) 0.72314(8)
N21 N 0.4403(2) 0.2751(2) 0.64414(8)
N22 N 0.3329(2) 0.5101(2) 0.45719(9)
C41 C 0.0602(2) 0.6391(2) 0.85433(9)
C44 C 0.1639(2) 0.8974(2) 0.92843(10)
H40 H 0.208188 0.917404 0.916154
C45 C 0.5101(2) 0.1665(2) 0.68125(10)
C46 C 0.2847(2) 0.3725(2) 0.54865(9)
H41 H 0.225067 0.370970 0.544639
C47 C 0.0306(2) 0.8319(2) 0.92263(10)
C48 C 0.1117(2) 0.6766(2) 0.83027(10)
H42 H 0.114663 0.727908 0.830750
C49 C 0.0991(2) 0.8609(2) 0.90569(9)
H43 H 0.101329 0.855651 0.879029
C50 C 0.2748(2) 0.4164(2) 0.84991(10)
C51 C 0.4102(2) 0.4287(2) 0.53842(10)
H44 H 0.439287 0.466575 0.527403
C53 C 0.5409(2) 0.1643(3) 0.72085(10)
H46 H 0.513165 0.190390 0.738877
C55 C 0.3080(2) 0.4459(2) 0.69663(10)
H48 H 0.257181 0.466680 0.684879
C56 C 0.0558(2) 0.5637(2) 0.85104(10)
H49 H 0.020395 0.536988 0.865690
C57 C 0.1574(2) 0.6374(2) 0.80619(10)
H50 H 0.192002 0.663107 0.790733
C58 C 0.4350(2) 0.3767(2) 0.69046(10)
C60 C 0.0120(2) 0.6810(2) 0.88251(9)
H53 H 0.049364 0.688755 0.906638
C62 C 0.6272(3) 0.0886(2) 0.67043(11)
H56 H 0.657420 0.064125 0.652712
C63 C 0.2116(2) 0.6233(2) 0.69960(11)
C64 C 0.5551(3) 0.1274(2) 0.65637(11)
H57 H 0.536611 0.127169 0.629756
C65 C 0.3274(3) 0.3180(2) 0.57138(11)
H58 H 0.296892 0.280816 0.582157
C66 C 0.3586(2) 0.4068(2) 0.67391(10)
H59 H 0.341171 0.400754 0.647389
C67 C 0.4291(2) 0.2097(2) 0.66744(10)
H60 H 0.389411 0.176792 0.652228
H61 H 0.402580 0.224599 0.690182
C68 C 0.4159(3) 0.3194(2) 0.57793(10)
C69 C 0.4906(2) 0.3332(2) 0.66570(10)
H62 H 0.514005 0.366147 0.647488
H63 H 0.538104 0.311187 0.682281
C70 C 0.4038(2) 0.4273(2) 0.75115(10)
H64 H 0.419901 0.434731 0.777674
C71 C 0.4586(2) 0.3877(2) 0.73008(10)
H65 H 0.510118 0.368935 0.742287
C72 C 0.4580(3) 0.3751(3) 0.56108(10)
H66 H 0.517615 0.377346 0.564608
C73 C 0.1042(2) 0.5272(2) 0.82576(11)
H67 H 0.101217 0.475968 0.824118
C74 C 0.6132(2) 0.1227(2) 0.73301(10)
H68 H 0.632839 0.121415 0.759515
C75 C 0.3547(2) 0.5033(2) 0.42640(10)
C76 C 0.0351(3) 0.8375(3) 0.96283(11)
C77 C 0.1030(3) 0.8732(3) 0.98391(11)
C78 C 0.4627(3) 0.2626(3) 0.60491(10)
H71 H 0.446027 0.213170 0.596249
H72 H 0.524201 0.267549 0.604723
Co5_2 Co 0.250000 0.98637(5) 1.000000
Co7 Co 0.75967(4) 0.00903(3) 0.73050(2)
N23 N 0.34363(19) 0.58417(18) 0.79140(8)
N24 N 0.15637(19) 0.58417(18) 0.20860(8)
N25 N 0.1670(2) 0.59406(19) 0.46710(8)
N26 N 0.3330(2) 0.59406(19) 0.53290(8)
N27 N 0.15061(18) 0.42169(18) 0.74565(8)
N28 N 0.34939(18) 0.42169(18) 0.25435(8)
H34 H 0.395055 0.874851 0.989070
N2 N 0.84363(19) 0.08417(18) 0.29140(8)
C6 C 0.9899(2) 0.1665(2) 0.31875(10)
C14 C 0.9591(2) 0.1643(3) 0.27915(10)
H10 H 0.986835 0.190390 0.261123
C23 C 0.8728(3) 0.0886(2) 0.32957(11)
H20 H 0.842580 0.064125 0.347288
C25 C 0.9449(3) 0.1274(2) 0.34363(11)
H21 H 0.963389 0.127169 0.370244
H26 H 0.985995 0.366147 0.352512
H27 H 0.961896 0.311187 0.317719
H29 H 0.989882 0.368935 0.257713
H30 H 0.982385 0.377346 0.435392
C35 C 0.8868(2) 0.1227(2) 0.26699(10)
H32 H 0.867161 0.121415 0.240485
H36 H 0.975799 0.267549 0.395277
N15 N 0.98115(18) 0.75235(18) 0.86700(8)
N16 N 0.84939(18) 0.92169(18) 0.75435(8)
C40 C 0.8996(2) 0.8056(2) 0.80669(9)
C42 C 0.9348(2) 0.8753(2) 0.81181(9)
H37 H 0.976429 0.884881 0.832709
C43 C 0.9543(2) 0.7979(2) 0.89844(10)
H38 H 0.922641 0.767711 0.915020
H39 H 0.916383 0.836772 0.887328
C52 C 0.9078(2) 0.9311(2) 0.78562(9)
H45 H 0.931592 0.977795 0.790007
C54 C 0.8436(2) 0.7940(2) 0.77224(10)
H47 H 0.821537 0.747169 0.766314
C59 C 0.8216(2) 0.8516(2) 0.74758(10)
H51 H 0.785471 0.842069 0.724775
H52 H 0.963548 0.651670 0.888444
C61 C 0.9129(2) 0.7425(2) 0.83496(9)
H54 H 0.859650 0.733939 0.845882
H55 H 0.925171 0.698445 0.820631
H69 H 0.991965 0.816963 0.975689
N4_2 N 0.01885(18) 0.25235(18) 0.63300(8)
C1_2 C 0.1004(2) 0.3056(2) 0.69331(9)
C3_2 C 0.0652(2) 0.3753(2) 0.68819(9)
H1_2 H 0.023571 0.384881 0.667291
C4_2 C 0.0457(2) 0.2979(2) 0.60156(10)
H2_2 H 0.077359 0.267711 0.584980
H3_2 H 0.083617 0.336772 0.612672
C13_2 C 0.0922(2) 0.4311(2) 0.71438(9)
H9_2 H 0.068408 0.477795 0.709993
C15_2 C 0.1564(2) 0.2940(2) 0.72776(10)
H11_2 H 0.178463 0.247169 0.733686
C20_2 C 0.1784(2) 0.3516(2) 0.75242(10)
H15_2 H 0.214529 0.342069 0.775225
H16_2 H 0.036452 0.151670 0.611556
C22_2 C 0.0871(2) 0.2425(2) 0.66504(9)
H18_2 H 0.140350 0.233939 0.654118
H19_2 H 0.074829 0.198445 0.679369
H33_2 H 0.008035 0.316963 0.524311
C45_2 C 0.0101(2) 0.6665(2) 0.18125(10)
C53_2 C 0.0409(2) 0.6643(3) 0.22085(10)
H46_2 H 0.013165 0.690390 0.238877
C62_2 C 0.1272(3) 0.5886(2) 0.17043(11)
H56_2 H 0.157420 0.564125 0.152712
C64_2 C 0.0551(3) 0.6274(2) 0.15637(11)
H57_2 H 0.036611 0.627169 0.129756
H62_2 H 0.014005 0.866147 0.147488
H63_2 H 0.038104 0.811187 0.182281
H65_2 H 0.010118 0.868935 0.242287
H66_2 H 0.017615 0.877346 0.064608
C74_2 C 0.1132(2) 0.6227(2) 0.23301(10)
H68_2 H 0.132839 0.621415 0.259515
H72_2 H 0.024201 0.767549 0.104723
Co1_2 Co 0.750000 0.01363(5) 0.000000
N11_2 N 0.6671(2) 0.0101(2) 0.04281(9)
C36_2 C 0.6453(2) 0.0033(2) 0.07360(10)
S6_2 S 0.72729(7) 0.18576(7) 0.16729(4)
N14_2 N 0.6670(2) 0.40594(19) 0.46710(8)
N15_2 N 0.48115(18) 0.25235(18) 0.36700(8)
N17_2 N 0.65507(19) 0.06356(18) 0.30368(8)
N20_2 N 0.7013(2) 0.0789(2) 0.22314(8)
C40_2 C 0.3996(2) 0.3056(2) 0.30669(9)
C41_2 C 0.5602(2) 0.1391(2) 0.35433(9)
C42_2 C 0.4348(2) 0.3753(2) 0.31181(9)
H37_2 H 0.476429 0.384881 0.332709
C43_2 C 0.4543(2) 0.2979(2) 0.39844(10)
H38_2 H 0.422641 0.267711 0.415020
H39_2 H 0.416383 0.336772 0.387328
C44_2 C 0.6639(2) 0.3974(2) 0.42843(10)
H40_2 H 0.708188 0.417404 0.416154
C47_2 C 0.5306(2) 0.3319(2) 0.42263(10)
C48_2 C 0.6117(2) 0.1766(2) 0.33027(10)
H42_2 H 0.614663 0.227908 0.330750
C49_2 C 0.5991(2) 0.3609(2) 0.40569(9)
H43_2 H 0.601329 0.355651 0.379029
C52_2 C 0.4078(2) 0.4311(2) 0.28562(9)
H45_2 H 0.431592 0.477795 0.290007
C54_2 C 0.3436(2) 0.2940(2) 0.27224(10)
H47_2 H 0.321537 0.247169 0.266314
C56_2 C 0.5558(2) 0.0637(2) 0.35104(10)
H49_2 H 0.520395 0.036988 0.365690
C57_2 C 0.6574(2) 0.1374(2) 0.30619(10)
H50_2 H 0.692002 0.163107 0.290733
C59_2 C 0.3216(2) 0.3516(2) 0.24758(10)
H51_2 H 0.285471 0.342069 0.224775
C60_2 C 0.5120(2) 0.1810(2) 0.38251(9)
H52_2 H 0.463548 0.151670 0.388444
H53_2 H 0.549364 0.188755 0.406638
C61_2 C 0.4129(2) 0.2425(2) 0.33496(9)
H54_2 H 0.359650 0.233939 0.345882
H55_2 H 0.425171 0.198445 0.320631
C63_2 C 0.7116(2) 0.1233(2) 0.19960(11)
C73_2 C 0.6042(2) 0.0272(2) 0.32576(11)
C76_2 C 0.5351(3) 0.3375(3) 0.46283(11)
H69_2 H 0.491965 0.316963 0.475689
C77_2 C 0.6030(3) 0.3732(3) 0.48391(11)
H70_2 H 0.604945 0.374851 0.510930
Co5_3 Co 0.750000 0.48637(5) 0.500000
N26_2 N 0.8330(2) 0.09406(19) 0.03290(8)
Co1_3 Co 0.750000 0.01363(5) 1.000000
S3_2 S 0.77271(7) 0.18576(7) 0.83271(4)
N3_2 N 0.8330(2) 0.40594(19) 0.53290(8)
N6_2 N 0.84493(19) 0.06356(18) 0.69632(8)
N9_2 N 0.7987(2) 0.0789(2) 0.77686(8)
C2_2 C 0.9398(2) 0.1391(2) 0.64567(9)
C5_2 C 0.8361(2) 0.3974(2) 0.57157(10)
H4_2 H 0.791812 0.417404 0.583846
C8_2 C 0.9694(2) 0.3319(2) 0.57737(10)
C9_2 C 0.8883(2) 0.1766(2) 0.66973(10)
H6_2 H 0.885337 0.227908 0.669250
C10_2 C 0.9009(2) 0.3609(2) 0.59431(9)
H7_2 H 0.898671 0.355651 0.620971
C17_2 C 0.9442(2) 0.0637(2) 0.64896(10)
H13_2 H 0.979605 0.036988 0.634310
C18_2 C 0.8426(2) 0.1374(2) 0.69381(10)
H14_2 H 0.807998 0.163107 0.709267
C21_2 C 0.9880(2) 0.1810(2) 0.61749(9)
H17_2 H 0.950636 0.188755 0.593362
C24_2 C 0.7884(2) 0.1233(2) 0.80040(11)
C34_2 C 0.8958(2) 0.0272(2) 0.67424(11)
C37_2 C 0.9649(3) 0.3375(3) 0.53717(11)
C38_2 C 0.8970(3) 0.3732(3) 0.51609(11)
H34_2 H 0.895055 0.374851 0.489070
N22_2 N 0.8329(2) 0.0101(2) 0.95719(9)
C75_2 C 0.8547(2) 0.0033(2) 0.92640(10)
N25_2 N 0.6670(2) 0.09406(19) 0.96710(8)
S1_2 S 0.61520(7) 0.99384(6) 0.11684(3)
S5_2 S 0.77250(7) 0.88273(7) 0.39401(3)
N12_2 N 0.8250(2) 0.92730(19) 0.03212(8)
N18_2 N 0.82937(19) 0.95513(19) 0.23514(8)
N19_2 N 0.7765(2) 0.93955(19) 0.31852(8)
N21_2 N 0.9403(2) 0.7751(2) 0.14414(8)
C46_2 C 0.7847(2) 0.8725(2) 0.04865(9)
H41_2 H 0.725067 0.870970 0.044639
C50_2 C 0.7748(2) 0.9164(2) 0.34991(10)
C51_2 C 0.9102(2) 0.9287(2) 0.03842(10)
H44_2 H 0.939287 0.966575 0.027403
C55_2 C 0.8080(2) 0.9459(2) 0.19663(10)
H48_2 H 0.757181 0.966680 0.184879
C58_2 C 0.9350(2) 0.8767(2) 0.19046(10)
C65_2 C 0.8274(3) 0.8180(2) 0.07138(11)
H58_2 H 0.796892 0.780816 0.082157
C66_2 C 0.8586(2) 0.9068(2) 0.17391(10)
H59_2 H 0.841171 0.900754 0.147389
C67_2 C 0.9291(2) 0.7097(2) 0.16744(10)
H60_2 H 0.889411 0.676792 0.152228
H61_2 H 0.902580 0.724599 0.190182
C68_2 C 0.9159(3) 0.8194(2) 0.07793(10)
C69_2 C 0.9906(2) 0.8332(2) 0.16570(10)
C70_2 C 0.9038(2) 0.9273(2) 0.25115(10)
H64_2 H 0.919901 0.934731 0.277674
C71_2 C 0.9586(2) 0.8877(2) 0.23008(10)
C72_2 C 0.9580(3) 0.8751(3) 0.06108(10)
H67_2 H 0.601217 0.975968 0.324118
C78_2 C 0.9627(3) 0.7626(3) 0.10491(10)
H71_2 H 0.946027 0.713170 0.096249
S2_2 S 0.72750(7) 0.88273(7) 0.60599(3)
N1_2 N 0.6750(2) 0.92730(19) 0.96788(8)
N7_2 N 0.67063(19) 0.95513(19) 0.76486(8)
N8_2 N 0.7235(2) 0.93955(19) 0.68148(8)
N10_2 N 0.5597(2) 0.7751(2) 0.85586(8)
C6_2 C 0.4899(2) 0.6665(2) 0.81875(10)
C7_2 C 0.7153(2) 0.8725(2) 0.95135(9)
H5_2 H 0.774933 0.870970 0.955361
C11_2 C 0.7252(2) 0.9164(2) 0.65009(10)
C12_2 C 0.5898(2) 0.9287(2) 0.96158(10)
H8_2 H 0.560713 0.966575 0.972597
C14_2 C 0.4591(2) 0.6643(3) 0.77915(10)
H10_2 H 0.486835 0.690390 0.761123
C16_2 C 0.6920(2) 0.9459(2) 0.80337(10)
H12_2 H 0.742819 0.966680 0.815121
C19_2 C 0.5650(2) 0.8767(2) 0.80954(10)
C23_2 C 0.3728(3) 0.5886(2) 0.82957(11)
H20_2 H 0.342580 0.564125 0.847288
C25_2 C 0.4449(3) 0.6274(2) 0.84363(11)
H21_2 H 0.463389 0.627169 0.870244
C26_2 C 0.6726(3) 0.8180(2) 0.92862(11)
H22_2 H 0.703108 0.780816 0.917843
C27_2 C 0.6414(2) 0.9068(2) 0.82609(10)
H23_2 H 0.658829 0.900754 0.852611
C28_2 C 0.5709(2) 0.7097(2) 0.83256(10)
H24_2 H 0.610589 0.676792 0.847772
H25_2 H 0.597420 0.724599 0.809818
C29_2 C 0.5841(3) 0.8194(2) 0.92207(10)
C30_2 C 0.5094(2) 0.8332(2) 0.83430(10)
H26_2 H 0.485995 0.866147 0.852512
H27_2 H 0.461896 0.811187 0.817719
C31_2 C 0.5962(2) 0.9273(2) 0.74885(10)
H28_2 H 0.580099 0.934731 0.722326
C32_2 C 0.5414(2) 0.8877(2) 0.76992(10)
H29_2 H 0.489882 0.868935 0.757713
C33_2 C 0.5420(3) 0.8751(3) 0.93892(10)
H30_2 H 0.482385 0.877346 0.935392
H31_2 H 0.898783 0.975968 0.675882
C35_2 C 0.3868(2) 0.6227(2) 0.76699(10)
H32_2 H 0.367161 0.621415 0.740485
C39_2 C 0.5373(3) 0.7626(3) 0.89509(10)
H35_2 H 0.553973 0.713170 0.903751
H36_2 H 0.475799 0.767549 0.895277
S4_2 S 0.88480(7) 0.99384(6) 0.88316(3)
N2_2 N 0.15637(19) 0.91583(18) 0.70860(8)
C6_3 C 0.0101(2) 0.8335(2) 0.68125(10)
C14_3 C 0.0409(2) 0.8357(3) 0.72085(10)
H10_3 H 0.013165 0.809610 0.738877
C23_3 C 0.1272(3) 0.9114(2) 0.67043(11)
H20_3 H 0.157420 0.935875 0.652712
C25_3 C 0.0551(3) 0.8726(2) 0.65637(11)
H21_3 H 0.036611 0.872831 0.629756
H26_3 H 0.014005 0.633853 0.647488
H27_3 H 0.038104 0.688813 0.682281
H29_3 H 0.010118 0.631065 0.742287
H30_3 H 0.017615 0.622654 0.564608
C35_3 C 0.1132(2) 0.8773(2) 0.73301(10)
H32_3 H 0.132839 0.878585 0.759515
H36_3 H 0.024201 0.732451 0.604723
N15_3 N 0.01885(18) 0.24765(18) 0.13300(8)
N16_2 N 0.15061(18) 0.07831(18) 0.24565(8)
C40_3 C 0.1004(2) 0.1944(2) 0.19331(9)
C42_3 C 0.0652(2) 0.1247(2) 0.18819(9)
H37_3 H 0.023571 0.115119 0.167291
C43_3 C 0.0457(2) 0.2021(2) 0.10156(10)
H38_3 H 0.077359 0.232289 0.084980
H39_3 H 0.083617 0.163228 0.112672
C52_3 C 0.0922(2) 0.0689(2) 0.21438(9)
H45_3 H 0.068408 0.022205 0.209993
C54_3 C 0.1564(2) 0.2060(2) 0.22776(10)
H47_3 H 0.178463 0.252831 0.233686
C59_3 C 0.1784(2) 0.1484(2) 0.25242(10)
H51_3 H 0.214529 0.157931 0.275225
H52_3 H 0.036452 0.348330 0.111556
C61_3 C 0.0871(2) 0.2575(2) 0.16504(9)
H54_3 H 0.140350 0.266061 0.154118
H55_3 H 0.074829 0.301555 0.179369
H69_3 H 0.008035 0.183037 0.024311
Co8 Co 0.25967(4) 0.99097(3) 0.73050(2)
Co6 Co 0.24033(4) 0.99097(3) 0.26950(2)
H34_3 H 0.604945 0.125149 0.010930
Co2_2 Co 0.74033(4) 0.49097(3) 0.76950(2)
S1_3 S 0.88480(7) 0.50616(6) 0.38316(3)
S2_3 S 0.77250(7) 0.61727(7) 0.89401(3)
S3_3 S 0.72729(7) 0.31424(7) 0.66729(4)
N1_3 N 0.8250(2) 0.57270(19) 0.53212(8)
N4_3 N 0.48115(18) 0.24765(18) 0.86700(8)
N5_2 N 0.34939(18) 0.07831(18) 0.75435(8)
N6_3 N 0.65507(19) 0.43644(18) 0.80368(8)
N7_3 N 0.82937(19) 0.54487(19) 0.73514(8)
N8_3 N 0.7765(2) 0.56045(19) 0.81852(8)
N9_3 N 0.7013(2) 0.4211(2) 0.72314(8)
N10_3 N 0.9403(2) 0.7249(2) 0.64414(8)
N11_3 N 0.8329(2) 0.4899(2) 0.45719(9)
C1_3 C 0.3996(2) 0.1944(2) 0.80669(9)
C2_3 C 0.5602(2) 0.3609(2) 0.85433(9)
C3_3 C 0.4348(2) 0.1247(2) 0.81181(9)
H1_3 H 0.476429 0.115119 0.832709
C4_3 C 0.4543(2) 0.2021(2) 0.89844(10)
H2_3 H 0.422641 0.232289 0.915020
H3_3 H 0.416383 0.163228 0.887328
C5_3 C 0.6639(2) 0.1026(2) 0.92843(10)
H4_3 H 0.708188 0.082596 0.916154
C7_3 C 0.7847(2) 0.6275(2) 0.54865(9)
H5_3 H 0.725067 0.629030 0.544639
C8_3 C 0.5306(2) 0.1681(2) 0.92263(10)
C9_3 C 0.6117(2) 0.3234(2) 0.83027(10)
H6_3 H 0.614663 0.272092 0.830750
C10_3 C 0.5991(2) 0.1391(2) 0.90569(9)
H7_3 H 0.601329 0.144349 0.879029
C11_3 C 0.7748(2) 0.5836(2) 0.84991(10)
C12_3 C 0.9102(2) 0.5713(2) 0.53842(10)
H8_3 H 0.939287 0.533425 0.527403
C13_3 C 0.4078(2) 0.0689(2) 0.78562(9)
H9_3 H 0.431592 0.022205 0.790007
C15_3 C 0.3436(2) 0.2060(2) 0.77224(10)
H11_3 H 0.321537 0.252831 0.766314
C16_3 C 0.8080(2) 0.5541(2) 0.69663(10)
H12_3 H 0.757181 0.533320 0.684879
C17_3 C 0.5558(2) 0.4363(2) 0.85104(10)
H13_3 H 0.520395 0.463012 0.865690
C18_3 C 0.6574(2) 0.3626(2) 0.80619(10)
H14_3 H 0.692002 0.336893 0.790733
C19_3 C 0.9350(2) 0.6233(2) 0.69046(10)
C20_3 C 0.3216(2) 0.1484(2) 0.74758(10)
H15_3 H 0.285471 0.157931 0.724775
C21_3 C 0.5120(2) 0.3190(2) 0.88251(9)
H16_3 H 0.463548 0.348330 0.888444
H17_3 H 0.549364 0.311245 0.906638
C22_3 C 0.4129(2) 0.2575(2) 0.83496(9)
H18_3 H 0.359650 0.266061 0.845882
H19_3 H 0.425171 0.301555 0.820631
C24_3 C 0.7116(2) 0.3767(2) 0.69960(11)
C26_3 C 0.8274(3) 0.6820(2) 0.57138(11)
H22_3 H 0.796892 0.719184 0.582157
C27_3 C 0.8586(2) 0.5932(2) 0.67391(10)
H23_3 H 0.841171 0.599246 0.647389
C28_3 C 0.9291(2) 0.7903(2) 0.66744(10)
H24_3 H 0.889411 0.823208 0.652228
H25_3 H 0.902580 0.775401 0.690182
C29_3 C 0.9159(3) 0.6806(2) 0.57793(10)
C30_3 C 0.9906(2) 0.6668(2) 0.66570(10)
C31_3 C 0.9038(2) 0.5727(2) 0.75115(10)
H28_3 H 0.919901 0.565269 0.777674
C32_3 C 0.9586(2) 0.6123(2) 0.73008(10)
C33_3 C 0.9580(3) 0.6249(3) 0.56108(10)
C34_3 C 0.6042(2) 0.4728(2) 0.82576(11)
H31_3 H 0.601217 0.524032 0.824118
C36_3 C 0.8547(2) 0.4967(2) 0.42640(10)
C37_3 C 0.5351(3) 0.1625(3) 0.96283(11)
H33_3 H 0.491965 0.183037 0.975689
C38_3 C 0.6030(3) 0.1268(3) 0.98391(11)
C39_3 C 0.9627(3) 0.7374(3) 0.60491(10)
H35_3 H 0.946027 0.786830 0.596249
Co3_2 Co 0.75967(4) 0.49097(3) 0.23050(2)
S4_3 S 0.61520(7) 0.50616(6) 0.61684(3)
S5_3 S 0.72750(7) 0.61727(7) 0.10599(3)
S6_3 S 0.77271(7) 0.31424(7) 0.33271(4)
N12_3 N 0.6750(2) 0.57270(19) 0.46788(8)
N13_2 N 0.34363(19) 0.91583(18) 0.29140(8)
N17_3 N 0.84493(19) 0.43644(18) 0.19632(8)
N18_3 N 0.67063(19) 0.54487(19) 0.26486(8)
N19_3 N 0.7235(2) 0.56045(19) 0.18148(8)
N20_3 N 0.7987(2) 0.4211(2) 0.27686(8)
N21_3 N 0.5597(2) 0.7249(2) 0.35586(8)
N22_3 N 0.6671(2) 0.4899(2) 0.54281(9)
C41_3 C 0.9398(2) 0.3609(2) 0.14567(9)
C44_3 C 0.8361(2) 0.1026(2) 0.07157(10)
H40_3 H 0.791812 0.082596 0.083846
C45_3 C 0.4899(2) 0.8335(2) 0.31875(10)
C46_3 C 0.7153(2) 0.6275(2) 0.45135(9)
H41_3 H 0.774933 0.629030 0.455361
C47_3 C 0.9694(2) 0.1681(2) 0.07737(10)
C48_3 C 0.8883(2) 0.3234(2) 0.16973(10)
H42_3 H 0.885337 0.272092 0.169250
C49_3 C 0.9009(2) 0.1391(2) 0.09431(9)
H43_3 H 0.898671 0.144349 0.120971
C50_3 C 0.7252(2) 0.5836(2) 0.15009(10)
C51_3 C 0.5898(2) 0.5713(2) 0.46158(10)
H44_3 H 0.560713 0.533425 0.472597
C53_3 C 0.4591(2) 0.8357(3) 0.27915(10)
H46_3 H 0.486835 0.809610 0.261123
C55_3 C 0.6920(2) 0.5541(2) 0.30337(10)
H48_3 H 0.742819 0.533320 0.315121
C56_3 C 0.9442(2) 0.4363(2) 0.14896(10)
H49_3 H 0.979605 0.463012 0.134310
C57_3 C 0.8426(2) 0.3626(2) 0.19381(10)
H50_3 H 0.807998 0.336893 0.209267
C58_3 C 0.5650(2) 0.6233(2) 0.30954(10)
C60_3 C 0.9880(2) 0.3190(2) 0.11749(9)
H53_3 H 0.950636 0.311245 0.093362
C62_3 C 0.3728(3) 0.9114(2) 0.32957(11)
H56_3 H 0.342580 0.935875 0.347288
C63_3 C 0.7884(2) 0.3767(2) 0.30040(11)
C64_3 C 0.4449(3) 0.8726(2) 0.34363(11)
H57_3 H 0.463389 0.872831 0.370244
C65_3 C 0.6726(3) 0.6820(2) 0.42862(11)
H58_3 H 0.703108 0.719184 0.417843
C66_3 C 0.6414(2) 0.5932(2) 0.32609(10)
H59_3 H 0.658829 0.599246 0.352611
C67_3 C 0.5709(2) 0.7903(2) 0.33256(10)
H60_3 H 0.610589 0.823208 0.347772
H61_3 H 0.597420 0.775401 0.309818
C68_3 C 0.5841(3) 0.6806(2) 0.42207(10)
C69_3 C 0.5094(2) 0.6668(2) 0.33430(10)
H62_3 H 0.485995 0.633853 0.352512
H63_3 H 0.461896 0.688813 0.317719
C70_3 C 0.5962(2) 0.5727(2) 0.24885(10)
H64_3 H 0.580099 0.565269 0.222326
C71_3 C 0.5414(2) 0.6123(2) 0.26992(10)
H65_3 H 0.489882 0.631065 0.257713
C72_3 C 0.5420(3) 0.6249(3) 0.43892(10)
H66_3 H 0.482385 0.622654 0.435392
C73_3 C 0.8958(2) 0.4728(2) 0.17424(11)
H67_3 H 0.898783 0.524032 0.175882
C74_3 C 0.3868(2) 0.8773(2) 0.26699(10)
H68_3 H 0.367161 0.878585 0.240485
C75_3 C 0.6453(2) 0.4967(2) 0.57360(10)
C76_3 C 0.9649(3) 0.1625(3) 0.03717(11)
C77_3 C 0.8970(3) 0.1268(3) 0.01609(11)
C78_3 C 0.5373(3) 0.7374(3) 0.39509(10)
H71_3 H 0.553973 0.786830 0.403751
H72_3 H 0.475799 0.732451 0.395277
N23_2 N 0.65637(19) 0.41583(18) 0.20860(8)
N24_2 N 0.84363(19) 0.41583(18) 0.79140(8)
N27_2 N 0.84939(18) 0.57831(18) 0.25435(8)
N28_2 N 0.65061(18) 0.57831(18) 0.74565(8)
H70_3 H 0.895055 0.125149 0.989070
S2_4 S 0.27250(7) 0.11727(7) 0.39401(3)
N1_4 N 0.3250(2) 0.07270(19) 0.03212(8)
N7_4 N 0.32937(19) 0.04487(19) 0.23514(8)
N8_4 N 0.2765(2) 0.06045(19) 0.31852(8)
N10_4 N 0.4403(2) 0.2249(2) 0.14414(8)
C6_4 C 0.5101(2) 0.3335(2) 0.18125(10)
C7_4 C 0.2847(2) 0.1275(2) 0.04865(9)
H5_4 H 0.225067 0.129030 0.044639
C11_4 C 0.2748(2) 0.0836(2) 0.34991(10)
C12_4 C 0.4102(2) 0.0713(2) 0.03842(10)
H8_4 H 0.439287 0.033425 0.027403
C14_4 C 0.5409(2) 0.3357(3) 0.22085(10)
H10_4 H 0.513165 0.309610 0.238877
C16_4 C 0.3080(2) 0.0541(2) 0.19663(10)
H12_4 H 0.257181 0.033320 0.184879
C19_4 C 0.4350(2) 0.1233(2) 0.19046(10)
C23_4 C 0.6272(3) 0.4114(2) 0.17043(11)
H20_4 H 0.657420 0.435875 0.152712
C25_4 C 0.5551(3) 0.3726(2) 0.15637(11)
H21_4 H 0.536611 0.372831 0.129756
C26_4 C 0.3274(3) 0.1820(2) 0.07138(11)
H22_4 H 0.296892 0.219184 0.082157
C27_4 C 0.3586(2) 0.0932(2) 0.17391(10)
H23_4 H 0.341171 0.099246 0.147389
C28_4 C 0.4291(2) 0.2903(2) 0.16744(10)
H24_4 H 0.389411 0.323208 0.152228
H25_4 H 0.402580 0.275401 0.190182
C29_4 C 0.4159(3) 0.1806(2) 0.07793(10)
C30_4 C 0.4906(2) 0.1668(2) 0.16570(10)
H26_4 H 0.514005 0.133853 0.147488
H27_4 H 0.538104 0.188813 0.182281
C31_4 C 0.4038(2) 0.0727(2) 0.25115(10)
H28_4 H 0.419901 0.065269 0.277674
C32_4 C 0.4586(2) 0.1123(2) 0.23008(10)
H29_4 H 0.510118 0.131065 0.242287
C33_4 C 0.4580(3) 0.1249(3) 0.06108(10)
H30_4 H 0.517615 0.122654 0.064608
H31_4 H 0.101217 0.024032 0.324118
C35_4 C 0.6132(2) 0.3773(2) 0.23301(10)
H32_4 H 0.632839 0.378585 0.259515
C39_4 C 0.4627(3) 0.2374(3) 0.10491(10)
H35_4 H 0.446027 0.286830 0.096249
H36_4 H 0.524201 0.232451 0.104723
S4_4 S 0.11520(7) 0.00616(6) 0.11684(3)
S1_4 S 0.38480(7) 0.00616(6) 0.88316(3)
S5_4 S 0.22750(7) 0.11727(7) 0.60599(3)
N12_4 N 0.1750(2) 0.07270(19) 0.96788(8)
N18_4 N 0.17063(19) 0.04487(19) 0.76486(8)
N19_4 N 0.2235(2) 0.06045(19) 0.68148(8)
N21_4 N 0.0597(2) 0.2249(2) 0.85586(8)
C46_4 C 0.2153(2) 0.1275(2) 0.95135(9)
H41_4 H 0.274933 0.129030 0.955361
C50_4 C 0.2252(2) 0.0836(2) 0.65009(10)
C51_4 C 0.0898(2) 0.0713(2) 0.96158(10)
H44_4 H 0.060713 0.033425 0.972597
C55_4 C 0.1920(2) 0.0541(2) 0.80337(10)
H48_4 H 0.242819 0.033320 0.815121
C58_4 C 0.0650(2) 0.1233(2) 0.80954(10)
C65_4 C 0.1726(3) 0.1820(2) 0.92862(11)
H58_4 H 0.203108 0.219184 0.917843
C66_4 C 0.1414(2) 0.0932(2) 0.82609(10)
H59_4 H 0.158829 0.099246 0.852611
C67_4 C 0.0709(2) 0.2903(2) 0.83256(10)
H60_4 H 0.110589 0.323208 0.847772
H61_4 H 0.097420 0.275401 0.809818
C68_4 C 0.0841(3) 0.1806(2) 0.92207(10)
C69_4 C 0.0094(2) 0.1668(2) 0.83430(10)
C70_4 C 0.0962(2) 0.0727(2) 0.74885(10)
H64_4 H 0.080099 0.065269 0.722326
C71_4 C 0.0414(2) 0.1123(2) 0.76992(10)
C72_4 C 0.0420(3) 0.1249(3) 0.93892(10)
H67_4 H 0.398783 0.024032 0.675882
C78_4 C 0.0373(3) 0.2374(3) 0.89509(10)
H71_4 H 0.053973 0.286830 0.903751
S3_4 S 0.22729(7) 0.81424(7) 0.16729(4)
N6_4 N 0.15507(19) 0.93644(18) 0.30368(8)
N9_4 N 0.2013(2) 0.9211(2) 0.22314(8)
C2_4 C 0.0602(2) 0.8609(2) 0.35433(9)
C5_4 C 0.1639(2) 0.6026(2) 0.42843(10)
H4_4 H 0.208188 0.582596 0.416154
C8_4 C 0.0306(2) 0.6681(2) 0.42263(10)
C9_4 C 0.1117(2) 0.8234(2) 0.33027(10)
H6_4 H 0.114663 0.772092 0.330750
C10_4 C 0.0991(2) 0.6391(2) 0.40569(9)
H7_4 H 0.101329 0.644349 0.379029
C17_4 C 0.0558(2) 0.9363(2) 0.35104(10)
H13_4 H 0.020395 0.963012 0.365690
C18_4 C 0.1574(2) 0.8626(2) 0.30619(10)
H14_4 H 0.192002 0.836893 0.290733
C21_4 C 0.0120(2) 0.8190(2) 0.38251(9)
H17_4 H 0.049364 0.811245 0.406638
C24_4 C 0.2116(2) 0.8767(2) 0.19960(11)
C34_4 C 0.1042(2) 0.9728(2) 0.32576(11)
C37_4 C 0.0351(3) 0.6625(3) 0.46283(11)
C38_4 C 0.1030(3) 0.6268(3) 0.48391(11)
H34_4 H 0.104945 0.625149 0.510930
N22_4 N 0.1671(2) 0.9899(2) 0.04281(9)
C75_4 C 0.1453(2) 0.9967(2) 0.07360(10)
N11_4 N 0.3329(2) 0.9899(2) 0.95719(9)
C36_4 C 0.3547(2) 0.9967(2) 0.92640(10)
S6_4 S 0.27271(7) 0.81424(7) 0.83271(4)
N15_4 N 0.51885(18) 0.74765(18) 0.63300(8)
N17_4 N 0.34493(19) 0.93644(18) 0.69632(8)
N20_4 N 0.2987(2) 0.9211(2) 0.77686(8)
C40_4 C 0.6004(2) 0.6944(2) 0.69331(9)
C41_4 C 0.4398(2) 0.8609(2) 0.64567(9)
C42_4 C 0.5652(2) 0.6247(2) 0.68819(9)
H37_4 H 0.523571 0.615119 0.667291
C43_4 C 0.5457(2) 0.7021(2) 0.60156(10)
H38_4 H 0.577359 0.732289 0.584980
H39_4 H 0.583617 0.663228 0.612672
C44_4 C 0.3361(2) 0.6026(2) 0.57157(10)
H40_4 H 0.291812 0.582596 0.583846
C47_4 C 0.4694(2) 0.6681(2) 0.57737(10)
C48_4 C 0.3883(2) 0.8234(2) 0.66973(10)
H42_4 H 0.385337 0.772092 0.669250
C49_4 C 0.4009(2) 0.6391(2) 0.59431(9)
H43_4 H 0.398671 0.644349 0.620971
C52_4 C 0.5922(2) 0.5689(2) 0.71438(9)
H45_4 H 0.568408 0.522205 0.709993
C54_4 C 0.6564(2) 0.7060(2) 0.72776(10)
H47_4 H 0.678463 0.752831 0.733686
C56_4 C 0.4442(2) 0.9363(2) 0.64896(10)
H49_4 H 0.479605 0.963012 0.634310
C57_4 C 0.3426(2) 0.8626(2) 0.69381(10)
H50_4 H 0.307998 0.836893 0.709267
C59_4 C 0.6784(2) 0.6484(2) 0.75242(10)
H51_4 H 0.714529 0.657931 0.775225
C60_4 C 0.4880(2) 0.8190(2) 0.61749(9)
H52_4 H 0.536452 0.848330 0.611556
H53_4 H 0.450636 0.811245 0.593362
C61_4 C 0.5871(2) 0.7575(2) 0.66504(9)
H54_4 H 0.640350 0.766061 0.654118
H55_4 H 0.574829 0.801555 0.679369
C63_4 C 0.2884(2) 0.8767(2) 0.80040(11)
C73_4 C 0.3958(2) 0.9728(2) 0.67424(11)
C76_4 C 0.4649(3) 0.6625(3) 0.53717(11)
H69_4 H 0.508035 0.683037 0.524311
C77_4 C 0.3970(3) 0.6268(3) 0.51609(11)
H70_4 H 0.395055 0.625149 0.489070
C45_4 C 0.9899(2) 0.3335(2) 0.81875(10)
C53_4 C 0.9591(2) 0.3357(3) 0.77915(10)
H46_4 H 0.986835 0.309610 0.761123
C62_4 C 0.8728(3) 0.4114(2) 0.82957(11)
H56_4 H 0.842580 0.435875 0.847288
C64_4 C 0.9449(3) 0.3726(2) 0.84363(11)
H57_4 H 0.963389 0.372831 0.870244
H62_4 H 0.985995 0.133853 0.852512
H63_4 H 0.961896 0.188813 0.817719
H65_4 H 0.989882 0.131065 0.757713
H66_4 H 0.982385 0.122654 0.935392
C74_4 C 0.8868(2) 0.3773(2) 0.76699(10)
H68_4 H 0.867161 0.378585 0.740485
H72_4 H 0.975799 0.232451 0.895277
N4_4 N 0.98115(18) 0.74765(18) 0.36700(8)
C1_4 C 0.8996(2) 0.6944(2) 0.30669(9)
C3_4 C 0.9348(2) 0.6247(2) 0.31181(9)
H1_4 H 0.976429 0.615119 0.332709
C4_4 C 0.9543(2) 0.7021(2) 0.39844(10)
H2_4 H 0.922641 0.732289 0.415020
H3_4 H 0.916383 0.663228 0.387328
C13_4 C 0.9078(2) 0.5689(2) 0.28562(9)
H9_4 H 0.931592 0.522205 0.290007
C15_4 C 0.8436(2) 0.7060(2) 0.27224(10)
H11_4 H 0.821537 0.752831 0.266314
C20_4 C 0.8216(2) 0.6484(2) 0.24758(10)
H15_4 H 0.785471 0.657931 0.224775
H16_4 H 0.963548 0.848330 0.388444
C22_4 C 0.9129(2) 0.7575(2) 0.33496(9)
H18_4 H 0.859650 0.766061 0.345882
H19_4 H 0.925171 0.801555 0.320631
H33_4 H 0.991965 0.683037 0.475689
loop_
_geom_bond_atom_site_label_1
_geom_bond_atom_site_label_2
_geom_bond_site_symmetry_1
_geom_bond_site_symmetry_2
Co1 N1 1_555 1_555
Co2 N6 1_555 1_555
S1 C36 1_555 1_555
S2 C11 1_555 1_555
S3 C24 1_555 1_555
N1 C7 1_555 1_555
N3 C5 1_555 1_555
N4 C4 1_555 1_555
N5 C13 1_555 1_555
N6 C18 1_555 1_555
N7 Co2 1_555 1_555
N8 Co2 1_555 1_555
N9 Co2 1_555 1_555
N10 C28 1_555 1_555
N11 Co1 1_555 1_555
C1 C3 1_555 1_555
C2 C9 1_555 1_555
C3 H1 1_555 1_555
C4 H2 1_555 1_555
H3 C4 1_555 1_555
C5 H4 1_555 1_555
C7 H5 1_555 1_555
C8 C4 1_555 1_555
C9 H6 1_555 1_555
C10 C5 1_555 1_555
H7 C10 1_555 1_555
C11 N8 1_555 1_555
C12 N1 1_555 1_555
H8 C12 1_555 1_555
C13 C3 1_555 1_555
H9 C13 1_555 1_555
C15 C1 1_555 1_555
H11 C15 1_555 1_555
C16 N7 1_555 1_555
H12 C16 1_555 1_555
C17 C2 1_555 1_555
H13 C17 1_555 1_555
C18 C9 1_555 1_555
H14 C18 1_555 1_555
C19 C27 1_555 1_555
C20 N5 1_555 1_555
H15 C20 1_555 1_555
C21 N4 1_555 1_555
H16 C21 1_555 1_555
H17 C21 1_555 1_555
C22 N4 1_555 1_555
H18 C22 1_555 1_555
H19 C22 1_555 1_555
C24 N9 1_555 1_555
C26 C7 1_555 1_555
H22 C26 1_555 1_555
C27 C16 1_555 1_555
H23 C27 1_555 1_555
H24 C28 1_555 1_555
H25 C28 1_555 1_555
C29 C26 1_555 1_555
C30 N10 1_555 1_555
C31 N7 1_555 1_555
H28 C31 1_555 1_555
C32 C19 1_555 1_555
C33 C12 1_555 1_555
C34 N6 1_555 1_555
H31 C34 1_555 1_555
C36 N11 1_555 1_555
C37 C8 1_555 1_555
H33 C37 1_555 1_555
C38 N3 1_555 1_555
C39 N10 1_555 1_555
H35 C39 1_555 1_555
Co3 N17 1_555 1_555
S4 C75 1_555 1_555
S5 C50 1_555 1_555
S6 C63 1_555 1_555
N12 Co1 1_555 1_555
N13 C62 1_555 1_555
N14 C44 1_555 1_555
N17 C57 1_555 1_555
N18 Co3 1_555 1_555
N19 Co3 1_555 1_555
N20 Co3 1_555 1_555
N21 C67 1_555 1_555
N22 Co1 1_555 1_555
C41 C48 1_555 1_555
C44 H40 1_555 1_555
C45 C53 1_555 1_555
C46 N12 1_555 1_555
H41 C46 1_555 1_555
C48 H42 1_555 1_555
C49 C44 1_555 1_555
H43 C49 1_555 1_555
C50 N19 1_555 1_555
C51 N12 1_555 1_555
H44 C51 1_555 1_555
C53 H46 1_555 1_555
C55 N18 1_555 1_555
H48 C55 1_555 1_555
C56 C41 1_555 1_555
H49 C56 1_555 1_555
C57 C48 1_555 1_555
H50 C57 1_555 1_555
C58 C66 1_555 1_555
H53 C60 1_555 1_555
C62 H56 1_555 1_555
C63 N20 1_555 1_555
C64 C45 1_555 1_555
H57 C64 1_555 1_555
C65 C46 1_555 1_555
H58 C65 1_555 1_555
C66 C55 1_555 1_555
H59 C66 1_555 1_555
C67 C45 1_555 1_555
H60 C67 1_555 1_555
H61 C67 1_555 1_555
C68 C65 1_555 1_555
C69 N21 1_555 1_555
H62 C69 1_555 1_555
H63 C69 1_555 1_555
C70 N18 1_555 1_555
H64 C70 1_555 1_555
C71 C58 1_555 1_555
H65 C71 1_555 1_555
C72 C51 1_555 1_555
H66 C72 1_555 1_555
C73 N17 1_555 1_555
H67 C73 1_555 1_555
C74 N13 1_555 1_555
H68 C74 1_555 1_555
C75 N22 1_555 1_555
C76 C47 1_555 1_555
C77 N14 1_555 1_555
C78 N21 1_555 1_555
H71 C78 1_555 1_555
H72 C78 1_555 1_555
Co5 N3 1_555 1_555
Co5_2 N14 1_555 1_555
Co7 N13 1_555 1_555
N23 Co3 1_555 1_555
N24 Co2 1_555 1_555
N25 Co1 1_555 1_555
N26 Co1 1_555 1_555
N27 Co3 1_555 1_555
N28 Co2 1_555 1_555
C1 C22 1_555 1_555
C2 C21 1_555 1_555
C8 C10 1_555 1_555
C15 C20 1_555 1_555
C17 C34 1_555 1_555
C19 C30 1_555 1_555
C29 C33 1_555 1_555
C29 C39 1_555 1_555
C31 C32 1_555 1_555
C37 C38 1_555 1_555
C41 C60 1_555 1_555
C47 C49 1_555 1_555
C53 C74 1_555 1_555
C56 C73 1_555 1_555
C58 C69 1_555 1_555
C62 C64 1_555 1_555
C68 C72 1_555 1_555
C68 C78 1_555 1_555
C70 C71 1_555 1_555
C76 C77 1_555 1_555
N2 C23 1_555 1_555
C6 C14 1_555 1_555
C14 H10 1_555 1_555
C23 H20 1_555 1_555
C25 C6 1_555 1_555
H21 C25 1_555 1_555
C35 N2 1_555 1_555
H32 C35 1_555 1_555
N15 C43 1_555 1_555
N16 C52 1_555 1_555
C40 C42 1_555 1_555
C42 H37 1_555 1_555
C43 H38 1_555 1_555
H39 C43 1_555 1_555
C52 C42 1_555 1_555
H45 C52 1_555 1_555
C54 C40 1_555 1_555
H47 C54 1_555 1_555
C59 N16 1_555 1_555
H51 C59 1_555 1_555
C61 N15 1_555 1_555
H54 C61 1_555 1_555
H55 C61 1_555 1_555
Co9 N2 1_555 1_555
C14 C35 1_555 1_555
C23 C25 1_555 1_555
C40 C61 1_555 1_555
C54 C59 1_555 1_555
N4_2 C4_2 1_555 1_555
N27 C13_2 1_555 1_555
C1_2 C3_2 1_555 1_555
C3_2 H1_2 1_555 1_555
C4_2 H2_2 1_555 1_555
H3_2 C4_2 1_555 1_555
C13_2 C3_2 1_555 1_555
H9_2 C13_2 1_555 1_555
C15_2 C1_2 1_555 1_555
H11_2 C15_2 1_555 1_555
C20_2 N27 1_555 1_555
H15_2 C20_2 1_555 1_555
C22_2 N4_2 1_555 1_555
H18_2 C22_2 1_555 1_555
H19_2 C22_2 1_555 1_555
C1_2 C22_2 1_555 1_555
C15_2 C20_2 1_555 1_555
N24 C62_2 1_555 1_555
C45_2 C53_2 1_555 1_555
C53_2 H46_2 1_555 1_555
C62_2 H56_2 1_555 1_555
C64_2 C45_2 1_555 1_555
H57_2 C64_2 1_555 1_555
C74_2 N24 1_555 1_555
H68_2 C74_2 1_555 1_555
C53_2 C74_2 1_555 1_555
C62_2 C64_2 1_555 1_555
N11_2 Co1_2 1_555 1_555
C36_2 N11_2 1_555 1_555
Co9 N17_2 1_555 1_555
S6_2 C63_2 1_555 1_555
N14_2 C44_2 1_555 1_555
N15_2 C43_2 1_555 1_555
N28 C52_2 1_555 1_555
N17_2 C57_2 1_555 1_555
N20_2 Co9 1_555 1_555
C40_2 C42_2 1_555 1_555
C41_2 C48_2 1_555 1_555
C42_2 H37_2 1_555 1_555
C43_2 H38_2 1_555 1_555
H39_2 C43_2 1_555 1_555
C44_2 H40_2 1_555 1_555
C47_2 C43_2 1_555 1_555
C48_2 H42_2 1_555 1_555
C49_2 C44_2 1_555 1_555
H43_2 C49_2 1_555 1_555
C52_2 C42_2 1_555 1_555
H45_2 C52_2 1_555 1_555
C54_2 C40_2 1_555 1_555
H47_2 C54_2 1_555 1_555
C56_2 C41_2 1_555 1_555
H49_2 C56_2 1_555 1_555
C57_2 C48_2 1_555 1_555
H50_2 C57_2 1_555 1_555
C59_2 N28 1_555 1_555
H51_2 C59_2 1_555 1_555
C60_2 N15_2 1_555 1_555
H52_2 C60_2 1_555 1_555
H53_2 C60_2 1_555 1_555
C61_2 N15_2 1_555 1_555
H54_2 C61_2 1_555 1_555
H55_2 C61_2 1_555 1_555
C63_2 N20_2 1_555 1_555
C73_2 N17_2 1_555 1_555
C76_2 C47_2 1_555 1_555
H69_2 C76_2 1_555 1_555
C77_2 N14_2 1_555 1_555
H70_2 C77_2 1_555 1_555
Co5_3 N14_2 1_555 1_555
N26_2 Co1_2 1_555 1_555
C40_2 C61_2 1_555 1_555
C41_2 C60_2 1_555 1_555
C47_2 C49_2 1_555 1_555
C54_2 C59_2 1_555 1_555
C56_2 C73_2 1_555 1_555
C76_2 C77_2 1_555 1_555
Co7 N6_2 1_555 1_555
S3_2 C24_2 1_555 1_555
N3_2 C5_2 1_555 1_555
N6_2 C18_2 1_555 1_555
N9_2 Co7 1_555 1_555
C2_2 C9_2 1_555 1_555
C5_2 H4_2 1_555 1_555
C9_2 H6_2 1_555 1_555
C10_2 C5_2 1_555 1_555
H7_2 C10_2 1_555 1_555
C17_2 C2_2 1_555 1_555
H13_2 C17_2 1_555 1_555
C18_2 C9_2 1_555 1_555
H14_2 C18_2 1_555 1_555
H17_2 C21_2 1_555 1_555
C24_2 N9_2 1_555 1_555
C34_2 N6_2 1_555 1_555
C37_2 C8_2 1_555 1_555
C38_2 N3_2 1_555 1_555
H34_2 C38_2 1_555 1_555
N22_2 Co1_3 1_555 1_555
C75_2 N22_2 1_555 1_555
Co5_3 N3_2 1_555 1_555
N25_2 Co1_3 1_555 1_555
C2_2 C21_2 1_555 1_555
C8_2 C10_2 1_555 1_555
C17_2 C34_2 1_555 1_555
C37_2 C38_2 1_555 1_555
S5_2 C50_2 1_555 1_555
N21_2 C67_2 1_555 1_555
C46_2 N12_2 1_555 1_555
H41_2 C46_2 1_555 1_555
C50_2 N19_2 1_555 1_555
C51_2 N12_2 1_555 1_555
H44_2 C51_2 1_555 1_555
C55_2 N18_2 1_555 1_555
H48_2 C55_2 1_555 1_555
C58_2 C66_2 1_555 1_555
C65_2 C46_2 1_555 1_555
H58_2 C65_2 1_555 1_555
C66_2 C55_2 1_555 1_555
H59_2 C66_2 1_555 1_555
H60_2 C67_2 1_555 1_555
H61_2 C67_2 1_555 1_555
C68_2 C65_2 1_555 1_555
C69_2 N21_2 1_555 1_555
C70_2 N18_2 1_555 1_555
H64_2 C70_2 1_555 1_555
C71_2 C58_2 1_555 1_555
C72_2 C51_2 1_555 1_555
C78_2 N21_2 1_555 1_555
H71_2 C78_2 1_555 1_555
C58_2 C69_2 1_555 1_555
C68_2 C72_2 1_555 1_555
C68_2 C78_2 1_555 1_555
C70_2 C71_2 1_555 1_555
S2_2 C11_2 1_555 1_555
N1_2 C7_2 1_555 1_555
N23 C23_2 1_555 1_555
N10_2 C28_2 1_555 1_555
C6_2 C14_2 1_555 1_555
C7_2 H5_2 1_555 1_555
C11_2 N8_2 1_555 1_555
C12_2 N1_2 1_555 1_555
H8_2 C12_2 1_555 1_555
C14_2 H10_2 1_555 1_555
C16_2 N7_2 1_555 1_555
H12_2 C16_2 1_555 1_555
C19_2 C27_2 1_555 1_555
C23_2 H20_2 1_555 1_555
C25_2 C6_2 1_555 1_555
H21_2 C25_2 1_555 1_555
C26_2 C7_2 1_555 1_555
H22_2 C26_2 1_555 1_555
C27_2 C16_2 1_555 1_555
H23_2 C27_2 1_555 1_555
C28_2 C6_2 1_555 1_555
H24_2 C28_2 1_555 1_555
H25_2 C28_2 1_555 1_555
C29_2 C26_2 1_555 1_555
C30_2 N10_2 1_555 1_555
H26_2 C30_2 1_555 1_555
H27_2 C30_2 1_555 1_555
C31_2 N7_2 1_555 1_555
H28_2 C31_2 1_555 1_555
C32_2 C19_2 1_555 1_555
H29_2 C32_2 1_555 1_555
C33_2 C12_2 1_555 1_555
H30_2 C33_2 1_555 1_555
C35_2 N23 1_555 1_555
H32_2 C35_2 1_555 1_555
C39_2 N10_2 1_555 1_555
H35_2 C39_2 1_555 1_555
H36_2 C39_2 1_555 1_555
C14_2 C35_2 1_555 1_555
C19_2 C30_2 1_555 1_555
C23_2 C25_2 1_555 1_555
C29_2 C33_2 1_555 1_555
C29_2 C39_2 1_555 1_555
C31_2 C32_2 1_555 1_555
N2_2 C23_3 1_555 1_555
C6_3 C14_3 1_555 1_555
C14_3 H10_3 1_555 1_555
C23_3 H20_3 1_555 1_555
C25_3 C6_3 1_555 1_555
H21_3 C25_3 1_555 1_555
C35_3 N2_2 1_555 1_555
H32_3 C35_3 1_555 1_555
N15_3 C43_3 1_555 1_555
N16_2 C52_3 1_555 1_555
C40_3 C42_3 1_555 1_555
C42_3 H37_3 1_555 1_555
C43_3 H38_3 1_555 1_555
H39_3 C43_3 1_555 1_555
C52_3 C42_3 1_555 1_555
H45_3 C52_3 1_555 1_555
C54_3 C40_3 1_555 1_555
H47_3 C54_3 1_555 1_555
C59_3 N16_2 1_555 1_555
H51_3 C59_3 1_555 1_555
C61_3 N15_3 1_555 1_555
H54_3 C61_3 1_555 1_555
H55_3 C61_3 1_555 1_555
Co8 N2_2 1_555 1_555
C14_3 C35_3 1_555 1_555
C23_3 C25_3 1_555 1_555
C40_3 C61_3 1_555 1_555
C54_3 C59_3 1_555 1_555
Co5_3 N1_3 1_555 1_555
Co2_2 N6_3 1_555 1_555
S1_3 C36_3 1_555 1_555
S2_3 C11_3 1_555 1_555
S3_3 C24_3 1_555 1_555
N1_3 C7_3 1_555 1_555
N25_2 C5_3 1_555 1_555
N4_3 C4_3 1_555 1_555
N5_2 C13_3 1_555 1_555
N6_3 C18_3 1_555 1_555
N7_3 Co2_2 1_555 1_555
N8_3 Co2_2 1_555 1_555
N9_3 Co2_2 1_555 1_555
N10_3 C28_3 1_555 1_555
N11_3 Co5_3 1_555 1_555
C1_3 C3_3 1_555 1_555
C2_3 C9_3 1_555 1_555
C3_3 H1_3 1_555 1_555
C4_3 H2_3 1_555 1_555
H3_3 C4_3 1_555 1_555
C5_3 H4_3 1_555 1_555
C7_3 H5_3 1_555 1_555
C8_3 C4_3 1_555 1_555
C9_3 H6_3 1_555 1_555
C10_3 C5_3 1_555 1_555
H7_3 C10_3 1_555 1_555
C11_3 N8_3 1_555 1_555
C12_3 N1_3 1_555 1_555
H8_3 C12_3 1_555 1_555
C13_3 C3_3 1_555 1_555
H9_3 C13_3 1_555 1_555
C15_3 C1_3 1_555 1_555
H11_3 C15_3 1_555 1_555
C16_3 N7_3 1_555 1_555
H12_3 C16_3 1_555 1_555
C17_3 C2_3 1_555 1_555
H13_3 C17_3 1_555 1_555
C18_3 C9_3 1_555 1_555
H14_3 C18_3 1_555 1_555
C19_3 C27_3 1_555 1_555
C20_3 N5_2 1_555 1_555
H15_3 C20_3 1_555 1_555
C21_3 N4_3 1_555 1_555
H16_3 C21_3 1_555 1_555
H17_3 C21_3 1_555 1_555
C22_3 N4_3 1_555 1_555
H18_3 C22_3 1_555 1_555
H19_3 C22_3 1_555 1_555
C24_3 N9_3 1_555 1_555
C26_3 C7_3 1_555 1_555
H22_3 C26_3 1_555 1_555
C27_3 C16_3 1_555 1_555
H23_3 C27_3 1_555 1_555
H24_3 C28_3 1_555 1_555
H25_3 C28_3 1_555 1_555
C29_3 C26_3 1_555 1_555
C30_3 N10_3 1_555 1_555
C31_3 N7_3 1_555 1_555
H28_3 C31_3 1_555 1_555
C32_3 C19_3 1_555 1_555
C33_3 C12_3 1_555 1_555
C34_3 N6_3 1_555 1_555
H31_3 C34_3 1_555 1_555
C36_3 N11_3 1_555 1_555
C37_3 C8_3 1_555 1_555
H33_3 C37_3 1_555 1_555
C38_3 N25_2 1_555 1_555
C39_3 N10_3 1_555 1_555
H35_3 C39_3 1_555 1_555
Co3_2 N17_3 1_555 1_555
S4_3 C75_3 1_555 1_555
S5_3 C50_3 1_555 1_555
S6_3 C63_3 1_555 1_555
N12_3 Co5_3 1_555 1_555
N13_2 C62_3 1_555 1_555
N26_2 C44_3 1_555 1_555
N17_3 C57_3 1_555 1_555
N18_3 Co3_2 1_555 1_555
N19_3 Co3_2 1_555 1_555
N20_3 Co3_2 1_555 1_555
N21_3 C67_3 1_555 1_555
N22_3 Co5_3 1_555 1_555
C41_3 C48_3 1_555 1_555
C44_3 H40_3 1_555 1_555
C45_3 C53_3 1_555 1_555
C46_3 N12_3 1_555 1_555
H41_3 C46_3 1_555 1_555
C48_3 H42_3 1_555 1_555
C49_3 C44_3 1_555 1_555
H43_3 C49_3 1_555 1_555
C50_3 N19_3 1_555 1_555
C51_3 N12_3 1_555 1_555
H44_3 C51_3 1_555 1_555
C53_3 H46_3 1_555 1_555
C55_3 N18_3 1_555 1_555
H48_3 C55_3 1_555 1_555
C56_3 C41_3 1_555 1_555
H49_3 C56_3 1_555 1_555
C57_3 C48_3 1_555 1_555
H50_3 C57_3 1_555 1_555
C58_3 C66_3 1_555 1_555
H53_3 C60_3 1_555 1_555
C62_3 H56_3 1_555 1_555
C63_3 N20_3 1_555 1_555
C64_3 C45_3 1_555 1_555
H57_3 C64_3 1_555 1_555
C65_3 C46_3 1_555 1_555
H58_3 C65_3 1_555 1_555
C66_3 C55_3 1_555 1_555
H59_3 C66_3 1_555 1_555
C67_3 C45_3 1_555 1_555
H60_3 C67_3 1_555 1_555
H61_3 C67_3 1_555 1_555
C68_3 C65_3 1_555 1_555
C69_3 N21_3 1_555 1_555
H62_3 C69_3 1_555 1_555
H63_3 C69_3 1_555 1_555
C70_3 N18_3 1_555 1_555
H64_3 C70_3 1_555 1_555
C71_3 C58_3 1_555 1_555
H65_3 C71_3 1_555 1_555
C72_3 C51_3 1_555 1_555
H66_3 C72_3 1_555 1_555
C73_3 N17_3 1_555 1_555
H67_3 C73_3 1_555 1_555
C74_3 N13_2 1_555 1_555
H68_3 C74_3 1_555 1_555
C75_3 N22_3 1_555 1_555
C76_3 C47_3 1_555 1_555
C77_3 N26_2 1_555 1_555
C78_3 N21_3 1_555 1_555
H71_3 C78_3 1_555 1_555
H72_3 C78_3 1_555 1_555
Co6 N13_2 1_555 1_555
N23_2 Co3_2 1_555 1_555
N24_2 Co2_2 1_555 1_555
N27_2 Co3_2 1_555 1_555
N28_2 Co2_2 1_555 1_555
C1_3 C22_3 1_555 1_555
C2_3 C21_3 1_555 1_555
C8_3 C10_3 1_555 1_555
C15_3 C20_3 1_555 1_555
C17_3 C34_3 1_555 1_555
C19_3 C30_3 1_555 1_555
C29_3 C33_3 1_555 1_555
C29_3 C39_3 1_555 1_555
C31_3 C32_3 1_555 1_555
C37_3 C38_3 1_555 1_555
C41_3 C60_3 1_555 1_555
C47_3 C49_3 1_555 1_555
C53_3 C74_3 1_555 1_555
C56_3 C73_3 1_555 1_555
C58_3 C69_3 1_555 1_555
C62_3 C64_3 1_555 1_555
C68_3 C72_3 1_555 1_555
C68_3 C78_3 1_555 1_555
C70_3 C71_3 1_555 1_555
C76_3 C77_3 1_555 1_555
S2_4 C11_4 1_555 1_555
N1_4 C7_4 1_555 1_555
N23_2 C23_4 1_555 1_555
N10_4 C28_4 1_555 1_555
C6_4 C14_4 1_555 1_555
C7_4 H5_4 1_555 1_555
C11_4 N8_4 1_555 1_555
C12_4 N1_4 1_555 1_555
H8_4 C12_4 1_555 1_555
C14_4 H10_4 1_555 1_555
C16_4 N7_4 1_555 1_555
H12_4 C16_4 1_555 1_555
C19_4 C27_4 1_555 1_555
C23_4 H20_4 1_555 1_555
C25_4 C6_4 1_555 1_555
H21_4 C25_4 1_555 1_555
C26_4 C7_4 1_555 1_555
H22_4 C26_4 1_555 1_555
C27_4 C16_4 1_555 1_555
H23_4 C27_4 1_555 1_555
C28_4 C6_4 1_555 1_555
H24_4 C28_4 1_555 1_555
H25_4 C28_4 1_555 1_555
C29_4 C26_4 1_555 1_555
C30_4 N10_4 1_555 1_555
H26_4 C30_4 1_555 1_555
H27_4 C30_4 1_555 1_555
C31_4 N7_4 1_555 1_555
H28_4 C31_4 1_555 1_555
C32_4 C19_4 1_555 1_555
H29_4 C32_4 1_555 1_555
C33_4 C12_4 1_555 1_555
H30_4 C33_4 1_555 1_555
C35_4 N23_2 1_555 1_555
H32_4 C35_4 1_555 1_555
C39_4 N10_4 1_555 1_555
H35_4 C39_4 1_555 1_555
H36_4 C39_4 1_555 1_555
C14_4 C35_4 1_555 1_555
C19_4 C30_4 1_555 1_555
C23_4 C25_4 1_555 1_555
C29_4 C33_4 1_555 1_555
C29_4 C39_4 1_555 1_555
C31_4 C32_4 1_555 1_555
S5_4 C50_4 1_555 1_555
N21_4 C67_4 1_555 1_555
C46_4 N12_4 1_555 1_555
H41_4 C46_4 1_555 1_555
C50_4 N19_4 1_555 1_555
C51_4 N12_4 1_555 1_555
H44_4 C51_4 1_555 1_555
C55_4 N18_4 1_555 1_555
H48_4 C55_4 1_555 1_555
C58_4 C66_4 1_555 1_555
C65_4 C46_4 1_555 1_555
H58_4 C65_4 1_555 1_555
C66_4 C55_4 1_555 1_555
H59_4 C66_4 1_555 1_555
H60_4 C67_4 1_555 1_555
H61_4 C67_4 1_555 1_555
C68_4 C65_4 1_555 1_555
C69_4 N21_4 1_555 1_555
C70_4 N18_4 1_555 1_555
H64_4 C70_4 1_555 1_555
C71_4 C58_4 1_555 1_555
C72_4 C51_4 1_555 1_555
C78_4 N21_4 1_555 1_555
H71_4 C78_4 1_555 1_555
C58_4 C69_4 1_555 1_555
C68_4 C72_4 1_555 1_555
C68_4 C78_4 1_555 1_555
C70_4 C71_4 1_555 1_555
Co6 N6_4 1_555 1_555
S3_4 C24_4 1_555 1_555
N25 C5_4 1_555 1_555
N6_4 C18_4 1_555 1_555
N9_4 Co6 1_555 1_555
C2_4 C9_4 1_555 1_555
C5_4 H4_4 1_555 1_555
C9_4 H6_4 1_555 1_555
C10_4 C5_4 1_555 1_555
H7_4 C10_4 1_555 1_555
C17_4 C2_4 1_555 1_555
H13_4 C17_4 1_555 1_555
C18_4 C9_4 1_555 1_555
H14_4 C18_4 1_555 1_555
H17_4 C21_4 1_555 1_555
C24_4 N9_4 1_555 1_555
C34_4 N6_4 1_555 1_555
C37_4 C8_4 1_555 1_555
C38_4 N25 1_555 1_555
H34_4 C38_4 1_555 1_555
N22_4 Co5 1_555 1_555
C75_4 N22_4 1_555 1_555
C2_4 C21_4 1_555 1_555
C8_4 C10_4 1_555 1_555
C17_4 C34_4 1_555 1_555
C37_4 C38_4 1_555 1_555
N11_4 Co5_2 1_555 1_555
C36_4 N11_4 1_555 1_555
Co8 N17_4 1_555 1_555
S6_4 C63_4 1_555 1_555
N26 C44_4 1_555 1_555
N15_4 C43_4 1_555 1_555
N28_2 C52_4 1_555 1_555
N17_4 C57_4 1_555 1_555
N20_4 Co8 1_555 1_555
C40_4 C42_4 1_555 1_555
C41_4 C48_4 1_555 1_555
C42_4 H37_4 1_555 1_555
C43_4 H38_4 1_555 1_555
H39_4 C43_4 1_555 1_555
C44_4 H40_4 1_555 1_555
C47_4 C43_4 1_555 1_555
C48_4 H42_4 1_555 1_555
C49_4 C44_4 1_555 1_555
H43_4 C49_4 1_555 1_555
C52_4 C42_4 1_555 1_555
H45_4 C52_4 1_555 1_555
C54_4 C40_4 1_555 1_555
H47_4 C54_4 1_555 1_555
C56_4 C41_4 1_555 1_555
H49_4 C56_4 1_555 1_555
C57_4 C48_4 1_555 1_555
H50_4 C57_4 1_555 1_555
C59_4 N28_2 1_555 1_555
H51_4 C59_4 1_555 1_555
C60_4 N15_4 1_555 1_555
H52_4 C60_4 1_555 1_555
H53_4 C60_4 1_555 1_555
C61_4 N15_4 1_555 1_555
H54_4 C61_4 1_555 1_555
H55_4 C61_4 1_555 1_555
C63_4 N20_4 1_555 1_555
C73_4 N17_4 1_555 1_555
C76_4 C47_4 1_555 1_555
H69_4 C76_4 1_555 1_555
C77_4 N26 1_555 1_555
H70_4 C77_4 1_555 1_555
C40_4 C61_4 1_555 1_555
C41_4 C60_4 1_555 1_555
C47_4 C49_4 1_555 1_555
C54_4 C59_4 1_555 1_555
C56_4 C73_4 1_555 1_555
C76_4 C77_4 1_555 1_555
N24_2 C62_4 1_555 1_555
C45_4 C53_4 1_555 1_555
C53_4 H46_4 1_555 1_555
C62_4 H56_4 1_555 1_555
C64_4 C45_4 1_555 1_555
H57_4 C64_4 1_555 1_555
C74_4 N24_2 1_555 1_555
H68_4 C74_4 1_555 1_555
C53_4 C74_4 1_555 1_555
C62_4 C64_4 1_555 1_555
N4_4 C4_4 1_555 1_555
N27_2 C13_4 1_555 1_555
C1_4 C3_4 1_555 1_555
C3_4 H1_4 1_555 1_555
C4_4 H2_4 1_555 1_555
H3_4 C4_4 1_555 1_555
C13_4 C3_4 1_555 1_555
H9_4 C13_4 1_555 1_555
C15_4 C1_4 1_555 1_555
H11_4 C15_4 1_555 1_555
C20_4 N27_2 1_555 1_555
H15_4 C20_4 1_555 1_555
C22_4 N4_4 1_555 1_555
H18_4 C22_4 1_555 1_555
H19_4 C22_4 1_555 1_555
C1_4 C22_4 1_555 1_555
C15_4 C20_4 1_555 1_555

#END
