
###############################################################################
#
# This file contains modified crystal structure data generated from the
# MOF subset of the Cambridge Structural Database (CSD) v543 
# hosted by the Cambridge Crystallographic Data Centre (CCDC).
#
# This work is licensed under the Creative Commons
# Attribution-NonCommercial-ShareAlike 4.0 International License.
# To view a copy of this license, visit
# http://creativecommons.org/licenses/by-nc-sa/4.0/
# or send a letter to
# Creative Commons, PO Box 1866, Mountain View, CA 94042, USA.
#
# CIF created using the CSD Python API on 29 September 2022
# The structure has been converted into the P1 space group
# The structure has a 3D framework
# The original CSD entry QADBII is in the orthorhombic crystal system
# The original CSD entry QADBII is in a Sohncke space group
# The framework has been calculated to contain at least 10.0% void space
# The void calculation uses a probe of radius 1.32A, grid spacing 0.4
#
###############################################################################

data_QADBII
_chemical_formula_moiety         '(C64 H104 O16 Sn8)n'
_symmetry_cell_setting           triclinic
_symmetry_space_group_name_H-M   'P 1'
_symmetry_Int_Tables_number      1
_space_group_name_Hall           'P 1'
loop_
_symmetry_equiv_pos_site_id
_symmetry_equiv_pos_as_xyz
1 x,y,z
_cell_length_a                   10.0725(12)
_cell_length_b                   10.2297(13)
_cell_length_c                   23.500(2)
_cell_angle_alpha                90
_cell_angle_beta                 90
_cell_angle_gamma                90
_cell_volume                     2421.41
loop_
_atom_site_label
_atom_site_type_symbol
_atom_site_fract_x
_atom_site_fract_y
_atom_site_fract_z
H5 H 0.0486 0.4593 0.7401
C8 C 0.019(2) 0.282(2) 0.7026(11)
H6 H 0.0994 0.2441 0.7131
Sn1 Sn 0.45274(12) 0.32193(12) 0.76461(5)
Sn2 Sn 0.32601(13) 0.69968(15) 0.52513(5)
O1 O 0.5332(15) 0.5100(13) 0.7155(5)
O2 O 0.6445(12) 0.6802(14) 0.6800(5)
O3 O 0.4911(13) 0.5950(15) 0.5693(5)
O4 O 0.6352(14) 0.6958(16) 0.5116(6)
C1 C 0.616(2) 0.555(2) 0.6802(8)
C2 C 0.677(2) 0.474(2) 0.6370(8)
H1 H 0.6128 0.4072 0.6254
C3 C 0.720(2) 0.551(2) 0.5836(8)
H2 H 0.7881 0.6132 0.5943
H3 H 0.7598 0.4899 0.5567
C4 C 0.610(2) 0.621(2) 0.5549(8)
C5 C 0.799(2) 0.4073(17) 0.6594(8)
C6 C 0.886(2) 0.479(2) 0.6924(10)
H4 H 0.8728 0.5679 0.6988
C7 C 0.992(2) 0.415(2) 0.7154(11)
C9 C 0.924(2) 0.211(2) 0.6742(10)
H7 H 0.9344 0.1217 0.6689
C10 C 0.812(2) 0.2744(18) 0.6534(10)
H8 H 0.7453 0.2265 0.6353
C11 C 0.6465(19) 0.293(2) 0.7941(9)
H9 H 0.6813 0.3735 0.8085
H10 H 0.7013 0.2623 0.7634
H11 H 0.6459 0.2286 0.8240
C12 C 0.384(3) 0.241(3) 0.6852(10)
H12 H 0.4583 0.2313 0.6597
H13 H 0.3199 0.2983 0.6686
H14 H 0.3449 0.1570 0.6920
C13 C 0.328(3) 0.461(2) 0.7995(10)
H15 H 0.3083 0.4377 0.8382
H16 H 0.2476 0.4649 0.7779
H17 H 0.3714 0.5446 0.7988
C14 C 0.188(3) 0.604(3) 0.5796(10)
H18 H 0.1088 0.5829 0.5584
H19 H 0.1651 0.6605 0.6107
H20 H 0.2264 0.5249 0.5941
C15 C 0.356(3) 0.623(3) 0.4463(10)
H21 H 0.2767 0.6315 0.4242
H22 H 0.3795 0.5325 0.4497
H23 H 0.4272 0.6694 0.4279
C16 C 0.396(2) 0.893(2) 0.5497(9)
H24 H 0.4873 0.8871 0.5613
H25 H 0.3433 0.9249 0.5807
H26 H 0.3887 0.9510 0.5179
Sn3 Sn 0.54726(12) 0.82193(12) 0.73539(5)
Sn4 Sn 0.82601(13) 0.80032(15) 0.47487(5)
O5 O 0.3555(12) 0.1802(14) 0.8200(5)
O6 O 0.1352(14) 0.8042(16) 0.4884(6)
Sn1_2 Sn 0.04726(12) 0.67807(12) 0.26461(5)
Sn2_2 Sn 0.17399(13) 0.30032(15) 0.02513(5)
O3_2 O 0.0089(13) 0.4050(15) 0.0693(5)
C12_2 C 0.116(3) 0.759(3) 0.1852(10)
H12_2 H 0.0417 0.7687 0.1597
H13_2 H 0.1801 0.7017 0.1686
H14_2 H 0.1551 0.8430 0.1920
C13_2 C 0.172(3) 0.539(2) 0.2995(10)
H15_2 H 0.1917 0.5623 0.3382
H16_2 H 0.2524 0.5351 0.2779
H17_2 H 0.1286 0.4554 0.2988
C14_2 C 0.312(3) 0.396(3) 0.0796(10)
H18_2 H 0.3912 0.4171 0.0584
H19_2 H 0.3349 0.3395 0.1107
H20_2 H 0.2736 0.4751 0.0941
C16_2 C 0.104(2) 0.107(2) 0.0497(9)
H24_2 H 0.0127 0.1129 0.0613
H25_2 H 0.1567 0.0751 0.0807
H26_2 H 0.1113 0.0490 0.0179
O5_2 O 0.1445(12) 0.8198(14) 0.3200(5)
C15_2 C 0.144(3) 0.377(3) 0.9463(10)
H21_2 H 0.2233 0.3685 0.9242
H22_2 H 0.1205 0.4675 0.9497
H23_2 H 0.0728 0.3306 0.9279
O6_2 O 0.3648(14) 0.1958(16) 0.9884(6)
O1_2 O 0.9668(15) 0.4900(13) 0.2155(5)
O2_2 O 0.8555(12) 0.3198(14) 0.1800(5)
O4_2 O 0.8648(14) 0.3042(16) 0.0116(6)
C1_2 C 0.884(2) 0.445(2) 0.1802(8)
C2_2 C 0.823(2) 0.526(2) 0.1370(8)
H1_2 H 0.8872 0.5928 0.1254
C3_2 C 0.780(2) 0.449(2) 0.0836(8)
H2_2 H 0.7119 0.3868 0.0943
H3_2 H 0.7402 0.5101 0.0567
C4_2 C 0.890(2) 0.379(2) 0.0549(8)
C5_2 C 0.701(2) 0.5927(17) 0.1594(8)
C6_2 C 0.614(2) 0.521(2) 0.1924(10)
H4_2 H 0.6272 0.4321 0.1988
C7_2 C 0.508(2) 0.585(2) 0.2154(11)
H5_2 H 0.4514 0.5407 0.2401
C8_2 C 0.481(2) 0.718(2) 0.2026(11)
H6_2 H 0.4006 0.7559 0.2131
C9_2 C 0.576(2) 0.789(2) 0.1742(10)
H7_2 H 0.5656 0.8783 0.1689
C10_2 C 0.688(2) 0.7256(18) 0.1534(10)
H8_2 H 0.7547 0.7735 0.1353
C11_2 C 0.8535(19) 0.707(2) 0.2941(9)
H9_2 H 0.8187 0.6265 0.3085
H10_2 H 0.7987 0.7377 0.2634
H11_2 H 0.8541 0.7714 0.3240
Sn3_2 Sn 0.95274(12) 0.17807(12) 0.23539(5)
Sn4_2 Sn 0.67399(13) 0.19968(15) 0.97487(5)
C15_3 C 0.644(3) 0.123(3) 0.0537(10)
H21_3 H 0.7233 0.1315 0.0758
H22_3 H 0.6205 0.0325 0.0503
H23_3 H 0.5728 0.1694 0.0721
O1_3 O 0.4668(15) 0.0100(13) 0.7845(5)
O3_3 O 0.5089(13) 0.0950(15) 0.9307(5)
C1_3 C 0.384(2) 0.055(2) 0.8198(8)
C3_3 C 0.280(2) 0.051(2) 0.9164(8)
H2_3 H 0.2119 0.1132 0.9057
C4_3 C 0.390(2) 0.121(2) 0.9451(8)
H4_3 H 0.1272 0.0679 0.8012
H17_3 H 0.6286 0.0446 0.7012
C14_3 C 0.812(3) 0.104(3) 0.9204(10)
H18_3 H 0.8912 0.0829 0.9416
H19_3 H 0.8349 0.1605 0.8893
H20_3 H 0.7736 0.0249 0.9059
C16_3 C 0.604(2) 0.393(2) 0.9503(9)
H24_3 H 0.5127 0.3871 0.9387
H25_3 H 0.6567 0.4249 0.9193
H26_3 H 0.6113 0.4510 0.9821
C2_3 C 0.323(2) 0.974(2) 0.8630(8)
H1_3 H 0.3872 0.9072 0.8746
H3_3 H 0.2402 0.9899 0.9433
C5_3 C 0.201(2) 0.9073(17) 0.8406(8)
C6_3 C 0.114(2) 0.979(2) 0.8076(10)
C7_3 C 0.008(2) 0.915(2) 0.7846(11)
C9_3 C 0.076(2) 0.711(2) 0.8258(10)
H7_3 H 0.0656 0.6217 0.8311
C10_3 C 0.188(2) 0.7744(18) 0.8466(10)
H8_3 H 0.2547 0.7265 0.8647
C11_3 C 0.3535(19) 0.793(2) 0.7059(9)
H9_3 H 0.3187 0.8735 0.6915
H10_3 H 0.2987 0.7623 0.7366
H11_3 H 0.3541 0.7286 0.6760
C12_3 C 0.616(3) 0.741(3) 0.8148(10)
H12_3 H 0.5417 0.7313 0.8403
H13_3 H 0.6801 0.7983 0.8314
H14_3 H 0.6551 0.6570 0.8080
C13_3 C 0.672(3) 0.961(2) 0.7005(10)
H15_3 H 0.6917 0.9377 0.6618
H16_3 H 0.7524 0.9649 0.7221
O1_4 O 0.0332(15) 0.9900(13) 0.2845(5)
C1_4 C 0.116(2) 0.945(2) 0.3198(8)
C3_4 C 0.220(2) 0.949(2) 0.4164(8)
H2_4 H 0.2881 0.8868 0.4057
C4_4 C 0.110(2) 0.879(2) 0.4451(8)
H4_4 H 0.3728 0.9321 0.3012
C12_4 C 0.884(3) 0.259(3) 0.3148(10)
H12_4 H 0.9583 0.2687 0.3403
H13_4 H 0.8199 0.2017 0.3314
H14_4 H 0.8449 0.3430 0.3080
C13_4 C 0.828(3) 0.039(2) 0.2005(10)
H15_4 H 0.8083 0.0623 0.1618
H16_4 H 0.7476 0.0351 0.2221
O3_4 O 0.9911(13) 0.9050(15) 0.4307(5)
H17_4 H 0.8714 0.9554 0.2012
C14_4 C 0.688(3) 0.896(3) 0.4204(10)
H18_4 H 0.6088 0.9171 0.4416
H19_4 H 0.6651 0.8395 0.3893
H20_4 H 0.7264 0.9751 0.4059
C15_4 C 0.856(3) 0.877(3) 0.5537(10)
H21_4 H 0.7767 0.8685 0.5758
H22_4 H 0.8795 0.9675 0.5503
H23_4 H 0.9272 0.8306 0.5721
C16_4 C 0.896(2) 0.607(2) 0.4503(9)
H24_4 H 0.9873 0.6129 0.4387
H25_4 H 0.8433 0.5751 0.4193
H26_4 H 0.8887 0.5490 0.4821
H5_3 H 0.9514 0.9593 0.7599
C8_3 C 0.981(2) 0.782(2) 0.7974(11)
H6_3 H 0.9006 0.7441 0.7869
C2_4 C 0.177(2) 0.026(2) 0.3630(8)
H1_4 H 0.1128 0.0928 0.3746
H3_4 H 0.2598 0.0101 0.4433
C5_4 C 0.299(2) 0.0927(17) 0.3406(8)
C6_4 C 0.386(2) 0.021(2) 0.3076(10)
C7_4 C 0.492(2) 0.085(2) 0.2846(11)
H5_4 H 0.5486 0.0407 0.2599
C8_4 C 0.519(2) 0.218(2) 0.2974(11)
H6_4 H 0.5994 0.2559 0.2869
C9_4 C 0.424(2) 0.289(2) 0.3258(10)
H7_4 H 0.4344 0.3783 0.3311
C10_4 C 0.312(2) 0.2256(18) 0.3466(10)
H8_4 H 0.2453 0.2735 0.3647
C11_4 C 0.1465(19) 0.207(2) 0.2059(9)
H9_4 H 0.1813 0.1265 0.1915
H10_4 H 0.2013 0.2377 0.2366
H11_4 H 0.1459 0.2714 0.1760
loop_
_geom_bond_atom_site_label_1
_geom_bond_atom_site_label_2
_geom_bond_site_symmetry_1
_geom_bond_site_symmetry_2
H6 C8 1_555 1_555
Sn1 O1 1_555 1_555
Sn2 O3 1_555 1_555
O1 C1 1_555 1_555
O2 C1 1_555 1_555
O3 C4 1_555 1_555
O4 C4 1_555 1_555
C1 C2 1_555 1_555
C2 H1 1_555 1_555
C3 C2 1_555 1_555
H2 C3 1_555 1_555
H3 C3 1_555 1_555
C4 C3 1_555 1_555
C5 C2 1_555 1_555
C6 C5 1_555 1_555
H4 C6 1_555 1_555
C7 C6 1_555 1_555
H7 C9 1_555 1_555
C10 C5 1_555 1_555
H8 C10 1_555 1_555
C11 Sn1 1_555 1_555
H9 C11 1_555 1_555
H10 C11 1_555 1_555
H11 C11 1_555 1_555
C12 Sn1 1_555 1_555
H12 C12 1_555 1_555
H13 C12 1_555 1_555
H14 C12 1_555 1_555
C13 Sn1 1_555 1_555
H15 C13 1_555 1_555
H16 C13 1_555 1_555
H17 C13 1_555 1_555
C14 Sn2 1_555 1_555
H18 C14 1_555 1_555
H19 C14 1_555 1_555
H20 C14 1_555 1_555
C15 Sn2 1_555 1_555
H21 C15 1_555 1_555
H22 C15 1_555 1_555
H23 C15 1_555 1_555
C16 Sn2 1_555 1_555
H24 C16 1_555 1_555
H25 C16 1_555 1_555
H26 C16 1_555 1_555
Sn3 O2 1_555 1_555
Sn4 O4 1_555 1_555
O5 Sn1 1_555 1_555
O6 Sn2 1_555 1_555
C9 C10 1_555 1_555
Sn2_2 O3_2 1_555 1_555
C12_2 Sn1_2 1_555 1_555
H12_2 C12_2 1_555 1_555
H13_2 C12_2 1_555 1_555
H14_2 C12_2 1_555 1_555
C13_2 Sn1_2 1_555 1_555
H15_2 C13_2 1_555 1_555
H16_2 C13_2 1_555 1_555
H17_2 C13_2 1_555 1_555
C14_2 Sn2_2 1_555 1_555
H18_2 C14_2 1_555 1_555
H19_2 C14_2 1_555 1_555
H20_2 C14_2 1_555 1_555
C16_2 Sn2_2 1_555 1_555
H24_2 C16_2 1_555 1_555
H25_2 C16_2 1_555 1_555
H26_2 C16_2 1_555 1_555
O5_2 Sn1_2 1_555 1_555
H21_2 C15_2 1_555 1_555
H22_2 C15_2 1_555 1_555
H23_2 C15_2 1_555 1_555
O1_2 C1_2 1_555 1_555
O2_2 C1_2 1_555 1_555
O4_2 C4_2 1_555 1_555
C1_2 C2_2 1_555 1_555
C2_2 H1_2 1_555 1_555
C3_2 C2_2 1_555 1_555
H2_2 C3_2 1_555 1_555
H3_2 C3_2 1_555 1_555
C4_2 C3_2 1_555 1_555
C5_2 C2_2 1_555 1_555
C6_2 C5_2 1_555 1_555
H4_2 C6_2 1_555 1_555
C7_2 C6_2 1_555 1_555
H5_2 C7_2 1_555 1_555
C8_2 C7_2 1_555 1_555
H6_2 C8_2 1_555 1_555
C9_2 C8_2 1_555 1_555
H7_2 C9_2 1_555 1_555
C10_2 C5_2 1_555 1_555
H8_2 C10_2 1_555 1_555
H9_2 C11_2 1_555 1_555
H10_2 C11_2 1_555 1_555
H11_2 C11_2 1_555 1_555
Sn3_2 O2_2 1_555 1_555
C9_2 C10_2 1_555 1_555
H21_3 C15_3 1_555 1_555
H22_3 C15_3 1_555 1_555
H23_3 C15_3 1_555 1_555
Sn4_2 O3_3 1_555 1_555
O1_3 C1_3 1_555 1_555
O5 C1_3 1_555 1_555
O3_3 C4_3 1_555 1_555
O6_2 C4_3 1_555 1_555
H2_3 C3_3 1_555 1_555
C4_3 C3_3 1_555 1_555
C14_3 Sn4_2 1_555 1_555
H18_3 C14_3 1_555 1_555
H19_3 C14_3 1_555 1_555
H20_3 C14_3 1_555 1_555
C16_3 Sn4_2 1_555 1_555
H24_3 C16_3 1_555 1_555
H25_3 C16_3 1_555 1_555
H26_3 C16_3 1_555 1_555
C2_3 H1_3 1_555 1_555
C5_3 C2_3 1_555 1_555
C6_3 C5_3 1_555 1_555
C7_3 C6_3 1_555 1_555
H7_3 C9_3 1_555 1_555
C10_3 C5_3 1_555 1_555
H8_3 C10_3 1_555 1_555
C11_3 Sn3 1_555 1_555
H9_3 C11_3 1_555 1_555
H10_3 C11_3 1_555 1_555
H11_3 C11_3 1_555 1_555
C12_3 Sn3 1_555 1_555
H12_3 C12_3 1_555 1_555
H13_3 C12_3 1_555 1_555
H14_3 C12_3 1_555 1_555
C13_3 Sn3 1_555 1_555
H15_3 C13_3 1_555 1_555
H16_3 C13_3 1_555 1_555
C9_3 C10_3 1_555 1_555
O1_4 C1_4 1_555 1_555
O5_2 C1_4 1_555 1_555
O6 C4_4 1_555 1_555
H2_4 C3_4 1_555 1_555
C4_4 C3_4 1_555 1_555
C12_4 Sn3_2 1_555 1_555
H12_4 C12_4 1_555 1_555
H13_4 C12_4 1_555 1_555
H14_4 C12_4 1_555 1_555
C13_4 Sn3_2 1_555 1_555
H15_4 C13_4 1_555 1_555
H16_4 C13_4 1_555 1_555
Sn4 O3_4 1_555 1_555
C14_4 Sn4 1_555 1_555
H18_4 C14_4 1_555 1_555
H19_4 C14_4 1_555 1_555
H20_4 C14_4 1_555 1_555
C15_4 Sn4 1_555 1_555
H21_4 C15_4 1_555 1_555
H22_4 C15_4 1_555 1_555
H23_4 C15_4 1_555 1_555
C16_4 Sn4 1_555 1_555
H24_4 C16_4 1_555 1_555
H25_4 C16_4 1_555 1_555
H26_4 C16_4 1_555 1_555
H6_3 C8_3 1_555 1_555
C2_4 H1_4 1_555 1_555
C5_4 C2_4 1_555 1_555
C6_4 C5_4 1_555 1_555
C7_4 C6_4 1_555 1_555
H5_4 C7_4 1_555 1_555
C8_4 C7_4 1_555 1_555
H6_4 C8_4 1_555 1_555
C9_4 C8_4 1_555 1_555
H7_4 C9_4 1_555 1_555
C10_4 C5_4 1_555 1_555
H8_4 C10_4 1_555 1_555
H9_4 C11_4 1_555 1_555
H10_4 C11_4 1_555 1_555
H11_4 C11_4 1_555 1_555
C9_4 C10_4 1_555 1_555

#END
