
###############################################################################
#
# This file contains modified crystal structure data generated from the
# MOF subset of the Cambridge Structural Database (CSD) v543 
# hosted by the Cambridge Crystallographic Data Centre (CCDC).
#
# This work is licensed under the Creative Commons
# Attribution-NonCommercial-ShareAlike 4.0 International License.
# To view a copy of this license, visit
# http://creativecommons.org/licenses/by-nc-sa/4.0/
# or send a letter to
# Creative Commons, PO Box 1866, Mountain View, CA 94042, USA.
#
# CIF created using the CSD Python API on 29 September 2022
# The structure has been converted into the P1 space group
# The structure has a 3D framework
# The original CSD entry QADBIK is in the monoclinic crystal system
# The framework has been calculated to contain at least 10.0% void space
# The void calculation uses a probe of radius 1.32A, grid spacing 0.4
#
###############################################################################

data_QADBIK
_chemical_formula_moiety         '(C312 H288 Co14 N88 S24)n'
_symmetry_cell_setting           triclinic
_symmetry_space_group_name_H-M   'P 1'
_symmetry_Int_Tables_number      1
_space_group_name_Hall           'P 1'
loop_
_symmetry_equiv_pos_site_id
_symmetry_equiv_pos_as_xyz
1 x,y,z
_cell_length_a                   15.6580(2)
_cell_length_b                   17.9736(2)
_cell_length_c                   34.6649(4)
_cell_angle_alpha                90
_cell_angle_beta                 96.3780(10)
_cell_angle_gamma                90
_cell_volume                     9695.38
loop_
_atom_site_label
_atom_site_type_symbol
_atom_site_fract_x
_atom_site_fract_y
_atom_site_fract_z
Co5 Co 0.250000 0.48675(2) 0.000000
Co1 Co 0.250000 0.01325(2) 0.500000
Co2 Co 0.26167(2) 0.48965(2) 0.73151(2)
S2 S 0.23400(4) 0.61564(4) 0.60826(2)
S3 S 0.27235(4) 0.31042(4) 0.83231(2)
N1 N 0.17633(10) 0.57415(9) 0.96773(4)
N2 N 0.06086(10) 0.72470(9) 0.85582(5)
N3 N 0.52078(10) 0.24761(8) 0.63163(4)
N4 N 0.33253(11) 0.09469(9) 0.53275(4)
N6 N 0.34810(10) 0.43669(8) 0.69707(5)
N7 N 0.16532(11) 0.01062(9) 0.54234(5)
N8 N 0.22502(11) 0.56036(9) 0.68319(5)
N9 N 0.17155(10) 0.54170(9) 0.76590(5)
N10 N 0.30113(10) 0.41861(9) 0.77721(5)
N11 N 0.64945(10) 0.07857(8) 0.74432(5)
C1 C 0.60262(12) 0.19430(10) 0.69153(5)
C2 C 0.56580(11) 0.12425(10) 0.68706(5)
H1 H 0.524007 0.114657 0.666442
C3 C 0.59173(11) 0.06841(10) 0.71358(5)
H2 H 0.567429 0.021435 0.709619
C4 C 0.44275(12) 0.36087(10) 0.64556(5)
C6 C 0.54640(12) 0.20203(11) 0.59990(5)
H3 H 0.584159 0.162514 0.610504
H4 H 0.578017 0.232500 0.583263
C7 C 0.39847(13) 0.47314(10) 0.67463(6)
H5 H 0.401312 0.524725 0.676471
C8 C 0.39240(12) 0.32322(10) 0.66962(6)
H6 H 0.389670 0.271542 0.668913
C9 C 0.07042(12) 0.78948(11) 0.83130(6)
H7 H 0.097025 0.773311 0.808763
H8 H 0.109807 0.823877 0.845622
C10 C 0.46937(12) 0.16856(10) 0.57619(5)
C11 C 0.59050(12) 0.25738(10) 0.66307(5)
H9 H 0.579625 0.302422 0.677144
H10 H 0.643751 0.264559 0.651686
C12 C 0.14351(12) 0.00442(10) 0.57318(6)
C13 C 0.48974(12) 0.32020(10) 0.61663(5)
H11 H 0.451658 0.313067 0.592876
H12 H 0.538147 0.349940 0.610507
C14 C 0.22811(12) 0.58338(11) 0.65199(6)
C15 C 0.09681(12) 0.57106(11) 0.75029(6)
H13 H 0.080867 0.564616 0.723849
C17 C 0.44621(12) 0.43815(10) 0.64900(6)
H15 H 0.480521 0.465806 0.634077
C18 C 0.65713(13) 0.20609(11) 0.72558(6)
H16 H 0.679410 0.253300 0.731230
C19 C 0.40214(13) 0.13730(12) 0.59354(6)
H17 H 0.401329 0.140994 0.620259
C20 C 0.21768(13) 0.62875(11) 0.95093(6)
H18 H 0.277394 0.629896 0.954835
C21 C 0.04236(12) 0.61038(11) 0.77153(6)
C23 C 0.06460(12) 0.62106(10) 0.81092(6)
C24 C 0.34655(12) 0.36208(10) 0.69450(6)
H21 H 0.312957 0.335632 0.710260
C26 C 0.33654(13) 0.10079(11) 0.57136(5)
H23 H 0.293025 0.079394 0.583836
C27 C 0.01005(12) 0.66511(11) 0.83595(6)
C28 C 0.08612(14) 0.68281(11) 0.92200(5)
C29 C 0.09060(13) 0.57422(12) 0.96198(6)
H26 H 0.061024 0.537035 0.973599
C31 C 0.17537(14) 0.68322(11) 0.92814(6)
H28 H 0.206392 0.719986 0.916952
C32 C 0.19217(13) 0.55073(12) 0.80433(6)
H29 H 0.242875 0.529601 0.815912
C33 C 0.14183(13) 0.58966(12) 0.82717(6)
H30 H 0.159158 0.595167 0.853560
C34 C 0.28977(12) 0.37337(11) 0.80009(6)
C35 C 0.67808(13) 0.14859(11) 0.75076(6)
H31 H 0.713851 0.158383 0.773434
C36 C 0.04347(14) 0.62703(12) 0.93952(6)
C37 C 0.46306(16) 0.16535(13) 0.53629(6)
H33 H 0.504805 0.187690 0.523076
C38 C 0.04020(15) 0.73996(12) 0.89514(6)
H35 H 0.058915 0.789673 0.903008
C39 C 0.39473(16) 0.12895(13) 0.51597(6)
H36 H 0.391679 0.128154 0.489022
Co3 Co 0.23833(2) 0.48965(2) 0.26849(2)
S5 S 0.26600(4) 0.61564(4) 0.39174(2)
S6 S 0.22765(4) 0.31042(4) 0.16769(2)
N12 N 0.32367(10) 0.57415(9) 0.03227(4)
N13 N 0.43914(10) 0.72470(9) 0.14418(5)
N15 N 0.16747(11) 0.09469(9) 0.46725(4)
N16 N 0.65864(10) 0.91303(9) 0.20971(5)
N17 N 0.15190(10) 0.43669(8) 0.30293(5)
N18 N 0.33468(11) 0.01062(9) 0.45766(5)
N19 N 0.27498(11) 0.56036(9) 0.31681(5)
N20 N 0.32845(10) 0.54170(9) 0.23410(5)
N21 N 0.19887(10) 0.41861(9) 0.22279(5)
C43 C 0.05725(12) 0.36087(10) 0.35444(5)
C44 C 0.51099(12) 0.83154(10) 0.18278(6)
C46 C 0.10153(13) 0.47314(10) 0.32537(6)
H41 H 0.098688 0.524725 0.323529
C47 C 0.10760(12) 0.32322(10) 0.33038(6)
H42 H 0.110330 0.271542 0.331087
C48 C 0.42958(12) 0.78948(11) 0.16870(6)
H43 H 0.402975 0.773311 0.191237
H44 H 0.390193 0.823877 0.154378
C49 C 0.03063(12) 0.16856(10) 0.42381(5)
C51 C 0.35649(12) 0.00442(10) 0.42682(6)
C52 C 0.01026(12) 0.32020(10) 0.38337(5)
H47 H 0.048342 0.313067 0.407124
C53 C 0.27189(12) 0.58338(11) 0.34801(6)
C54 C 0.40319(12) 0.57106(11) 0.24971(6)
H49 H 0.419133 0.564616 0.276151
C55 C 0.54238(12) 0.83288(12) 0.22173(6)
H50 H 0.514807 0.806022 0.239644
C56 C 0.05379(12) 0.43815(10) 0.35100(6)
H51 H 0.019479 0.465806 0.365923
C58 C 0.09786(13) 0.13730(12) 0.40646(6)
H53 H 0.098671 0.140994 0.379741
C59 C 0.28232(13) 0.62875(11) 0.04907(6)
H54 H 0.222606 0.629896 0.045165
C60 C 0.45764(12) 0.61038(11) 0.22847(6)
H55 H 0.508945 0.629560 0.240552
C61 C 0.55685(13) 0.87133(10) 0.15759(6)
H56 H 0.538569 0.871870 0.131132
C62 C 0.43540(12) 0.62106(10) 0.18908(6)
C63 C 0.15345(12) 0.36208(10) 0.30550(6)
H57 H 0.187043 0.335632 0.289740
C64 C 0.61493(13) 0.87430(12) 0.23392(6)
H58 H 0.634194 0.875219 0.260280
C65 C 0.16346(13) 0.10079(11) 0.42864(5)
H59 H 0.206975 0.079394 0.416164
C66 C 0.48995(12) 0.66511(11) 0.16405(6)
H60 H 0.538732 0.686203 0.180053
H61 H 0.511605 0.632513 0.145063
C67 C 0.41388(14) 0.68281(11) 0.07800(5)
C68 C 0.40940(13) 0.57422(12) 0.03802(6)
H62 H 0.438976 0.537035 0.026401
C69 C 0.62961(13) 0.91006(11) 0.17192(6)
H63 H 0.660030 0.935381 0.154454
C70 C 0.32463(14) 0.68322(11) 0.07186(6)
H64 H 0.293608 0.719986 0.083048
C71 C 0.30783(13) 0.55073(12) 0.19567(6)
H65 H 0.257125 0.529601 0.184088
C72 C 0.35817(13) 0.58966(12) 0.17283(6)
H66 H 0.340842 0.595167 0.146440
C73 C 0.21023(12) 0.37337(11) 0.19991(6)
C75 C 0.45653(14) 0.62703(12) 0.06048(6)
H68 H 0.516245 0.624929 0.063712
C76 C 0.03694(16) 0.16535(13) 0.46371(6)
C77 C 0.45980(15) 0.73996(12) 0.10486(6)
H70 H 0.521363 0.736699 0.103916
H71 H 0.441085 0.789673 0.096992
C78 C 0.10527(16) 0.12895(13) 0.48403(6)
H72 H 0.108321 0.128154 0.510978
Co5_2 Co 0.250000 0.48675(2) 1.000000
Co7 Co 0.76167(2) 0.98965(2) 0.23151(2)
N25 N 0.34136(10) 0.41303(9) 0.29029(5)
N26 N 0.15864(10) 0.41303(9) 0.70971(5)
N27 N 0.14945(10) 0.57857(8) 0.24432(5)
N28 N 0.35055(10) 0.57857(8) 0.75568(5)
S1 S 0.11508(4) 0.99678(3) 0.61668(2)
S4 S 0.38492(4) 0.99678(3) 0.38332(2)
Co9 Co 0.73833(2) 0.98965(2) 0.76849(2)
N23 N 0.32367(10) 0.92585(9) 0.53227(4)
N24 N 0.17633(10) 0.92585(9) 0.46773(4)
N5 N 0.84136(10) 0.91303(9) 0.79029(5)
C5 C 0.98901(12) 0.83154(10) 0.81722(6)
C16 C 0.95762(12) 0.83288(12) 0.77827(6)
H14 H 0.985193 0.806022 0.760356
H19 H 0.991055 0.629560 0.759448
C22 C 0.94315(13) 0.87133(10) 0.84241(6)
H20 H 0.961431 0.871870 0.868868
C25 C 0.88507(13) 0.87430(12) 0.76608(6)
H22 H 0.865806 0.875219 0.739720
H24 H 0.961268 0.686203 0.819947
H25 H 0.988395 0.632513 0.854937
C30 C 0.87039(13) 0.91006(11) 0.82808(6)
H27 H 0.839970 0.935381 0.845546
H32 H 0.983755 0.624929 0.936288
H34 H 0.978637 0.736699 0.896084
N14 N 0.97922(10) 0.24761(8) 0.36837(4)
N22 N 0.85055(10) 0.07857(8) 0.25568(5)
C40 C 0.89738(12) 0.19430(10) 0.30847(5)
C41 C 0.93420(11) 0.12425(10) 0.31294(5)
H37 H 0.975993 0.114657 0.333558
C42 C 0.90827(11) 0.06841(10) 0.28642(5)
H38 H 0.932571 0.021435 0.290381
C45 C 0.95360(12) 0.20203(11) 0.40010(5)
H39 H 0.915841 0.162514 0.389496
H40 H 0.921983 0.232500 0.416737
C50 C 0.90950(12) 0.25738(10) 0.33693(5)
H45 H 0.920375 0.302422 0.322856
H46 H 0.856249 0.264559 0.348314
H48 H 0.961853 0.349940 0.389493
C57 C 0.84287(13) 0.20609(11) 0.27442(6)
H52 H 0.820590 0.253300 0.268770
C74 C 0.82192(13) 0.14859(11) 0.24924(6)
H67 H 0.786149 0.158383 0.226566
H69 H 0.995195 0.187690 0.476924
C44_2 C 0.01099(12) 0.33154(10) 0.68278(6)
C55_2 C 0.04238(12) 0.33288(12) 0.72173(6)
H50_2 H 0.014807 0.306022 0.739644
H55_2 H 0.008945 0.129560 0.740552
C61_2 C 0.05685(13) 0.37133(10) 0.65759(6)
H56_2 H 0.038569 0.371870 0.631132
C64_2 C 0.11493(13) 0.37430(12) 0.73392(6)
H58_2 H 0.134194 0.375219 0.760280
H60_2 H 0.038732 0.186203 0.680053
H61_2 H 0.011605 0.132513 0.645063
C69_2 C 0.12961(13) 0.41006(11) 0.67192(6)
H63_2 H 0.160030 0.435381 0.654454
H68_2 H 0.016245 0.124929 0.563712
H70_2 H 0.021363 0.236699 0.603916
N3_2 N 0.02078(10) 0.74761(8) 0.13163(4)
C1_2 C 0.10262(12) 0.69430(10) 0.19153(5)
C2_2 C 0.06580(11) 0.62425(10) 0.18706(5)
H1_2 H 0.024007 0.614657 0.166442
C3_2 C 0.09173(11) 0.56841(10) 0.21358(5)
H2_2 H 0.067429 0.521435 0.209619
C6_2 C 0.04640(12) 0.70203(11) 0.09990(5)
H3_2 H 0.084159 0.662514 0.110504
H4_2 H 0.078017 0.732500 0.083263
C11_2 C 0.09050(12) 0.75738(10) 0.16307(5)
H9_2 H 0.079625 0.802422 0.177144
H10_2 H 0.143751 0.764559 0.151686
H12_2 H 0.038147 0.849940 0.110507
C18_2 C 0.15713(13) 0.70609(11) 0.22558(6)
H16_2 H 0.179410 0.753300 0.231230
C35_2 C 0.17808(13) 0.64859(11) 0.25076(6)
H31_2 H 0.213851 0.658383 0.273434
H33_2 H 0.004805 0.687690 0.023076
S2_2 S 0.73400(4) 0.11564(4) 0.10826(2)
N1_2 N 0.67633(10) 0.07415(9) 0.46773(4)
N2_2 N 0.56086(10) 0.22470(9) 0.35582(5)
N8_2 N 0.72502(11) 0.06036(9) 0.18319(5)
N9_2 N 0.67155(10) 0.04170(9) 0.26590(5)
C5_2 C 0.48901(12) 0.33154(10) 0.31722(6)
H5_2 H 0.901312 0.024725 0.176471
C9_2 C 0.57042(12) 0.28948(11) 0.33130(6)
H7_2 H 0.597025 0.273311 0.308763
H8_2 H 0.609807 0.323877 0.345622
C14_2 C 0.72811(12) 0.08338(11) 0.15199(6)
C15_2 C 0.59681(12) 0.07106(11) 0.25029(6)
H13_2 H 0.580867 0.064616 0.223849
C16_2 C 0.45762(12) 0.33288(12) 0.27827(6)
H14_2 H 0.485193 0.306022 0.260356
C20_2 C 0.71768(13) 0.12875(11) 0.45093(6)
H18_2 H 0.777394 0.129896 0.454835
C21_2 C 0.54236(12) 0.11038(11) 0.27153(6)
H19_2 H 0.491055 0.129560 0.259448
C22_2 C 0.44315(13) 0.37133(10) 0.34241(6)
H20_2 H 0.461431 0.371870 0.368868
C23_2 C 0.56460(12) 0.12106(10) 0.31092(6)
C25_2 C 0.38507(13) 0.37430(12) 0.26608(6)
H22_2 H 0.365806 0.375219 0.239720
C27_2 C 0.51005(12) 0.16511(11) 0.33595(6)
H24_2 H 0.461268 0.186203 0.319947
H25_2 H 0.488395 0.132513 0.354937
C28_2 C 0.58612(14) 0.18281(11) 0.42200(5)
C29_2 C 0.59060(13) 0.07422(12) 0.46198(6)
H26_2 H 0.561024 0.037035 0.473599
C30_2 C 0.37039(13) 0.41006(11) 0.32808(6)
H27_2 H 0.339970 0.435381 0.345546
C31_2 C 0.67537(14) 0.18322(11) 0.42814(6)
H28_2 H 0.706392 0.219986 0.416952
C32_2 C 0.69217(13) 0.05073(12) 0.30433(6)
H29_2 H 0.742875 0.029601 0.315912
C33_2 C 0.64183(13) 0.08966(12) 0.32717(6)
H30_2 H 0.659158 0.095167 0.353560
C36_2 C 0.54347(14) 0.12703(12) 0.43952(6)
H32_2 H 0.483755 0.124929 0.436288
C38_2 C 0.54020(15) 0.23996(12) 0.39514(6)
H34_2 H 0.478637 0.236699 0.396084
H35_2 H 0.558915 0.289673 0.403008
S5_2 S 0.76600(4) 0.11564(4) 0.89174(2)
N12_2 N 0.82367(10) 0.07415(9) 0.53227(4)
N13_2 N 0.93914(10) 0.22470(9) 0.64418(5)
N19_2 N 0.77498(11) 0.06036(9) 0.81681(5)
N20_2 N 0.82845(10) 0.04170(9) 0.73410(5)
H41_2 H 0.598688 0.024725 0.823529
C48_2 C 0.92958(12) 0.28948(11) 0.66870(6)
H43_2 H 0.902975 0.273311 0.691237
H44_2 H 0.890193 0.323877 0.654378
C53_2 C 0.77189(12) 0.08338(11) 0.84801(6)
C54_2 C 0.90319(12) 0.07106(11) 0.74971(6)
H49_2 H 0.919133 0.064616 0.776151
C59_2 C 0.78232(13) 0.12875(11) 0.54907(6)
H54_2 H 0.722606 0.129896 0.545165
C60_2 C 0.95764(12) 0.11038(11) 0.72847(6)
C62_2 C 0.93540(12) 0.12106(10) 0.68908(6)
C66_2 C 0.98995(12) 0.16511(11) 0.66405(6)
C67_2 C 0.91388(14) 0.18281(11) 0.57800(5)
C68_2 C 0.90940(13) 0.07422(12) 0.53802(6)
H62_2 H 0.938976 0.037035 0.526401
C70_2 C 0.82463(14) 0.18322(11) 0.57186(6)
H64_2 H 0.793608 0.219986 0.583048
C71_2 C 0.80783(13) 0.05073(12) 0.69567(6)
H65_2 H 0.757125 0.029601 0.684088
C72_2 C 0.85817(13) 0.08966(12) 0.67283(6)
H66_2 H 0.840842 0.095167 0.646440
C75_2 C 0.95653(14) 0.12703(12) 0.56048(6)
C77_2 C 0.95980(15) 0.23996(12) 0.60486(6)
H71_2 H 0.941085 0.289673 0.596992
Co1_2 Co 0.750000 0.51325(2) 0.000000
S1_2 S 0.61508(4) 0.49678(3) 0.11668(2)
S3_2 S 0.77235(4) 0.81042(4) 0.33231(2)
N4_2 N 0.83253(11) 0.59469(9) 0.03275(4)
N6_2 N 0.84810(10) 0.93669(8) 0.19707(5)
N7_2 N 0.66532(11) 0.51062(9) 0.04234(5)
N10_2 N 0.80113(10) 0.91861(9) 0.27721(5)
C4_2 C 0.94275(12) 0.86087(10) 0.14556(5)
C7_2 C 0.89847(13) 0.97314(10) 0.17463(6)
C8_2 C 0.89240(12) 0.82322(10) 0.16962(6)
H6_2 H 0.889670 0.771542 0.168913
C10_2 C 0.96937(12) 0.66856(10) 0.07619(5)
C12_2 C 0.64351(12) 0.50442(10) 0.07318(6)
C13_2 C 0.98974(12) 0.82020(10) 0.11663(5)
H11_2 H 0.951658 0.813067 0.092876
C17_2 C 0.94621(12) 0.93815(10) 0.14900(6)
H15_2 H 0.980521 0.965806 0.134077
C19_2 C 0.90214(13) 0.63730(12) 0.09354(6)
H17_2 H 0.901329 0.640994 0.120259
C24_2 C 0.84655(12) 0.86208(10) 0.19450(6)
H21_2 H 0.812957 0.835632 0.210260
C26_2 C 0.83654(13) 0.60079(11) 0.07136(5)
H23_2 H 0.793025 0.579394 0.083836
C34_2 C 0.78977(12) 0.87337(11) 0.30009(6)
C37_2 C 0.96306(16) 0.66535(13) 0.03629(6)
C39_2 C 0.89473(16) 0.62895(13) 0.01597(6)
H72_2 H 0.608321 0.628154 0.010978
Co5_3 Co 0.750000 0.98675(2) 0.500000
N23_2 N 0.82367(10) 0.42585(9) 0.03227(4)
Co1_3 Co 0.750000 0.51325(2) 1.000000
H36_2 H 0.891679 0.628154 0.989022
S4_2 S 0.88492(4) 0.49678(3) 0.88332(2)
S6_2 S 0.72765(4) 0.81042(4) 0.66769(2)
N14_2 N 0.47922(10) 0.74761(8) 0.86837(4)
N15_2 N 0.66747(11) 0.59469(9) 0.96725(4)
N17_2 N 0.65190(10) 0.93669(8) 0.80293(5)
N18_2 N 0.83468(11) 0.51062(9) 0.95766(5)
N21_2 N 0.69887(10) 0.91861(9) 0.72279(5)
C40_2 C 0.39738(12) 0.69430(10) 0.80847(5)
C41_2 C 0.43420(11) 0.62425(10) 0.81294(5)
H37_2 H 0.475993 0.614657 0.833558
C42_2 C 0.40827(11) 0.56841(10) 0.78642(5)
H38_2 H 0.432571 0.521435 0.790381
C43_2 C 0.55725(12) 0.86087(10) 0.85444(5)
C45_2 C 0.45360(12) 0.70203(11) 0.90010(5)
H39_2 H 0.415841 0.662514 0.889496
H40_2 H 0.421983 0.732500 0.916737
C46_2 C 0.60153(13) 0.97314(10) 0.82537(6)
C47_2 C 0.60760(12) 0.82322(10) 0.83038(6)
H42_2 H 0.610330 0.771542 0.831087
C49_2 C 0.53063(12) 0.66856(10) 0.92381(5)
C50_2 C 0.40950(12) 0.75738(10) 0.83693(5)
H45_2 H 0.420375 0.802422 0.822856
H46_2 H 0.356249 0.764559 0.848314
C51_2 C 0.85649(12) 0.50442(10) 0.92682(6)
C52_2 C 0.51026(12) 0.82020(10) 0.88337(5)
H47_2 H 0.548342 0.813067 0.907124
H48_2 H 0.461853 0.849940 0.889493
C56_2 C 0.55379(12) 0.93815(10) 0.85100(6)
H51_2 H 0.519479 0.965806 0.865923
C57_2 C 0.34287(13) 0.70609(11) 0.77442(6)
H52_2 H 0.320590 0.753300 0.768770
C58_2 C 0.59786(13) 0.63730(12) 0.90646(6)
H53_2 H 0.598671 0.640994 0.879741
C63_2 C 0.65345(12) 0.86208(10) 0.80550(6)
H57_2 H 0.687043 0.835632 0.789740
C65_2 C 0.66346(13) 0.60079(11) 0.92864(5)
H59_2 H 0.706975 0.579394 0.916164
C73_2 C 0.71023(12) 0.87337(11) 0.69991(6)
C74_2 C 0.32192(13) 0.64859(11) 0.74924(6)
H67_2 H 0.286149 0.658383 0.726566
C76_2 C 0.53694(16) 0.66535(13) 0.96371(6)
H69_2 H 0.495195 0.687690 0.976924
C78_2 C 0.60527(16) 0.62895(13) 0.98403(6)
N24_2 N 0.67633(10) 0.42585(9) 0.96773(4)
Co6 Co 0.23833(2) 0.01035(2) 0.76849(2)
N5_2 N 0.15864(10) 0.08697(9) 0.20971(5)
C5_3 C 0.01099(12) 0.16846(10) 0.18278(6)
C16_3 C 0.04238(12) 0.16712(12) 0.22173(6)
H14_3 H 0.014807 0.193978 0.239644
H19_3 H 0.008945 0.370440 0.240552
C22_3 C 0.05685(13) 0.12867(10) 0.15759(6)
H20_3 H 0.038569 0.128130 0.131132
C25_3 C 0.11493(13) 0.12570(12) 0.23392(6)
H22_3 H 0.134194 0.124781 0.260280
H24_3 H 0.038732 0.313797 0.180053
H25_3 H 0.011605 0.367487 0.145063
C30_3 C 0.12961(13) 0.08994(11) 0.17192(6)
H27_3 H 0.160030 0.064619 0.154454
H32_3 H 0.016245 0.375071 0.063712
H34_3 H 0.021363 0.263301 0.103916
N14_3 N 0.02078(10) 0.75239(8) 0.63163(4)
N22_2 N 0.14945(10) 0.92143(8) 0.74432(5)
C40_3 C 0.10262(12) 0.80570(10) 0.69153(5)
C41_3 C 0.06580(11) 0.87575(10) 0.68706(5)
H37_3 H 0.024007 0.885343 0.666442
C42_3 C 0.09173(11) 0.93159(10) 0.71358(5)
H38_3 H 0.067429 0.978565 0.709619
C45_3 C 0.04640(12) 0.79797(11) 0.59990(5)
H39_3 H 0.084159 0.837486 0.610504
H40_3 H 0.078017 0.767500 0.583263
C50_3 C 0.09050(12) 0.74262(10) 0.66307(5)
H45_3 H 0.079625 0.697578 0.677144
H46_3 H 0.143751 0.735441 0.651686
H48_3 H 0.038147 0.650060 0.610507
C57_3 C 0.15713(13) 0.79391(11) 0.72558(6)
H52_3 H 0.179410 0.746700 0.731230
C74_3 C 0.17808(13) 0.85141(11) 0.75076(6)
H67_3 H 0.213851 0.841617 0.773434
H69_3 H 0.004805 0.812310 0.523076
Co8 Co 0.26167(2) 0.01035(2) 0.23151(2)
S1_3 S 0.88492(4) 0.00322(3) 0.38332(2)
S4_3 S 0.61508(4) 0.00322(3) 0.61668(2)
Co2_2 Co 0.73833(2) 0.51035(2) 0.26849(2)
S2_3 S 0.76600(4) 0.38436(4) 0.39174(2)
S3_3 S 0.72765(4) 0.68958(4) 0.16769(2)
N2_3 N 0.93914(10) 0.27530(9) 0.14418(5)
N3_3 N 0.47922(10) 0.75239(8) 0.36837(4)
N4_3 N 0.66747(11) 0.90531(9) 0.46725(4)
N6_3 N 0.65190(10) 0.56331(8) 0.30293(5)
N7_3 N 0.83468(11) 0.98938(9) 0.45766(5)
N8_3 N 0.77498(11) 0.43964(9) 0.31681(5)
N9_3 N 0.82845(10) 0.45830(9) 0.23410(5)
N10_3 N 0.69887(10) 0.58139(9) 0.22279(5)
N11_2 N 0.35055(10) 0.92143(8) 0.25568(5)
C1_3 C 0.39738(12) 0.80570(10) 0.30847(5)
C2_3 C 0.43420(11) 0.87575(10) 0.31294(5)
H1_3 H 0.475993 0.885343 0.333558
C3_3 C 0.40827(11) 0.93159(10) 0.28642(5)
H2_3 H 0.432571 0.978565 0.290381
C4_3 C 0.55725(12) 0.63913(10) 0.35444(5)
C6_3 C 0.45360(12) 0.79797(11) 0.40010(5)
H3_3 H 0.415841 0.837486 0.389496
H4_3 H 0.421983 0.767500 0.416737
C7_3 C 0.60153(13) 0.52686(10) 0.32537(6)
H5_3 H 0.598688 0.475275 0.323529
C8_3 C 0.60760(12) 0.67678(10) 0.33038(6)
H6_3 H 0.610330 0.728458 0.331087
C9_3 C 0.92958(12) 0.21052(11) 0.16870(6)
H7_3 H 0.902975 0.226689 0.191237
H8_3 H 0.890193 0.176123 0.154378
C10_3 C 0.53063(12) 0.83144(10) 0.42381(5)
C11_3 C 0.40950(12) 0.74262(10) 0.33693(5)
H9_3 H 0.420375 0.697578 0.322856
H10_3 H 0.356249 0.735441 0.348314
C12_3 C 0.85649(12) 0.99558(10) 0.42682(6)
C13_3 C 0.51026(12) 0.67980(10) 0.38337(5)
H11_3 H 0.548342 0.686933 0.407124
H12_3 H 0.461853 0.650060 0.389493
C14_3 C 0.77189(12) 0.41662(11) 0.34801(6)
C15_3 C 0.90319(12) 0.42894(11) 0.24971(6)
H13_3 H 0.919133 0.435384 0.276151
C17_3 C 0.55379(12) 0.56185(10) 0.35100(6)
H15_3 H 0.519479 0.534194 0.365923
C18_3 C 0.34287(13) 0.79391(11) 0.27442(6)
H16_3 H 0.320590 0.746700 0.268770
C19_3 C 0.59786(13) 0.86270(12) 0.40646(6)
H17_3 H 0.598671 0.859006 0.379741
C20_3 C 0.78232(13) 0.37125(11) 0.04907(6)
H18_3 H 0.722606 0.370104 0.045165
C21_3 C 0.95764(12) 0.38962(11) 0.22847(6)
C23_3 C 0.93540(12) 0.37894(10) 0.18908(6)
C24_3 C 0.65345(12) 0.63792(10) 0.30550(6)
H21_3 H 0.687043 0.664368 0.289740
C26_3 C 0.66346(13) 0.89921(11) 0.42864(5)
H23_3 H 0.706975 0.920606 0.416164
C27_3 C 0.98995(12) 0.33489(11) 0.16405(6)
C28_3 C 0.91388(14) 0.31719(11) 0.07800(5)
C29_3 C 0.90940(13) 0.42578(12) 0.03802(6)
H26_3 H 0.938976 0.462965 0.026401
C31_3 C 0.82463(14) 0.31678(11) 0.07186(6)
H28_3 H 0.793608 0.280014 0.083048
C32_3 C 0.80783(13) 0.44927(12) 0.19567(6)
H29_3 H 0.757125 0.470399 0.184088
C33_3 C 0.85817(13) 0.41034(12) 0.17283(6)
H30_3 H 0.840842 0.404833 0.146440
C34_3 C 0.71023(12) 0.62663(11) 0.19991(6)
C35_3 C 0.32192(13) 0.85141(11) 0.24924(6)
H31_3 H 0.286149 0.841617 0.226566
C36_3 C 0.95653(14) 0.37297(12) 0.06048(6)
C37_3 C 0.53694(16) 0.83465(13) 0.46371(6)
H33_3 H 0.495195 0.812310 0.476924
C38_3 C 0.95980(15) 0.26004(12) 0.10486(6)
H35_3 H 0.941085 0.210327 0.096992
C39_3 C 0.60527(16) 0.87105(13) 0.48403(6)
H36_3 H 0.608321 0.871846 0.510978
Co3_2 Co 0.76167(2) 0.51035(2) 0.73151(2)
S5_3 S 0.73400(4) 0.38436(4) 0.60826(2)
S6_3 S 0.77235(4) 0.68958(4) 0.83231(2)
N13_3 N 0.56086(10) 0.27530(9) 0.85582(5)
N15_3 N 0.83253(11) 0.90531(9) 0.53275(4)
N16_2 N 0.34136(10) 0.08697(9) 0.79029(5)
N17_3 N 0.84810(10) 0.56331(8) 0.69707(5)
N18_3 N 0.66532(11) 0.98938(9) 0.54234(5)
N19_3 N 0.72502(11) 0.43964(9) 0.68319(5)
N20_3 N 0.67155(10) 0.45830(9) 0.76590(5)
N21_3 N 0.80113(10) 0.58139(9) 0.77721(5)
C43_3 C 0.94275(12) 0.63913(10) 0.64556(5)
C44_3 C 0.48901(12) 0.16846(10) 0.81722(6)
C46_3 C 0.89847(13) 0.52686(10) 0.67463(6)
H41_3 H 0.901312 0.475275 0.676471
C47_3 C 0.89240(12) 0.67678(10) 0.66962(6)
H42_3 H 0.889670 0.728458 0.668913
C48_3 C 0.57042(12) 0.21052(11) 0.83130(6)
H43_3 H 0.597025 0.226689 0.808763
H44_3 H 0.609807 0.176123 0.845622
C49_3 C 0.96937(12) 0.83144(10) 0.57619(5)
C51_3 C 0.64351(12) 0.99558(10) 0.57318(6)
C52_3 C 0.98974(12) 0.67980(10) 0.61663(5)
H47_3 H 0.951658 0.686933 0.592876
C53_3 C 0.72811(12) 0.41662(11) 0.65199(6)
C54_3 C 0.59681(12) 0.42894(11) 0.75029(6)
H49_3 H 0.580867 0.435384 0.723849
C55_3 C 0.45762(12) 0.16712(12) 0.77827(6)
H50_3 H 0.485193 0.193978 0.760356
C56_3 C 0.94621(12) 0.56185(10) 0.64900(6)
H51_3 H 0.980521 0.534194 0.634077
C58_3 C 0.90214(13) 0.86270(12) 0.59354(6)
H53_3 H 0.901329 0.859006 0.620259
C59_3 C 0.71768(13) 0.37125(11) 0.95093(6)
H54_3 H 0.777394 0.370104 0.954835
C60_3 C 0.54236(12) 0.38962(11) 0.77153(6)
H55_3 H 0.491055 0.370440 0.759448
C61_3 C 0.44315(13) 0.12867(10) 0.84241(6)
H56_3 H 0.461431 0.128130 0.868868
C62_3 C 0.56460(12) 0.37894(10) 0.81092(6)
C63_3 C 0.84655(12) 0.63792(10) 0.69450(6)
H57_3 H 0.812957 0.664368 0.710260
C64_3 C 0.38507(13) 0.12570(12) 0.76608(6)
H58_3 H 0.365806 0.124781 0.739720
C65_3 C 0.83654(13) 0.89921(11) 0.57136(5)
H59_3 H 0.793025 0.920606 0.583836
C66_3 C 0.51005(12) 0.33489(11) 0.83595(6)
H60_3 H 0.461268 0.313797 0.819947
H61_3 H 0.488395 0.367487 0.854937
C67_3 C 0.58612(14) 0.31719(11) 0.92200(5)
C68_3 C 0.59060(13) 0.42578(12) 0.96198(6)
H62_3 H 0.561024 0.462965 0.973599
C69_3 C 0.37039(13) 0.08994(11) 0.82808(6)
H63_3 H 0.339970 0.064619 0.845546
C70_3 C 0.67537(14) 0.31678(11) 0.92814(6)
H64_3 H 0.706392 0.280014 0.916952
C71_3 C 0.69217(13) 0.44927(12) 0.80433(6)
H65_3 H 0.742875 0.470399 0.815912
C72_3 C 0.64183(13) 0.41034(12) 0.82717(6)
H66_3 H 0.659158 0.404833 0.853560
C73_3 C 0.78977(12) 0.62663(11) 0.80009(6)
C75_3 C 0.54347(14) 0.37297(12) 0.93952(6)
H68_3 H 0.483755 0.375071 0.936288
C76_3 C 0.96306(16) 0.83465(13) 0.53629(6)
C77_3 C 0.54020(15) 0.26004(12) 0.89514(6)
H70_3 H 0.478637 0.263301 0.896084
H71_3 H 0.558915 0.210327 0.903008
C78_3 C 0.89473(16) 0.87105(13) 0.51597(6)
H72_3 H 0.891679 0.871846 0.489022
N25_2 N 0.65864(10) 0.58697(9) 0.70971(5)
N26_2 N 0.84136(10) 0.58697(9) 0.29029(5)
N27_2 N 0.85055(10) 0.42143(8) 0.75568(5)
N28_2 N 0.64945(10) 0.42143(8) 0.24432(5)
H36_4 H 0.108321 0.371846 0.010978
S4_4 S 0.11508(4) 0.50322(3) 0.11668(2)
S6_4 S 0.27235(4) 0.18958(4) 0.33231(2)
N14_4 N 0.52078(10) 0.25239(8) 0.13163(4)
N15_4 N 0.33253(11) 0.40531(9) 0.03275(4)
N17_4 N 0.34810(10) 0.06331(8) 0.19707(5)
N18_4 N 0.16532(11) 0.48938(9) 0.04234(5)
N21_4 N 0.30113(10) 0.08139(9) 0.27721(5)
C40_4 C 0.60262(12) 0.30570(10) 0.19153(5)
C41_4 C 0.56580(11) 0.37575(10) 0.18706(5)
H37_4 H 0.524007 0.385343 0.166442
C42_4 C 0.59173(11) 0.43159(10) 0.21358(5)
H38_4 H 0.567429 0.478565 0.209619
C43_4 C 0.44275(12) 0.13913(10) 0.14556(5)
C45_4 C 0.54640(12) 0.29797(11) 0.09990(5)
H39_4 H 0.584159 0.337486 0.110504
H40_4 H 0.578017 0.267500 0.083263
C46_4 C 0.39847(13) 0.02686(10) 0.17463(6)
C47_4 C 0.39240(12) 0.17678(10) 0.16962(6)
H42_4 H 0.389670 0.228458 0.168913
C49_4 C 0.46937(12) 0.33144(10) 0.07619(5)
C50_4 C 0.59050(12) 0.24262(10) 0.16307(5)
H45_4 H 0.579625 0.197578 0.177144
H46_4 H 0.643751 0.235441 0.151686
C51_4 C 0.14351(12) 0.49558(10) 0.07318(6)
C52_4 C 0.48974(12) 0.17980(10) 0.11663(5)
H47_4 H 0.451658 0.186933 0.092876
H48_4 H 0.538147 0.150060 0.110507
C56_4 C 0.44621(12) 0.06185(10) 0.14900(6)
H51_4 H 0.480521 0.034194 0.134077
C57_4 C 0.65713(13) 0.29391(11) 0.22558(6)
H52_4 H 0.679410 0.246700 0.231230
C58_4 C 0.40214(13) 0.36270(12) 0.09354(6)
H53_4 H 0.401329 0.359006 0.120259
C63_4 C 0.34655(12) 0.13792(10) 0.19450(6)
H57_4 H 0.312957 0.164368 0.210260
C65_4 C 0.33654(13) 0.39921(11) 0.07136(5)
H59_4 H 0.293025 0.420606 0.083836
C73_4 C 0.28977(12) 0.12663(11) 0.30009(6)
C74_4 C 0.67808(13) 0.35141(11) 0.25076(6)
H67_4 H 0.713851 0.341617 0.273434
C76_4 C 0.46306(16) 0.33465(13) 0.03629(6)
H69_4 H 0.504805 0.312310 0.023076
C78_4 C 0.39473(16) 0.37105(13) 0.01597(6)
S1_4 S 0.38492(4) 0.50322(3) 0.88332(2)
S3_4 S 0.22765(4) 0.18958(4) 0.66769(2)
N4_4 N 0.16747(11) 0.40531(9) 0.96725(4)
N6_4 N 0.15190(10) 0.06331(8) 0.80293(5)
N7_4 N 0.33468(11) 0.48938(9) 0.95766(5)
N10_4 N 0.19887(10) 0.08139(9) 0.72279(5)
C4_4 C 0.05725(12) 0.13913(10) 0.85444(5)
C7_4 C 0.10153(13) 0.02686(10) 0.82537(6)
C8_4 C 0.10760(12) 0.17678(10) 0.83038(6)
H6_4 H 0.110330 0.228458 0.831087
C10_4 C 0.03063(12) 0.33144(10) 0.92381(5)
C12_4 C 0.35649(12) 0.49558(10) 0.92682(6)
C13_4 C 0.01026(12) 0.17980(10) 0.88337(5)
H11_4 H 0.048342 0.186933 0.907124
C17_4 C 0.05379(12) 0.06185(10) 0.85100(6)
H15_4 H 0.019479 0.034194 0.865923
C19_4 C 0.09786(13) 0.36270(12) 0.90646(6)
H17_4 H 0.098671 0.359006 0.879741
C24_4 C 0.15345(12) 0.13792(10) 0.80550(6)
H21_4 H 0.187043 0.164368 0.789740
C26_4 C 0.16346(13) 0.39921(11) 0.92864(5)
H23_4 H 0.206975 0.420606 0.916164
C34_4 C 0.21023(12) 0.12663(11) 0.69991(6)
C37_4 C 0.03694(16) 0.33465(13) 0.96371(6)
C39_4 C 0.10527(16) 0.37105(13) 0.98403(6)
H72_4 H 0.391679 0.371846 0.989022
S5_4 S 0.23400(4) 0.88436(4) 0.10826(2)
N13_4 N 0.06086(10) 0.77530(9) 0.35582(5)
N19_4 N 0.22502(11) 0.93964(9) 0.18319(5)
N20_4 N 0.17155(10) 0.95830(9) 0.26590(5)
H41_4 H 0.401312 0.975275 0.176471
C48_4 C 0.07042(12) 0.71052(11) 0.33130(6)
H43_4 H 0.097025 0.726689 0.308763
H44_4 H 0.109807 0.676123 0.345622
C53_4 C 0.22811(12) 0.91662(11) 0.15199(6)
C54_4 C 0.09681(12) 0.92894(11) 0.25029(6)
H49_4 H 0.080867 0.935384 0.223849
C59_4 C 0.21768(13) 0.87125(11) 0.45093(6)
H54_4 H 0.277394 0.870104 0.454835
C60_4 C 0.04236(12) 0.88962(11) 0.27153(6)
C62_4 C 0.06460(12) 0.87894(10) 0.31092(6)
C66_4 C 0.01005(12) 0.83489(11) 0.33595(6)
C67_4 C 0.08612(14) 0.81719(11) 0.42200(5)
C68_4 C 0.09060(13) 0.92578(12) 0.46198(6)
H62_4 H 0.061024 0.962965 0.473599
C70_4 C 0.17537(14) 0.81678(11) 0.42814(6)
H64_4 H 0.206392 0.780014 0.416952
C71_4 C 0.19217(13) 0.94927(12) 0.30433(6)
H65_4 H 0.242875 0.970399 0.315912
C72_4 C 0.14183(13) 0.91034(12) 0.32717(6)
H66_4 H 0.159158 0.904833 0.353560
C75_4 C 0.04347(14) 0.87297(12) 0.43952(6)
C77_4 C 0.04020(15) 0.76004(12) 0.39514(6)
H71_4 H 0.058915 0.710327 0.403008
S2_4 S 0.26600(4) 0.88436(4) 0.89174(2)
N2_4 N 0.43914(10) 0.77530(9) 0.64418(5)
N8_4 N 0.27498(11) 0.93964(9) 0.81681(5)
N9_4 N 0.32845(10) 0.95830(9) 0.73410(5)
C5_4 C 0.51099(12) 0.66846(10) 0.68278(6)
H5_4 H 0.098688 0.975275 0.823529
C9_4 C 0.42958(12) 0.71052(11) 0.66870(6)
H7_4 H 0.402975 0.726689 0.691237
H8_4 H 0.390193 0.676123 0.654378
C14_4 C 0.27189(12) 0.91662(11) 0.84801(6)
C15_4 C 0.40319(12) 0.92894(11) 0.74971(6)
H13_4 H 0.419133 0.935384 0.776151
C16_4 C 0.54238(12) 0.66712(12) 0.72173(6)
H14_4 H 0.514807 0.693978 0.739644
C20_4 C 0.28232(13) 0.87125(11) 0.54907(6)
H18_4 H 0.222606 0.870104 0.545165
C21_4 C 0.45764(12) 0.88962(11) 0.72847(6)
H19_4 H 0.508945 0.870440 0.740552
C22_4 C 0.55685(13) 0.62867(10) 0.65759(6)
H20_4 H 0.538569 0.628130 0.631132
C23_4 C 0.43540(12) 0.87894(10) 0.68908(6)
C25_4 C 0.61493(13) 0.62570(12) 0.73392(6)
H22_4 H 0.634194 0.624781 0.760280
C27_4 C 0.48995(12) 0.83489(11) 0.66405(6)
H24_4 H 0.538732 0.813797 0.680053
H25_4 H 0.511605 0.867487 0.645063
C28_4 C 0.41388(14) 0.81719(11) 0.57800(5)
C29_4 C 0.40940(13) 0.92578(12) 0.53802(6)
H26_4 H 0.438976 0.962965 0.526401
C30_4 C 0.62961(13) 0.58994(11) 0.67192(6)
H27_4 H 0.660030 0.564619 0.654454
C31_4 C 0.32463(14) 0.81678(11) 0.57186(6)
H28_4 H 0.293608 0.780014 0.583048
C32_4 C 0.30783(13) 0.94927(12) 0.69567(6)
H29_4 H 0.257125 0.970399 0.684088
C33_4 C 0.35817(13) 0.91034(12) 0.67283(6)
H30_4 H 0.340842 0.904833 0.646440
C36_4 C 0.45653(14) 0.87297(12) 0.56048(6)
H32_4 H 0.516245 0.875071 0.563712
C38_4 C 0.45980(15) 0.76004(12) 0.60486(6)
H34_4 H 0.521363 0.763301 0.603916
H35_4 H 0.441085 0.710327 0.596992
N3_4 N 0.97922(10) 0.25239(8) 0.86837(4)
C1_4 C 0.89738(12) 0.30570(10) 0.80847(5)
C2_4 C 0.93420(11) 0.37575(10) 0.81294(5)
H1_4 H 0.975993 0.385343 0.833558
C3_4 C 0.90827(11) 0.43159(10) 0.78642(5)
H2_4 H 0.932571 0.478565 0.790381
C6_4 C 0.95360(12) 0.29797(11) 0.90010(5)
H3_4 H 0.915841 0.337486 0.889496
H4_4 H 0.921983 0.267500 0.916737
C11_4 C 0.90950(12) 0.24262(10) 0.83693(5)
H9_4 H 0.920375 0.197578 0.822856
H10_4 H 0.856249 0.235441 0.848314
H12_4 H 0.961853 0.150060 0.889493
C18_4 C 0.84287(13) 0.29391(11) 0.77442(6)
H16_4 H 0.820590 0.246700 0.768770
C35_4 C 0.82192(13) 0.35141(11) 0.74924(6)
H31_4 H 0.786149 0.341617 0.726566
H33_4 H 0.995195 0.312310 0.976924
C44_4 C 0.98901(12) 0.66846(10) 0.31722(6)
C55_4 C 0.95762(12) 0.66712(12) 0.27827(6)
H50_4 H 0.985193 0.693978 0.260356
H55_4 H 0.991055 0.870440 0.259448
C61_4 C 0.94315(13) 0.62867(10) 0.34241(6)
H56_4 H 0.961431 0.628130 0.368868
C64_4 C 0.88507(13) 0.62570(12) 0.26608(6)
H58_4 H 0.865806 0.624781 0.239720
H60_4 H 0.961268 0.813797 0.319947
H61_4 H 0.988395 0.867487 0.354937
C69_4 C 0.87039(13) 0.58994(11) 0.32808(6)
H63_4 H 0.839970 0.564619 0.345546
H68_4 H 0.983755 0.875071 0.436288
H70_4 H 0.978637 0.763301 0.396084
loop_
_geom_bond_atom_site_label_1
_geom_bond_atom_site_label_2
_geom_bond_site_symmetry_1
_geom_bond_site_symmetry_2
Co1 N4 1_555 1_555
Co2 N6 1_555 1_555
S2 C14 1_555 1_555
S3 C34 1_555 1_555
N1 C20 1_555 1_555
N2 C9 1_555 1_555
N3 C6 1_555 1_555
N4 C26 1_555 1_555
N6 C7 1_555 1_555
N7 Co1 1_555 1_555
N8 Co2 1_555 1_555
N9 Co2 1_555 1_555
N10 Co2 1_555 1_555
N11 C3 1_555 1_555
C1 C2 1_555 1_555
C2 H1 1_555 1_555
C3 C2 1_555 1_555
H2 C3 1_555 1_555
C4 C8 1_555 1_555
C6 H3 1_555 1_555
H4 C6 1_555 1_555
C7 H5 1_555 1_555
C8 H6 1_555 1_555
C9 H7 1_555 1_555
H8 C9 1_555 1_555
C10 C6 1_555 1_555
C11 N3 1_555 1_555
H9 C11 1_555 1_555
H10 C11 1_555 1_555
C12 N7 1_555 1_555
C13 N3 1_555 1_555
H11 C13 1_555 1_555
H12 C13 1_555 1_555
C14 N8 1_555 1_555
C15 N9 1_555 1_555
H13 C15 1_555 1_555
C17 C4 1_555 1_555
H15 C17 1_555 1_555
C18 C1 1_555 1_555
H16 C18 1_555 1_555
C19 C10 1_555 1_555
H17 C19 1_555 1_555
C20 H18 1_555 1_555
C21 C15 1_555 1_555
C23 C21 1_555 1_555
C24 N6 1_555 1_555
H21 C24 1_555 1_555
C26 C19 1_555 1_555
H23 C26 1_555 1_555
C27 N2 1_555 1_555
C28 C31 1_555 1_555
C29 N1 1_555 1_555
H26 C29 1_555 1_555
C31 C20 1_555 1_555
H28 C31 1_555 1_555
C32 N9 1_555 1_555
H29 C32 1_555 1_555
C33 C23 1_555 1_555
H30 C33 1_555 1_555
C34 N10 1_555 1_555
C35 N11 1_555 1_555
H31 C35 1_555 1_555
C36 C28 1_555 1_555
C37 C10 1_555 1_555
H33 C37 1_555 1_555
C38 N2 1_555 1_555
H35 C38 1_555 1_555
C39 N4 1_555 1_555
H36 C39 1_555 1_555
Co3 N17 1_555 1_555
S5 C53 1_555 1_555
S6 C73 1_555 1_555
N12 C59 1_555 1_555
N13 C48 1_555 1_555
N15 Co1 1_555 1_555
N16 C64 1_555 1_555
N17 C46 1_555 1_555
N18 Co1 1_555 1_555
N19 Co3 1_555 1_555
N20 Co3 1_555 1_555
N21 Co3 1_555 1_555
C43 C47 1_555 1_555
C44 C48 1_555 1_555
C46 H41 1_555 1_555
C47 H42 1_555 1_555
C48 H43 1_555 1_555
H44 C48 1_555 1_555
C51 N18 1_555 1_555
H47 C52 1_555 1_555
C53 N19 1_555 1_555
C54 N20 1_555 1_555
H49 C54 1_555 1_555
C55 C44 1_555 1_555
H50 C55 1_555 1_555
C56 C43 1_555 1_555
H51 C56 1_555 1_555
C58 C49 1_555 1_555
H53 C58 1_555 1_555
C59 H54 1_555 1_555
C60 C54 1_555 1_555
H55 C60 1_555 1_555
C61 C44 1_555 1_555
H56 C61 1_555 1_555
C62 C60 1_555 1_555
C63 N17 1_555 1_555
H57 C63 1_555 1_555
C64 C55 1_555 1_555
H58 C64 1_555 1_555
C65 N15 1_555 1_555
H59 C65 1_555 1_555
C66 N13 1_555 1_555
H60 C66 1_555 1_555
H61 C66 1_555 1_555
C67 C70 1_555 1_555
C68 N12 1_555 1_555
H62 C68 1_555 1_555
C69 N16 1_555 1_555
H63 C69 1_555 1_555
C70 C59 1_555 1_555
H64 C70 1_555 1_555
C71 N20 1_555 1_555
H65 C71 1_555 1_555
C72 C62 1_555 1_555
H66 C72 1_555 1_555
C73 N21 1_555 1_555
C75 C67 1_555 1_555
H68 C75 1_555 1_555
C76 C49 1_555 1_555
C77 N13 1_555 1_555
H70 C77 1_555 1_555
H71 C77 1_555 1_555
C78 N15 1_555 1_555
H72 C78 1_555 1_555
Co5 N12 1_555 1_555
Co5_2 N1 1_555 1_555
Co7 N16 1_555 1_555
N25 Co3 1_555 1_555
N26 Co2 1_555 1_555
N27 Co3 1_555 1_555
N28 Co2 1_555 1_555
C1 C11 1_555 1_555
C4 C13 1_555 1_555
C7 C17 1_555 1_555
C8 C24 1_555 1_555
C18 C35 1_555 1_555
C23 C27 1_555 1_555
C28 C38 1_555 1_555
C29 C36 1_555 1_555
C32 C33 1_555 1_555
C37 C39 1_555 1_555
C43 C52 1_555 1_555
C46 C56 1_555 1_555
C47 C63 1_555 1_555
C58 C65 1_555 1_555
C61 C69 1_555 1_555
C62 C66 1_555 1_555
C67 C77 1_555 1_555
C68 C75 1_555 1_555
C71 C72 1_555 1_555
C76 C78 1_555 1_555
N5 C25 1_555 1_555
C16 C5 1_555 1_555
H14 C16 1_555 1_555
C22 C5 1_555 1_555
H20 C22 1_555 1_555
C25 C16 1_555 1_555
H22 C25 1_555 1_555
C30 N5 1_555 1_555
H27 C30 1_555 1_555
N14 C45 1_555 1_555
N22 C42 1_555 1_555
C40 C41 1_555 1_555
C41 H37 1_555 1_555
C42 C41 1_555 1_555
H38 C42 1_555 1_555
C45 H39 1_555 1_555
H40 C45 1_555 1_555
C50 N14 1_555 1_555
H45 C50 1_555 1_555
H46 C50 1_555 1_555
C57 C40 1_555 1_555
H52 C57 1_555 1_555
C74 N22 1_555 1_555
H67 C74 1_555 1_555
Co9 N5 1_555 1_555
C22 C30 1_555 1_555
C40 C50 1_555 1_555
C57 C74 1_555 1_555
N26 C64_2 1_555 1_555
C55_2 C44_2 1_555 1_555
H50_2 C55_2 1_555 1_555
C61_2 C44_2 1_555 1_555
H56_2 C61_2 1_555 1_555
C64_2 C55_2 1_555 1_555
H58_2 C64_2 1_555 1_555
C69_2 N26 1_555 1_555
H63_2 C69_2 1_555 1_555
C61_2 C69_2 1_555 1_555
N3_2 C6_2 1_555 1_555
N27 C3_2 1_555 1_555
C1_2 C2_2 1_555 1_555
C2_2 H1_2 1_555 1_555
C3_2 C2_2 1_555 1_555
H2_2 C3_2 1_555 1_555
C6_2 H3_2 1_555 1_555
H4_2 C6_2 1_555 1_555
C11_2 N3_2 1_555 1_555
H9_2 C11_2 1_555 1_555
H10_2 C11_2 1_555 1_555
C18_2 C1_2 1_555 1_555
H16_2 C18_2 1_555 1_555
C35_2 N27 1_555 1_555
H31_2 C35_2 1_555 1_555
C1_2 C11_2 1_555 1_555
C18_2 C35_2 1_555 1_555
S2_2 C14_2 1_555 1_555
N1_2 C20_2 1_555 1_555
N2_2 C9_2 1_555 1_555
N25 C25_2 1_555 1_555
C5_2 C9_2 1_555 1_555
C9_2 H7_2 1_555 1_555
H8_2 C9_2 1_555 1_555
C14_2 N8_2 1_555 1_555
C15_2 N9_2 1_555 1_555
H13_2 C15_2 1_555 1_555
C16_2 C5_2 1_555 1_555
H14_2 C16_2 1_555 1_555
C20_2 H18_2 1_555 1_555
C21_2 C15_2 1_555 1_555
H19_2 C21_2 1_555 1_555
C22_2 C5_2 1_555 1_555
H20_2 C22_2 1_555 1_555
C23_2 C21_2 1_555 1_555
C25_2 C16_2 1_555 1_555
H22_2 C25_2 1_555 1_555
C27_2 N2_2 1_555 1_555
H24_2 C27_2 1_555 1_555
H25_2 C27_2 1_555 1_555
C28_2 C31_2 1_555 1_555
C29_2 N1_2 1_555 1_555
H26_2 C29_2 1_555 1_555
C30_2 N25 1_555 1_555
H27_2 C30_2 1_555 1_555
C31_2 C20_2 1_555 1_555
H28_2 C31_2 1_555 1_555
C32_2 N9_2 1_555 1_555
H29_2 C32_2 1_555 1_555
C33_2 C23_2 1_555 1_555
H30_2 C33_2 1_555 1_555
C36_2 C28_2 1_555 1_555
H32_2 C36_2 1_555 1_555
C38_2 N2_2 1_555 1_555
H34_2 C38_2 1_555 1_555
H35_2 C38_2 1_555 1_555
C22_2 C30_2 1_555 1_555
C23_2 C27_2 1_555 1_555
C28_2 C38_2 1_555 1_555
C29_2 C36_2 1_555 1_555
C32_2 C33_2 1_555 1_555
S5_2 C53_2 1_555 1_555
N12_2 C59_2 1_555 1_555
N13_2 C48_2 1_555 1_555
C48_2 H43_2 1_555 1_555
H44_2 C48_2 1_555 1_555
C53_2 N19_2 1_555 1_555
C54_2 N20_2 1_555 1_555
H49_2 C54_2 1_555 1_555
C59_2 H54_2 1_555 1_555
C60_2 C54_2 1_555 1_555
C62_2 C60_2 1_555 1_555
C66_2 N13_2 1_555 1_555
C67_2 C70_2 1_555 1_555
C68_2 N12_2 1_555 1_555
H62_2 C68_2 1_555 1_555
C70_2 C59_2 1_555 1_555
H64_2 C70_2 1_555 1_555
C71_2 N20_2 1_555 1_555
H65_2 C71_2 1_555 1_555
C72_2 C62_2 1_555 1_555
H66_2 C72_2 1_555 1_555
C75_2 C67_2 1_555 1_555
C77_2 N13_2 1_555 1_555
H71_2 C77_2 1_555 1_555
C62_2 C66_2 1_555 1_555
C67_2 C77_2 1_555 1_555
C68_2 C75_2 1_555 1_555
C71_2 C72_2 1_555 1_555
Co1_2 N4_2 1_555 1_555
Co7 N6_2 1_555 1_555
S1_2 C12_2 1_555 1_555
S3_2 C34_2 1_555 1_555
N4_2 C26_2 1_555 1_555
N6_2 C7_2 1_555 1_555
N7_2 Co1_2 1_555 1_555
N10_2 Co7 1_555 1_555
C4_2 C8_2 1_555 1_555
C8_2 H6_2 1_555 1_555
C12_2 N7_2 1_555 1_555
H11_2 C13_2 1_555 1_555
C17_2 C4_2 1_555 1_555
H15_2 C17_2 1_555 1_555
C19_2 C10_2 1_555 1_555
H17_2 C19_2 1_555 1_555
C24_2 N6_2 1_555 1_555
H21_2 C24_2 1_555 1_555
C26_2 C19_2 1_555 1_555
H23_2 C26_2 1_555 1_555
C34_2 N10_2 1_555 1_555
C37_2 C10_2 1_555 1_555
C39_2 N4_2 1_555 1_555
N23_2 Co1_2 1_555 1_555
C4_2 C13_2 1_555 1_555
C7_2 C17_2 1_555 1_555
C8_2 C24_2 1_555 1_555
C37_2 C39_2 1_555 1_555
Co9 N17_2 1_555 1_555
S4_2 C51_2 1_555 1_555
S6_2 C73_2 1_555 1_555
N14_2 C45_2 1_555 1_555
N15_2 Co1_3 1_555 1_555
N17_2 C46_2 1_555 1_555
N18_2 Co1_3 1_555 1_555
N21_2 Co9 1_555 1_555
N28 C42_2 1_555 1_555
C40_2 C41_2 1_555 1_555
C41_2 H37_2 1_555 1_555
C42_2 C41_2 1_555 1_555
H38_2 C42_2 1_555 1_555
C43_2 C47_2 1_555 1_555
C45_2 H39_2 1_555 1_555
H40_2 C45_2 1_555 1_555
C47_2 H42_2 1_555 1_555
C49_2 C45_2 1_555 1_555
C50_2 N14_2 1_555 1_555
H45_2 C50_2 1_555 1_555
H46_2 C50_2 1_555 1_555
C51_2 N18_2 1_555 1_555
C52_2 N14_2 1_555 1_555
H47_2 C52_2 1_555 1_555
H48_2 C52_2 1_555 1_555
C56_2 C43_2 1_555 1_555
H51_2 C56_2 1_555 1_555
C57_2 C40_2 1_555 1_555
H52_2 C57_2 1_555 1_555
C58_2 C49_2 1_555 1_555
H53_2 C58_2 1_555 1_555
C63_2 N17_2 1_555 1_555
H57_2 C63_2 1_555 1_555
C65_2 N15_2 1_555 1_555
H59_2 C65_2 1_555 1_555
C73_2 N21_2 1_555 1_555
C74_2 N28 1_555 1_555
H67_2 C74_2 1_555 1_555
C76_2 C49_2 1_555 1_555
H69_2 C76_2 1_555 1_555
C78_2 N15_2 1_555 1_555
N24_2 Co1_3 1_555 1_555
C40_2 C50_2 1_555 1_555
C43_2 C52_2 1_555 1_555
C46_2 C56_2 1_555 1_555
C47_2 C63_2 1_555 1_555
C57_2 C74_2 1_555 1_555
C58_2 C65_2 1_555 1_555
C76_2 C78_2 1_555 1_555
N5_2 C25_3 1_555 1_555
C16_3 C5_3 1_555 1_555
H14_3 C16_3 1_555 1_555
C22_3 C5_3 1_555 1_555
H20_3 C22_3 1_555 1_555
C25_3 C16_3 1_555 1_555
H22_3 C25_3 1_555 1_555
C30_3 N5_2 1_555 1_555
H27_3 C30_3 1_555 1_555
N14_3 C45_3 1_555 1_555
N22_2 C42_3 1_555 1_555
C40_3 C41_3 1_555 1_555
C41_3 H37_3 1_555 1_555
C42_3 C41_3 1_555 1_555
H38_3 C42_3 1_555 1_555
C45_3 H39_3 1_555 1_555
H40_3 C45_3 1_555 1_555
C50_3 N14_3 1_555 1_555
H45_3 C50_3 1_555 1_555
H46_3 C50_3 1_555 1_555
C57_3 C40_3 1_555 1_555
H52_3 C57_3 1_555 1_555
C74_3 N22_2 1_555 1_555
H67_3 C74_3 1_555 1_555
Co8 N5_2 1_555 1_555
C22_3 C30_3 1_555 1_555
C40_3 C50_3 1_555 1_555
C57_3 C74_3 1_555 1_555
Co5_3 N4_3 1_555 1_555
Co2_2 N6_3 1_555 1_555
S2_3 C14_3 1_555 1_555
S3_3 C34_3 1_555 1_555
N23_2 C20_3 1_555 1_555
N2_3 C9_3 1_555 1_555
N3_3 C6_3 1_555 1_555
N4_3 C26_3 1_555 1_555
N6_3 C7_3 1_555 1_555
N7_3 Co5_3 1_555 1_555
N8_3 Co2_2 1_555 1_555
N9_3 Co2_2 1_555 1_555
N10_3 Co2_2 1_555 1_555
N11_2 C3_3 1_555 1_555
C1_3 C2_3 1_555 1_555
C2_3 H1_3 1_555 1_555
C3_3 C2_3 1_555 1_555
H2_3 C3_3 1_555 1_555
C4_3 C8_3 1_555 1_555
C6_3 H3_3 1_555 1_555
H4_3 C6_3 1_555 1_555
C7_3 H5_3 1_555 1_555
C8_3 H6_3 1_555 1_555
C9_3 H7_3 1_555 1_555
H8_3 C9_3 1_555 1_555
C10_3 C6_3 1_555 1_555
C11_3 N3_3 1_555 1_555
H9_3 C11_3 1_555 1_555
H10_3 C11_3 1_555 1_555
C12_3 N7_3 1_555 1_555
C13_3 N3_3 1_555 1_555
H11_3 C13_3 1_555 1_555
H12_3 C13_3 1_555 1_555
C14_3 N8_3 1_555 1_555
C15_3 N9_3 1_555 1_555
H13_3 C15_3 1_555 1_555
C17_3 C4_3 1_555 1_555
H15_3 C17_3 1_555 1_555
C18_3 C1_3 1_555 1_555
H16_3 C18_3 1_555 1_555
C19_3 C10_3 1_555 1_555
H17_3 C19_3 1_555 1_555
C20_3 H18_3 1_555 1_555
C21_3 C15_3 1_555 1_555
C23_3 C21_3 1_555 1_555
C24_3 N6_3 1_555 1_555
H21_3 C24_3 1_555 1_555
C26_3 C19_3 1_555 1_555
H23_3 C26_3 1_555 1_555
C27_3 N2_3 1_555 1_555
C28_3 C31_3 1_555 1_555
C29_3 N23_2 1_555 1_555
H26_3 C29_3 1_555 1_555
C31_3 C20_3 1_555 1_555
H28_3 C31_3 1_555 1_555
C32_3 N9_3 1_555 1_555
H29_3 C32_3 1_555 1_555
C33_3 C23_3 1_555 1_555
H30_3 C33_3 1_555 1_555
C34_3 N10_3 1_555 1_555
C35_3 N11_2 1_555 1_555
H31_3 C35_3 1_555 1_555
C36_3 C28_3 1_555 1_555
C37_3 C10_3 1_555 1_555
H33_3 C37_3 1_555 1_555
C38_3 N2_3 1_555 1_555
H35_3 C38_3 1_555 1_555
C39_3 N4_3 1_555 1_555
H36_3 C39_3 1_555 1_555
Co3_2 N17_3 1_555 1_555
S5_3 C53_3 1_555 1_555
S6_3 C73_3 1_555 1_555
N24_2 C59_3 1_555 1_555
N13_3 C48_3 1_555 1_555
N15_3 Co5_3 1_555 1_555
N16_2 C64_3 1_555 1_555
N17_3 C46_3 1_555 1_555
N18_3 Co5_3 1_555 1_555
N19_3 Co3_2 1_555 1_555
N20_3 Co3_2 1_555 1_555
N21_3 Co3_2 1_555 1_555
C43_3 C47_3 1_555 1_555
C44_3 C48_3 1_555 1_555
C46_3 H41_3 1_555 1_555
C47_3 H42_3 1_555 1_555
C48_3 H43_3 1_555 1_555
H44_3 C48_3 1_555 1_555
C51_3 N18_3 1_555 1_555
H47_3 C52_3 1_555 1_555
C53_3 N19_3 1_555 1_555
C54_3 N20_3 1_555 1_555
H49_3 C54_3 1_555 1_555
C55_3 C44_3 1_555 1_555
H50_3 C55_3 1_555 1_555
C56_3 C43_3 1_555 1_555
H51_3 C56_3 1_555 1_555
C58_3 C49_3 1_555 1_555
H53_3 C58_3 1_555 1_555
C59_3 H54_3 1_555 1_555
C60_3 C54_3 1_555 1_555
H55_3 C60_3 1_555 1_555
C61_3 C44_3 1_555 1_555
H56_3 C61_3 1_555 1_555
C62_3 C60_3 1_555 1_555
C63_3 N17_3 1_555 1_555
H57_3 C63_3 1_555 1_555
C64_3 C55_3 1_555 1_555
H58_3 C64_3 1_555 1_555
C65_3 N15_3 1_555 1_555
H59_3 C65_3 1_555 1_555
C66_3 N13_3 1_555 1_555
H60_3 C66_3 1_555 1_555
H61_3 C66_3 1_555 1_555
C67_3 C70_3 1_555 1_555
C68_3 N24_2 1_555 1_555
H62_3 C68_3 1_555 1_555
C69_3 N16_2 1_555 1_555
H63_3 C69_3 1_555 1_555
C70_3 C59_3 1_555 1_555
H64_3 C70_3 1_555 1_555
C71_3 N20_3 1_555 1_555
H65_3 C71_3 1_555 1_555
C72_3 C62_3 1_555 1_555
H66_3 C72_3 1_555 1_555
C73_3 N21_3 1_555 1_555
C75_3 C67_3 1_555 1_555
H68_3 C75_3 1_555 1_555
C76_3 C49_3 1_555 1_555
C77_3 N13_3 1_555 1_555
H70_3 C77_3 1_555 1_555
H71_3 C77_3 1_555 1_555
C78_3 N15_3 1_555 1_555
H72_3 C78_3 1_555 1_555
Co6 N16_2 1_555 1_555
N25_2 Co3_2 1_555 1_555
N26_2 Co2_2 1_555 1_555
N27_2 Co3_2 1_555 1_555
N28_2 Co2_2 1_555 1_555
C1_3 C11_3 1_555 1_555
C4_3 C13_3 1_555 1_555
C7_3 C17_3 1_555 1_555
C8_3 C24_3 1_555 1_555
C18_3 C35_3 1_555 1_555
C23_3 C27_3 1_555 1_555
C28_3 C38_3 1_555 1_555
C29_3 C36_3 1_555 1_555
C32_3 C33_3 1_555 1_555
C37_3 C39_3 1_555 1_555
C43_3 C52_3 1_555 1_555
C46_3 C56_3 1_555 1_555
C47_3 C63_3 1_555 1_555
C58_3 C65_3 1_555 1_555
C61_3 C69_3 1_555 1_555
C62_3 C66_3 1_555 1_555
C67_3 C77_3 1_555 1_555
C68_3 C75_3 1_555 1_555
C71_3 C72_3 1_555 1_555
C76_3 C78_3 1_555 1_555
Co8 N17_4 1_555 1_555
S4_4 C51_4 1_555 1_555
S6_4 C73_4 1_555 1_555
N14_4 C45_4 1_555 1_555
N15_4 Co5 1_555 1_555
N17_4 C46_4 1_555 1_555
N18_4 Co5 1_555 1_555
N21_4 Co8 1_555 1_555
N28_2 C42_4 1_555 1_555
C40_4 C41_4 1_555 1_555
C41_4 H37_4 1_555 1_555
C42_4 C41_4 1_555 1_555
H38_4 C42_4 1_555 1_555
C43_4 C47_4 1_555 1_555
C45_4 H39_4 1_555 1_555
H40_4 C45_4 1_555 1_555
C47_4 H42_4 1_555 1_555
C49_4 C45_4 1_555 1_555
C50_4 N14_4 1_555 1_555
H45_4 C50_4 1_555 1_555
H46_4 C50_4 1_555 1_555
C51_4 N18_4 1_555 1_555
C52_4 N14_4 1_555 1_555
H47_4 C52_4 1_555 1_555
H48_4 C52_4 1_555 1_555
C56_4 C43_4 1_555 1_555
H51_4 C56_4 1_555 1_555
C57_4 C40_4 1_555 1_555
H52_4 C57_4 1_555 1_555
C58_4 C49_4 1_555 1_555
H53_4 C58_4 1_555 1_555
C63_4 N17_4 1_555 1_555
H57_4 C63_4 1_555 1_555
C65_4 N15_4 1_555 1_555
H59_4 C65_4 1_555 1_555
C73_4 N21_4 1_555 1_555
C74_4 N28_2 1_555 1_555
H67_4 C74_4 1_555 1_555
C76_4 C49_4 1_555 1_555
H69_4 C76_4 1_555 1_555
C78_4 N15_4 1_555 1_555
C40_4 C50_4 1_555 1_555
C43_4 C52_4 1_555 1_555
C46_4 C56_4 1_555 1_555
C47_4 C63_4 1_555 1_555
C57_4 C74_4 1_555 1_555
C58_4 C65_4 1_555 1_555
C76_4 C78_4 1_555 1_555
Co5_2 N4_4 1_555 1_555
Co6 N6_4 1_555 1_555
S1_4 C12_4 1_555 1_555
S3_4 C34_4 1_555 1_555
N4_4 C26_4 1_555 1_555
N6_4 C7_4 1_555 1_555
N7_4 Co5_2 1_555 1_555
N10_4 Co6 1_555 1_555
C4_4 C8_4 1_555 1_555
C8_4 H6_4 1_555 1_555
C12_4 N7_4 1_555 1_555
H11_4 C13_4 1_555 1_555
C17_4 C4_4 1_555 1_555
H15_4 C17_4 1_555 1_555
C19_4 C10_4 1_555 1_555
H17_4 C19_4 1_555 1_555
C24_4 N6_4 1_555 1_555
H21_4 C24_4 1_555 1_555
C26_4 C19_4 1_555 1_555
H23_4 C26_4 1_555 1_555
C34_4 N10_4 1_555 1_555
C37_4 C10_4 1_555 1_555
C39_4 N4_4 1_555 1_555
C4_4 C13_4 1_555 1_555
C7_4 C17_4 1_555 1_555
C8_4 C24_4 1_555 1_555
C37_4 C39_4 1_555 1_555
S5_4 C53_4 1_555 1_555
N24 C59_4 1_555 1_555
N13_4 C48_4 1_555 1_555
C48_4 H43_4 1_555 1_555
H44_4 C48_4 1_555 1_555
C53_4 N19_4 1_555 1_555
C54_4 N20_4 1_555 1_555
H49_4 C54_4 1_555 1_555
C59_4 H54_4 1_555 1_555
C60_4 C54_4 1_555 1_555
C62_4 C60_4 1_555 1_555
C66_4 N13_4 1_555 1_555
C67_4 C70_4 1_555 1_555
C68_4 N24 1_555 1_555
H62_4 C68_4 1_555 1_555
C70_4 C59_4 1_555 1_555
H64_4 C70_4 1_555 1_555
C71_4 N20_4 1_555 1_555
H65_4 C71_4 1_555 1_555
C72_4 C62_4 1_555 1_555
H66_4 C72_4 1_555 1_555
C75_4 C67_4 1_555 1_555
C77_4 N13_4 1_555 1_555
H71_4 C77_4 1_555 1_555
C62_4 C66_4 1_555 1_555
C67_4 C77_4 1_555 1_555
C68_4 C75_4 1_555 1_555
C71_4 C72_4 1_555 1_555
S2_4 C14_4 1_555 1_555
N23 C20_4 1_555 1_555
N2_4 C9_4 1_555 1_555
N25_2 C25_4 1_555 1_555
C5_4 C9_4 1_555 1_555
C9_4 H7_4 1_555 1_555
H8_4 C9_4 1_555 1_555
C14_4 N8_4 1_555 1_555
C15_4 N9_4 1_555 1_555
H13_4 C15_4 1_555 1_555
C16_4 C5_4 1_555 1_555
H14_4 C16_4 1_555 1_555
C20_4 H18_4 1_555 1_555
C21_4 C15_4 1_555 1_555
H19_4 C21_4 1_555 1_555
C22_4 C5_4 1_555 1_555
H20_4 C22_4 1_555 1_555
C23_4 C21_4 1_555 1_555
C25_4 C16_4 1_555 1_555
H22_4 C25_4 1_555 1_555
C27_4 N2_4 1_555 1_555
H24_4 C27_4 1_555 1_555
H25_4 C27_4 1_555 1_555
C28_4 C31_4 1_555 1_555
C29_4 N23 1_555 1_555
H26_4 C29_4 1_555 1_555
C30_4 N25_2 1_555 1_555
H27_4 C30_4 1_555 1_555
C31_4 C20_4 1_555 1_555
H28_4 C31_4 1_555 1_555
C32_4 N9_4 1_555 1_555
H29_4 C32_4 1_555 1_555
C33_4 C23_4 1_555 1_555
H30_4 C33_4 1_555 1_555
C36_4 C28_4 1_555 1_555
H32_4 C36_4 1_555 1_555
C38_4 N2_4 1_555 1_555
H34_4 C38_4 1_555 1_555
H35_4 C38_4 1_555 1_555
C22_4 C30_4 1_555 1_555
C23_4 C27_4 1_555 1_555
C28_4 C38_4 1_555 1_555
C29_4 C36_4 1_555 1_555
C32_4 C33_4 1_555 1_555
N3_4 C6_4 1_555 1_555
N27_2 C3_4 1_555 1_555
C1_4 C2_4 1_555 1_555
C2_4 H1_4 1_555 1_555
C3_4 C2_4 1_555 1_555
H2_4 C3_4 1_555 1_555
C6_4 H3_4 1_555 1_555
H4_4 C6_4 1_555 1_555
C11_4 N3_4 1_555 1_555
H9_4 C11_4 1_555 1_555
H10_4 C11_4 1_555 1_555
C18_4 C1_4 1_555 1_555
H16_4 C18_4 1_555 1_555
C35_4 N27_2 1_555 1_555
H31_4 C35_4 1_555 1_555
C1_4 C11_4 1_555 1_555
C18_4 C35_4 1_555 1_555
N26_2 C64_4 1_555 1_555
C55_4 C44_4 1_555 1_555
H50_4 C55_4 1_555 1_555
C61_4 C44_4 1_555 1_555
H56_4 C61_4 1_555 1_555
C64_4 C55_4 1_555 1_555
H58_4 C64_4 1_555 1_555
C69_4 N26_2 1_555 1_555
H63_4 C69_4 1_555 1_555
C61_4 C69_4 1_555 1_555

#END
