
###############################################################################
#
# This file contains modified crystal structure data generated from the
# MOF subset of the Cambridge Structural Database (CSD) v543 
# hosted by the Cambridge Crystallographic Data Centre (CCDC).
#
# This work is licensed under the Creative Commons
# Attribution-NonCommercial-ShareAlike 4.0 International License.
# To view a copy of this license, visit
# http://creativecommons.org/licenses/by-nc-sa/4.0/
# or send a letter to
# Creative Commons, PO Box 1866, Mountain View, CA 94042, USA.
#
# CIF created using the CSD Python API on 29 September 2022
# The structure has been converted into the P1 space group
# The structure has a 3D framework
# The original CSD entry QADKAH is in the monoclinic crystal system
# The framework has been calculated to contain at least 10.0% void space
# The void calculation uses a probe of radius 1.32A, grid spacing 0.4
# H atom positions have been added when not included in the experimental data
#
###############################################################################

data_QADKAH
_chemical_formula_moiety         '(C24 H96 N8 O80 P16 V16)n'
_symmetry_cell_setting           triclinic
_symmetry_space_group_name_H-M   'P 1'
_symmetry_Int_Tables_number      1
_space_group_name_Hall           'P 1'
loop_
_symmetry_equiv_pos_site_id
_symmetry_equiv_pos_as_xyz
1 x,y,z
_cell_length_a                   14.2928(2)
_cell_length_b                   10.2440(2)
_cell_length_c                   18.9901(1)
_cell_angle_alpha                90
_cell_angle_beta                 96.658(1)
_cell_angle_gamma                90
_cell_volume                     2761.69
loop_
_atom_site_label
_atom_site_type_symbol
_atom_site_fract_x
_atom_site_fract_y
_atom_site_fract_z
V1 V 0.1554(1) 0.6147(1) 0.0894(1)
V2 V 0.2276(1) 0.5561(1) 0.2808(1)
P2 P 0.1662(1) 0.3325(1) 0.1694(1)
O3 O 0.1555(1) 0.4027(2) 0.2388(1)
O4 O 0.1829(1) 0.4288(2) 0.1098(1)
O6 O 0.2471(1) 0.2335(2) 0.1759(1)
O7 O 0.3324(2) 0.5091(2) 0.2720(1)
O8 O 0.0433(1) 0.6243(2) 0.0755(1)
O9 O 0.1909(2) 0.6513(2) 0.1905(1)
C2 C 0.0579(2) 0.2465(2) 0.1433(1)
O10 O 0.0700(2) 0.6375(2) 0.3023(1)
H3 H 0.0430(2) 0.1929(2) 0.1826(1)
H4 H 0.0668(2) 0.1888(2) 0.1041(1)
O11 O 0.2111(1) 0.4936(2) 0.3768(1)
O12 O 0.2529(1) 0.7335(2) 0.3241(1)
V3 V 0.2724(1) 0.0561(1) 0.2192(1)
O14 O 0.1922(1) 0.8003(2) 0.0759(1)
H7 H 0.0407751 0.57506 0.333253
H8 H 0.0766428 0.724077 0.325868
O13 O 0.2036(1) 0.5746(2) 0.9994(1)
P1 P 0.7851(1) 0.3749(1) 0.0749(1)
O1 O 0.7964(1) 0.4254(2) 0.0006(1)
O2 O 0.6922(1) 0.3003(2) 0.0759(1)
O5 O 0.7889(1) 0.4936(2) 0.1232(1)
C1 C 0.8806(2) 0.2661(2) 0.1046(1)
C3 C 0.9745(2) 0.3372(2) 0.1209(2)
H1 H 0.8864(2) 0.2009(2) 0.0683(1)
H2 H 0.8661(2) 0.2211(2) 0.1470(1)
H5 H 0.9873(2) 0.3854(2) 0.0791(2)
H6 H 0.9691(2) 0.3999(2) 0.1585(2)
V5 V 0.6554(1) 0.1147(1) 0.0894(1)
V6 V 0.7724(1) 0.5561(1) 0.2192(1)
V4 V 0.8446(1) 0.3853(1) 0.9106(1)
P1_2 P 0.2149(1) 0.3749(1) 0.4251(1)
O1_2 O 0.2036(1) 0.4254(2) 0.4994(1)
O2_2 O 0.3078(1) 0.3003(2) 0.4241(1)
C1_2 C 0.1194(2) 0.2661(2) 0.3954(1)
C3_2 C 0.0255(2) 0.3372(2) 0.3791(2)
H1_2 H 0.1136(2) 0.2009(2) 0.4317(1)
H2_2 H 0.1339(2) 0.2211(2) 0.3530(1)
H5_2 H 0.0127(2) 0.3854(2) 0.4209(2)
H6_2 H 0.0309(2) 0.3999(2) 0.3415(2)
V4_2 V 0.1554(1) 0.3853(1) 0.5894(1)
V5_2 V 0.3446(1) 0.1147(1) 0.4106(1)
V1_2 V 0.8446(1) 0.6147(1) 0.4106(1)
P2_2 P 0.8338(1) 0.3325(1) 0.3306(1)
O3_2 O 0.8445(1) 0.4027(2) 0.2612(1)
O4_2 O 0.8171(1) 0.4288(2) 0.3902(1)
O6_2 O 0.7529(1) 0.2335(2) 0.3241(1)
O7_2 O 0.6676(2) 0.5091(2) 0.2280(1)
O8_2 O 0.9567(1) 0.6243(2) 0.4245(1)
O9_2 O 0.8091(2) 0.6513(2) 0.3095(1)
C2_2 C 0.9421(2) 0.2465(2) 0.3567(1)
O10_2 O 0.9300(2) 0.6375(2) 0.1977(1)
H3_2 H 0.9570(2) 0.1929(2) 0.3174(1)
H4_2 H 0.9332(2) 0.1888(2) 0.3959(1)
O12_2 O 0.7471(1) 0.7335(2) 0.1759(1)
V3_2 V 0.7276(1) 0.0561(1) 0.2808(1)
O13_2 O 0.7964(1) 0.5746(2) 0.5006(1)
O14_2 O 0.8078(1) 0.8003(2) 0.4241(1)
H7_2 H 0.959225 0.57506 0.166747
H8_2 H 0.923357 0.724077 0.174132
O7_3 O 0.8324(2) 0.0091(2) 0.2720(1)
O8_3 O 0.5433(1) 0.1243(2) 0.0755(1)
O9_3 O 0.6909(2) 0.1513(2) 0.1905(1)
O10_3 O 0.5700(2) 0.1375(2) 0.3023(1)
H7_3 H 0.540775 0.0750596 0.333253
H8_3 H 0.576643 0.224077 0.325868
O13_3 O 0.7036(1) 0.0746(2) 0.9994(1)
P1_3 P 0.2851(1) 0.8749(1) 0.0749(1)
P2_3 P 0.6662(1) 0.8325(1) 0.1694(1)
O1_3 O 0.2964(1) 0.9254(2) 0.0006(1)
O3_3 O 0.6555(1) 0.9027(2) 0.2388(1)
O4_3 O 0.6829(1) 0.9288(2) 0.1098(1)
O5_2 O 0.2889(1) 0.9936(2) 0.1232(1)
C1_3 C 0.3806(2) 0.7661(2) 0.1046(1)
C2_3 C 0.5579(2) 0.7465(2) 0.1433(1)
C3_3 C 0.4745(2) 0.8372(2) 0.1209(2)
H1_3 H 0.3864(2) 0.7009(2) 0.0683(1)
H2_3 H 0.3661(2) 0.7211(2) 0.1470(1)
H3_3 H 0.5430(2) 0.6929(2) 0.1826(1)
H4_3 H 0.5668(2) 0.6888(2) 0.1041(1)
H5_3 H 0.4873(2) 0.8854(2) 0.0791(2)
H6_3 H 0.4691(2) 0.8999(2) 0.1585(2)
O11_2 O 0.7111(1) 0.9936(2) 0.3768(1)
V4_3 V 0.3446(1) 0.8853(1) 0.9106(1)
O7_4 O 0.1676(2) 0.0091(2) 0.2280(1)
O8_4 O 0.4567(1) 0.1243(2) 0.4245(1)
O9_4 O 0.3091(2) 0.1513(2) 0.3095(1)
O10_4 O 0.4300(2) 0.1375(2) 0.1977(1)
O13_4 O 0.2964(1) 0.0746(2) 0.5006(1)
H7_4 H 0.459225 0.0750596 0.166747
H8_4 H 0.423357 0.224077 0.174132
P1_4 P 0.7149(1) 0.8749(1) 0.4251(1)
P2_4 P 0.3338(1) 0.8325(1) 0.3306(1)
O1_4 O 0.7036(1) 0.9254(2) 0.4994(1)
O3_4 O 0.3445(1) 0.9027(2) 0.2612(1)
O4_4 O 0.3171(1) 0.9288(2) 0.3902(1)
C1_4 C 0.6194(2) 0.7661(2) 0.3954(1)
C2_4 C 0.4421(2) 0.7465(2) 0.3567(1)
C3_4 C 0.5255(2) 0.8372(2) 0.3791(2)
H1_4 H 0.6136(2) 0.7009(2) 0.4317(1)
H2_4 H 0.6339(2) 0.7211(2) 0.3530(1)
H3_4 H 0.4570(2) 0.6929(2) 0.3174(1)
H4_4 H 0.4332(2) 0.6888(2) 0.3959(1)
H5_4 H 0.5127(2) 0.8854(2) 0.4209(2)
H6_4 H 0.5309(2) 0.8999(2) 0.3415(2)
V4_4 V 0.6554(1) 0.8853(1) 0.5894(1)
P1_5 P 0.2149(1) 0.6251(1) 0.9251(1)
O2_3 O 0.3078(1) 0.6997(2) 0.9241(1)
O5_3 O 0.2111(1) 0.5064(2) 0.8768(1)
C1_5 C 0.1194(2) 0.7339(2) 0.8954(1)
C3_5 C 0.0255(2) 0.6628(2) 0.8791(2)
H1_5 H 0.1136(2) 0.7991(2) 0.9317(1)
H2_5 H 0.1339(2) 0.7789(2) 0.8530(1)
H5_5 H 0.0127(2) 0.6146(2) 0.9209(2)
H6_5 H 0.0309(2) 0.6001(2) 0.8415(2)
V6_2 V 0.2276(1) 0.4439(1) 0.7808(1)
V2_2 V 0.7724(1) 0.4439(1) 0.7192(1)
P2_5 P 0.8338(1) 0.6675(1) 0.8306(1)
O3_5 O 0.8445(1) 0.5973(2) 0.7612(1)
O4_5 O 0.8171(1) 0.5712(2) 0.8902(1)
O6_3 O 0.7529(1) 0.7665(2) 0.8241(1)
O7_5 O 0.6676(2) 0.4909(2) 0.7280(1)
O8_5 O 0.9567(1) 0.3757(2) 0.9245(1)
O9_5 O 0.8091(2) 0.3487(2) 0.8095(1)
C2_5 C 0.9421(2) 0.7535(2) 0.8567(1)
O10_5 O 0.9300(2) 0.3625(2) 0.6977(1)
H3_5 H 0.9570(2) 0.8071(2) 0.8174(1)
H4_5 H 0.9332(2) 0.8112(2) 0.8959(1)
O11_3 O 0.7889(1) 0.5064(2) 0.6232(1)
O12_3 O 0.7471(1) 0.2665(2) 0.6759(1)
V3_3 V 0.7276(1) 0.9439(1) 0.7808(1)
O14_3 O 0.8078(1) 0.1997(2) 0.9241(1)
H7_5 H 0.959225 0.42494 0.666747
H8_5 H 0.923357 0.275923 0.674132
P2_6 P 0.1662(1) 0.6675(1) 0.6694(1)
O3_6 O 0.1555(1) 0.5973(2) 0.7388(1)
O4_6 O 0.1829(1) 0.5712(2) 0.6098(1)
O6_4 O 0.2471(1) 0.7665(2) 0.6759(1)
O7_6 O 0.3324(2) 0.4909(2) 0.7720(1)
O8_6 O 0.0433(1) 0.3757(2) 0.5755(1)
O9_6 O 0.1909(2) 0.3487(2) 0.6905(1)
C2_6 C 0.0579(2) 0.7535(2) 0.6433(1)
O10_6 O 0.0700(2) 0.3625(2) 0.8023(1)
H3_6 H 0.0430(2) 0.8071(2) 0.6826(1)
H4_6 H 0.0668(2) 0.8112(2) 0.6041(1)
O12_4 O 0.2529(1) 0.2665(2) 0.8241(1)
V3_4 V 0.2724(1) 0.9439(1) 0.7192(1)
O14_4 O 0.1922(1) 0.1997(2) 0.5759(1)
H7_6 H 0.0407751 0.42494 0.833253
H8_6 H 0.0766428 0.275923 0.825868
P1_6 P 0.7851(1) 0.6251(1) 0.5749(1)
O2_4 O 0.6922(1) 0.6997(2) 0.5759(1)
C1_6 C 0.8806(2) 0.7339(2) 0.6046(1)
C3_6 C 0.9745(2) 0.6628(2) 0.6209(2)
H1_6 H 0.8864(2) 0.7991(2) 0.5683(1)
H2_6 H 0.8661(2) 0.7789(2) 0.6470(1)
H5_6 H 0.9873(2) 0.6146(2) 0.5791(2)
H6_6 H 0.9691(2) 0.6001(2) 0.6585(2)
P1_7 P 0.7149(1) 0.1251(1) 0.9251(1)
P2_7 P 0.3338(1) 0.1675(1) 0.8306(1)
O3_7 O 0.3445(1) 0.0973(2) 0.7612(1)
O4_7 O 0.3171(1) 0.0712(2) 0.8902(1)
O5_4 O 0.7111(1) 0.0064(2) 0.8768(1)
C1_7 C 0.6194(2) 0.2339(2) 0.8954(1)
C2_7 C 0.4421(2) 0.2535(2) 0.8567(1)
C3_7 C 0.5255(2) 0.1628(2) 0.8791(2)
H1_7 H 0.6136(2) 0.2991(2) 0.9317(1)
H2_7 H 0.6339(2) 0.2789(2) 0.8530(1)
H3_7 H 0.4570(2) 0.3071(2) 0.8174(1)
H4_7 H 0.4332(2) 0.3112(2) 0.8959(1)
H5_7 H 0.5127(2) 0.1146(2) 0.9209(2)
H6_7 H 0.5309(2) 0.1001(2) 0.8415(2)
O11_4 O 0.2889(1) 0.0064(2) 0.6232(1)
O7_7 O 0.1676(2) 0.9909(2) 0.7280(1)
O8_7 O 0.4567(1) 0.8757(2) 0.9245(1)
O9_7 O 0.3091(2) 0.8487(2) 0.8095(1)
O10_7 O 0.4300(2) 0.8625(2) 0.6977(1)
H7_7 H 0.459225 0.92494 0.666747
H8_7 H 0.423357 0.775923 0.674132
P1_8 P 0.2851(1) 0.1251(1) 0.5749(1)
P2_8 P 0.6662(1) 0.1675(1) 0.6694(1)
O3_8 O 0.6555(1) 0.0973(2) 0.7388(1)
O4_8 O 0.6829(1) 0.0712(2) 0.6098(1)
C1_8 C 0.3806(2) 0.2339(2) 0.6046(1)
C2_8 C 0.5579(2) 0.2535(2) 0.6433(1)
C3_8 C 0.4745(2) 0.1628(2) 0.6209(2)
H1_8 H 0.3864(2) 0.2991(2) 0.5683(1)
H2_8 H 0.3661(2) 0.2789(2) 0.6470(1)
H3_8 H 0.5430(2) 0.3071(2) 0.6826(1)
H4_8 H 0.5668(2) 0.3112(2) 0.6041(1)
H5_8 H 0.4873(2) 0.1146(2) 0.5791(2)
H6_8 H 0.4691(2) 0.1001(2) 0.6585(2)
O7_8 O 0.8324(2) 0.9909(2) 0.7720(1)
O8_8 O 0.5433(1) 0.8757(2) 0.5755(1)
O9_8 O 0.6909(2) 0.8487(2) 0.6905(1)
O10_8 O 0.5700(2) 0.8625(2) 0.8023(1)
H7_8 H 0.540775 0.92494 0.833253
H8_8 H 0.576643 0.775923 0.825868
N1 N 0.4473(5) 0.5943(4) 0.6824(3)
H9 H 0.518315 0.5943 0.6824
H10 H 0.419721 0.6752 0.657033
H11 H 0.419721 0.5134 0.657033
H12 H 0.431444 0.5943 0.733134
N1_2 N 0.5527(5) 0.5943(4) 0.8176(3)
H9_2 H 0.481685 0.5943 0.8176
H10_2 H 0.580279 0.6752 0.842967
H11_2 H 0.580279 0.5134 0.842967
H12_2 H 0.568556 0.5943 0.766866
H9_3 H 0.0183148 0.0943 0.6824
N1_3 N 0.9473(5) 0.0943(4) 0.6824(3)
H10_3 H 0.919721 0.1752 0.657033
H11_3 H 0.919721 0.0133996 0.657033
H12_3 H 0.931444 0.0943 0.733134
N1_4 N 0.0527(5) 0.0943(4) 0.8176(3)
H10_4 H 0.0802793 0.1752 0.842967
H11_4 H 0.0802793 0.0133996 0.842967
H12_4 H 0.0685561 0.0943 0.766866
H9_4 H 0.981685 0.0943 0.8176
N1_5 N 0.5527(5) 0.4057(4) 0.3176(3)
H9_5 H 0.481685 0.4057 0.3176
H10_5 H 0.580279 0.3248 0.342967
H11_5 H 0.580279 0.4866 0.342967
H12_5 H 0.568556 0.4057 0.266866
N1_6 N 0.4473(5) 0.4057(4) 0.1824(3)
H9_6 H 0.518315 0.4057 0.1824
H10_6 H 0.419721 0.3248 0.157033
H11_6 H 0.419721 0.4866 0.157033
H12_6 H 0.431444 0.4057 0.233134
N1_7 N 0.0527(5) 0.9057(4) 0.3176(3)
H10_7 H 0.0802793 0.8248 0.342967
H11_7 H 0.0802793 0.9866 0.342967
H12_7 H 0.0685561 0.9057 0.266866
H9_7 H 0.981685 0.9057 0.3176
H9_8 H 0.0183148 0.9057 0.1824
N1_8 N 0.9473(5) 0.9057(4) 0.1824(3)
H10_8 H 0.919721 0.8248 0.157033
H11_8 H 0.919721 0.9866 0.157033
H12_8 H 0.931444 0.9057 0.233134
loop_
_geom_bond_atom_site_label_1
_geom_bond_atom_site_label_2
_geom_bond_site_symmetry_1
_geom_bond_site_symmetry_2
V1 O4 1_555 1_555
V2 O3 1_555 1_555
P2 O3 1_555 1_555
O4 P2 1_555 1_555
O6 P2 1_555 1_555
O7 V2 1_555 1_555
O8 V1 1_555 1_555
O9 V1 1_555 1_555
C2 P2 1_555 1_555
O10 V2 1_555 1_555
H3 C2 1_555 1_555
H4 C2 1_555 1_555
O11 V2 1_555 1_555
O12 V2 1_555 1_555
V3 O6 1_555 1_555
O14 V1 1_555 1_555
V2 O9 1_555 1_555
O10 H7 1_555 1_555
O10 H8 1_555 1_555
P1 O1 1_555 1_555
O2 P1 1_555 1_555
O5 P1 1_555 1_555
C1 P1 1_555 1_555
C3 C1 1_555 1_555
H1 C1 1_555 1_555
H2 C1 1_555 1_555
H5 C3 1_555 1_555
H6 C3 1_555 1_555
V5 O2 1_555 1_555
V6 O5 1_555 1_555
P1_2 O1_2 1_555 1_555
O1_2 V4_2 1_555 1_555
O2_2 P1_2 1_555 1_555
O11 P1_2 1_555 1_555
C1_2 P1_2 1_555 1_555
C3_2 C1_2 1_555 1_555
H1_2 C1_2 1_555 1_555
H2_2 C1_2 1_555 1_555
H5_2 C3_2 1_555 1_555
H6_2 C3_2 1_555 1_555
V5_2 O2_2 1_555 1_555
V1_2 O4_2 1_555 1_555
V6 O3_2 1_555 1_555
P2_2 O3_2 1_555 1_555
O4_2 P2_2 1_555 1_555
O6_2 P2_2 1_555 1_555
O7_2 V6 1_555 1_555
O8_2 V1_2 1_555 1_555
O9_2 V1_2 1_555 1_555
C2_2 P2_2 1_555 1_555
O10_2 V6 1_555 1_555
H3_2 C2_2 1_555 1_555
H4_2 C2_2 1_555 1_555
O12_2 V6 1_555 1_555
V3_2 O6_2 1_555 1_555
O13_2 V1_2 1_555 1_555
O14_2 V1_2 1_555 1_555
V6 O9_2 1_555 1_555
O10_2 H7_2 1_555 1_555
O10_2 H8_2 1_555 1_555
O7_3 V3_2 1_555 1_555
O8_3 V5 1_555 1_555
O9_3 V5 1_555 1_555
O10_3 V3_2 1_555 1_555
V3_2 O9_3 1_555 1_555
O10_3 H7_3 1_555 1_555
O10_3 H8_3 1_555 1_555
P1_3 O1_3 1_555 1_555
P2_3 O3_3 1_555 1_555
O14 P1_3 1_555 1_555
O4_3 P2_3 1_555 1_555
O5_2 P1_3 1_555 1_555
O12_2 P2_3 1_555 1_555
C1_3 P1_3 1_555 1_555
C2_3 P2_3 1_555 1_555
C3_3 C1_3 1_555 1_555
H1_3 C1_3 1_555 1_555
H2_3 C1_3 1_555 1_555
H3_3 C2_3 1_555 1_555
H4_3 C2_3 1_555 1_555
H5_3 C3_3 1_555 1_555
H6_3 C3_3 1_555 1_555
C2_3 C3_3 1_555 1_555
O7_4 V3 1_555 1_555
O8_4 V5_2 1_555 1_555
O9_4 V5_2 1_555 1_555
O10_4 V3 1_555 1_555
O13_4 V5_2 1_555 1_555
V3 O9_4 1_555 1_555
O10_4 H7_4 1_555 1_555
O10_4 H8_4 1_555 1_555
P1_4 O1_4 1_555 1_555
P2_4 O3_4 1_555 1_555
O1_4 V4_4 1_555 1_555
O14_2 P1_4 1_555 1_555
O4_4 P2_4 1_555 1_555
O11_2 P1_4 1_555 1_555
O12 P2_4 1_555 1_555
C1_4 P1_4 1_555 1_555
C2_4 P2_4 1_555 1_555
C3_4 C1_4 1_555 1_555
H1_4 C1_4 1_555 1_555
H2_4 C1_4 1_555 1_555
H3_4 C2_4 1_555 1_555
H4_4 C2_4 1_555 1_555
H5_4 C3_4 1_555 1_555
H6_4 C3_4 1_555 1_555
C2_4 C3_4 1_555 1_555
P1_5 O13 1_555 1_555
O2_3 P1_5 1_555 1_555
O5_3 P1_5 1_555 1_555
C1_5 P1_5 1_555 1_555
C3_5 C1_5 1_555 1_555
H1_5 C1_5 1_555 1_555
H2_5 C1_5 1_555 1_555
H5_5 C3_5 1_555 1_555
H6_5 C3_5 1_555 1_555
V4_3 O2_3 1_555 1_555
V6_2 O5_3 1_555 1_555
V4 O4_5 1_555 1_555
V2_2 O3_5 1_555 1_555
P2_5 O3_5 1_555 1_555
O4_5 P2_5 1_555 1_555
O6_3 P2_5 1_555 1_555
O7_5 V2_2 1_555 1_555
O8_5 V4 1_555 1_555
O9_5 V4 1_555 1_555
C2_5 P2_5 1_555 1_555
O10_5 V2_2 1_555 1_555
H3_5 C2_5 1_555 1_555
H4_5 C2_5 1_555 1_555
O11_3 V2_2 1_555 1_555
O12_3 V2_2 1_555 1_555
V3_3 O6_3 1_555 1_555
O14_3 V4 1_555 1_555
V2_2 O9_5 1_555 1_555
O10_5 H7_5 1_555 1_555
O10_5 H8_5 1_555 1_555
V4_2 O4_6 1_555 1_555
V6_2 O3_6 1_555 1_555
P2_6 O3_6 1_555 1_555
O4_6 P2_6 1_555 1_555
O6_4 P2_6 1_555 1_555
O7_6 V6_2 1_555 1_555
O8_6 V4_2 1_555 1_555
O9_6 V4_2 1_555 1_555
C2_6 P2_6 1_555 1_555
O10_6 V6_2 1_555 1_555
H3_6 C2_6 1_555 1_555
H4_6 C2_6 1_555 1_555
O12_4 V6_2 1_555 1_555
V3_4 O6_4 1_555 1_555
O14_4 V4_2 1_555 1_555
V6_2 O9_6 1_555 1_555
O10_6 H7_6 1_555 1_555
O10_6 H8_6 1_555 1_555
P1_6 O13_2 1_555 1_555
O2_4 P1_6 1_555 1_555
O11_3 P1_6 1_555 1_555
C1_6 P1_6 1_555 1_555
C3_6 C1_6 1_555 1_555
H1_6 C1_6 1_555 1_555
H2_6 C1_6 1_555 1_555
H5_6 C3_6 1_555 1_555
H6_6 C3_6 1_555 1_555
V4_4 O2_4 1_555 1_555
P1_7 O13_3 1_555 1_555
P2_7 O3_7 1_555 1_555
O14_3 P1_7 1_555 1_555
O4_7 P2_7 1_555 1_555
O5_4 P1_7 1_555 1_555
O12_4 P2_7 1_555 1_555
C1_7 P1_7 1_555 1_555
C2_7 P2_7 1_555 1_555
C3_7 C1_7 1_555 1_555
H1_7 C1_7 1_555 1_555
H2_7 C1_7 1_555 1_555
H3_7 C2_7 1_555 1_555
H4_7 C2_7 1_555 1_555
H5_7 C3_7 1_555 1_555
H6_7 C3_7 1_555 1_555
C2_7 C3_7 1_555 1_555
O7_7 V3_4 1_555 1_555
O8_7 V4_3 1_555 1_555
O9_7 V4_3 1_555 1_555
O10_7 V3_4 1_555 1_555
V3_4 O9_7 1_555 1_555
O10_7 H7_7 1_555 1_555
O10_7 H8_7 1_555 1_555
P1_8 O13_4 1_555 1_555
P2_8 O3_8 1_555 1_555
O14_4 P1_8 1_555 1_555
O4_8 P2_8 1_555 1_555
O11_4 P1_8 1_555 1_555
O12_3 P2_8 1_555 1_555
C1_8 P1_8 1_555 1_555
C2_8 P2_8 1_555 1_555
C3_8 C1_8 1_555 1_555
H1_8 C1_8 1_555 1_555
H2_8 C1_8 1_555 1_555
H3_8 C2_8 1_555 1_555
H4_8 C2_8 1_555 1_555
H5_8 C3_8 1_555 1_555
H6_8 C3_8 1_555 1_555
C2_8 C3_8 1_555 1_555
O7_8 V3_3 1_555 1_555
O8_8 V4_4 1_555 1_555
O9_8 V4_4 1_555 1_555
O10_8 V3_3 1_555 1_555
V3_3 O9_8 1_555 1_555
O10_8 H7_8 1_555 1_555
O10_8 H8_8 1_555 1_555
N1 H9 1_555 1_555
N1 H10 1_555 1_555
N1 H11 1_555 1_555
N1 H12 1_555 1_555
N1_2 H9_2 1_555 1_555
N1_2 H10_2 1_555 1_555
N1_2 H11_2 1_555 1_555
N1_2 H12_2 1_555 1_555
N1_3 H10_3 1_555 1_555
N1_3 H11_3 1_555 1_555
N1_3 H12_3 1_555 1_555
N1_4 H10_4 1_555 1_555
N1_4 H11_4 1_555 1_555
N1_4 H12_4 1_555 1_555
N1_5 H9_5 1_555 1_555
N1_5 H10_5 1_555 1_555
N1_5 H11_5 1_555 1_555
N1_5 H12_5 1_555 1_555
N1_6 H9_6 1_555 1_555
N1_6 H10_6 1_555 1_555
N1_6 H11_6 1_555 1_555
N1_6 H12_6 1_555 1_555
N1_7 H10_7 1_555 1_555
N1_7 H11_7 1_555 1_555
N1_7 H12_7 1_555 1_555
N1_8 H10_8 1_555 1_555
N1_8 H11_8 1_555 1_555
N1_8 H12_8 1_555 1_555

#END
