
###############################################################################
#
# This file contains modified crystal structure data generated from the
# MOF subset of the Cambridge Structural Database (CSD) v543 
# hosted by the Cambridge Crystallographic Data Centre (CCDC).
#
# This work is licensed under the Creative Commons
# Attribution-NonCommercial-ShareAlike 4.0 International License.
# To view a copy of this license, visit
# http://creativecommons.org/licenses/by-nc-sa/4.0/
# or send a letter to
# Creative Commons, PO Box 1866, Mountain View, CA 94042, USA.
#
# CIF created using the CSD Python API on 29 September 2022
# The structure has been converted into the P1 space group
# The structure has a 3D framework
# The original CSD entry QADWIE is in the monoclinic crystal system
# The framework has been calculated to contain at least 10.0% void space
# The void calculation uses a probe of radius 1.32A, grid spacing 0.4
# The framework is charged, counterions have been retained in the structure
#
###############################################################################

data_QADWIE
_chemical_formula_moiety         '(C32 H36 Gd4 N4 O32 P4)n'
_symmetry_cell_setting           triclinic
_symmetry_space_group_name_H-M   'P 1'
_symmetry_Int_Tables_number      1
_space_group_name_Hall           'P 1'
loop_
_symmetry_equiv_pos_site_id
_symmetry_equiv_pos_as_xyz
1 x,y,z
_cell_length_a                   9.7306(19)
_cell_length_b                   10.530(2)
_cell_length_c                   16.416(5)
_cell_angle_alpha                90
_cell_angle_beta                 112.13(2)
_cell_angle_gamma                90
_cell_volume                     1558.12
loop_
_atom_site_label
_atom_site_type_symbol
_atom_site_fract_x
_atom_site_fract_y
_atom_site_fract_z
C12 C 0.3579(6) 0.0729(6) 0.0295(4)
H11 H 0.4506 0.1028 0.0661
C6 C 0.0660(5) 0.0714(4) 0.1280(3)
H5 H 0.0903 0.1349 0.0928
H6 H 0.1398 0.0046 0.1410
O1 O 0.0620(3) 0.0420(3) 0.29066(17)
O2 O 0.2371(3) 0.2032(3) 0.26798(19)
H7 H 0.2840 0.1730 0.3166
P1 P 0.07588(10) 0.14354(9) 0.23021(6)
C9 C 0.0715(4) 0.0326(3) 0.5320(2)
O10 O 0.1857(3) 0.0206(3) 0.51459(18)
O11 O 0.0619(3) 0.0910(3) 0.59524(18)
C10 C 0.4835(4) 0.0601(3) 0.4709(2)
O12 O 0.5738(3) 0.1480(3) 0.49283(19)
O13 O 0.3627(3) 0.0568(3) 0.40512(17)
C13 C 0.2558(8) 0.1542(6) 0.9743(4)
H12 H 0.2798 0.2394 0.9724
C14 C 0.1183(7) 0.1109(4) 0.9217(3)
H13 H 0.0489 0.1668 0.8844
Gd4 Gd 0.819781(17) 0.111963(16) 0.606580(10)
C8 C 0.5165(4) 0.9399(3) 0.5291(2)
Gd1 Gd 0.180219(17) 0.888037(16) 0.393420(10)
O7 O 0.4262(3) 0.8520(3) 0.50717(19)
O8 O 0.6373(3) 0.9432(3) 0.59488(17)
O9 O 0.3212(4) 0.8160(4) 0.3099(3)
H8 H 0.2771 0.7593 0.2723
H9 H 0.3947 0.8610 0.3114
C15 C 0.0817(5) 0.9829(4) 0.9240(3)
N2 N 0.1867(4) 0.9038(3) 0.9785(2)
O16 O 0.0385(3) 0.7537(2) 0.78952(16)
O17 O 0.1546(3) 0.7821(3) 0.98293(17)
Gd5 Gd 0.180219(17) 0.611963(16) 0.893420(10)
O19 O 0.0385(3) 0.7463(2) 0.28952(16)
O21 O 0.1546(3) 0.7179(3) 0.48293(17)
C5 C 0.9183(5) 0.0171(4) 0.0760(3)
N1 N 0.8133(4) 0.0962(3) 0.0215(2)
O3 O 0.9615(3) 0.2463(2) 0.21048(16)
O4 O 0.8454(3) 0.2179(3) 0.01707(17)
O18 O 0.6788(4) 0.1840(4) 0.6901(3)
H17 H 0.7229 0.2407 0.7277
H18 H 0.6053 0.1390 0.6886
Gd3 Gd 0.819781(17) 0.388037(16) 0.106580(10)
O20 O 0.9615(3) 0.2537(2) 0.71048(16)
O22 O 0.8454(3) 0.2821(3) 0.51707(17)
C3 C 0.7442(8) 0.8458(6) 0.0257(4)
H3 H 0.7202 0.7606 0.0276
C4 C 0.8817(7) 0.8891(4) 0.0783(3)
H4 H 0.9511 0.8332 0.1156
C7 C 0.9285(4) 0.9674(3) 0.4680(2)
O5 O 0.8143(3) 0.9794(3) 0.48541(18)
O6 O 0.9381(3) 0.9090(3) 0.40476(18)
C16 C 0.9340(5) 0.9286(4) 0.8720(3)
H14 H 0.9097 0.8651 0.9072
H15 H 0.8602 0.9954 0.8590
O14 O 0.9380(3) 0.9580(3) 0.70934(17)
O15 O 0.7629(3) 0.7968(3) 0.73202(19)
H16 H 0.7160 0.8270 0.6834
P2 P 0.92412(10) 0.85646(9) 0.76979(6)
C1 C 0.3229(5) 0.5539(5) 0.5307(3)
H1 H 0.3926 0.6102 0.5673
C2 C 0.3579(6) 0.4271(6) 0.5295(4)
H2 H 0.4506 0.3972 0.5661
C3_2 C 0.2558(8) 0.3458(6) 0.4743(4)
H3_2 H 0.2798 0.2606 0.4724
C4_2 C 0.1183(7) 0.3891(4) 0.4217(3)
H4_2 H 0.0489 0.3332 0.3844
C5_2 C 0.0817(5) 0.5171(4) 0.4240(3)
C7_2 C 0.0715(4) 0.4674(3) 0.0320(2)
N1_2 N 0.1867(4) 0.5962(3) 0.4785(2)
O5_2 O 0.1857(3) 0.4794(3) 0.01459(18)
O6_2 O 0.0619(3) 0.4090(3) 0.09524(18)
O23 O 0.4262(3) 0.6480(3) 0.00717(19)
C16_2 C 0.0660(5) 0.4286(4) 0.6280(3)
H14_2 H 0.0903 0.3651 0.5928
H15_2 H 0.1398 0.4954 0.6410
O14_2 O 0.0620(3) 0.4580(3) 0.79066(17)
O15_2 O 0.2371(3) 0.2968(3) 0.76798(19)
H16_2 H 0.2840 0.3270 0.8166
O18_2 O 0.3212(4) 0.6840(4) 0.8099(3)
H17_2 H 0.2771 0.7407 0.7723
H18_2 H 0.3947 0.6390 0.8114
P2_2 P 0.07588(10) 0.35646(9) 0.73021(6)
O24 O 0.3627(3) 0.4432(3) 0.90512(17)
C6_2 C 0.9340(5) 0.5714(4) 0.3720(3)
H5_2 H 0.9097 0.6349 0.4072
H6_2 H 0.8602 0.5046 0.3590
O1_2 O 0.9380(3) 0.5420(3) 0.20934(17)
O2_2 O 0.7629(3) 0.7032(3) 0.23202(19)
H7_2 H 0.7160 0.6730 0.1834
O9_2 O 0.6788(4) 0.3160(4) 0.1901(3)
H8_2 H 0.7229 0.2593 0.2277
H9_2 H 0.6053 0.3610 0.1886
P1_2 P 0.92412(10) 0.64354(9) 0.26979(6)
C10_2 C 0.5165(4) 0.5601(3) 0.0291(2)
O13_2 O 0.6373(3) 0.5568(3) 0.09488(17)
C8_2 C 0.4835(4) 0.4399(3) 0.9709(2)
O7_2 O 0.5738(3) 0.3520(3) 0.99283(19)
C9_2 C 0.9285(4) 0.5326(3) 0.9680(2)
O10_2 O 0.8143(3) 0.5206(3) 0.98541(18)
O11_2 O 0.9381(3) 0.5910(3) 0.90476(18)
C11 C 0.6771(5) 0.4461(5) 0.4693(3)
H10 H 0.6074 0.3898 0.4327
C12_2 C 0.6421(6) 0.5729(6) 0.4705(4)
H11_2 H 0.5494 0.6028 0.4339
C13_2 C 0.7442(8) 0.6542(6) 0.5257(4)
H12_2 H 0.7202 0.7394 0.5276
C14_2 C 0.8817(7) 0.6109(4) 0.5783(3)
H13_2 H 0.9511 0.6668 0.6156
C15_2 C 0.9183(5) 0.4829(4) 0.5760(3)
N2_2 N 0.8133(4) 0.4038(3) 0.5215(2)
C11_2 C 0.3229(5) 0.9461(5) 0.0307(3)
H10_2 H 0.3926 0.8898 0.0673
C1_2 C 0.6771(5) 0.0539(5) 0.9693(3)
H1_2 H 0.6074 0.1102 0.9327
C2_2 C 0.6421(6) 0.9271(6) 0.9705(4)
H2_2 H 0.5494 0.8972 0.9339
loop_
_geom_bond_atom_site_label_1
_geom_bond_atom_site_label_2
_geom_bond_site_symmetry_1
_geom_bond_site_symmetry_2
H11 C12 1_555 1_555
H5 C6 1_555 1_555
H6 C6 1_555 1_555
O1 P1 1_555 1_555
O2 H7 1_555 1_555
P1 C6 1_555 1_555
O11 C9 1_555 1_555
O12 C10 1_555 1_555
H12 C13 1_555 1_555
C14 C13 1_555 1_555
H13 C14 1_555 1_555
O2 P1 1_555 1_555
C9 O10 1_555 1_555
C10 O13 1_555 1_555
O12 Gd4 1_555 1_555
C8 O7 1_555 1_555
O7 Gd1 1_555 1_555
O8 C8 1_555 1_555
O9 Gd1 1_555 1_555
H8 O9 1_555 1_555
H9 O9 1_555 1_555
O17 N2 1_555 1_555
Gd5 O16 1_555 1_555
O19 Gd1 1_555 1_555
O21 Gd1 1_555 1_555
C15 N2 1_555 1_555
O17 Gd5 1_555 1_555
O4 N1 1_555 1_555
O18 Gd4 1_555 1_555
H17 O18 1_555 1_555
H18 O18 1_555 1_555
Gd3 O3 1_555 1_555
O20 Gd4 1_555 1_555
O22 Gd4 1_555 1_555
C5 N1 1_555 1_555
O4 Gd3 1_555 1_555
H3 C3 1_555 1_555
C4 C3 1_555 1_555
H4 C4 1_555 1_555
C7 O5 1_555 1_555
O6 C7 1_555 1_555
H14 C16 1_555 1_555
H15 C16 1_555 1_555
O15 H16 1_555 1_555
P2 C16 1_555 1_555
O14 P2 1_555 1_555
O15 P2 1_555 1_555
C1 H1 1_555 1_555
C2 C1 1_555 1_555
H2 C2 1_555 1_555
C3_2 C2 1_555 1_555
H3_2 C3_2 1_555 1_555
C4_2 C3_2 1_555 1_555
H4_2 C4_2 1_555 1_555
C5_2 C4_2 1_555 1_555
C7_2 O5_2 1_555 1_555
N1_2 C1 1_555 1_555
O21 N1_2 1_555 1_555
O6_2 C7_2 1_555 1_555
C5_2 N1_2 1_555 1_555
H14_2 C16_2 1_555 1_555
H15_2 C16_2 1_555 1_555
O14_2 Gd5 1_555 1_555
O15_2 H16_2 1_555 1_555
O18_2 Gd5 1_555 1_555
H17_2 O18_2 1_555 1_555
H18_2 O18_2 1_555 1_555
P2_2 C16_2 1_555 1_555
O24 Gd5 1_555 1_555
O14_2 P2_2 1_555 1_555
O15_2 P2_2 1_555 1_555
H5_2 C6_2 1_555 1_555
H6_2 C6_2 1_555 1_555
Gd3 O1_2 1_555 1_555
O1_2 P1_2 1_555 1_555
O2_2 H7_2 1_555 1_555
O9_2 Gd3 1_555 1_555
H8_2 O9_2 1_555 1_555
H9_2 O9_2 1_555 1_555
P1_2 C6_2 1_555 1_555
O23 C10_2 1_555 1_555
O13_2 Gd3 1_555 1_555
O2_2 P1_2 1_555 1_555
C10_2 O13_2 1_555 1_555
C8_2 O7_2 1_555 1_555
O24 C8_2 1_555 1_555
O11_2 C9_2 1_555 1_555
C11 H10 1_555 1_555
C12_2 C11 1_555 1_555
H11_2 C12_2 1_555 1_555
C13_2 C12_2 1_555 1_555
H12_2 C13_2 1_555 1_555
C14_2 C13_2 1_555 1_555
H13_2 C14_2 1_555 1_555
C15_2 C14_2 1_555 1_555
N2_2 C11 1_555 1_555
O22 N2_2 1_555 1_555
C9_2 O10_2 1_555 1_555
C15_2 N2_2 1_555 1_555
C11_2 H10_2 1_555 1_555
C1_2 H1_2 1_555 1_555
H2_2 C2_2 1_555 1_555

#END
