
###############################################################################
#
# This file contains modified crystal structure data generated from the
# MOF subset of the Cambridge Structural Database (CSD) v543 
# hosted by the Cambridge Crystallographic Data Centre (CCDC).
#
# This work is licensed under the Creative Commons
# Attribution-NonCommercial-ShareAlike 4.0 International License.
# To view a copy of this license, visit
# http://creativecommons.org/licenses/by-nc-sa/4.0/
# or send a letter to
# Creative Commons, PO Box 1866, Mountain View, CA 94042, USA.
#
# CIF created using the CSD Python API on 29 September 2022
# The structure has been converted into the P1 space group
# The structure has a 3D framework
# The original CSD entry QADWEA is in the monoclinic crystal system
# The framework has been calculated to contain at least 10.0% void space
# The void calculation uses a probe of radius 1.32A, grid spacing 0.4
# The framework is charged, counterions have been retained in the structure
#
###############################################################################

data_QADWEA
_chemical_formula_moiety         '(C32 H36 Eu4 N4 O32 P4)n'
_symmetry_cell_setting           triclinic
_symmetry_space_group_name_H-M   'P 1'
_symmetry_Int_Tables_number      1
_space_group_name_Hall           'P 1'
loop_
_symmetry_equiv_pos_site_id
_symmetry_equiv_pos_as_xyz
1 x,y,z
_cell_length_a                   9.7558(2)
_cell_length_b                   10.5549(2)
_cell_length_c                   16.5111(4)
_cell_angle_alpha                90
_cell_angle_beta                 112.447(2)
_cell_angle_gamma                90
_cell_volume                     1571.36
loop_
_atom_site_label
_atom_site_type_symbol
_atom_site_fract_x
_atom_site_fract_y
_atom_site_fract_z
C12 C 0.3538(7) 0.0752(7) 0.0280(5)
H11 H 0.4466 0.1056 0.0640
C6 C 0.0670(5) 0.0724(5) 0.1292(3)
H5 H 0.0904 0.1364 0.0943
H6 H 0.1421 0.0068 0.1426
O1 O 0.0602(3) 0.0407(3) 0.28972(19)
O2 O 0.2346(3) 0.2043(4) 0.2702(2)
H7 H 0.2862 0.1643 0.3138
P1 P 0.07484(12) 0.14356(12) 0.23056(7)
C9 C 0.0717(4) 0.0327(4) 0.5319(3)
O10 O 0.1858(3) 0.0196(3) 0.5153(2)
O11 O 0.0618(3) 0.0908(3) 0.5946(2)
C10 C 0.4823(4) 0.0599(4) 0.4716(3)
O12 O 0.5735(3) 0.1482(3) 0.4932(2)
O13 O 0.3605(3) 0.0592(3) 0.40711(19)
C13 C 0.2505(9) 0.1559(7) 0.9742(4)
H12 H 0.2725 0.2414 0.9729
C14 C 0.1126(8) 0.1098(5) 0.9216(4)
H13 H 0.0418 0.1648 0.8847
Eu4 Eu 0.82053(2) 0.11176(2) 0.606652(12)
C8 C 0.5177(4) 0.9401(4) 0.5284(3)
Eu1 Eu 0.17947(2) 0.88824(2) 0.393348(12)
O7 O 0.4265(3) 0.8518(3) 0.5068(2)
O8 O 0.6395(3) 0.9408(3) 0.59289(19)
O9 O 0.3205(4) 0.8226(5) 0.3091(3)
H8 H 0.2837 0.7680 0.2780
H9 H 0.3985 0.8635 0.3116
C15 C 0.0789(5) 0.9835(5) 0.9232(3)
N2 N 0.1856(4) 0.9053(4) 0.9773(3)
O16 O 0.0391(3) 0.7543(3) 0.78961(18)
O17 O 0.1560(4) 0.7834(3) 0.9822(2)
Eu5 Eu 0.17947(2) 0.61176(2) 0.893348(12)
O19 O 0.0391(3) 0.7457(3) 0.28961(18)
O21 O 0.1560(4) 0.7166(3) 0.4822(2)
C5 C 0.9211(5) 0.0165(5) 0.0768(3)
N1 N 0.8144(4) 0.0947(4) 0.0227(3)
O3 O 0.9609(3) 0.2457(3) 0.21039(18)
O4 O 0.8440(4) 0.2166(3) 0.0178(2)
O18 O 0.6795(4) 0.1774(5) 0.6909(3)
H17 H 0.7163 0.2320 0.7220
H18 H 0.6015 0.1365 0.6884
Eu3 Eu 0.82053(2) 0.38824(2) 0.106652(12)
O20 O 0.9609(3) 0.2543(3) 0.71039(18)
O22 O 0.8440(4) 0.2834(3) 0.5178(2)
C3 C 0.7495(9) 0.8441(7) 0.0258(4)
H3 H 0.7275 0.7586 0.0271
C4 C 0.8874(8) 0.8902(5) 0.0784(4)
H4 H 0.9582 0.8352 0.1153
C7 C 0.9283(4) 0.9673(4) 0.4681(3)
O5 O 0.8142(3) 0.9804(3) 0.4847(2)
O6 O 0.9382(3) 0.9092(3) 0.4054(2)
C16 C 0.9330(5) 0.9276(5) 0.8708(3)
H14 H 0.9096 0.8636 0.9057
H15 H 0.8579 0.9932 0.8574
O14 O 0.9398(3) 0.9593(3) 0.71028(19)
O15 O 0.7654(3) 0.7957(4) 0.7298(2)
H16 H 0.7138 0.8357 0.6862
P2 P 0.92516(12) 0.85644(12) 0.76944(7)
C1 C 0.3214(6) 0.5510(6) 0.5291(4)
H1 H 0.3926 0.6064 0.5654
C2 C 0.3538(7) 0.4248(7) 0.5280(5)
H2 H 0.4466 0.3944 0.5640
C3_2 C 0.2505(9) 0.3441(7) 0.4742(4)
H3_2 H 0.2725 0.2586 0.4729
C4_2 C 0.1126(8) 0.3902(5) 0.4216(4)
H4_2 H 0.0418 0.3352 0.3847
C5_2 C 0.0789(5) 0.5165(5) 0.4232(3)
C7_2 C 0.0717(4) 0.4673(4) 0.0319(3)
N1_2 N 0.1856(4) 0.5947(4) 0.4773(3)
O5_2 O 0.1858(3) 0.4804(3) 0.0153(2)
O6_2 O 0.0618(3) 0.4092(3) 0.0946(2)
O23 O 0.4265(3) 0.6482(3) 0.0068(2)
C16_2 C 0.0670(5) 0.4276(5) 0.6292(3)
H14_2 H 0.0904 0.3636 0.5943
H15_2 H 0.1421 0.4932 0.6426
O14_2 O 0.0602(3) 0.4593(3) 0.78972(19)
O15_2 O 0.2346(3) 0.2957(4) 0.7702(2)
H16_2 H 0.2862 0.3357 0.8138
O18_2 O 0.3205(4) 0.6774(5) 0.8091(3)
H17_2 H 0.2837 0.7320 0.7780
H18_2 H 0.3985 0.6365 0.8116
P2_2 P 0.07484(12) 0.35644(12) 0.73056(7)
O24 O 0.3605(3) 0.4408(3) 0.90711(19)
C6_2 C 0.9330(5) 0.5724(5) 0.3708(3)
H5_2 H 0.9096 0.6364 0.4057
H6_2 H 0.8579 0.5068 0.3574
O1_2 O 0.9398(3) 0.5407(3) 0.21028(19)
O2_2 O 0.7654(3) 0.7043(4) 0.2298(2)
H7_2 H 0.7138 0.6643 0.1862
O9_2 O 0.6795(4) 0.3226(5) 0.1909(3)
H8_2 H 0.7163 0.2680 0.2220
H9_2 H 0.6015 0.3635 0.1884
P1_2 P 0.92516(12) 0.64356(12) 0.26944(7)
C10_2 C 0.5177(4) 0.5599(4) 0.0284(3)
O13_2 O 0.6395(3) 0.5592(3) 0.09289(19)
C8_2 C 0.4823(4) 0.4401(4) 0.9716(3)
O7_2 O 0.5735(3) 0.3518(3) 0.9932(2)
C9_2 C 0.9283(4) 0.5327(4) 0.9681(3)
O10_2 O 0.8142(3) 0.5196(3) 0.9847(2)
O11_2 O 0.9382(3) 0.5908(3) 0.9054(2)
C11 C 0.6786(6) 0.4490(6) 0.4709(4)
H10 H 0.6074 0.3936 0.4346
C12_2 C 0.6462(7) 0.5752(7) 0.4720(5)
H11_2 H 0.5534 0.6056 0.4360
C13_2 C 0.7495(9) 0.6559(7) 0.5258(4)
H12_2 H 0.7275 0.7414 0.5271
C14_2 C 0.8874(8) 0.6098(5) 0.5784(4)
H13_2 H 0.9582 0.6648 0.6153
C15_2 C 0.9211(5) 0.4835(5) 0.5768(3)
N2_2 N 0.8144(4) 0.4053(4) 0.5227(3)
C11_2 C 0.3214(6) 0.9490(6) 0.0291(4)
H10_2 H 0.3926 0.8936 0.0654
C1_2 C 0.6786(6) 0.0510(6) 0.9709(4)
H1_2 H 0.6074 0.1064 0.9346
C2_2 C 0.6462(7) 0.9248(7) 0.9720(5)
H2_2 H 0.5534 0.8944 0.9360
loop_
_geom_bond_atom_site_label_1
_geom_bond_atom_site_label_2
_geom_bond_site_symmetry_1
_geom_bond_site_symmetry_2
H11 C12 1_555 1_555
H5 C6 1_555 1_555
H6 C6 1_555 1_555
O1 P1 1_555 1_555
O2 H7 1_555 1_555
P1 C6 1_555 1_555
O11 C9 1_555 1_555
O12 C10 1_555 1_555
H12 C13 1_555 1_555
C14 C13 1_555 1_555
H13 C14 1_555 1_555
O2 P1 1_555 1_555
C9 O10 1_555 1_555
C10 O13 1_555 1_555
O12 Eu4 1_555 1_555
C8 O7 1_555 1_555
O7 Eu1 1_555 1_555
O8 C8 1_555 1_555
O9 Eu1 1_555 1_555
H8 O9 1_555 1_555
H9 O9 1_555 1_555
O17 N2 1_555 1_555
Eu5 O16 1_555 1_555
O19 Eu1 1_555 1_555
O21 Eu1 1_555 1_555
C15 N2 1_555 1_555
O17 Eu5 1_555 1_555
O4 N1 1_555 1_555
O18 Eu4 1_555 1_555
H17 O18 1_555 1_555
H18 O18 1_555 1_555
Eu3 O3 1_555 1_555
O20 Eu4 1_555 1_555
O22 Eu4 1_555 1_555
C5 N1 1_555 1_555
O4 Eu3 1_555 1_555
H3 C3 1_555 1_555
C4 C3 1_555 1_555
H4 C4 1_555 1_555
C7 O5 1_555 1_555
O6 C7 1_555 1_555
H14 C16 1_555 1_555
H15 C16 1_555 1_555
O15 H16 1_555 1_555
P2 C16 1_555 1_555
O14 P2 1_555 1_555
O15 P2 1_555 1_555
C1 H1 1_555 1_555
C2 C1 1_555 1_555
H2 C2 1_555 1_555
C3_2 C2 1_555 1_555
H3_2 C3_2 1_555 1_555
C4_2 C3_2 1_555 1_555
H4_2 C4_2 1_555 1_555
C5_2 C4_2 1_555 1_555
C7_2 O5_2 1_555 1_555
N1_2 C1 1_555 1_555
O21 N1_2 1_555 1_555
O6_2 C7_2 1_555 1_555
C5_2 N1_2 1_555 1_555
H14_2 C16_2 1_555 1_555
H15_2 C16_2 1_555 1_555
O14_2 Eu5 1_555 1_555
O15_2 H16_2 1_555 1_555
O18_2 Eu5 1_555 1_555
H17_2 O18_2 1_555 1_555
H18_2 O18_2 1_555 1_555
P2_2 C16_2 1_555 1_555
O24 Eu5 1_555 1_555
O14_2 P2_2 1_555 1_555
O15_2 P2_2 1_555 1_555
H5_2 C6_2 1_555 1_555
H6_2 C6_2 1_555 1_555
Eu3 O1_2 1_555 1_555
O1_2 P1_2 1_555 1_555
O2_2 H7_2 1_555 1_555
O9_2 Eu3 1_555 1_555
H8_2 O9_2 1_555 1_555
H9_2 O9_2 1_555 1_555
P1_2 C6_2 1_555 1_555
O23 C10_2 1_555 1_555
O13_2 Eu3 1_555 1_555
O2_2 P1_2 1_555 1_555
C10_2 O13_2 1_555 1_555
C8_2 O7_2 1_555 1_555
O24 C8_2 1_555 1_555
O11_2 C9_2 1_555 1_555
C11 H10 1_555 1_555
C12_2 C11 1_555 1_555
H11_2 C12_2 1_555 1_555
C13_2 C12_2 1_555 1_555
H12_2 C13_2 1_555 1_555
C14_2 C13_2 1_555 1_555
H13_2 C14_2 1_555 1_555
C15_2 C14_2 1_555 1_555
N2_2 C11 1_555 1_555
O22 N2_2 1_555 1_555
C9_2 O10_2 1_555 1_555
C15_2 N2_2 1_555 1_555
C11_2 H10_2 1_555 1_555
C1_2 H1_2 1_555 1_555
H2_2 C2_2 1_555 1_555

#END
