
###############################################################################
#
# This file contains modified crystal structure data generated from the
# MOF subset of the Cambridge Structural Database (CSD) v543 
# hosted by the Cambridge Crystallographic Data Centre (CCDC).
#
# This work is licensed under the Creative Commons
# Attribution-NonCommercial-ShareAlike 4.0 International License.
# To view a copy of this license, visit
# http://creativecommons.org/licenses/by-nc-sa/4.0/
# or send a letter to
# Creative Commons, PO Box 1866, Mountain View, CA 94042, USA.
#
# CIF created using the CSD Python API on 29 September 2022
# The structure has been converted into the P1 space group
# The structure has a 3D framework
# The original CSD entry QADWUQ is in the monoclinic crystal system
# The framework has been calculated to contain at least 10.0% void space
# The void calculation uses a probe of radius 1.32A, grid spacing 0.4
# The framework is charged, counterions have been retained in the structure
#
###############################################################################

data_QADWUQ
_chemical_formula_moiety         '(C32 H36 Dy4 N4 O32 P4)n'
_symmetry_cell_setting           triclinic
_symmetry_space_group_name_H-M   'P 1'
_symmetry_Int_Tables_number      1
_space_group_name_Hall           'P 1'
loop_
_symmetry_equiv_pos_site_id
_symmetry_equiv_pos_as_xyz
1 x,y,z
_cell_length_a                   9.7192(2)
_cell_length_b                   10.4517(2)
_cell_length_c                   16.4217(4)
_cell_angle_alpha                90
_cell_angle_beta                 112.580(2)
_cell_angle_gamma                90
_cell_volume                     1540.28
loop_
_atom_site_label
_atom_site_type_symbol
_atom_site_fract_x
_atom_site_fract_y
_atom_site_fract_z
C12 C 0.3580(8) 0.0673(7) 0.0315(5)
H11 H 0.4517 0.0967 0.0681
C6 C 0.0678(6) 0.0767(5) 0.1298(3)
H5 H 0.0936 0.1404 0.0951
H6 H 0.1418 0.0091 0.1439
O1 O 0.0603(3) 0.0476(3) 0.2919(2)
O2 O 0.2350(4) 0.2111(4) 0.2709(2)
H7 H 0.2872 0.1707 0.3147
P1 P 0.07480(13) 0.14983(12) 0.23131(7)
C9 C 0.0722(5) 0.0313(4) 0.5329(3)
O10 O 0.1860(3) 0.0206(3) 0.5153(2)
O11 O 0.0633(3) 0.0864(3) 0.5976(2)
C10 C 0.4828(5) 0.0618(4) 0.4727(3)
O12 O 0.5774(3) 0.1488(3) 0.4956(2)
O13 O 0.3589(3) 0.0648(3) 0.4089(2)
C13 C 0.2536(9) 0.1498(7) 0.9766(5)
H12 H 0.2762 0.2361 0.9757
C14 C 0.1168(9) 0.1051(5) 0.9234(4)
H13 H 0.0469 0.1616 0.8861
Dy4 Dy 0.82158(2) 0.105715(19) 0.606977(12)
C8 C 0.5172(5) 0.9382(4) 0.5273(3)
Dy1 Dy 0.17842(2) 0.894285(19) 0.393023(12)
O7 O 0.4226(3) 0.8512(3) 0.5044(2)
O8 O 0.6411(3) 0.9352(3) 0.5911(2)
O9 O 0.3155(4) 0.8316(5) 0.3079(3)
H8 H 0.2787 0.7770 0.2768
H9 H 0.3934 0.8726 0.3104
C15 C 0.0799(6) 0.9776(5) 0.9239(3)
N2 N 0.1857(5) 0.8980(4) 0.9786(3)
O16 O 0.0405(3) 0.7481(3) 0.7900(2)
O17 O 0.1536(4) 0.7751(3) 0.9823(2)
Dy5 Dy 0.17842(2) 0.605715(19) 0.893023(12)
O19 O 0.0405(3) 0.7519(3) 0.2900(2)
O21 O 0.1536(4) 0.7249(3) 0.4823(2)
C5 C 0.9201(6) 0.0224(5) 0.0761(3)
N1 N 0.8143(5) 0.1020(4) 0.0214(3)
O3 O 0.9595(3) 0.2519(3) 0.2100(2)
O4 O 0.8464(4) 0.2249(3) 0.0177(2)
O18 O 0.6845(4) 0.1684(5) 0.6921(3)
H17 H 0.7213 0.2230 0.7232
H18 H 0.6066 0.1274 0.6896
Dy3 Dy 0.82158(2) 0.394285(19) 0.106977(12)
O20 O 0.9595(3) 0.2481(3) 0.7100(2)
O22 O 0.8464(4) 0.2751(3) 0.5177(2)
C3 C 0.7464(9) 0.8502(7) 0.0234(5)
H3 H 0.7238 0.7639 0.0243
C4 C 0.8832(9) 0.8949(5) 0.0766(4)
H4 H 0.9531 0.8384 0.1139
C7 C 0.9278(5) 0.9687(4) 0.4671(3)
O5 O 0.8140(3) 0.9794(3) 0.4847(2)
O6 O 0.9367(3) 0.9136(3) 0.4024(2)
C16 C 0.9322(6) 0.9233(5) 0.8702(3)
H14 H 0.9064 0.8596 0.9049
H15 H 0.8582 0.9909 0.8561
O14 O 0.9397(3) 0.9524(3) 0.7081(2)
O15 O 0.7650(4) 0.7889(4) 0.7291(2)
H16 H 0.7128 0.8293 0.6853
P2 P 0.92520(13) 0.85017(12) 0.76869(7)
C1 C 0.3210(6) 0.5598(6) 0.5315(4)
H1 H 0.3904 0.6169 0.5684
C2 C 0.3580(8) 0.4327(7) 0.5315(5)
H2 H 0.4517 0.4033 0.5681
C3_2 C 0.2536(9) 0.3502(7) 0.4766(5)
H3_2 H 0.2762 0.2639 0.4757
C4_2 C 0.1168(9) 0.3949(5) 0.4234(4)
H4_2 H 0.0469 0.3384 0.3861
C5_2 C 0.0799(6) 0.5224(5) 0.4239(3)
C7_2 C 0.0722(5) 0.4687(4) 0.0329(3)
N1_2 N 0.1857(5) 0.6020(4) 0.4786(3)
O5_2 O 0.1860(3) 0.4794(3) 0.0153(2)
O6_2 O 0.0633(3) 0.4136(3) 0.0976(2)
O23 O 0.4226(3) 0.6488(3) 0.0044(2)
C16_2 C 0.0678(6) 0.4233(5) 0.6298(3)
H14_2 H 0.0936 0.3596 0.5951
H15_2 H 0.1418 0.4909 0.6439
O14_2 O 0.0603(3) 0.4524(3) 0.7919(2)
O15_2 O 0.2350(4) 0.2889(4) 0.7709(2)
H16_2 H 0.2872 0.3293 0.8147
O18_2 O 0.3155(4) 0.6684(5) 0.8079(3)
H17_2 H 0.2787 0.7230 0.7768
H18_2 H 0.3934 0.6274 0.8104
P2_2 P 0.07480(13) 0.35017(12) 0.73131(7)
O24 O 0.3589(3) 0.4352(3) 0.9089(2)
C6_2 C 0.9322(6) 0.5767(5) 0.3702(3)
H5_2 H 0.9064 0.6404 0.4049
H6_2 H 0.8582 0.5091 0.3561
O1_2 O 0.9397(3) 0.5476(3) 0.2081(2)
O2_2 O 0.7650(4) 0.7111(4) 0.2291(2)
H7_2 H 0.7128 0.6707 0.1853
O9_2 O 0.6845(4) 0.3316(5) 0.1921(3)
H8_2 H 0.7213 0.2770 0.2232
H9_2 H 0.6066 0.3726 0.1896
P1_2 P 0.92520(13) 0.64983(12) 0.26869(7)
C10_2 C 0.5172(5) 0.5618(4) 0.0273(3)
O13_2 O 0.6411(3) 0.5648(3) 0.0911(2)
C8_2 C 0.4828(5) 0.4382(4) 0.9727(3)
O7_2 O 0.5774(3) 0.3512(3) 0.9956(2)
C9_2 C 0.9278(5) 0.5313(4) 0.9671(3)
O10_2 O 0.8140(3) 0.5206(3) 0.9847(2)
O11_2 O 0.9367(3) 0.5864(3) 0.9024(2)
C11 C 0.6790(6) 0.4402(6) 0.4685(4)
H10 H 0.6096 0.3831 0.4316
C12_2 C 0.6420(8) 0.5673(7) 0.4685(5)
H11_2 H 0.5483 0.5967 0.4319
C13_2 C 0.7464(9) 0.6498(7) 0.5234(5)
H12_2 H 0.7238 0.7361 0.5243
C14_2 C 0.8832(9) 0.6051(5) 0.5766(4)
H13_2 H 0.9531 0.6616 0.6139
C15_2 C 0.9201(6) 0.4776(5) 0.5761(3)
N2_2 N 0.8143(5) 0.3980(4) 0.5214(3)
C11_2 C 0.3210(6) 0.9402(6) 0.0315(4)
H10_2 H 0.3904 0.8831 0.0684
C1_2 C 0.6790(6) 0.0598(6) 0.9685(4)
H1_2 H 0.6096 0.1169 0.9316
C2_2 C 0.6420(8) 0.9327(7) 0.9685(5)
H2_2 H 0.5483 0.9033 0.9319
loop_
_geom_bond_atom_site_label_1
_geom_bond_atom_site_label_2
_geom_bond_site_symmetry_1
_geom_bond_site_symmetry_2
H11 C12 1_555 1_555
H5 C6 1_555 1_555
H6 C6 1_555 1_555
O1 P1 1_555 1_555
O2 H7 1_555 1_555
P1 C6 1_555 1_555
O11 C9 1_555 1_555
O12 C10 1_555 1_555
H12 C13 1_555 1_555
C14 C13 1_555 1_555
H13 C14 1_555 1_555
O2 P1 1_555 1_555
C9 O10 1_555 1_555
C10 O13 1_555 1_555
O12 Dy4 1_555 1_555
C8 O7 1_555 1_555
O7 Dy1 1_555 1_555
O8 C8 1_555 1_555
O9 Dy1 1_555 1_555
H8 O9 1_555 1_555
H9 O9 1_555 1_555
O17 N2 1_555 1_555
Dy5 O16 1_555 1_555
O19 Dy1 1_555 1_555
O21 Dy1 1_555 1_555
C15 N2 1_555 1_555
O17 Dy5 1_555 1_555
O4 N1 1_555 1_555
O18 Dy4 1_555 1_555
H17 O18 1_555 1_555
H18 O18 1_555 1_555
Dy3 O3 1_555 1_555
O20 Dy4 1_555 1_555
O22 Dy4 1_555 1_555
C5 N1 1_555 1_555
O4 Dy3 1_555 1_555
H3 C3 1_555 1_555
C4 C3 1_555 1_555
H4 C4 1_555 1_555
C7 O5 1_555 1_555
O6 C7 1_555 1_555
H14 C16 1_555 1_555
H15 C16 1_555 1_555
O15 H16 1_555 1_555
P2 C16 1_555 1_555
O14 P2 1_555 1_555
O15 P2 1_555 1_555
C1 H1 1_555 1_555
C2 C1 1_555 1_555
H2 C2 1_555 1_555
C3_2 C2 1_555 1_555
H3_2 C3_2 1_555 1_555
C4_2 C3_2 1_555 1_555
H4_2 C4_2 1_555 1_555
C5_2 C4_2 1_555 1_555
C7_2 O5_2 1_555 1_555
N1_2 C1 1_555 1_555
O21 N1_2 1_555 1_555
O6_2 C7_2 1_555 1_555
C5_2 N1_2 1_555 1_555
H14_2 C16_2 1_555 1_555
H15_2 C16_2 1_555 1_555
O14_2 Dy5 1_555 1_555
O15_2 H16_2 1_555 1_555
O18_2 Dy5 1_555 1_555
H17_2 O18_2 1_555 1_555
H18_2 O18_2 1_555 1_555
P2_2 C16_2 1_555 1_555
O24 Dy5 1_555 1_555
O14_2 P2_2 1_555 1_555
O15_2 P2_2 1_555 1_555
H5_2 C6_2 1_555 1_555
H6_2 C6_2 1_555 1_555
Dy3 O1_2 1_555 1_555
O1_2 P1_2 1_555 1_555
O2_2 H7_2 1_555 1_555
O9_2 Dy3 1_555 1_555
H8_2 O9_2 1_555 1_555
H9_2 O9_2 1_555 1_555
P1_2 C6_2 1_555 1_555
O23 C10_2 1_555 1_555
O13_2 Dy3 1_555 1_555
O2_2 P1_2 1_555 1_555
C10_2 O13_2 1_555 1_555
C8_2 O7_2 1_555 1_555
O24 C8_2 1_555 1_555
O11_2 C9_2 1_555 1_555
C11 H10 1_555 1_555
C12_2 C11 1_555 1_555
H11_2 C12_2 1_555 1_555
C13_2 C12_2 1_555 1_555
H12_2 C13_2 1_555 1_555
C14_2 C13_2 1_555 1_555
H13_2 C14_2 1_555 1_555
C15_2 C14_2 1_555 1_555
N2_2 C11 1_555 1_555
O22 N2_2 1_555 1_555
C9_2 O10_2 1_555 1_555
C15_2 N2_2 1_555 1_555
C11_2 H10_2 1_555 1_555
C1_2 H1_2 1_555 1_555
H2_2 C2_2 1_555 1_555

#END
