
###############################################################################
#
# This file contains modified crystal structure data generated from the
# MOF subset of the Cambridge Structural Database (CSD) v543 
# hosted by the Cambridge Crystallographic Data Centre (CCDC).
#
# This work is licensed under the Creative Commons
# Attribution-NonCommercial-ShareAlike 4.0 International License.
# To view a copy of this license, visit
# http://creativecommons.org/licenses/by-nc-sa/4.0/
# or send a letter to
# Creative Commons, PO Box 1866, Mountain View, CA 94042, USA.
#
# CIF created using the CSD Python API on 29 September 2022
# The structure has been converted into the P1 space group
# The structure has a 3D framework
# The original CSD entry QADXAX is in the monoclinic crystal system
# The framework has been calculated to contain at least 10.0% void space
# The void calculation uses a probe of radius 1.32A, grid spacing 0.4
# The framework is charged, counterions have been retained in the structure
#
###############################################################################

data_QADXAX
_chemical_formula_moiety         '(C32 H36 Ho4 N4 O32 P4)n'
_symmetry_cell_setting           triclinic
_symmetry_space_group_name_H-M   'P 1'
_symmetry_Int_Tables_number      1
_space_group_name_Hall           'P 1'
loop_
_symmetry_equiv_pos_site_id
_symmetry_equiv_pos_as_xyz
1 x,y,z
_cell_length_a                   9.7216(3)
_cell_length_b                   10.4273(3)
_cell_length_c                   16.4046(6)
_cell_angle_alpha                90
_cell_angle_beta                 112.678(3)
_cell_angle_gamma                90
_cell_volume                     1534.37
loop_
_atom_site_label
_atom_site_type_symbol
_atom_site_fract_x
_atom_site_fract_y
_atom_site_fract_z
C12 C 0.3570(7) 0.0658(7) 0.0321(5)
H11 H 0.4506 0.0955 0.0688
C6 C 0.0689(5) 0.0790(5) 0.1305(3)
H5 H 0.0949 0.1430 0.0960
H6 H 0.1432 0.0115 0.1449
O1 O 0.0606(3) 0.0497(3) 0.2924(2)
O2 O 0.2348(4) 0.2138(4) 0.2719(2)
H7 H 0.2868 0.1737 0.3160
P1 P 0.07448(12) 0.15183(12) 0.23178(7)
C9 C 0.0718(5) 0.0310(4) 0.5330(3)
O10 O 0.1860(3) 0.0209(3) 0.5158(2)
O11 O 0.0632(3) 0.0846(3) 0.5983(2)
C10 C 0.4828(5) 0.0625(4) 0.4734(3)
O12 O 0.5783(3) 0.1489(3) 0.4967(2)
O13 O 0.3584(3) 0.0668(3) 0.4099(2)
C13 C 0.2539(9) 0.1483(7) 0.9774(5)
H12 H 0.2772 0.2346 0.9767
C14 C 0.1158(8) 0.1042(5) 0.9233(4)
H13 H 0.0461 0.1609 0.8858
Ho4 Ho 0.82204(2) 0.103604(19) 0.607071(12)
C8 C 0.5172(5) 0.9375(4) 0.5266(3)
Ho1 Ho 0.17796(2) 0.896396(19) 0.392929(12)
O7 O 0.4217(3) 0.8511(3) 0.5033(2)
O8 O 0.6416(3) 0.9332(3) 0.5901(2)
O9 O 0.3126(4) 0.8376(5) 0.3067(3)
H8 H 0.2833 0.7685 0.2778
H9 H 0.3981 0.8640 0.3113
C15 C 0.0792(6) 0.9760(5) 0.9240(3)
N2 N 0.1856(4) 0.8956(4) 0.9786(3)
O16 O 0.0418(3) 0.7462(3) 0.79009(19)
O17 O 0.1527(3) 0.7725(3) 0.9822(2)
Ho5 Ho 0.17796(2) 0.603604(19) 0.892929(12)
O19 O 0.0418(3) 0.7538(3) 0.29009(19)
O21 O 0.1527(3) 0.7275(3) 0.4822(2)
C5 C 0.9208(6) 0.0240(5) 0.0760(3)
N1 N 0.8144(4) 0.1044(4) 0.0214(3)
O3 O 0.9582(3) 0.2538(3) 0.20991(19)
O4 O 0.8473(3) 0.2275(3) 0.0178(2)
O18 O 0.6874(4) 0.1624(5) 0.6933(3)
H17 H 0.7167 0.2315 0.7222
H18 H 0.6019 0.1360 0.6887
Ho3 Ho 0.82204(2) 0.396396(19) 0.107071(12)
O20 O 0.9582(3) 0.2462(3) 0.70991(19)
O22 O 0.8473(3) 0.2725(3) 0.5178(2)
C3 C 0.7461(9) 0.8517(7) 0.0226(5)
H3 H 0.7228 0.7654 0.0233
C4 C 0.8842(8) 0.8958(5) 0.0767(4)
H4 H 0.9539 0.8391 0.1142
C7 C 0.9282(5) 0.9690(4) 0.4670(3)
O5 O 0.8140(3) 0.9791(3) 0.4842(2)
O6 O 0.9368(3) 0.9154(3) 0.4017(2)
C16 C 0.9311(5) 0.9210(5) 0.8695(3)
H14 H 0.9051 0.8570 0.9040
H15 H 0.8568 0.9885 0.8551
O14 O 0.9394(3) 0.9503(3) 0.7076(2)
O15 O 0.7652(4) 0.7862(4) 0.7281(2)
H16 H 0.7132 0.8263 0.6840
P2 P 0.92552(12) 0.84817(12) 0.76822(7)
C1 C 0.3212(6) 0.5615(6) 0.5324(4)
H1 H 0.3908 0.6184 0.5697
C2 C 0.3570(7) 0.4342(7) 0.5321(5)
H2 H 0.4506 0.4045 0.5688
C3_2 C 0.2539(9) 0.3517(7) 0.4774(5)
H3_2 H 0.2772 0.2654 0.4767
C4_2 C 0.1158(8) 0.3958(5) 0.4233(4)
H4_2 H 0.0461 0.3391 0.3858
C5_2 C 0.0792(6) 0.5240(5) 0.4240(3)
C7_2 C 0.0718(5) 0.4690(4) 0.0330(3)
N1_2 N 0.1856(4) 0.6044(4) 0.4786(3)
O5_2 O 0.1860(3) 0.4791(3) 0.0158(2)
O6_2 O 0.0632(3) 0.4154(3) 0.0983(2)
O23 O 0.4217(3) 0.6489(3) 0.0033(2)
C16_2 C 0.0689(5) 0.4210(5) 0.6305(3)
H14_2 H 0.0949 0.3570 0.5960
H15_2 H 0.1432 0.4885 0.6449
O14_2 O 0.0606(3) 0.4503(3) 0.7924(2)
O15_2 O 0.2348(4) 0.2862(4) 0.7719(2)
H16_2 H 0.2868 0.3263 0.8160
O18_2 O 0.3126(4) 0.6624(5) 0.8067(3)
H17_2 H 0.2833 0.7315 0.7778
H18_2 H 0.3981 0.6360 0.8113
P2_2 P 0.07448(12) 0.34817(12) 0.73178(7)
O24 O 0.3584(3) 0.4332(3) 0.9099(2)
C6_2 C 0.9311(5) 0.5790(5) 0.3695(3)
H5_2 H 0.9051 0.6430 0.4040
H6_2 H 0.8568 0.5115 0.3551
O1_2 O 0.9394(3) 0.5497(3) 0.2076(2)
O2_2 O 0.7652(4) 0.7138(4) 0.2281(2)
H7_2 H 0.7132 0.6737 0.1840
O9_2 O 0.6874(4) 0.3376(5) 0.1933(3)
H8_2 H 0.7167 0.2685 0.2222
H9_2 H 0.6019 0.3640 0.1887
P1_2 P 0.92552(12) 0.65183(12) 0.26822(7)
C10_2 C 0.5172(5) 0.5625(4) 0.0266(3)
O13_2 O 0.6416(3) 0.5668(3) 0.0901(2)
C8_2 C 0.4828(5) 0.4375(4) 0.9734(3)
O7_2 O 0.5783(3) 0.3511(3) 0.9967(2)
C9_2 C 0.9282(5) 0.5310(4) 0.9670(3)
O10_2 O 0.8140(3) 0.5209(3) 0.9842(2)
O11_2 O 0.9368(3) 0.5846(3) 0.9017(2)
C11 C 0.6788(6) 0.4385(6) 0.4676(4)
H10 H 0.6092 0.3816 0.4303
C12_2 C 0.6430(7) 0.5658(7) 0.4679(5)
H11_2 H 0.5494 0.5955 0.4312
C13_2 C 0.7461(9) 0.6483(7) 0.5226(5)
H12_2 H 0.7228 0.7346 0.5233
C14_2 C 0.8842(8) 0.6042(5) 0.5767(4)
H13_2 H 0.9539 0.6609 0.6142
C15_2 C 0.9208(6) 0.4760(5) 0.5760(3)
N2_2 N 0.8144(4) 0.3956(4) 0.5214(3)
C11_2 C 0.3212(6) 0.9385(6) 0.0324(4)
H10_2 H 0.3908 0.8816 0.0697
C1_2 C 0.6788(6) 0.0615(6) 0.9676(4)
H1_2 H 0.6092 0.1184 0.9303
C2_2 C 0.6430(7) 0.9342(7) 0.9679(5)
H2_2 H 0.5494 0.9045 0.9312
loop_
_geom_bond_atom_site_label_1
_geom_bond_atom_site_label_2
_geom_bond_site_symmetry_1
_geom_bond_site_symmetry_2
H11 C12 1_555 1_555
H5 C6 1_555 1_555
H6 C6 1_555 1_555
O1 P1 1_555 1_555
O2 H7 1_555 1_555
P1 C6 1_555 1_555
O11 C9 1_555 1_555
O12 C10 1_555 1_555
H12 C13 1_555 1_555
C14 C13 1_555 1_555
H13 C14 1_555 1_555
O2 P1 1_555 1_555
C9 O10 1_555 1_555
C10 O13 1_555 1_555
O12 Ho4 1_555 1_555
C8 O7 1_555 1_555
O7 Ho1 1_555 1_555
O8 C8 1_555 1_555
O9 Ho1 1_555 1_555
H8 O9 1_555 1_555
H9 O9 1_555 1_555
O17 N2 1_555 1_555
Ho5 O16 1_555 1_555
O19 Ho1 1_555 1_555
O21 Ho1 1_555 1_555
C15 N2 1_555 1_555
O17 Ho5 1_555 1_555
O4 N1 1_555 1_555
O18 Ho4 1_555 1_555
H17 O18 1_555 1_555
H18 O18 1_555 1_555
Ho3 O3 1_555 1_555
O20 Ho4 1_555 1_555
O22 Ho4 1_555 1_555
C5 N1 1_555 1_555
O4 Ho3 1_555 1_555
H3 C3 1_555 1_555
C4 C3 1_555 1_555
H4 C4 1_555 1_555
C7 O5 1_555 1_555
O6 C7 1_555 1_555
H14 C16 1_555 1_555
H15 C16 1_555 1_555
O15 H16 1_555 1_555
P2 C16 1_555 1_555
O14 P2 1_555 1_555
O15 P2 1_555 1_555
C1 H1 1_555 1_555
C2 C1 1_555 1_555
H2 C2 1_555 1_555
C3_2 C2 1_555 1_555
H3_2 C3_2 1_555 1_555
C4_2 C3_2 1_555 1_555
H4_2 C4_2 1_555 1_555
C5_2 C4_2 1_555 1_555
C7_2 O5_2 1_555 1_555
N1_2 C1 1_555 1_555
O21 N1_2 1_555 1_555
O6_2 C7_2 1_555 1_555
C5_2 N1_2 1_555 1_555
H14_2 C16_2 1_555 1_555
H15_2 C16_2 1_555 1_555
O14_2 Ho5 1_555 1_555
O15_2 H16_2 1_555 1_555
O18_2 Ho5 1_555 1_555
H17_2 O18_2 1_555 1_555
H18_2 O18_2 1_555 1_555
P2_2 C16_2 1_555 1_555
O24 Ho5 1_555 1_555
O14_2 P2_2 1_555 1_555
O15_2 P2_2 1_555 1_555
H5_2 C6_2 1_555 1_555
H6_2 C6_2 1_555 1_555
Ho3 O1_2 1_555 1_555
O1_2 P1_2 1_555 1_555
O2_2 H7_2 1_555 1_555
O9_2 Ho3 1_555 1_555
H8_2 O9_2 1_555 1_555
H9_2 O9_2 1_555 1_555
P1_2 C6_2 1_555 1_555
O23 C10_2 1_555 1_555
O13_2 Ho3 1_555 1_555
O2_2 P1_2 1_555 1_555
C10_2 O13_2 1_555 1_555
C8_2 O7_2 1_555 1_555
O24 C8_2 1_555 1_555
O11_2 C9_2 1_555 1_555
C11 H10 1_555 1_555
C12_2 C11 1_555 1_555
H11_2 C12_2 1_555 1_555
C13_2 C12_2 1_555 1_555
H12_2 C13_2 1_555 1_555
C14_2 C13_2 1_555 1_555
H13_2 C14_2 1_555 1_555
C15_2 C14_2 1_555 1_555
N2_2 C11 1_555 1_555
O22 N2_2 1_555 1_555
C9_2 O10_2 1_555 1_555
C15_2 N2_2 1_555 1_555
C11_2 H10_2 1_555 1_555
C1_2 H1_2 1_555 1_555
H2_2 C2_2 1_555 1_555

#END
