
###############################################################################
#
# This file contains modified crystal structure data generated from the
# MOF subset of the Cambridge Structural Database (CSD) v543 
# hosted by the Cambridge Crystallographic Data Centre (CCDC).
#
# This work is licensed under the Creative Commons
# Attribution-NonCommercial-ShareAlike 4.0 International License.
# To view a copy of this license, visit
# http://creativecommons.org/licenses/by-nc-sa/4.0/
# or send a letter to
# Creative Commons, PO Box 1866, Mountain View, CA 94042, USA.
#
# CIF created using the CSD Python API on 29 September 2022
# The structure has been converted into the P1 space group
# The structure has a 3D framework
# The original CSD entry QAFGAG is in the tetragonal crystal system
# The framework has been calculated to contain at least 10.0% void space
# The void calculation uses a probe of radius 1.32A, grid spacing 0.4
# H atom positions have been added when not included in the experimental data
#
###############################################################################

data_QAFGAG
_chemical_formula_moiety         '(C1200 H768 F288 La32 N48 O240)n'
_symmetry_cell_setting           triclinic
_symmetry_space_group_name_H-M   'P 1'
_symmetry_Int_Tables_number      1
_space_group_name_Hall           'P 1'
loop_
_symmetry_equiv_pos_site_id
_symmetry_equiv_pos_as_xyz
1 x,y,z
_cell_length_a                   26.594(4)
_cell_length_b                   26.594(4)
_cell_length_c                   45.960(9)
_cell_angle_alpha                90
_cell_angle_beta                 90
_cell_angle_gamma                90
_cell_volume                     32504.8
loop_
_atom_site_label
_atom_site_type_symbol
_atom_site_fract_x
_atom_site_fract_y
_atom_site_fract_z
F1 F 0.0650(4) 0.0651(4) 0.8313(2)
F2 F 0.0272(4) 0.1209(4) 0.8064(2)
F3 F 0.0619(4) 0.0597(3) 0.7852(2)
F6 F 0.0284(4) 0.0431(4) 0.9564(2)
C1 C 0.0346(7) 0.0734(7) 0.8086(4)
C45 C 0.0141(6) 0.0992(6) 0.5928(3)
C47 C 0.0316(9) 0.1590(6) 0.5548(4)
H27 H 0.0211 0.1774 0.5387
C48 C 0.0806(8) 0.1639(7) 0.5649(5)
H28 H 0.1029 0.1855 0.5556
C49 C 0.0964(5) 0.1364(8) 0.5890(5)
H29 H 0.1291 0.1397 0.5958
C50 C 0.0631(7) 0.1041(7) 0.6029(3)
H30 H 0.0736 0.0857 0.6190
H52 H 0.0074 0.0620 0.6527
H1 H 0.0024 0.9961 0.7799
C13 C 0.0027(5) 0.9895(5) 0.9089(3)
H7 H 0.0286 0.9811 0.9216
C55 C 0.0538(6) 0.8871(6) 0.6288(3)
C56 C 0.0457(7) 0.9126(7) 0.6517(4)
H32 H 0.0195 0.9357 0.6527
C57 C 0.0778(7) 0.9043(7) 0.6752(4)
H33 H 0.0776 0.9256 0.6913
C58 C 0.1124(7) 0.8606(7) 0.6738(4)
C59 C 0.1183(6) 0.8338(6) 0.6475(4)
H34 H 0.1412 0.8076 0.6455
C60 C 0.0859(6) 0.8498(6) 0.6235(4)
H35 H 0.0877 0.8346 0.6053
C74 C 0.0346(4) 0.7041(5) 0.6496(2)
H46 H 0.0179 0.7089 0.6672
C75 C 0.0720(4) 0.6688(5) 0.6478(2)
H47 H 0.0803 0.6497 0.6640
F35 F 0.0280(6) 0.8382(4) 0.5280(5)
C98 C 0.0198(7) 0.8734(7) 0.5746(4)
H53 H 0.0474 0.8535 0.5699
C99 C 0.0124(7) 0.9015(7) 0.6059(4)
C100 C 0.0216(4) 0.7324(4) 0.6258(2)
C101 C 0.0490(4) 0.7256(4) 0.6006(2)
C102 C 0.0864(5) 0.6905(4) 0.5999(3)
N4 N 0.0969(4) 0.6614(4) 0.6225(2)
O31 O 0.1304(3) 0.6236(3) 0.62060(14)
La5 La 0.22757(3) 0.63484(3) 0.610340(15)
La6 La 0.10463(3) 0.53769(3) 0.595210(15)
H54 H 0.1052 0.6869 0.5830
H55 H 0.0420 0.7448 0.5842
C139 C 0.0313(5) 0.9181(5) 0.8765(3)
C140 C 0.0305(6) 0.9016(6) 0.8477(4)
H85 H 0.0060 0.9127 0.8348
C141 C 0.0664(7) 0.8692(7) 0.8392(4)
H86 H 0.0702 0.8617 0.8195
C142 C 0.0993(6) 0.8459(7) 0.8603(5)
H87 H 0.1205 0.8199 0.8547
C143 C 0.0989(6) 0.8616(6) 0.8870(4)
H88 H 0.1201 0.8469 0.9007
C144 C 0.0661(5) 0.9014(6) 0.8954(3)
H89 H 0.0687 0.9157 0.9138
H95 H 0.133274 0.849179 0.693084
La1 La 0.88484(3) 0.02243(3) 0.860340(15)
La2 La 0.78769(3) 0.14537(3) 0.845210(15)
F4 F 0.9491(3) 0.0509(4) 0.96378(18)
F5 F 0.9906(3) 0.1072(3) 0.94065(17)
F10 F 0.6319(5) 0.0199(7) 0.8077(3)
F11 F 0.5938(5) 0.0760(3) 0.8242(3)
F12 F 0.6354(3) 0.0295(3) 0.8515(2)
F13 F 0.7836(6) 0.1940(7) 0.9449(3)
F14 F 0.7041(4) 0.1752(5) 0.9487(3)
F15 F 0.7222(4) 0.2494(6) 0.9473(2)
F16 F 0.9328(5) 0.2078(5) 0.7771(2)
F17 F 0.9118(4) 0.2780(6) 0.7780(5)
F18 F 0.8601(8) 0.2295(7) 0.7571(3)
O1 O 0.9582(3) 0.0596(3) 0.83192(18)
O3 O 0.9369(3) 0.0505(3) 0.90176(17)
O7 O 0.7090(3) 0.0929(3) 0.83933(17)
O8 O 0.7597(3) 0.1443(3) 0.79345(17)
O9 O 0.7530(3) 0.1604(3) 0.89473(16)
O10 O 0.7142(3) 0.2030(4) 0.8404(2)
O11 O 0.8497(3) 0.1869(3) 0.81163(18)
O12 O 0.8228(3) 0.2250(3) 0.8671(2)
O14 O 0.8356(3) 0.0731(3) 0.82211(15)
N2 N 0.8281(4) 0.0591(4) 0.7941(2)
C2 C 0.9857(6) 0.0446(6) 0.8118(3)
C3 C 0.9775(6) 0.0039(6) 0.7934(3)
C11 C 0.9865(7) 0.0591(6) 0.9435(4)
C12 C 0.9733(5) 0.0308(5) 0.9154(3)
C31 C 0.6339(8) 0.0507(8) 0.8278(4)
C32 C 0.6739(8) 0.0860(8) 0.8207(5)
C33 C 0.6798(7) 0.0920(7) 0.7891(4)
H19 H 0.6587 0.0767 0.7756
C34 C 0.7230(7) 0.1250(8) 0.7806(5)
C35 C 0.8829(5) 0.0321(5) 0.4961(3)
C36 C 0.8592(6) 0.0599(6) 0.4752(4)
H20 H 0.8335 0.0822 0.4800
C37 C 0.8749(6) 0.0535(6) 0.4465(4)
H21 H 0.8593 0.0729 0.4323
C38 C 0.9103(6) 0.0218(7) 0.4380(4)
H22 H 0.9186 0.0184 0.4185
C41 C 0.7375 0.2055 0.9350
C42 C 0.7360(6) 0.1976(6) 0.9067(4)
C43 C 0.7026(8) 0.2315(7) 0.8919(5)
H25 H 0.6880 0.2574 0.9027
C44 C 0.6883(9) 0.2271(9) 0.8559(6)
C46 C 0.9983(6) 0.1267(7) 0.5687(4)
H26 H 0.9656 0.1235 0.5620
C51 C 0.8960(9) 0.2365(9) 0.7779(4)
C52 C 0.8658(8) 0.2234(8) 0.8029(5)
C53 C 0.8766(7) 0.2698(7) 0.8246(4)
H31 H 0.8965 0.2974 0.8199
C54 C 0.8485(7) 0.2624(7) 0.8559(4)
C63 C 0.8120(4) 0.0060(5) 0.7080(2)
C66 C 0.8161(5) 0.0270(5) 0.7383(2)
C68 C 0.8488(4) 0.0845(4) 0.7726(3)
H41 H 0.8678 0.1129 0.7769
C70 C 0.8433(5) 0.0701(5) 0.7439(3)
O16 O 0.8736(3) 0.1196(3) 0.87060(14)
O17 O 0.7977(3) 0.0609(3) 0.87523(15)
F25 F 0.6949(3) 0.0369(4) 0.5875(2)
F27 F 0.6267(4) 0.0294(4) 0.6094(2)
O25 O 0.8429(3) 0.0410(3) 0.58933(17)
C88 C 0.8360(8) 0.0761(8) 0.5707(5)
C89 C 0.8007(8) 0.1161(8) 0.5778(4)
F28 F 0.7699(7) 0.1181(5) 0.5577(3)
F29 F 0.8260(3) 0.1562(5) 0.5742(3)
F30 F 0.7795(3) 0.1146(3) 0.6015(2)
C90 C 0.8420(7) 0.0702(7) 0.5391(4)
H51 H 0.8267 0.0913 0.5256
C91 C 0.8750(8) 0.0270(7) 0.5306(5)
C92 C 0.9476(6) 0.0140(6) 0.6567(4)
C93 C 0.9555 0.0125 0.6850
F32 F 0.9252(5) 0.0459(4) 0.6987(3)
F33 F 0.9994(6) 0.0278(4) 0.6973(2)
C94 C 0.9815(7) 0.0474(8) 0.6419(5)
C95 C 0.9771(9) 0.0617(9) 0.6059(6)
O28 O 0.9530(4) 0.0358(3) 0.5904(2)
C111 C 0.8025(5) 0.0189(4) 0.6568(2)
C112 C 0.8028(5) 0.0393(4) 0.6842(3)
H59 H 0.7973 0.0735 0.6871
H60 H 0.7965 0.0395 0.6408
C114 C 0.8013(5) 0.0180(5) 0.7891(2)
H64 H 0.7874 0.0009 0.8048
H65 H 0.8573 0.0889 0.7289
C115 C 0.8629(6) 0.3038(6) 0.8788(3)
C116 C 0.8374(7) 0.2957(7) 0.9017(4)
H66 H 0.8143 0.2695 0.9027
C117 C 0.8457(7) 0.3278(7) 0.9252(4)
H67 H 0.8244 0.3276 0.9413
C118 C 0.8894(7) 0.3624(7) 0.9238(4)
C119 C 0.9162(6) 0.3683(6) 0.8975(4)
H68 H 0.9424 0.3912 0.8955
C120 C 0.9002(6) 0.3359(6) 0.8735(4)
H69 H 0.9154 0.3377 0.8553
C121 C 0.6508(6) 0.2641(6) 0.8428(3)
C122 C 0.6233(7) 0.2483(6) 0.8187(4)
H70 H 0.6265 0.2156 0.8120
C123 C 0.5910(6) 0.2816(9) 0.8048(4)
H71 H 0.5726 0.2711 0.7887
C124 C 0.5861(7) 0.3306(8) 0.8149(5)
H72 H 0.5645 0.3529 0.8056
C125 C 0.6136(8) 0.3464(5) 0.8390(5)
H73 H 0.6103 0.3791 0.8458
C126 C 0.6459(7) 0.3131(7) 0.8529(3)
H74 H 0.6643 0.3236 0.8690
C127 C 0.7179(5) 0.1329(5) 0.7461(3)
C128 C 0.6901(6) 0.1092(6) 0.7252(4)
H75 H 0.6678 0.0835 0.7300
C129 C 0.6965(6) 0.1249(6) 0.6965(4)
H76 H 0.6771 0.1093 0.6823
C130 C 0.7282(7) 0.1603(6) 0.6880(4)
H77 H 0.7316 0.1686 0.6685
C131 C 0.7565(6) 0.1848(6) 0.7095(4)
H78 H 0.7780 0.2110 0.7045
C132 C 0.7517(6) 0.1685(6) 0.7408(3)
H79 H 0.7713 0.1824 0.7555
H96 H 0.900821 0.383274 0.943084
H81 H 0.8781 0.9639 0.0059
C136 C 0.8201(6) 0.9179(6) 0.0053(4)
H82 H 0.8198 0.9117 0.0252
F7 F 0.7131(4) 0.9449(3) 0.8375(2)
F8 F 0.7615(3) 0.8876(4) 0.8236(2)
F9 F 0.7206(4) 0.8767(4) 0.8594(2)
O2 O 0.8984(3) 0.9782(3) 0.81304(17)
O4 O 0.9572(3) 0.9650(3) 0.86727(17)
O5 O 0.8181(3) 0.9594(3) 0.85015(18)
O6 O 0.8594(3) 0.9748(3) 0.90457(16)
O13 O 0.8109(3) 0.9523(3) 0.62523(15)
O15 O 0.8696(3) 0.8764(3) 0.62060(14)
N1 N 0.8108(3) 0.9699(4) 0.6526(2)
N3 N 0.9031(4) 0.8386(4) 0.6225(2)
C4 C 0.9334(5) 0.9731(6) 0.7939(3)
C5 C 0.6793(6) 0.8277(8) 0.5243(3)
C6 C 0.6479(6) 0.8667(7) 0.5280(3)
H2 H 0.6519 0.8879 0.5439
C7 C 0.6108(7) 0.8750(7) 0.5091(4)
H3 H 0.5910 0.9036 0.5110
C8 C 0.6013(7) 0.8420(9) 0.4867(5)
H4 H 0.5752 0.8481 0.4736
C9 C 0.6311(9) 0.7994(11) 0.4837(5)
H5 H 0.6235 0.7760 0.4694
C10 C 0.6706(7) 0.7914(7) 0.5011(4)
H6 H 0.6916 0.7637 0.4986
C14 C 0.9955(5) 0.9589(5) 0.8837(3)
C15 C 0.6681(5) 0.7187(5) 0.6265(3)
C16 C 0.6516(6) 0.7195(6) 0.5977(4)
H8 H 0.6627 0.7440 0.5848
C17 C 0.6192(7) 0.6836(7) 0.5892(4)
H9 H 0.6117 0.6798 0.5695
C18 C 0.5959(7) 0.6507(6) 0.6103(5)
H10 H 0.5699 0.6295 0.6047
C19 C 0.6116(6) 0.6511(6) 0.6370(4)
H11 H 0.5969 0.6299 0.6507
C20 C 0.6514(6) 0.6839(5) 0.6454(3)
H12 H 0.6657 0.6813 0.6638
C21 C 0.7501 0.9166 0.8447
C22 C 0.7893(5) 0.9341(5) 0.8659(3)
C23 C 0.7889(5) 0.9260(5) 0.8949(3)
H13 H 0.7636 0.9059 0.9027
C24 C 0.8246(5) 0.9464(5) 0.9139(3)
C25 C 0.6840(5) 0.9274(5) 0.6954(3)
C26 C 0.7065(6) 0.8940(6) 0.7123(3)
H14 H 0.7276 0.8698 0.7042
C27 C 0.6982(6) 0.8952(6) 0.7439(3)
H15 H 0.7139 0.8719 0.7559
C28 C 0.6679(6) 0.9299(6) 0.7553(4)
H16 H 0.6617 0.9302 0.7752
C29 C 0.6467(6) 0.9639(6) 0.7381(4)
H17 H 0.6268 0.9890 0.7462
C30 C 0.6540(6) 0.9623(6) 0.7077(3)
H18 H 0.6379 0.9857 0.6959
C39 C 0.9348(6) 0.9935(6) 0.4595(4)
H23 H 0.9610 0.9720 0.4545
C40 C 0.9185(6) 0.9983(6) 0.4908(3)
H24 H 0.9324 0.9787 0.5055
C61 C 0.8196(4) 0.9384(4) 0.6746(2)
H36 H 0.6544 0.9252 0.4208
C62 C 0.8212(4) 0.9557(4) 0.7022(2)
H37 H 0.6837 0.9215 0.4674
C64 C 0.7893(4) 0.9472(5) 0.4342(3)
H38 H 0.8235 0.9527 0.4371
C65 C 0.7689(4) 0.9475(5) 0.4068(2)
H39 H 0.7895 0.9535 0.3908
C67 C 0.7493(4) 0.9569(5) 0.5109(3)
H40 H 0.7207 0.9760 0.5074
C69 C 0.7680(5) 0.9487(5) 0.5391(2)
H42 H 0.7509 0.9626 0.5548
H43 H 0.8389 0.8927 0.4789
C71 C 0.9136(5) 0.8095(4) 0.5999(3)
H44 H 0.8948 0.8131 0.5830
C72 C 0.9510(4) 0.7744(4) 0.6006(2)
H45 H 0.9580 0.7552 0.5842
C73 C 0.9784(4) 0.7676(4) 0.6258(2)
La3 La 0.77243(3) 0.86516(3) 0.610340(15)
O18 O 0.8096(3) 0.7918(3) 0.58192(18)
C76 C 0.7946(6) 0.7643(6) 0.5618(3)
C77 C 0.8234(7) 0.7154(7) 0.5586(4)
F19 F 0.8151(4) 0.6850(4) 0.5813(2)
F20 F 0.8709(4) 0.7228(4) 0.5564(2)
F21 F 0.8097(3) 0.6881(4) 0.5352(2)
C78 C 0.7539(6) 0.7725(6) 0.5434(3)
H48 H 0.7461 0.7476 0.5299
C79 C 0.7231(6) 0.8166(5) 0.5439(3)
O19 O 0.7282(3) 0.8516(3) 0.56304(17)
O20 O 0.8005(3) 0.8131(3) 0.65176(17)
C80 C 0.7808(5) 0.7767(5) 0.6654(3)
C81 C 0.8091(6) 0.7635(7) 0.6935(4)
F22 F 0.8009(4) 0.8009(3) 0.71378(18)
F23 F 0.8572(3) 0.7594(3) 0.69065(17)
F24 F 0.7931(4) 0.7216(4) 0.7064(2)
C82 C 0.7395(5) 0.7473(5) 0.6589(3)
H49 H 0.7311 0.7214 0.6716
C83 C 0.7089(5) 0.7545(5) 0.6337(3)
O21 O 0.7150(3) 0.7928(3) 0.61727(17)
O22 O 0.7094(3) 0.9319(3) 0.60015(18)
C84 C 0.6841(5) 0.9607(5) 0.6159(3)
C85 C 0.6666 0.9999 0.5947
F26 F 0.6376(4) 0.9885(3) 0.5736(2)
C86 C 0.6760(5) 0.9611(5) 0.6449(3)
H50 H 0.6559 0.9864 0.6527
C87 C 0.6964(5) 0.9254(5) 0.6639(3)
O23 O 0.7248(3) 0.8906(3) 0.65457(16)
O24 O 0.8231(3) 0.9144(3) 0.57211(15)
La4 La 0.89537(3) 0.96231(3) 0.595210(15)
O26 O 0.8943(3) 0.9903(3) 0.54345(17)
O27 O 0.9104(3) 0.9970(3) 0.64473(16)
F31 F 0.9440(7) 0.9664(6) 0.6949(3)
O29 O 0.9369(3) 0.9003(3) 0.56163(18)
C96 C 0.9734(8) 0.8842(8) 0.5529(5)
C97 C 0.9865(9) 0.8540(9) 0.5279(4)
F34 F 0.9578(5) 0.8172(5) 0.5271(2)
F36 F 0.9795(7) 0.8899(8) 0.5071(3)
O30 O 0.9750(3) 0.9272(3) 0.6171(2)
C103 C 0.9654(4) 0.7959(5) 0.6496(2)
H56 H 0.9821 0.7911 0.6672
C104 C 0.9280(4) 0.8312(5) 0.6478(2)
H57 H 0.9197 0.8503 0.6640
N5 N 0.8091(4) 0.9219(4) 0.5441(2)
C105 C 0.8345(4) 0.9012(4) 0.5226(3)
H58 H 0.8629 0.8822 0.5269
C106 C 0.8201(5) 0.9067(5) 0.4939(3)
C107 C 0.7770(5) 0.9339(5) 0.4883(2)
C108 C 0.7560(5) 0.9380(4) 0.4580(2)
C109 C 0.7057(4) 0.9288(4) 0.4522(2)
C110 C 0.6884(4) 0.9304(4) 0.4246(2)
N6 N 0.7199(4) 0.9392(3) 0.4026(2)
O32 O 0.7023(3) 0.9391(3) 0.37523(15)
La7 La 0.61516(3) 0.97757(3) 0.360340(15)
La8 La 0.71231(3) 0.85463(3) 0.345210(15)
H61 H 0.8248 0.9044 0.6708
H62 H 0.8285 0.9337 0.7174
C113 C 0.7931(5) 0.9993(4) 0.7609(3)
H63 H 0.7740 0.9707 0.7574
C133 C 0.8226(5) 0.9340(5) 0.9454(3)
C134 C 0.8560(6) 0.9565(6) 0.9623(3)
H80 H 0.8802 0.9776 0.9542
C135 C 0.8548(6) 0.9482(6) 0.9939(3)
C137 C 0.7861(6) 0.8967(6) 0.9881(4)
H83 H 0.7610 0.8768 0.9962
C138 C 0.7877(6) 0.9040(6) 0.9577(3)
H84 H 0.7643 0.8879 0.9459
C145 C 0.9223(8) 0.9293(6) 0.7743(3)
C146 C 0.8833(7) 0.8979(6) 0.7780(3)
H90 H 0.8621 0.9019 0.7939
C147 C 0.8750(7) 0.8608(7) 0.7591(4)
H91 H 0.8464 0.8410 0.7610
C148 C 0.9080(9) 0.8513(7) 0.7367(5)
H92 H 0.9019 0.8252 0.7236
C149 C 0.9506(11) 0.8811(9) 0.7337(5)
H93 H 0.9740 0.8735 0.7194
C150 C 0.9586(7) 0.9206(7) 0.7511(4)
H94 H 0.9863 0.9416 0.7486
C74_2 C 0.0459(5) 0.2846(4) 0.8996(2)
H46_2 H 0.0411 0.2679 0.9172
C75_2 C 0.0812(5) 0.3220(4) 0.8978(2)
H47_2 H 0.1003 0.3303 0.9140
C100_2 C 0.0176(4) 0.2716(4) 0.8758(2)
C101_2 C 0.0244(4) 0.2990(4) 0.8506(2)
C102_2 C 0.0595(4) 0.3364(5) 0.8499(3)
N4_2 N 0.0886(4) 0.3469(4) 0.8725(2)
O31_2 O 0.1264(3) 0.3804(3) 0.87060(14)
La5_2 La 0.11516(3) 0.47757(3) 0.860340(15)
La6_2 La 0.21231(3) 0.35463(3) 0.845210(15)
H54_2 H 0.0631 0.3552 0.8330
H55_2 H 0.0052 0.2920 0.8342
La1_2 La 0.72757(3) 0.13484(3) 0.110340(15)
La2_2 La 0.60463(3) 0.03769(3) 0.095210(15)
F1_2 F 0.6849(4) 0.3150(4) 0.0813(2)
F2_2 F 0.6291(4) 0.2772(4) 0.0564(2)
F3_2 F 0.6903(3) 0.3119(4) 0.0352(2)
F4_2 F 0.6991(4) 0.1991(3) 0.21378(18)
F5_2 F 0.6428(3) 0.2406(3) 0.19065(17)
F6_2 F 0.7069(4) 0.2784(4) 0.2064(2)
F8_2 F 0.8624(4) 0.0115(3) 0.0736(2)
F13_2 F 0.5560(7) 0.0336(6) 0.1949(3)
F16_2 F 0.5422(5) 0.1828(5) 0.0271(2)
F17_2 F 0.4720(6) 0.1618(4) 0.0280(5)
F18_2 F 0.5205(7) 0.1101(8) 0.0071(3)
O1_2 O 0.6904(3) 0.2082(3) 0.08192(18)
O2_2 O 0.7718(3) 0.1484(3) 0.06304(17)
O3_2 O 0.6995(3) 0.1869(3) 0.15176(17)
O4_2 O 0.7850(3) 0.2072(3) 0.11727(17)
O5_2 O 0.7906(3) 0.0681(3) 0.10015(18)
O6_2 O 0.7752(3) 0.1094(3) 0.15457(16)
O8_2 O 0.6057(3) 0.0097(3) 0.04345(17)
O9_2 O 0.5896(3) 0.0030(3) 0.14473(16)
O11_2 O 0.5631(3) 0.0997(3) 0.06163(18)
O12_2 O 0.5250(3) 0.0728(3) 0.1171(2)
O14_2 O 0.6769(3) 0.0856(3) 0.07211(15)
N2_2 N 0.6909(4) 0.0781(4) 0.0441(2)
C1_2 C 0.6766(7) 0.2846(7) 0.0586(4)
C2_2 C 0.7054(6) 0.2357(6) 0.0618(3)
C3_2 C 0.7461(6) 0.2275(6) 0.0434(3)
H1_2 H 0.7539 0.2524 0.0299
C4_2 C 0.7769(6) 0.1834(5) 0.0439(3)
C11_2 C 0.6909(6) 0.2365(7) 0.1935(4)
C12_2 C 0.7192(5) 0.2233(5) 0.1654(3)
C13_2 C 0.7605(5) 0.2527(5) 0.1589(3)
H7_2 H 0.7689 0.2786 0.1716
C14_2 C 0.7911(5) 0.2455(5) 0.1337(3)
C21_2 C 0.8334 0.0001 0.0947
C22_2 C 0.8159(5) 0.0393(5) 0.1159(3)
C23_2 C 0.8240(5) 0.0389(5) 0.1449(3)
H13_2 H 0.8441 0.0136 0.1527
C24_2 C 0.8036(5) 0.0746(5) 0.1639(3)
C51_2 C 0.5135(9) 0.1460(9) 0.0279(4)
C52_2 C 0.5266(8) 0.1158(8) 0.0529(5)
C53_2 C 0.4802(7) 0.1266(7) 0.0746(4)
H31_2 H 0.4526 0.1465 0.0699
C54_2 C 0.4876(7) 0.0985(7) 0.1059(4)
C68_2 C 0.6655(4) 0.0988(4) 0.0226(3)
H41_2 H 0.6371 0.1178 0.0269
O16_2 O 0.6304(3) 0.1236(3) 0.12060(14)
O17_2 O 0.6891(3) 0.0477(3) 0.12523(15)
C113_2 C 0.7507(4) 0.0431(5) 0.0109(3)
H63_2 H 0.7793 0.0240 0.0074
C114_2 C 0.7320(5) 0.0513(5) 0.0391(2)
H64_2 H 0.7491 0.0374 0.0548
C115_2 C 0.4462(6) 0.1129(6) 0.1288(3)
C116_2 C 0.4543(7) 0.0874(7) 0.1517(4)
H66_2 H 0.4805 0.0643 0.1527
C117_2 C 0.4222(7) 0.0957(7) 0.1752(4)
H67_2 H 0.4224 0.0744 0.1913
C118_2 C 0.3876(7) 0.1394(7) 0.1738(4)
C119_2 C 0.3817(6) 0.1662(6) 0.1475(4)
H68_2 H 0.3588 0.1924 0.1455
C120_2 C 0.4141(6) 0.1502(6) 0.1235(4)
H69_2 H 0.4123 0.1654 0.1053
H79_2 H 0.5676 0.0213 0.0055
C133_2 C 0.8160(5) 0.0726(5) 0.1954(3)
C134_2 C 0.7935(6) 0.1060(6) 0.2123(3)
H80_2 H 0.7724 0.1302 0.2042
C135_2 C 0.8018(6) 0.1048(6) 0.2439(3)
H81_2 H 0.7861 0.1281 0.2559
C136_2 C 0.8321(6) 0.0701(6) 0.2553(4)
H82_2 H 0.8383 0.0698 0.2752
C137_2 C 0.8533(6) 0.0361(6) 0.2381(4)
H83_2 H 0.8732 0.0110 0.2462
C138_2 C 0.8460(6) 0.0377(6) 0.2077(3)
H84_2 H 0.8621 0.0143 0.1959
C139_2 C 0.8319(5) 0.2813(5) 0.1265(3)
C140_2 C 0.8484(6) 0.2805(6) 0.0977(4)
H85_2 H 0.8373 0.2560 0.0848
C141_2 C 0.8808(7) 0.3164(7) 0.0892(4)
H86_2 H 0.8883 0.3202 0.0695
C142_2 C 0.9041(7) 0.3493(6) 0.1103(5)
H87_2 H 0.9301 0.3705 0.1047
C143_2 C 0.8884(6) 0.3489(6) 0.1370(4)
H88_2 H 0.9031 0.3701 0.1507
C144_2 C 0.8486(6) 0.3161(5) 0.1454(3)
H89_2 H 0.8343 0.3187 0.1638
C145_2 C 0.8207(6) 0.1723(8) 0.0243(3)
C146_2 C 0.8521(6) 0.1333(7) 0.0280(3)
H90_2 H 0.8481 0.1121 0.0439
C147_2 C 0.8892(7) 0.1250(7) 0.0091(4)
H91_2 H 0.9090 0.0964 0.0110
C150_2 C 0.8294(7) 0.2086(7) 0.0011(4)
H96_2 H 0.366726 0.150821 0.193084
N1_2 N 0.7801(4) 0.0608(3) 0.9026(2)
N3_2 N 0.9114(4) 0.1531(4) 0.8725(2)
C61_2 C 0.8116(4) 0.0696(4) 0.9246(2)
C62_2 C 0.7943(4) 0.0712(4) 0.9522(2)
C63_2 C 0.7440(5) 0.0620(4) 0.9580(2)
C66_2 C 0.7230(5) 0.0661(5) 0.9883(2)
C70_2 C 0.6799(5) 0.0933(5) 0.9939(3)
C71_2 C 0.9405(4) 0.1636(5) 0.8499(3)
H44_2 H 0.9369 0.1448 0.8330
C72_2 C 0.9756(4) 0.2010(4) 0.8506(2)
H45_2 H 0.9948 0.2080 0.8342
C73_2 C 0.9824(4) 0.2284(4) 0.8758(2)
C103_2 C 0.9541(5) 0.2154(4) 0.8996(2)
H56_2 H 0.9589 0.2321 0.9172
C104_2 C 0.9188(5) 0.1780(4) 0.8978(2)
H57_2 H 0.8997 0.1697 0.9140
C111_2 C 0.7311(4) 0.0525(5) 0.9068(2)
C112_2 C 0.7107(4) 0.0528(5) 0.9342(3)
H59_2 H 0.6765 0.0473 0.9371
H60_2 H 0.7105 0.0465 0.8908
H61_2 H 0.8456 0.0748 0.9208
H62_2 H 0.8163 0.0785 0.9674
H65_2 H 0.6611 0.1073 0.9789
C131_2 C 0.5652(6) 0.0065(6) 0.9595(4)
H78_2 H 0.5390 0.0280 0.9545
C132_2 C 0.5815(6) 0.0017(6) 0.9908(3)
C148_2 C 0.8987(7) 0.1580(9) 0.9867(5)
H92_2 H 0.9248 0.1519 0.9736
C149_2 C 0.8689(9) 0.2006(11) 0.9837(5)
H93_2 H 0.8765 0.2240 0.9694
H94_2 H 0.8084 0.2363 0.9986
F7_2 F 0.8051(3) 0.9631(4) 0.0875(2)
F9_2 F 0.8733(4) 0.9706(4) 0.1094(2)
F10_2 F 0.7301(7) 0.8819(5) 0.0577(3)
F11_2 F 0.6740(3) 0.8438(5) 0.0742(3)
F12_2 F 0.7205(3) 0.8854(3) 0.1015(2)
F14_2 F 0.5748(5) 0.9541(4) 0.1987(3)
F15_2 F 0.5006(6) 0.9722(4) 0.1973(2)
O7_2 O 0.6571(3) 0.9590(3) 0.08933(17)
O10_2 O 0.5470(4) 0.9642(3) 0.0904(2)
C31_2 C 0.6993(8) 0.8839(8) 0.0778(4)
C32_2 C 0.6640(8) 0.9239(8) 0.0707(5)
C33_2 C 0.6580(7) 0.9298(7) 0.0391(4)
H19_2 H 0.6733 0.9087 0.0256
C34_2 C 0.6250(8) 0.9730(7) 0.0306(5)
C41_2 C 0.5445 0.9875 0.1850
C42_2 C 0.5524(6) 0.9860(6) 0.1567(4)
C43_2 C 0.5185(7) 0.9526(8) 0.1419(5)
H25_2 H 0.4926 0.9380 0.1527
C44_2 C 0.5229(9) 0.9383(9) 0.1059(6)
C121_2 C 0.4859(6) 0.9008(6) 0.0928(3)
C122_2 C 0.5017(6) 0.8733(7) 0.0687(4)
H70_2 H 0.5344 0.8765 0.0620
C123_2 C 0.4684(9) 0.8410(6) 0.0548(4)
H71_2 H 0.4789 0.8226 0.0387
C124_2 C 0.4194(8) 0.8361(7) 0.0649(5)
H72_2 H 0.3971 0.8145 0.0556
C125_2 C 0.4036(5) 0.8636(8) 0.0890(5)
H73_2 H 0.3709 0.8603 0.0958
C126_2 C 0.4369(7) 0.8959(7) 0.1029(3)
H74_2 H 0.4264 0.9143 0.1190
C127_2 C 0.6171(5) 0.9679(5) 0.9961(3)
C128_2 C 0.6408(6) 0.9401(6) 0.9752(4)
H75_2 H 0.6665 0.9178 0.9800
C129_2 C 0.6251(6) 0.9465(6) 0.9465(4)
H76_2 H 0.6407 0.9271 0.9323
C130_2 C 0.5897(6) 0.9782(7) 0.9380(4)
H77_2 H 0.5814 0.9816 0.9185
La1_3 La 0.38484(3) 0.52243(3) 0.360340(15)
La2_3 La 0.28769(3) 0.64537(3) 0.345210(15)
F1_3 F 0.5650(4) 0.5651(4) 0.3313(2)
F2_3 F 0.5272(4) 0.6209(4) 0.3064(2)
F3_3 F 0.5619(4) 0.5597(3) 0.2852(2)
F4_3 F 0.4491(3) 0.5509(4) 0.46378(18)
F5_3 F 0.4906(3) 0.6072(3) 0.44065(17)
F6_3 F 0.5284(4) 0.5431(4) 0.4564(2)
F7_3 F 0.2131(4) 0.4449(3) 0.3375(2)
F8_3 F 0.2615(3) 0.3876(4) 0.3236(2)
F9_3 F 0.2206(4) 0.3767(4) 0.3594(2)
F10_3 F 0.1319(5) 0.5199(7) 0.3077(3)
F11_3 F 0.0938(5) 0.5760(3) 0.3242(3)
F12_3 F 0.1354(3) 0.5295(3) 0.3515(2)
F13_3 F 0.2836(6) 0.6940(7) 0.4449(3)
F14_3 F 0.2041(4) 0.6752(5) 0.4487(3)
F15_3 F 0.2222(4) 0.7494(6) 0.4473(2)
F16_3 F 0.4328(5) 0.7078(5) 0.2771(2)
F17_3 F 0.4118(4) 0.7780(6) 0.2780(5)
F18_3 F 0.3601(8) 0.7295(7) 0.2571(3)
O1_3 O 0.4582(3) 0.5596(3) 0.33192(18)
O2_3 O 0.3984(3) 0.4782(3) 0.31304(17)
O3_3 O 0.4369(3) 0.5505(3) 0.40176(17)
O4_3 O 0.4572(3) 0.4650(3) 0.36727(17)
O5_3 O 0.3181(3) 0.4594(3) 0.35015(18)
O6_3 O 0.3594(3) 0.4748(3) 0.40457(16)
O7_3 O 0.2090(3) 0.5929(3) 0.33933(17)
O8_3 O 0.2597(3) 0.6443(3) 0.29345(17)
O9_3 O 0.2530(3) 0.6604(3) 0.39473(16)
O10_3 O 0.2142(3) 0.7030(4) 0.3404(2)
O11_3 O 0.3497(3) 0.6869(3) 0.31163(18)
O12_3 O 0.3228(3) 0.7250(3) 0.3671(2)
O13_2 O 0.3109(3) 0.4523(3) 0.12523(15)
O14_3 O 0.3356(3) 0.5731(3) 0.32211(15)
O15_2 O 0.3696(3) 0.3764(3) 0.12060(14)
N1_3 N 0.3108(3) 0.4699(4) 0.1526(2)
N2_3 N 0.3281(4) 0.5591(4) 0.2941(2)
N3_3 N 0.4031(4) 0.3386(4) 0.1225(2)
C1_3 C 0.5346(7) 0.5734(7) 0.3086(4)
C2_3 C 0.4857(6) 0.5446(6) 0.3118(3)
C3_3 C 0.4775(6) 0.5039(6) 0.2934(3)
H1_3 H 0.5024 0.4961 0.2799
C4_3 C 0.4334(5) 0.4731(6) 0.2939(3)
C5_2 C 0.1793(6) 0.3277(8) 0.0243(3)
C6_2 C 0.1479(6) 0.3667(7) 0.0280(3)
H2_2 H 0.1519 0.3879 0.0439
C7_2 C 0.1108(7) 0.3750(7) 0.0091(4)
H3_2 H 0.0910 0.4036 0.0110
C10_2 C 0.1706(7) 0.2914(7) 0.0011(4)
C11_3 C 0.4865(7) 0.5591(6) 0.4435(4)
C12_3 C 0.4733(5) 0.5308(5) 0.4154(3)
C13_3 C 0.5027(5) 0.4895(5) 0.4089(3)
H7_3 H 0.5286 0.4811 0.4216
C14_3 C 0.4955(5) 0.4589(5) 0.3837(3)
C15_2 C 0.1681(5) 0.2187(5) 0.1265(3)
C16_2 C 0.1516(6) 0.2195(6) 0.0977(4)
H8_2 H 0.1627 0.2440 0.0848
C17_2 C 0.1192(7) 0.1836(7) 0.0892(4)
H9_2 H 0.1117 0.1798 0.0695
C18_2 C 0.0959(7) 0.1507(6) 0.1103(5)
H10_2 H 0.0699 0.1295 0.1047
C19_2 C 0.1116(6) 0.1511(6) 0.1370(4)
H11_2 H 0.0969 0.1299 0.1507
C20_2 C 0.1514(6) 0.1839(5) 0.1454(3)
H12_2 H 0.1657 0.1813 0.1638
C21_3 C 0.2501 0.4166 0.3447
C22_3 C 0.2893(5) 0.4341(5) 0.3659(3)
C23_3 C 0.2889(5) 0.4260(5) 0.3949(3)
H13_3 H 0.2636 0.4059 0.4027
C24_3 C 0.3246(5) 0.4464(5) 0.4139(3)
C25_2 C 0.1840(5) 0.4274(5) 0.1954(3)
C26_2 C 0.2065(6) 0.3940(6) 0.2123(3)
H14_2 H 0.2276 0.3698 0.2042
C27_2 C 0.1982(6) 0.3952(6) 0.2439(3)
H15_2 H 0.2139 0.3719 0.2559
C28_2 C 0.1679(6) 0.4299(6) 0.2553(4)
H16_2 H 0.1617 0.4302 0.2752
C29_2 C 0.1467(6) 0.4639(6) 0.2381(4)
H17_2 H 0.1268 0.4890 0.2462
C30_2 C 0.1540(6) 0.4623(6) 0.2077(3)
H18_2 H 0.1379 0.4857 0.1959
C31_3 C 0.1339(8) 0.5507(8) 0.3278(4)
C32_3 C 0.1739(8) 0.5860(8) 0.3207(5)
C33_3 C 0.1798(7) 0.5920(7) 0.2891(4)
H19_3 H 0.1587 0.5767 0.2756
C34_3 C 0.2230(7) 0.6250(8) 0.2806(5)
H24_2 H 0.4324 0.4787 0.0055
C41_3 C 0.2375 0.7055 0.4350
C42_3 C 0.2360(6) 0.6976(6) 0.4067(4)
C43_3 C 0.2026(8) 0.7315(7) 0.3919(5)
H25_3 H 0.1880 0.7574 0.4027
C44_3 C 0.1883(9) 0.7271(9) 0.3559(6)
C45_2 C 0.5141(6) 0.5992(6) 0.0928(3)
C46_2 C 0.4983(6) 0.6267(7) 0.0687(4)
H26_2 H 0.4656 0.6235 0.0620
C47_2 C 0.5316(9) 0.6590(6) 0.0548(4)
H27_2 H 0.5211 0.6774 0.0387
C48_2 C 0.5806(8) 0.6639(7) 0.0649(5)
H28_2 H 0.6029 0.6855 0.0556
C49_2 C 0.5964(5) 0.6364(8) 0.0890(5)
H29_2 H 0.6291 0.6397 0.0958
C50_2 C 0.5631(7) 0.6041(7) 0.1029(3)
H30_2 H 0.5736 0.5857 0.1190
C51_3 C 0.3960(9) 0.7365(9) 0.2779(4)
C52_3 C 0.3658(8) 0.7234(8) 0.3029(5)
C53_3 C 0.3766(7) 0.7698(7) 0.3246(4)
H31_3 H 0.3965 0.7974 0.3199
C54_3 C 0.3485(7) 0.7624(7) 0.3559(4)
C55_2 C 0.5538(6) 0.3871(6) 0.1288(3)
C56_2 C 0.5457(7) 0.4126(7) 0.1517(4)
H32_2 H 0.5195 0.4357 0.1527
C57_2 C 0.5778(7) 0.4043(7) 0.1752(4)
H33_2 H 0.5776 0.4256 0.1913
C58_2 C 0.6124(7) 0.3606(7) 0.1738(4)
C59_2 C 0.6183(6) 0.3338(6) 0.1475(4)
H34_2 H 0.6412 0.3076 0.1455
C60_2 C 0.5859(6) 0.3498(6) 0.1235(4)
H35_2 H 0.5877 0.3346 0.1053
C61_3 C 0.3196(4) 0.4384(4) 0.1746(2)
C62_3 C 0.3212(4) 0.4557(4) 0.2022(2)
C63_3 C 0.3120(4) 0.5060(5) 0.2080(2)
C66_3 C 0.3161(5) 0.5270(5) 0.2383(2)
C67_2 C 0.2493(4) 0.4569(5) 0.0109(3)
H40_2 H 0.2207 0.4760 0.0074
C68_3 C 0.3488(4) 0.5845(4) 0.2726(3)
H41_3 H 0.3678 0.6129 0.2769
C69_2 C 0.2680(5) 0.4487(5) 0.0391(2)
H42_2 H 0.2509 0.4626 0.0548
C70_3 C 0.3433(5) 0.5701(5) 0.2439(3)
C71_3 C 0.4136(5) 0.3095(4) 0.0999(3)
H44_3 H 0.3948 0.3131 0.0830
C72_3 C 0.4510(4) 0.2744(4) 0.1006(2)
H45_3 H 0.4580 0.2552 0.0842
C73_3 C 0.4784(4) 0.2676(4) 0.1258(2)
C74_3 C 0.5346(4) 0.2041(5) 0.1496(2)
H46_3 H 0.5179 0.2089 0.1672
C75_3 C 0.5720(4) 0.1688(5) 0.1478(2)
H47_3 H 0.5803 0.1497 0.1640
O16_3 O 0.3736(3) 0.6196(3) 0.37060(14)
O17_3 O 0.2977(3) 0.5609(3) 0.37523(15)
La3_2 La 0.27243(3) 0.36516(3) 0.110340(15)
O18_2 O 0.3096(3) 0.2918(3) 0.08192(18)
C76_2 C 0.2946(6) 0.2643(6) 0.0618(3)
C77_2 C 0.3234(7) 0.2154(7) 0.0586(4)
F19_2 F 0.3151(4) 0.1850(4) 0.0813(2)
F20_2 F 0.3709(4) 0.2228(4) 0.0564(2)
F21_2 F 0.3097(3) 0.1881(4) 0.0352(2)
C78_2 C 0.2539(6) 0.2725(6) 0.0434(3)
H48_2 H 0.2461 0.2476 0.0299
C79_2 C 0.2231(6) 0.3166(5) 0.0439(3)
O19_2 O 0.2282(3) 0.3516(3) 0.06304(17)
O20_2 O 0.3005(3) 0.3131(3) 0.15176(17)
C80_2 C 0.2808(5) 0.2767(5) 0.1654(3)
C81_2 C 0.3091(6) 0.2635(7) 0.1935(4)
F22_2 F 0.3009(4) 0.3009(3) 0.21378(18)
F23_2 F 0.3572(3) 0.2594(3) 0.19065(17)
F24_2 F 0.2931(4) 0.2216(4) 0.2064(2)
C82_2 C 0.2395(5) 0.2473(5) 0.1589(3)
H49_2 H 0.2311 0.2214 0.1716
C83_2 C 0.2089(5) 0.2545(5) 0.1337(3)
O21_2 O 0.2150(3) 0.2928(3) 0.11727(17)
O22_2 O 0.2094(3) 0.4319(3) 0.10015(18)
C84_2 C 0.1841(5) 0.4607(5) 0.1159(3)
C85_2 C 0.1666 0.4999 0.0947
F25_2 F 0.1949(3) 0.5369(4) 0.0875(2)
F26_2 F 0.1376(4) 0.4885(3) 0.0736(2)
F27_2 F 0.1267(4) 0.5294(4) 0.1094(2)
C86_2 C 0.1760(5) 0.4611(5) 0.1449(3)
H50_2 H 0.1559 0.4864 0.1527
C87_2 C 0.1964(5) 0.4254(5) 0.1639(3)
O23_2 O 0.2248(3) 0.3906(3) 0.15457(16)
O24_2 O 0.3231(3) 0.4144(3) 0.07211(15)
La4_2 La 0.39537(3) 0.46231(3) 0.095210(15)
O25_2 O 0.3429(3) 0.5410(3) 0.08933(17)
C88_2 C 0.3360(8) 0.5761(8) 0.0707(5)
C89_2 C 0.3007(8) 0.6161(8) 0.0778(4)
F28_2 F 0.2699(7) 0.6181(5) 0.0577(3)
F29_2 F 0.3260(3) 0.6562(5) 0.0742(3)
F30_2 F 0.2795(3) 0.6146(3) 0.1015(2)
C90_2 C 0.3420(7) 0.5702(7) 0.0391(4)
H51_2 H 0.3267 0.5913 0.0256
C91_2 C 0.3750(8) 0.5270(7) 0.0306(5)
O26_2 O 0.3943(3) 0.4903(3) 0.04345(17)
O27_2 O 0.4104(3) 0.4970(3) 0.14473(16)
C92_2 C 0.4476(6) 0.5140(6) 0.1567(4)
C93_2 C 0.4555 0.5125 0.1850
F31_2 F 0.4440(7) 0.4664(6) 0.1949(3)
F32_2 F 0.4252(5) 0.5459(4) 0.1987(3)
F33_2 F 0.4994(6) 0.5278(4) 0.1973(2)
C94_2 C 0.4815(7) 0.5474(8) 0.1419(5)
H52_2 H 0.5074 0.5620 0.1527
C95_2 C 0.4771(9) 0.5617(9) 0.1059(6)
O28_2 O 0.4530(4) 0.5358(3) 0.0904(2)
O29_2 O 0.4369(3) 0.4003(3) 0.06163(18)
C96_2 C 0.4734(8) 0.3842(8) 0.0529(5)
C97_2 C 0.4865(9) 0.3540(9) 0.0279(4)
F34_2 F 0.4578(5) 0.3172(5) 0.0271(2)
F35_2 F 0.5280(6) 0.3382(4) 0.0280(5)
F36_2 F 0.4795(7) 0.3899(8) 0.0071(3)
C98_2 C 0.5198(7) 0.3734(7) 0.0746(4)
H53_2 H 0.5474 0.3535 0.0699
C99_2 C 0.5124(7) 0.4015(7) 0.1059(4)
O30_2 O 0.4750(3) 0.4272(3) 0.1171(2)
C100_3 C 0.5216(4) 0.2324(4) 0.1258(2)
C101_3 C 0.5490(4) 0.2256(4) 0.1006(2)
C102_3 C 0.5864(5) 0.1905(4) 0.0999(3)
N4_3 N 0.5969(4) 0.1614(4) 0.1225(2)
H54_3 H 0.6052 0.1869 0.0830
H55_3 H 0.5420 0.2448 0.0842
C103_3 C 0.4654(4) 0.2959(5) 0.1496(2)
H56_3 H 0.4821 0.2911 0.1672
C104_3 C 0.4280(4) 0.3312(5) 0.1478(2)
H57_3 H 0.4197 0.3503 0.1640
N5_2 N 0.3091(4) 0.4219(4) 0.0441(2)
C105_2 C 0.3345(4) 0.4012(4) 0.0226(3)
H58_2 H 0.3629 0.3822 0.0269
C111_3 C 0.3025(5) 0.5189(4) 0.1568(2)
C112_3 C 0.3028(5) 0.5393(4) 0.1842(3)
H59_3 H 0.2973 0.5735 0.1871
H60_3 H 0.2965 0.5395 0.1408
H61_3 H 0.3248 0.4044 0.1708
H62_3 H 0.3285 0.4337 0.2174
C113_3 C 0.2931(5) 0.4993(4) 0.2609(3)
H63_3 H 0.2740 0.4707 0.2574
C114_3 C 0.3013(5) 0.5180(5) 0.2891(2)
H64_3 H 0.2874 0.5009 0.3048
H65_3 H 0.3573 0.5889 0.2289
C115_3 C 0.3629(6) 0.8038(6) 0.3788(3)
C116_3 C 0.3374(7) 0.7957(7) 0.4017(4)
H66_3 H 0.3143 0.7695 0.4027
C117_3 C 0.3457(7) 0.8278(7) 0.4252(4)
H67_3 H 0.3244 0.8276 0.4413
C118_3 C 0.3894(7) 0.8624(7) 0.4238(4)
C119_3 C 0.4162(6) 0.8683(6) 0.3975(4)
H68_3 H 0.4424 0.8912 0.3955
C120_3 C 0.4002(6) 0.8359(6) 0.3735(4)
H69_3 H 0.4154 0.8377 0.3553
C121_3 C 0.1508(6) 0.7641(6) 0.3428(3)
C122_3 C 0.1233(7) 0.7483(6) 0.3187(4)
H70_3 H 0.1265 0.7156 0.3120
C123_3 C 0.0910(6) 0.7816(9) 0.3048(4)
H71_3 H 0.0726 0.7711 0.2887
C124_3 C 0.0861(7) 0.8306(8) 0.3149(5)
H72_3 H 0.0645 0.8529 0.3056
C125_3 C 0.1136(8) 0.8464(5) 0.3390(5)
H73_3 H 0.1103 0.8791 0.3458
C126_3 C 0.1459(7) 0.8131(7) 0.3529(3)
H74_3 H 0.1643 0.8236 0.3690
C127_3 C 0.2179(5) 0.6329(5) 0.2461(3)
C128_3 C 0.1901(6) 0.6092(6) 0.2252(4)
H75_3 H 0.1678 0.5835 0.2300
C129_3 C 0.1965(6) 0.6249(6) 0.1965(4)
H76_3 H 0.1771 0.6093 0.1823
C130_3 C 0.2282(7) 0.6603(6) 0.1880(4)
H77_3 H 0.2316 0.6686 0.1685
C131_3 C 0.2565(6) 0.6848(6) 0.2095(4)
H78_3 H 0.2780 0.7110 0.2045
C132_3 C 0.2517(6) 0.6685(6) 0.2408(3)
H79_3 H 0.2713 0.6824 0.2555
C133_3 C 0.3226(5) 0.4340(5) 0.4454(3)
C134_3 C 0.3560(6) 0.4565(6) 0.4623(3)
H80_3 H 0.3802 0.4776 0.4542
C135_3 C 0.3548(6) 0.4482(6) 0.4939(3)
H81_3 H 0.3781 0.4639 0.5059
C136_3 C 0.3201(6) 0.4179(6) 0.5053(4)
H82_3 H 0.3198 0.4117 0.5252
C137_3 C 0.2861(6) 0.3967(6) 0.4881(4)
H83_3 H 0.2610 0.3768 0.4962
C138_3 C 0.2877(6) 0.4040(6) 0.4577(3)
H84_3 H 0.2643 0.3879 0.4459
C139_3 C 0.5313(5) 0.4181(5) 0.3765(3)
C140_3 C 0.5305(6) 0.4016(6) 0.3477(4)
H85_3 H 0.5060 0.4127 0.3348
C141_3 C 0.5664(7) 0.3692(7) 0.3392(4)
H86_3 H 0.5702 0.3617 0.3195
C142_3 C 0.5993(6) 0.3459(7) 0.3603(5)
H87_3 H 0.6205 0.3199 0.3547
C143_3 C 0.5989(6) 0.3616(6) 0.3870(4)
H88_3 H 0.6201 0.3469 0.4007
C144_3 C 0.5661(5) 0.4014(6) 0.3954(3)
H89_3 H 0.5687 0.4157 0.4138
C145_3 C 0.4223(8) 0.4293(6) 0.2743(3)
C146_3 C 0.3833(7) 0.3979(6) 0.2780(3)
H90_3 H 0.3621 0.4019 0.2939
C147_3 C 0.3750(7) 0.3608(7) 0.2591(4)
H91_3 H 0.3464 0.3410 0.2610
C148_3 C 0.4080(9) 0.3513(7) 0.2367(5)
H92_3 H 0.4019 0.3252 0.2236
C149_3 C 0.4506(11) 0.3811(9) 0.2337(5)
H93_3 H 0.4740 0.3735 0.2194
C150_3 C 0.4586(7) 0.4206(7) 0.2511(4)
H94_3 H 0.4863 0.4416 0.2486
H95_2 H 0.633274 0.349179 0.193084
H96_3 H 0.400821 0.883274 0.443084
C8_2 C 0.1013(7) 0.3420(9) 0.9867(5)
H4_2 H 0.0752 0.3481 0.9736
C9_2 C 0.1311(9) 0.2994(11) 0.9837(5)
H5_2 H 0.1235 0.2760 0.9694
H6_2 H 0.1916 0.2637 0.9986
C35_2 C 0.3829(5) 0.5321(5) 0.9961(3)
C36_2 C 0.3592(6) 0.5599(6) 0.9752(4)
H20_2 H 0.3335 0.5822 0.9800
C37_2 C 0.3749(6) 0.5535(6) 0.9465(4)
H21_2 H 0.3593 0.5729 0.9323
C38_2 C 0.4103(6) 0.5218(7) 0.9380(4)
H22_2 H 0.4186 0.5184 0.9185
C39_2 C 0.4348(6) 0.4935(6) 0.9595(4)
H23_2 H 0.4610 0.4720 0.9545
C40_2 C 0.4185(6) 0.4983(6) 0.9908(3)
H36_2 H 0.1544 0.4252 0.9208
H37_2 H 0.1837 0.4215 0.9674
C64_2 C 0.2893(4) 0.4472(5) 0.9342(3)
H38_2 H 0.3235 0.4527 0.9371
C65_2 C 0.2689(4) 0.4475(5) 0.9068(2)
H39_2 H 0.2895 0.4535 0.8908
H43_2 H 0.3389 0.3927 0.9789
C106_2 C 0.3201(5) 0.4067(5) 0.9939(3)
C107_2 C 0.2770(5) 0.4339(5) 0.9883(2)
C108_2 C 0.2560(5) 0.4380(4) 0.9580(2)
C109_2 C 0.2057(4) 0.4288(4) 0.9522(2)
C110_2 C 0.1884(4) 0.4304(4) 0.9246(2)
N6_2 N 0.2199(4) 0.4392(3) 0.9026(2)
O32_2 O 0.2023(3) 0.4391(3) 0.87523(15)
F1_4 F 0.1849(4) 0.8150(4) 0.5813(2)
F2_4 F 0.1291(4) 0.7772(4) 0.5564(2)
F3_4 F 0.1903(3) 0.8119(4) 0.5352(2)
F4_4 F 0.1991(4) 0.6991(3) 0.71378(18)
F5_4 F 0.1428(3) 0.7406(3) 0.69065(17)
F6_4 F 0.2069(4) 0.7784(4) 0.7064(2)
F7_4 F 0.3051(3) 0.4631(4) 0.5875(2)
F8_4 F 0.3624(4) 0.5115(3) 0.5736(2)
F9_4 F 0.3733(4) 0.4706(4) 0.6094(2)
F10_4 F 0.2301(7) 0.3819(5) 0.5577(3)
F11_4 F 0.1740(3) 0.3438(5) 0.5742(3)
F12_4 F 0.2205(3) 0.3854(3) 0.6015(2)
F13_4 F 0.0560(7) 0.5336(6) 0.6949(3)
F14_4 F 0.0748(5) 0.4541(4) 0.6987(3)
F15_4 F 0.0006(6) 0.4722(4) 0.6973(2)
F16_4 F 0.0422(5) 0.6828(5) 0.5271(2)
F18_4 F 0.0205(7) 0.6101(8) 0.5071(3)
O1_4 O 0.1904(3) 0.7082(3) 0.58192(18)
O2_4 O 0.2718(3) 0.6484(3) 0.56304(17)
O3_4 O 0.1995(3) 0.6869(3) 0.65176(17)
O4_4 O 0.2850(3) 0.7072(3) 0.61727(17)
O5_4 O 0.2906(3) 0.5681(3) 0.60015(18)
O6_4 O 0.2752(3) 0.6094(3) 0.65457(16)
O7_4 O 0.1571(3) 0.4590(3) 0.58933(17)
O8_4 O 0.1057(3) 0.5097(3) 0.54345(17)
O9_4 O 0.0896(3) 0.5030(3) 0.64473(16)
O10_4 O 0.0470(4) 0.4642(3) 0.5904(2)
O11_4 O 0.0631(3) 0.5997(3) 0.56163(18)
O12_4 O 0.0250(3) 0.5728(3) 0.6171(2)
O14_4 O 0.1769(3) 0.5856(3) 0.57211(15)
N1_4 N 0.2801(4) 0.5608(3) 0.4026(2)
N2_4 N 0.1909(4) 0.5781(4) 0.5441(2)
N3_4 N 0.4114(4) 0.6531(4) 0.3725(2)
C1_4 C 0.1766(7) 0.7846(7) 0.5586(4)
C2_4 C 0.2054(6) 0.7357(6) 0.5618(3)
C3_4 C 0.2461(6) 0.7275(6) 0.5434(3)
H1_4 H 0.2539 0.7524 0.5299
C4_4 C 0.2769(6) 0.6834(5) 0.5439(3)
C11_4 C 0.1909(6) 0.7365(7) 0.6935(4)
C12_4 C 0.2192(5) 0.7233(5) 0.6654(3)
C13_4 C 0.2605(5) 0.7527(5) 0.6589(3)
H7_4 H 0.2689 0.7786 0.6716
C14_4 C 0.2911(5) 0.7455(5) 0.6337(3)
C21_4 C 0.3334 0.5001 0.5947
C22_4 C 0.3159(5) 0.5393(5) 0.6159(3)
C23_4 C 0.3240(5) 0.5389(5) 0.6449(3)
H13_4 H 0.3441 0.5136 0.6527
C24_4 C 0.3036(5) 0.5746(5) 0.6639(3)
C31_4 C 0.1993(8) 0.3839(8) 0.5778(4)
C32_4 C 0.1640(8) 0.4239(8) 0.5707(5)
C33_4 C 0.1580(7) 0.4298(7) 0.5391(4)
H19_4 H 0.1733 0.4087 0.5256
C34_4 C 0.1250(8) 0.4730(7) 0.5306(5)
C41_4 C 0.0445 0.4875 0.6850
C42_4 C 0.0524(6) 0.4860(6) 0.6567(4)
C43_4 C 0.0185(7) 0.4526(8) 0.6419(5)
C44_4 C 0.0229(9) 0.4383(9) 0.6059(6)
C51_4 C 0.0135(9) 0.6460(9) 0.5279(4)
C52_4 C 0.0266(8) 0.6158(8) 0.5529(5)
C61_4 C 0.3116(4) 0.5696(4) 0.4246(2)
C62_4 C 0.2943(4) 0.5712(4) 0.4522(2)
C63_4 C 0.2440(5) 0.5620(4) 0.4580(2)
C66_4 C 0.2230(5) 0.5661(5) 0.4883(2)
C68_4 C 0.1655(4) 0.5988(4) 0.5226(3)
H41_4 H 0.1371 0.6178 0.5269
C70_4 C 0.1799(5) 0.5933(5) 0.4939(3)
C71_4 C 0.4405(4) 0.6636(5) 0.3499(3)
H44_4 H 0.4369 0.6448 0.3330
C72_4 C 0.4756(4) 0.7010(4) 0.3506(2)
H45_4 H 0.4948 0.7080 0.3342
C73_4 C 0.4824(4) 0.7284(4) 0.3758(2)
C74_4 C 0.5459(5) 0.7846(4) 0.3996(2)
H46_4 H 0.5411 0.7679 0.4172
C75_4 C 0.5812(5) 0.8220(4) 0.3978(2)
H47_4 H 0.6003 0.8303 0.4140
O17_4 O 0.1891(3) 0.5477(3) 0.62523(15)
C100_4 C 0.5176(4) 0.7716(4) 0.3758(2)
C101_4 C 0.5244(4) 0.7990(4) 0.3506(2)
C102_4 C 0.5595(4) 0.8364(5) 0.3499(3)
N4_4 N 0.5886(4) 0.8469(4) 0.3725(2)
O31_3 O 0.6264(3) 0.8804(3) 0.37060(14)
H54_4 H 0.5631 0.8552 0.3330
H55_4 H 0.5052 0.7920 0.3342
C103_4 C 0.4541(5) 0.7154(4) 0.3996(2)
H56_4 H 0.4589 0.7321 0.4172
C104_4 C 0.4188(5) 0.6780(4) 0.3978(2)
H57_4 H 0.3997 0.6697 0.4140
C111_4 C 0.2311(4) 0.5525(5) 0.4068(2)
C112_4 C 0.2107(4) 0.5528(5) 0.4342(3)
H59_4 H 0.1765 0.5473 0.4371
H60_4 H 0.2105 0.5465 0.3908
H61_4 H 0.3456 0.5748 0.4208
H62_4 H 0.3163 0.5785 0.4674
C113_4 C 0.2507(4) 0.5431(5) 0.5109(3)
H63_4 H 0.2793 0.5240 0.5074
C114_4 C 0.2320(5) 0.5513(5) 0.5391(2)
H64_4 H 0.2491 0.5374 0.5548
H65_4 H 0.1611 0.6073 0.4789
C122_4 C 0.0017(6) 0.3733(7) 0.5687(4)
H70_4 H 0.0344 0.3765 0.5620
C127_4 C 0.1171(5) 0.4679(5) 0.4961(3)
C128_4 C 0.1408(6) 0.4401(6) 0.4752(4)
H75_4 H 0.1665 0.4178 0.4800
C129_4 C 0.1251(6) 0.4465(6) 0.4465(4)
H76_4 H 0.1407 0.4271 0.4323
C130_4 C 0.0897(6) 0.4782(7) 0.4380(4)
H77_4 H 0.0814 0.4816 0.4185
C131_4 C 0.0652(6) 0.5065(6) 0.4595(4)
H78_4 H 0.0390 0.5280 0.4545
C132_4 C 0.0815(6) 0.5017(6) 0.4908(3)
H79_4 H 0.0676 0.5213 0.5055
C133_4 C 0.3160(5) 0.5726(5) 0.6954(3)
C134_4 C 0.2935(6) 0.6060(6) 0.7123(3)
H80_4 H 0.2724 0.6302 0.7042
C135_4 C 0.3018(6) 0.6048(6) 0.7439(3)
H81_4 H 0.2861 0.6281 0.7559
C136_4 C 0.3321(6) 0.5701(6) 0.7553(4)
H82_4 H 0.3383 0.5698 0.7752
C137_4 C 0.3533(6) 0.5361(6) 0.7381(4)
H83_4 H 0.3732 0.5110 0.7462
C138_4 C 0.3460(6) 0.5377(6) 0.7077(3)
H84_4 H 0.3621 0.5143 0.6959
C139_4 C 0.3319(5) 0.7813(5) 0.6265(3)
C140_4 C 0.3484(6) 0.7805(6) 0.5977(4)
H85_4 H 0.3373 0.7560 0.5848
C141_4 C 0.3808(7) 0.8164(7) 0.5892(4)
H86_4 H 0.3883 0.8202 0.5695
C142_4 C 0.4041(7) 0.8493(6) 0.6103(5)
H87_4 H 0.4301 0.8705 0.6047
C143_4 C 0.3884(6) 0.8489(6) 0.6370(4)
H88_4 H 0.4031 0.8701 0.6507
C144_4 C 0.3486(6) 0.8161(5) 0.6454(3)
H89_4 H 0.3343 0.8187 0.6638
C145_4 C 0.3207(6) 0.6723(8) 0.5243(3)
C146_4 C 0.3521(6) 0.6333(7) 0.5280(3)
H90_4 H 0.3481 0.6121 0.5439
C147_4 C 0.3892(7) 0.6250(7) 0.5091(4)
H91_4 H 0.4090 0.5964 0.5110
C148_4 C 0.3987(7) 0.6580(9) 0.4867(5)
H92_4 H 0.4248 0.6519 0.4736
C149_4 C 0.3689(9) 0.7006(11) 0.4837(5)
H93_4 H 0.3765 0.7240 0.4694
C150_4 C 0.3294(7) 0.7086(7) 0.5011(4)
H94_4 H 0.3084 0.7363 0.4986
F17_4 F 0.9720(6) 0.6618(4) 0.5280(5)
H25_4 H 0.9926 0.4380 0.6527
C53_4 C 0.9802(7) 0.6266(7) 0.5746(4)
H31_4 H 0.9526 0.6465 0.5699
C54_4 C 0.9876(7) 0.5985(7) 0.6059(4)
C115_4 C 0.9462(6) 0.6129(6) 0.6288(3)
C116_4 C 0.9543(7) 0.5874(7) 0.6517(4)
H66_4 H 0.9805 0.5643 0.6527
C117_4 C 0.9222(7) 0.5957(7) 0.6752(4)
H67_4 H 0.9224 0.5744 0.6913
C118_4 C 0.8876(7) 0.6394(7) 0.6738(4)
C119_4 C 0.8817(6) 0.6662(6) 0.6475(4)
H68_4 H 0.8588 0.6924 0.6455
C120_4 C 0.9141(6) 0.6502(6) 0.6235(4)
H69_4 H 0.9123 0.6654 0.6053
C121_4 C 0.9859(6) 0.4008(6) 0.5928(3)
C123_4 C 0.9684(9) 0.3410(6) 0.5548(4)
H71_4 H 0.9789 0.3226 0.5387
C124_4 C 0.9194(8) 0.3361(7) 0.5649(5)
H72_4 H 0.8971 0.3145 0.5556
C125_4 C 0.9036(5) 0.3636(8) 0.5890(5)
H73_4 H 0.8709 0.3603 0.5958
C126_4 C 0.9369(7) 0.3959(7) 0.6029(3)
H74_4 H 0.9264 0.4143 0.6190
H96_4 H 0.866726 0.650821 0.693084
H15_3 H 0.1219 0.5361 0.0059
C28_3 C 0.1799(6) 0.5821(6) 0.0053(4)
H16_3 H 0.1802 0.5883 0.0252
C5_3 C 0.0777(8) 0.5707(6) 0.7743(3)
C6_3 C 0.1167(7) 0.6021(6) 0.7780(3)
H2_3 H 0.1379 0.5981 0.7939
C7_3 C 0.1250(7) 0.6392(7) 0.7591(4)
H3_3 H 0.1536 0.6590 0.7610
C8_3 C 0.0920(9) 0.6487(7) 0.7367(5)
H4_3 H 0.0981 0.6748 0.7236
C9_3 C 0.0494(11) 0.6189(9) 0.7337(5)
H5_3 H 0.0260 0.6265 0.7194
C10_3 C 0.0414(7) 0.5794(7) 0.7511(4)
H6_3 H 0.0137 0.5584 0.7486
C25_3 C 0.1774(5) 0.5660(5) 0.9454(3)
C26_3 C 0.1440(6) 0.5435(6) 0.9623(3)
H14_3 H 0.1198 0.5224 0.9542
C27_3 C 0.1452(6) 0.5518(6) 0.9939(3)
C29_3 C 0.2139(6) 0.6033(6) 0.9881(4)
H17_3 H 0.2390 0.6232 0.9962
C30_3 C 0.2123(6) 0.5960(6) 0.9577(3)
H18_3 H 0.2357 0.6121 0.9459
C35_3 C 0.2821(5) 0.3671(5) 0.7461(3)
C36_3 C 0.3099(6) 0.3908(6) 0.7252(4)
H20_3 H 0.3322 0.4165 0.7300
C37_3 C 0.3035(6) 0.3751(6) 0.6965(4)
H21_3 H 0.3229 0.3907 0.6823
C38_3 C 0.2718(7) 0.3397(6) 0.6880(4)
H22_3 H 0.2684 0.3314 0.6685
C39_3 C 0.2435(6) 0.3152(6) 0.7095(4)
H23_3 H 0.2220 0.2890 0.7045
C40_3 C 0.2483(6) 0.3315(6) 0.7408(3)
H24_3 H 0.2287 0.3176 0.7555
C45_3 C 0.3492(6) 0.2359(6) 0.8428(3)
C46_3 C 0.3767(7) 0.2517(6) 0.8187(4)
H26_3 H 0.3735 0.2844 0.8120
C47_3 C 0.4090(6) 0.2184(9) 0.8048(4)
H27_3 H 0.4274 0.2289 0.7887
C48_3 C 0.4139(7) 0.1694(8) 0.8149(5)
H28_3 H 0.4355 0.1471 0.8056
C49_3 C 0.3864(8) 0.1536(5) 0.8390(5)
H29_3 H 0.3897 0.1209 0.8458
C50_3 C 0.3541(7) 0.1869(7) 0.8529(3)
H30_3 H 0.3357 0.1764 0.8690
C55_3 C 0.1371(6) 0.1962(6) 0.8788(3)
C56_3 C 0.1626(7) 0.2043(7) 0.9017(4)
H32_3 H 0.1857 0.2305 0.9027
C57_3 C 0.1543(7) 0.1722(7) 0.9252(4)
H33_3 H 0.1756 0.1724 0.9413
C58_3 C 0.1106(7) 0.1376(7) 0.9238(4)
C59_3 C 0.0838(6) 0.1317(6) 0.8975(4)
H34_3 H 0.0576 0.1088 0.8955
C60_3 C 0.0998(6) 0.1641(6) 0.8735(4)
H35_3 H 0.0846 0.1623 0.8553
H36_3 H 0.1752 0.5956 0.6708
H37_3 H 0.1715 0.5663 0.7174
C64_3 C 0.1972(5) 0.4607(4) 0.6842(3)
H38_3 H 0.2027 0.4265 0.6871
C65_3 C 0.1975(5) 0.4811(4) 0.6568(2)
H39_3 H 0.2035 0.4605 0.6408
C67_3 C 0.2069(5) 0.5007(4) 0.7609(3)
H40_3 H 0.2260 0.5293 0.7574
C69_3 C 0.1987(5) 0.4820(5) 0.7891(2)
H42_3 H 0.2126 0.4991 0.8048
H43_3 H 0.1427 0.4111 0.7289
O18_3 O 0.0418(3) 0.4404(3) 0.83192(18)
C76_3 C 0.0143(6) 0.4554(6) 0.8118(3)
C78_3 C 0.0225(6) 0.4961(6) 0.7934(3)
C79_3 C 0.0666(5) 0.5269(6) 0.7939(3)
O19_3 O 0.1016(3) 0.5218(3) 0.81304(17)
O20_3 O 0.0631(3) 0.4495(3) 0.90176(17)
C80_3 C 0.0267(5) 0.4692(5) 0.9154(3)
C81_3 C 0.0135(7) 0.4409(6) 0.9435(4)
F22_3 F 0.0509(3) 0.4491(4) 0.96378(18)
F23_3 F 0.0094(3) 0.3928(3) 0.94065(17)
C83_3 C 0.0045(5) 0.5411(5) 0.8837(3)
O21_3 O 0.0428(3) 0.5350(3) 0.86727(17)
O22_3 O 0.1819(3) 0.5406(3) 0.85015(18)
C84_3 C 0.2107(5) 0.5659(5) 0.8659(3)
C85_3 C 0.2499 0.5834 0.8447
F25_3 F 0.2869(4) 0.5551(3) 0.8375(2)
F26_3 F 0.2385(3) 0.6124(4) 0.8236(2)
F27_3 F 0.2794(4) 0.6233(4) 0.8594(2)
C86_3 C 0.2111(5) 0.5740(5) 0.8949(3)
H50_3 H 0.2364 0.5941 0.9027
C87_3 C 0.1754(5) 0.5536(5) 0.9139(3)
O23_3 O 0.1406(3) 0.5252(3) 0.90457(16)
O24_3 O 0.1644(3) 0.4269(3) 0.82211(15)
O25_3 O 0.2910(3) 0.4071(3) 0.83933(17)
C88_3 C 0.3261(8) 0.4140(8) 0.8207(5)
C89_3 C 0.3661(8) 0.4493(8) 0.8278(4)
F28_3 F 0.3681(5) 0.4801(7) 0.8077(3)
F29_3 F 0.4062(5) 0.4240(3) 0.8242(3)
F30_3 F 0.3646(3) 0.4705(3) 0.8515(2)
C90_3 C 0.3202(7) 0.4080(7) 0.7891(4)
H51_3 H 0.3413 0.4233 0.7756
C91_3 C 0.2770(7) 0.3750(8) 0.7806(5)
O26_3 O 0.2403(3) 0.3557(3) 0.79345(17)
O27_3 O 0.2470(3) 0.3396(3) 0.89473(16)
C92_3 C 0.2640(6) 0.3024(6) 0.9067(4)
C93_3 C 0.2625 0.2945 0.9350
F31_3 F 0.2164(6) 0.3060(7) 0.9449(3)
F32_3 F 0.2959(4) 0.3248(5) 0.9487(3)
F33_3 F 0.2778(4) 0.2506(6) 0.9473(2)
C94_3 C 0.2974(8) 0.2685(7) 0.8919(5)
H52_3 H 0.3120 0.2426 0.9027
C95_3 C 0.3117(9) 0.2729(9) 0.8559(6)
O28_3 O 0.2858(3) 0.2970(4) 0.8404(2)
O29_3 O 0.1503(3) 0.3131(3) 0.81163(18)
C96_3 C 0.1342(8) 0.2766(8) 0.8029(5)
C97_3 C 0.1040(9) 0.2635(9) 0.7779(4)
F34_3 F 0.0672(5) 0.2922(5) 0.7771(2)
F35_3 F 0.0882(4) 0.2220(6) 0.7780(5)
F36_3 F 0.1399(8) 0.2705(7) 0.7571(3)
C98_3 C 0.1234(7) 0.2302(7) 0.8246(4)
H53_3 H 0.1035 0.2026 0.8199
C99_3 C 0.1515(7) 0.2376(7) 0.8559(4)
O30_3 O 0.1772(3) 0.2750(3) 0.8671(2)
N5_3 N 0.1719(4) 0.4409(4) 0.7941(2)
C105_3 C 0.1512(4) 0.4155(4) 0.7726(3)
H58_3 H 0.1322 0.3871 0.7769
C106_3 C 0.1567(5) 0.4299(5) 0.7439(3)
C107_3 C 0.1839(5) 0.4730(5) 0.7383(2)
C108_3 C 0.1880(4) 0.4940(5) 0.7080(2)
C109_3 C 0.1788(4) 0.5443(4) 0.7022(2)
C110_3 C 0.1804(4) 0.5616(4) 0.6746(2)
N6_3 N 0.1892(3) 0.5301(4) 0.6526(2)
H95_3 H 0.0991794 0.116726 0.943084
C15_3 C 0.9687(5) 0.5819(5) 0.8765(3)
C16_3 C 0.9695(6) 0.5984(6) 0.8477(4)
H8_3 H 0.9940 0.5873 0.8348
C17_3 C 0.9336(7) 0.6308(7) 0.8392(4)
H9_3 H 0.9298 0.6383 0.8195
C18_3 C 0.9007(6) 0.6541(7) 0.8603(5)
H10_3 H 0.8795 0.6801 0.8547
C19_3 C 0.9011(6) 0.6384(6) 0.8870(4)
H11_3 H 0.8799 0.6531 0.9007
C20_3 C 0.9339(5) 0.5986(6) 0.8954(3)
H12_3 H 0.9313 0.5843 0.9138
C77_3 C 0.9654(7) 0.4266(7) 0.8086(4)
F19_3 F 0.9350(4) 0.4349(4) 0.8313(2)
F20_3 F 0.9728(4) 0.3791(4) 0.8064(2)
F21_3 F 0.9381(4) 0.4403(3) 0.7852(2)
H48_3 H 0.9976 0.5039 0.7799
F24_3 F 0.9716(4) 0.4569(4) 0.9564(2)
C82_3 C 0.9973(5) 0.5105(5) 0.9089(3)
H49_3 H 0.9714 0.5189 0.9216
F7_5 F 0.7869(4) 0.0551(3) 0.3375(2)
F8_5 F 0.7385(3) 0.1124(4) 0.3236(2)
F9_5 F 0.7794(4) 0.1233(4) 0.3594(2)
O2_5 O 0.6016(3) 0.0218(3) 0.31304(17)
O4_5 O 0.5428(3) 0.0350(3) 0.36727(17)
O5_5 O 0.6819(3) 0.0406(3) 0.35015(18)
O6_5 O 0.6406(3) 0.0252(3) 0.40457(16)
N1_5 N 0.6892(3) 0.0301(4) 0.1526(2)
H1_5 H 0.4976 0.0039 0.2799
C4_5 C 0.5666(5) 0.0269(6) 0.2939(3)
C13_5 C 0.4973(5) 0.0105(5) 0.4089(3)
H7_5 H 0.4714 0.0189 0.4216
C14_5 C 0.5045(5) 0.0411(5) 0.3837(3)
C21_5 C 0.7499 0.0834 0.3447
C22_5 C 0.7107(5) 0.0659(5) 0.3659(3)
C23_5 C 0.7111(5) 0.0740(5) 0.3949(3)
H13_5 H 0.7364 0.0941 0.4027
C24_5 C 0.6754(5) 0.0536(5) 0.4139(3)
C61_5 C 0.6804(4) 0.0616(4) 0.1746(2)
C62_5 C 0.6788(4) 0.0443(4) 0.2022(2)
H61_5 H 0.6752 0.0956 0.1708
H62_5 H 0.6715 0.0663 0.2174
C113_5 C 0.7069(5) 0.0007(4) 0.2609(3)
H63_5 H 0.7260 0.0293 0.2574
C133_5 C 0.6774(5) 0.0660(5) 0.4454(3)
C134_5 C 0.6440(6) 0.0435(6) 0.4623(3)
H80_5 H 0.6198 0.0224 0.4542
C135_5 C 0.6452(6) 0.0518(6) 0.4939(3)
H81_5 H 0.6219 0.0361 0.5059
C136_5 C 0.6799(6) 0.0821(6) 0.5053(4)
H82_5 H 0.6802 0.0883 0.5252
C137_5 C 0.7139(6) 0.1033(6) 0.4881(4)
H83_5 H 0.7390 0.1232 0.4962
C138_5 C 0.7123(6) 0.0960(6) 0.4577(3)
H84_5 H 0.7357 0.1121 0.4459
C139_5 C 0.4687(5) 0.0819(5) 0.3765(3)
C140_5 C 0.4695(6) 0.0984(6) 0.3477(4)
H85_5 H 0.4940 0.0873 0.3348
C141_5 C 0.4336(7) 0.1308(7) 0.3392(4)
H86_5 H 0.4298 0.1383 0.3195
C142_5 C 0.4007(6) 0.1541(7) 0.3603(5)
H87_5 H 0.3795 0.1801 0.3547
C143_5 C 0.4011(6) 0.1384(6) 0.3870(4)
H88_5 H 0.3799 0.1531 0.4007
C144_5 C 0.4339(5) 0.0986(6) 0.3954(3)
H89_5 H 0.4313 0.0843 0.4138
C145_5 C 0.5777(8) 0.0707(6) 0.2743(3)
C146_5 C 0.6167(7) 0.1021(6) 0.2780(3)
H90_5 H 0.6379 0.0981 0.2939
C147_5 C 0.6250(7) 0.1392(7) 0.2591(4)
H91_5 H 0.6536 0.1590 0.2610
C148_5 C 0.5920(9) 0.1487(7) 0.2367(5)
H92_5 H 0.5981 0.1748 0.2236
C149_5 C 0.5494(11) 0.1189(9) 0.2337(5)
H93_5 H 0.5260 0.1265 0.2194
C150_5 C 0.5414(7) 0.0794(7) 0.2511(4)
H94_5 H 0.5137 0.0584 0.2486
F1_5 F 0.4350(4) 0.9349(4) 0.3313(2)
F2_5 F 0.4728(4) 0.8791(4) 0.3064(2)
F3_5 F 0.4381(4) 0.9403(3) 0.2852(2)
F4_5 F 0.5509(3) 0.9491(4) 0.46378(18)
F5_5 F 0.5094(3) 0.8928(3) 0.44065(17)
F6_5 F 0.4716(4) 0.9569(4) 0.4564(2)
F10_5 F 0.8681(5) 0.9801(7) 0.3077(3)
F11_5 F 0.9062(5) 0.9240(3) 0.3242(3)
F12_5 F 0.8646(3) 0.9705(3) 0.3515(2)
F13_5 F 0.7164(6) 0.8060(7) 0.4449(3)
F14_5 F 0.7959(4) 0.8248(5) 0.4487(3)
F15_5 F 0.7778(4) 0.7506(6) 0.4473(2)
F16_5 F 0.5672(5) 0.7922(5) 0.2771(2)
F17_5 F 0.5882(4) 0.7220(6) 0.2780(5)
F18_5 F 0.6399(8) 0.7705(7) 0.2571(3)
O1_5 O 0.5418(3) 0.9404(3) 0.33192(18)
O3_5 O 0.5631(3) 0.9495(3) 0.40176(17)
O7_5 O 0.7910(3) 0.9071(3) 0.33933(17)
O8_5 O 0.7403(3) 0.8557(3) 0.29345(17)
O9_5 O 0.7470(3) 0.8396(3) 0.39473(16)
O10_5 O 0.7858(3) 0.7970(4) 0.3404(2)
O11_5 O 0.6503(3) 0.8131(3) 0.31163(18)
O12_5 O 0.6772(3) 0.7750(3) 0.3671(2)
O14_5 O 0.6644(3) 0.9269(3) 0.32211(15)
N2_5 N 0.6719(4) 0.9409(4) 0.2941(2)
C1_5 C 0.4654(7) 0.9266(7) 0.3086(4)
C2_5 C 0.5143(6) 0.9554(6) 0.3118(3)
C3_5 C 0.5225(6) 0.9961(6) 0.2934(3)
C11_5 C 0.5135(7) 0.9409(6) 0.4435(4)
C12_5 C 0.5267(5) 0.9692(5) 0.4154(3)
C31_5 C 0.8661(8) 0.9493(8) 0.3278(4)
C32_5 C 0.8261(8) 0.9140(8) 0.3207(5)
C33_5 C 0.8202(7) 0.9080(7) 0.2891(4)
H19_5 H 0.8413 0.9233 0.2756
C34_5 C 0.7770(7) 0.8750(8) 0.2806(5)
C41_5 C 0.7625 0.7945 0.4350
C42_5 C 0.7640(6) 0.8024(6) 0.4067(4)
C43_5 C 0.7974(8) 0.7685(7) 0.3919(5)
H25_5 H 0.8120 0.7426 0.4027
C44_5 C 0.8117(9) 0.7729(9) 0.3559(6)
C51_5 C 0.6040(9) 0.7635(9) 0.2779(4)
C52_5 C 0.6342(8) 0.7766(8) 0.3029(5)
C53_5 C 0.6234(7) 0.7302(7) 0.3246(4)
H31_5 H 0.6035 0.7026 0.3199
C54_5 C 0.6515(7) 0.7376(7) 0.3559(4)
C63_5 C 0.6880(4) 0.9940(5) 0.2080(2)
C66_5 C 0.6839(5) 0.9730(5) 0.2383(2)
C68_5 C 0.6512(4) 0.9155(4) 0.2726(3)
H41_5 H 0.6322 0.8871 0.2769
C70_5 C 0.6567(5) 0.9299(5) 0.2439(3)
C111_5 C 0.6975(5) 0.9811(4) 0.1568(2)
C112_5 C 0.6972(5) 0.9607(4) 0.1842(3)
H59_5 H 0.7027 0.9265 0.1871
H60_5 H 0.7035 0.9605 0.1408
C114_5 C 0.6987(5) 0.9820(5) 0.2891(2)
H64_5 H 0.7126 0.9991 0.3048
H65_5 H 0.6427 0.9111 0.2289
C115_5 C 0.6371(6) 0.6962(6) 0.3788(3)
C116_5 C 0.6626(7) 0.7043(7) 0.4017(4)
H66_5 H 0.6857 0.7305 0.4027
C117_5 C 0.6543(7) 0.6722(7) 0.4252(4)
H67_5 H 0.6756 0.6724 0.4413
C118_5 C 0.6106(7) 0.6376(7) 0.4238(4)
C119_5 C 0.5838(6) 0.6317(6) 0.3975(4)
H68_5 H 0.5576 0.6088 0.3955
C120_5 C 0.5998(6) 0.6641(6) 0.3735(4)
H69_5 H 0.5846 0.6623 0.3553
C121_5 C 0.8492(6) 0.7359(6) 0.3428(3)
C122_5 C 0.8767(7) 0.7517(6) 0.3187(4)
H70_5 H 0.8735 0.7844 0.3120
C123_5 C 0.9090(6) 0.7184(9) 0.3048(4)
H71_5 H 0.9274 0.7289 0.2887
C124_5 C 0.9139(7) 0.6694(8) 0.3149(5)
H72_5 H 0.9355 0.6471 0.3056
C125_5 C 0.8864(8) 0.6536(5) 0.3390(5)
H73_5 H 0.8897 0.6209 0.3458
C126_5 C 0.8541(7) 0.6869(7) 0.3529(3)
H74_5 H 0.8357 0.6764 0.3690
C127_5 C 0.7821(5) 0.8671(5) 0.2461(3)
C128_5 C 0.8099(6) 0.8908(6) 0.2252(4)
H75_5 H 0.8322 0.9165 0.2300
C129_5 C 0.8035(6) 0.8751(6) 0.1965(4)
H76_5 H 0.8229 0.8907 0.1823
C130_5 C 0.7718(7) 0.8397(6) 0.1880(4)
H77_5 H 0.7684 0.8314 0.1685
C131_5 C 0.7435(6) 0.8152(6) 0.2095(4)
H78_5 H 0.7220 0.7890 0.2045
C132_5 C 0.7483(6) 0.8315(6) 0.2408(3)
H79_5 H 0.7287 0.8176 0.2555
H96_5 H 0.599179 0.616726 0.443084
C35_4 C 0.3829(5) 0.0321(5) 0.0039(3)
C36_4 C 0.3592(6) 0.0599(6) 0.0248(4)
H20_4 H 0.3335 0.0822 0.0200
C37_4 C 0.3749(6) 0.0535(6) 0.0535(4)
H21_4 H 0.3593 0.0729 0.0677
C38_4 C 0.4103(6) 0.0218(7) 0.0620(4)
H22_4 H 0.4186 0.0184 0.0815
La1_4 La 0.38484(3) 0.02243(3) 0.639660(15)
La2_4 La 0.28769(3) 0.14537(3) 0.654790(15)
F1_6 F 0.5650(4) 0.0651(4) 0.6687(2)
F2_6 F 0.5272(4) 0.1209(4) 0.6936(2)
F3_6 F 0.5619(4) 0.0597(3) 0.7148(2)
F4_6 F 0.4491(3) 0.0509(4) 0.53622(18)
F5_6 F 0.4906(3) 0.1072(3) 0.55935(17)
F6_6 F 0.5284(4) 0.0431(4) 0.5436(2)
F10_6 F 0.1319(5) 0.0199(7) 0.6923(3)
F11_6 F 0.0938(5) 0.0760(3) 0.6758(3)
F12_6 F 0.1354(3) 0.0295(3) 0.6485(2)
F13_6 F 0.2836(6) 0.1940(7) 0.5551(3)
F14_6 F 0.2041(4) 0.1752(5) 0.5513(3)
F15_6 F 0.2222(4) 0.2494(6) 0.5527(2)
F16_6 F 0.4328(5) 0.2078(5) 0.7229(2)
F17_6 F 0.4118(4) 0.2780(6) 0.7220(5)
F18_6 F 0.3601(8) 0.2295(7) 0.7429(3)
O1_6 O 0.4582(3) 0.0596(3) 0.66808(18)
O3_6 O 0.4369(3) 0.0505(3) 0.59824(17)
O7_6 O 0.2090(3) 0.0929(3) 0.66067(17)
O8_6 O 0.2597(3) 0.1443(3) 0.70655(17)
O9_6 O 0.2530(3) 0.1604(3) 0.60527(16)
O10_6 O 0.2142(3) 0.2030(4) 0.6596(2)
O11_6 O 0.3497(3) 0.1869(3) 0.68837(18)
O12_6 O 0.3228(3) 0.2250(3) 0.6329(2)
O14_6 O 0.3356(3) 0.0731(3) 0.67789(15)
N2_6 N 0.3281(4) 0.0591(4) 0.7059(2)
C1_6 C 0.5346(7) 0.0734(7) 0.6914(4)
C2_6 C 0.4857(6) 0.0446(6) 0.6882(3)
C3_6 C 0.4775(6) 0.0039(6) 0.7066(3)
C11_6 C 0.4865(7) 0.0591(6) 0.5565(4)
C12_6 C 0.4733(5) 0.0308(5) 0.5846(3)
C31_6 C 0.1339(8) 0.0507(8) 0.6722(4)
C32_6 C 0.1739(8) 0.0860(8) 0.6793(5)
C33_6 C 0.1798(7) 0.0920(7) 0.7109(4)
H19_6 H 0.1587 0.0767 0.7244
C34_6 C 0.2230(7) 0.1250(8) 0.7194(5)
C41_6 C 0.2375 0.2055 0.5650
C42_6 C 0.2360(6) 0.1976(6) 0.5933(4)
C43_6 C 0.2026(8) 0.2315(7) 0.6081(5)
H25_6 H 0.1880 0.2574 0.5973
C44_6 C 0.1883(9) 0.2271(9) 0.6441(6)
C45_4 C 0.5141(6) 0.0992(6) 0.9072(3)
C46_4 C 0.4983(6) 0.1267(7) 0.9313(4)
H26_4 H 0.4656 0.1235 0.9380
C47_4 C 0.5316(9) 0.1590(6) 0.9452(4)
H27_4 H 0.5211 0.1774 0.9613
C48_4 C 0.5806(8) 0.1639(7) 0.9351(5)
H28_4 H 0.6029 0.1855 0.9444
C49_4 C 0.5964(5) 0.1364(8) 0.9110(5)
H29_4 H 0.6291 0.1397 0.9042
C50_4 C 0.5631(7) 0.1041(7) 0.8971(3)
H30_4 H 0.5736 0.0857 0.8810
C51_6 C 0.3960(9) 0.2365(9) 0.7221(4)
C52_6 C 0.3658(8) 0.2234(8) 0.6971(5)
C53_6 C 0.3766(7) 0.2698(7) 0.6754(4)
H31_6 H 0.3965 0.2974 0.6801
C54_6 C 0.3485(7) 0.2624(7) 0.6441(4)
C63_6 C 0.3120(4) 0.0060(5) 0.7920(2)
C66_6 C 0.3161(5) 0.0270(5) 0.7617(2)
C68_6 C 0.3488(4) 0.0845(4) 0.7274(3)
H41_6 H 0.3678 0.1129 0.7231
C70_6 C 0.3433(5) 0.0701(5) 0.7561(3)
O16_4 O 0.3736(3) 0.1196(3) 0.62940(14)
O17_5 O 0.2977(3) 0.0609(3) 0.62477(15)
F25_4 F 0.1949(3) 0.0369(4) 0.9125(2)
F27_4 F 0.1267(4) 0.0294(4) 0.8906(2)
O25_4 O 0.3429(3) 0.0410(3) 0.91067(17)
C88_4 C 0.3360(8) 0.0761(8) 0.9293(5)
C89_4 C 0.3007(8) 0.1161(8) 0.9222(4)
F28_4 F 0.2699(7) 0.1181(5) 0.9423(3)
F29_4 F 0.3260(3) 0.1562(5) 0.9258(3)
F30_4 F 0.2795(3) 0.1146(3) 0.8985(2)
C90_4 C 0.3420(7) 0.0702(7) 0.9609(4)
H51_4 H 0.3267 0.0913 0.9744
C91_4 C 0.3750(8) 0.0270(7) 0.9694(5)
C92_4 C 0.4476(6) 0.0140(6) 0.8433(4)
C93_4 C 0.4555 0.0125 0.8150
F32_4 F 0.4252(5) 0.0459(4) 0.8013(3)
F33_4 F 0.4994(6) 0.0278(4) 0.8027(2)
C94_4 C 0.4815(7) 0.0474(8) 0.8581(5)
H52_4 H 0.5074 0.0620 0.8473
C95_4 C 0.4771(9) 0.0617(9) 0.8941(6)
O28_4 O 0.4530(4) 0.0358(3) 0.9096(2)
C111_6 C 0.3025(5) 0.0189(4) 0.8432(2)
C112_6 C 0.3028(5) 0.0393(4) 0.8158(3)
H59_6 H 0.2973 0.0735 0.8129
H60_6 H 0.2965 0.0395 0.8592
C114_6 C 0.3013(5) 0.0180(5) 0.7109(2)
H64_6 H 0.2874 0.0009 0.6952
H65_6 H 0.3573 0.0889 0.7711
C115_6 C 0.3629(6) 0.3038(6) 0.6212(3)
C116_6 C 0.3374(7) 0.2957(7) 0.5983(4)
H66_6 H 0.3143 0.2695 0.5973
C117_6 C 0.3457(7) 0.3278(7) 0.5748(4)
H67_6 H 0.3244 0.3276 0.5587
C118_6 C 0.3894(7) 0.3624(7) 0.5762(4)
C119_6 C 0.4162(6) 0.3683(6) 0.6025(4)
H68_6 H 0.4424 0.3912 0.6045
C120_6 C 0.4002(6) 0.3359(6) 0.6265(4)
H69_6 H 0.4154 0.3377 0.6447
C121_6 C 0.1508(6) 0.2641(6) 0.6572(3)
C122_6 C 0.1233(7) 0.2483(6) 0.6813(4)
H70_6 H 0.1265 0.2156 0.6880
C123_6 C 0.0910(6) 0.2816(9) 0.6952(4)
H71_6 H 0.0726 0.2711 0.7113
C124_6 C 0.0861(7) 0.3306(8) 0.6851(5)
H72_6 H 0.0645 0.3529 0.6944
C125_6 C 0.1136(8) 0.3464(5) 0.6610(5)
H73_6 H 0.1103 0.3791 0.6542
C126_6 C 0.1459(7) 0.3131(7) 0.6471(3)
H74_6 H 0.1643 0.3236 0.6310
C127_6 C 0.2179(5) 0.1329(5) 0.7539(3)
C128_6 C 0.1901(6) 0.1092(6) 0.7748(4)
H75_6 H 0.1678 0.0835 0.7700
C129_6 C 0.1965(6) 0.1249(6) 0.8035(4)
H76_6 H 0.1771 0.1093 0.8177
C130_6 C 0.2282(7) 0.1603(6) 0.8120(4)
H77_6 H 0.2316 0.1686 0.8315
C131_6 C 0.2565(6) 0.1848(6) 0.7905(4)
H78_6 H 0.2780 0.2110 0.7955
C132_6 C 0.2517(6) 0.1685(6) 0.7592(3)
H79_6 H 0.2713 0.1824 0.7445
H96_6 H 0.400821 0.383274 0.556916
C8_4 C 0.1013(7) 0.8420(9) 0.0133(5)
H4_4 H 0.0752 0.8481 0.0264
C9_4 C 0.1311(9) 0.7994(11) 0.0163(5)
H5_4 H 0.1235 0.7760 0.0306
H6_4 H 0.1916 0.7637 0.0014
C39_4 C 0.4348(6) 0.9935(6) 0.0405(4)
H23_4 H 0.4610 0.9720 0.0455
C40_4 C 0.4185(6) 0.9983(6) 0.0092(3)
H36_4 H 0.1544 0.9252 0.0792
H37_4 H 0.1837 0.9215 0.0326
C64_4 C 0.2893(4) 0.9472(5) 0.0658(3)
H38_4 H 0.3235 0.9527 0.0629
C65_4 C 0.2689(4) 0.9475(5) 0.0932(2)
H39_4 H 0.2895 0.9535 0.1092
H43_4 H 0.3389 0.8927 0.0211
C106_4 C 0.3201(5) 0.9067(5) 0.0061(3)
C107_4 C 0.2770(5) 0.9339(5) 0.0117(2)
C108_4 C 0.2560(5) 0.9380(4) 0.0420(2)
C109_4 C 0.2057(4) 0.9288(4) 0.0478(2)
C110_4 C 0.1884(4) 0.9304(4) 0.0754(2)
N6_4 N 0.2199(4) 0.9392(3) 0.0974(2)
O32_3 O 0.2023(3) 0.9391(3) 0.12477(15)
La7_2 La 0.11516(3) 0.97757(3) 0.139660(15)
La8_2 La 0.21231(3) 0.85463(3) 0.154790(15)
F7_6 F 0.2131(4) 0.9449(3) 0.6625(2)
F8_6 F 0.2615(3) 0.8876(4) 0.6764(2)
F9_6 F 0.2206(4) 0.8767(4) 0.6406(2)
O2_6 O 0.3984(3) 0.9782(3) 0.68696(17)
O4_6 O 0.4572(3) 0.9650(3) 0.63273(17)
O5_6 O 0.3181(3) 0.9594(3) 0.64985(18)
O6_6 O 0.3594(3) 0.9748(3) 0.59543(16)
O13_3 O 0.3109(3) 0.9523(3) 0.87477(15)
O15_3 O 0.3696(3) 0.8764(3) 0.87940(14)
N1_6 N 0.3108(3) 0.9699(4) 0.8474(2)
N3_5 N 0.4031(4) 0.8386(4) 0.8775(2)
H1_6 H 0.5024 0.9961 0.7201
C4_6 C 0.4334(5) 0.9731(6) 0.7061(3)
C5_4 C 0.1793(6) 0.8277(8) 0.9757(3)
C6_4 C 0.1479(6) 0.8667(7) 0.9720(3)
H2_4 H 0.1519 0.8879 0.9561
C7_4 C 0.1108(7) 0.8750(7) 0.9909(4)
H3_4 H 0.0910 0.9036 0.9890
C10_4 C 0.1706(7) 0.7914(7) 0.9989(4)
C13_6 C 0.5027(5) 0.9895(5) 0.5911(3)
H7_6 H 0.5286 0.9811 0.5784
C14_6 C 0.4955(5) 0.9589(5) 0.6163(3)
C15_4 C 0.1681(5) 0.7187(5) 0.8735(3)
C16_4 C 0.1516(6) 0.7195(6) 0.9023(4)
H8_4 H 0.1627 0.7440 0.9152
C17_4 C 0.1192(7) 0.6836(7) 0.9108(4)
H9_4 H 0.1117 0.6798 0.9305
C18_4 C 0.0959(7) 0.6507(6) 0.8897(5)
H10_4 H 0.0699 0.6295 0.8953
C19_4 C 0.1116(6) 0.6511(6) 0.8630(4)
H11_4 H 0.0969 0.6299 0.8493
C20_4 C 0.1514(6) 0.6839(5) 0.8546(3)
H12_4 H 0.1657 0.6813 0.8362
C21_6 C 0.2501 0.9166 0.6553
C22_6 C 0.2893(5) 0.9341(5) 0.6341(3)
C23_6 C 0.2889(5) 0.9260(5) 0.6051(3)
H13_6 H 0.2636 0.9059 0.5973
C24_6 C 0.3246(5) 0.9464(5) 0.5861(3)
C25_4 C 0.1840(5) 0.9274(5) 0.8046(3)
C26_4 C 0.2065(6) 0.8940(6) 0.7877(3)
H14_4 H 0.2276 0.8698 0.7958
C27_4 C 0.1982(6) 0.8952(6) 0.7561(3)
H15_4 H 0.2139 0.8719 0.7441
C28_4 C 0.1679(6) 0.9299(6) 0.7447(4)
H16_4 H 0.1617 0.9302 0.7248
C29_4 C 0.1467(6) 0.9639(6) 0.7619(4)
H17_4 H 0.1268 0.9890 0.7538
C30_4 C 0.1540(6) 0.9623(6) 0.7923(3)
H18_4 H 0.1379 0.9857 0.8041
H24_4 H 0.4324 0.9787 0.9945
C55_4 C 0.5538(6) 0.8871(6) 0.8712(3)
C56_4 C 0.5457(7) 0.9126(7) 0.8483(4)
H32_4 H 0.5195 0.9357 0.8473
C57_4 C 0.5778(7) 0.9043(7) 0.8248(4)
H33_4 H 0.5776 0.9256 0.8087
C58_4 C 0.6124(7) 0.8606(7) 0.8262(4)
C59_4 C 0.6183(6) 0.8338(6) 0.8525(4)
H34_4 H 0.6412 0.8076 0.8545
C60_4 C 0.5859(6) 0.8498(6) 0.8765(4)
H35_4 H 0.5877 0.8346 0.8947
C61_6 C 0.3196(4) 0.9384(4) 0.8254(2)
C62_6 C 0.3212(4) 0.9557(4) 0.7978(2)
C67_4 C 0.2493(4) 0.9569(5) 0.9891(3)
H40_4 H 0.2207 0.9760 0.9926
C69_4 C 0.2680(5) 0.9487(5) 0.9609(2)
H42_4 H 0.2509 0.9626 0.9452
C71_5 C 0.4136(5) 0.8095(4) 0.9001(3)
H44_5 H 0.3948 0.8131 0.9170
C72_5 C 0.4510(4) 0.7744(4) 0.8994(2)
H45_5 H 0.4580 0.7552 0.9158
C73_5 C 0.4784(4) 0.7676(4) 0.8742(2)
C74_5 C 0.5346(4) 0.7041(5) 0.8504(2)
H46_5 H 0.5179 0.7089 0.8328
C75_5 C 0.5720(4) 0.6688(5) 0.8522(2)
H47_5 H 0.5803 0.6497 0.8360
La3_3 La 0.27243(3) 0.86516(3) 0.889660(15)
O18_4 O 0.3096(3) 0.7918(3) 0.91808(18)
C76_4 C 0.2946(6) 0.7643(6) 0.9382(3)
C77_4 C 0.3234(7) 0.7154(7) 0.9414(4)
F19_4 F 0.3151(4) 0.6850(4) 0.9187(2)
F20_4 F 0.3709(4) 0.7228(4) 0.9436(2)
F21_4 F 0.3097(3) 0.6881(4) 0.9648(2)
C78_4 C 0.2539(6) 0.7725(6) 0.9566(3)
H48_4 H 0.2461 0.7476 0.9701
C79_4 C 0.2231(6) 0.8166(5) 0.9561(3)
O19_4 O 0.2282(3) 0.8516(3) 0.93696(17)
O20_4 O 0.3005(3) 0.8131(3) 0.84824(17)
C80_4 C 0.2808(5) 0.7767(5) 0.8346(3)
C81_4 C 0.3091(6) 0.7635(7) 0.8065(4)
F22_4 F 0.3009(4) 0.8009(3) 0.78622(18)
F23_4 F 0.3572(3) 0.7594(3) 0.80935(17)
F24_4 F 0.2931(4) 0.7216(4) 0.7936(2)
C82_4 C 0.2395(5) 0.7473(5) 0.8411(3)
H49_4 H 0.2311 0.7214 0.8284
C83_4 C 0.2089(5) 0.7545(5) 0.8663(3)
O21_4 O 0.2150(3) 0.7928(3) 0.88273(17)
O22_4 O 0.2094(3) 0.9319(3) 0.89985(18)
C84_4 C 0.1841(5) 0.9607(5) 0.8841(3)
C85_4 C 0.1666 0.9999 0.9053
F26_4 F 0.1376(4) 0.9885(3) 0.9264(2)
C86_4 C 0.1760(5) 0.9611(5) 0.8551(3)
H50_4 H 0.1559 0.9864 0.8473
C87_4 C 0.1964(5) 0.9254(5) 0.8361(3)
O23_4 O 0.2248(3) 0.8906(3) 0.84543(16)
O24_4 O 0.3231(3) 0.9144(3) 0.92789(15)
La4_3 La 0.39537(3) 0.96231(3) 0.904790(15)
O26_4 O 0.3943(3) 0.9903(3) 0.95655(17)
O27_4 O 0.4104(3) 0.9970(3) 0.85527(16)
F31_4 F 0.4440(7) 0.9664(6) 0.8051(3)
O29_4 O 0.4369(3) 0.9003(3) 0.93837(18)
C96_4 C 0.4734(8) 0.8842(8) 0.9471(5)
C97_4 C 0.4865(9) 0.8540(9) 0.9721(4)
F34_4 F 0.4578(5) 0.8172(5) 0.9729(2)
F35_4 F 0.5280(6) 0.8382(4) 0.9720(5)
F36_4 F 0.4795(7) 0.8899(8) 0.9929(3)
C98_4 C 0.5198(7) 0.8734(7) 0.9254(4)
H53_4 H 0.5474 0.8535 0.9301
C99_4 C 0.5124(7) 0.9015(7) 0.8941(4)
O30_4 O 0.4750(3) 0.9272(3) 0.8829(2)
C100_5 C 0.5216(4) 0.7324(4) 0.8742(2)
C101_5 C 0.5490(4) 0.7256(4) 0.8994(2)
C102_5 C 0.5864(5) 0.6905(4) 0.9001(3)
N4_5 N 0.5969(4) 0.6614(4) 0.8775(2)
O31_4 O 0.6304(3) 0.6236(3) 0.87940(14)
La5_3 La 0.72757(3) 0.63484(3) 0.889660(15)
La6_3 La 0.60463(3) 0.53769(3) 0.904790(15)
H54_5 H 0.6052 0.6869 0.9170
H55_5 H 0.5420 0.7448 0.9158
C103_5 C 0.4654(4) 0.7959(5) 0.8504(2)
H56_5 H 0.4821 0.7911 0.8328
C104_5 C 0.4280(4) 0.8312(5) 0.8522(2)
H57_5 H 0.4197 0.8503 0.8360
N5_4 N 0.3091(4) 0.9219(4) 0.9559(2)
C105_4 C 0.3345(4) 0.9012(4) 0.9774(3)
H58_4 H 0.3629 0.8822 0.9731
H61_6 H 0.3248 0.9044 0.8292
H62_6 H 0.3285 0.9337 0.7826
C113_6 C 0.2931(5) 0.9993(4) 0.7391(3)
H63_6 H 0.2740 0.9707 0.7426
C133_6 C 0.3226(5) 0.9340(5) 0.5546(3)
C134_6 C 0.3560(6) 0.9565(6) 0.5377(3)
H80_6 H 0.3802 0.9776 0.5458
C135_6 C 0.3548(6) 0.9482(6) 0.5061(3)
H81_6 H 0.3781 0.9639 0.4941
C136_6 C 0.3201(6) 0.9179(6) 0.4947(4)
H82_6 H 0.3198 0.9117 0.4748
C137_6 C 0.2861(6) 0.8967(6) 0.5119(4)
H83_6 H 0.2610 0.8768 0.5038
C138_6 C 0.2877(6) 0.9040(6) 0.5423(3)
H84_6 H 0.2643 0.8879 0.5541
C139_6 C 0.5313(5) 0.9181(5) 0.6235(3)
C140_6 C 0.5305(6) 0.9016(6) 0.6523(4)
H85_6 H 0.5060 0.9127 0.6652
C141_6 C 0.5664(7) 0.8692(7) 0.6608(4)
H86_6 H 0.5702 0.8617 0.6805
C142_6 C 0.5993(6) 0.8459(7) 0.6397(5)
H87_6 H 0.6205 0.8199 0.6453
C143_6 C 0.5989(6) 0.8616(6) 0.6130(4)
H88_6 H 0.6201 0.8469 0.5993
C144_6 C 0.5661(5) 0.9014(6) 0.6046(3)
H89_6 H 0.5687 0.9157 0.5862
C145_6 C 0.4223(8) 0.9293(6) 0.7257(3)
C146_6 C 0.3833(7) 0.8979(6) 0.7220(3)
H90_6 H 0.3621 0.9019 0.7061
C147_6 C 0.3750(7) 0.8608(7) 0.7409(4)
H91_6 H 0.3464 0.8410 0.7390
C148_6 C 0.4080(9) 0.8513(7) 0.7633(5)
H92_6 H 0.4019 0.8252 0.7764
C149_6 C 0.4506(11) 0.8811(9) 0.7663(5)
H93_6 H 0.4740 0.8735 0.7806
C150_6 C 0.4586(7) 0.9206(7) 0.7489(4)
H94_6 H 0.4863 0.9416 0.7514
H95_4 H 0.633274 0.849179 0.806916
La1_5 La 0.22757(3) 0.13484(3) 0.389660(15)
La2_5 La 0.10463(3) 0.03769(3) 0.404790(15)
F1_7 F 0.1849(4) 0.3150(4) 0.4187(2)
F2_7 F 0.1291(4) 0.2772(4) 0.4436(2)
F3_7 F 0.1903(3) 0.3119(4) 0.4648(2)
F4_7 F 0.1991(4) 0.1991(3) 0.28622(18)
F5_7 F 0.1428(3) 0.2406(3) 0.30935(17)
F6_7 F 0.2069(4) 0.2784(4) 0.2936(2)
F8_7 F 0.3624(4) 0.0115(3) 0.4264(2)
F13_7 F 0.0560(7) 0.0336(6) 0.3051(3)
F16_7 F 0.0422(5) 0.1828(5) 0.4729(2)
F18_7 F 0.0205(7) 0.1101(8) 0.4929(3)
O1_7 O 0.1904(3) 0.2082(3) 0.41808(18)
O2_7 O 0.2718(3) 0.1484(3) 0.43696(17)
O3_7 O 0.1995(3) 0.1869(3) 0.34824(17)
O4_7 O 0.2850(3) 0.2072(3) 0.38273(17)
O5_7 O 0.2906(3) 0.0681(3) 0.39985(18)
O6_7 O 0.2752(3) 0.1094(3) 0.34543(16)
O8_7 O 0.1057(3) 0.0097(3) 0.45655(17)
O9_7 O 0.0896(3) 0.0030(3) 0.35527(16)
O11_7 O 0.0631(3) 0.0997(3) 0.43837(18)
O12_7 O 0.0250(3) 0.0728(3) 0.3829(2)
O14_7 O 0.1769(3) 0.0856(3) 0.42789(15)
N1_7 N 0.2801(4) 0.0608(3) 0.5974(2)
N2_7 N 0.1909(4) 0.0781(4) 0.4559(2)
N3_6 N 0.4114(4) 0.1531(4) 0.6275(2)
C1_7 C 0.1766(7) 0.2846(7) 0.4414(4)
C2_7 C 0.2054(6) 0.2357(6) 0.4382(3)
C3_7 C 0.2461(6) 0.2275(6) 0.4566(3)
H1_7 H 0.2539 0.2524 0.4701
C4_7 C 0.2769(6) 0.1834(5) 0.4561(3)
C11_7 C 0.1909(6) 0.2365(7) 0.3065(4)
C12_7 C 0.2192(5) 0.2233(5) 0.3346(3)
C13_7 C 0.2605(5) 0.2527(5) 0.3411(3)
H7_7 H 0.2689 0.2786 0.3284
C14_7 C 0.2911(5) 0.2455(5) 0.3663(3)
C21_7 C 0.3334 0.0001 0.4053
C22_7 C 0.3159(5) 0.0393(5) 0.3841(3)
C23_7 C 0.3240(5) 0.0389(5) 0.3551(3)
H13_7 H 0.3441 0.0136 0.3473
C24_7 C 0.3036(5) 0.0746(5) 0.3361(3)
C51_7 C 0.0135(9) 0.1460(9) 0.4721(4)
C52_7 C 0.0266(8) 0.1158(8) 0.4471(5)
C61_7 C 0.3116(4) 0.0696(4) 0.5754(2)
C62_7 C 0.2943(4) 0.0712(4) 0.5478(2)
C63_7 C 0.2440(5) 0.0620(4) 0.5420(2)
C66_7 C 0.2230(5) 0.0661(5) 0.5117(2)
C68_7 C 0.1655(4) 0.0988(4) 0.4774(3)
H41_7 H 0.1371 0.1178 0.4731
C70_7 C 0.1799(5) 0.0933(5) 0.5061(3)
C71_6 C 0.4405(4) 0.1636(5) 0.6501(3)
H44_6 H 0.4369 0.1448 0.6670
C72_6 C 0.4756(4) 0.2010(4) 0.6494(2)
H45_6 H 0.4948 0.2080 0.6658
C73_6 C 0.4824(4) 0.2284(4) 0.6242(2)
C74_6 C 0.5459(5) 0.2846(4) 0.6004(2)
H46_6 H 0.5411 0.2679 0.5828
C75_6 C 0.5812(5) 0.3220(4) 0.6022(2)
H47_6 H 0.6003 0.3303 0.5860
O16_5 O 0.1304(3) 0.1236(3) 0.37940(14)
O17_6 O 0.1891(3) 0.0477(3) 0.37477(15)
C100_6 C 0.5176(4) 0.2716(4) 0.6242(2)
C101_6 C 0.5244(4) 0.2990(4) 0.6494(2)
C102_6 C 0.5595(4) 0.3364(5) 0.6501(3)
N4_6 N 0.5886(4) 0.3469(4) 0.6275(2)
O31_5 O 0.6264(3) 0.3804(3) 0.62940(14)
La5_4 La 0.61516(3) 0.47757(3) 0.639660(15)
La6_4 La 0.71231(3) 0.35463(3) 0.654790(15)
H54_6 H 0.5631 0.3552 0.6670
H55_6 H 0.5052 0.2920 0.6658
C103_6 C 0.4541(5) 0.2154(4) 0.6004(2)
H56_6 H 0.4589 0.2321 0.5828
C104_6 C 0.4188(5) 0.1780(4) 0.6022(2)
H57_6 H 0.3997 0.1697 0.5860
C111_7 C 0.2311(4) 0.0525(5) 0.5932(2)
C112_7 C 0.2107(4) 0.0528(5) 0.5658(3)
H59_7 H 0.1765 0.0473 0.5629
H60_7 H 0.2105 0.0465 0.6092
H61_7 H 0.3456 0.0748 0.5792
H62_7 H 0.3163 0.0785 0.5326
C113_7 C 0.2507(4) 0.0431(5) 0.4891(3)
H63_7 H 0.2793 0.0240 0.4926
C114_7 C 0.2320(5) 0.0513(5) 0.4609(2)
H64_7 H 0.2491 0.0374 0.4452
H65_7 H 0.1611 0.1073 0.5211
C131_7 C 0.0652(6) 0.0065(6) 0.5405(4)
H78_7 H 0.0390 0.0280 0.5455
C132_7 C 0.0815(6) 0.0017(6) 0.5092(3)
H79_7 H 0.0676 0.0213 0.4945
C133_7 C 0.3160(5) 0.0726(5) 0.3046(3)
C134_7 C 0.2935(6) 0.1060(6) 0.2877(3)
H80_7 H 0.2724 0.1302 0.2958
C135_7 C 0.3018(6) 0.1048(6) 0.2561(3)
H81_7 H 0.2861 0.1281 0.2441
C136_7 C 0.3321(6) 0.0701(6) 0.2447(4)
H82_7 H 0.3383 0.0698 0.2248
C137_7 C 0.3533(6) 0.0361(6) 0.2619(4)
H83_7 H 0.3732 0.0110 0.2538
C138_7 C 0.3460(6) 0.0377(6) 0.2923(3)
H84_7 H 0.3621 0.0143 0.3041
C139_7 C 0.3319(5) 0.2813(5) 0.3735(3)
C140_7 C 0.3484(6) 0.2805(6) 0.4023(4)
H85_7 H 0.3373 0.2560 0.4152
C141_7 C 0.3808(7) 0.3164(7) 0.4108(4)
H86_7 H 0.3883 0.3202 0.4305
C142_7 C 0.4041(7) 0.3493(6) 0.3897(5)
H87_7 H 0.4301 0.3705 0.3953
C143_7 C 0.3884(6) 0.3489(6) 0.3630(4)
H88_7 H 0.4031 0.3701 0.3493
C144_7 C 0.3486(6) 0.3161(5) 0.3546(3)
H89_7 H 0.3343 0.3187 0.3362
C145_7 C 0.3207(6) 0.1723(8) 0.4757(3)
C146_7 C 0.3521(6) 0.1333(7) 0.4720(3)
H90_7 H 0.3481 0.1121 0.4561
C147_7 C 0.3892(7) 0.1250(7) 0.4909(4)
H91_7 H 0.4090 0.0964 0.4890
C148_7 C 0.3987(7) 0.1580(9) 0.5133(5)
H92_7 H 0.4248 0.1519 0.5264
C149_7 C 0.3689(9) 0.2006(11) 0.5163(5)
H93_7 H 0.3765 0.2240 0.5306
C150_7 C 0.3294(7) 0.2086(7) 0.4989(4)
H94_7 H 0.3084 0.2363 0.5014
F7_7 F 0.3051(3) 0.9631(4) 0.4125(2)
F9_7 F 0.3733(4) 0.9706(4) 0.3906(2)
F10_7 F 0.2301(7) 0.8819(5) 0.4423(3)
F11_7 F 0.1740(3) 0.8438(5) 0.4258(3)
F12_7 F 0.2205(3) 0.8854(3) 0.3985(2)
F14_7 F 0.0748(5) 0.9541(4) 0.3013(3)
F15_7 F 0.0006(6) 0.9722(4) 0.3027(2)
O7_7 O 0.1571(3) 0.9590(3) 0.41067(17)
O10_7 O 0.0470(4) 0.9642(3) 0.4096(2)
C31_7 C 0.1993(8) 0.8839(8) 0.4222(4)
C32_7 C 0.1640(8) 0.9239(8) 0.4293(5)
C33_7 C 0.1580(7) 0.9298(7) 0.4609(4)
H19_7 H 0.1733 0.9087 0.4744
C34_7 C 0.1250(8) 0.9730(7) 0.4694(5)
C41_7 C 0.0445 0.9875 0.3150
C42_7 C 0.0524(6) 0.9860(6) 0.3433(4)
C43_7 C 0.0185(7) 0.9526(8) 0.3581(5)
C44_7 C 0.0229(9) 0.9383(9) 0.3941(6)
C122_7 C 0.0017(6) 0.8733(7) 0.4313(4)
H70_7 H 0.0344 0.8765 0.4380
C127_7 C 0.1171(5) 0.9679(5) 0.5039(3)
C128_7 C 0.1408(6) 0.9401(6) 0.5248(4)
H75_7 H 0.1665 0.9178 0.5200
C129_7 C 0.1251(6) 0.9465(6) 0.5535(4)
H76_7 H 0.1407 0.9271 0.5677
C130_7 C 0.0897(6) 0.9782(7) 0.5620(4)
H77_7 H 0.0814 0.9816 0.5815
F17_7 F 0.9720(6) 0.1618(4) 0.4720(5)
C53_7 C 0.9802(7) 0.1266(7) 0.4254(4)
H31_7 H 0.9526 0.1465 0.4301
C54_7 C 0.9876(7) 0.0985(7) 0.3941(4)
C115_7 C 0.9462(6) 0.1129(6) 0.3712(3)
C116_7 C 0.9543(7) 0.0874(7) 0.3483(4)
H66_7 H 0.9805 0.0643 0.3473
C117_7 C 0.9222(7) 0.0957(7) 0.3248(4)
H67_7 H 0.9224 0.0744 0.3087
C118_7 C 0.8876(7) 0.1394(7) 0.3262(4)
C119_7 C 0.8817(6) 0.1662(6) 0.3525(4)
H68_7 H 0.8588 0.1924 0.3545
C120_7 C 0.9141(6) 0.1502(6) 0.3765(4)
H69_7 H 0.9123 0.1654 0.3947
H96_7 H 0.866726 0.150821 0.306916
H25_7 H 0.9926 0.9380 0.3473
C121_7 C 0.9859(6) 0.9008(6) 0.4072(3)
C123_7 C 0.9684(9) 0.8410(6) 0.4452(4)
H71_7 H 0.9789 0.8226 0.4613
C124_7 C 0.9194(8) 0.8361(7) 0.4351(5)
H72_7 H 0.8971 0.8145 0.4444
C125_7 C 0.9036(5) 0.8636(8) 0.4110(5)
H73_7 H 0.8709 0.8603 0.4042
C126_7 C 0.9369(7) 0.8959(7) 0.3971(3)
H74_7 H 0.9264 0.9143 0.3810
F1_8 F 0.0650(4) 0.5651(4) 0.1687(2)
F2_8 F 0.0272(4) 0.6209(4) 0.1936(2)
F3_8 F 0.0619(4) 0.5597(3) 0.2148(2)
F6_8 F 0.0284(4) 0.5431(4) 0.0436(2)
C1_8 C 0.0346(7) 0.5734(7) 0.1914(4)
H1_8 H 0.0024 0.4961 0.2201
C13_8 C 0.0027(5) 0.4895(5) 0.0911(3)
H7_8 H 0.0286 0.4811 0.0784
C45_5 C 0.0141(6) 0.5992(6) 0.4072(3)
C47_5 C 0.0316(9) 0.6590(6) 0.4452(4)
H27_5 H 0.0211 0.6774 0.4613
C48_5 C 0.0806(8) 0.6639(7) 0.4351(5)
H28_5 H 0.1029 0.6855 0.4444
C49_5 C 0.0964(5) 0.6364(8) 0.4110(5)
H29_5 H 0.1291 0.6397 0.4042
C50_5 C 0.0631(7) 0.6041(7) 0.3971(3)
H30_5 H 0.0736 0.5857 0.3810
C55_5 C 0.0538(6) 0.3871(6) 0.3712(3)
C56_5 C 0.0457(7) 0.4126(7) 0.3483(4)
H32_5 H 0.0195 0.4357 0.3473
C57_5 C 0.0778(7) 0.4043(7) 0.3248(4)
H33_5 H 0.0776 0.4256 0.3087
C58_5 C 0.1124(7) 0.3606(7) 0.3262(4)
C59_5 C 0.1183(6) 0.3338(6) 0.3525(4)
H34_5 H 0.1412 0.3076 0.3545
C60_5 C 0.0859(6) 0.3498(6) 0.3765(4)
H35_5 H 0.0877 0.3346 0.3947
C74_7 C 0.0346(4) 0.2041(5) 0.3504(2)
H46_7 H 0.0179 0.2089 0.3328
C75_7 C 0.0720(4) 0.1688(5) 0.3522(2)
H47_7 H 0.0803 0.1497 0.3360
H52_5 H 0.0074 0.5620 0.3473
F35_5 F 0.0280(6) 0.3382(4) 0.4720(5)
C98_5 C 0.0198(7) 0.3734(7) 0.4254(4)
H53_5 H 0.0474 0.3535 0.4301
C99_5 C 0.0124(7) 0.4015(7) 0.3941(4)
C100_7 C 0.0216(4) 0.2324(4) 0.3742(2)
C101_7 C 0.0490(4) 0.2256(4) 0.3994(2)
C102_7 C 0.0864(5) 0.1905(4) 0.4001(3)
N4_7 N 0.0969(4) 0.1614(4) 0.3775(2)
H54_7 H 0.1052 0.1869 0.4170
H55_7 H 0.0420 0.2448 0.4158
C139_8 C 0.0313(5) 0.4181(5) 0.1235(3)
C140_8 C 0.0305(6) 0.4016(6) 0.1523(4)
H85_8 H 0.0060 0.4127 0.1652
C141_8 C 0.0664(7) 0.3692(7) 0.1608(4)
H86_8 H 0.0702 0.3617 0.1805
C142_8 C 0.0993(6) 0.3459(7) 0.1397(5)
H87_8 H 0.1205 0.3199 0.1453
C143_8 C 0.0989(6) 0.3616(6) 0.1130(4)
H88_8 H 0.1201 0.3469 0.0993
C144_8 C 0.0661(5) 0.4014(6) 0.1046(3)
H89_8 H 0.0687 0.4157 0.0862
H95_5 H 0.133274 0.349179 0.306916
La1_6 La 0.88484(3) 0.52243(3) 0.139660(15)
La2_6 La 0.78769(3) 0.64537(3) 0.154790(15)
F4_8 F 0.9491(3) 0.5509(4) 0.03622(18)
F5_8 F 0.9906(3) 0.6072(3) 0.05935(17)
F7_8 F 0.7131(4) 0.4449(3) 0.1625(2)
F8_8 F 0.7615(3) 0.3876(4) 0.1764(2)
F9_8 F 0.7206(4) 0.3767(4) 0.1406(2)
F10_8 F 0.6319(5) 0.5199(7) 0.1923(3)
F11_8 F 0.5938(5) 0.5760(3) 0.1758(3)
F12_8 F 0.6354(3) 0.5295(3) 0.1485(2)
F13_8 F 0.7836(6) 0.6940(7) 0.0551(3)
F14_8 F 0.7041(4) 0.6752(5) 0.0513(3)
F15_8 F 0.7222(4) 0.7494(6) 0.0527(2)
F16_8 F 0.9328(5) 0.7078(5) 0.2229(2)
F17_8 F 0.9118(4) 0.7780(6) 0.2220(5)
F18_8 F 0.8601(8) 0.7295(7) 0.2429(3)
O1_8 O 0.9582(3) 0.5596(3) 0.16808(18)
O2_8 O 0.8984(3) 0.4782(3) 0.18696(17)
O3_8 O 0.9369(3) 0.5505(3) 0.09824(17)
O4_8 O 0.9572(3) 0.4650(3) 0.13273(17)
O5_8 O 0.8181(3) 0.4594(3) 0.14985(18)
O6_8 O 0.8594(3) 0.4748(3) 0.09543(16)
O7_8 O 0.7090(3) 0.5929(3) 0.16067(17)
O8_8 O 0.7597(3) 0.6443(3) 0.20655(17)
O9_8 O 0.7530(3) 0.6604(3) 0.10527(16)
O10_8 O 0.7142(3) 0.7030(4) 0.1596(2)
O11_8 O 0.8497(3) 0.6869(3) 0.18837(18)
O12_8 O 0.8228(3) 0.7250(3) 0.1329(2)
O13_4 O 0.8109(3) 0.4523(3) 0.37477(15)
O14_8 O 0.8356(3) 0.5731(3) 0.17789(15)
O15_4 O 0.8696(3) 0.3764(3) 0.37940(14)
N1_8 N 0.8108(3) 0.4699(4) 0.3474(2)
N2_8 N 0.8281(4) 0.5591(4) 0.2059(2)
N3_7 N 0.9031(4) 0.3386(4) 0.3775(2)
C2_8 C 0.9857(6) 0.5446(6) 0.1882(3)
C3_8 C 0.9775(6) 0.5039(6) 0.2066(3)
C4_8 C 0.9334(5) 0.4731(6) 0.2061(3)
C5_5 C 0.6793(6) 0.3277(8) 0.4757(3)
C6_5 C 0.6479(6) 0.3667(7) 0.4720(3)
H2_5 H 0.6519 0.3879 0.4561
C7_5 C 0.6108(7) 0.3750(7) 0.4909(4)
H3_5 H 0.5910 0.4036 0.4890
C8_5 C 0.6013(7) 0.3420(9) 0.5133(5)
H4_5 H 0.5752 0.3481 0.5264
C9_5 C 0.6311(9) 0.2994(11) 0.5163(5)
H5_5 H 0.6235 0.2760 0.5306
C10_5 C 0.6706(7) 0.2914(7) 0.4989(4)
H6_5 H 0.6916 0.2637 0.5014
C11_8 C 0.9865(7) 0.5591(6) 0.0565(4)
C12_8 C 0.9733(5) 0.5308(5) 0.0846(3)
C14_8 C 0.9955(5) 0.4589(5) 0.1163(3)
C15_5 C 0.6681(5) 0.2187(5) 0.3735(3)
C16_5 C 0.6516(6) 0.2195(6) 0.4023(4)
H8_5 H 0.6627 0.2440 0.4152
C17_5 C 0.6192(7) 0.1836(7) 0.4108(4)
H9_5 H 0.6117 0.1798 0.4305
C18_5 C 0.5959(7) 0.1507(6) 0.3897(5)
H10_5 H 0.5699 0.1295 0.3953
C19_5 C 0.6116(6) 0.1511(6) 0.3630(4)
H11_5 H 0.5969 0.1299 0.3493
C20_5 C 0.6514(6) 0.1839(5) 0.3546(3)
H12_5 H 0.6657 0.1813 0.3362
C21_8 C 0.7501 0.4166 0.1553
C22_8 C 0.7893(5) 0.4341(5) 0.1341(3)
C23_8 C 0.7889(5) 0.4260(5) 0.1051(3)
H13_8 H 0.7636 0.4059 0.0973
C24_8 C 0.8246(5) 0.4464(5) 0.0861(3)
C25_5 C 0.6840(5) 0.4274(5) 0.3046(3)
C26_5 C 0.7065(6) 0.3940(6) 0.2877(3)
H14_5 H 0.7276 0.3698 0.2958
C27_5 C 0.6982(6) 0.3952(6) 0.2561(3)
H15_5 H 0.7139 0.3719 0.2441
C28_5 C 0.6679(6) 0.4299(6) 0.2447(4)
H16_5 H 0.6617 0.4302 0.2248
C29_5 C 0.6467(6) 0.4639(6) 0.2619(4)
H17_5 H 0.6268 0.4890 0.2538
C30_5 C 0.6540(6) 0.4623(6) 0.2923(3)
H18_5 H 0.6379 0.4857 0.3041
C31_8 C 0.6339(8) 0.5507(8) 0.1722(4)
C32_8 C 0.6739(8) 0.5860(8) 0.1793(5)
C33_8 C 0.6798(7) 0.5920(7) 0.2109(4)
H19_8 H 0.6587 0.5767 0.2244
C34_8 C 0.7230(7) 0.6250(8) 0.2194(5)
C35_5 C 0.8829(5) 0.5321(5) 0.5039(3)
C36_5 C 0.8592(6) 0.5599(6) 0.5248(4)
H20_5 H 0.8335 0.5822 0.5200
C37_5 C 0.8749(6) 0.5535(6) 0.5535(4)
H21_5 H 0.8593 0.5729 0.5677
C38_5 C 0.9103(6) 0.5218(7) 0.5620(4)
H22_5 H 0.9186 0.5184 0.5815
C39_5 C 0.9348(6) 0.4935(6) 0.5405(4)
H23_5 H 0.9610 0.4720 0.5455
C40_5 C 0.9185(6) 0.4983(6) 0.5092(3)
H24_5 H 0.9324 0.4787 0.4945
C41_8 C 0.7375 0.7055 0.0650
C42_8 C 0.7360(6) 0.6976(6) 0.0933(4)
C43_8 C 0.7026(8) 0.7315(7) 0.1081(5)
H25_8 H 0.6880 0.7574 0.0973
C44_8 C 0.6883(9) 0.7271(9) 0.1441(6)
C46_5 C 0.9983(6) 0.6267(7) 0.4313(4)
H26_5 H 0.9656 0.6235 0.4380
C51_8 C 0.8960(9) 0.7365(9) 0.2221(4)
C52_8 C 0.8658(8) 0.7234(8) 0.1971(5)
C53_8 C 0.8766(7) 0.7698(7) 0.1754(4)
H31_8 H 0.8965 0.7974 0.1801
C54_8 C 0.8485(7) 0.7624(7) 0.1441(4)
C61_8 C 0.8196(4) 0.4384(4) 0.3254(2)
H36_5 H 0.6544 0.4252 0.5792
C62_8 C 0.8212(4) 0.4557(4) 0.2978(2)
H37_5 H 0.6837 0.4215 0.5326
C63_8 C 0.8120(4) 0.5060(5) 0.2920(2)
C64_5 C 0.7893(4) 0.4472(5) 0.5658(3)
H38_5 H 0.8235 0.4527 0.5629
C65_5 C 0.7689(4) 0.4475(5) 0.5932(2)
H39_5 H 0.7895 0.4535 0.6092
C66_8 C 0.8161(5) 0.5270(5) 0.2617(2)
C67_5 C 0.7493(4) 0.4569(5) 0.4891(3)
H40_5 H 0.7207 0.4760 0.4926
C68_8 C 0.8488(4) 0.5845(4) 0.2274(3)
H41_8 H 0.8678 0.6129 0.2231
C69_5 C 0.7680(5) 0.4487(5) 0.4609(2)
H42_5 H 0.7509 0.4626 0.4452
C70_8 C 0.8433(5) 0.5701(5) 0.2561(3)
H43_5 H 0.8389 0.3927 0.5211
C71_7 C 0.9136(5) 0.3095(4) 0.4001(3)
H44_7 H 0.8948 0.3131 0.4170
C72_7 C 0.9510(4) 0.2744(4) 0.3994(2)
H45_7 H 0.9580 0.2552 0.4158
C73_7 C 0.9784(4) 0.2676(4) 0.3742(2)
O16_6 O 0.8736(3) 0.6196(3) 0.12940(14)
O17_7 O 0.7977(3) 0.5609(3) 0.12477(15)
La3_4 La 0.77243(3) 0.36516(3) 0.389660(15)
O18_5 O 0.8096(3) 0.2918(3) 0.41808(18)
C76_5 C 0.7946(6) 0.2643(6) 0.4382(3)
C77_5 C 0.8234(7) 0.2154(7) 0.4414(4)
F19_5 F 0.8151(4) 0.1850(4) 0.4187(2)
F20_5 F 0.8709(4) 0.2228(4) 0.4436(2)
F21_5 F 0.8097(3) 0.1881(4) 0.4648(2)
C78_5 C 0.7539(6) 0.2725(6) 0.4566(3)
H48_5 H 0.7461 0.2476 0.4701
C79_5 C 0.7231(6) 0.3166(5) 0.4561(3)
O19_5 O 0.7282(3) 0.3516(3) 0.43696(17)
O20_5 O 0.8005(3) 0.3131(3) 0.34824(17)
C80_5 C 0.7808(5) 0.2767(5) 0.3346(3)
C81_5 C 0.8091(6) 0.2635(7) 0.3065(4)
F22_5 F 0.8009(4) 0.3009(3) 0.28622(18)
F23_5 F 0.8572(3) 0.2594(3) 0.30935(17)
F24_5 F 0.7931(4) 0.2216(4) 0.2936(2)
C82_5 C 0.7395(5) 0.2473(5) 0.3411(3)
H49_5 H 0.7311 0.2214 0.3284
C83_5 C 0.7089(5) 0.2545(5) 0.3663(3)
O21_5 O 0.7150(3) 0.2928(3) 0.38273(17)
O22_5 O 0.7094(3) 0.4319(3) 0.39985(18)
C84_5 C 0.6841(5) 0.4607(5) 0.3841(3)
C85_5 C 0.6666 0.4999 0.4053
F25_5 F 0.6949(3) 0.5369(4) 0.4125(2)
F26_5 F 0.6376(4) 0.4885(3) 0.4264(2)
F27_5 F 0.6267(4) 0.5294(4) 0.3906(2)
C86_5 C 0.6760(5) 0.4611(5) 0.3551(3)
H50_5 H 0.6559 0.4864 0.3473
C87_5 C 0.6964(5) 0.4254(5) 0.3361(3)
O23_5 O 0.7248(3) 0.3906(3) 0.34543(16)
O24_5 O 0.8231(3) 0.4144(3) 0.42789(15)
La4_4 La 0.89537(3) 0.46231(3) 0.404790(15)
O25_5 O 0.8429(3) 0.5410(3) 0.41067(17)
C88_5 C 0.8360(8) 0.5761(8) 0.4293(5)
C89_5 C 0.8007(8) 0.6161(8) 0.4222(4)
F28_5 F 0.7699(7) 0.6181(5) 0.4423(3)
F29_5 F 0.8260(3) 0.6562(5) 0.4258(3)
F30_5 F 0.7795(3) 0.6146(3) 0.3985(2)
C90_5 C 0.8420(7) 0.5702(7) 0.4609(4)
H51_5 H 0.8267 0.5913 0.4744
C91_5 C 0.8750(8) 0.5270(7) 0.4694(5)
O26_5 O 0.8943(3) 0.4903(3) 0.45655(17)
O27_5 O 0.9104(3) 0.4970(3) 0.35527(16)
C92_5 C 0.9476(6) 0.5140(6) 0.3433(4)
C93_5 C 0.9555 0.5125 0.3150
F31_5 F 0.9440(7) 0.4664(6) 0.3051(3)
F32_5 F 0.9252(5) 0.5459(4) 0.3013(3)
F33_5 F 0.9994(6) 0.5278(4) 0.3027(2)
C94_5 C 0.9815(7) 0.5474(8) 0.3581(5)
C95_5 C 0.9771(9) 0.5617(9) 0.3941(6)
O28_5 O 0.9530(4) 0.5358(3) 0.4096(2)
O29_5 O 0.9369(3) 0.4003(3) 0.43837(18)
C96_5 C 0.9734(8) 0.3842(8) 0.4471(5)
C97_5 C 0.9865(9) 0.3540(9) 0.4721(4)
F34_5 F 0.9578(5) 0.3172(5) 0.4729(2)
F36_5 F 0.9795(7) 0.3899(8) 0.4929(3)
O30_5 O 0.9750(3) 0.4272(3) 0.3829(2)
C103_7 C 0.9654(4) 0.2959(5) 0.3504(2)
H56_7 H 0.9821 0.2911 0.3328
C104_7 C 0.9280(4) 0.3312(5) 0.3522(2)
H57_7 H 0.9197 0.3503 0.3360
N5_5 N 0.8091(4) 0.4219(4) 0.4559(2)
C105_5 C 0.8345(4) 0.4012(4) 0.4774(3)
H58_5 H 0.8629 0.3822 0.4731
C106_5 C 0.8201(5) 0.4067(5) 0.5061(3)
C107_5 C 0.7770(5) 0.4339(5) 0.5117(2)
C108_5 C 0.7560(5) 0.4380(4) 0.5420(2)
C109_5 C 0.7057(4) 0.4288(4) 0.5478(2)
C110_5 C 0.6884(4) 0.4304(4) 0.5754(2)
N6_5 N 0.7199(4) 0.4392(3) 0.5974(2)
O32_4 O 0.7023(3) 0.4391(3) 0.62477(15)
C111_8 C 0.8025(5) 0.5189(4) 0.3432(2)
C112_8 C 0.8028(5) 0.5393(4) 0.3158(3)
H59_8 H 0.7973 0.5735 0.3129
H60_8 H 0.7965 0.5395 0.3592
H61_8 H 0.8248 0.4044 0.3292
H62_8 H 0.8285 0.4337 0.2826
C113_8 C 0.7931(5) 0.4993(4) 0.2391(3)
H63_8 H 0.7740 0.4707 0.2426
C114_8 C 0.8013(5) 0.5180(5) 0.2109(2)
H64_8 H 0.7874 0.5009 0.1952
H65_8 H 0.8573 0.5889 0.2711
C115_8 C 0.8629(6) 0.8038(6) 0.1212(3)
C116_8 C 0.8374(7) 0.7957(7) 0.0983(4)
H66_8 H 0.8143 0.7695 0.0973
C117_8 C 0.8457(7) 0.8278(7) 0.0748(4)
H67_8 H 0.8244 0.8276 0.0587
C118_8 C 0.8894(7) 0.8624(7) 0.0762(4)
C119_8 C 0.9162(6) 0.8683(6) 0.1025(4)
H68_8 H 0.9424 0.8912 0.1045
C120_8 C 0.9002(6) 0.8359(6) 0.1265(4)
H69_8 H 0.9154 0.8377 0.1447
C121_8 C 0.6508(6) 0.7641(6) 0.1572(3)
C122_8 C 0.6233(7) 0.7483(6) 0.1813(4)
H70_8 H 0.6265 0.7156 0.1880
C123_8 C 0.5910(6) 0.7816(9) 0.1952(4)
H71_8 H 0.5726 0.7711 0.2113
C124_8 C 0.5861(7) 0.8306(8) 0.1851(5)
H72_8 H 0.5645 0.8529 0.1944
C125_8 C 0.6136(8) 0.8464(5) 0.1610(5)
H73_8 H 0.6103 0.8791 0.1542
C126_8 C 0.6459(7) 0.8131(7) 0.1471(3)
H74_8 H 0.6643 0.8236 0.1310
C127_8 C 0.7179(5) 0.6329(5) 0.2539(3)
C128_8 C 0.6901(6) 0.6092(6) 0.2748(4)
H75_8 H 0.6678 0.5835 0.2700
C129_8 C 0.6965(6) 0.6249(6) 0.3035(4)
H76_8 H 0.6771 0.6093 0.3177
C130_8 C 0.7282(7) 0.6603(6) 0.3120(4)
H77_8 H 0.7316 0.6686 0.3315
C131_8 C 0.7565(6) 0.6848(6) 0.2905(4)
H78_8 H 0.7780 0.7110 0.2955
C132_8 C 0.7517(6) 0.6685(6) 0.2592(3)
H79_8 H 0.7713 0.6824 0.2445
C133_8 C 0.8226(5) 0.4340(5) 0.0546(3)
C134_8 C 0.8560(6) 0.4565(6) 0.0377(3)
H80_8 H 0.8802 0.4776 0.0458
C135_8 C 0.8548(6) 0.4482(6) 0.0061(3)
C137_8 C 0.7861(6) 0.3967(6) 0.0119(4)
H83_8 H 0.7610 0.3768 0.0038
C138_8 C 0.7877(6) 0.4040(6) 0.0423(3)
H84_8 H 0.7643 0.3879 0.0541
C145_8 C 0.9223(8) 0.4293(6) 0.2257(3)
C146_8 C 0.8833(7) 0.3979(6) 0.2220(3)
H90_8 H 0.8621 0.4019 0.2061
C147_8 C 0.8750(7) 0.3608(7) 0.2409(4)
H91_8 H 0.8464 0.3410 0.2390
C148_8 C 0.9080(9) 0.3513(7) 0.2633(5)
H92_8 H 0.9019 0.3252 0.2764
C149_8 C 0.9506(11) 0.3811(9) 0.2663(5)
H93_8 H 0.9740 0.3735 0.2806
C150_8 C 0.9586(7) 0.4206(7) 0.2489(4)
H94_8 H 0.9863 0.4416 0.2514
H96_8 H 0.900821 0.883274 0.0569161
H81_8 H 0.8781 0.4639 0.9941
C136_8 C 0.8201(6) 0.4179(6) 0.9947(4)
H82_8 H 0.8198 0.4117 0.9748
F7_9 F 0.2869(4) 0.0551(3) 0.1625(2)
F8_9 F 0.2385(3) 0.1124(4) 0.1764(2)
F9_9 F 0.2794(4) 0.1233(4) 0.1406(2)
O2_9 O 0.1016(3) 0.0218(3) 0.18696(17)
O4_9 O 0.0428(3) 0.0350(3) 0.13273(17)
O5_9 O 0.1819(3) 0.0406(3) 0.14985(18)
O6_9 O 0.1406(3) 0.0252(3) 0.09543(16)
N1_9 N 0.1892(3) 0.0301(4) 0.3474(2)
C4_9 C 0.0666(5) 0.0269(6) 0.2061(3)
C14_9 C 0.0045(5) 0.0411(5) 0.1163(3)
C21_9 C 0.2499 0.0834 0.1553
C22_9 C 0.2107(5) 0.0659(5) 0.1341(3)
C23_9 C 0.2111(5) 0.0740(5) 0.1051(3)
H13_9 H 0.2364 0.0941 0.0973
C24_9 C 0.1754(5) 0.0536(5) 0.0861(3)
C61_9 C 0.1804(4) 0.0616(4) 0.3254(2)
C62_9 C 0.1788(4) 0.0443(4) 0.2978(2)
H61_9 H 0.1752 0.0956 0.3292
H62_9 H 0.1715 0.0663 0.2826
C113_9 C 0.2069(5) 0.0007(4) 0.2391(3)
H63_9 H 0.2260 0.0293 0.2426
C133_9 C 0.1774(5) 0.0660(5) 0.0546(3)
C134_9 C 0.1440(6) 0.0435(6) 0.0377(3)
H80_9 H 0.1198 0.0224 0.0458
C135_9 C 0.1452(6) 0.0518(6) 0.0061(3)
C137_9 C 0.2139(6) 0.1033(6) 0.0119(4)
H83_9 H 0.2390 0.1232 0.0038
C138_9 C 0.2123(6) 0.0960(6) 0.0423(3)
H84_9 H 0.2357 0.1121 0.0541
C145_9 C 0.0777(8) 0.0707(6) 0.2257(3)
C146_9 C 0.1167(7) 0.1021(6) 0.2220(3)
H90_9 H 0.1379 0.0981 0.2061
C147_9 C 0.1250(7) 0.1392(7) 0.2409(4)
H91_9 H 0.1536 0.1590 0.2390
C148_9 C 0.0920(9) 0.1487(7) 0.2633(5)
H92_9 H 0.0981 0.1748 0.2764
C149_9 C 0.0494(11) 0.1189(9) 0.2663(5)
H93_9 H 0.0260 0.1265 0.2806
C150_9 C 0.0414(7) 0.0794(7) 0.2489(4)
H94_9 H 0.0137 0.0584 0.2514
H81_9 H 0.1219 0.0361 0.9941
C136_9 C 0.1799(6) 0.0821(6) 0.9947(4)
H82_9 H 0.1802 0.0883 0.9748
F4_9 F 0.0509(3) 0.9491(4) 0.03622(18)
F5_9 F 0.0094(3) 0.8928(3) 0.05935(17)
F10_9 F 0.3681(5) 0.9801(7) 0.1923(3)
F11_9 F 0.4062(5) 0.9240(3) 0.1758(3)
F12_9 F 0.3646(3) 0.9705(3) 0.1485(2)
F13_9 F 0.2164(6) 0.8060(7) 0.0551(3)
F14_9 F 0.2959(4) 0.8248(5) 0.0513(3)
F15_9 F 0.2778(4) 0.7506(6) 0.0527(2)
F16_9 F 0.0672(5) 0.7922(5) 0.2229(2)
F17_9 F 0.0882(4) 0.7220(6) 0.2220(5)
F18_9 F 0.1399(8) 0.7705(7) 0.2429(3)
O1_9 O 0.0418(3) 0.9404(3) 0.16808(18)
O3_9 O 0.0631(3) 0.9495(3) 0.09824(17)
O7_9 O 0.2910(3) 0.9071(3) 0.16067(17)
O8_9 O 0.2403(3) 0.8557(3) 0.20655(17)
O9_9 O 0.2470(3) 0.8396(3) 0.10527(16)
O10_9 O 0.2858(3) 0.7970(4) 0.1596(2)
O11_9 O 0.1503(3) 0.8131(3) 0.18837(18)
O12_9 O 0.1772(3) 0.7750(3) 0.1329(2)
O14_9 O 0.1644(3) 0.9269(3) 0.17789(15)
N2_9 N 0.1719(4) 0.9409(4) 0.2059(2)
C2_9 C 0.0143(6) 0.9554(6) 0.1882(3)
C3_9 C 0.0225(6) 0.9961(6) 0.2066(3)
C11_9 C 0.0135(7) 0.9409(6) 0.0565(4)
C12_9 C 0.0267(5) 0.9692(5) 0.0846(3)
C31_9 C 0.3661(8) 0.9493(8) 0.1722(4)
C32_9 C 0.3261(8) 0.9140(8) 0.1793(5)
C33_9 C 0.3202(7) 0.9080(7) 0.2109(4)
H19_9 H 0.3413 0.9233 0.2244
C34_9 C 0.2770(7) 0.8750(8) 0.2194(5)
C41_9 C 0.2625 0.7945 0.0650
C42_9 C 0.2640(6) 0.8024(6) 0.0933(4)
C43_9 C 0.2974(8) 0.7685(7) 0.1081(5)
H25_9 H 0.3120 0.7426 0.0973
C44_9 C 0.3117(9) 0.7729(9) 0.1441(6)
C51_9 C 0.1040(9) 0.7635(9) 0.2221(4)
C52_9 C 0.1342(8) 0.7766(8) 0.1971(5)
C53_9 C 0.1234(7) 0.7302(7) 0.1754(4)
H31_9 H 0.1035 0.7026 0.1801
C54_9 C 0.1515(7) 0.7376(7) 0.1441(4)
C63_9 C 0.1880(4) 0.9940(5) 0.2920(2)
C66_9 C 0.1839(5) 0.9730(5) 0.2617(2)
C68_9 C 0.1512(4) 0.9155(4) 0.2274(3)
H41_9 H 0.1322 0.8871 0.2231
C70_9 C 0.1567(5) 0.9299(5) 0.2561(3)
O16_7 O 0.1264(3) 0.8804(3) 0.12940(14)
C111_9 C 0.1975(5) 0.9811(4) 0.3432(2)
C112_9 C 0.1972(5) 0.9607(4) 0.3158(3)
H59_9 H 0.2027 0.9265 0.3129
H60_9 H 0.2035 0.9605 0.3592
C114_9 C 0.1987(5) 0.9820(5) 0.2109(2)
H64_9 H 0.2126 0.9991 0.1952
H65_9 H 0.1427 0.9111 0.2711
C115_9 C 0.1371(6) 0.6962(6) 0.1212(3)
C116_9 C 0.1626(7) 0.7043(7) 0.0983(4)
H66_9 H 0.1857 0.7305 0.0973
C117_9 C 0.1543(7) 0.6722(7) 0.0748(4)
H67_9 H 0.1756 0.6724 0.0587
C118_9 C 0.1106(7) 0.6376(7) 0.0762(4)
C119_9 C 0.0838(6) 0.6317(6) 0.1025(4)
H68_9 H 0.0576 0.6088 0.1045
C120_9 C 0.0998(6) 0.6641(6) 0.1265(4)
H69_9 H 0.0846 0.6623 0.1447
C121_9 C 0.3492(6) 0.7359(6) 0.1572(3)
C122_9 C 0.3767(7) 0.7517(6) 0.1813(4)
H70_9 H 0.3735 0.7844 0.1880
C123_9 C 0.4090(6) 0.7184(9) 0.1952(4)
H71_9 H 0.4274 0.7289 0.2113
C124_9 C 0.4139(7) 0.6694(8) 0.1851(5)
H72_9 H 0.4355 0.6471 0.1944
C125_9 C 0.3864(8) 0.6536(5) 0.1610(5)
H73_9 H 0.3897 0.6209 0.1542
C126_9 C 0.3541(7) 0.6869(7) 0.1471(3)
H74_9 H 0.3357 0.6764 0.1310
C127_9 C 0.2821(5) 0.8671(5) 0.2539(3)
C128_9 C 0.3099(6) 0.8908(6) 0.2748(4)
H75_9 H 0.3322 0.9165 0.2700
C129_9 C 0.3035(6) 0.8751(6) 0.3035(4)
H76_9 H 0.3229 0.8907 0.3177
C130_9 C 0.2718(7) 0.8397(6) 0.3120(4)
H77_9 H 0.2684 0.8314 0.3315
C131_9 C 0.2435(6) 0.8152(6) 0.2905(4)
H78_9 H 0.2220 0.7890 0.2955
C132_9 C 0.2483(6) 0.8315(6) 0.2592(3)
H79_9 H 0.2287 0.8176 0.2445
H96_9 H 0.0991794 0.616726 0.0569161
H1_9 H 0.9976 0.0039 0.2201
C13_9 C 0.9973(5) 0.0105(5) 0.0911(3)
H7_9 H 0.9714 0.0189 0.0784
C139_9 C 0.9687(5) 0.0819(5) 0.1235(3)
C140_9 C 0.9695(6) 0.0984(6) 0.1523(4)
H85_9 H 0.9940 0.0873 0.1652
C141_9 C 0.9336(7) 0.1308(7) 0.1608(4)
H86_9 H 0.9298 0.1383 0.1805
C142_9 C 0.9007(6) 0.1541(7) 0.1397(5)
H87_9 H 0.8795 0.1801 0.1453
C143_9 C 0.9011(6) 0.1384(6) 0.1130(4)
H88_9 H 0.8799 0.1531 0.0993
C144_9 C 0.9339(5) 0.0986(6) 0.1046(3)
H89_9 H 0.9313 0.0843 0.0862
F1_9 F 0.9350(4) 0.9349(4) 0.1687(2)
F2_9 F 0.9728(4) 0.8791(4) 0.1936(2)
F3_9 F 0.9381(4) 0.9403(3) 0.2148(2)
F6_9 F 0.9716(4) 0.9569(4) 0.0436(2)
C1_9 C 0.9654(7) 0.9266(7) 0.1914(4)
N3_8 N 0.0886(4) 0.8469(4) 0.1275(2)
C71_8 C 0.0595(4) 0.8364(5) 0.1501(3)
H44_8 H 0.0631 0.8552 0.1670
C72_8 C 0.0244(4) 0.7990(4) 0.1494(2)
H45_8 H 0.0052 0.7920 0.1658
C73_8 C 0.0176(4) 0.7716(4) 0.1242(2)
C103_8 C 0.0459(5) 0.7846(4) 0.1004(2)
H56_8 H 0.0411 0.7679 0.0828
C104_8 C 0.0812(5) 0.8220(4) 0.1022(2)
H57_8 H 0.1003 0.8303 0.0860
C74_8 C 0.9541(5) 0.7154(4) 0.1004(2)
H46_8 H 0.9589 0.7321 0.0828
C75_8 C 0.9188(5) 0.6780(4) 0.1022(2)
H47_8 H 0.8997 0.6697 0.0860
C100_8 C 0.9824(4) 0.7284(4) 0.1242(2)
C101_8 C 0.9756(4) 0.7010(4) 0.1494(2)
C102_8 C 0.9405(4) 0.6636(5) 0.1501(3)
N4_8 N 0.9114(4) 0.6531(4) 0.1275(2)
H54_8 H 0.9369 0.6448 0.1670
H55_8 H 0.9948 0.7080 0.1658
C8_6 C 0.8987(7) 0.6580(9) 0.0133(5)
H4_6 H 0.9248 0.6519 0.0264
C9_6 C 0.8689(9) 0.7006(11) 0.0163(5)
H5_6 H 0.8765 0.7240 0.0306
H6_6 H 0.8084 0.7363 0.0014
C35_6 C 0.6171(5) 0.4679(5) 0.0039(3)
C36_6 C 0.6408(6) 0.4401(6) 0.0248(4)
H20_6 H 0.6665 0.4178 0.0200
C37_6 C 0.6251(6) 0.4465(6) 0.0535(4)
H21_6 H 0.6407 0.4271 0.0677
C38_6 C 0.5897(6) 0.4782(7) 0.0620(4)
H22_6 H 0.5814 0.4816 0.0815
C39_6 C 0.5652(6) 0.5065(6) 0.0405(4)
H23_6 H 0.5390 0.5280 0.0455
C40_6 C 0.5815(6) 0.5017(6) 0.0092(3)
H36_6 H 0.8456 0.5748 0.0792
H37_6 H 0.8163 0.5785 0.0326
C64_6 C 0.7107(4) 0.5528(5) 0.0658(3)
H38_6 H 0.6765 0.5473 0.0629
C65_6 C 0.7311(4) 0.5525(5) 0.0932(2)
H39_6 H 0.7105 0.5465 0.1092
H43_6 H 0.6611 0.6073 0.0211
C106_6 C 0.6799(5) 0.5933(5) 0.0061(3)
C107_6 C 0.7230(5) 0.5661(5) 0.0117(2)
C108_6 C 0.7440(5) 0.5620(4) 0.0420(2)
C109_6 C 0.7943(4) 0.5712(4) 0.0478(2)
C110_6 C 0.8116(4) 0.5696(4) 0.0754(2)
N6_6 N 0.7801(4) 0.5608(3) 0.0974(2)
F1_10 F 0.4350(4) 0.4349(4) 0.6687(2)
F2_10 F 0.4728(4) 0.3791(4) 0.6936(2)
F3_10 F 0.4381(4) 0.4403(3) 0.7148(2)
F4_10 F 0.5509(3) 0.4491(4) 0.53622(18)
F5_10 F 0.5094(3) 0.3928(3) 0.55935(17)
F6_10 F 0.4716(4) 0.4569(4) 0.5436(2)
F7_10 F 0.7869(4) 0.5551(3) 0.6625(2)
F8_10 F 0.7385(3) 0.6124(4) 0.6764(2)
F9_10 F 0.7794(4) 0.6233(4) 0.6406(2)
F10_10 F 0.8681(5) 0.4801(7) 0.6923(3)
F11_10 F 0.9062(5) 0.4240(3) 0.6758(3)
F12_10 F 0.8646(3) 0.4705(3) 0.6485(2)
F13_10 F 0.7164(6) 0.3060(7) 0.5551(3)
F14_10 F 0.7959(4) 0.3248(5) 0.5513(3)
F15_10 F 0.7778(4) 0.2506(6) 0.5527(2)
F16_10 F 0.5672(5) 0.2922(5) 0.7229(2)
F17_10 F 0.5882(4) 0.2220(6) 0.7220(5)
F18_10 F 0.6399(8) 0.2705(7) 0.7429(3)
O1_10 O 0.5418(3) 0.4404(3) 0.66808(18)
O2_10 O 0.6016(3) 0.5218(3) 0.68696(17)
O3_10 O 0.5631(3) 0.4495(3) 0.59824(17)
O4_10 O 0.5428(3) 0.5350(3) 0.63273(17)
O5_10 O 0.6819(3) 0.5406(3) 0.64985(18)
O6_10 O 0.6406(3) 0.5252(3) 0.59543(16)
O7_10 O 0.7910(3) 0.4071(3) 0.66067(17)
O8_10 O 0.7403(3) 0.3557(3) 0.70655(17)
O9_10 O 0.7470(3) 0.3396(3) 0.60527(16)
O10_10 O 0.7858(3) 0.2970(4) 0.6596(2)
O11_10 O 0.6503(3) 0.3131(3) 0.68837(18)
O12_10 O 0.6772(3) 0.2750(3) 0.6329(2)
O13_5 O 0.6891(3) 0.5477(3) 0.87477(15)
O14_10 O 0.6644(3) 0.4269(3) 0.67789(15)
N1_10 N 0.6892(3) 0.5301(4) 0.8474(2)
N2_10 N 0.6719(4) 0.4409(4) 0.7059(2)
C1_10 C 0.4654(7) 0.4266(7) 0.6914(4)
C2_10 C 0.5143(6) 0.4554(6) 0.6882(3)
C3_10 C 0.5225(6) 0.4961(6) 0.7066(3)
H1_10 H 0.4976 0.5039 0.7201
C4_10 C 0.5666(5) 0.5269(6) 0.7061(3)
C5_6 C 0.8207(6) 0.6723(8) 0.9757(3)
C6_6 C 0.8521(6) 0.6333(7) 0.9720(3)
H2_6 H 0.8481 0.6121 0.9561
C7_6 C 0.8892(7) 0.6250(7) 0.9909(4)
H3_6 H 0.9090 0.5964 0.9890
C10_6 C 0.8294(7) 0.7086(7) 0.9989(4)
C11_10 C 0.5135(7) 0.4409(6) 0.5565(4)
C12_10 C 0.5267(5) 0.4692(5) 0.5846(3)
C13_10 C 0.4973(5) 0.5105(5) 0.5911(3)
H7_10 H 0.4714 0.5189 0.5784
C14_10 C 0.5045(5) 0.5411(5) 0.6163(3)
C15_6 C 0.8319(5) 0.7813(5) 0.8735(3)
C16_6 C 0.8484(6) 0.7805(6) 0.9023(4)
H8_6 H 0.8373 0.7560 0.9152
C17_6 C 0.8808(7) 0.8164(7) 0.9108(4)
H9_6 H 0.8883 0.8202 0.9305
C18_6 C 0.9041(7) 0.8493(6) 0.8897(5)
H10_6 H 0.9301 0.8705 0.8953
C19_6 C 0.8884(6) 0.8489(6) 0.8630(4)
H11_6 H 0.9031 0.8701 0.8493
C20_6 C 0.8486(6) 0.8161(5) 0.8546(3)
H12_6 H 0.8343 0.8187 0.8362
C21_10 C 0.7499 0.5834 0.6553
C22_10 C 0.7107(5) 0.5659(5) 0.6341(3)
C23_10 C 0.7111(5) 0.5740(5) 0.6051(3)
H13_10 H 0.7364 0.5941 0.5973
C24_10 C 0.6754(5) 0.5536(5) 0.5861(3)
C25_6 C 0.8160(5) 0.5726(5) 0.8046(3)
C26_6 C 0.7935(6) 0.6060(6) 0.7877(3)
H14_6 H 0.7724 0.6302 0.7958
C27_6 C 0.8018(6) 0.6048(6) 0.7561(3)
H15_6 H 0.7861 0.6281 0.7441
C28_6 C 0.8321(6) 0.5701(6) 0.7447(4)
H16_6 H 0.8383 0.5698 0.7248
C29_6 C 0.8533(6) 0.5361(6) 0.7619(4)
H17_6 H 0.8732 0.5110 0.7538
C30_6 C 0.8460(6) 0.5377(6) 0.7923(3)
H18_6 H 0.8621 0.5143 0.8041
C31_10 C 0.8661(8) 0.4493(8) 0.6722(4)
C32_10 C 0.8261(8) 0.4140(8) 0.6793(5)
C33_10 C 0.8202(7) 0.4080(7) 0.7109(4)
H19_10 H 0.8413 0.4233 0.7244
C34_10 C 0.7770(7) 0.3750(8) 0.7194(5)
H24_6 H 0.5676 0.5213 0.9945
C41_10 C 0.7625 0.2945 0.5650
C42_10 C 0.7640(6) 0.3024(6) 0.5933(4)
C43_10 C 0.7974(8) 0.2685(7) 0.6081(5)
H25_10 H 0.8120 0.2426 0.5973
C44_10 C 0.8117(9) 0.2729(9) 0.6441(6)
C45_6 C 0.4859(6) 0.4008(6) 0.9072(3)
C46_6 C 0.5017(6) 0.3733(7) 0.9313(4)
H26_6 H 0.5344 0.3765 0.9380
C47_6 C 0.4684(9) 0.3410(6) 0.9452(4)
H27_6 H 0.4789 0.3226 0.9613
C48_6 C 0.4194(8) 0.3361(7) 0.9351(5)
H28_6 H 0.3971 0.3145 0.9444
C49_6 C 0.4036(5) 0.3636(8) 0.9110(5)
H29_6 H 0.3709 0.3603 0.9042
C50_6 C 0.4369(7) 0.3959(7) 0.8971(3)
H30_6 H 0.4264 0.4143 0.8810
C51_10 C 0.6040(9) 0.2635(9) 0.7221(4)
C52_10 C 0.6342(8) 0.2766(8) 0.6971(5)
C53_10 C 0.6234(7) 0.2302(7) 0.6754(4)
H31_10 H 0.6035 0.2026 0.6801
C54_10 C 0.6515(7) 0.2376(7) 0.6441(4)
C55_6 C 0.4462(6) 0.6129(6) 0.8712(3)
C56_6 C 0.4543(7) 0.5874(7) 0.8483(4)
H32_6 H 0.4805 0.5643 0.8473
C57_6 C 0.4222(7) 0.5957(7) 0.8248(4)
H33_6 H 0.4224 0.5744 0.8087
C58_6 C 0.3876(7) 0.6394(7) 0.8262(4)
C59_6 C 0.3817(6) 0.6662(6) 0.8525(4)
H34_6 H 0.3588 0.6924 0.8545
C60_6 C 0.4141(6) 0.6502(6) 0.8765(4)
H35_6 H 0.4123 0.6654 0.8947
C61_10 C 0.6804(4) 0.5616(4) 0.8254(2)
C62_10 C 0.6788(4) 0.5443(4) 0.7978(2)
C63_10 C 0.6880(4) 0.4940(5) 0.7920(2)
C66_10 C 0.6839(5) 0.4730(5) 0.7617(2)
C67_6 C 0.7507(4) 0.5431(5) 0.9891(3)
H40_6 H 0.7793 0.5240 0.9926
C68_10 C 0.6512(4) 0.4155(4) 0.7274(3)
H41_10 H 0.6322 0.3871 0.7231
C69_6 C 0.7320(5) 0.5513(5) 0.9609(2)
H42_6 H 0.7491 0.5374 0.9452
C70_10 C 0.6567(5) 0.4299(5) 0.7561(3)
O18_6 O 0.6904(3) 0.7082(3) 0.91808(18)
C76_6 C 0.7054(6) 0.7357(6) 0.9382(3)
C77_6 C 0.6766(7) 0.7846(7) 0.9414(4)
F19_6 F 0.6849(4) 0.8150(4) 0.9187(2)
F20_6 F 0.6291(4) 0.7772(4) 0.9436(2)
F21_6 F 0.6903(3) 0.8119(4) 0.9648(2)
C78_6 C 0.7461(6) 0.7275(6) 0.9566(3)
H48_6 H 0.7539 0.7524 0.9701
C79_6 C 0.7769(6) 0.6834(5) 0.9561(3)
O19_6 O 0.7718(3) 0.6484(3) 0.93696(17)
O20_6 O 0.6995(3) 0.6869(3) 0.84824(17)
C80_6 C 0.7192(5) 0.7233(5) 0.8346(3)
C81_6 C 0.6909(6) 0.7365(7) 0.8065(4)
F22_6 F 0.6991(4) 0.6991(3) 0.78622(18)
F23_6 F 0.6428(3) 0.7406(3) 0.80935(17)
F24_6 F 0.7069(4) 0.7784(4) 0.7936(2)
C82_6 C 0.7605(5) 0.7527(5) 0.8411(3)
H49_6 H 0.7689 0.7786 0.8284
C83_6 C 0.7911(5) 0.7455(5) 0.8663(3)
O21_6 O 0.7850(3) 0.7072(3) 0.88273(17)
O22_6 O 0.7906(3) 0.5681(3) 0.89985(18)
C84_6 C 0.8159(5) 0.5393(5) 0.8841(3)
C85_6 C 0.8334 0.5001 0.9053
F25_6 F 0.8051(3) 0.4631(4) 0.9125(2)
F26_6 F 0.8624(4) 0.5115(3) 0.9264(2)
F27_6 F 0.8733(4) 0.4706(4) 0.8906(2)
C86_6 C 0.8240(5) 0.5389(5) 0.8551(3)
H50_6 H 0.8441 0.5136 0.8473
C87_6 C 0.8036(5) 0.5746(5) 0.8361(3)
O23_6 O 0.7752(3) 0.6094(3) 0.84543(16)
O24_6 O 0.6769(3) 0.5856(3) 0.92789(15)
O25_6 O 0.6571(3) 0.4590(3) 0.91067(17)
C88_6 C 0.6640(8) 0.4239(8) 0.9293(5)
C89_6 C 0.6993(8) 0.3839(8) 0.9222(4)
F28_6 F 0.7301(7) 0.3819(5) 0.9423(3)
F29_6 F 0.6740(3) 0.3438(5) 0.9258(3)
F30_6 F 0.7205(3) 0.3854(3) 0.8985(2)
C90_6 C 0.6580(7) 0.4298(7) 0.9609(4)
H51_6 H 0.6733 0.4087 0.9744
C91_6 C 0.6250(8) 0.4730(7) 0.9694(5)
O26_6 O 0.6057(3) 0.5097(3) 0.95655(17)
O27_6 O 0.5896(3) 0.5030(3) 0.85527(16)
C92_6 C 0.5524(6) 0.4860(6) 0.8433(4)
C93_6 C 0.5445 0.4875 0.8150
F31_6 F 0.5560(7) 0.5336(6) 0.8051(3)
F32_6 F 0.5748(5) 0.4541(4) 0.8013(3)
F33_6 F 0.5006(6) 0.4722(4) 0.8027(2)
C94_6 C 0.5185(7) 0.4526(8) 0.8581(5)
H52_6 H 0.4926 0.4380 0.8473
C95_6 C 0.5229(9) 0.4383(9) 0.8941(6)
O28_6 O 0.5470(4) 0.4642(3) 0.9096(2)
O29_6 O 0.5631(3) 0.5997(3) 0.93837(18)
C96_6 C 0.5266(8) 0.6158(8) 0.9471(5)
C97_6 C 0.5135(9) 0.6460(9) 0.9721(4)
F34_6 F 0.5422(5) 0.6828(5) 0.9729(2)
F35_6 F 0.4720(6) 0.6618(4) 0.9720(5)
F36_6 F 0.5205(7) 0.6101(8) 0.9929(3)
C98_6 C 0.4802(7) 0.6266(7) 0.9254(4)
H53_6 H 0.4526 0.6465 0.9301
C99_6 C 0.4876(7) 0.5985(7) 0.8941(4)
O30_6 O 0.5250(3) 0.5728(3) 0.8829(2)
N5_6 N 0.6909(4) 0.5781(4) 0.9559(2)
C105_6 C 0.6655(4) 0.5988(4) 0.9774(3)
H58_6 H 0.6371 0.6178 0.9731
C111_10 C 0.6975(5) 0.4811(4) 0.8432(2)
C112_10 C 0.6972(5) 0.4607(4) 0.8158(3)
H59_10 H 0.7027 0.4265 0.8129
H60_10 H 0.7035 0.4605 0.8592
H61_10 H 0.6752 0.5956 0.8292
H62_10 H 0.6715 0.5663 0.7826
C113_10 C 0.7069(5) 0.5007(4) 0.7391(3)
H63_10 H 0.7260 0.5293 0.7426
C114_10 C 0.6987(5) 0.4820(5) 0.7109(2)
H64_10 H 0.7126 0.4991 0.6952
H65_10 H 0.6427 0.4111 0.7711
C115_10 C 0.6371(6) 0.1962(6) 0.6212(3)
C116_10 C 0.6626(7) 0.2043(7) 0.5983(4)
H66_10 H 0.6857 0.2305 0.5973
C117_10 C 0.6543(7) 0.1722(7) 0.5748(4)
H67_10 H 0.6756 0.1724 0.5587
C118_10 C 0.6106(7) 0.1376(7) 0.5762(4)
C119_10 C 0.5838(6) 0.1317(6) 0.6025(4)
H68_10 H 0.5576 0.1088 0.6045
C120_10 C 0.5998(6) 0.1641(6) 0.6265(4)
H69_10 H 0.5846 0.1623 0.6447
C121_10 C 0.8492(6) 0.2359(6) 0.6572(3)
C122_10 C 0.8767(7) 0.2517(6) 0.6813(4)
H70_10 H 0.8735 0.2844 0.6880
C123_10 C 0.9090(6) 0.2184(9) 0.6952(4)
H71_10 H 0.9274 0.2289 0.7113
C124_10 C 0.9139(7) 0.1694(8) 0.6851(5)
H72_10 H 0.9355 0.1471 0.6944
C125_10 C 0.8864(8) 0.1536(5) 0.6610(5)
H73_10 H 0.8897 0.1209 0.6542
C126_10 C 0.8541(7) 0.1869(7) 0.6471(3)
H74_10 H 0.8357 0.1764 0.6310
C127_10 C 0.7821(5) 0.3671(5) 0.7539(3)
C128_10 C 0.8099(6) 0.3908(6) 0.7748(4)
H75_10 H 0.8322 0.4165 0.7700
C129_10 C 0.8035(6) 0.3751(6) 0.8035(4)
H76_10 H 0.8229 0.3907 0.8177
C130_10 C 0.7718(7) 0.3397(6) 0.8120(4)
H77_10 H 0.7684 0.3314 0.8315
C131_10 C 0.7435(6) 0.3152(6) 0.7905(4)
H78_10 H 0.7220 0.2890 0.7955
C132_10 C 0.7483(6) 0.3315(6) 0.7592(3)
H79_10 H 0.7287 0.3176 0.7445
C133_10 C 0.6774(5) 0.5660(5) 0.5546(3)
C134_10 C 0.6440(6) 0.5435(6) 0.5377(3)
H80_10 H 0.6198 0.5224 0.5458
C135_10 C 0.6452(6) 0.5518(6) 0.5061(3)
H81_10 H 0.6219 0.5361 0.4941
C136_10 C 0.6799(6) 0.5821(6) 0.4947(4)
H82_10 H 0.6802 0.5883 0.4748
C137_10 C 0.7139(6) 0.6033(6) 0.5119(4)
H83_10 H 0.7390 0.6232 0.5038
C138_10 C 0.7123(6) 0.5960(6) 0.5423(3)
H84_10 H 0.7357 0.6121 0.5541
C139_10 C 0.4687(5) 0.5819(5) 0.6235(3)
C140_10 C 0.4695(6) 0.5984(6) 0.6523(4)
H85_10 H 0.4940 0.5873 0.6652
C141_10 C 0.4336(7) 0.6308(7) 0.6608(4)
H86_10 H 0.4298 0.6383 0.6805
C142_10 C 0.4007(6) 0.6541(7) 0.6397(5)
H87_10 H 0.3795 0.6801 0.6453
C143_10 C 0.4011(6) 0.6384(6) 0.6130(4)
H88_10 H 0.3799 0.6531 0.5993
C144_10 C 0.4339(5) 0.5986(6) 0.6046(3)
H89_10 H 0.4313 0.5843 0.5862
C145_10 C 0.5777(8) 0.5707(6) 0.7257(3)
C146_10 C 0.6167(7) 0.6021(6) 0.7220(3)
H90_10 H 0.6379 0.5981 0.7061
C147_10 C 0.6250(7) 0.6392(7) 0.7409(4)
H91_10 H 0.6536 0.6590 0.7390
C148_10 C 0.5920(9) 0.6487(7) 0.7633(5)
H92_10 H 0.5981 0.6748 0.7764
C149_10 C 0.5494(11) 0.6189(9) 0.7663(5)
H93_10 H 0.5260 0.6265 0.7806
C150_10 C 0.5414(7) 0.5794(7) 0.7489(4)
H94_10 H 0.5137 0.5584 0.7514
H95_6 H 0.366726 0.650821 0.806916
H96_10 H 0.599179 0.116726 0.556916
loop_
_geom_bond_atom_site_label_1
_geom_bond_atom_site_label_2
_geom_bond_site_symmetry_1
_geom_bond_site_symmetry_2
F1 C1 1_555 1_555
F2 C1 1_555 1_555
F3 C1 1_555 1_555
H27 C47 1_555 1_555
C48 C47 1_555 1_555
H28 C48 1_555 1_555
C49 C48 1_555 1_555
H29 C49 1_555 1_555
C50 C45 1_555 1_555
H30 C50 1_555 1_555
C49 C50 1_555 1_555
H7 C13 1_555 1_555
C55 C56 1_555 1_555
C56 H32 1_555 1_555
C57 C56 1_555 1_555
H33 C57 1_555 1_555
C58 C57 1_555 1_555
C59 C58 1_555 1_555
H34 C59 1_555 1_555
C60 C55 1_555 1_555
H35 C60 1_555 1_555
C74 H46 1_555 1_555
C75 C74 1_555 1_555
H47 C75 1_555 1_555
H53 C98 1_555 1_555
C99 C55 1_555 1_555
C101 C100 1_555 1_555
C102 C101 1_555 1_555
N4 C75 1_555 1_555
O31 N4 1_555 1_555
La5 O31 1_555 1_555
La6 O31 1_555 1_555
H54 C102 1_555 1_555
H55 C101 1_555 1_555
C140 C139 1_555 1_555
H85 C140 1_555 1_555
C141 C140 1_555 1_555
H86 C141 1_555 1_555
C142 C141 1_555 1_555
H87 C142 1_555 1_555
C143 C142 1_555 1_555
H88 C143 1_555 1_555
C144 C139 1_555 1_555
H89 C144 1_555 1_555
C59 C60 1_555 1_555
C74 C100 1_555 1_555
C98 C99 1_555 1_555
C102 N4 1_555 1_555
C143 C144 1_555 1_555
C58 H95 1_555 1_555
La1 O1 1_555 1_555
La2 O7 1_555 1_555
F4 C11 1_555 1_555
F5 C11 1_555 1_555
F10 C31 1_555 1_555
F11 C31 1_555 1_555
F12 C31 1_555 1_555
F13 C41 1_555 1_555
F14 C41 1_555 1_555
F15 C41 1_555 1_555
F16 C51 1_555 1_555
F17 C51 1_555 1_555
F18 C51 1_555 1_555
O1 C2 1_555 1_555
O3 La1 1_555 1_555
O7 C32 1_555 1_555
O8 La2 1_555 1_555
O9 La2 1_555 1_555
O10 La2 1_555 1_555
O11 La2 1_555 1_555
O12 La2 1_555 1_555
O14 La1 1_555 1_555
N2 O14 1_555 1_555
C2 C3 1_555 1_555
C11 C12 1_555 1_555
C12 O3 1_555 1_555
C31 C32 1_555 1_555
C32 C33 1_555 1_555
C33 H19 1_555 1_555
C34 O8 1_555 1_555
C35 C36 1_555 1_555
C36 H20 1_555 1_555
C37 C36 1_555 1_555
H21 C37 1_555 1_555
C38 C37 1_555 1_555
H22 C38 1_555 1_555
C41 C42 1_555 1_555
C42 O9 1_555 1_555
C43 C42 1_555 1_555
H25 C43 1_555 1_555
C44 O10 1_555 1_555
C46 H26 1_555 1_555
C51 C52 1_555 1_555
C52 O11 1_555 1_555
C53 C52 1_555 1_555
H31 C53 1_555 1_555
C54 O12 1_555 1_555
C63 C66 1_555 1_555
C66 C70 1_555 1_555
C68 N2 1_555 1_555
H41 C68 1_555 1_555
C70 C68 1_555 1_555
O16 La1 1_555 1_555
O17 La1 1_555 1_555
C88 O25 1_555 1_555
C89 C88 1_555 1_555
F28 C89 1_555 1_555
F29 C89 1_555 1_555
F30 C89 1_555 1_555
C90 C88 1_555 1_555
H51 C90 1_555 1_555
C91 C35 1_555 1_555
C93 C92 1_555 1_555
F32 C93 1_555 1_555
F33 C93 1_555 1_555
C94 C92 1_555 1_555
C112 C63 1_555 1_555
H59 C112 1_555 1_555
H60 C111 1_555 1_555
C114 N2 1_555 1_555
H64 C114 1_555 1_555
H65 C70 1_555 1_555
C115 C54 1_555 1_555
C116 C115 1_555 1_555
H66 C116 1_555 1_555
C117 C116 1_555 1_555
H67 C117 1_555 1_555
C118 C117 1_555 1_555
C119 C118 1_555 1_555
H68 C119 1_555 1_555
C120 C115 1_555 1_555
H69 C120 1_555 1_555
C121 C44 1_555 1_555
C122 C121 1_555 1_555
H70 C122 1_555 1_555
C123 C122 1_555 1_555
H71 C123 1_555 1_555
C124 C123 1_555 1_555
H72 C124 1_555 1_555
C125 C124 1_555 1_555
H73 C125 1_555 1_555
C126 C121 1_555 1_555
H74 C126 1_555 1_555
C127 C34 1_555 1_555
C128 C127 1_555 1_555
H75 C128 1_555 1_555
C129 C128 1_555 1_555
H76 C129 1_555 1_555
C130 C129 1_555 1_555
H77 C130 1_555 1_555
C131 C130 1_555 1_555
H78 C131 1_555 1_555
C132 C127 1_555 1_555
H79 C132 1_555 1_555
La2 O17 1_555 1_555
La2 O14 1_555 1_555
La2 O16 1_555 1_555
C33 C34 1_555 1_555
C43 C44 1_555 1_555
C53 C54 1_555 1_555
C90 C91 1_555 1_555
C94 C95 1_555 1_555
C95 O28 1_555 1_555
C111 C112 1_555 1_555
C119 C120 1_555 1_555
C125 C126 1_555 1_555
C131 C132 1_555 1_555
C118 H96 1_555 1_555
H82 C136 1_555 1_555
F7 C21 1_555 1_555
F8 C21 1_555 1_555
F9 C21 1_555 1_555
O13 N1 1_555 1_555
O15 N3 1_555 1_555
N1 C61 1_555 1_555
N3 C71 1_555 1_555
C4 O2 1_555 1_555
C5 C6 1_555 1_555
C6 H2 1_555 1_555
C7 C6 1_555 1_555
H3 C7 1_555 1_555
C8 C7 1_555 1_555
H4 C8 1_555 1_555
C9 C8 1_555 1_555
H5 C9 1_555 1_555
C10 C5 1_555 1_555
H6 C10 1_555 1_555
C14 O4 1_555 1_555
C15 C16 1_555 1_555
C16 H8 1_555 1_555
C17 C16 1_555 1_555
H9 C17 1_555 1_555
C18 C17 1_555 1_555
H10 C18 1_555 1_555
C19 C18 1_555 1_555
H11 C19 1_555 1_555
C20 C15 1_555 1_555
H12 C20 1_555 1_555
C21 C22 1_555 1_555
C22 O5 1_555 1_555
C23 C22 1_555 1_555
H13 C23 1_555 1_555
C24 O6 1_555 1_555
C25 C26 1_555 1_555
C26 H14 1_555 1_555
C27 C26 1_555 1_555
H15 C27 1_555 1_555
C28 C27 1_555 1_555
H16 C28 1_555 1_555
C29 C28 1_555 1_555
H17 C29 1_555 1_555
C30 C25 1_555 1_555
H18 C30 1_555 1_555
H23 C39 1_555 1_555
H24 C40 1_555 1_555
C61 C62 1_555 1_555
H36 C110 1_555 1_555
H37 C109 1_555 1_555
C64 H38 1_555 1_555
C65 C64 1_555 1_555
H39 C65 1_555 1_555
C67 H40 1_555 1_555
C69 C67 1_555 1_555
H42 C69 1_555 1_555
H43 C106 1_555 1_555
C71 H44 1_555 1_555
C72 C71 1_555 1_555
H45 C72 1_555 1_555
C73 C72 1_555 1_555
La3 O13 1_555 1_555
O18 La3 1_555 1_555
C76 O18 1_555 1_555
C77 C76 1_555 1_555
F19 C77 1_555 1_555
F20 C77 1_555 1_555
F21 C77 1_555 1_555
C78 C76 1_555 1_555
H48 C78 1_555 1_555
C79 C5 1_555 1_555
O19 La3 1_555 1_555
O20 La3 1_555 1_555
C80 O20 1_555 1_555
C81 C80 1_555 1_555
F22 C81 1_555 1_555
F23 C81 1_555 1_555
F24 C81 1_555 1_555
C82 C80 1_555 1_555
H49 C82 1_555 1_555
C83 C15 1_555 1_555
O21 La3 1_555 1_555
O22 La3 1_555 1_555
C84 O22 1_555 1_555
C85 C84 1_555 1_555
F26 C85 1_555 1_555
C86 C84 1_555 1_555
H50 C86 1_555 1_555
C87 C25 1_555 1_555
O23 La3 1_555 1_555
O24 La3 1_555 1_555
La4 O13 1_555 1_555
O26 La4 1_555 1_555
O27 La4 1_555 1_555
O29 La4 1_555 1_555
C96 O29 1_555 1_555
C97 C96 1_555 1_555
F34 C97 1_555 1_555
F36 C97 1_555 1_555
O30 La4 1_555 1_555
C103 C73 1_555 1_555
H56 C103 1_555 1_555
C104 N3 1_555 1_555
H57 C104 1_555 1_555
N5 C69 1_555 1_555
C105 N5 1_555 1_555
H58 C105 1_555 1_555
C106 C105 1_555 1_555
C107 C67 1_555 1_555
C108 C64 1_555 1_555
C109 C108 1_555 1_555
C110 C109 1_555 1_555
N6 C65 1_555 1_555
O32 N6 1_555 1_555
La7 O32 1_555 1_555
La8 O32 1_555 1_555
H61 C61 1_555 1_555
H62 C62 1_555 1_555
H63 C113 1_555 1_555
C133 C24 1_555 1_555
C134 C133 1_555 1_555
H80 C134 1_555 1_555
C135 C134 1_555 1_555
H83 C137 1_555 1_555
C138 C133 1_555 1_555
H84 C138 1_555 1_555
C145 C4 1_555 1_555
C146 C145 1_555 1_555
H90 C146 1_555 1_555
C147 C146 1_555 1_555
H91 C147 1_555 1_555
C148 C147 1_555 1_555
H92 C148 1_555 1_555
C149 C148 1_555 1_555
H93 C149 1_555 1_555
C150 C145 1_555 1_555
H94 C150 1_555 1_555
O15 La4 1_555 1_555
O15 La3 1_555 1_555
C9 C10 1_555 1_555
C19 C20 1_555 1_555
C23 C24 1_555 1_555
C29 C30 1_555 1_555
C39 C40 1_555 1_555
C78 C79 1_555 1_555
C79 O19 1_555 1_555
C82 C83 1_555 1_555
C83 O21 1_555 1_555
C86 C87 1_555 1_555
C87 O23 1_555 1_555
O24 La4 1_555 1_555
O24 N5 1_555 1_555
C103 C104 1_555 1_555
C106 C107 1_555 1_555
C107 C108 1_555 1_555
C110 N6 1_555 1_555
C137 C138 1_555 1_555
C149 C150 1_555 1_555
C74_2 H46_2 1_555 1_555
C75_2 C74_2 1_555 1_555
H47_2 C75_2 1_555 1_555
C101_2 C100_2 1_555 1_555
C102_2 C101_2 1_555 1_555
N4_2 C75_2 1_555 1_555
O31_2 N4_2 1_555 1_555
La5_2 O31_2 1_555 1_555
La6_2 O31_2 1_555 1_555
H54_2 C102_2 1_555 1_555
H55_2 C101_2 1_555 1_555
C74_2 C100_2 1_555 1_555
C102_2 N4_2 1_555 1_555
La1_2 O1_2 1_555 1_555
F1_2 C1_2 1_555 1_555
F2_2 C1_2 1_555 1_555
F3_2 C1_2 1_555 1_555
F4_2 C11_2 1_555 1_555
F5_2 C11_2 1_555 1_555
F6_2 C11_2 1_555 1_555
F8_2 C21_2 1_555 1_555
F16_2 C51_2 1_555 1_555
F17_2 C51_2 1_555 1_555
F18_2 C51_2 1_555 1_555
O1_2 C2_2 1_555 1_555
O2_2 La1_2 1_555 1_555
O3_2 La1_2 1_555 1_555
O4_2 La1_2 1_555 1_555
O5_2 La1_2 1_555 1_555
O6_2 La1_2 1_555 1_555
O8_2 La2_2 1_555 1_555
O9_2 La2_2 1_555 1_555
O11_2 La2_2 1_555 1_555
O12_2 La2_2 1_555 1_555
O14_2 La1_2 1_555 1_555
N2_2 O14_2 1_555 1_555
C1_2 C2_2 1_555 1_555
C2_2 C3_2 1_555 1_555
C3_2 H1_2 1_555 1_555
C4_2 O2_2 1_555 1_555
C11_2 C12_2 1_555 1_555
C12_2 O3_2 1_555 1_555
C13_2 C12_2 1_555 1_555
H7_2 C13_2 1_555 1_555
C14_2 O4_2 1_555 1_555
C21_2 C22_2 1_555 1_555
C22_2 O5_2 1_555 1_555
C23_2 C22_2 1_555 1_555
H13_2 C23_2 1_555 1_555
C24_2 O6_2 1_555 1_555
C51_2 C52_2 1_555 1_555
C52_2 O11_2 1_555 1_555
C53_2 C52_2 1_555 1_555
H31_2 C53_2 1_555 1_555
C54_2 O12_2 1_555 1_555
C68_2 N2_2 1_555 1_555
H41_2 C68_2 1_555 1_555
O16_2 La1_2 1_555 1_555
O17_2 La1_2 1_555 1_555
H63_2 C113_2 1_555 1_555
C114_2 N2_2 1_555 1_555
H64_2 C114_2 1_555 1_555
C115_2 C54_2 1_555 1_555
C116_2 C115_2 1_555 1_555
H66_2 C116_2 1_555 1_555
C117_2 C116_2 1_555 1_555
H67_2 C117_2 1_555 1_555
C118_2 C117_2 1_555 1_555
C119_2 C118_2 1_555 1_555
H68_2 C119_2 1_555 1_555
C120_2 C115_2 1_555 1_555
H69_2 C120_2 1_555 1_555
C133_2 C24_2 1_555 1_555
C134_2 C133_2 1_555 1_555
H80_2 C134_2 1_555 1_555
C135_2 C134_2 1_555 1_555
H81_2 C135_2 1_555 1_555
C136_2 C135_2 1_555 1_555
H82_2 C136_2 1_555 1_555
C137_2 C136_2 1_555 1_555
H83_2 C137_2 1_555 1_555
C138_2 C133_2 1_555 1_555
H84_2 C138_2 1_555 1_555
C139_2 C14_2 1_555 1_555
C140_2 C139_2 1_555 1_555
H85_2 C140_2 1_555 1_555
C141_2 C140_2 1_555 1_555
H86_2 C141_2 1_555 1_555
C142_2 C141_2 1_555 1_555
H87_2 C142_2 1_555 1_555
C143_2 C142_2 1_555 1_555
H88_2 C143_2 1_555 1_555
C144_2 C139_2 1_555 1_555
H89_2 C144_2 1_555 1_555
C145_2 C4_2 1_555 1_555
C146_2 C145_2 1_555 1_555
H90_2 C146_2 1_555 1_555
C147_2 C146_2 1_555 1_555
H91_2 C147_2 1_555 1_555
C150_2 C145_2 1_555 1_555
La2_2 O17_2 1_555 1_555
La2_2 O14_2 1_555 1_555
La2_2 O16_2 1_555 1_555
C3_2 C4_2 1_555 1_555
C13_2 C14_2 1_555 1_555
C23_2 C24_2 1_555 1_555
C53_2 C54_2 1_555 1_555
C113_2 C114_2 1_555 1_555
C119_2 C120_2 1_555 1_555
C137_2 C138_2 1_555 1_555
C143_2 C144_2 1_555 1_555
C118_2 H96_2 1_555 1_555
O17 N1_2 1_555 1_555
O16 N3_2 1_555 1_555
N1_2 C61_2 1_555 1_555
N3_2 C71_2 1_555 1_555
C61_2 C62_2 1_555 1_555
C62_2 C63_2 1_555 1_555
C63_2 C66_2 1_555 1_555
C66_2 C70_2 1_555 1_555
C71_2 H44_2 1_555 1_555
C72_2 C71_2 1_555 1_555
H45_2 C72_2 1_555 1_555
C73_2 C72_2 1_555 1_555
C103_2 C73_2 1_555 1_555
H56_2 C103_2 1_555 1_555
C104_2 N3_2 1_555 1_555
H57_2 C104_2 1_555 1_555
C111_2 N1_2 1_555 1_555
C112_2 C63_2 1_555 1_555
H59_2 C112_2 1_555 1_555
H60_2 C111_2 1_555 1_555
H61_2 C61_2 1_555 1_555
H62_2 C62_2 1_555 1_555
H65_2 C70_2 1_555 1_555
H78_2 C131_2 1_555 1_555
H92_2 C148_2 1_555 1_555
C149_2 C148_2 1_555 1_555
H93_2 C149_2 1_555 1_555
C103_2 C104_2 1_555 1_555
C111_2 C112_2 1_555 1_555
C131_2 C132_2 1_555 1_555
F10_2 C31_2 1_555 1_555
F11_2 C31_2 1_555 1_555
F12_2 C31_2 1_555 1_555
F14_2 C41_2 1_555 1_555
F15_2 C41_2 1_555 1_555
O7_2 C32_2 1_555 1_555
C31_2 C32_2 1_555 1_555
C32_2 C33_2 1_555 1_555
C33_2 H19_2 1_555 1_555
C41_2 C42_2 1_555 1_555
C43_2 C42_2 1_555 1_555
H25_2 C43_2 1_555 1_555
C44_2 O10_2 1_555 1_555
C121_2 C44_2 1_555 1_555
C122_2 C121_2 1_555 1_555
H70_2 C122_2 1_555 1_555
C123_2 C122_2 1_555 1_555
H71_2 C123_2 1_555 1_555
C124_2 C123_2 1_555 1_555
H72_2 C124_2 1_555 1_555
C125_2 C124_2 1_555 1_555
H73_2 C125_2 1_555 1_555
C126_2 C121_2 1_555 1_555
H74_2 C126_2 1_555 1_555
C33_2 C34_2 1_555 1_555
C43_2 C44_2 1_555 1_555
C125_2 C126_2 1_555 1_555
C128_2 C127_2 1_555 1_555
H75_2 C128_2 1_555 1_555
C129_2 C128_2 1_555 1_555
H76_2 C129_2 1_555 1_555
C130_2 C129_2 1_555 1_555
H77_2 C130_2 1_555 1_555
La1_3 O1_3 1_555 1_555
La2_3 O7_3 1_555 1_555
F1_3 C1_3 1_555 1_555
F2_3 C1_3 1_555 1_555
F3_3 C1_3 1_555 1_555
F4_3 C11_3 1_555 1_555
F5_3 C11_3 1_555 1_555
F6_3 C11_3 1_555 1_555
F7_3 C21_3 1_555 1_555
F8_3 C21_3 1_555 1_555
F9_3 C21_3 1_555 1_555
F10_3 C31_3 1_555 1_555
F11_3 C31_3 1_555 1_555
F12_3 C31_3 1_555 1_555
F13_3 C41_3 1_555 1_555
F14_3 C41_3 1_555 1_555
F15_3 C41_3 1_555 1_555
F16_3 C51_3 1_555 1_555
F17_3 C51_3 1_555 1_555
F18_3 C51_3 1_555 1_555
O1_3 C2_3 1_555 1_555
O2_3 La1_3 1_555 1_555
O3_3 La1_3 1_555 1_555
O4_3 La1_3 1_555 1_555
O5_3 La1_3 1_555 1_555
O6_3 La1_3 1_555 1_555
O7_3 C32_3 1_555 1_555
O8_3 La2_3 1_555 1_555
O9_3 La2_3 1_555 1_555
O10_3 La2_3 1_555 1_555
O11_3 La2_3 1_555 1_555
O12_3 La2_3 1_555 1_555
O13_2 N1_3 1_555 1_555
O14_3 La1_3 1_555 1_555
O15_2 N3_3 1_555 1_555
N1_3 C61_3 1_555 1_555
N2_3 O14_3 1_555 1_555
N3_3 C71_3 1_555 1_555
C1_3 C2_3 1_555 1_555
C2_3 C3_3 1_555 1_555
C3_3 H1_3 1_555 1_555
C4_3 O2_3 1_555 1_555
C5_2 C6_2 1_555 1_555
C6_2 H2_2 1_555 1_555
C7_2 C6_2 1_555 1_555
H3_2 C7_2 1_555 1_555
C10_2 C5_2 1_555 1_555
C11_3 C12_3 1_555 1_555
C12_3 O3_3 1_555 1_555
C13_3 C12_3 1_555 1_555
H7_3 C13_3 1_555 1_555
C14_3 O4_3 1_555 1_555
C15_2 C16_2 1_555 1_555
C16_2 H8_2 1_555 1_555
C17_2 C16_2 1_555 1_555
H9_2 C17_2 1_555 1_555
C18_2 C17_2 1_555 1_555
H10_2 C18_2 1_555 1_555
C19_2 C18_2 1_555 1_555
H11_2 C19_2 1_555 1_555
C20_2 C15_2 1_555 1_555
H12_2 C20_2 1_555 1_555
C21_3 C22_3 1_555 1_555
C22_3 O5_3 1_555 1_555
C23_3 C22_3 1_555 1_555
H13_3 C23_3 1_555 1_555
C24_3 O6_3 1_555 1_555
C25_2 C26_2 1_555 1_555
C26_2 H14_2 1_555 1_555
C27_2 C26_2 1_555 1_555
H15_2 C27_2 1_555 1_555
C28_2 C27_2 1_555 1_555
H16_2 C28_2 1_555 1_555
C29_2 C28_2 1_555 1_555
H17_2 C29_2 1_555 1_555
C30_2 C25_2 1_555 1_555
H18_2 C30_2 1_555 1_555
C31_3 C32_3 1_555 1_555
C32_3 C33_3 1_555 1_555
C33_3 H19_3 1_555 1_555
C34_3 O8_3 1_555 1_555
C41_3 C42_3 1_555 1_555
C42_3 O9_3 1_555 1_555
C43_3 C42_3 1_555 1_555
H25_3 C43_3 1_555 1_555
C44_3 O10_3 1_555 1_555
C45_2 C46_2 1_555 1_555
C46_2 H26_2 1_555 1_555
C47_2 C46_2 1_555 1_555
H27_2 C47_2 1_555 1_555
C48_2 C47_2 1_555 1_555
H28_2 C48_2 1_555 1_555
C49_2 C48_2 1_555 1_555
H29_2 C49_2 1_555 1_555
C50_2 C45_2 1_555 1_555
H30_2 C50_2 1_555 1_555
C51_3 C52_3 1_555 1_555
C52_3 O11_3 1_555 1_555
C53_3 C52_3 1_555 1_555
H31_3 C53_3 1_555 1_555
C54_3 O12_3 1_555 1_555
C55_2 C56_2 1_555 1_555
C56_2 H32_2 1_555 1_555
C57_2 C56_2 1_555 1_555
H33_2 C57_2 1_555 1_555
C58_2 C57_2 1_555 1_555
C59_2 C58_2 1_555 1_555
H34_2 C59_2 1_555 1_555
C60_2 C55_2 1_555 1_555
H35_2 C60_2 1_555 1_555
C61_3 C62_3 1_555 1_555
C62_3 C63_3 1_555 1_555
C63_3 C66_3 1_555 1_555
C66_3 C70_3 1_555 1_555
C67_2 H40_2 1_555 1_555
C68_3 N2_3 1_555 1_555
H41_3 C68_3 1_555 1_555
C69_2 C67_2 1_555 1_555
H42_2 C69_2 1_555 1_555
C70_3 C68_3 1_555 1_555
C71_3 H44_3 1_555 1_555
C72_3 C71_3 1_555 1_555
H45_3 C72_3 1_555 1_555
C73_3 C72_3 1_555 1_555
C74_3 H46_3 1_555 1_555
C75_3 C74_3 1_555 1_555
H47_3 C75_3 1_555 1_555
O16_3 La1_3 1_555 1_555
O17_3 La1_3 1_555 1_555
La3_2 O13_2 1_555 1_555
O18_2 La3_2 1_555 1_555
C76_2 O18_2 1_555 1_555
C77_2 C76_2 1_555 1_555
F19_2 C77_2 1_555 1_555
F20_2 C77_2 1_555 1_555
F21_2 C77_2 1_555 1_555
C78_2 C76_2 1_555 1_555
H48_2 C78_2 1_555 1_555
C79_2 C5_2 1_555 1_555
O19_2 La3_2 1_555 1_555
O20_2 La3_2 1_555 1_555
C80_2 O20_2 1_555 1_555
C81_2 C80_2 1_555 1_555
F22_2 C81_2 1_555 1_555
F23_2 C81_2 1_555 1_555
F24_2 C81_2 1_555 1_555
C82_2 C80_2 1_555 1_555
H49_2 C82_2 1_555 1_555
C83_2 C15_2 1_555 1_555
O21_2 La3_2 1_555 1_555
O22_2 La3_2 1_555 1_555
C84_2 O22_2 1_555 1_555
C85_2 C84_2 1_555 1_555
F25_2 C85_2 1_555 1_555
F26_2 C85_2 1_555 1_555
F27_2 C85_2 1_555 1_555
C86_2 C84_2 1_555 1_555
H50_2 C86_2 1_555 1_555
C87_2 C25_2 1_555 1_555
O23_2 La3_2 1_555 1_555
O24_2 La3_2 1_555 1_555
La4_2 O13_2 1_555 1_555
O25_2 La4_2 1_555 1_555
C88_2 O25_2 1_555 1_555
C89_2 C88_2 1_555 1_555
F28_2 C89_2 1_555 1_555
F29_2 C89_2 1_555 1_555
F30_2 C89_2 1_555 1_555
C90_2 C88_2 1_555 1_555
H51_2 C90_2 1_555 1_555
O26_2 La4_2 1_555 1_555
O27_2 La4_2 1_555 1_555
C92_2 O27_2 1_555 1_555
C93_2 C92_2 1_555 1_555
F31_2 C93_2 1_555 1_555
F32_2 C93_2 1_555 1_555
F33_2 C93_2 1_555 1_555
C94_2 C92_2 1_555 1_555
H52_2 C94_2 1_555 1_555
C95_2 C45_2 1_555 1_555
O28_2 La4_2 1_555 1_555
O29_2 La4_2 1_555 1_555
C96_2 O29_2 1_555 1_555
C97_2 C96_2 1_555 1_555
F34_2 C97_2 1_555 1_555
F35_2 C97_2 1_555 1_555
F36_2 C97_2 1_555 1_555
C98_2 C96_2 1_555 1_555
H53_2 C98_2 1_555 1_555
C99_2 C55_2 1_555 1_555
O30_2 La4_2 1_555 1_555
C100_3 C73_3 1_555 1_555
C101_3 C100_3 1_555 1_555
C102_3 C101_3 1_555 1_555
N4_3 C75_3 1_555 1_555
O16_2 N4_3 1_555 1_555
H54_3 C102_3 1_555 1_555
H55_3 C101_3 1_555 1_555
C103_3 C73_3 1_555 1_555
H56_3 C103_3 1_555 1_555
C104_3 N3_3 1_555 1_555
H57_3 C104_3 1_555 1_555
N5_2 C69_2 1_555 1_555
C105_2 N5_2 1_555 1_555
H58_2 C105_2 1_555 1_555
C111_3 N1_3 1_555 1_555
C112_3 C63_3 1_555 1_555
H59_3 C112_3 1_555 1_555
H60_3 C111_3 1_555 1_555
H61_3 C61_3 1_555 1_555
H62_3 C62_3 1_555 1_555
C113_3 C66_3 1_555 1_555
H63_3 C113_3 1_555 1_555
C114_3 N2_3 1_555 1_555
H64_3 C114_3 1_555 1_555
H65_3 C70_3 1_555 1_555
C115_3 C54_3 1_555 1_555
C116_3 C115_3 1_555 1_555
H66_3 C116_3 1_555 1_555
C117_3 C116_3 1_555 1_555
H67_3 C117_3 1_555 1_555
C118_3 C117_3 1_555 1_555
C119_3 C118_3 1_555 1_555
H68_3 C119_3 1_555 1_555
C120_3 C115_3 1_555 1_555
H69_3 C120_3 1_555 1_555
C121_3 C44_3 1_555 1_555
C122_3 C121_3 1_555 1_555
H70_3 C122_3 1_555 1_555
C123_3 C122_3 1_555 1_555
H71_3 C123_3 1_555 1_555
C124_3 C123_3 1_555 1_555
H72_3 C124_3 1_555 1_555
C125_3 C124_3 1_555 1_555
H73_3 C125_3 1_555 1_555
C126_3 C121_3 1_555 1_555
H74_3 C126_3 1_555 1_555
C127_3 C34_3 1_555 1_555
C128_3 C127_3 1_555 1_555
H75_3 C128_3 1_555 1_555
C129_3 C128_3 1_555 1_555
H76_3 C129_3 1_555 1_555
C130_3 C129_3 1_555 1_555
H77_3 C130_3 1_555 1_555
C131_3 C130_3 1_555 1_555
H78_3 C131_3 1_555 1_555
C132_3 C127_3 1_555 1_555
H79_3 C132_3 1_555 1_555
C133_3 C24_3 1_555 1_555
C134_3 C133_3 1_555 1_555
H80_3 C134_3 1_555 1_555
C135_3 C134_3 1_555 1_555
H81_3 C135_3 1_555 1_555
C136_3 C135_3 1_555 1_555
H82_3 C136_3 1_555 1_555
C137_3 C136_3 1_555 1_555
H83_3 C137_3 1_555 1_555
C138_3 C133_3 1_555 1_555
H84_3 C138_3 1_555 1_555
C139_3 C14_3 1_555 1_555
C140_3 C139_3 1_555 1_555
H85_3 C140_3 1_555 1_555
C141_3 C140_3 1_555 1_555
H86_3 C141_3 1_555 1_555
C142_3 C141_3 1_555 1_555
H87_3 C142_3 1_555 1_555
C143_3 C142_3 1_555 1_555
H88_3 C143_3 1_555 1_555
C144_3 C139_3 1_555 1_555
H89_3 C144_3 1_555 1_555
C145_3 C4_3 1_555 1_555
C146_3 C145_3 1_555 1_555
H90_3 C146_3 1_555 1_555
C147_3 C146_3 1_555 1_555
H91_3 C147_3 1_555 1_555
C148_3 C147_3 1_555 1_555
H92_3 C148_3 1_555 1_555
C149_3 C148_3 1_555 1_555
H93_3 C149_3 1_555 1_555
C150_3 C145_3 1_555 1_555
H94_3 C150_3 1_555 1_555
La2_3 O17_3 1_555 1_555
La2_3 O14_3 1_555 1_555
La2_3 O16_3 1_555 1_555
O15_2 La4_2 1_555 1_555
O15_2 La3_2 1_555 1_555
C3_3 C4_3 1_555 1_555
C13_3 C14_3 1_555 1_555
C19_2 C20_2 1_555 1_555
C23_3 C24_3 1_555 1_555
C29_2 C30_2 1_555 1_555
C33_3 C34_3 1_555 1_555
C43_3 C44_3 1_555 1_555
C49_2 C50_2 1_555 1_555
C53_3 C54_3 1_555 1_555
C59_2 C60_2 1_555 1_555
C74_3 C100_3 1_555 1_555
C78_2 C79_2 1_555 1_555
C79_2 O19_2 1_555 1_555
C82_2 C83_2 1_555 1_555
C83_2 O21_2 1_555 1_555
C86_2 C87_2 1_555 1_555
C87_2 O23_2 1_555 1_555
O24_2 La4_2 1_555 1_555
O24_2 N5_2 1_555 1_555
C90_2 C91_2 1_555 1_555
C91_2 O26_2 1_555 1_555
C94_2 C95_2 1_555 1_555
C95_2 O28_2 1_555 1_555
C98_2 C99_2 1_555 1_555
C99_2 O30_2 1_555 1_555
C102_3 N4_3 1_555 1_555
C103_3 C104_3 1_555 1_555
C111_3 C112_3 1_555 1_555
C113_3 C114_3 1_555 1_555
C119_3 C120_3 1_555 1_555
C125_3 C126_3 1_555 1_555
C131_3 C132_3 1_555 1_555
C137_3 C138_3 1_555 1_555
C143_3 C144_3 1_555 1_555
C149_3 C150_3 1_555 1_555
C58_2 H95_2 1_555 1_555
C118_3 H96_3 1_555 1_555
H4_2 C8_2 1_555 1_555
C9_2 C8_2 1_555 1_555
H5_2 C9_2 1_555 1_555
C35_2 C36_2 1_555 1_555
C36_2 H20_2 1_555 1_555
C37_2 C36_2 1_555 1_555
H21_2 C37_2 1_555 1_555
C38_2 C37_2 1_555 1_555
H22_2 C38_2 1_555 1_555
C39_2 C38_2 1_555 1_555
H23_2 C39_2 1_555 1_555
C40_2 C35_2 1_555 1_555
H36_2 C110_2 1_555 1_555
H37_2 C109_2 1_555 1_555
C64_2 H38_2 1_555 1_555
C65_2 C64_2 1_555 1_555
H39_2 C65_2 1_555 1_555
H43_2 C106_2 1_555 1_555
C108_2 C64_2 1_555 1_555
C109_2 C108_2 1_555 1_555
C110_2 C109_2 1_555 1_555
N6_2 C65_2 1_555 1_555
O32_2 N6_2 1_555 1_555
La5_2 O32_2 1_555 1_555
La6_2 O32_2 1_555 1_555
C39_2 C40_2 1_555 1_555
C106_2 C107_2 1_555 1_555
C107_2 C108_2 1_555 1_555
C110_2 N6_2 1_555 1_555
La5 O1_4 1_555 1_555
La6 O7_4 1_555 1_555
F1_4 C1_4 1_555 1_555
F2_4 C1_4 1_555 1_555
F3_4 C1_4 1_555 1_555
F4_4 C11_4 1_555 1_555
F5_4 C11_4 1_555 1_555
F6_4 C11_4 1_555 1_555
F7_4 C21_4 1_555 1_555
F8_4 C21_4 1_555 1_555
F9_4 C21_4 1_555 1_555
F10_4 C31_4 1_555 1_555
F11_4 C31_4 1_555 1_555
F12_4 C31_4 1_555 1_555
F13_4 C41_4 1_555 1_555
F14_4 C41_4 1_555 1_555
F15_4 C41_4 1_555 1_555
F16_4 C51_4 1_555 1_555
F18_4 C51_4 1_555 1_555
O1_4 C2_4 1_555 1_555
O2_4 La5 1_555 1_555
O3_4 La5 1_555 1_555
O4_4 La5 1_555 1_555
O5_4 La5 1_555 1_555
O6_4 La5 1_555 1_555
O7_4 C32_4 1_555 1_555
O8_4 La6 1_555 1_555
O9_4 La6 1_555 1_555
O10_4 La6 1_555 1_555
O11_4 La6 1_555 1_555
O12_4 La6 1_555 1_555
O17_3 N1_4 1_555 1_555
O14_4 La5 1_555 1_555
O16_3 N3_4 1_555 1_555
N1_4 C61_4 1_555 1_555
N2_4 O14_4 1_555 1_555
N3_4 C71_4 1_555 1_555
C1_4 C2_4 1_555 1_555
C2_4 C3_4 1_555 1_555
C3_4 H1_4 1_555 1_555
C4_4 O2_4 1_555 1_555
C11_4 C12_4 1_555 1_555
C12_4 O3_4 1_555 1_555
C13_4 C12_4 1_555 1_555
H7_4 C13_4 1_555 1_555
C14_4 O4_4 1_555 1_555
C21_4 C22_4 1_555 1_555
C22_4 O5_4 1_555 1_555
C23_4 C22_4 1_555 1_555
H13_4 C23_4 1_555 1_555
C24_4 O6_4 1_555 1_555
C31_4 C32_4 1_555 1_555
C32_4 C33_4 1_555 1_555
C33_4 H19_4 1_555 1_555
C34_4 O8_4 1_555 1_555
C41_4 C42_4 1_555 1_555
C42_4 O9_4 1_555 1_555
C43_4 C42_4 1_555 1_555
C44_4 O10_4 1_555 1_555
C51_4 C52_4 1_555 1_555
C52_4 O11_4 1_555 1_555
C61_4 C62_4 1_555 1_555
C62_4 C63_4 1_555 1_555
C63_4 C66_4 1_555 1_555
C66_4 C70_4 1_555 1_555
C68_4 N2_4 1_555 1_555
H41_4 C68_4 1_555 1_555
C70_4 C68_4 1_555 1_555
C71_4 H44_4 1_555 1_555
C72_4 C71_4 1_555 1_555
H45_4 C72_4 1_555 1_555
C73_4 C72_4 1_555 1_555
C74_4 H46_4 1_555 1_555
C75_4 C74_4 1_555 1_555
H47_4 C75_4 1_555 1_555
O17_4 La5 1_555 1_555
C100_4 C73_4 1_555 1_555
C101_4 C100_4 1_555 1_555
C102_4 C101_4 1_555 1_555
N4_4 C75_4 1_555 1_555
O31_3 N4_4 1_555 1_555
La7 O31_3 1_555 1_555
La8 O31_3 1_555 1_555
H54_4 C102_4 1_555 1_555
H55_4 C101_4 1_555 1_555
C103_4 C73_4 1_555 1_555
H56_4 C103_4 1_555 1_555
C104_4 N3_4 1_555 1_555
H57_4 C104_4 1_555 1_555
C111_4 N1_4 1_555 1_555
C112_4 C63_4 1_555 1_555
H59_4 C112_4 1_555 1_555
H60_4 C111_4 1_555 1_555
H61_4 C61_4 1_555 1_555
H62_4 C62_4 1_555 1_555
C113_4 C66_4 1_555 1_555
H63_4 C113_4 1_555 1_555
C114_4 N2_4 1_555 1_555
H64_4 C114_4 1_555 1_555
H65_4 C70_4 1_555 1_555
H70_4 C122_4 1_555 1_555
C127_4 C34_4 1_555 1_555
C128_4 C127_4 1_555 1_555
H75_4 C128_4 1_555 1_555
C129_4 C128_4 1_555 1_555
H76_4 C129_4 1_555 1_555
C130_4 C129_4 1_555 1_555
H77_4 C130_4 1_555 1_555
C131_4 C130_4 1_555 1_555
H78_4 C131_4 1_555 1_555
C132_4 C127_4 1_555 1_555
H79_4 C132_4 1_555 1_555
C133_4 C24_4 1_555 1_555
C134_4 C133_4 1_555 1_555
H80_4 C134_4 1_555 1_555
C135_4 C134_4 1_555 1_555
H81_4 C135_4 1_555 1_555
C136_4 C135_4 1_555 1_555
H82_4 C136_4 1_555 1_555
C137_4 C136_4 1_555 1_555
H83_4 C137_4 1_555 1_555
C138_4 C133_4 1_555 1_555
H84_4 C138_4 1_555 1_555
C139_4 C14_4 1_555 1_555
C140_4 C139_4 1_555 1_555
H85_4 C140_4 1_555 1_555
C141_4 C140_4 1_555 1_555
H86_4 C141_4 1_555 1_555
C142_4 C141_4 1_555 1_555
H87_4 C142_4 1_555 1_555
C143_4 C142_4 1_555 1_555
H88_4 C143_4 1_555 1_555
C144_4 C139_4 1_555 1_555
H89_4 C144_4 1_555 1_555
C145_4 C4_4 1_555 1_555
C146_4 C145_4 1_555 1_555
H90_4 C146_4 1_555 1_555
C147_4 C146_4 1_555 1_555
H91_4 C147_4 1_555 1_555
C148_4 C147_4 1_555 1_555
H92_4 C148_4 1_555 1_555
C149_4 C148_4 1_555 1_555
H93_4 C149_4 1_555 1_555
C150_4 C145_4 1_555 1_555
H94_4 C150_4 1_555 1_555
La6 O17_4 1_555 1_555
La6 O14_4 1_555 1_555
C3_4 C4_4 1_555 1_555
C13_4 C14_4 1_555 1_555
C23_4 C24_4 1_555 1_555
C33_4 C34_4 1_555 1_555
C43_4 C44_4 1_555 1_555
C74_4 C100_4 1_555 1_555
C102_4 N4_4 1_555 1_555
C103_4 C104_4 1_555 1_555
C111_4 C112_4 1_555 1_555
C113_4 C114_4 1_555 1_555
C131_4 C132_4 1_555 1_555
C137_4 C138_4 1_555 1_555
C143_4 C144_4 1_555 1_555
C149_4 C150_4 1_555 1_555
H31_4 C53_4 1_555 1_555
C115_4 C54_4 1_555 1_555
C116_4 C115_4 1_555 1_555
H66_4 C116_4 1_555 1_555
C117_4 C116_4 1_555 1_555
H67_4 C117_4 1_555 1_555
C118_4 C117_4 1_555 1_555
C119_4 C118_4 1_555 1_555
H68_4 C119_4 1_555 1_555
C120_4 C115_4 1_555 1_555
H69_4 C120_4 1_555 1_555
H71_4 C123_4 1_555 1_555
C124_4 C123_4 1_555 1_555
H72_4 C124_4 1_555 1_555
C125_4 C124_4 1_555 1_555
H73_4 C125_4 1_555 1_555
C126_4 C121_4 1_555 1_555
H74_4 C126_4 1_555 1_555
C53_4 C54_4 1_555 1_555
C119_4 C120_4 1_555 1_555
C125_4 C126_4 1_555 1_555
C118_4 H96_4 1_555 1_555
H16_3 C28_3 1_555 1_555
C5_3 C6_3 1_555 1_555
C6_3 H2_3 1_555 1_555
C7_3 C6_3 1_555 1_555
H3_3 C7_3 1_555 1_555
C8_3 C7_3 1_555 1_555
H4_3 C8_3 1_555 1_555
C9_3 C8_3 1_555 1_555
H5_3 C9_3 1_555 1_555
C10_3 C5_3 1_555 1_555
H6_3 C10_3 1_555 1_555
C25_3 C26_3 1_555 1_555
C26_3 H14_3 1_555 1_555
C27_3 C26_3 1_555 1_555
H17_3 C29_3 1_555 1_555
C30_3 C25_3 1_555 1_555
H18_3 C30_3 1_555 1_555
C35_3 C36_3 1_555 1_555
C36_3 H20_3 1_555 1_555
C37_3 C36_3 1_555 1_555
H21_3 C37_3 1_555 1_555
C38_3 C37_3 1_555 1_555
H22_3 C38_3 1_555 1_555
C39_3 C38_3 1_555 1_555
H23_3 C39_3 1_555 1_555
C40_3 C35_3 1_555 1_555
H24_3 C40_3 1_555 1_555
C45_3 C46_3 1_555 1_555
C46_3 H26_3 1_555 1_555
C47_3 C46_3 1_555 1_555
H27_3 C47_3 1_555 1_555
C48_3 C47_3 1_555 1_555
H28_3 C48_3 1_555 1_555
C49_3 C48_3 1_555 1_555
H29_3 C49_3 1_555 1_555
C50_3 C45_3 1_555 1_555
H30_3 C50_3 1_555 1_555
C55_3 C56_3 1_555 1_555
C56_3 H32_3 1_555 1_555
C57_3 C56_3 1_555 1_555
H33_3 C57_3 1_555 1_555
C58_3 C57_3 1_555 1_555
C59_3 C58_3 1_555 1_555
H34_3 C59_3 1_555 1_555
C60_3 C55_3 1_555 1_555
H35_3 C60_3 1_555 1_555
H36_3 C110_3 1_555 1_555
H37_3 C109_3 1_555 1_555
C64_3 H38_3 1_555 1_555
C65_3 C64_3 1_555 1_555
H39_3 C65_3 1_555 1_555
C67_3 H40_3 1_555 1_555
C69_3 C67_3 1_555 1_555
H42_3 C69_3 1_555 1_555
H43_3 C106_3 1_555 1_555
O18_3 La5_2 1_555 1_555
C76_3 O18_3 1_555 1_555
C78_3 C76_3 1_555 1_555
C79_3 C5_3 1_555 1_555
O19_3 La5_2 1_555 1_555
O20_3 La5_2 1_555 1_555
C80_3 O20_3 1_555 1_555
C81_3 C80_3 1_555 1_555
F22_3 C81_3 1_555 1_555
F23_3 C81_3 1_555 1_555
O21_3 La5_2 1_555 1_555
O22_3 La5_2 1_555 1_555
C84_3 O22_3 1_555 1_555
C85_3 C84_3 1_555 1_555
F25_3 C85_3 1_555 1_555
F26_3 C85_3 1_555 1_555
F27_3 C85_3 1_555 1_555
C86_3 C84_3 1_555 1_555
H50_3 C86_3 1_555 1_555
C87_3 C25_3 1_555 1_555
O23_3 La5_2 1_555 1_555
O24_3 La5_2 1_555 1_555
O25_3 La6_2 1_555 1_555
C88_3 O25_3 1_555 1_555
C89_3 C88_3 1_555 1_555
F28_3 C89_3 1_555 1_555
F29_3 C89_3 1_555 1_555
F30_3 C89_3 1_555 1_555
C90_3 C88_3 1_555 1_555
H51_3 C90_3 1_555 1_555
C91_3 C35_3 1_555 1_555
O26_3 La6_2 1_555 1_555
O27_3 La6_2 1_555 1_555
C92_3 O27_3 1_555 1_555
C93_3 C92_3 1_555 1_555
F31_3 C93_3 1_555 1_555
F32_3 C93_3 1_555 1_555
F33_3 C93_3 1_555 1_555
C94_3 C92_3 1_555 1_555
H52_3 C94_3 1_555 1_555
C95_3 C45_3 1_555 1_555
O28_3 La6_2 1_555 1_555
O29_3 La6_2 1_555 1_555
C96_3 O29_3 1_555 1_555
C97_3 C96_3 1_555 1_555
F34_3 C97_3 1_555 1_555
F35_3 C97_3 1_555 1_555
F36_3 C97_3 1_555 1_555
C98_3 C96_3 1_555 1_555
H53_3 C98_3 1_555 1_555
C99_3 C55_3 1_555 1_555
O30_3 La6_2 1_555 1_555
N5_3 C69_3 1_555 1_555
C105_3 N5_3 1_555 1_555
H58_3 C105_3 1_555 1_555
C106_3 C105_3 1_555 1_555
C107_3 C67_3 1_555 1_555
C108_3 C64_3 1_555 1_555
C109_3 C108_3 1_555 1_555
C110_3 C109_3 1_555 1_555
N6_3 C65_3 1_555 1_555
O17_4 N6_3 1_555 1_555
C9_3 C10_3 1_555 1_555
C29_3 C30_3 1_555 1_555
C39_3 C40_3 1_555 1_555
C49_3 C50_3 1_555 1_555
C59_3 C60_3 1_555 1_555
C78_3 C79_3 1_555 1_555
C79_3 O19_3 1_555 1_555
C83_3 O21_3 1_555 1_555
C86_3 C87_3 1_555 1_555
C87_3 O23_3 1_555 1_555
O24_3 La6_2 1_555 1_555
O24_3 N5_3 1_555 1_555
C90_3 C91_3 1_555 1_555
C91_3 O26_3 1_555 1_555
C94_3 C95_3 1_555 1_555
C95_3 O28_3 1_555 1_555
C98_3 C99_3 1_555 1_555
C99_3 O30_3 1_555 1_555
C106_3 C107_3 1_555 1_555
C107_3 C108_3 1_555 1_555
C110_3 N6_3 1_555 1_555
C58_3 H95_3 1_555 1_555
C15_3 C16_3 1_555 1_555
C16_3 H8_3 1_555 1_555
C17_3 C16_3 1_555 1_555
H9_3 C17_3 1_555 1_555
C18_3 C17_3 1_555 1_555
H10_3 C18_3 1_555 1_555
C19_3 C18_3 1_555 1_555
H11_3 C19_3 1_555 1_555
C20_3 C15_3 1_555 1_555
H12_3 C20_3 1_555 1_555
F19_3 C77_3 1_555 1_555
F20_3 C77_3 1_555 1_555
F21_3 C77_3 1_555 1_555
H49_3 C82_3 1_555 1_555
C19_3 C20_3 1_555 1_555
F7_5 C21_5 1_555 1_555
F8_5 C21_5 1_555 1_555
F9_5 C21_5 1_555 1_555
O17_2 N1_5 1_555 1_555
N1_5 C61_5 1_555 1_555
C4_5 O2_5 1_555 1_555
H7_5 C13_5 1_555 1_555
C14_5 O4_5 1_555 1_555
C21_5 C22_5 1_555 1_555
C22_5 O5_5 1_555 1_555
C23_5 C22_5 1_555 1_555
H13_5 C23_5 1_555 1_555
C24_5 O6_5 1_555 1_555
C61_5 C62_5 1_555 1_555
H61_5 C61_5 1_555 1_555
H62_5 C62_5 1_555 1_555
H63_5 C113_5 1_555 1_555
C133_5 C24_5 1_555 1_555
C134_5 C133_5 1_555 1_555
H80_5 C134_5 1_555 1_555
C135_5 C134_5 1_555 1_555
H81_5 C135_5 1_555 1_555
C136_5 C135_5 1_555 1_555
H82_5 C136_5 1_555 1_555
C137_5 C136_5 1_555 1_555
H83_5 C137_5 1_555 1_555
C138_5 C133_5 1_555 1_555
H84_5 C138_5 1_555 1_555
C139_5 C14_5 1_555 1_555
C140_5 C139_5 1_555 1_555
H85_5 C140_5 1_555 1_555
C141_5 C140_5 1_555 1_555
H86_5 C141_5 1_555 1_555
C142_5 C141_5 1_555 1_555
H87_5 C142_5 1_555 1_555
C143_5 C142_5 1_555 1_555
H88_5 C143_5 1_555 1_555
C144_5 C139_5 1_555 1_555
H89_5 C144_5 1_555 1_555
C145_5 C4_5 1_555 1_555
C146_5 C145_5 1_555 1_555
H90_5 C146_5 1_555 1_555
C147_5 C146_5 1_555 1_555
H91_5 C147_5 1_555 1_555
C148_5 C147_5 1_555 1_555
H92_5 C148_5 1_555 1_555
C149_5 C148_5 1_555 1_555
H93_5 C149_5 1_555 1_555
C150_5 C145_5 1_555 1_555
H94_5 C150_5 1_555 1_555
C13_5 C14_5 1_555 1_555
C23_5 C24_5 1_555 1_555
C137_5 C138_5 1_555 1_555
C143_5 C144_5 1_555 1_555
C149_5 C150_5 1_555 1_555
La7 O1_5 1_555 1_555
La8 O7_5 1_555 1_555
F1_5 C1_5 1_555 1_555
F2_5 C1_5 1_555 1_555
F3_5 C1_5 1_555 1_555
F4_5 C11_5 1_555 1_555
F5_5 C11_5 1_555 1_555
F6_5 C11_5 1_555 1_555
F10_5 C31_5 1_555 1_555
F11_5 C31_5 1_555 1_555
F12_5 C31_5 1_555 1_555
F13_5 C41_5 1_555 1_555
F14_5 C41_5 1_555 1_555
F15_5 C41_5 1_555 1_555
F16_5 C51_5 1_555 1_555
F17_5 C51_5 1_555 1_555
F18_5 C51_5 1_555 1_555
O1_5 C2_5 1_555 1_555
O3_5 La7 1_555 1_555
O7_5 C32_5 1_555 1_555
O8_5 La8 1_555 1_555
O9_5 La8 1_555 1_555
O10_5 La8 1_555 1_555
O11_5 La8 1_555 1_555
O12_5 La8 1_555 1_555
O14_5 La7 1_555 1_555
N2_5 O14_5 1_555 1_555
C1_5 C2_5 1_555 1_555
C2_5 C3_5 1_555 1_555
C11_5 C12_5 1_555 1_555
C12_5 O3_5 1_555 1_555
C31_5 C32_5 1_555 1_555
C32_5 C33_5 1_555 1_555
C33_5 H19_5 1_555 1_555
C34_5 O8_5 1_555 1_555
C41_5 C42_5 1_555 1_555
C42_5 O9_5 1_555 1_555
C43_5 C42_5 1_555 1_555
H25_5 C43_5 1_555 1_555
C44_5 O10_5 1_555 1_555
C51_5 C52_5 1_555 1_555
C52_5 O11_5 1_555 1_555
C53_5 C52_5 1_555 1_555
H31_5 C53_5 1_555 1_555
C54_5 O12_5 1_555 1_555
C63_5 C66_5 1_555 1_555
C66_5 C70_5 1_555 1_555
C68_5 N2_5 1_555 1_555
H41_5 C68_5 1_555 1_555
C70_5 C68_5 1_555 1_555
C112_5 C63_5 1_555 1_555
H59_5 C112_5 1_555 1_555
H60_5 C111_5 1_555 1_555
C114_5 N2_5 1_555 1_555
H64_5 C114_5 1_555 1_555
H65_5 C70_5 1_555 1_555
C115_5 C54_5 1_555 1_555
C116_5 C115_5 1_555 1_555
H66_5 C116_5 1_555 1_555
C117_5 C116_5 1_555 1_555
H67_5 C117_5 1_555 1_555
C118_5 C117_5 1_555 1_555
C119_5 C118_5 1_555 1_555
H68_5 C119_5 1_555 1_555
C120_5 C115_5 1_555 1_555
H69_5 C120_5 1_555 1_555
C121_5 C44_5 1_555 1_555
C122_5 C121_5 1_555 1_555
H70_5 C122_5 1_555 1_555
C123_5 C122_5 1_555 1_555
H71_5 C123_5 1_555 1_555
C124_5 C123_5 1_555 1_555
H72_5 C124_5 1_555 1_555
C125_5 C124_5 1_555 1_555
H73_5 C125_5 1_555 1_555
C126_5 C121_5 1_555 1_555
H74_5 C126_5 1_555 1_555
C127_5 C34_5 1_555 1_555
C128_5 C127_5 1_555 1_555
H75_5 C128_5 1_555 1_555
C129_5 C128_5 1_555 1_555
H76_5 C129_5 1_555 1_555
C130_5 C129_5 1_555 1_555
H77_5 C130_5 1_555 1_555
C131_5 C130_5 1_555 1_555
H78_5 C131_5 1_555 1_555
C132_5 C127_5 1_555 1_555
H79_5 C132_5 1_555 1_555
La8 O14_5 1_555 1_555
C33_5 C34_5 1_555 1_555
C43_5 C44_5 1_555 1_555
C53_5 C54_5 1_555 1_555
C111_5 C112_5 1_555 1_555
C119_5 C120_5 1_555 1_555
C125_5 C126_5 1_555 1_555
C131_5 C132_5 1_555 1_555
C118_5 H96_5 1_555 1_555
C35_4 C36_4 1_555 1_555
C36_4 H20_4 1_555 1_555
C37_4 C36_4 1_555 1_555
H21_4 C37_4 1_555 1_555
C38_4 C37_4 1_555 1_555
H22_4 C38_4 1_555 1_555
La1_4 O1_6 1_555 1_555
La2_4 O7_6 1_555 1_555
F1_6 C1_6 1_555 1_555
F2_6 C1_6 1_555 1_555
F3_6 C1_6 1_555 1_555
F4_6 C11_6 1_555 1_555
F5_6 C11_6 1_555 1_555
F6_6 C11_6 1_555 1_555
F10_6 C31_6 1_555 1_555
F11_6 C31_6 1_555 1_555
F12_6 C31_6 1_555 1_555
F13_6 C41_6 1_555 1_555
F14_6 C41_6 1_555 1_555
F15_6 C41_6 1_555 1_555
F16_6 C51_6 1_555 1_555
F17_6 C51_6 1_555 1_555
F18_6 C51_6 1_555 1_555
O1_6 C2_6 1_555 1_555
O3_6 La1_4 1_555 1_555
O7_6 C32_6 1_555 1_555
O8_6 La2_4 1_555 1_555
O9_6 La2_4 1_555 1_555
O10_6 La2_4 1_555 1_555
O11_6 La2_4 1_555 1_555
O12_6 La2_4 1_555 1_555
O14_6 La1_4 1_555 1_555
N2_6 O14_6 1_555 1_555
C1_6 C2_6 1_555 1_555
C2_6 C3_6 1_555 1_555
C11_6 C12_6 1_555 1_555
C12_6 O3_6 1_555 1_555
C31_6 C32_6 1_555 1_555
C32_6 C33_6 1_555 1_555
C33_6 H19_6 1_555 1_555
C34_6 O8_6 1_555 1_555
C41_6 C42_6 1_555 1_555
C42_6 O9_6 1_555 1_555
C43_6 C42_6 1_555 1_555
H25_6 C43_6 1_555 1_555
C44_6 O10_6 1_555 1_555
C45_4 C46_4 1_555 1_555
C46_4 H26_4 1_555 1_555
C47_4 C46_4 1_555 1_555
H27_4 C47_4 1_555 1_555
C48_4 C47_4 1_555 1_555
H28_4 C48_4 1_555 1_555
C49_4 C48_4 1_555 1_555
H29_4 C49_4 1_555 1_555
C50_4 C45_4 1_555 1_555
H30_4 C50_4 1_555 1_555
C51_6 C52_6 1_555 1_555
C52_6 O11_6 1_555 1_555
C53_6 C52_6 1_555 1_555
H31_6 C53_6 1_555 1_555
C54_6 O12_6 1_555 1_555
C63_6 C66_6 1_555 1_555
C66_6 C70_6 1_555 1_555
C68_6 N2_6 1_555 1_555
H41_6 C68_6 1_555 1_555
C70_6 C68_6 1_555 1_555
O16_4 La1_4 1_555 1_555
O17_5 La1_4 1_555 1_555
C88_4 O25_4 1_555 1_555
C89_4 C88_4 1_555 1_555
F28_4 C89_4 1_555 1_555
F29_4 C89_4 1_555 1_555
F30_4 C89_4 1_555 1_555
C90_4 C88_4 1_555 1_555
H51_4 C90_4 1_555 1_555
C93_4 C92_4 1_555 1_555
F32_4 C93_4 1_555 1_555
F33_4 C93_4 1_555 1_555
C94_4 C92_4 1_555 1_555
H52_4 C94_4 1_555 1_555
C95_4 C45_4 1_555 1_555
C112_6 C63_6 1_555 1_555
H59_6 C112_6 1_555 1_555
H60_6 C111_6 1_555 1_555
C114_6 N2_6 1_555 1_555
H64_6 C114_6 1_555 1_555
H65_6 C70_6 1_555 1_555
C115_6 C54_6 1_555 1_555
C116_6 C115_6 1_555 1_555
H66_6 C116_6 1_555 1_555
C117_6 C116_6 1_555 1_555
H67_6 C117_6 1_555 1_555
C118_6 C117_6 1_555 1_555
C119_6 C118_6 1_555 1_555
H68_6 C119_6 1_555 1_555
C120_6 C115_6 1_555 1_555
H69_6 C120_6 1_555 1_555
C121_6 C44_6 1_555 1_555
C122_6 C121_6 1_555 1_555
H70_6 C122_6 1_555 1_555
C123_6 C122_6 1_555 1_555
H71_6 C123_6 1_555 1_555
C124_6 C123_6 1_555 1_555
H72_6 C124_6 1_555 1_555
C125_6 C124_6 1_555 1_555
H73_6 C125_6 1_555 1_555
C126_6 C121_6 1_555 1_555
H74_6 C126_6 1_555 1_555
C127_6 C34_6 1_555 1_555
C128_6 C127_6 1_555 1_555
H75_6 C128_6 1_555 1_555
C129_6 C128_6 1_555 1_555
H76_6 C129_6 1_555 1_555
C130_6 C129_6 1_555 1_555
H77_6 C130_6 1_555 1_555
C131_6 C130_6 1_555 1_555
H78_6 C131_6 1_555 1_555
C132_6 C127_6 1_555 1_555
H79_6 C132_6 1_555 1_555
La2_4 O17_5 1_555 1_555
La2_4 O14_6 1_555 1_555
La2_4 O16_4 1_555 1_555
C33_6 C34_6 1_555 1_555
C43_6 C44_6 1_555 1_555
C49_4 C50_4 1_555 1_555
C53_6 C54_6 1_555 1_555
C90_4 C91_4 1_555 1_555
C94_4 C95_4 1_555 1_555
C95_4 O28_4 1_555 1_555
C111_6 C112_6 1_555 1_555
C119_6 C120_6 1_555 1_555
C125_6 C126_6 1_555 1_555
C131_6 C132_6 1_555 1_555
C118_6 H96_6 1_555 1_555
H4_4 C8_4 1_555 1_555
C9_4 C8_4 1_555 1_555
H5_4 C9_4 1_555 1_555
H23_4 C39_4 1_555 1_555
H36_4 C110_4 1_555 1_555
H37_4 C109_4 1_555 1_555
C64_4 H38_4 1_555 1_555
C65_4 C64_4 1_555 1_555
H39_4 C65_4 1_555 1_555
H43_4 C106_4 1_555 1_555
C108_4 C64_4 1_555 1_555
C109_4 C108_4 1_555 1_555
C110_4 C109_4 1_555 1_555
N6_4 C65_4 1_555 1_555
O32_3 N6_4 1_555 1_555
La7_2 O32_3 1_555 1_555
La8_2 O32_3 1_555 1_555
C39_4 C40_4 1_555 1_555
C106_4 C107_4 1_555 1_555
C107_4 C108_4 1_555 1_555
C110_4 N6_4 1_555 1_555
F7_6 C21_6 1_555 1_555
F8_6 C21_6 1_555 1_555
F9_6 C21_6 1_555 1_555
O13_3 N1_6 1_555 1_555
O15_3 N3_5 1_555 1_555
N1_6 C61_6 1_555 1_555
N3_5 C71_5 1_555 1_555
C4_6 O2_6 1_555 1_555
C5_4 C6_4 1_555 1_555
C6_4 H2_4 1_555 1_555
C7_4 C6_4 1_555 1_555
H3_4 C7_4 1_555 1_555
C10_4 C5_4 1_555 1_555
H7_6 C13_6 1_555 1_555
C14_6 O4_6 1_555 1_555
C15_4 C16_4 1_555 1_555
C16_4 H8_4 1_555 1_555
C17_4 C16_4 1_555 1_555
H9_4 C17_4 1_555 1_555
C18_4 C17_4 1_555 1_555
H10_4 C18_4 1_555 1_555
C19_4 C18_4 1_555 1_555
H11_4 C19_4 1_555 1_555
C20_4 C15_4 1_555 1_555
H12_4 C20_4 1_555 1_555
C21_6 C22_6 1_555 1_555
C22_6 O5_6 1_555 1_555
C23_6 C22_6 1_555 1_555
H13_6 C23_6 1_555 1_555
C24_6 O6_6 1_555 1_555
C25_4 C26_4 1_555 1_555
C26_4 H14_4 1_555 1_555
C27_4 C26_4 1_555 1_555
H15_4 C27_4 1_555 1_555
C28_4 C27_4 1_555 1_555
H16_4 C28_4 1_555 1_555
C29_4 C28_4 1_555 1_555
H17_4 C29_4 1_555 1_555
C30_4 C25_4 1_555 1_555
H18_4 C30_4 1_555 1_555
C55_4 C56_4 1_555 1_555
C56_4 H32_4 1_555 1_555
C57_4 C56_4 1_555 1_555
H33_4 C57_4 1_555 1_555
C58_4 C57_4 1_555 1_555
C59_4 C58_4 1_555 1_555
H34_4 C59_4 1_555 1_555
C60_4 C55_4 1_555 1_555
H35_4 C60_4 1_555 1_555
C61_6 C62_6 1_555 1_555
C67_4 H40_4 1_555 1_555
C69_4 C67_4 1_555 1_555
H42_4 C69_4 1_555 1_555
C71_5 H44_5 1_555 1_555
C72_5 C71_5 1_555 1_555
H45_5 C72_5 1_555 1_555
C73_5 C72_5 1_555 1_555
C74_5 H46_5 1_555 1_555
C75_5 C74_5 1_555 1_555
H47_5 C75_5 1_555 1_555
La3_3 O13_3 1_555 1_555
O18_4 La3_3 1_555 1_555
C76_4 O18_4 1_555 1_555
C77_4 C76_4 1_555 1_555
F19_4 C77_4 1_555 1_555
F20_4 C77_4 1_555 1_555
F21_4 C77_4 1_555 1_555
C78_4 C76_4 1_555 1_555
H48_4 C78_4 1_555 1_555
C79_4 C5_4 1_555 1_555
O19_4 La3_3 1_555 1_555
O20_4 La3_3 1_555 1_555
C80_4 O20_4 1_555 1_555
C81_4 C80_4 1_555 1_555
F22_4 C81_4 1_555 1_555
F23_4 C81_4 1_555 1_555
F24_4 C81_4 1_555 1_555
C82_4 C80_4 1_555 1_555
H49_4 C82_4 1_555 1_555
C83_4 C15_4 1_555 1_555
O21_4 La3_3 1_555 1_555
O22_4 La3_3 1_555 1_555
C84_4 O22_4 1_555 1_555
C85_4 C84_4 1_555 1_555
F26_4 C85_4 1_555 1_555
C86_4 C84_4 1_555 1_555
H50_4 C86_4 1_555 1_555
C87_4 C25_4 1_555 1_555
O23_4 La3_3 1_555 1_555
O24_4 La3_3 1_555 1_555
La4_3 O13_3 1_555 1_555
O26_4 La4_3 1_555 1_555
O27_4 La4_3 1_555 1_555
O29_4 La4_3 1_555 1_555
C96_4 O29_4 1_555 1_555
C97_4 C96_4 1_555 1_555
F34_4 C97_4 1_555 1_555
F35_4 C97_4 1_555 1_555
F36_4 C97_4 1_555 1_555
C98_4 C96_4 1_555 1_555
H53_4 C98_4 1_555 1_555
C99_4 C55_4 1_555 1_555
O30_4 La4_3 1_555 1_555
C100_5 C73_5 1_555 1_555
C101_5 C100_5 1_555 1_555
C102_5 C101_5 1_555 1_555
N4_5 C75_5 1_555 1_555
O31_4 N4_5 1_555 1_555
La5_3 O31_4 1_555 1_555
La6_3 O31_4 1_555 1_555
H54_5 C102_5 1_555 1_555
H55_5 C101_5 1_555 1_555
C103_5 C73_5 1_555 1_555
H56_5 C103_5 1_555 1_555
C104_5 N3_5 1_555 1_555
H57_5 C104_5 1_555 1_555
N5_4 C69_4 1_555 1_555
C105_4 N5_4 1_555 1_555
H58_4 C105_4 1_555 1_555
H61_6 C61_6 1_555 1_555
H62_6 C62_6 1_555 1_555
H63_6 C113_6 1_555 1_555
C133_6 C24_6 1_555 1_555
C134_6 C133_6 1_555 1_555
H80_6 C134_6 1_555 1_555
C135_6 C134_6 1_555 1_555
H81_6 C135_6 1_555 1_555
C136_6 C135_6 1_555 1_555
H82_6 C136_6 1_555 1_555
C137_6 C136_6 1_555 1_555
H83_6 C137_6 1_555 1_555
C138_6 C133_6 1_555 1_555
H84_6 C138_6 1_555 1_555
C139_6 C14_6 1_555 1_555
C140_6 C139_6 1_555 1_555
H85_6 C140_6 1_555 1_555
C141_6 C140_6 1_555 1_555
H86_6 C141_6 1_555 1_555
C142_6 C141_6 1_555 1_555
H87_6 C142_6 1_555 1_555
C143_6 C142_6 1_555 1_555
H88_6 C143_6 1_555 1_555
C144_6 C139_6 1_555 1_555
H89_6 C144_6 1_555 1_555
C145_6 C4_6 1_555 1_555
C146_6 C145_6 1_555 1_555
H90_6 C146_6 1_555 1_555
C147_6 C146_6 1_555 1_555
H91_6 C147_6 1_555 1_555
C148_6 C147_6 1_555 1_555
H92_6 C148_6 1_555 1_555
C149_6 C148_6 1_555 1_555
H93_6 C149_6 1_555 1_555
C150_6 C145_6 1_555 1_555
H94_6 C150_6 1_555 1_555
O15_3 La4_3 1_555 1_555
O15_3 La3_3 1_555 1_555
C13_6 C14_6 1_555 1_555
C19_4 C20_4 1_555 1_555
C23_6 C24_6 1_555 1_555
C29_4 C30_4 1_555 1_555
C59_4 C60_4 1_555 1_555
C74_5 C100_5 1_555 1_555
C78_4 C79_4 1_555 1_555
C79_4 O19_4 1_555 1_555
C82_4 C83_4 1_555 1_555
C83_4 O21_4 1_555 1_555
C86_4 C87_4 1_555 1_555
C87_4 O23_4 1_555 1_555
O24_4 La4_3 1_555 1_555
O24_4 N5_4 1_555 1_555
C98_4 C99_4 1_555 1_555
C99_4 O30_4 1_555 1_555
C102_5 N4_5 1_555 1_555
C103_5 C104_5 1_555 1_555
C137_6 C138_6 1_555 1_555
C143_6 C144_6 1_555 1_555
C149_6 C150_6 1_555 1_555
C58_4 H95_4 1_555 1_555
La1_5 O1_7 1_555 1_555
F1_7 C1_7 1_555 1_555
F2_7 C1_7 1_555 1_555
F3_7 C1_7 1_555 1_555
F4_7 C11_7 1_555 1_555
F5_7 C11_7 1_555 1_555
F6_7 C11_7 1_555 1_555
F8_7 C21_7 1_555 1_555
F16_7 C51_7 1_555 1_555
F18_7 C51_7 1_555 1_555
O1_7 C2_7 1_555 1_555
O2_7 La1_5 1_555 1_555
O3_7 La1_5 1_555 1_555
O4_7 La1_5 1_555 1_555
O5_7 La1_5 1_555 1_555
O6_7 La1_5 1_555 1_555
O8_7 La2_5 1_555 1_555
O9_7 La2_5 1_555 1_555
O11_7 La2_5 1_555 1_555
O12_7 La2_5 1_555 1_555
O17_5 N1_7 1_555 1_555
O14_7 La1_5 1_555 1_555
O16_4 N3_6 1_555 1_555
N1_7 C61_7 1_555 1_555
N2_7 O14_7 1_555 1_555
N3_6 C71_6 1_555 1_555
C1_7 C2_7 1_555 1_555
C2_7 C3_7 1_555 1_555
C3_7 H1_7 1_555 1_555
C4_7 O2_7 1_555 1_555
C11_7 C12_7 1_555 1_555
C12_7 O3_7 1_555 1_555
C13_7 C12_7 1_555 1_555
H7_7 C13_7 1_555 1_555
C14_7 O4_7 1_555 1_555
C21_7 C22_7 1_555 1_555
C22_7 O5_7 1_555 1_555
C23_7 C22_7 1_555 1_555
H13_7 C23_7 1_555 1_555
C24_7 O6_7 1_555 1_555
C51_7 C52_7 1_555 1_555
C52_7 O11_7 1_555 1_555
C61_7 C62_7 1_555 1_555
C62_7 C63_7 1_555 1_555
C63_7 C66_7 1_555 1_555
C66_7 C70_7 1_555 1_555
C68_7 N2_7 1_555 1_555
H41_7 C68_7 1_555 1_555
C70_7 C68_7 1_555 1_555
C71_6 H44_6 1_555 1_555
C72_6 C71_6 1_555 1_555
H45_6 C72_6 1_555 1_555
C73_6 C72_6 1_555 1_555
C74_6 H46_6 1_555 1_555
C75_6 C74_6 1_555 1_555
H47_6 C75_6 1_555 1_555
O16_5 La1_5 1_555 1_555
O17_6 La1_5 1_555 1_555
C100_6 C73_6 1_555 1_555
C101_6 C100_6 1_555 1_555
C102_6 C101_6 1_555 1_555
N4_6 C75_6 1_555 1_555
O31_5 N4_6 1_555 1_555
La5_4 O31_5 1_555 1_555
La6_4 O31_5 1_555 1_555
H54_6 C102_6 1_555 1_555
H55_6 C101_6 1_555 1_555
C103_6 C73_6 1_555 1_555
H56_6 C103_6 1_555 1_555
C104_6 N3_6 1_555 1_555
H57_6 C104_6 1_555 1_555
C111_7 N1_7 1_555 1_555
C112_7 C63_7 1_555 1_555
H59_7 C112_7 1_555 1_555
H60_7 C111_7 1_555 1_555
H61_7 C61_7 1_555 1_555
H62_7 C62_7 1_555 1_555
C113_7 C66_7 1_555 1_555
H63_7 C113_7 1_555 1_555
C114_7 N2_7 1_555 1_555
H64_7 C114_7 1_555 1_555
H65_7 C70_7 1_555 1_555
H78_7 C131_7 1_555 1_555
H79_7 C132_7 1_555 1_555
C133_7 C24_7 1_555 1_555
C134_7 C133_7 1_555 1_555
H80_7 C134_7 1_555 1_555
C135_7 C134_7 1_555 1_555
H81_7 C135_7 1_555 1_555
C136_7 C135_7 1_555 1_555
H82_7 C136_7 1_555 1_555
C137_7 C136_7 1_555 1_555
H83_7 C137_7 1_555 1_555
C138_7 C133_7 1_555 1_555
H84_7 C138_7 1_555 1_555
C139_7 C14_7 1_555 1_555
C140_7 C139_7 1_555 1_555
H85_7 C140_7 1_555 1_555
C141_7 C140_7 1_555 1_555
H86_7 C141_7 1_555 1_555
C142_7 C141_7 1_555 1_555
H87_7 C142_7 1_555 1_555
C143_7 C142_7 1_555 1_555
H88_7 C143_7 1_555 1_555
C144_7 C139_7 1_555 1_555
H89_7 C144_7 1_555 1_555
C145_7 C4_7 1_555 1_555
C146_7 C145_7 1_555 1_555
H90_7 C146_7 1_555 1_555
C147_7 C146_7 1_555 1_555
H91_7 C147_7 1_555 1_555
C148_7 C147_7 1_555 1_555
H92_7 C148_7 1_555 1_555
C149_7 C148_7 1_555 1_555
H93_7 C149_7 1_555 1_555
C150_7 C145_7 1_555 1_555
H94_7 C150_7 1_555 1_555
La2_5 O17_6 1_555 1_555
La2_5 O14_7 1_555 1_555
La2_5 O16_5 1_555 1_555
C3_7 C4_7 1_555 1_555
C13_7 C14_7 1_555 1_555
C23_7 C24_7 1_555 1_555
C74_6 C100_6 1_555 1_555
C102_6 N4_6 1_555 1_555
C103_6 C104_6 1_555 1_555
C111_7 C112_7 1_555 1_555
C113_7 C114_7 1_555 1_555
C131_7 C132_7 1_555 1_555
C137_7 C138_7 1_555 1_555
C143_7 C144_7 1_555 1_555
C149_7 C150_7 1_555 1_555
F10_7 C31_7 1_555 1_555
F11_7 C31_7 1_555 1_555
F12_7 C31_7 1_555 1_555
F14_7 C41_7 1_555 1_555
F15_7 C41_7 1_555 1_555
O7_7 C32_7 1_555 1_555
C31_7 C32_7 1_555 1_555
C32_7 C33_7 1_555 1_555
C33_7 H19_7 1_555 1_555
C41_7 C42_7 1_555 1_555
C43_7 C42_7 1_555 1_555
C44_7 O10_7 1_555 1_555
H70_7 C122_7 1_555 1_555
C127_7 C34_7 1_555 1_555
C128_7 C127_7 1_555 1_555
H75_7 C128_7 1_555 1_555
C129_7 C128_7 1_555 1_555
H76_7 C129_7 1_555 1_555
C130_7 C129_7 1_555 1_555
H77_7 C130_7 1_555 1_555
C33_7 C34_7 1_555 1_555
C43_7 C44_7 1_555 1_555
H31_7 C53_7 1_555 1_555
C115_7 C54_7 1_555 1_555
C116_7 C115_7 1_555 1_555
H66_7 C116_7 1_555 1_555
C117_7 C116_7 1_555 1_555
H67_7 C117_7 1_555 1_555
C118_7 C117_7 1_555 1_555
C119_7 C118_7 1_555 1_555
H68_7 C119_7 1_555 1_555
C120_7 C115_7 1_555 1_555
H69_7 C120_7 1_555 1_555
C53_7 C54_7 1_555 1_555
C119_7 C120_7 1_555 1_555
C118_7 H96_7 1_555 1_555
H71_7 C123_7 1_555 1_555
C124_7 C123_7 1_555 1_555
H72_7 C124_7 1_555 1_555
C125_7 C124_7 1_555 1_555
H73_7 C125_7 1_555 1_555
C126_7 C121_7 1_555 1_555
H74_7 C126_7 1_555 1_555
C125_7 C126_7 1_555 1_555
F1_8 C1_8 1_555 1_555
F2_8 C1_8 1_555 1_555
F3_8 C1_8 1_555 1_555
H7_8 C13_8 1_555 1_555
H27_5 C47_5 1_555 1_555
C48_5 C47_5 1_555 1_555
H28_5 C48_5 1_555 1_555
C49_5 C48_5 1_555 1_555
H29_5 C49_5 1_555 1_555
C50_5 C45_5 1_555 1_555
H30_5 C50_5 1_555 1_555
C55_5 C56_5 1_555 1_555
C56_5 H32_5 1_555 1_555
C57_5 C56_5 1_555 1_555
H33_5 C57_5 1_555 1_555
C58_5 C57_5 1_555 1_555
C59_5 C58_5 1_555 1_555
H34_5 C59_5 1_555 1_555
C60_5 C55_5 1_555 1_555
H35_5 C60_5 1_555 1_555
C74_7 H46_7 1_555 1_555
C75_7 C74_7 1_555 1_555
H47_7 C75_7 1_555 1_555
H53_5 C98_5 1_555 1_555
C99_5 C55_5 1_555 1_555
C101_7 C100_7 1_555 1_555
C102_7 C101_7 1_555 1_555
N4_7 C75_7 1_555 1_555
O16_5 N4_7 1_555 1_555
H54_7 C102_7 1_555 1_555
H55_7 C101_7 1_555 1_555
C140_8 C139_8 1_555 1_555
H85_8 C140_8 1_555 1_555
C141_8 C140_8 1_555 1_555
H86_8 C141_8 1_555 1_555
C142_8 C141_8 1_555 1_555
H87_8 C142_8 1_555 1_555
C143_8 C142_8 1_555 1_555
H88_8 C143_8 1_555 1_555
C144_8 C139_8 1_555 1_555
H89_8 C144_8 1_555 1_555
C49_5 C50_5 1_555 1_555
C59_5 C60_5 1_555 1_555
C74_7 C100_7 1_555 1_555
C98_5 C99_5 1_555 1_555
C102_7 N4_7 1_555 1_555
C143_8 C144_8 1_555 1_555
C58_5 H95_5 1_555 1_555
La1_6 O1_8 1_555 1_555
La2_6 O7_8 1_555 1_555
F4_8 C11_8 1_555 1_555
F5_8 C11_8 1_555 1_555
F7_8 C21_8 1_555 1_555
F8_8 C21_8 1_555 1_555
F9_8 C21_8 1_555 1_555
F10_8 C31_8 1_555 1_555
F11_8 C31_8 1_555 1_555
F12_8 C31_8 1_555 1_555
F13_8 C41_8 1_555 1_555
F14_8 C41_8 1_555 1_555
F15_8 C41_8 1_555 1_555
F16_8 C51_8 1_555 1_555
F17_8 C51_8 1_555 1_555
F18_8 C51_8 1_555 1_555
O1_8 C2_8 1_555 1_555
O2_8 La1_6 1_555 1_555
O3_8 La1_6 1_555 1_555
O4_8 La1_6 1_555 1_555
O5_8 La1_6 1_555 1_555
O6_8 La1_6 1_555 1_555
O7_8 C32_8 1_555 1_555
O8_8 La2_6 1_555 1_555
O9_8 La2_6 1_555 1_555
O10_8 La2_6 1_555 1_555
O11_8 La2_6 1_555 1_555
O12_8 La2_6 1_555 1_555
O13_4 N1_8 1_555 1_555
O14_8 La1_6 1_555 1_555
O15_4 N3_7 1_555 1_555
N1_8 C61_8 1_555 1_555
N2_8 O14_8 1_555 1_555
N3_7 C71_7 1_555 1_555
C2_8 C3_8 1_555 1_555
C4_8 O2_8 1_555 1_555
C5_5 C6_5 1_555 1_555
C6_5 H2_5 1_555 1_555
C7_5 C6_5 1_555 1_555
H3_5 C7_5 1_555 1_555
C8_5 C7_5 1_555 1_555
H4_5 C8_5 1_555 1_555
C9_5 C8_5 1_555 1_555
H5_5 C9_5 1_555 1_555
C10_5 C5_5 1_555 1_555
H6_5 C10_5 1_555 1_555
C11_8 C12_8 1_555 1_555
C12_8 O3_8 1_555 1_555
C14_8 O4_8 1_555 1_555
C15_5 C16_5 1_555 1_555
C16_5 H8_5 1_555 1_555
C17_5 C16_5 1_555 1_555
H9_5 C17_5 1_555 1_555
C18_5 C17_5 1_555 1_555
H10_5 C18_5 1_555 1_555
C19_5 C18_5 1_555 1_555
H11_5 C19_5 1_555 1_555
C20_5 C15_5 1_555 1_555
H12_5 C20_5 1_555 1_555
C21_8 C22_8 1_555 1_555
C22_8 O5_8 1_555 1_555
C23_8 C22_8 1_555 1_555
H13_8 C23_8 1_555 1_555
C24_8 O6_8 1_555 1_555
C25_5 C26_5 1_555 1_555
C26_5 H14_5 1_555 1_555
C27_5 C26_5 1_555 1_555
H15_5 C27_5 1_555 1_555
C28_5 C27_5 1_555 1_555
H16_5 C28_5 1_555 1_555
C29_5 C28_5 1_555 1_555
H17_5 C29_5 1_555 1_555
C30_5 C25_5 1_555 1_555
H18_5 C30_5 1_555 1_555
C31_8 C32_8 1_555 1_555
C32_8 C33_8 1_555 1_555
C33_8 H19_8 1_555 1_555
C34_8 O8_8 1_555 1_555
C35_5 C36_5 1_555 1_555
C36_5 H20_5 1_555 1_555
C37_5 C36_5 1_555 1_555
H21_5 C37_5 1_555 1_555
C38_5 C37_5 1_555 1_555
H22_5 C38_5 1_555 1_555
C39_5 C38_5 1_555 1_555
H23_5 C39_5 1_555 1_555
C40_5 C35_5 1_555 1_555
H24_5 C40_5 1_555 1_555
C41_8 C42_8 1_555 1_555
C42_8 O9_8 1_555 1_555
C43_8 C42_8 1_555 1_555
H25_8 C43_8 1_555 1_555
C44_8 O10_8 1_555 1_555
C46_5 H26_5 1_555 1_555
C51_8 C52_8 1_555 1_555
C52_8 O11_8 1_555 1_555
C53_8 C52_8 1_555 1_555
H31_8 C53_8 1_555 1_555
C54_8 O12_8 1_555 1_555
C61_8 C62_8 1_555 1_555
H36_5 C110_5 1_555 1_555
C62_8 C63_8 1_555 1_555
H37_5 C109_5 1_555 1_555
C63_8 C66_8 1_555 1_555
C64_5 H38_5 1_555 1_555
C65_5 C64_5 1_555 1_555
H39_5 C65_5 1_555 1_555
C66_8 C70_8 1_555 1_555
C67_5 H40_5 1_555 1_555
C68_8 N2_8 1_555 1_555
H41_8 C68_8 1_555 1_555
C69_5 C67_5 1_555 1_555
H42_5 C69_5 1_555 1_555
C70_8 C68_8 1_555 1_555
H43_5 C106_5 1_555 1_555
C71_7 H44_7 1_555 1_555
C72_7 C71_7 1_555 1_555
H45_7 C72_7 1_555 1_555
C73_7 C72_7 1_555 1_555
O16_6 La1_6 1_555 1_555
O17_7 La1_6 1_555 1_555
La3_4 O13_4 1_555 1_555
O18_5 La3_4 1_555 1_555
C76_5 O18_5 1_555 1_555
C77_5 C76_5 1_555 1_555
F19_5 C77_5 1_555 1_555
F20_5 C77_5 1_555 1_555
F21_5 C77_5 1_555 1_555
C78_5 C76_5 1_555 1_555
H48_5 C78_5 1_555 1_555
C79_5 C5_5 1_555 1_555
O19_5 La3_4 1_555 1_555
O20_5 La3_4 1_555 1_555
C80_5 O20_5 1_555 1_555
C81_5 C80_5 1_555 1_555
F22_5 C81_5 1_555 1_555
F23_5 C81_5 1_555 1_555
F24_5 C81_5 1_555 1_555
C82_5 C80_5 1_555 1_555
H49_5 C82_5 1_555 1_555
C83_5 C15_5 1_555 1_555
O21_5 La3_4 1_555 1_555
O22_5 La3_4 1_555 1_555
C84_5 O22_5 1_555 1_555
C85_5 C84_5 1_555 1_555
F25_5 C85_5 1_555 1_555
F26_5 C85_5 1_555 1_555
F27_5 C85_5 1_555 1_555
C86_5 C84_5 1_555 1_555
H50_5 C86_5 1_555 1_555
C87_5 C25_5 1_555 1_555
O23_5 La3_4 1_555 1_555
O24_5 La3_4 1_555 1_555
La4_4 O13_4 1_555 1_555
O25_5 La4_4 1_555 1_555
C88_5 O25_5 1_555 1_555
C89_5 C88_5 1_555 1_555
F28_5 C89_5 1_555 1_555
F29_5 C89_5 1_555 1_555
F30_5 C89_5 1_555 1_555
C90_5 C88_5 1_555 1_555
H51_5 C90_5 1_555 1_555
C91_5 C35_5 1_555 1_555
O26_5 La4_4 1_555 1_555
O27_5 La4_4 1_555 1_555
C92_5 O27_5 1_555 1_555
C93_5 C92_5 1_555 1_555
F31_5 C93_5 1_555 1_555
F32_5 C93_5 1_555 1_555
F33_5 C93_5 1_555 1_555
C94_5 C92_5 1_555 1_555
O28_5 La4_4 1_555 1_555
O29_5 La4_4 1_555 1_555
C96_5 O29_5 1_555 1_555
C97_5 C96_5 1_555 1_555
F34_5 C97_5 1_555 1_555
F36_5 C97_5 1_555 1_555
O30_5 La4_4 1_555 1_555
C103_7 C73_7 1_555 1_555
H56_7 C103_7 1_555 1_555
C104_7 N3_7 1_555 1_555
H57_7 C104_7 1_555 1_555
N5_5 C69_5 1_555 1_555
C105_5 N5_5 1_555 1_555
H58_5 C105_5 1_555 1_555
C106_5 C105_5 1_555 1_555
C107_5 C67_5 1_555 1_555
C108_5 C64_5 1_555 1_555
C109_5 C108_5 1_555 1_555
C110_5 C109_5 1_555 1_555
N6_5 C65_5 1_555 1_555
O32_4 N6_5 1_555 1_555
La5_4 O32_4 1_555 1_555
La6_4 O32_4 1_555 1_555
C111_8 N1_8 1_555 1_555
C112_8 C63_8 1_555 1_555
H59_8 C112_8 1_555 1_555
H60_8 C111_8 1_555 1_555
H61_8 C61_8 1_555 1_555
H62_8 C62_8 1_555 1_555
C113_8 C66_8 1_555 1_555
H63_8 C113_8 1_555 1_555
C114_8 N2_8 1_555 1_555
H64_8 C114_8 1_555 1_555
H65_8 C70_8 1_555 1_555
C115_8 C54_8 1_555 1_555
C116_8 C115_8 1_555 1_555
H66_8 C116_8 1_555 1_555
C117_8 C116_8 1_555 1_555
H67_8 C117_8 1_555 1_555
C118_8 C117_8 1_555 1_555
C119_8 C118_8 1_555 1_555
H68_8 C119_8 1_555 1_555
C120_8 C115_8 1_555 1_555
H69_8 C120_8 1_555 1_555
C121_8 C44_8 1_555 1_555
C122_8 C121_8 1_555 1_555
H70_8 C122_8 1_555 1_555
C123_8 C122_8 1_555 1_555
H71_8 C123_8 1_555 1_555
C124_8 C123_8 1_555 1_555
H72_8 C124_8 1_555 1_555
C125_8 C124_8 1_555 1_555
H73_8 C125_8 1_555 1_555
C126_8 C121_8 1_555 1_555
H74_8 C126_8 1_555 1_555
C127_8 C34_8 1_555 1_555
C128_8 C127_8 1_555 1_555
H75_8 C128_8 1_555 1_555
C129_8 C128_8 1_555 1_555
H76_8 C129_8 1_555 1_555
C130_8 C129_8 1_555 1_555
H77_8 C130_8 1_555 1_555
C131_8 C130_8 1_555 1_555
H78_8 C131_8 1_555 1_555
C132_8 C127_8 1_555 1_555
H79_8 C132_8 1_555 1_555
C133_8 C24_8 1_555 1_555
C134_8 C133_8 1_555 1_555
H80_8 C134_8 1_555 1_555
C135_8 C134_8 1_555 1_555
H83_8 C137_8 1_555 1_555
C138_8 C133_8 1_555 1_555
H84_8 C138_8 1_555 1_555
C145_8 C4_8 1_555 1_555
C146_8 C145_8 1_555 1_555
H90_8 C146_8 1_555 1_555
C147_8 C146_8 1_555 1_555
H91_8 C147_8 1_555 1_555
C148_8 C147_8 1_555 1_555
H92_8 C148_8 1_555 1_555
C149_8 C148_8 1_555 1_555
H93_8 C149_8 1_555 1_555
C150_8 C145_8 1_555 1_555
H94_8 C150_8 1_555 1_555
La2_6 O17_7 1_555 1_555
La2_6 O14_8 1_555 1_555
La2_6 O16_6 1_555 1_555
O15_4 La4_4 1_555 1_555
O15_4 La3_4 1_555 1_555
C3_8 C4_8 1_555 1_555
C9_5 C10_5 1_555 1_555
C19_5 C20_5 1_555 1_555
C23_8 C24_8 1_555 1_555
C29_5 C30_5 1_555 1_555
C33_8 C34_8 1_555 1_555
C39_5 C40_5 1_555 1_555
C43_8 C44_8 1_555 1_555
C53_8 C54_8 1_555 1_555
C78_5 C79_5 1_555 1_555
C79_5 O19_5 1_555 1_555
C82_5 C83_5 1_555 1_555
C83_5 O21_5 1_555 1_555
C86_5 C87_5 1_555 1_555
C87_5 O23_5 1_555 1_555
O24_5 La4_4 1_555 1_555
O24_5 N5_5 1_555 1_555
C90_5 C91_5 1_555 1_555
C91_5 O26_5 1_555 1_555
C94_5 C95_5 1_555 1_555
C95_5 O28_5 1_555 1_555
C103_7 C104_7 1_555 1_555
C106_5 C107_5 1_555 1_555
C107_5 C108_5 1_555 1_555
C110_5 N6_5 1_555 1_555
C111_8 C112_8 1_555 1_555
C113_8 C114_8 1_555 1_555
C119_8 C120_8 1_555 1_555
C125_8 C126_8 1_555 1_555
C131_8 C132_8 1_555 1_555
C137_8 C138_8 1_555 1_555
C149_8 C150_8 1_555 1_555
C118_8 H96_8 1_555 1_555
H82_8 C136_8 1_555 1_555
F7_9 C21_9 1_555 1_555
F8_9 C21_9 1_555 1_555
F9_9 C21_9 1_555 1_555
O17_6 N1_9 1_555 1_555
N1_9 C61_9 1_555 1_555
C4_9 O2_9 1_555 1_555
C14_9 O4_9 1_555 1_555
C21_9 C22_9 1_555 1_555
C22_9 O5_9 1_555 1_555
C23_9 C22_9 1_555 1_555
H13_9 C23_9 1_555 1_555
C24_9 O6_9 1_555 1_555
C61_9 C62_9 1_555 1_555
H61_9 C61_9 1_555 1_555
H62_9 C62_9 1_555 1_555
H63_9 C113_9 1_555 1_555
C133_9 C24_9 1_555 1_555
C134_9 C133_9 1_555 1_555
H80_9 C134_9 1_555 1_555
C135_9 C134_9 1_555 1_555
H83_9 C137_9 1_555 1_555
C138_9 C133_9 1_555 1_555
H84_9 C138_9 1_555 1_555
C145_9 C4_9 1_555 1_555
C146_9 C145_9 1_555 1_555
H90_9 C146_9 1_555 1_555
C147_9 C146_9 1_555 1_555
H91_9 C147_9 1_555 1_555
C148_9 C147_9 1_555 1_555
H92_9 C148_9 1_555 1_555
C149_9 C148_9 1_555 1_555
H93_9 C149_9 1_555 1_555
C150_9 C145_9 1_555 1_555
H94_9 C150_9 1_555 1_555
C23_9 C24_9 1_555 1_555
C137_9 C138_9 1_555 1_555
C149_9 C150_9 1_555 1_555
H82_9 C136_9 1_555 1_555
La7_2 O1_9 1_555 1_555
La8_2 O7_9 1_555 1_555
F4_9 C11_9 1_555 1_555
F5_9 C11_9 1_555 1_555
F10_9 C31_9 1_555 1_555
F11_9 C31_9 1_555 1_555
F12_9 C31_9 1_555 1_555
F13_9 C41_9 1_555 1_555
F14_9 C41_9 1_555 1_555
F15_9 C41_9 1_555 1_555
F16_9 C51_9 1_555 1_555
F17_9 C51_9 1_555 1_555
F18_9 C51_9 1_555 1_555
O1_9 C2_9 1_555 1_555
O3_9 La7_2 1_555 1_555
O7_9 C32_9 1_555 1_555
O8_9 La8_2 1_555 1_555
O9_9 La8_2 1_555 1_555
O10_9 La8_2 1_555 1_555
O11_9 La8_2 1_555 1_555
O12_9 La8_2 1_555 1_555
O14_9 La7_2 1_555 1_555
N2_9 O14_9 1_555 1_555
C2_9 C3_9 1_555 1_555
C11_9 C12_9 1_555 1_555
C12_9 O3_9 1_555 1_555
C31_9 C32_9 1_555 1_555
C32_9 C33_9 1_555 1_555
C33_9 H19_9 1_555 1_555
C34_9 O8_9 1_555 1_555
C41_9 C42_9 1_555 1_555
C42_9 O9_9 1_555 1_555
C43_9 C42_9 1_555 1_555
H25_9 C43_9 1_555 1_555
C44_9 O10_9 1_555 1_555
C51_9 C52_9 1_555 1_555
C52_9 O11_9 1_555 1_555
C53_9 C52_9 1_555 1_555
H31_9 C53_9 1_555 1_555
C54_9 O12_9 1_555 1_555
C63_9 C66_9 1_555 1_555
C66_9 C70_9 1_555 1_555
C68_9 N2_9 1_555 1_555
H41_9 C68_9 1_555 1_555
C70_9 C68_9 1_555 1_555
O16_7 La7_2 1_555 1_555
C112_9 C63_9 1_555 1_555
H59_9 C112_9 1_555 1_555
H60_9 C111_9 1_555 1_555
C114_9 N2_9 1_555 1_555
H64_9 C114_9 1_555 1_555
H65_9 C70_9 1_555 1_555
C115_9 C54_9 1_555 1_555
C116_9 C115_9 1_555 1_555
H66_9 C116_9 1_555 1_555
C117_9 C116_9 1_555 1_555
H67_9 C117_9 1_555 1_555
C118_9 C117_9 1_555 1_555
C119_9 C118_9 1_555 1_555
H68_9 C119_9 1_555 1_555
C120_9 C115_9 1_555 1_555
H69_9 C120_9 1_555 1_555
C121_9 C44_9 1_555 1_555
C122_9 C121_9 1_555 1_555
H70_9 C122_9 1_555 1_555
C123_9 C122_9 1_555 1_555
H71_9 C123_9 1_555 1_555
C124_9 C123_9 1_555 1_555
H72_9 C124_9 1_555 1_555
C125_9 C124_9 1_555 1_555
H73_9 C125_9 1_555 1_555
C126_9 C121_9 1_555 1_555
H74_9 C126_9 1_555 1_555
C127_9 C34_9 1_555 1_555
C128_9 C127_9 1_555 1_555
H75_9 C128_9 1_555 1_555
C129_9 C128_9 1_555 1_555
H76_9 C129_9 1_555 1_555
C130_9 C129_9 1_555 1_555
H77_9 C130_9 1_555 1_555
C131_9 C130_9 1_555 1_555
H78_9 C131_9 1_555 1_555
C132_9 C127_9 1_555 1_555
H79_9 C132_9 1_555 1_555
La8_2 O14_9 1_555 1_555
La8_2 O16_7 1_555 1_555
C33_9 C34_9 1_555 1_555
C43_9 C44_9 1_555 1_555
C53_9 C54_9 1_555 1_555
C111_9 C112_9 1_555 1_555
C119_9 C120_9 1_555 1_555
C125_9 C126_9 1_555 1_555
C131_9 C132_9 1_555 1_555
C118_9 H96_9 1_555 1_555
H7_9 C13_9 1_555 1_555
C140_9 C139_9 1_555 1_555
H85_9 C140_9 1_555 1_555
C141_9 C140_9 1_555 1_555
H86_9 C141_9 1_555 1_555
C142_9 C141_9 1_555 1_555
H87_9 C142_9 1_555 1_555
C143_9 C142_9 1_555 1_555
H88_9 C143_9 1_555 1_555
C144_9 C139_9 1_555 1_555
H89_9 C144_9 1_555 1_555
C143_9 C144_9 1_555 1_555
F1_9 C1_9 1_555 1_555
F2_9 C1_9 1_555 1_555
F3_9 C1_9 1_555 1_555
O16_7 N3_8 1_555 1_555
N3_8 C71_8 1_555 1_555
C71_8 H44_8 1_555 1_555
C72_8 C71_8 1_555 1_555
H45_8 C72_8 1_555 1_555
C73_8 C72_8 1_555 1_555
C103_8 C73_8 1_555 1_555
H56_8 C103_8 1_555 1_555
C104_8 N3_8 1_555 1_555
H57_8 C104_8 1_555 1_555
C103_8 C104_8 1_555 1_555
C74_8 H46_8 1_555 1_555
C75_8 C74_8 1_555 1_555
H47_8 C75_8 1_555 1_555
C101_8 C100_8 1_555 1_555
C102_8 C101_8 1_555 1_555
N4_8 C75_8 1_555 1_555
O16_6 N4_8 1_555 1_555
H54_8 C102_8 1_555 1_555
H55_8 C101_8 1_555 1_555
C74_8 C100_8 1_555 1_555
C102_8 N4_8 1_555 1_555
H4_6 C8_6 1_555 1_555
C9_6 C8_6 1_555 1_555
H5_6 C9_6 1_555 1_555
C35_6 C36_6 1_555 1_555
C36_6 H20_6 1_555 1_555
C37_6 C36_6 1_555 1_555
H21_6 C37_6 1_555 1_555
C38_6 C37_6 1_555 1_555
H22_6 C38_6 1_555 1_555
C39_6 C38_6 1_555 1_555
H23_6 C39_6 1_555 1_555
C40_6 C35_6 1_555 1_555
H36_6 C110_6 1_555 1_555
H37_6 C109_6 1_555 1_555
C64_6 H38_6 1_555 1_555
C65_6 C64_6 1_555 1_555
H39_6 C65_6 1_555 1_555
H43_6 C106_6 1_555 1_555
C108_6 C64_6 1_555 1_555
C109_6 C108_6 1_555 1_555
C110_6 C109_6 1_555 1_555
N6_6 C65_6 1_555 1_555
O17_7 N6_6 1_555 1_555
C39_6 C40_6 1_555 1_555
C106_6 C107_6 1_555 1_555
C107_6 C108_6 1_555 1_555
C110_6 N6_6 1_555 1_555
La5_4 O1_10 1_555 1_555
La6_4 O7_10 1_555 1_555
F1_10 C1_10 1_555 1_555
F2_10 C1_10 1_555 1_555
F3_10 C1_10 1_555 1_555
F4_10 C11_10 1_555 1_555
F5_10 C11_10 1_555 1_555
F6_10 C11_10 1_555 1_555
F7_10 C21_10 1_555 1_555
F8_10 C21_10 1_555 1_555
F9_10 C21_10 1_555 1_555
F10_10 C31_10 1_555 1_555
F11_10 C31_10 1_555 1_555
F12_10 C31_10 1_555 1_555
F13_10 C41_10 1_555 1_555
F14_10 C41_10 1_555 1_555
F15_10 C41_10 1_555 1_555
F16_10 C51_10 1_555 1_555
F17_10 C51_10 1_555 1_555
F18_10 C51_10 1_555 1_555
O1_10 C2_10 1_555 1_555
O2_10 La5_4 1_555 1_555
O3_10 La5_4 1_555 1_555
O4_10 La5_4 1_555 1_555
O5_10 La5_4 1_555 1_555
O6_10 La5_4 1_555 1_555
O7_10 C32_10 1_555 1_555
O8_10 La6_4 1_555 1_555
O9_10 La6_4 1_555 1_555
O10_10 La6_4 1_555 1_555
O11_10 La6_4 1_555 1_555
O12_10 La6_4 1_555 1_555
O13_5 N1_10 1_555 1_555
O14_10 La5_4 1_555 1_555
N1_10 C61_10 1_555 1_555
N2_10 O14_10 1_555 1_555
C1_10 C2_10 1_555 1_555
C2_10 C3_10 1_555 1_555
C3_10 H1_10 1_555 1_555
C4_10 O2_10 1_555 1_555
C5_6 C6_6 1_555 1_555
C6_6 H2_6 1_555 1_555
C7_6 C6_6 1_555 1_555
H3_6 C7_6 1_555 1_555
C10_6 C5_6 1_555 1_555
C11_10 C12_10 1_555 1_555
C12_10 O3_10 1_555 1_555
C13_10 C12_10 1_555 1_555
H7_10 C13_10 1_555 1_555
C14_10 O4_10 1_555 1_555
C15_6 C16_6 1_555 1_555
C16_6 H8_6 1_555 1_555
C17_6 C16_6 1_555 1_555
H9_6 C17_6 1_555 1_555
C18_6 C17_6 1_555 1_555
H10_6 C18_6 1_555 1_555
C19_6 C18_6 1_555 1_555
H11_6 C19_6 1_555 1_555
C20_6 C15_6 1_555 1_555
H12_6 C20_6 1_555 1_555
C21_10 C22_10 1_555 1_555
C22_10 O5_10 1_555 1_555
C23_10 C22_10 1_555 1_555
H13_10 C23_10 1_555 1_555
C24_10 O6_10 1_555 1_555
C25_6 C26_6 1_555 1_555
C26_6 H14_6 1_555 1_555
C27_6 C26_6 1_555 1_555
H15_6 C27_6 1_555 1_555
C28_6 C27_6 1_555 1_555
H16_6 C28_6 1_555 1_555
C29_6 C28_6 1_555 1_555
H17_6 C29_6 1_555 1_555
C30_6 C25_6 1_555 1_555
H18_6 C30_6 1_555 1_555
C31_10 C32_10 1_555 1_555
C32_10 C33_10 1_555 1_555
C33_10 H19_10 1_555 1_555
C34_10 O8_10 1_555 1_555
C41_10 C42_10 1_555 1_555
C42_10 O9_10 1_555 1_555
C43_10 C42_10 1_555 1_555
H25_10 C43_10 1_555 1_555
C44_10 O10_10 1_555 1_555
C45_6 C46_6 1_555 1_555
C46_6 H26_6 1_555 1_555
C47_6 C46_6 1_555 1_555
H27_6 C47_6 1_555 1_555
C48_6 C47_6 1_555 1_555
H28_6 C48_6 1_555 1_555
C49_6 C48_6 1_555 1_555
H29_6 C49_6 1_555 1_555
C50_6 C45_6 1_555 1_555
H30_6 C50_6 1_555 1_555
C51_10 C52_10 1_555 1_555
C52_10 O11_10 1_555 1_555
C53_10 C52_10 1_555 1_555
H31_10 C53_10 1_555 1_555
C54_10 O12_10 1_555 1_555
C55_6 C56_6 1_555 1_555
C56_6 H32_6 1_555 1_555
C57_6 C56_6 1_555 1_555
H33_6 C57_6 1_555 1_555
C58_6 C57_6 1_555 1_555
C59_6 C58_6 1_555 1_555
H34_6 C59_6 1_555 1_555
C60_6 C55_6 1_555 1_555
H35_6 C60_6 1_555 1_555
C61_10 C62_10 1_555 1_555
C62_10 C63_10 1_555 1_555
C63_10 C66_10 1_555 1_555
C66_10 C70_10 1_555 1_555
C67_6 H40_6 1_555 1_555
C68_10 N2_10 1_555 1_555
H41_10 C68_10 1_555 1_555
C69_6 C67_6 1_555 1_555
H42_6 C69_6 1_555 1_555
C70_10 C68_10 1_555 1_555
La5_3 O13_5 1_555 1_555
O18_6 La5_3 1_555 1_555
C76_6 O18_6 1_555 1_555
C77_6 C76_6 1_555 1_555
F19_6 C77_6 1_555 1_555
F20_6 C77_6 1_555 1_555
F21_6 C77_6 1_555 1_555
C78_6 C76_6 1_555 1_555
H48_6 C78_6 1_555 1_555
C79_6 C5_6 1_555 1_555
O19_6 La5_3 1_555 1_555
O20_6 La5_3 1_555 1_555
C80_6 O20_6 1_555 1_555
C81_6 C80_6 1_555 1_555
F22_6 C81_6 1_555 1_555
F23_6 C81_6 1_555 1_555
F24_6 C81_6 1_555 1_555
C82_6 C80_6 1_555 1_555
H49_6 C82_6 1_555 1_555
C83_6 C15_6 1_555 1_555
O21_6 La5_3 1_555 1_555
O22_6 La5_3 1_555 1_555
C84_6 O22_6 1_555 1_555
C85_6 C84_6 1_555 1_555
F25_6 C85_6 1_555 1_555
F26_6 C85_6 1_555 1_555
F27_6 C85_6 1_555 1_555
C86_6 C84_6 1_555 1_555
H50_6 C86_6 1_555 1_555
C87_6 C25_6 1_555 1_555
O23_6 La5_3 1_555 1_555
O24_6 La5_3 1_555 1_555
La6_3 O13_5 1_555 1_555
O25_6 La6_3 1_555 1_555
C88_6 O25_6 1_555 1_555
C89_6 C88_6 1_555 1_555
F28_6 C89_6 1_555 1_555
F29_6 C89_6 1_555 1_555
F30_6 C89_6 1_555 1_555
C90_6 C88_6 1_555 1_555
H51_6 C90_6 1_555 1_555
O26_6 La6_3 1_555 1_555
O27_6 La6_3 1_555 1_555
C92_6 O27_6 1_555 1_555
C93_6 C92_6 1_555 1_555
F31_6 C93_6 1_555 1_555
F32_6 C93_6 1_555 1_555
F33_6 C93_6 1_555 1_555
C94_6 C92_6 1_555 1_555
H52_6 C94_6 1_555 1_555
C95_6 C45_6 1_555 1_555
O28_6 La6_3 1_555 1_555
O29_6 La6_3 1_555 1_555
C96_6 O29_6 1_555 1_555
C97_6 C96_6 1_555 1_555
F34_6 C97_6 1_555 1_555
F35_6 C97_6 1_555 1_555
F36_6 C97_6 1_555 1_555
C98_6 C96_6 1_555 1_555
H53_6 C98_6 1_555 1_555
C99_6 C55_6 1_555 1_555
O30_6 La6_3 1_555 1_555
N5_6 C69_6 1_555 1_555
C105_6 N5_6 1_555 1_555
H58_6 C105_6 1_555 1_555
C111_10 N1_10 1_555 1_555
C112_10 C63_10 1_555 1_555
H59_10 C112_10 1_555 1_555
H60_10 C111_10 1_555 1_555
H61_10 C61_10 1_555 1_555
H62_10 C62_10 1_555 1_555
C113_10 C66_10 1_555 1_555
H63_10 C113_10 1_555 1_555
C114_10 N2_10 1_555 1_555
H64_10 C114_10 1_555 1_555
H65_10 C70_10 1_555 1_555
C115_10 C54_10 1_555 1_555
C116_10 C115_10 1_555 1_555
H66_10 C116_10 1_555 1_555
C117_10 C116_10 1_555 1_555
H67_10 C117_10 1_555 1_555
C118_10 C117_10 1_555 1_555
C119_10 C118_10 1_555 1_555
H68_10 C119_10 1_555 1_555
C120_10 C115_10 1_555 1_555
H69_10 C120_10 1_555 1_555
C121_10 C44_10 1_555 1_555
C122_10 C121_10 1_555 1_555
H70_10 C122_10 1_555 1_555
C123_10 C122_10 1_555 1_555
H71_10 C123_10 1_555 1_555
C124_10 C123_10 1_555 1_555
H72_10 C124_10 1_555 1_555
C125_10 C124_10 1_555 1_555
H73_10 C125_10 1_555 1_555
C126_10 C121_10 1_555 1_555
H74_10 C126_10 1_555 1_555
C127_10 C34_10 1_555 1_555
C128_10 C127_10 1_555 1_555
H75_10 C128_10 1_555 1_555
C129_10 C128_10 1_555 1_555
H76_10 C129_10 1_555 1_555
C130_10 C129_10 1_555 1_555
H77_10 C130_10 1_555 1_555
C131_10 C130_10 1_555 1_555
H78_10 C131_10 1_555 1_555
C132_10 C127_10 1_555 1_555
H79_10 C132_10 1_555 1_555
C133_10 C24_10 1_555 1_555
C134_10 C133_10 1_555 1_555
H80_10 C134_10 1_555 1_555
C135_10 C134_10 1_555 1_555
H81_10 C135_10 1_555 1_555
C136_10 C135_10 1_555 1_555
H82_10 C136_10 1_555 1_555
C137_10 C136_10 1_555 1_555
H83_10 C137_10 1_555 1_555
C138_10 C133_10 1_555 1_555
H84_10 C138_10 1_555 1_555
C139_10 C14_10 1_555 1_555
C140_10 C139_10 1_555 1_555
H85_10 C140_10 1_555 1_555
C141_10 C140_10 1_555 1_555
H86_10 C141_10 1_555 1_555
C142_10 C141_10 1_555 1_555
H87_10 C142_10 1_555 1_555
C143_10 C142_10 1_555 1_555
H88_10 C143_10 1_555 1_555
C144_10 C139_10 1_555 1_555
H89_10 C144_10 1_555 1_555
C145_10 C4_10 1_555 1_555
C146_10 C145_10 1_555 1_555
H90_10 C146_10 1_555 1_555
C147_10 C146_10 1_555 1_555
H91_10 C147_10 1_555 1_555
C148_10 C147_10 1_555 1_555
H92_10 C148_10 1_555 1_555
C149_10 C148_10 1_555 1_555
H93_10 C149_10 1_555 1_555
C150_10 C145_10 1_555 1_555
H94_10 C150_10 1_555 1_555
La6_4 O14_10 1_555 1_555
C3_10 C4_10 1_555 1_555
C13_10 C14_10 1_555 1_555
C19_6 C20_6 1_555 1_555
C23_10 C24_10 1_555 1_555
C29_6 C30_6 1_555 1_555
C33_10 C34_10 1_555 1_555
C43_10 C44_10 1_555 1_555
C49_6 C50_6 1_555 1_555
C53_10 C54_10 1_555 1_555
C59_6 C60_6 1_555 1_555
C78_6 C79_6 1_555 1_555
C79_6 O19_6 1_555 1_555
C82_6 C83_6 1_555 1_555
C83_6 O21_6 1_555 1_555
C86_6 C87_6 1_555 1_555
C87_6 O23_6 1_555 1_555
O24_6 La6_3 1_555 1_555
O24_6 N5_6 1_555 1_555
C90_6 C91_6 1_555 1_555
C91_6 O26_6 1_555 1_555
C94_6 C95_6 1_555 1_555
C95_6 O28_6 1_555 1_555
C98_6 C99_6 1_555 1_555
C99_6 O30_6 1_555 1_555
C111_10 C112_10 1_555 1_555
C113_10 C114_10 1_555 1_555
C119_10 C120_10 1_555 1_555
C125_10 C126_10 1_555 1_555
C131_10 C132_10 1_555 1_555
C137_10 C138_10 1_555 1_555
C143_10 C144_10 1_555 1_555
C149_10 C150_10 1_555 1_555
C58_6 H95_6 1_555 1_555
C118_10 H96_10 1_555 1_555

#END
