
###############################################################################
#
# This file contains modified crystal structure data generated from the
# MOF subset of the Cambridge Structural Database (CSD) v543 
# hosted by the Cambridge Crystallographic Data Centre (CCDC).
#
# This work is licensed under the Creative Commons
# Attribution-NonCommercial-ShareAlike 4.0 International License.
# To view a copy of this license, visit
# http://creativecommons.org/licenses/by-nc-sa/4.0/
# or send a letter to
# Creative Commons, PO Box 1866, Mountain View, CA 94042, USA.
#
# CIF created using the CSD Python API on 29 September 2022
# The structure has been converted into the P1 space group
# The structure has a 3D framework
# The original CSD entry QAFSAV is in the triclinic crystal system
# The framework has been calculated to contain at least 10.0% void space
# The void calculation uses a probe of radius 1.32A, grid spacing 0.4
# The framework is charged, counterions have been retained in the structure
#
###############################################################################

data_QAFSAV
_chemical_formula_moiety         '(C2 H10 Al2 B14 K4 N2 O26)n'
_symmetry_cell_setting           triclinic
_symmetry_space_group_name_H-M   'P 1'
_symmetry_Int_Tables_number      1
_space_group_name_Hall           'P 1'
loop_
_symmetry_equiv_pos_site_id
_symmetry_equiv_pos_as_xyz
1 x,y,z
_cell_length_a                   7.0972(2)
_cell_length_b                   11.8913(6)
_cell_length_c                   12.1505(5)
_cell_angle_alpha                109.108(4)
_cell_angle_beta                 90.871(3)
_cell_angle_gamma                105.403(4)
_cell_volume                     928.248
loop_
_atom_site_label
_atom_site_type_symbol
_atom_site_fract_x
_atom_site_fract_y
_atom_site_fract_z
O2 O 0.1300(4) 0.8886(3) 0.0348(2)
Al10 Al 0.28611(16) 0.95963(11) 0.16548(10)
Al1 Al 0.71389(16) 0.04037(11) 0.83452(10)
O34 O 0.8700(4) 0.1114(3) 0.9652(2)
O36 O 0.8235(4) 0.0960(3) 0.7290(3)
O38 O 0.4818(4) 0.0620(3) 0.8530(2)
O6 O 0.5182(4) 0.9380(3) 0.1470(2)
B6 B 0.9364(7) 0.8635(4) 0.0052(4)
B7 B 0.6222(6) 0.8963(4) 0.0595(4)
O15 O 0.8154(4) 0.9023(3) 0.0919(2)
O3 O 0.1765(4) 0.9040(3) 0.2710(3)
B1 B 0.2159(7) 0.8744(4) 0.3635(4)
O4 O 0.0691(4) 0.8435(3) 0.4294(3)
B2 B 0.0950(6) 0.7946(4) 0.5223(4)
O5 O 0.3030(4) 0.8195(3) 0.5624(2)
B3 B 0.4491(7) 0.8483(4) 0.4956(4)
Al2 Al 0.74002(17) 0.80993(11) 0.62453(10)
B4 B 0.6611(6) 0.7992(4) 0.8503(4)
B5 B 0.5377(7) 0.6028(4) 0.6724(4)
C1 C 0.0407(7) 0.5687(4) 0.5312(4)
N1 N 0.0155(6) 0.6408(3) 0.4558(3)
O7 O 0.5526(4) 0.8540(3) 0.9444(2)
O8 O 0.8569(4) 0.8022(3) 0.8925(2)
O9 O 0.5422(4) 0.6724(3) 0.7869(2)
O10 O 0.6872(4) 0.8766(3) 0.7705(2)
O11 O 0.4357(5) 0.4787(3) 0.6398(3)
H1 H 0.4250 0.4468 0.5682
O12 O 0.6220(4) 0.6504(3) 0.5928(2)
O13 O 0.6365(4) 0.8561(3) 0.5232(2)
O14 O 0.4053(4) 0.8711(3) 0.3941(3)
H2 H 0.173(8) 0.581(5) 0.549(4)
H5 H 0.067(9) 0.606(6) 0.400(6)
O16 O 0.0132(4) 0.1698(3) 0.3833(2)
H7 H 0.029(8) 0.417(5) 0.405(5)
H8 H 0.109(9) 0.384(5) 0.561(5)
O31 O 0.9868(4) 0.8302(3) 0.6167(2)
Al12 Al 0.25998(17) 0.19007(11) 0.37547(10)
H3 H 0.971(8) 0.583(5) 0.595(5)
H4 H 0.891(9) 0.616(5) 0.439(5)
B8 B 0.7841(7) 0.1256(4) 0.6365(4)
O18 O 0.9309(4) 0.1565(3) 0.5706(3)
B9 B 0.9050(6) 0.2054(4) 0.4777(4)
O19 O 0.6970(4) 0.1805(3) 0.4376(2)
B10 B 0.5509(7) 0.1517(4) 0.5044(4)
C2 C 0.9593(7) 0.4313(4) 0.4688(4)
N2 N 0.9845(6) 0.3592(3) 0.5442(3)
O20 O 0.3635(4) 0.1439(3) 0.4768(2)
O21 O 0.5947(4) 0.1289(3) 0.6059(3)
H6 H 0.827(8) 0.419(5) 0.451(4)
H9 H 0.933(9) 0.394(6) 0.600(6)
B11 B 0.3389(6) 0.2008(4) 0.1497(4)
B12 B 0.4623(7) 0.3972(4) 0.3276(4)
O24 O 0.4474(4) 0.1460(3) 0.0556(2)
O25 O 0.1431(4) 0.1978(3) 0.1075(2)
O26 O 0.4578(4) 0.3276(3) 0.2131(2)
O27 O 0.3128(4) 0.1234(3) 0.2295(2)
O28 O 0.5643(5) 0.5213(3) 0.3602(3)
H10 H 0.5750 0.5532 0.4318
O29 O 0.3780(4) 0.3496(3) 0.4072(2)
B13 B 0.0636(7) 0.1365(4) 0.9948(4)
B14 B 0.3778(6) 0.1037(4) 0.9405(4)
O30 O 0.1846(4) 0.0977(3) 0.9081(2)
K1 K 0.21620(14) 0.81473(10) 0.79895(8)
K1_2 K 0.78380(14) 0.18527(10) 0.20105(8)
K2 K 0.21308(14) 0.08696(10) 0.67387(9)
K2_2 K 0.78692(14) 0.91304(10) 0.32613(9)
loop_
_geom_bond_atom_site_label_1
_geom_bond_atom_site_label_2
_geom_bond_site_symmetry_1
_geom_bond_site_symmetry_2
Al10 O2 1_555 1_555
O34 Al1 1_555 1_555
O36 Al1 1_555 1_555
O38 Al1 1_555 1_555
O6 B7 1_555 1_555
O15 B6 1_555 1_555
Al10 O6 1_555 1_555
B7 O15 1_555 1_555
O3 B1 1_555 1_555
B1 O4 1_555 1_555
O4 B2 1_555 1_555
B2 O5 1_555 1_555
O5 B3 1_555 1_555
B3 O13 1_555 1_555
Al2 O10 1_555 1_555
B4 O7 1_555 1_555
B5 O9 1_555 1_555
C1 N1 1_555 1_555
N1 B2 1_555 1_555
O8 B4 1_555 1_555
O9 B4 1_555 1_555
O10 B4 1_555 1_555
O11 B5 1_555 1_555
H1 O11 1_555 1_555
O12 Al2 1_555 1_555
O13 Al2 1_555 1_555
O14 B1 1_555 1_555
H2 C1 1_555 1_555
H5 N1 1_555 1_555
Al10 O3 1_555 1_555
O31 Al2 1_555 1_555
Al12 O16 1_555 1_555
B3 O14 1_555 1_555
B5 O12 1_555 1_555
O36 B8 1_555 1_555
B8 O18 1_555 1_555
O18 B9 1_555 1_555
B9 O19 1_555 1_555
O19 B10 1_555 1_555
B10 O20 1_555 1_555
N2 B9 1_555 1_555
O20 Al12 1_555 1_555
O21 B8 1_555 1_555
H6 C2 1_555 1_555
H9 N2 1_555 1_555
Al12 O27 1_555 1_555
B11 O24 1_555 1_555
B12 O26 1_555 1_555
O25 B11 1_555 1_555
O26 B11 1_555 1_555
O27 B11 1_555 1_555
O28 B12 1_555 1_555
H10 O28 1_555 1_555
O29 Al12 1_555 1_555
B10 O21 1_555 1_555
C2 N2 1_555 1_555
B12 O29 1_555 1_555
O38 B14 1_555 1_555
O30 B13 1_555 1_555
B14 O30 1_555 1_555

#END
