
###############################################################################
#
# This file contains modified crystal structure data generated from the
# MOF subset of the Cambridge Structural Database (CSD) v543 
# hosted by the Cambridge Crystallographic Data Centre (CCDC).
#
# This work is licensed under the Creative Commons
# Attribution-NonCommercial-ShareAlike 4.0 International License.
# To view a copy of this license, visit
# http://creativecommons.org/licenses/by-nc-sa/4.0/
# or send a letter to
# Creative Commons, PO Box 1866, Mountain View, CA 94042, USA.
#
# CIF created using the CSD Python API on 29 September 2022
# The structure has been converted into the P1 space group
# The structure has a 3D framework
# The original CSD entry QAFSEZ is in the triclinic crystal system
# The framework has been calculated to contain at least 10.0% void space
# The void calculation uses a probe of radius 1.32A, grid spacing 0.4
# The framework is charged, counterions have been retained in the structure
#
###############################################################################

data_QAFSEZ
_chemical_formula_moiety         '(C2 H10 B14 Ga2 K4 N2 O28)n'
_symmetry_cell_setting           triclinic
_symmetry_space_group_name_H-M   'P 1'
_symmetry_Int_Tables_number      1
_space_group_name_Hall           'P 1'
loop_
_symmetry_equiv_pos_site_id
_symmetry_equiv_pos_as_xyz
1 x,y,z
_cell_length_a                   7.1132(3)
_cell_length_b                   12.2052(7)
_cell_length_c                   12.3686(7)
_cell_angle_alpha                109.731(6)
_cell_angle_beta                 106.266(4)
_cell_angle_gamma                90.672(4)
_cell_volume                     963.576
loop_
_atom_site_label
_atom_site_type_symbol
_atom_site_fract_x
_atom_site_fract_y
_atom_site_fract_z
O7 O 0.6324(7) 0.0217(4) 0.8843(5)
O8 O 0.3229(8) 0.0857(4) 0.9016(5)
O11 O 0.0331(8) 0.1497(4) 0.9374(5)
B3 B 0.1325(13) 0.0584(8) 0.8986(9)
Ga10 Ga 0.78799(11) 0.16115(7) 0.95494(8)
Ga1 Ga 0.21201(11) 0.83885(7) 0.04506(8)
O32 O 0.3400(8) 0.7306(5) 0.1005(6)
O36 O 0.3676(7) 0.9783(4) 0.1157(5)
O4 O 0.1375(7) 0.5113(4) 0.8586(6)
Ga2 Ga 0.23618(12) 0.61873(7) 0.81094(8)
O9 O 0.0544(7) 0.9448(4) 0.8584(5)
O10 O 0.3527(8) 0.8843(4) 0.8079(5)
O12 O 0.1758(8) 0.7692(4) 0.8791(5)
O13 O 0.0325(8) 0.7833(5) 0.6828(5)
O15 O 0.1123(8) 0.5869(5) 0.6492(5)
B4 B 0.4379(13) 0.9976(7) 0.8650(8)
B5 B 0.1553(12) 0.8467(8) 0.8044(9)
B6 B 0.0288(13) 0.6700(8) 0.6087(9)
O33 O 0.4973(8) 0.6177(5) 0.8345(6)
O38 O 0.9669(8) 0.8503(4) 0.0626(5)
O1 O 0.6600(8) 0.2694(5) 0.8995(6)
O2 O 0.5667(8) 0.4277(5) 0.8416(7)
B1 B 0.5994(16) 0.5186(10) 0.7958(10)
O3 O 0.8068(8) 0.5559(5) 0.8219(6)
B2 B 0.9512(13) 0.4888(8) 0.8521(9)
O5 O 0.9017(8) 0.3904(5) 0.8771(6)
O14 O 0.9362(10) 0.6434(5) 0.4890(6)
H1 H 0.9276 0.5725 0.4537
N1 N 0.5109(14) 0.4554(8) 0.6437(9)
H2 H 0.5747 0.3853 0.6190
H3 H 0.3712 0.4306 0.6226
C1 C 0.5373(18) 0.5325(13) 0.5676(12)
H4 H 0.4673 0.6006 0.5880
H5 H 0.6761 0.5602 0.5900
B7 B 0.7099(13) 0.3606(8) 0.8750(10)
O17 O 0.4333(8) 0.5723(5) 0.1584(7)
B8 B 0.4006(16) 0.4814(10) 0.2042(10)
O18 O 0.1932(8) 0.4441(5) 0.1781(6)
B9 B 0.0488(13) 0.5112(8) 0.1479(9)
O20 O 0.0983(8) 0.6096(5) 0.1229(6)
O21 O 0.5027(8) 0.3823(5) 0.1655(6)
N2 N 0.4891(14) 0.5446(8) 0.3563(9)
H6 H 0.4253 0.6147 0.3810
H7 H 0.6288 0.5694 0.3774
C2 C 0.4627(18) 0.4675(13) 0.4324(12)
H8 H 0.5327 0.3994 0.4120
H9 H 0.3239 0.4398 0.4100
B10 B 0.2901(13) 0.6394(8) 0.1250(10)
O29 O 0.0638(10) 0.3566(5) 0.5110(6)
H10 H 0.0724 0.4275 0.5463
Ga12 Ga 0.76382(12) 0.38127(7) 0.18906(8)
O19 O 0.8625(7) 0.4887(4) 0.1414(6)
O24 O 0.9456(7) 0.0552(4) 0.1416(5)
O25 O 0.6473(8) 0.1157(4) 0.1921(5)
O27 O 0.8242(8) 0.2308(4) 0.1209(5)
O28 O 0.9675(8) 0.2167(5) 0.3172(5)
O30 O 0.8877(8) 0.4131(5) 0.3508(5)
B12 B 0.5621(13) 0.0024(7) 0.1350(8)
B13 B 0.8447(12) 0.1533(8) 0.1956(9)
B14 B 0.9712(13) 0.3300(8) 0.3913(9)
O23 O 0.6771(8) 0.9143(4) 0.0984(5)
B11 B 0.8675(13) 0.9416(8) 0.1014(9)
K1 K 0.7206(3) 0.79291(18) 0.8159(2)
K1_2 K 0.2794(3) 0.20709(18) 0.1841(2)
K2 K 0.2861(4) 0.3213(3) 0.9144(4)
K2_2 K 0.7139(4) 0.6787(3) 0.0856(4)
loop_
_geom_bond_atom_site_label_1
_geom_bond_atom_site_label_2
_geom_bond_site_symmetry_1
_geom_bond_site_symmetry_2
O8 B3 1_555 1_555
O11 B3 1_555 1_555
Ga10 O7 1_555 1_555
O32 Ga1 1_555 1_555
O36 Ga1 1_555 1_555
O4 Ga2 1_555 1_555
Ga2 O12 1_555 1_555
O10 B4 1_555 1_555
O12 B5 1_555 1_555
O13 B5 1_555 1_555
O15 Ga2 1_555 1_555
B5 O9 1_555 1_555
B6 O13 1_555 1_555
O33 Ga2 1_555 1_555
O10 B5 1_555 1_555
O15 B6 1_555 1_555
O1 B7 1_555 1_555
O2 B1 1_555 1_555
B1 O3 1_555 1_555
O3 B2 1_555 1_555
O5 B2 1_555 1_555
O33 B1 1_555 1_555
O14 H1 1_555 1_555
N1 B1 1_555 1_555
H2 N1 1_555 1_555
H3 N1 1_555 1_555
C1 N1 1_555 1_555
H4 C1 1_555 1_555
H5 C1 1_555 1_555
B7 O2 1_555 1_555
O32 B10 1_555 1_555
O17 B8 1_555 1_555
B8 O18 1_555 1_555
O18 B9 1_555 1_555
O20 B9 1_555 1_555
O21 B8 1_555 1_555
N2 B8 1_555 1_555
H6 N2 1_555 1_555
H7 N2 1_555 1_555
C2 C1 1_555 1_555
H8 C2 1_555 1_555
H9 C2 1_555 1_555
B10 O17 1_555 1_555
O29 H10 1_555 1_555
Ga10 O1 1_555 1_555
Ga12 O21 1_555 1_555
O5 B7 1_555 1_555
O20 B10 1_555 1_555
N2 C2 1_555 1_555
O19 Ga12 1_555 1_555
Ga12 O27 1_555 1_555
O25 B12 1_555 1_555
O27 B13 1_555 1_555
O28 B13 1_555 1_555
O30 Ga12 1_555 1_555
B13 O24 1_555 1_555
B14 O28 1_555 1_555
O25 B13 1_555 1_555
O30 B14 1_555 1_555
O23 B11 1_555 1_555
O38 B11 1_555 1_555

#END
