
###############################################################################
#
# This file contains modified crystal structure data generated from the
# MOF subset of the Cambridge Structural Database (CSD) v543 
# hosted by the Cambridge Crystallographic Data Centre (CCDC).
#
# This work is licensed under the Creative Commons
# Attribution-NonCommercial-ShareAlike 4.0 International License.
# To view a copy of this license, visit
# http://creativecommons.org/licenses/by-nc-sa/4.0/
# or send a letter to
# Creative Commons, PO Box 1866, Mountain View, CA 94042, USA.
#
# CIF created using the CSD Python API on 29 September 2022
# The structure has been converted into the P1 space group
# The structure has a 3D framework
# The original CSD entry QAGDIO is in the orthorhombic crystal system
# The original CSD entry QAGDIO is in a Sohncke space group
# The framework has been calculated to contain at least 10.0% void space
# The void calculation uses a probe of radius 1.32A, grid spacing 0.4
#
###############################################################################

data_QAGDIO
_chemical_formula_moiety         '(C268 H160 Cu32 N48 O96)n'
_symmetry_cell_setting           triclinic
_symmetry_space_group_name_H-M   'P 1'
_symmetry_Int_Tables_number      1
_space_group_name_Hall           'P 1'
loop_
_symmetry_equiv_pos_site_id
_symmetry_equiv_pos_as_xyz
1 x,y,z
_cell_length_a                   46.0575(6)
_cell_length_b                   20.9442(3)
_cell_length_c                   14.1001(3)
_cell_angle_alpha                90
_cell_angle_beta                 90
_cell_angle_gamma                90
_cell_volume                     13601.5
loop_
_atom_site_label
_atom_site_type_symbol
_atom_site_fract_x
_atom_site_fract_y
_atom_site_fract_z
Cu13 Cu 0.195124(7) 0.0000 0.0000
Cu14 Cu 0.137553(7) 0.0000 0.0000
Cu13_2 Cu 0.195124(7) 0.0000 1.0000
Cu14_2 Cu 0.137553(7) 0.0000 1.0000
Cu13_3 Cu 0.195124(7) 1.0000 0.0000
Cu14_3 Cu 0.137553(7) 1.0000 0.0000
O1 O 0.19061(5) 0.06703(11) 0.09637(16)
O3 O 0.24140(5) 0.0000 0.0000
O4 O 0.14191(5) 0.06296(12) 0.09982(17)
O6 O 0.09111(4) 0.0000 0.0000
C1 C 0.16677(7) 0.08601(15) 0.1236(2)
H2 H 0.0852 0.0252 0.0401
C3 C 0.16555(7) 0.14021(16) 0.1918(2)
C5 C 0.18851(7) 0.15495(16) 0.2480(2)
C6 C 0.13964(7) 0.17595(18) 0.1972(3)
C9 C 0.18740(7) 0.20898(15) 0.3089(2)
H3 H 0.2051 0.1295 0.2467
C10 C 0.13884(7) 0.22832(19) 0.2559(3)
H4 H 0.1234 0.1643 0.1618
C13 C 0.21192(6) 0.22402(16) 0.3730(2)
C14 C 0.16266(7) 0.24491(18) 0.3129(3)
N1 N 0.11240(6) 0.26577(18) 0.2578(3)
O7 O 0.22871(4) 0.17955(12) 0.39562(17)
O8 O 0.21337(5) 0.28020(12) 0.40255(18)
H7 H 0.1616 0.2801 0.3530
N3 N 0.09311(7) 0.2631(2) 0.1887(3)
C17 C 0.10289(7) 0.30195(19) 0.3296(3)
Cu3 Cu 0.258461(5) 0.189463(11) 0.49657(4)
N5 N 0.07085(7) 0.29779(19) 0.2143(2)
H9 H 0.1125 0.3116 0.3858
C19 C 0.07597(6) 0.32160(16) 0.3022(2)
O11 O 0.27401(5) 0.09345(8) 0.4941(3)
C21 C 0.05614(5) 0.36595(14) 0.3509(2)
H11 H 0.2931 0.0860 0.4810
H12 H 0.2621 0.0610 0.5100
C23 C 0.03003(6) 0.38689(12) 0.30895(19)
C24 C 0.06190(6) 0.3854(2) 0.4410(2)
H13 H 0.0246 0.3713 0.2498
C27 C 0.01250(5) 0.43023(11) 0.35480(17)
C28 C 0.04429(5) 0.42929(16) 0.4883(3)
H14 H 0.0781 0.3689 0.4721
C31 C 0.01919(4) 0.45409(12) 0.44269(15)
H18 H 0.0490 0.4423 0.5495
H19 H 0.0268 0.3905 0.0409
C33 C 0.0000 0.5000 0.5000
C34 C 0.0000 0.5000 0.0000
H21 H 0.2473 0.0266 0.0380
Cu4 Cu 0.241539(5) 0.310537(11) 0.49657(4)
O16 O 0.28663(5) 0.21980(12) 0.40255(18)
O17 O 0.22839(4) 0.17609(11) 0.59306(16)
O18 O 0.28462(5) 0.22064(12) 0.59553(18)
O19 O 0.22599(5) 0.40655(8) 0.4941(3)
O20 O 0.27129(4) 0.32045(12) 0.39562(17)
O21 O 0.27161(4) 0.32391(11) 0.59306(16)
O22 O 0.21538(5) 0.27936(12) 0.59553(18)
H23 H 0.2069 0.4140 0.4810
H24 H 0.2379 0.4390 0.5100
C36 C 0.01919(4) 0.54591(12) 0.55731(15)
C39 C 0.02096(5) 0.54171(11) 0.05874(15)
C43 C 0.01250(5) 0.56977(11) 0.64520(17)
C44 C 0.04429(5) 0.57071(16) 0.5117(3)
C49 C 0.03278(7) 0.59644(13) 0.0191(3)
C50 C 0.03222(4) 0.52221(13) 0.14489(16)
H29 H 0.0045 0.5562 0.3252
C55 C 0.03003(6) 0.61311(12) 0.69105(19)
H32 H 0.0490 0.5577 0.4505
C56 C 0.06190(6) 0.6146(2) 0.5590(2)
H33 H 0.0045 0.4438 0.6748
C61 C 0.05343(7) 0.63213(16) 0.0680(2)
C62 C 0.05266(5) 0.55681(15) 0.1922(2)
H38 H 0.0256 0.4842 0.1714
C66 C 0.05614(5) 0.63405(14) 0.6491(2)
H43 H 0.0246 0.6287 0.7502
H44 H 0.0781 0.6311 0.5279
C69 C 0.06297(6) 0.61351(14) 0.1547(2)
H49 H 0.0608 0.6692 0.0408
H50 H 0.0597 0.5422 0.2500
C72 C 0.07597(6) 0.67840(16) 0.6978(2)
C75 C 0.08568(6) 0.64986(16) 0.2046(2)
N8 N 0.07085(7) 0.70221(19) 0.7857(2)
C78 C 0.10289(7) 0.69805(19) 0.6704(3)
C81 C 0.10232(7) 0.70063(17) 0.1729(3)
N11 N 0.09383(8) 0.63765(17) 0.2960(2)
N15 N 0.09311(7) 0.7369(2) 0.8113(3)
N16 N 0.11240(6) 0.73423(18) 0.7422(3)
H54 H 0.1125 0.6884 0.6142
N21 N 0.11951(7) 0.71694(18) 0.2466(3)
H57 H 0.1018 0.7196 0.1133
N22 N 0.11492(10) 0.6761(2) 0.3195(3)
C84 C 0.13884(7) 0.77168(19) 0.7441(3)
C87 C 0.14264(8) 0.76158(19) 0.2486(3)
C91 C 0.16266(7) 0.75509(18) 0.6871(3)
C92 C 0.13964(7) 0.82405(18) 0.8028(3)
C97 C 0.16536(8) 0.74891(19) 0.3072(3)
C98 C 0.14249(7) 0.81545(18) 0.1892(3)
C103 C 0.18740(7) 0.79102(15) 0.6911(2)
H61 H 0.1616 0.7199 0.6470
C104 C 0.16555(7) 0.85979(16) 0.8082(2)
H62 H 0.1234 0.8357 0.8382
C109 C 0.18860(7) 0.79335(17) 0.3112(3)
H67 H 0.1657 0.7120 0.3438
C110 C 0.16574(7) 0.85582(16) 0.1891(2)
H68 H 0.1266 0.8235 0.1501
C116 C 0.21192(6) 0.77598(16) 0.6270(2)
C117 C 0.18851(7) 0.84505(16) 0.7520(2)
C118 C 0.16677(7) 0.91399(15) 0.8764(2)
C125 C 0.18909(7) 0.84453(16) 0.2526(2)
C126 C 0.21294(6) 0.77810(18) 0.3800(2)
C127 C 0.16570(7) 0.91264(15) 0.1233(2)
O35 O 0.22871(4) 0.82045(12) 0.60438(17)
O36 O 0.21337(5) 0.71980(12) 0.59745(18)
H72 H 0.2051 0.8705 0.7533
O37 O 0.19061(5) 0.93297(11) 0.90363(16)
O38 O 0.14191(5) 0.93704(12) 0.90018(17)
H75 H 0.2048 0.8724 0.2540
O47 O 0.22839(4) 0.82391(11) 0.40694(16)
O48 O 0.21538(5) 0.72064(12) 0.40447(18)
O49 O 0.19034(5) 0.93439(11) 0.10114(17)
O50 O 0.14211(5) 0.93025(11) 0.09233(19)
Cu11 Cu 0.258461(5) 0.810537(11) 0.50343(4)
Cu12 Cu 0.241539(5) 0.689463(11) 0.50343(4)
Cu13_4 Cu 0.195124(7) 1.0000 1.0000
Cu14_4 Cu 0.137553(7) 1.0000 1.0000
O2 O 0.19034(5) 0.06561(11) 0.89886(17)
O3_2 O 0.24140(5) 0.0000 1.0000
O5 O 0.14211(5) 0.06975(11) 0.90767(19)
O6_2 O 0.09111(4) 0.0000 1.0000
C2 C 0.16570(7) 0.08736(15) 0.8767(2)
C4 C 0.16574(7) 0.14418(16) 0.8109(2)
C7 C 0.18909(7) 0.15547(16) 0.7474(2)
C8 C 0.14249(7) 0.18455(18) 0.8108(3)
H5 H 0.2048 0.1276 0.7460
C11 C 0.18860(7) 0.20665(17) 0.6888(3)
H6 H 0.1266 0.1765 0.8499
C12 C 0.14264(8) 0.23842(19) 0.7514(3)
C15 C 0.21294(6) 0.22190(18) 0.6200(2)
C16 C 0.16536(8) 0.25109(19) 0.6928(3)
N2 N 0.11951(7) 0.28306(18) 0.7534(3)
H8 H 0.1657 0.2880 0.6562
C18 C 0.10232(7) 0.29937(17) 0.8271(3)
N4 N 0.11492(10) 0.3239(2) 0.6805(3)
H10 H 0.1018 0.2804 0.8867
C20 C 0.08568(6) 0.35014(16) 0.7954(2)
N6 N 0.09383(8) 0.36235(17) 0.7040(2)
C22 C 0.06297(6) 0.38649(14) 0.8453(2)
C25 C 0.05343(7) 0.36787(16) 0.9320(2)
C26 C 0.05266(5) 0.44319(15) 0.8078(2)
H15 H 0.0608 0.3308 0.9592
C29 C 0.03278(7) 0.40356(13) 0.9809(3)
H16 H 0.0597 0.4578 0.7500
C30 C 0.03222(4) 0.47779(13) 0.85511(16)
C32 C 0.02096(5) 0.45829(11) 0.94126(15)
H20 H 0.0256 0.5158 0.8286
C34_2 C 0.0000 0.5000 1.0000
H37 H 0.0268 0.6095 0.9591
O3_3 O 0.24140(5) 1.0000 0.0000
O6_3 O 0.09111(4) 1.0000 0.0000
O3_4 O 0.24140(5) 1.0000 1.0000
O6_4 O 0.09111(4) 1.0000 1.0000
H1 H 0.2473 0.9734 0.9620
H22 H 0.0852 0.9748 0.9599
Cu9 Cu 0.804876(7) 0.0000 0.0000
Cu10 Cu 0.862447(7) 0.0000 0.0000
Cu9_2 Cu 0.804876(7) 0.0000 1.0000
Cu10_2 Cu 0.862447(7) 0.0000 1.0000
H17 H 0.9955 0.4438 0.3252
C33_2 C 1.0000 0.5000 0.5000
C34_3 C 1.0000 0.5000 0.0000
C35 C 0.98081(4) 0.54591(12) 0.44269(15)
C37 C 0.98081(4) 0.45409(12) 0.55731(15)
C40 C 0.97904(5) 0.45829(11) 0.05874(15)
C41 C 0.98750(5) 0.56977(11) 0.35480(17)
C42 C 0.95571(5) 0.57071(16) 0.4883(3)
C45 C 0.98750(5) 0.43023(11) 0.64520(17)
C46 C 0.95571(5) 0.42929(16) 0.5117(3)
C51 C 0.96722(7) 0.40356(13) 0.0191(3)
C52 C 0.96778(4) 0.47779(13) 0.14489(16)
C53 C 0.96997(6) 0.61311(12) 0.30895(19)
H30 H 0.9510 0.5577 0.5495
C54 C 0.93810(6) 0.6146(2) 0.4410(2)
H31 H 0.9955 0.5562 0.6748
C57 C 0.96997(6) 0.38689(12) 0.69105(19)
H34 H 0.9510 0.4423 0.4505
C58 C 0.93810(6) 0.3854(2) 0.5590(2)
H35 H 0.9732 0.6095 0.0409
C63 C 0.94657(7) 0.36787(16) 0.0680(2)
C64 C 0.94734(5) 0.44319(15) 0.1922(2)
H40 H 0.9744 0.5158 0.1714
C65 C 0.94386(5) 0.63405(14) 0.3509(2)
H41 H 0.9754 0.6287 0.2498
H42 H 0.9219 0.6311 0.4721
C67 C 0.94386(5) 0.36595(14) 0.6491(2)
H45 H 0.9754 0.3713 0.7502
H46 H 0.9219 0.3689 0.5279
C70 C 0.93703(6) 0.38649(14) 0.1547(2)
H51 H 0.9392 0.3308 0.0408
H52 H 0.9403 0.4578 0.2500
C71 C 0.92403(6) 0.67840(16) 0.3022(2)
C73 C 0.92403(6) 0.32160(16) 0.6978(2)
C76 C 0.91432(6) 0.35014(16) 0.2046(2)
N7 N 0.92915(7) 0.70221(19) 0.2143(2)
C77 C 0.89711(7) 0.69805(19) 0.3296(3)
N9 N 0.92915(7) 0.29779(19) 0.7857(2)
C79 C 0.89711(7) 0.30195(19) 0.6704(3)
C82 C 0.89768(7) 0.29937(17) 0.1729(3)
N12 N 0.90617(8) 0.36235(17) 0.2960(2)
N13 N 0.90689(7) 0.7369(2) 0.1887(3)
N14 N 0.88760(6) 0.73423(18) 0.2578(3)
H53 H 0.8875 0.6884 0.3858
N17 N 0.90689(7) 0.2631(2) 0.8113(3)
N18 N 0.88760(6) 0.26577(18) 0.7422(3)
H55 H 0.8875 0.3116 0.6142
N23 N 0.88049(7) 0.28306(18) 0.2466(3)
H58 H 0.8982 0.2804 0.1133
N24 N 0.88508(10) 0.3239(2) 0.3195(3)
C83 C 0.86116(7) 0.77168(19) 0.2559(3)
C85 C 0.86116(7) 0.22832(19) 0.7441(3)
C88 C 0.85736(8) 0.23842(19) 0.2486(3)
C89 C 0.83734(7) 0.75509(18) 0.3129(3)
C90 C 0.86036(7) 0.82405(18) 0.1972(3)
C93 C 0.83734(7) 0.24491(18) 0.6871(3)
C94 C 0.86036(7) 0.17595(18) 0.8028(3)
C99 C 0.83464(8) 0.25109(19) 0.3072(3)
C100 C 0.85751(7) 0.18455(18) 0.1892(3)
C101 C 0.81260(7) 0.79102(15) 0.3089(2)
H59 H 0.8384 0.7199 0.3530
C102 C 0.83445(7) 0.85979(16) 0.1918(2)
H60 H 0.8766 0.8357 0.1618
C105 C 0.81260(7) 0.20898(15) 0.6911(2)
H63 H 0.8384 0.2801 0.6470
C106 C 0.83445(7) 0.14021(16) 0.8082(2)
H64 H 0.8766 0.1643 0.8382
C111 C 0.81140(7) 0.20665(17) 0.3112(3)
H69 H 0.8343 0.2880 0.3438
C112 C 0.83426(7) 0.14418(16) 0.1891(2)
H70 H 0.8734 0.1765 0.1501
C113 C 0.78808(6) 0.77598(16) 0.3730(2)
C114 C 0.81149(7) 0.84505(16) 0.2480(2)
C115 C 0.83323(7) 0.91399(15) 0.1236(2)
C119 C 0.78808(6) 0.22402(16) 0.6270(2)
C120 C 0.81149(7) 0.15495(16) 0.7520(2)
C121 C 0.83323(7) 0.08601(15) 0.8764(2)
C128 C 0.81091(7) 0.15547(16) 0.2526(2)
C129 C 0.78706(6) 0.22190(18) 0.3800(2)
C130 C 0.83430(7) 0.08736(15) 0.1233(2)
O31 O 0.77129(4) 0.82045(12) 0.39562(17)
O32 O 0.78663(5) 0.71980(12) 0.40255(18)
H71 H 0.7949 0.8705 0.2467
O33 O 0.80939(5) 0.93297(11) 0.09637(16)
O34 O 0.85809(5) 0.93704(12) 0.09982(17)
O39 O 0.77129(4) 0.17955(12) 0.60438(17)
O40 O 0.78663(5) 0.28020(12) 0.59745(18)
H73 H 0.7949 0.1295 0.7533
O41 O 0.80939(5) 0.06703(11) 0.90363(16)
O42 O 0.85809(5) 0.06296(12) 0.90018(17)
H76 H 0.7952 0.1276 0.2540
O51 O 0.77161(4) 0.17609(11) 0.40694(16)
O52 O 0.78462(5) 0.27936(12) 0.40447(18)
O53 O 0.80966(5) 0.06561(11) 0.10114(17)
O54 O 0.85789(5) 0.06975(11) 0.09233(19)
Cu7 Cu 0.741539(5) 0.810537(11) 0.49657(4)
Cu8 Cu 0.758461(5) 0.689463(11) 0.49657(4)
Cu9_3 Cu 0.804876(7) 1.0000 0.0000
Cu10_3 Cu 0.862447(7) 1.0000 0.0000
Cu15 Cu 0.741539(5) 0.189463(11) 0.50343(4)
Cu16 Cu 0.758461(5) 0.310537(11) 0.50343(4)
O55 O 0.75860(5) 0.0000 0.0000
O59 O 0.90889(4) 0.0000 0.0000
C34_4 C 1.0000 0.5000 1.0000
C38 C 0.97904(5) 0.54171(11) 0.94126(15)
C47 C 0.96722(7) 0.59644(13) 0.9809(3)
C48 C 0.96778(4) 0.52221(13) 0.85511(16)
C59 C 0.94657(7) 0.63213(16) 0.9320(2)
C60 C 0.94734(5) 0.55681(15) 0.8078(2)
H36 H 0.9744 0.4842 0.8286
H39 H 0.9732 0.3905 0.9591
C68 C 0.93703(6) 0.61351(14) 0.8453(2)
H47 H 0.9392 0.6692 0.9592
H48 H 0.9403 0.5422 0.7500
C74 C 0.91432(6) 0.64986(16) 0.7954(2)
C80 C 0.89768(7) 0.70063(17) 0.8271(3)
N10 N 0.90617(8) 0.63765(17) 0.7040(2)
N19 N 0.88049(7) 0.71694(18) 0.7534(3)
H56 H 0.8982 0.7196 0.8867
N20 N 0.88508(10) 0.6761(2) 0.6805(3)
C86 C 0.85736(8) 0.76158(19) 0.7514(3)
C95 C 0.83464(8) 0.74891(19) 0.6928(3)
C96 C 0.85751(7) 0.81545(18) 0.8108(3)
C107 C 0.81140(7) 0.79335(17) 0.6888(3)
H65 H 0.8343 0.7120 0.6562
C108 C 0.83426(7) 0.85582(16) 0.8109(2)
H66 H 0.8734 0.8235 0.8499
C122 C 0.81091(7) 0.84453(16) 0.7474(2)
C123 C 0.78706(6) 0.77810(18) 0.6200(2)
C124 C 0.83430(7) 0.91264(15) 0.8767(2)
H74 H 0.7952 0.8724 0.7460
O43 O 0.77161(4) 0.82391(11) 0.59306(16)
O44 O 0.78462(5) 0.72064(12) 0.59553(18)
O45 O 0.80966(5) 0.93439(11) 0.89886(17)
O46 O 0.85789(5) 0.93025(11) 0.90767(19)
Cu9_4 Cu 0.804876(7) 1.0000 1.0000
Cu10_4 Cu 0.862447(7) 1.0000 1.0000
O55_2 O 0.75860(5) 0.0000 1.0000
O59_2 O 0.90889(4) 0.0000 1.0000
H77 H 0.7527 0.0266 0.9620
H80 H 0.9148 0.0252 0.9599
O55_3 O 0.75860(5) 1.0000 0.0000
O59_3 O 0.90889(4) 1.0000 0.0000
H78 H 0.7527 0.9734 0.0380
H79 H 0.9148 0.9748 0.0401
O55_4 O 0.75860(5) 1.0000 1.0000
O59_4 O 0.90889(4) 1.0000 1.0000
O11_2 O 0.72599(5) 0.90655(8) 0.4941(3)
H11_2 H 0.7069 0.9140 0.4810
H12_2 H 0.7379 0.9390 0.5100
O16_2 O 0.71337(5) 0.78020(12) 0.40255(18)
O18_2 O 0.71538(5) 0.77936(12) 0.59553(18)
O19_2 O 0.77401(5) 0.59345(8) 0.4941(3)
O20_2 O 0.72871(4) 0.67955(12) 0.39562(17)
O21_2 O 0.72839(4) 0.67609(11) 0.59306(16)
H23_2 H 0.7931 0.5860 0.4810
H24_2 H 0.7621 0.5610 0.5100
O23 O 0.27401(5) 0.90655(8) 0.5059(3)
O25 O 0.28663(5) 0.78020(12) 0.59745(18)
O26 O 0.28462(5) 0.77936(12) 0.40447(18)
O27 O 0.22599(5) 0.59345(8) 0.5059(3)
O28 O 0.27129(4) 0.67955(12) 0.60438(17)
O30 O 0.27161(4) 0.67609(11) 0.40694(16)
H25 H 0.2931 0.9140 0.5190
H26 H 0.2621 0.9390 0.4900
H27 H 0.2069 0.5860 0.5190
H28 H 0.2379 0.5610 0.4900
O23_2 O 0.72599(5) 0.09345(8) 0.5059(3)
O25_2 O 0.71337(5) 0.21980(12) 0.59745(18)
O26_2 O 0.71538(5) 0.22064(12) 0.40447(18)
O27_2 O 0.77401(5) 0.40655(8) 0.5059(3)
O28_2 O 0.72871(4) 0.32045(12) 0.60438(17)
O30_2 O 0.72839(4) 0.32391(11) 0.40694(16)
H25_2 H 0.7069 0.0860 0.5190
H26_2 H 0.7379 0.0610 0.4900
H27_2 H 0.7931 0.4140 0.5190
H28_2 H 0.7621 0.4390 0.4900
Cu13_5 Cu 0.695124(7) 0.5000 0.0000
Cu14_5 Cu 0.637553(7) 0.5000 0.0000
C33_3 C 0.5000 0.0000 0.5000
C34_5 C 0.5000 0.0000 0.0000
C35_2 C 0.48081(4) 0.04591(12) 0.44269(15)
C36_2 C 0.51919(4) 0.04591(12) 0.55731(15)
C39_2 C 0.52096(5) 0.04171(11) 0.05874(15)
C41_2 C 0.48750(5) 0.06977(11) 0.35480(17)
C42_2 C 0.45571(5) 0.07071(16) 0.4883(3)
C43_2 C 0.51250(5) 0.06977(11) 0.64520(17)
C44_2 C 0.54429(5) 0.07071(16) 0.5117(3)
C49_2 C 0.53278(7) 0.09644(13) 0.0191(3)
C50_2 C 0.53222(4) 0.02221(13) 0.14489(16)
C53_2 C 0.46997(6) 0.11311(12) 0.30895(19)
H29_2 H 0.5045 0.0562 0.3252
H30_2 H 0.4510 0.0577 0.5495
C54_2 C 0.43810(6) 0.1146(2) 0.4410(2)
C55_2 C 0.53003(6) 0.11311(12) 0.69105(19)
H31_2 H 0.4955 0.0562 0.6748
H32_2 H 0.5490 0.0577 0.4505
C56_2 C 0.56190(6) 0.1146(2) 0.5590(2)
H35_2 H 0.4732 0.1095 0.0409
C61_2 C 0.55343(7) 0.13213(16) 0.0680(2)
C62_2 C 0.55266(5) 0.05681(15) 0.1922(2)
H40_2 H 0.4744 0.0158 0.1714
C65_2 C 0.44386(5) 0.13405(14) 0.3509(2)
H41_2 H 0.4754 0.1287 0.2498
H42_2 H 0.4219 0.1311 0.4721
C66_2 C 0.55614(5) 0.13405(14) 0.6491(2)
H43_2 H 0.5246 0.1287 0.7502
H44_2 H 0.5781 0.1311 0.5279
C69_2 C 0.56297(6) 0.11351(14) 0.1547(2)
H49_2 H 0.5608 0.1692 0.0408
H50_2 H 0.5597 0.0422 0.2500
C71_2 C 0.42403(6) 0.17840(16) 0.3022(2)
C72_2 C 0.57597(6) 0.17840(16) 0.6978(2)
C75_2 C 0.58568(6) 0.14986(16) 0.2046(2)
N7_2 N 0.42915(7) 0.20221(19) 0.2143(2)
C77_2 C 0.39711(7) 0.19805(19) 0.3296(3)
N8_2 N 0.57085(7) 0.20221(19) 0.7857(2)
C78_2 C 0.60289(7) 0.19805(19) 0.6704(3)
C81_2 C 0.60232(7) 0.20063(17) 0.1729(3)
N11_2 N 0.59383(8) 0.13765(17) 0.2960(2)
N13_2 N 0.40689(7) 0.2369(2) 0.1887(3)
N14_2 N 0.38760(6) 0.23423(18) 0.2578(3)
H53_2 H 0.3875 0.1884 0.3858
N15_2 N 0.59311(7) 0.2369(2) 0.8113(3)
N16_2 N 0.61240(6) 0.23423(18) 0.7422(3)
H54_2 H 0.6125 0.1884 0.6142
N21_2 N 0.61951(7) 0.21694(18) 0.2466(3)
H57_2 H 0.6018 0.2196 0.1133
N22_2 N 0.61492(10) 0.1761(2) 0.3195(3)
C83_2 C 0.36116(7) 0.27168(19) 0.2559(3)
C84_2 C 0.63884(7) 0.27168(19) 0.7441(3)
C87_2 C 0.64264(8) 0.26158(19) 0.2486(3)
C89_2 C 0.33734(7) 0.25509(18) 0.3129(3)
C90_2 C 0.36036(7) 0.32405(18) 0.1972(3)
C91_2 C 0.66266(7) 0.25509(18) 0.6871(3)
C92_2 C 0.63964(7) 0.32405(18) 0.8028(3)
C97_2 C 0.66536(8) 0.24891(19) 0.3072(3)
C98_2 C 0.64249(7) 0.31545(18) 0.1892(3)
C101_2 C 0.31260(7) 0.29102(15) 0.3089(2)
H59_2 H 0.3384 0.2199 0.3530
C102_2 C 0.33445(7) 0.35979(16) 0.1918(2)
H60_2 H 0.3766 0.3357 0.1618
C103_2 C 0.68740(7) 0.29102(15) 0.6911(2)
H61_2 H 0.6616 0.2199 0.6470
C104_2 C 0.66555(7) 0.35979(16) 0.8082(2)
H62_2 H 0.6234 0.3357 0.8382
C109_2 C 0.68860(7) 0.29335(17) 0.3112(3)
H67_2 H 0.6657 0.2120 0.3438
C110_2 C 0.66574(7) 0.35582(16) 0.1891(2)
H68_2 H 0.6266 0.3235 0.1501
C113_2 C 0.28808(6) 0.27598(16) 0.3730(2)
C114_2 C 0.31149(7) 0.34505(16) 0.2480(2)
C115_2 C 0.33323(7) 0.41399(15) 0.1236(2)
C116_2 C 0.71192(6) 0.27598(16) 0.6270(2)
C117_2 C 0.68851(7) 0.34505(16) 0.7520(2)
C118_2 C 0.66677(7) 0.41399(15) 0.8764(2)
C125_2 C 0.68909(7) 0.34453(16) 0.2526(2)
C126_2 C 0.71294(6) 0.27810(18) 0.3800(2)
C127_2 C 0.66570(7) 0.41264(15) 0.1233(2)
H71_2 H 0.2949 0.3705 0.2467
O33_2 O 0.30939(5) 0.43297(11) 0.09637(16)
O34_2 O 0.35809(5) 0.43704(12) 0.09982(17)
H72_2 H 0.7051 0.3705 0.7533
O37_2 O 0.69061(5) 0.43297(11) 0.90363(16)
O38_2 O 0.64191(5) 0.43704(12) 0.90018(17)
H75_2 H 0.7048 0.3724 0.2540
O49_2 O 0.69034(5) 0.43439(11) 0.10114(17)
O50_2 O 0.64211(5) 0.43025(11) 0.09233(19)
Cu9_5 Cu 0.304876(7) 0.5000 0.0000
Cu10_5 Cu 0.362447(7) 0.5000 0.0000
Cu13_6 Cu 0.695124(7) 0.5000 1.0000
Cu14_6 Cu 0.637553(7) 0.5000 1.0000
H20_2 H 0.5256 0.0158 0.8286
C34_6 C 0.5000 0.0000 1.0000
C38_2 C 0.47904(5) 0.04171(11) 0.94126(15)
C47_2 C 0.46722(7) 0.09644(13) 0.9809(3)
C48_2 C 0.46778(4) 0.02221(13) 0.85511(16)
C59_2 C 0.44657(7) 0.13213(16) 0.9320(2)
C60_2 C 0.44734(5) 0.05681(15) 0.8078(2)
H37_2 H 0.5268 0.1095 0.9591
C68_2 C 0.43703(6) 0.11351(14) 0.8453(2)
H47_2 H 0.4392 0.1692 0.9592
H48_2 H 0.4403 0.0422 0.7500
C74_2 C 0.41432(6) 0.14986(16) 0.7954(2)
C80_2 C 0.39768(7) 0.20063(17) 0.8271(3)
N10_2 N 0.40617(8) 0.13765(17) 0.7040(2)
N19_2 N 0.38049(7) 0.21694(18) 0.7534(3)
H56_2 H 0.3982 0.2196 0.8867
N20_2 N 0.38508(10) 0.1761(2) 0.6805(3)
C86_2 C 0.35736(8) 0.26158(19) 0.7514(3)
C95_2 C 0.33464(8) 0.24891(19) 0.6928(3)
C96_2 C 0.35751(7) 0.31545(18) 0.8108(3)
C107_2 C 0.31140(7) 0.29335(17) 0.6888(3)
H65_2 H 0.3343 0.2120 0.6562
C108_2 C 0.33426(7) 0.35582(16) 0.8109(2)
H66_2 H 0.3734 0.3235 0.8499
C122_2 C 0.31091(7) 0.34453(16) 0.7474(2)
C123_2 C 0.28706(6) 0.27810(18) 0.6200(2)
C124_2 C 0.33430(7) 0.41264(15) 0.8767(2)
H74_2 H 0.2952 0.3724 0.7460
O45_2 O 0.30966(5) 0.43439(11) 0.89886(17)
O46_2 O 0.35789(5) 0.43025(11) 0.90767(19)
Cu9_6 Cu 0.304876(7) 0.5000 1.0000
Cu10_6 Cu 0.362447(7) 0.5000 1.0000
O1_2 O 0.69061(5) 0.56703(11) 0.09637(16)
O3_5 O 0.74140(5) 0.5000 0.0000
O4_2 O 0.64191(5) 0.56296(12) 0.09982(17)
O6_5 O 0.59111(4) 0.5000 0.0000
C1_2 C 0.66677(7) 0.58601(15) 0.1236(2)
H2_2 H 0.5852 0.5252 0.0401
C3_2 C 0.66555(7) 0.64021(16) 0.1918(2)
C5_2 C 0.68851(7) 0.65495(16) 0.2480(2)
C6_2 C 0.63964(7) 0.67595(18) 0.1972(3)
C9_2 C 0.68740(7) 0.70898(15) 0.3089(2)
H3_2 H 0.7051 0.6295 0.2467
C10_2 C 0.63884(7) 0.72832(19) 0.2559(3)
H4_2 H 0.6234 0.6643 0.1618
C13_2 C 0.71192(6) 0.72402(16) 0.3730(2)
C14_2 C 0.66266(7) 0.74491(18) 0.3129(3)
N1_2 N 0.61240(6) 0.76577(18) 0.2578(3)
H7_2 H 0.6616 0.7801 0.3530
N3_2 N 0.59311(7) 0.7631(2) 0.1887(3)
C17_2 C 0.60289(7) 0.80195(19) 0.3296(3)
N5_2 N 0.57085(7) 0.79779(19) 0.2143(2)
H9_2 H 0.6125 0.8116 0.3858
C19_2 C 0.57597(6) 0.82160(16) 0.3022(2)
C21_2 C 0.55614(5) 0.86595(14) 0.3509(2)
C23_2 C 0.53003(6) 0.88689(12) 0.30895(19)
C24_2 C 0.56190(6) 0.8854(2) 0.4410(2)
H13_2 H 0.5246 0.8713 0.2498
C27_2 C 0.51250(5) 0.93023(11) 0.35480(17)
C28_2 C 0.54429(5) 0.92929(16) 0.4883(3)
H14_2 H 0.5781 0.8689 0.4721
H17_2 H 0.4955 0.9438 0.3252
C31_2 C 0.51919(4) 0.95409(12) 0.44269(15)
H18_2 H 0.5490 0.9423 0.5495
H19_2 H 0.5268 0.8905 0.0409
C33_4 C 0.5000 1.0000 0.5000
C34_7 C 0.5000 1.0000 0.0000
H21_2 H 0.7473 0.5266 0.0380
C37_2 C 0.48081(4) 0.95409(12) 0.55731(15)
C40_2 C 0.47904(5) 0.95829(11) 0.05874(15)
C45_2 C 0.48750(5) 0.93023(11) 0.64520(17)
C46_2 C 0.45571(5) 0.92929(16) 0.5117(3)
C51_2 C 0.46722(7) 0.90356(13) 0.0191(3)
C52_2 C 0.46778(4) 0.97779(13) 0.14489(16)
C57_2 C 0.46997(6) 0.88689(12) 0.69105(19)
H33_2 H 0.5045 0.9438 0.6748
H34_2 H 0.4510 0.9423 0.4505
C58_2 C 0.43810(6) 0.8854(2) 0.5590(2)
H38_2 H 0.5256 0.9842 0.1714
C63_2 C 0.44657(7) 0.86787(16) 0.0680(2)
C64_2 C 0.44734(5) 0.94319(15) 0.1922(2)
C67_2 C 0.44386(5) 0.86595(14) 0.6491(2)
H45_2 H 0.4754 0.8713 0.7502
H46_2 H 0.4219 0.8689 0.5279
C70_2 C 0.43703(6) 0.88649(14) 0.1547(2)
H51_2 H 0.4392 0.8308 0.0408
H52_2 H 0.4403 0.9578 0.2500
C73_2 C 0.42403(6) 0.82160(16) 0.6978(2)
C76_2 C 0.41432(6) 0.85014(16) 0.2046(2)
N9_2 N 0.42915(7) 0.79779(19) 0.7857(2)
C79_2 C 0.39711(7) 0.80195(19) 0.6704(3)
C82_2 C 0.39768(7) 0.79937(17) 0.1729(3)
N12_2 N 0.40617(8) 0.86235(17) 0.2960(2)
N17_2 N 0.40689(7) 0.7631(2) 0.8113(3)
N18_2 N 0.38760(6) 0.76577(18) 0.7422(3)
H55_2 H 0.3875 0.8116 0.6142
N23_2 N 0.38049(7) 0.78306(18) 0.2466(3)
H58_2 H 0.3982 0.7804 0.1133
N24_2 N 0.38508(10) 0.8239(2) 0.3195(3)
C85_2 C 0.36116(7) 0.72832(19) 0.7441(3)
C88_2 C 0.35736(8) 0.73842(19) 0.2486(3)
C93_2 C 0.33734(7) 0.74491(18) 0.6871(3)
C94_2 C 0.36036(7) 0.67595(18) 0.8028(3)
C99_2 C 0.33464(8) 0.75109(19) 0.3072(3)
C100_2 C 0.35751(7) 0.68455(18) 0.1892(3)
C105_2 C 0.31260(7) 0.70898(15) 0.6911(2)
H63_2 H 0.3384 0.7801 0.6470
C106_2 C 0.33445(7) 0.64021(16) 0.8082(2)
H64_2 H 0.3766 0.6643 0.8382
C111_2 C 0.31140(7) 0.70665(17) 0.3112(3)
H69_2 H 0.3343 0.7880 0.3438
C112_2 C 0.33426(7) 0.64418(16) 0.1891(2)
H70_2 H 0.3734 0.6765 0.1501
C119_2 C 0.28808(6) 0.72402(16) 0.6270(2)
C120_2 C 0.31149(7) 0.65495(16) 0.7520(2)
C121_2 C 0.33323(7) 0.58601(15) 0.8764(2)
C128_2 C 0.31091(7) 0.65547(16) 0.2526(2)
C129_2 C 0.28706(6) 0.72190(18) 0.3800(2)
C130_2 C 0.33430(7) 0.58736(15) 0.1233(2)
H73_2 H 0.2949 0.6295 0.7533
O41_2 O 0.30939(5) 0.56703(11) 0.90363(16)
O42_2 O 0.35809(5) 0.56296(12) 0.90018(17)
H76_2 H 0.2952 0.6276 0.2540
O53_2 O 0.30966(5) 0.56561(11) 0.10114(17)
O54_2 O 0.35789(5) 0.56975(11) 0.09233(19)
O55_5 O 0.25860(5) 0.5000 0.0000
O59_5 O 0.40889(4) 0.5000 0.0000
H78_2 H 0.2527 0.4734 0.0380
H79_2 H 0.4148 0.4748 0.0401
O2_2 O 0.69034(5) 0.56561(11) 0.89886(17)
O3_6 O 0.74140(5) 0.5000 1.0000
O5_2 O 0.64211(5) 0.56975(11) 0.90767(19)
O6_6 O 0.59111(4) 0.5000 1.0000
C2_2 C 0.66570(7) 0.58736(15) 0.8767(2)
H1_2 H 0.7473 0.4734 0.9620
C4_2 C 0.66574(7) 0.64418(16) 0.8109(2)
C7_2 C 0.68909(7) 0.65547(16) 0.7474(2)
C8_2 C 0.64249(7) 0.68455(18) 0.8108(3)
H5_2 H 0.7048 0.6276 0.7460
C11_2 C 0.68860(7) 0.70665(17) 0.6888(3)
H6_2 H 0.6266 0.6765 0.8499
C12_2 C 0.64264(8) 0.73842(19) 0.7514(3)
C15_2 C 0.71294(6) 0.72190(18) 0.6200(2)
C16_2 C 0.66536(8) 0.75109(19) 0.6928(3)
N2_2 N 0.61951(7) 0.78306(18) 0.7534(3)
H8_2 H 0.6657 0.7880 0.6562
C18_2 C 0.60232(7) 0.79937(17) 0.8271(3)
N4_2 N 0.61492(10) 0.8239(2) 0.6805(3)
H10_2 H 0.6018 0.7804 0.8867
C20_2 C 0.58568(6) 0.85014(16) 0.7954(2)
N6_2 N 0.59383(8) 0.86235(17) 0.7040(2)
C22_2 C 0.56297(6) 0.88649(14) 0.8453(2)
C25_2 C 0.55343(7) 0.86787(16) 0.9320(2)
C26_2 C 0.55266(5) 0.94319(15) 0.8078(2)
H15_2 H 0.5608 0.8308 0.9592
C29_2 C 0.53278(7) 0.90356(13) 0.9809(3)
H16_2 H 0.5597 0.9578 0.7500
C30_2 C 0.53222(4) 0.97779(13) 0.85511(16)
C32_2 C 0.52096(5) 0.95829(11) 0.94126(15)
C34_8 C 0.5000 1.0000 1.0000
H22_2 H 0.5852 0.4748 0.9599
H36_2 H 0.4744 0.9842 0.8286
H39_2 H 0.4732 0.8905 0.9591
O55_6 O 0.25860(5) 0.5000 1.0000
O59_6 O 0.40889(4) 0.5000 1.0000
H77_2 H 0.2527 0.5266 0.9620
H80_2 H 0.4148 0.5252 0.9599
loop_
_geom_bond_atom_site_label_1
_geom_bond_atom_site_label_2
_geom_bond_site_symmetry_1
_geom_bond_site_symmetry_2
Cu13 Cu14 1_555 1_555
Cu13_2 Cu14_2 1_555 1_555
Cu13_3 Cu14_3 1_555 1_555
Cu14 O4 1_555 1_555
O1 Cu13 1_555 1_555
O3 Cu13 1_555 1_555
O4 C1 1_555 1_555
O6 Cu14 1_555 1_555
C1 O1 1_555 1_555
H2 O6 1_555 1_555
C3 C1 1_555 1_555
C5 C3 1_555 1_555
C6 C3 1_555 1_555
C9 C5 1_555 1_555
H3 C5 1_555 1_555
C10 C6 1_555 1_555
H4 C6 1_555 1_555
C13 C9 1_555 1_555
C14 C9 1_555 1_555
N1 C10 1_555 1_555
O7 C13 1_555 1_555
O8 C13 1_555 1_555
H7 C14 1_555 1_555
N3 N1 1_555 1_555
C17 N1 1_555 1_555
Cu3 O7 1_555 1_555
N5 N3 1_555 1_555
H9 C17 1_555 1_555
C19 C17 1_555 1_555
O11 Cu3 1_555 1_555
C21 C19 1_555 1_555
H11 O11 1_555 1_555
H12 O11 1_555 1_555
C23 C21 1_555 1_555
C24 C21 1_555 1_555
H13 C23 1_555 1_555
C27 C23 1_555 1_555
C28 C24 1_555 1_555
H14 C24 1_555 1_555
C31 C27 1_555 1_555
H18 C28 1_555 1_555
C33 C31 1_555 1_555
H21 O3 1_555 1_555
Cu4 O8 1_555 1_555
O16 Cu3 1_555 1_555
O17 Cu3 1_555 1_555
O18 Cu3 1_555 1_555
O19 Cu4 1_555 1_555
O20 Cu4 1_555 1_555
O21 Cu4 1_555 1_555
O22 Cu4 1_555 1_555
H23 O19 1_555 1_555
H24 O19 1_555 1_555
C36 C33 1_555 1_555
C39 C34 1_555 1_555
C43 C36 1_555 1_555
C44 C36 1_555 1_555
C49 C39 1_555 1_555
C50 C39 1_555 1_555
C55 C43 1_555 1_555
H32 C44 1_555 1_555
C56 C44 1_555 1_555
C61 C49 1_555 1_555
C62 C50 1_555 1_555
H38 C50 1_555 1_555
C66 C55 1_555 1_555
H43 C55 1_555 1_555
H44 C56 1_555 1_555
C69 C61 1_555 1_555
H49 C61 1_555 1_555
H50 C62 1_555 1_555
C72 C66 1_555 1_555
C75 C69 1_555 1_555
N8 C72 1_555 1_555
C78 C72 1_555 1_555
C81 C75 1_555 1_555
N11 C75 1_555 1_555
N15 N8 1_555 1_555
N16 C78 1_555 1_555
H54 C78 1_555 1_555
N21 C81 1_555 1_555
H57 C81 1_555 1_555
N22 N11 1_555 1_555
C84 N16 1_555 1_555
C87 N21 1_555 1_555
C91 C84 1_555 1_555
C92 C84 1_555 1_555
C97 C87 1_555 1_555
C98 C87 1_555 1_555
C103 C91 1_555 1_555
H61 C91 1_555 1_555
C104 C92 1_555 1_555
H62 C92 1_555 1_555
C109 C97 1_555 1_555
H67 C97 1_555 1_555
C110 C98 1_555 1_555
H68 C98 1_555 1_555
C116 C103 1_555 1_555
C117 C103 1_555 1_555
C118 C104 1_555 1_555
C125 C109 1_555 1_555
C126 C109 1_555 1_555
C127 C110 1_555 1_555
O35 C116 1_555 1_555
O36 C116 1_555 1_555
H72 C117 1_555 1_555
O37 C118 1_555 1_555
O38 C118 1_555 1_555
H75 C125 1_555 1_555
O47 C126 1_555 1_555
O48 C126 1_555 1_555
O49 C127 1_555 1_555
O50 C127 1_555 1_555
Cu11 O35 1_555 1_555
Cu12 O36 1_555 1_555
Cu13_4 O37 1_555 1_555
Cu14_4 O38 1_555 1_555
Cu13_3 O49 1_555 1_555
Cu14_3 O50 1_555 1_555
C10 C14 1_555 1_555
Cu3 Cu4 1_555 1_555
N5 C19 1_555 1_555
C28 C31 1_555 1_555
C56 C66 1_555 1_555
C62 C69 1_555 1_555
N15 N16 1_555 1_555
N21 N22 1_555 1_555
C104 C117 1_555 1_555
C110 C125 1_555 1_555
O47 Cu11 1_555 1_555
O48 Cu12 1_555 1_555
Cu11 Cu12 1_555 1_555
Cu13_4 Cu14_4 1_555 1_555
O2 Cu13_2 1_555 1_555
O3_2 Cu13_2 1_555 1_555
O5 Cu14_2 1_555 1_555
O6_2 Cu14_2 1_555 1_555
C2 O2 1_555 1_555
C4 C2 1_555 1_555
C7 C4 1_555 1_555
C8 C4 1_555 1_555
H5 C7 1_555 1_555
C11 C7 1_555 1_555
H6 C8 1_555 1_555
C12 C8 1_555 1_555
C15 C11 1_555 1_555
C16 C11 1_555 1_555
N2 C12 1_555 1_555
O17 C15 1_555 1_555
O22 C15 1_555 1_555
H8 C16 1_555 1_555
C18 N2 1_555 1_555
N4 N2 1_555 1_555
H10 C18 1_555 1_555
C20 C18 1_555 1_555
N6 N4 1_555 1_555
C22 C20 1_555 1_555
C25 C22 1_555 1_555
C26 C22 1_555 1_555
H15 C25 1_555 1_555
C29 C25 1_555 1_555
H16 C26 1_555 1_555
C30 C26 1_555 1_555
C32 C29 1_555 1_555
H20 C30 1_555 1_555
C34_2 C32 1_555 1_555
O5 C2 1_555 1_555
C12 C16 1_555 1_555
C20 N6 1_555 1_555
C30 C32 1_555 1_555
O3_3 Cu13_3 1_555 1_555
O6_3 Cu14_3 1_555 1_555
O3_4 Cu13_4 1_555 1_555
O6_4 Cu14_4 1_555 1_555
H1 O3_4 1_555 1_555
H22 O6_4 1_555 1_555
Cu9 Cu10 1_555 1_555
Cu9_2 Cu10_2 1_555 1_555
C35 C33_2 1_555 1_555
C37 C33_2 1_555 1_555
C40 C34_3 1_555 1_555
C41 C35 1_555 1_555
C42 C35 1_555 1_555
C45 C37 1_555 1_555
C46 C37 1_555 1_555
C51 C40 1_555 1_555
C52 C40 1_555 1_555
C53 C41 1_555 1_555
H30 C42 1_555 1_555
C54 C42 1_555 1_555
C57 C45 1_555 1_555
H34 C46 1_555 1_555
C58 C46 1_555 1_555
C63 C51 1_555 1_555
C64 C52 1_555 1_555
H40 C52 1_555 1_555
C65 C53 1_555 1_555
H41 C53 1_555 1_555
H42 C54 1_555 1_555
C67 C57 1_555 1_555
H45 C57 1_555 1_555
H46 C58 1_555 1_555
C70 C63 1_555 1_555
H51 C63 1_555 1_555
H52 C64 1_555 1_555
C71 C65 1_555 1_555
C73 C67 1_555 1_555
C76 C70 1_555 1_555
N7 C71 1_555 1_555
C77 C71 1_555 1_555
N9 C73 1_555 1_555
C79 C73 1_555 1_555
C82 C76 1_555 1_555
N12 C76 1_555 1_555
N13 N7 1_555 1_555
N14 C77 1_555 1_555
H53 C77 1_555 1_555
N17 N9 1_555 1_555
N18 C79 1_555 1_555
H55 C79 1_555 1_555
N23 C82 1_555 1_555
H58 C82 1_555 1_555
N24 N12 1_555 1_555
C83 N14 1_555 1_555
C85 N18 1_555 1_555
C88 N23 1_555 1_555
C89 C83 1_555 1_555
C90 C83 1_555 1_555
C93 C85 1_555 1_555
C94 C85 1_555 1_555
C99 C88 1_555 1_555
C100 C88 1_555 1_555
C101 C89 1_555 1_555
H59 C89 1_555 1_555
C102 C90 1_555 1_555
H60 C90 1_555 1_555
C105 C93 1_555 1_555
H63 C93 1_555 1_555
C106 C94 1_555 1_555
H64 C94 1_555 1_555
C111 C99 1_555 1_555
H69 C99 1_555 1_555
C112 C100 1_555 1_555
H70 C100 1_555 1_555
C113 C101 1_555 1_555
C114 C101 1_555 1_555
C115 C102 1_555 1_555
C119 C105 1_555 1_555
C120 C105 1_555 1_555
C121 C106 1_555 1_555
C128 C111 1_555 1_555
C129 C111 1_555 1_555
C130 C112 1_555 1_555
O31 C113 1_555 1_555
O32 C113 1_555 1_555
H71 C114 1_555 1_555
O33 C115 1_555 1_555
O34 C115 1_555 1_555
O39 C119 1_555 1_555
O40 C119 1_555 1_555
H73 C120 1_555 1_555
O41 C121 1_555 1_555
O42 C121 1_555 1_555
H76 C128 1_555 1_555
O51 C129 1_555 1_555
O52 C129 1_555 1_555
O53 C130 1_555 1_555
O54 C130 1_555 1_555
Cu7 O31 1_555 1_555
Cu8 O32 1_555 1_555
Cu9_3 O33 1_555 1_555
Cu10_3 O34 1_555 1_555
Cu15 O39 1_555 1_555
Cu16 O40 1_555 1_555
Cu9_2 O41 1_555 1_555
Cu10_2 O42 1_555 1_555
Cu9 O53 1_555 1_555
Cu10 O54 1_555 1_555
O55 Cu9 1_555 1_555
O59 Cu10 1_555 1_555
C54 C65 1_555 1_555
C58 C67 1_555 1_555
C64 C70 1_555 1_555
N13 N14 1_555 1_555
N17 N18 1_555 1_555
N23 N24 1_555 1_555
C102 C114 1_555 1_555
C106 C120 1_555 1_555
C112 C128 1_555 1_555
O51 Cu15 1_555 1_555
O52 Cu16 1_555 1_555
Cu7 Cu8 1_555 1_555
Cu9_3 Cu10_3 1_555 1_555
Cu15 Cu16 1_555 1_555
C38 C34_4 1_555 1_555
C47 C38 1_555 1_555
C48 C38 1_555 1_555
C59 C47 1_555 1_555
C60 C48 1_555 1_555
H36 C48 1_555 1_555
C68 C59 1_555 1_555
H47 C59 1_555 1_555
H48 C60 1_555 1_555
C74 C68 1_555 1_555
C80 C74 1_555 1_555
N10 C74 1_555 1_555
N19 C80 1_555 1_555
H56 C80 1_555 1_555
N20 N10 1_555 1_555
C86 N19 1_555 1_555
C95 C86 1_555 1_555
C96 C86 1_555 1_555
C107 C95 1_555 1_555
H65 C95 1_555 1_555
C108 C96 1_555 1_555
H66 C96 1_555 1_555
C122 C107 1_555 1_555
C123 C107 1_555 1_555
C124 C108 1_555 1_555
H74 C122 1_555 1_555
O43 C123 1_555 1_555
O44 C123 1_555 1_555
O45 C124 1_555 1_555
O46 C124 1_555 1_555
Cu7 O43 1_555 1_555
Cu8 O44 1_555 1_555
O55_2 Cu9_2 1_555 1_555
O59_2 Cu10_2 1_555 1_555
H77 O55_2 1_555 1_555
H80 O59_2 1_555 1_555
C60 C68 1_555 1_555
N19 N20 1_555 1_555
C108 C122 1_555 1_555
O45 Cu9_4 1_555 1_555
O46 Cu10_4 1_555 1_555
Cu9_4 Cu10_4 1_555 1_555
O55_3 Cu9_3 1_555 1_555
O59_3 Cu10_3 1_555 1_555
H78 O55_3 1_555 1_555
H79 O59_3 1_555 1_555
O55_4 Cu9_4 1_555 1_555
O59_4 Cu10_4 1_555 1_555
O11_2 Cu7 1_555 1_555
H11_2 O11_2 1_555 1_555
H12_2 O11_2 1_555 1_555
O16_2 Cu7 1_555 1_555
O18_2 Cu7 1_555 1_555
O19_2 Cu8 1_555 1_555
O20_2 Cu8 1_555 1_555
O21_2 Cu8 1_555 1_555
H23_2 O19_2 1_555 1_555
H24_2 O19_2 1_555 1_555
O23 Cu11 1_555 1_555
O25 Cu11 1_555 1_555
O26 Cu11 1_555 1_555
O27 Cu12 1_555 1_555
O28 Cu12 1_555 1_555
O30 Cu12 1_555 1_555
H25 O23 1_555 1_555
H26 O23 1_555 1_555
H27 O27 1_555 1_555
H28 O27 1_555 1_555
O23_2 Cu15 1_555 1_555
O25_2 Cu15 1_555 1_555
O26_2 Cu15 1_555 1_555
O27_2 Cu16 1_555 1_555
O28_2 Cu16 1_555 1_555
O30_2 Cu16 1_555 1_555
H25_2 O23_2 1_555 1_555
H26_2 O23_2 1_555 1_555
H27_2 O27_2 1_555 1_555
H28_2 O27_2 1_555 1_555
Cu13_5 Cu14_5 1_555 1_555
C35_2 C33_3 1_555 1_555
C36_2 C33_3 1_555 1_555
C39_2 C34_5 1_555 1_555
C41_2 C35_2 1_555 1_555
C42_2 C35_2 1_555 1_555
C43_2 C36_2 1_555 1_555
C44_2 C36_2 1_555 1_555
C49_2 C39_2 1_555 1_555
C50_2 C39_2 1_555 1_555
C53_2 C41_2 1_555 1_555
H29_2 C41_2 1_555 1_555
H30_2 C42_2 1_555 1_555
C54_2 C42_2 1_555 1_555
C55_2 C43_2 1_555 1_555
H31_2 C43_2 1_555 1_555
H32_2 C44_2 1_555 1_555
C56_2 C44_2 1_555 1_555
C61_2 C49_2 1_555 1_555
C62_2 C50_2 1_555 1_555
C65_2 C53_2 1_555 1_555
H41_2 C53_2 1_555 1_555
H42_2 C54_2 1_555 1_555
C66_2 C55_2 1_555 1_555
H43_2 C55_2 1_555 1_555
H44_2 C56_2 1_555 1_555
C69_2 C61_2 1_555 1_555
H49_2 C61_2 1_555 1_555
H50_2 C62_2 1_555 1_555
C71_2 C65_2 1_555 1_555
C72_2 C66_2 1_555 1_555
C75_2 C69_2 1_555 1_555
N7_2 C71_2 1_555 1_555
C77_2 C71_2 1_555 1_555
N8_2 C72_2 1_555 1_555
C78_2 C72_2 1_555 1_555
C81_2 C75_2 1_555 1_555
N11_2 C75_2 1_555 1_555
N13_2 N7_2 1_555 1_555
N14_2 C77_2 1_555 1_555
H53_2 C77_2 1_555 1_555
N15_2 N8_2 1_555 1_555
N16_2 C78_2 1_555 1_555
H54_2 C78_2 1_555 1_555
N21_2 C81_2 1_555 1_555
H57_2 C81_2 1_555 1_555
N22_2 N11_2 1_555 1_555
C83_2 N14_2 1_555 1_555
C84_2 N16_2 1_555 1_555
C87_2 N21_2 1_555 1_555
C89_2 C83_2 1_555 1_555
C90_2 C83_2 1_555 1_555
C91_2 C84_2 1_555 1_555
C92_2 C84_2 1_555 1_555
C97_2 C87_2 1_555 1_555
C98_2 C87_2 1_555 1_555
C101_2 C89_2 1_555 1_555
H59_2 C89_2 1_555 1_555
C102_2 C90_2 1_555 1_555
H60_2 C90_2 1_555 1_555
C103_2 C91_2 1_555 1_555
H61_2 C91_2 1_555 1_555
C104_2 C92_2 1_555 1_555
H62_2 C92_2 1_555 1_555
C109_2 C97_2 1_555 1_555
H67_2 C97_2 1_555 1_555
C110_2 C98_2 1_555 1_555
H68_2 C98_2 1_555 1_555
C113_2 C101_2 1_555 1_555
C114_2 C101_2 1_555 1_555
C115_2 C102_2 1_555 1_555
C116_2 C103_2 1_555 1_555
C117_2 C103_2 1_555 1_555
C118_2 C104_2 1_555 1_555
C125_2 C109_2 1_555 1_555
C126_2 C109_2 1_555 1_555
C127_2 C110_2 1_555 1_555
O20 C113_2 1_555 1_555
O16 C113_2 1_555 1_555
H71_2 C114_2 1_555 1_555
O33_2 C115_2 1_555 1_555
O34_2 C115_2 1_555 1_555
O28_2 C116_2 1_555 1_555
O25_2 C116_2 1_555 1_555
H72_2 C117_2 1_555 1_555
O37_2 C118_2 1_555 1_555
O38_2 C118_2 1_555 1_555
H75_2 C125_2 1_555 1_555
O30_2 C126_2 1_555 1_555
O26_2 C126_2 1_555 1_555
O49_2 C127_2 1_555 1_555
O50_2 C127_2 1_555 1_555
Cu9_5 O33_2 1_555 1_555
Cu10_5 O34_2 1_555 1_555
Cu13_6 O37_2 1_555 1_555
Cu14_6 O38_2 1_555 1_555
Cu13_5 O49_2 1_555 1_555
Cu14_5 O50_2 1_555 1_555
C54_2 C65_2 1_555 1_555
C56_2 C66_2 1_555 1_555
C62_2 C69_2 1_555 1_555
N13_2 N14_2 1_555 1_555
N15_2 N16_2 1_555 1_555
N21_2 N22_2 1_555 1_555
C102_2 C114_2 1_555 1_555
C104_2 C117_2 1_555 1_555
C110_2 C125_2 1_555 1_555
Cu9_5 Cu10_5 1_555 1_555
Cu13_6 Cu14_6 1_555 1_555
C38_2 C34_6 1_555 1_555
C47_2 C38_2 1_555 1_555
C48_2 C38_2 1_555 1_555
C59_2 C47_2 1_555 1_555
C60_2 C48_2 1_555 1_555
C68_2 C59_2 1_555 1_555
H47_2 C59_2 1_555 1_555
H48_2 C60_2 1_555 1_555
C74_2 C68_2 1_555 1_555
C80_2 C74_2 1_555 1_555
N10_2 C74_2 1_555 1_555
N19_2 C80_2 1_555 1_555
H56_2 C80_2 1_555 1_555
N20_2 N10_2 1_555 1_555
C86_2 N19_2 1_555 1_555
C95_2 C86_2 1_555 1_555
C96_2 C86_2 1_555 1_555
C107_2 C95_2 1_555 1_555
H65_2 C95_2 1_555 1_555
C108_2 C96_2 1_555 1_555
H66_2 C96_2 1_555 1_555
C122_2 C107_2 1_555 1_555
C123_2 C107_2 1_555 1_555
C124_2 C108_2 1_555 1_555
H74_2 C122_2 1_555 1_555
O21 C123_2 1_555 1_555
O18 C123_2 1_555 1_555
O45_2 C124_2 1_555 1_555
O46_2 C124_2 1_555 1_555
C60_2 C68_2 1_555 1_555
N19_2 N20_2 1_555 1_555
C108_2 C122_2 1_555 1_555
O45_2 Cu9_6 1_555 1_555
O46_2 Cu10_6 1_555 1_555
Cu9_6 Cu10_6 1_555 1_555
Cu14_5 O4_2 1_555 1_555
O1_2 Cu13_5 1_555 1_555
O3_5 Cu13_5 1_555 1_555
O4_2 C1_2 1_555 1_555
O6_5 Cu14_5 1_555 1_555
C1_2 O1_2 1_555 1_555
H2_2 O6_5 1_555 1_555
C3_2 C1_2 1_555 1_555
C5_2 C3_2 1_555 1_555
C6_2 C3_2 1_555 1_555
C9_2 C5_2 1_555 1_555
H3_2 C5_2 1_555 1_555
C10_2 C6_2 1_555 1_555
H4_2 C6_2 1_555 1_555
C13_2 C9_2 1_555 1_555
C14_2 C9_2 1_555 1_555
N1_2 C10_2 1_555 1_555
O20_2 C13_2 1_555 1_555
O16_2 C13_2 1_555 1_555
H7_2 C14_2 1_555 1_555
N3_2 N1_2 1_555 1_555
C17_2 N1_2 1_555 1_555
N5_2 N3_2 1_555 1_555
H9_2 C17_2 1_555 1_555
C19_2 C17_2 1_555 1_555
C21_2 C19_2 1_555 1_555
C23_2 C21_2 1_555 1_555
C24_2 C21_2 1_555 1_555
H13_2 C23_2 1_555 1_555
C27_2 C23_2 1_555 1_555
C28_2 C24_2 1_555 1_555
H14_2 C24_2 1_555 1_555
H17_2 C27_2 1_555 1_555
C31_2 C27_2 1_555 1_555
H18_2 C28_2 1_555 1_555
C33_4 C31_2 1_555 1_555
H21_2 O3_5 1_555 1_555
C37_2 C33_4 1_555 1_555
C40_2 C34_7 1_555 1_555
C45_2 C37_2 1_555 1_555
C46_2 C37_2 1_555 1_555
C51_2 C40_2 1_555 1_555
C52_2 C40_2 1_555 1_555
C57_2 C45_2 1_555 1_555
H33_2 C45_2 1_555 1_555
H34_2 C46_2 1_555 1_555
C58_2 C46_2 1_555 1_555
C63_2 C51_2 1_555 1_555
C64_2 C52_2 1_555 1_555
C67_2 C57_2 1_555 1_555
H45_2 C57_2 1_555 1_555
H46_2 C58_2 1_555 1_555
C70_2 C63_2 1_555 1_555
H51_2 C63_2 1_555 1_555
H52_2 C64_2 1_555 1_555
C73_2 C67_2 1_555 1_555
C76_2 C70_2 1_555 1_555
N9_2 C73_2 1_555 1_555
C79_2 C73_2 1_555 1_555
C82_2 C76_2 1_555 1_555
N12_2 C76_2 1_555 1_555
N17_2 N9_2 1_555 1_555
N18_2 C79_2 1_555 1_555
H55_2 C79_2 1_555 1_555
N23_2 C82_2 1_555 1_555
H58_2 C82_2 1_555 1_555
N24_2 N12_2 1_555 1_555
C85_2 N18_2 1_555 1_555
C88_2 N23_2 1_555 1_555
C93_2 C85_2 1_555 1_555
C94_2 C85_2 1_555 1_555
C99_2 C88_2 1_555 1_555
C100_2 C88_2 1_555 1_555
C105_2 C93_2 1_555 1_555
H63_2 C93_2 1_555 1_555
C106_2 C94_2 1_555 1_555
H64_2 C94_2 1_555 1_555
C111_2 C99_2 1_555 1_555
H69_2 C99_2 1_555 1_555
C112_2 C100_2 1_555 1_555
H70_2 C100_2 1_555 1_555
C119_2 C105_2 1_555 1_555
C120_2 C105_2 1_555 1_555
C121_2 C106_2 1_555 1_555
C128_2 C111_2 1_555 1_555
C129_2 C111_2 1_555 1_555
C130_2 C112_2 1_555 1_555
O28 C119_2 1_555 1_555
O25 C119_2 1_555 1_555
H73_2 C120_2 1_555 1_555
O41_2 C121_2 1_555 1_555
O42_2 C121_2 1_555 1_555
H76_2 C128_2 1_555 1_555
O30 C129_2 1_555 1_555
O26 C129_2 1_555 1_555
O53_2 C130_2 1_555 1_555
O54_2 C130_2 1_555 1_555
Cu9_6 O41_2 1_555 1_555
Cu10_6 O42_2 1_555 1_555
Cu9_5 O53_2 1_555 1_555
Cu10_5 O54_2 1_555 1_555
O55_5 Cu9_5 1_555 1_555
O59_5 Cu10_5 1_555 1_555
H78_2 O55_5 1_555 1_555
H79_2 O59_5 1_555 1_555
C10_2 C14_2 1_555 1_555
N5_2 C19_2 1_555 1_555
C28_2 C31_2 1_555 1_555
C58_2 C67_2 1_555 1_555
C64_2 C70_2 1_555 1_555
N17_2 N18_2 1_555 1_555
N23_2 N24_2 1_555 1_555
C106_2 C120_2 1_555 1_555
C112_2 C128_2 1_555 1_555
O2_2 Cu13_6 1_555 1_555
O3_6 Cu13_6 1_555 1_555
O5_2 Cu14_6 1_555 1_555
O6_6 Cu14_6 1_555 1_555
C2_2 O2_2 1_555 1_555
H1_2 O3_6 1_555 1_555
C4_2 C2_2 1_555 1_555
C7_2 C4_2 1_555 1_555
C8_2 C4_2 1_555 1_555
H5_2 C7_2 1_555 1_555
C11_2 C7_2 1_555 1_555
H6_2 C8_2 1_555 1_555
C12_2 C8_2 1_555 1_555
C15_2 C11_2 1_555 1_555
C16_2 C11_2 1_555 1_555
N2_2 C12_2 1_555 1_555
O21_2 C15_2 1_555 1_555
O18_2 C15_2 1_555 1_555
H8_2 C16_2 1_555 1_555
C18_2 N2_2 1_555 1_555
N4_2 N2_2 1_555 1_555
H10_2 C18_2 1_555 1_555
C20_2 C18_2 1_555 1_555
N6_2 N4_2 1_555 1_555
C22_2 C20_2 1_555 1_555
C25_2 C22_2 1_555 1_555
C26_2 C22_2 1_555 1_555
H15_2 C25_2 1_555 1_555
C29_2 C25_2 1_555 1_555
H16_2 C26_2 1_555 1_555
C30_2 C26_2 1_555 1_555
C32_2 C29_2 1_555 1_555
C34_8 C32_2 1_555 1_555
H22_2 O6_6 1_555 1_555
O55_6 Cu9_6 1_555 1_555
O59_6 Cu10_6 1_555 1_555
H77_2 O55_6 1_555 1_555
H80_2 O59_6 1_555 1_555
O5_2 C2_2 1_555 1_555
C12_2 C16_2 1_555 1_555
C20_2 N6_2 1_555 1_555
C30_2 C32_2 1_555 1_555

#END
