
###############################################################################
#
# This file contains modified crystal structure data generated from the
# MOF subset of the Cambridge Structural Database (CSD) v543 
# hosted by the Cambridge Crystallographic Data Centre (CCDC).
#
# This work is licensed under the Creative Commons
# Attribution-NonCommercial-ShareAlike 4.0 International License.
# To view a copy of this license, visit
# http://creativecommons.org/licenses/by-nc-sa/4.0/
# or send a letter to
# Creative Commons, PO Box 1866, Mountain View, CA 94042, USA.
#
# CIF created using the CSD Python API on 29 September 2022
# The structure has been converted into the P1 space group
# The structure has a 3D framework
# The original CSD entry QAGQEW is in the cubic crystal system
# The framework has been calculated to contain at least 10.0% void space
# The void calculation uses a probe of radius 1.32A, grid spacing 0.4
# H atom positions have been added when not included in the experimental data
# Generated hydrogen atom positions removed from atoms on special positions
#
###############################################################################

data_QAGQEW
_chemical_formula_moiety         '(C960 H1344 Cd144 O528 S192)n'
_symmetry_cell_setting           triclinic
_symmetry_space_group_name_H-M   'P 1'
_symmetry_Int_Tables_number      1
_space_group_name_Hall           'P 1'
loop_
_symmetry_equiv_pos_site_id
_symmetry_equiv_pos_as_xyz
1 x,y,z
_cell_length_a                   39.2048(18)
_cell_length_b                   39.2048(18)
_cell_length_c                   39.2048(18)
_cell_angle_alpha                90
_cell_angle_beta                 90
_cell_angle_gamma                90
_cell_volume                     60258.4
loop_
_atom_site_label
_atom_site_type_symbol
_atom_site_fract_x
_atom_site_fract_y
_atom_site_fract_z
Cd1 Cd 0.0000 0.273086(12) 0.184104(12)
S1 S 0.10148(4) 0.20877(4) 0.12649(4)
O1 O 0.03582(9) 0.22249(9) 0.20115(10)
O2 O 0.04323(10) 0.24881(11) 0.15160(10)
O3 O 0.0000 0.32410(17) 0.1559(2)
C1 C 0.05030(13) 0.22522(13) 0.17207(14)
C2 C 0.07776(14) 0.20087(13) 0.16312(15)
C3 C 0.08751(14) 0.17173(13) 0.18217(18)
H1 H 0.0775 0.1640 0.2028
C4 C 0.11610(15) 0.15579(14) 0.16373(15)
C5 C 0.12648(15) 0.17387(15) 0.13479(15)
Cd2 Cd 0.184104(12) 0.0000 0.273086(12)
Cd3 Cd 0.273086(12) 0.184104(12) 0.0000
Cd4 Cd 0.0000 0.315896(12) 0.273086(12)
Cd5 Cd 0.184104(12) 0.226914(12) 0.0000
Cd6 Cd 0.273086(12) 0.5000 0.184104(12)
Cd11 Cd -0.0000 0.184104(12) 0.226914(12)
Cd12 Cd 0.226914(12) 0.0000 0.184104(12)
Cd13 Cd 0.226914(12) 0.315896(12) 0.0000
Cd14 Cd 0.184104(12) 0.5000 0.226914(12)
Cd18 Cd 0.273086(12) 0.0000 0.315896(12)
Cd19 Cd 0.0000 0.226914(12) 0.315896(12)
Cd20 Cd 0.184104(12) 0.273086(12) 0.5000
Cd21 Cd 0.226914(12) 0.184104(12) 0.5000
Cd29 Cd 0.315896(12) 0.273086(12) 0.0000
Cd30 Cd 0.315896(12) -0.0000 0.226914(12)
Cd31 Cd 0.5000 0.184104(12) 0.273086(12)
Cd32 Cd 0.5000 0.226914(12) 0.184104(12)
S2 S 0.20877(4) 0.12649(4) 0.10148(4)
S3 S 0.12649(4) 0.10148(4) 0.20877(4)
S4 S 0.10148(4) 0.37351(4) 0.20877(4)
S5 S 0.20877(4) 0.39852(4) 0.12649(4)
S6 S 0.12649(4) 0.29123(4) 0.10148(4)
S13 S 0.20877(4) 0.10148(4) 0.37351(4)
S14 S 0.12649(4) 0.20877(4) 0.39852(4)
S15 S 0.10148(4) 0.12649(4) 0.29123(4)
S22 S 0.37351(4) 0.20877(4) 0.10148(4)
S23 S 0.39852(4) 0.12649(4) 0.20877(4)
S24 S 0.29123(4) 0.10148(4) 0.12649(4)
O4 O 0.20115(10) 0.03582(9) 0.22249(9)
O5 O 0.22249(9) 0.20115(10) 0.03582(9)
O6 O 0.03582(9) 0.29885(10) 0.22249(9)
O7 O 0.20115(10) 0.27751(9) 0.03582(9)
O8 O 0.22249(9) 0.46418(9) 0.20115(10)
O15 O 0.22249(9) 0.03582(9) 0.29885(10)
O16 O 0.03582(9) 0.20115(10) 0.27751(9)
O17 O 0.20115(10) 0.22249(9) 0.46418(9)
O24 O 0.29885(10) 0.22249(9) 0.03582(9)
O25 O 0.27751(9) 0.03582(9) 0.20115(10)
O26 O 0.46418(9) 0.20115(10) 0.22249(9)
O29 O 0.03582(9) 0.27751(9) 0.29885(10)
O32 O 0.29885(10) 0.46418(9) 0.22249(9)
O33 O 0.22249(9) 0.53582(9) 0.20115(10)
O34 O 0.29885(10) 0.53582(9) 0.22249(9)
O47 O 0.15160(10) 0.04323(10) 0.24881(11)
O48 O 0.24881(11) 0.15160(10) 0.04323(10)
O49 O 0.04323(10) 0.34840(10) 0.24881(11)
O50 O 0.15160(10) 0.25119(11) 0.04323(10)
O51 O 0.24881(11) 0.45677(10) 0.15160(10)
O58 O 0.24881(11) 0.04323(10) 0.34840(10)
O59 O 0.04323(10) 0.15160(10) 0.25119(11)
O60 O 0.15160(10) 0.24881(11) 0.45677(10)
O67 O 0.34840(10) 0.24881(11) 0.04323(10)
O68 O 0.25119(11) 0.04323(10) 0.15160(10)
O69 O 0.45677(10) 0.15160(10) 0.24881(11)
O72 O 0.24881(11) 0.54323(10) 0.15160(10)
O79 O 0.1559(2) 0.0000 0.32410(17)
O80 O 0.32410(17) 0.1559(2) 0.0000
O81 O 0.0000 0.3441(2) 0.32410(17)
O82 O 0.1559(2) 0.17590(17) 0.0000
O83 O 0.32410(17) 0.5000 0.1559(2)
O88 O -0.0000 0.1559(2) 0.17590(17)
O89 O 0.17590(17) 0.0000 0.1559(2)
C6 C 0.17207(14) 0.05030(13) 0.22522(13)
C7 C 0.22522(13) 0.17207(14) 0.05030(13)
C8 C 0.05030(13) 0.32793(14) 0.22522(13)
C9 C 0.17207(14) 0.27478(13) 0.05030(13)
C10 C 0.22522(13) 0.44970(13) 0.17207(14)
C17 C 0.22522(13) 0.05030(13) 0.32793(14)
C18 C 0.05030(13) 0.17207(14) 0.27478(13)
C19 C 0.17207(14) 0.22522(13) 0.44970(13)
C26 C 0.32793(14) 0.22522(13) 0.05030(13)
C27 C 0.27478(13) 0.05030(13) 0.17207(14)
C28 C 0.44970(13) 0.17207(14) 0.22522(13)
C29 C 0.20087(13) 0.16312(15) 0.07776(14)
C30 C 0.16312(15) 0.07776(14) 0.20087(13)
C31 C 0.07776(14) 0.33688(15) 0.20087(13)
C32 C 0.20087(13) 0.42224(14) 0.16312(15)
C33 C 0.16312(15) 0.29913(13) 0.07776(14)
C40 C 0.20087(13) 0.07776(14) 0.33688(15)
C41 C 0.16312(15) 0.20087(13) 0.42224(14)
C42 C 0.07776(14) 0.16312(15) 0.29913(13)
C49 C 0.33688(15) 0.20087(13) 0.07776(14)
C50 C 0.42224(14) 0.16312(15) 0.20087(13)
C51 C 0.29913(13) 0.07776(14) 0.16312(15)
C52 C 0.17173(13) 0.18217(18) 0.08751(14)
C53 C 0.18217(18) 0.08751(14) 0.17173(13)
C54 C 0.08751(14) 0.31783(18) 0.17173(13)
C55 C 0.17173(13) 0.41249(14) 0.18217(18)
C56 C 0.18217(18) 0.32827(13) 0.08751(14)
C63 C 0.17173(13) 0.08751(14) 0.31783(18)
C64 C 0.18217(18) 0.17173(13) 0.41249(14)
C65 C 0.08751(14) 0.18217(18) 0.32827(13)
C72 C 0.31783(18) 0.17173(13) 0.08751(14)
C73 C 0.41249(14) 0.18217(18) 0.17173(13)
C74 C 0.32827(13) 0.08751(14) 0.18217(18)
H2 H 0.2028 0.0775 0.1640
H3 H 0.1640 0.2028 0.0775
H4 H 0.0775 0.2972 0.1640
H5 H 0.2028 0.3360 0.0775
H6 H 0.1640 0.4225 0.2028
H13 H 0.1640 0.0775 0.2972
H14 H 0.0775 0.2028 0.3360
H15 H 0.2028 0.1640 0.4225
H22 H 0.2972 0.1640 0.0775
H23 H 0.3360 0.0775 0.2028
H24 H 0.4225 0.2028 0.1640
C75 C 0.15579(14) 0.16373(15) 0.11610(15)
C76 C 0.16373(15) 0.11610(15) 0.15579(14)
C77 C 0.11610(15) 0.33627(15) 0.15579(14)
C78 C 0.15579(14) 0.38390(15) 0.16373(15)
C79 C 0.16373(15) 0.34421(14) 0.11610(15)
C86 C 0.15579(14) 0.11610(15) 0.33627(15)
C87 C 0.16373(15) 0.15579(14) 0.38390(15)
C88 C 0.11610(15) 0.16373(15) 0.34421(14)
C95 C 0.33627(15) 0.15579(14) 0.11610(15)
C96 C 0.38390(15) 0.16373(15) 0.15579(14)
C97 C 0.34421(14) 0.11610(15) 0.16373(15)
C98 C 0.17387(15) 0.13479(15) 0.12648(15)
C99 C 0.13479(15) 0.12648(15) 0.17387(15)
C100 C 0.12648(15) 0.36521(15) 0.17387(15)
C101 C 0.17387(15) 0.37352(15) 0.13479(15)
C102 C 0.13479(15) 0.32613(15) 0.12648(15)
C109 C 0.17387(15) 0.12648(15) 0.36521(15)
C110 C 0.13479(15) 0.17387(15) 0.37352(15)
C111 C 0.12648(15) 0.13479(15) 0.32613(15)
C118 C 0.36521(15) 0.17387(15) 0.12648(15)
C119 C 0.37352(15) 0.13479(15) 0.17387(15)
C120 C 0.32613(15) 0.12648(15) 0.13479(15)
Cd3_2 Cd 0.273086(12) 0.184104(12) 1.0000
Cd5_2 Cd 0.184104(12) 0.226914(12) 1.0000
Cd13_2 Cd 0.226914(12) 0.315896(12) 1.0000
Cd29_2 Cd 0.315896(12) 0.273086(12) 1.0000
O27 O 0.22249(9) 0.20115(10) 0.96418(9)
O28 O 0.29885(10) 0.22249(9) 0.96418(9)
O31 O 0.20115(10) 0.27751(9) 0.96418(9)
O70 O 0.24881(11) 0.15160(10) 0.95677(10)
O71 O 0.15160(10) 0.25119(11) 0.95677(10)
O80_2 O 0.32410(17) 0.1559(2) 1.0000
O82_2 O 0.1559(2) 0.17590(17) 1.0000
Cd2_2 Cd 0.184104(12) 1.0000 0.273086(12)
Cd12_2 Cd 0.226914(12) 1.0000 0.184104(12)
Cd18_2 Cd 0.273086(12) 1.0000 0.315896(12)
Cd22 Cd 0.273086(12) 0.815896(12) 0.0000
Cd23 Cd 0.184104(12) 0.773086(12) 0.0000
Cd24 Cd -0.0000 0.726914(12) 0.184104(12)
Cd25 Cd -0.0000 0.815896(12) 0.226914(12)
Cd26 Cd 0.0000 0.773086(12) 0.315896(12)
Cd27 Cd 0.184104(12) 0.726914(12) 0.5000
Cd28 Cd 0.226914(12) 0.815896(12) 0.5000
Cd30_2 Cd 0.315896(12) 1.0000 0.226914(12)
S16 S 0.12649(4) 0.89852(4) 0.20877(4)
S17 S 0.10148(4) 0.79123(4) 0.12649(4)
S18 S 0.20877(4) 0.87351(4) 0.10148(4)
S19 S 0.20877(4) 0.89852(4) 0.37351(4)
S20 S 0.12649(4) 0.79123(4) 0.39852(4)
S21 S 0.10148(4) 0.87351(4) 0.29123(4)
O18 O 0.20115(10) 0.96418(9) 0.22249(9)
O19 O 0.22249(9) 0.79885(10) 0.03582(9)
O20 O 0.03582(9) 0.77751(9) 0.20115(10)
O21 O 0.22249(9) 0.96418(9) 0.29885(10)
O22 O 0.03582(9) 0.79885(10) 0.27751(9)
O23 O 0.20115(10) 0.77751(9) 0.46418(9)
O46 O 0.27751(9) 0.96418(9) 0.20115(10)
O61 O 0.15160(10) 0.95677(10) 0.24881(11)
O62 O 0.24881(11) 0.84840(10) 0.04323(10)
O63 O 0.04323(10) 0.75119(11) 0.15160(10)
O64 O 0.24881(11) 0.95677(10) 0.34840(10)
O65 O 0.04323(10) 0.84840(10) 0.25119(11)
O66 O 0.15160(10) 0.75119(11) 0.45677(10)
O78 O 0.25119(11) 0.95677(10) 0.15160(10)
O79_2 O 0.1559(2) 1.0000 0.32410(17)
O89_2 O 0.17590(17) 1.0000 0.1559(2)
C20 C 0.17207(14) 0.94970(13) 0.22522(13)
C21 C 0.22522(13) 0.82793(14) 0.05030(13)
C22 C 0.05030(13) 0.77478(13) 0.17207(14)
C23 C 0.22522(13) 0.94970(13) 0.32793(14)
C24 C 0.05030(13) 0.82793(14) 0.27478(13)
C25 C 0.17207(14) 0.77478(13) 0.44970(13)
C43 C 0.16312(15) 0.92224(14) 0.20087(13)
C44 C 0.07776(14) 0.79913(13) 0.16312(15)
C45 C 0.20087(13) 0.83688(15) 0.07776(14)
C46 C 0.20087(13) 0.92224(14) 0.33688(15)
C47 C 0.16312(15) 0.79913(13) 0.42224(14)
C48 C 0.07776(14) 0.83688(15) 0.29913(13)
C66 C 0.18217(18) 0.91249(14) 0.17173(13)
C67 C 0.08751(14) 0.82827(13) 0.18217(18)
C68 C 0.17173(13) 0.81783(18) 0.08751(14)
C69 C 0.17173(13) 0.91249(14) 0.31783(18)
C70 C 0.18217(18) 0.82827(13) 0.41249(14)
C71 C 0.08751(14) 0.81783(18) 0.32827(13)
H16 H 0.2028 0.9225 0.1640
H17 H 0.1640 0.7972 0.0775
H18 H 0.0775 0.8360 0.2028
H19 H 0.1640 0.9225 0.2972
H20 H 0.0775 0.7972 0.3360
H21 H 0.2028 0.8360 0.4225
C89 C 0.16373(15) 0.88390(15) 0.15579(14)
C90 C 0.11610(15) 0.84421(14) 0.16373(15)
C91 C 0.15579(14) 0.83627(15) 0.11610(15)
C92 C 0.15579(14) 0.88390(15) 0.33627(15)
C93 C 0.16373(15) 0.84421(14) 0.38390(15)
C94 C 0.11610(15) 0.83627(15) 0.34421(14)
C112 C 0.13479(15) 0.87352(15) 0.17387(15)
C113 C 0.12648(15) 0.82613(15) 0.13479(15)
C114 C 0.17387(15) 0.86521(15) 0.12648(15)
C115 C 0.17387(15) 0.87352(15) 0.36521(15)
C116 C 0.13479(15) 0.82613(15) 0.37352(15)
C117 C 0.12648(15) 0.86521(15) 0.32613(15)
Cd22_2 Cd 0.273086(12) 0.815896(12) 1.0000
Cd23_2 Cd 0.184104(12) 0.773086(12) 1.0000
Cd1_2 Cd 1.0000 0.273086(12) 0.184104(12)
O3_2 O 1.0000 0.32410(17) 0.1559(2)
Cd4_2 Cd 1.0000 0.315896(12) 0.273086(12)
Cd7 Cd 0.815896(12) 0.0000 0.273086(12)
Cd8 Cd 0.726914(12) 0.184104(12) 0.0000
Cd9 Cd 0.815896(12) 0.226914(12) 0.0000
Cd10 Cd 0.726914(12) 0.5000 0.184104(12)
Cd11_2 Cd 1.0000 0.184104(12) 0.226914(12)
Cd15 Cd 0.773086(12) 0.0000 0.184104(12)
Cd16 Cd 0.773086(12) 0.315896(12) 0.0000
Cd17 Cd 0.815896(12) 0.5000 0.226914(12)
Cd19_2 Cd 1.0000 0.226914(12) 0.315896(12)
S7 S 0.89852(4) 0.20877(4) 0.12649(4)
S8 S 0.79123(4) 0.12649(4) 0.10148(4)
S9 S 0.87351(4) 0.10148(4) 0.20877(4)
S10 S 0.89852(4) 0.37351(4) 0.20877(4)
S11 S 0.79123(4) 0.39852(4) 0.12649(4)
S12 S 0.87351(4) 0.29123(4) 0.10148(4)
O9 O 0.96418(9) 0.22249(9) 0.20115(10)
O10 O 0.79885(10) 0.03582(9) 0.22249(9)
O11 O 0.77751(9) 0.20115(10) 0.03582(9)
O12 O 0.96418(9) 0.29885(10) 0.22249(9)
O13 O 0.79885(10) 0.27751(9) 0.03582(9)
O14 O 0.77751(9) 0.46418(9) 0.20115(10)
O30 O 0.96418(9) 0.27751(9) 0.29885(10)
O35 O 0.77751(9) 0.03582(9) 0.29885(10)
O38 O 0.70115(10) 0.22249(9) 0.03582(9)
O42 O 0.70115(10) 0.46418(9) 0.22249(9)
O43 O 0.77751(9) 0.53582(9) 0.20115(10)
O44 O 0.70115(10) 0.53582(9) 0.22249(9)
O45 O 0.96418(9) 0.20115(10) 0.27751(9)
O52 O 0.95677(10) 0.24881(11) 0.15160(10)
O53 O 0.84840(10) 0.04323(10) 0.24881(11)
O54 O 0.75119(11) 0.15160(10) 0.04323(10)
O55 O 0.95677(10) 0.34840(10) 0.24881(11)
O56 O 0.84840(10) 0.25119(11) 0.04323(10)
O57 O 0.75119(11) 0.45677(10) 0.15160(10)
O76 O 0.75119(11) 0.54323(10) 0.15160(10)
O77 O 0.95677(10) 0.15160(10) 0.25119(11)
O81_2 O 1.0000 0.3441(2) 0.32410(17)
O84 O 0.8441(2) 0.0000 0.32410(17)
O85 O 0.67590(17) 0.1559(2) 0.0000
O86 O 0.8441(2) 0.17590(17) 0.0000
O87 O 0.67590(17) 0.5000 0.1559(2)
O88_2 O 1.0000 0.1559(2) 0.17590(17)
C11 C 0.94970(13) 0.22522(13) 0.17207(14)
C12 C 0.82793(14) 0.05030(13) 0.22522(13)
C13 C 0.77478(13) 0.17207(14) 0.05030(13)
C14 C 0.94970(13) 0.32793(14) 0.22522(13)
C15 C 0.82793(14) 0.27478(13) 0.05030(13)
C16 C 0.77478(13) 0.44970(13) 0.17207(14)
C34 C 0.92224(14) 0.20087(13) 0.16312(15)
C35 C 0.79913(13) 0.16312(15) 0.07776(14)
C36 C 0.83688(15) 0.07776(14) 0.20087(13)
C37 C 0.92224(14) 0.33688(15) 0.20087(13)
C38 C 0.79913(13) 0.42224(14) 0.16312(15)
C39 C 0.83688(15) 0.29913(13) 0.07776(14)
C57 C 0.91249(14) 0.17173(13) 0.18217(18)
C58 C 0.82827(13) 0.18217(18) 0.08751(14)
C59 C 0.81783(18) 0.08751(14) 0.17173(13)
C60 C 0.91249(14) 0.31783(18) 0.17173(13)
C61 C 0.82827(13) 0.41249(14) 0.18217(18)
C62 C 0.81783(18) 0.32827(13) 0.08751(14)
H7 H 0.9225 0.1640 0.2028
H8 H 0.7972 0.0775 0.1640
H9 H 0.8360 0.2028 0.0775
H10 H 0.9225 0.2972 0.1640
H11 H 0.7972 0.3360 0.0775
H12 H 0.8360 0.4225 0.2028
C80 C 0.88390(15) 0.15579(14) 0.16373(15)
C81 C 0.84421(14) 0.16373(15) 0.11610(15)
C82 C 0.83627(15) 0.11610(15) 0.15579(14)
C83 C 0.88390(15) 0.33627(15) 0.15579(14)
C84 C 0.84421(14) 0.38390(15) 0.16373(15)
C85 C 0.83627(15) 0.34421(14) 0.11610(15)
C103 C 0.87352(15) 0.17387(15) 0.13479(15)
C104 C 0.82613(15) 0.13479(15) 0.12648(15)
C105 C 0.86521(15) 0.12648(15) 0.17387(15)
C106 C 0.87352(15) 0.36521(15) 0.17387(15)
C107 C 0.82613(15) 0.37352(15) 0.13479(15)
C108 C 0.86521(15) 0.32613(15) 0.12648(15)
Cd8_2 Cd 0.726914(12) 0.184104(12) 1.0000
Cd9_2 Cd 0.815896(12) 0.226914(12) 1.0000
Cd16_2 Cd 0.773086(12) 0.315896(12) 1.0000
O39 O 0.77751(9) 0.20115(10) 0.96418(9)
O40 O 0.70115(10) 0.22249(9) 0.96418(9)
O41 O 0.79885(10) 0.27751(9) 0.96418(9)
O74 O 0.75119(11) 0.15160(10) 0.95677(10)
O75 O 0.84840(10) 0.25119(11) 0.95677(10)
O85_2 O 0.67590(17) 0.1559(2) 1.0000
O86_2 O 0.8441(2) 0.17590(17) 1.0000
Cd7_2 Cd 0.815896(12) 1.0000 0.273086(12)
Cd15_2 Cd 0.773086(12) 1.0000 0.184104(12)
Cd24_2 Cd 1.0000 0.726914(12) 0.184104(12)
Cd25_2 Cd 1.0000 0.815896(12) 0.226914(12)
Cd26_2 Cd 1.0000 0.773086(12) 0.315896(12)
O36 O 0.79885(10) 0.96418(9) 0.22249(9)
O37 O 0.77751(9) 0.96418(9) 0.29885(10)
O73 O 0.84840(10) 0.95677(10) 0.24881(11)
O84_2 O 0.8441(2) 1.0000 0.32410(17)
Cd2_3 Cd 0.0000 0.184104(12) 0.773086(12)
Cd12_3 Cd -0.0000 0.226914(12) 0.684104(12)
Cd18_3 Cd 0.0000 0.273086(12) 0.815896(12)
Cd24_3 Cd 0.273086(12) -0.0000 0.684104(12)
Cd25_3 Cd 0.184104(12) -0.0000 0.726914(12)
Cd26_3 Cd 0.226914(12) 0.0000 0.815896(12)
Cd30_3 Cd -0.0000 0.315896(12) 0.726914(12)
S16_2 S 0.10148(4) 0.12649(4) 0.70877(4)
S17_2 S 0.20877(4) 0.10148(4) 0.62649(4)
S18_2 S 0.12649(4) 0.20877(4) 0.60148(4)
S19_2 S 0.10148(4) 0.20877(4) 0.87351(4)
S20_2 S 0.20877(4) 0.12649(4) 0.89852(4)
S21_2 S 0.12649(4) 0.10148(4) 0.79123(4)
O18_2 O 0.03582(9) 0.20115(10) 0.72249(9)
O19_2 O 0.20115(10) 0.22249(9) 0.53582(9)
O20_2 O 0.22249(9) 0.03582(9) 0.70115(10)
O21_2 O 0.03582(9) 0.22249(9) 0.79885(10)
O22_2 O 0.20115(10) 0.03582(9) 0.77751(9)
O46_2 O 0.03582(9) 0.27751(9) 0.70115(10)
O61_2 O 0.04323(10) 0.15160(10) 0.74881(11)
O62_2 O 0.15160(10) 0.24881(11) 0.54323(10)
O63_2 O 0.24881(11) 0.04323(10) 0.65160(10)
O64_2 O 0.04323(10) 0.24881(11) 0.84840(10)
O65_2 O 0.15160(10) 0.04323(10) 0.75119(11)
O78_2 O 0.04323(10) 0.25119(11) 0.65160(10)
O79_3 O 0.0000 0.1559(2) 0.82410(17)
O89_3 O 0.0000 0.17590(17) 0.6559(2)
C20_2 C 0.05030(13) 0.17207(14) 0.72522(13)
C21_2 C 0.17207(14) 0.22522(13) 0.55030(13)
C22_2 C 0.22522(13) 0.05030(13) 0.67207(14)
C23_2 C 0.05030(13) 0.22522(13) 0.82793(14)
C24_2 C 0.17207(14) 0.05030(13) 0.77478(13)
C25_2 C 0.22522(13) 0.17207(14) 0.94970(13)
C43_2 C 0.07776(14) 0.16312(15) 0.70087(13)
C44_2 C 0.20087(13) 0.07776(14) 0.66312(15)
C45_2 C 0.16312(15) 0.20087(13) 0.57776(14)
C46_2 C 0.07776(14) 0.20087(13) 0.83688(15)
C47_2 C 0.20087(13) 0.16312(15) 0.92224(14)
C48_2 C 0.16312(15) 0.07776(14) 0.79913(13)
C66_2 C 0.08751(14) 0.18217(18) 0.67173(13)
C67_2 C 0.17173(13) 0.08751(14) 0.68217(18)
C68_2 C 0.18217(18) 0.17173(13) 0.58751(14)
C69_2 C 0.08751(14) 0.17173(13) 0.81783(18)
C70_2 C 0.17173(13) 0.18217(18) 0.91249(14)
C71_2 C 0.18217(18) 0.08751(14) 0.82827(13)
H16_2 H 0.0775 0.2028 0.6640
H17_2 H 0.2028 0.1640 0.5775
H18_2 H 0.1640 0.0775 0.7028
H19_2 H 0.0775 0.1640 0.7972
H20_2 H 0.2028 0.0775 0.8360
H21_2 H 0.1640 0.2028 0.9225
C89_2 C 0.11610(15) 0.16373(15) 0.65579(14)
C90_2 C 0.15579(14) 0.11610(15) 0.66373(15)
C91_2 C 0.16373(15) 0.15579(14) 0.61610(15)
C92_2 C 0.11610(15) 0.15579(14) 0.83627(15)
C93_2 C 0.15579(14) 0.16373(15) 0.88390(15)
C94_2 C 0.16373(15) 0.11610(15) 0.84421(14)
C112_2 C 0.12648(15) 0.13479(15) 0.67387(15)
C113_2 C 0.17387(15) 0.12648(15) 0.63479(15)
C114_2 C 0.13479(15) 0.17387(15) 0.62648(15)
C115_2 C 0.12648(15) 0.17387(15) 0.86521(15)
C116_2 C 0.17387(15) 0.13479(15) 0.87352(15)
C117_2 C 0.13479(15) 0.12648(15) 0.82613(15)
Cd7_3 Cd -0.0000 0.815896(12) 0.773086(12)
Cd15_3 Cd -0.0000 0.773086(12) 0.684104(12)
Cd24_4 Cd 0.273086(12) 1.0000 0.684104(12)
Cd25_4 Cd 0.184104(12) 1.0000 0.726914(12)
Cd26_4 Cd 0.226914(12) 1.0000 0.815896(12)
O36_2 O 0.03582(9) 0.79885(10) 0.72249(9)
O37_2 O 0.03582(9) 0.77751(9) 0.79885(10)
O73_2 O 0.04323(10) 0.84840(10) 0.74881(11)
O84_3 O 0.0000 0.8441(2) 0.82410(17)
Cd1_3 Cd 0.726914(12) 0.0000 0.684104(12)
S1_2 S 0.79123(4) 0.10148(4) 0.62649(4)
O1_2 O 0.77751(9) 0.03582(9) 0.70115(10)
O2_2 O 0.75119(11) 0.04323(10) 0.65160(10)
O3_3 O 0.67590(17) 0.0000 0.6559(2)
C1_2 C 0.77478(13) 0.05030(13) 0.67207(14)
C2_2 C 0.79913(13) 0.07776(14) 0.66312(15)
C3_2 C 0.82827(13) 0.08751(14) 0.68217(18)
H1_2 H 0.8360 0.0775 0.7028
C4_2 C 0.84421(14) 0.11610(15) 0.66373(15)
C5_2 C 0.82613(15) 0.12648(15) 0.63479(15)
Cd2_4 Cd 1.0000 0.184104(12) 0.773086(12)
Cd3_3 Cd 0.815896(12) 0.273086(12) 0.5000
Cd4_3 Cd 0.684104(12) 0.0000 0.773086(12)
Cd5_3 Cd 0.773086(12) 0.184104(12) 0.5000
Cd6_2 Cd 0.5000 0.273086(12) 0.684104(12)
Cd11_3 Cd 0.815896(12) -0.0000 0.726914(12)
Cd12_4 Cd 1.0000 0.226914(12) 0.684104(12)
Cd13_3 Cd 0.684104(12) 0.226914(12) 0.5000
Cd14_2 Cd 0.5000 0.184104(12) 0.726914(12)
Cd18_4 Cd 1.0000 0.273086(12) 0.815896(12)
Cd19_3 Cd 0.773086(12) 0.0000 0.815896(12)
Cd29_3 Cd 0.726914(12) 0.315896(12) 0.5000
Cd30_4 Cd 1.0000 0.315896(12) 0.726914(12)
Cd31_2 Cd 0.815896(12) 0.5000 0.773086(12)
Cd32_2 Cd 0.773086(12) 0.5000 0.684104(12)
S2_2 S 0.87351(4) 0.20877(4) 0.60148(4)
S3_2 S 0.89852(4) 0.12649(4) 0.70877(4)
S4_2 S 0.62649(4) 0.10148(4) 0.70877(4)
S5_2 S 0.60148(4) 0.20877(4) 0.62649(4)
S6_2 S 0.70877(4) 0.12649(4) 0.60148(4)
S13_2 S 0.89852(4) 0.20877(4) 0.87351(4)
S14_2 S 0.79123(4) 0.12649(4) 0.89852(4)
S15_2 S 0.87351(4) 0.10148(4) 0.79123(4)
S22_2 S 0.79123(4) 0.37351(4) 0.60148(4)
S23_2 S 0.87351(4) 0.39852(4) 0.70877(4)
S24_2 S 0.89852(4) 0.29123(4) 0.62649(4)
O4_2 O 0.96418(9) 0.20115(10) 0.72249(9)
O5_2 O 0.79885(10) 0.22249(9) 0.53582(9)
O6_2 O 0.70115(10) 0.03582(9) 0.72249(9)
O7_2 O 0.72249(9) 0.20115(10) 0.53582(9)
O8_2 O 0.53582(9) 0.22249(9) 0.70115(10)
O15_2 O 0.96418(9) 0.22249(9) 0.79885(10)
O16_2 O 0.79885(10) 0.03582(9) 0.77751(9)
O24_2 O 0.77751(9) 0.29885(10) 0.53582(9)
O25_2 O 0.96418(9) 0.27751(9) 0.70115(10)
O26_2 O 0.79885(10) 0.46418(9) 0.72249(9)
O27_2 O 0.79885(10) 0.22249(9) 0.46418(9)
O28_2 O 0.77751(9) 0.29885(10) 0.46418(9)
O29_2 O 0.72249(9) 0.03582(9) 0.79885(10)
O31_2 O 0.72249(9) 0.20115(10) 0.46418(9)
O32_2 O 0.53582(9) 0.29885(10) 0.72249(9)
O33_2 O 0.46418(9) 0.22249(9) 0.70115(10)
O34_2 O 0.46418(9) 0.29885(10) 0.72249(9)
O47_2 O 0.95677(10) 0.15160(10) 0.74881(11)
O48_2 O 0.84840(10) 0.24881(11) 0.54323(10)
O49_2 O 0.65160(10) 0.04323(10) 0.74881(11)
O50_2 O 0.74881(11) 0.15160(10) 0.54323(10)
O51_2 O 0.54323(10) 0.24881(11) 0.65160(10)
O58_2 O 0.95677(10) 0.24881(11) 0.84840(10)
O59_2 O 0.84840(10) 0.04323(10) 0.75119(11)
O67_2 O 0.75119(11) 0.34840(10) 0.54323(10)
O68_2 O 0.95677(10) 0.25119(11) 0.65160(10)
O69_2 O 0.84840(10) 0.45677(10) 0.74881(11)
O70_2 O 0.84840(10) 0.24881(11) 0.45677(10)
O71_2 O 0.74881(11) 0.15160(10) 0.45677(10)
O72_2 O 0.45677(10) 0.24881(11) 0.65160(10)
O79_4 O 1.0000 0.1559(2) 0.82410(17)
O80_3 O 0.8441(2) 0.32410(17) 0.5000
O81_3 O 0.6559(2) 0.0000 0.82410(17)
O82_3 O 0.82410(17) 0.1559(2) 0.5000
O83_2 O 0.5000 0.32410(17) 0.6559(2)
O88_3 O 0.8441(2) -0.0000 0.67590(17)
O89_4 O 1.0000 0.17590(17) 0.6559(2)
C6_2 C 0.94970(13) 0.17207(14) 0.72522(13)
C7_2 C 0.82793(14) 0.22522(13) 0.55030(13)
C8_2 C 0.67207(14) 0.05030(13) 0.72522(13)
C9_2 C 0.72522(13) 0.17207(14) 0.55030(13)
C10_2 C 0.55030(13) 0.22522(13) 0.67207(14)
C17_2 C 0.94970(13) 0.22522(13) 0.82793(14)
C18_2 C 0.82793(14) 0.05030(13) 0.77478(13)
C19_2 C 0.77478(13) 0.17207(14) 0.94970(13)
C26_2 C 0.77478(13) 0.32793(14) 0.55030(13)
C27_2 C 0.94970(13) 0.27478(13) 0.67207(14)
C28_2 C 0.82793(14) 0.44970(13) 0.72522(13)
C29_2 C 0.83688(15) 0.20087(13) 0.57776(14)
C30_2 C 0.92224(14) 0.16312(15) 0.70087(13)
C31_2 C 0.66312(15) 0.07776(14) 0.70087(13)
C32_2 C 0.57776(14) 0.20087(13) 0.66312(15)
C33_2 C 0.70087(13) 0.16312(15) 0.57776(14)
C40_2 C 0.92224(14) 0.20087(13) 0.83688(15)
C41_2 C 0.79913(13) 0.16312(15) 0.92224(14)
C42_2 C 0.83688(15) 0.07776(14) 0.79913(13)
C49_2 C 0.79913(13) 0.33688(15) 0.57776(14)
C50_2 C 0.83688(15) 0.42224(14) 0.70087(13)
C51_2 C 0.92224(14) 0.29913(13) 0.66312(15)
C52_2 C 0.81783(18) 0.17173(13) 0.58751(14)
C53_2 C 0.91249(14) 0.18217(18) 0.67173(13)
C54_2 C 0.68217(18) 0.08751(14) 0.67173(13)
C55_2 C 0.58751(14) 0.17173(13) 0.68217(18)
C56_2 C 0.67173(13) 0.18217(18) 0.58751(14)
C63_2 C 0.91249(14) 0.17173(13) 0.81783(18)
C64_2 C 0.82827(13) 0.18217(18) 0.91249(14)
C65_2 C 0.81783(18) 0.08751(14) 0.82827(13)
C72_2 C 0.82827(13) 0.31783(18) 0.58751(14)
C73_2 C 0.81783(18) 0.41249(14) 0.67173(13)
C74_2 C 0.91249(14) 0.32827(13) 0.68217(18)
H2_2 H 0.9225 0.2028 0.6640
H3_2 H 0.7972 0.1640 0.5775
H4_2 H 0.7028 0.0775 0.6640
H5_2 H 0.6640 0.2028 0.5775
H6_2 H 0.5775 0.1640 0.7028
H13_2 H 0.9225 0.1640 0.7972
H14_2 H 0.7972 0.0775 0.8360
H15_2 H 0.8360 0.2028 0.9225
H22_2 H 0.8360 0.2972 0.5775
H23_2 H 0.9225 0.3360 0.7028
H24_2 H 0.7972 0.4225 0.6640
C75_2 C 0.83627(15) 0.15579(14) 0.61610(15)
C76_2 C 0.88390(15) 0.16373(15) 0.65579(14)
C77_2 C 0.66373(15) 0.11610(15) 0.65579(14)
C78_2 C 0.61610(15) 0.15579(14) 0.66373(15)
C79_2 C 0.65579(14) 0.16373(15) 0.61610(15)
C86_2 C 0.88390(15) 0.15579(14) 0.83627(15)
C87_2 C 0.84421(14) 0.16373(15) 0.88390(15)
C88_2 C 0.83627(15) 0.11610(15) 0.84421(14)
C95_2 C 0.84421(14) 0.33627(15) 0.61610(15)
C96_2 C 0.83627(15) 0.38390(15) 0.65579(14)
C97_2 C 0.88390(15) 0.34421(14) 0.66373(15)
C98_2 C 0.86521(15) 0.17387(15) 0.62648(15)
C99_2 C 0.87352(15) 0.13479(15) 0.67387(15)
C100_2 C 0.63479(15) 0.12648(15) 0.67387(15)
C101_2 C 0.62648(15) 0.17387(15) 0.63479(15)
C102_2 C 0.67387(15) 0.13479(15) 0.62648(15)
C109_2 C 0.87352(15) 0.17387(15) 0.86521(15)
C110_2 C 0.82613(15) 0.13479(15) 0.87352(15)
C111_2 C 0.86521(15) 0.12648(15) 0.82613(15)
C118_2 C 0.82613(15) 0.36521(15) 0.62648(15)
C119_2 C 0.86521(15) 0.37352(15) 0.67387(15)
C120_2 C 0.87352(15) 0.32613(15) 0.63479(15)
Cd1_4 Cd 0.726914(12) 1.0000 0.684104(12)
O3_4 O 0.67590(17) 1.0000 0.6559(2)
Cd4_4 Cd 0.684104(12) 1.0000 0.773086(12)
Cd7_4 Cd 1.0000 0.815896(12) 0.773086(12)
Cd8_3 Cd 0.815896(12) 0.726914(12) 0.5000
Cd9_3 Cd 0.773086(12) 0.815896(12) 0.5000
Cd10_2 Cd 0.5000 0.726914(12) 0.684104(12)
Cd11_4 Cd 0.815896(12) 1.0000 0.726914(12)
Cd15_4 Cd 1.0000 0.773086(12) 0.684104(12)
Cd16_3 Cd 0.684104(12) 0.773086(12) 0.5000
Cd17_2 Cd 0.5000 0.815896(12) 0.726914(12)
Cd19_4 Cd 0.773086(12) 1.0000 0.815896(12)
S7_2 S 0.79123(4) 0.89852(4) 0.62649(4)
S8_2 S 0.87351(4) 0.79123(4) 0.60148(4)
S9_2 S 0.89852(4) 0.87351(4) 0.70877(4)
S10_2 S 0.62649(4) 0.89852(4) 0.70877(4)
S11_2 S 0.60148(4) 0.79123(4) 0.62649(4)
S12_2 S 0.70877(4) 0.87351(4) 0.60148(4)
O9_2 O 0.77751(9) 0.96418(9) 0.70115(10)
O10_2 O 0.96418(9) 0.79885(10) 0.72249(9)
O11_2 O 0.79885(10) 0.77751(9) 0.53582(9)
O12_2 O 0.70115(10) 0.96418(9) 0.72249(9)
O13_2 O 0.72249(9) 0.79885(10) 0.53582(9)
O14_2 O 0.53582(9) 0.77751(9) 0.70115(10)
O30_2 O 0.72249(9) 0.96418(9) 0.79885(10)
O35_2 O 0.96418(9) 0.77751(9) 0.79885(10)
O38_2 O 0.77751(9) 0.70115(10) 0.53582(9)
O39_2 O 0.79885(10) 0.77751(9) 0.46418(9)
O40_2 O 0.77751(9) 0.70115(10) 0.46418(9)
O41_2 O 0.72249(9) 0.79885(10) 0.46418(9)
O42_2 O 0.53582(9) 0.70115(10) 0.72249(9)
O43_2 O 0.46418(9) 0.77751(9) 0.70115(10)
O44_2 O 0.46418(9) 0.70115(10) 0.72249(9)
O45_2 O 0.79885(10) 0.96418(9) 0.77751(9)
O52_2 O 0.75119(11) 0.95677(10) 0.65160(10)
O53_2 O 0.95677(10) 0.84840(10) 0.74881(11)
O54_2 O 0.84840(10) 0.75119(11) 0.54323(10)
O55_2 O 0.65160(10) 0.95677(10) 0.74881(11)
O56_2 O 0.74881(11) 0.84840(10) 0.54323(10)
O57_2 O 0.54323(10) 0.75119(11) 0.65160(10)
O74_2 O 0.84840(10) 0.75119(11) 0.45677(10)
O75_2 O 0.74881(11) 0.84840(10) 0.45677(10)
O76_2 O 0.45677(10) 0.75119(11) 0.65160(10)
O77_2 O 0.84840(10) 0.95677(10) 0.75119(11)
O81_4 O 0.6559(2) 1.0000 0.82410(17)
O84_4 O 1.0000 0.8441(2) 0.82410(17)
O85_3 O 0.8441(2) 0.67590(17) 0.5000
O86_3 O 0.82410(17) 0.8441(2) 0.5000
O87_2 O 0.5000 0.67590(17) 0.6559(2)
O88_4 O 0.8441(2) 1.0000 0.67590(17)
C11_2 C 0.77478(13) 0.94970(13) 0.67207(14)
C12_2 C 0.94970(13) 0.82793(14) 0.72522(13)
C13_2 C 0.82793(14) 0.77478(13) 0.55030(13)
C14_2 C 0.67207(14) 0.94970(13) 0.72522(13)
C15_2 C 0.72522(13) 0.82793(14) 0.55030(13)
C16_2 C 0.55030(13) 0.77478(13) 0.67207(14)
C34_2 C 0.79913(13) 0.92224(14) 0.66312(15)
C35_2 C 0.83688(15) 0.79913(13) 0.57776(14)
C36_2 C 0.92224(14) 0.83688(15) 0.70087(13)
C37_2 C 0.66312(15) 0.92224(14) 0.70087(13)
C38_2 C 0.57776(14) 0.79913(13) 0.66312(15)
C39_2 C 0.70087(13) 0.83688(15) 0.57776(14)
C57_2 C 0.82827(13) 0.91249(14) 0.68217(18)
C58_2 C 0.81783(18) 0.82827(13) 0.58751(14)
C59_2 C 0.91249(14) 0.81783(18) 0.67173(13)
C60_2 C 0.68217(18) 0.91249(14) 0.67173(13)
C61_2 C 0.58751(14) 0.82827(13) 0.68217(18)
C62_2 C 0.67173(13) 0.81783(18) 0.58751(14)
H7_2 H 0.8360 0.9225 0.7028
H8_2 H 0.9225 0.7972 0.6640
H9_2 H 0.7972 0.8360 0.5775
H10_2 H 0.7028 0.9225 0.6640
H11_2 H 0.6640 0.7972 0.5775
H12_2 H 0.5775 0.8360 0.7028
C80_2 C 0.84421(14) 0.88390(15) 0.66373(15)
C81_2 C 0.83627(15) 0.84421(14) 0.61610(15)
C82_2 C 0.88390(15) 0.83627(15) 0.65579(14)
C83_2 C 0.66373(15) 0.88390(15) 0.65579(14)
C84_2 C 0.61610(15) 0.84421(14) 0.66373(15)
C85_2 C 0.65579(14) 0.83627(15) 0.61610(15)
C103_2 C 0.82613(15) 0.87352(15) 0.63479(15)
C104_2 C 0.86521(15) 0.82613(15) 0.62648(15)
C105_2 C 0.87352(15) 0.86521(15) 0.67387(15)
C106_2 C 0.63479(15) 0.87352(15) 0.67387(15)
C107_2 C 0.62648(15) 0.82613(15) 0.63479(15)
C108_2 C 0.67387(15) 0.86521(15) 0.62648(15)
O3_5 O -0.0000 0.67590(17) 0.1559(2)
Cd4_5 Cd 0.0000 0.684104(12) 0.273086(12)
Cd16_4 Cd 0.226914(12) 0.684104(12) 0.0000
S10_3 S 0.10148(4) 0.62649(4) 0.20877(4)
S11_3 S 0.20877(4) 0.60148(4) 0.12649(4)
S12_3 S 0.12649(4) 0.70877(4) 0.10148(4)
O12_3 O 0.03582(9) 0.70115(10) 0.22249(9)
O13_3 O 0.20115(10) 0.72249(9) 0.03582(9)
O30_3 O 0.03582(9) 0.72249(9) 0.29885(10)
O38_3 O 0.29885(10) 0.77751(9) 0.03582(9)
O55_3 O 0.04323(10) 0.65160(10) 0.24881(11)
O56_3 O 0.15160(10) 0.74881(11) 0.04323(10)
O81_5 O 0.0000 0.6559(2) 0.32410(17)
O85_4 O 0.32410(17) 0.8441(2) 0.0000
O86_4 O 0.1559(2) 0.82410(17) 0.0000
O88_5 O -0.0000 0.8441(2) 0.17590(17)
C14_3 C 0.05030(13) 0.67207(14) 0.22522(13)
C15_3 C 0.17207(14) 0.72522(13) 0.05030(13)
C16_3 C 0.22522(13) 0.55030(13) 0.17207(14)
C37_3 C 0.07776(14) 0.66312(15) 0.20087(13)
C38_3 C 0.20087(13) 0.57776(14) 0.16312(15)
C39_3 C 0.16312(15) 0.70087(13) 0.07776(14)
C60_3 C 0.08751(14) 0.68217(18) 0.17173(13)
C61_3 C 0.17173(13) 0.58751(14) 0.18217(18)
C62_3 C 0.18217(18) 0.67173(13) 0.08751(14)
H10_3 H 0.0775 0.7028 0.1640
H11_3 H 0.2028 0.6640 0.0775
H12_3 H 0.1640 0.5775 0.2028
C83_3 C 0.11610(15) 0.66373(15) 0.15579(14)
C84_3 C 0.15579(14) 0.61610(15) 0.16373(15)
C85_3 C 0.16373(15) 0.65579(14) 0.11610(15)
C106_3 C 0.12648(15) 0.63479(15) 0.17387(15)
C107_3 C 0.17387(15) 0.62648(15) 0.13479(15)
C108_3 C 0.13479(15) 0.67387(15) 0.12648(15)
Cd16_5 Cd 0.226914(12) 0.684104(12) 1.0000
O39_3 O 0.22249(9) 0.79885(10) 0.96418(9)
O40_3 O 0.29885(10) 0.77751(9) 0.96418(9)
O41_3 O 0.20115(10) 0.72249(9) 0.96418(9)
O74_3 O 0.24881(11) 0.84840(10) 0.95677(10)
O75_3 O 0.15160(10) 0.74881(11) 0.95677(10)
O85_5 O 0.32410(17) 0.8441(2) 1.0000
O86_5 O 0.1559(2) 0.82410(17) 1.0000
Cd18_5 Cd 0.726914(12) 0.0000 0.315896(12)
Cd30_5 Cd 0.684104(12) 0.0000 0.226914(12)
S19_3 S 0.79123(4) 0.10148(4) 0.37351(4)
S20_3 S 0.87351(4) 0.20877(4) 0.39852(4)
S21_3 S 0.89852(4) 0.12649(4) 0.29123(4)
O46_3 O 0.72249(9) 0.03582(9) 0.20115(10)
O64_3 O 0.75119(11) 0.04323(10) 0.34840(10)
O78_3 O 0.74881(11) 0.04323(10) 0.15160(10)
O89_5 O 0.82410(17) 0.0000 0.1559(2)
C23_3 C 0.77478(13) 0.05030(13) 0.32793(14)
C24_3 C 0.94970(13) 0.17207(14) 0.27478(13)
C25_3 C 0.82793(14) 0.22522(13) 0.44970(13)
C46_3 C 0.79913(13) 0.07776(14) 0.33688(15)
C47_3 C 0.83688(15) 0.20087(13) 0.42224(14)
C48_3 C 0.92224(14) 0.16312(15) 0.29913(13)
C69_3 C 0.82827(13) 0.08751(14) 0.31783(18)
C70_3 C 0.81783(18) 0.17173(13) 0.41249(14)
C71_3 C 0.91249(14) 0.18217(18) 0.32827(13)
H19_3 H 0.8360 0.0775 0.2972
H20_3 H 0.9225 0.2028 0.3360
H21_3 H 0.7972 0.1640 0.4225
C92_3 C 0.84421(14) 0.11610(15) 0.33627(15)
C93_3 C 0.83627(15) 0.15579(14) 0.38390(15)
C94_3 C 0.88390(15) 0.16373(15) 0.34421(14)
C115_3 C 0.82613(15) 0.12648(15) 0.36521(15)
C116_3 C 0.86521(15) 0.17387(15) 0.37352(15)
C117_3 C 0.87352(15) 0.13479(15) 0.32613(15)
S1_3 S 0.89852(4) 0.79123(4) 0.12649(4)
O1_3 O 0.96418(9) 0.77751(9) 0.20115(10)
O2_3 O 0.95677(10) 0.75119(11) 0.15160(10)
O3_6 O 1.0000 0.67590(17) 0.1559(2)
C1_3 C 0.94970(13) 0.77478(13) 0.17207(14)
C2_3 C 0.92224(14) 0.79913(13) 0.16312(15)
C3_3 C 0.91249(14) 0.82827(13) 0.18217(18)
H1_3 H 0.9225 0.8360 0.2028
C4_3 C 0.88390(15) 0.84421(14) 0.16373(15)
C5_3 C 0.87352(15) 0.82613(15) 0.13479(15)
Cd3_4 Cd 0.726914(12) 0.815896(12) 0.0000
Cd4_6 Cd 1.0000 0.684104(12) 0.273086(12)
Cd5_4 Cd 0.815896(12) 0.773086(12) 0.0000
Cd13_4 Cd 0.773086(12) 0.684104(12) 0.0000
Cd18_6 Cd 0.726914(12) 1.0000 0.315896(12)
Cd29_4 Cd 0.684104(12) 0.726914(12) 0.0000
Cd30_6 Cd 0.684104(12) 1.0000 0.226914(12)
Cd31_3 Cd 0.5000 0.815896(12) 0.273086(12)
Cd32_3 Cd 0.5000 0.773086(12) 0.184104(12)
S2_3 S 0.79123(4) 0.87351(4) 0.10148(4)
S3_3 S 0.87351(4) 0.89852(4) 0.20877(4)
S4_3 S 0.89852(4) 0.62649(4) 0.20877(4)
S5_3 S 0.79123(4) 0.60148(4) 0.12649(4)
S6_3 S 0.87351(4) 0.70877(4) 0.10148(4)
S13_3 S 0.79123(4) 0.89852(4) 0.37351(4)
S14_3 S 0.87351(4) 0.79123(4) 0.39852(4)
S15_3 S 0.89852(4) 0.87351(4) 0.29123(4)
S22_3 S 0.62649(4) 0.79123(4) 0.10148(4)
S23_3 S 0.60148(4) 0.87351(4) 0.20877(4)
S24_3 S 0.70877(4) 0.89852(4) 0.12649(4)
O5_3 O 0.77751(9) 0.79885(10) 0.03582(9)
O6_3 O 0.96418(9) 0.70115(10) 0.22249(9)
O7_3 O 0.79885(10) 0.72249(9) 0.03582(9)
O16_3 O 0.96418(9) 0.79885(10) 0.27751(9)
O24_3 O 0.70115(10) 0.77751(9) 0.03582(9)
O25_3 O 0.72249(9) 0.96418(9) 0.20115(10)
O26_3 O 0.53582(9) 0.79885(10) 0.22249(9)
O29_3 O 0.96418(9) 0.72249(9) 0.29885(10)
O48_3 O 0.75119(11) 0.84840(10) 0.04323(10)
O49_3 O 0.95677(10) 0.65160(10) 0.24881(11)
O50_3 O 0.84840(10) 0.74881(11) 0.04323(10)
O58_3 O 0.75119(11) 0.95677(10) 0.34840(10)
O59_3 O 0.95677(10) 0.84840(10) 0.25119(11)
O67_3 O 0.65160(10) 0.75119(11) 0.04323(10)
O68_3 O 0.74881(11) 0.95677(10) 0.15160(10)
O69_3 O 0.54323(10) 0.84840(10) 0.24881(11)
O80_4 O 0.67590(17) 0.8441(2) 0.0000
O81_6 O 1.0000 0.6559(2) 0.32410(17)
O82_4 O 0.8441(2) 0.82410(17) 0.0000
O88_6 O 1.0000 0.8441(2) 0.17590(17)
O89_6 O 0.82410(17) 1.0000 0.1559(2)
C6_3 C 0.82793(14) 0.94970(13) 0.22522(13)
C7_3 C 0.77478(13) 0.82793(14) 0.05030(13)
C8_3 C 0.94970(13) 0.67207(14) 0.22522(13)
C9_3 C 0.82793(14) 0.72522(13) 0.05030(13)
C10_3 C 0.77478(13) 0.55030(13) 0.17207(14)
C17_3 C 0.77478(13) 0.94970(13) 0.32793(14)
C18_3 C 0.94970(13) 0.82793(14) 0.27478(13)
C19_3 C 0.82793(14) 0.77478(13) 0.44970(13)
C26_3 C 0.67207(14) 0.77478(13) 0.05030(13)
C27_3 C 0.72522(13) 0.94970(13) 0.17207(14)
C28_3 C 0.55030(13) 0.82793(14) 0.22522(13)
C29_3 C 0.79913(13) 0.83688(15) 0.07776(14)
C30_3 C 0.83688(15) 0.92224(14) 0.20087(13)
C31_3 C 0.92224(14) 0.66312(15) 0.20087(13)
C32_3 C 0.79913(13) 0.57776(14) 0.16312(15)
C33_3 C 0.83688(15) 0.70087(13) 0.07776(14)
C40_3 C 0.79913(13) 0.92224(14) 0.33688(15)
C41_3 C 0.83688(15) 0.79913(13) 0.42224(14)
C42_3 C 0.92224(14) 0.83688(15) 0.29913(13)
C49_3 C 0.66312(15) 0.79913(13) 0.07776(14)
C50_3 C 0.57776(14) 0.83688(15) 0.20087(13)
C51_3 C 0.70087(13) 0.92224(14) 0.16312(15)
C52_3 C 0.82827(13) 0.81783(18) 0.08751(14)
C53_3 C 0.81783(18) 0.91249(14) 0.17173(13)
C54_3 C 0.91249(14) 0.68217(18) 0.17173(13)
C55_3 C 0.82827(13) 0.58751(14) 0.18217(18)
C56_3 C 0.81783(18) 0.67173(13) 0.08751(14)
C63_3 C 0.82827(13) 0.91249(14) 0.31783(18)
C64_3 C 0.81783(18) 0.82827(13) 0.41249(14)
C65_3 C 0.91249(14) 0.81783(18) 0.32827(13)
C72_3 C 0.68217(18) 0.82827(13) 0.08751(14)
C73_3 C 0.58751(14) 0.81783(18) 0.17173(13)
C74_3 C 0.67173(13) 0.91249(14) 0.18217(18)
H2_3 H 0.7972 0.9225 0.1640
H3_3 H 0.8360 0.7972 0.0775
H4_3 H 0.9225 0.7028 0.1640
H5_3 H 0.7972 0.6640 0.0775
H6_3 H 0.8360 0.5775 0.2028
H13_3 H 0.8360 0.9225 0.2972
H14_3 H 0.9225 0.7972 0.3360
H15_3 H 0.7972 0.8360 0.4225
H22_3 H 0.7028 0.8360 0.0775
H23_3 H 0.6640 0.9225 0.2028
H24_3 H 0.5775 0.7972 0.1640
C75_3 C 0.84421(14) 0.83627(15) 0.11610(15)
C76_3 C 0.83627(15) 0.88390(15) 0.15579(14)
C77_3 C 0.88390(15) 0.66373(15) 0.15579(14)
C78_3 C 0.84421(14) 0.61610(15) 0.16373(15)
C79_3 C 0.83627(15) 0.65579(14) 0.11610(15)
C86_3 C 0.84421(14) 0.88390(15) 0.33627(15)
C87_3 C 0.83627(15) 0.84421(14) 0.38390(15)
C88_3 C 0.88390(15) 0.83627(15) 0.34421(14)
C95_3 C 0.66373(15) 0.84421(14) 0.11610(15)
C96_3 C 0.61610(15) 0.83627(15) 0.15579(14)
C97_3 C 0.65579(14) 0.88390(15) 0.16373(15)
C98_3 C 0.82613(15) 0.86521(15) 0.12648(15)
C99_3 C 0.86521(15) 0.87352(15) 0.17387(15)
C100_3 C 0.87352(15) 0.63479(15) 0.17387(15)
C101_3 C 0.82613(15) 0.62648(15) 0.13479(15)
C102_3 C 0.86521(15) 0.67387(15) 0.12648(15)
C109_3 C 0.82613(15) 0.87352(15) 0.36521(15)
C110_3 C 0.86521(15) 0.82613(15) 0.37352(15)
C111_3 C 0.87352(15) 0.86521(15) 0.32613(15)
C118_3 C 0.63479(15) 0.82613(15) 0.12648(15)
C119_3 C 0.62648(15) 0.86521(15) 0.17387(15)
C120_3 C 0.67387(15) 0.87352(15) 0.13479(15)
Cd3_5 Cd 0.726914(12) 0.815896(12) 1.0000
Cd5_5 Cd 0.815896(12) 0.773086(12) 1.0000
Cd13_5 Cd 0.773086(12) 0.684104(12) 1.0000
Cd29_5 Cd 0.684104(12) 0.726914(12) 1.0000
O27_3 O 0.77751(9) 0.79885(10) 0.96418(9)
O28_3 O 0.70115(10) 0.77751(9) 0.96418(9)
O31_3 O 0.79885(10) 0.72249(9) 0.96418(9)
O70_3 O 0.75119(11) 0.84840(10) 0.95677(10)
O71_3 O 0.84840(10) 0.74881(11) 0.95677(10)
O80_5 O 0.67590(17) 0.8441(2) 1.0000
O82_5 O 0.8441(2) 0.82410(17) 1.0000
O3_7 O 0.32410(17) 0.0000 0.6559(2)
Cd4_7 Cd 0.315896(12) 0.0000 0.773086(12)
Cd16_6 Cd 0.315896(12) 0.226914(12) 0.5000
S10_4 S 0.37351(4) 0.10148(4) 0.70877(4)
S11_4 S 0.39852(4) 0.20877(4) 0.62649(4)
S12_4 S 0.29123(4) 0.12649(4) 0.60148(4)
O12_4 O 0.29885(10) 0.03582(9) 0.72249(9)
O13_4 O 0.27751(9) 0.20115(10) 0.53582(9)
O30_4 O 0.27751(9) 0.03582(9) 0.79885(10)
O38_4 O 0.22249(9) 0.29885(10) 0.53582(9)
O40_4 O 0.22249(9) 0.29885(10) 0.46418(9)
O41_4 O 0.27751(9) 0.20115(10) 0.46418(9)
O55_4 O 0.34840(10) 0.04323(10) 0.74881(11)
O56_4 O 0.25119(11) 0.15160(10) 0.54323(10)
O75_4 O 0.25119(11) 0.15160(10) 0.45677(10)
O81_7 O 0.3441(2) 0.0000 0.82410(17)
O85_6 O 0.1559(2) 0.32410(17) 0.5000
O86_6 O 0.17590(17) 0.1559(2) 0.5000
O88_7 O 0.1559(2) 0.0000 0.67590(17)
C14_4 C 0.32793(14) 0.05030(13) 0.72522(13)
C15_4 C 0.27478(13) 0.17207(14) 0.55030(13)
C16_4 C 0.44970(13) 0.22522(13) 0.67207(14)
C37_4 C 0.33688(15) 0.07776(14) 0.70087(13)
C38_4 C 0.42224(14) 0.20087(13) 0.66312(15)
C39_4 C 0.29913(13) 0.16312(15) 0.57776(14)
C60_4 C 0.31783(18) 0.08751(14) 0.67173(13)
C61_4 C 0.41249(14) 0.17173(13) 0.68217(18)
C62_4 C 0.32827(13) 0.18217(18) 0.58751(14)
H10_4 H 0.2972 0.0775 0.6640
H11_4 H 0.3360 0.2028 0.5775
H12_4 H 0.4225 0.1640 0.7028
C83_4 C 0.33627(15) 0.11610(15) 0.65579(14)
C84_4 C 0.38390(15) 0.15579(14) 0.66373(15)
C85_4 C 0.34421(14) 0.16373(15) 0.61610(15)
C106_4 C 0.36521(15) 0.12648(15) 0.67387(15)
C107_4 C 0.37352(15) 0.17387(15) 0.63479(15)
C108_4 C 0.32613(15) 0.13479(15) 0.62648(15)
S1_4 S 0.20877(4) 0.89852(4) 0.62649(4)
O1_4 O 0.22249(9) 0.96418(9) 0.70115(10)
O2_4 O 0.24881(11) 0.95677(10) 0.65160(10)
O3_8 O 0.32410(17) 1.0000 0.6559(2)
C1_4 C 0.22522(13) 0.94970(13) 0.67207(14)
C2_4 C 0.20087(13) 0.92224(14) 0.66312(15)
C3_4 C 0.17173(13) 0.91249(14) 0.68217(18)
H1_4 H 0.1640 0.9225 0.7028
C4_4 C 0.15579(14) 0.88390(15) 0.66373(15)
C5_4 C 0.17387(15) 0.87352(15) 0.63479(15)
Cd4_8 Cd 0.315896(12) 1.0000 0.773086(12)
Cd13_6 Cd 0.315896(12) 0.773086(12) 0.5000
Cd18_7 Cd 0.0000 0.726914(12) 0.815896(12)
Cd29_6 Cd 0.273086(12) 0.684104(12) 0.5000
Cd30_7 Cd 0.0000 0.684104(12) 0.726914(12)
Cd31_4 Cd 0.184104(12) 0.5000 0.773086(12)
Cd32_4 Cd 0.226914(12) 0.5000 0.684104(12)
S2_4 S 0.12649(4) 0.79123(4) 0.60148(4)
S3_4 S 0.10148(4) 0.87351(4) 0.70877(4)
S4_4 S 0.37351(4) 0.89852(4) 0.70877(4)
S5_4 S 0.39852(4) 0.79123(4) 0.62649(4)
S6_4 S 0.29123(4) 0.87351(4) 0.60148(4)
S13_4 S 0.10148(4) 0.79123(4) 0.87351(4)
S14_4 S 0.20877(4) 0.87351(4) 0.89852(4)
S15_4 S 0.12649(4) 0.89852(4) 0.79123(4)
S22_4 S 0.20877(4) 0.62649(4) 0.60148(4)
S23_4 S 0.12649(4) 0.60148(4) 0.70877(4)
S24_4 S 0.10148(4) 0.70877(4) 0.62649(4)
O5_4 O 0.20115(10) 0.77751(9) 0.53582(9)
O6_4 O 0.29885(10) 0.96418(9) 0.72249(9)
O7_4 O 0.27751(9) 0.79885(10) 0.53582(9)
O16_4 O 0.20115(10) 0.96418(9) 0.77751(9)
O24_4 O 0.22249(9) 0.70115(10) 0.53582(9)
O25_4 O 0.03582(9) 0.72249(9) 0.70115(10)
O26_4 O 0.20115(10) 0.53582(9) 0.72249(9)
O28_4 O 0.22249(9) 0.70115(10) 0.46418(9)
O29_4 O 0.27751(9) 0.96418(9) 0.79885(10)
O31_4 O 0.27751(9) 0.79885(10) 0.46418(9)
O48_4 O 0.15160(10) 0.75119(11) 0.54323(10)
O49_4 O 0.34840(10) 0.95677(10) 0.74881(11)
O50_4 O 0.25119(11) 0.84840(10) 0.54323(10)
O58_4 O 0.04323(10) 0.75119(11) 0.84840(10)
O59_4 O 0.15160(10) 0.95677(10) 0.75119(11)
O67_4 O 0.24881(11) 0.65160(10) 0.54323(10)
O68_4 O 0.04323(10) 0.74881(11) 0.65160(10)
O69_4 O 0.15160(10) 0.54323(10) 0.74881(11)
O71_4 O 0.25119(11) 0.84840(10) 0.45677(10)
O80_6 O 0.1559(2) 0.67590(17) 0.5000
O81_8 O 0.3441(2) 1.0000 0.82410(17)
O82_6 O 0.17590(17) 0.8441(2) 0.5000
O88_8 O 0.1559(2) 1.0000 0.67590(17)
O89_7 O -0.0000 0.82410(17) 0.6559(2)
C6_4 C 0.05030(13) 0.82793(14) 0.72522(13)
C7_4 C 0.17207(14) 0.77478(13) 0.55030(13)
C8_4 C 0.32793(14) 0.94970(13) 0.72522(13)
C9_4 C 0.27478(13) 0.82793(14) 0.55030(13)
C10_4 C 0.44970(13) 0.77478(13) 0.67207(14)
C17_4 C 0.05030(13) 0.77478(13) 0.82793(14)
C18_4 C 0.17207(14) 0.94970(13) 0.77478(13)
C19_4 C 0.22522(13) 0.82793(14) 0.94970(13)
C26_4 C 0.22522(13) 0.67207(14) 0.55030(13)
C27_4 C 0.05030(13) 0.72522(13) 0.67207(14)
C28_4 C 0.17207(14) 0.55030(13) 0.72522(13)
C29_4 C 0.16312(15) 0.79913(13) 0.57776(14)
C30_4 C 0.07776(14) 0.83688(15) 0.70087(13)
C31_4 C 0.33688(15) 0.92224(14) 0.70087(13)
C32_4 C 0.42224(14) 0.79913(13) 0.66312(15)
C33_4 C 0.29913(13) 0.83688(15) 0.57776(14)
C40_4 C 0.07776(14) 0.79913(13) 0.83688(15)
C41_4 C 0.20087(13) 0.83688(15) 0.92224(14)
C42_4 C 0.16312(15) 0.92224(14) 0.79913(13)
C49_4 C 0.20087(13) 0.66312(15) 0.57776(14)
C50_4 C 0.16312(15) 0.57776(14) 0.70087(13)
C51_4 C 0.07776(14) 0.70087(13) 0.66312(15)
C52_4 C 0.18217(18) 0.82827(13) 0.58751(14)
C53_4 C 0.08751(14) 0.81783(18) 0.67173(13)
C54_4 C 0.31783(18) 0.91249(14) 0.67173(13)
C55_4 C 0.41249(14) 0.82827(13) 0.68217(18)
C56_4 C 0.32827(13) 0.81783(18) 0.58751(14)
C63_4 C 0.08751(14) 0.82827(13) 0.81783(18)
C64_4 C 0.17173(13) 0.81783(18) 0.91249(14)
C65_4 C 0.18217(18) 0.91249(14) 0.82827(13)
C72_4 C 0.17173(13) 0.68217(18) 0.58751(14)
C73_4 C 0.18217(18) 0.58751(14) 0.67173(13)
C74_4 C 0.08751(14) 0.67173(13) 0.68217(18)
H2_4 H 0.0775 0.7972 0.6640
H3_4 H 0.2028 0.8360 0.5775
H4_4 H 0.2972 0.9225 0.6640
H5_4 H 0.3360 0.7972 0.5775
H6_4 H 0.4225 0.8360 0.7028
H13_4 H 0.0775 0.8360 0.7972
H14_4 H 0.2028 0.9225 0.8360
H15_4 H 0.1640 0.7972 0.9225
H22_4 H 0.1640 0.7028 0.5775
H23_4 H 0.0775 0.6640 0.7028
H24_4 H 0.2028 0.5775 0.6640
C75_4 C 0.16373(15) 0.84421(14) 0.61610(15)
C76_4 C 0.11610(15) 0.83627(15) 0.65579(14)
C77_4 C 0.33627(15) 0.88390(15) 0.65579(14)
C78_4 C 0.38390(15) 0.84421(14) 0.66373(15)
C79_4 C 0.34421(14) 0.83627(15) 0.61610(15)
C86_4 C 0.11610(15) 0.84421(14) 0.83627(15)
C87_4 C 0.15579(14) 0.83627(15) 0.88390(15)
C88_4 C 0.16373(15) 0.88390(15) 0.84421(14)
C95_4 C 0.15579(14) 0.66373(15) 0.61610(15)
C96_4 C 0.16373(15) 0.61610(15) 0.65579(14)
C97_4 C 0.11610(15) 0.65579(14) 0.66373(15)
C98_4 C 0.13479(15) 0.82613(15) 0.62648(15)
C99_4 C 0.12648(15) 0.86521(15) 0.67387(15)
C100_4 C 0.36521(15) 0.87352(15) 0.67387(15)
C101_4 C 0.37352(15) 0.82613(15) 0.63479(15)
C102_4 C 0.32613(15) 0.86521(15) 0.62648(15)
C109_4 C 0.12648(15) 0.82613(15) 0.86521(15)
C110_4 C 0.17387(15) 0.86521(15) 0.87352(15)
C111_4 C 0.13479(15) 0.87352(15) 0.82613(15)
C118_4 C 0.17387(15) 0.63479(15) 0.62648(15)
C119_4 C 0.13479(15) 0.62648(15) 0.67387(15)
C120_4 C 0.12648(15) 0.67387(15) 0.63479(15)
Cd18_8 Cd 1.0000 0.726914(12) 0.815896(12)
Cd30_8 Cd 1.0000 0.684104(12) 0.726914(12)
S19_4 S 0.89852(4) 0.79123(4) 0.87351(4)
S20_4 S 0.79123(4) 0.87351(4) 0.89852(4)
S21_4 S 0.87351(4) 0.89852(4) 0.79123(4)
O46_4 O 0.96418(9) 0.72249(9) 0.70115(10)
O64_4 O 0.95677(10) 0.75119(11) 0.84840(10)
O78_4 O 0.95677(10) 0.74881(11) 0.65160(10)
O89_8 O 1.0000 0.82410(17) 0.6559(2)
C23_4 C 0.94970(13) 0.77478(13) 0.82793(14)
C24_4 C 0.82793(14) 0.94970(13) 0.77478(13)
C25_4 C 0.77478(13) 0.82793(14) 0.94970(13)
C46_4 C 0.92224(14) 0.79913(13) 0.83688(15)
C47_4 C 0.79913(13) 0.83688(15) 0.92224(14)
C48_4 C 0.83688(15) 0.92224(14) 0.79913(13)
C69_4 C 0.91249(14) 0.82827(13) 0.81783(18)
C70_4 C 0.82827(13) 0.81783(18) 0.91249(14)
C71_4 C 0.81783(18) 0.91249(14) 0.82827(13)
H19_4 H 0.9225 0.8360 0.7972
H20_4 H 0.7972 0.9225 0.8360
H21_4 H 0.8360 0.7972 0.9225
C92_4 C 0.88390(15) 0.84421(14) 0.83627(15)
C93_4 C 0.84421(14) 0.83627(15) 0.88390(15)
C94_4 C 0.83627(15) 0.88390(15) 0.84421(14)
C115_4 C 0.87352(15) 0.82613(15) 0.86521(15)
C116_4 C 0.82613(15) 0.86521(15) 0.87352(15)
C117_4 C 0.86521(15) 0.87352(15) 0.82613(15)
Cd28_2 Cd 0.226914(12) 0.5000 0.315896(12)
S19_5 S 0.20877(4) 0.62649(4) 0.39852(4)
S20_5 S 0.12649(4) 0.60148(4) 0.29123(4)
S21_5 S 0.10148(4) 0.70877(4) 0.37351(4)
O23_2 O 0.20115(10) 0.53582(9) 0.27751(9)
O29_5 O 0.03582(9) 0.70115(10) 0.77751(9)
O64_5 O 0.24881(11) 0.65160(10) 0.45677(10)
O65_3 O 0.04323(10) 0.74881(11) 0.34840(10)
O66_2 O 0.15160(10) 0.54323(10) 0.25119(11)
O81_9 O 0.0000 0.67590(17) 0.8441(2)
C23_5 C 0.22522(13) 0.67207(14) 0.44970(13)
C24_5 C 0.05030(13) 0.72522(13) 0.32793(14)
C25_5 C 0.17207(14) 0.55030(13) 0.27478(13)
C46_5 C 0.20087(13) 0.66312(15) 0.42224(14)
C47_5 C 0.16312(15) 0.57776(14) 0.29913(13)
C48_5 C 0.07776(14) 0.70087(13) 0.33688(15)
C69_5 C 0.17173(13) 0.68217(18) 0.41249(14)
C70_5 C 0.18217(18) 0.58751(14) 0.32827(13)
C71_5 C 0.08751(14) 0.67173(13) 0.31783(18)
H19_5 H 0.1640 0.7028 0.4225
H20_5 H 0.0775 0.6640 0.2972
H21_5 H 0.2028 0.5775 0.3360
C92_5 C 0.15579(14) 0.66373(15) 0.38390(15)
C93_5 C 0.16373(15) 0.61610(15) 0.34421(14)
C94_5 C 0.11610(15) 0.65579(14) 0.33627(15)
C115_5 C 0.17387(15) 0.63479(15) 0.37352(15)
C116_5 C 0.13479(15) 0.62648(15) 0.32613(15)
C117_5 C 0.12648(15) 0.67387(15) 0.36521(15)
O30_5 O 0.96418(9) 0.70115(10) 0.77751(9)
O81_10 O 1.0000 0.67590(17) 0.8441(2)
O78_5 O 0.25119(11) 0.04323(10) 0.84840(10)
O89_9 O 0.17590(17) -0.0000 0.8441(2)
Cd29_7 Cd 0.315896(12) 0.726914(12) 0.0000
Cd6_3 Cd 0.273086(12) 0.5000 0.815896(12)
Cd29_8 Cd 0.315896(12) 0.726914(12) 1.0000
Cd32_5 Cd 0.5000 0.773086(12) 0.815896(12)
S4_5 S 0.10148(4) 0.62649(4) 0.79123(4)
S5_5 S 0.20877(4) 0.60148(4) 0.87351(4)
S6_5 S 0.12649(4) 0.70877(4) 0.89852(4)
S22_5 S 0.37351(4) 0.79123(4) 0.89852(4)
S23_5 S 0.39852(4) 0.87351(4) 0.79123(4)
S24_5 S 0.29123(4) 0.89852(4) 0.87351(4)
O8_3 O 0.22249(9) 0.53582(9) 0.79885(10)
O26_5 O 0.46418(9) 0.79885(10) 0.77751(9)
O32_3 O 0.29885(10) 0.53582(9) 0.77751(9)
O33_3 O 0.22249(9) 0.46418(9) 0.79885(10)
O34_3 O 0.29885(10) 0.46418(9) 0.77751(9)
O49_5 O 0.04323(10) 0.65160(10) 0.75119(11)
O51_3 O 0.24881(11) 0.54323(10) 0.84840(10)
O67_5 O 0.34840(10) 0.75119(11) 0.95677(10)
O68_5 O 0.25119(11) 0.95677(10) 0.84840(10)
O69_5 O 0.45677(10) 0.84840(10) 0.75119(11)
O72_3 O 0.24881(11) 0.45677(10) 0.84840(10)
O81_11 O 0.0000 0.6559(2) 0.67590(17)
O83_3 O 0.32410(17) 0.5000 0.8441(2)
O89_10 O 0.17590(17) 1.0000 0.8441(2)
C8_5 C 0.05030(13) 0.67207(14) 0.77478(13)
C9_5 C 0.17207(14) 0.72522(13) 0.94970(13)
C10_5 C 0.22522(13) 0.55030(13) 0.82793(14)
C26_5 C 0.32793(14) 0.77478(13) 0.94970(13)
C27_5 C 0.27478(13) 0.94970(13) 0.82793(14)
C28_5 C 0.44970(13) 0.82793(14) 0.77478(13)
C31_5 C 0.07776(14) 0.66312(15) 0.79913(13)
C32_5 C 0.20087(13) 0.57776(14) 0.83688(15)
C33_5 C 0.16312(15) 0.70087(13) 0.92224(14)
C49_5 C 0.33688(15) 0.79913(13) 0.92224(14)
C50_5 C 0.42224(14) 0.83688(15) 0.79913(13)
C51_5 C 0.29913(13) 0.92224(14) 0.83688(15)
C54_5 C 0.08751(14) 0.68217(18) 0.82827(13)
C55_5 C 0.17173(13) 0.58751(14) 0.81783(18)
C56_5 C 0.18217(18) 0.67173(13) 0.91249(14)
C72_5 C 0.31783(18) 0.82827(13) 0.91249(14)
C73_5 C 0.41249(14) 0.81783(18) 0.82827(13)
C74_5 C 0.32827(13) 0.91249(14) 0.81783(18)
H4_5 H 0.0775 0.7028 0.8360
H5_5 H 0.2028 0.6640 0.9225
H6_5 H 0.1640 0.5775 0.7972
H22_5 H 0.2972 0.8360 0.9225
H23_5 H 0.3360 0.9225 0.7972
H24_5 H 0.4225 0.7972 0.8360
C77_5 C 0.11610(15) 0.66373(15) 0.84421(14)
C78_5 C 0.15579(14) 0.61610(15) 0.83627(15)
C79_5 C 0.16373(15) 0.65579(14) 0.88390(15)
C95_5 C 0.33627(15) 0.84421(14) 0.88390(15)
C96_5 C 0.38390(15) 0.83627(15) 0.84421(14)
C97_5 C 0.34421(14) 0.88390(15) 0.83627(15)
C100_5 C 0.12648(15) 0.63479(15) 0.82613(15)
C101_5 C 0.17387(15) 0.62648(15) 0.86521(15)
C102_5 C 0.13479(15) 0.67387(15) 0.87352(15)
C118_5 C 0.36521(15) 0.82613(15) 0.87352(15)
C119_5 C 0.37352(15) 0.86521(15) 0.82613(15)
C120_5 C 0.32613(15) 0.87352(15) 0.86521(15)
Cd10_3 Cd 0.726914(12) 0.5000 0.815896(12)
S10_5 S 0.89852(4) 0.62649(4) 0.79123(4)
S11_5 S 0.79123(4) 0.60148(4) 0.87351(4)
S12_5 S 0.87351(4) 0.70877(4) 0.89852(4)
O14_3 O 0.77751(9) 0.53582(9) 0.79885(10)
O42_3 O 0.70115(10) 0.53582(9) 0.77751(9)
O43_3 O 0.77751(9) 0.46418(9) 0.79885(10)
O44_3 O 0.70115(10) 0.46418(9) 0.77751(9)
O55_5 O 0.95677(10) 0.65160(10) 0.75119(11)
O57_3 O 0.75119(11) 0.54323(10) 0.84840(10)
O76_3 O 0.75119(11) 0.45677(10) 0.84840(10)
O81_12 O 1.0000 0.6559(2) 0.67590(17)
O87_3 O 0.67590(17) 0.5000 0.8441(2)
C14_5 C 0.94970(13) 0.67207(14) 0.77478(13)
C15_5 C 0.82793(14) 0.72522(13) 0.94970(13)
C16_5 C 0.77478(13) 0.55030(13) 0.82793(14)
C37_5 C 0.92224(14) 0.66312(15) 0.79913(13)
C38_5 C 0.79913(13) 0.57776(14) 0.83688(15)
C39_5 C 0.83688(15) 0.70087(13) 0.92224(14)
C60_5 C 0.91249(14) 0.68217(18) 0.82827(13)
C61_5 C 0.82827(13) 0.58751(14) 0.81783(18)
C62_5 C 0.81783(18) 0.67173(13) 0.91249(14)
H10_5 H 0.9225 0.7028 0.8360
H11_5 H 0.7972 0.6640 0.9225
H12_5 H 0.8360 0.5775 0.7972
C83_5 C 0.88390(15) 0.66373(15) 0.84421(14)
C84_5 C 0.84421(14) 0.61610(15) 0.83627(15)
C85_5 C 0.83627(15) 0.65579(14) 0.88390(15)
C106_5 C 0.87352(15) 0.63479(15) 0.82613(15)
C107_5 C 0.82613(15) 0.62648(15) 0.86521(15)
C108_5 C 0.86521(15) 0.67387(15) 0.87352(15)
Cd18_9 Cd 0.273086(12) 0.315896(12) 0.5000
Cd31_5 Cd 0.5000 0.273086(12) 0.315896(12)
S13_5 S 0.20877(4) 0.37351(4) 0.39852(4)
S14_5 S 0.12649(4) 0.39852(4) 0.29123(4)
S15_5 S 0.10148(4) 0.29123(4) 0.37351(4)
S19_6 S 0.20877(4) 0.37351(4) 0.60148(4)
S20_6 S 0.12649(4) 0.39852(4) 0.70877(4)
S21_6 S 0.10148(4) 0.29123(4) 0.62649(4)
S22_6 S 0.37351(4) 0.10148(4) 0.29123(4)
S23_6 S 0.39852(4) 0.20877(4) 0.37351(4)
S24_6 S 0.29123(4) 0.12649(4) 0.39852(4)
O17_2 O 0.20115(10) 0.46418(9) 0.27751(9)
O23_3 O 0.20115(10) 0.46418(9) 0.72249(9)
O24_5 O 0.29885(10) 0.03582(9) 0.27751(9)
O26_6 O 0.46418(9) 0.22249(9) 0.29885(10)
O58_5 O 0.24881(11) 0.34840(10) 0.45677(10)
O59_5 O 0.04323(10) 0.25119(11) 0.34840(10)
O60_2 O 0.15160(10) 0.45677(10) 0.25119(11)
O64_6 O 0.24881(11) 0.34840(10) 0.54323(10)
O66_3 O 0.15160(10) 0.45677(10) 0.74881(11)
O67_6 O 0.34840(10) 0.04323(10) 0.25119(11)
O69_6 O 0.45677(10) 0.24881(11) 0.34840(10)
O80_7 O 0.32410(17) 0.0000 0.3441(2)
O88_9 O -0.0000 0.17590(17) 0.3441(2)
C17_5 C 0.22522(13) 0.32793(14) 0.44970(13)
C18_5 C 0.05030(13) 0.27478(13) 0.32793(14)
C19_5 C 0.17207(14) 0.44970(13) 0.27478(13)
C23_6 C 0.22522(13) 0.32793(14) 0.55030(13)
C24_6 C 0.05030(13) 0.27478(13) 0.67207(14)
C25_6 C 0.17207(14) 0.44970(13) 0.72522(13)
C26_6 C 0.32793(14) 0.05030(13) 0.27478(13)
C27_6 C 0.27478(13) 0.17207(14) 0.44970(13)
C28_6 C 0.44970(13) 0.22522(13) 0.32793(14)
C40_5 C 0.20087(13) 0.33688(15) 0.42224(14)
C41_5 C 0.16312(15) 0.42224(14) 0.29913(13)
C42_5 C 0.07776(14) 0.29913(13) 0.33688(15)
C46_6 C 0.20087(13) 0.33688(15) 0.57776(14)
C47_6 C 0.16312(15) 0.42224(14) 0.70087(13)
C48_6 C 0.07776(14) 0.29913(13) 0.66312(15)
C49_6 C 0.33688(15) 0.07776(14) 0.29913(13)
C50_6 C 0.42224(14) 0.20087(13) 0.33688(15)
C51_6 C 0.29913(13) 0.16312(15) 0.42224(14)
C63_5 C 0.17173(13) 0.31783(18) 0.41249(14)
C64_5 C 0.18217(18) 0.41249(14) 0.32827(13)
C65_5 C 0.08751(14) 0.32827(13) 0.31783(18)
C69_6 C 0.17173(13) 0.31783(18) 0.58751(14)
C70_6 C 0.18217(18) 0.41249(14) 0.67173(13)
C71_6 C 0.08751(14) 0.32827(13) 0.68217(18)
C72_6 C 0.31783(18) 0.08751(14) 0.32827(13)
C73_6 C 0.41249(14) 0.17173(13) 0.31783(18)
C74_6 C 0.32827(13) 0.18217(18) 0.41249(14)
H13_5 H 0.1640 0.2972 0.4225
H14_5 H 0.0775 0.3360 0.2972
H15_5 H 0.2028 0.4225 0.3360
H19_6 H 0.1640 0.2972 0.5775
H20_6 H 0.0775 0.3360 0.7028
H21_6 H 0.2028 0.4225 0.6640
H22_6 H 0.2972 0.0775 0.3360
H23_6 H 0.3360 0.2028 0.4225
H24_6 H 0.4225 0.1640 0.2972
C86_5 C 0.15579(14) 0.33627(15) 0.38390(15)
C87_5 C 0.16373(15) 0.38390(15) 0.34421(14)
C88_5 C 0.11610(15) 0.34421(14) 0.33627(15)
C92_6 C 0.15579(14) 0.33627(15) 0.61610(15)
C93_6 C 0.16373(15) 0.38390(15) 0.65579(14)
C94_6 C 0.11610(15) 0.34421(14) 0.66373(15)
C95_6 C 0.33627(15) 0.11610(15) 0.34421(14)
C96_6 C 0.38390(15) 0.15579(14) 0.33627(15)
C97_6 C 0.34421(14) 0.16373(15) 0.38390(15)
C109_5 C 0.17387(15) 0.36521(15) 0.37352(15)
C110_5 C 0.13479(15) 0.37352(15) 0.32613(15)
C111_5 C 0.12648(15) 0.32613(15) 0.36521(15)
C115_6 C 0.17387(15) 0.36521(15) 0.62648(15)
C116_6 C 0.13479(15) 0.37352(15) 0.67387(15)
C117_6 C 0.12648(15) 0.32613(15) 0.63479(15)
C118_6 C 0.36521(15) 0.12648(15) 0.32613(15)
C119_6 C 0.37352(15) 0.17387(15) 0.36521(15)
C120_6 C 0.32613(15) 0.13479(15) 0.37352(15)
O28_5 O 0.29885(10) 0.96418(9) 0.27751(9)
O80_8 O 0.32410(17) 1.0000 0.3441(2)
O38_5 O 0.70115(10) 0.03582(9) 0.27751(9)
O77_3 O 0.95677(10) 0.25119(11) 0.34840(10)
O85_7 O 0.67590(17) 0.0000 0.3441(2)
O88_10 O 1.0000 0.17590(17) 0.3441(2)
O40_5 O 0.70115(10) 0.96418(9) 0.27751(9)
O85_8 O 0.67590(17) 1.0000 0.3441(2)
O29_6 O 0.29885(10) 0.27751(9) 0.46418(9)
O30_6 O 0.29885(10) 0.27751(9) 0.53582(9)
O81_13 O 0.32410(17) 0.3441(2) 0.5000
O83_4 O 0.1559(2) 0.5000 0.17590(17)
O87_4 O 0.1559(2) 0.5000 0.82410(17)
Cd27_2 Cd 0.5000 0.726914(12) 0.315896(12)
S19_7 S 0.37351(4) 0.89852(4) 0.29123(4)
S20_7 S 0.39852(4) 0.79123(4) 0.37351(4)
S21_7 S 0.29123(4) 0.87351(4) 0.39852(4)
O23_4 O 0.46418(9) 0.77751(9) 0.29885(10)
O64_7 O 0.34840(10) 0.95677(10) 0.25119(11)
O66_4 O 0.45677(10) 0.75119(11) 0.34840(10)
C23_7 C 0.32793(14) 0.94970(13) 0.27478(13)
C24_7 C 0.27478(13) 0.82793(14) 0.44970(13)
C25_7 C 0.44970(13) 0.77478(13) 0.32793(14)
C46_7 C 0.33688(15) 0.92224(14) 0.29913(13)
C47_7 C 0.42224(14) 0.79913(13) 0.33688(15)
C48_7 C 0.29913(13) 0.83688(15) 0.42224(14)
C69_7 C 0.31783(18) 0.91249(14) 0.32827(13)
C70_7 C 0.41249(14) 0.82827(13) 0.31783(18)
C71_7 C 0.32827(13) 0.81783(18) 0.41249(14)
H19_7 H 0.2972 0.9225 0.3360
H20_7 H 0.3360 0.7972 0.4225
H21_7 H 0.4225 0.8360 0.2972
C92_7 C 0.33627(15) 0.88390(15) 0.34421(14)
C93_7 C 0.38390(15) 0.84421(14) 0.33627(15)
C94_7 C 0.34421(14) 0.83627(15) 0.38390(15)
C115_7 C 0.36521(15) 0.87352(15) 0.32613(15)
C116_7 C 0.37352(15) 0.82613(15) 0.36521(15)
C117_7 C 0.32613(15) 0.86521(15) 0.37352(15)
O3_9 O -0.0000 0.32410(17) 0.8441(2)
S10_6 S 0.10148(4) 0.37351(4) 0.79123(4)
S11_6 S 0.20877(4) 0.39852(4) 0.87351(4)
S12_6 S 0.12649(4) 0.29123(4) 0.89852(4)
O12_5 O 0.03582(9) 0.29885(10) 0.77751(9)
O55_6 O 0.04323(10) 0.34840(10) 0.75119(11)
O81_14 O -0.0000 0.3441(2) 0.67590(17)
C14_6 C 0.05030(13) 0.32793(14) 0.77478(13)
C15_6 C 0.17207(14) 0.27478(13) 0.94970(13)
C16_6 C 0.22522(13) 0.44970(13) 0.82793(14)
C37_6 C 0.07776(14) 0.33688(15) 0.79913(13)
C38_6 C 0.20087(13) 0.42224(14) 0.83688(15)
C39_6 C 0.16312(15) 0.29913(13) 0.92224(14)
C60_6 C 0.08751(14) 0.31783(18) 0.82827(13)
C61_6 C 0.17173(13) 0.41249(14) 0.81783(18)
C62_6 C 0.18217(18) 0.32827(13) 0.91249(14)
H10_6 H 0.0775 0.2972 0.8360
H11_6 H 0.2028 0.3360 0.9225
H12_6 H 0.1640 0.4225 0.7972
C83_6 C 0.11610(15) 0.33627(15) 0.84421(14)
C84_6 C 0.15579(14) 0.38390(15) 0.83627(15)
C85_6 C 0.16373(15) 0.34421(14) 0.88390(15)
C106_6 C 0.12648(15) 0.36521(15) 0.82613(15)
C107_6 C 0.17387(15) 0.37352(15) 0.86521(15)
C108_6 C 0.13479(15) 0.32613(15) 0.87352(15)
Cd29_9 Cd 0.684104(12) 0.273086(12) 0.0000
O3_10 O 1.0000 0.32410(17) 0.8441(2)
Cd29_10 Cd 0.684104(12) 0.273086(12) 1.0000
Cd32_6 Cd 0.5000 0.226914(12) 0.815896(12)
S4_6 S 0.89852(4) 0.37351(4) 0.79123(4)
S5_6 S 0.79123(4) 0.39852(4) 0.87351(4)
S6_6 S 0.87351(4) 0.29123(4) 0.89852(4)
S22_7 S 0.62649(4) 0.20877(4) 0.89852(4)
S23_7 S 0.60148(4) 0.12649(4) 0.79123(4)
S24_7 S 0.70877(4) 0.10148(4) 0.87351(4)
O6_5 O 0.96418(9) 0.29885(10) 0.77751(9)
O26_7 O 0.53582(9) 0.20115(10) 0.77751(9)
O49_6 O 0.95677(10) 0.34840(10) 0.75119(11)
O67_7 O 0.65160(10) 0.24881(11) 0.95677(10)
O68_6 O 0.74881(11) 0.04323(10) 0.84840(10)
O69_7 O 0.54323(10) 0.15160(10) 0.75119(11)
O81_15 O 1.0000 0.3441(2) 0.67590(17)
O89_11 O 0.82410(17) -0.0000 0.8441(2)
C8_6 C 0.94970(13) 0.32793(14) 0.77478(13)
C9_6 C 0.82793(14) 0.27478(13) 0.94970(13)
C10_6 C 0.77478(13) 0.44970(13) 0.82793(14)
C26_7 C 0.67207(14) 0.22522(13) 0.94970(13)
C27_7 C 0.72522(13) 0.05030(13) 0.82793(14)
C28_7 C 0.55030(13) 0.17207(14) 0.77478(13)
C31_6 C 0.92224(14) 0.33688(15) 0.79913(13)
C32_6 C 0.79913(13) 0.42224(14) 0.83688(15)
C33_6 C 0.83688(15) 0.29913(13) 0.92224(14)
C49_7 C 0.66312(15) 0.20087(13) 0.92224(14)
C50_7 C 0.57776(14) 0.16312(15) 0.79913(13)
C51_7 C 0.70087(13) 0.07776(14) 0.83688(15)
C54_6 C 0.91249(14) 0.31783(18) 0.82827(13)
C55_6 C 0.82827(13) 0.41249(14) 0.81783(18)
C56_6 C 0.81783(18) 0.32827(13) 0.91249(14)
C72_7 C 0.68217(18) 0.17173(13) 0.91249(14)
C73_7 C 0.58751(14) 0.18217(18) 0.82827(13)
C74_7 C 0.67173(13) 0.08751(14) 0.81783(18)
H4_6 H 0.9225 0.2972 0.8360
H5_6 H 0.7972 0.3360 0.9225
H6_6 H 0.8360 0.4225 0.7972
H22_7 H 0.7028 0.1640 0.9225
H23_7 H 0.6640 0.0775 0.7972
H24_7 H 0.5775 0.2028 0.8360
C77_6 C 0.88390(15) 0.33627(15) 0.84421(14)
C78_6 C 0.84421(14) 0.38390(15) 0.83627(15)
C79_6 C 0.83627(15) 0.34421(14) 0.88390(15)
C95_7 C 0.66373(15) 0.15579(14) 0.88390(15)
C96_7 C 0.61610(15) 0.16373(15) 0.84421(14)
C97_7 C 0.65579(14) 0.11610(15) 0.83627(15)
C100_6 C 0.87352(15) 0.36521(15) 0.82613(15)
C101_6 C 0.82613(15) 0.37352(15) 0.86521(15)
C102_6 C 0.86521(15) 0.32613(15) 0.87352(15)
C118_7 C 0.63479(15) 0.17387(15) 0.87352(15)
C119_7 C 0.62648(15) 0.13479(15) 0.82613(15)
C120_7 C 0.67387(15) 0.12648(15) 0.86521(15)
O78_6 O 0.74881(11) 0.95677(10) 0.84840(10)
O89_12 O 0.82410(17) 1.0000 0.8441(2)
Cd17_3 Cd 0.773086(12) 0.5000 0.315896(12)
S10_7 S 0.79123(4) 0.37351(4) 0.39852(4)
S11_7 S 0.87351(4) 0.39852(4) 0.29123(4)
S12_7 S 0.89852(4) 0.29123(4) 0.37351(4)
O14_4 O 0.79885(10) 0.46418(9) 0.27751(9)
O29_7 O 0.70115(10) 0.27751(9) 0.53582(9)
O30_7 O 0.70115(10) 0.27751(9) 0.46418(9)
O33_4 O 0.79885(10) 0.53582(9) 0.72249(9)
O43_4 O 0.79885(10) 0.53582(9) 0.27751(9)
O55_7 O 0.75119(11) 0.34840(10) 0.45677(10)
O57_4 O 0.84840(10) 0.45677(10) 0.25119(11)
O72_4 O 0.84840(10) 0.54323(10) 0.74881(11)
O76_4 O 0.84840(10) 0.54323(10) 0.25119(11)
O81_16 O 0.67590(17) 0.3441(2) 0.5000
O83_5 O 0.8441(2) 0.5000 0.82410(17)
O87_5 O 0.8441(2) 0.5000 0.17590(17)
C14_7 C 0.77478(13) 0.32793(14) 0.44970(13)
C15_7 C 0.94970(13) 0.27478(13) 0.32793(14)
C16_7 C 0.82793(14) 0.44970(13) 0.27478(13)
C37_7 C 0.79913(13) 0.33688(15) 0.42224(14)
C38_7 C 0.83688(15) 0.42224(14) 0.29913(13)
C39_7 C 0.92224(14) 0.29913(13) 0.33688(15)
C60_7 C 0.82827(13) 0.31783(18) 0.41249(14)
C61_7 C 0.81783(18) 0.41249(14) 0.32827(13)
C62_7 C 0.91249(14) 0.32827(13) 0.31783(18)
H10_7 H 0.8360 0.2972 0.4225
H11_7 H 0.9225 0.3360 0.2972
H12_7 H 0.7972 0.4225 0.3360
C83_7 C 0.84421(14) 0.33627(15) 0.38390(15)
C84_7 C 0.83627(15) 0.38390(15) 0.34421(14)
C85_7 C 0.88390(15) 0.34421(14) 0.33627(15)
C106_7 C 0.82613(15) 0.36521(15) 0.37352(15)
C107_7 C 0.86521(15) 0.37352(15) 0.32613(15)
C108_7 C 0.87352(15) 0.32613(15) 0.36521(15)
S19_8 S 0.37351(4) 0.20877(4) 0.89852(4)
S20_8 S 0.39852(4) 0.12649(4) 0.79123(4)
S21_8 S 0.29123(4) 0.10148(4) 0.87351(4)
O23_5 O 0.46418(9) 0.20115(10) 0.77751(9)
O64_8 O 0.34840(10) 0.24881(11) 0.95677(10)
O66_5 O 0.45677(10) 0.15160(10) 0.75119(11)
C23_8 C 0.32793(14) 0.22522(13) 0.94970(13)
C24_8 C 0.27478(13) 0.05030(13) 0.82793(14)
C25_8 C 0.44970(13) 0.17207(14) 0.77478(13)
C46_8 C 0.33688(15) 0.20087(13) 0.92224(14)
C47_8 C 0.42224(14) 0.16312(15) 0.79913(13)
C48_8 C 0.29913(13) 0.07776(14) 0.83688(15)
C69_8 C 0.31783(18) 0.17173(13) 0.91249(14)
C70_8 C 0.41249(14) 0.18217(18) 0.82827(13)
C71_8 C 0.32827(13) 0.08751(14) 0.81783(18)
H19_8 H 0.2972 0.1640 0.9225
H20_8 H 0.3360 0.0775 0.7972
H21_8 H 0.4225 0.2028 0.8360
C92_8 C 0.33627(15) 0.15579(14) 0.88390(15)
C93_8 C 0.38390(15) 0.16373(15) 0.84421(14)
C94_8 C 0.34421(14) 0.11610(15) 0.83627(15)
C115_8 C 0.36521(15) 0.17387(15) 0.87352(15)
C116_8 C 0.37352(15) 0.13479(15) 0.82613(15)
C117_8 C 0.32613(15) 0.12648(15) 0.86521(15)
O29_8 O 0.27751(9) 0.29885(10) 0.03582(9)
O33_5 O 0.53582(9) 0.20115(10) 0.22249(9)
O34_4 O 0.53582(9) 0.22249(9) 0.29885(10)
O72_5 O 0.54323(10) 0.15160(10) 0.24881(11)
O81_17 O 0.3441(2) 0.32410(17) 0.0000
O83_6 O 0.5000 0.1559(2) 0.32410(17)
O30_8 O 0.27751(9) 0.29885(10) 0.96418(9)
O81_18 O 0.3441(2) 0.32410(17) 1.0000
O87_6 O 0.5000 0.1559(2) 0.67590(17)
O29_9 O 0.72249(9) 0.70115(10) 0.03582(9)
O32_4 O 0.53582(9) 0.77751(9) 0.29885(10)
O33_6 O 0.46418(9) 0.79885(10) 0.22249(9)
O72_6 O 0.45677(10) 0.84840(10) 0.24881(11)
O81_19 O 0.6559(2) 0.67590(17) 0.0000
O83_7 O 0.5000 0.8441(2) 0.32410(17)
S10_8 S 0.62649(4) 0.79123(4) 0.89852(4)
S11_8 S 0.60148(4) 0.87351(4) 0.79123(4)
S12_8 S 0.70877(4) 0.89852(4) 0.87351(4)
O14_5 O 0.53582(9) 0.79885(10) 0.77751(9)
O30_9 O 0.72249(9) 0.70115(10) 0.96418(9)
O55_8 O 0.65160(10) 0.75119(11) 0.95677(10)
O57_5 O 0.54323(10) 0.84840(10) 0.75119(11)
O81_20 O 0.6559(2) 0.67590(17) 1.0000
O87_7 O 0.5000 0.8441(2) 0.67590(17)
C14_8 C 0.67207(14) 0.77478(13) 0.94970(13)
C15_8 C 0.72522(13) 0.94970(13) 0.82793(14)
C16_8 C 0.55030(13) 0.82793(14) 0.77478(13)
C37_8 C 0.66312(15) 0.79913(13) 0.92224(14)
C38_8 C 0.57776(14) 0.83688(15) 0.79913(13)
C39_8 C 0.70087(13) 0.92224(14) 0.83688(15)
C60_8 C 0.68217(18) 0.82827(13) 0.91249(14)
C61_8 C 0.58751(14) 0.81783(18) 0.82827(13)
C62_8 C 0.67173(13) 0.91249(14) 0.81783(18)
H10_8 H 0.7028 0.8360 0.9225
H11_8 H 0.6640 0.9225 0.7972
H12_8 H 0.5775 0.7972 0.8360
C83_8 C 0.66373(15) 0.84421(14) 0.88390(15)
C84_8 C 0.61610(15) 0.83627(15) 0.84421(14)
C85_8 C 0.65579(14) 0.88390(15) 0.83627(15)
C106_8 C 0.63479(15) 0.82613(15) 0.87352(15)
C107_8 C 0.62648(15) 0.86521(15) 0.82613(15)
C108_8 C 0.67387(15) 0.87352(15) 0.86521(15)
S19_9 S 0.37351(4) 0.79123(4) 0.10148(4)
S20_9 S 0.39852(4) 0.87351(4) 0.20877(4)
S21_9 S 0.29123(4) 0.89852(4) 0.12649(4)
O64_9 O 0.34840(10) 0.75119(11) 0.04323(10)
C23_9 C 0.32793(14) 0.77478(13) 0.05030(13)
C24_9 C 0.27478(13) 0.94970(13) 0.17207(14)
C25_9 C 0.44970(13) 0.82793(14) 0.22522(13)
C46_9 C 0.33688(15) 0.79913(13) 0.07776(14)
C47_9 C 0.42224(14) 0.83688(15) 0.20087(13)
C48_9 C 0.29913(13) 0.92224(14) 0.16312(15)
C69_9 C 0.31783(18) 0.82827(13) 0.08751(14)
C70_9 C 0.41249(14) 0.81783(18) 0.17173(13)
C71_9 C 0.32827(13) 0.91249(14) 0.18217(18)
H19_9 H 0.2972 0.8360 0.0775
H20_9 H 0.3360 0.9225 0.2028
H21_9 H 0.4225 0.7972 0.1640
C92_9 C 0.33627(15) 0.84421(14) 0.11610(15)
C93_9 C 0.38390(15) 0.83627(15) 0.15579(14)
C94_9 C 0.34421(14) 0.88390(15) 0.16373(15)
C115_9 C 0.36521(15) 0.82613(15) 0.12648(15)
C116_9 C 0.37352(15) 0.86521(15) 0.17387(15)
C117_9 C 0.32613(15) 0.87352(15) 0.13479(15)
S10_9 S 0.62649(4) 0.20877(4) 0.10148(4)
S11_9 S 0.60148(4) 0.12649(4) 0.20877(4)
S12_9 S 0.70877(4) 0.10148(4) 0.12649(4)
O30_10 O 0.72249(9) 0.29885(10) 0.03582(9)
O55_9 O 0.65160(10) 0.24881(11) 0.04323(10)
O81_21 O 0.6559(2) 0.32410(17) -0.0000
C14_9 C 0.67207(14) 0.22522(13) 0.05030(13)
C15_9 C 0.72522(13) 0.05030(13) 0.17207(14)
C16_9 C 0.55030(13) 0.17207(14) 0.22522(13)
C37_9 C 0.66312(15) 0.20087(13) 0.07776(14)
C38_9 C 0.57776(14) 0.16312(15) 0.20087(13)
C39_9 C 0.70087(13) 0.07776(14) 0.16312(15)
C60_9 C 0.68217(18) 0.17173(13) 0.08751(14)
C61_9 C 0.58751(14) 0.18217(18) 0.17173(13)
C62_9 C 0.67173(13) 0.08751(14) 0.18217(18)
H10_9 H 0.7028 0.1640 0.0775
H11_9 H 0.6640 0.0775 0.2028
H12_9 H 0.5775 0.2028 0.1640
C83_9 C 0.66373(15) 0.15579(14) 0.11610(15)
C84_9 C 0.61610(15) 0.16373(15) 0.15579(14)
C85_9 C 0.65579(14) 0.11610(15) 0.16373(15)
C106_9 C 0.63479(15) 0.17387(15) 0.12648(15)
C107_9 C 0.62648(15) 0.13479(15) 0.17387(15)
C108_9 C 0.67387(15) 0.12648(15) 0.13479(15)
O29_10 O 0.72249(9) 0.29885(10) 0.96418(9)
O81_22 O 0.6559(2) 0.32410(17) 1.0000
O30_11 O 0.27751(9) 0.70115(10) 0.03582(9)
O81_23 O 0.3441(2) 0.67590(17) -0.0000
O29_11 O 0.27751(9) 0.70115(10) 0.96418(9)
O81_24 O 0.3441(2) 0.67590(17) 1.0000
O32_5 O 0.46418(9) 0.29885(10) 0.27751(9)
O34_5 O 0.53582(9) 0.29885(10) 0.27751(9)
O72_7 O 0.54323(10) 0.24881(11) 0.34840(10)
O81_25 O 0.3441(2) 0.0000 0.17590(17)
O83_8 O 0.5000 0.32410(17) 0.3441(2)
O42_4 O 0.46418(9) 0.70115(10) 0.27751(9)
O44_4 O 0.53582(9) 0.70115(10) 0.27751(9)
O76_5 O 0.54323(10) 0.75119(11) 0.34840(10)
O81_26 O 0.3441(2) 1.0000 0.17590(17)
O87_8 O 0.5000 0.67590(17) 0.3441(2)
O89_13 O 0.0000 0.82410(17) 0.3441(2)
S10_10 S 0.62649(4) 0.10148(4) 0.29123(4)
S11_10 S 0.60148(4) 0.20877(4) 0.37351(4)
S12_10 S 0.70877(4) 0.12649(4) 0.39852(4)
O55_10 O 0.65160(10) 0.04323(10) 0.25119(11)
O81_27 O 0.6559(2) -0.0000 0.17590(17)
C14_10 C 0.67207(14) 0.05030(13) 0.27478(13)
C15_10 C 0.72522(13) 0.17207(14) 0.44970(13)
C16_10 C 0.55030(13) 0.22522(13) 0.32793(14)
C37_10 C 0.66312(15) 0.07776(14) 0.29913(13)
C38_10 C 0.57776(14) 0.20087(13) 0.33688(15)
C39_10 C 0.70087(13) 0.16312(15) 0.42224(14)
C60_10 C 0.68217(18) 0.08751(14) 0.32827(13)
C61_10 C 0.58751(14) 0.17173(13) 0.31783(18)
C62_10 C 0.67173(13) 0.18217(18) 0.41249(14)
H10_10 H 0.7028 0.0775 0.3360
H11_10 H 0.6640 0.2028 0.4225
H12_10 H 0.5775 0.1640 0.2972
C83_10 C 0.66373(15) 0.11610(15) 0.34421(14)
C84_10 C 0.61610(15) 0.15579(14) 0.33627(15)
C85_10 C 0.65579(14) 0.16373(15) 0.38390(15)
C106_10 C 0.63479(15) 0.12648(15) 0.32613(15)
C107_10 C 0.62648(15) 0.17387(15) 0.36521(15)
C108_10 C 0.67387(15) 0.13479(15) 0.37352(15)
Cd29_11 Cd 0.726914(12) 0.684104(12) 0.5000
S4_7 S 0.62649(4) 0.89852(4) 0.29123(4)
S5_7 S 0.60148(4) 0.79123(4) 0.37351(4)
S6_7 S 0.70877(4) 0.87351(4) 0.39852(4)
S22_8 S 0.79123(4) 0.62649(4) 0.39852(4)
S23_8 S 0.87351(4) 0.60148(4) 0.29123(4)
S24_8 S 0.89852(4) 0.70877(4) 0.37351(4)
O49_7 O 0.65160(10) 0.95677(10) 0.25119(11)
O67_8 O 0.75119(11) 0.65160(10) 0.45677(10)
O68_7 O 0.95677(10) 0.74881(11) 0.34840(10)
O81_28 O 0.6559(2) 1.0000 0.17590(17)
O89_14 O 1.0000 0.82410(17) 0.3441(2)
C8_7 C 0.67207(14) 0.94970(13) 0.27478(13)
C9_7 C 0.72522(13) 0.82793(14) 0.44970(13)
C10_7 C 0.55030(13) 0.77478(13) 0.32793(14)
C26_8 C 0.77478(13) 0.67207(14) 0.44970(13)
C27_8 C 0.94970(13) 0.72522(13) 0.32793(14)
C28_8 C 0.82793(14) 0.55030(13) 0.27478(13)
C31_7 C 0.66312(15) 0.92224(14) 0.29913(13)
C32_7 C 0.57776(14) 0.79913(13) 0.33688(15)
C33_7 C 0.70087(13) 0.83688(15) 0.42224(14)
C49_8 C 0.79913(13) 0.66312(15) 0.42224(14)
C50_8 C 0.83688(15) 0.57776(14) 0.29913(13)
C51_8 C 0.92224(14) 0.70087(13) 0.33688(15)
C54_7 C 0.68217(18) 0.91249(14) 0.32827(13)
C55_7 C 0.58751(14) 0.82827(13) 0.31783(18)
C56_7 C 0.67173(13) 0.81783(18) 0.41249(14)
C72_8 C 0.82827(13) 0.68217(18) 0.41249(14)
C73_8 C 0.81783(18) 0.58751(14) 0.32827(13)
C74_8 C 0.91249(14) 0.67173(13) 0.31783(18)
H4_7 H 0.7028 0.9225 0.3360
H5_7 H 0.6640 0.7972 0.4225
H6_7 H 0.5775 0.8360 0.2972
H22_8 H 0.8360 0.7028 0.4225
H23_8 H 0.9225 0.6640 0.2972
H24_8 H 0.7972 0.5775 0.3360
C77_7 C 0.66373(15) 0.88390(15) 0.34421(14)
C78_7 C 0.61610(15) 0.84421(14) 0.33627(15)
C79_7 C 0.65579(14) 0.83627(15) 0.38390(15)
C95_8 C 0.84421(14) 0.66373(15) 0.38390(15)
C96_8 C 0.83627(15) 0.61610(15) 0.34421(14)
C97_8 C 0.88390(15) 0.65579(14) 0.33627(15)
C100_7 C 0.63479(15) 0.87352(15) 0.32613(15)
C101_7 C 0.62648(15) 0.82613(15) 0.36521(15)
C102_7 C 0.67387(15) 0.86521(15) 0.37352(15)
C118_8 C 0.82613(15) 0.63479(15) 0.37352(15)
C119_8 C 0.86521(15) 0.62648(15) 0.32613(15)
C120_8 C 0.87352(15) 0.67387(15) 0.36521(15)
S19_10 S 0.79123(4) 0.62649(4) 0.60148(4)
S20_10 S 0.87351(4) 0.60148(4) 0.70877(4)
S21_10 S 0.89852(4) 0.70877(4) 0.62649(4)
O64_10 O 0.75119(11) 0.65160(10) 0.54323(10)
C23_10 C 0.77478(13) 0.67207(14) 0.55030(13)
C24_10 C 0.94970(13) 0.72522(13) 0.67207(14)
C25_10 C 0.82793(14) 0.55030(13) 0.72522(13)
C46_10 C 0.79913(13) 0.66312(15) 0.57776(14)
C47_10 C 0.83688(15) 0.57776(14) 0.70087(13)
C48_10 C 0.92224(14) 0.70087(13) 0.66312(15)
C69_10 C 0.82827(13) 0.68217(18) 0.58751(14)
C70_10 C 0.81783(18) 0.58751(14) 0.67173(13)
C71_10 C 0.91249(14) 0.67173(13) 0.68217(18)
H19_10 H 0.8360 0.7028 0.5775
H20_10 H 0.9225 0.6640 0.7028
H21_10 H 0.7972 0.5775 0.6640
C92_10 C 0.84421(14) 0.66373(15) 0.61610(15)
C93_10 C 0.83627(15) 0.61610(15) 0.65579(14)
C94_10 C 0.88390(15) 0.65579(14) 0.66373(15)
C115_10 C 0.82613(15) 0.63479(15) 0.62648(15)
C116_10 C 0.86521(15) 0.62648(15) 0.67387(15)
C117_10 C 0.87352(15) 0.67387(15) 0.63479(15)
O29_12 O 0.29885(10) 0.72249(9) 0.53582(9)
O30_12 O 0.29885(10) 0.72249(9) 0.46418(9)
O81_29 O 0.32410(17) 0.6559(2) 0.5000
O29_13 O 0.70115(10) 0.72249(9) 0.46418(9)
O30_13 O 0.70115(10) 0.72249(9) 0.53582(9)
O81_30 O 0.67590(17) 0.6559(2) 0.5000
Cd30_9 Cd 0.315896(12) 0.5000 0.726914(12)
Cd31_6 Cd 0.5000 0.684104(12) 0.773086(12)
S22_9 S 0.37351(4) 0.70877(4) 0.60148(4)
S23_9 S 0.39852(4) 0.62649(4) 0.70877(4)
S24_9 S 0.29123(4) 0.60148(4) 0.62649(4)
O25_5 O 0.27751(9) 0.53582(9) 0.70115(10)
O46_5 O 0.27751(9) 0.46418(9) 0.70115(10)
O67_9 O 0.34840(10) 0.74881(11) 0.54323(10)
O68_8 O 0.25119(11) 0.54323(10) 0.65160(10)
O69_8 O 0.45677(10) 0.65160(10) 0.74881(11)
O78_7 O 0.25119(11) 0.45677(10) 0.65160(10)
O89_15 O 0.17590(17) 0.5000 0.6559(2)
C26_9 C 0.32793(14) 0.72522(13) 0.55030(13)
C27_9 C 0.27478(13) 0.55030(13) 0.67207(14)
C28_9 C 0.44970(13) 0.67207(14) 0.72522(13)
C49_9 C 0.33688(15) 0.70087(13) 0.57776(14)
C50_9 C 0.42224(14) 0.66312(15) 0.70087(13)
C51_9 C 0.29913(13) 0.57776(14) 0.66312(15)
C72_9 C 0.31783(18) 0.67173(13) 0.58751(14)
C73_9 C 0.41249(14) 0.68217(18) 0.67173(13)
C74_9 C 0.32827(13) 0.58751(14) 0.68217(18)
H22_9 H 0.2972 0.6640 0.5775
H23_9 H 0.3360 0.5775 0.7028
H24_9 H 0.4225 0.7028 0.6640
C95_9 C 0.33627(15) 0.65579(14) 0.61610(15)
C96_9 C 0.38390(15) 0.66373(15) 0.65579(14)
C97_9 C 0.34421(14) 0.61610(15) 0.66373(15)
C118_9 C 0.36521(15) 0.67387(15) 0.62648(15)
C119_9 C 0.37352(15) 0.63479(15) 0.67387(15)
C120_9 C 0.32613(15) 0.62648(15) 0.63479(15)
Cd4_9 Cd 0.684104(12) 0.5000 0.273086(12)
Cd14_3 Cd 0.5000 0.684104(12) 0.226914(12)
Cd17_4 Cd 0.5000 0.315896(12) 0.226914(12)
S4_8 S 0.62649(4) 0.60148(4) 0.20877(4)
S5_8 S 0.60148(4) 0.70877(4) 0.12649(4)
S6_8 S 0.70877(4) 0.62649(4) 0.10148(4)
S10_11 S 0.62649(4) 0.39852(4) 0.20877(4)
S11_11 S 0.60148(4) 0.29123(4) 0.12649(4)
S12_11 S 0.70877(4) 0.37351(4) 0.10148(4)
O8_4 O 0.53582(9) 0.72249(9) 0.20115(10)
O14_6 O 0.53582(9) 0.27751(9) 0.20115(10)
O29_14 O 0.72249(9) 0.53582(9) 0.29885(10)
O30_14 O 0.72249(9) 0.46418(9) 0.29885(10)
O33_7 O 0.46418(9) 0.72249(9) 0.20115(10)
O43_5 O 0.46418(9) 0.27751(9) 0.20115(10)
O49_8 O 0.65160(10) 0.54323(10) 0.24881(11)
O50_5 O 0.74881(11) 0.65160(10) 0.04323(10)
O51_4 O 0.54323(10) 0.74881(11) 0.15160(10)
O55_11 O 0.65160(10) 0.45677(10) 0.24881(11)
O56_5 O 0.74881(11) 0.34840(10) 0.04323(10)
O57_6 O 0.54323(10) 0.25119(11) 0.15160(10)
O72_8 O 0.45677(10) 0.74881(11) 0.15160(10)
O76_6 O 0.45677(10) 0.25119(11) 0.15160(10)
O81_31 O 0.6559(2) 0.5000 0.32410(17)
O82_7 O 0.82410(17) 0.6559(2) 0.0000
O83_9 O 0.5000 0.82410(17) 0.1559(2)
O86_7 O 0.82410(17) 0.3441(2) 0.0000
O87_9 O 0.5000 0.17590(17) 0.1559(2)
C8_8 C 0.67207(14) 0.55030(13) 0.22522(13)
C9_8 C 0.72522(13) 0.67207(14) 0.05030(13)
C10_8 C 0.55030(13) 0.72522(13) 0.17207(14)
C14_11 C 0.67207(14) 0.44970(13) 0.22522(13)
C15_11 C 0.72522(13) 0.32793(14) 0.05030(13)
C16_11 C 0.55030(13) 0.27478(13) 0.17207(14)
C31_8 C 0.66312(15) 0.57776(14) 0.20087(13)
C32_8 C 0.57776(14) 0.70087(13) 0.16312(15)
C33_8 C 0.70087(13) 0.66312(15) 0.07776(14)
C37_11 C 0.66312(15) 0.42224(14) 0.20087(13)
C38_11 C 0.57776(14) 0.29913(13) 0.16312(15)
C39_11 C 0.70087(13) 0.33688(15) 0.07776(14)
C54_8 C 0.68217(18) 0.58751(14) 0.17173(13)
C55_8 C 0.58751(14) 0.67173(13) 0.18217(18)
C56_8 C 0.67173(13) 0.68217(18) 0.08751(14)
C60_11 C 0.68217(18) 0.41249(14) 0.17173(13)
C61_11 C 0.58751(14) 0.32827(13) 0.18217(18)
C62_11 C 0.67173(13) 0.31783(18) 0.08751(14)
H4_8 H 0.7028 0.5775 0.1640
H5_8 H 0.6640 0.7028 0.0775
H6_8 H 0.5775 0.6640 0.2028
H10_11 H 0.7028 0.4225 0.1640
H11_11 H 0.6640 0.2972 0.0775
H12_11 H 0.5775 0.3360 0.2028
C77_8 C 0.66373(15) 0.61610(15) 0.15579(14)
C78_8 C 0.61610(15) 0.65579(14) 0.16373(15)
C79_8 C 0.65579(14) 0.66373(15) 0.11610(15)
C83_11 C 0.66373(15) 0.38390(15) 0.15579(14)
C84_11 C 0.61610(15) 0.34421(14) 0.16373(15)
C85_11 C 0.65579(14) 0.33627(15) 0.11610(15)
C100_8 C 0.63479(15) 0.62648(15) 0.17387(15)
C101_8 C 0.62648(15) 0.67387(15) 0.13479(15)
C102_8 C 0.67387(15) 0.63479(15) 0.12648(15)
C106_11 C 0.63479(15) 0.37352(15) 0.17387(15)
C107_11 C 0.62648(15) 0.32613(15) 0.13479(15)
C108_11 C 0.67387(15) 0.36521(15) 0.12648(15)
O71_5 O 0.74881(11) 0.65160(10) 0.95677(10)
O75_5 O 0.74881(11) 0.34840(10) 0.95677(10)
O82_8 O 0.82410(17) 0.6559(2) 1.0000
O86_8 O 0.82410(17) 0.3441(2) 1.0000
Cd30_10 Cd 0.684104(12) 0.5000 0.726914(12)
Cd31_7 Cd 0.5000 0.315896(12) 0.773086(12)
S22_10 S 0.62649(4) 0.29123(4) 0.60148(4)
S23_10 S 0.60148(4) 0.37351(4) 0.70877(4)
S24_10 S 0.70877(4) 0.39852(4) 0.62649(4)
O25_6 O 0.72249(9) 0.46418(9) 0.70115(10)
O46_6 O 0.72249(9) 0.53582(9) 0.70115(10)
O67_10 O 0.65160(10) 0.25119(11) 0.54323(10)
O68_9 O 0.74881(11) 0.45677(10) 0.65160(10)
O69_9 O 0.54323(10) 0.34840(10) 0.74881(11)
O78_8 O 0.74881(11) 0.54323(10) 0.65160(10)
O89_16 O 0.82410(17) 0.5000 0.6559(2)
C26_10 C 0.67207(14) 0.27478(13) 0.55030(13)
C27_10 C 0.72522(13) 0.44970(13) 0.67207(14)
C28_10 C 0.55030(13) 0.32793(14) 0.72522(13)
C49_10 C 0.66312(15) 0.29913(13) 0.57776(14)
C50_10 C 0.57776(14) 0.33688(15) 0.70087(13)
C51_10 C 0.70087(13) 0.42224(14) 0.66312(15)
C72_10 C 0.68217(18) 0.32827(13) 0.58751(14)
C73_10 C 0.58751(14) 0.31783(18) 0.67173(13)
C74_10 C 0.67173(13) 0.41249(14) 0.68217(18)
H22_10 H 0.7028 0.3360 0.5775
H23_10 H 0.6640 0.4225 0.7028
H24_10 H 0.5775 0.2972 0.6640
C95_10 C 0.66373(15) 0.34421(14) 0.61610(15)
C96_10 C 0.61610(15) 0.33627(15) 0.65579(14)
C97_10 C 0.65579(14) 0.38390(15) 0.66373(15)
C118_10 C 0.63479(15) 0.32613(15) 0.62648(15)
C119_10 C 0.62648(15) 0.36521(15) 0.67387(15)
C120_10 C 0.67387(15) 0.37352(15) 0.63479(15)
Cd4_10 Cd 0.315896(12) 0.5000 0.273086(12)
S4_9 S 0.37351(4) 0.39852(4) 0.20877(4)
S5_9 S 0.39852(4) 0.29123(4) 0.12649(4)
S6_9 S 0.29123(4) 0.37351(4) 0.10148(4)
S10_12 S 0.37351(4) 0.60148(4) 0.20877(4)
S11_12 S 0.39852(4) 0.70877(4) 0.12649(4)
S12_12 S 0.29123(4) 0.62649(4) 0.10148(4)
O29_15 O 0.27751(9) 0.46418(9) 0.29885(10)
O30_15 O 0.27751(9) 0.53582(9) 0.29885(10)
O49_9 O 0.34840(10) 0.45677(10) 0.24881(11)
O50_6 O 0.25119(11) 0.34840(10) 0.04323(10)
O55_12 O 0.34840(10) 0.54323(10) 0.24881(11)
O56_6 O 0.25119(11) 0.65160(10) 0.04323(10)
O81_32 O 0.3441(2) 0.5000 0.32410(17)
O82_9 O 0.17590(17) 0.3441(2) 0.0000
O86_9 O 0.17590(17) 0.6559(2) 0.0000
C8_9 C 0.32793(14) 0.44970(13) 0.22522(13)
C9_9 C 0.27478(13) 0.32793(14) 0.05030(13)
C10_9 C 0.44970(13) 0.27478(13) 0.17207(14)
C14_12 C 0.32793(14) 0.55030(13) 0.22522(13)
C15_12 C 0.27478(13) 0.67207(14) 0.05030(13)
C16_12 C 0.44970(13) 0.72522(13) 0.17207(14)
C31_9 C 0.33688(15) 0.42224(14) 0.20087(13)
C32_9 C 0.42224(14) 0.29913(13) 0.16312(15)
C33_9 C 0.29913(13) 0.33688(15) 0.07776(14)
C37_12 C 0.33688(15) 0.57776(14) 0.20087(13)
C38_12 C 0.42224(14) 0.70087(13) 0.16312(15)
C39_12 C 0.29913(13) 0.66312(15) 0.07776(14)
C54_9 C 0.31783(18) 0.41249(14) 0.17173(13)
C55_9 C 0.41249(14) 0.32827(13) 0.18217(18)
C56_9 C 0.32827(13) 0.31783(18) 0.08751(14)
C60_12 C 0.31783(18) 0.58751(14) 0.17173(13)
C61_12 C 0.41249(14) 0.67173(13) 0.18217(18)
C62_12 C 0.32827(13) 0.68217(18) 0.08751(14)
H4_9 H 0.2972 0.4225 0.1640
H5_9 H 0.3360 0.2972 0.0775
H6_9 H 0.4225 0.3360 0.2028
H10_12 H 0.2972 0.5775 0.1640
H11_12 H 0.3360 0.7028 0.0775
H12_12 H 0.4225 0.6640 0.2028
C77_9 C 0.33627(15) 0.38390(15) 0.15579(14)
C78_9 C 0.38390(15) 0.34421(14) 0.16373(15)
C79_9 C 0.34421(14) 0.33627(15) 0.11610(15)
C83_12 C 0.33627(15) 0.61610(15) 0.15579(14)
C84_12 C 0.38390(15) 0.65579(14) 0.16373(15)
C85_12 C 0.34421(14) 0.66373(15) 0.11610(15)
C100_9 C 0.36521(15) 0.37352(15) 0.17387(15)
C101_9 C 0.37352(15) 0.32613(15) 0.13479(15)
C102_9 C 0.32613(15) 0.36521(15) 0.12648(15)
C106_12 C 0.36521(15) 0.62648(15) 0.17387(15)
C107_12 C 0.37352(15) 0.67387(15) 0.13479(15)
C108_12 C 0.32613(15) 0.63479(15) 0.12648(15)
O71_6 O 0.25119(11) 0.34840(10) 0.95677(10)
O75_6 O 0.25119(11) 0.65160(10) 0.95677(10)
O82_10 O 0.17590(17) 0.3441(2) 1.0000
O86_10 O 0.17590(17) 0.6559(2) 1.0000
S22_11 S 0.37351(4) 0.29123(4) 0.39852(4)
S23_11 S 0.39852(4) 0.37351(4) 0.29123(4)
S24_11 S 0.29123(4) 0.39852(4) 0.37351(4)
O67_11 O 0.34840(10) 0.25119(11) 0.45677(10)
O68_10 O 0.25119(11) 0.45677(10) 0.34840(10)
O69_10 O 0.45677(10) 0.34840(10) 0.25119(11)
O78_9 O 0.25119(11) 0.54323(10) 0.34840(10)
O89_17 O 0.17590(17) 0.5000 0.3441(2)
C26_11 C 0.32793(14) 0.27478(13) 0.44970(13)
C27_11 C 0.27478(13) 0.44970(13) 0.32793(14)
C28_11 C 0.44970(13) 0.32793(14) 0.27478(13)
C49_11 C 0.33688(15) 0.29913(13) 0.42224(14)
C50_11 C 0.42224(14) 0.33688(15) 0.29913(13)
C51_11 C 0.29913(13) 0.42224(14) 0.33688(15)
C72_11 C 0.31783(18) 0.32827(13) 0.41249(14)
C73_11 C 0.41249(14) 0.31783(18) 0.32827(13)
C74_11 C 0.32827(13) 0.41249(14) 0.31783(18)
H22_11 H 0.2972 0.3360 0.4225
H23_11 H 0.3360 0.4225 0.2972
H24_11 H 0.4225 0.2972 0.3360
C95_11 C 0.33627(15) 0.34421(14) 0.38390(15)
C96_11 C 0.38390(15) 0.33627(15) 0.34421(14)
C97_11 C 0.34421(14) 0.38390(15) 0.33627(15)
C118_11 C 0.36521(15) 0.32613(15) 0.37352(15)
C119_11 C 0.37352(15) 0.36521(15) 0.32613(15)
C120_11 C 0.32613(15) 0.37352(15) 0.36521(15)
S22_12 S 0.37351(4) 0.60148(4) 0.79123(4)
S23_12 S 0.39852(4) 0.70877(4) 0.87351(4)
S24_12 S 0.29123(4) 0.62649(4) 0.89852(4)
O26_8 O 0.46418(9) 0.72249(9) 0.79885(10)
O67_12 O 0.34840(10) 0.54323(10) 0.75119(11)
O69_11 O 0.45677(10) 0.74881(11) 0.84840(10)
C26_12 C 0.32793(14) 0.55030(13) 0.77478(13)
C27_12 C 0.27478(13) 0.67207(14) 0.94970(13)
C28_12 C 0.44970(13) 0.72522(13) 0.82793(14)
C49_12 C 0.33688(15) 0.57776(14) 0.79913(13)
C50_12 C 0.42224(14) 0.70087(13) 0.83688(15)
C51_12 C 0.29913(13) 0.66312(15) 0.92224(14)
C72_12 C 0.31783(18) 0.58751(14) 0.82827(13)
C73_12 C 0.41249(14) 0.67173(13) 0.81783(18)
C74_12 C 0.32827(13) 0.68217(18) 0.91249(14)
H22_12 H 0.2972 0.5775 0.8360
H23_12 H 0.3360 0.7028 0.9225
H24_12 H 0.4225 0.6640 0.7972
C95_12 C 0.33627(15) 0.61610(15) 0.84421(14)
C96_12 C 0.38390(15) 0.65579(14) 0.83627(15)
C97_12 C 0.34421(14) 0.66373(15) 0.88390(15)
C118_12 C 0.36521(15) 0.62648(15) 0.82613(15)
C119_12 C 0.37352(15) 0.67387(15) 0.86521(15)
C120_12 C 0.32613(15) 0.63479(15) 0.87352(15)
S19_11 S 0.37351(4) 0.39852(4) 0.79123(4)
S20_11 S 0.39852(4) 0.29123(4) 0.87351(4)
S21_11 S 0.29123(4) 0.37351(4) 0.89852(4)
O23_6 O 0.46418(9) 0.27751(9) 0.79885(10)
O64_11 O 0.34840(10) 0.45677(10) 0.75119(11)
O66_6 O 0.45677(10) 0.25119(11) 0.84840(10)
C23_11 C 0.32793(14) 0.44970(13) 0.77478(13)
C24_11 C 0.27478(13) 0.32793(14) 0.94970(13)
C25_11 C 0.44970(13) 0.27478(13) 0.82793(14)
C46_11 C 0.33688(15) 0.42224(14) 0.79913(13)
C47_11 C 0.42224(14) 0.29913(13) 0.83688(15)
C48_11 C 0.29913(13) 0.33688(15) 0.92224(14)
C69_11 C 0.31783(18) 0.41249(14) 0.82827(13)
C70_11 C 0.41249(14) 0.32827(13) 0.81783(18)
C71_11 C 0.32827(13) 0.31783(18) 0.91249(14)
H19_11 H 0.2972 0.4225 0.8360
H20_11 H 0.3360 0.2972 0.9225
H21_11 H 0.4225 0.3360 0.7972
C92_11 C 0.33627(15) 0.38390(15) 0.84421(14)
C93_11 C 0.38390(15) 0.34421(14) 0.83627(15)
C94_11 C 0.34421(14) 0.33627(15) 0.88390(15)
C115_11 C 0.36521(15) 0.37352(15) 0.82613(15)
C116_11 C 0.37352(15) 0.32613(15) 0.86521(15)
C117_11 C 0.32613(15) 0.36521(15) 0.87352(15)
S22_13 S 0.62649(4) 0.70877(4) 0.39852(4)
S23_13 S 0.60148(4) 0.62649(4) 0.29123(4)
S24_13 S 0.70877(4) 0.60148(4) 0.37351(4)
O67_13 O 0.65160(10) 0.74881(11) 0.45677(10)
O68_11 O 0.74881(11) 0.54323(10) 0.34840(10)
O69_12 O 0.54323(10) 0.65160(10) 0.25119(11)
O78_10 O 0.74881(11) 0.45677(10) 0.34840(10)
O89_18 O 0.82410(17) 0.5000 0.3441(2)
C26_13 C 0.67207(14) 0.72522(13) 0.44970(13)
C27_13 C 0.72522(13) 0.55030(13) 0.32793(14)
C28_13 C 0.55030(13) 0.67207(14) 0.27478(13)
C49_13 C 0.66312(15) 0.70087(13) 0.42224(14)
C50_13 C 0.57776(14) 0.66312(15) 0.29913(13)
C51_13 C 0.70087(13) 0.57776(14) 0.33688(15)
C72_13 C 0.68217(18) 0.67173(13) 0.41249(14)
C73_13 C 0.58751(14) 0.68217(18) 0.32827(13)
C74_13 C 0.67173(13) 0.58751(14) 0.31783(18)
H22_13 H 0.7028 0.6640 0.4225
H23_13 H 0.6640 0.5775 0.2972
H24_13 H 0.5775 0.7028 0.3360
C95_13 C 0.66373(15) 0.65579(14) 0.38390(15)
C96_13 C 0.61610(15) 0.66373(15) 0.34421(14)
C97_13 C 0.65579(14) 0.61610(15) 0.33627(15)
C118_13 C 0.63479(15) 0.67387(15) 0.37352(15)
C119_13 C 0.62648(15) 0.63479(15) 0.32613(15)
C120_13 C 0.67387(15) 0.62648(15) 0.36521(15)
S19_12 S 0.37351(4) 0.70877(4) 0.39852(4)
S20_12 S 0.39852(4) 0.62649(4) 0.29123(4)
S21_12 S 0.29123(4) 0.60148(4) 0.37351(4)
O64_12 O 0.34840(10) 0.74881(11) 0.45677(10)
O66_7 O 0.45677(10) 0.65160(10) 0.25119(11)
C23_12 C 0.32793(14) 0.72522(13) 0.44970(13)
C24_12 C 0.27478(13) 0.55030(13) 0.32793(14)
C25_12 C 0.44970(13) 0.67207(14) 0.27478(13)
C46_12 C 0.33688(15) 0.70087(13) 0.42224(14)
C47_12 C 0.42224(14) 0.66312(15) 0.29913(13)
C48_12 C 0.29913(13) 0.57776(14) 0.33688(15)
C69_12 C 0.31783(18) 0.67173(13) 0.41249(14)
C70_12 C 0.41249(14) 0.68217(18) 0.32827(13)
C71_12 C 0.32827(13) 0.58751(14) 0.31783(18)
H19_12 H 0.2972 0.6640 0.4225
H20_12 H 0.3360 0.5775 0.2972
H21_12 H 0.4225 0.7028 0.3360
C92_12 C 0.33627(15) 0.65579(14) 0.38390(15)
C93_12 C 0.38390(15) 0.66373(15) 0.34421(14)
C94_12 C 0.34421(14) 0.61610(15) 0.33627(15)
C115_12 C 0.36521(15) 0.67387(15) 0.37352(15)
C116_12 C 0.37352(15) 0.63479(15) 0.32613(15)
C117_12 C 0.32613(15) 0.62648(15) 0.36521(15)
O34_6 O 0.53582(9) 0.72249(9) 0.79885(10)
O72_9 O 0.54323(10) 0.65160(10) 0.74881(11)
O81_33 O 0.3441(2) 0.82410(17) 0.5000
O83_10 O 0.5000 0.6559(2) 0.82410(17)
O87_10 O 0.5000 0.6559(2) 0.17590(17)
S10_13 S 0.62649(4) 0.29123(4) 0.39852(4)
S11_13 S 0.60148(4) 0.37351(4) 0.29123(4)
S12_13 S 0.70877(4) 0.39852(4) 0.37351(4)
O32_6 O 0.53582(9) 0.27751(9) 0.79885(10)
O55_13 O 0.65160(10) 0.25119(11) 0.45677(10)
O57_7 O 0.54323(10) 0.34840(10) 0.25119(11)
O72_10 O 0.45677(10) 0.34840(10) 0.74881(11)
O81_34 O 0.6559(2) 0.17590(17) 0.5000
O83_11 O 0.5000 0.3441(2) 0.82410(17)
O87_11 O 0.5000 0.3441(2) 0.17590(17)
C14_13 C 0.67207(14) 0.27478(13) 0.44970(13)
C15_13 C 0.72522(13) 0.44970(13) 0.32793(14)
C16_13 C 0.55030(13) 0.32793(14) 0.27478(13)
C37_13 C 0.66312(15) 0.29913(13) 0.42224(14)
C38_13 C 0.57776(14) 0.33688(15) 0.29913(13)
C39_13 C 0.70087(13) 0.42224(14) 0.33688(15)
C60_13 C 0.68217(18) 0.32827(13) 0.41249(14)
C61_13 C 0.58751(14) 0.31783(18) 0.32827(13)
C62_13 C 0.67173(13) 0.41249(14) 0.31783(18)
H10_13 H 0.7028 0.3360 0.4225
H11_13 H 0.6640 0.4225 0.2972
H12_13 H 0.5775 0.2972 0.3360
C83_13 C 0.66373(15) 0.34421(14) 0.38390(15)
C84_13 C 0.61610(15) 0.33627(15) 0.34421(14)
C85_13 C 0.65579(14) 0.38390(15) 0.33627(15)
C106_13 C 0.63479(15) 0.32613(15) 0.37352(15)
C107_13 C 0.62648(15) 0.36521(15) 0.32613(15)
C108_13 C 0.67387(15) 0.37352(15) 0.36521(15)
S19_13 S 0.37351(4) 0.29123(4) 0.60148(4)
S20_13 S 0.39852(4) 0.37351(4) 0.70877(4)
S21_13 S 0.29123(4) 0.39852(4) 0.62649(4)
O64_13 O 0.34840(10) 0.25119(11) 0.54323(10)
C23_13 C 0.32793(14) 0.27478(13) 0.55030(13)
C24_13 C 0.27478(13) 0.44970(13) 0.67207(14)
C25_13 C 0.44970(13) 0.32793(14) 0.72522(13)
C46_13 C 0.33688(15) 0.29913(13) 0.57776(14)
C47_13 C 0.42224(14) 0.33688(15) 0.70087(13)
C48_13 C 0.29913(13) 0.42224(14) 0.66312(15)
C69_13 C 0.31783(18) 0.32827(13) 0.58751(14)
C70_13 C 0.41249(14) 0.31783(18) 0.67173(13)
C71_13 C 0.32827(13) 0.41249(14) 0.68217(18)
H19_13 H 0.2972 0.3360 0.5775
H20_13 H 0.3360 0.4225 0.7028
H21_13 H 0.4225 0.2972 0.6640
C92_13 C 0.33627(15) 0.34421(14) 0.61610(15)
C93_13 C 0.38390(15) 0.33627(15) 0.65579(14)
C94_13 C 0.34421(14) 0.38390(15) 0.66373(15)
C115_13 C 0.36521(15) 0.32613(15) 0.62648(15)
C116_13 C 0.37352(15) 0.36521(15) 0.67387(15)
C117_13 C 0.32613(15) 0.37352(15) 0.63479(15)
S10_14 S 0.62649(4) 0.70877(4) 0.60148(4)
S11_14 S 0.60148(4) 0.62649(4) 0.70877(4)
S12_14 S 0.70877(4) 0.60148(4) 0.62649(4)
O55_14 O 0.65160(10) 0.74881(11) 0.54323(10)
O81_35 O 0.6559(2) 0.82410(17) 0.5000
C14_14 C 0.67207(14) 0.72522(13) 0.55030(13)
C15_14 C 0.72522(13) 0.55030(13) 0.67207(14)
C16_14 C 0.55030(13) 0.67207(14) 0.72522(13)
C37_14 C 0.66312(15) 0.70087(13) 0.57776(14)
C38_14 C 0.57776(14) 0.66312(15) 0.70087(13)
C39_14 C 0.70087(13) 0.57776(14) 0.66312(15)
C60_14 C 0.68217(18) 0.67173(13) 0.58751(14)
C61_14 C 0.58751(14) 0.68217(18) 0.67173(13)
C62_14 C 0.67173(13) 0.58751(14) 0.68217(18)
H10_14 H 0.7028 0.6640 0.5775
H11_14 H 0.6640 0.5775 0.7028
H12_14 H 0.5775 0.7028 0.6640
C83_14 C 0.66373(15) 0.65579(14) 0.61610(15)
C84_14 C 0.61610(15) 0.66373(15) 0.65579(14)
C85_14 C 0.65579(14) 0.61610(15) 0.66373(15)
C106_14 C 0.63479(15) 0.67387(15) 0.62648(15)
C107_14 C 0.62648(15) 0.63479(15) 0.67387(15)
C108_14 C 0.67387(15) 0.62648(15) 0.63479(15)
O81_36 O 0.3441(2) 0.17590(17) 0.5000
O72_11 O 0.54323(10) 0.74881(11) 0.84840(10)
O76_7 O 0.54323(10) 0.25119(11) 0.84840(10)
O81_37 O 0.3441(2) 0.5000 0.67590(17)
O83_12 O 0.5000 0.82410(17) 0.8441(2)
O87_12 O 0.5000 0.17590(17) 0.8441(2)
S4_10 S 0.62649(4) 0.39852(4) 0.79123(4)
S5_10 S 0.60148(4) 0.29123(4) 0.87351(4)
S6_10 S 0.70877(4) 0.37351(4) 0.89852(4)
S10_15 S 0.62649(4) 0.60148(4) 0.79123(4)
S11_15 S 0.60148(4) 0.70877(4) 0.87351(4)
S12_15 S 0.70877(4) 0.62649(4) 0.89852(4)
O49_10 O 0.65160(10) 0.45677(10) 0.75119(11)
O55_15 O 0.65160(10) 0.54323(10) 0.75119(11)
O81_38 O 0.6559(2) 0.5000 0.67590(17)
C8_10 C 0.67207(14) 0.44970(13) 0.77478(13)
C9_10 C 0.72522(13) 0.32793(14) 0.94970(13)
C10_10 C 0.55030(13) 0.27478(13) 0.82793(14)
C14_15 C 0.67207(14) 0.55030(13) 0.77478(13)
C15_15 C 0.72522(13) 0.67207(14) 0.94970(13)
C16_15 C 0.55030(13) 0.72522(13) 0.82793(14)
C31_10 C 0.66312(15) 0.42224(14) 0.79913(13)
C32_10 C 0.57776(14) 0.29913(13) 0.83688(15)
C33_10 C 0.70087(13) 0.33688(15) 0.92224(14)
C37_15 C 0.66312(15) 0.57776(14) 0.79913(13)
C38_15 C 0.57776(14) 0.70087(13) 0.83688(15)
C39_15 C 0.70087(13) 0.66312(15) 0.92224(14)
C54_10 C 0.68217(18) 0.41249(14) 0.82827(13)
C55_10 C 0.58751(14) 0.32827(13) 0.81783(18)
C56_10 C 0.67173(13) 0.31783(18) 0.91249(14)
C60_15 C 0.68217(18) 0.58751(14) 0.82827(13)
C61_15 C 0.58751(14) 0.67173(13) 0.81783(18)
C62_15 C 0.67173(13) 0.68217(18) 0.91249(14)
H4_10 H 0.7028 0.4225 0.8360
H5_10 H 0.6640 0.2972 0.9225
H6_10 H 0.5775 0.3360 0.7972
H10_15 H 0.7028 0.5775 0.8360
H11_15 H 0.6640 0.7028 0.9225
H12_15 H 0.5775 0.6640 0.7972
C77_10 C 0.66373(15) 0.38390(15) 0.84421(14)
C78_10 C 0.61610(15) 0.34421(14) 0.83627(15)
C79_10 C 0.65579(14) 0.33627(15) 0.88390(15)
C83_15 C 0.66373(15) 0.61610(15) 0.84421(14)
C84_15 C 0.61610(15) 0.65579(14) 0.83627(15)
C85_15 C 0.65579(14) 0.66373(15) 0.88390(15)
C100_10 C 0.63479(15) 0.37352(15) 0.82613(15)
C101_10 C 0.62648(15) 0.32613(15) 0.86521(15)
C102_10 C 0.67387(15) 0.36521(15) 0.87352(15)
C106_15 C 0.63479(15) 0.62648(15) 0.82613(15)
C107_15 C 0.62648(15) 0.67387(15) 0.86521(15)
C108_15 C 0.67387(15) 0.63479(15) 0.87352(15)
loop_
_geom_bond_atom_site_label_1
_geom_bond_atom_site_label_2
_geom_bond_site_symmetry_1
_geom_bond_site_symmetry_2
Cd1 O1 1_555 1_555
S1 C2 1_555 1_555
O1 C1 1_555 1_555
O2 Cd1 1_555 1_555
O3 Cd1 1_555 1_555
C1 O2 1_555 1_555
C2 C1 1_555 1_555
C3 C2 1_555 1_555
H1 C3 1_555 1_555
C4 C3 1_555 1_555
C5 S1 1_555 1_555
Cd2 O4 1_555 1_555
Cd3 O5 1_555 1_555
Cd4 O6 1_555 1_555
Cd5 O5 1_555 1_555
Cd6 O8 1_555 1_555
Cd11 O1 1_555 1_555
Cd12 O4 1_555 1_555
Cd13 O7 1_555 1_555
Cd14 O8 1_555 1_555
Cd18 O15 1_555 1_555
Cd19 O16 1_555 1_555
Cd20 O17 1_555 1_555
Cd21 O17 1_555 1_555
Cd29 O24 1_555 1_555
Cd30 O25 1_555 1_555
Cd31 O26 1_555 1_555
Cd32 O26 1_555 1_555
S2 C29 1_555 1_555
S3 C30 1_555 1_555
S4 C31 1_555 1_555
S5 C32 1_555 1_555
S6 C33 1_555 1_555
S13 C40 1_555 1_555
S14 C41 1_555 1_555
S15 C42 1_555 1_555
S22 C49 1_555 1_555
S23 C50 1_555 1_555
S24 C51 1_555 1_555
O4 C6 1_555 1_555
O5 C7 1_555 1_555
O6 Cd1 1_555 1_555
O7 Cd5 1_555 1_555
O8 C10 1_555 1_555
O15 Cd2 1_555 1_555
O16 Cd11 1_555 1_555
O17 C19 1_555 1_555
O24 Cd3 1_555 1_555
O25 Cd12 1_555 1_555
O26 C28 1_555 1_555
O29 Cd4 1_555 1_555
O32 Cd6 1_555 1_555
O33 Cd6 1_555 1_555
O34 Cd6 1_555 1_555
O47 Cd2 1_555 1_555
O48 Cd3 1_555 1_555
O49 Cd4 1_555 1_555
O50 Cd5 1_555 1_555
O51 Cd6 1_555 1_555
O58 Cd18 1_555 1_555
O59 Cd11 1_555 1_555
O60 Cd20 1_555 1_555
O67 Cd29 1_555 1_555
O68 Cd12 1_555 1_555
O69 Cd31 1_555 1_555
O72 Cd6 1_555 1_555
O79 Cd2 1_555 1_555
O80 Cd3 1_555 1_555
O81 Cd4 1_555 1_555
O82 Cd5 1_555 1_555
O83 Cd6 1_555 1_555
O88 Cd11 1_555 1_555
O89 Cd12 1_555 1_555
C6 O47 1_555 1_555
C7 O48 1_555 1_555
C8 O6 1_555 1_555
C9 O7 1_555 1_555
C10 O51 1_555 1_555
C17 O15 1_555 1_555
C18 O16 1_555 1_555
C19 O60 1_555 1_555
C26 O24 1_555 1_555
C27 O25 1_555 1_555
C28 O69 1_555 1_555
C29 C7 1_555 1_555
C30 C6 1_555 1_555
C31 C8 1_555 1_555
C32 C10 1_555 1_555
C33 C9 1_555 1_555
C40 C17 1_555 1_555
C41 C19 1_555 1_555
C42 C18 1_555 1_555
C49 C26 1_555 1_555
C50 C28 1_555 1_555
C51 C27 1_555 1_555
C52 C29 1_555 1_555
C53 C30 1_555 1_555
C54 C31 1_555 1_555
C55 C32 1_555 1_555
C56 C33 1_555 1_555
C63 C40 1_555 1_555
C64 C41 1_555 1_555
C65 C42 1_555 1_555
C72 C49 1_555 1_555
C73 C50 1_555 1_555
C74 C51 1_555 1_555
H2 C53 1_555 1_555
H3 C52 1_555 1_555
H4 C54 1_555 1_555
H5 C56 1_555 1_555
H6 C55 1_555 1_555
H13 C63 1_555 1_555
H14 C65 1_555 1_555
H15 C64 1_555 1_555
H22 C72 1_555 1_555
H23 C74 1_555 1_555
H24 C73 1_555 1_555
C75 C5 1_555 1_555
C76 C53 1_555 1_555
C77 C54 1_555 1_555
C78 C55 1_555 1_555
C79 C56 1_555 1_555
C86 C63 1_555 1_555
C87 C64 1_555 1_555
C88 C65 1_555 1_555
C95 C72 1_555 1_555
C96 C73 1_555 1_555
C97 C74 1_555 1_555
C98 S2 1_555 1_555
C99 C4 1_555 1_555
C100 S4 1_555 1_555
C101 S5 1_555 1_555
C102 S6 1_555 1_555
C109 S13 1_555 1_555
C110 S14 1_555 1_555
C111 S15 1_555 1_555
C118 S22 1_555 1_555
C119 S23 1_555 1_555
C120 S24 1_555 1_555
C4 C5 1_555 1_555
Cd14 O33 1_555 1_555
Cd19 O29 1_555 1_555
S3 C99 1_555 1_555
O49 C8 1_555 1_555
O50 C9 1_555 1_555
O58 C17 1_555 1_555
O59 C18 1_555 1_555
O67 C26 1_555 1_555
O68 C27 1_555 1_555
C52 C75 1_555 1_555
C75 C98 1_555 1_555
C76 C98 1_555 1_555
C76 C99 1_555 1_555
C77 C100 1_555 1_555
C77 C102 1_555 1_555
C78 C100 1_555 1_555
C78 C101 1_555 1_555
C79 C101 1_555 1_555
C79 C102 1_555 1_555
C86 C109 1_555 1_555
C86 C111 1_555 1_555
C87 C109 1_555 1_555
C87 C110 1_555 1_555
C88 C110 1_555 1_555
C88 C111 1_555 1_555
C95 C118 1_555 1_555
C95 C120 1_555 1_555
C96 C118 1_555 1_555
C96 C119 1_555 1_555
C97 C119 1_555 1_555
C97 C120 1_555 1_555
O27 Cd3_2 1_555 1_555
O28 Cd3_2 1_555 1_555
O31 Cd5_2 1_555 1_555
O70 Cd3_2 1_555 1_555
O71 Cd5_2 1_555 1_555
O80_2 Cd3_2 1_555 1_555
O82_2 Cd5_2 1_555 1_555
Cd5_2 O27 1_555 1_555
Cd13_2 O31 1_555 1_555
Cd29_2 O28 1_555 1_555
Cd22 O19 1_555 1_555
Cd23 O19 1_555 1_555
Cd24 O20 1_555 1_555
Cd25 O20 1_555 1_555
Cd26 O22 1_555 1_555
Cd27 O23 1_555 1_555
Cd28 O23 1_555 1_555
S16 C43 1_555 1_555
S17 C44 1_555 1_555
S18 C45 1_555 1_555
S19 C46 1_555 1_555
S20 C47 1_555 1_555
S21 C48 1_555 1_555
O18 Cd2_2 1_555 1_555
O19 C21 1_555 1_555
O20 C22 1_555 1_555
O21 Cd2_2 1_555 1_555
O22 Cd25 1_555 1_555
O23 C25 1_555 1_555
O46 Cd12_2 1_555 1_555
O61 Cd2_2 1_555 1_555
O62 Cd22 1_555 1_555
O63 Cd24 1_555 1_555
O64 Cd18_2 1_555 1_555
O65 Cd25 1_555 1_555
O66 Cd27 1_555 1_555
O78 Cd12_2 1_555 1_555
O79_2 Cd2_2 1_555 1_555
O89_2 Cd12_2 1_555 1_555
C20 O18 1_555 1_555
C21 O62 1_555 1_555
C22 O63 1_555 1_555
C23 O21 1_555 1_555
C24 O22 1_555 1_555
C25 O66 1_555 1_555
C43 C20 1_555 1_555
C44 C22 1_555 1_555
C45 C21 1_555 1_555
C46 C23 1_555 1_555
C47 C25 1_555 1_555
C48 C24 1_555 1_555
C66 C43 1_555 1_555
C67 C44 1_555 1_555
C68 C45 1_555 1_555
C69 C46 1_555 1_555
C70 C47 1_555 1_555
C71 C48 1_555 1_555
H16 C66 1_555 1_555
H17 C68 1_555 1_555
H18 C67 1_555 1_555
H19 C69 1_555 1_555
H20 C71 1_555 1_555
H21 C70 1_555 1_555
C89 C66 1_555 1_555
C90 C67 1_555 1_555
C91 C68 1_555 1_555
C92 C69 1_555 1_555
C93 C70 1_555 1_555
C94 C71 1_555 1_555
C112 S16 1_555 1_555
C113 S17 1_555 1_555
C114 S18 1_555 1_555
C115 S19 1_555 1_555
C116 S20 1_555 1_555
C117 S21 1_555 1_555
Cd12_2 O18 1_555 1_555
Cd18_2 O21 1_555 1_555
Cd30_2 O46 1_555 1_555
O61 C20 1_555 1_555
O64 C23 1_555 1_555
O65 C24 1_555 1_555
C89 C112 1_555 1_555
C89 C114 1_555 1_555
C90 C112 1_555 1_555
C90 C113 1_555 1_555
C91 C113 1_555 1_555
C91 C114 1_555 1_555
C92 C115 1_555 1_555
C92 C117 1_555 1_555
C93 C115 1_555 1_555
C93 C116 1_555 1_555
C94 C116 1_555 1_555
C94 C117 1_555 1_555
O3_2 Cd1_2 1_555 1_555
Cd7 O10 1_555 1_555
Cd8 O11 1_555 1_555
Cd9 O11 1_555 1_555
Cd10 O14 1_555 1_555
Cd15 O10 1_555 1_555
Cd16 O13 1_555 1_555
Cd17 O14 1_555 1_555
S7 C34 1_555 1_555
S8 C35 1_555 1_555
S9 C36 1_555 1_555
S10 C37 1_555 1_555
S11 C38 1_555 1_555
S12 C39 1_555 1_555
O9 Cd1_2 1_555 1_555
O10 C12 1_555 1_555
O11 C13 1_555 1_555
O12 Cd1_2 1_555 1_555
O13 Cd9 1_555 1_555
O14 C16 1_555 1_555
O30 Cd4_2 1_555 1_555
O35 Cd7 1_555 1_555
O38 Cd8 1_555 1_555
O42 Cd10 1_555 1_555
O43 Cd10 1_555 1_555
O44 Cd10 1_555 1_555
O45 Cd11_2 1_555 1_555
O52 Cd1_2 1_555 1_555
O53 Cd7 1_555 1_555
O54 Cd8 1_555 1_555
O55 Cd4_2 1_555 1_555
O56 Cd9 1_555 1_555
O57 Cd10 1_555 1_555
O76 Cd10 1_555 1_555
O77 Cd11_2 1_555 1_555
O81_2 Cd4_2 1_555 1_555
O84 Cd7 1_555 1_555
O85 Cd8 1_555 1_555
O86 Cd9 1_555 1_555
O87 Cd10 1_555 1_555
O88_2 Cd11_2 1_555 1_555
C11 O9 1_555 1_555
C12 O53 1_555 1_555
C13 O54 1_555 1_555
C14 O12 1_555 1_555
C15 O13 1_555 1_555
C16 O57 1_555 1_555
C34 C11 1_555 1_555
C35 C13 1_555 1_555
C36 C12 1_555 1_555
C37 C14 1_555 1_555
C38 C16 1_555 1_555
C39 C15 1_555 1_555
C57 C34 1_555 1_555
C58 C35 1_555 1_555
C59 C36 1_555 1_555
C60 C37 1_555 1_555
C61 C38 1_555 1_555
C62 C39 1_555 1_555
H7 C57 1_555 1_555
H8 C59 1_555 1_555
H9 C58 1_555 1_555
H10 C60 1_555 1_555
H11 C62 1_555 1_555
H12 C61 1_555 1_555
C80 C57 1_555 1_555
C81 C58 1_555 1_555
C82 C59 1_555 1_555
C83 C60 1_555 1_555
C84 C61 1_555 1_555
C85 C62 1_555 1_555
C103 S7 1_555 1_555
C104 S8 1_555 1_555
C105 S9 1_555 1_555
C106 S10 1_555 1_555
C107 S11 1_555 1_555
C108 S12 1_555 1_555
Cd4_2 O12 1_555 1_555
Cd11_2 O9 1_555 1_555
Cd17 O43 1_555 1_555
Cd19_2 O30 1_555 1_555
Cd19_2 O45 1_555 1_555
O52 C11 1_555 1_555
O55 C14 1_555 1_555
O56 C15 1_555 1_555
C80 C103 1_555 1_555
C80 C105 1_555 1_555
C81 C103 1_555 1_555
C81 C104 1_555 1_555
C82 C104 1_555 1_555
C82 C105 1_555 1_555
C83 C106 1_555 1_555
C83 C108 1_555 1_555
C84 C106 1_555 1_555
C84 C107 1_555 1_555
C85 C107 1_555 1_555
C85 C108 1_555 1_555
O39 Cd8_2 1_555 1_555
O40 Cd8_2 1_555 1_555
O41 Cd9_2 1_555 1_555
O74 Cd8_2 1_555 1_555
O75 Cd9_2 1_555 1_555
O85_2 Cd8_2 1_555 1_555
O86_2 Cd9_2 1_555 1_555
Cd9_2 O39 1_555 1_555
Cd16_2 O41 1_555 1_555
O36 Cd7_2 1_555 1_555
O37 Cd7_2 1_555 1_555
O73 Cd7_2 1_555 1_555
O84_2 Cd7_2 1_555 1_555
Cd15_2 O36 1_555 1_555
Cd20 O19_2 1_555 1_555
Cd21 O19_2 1_555 1_555
Cd24_3 O20_2 1_555 1_555
Cd25_3 O20_2 1_555 1_555
Cd26_3 O22_2 1_555 1_555
S16_2 C43_2 1_555 1_555
S17_2 C44_2 1_555 1_555
S18_2 C45_2 1_555 1_555
S19_2 C46_2 1_555 1_555
S20_2 C47_2 1_555 1_555
S21_2 C48_2 1_555 1_555
O18_2 Cd2_3 1_555 1_555
O19_2 C21_2 1_555 1_555
O20_2 C22_2 1_555 1_555
O21_2 Cd2_3 1_555 1_555
O22_2 Cd25_3 1_555 1_555
O27 C25_2 1_555 1_555
O46_2 Cd12_3 1_555 1_555
O61_2 Cd2_3 1_555 1_555
O62_2 Cd20 1_555 1_555
O63_2 Cd24_3 1_555 1_555
O64_2 Cd18_3 1_555 1_555
O65_2 Cd25_3 1_555 1_555
O78_2 Cd12_3 1_555 1_555
O79_3 Cd2_3 1_555 1_555
O89_3 Cd12_3 1_555 1_555
C20_2 O18_2 1_555 1_555
C21_2 O62_2 1_555 1_555
C22_2 O63_2 1_555 1_555
C23_2 O21_2 1_555 1_555
C24_2 O22_2 1_555 1_555
C25_2 O70 1_555 1_555
C43_2 C20_2 1_555 1_555
C44_2 C22_2 1_555 1_555
C45_2 C21_2 1_555 1_555
C46_2 C23_2 1_555 1_555
C47_2 C25_2 1_555 1_555
C48_2 C24_2 1_555 1_555
C66_2 C43_2 1_555 1_555
C67_2 C44_2 1_555 1_555
C68_2 C45_2 1_555 1_555
C69_2 C46_2 1_555 1_555
C70_2 C47_2 1_555 1_555
C71_2 C48_2 1_555 1_555
H16_2 C66_2 1_555 1_555
H17_2 C68_2 1_555 1_555
H18_2 C67_2 1_555 1_555
H19_2 C69_2 1_555 1_555
H20_2 C71_2 1_555 1_555
H21_2 C70_2 1_555 1_555
C89_2 C66_2 1_555 1_555
C90_2 C67_2 1_555 1_555
C91_2 C68_2 1_555 1_555
C92_2 C69_2 1_555 1_555
C93_2 C70_2 1_555 1_555
C94_2 C71_2 1_555 1_555
C112_2 S16_2 1_555 1_555
C113_2 S17_2 1_555 1_555
C114_2 S18_2 1_555 1_555
C115_2 S19_2 1_555 1_555
C116_2 S20_2 1_555 1_555
C117_2 S21_2 1_555 1_555
Cd12_3 O18_2 1_555 1_555
Cd18_3 O21_2 1_555 1_555
Cd30_3 O46_2 1_555 1_555
O61_2 C20_2 1_555 1_555
O64_2 C23_2 1_555 1_555
O65_2 C24_2 1_555 1_555
C89_2 C112_2 1_555 1_555
C89_2 C114_2 1_555 1_555
C90_2 C112_2 1_555 1_555
C90_2 C113_2 1_555 1_555
C91_2 C113_2 1_555 1_555
C91_2 C114_2 1_555 1_555
C92_2 C115_2 1_555 1_555
C92_2 C117_2 1_555 1_555
C93_2 C115_2 1_555 1_555
C93_2 C116_2 1_555 1_555
C94_2 C116_2 1_555 1_555
C94_2 C117_2 1_555 1_555
O36_2 Cd7_3 1_555 1_555
O37_2 Cd7_3 1_555 1_555
O73_2 Cd7_3 1_555 1_555
O84_3 Cd7_3 1_555 1_555
Cd15_3 O36_2 1_555 1_555
Cd1_3 O1_2 1_555 1_555
S1_2 C2_2 1_555 1_555
O1_2 C1_2 1_555 1_555
O2_2 Cd1_3 1_555 1_555
O3_3 Cd1_3 1_555 1_555
C1_2 O2_2 1_555 1_555
C2_2 C1_2 1_555 1_555
C3_2 C2_2 1_555 1_555
H1_2 C3_2 1_555 1_555
C4_2 C3_2 1_555 1_555
C5_2 S1_2 1_555 1_555
Cd2_4 O4_2 1_555 1_555
Cd3_3 O5_2 1_555 1_555
Cd4_3 O6_2 1_555 1_555
Cd5_3 O5_2 1_555 1_555
Cd6_2 O8_2 1_555 1_555
Cd11_3 O1_2 1_555 1_555
Cd12_4 O4_2 1_555 1_555
Cd13_3 O7_2 1_555 1_555
Cd14_2 O8_2 1_555 1_555
Cd18_4 O15_2 1_555 1_555
Cd19_3 O16_2 1_555 1_555
Cd29_3 O24_2 1_555 1_555
Cd30_4 O25_2 1_555 1_555
Cd31_2 O26_2 1_555 1_555
Cd32_2 O26_2 1_555 1_555
S2_2 C29_2 1_555 1_555
S3_2 C30_2 1_555 1_555
S4_2 C31_2 1_555 1_555
S5_2 C32_2 1_555 1_555
S6_2 C33_2 1_555 1_555
S13_2 C40_2 1_555 1_555
S14_2 C41_2 1_555 1_555
S15_2 C42_2 1_555 1_555
S22_2 C49_2 1_555 1_555
S23_2 C50_2 1_555 1_555
S24_2 C51_2 1_555 1_555
O4_2 C6_2 1_555 1_555
O5_2 C7_2 1_555 1_555
O6_2 Cd1_3 1_555 1_555
O7_2 Cd5_3 1_555 1_555
O8_2 C10_2 1_555 1_555
O15_2 Cd2_4 1_555 1_555
O16_2 Cd11_3 1_555 1_555
O39 C19_2 1_555 1_555
O24_2 Cd3_3 1_555 1_555
O25_2 Cd12_4 1_555 1_555
O26_2 C28_2 1_555 1_555
O27_2 Cd3_3 1_555 1_555
O28_2 Cd3_3 1_555 1_555
O29_2 Cd4_3 1_555 1_555
O31_2 Cd5_3 1_555 1_555
O32_2 Cd6_2 1_555 1_555
O33_2 Cd6_2 1_555 1_555
O34_2 Cd6_2 1_555 1_555
O47_2 Cd2_4 1_555 1_555
O48_2 Cd3_3 1_555 1_555
O49_2 Cd4_3 1_555 1_555
O50_2 Cd5_3 1_555 1_555
O51_2 Cd6_2 1_555 1_555
O58_2 Cd18_4 1_555 1_555
O59_2 Cd11_3 1_555 1_555
O67_2 Cd29_3 1_555 1_555
O68_2 Cd12_4 1_555 1_555
O69_2 Cd31_2 1_555 1_555
O70_2 Cd3_3 1_555 1_555
O71_2 Cd5_3 1_555 1_555
O72_2 Cd6_2 1_555 1_555
O79_4 Cd2_4 1_555 1_555
O80_3 Cd3_3 1_555 1_555
O81_3 Cd4_3 1_555 1_555
O82_3 Cd5_3 1_555 1_555
O83_2 Cd6_2 1_555 1_555
O88_3 Cd11_3 1_555 1_555
O89_4 Cd12_4 1_555 1_555
C6_2 O47_2 1_555 1_555
C7_2 O48_2 1_555 1_555
C8_2 O6_2 1_555 1_555
C9_2 O7_2 1_555 1_555
C10_2 O51_2 1_555 1_555
C17_2 O15_2 1_555 1_555
C18_2 O16_2 1_555 1_555
C19_2 O74 1_555 1_555
C26_2 O24_2 1_555 1_555
C27_2 O25_2 1_555 1_555
C28_2 O69_2 1_555 1_555
C29_2 C7_2 1_555 1_555
C30_2 C6_2 1_555 1_555
C31_2 C8_2 1_555 1_555
C32_2 C10_2 1_555 1_555
C33_2 C9_2 1_555 1_555
C40_2 C17_2 1_555 1_555
C41_2 C19_2 1_555 1_555
C42_2 C18_2 1_555 1_555
C49_2 C26_2 1_555 1_555
C50_2 C28_2 1_555 1_555
C51_2 C27_2 1_555 1_555
C52_2 C29_2 1_555 1_555
C53_2 C30_2 1_555 1_555
C54_2 C31_2 1_555 1_555
C55_2 C32_2 1_555 1_555
C56_2 C33_2 1_555 1_555
C63_2 C40_2 1_555 1_555
C64_2 C41_2 1_555 1_555
C65_2 C42_2 1_555 1_555
C72_2 C49_2 1_555 1_555
C73_2 C50_2 1_555 1_555
C74_2 C51_2 1_555 1_555
H2_2 C53_2 1_555 1_555
H3_2 C52_2 1_555 1_555
H4_2 C54_2 1_555 1_555
H5_2 C56_2 1_555 1_555
H6_2 C55_2 1_555 1_555
H13_2 C63_2 1_555 1_555
H14_2 C65_2 1_555 1_555
H15_2 C64_2 1_555 1_555
H22_2 C72_2 1_555 1_555
H23_2 C74_2 1_555 1_555
H24_2 C73_2 1_555 1_555
C75_2 C5_2 1_555 1_555
C76_2 C53_2 1_555 1_555
C77_2 C54_2 1_555 1_555
C78_2 C55_2 1_555 1_555
C79_2 C56_2 1_555 1_555
C86_2 C63_2 1_555 1_555
C87_2 C64_2 1_555 1_555
C88_2 C65_2 1_555 1_555
C95_2 C72_2 1_555 1_555
C96_2 C73_2 1_555 1_555
C97_2 C74_2 1_555 1_555
C98_2 S2_2 1_555 1_555
C99_2 C4_2 1_555 1_555
C100_2 S4_2 1_555 1_555
C101_2 S5_2 1_555 1_555
C102_2 S6_2 1_555 1_555
C109_2 S13_2 1_555 1_555
C110_2 S14_2 1_555 1_555
C111_2 S15_2 1_555 1_555
C118_2 S22_2 1_555 1_555
C119_2 S23_2 1_555 1_555
C120_2 S24_2 1_555 1_555
C4_2 C5_2 1_555 1_555
Cd5_3 O27_2 1_555 1_555
Cd13_3 O31_2 1_555 1_555
Cd14_2 O33_2 1_555 1_555
Cd19_3 O29_2 1_555 1_555
Cd29_3 O28_2 1_555 1_555
S3_2 C99_2 1_555 1_555
O49_2 C8_2 1_555 1_555
O50_2 C9_2 1_555 1_555
O58_2 C17_2 1_555 1_555
O59_2 C18_2 1_555 1_555
O67_2 C26_2 1_555 1_555
O68_2 C27_2 1_555 1_555
C52_2 C75_2 1_555 1_555
C75_2 C98_2 1_555 1_555
C76_2 C98_2 1_555 1_555
C76_2 C99_2 1_555 1_555
C77_2 C100_2 1_555 1_555
C77_2 C102_2 1_555 1_555
C78_2 C100_2 1_555 1_555
C78_2 C101_2 1_555 1_555
C79_2 C101_2 1_555 1_555
C79_2 C102_2 1_555 1_555
C86_2 C109_2 1_555 1_555
C86_2 C111_2 1_555 1_555
C87_2 C109_2 1_555 1_555
C87_2 C110_2 1_555 1_555
C88_2 C110_2 1_555 1_555
C88_2 C111_2 1_555 1_555
C95_2 C118_2 1_555 1_555
C95_2 C120_2 1_555 1_555
C96_2 C118_2 1_555 1_555
C96_2 C119_2 1_555 1_555
C97_2 C119_2 1_555 1_555
C97_2 C120_2 1_555 1_555
O3_4 Cd1_4 1_555 1_555
Cd7_4 O10_2 1_555 1_555
Cd8_3 O11_2 1_555 1_555
Cd9_3 O11_2 1_555 1_555
Cd10_2 O14_2 1_555 1_555
Cd15_4 O10_2 1_555 1_555
Cd16_3 O13_2 1_555 1_555
Cd17_2 O14_2 1_555 1_555
S7_2 C34_2 1_555 1_555
S8_2 C35_2 1_555 1_555
S9_2 C36_2 1_555 1_555
S10_2 C37_2 1_555 1_555
S11_2 C38_2 1_555 1_555
S12_2 C39_2 1_555 1_555
O9_2 Cd1_4 1_555 1_555
O10_2 C12_2 1_555 1_555
O11_2 C13_2 1_555 1_555
O12_2 Cd1_4 1_555 1_555
O13_2 Cd9_3 1_555 1_555
O14_2 C16_2 1_555 1_555
O30_2 Cd4_4 1_555 1_555
O35_2 Cd7_4 1_555 1_555
O38_2 Cd8_3 1_555 1_555
O39_2 Cd8_3 1_555 1_555
O40_2 Cd8_3 1_555 1_555
O41_2 Cd9_3 1_555 1_555
O42_2 Cd10_2 1_555 1_555
O43_2 Cd10_2 1_555 1_555
O44_2 Cd10_2 1_555 1_555
O45_2 Cd11_4 1_555 1_555
O52_2 Cd1_4 1_555 1_555
O53_2 Cd7_4 1_555 1_555
O54_2 Cd8_3 1_555 1_555
O55_2 Cd4_4 1_555 1_555
O56_2 Cd9_3 1_555 1_555
O57_2 Cd10_2 1_555 1_555
O74_2 Cd8_3 1_555 1_555
O75_2 Cd9_3 1_555 1_555
O76_2 Cd10_2 1_555 1_555
O77_2 Cd11_4 1_555 1_555
O81_4 Cd4_4 1_555 1_555
O84_4 Cd7_4 1_555 1_555
O85_3 Cd8_3 1_555 1_555
O86_3 Cd9_3 1_555 1_555
O87_2 Cd10_2 1_555 1_555
O88_4 Cd11_4 1_555 1_555
C11_2 O9_2 1_555 1_555
C12_2 O53_2 1_555 1_555
C13_2 O54_2 1_555 1_555
C14_2 O12_2 1_555 1_555
C15_2 O13_2 1_555 1_555
C16_2 O57_2 1_555 1_555
C34_2 C11_2 1_555 1_555
C35_2 C13_2 1_555 1_555
C36_2 C12_2 1_555 1_555
C37_2 C14_2 1_555 1_555
C38_2 C16_2 1_555 1_555
C39_2 C15_2 1_555 1_555
C57_2 C34_2 1_555 1_555
C58_2 C35_2 1_555 1_555
C59_2 C36_2 1_555 1_555
C60_2 C37_2 1_555 1_555
C61_2 C38_2 1_555 1_555
C62_2 C39_2 1_555 1_555
H7_2 C57_2 1_555 1_555
H8_2 C59_2 1_555 1_555
H9_2 C58_2 1_555 1_555
H10_2 C60_2 1_555 1_555
H11_2 C62_2 1_555 1_555
H12_2 C61_2 1_555 1_555
C80_2 C57_2 1_555 1_555
C81_2 C58_2 1_555 1_555
C82_2 C59_2 1_555 1_555
C83_2 C60_2 1_555 1_555
C84_2 C61_2 1_555 1_555
C85_2 C62_2 1_555 1_555
C103_2 S7_2 1_555 1_555
C104_2 S8_2 1_555 1_555
C105_2 S9_2 1_555 1_555
C106_2 S10_2 1_555 1_555
C107_2 S11_2 1_555 1_555
C108_2 S12_2 1_555 1_555
Cd4_4 O12_2 1_555 1_555
Cd9_3 O39_2 1_555 1_555
Cd11_4 O9_2 1_555 1_555
Cd16_3 O41_2 1_555 1_555
Cd17_2 O43_2 1_555 1_555
Cd19_4 O30_2 1_555 1_555
Cd19_4 O45_2 1_555 1_555
O52_2 C11_2 1_555 1_555
O55_2 C14_2 1_555 1_555
O56_2 C15_2 1_555 1_555
C80_2 C103_2 1_555 1_555
C80_2 C105_2 1_555 1_555
C81_2 C103_2 1_555 1_555
C81_2 C104_2 1_555 1_555
C82_2 C104_2 1_555 1_555
C82_2 C105_2 1_555 1_555
C83_2 C106_2 1_555 1_555
C83_2 C108_2 1_555 1_555
C84_2 C106_2 1_555 1_555
C84_2 C107_2 1_555 1_555
C85_2 C107_2 1_555 1_555
C85_2 C108_2 1_555 1_555
O3_5 Cd24 1_555 1_555
Cd16_4 O13_3 1_555 1_555
S10_3 C37_3 1_555 1_555
S11_3 C38_3 1_555 1_555
S12_3 C39_3 1_555 1_555
O12_3 Cd24 1_555 1_555
O13_3 Cd23 1_555 1_555
O33 C16_3 1_555 1_555
O30_3 Cd4_5 1_555 1_555
O38_3 Cd22 1_555 1_555
O55_3 Cd4_5 1_555 1_555
O56_3 Cd23 1_555 1_555
O81_5 Cd4_5 1_555 1_555
O85_4 Cd22 1_555 1_555
O86_4 Cd23 1_555 1_555
O88_5 Cd25 1_555 1_555
C14_3 O12_3 1_555 1_555
C15_3 O13_3 1_555 1_555
C16_3 O72 1_555 1_555
C37_3 C14_3 1_555 1_555
C38_3 C16_3 1_555 1_555
C39_3 C15_3 1_555 1_555
C60_3 C37_3 1_555 1_555
C61_3 C38_3 1_555 1_555
C62_3 C39_3 1_555 1_555
H10_3 C60_3 1_555 1_555
H11_3 C62_3 1_555 1_555
H12_3 C61_3 1_555 1_555
C83_3 C60_3 1_555 1_555
C84_3 C61_3 1_555 1_555
C85_3 C62_3 1_555 1_555
C106_3 S10_3 1_555 1_555
C107_3 S11_3 1_555 1_555
C108_3 S12_3 1_555 1_555
Cd4_5 O12_3 1_555 1_555
Cd26 O30_3 1_555 1_555
O55_3 C14_3 1_555 1_555
O56_3 C15_3 1_555 1_555
C83_3 C106_3 1_555 1_555
C83_3 C108_3 1_555 1_555
C84_3 C106_3 1_555 1_555
C84_3 C107_3 1_555 1_555
C85_3 C107_3 1_555 1_555
C85_3 C108_3 1_555 1_555
O39_3 Cd22_2 1_555 1_555
O40_3 Cd22_2 1_555 1_555
O41_3 Cd23_2 1_555 1_555
O74_3 Cd22_2 1_555 1_555
O75_3 Cd23_2 1_555 1_555
O85_5 Cd22_2 1_555 1_555
O86_5 Cd23_2 1_555 1_555
Cd23_2 O39_3 1_555 1_555
Cd16_5 O41_3 1_555 1_555
S19_3 C46_3 1_555 1_555
S20_3 C47_3 1_555 1_555
S21_3 C48_3 1_555 1_555
O27_2 C25_3 1_555 1_555
O46_3 Cd15 1_555 1_555
O64_3 Cd18_5 1_555 1_555
O78_3 Cd15 1_555 1_555
O89_5 Cd15 1_555 1_555
C23_3 O35 1_555 1_555
C24_3 O45 1_555 1_555
C25_3 O70_2 1_555 1_555
C46_3 C23_3 1_555 1_555
C47_3 C25_3 1_555 1_555
C48_3 C24_3 1_555 1_555
C69_3 C46_3 1_555 1_555
C70_3 C47_3 1_555 1_555
C71_3 C48_3 1_555 1_555
H19_3 C69_3 1_555 1_555
H20_3 C71_3 1_555 1_555
H21_3 C70_3 1_555 1_555
C92_3 C69_3 1_555 1_555
C93_3 C70_3 1_555 1_555
C94_3 C71_3 1_555 1_555
C115_3 S19_3 1_555 1_555
C116_3 S20_3 1_555 1_555
C117_3 S21_3 1_555 1_555
Cd18_5 O35 1_555 1_555
Cd30_5 O46_3 1_555 1_555
O64_3 C23_3 1_555 1_555
O77 C24_3 1_555 1_555
C92_3 C115_3 1_555 1_555
C92_3 C117_3 1_555 1_555
C93_3 C115_3 1_555 1_555
C93_3 C116_3 1_555 1_555
C94_3 C116_3 1_555 1_555
C94_3 C117_3 1_555 1_555
Cd24_2 O1_3 1_555 1_555
S1_3 C2_3 1_555 1_555
O1_3 C1_3 1_555 1_555
O2_3 Cd24_2 1_555 1_555
O3_6 Cd24_2 1_555 1_555
C1_3 O2_3 1_555 1_555
C2_3 C1_3 1_555 1_555
C3_3 C2_3 1_555 1_555
H1_3 C3_3 1_555 1_555
C4_3 C3_3 1_555 1_555
C5_3 S1_3 1_555 1_555
Cd3_4 O5_3 1_555 1_555
Cd4_6 O6_3 1_555 1_555
Cd5_4 O5_3 1_555 1_555
Cd25_2 O1_3 1_555 1_555
Cd13_4 O7_3 1_555 1_555
Cd18_6 O37 1_555 1_555
Cd26_2 O16_3 1_555 1_555
Cd29_4 O24_3 1_555 1_555
Cd30_6 O25_3 1_555 1_555
Cd31_3 O26_3 1_555 1_555
Cd32_3 O26_3 1_555 1_555
S2_3 C29_3 1_555 1_555
S3_3 C30_3 1_555 1_555
S4_3 C31_3 1_555 1_555
S5_3 C32_3 1_555 1_555
S6_3 C33_3 1_555 1_555
S13_3 C40_3 1_555 1_555
S14_3 C41_3 1_555 1_555
S15_3 C42_3 1_555 1_555
S22_3 C49_3 1_555 1_555
S23_3 C50_3 1_555 1_555
S24_3 C51_3 1_555 1_555
O36 C6_3 1_555 1_555
O5_3 C7_3 1_555 1_555
O6_3 Cd24_2 1_555 1_555
O7_3 Cd5_4 1_555 1_555
O43 C10_3 1_555 1_555
O16_3 Cd25_2 1_555 1_555
O39_2 C19_3 1_555 1_555
O24_3 Cd3_4 1_555 1_555
O25_3 Cd15_2 1_555 1_555
O26_3 C28_3 1_555 1_555
O29_3 Cd4_6 1_555 1_555
O48_3 Cd3_4 1_555 1_555
O49_3 Cd4_6 1_555 1_555
O50_3 Cd5_4 1_555 1_555
O58_3 Cd18_6 1_555 1_555
O59_3 Cd25_2 1_555 1_555
O67_3 Cd29_4 1_555 1_555
O68_3 Cd15_2 1_555 1_555
O69_3 Cd31_3 1_555 1_555
O80_4 Cd3_4 1_555 1_555
O81_6 Cd4_6 1_555 1_555
O82_4 Cd5_4 1_555 1_555
O88_6 Cd25_2 1_555 1_555
O89_6 Cd15_2 1_555 1_555
C6_3 O73 1_555 1_555
C7_3 O48_3 1_555 1_555
C8_3 O6_3 1_555 1_555
C9_3 O7_3 1_555 1_555
C10_3 O76 1_555 1_555
C17_3 O37 1_555 1_555
C18_3 O16_3 1_555 1_555
C19_3 O74_2 1_555 1_555
C26_3 O24_3 1_555 1_555
C27_3 O25_3 1_555 1_555
C28_3 O69_3 1_555 1_555
C29_3 C7_3 1_555 1_555
C30_3 C6_3 1_555 1_555
C31_3 C8_3 1_555 1_555
C32_3 C10_3 1_555 1_555
C33_3 C9_3 1_555 1_555
C40_3 C17_3 1_555 1_555
C41_3 C19_3 1_555 1_555
C42_3 C18_3 1_555 1_555
C49_3 C26_3 1_555 1_555
C50_3 C28_3 1_555 1_555
C51_3 C27_3 1_555 1_555
C52_3 C29_3 1_555 1_555
C53_3 C30_3 1_555 1_555
C54_3 C31_3 1_555 1_555
C55_3 C32_3 1_555 1_555
C56_3 C33_3 1_555 1_555
C63_3 C40_3 1_555 1_555
C64_3 C41_3 1_555 1_555
C65_3 C42_3 1_555 1_555
C72_3 C49_3 1_555 1_555
C73_3 C50_3 1_555 1_555
C74_3 C51_3 1_555 1_555
H2_3 C53_3 1_555 1_555
H3_3 C52_3 1_555 1_555
H4_3 C54_3 1_555 1_555
H5_3 C56_3 1_555 1_555
H6_3 C55_3 1_555 1_555
H13_3 C63_3 1_555 1_555
H14_3 C65_3 1_555 1_555
H15_3 C64_3 1_555 1_555
H22_3 C72_3 1_555 1_555
H23_3 C74_3 1_555 1_555
H24_3 C73_3 1_555 1_555
C75_3 C5_3 1_555 1_555
C76_3 C53_3 1_555 1_555
C77_3 C54_3 1_555 1_555
C78_3 C55_3 1_555 1_555
C79_3 C56_3 1_555 1_555
C86_3 C63_3 1_555 1_555
C87_3 C64_3 1_555 1_555
C88_3 C65_3 1_555 1_555
C95_3 C72_3 1_555 1_555
C96_3 C73_3 1_555 1_555
C97_3 C74_3 1_555 1_555
C98_3 S2_3 1_555 1_555
C99_3 C4_3 1_555 1_555
C100_3 S4_3 1_555 1_555
C101_3 S5_3 1_555 1_555
C102_3 S6_3 1_555 1_555
C109_3 S13_3 1_555 1_555
C110_3 S14_3 1_555 1_555
C111_3 S15_3 1_555 1_555
C118_3 S22_3 1_555 1_555
C119_3 S23_3 1_555 1_555
C120_3 S24_3 1_555 1_555
C4_3 C5_3 1_555 1_555
Cd26_2 O29_3 1_555 1_555
S3_3 C99_3 1_555 1_555
O49_3 C8_3 1_555 1_555
O50_3 C9_3 1_555 1_555
O58_3 C17_3 1_555 1_555
O59_3 C18_3 1_555 1_555
O67_3 C26_3 1_555 1_555
O68_3 C27_3 1_555 1_555
C52_3 C75_3 1_555 1_555
C75_3 C98_3 1_555 1_555
C76_3 C98_3 1_555 1_555
C76_3 C99_3 1_555 1_555
C77_3 C100_3 1_555 1_555
C77_3 C102_3 1_555 1_555
C78_3 C100_3 1_555 1_555
C78_3 C101_3 1_555 1_555
C79_3 C101_3 1_555 1_555
C79_3 C102_3 1_555 1_555
C86_3 C109_3 1_555 1_555
C86_3 C111_3 1_555 1_555
C87_3 C109_3 1_555 1_555
C87_3 C110_3 1_555 1_555
C88_3 C110_3 1_555 1_555
C88_3 C111_3 1_555 1_555
C95_3 C118_3 1_555 1_555
C95_3 C120_3 1_555 1_555
C96_3 C118_3 1_555 1_555
C96_3 C119_3 1_555 1_555
C97_3 C119_3 1_555 1_555
C97_3 C120_3 1_555 1_555
O27_3 Cd3_5 1_555 1_555
O28_3 Cd3_5 1_555 1_555
O31_3 Cd5_5 1_555 1_555
O70_3 Cd3_5 1_555 1_555
O71_3 Cd5_5 1_555 1_555
O80_5 Cd3_5 1_555 1_555
O82_5 Cd5_5 1_555 1_555
Cd5_5 O27_3 1_555 1_555
Cd13_5 O31_3 1_555 1_555
Cd29_5 O28_3 1_555 1_555
O3_7 Cd24_3 1_555 1_555
Cd16_6 O13_4 1_555 1_555
S10_4 C37_4 1_555 1_555
S11_4 C38_4 1_555 1_555
S12_4 C39_4 1_555 1_555
O12_4 Cd24_3 1_555 1_555
O13_4 Cd21 1_555 1_555
O33_2 C16_4 1_555 1_555
O30_4 Cd4_7 1_555 1_555
O38_4 Cd20 1_555 1_555
O40_4 Cd20 1_555 1_555
O41_4 Cd21 1_555 1_555
O55_4 Cd4_7 1_555 1_555
O56_4 Cd21 1_555 1_555
O75_4 Cd21 1_555 1_555
O81_7 Cd4_7 1_555 1_555
O85_6 Cd20 1_555 1_555
O86_6 Cd21 1_555 1_555
O88_7 Cd25_3 1_555 1_555
C14_4 O12_4 1_555 1_555
C15_4 O13_4 1_555 1_555
C16_4 O72_2 1_555 1_555
C37_4 C14_4 1_555 1_555
C38_4 C16_4 1_555 1_555
C39_4 C15_4 1_555 1_555
C60_4 C37_4 1_555 1_555
C61_4 C38_4 1_555 1_555
C62_4 C39_4 1_555 1_555
H10_4 C60_4 1_555 1_555
H11_4 C62_4 1_555 1_555
H12_4 C61_4 1_555 1_555
C83_4 C60_4 1_555 1_555
C84_4 C61_4 1_555 1_555
C85_4 C62_4 1_555 1_555
C106_4 S10_4 1_555 1_555
C107_4 S11_4 1_555 1_555
C108_4 S12_4 1_555 1_555
Cd4_7 O12_4 1_555 1_555
Cd16_6 O41_4 1_555 1_555
Cd26_3 O30_4 1_555 1_555
O55_4 C14_4 1_555 1_555
O56_4 C15_4 1_555 1_555
C83_4 C106_4 1_555 1_555
C83_4 C108_4 1_555 1_555
C84_4 C106_4 1_555 1_555
C84_4 C107_4 1_555 1_555
C85_4 C107_4 1_555 1_555
C85_4 C108_4 1_555 1_555
Cd24_4 O1_4 1_555 1_555
S1_4 C2_4 1_555 1_555
O1_4 C1_4 1_555 1_555
O2_4 Cd24_4 1_555 1_555
O3_8 Cd24_4 1_555 1_555
C1_4 O2_4 1_555 1_555
C2_4 C1_4 1_555 1_555
C3_4 C2_4 1_555 1_555
H1_4 C3_4 1_555 1_555
C4_4 C3_4 1_555 1_555
C5_4 S1_4 1_555 1_555
Cd27 O5_4 1_555 1_555
Cd4_8 O6_4 1_555 1_555
Cd28 O5_4 1_555 1_555
Cd25_4 O1_4 1_555 1_555
Cd13_6 O7_4 1_555 1_555
Cd18_7 O37_2 1_555 1_555
Cd26_4 O16_4 1_555 1_555
Cd29_6 O24_4 1_555 1_555
Cd30_7 O25_4 1_555 1_555
Cd31_4 O26_4 1_555 1_555
Cd32_4 O26_4 1_555 1_555
S2_4 C29_4 1_555 1_555
S3_4 C30_4 1_555 1_555
S4_4 C31_4 1_555 1_555
S5_4 C32_4 1_555 1_555
S6_4 C33_4 1_555 1_555
S13_4 C40_4 1_555 1_555
S14_4 C41_4 1_555 1_555
S15_4 C42_4 1_555 1_555
S22_4 C49_4 1_555 1_555
S23_4 C50_4 1_555 1_555
S24_4 C51_4 1_555 1_555
O36_2 C6_4 1_555 1_555
O5_4 C7_4 1_555 1_555
O6_4 Cd24_4 1_555 1_555
O7_4 Cd28 1_555 1_555
O43_2 C10_4 1_555 1_555
O16_4 Cd25_4 1_555 1_555
O39_3 C19_4 1_555 1_555
O24_4 Cd27 1_555 1_555
O25_4 Cd15_3 1_555 1_555
O26_4 C28_4 1_555 1_555
O28_4 Cd27 1_555 1_555
O29_4 Cd4_8 1_555 1_555
O31_4 Cd28 1_555 1_555
O48_4 Cd27 1_555 1_555
O49_4 Cd4_8 1_555 1_555
O50_4 Cd28 1_555 1_555
O58_4 Cd18_7 1_555 1_555
O59_4 Cd25_4 1_555 1_555
O67_4 Cd29_6 1_555 1_555
O68_4 Cd15_3 1_555 1_555
O69_4 Cd31_4 1_555 1_555
O71_4 Cd28 1_555 1_555
O80_6 Cd27 1_555 1_555
O81_8 Cd4_8 1_555 1_555
O82_6 Cd28 1_555 1_555
O88_8 Cd25_4 1_555 1_555
O89_7 Cd15_3 1_555 1_555
C6_4 O73_2 1_555 1_555
C7_4 O48_4 1_555 1_555
C8_4 O6_4 1_555 1_555
C9_4 O7_4 1_555 1_555
C10_4 O76_2 1_555 1_555
C17_4 O37_2 1_555 1_555
C18_4 O16_4 1_555 1_555
C19_4 O74_3 1_555 1_555
C26_4 O24_4 1_555 1_555
C27_4 O25_4 1_555 1_555
C28_4 O69_4 1_555 1_555
C29_4 C7_4 1_555 1_555
C30_4 C6_4 1_555 1_555
C31_4 C8_4 1_555 1_555
C32_4 C10_4 1_555 1_555
C33_4 C9_4 1_555 1_555
C40_4 C17_4 1_555 1_555
C41_4 C19_4 1_555 1_555
C42_4 C18_4 1_555 1_555
C49_4 C26_4 1_555 1_555
C50_4 C28_4 1_555 1_555
C51_4 C27_4 1_555 1_555
C52_4 C29_4 1_555 1_555
C53_4 C30_4 1_555 1_555
C54_4 C31_4 1_555 1_555
C55_4 C32_4 1_555 1_555
C56_4 C33_4 1_555 1_555
C63_4 C40_4 1_555 1_555
C64_4 C41_4 1_555 1_555
C65_4 C42_4 1_555 1_555
C72_4 C49_4 1_555 1_555
C73_4 C50_4 1_555 1_555
C74_4 C51_4 1_555 1_555
H2_4 C53_4 1_555 1_555
H3_4 C52_4 1_555 1_555
H4_4 C54_4 1_555 1_555
H5_4 C56_4 1_555 1_555
H6_4 C55_4 1_555 1_555
H13_4 C63_4 1_555 1_555
H14_4 C65_4 1_555 1_555
H15_4 C64_4 1_555 1_555
H22_4 C72_4 1_555 1_555
H23_4 C74_4 1_555 1_555
H24_4 C73_4 1_555 1_555
C75_4 C5_4 1_555 1_555
C76_4 C53_4 1_555 1_555
C77_4 C54_4 1_555 1_555
C78_4 C55_4 1_555 1_555
C79_4 C56_4 1_555 1_555
C86_4 C63_4 1_555 1_555
C87_4 C64_4 1_555 1_555
C88_4 C65_4 1_555 1_555
C95_4 C72_4 1_555 1_555
C96_4 C73_4 1_555 1_555
C97_4 C74_4 1_555 1_555
C98_4 S2_4 1_555 1_555
C99_4 C4_4 1_555 1_555
C100_4 S4_4 1_555 1_555
C101_4 S5_4 1_555 1_555
C102_4 S6_4 1_555 1_555
C109_4 S13_4 1_555 1_555
C110_4 S14_4 1_555 1_555
C111_4 S15_4 1_555 1_555
C118_4 S22_4 1_555 1_555
C119_4 S23_4 1_555 1_555
C120_4 S24_4 1_555 1_555
C4_4 C5_4 1_555 1_555
Cd13_6 O31_4 1_555 1_555
Cd26_4 O29_4 1_555 1_555
Cd29_6 O28_4 1_555 1_555
S3_4 C99_4 1_555 1_555
O49_4 C8_4 1_555 1_555
O50_4 C9_4 1_555 1_555
O58_4 C17_4 1_555 1_555
O59_4 C18_4 1_555 1_555
O67_4 C26_4 1_555 1_555
O68_4 C27_4 1_555 1_555
C52_4 C75_4 1_555 1_555
C75_4 C98_4 1_555 1_555
C76_4 C98_4 1_555 1_555
C76_4 C99_4 1_555 1_555
C77_4 C100_4 1_555 1_555
C77_4 C102_4 1_555 1_555
C78_4 C100_4 1_555 1_555
C78_4 C101_4 1_555 1_555
C79_4 C101_4 1_555 1_555
C79_4 C102_4 1_555 1_555
C86_4 C109_4 1_555 1_555
C86_4 C111_4 1_555 1_555
C87_4 C109_4 1_555 1_555
C87_4 C110_4 1_555 1_555
C88_4 C110_4 1_555 1_555
C88_4 C111_4 1_555 1_555
C95_4 C118_4 1_555 1_555
C95_4 C120_4 1_555 1_555
C96_4 C118_4 1_555 1_555
C96_4 C119_4 1_555 1_555
C97_4 C119_4 1_555 1_555
C97_4 C120_4 1_555 1_555
S19_4 C46_4 1_555 1_555
S20_4 C47_4 1_555 1_555
S21_4 C48_4 1_555 1_555
O27_3 C25_4 1_555 1_555
O46_4 Cd15_4 1_555 1_555
O64_4 Cd18_8 1_555 1_555
O78_4 Cd15_4 1_555 1_555
O89_8 Cd15_4 1_555 1_555
C23_4 O35_2 1_555 1_555
C24_4 O45_2 1_555 1_555
C25_4 O70_3 1_555 1_555
C46_4 C23_4 1_555 1_555
C47_4 C25_4 1_555 1_555
C48_4 C24_4 1_555 1_555
C69_4 C46_4 1_555 1_555
C70_4 C47_4 1_555 1_555
C71_4 C48_4 1_555 1_555
H19_4 C69_4 1_555 1_555
H20_4 C71_4 1_555 1_555
H21_4 C70_4 1_555 1_555
C92_4 C69_4 1_555 1_555
C93_4 C70_4 1_555 1_555
C94_4 C71_4 1_555 1_555
C115_4 S19_4 1_555 1_555
C116_4 S20_4 1_555 1_555
C117_4 S21_4 1_555 1_555
Cd18_8 O35_2 1_555 1_555
Cd30_8 O46_4 1_555 1_555
O64_4 C23_4 1_555 1_555
O77_2 C24_4 1_555 1_555
C92_4 C115_4 1_555 1_555
C92_4 C117_4 1_555 1_555
C93_4 C115_4 1_555 1_555
C93_4 C116_4 1_555 1_555
C94_4 C116_4 1_555 1_555
C94_4 C117_4 1_555 1_555
Cd14 O23_2 1_555 1_555
Cd28_2 O23_2 1_555 1_555
S19_5 C46_5 1_555 1_555
S20_5 C47_5 1_555 1_555
S21_5 C48_5 1_555 1_555
O23_2 C25_5 1_555 1_555
O29_5 Cd18_7 1_555 1_555
O64_5 Cd29_6 1_555 1_555
O65_3 Cd26 1_555 1_555
O66_2 Cd14 1_555 1_555
O81_9 Cd18_7 1_555 1_555
C23_5 O28_4 1_555 1_555
C24_5 O30_3 1_555 1_555
C25_5 O66_2 1_555 1_555
C46_5 C23_5 1_555 1_555
C47_5 C25_5 1_555 1_555
C48_5 C24_5 1_555 1_555
C69_5 C46_5 1_555 1_555
C70_5 C47_5 1_555 1_555
C71_5 C48_5 1_555 1_555
H19_5 C69_5 1_555 1_555
H20_5 C71_5 1_555 1_555
H21_5 C70_5 1_555 1_555
C92_5 C69_5 1_555 1_555
C93_5 C70_5 1_555 1_555
C94_5 C71_5 1_555 1_555
C115_5 S19_5 1_555 1_555
C116_5 S20_5 1_555 1_555
C117_5 S21_5 1_555 1_555
Cd30_7 O29_5 1_555 1_555
O64_5 C23_5 1_555 1_555
O65_3 C24_5 1_555 1_555
C92_5 C115_5 1_555 1_555
C92_5 C117_5 1_555 1_555
C93_5 C115_5 1_555 1_555
C93_5 C116_5 1_555 1_555
C94_5 C116_5 1_555 1_555
C94_5 C117_5 1_555 1_555
O30_5 Cd18_8 1_555 1_555
O81_10 Cd18_8 1_555 1_555
Cd30_8 O30_5 1_555 1_555
O78_5 Cd26_3 1_555 1_555
O89_9 Cd26_3 1_555 1_555
Cd29_7 O38_3 1_555 1_555
Cd6_3 O8_3 1_555 1_555
Cd31_4 O8_3 1_555 1_555
Cd29_8 O40_3 1_555 1_555
Cd17_2 O26_5 1_555 1_555
Cd32_5 O26_5 1_555 1_555
S4_5 C31_5 1_555 1_555
S5_5 C32_5 1_555 1_555
S6_5 C33_5 1_555 1_555
S22_5 C49_5 1_555 1_555
S23_5 C50_5 1_555 1_555
S24_5 C51_5 1_555 1_555
O8_3 C10_5 1_555 1_555
O26_5 C28_5 1_555 1_555
O32_3 Cd6_3 1_555 1_555
O33_3 Cd6_3 1_555 1_555
O34_3 Cd6_3 1_555 1_555
O49_5 Cd30_7 1_555 1_555
O51_3 Cd6_3 1_555 1_555
O67_5 Cd29_8 1_555 1_555
O68_5 Cd26_4 1_555 1_555
O69_5 Cd17_2 1_555 1_555
O72_3 Cd6_3 1_555 1_555
O81_11 Cd30_7 1_555 1_555
O83_3 Cd6_3 1_555 1_555
O89_10 Cd26_4 1_555 1_555
C8_5 O29_5 1_555 1_555
C9_5 O41_3 1_555 1_555
C10_5 O51_3 1_555 1_555
C26_5 O40_3 1_555 1_555
C27_5 O29_4 1_555 1_555
C28_5 O69_5 1_555 1_555
C31_5 C8_5 1_555 1_555
C32_5 C10_5 1_555 1_555
C33_5 C9_5 1_555 1_555
C49_5 C26_5 1_555 1_555
C50_5 C28_5 1_555 1_555
C51_5 C27_5 1_555 1_555
C54_5 C31_5 1_555 1_555
C55_5 C32_5 1_555 1_555
C56_5 C33_5 1_555 1_555
C72_5 C49_5 1_555 1_555
C73_5 C50_5 1_555 1_555
C74_5 C51_5 1_555 1_555
H4_5 C54_5 1_555 1_555
H5_5 C56_5 1_555 1_555
H6_5 C55_5 1_555 1_555
H22_5 C72_5 1_555 1_555
H23_5 C74_5 1_555 1_555
H24_5 C73_5 1_555 1_555
C77_5 C54_5 1_555 1_555
C78_5 C55_5 1_555 1_555
C79_5 C56_5 1_555 1_555
C95_5 C72_5 1_555 1_555
C96_5 C73_5 1_555 1_555
C97_5 C74_5 1_555 1_555
C100_5 S4_5 1_555 1_555
C101_5 S5_5 1_555 1_555
C102_5 S6_5 1_555 1_555
C118_5 S22_5 1_555 1_555
C119_5 S23_5 1_555 1_555
C120_5 S24_5 1_555 1_555
Cd31_4 O33_3 1_555 1_555
O49_5 C8_5 1_555 1_555
O75_3 C9_5 1_555 1_555
O67_5 C26_5 1_555 1_555
O68_5 C27_5 1_555 1_555
C77_5 C100_5 1_555 1_555
C77_5 C102_5 1_555 1_555
C78_5 C100_5 1_555 1_555
C78_5 C101_5 1_555 1_555
C79_5 C101_5 1_555 1_555
C79_5 C102_5 1_555 1_555
C95_5 C118_5 1_555 1_555
C95_5 C120_5 1_555 1_555
C96_5 C118_5 1_555 1_555
C96_5 C119_5 1_555 1_555
C97_5 C119_5 1_555 1_555
C97_5 C120_5 1_555 1_555
Cd10_3 O14_3 1_555 1_555
Cd31_2 O14_3 1_555 1_555
S10_5 C37_5 1_555 1_555
S11_5 C38_5 1_555 1_555
S12_5 C39_5 1_555 1_555
O14_3 C16_5 1_555 1_555
O42_3 Cd10_3 1_555 1_555
O43_3 Cd10_3 1_555 1_555
O44_3 Cd10_3 1_555 1_555
O55_5 Cd30_8 1_555 1_555
O57_3 Cd10_3 1_555 1_555
O76_3 Cd10_3 1_555 1_555
O81_12 Cd30_8 1_555 1_555
O87_3 Cd10_3 1_555 1_555
C14_5 O30_5 1_555 1_555
C15_5 O31_3 1_555 1_555
C16_5 O57_3 1_555 1_555
C37_5 C14_5 1_555 1_555
C38_5 C16_5 1_555 1_555
C39_5 C15_5 1_555 1_555
C60_5 C37_5 1_555 1_555
C61_5 C38_5 1_555 1_555
C62_5 C39_5 1_555 1_555
H10_5 C60_5 1_555 1_555
H11_5 C62_5 1_555 1_555
H12_5 C61_5 1_555 1_555
C83_5 C60_5 1_555 1_555
C84_5 C61_5 1_555 1_555
C85_5 C62_5 1_555 1_555
C106_5 S10_5 1_555 1_555
C107_5 S11_5 1_555 1_555
C108_5 S12_5 1_555 1_555
Cd31_2 O43_3 1_555 1_555
O55_5 C14_5 1_555 1_555
O71_3 C15_5 1_555 1_555
C83_5 C106_5 1_555 1_555
C83_5 C108_5 1_555 1_555
C84_5 C106_5 1_555 1_555
C84_5 C107_5 1_555 1_555
C85_5 C107_5 1_555 1_555
C85_5 C108_5 1_555 1_555
Cd18_9 O40_4 1_555 1_555
Cd14 O17_2 1_555 1_555
Cd28_2 O17_2 1_555 1_555
Cd31_4 O23_3 1_555 1_555
Cd32_4 O23_3 1_555 1_555
Cd30 O24_5 1_555 1_555
Cd31_5 O26_6 1_555 1_555
Cd31 O26_6 1_555 1_555
S13_5 C40_5 1_555 1_555
S14_5 C41_5 1_555 1_555
S15_5 C42_5 1_555 1_555
S19_6 C46_6 1_555 1_555
S20_6 C47_6 1_555 1_555
S21_6 C48_6 1_555 1_555
S22_6 C49_6 1_555 1_555
S23_6 C50_6 1_555 1_555
S24_6 C51_6 1_555 1_555
O17_2 C19_5 1_555 1_555
O23_3 C25_6 1_555 1_555
O24_5 Cd18 1_555 1_555
O26_6 C28_6 1_555 1_555
O58_5 Cd18_9 1_555 1_555
O59_5 Cd19 1_555 1_555
O60_2 Cd14 1_555 1_555
O64_6 Cd18_9 1_555 1_555
O66_3 Cd31_4 1_555 1_555
O67_6 Cd30 1_555 1_555
O69_6 Cd31_5 1_555 1_555
O80_7 Cd18 1_555 1_555
O88_9 Cd19 1_555 1_555
C17_5 O40_4 1_555 1_555
C18_5 O29 1_555 1_555
C19_5 O60_2 1_555 1_555
C23_6 O38_4 1_555 1_555
C24_6 O46_2 1_555 1_555
C25_6 O66_3 1_555 1_555
C26_6 O24_5 1_555 1_555
C27_6 O41_4 1_555 1_555
C28_6 O69_6 1_555 1_555
C40_5 C17_5 1_555 1_555
C41_5 C19_5 1_555 1_555
C42_5 C18_5 1_555 1_555
C46_6 C23_6 1_555 1_555
C47_6 C25_6 1_555 1_555
C48_6 C24_6 1_555 1_555
C49_6 C26_6 1_555 1_555
C50_6 C28_6 1_555 1_555
C51_6 C27_6 1_555 1_555
C63_5 C40_5 1_555 1_555
C64_5 C41_5 1_555 1_555
C65_5 C42_5 1_555 1_555
C69_6 C46_6 1_555 1_555
C70_6 C47_6 1_555 1_555
C71_6 C48_6 1_555 1_555
C72_6 C49_6 1_555 1_555
C73_6 C50_6 1_555 1_555
C74_6 C51_6 1_555 1_555
H13_5 C63_5 1_555 1_555
H14_5 C65_5 1_555 1_555
H15_5 C64_5 1_555 1_555
H19_6 C69_6 1_555 1_555
H20_6 C71_6 1_555 1_555
H21_6 C70_6 1_555 1_555
H22_6 C72_6 1_555 1_555
H23_6 C74_6 1_555 1_555
H24_6 C73_6 1_555 1_555
C86_5 C63_5 1_555 1_555
C87_5 C64_5 1_555 1_555
C88_5 C65_5 1_555 1_555
C92_6 C69_6 1_555 1_555
C93_6 C70_6 1_555 1_555
C94_6 C71_6 1_555 1_555
C95_6 C72_6 1_555 1_555
C96_6 C73_6 1_555 1_555
C97_6 C74_6 1_555 1_555
C109_5 S13_5 1_555 1_555
C110_5 S14_5 1_555 1_555
C111_5 S15_5 1_555 1_555
C115_6 S19_6 1_555 1_555
C116_6 S20_6 1_555 1_555
C117_6 S21_6 1_555 1_555
C118_6 S22_6 1_555 1_555
C119_6 S23_6 1_555 1_555
C120_6 S24_6 1_555 1_555
Cd18_9 O38_4 1_555 1_555
O58_5 C17_5 1_555 1_555
O59_5 C18_5 1_555 1_555
O64_6 C23_6 1_555 1_555
O78_2 C24_6 1_555 1_555
O67_6 C26_6 1_555 1_555
O75_4 C27_6 1_555 1_555
C86_5 C109_5 1_555 1_555
C86_5 C111_5 1_555 1_555
C87_5 C109_5 1_555 1_555
C87_5 C110_5 1_555 1_555
C88_5 C110_5 1_555 1_555
C88_5 C111_5 1_555 1_555
C92_6 C115_6 1_555 1_555
C92_6 C117_6 1_555 1_555
C93_6 C115_6 1_555 1_555
C93_6 C116_6 1_555 1_555
C94_6 C116_6 1_555 1_555
C94_6 C117_6 1_555 1_555
C95_6 C118_6 1_555 1_555
C95_6 C120_6 1_555 1_555
C96_6 C118_6 1_555 1_555
C96_6 C119_6 1_555 1_555
C97_6 C119_6 1_555 1_555
C97_6 C120_6 1_555 1_555
O28_5 Cd18_2 1_555 1_555
O80_8 Cd18_2 1_555 1_555
Cd30_2 O28_5 1_555 1_555
O38_5 Cd18_5 1_555 1_555
O77_3 Cd19_2 1_555 1_555
O85_7 Cd18_5 1_555 1_555
O88_10 Cd19_2 1_555 1_555
O40_5 Cd18_6 1_555 1_555
O85_8 Cd18_6 1_555 1_555
O29_6 Cd18_9 1_555 1_555
O30_6 Cd18_9 1_555 1_555
O81_13 Cd18_9 1_555 1_555
O83_4 Cd14 1_555 1_555
O87_4 Cd31_4 1_555 1_555
Cd16_6 O29_6 1_555 1_555
Cd16_6 O30_6 1_555 1_555
Cd27_2 O23_4 1_555 1_555
Cd31_3 O23_4 1_555 1_555
S19_7 C46_7 1_555 1_555
S20_7 C47_7 1_555 1_555
S21_7 C48_7 1_555 1_555
O23_4 C25_7 1_555 1_555
O64_7 Cd30_2 1_555 1_555
O66_4 Cd27_2 1_555 1_555
C23_7 O28_5 1_555 1_555
C24_7 O31_4 1_555 1_555
C25_7 O66_4 1_555 1_555
C46_7 C23_7 1_555 1_555
C47_7 C25_7 1_555 1_555
C48_7 C24_7 1_555 1_555
C69_7 C46_7 1_555 1_555
C70_7 C47_7 1_555 1_555
C71_7 C48_7 1_555 1_555
H19_7 C69_7 1_555 1_555
H20_7 C71_7 1_555 1_555
H21_7 C70_7 1_555 1_555
C92_7 C69_7 1_555 1_555
C93_7 C70_7 1_555 1_555
C94_7 C71_7 1_555 1_555
C115_7 S19_7 1_555 1_555
C116_7 S20_7 1_555 1_555
C117_7 S21_7 1_555 1_555
O64_7 C23_7 1_555 1_555
O71_4 C24_7 1_555 1_555
C92_7 C115_7 1_555 1_555
C92_7 C117_7 1_555 1_555
C93_7 C115_7 1_555 1_555
C93_7 C116_7 1_555 1_555
C94_7 C116_7 1_555 1_555
C94_7 C117_7 1_555 1_555
O3_9 Cd18_3 1_555 1_555
S10_6 C37_6 1_555 1_555
S11_6 C38_6 1_555 1_555
S12_6 C39_6 1_555 1_555
O12_5 Cd18_3 1_555 1_555
O33_3 C16_6 1_555 1_555
O55_6 Cd30_3 1_555 1_555
O81_14 Cd30_3 1_555 1_555
C14_6 O12_5 1_555 1_555
C15_6 O31 1_555 1_555
C16_6 O72_3 1_555 1_555
C37_6 C14_6 1_555 1_555
C38_6 C16_6 1_555 1_555
C39_6 C15_6 1_555 1_555
C60_6 C37_6 1_555 1_555
C61_6 C38_6 1_555 1_555
C62_6 C39_6 1_555 1_555
H10_6 C60_6 1_555 1_555
H11_6 C62_6 1_555 1_555
H12_6 C61_6 1_555 1_555
C83_6 C60_6 1_555 1_555
C84_6 C61_6 1_555 1_555
C85_6 C62_6 1_555 1_555
C106_6 S10_6 1_555 1_555
C107_6 S11_6 1_555 1_555
C108_6 S12_6 1_555 1_555
Cd30_3 O12_5 1_555 1_555
O55_6 C14_6 1_555 1_555
O71 C15_6 1_555 1_555
C83_6 C106_6 1_555 1_555
C83_6 C108_6 1_555 1_555
C84_6 C106_6 1_555 1_555
C84_6 C107_6 1_555 1_555
C85_6 C107_6 1_555 1_555
C85_6 C108_6 1_555 1_555
Cd29_9 O38 1_555 1_555
O3_10 Cd18_4 1_555 1_555
Cd30_4 O6_5 1_555 1_555
Cd29_10 O40 1_555 1_555
Cd14_2 O26_7 1_555 1_555
Cd32_6 O26_7 1_555 1_555
S4_6 C31_6 1_555 1_555
S5_6 C32_6 1_555 1_555
S6_6 C33_6 1_555 1_555
S22_7 C49_7 1_555 1_555
S23_7 C50_7 1_555 1_555
S24_7 C51_7 1_555 1_555
O6_5 Cd18_4 1_555 1_555
O43_3 C10_6 1_555 1_555
O26_7 C28_7 1_555 1_555
O49_6 Cd30_4 1_555 1_555
O67_7 Cd29_10 1_555 1_555
O68_6 Cd19_3 1_555 1_555
O69_7 Cd14_2 1_555 1_555
O81_15 Cd30_4 1_555 1_555
O89_11 Cd19_3 1_555 1_555
C8_6 O6_5 1_555 1_555
C9_6 O41 1_555 1_555
C10_6 O76_3 1_555 1_555
C26_7 O40 1_555 1_555
C27_7 O29_2 1_555 1_555
C28_7 O69_7 1_555 1_555
C31_6 C8_6 1_555 1_555
C32_6 C10_6 1_555 1_555
C33_6 C9_6 1_555 1_555
C49_7 C26_7 1_555 1_555
C50_7 C28_7 1_555 1_555
C51_7 C27_7 1_555 1_555
C54_6 C31_6 1_555 1_555
C55_6 C32_6 1_555 1_555
C56_6 C33_6 1_555 1_555
C72_7 C49_7 1_555 1_555
C73_7 C50_7 1_555 1_555
C74_7 C51_7 1_555 1_555
H4_6 C54_6 1_555 1_555
H5_6 C56_6 1_555 1_555
H6_6 C55_6 1_555 1_555
H22_7 C72_7 1_555 1_555
H23_7 C74_7 1_555 1_555
H24_7 C73_7 1_555 1_555
C77_6 C54_6 1_555 1_555
C78_6 C55_6 1_555 1_555
C79_6 C56_6 1_555 1_555
C95_7 C72_7 1_555 1_555
C96_7 C73_7 1_555 1_555
C97_7 C74_7 1_555 1_555
C100_6 S4_6 1_555 1_555
C101_6 S5_6 1_555 1_555
C102_6 S6_6 1_555 1_555
C118_7 S22_7 1_555 1_555
C119_7 S23_7 1_555 1_555
C120_7 S24_7 1_555 1_555
O49_6 C8_6 1_555 1_555
O75 C9_6 1_555 1_555
O67_7 C26_7 1_555 1_555
O68_6 C27_7 1_555 1_555
C77_6 C100_6 1_555 1_555
C77_6 C102_6 1_555 1_555
C78_6 C100_6 1_555 1_555
C78_6 C101_6 1_555 1_555
C79_6 C101_6 1_555 1_555
C79_6 C102_6 1_555 1_555
C95_7 C118_7 1_555 1_555
C95_7 C120_7 1_555 1_555
C96_7 C118_7 1_555 1_555
C96_7 C119_7 1_555 1_555
C97_7 C119_7 1_555 1_555
C97_7 C120_7 1_555 1_555
O78_6 Cd19_4 1_555 1_555
O89_12 Cd19_4 1_555 1_555
Cd17 O14_4 1_555 1_555
Cd17_3 O14_4 1_555 1_555
S10_7 C37_7 1_555 1_555
S11_7 C38_7 1_555 1_555
S12_7 C39_7 1_555 1_555
O14_4 C16_7 1_555 1_555
O29_7 Cd29_3 1_555 1_555
O30_7 Cd29_3 1_555 1_555
O33_4 Cd31_2 1_555 1_555
O43_4 Cd17 1_555 1_555
O55_7 Cd29_3 1_555 1_555
O57_4 Cd17 1_555 1_555
O72_4 Cd31_2 1_555 1_555
O76_4 Cd17 1_555 1_555
O81_16 Cd29_3 1_555 1_555
O83_5 Cd31_2 1_555 1_555
O87_5 Cd17 1_555 1_555
C14_7 O28_2 1_555 1_555
C15_7 O30 1_555 1_555
C16_7 O57_4 1_555 1_555
C37_7 C14_7 1_555 1_555
C38_7 C16_7 1_555 1_555
C39_7 C15_7 1_555 1_555
C60_7 C37_7 1_555 1_555
C61_7 C38_7 1_555 1_555
C62_7 C39_7 1_555 1_555
H10_7 C60_7 1_555 1_555
H11_7 C62_7 1_555 1_555
H12_7 C61_7 1_555 1_555
C83_7 C60_7 1_555 1_555
C84_7 C61_7 1_555 1_555
C85_7 C62_7 1_555 1_555
C106_7 S10_7 1_555 1_555
C107_7 S11_7 1_555 1_555
C108_7 S12_7 1_555 1_555
Cd32_2 O33_4 1_555 1_555
Cd17_3 O43_4 1_555 1_555
Cd13_3 O29_7 1_555 1_555
Cd13_3 O30_7 1_555 1_555
O55_7 C14_7 1_555 1_555
O77_3 C15_7 1_555 1_555
C83_7 C106_7 1_555 1_555
C83_7 C108_7 1_555 1_555
C84_7 C106_7 1_555 1_555
C84_7 C107_7 1_555 1_555
C85_7 C107_7 1_555 1_555
C85_7 C108_7 1_555 1_555
Cd14_2 O23_5 1_555 1_555
Cd32_6 O23_5 1_555 1_555
S19_8 C46_8 1_555 1_555
S20_8 C47_8 1_555 1_555
S21_8 C48_8 1_555 1_555
O23_5 C25_8 1_555 1_555
O64_8 Cd29_2 1_555 1_555
O66_5 Cd14_2 1_555 1_555
C23_8 O28 1_555 1_555
C24_8 O30_4 1_555 1_555
C25_8 O66_5 1_555 1_555
C46_8 C23_8 1_555 1_555
C47_8 C25_8 1_555 1_555
C48_8 C24_8 1_555 1_555
C69_8 C46_8 1_555 1_555
C70_8 C47_8 1_555 1_555
C71_8 C48_8 1_555 1_555
H19_8 C69_8 1_555 1_555
H20_8 C71_8 1_555 1_555
H21_8 C70_8 1_555 1_555
C92_8 C69_8 1_555 1_555
C93_8 C70_8 1_555 1_555
C94_8 C71_8 1_555 1_555
C115_8 S19_8 1_555 1_555
C116_8 S20_8 1_555 1_555
C117_8 S21_8 1_555 1_555
O64_8 C23_8 1_555 1_555
O78_5 C24_8 1_555 1_555
C92_8 C115_8 1_555 1_555
C92_8 C117_8 1_555 1_555
C93_8 C115_8 1_555 1_555
C93_8 C116_8 1_555 1_555
C94_8 C116_8 1_555 1_555
C94_8 C117_8 1_555 1_555
O29_8 Cd29 1_555 1_555
O33_5 Cd31 1_555 1_555
O34_4 Cd31 1_555 1_555
O72_5 Cd31 1_555 1_555
O81_17 Cd29 1_555 1_555
O83_6 Cd31 1_555 1_555
Cd32 O33_5 1_555 1_555
Cd13 O29_8 1_555 1_555
O30_8 Cd29_2 1_555 1_555
O81_18 Cd29_2 1_555 1_555
O87_6 Cd14_2 1_555 1_555
Cd13_2 O30_8 1_555 1_555
O29_9 Cd29_4 1_555 1_555
O32_4 Cd31_3 1_555 1_555
O33_6 Cd31_3 1_555 1_555
O72_6 Cd31_3 1_555 1_555
O81_19 Cd29_4 1_555 1_555
O83_7 Cd31_3 1_555 1_555
Cd32_3 O33_6 1_555 1_555
Cd13_4 O29_9 1_555 1_555
Cd17_2 O14_5 1_555 1_555
Cd32_5 O14_5 1_555 1_555
S10_8 C37_8 1_555 1_555
S11_8 C38_8 1_555 1_555
S12_8 C39_8 1_555 1_555
O14_5 C16_8 1_555 1_555
O30_9 Cd29_5 1_555 1_555
O55_8 Cd29_5 1_555 1_555
O57_5 Cd17_2 1_555 1_555
O81_20 Cd29_5 1_555 1_555
O87_7 Cd17_2 1_555 1_555
C14_8 O28_3 1_555 1_555
C15_8 O30_2 1_555 1_555
C16_8 O57_5 1_555 1_555
C37_8 C14_8 1_555 1_555
C38_8 C16_8 1_555 1_555
C39_8 C15_8 1_555 1_555
C60_8 C37_8 1_555 1_555
C61_8 C38_8 1_555 1_555
C62_8 C39_8 1_555 1_555
H10_8 C60_8 1_555 1_555
H11_8 C62_8 1_555 1_555
H12_8 C61_8 1_555 1_555
C83_8 C60_8 1_555 1_555
C84_8 C61_8 1_555 1_555
C85_8 C62_8 1_555 1_555
C106_8 S10_8 1_555 1_555
C107_8 S11_8 1_555 1_555
C108_8 S12_8 1_555 1_555
Cd13_5 O30_9 1_555 1_555
O55_8 C14_8 1_555 1_555
O78_6 C15_8 1_555 1_555
C83_8 C106_8 1_555 1_555
C83_8 C108_8 1_555 1_555
C84_8 C106_8 1_555 1_555
C84_8 C107_8 1_555 1_555
C85_8 C107_8 1_555 1_555
C85_8 C108_8 1_555 1_555
S19_9 C46_9 1_555 1_555
S20_9 C47_9 1_555 1_555
S21_9 C48_9 1_555 1_555
O33_6 C25_9 1_555 1_555
O64_9 Cd29_7 1_555 1_555
C23_9 O38_3 1_555 1_555
C24_9 O46 1_555 1_555
C25_9 O72_6 1_555 1_555
C46_9 C23_9 1_555 1_555
C47_9 C25_9 1_555 1_555
C48_9 C24_9 1_555 1_555
C69_9 C46_9 1_555 1_555
C70_9 C47_9 1_555 1_555
C71_9 C48_9 1_555 1_555
H19_9 C69_9 1_555 1_555
H20_9 C71_9 1_555 1_555
H21_9 C70_9 1_555 1_555
C92_9 C69_9 1_555 1_555
C93_9 C70_9 1_555 1_555
C94_9 C71_9 1_555 1_555
C115_9 S19_9 1_555 1_555
C116_9 S20_9 1_555 1_555
C117_9 S21_9 1_555 1_555
O64_9 C23_9 1_555 1_555
O78 C24_9 1_555 1_555
C92_9 C115_9 1_555 1_555
C92_9 C117_9 1_555 1_555
C93_9 C115_9 1_555 1_555
C93_9 C116_9 1_555 1_555
C94_9 C116_9 1_555 1_555
C94_9 C117_9 1_555 1_555
S10_9 C37_9 1_555 1_555
S11_9 C38_9 1_555 1_555
S12_9 C39_9 1_555 1_555
O33_5 C16_9 1_555 1_555
O30_10 Cd29_9 1_555 1_555
O55_9 Cd29_9 1_555 1_555
O81_21 Cd29_9 1_555 1_555
C14_9 O38 1_555 1_555
C15_9 O46_3 1_555 1_555
C16_9 O72_5 1_555 1_555
C37_9 C14_9 1_555 1_555
C38_9 C16_9 1_555 1_555
C39_9 C15_9 1_555 1_555
C60_9 C37_9 1_555 1_555
C61_9 C38_9 1_555 1_555
C62_9 C39_9 1_555 1_555
H10_9 C60_9 1_555 1_555
H11_9 C62_9 1_555 1_555
H12_9 C61_9 1_555 1_555
C83_9 C60_9 1_555 1_555
C84_9 C61_9 1_555 1_555
C85_9 C62_9 1_555 1_555
C106_9 S10_9 1_555 1_555
C107_9 S11_9 1_555 1_555
C108_9 S12_9 1_555 1_555
Cd16 O30_10 1_555 1_555
O55_9 C14_9 1_555 1_555
O78_3 C15_9 1_555 1_555
C83_9 C106_9 1_555 1_555
C83_9 C108_9 1_555 1_555
C84_9 C106_9 1_555 1_555
C84_9 C107_9 1_555 1_555
C85_9 C107_9 1_555 1_555
C85_9 C108_9 1_555 1_555
O29_10 Cd29_10 1_555 1_555
O81_22 Cd29_10 1_555 1_555
Cd16_2 O29_10 1_555 1_555
Cd30_5 O38_5 1_555 1_555
Cd30_6 O40_5 1_555 1_555
O30_11 Cd29_7 1_555 1_555
O81_23 Cd29_7 1_555 1_555
Cd16_4 O30_11 1_555 1_555
O29_11 Cd29_8 1_555 1_555
O81_24 Cd29_8 1_555 1_555
Cd16_5 O29_11 1_555 1_555
O32_5 Cd31_5 1_555 1_555
O34_4 Cd31_5 1_555 1_555
O34_5 Cd31_5 1_555 1_555
O72_7 Cd31_5 1_555 1_555
O81_25 Cd30 1_555 1_555
O83_8 Cd31_5 1_555 1_555
O42_4 Cd27_2 1_555 1_555
O32_4 Cd27_2 1_555 1_555
O44_4 Cd27_2 1_555 1_555
O76_5 Cd27_2 1_555 1_555
O81_26 Cd30_2 1_555 1_555
O87_8 Cd27_2 1_555 1_555
O89_13 Cd26 1_555 1_555
S10_10 C37_10 1_555 1_555
S11_10 C38_10 1_555 1_555
S12_10 C39_10 1_555 1_555
O34_4 C16_10 1_555 1_555
O55_10 Cd30_5 1_555 1_555
O81_27 Cd30_5 1_555 1_555
C14_10 O38_5 1_555 1_555
C15_10 O31_2 1_555 1_555
C16_10 O72_7 1_555 1_555
C37_10 C14_10 1_555 1_555
C38_10 C16_10 1_555 1_555
C39_10 C15_10 1_555 1_555
C60_10 C37_10 1_555 1_555
C61_10 C38_10 1_555 1_555
C62_10 C39_10 1_555 1_555
H10_10 C60_10 1_555 1_555
H11_10 C62_10 1_555 1_555
H12_10 C61_10 1_555 1_555
C83_10 C60_10 1_555 1_555
C84_10 C61_10 1_555 1_555
C85_10 C62_10 1_555 1_555
C106_10 S10_10 1_555 1_555
C107_10 S11_10 1_555 1_555
C108_10 S12_10 1_555 1_555
O55_10 C14_10 1_555 1_555
O71_2 C15_10 1_555 1_555
C83_10 C106_10 1_555 1_555
C83_10 C108_10 1_555 1_555
C84_10 C106_10 1_555 1_555
C84_10 C107_10 1_555 1_555
C85_10 C107_10 1_555 1_555
C85_10 C108_10 1_555 1_555
Cd29_11 O40_2 1_555 1_555
S4_7 C31_7 1_555 1_555
S5_7 C32_7 1_555 1_555
S6_7 C33_7 1_555 1_555
S22_8 C49_8 1_555 1_555
S23_8 C50_8 1_555 1_555
S24_8 C51_8 1_555 1_555
O32_4 C10_7 1_555 1_555
O43_4 C28_8 1_555 1_555
O49_7 Cd30_6 1_555 1_555
O67_8 Cd29_11 1_555 1_555
O68_7 Cd26_2 1_555 1_555
O81_28 Cd30_6 1_555 1_555
O89_14 Cd26_2 1_555 1_555
C8_7 O40_5 1_555 1_555
C9_7 O41_2 1_555 1_555
C10_7 O76_5 1_555 1_555
C26_8 O40_2 1_555 1_555
C27_8 O29_3 1_555 1_555
C28_8 O76_4 1_555 1_555
C31_7 C8_7 1_555 1_555
C32_7 C10_7 1_555 1_555
C33_7 C9_7 1_555 1_555
C49_8 C26_8 1_555 1_555
C50_8 C28_8 1_555 1_555
C51_8 C27_8 1_555 1_555
C54_7 C31_7 1_555 1_555
C55_7 C32_7 1_555 1_555
C56_7 C33_7 1_555 1_555
C72_8 C49_8 1_555 1_555
C73_8 C50_8 1_555 1_555
C74_8 C51_8 1_555 1_555
H4_7 C54_7 1_555 1_555
H5_7 C56_7 1_555 1_555
H6_7 C55_7 1_555 1_555
H22_8 C72_8 1_555 1_555
H23_8 C74_8 1_555 1_555
H24_8 C73_8 1_555 1_555
C77_7 C54_7 1_555 1_555
C78_7 C55_7 1_555 1_555
C79_7 C56_7 1_555 1_555
C95_8 C72_8 1_555 1_555
C96_8 C73_8 1_555 1_555
C97_8 C74_8 1_555 1_555
C100_7 S4_7 1_555 1_555
C101_7 S5_7 1_555 1_555
C102_7 S6_7 1_555 1_555
C118_8 S22_8 1_555 1_555
C119_8 S23_8 1_555 1_555
C120_8 S24_8 1_555 1_555
Cd29_11 O38_2 1_555 1_555
O49_7 C8_7 1_555 1_555
O75_2 C9_7 1_555 1_555
O67_8 C26_8 1_555 1_555
O68_7 C27_8 1_555 1_555
C77_7 C100_7 1_555 1_555
C77_7 C102_7 1_555 1_555
C78_7 C100_7 1_555 1_555
C78_7 C101_7 1_555 1_555
C79_7 C101_7 1_555 1_555
C79_7 C102_7 1_555 1_555
C95_8 C118_8 1_555 1_555
C95_8 C120_8 1_555 1_555
C96_8 C118_8 1_555 1_555
C96_8 C119_8 1_555 1_555
C97_8 C119_8 1_555 1_555
C97_8 C120_8 1_555 1_555
S19_10 C46_10 1_555 1_555
S20_10 C47_10 1_555 1_555
S21_10 C48_10 1_555 1_555
O33_4 C25_10 1_555 1_555
O64_10 Cd29_11 1_555 1_555
C23_10 O38_2 1_555 1_555
C24_10 O46_4 1_555 1_555
C25_10 O72_4 1_555 1_555
C46_10 C23_10 1_555 1_555
C47_10 C25_10 1_555 1_555
C48_10 C24_10 1_555 1_555
C69_10 C46_10 1_555 1_555
C70_10 C47_10 1_555 1_555
C71_10 C48_10 1_555 1_555
H19_10 C69_10 1_555 1_555
H20_10 C71_10 1_555 1_555
H21_10 C70_10 1_555 1_555
C92_10 C69_10 1_555 1_555
C93_10 C70_10 1_555 1_555
C94_10 C71_10 1_555 1_555
C115_10 S19_10 1_555 1_555
C116_10 S20_10 1_555 1_555
C117_10 S21_10 1_555 1_555
O64_10 C23_10 1_555 1_555
O78_4 C24_10 1_555 1_555
C92_10 C115_10 1_555 1_555
C92_10 C117_10 1_555 1_555
C93_10 C115_10 1_555 1_555
C93_10 C116_10 1_555 1_555
C94_10 C116_10 1_555 1_555
C94_10 C117_10 1_555 1_555
O29_12 Cd29_6 1_555 1_555
O30_12 Cd29_6 1_555 1_555
O81_29 Cd29_6 1_555 1_555
Cd13_6 O29_12 1_555 1_555
Cd13_6 O30_12 1_555 1_555
O29_13 Cd29_11 1_555 1_555
O30_13 Cd29_11 1_555 1_555
O81_30 Cd29_11 1_555 1_555
Cd16_3 O29_13 1_555 1_555
Cd16_3 O30_13 1_555 1_555
Cd30_9 O25_5 1_555 1_555
Cd31_6 O44_2 1_555 1_555
S22_9 C49_9 1_555 1_555
S23_9 C50_9 1_555 1_555
S24_9 C51_9 1_555 1_555
O25_5 Cd32_4 1_555 1_555
O44_2 C28_9 1_555 1_555
O46_5 Cd32_4 1_555 1_555
O67_9 Cd13_6 1_555 1_555
O68_8 Cd32_4 1_555 1_555
O69_8 Cd31_6 1_555 1_555
O78_7 Cd32_4 1_555 1_555
O89_15 Cd32_4 1_555 1_555
C26_9 O29_12 1_555 1_555
C27_9 O25_5 1_555 1_555
C28_9 O69_8 1_555 1_555
C49_9 C26_9 1_555 1_555
C50_9 C28_9 1_555 1_555
C51_9 C27_9 1_555 1_555
C72_9 C49_9 1_555 1_555
C73_9 C50_9 1_555 1_555
C74_9 C51_9 1_555 1_555
H22_9 C72_9 1_555 1_555
H23_9 C74_9 1_555 1_555
H24_9 C73_9 1_555 1_555
C95_9 C72_9 1_555 1_555
C96_9 C73_9 1_555 1_555
C97_9 C74_9 1_555 1_555
C118_9 S22_9 1_555 1_555
C119_9 S23_9 1_555 1_555
C120_9 S24_9 1_555 1_555
Cd30_9 O46_5 1_555 1_555
O67_9 C26_9 1_555 1_555
O68_8 C27_9 1_555 1_555
C95_9 C118_9 1_555 1_555
C95_9 C120_9 1_555 1_555
C96_9 C118_9 1_555 1_555
C96_9 C119_9 1_555 1_555
C97_9 C119_9 1_555 1_555
C97_9 C120_9 1_555 1_555
Cd4_9 O44 1_555 1_555
Cd32_3 O8_4 1_555 1_555
Cd32 O14_6 1_555 1_555
Cd14_3 O8_4 1_555 1_555
Cd17_4 O14_6 1_555 1_555
S4_8 C31_8 1_555 1_555
S5_8 C32_8 1_555 1_555
S6_8 C33_8 1_555 1_555
S10_11 C37_11 1_555 1_555
S11_11 C38_11 1_555 1_555
S12_11 C39_11 1_555 1_555
O8_4 C10_8 1_555 1_555
O14_6 C16_11 1_555 1_555
O29_14 Cd4_9 1_555 1_555
O30_14 Cd4_9 1_555 1_555
O33_7 Cd32_3 1_555 1_555
O43_5 Cd32 1_555 1_555
O49_8 Cd4_9 1_555 1_555
O50_5 Cd13_4 1_555 1_555
O51_4 Cd32_3 1_555 1_555
O55_11 Cd4_9 1_555 1_555
O56_5 Cd16 1_555 1_555
O57_6 Cd32 1_555 1_555
O72_8 Cd32_3 1_555 1_555
O76_6 Cd32 1_555 1_555
O81_31 Cd4_9 1_555 1_555
O82_7 Cd13_4 1_555 1_555
O83_9 Cd32_3 1_555 1_555
O86_7 Cd16 1_555 1_555
O87_9 Cd32 1_555 1_555
C8_8 O44 1_555 1_555
C9_8 O29_9 1_555 1_555
C10_8 O51_4 1_555 1_555
C14_11 O42 1_555 1_555
C15_11 O30_10 1_555 1_555
C16_11 O57_6 1_555 1_555
C31_8 C8_8 1_555 1_555
C32_8 C10_8 1_555 1_555
C33_8 C9_8 1_555 1_555
C37_11 C14_11 1_555 1_555
C38_11 C16_11 1_555 1_555
C39_11 C15_11 1_555 1_555
C54_8 C31_8 1_555 1_555
C55_8 C32_8 1_555 1_555
C56_8 C33_8 1_555 1_555
C60_11 C37_11 1_555 1_555
C61_11 C38_11 1_555 1_555
C62_11 C39_11 1_555 1_555
H4_8 C54_8 1_555 1_555
H5_8 C56_8 1_555 1_555
H6_8 C55_8 1_555 1_555
H10_11 C60_11 1_555 1_555
H11_11 C62_11 1_555 1_555
H12_11 C61_11 1_555 1_555
C77_8 C54_8 1_555 1_555
C78_8 C55_8 1_555 1_555
C79_8 C56_8 1_555 1_555
C83_11 C60_11 1_555 1_555
C84_11 C61_11 1_555 1_555
C85_11 C62_11 1_555 1_555
C100_8 S4_8 1_555 1_555
C101_8 S5_8 1_555 1_555
C102_8 S6_8 1_555 1_555
C106_11 S10_11 1_555 1_555
C107_11 S11_11 1_555 1_555
C108_11 S12_11 1_555 1_555
Cd4_9 O42 1_555 1_555
Cd14_3 O33_7 1_555 1_555
Cd17_4 O43_5 1_555 1_555
Cd17_3 O29_14 1_555 1_555
Cd17_3 O30_14 1_555 1_555
O49_8 C8_8 1_555 1_555
O50_5 C9_8 1_555 1_555
O55_11 C14_11 1_555 1_555
O56_5 C15_11 1_555 1_555
C77_8 C100_8 1_555 1_555
C77_8 C102_8 1_555 1_555
C78_8 C100_8 1_555 1_555
C78_8 C101_8 1_555 1_555
C79_8 C101_8 1_555 1_555
C79_8 C102_8 1_555 1_555
C83_11 C106_11 1_555 1_555
C83_11 C108_11 1_555 1_555
C84_11 C106_11 1_555 1_555
C84_11 C107_11 1_555 1_555
C85_11 C107_11 1_555 1_555
C85_11 C108_11 1_555 1_555
O71_5 Cd13_5 1_555 1_555
O75_5 Cd16_2 1_555 1_555
O82_8 Cd13_5 1_555 1_555
O86_8 Cd16_2 1_555 1_555
Cd30_10 O25_6 1_555 1_555
Cd31_7 O32_2 1_555 1_555
S22_10 C49_10 1_555 1_555
S23_10 C50_10 1_555 1_555
S24_10 C51_10 1_555 1_555
O25_6 Cd32_2 1_555 1_555
O32_2 C28_10 1_555 1_555
O46_6 Cd32_2 1_555 1_555
O67_10 Cd13_3 1_555 1_555
O68_9 Cd32_2 1_555 1_555
O69_9 Cd31_7 1_555 1_555
O78_8 Cd32_2 1_555 1_555
O89_16 Cd32_2 1_555 1_555
C26_10 O29_7 1_555 1_555
C27_10 O25_6 1_555 1_555
C28_10 O69_9 1_555 1_555
C49_10 C26_10 1_555 1_555
C50_10 C28_10 1_555 1_555
C51_10 C27_10 1_555 1_555
C72_10 C49_10 1_555 1_555
C73_10 C50_10 1_555 1_555
C74_10 C51_10 1_555 1_555
H22_10 C72_10 1_555 1_555
H23_10 C74_10 1_555 1_555
H24_10 C73_10 1_555 1_555
C95_10 C72_10 1_555 1_555
C96_10 C73_10 1_555 1_555
C97_10 C74_10 1_555 1_555
C118_10 S22_10 1_555 1_555
C119_10 S23_10 1_555 1_555
C120_10 S24_10 1_555 1_555
Cd30_10 O46_6 1_555 1_555
O67_10 C26_10 1_555 1_555
O68_9 C27_10 1_555 1_555
C95_10 C118_10 1_555 1_555
C95_10 C120_10 1_555 1_555
C96_10 C118_10 1_555 1_555
C96_10 C119_10 1_555 1_555
C97_10 C119_10 1_555 1_555
C97_10 C120_10 1_555 1_555
Cd4_10 O32 1_555 1_555
S4_9 C31_9 1_555 1_555
S5_9 C32_9 1_555 1_555
S6_9 C33_9 1_555 1_555
S10_12 C37_12 1_555 1_555
S11_12 C38_12 1_555 1_555
S12_12 C39_12 1_555 1_555
O43_5 C10_9 1_555 1_555
O33_7 C16_12 1_555 1_555
O29_15 Cd4_10 1_555 1_555
O30_15 Cd4_10 1_555 1_555
O49_9 Cd4_10 1_555 1_555
O50_6 Cd13 1_555 1_555
O55_12 Cd4_10 1_555 1_555
O56_6 Cd16_4 1_555 1_555
O81_32 Cd4_10 1_555 1_555
O82_9 Cd13 1_555 1_555
O86_9 Cd16_4 1_555 1_555
C8_9 O32 1_555 1_555
C9_9 O29_8 1_555 1_555
C10_9 O76_6 1_555 1_555
C14_12 O34 1_555 1_555
C15_12 O30_11 1_555 1_555
C16_12 O72_8 1_555 1_555
C31_9 C8_9 1_555 1_555
C32_9 C10_9 1_555 1_555
C33_9 C9_9 1_555 1_555
C37_12 C14_12 1_555 1_555
C38_12 C16_12 1_555 1_555
C39_12 C15_12 1_555 1_555
C54_9 C31_9 1_555 1_555
C55_9 C32_9 1_555 1_555
C56_9 C33_9 1_555 1_555
C60_12 C37_12 1_555 1_555
C61_12 C38_12 1_555 1_555
C62_12 C39_12 1_555 1_555
H4_9 C54_9 1_555 1_555
H5_9 C56_9 1_555 1_555
H6_9 C55_9 1_555 1_555
H10_12 C60_12 1_555 1_555
H11_12 C62_12 1_555 1_555
H12_12 C61_12 1_555 1_555
C77_9 C54_9 1_555 1_555
C78_9 C55_9 1_555 1_555
C79_9 C56_9 1_555 1_555
C83_12 C60_12 1_555 1_555
C84_12 C61_12 1_555 1_555
C85_12 C62_12 1_555 1_555
C100_9 S4_9 1_555 1_555
C101_9 S5_9 1_555 1_555
C102_9 S6_9 1_555 1_555
C106_12 S10_12 1_555 1_555
C107_12 S11_12 1_555 1_555
C108_12 S12_12 1_555 1_555
Cd4_10 O34 1_555 1_555
Cd28_2 O29_15 1_555 1_555
Cd28_2 O30_15 1_555 1_555
O49_9 C8_9 1_555 1_555
O50_6 C9_9 1_555 1_555
O55_12 C14_12 1_555 1_555
O56_6 C15_12 1_555 1_555
C77_9 C100_9 1_555 1_555
C77_9 C102_9 1_555 1_555
C78_9 C100_9 1_555 1_555
C78_9 C101_9 1_555 1_555
C79_9 C101_9 1_555 1_555
C79_9 C102_9 1_555 1_555
C83_12 C106_12 1_555 1_555
C83_12 C108_12 1_555 1_555
C84_12 C106_12 1_555 1_555
C84_12 C107_12 1_555 1_555
C85_12 C107_12 1_555 1_555
C85_12 C108_12 1_555 1_555
O71_6 Cd13_2 1_555 1_555
O75_6 Cd16_5 1_555 1_555
O82_10 Cd13_2 1_555 1_555
O86_10 Cd16_5 1_555 1_555
Cd17_4 O32_5 1_555 1_555
S22_11 C49_11 1_555 1_555
S23_11 C50_11 1_555 1_555
S24_11 C51_11 1_555 1_555
O32_5 C28_11 1_555 1_555
O67_11 Cd16_6 1_555 1_555
O68_10 Cd28_2 1_555 1_555
O69_10 Cd17_4 1_555 1_555
O78_9 Cd28_2 1_555 1_555
O89_17 Cd28_2 1_555 1_555
C26_11 O29_6 1_555 1_555
C27_11 O29_15 1_555 1_555
C28_11 O69_10 1_555 1_555
C49_11 C26_11 1_555 1_555
C50_11 C28_11 1_555 1_555
C51_11 C27_11 1_555 1_555
C72_11 C49_11 1_555 1_555
C73_11 C50_11 1_555 1_555
C74_11 C51_11 1_555 1_555
H22_11 C72_11 1_555 1_555
H23_11 C74_11 1_555 1_555
H24_11 C73_11 1_555 1_555
C95_11 C72_11 1_555 1_555
C96_11 C73_11 1_555 1_555
C97_11 C74_11 1_555 1_555
C118_11 S22_11 1_555 1_555
C119_11 S23_11 1_555 1_555
C120_11 S24_11 1_555 1_555
O67_11 C26_11 1_555 1_555
O68_10 C27_11 1_555 1_555
C95_11 C118_11 1_555 1_555
C95_11 C120_11 1_555 1_555
C96_11 C118_11 1_555 1_555
C96_11 C119_11 1_555 1_555
C97_11 C119_11 1_555 1_555
C97_11 C120_11 1_555 1_555
Cd30_9 O32_3 1_555 1_555
Cd32_5 O26_8 1_555 1_555
Cd31_6 O26_8 1_555 1_555
S22_12 C49_12 1_555 1_555
S23_12 C50_12 1_555 1_555
S24_12 C51_12 1_555 1_555
O26_8 C28_12 1_555 1_555
O67_12 Cd30_9 1_555 1_555
O69_11 Cd32_5 1_555 1_555
C26_12 O32_3 1_555 1_555
C27_12 O29_11 1_555 1_555
C28_12 O69_11 1_555 1_555
C49_12 C26_12 1_555 1_555
C50_12 C28_12 1_555 1_555
C51_12 C27_12 1_555 1_555
C72_12 C49_12 1_555 1_555
C73_12 C50_12 1_555 1_555
C74_12 C51_12 1_555 1_555
H22_12 C72_12 1_555 1_555
H23_12 C74_12 1_555 1_555
H24_12 C73_12 1_555 1_555
C95_12 C72_12 1_555 1_555
C96_12 C73_12 1_555 1_555
C97_12 C74_12 1_555 1_555
C118_12 S22_12 1_555 1_555
C119_12 S23_12 1_555 1_555
C120_12 S24_12 1_555 1_555
Cd30_9 O34_3 1_555 1_555
O67_12 C26_12 1_555 1_555
O75_6 C27_12 1_555 1_555
C95_12 C118_12 1_555 1_555
C95_12 C120_12 1_555 1_555
C96_12 C118_12 1_555 1_555
C96_12 C119_12 1_555 1_555
C97_12 C119_12 1_555 1_555
C97_12 C120_12 1_555 1_555
Cd32_6 O23_6 1_555 1_555
Cd31_7 O23_6 1_555 1_555
S19_11 C46_11 1_555 1_555
S20_11 C47_11 1_555 1_555
S21_11 C48_11 1_555 1_555
O23_6 C25_11 1_555 1_555
O64_11 Cd30_9 1_555 1_555
O66_6 Cd32_6 1_555 1_555
C23_11 O34_3 1_555 1_555
C24_11 O30_8 1_555 1_555
C25_11 O66_6 1_555 1_555
C46_11 C23_11 1_555 1_555
C47_11 C25_11 1_555 1_555
C48_11 C24_11 1_555 1_555
C69_11 C46_11 1_555 1_555
C70_11 C47_11 1_555 1_555
C71_11 C48_11 1_555 1_555
H19_11 C69_11 1_555 1_555
H20_11 C71_11 1_555 1_555
H21_11 C70_11 1_555 1_555
C92_11 C69_11 1_555 1_555
C93_11 C70_11 1_555 1_555
C94_11 C71_11 1_555 1_555
C115_11 S19_11 1_555 1_555
C116_11 S20_11 1_555 1_555
C117_11 S21_11 1_555 1_555
O64_11 C23_11 1_555 1_555
O71_6 C24_11 1_555 1_555
C92_11 C115_11 1_555 1_555
C92_11 C117_11 1_555 1_555
C93_11 C115_11 1_555 1_555
C93_11 C116_11 1_555 1_555
C94_11 C116_11 1_555 1_555
C94_11 C117_11 1_555 1_555
Cd14_3 O44_4 1_555 1_555
S22_13 C49_13 1_555 1_555
S23_13 C50_13 1_555 1_555
S24_13 C51_13 1_555 1_555
O44_4 C28_13 1_555 1_555
O67_13 Cd16_3 1_555 1_555
O68_11 Cd17_3 1_555 1_555
O69_12 Cd14_3 1_555 1_555
O78_10 Cd17_3 1_555 1_555
O89_18 Cd17_3 1_555 1_555
C26_13 O29_13 1_555 1_555
C27_13 O29_14 1_555 1_555
C28_13 O69_12 1_555 1_555
C49_13 C26_13 1_555 1_555
C50_13 C28_13 1_555 1_555
C51_13 C27_13 1_555 1_555
C72_13 C49_13 1_555 1_555
C73_13 C50_13 1_555 1_555
C74_13 C51_13 1_555 1_555
H22_13 C72_13 1_555 1_555
H23_13 C74_13 1_555 1_555
H24_13 C73_13 1_555 1_555
C95_13 C72_13 1_555 1_555
C96_13 C73_13 1_555 1_555
C97_13 C74_13 1_555 1_555
C118_13 S22_13 1_555 1_555
C119_13 S23_13 1_555 1_555
C120_13 S24_13 1_555 1_555
O67_13 C26_13 1_555 1_555
O68_11 C27_13 1_555 1_555
C95_13 C118_13 1_555 1_555
C95_13 C120_13 1_555 1_555
C96_13 C118_13 1_555 1_555
C96_13 C119_13 1_555 1_555
C97_13 C119_13 1_555 1_555
C97_13 C120_13 1_555 1_555
Cd14_3 O42_4 1_555 1_555
S19_12 C46_12 1_555 1_555
S20_12 C47_12 1_555 1_555
S21_12 C48_12 1_555 1_555
O42_4 C25_12 1_555 1_555
O64_12 Cd13_6 1_555 1_555
O66_7 Cd14_3 1_555 1_555
C23_12 O30_12 1_555 1_555
C24_12 O30_15 1_555 1_555
C25_12 O66_7 1_555 1_555
C46_12 C23_12 1_555 1_555
C47_12 C25_12 1_555 1_555
C48_12 C24_12 1_555 1_555
C69_12 C46_12 1_555 1_555
C70_12 C47_12 1_555 1_555
C71_12 C48_12 1_555 1_555
H19_12 C69_12 1_555 1_555
H20_12 C71_12 1_555 1_555
H21_12 C70_12 1_555 1_555
C92_12 C69_12 1_555 1_555
C93_12 C70_12 1_555 1_555
C94_12 C71_12 1_555 1_555
C115_12 S19_12 1_555 1_555
C116_12 S20_12 1_555 1_555
C117_12 S21_12 1_555 1_555
O64_12 C23_12 1_555 1_555
O78_9 C24_12 1_555 1_555
C92_12 C115_12 1_555 1_555
C92_12 C117_12 1_555 1_555
C93_12 C115_12 1_555 1_555
C93_12 C116_12 1_555 1_555
C94_12 C116_12 1_555 1_555
C94_12 C117_12 1_555 1_555
O42_2 Cd31_6 1_555 1_555
O34_6 Cd31_6 1_555 1_555
O72_9 Cd31_6 1_555 1_555
O81_33 Cd13_6 1_555 1_555
O83_10 Cd31_6 1_555 1_555
O87_10 Cd14_3 1_555 1_555
Cd17_4 O34_5 1_555 1_555
S10_13 C37_13 1_555 1_555
S11_13 C38_13 1_555 1_555
S12_13 C39_13 1_555 1_555
O34_5 C16_13 1_555 1_555
O32_6 Cd31_7 1_555 1_555
O34_2 Cd31_7 1_555 1_555
O55_13 Cd13_3 1_555 1_555
O57_7 Cd17_4 1_555 1_555
O72_10 Cd31_7 1_555 1_555
O81_34 Cd13_3 1_555 1_555
O83_11 Cd31_7 1_555 1_555
O87_11 Cd17_4 1_555 1_555
C14_13 O30_7 1_555 1_555
C15_13 O30_14 1_555 1_555
C16_13 O57_7 1_555 1_555
C37_13 C14_13 1_555 1_555
C38_13 C16_13 1_555 1_555
C39_13 C15_13 1_555 1_555
C60_13 C37_13 1_555 1_555
C61_13 C38_13 1_555 1_555
C62_13 C39_13 1_555 1_555
H10_13 C60_13 1_555 1_555
H11_13 C62_13 1_555 1_555
H12_13 C61_13 1_555 1_555
C83_13 C60_13 1_555 1_555
C84_13 C61_13 1_555 1_555
C85_13 C62_13 1_555 1_555
C106_13 S10_13 1_555 1_555
C107_13 S11_13 1_555 1_555
C108_13 S12_13 1_555 1_555
O55_13 C14_13 1_555 1_555
O78_10 C15_13 1_555 1_555
C83_13 C106_13 1_555 1_555
C83_13 C108_13 1_555 1_555
C84_13 C106_13 1_555 1_555
C84_13 C107_13 1_555 1_555
C85_13 C107_13 1_555 1_555
C85_13 C108_13 1_555 1_555
S19_13 C46_13 1_555 1_555
S20_13 C47_13 1_555 1_555
S21_13 C48_13 1_555 1_555
O34_2 C25_13 1_555 1_555
O64_13 Cd16_6 1_555 1_555
C23_13 O30_6 1_555 1_555
C24_13 O46_5 1_555 1_555
C25_13 O72_10 1_555 1_555
C46_13 C23_13 1_555 1_555
C47_13 C25_13 1_555 1_555
C48_13 C24_13 1_555 1_555
C69_13 C46_13 1_555 1_555
C70_13 C47_13 1_555 1_555
C71_13 C48_13 1_555 1_555
H19_13 C69_13 1_555 1_555
H20_13 C71_13 1_555 1_555
H21_13 C70_13 1_555 1_555
C92_13 C69_13 1_555 1_555
C93_13 C70_13 1_555 1_555
C94_13 C71_13 1_555 1_555
C115_13 S19_13 1_555 1_555
C116_13 S20_13 1_555 1_555
C117_13 S21_13 1_555 1_555
O64_13 C23_13 1_555 1_555
O78_7 C24_13 1_555 1_555
C92_13 C115_13 1_555 1_555
C92_13 C117_13 1_555 1_555
C93_13 C115_13 1_555 1_555
C93_13 C116_13 1_555 1_555
C94_13 C116_13 1_555 1_555
C94_13 C117_13 1_555 1_555
S10_14 C37_14 1_555 1_555
S11_14 C38_14 1_555 1_555
S12_14 C39_14 1_555 1_555
O42_2 C16_14 1_555 1_555
O55_14 Cd16_3 1_555 1_555
O81_35 Cd16_3 1_555 1_555
C14_14 O30_13 1_555 1_555
C15_14 O46_6 1_555 1_555
C16_14 O72_9 1_555 1_555
C37_14 C14_14 1_555 1_555
C38_14 C16_14 1_555 1_555
C39_14 C15_14 1_555 1_555
C60_14 C37_14 1_555 1_555
C61_14 C38_14 1_555 1_555
C62_14 C39_14 1_555 1_555
H10_14 C60_14 1_555 1_555
H11_14 C62_14 1_555 1_555
H12_14 C61_14 1_555 1_555
C83_14 C60_14 1_555 1_555
C84_14 C61_14 1_555 1_555
C85_14 C62_14 1_555 1_555
C106_14 S10_14 1_555 1_555
C107_14 S11_14 1_555 1_555
C108_14 S12_14 1_555 1_555
O55_14 C14_14 1_555 1_555
O78_8 C15_14 1_555 1_555
C83_14 C106_14 1_555 1_555
C83_14 C108_14 1_555 1_555
C84_14 C106_14 1_555 1_555
C84_14 C107_14 1_555 1_555
C85_14 C107_14 1_555 1_555
C85_14 C108_14 1_555 1_555
Cd30_10 O44_3 1_555 1_555
Cd30_10 O42_3 1_555 1_555
O81_36 Cd16_6 1_555 1_555
O34_6 Cd32_5 1_555 1_555
O32_6 Cd32_6 1_555 1_555
O72_11 Cd32_5 1_555 1_555
O76_7 Cd32_6 1_555 1_555
O81_37 Cd30_9 1_555 1_555
O83_12 Cd32_5 1_555 1_555
O87_12 Cd32_6 1_555 1_555
S4_10 C31_10 1_555 1_555
S5_10 C32_10 1_555 1_555
S6_10 C33_10 1_555 1_555
S10_15 C37_15 1_555 1_555
S11_15 C38_15 1_555 1_555
S12_15 C39_15 1_555 1_555
O32_6 C10_10 1_555 1_555
O34_6 C16_15 1_555 1_555
O49_10 Cd30_10 1_555 1_555
O55_15 Cd30_10 1_555 1_555
O81_38 Cd30_10 1_555 1_555
C8_10 O44_3 1_555 1_555
C9_10 O29_10 1_555 1_555
C10_10 O76_7 1_555 1_555
C14_15 O42_3 1_555 1_555
C15_15 O30_9 1_555 1_555
C16_15 O72_11 1_555 1_555
C31_10 C8_10 1_555 1_555
C32_10 C10_10 1_555 1_555
C33_10 C9_10 1_555 1_555
C37_15 C14_15 1_555 1_555
C38_15 C16_15 1_555 1_555
C39_15 C15_15 1_555 1_555
C54_10 C31_10 1_555 1_555
C55_10 C32_10 1_555 1_555
C56_10 C33_10 1_555 1_555
C60_15 C37_15 1_555 1_555
C61_15 C38_15 1_555 1_555
C62_15 C39_15 1_555 1_555
H4_10 C54_10 1_555 1_555
H5_10 C56_10 1_555 1_555
H6_10 C55_10 1_555 1_555
H10_15 C60_15 1_555 1_555
H11_15 C62_15 1_555 1_555
H12_15 C61_15 1_555 1_555
C77_10 C54_10 1_555 1_555
C78_10 C55_10 1_555 1_555
C79_10 C56_10 1_555 1_555
C83_15 C60_15 1_555 1_555
C84_15 C61_15 1_555 1_555
C85_15 C62_15 1_555 1_555
C100_10 S4_10 1_555 1_555
C101_10 S5_10 1_555 1_555
C102_10 S6_10 1_555 1_555
C106_15 S10_15 1_555 1_555
C107_15 S11_15 1_555 1_555
C108_15 S12_15 1_555 1_555
O49_10 C8_10 1_555 1_555
O75_5 C9_10 1_555 1_555
O55_15 C14_15 1_555 1_555
O71_5 C15_15 1_555 1_555
C77_10 C100_10 1_555 1_555
C77_10 C102_10 1_555 1_555
C78_10 C100_10 1_555 1_555
C78_10 C101_10 1_555 1_555
C79_10 C101_10 1_555 1_555
C79_10 C102_10 1_555 1_555
C83_15 C106_15 1_555 1_555
C83_15 C108_15 1_555 1_555
C84_15 C106_15 1_555 1_555
C84_15 C107_15 1_555 1_555
C85_15 C107_15 1_555 1_555
C85_15 C108_15 1_555 1_555

#END
