
###############################################################################
#
# This file contains modified crystal structure data generated from the
# MOF subset of the Cambridge Structural Database (CSD) v543 
# hosted by the Cambridge Crystallographic Data Centre (CCDC).
#
# This work is licensed under the Creative Commons
# Attribution-NonCommercial-ShareAlike 4.0 International License.
# To view a copy of this license, visit
# http://creativecommons.org/licenses/by-nc-sa/4.0/
# or send a letter to
# Creative Commons, PO Box 1866, Mountain View, CA 94042, USA.
#
# CIF created using the CSD Python API on 29 September 2022
# The structure has been converted into the P1 space group
# The structure has a 3D framework
# The original CSD entry QAGTOH is in the triclinic crystal system
# The framework has been calculated to contain at least 10.0% void space
# The void calculation uses a probe of radius 1.32A, grid spacing 0.4
# The framework is charged, counterions have been retained in the structure
#
###############################################################################

data_QAGTOH
_chemical_formula_moiety         '(C48 H40 B2 Cu2 F8 N8)n'
_symmetry_cell_setting           triclinic
_symmetry_space_group_name_H-M   'P 1'
_symmetry_Int_Tables_number      1
_space_group_name_Hall           'P 1'
loop_
_symmetry_equiv_pos_site_id
_symmetry_equiv_pos_as_xyz
1 x,y,z
_cell_length_a                   7.3695(10)
_cell_length_b                   13.099(3)
_cell_length_c                   13.448(2)
_cell_angle_alpha                80.353(14)
_cell_angle_beta                 84.930(12)
_cell_angle_gamma                82.795(15)
_cell_volume                     1266.7
loop_
_atom_site_label
_atom_site_type_symbol
_atom_site_fract_x
_atom_site_fract_y
_atom_site_fract_z
N5 N 0.0135(3) 0.6155(2) 0.2987(2)
C29 C 0.0181(4) 0.5121(2) 0.3271(2)
H22 H 0.1226(4) 0.4690(2) 0.3056(2)
Cu2 Cu 0.20434(4) 0.69071(2) 0.20687(2)
N9 N 0.3181(3) 0.7778(2) 0.2957(2)
N10 N 0.4115(3) 0.6188(2) 0.12884(15)
N11 N 0.0467(3) 0.8101(2) 0.1155(2)
C46 C 0.0045(3) 0.9049(2) 0.1429(2)
H38 H 0.0810(3) 0.9257(2) 0.1874(2)
H10 H 0.3629(4) 0.9828(2) 0.5762(2)
C31 C 0.5327(4) 0.9865(2) 0.4561(2)
C32 C 0.4568(4) 0.9129(2) 0.4048(2)
C33 C 0.5249(4) 0.9014(2) 0.3076(2)
C34 C 0.4549(4) 0.8344(2) 0.2566(2)
C35 C 0.2514(4) 0.7885(2) 0.3902(2)
C36 C 0.3163(4) 0.8536(2) 0.4465(2)
H26 H 0.2653(4) 0.8579(2) 0.5133(2)
H27 H 0.1547(4) 0.7494(2) 0.4197(2)
H28 H 0.5057(4) 0.8277(2) 0.1902(2)
H29 H 0.6208(4) 0.9402(2) 0.2759(2)
C38 C 0.7479(3) 0.5522(2) 0.0304(2)
C40 C 0.4485(3) 0.6499(2) 0.0299(2)
C41 C 0.5391(3) 0.5513(2) 0.1779(2)
C42 C 0.7054(3) 0.5164(2) 0.1327(2)
H31 H 0.7906(3) 0.4684(2) 0.1708(2)
H32 H 0.5132(3) 0.5262(2) 0.2476(2)
H18 H 0.2836(4) 0.1724(2) 0.0329(2)
C43 C 0.5713(3) 0.0139(2) 0.0197(2)
H39 H 0.8342(3) 0.0402(2) 0.1307(2)
H40 H 0.5638(3) 0.0838(2) 0.0315(2)
C1 C 0.1329(4) 0.3270(2) 0.6650(2)
H1 H 0.1386(4) 0.2533(2) 0.6821(2)
C2 C 0.2751(4) 0.3674(2) 0.6047(2)
H2 H 0.3742(4) 0.3222(2) 0.5806(2)
C3 C 0.2733(3) 0.4751(2) 0.5790(2)
C4 C 0.1200(4) 0.5349(2) 0.6144(2)
H3 H 0.1106(4) 0.6087(2) 0.5981(2)
C6 C 0.4255(4) 0.5245(2) 0.5206(2)
H5 H 0.4166(4) 0.5984(2) 0.5115(2)
C20 C 0.1439(3) 0.0264(2) 0.8900(2)
C21 C 0.2612(3) 0.0547(2) 0.9535(2)
C22 C 0.2124(4) 0.1508(2) 0.9863(2)
C23 C 0.0608(4) 0.2140(2) 0.9507(2)
H19 H 0.0302(4) 0.2787(2) 0.9745(2)
C25 C 0.5745(4) 0.4755(2) 0.4794(2)
C26 C 0.7267(3) 0.5249(2) 0.4210(2)
C27 C 0.7249(4) 0.6326(2) 0.3953(2)
C28 C 0.8671(4) 0.6730(2) 0.3350(2)
C30 C 0.8800(4) 0.4651(2) 0.3856(2)
H21 H 0.8894(4) 0.3913(2) 0.4019(2)
H23 H 0.8614(4) 0.7467(2) 0.3179(2)
H24 H 0.6258(4) 0.6778(2) 0.4194(2)
H25 H 0.5834(4) 0.4016(2) 0.4885(2)
C44 C 0.7388(3) 0.9453(2) 0.0465(2)
C45 C 0.8561(3) 0.9736(2) 0.1100(2)
C47 C 0.9392(4) 0.7860(2) 0.0493(2)
C48 C 0.7876(4) 0.8492(2) 0.0137(2)
H37 H 0.9698(4) 0.7213(2) 0.0255(2)
H17 H 0.1658(3) 0.9598(2) 0.8693(2)
C24 C 0.4287(3) 0.9861(2) 0.9803(2)
H20 H 0.4362(3) 0.9162(2) 0.9685(2)
H36 H 0.7164(4) 0.8276(2) 0.9671(2)
H11 H 0.6413(3) 0.3043(2) 0.0070(2)
C14 C 0.3878(3) 0.3818(2) 0.0212(2)
H12 H 0.3683(3) 0.3584(2) 0.0917(2)
C18 C 0.0746(3) 0.4764(2) 0.0220(2)
H15 H 0.0656(3) 0.4598(2) 0.0936(2)
Cu1 Cu 0.79566(4) 0.30929(2) 0.79313(2)
N1 N 0.9865(3) 0.3845(2) 0.7013(2)
C5 C 0.9819(4) 0.4879(2) 0.6729(2)
H4 H 0.8774(4) 0.5310(2) 0.6944(2)
N2 N 0.6819(3) 0.2222(2) 0.7043(2)
C7 C 0.5451(4) 0.1656(2) 0.7434(2)
H6 H 0.4943(4) 0.1723(2) 0.8098(2)
C8 C 0.4751(4) 0.0986(2) 0.6924(2)
H7 H 0.3792(4) 0.0598(2) 0.7241(2)
C9 C 0.5432(4) 0.0871(2) 0.5952(2)
C10 C 0.6837(4) 0.1464(2) 0.5535(2)
H8 H 0.7347(4) 0.1421(2) 0.4867(2)
C11 C 0.7486(4) 0.2115(2) 0.6098(2)
H9 H 0.8453(4) 0.2506(2) 0.5803(2)
C12 C 0.4673(4) 0.0135(2) 0.5439(2)
N3 N 0.5885(3) 0.3812(2) 0.87116(15)
C13 C 0.5515(3) 0.3501(2) 0.9701(2)
C15 C 0.2521(3) 0.4478(2) 0.9696(2)
C16 C 0.2946(3) 0.4836(2) 0.8673(2)
H13 H 0.2094(3) 0.5316(2) 0.8292(2)
C17 C 0.4609(3) 0.4487(2) 0.8221(2)
H14 H 0.4868(3) 0.4738(2) 0.7524(2)
N4 N 0.9533(3) 0.1899(2) 0.8845(2)
C19 C 0.9955(3) 0.0951(2) 0.8571(2)
H16 H 0.9190(3) 0.0743(2) 0.8126(2)
H30 H 0.6371(4) 0.0172(2) 0.4238(2)
C37 C 0.9254(3) 0.5236(2) 0.9780(2)
C39 C 0.6122(3) 0.6182(2) 0.9788(2)
H33 H 0.3587(3) 0.6957(2) 0.9930(2)
H34 H 0.6317(3) 0.6416(2) 0.9083(2)
H35 H 0.9344(3) 0.5402(2) 0.9064(2)
B1 B 0.7318(6) 0.2253(3) 0.2363(3)
F1 F 0.6381(4) 0.2904(2) 0.2960(2)
F2 F 0.6164(3) 0.1970(2) 0.1716(2)
F3 F 0.8692(3) 0.2735(2) 0.1773(2)
F4 F 0.8057(3) 0.1339(2) 0.29441(14)
B1_2 B 0.2682(6) 0.7747(3) 0.7637(3)
F1_2 F 0.3619(4) 0.7096(2) 0.7040(2)
F2_2 F 0.3836(3) 0.8030(2) 0.8284(2)
F3_2 F 0.1308(3) 0.7265(2) 0.8227(2)
F4_2 F 0.1943(3) 0.8661(2) 0.70559(14)
loop_
_geom_bond_atom_site_label_1
_geom_bond_atom_site_label_2
_geom_bond_site_symmetry_1
_geom_bond_site_symmetry_2
C29 N5 1_555 1_555
H22 C29 1_555 1_555
Cu2 N5 1_555 1_555
N9 Cu2 1_555 1_555
N10 Cu2 1_555 1_555
N11 Cu2 1_555 1_555
N11 C46 1_555 1_555
H38 C46 1_555 1_555
C32 C31 1_555 1_555
C33 C32 1_555 1_555
C34 C33 1_555 1_555
N9 C34 1_555 1_555
C35 N9 1_555 1_555
C36 C32 1_555 1_555
H26 C36 1_555 1_555
H27 C35 1_555 1_555
H28 C34 1_555 1_555
H29 C33 1_555 1_555
C35 C36 1_555 1_555
N10 C40 1_555 1_555
C41 N10 1_555 1_555
C42 C38 1_555 1_555
H31 C42 1_555 1_555
H32 C41 1_555 1_555
C41 C42 1_555 1_555
H40 C43 1_555 1_555
C1 H1 1_555 1_555
C2 C1 1_555 1_555
H2 C2 1_555 1_555
C3 C2 1_555 1_555
C4 C3 1_555 1_555
H3 C4 1_555 1_555
C6 C3 1_555 1_555
H5 C6 1_555 1_555
C21 C20 1_555 1_555
C22 C21 1_555 1_555
H19 C23 1_555 1_555
C25 C6 1_555 1_555
C26 C25 1_555 1_555
C27 C26 1_555 1_555
C28 C27 1_555 1_555
C30 C26 1_555 1_555
H21 C30 1_555 1_555
H23 C28 1_555 1_555
H24 C27 1_555 1_555
H25 C25 1_555 1_555
C22 C23 1_555 1_555
C45 C44 1_555 1_555
C48 C44 1_555 1_555
H37 C47 1_555 1_555
C47 C48 1_555 1_555
H20 C24 1_555 1_555
H12 C14 1_555 1_555
H15 C18 1_555 1_555
Cu1 N1 1_555 1_555
C5 N1 1_555 1_555
H4 C5 1_555 1_555
N2 Cu1 1_555 1_555
C7 N2 1_555 1_555
H6 C7 1_555 1_555
C8 C7 1_555 1_555
H7 C8 1_555 1_555
C9 C8 1_555 1_555
C10 C9 1_555 1_555
H8 C10 1_555 1_555
C11 N2 1_555 1_555
H9 C11 1_555 1_555
C12 C9 1_555 1_555
N3 Cu1 1_555 1_555
C13 N3 1_555 1_555
C16 C15 1_555 1_555
H13 C16 1_555 1_555
C17 N3 1_555 1_555
H14 C17 1_555 1_555
N4 Cu1 1_555 1_555
C19 N4 1_555 1_555
H16 C19 1_555 1_555
C10 C11 1_555 1_555
C16 C17 1_555 1_555
H34 C39 1_555 1_555
H35 C37 1_555 1_555
B1 F1 1_555 1_555
F2 B1 1_555 1_555
F3 B1 1_555 1_555
F4 B1 1_555 1_555
B1_2 F1_2 1_555 1_555
F2_2 B1_2 1_555 1_555
F3_2 B1_2 1_555 1_555
F4_2 B1_2 1_555 1_555

#END
