
###############################################################################
#
# This file contains modified crystal structure data generated from the
# MOF subset of the Cambridge Structural Database (CSD) v543 
# hosted by the Cambridge Crystallographic Data Centre (CCDC).
#
# This work is licensed under the Creative Commons
# Attribution-NonCommercial-ShareAlike 4.0 International License.
# To view a copy of this license, visit
# http://creativecommons.org/licenses/by-nc-sa/4.0/
# or send a letter to
# Creative Commons, PO Box 1866, Mountain View, CA 94042, USA.
#
# CIF created using the CSD Python API on 29 September 2022
# The structure has been converted into the P1 space group
# The structure has a 3D framework
# The original CSD entry QAHGIT is in the monoclinic crystal system
# The framework has been calculated to contain at least 10.0% void space
# The void calculation uses a probe of radius 1.32A, grid spacing 0.4
#
###############################################################################

data_QAHGIT
_chemical_formula_moiety         '(C266 H302 Cu40 N56 O214 S40 Ti24)n'
_symmetry_cell_setting           triclinic
_symmetry_space_group_name_H-M   'P 1'
_symmetry_Int_Tables_number      1
_space_group_name_Hall           'P 1'
loop_
_symmetry_equiv_pos_site_id
_symmetry_equiv_pos_as_xyz
1 x,y,z
_cell_length_a                   32.3551(10)
_cell_length_b                   14.4492(4)
_cell_length_c                   27.4831(8)
_cell_angle_alpha                90
_cell_angle_beta                 110.223(4)
_cell_angle_gamma                90
_cell_volume                     12056.4
loop_
_atom_site_label
_atom_site_type_symbol
_atom_site_fract_x
_atom_site_fract_y
_atom_site_fract_z
Cu10 Cu 0.54782(6) 0.57617(15) 0.00830(8)
H40 H 0.5887 0.2313 0.0035
H41 H 0.5503 0.1881 0.0185
H60 H 0.7890 0.0502 0.0187
C51 C 0.6439(4) 0.4397(8) 0.1297(2)
H61 H 0.6538 0.4395 0.1657
C52 C 0.6098(3) 0.4983(7) 0.1020(3)
H62 H 0.5969 0.5374 0.1195
N13 N 0.5950(3) 0.4986(6) 0.0481(3)
C53 C 0.6144(3) 0.4402(7) 0.0219(2)
C54 C 0.6484(3) 0.3816(8) 0.0496(3)
H64 H 0.6614 0.3425 0.0320
C55 C 0.6632(3) 0.3813(7) 0.1035(3)
H65 H 0.6860 0.3421 0.1220
H68 H 0.5680 0.7644 0.0273
Cu12 Cu 0.74982(5) 0.29999(10) 0.05576(6)
O55 O 0.80870(17) 0.2196(4) 0.0360(2)
O57 O 0.4950(2) 0.5383(4) 0.0475(2)
Cu1 Cu 0.44492(4) 0.21672(9) 0.61595(5)
Cu2 Cu 0.41452(4) 0.41477(8) 0.65570(4)
Cu3 Cu 0.38595(4) 0.21259(8) 0.69417(4)
Cu4 Cu 0.24982(5) 0.20001(10) 0.55576(6)
Cu5 Cu 0.45218(6) 0.57617(15) 0.49170(8)
Ti1 Ti 0.52998(5) 0.09902(10) 0.70984(5)
Ti2 Ti 0.55587(5) 0.26849(10) 0.67774(5)
Ti3 Ti 0.52617(5) 0.47399(10) 0.71824(5)
S1 S 0.34892(7) 0.28181(13) 0.58085(7)
S2 S 0.49778(7) 0.42059(14) 0.59818(7)
S3 S 0.62665(7) 0.41914(14) 0.74137(8)
S4 S 0.57949(13) 0.0876(3) 0.62704(16)
S5 S 0.56471(7) 0.00391(14) 0.82159(8)
O1 O 0.43129(18) 0.2824(3) 0.6735(2)
O2 O 0.30870(17) 0.2804(4) 0.5360(2)
O3 O 0.34171(18) 0.2339(4) 0.6249(2)
O4 O 0.36211(19) 0.3780(4) 0.5956(2)
O5 O 0.3844(2) 0.2339(4) 0.5679(2)
O6 O 0.4950(2) 0.4617(4) 0.5475(2)
O7 O 0.4555(2) 0.3816(4) 0.5971(2)
O8 O 0.53162(18) 0.3454(4) 0.6107(2)
O9 O 0.51260(19) 0.4928(4) 0.6412(2)
O10 O 0.53172(17) 0.3522(4) 0.70987(18)
O11 O 0.59121(19) 0.4922(4) 0.7301(2)
O12 O 0.6669(2) 0.4612(4) 0.7412(2)
O13 O 0.63065(19) 0.3750(4) 0.7905(2)
O14 O 0.61178(19) 0.3472(4) 0.6987(2)
O15 O 0.50659(18) 0.1892(4) 0.6568(2)
O16 O 0.57557(18) 0.1883(4) 0.7348(2)
O17 O 0.5848(2) 0.1844(4) 0.6382(2)
O18 O 0.5640(2) 0.0431(4) 0.6654(2)
O19 O 0.6155(4) 0.0447(6) 0.6198(5)
O20 O 0.5421(4) 0.0786(11) 0.5756(4)
O21 O 0.5000 0.1414(5) 0.7500
O22 O 0.5882(2) 0.0892(4) 0.8465(2)
O23 O 0.51910(19) 0.0066(4) 0.8240(2)
O25 O 0.5605(2) 0.0046(4) 0.7652(2)
O26 O 0.53472(17) 0.4667(3) 0.78941(19)
O27 O 0.5208(2) 0.6178(4) 0.7237(2)
N1 N 0.4546(3) 0.1575(9) 0.5561(3)
H1 H 0.4861 0.1431 0.5662
N2 N 0.2318(3) 0.3099(7) 0.5829(3)
N3 N 0.2647(3) 0.0784(6) 0.5390(4)
C1 C 0.4424(6) 0.2189(11) 0.5084(5)
H2 H 0.4113 0.2313 0.4965
H3 H 0.4497 0.1881 0.4815
H4 H 0.4583 0.2761 0.5170
C2 C 0.4292(7) 0.0671(11) 0.5407(6)
H5 H 0.4426 0.0205 0.5662
H6 H 0.4296 0.0474 0.5075
H7 H 0.3993 0.0764 0.5388
C3 C 0.2803(3) 0.1425(7) 0.7457(4)
H8 H 0.2643 0.1718 0.7637
C4 C 0.2703(3) 0.0518(7) 0.7288(5)
H9 H 0.2477 0.0205 0.7354
C5 C 0.2941(3) 0.0080(5) 0.7019(5)
C6 C 0.3279(3) 0.0547(5) 0.6920(4)
H11 H 0.3438 0.0254 0.6741
N4 N 0.33787(19) 0.1454(4) 0.7089(2)
C7 C 0.3141(3) 0.1892(5) 0.7358(4)
H12 H 0.3207 0.2499 0.7471
C8 C 0.3324(2) 0.6483(5) 0.6337(4)
H13 H 0.3039 0.6592 0.6334
C9 C 0.3489(2) 0.5586(4) 0.6392(3)
H14 H 0.3315 0.5094 0.6425
N5 N 0.3914(2) 0.5424(3) 0.6397(3)
C10 C 0.41737(19) 0.6159(5) 0.6348(3)
H15 H 0.4458 0.6050 0.6352
C11 C 0.4009(3) 0.7056(4) 0.6293(4)
H16 H 0.4183 0.7547 0.6260
C12 C 0.3584(3) 0.7218(3) 0.6288(4)
H17 H 0.3473 0.7818 0.6251
C13 C 0.3051(5) 0.0441(9) 0.5636(6)
H18 H 0.3252 0.0803 0.5889
C15 C 0.5000 0.6634(9) 0.7500
H20 H 0.5000 0.7278 0.7500
C18 C 0.2383(5) 0.0259(8) 0.5010(6)
H23 H 0.2110 0.0502 0.4813
C19 C 0.3561(4) 0.4397(8) 0.3703(2)
H24 H 0.3462 0.4395 0.3343
C20 C 0.3902(3) 0.4983(7) 0.3980(3)
H25 H 0.4031 0.5374 0.3805
N6 N 0.4050(3) 0.4986(6) 0.4519(3)
C21 C 0.3856(3) 0.4402(7) 0.4781(2)
H26 H 0.3955 0.4404 0.5141
C22 C 0.3516(3) 0.3816(8) 0.4504(3)
H27 H 0.3386 0.3425 0.4680
C23 C 0.3368(3) 0.3813(7) 0.3965(3)
H28 H 0.3140 0.3421 0.3780
C24 C 0.5073(4) 0.7604(9) 0.6096(3)
H29 H 0.5262 0.7594 0.6439
C25 C 0.5000(4) 0.6801(7) 0.5800(4)
H30 H 0.5139 0.6253 0.5946
N7 N 0.4717(3) 0.6815(6) 0.5287(4)
C26 C 0.4509(4) 0.7634(8) 0.5070(4)
H31 H 0.4320 0.7644 0.4727
C27 C 0.4582(4) 0.8438(6) 0.5366(5)
H32 H 0.4443 0.8985 0.5220
C28 C 0.4864(5) 0.8423(7) 0.5879(5)
H33 H 0.4914 0.8960 0.6077
C29 C 0.2576(4) 0.3460(11) 0.6273(5)
H34 H 0.2833 0.3148 0.6461
C30 C 0.2481(5) 0.4275(11) 0.6466(5)
H35 H 0.2680 0.4533 0.6766
C31 C 0.2094(5) 0.4699(12) 0.6215(6)
H36 H 0.2021 0.5241 0.6349
C32 C 0.1807(5) 0.4331(12) 0.5761(6)
H37 H 0.1536 0.4606 0.5587
C33 C 0.1937(4) 0.3540(11) 0.5576(5)
H38 H 0.1755 0.3299 0.5261
O28 O 0.4792(2) 0.6178(4) 0.7763(2)
Cu6 Cu 0.55508(4) 0.21672(9) 0.88405(5)
Cu7 Cu 0.58548(4) 0.41477(8) 0.84430(4)
Cu8 Cu 0.61405(4) 0.21259(8) 0.80583(4)
Cu9 Cu 0.75018(5) 0.20001(10) 0.94424(6)
Ti4 Ti 0.47002(5) 0.09902(10) 0.79016(5)
Ti5 Ti 0.44413(5) 0.26849(10) 0.82226(5)
Ti6 Ti 0.47383(5) 0.47399(10) 0.78176(5)
S6 S 0.65108(7) 0.28181(13) 0.91915(7)
S7 S 0.50222(7) 0.42059(14) 0.90182(7)
S8 S 0.37335(7) 0.41914(14) 0.75863(8)
S9 S 0.42051(13) 0.0876(3) 0.87296(16)
S10 S 0.43529(7) 0.00391(14) 0.67841(8)
O29 O 0.56871(18) 0.2824(3) 0.8265(2)
O30 O 0.69130(17) 0.2804(4) 0.9640(2)
O31 O 0.65829(18) 0.2339(4) 0.8751(2)
O32 O 0.63789(19) 0.3780(4) 0.9044(2)
O33 O 0.6156(2) 0.2339(4) 0.9321(2)
O34 O 0.5050(2) 0.4617(4) 0.9525(2)
O35 O 0.5445(2) 0.3816(4) 0.9029(2)
O36 O 0.46838(18) 0.3454(4) 0.8893(2)
O37 O 0.48740(19) 0.4928(4) 0.8588(2)
O38 O 0.46828(17) 0.3522(4) 0.79013(18)
O39 O 0.40879(19) 0.4922(4) 0.7699(2)
O40 O 0.3331(2) 0.4612(4) 0.7588(2)
O41 O 0.36935(19) 0.3750(4) 0.7095(2)
O42 O 0.38822(19) 0.3472(4) 0.8013(2)
O43 O 0.49341(18) 0.1892(4) 0.8432(2)
O44 O 0.42443(18) 0.1883(4) 0.7652(2)
O45 O 0.4152(2) 0.1844(4) 0.8618(2)
O46 O 0.4360(2) 0.0431(4) 0.8346(2)
O47 O 0.3845(4) 0.0447(6) 0.8802(5)
O48 O 0.4579(4) 0.0786(11) 0.9244(4)
O49 O 0.4118(2) 0.0892(4) 0.6535(2)
O50 O 0.48090(19) 0.0066(4) 0.6760(2)
O52 O 0.4395(2) 0.0046(4) 0.7348(2)
O53 O 0.46528(17) 0.4667(3) 0.71059(19)
N8 N 0.5454(3) 0.1575(9) 0.9439(3)
H39 H 0.5139 0.1431 0.9338
N9 N 0.7682(3) 0.3099(7) 0.9171(3)
N10 N 0.7353(3) 0.0784(6) 0.9610(4)
C34 C 0.5576(6) 0.2189(11) 0.9916(5)
H42 H 0.5417 0.2761 0.9830
C35 C 0.5708(7) 0.0671(11) 0.9593(6)
H43 H 0.5574 0.0205 0.9338
H44 H 0.5704 0.0474 0.9925
H45 H 0.6007 0.0764 0.9612
C36 C 0.7197(3) 0.1425(7) 0.7543(4)
H46 H 0.7357 0.1718 0.7363
C37 C 0.7297(3) 0.0518(7) 0.7712(5)
H47 H 0.7523 0.0205 0.7646
C38 C 0.7059(3) 0.0080(5) 0.7981(5)
C39 C 0.6721(3) 0.0547(5) 0.8080(4)
H49 H 0.6562 0.0254 0.8259
N11 N 0.66213(19) 0.1454(4) 0.7911(2)
C40 C 0.6859(3) 0.1892(5) 0.7642(4)
H50 H 0.6793 0.2499 0.7529
C41 C 0.6676(2) 0.6483(5) 0.8663(4)
H51 H 0.6961 0.6592 0.8666
C42 C 0.6511(2) 0.5586(4) 0.8608(3)
H52 H 0.6685 0.5094 0.8575
N12 N 0.6086(2) 0.5424(3) 0.8603(3)
C43 C 0.58263(19) 0.6159(5) 0.8652(3)
H53 H 0.5542 0.6050 0.8648
C44 C 0.5991(3) 0.7056(4) 0.8707(4)
H54 H 0.5817 0.7547 0.8740
C45 C 0.6416(3) 0.7218(3) 0.8712(4)
H55 H 0.6527 0.7818 0.8749
C46 C 0.6949(5) 0.0441(9) 0.9364(6)
H56 H 0.6748 0.0803 0.9111
C50 C 0.7617(5) 0.0259(8) 0.9990(6)
H63 H 0.6045 0.4404 0.9859
C56 C 0.4927(4) 0.7604(9) 0.8904(3)
H66 H 0.4738 0.7594 0.8561
C57 C 0.5000(4) 0.6801(7) 0.9200(4)
H67 H 0.4861 0.6253 0.9054
N14 N 0.5283(3) 0.6815(6) 0.9713(4)
C58 C 0.5491(4) 0.7634(8) 0.9930(4)
C59 C 0.5418(4) 0.8438(6) 0.9634(5)
H69 H 0.5557 0.8985 0.9780
C60 C 0.5136(5) 0.8423(7) 0.9121(5)
H70 H 0.5086 0.8960 0.8923
C61 C 0.7424(4) 0.3460(11) 0.8727(5)
H71 H 0.7167 0.3148 0.8539
C62 C 0.7519(5) 0.4275(11) 0.8534(5)
H72 H 0.7320 0.4533 0.8234
C63 C 0.7906(5) 0.4699(12) 0.8785(6)
H73 H 0.7979 0.5241 0.8651
C64 C 0.8193(5) 0.4331(12) 0.9239(6)
H74 H 0.8464 0.4606 0.9413
C65 C 0.8063(4) 0.3540(11) 0.9424(5)
H75 H 0.8245 0.3299 0.9739
Cu11 Cu 0.25018(5) 0.29999(10) 0.44424(6)
Cu13 Cu 0.54782(6) 0.42383(15) 0.50830(8)
Cu14 Cu 0.45218(6) 0.42383(15) 0.99170(8)
O54 O 0.19130(17) 0.2196(4) 0.4640(2)
O56 O 0.5050(2) 0.5383(4) 0.4525(2)
Cu10_2 Cu 0.04782(6) 0.07617(15) 0.00830(8)
H62_2 H 0.0969 0.0374 0.1195
H68_2 H 0.0680 0.2644 0.0273
O27_2 O 0.0208(2) 0.1178(4) 0.7237(2)
C15_2 C 0.0000 0.1634(9) 0.7500
H20_2 H 0.0000 0.2278 0.7500
C24_2 C 0.0073(4) 0.2604(9) 0.6096(3)
H29_2 H 0.0262 0.2594 0.6439
C25_2 C 0.0000(4) 0.1801(7) 0.5800(4)
H30_2 H 0.0139 0.1253 0.5946
C41_2 C 0.1676(2) 0.1483(5) 0.8663(4)
H51_2 H 0.1961 0.1592 0.8666
C42_2 C 0.1511(2) 0.0586(4) 0.8608(3)
H52_2 H 0.1685 0.0094 0.8575
N12_2 N 0.1086(2) 0.0424(3) 0.8603(3)
C43_2 C 0.08263(19) 0.1159(5) 0.8652(3)
H53_2 H 0.0542 0.1050 0.8648
C44_2 C 0.0991(3) 0.2056(4) 0.8707(4)
H54_2 H 0.0817 0.2547 0.8740
C45_2 C 0.1416(3) 0.2218(3) 0.8712(4)
H55_2 H 0.1527 0.2818 0.8749
C57_2 C 0.0000(4) 0.1801(7) 0.9200(4)
N14_2 N 0.0283(3) 0.1815(6) 0.9713(4)
C58_2 C 0.0491(4) 0.2634(8) 0.9930(4)
C59_2 C 0.0418(4) 0.3438(6) 0.9634(5)
H69_2 H 0.0557 0.3985 0.9780
C60_2 C 0.0136(5) 0.3423(7) 0.9121(5)
H70_2 H 0.0086 0.3960 0.8923
H73_2 H 0.2979 0.0241 0.8651
O56_2 O 0.0050(2) 0.0383(4) 0.4525(2)
H40_2 H 0.0887 0.7313 0.0035
H41_2 H 0.0503 0.6881 0.0185
C49 C 0.2519(5) 0.4410(9) 0.0110(6)
H59 H 0.2727 0.4063 0.0362
H60_2 H 0.2890 0.5502 0.0187
C51_2 C 0.1439(4) 0.9397(8) 0.1297(2)
H61_2 H 0.1538 0.9395 0.1657
C52_2 C 0.1098(3) 0.9983(7) 0.1020(3)
N13_2 N 0.0950(3) 0.9986(6) 0.0481(3)
C53_2 C 0.1144(3) 0.9402(7) 0.0219(2)
C54_2 C 0.1484(3) 0.8816(8) 0.0496(3)
H64_2 H 0.1614 0.8425 0.0320
C55_2 C 0.1632(3) 0.8813(7) 0.1035(3)
H65_2 H 0.1860 0.8421 0.1220
Cu12_2 Cu 0.24982(5) 0.79999(10) 0.05576(6)
O55_2 O 0.30870(17) 0.7196(4) 0.0360(2)
Ti1_2 Ti 0.02998(5) 0.59902(10) 0.70984(5)
Ti2_2 Ti 0.05587(5) 0.76849(10) 0.67774(5)
Ti3_2 Ti 0.02617(5) 0.97399(10) 0.71824(5)
S3_2 S 0.12665(7) 0.91914(14) 0.74137(8)
S4_2 S 0.07949(13) 0.5876(3) 0.62704(16)
S5_2 S 0.06471(7) 0.50391(14) 0.82159(8)
O8_2 O 0.03162(18) 0.8454(4) 0.6107(2)
O9_2 O 0.01260(19) 0.9928(4) 0.6412(2)
O10_2 O 0.03172(17) 0.8522(4) 0.70987(18)
O11_2 O 0.09121(19) 0.9922(4) 0.7301(2)
O12_2 O 0.1669(2) 0.9612(4) 0.7412(2)
O13_2 O 0.13065(19) 0.8750(4) 0.7905(2)
O14_2 O 0.11178(19) 0.8472(4) 0.6987(2)
O15_2 O 0.00659(18) 0.6892(4) 0.6568(2)
O16_2 O 0.07557(18) 0.6883(4) 0.7348(2)
O17_2 O 0.0848(2) 0.6844(4) 0.6382(2)
O18_2 O 0.0640(2) 0.5431(4) 0.6654(2)
O19_2 O 0.1155(4) 0.5447(6) 0.6198(5)
O20_2 O 0.0421(4) 0.5786(11) 0.5756(4)
O21_2 O 0.0000 0.6414(5) 0.7500
O22_2 O 0.0882(2) 0.5892(4) 0.8465(2)
O23_2 O 0.01910(19) 0.5066(4) 0.8240(2)
O24 O 0.0862(2) 0.4198(4) 0.8457(2)
O25_2 O 0.0605(2) 0.5046(4) 0.7652(2)
O26_2 O 0.03472(17) 0.9667(3) 0.78941(19)
Cu6_2 Cu 0.05508(4) 0.71672(9) 0.88405(5)
Cu7_2 Cu 0.08548(4) 0.91477(8) 0.84430(4)
Cu8_2 Cu 0.11405(4) 0.71259(8) 0.80583(4)
Cu9_2 Cu 0.25018(5) 0.70001(10) 0.94424(6)
S6_2 S 0.15108(7) 0.78181(13) 0.91915(7)
S7_2 S 0.00222(7) 0.92059(14) 0.90182(7)
O29_2 O 0.06871(18) 0.7824(3) 0.8265(2)
O30_2 O 0.19130(17) 0.7804(4) 0.9640(2)
O31_2 O 0.15829(18) 0.7339(4) 0.8751(2)
O32_2 O 0.13789(19) 0.8780(4) 0.9044(2)
O33_2 O 0.1156(2) 0.7339(4) 0.9321(2)
O34_2 O 0.0050(2) 0.9617(4) 0.9525(2)
O35_2 O 0.0445(2) 0.8816(4) 0.9029(2)
N8_2 N 0.0454(3) 0.6575(9) 0.9439(3)
H39_2 H 0.0139 0.6431 0.9338
N9_2 N 0.2682(3) 0.8099(7) 0.9171(3)
N10_2 N 0.2353(3) 0.5784(6) 0.9610(4)
C34_2 C 0.0576(6) 0.7189(11) 0.9916(5)
H42_2 H 0.0417 0.7761 0.9830
C35_2 C 0.0708(7) 0.5671(11) 0.9593(6)
H43_2 H 0.0574 0.5205 0.9338
H44_2 H 0.0704 0.5474 0.9925
H45_2 H 0.1007 0.5764 0.9612
C36_2 C 0.2197(3) 0.6425(7) 0.7543(4)
H46_2 H 0.2357 0.6718 0.7363
C37_2 C 0.2297(3) 0.5518(7) 0.7712(5)
H47_2 H 0.2523 0.5205 0.7646
C38_2 C 0.2059(3) 0.5080(5) 0.7981(5)
H48 H 0.2126 0.4473 0.8094
C39_2 C 0.1721(3) 0.5547(5) 0.8080(4)
H49_2 H 0.1562 0.5254 0.8259
N11_2 N 0.16213(19) 0.6454(4) 0.7911(2)
C40_2 C 0.1859(3) 0.6892(5) 0.7642(4)
H50_2 H 0.1793 0.7499 0.7529
C46_2 C 0.1949(5) 0.5441(9) 0.9364(6)
H56_2 H 0.1748 0.5803 0.9111
C47 C 0.1818(5) 0.4589(9) 0.9466(6)
H57 H 0.1537 0.4379 0.9273
C48 C 0.2090(5) 0.4043(9) 0.9843(6)
H58 H 0.2002 0.3467 0.9924
C50_2 C 0.2617(5) 0.5259(8) 0.9990(6)
H63_2 H 0.1045 0.9404 0.9859
C61_2 C 0.2424(4) 0.8460(11) 0.8727(5)
H71_2 H 0.2167 0.8148 0.8539
C62_2 C 0.2519(5) 0.9275(11) 0.8534(5)
H72_2 H 0.2320 0.9533 0.8234
C63_2 C 0.2906(5) 0.9699(12) 0.8785(6)
C64_2 C 0.3193(5) 0.9331(12) 0.9239(6)
H74_2 H 0.3464 0.9606 0.9413
C65_2 C 0.3063(4) 0.8540(11) 0.9424(5)
H75_2 H 0.3245 0.8299 0.9739
Cu13_2 Cu 0.04782(6) 0.92383(15) 0.50830(8)
O57_2 O 0.9950(2) 0.0383(4) 0.0475(2)
Cu5_2 Cu 0.95218(6) 0.07617(15) 0.49170(8)
C8_2 C 0.8324(2) 0.1483(5) 0.6337(4)
H13_2 H 0.8039 0.1592 0.6334
C9_2 C 0.8489(2) 0.0586(4) 0.6392(3)
H14_2 H 0.8315 0.0094 0.6425
N5_2 N 0.8914(2) 0.0424(3) 0.6397(3)
C10_2 C 0.91737(19) 0.1159(5) 0.6348(3)
H15_2 H 0.9458 0.1050 0.6352
C11_2 C 0.9009(3) 0.2056(4) 0.6293(4)
H16_2 H 0.9183 0.2547 0.6260
C12_2 C 0.8584(3) 0.2218(3) 0.6288(4)
H17_2 H 0.8473 0.2818 0.6251
C15_3 C 1.0000 0.1634(9) 0.7500
H20_3 H 1.0000 0.2278 0.7500
H25_2 H 0.9031 0.0374 0.3805
C25_3 C 1.0000(4) 0.1801(7) 0.5800(4)
N7_2 N 0.9717(3) 0.1815(6) 0.5287(4)
C26_2 C 0.9509(4) 0.2634(8) 0.5070(4)
H31_2 H 0.9320 0.2644 0.4727
C27_2 C 0.9582(4) 0.3438(6) 0.5366(5)
H32_2 H 0.9443 0.3985 0.5220
C28_2 C 0.9864(5) 0.3423(7) 0.5879(5)
H33_2 H 0.9914 0.3960 0.6077
H36_2 H 0.7021 0.0241 0.6349
O28_2 O 0.9792(2) 0.1178(4) 0.7763(2)
C56_2 C 0.9927(4) 0.2604(9) 0.8904(3)
H66_2 H 0.9738 0.2594 0.8561
C57_3 C 1.0000(4) 0.1801(7) 0.9200(4)
H67_2 H 0.9861 0.1253 0.9054
Cu1_2 Cu 0.94492(4) 0.71672(9) 0.61595(5)
Cu2_2 Cu 0.91452(4) 0.91477(8) 0.65570(4)
Cu3_2 Cu 0.88595(4) 0.71259(8) 0.69417(4)
Cu4_2 Cu 0.74982(5) 0.70001(10) 0.55576(6)
S1_2 S 0.84892(7) 0.78181(13) 0.58085(7)
S2_2 S 0.99778(7) 0.92059(14) 0.59818(7)
O1_2 O 0.93129(18) 0.7824(3) 0.6735(2)
O2_2 O 0.80870(17) 0.7804(4) 0.5360(2)
O3_2 O 0.84171(18) 0.7339(4) 0.6249(2)
O4_2 O 0.86211(19) 0.8780(4) 0.5956(2)
O5_2 O 0.8844(2) 0.7339(4) 0.5679(2)
O6_2 O 0.9950(2) 0.9617(4) 0.5475(2)
O7_2 O 0.9555(2) 0.8816(4) 0.5971(2)
O21_3 O 1.0000 0.6414(5) 0.7500
N1_2 N 0.9546(3) 0.6575(9) 0.5561(3)
H1_2 H 0.9861 0.6431 0.5662
N2_2 N 0.7318(3) 0.8099(7) 0.5829(3)
N3_2 N 0.7647(3) 0.5784(6) 0.5390(4)
C1_2 C 0.9424(6) 0.7189(11) 0.5084(5)
H2_2 H 0.9113 0.7313 0.4965
H3_2 H 0.9497 0.6881 0.4815
H4_2 H 0.9583 0.7761 0.5170
C2_2 C 0.9292(7) 0.5671(11) 0.5407(6)
H5_2 H 0.9426 0.5205 0.5662
H6_2 H 0.9296 0.5474 0.5075
H7_2 H 0.8993 0.5764 0.5388
C3_2 C 0.7803(3) 0.6425(7) 0.7457(4)
H8_2 H 0.7643 0.6718 0.7637
C4_2 C 0.7703(3) 0.5518(7) 0.7288(5)
H9_2 H 0.7477 0.5205 0.7354
C5_2 C 0.7941(3) 0.5080(5) 0.7019(5)
H10 H 0.7874 0.4473 0.6906
C6_2 C 0.8279(3) 0.5547(5) 0.6920(4)
H11_2 H 0.8438 0.5254 0.6741
N4_2 N 0.83787(19) 0.6454(4) 0.7089(2)
C7_2 C 0.8141(3) 0.6892(5) 0.7358(4)
H12_2 H 0.8207 0.7499 0.7471
C13_2 C 0.8051(5) 0.5441(9) 0.5636(6)
H18_2 H 0.8252 0.5803 0.5889
C14 C 0.8182(5) 0.4589(9) 0.5534(6)
H19 H 0.8463 0.4379 0.5727
C16 C 0.7910(5) 0.4043(9) 0.5157(6)
H21 H 0.7998 0.3467 0.5076
C17 C 0.7481(5) 0.4410(9) 0.4890(6)
H22 H 0.7273 0.4063 0.4638
C18_2 C 0.7383(5) 0.5259(8) 0.5010(6)
H23_2 H 0.7110 0.5502 0.4813
C19_2 C 0.8561(4) 0.9397(8) 0.3703(2)
H24_2 H 0.8462 0.9395 0.3343
C20_2 C 0.8902(3) 0.9983(7) 0.3980(3)
N6_2 N 0.9050(3) 0.9986(6) 0.4519(3)
C21_2 C 0.8856(3) 0.9402(7) 0.4781(2)
H26_2 H 0.8955 0.9404 0.5141
C22_2 C 0.8516(3) 0.8816(8) 0.4504(3)
H27_2 H 0.8386 0.8425 0.4680
C23_2 C 0.8368(3) 0.8813(7) 0.3965(3)
H28_2 H 0.8140 0.8421 0.3780
C29_2 C 0.7576(4) 0.8460(11) 0.6273(5)
H34_2 H 0.7833 0.8148 0.6461
C30_2 C 0.7481(5) 0.9275(11) 0.6466(5)
H35_2 H 0.7680 0.9533 0.6766
C31_2 C 0.7094(5) 0.9699(12) 0.6215(6)
C32_2 C 0.6807(5) 0.9331(12) 0.5761(6)
H37_2 H 0.6536 0.9606 0.5587
C33_2 C 0.6937(4) 0.8540(11) 0.5576(5)
H38_2 H 0.6755 0.8299 0.5261
Ti4_2 Ti 0.97002(5) 0.59902(10) 0.79016(5)
Ti5_2 Ti 0.94413(5) 0.76849(10) 0.82226(5)
Ti6_2 Ti 0.97383(5) 0.97399(10) 0.78176(5)
S8_2 S 0.87335(7) 0.91914(14) 0.75863(8)
S9_2 S 0.92051(13) 0.5876(3) 0.87296(16)
S10_2 S 0.93529(7) 0.50391(14) 0.67841(8)
O36_2 O 0.96838(18) 0.8454(4) 0.8893(2)
O37_2 O 0.98740(19) 0.9928(4) 0.8588(2)
O38_2 O 0.96828(17) 0.8522(4) 0.79013(18)
O39_2 O 0.90879(19) 0.9922(4) 0.7699(2)
O40_2 O 0.8331(2) 0.9612(4) 0.7588(2)
O41_2 O 0.86935(19) 0.8750(4) 0.7095(2)
O42_2 O 0.88822(19) 0.8472(4) 0.8013(2)
O43_2 O 0.99341(18) 0.6892(4) 0.8432(2)
O44_2 O 0.92443(18) 0.6883(4) 0.7652(2)
O45_2 O 0.9152(2) 0.6844(4) 0.8618(2)
O46_2 O 0.9360(2) 0.5431(4) 0.8346(2)
O47_2 O 0.8845(4) 0.5447(6) 0.8802(5)
O48_2 O 0.9579(4) 0.5786(11) 0.9244(4)
O49_2 O 0.9118(2) 0.5892(4) 0.6535(2)
O50_2 O 0.98090(19) 0.5066(4) 0.6760(2)
O51 O 0.9138(2) 0.4198(4) 0.6543(2)
O52_2 O 0.9395(2) 0.5046(4) 0.7348(2)
O53_2 O 0.96528(17) 0.9667(3) 0.71059(19)
Cu11_2 Cu 0.75018(5) 0.79999(10) 0.44424(6)
Cu14_2 Cu 0.95218(6) 0.92383(15) 0.99170(8)
O54_2 O 0.69130(17) 0.7196(4) 0.4640(2)
Cu1_3 Cu 0.55508(4) 0.78328(9) 0.38405(5)
Cu2_3 Cu 0.58548(4) 0.58523(8) 0.34430(4)
Cu3_3 Cu 0.61405(4) 0.78741(8) 0.30583(4)
Ti1_3 Ti 0.47002(5) 0.90098(10) 0.29016(5)
Ti2_3 Ti 0.44413(5) 0.73151(10) 0.32226(5)
Ti3_3 Ti 0.47383(5) 0.52601(10) 0.28176(5)
S1_3 S 0.65108(7) 0.71819(13) 0.41915(7)
S2_3 S 0.50222(7) 0.57941(14) 0.40182(7)
S3_3 S 0.37335(7) 0.58086(14) 0.25863(8)
S4_3 S 0.42051(13) 0.9124(3) 0.37296(16)
S5_3 S 0.43529(7) 0.99609(14) 0.17841(8)
O1_3 O 0.56871(18) 0.7176(3) 0.3265(2)
O3_3 O 0.65829(18) 0.7661(4) 0.3751(2)
O4_3 O 0.63789(19) 0.6220(4) 0.4044(2)
O5_3 O 0.6156(2) 0.7661(4) 0.4321(2)
O7_3 O 0.5445(2) 0.6184(4) 0.4029(2)
O8_3 O 0.46838(18) 0.6546(4) 0.3893(2)
O9_3 O 0.48740(19) 0.5072(4) 0.3588(2)
O10_3 O 0.46828(17) 0.6478(4) 0.29013(18)
O11_3 O 0.40879(19) 0.5078(4) 0.2699(2)
O12_3 O 0.3331(2) 0.5388(4) 0.2588(2)
O13_3 O 0.36935(19) 0.6250(4) 0.2095(2)
O14_3 O 0.38822(19) 0.6528(4) 0.3013(2)
O15_3 O 0.49341(18) 0.8108(4) 0.3432(2)
O16_3 O 0.42443(18) 0.8117(4) 0.2652(2)
O17_3 O 0.4152(2) 0.8156(4) 0.3618(2)
O18_3 O 0.4360(2) 0.9569(4) 0.3346(2)
O19_3 O 0.3845(4) 0.9553(6) 0.3802(5)
O20_3 O 0.4579(4) 0.9214(11) 0.4244(4)
O21_4 O 0.5000 0.8586(5) 0.2500
O22_3 O 0.4118(2) 0.9108(4) 0.1535(2)
O23_3 O 0.48090(19) 0.9934(4) 0.1760(2)
O25_3 O 0.4395(2) 0.9954(4) 0.2348(2)
O26_3 O 0.46528(17) 0.5333(3) 0.21059(19)
O27_3 O 0.4792(2) 0.3822(4) 0.2763(2)
N1_3 N 0.5454(3) 0.8425(9) 0.4439(3)
H1_3 H 0.5139 0.8569 0.4338
N2_3 N 0.7682(3) 0.6901(7) 0.4171(3)
N3_3 N 0.7353(3) 0.9216(6) 0.4610(4)
C1_3 C 0.5576(6) 0.7811(11) 0.4916(5)
H2_3 H 0.5887 0.7687 0.5035
H3_3 H 0.5503 0.8119 0.5185
H4_3 H 0.5417 0.7239 0.4830
C2_3 C 0.5708(7) 0.9329(11) 0.4593(6)
H5_3 H 0.5574 0.9795 0.4338
H6_3 H 0.5704 0.9526 0.4925
H7_3 H 0.6007 0.9236 0.4612
C3_3 C 0.7197(3) 0.8575(7) 0.2543(4)
H8_3 H 0.7357 0.8282 0.2363
C4_3 C 0.7297(3) 0.9482(7) 0.2712(5)
H9_3 H 0.7523 0.9795 0.2646
C5_3 C 0.7059(3) 0.9920(5) 0.2981(5)
C6_3 C 0.6721(3) 0.9453(5) 0.3080(4)
H11_3 H 0.6562 0.9746 0.3259
N4_3 N 0.66213(19) 0.8546(4) 0.2911(2)
C7_3 C 0.6859(3) 0.8108(5) 0.2642(4)
H12_3 H 0.6793 0.7501 0.2529
C8_3 C 0.6676(2) 0.3517(5) 0.3663(4)
H13_3 H 0.6961 0.3408 0.3666
C9_3 C 0.6511(2) 0.4414(4) 0.3608(3)
H14_3 H 0.6685 0.4906 0.3575
N5_3 N 0.6086(2) 0.4576(3) 0.3603(3)
C10_3 C 0.58263(19) 0.3841(5) 0.3652(3)
H15_3 H 0.5542 0.3950 0.3648
C11_3 C 0.5991(3) 0.2944(4) 0.3707(4)
H16_3 H 0.5817 0.2453 0.3740
C12_3 C 0.6416(3) 0.2782(3) 0.3712(4)
H17_3 H 0.6527 0.2182 0.3749
C13_3 C 0.6949(5) 0.9559(9) 0.4364(6)
H18_3 H 0.6748 0.9197 0.4111
C15_4 C 0.5000 0.3366(9) 0.2500
H20_4 H 0.5000 0.2722 0.2500
C18_3 C 0.7617(5) 0.9741(8) 0.4990(6)
H23_3 H 0.7890 0.9498 0.5187
C19_3 C 0.6439(4) 0.5603(8) 0.6297(2)
H24_3 H 0.6538 0.5605 0.6657
C20_3 C 0.6098(3) 0.5017(7) 0.6020(3)
H25_3 H 0.5969 0.4626 0.6195
N6_3 N 0.5950(3) 0.5014(6) 0.5481(3)
C21_3 C 0.6144(3) 0.5598(7) 0.5219(2)
H26_3 H 0.6045 0.5596 0.4859
C22_3 C 0.6484(3) 0.6184(8) 0.5496(3)
H27_3 H 0.6614 0.6575 0.5320
C23_3 C 0.6632(3) 0.6187(7) 0.6035(3)
H28_3 H 0.6860 0.6579 0.6220
C24_3 C 0.4927(4) 0.2396(9) 0.3904(3)
H29_3 H 0.4738 0.2406 0.3561
C25_4 C 0.5000(4) 0.3199(7) 0.4200(4)
H30_3 H 0.4861 0.3747 0.4054
N7_3 N 0.5283(3) 0.3185(6) 0.4713(4)
C26_3 C 0.5491(4) 0.2366(8) 0.4930(4)
H31_3 H 0.5680 0.2356 0.5273
C27_3 C 0.5418(4) 0.1562(6) 0.4634(5)
H32_3 H 0.5557 0.1015 0.4780
C28_3 C 0.5136(5) 0.1577(7) 0.4121(5)
H33_3 H 0.5086 0.1040 0.3923
C29_3 C 0.7424(4) 0.6540(11) 0.3727(5)
H34_3 H 0.7167 0.6852 0.3539
C30_3 C 0.7519(5) 0.5725(11) 0.3534(5)
H35_3 H 0.7320 0.5467 0.3234
C31_3 C 0.7906(5) 0.5301(12) 0.3785(6)
H36_3 H 0.7979 0.4759 0.3651
C32_3 C 0.8193(5) 0.5669(12) 0.4239(6)
H37_3 H 0.8464 0.5394 0.4413
C33_3 C 0.8063(4) 0.6460(11) 0.4424(5)
H38_3 H 0.8245 0.6701 0.4739
O28_3 O 0.5208(2) 0.3822(4) 0.2237(2)
Cu6_3 Cu 0.44492(4) 0.78328(9) 0.11595(5)
Cu7_3 Cu 0.41452(4) 0.58523(8) 0.15570(4)
Cu8_3 Cu 0.38595(4) 0.78741(8) 0.19417(4)
Ti4_3 Ti 0.52998(5) 0.90098(10) 0.20984(5)
Ti5_3 Ti 0.55587(5) 0.73151(10) 0.17774(5)
Ti6_3 Ti 0.52617(5) 0.52601(10) 0.21824(5)
S6_3 S 0.34892(7) 0.71819(13) 0.08085(7)
S7_3 S 0.49778(7) 0.57941(14) 0.09818(7)
S8_3 S 0.62665(7) 0.58086(14) 0.24137(8)
S9_3 S 0.57949(13) 0.9124(3) 0.12704(16)
S10_3 S 0.56471(7) 0.99609(14) 0.32159(8)
O29_3 O 0.43129(18) 0.7176(3) 0.1735(2)
O31_3 O 0.34171(18) 0.7661(4) 0.1249(2)
O32_3 O 0.36211(19) 0.6220(4) 0.0956(2)
O33_3 O 0.3844(2) 0.7661(4) 0.0679(2)
O35_3 O 0.4555(2) 0.6184(4) 0.0971(2)
O36_3 O 0.53162(18) 0.6546(4) 0.1107(2)
O37_3 O 0.51260(19) 0.5072(4) 0.1412(2)
O38_3 O 0.53172(17) 0.6478(4) 0.20987(18)
O39_3 O 0.59121(19) 0.5078(4) 0.2301(2)
O40_3 O 0.6669(2) 0.5388(4) 0.2412(2)
O41_3 O 0.63065(19) 0.6250(4) 0.2905(2)
O42_3 O 0.61178(19) 0.6528(4) 0.1987(2)
O43_3 O 0.50659(18) 0.8108(4) 0.1568(2)
O44_3 O 0.57557(18) 0.8117(4) 0.2348(2)
O45_3 O 0.5848(2) 0.8156(4) 0.1382(2)
O46_3 O 0.5640(2) 0.9569(4) 0.1654(2)
O47_3 O 0.6155(4) 0.9553(6) 0.1198(5)
O48_3 O 0.5421(4) 0.9214(11) 0.0756(4)
O49_3 O 0.5882(2) 0.9108(4) 0.3465(2)
O50_3 O 0.51910(19) 0.9934(4) 0.3240(2)
O52_3 O 0.5605(2) 0.9954(4) 0.2652(2)
O53_3 O 0.53472(17) 0.5333(3) 0.28941(19)
N8_3 N 0.4546(3) 0.8425(9) 0.0561(3)
H39_3 H 0.4861 0.8569 0.0662
N9_3 N 0.2318(3) 0.6901(7) 0.0829(3)
N10_3 N 0.2647(3) 0.9216(6) 0.0390(4)
C34_3 C 0.4424(6) 0.7811(11) 0.0084(5)
H42_3 H 0.4583 0.7239 0.0170
C35_3 C 0.4292(7) 0.9329(11) 0.0407(6)
H43_3 H 0.4426 0.9795 0.0662
H44_3 H 0.4296 0.9526 0.0075
H45_3 H 0.3993 0.9236 0.0388
C36_3 C 0.2803(3) 0.8575(7) 0.2457(4)
H46_3 H 0.2643 0.8282 0.2637
C37_3 C 0.2703(3) 0.9482(7) 0.2288(5)
H47_3 H 0.2477 0.9795 0.2354
C38_3 C 0.2941(3) 0.9920(5) 0.2019(5)
C39_3 C 0.3279(3) 0.9453(5) 0.1920(4)
H49_3 H 0.3438 0.9746 0.1741
N11_3 N 0.33787(19) 0.8546(4) 0.2089(2)
C40_3 C 0.3141(3) 0.8108(5) 0.2358(4)
H50_3 H 0.3207 0.7501 0.2471
C41_3 C 0.3324(2) 0.3517(5) 0.1337(4)
H51_3 H 0.3039 0.3408 0.1334
C42_3 C 0.3489(2) 0.4414(4) 0.1392(3)
H52_3 H 0.3315 0.4906 0.1425
N12_3 N 0.3914(2) 0.4576(3) 0.1397(3)
C43_3 C 0.41737(19) 0.3841(5) 0.1348(3)
H53_3 H 0.4458 0.3950 0.1352
C44_3 C 0.4009(3) 0.2944(4) 0.1293(4)
H54_3 H 0.4183 0.2453 0.1260
C45_3 C 0.3584(3) 0.2782(3) 0.1288(4)
H55_3 H 0.3473 0.2182 0.1251
C46_3 C 0.3051(5) 0.9559(9) 0.0636(6)
H56_3 H 0.3252 0.9197 0.0889
C50_3 C 0.2383(5) 0.9741(8) 0.0010(6)
H63_3 H 0.3955 0.5596 0.0141
C56_3 C 0.5073(4) 0.2396(9) 0.1096(3)
H66_3 H 0.5262 0.2406 0.1439
C57_4 C 0.5000(4) 0.3199(7) 0.0800(4)
H67_3 H 0.5139 0.3747 0.0946
N14_3 N 0.4717(3) 0.3185(6) 0.0287(4)
C58_3 C 0.4509(4) 0.2366(8) 0.0070(4)
C59_3 C 0.4582(4) 0.1562(6) 0.0366(5)
H69_3 H 0.4443 0.1015 0.0220
C60_3 C 0.4864(5) 0.1577(7) 0.0879(5)
H70_3 H 0.4914 0.1040 0.1077
C61_3 C 0.2576(4) 0.6540(11) 0.1273(5)
H71_3 H 0.2833 0.6852 0.1461
C62_3 C 0.2481(5) 0.5725(11) 0.1466(5)
H72_3 H 0.2680 0.5467 0.1766
C63_3 C 0.2094(5) 0.5301(12) 0.1215(6)
H73_3 H 0.2021 0.4759 0.1349
C64_3 C 0.1807(5) 0.5669(12) 0.0761(6)
H74_3 H 0.1536 0.5394 0.0587
C65_3 C 0.1937(4) 0.6460(11) 0.0576(5)
H75_3 H 0.1755 0.6701 0.0261
H40_3 H 0.4113 0.7687 0.9965
H41_3 H 0.4497 0.8119 0.9815
H60_3 H 0.2110 0.9498 0.9813
C51_3 C 0.3561(4) 0.5603(8) 0.8703(2)
H61_3 H 0.3462 0.5605 0.8343
C52_3 C 0.3902(3) 0.5017(7) 0.8980(3)
H62_3 H 0.4031 0.4626 0.8805
N13_3 N 0.4050(3) 0.5014(6) 0.9519(3)
C53_3 C 0.3856(3) 0.5598(7) 0.9781(2)
C54_3 C 0.3516(3) 0.6184(8) 0.9504(3)
H64_3 H 0.3386 0.6575 0.9680
C55_3 C 0.3368(3) 0.6187(7) 0.8965(3)
H65_3 H 0.3140 0.6579 0.8780
H68_3 H 0.4320 0.2356 0.9727
Cu1_4 Cu 0.05508(4) 0.28328(9) 0.38405(5)
Cu2_4 Cu 0.08548(4) 0.08523(8) 0.34430(4)
Cu3_4 Cu 0.11405(4) 0.28741(8) 0.30583(4)
S1_4 S 0.15108(7) 0.21819(13) 0.41915(7)
S2_4 S 0.00222(7) 0.07941(14) 0.40182(7)
O1_4 O 0.06871(18) 0.2176(3) 0.3265(2)
O3_4 O 0.15829(18) 0.2661(4) 0.3751(2)
O4_4 O 0.13789(19) 0.1220(4) 0.4044(2)
O5_4 O 0.1156(2) 0.2661(4) 0.4321(2)
O7_4 O 0.0445(2) 0.1184(4) 0.4029(2)
O21_5 O 0.0000 0.3586(5) 0.2500
N1_4 N 0.0454(3) 0.3425(9) 0.4439(3)
H1_4 H 0.0139 0.3569 0.4338
N2_4 N 0.2682(3) 0.1901(7) 0.4171(3)
N3_4 N 0.2353(3) 0.4216(6) 0.4610(4)
C1_4 C 0.0576(6) 0.2811(11) 0.4916(5)
H2_4 H 0.0887 0.2687 0.5035
H3_4 H 0.0503 0.3119 0.5185
H4_4 H 0.0417 0.2239 0.4830
C2_4 C 0.0708(7) 0.4329(11) 0.4593(6)
H5_4 H 0.0574 0.4795 0.4338
H6_4 H 0.0704 0.4526 0.4925
H7_4 H 0.1007 0.4236 0.4612
C3_4 C 0.2197(3) 0.3575(7) 0.2543(4)
H8_4 H 0.2357 0.3282 0.2363
C4_4 C 0.2297(3) 0.4482(7) 0.2712(5)
H9_4 H 0.2523 0.4795 0.2646
C5_4 C 0.2059(3) 0.4920(5) 0.2981(5)
H10_2 H 0.2126 0.5527 0.3094
C6_4 C 0.1721(3) 0.4453(5) 0.3080(4)
H11_4 H 0.1562 0.4746 0.3259
N4_4 N 0.16213(19) 0.3546(4) 0.2911(2)
C7_4 C 0.1859(3) 0.3108(5) 0.2642(4)
H12_4 H 0.1793 0.2501 0.2529
C13_4 C 0.1949(5) 0.4559(9) 0.4364(6)
H18_4 H 0.1748 0.4197 0.4111
C14_2 C 0.1818(5) 0.5411(9) 0.4466(6)
H19_2 H 0.1537 0.5621 0.4273
C16_2 C 0.2090(5) 0.5957(9) 0.4843(6)
H21_2 H 0.2002 0.6533 0.4924
C17_2 C 0.2519(5) 0.5590(9) 0.5110(6)
H22_2 H 0.2727 0.5937 0.5362
C18_4 C 0.2617(5) 0.4741(8) 0.4990(6)
H23_4 H 0.2890 0.4498 0.5187
C19_4 C 0.1439(4) 0.0603(8) 0.6297(2)
H24_4 H 0.1538 0.0605 0.6657
C20_4 C 0.1098(3) 0.0017(7) 0.6020(3)
N6_4 N 0.0950(3) 0.0014(6) 0.5481(3)
C21_4 C 0.1144(3) 0.0598(7) 0.5219(2)
H26_4 H 0.1045 0.0596 0.4859
C22_4 C 0.1484(3) 0.1184(8) 0.5496(3)
H27_4 H 0.1614 0.1575 0.5320
C23_4 C 0.1632(3) 0.1187(7) 0.6035(3)
H28_4 H 0.1860 0.1579 0.6220
C29_4 C 0.2424(4) 0.1540(11) 0.3727(5)
H34_4 H 0.2167 0.1852 0.3539
C30_4 C 0.2519(5) 0.0725(11) 0.3534(5)
H35_4 H 0.2320 0.0467 0.3234
C31_4 C 0.2906(5) 0.0301(12) 0.3785(6)
C32_4 C 0.3193(5) 0.0669(12) 0.4239(6)
H37_4 H 0.3464 0.0394 0.4413
C33_4 C 0.3063(4) 0.1460(11) 0.4424(5)
H38_4 H 0.3245 0.1701 0.4739
Ti4_4 Ti 0.02998(5) 0.40098(10) 0.20984(5)
Ti5_4 Ti 0.05587(5) 0.23151(10) 0.17774(5)
Ti6_4 Ti 0.02617(5) 0.02601(10) 0.21824(5)
S8_4 S 0.12665(7) 0.08086(14) 0.24137(8)
S9_4 S 0.07949(13) 0.4124(3) 0.12704(16)
S10_4 S 0.06471(7) 0.49609(14) 0.32159(8)
O36_4 O 0.03162(18) 0.1546(4) 0.1107(2)
O37_4 O 0.01260(19) 0.0072(4) 0.1412(2)
O38_4 O 0.03172(17) 0.1478(4) 0.20987(18)
O39_4 O 0.09121(19) 0.0078(4) 0.2301(2)
O40_4 O 0.1669(2) 0.0388(4) 0.2412(2)
O41_4 O 0.13065(19) 0.1250(4) 0.2905(2)
O42_4 O 0.11178(19) 0.1528(4) 0.1987(2)
O43_4 O 0.00659(18) 0.3108(4) 0.1568(2)
O44_4 O 0.07557(18) 0.3117(4) 0.2348(2)
O45_4 O 0.0848(2) 0.3156(4) 0.1382(2)
O46_4 O 0.0640(2) 0.4569(4) 0.1654(2)
O47_4 O 0.1155(4) 0.4553(6) 0.1198(5)
O48_4 O 0.0421(4) 0.4214(11) 0.0756(4)
O49_4 O 0.0882(2) 0.4108(4) 0.3465(2)
O50_4 O 0.01910(19) 0.4934(4) 0.3240(2)
O51_2 O 0.0862(2) 0.5802(4) 0.3457(2)
O52_4 O 0.0605(2) 0.4954(4) 0.2652(2)
O53_4 O 0.03472(17) 0.0333(3) 0.28941(19)
C8_4 C 0.1676(2) 0.8517(5) 0.3663(4)
H13_4 H 0.1961 0.8408 0.3666
C9_4 C 0.1511(2) 0.9414(4) 0.3608(3)
H14_4 H 0.1685 0.9906 0.3575
N5_4 N 0.1086(2) 0.9576(3) 0.3603(3)
C10_4 C 0.08263(19) 0.8841(5) 0.3652(3)
H15_4 H 0.0542 0.8950 0.3648
C11_4 C 0.0991(3) 0.7944(4) 0.3707(4)
H16_4 H 0.0817 0.7453 0.3740
C12_4 C 0.1416(3) 0.7782(3) 0.3712(4)
H17_4 H 0.1527 0.7182 0.3749
C15_5 C 0.0000 0.8366(9) 0.2500
H20_5 H 0.0000 0.7722 0.2500
H25_4 H 0.0969 0.9626 0.6195
C25_5 C 0.0000(4) 0.8199(7) 0.4200(4)
N7_4 N 0.0283(3) 0.8185(6) 0.4713(4)
C26_4 C 0.0491(4) 0.7366(8) 0.4930(4)
H31_4 H 0.0680 0.7356 0.5273
C27_4 C 0.0418(4) 0.6562(6) 0.4634(5)
H32_4 H 0.0557 0.6015 0.4780
C28_4 C 0.0136(5) 0.6577(7) 0.4121(5)
H33_4 H 0.0086 0.6040 0.3923
H36_4 H 0.2979 0.9759 0.3651
O28_4 O 0.0208(2) 0.8822(4) 0.2237(2)
C56_4 C 0.0073(4) 0.7396(9) 0.1096(3)
H66_4 H 0.0262 0.7406 0.1439
C57_5 C 0.0000(4) 0.8199(7) 0.0800(4)
H67_4 H 0.0139 0.8747 0.0946
Ti1_4 Ti 0.97002(5) 0.40098(10) 0.29016(5)
Ti2_4 Ti 0.94413(5) 0.23151(10) 0.32226(5)
Ti3_4 Ti 0.97383(5) 0.02601(10) 0.28176(5)
S3_4 S 0.87335(7) 0.08086(14) 0.25863(8)
S4_4 S 0.92051(13) 0.4124(3) 0.37296(16)
S5_4 S 0.93529(7) 0.49609(14) 0.17841(8)
O8_4 O 0.96838(18) 0.1546(4) 0.3893(2)
O9_4 O 0.98740(19) 0.0072(4) 0.3588(2)
O10_4 O 0.96828(17) 0.1478(4) 0.29013(18)
O11_4 O 0.90879(19) 0.0078(4) 0.2699(2)
O12_4 O 0.8331(2) 0.0388(4) 0.2588(2)
O13_4 O 0.86935(19) 0.1250(4) 0.2095(2)
O14_4 O 0.88822(19) 0.1528(4) 0.3013(2)
O15_4 O 0.99341(18) 0.3108(4) 0.3432(2)
O16_4 O 0.92443(18) 0.3117(4) 0.2652(2)
O17_4 O 0.9152(2) 0.3156(4) 0.3618(2)
O18_4 O 0.9360(2) 0.4569(4) 0.3346(2)
O19_4 O 0.8845(4) 0.4553(6) 0.3802(5)
O20_4 O 0.9579(4) 0.4214(11) 0.4244(4)
O21_6 O 1.0000 0.3586(5) 0.2500
O22_4 O 0.9118(2) 0.4108(4) 0.1535(2)
O23_4 O 0.98090(19) 0.4934(4) 0.1760(2)
O24_2 O 0.9138(2) 0.5802(4) 0.1543(2)
O25_4 O 0.9395(2) 0.4954(4) 0.2348(2)
O26_4 O 0.96528(17) 0.0333(3) 0.21059(19)
Cu6_4 Cu 0.94492(4) 0.28328(9) 0.11595(5)
Cu7_4 Cu 0.91452(4) 0.08523(8) 0.15570(4)
Cu8_4 Cu 0.88595(4) 0.28741(8) 0.19417(4)
S6_4 S 0.84892(7) 0.21819(13) 0.08085(7)
S7_4 S 0.99778(7) 0.07941(14) 0.09818(7)
O29_4 O 0.93129(18) 0.2176(3) 0.1735(2)
O31_4 O 0.84171(18) 0.2661(4) 0.1249(2)
O32_4 O 0.86211(19) 0.1220(4) 0.0956(2)
O33_4 O 0.8844(2) 0.2661(4) 0.0679(2)
O35_4 O 0.9555(2) 0.1184(4) 0.0971(2)
N8_4 N 0.9546(3) 0.3425(9) 0.0561(3)
H39_4 H 0.9861 0.3569 0.0662
N9_4 N 0.7318(3) 0.1901(7) 0.0829(3)
N10_4 N 0.7647(3) 0.4216(6) 0.0390(4)
C34_4 C 0.9424(6) 0.2811(11) 0.0084(5)
H42_4 H 0.9583 0.2239 0.0170
C35_4 C 0.9292(7) 0.4329(11) 0.0407(6)
H43_4 H 0.9426 0.4795 0.0662
H44_4 H 0.9296 0.4526 0.0075
H45_4 H 0.8993 0.4236 0.0388
C36_4 C 0.7803(3) 0.3575(7) 0.2457(4)
H46_4 H 0.7643 0.3282 0.2637
C37_4 C 0.7703(3) 0.4482(7) 0.2288(5)
H47_4 H 0.7477 0.4795 0.2354
C38_4 C 0.7941(3) 0.4920(5) 0.2019(5)
H48_2 H 0.7874 0.5527 0.1906
C39_4 C 0.8279(3) 0.4453(5) 0.1920(4)
H49_4 H 0.8438 0.4746 0.1741
N11_4 N 0.83787(19) 0.3546(4) 0.2089(2)
C40_4 C 0.8141(3) 0.3108(5) 0.2358(4)
H50_4 H 0.8207 0.2501 0.2471
C46_4 C 0.8051(5) 0.4559(9) 0.0636(6)
H56_4 H 0.8252 0.4197 0.0889
C47_2 C 0.8182(5) 0.5411(9) 0.0534(6)
H57_2 H 0.8463 0.5621 0.0727
C48_2 C 0.7910(5) 0.5957(9) 0.0157(6)
H58_2 H 0.7998 0.6533 0.0076
C50_4 C 0.7383(5) 0.4741(8) 0.0010(6)
H63_4 H 0.8955 0.0596 0.0141
C61_4 C 0.7576(4) 0.1540(11) 0.1273(5)
H71_4 H 0.7833 0.1852 0.1461
C62_4 C 0.7481(5) 0.0725(11) 0.1466(5)
H72_4 H 0.7680 0.0467 0.1766
C63_4 C 0.7094(5) 0.0301(12) 0.1215(6)
C64_4 C 0.6807(5) 0.0669(12) 0.0761(6)
H74_4 H 0.6536 0.0394 0.0587
C65_4 C 0.6937(4) 0.1460(11) 0.0576(5)
H75_4 H 0.6755 0.1701 0.0261
H40_4 H 0.9113 0.2687 0.9965
H41_4 H 0.9497 0.3119 0.9815
C49_2 C 0.7481(5) 0.5590(9) 0.9890(6)
H59_2 H 0.7273 0.5937 0.9638
H60_4 H 0.7110 0.4498 0.9813
C51_4 C 0.8561(4) 0.0603(8) 0.8703(2)
H61_4 H 0.8462 0.0605 0.8343
C52_4 C 0.8902(3) 0.0017(7) 0.8980(3)
N13_4 N 0.9050(3) 0.0014(6) 0.9519(3)
C53_4 C 0.8856(3) 0.0598(7) 0.9781(2)
C54_4 C 0.8516(3) 0.1184(8) 0.9504(3)
H64_4 H 0.8386 0.1575 0.9680
C55_4 C 0.8368(3) 0.1187(7) 0.8965(3)
H65_4 H 0.8140 0.1579 0.8780
O27_4 O 0.9792(2) 0.8822(4) 0.2763(2)
C15_6 C 1.0000 0.8366(9) 0.2500
H20_6 H 1.0000 0.7722 0.2500
C24_4 C 0.9927(4) 0.7396(9) 0.3904(3)
H29_4 H 0.9738 0.7406 0.3561
C25_6 C 1.0000(4) 0.8199(7) 0.4200(4)
H30_4 H 0.9861 0.8747 0.4054
C41_4 C 0.8324(2) 0.8517(5) 0.1337(4)
H51_4 H 0.8039 0.8408 0.1334
C42_4 C 0.8489(2) 0.9414(4) 0.1392(3)
H52_4 H 0.8315 0.9906 0.1425
N12_4 N 0.8914(2) 0.9576(3) 0.1397(3)
C43_4 C 0.91737(19) 0.8841(5) 0.1348(3)
H53_4 H 0.9458 0.8950 0.1352
C44_4 C 0.9009(3) 0.7944(4) 0.1293(4)
H54_4 H 0.9183 0.7453 0.1260
C45_4 C 0.8584(3) 0.7782(3) 0.1288(4)
H55_4 H 0.8473 0.7182 0.1251
C57_6 C 1.0000(4) 0.8199(7) 0.0800(4)
N14_4 N 0.9717(3) 0.8185(6) 0.0287(4)
C58_4 C 0.9509(4) 0.7366(8) 0.0070(4)
C59_4 C 0.9582(4) 0.6562(6) 0.0366(5)
H69_4 H 0.9443 0.6015 0.0220
C60_4 C 0.9864(5) 0.6577(7) 0.0879(5)
H70_4 H 0.9914 0.6040 0.1077
H73_4 H 0.7021 0.9759 0.1349
H62_4 H 0.9031 0.9626 0.8805
H68_4 H 0.9320 0.7356 0.9727
C49_3 C 0.7519(5) 0.9410(9) 0.0110(6)
H59_3 H 0.7727 0.9063 0.0362
O24_3 O 0.5862(2) 0.9198(4) 0.8457(2)
H10_3 H 0.2874 0.9473 0.6906
C14_3 C 0.3182(5) 0.9589(9) 0.5534(6)
H19_3 H 0.3463 0.9379 0.5727
C16_3 C 0.2910(5) 0.9043(9) 0.5157(6)
H21_3 H 0.2998 0.8467 0.5076
C17_3 C 0.2481(5) 0.9410(9) 0.4890(6)
H22_3 H 0.2273 0.9063 0.4638
O51_3 O 0.4138(2) 0.9198(4) 0.6543(2)
H48_3 H 0.7126 0.9473 0.8094
C47_3 C 0.6818(5) 0.9589(9) 0.9466(6)
H57_3 H 0.6537 0.9379 0.9273
C48_3 C 0.7090(5) 0.9043(9) 0.9843(6)
H58_3 H 0.7002 0.8467 0.9924
O24_4 O 0.4138(2) 0.0802(4) 0.1543(2)
H10_4 H 0.7126 0.0527 0.3094
C14_4 C 0.6818(5) 0.0411(9) 0.4466(6)
H19_4 H 0.6537 0.0621 0.4273
C16_4 C 0.7090(5) 0.0957(9) 0.4843(6)
H21_4 H 0.7002 0.1533 0.4924
C17_4 C 0.7519(5) 0.0590(9) 0.5110(6)
H22_4 H 0.7727 0.0937 0.5362
O51_4 O 0.5862(2) 0.0802(4) 0.3457(2)
H48_4 H 0.2874 0.0527 0.1906
C47_4 C 0.3182(5) 0.0411(9) 0.0534(6)
H57_4 H 0.3463 0.0621 0.0727
C48_4 C 0.2910(5) 0.0957(9) 0.0157(6)
H58_4 H 0.2998 0.1533 0.0076
C49_4 C 0.2481(5) 0.0590(9) 0.9890(6)
H59_4 H 0.2273 0.0937 0.9638
loop_
_geom_bond_atom_site_label_1
_geom_bond_atom_site_label_2
_geom_bond_site_symmetry_1
_geom_bond_site_symmetry_2
C51 H61 1_555 1_555
C52 C51 1_555 1_555
H62 C52 1_555 1_555
N13 Cu10 1_555 1_555
C53 N13 1_555 1_555
C54 C53 1_555 1_555
H64 C54 1_555 1_555
C55 C51 1_555 1_555
H65 C55 1_555 1_555
Cu12 O55 1_555 1_555
O57 Cu10 1_555 1_555
C52 N13 1_555 1_555
C54 C55 1_555 1_555
Cu1 O1 1_555 1_555
Cu2 O1 1_555 1_555
Cu3 O1 1_555 1_555
Cu4 O2 1_555 1_555
Cu5 O6 1_555 1_555
Ti1 O15 1_555 1_555
Ti2 O8 1_555 1_555
Ti3 O9 1_555 1_555
S1 O2 1_555 1_555
S2 O6 1_555 1_555
S3 O11 1_555 1_555
S4 O17 1_555 1_555
S5 O22 1_555 1_555
O2 Cu11 1_555 1_555
O3 Cu3 1_555 1_555
O4 Cu2 1_555 1_555
O5 Cu1 1_555 1_555
O6 Cu13 1_555 1_555
O7 Cu1 1_555 1_555
O8 S2 1_555 1_555
O9 S2 1_555 1_555
O10 Ti2 1_555 1_555
O11 Ti3 1_555 1_555
O12 S3 1_555 1_555
O13 S3 1_555 1_555
O14 Ti2 1_555 1_555
O15 Cu1 1_555 1_555
O16 Ti1 1_555 1_555
O17 Ti2 1_555 1_555
O18 Ti1 1_555 1_555
O19 S4 1_555 1_555
O20 S4 1_555 1_555
O21 Ti1 1_555 1_555
O22 Cu6 1_555 1_555
O23 S5 1_555 1_555
O25 Ti1 1_555 1_555
O26 Ti3 1_555 1_555
O27 Ti3 1_555 1_555
N1 Cu1 1_555 1_555
H1 N1 1_555 1_555
N2 Cu4 1_555 1_555
N3 Cu4 1_555 1_555
C1 N1 1_555 1_555
H2 C1 1_555 1_555
H3 C1 1_555 1_555
H4 C1 1_555 1_555
C2 N1 1_555 1_555
H5 C2 1_555 1_555
H6 C2 1_555 1_555
H7 C2 1_555 1_555
C3 H8 1_555 1_555
C4 C3 1_555 1_555
H9 C4 1_555 1_555
C5 C4 1_555 1_555
C6 C5 1_555 1_555
H11 C6 1_555 1_555
N4 Cu3 1_555 1_555
C7 C3 1_555 1_555
H12 C7 1_555 1_555
C8 H13 1_555 1_555
C9 C8 1_555 1_555
H14 C9 1_555 1_555
N5 Cu2 1_555 1_555
C10 N5 1_555 1_555
H15 C10 1_555 1_555
C11 C10 1_555 1_555
H16 C11 1_555 1_555
C12 C8 1_555 1_555
H17 C12 1_555 1_555
C13 N3 1_555 1_555
H18 C13 1_555 1_555
C15 O27 1_555 1_555
H20 C15 1_555 1_555
C18 N3 1_555 1_555
H23 C18 1_555 1_555
C19 H24 1_555 1_555
C20 C19 1_555 1_555
H25 C20 1_555 1_555
N6 Cu5 1_555 1_555
C21 N6 1_555 1_555
H26 C21 1_555 1_555
C22 C21 1_555 1_555
H27 C22 1_555 1_555
C23 C19 1_555 1_555
H28 C23 1_555 1_555
C24 H29 1_555 1_555
C25 C24 1_555 1_555
H30 C25 1_555 1_555
N7 Cu5 1_555 1_555
C26 N7 1_555 1_555
H31 C26 1_555 1_555
C27 C26 1_555 1_555
H32 C27 1_555 1_555
C28 C24 1_555 1_555
H33 C28 1_555 1_555
C29 N2 1_555 1_555
H34 C29 1_555 1_555
C30 C29 1_555 1_555
H35 C30 1_555 1_555
C31 C30 1_555 1_555
H36 C31 1_555 1_555
C32 C31 1_555 1_555
H37 C32 1_555 1_555
C33 N2 1_555 1_555
H38 C33 1_555 1_555
O28 C15 1_555 1_555
Cu6 O29 1_555 1_555
Cu7 O13 1_555 1_555
Cu8 O13 1_555 1_555
Cu9 O30 1_555 1_555
Ti4 O21 1_555 1_555
Ti5 O36 1_555 1_555
Ti6 O26 1_555 1_555
S6 O30 1_555 1_555
S7 O34 1_555 1_555
S8 O39 1_555 1_555
S9 O45 1_555 1_555
S10 O49 1_555 1_555
O29 Cu7 1_555 1_555
O31 Cu8 1_555 1_555
O32 Cu7 1_555 1_555
O33 Cu6 1_555 1_555
O34 Cu14 1_555 1_555
O35 Cu6 1_555 1_555
O36 S7 1_555 1_555
O37 Ti6 1_555 1_555
O38 Ti5 1_555 1_555
O39 Ti6 1_555 1_555
O40 S8 1_555 1_555
O41 Cu2 1_555 1_555
O42 Ti5 1_555 1_555
O43 Cu6 1_555 1_555
O44 Cu3 1_555 1_555
O45 Ti5 1_555 1_555
O46 Ti4 1_555 1_555
O47 S9 1_555 1_555
O48 S9 1_555 1_555
O49 Cu1 1_555 1_555
O50 Ti1 1_555 1_555
O52 Ti4 1_555 1_555
O53 Cu2 1_555 1_555
N8 Cu6 1_555 1_555
H39 N8 1_555 1_555
N9 Cu9 1_555 1_555
N10 Cu9 1_555 1_555
C34 N8 1_555 1_555
H42 C34 1_555 1_555
C35 N8 1_555 1_555
H43 C35 1_555 1_555
H44 C35 1_555 1_555
H45 C35 1_555 1_555
C36 H46 1_555 1_555
C37 C36 1_555 1_555
H47 C37 1_555 1_555
C38 C37 1_555 1_555
C39 C38 1_555 1_555
H49 C39 1_555 1_555
N11 Cu8 1_555 1_555
C40 C36 1_555 1_555
H50 C40 1_555 1_555
C41 H51 1_555 1_555
C42 C41 1_555 1_555
H52 C42 1_555 1_555
N12 Cu7 1_555 1_555
C43 N12 1_555 1_555
H53 C43 1_555 1_555
C44 C43 1_555 1_555
H54 C44 1_555 1_555
C45 C41 1_555 1_555
H55 C45 1_555 1_555
C46 N10 1_555 1_555
H56 C46 1_555 1_555
C50 N10 1_555 1_555
C56 H66 1_555 1_555
C57 C56 1_555 1_555
H67 C57 1_555 1_555
C58 N14 1_555 1_555
C59 C58 1_555 1_555
H69 C59 1_555 1_555
C60 C56 1_555 1_555
H70 C60 1_555 1_555
C61 N9 1_555 1_555
H71 C61 1_555 1_555
C62 C61 1_555 1_555
H72 C62 1_555 1_555
C63 C62 1_555 1_555
H73 C63 1_555 1_555
C64 C63 1_555 1_555
H74 C64 1_555 1_555
C65 N9 1_555 1_555
H75 C65 1_555 1_555
Cu11 O54 1_555 1_555
Cu13 O56 1_555 1_555
O54 Cu4 1_555 1_555
O56 Cu5 1_555 1_555
Cu2 O7 1_555 1_555
Cu3 O41 1_555 1_555
Cu3 O49 1_555 1_555
Ti2 O15 1_555 1_555
Ti2 O16 1_555 1_555
Ti3 O10 1_555 1_555
Ti3 O53 1_555 1_555
S1 O3 1_555 1_555
S1 O4 1_555 1_555
S1 O5 1_555 1_555
S2 O7 1_555 1_555
S3 O14 1_555 1_555
S4 O18 1_555 1_555
S5 O25 1_555 1_555
O16 Cu8 1_555 1_555
O22 Cu8 1_555 1_555
O23 Ti4 1_555 1_555
O26 Cu7 1_555 1_555
C6 N4 1_555 1_555
N4 C7 1_555 1_555
C9 N5 1_555 1_555
C11 C12 1_555 1_555
C20 N6 1_555 1_555
C22 C23 1_555 1_555
C25 N7 1_555 1_555
C27 C28 1_555 1_555
C32 C33 1_555 1_555
O28 Ti6 1_555 1_555
Cu7 O35 1_555 1_555
Cu8 O29 1_555 1_555
Ti4 O43 1_555 1_555
Ti4 O44 1_555 1_555
Ti5 O43 1_555 1_555
Ti5 O44 1_555 1_555
Ti6 O38 1_555 1_555
Ti6 O53 1_555 1_555
S6 O31 1_555 1_555
S6 O32 1_555 1_555
S6 O33 1_555 1_555
S7 O35 1_555 1_555
S7 O37 1_555 1_555
S8 O41 1_555 1_555
S8 O42 1_555 1_555
S9 O46 1_555 1_555
S10 O50 1_555 1_555
S10 O52 1_555 1_555
C39 N11 1_555 1_555
N11 C40 1_555 1_555
C42 N12 1_555 1_555
C44 C45 1_555 1_555
C57 N14 1_555 1_555
C59 C60 1_555 1_555
C64 C65 1_555 1_555
C15_2 O27_2 1_555 1_555
H20_2 C15_2 1_555 1_555
C24_2 H29_2 1_555 1_555
C25_2 C24_2 1_555 1_555
H30_2 C25_2 1_555 1_555
C41_2 H51_2 1_555 1_555
C42_2 C41_2 1_555 1_555
H52_2 C42_2 1_555 1_555
C43_2 N12_2 1_555 1_555
H53_2 C43_2 1_555 1_555
C44_2 C43_2 1_555 1_555
H54_2 C44_2 1_555 1_555
C45_2 C41_2 1_555 1_555
H55_2 C45_2 1_555 1_555
C58_2 N14_2 1_555 1_555
C59_2 C58_2 1_555 1_555
H69_2 C59_2 1_555 1_555
H70_2 C60_2 1_555 1_555
C42_2 N12_2 1_555 1_555
C44_2 C45_2 1_555 1_555
C57_2 N14_2 1_555 1_555
C59_2 C60_2 1_555 1_555
H59 C49 1_555 1_555
C51_2 H61_2 1_555 1_555
C52_2 C51_2 1_555 1_555
C53_2 N13_2 1_555 1_555
C54_2 C53_2 1_555 1_555
H64_2 C54_2 1_555 1_555
C55_2 C51_2 1_555 1_555
H65_2 C55_2 1_555 1_555
Cu12_2 O55_2 1_555 1_555
C52_2 N13_2 1_555 1_555
C54_2 C55_2 1_555 1_555
Ti1_2 O15_2 1_555 1_555
Ti2_2 O8_2 1_555 1_555
Ti3_2 O9_2 1_555 1_555
S3_2 O11_2 1_555 1_555
S4_2 O17_2 1_555 1_555
S5_2 O22_2 1_555 1_555
O10_2 Ti2_2 1_555 1_555
O11_2 Ti3_2 1_555 1_555
O12_2 S3_2 1_555 1_555
O13_2 S3_2 1_555 1_555
O14_2 Ti2_2 1_555 1_555
O16_2 Ti1_2 1_555 1_555
O17_2 Ti2_2 1_555 1_555
O18_2 Ti1_2 1_555 1_555
O19_2 S4_2 1_555 1_555
O20_2 S4_2 1_555 1_555
O21_2 Ti1_2 1_555 1_555
O22_2 Cu6_2 1_555 1_555
O23_2 S5_2 1_555 1_555
O24 S5_2 1_555 1_555
O25_2 Ti1_2 1_555 1_555
O26_2 Ti3_2 1_555 1_555
Cu6_2 O29_2 1_555 1_555
Cu7_2 O13_2 1_555 1_555
Cu8_2 O13_2 1_555 1_555
Cu9_2 O30_2 1_555 1_555
S6_2 O30_2 1_555 1_555
S7_2 O34_2 1_555 1_555
O29_2 Cu7_2 1_555 1_555
O31_2 Cu8_2 1_555 1_555
O32_2 Cu7_2 1_555 1_555
O33_2 Cu6_2 1_555 1_555
O35_2 Cu6_2 1_555 1_555
N8_2 Cu6_2 1_555 1_555
H39_2 N8_2 1_555 1_555
N9_2 Cu9_2 1_555 1_555
N10_2 Cu9_2 1_555 1_555
C34_2 N8_2 1_555 1_555
H42_2 C34_2 1_555 1_555
C35_2 N8_2 1_555 1_555
H43_2 C35_2 1_555 1_555
H44_2 C35_2 1_555 1_555
H45_2 C35_2 1_555 1_555
C36_2 H46_2 1_555 1_555
C37_2 C36_2 1_555 1_555
H47_2 C37_2 1_555 1_555
C38_2 C37_2 1_555 1_555
H48 C38_2 1_555 1_555
C39_2 C38_2 1_555 1_555
H49_2 C39_2 1_555 1_555
N11_2 Cu8_2 1_555 1_555
C40_2 C36_2 1_555 1_555
H50_2 C40_2 1_555 1_555
C46_2 N10_2 1_555 1_555
H56_2 C46_2 1_555 1_555
C47 C46_2 1_555 1_555
H57 C47 1_555 1_555
C48 C47 1_555 1_555
H58 C48 1_555 1_555
C50_2 N10_2 1_555 1_555
C61_2 N9_2 1_555 1_555
H71_2 C61_2 1_555 1_555
C62_2 C61_2 1_555 1_555
H72_2 C62_2 1_555 1_555
C63_2 C62_2 1_555 1_555
C64_2 C63_2 1_555 1_555
H74_2 C64_2 1_555 1_555
C65_2 N9_2 1_555 1_555
H75_2 C65_2 1_555 1_555
Ti2_2 O15_2 1_555 1_555
Ti2_2 O16_2 1_555 1_555
Ti3_2 O10_2 1_555 1_555
S3_2 O14_2 1_555 1_555
S4_2 O18_2 1_555 1_555
S5_2 O25_2 1_555 1_555
O16_2 Cu8_2 1_555 1_555
O22_2 Cu8_2 1_555 1_555
O26_2 Cu7_2 1_555 1_555
Cu7_2 O35_2 1_555 1_555
Cu8_2 O29_2 1_555 1_555
S6_2 O31_2 1_555 1_555
S6_2 O32_2 1_555 1_555
S6_2 O33_2 1_555 1_555
S7_2 O35_2 1_555 1_555
C39_2 N11_2 1_555 1_555
N11_2 C40_2 1_555 1_555
C64_2 C65_2 1_555 1_555
C8_2 H13_2 1_555 1_555
C9_2 C8_2 1_555 1_555
H14_2 C9_2 1_555 1_555
C10_2 N5_2 1_555 1_555
H15_2 C10_2 1_555 1_555
C11_2 C10_2 1_555 1_555
H16_2 C11_2 1_555 1_555
C12_2 C8_2 1_555 1_555
H17_2 C12_2 1_555 1_555
H20_3 C15_3 1_555 1_555
N7_2 Cu5_2 1_555 1_555
C26_2 N7_2 1_555 1_555
H31_2 C26_2 1_555 1_555
C27_2 C26_2 1_555 1_555
H32_2 C27_2 1_555 1_555
H33_2 C28_2 1_555 1_555
O28_2 C15_3 1_555 1_555
C56_2 H66_2 1_555 1_555
C57_3 C56_2 1_555 1_555
H67_2 C57_3 1_555 1_555
C9_2 N5_2 1_555 1_555
C11_2 C12_2 1_555 1_555
C25_3 N7_2 1_555 1_555
C27_2 C28_2 1_555 1_555
Cu1_2 O1_2 1_555 1_555
Cu2_2 O1_2 1_555 1_555
Cu3_2 O1_2 1_555 1_555
Cu4_2 O2_2 1_555 1_555
S1_2 O2_2 1_555 1_555
S2_2 O6_2 1_555 1_555
O2_2 Cu11_2 1_555 1_555
O3_2 Cu3_2 1_555 1_555
O4_2 Cu2_2 1_555 1_555
O5_2 Cu1_2 1_555 1_555
O7_2 Cu1_2 1_555 1_555
N1_2 Cu1_2 1_555 1_555
H1_2 N1_2 1_555 1_555
N2_2 Cu4_2 1_555 1_555
N3_2 Cu4_2 1_555 1_555
C1_2 N1_2 1_555 1_555
H2_2 C1_2 1_555 1_555
H3_2 C1_2 1_555 1_555
H4_2 C1_2 1_555 1_555
C2_2 N1_2 1_555 1_555
H5_2 C2_2 1_555 1_555
H6_2 C2_2 1_555 1_555
H7_2 C2_2 1_555 1_555
C3_2 H8_2 1_555 1_555
C4_2 C3_2 1_555 1_555
H9_2 C4_2 1_555 1_555
C5_2 C4_2 1_555 1_555
H10 C5_2 1_555 1_555
C6_2 C5_2 1_555 1_555
H11_2 C6_2 1_555 1_555
N4_2 Cu3_2 1_555 1_555
C7_2 C3_2 1_555 1_555
H12_2 C7_2 1_555 1_555
C13_2 N3_2 1_555 1_555
H18_2 C13_2 1_555 1_555
C14 C13_2 1_555 1_555
H19 C14 1_555 1_555
C16 C14 1_555 1_555
H21 C16 1_555 1_555
C17 C16 1_555 1_555
H22 C17 1_555 1_555
C18_2 N3_2 1_555 1_555
H23_2 C18_2 1_555 1_555
C19_2 H24_2 1_555 1_555
C20_2 C19_2 1_555 1_555
C21_2 N6_2 1_555 1_555
H26_2 C21_2 1_555 1_555
C22_2 C21_2 1_555 1_555
H27_2 C22_2 1_555 1_555
C23_2 C19_2 1_555 1_555
H28_2 C23_2 1_555 1_555
C29_2 N2_2 1_555 1_555
H34_2 C29_2 1_555 1_555
C30_2 C29_2 1_555 1_555
H35_2 C30_2 1_555 1_555
C31_2 C30_2 1_555 1_555
C32_2 C31_2 1_555 1_555
H37_2 C32_2 1_555 1_555
C33_2 N2_2 1_555 1_555
H38_2 C33_2 1_555 1_555
Ti4_2 O21_3 1_555 1_555
Ti5_2 O36_2 1_555 1_555
S8_2 O39_2 1_555 1_555
S9_2 O45_2 1_555 1_555
S10_2 O49_2 1_555 1_555
O37_2 Ti6_2 1_555 1_555
O38_2 Ti5_2 1_555 1_555
O39_2 Ti6_2 1_555 1_555
O40_2 S8_2 1_555 1_555
O41_2 Cu2_2 1_555 1_555
O42_2 Ti5_2 1_555 1_555
O44_2 Cu3_2 1_555 1_555
O45_2 Ti5_2 1_555 1_555
O46_2 Ti4_2 1_555 1_555
O47_2 S9_2 1_555 1_555
O48_2 S9_2 1_555 1_555
O49_2 Cu1_2 1_555 1_555
O51 S10_2 1_555 1_555
O52_2 Ti4_2 1_555 1_555
O53_2 Cu2_2 1_555 1_555
Cu11_2 O54_2 1_555 1_555
O54_2 Cu4_2 1_555 1_555
Cu2_2 O7_2 1_555 1_555
Cu3_2 O41_2 1_555 1_555
Cu3_2 O49_2 1_555 1_555
S1_2 O3_2 1_555 1_555
S1_2 O4_2 1_555 1_555
S1_2 O5_2 1_555 1_555
S2_2 O7_2 1_555 1_555
C6_2 N4_2 1_555 1_555
N4_2 C7_2 1_555 1_555
C17 C18_2 1_555 1_555
C20_2 N6_2 1_555 1_555
C22_2 C23_2 1_555 1_555
C32_2 C33_2 1_555 1_555
Ti4_2 O43_2 1_555 1_555
Ti4_2 O44_2 1_555 1_555
Ti5_2 O43_2 1_555 1_555
Ti5_2 O44_2 1_555 1_555
Ti6_2 O38_2 1_555 1_555
Ti6_2 O53_2 1_555 1_555
S8_2 O41_2 1_555 1_555
S8_2 O42_2 1_555 1_555
S9_2 O46_2 1_555 1_555
S10_2 O50_2 1_555 1_555
S10_2 O52_2 1_555 1_555
Cu1_3 O1_3 1_555 1_555
Cu2_3 O1_3 1_555 1_555
Cu3_3 O1_3 1_555 1_555
Ti1_3 O15_3 1_555 1_555
Ti2_3 O8_3 1_555 1_555
Ti3_3 O9_3 1_555 1_555
S1_3 O54_2 1_555 1_555
S2_3 O56 1_555 1_555
S3_3 O11_3 1_555 1_555
S4_3 O17_3 1_555 1_555
S5_3 O22_3 1_555 1_555
O3_3 Cu3_3 1_555 1_555
O4_3 Cu2_3 1_555 1_555
O5_3 Cu1_3 1_555 1_555
O7_3 Cu1_3 1_555 1_555
O8_3 S2_3 1_555 1_555
O9_3 S2_3 1_555 1_555
O10_3 Ti2_3 1_555 1_555
O11_3 Ti3_3 1_555 1_555
O12_3 S3_3 1_555 1_555
O13_3 S3_3 1_555 1_555
O14_3 Ti2_3 1_555 1_555
O15_3 Cu1_3 1_555 1_555
O16_3 Ti1_3 1_555 1_555
O17_3 Ti2_3 1_555 1_555
O18_3 Ti1_3 1_555 1_555
O19_3 S4_3 1_555 1_555
O20_3 S4_3 1_555 1_555
O21_4 Ti1_3 1_555 1_555
O22_3 Cu6_3 1_555 1_555
O23_3 S5_3 1_555 1_555
O25_3 Ti1_3 1_555 1_555
O26_3 Ti3_3 1_555 1_555
O27_3 Ti3_3 1_555 1_555
N1_3 Cu1_3 1_555 1_555
H1_3 N1_3 1_555 1_555
N2_3 Cu11_2 1_555 1_555
N3_3 Cu11_2 1_555 1_555
C1_3 N1_3 1_555 1_555
H2_3 C1_3 1_555 1_555
H3_3 C1_3 1_555 1_555
H4_3 C1_3 1_555 1_555
C2_3 N1_3 1_555 1_555
H5_3 C2_3 1_555 1_555
H6_3 C2_3 1_555 1_555
H7_3 C2_3 1_555 1_555
C3_3 H8_3 1_555 1_555
C4_3 C3_3 1_555 1_555
H9_3 C4_3 1_555 1_555
C5_3 C4_3 1_555 1_555
C6_3 C5_3 1_555 1_555
H11_3 C6_3 1_555 1_555
N4_3 Cu3_3 1_555 1_555
C7_3 C3_3 1_555 1_555
H12_3 C7_3 1_555 1_555
C8_3 H13_3 1_555 1_555
C9_3 C8_3 1_555 1_555
H14_3 C9_3 1_555 1_555
N5_3 Cu2_3 1_555 1_555
C10_3 N5_3 1_555 1_555
H15_3 C10_3 1_555 1_555
C11_3 C10_3 1_555 1_555
H16_3 C11_3 1_555 1_555
C12_3 C8_3 1_555 1_555
H17_3 C12_3 1_555 1_555
C13_3 N3_3 1_555 1_555
H18_3 C13_3 1_555 1_555
C15_4 O27_3 1_555 1_555
H20_4 C15_4 1_555 1_555
C18_3 N3_3 1_555 1_555
H23_3 C18_3 1_555 1_555
C19_3 H24_3 1_555 1_555
C20_3 C19_3 1_555 1_555
H25_3 C20_3 1_555 1_555
N6_3 Cu13 1_555 1_555
C21_3 N6_3 1_555 1_555
H26_3 C21_3 1_555 1_555
C22_3 C21_3 1_555 1_555
H27_3 C22_3 1_555 1_555
C23_3 C19_3 1_555 1_555
H28_3 C23_3 1_555 1_555
C24_3 H29_3 1_555 1_555
C25_4 C24_3 1_555 1_555
H30_3 C25_4 1_555 1_555
N7_3 Cu13 1_555 1_555
C26_3 N7_3 1_555 1_555
H31_3 C26_3 1_555 1_555
C27_3 C26_3 1_555 1_555
H32_3 C27_3 1_555 1_555
C28_3 C24_3 1_555 1_555
H33_3 C28_3 1_555 1_555
C29_3 N2_3 1_555 1_555
H34_3 C29_3 1_555 1_555
C30_3 C29_3 1_555 1_555
H35_3 C30_3 1_555 1_555
C31_3 C30_3 1_555 1_555
H36_3 C31_3 1_555 1_555
C32_3 C31_3 1_555 1_555
H37_3 C32_3 1_555 1_555
C33_3 N2_3 1_555 1_555
H38_3 C33_3 1_555 1_555
O28_3 C15_4 1_555 1_555
Cu6_3 O29_3 1_555 1_555
Cu7_3 O13_3 1_555 1_555
Cu8_3 O13_3 1_555 1_555
Ti4_3 O21_4 1_555 1_555
Ti5_3 O36_3 1_555 1_555
Ti6_3 O26_3 1_555 1_555
S6_3 O55_2 1_555 1_555
S7_3 O57 1_555 1_555
S8_3 O39_3 1_555 1_555
S9_3 O45_3 1_555 1_555
S10_3 O49_3 1_555 1_555
O29_3 Cu7_3 1_555 1_555
O31_3 Cu8_3 1_555 1_555
O32_3 Cu7_3 1_555 1_555
O33_3 Cu6_3 1_555 1_555
O35_3 Cu6_3 1_555 1_555
O36_3 S7_3 1_555 1_555
O37_3 Ti6_3 1_555 1_555
O38_3 Ti5_3 1_555 1_555
O39_3 Ti6_3 1_555 1_555
O40_3 S8_3 1_555 1_555
O41_3 Cu2_3 1_555 1_555
O42_3 Ti5_3 1_555 1_555
O43_3 Cu6_3 1_555 1_555
O44_3 Cu3_3 1_555 1_555
O45_3 Ti5_3 1_555 1_555
O46_3 Ti4_3 1_555 1_555
O47_3 S9_3 1_555 1_555
O48_3 S9_3 1_555 1_555
O49_3 Cu1_3 1_555 1_555
O50_3 Ti1_3 1_555 1_555
O52_3 Ti4_3 1_555 1_555
O53_3 Cu2_3 1_555 1_555
N8_3 Cu6_3 1_555 1_555
H39_3 N8_3 1_555 1_555
N9_3 Cu12_2 1_555 1_555
N10_3 Cu12_2 1_555 1_555
C34_3 N8_3 1_555 1_555
H42_3 C34_3 1_555 1_555
C35_3 N8_3 1_555 1_555
H43_3 C35_3 1_555 1_555
H44_3 C35_3 1_555 1_555
H45_3 C35_3 1_555 1_555
C36_3 H46_3 1_555 1_555
C37_3 C36_3 1_555 1_555
H47_3 C37_3 1_555 1_555
C38_3 C37_3 1_555 1_555
C39_3 C38_3 1_555 1_555
H49_3 C39_3 1_555 1_555
N11_3 Cu8_3 1_555 1_555
C40_3 C36_3 1_555 1_555
H50_3 C40_3 1_555 1_555
C41_3 H51_3 1_555 1_555
C42_3 C41_3 1_555 1_555
H52_3 C42_3 1_555 1_555
N12_3 Cu7_3 1_555 1_555
C43_3 N12_3 1_555 1_555
H53_3 C43_3 1_555 1_555
C44_3 C43_3 1_555 1_555
H54_3 C44_3 1_555 1_555
C45_3 C41_3 1_555 1_555
H55_3 C45_3 1_555 1_555
C46_3 N10_3 1_555 1_555
H56_3 C46_3 1_555 1_555
C50_3 N10_3 1_555 1_555
C56_3 H66_3 1_555 1_555
C57_4 C56_3 1_555 1_555
H67_3 C57_4 1_555 1_555
C58_3 N14_3 1_555 1_555
C59_3 C58_3 1_555 1_555
H69_3 C59_3 1_555 1_555
C60_3 C56_3 1_555 1_555
H70_3 C60_3 1_555 1_555
C61_3 N9_3 1_555 1_555
H71_3 C61_3 1_555 1_555
C62_3 C61_3 1_555 1_555
H72_3 C62_3 1_555 1_555
C63_3 C62_3 1_555 1_555
H73_3 C63_3 1_555 1_555
C64_3 C63_3 1_555 1_555
H74_3 C64_3 1_555 1_555
C65_3 N9_3 1_555 1_555
H75_3 C65_3 1_555 1_555
Cu2_3 O7_3 1_555 1_555
Cu3_3 O41_3 1_555 1_555
Cu3_3 O49_3 1_555 1_555
Ti2_3 O15_3 1_555 1_555
Ti2_3 O16_3 1_555 1_555
Ti3_3 O10_3 1_555 1_555
Ti3_3 O53_3 1_555 1_555
S1_3 O3_3 1_555 1_555
S1_3 O4_3 1_555 1_555
S1_3 O5_3 1_555 1_555
S2_3 O7_3 1_555 1_555
S3_3 O14_3 1_555 1_555
S4_3 O18_3 1_555 1_555
S5_3 O25_3 1_555 1_555
O16_3 Cu8_3 1_555 1_555
O22_3 Cu8_3 1_555 1_555
O23_3 Ti4_3 1_555 1_555
O26_3 Cu7_3 1_555 1_555
C6_3 N4_3 1_555 1_555
N4_3 C7_3 1_555 1_555
C9_3 N5_3 1_555 1_555
C11_3 C12_3 1_555 1_555
C20_3 N6_3 1_555 1_555
C22_3 C23_3 1_555 1_555
C25_4 N7_3 1_555 1_555
C27_3 C28_3 1_555 1_555
C32_3 C33_3 1_555 1_555
O28_3 Ti6_3 1_555 1_555
Cu7_3 O35_3 1_555 1_555
Cu8_3 O29_3 1_555 1_555
Ti4_3 O43_3 1_555 1_555
Ti4_3 O44_3 1_555 1_555
Ti5_3 O43_3 1_555 1_555
Ti5_3 O44_3 1_555 1_555
Ti6_3 O38_3 1_555 1_555
Ti6_3 O53_3 1_555 1_555
S6_3 O31_3 1_555 1_555
S6_3 O32_3 1_555 1_555
S6_3 O33_3 1_555 1_555
S7_3 O35_3 1_555 1_555
S7_3 O37_3 1_555 1_555
S8_3 O41_3 1_555 1_555
S8_3 O42_3 1_555 1_555
S9_3 O46_3 1_555 1_555
S10_3 O50_3 1_555 1_555
S10_3 O52_3 1_555 1_555
C39_3 N11_3 1_555 1_555
N11_3 C40_3 1_555 1_555
C42_3 N12_3 1_555 1_555
C44_3 C45_3 1_555 1_555
C57_4 N14_3 1_555 1_555
C59_3 C60_3 1_555 1_555
C64_3 C65_3 1_555 1_555
C51_3 H61_3 1_555 1_555
C52_3 C51_3 1_555 1_555
H62_3 C52_3 1_555 1_555
N13_3 Cu14 1_555 1_555
C53_3 N13_3 1_555 1_555
C54_3 C53_3 1_555 1_555
H64_3 C54_3 1_555 1_555
C55_3 C51_3 1_555 1_555
H65_3 C55_3 1_555 1_555
C52_3 N13_3 1_555 1_555
C54_3 C55_3 1_555 1_555
Cu1_4 O1_4 1_555 1_555
Cu2_4 O1_4 1_555 1_555
Cu3_4 O1_4 1_555 1_555
S1_4 O54 1_555 1_555
S2_4 O56_2 1_555 1_555
O3_4 Cu3_4 1_555 1_555
O4_4 Cu2_4 1_555 1_555
O5_4 Cu1_4 1_555 1_555
O7_4 Cu1_4 1_555 1_555
N1_4 Cu1_4 1_555 1_555
H1_4 N1_4 1_555 1_555
N2_4 Cu11 1_555 1_555
N3_4 Cu11 1_555 1_555
C1_4 N1_4 1_555 1_555
H2_4 C1_4 1_555 1_555
H3_4 C1_4 1_555 1_555
H4_4 C1_4 1_555 1_555
C2_4 N1_4 1_555 1_555
H5_4 C2_4 1_555 1_555
H6_4 C2_4 1_555 1_555
H7_4 C2_4 1_555 1_555
C3_4 H8_4 1_555 1_555
C4_4 C3_4 1_555 1_555
H9_4 C4_4 1_555 1_555
C5_4 C4_4 1_555 1_555
H10_2 C5_4 1_555 1_555
C6_4 C5_4 1_555 1_555
H11_4 C6_4 1_555 1_555
N4_4 Cu3_4 1_555 1_555
C7_4 C3_4 1_555 1_555
H12_4 C7_4 1_555 1_555
C13_4 N3_4 1_555 1_555
H18_4 C13_4 1_555 1_555
C14_2 C13_4 1_555 1_555
H19_2 C14_2 1_555 1_555
C16_2 C14_2 1_555 1_555
H21_2 C16_2 1_555 1_555
C17_2 C16_2 1_555 1_555
H22_2 C17_2 1_555 1_555
C18_4 N3_4 1_555 1_555
H23_4 C18_4 1_555 1_555
C19_4 H24_4 1_555 1_555
C20_4 C19_4 1_555 1_555
C21_4 N6_4 1_555 1_555
H26_4 C21_4 1_555 1_555
C22_4 C21_4 1_555 1_555
H27_4 C22_4 1_555 1_555
C23_4 C19_4 1_555 1_555
H28_4 C23_4 1_555 1_555
C29_4 N2_4 1_555 1_555
H34_4 C29_4 1_555 1_555
C30_4 C29_4 1_555 1_555
H35_4 C30_4 1_555 1_555
C31_4 C30_4 1_555 1_555
C32_4 C31_4 1_555 1_555
H37_4 C32_4 1_555 1_555
C33_4 N2_4 1_555 1_555
H38_4 C33_4 1_555 1_555
Ti4_4 O21_5 1_555 1_555
Ti5_4 O36_4 1_555 1_555
S8_4 O39_4 1_555 1_555
S9_4 O45_4 1_555 1_555
S10_4 O49_4 1_555 1_555
O37_4 Ti6_4 1_555 1_555
O38_4 Ti5_4 1_555 1_555
O39_4 Ti6_4 1_555 1_555
O40_4 S8_4 1_555 1_555
O41_4 Cu2_4 1_555 1_555
O42_4 Ti5_4 1_555 1_555
O44_4 Cu3_4 1_555 1_555
O45_4 Ti5_4 1_555 1_555
O46_4 Ti4_4 1_555 1_555
O47_4 S9_4 1_555 1_555
O48_4 S9_4 1_555 1_555
O49_4 Cu1_4 1_555 1_555
O51_2 S10_4 1_555 1_555
O52_4 Ti4_4 1_555 1_555
O53_4 Cu2_4 1_555 1_555
Cu2_4 O7_4 1_555 1_555
Cu3_4 O41_4 1_555 1_555
Cu3_4 O49_4 1_555 1_555
S1_4 O3_4 1_555 1_555
S1_4 O4_4 1_555 1_555
S1_4 O5_4 1_555 1_555
S2_4 O7_4 1_555 1_555
C6_4 N4_4 1_555 1_555
N4_4 C7_4 1_555 1_555
C17_2 C18_4 1_555 1_555
C20_4 N6_4 1_555 1_555
C22_4 C23_4 1_555 1_555
C32_4 C33_4 1_555 1_555
Ti4_4 O43_4 1_555 1_555
Ti4_4 O44_4 1_555 1_555
Ti5_4 O43_4 1_555 1_555
Ti5_4 O44_4 1_555 1_555
Ti6_4 O38_4 1_555 1_555
Ti6_4 O53_4 1_555 1_555
S8_4 O41_4 1_555 1_555
S8_4 O42_4 1_555 1_555
S9_4 O46_4 1_555 1_555
S10_4 O50_4 1_555 1_555
S10_4 O52_4 1_555 1_555
C8_4 H13_4 1_555 1_555
C9_4 C8_4 1_555 1_555
H14_4 C9_4 1_555 1_555
C10_4 N5_4 1_555 1_555
H15_4 C10_4 1_555 1_555
C11_4 C10_4 1_555 1_555
H16_4 C11_4 1_555 1_555
C12_4 C8_4 1_555 1_555
H17_4 C12_4 1_555 1_555
H20_5 C15_5 1_555 1_555
N7_4 Cu13_2 1_555 1_555
C26_4 N7_4 1_555 1_555
H31_4 C26_4 1_555 1_555
C27_4 C26_4 1_555 1_555
H32_4 C27_4 1_555 1_555
H33_4 C28_4 1_555 1_555
O28_4 C15_5 1_555 1_555
C56_4 H66_4 1_555 1_555
C57_5 C56_4 1_555 1_555
H67_4 C57_5 1_555 1_555
C9_4 N5_4 1_555 1_555
C11_4 C12_4 1_555 1_555
C25_5 N7_4 1_555 1_555
C27_4 C28_4 1_555 1_555
Ti1_4 O15_4 1_555 1_555
Ti2_4 O8_4 1_555 1_555
Ti3_4 O9_4 1_555 1_555
S3_4 O11_4 1_555 1_555
S4_4 O17_4 1_555 1_555
S5_4 O22_4 1_555 1_555
O10_4 Ti2_4 1_555 1_555
O11_4 Ti3_4 1_555 1_555
O12_4 S3_4 1_555 1_555
O13_4 S3_4 1_555 1_555
O14_4 Ti2_4 1_555 1_555
O16_4 Ti1_4 1_555 1_555
O17_4 Ti2_4 1_555 1_555
O18_4 Ti1_4 1_555 1_555
O19_4 S4_4 1_555 1_555
O20_4 S4_4 1_555 1_555
O21_6 Ti1_4 1_555 1_555
O22_4 Cu6_4 1_555 1_555
O23_4 S5_4 1_555 1_555
O24_2 S5_4 1_555 1_555
O25_4 Ti1_4 1_555 1_555
O26_4 Ti3_4 1_555 1_555
Cu6_4 O29_4 1_555 1_555
Cu7_4 O13_4 1_555 1_555
Cu8_4 O13_4 1_555 1_555
S6_4 O55 1_555 1_555
S7_4 O57_2 1_555 1_555
O29_4 Cu7_4 1_555 1_555
O31_4 Cu8_4 1_555 1_555
O32_4 Cu7_4 1_555 1_555
O33_4 Cu6_4 1_555 1_555
O35_4 Cu6_4 1_555 1_555
N8_4 Cu6_4 1_555 1_555
H39_4 N8_4 1_555 1_555
N9_4 Cu12 1_555 1_555
N10_4 Cu12 1_555 1_555
C34_4 N8_4 1_555 1_555
H42_4 C34_4 1_555 1_555
C35_4 N8_4 1_555 1_555
H43_4 C35_4 1_555 1_555
H44_4 C35_4 1_555 1_555
H45_4 C35_4 1_555 1_555
C36_4 H46_4 1_555 1_555
C37_4 C36_4 1_555 1_555
H47_4 C37_4 1_555 1_555
C38_4 C37_4 1_555 1_555
H48_2 C38_4 1_555 1_555
C39_4 C38_4 1_555 1_555
H49_4 C39_4 1_555 1_555
N11_4 Cu8_4 1_555 1_555
C40_4 C36_4 1_555 1_555
H50_4 C40_4 1_555 1_555
C46_4 N10_4 1_555 1_555
H56_4 C46_4 1_555 1_555
C47_2 C46_4 1_555 1_555
H57_2 C47_2 1_555 1_555
C48_2 C47_2 1_555 1_555
H58_2 C48_2 1_555 1_555
C50_4 N10_4 1_555 1_555
C61_4 N9_4 1_555 1_555
H71_4 C61_4 1_555 1_555
C62_4 C61_4 1_555 1_555
H72_4 C62_4 1_555 1_555
C63_4 C62_4 1_555 1_555
C64_4 C63_4 1_555 1_555
H74_4 C64_4 1_555 1_555
C65_4 N9_4 1_555 1_555
H75_4 C65_4 1_555 1_555
Ti2_4 O15_4 1_555 1_555
Ti2_4 O16_4 1_555 1_555
Ti3_4 O10_4 1_555 1_555
S3_4 O14_4 1_555 1_555
S4_4 O18_4 1_555 1_555
S5_4 O25_4 1_555 1_555
O16_4 Cu8_4 1_555 1_555
O22_4 Cu8_4 1_555 1_555
O26_4 Cu7_4 1_555 1_555
Cu7_4 O35_4 1_555 1_555
Cu8_4 O29_4 1_555 1_555
S6_4 O31_4 1_555 1_555
S6_4 O32_4 1_555 1_555
S6_4 O33_4 1_555 1_555
S7_4 O35_4 1_555 1_555
C39_4 N11_4 1_555 1_555
N11_4 C40_4 1_555 1_555
C64_4 C65_4 1_555 1_555
H59_2 C49_2 1_555 1_555
C51_4 H61_4 1_555 1_555
C52_4 C51_4 1_555 1_555
C53_4 N13_4 1_555 1_555
C54_4 C53_4 1_555 1_555
H64_4 C54_4 1_555 1_555
C55_4 C51_4 1_555 1_555
H65_4 C55_4 1_555 1_555
C52_4 N13_4 1_555 1_555
C54_4 C55_4 1_555 1_555
C15_6 O27_4 1_555 1_555
H20_6 C15_6 1_555 1_555
C24_4 H29_4 1_555 1_555
C25_6 C24_4 1_555 1_555
H30_4 C25_6 1_555 1_555
C41_4 H51_4 1_555 1_555
C42_4 C41_4 1_555 1_555
H52_4 C42_4 1_555 1_555
C43_4 N12_4 1_555 1_555
H53_4 C43_4 1_555 1_555
C44_4 C43_4 1_555 1_555
H54_4 C44_4 1_555 1_555
C45_4 C41_4 1_555 1_555
H55_4 C45_4 1_555 1_555
C58_4 N14_4 1_555 1_555
C59_4 C58_4 1_555 1_555
H69_4 C59_4 1_555 1_555
H70_4 C60_4 1_555 1_555
C42_4 N12_4 1_555 1_555
C44_4 C45_4 1_555 1_555
C57_6 N14_4 1_555 1_555
C59_4 C60_4 1_555 1_555
H59_3 C49_3 1_555 1_555
H19_3 C14_3 1_555 1_555
C16_3 C14_3 1_555 1_555
H21_3 C16_3 1_555 1_555
C17_3 C16_3 1_555 1_555
H22_3 C17_3 1_555 1_555
H57_3 C47_3 1_555 1_555
C48_3 C47_3 1_555 1_555
H58_3 C48_3 1_555 1_555
H19_4 C14_4 1_555 1_555
C16_4 C14_4 1_555 1_555
H21_4 C16_4 1_555 1_555
C17_4 C16_4 1_555 1_555
H22_4 C17_4 1_555 1_555
H57_4 C47_4 1_555 1_555
C48_4 C47_4 1_555 1_555
H58_4 C48_4 1_555 1_555
H59_4 C49_4 1_555 1_555

#END
