
###############################################################################
#
# This file contains modified crystal structure data generated from the
# MOF subset of the Cambridge Structural Database (CSD) v543 
# hosted by the Cambridge Crystallographic Data Centre (CCDC).
#
# This work is licensed under the Creative Commons
# Attribution-NonCommercial-ShareAlike 4.0 International License.
# To view a copy of this license, visit
# http://creativecommons.org/licenses/by-nc-sa/4.0/
# or send a letter to
# Creative Commons, PO Box 1866, Mountain View, CA 94042, USA.
#
# CIF created using the CSD Python API on 29 September 2022
# The structure has been converted into the P1 space group
# The structure has a 3D framework
# The original CSD entry QAHGOZ is in the rhombohedral crystal system
# The original CSD entry QAHGOZ is in a Sohncke space group
# The framework has been calculated to contain at least 10.0% void space
# The void calculation uses a probe of radius 1.32A, grid spacing 0.4
#
###############################################################################

data_QAHGOZ
_chemical_formula_moiety         '(C207 H333 Cu27 N63 O174 S39 Ti18)n'
_symmetry_cell_setting           triclinic
_symmetry_space_group_name_H-M   'P 1'
_symmetry_Int_Tables_number      1
_space_group_name_Hall           'P 1'
loop_
_symmetry_equiv_pos_site_id
_symmetry_equiv_pos_as_xyz
1 x,y,z
_cell_length_a                   26.4068(7)
_cell_length_b                   26.4068(7)
_cell_length_c                   19.2680(7)
_cell_angle_alpha                90
_cell_angle_beta                 90
_cell_angle_gamma                120
_cell_volume                     11635.9
loop_
_atom_site_label
_atom_site_type_symbol
_atom_site_fract_x
_atom_site_fract_y
_atom_site_fract_z
N11 N 0.6173(4) 0.0289(6) 0.7122(6)
C33 C 0.6504(8) 0.0738(12) 0.7672(12)
H55 H 0.629513 0.061555 0.810324
H56 H 0.654427 0.110641 0.753531
H57 H 0.688472 0.078091 0.772798
C34 C 0.5628(6) 0.0263(8) 0.6873(13)
H58 H 0.568555 0.041241 0.640817
H59 H 0.553323 0.049477 0.717111
C35 C 0.6402(5) 0.0001(7) 0.6794(6)
C36 C 0.6963(5) 0.0080(7) 0.6945(7)
H61 H 0.718153 0.032933 0.730449
C63 C 0.1082(10) 0.0434(8) 0.3518(10)
H102 H 0.122143 0.071499 0.314791
H103 H 0.128978 0.061623 0.393671
H104 H 0.067139 0.028805 0.358658
H105 H 0.130622 0.018886 0.231534
H107 H 0.181236 0.010755 0.261715
Cu1 Cu 0.41788(4) 0.70781(4) 0.33433(5)
Cu2 Cu 0.41732(4) 0.70336(4) 0.65478(5)
Cu3 Cu 0.18383(6) 0.27410(7) 0.55112(8)
Ti1 Ti 0.45424(6) 0.67111(6) 0.49422(7)
Ti2 Ti 0.32291(6) 0.54324(6) 0.49480(7)
S1 S 0.333333 0.666667 0.78009(18)
S2 S 0.41838(8) 0.57444(8) 0.61370(11)
S3 S 0.20466(9) 0.41821(8) 0.48034(11)
S4 S 0.41667(8) 0.57600(8) 0.37292(11)
S5 S 0.333333 0.666667 0.21018(18)
O1 O 0.333333 0.666667 0.6230(4)
O2 O 0.333333 0.666667 0.1345(5)
O3 O 0.3942(3) 0.6956(3) 0.2356(3)
O4 O 0.333333 0.666667 0.3664(5)
O5 O 0.3919(3) 0.6053(3) 0.3324(3)
O6 O 0.4511(2) 0.7227(2) 0.4290(3)
O7 O 0.4419(2) 0.5488(3) 0.3305(3)
O8 O 0.4632(2) 0.6204(2) 0.4188(3)
O9 O 0.3693(2) 0.5307(2) 0.4178(3)
O10 O 0.4501(2) 0.7230(2) 0.5591(3)
O11 O 0.3761(2) 0.6203(2) 0.4945(3)
O12 O 0.4637(2) 0.6214(2) 0.5683(3)
O13 O 0.3717(2) 0.5297(2) 0.5674(3)
O14 O 0.4456(3) 0.5475(3) 0.6518(3)
O15 O 0.3923(3) 0.5999(3) 0.6572(3)
O16 O 0.3940(2) 0.6936(3) 0.7533(3)
O17 O 0.333333 0.666667 0.8527(6)
O18 O 0.1963(3) 0.4005(3) 0.4083(3)
O19 O 0.1790(3) 0.3684(2) 0.5257(4)
O20 O 0.2688(2) 0.4535(2) 0.4944(3)
O21 O 0.1776(2) 0.4553(2) 0.4951(3)
N1 N 0.6493(4) 0.8158(4) 0.8144(5)
N2 N 0.4976(3) 0.7364(3) 0.6922(4)
N3 N 0.5018(3) 0.7499(3) 0.3023(4)
H1 H 0.525562 0.768757 0.343538
N4 N 0.4116(5) 0.3827(4) 0.7122(6)
N5 N 0.2532(4) 0.3098(4) 0.6054(5)
N6 N 0.0059(6) 0.1236(6) 0.3335(7)
N7 N 0.1253(4) 0.2298(4) 0.4843(4)
C1 C 0.5160(5) 0.7984(5) 0.2506(8)
H2 H 0.497328 0.781797 0.207139
H3 H 0.557572 0.820899 0.243956
H4 H 0.502137 0.823372 0.268011
C2 C 0.5229(5) 0.7109(6) 0.2743(8)
H5 H 0.509622 0.677308 0.303863
H6 H 0.564844 0.731825 0.272810
H7 H 0.507702 0.698404 0.228359
C3 C 0.6594(5) 0.7845(5) 0.8660(6)
H8 H 0.672076 0.759798 0.844851
H9 H 0.623918 0.760869 0.891376
H10 H 0.689105 0.811344 0.897130
C4 C 0.6912(5) 0.8794(5) 0.8057(6)
H11 H 0.719662 0.892660 0.842306
H12 H 0.670343 0.900543 0.807607
H13 H 0.710536 0.886124 0.761714
C5 C 0.6012(4) 0.7903(4) 0.7730(5)
C6 C 0.5575(4) 0.7293(4) 0.7806(5)
H14 H 0.563204 0.705956 0.812125
C7 C 0.5086(4) 0.7064(4) 0.7419(5)
H15 H 0.480514 0.667459 0.749465
C8 C 0.5387(4) 0.7916(4) 0.6818(5)
H16 H 0.532880 0.812034 0.646326
C9 C 0.5893(4) 0.8206(4) 0.7197(5)
H17 H 0.615716 0.859838 0.710867
C10 C 0.4234(9) 0.3496(8) 0.7672(12)
H18 H 0.432042 0.370487 0.810324
H19 H 0.456214 0.345573 0.753531
H20 H 0.389619 0.311528 0.772798
C11 C 0.4635(6) 0.4372(6) 0.6873(13)
H21 H 0.472686 0.431445 0.640817
H22 H 0.496154 0.446677 0.717111
H23 H 0.455081 0.468612 0.687869
C12 C 0.3599(5) 0.3598(5) 0.6794(6)
C13 C 0.3117(5) 0.3037(5) 0.6945(7)
H24 H 0.314780 0.281847 0.730449
C14 C 0.2619(5) 0.2814(4) 0.6583(6)
H25 H 0.231682 0.244400 0.670120
C15 C 0.2972(5) 0.3643(5) 0.5910(5)
H26 H 0.291563 0.385345 0.556168
C16 C 0.3501(5) 0.3902(4) 0.6257(6)
H27 H 0.379281 0.427698 0.613670
C18 C 0.0050(11) 0.1447(11) 0.2607(9)
H32 H 0.044121 0.165191 0.242591
C19 C 0.0429(5) 0.1377(5) 0.4479(6)
H34 H 0.014062 0.100190 0.460343
C20 C 0.0445(6) 0.1588(5) 0.3811(6)
C21 C 0.0869(7) 0.2164(6) 0.3685(6)
H35 H 0.089590 0.233175 0.325186
C22 C 0.1256(6) 0.2491(5) 0.4221(7)
H36 H 0.153634 0.287615 0.412311
C23 C 0.0844(5) 0.1731(5) 0.4949(6)
H37 H 0.084455 0.156930 0.537749
O22 O 0.3064(3) 0.7004(4) 0.7533(3)
O23 O 0.2996(4) 0.6060(2) 0.7533(3)
O24 O 0.3044(3) 0.6986(4) 0.2356(3)
O25 O 0.3014(4) 0.6058(3) 0.2356(3)
Cu4 Cu 0.29219(4) 0.71007(6) 0.33433(5)
Cu5 Cu 0.29664(4) 0.71396(6) 0.65478(5)
Cu6 Cu 0.72590(7) 0.90973(9) 0.55112(8)
Ti3 Ti 0.32889(6) 0.78313(8) 0.49422(7)
Ti4 Ti 0.45676(6) 0.77967(8) 0.49480(7)
S6 S 0.42556(8) 0.84394(11) 0.61370(11)
S7 S 0.58179(8) 0.78645(12) 0.48034(11)
S8 S 0.42400(8) 0.84067(11) 0.37292(11)
O26 O 0.3947(3) 0.7866(4) 0.3324(3)
O27 O 0.2773(2) 0.7284(3) 0.4290(3)
O28 O 0.4512(3) 0.8931(4) 0.3305(3)
O29 O 0.3796(2) 0.8428(3) 0.4188(3)
O30 O 0.4693(2) 0.8386(3) 0.4178(3)
O31 O 0.2770(2) 0.7271(3) 0.5591(3)
O32 O 0.3797(2) 0.7558(3) 0.4945(3)
O33 O 0.3786(2) 0.8423(3) 0.5683(3)
O34 O 0.4703(2) 0.8420(3) 0.5674(3)
O35 O 0.4525(3) 0.8981(4) 0.6518(3)
O36 O 0.4001(3) 0.7924(4) 0.6572(3)
O37 O 0.5995(3) 0.7958(4) 0.4083(3)
O38 O 0.6316(2) 0.8106(4) 0.5257(4)
O39 O 0.5465(2) 0.8153(3) 0.4944(3)
O40 O 0.5447(2) 0.7223(3) 0.4951(3)
N8 N 0.1842(4) 0.8335(6) 0.8144(5)
N9 N 0.2636(3) 0.7612(4) 0.6922(4)
N10 N 0.2501(3) 0.7519(4) 0.3023(4)
H38 H 0.231243 0.756805 0.343538
N12 N 0.6902(4) 0.9434(6) 0.6054(5)
N13 N 0.8764(6) 0.8823(8) 0.3335(7)
N14 N 0.7702(4) 0.8955(6) 0.4843(4)
C24 C 0.2016(5) 0.7176(7) 0.2506(8)
H39 H 0.218203 0.715531 0.207139
H40 H 0.179101 0.736673 0.243956
H41 H 0.176628 0.678765 0.268011
C25 C 0.2891(6) 0.8120(8) 0.2743(8)
H42 H 0.322692 0.832314 0.303863
H43 H 0.268175 0.833019 0.272810
H44 H 0.301596 0.809298 0.228359
C26 C 0.2155(5) 0.8749(7) 0.8660(6)
H45 H 0.240202 0.912278 0.844851
H46 H 0.239131 0.863049 0.891376
H47 H 0.188656 0.877761 0.897130
C27 C 0.1206(5) 0.8118(7) 0.8057(6)
H48 H 0.107340 0.827002 0.842306
H49 H 0.099457 0.769800 0.807607
H50 H 0.113876 0.824412 0.761714
C28 C 0.2097(4) 0.8109(6) 0.7730(5)
C29 C 0.2707(4) 0.8282(6) 0.7806(5)
H51 H 0.294044 0.857248 0.812125
C30 C 0.2936(4) 0.8022(6) 0.7419(5)
H52 H 0.332541 0.813055 0.749465
C31 C 0.2084(4) 0.7471(6) 0.6818(5)
H53 H 0.187966 0.720846 0.646326
C32 C 0.1794(4) 0.7687(6) 0.7197(5)
H54 H 0.140162 0.755878 0.710867
H60 H 0.531388 0.986469 0.687869
C37 C 0.7186(4) 0.9805(6) 0.6583(6)
H62 H 0.755600 0.987282 0.670120
C38 C 0.6357(5) 0.9329(7) 0.5910(5)
H63 H 0.614655 0.906218 0.556168
C39 C 0.6098(4) 0.9599(6) 0.6257(6)
H64 H 0.572302 0.951583 0.613670
C40 C 0.9352(6) 0.8918(10) 0.3518(10)
H65 H 0.949356 0.877857 0.314791
H66 H 0.932645 0.871022 0.393671
H67 H 0.961666 0.932861 0.358658
C41 C 0.8553(11) 0.8603(16) 0.2607(9)
H68 H 0.888264 0.869378 0.231534
H69 H 0.834809 0.878930 0.242591
H70 H 0.829519 0.818764 0.261715
C42 C 0.8623(5) 0.9052(7) 0.4479(6)
H71 H 0.899810 0.913872 0.460343
C43 C 0.8412(5) 0.8857(8) 0.3811(6)
C44 C 0.7836(6) 0.8705(9) 0.3685(6)
H72 H 0.766825 0.856415 0.325186
C45 C 0.7509(5) 0.8765(8) 0.4221(7)
H73 H 0.712385 0.866019 0.412311
C46 C 0.8269(5) 0.9113(7) 0.4949(6)
H74 H 0.843070 0.927525 0.537749
Cu7 Cu 0.28993(6) 0.58212(4) 0.33433(5)
Cu8 Cu 0.28604(6) 0.58268(4) 0.65478(5)
Cu9 Cu 0.09027(9) 0.81617(6) 0.55112(8)
Ti5 Ti 0.21687(8) 0.54576(6) 0.49422(7)
Ti6 Ti 0.22033(8) 0.67709(6) 0.49480(7)
S9 S 0.15606(11) 0.58162(8) 0.61370(11)
S10 S 0.21355(12) 0.79534(9) 0.48034(11)
S11 S 0.15933(11) 0.58333(8) 0.37292(11)
O41 O 0.2134(4) 0.6081(3) 0.3324(3)
O42 O 0.2716(3) 0.5489(2) 0.4290(3)
O43 O 0.1069(4) 0.5581(2) 0.3305(3)
O44 O 0.1572(3) 0.5368(2) 0.4188(3)
O45 O 0.1614(3) 0.6307(2) 0.4178(3)
O46 O 0.2729(3) 0.5499(2) 0.5591(3)
O47 O 0.2442(3) 0.6239(2) 0.4945(3)
O48 O 0.1577(3) 0.5363(2) 0.5683(3)
O49 O 0.1580(3) 0.6283(2) 0.5674(3)
O50 O 0.1019(4) 0.5544(3) 0.6518(3)
O51 O 0.2076(4) 0.6077(3) 0.6572(3)
O52 O 0.2042(4) 0.8037(3) 0.4083(3)
O53 O 0.1894(4) 0.8210(3) 0.5257(4)
O54 O 0.1847(3) 0.7312(2) 0.4944(3)
O55 O 0.2777(3) 0.8224(2) 0.4951(3)
N15 N 0.1665(6) 0.3507(4) 0.8144(5)
N16 N 0.2388(4) 0.5024(3) 0.6922(4)
N17 N 0.2481(4) 0.4982(3) 0.3023(4)
H75 H 0.243195 0.474438 0.343538
N19 N 0.0566(6) 0.7468(4) 0.6054(5)
N20 N 0.1177(8) 0.9941(6) 0.3335(7)
N21 N 0.1045(6) 0.8747(4) 0.4843(4)
C47 C 0.2824(7) 0.4840(5) 0.2506(8)
H76 H 0.284469 0.502672 0.207139
H77 H 0.263327 0.442428 0.243956
H78 H 0.321235 0.497863 0.268011
C48 C 0.1880(8) 0.4771(5) 0.2743(8)
H79 H 0.167686 0.490378 0.303863
H80 H 0.166981 0.435156 0.272810
H81 H 0.190702 0.492298 0.228359
C49 C 0.1251(7) 0.3406(5) 0.8660(6)
H82 H 0.087722 0.327924 0.844851
H83 H 0.136951 0.376082 0.891376
H84 H 0.122239 0.310895 0.897130
C50 C 0.1882(7) 0.3088(5) 0.8057(6)
H85 H 0.172998 0.280338 0.842306
H86 H 0.230200 0.329657 0.807607
H87 H 0.175588 0.289464 0.761714
C51 C 0.1891(6) 0.3988(4) 0.7730(5)
C52 C 0.1718(6) 0.4425(4) 0.7806(5)
H88 H 0.142752 0.436796 0.812125
C53 C 0.1978(6) 0.4914(4) 0.7419(5)
H89 H 0.186945 0.519486 0.749465
C54 C 0.2529(6) 0.4613(4) 0.6818(5)
H90 H 0.279154 0.467120 0.646326
C55 C 0.2313(6) 0.4107(4) 0.7197(5)
H91 H 0.244122 0.384284 0.710867
H97 H 0.013531 0.544919 0.687869
C60 C 0.0195(6) 0.7381(5) 0.6583(6)
H99 H 0.012718 0.768318 0.670120
C61 C 0.0671(7) 0.7028(5) 0.5910(5)
H100 H 0.093782 0.708437 0.556168
C62 C 0.0401(6) 0.6499(5) 0.6257(6)
H101 H 0.048417 0.620719 0.613670
C64 C 0.1397(16) 0.9950(11) 0.2607(9)
H106 H 0.121070 0.955879 0.242591
C65 C 0.0948(7) 0.9571(5) 0.4479(6)
H108 H 0.086128 0.985938 0.460343
C66 C 0.1143(8) 0.9555(6) 0.3811(6)
C67 C 0.1295(9) 0.9131(7) 0.3685(6)
H109 H 0.143585 0.910410 0.325186
C68 C 0.1235(8) 0.8744(6) 0.4221(7)
H110 H 0.133981 0.846366 0.412311
C69 C 0.0887(7) 0.9156(5) 0.4949(6)
H111 H 0.072475 0.915545 0.537749
Cu10 Cu 0.51716(6) 0.94077(7) 0.21779(8)
Cu11 Cu 0.05923(7) 0.57640(9) 0.21779(8)
Cu12 Cu 0.42360(9) 0.48284(6) 0.21779(8)
O56 O 0.1086(2) 0.8821(3) 0.6638(3)
O57 O 0.1179(3) 0.2264(4) 0.6638(3)
O58 O 0.7736(4) 0.8914(2) 0.6638(3)
Cu1_2 Cu 0.08455(4) 0.04114(4) 0.66766(5)
Cu2_2 Cu 0.08399(4) 0.03669(4) 0.98811(5)
Ti1_2 Ti 0.12091(6) 0.00444(6) 0.82755(7)
S5_2 S -0.000000 0.000000 0.54351(18)
O1_2 O -0.000000 0.000000 0.9563(4)
O2_2 O -0.000000 0.000000 0.4678(5)
O3_2 O 0.0609(3) 0.0289(3) 0.5689(3)
O4_2 O -0.000000 0.000000 0.6997(5)
O6_2 O 0.1178(2) 0.0560(2) 0.7623(3)
O10_2 O 0.1168(2) 0.0563(2) 0.8924(3)
N3_2 N 0.1685(3) 0.0832(3) 0.6356(4)
H1_2 H 0.192229 0.102090 0.676871
C1_2 C 0.1827(5) 0.1317(5) 0.5839(8)
H2_2 H 0.163995 0.115130 0.540472
H3_2 H 0.224239 0.154232 0.577289
H4_2 H 0.168804 0.156705 0.601344
C2_2 C 0.1896(5) 0.0442(6) 0.6076(8)
H5_2 H 0.176289 0.010641 0.637196
H6_2 H 0.231511 0.065158 0.606143
H7_2 H 0.174369 0.031737 0.561692
H16_2 H 0.199547 0.145367 0.979659
Cu6_2 Cu 0.39257(7) 0.24306(9) 0.88445(8)
Ti4_2 Ti 0.12343(6) 0.11300(8) 0.82813(7)
S6_2 S 0.09223(8) 0.17727(11) 0.94703(11)
S7_2 S 0.24846(8) 0.11978(12) 0.81367(11)
S8_2 S 0.09067(8) 0.17400(11) 0.70625(11)
O26_2 O 0.0614(3) 0.1199(4) 0.6657(3)
O29_2 O 0.0463(2) 0.1761(3) 0.7521(3)
O30_2 O 0.1360(2) 0.1719(3) 0.7511(3)
O32_2 O 0.0464(2) 0.0891(3) 0.8278(3)
O33_2 O 0.0453(2) 0.1756(3) 0.9016(3)
O34_2 O 0.1370(2) 0.1753(3) 0.9007(3)
O35_2 O 0.1192(3) 0.2314(4) 0.9851(3)
O36_2 O 0.0668(3) 0.1257(4) 0.9905(3)
O37_2 O 0.2662(3) 0.1291(4) 0.7416(3)
O38_2 O 0.2983(2) 0.1439(4) 0.8590(4)
O39_2 O 0.2132(2) 0.1486(3) 0.8277(3)
O40_2 O 0.2114(2) 0.0556(3) 0.8284(3)
N12_2 N 0.3569(4) 0.2767(6) 0.9387(5)
N13_2 N 0.5431(6) 0.2156(8) 0.6668(7)
N14_2 N 0.4369(4) 0.2288(6) 0.8176(4)
H58_2 H 0.235222 0.374574 0.974150
C37_2 C 0.3853(4) 0.3138(6) 0.9916(6)
C38_2 C 0.3024(5) 0.2662(7) 0.9243(5)
H63_2 H 0.281322 0.239551 0.889501
C39_2 C 0.2765(4) 0.2932(6) 0.9590(6)
H64_2 H 0.238969 0.284916 0.947003
C40_2 C 0.6019(6) 0.2251(10) 0.6851(10)
H65_2 H 0.616023 0.211190 0.648124
H66_2 H 0.599312 0.204355 0.727004
H67_2 H 0.628333 0.266194 0.691991
C41_2 C 0.5220(11) 0.1936(16) 0.5940(9)
H68_2 H 0.554931 0.202711 0.564867
H69_2 H 0.501476 0.212263 0.575924
H70_2 H 0.496186 0.152097 0.595048
C42_2 C 0.5290(5) 0.2385(7) 0.7812(6)
H71_2 H 0.566477 0.247205 0.793676
C43_2 C 0.5079(5) 0.2190(8) 0.7144(6)
C44_2 C 0.4503(6) 0.2038(9) 0.7018(6)
H72_2 H 0.433492 0.189748 0.658519
C45_2 C 0.4176(5) 0.2098(8) 0.7554(7)
H73_2 H 0.379052 0.199352 0.745644
C46_2 C 0.4936(5) 0.2446(7) 0.8282(6)
H74_2 H 0.509737 0.260858 0.871082
O58_2 O 0.4402(4) 0.2248(2) 0.9972(3)
S2_2 S 0.08505(8) 0.90777(8) 0.94703(11)
S4_2 S 0.08334(8) 0.90933(8) 0.70625(11)
S5_3 S -0.000000 1.000000 0.54351(18)
O1_3 O -0.000000 1.000000 0.9563(4)
O2_3 O -0.000000 1.000000 0.4678(5)
O4_3 O -0.000000 1.000000 0.6997(5)
O5_2 O 0.0586(3) 0.9386(3) 0.6657(3)
O8_2 O 0.1299(2) 0.9537(2) 0.7521(3)
O9_2 O 0.0360(2) 0.8640(2) 0.7511(3)
O11_2 O 0.0428(2) 0.9536(2) 0.8278(3)
O12_2 O 0.1304(2) 0.9547(2) 0.9016(3)
O13_2 O 0.0384(2) 0.8630(2) 0.9007(3)
O14_2 O 0.1123(3) 0.8808(3) 0.9851(3)
O15_2 O 0.0590(3) 0.9332(3) 0.9905(3)
H21_2 H 0.139353 0.764778 0.974150
C16_2 C 0.0168(5) 0.7235(4) 0.9590(6)
H27_2 H 0.045948 0.761031 0.947003
S5_4 S 1.000000 0.000000 0.54351(18)
O1_4 O 1.000000 0.000000 0.9563(4)
O2_4 O 1.000000 0.000000 0.4678(5)
O4_4 O 1.000000 0.000000 0.6997(5)
O24_2 O 0.9711(3) 0.0319(4) 0.5689(3)
Cu4_2 Cu 0.95886(4) 0.04340(6) 0.66766(5)
Cu5_2 Cu 0.96331(4) 0.04729(6) 0.98811(5)
Ti3_2 Ti 0.99556(6) 0.11646(8) 0.82755(7)
O27_2 O 0.9440(2) 0.0617(3) 0.7623(3)
O31_2 O 0.9437(2) 0.0604(3) 0.8924(3)
N10_2 N 0.9168(3) 0.0852(4) 0.6356(4)
H38_2 H 0.897910 0.090138 0.676871
C24_2 C 0.8683(5) 0.0509(7) 0.5839(8)
H39_2 H 0.884870 0.048864 0.540472
H40_2 H 0.845768 0.070006 0.577289
H41_2 H 0.843295 0.012098 0.601344
C25_2 C 0.9558(6) 0.1453(8) 0.6076(8)
H42_2 H 0.989359 0.165647 0.637196
H43_2 H 0.934842 0.166352 0.606143
H44_2 H 0.968263 0.142631 0.561692
H53_2 H 0.854633 0.054179 0.979659
Cu9_2 Cu 0.75694(9) 0.14950(6) 0.88445(8)
Ti6_2 Ti 0.88700(8) 0.01042(6) 0.82813(7)
S10_2 S 0.88022(12) 0.12867(9) 0.81367(11)
O52_2 O 0.8709(4) 0.1370(3) 0.7416(3)
O53_2 O 0.8561(4) 0.1543(3) 0.8590(4)
O54_2 O 0.8514(3) 0.0645(2) 0.8277(3)
O55_2 O 0.9444(3) 0.1557(2) 0.8284(3)
N19_2 N 0.7233(6) 0.0801(4) 0.9387(5)
N20_2 N 0.7844(8) 0.3274(6) 0.6668(7)
N21_2 N 0.7712(6) 0.2080(4) 0.8176(4)
C60_2 C 0.6862(6) 0.0714(5) 0.9916(6)
C61_2 C 0.7338(7) 0.0361(5) 0.9243(5)
H100_2 H 0.760449 0.041770 0.889501
C63_2 C 0.7749(10) 0.3767(8) 0.6851(10)
H102_2 H 0.788810 0.404832 0.648124
H103_2 H 0.795645 0.394956 0.727004
H104_2 H 0.733806 0.362138 0.691991
C64_2 C 0.8064(16) 0.3283(11) 0.5940(9)
H105_2 H 0.797289 0.352219 0.564867
H106_2 H 0.787737 0.289212 0.575924
H107_2 H 0.847903 0.344088 0.595048
C65_2 C 0.7615(7) 0.2904(5) 0.7812(6)
H108_2 H 0.752795 0.319271 0.793676
C66_2 C 0.7810(8) 0.2888(6) 0.7144(6)
C67_2 C 0.7962(9) 0.2464(7) 0.7018(6)
H109_2 H 0.810252 0.243743 0.658519
C68_2 C 0.7902(8) 0.2077(6) 0.7554(7)
H110_2 H 0.800648 0.179699 0.745644
C69_2 C 0.7554(7) 0.2489(5) 0.8282(6)
H111_2 H 0.739142 0.248878 0.871082
O56_2 O 0.7752(2) 0.2155(3) 0.9972(3)
Cu3_2 Cu 0.85050(6) 0.60743(7) 0.88445(8)
Ti2_2 Ti 0.98958(6) 0.87657(6) 0.82813(7)
S3_2 S 0.87133(9) 0.75154(8) 0.81367(11)
S5_5 S 1.000000 1.000000 0.54351(18)
O1_5 O 1.000000 1.000000 0.9563(4)
O2_5 O 1.000000 1.000000 0.4678(5)
O4_5 O 1.000000 1.000000 0.6997(5)
O18_2 O 0.8630(3) 0.7338(3) 0.7416(3)
O19_2 O 0.8457(3) 0.7017(2) 0.8590(4)
O20_2 O 0.9355(2) 0.7868(2) 0.8277(3)
O21_2 O 0.8443(2) 0.7886(2) 0.8284(3)
N5_2 N 0.9199(4) 0.6431(4) 0.9387(5)
N6_2 N 0.6726(6) 0.4569(6) 0.6668(7)
N7_2 N 0.7920(4) 0.5631(4) 0.8176(4)
C14_2 C 0.9286(5) 0.6147(4) 0.9916(6)
C15_2 C 0.9639(5) 0.6976(5) 0.9243(5)
H26_2 H 0.958230 0.718678 0.889501
C17 C 0.6233(8) 0.3981(6) 0.6851(10)
H28 H 0.595168 0.383977 0.648124
H29 H 0.605044 0.400688 0.727004
H30 H 0.637862 0.371667 0.691991
C18_2 C 0.6717(11) 0.4780(11) 0.5940(9)
H31 H 0.647781 0.445069 0.564867
H32_2 H 0.710788 0.498524 0.575924
H33 H 0.655912 0.503814 0.595048
C19_2 C 0.7096(5) 0.4710(5) 0.7812(6)
H34_2 H 0.680729 0.433523 0.793676
C20_2 C 0.7112(6) 0.4921(5) 0.7144(6)
C21_2 C 0.7536(7) 0.5497(6) 0.7018(6)
H35_2 H 0.756257 0.566508 0.658519
C22_2 C 0.7923(6) 0.5824(5) 0.7554(7)
H36_2 H 0.820301 0.620948 0.745644
C23_2 C 0.7511(5) 0.5064(5) 0.8282(6)
H37_2 H 0.751122 0.490263 0.871082
O25_2 O 0.9681(4) 0.9391(3) 0.5689(3)
Cu7_2 Cu 0.95660(6) 0.91545(4) 0.66766(5)
Cu8_2 Cu 0.95271(6) 0.91601(4) 0.98811(5)
Ti5_2 Ti 0.88354(8) 0.87909(6) 0.82755(7)
S9_2 S 0.82273(11) 0.91495(8) 0.94703(11)
S11_2 S 0.82600(11) 0.91666(8) 0.70625(11)
O41_2 O 0.8801(4) 0.9414(3) 0.6657(3)
O42_2 O 0.9383(3) 0.8822(2) 0.7623(3)
O44_2 O 0.8239(3) 0.8701(2) 0.7521(3)
O45_2 O 0.8281(3) 0.9640(2) 0.7511(3)
O46_2 O 0.9396(3) 0.8832(2) 0.8924(3)
O47_2 O 0.9109(3) 0.9572(2) 0.8278(3)
O48_2 O 0.8244(3) 0.8696(2) 0.9016(3)
O49_2 O 0.8247(3) 0.9616(2) 0.9007(3)
O50_2 O 0.7686(4) 0.8877(3) 0.9851(3)
O51_2 O 0.8743(4) 0.9410(3) 0.9905(3)
N17_2 N 0.9148(4) 0.8315(3) 0.6356(4)
H75_2 H 0.909862 0.807771 0.676871
C47_2 C 0.9491(7) 0.8173(5) 0.5839(8)
H76_2 H 0.951136 0.836005 0.540472
H77_2 H 0.929994 0.775761 0.577289
H78_2 H 0.987902 0.831196 0.601344
C48_2 C 0.8547(8) 0.8104(5) 0.6076(8)
H79_2 H 0.834353 0.823711 0.637196
H80_2 H 0.833648 0.768489 0.606143
H81_2 H 0.857369 0.825631 0.561692
H90_2 H 0.945821 0.800453 0.979659
H95 H 0.625426 0.860647 0.974150
C62_2 C 0.7068(6) 0.9832(5) 0.9590(6)
H101_2 H 0.715084 0.954052 0.947003
O57_2 O 0.7845(3) 0.5598(4) 0.9972(3)
H8_2 H 0.005409 0.426465 0.511518
H10_2 H 0.022438 0.478011 0.563797
C4_2 C 0.0245(5) 0.5461(5) 0.4724(6)
H11_2 H 0.052995 0.559327 0.508973
H12_2 H 0.003676 0.567210 0.474274
H13_2 H 0.043869 0.552791 0.428381
N12_3 N 0.0235(4) 0.6101(6) 0.2721(5)
N13_3 N 0.2097(6) 0.5490(8) 0.0002(7)
N14_3 N 0.1035(4) 0.5622(6) 0.1510(4)
H57_2 H 0.021805 0.744758 0.439465
C36_2 C 0.0296(5) 0.6747(7) 0.3612(7)
H61_2 H 0.051486 0.699600 0.397116
C37_3 C 0.0519(4) 0.6472(6) 0.3250(6)
H62_2 H 0.088933 0.653949 0.336787
C40_3 C 0.2685(6) 0.5585(10) 0.0185(10)
H66_3 H 0.265978 0.537689 0.060338
H67_3 H 0.294999 0.599528 0.025325
C42_3 C 0.1956(5) 0.5719(7) 0.1146(6)
H71_3 H 0.233143 0.580539 0.127010
C43_3 C 0.1745(5) 0.5524(8) 0.0478(6)
C44_3 C 0.1169(6) 0.5372(9) 0.0352(6)
C45_3 C 0.0842(5) 0.5432(8) 0.0888(7)
H73_3 H 0.045718 0.532686 0.078978
C46_3 C 0.1602(5) 0.5780(7) 0.1616(6)
H74_3 H 0.176403 0.594192 0.204416
Cu1_3 Cu 0.75121(4) 0.37448(4) 0.00100(5)
Cu2_3 Cu 0.75065(4) 0.37003(4) 0.32145(5)
Ti1_3 Ti 0.78757(6) 0.33778(6) 0.16089(7)
Ti2_3 Ti 0.65624(6) 0.20991(6) 0.16147(7)
S1_2 S 0.666666 0.333334 0.44676(18)
S2_3 S 0.75171(8) 0.24111(8) 0.28037(11)
S3_3 S 0.53799(9) 0.08488(8) 0.14701(11)
S4_3 S 0.75000(8) 0.24267(8) 0.03959(11)
O1_6 O 0.666666 0.333334 0.2897(4)
O4_6 O 0.666666 0.333334 0.0331(5)
O6_3 O 0.7844(2) 0.3894(2) 0.0957(3)
O8_3 O 0.7965(2) 0.2871(2) 0.0855(3)
O9_3 O 0.7026(2) 0.1974(2) 0.0845(3)
O10_3 O 0.7834(2) 0.3897(2) 0.2258(3)
O11_3 O 0.7094(2) 0.2870(2) 0.1612(3)
O12_3 O 0.7970(2) 0.2881(2) 0.2350(3)
O13_3 O 0.7050(2) 0.1964(2) 0.2341(3)
O14_3 O 0.7789(3) 0.2142(3) 0.3185(3)
O15_3 O 0.7256(3) 0.2666(3) 0.3239(3)
O16_2 O 0.7273(2) 0.3603(3) 0.4200(3)
O17_2 O 0.666666 0.333334 0.5194(6)
O18_3 O 0.5296(3) 0.0672(3) 0.0750(3)
O19_3 O 0.5123(3) 0.0351(2) 0.1924(4)
O20_3 O 0.6021(2) 0.1202(2) 0.1611(3)
O21_3 O 0.5109(2) 0.1220(2) 0.1618(3)
N1_2 N 0.9826(4) 0.4825(4) 0.4811(5)
N2_2 N 0.8309(3) 0.4031(3) 0.3589(4)
H1_3 H 0.858895 0.435424 0.010205
N4_2 N 0.7449(5) 0.0494(4) 0.3789(6)
C3_2 C 0.9927(5) 0.4512(5) 0.5327(6)
H9_2 H 0.957251 0.427536 0.558043
C5_2 C 0.9345(4) 0.4570(4) 0.4397(5)
C6_2 C 0.8908(4) 0.3960(4) 0.4473(5)
H14_2 H 0.896537 0.372623 0.478792
C7_2 C 0.8419(4) 0.3731(4) 0.4086(5)
H15_2 H 0.813847 0.334126 0.416132
C8_2 C 0.8720(4) 0.4583(4) 0.3485(5)
H16_3 H 0.866213 0.478701 0.312993
C9_2 C 0.9226(4) 0.4873(4) 0.3864(5)
H17_2 H 0.949049 0.526505 0.377534
C10_2 C 0.7567(9) 0.0163(8) 0.4339(12)
H18_2 H 0.765375 0.037154 0.476991
H19_2 H 0.789547 0.012240 0.420198
C11_2 C 0.7968(6) 0.1039(6) 0.3540(13)
H21_3 H 0.806019 0.098112 0.307484
H22_2 H 0.829487 0.113344 0.383778
H23_2 H 0.788414 0.135279 0.354536
C12_2 C 0.6932(5) 0.0265(5) 0.3461(6)
C15_3 C 0.6305(5) 0.0310(5) 0.2577(5)
H26_3 H 0.624896 0.052012 0.222835
C16_3 C 0.6834(5) 0.0569(4) 0.2924(6)
H27_3 H 0.712614 0.094365 0.280337
O22_2 O 0.6397(3) 0.3671(4) 0.4200(3)
O23_2 O 0.6329(4) 0.2727(2) 0.4200(3)
Cu4_3 Cu 0.62552(4) 0.37674(6) 0.00100(5)
Cu5_3 Cu 0.62997(4) 0.38063(6) 0.32145(5)
Ti3_3 Ti 0.66222(6) 0.44980(8) 0.16089(7)
Ti4_3 Ti 0.79009(6) 0.44634(8) 0.16147(7)
S6_3 S 0.75889(8) 0.51061(11) 0.28037(11)
S7_3 S 0.91512(8) 0.45312(12) 0.14701(11)
S8_3 S 0.75733(8) 0.50734(11) 0.03959(11)
O27_3 O 0.6106(2) 0.3951(3) 0.0957(3)
O29_3 O 0.7129(2) 0.5095(3) 0.0855(3)
O30_3 O 0.8026(2) 0.5053(3) 0.0845(3)
O31_3 O 0.6103(2) 0.3938(3) 0.2258(3)
O32_3 O 0.7130(2) 0.4225(3) 0.1612(3)
O33_3 O 0.7119(2) 0.5090(3) 0.2350(3)
O34_3 O 0.8036(2) 0.5087(3) 0.2341(3)
O35_3 O 0.7858(3) 0.5648(4) 0.3185(3)
O36_3 O 0.7334(3) 0.4591(4) 0.3239(3)
O37_3 O 0.9328(3) 0.4625(4) 0.0750(3)
O38_3 O 0.9649(2) 0.4773(4) 0.1924(4)
O39_3 O 0.8798(2) 0.4820(3) 0.1611(3)
O40_3 O 0.8780(2) 0.3890(3) 0.1618(3)
N8_2 N 0.5175(4) 0.5002(6) 0.4811(5)
N9_2 N 0.5969(3) 0.4279(4) 0.3589(4)
H38_3 H 0.564576 0.423472 0.010205
N11_2 N 0.9506(4) 0.6956(6) 0.3789(6)
C26_2 C 0.5488(5) 0.5416(7) 0.5327(6)
H45_2 H 0.573535 0.578945 0.511518
H46_2 H 0.572464 0.529716 0.558043
H47_2 H 0.521989 0.544428 0.563797
C27_2 C 0.4539(5) 0.4785(7) 0.4724(6)
H48_2 H 0.440673 0.493669 0.508973
H49_2 H 0.432790 0.436467 0.474274
H50_2 H 0.447209 0.491079 0.428381
C28_2 C 0.5430(4) 0.4776(6) 0.4397(5)
C29_2 C 0.6040(4) 0.4949(6) 0.4473(5)
H51_2 H 0.627377 0.523915 0.478792
C30_2 C 0.6269(4) 0.4689(6) 0.4086(5)
H52_2 H 0.665874 0.479722 0.416132
C31_2 C 0.5417(4) 0.4138(6) 0.3485(5)
H53_3 H 0.521299 0.387513 0.312993
C32_2 C 0.5127(4) 0.4354(6) 0.3864(5)
H54_2 H 0.473495 0.422545 0.377534
C33_2 C 0.9837(8) 0.7405(12) 0.4339(12)
H55_2 H 0.962846 0.728222 0.476991
H56_2 H 0.987760 0.777308 0.420198
C34_2 C 0.8961(6) 0.6930(8) 0.3540(13)
H58_3 H 0.901888 0.707908 0.307484
H59_2 H 0.886656 0.716144 0.383778
H60_2 H 0.864721 0.653136 0.354536
C35_2 C 0.9735(5) 0.6668(7) 0.3461(6)
C38_3 C 0.9690(5) 0.5996(7) 0.2577(5)
H63_3 H 0.947988 0.572885 0.222835
C39_3 C 0.9431(4) 0.6266(6) 0.2924(6)
H64_3 H 0.905635 0.618250 0.280337
Cu7_3 Cu 0.62326(6) 0.24879(4) 0.00100(5)
Cu8_3 Cu 0.61937(6) 0.24935(4) 0.32145(5)
Ti5_3 Ti 0.55020(8) 0.21243(6) 0.16089(7)
Ti6_3 Ti 0.55366(8) 0.34376(6) 0.16147(7)
S9_3 S 0.48939(11) 0.24829(8) 0.28037(11)
S10_3 S 0.54688(12) 0.46201(9) 0.14701(11)
S11_3 S 0.49266(11) 0.25000(8) 0.03959(11)
O42_3 O 0.6049(3) 0.2156(2) 0.0957(3)
O44_3 O 0.4905(3) 0.2035(2) 0.0855(3)
O45_3 O 0.4947(3) 0.2974(2) 0.0845(3)
O46_3 O 0.6062(3) 0.2166(2) 0.2258(3)
O47_3 O 0.5775(3) 0.2906(2) 0.1612(3)
O48_3 O 0.4910(3) 0.2030(2) 0.2350(3)
O49_3 O 0.4913(3) 0.2950(2) 0.2341(3)
O50_3 O 0.4352(4) 0.2211(3) 0.3185(3)
O51_3 O 0.5409(4) 0.2744(3) 0.3239(3)
O52_3 O 0.5375(4) 0.4704(3) 0.0750(3)
O53_3 O 0.5227(4) 0.4877(3) 0.1924(4)
O54_3 O 0.5180(3) 0.3979(2) 0.1611(3)
O55_3 O 0.6110(3) 0.4891(2) 0.1618(3)
N15_2 N 0.4998(6) 0.0174(4) 0.4811(5)
N16_2 N 0.5721(4) 0.1691(3) 0.3589(4)
H75_3 H 0.576528 0.141105 0.010205
N18 N 0.3044(6) 0.2551(5) 0.3789(6)
N19_3 N 0.3899(6) 0.4135(4) 0.2721(5)
N20_3 N 0.4510(8) 0.6608(6) 0.0002(7)
N21_3 N 0.4378(6) 0.5414(4) 0.1510(4)
C49_2 C 0.4584(7) 0.0073(5) 0.5327(6)
H83_2 H 0.470284 0.042749 0.558043
C51_2 C 0.5224(6) 0.0655(4) 0.4397(5)
C52_2 C 0.5051(6) 0.1092(4) 0.4473(5)
H88_2 H 0.476085 0.103463 0.478792
C53_2 C 0.5311(6) 0.1581(4) 0.4086(5)
H89_2 H 0.520278 0.186153 0.416132
C54_2 C 0.5862(6) 0.1280(4) 0.3485(5)
H90_3 H 0.612487 0.133787 0.312993
C55_2 C 0.5646(6) 0.0774(4) 0.3864(5)
H91_2 H 0.577455 0.050951 0.377534
C56 C 0.2595(12) 0.2433(9) 0.4339(12)
H92 H 0.271778 0.234625 0.476991
H93 H 0.222692 0.210453 0.420198
H94 H 0.255242 0.277048 0.439465
C57 C 0.3070(8) 0.2032(6) 0.3540(13)
H95_2 H 0.292092 0.193981 0.307484
H96 H 0.283856 0.170513 0.383778
H97_2 H 0.346864 0.211586 0.354536
C58 C 0.3332(7) 0.3068(5) 0.3461(6)
C59 C 0.3253(7) 0.3550(5) 0.3612(7)
H98 H 0.300400 0.351887 0.397116
C60_3 C 0.3528(6) 0.4048(5) 0.3250(6)
H99_2 H 0.346051 0.434985 0.336787
C61_3 C 0.4004(7) 0.3695(5) 0.2577(5)
H100_3 H 0.427115 0.375104 0.222835
C62_3 C 0.3734(6) 0.3166(5) 0.2924(6)
H101_3 H 0.381750 0.287386 0.280337
C63_3 C 0.4415(10) 0.7101(8) 0.0185(10)
H103_3 H 0.462311 0.728290 0.060338
H104_3 H 0.400472 0.695472 0.025325
C65_3 C 0.4281(7) 0.6238(5) 0.1146(6)
H108_3 H 0.419461 0.652605 0.127010
C66_3 C 0.4476(8) 0.6222(6) 0.0478(6)
C67_3 C 0.4628(9) 0.5798(7) 0.0352(6)
C68_3 C 0.4568(8) 0.5411(6) 0.0888(7)
H110_3 H 0.467314 0.513033 0.078978
C69_3 C 0.4220(7) 0.5823(5) 0.1616(6)
H111_3 H 0.405808 0.582212 0.204416
S5_6 S 0.666666 0.333334 0.87685(18)
O2_6 O 0.666666 0.333334 0.8012(5)
O3_3 O 0.7275(3) 0.3623(3) 0.9023(3)
O5_3 O 0.7252(3) 0.2720(3) 0.9991(3)
N3_3 N 0.8351(3) 0.4166(3) 0.9690(4)
C1_3 C 0.8493(5) 0.4651(5) 0.9173(8)
H2_3 H 0.830661 0.448464 0.873806
H3_3 H 0.890905 0.487566 0.910623
H4_3 H 0.835470 0.490039 0.934678
C2_3 C 0.8562(5) 0.3776(6) 0.9410(8)
H5_3 H 0.842955 0.343975 0.970530
H6_3 H 0.898177 0.398492 0.939477
H7_3 H 0.841035 0.365071 0.895026
O24_3 O 0.6377(3) 0.3653(4) 0.9023(3)
O25_3 O 0.6347(4) 0.2725(3) 0.9023(3)
O26_3 O 0.7280(3) 0.4533(4) 0.9991(3)
N10_3 N 0.5834(3) 0.4186(4) 0.9690(4)
C24_3 C 0.5349(5) 0.3843(7) 0.9173(8)
H39_3 H 0.551536 0.382198 0.873806
H40_3 H 0.512434 0.403340 0.910623
H41_3 H 0.509961 0.345432 0.934678
C25_3 C 0.6224(6) 0.4787(8) 0.9410(8)
H42_3 H 0.656025 0.498981 0.970530
H43_3 H 0.601508 0.499686 0.939477
H44_3 H 0.634929 0.475965 0.895026
O41_3 O 0.5467(4) 0.2748(3) 0.9991(3)
N17_3 N 0.5814(4) 0.1649(3) 0.9690(4)
C47_3 C 0.6157(7) 0.1507(5) 0.9173(8)
H76_3 H 0.617802 0.169339 0.873806
H77_3 H 0.596660 0.109095 0.910623
H78_3 H 0.654568 0.164530 0.934678
C48_3 C 0.5213(8) 0.1438(5) 0.9410(8)
H79_3 H 0.501019 0.157045 0.970530
H80_3 H 0.500314 0.101823 0.939477
H81_3 H 0.524035 0.158965 0.895026
H102_3 H 0.455476 0.738166 0.981458
C64_3 C 0.4730(16) 0.6617(11) 0.9274(9)
H105_3 H 0.463955 0.685553 0.898201
H106_3 H 0.454403 0.622546 0.909258
H107_3 H 0.514569 0.677422 0.928382
H109_3 H 0.476918 0.577077 0.991853
N5_3 N 0.5865(4) 0.9765(4) 0.2721(5)
N6_3 N 0.3392(6) 0.7903(6) 0.0002(7)
N7_3 N 0.4586(4) 0.8965(4) 0.1510(4)
H20_2 H 0.722952 0.978195 0.439465
C13_2 C 0.6450(5) 0.9704(5) 0.3612(7)
H24_2 H 0.648113 0.948514 0.397116
C14_3 C 0.5952(5) 0.9481(4) 0.3250(6)
H25_2 H 0.565015 0.911067 0.336787
C17_2 C 0.2899(8) 0.7315(6) 0.0185(10)
H29_2 H 0.271710 0.734022 0.060338
H30_2 H 0.304528 0.705001 0.025325
C19_3 C 0.3762(5) 0.8044(5) 0.1146(6)
H34_3 H 0.347395 0.766857 0.127010
C20_3 C 0.3778(6) 0.8255(5) 0.0478(6)
C21_3 C 0.4202(7) 0.8831(6) 0.0352(6)
C22_3 C 0.4589(6) 0.9158(5) 0.0888(7)
H36_3 H 0.486967 0.954282 0.078978
C23_3 C 0.4177(5) 0.8398(5) 0.1616(6)
H37_3 H 0.417788 0.823597 0.204416
H82_2 H 0.421055 0.994591 0.511518
H84_2 H 0.455572 0.977562 0.563797
C50_2 C 0.5215(7) 0.9755(5) 0.4724(6)
H85_2 H 0.506331 0.947005 0.508973
H86_2 H 0.563533 0.996324 0.474274
H87_2 H 0.508921 0.956131 0.428381
C17_3 C 0.9566(8) 0.0648(6) 0.3518(10)
H28_2 H 0.928501 0.050644 0.314791
H29_3 H 0.938377 0.067355 0.393671
H30_3 H 0.971195 0.038334 0.358658
H31_2 H 0.981114 0.111736 0.231534
H33_2 H 0.989245 0.170481 0.261715
N18_2 N 0.9711(6) 0.5884(5) 0.7122(6)
C56_2 C 0.9262(12) 0.5766(9) 0.7672(12)
H92_2 H 0.938445 0.567958 0.810324
H93_2 H 0.889359 0.543786 0.753531
H94_2 H 0.921909 0.610381 0.772798
C57_2 C 0.9737(8) 0.5365(6) 0.6873(13)
H95_3 H 0.958759 0.527314 0.640817
H96_2 H 0.950523 0.503846 0.717111
C58_2 C 0.9999(7) 0.6401(5) 0.6794(6)
C59_2 C 0.9920(7) 0.6883(5) 0.6945(7)
H98_2 H 0.967067 0.685220 0.730449
S1_3 S -0.000000 0.000000 0.11342(18)
O16_3 O 0.0607(2) 0.0269(3) 0.0866(3)
O17_3 O -0.000000 0.000000 0.1860(6)
N1_3 N 0.3160(4) 0.1491(4) 0.1477(5)
N2_3 N 0.1643(3) 0.0697(3) 0.0255(4)
C3_3 C 0.3261(5) 0.1178(5) 0.1993(6)
H8_3 H 0.338743 0.093131 0.178184
H9_3 H 0.290585 0.094202 0.224709
H10_3 H 0.355772 0.144677 0.230463
C4_3 C 0.3579(5) 0.2127(5) 0.1390(6)
H11_3 H 0.386329 0.225993 0.175639
H12_3 H 0.337010 0.233876 0.140940
H13_3 H 0.377203 0.219457 0.095047
C5_3 C 0.2679(4) 0.1236(4) 0.1063(5)
C6_3 C 0.2242(4) 0.0626(4) 0.1139(5)
H14_3 H 0.229871 0.039289 0.145458
C7_3 C 0.1753(4) 0.0397(4) 0.0752(5)
H15_3 H 0.147181 0.000792 0.082798
C8_3 C 0.2054(4) 0.1249(4) 0.0151(5)
C9_3 C 0.2560(4) 0.1539(4) 0.0530(5)
H17_3 H 0.282383 0.193171 0.044200
N11_3 N 0.2840(4) 0.3622(6) 0.0455(6)
C33_3 C 0.3171(8) 0.4071(12) 0.1005(12)
H55_3 H 0.296180 0.394888 0.143657
H56_3 H 0.321094 0.443974 0.086864
H57_3 H 0.355139 0.411424 0.106131
C34_3 C 0.2295(6) 0.3596(8) 0.0206(13)
H59_3 H 0.219990 0.382810 0.050444
H60_3 H 0.198055 0.319802 0.021202
C35_3 C 0.3069(5) 0.3334(7) 0.0127(6)
C36_3 C 0.3630(5) 0.3413(7) 0.0278(7)
H61_3 H 0.384820 0.366266 0.063782
H62_3 H 0.422267 0.320615 0.003453
S1_4 S -0.000000 1.000000 0.11342(18)
O17_4 O -0.000000 1.000000 0.1860(6)
N4_3 N 0.0783(5) 0.7160(4) 0.0455(6)
C10_3 C 0.0901(9) 0.6829(8) 0.1005(12)
H18_3 H 0.098709 0.703820 0.143657
H19_3 H 0.122881 0.678906 0.086864
H20_3 H 0.056286 0.644861 0.106131
C11_3 C 0.1302(6) 0.7705(6) 0.0206(13)
H22_3 H 0.162821 0.780010 0.050444
H23_3 H 0.121748 0.801945 0.021202
C12_3 C 0.0266(5) 0.6931(5) 0.0127(6)
S1_5 S 1.000000 0.000000 0.11342(18)
O17_5 O 1.000000 0.000000 0.1860(6)
O22_3 O 0.9731(3) 0.0337(4) 0.0866(3)
N8_3 N 0.8509(4) 0.1668(6) 0.1477(5)
N9_3 N 0.9303(3) 0.0945(4) 0.0255(4)
C26_3 C 0.8822(5) 0.2082(7) 0.1993(6)
H45_3 H 0.906869 0.245611 0.178184
H46_3 H 0.905798 0.196382 0.224709
H47_3 H 0.855323 0.211094 0.230463
C27_3 C 0.7873(5) 0.1451(7) 0.1390(6)
H48_3 H 0.774007 0.160335 0.175639
H49_3 H 0.766124 0.103133 0.140940
H50_3 H 0.780543 0.157745 0.095047
C28_3 C 0.8764(4) 0.1442(6) 0.1063(5)
C29_3 C 0.9374(4) 0.1615(6) 0.1139(5)
H51_3 H 0.960711 0.190581 0.145458
C30_3 C 0.9603(4) 0.1355(6) 0.0752(5)
H52_3 H 0.999208 0.146388 0.082798
C31_3 C 0.8751(4) 0.0804(6) 0.0151(5)
C32_3 C 0.8461(4) 0.1020(6) 0.0530(5)
H54_3 H 0.806829 0.089211 0.044200
C59_3 C 0.6587(7) 0.0216(5) 0.0278(7)
H98_3 H 0.633734 0.018553 0.063782
H99_3 H 0.679385 0.101651 0.003453
S1_6 S 1.000000 1.000000 0.11342(18)
O17_6 O 1.000000 1.000000 0.1860(6)
C13_3 C 0.9784(5) 0.6370(5) 0.0278(7)
H24_3 H 0.981447 0.615180 0.063782
H25_3 H 0.898349 0.577733 0.003453
O23_3 O 0.9663(4) 0.9393(2) 0.0866(3)
N15_3 N 0.8332(6) 0.6840(4) 0.1477(5)
N16_3 N 0.9055(4) 0.8357(3) 0.0255(4)
N18_3 N 0.6378(6) 0.9217(5) 0.0455(6)
C49_3 C 0.7918(7) 0.6739(5) 0.1993(6)
H82_3 H 0.754389 0.661257 0.178184
H83_3 H 0.803618 0.709415 0.224709
H84_3 H 0.788906 0.644228 0.230463
C50_3 C 0.8549(7) 0.6421(5) 0.1390(6)
H85_3 H 0.839665 0.613671 0.175639
H86_3 H 0.896867 0.662990 0.140940
H87_3 H 0.842255 0.622797 0.095047
C51_3 C 0.8558(6) 0.7321(4) 0.1063(5)
C52_3 C 0.8385(6) 0.7758(4) 0.1139(5)
H88_3 H 0.809419 0.770129 0.145458
C53_3 C 0.8645(6) 0.8247(4) 0.0752(5)
H89_3 H 0.853612 0.852819 0.082798
C54_3 C 0.9196(6) 0.7946(4) 0.0151(5)
C55_3 C 0.8980(6) 0.7440(4) 0.0530(5)
H91_3 H 0.910789 0.717617 0.044200
C56_3 C 0.5929(12) 0.9099(9) 0.1005(12)
H92_3 H 0.605112 0.901291 0.143657
H93_3 H 0.556026 0.877119 0.086864
H94_3 H 0.588576 0.943714 0.106131
C57_3 C 0.6404(8) 0.8698(6) 0.0206(13)
H96_3 H 0.617190 0.837179 0.050444
H97_3 H 0.680198 0.878252 0.021202
C58_3 C 0.6666(7) 0.9734(5) 0.0127(6)
H65_3 H 0.282689 0.544524 0.981458
C41_3 C 0.1886(11) 0.5270(16) 0.9274(9)
H68_3 H 0.221597 0.536045 0.898201
H69_3 H 0.168142 0.545597 0.909258
H70_3 H 0.162852 0.485431 0.928382
H72_3 H 0.100158 0.523082 0.991853
H28_3 H 0.261834 0.717311 0.981458
C18_3 C 0.3383(11) 0.8114(11) 0.9274(9)
H31_3 H 0.314447 0.778403 0.898201
H32_3 H 0.377454 0.831858 0.909258
H33_3 H 0.322578 0.837148 0.928382
H35_3 H 0.422923 0.899842 0.991853
loop_
_geom_bond_atom_site_label_1
_geom_bond_atom_site_label_2
_geom_bond_site_symmetry_1
_geom_bond_site_symmetry_2
N11 C33 1_555 1_555
C33 H55 1_555 1_555
H56 C33 1_555 1_555
H57 C33 1_555 1_555
C34 N11 1_555 1_555
H58 C34 1_555 1_555
H59 C34 1_555 1_555
C35 N11 1_555 1_555
C36 C35 1_555 1_555
H61 C36 1_555 1_555
C63 H102 1_555 1_555
H103 C63 1_555 1_555
H104 C63 1_555 1_555
Cu1 O3 1_555 1_555
Cu2 O1 1_555 1_555
Cu3 O19 1_555 1_555
Ti1 O6 1_555 1_555
Ti2 O9 1_555 1_555
S1 O16 1_555 1_555
S2 O12 1_555 1_555
S3 O18 1_555 1_555
S4 O5 1_555 1_555
S5 O2 1_555 1_555
O1 Cu5 1_555 1_555
O3 S5 1_555 1_555
O4 Cu1 1_555 1_555
O5 Cu1 1_555 1_555
O6 Cu1 1_555 1_555
O7 S4 1_555 1_555
O8 Ti1 1_555 1_555
O9 S4 1_555 1_555
O10 Cu2 1_555 1_555
O11 Ti1 1_555 1_555
O12 Ti1 1_555 1_555
O13 Ti2 1_555 1_555
O14 S2 1_555 1_555
O15 Cu2 1_555 1_555
O16 Cu2 1_555 1_555
O17 S1 1_555 1_555
O19 S3 1_555 1_555
O20 Ti2 1_555 1_555
O21 S3 1_555 1_555
N1 C3 1_555 1_555
N2 Cu2 1_555 1_555
N3 Cu1 1_555 1_555
H1 N3 1_555 1_555
N4 C10 1_555 1_555
N5 Cu3 1_555 1_555
N7 Cu3 1_555 1_555
C1 N3 1_555 1_555
H2 C1 1_555 1_555
H3 C1 1_555 1_555
H4 C1 1_555 1_555
C2 N3 1_555 1_555
H5 C2 1_555 1_555
H6 C2 1_555 1_555
H7 C2 1_555 1_555
C3 H8 1_555 1_555
H9 C3 1_555 1_555
H10 C3 1_555 1_555
C4 N1 1_555 1_555
H11 C4 1_555 1_555
H12 C4 1_555 1_555
H13 C4 1_555 1_555
C5 N1 1_555 1_555
C6 C5 1_555 1_555
H14 C6 1_555 1_555
C7 N2 1_555 1_555
H15 C7 1_555 1_555
C8 N2 1_555 1_555
H16 C8 1_555 1_555
C9 C5 1_555 1_555
H17 C9 1_555 1_555
C10 H18 1_555 1_555
H19 C10 1_555 1_555
H20 C10 1_555 1_555
C11 N4 1_555 1_555
H21 C11 1_555 1_555
H22 C11 1_555 1_555
H23 C11 1_555 1_555
C12 N4 1_555 1_555
C13 C12 1_555 1_555
H24 C13 1_555 1_555
C14 N5 1_555 1_555
H25 C14 1_555 1_555
C15 N5 1_555 1_555
H26 C15 1_555 1_555
C16 C12 1_555 1_555
H27 C16 1_555 1_555
C18 N6 1_555 1_555
H32 C18 1_555 1_555
C19 H34 1_555 1_555
C20 N6 1_555 1_555
C21 C20 1_555 1_555
H35 C21 1_555 1_555
C22 N7 1_555 1_555
H36 C22 1_555 1_555
C23 N7 1_555 1_555
H37 C23 1_555 1_555
O22 S1 1_555 1_555
O23 S1 1_555 1_555
O24 S5 1_555 1_555
O25 S5 1_555 1_555
Cu4 O4 1_555 1_555
Cu5 O22 1_555 1_555
Cu6 O38 1_555 1_555
Ti3 O27 1_555 1_555
Ti4 O6 1_555 1_555
S6 O33 1_555 1_555
S7 O37 1_555 1_555
S8 O26 1_555 1_555
O26 Cu1 1_555 1_555
O27 Cu4 1_555 1_555
O28 S8 1_555 1_555
O29 Ti3 1_555 1_555
O30 Ti4 1_555 1_555
O31 Cu5 1_555 1_555
O32 Ti3 1_555 1_555
O33 Ti3 1_555 1_555
O34 Ti4 1_555 1_555
O35 S6 1_555 1_555
O36 Cu2 1_555 1_555
O38 S7 1_555 1_555
O39 Ti4 1_555 1_555
O40 Ti1 1_555 1_555
N8 C26 1_555 1_555
N9 Cu5 1_555 1_555
N10 Cu4 1_555 1_555
H38 N10 1_555 1_555
N12 Cu6 1_555 1_555
N13 C40 1_555 1_555
N14 Cu6 1_555 1_555
C24 N10 1_555 1_555
H39 C24 1_555 1_555
H40 C24 1_555 1_555
H41 C24 1_555 1_555
C25 N10 1_555 1_555
H42 C25 1_555 1_555
H43 C25 1_555 1_555
H44 C25 1_555 1_555
C26 H45 1_555 1_555
H46 C26 1_555 1_555
H47 C26 1_555 1_555
C27 N8 1_555 1_555
H48 C27 1_555 1_555
H49 C27 1_555 1_555
H50 C27 1_555 1_555
C28 N8 1_555 1_555
C29 C28 1_555 1_555
H51 C29 1_555 1_555
C30 N9 1_555 1_555
H52 C30 1_555 1_555
C31 N9 1_555 1_555
H53 C31 1_555 1_555
C32 C28 1_555 1_555
H54 C32 1_555 1_555
C37 N12 1_555 1_555
H62 C37 1_555 1_555
C38 N12 1_555 1_555
H63 C38 1_555 1_555
H64 C39 1_555 1_555
C40 H65 1_555 1_555
H66 C40 1_555 1_555
H67 C40 1_555 1_555
C41 N13 1_555 1_555
H68 C41 1_555 1_555
H69 C41 1_555 1_555
H70 C41 1_555 1_555
C42 H71 1_555 1_555
C43 N13 1_555 1_555
C44 C43 1_555 1_555
H72 C44 1_555 1_555
C45 N14 1_555 1_555
H73 C45 1_555 1_555
C46 N14 1_555 1_555
H74 C46 1_555 1_555
Cu7 O4 1_555 1_555
Cu8 O1 1_555 1_555
Cu9 O53 1_555 1_555
Ti5 O21 1_555 1_555
Ti6 O27 1_555 1_555
S9 O48 1_555 1_555
S10 O52 1_555 1_555
S11 O41 1_555 1_555
O41 Cu4 1_555 1_555
O42 Ti2 1_555 1_555
O43 S11 1_555 1_555
O44 Ti5 1_555 1_555
O45 Ti6 1_555 1_555
O46 Ti2 1_555 1_555
O47 Ti5 1_555 1_555
O48 Ti5 1_555 1_555
O49 Ti6 1_555 1_555
O50 S9 1_555 1_555
O51 Cu5 1_555 1_555
O53 S10 1_555 1_555
O54 Ti6 1_555 1_555
O55 Ti3 1_555 1_555
N15 C49 1_555 1_555
N16 Cu8 1_555 1_555
N17 Cu7 1_555 1_555
H75 N17 1_555 1_555
N19 Cu9 1_555 1_555
N21 Cu9 1_555 1_555
C47 N17 1_555 1_555
H76 C47 1_555 1_555
H77 C47 1_555 1_555
H78 C47 1_555 1_555
C48 N17 1_555 1_555
H79 C48 1_555 1_555
H80 C48 1_555 1_555
H81 C48 1_555 1_555
C49 H82 1_555 1_555
H83 C49 1_555 1_555
H84 C49 1_555 1_555
C50 N15 1_555 1_555
H85 C50 1_555 1_555
H86 C50 1_555 1_555
H87 C50 1_555 1_555
C51 N15 1_555 1_555
C52 C51 1_555 1_555
H88 C52 1_555 1_555
C53 N16 1_555 1_555
H89 C53 1_555 1_555
C54 N16 1_555 1_555
H90 C54 1_555 1_555
C55 C51 1_555 1_555
H91 C55 1_555 1_555
C60 N19 1_555 1_555
H99 C60 1_555 1_555
C61 N19 1_555 1_555
H100 C61 1_555 1_555
H101 C62 1_555 1_555
C64 N20 1_555 1_555
H106 C64 1_555 1_555
C65 H108 1_555 1_555
C66 N20 1_555 1_555
C67 C66 1_555 1_555
H109 C67 1_555 1_555
C68 N21 1_555 1_555
H110 C68 1_555 1_555
C69 N21 1_555 1_555
H111 C69 1_555 1_555
Cu10 O28 1_555 1_555
Cu11 O43 1_555 1_555
Cu12 O7 1_555 1_555
O56 Cu9 1_555 1_555
O57 Cu3 1_555 1_555
O58 Cu6 1_555 1_555
Ti1 O10 1_555 1_555
Ti2 O11 1_555 1_555
S2 O13 1_555 1_555
S2 O15 1_555 1_555
S3 O20 1_555 1_555
S4 O8 1_555 1_555
O5 Cu7 1_555 1_555
O10 Ti4 1_555 1_555
O15 Cu8 1_555 1_555
C6 C7 1_555 1_555
C8 C9 1_555 1_555
C13 C14 1_555 1_555
C15 C16 1_555 1_555
C19 C20 1_555 1_555
C19 C23 1_555 1_555
C21 C22 1_555 1_555
O23 Cu8 1_555 1_555
O24 Cu4 1_555 1_555
O25 Cu7 1_555 1_555
Cu4 O26 1_555 1_555
Cu5 O36 1_555 1_555
Ti3 O31 1_555 1_555
Ti4 O32 1_555 1_555
S6 O34 1_555 1_555
S6 O36 1_555 1_555
S7 O39 1_555 1_555
S7 O40 1_555 1_555
S8 O29 1_555 1_555
S8 O30 1_555 1_555
O31 Ti6 1_555 1_555
C29 C30 1_555 1_555
C31 C32 1_555 1_555
C38 C39 1_555 1_555
C42 C43 1_555 1_555
C42 C46 1_555 1_555
C44 C45 1_555 1_555
Cu7 O41 1_555 1_555
Cu7 O42 1_555 1_555
Cu8 O46 1_555 1_555
Cu8 O51 1_555 1_555
Ti5 O42 1_555 1_555
Ti5 O46 1_555 1_555
Ti6 O47 1_555 1_555
S9 O49 1_555 1_555
S9 O51 1_555 1_555
S10 O54 1_555 1_555
S10 O55 1_555 1_555
S11 O44 1_555 1_555
S11 O45 1_555 1_555
C52 C53 1_555 1_555
C54 C55 1_555 1_555
C61 C62 1_555 1_555
C65 C66 1_555 1_555
C65 C69 1_555 1_555
C67 C68 1_555 1_555
Cu1_2 O3_2 1_555 1_555
Cu2_2 O1_2 1_555 1_555
Ti1_2 O6_2 1_555 1_555
S5_2 O2_2 1_555 1_555
O3_2 S5_2 1_555 1_555
O4_2 Cu1_2 1_555 1_555
O6_2 Cu1_2 1_555 1_555
O10_2 Cu2_2 1_555 1_555
N3_2 Cu1_2 1_555 1_555
H1_2 N3_2 1_555 1_555
C1_2 N3_2 1_555 1_555
H2_2 C1_2 1_555 1_555
H3_2 C1_2 1_555 1_555
H4_2 C1_2 1_555 1_555
C2_2 N3_2 1_555 1_555
H5_2 C2_2 1_555 1_555
H6_2 C2_2 1_555 1_555
H7_2 C2_2 1_555 1_555
Cu6_2 O38_2 1_555 1_555
Ti4_2 O6_2 1_555 1_555
S6_2 O33_2 1_555 1_555
S7_2 O37_2 1_555 1_555
S8_2 O26_2 1_555 1_555
O26_2 Cu1_2 1_555 1_555
O57 S8_2 1_555 1_555
O30_2 Ti4_2 1_555 1_555
O34_2 Ti4_2 1_555 1_555
O35_2 S6_2 1_555 1_555
O36_2 Cu2_2 1_555 1_555
O38_2 S7_2 1_555 1_555
O39_2 Ti4_2 1_555 1_555
O40_2 Ti1_2 1_555 1_555
N12_2 Cu6_2 1_555 1_555
N13_2 C40_2 1_555 1_555
N14_2 Cu6_2 1_555 1_555
C37_2 N12_2 1_555 1_555
C38_2 N12_2 1_555 1_555
H63_2 C38_2 1_555 1_555
H64_2 C39_2 1_555 1_555
C40_2 H65_2 1_555 1_555
H66_2 C40_2 1_555 1_555
H67_2 C40_2 1_555 1_555
C41_2 N13_2 1_555 1_555
H68_2 C41_2 1_555 1_555
H69_2 C41_2 1_555 1_555
H70_2 C41_2 1_555 1_555
C42_2 H71_2 1_555 1_555
C43_2 N13_2 1_555 1_555
C44_2 C43_2 1_555 1_555
H72_2 C44_2 1_555 1_555
C45_2 N14_2 1_555 1_555
H73_2 C45_2 1_555 1_555
C46_2 N14_2 1_555 1_555
H74_2 C46_2 1_555 1_555
O58_2 Cu6_2 1_555 1_555
Ti1_2 O10_2 1_555 1_555
O10_2 Ti4_2 1_555 1_555
Ti4_2 O32_2 1_555 1_555
S6_2 O34_2 1_555 1_555
S6_2 O36_2 1_555 1_555
S7_2 O39_2 1_555 1_555
S7_2 O40_2 1_555 1_555
S8_2 O29_2 1_555 1_555
S8_2 O30_2 1_555 1_555
C38_2 C39_2 1_555 1_555
C42_2 C43_2 1_555 1_555
C42_2 C46_2 1_555 1_555
C44_2 C45_2 1_555 1_555
S2_2 O12_2 1_555 1_555
S4_2 O5_2 1_555 1_555
S5_3 O2_3 1_555 1_555
O56 S4_2 1_555 1_555
O9_2 S4_2 1_555 1_555
O14_2 S2_2 1_555 1_555
H27_2 C16_2 1_555 1_555
S2_2 O13_2 1_555 1_555
S2_2 O15_2 1_555 1_555
S4_2 O8_2 1_555 1_555
S5_4 O2_4 1_555 1_555
O1_4 Cu5_2 1_555 1_555
O24_2 S5_4 1_555 1_555
Cu4_2 O4_4 1_555 1_555
Ti3_2 O27_2 1_555 1_555
O27_2 Cu4_2 1_555 1_555
O31_2 Cu5_2 1_555 1_555
N10_2 Cu4_2 1_555 1_555
H38_2 N10_2 1_555 1_555
C24_2 N10_2 1_555 1_555
H39_2 C24_2 1_555 1_555
H40_2 C24_2 1_555 1_555
H41_2 C24_2 1_555 1_555
C25_2 N10_2 1_555 1_555
H42_2 C25_2 1_555 1_555
H43_2 C25_2 1_555 1_555
H44_2 C25_2 1_555 1_555
Cu9_2 O53_2 1_555 1_555
Ti6_2 O27_2 1_555 1_555
S10_2 O52_2 1_555 1_555
O53_2 S10_2 1_555 1_555
O54_2 Ti6_2 1_555 1_555
O55_2 Ti3_2 1_555 1_555
N19_2 Cu9_2 1_555 1_555
N20_2 C63_2 1_555 1_555
N21_2 Cu9_2 1_555 1_555
C60_2 N19_2 1_555 1_555
C61_2 N19_2 1_555 1_555
H100_2 C61_2 1_555 1_555
C63_2 H102_2 1_555 1_555
H103_2 C63_2 1_555 1_555
H104_2 C63_2 1_555 1_555
C64_2 N20_2 1_555 1_555
H105_2 C64_2 1_555 1_555
H106_2 C64_2 1_555 1_555
H107_2 C64_2 1_555 1_555
C65_2 H108_2 1_555 1_555
C66_2 N20_2 1_555 1_555
C67_2 C66_2 1_555 1_555
H109_2 C67_2 1_555 1_555
C68_2 N21_2 1_555 1_555
H110_2 C68_2 1_555 1_555
C69_2 N21_2 1_555 1_555
H111_2 C69_2 1_555 1_555
O56_2 Cu9_2 1_555 1_555
O24_2 Cu4_2 1_555 1_555
Ti3_2 O31_2 1_555 1_555
O31_2 Ti6_2 1_555 1_555
S10_2 O54_2 1_555 1_555
S10_2 O55_2 1_555 1_555
C65_2 C66_2 1_555 1_555
C65_2 C69_2 1_555 1_555
C67_2 C68_2 1_555 1_555
Cu3_2 O19_2 1_555 1_555
S3_2 O18_2 1_555 1_555
S5_5 O2_5 1_555 1_555
O19_2 S3_2 1_555 1_555
O20_2 Ti2_2 1_555 1_555
O21_2 S3_2 1_555 1_555
N5_2 Cu3_2 1_555 1_555
N6_2 C17 1_555 1_555
N7_2 Cu3_2 1_555 1_555
C14_2 N5_2 1_555 1_555
C15_2 N5_2 1_555 1_555
H26_2 C15_2 1_555 1_555
C17 H28 1_555 1_555
H29 C17 1_555 1_555
H30 C17 1_555 1_555
C18_2 N6_2 1_555 1_555
H31 C18_2 1_555 1_555
H32_2 C18_2 1_555 1_555
H33 C18_2 1_555 1_555
C19_2 H34_2 1_555 1_555
C20_2 N6_2 1_555 1_555
C21_2 C20_2 1_555 1_555
H35_2 C21_2 1_555 1_555
C22_2 N7_2 1_555 1_555
H36_2 C22_2 1_555 1_555
C23_2 N7_2 1_555 1_555
H37_2 C23_2 1_555 1_555
O25_2 S5_5 1_555 1_555
Cu7_2 O4_5 1_555 1_555
Cu8_2 O1_5 1_555 1_555
Ti5_2 O21_2 1_555 1_555
S9_2 O48_2 1_555 1_555
S11_2 O41_2 1_555 1_555
O42_2 Ti2_2 1_555 1_555
O58 S11_2 1_555 1_555
O44_2 Ti5_2 1_555 1_555
O46_2 Ti2_2 1_555 1_555
O47_2 Ti5_2 1_555 1_555
O48_2 Ti5_2 1_555 1_555
O50_2 S9_2 1_555 1_555
N17_2 Cu7_2 1_555 1_555
H75_2 N17_2 1_555 1_555
C47_2 N17_2 1_555 1_555
H76_2 C47_2 1_555 1_555
H77_2 C47_2 1_555 1_555
H78_2 C47_2 1_555 1_555
C48_2 N17_2 1_555 1_555
H79_2 C48_2 1_555 1_555
H80_2 C48_2 1_555 1_555
H81_2 C48_2 1_555 1_555
H101_2 C62_2 1_555 1_555
O57_2 Cu3_2 1_555 1_555
S3_2 O20_2 1_555 1_555
C19_2 C20_2 1_555 1_555
C19_2 C23_2 1_555 1_555
C21_2 C22_2 1_555 1_555
O25_2 Cu7_2 1_555 1_555
Cu7_2 O41_2 1_555 1_555
Cu7_2 O42_2 1_555 1_555
Cu8_2 O46_2 1_555 1_555
Cu8_2 O51_2 1_555 1_555
Ti5_2 O42_2 1_555 1_555
Ti5_2 O46_2 1_555 1_555
S9_2 O49_2 1_555 1_555
S9_2 O51_2 1_555 1_555
S11_2 O44_2 1_555 1_555
S11_2 O45_2 1_555 1_555
H11_2 C4_2 1_555 1_555
H12_2 C4_2 1_555 1_555
H13_2 C4_2 1_555 1_555
N12_3 Cu11 1_555 1_555
N13_3 C40_3 1_555 1_555
N14_3 Cu11 1_555 1_555
H61_2 C36_2 1_555 1_555
C37_3 N12_3 1_555 1_555
H62_2 C37_3 1_555 1_555
H66_3 C40_3 1_555 1_555
H67_3 C40_3 1_555 1_555
C42_3 H71_3 1_555 1_555
C43_3 N13_3 1_555 1_555
C44_3 C43_3 1_555 1_555
C45_3 N14_3 1_555 1_555
H73_3 C45_3 1_555 1_555
C46_3 N14_3 1_555 1_555
H74_3 C46_3 1_555 1_555
C36_2 C37_3 1_555 1_555
C42_3 C43_3 1_555 1_555
C42_3 C46_3 1_555 1_555
C44_3 C45_3 1_555 1_555
Cu2_3 O1_6 1_555 1_555
Ti1_3 O6_3 1_555 1_555
Ti2_3 O9_3 1_555 1_555
S1_2 O16_2 1_555 1_555
S2_3 O12_3 1_555 1_555
S3_3 O18_3 1_555 1_555
O1_6 Cu5_3 1_555 1_555
O4_6 Cu1_3 1_555 1_555
O6_3 Cu1_3 1_555 1_555
O8_3 Ti1_3 1_555 1_555
O9_3 S4_3 1_555 1_555
O10_3 Cu2_3 1_555 1_555
O11_3 Ti1_3 1_555 1_555
O12_3 Ti1_3 1_555 1_555
O13_3 Ti2_3 1_555 1_555
O14_3 S2_3 1_555 1_555
O15_3 Cu2_3 1_555 1_555
O16_2 Cu2_3 1_555 1_555
O17_2 S1_2 1_555 1_555
O19_3 S3_3 1_555 1_555
O20_3 Ti2_3 1_555 1_555
O21_3 S3_3 1_555 1_555
N1_2 C3_2 1_555 1_555
N2_2 Cu2_3 1_555 1_555
N4_2 C10_2 1_555 1_555
H9_2 C3_2 1_555 1_555
C5_2 N1_2 1_555 1_555
C6_2 C5_2 1_555 1_555
H14_2 C6_2 1_555 1_555
C7_2 N2_2 1_555 1_555
H15_2 C7_2 1_555 1_555
C8_2 N2_2 1_555 1_555
H16_3 C8_2 1_555 1_555
C9_2 C5_2 1_555 1_555
H17_2 C9_2 1_555 1_555
C10_2 H18_2 1_555 1_555
H19_2 C10_2 1_555 1_555
C11_2 N4_2 1_555 1_555
H21_3 C11_2 1_555 1_555
H22_2 C11_2 1_555 1_555
H23_2 C11_2 1_555 1_555
C12_2 N4_2 1_555 1_555
H26_3 C15_3 1_555 1_555
C16_3 C12_2 1_555 1_555
H27_3 C16_3 1_555 1_555
O22_2 S1_2 1_555 1_555
O23_2 S1_2 1_555 1_555
Cu4_3 O4_6 1_555 1_555
Cu5_3 O22_2 1_555 1_555
Ti3_3 O27_3 1_555 1_555
Ti4_3 O6_3 1_555 1_555
S6_3 O33_3 1_555 1_555
S7_3 O37_3 1_555 1_555
O27_3 Cu4_3 1_555 1_555
O29_3 Ti3_3 1_555 1_555
O30_3 Ti4_3 1_555 1_555
O31_3 Cu5_3 1_555 1_555
O32_3 Ti3_3 1_555 1_555
O33_3 Ti3_3 1_555 1_555
O34_3 Ti4_3 1_555 1_555
O35_3 S6_3 1_555 1_555
O36_3 Cu2_3 1_555 1_555
O38_3 S7_3 1_555 1_555
O39_3 Ti4_3 1_555 1_555
O40_3 Ti1_3 1_555 1_555
N8_2 C26_2 1_555 1_555
N9_2 Cu5_3 1_555 1_555
N11_2 C33_2 1_555 1_555
C26_2 H45_2 1_555 1_555
H46_2 C26_2 1_555 1_555
H47_2 C26_2 1_555 1_555
C27_2 N8_2 1_555 1_555
H48_2 C27_2 1_555 1_555
H49_2 C27_2 1_555 1_555
H50_2 C27_2 1_555 1_555
C28_2 N8_2 1_555 1_555
C29_2 C28_2 1_555 1_555
H51_2 C29_2 1_555 1_555
C30_2 N9_2 1_555 1_555
H52_2 C30_2 1_555 1_555
C31_2 N9_2 1_555 1_555
H53_3 C31_2 1_555 1_555
C32_2 C28_2 1_555 1_555
H54_2 C32_2 1_555 1_555
C33_2 H55_2 1_555 1_555
H56_2 C33_2 1_555 1_555
C34_2 N11_2 1_555 1_555
H58_3 C34_2 1_555 1_555
H59_2 C34_2 1_555 1_555
H60_2 C34_2 1_555 1_555
C35_2 N11_2 1_555 1_555
H63_3 C38_3 1_555 1_555
C39_3 C35_2 1_555 1_555
H64_3 C39_3 1_555 1_555
Cu7_3 O4_6 1_555 1_555
Cu8_3 O1_6 1_555 1_555
Cu12 O53_3 1_555 1_555
Ti5_3 O21_3 1_555 1_555
Ti6_3 O27_3 1_555 1_555
S9_3 O48_3 1_555 1_555
S10_3 O52_3 1_555 1_555
O42_3 Ti2_3 1_555 1_555
O44_3 Ti5_3 1_555 1_555
O45_3 Ti6_3 1_555 1_555
O46_3 Ti2_3 1_555 1_555
O47_3 Ti5_3 1_555 1_555
O48_3 Ti5_3 1_555 1_555
O49_3 Ti6_3 1_555 1_555
O50_3 S9_3 1_555 1_555
O51_3 Cu5_3 1_555 1_555
O53_3 S10_3 1_555 1_555
O54_3 Ti6_3 1_555 1_555
O55_3 Ti3_3 1_555 1_555
N15_2 C49_2 1_555 1_555
N16_2 Cu8_3 1_555 1_555
N18 C56 1_555 1_555
N19_3 Cu12 1_555 1_555
N20_3 C63_3 1_555 1_555
N21_3 Cu12 1_555 1_555
H83_2 C49_2 1_555 1_555
C51_2 N15_2 1_555 1_555
C52_2 C51_2 1_555 1_555
H88_2 C52_2 1_555 1_555
C53_2 N16_2 1_555 1_555
H89_2 C53_2 1_555 1_555
C54_2 N16_2 1_555 1_555
H90_3 C54_2 1_555 1_555
C55_2 C51_2 1_555 1_555
H91_2 C55_2 1_555 1_555
C56 H92 1_555 1_555
H93 C56 1_555 1_555
H94 C56 1_555 1_555
C57 N18 1_555 1_555
H95_2 C57 1_555 1_555
H96 C57 1_555 1_555
H97_2 C57 1_555 1_555
C58 N18 1_555 1_555
C59 C58 1_555 1_555
H98 C59 1_555 1_555
C60_3 N19_3 1_555 1_555
H99_2 C60_3 1_555 1_555
C61_3 N19_3 1_555 1_555
H100_3 C61_3 1_555 1_555
C62_3 C58 1_555 1_555
H101_3 C62_3 1_555 1_555
H103_3 C63_3 1_555 1_555
H104_3 C63_3 1_555 1_555
C65_3 H108_3 1_555 1_555
C66_3 N20_3 1_555 1_555
C67_3 C66_3 1_555 1_555
C68_3 N21_3 1_555 1_555
H110_3 C68_3 1_555 1_555
C69_3 N21_3 1_555 1_555
H111_3 C69_3 1_555 1_555
Ti1_3 O10_3 1_555 1_555
Ti2_3 O11_3 1_555 1_555
S2_3 O13_3 1_555 1_555
S2_3 O15_3 1_555 1_555
S3_3 O20_3 1_555 1_555
S4_3 O8_3 1_555 1_555
O10_3 Ti4_3 1_555 1_555
O15_3 Cu8_3 1_555 1_555
C6_2 C7_2 1_555 1_555
C8_2 C9_2 1_555 1_555
C15_3 C16_3 1_555 1_555
O23_2 Cu8_3 1_555 1_555
Cu5_3 O36_3 1_555 1_555
Ti3_3 O31_3 1_555 1_555
Ti4_3 O32_3 1_555 1_555
S6_3 O34_3 1_555 1_555
S6_3 O36_3 1_555 1_555
S7_3 O39_3 1_555 1_555
S7_3 O40_3 1_555 1_555
S8_3 O29_3 1_555 1_555
S8_3 O30_3 1_555 1_555
O31_3 Ti6_3 1_555 1_555
C29_2 C30_2 1_555 1_555
C31_2 C32_2 1_555 1_555
C38_3 C39_3 1_555 1_555
Cu7_3 O42_3 1_555 1_555
Cu8_3 O46_3 1_555 1_555
Cu8_3 O51_3 1_555 1_555
Ti5_3 O42_3 1_555 1_555
Ti5_3 O46_3 1_555 1_555
Ti6_3 O47_3 1_555 1_555
S9_3 O49_3 1_555 1_555
S9_3 O51_3 1_555 1_555
S10_3 O54_3 1_555 1_555
S10_3 O55_3 1_555 1_555
S11_3 O44_3 1_555 1_555
S11_3 O45_3 1_555 1_555
C52_2 C53_2 1_555 1_555
C54_2 C55_2 1_555 1_555
C59 C60_3 1_555 1_555
C61_3 C62_3 1_555 1_555
C65_3 C66_3 1_555 1_555
C65_3 C69_3 1_555 1_555
C67_3 C68_3 1_555 1_555
S5_6 O2_6 1_555 1_555
O3_3 S5_6 1_555 1_555
C1_3 N3_3 1_555 1_555
H2_3 C1_3 1_555 1_555
H3_3 C1_3 1_555 1_555
H4_3 C1_3 1_555 1_555
C2_3 N3_3 1_555 1_555
H5_3 C2_3 1_555 1_555
H6_3 C2_3 1_555 1_555
H7_3 C2_3 1_555 1_555
O24_3 S5_6 1_555 1_555
O25_3 S5_6 1_555 1_555
C24_3 N10_3 1_555 1_555
H39_3 C24_3 1_555 1_555
H40_3 C24_3 1_555 1_555
H41_3 C24_3 1_555 1_555
C25_3 N10_3 1_555 1_555
H42_3 C25_3 1_555 1_555
H43_3 C25_3 1_555 1_555
H44_3 C25_3 1_555 1_555
C47_3 N17_3 1_555 1_555
H76_3 C47_3 1_555 1_555
H77_3 C47_3 1_555 1_555
H78_3 C47_3 1_555 1_555
C48_3 N17_3 1_555 1_555
H79_3 C48_3 1_555 1_555
H80_3 C48_3 1_555 1_555
H81_3 C48_3 1_555 1_555
H105_3 C64_3 1_555 1_555
H106_3 C64_3 1_555 1_555
H107_3 C64_3 1_555 1_555
N5_3 Cu10 1_555 1_555
N6_3 C17_2 1_555 1_555
N7_3 Cu10 1_555 1_555
H24_2 C13_2 1_555 1_555
C14_3 N5_3 1_555 1_555
H25_2 C14_3 1_555 1_555
H29_2 C17_2 1_555 1_555
H30_2 C17_2 1_555 1_555
C19_3 H34_3 1_555 1_555
C20_3 N6_3 1_555 1_555
C21_3 C20_3 1_555 1_555
C22_3 N7_3 1_555 1_555
H36_3 C22_3 1_555 1_555
C23_3 N7_3 1_555 1_555
H37_3 C23_3 1_555 1_555
H85_2 C50_2 1_555 1_555
H86_2 C50_2 1_555 1_555
H87_2 C50_2 1_555 1_555
C13_2 C14_3 1_555 1_555
C19_3 C20_3 1_555 1_555
C19_3 C23_3 1_555 1_555
C21_3 C22_3 1_555 1_555
C17_3 H28_2 1_555 1_555
H29_3 C17_3 1_555 1_555
H30_3 C17_3 1_555 1_555
N18_2 C56_2 1_555 1_555
C56_2 H92_2 1_555 1_555
H93_2 C56_2 1_555 1_555
H94_2 C56_2 1_555 1_555
C57_2 N18_2 1_555 1_555
H95_3 C57_2 1_555 1_555
H96_2 C57_2 1_555 1_555
C58_2 N18_2 1_555 1_555
C59_2 C58_2 1_555 1_555
H98_2 C59_2 1_555 1_555
S1_3 O16_3 1_555 1_555
O17_3 S1_3 1_555 1_555
N1_3 C3_3 1_555 1_555
C3_3 H8_3 1_555 1_555
H9_3 C3_3 1_555 1_555
H10_3 C3_3 1_555 1_555
C4_3 N1_3 1_555 1_555
H11_3 C4_3 1_555 1_555
H12_3 C4_3 1_555 1_555
H13_3 C4_3 1_555 1_555
C5_3 N1_3 1_555 1_555
C6_3 C5_3 1_555 1_555
H14_3 C6_3 1_555 1_555
C7_3 N2_3 1_555 1_555
H15_3 C7_3 1_555 1_555
C8_3 N2_3 1_555 1_555
C9_3 C5_3 1_555 1_555
H17_3 C9_3 1_555 1_555
N11_3 C33_3 1_555 1_555
C33_3 H55_3 1_555 1_555
H56_3 C33_3 1_555 1_555
H57_3 C33_3 1_555 1_555
C34_3 N11_3 1_555 1_555
H59_3 C34_3 1_555 1_555
H60_3 C34_3 1_555 1_555
C35_3 N11_3 1_555 1_555
C36_3 C35_3 1_555 1_555
H61_3 C36_3 1_555 1_555
C6_3 C7_3 1_555 1_555
C8_3 C9_3 1_555 1_555
O17_4 S1_4 1_555 1_555
N4_3 C10_3 1_555 1_555
C10_3 H18_3 1_555 1_555
H19_3 C10_3 1_555 1_555
H20_3 C10_3 1_555 1_555
C11_3 N4_3 1_555 1_555
H22_3 C11_3 1_555 1_555
H23_3 C11_3 1_555 1_555
C12_3 N4_3 1_555 1_555
O17_5 S1_5 1_555 1_555
O22_3 S1_5 1_555 1_555
N8_3 C26_3 1_555 1_555
C26_3 H45_3 1_555 1_555
H46_3 C26_3 1_555 1_555
H47_3 C26_3 1_555 1_555
C27_3 N8_3 1_555 1_555
H48_3 C27_3 1_555 1_555
H49_3 C27_3 1_555 1_555
H50_3 C27_3 1_555 1_555
C28_3 N8_3 1_555 1_555
C29_3 C28_3 1_555 1_555
H51_3 C29_3 1_555 1_555
C30_3 N9_3 1_555 1_555
H52_3 C30_3 1_555 1_555
C31_3 N9_3 1_555 1_555
C32_3 C28_3 1_555 1_555
H54_3 C32_3 1_555 1_555
H98_3 C59_3 1_555 1_555
C29_3 C30_3 1_555 1_555
C31_3 C32_3 1_555 1_555
O17_6 S1_6 1_555 1_555
H24_3 C13_3 1_555 1_555
O23_3 S1_6 1_555 1_555
N15_3 C49_3 1_555 1_555
N18_3 C56_3 1_555 1_555
C49_3 H82_3 1_555 1_555
H83_3 C49_3 1_555 1_555
H84_3 C49_3 1_555 1_555
C50_3 N15_3 1_555 1_555
H85_3 C50_3 1_555 1_555
H86_3 C50_3 1_555 1_555
H87_3 C50_3 1_555 1_555
C51_3 N15_3 1_555 1_555
C52_3 C51_3 1_555 1_555
H88_3 C52_3 1_555 1_555
C53_3 N16_3 1_555 1_555
H89_3 C53_3 1_555 1_555
C54_3 N16_3 1_555 1_555
C55_3 C51_3 1_555 1_555
H91_3 C55_3 1_555 1_555
C56_3 H92_3 1_555 1_555
H93_3 C56_3 1_555 1_555
H94_3 C56_3 1_555 1_555
C57_3 N18_3 1_555 1_555
H96_3 C57_3 1_555 1_555
H97_3 C57_3 1_555 1_555
C58_3 N18_3 1_555 1_555
C52_3 C53_3 1_555 1_555
C54_3 C55_3 1_555 1_555
H68_3 C41_3 1_555 1_555
H69_3 C41_3 1_555 1_555
H70_3 C41_3 1_555 1_555
H31_3 C18_3 1_555 1_555
H32_3 C18_3 1_555 1_555
H33_3 C18_3 1_555 1_555

#END
