
###############################################################################
#
# This file contains modified crystal structure data generated from the
# MOF subset of the Cambridge Structural Database (CSD) v543 
# hosted by the Cambridge Crystallographic Data Centre (CCDC).
#
# This work is licensed under the Creative Commons
# Attribution-NonCommercial-ShareAlike 4.0 International License.
# To view a copy of this license, visit
# http://creativecommons.org/licenses/by-nc-sa/4.0/
# or send a letter to
# Creative Commons, PO Box 1866, Mountain View, CA 94042, USA.
#
# CIF created using the CSD Python API on 29 September 2022
# The structure has been converted into the P1 space group
# The structure has a 3D framework
# The original CSD entry QAHPEX07 is in the trigonal crystal system
# The framework has been calculated to contain at least 10.0% void space
# The void calculation uses a probe of radius 1.32A, grid spacing 0.4
# The framework is charged, counterions have been retained in the structure
#
###############################################################################

data_QAHPEX07
_chemical_formula_moiety         '(C12 H12 Mn8 O20 3-)n'
_symmetry_cell_setting           triclinic
_symmetry_space_group_name_H-M   'P 1'
_symmetry_Int_Tables_number      1
_space_group_name_Hall           'P 1'
loop_
_symmetry_equiv_pos_site_id
_symmetry_equiv_pos_as_xyz
1 x,y,z
_cell_length_a                   8.7056(2)
_cell_length_b                   8.7056(2)
_cell_length_c                   13.6719(5)
_cell_angle_alpha                90
_cell_angle_beta                 90
_cell_angle_gamma                120
_cell_volume                     897.34
loop_
_atom_site_label
_atom_site_type_symbol
_atom_site_fract_x
_atom_site_fract_y
_atom_site_fract_z
Mn1 Mn -0.0000 -0.0000 0.5000
Mn2 Mn 0.3333 0.6667 0.2500
O1 O 0.21807(19) 0.20626(19) 0.41584(10)
O2 O 0.33837(19) 0.46836(19) 0.34489(11)
C1 C 0.2139(3) 0.3259(2) 0.37102(14)
H1 H 0.1016 0.3059 0.3548
O8 O 0.12999(27) 0.46836(19) 0.15511(11)
C4 C 0.1120(4) 0.3259(2) 0.12898(14)
H4 H 0.2043 0.3059 0.1452
O11 O 0.01181(27) 0.21807(19) 0.58416(10)
Mn3 Mn 0.0000 0.0000 0.0000
O14 O 0.53164(19) 0.87001(27) 0.34489(11)
O15 O 0.12999(27) 0.66163(19) 0.34489(11)
O16 O 0.53164(19) 0.66163(19) 0.15511(11)
O17 O 0.33837(19) 0.87001(27) 0.15511(11)
Mn3_2 Mn -0.0000 -0.0000 1.0000
Mn1_2 Mn -0.0000 1.0000 0.5000
C3 C 0.1120(4) 0.7861(3) 0.37102(14)
H3 H 0.2043 0.8984 0.3548
Mn3_3 Mn -0.0000 1.0000 0.0000
O13 O 0.20626(19) 0.98819(27) 0.58416(10)
Mn3_4 Mn -0.0000 1.0000 1.0000
Mn1_3 Mn 1.0000 -0.0000 0.5000
O3 O 0.79374(19) 0.01181(27) 0.41584(10)
O7 O 0.98819(27) 0.20626(19) 0.08416(10)
O12 O 0.87001(27) 0.33837(19) 0.65511(11)
C6 C 0.8880(4) 0.2139(3) 0.62898(14)
H6 H 0.7957 0.1016 0.6452
Mn3_5 Mn 1.0000 0.0000 0.0000
Mn7 Mn 0.6667 0.3333 0.7500
Mn3_6 Mn 1.0000 -0.0000 1.0000
Mn1_4 Mn 1.0000 1.0000 0.5000
C2 C 0.6741(2) 0.8880(4) 0.37102(14)
H2 H 0.6941 0.7957 0.3548
O5 O 0.98819(27) 0.78193(19) 0.41584(10)
O9 O 0.78193(19) 0.79374(19) 0.58416(10)
O10 O 0.66163(19) 0.53164(19) 0.65511(11)
C5 C 0.7861(3) 0.6741(2) 0.62898(14)
H5 H 0.8984 0.6941 0.6452
Mn3_7 Mn 1.0000 1.0000 0.0000
Mn3_8 Mn 1.0000 1.0000 1.0000
O10_2 O 0.46836(19) 0.12999(27) 0.65511(11)
C5_2 C 0.3259(2) 0.1120(4) 0.62898(14)
H5_2 H 0.3059 0.2043 0.6452
O7_2 O 0.79374(19) 0.78193(33) 0.08416(10)
C4_2 C 0.6741(2) 0.7861(4) 0.12898(14)
H4_2 H 0.6941 0.8984 0.1452
O7_3 O 0.21807(33) 0.01181(27) 0.08416(10)
C4_3 C 0.2139(4) 0.8880(4) 0.12898(14)
H4_3 H 0.1016 0.7957 0.1452
O9_2 O 0.20626(19) 0.21807(19) 0.91584(10)
O10_3 O 0.46836(19) 0.33837(19) 0.84489(11)
C5_3 C 0.3259(2) 0.2139(3) 0.87102(14)
H5_3 H 0.3059 0.1016 0.8548
O13_2 O 0.01181(27) 0.79374(19) 0.91584(10)
O12_2 O 0.66163(19) 0.12999(27) 0.84489(11)
C6_2 C 0.7861(3) 0.1120(4) 0.87102(14)
H6_2 H 0.8984 0.2043 0.8548
O11_2 O 0.78193(19) 0.98819(27) 0.91584(10)
O10_4 O 0.87001(27) 0.53164(19) 0.84489(11)
C5_4 C 0.8880(4) 0.6741(2) 0.87102(14)
H5_4 H 0.7957 0.6941 0.8548
loop_
_geom_bond_atom_site_label_1
_geom_bond_atom_site_label_2
_geom_bond_site_symmetry_1
_geom_bond_site_symmetry_2
Mn1 O1 1_555 1_555
Mn2 O2 1_555 1_555
O1 C1 1_555 1_555
O2 C1 1_555 1_555
C1 H1 1_555 1_555
O8 Mn2 1_555 1_555
C4 O8 1_555 1_555
H4 C4 1_555 1_555
O11 Mn1 1_555 1_555
O14 Mn2 1_555 1_555
O15 Mn2 1_555 1_555
O16 Mn2 1_555 1_555
O17 Mn2 1_555 1_555
O15 C3 1_555 1_555
H3 C3 1_555 1_555
O13 Mn1_2 1_555 1_555
O3 Mn1_3 1_555 1_555
O12 C6 1_555 1_555
H6 C6 1_555 1_555
Mn3_5 O7 1_555 1_555
Mn7 O12 1_555 1_555
O14 C2 1_555 1_555
H2 C2 1_555 1_555
O5 Mn1_4 1_555 1_555
O9 Mn1_4 1_555 1_555
O10 C5 1_555 1_555
C5 O9 1_555 1_555
H5 C5 1_555 1_555
Mn7 O10 1_555 1_555
O10_2 C5_2 1_555 1_555
H5_2 C5_2 1_555 1_555
Mn7 O10_2 1_555 1_555
O7_2 C4_2 1_555 1_555
C4_2 O16 1_555 1_555
H4_2 C4_2 1_555 1_555
Mn3_7 O7_2 1_555 1_555
Mn3 O7_3 1_555 1_555
C4_3 O17 1_555 1_555
H4_3 C4_3 1_555 1_555
O9_2 Mn3_2 1_555 1_555
O10_3 C5_3 1_555 1_555
C5_3 O9_2 1_555 1_555
H5_3 C5_3 1_555 1_555
Mn7 O10_3 1_555 1_555
O13_2 Mn3_4 1_555 1_555
O12_2 C6_2 1_555 1_555
H6_2 C6_2 1_555 1_555
Mn7 O12_2 1_555 1_555
O11_2 Mn3_8 1_555 1_555
O10_4 C5_4 1_555 1_555
H5_4 C5_4 1_555 1_555
Mn7 O10_4 1_555 1_555

#END
