
###############################################################################
#
# This file contains modified crystal structure data generated from the
# MOF subset of the Cambridge Structural Database (CSD) v543 
# hosted by the Cambridge Crystallographic Data Centre (CCDC).
#
# This work is licensed under the Creative Commons
# Attribution-NonCommercial-ShareAlike 4.0 International License.
# To view a copy of this license, visit
# http://creativecommons.org/licenses/by-nc-sa/4.0/
# or send a letter to
# Creative Commons, PO Box 1866, Mountain View, CA 94042, USA.
#
# CIF created using the CSD Python API on 29 September 2022
# The structure has been converted into the P1 space group
# The structure has a 3D framework
# The original CSD entry QAJSED is in the orthorhombic crystal system
# The original CSD entry QAJSED is in a Sohncke space group
# The framework has been calculated to contain at least 10.0% void space
# The void calculation uses a probe of radius 1.32A, grid spacing 0.4
#
###############################################################################

data_QAJSED
_chemical_formula_moiety         '(C256 H208 Ba12 N8 O64)n'
_symmetry_cell_setting           triclinic
_symmetry_space_group_name_H-M   'P 1'
_symmetry_Int_Tables_number      1
_space_group_name_Hall           'P 1'
loop_
_symmetry_equiv_pos_site_id
_symmetry_equiv_pos_as_xyz
1 x,y,z
_cell_length_a                   16.369(3)
_cell_length_b                   17.804(3)
_cell_length_c                   25.190(7)
_cell_angle_alpha                90
_cell_angle_beta                 90
_cell_angle_gamma                90
_cell_volume                     7341.21
loop_
_atom_site_label
_atom_site_type_symbol
_atom_site_fract_x
_atom_site_fract_y
_atom_site_fract_z
H38 H 0.0016 0.7481 0.1112
O1 O 0.1688(3) 0.0798(3) 0.5583(2)
O2 O 0.1220(4) 0.0166(3) 0.6275(2)
C1 C 0.1531(4) 0.0179(4) 0.5818(3)
Ba5 Ba 0.08328(2) 0.16989(2) 0.63346(2)
Ba11 Ba 0.29465(2) 0.17547(2) 0.54294(2)
Ba3 Ba 0.61209(2) 0.67691(2) 0.11346(2)
O3 O 0.0450(3) 0.3138(3) 0.5796(3)
O4 O 0.1586(3) 0.2605(3) 0.5531(2)
O5 O 0.5036(4) 0.7316(4) 0.1912(2)
O6 O 0.5704(4) 0.6328(3) 0.2183(2)
O7 O 0.6153(4) 0.5224(3) 0.1049(2)
O8 O 0.6353(4) 0.5764(3) 0.0268(2)
O14 O 0.7651(4) 0.6832(5) 0.0607(3)
O15 O 0.0298(6) 0.0964(4) 0.7224(3)
H1 H 0.0707 0.0845 0.7392
O16 O 0.7258(6) 0.7518(7) 0.1732(4)
H3 H 0.7103 0.7807 0.1965
H4 H 0.7694 0.7605 0.1880
N1 N 0.8575(6) 0.6400(5) 0.1245(4)
C2 C 0.1696(5) 0.9458(4) 0.5538(3)
C3 C 0.1869(4) 0.9451(4) 0.4994(3)
H5 H 0.1885 0.9909 0.4802
C4 C 0.2015(5) 0.8786(4) 0.4740(3)
H6 H 0.2137 0.8793 0.4371
C5 C 0.1992(5) 0.8106(4) 0.5002(3)
C6 C 0.1802(6) 0.8117(5) 0.5536(4)
H7 H 0.1774 0.7655 0.5723
C7 C 0.1651(6) 0.8784(5) 0.5809(4)
H8 H 0.1520 0.8775 0.6176
C8 C 0.2209(5) 0.7388(4) 0.4732(3)
C9 C 0.2756(4) 0.7385(4) 0.4313(3)
H9 H 0.2958 0.7850 0.4183
C10 C 0.3022(4) 0.6724(4) 0.4074(3)
C11 C 0.2715(5) 0.6038(4) 0.4267(3)
H10 H 0.2886 0.5581 0.4107
C12 C 0.2157(5) 0.6016(4) 0.4695(3)
C13 C 0.1903(4) 0.6684(4) 0.4906(3)
H11 H 0.1504 0.6677 0.5180
C14 C 0.3592(4) 0.6742(4) 0.3617(3)
C15 C 0.3594(5) 0.7365(4) 0.3272(3)
H12 H 0.3235 0.7774 0.3337
C16 C 0.4112(6) 0.7385(5) 0.2842(3)
H13 H 0.4107 0.7811 0.2615
C17 C 0.4639(5) 0.6799(4) 0.2735(3)
C18 C 0.4660(5) 0.6194(4) 0.3084(3)
H14 H 0.5036 0.5796 0.3023
C19 C 0.4143(5) 0.6160(4) 0.3518(3)
H15 H 0.4162 0.5739 0.3750
C20 C 0.5168(5) 0.6800(5) 0.2233(3)
C21 C 0.1874(4) 0.5282(4) 0.4905(3)
C22 C 0.1089(6) 0.5162(5) 0.5057(4)
H16 H 0.0702 0.5557 0.5029
C23 C 0.0853(6) 0.4483(5) 0.5249(4)
H17 H 0.0292 0.4413 0.5331
C24 C 0.1379(4) 0.3889(4) 0.5331(3)
C25 C 0.2170(6) 0.4011(5) 0.5170(4)
H18 H 0.2556 0.3615 0.5202
C26 C 0.2423(6) 0.4698(5) 0.4962(4)
H19 H 0.2977 0.4764 0.4858
C27 C 0.1118(4) 0.3160(4) 0.5560(3)
C28 C 0.6176(4) 0.5196(4) 0.0552(3)
C29 C 0.5976(4) 0.4467(4) 0.0280(3)
C33 C 0.5430(4) 0.3211(4) 0.0293(3)
H22 H 0.5213 0.2802 0.0490
C34 C 0.5668(4) 0.3866(4) 0.0562(3)
H23 H 0.5617 0.3896 0.0937
C53 C 0.5251(5) 0.0276(4) 0.0175(3)
H34 H 0.5112 0.0696 0.0389
C55 C 0.8291(7) 0.6880(7) 0.0861(5)
C56 C 0.9292(7) 0.6683(7) 0.1543(5)
H35 H 0.9766 0.6342 0.1508
H36 H 0.9164 0.6754 0.1924
C57 C 0.9454(8) 0.7464(7) 0.1256(6)
H37 H 0.9384 0.7884 0.1509
C58 C 0.8852(10) 0.7523(9) 0.0821(6)
H39 H 0.8544 0.8000 0.0851
H40 H 0.9135 0.7517 0.0473
C59 C 0.8162(10) 0.5705(8) 0.1446(6)
H41 H 0.8531 0.5437 0.1687
H42 H 0.8023 0.5379 0.1146
H43 H 0.7662 0.5844 0.1637
Ba7 Ba 0.41672(2) 0.83011(2) 0.13346(2)
O20 O 0.4550(3) 0.6862(3) 0.0796(3)
O23 O 0.5700(3) 0.8219(3) 0.0886(2)
O25 O 0.6092(4) 0.7699(3) 0.0124(2)
O26 O 0.2395(3) 0.1868(3) 0.6540(2)
Ba2 Ba 0.70535(2) 0.67547(2) 0.95706(2)
O12 O 0.3394(3) 0.2640(3) 0.6296(2)
O13 O 0.5994(5) 0.5959(4) 0.8958(3)
C30 C 0.6056(5) 0.4407(4) 0.9738(3)
H20 H 0.6267 0.4821 0.9543
C31 C 0.5839(5) 0.3766(4) 0.9470(3)
H21 H 0.5914 0.3736 0.9096
C32 C 0.5503(4) 0.3150(4) 0.9753(3)
C35 C 0.5237(5) 0.2467(4) 0.9462(3)
C36 C 0.4818(5) 0.2532(4) 0.8976(3)
H24 H 0.4701 0.3018 0.8839
C37 C 0.4570(5) 0.1903(4) 0.8690(3)
C38 C 0.4715(5) 0.1192(4) 0.8918(3)
H25 H 0.4524 0.0754 0.8741
C39 C 0.5133(5) 0.1116(4) 0.9401(3)
C40 C 0.5381(4) 0.1749(4) 0.9664(3)
H26 H 0.5658 0.1699 0.9993
C41 C 0.4159(5) 0.2000(4) 0.8177(3)
C42 C 0.4469(6) 0.2486(5) 0.7795(4)
H27 H 0.4953 0.2760 0.7870
C43 C 0.4092(5) 0.2580(5) 0.7310(4)
H28 H 0.4298 0.2941 0.7067
C44 C 0.3417(4) 0.2154(4) 0.7173(3)
C45 C 0.3095(5) 0.1685(5) 0.7555(3)
H29 H 0.2603 0.1424 0.7478
C46 C 0.3447(5) 0.1580(4) 0.8038(3)
H30 H 0.3221 0.1229 0.8281
C47 C 0.3049(5) 0.2247(4) 0.6628(3)
C48 C 0.5292(5) 0.0366(4) 0.9634(3)
C60 C 0.5860(11) 0.5503(9) 0.8595(7)
C61 C 0.6554(11) 0.5088(10) 0.8307(7)
H44 H 0.6979 0.5440 0.8178
H45 H 0.6810 0.4703 0.8537
C62 C 0.6090(16) 0.4743(17) 0.7860(11)
H46 H 0.6251 0.4209 0.7824
H47 H 0.6234 0.5003 0.7525
C63 C 0.5154(13) 0.4791(15) 0.7948(11)
H48 H 0.4870 0.5077 0.7665
H49 H 0.4895 0.4294 0.7997
N2 N 0.5227(13) 0.5198(11) 0.8426(8)
C64 C 0.4432(13) 0.5489(12) 0.8731(9)
H50 H 0.4588 0.5680 0.9082
H51 H 0.4045 0.5074 0.8773
H52 H 0.4176 0.5893 0.8526
O18 O 0.8312(3) 0.5798(3) 0.9417(2)
O21 O 0.8414(3) 0.7605(3) 0.9469(2)
O27 O 0.7605(3) 0.6868(3) 0.8460(2)
O28 O 0.6606(3) 0.7640(3) 0.8704(2)
C51 C 0.5618(4) 0.8966(4) 0.0097(3)
C52 C 0.5405(4) 0.9591(4) 0.0416(3)
H33 H 0.5369 0.9542 0.0791
C54 C 0.5822(4) 0.8238(4) 0.0384(3)
C49 C 0.5502(5) 0.9732(4) 0.9320(3)
H31 H 0.5529 0.9777 0.8944
C50 C 0.5670(5) 0.9046(4) 0.9562(3)
H32 H 0.5822 0.8627 0.9350
H2 H 0.9807 0.0884 0.7253
Ba13 Ba 0.88791(2) 0.32309(2) 0.61346(2)
O22 O 0.9964(4) 0.2684(4) 0.6912(2)
O24 O 0.9300(3) 0.1781(3) 0.5886(2)
O4_2 O 0.3414(3) 0.7395(3) 0.0531(2)
O15_2 O 0.4702(6) 0.9036(4) 0.2224(3)
H1_2 H 0.4293 0.9155 0.2392
H2_2 H 0.5193 0.9116 0.2253
C2_2 C 0.3304(5) 0.0542(4) 0.0538(3)
C5_2 C 0.3008(5) 0.1894(4) 0.0002(3)
C6_2 C 0.3198(6) 0.1883(5) 0.0536(4)
H7_2 H 0.3226 0.2345 0.0723
C7_2 C 0.3349(6) 0.1216(5) 0.0809(4)
H8_2 H 0.3480 0.1225 0.1176
H11_2 H 0.3496 0.3323 0.0180
C22_2 C 0.3911(6) 0.4838(5) 0.0057(4)
H16_2 H 0.4298 0.4443 0.0029
C23_2 C 0.4147(6) 0.5517(5) 0.0249(4)
H17_2 H 0.4708 0.5587 0.0331
C24_2 C 0.3621(4) 0.6111(4) 0.0331(3)
C25_2 C 0.2830(6) 0.5989(5) 0.0170(4)
H18_2 H 0.2444 0.6385 0.0202
C27_2 C 0.3882(4) 0.6840(4) 0.0560(3)
Ba10 Ba 0.20535(2) 0.82453(2) 0.04294(2)
O17 O 0.3312(3) 0.9202(3) 0.0583(2)
O19 O 0.3780(4) 0.9834(3) 0.1275(2)
O26_2 O 0.2605(3) 0.8132(3) 0.1540(2)
O12_2 O 0.1606(3) 0.7360(3) 0.1296(2)
C3_2 C 0.3131(4) 0.0549(4) 0.9994(3)
H5_2 H 0.3115 0.0091 0.9802
C4_2 C 0.2985(5) 0.1214(4) 0.9740(3)
H6_2 H 0.2863 0.1207 0.9371
C8_2 C 0.2791(5) 0.2612(4) 0.9732(3)
C9_2 C 0.2244(4) 0.2615(4) 0.9313(3)
H9_2 H 0.2042 0.2150 0.9183
C10_2 C 0.1978(4) 0.3276(4) 0.9074(3)
C11_2 C 0.2285(5) 0.3962(4) 0.9267(3)
H10_2 H 0.2114 0.4419 0.9107
C12_2 C 0.2843(5) 0.3984(4) 0.9695(3)
C13_2 C 0.3097(4) 0.3316(4) 0.9906(3)
C14_2 C 0.1408(4) 0.3258(4) 0.8617(3)
C15_2 C 0.1406(5) 0.2635(4) 0.8272(3)
H12_2 H 0.1765 0.2226 0.8337
C16_2 C 0.0888(6) 0.2615(5) 0.7842(3)
H13_2 H 0.0893 0.2189 0.7615
C17_2 C 0.0361(5) 0.3201(4) 0.7735(3)
C18_2 C 0.0340(5) 0.3806(4) 0.8084(3)
C19_2 C 0.0857(5) 0.3840(4) 0.8518(3)
H15_2 H 0.0838 0.4261 0.8750
C21_2 C 0.3126(4) 0.4718(4) 0.9905(3)
C26_2 C 0.2577(6) 0.5302(5) 0.9962(4)
H19_2 H 0.2023 0.5236 0.9858
C36_2 C 0.0182(5) 0.7468(4) 0.3976(3)
H24_2 H 0.0299 0.6982 0.3839
C37_2 C 0.0430(5) 0.8097(4) 0.3690(3)
C38_2 C 0.0285(5) 0.8808(4) 0.3918(3)
H25_2 H 0.0476 0.9246 0.3741
C41_2 C 0.0841(5) 0.8000(4) 0.3177(3)
C42_2 C 0.0531(6) 0.7514(5) 0.2795(4)
H27_2 H 0.0047 0.7240 0.2870
C43_2 C 0.0908(5) 0.7420(5) 0.2310(4)
H28_2 H 0.0702 0.7059 0.2067
C44_2 C 0.1583(4) 0.7846(4) 0.2173(3)
C45_2 C 0.1905(5) 0.8315(5) 0.2555(3)
H29_2 H 0.2397 0.8576 0.2478
C46_2 C 0.1553(5) 0.8420(4) 0.3038(3)
H30_2 H 0.1779 0.8771 0.3281
C47_2 C 0.1951(5) 0.7753(4) 0.1628(3)
H48_2 H 0.0130 0.4923 0.2665
H49_2 H 0.0105 0.5706 0.2997
C64_2 C 0.0568(13) 0.4511(12) 0.3731(9)
H50_2 H 0.0412 0.4320 0.4082
H51_2 H 0.0955 0.4926 0.3773
H52_2 H 0.0824 0.4107 0.3526
C1_2 C 0.3469(4) 0.9821(4) 0.0818(3)
O10 O 0.8908(4) 0.2301(3) 0.5124(2)
C49_2 C 0.9498(5) 0.0268(4) 0.4320(3)
H31_2 H 0.9471 0.0223 0.3944
C50_2 C 0.9330(5) 0.0954(4) 0.4562(3)
H32_2 H 0.9178 0.1373 0.4350
C51_2 C 0.9382(4) 0.1034(4) 0.5097(3)
C52_2 C 0.9595(4) 0.0409(4) 0.5416(3)
H33_2 H 0.9631 0.0458 0.5791
C54_2 C 0.9178(4) 0.1762(4) 0.5384(3)
Ba8 Ba 0.79465(2) 0.32453(2) 0.45706(2)
O6_2 O 0.9296(4) 0.3672(3) 0.7183(2)
O7_2 O 0.8847(4) 0.4776(3) 0.6049(2)
O8_2 O 0.8647(4) 0.4236(3) 0.5268(2)
O13_2 O 0.9006(5) 0.4041(4) 0.3958(3)
O14_2 O 0.7349(4) 0.3168(5) 0.5607(3)
O16_2 O 0.7742(6) 0.2482(7) 0.6732(4)
H3_2 H 0.7897 0.2193 0.6965
H4_2 H 0.7306 0.2395 0.6880
N1_2 N 0.6425(6) 0.3600(5) 0.6245(4)
H14_2 H 0.9964 0.4204 0.8023
C20_2 C 0.9832(5) 0.3200(5) 0.7233(3)
C28_2 C 0.8824(4) 0.4804(4) 0.5552(3)
C29_2 C 0.9024(4) 0.5533(4) 0.5280(3)
C30_2 C 0.8944(5) 0.5593(4) 0.4738(3)
H20_2 H 0.8733 0.5179 0.4543
C31_2 C 0.9161(5) 0.6234(4) 0.4470(3)
H21_2 H 0.9086 0.6264 0.4096
C32_2 C 0.9497(4) 0.6850(4) 0.4753(3)
C33_2 C 0.9570(4) 0.6789(4) 0.5293(3)
H22_2 H 0.9787 0.7198 0.5490
C34_2 C 0.9332(4) 0.6134(4) 0.5562(3)
H23_2 H 0.9383 0.6104 0.5937
C35_2 C 0.9763(5) 0.7533(4) 0.4462(3)
C39_2 C 0.9867(5) 0.8884(4) 0.4401(3)
C40_2 C 0.9619(4) 0.8251(4) 0.4664(3)
H26_2 H 0.9342 0.8301 0.4993
C48_2 C 0.9708(5) 0.9634(4) 0.4634(3)
C53_2 C 0.9749(5) 0.9724(4) 0.5175(3)
H34_2 H 0.9888 0.9304 0.5389
C55_2 C 0.6709(7) 0.3120(7) 0.5861(5)
C56_2 C 0.5708(7) 0.3317(7) 0.6543(5)
H35_2 H 0.5234 0.3658 0.6508
H36_2 H 0.5836 0.3246 0.6924
C57_2 C 0.5546(8) 0.2536(7) 0.6256(6)
H37_2 H 0.5616 0.2116 0.6509
H38_2 H 0.4984 0.2519 0.6112
C58_2 C 0.6148(10) 0.2477(9) 0.5821(6)
H39_2 H 0.6456 0.2000 0.5851
H40_2 H 0.5865 0.2483 0.5473
C59_2 C 0.6838(10) 0.4295(8) 0.6446(6)
H41_2 H 0.6469 0.4563 0.6687
H42_2 H 0.6977 0.4621 0.6146
H43_2 H 0.7338 0.4156 0.6637
C60_2 C 0.9140(11) 0.4497(9) 0.3595(7)
C61_2 C 0.8446(11) 0.4912(10) 0.3307(7)
H44_2 H 0.8021 0.4560 0.3178
H45_2 H 0.8190 0.5297 0.3537
C62_2 C 0.8910(16) 0.5257(17) 0.2860(11)
H46_2 H 0.8749 0.5791 0.2824
H47_2 H 0.8766 0.4997 0.2525
C63_2 C 0.9846(13) 0.5209(15) 0.2948(11)
N2_2 N 0.9773(13) 0.4802(11) 0.3426(8)
O18_2 O 0.6688(3) 0.4202(3) 0.4417(2)
O21_2 O 0.6586(3) 0.2395(3) 0.4469(2)
O27_2 O 0.7395(3) 0.3132(3) 0.3460(2)
O28_2 O 0.8394(3) 0.2360(3) 0.3704(2)
C30_3 C 0.1056(5) 0.0593(4) 0.0262(3)
H20_3 H 0.1267 0.0179 0.0457
C31_3 C 0.0839(5) 0.1234(4) 0.0530(3)
H21_3 H 0.0914 0.1264 0.0904
C32_3 C 0.0503(4) 0.1850(4) 0.0247(3)
C35_3 C 0.0237(5) 0.2533(4) 0.0538(3)
C39_3 C 0.0133(5) 0.3884(4) 0.0599(3)
C40_3 C 0.0381(4) 0.3251(4) 0.0336(3)
H26_3 H 0.0658 0.3301 0.0007
C48_3 C 0.0292(5) 0.4634(4) 0.0366(3)
C49_3 C 0.0502(5) 0.5268(4) 0.0680(3)
H31_3 H 0.0529 0.5223 0.1056
C50_3 C 0.0670(5) 0.5954(4) 0.0438(3)
H32_3 H 0.0822 0.6373 0.0650
H45_3 H 0.1810 0.0297 0.1463
C62_3 C 0.1090(16) 0.0257(17) 0.2140(11)
H46_3 H 0.1251 0.0791 0.2176
C63_3 C 0.0154(13) 0.0209(15) 0.2052(11)
O13_3 O 0.0994(5) 0.9041(4) 0.1042(3)
C60_3 C 0.0860(11) 0.9497(9) 0.1405(7)
C61_3 C 0.1554(11) 0.9912(10) 0.1693(7)
H44_3 H 0.1979 0.9560 0.1822
H47_3 H 0.1234 0.9997 0.2475
N2_3 N 0.0227(13) 0.9802(11) 0.1574(8)
C36_3 C 0.9818(5) 0.2468(4) 0.1024(3)
H24_3 H 0.9701 0.1982 0.1161
C37_3 C 0.9570(5) 0.3097(4) 0.1310(3)
C38_3 C 0.9715(5) 0.3808(4) 0.1082(3)
H25_3 H 0.9524 0.4246 0.1259
C41_3 C 0.9159(5) 0.3000(4) 0.1823(3)
C42_3 C 0.9469(6) 0.2514(5) 0.2205(4)
H27_3 H 0.9953 0.2240 0.2130
C43_3 C 0.9092(5) 0.2420(5) 0.2690(4)
H28_3 H 0.9298 0.2059 0.2933
C44_3 C 0.8417(4) 0.2846(4) 0.2827(3)
C45_3 C 0.8095(5) 0.3315(5) 0.2445(3)
H29_3 H 0.7603 0.3576 0.2522
C46_3 C 0.8447(5) 0.3420(4) 0.1962(3)
H30_3 H 0.8221 0.3771 0.1719
C47_3 C 0.8049(5) 0.2753(4) 0.3372(3)
H49_3 H 0.9895 0.0706 0.2003
Ba4 Ba 0.58328(2) 0.33011(2) 0.36654(2)
O3_2 O 0.5450(3) 0.1862(3) 0.4204(3)
O15_3 O 0.5298(6) 0.4036(4) 0.2776(3)
H1_3 H 0.5707 0.4155 0.2608
H2_3 H 0.4807 0.4116 0.2747
C23_3 C 0.5853(6) 0.0517(5) 0.4751(4)
H17_3 H 0.5292 0.0587 0.4669
C24_3 C 0.6379(4) 0.1111(4) 0.4669(3)
C25_3 C 0.7170(6) 0.0989(5) 0.4830(4)
H18_3 H 0.7556 0.1385 0.4798
C26_3 C 0.7423(6) 0.0302(5) 0.5038(4)
H19_3 H 0.7977 0.0236 0.5142
C27_3 C 0.6118(4) 0.1840(4) 0.4440(3)
Ba6 Ba 0.91672(2) 0.66989(2) 0.86654(2)
Ba13_2 Ba 0.38791(2) 0.17691(2) 0.38654(2)
O19_2 O 0.6220(4) 0.4834(3) 0.3725(2)
O22_2 O 0.4964(4) 0.2316(4) 0.3088(2)
O24_2 O 0.4300(3) 0.3219(3) 0.4114(2)
C1_3 C 0.6531(4) 0.4821(4) 0.4182(3)
C2_3 C 0.6696(5) 0.5542(4) 0.4462(3)
C3_3 C 0.6869(4) 0.5549(4) 0.5006(3)
H5_3 H 0.6885 0.5091 0.5198
C4_3 C 0.7015(5) 0.6214(4) 0.5260(3)
H6_3 H 0.7137 0.6207 0.5629
C5_3 C 0.6992(5) 0.6894(4) 0.4998(3)
C6_3 C 0.6802(6) 0.6883(5) 0.4464(4)
H7_3 H 0.6774 0.7345 0.4277
C7_3 C 0.6651(6) 0.6216(5) 0.4191(4)
H8_3 H 0.6520 0.6225 0.3824
C8_3 C 0.7209(5) 0.7612(4) 0.5268(3)
C9_3 C 0.7756(4) 0.7615(4) 0.5687(3)
H9_3 H 0.7958 0.7150 0.5817
C10_3 C 0.8022(4) 0.8276(4) 0.5926(3)
C11_3 C 0.7715(5) 0.8962(4) 0.5733(3)
H10_3 H 0.7886 0.9419 0.5893
C12_3 C 0.7157(5) 0.8984(4) 0.5305(3)
C13_3 C 0.6903(4) 0.8316(4) 0.5094(3)
H11_3 H 0.6504 0.8323 0.4820
C14_3 C 0.8592(4) 0.8258(4) 0.6383(3)
C15_3 C 0.8594(5) 0.7635(4) 0.6728(3)
H12_3 H 0.8235 0.7226 0.6663
C16_3 C 0.9112(6) 0.7615(5) 0.7158(3)
H13_3 H 0.9107 0.7189 0.7385
C17_3 C 0.9639(5) 0.8201(4) 0.7265(3)
C18_3 C 0.9660(5) 0.8806(4) 0.6916(3)
C19_3 C 0.9143(5) 0.8840(4) 0.6482(3)
H15_3 H 0.9162 0.9261 0.6250
C21_3 C 0.6874(4) 0.9718(4) 0.5095(3)
C22_3 C 0.6089(6) 0.9838(5) 0.4943(4)
H16_3 H 0.5702 0.9443 0.4971
O20_2 O 0.9550(3) 0.8138(3) 0.9204(3)
O6_3 O 0.4296(4) 0.1328(3) 0.2817(2)
O7_3 O 0.3847(4) 0.0224(3) 0.3951(2)
O8_3 O 0.3647(4) 0.0764(3) 0.4732(2)
O13_4 O 0.4006(5) 0.0959(4) 0.6042(3)
O14_3 O 0.2349(4) 0.1832(5) 0.4393(3)
O16_3 O 0.2742(6) 0.2518(7) 0.3268(4)
H3_3 H 0.2897 0.2807 0.3035
H4_3 H 0.2306 0.2605 0.3120
N1_3 N 0.1425(6) 0.1400(5) 0.3755(4)
C3_4 C 0.8131(4) 0.4451(4) 0.0006(3)
H5_4 H 0.8115 0.4909 0.0198
C4_4 C 0.7985(5) 0.3786(4) 0.0260(3)
H6_4 H 0.7863 0.3793 0.0629
C8_4 C 0.7791(5) 0.2388(4) 0.0268(3)
C9_4 C 0.7244(4) 0.2385(4) 0.0687(3)
H9_4 H 0.7042 0.2850 0.0817
C10_4 C 0.6978(4) 0.1724(4) 0.0926(3)
C11_4 C 0.7285(5) 0.1038(4) 0.0733(3)
H10_4 H 0.7114 0.0581 0.0893
C12_4 C 0.7843(5) 0.1016(4) 0.0305(3)
C13_4 C 0.8097(4) 0.1684(4) 0.0094(3)
C14_4 C 0.6408(4) 0.1742(4) 0.1383(3)
C15_4 C 0.6406(5) 0.2365(4) 0.1728(3)
H12_4 H 0.6765 0.2774 0.1663
C16_4 C 0.5888(6) 0.2385(5) 0.2158(3)
H13_4 H 0.5893 0.2811 0.2385
C17_4 C 0.5361(5) 0.1799(4) 0.2265(3)
C18_4 C 0.5340(5) 0.1194(4) 0.1916(3)
H14_3 H 0.4964 0.0796 0.1977
C19_4 C 0.5857(5) 0.1160(4) 0.1482(3)
H15_4 H 0.5838 0.0739 0.1250
C20_3 C 0.4832(5) 0.1800(5) 0.2767(3)
C21_4 C 0.8126(4) 0.0282(4) 0.0095(3)
C28_3 C 0.3824(4) 0.0196(4) 0.4448(3)
C55_3 C 0.1709(7) 0.1880(7) 0.4139(5)
C56_3 C 0.0708(7) 0.1683(7) 0.3457(5)
H35_3 H 0.0234 0.1342 0.3492
H36_3 H 0.0836 0.1754 0.3076
C57_3 C 0.0546(8) 0.2464(7) 0.3744(6)
H37_3 H 0.0616 0.2884 0.3491
C58_3 C 0.1148(10) 0.2523(9) 0.4179(6)
H39_3 H 0.1456 0.3000 0.4149
H40_3 H 0.0865 0.2517 0.4527
C59_3 C 0.1838(10) 0.0705(8) 0.3554(6)
H41_3 H 0.1469 0.0437 0.3313
H42_3 H 0.1977 0.0379 0.3854
H43_3 H 0.2338 0.0844 0.3363
C60_4 C 0.4140(11) 0.0503(9) 0.6405(7)
C61_4 C 0.3446(11) 0.0088(10) 0.6693(7)
H44_4 H 0.3021 0.0440 0.6822
H47_4 H 0.3766 0.0003 0.7475
H48_3 H 0.5130 0.0077 0.7335
N2_4 N 0.4773(13) 0.0198(11) 0.6574(8)
C64_3 C 0.5568(13) 0.0489(12) 0.6269(9)
H50_3 H 0.5412 0.0680 0.5918
H51_3 H 0.5955 0.0074 0.6227
H52_3 H 0.5824 0.0893 0.6474
O25_2 O 0.3908(4) 0.2699(3) 0.4876(2)
O2_2 O 0.8780(4) 0.5166(3) 0.8725(2)
C1_4 C 0.8469(4) 0.5179(4) 0.9182(3)
C2_4 C 0.8304(5) 0.4458(4) 0.9462(3)
C5_4 C 0.8008(5) 0.3106(4) 0.9998(3)
C6_4 C 0.8198(6) 0.3117(5) 0.9464(4)
H7_4 H 0.8226 0.2655 0.9277
C7_4 C 0.8349(6) 0.3784(5) 0.9191(4)
H8_4 H 0.8480 0.3775 0.8824
H11_4 H 0.8496 0.1677 0.9820
C22_4 C 0.8911(6) 0.0162(5) 0.9943(4)
H16_4 H 0.9298 0.0557 0.9971
C26_4 C 0.7577(6) 0.9698(5) 0.0038(4)
H19_4 H 0.7023 0.9764 0.0142
C29_3 C 0.4024(4) 0.9467(4) 0.4720(3)
C30_4 C 0.3944(5) 0.9407(4) 0.5262(3)
H20_4 H 0.3733 0.9821 0.5457
C31_4 C 0.4161(5) 0.8766(4) 0.5530(3)
H21_4 H 0.4086 0.8736 0.5904
C32_4 C 0.4497(4) 0.8150(4) 0.5247(3)
C33_3 C 0.4570(4) 0.8211(4) 0.4707(3)
H22_3 H 0.4787 0.7802 0.4510
C34_3 C 0.4332(4) 0.8866(4) 0.4438(3)
H23_3 H 0.4383 0.8896 0.4063
C35_4 C 0.4763(5) 0.7467(4) 0.5538(3)
C36_4 C 0.5182(5) 0.7532(4) 0.6024(3)
H24_4 H 0.5299 0.8018 0.6161
C37_4 C 0.5430(5) 0.6903(4) 0.6310(3)
C38_4 C 0.5285(5) 0.6192(4) 0.6082(3)
H25_4 H 0.5476 0.5754 0.6259
C39_4 C 0.4867(5) 0.6116(4) 0.5599(3)
C40_4 C 0.4619(4) 0.6749(4) 0.5336(3)
H26_4 H 0.4342 0.6699 0.5007
C41_4 C 0.5841(5) 0.7000(4) 0.6823(3)
C42_4 C 0.5531(6) 0.7486(5) 0.7205(4)
H27_4 H 0.5047 0.7760 0.7130
C43_4 C 0.5908(5) 0.7580(5) 0.7690(4)
H28_4 H 0.5702 0.7941 0.7933
C44_4 C 0.6583(4) 0.7154(4) 0.7827(3)
C45_4 C 0.6905(5) 0.6685(5) 0.7445(3)
H29_4 H 0.7397 0.6424 0.7522
C46_4 C 0.6553(5) 0.6580(4) 0.6962(3)
H30_4 H 0.6779 0.6229 0.6719
C47_4 C 0.6951(5) 0.7247(4) 0.8372(3)
C48_4 C 0.4708(5) 0.5366(4) 0.5366(3)
C49_4 C 0.4498(5) 0.4732(4) 0.5680(3)
H31_4 H 0.4471 0.4777 0.6056
C50_4 C 0.4330(5) 0.4046(4) 0.5438(3)
H32_4 H 0.4178 0.3627 0.5650
C51_3 C 0.4382(4) 0.3966(4) 0.4903(3)
C52_3 C 0.4595(4) 0.4591(4) 0.4584(3)
H33_3 H 0.4631 0.4542 0.4209
C53_3 C 0.4749(5) 0.5276(4) 0.4825(3)
H34_3 H 0.4888 0.5696 0.4611
C54_3 C 0.4178(4) 0.3238(4) 0.4616(3)
H45_4 H 0.3190 0.9703 0.6463
C62_4 C 0.3910(16) 0.9743(17) 0.7140(11)
H46_4 H 0.3749 0.9209 0.7176
C63_4 C 0.4846(13) 0.9791(15) 0.7052(11)
H49_4 H 0.5105 0.9294 0.7003
O15_4 O 0.9702(6) 0.5964(4) 0.7776(3)
H1_4 H 0.9293 0.5845 0.7608
C23_4 C 0.9147(6) 0.9483(5) 0.9751(4)
H17_4 H 0.9708 0.9413 0.9669
C24_4 C 0.8621(4) 0.8889(4) 0.9669(3)
C25_4 C 0.7830(6) 0.9011(5) 0.9830(4)
H18_4 H 0.7444 0.8615 0.9798
C27_4 C 0.8882(4) 0.8160(4) 0.9440(3)
O9 O 0.0700(3) 0.6781(3) 0.9114(2)
O10_2 O 0.1092(4) 0.7301(3) 0.9876(2)
C29_4 C 0.0976(4) 0.0533(4) 0.9720(3)
C33_4 C 0.0430(4) 0.1789(4) 0.9707(3)
H22_4 H 0.0213 0.2198 0.9510
C34_4 C 0.0668(4) 0.1134(4) 0.9438(3)
H23_4 H 0.0617 0.1104 0.9063
C51_4 C 0.0618(4) 0.6034(4) 0.9903(3)
C52_4 C 0.0405(4) 0.5409(4) 0.9584(3)
H33_4 H 0.0369 0.5458 0.9209
C53_4 C 0.0251(5) 0.4724(4) 0.9825(3)
H34_4 H 0.0112 0.4304 0.9611
C54_4 C 0.0822(4) 0.6762(4) 0.9616(3)
Ba12 Ba 0.11209(2) 0.82309(2) 0.88654(2)
O5_2 O 0.0036(4) 0.7684(4) 0.8088(2)
O6_4 O 0.0704(4) 0.8672(3) 0.7817(2)
O7_4 O 0.1153(4) 0.9776(3) 0.8951(2)
O8_4 O 0.1353(4) 0.9236(3) 0.9732(2)
O14_4 O 0.2651(4) 0.8168(5) 0.9393(3)
O16_4 O 0.2258(6) 0.7482(7) 0.8268(4)
H3_4 H 0.2103 0.7193 0.8035
H4_4 H 0.2694 0.7395 0.8120
N1_4 N 0.3575(6) 0.8600(5) 0.8755(4)
H14_4 H 0.0036 0.9204 0.6977
C20_4 C 0.0168(5) 0.8200(5) 0.7767(3)
C28_4 C 0.1176(4) 0.9804(4) 0.9448(3)
C55_4 C 0.3291(7) 0.8120(7) 0.9139(5)
C56_4 C 0.4292(7) 0.8317(7) 0.8457(5)
H35_4 H 0.4766 0.8658 0.8492
H36_4 H 0.4164 0.8246 0.8076
C57_4 C 0.4454(8) 0.7536(7) 0.8744(6)
H37_4 H 0.4384 0.7116 0.8491
H38_3 H 0.5016 0.7519 0.8888
C58_4 C 0.3852(10) 0.7477(9) 0.9179(6)
H39_4 H 0.3544 0.7000 0.9149
H40_4 H 0.4135 0.7483 0.9527
C59_4 C 0.3162(10) 0.9295(8) 0.8554(6)
H41_4 H 0.3531 0.9563 0.8313
H42_4 H 0.3023 0.9621 0.8854
H43_4 H 0.2662 0.9156 0.8363
H2_4 H 0.0193 0.5884 0.7747
H48_4 H 0.9870 0.9923 0.2335
C64_4 C 0.9432(13) 0.9511(12) 0.1269(9)
H50_4 H 0.9588 0.9320 0.0918
H51_4 H 0.9045 0.9926 0.1227
H52_4 H 0.9176 0.9107 0.1474
H38_4 H 0.9984 0.2481 0.3888
loop_
_geom_bond_atom_site_label_1
_geom_bond_atom_site_label_2
_geom_bond_site_symmetry_1
_geom_bond_site_symmetry_2
O1 C1 1_555 1_555
O2 C1 1_555 1_555
Ba5 O1 1_555 1_555
Ba11 O1 1_555 1_555
O2 Ba5 1_555 1_555
Ba5 O3 1_555 1_555
Ba3 O5 1_555 1_555
O3 C27 1_555 1_555
O4 Ba5 1_555 1_555
O5 C20 1_555 1_555
O6 Ba3 1_555 1_555
O7 Ba3 1_555 1_555
O8 Ba3 1_555 1_555
O15 Ba5 1_555 1_555
H1 O15 1_555 1_555
O16 Ba3 1_555 1_555
H3 O16 1_555 1_555
H4 O16 1_555 1_555
N1 C55 1_555 1_555
C2 C3 1_555 1_555
C3 H5 1_555 1_555
C4 C3 1_555 1_555
H6 C4 1_555 1_555
C5 C4 1_555 1_555
C6 C5 1_555 1_555
H7 C6 1_555 1_555
C7 C2 1_555 1_555
H8 C7 1_555 1_555
C8 C5 1_555 1_555
C9 C8 1_555 1_555
H9 C9 1_555 1_555
C10 C9 1_555 1_555
C11 C10 1_555 1_555
H10 C11 1_555 1_555
C12 C11 1_555 1_555
C13 C8 1_555 1_555
H11 C13 1_555 1_555
C14 C10 1_555 1_555
C15 C14 1_555 1_555
H12 C15 1_555 1_555
C16 C15 1_555 1_555
H13 C16 1_555 1_555
C17 C16 1_555 1_555
C18 C17 1_555 1_555
H14 C18 1_555 1_555
C19 C14 1_555 1_555
H15 C19 1_555 1_555
C20 O6 1_555 1_555
C21 C12 1_555 1_555
C22 C21 1_555 1_555
H16 C22 1_555 1_555
C23 C22 1_555 1_555
H17 C23 1_555 1_555
C24 C23 1_555 1_555
C25 C24 1_555 1_555
H18 C25 1_555 1_555
C26 C21 1_555 1_555
H19 C26 1_555 1_555
C27 O4 1_555 1_555
C28 O7 1_555 1_555
C29 C28 1_555 1_555
H22 C33 1_555 1_555
C34 C29 1_555 1_555
H23 C34 1_555 1_555
H34 C53 1_555 1_555
C55 O14 1_555 1_555
C56 N1 1_555 1_555
H35 C56 1_555 1_555
H36 C56 1_555 1_555
C57 C56 1_555 1_555
H37 C57 1_555 1_555
C58 C55 1_555 1_555
H39 C58 1_555 1_555
H40 C58 1_555 1_555
C59 N1 1_555 1_555
H41 C59 1_555 1_555
H42 C59 1_555 1_555
H43 C59 1_555 1_555
Ba7 O5 1_555 1_555
Ba11 O4 1_555 1_555
O20 Ba3 1_555 1_555
O23 Ba3 1_555 1_555
O26 Ba5 1_555 1_555
Ba3 O14 1_555 1_555
Ba3 O25 1_555 1_555
O8 C28 1_555 1_555
C6 C7 1_555 1_555
C12 C13 1_555 1_555
C17 C20 1_555 1_555
C18 C19 1_555 1_555
C24 C27 1_555 1_555
C25 C26 1_555 1_555
C33 C34 1_555 1_555
C57 C58 1_555 1_555
Ba7 O20 1_555 1_555
Ba7 O23 1_555 1_555
Ba11 O26 1_555 1_555
O26 C47 1_555 1_555
O12 C47 1_555 1_555
O13 Ba2 1_555 1_555
H20 C30 1_555 1_555
C31 C30 1_555 1_555
H21 C31 1_555 1_555
C32 C31 1_555 1_555
C35 C32 1_555 1_555
C36 C35 1_555 1_555
H24 C36 1_555 1_555
C37 C36 1_555 1_555
C38 C37 1_555 1_555
H25 C38 1_555 1_555
C39 C38 1_555 1_555
C40 C35 1_555 1_555
H26 C40 1_555 1_555
C41 C37 1_555 1_555
C42 C41 1_555 1_555
H27 C42 1_555 1_555
C43 C42 1_555 1_555
H28 C43 1_555 1_555
C44 C43 1_555 1_555
C45 C44 1_555 1_555
H29 C45 1_555 1_555
C46 C41 1_555 1_555
H30 C46 1_555 1_555
C47 C44 1_555 1_555
C48 C39 1_555 1_555
C60 O13 1_555 1_555
C61 C60 1_555 1_555
H44 C61 1_555 1_555
H45 C61 1_555 1_555
C62 C61 1_555 1_555
H46 C62 1_555 1_555
H47 C62 1_555 1_555
C63 C62 1_555 1_555
H48 C63 1_555 1_555
H49 C63 1_555 1_555
N2 C60 1_555 1_555
C64 N2 1_555 1_555
H50 C64 1_555 1_555
H51 C64 1_555 1_555
H52 C64 1_555 1_555
O18 Ba2 1_555 1_555
O21 Ba2 1_555 1_555
O27 Ba2 1_555 1_555
O28 Ba2 1_555 1_555
O12 Ba11 1_555 1_555
C39 C40 1_555 1_555
C45 C46 1_555 1_555
C63 N2 1_555 1_555
O23 C54 1_555 1_555
O25 C54 1_555 1_555
C52 C51 1_555 1_555
H33 C52 1_555 1_555
C54 C51 1_555 1_555
H31 C49 1_555 1_555
C50 C49 1_555 1_555
H32 C50 1_555 1_555
Ba13 O22 1_555 1_555
Ba13 O24 1_555 1_555
O20 C27_2 1_555 1_555
O4_2 Ba7 1_555 1_555
O15_2 Ba7 1_555 1_555
H1_2 O15_2 1_555 1_555
H2_2 O15_2 1_555 1_555
C6_2 C5_2 1_555 1_555
H7_2 C6_2 1_555 1_555
C7_2 C2_2 1_555 1_555
H8_2 C7_2 1_555 1_555
H16_2 C22_2 1_555 1_555
C23_2 C22_2 1_555 1_555
H17_2 C23_2 1_555 1_555
C24_2 C23_2 1_555 1_555
C25_2 C24_2 1_555 1_555
H18_2 C25_2 1_555 1_555
C27_2 O4_2 1_555 1_555
Ba10 O4_2 1_555 1_555
O17 Ba7 1_555 1_555
O19 Ba7 1_555 1_555
O26_2 Ba7 1_555 1_555
C6_2 C7_2 1_555 1_555
C24_2 C27_2 1_555 1_555
Ba10 O17 1_555 1_555
Ba10 O26_2 1_555 1_555
O26_2 C47_2 1_555 1_555
O12_2 C47_2 1_555 1_555
C3_2 H5_2 1_555 1_555
C4_2 C3_2 1_555 1_555
H6_2 C4_2 1_555 1_555
C9_2 C8_2 1_555 1_555
H9_2 C9_2 1_555 1_555
C10_2 C9_2 1_555 1_555
C11_2 C10_2 1_555 1_555
H10_2 C11_2 1_555 1_555
C12_2 C11_2 1_555 1_555
C13_2 C8_2 1_555 1_555
C14_2 C10_2 1_555 1_555
C15_2 C14_2 1_555 1_555
H12_2 C15_2 1_555 1_555
C16_2 C15_2 1_555 1_555
H13_2 C16_2 1_555 1_555
C17_2 C16_2 1_555 1_555
C18_2 C17_2 1_555 1_555
C19_2 C14_2 1_555 1_555
H15_2 C19_2 1_555 1_555
C21_2 C12_2 1_555 1_555
C26_2 C21_2 1_555 1_555
H19_2 C26_2 1_555 1_555
H24_2 C36_2 1_555 1_555
C37_2 C36_2 1_555 1_555
C38_2 C37_2 1_555 1_555
H25_2 C38_2 1_555 1_555
C41_2 C37_2 1_555 1_555
C42_2 C41_2 1_555 1_555
H27_2 C42_2 1_555 1_555
C43_2 C42_2 1_555 1_555
H28_2 C43_2 1_555 1_555
C44_2 C43_2 1_555 1_555
C45_2 C44_2 1_555 1_555
H29_2 C45_2 1_555 1_555
C46_2 C41_2 1_555 1_555
H30_2 C46_2 1_555 1_555
C47_2 C44_2 1_555 1_555
H50_2 C64_2 1_555 1_555
H51_2 C64_2 1_555 1_555
H52_2 C64_2 1_555 1_555
O12_2 Ba10 1_555 1_555
C12_2 C13_2 1_555 1_555
C18_2 C19_2 1_555 1_555
C45_2 C46_2 1_555 1_555
O17 C1_2 1_555 1_555
O19 C1_2 1_555 1_555
O24 C54_2 1_555 1_555
O10 C54_2 1_555 1_555
H31_2 C49_2 1_555 1_555
C50_2 C49_2 1_555 1_555
H32_2 C50_2 1_555 1_555
C51_2 C50_2 1_555 1_555
C52_2 C51_2 1_555 1_555
H33_2 C52_2 1_555 1_555
C54_2 C51_2 1_555 1_555
Ba8 O10 1_555 1_555
O10 Ba13 1_555 1_555
Ba8 O8_2 1_555 1_555
O22 C20_2 1_555 1_555
O6_2 Ba13 1_555 1_555
O7_2 Ba13 1_555 1_555
O8_2 Ba13 1_555 1_555
O13_2 Ba8 1_555 1_555
O14_2 Ba8 1_555 1_555
O16_2 Ba13 1_555 1_555
H3_2 O16_2 1_555 1_555
H4_2 O16_2 1_555 1_555
N1_2 C55_2 1_555 1_555
C20_2 O6_2 1_555 1_555
C28_2 O7_2 1_555 1_555
C29_2 C28_2 1_555 1_555
C30_2 C29_2 1_555 1_555
H20_2 C30_2 1_555 1_555
C31_2 C30_2 1_555 1_555
H21_2 C31_2 1_555 1_555
C32_2 C31_2 1_555 1_555
C33_2 C32_2 1_555 1_555
H22_2 C33_2 1_555 1_555
C34_2 C29_2 1_555 1_555
H23_2 C34_2 1_555 1_555
C35_2 C32_2 1_555 1_555
C40_2 C35_2 1_555 1_555
H26_2 C40_2 1_555 1_555
C48_2 C39_2 1_555 1_555
C53_2 C48_2 1_555 1_555
H34_2 C53_2 1_555 1_555
C55_2 O14_2 1_555 1_555
C56_2 N1_2 1_555 1_555
H35_2 C56_2 1_555 1_555
H36_2 C56_2 1_555 1_555
C57_2 C56_2 1_555 1_555
H37_2 C57_2 1_555 1_555
H38_2 C57_2 1_555 1_555
C58_2 C55_2 1_555 1_555
H39_2 C58_2 1_555 1_555
H40_2 C58_2 1_555 1_555
C59_2 N1_2 1_555 1_555
H41_2 C59_2 1_555 1_555
H42_2 C59_2 1_555 1_555
H43_2 C59_2 1_555 1_555
C60_2 O13_2 1_555 1_555
C61_2 C60_2 1_555 1_555
H44_2 C61_2 1_555 1_555
H45_2 C61_2 1_555 1_555
C62_2 C61_2 1_555 1_555
H46_2 C62_2 1_555 1_555
H47_2 C62_2 1_555 1_555
C63_2 C62_2 1_555 1_555
N2_2 C60_2 1_555 1_555
O18_2 Ba8 1_555 1_555
O21_2 Ba8 1_555 1_555
O27_2 Ba8 1_555 1_555
O28_2 Ba8 1_555 1_555
Ba13 O14_2 1_555 1_555
O8_2 C28_2 1_555 1_555
C33_2 C34_2 1_555 1_555
C39_2 C40_2 1_555 1_555
C57_2 C58_2 1_555 1_555
C63_2 N2_2 1_555 1_555
H20_3 C30_3 1_555 1_555
C31_3 C30_3 1_555 1_555
H21_3 C31_3 1_555 1_555
C32_3 C31_3 1_555 1_555
C35_3 C32_3 1_555 1_555
C40_3 C35_3 1_555 1_555
H26_3 C40_3 1_555 1_555
C48_3 C39_3 1_555 1_555
C49_3 C48_3 1_555 1_555
H31_3 C49_3 1_555 1_555
C50_3 C49_3 1_555 1_555
H32_3 C50_3 1_555 1_555
H46_3 C62_3 1_555 1_555
C63_3 C62_3 1_555 1_555
C39_3 C40_3 1_555 1_555
O13_3 Ba10 1_555 1_555
C60_3 O13_3 1_555 1_555
C61_3 C60_3 1_555 1_555
H44_3 C61_3 1_555 1_555
N2_3 C60_3 1_555 1_555
O27_2 C47_3 1_555 1_555
O28_2 C47_3 1_555 1_555
H24_3 C36_3 1_555 1_555
C37_3 C36_3 1_555 1_555
C38_3 C37_3 1_555 1_555
H25_3 C38_3 1_555 1_555
C41_3 C37_3 1_555 1_555
C42_3 C41_3 1_555 1_555
H27_3 C42_3 1_555 1_555
C43_3 C42_3 1_555 1_555
H28_3 C43_3 1_555 1_555
C44_3 C43_3 1_555 1_555
C45_3 C44_3 1_555 1_555
H29_3 C45_3 1_555 1_555
C46_3 C41_3 1_555 1_555
H30_3 C46_3 1_555 1_555
C47_3 C44_3 1_555 1_555
Ba4 O27_2 1_555 1_555
C45_3 C46_3 1_555 1_555
Ba4 O3_2 1_555 1_555
O3_2 C27_3 1_555 1_555
O21_2 Ba4 1_555 1_555
O15_3 Ba4 1_555 1_555
H1_3 O15_3 1_555 1_555
H2_3 O15_3 1_555 1_555
H17_3 C23_3 1_555 1_555
C24_3 C23_3 1_555 1_555
C25_3 C24_3 1_555 1_555
H18_3 C25_3 1_555 1_555
H19_3 C26_3 1_555 1_555
C27_3 O21_2 1_555 1_555
Ba13_2 O3_2 1_555 1_555
O18_2 Ba4 1_555 1_555
O19_2 Ba4 1_555 1_555
O22_2 Ba4 1_555 1_555
O24_2 Ba4 1_555 1_555
C24_3 C27_3 1_555 1_555
C25_3 C26_3 1_555 1_555
Ba13_2 O22_2 1_555 1_555
Ba13_2 O24_2 1_555 1_555
O18_2 C1_3 1_555 1_555
O19_2 C1_3 1_555 1_555
C1_3 C2_3 1_555 1_555
C2_3 C3_3 1_555 1_555
C3_3 H5_3 1_555 1_555
C4_3 C3_3 1_555 1_555
H6_3 C4_3 1_555 1_555
C5_3 C4_3 1_555 1_555
C6_3 C5_3 1_555 1_555
H7_3 C6_3 1_555 1_555
C7_3 C2_3 1_555 1_555
H8_3 C7_3 1_555 1_555
C8_3 C5_3 1_555 1_555
C9_3 C8_3 1_555 1_555
H9_3 C9_3 1_555 1_555
C10_3 C9_3 1_555 1_555
C11_3 C10_3 1_555 1_555
H10_3 C11_3 1_555 1_555
C12_3 C11_3 1_555 1_555
C13_3 C8_3 1_555 1_555
H11_3 C13_3 1_555 1_555
C14_3 C10_3 1_555 1_555
C15_3 C14_3 1_555 1_555
H12_3 C15_3 1_555 1_555
C16_3 C15_3 1_555 1_555
H13_3 C16_3 1_555 1_555
C17_3 C16_3 1_555 1_555
C18_3 C17_3 1_555 1_555
C19_3 C14_3 1_555 1_555
H15_3 C19_3 1_555 1_555
C21_3 C12_3 1_555 1_555
C22_3 C21_3 1_555 1_555
H16_3 C22_3 1_555 1_555
C6_3 C7_3 1_555 1_555
C12_3 C13_3 1_555 1_555
C18_3 C19_3 1_555 1_555
Ba6 O20_2 1_555 1_555
Ba11 O8_3 1_555 1_555
O22_2 C20_3 1_555 1_555
O6_3 Ba13_2 1_555 1_555
O7_3 Ba13_2 1_555 1_555
O8_3 Ba13_2 1_555 1_555
O13_4 Ba11 1_555 1_555
O14_3 Ba11 1_555 1_555
O16_3 Ba13_2 1_555 1_555
H3_3 O16_3 1_555 1_555
H4_3 O16_3 1_555 1_555
N1_3 C55_3 1_555 1_555
C3_4 H5_4 1_555 1_555
C4_4 C3_4 1_555 1_555
H6_4 C4_4 1_555 1_555
C9_4 C8_4 1_555 1_555
H9_4 C9_4 1_555 1_555
C10_4 C9_4 1_555 1_555
C11_4 C10_4 1_555 1_555
H10_4 C11_4 1_555 1_555
C12_4 C11_4 1_555 1_555
C13_4 C8_4 1_555 1_555
C14_4 C10_4 1_555 1_555
C15_4 C14_4 1_555 1_555
H12_4 C15_4 1_555 1_555
C16_4 C15_4 1_555 1_555
H13_4 C16_4 1_555 1_555
C17_4 C16_4 1_555 1_555
C18_4 C17_4 1_555 1_555
H14_3 C18_4 1_555 1_555
C19_4 C14_4 1_555 1_555
H15_4 C19_4 1_555 1_555
C20_3 O6_3 1_555 1_555
C21_4 C12_4 1_555 1_555
C28_3 O7_3 1_555 1_555
C55_3 O14_3 1_555 1_555
C56_3 N1_3 1_555 1_555
H35_3 C56_3 1_555 1_555
H36_3 C56_3 1_555 1_555
C57_3 C56_3 1_555 1_555
H37_3 C57_3 1_555 1_555
C58_3 C55_3 1_555 1_555
H39_3 C58_3 1_555 1_555
H40_3 C58_3 1_555 1_555
C59_3 N1_3 1_555 1_555
H41_3 C59_3 1_555 1_555
H42_3 C59_3 1_555 1_555
H43_3 C59_3 1_555 1_555
C60_4 O13_4 1_555 1_555
C61_4 C60_4 1_555 1_555
H44_4 C61_4 1_555 1_555
N2_4 C60_4 1_555 1_555
C64_3 N2_4 1_555 1_555
H50_3 C64_3 1_555 1_555
H51_3 C64_3 1_555 1_555
H52_3 C64_3 1_555 1_555
O25_2 Ba11 1_555 1_555
Ba13_2 O14_3 1_555 1_555
Ba13_2 O25_2 1_555 1_555
O8_3 C28_3 1_555 1_555
C12_4 C13_4 1_555 1_555
C17_4 C20_3 1_555 1_555
C18_4 C19_4 1_555 1_555
C57_3 C58_3 1_555 1_555
O18 C1_4 1_555 1_555
O2_2 C1_4 1_555 1_555
C1_4 C2_4 1_555 1_555
C6_4 C5_4 1_555 1_555
H7_4 C6_4 1_555 1_555
C7_4 C2_4 1_555 1_555
H8_4 C7_4 1_555 1_555
H16_4 C22_4 1_555 1_555
Ba6 O18 1_555 1_555
O2_2 Ba6 1_555 1_555
C6_4 C7_4 1_555 1_555
O24_2 C54_3 1_555 1_555
O25_2 C54_3 1_555 1_555
O27 C47_4 1_555 1_555
O28 C47_4 1_555 1_555
H19_4 C26_4 1_555 1_555
C30_4 C29_3 1_555 1_555
H20_4 C30_4 1_555 1_555
C31_4 C30_4 1_555 1_555
H21_4 C31_4 1_555 1_555
C32_4 C31_4 1_555 1_555
C33_3 C32_4 1_555 1_555
H22_3 C33_3 1_555 1_555
C34_3 C29_3 1_555 1_555
H23_3 C34_3 1_555 1_555
C35_4 C32_4 1_555 1_555
C36_4 C35_4 1_555 1_555
H24_4 C36_4 1_555 1_555
C37_4 C36_4 1_555 1_555
C38_4 C37_4 1_555 1_555
H25_4 C38_4 1_555 1_555
C39_4 C38_4 1_555 1_555
C40_4 C35_4 1_555 1_555
H26_4 C40_4 1_555 1_555
C41_4 C37_4 1_555 1_555
C42_4 C41_4 1_555 1_555
H27_4 C42_4 1_555 1_555
C43_4 C42_4 1_555 1_555
H28_4 C43_4 1_555 1_555
C44_4 C43_4 1_555 1_555
C45_4 C44_4 1_555 1_555
H29_4 C45_4 1_555 1_555
C46_4 C41_4 1_555 1_555
H30_4 C46_4 1_555 1_555
C47_4 C44_4 1_555 1_555
C48_4 C39_4 1_555 1_555
C49_4 C48_4 1_555 1_555
H31_4 C49_4 1_555 1_555
C50_4 C49_4 1_555 1_555
H32_4 C50_4 1_555 1_555
C51_3 C50_4 1_555 1_555
C52_3 C51_3 1_555 1_555
H33_3 C52_3 1_555 1_555
C53_3 C48_4 1_555 1_555
H34_3 C53_3 1_555 1_555
C54_3 C51_3 1_555 1_555
H46_4 C62_4 1_555 1_555
C63_4 C62_4 1_555 1_555
H49_4 C63_4 1_555 1_555
Ba6 O27 1_555 1_555
C33_3 C34_3 1_555 1_555
C39_4 C40_4 1_555 1_555
C45_4 C46_4 1_555 1_555
C52_3 C53_3 1_555 1_555
O20_2 C27_4 1_555 1_555
O21 Ba6 1_555 1_555
O15_4 Ba6 1_555 1_555
H1_4 O15_4 1_555 1_555
H17_4 C23_4 1_555 1_555
C24_4 C23_4 1_555 1_555
C25_4 C24_4 1_555 1_555
H18_4 C25_4 1_555 1_555
C27_4 O21 1_555 1_555
C24_4 C27_4 1_555 1_555
O9 C54_4 1_555 1_555
O10_2 C54_4 1_555 1_555
H22_4 C33_4 1_555 1_555
C34_4 C29_4 1_555 1_555
H23_4 C34_4 1_555 1_555
C52_4 C51_4 1_555 1_555
H33_4 C52_4 1_555 1_555
H34_4 C53_4 1_555 1_555
C54_4 C51_4 1_555 1_555
Ba12 O9 1_555 1_555
O10_2 Ba12 1_555 1_555
C33_4 C34_4 1_555 1_555
C52_4 C53_4 1_555 1_555
Ba12 O5_2 1_555 1_555
O5_2 C20_4 1_555 1_555
O6_4 Ba12 1_555 1_555
O7_4 Ba12 1_555 1_555
O8_4 Ba12 1_555 1_555
O16_4 Ba12 1_555 1_555
H3_4 O16_4 1_555 1_555
H4_4 O16_4 1_555 1_555
N1_4 C55_4 1_555 1_555
C20_4 O6_4 1_555 1_555
C28_4 O7_4 1_555 1_555
C55_4 O14_4 1_555 1_555
C56_4 N1_4 1_555 1_555
H35_4 C56_4 1_555 1_555
H36_4 C56_4 1_555 1_555
C57_4 C56_4 1_555 1_555
H37_4 C57_4 1_555 1_555
H38_3 C57_4 1_555 1_555
C58_4 C55_4 1_555 1_555
H39_4 C58_4 1_555 1_555
H40_4 C58_4 1_555 1_555
C59_4 N1_4 1_555 1_555
H41_4 C59_4 1_555 1_555
H42_4 C59_4 1_555 1_555
H43_4 C59_4 1_555 1_555
Ba12 O14_4 1_555 1_555
O8_4 C28_4 1_555 1_555
C57_4 C58_4 1_555 1_555
H50_4 C64_4 1_555 1_555
H51_4 C64_4 1_555 1_555
H52_4 C64_4 1_555 1_555

#END
