
###############################################################################
#
# This file contains modified crystal structure data generated from the
# MOF subset of the Cambridge Structural Database (CSD) v543 
# hosted by the Cambridge Crystallographic Data Centre (CCDC).
#
# This work is licensed under the Creative Commons
# Attribution-NonCommercial-ShareAlike 4.0 International License.
# To view a copy of this license, visit
# http://creativecommons.org/licenses/by-nc-sa/4.0/
# or send a letter to
# Creative Commons, PO Box 1866, Mountain View, CA 94042, USA.
#
# CIF created using the CSD Python API on 29 September 2022
# The structure has been converted into the P1 space group
# The structure has a 3D framework
# The original CSD entry QALHIX is in the tetragonal crystal system
# The framework has been calculated to contain at least 10.0% void space
# The void calculation uses a probe of radius 1.32A, grid spacing 0.4
# The framework is charged, counterions have been retained in the structure
# H atom positions have been added when not included in the experimental data
# Generated hydrogen atom positions removed from atoms on special positions
#
###############################################################################

data_QALHIX
_chemical_formula_moiety         '(C432 H240 Cd26 N96 O204 41-)n'
_symmetry_cell_setting           triclinic
_symmetry_space_group_name_H-M   'P 1'
_symmetry_Int_Tables_number      1
_space_group_name_Hall           'P 1'
loop_
_symmetry_equiv_pos_site_id
_symmetry_equiv_pos_as_xyz
1 x,y,z
_cell_length_a                   32.9676(3)
_cell_length_b                   32.9676(3)
_cell_length_c                   26.6956(4)
_cell_angle_alpha                90
_cell_angle_beta                 90
_cell_angle_gamma                90
_cell_volume                     29014.5
loop_
_atom_site_label
_atom_site_type_symbol
_atom_site_fract_x
_atom_site_fract_y
_atom_site_fract_z
Cd1 Cd 0.5000 0.5000 0.661272(14)
Cd2 Cd 0.358145(11) 0.370581(12) 0.062763(13)
O1 O 0.32035(14) 0.37225(13) 0.70810(12)
O2 O 0.45824(10) 0.47416(10) 0.27291(13)
O3 O 0.17762(13) 0.19422(12) 0.54541(12)
O4 O 0.33309(11) 0.37127(13) 0.14498(13)
O5 O 0.43907(10) 0.46175(13) 0.67499(14)
O6 O 0.43874(10) 0.46219(12) 0.34995(12)
O7 O 0.45709(11) 0.47395(12) 0.59804(13)
O8 O 0.28846(14) 0.34340(13) 0.64638(13)
O9 O 0.38810(13) 0.40744(14) 0.13107(13)
O10 O 0.21012(13) 0.26122(14) 0.29409(13)
O11 O 0.16701(13) 0.21100(13) 0.31057(13)
O12 O 0.15307(16) 0.15884(14) 0.48347(15)
O13 O 0.42713(13) 0.36371(17) 0.03440(16)
O14 O 0.40061(11) 0.31608(15) 0.08173(15)
C1 C 0.43433(16) 0.45774(15) 0.30442(18)
C2 C 0.31499(18) 0.36828(19) 0.6618(2)
N1 N 0.31667(18) 0.3657(2) 0.33032(15)
H1 H 0.2992 0.3514 0.3142
O15 O 0.62085(14) 0.22783(16) 0.26260(18)
N2 N 0.2899(2) 0.3343(2) 0.39670(18)
C3 C 0.36243(15) 0.39288(17) 0.15959(19)
N3 N 0.3559(2) 0.4047(2) 0.48914(17)
H2 H 0.3692 0.4228 0.4728
C4 C 0.17476(18) 0.18779(16) 0.4994(2)
C5 C 0.34386(19) 0.3889(2) 0.3000(2)
N4 N 0.3369(2) 0.3876(2) 0.41032(16)
C6 C 0.1945(2) 0.21525(19) 0.4633(2)
C7 C 0.43438(17) 0.45761(15) 0.62919(17)
C8 C 0.39172(18) 0.4294(2) 0.55859(19)
H3 H 0.4090 0.4423 0.5361
C9 C 0.19396(19) 0.23700(19) 0.3244(2)
O16 O 0.66929(15) 0.19768(18) 0.30334(17)
C10 C 0.3736(2) 0.4138(2) 0.3180(2)
H4 H 0.3762 0.4182 0.3523
N5 N 0.3084(2) 0.3530(2) 0.47998(17)
C11 C 0.42964(19) 0.3304(2) 0.0559(2)
C12 C 0.40025(17) 0.43283(17) 0.2841(2)
C13 C 0.20244(19) 0.24006(19) 0.3788(2)
C14 C 0.3595(2) 0.4066(2) 0.54109(19)
C15 C 0.39610(16) 0.42648(16) 0.23326(18)
H5 H 0.4140 0.4387 0.2110
C16 C 0.39864(17) 0.43326(18) 0.61146(19)
C17 C 0.3338(2) 0.3863(2) 0.5746(2)
C18 C 0.6346(2) 0.1961(2) 0.2830(3)
C19 C 0.36491(17) 0.40156(17) 0.21533(18)
C20 C 0.34067(16) 0.39046(17) 0.62649(18)
C21 C 0.2208(2) 0.2450(2) 0.4800(2)
H6 H 0.2266 0.2468 0.5140
C22 C 0.3144(3) 0.3630(3) 0.3834(2)
C23 C 0.1851(2) 0.21249(17) 0.4137(2)
H7 H 0.1673 0.1925 0.4026
C24 C 0.33917(18) 0.38314(19) 0.24890(18)
H8 H 0.3184 0.3666 0.2372
C25 C 0.3337(3) 0.3776(3) 0.4599(2)
C26 C 0.2302(2) 0.2690(2) 0.39564(19)
H9 H 0.2430 0.2861 0.3728
C27 C 0.2388(2) 0.2725(3) 0.4467(2)
C28 C 0.6100(2) 0.1581(2) 0.2822(3)
C29 C 0.4679(2) 0.3063(3) 0.0537(3)
C30 C 0.4989(2) 0.3183(3) 0.0209(2)
H10 H 0.4960 0.3415 0.0016
O17 O 0.22060(14) 0.17357(18) 0.2350(2)
O18 O 0.24879(14) 0.22485(18) 0.1941(2)
C31 C 0.2884(3) 0.3295(3) 0.4466(2)
N6 N 0.2641(3) 0.3011(2) 0.46785(18)
H11 H 0.2645 0.3008 0.5001
C32 C 0.37348(17) 0.41471(18) 0.64345(17)
H12 H 0.3776 0.4178 0.6777
N7 N 0.52006(19) 0.2188(3) 0.1150(3)
H13 H 0.5452 0.2118 0.1158
N8 N 0.39346(16) 0.1843(3) 0.1711(3)
H14 H 0.3858 0.2022 0.1497
N9 N 0.5069(2) 0.1267(3) 0.2439(4)
H15 H 0.4904 0.1099 0.2577
C33 C 0.5399(2) 0.2630(3) 0.0483(3)
H16 H 0.5645 0.2492 0.0467
C34 C 0.5466(2) 0.1254(3) 0.2609(4)
C35 C 0.4348(2) 0.1777(4) 0.1742(4)
N10 N 0.45588(19) 0.2017(3) 0.1414(3)
C36 C 0.4950(2) 0.1983(3) 0.1458(4)
C37 C 0.5706(2) 0.1596(2) 0.2596(3)
H17 H 0.5615 0.1832 0.2442
C38 C 0.47371(19) 0.2731(2) 0.0828(3)
H18 H 0.4528 0.2652 0.1040
C39 C 0.5103(2) 0.2497(3) 0.0826(3)
N11 N 0.51452(16) 0.1714(2) 0.1770(3)
C40 C 0.3665(2) 0.1337(3) 0.2292(4)
H19 H 0.3915 0.1208 0.2327
C41 C 0.2907(2) 0.1705(3) 0.2200(3)
N12 N 0.4496(2) 0.1519(2) 0.2062(3)
C42 C 0.3242(2) 0.1842(3) 0.1925(3)
H20 H 0.3214 0.2057 0.1703
C43 C 0.24995(18) 0.1917(3) 0.2137(3)
C44 C 0.2960(2) 0.1375(3) 0.2492(3)
H21 H 0.2736 0.1263 0.2653
C45 C 0.6234(2) 0.1229(3) 0.3030(3)
H22 H 0.6490 0.1222 0.3177
C46 C 0.3623(2) 0.1653(3) 0.1988(4)
C47 C 0.5340(2) 0.2954(4) 0.0173(2)
C48 C 0.6004(2) 0.0887(3) 0.3028(3)
O20 O 0.6491(3) 0.0472(3) 0.3384(6)
C49 C 0.6151(3) 0.0492(3) 0.3232(5)
O21 O 0.5961(3) 0.0201(2) 0.3252(6)
O22 O 0.3732(2) 0.0662(2) 0.2958(4)
C50 C 0.5605(2) 0.0895(3) 0.2814(4)
H23 H 0.5443 0.0663 0.2813
O23 O 0.3098(2) 0.0743(3) 0.3210(4)
C51 C 0.4904(2) 0.1519(3) 0.2070(4)
C52 C 0.3330(3) 0.1202(3) 0.2557(5)
C53 C 0.3394(3) 0.0856(3) 0.2950(5)
Cd4 Cd 0.267138(13) 0.320368(11) 0.722943(13)
O45 O 0.3444(4) 0.4323(2) 0.0307(3)
O50 O 0.2789(3) 0.4096(2) 0.0358(3)
C108 C 0.3069(5) 0.4332(3) 0.0193(4)
Cd10 Cd 0.5000 0.5000 0.338728(14)
Cd11 Cd 0.129419(12) 0.141855(11) 0.562763(13)
O53 O 0.47416(10) 0.54176(10) 0.72709(13)
O54 O 0.52584(10) 0.45824(10) 0.72709(13)
O55 O 0.30578(12) 0.32238(13) 0.04541(12)
O57 O 0.56093(10) 0.53825(13) 0.67499(14)
O58 O 0.46219(12) 0.56126(10) 0.65005(12)
O59 O 0.53781(12) 0.43874(10) 0.65005(12)
O60 O 0.54291(11) 0.52605(12) 0.59804(13)
O61 O 0.23878(14) 0.28988(13) 0.79409(13)
O63 O 0.28900(13) 0.33299(13) 0.81057(13)
O66 O 0.34693(16) 0.65884(14) 0.01653(15)
O67 O 0.22783(16) 0.37915(14) 0.73740(18)
O69 O 0.19768(18) 0.33071(15) 0.69666(17)
O71 O 0.32643(18) 0.27940(14) 0.7350(2)
O73 O 0.27515(18) 0.25121(14) 0.6941(2)
Cd14 Cd 0.34911(4) 0.01994(2) 0.35313(6)
Cd17 Cd 0.179632(11) 0.232862(13) 0.222943(13)
Cd18 Cd 0.679632(11) 0.267138(13) 0.277057(13)
H47 H 0.308949 0.367632 0.560788
H50 H 0.709999 0.0112172 0.421997
O19 O 0.5677(2) 0.3444(4) 0.9693(3)
O24 O 0.5904(2) 0.2789(3) 0.9642(3)
C54 C 0.5668(3) 0.3069(5) 0.9807(4)
Cd5 Cd 0.370581(12) 0.641855(11) 0.937237(13)
O27 O 0.37225(13) 0.67965(14) 0.29190(12)
O29 O 0.19422(12) 0.82238(13) 0.45459(12)
O30 O 0.37127(13) 0.66691(11) 0.85502(13)
O31 O 0.46175(13) 0.56093(10) 0.32501(14)
O33 O 0.47395(12) 0.54291(11) 0.40196(13)
O34 O 0.34340(13) 0.71154(14) 0.35362(13)
O35 O 0.40744(14) 0.61190(13) 0.86893(13)
O36 O 0.26122(14) 0.78988(13) 0.70591(13)
O37 O 0.21100(13) 0.83299(13) 0.68943(13)
O38 O 0.15884(14) 0.84693(16) 0.51653(15)
O39 O 0.36371(17) 0.57287(13) 0.96560(16)
O40 O 0.31608(15) 0.59939(11) 0.91827(15)
C55 C 0.45774(15) 0.56567(16) 0.69558(18)
C56 C 0.36828(19) 0.68501(18) 0.3382(2)
N13 N 0.3657(2) 0.68333(18) 0.66968(15)
H24 H 0.3514 0.7008 0.6858
N14 N 0.3343(2) 0.7101(2) 0.60330(18)
C57 C 0.39288(17) 0.63757(15) 0.84041(19)
N15 N 0.4047(2) 0.6441(2) 0.51086(17)
H25 H 0.4228 0.6308 0.5272
C58 C 0.18779(16) 0.82524(18) 0.5006(2)
C59 C 0.3889(2) 0.65614(19) 0.7000(2)
N16 N 0.3876(2) 0.6631(2) 0.58968(16)
C60 C 0.21525(19) 0.8055(2) 0.5367(2)
C61 C 0.45761(15) 0.56562(17) 0.37081(17)
C62 C 0.4294(2) 0.60828(18) 0.44141(19)
H26 H 0.4423 0.5910 0.4639
C63 C 0.23700(19) 0.80604(19) 0.6756(2)
C64 C 0.4138(2) 0.6264(2) 0.6820(2)
H27 H 0.4182 0.6238 0.6477
N17 N 0.3530(2) 0.6916(2) 0.52002(17)
C65 C 0.3304(2) 0.57036(19) 0.9441(2)
C66 C 0.43283(17) 0.59975(17) 0.7159(2)
C67 C 0.24006(19) 0.79756(19) 0.6212(2)
C68 C 0.4066(2) 0.6405(2) 0.45891(19)
C69 C 0.42648(16) 0.60390(16) 0.76674(18)
H28 H 0.4387 0.5860 0.7890
C70 C 0.43326(18) 0.60136(17) 0.38854(19)
C71 C 0.3863(2) 0.6662(2) 0.4254(2)
C72 C 0.1961(2) 0.3654(2) 0.7170(3)
C73 C 0.40156(17) 0.63509(17) 0.78467(18)
C74 C 0.39046(17) 0.65933(16) 0.37351(18)
C75 C 0.2450(2) 0.7792(2) 0.5200(2)
H29 H 0.2468 0.7734 0.4860
C76 C 0.3630(3) 0.6856(3) 0.6166(2)
C77 C 0.21249(17) 0.8149(2) 0.5863(2)
H30 H 0.1925 0.8327 0.5974
C78 C 0.38314(19) 0.66083(18) 0.75110(18)
H31 H 0.3666 0.6816 0.7628
C79 C 0.3776(3) 0.6663(3) 0.5401(2)
C80 C 0.2690(2) 0.7698(2) 0.60436(19)
H32 H 0.2861 0.7570 0.6272
C81 C 0.2725(3) 0.7612(2) 0.5533(2)
C82 C 0.1581(2) 0.3900(2) 0.7178(3)
C83 C 0.3063(3) 0.5321(2) 0.9463(3)
C84 C 0.3183(3) 0.5011(2) 0.9791(2)
H33 H 0.3415 0.5040 0.9984
O43 O 0.17357(18) 0.77940(14) 0.7650(2)
O44 O 0.22485(18) 0.75121(14) 0.8059(2)
C85 C 0.3295(3) 0.7116(3) 0.5534(2)
N18 N 0.3011(2) 0.7359(3) 0.53215(18)
H34 H 0.3008 0.7355 0.4999
C86 C 0.41471(18) 0.62652(17) 0.35655(17)
H35 H 0.4178 0.6224 0.3223
N19 N 0.2188(3) 0.47994(19) 0.8850(3)
H36 H 0.2118 0.4548 0.8842
N20 N 0.1843(3) 0.60654(16) 0.8289(3)
H37 H 0.2022 0.6142 0.8503
N21 N 0.1267(3) 0.4931(2) 0.7561(4)
H38 H 0.1099 0.5096 0.7423
C87 C 0.2630(3) 0.4601(2) 0.9517(3)
H39 H 0.2492 0.4355 0.9533
C88 C 0.1254(3) 0.4534(2) 0.7391(4)
C89 C 0.1777(4) 0.5652(2) 0.8258(4)
N22 N 0.2017(3) 0.54412(19) 0.8586(3)
C90 C 0.1983(3) 0.5050(2) 0.8542(4)
C91 C 0.1596(2) 0.4294(2) 0.7404(3)
H40 H 0.1832 0.4385 0.7558
C92 C 0.2731(2) 0.52629(19) 0.9172(3)
H41 H 0.2652 0.5472 0.8960
C93 C 0.2497(3) 0.4897(2) 0.9174(3)
N23 N 0.1714(2) 0.48548(16) 0.8230(3)
C94 C 0.1337(3) 0.6335(2) 0.7708(4)
H42 H 0.1208 0.6085 0.7673
C95 C 0.1705(3) 0.7093(2) 0.7800(3)
N24 N 0.1519(2) 0.5504(2) 0.7938(3)
C96 C 0.1842(3) 0.6758(2) 0.8075(3)
H43 H 0.2057 0.6786 0.8297
C97 C 0.1917(3) 0.75005(18) 0.7863(3)
C98 C 0.1375(3) 0.7040(2) 0.7508(3)
H44 H 0.1263 0.7264 0.7347
C99 C 0.1229(3) 0.3766(2) 0.6970(3)
H45 H 0.1222 0.3510 0.6823
C100 C 0.1653(3) 0.6377(2) 0.8012(4)
C101 C 0.2954(4) 0.4660(2) 0.9827(2)
C102 C 0.0887(3) 0.3996(2) 0.6972(3)
O46 O 0.0472(3) 0.3509(3) 0.6616(6)
C103 C 0.0492(3) 0.3849(3) 0.6768(5)
O47 O 0.0201(2) 0.4039(3) 0.6748(6)
O48 O 0.0662(2) 0.6268(2) 0.7042(4)
C104 C 0.0895(3) 0.4395(2) 0.7186(4)
H46 H 0.0663 0.4557 0.7187
O49 O 0.0743(3) 0.6902(2) 0.6790(4)
C105 C 0.1519(3) 0.5096(2) 0.7930(4)
C106 C 0.1202(3) 0.6670(3) 0.7443(5)
C107 C 0.0856(3) 0.6606(3) 0.7050(5)
Cd7 Cd 0.320368(11) 0.732862(13) 0.277057(13)
Cd12 Cd 0.629419(12) 0.358145(11) 0.937237(13)
Cd13 Cd 0.141855(11) 0.870581(12) 0.437237(13)
O56 O 0.32238(13) 0.69422(12) 0.95459(12)
O62 O 0.28988(13) 0.76122(14) 0.20591(13)
O64 O 0.33299(13) 0.71100(13) 0.18943(13)
O65 O 0.34116(14) 0.34693(16) 0.98347(15)
O68 O 0.37915(14) 0.77217(16) 0.26260(18)
O70 O 0.33071(15) 0.80232(18) 0.30334(17)
O72 O 0.27940(14) 0.67357(18) 0.2650(2)
O74 O 0.25121(14) 0.72485(18) 0.3059(2)
O75 O 0.4323(2) 0.6556(4) 0.9693(3)
Cd15 Cd 0.01994(2) 0.65089(4) 0.64687(6)
Cd19 Cd 0.232862(13) 0.820368(11) 0.777057(13)
H52 H 0.367632 0.691051 0.439212
H53 H 0.00426223 0.266544 0.630697
Cd3 Cd 0.65089(4) 0.98006(2) 0.35313(6)
O25 O 0.6160(6) 0.9511(5) 0.4287(4)
O26 O 0.7141(5) 0.9922(4) 0.3936(8)
O76 O 0.6268(2) 0.9338(2) 0.2958(4)
O78 O 0.6902(2) 0.9257(3) 0.3210(4)
H51 H 0.725205 0.966183 0.406377
Cd6 Cd 0.98006(2) 0.34911(4) 0.64687(6)
O51 O 0.9511(5) 0.3840(6) 0.5713(4)
O52 O 0.9922(4) 0.2859(5) 0.6064(8)
O77 O 0.9338(2) 0.3732(2) 0.7042(4)
O79 O 0.9257(3) 0.3098(2) 0.6790(4)
H54 H 0.966183 0.274795 0.593623
O51_2 O 0.3840(6) 0.0489(5) 0.4287(4)
O52_2 O 0.2859(5) 0.0078(4) 0.3936(8)
H54_2 H 0.274795 0.0338168 0.406377
Cd5_2 Cd 0.641855(11) 0.629419(12) 0.062763(13)
O27_2 O 0.67965(14) 0.62775(13) 0.70810(12)
O28 O 0.54176(10) 0.52584(10) 0.27291(13)
O29_2 O 0.82238(13) 0.80578(12) 0.54541(12)
O30_2 O 0.66691(11) 0.62873(13) 0.14498(13)
O32 O 0.56126(10) 0.53781(12) 0.34995(12)
O34_2 O 0.71154(14) 0.65660(13) 0.64638(13)
O35_2 O 0.61190(13) 0.59256(14) 0.13107(13)
O36_2 O 0.78988(13) 0.73878(14) 0.29409(13)
O37_2 O 0.83299(13) 0.78900(13) 0.31057(13)
O38_2 O 0.84693(16) 0.84116(14) 0.48347(15)
O39_2 O 0.57287(13) 0.63629(17) 0.03440(16)
O40_2 O 0.59939(11) 0.68392(15) 0.08173(15)
C55_2 C 0.56567(16) 0.54226(15) 0.30442(18)
C56_2 C 0.68501(18) 0.63172(19) 0.6618(2)
N13_2 N 0.68333(18) 0.6343(2) 0.33032(15)
H24_2 H 0.7008 0.6486 0.3142
N14_2 N 0.7101(2) 0.6657(2) 0.39670(18)
C57_2 C 0.63757(15) 0.60712(17) 0.15959(19)
N15_2 N 0.6441(2) 0.5953(2) 0.48914(17)
H25_2 H 0.6308 0.5772 0.4728
C58_2 C 0.82524(18) 0.81221(16) 0.4994(2)
C59_2 C 0.65614(19) 0.6111(2) 0.3000(2)
N16_2 N 0.6631(2) 0.6124(2) 0.41032(16)
C60_2 C 0.8055(2) 0.78475(19) 0.4633(2)
C61_2 C 0.56562(17) 0.54239(15) 0.62919(17)
C62_2 C 0.60828(18) 0.5706(2) 0.55859(19)
H26_2 H 0.5910 0.5577 0.5361
C63_2 C 0.80604(19) 0.76300(19) 0.3244(2)
C64_2 C 0.6264(2) 0.5862(2) 0.3180(2)
H27_2 H 0.6238 0.5818 0.3523
N17_2 N 0.6916(2) 0.6470(2) 0.47998(17)
C65_2 C 0.57036(19) 0.6696(2) 0.0559(2)
C66_2 C 0.59975(17) 0.56717(17) 0.2841(2)
C67_2 C 0.79756(19) 0.75994(19) 0.3788(2)
C68_2 C 0.6405(2) 0.5934(2) 0.54109(19)
C69_2 C 0.60390(16) 0.57352(16) 0.23326(18)
H28_2 H 0.5860 0.5613 0.2110
C70_2 C 0.60136(17) 0.56674(18) 0.61146(19)
C71_2 C 0.6662(2) 0.6137(2) 0.5746(2)
C72_2 C 0.3654(2) 0.8039(2) 0.2830(3)
C73_2 C 0.63509(17) 0.59844(17) 0.21533(18)
C74_2 C 0.65933(16) 0.60954(17) 0.62649(18)
C75_2 C 0.7792(2) 0.7550(2) 0.4800(2)
H29_2 H 0.7734 0.7532 0.5140
C76_2 C 0.6856(3) 0.6370(3) 0.3834(2)
C77_2 C 0.8149(2) 0.78751(17) 0.4137(2)
H30_2 H 0.8327 0.8075 0.4026
C78_2 C 0.66083(18) 0.61686(19) 0.24890(18)
H31_2 H 0.6816 0.6334 0.2372
C79_2 C 0.6663(3) 0.6224(3) 0.4599(2)
C80_2 C 0.7698(2) 0.7310(2) 0.39564(19)
H32_2 H 0.7570 0.7139 0.3728
C81_2 C 0.7612(2) 0.7275(3) 0.4467(2)
C82_2 C 0.3900(2) 0.8419(2) 0.2822(3)
C83_2 C 0.5321(2) 0.6937(3) 0.0537(3)
C84_2 C 0.5011(2) 0.6817(3) 0.0209(2)
H33_2 H 0.5040 0.6585 0.0016
O43_2 O 0.77940(14) 0.82643(18) 0.2350(2)
O44_2 O 0.75121(14) 0.77515(18) 0.1941(2)
C85_2 C 0.7116(3) 0.6705(3) 0.4466(2)
N18_2 N 0.7359(3) 0.6989(2) 0.46785(18)
H34_2 H 0.7355 0.6992 0.5001
C86_2 C 0.62652(17) 0.58529(18) 0.64345(17)
H35_2 H 0.6224 0.5822 0.6777
N19_2 N 0.47994(19) 0.7812(3) 0.1150(3)
H36_2 H 0.4548 0.7882 0.1158
N20_2 N 0.60654(16) 0.8157(3) 0.1711(3)
H37_2 H 0.6142 0.7978 0.1497
N21_2 N 0.4931(2) 0.8733(3) 0.2439(4)
H38_2 H 0.5096 0.8901 0.2577
C87_2 C 0.4601(2) 0.7370(3) 0.0483(3)
H39_2 H 0.4355 0.7508 0.0467
C88_2 C 0.4534(2) 0.8746(3) 0.2609(4)
C89_2 C 0.5652(2) 0.8223(4) 0.1742(4)
N22_2 N 0.54412(19) 0.7983(3) 0.1414(3)
C90_2 C 0.5050(2) 0.8017(3) 0.1458(4)
C91_2 C 0.4294(2) 0.8404(2) 0.2596(3)
H40_2 H 0.4385 0.8168 0.2442
C92_2 C 0.52629(19) 0.7269(2) 0.0828(3)
H41_2 H 0.5472 0.7348 0.1040
C93_2 C 0.4897(2) 0.7503(3) 0.0826(3)
N23_2 N 0.48548(16) 0.8286(2) 0.1770(3)
C94_2 C 0.6335(2) 0.8663(3) 0.2292(4)
H42_2 H 0.6085 0.8792 0.2327
C95_2 C 0.7093(2) 0.8295(3) 0.2200(3)
N24_2 N 0.5504(2) 0.8481(2) 0.2062(3)
C96_2 C 0.6758(2) 0.8158(3) 0.1925(3)
H43_2 H 0.6786 0.7943 0.1703
C97_2 C 0.75005(18) 0.8083(3) 0.2137(3)
C98_2 C 0.7040(2) 0.8625(3) 0.2492(3)
H44_2 H 0.7264 0.8737 0.2653
C99_2 C 0.3766(2) 0.8771(3) 0.3030(3)
H45_2 H 0.3510 0.8778 0.3177
C100_2 C 0.6377(2) 0.8347(3) 0.1988(4)
C101_2 C 0.4660(2) 0.7046(4) 0.0173(2)
C102_2 C 0.3996(2) 0.9113(3) 0.3028(3)
O46_2 O 0.3509(3) 0.9528(3) 0.3384(6)
C103_2 C 0.3849(3) 0.9508(3) 0.3232(5)
O47_2 O 0.4039(3) 0.9799(2) 0.3252(6)
C104_2 C 0.4395(2) 0.9105(3) 0.2814(4)
H46_2 H 0.4557 0.9337 0.2813
C105_2 C 0.5096(2) 0.8481(3) 0.2070(4)
C106_2 C 0.6670(3) 0.8798(3) 0.2557(5)
C107_2 C 0.6606(3) 0.9144(3) 0.2950(5)
Cd7_2 Cd 0.732862(13) 0.679632(11) 0.722943(13)
Cd13_2 Cd 0.870581(12) 0.858145(11) 0.562763(13)
O56_2 O 0.69422(12) 0.67762(13) 0.04541(12)
O62_2 O 0.76122(14) 0.71012(13) 0.79409(13)
O64_2 O 0.71100(13) 0.66701(13) 0.81057(13)
O68_2 O 0.77217(16) 0.62085(14) 0.73740(18)
O70_2 O 0.80232(18) 0.66929(15) 0.69666(17)
O72_2 O 0.67357(18) 0.72060(14) 0.7350(2)
O74_2 O 0.72485(18) 0.74879(14) 0.6941(2)
O75_2 O 0.6556(4) 0.5677(2) 0.0307(3)
Cd19_2 Cd 0.820368(11) 0.767138(13) 0.222943(13)
H52_2 H 0.691051 0.632368 0.560788
H53_2 H 0.266544 0.995738 0.369303
O50_2 O 0.4096(2) 0.7211(3) 0.9642(3)
C108_2 C 0.4332(3) 0.6931(5) 0.9807(4)
O57_2 O 0.53825(13) 0.43907(10) 0.32501(14)
O60_2 O 0.52605(12) 0.45709(11) 0.40196(13)
O66_2 O 0.65884(14) 0.65307(16) 0.98347(15)
H50_2 H 0.0112172 0.290001 0.578003
Cd9 Cd 0.0000 0.0000 0.161272(14)
O15_2 O 0.12085(14) 0.27217(16) 0.23740(18)
O16_2 O 0.16929(15) 0.30232(18) 0.19666(17)
C18_2 C 0.1346(2) 0.3039(2) 0.2170(3)
C28_2 C 0.1100(2) 0.3419(2) 0.2178(3)
O19_2 O 0.0677(2) 0.1556(4) 0.5307(3)
N7_2 N 0.02006(19) 0.2812(3) 0.3850(3)
H13_2 H 0.0452 0.2882 0.3842
N9_2 N 0.0069(2) 0.3733(3) 0.2561(4)
C33_2 C 0.0399(2) 0.2370(3) 0.4517(3)
H16_2 H 0.0645 0.2508 0.4533
C34_2 C 0.0466(2) 0.3746(3) 0.2391(4)
C37_2 C 0.0706(2) 0.3404(2) 0.2404(3)
H17_2 H 0.0615 0.3168 0.2558
C39_2 C 0.0103(2) 0.2503(3) 0.4174(3)
N11_2 N 0.01452(16) 0.3286(2) 0.3230(3)
C45_2 C 0.1234(2) 0.3771(3) 0.1970(3)
H22_2 H 0.1490 0.3778 0.1823
C47_2 C 0.0340(2) 0.2046(4) 0.4827(2)
C48_2 C 0.1004(2) 0.4113(3) 0.1972(3)
O20_2 O 0.1491(3) 0.4528(3) 0.1616(6)
C49_2 C 0.1151(3) 0.4508(3) 0.1768(5)
O21_2 O 0.0961(3) 0.4799(2) 0.1748(6)
C50_2 C 0.0605(2) 0.4105(3) 0.2186(4)
H23_2 H 0.0443 0.4337 0.2187
O24_2 O 0.0904(2) 0.2211(3) 0.5358(3)
C54_2 C 0.0668(3) 0.1931(5) 0.5193(4)
Cd3_2 Cd 0.15089(4) 0.51994(2) 0.14687(6)
O25_2 O 0.1160(6) 0.5489(5) 0.0713(4)
O26_2 O 0.2141(5) 0.5078(4) 0.1064(8)
Cd8 Cd -0.0000 0.0000 0.838728(14)
O76_2 O 0.1268(2) 0.5662(2) 0.2042(4)
O78_2 O 0.1902(2) 0.5743(3) 0.1790(4)
O54_2 O 0.02584(10) 0.04176(10) 0.77291(13)
O59_2 O 0.03781(12) 0.06126(10) 0.84995(12)
Cd9_2 Cd 0.0000 1.0000 0.161272(14)
Cd8_2 Cd -0.0000 1.0000 0.838728(14)
O57_3 O 0.06093(10) 0.96175(13) 0.82501(14)
O60_3 O 0.04291(11) 0.97395(12) 0.90196(13)
Cd9_3 Cd 1.0000 0.0000 0.161272(14)
Cd2_2 Cd 0.858145(11) 0.129419(12) 0.437237(13)
O2_2 O 0.95824(10) 0.02584(10) 0.22709(13)
O4_2 O 0.83309(11) 0.12873(13) 0.35502(13)
O6_2 O 0.93874(10) 0.03781(12) 0.15005(12)
O9_2 O 0.88810(13) 0.09256(14) 0.36893(13)
O10_2 O 0.71012(13) 0.23878(14) 0.20591(13)
O11_2 O 0.66701(13) 0.28900(13) 0.18943(13)
O12_2 O 0.65307(16) 0.34116(14) 0.01653(15)
O13_2 O 0.92713(13) 0.13629(17) 0.46560(16)
O14_2 O 0.90061(11) 0.18392(15) 0.41827(15)
C1_2 C 0.93433(16) 0.04226(15) 0.19558(18)
N1_2 N 0.81667(18) 0.1343(2) 0.16968(15)
H1_2 H 0.7992 0.1486 0.1858
N2_2 N 0.7899(2) 0.1657(2) 0.10330(18)
C3_2 C 0.86243(15) 0.10712(17) 0.34041(19)
N3_2 N 0.8559(2) 0.0953(2) 0.01086(17)
H2_2 H 0.8692 0.0772 0.0272
C4_2 C 0.67476(18) 0.31221(16) 0.0006(2)
C5_2 C 0.84386(19) 0.1111(2) 0.2000(2)
N4_2 N 0.8369(2) 0.1124(2) 0.08968(16)
C6_2 C 0.6945(2) 0.28475(19) 0.0367(2)
C9_2 C 0.69396(19) 0.26300(19) 0.1756(2)
C10_2 C 0.8736(2) 0.0862(2) 0.1820(2)
H4_2 H 0.8762 0.0818 0.1477
N5_2 N 0.8084(2) 0.1470(2) 0.02002(17)
C11_2 C 0.92964(19) 0.1696(2) 0.4441(2)
C12_2 C 0.90025(17) 0.06717(17) 0.2159(2)
C13_2 C 0.70244(19) 0.25994(19) 0.1212(2)
C15_2 C 0.89610(16) 0.07352(16) 0.26674(18)
H5_2 H 0.9140 0.0613 0.2890
C19_2 C 0.86491(17) 0.09844(17) 0.28467(18)
C21_2 C 0.7208(2) 0.2550(2) 0.0200(2)
C22_2 C 0.8144(3) 0.1370(3) 0.1166(2)
C23_2 C 0.6851(2) 0.28751(17) 0.0863(2)
H7_2 H 0.6673 0.3075 0.0974
C24_2 C 0.83917(18) 0.11686(19) 0.25110(18)
H8_2 H 0.8184 0.1334 0.2628
C25_2 C 0.8337(3) 0.1224(3) 0.0401(2)
C26_2 C 0.7302(2) 0.2310(2) 0.10436(19)
H9_2 H 0.7430 0.2139 0.1272
C27_2 C 0.7388(2) 0.2275(3) 0.0533(2)
C29_2 C 0.9679(2) 0.1937(3) 0.4463(3)
C30_2 C 0.9989(2) 0.1817(3) 0.4791(2)
H10_2 H 0.9960 0.1585 0.4984
O17_2 O 0.72060(14) 0.32643(18) 0.2650(2)
O18_2 O 0.74879(14) 0.27515(18) 0.3059(2)
C31_2 C 0.7884(3) 0.1705(3) 0.0534(2)
N6_2 N 0.7641(3) 0.1989(2) 0.03215(18)
N8_2 N 0.89346(16) 0.3157(3) 0.3289(3)
H14_2 H 0.8858 0.2978 0.3503
H15_2 H 0.9904 0.3901 0.2423
C35_2 C 0.9348(2) 0.3223(4) 0.3258(4)
N10_2 N 0.95588(19) 0.2983(3) 0.3586(3)
C36_2 C 0.9950(2) 0.3017(3) 0.3542(4)
C38_2 C 0.97371(19) 0.2269(2) 0.4172(3)
H18_2 H 0.9528 0.2348 0.3960
C40_2 C 0.8665(2) 0.3663(3) 0.2708(4)
H19_2 H 0.8915 0.3792 0.2673
C41_2 C 0.7907(2) 0.3295(3) 0.2800(3)
N12_2 N 0.9496(2) 0.3481(2) 0.2938(3)
C42_2 C 0.8242(2) 0.3158(3) 0.3075(3)
H20_2 H 0.8214 0.2943 0.3297
C43_2 C 0.74995(18) 0.3083(3) 0.2863(3)
C44_2 C 0.7960(2) 0.3625(3) 0.2508(3)
H21_2 H 0.7736 0.3737 0.2347
C46_2 C 0.8623(2) 0.3347(3) 0.3012(4)
O22_2 O 0.8732(2) 0.4338(2) 0.2042(4)
O23_2 O 0.8098(2) 0.4257(3) 0.1790(4)
C51_2 C 0.9904(2) 0.3481(3) 0.2930(4)
C52_2 C 0.8330(3) 0.3798(3) 0.2443(5)
C53_2 C 0.8394(3) 0.4144(3) 0.2050(5)
O41 O 0.72783(16) 0.12085(14) 0.76260(18)
O42 O 0.69768(18) 0.16929(15) 0.80334(17)
C72_3 C 0.6961(2) 0.1346(2) 0.7830(3)
C82_3 C 0.6581(2) 0.1100(2) 0.7822(3)
O45_2 O 0.8444(4) 0.0677(2) 0.4693(3)
N19_3 N 0.7188(3) 0.02006(19) 0.6150(3)
H36_3 H 0.7118 0.0452 0.6158
N21_3 N 0.6267(3) 0.0069(2) 0.7439(4)
C87_3 C 0.7630(3) 0.0399(2) 0.5483(3)
H39_3 H 0.7492 0.0645 0.5467
C88_3 C 0.6254(3) 0.0466(2) 0.7609(4)
C91_3 C 0.6596(2) 0.0706(2) 0.7596(3)
H40_3 H 0.6832 0.0615 0.7442
C93_3 C 0.7497(3) 0.0103(2) 0.5826(3)
N23_3 N 0.6714(2) 0.01452(16) 0.6770(3)
C99_3 C 0.6229(3) 0.1234(2) 0.8030(3)
H45_3 H 0.6222 0.1490 0.8177
C101_3 C 0.7954(4) 0.0340(2) 0.5173(2)
C102_3 C 0.5887(3) 0.1004(2) 0.8028(3)
O46_3 O 0.5472(3) 0.1491(3) 0.8384(6)
C103_3 C 0.5492(3) 0.1151(3) 0.8232(5)
O47_3 O 0.5201(2) 0.0961(3) 0.8252(6)
C104_3 C 0.5895(3) 0.0605(2) 0.7814(4)
H46_3 H 0.5663 0.0443 0.7813
O50_3 O 0.7789(3) 0.0904(2) 0.4642(3)
C108_3 C 0.8069(5) 0.0668(3) 0.4807(4)
Cd6_2 Cd 0.48006(2) 0.15089(4) 0.85313(6)
O51_3 O 0.4511(5) 0.1160(6) 0.9287(4)
O52_3 O 0.4922(4) 0.2141(5) 0.8936(8)
Cd8_3 Cd 1.0000 0.0000 0.838728(14)
O55_2 O 0.80578(12) 0.17762(13) 0.45459(12)
O65_2 O 0.84116(14) 0.15307(16) 0.51653(15)
O77_2 O 0.4338(2) 0.1268(2) 0.7958(4)
O79_2 O 0.4257(3) 0.1902(2) 0.8210(4)
Cd14_2 Cd 0.84911(4) 0.48006(2) 0.14687(6)
Cd16 Cd 0.767138(13) 0.179632(11) 0.777057(13)
O1_2 O 0.82035(14) 0.12775(13) 0.79190(12)
O3_2 O 0.67762(13) 0.30578(12) 0.95459(12)
O5_2 O 0.93907(10) 0.03825(13) 0.82501(14)
O7_2 O 0.95709(11) 0.02605(12) 0.90196(13)
O8_2 O 0.78846(14) 0.15660(13) 0.85362(13)
C2_2 C 0.81499(18) 0.13172(19) 0.8382(2)
C7_2 C 0.93438(17) 0.04239(15) 0.87081(17)
C8_2 C 0.89172(18) 0.0706(2) 0.94141(19)
H3_2 H 0.9090 0.0577 0.9639
C14_2 C 0.8595(2) 0.0934(2) 0.95891(19)
C16_2 C 0.89864(17) 0.06674(18) 0.88854(19)
C17_2 C 0.8338(2) 0.1137(2) 0.9254(2)
C20_2 C 0.84067(16) 0.10954(17) 0.87351(18)
H6_2 H 0.7266 0.2532 0.9860
H11_2 H 0.7645 0.1992 0.9999
C32_2 C 0.87348(17) 0.08529(18) 0.85655(17)
H12_2 H 0.8776 0.0822 0.8223
O61_2 O 0.73878(14) 0.21012(13) 0.70591(13)
O63_2 O 0.78900(13) 0.16701(13) 0.68943(13)
O71_2 O 0.82643(18) 0.22060(14) 0.7650(2)
O73_2 O 0.77515(18) 0.24879(14) 0.8059(2)
H47_2 H 0.808949 0.132368 0.939212
O27_3 O 0.87225(13) 0.82035(14) 0.20810(12)
O31_2 O 0.96175(13) 0.93907(10) 0.17499(14)
O33_2 O 0.97395(12) 0.95709(11) 0.09804(13)
O34_3 O 0.84340(13) 0.78846(14) 0.14638(13)
C56_3 C 0.86828(19) 0.81499(18) 0.1618(2)
C61_3 C 0.95761(15) 0.93438(17) 0.12919(17)
C62_3 C 0.9294(2) 0.89172(18) 0.05859(19)
H26_3 H 0.9423 0.9090 0.0361
C68_3 C 0.9066(2) 0.8595(2) 0.04109(19)
C70_3 C 0.93326(18) 0.89864(17) 0.11146(19)
C71_3 C 0.8863(2) 0.8338(2) 0.0746(2)
C74_3 C 0.89046(17) 0.84067(16) 0.12649(18)
H29_3 H 0.7468 0.7266 0.0140
H34_3 H 0.8008 0.7645 0.0001
C86_3 C 0.91471(18) 0.87348(17) 0.14345(17)
H35_3 H 0.9178 0.8776 0.1777
Cd9_4 Cd 1.0000 1.0000 0.161272(14)
O68_3 O 0.87915(14) 0.72783(16) 0.23740(18)
O70_3 O 0.83071(15) 0.69768(18) 0.19666(17)
H52_3 H 0.867632 0.808949 0.0607884
O28_2 O 0.97416(10) 0.95824(10) 0.77291(13)
O30_3 O 0.87127(13) 0.83309(11) 0.64498(13)
O32_2 O 0.96219(12) 0.93874(10) 0.84995(12)
O35_3 O 0.90744(14) 0.88810(13) 0.63107(13)
O39_3 O 0.86371(17) 0.92713(13) 0.53440(16)
O40_3 O 0.81608(15) 0.90061(11) 0.58173(15)
C55_3 C 0.95774(15) 0.93433(16) 0.80442(18)
N13_3 N 0.8657(2) 0.81667(18) 0.83032(15)
H24_3 H 0.8514 0.7992 0.8142
N14_3 N 0.8343(2) 0.7899(2) 0.89670(18)
C57_3 C 0.89288(17) 0.86243(15) 0.65959(19)
N15_3 N 0.9047(2) 0.8559(2) 0.98914(17)
H25_3 H 0.9228 0.8692 0.9728
C58_3 C 0.68779(16) 0.67476(18) 0.9994(2)
C59_3 C 0.8889(2) 0.84386(19) 0.8000(2)
N16_3 N 0.8876(2) 0.8369(2) 0.91032(16)
C60_3 C 0.71525(19) 0.6945(2) 0.9633(2)
C63_3 C 0.73700(19) 0.69396(19) 0.8244(2)
C64_3 C 0.9138(2) 0.8736(2) 0.8180(2)
H27_3 H 0.9182 0.8762 0.8523
N17_3 N 0.8530(2) 0.8084(2) 0.97998(17)
C65_3 C 0.8304(2) 0.92964(19) 0.5559(2)
C66_3 C 0.93283(17) 0.90025(17) 0.7841(2)
C67_3 C 0.74006(19) 0.70244(19) 0.8788(2)
C69_3 C 0.92648(16) 0.89610(16) 0.73326(18)
H28_3 H 0.9387 0.9140 0.7110
C73_3 C 0.90156(17) 0.86491(17) 0.71533(18)
C75_3 C 0.7450(2) 0.7208(2) 0.9800(2)
C76_3 C 0.8630(3) 0.8144(3) 0.8834(2)
C77_3 C 0.71249(17) 0.6851(2) 0.9137(2)
H30_3 H 0.6925 0.6673 0.9026
C78_3 C 0.88314(19) 0.83917(18) 0.74890(18)
H31_3 H 0.8666 0.8184 0.7372
C79_3 C 0.8776(3) 0.8337(3) 0.9599(2)
C80_3 C 0.7690(2) 0.7302(2) 0.89564(19)
H32_3 H 0.7861 0.7430 0.8728
C81_3 C 0.7725(3) 0.7388(2) 0.9467(2)
C83_3 C 0.8063(3) 0.9679(2) 0.5537(3)
C84_3 C 0.8183(3) 0.9989(2) 0.5209(2)
H33_3 H 0.8415 0.9960 0.5016
C85_3 C 0.8295(3) 0.7884(3) 0.9466(2)
N18_3 N 0.8011(2) 0.7641(3) 0.96785(18)
N20_3 N 0.6843(3) 0.89346(16) 0.6711(3)
H37_3 H 0.7022 0.8858 0.6497
H38_3 H 0.6099 0.9904 0.7577
C89_3 C 0.6777(4) 0.9348(2) 0.6742(4)
N22_3 N 0.7017(3) 0.95588(19) 0.6414(3)
C90_3 C 0.6983(3) 0.9950(2) 0.6458(4)
C92_3 C 0.7731(2) 0.97371(19) 0.5828(3)
H41_3 H 0.7652 0.9528 0.6040
C94_3 C 0.6337(3) 0.8665(2) 0.7292(4)
H42_3 H 0.6208 0.8915 0.7327
C95_3 C 0.6705(3) 0.7907(2) 0.7200(3)
N24_3 N 0.6519(2) 0.9496(2) 0.7062(3)
C96_3 C 0.6842(3) 0.8242(2) 0.6925(3)
H43_3 H 0.7057 0.8214 0.6703
C97_3 C 0.6917(3) 0.74995(18) 0.7137(3)
C98_3 C 0.6375(3) 0.7960(2) 0.7492(3)
H44_3 H 0.6263 0.7736 0.7653
C100_3 C 0.6653(3) 0.8623(2) 0.6988(4)
O48_2 O 0.5662(2) 0.8732(2) 0.7958(4)
O49_2 O 0.5743(3) 0.8098(2) 0.8210(4)
C105_3 C 0.6519(3) 0.9904(2) 0.7070(4)
C106_3 C 0.6202(3) 0.8330(3) 0.7557(5)
C107_3 C 0.5856(3) 0.8394(3) 0.7950(5)
Cd8_4 Cd 1.0000 1.0000 0.838728(14)
O75_3 O 0.9323(2) 0.8444(4) 0.5307(3)
Cd15_2 Cd 0.51994(2) 0.84911(4) 0.85313(6)
O51_4 O 0.0489(5) 0.6160(6) 0.5713(4)
O52_4 O 0.0078(4) 0.7141(5) 0.6064(8)
H54_3 H 0.0338168 0.725205 0.593623
O50_4 O 0.7211(3) 0.5904(2) 0.0358(3)
C108_4 C 0.6931(5) 0.5668(3) 0.0193(4)
H50_3 H 0.290001 0.988783 0.421997
O27_4 O 0.62775(13) 0.32035(14) 0.29190(12)
O30_4 O 0.62873(13) 0.33309(11) 0.85502(13)
O34_4 O 0.65660(13) 0.28846(14) 0.35362(13)
O35_4 O 0.59256(14) 0.38810(13) 0.86893(13)
O39_4 O 0.63629(17) 0.42713(13) 0.96560(16)
O40_4 O 0.68392(15) 0.40061(11) 0.91827(15)
C55_4 C 0.54226(15) 0.43433(16) 0.69558(18)
C56_4 C 0.63172(19) 0.31499(18) 0.3382(2)
N13_4 N 0.6343(2) 0.31667(18) 0.66968(15)
H24_4 H 0.6486 0.2992 0.6858
N14_4 N 0.6657(2) 0.2899(2) 0.60330(18)
C57_4 C 0.60712(17) 0.36243(15) 0.84041(19)
N15_4 N 0.5953(2) 0.3559(2) 0.51086(17)
H25_4 H 0.5772 0.3692 0.5272
C58_4 C 0.81221(16) 0.17476(18) 0.5006(2)
C59_4 C 0.6111(2) 0.34386(19) 0.7000(2)
N16_4 N 0.6124(2) 0.3369(2) 0.58968(16)
C60_4 C 0.78475(19) 0.1945(2) 0.5367(2)
C61_4 C 0.54239(15) 0.43438(17) 0.37081(17)
C62_4 C 0.5706(2) 0.39172(18) 0.44141(19)
H26_4 H 0.5577 0.4090 0.4639
C63_4 C 0.76300(19) 0.19396(19) 0.6756(2)
C64_4 C 0.5862(2) 0.3736(2) 0.6820(2)
H27_4 H 0.5818 0.3762 0.6477
N17_4 N 0.6470(2) 0.3084(2) 0.52002(17)
C65_4 C 0.6696(2) 0.42964(19) 0.9441(2)
C66_4 C 0.56717(17) 0.40025(17) 0.7159(2)
C67_4 C 0.75994(19) 0.20244(19) 0.6212(2)
C68_4 C 0.5934(2) 0.3595(2) 0.45891(19)
C69_4 C 0.57352(16) 0.39610(16) 0.76674(18)
H28_4 H 0.5613 0.4140 0.7890
C70_4 C 0.56674(18) 0.39864(17) 0.38854(19)
C71_4 C 0.6137(2) 0.3338(2) 0.4254(2)
C72_4 C 0.8039(2) 0.6346(2) 0.7170(3)
C73_4 C 0.59844(17) 0.36491(17) 0.78467(18)
C74_4 C 0.60954(17) 0.34067(16) 0.37351(18)
C75_4 C 0.7550(2) 0.2208(2) 0.5200(2)
H29_4 H 0.7532 0.2266 0.4860
C76_4 C 0.6370(3) 0.3144(3) 0.6166(2)
C77_4 C 0.78751(17) 0.1851(2) 0.5863(2)
H30_4 H 0.8075 0.1673 0.5974
C78_4 C 0.61686(19) 0.33917(18) 0.75110(18)
H31_4 H 0.6334 0.3184 0.7628
C79_4 C 0.6224(3) 0.3337(3) 0.5401(2)
C80_4 C 0.7310(2) 0.2302(2) 0.60436(19)
H32_4 H 0.7139 0.2430 0.6272
C81_4 C 0.7275(3) 0.2388(2) 0.5533(2)
C82_4 C 0.8419(2) 0.6100(2) 0.7178(3)
C83_4 C 0.6937(3) 0.4679(2) 0.9463(3)
C84_4 C 0.6817(3) 0.4989(2) 0.9791(2)
H33_4 H 0.6585 0.4960 0.9984
C85_4 C 0.6705(3) 0.2884(3) 0.5534(2)
N18_4 N 0.6989(2) 0.2641(3) 0.53215(18)
H34_4 H 0.6992 0.2645 0.4999
C86_4 C 0.58529(18) 0.37348(17) 0.35655(17)
H35_4 H 0.5822 0.3776 0.3223
N19_4 N 0.7812(3) 0.52006(19) 0.8850(3)
H36_4 H 0.7882 0.5452 0.8842
N20_4 N 0.8157(3) 0.39346(16) 0.8289(3)
H37_4 H 0.7978 0.3858 0.8503
N21_4 N 0.8733(3) 0.5069(2) 0.7561(4)
H38_4 H 0.8901 0.4904 0.7423
C87_4 C 0.7370(3) 0.5399(2) 0.9517(3)
H39_4 H 0.7508 0.5645 0.9533
C88_4 C 0.8746(3) 0.5466(2) 0.7391(4)
C89_4 C 0.8223(4) 0.4348(2) 0.8258(4)
N22_4 N 0.7983(3) 0.45588(19) 0.8586(3)
C90_4 C 0.8017(3) 0.4950(2) 0.8542(4)
C91_4 C 0.8404(2) 0.5706(2) 0.7404(3)
H40_4 H 0.8168 0.5615 0.7558
C92_4 C 0.7269(2) 0.47371(19) 0.9172(3)
H41_4 H 0.7348 0.4528 0.8960
C93_4 C 0.7503(3) 0.5103(2) 0.9174(3)
N23_4 N 0.8286(2) 0.51452(16) 0.8230(3)
C94_4 C 0.8663(3) 0.3665(2) 0.7708(4)
H42_4 H 0.8792 0.3915 0.7673
C95_4 C 0.8295(3) 0.2907(2) 0.7800(3)
N24_4 N 0.8481(2) 0.4496(2) 0.7938(3)
C96_4 C 0.8158(3) 0.3242(2) 0.8075(3)
H43_4 H 0.7943 0.3214 0.8297
C97_4 C 0.8083(3) 0.24995(18) 0.7863(3)
C98_4 C 0.8625(3) 0.2960(2) 0.7508(3)
H44_4 H 0.8737 0.2736 0.7347
C99_4 C 0.8771(3) 0.6234(2) 0.6970(3)
H45_4 H 0.8778 0.6490 0.6823
C100_4 C 0.8347(3) 0.3623(2) 0.8012(4)
C101_4 C 0.7046(4) 0.5340(2) 0.9827(2)
C102_4 C 0.9113(3) 0.6004(2) 0.6972(3)
O46_4 O 0.9528(3) 0.6491(3) 0.6616(6)
C103_4 C 0.9508(3) 0.6151(3) 0.6768(5)
O47_4 O 0.9799(2) 0.5961(3) 0.6748(6)
C104_4 C 0.9105(3) 0.5605(2) 0.7186(4)
H46_4 H 0.9337 0.5443 0.7187
C105_4 C 0.8481(3) 0.4904(2) 0.7930(4)
C106_4 C 0.8798(3) 0.3330(3) 0.7443(5)
C107_4 C 0.9144(3) 0.3394(3) 0.7050(5)
H52_4 H 0.632368 0.308949 0.439212
H53_3 H 0.995738 0.733456 0.630697
O57_4 O 0.03825(13) 0.06093(10) 0.17499(14)
O60_4 O 0.02605(12) 0.04291(11) 0.09804(13)
O53_2 O 0.04176(10) 0.97416(10) 0.22709(13)
O58_2 O 0.06126(10) 0.96219(12) 0.15005(12)
O30_5 O 0.16691(11) 0.87127(13) 0.35502(13)
O35_5 O 0.11190(13) 0.90744(14) 0.36893(13)
O39_5 O 0.07287(13) 0.86371(17) 0.46560(16)
O40_5 O 0.09939(11) 0.81608(15) 0.41827(15)
C55_5 C 0.06567(16) 0.95774(15) 0.19558(18)
N13_5 N 0.18333(18) 0.8657(2) 0.16968(15)
H24_5 H 0.2008 0.8514 0.1858
N14_5 N 0.2101(2) 0.8343(2) 0.10330(18)
C57_5 C 0.13757(15) 0.89288(17) 0.34041(19)
N15_5 N 0.1441(2) 0.9047(2) 0.01086(17)
H25_5 H 0.1308 0.9228 0.0272
C58_5 C 0.32524(18) 0.68779(16) 0.0006(2)
C59_5 C 0.15614(19) 0.8889(2) 0.2000(2)
N16_5 N 0.1631(2) 0.8876(2) 0.08968(16)
C60_5 C 0.3055(2) 0.71525(19) 0.0367(2)
C63_5 C 0.30604(19) 0.73700(19) 0.1756(2)
C64_5 C 0.1264(2) 0.9138(2) 0.1820(2)
H27_5 H 0.1238 0.9182 0.1477
N17_5 N 0.1916(2) 0.8530(2) 0.02002(17)
C65_5 C 0.07036(19) 0.8304(2) 0.4441(2)
C66_5 C 0.09975(17) 0.93283(17) 0.2159(2)
C67_5 C 0.29756(19) 0.74006(19) 0.1212(2)
C69_5 C 0.10390(16) 0.92648(16) 0.26674(18)
H28_5 H 0.0860 0.9387 0.2890
C73_5 C 0.13509(17) 0.90156(17) 0.28467(18)
C75_5 C 0.2792(2) 0.7450(2) 0.0200(2)
C76_5 C 0.1856(3) 0.8630(3) 0.1166(2)
C77_5 C 0.3149(2) 0.71249(17) 0.0863(2)
H30_5 H 0.3327 0.6925 0.0974
C78_5 C 0.16083(18) 0.88314(19) 0.25110(18)
H31_5 H 0.1816 0.8666 0.2628
C79_5 C 0.1663(3) 0.8776(3) 0.0401(2)
C80_5 C 0.2698(2) 0.7690(2) 0.10436(19)
H32_5 H 0.2570 0.7861 0.1272
C81_5 C 0.2612(2) 0.7725(3) 0.0533(2)
C83_5 C 0.0321(2) 0.8063(3) 0.4463(3)
C84_5 C 0.0011(2) 0.8183(3) 0.4791(2)
H33_5 H 0.0040 0.8415 0.4984
C85_5 C 0.2116(3) 0.8295(3) 0.0534(2)
N18_5 N 0.2359(3) 0.8011(2) 0.03215(18)
N20_5 N 0.10654(16) 0.6843(3) 0.3289(3)
H37_5 H 0.1142 0.7022 0.3503
H38_5 H 0.0096 0.6099 0.2423
C89_5 C 0.0652(2) 0.6777(4) 0.3258(4)
N22_5 N 0.04412(19) 0.7017(3) 0.3586(3)
C90_5 C 0.0050(2) 0.6983(3) 0.3542(4)
C92_5 C 0.02629(19) 0.7731(2) 0.4172(3)
H41_5 H 0.0472 0.7652 0.3960
C94_5 C 0.1335(2) 0.6337(3) 0.2708(4)
H42_5 H 0.1085 0.6208 0.2673
C95_5 C 0.2093(2) 0.6705(3) 0.2800(3)
N24_5 N 0.0504(2) 0.6519(2) 0.2938(3)
C96_5 C 0.1758(2) 0.6842(3) 0.3075(3)
H43_5 H 0.1786 0.7057 0.3297
C97_5 C 0.25005(18) 0.6917(3) 0.2863(3)
C98_5 C 0.2040(2) 0.6375(3) 0.2508(3)
H44_5 H 0.2264 0.6263 0.2347
C100_5 C 0.1377(2) 0.6653(3) 0.3012(4)
C105_5 C 0.0096(2) 0.6519(3) 0.2930(4)
C106_5 C 0.1670(3) 0.6202(3) 0.2443(5)
C107_5 C 0.1606(3) 0.5856(3) 0.2050(5)
O75_4 O 0.1556(4) 0.9323(2) 0.4693(3)
O27_5 O 0.17965(14) 0.87225(13) 0.79190(12)
O34_5 O 0.21154(14) 0.84340(13) 0.85362(13)
C56_5 C 0.18501(18) 0.86828(19) 0.8382(2)
C61_5 C 0.06562(17) 0.95761(15) 0.87081(17)
C62_5 C 0.10828(18) 0.9294(2) 0.94141(19)
H26_5 H 0.0910 0.9423 0.9639
C68_5 C 0.1405(2) 0.9066(2) 0.95891(19)
C70_5 C 0.10136(17) 0.93326(18) 0.88854(19)
C71_5 C 0.1662(2) 0.8863(2) 0.9254(2)
C74_5 C 0.15933(16) 0.89046(17) 0.87351(18)
H29_5 H 0.2734 0.7468 0.9860
H34_5 H 0.2355 0.8008 0.9999
C86_5 C 0.12652(17) 0.91471(18) 0.85655(17)
H35_5 H 0.1224 0.9178 0.8223
O68_4 O 0.27217(16) 0.87915(14) 0.76260(18)
O70_4 O 0.30232(18) 0.83071(15) 0.80334(17)
H52_5 H 0.191051 0.867632 0.939212
C72_5 C 0.8654(2) 0.6961(2) 0.2170(3)
C82_5 C 0.8900(2) 0.6581(2) 0.2178(3)
N19_5 N 0.97994(19) 0.7188(3) 0.3850(3)
H36_5 H 0.9548 0.7118 0.3842
N21_5 N 0.9931(2) 0.6267(3) 0.2561(4)
C87_5 C 0.9601(2) 0.7630(3) 0.4517(3)
H39_5 H 0.9355 0.7492 0.4533
C88_5 C 0.9534(2) 0.6254(3) 0.2391(4)
C91_5 C 0.9294(2) 0.6596(2) 0.2404(3)
H40_5 H 0.9385 0.6832 0.2558
C93_5 C 0.9897(2) 0.7497(3) 0.4174(3)
N23_5 N 0.98548(16) 0.6714(2) 0.3230(3)
C99_5 C 0.8766(2) 0.6229(3) 0.1970(3)
H45_5 H 0.8510 0.6222 0.1823
C101_5 C 0.9660(2) 0.7954(4) 0.4827(2)
C102_5 C 0.8996(2) 0.5887(3) 0.1972(3)
O46_5 O 0.8509(3) 0.5472(3) 0.1616(6)
C103_5 C 0.8849(3) 0.5492(3) 0.1768(5)
O47_5 O 0.9039(3) 0.5201(2) 0.1748(6)
C104_5 C 0.9395(2) 0.5895(3) 0.2186(4)
H46_5 H 0.9557 0.5663 0.2187
O50_5 O 0.9096(2) 0.7789(3) 0.5358(3)
C108_5 C 0.9332(3) 0.8069(5) 0.5193(4)
O51_5 O 0.8840(6) 0.4511(5) 0.0713(4)
O52_5 O 0.7859(5) 0.4922(4) 0.1064(8)
O1_3 O 0.12775(13) 0.17965(14) 0.20810(12)
O8_3 O 0.15660(13) 0.21154(14) 0.14638(13)
C2_3 C 0.13172(19) 0.18501(18) 0.1618(2)
C7_3 C 0.04239(15) 0.06562(17) 0.12919(17)
C8_3 C 0.0706(2) 0.10828(18) 0.05859(19)
H3_3 H 0.0577 0.0910 0.0361
C14_3 C 0.0934(2) 0.1405(2) 0.04109(19)
C16_3 C 0.06674(18) 0.10136(17) 0.11146(19)
C17_3 C 0.1137(2) 0.1662(2) 0.0746(2)
C20_3 C 0.10954(17) 0.15933(16) 0.12649(18)
H6_3 H 0.2532 0.2734 0.0140
H11_3 H 0.1992 0.2355 0.0001
C32_3 C 0.08529(18) 0.12652(17) 0.14345(17)
H12_3 H 0.0822 0.1224 0.1777
H47_3 H 0.132368 0.191051 0.0607884
O4_3 O 0.12873(13) 0.16691(11) 0.64498(13)
O9_3 O 0.09256(14) 0.11190(13) 0.63107(13)
O13_3 O 0.13629(17) 0.07287(13) 0.53440(16)
O14_3 O 0.18392(15) 0.09939(11) 0.58173(15)
C1_3 C 0.04226(15) 0.06567(16) 0.80442(18)
N1_3 N 0.1343(2) 0.18333(18) 0.83032(15)
H1_3 H 0.1486 0.2008 0.8142
N2_3 N 0.1657(2) 0.2101(2) 0.89670(18)
C3_3 C 0.10712(17) 0.13757(15) 0.65959(19)
N3_3 N 0.0953(2) 0.1441(2) 0.98914(17)
H2_3 H 0.0772 0.1308 0.9728
C4_3 C 0.31221(16) 0.32524(18) 0.9994(2)
C5_3 C 0.1111(2) 0.15614(19) 0.8000(2)
N4_3 N 0.1124(2) 0.1631(2) 0.91032(16)
C6_3 C 0.28475(19) 0.3055(2) 0.9633(2)
C9_3 C 0.26300(19) 0.30604(19) 0.8244(2)
C10_3 C 0.0862(2) 0.1264(2) 0.8180(2)
H4_3 H 0.0818 0.1238 0.8523
N5_3 N 0.1470(2) 0.1916(2) 0.97998(17)
C11_3 C 0.1696(2) 0.07036(19) 0.5559(2)
C12_3 C 0.06717(17) 0.09975(17) 0.7841(2)
C13_3 C 0.25994(19) 0.29756(19) 0.8788(2)
C15_3 C 0.07352(16) 0.10390(16) 0.73326(18)
H5_3 H 0.0613 0.0860 0.7110
C19_3 C 0.09844(17) 0.13509(17) 0.71533(18)
C21_3 C 0.2550(2) 0.2792(2) 0.9800(2)
C22_3 C 0.1370(3) 0.1856(3) 0.8834(2)
C23_3 C 0.28751(17) 0.3149(2) 0.9137(2)
H7_3 H 0.3075 0.3327 0.9026
C24_3 C 0.11686(19) 0.16083(18) 0.74890(18)
H8_3 H 0.1334 0.1816 0.7372
C25_3 C 0.1224(3) 0.1663(3) 0.9599(2)
C26_3 C 0.2310(2) 0.2698(2) 0.89564(19)
H9_3 H 0.2139 0.2570 0.8728
C27_3 C 0.2275(3) 0.2612(2) 0.9467(2)
C29_3 C 0.1937(3) 0.0321(2) 0.5537(3)
C30_3 C 0.1817(3) 0.0011(2) 0.5209(2)
H10_3 H 0.1585 0.0040 0.5016
C31_3 C 0.1705(3) 0.2116(3) 0.9466(2)
N6_3 N 0.1989(2) 0.2359(3) 0.96785(18)
N8_3 N 0.3157(3) 0.10654(16) 0.6711(3)
H14_3 H 0.2978 0.1142 0.6497
H15_3 H 0.3901 0.0096 0.7577
C35_3 C 0.3223(4) 0.0652(2) 0.6742(4)
N10_3 N 0.2983(3) 0.04412(19) 0.6414(3)
C36_3 C 0.3017(3) 0.0050(2) 0.6458(4)
C38_3 C 0.2269(2) 0.02629(19) 0.5828(3)
H18_3 H 0.2348 0.0472 0.6040
C40_3 C 0.3663(3) 0.1335(2) 0.7292(4)
H19_3 H 0.3792 0.1085 0.7327
C41_3 C 0.3295(3) 0.2093(2) 0.7200(3)
N12_3 N 0.3481(2) 0.0504(2) 0.7062(3)
C42_3 C 0.3158(3) 0.1758(2) 0.6925(3)
H20_3 H 0.2943 0.1786 0.6703
C43_3 C 0.3083(3) 0.25005(18) 0.7137(3)
C44_3 C 0.3625(3) 0.2040(2) 0.7492(3)
H21_3 H 0.3737 0.2264 0.7653
C46_3 C 0.3347(3) 0.1377(2) 0.6988(4)
C51_3 C 0.3481(3) 0.0096(2) 0.7070(4)
C52_3 C 0.3798(3) 0.1670(3) 0.7557(5)
C53_3 C 0.4144(3) 0.1606(3) 0.7950(5)
C18_3 C 0.3039(2) 0.8654(2) 0.7830(3)
C28_3 C 0.3419(2) 0.8900(2) 0.7822(3)
N7_3 N 0.2812(3) 0.97994(19) 0.6150(3)
H13_3 H 0.2882 0.9548 0.6158
N9_3 N 0.3733(3) 0.9931(2) 0.7439(4)
C33_3 C 0.2370(3) 0.9601(2) 0.5483(3)
H16_3 H 0.2508 0.9355 0.5467
C34_3 C 0.3746(3) 0.9534(2) 0.7609(4)
C37_3 C 0.3404(2) 0.9294(2) 0.7596(3)
H17_3 H 0.3168 0.9385 0.7442
C39_3 C 0.2503(3) 0.9897(2) 0.5826(3)
N11_3 N 0.3286(2) 0.98548(16) 0.6770(3)
C45_3 C 0.3771(3) 0.8766(2) 0.8030(3)
H22_3 H 0.3778 0.8510 0.8177
C47_3 C 0.2046(4) 0.9660(2) 0.5173(2)
C48_3 C 0.4113(3) 0.8996(2) 0.8028(3)
O20_3 O 0.4528(3) 0.8509(3) 0.8384(6)
C49_3 C 0.4508(3) 0.8849(3) 0.8232(5)
O21_3 O 0.4799(2) 0.9039(3) 0.8252(6)
C50_3 C 0.4105(3) 0.9395(2) 0.7814(4)
H23_3 H 0.4337 0.9557 0.7813
O24_3 O 0.2211(3) 0.9096(2) 0.4642(3)
C54_3 C 0.1931(5) 0.9332(3) 0.4807(4)
O25_3 O 0.5489(5) 0.8840(6) 0.9287(4)
O26_3 O 0.5078(4) 0.7859(5) 0.8936(8)
H53_4 H 0.733456 0.00426223 0.369303
H50_4 H 0.988783 0.709999 0.578003
loop_
_geom_bond_atom_site_label_1
_geom_bond_atom_site_label_2
_geom_bond_site_symmetry_1
_geom_bond_site_symmetry_2
Cd1 O5 1_555 1_555
Cd2 O4 1_555 1_555
O1 C2 1_555 1_555
O2 C1 1_555 1_555
O3 C4 1_555 1_555
O4 C3 1_555 1_555
O5 C7 1_555 1_555
O6 C1 1_555 1_555
O7 Cd1 1_555 1_555
O8 C2 1_555 1_555
O9 Cd2 1_555 1_555
O10 C9 1_555 1_555
O11 C9 1_555 1_555
O12 C4 1_555 1_555
O13 Cd2 1_555 1_555
O14 Cd2 1_555 1_555
C1 C12 1_555 1_555
C2 C20 1_555 1_555
N1 H1 1_555 1_555
O15 C18 1_555 1_555
N2 C22 1_555 1_555
C3 O9 1_555 1_555
N3 H2 1_555 1_555
C4 C6 1_555 1_555
C5 N1 1_555 1_555
N4 C22 1_555 1_555
C6 C21 1_555 1_555
C7 O7 1_555 1_555
C8 H3 1_555 1_555
C9 C13 1_555 1_555
O16 C18 1_555 1_555
C10 C5 1_555 1_555
H4 C10 1_555 1_555
N5 C25 1_555 1_555
C11 O13 1_555 1_555
C12 C10 1_555 1_555
C13 C23 1_555 1_555
C14 N3 1_555 1_555
C15 C12 1_555 1_555
H5 C15 1_555 1_555
C16 C7 1_555 1_555
C17 C14 1_555 1_555
C18 C28 1_555 1_555
C19 C3 1_555 1_555
C20 C17 1_555 1_555
C21 H6 1_555 1_555
C22 N1 1_555 1_555
C23 C6 1_555 1_555
H7 C23 1_555 1_555
C24 C5 1_555 1_555
H8 C24 1_555 1_555
C25 N3 1_555 1_555
C26 C13 1_555 1_555
H9 C26 1_555 1_555
C27 C21 1_555 1_555
C28 C37 1_555 1_555
C29 C11 1_555 1_555
C30 C29 1_555 1_555
H10 C30 1_555 1_555
O17 C43 1_555 1_555
O18 C43 1_555 1_555
C31 N2 1_555 1_555
N6 C27 1_555 1_555
H11 N6 1_555 1_555
C32 C16 1_555 1_555
H12 C32 1_555 1_555
N7 H13 1_555 1_555
N8 H14 1_555 1_555
N9 H15 1_555 1_555
C33 H16 1_555 1_555
C34 N9 1_555 1_555
C35 N8 1_555 1_555
N10 C35 1_555 1_555
C36 N7 1_555 1_555
C37 C34 1_555 1_555
H17 C37 1_555 1_555
C38 C29 1_555 1_555
H18 C38 1_555 1_555
C39 N7 1_555 1_555
N11 C36 1_555 1_555
C40 H19 1_555 1_555
C41 C42 1_555 1_555
N12 C35 1_555 1_555
C42 H20 1_555 1_555
C43 C41 1_555 1_555
C44 C41 1_555 1_555
H21 C44 1_555 1_555
C45 C28 1_555 1_555
H22 C45 1_555 1_555
C46 N8 1_555 1_555
C47 C30 1_555 1_555
C48 C45 1_555 1_555
O20 C49 1_555 1_555
C49 C48 1_555 1_555
O21 C49 1_555 1_555
O22 C53 1_555 1_555
C50 C34 1_555 1_555
H23 C50 1_555 1_555
O23 C53 1_555 1_555
C51 N9 1_555 1_555
C52 C40 1_555 1_555
C53 C52 1_555 1_555
Cd4 O1 1_555 1_555
O45 Cd2 1_555 1_555
O50 C108 1_555 1_555
C108 O45 1_555 1_555
Cd10 O2 1_555 1_555
Cd11 O3 1_555 1_555
O53 Cd1 1_555 1_555
O54 Cd1 1_555 1_555
O55 Cd2 1_555 1_555
O57 Cd1 1_555 1_555
O58 Cd1 1_555 1_555
O59 Cd1 1_555 1_555
O60 Cd1 1_555 1_555
O61 Cd4 1_555 1_555
O63 Cd4 1_555 1_555
O67 Cd4 1_555 1_555
O69 Cd4 1_555 1_555
O71 Cd4 1_555 1_555
O73 Cd4 1_555 1_555
Cd14 O22 1_555 1_555
Cd17 O10 1_555 1_555
Cd18 O15 1_555 1_555
O6 Cd10 1_555 1_555
O8 Cd4 1_555 1_555
O11 Cd17 1_555 1_555
O12 Cd11 1_555 1_555
O14 C11 1_555 1_555
N4 C25 1_555 1_555
C8 C14 1_555 1_555
C8 C16 1_555 1_555
O16 Cd18 1_555 1_555
N5 C31 1_555 1_555
C15 C19 1_555 1_555
C19 C24 1_555 1_555
C20 C32 1_555 1_555
C26 C27 1_555 1_555
O17 Cd17 1_555 1_555
O18 Cd17 1_555 1_555
C31 N6 1_555 1_555
C33 C39 1_555 1_555
C33 C47 1_555 1_555
N10 C36 1_555 1_555
C38 C39 1_555 1_555
N11 C51 1_555 1_555
C40 C46 1_555 1_555
N12 C51 1_555 1_555
C42 C46 1_555 1_555
C44 C52 1_555 1_555
C48 C50 1_555 1_555
O23 Cd14 1_555 1_555
C17 H47 1_555 1_555
O19 C54 1_555 1_555
O24 C54 1_555 1_555
Cd5 O30 1_555 1_555
O27 C56 1_555 1_555
O53 C55 1_555 1_555
O29 C58 1_555 1_555
O30 C57 1_555 1_555
O31 C61 1_555 1_555
O58 C55 1_555 1_555
O33 C61 1_555 1_555
O34 C56 1_555 1_555
O35 Cd5 1_555 1_555
O36 C63 1_555 1_555
O37 C63 1_555 1_555
O38 C58 1_555 1_555
O39 Cd5 1_555 1_555
O40 Cd5 1_555 1_555
C55 C66 1_555 1_555
C56 C74 1_555 1_555
N13 H24 1_555 1_555
O67 C72 1_555 1_555
N14 C76 1_555 1_555
C57 O35 1_555 1_555
N15 H25 1_555 1_555
C58 C60 1_555 1_555
C59 N13 1_555 1_555
N16 C76 1_555 1_555
C60 C75 1_555 1_555
C61 C70 1_555 1_555
C62 H26 1_555 1_555
C63 C67 1_555 1_555
O69 C72 1_555 1_555
C64 C59 1_555 1_555
H27 C64 1_555 1_555
N17 C79 1_555 1_555
C65 O39 1_555 1_555
C66 C64 1_555 1_555
C67 C77 1_555 1_555
C68 N15 1_555 1_555
C69 C66 1_555 1_555
H28 C69 1_555 1_555
C70 C62 1_555 1_555
C71 C68 1_555 1_555
C72 C82 1_555 1_555
C73 C57 1_555 1_555
C74 C71 1_555 1_555
C75 H29 1_555 1_555
C76 N13 1_555 1_555
C77 C60 1_555 1_555
H30 C77 1_555 1_555
C78 C59 1_555 1_555
H31 C78 1_555 1_555
C79 N15 1_555 1_555
C80 C67 1_555 1_555
H32 C80 1_555 1_555
C81 C75 1_555 1_555
C82 C91 1_555 1_555
C83 C65 1_555 1_555
C84 C83 1_555 1_555
H33 C84 1_555 1_555
O43 C97 1_555 1_555
O44 C97 1_555 1_555
C85 N14 1_555 1_555
N18 C81 1_555 1_555
H34 N18 1_555 1_555
C86 C70 1_555 1_555
H35 C86 1_555 1_555
N19 H36 1_555 1_555
N20 H37 1_555 1_555
N21 H38 1_555 1_555
C87 H39 1_555 1_555
C88 N21 1_555 1_555
C89 N20 1_555 1_555
N22 C89 1_555 1_555
C90 N19 1_555 1_555
C91 C88 1_555 1_555
H40 C91 1_555 1_555
C92 C83 1_555 1_555
H41 C92 1_555 1_555
C93 N19 1_555 1_555
N23 C90 1_555 1_555
C94 H42 1_555 1_555
C95 C96 1_555 1_555
N24 C89 1_555 1_555
C96 H43 1_555 1_555
C97 C95 1_555 1_555
C98 C95 1_555 1_555
H44 C98 1_555 1_555
C99 C82 1_555 1_555
H45 C99 1_555 1_555
C100 N20 1_555 1_555
C101 C84 1_555 1_555
C102 C99 1_555 1_555
O46 C103 1_555 1_555
C103 C102 1_555 1_555
O47 C103 1_555 1_555
O48 C107 1_555 1_555
C104 C88 1_555 1_555
H46 C104 1_555 1_555
O49 C107 1_555 1_555
C105 N21 1_555 1_555
C106 C94 1_555 1_555
C107 C106 1_555 1_555
Cd7 O27 1_555 1_555
Cd10 O31 1_555 1_555
Cd12 O19 1_555 1_555
Cd13 O29 1_555 1_555
O56 Cd5 1_555 1_555
O62 Cd7 1_555 1_555
O64 Cd7 1_555 1_555
O68 Cd7 1_555 1_555
O70 Cd7 1_555 1_555
O72 Cd7 1_555 1_555
O74 Cd7 1_555 1_555
O75 Cd5 1_555 1_555
Cd15 O48 1_555 1_555
Cd19 O36 1_555 1_555
O33 Cd10 1_555 1_555
O34 Cd7 1_555 1_555
O37 Cd19 1_555 1_555
O38 Cd13 1_555 1_555
O40 C65 1_555 1_555
N16 C79 1_555 1_555
C62 C68 1_555 1_555
N17 C85 1_555 1_555
C69 C73 1_555 1_555
C73 C78 1_555 1_555
C74 C86 1_555 1_555
C80 C81 1_555 1_555
O43 Cd19 1_555 1_555
O44 Cd19 1_555 1_555
C85 N18 1_555 1_555
C87 C93 1_555 1_555
C87 C101 1_555 1_555
N22 C90 1_555 1_555
C92 C93 1_555 1_555
N23 C105 1_555 1_555
C94 C100 1_555 1_555
N24 C105 1_555 1_555
C96 C100 1_555 1_555
C98 C106 1_555 1_555
C102 C104 1_555 1_555
O49 Cd15 1_555 1_555
C71 H52 1_555 1_555
O25 Cd3 1_555 1_555
O26 Cd3 1_555 1_555
O76 Cd3 1_555 1_555
O78 Cd3 1_555 1_555
O26 H51 1_555 1_555
O51 Cd6 1_555 1_555
O52 Cd6 1_555 1_555
O77 Cd6 1_555 1_555
O79 Cd6 1_555 1_555
O52 H54 1_555 1_555
O51_2 Cd14 1_555 1_555
O52_2 Cd14 1_555 1_555
O52_2 H54_2 1_555 1_555
Cd5_2 O30_2 1_555 1_555
O27_2 C56_2 1_555 1_555
O28 C55_2 1_555 1_555
O29_2 C58_2 1_555 1_555
O30_2 C57_2 1_555 1_555
O57 C61_2 1_555 1_555
O32 C55_2 1_555 1_555
O60 C61_2 1_555 1_555
O34_2 C56_2 1_555 1_555
O35_2 Cd5_2 1_555 1_555
O36_2 C63_2 1_555 1_555
O37_2 C63_2 1_555 1_555
O38_2 C58_2 1_555 1_555
O39_2 Cd5_2 1_555 1_555
O40_2 Cd5_2 1_555 1_555
C55_2 C66_2 1_555 1_555
C56_2 C74_2 1_555 1_555
N13_2 H24_2 1_555 1_555
O68 C72_2 1_555 1_555
N14_2 C76_2 1_555 1_555
C57_2 O35_2 1_555 1_555
N15_2 H25_2 1_555 1_555
C58_2 C60_2 1_555 1_555
C59_2 N13_2 1_555 1_555
N16_2 C76_2 1_555 1_555
C60_2 C75_2 1_555 1_555
C61_2 C70_2 1_555 1_555
C62_2 H26_2 1_555 1_555
C63_2 C67_2 1_555 1_555
O70 C72_2 1_555 1_555
C64_2 C59_2 1_555 1_555
H27_2 C64_2 1_555 1_555
N17_2 C79_2 1_555 1_555
C65_2 O39_2 1_555 1_555
C66_2 C64_2 1_555 1_555
C67_2 C77_2 1_555 1_555
C68_2 N15_2 1_555 1_555
C69_2 C66_2 1_555 1_555
H28_2 C69_2 1_555 1_555
C70_2 C62_2 1_555 1_555
C71_2 C68_2 1_555 1_555
C72_2 C82_2 1_555 1_555
C73_2 C57_2 1_555 1_555
C74_2 C71_2 1_555 1_555
C75_2 H29_2 1_555 1_555
C76_2 N13_2 1_555 1_555
C77_2 C60_2 1_555 1_555
H30_2 C77_2 1_555 1_555
C78_2 C59_2 1_555 1_555
H31_2 C78_2 1_555 1_555
C79_2 N15_2 1_555 1_555
C80_2 C67_2 1_555 1_555
H32_2 C80_2 1_555 1_555
C81_2 C75_2 1_555 1_555
C82_2 C91_2 1_555 1_555
C83_2 C65_2 1_555 1_555
C84_2 C83_2 1_555 1_555
H33_2 C84_2 1_555 1_555
O43_2 C97_2 1_555 1_555
O44_2 C97_2 1_555 1_555
C85_2 N14_2 1_555 1_555
N18_2 C81_2 1_555 1_555
H34_2 N18_2 1_555 1_555
C86_2 C70_2 1_555 1_555
H35_2 C86_2 1_555 1_555
N19_2 H36_2 1_555 1_555
N20_2 H37_2 1_555 1_555
N21_2 H38_2 1_555 1_555
C87_2 H39_2 1_555 1_555
C88_2 N21_2 1_555 1_555
C89_2 N20_2 1_555 1_555
N22_2 C89_2 1_555 1_555
C90_2 N19_2 1_555 1_555
C91_2 C88_2 1_555 1_555
H40_2 C91_2 1_555 1_555
C92_2 C83_2 1_555 1_555
H41_2 C92_2 1_555 1_555
C93_2 N19_2 1_555 1_555
N23_2 C90_2 1_555 1_555
C94_2 H42_2 1_555 1_555
C95_2 C96_2 1_555 1_555
N24_2 C89_2 1_555 1_555
C96_2 H43_2 1_555 1_555
C97_2 C95_2 1_555 1_555
C98_2 C95_2 1_555 1_555
H44_2 C98_2 1_555 1_555
C99_2 C82_2 1_555 1_555
H45_2 C99_2 1_555 1_555
C100_2 N20_2 1_555 1_555
C101_2 C84_2 1_555 1_555
C102_2 C99_2 1_555 1_555
O46_2 C103_2 1_555 1_555
C103_2 C102_2 1_555 1_555
O47_2 C103_2 1_555 1_555
O76 C107_2 1_555 1_555
C104_2 C88_2 1_555 1_555
H46_2 C104_2 1_555 1_555
O78 C107_2 1_555 1_555
C105_2 N21_2 1_555 1_555
C106_2 C94_2 1_555 1_555
C107_2 C106_2 1_555 1_555
Cd7_2 O27_2 1_555 1_555
Cd10 O28 1_555 1_555
Cd13_2 O29_2 1_555 1_555
O56_2 Cd5_2 1_555 1_555
O62_2 Cd7_2 1_555 1_555
O64_2 Cd7_2 1_555 1_555
O68_2 Cd7_2 1_555 1_555
O70_2 Cd7_2 1_555 1_555
O72_2 Cd7_2 1_555 1_555
O74_2 Cd7_2 1_555 1_555
O75_2 Cd5_2 1_555 1_555
Cd19_2 O36_2 1_555 1_555
O32 Cd10 1_555 1_555
O34_2 Cd7_2 1_555 1_555
O37_2 Cd19_2 1_555 1_555
O38_2 Cd13_2 1_555 1_555
O40_2 C65_2 1_555 1_555
N16_2 C79_2 1_555 1_555
C62_2 C68_2 1_555 1_555
N17_2 C85_2 1_555 1_555
C69_2 C73_2 1_555 1_555
C73_2 C78_2 1_555 1_555
C74_2 C86_2 1_555 1_555
C80_2 C81_2 1_555 1_555
O43_2 Cd19_2 1_555 1_555
O44_2 Cd19_2 1_555 1_555
C85_2 N18_2 1_555 1_555
C87_2 C93_2 1_555 1_555
C87_2 C101_2 1_555 1_555
N22_2 C90_2 1_555 1_555
C92_2 C93_2 1_555 1_555
N23_2 C105_2 1_555 1_555
C94_2 C100_2 1_555 1_555
N24_2 C105_2 1_555 1_555
C96_2 C100_2 1_555 1_555
C98_2 C106_2 1_555 1_555
C102_2 C104_2 1_555 1_555
C71_2 H52_2 1_555 1_555
O50_2 C108_2 1_555 1_555
C108_2 O75 1_555 1_555
O57_2 Cd10 1_555 1_555
O60_2 Cd10 1_555 1_555
O15_2 C18_2 1_555 1_555
O16_2 C18_2 1_555 1_555
C18_2 C28_2 1_555 1_555
C28_2 C37_2 1_555 1_555
O19_2 C54_2 1_555 1_555
N7_2 H13_2 1_555 1_555
C33_2 H16_2 1_555 1_555
C34_2 N9_2 1_555 1_555
C37_2 C34_2 1_555 1_555
H17_2 C37_2 1_555 1_555
C39_2 N7_2 1_555 1_555
C45_2 C28_2 1_555 1_555
H22_2 C45_2 1_555 1_555
C48_2 C45_2 1_555 1_555
O20_2 C49_2 1_555 1_555
C49_2 C48_2 1_555 1_555
O21_2 C49_2 1_555 1_555
C50_2 C34_2 1_555 1_555
H23_2 C50_2 1_555 1_555
O24_2 C54_2 1_555 1_555
C54_2 C47_2 1_555 1_555
Cd3_2 O20_2 1_555 1_555
O25_2 Cd3_2 1_555 1_555
O26_2 Cd3_2 1_555 1_555
Cd11 O19_2 1_555 1_555
O76_2 Cd3_2 1_555 1_555
O78_2 Cd3_2 1_555 1_555
Cd17 O15_2 1_555 1_555
O16_2 Cd17 1_555 1_555
C33_2 C39_2 1_555 1_555
C33_2 C47_2 1_555 1_555
C48_2 C50_2 1_555 1_555
O21_2 Cd3_2 1_555 1_555
O54_2 Cd8 1_555 1_555
O59_2 Cd8 1_555 1_555
O57_3 Cd8_2 1_555 1_555
O60_3 Cd8_2 1_555 1_555
Cd2_2 O4_2 1_555 1_555
O2_2 C1_2 1_555 1_555
O4_2 C3_2 1_555 1_555
O6_2 C1_2 1_555 1_555
O9_2 Cd2_2 1_555 1_555
O10_2 C9_2 1_555 1_555
O11_2 C9_2 1_555 1_555
O12_2 C4_2 1_555 1_555
O13_2 Cd2_2 1_555 1_555
O14_2 Cd2_2 1_555 1_555
C1_2 C12_2 1_555 1_555
N1_2 H1_2 1_555 1_555
N2_2 C22_2 1_555 1_555
C3_2 O9_2 1_555 1_555
N3_2 H2_2 1_555 1_555
C4_2 C6_2 1_555 1_555
C5_2 N1_2 1_555 1_555
N4_2 C22_2 1_555 1_555
C6_2 C21_2 1_555 1_555
C9_2 C13_2 1_555 1_555
C10_2 C5_2 1_555 1_555
H4_2 C10_2 1_555 1_555
N5_2 C25_2 1_555 1_555
C11_2 O13_2 1_555 1_555
C12_2 C10_2 1_555 1_555
C13_2 C23_2 1_555 1_555
C15_2 C12_2 1_555 1_555
H5_2 C15_2 1_555 1_555
C19_2 C3_2 1_555 1_555
C22_2 N1_2 1_555 1_555
C23_2 C6_2 1_555 1_555
H7_2 C23_2 1_555 1_555
C24_2 C5_2 1_555 1_555
H8_2 C24_2 1_555 1_555
C25_2 N3_2 1_555 1_555
C26_2 C13_2 1_555 1_555
H9_2 C26_2 1_555 1_555
C27_2 C21_2 1_555 1_555
C29_2 C11_2 1_555 1_555
C30_2 C29_2 1_555 1_555
H10_2 C30_2 1_555 1_555
O17_2 C43_2 1_555 1_555
O18_2 C43_2 1_555 1_555
C31_2 N2_2 1_555 1_555
N6_2 C27_2 1_555 1_555
N8_2 H14_2 1_555 1_555
C35_2 N8_2 1_555 1_555
N10_2 C35_2 1_555 1_555
C38_2 C29_2 1_555 1_555
H18_2 C38_2 1_555 1_555
C40_2 H19_2 1_555 1_555
C41_2 C42_2 1_555 1_555
N12_2 C35_2 1_555 1_555
C42_2 H20_2 1_555 1_555
C43_2 C41_2 1_555 1_555
C44_2 C41_2 1_555 1_555
H21_2 C44_2 1_555 1_555
C46_2 N8_2 1_555 1_555
O22_2 C53_2 1_555 1_555
O23_2 C53_2 1_555 1_555
C52_2 C40_2 1_555 1_555
C53_2 C52_2 1_555 1_555
O41 C72_3 1_555 1_555
O42 C72_3 1_555 1_555
C72_3 C82_3 1_555 1_555
C82_3 C91_3 1_555 1_555
O45_2 Cd2_2 1_555 1_555
N19_3 H36_3 1_555 1_555
C87_3 H39_3 1_555 1_555
C88_3 N21_3 1_555 1_555
C91_3 C88_3 1_555 1_555
H40_3 C91_3 1_555 1_555
C93_3 N19_3 1_555 1_555
C99_3 C82_3 1_555 1_555
H45_3 C99_3 1_555 1_555
C102_3 C99_3 1_555 1_555
O46_3 C103_3 1_555 1_555
C103_3 C102_3 1_555 1_555
O47_3 C103_3 1_555 1_555
C104_3 C88_3 1_555 1_555
H46_3 C104_3 1_555 1_555
O50_3 C108_3 1_555 1_555
C108_3 O45_2 1_555 1_555
Cd6_2 O46_3 1_555 1_555
O51_3 Cd6_2 1_555 1_555
O52_3 Cd6_2 1_555 1_555
Cd9_3 O2_2 1_555 1_555
O55_2 Cd2_2 1_555 1_555
O65_2 Cd2_2 1_555 1_555
O77_2 Cd6_2 1_555 1_555
O79_2 Cd6_2 1_555 1_555
Cd14_2 O22_2 1_555 1_555
Cd16 O41 1_555 1_555
Cd18 O10_2 1_555 1_555
O6_2 Cd9_3 1_555 1_555
O11_2 Cd18 1_555 1_555
O14_2 C11_2 1_555 1_555
N4_2 C25_2 1_555 1_555
N5_2 C31_2 1_555 1_555
C15_2 C19_2 1_555 1_555
C19_2 C24_2 1_555 1_555
C26_2 C27_2 1_555 1_555
O17_2 Cd18 1_555 1_555
O18_2 Cd18 1_555 1_555
C31_2 N6_2 1_555 1_555
N10_2 C36_2 1_555 1_555
C40_2 C46_2 1_555 1_555
N12_2 C51_2 1_555 1_555
C42_2 C46_2 1_555 1_555
C44_2 C52_2 1_555 1_555
O23_2 Cd14_2 1_555 1_555
O42 Cd16 1_555 1_555
C87_3 C93_3 1_555 1_555
C87_3 C101_3 1_555 1_555
C101_3 C108_3 1_555 1_555
C102_3 C104_3 1_555 1_555
O47_3 Cd6_2 1_555 1_555
Cd8_3 O5_2 1_555 1_555
O1_2 C2_2 1_555 1_555
O5_2 C7_2 1_555 1_555
O7_2 Cd8_3 1_555 1_555
O8_2 C2_2 1_555 1_555
C2_2 C20_2 1_555 1_555
C7_2 O7_2 1_555 1_555
C8_2 H3_2 1_555 1_555
C16_2 C7_2 1_555 1_555
C17_2 C14_2 1_555 1_555
C20_2 C17_2 1_555 1_555
C32_2 C16_2 1_555 1_555
H12_2 C32_2 1_555 1_555
Cd16 O1_2 1_555 1_555
Cd12 O3_2 1_555 1_555
O61_2 Cd16 1_555 1_555
O63_2 Cd16 1_555 1_555
O71_2 Cd16 1_555 1_555
O73_2 Cd16 1_555 1_555
O8_2 Cd16 1_555 1_555
C8_2 C14_2 1_555 1_555
C8_2 C16_2 1_555 1_555
C20_2 C32_2 1_555 1_555
C17_2 H47_2 1_555 1_555
O27_3 C56_3 1_555 1_555
O31_2 C61_3 1_555 1_555
O33_2 C61_3 1_555 1_555
O34_3 C56_3 1_555 1_555
C56_3 C74_3 1_555 1_555
C61_3 C70_3 1_555 1_555
C62_3 H26_3 1_555 1_555
C70_3 C62_3 1_555 1_555
C71_3 C68_3 1_555 1_555
C74_3 C71_3 1_555 1_555
C86_3 C70_3 1_555 1_555
H35_3 C86_3 1_555 1_555
Cd19_2 O27_3 1_555 1_555
Cd9_4 O31_2 1_555 1_555
O68_3 Cd19_2 1_555 1_555
O70_3 Cd19_2 1_555 1_555
O33_2 Cd9_4 1_555 1_555
O34_3 Cd19_2 1_555 1_555
C62_3 C68_3 1_555 1_555
C74_3 C86_3 1_555 1_555
C71_3 H52_3 1_555 1_555
Cd13_2 O30_3 1_555 1_555
O28_2 C55_3 1_555 1_555
O30_3 C57_3 1_555 1_555
O32_2 C55_3 1_555 1_555
O35_3 Cd13_2 1_555 1_555
O62_2 C63_3 1_555 1_555
O64_2 C63_3 1_555 1_555
O66_2 C58_3 1_555 1_555
O39_3 Cd13_2 1_555 1_555
O40_3 Cd13_2 1_555 1_555
C55_3 C66_3 1_555 1_555
N13_3 H24_3 1_555 1_555
N14_3 C76_3 1_555 1_555
C57_3 O35_3 1_555 1_555
N15_3 H25_3 1_555 1_555
C58_3 C60_3 1_555 1_555
C59_3 N13_3 1_555 1_555
N16_3 C76_3 1_555 1_555
C60_3 C75_3 1_555 1_555
C63_3 C67_3 1_555 1_555
C64_3 C59_3 1_555 1_555
H27_3 C64_3 1_555 1_555
N17_3 C79_3 1_555 1_555
C65_3 O39_3 1_555 1_555
C66_3 C64_3 1_555 1_555
C67_3 C77_3 1_555 1_555
C69_3 C66_3 1_555 1_555
H28_3 C69_3 1_555 1_555
C73_3 C57_3 1_555 1_555
C76_3 N13_3 1_555 1_555
C77_3 C60_3 1_555 1_555
H30_3 C77_3 1_555 1_555
C78_3 C59_3 1_555 1_555
H31_3 C78_3 1_555 1_555
C79_3 N15_3 1_555 1_555
C80_3 C67_3 1_555 1_555
H32_3 C80_3 1_555 1_555
C81_3 C75_3 1_555 1_555
C83_3 C65_3 1_555 1_555
C84_3 C83_3 1_555 1_555
H33_3 C84_3 1_555 1_555
O72_2 C97_3 1_555 1_555
O74_2 C97_3 1_555 1_555
C85_3 N14_3 1_555 1_555
N18_3 C81_3 1_555 1_555
N20_3 H37_3 1_555 1_555
C89_3 N20_3 1_555 1_555
N22_3 C89_3 1_555 1_555
C92_3 C83_3 1_555 1_555
H41_3 C92_3 1_555 1_555
C94_3 H42_3 1_555 1_555
C95_3 C96_3 1_555 1_555
N24_3 C89_3 1_555 1_555
C96_3 H43_3 1_555 1_555
C97_3 C95_3 1_555 1_555
C98_3 C95_3 1_555 1_555
H44_3 C98_3 1_555 1_555
C100_3 N20_3 1_555 1_555
O48_2 C107_3 1_555 1_555
O49_2 C107_3 1_555 1_555
C106_3 C94_3 1_555 1_555
C107_3 C106_3 1_555 1_555
Cd8_4 O28_2 1_555 1_555
O75_3 Cd13_2 1_555 1_555
Cd15_2 O48_2 1_555 1_555
O32_2 Cd8_4 1_555 1_555
O40_3 C65_3 1_555 1_555
N16_3 C79_3 1_555 1_555
N17_3 C85_3 1_555 1_555
C69_3 C73_3 1_555 1_555
C73_3 C78_3 1_555 1_555
C80_3 C81_3 1_555 1_555
C85_3 N18_3 1_555 1_555
N22_3 C90_3 1_555 1_555
C94_3 C100_3 1_555 1_555
N24_3 C105_3 1_555 1_555
C96_3 C100_3 1_555 1_555
C98_3 C106_3 1_555 1_555
O49_2 Cd15_2 1_555 1_555
O51_4 Cd15 1_555 1_555
O52_4 Cd15 1_555 1_555
O52_4 H54_3 1_555 1_555
O50_4 C108_4 1_555 1_555
C108_4 O75_2 1_555 1_555
Cd12 O30_4 1_555 1_555
O27_4 C56_4 1_555 1_555
O54 C55_4 1_555 1_555
O55_2 C58_4 1_555 1_555
O30_4 C57_4 1_555 1_555
O57_2 C61_4 1_555 1_555
O59 C55_4 1_555 1_555
O60_2 C61_4 1_555 1_555
O34_4 C56_4 1_555 1_555
O35_4 Cd12 1_555 1_555
O61_2 C63_4 1_555 1_555
O63_2 C63_4 1_555 1_555
O65_2 C58_4 1_555 1_555
O39_4 Cd12 1_555 1_555
O40_4 Cd12 1_555 1_555
C55_4 C66_4 1_555 1_555
C56_4 C74_4 1_555 1_555
N13_4 H24_4 1_555 1_555
O68_2 C72_4 1_555 1_555
N14_4 C76_4 1_555 1_555
C57_4 O35_4 1_555 1_555
N15_4 H25_4 1_555 1_555
C58_4 C60_4 1_555 1_555
C59_4 N13_4 1_555 1_555
N16_4 C76_4 1_555 1_555
C60_4 C75_4 1_555 1_555
C61_4 C70_4 1_555 1_555
C62_4 H26_4 1_555 1_555
C63_4 C67_4 1_555 1_555
O70_2 C72_4 1_555 1_555
C64_4 C59_4 1_555 1_555
H27_4 C64_4 1_555 1_555
N17_4 C79_4 1_555 1_555
C65_4 O39_4 1_555 1_555
C66_4 C64_4 1_555 1_555
C67_4 C77_4 1_555 1_555
C68_4 N15_4 1_555 1_555
C69_4 C66_4 1_555 1_555
H28_4 C69_4 1_555 1_555
C70_4 C62_4 1_555 1_555
C71_4 C68_4 1_555 1_555
C72_4 C82_4 1_555 1_555
C73_4 C57_4 1_555 1_555
C74_4 C71_4 1_555 1_555
C75_4 H29_4 1_555 1_555
C76_4 N13_4 1_555 1_555
C77_4 C60_4 1_555 1_555
H30_4 C77_4 1_555 1_555
C78_4 C59_4 1_555 1_555
H31_4 C78_4 1_555 1_555
C79_4 N15_4 1_555 1_555
C80_4 C67_4 1_555 1_555
H32_4 C80_4 1_555 1_555
C81_4 C75_4 1_555 1_555
C82_4 C91_4 1_555 1_555
C83_4 C65_4 1_555 1_555
C84_4 C83_4 1_555 1_555
H33_4 C84_4 1_555 1_555
O71_2 C97_4 1_555 1_555
O73_2 C97_4 1_555 1_555
C85_4 N14_4 1_555 1_555
N18_4 C81_4 1_555 1_555
H34_4 N18_4 1_555 1_555
C86_4 C70_4 1_555 1_555
H35_4 C86_4 1_555 1_555
N19_4 H36_4 1_555 1_555
N20_4 H37_4 1_555 1_555
N21_4 H38_4 1_555 1_555
C87_4 H39_4 1_555 1_555
C88_4 N21_4 1_555 1_555
C89_4 N20_4 1_555 1_555
N22_4 C89_4 1_555 1_555
C90_4 N19_4 1_555 1_555
C91_4 C88_4 1_555 1_555
H40_4 C91_4 1_555 1_555
C92_4 C83_4 1_555 1_555
H41_4 C92_4 1_555 1_555
C93_4 N19_4 1_555 1_555
N23_4 C90_4 1_555 1_555
C94_4 H42_4 1_555 1_555
C95_4 C96_4 1_555 1_555
N24_4 C89_4 1_555 1_555
C96_4 H43_4 1_555 1_555
C97_4 C95_4 1_555 1_555
C98_4 C95_4 1_555 1_555
H44_4 C98_4 1_555 1_555
C99_4 C82_4 1_555 1_555
H45_4 C99_4 1_555 1_555
C100_4 N20_4 1_555 1_555
C101_4 C84_4 1_555 1_555
C102_4 C99_4 1_555 1_555
O46_4 C103_4 1_555 1_555
C103_4 C102_4 1_555 1_555
O47_4 C103_4 1_555 1_555
O77 C107_4 1_555 1_555
C104_4 C88_4 1_555 1_555
H46_4 C104_4 1_555 1_555
O79 C107_4 1_555 1_555
C105_4 N21_4 1_555 1_555
C106_4 C94_4 1_555 1_555
C107_4 C106_4 1_555 1_555
Cd18 O27_4 1_555 1_555
O34_4 Cd18 1_555 1_555
O40_4 C65_4 1_555 1_555
N16_4 C79_4 1_555 1_555
C62_4 C68_4 1_555 1_555
N17_4 C85_4 1_555 1_555
C69_4 C73_4 1_555 1_555
C73_4 C78_4 1_555 1_555
C74_4 C86_4 1_555 1_555
C80_4 C81_4 1_555 1_555
C85_4 N18_4 1_555 1_555
C87_4 C93_4 1_555 1_555
C87_4 C101_4 1_555 1_555
N22_4 C90_4 1_555 1_555
C92_4 C93_4 1_555 1_555
N23_4 C105_4 1_555 1_555
C94_4 C100_4 1_555 1_555
N24_4 C105_4 1_555 1_555
C96_4 C100_4 1_555 1_555
C98_4 C106_4 1_555 1_555
C102_4 C104_4 1_555 1_555
C71_4 H52_4 1_555 1_555
O57_4 Cd9 1_555 1_555
O60_4 Cd9 1_555 1_555
O53_2 Cd9_2 1_555 1_555
O58_2 Cd9_2 1_555 1_555
Cd13 O30_5 1_555 1_555
O53_2 C55_5 1_555 1_555
O30_5 C57_5 1_555 1_555
O58_2 C55_5 1_555 1_555
O35_5 Cd13 1_555 1_555
O62 C63_5 1_555 1_555
O64 C63_5 1_555 1_555
O66 C58_5 1_555 1_555
O39_5 Cd13 1_555 1_555
O40_5 Cd13 1_555 1_555
C55_5 C66_5 1_555 1_555
N13_5 H24_5 1_555 1_555
N14_5 C76_5 1_555 1_555
C57_5 O35_5 1_555 1_555
N15_5 H25_5 1_555 1_555
C58_5 C60_5 1_555 1_555
C59_5 N13_5 1_555 1_555
N16_5 C76_5 1_555 1_555
C60_5 C75_5 1_555 1_555
C63_5 C67_5 1_555 1_555
C64_5 C59_5 1_555 1_555
H27_5 C64_5 1_555 1_555
N17_5 C79_5 1_555 1_555
C65_5 O39_5 1_555 1_555
C66_5 C64_5 1_555 1_555
C67_5 C77_5 1_555 1_555
C69_5 C66_5 1_555 1_555
H28_5 C69_5 1_555 1_555
C73_5 C57_5 1_555 1_555
C76_5 N13_5 1_555 1_555
C77_5 C60_5 1_555 1_555
H30_5 C77_5 1_555 1_555
C78_5 C59_5 1_555 1_555
H31_5 C78_5 1_555 1_555
C79_5 N15_5 1_555 1_555
C80_5 C67_5 1_555 1_555
H32_5 C80_5 1_555 1_555
C81_5 C75_5 1_555 1_555
C83_5 C65_5 1_555 1_555
C84_5 C83_5 1_555 1_555
H33_5 C84_5 1_555 1_555
O72 C97_5 1_555 1_555
O74 C97_5 1_555 1_555
C85_5 N14_5 1_555 1_555
N18_5 C81_5 1_555 1_555
N20_5 H37_5 1_555 1_555
C89_5 N20_5 1_555 1_555
N22_5 C89_5 1_555 1_555
C92_5 C83_5 1_555 1_555
H41_5 C92_5 1_555 1_555
C94_5 H42_5 1_555 1_555
C95_5 C96_5 1_555 1_555
N24_5 C89_5 1_555 1_555
C96_5 H43_5 1_555 1_555
C97_5 C95_5 1_555 1_555
C98_5 C95_5 1_555 1_555
H44_5 C98_5 1_555 1_555
C100_5 N20_5 1_555 1_555
O76_2 C107_5 1_555 1_555
O78_2 C107_5 1_555 1_555
C106_5 C94_5 1_555 1_555
C107_5 C106_5 1_555 1_555
O75_4 Cd13 1_555 1_555
O40_5 C65_5 1_555 1_555
N16_5 C79_5 1_555 1_555
N17_5 C85_5 1_555 1_555
C69_5 C73_5 1_555 1_555
C73_5 C78_5 1_555 1_555
C80_5 C81_5 1_555 1_555
C85_5 N18_5 1_555 1_555
N22_5 C90_5 1_555 1_555
C94_5 C100_5 1_555 1_555
N24_5 C105_5 1_555 1_555
C96_5 C100_5 1_555 1_555
C98_5 C106_5 1_555 1_555
O27_5 C56_5 1_555 1_555
O57_3 C61_5 1_555 1_555
O60_3 C61_5 1_555 1_555
O34_5 C56_5 1_555 1_555
C56_5 C74_5 1_555 1_555
C61_5 C70_5 1_555 1_555
C62_5 H26_5 1_555 1_555
C70_5 C62_5 1_555 1_555
C71_5 C68_5 1_555 1_555
C74_5 C71_5 1_555 1_555
C86_5 C70_5 1_555 1_555
H35_5 C86_5 1_555 1_555
Cd19 O27_5 1_555 1_555
O68_4 Cd19 1_555 1_555
O70_4 Cd19 1_555 1_555
O34_5 Cd19 1_555 1_555
C62_5 C68_5 1_555 1_555
C74_5 C86_5 1_555 1_555
C71_5 H52_5 1_555 1_555
O68_3 C72_5 1_555 1_555
O70_3 C72_5 1_555 1_555
C72_5 C82_5 1_555 1_555
C82_5 C91_5 1_555 1_555
N19_5 H36_5 1_555 1_555
C87_5 H39_5 1_555 1_555
C88_5 N21_5 1_555 1_555
C91_5 C88_5 1_555 1_555
H40_5 C91_5 1_555 1_555
C93_5 N19_5 1_555 1_555
C99_5 C82_5 1_555 1_555
H45_5 C99_5 1_555 1_555
C102_5 C99_5 1_555 1_555
O46_5 C103_5 1_555 1_555
C103_5 C102_5 1_555 1_555
O47_5 C103_5 1_555 1_555
C104_5 C88_5 1_555 1_555
H46_5 C104_5 1_555 1_555
O50_5 C108_5 1_555 1_555
C108_5 O75_3 1_555 1_555
Cd14_2 O46_5 1_555 1_555
O51_5 Cd14_2 1_555 1_555
O52_5 Cd14_2 1_555 1_555
C87_5 C93_5 1_555 1_555
C87_5 C101_5 1_555 1_555
C101_5 C108_5 1_555 1_555
C102_5 C104_5 1_555 1_555
O47_5 Cd14_2 1_555 1_555
O1_3 C2_3 1_555 1_555
O57_4 C7_3 1_555 1_555
O8_3 C2_3 1_555 1_555
C2_3 C20_3 1_555 1_555
C7_3 O60_4 1_555 1_555
C8_3 H3_3 1_555 1_555
C16_3 C7_3 1_555 1_555
C17_3 C14_3 1_555 1_555
C20_3 C17_3 1_555 1_555
C32_3 C16_3 1_555 1_555
H12_3 C32_3 1_555 1_555
Cd17 O1_3 1_555 1_555
O8_3 Cd17 1_555 1_555
C8_3 C14_3 1_555 1_555
C8_3 C16_3 1_555 1_555
C20_3 C32_3 1_555 1_555
C17_3 H47_3 1_555 1_555
Cd11 O4_3 1_555 1_555
O54_2 C1_3 1_555 1_555
O4_3 C3_3 1_555 1_555
O59_2 C1_3 1_555 1_555
O9_3 Cd11 1_555 1_555
O61 C9_3 1_555 1_555
O63 C9_3 1_555 1_555
O65 C4_3 1_555 1_555
O13_3 Cd11 1_555 1_555
O14_3 Cd11 1_555 1_555
C1_3 C12_3 1_555 1_555
N1_3 H1_3 1_555 1_555
N2_3 C22_3 1_555 1_555
C3_3 O9_3 1_555 1_555
N3_3 H2_3 1_555 1_555
C4_3 C6_3 1_555 1_555
C5_3 N1_3 1_555 1_555
N4_3 C22_3 1_555 1_555
C6_3 C21_3 1_555 1_555
C9_3 C13_3 1_555 1_555
C10_3 C5_3 1_555 1_555
H4_3 C10_3 1_555 1_555
N5_3 C25_3 1_555 1_555
C11_3 O13_3 1_555 1_555
C12_3 C10_3 1_555 1_555
C13_3 C23_3 1_555 1_555
C15_3 C12_3 1_555 1_555
H5_3 C15_3 1_555 1_555
C19_3 C3_3 1_555 1_555
C22_3 N1_3 1_555 1_555
C23_3 C6_3 1_555 1_555
H7_3 C23_3 1_555 1_555
C24_3 C5_3 1_555 1_555
H8_3 C24_3 1_555 1_555
C25_3 N3_3 1_555 1_555
C26_3 C13_3 1_555 1_555
H9_3 C26_3 1_555 1_555
C27_3 C21_3 1_555 1_555
C29_3 C11_3 1_555 1_555
C30_3 C29_3 1_555 1_555
H10_3 C30_3 1_555 1_555
O71 C43_3 1_555 1_555
O73 C43_3 1_555 1_555
C31_3 N2_3 1_555 1_555
N6_3 C27_3 1_555 1_555
N8_3 H14_3 1_555 1_555
C35_3 N8_3 1_555 1_555
N10_3 C35_3 1_555 1_555
C38_3 C29_3 1_555 1_555
H18_3 C38_3 1_555 1_555
C40_3 H19_3 1_555 1_555
C41_3 C42_3 1_555 1_555
N12_3 C35_3 1_555 1_555
C42_3 H20_3 1_555 1_555
C43_3 C41_3 1_555 1_555
C44_3 C41_3 1_555 1_555
H21_3 C44_3 1_555 1_555
C46_3 N8_3 1_555 1_555
O77_2 C53_3 1_555 1_555
O79_2 C53_3 1_555 1_555
C52_3 C40_3 1_555 1_555
C53_3 C52_3 1_555 1_555
O14_3 C11_3 1_555 1_555
N4_3 C25_3 1_555 1_555
N5_3 C31_3 1_555 1_555
C15_3 C19_3 1_555 1_555
C19_3 C24_3 1_555 1_555
C26_3 C27_3 1_555 1_555
C31_3 N6_3 1_555 1_555
N10_3 C36_3 1_555 1_555
C40_3 C46_3 1_555 1_555
N12_3 C51_3 1_555 1_555
C42_3 C46_3 1_555 1_555
C44_3 C52_3 1_555 1_555
O68_4 C18_3 1_555 1_555
O70_4 C18_3 1_555 1_555
C18_3 C28_3 1_555 1_555
C28_3 C37_3 1_555 1_555
O75_4 C54_3 1_555 1_555
N7_3 H13_3 1_555 1_555
C33_3 H16_3 1_555 1_555
C34_3 N9_3 1_555 1_555
C37_3 C34_3 1_555 1_555
H17_3 C37_3 1_555 1_555
C39_3 N7_3 1_555 1_555
C45_3 C28_3 1_555 1_555
H22_3 C45_3 1_555 1_555
C48_3 C45_3 1_555 1_555
O20_3 C49_3 1_555 1_555
C49_3 C48_3 1_555 1_555
O21_3 C49_3 1_555 1_555
C50_3 C34_3 1_555 1_555
H23_3 C50_3 1_555 1_555
O24_3 C54_3 1_555 1_555
C54_3 C47_3 1_555 1_555
Cd15_2 O20_3 1_555 1_555
O25_3 Cd15_2 1_555 1_555
O26_3 Cd15_2 1_555 1_555
C33_3 C39_3 1_555 1_555
C33_3 C47_3 1_555 1_555
C48_3 C50_3 1_555 1_555
O21_3 Cd15_2 1_555 1_555

#END
