
###############################################################################
#
# This file contains modified crystal structure data generated from the
# MOF subset of the Cambridge Structural Database (CSD) v543 
# hosted by the Cambridge Crystallographic Data Centre (CCDC).
#
# This work is licensed under the Creative Commons
# Attribution-NonCommercial-ShareAlike 4.0 International License.
# To view a copy of this license, visit
# http://creativecommons.org/licenses/by-nc-sa/4.0/
# or send a letter to
# Creative Commons, PO Box 1866, Mountain View, CA 94042, USA.
#
# CIF created using the CSD Python API on 29 September 2022
# The structure has been converted into the P1 space group
# The structure has a 3D framework
# The original CSD entry QALWUZ is in the monoclinic crystal system
# The framework has been calculated to contain at least 10.0% void space
# The void calculation uses a probe of radius 1.32A, grid spacing 0.4
# The framework is charged, counterions have been retained in the structure
# H atom positions have been added when not included in the experimental data
# Generated hydrogen atom positions removed from atoms on special positions
#
###############################################################################

data_QALWUZ
_chemical_formula_moiety         '(C104 H96 N24 O56 Zn14)n'
_symmetry_cell_setting           triclinic
_symmetry_space_group_name_H-M   'P 1'
_symmetry_Int_Tables_number      1
_space_group_name_Hall           'P 1'
loop_
_symmetry_equiv_pos_site_id
_symmetry_equiv_pos_as_xyz
1 x,y,z
_cell_length_a                   19.322(9)
_cell_length_b                   18.552(9)
_cell_length_c                   15.606(8)
_cell_angle_alpha                90
_cell_angle_beta                 90.411(6)
_cell_angle_gamma                90
_cell_volume                     5594.01
loop_
_atom_site_label
_atom_site_type_symbol
_atom_site_fract_x
_atom_site_fract_y
_atom_site_fract_z
Zn5 Zn 0.000000 0.27399(2) 0.250000
Zn2 Zn 0.40681(2) 0.01845(2) 0.47939(2)
O1 O 0.36086(10) 0.06533(12) 0.38454(14)
O2 O 0.26744(13) 0.10667(18) 0.44968(16)
O3 O 0.35777(11) 0.01535(12) 0.07980(15)
O5 O 0.07884(15) 0.1897(2) 0.12857(19)
O6 O 0.08424(10) 0.21755(11) 0.26454(14)
C1 C 0.30001(16) 0.09166(18) 0.3849(2)
C2 C 0.26801(15) 0.10374(17) 0.2974(2)
C3 C 0.30065(15) 0.07763(17) 0.2246(2)
H1 H 0.343398 0.052728 0.230359
C4 C 0.27189(15) 0.08730(17) 0.1440(2)
C5 C 0.30901(16) 0.05934(19) 0.0654(2)
C6 C 0.20886(15) 0.12330(18) 0.1360(2)
H2 H 0.188534 0.129892 0.080964
C7 C 0.17581(15) 0.14946(17) 0.2079(2)
C8 C 0.10840(16) 0.18796(19) 0.1981(2)
C9 C 0.20567(14) 0.13958(17) 0.2888(2)
H3 H 0.183000 0.157606 0.338165
Zn3 Zn 0.59319(2) 0.01845(2) 0.02061(2)
O7 O 0.63914(10) 0.06533(12) 0.11546(14)
O8 O 0.73256(13) 0.10667(18) 0.05032(16)
O9 O 0.64223(11) 0.01535(12) 0.42020(15)
O10 O 0.70876(16) 0.07839(18) 0.50608(17)
O11 O 0.92116(15) 0.1897(2) 0.37143(19)
O12 O 0.91576(10) 0.21755(11) 0.23546(14)
C14 C 0.69999(16) 0.09166(18) 0.1151(2)
C15 C 0.73199(15) 0.10374(17) 0.2026(2)
C16 C 0.69935(15) 0.07763(17) 0.2754(2)
H10 H 0.656602 0.052728 0.269641
C17 C 0.72811(15) 0.08730(17) 0.3560(2)
C18 C 0.69099(16) 0.05934(19) 0.4346(2)
C19 C 0.79114(15) 0.12330(18) 0.3640(2)
H11 H 0.811466 0.129892 0.419036
C20 C 0.82419(15) 0.14946(17) 0.2921(2)
C21 C 0.89160(16) 0.18796(19) 0.3019(2)
C22 C 0.79433(14) 0.13958(17) 0.2112(2)
H12 H 0.817000 0.157606 0.161835
Zn5_2 Zn 1.000000 0.27399(2) 0.250000
N7 N 0.47380(11) 0.08350(12) 0.54289(15)
O4 O 0.29124(16) 0.07839(18) 0.99392(17)
N8 N 0.52620(11) 0.08350(12) 0.95711(15)
Zn1 Zn 0.500000 0.77399(2) 0.250000
N1 N 0.46284(11) 0.93939(12) 0.42468(15)
N2 N 0.52620(11) 0.91650(12) 0.45711(15)
N3 N 0.49593(11) 0.84440(12) 0.34954(15)
C10 C 0.44703(13) 0.89513(15) 0.36148(19)
C11 C 0.54440(14) 0.86055(16) 0.4110(2)
C12 C 0.38195(16) 0.89924(19) 0.3093(2)
H4 H 0.347545 0.928094 0.339824
H5 H 0.363794 0.850526 0.299863
H6 H 0.391851 0.921775 0.253902
C13 C 0.60894(19) 0.8190(2) 0.4257(3)
H7 H 0.636982 0.843023 0.469795
H8 H 0.635166 0.816470 0.372237
H9 H 0.597344 0.770199 0.444685
N4 N 0.53716(11) 0.93939(12) 0.07532(15)
N5 N 0.47380(11) 0.91650(12) 0.04289(15)
N6 N 0.50407(11) 0.84440(12) 0.15046(15)
C23 C 0.55297(13) 0.89513(15) 0.13852(19)
C24 C 0.45560(14) 0.86055(16) 0.0890(2)
C25 C 0.61805(16) 0.89924(19) 0.1907(2)
H13 H 0.652455 0.928094 0.160176
H14 H 0.636206 0.850526 0.200137
H15 H 0.608149 0.921775 0.246098
C26 C 0.39106(19) 0.8190(2) 0.0743(3)
H16 H 0.363018 0.843023 0.030205
H17 H 0.364834 0.816470 0.127763
H18 H 0.402656 0.770199 0.055315
Zn6 Zn 0.59319(2) 0.98155(2) 0.52061(2)
O14 O 0.35777(11) 0.98465(12) 0.57980(15)
O15 O 0.58424(10) 0.71755(11) 0.26454(14)
O16 O 0.41576(10) 0.71755(11) 0.23546(14)
Zn7 Zn 0.40681(2) 0.98155(2) 0.97939(2)
O13 O 0.64223(11) 0.98465(12) 0.92020(15)
N2_2 N 0.02620(11) 0.41650(12) 0.45711(15)
C11_2 C 0.04440(14) 0.36055(16) 0.4110(2)
C13_2 C 0.10894(19) 0.3190(2) 0.4257(3)
H7_2 H 0.136982 0.343023 0.469795
H8_2 H 0.135166 0.316470 0.372237
H9_2 H 0.097344 0.270199 0.444685
Zn3_2 Zn 0.09319(2) 0.51845(2) 0.02061(2)
O7_2 O 0.13914(10) 0.56533(12) 0.11546(14)
O8_2 O 0.23256(13) 0.60667(18) 0.05032(16)
O9_2 O 0.14223(11) 0.51535(12) 0.42020(15)
O10_2 O 0.20876(16) 0.57839(18) 0.50608(17)
O11_2 O 0.42116(15) 0.6897(2) 0.37143(19)
N4_2 N 0.03716(11) 0.43939(12) 0.07532(15)
N6_2 N 0.00407(11) 0.34440(12) 0.15046(15)
C14_2 C 0.19999(16) 0.59166(18) 0.1151(2)
C15_2 C 0.23199(15) 0.60374(17) 0.2026(2)
C16_2 C 0.19935(15) 0.57763(17) 0.2754(2)
H10_2 H 0.156602 0.552728 0.269641
C17_2 C 0.22811(15) 0.58730(17) 0.3560(2)
C18_2 C 0.19099(16) 0.55934(19) 0.4346(2)
C19_2 C 0.29114(15) 0.62330(18) 0.3640(2)
H11_2 H 0.311466 0.629892 0.419036
C20_2 C 0.32419(15) 0.64946(17) 0.2921(2)
C21_2 C 0.39160(16) 0.68796(19) 0.3019(2)
C22_2 C 0.29433(14) 0.63958(17) 0.2112(2)
H12_2 H 0.317000 0.657606 0.161835
C23_2 C 0.05297(13) 0.39513(15) 0.13852(19)
C25_2 C 0.11805(16) 0.39924(19) 0.1907(2)
H13_2 H 0.152455 0.428094 0.160176
H14_2 H 0.136206 0.350526 0.200137
H15_2 H 0.108149 0.421775 0.246098
Zn6_2 Zn 0.09319(2) 0.48155(2) 0.52061(2)
O13_2 O 0.14223(11) 0.48465(12) 0.92020(15)
N8_2 N 0.02620(11) 0.58350(12) 0.95711(15)
Zn2_2 Zn 0.90681(2) 0.51845(2) 0.47939(2)
O1_2 O 0.86086(10) 0.56533(12) 0.38454(14)
O2_2 O 0.76744(13) 0.60667(18) 0.44968(16)
O3_2 O 0.85777(11) 0.51535(12) 0.07980(15)
O5_2 O 0.57884(15) 0.6897(2) 0.12857(19)
N1_2 N 0.96284(11) 0.43939(12) 0.42468(15)
N3_2 N 0.99593(11) 0.34440(12) 0.34954(15)
C1_2 C 0.80001(16) 0.59166(18) 0.3849(2)
C2_2 C 0.76801(15) 0.60374(17) 0.2974(2)
C3_2 C 0.80065(15) 0.57763(17) 0.2246(2)
H1_2 H 0.843398 0.552728 0.230359
C4_2 C 0.77189(15) 0.58730(17) 0.1440(2)
C5_2 C 0.80901(16) 0.55934(19) 0.0654(2)
C6_2 C 0.70886(15) 0.62330(18) 0.1360(2)
H2_2 H 0.688534 0.629892 0.080964
C7_2 C 0.67581(15) 0.64946(17) 0.2079(2)
C8_2 C 0.60840(16) 0.68796(19) 0.1981(2)
C9_2 C 0.70567(14) 0.63958(17) 0.2888(2)
H3_2 H 0.683000 0.657606 0.338165
C10_2 C 0.94703(13) 0.39513(15) 0.36148(19)
C12_2 C 0.88195(16) 0.39924(19) 0.3093(2)
H4_2 H 0.847545 0.428094 0.339824
H5_2 H 0.863794 0.350526 0.299863
H6_2 H 0.891851 0.421775 0.253902
N5_2 N 0.97380(11) 0.41650(12) 0.04289(15)
C24_2 C 0.95560(14) 0.36055(16) 0.0890(2)
C26_2 C 0.89106(19) 0.3190(2) 0.0743(3)
H16_2 H 0.863018 0.343023 0.030205
H17_2 H 0.864834 0.316470 0.127763
H18_2 H 0.902656 0.270199 0.055315
O14_2 O 0.85777(11) 0.48465(12) 0.57980(15)
N7_2 N 0.97380(11) 0.58350(12) 0.54289(15)
O4_2 O 0.79124(16) 0.57839(18) 0.99392(17)
Zn7_2 Zn 0.90681(2) 0.48155(2) 0.97939(2)
Zn4 Zn 0.000000 0.72601(2) 0.750000
Zn1_2 Zn 0.500000 0.22601(2) 0.750000
N1_3 N 0.53716(11) 0.06061(12) 0.57532(15)
N3_3 N 0.50407(11) 0.15560(12) 0.65046(15)
C10_3 C 0.55297(13) 0.10487(15) 0.63852(19)
C11_3 C 0.45560(14) 0.13945(16) 0.5890(2)
C12_3 C 0.61805(16) 0.10076(19) 0.6907(2)
H4_3 H 0.652455 0.071906 0.660176
H5_3 H 0.636206 0.149474 0.700137
H6_3 H 0.608149 0.078225 0.746098
C13_3 C 0.39106(19) 0.1810(2) 0.5743(3)
H7_3 H 0.363018 0.156977 0.530205
H8_3 H 0.364834 0.183530 0.627763
H9_3 H 0.402656 0.229801 0.555315
N4_3 N 0.46284(11) 0.06061(12) 0.92468(15)
N6_3 N 0.49593(11) 0.15560(12) 0.84954(15)
C23_3 C 0.44703(13) 0.10487(15) 0.86148(19)
C24_3 C 0.54440(14) 0.13945(16) 0.9110(2)
C25_3 C 0.38195(16) 0.10076(19) 0.8093(2)
H13_3 H 0.347545 0.071906 0.839824
H14_3 H 0.363794 0.149474 0.799863
H15_3 H 0.391851 0.078225 0.753902
C26_3 C 0.60894(19) 0.1810(2) 0.9257(3)
H16_3 H 0.636982 0.156977 0.969795
H17_3 H 0.635166 0.183530 0.872237
H18_3 H 0.597344 0.229801 0.944685
O15_2 O 0.41576(10) 0.28245(11) 0.73546(14)
O16_2 O 0.58424(10) 0.28245(11) 0.76454(14)
O4_3 O 0.70876(16) 0.92161(18) 0.00608(17)
O1_3 O 0.63914(10) 0.93467(12) 0.61546(14)
O2_3 O 0.73256(13) 0.89333(18) 0.55032(16)
O5_3 O 0.92116(15) 0.8103(2) 0.87143(19)
O6_2 O 0.91576(10) 0.78245(11) 0.73546(14)
C1_3 C 0.69999(16) 0.90834(18) 0.6151(2)
C2_3 C 0.73199(15) 0.89626(17) 0.7026(2)
C3_3 C 0.69935(15) 0.92237(17) 0.7754(2)
H1_3 H 0.656602 0.947272 0.769641
C4_3 C 0.72811(15) 0.91270(17) 0.8560(2)
C5_3 C 0.69099(16) 0.94066(19) 0.9346(2)
C6_3 C 0.79114(15) 0.87670(18) 0.8640(2)
H2_3 H 0.811466 0.870108 0.919036
C7_3 C 0.82419(15) 0.85054(17) 0.7921(2)
C8_3 C 0.89160(16) 0.81204(19) 0.8019(2)
C9_3 C 0.79433(14) 0.86042(17) 0.7112(2)
H3_3 H 0.817000 0.842394 0.661835
O7_3 O 0.36086(10) 0.93467(12) 0.88454(14)
O8_3 O 0.26744(13) 0.89333(18) 0.94968(16)
O10_3 O 0.29124(16) 0.92161(18) 0.49392(17)
O11_3 O 0.07884(15) 0.8103(2) 0.62857(19)
O12_2 O 0.08424(10) 0.78245(11) 0.76454(14)
C14_3 C 0.30001(16) 0.90834(18) 0.8849(2)
C15_3 C 0.26801(15) 0.89626(17) 0.7974(2)
C16_3 C 0.30065(15) 0.92237(17) 0.7246(2)
H10_3 H 0.343398 0.947272 0.730359
C17_3 C 0.27189(15) 0.91270(17) 0.6440(2)
C18_3 C 0.30901(16) 0.94066(19) 0.5654(2)
C19_3 C 0.20886(15) 0.87670(18) 0.6360(2)
H11_3 H 0.188534 0.870108 0.580964
C20_3 C 0.17581(15) 0.85054(17) 0.7079(2)
C21_3 C 0.10840(16) 0.81204(19) 0.6981(2)
C22_3 C 0.20567(14) 0.86042(17) 0.7888(2)
H12_3 H 0.183000 0.842394 0.838165
Zn4_2 Zn 1.000000 0.72601(2) 0.750000
O4_4 O 0.20876(16) 0.42161(18) 0.00608(17)
O1_4 O 0.13914(10) 0.43467(12) 0.61546(14)
O2_4 O 0.23256(13) 0.39333(18) 0.55032(16)
O5_4 O 0.42116(15) 0.3103(2) 0.87143(19)
N1_4 N 0.03716(11) 0.56061(12) 0.57532(15)
N3_4 N 0.00407(11) 0.65560(12) 0.65046(15)
C1_4 C 0.19999(16) 0.40834(18) 0.6151(2)
C2_4 C 0.23199(15) 0.39626(17) 0.7026(2)
C3_4 C 0.19935(15) 0.42237(17) 0.7754(2)
H1_4 H 0.156602 0.447272 0.769641
C4_4 C 0.22811(15) 0.41270(17) 0.8560(2)
C5_4 C 0.19099(16) 0.44066(19) 0.9346(2)
C6_4 C 0.29114(15) 0.37670(18) 0.8640(2)
H2_4 H 0.311466 0.370108 0.919036
C7_4 C 0.32419(15) 0.35054(17) 0.7921(2)
C8_4 C 0.39160(16) 0.31204(19) 0.8019(2)
C9_4 C 0.29433(14) 0.36042(17) 0.7112(2)
H3_4 H 0.317000 0.342394 0.661835
C10_4 C 0.05297(13) 0.60487(15) 0.63852(19)
C12_4 C 0.11805(16) 0.60076(19) 0.6907(2)
H4_4 H 0.152455 0.571906 0.660176
H5_4 H 0.136206 0.649474 0.700137
H6_4 H 0.108149 0.578225 0.746098
C24_4 C 0.04440(14) 0.63945(16) 0.9110(2)
C26_4 C 0.10894(19) 0.6810(2) 0.9257(3)
H16_4 H 0.136982 0.656977 0.969795
H17_4 H 0.135166 0.683530 0.872237
H18_4 H 0.097344 0.729801 0.944685
C11_4 C 0.95560(14) 0.63945(16) 0.5890(2)
C13_4 C 0.89106(19) 0.6810(2) 0.5743(3)
H7_4 H 0.863018 0.656977 0.530205
H8_4 H 0.864834 0.683530 0.627763
H9_4 H 0.902656 0.729801 0.555315
O7_4 O 0.86086(10) 0.43467(12) 0.88454(14)
O8_4 O 0.76744(13) 0.39333(18) 0.94968(16)
O10_4 O 0.79124(16) 0.42161(18) 0.49392(17)
O11_4 O 0.57884(15) 0.3103(2) 0.62857(19)
N4_4 N 0.96284(11) 0.56061(12) 0.92468(15)
N6_4 N 0.99593(11) 0.65560(12) 0.84954(15)
C14_4 C 0.80001(16) 0.40834(18) 0.8849(2)
C15_4 C 0.76801(15) 0.39626(17) 0.7974(2)
C16_4 C 0.80065(15) 0.42237(17) 0.7246(2)
H10_4 H 0.843398 0.447272 0.730359
C17_4 C 0.77189(15) 0.41270(17) 0.6440(2)
C18_4 C 0.80901(16) 0.44066(19) 0.5654(2)
C19_4 C 0.70886(15) 0.37670(18) 0.6360(2)
H11_4 H 0.688534 0.370108 0.580964
C20_4 C 0.67581(15) 0.35054(17) 0.7079(2)
C21_4 C 0.60840(16) 0.31204(19) 0.6981(2)
C22_4 C 0.70567(14) 0.36042(17) 0.7888(2)
H12_4 H 0.683000 0.342394 0.838165
C23_4 C 0.94703(13) 0.60487(15) 0.86148(19)
C25_4 C 0.88195(16) 0.60076(19) 0.8093(2)
H13_4 H 0.847545 0.571906 0.839824
H14_4 H 0.863794 0.649474 0.799863
H15_4 H 0.891851 0.578225 0.753902
O17 O 0.7068(9) 0.7120(9) 0.5794(19)
O17_2 O 0.2932(9) 0.7120(9) 0.9206(19)
O17_3 O 0.2068(9) 0.2120(9) 0.5794(19)
O17_4 O 0.7932(9) 0.2120(9) 0.9206(19)
O17_5 O 0.2932(9) 0.2880(9) 0.4206(19)
O17_6 O 0.7068(9) 0.2880(9) 0.0794(19)
O17_7 O 0.7932(9) 0.7880(9) 0.4206(19)
O17_8 O 0.2068(9) 0.7880(9) 0.0794(19)
loop_
_geom_bond_atom_site_label_1
_geom_bond_atom_site_label_2
_geom_bond_site_symmetry_1
_geom_bond_site_symmetry_2
Zn2 O1 1_555 1_555
O1 C1 1_555 1_555
O2 C1 1_555 1_555
O3 C5 1_555 1_555
O5 C8 1_555 1_555
O6 C8 1_555 1_555
C1 C2 1_555 1_555
C2 C3 1_555 1_555
C3 H1 1_555 1_555
C4 C3 1_555 1_555
C5 C4 1_555 1_555
C6 C4 1_555 1_555
H2 C6 1_555 1_555
C7 C6 1_555 1_555
C8 C7 1_555 1_555
C9 C2 1_555 1_555
H3 C9 1_555 1_555
Zn3 O7 1_555 1_555
O7 C14 1_555 1_555
O8 C14 1_555 1_555
O9 C18 1_555 1_555
O10 C18 1_555 1_555
O11 C21 1_555 1_555
O12 C21 1_555 1_555
C14 C15 1_555 1_555
C15 C16 1_555 1_555
C16 H10 1_555 1_555
C17 C16 1_555 1_555
C18 C17 1_555 1_555
C19 C17 1_555 1_555
H11 C19 1_555 1_555
C20 C19 1_555 1_555
C21 C20 1_555 1_555
C22 C15 1_555 1_555
H12 C22 1_555 1_555
Zn5 O6 1_555 1_555
Zn5_2 O12 1_555 1_555
N7 Zn2 1_555 1_555
C7 C9 1_555 1_555
C20 C22 1_555 1_555
Zn1 N3 1_555 1_555
N2 N1 1_555 1_555
N3 C10 1_555 1_555
C10 N1 1_555 1_555
C11 N2 1_555 1_555
C12 C10 1_555 1_555
H4 C12 1_555 1_555
H5 C12 1_555 1_555
H6 C12 1_555 1_555
C13 C11 1_555 1_555
H7 C13 1_555 1_555
H8 C13 1_555 1_555
H9 C13 1_555 1_555
N5 N4 1_555 1_555
N6 Zn1 1_555 1_555
C23 N4 1_555 1_555
C24 N5 1_555 1_555
C25 C23 1_555 1_555
H13 C25 1_555 1_555
H14 C25 1_555 1_555
H15 C25 1_555 1_555
C26 C24 1_555 1_555
H16 C26 1_555 1_555
H17 C26 1_555 1_555
H18 C26 1_555 1_555
Zn6 N2 1_555 1_555
O15 Zn1 1_555 1_555
O16 Zn1 1_555 1_555
N3 C11 1_555 1_555
N6 C23 1_555 1_555
N6 C24 1_555 1_555
C11_2 N2_2 1_555 1_555
C13_2 C11_2 1_555 1_555
H7_2 C13_2 1_555 1_555
H8_2 C13_2 1_555 1_555
H9_2 C13_2 1_555 1_555
Zn3_2 O7_2 1_555 1_555
O7_2 C14_2 1_555 1_555
O8_2 C14_2 1_555 1_555
O9_2 C18_2 1_555 1_555
O10_2 C18_2 1_555 1_555
O11_2 C21_2 1_555 1_555
O16 C21_2 1_555 1_555
N4_2 Zn3_2 1_555 1_555
N6_2 Zn5 1_555 1_555
C14_2 C15_2 1_555 1_555
C15_2 C16_2 1_555 1_555
C16_2 H10_2 1_555 1_555
C17_2 C16_2 1_555 1_555
C18_2 C17_2 1_555 1_555
C19_2 C17_2 1_555 1_555
H11_2 C19_2 1_555 1_555
C20_2 C19_2 1_555 1_555
C21_2 C20_2 1_555 1_555
C22_2 C15_2 1_555 1_555
H12_2 C22_2 1_555 1_555
C23_2 N4_2 1_555 1_555
C25_2 C23_2 1_555 1_555
H13_2 C25_2 1_555 1_555
H14_2 C25_2 1_555 1_555
H15_2 C25_2 1_555 1_555
Zn6_2 N2_2 1_555 1_555
O9_2 Zn6_2 1_555 1_555
N6_2 C23_2 1_555 1_555
C20_2 C22_2 1_555 1_555
Zn5_2 N3_2 1_555 1_555
Zn2_2 O1_2 1_555 1_555
O1_2 C1_2 1_555 1_555
O2_2 C1_2 1_555 1_555
O3_2 C5_2 1_555 1_555
O5_2 C8_2 1_555 1_555
O15 C8_2 1_555 1_555
N1_2 Zn2_2 1_555 1_555
N3_2 C10_2 1_555 1_555
C1_2 C2_2 1_555 1_555
C2_2 C3_2 1_555 1_555
C3_2 H1_2 1_555 1_555
C4_2 C3_2 1_555 1_555
C5_2 C4_2 1_555 1_555
C6_2 C4_2 1_555 1_555
H2_2 C6_2 1_555 1_555
C7_2 C6_2 1_555 1_555
C8_2 C7_2 1_555 1_555
C9_2 C2_2 1_555 1_555
H3_2 C9_2 1_555 1_555
C10_2 N1_2 1_555 1_555
C12_2 C10_2 1_555 1_555
H4_2 C12_2 1_555 1_555
H5_2 C12_2 1_555 1_555
H6_2 C12_2 1_555 1_555
C24_2 N5_2 1_555 1_555
C26_2 C24_2 1_555 1_555
H16_2 C26_2 1_555 1_555
H17_2 C26_2 1_555 1_555
H18_2 C26_2 1_555 1_555
O14_2 Zn2_2 1_555 1_555
N7_2 Zn2_2 1_555 1_555
C7_2 C9_2 1_555 1_555
Zn1_2 N3_3 1_555 1_555
N7 N1_3 1_555 1_555
N3_3 C10_3 1_555 1_555
C10_3 N1_3 1_555 1_555
C11_3 N7 1_555 1_555
C12_3 C10_3 1_555 1_555
H4_3 C12_3 1_555 1_555
H5_3 C12_3 1_555 1_555
H6_3 C12_3 1_555 1_555
C13_3 C11_3 1_555 1_555
H7_3 C13_3 1_555 1_555
H8_3 C13_3 1_555 1_555
H9_3 C13_3 1_555 1_555
N8 N4_3 1_555 1_555
N6_3 Zn1_2 1_555 1_555
C23_3 N4_3 1_555 1_555
C24_3 N8 1_555 1_555
C25_3 C23_3 1_555 1_555
H13_3 C25_3 1_555 1_555
H14_3 C25_3 1_555 1_555
H15_3 C25_3 1_555 1_555
C26_3 C24_3 1_555 1_555
H16_3 C26_3 1_555 1_555
H17_3 C26_3 1_555 1_555
H18_3 C26_3 1_555 1_555
O15_2 Zn1_2 1_555 1_555
O16_2 Zn1_2 1_555 1_555
N3_3 C11_3 1_555 1_555
N6_3 C23_3 1_555 1_555
N6_3 C24_3 1_555 1_555
Zn6 O1_3 1_555 1_555
O1_3 C1_3 1_555 1_555
O2_3 C1_3 1_555 1_555
O13 C5_3 1_555 1_555
O5_3 C8_3 1_555 1_555
O6_2 C8_3 1_555 1_555
C1_3 C2_3 1_555 1_555
C2_3 C3_3 1_555 1_555
C3_3 H1_3 1_555 1_555
C4_3 C3_3 1_555 1_555
C5_3 C4_3 1_555 1_555
C6_3 C4_3 1_555 1_555
H2_3 C6_3 1_555 1_555
C7_3 C6_3 1_555 1_555
C8_3 C7_3 1_555 1_555
C9_3 C2_3 1_555 1_555
H3_3 C9_3 1_555 1_555
Zn7 O7_3 1_555 1_555
O7_3 C14_3 1_555 1_555
O8_3 C14_3 1_555 1_555
O14 C18_3 1_555 1_555
O10_3 C18_3 1_555 1_555
O11_3 C21_3 1_555 1_555
O12_2 C21_3 1_555 1_555
C14_3 C15_3 1_555 1_555
C15_3 C16_3 1_555 1_555
C16_3 H10_3 1_555 1_555
C17_3 C16_3 1_555 1_555
C18_3 C17_3 1_555 1_555
C19_3 C17_3 1_555 1_555
H11_3 C19_3 1_555 1_555
C20_3 C19_3 1_555 1_555
C21_3 C20_3 1_555 1_555
C22_3 C15_3 1_555 1_555
H12_3 C22_3 1_555 1_555
Zn4_2 O6_2 1_555 1_555
Zn4 O12_2 1_555 1_555
C7_3 C9_3 1_555 1_555
C20_3 C22_3 1_555 1_555
Zn4 N3_4 1_555 1_555
Zn6_2 O1_4 1_555 1_555
O1_4 C1_4 1_555 1_555
O2_4 C1_4 1_555 1_555
O13_2 C5_4 1_555 1_555
O5_4 C8_4 1_555 1_555
O15_2 C8_4 1_555 1_555
N1_4 Zn6_2 1_555 1_555
N3_4 C10_4 1_555 1_555
C1_4 C2_4 1_555 1_555
C2_4 C3_4 1_555 1_555
C3_4 H1_4 1_555 1_555
C4_4 C3_4 1_555 1_555
C5_4 C4_4 1_555 1_555
C6_4 C4_4 1_555 1_555
H2_4 C6_4 1_555 1_555
C7_4 C6_4 1_555 1_555
C8_4 C7_4 1_555 1_555
C9_4 C2_4 1_555 1_555
H3_4 C9_4 1_555 1_555
C10_4 N1_4 1_555 1_555
C12_4 C10_4 1_555 1_555
H4_4 C12_4 1_555 1_555
H5_4 C12_4 1_555 1_555
H6_4 C12_4 1_555 1_555
C24_4 N8_2 1_555 1_555
C26_4 C24_4 1_555 1_555
H16_4 C26_4 1_555 1_555
H17_4 C26_4 1_555 1_555
H18_4 C26_4 1_555 1_555
C7_4 C9_4 1_555 1_555
C11_4 N7_2 1_555 1_555
C13_4 C11_4 1_555 1_555
H7_4 C13_4 1_555 1_555
H8_4 C13_4 1_555 1_555
H9_4 C13_4 1_555 1_555
Zn7_2 O7_4 1_555 1_555
O7_4 C14_4 1_555 1_555
O8_4 C14_4 1_555 1_555
O14_2 C18_4 1_555 1_555
O10_4 C18_4 1_555 1_555
O11_4 C21_4 1_555 1_555
O16_2 C21_4 1_555 1_555
N4_4 Zn7_2 1_555 1_555
N6_4 Zn4_2 1_555 1_555
C14_4 C15_4 1_555 1_555
C15_4 C16_4 1_555 1_555
C16_4 H10_4 1_555 1_555
C17_4 C16_4 1_555 1_555
C18_4 C17_4 1_555 1_555
C19_4 C17_4 1_555 1_555
H11_4 C19_4 1_555 1_555
C20_4 C19_4 1_555 1_555
C21_4 C20_4 1_555 1_555
C22_4 C15_4 1_555 1_555
H12_4 C22_4 1_555 1_555
C23_4 N4_4 1_555 1_555
C25_4 C23_4 1_555 1_555
H13_4 C25_4 1_555 1_555
H14_4 C25_4 1_555 1_555
H15_4 C25_4 1_555 1_555
N6_4 C23_4 1_555 1_555
C20_4 C22_4 1_555 1_555

#END
