
###############################################################################
#
# This file contains modified crystal structure data generated from the
# MOF subset of the Cambridge Structural Database (CSD) v543 
# hosted by the Cambridge Crystallographic Data Centre (CCDC).
#
# This work is licensed under the Creative Commons
# Attribution-NonCommercial-ShareAlike 4.0 International License.
# To view a copy of this license, visit
# http://creativecommons.org/licenses/by-nc-sa/4.0/
# or send a letter to
# Creative Commons, PO Box 1866, Mountain View, CA 94042, USA.
#
# CIF created using the CSD Python API on 29 September 2022
# The structure has been converted into the P1 space group
# The structure has a 3D framework
# The original CSD entry QALXAG is in the monoclinic crystal system
# The framework has been calculated to contain at least 10.0% void space
# The void calculation uses a probe of radius 1.32A, grid spacing 0.4
# The framework is charged, counterions have been retained in the structure
# H atom positions have been added when not included in the experimental data
# Generated hydrogen atom positions removed from atoms on special positions
#
###############################################################################

data_QALXAG
_chemical_formula_moiety         '(C88 H80 N40 O56 Zn14)n'
_symmetry_cell_setting           triclinic
_symmetry_space_group_name_H-M   'P 1'
_symmetry_Int_Tables_number      1
_space_group_name_Hall           'P 1'
loop_
_symmetry_equiv_pos_site_id
_symmetry_equiv_pos_as_xyz
1 x,y,z
_cell_length_a                   19.309(2)
_cell_length_b                   18.583(2)
_cell_length_c                   15.4488(19)
_cell_angle_alpha                90
_cell_angle_beta                 91.726(2)
_cell_angle_gamma                90
_cell_volume                     5540.81
loop_
_atom_site_label
_atom_site_type_symbol
_atom_site_fract_x
_atom_site_fract_y
_atom_site_fract_z
O1 O 0.2195(10) 0.2252(9) 0.5455(16)
O1_2 O 0.7805(10) 0.2252(9) 0.9545(16)
O1_3 O 0.7195(10) 0.7252(9) 0.5455(16)
O1_4 O 0.2805(10) 0.7252(9) 0.9545(16)
O1_5 O 0.7805(10) 0.7748(9) 0.4545(16)
O1_6 O 0.2195(10) 0.7748(9) 0.0455(16)
O1_7 O 0.2805(10) 0.2748(9) 0.4545(16)
O1_8 O 0.7195(10) 0.2748(9) 0.0455(16)
Zn7 Zn 0.000000 0.27542(3) 0.250000
Zn1 Zn 0.40660(2) 0.01267(2) 0.48405(2)
O2 O 0.35817(13) 0.04889(16) 0.38138(15)
O3 O 0.29069(16) 0.1257(2) 0.44939(19)
O4 O 0.35066(15) 0.01953(18) 0.07802(17)
O6 O 0.06068(17) 0.1716(2) 0.1491(2)
O7 O 0.09010(13) 0.22879(14) 0.26937(17)
C1 C 0.30771(18) 0.0932(2) 0.3845(2)
C2 C 0.26909(19) 0.1032(2) 0.2993(2)
C3 C 0.29687(19) 0.0754(2) 0.2242(2)
H5 H 0.338723 0.050639 0.227507
C4 C 0.2628(2) 0.0842(2) 0.1444(2)
C5 C 0.2964(2) 0.0558(2) 0.0644(2)
C6 C 0.1994(2) 0.1194(2) 0.1403(2)
H6 H 0.175854 0.124607 0.087316
C7 C 0.1708(2) 0.1469(2) 0.2152(2)
C8 C 0.1026(2) 0.1843(2) 0.2100(2)
C9 C 0.20618(19) 0.1401(2) 0.2947(2)
H7 H 0.187970 0.159993 0.344343
Zn3 Zn 0.59340(2) 0.01267(2) 0.01595(2)
O8 O 0.64183(13) 0.04889(16) 0.11862(15)
O9 O 0.70931(16) 0.1257(2) 0.05061(19)
O10 O 0.64934(15) 0.01953(18) 0.42198(17)
O11 O 0.7266(2) 0.0720(3) 0.5082(2)
O12 O 0.93932(17) 0.1716(2) 0.3509(2)
O13 O 0.90990(13) 0.22879(14) 0.23063(17)
C12 C 0.69229(18) 0.0932(2) 0.1155(2)
C13 C 0.73091(19) 0.1032(2) 0.2007(2)
C14 C 0.70313(19) 0.0754(2) 0.2758(2)
H12 H 0.661277 0.050639 0.272493
C15 C 0.7372(2) 0.0842(2) 0.3556(2)
C16 C 0.7036(2) 0.0558(2) 0.4356(2)
C17 C 0.8006(2) 0.1194(2) 0.3597(2)
H13 H 0.824146 0.124607 0.412684
C18 C 0.8292(2) 0.1469(2) 0.2848(2)
C19 C 0.8974(2) 0.1843(2) 0.2900(2)
C20 C 0.79382(19) 0.1401(2) 0.2053(2)
H14 H 0.812030 0.159993 0.155657
Zn7_2 Zn 1.000000 0.27542(3) 0.250000
N11 N 0.46902(14) 0.08258(17) 0.54363(18)
O5 O 0.2734(2) 0.0720(3) 0.9918(2)
N12 N 0.53098(14) 0.08258(17) 0.95637(18)
Zn2 Zn 0.500000 0.77542(3) 0.250000
N1 N 0.46101(14) 0.93263(16) 0.43503(18)
N2 N 0.53098(14) 0.91742(17) 0.45637(18)
N3 N 0.49575(14) 0.84258(15) 0.35208(18)
N4 N 0.38023(19) 0.8832(3) 0.3341(3)
H1 H 0.348404 0.912697 0.349105
H2 H 0.371660 0.851911 0.294246
N5 N 0.6128(2) 0.8359(3) 0.4039(3)
H3 H 0.645166 0.852475 0.437770
H4 H 0.621398 0.801075 0.369109
C10 C 0.44379(18) 0.8862(2) 0.3733(3)
C11 C 0.54860(18) 0.8643(2) 0.4054(2)
N6 N 0.53899(14) 0.93263(16) 0.06497(18)
N7 N 0.46902(14) 0.91742(17) 0.04363(18)
N8 N 0.50425(14) 0.84258(15) 0.14792(18)
N9 N 0.61977(19) 0.8832(3) 0.1659(3)
H8 H 0.651596 0.912697 0.150895
H9 H 0.628340 0.851911 0.205754
N10 N 0.3872(2) 0.8359(3) 0.0961(3)
H10 H 0.354834 0.852475 0.062230
H11 H 0.378602 0.801075 0.130891
C21 C 0.55621(18) 0.8862(2) 0.1267(3)
C22 C 0.45140(18) 0.8643(2) 0.0946(2)
Zn4 Zn 0.59340(2) 0.98733(2) 0.51595(2)
O15 O 0.35066(15) 0.98047(18) 0.57802(17)
O16 O 0.59010(13) 0.72879(14) 0.26937(17)
O17 O 0.40990(13) 0.72879(14) 0.23063(17)
Zn5 Zn 0.40660(2) 0.98733(2) 0.98405(2)
O14 O 0.64934(15) 0.98047(18) 0.92198(17)
N2_2 N 0.03098(14) 0.41742(17) 0.45637(18)
N5_2 N 0.1128(2) 0.3359(3) 0.4039(3)
H3_2 H 0.145166 0.352475 0.437770
H4_2 H 0.121398 0.301075 0.369109
C11_2 C 0.04860(18) 0.3643(2) 0.4054(2)
Zn3_2 Zn 0.09340(2) 0.51267(2) 0.01595(2)
N6_2 N 0.03899(14) 0.43263(16) 0.06497(18)
N8_2 N 0.00425(14) 0.34258(15) 0.14792(18)
N9_2 N 0.11977(19) 0.3832(3) 0.1659(3)
H8_2 H 0.151596 0.412697 0.150895
H9_2 H 0.128340 0.351911 0.205754
O8_2 O 0.14183(13) 0.54889(16) 0.11862(15)
O9_2 O 0.20931(16) 0.6257(2) 0.05061(19)
O10_2 O 0.14934(15) 0.51953(18) 0.42198(17)
O11_2 O 0.2266(2) 0.5720(3) 0.5082(2)
O12_2 O 0.43932(17) 0.6716(2) 0.3509(2)
C12_2 C 0.19229(18) 0.5932(2) 0.1155(2)
C13_2 C 0.23091(19) 0.6032(2) 0.2007(2)
C14_2 C 0.20313(19) 0.5754(2) 0.2758(2)
H12_2 H 0.161277 0.550639 0.272493
C15_2 C 0.2372(2) 0.5842(2) 0.3556(2)
C16_2 C 0.2036(2) 0.5558(2) 0.4356(2)
C17_2 C 0.3006(2) 0.6194(2) 0.3597(2)
H13_2 H 0.324146 0.624607 0.412684
C18_2 C 0.3292(2) 0.6469(2) 0.2848(2)
C19_2 C 0.3974(2) 0.6843(2) 0.2900(2)
C20_2 C 0.29382(19) 0.6401(2) 0.2053(2)
H14_2 H 0.312030 0.659993 0.155657
C21_2 C 0.05621(18) 0.3862(2) 0.1267(3)
Zn4_2 Zn 0.09340(2) 0.48733(2) 0.51595(2)
N12_2 N 0.03098(14) 0.58258(17) 0.95637(18)
O14_2 O 0.14934(15) 0.48047(18) 0.92198(17)
Zn1_2 Zn 0.90660(2) 0.51267(2) 0.48405(2)
N1_2 N 0.96101(14) 0.43263(16) 0.43503(18)
N3_2 N 0.99575(14) 0.34258(15) 0.35208(18)
N4_2 N 0.88023(19) 0.3832(3) 0.3341(3)
H1_2 H 0.848404 0.412697 0.349105
H2_2 H 0.871660 0.351911 0.294246
O2_2 O 0.85817(13) 0.54889(16) 0.38138(15)
O3_2 O 0.79069(16) 0.6257(2) 0.44939(19)
O4_2 O 0.85066(15) 0.51953(18) 0.07802(17)
O6_2 O 0.56068(17) 0.6716(2) 0.1491(2)
C1_2 C 0.80771(18) 0.5932(2) 0.3845(2)
C2_2 C 0.76909(19) 0.6032(2) 0.2993(2)
C3_2 C 0.79687(19) 0.5754(2) 0.2242(2)
H5_2 H 0.838723 0.550639 0.227507
C4_2 C 0.7628(2) 0.5842(2) 0.1444(2)
C5_2 C 0.7964(2) 0.5558(2) 0.0644(2)
C6_2 C 0.6994(2) 0.6194(2) 0.1403(2)
H6_2 H 0.675854 0.624607 0.087316
C7_2 C 0.6708(2) 0.6469(2) 0.2152(2)
C8_2 C 0.6026(2) 0.6843(2) 0.2100(2)
C9_2 C 0.70618(19) 0.6401(2) 0.2947(2)
H7_2 H 0.687970 0.659993 0.344343
C10_2 C 0.94379(18) 0.3862(2) 0.3733(3)
N7_2 N 0.96902(14) 0.41742(17) 0.04363(18)
N10_2 N 0.8872(2) 0.3359(3) 0.0961(3)
H10_2 H 0.854834 0.352475 0.062230
H11_2 H 0.878602 0.301075 0.130891
C22_2 C 0.95140(18) 0.3643(2) 0.0946(2)
N11_2 N 0.96902(14) 0.58258(17) 0.54363(18)
O15_2 O 0.85066(15) 0.48047(18) 0.57802(17)
O5_2 O 0.7734(2) 0.5720(3) 0.9918(2)
Zn5_2 Zn 0.90660(2) 0.48733(2) 0.98405(2)
Zn6 Zn 0.000000 0.72458(3) 0.750000
Zn2_2 Zn 0.500000 0.22458(3) 0.750000
N1_3 N 0.53899(14) 0.06737(16) 0.56497(18)
N3_3 N 0.50425(14) 0.15742(15) 0.64792(18)
N4_3 N 0.61977(19) 0.1168(3) 0.6659(3)
H1_3 H 0.651596 0.087303 0.650895
H2_3 H 0.628340 0.148089 0.705754
N5_3 N 0.3872(2) 0.1641(3) 0.5961(3)
H3_3 H 0.354834 0.147525 0.562230
H4_3 H 0.378602 0.198925 0.630891
C10_3 C 0.55621(18) 0.1138(2) 0.6267(3)
C11_3 C 0.45140(18) 0.1357(2) 0.5946(2)
N6_3 N 0.46101(14) 0.06737(16) 0.93503(18)
N8_3 N 0.49575(14) 0.15742(15) 0.85208(18)
N9_3 N 0.38023(19) 0.1168(3) 0.8341(3)
H8_3 H 0.348404 0.087303 0.849105
H9_3 H 0.371660 0.148089 0.794246
N10_3 N 0.6128(2) 0.1641(3) 0.9039(3)
H10_3 H 0.645166 0.147525 0.937770
H11_3 H 0.621398 0.198925 0.869109
C21_3 C 0.44379(18) 0.1138(2) 0.8733(3)
C22_3 C 0.54860(18) 0.1357(2) 0.9054(2)
O16_2 O 0.40990(13) 0.27121(14) 0.73063(17)
O17_2 O 0.59010(13) 0.27121(14) 0.76937(17)
O5_3 O 0.7266(2) 0.9280(3) 0.0082(2)
O2_3 O 0.64183(13) 0.95111(16) 0.61862(15)
O3_3 O 0.70931(16) 0.8743(2) 0.55061(19)
O6_3 O 0.93932(17) 0.8284(2) 0.8509(2)
O7_2 O 0.90990(13) 0.77121(14) 0.73063(17)
C1_3 C 0.69229(18) 0.9068(2) 0.6155(2)
C2_3 C 0.73091(19) 0.8968(2) 0.7007(2)
C3_3 C 0.70313(19) 0.9246(2) 0.7758(2)
H5_3 H 0.661277 0.949361 0.772493
C4_3 C 0.7372(2) 0.9158(2) 0.8556(2)
C5_3 C 0.7036(2) 0.9442(2) 0.9356(2)
C6_3 C 0.8006(2) 0.8806(2) 0.8597(2)
H6_3 H 0.824146 0.875393 0.912684
C7_3 C 0.8292(2) 0.8531(2) 0.7848(2)
C8_3 C 0.8974(2) 0.8157(2) 0.7900(2)
C9_3 C 0.79382(19) 0.8599(2) 0.7053(2)
H7_3 H 0.812030 0.840007 0.655657
O8_3 O 0.35817(13) 0.95111(16) 0.88138(15)
O9_3 O 0.29069(16) 0.8743(2) 0.94939(19)
O11_3 O 0.2734(2) 0.9280(3) 0.4918(2)
O12_3 O 0.06068(17) 0.8284(2) 0.6491(2)
O13_2 O 0.09010(13) 0.77121(14) 0.76937(17)
C12_3 C 0.30771(18) 0.9068(2) 0.8845(2)
C13_3 C 0.26909(19) 0.8968(2) 0.7993(2)
C14_3 C 0.29687(19) 0.9246(2) 0.7242(2)
H12_3 H 0.338723 0.949361 0.727507
C15_3 C 0.2628(2) 0.9158(2) 0.6444(2)
C16_3 C 0.2964(2) 0.9442(2) 0.5644(2)
C17_3 C 0.1994(2) 0.8806(2) 0.6403(2)
H13_3 H 0.175854 0.875393 0.587316
C18_3 C 0.1708(2) 0.8531(2) 0.7152(2)
C19_3 C 0.1026(2) 0.8157(2) 0.7100(2)
C20_3 C 0.20618(19) 0.8599(2) 0.7947(2)
H14_3 H 0.187970 0.840007 0.844343
Zn6_2 Zn 1.000000 0.72458(3) 0.750000
O5_4 O 0.2266(2) 0.4280(3) 0.0082(2)
N1_4 N 0.03899(14) 0.56737(16) 0.56497(18)
N3_4 N 0.00425(14) 0.65742(15) 0.64792(18)
N4_4 N 0.11977(19) 0.6168(3) 0.6659(3)
H1_4 H 0.151596 0.587303 0.650895
H2_4 H 0.128340 0.648089 0.705754
O2_4 O 0.14183(13) 0.45111(16) 0.61862(15)
O3_4 O 0.20931(16) 0.3743(2) 0.55061(19)
O6_4 O 0.43932(17) 0.3284(2) 0.8509(2)
C1_4 C 0.19229(18) 0.4068(2) 0.6155(2)
C2_4 C 0.23091(19) 0.3968(2) 0.7007(2)
C3_4 C 0.20313(19) 0.4246(2) 0.7758(2)
H5_4 H 0.161277 0.449361 0.772493
C4_4 C 0.2372(2) 0.4158(2) 0.8556(2)
C5_4 C 0.2036(2) 0.4442(2) 0.9356(2)
C6_4 C 0.3006(2) 0.3806(2) 0.8597(2)
H6_4 H 0.324146 0.375393 0.912684
C7_4 C 0.3292(2) 0.3531(2) 0.7848(2)
C8_4 C 0.3974(2) 0.3157(2) 0.7900(2)
C9_4 C 0.29382(19) 0.3599(2) 0.7053(2)
H7_4 H 0.312030 0.340007 0.655657
C10_4 C 0.05621(18) 0.6138(2) 0.6267(3)
N10_4 N 0.1128(2) 0.6641(3) 0.9039(3)
H10_4 H 0.145166 0.647525 0.937770
H11_4 H 0.121398 0.698925 0.869109
C22_4 C 0.04860(18) 0.6357(2) 0.9054(2)
N5_4 N 0.8872(2) 0.6641(3) 0.5961(3)
H3_4 H 0.854834 0.647525 0.562230
H4_4 H 0.878602 0.698925 0.630891
C11_4 C 0.95140(18) 0.6357(2) 0.5946(2)
N6_4 N 0.96101(14) 0.56737(16) 0.93503(18)
N8_4 N 0.99575(14) 0.65742(15) 0.85208(18)
N9_4 N 0.88023(19) 0.6168(3) 0.8341(3)
H8_4 H 0.848404 0.587303 0.849105
H9_4 H 0.871660 0.648089 0.794246
O8_4 O 0.85817(13) 0.45111(16) 0.88138(15)
O9_4 O 0.79069(16) 0.3743(2) 0.94939(19)
O11_4 O 0.7734(2) 0.4280(3) 0.4918(2)
O12_4 O 0.56068(17) 0.3284(2) 0.6491(2)
C12_4 C 0.80771(18) 0.4068(2) 0.8845(2)
C13_4 C 0.76909(19) 0.3968(2) 0.7993(2)
C14_4 C 0.79687(19) 0.4246(2) 0.7242(2)
H12_4 H 0.838723 0.449361 0.727507
C15_4 C 0.7628(2) 0.4158(2) 0.6444(2)
C16_4 C 0.7964(2) 0.4442(2) 0.5644(2)
C17_4 C 0.6994(2) 0.3806(2) 0.6403(2)
H13_4 H 0.675854 0.375393 0.587316
C18_4 C 0.6708(2) 0.3531(2) 0.7152(2)
C19_4 C 0.6026(2) 0.3157(2) 0.7100(2)
C20_4 C 0.70618(19) 0.3599(2) 0.7947(2)
H14_4 H 0.687970 0.340007 0.844343
C21_4 C 0.94379(18) 0.6138(2) 0.8733(3)
loop_
_geom_bond_atom_site_label_1
_geom_bond_atom_site_label_2
_geom_bond_site_symmetry_1
_geom_bond_site_symmetry_2
O2 Zn1 1_555 1_555
O3 C1 1_555 1_555
O4 C5 1_555 1_555
O6 C8 1_555 1_555
O7 C8 1_555 1_555
C1 O2 1_555 1_555
C2 C1 1_555 1_555
C3 C2 1_555 1_555
H5 C3 1_555 1_555
C4 C3 1_555 1_555
C5 C4 1_555 1_555
C6 C4 1_555 1_555
H6 C6 1_555 1_555
C7 C6 1_555 1_555
C8 C7 1_555 1_555
C9 C2 1_555 1_555
H7 C9 1_555 1_555
O8 Zn3 1_555 1_555
O9 C12 1_555 1_555
O10 C16 1_555 1_555
O11 C16 1_555 1_555
O12 C19 1_555 1_555
O13 C19 1_555 1_555
C12 O8 1_555 1_555
C13 C12 1_555 1_555
C14 C13 1_555 1_555
H12 C14 1_555 1_555
C15 C14 1_555 1_555
C16 C15 1_555 1_555
C17 C15 1_555 1_555
H13 C17 1_555 1_555
C18 C17 1_555 1_555
C19 C18 1_555 1_555
C20 C13 1_555 1_555
H14 C20 1_555 1_555
Zn7 O7 1_555 1_555
Zn7_2 O13 1_555 1_555
N11 Zn1 1_555 1_555
C7 C9 1_555 1_555
C18 C20 1_555 1_555
Zn2 N3 1_555 1_555
N1 N2 1_555 1_555
N2 C11 1_555 1_555
N3 C10 1_555 1_555
N4 H1 1_555 1_555
H2 N4 1_555 1_555
N5 H3 1_555 1_555
H4 N5 1_555 1_555
C10 N1 1_555 1_555
C11 N3 1_555 1_555
N6 N7 1_555 1_555
N7 C22 1_555 1_555
N8 Zn2 1_555 1_555
N9 H8 1_555 1_555
H9 N9 1_555 1_555
N10 H10 1_555 1_555
H11 N10 1_555 1_555
C21 N6 1_555 1_555
C22 N8 1_555 1_555
Zn4 N2 1_555 1_555
O16 Zn2 1_555 1_555
O17 Zn2 1_555 1_555
N4 C10 1_555 1_555
N5 C11 1_555 1_555
N8 C21 1_555 1_555
N9 C21 1_555 1_555
N10 C22 1_555 1_555
N2_2 C11_2 1_555 1_555
N5_2 H3_2 1_555 1_555
H4_2 N5_2 1_555 1_555
Zn3_2 N6_2 1_555 1_555
N8_2 Zn7 1_555 1_555
N9_2 H8_2 1_555 1_555
H9_2 N9_2 1_555 1_555
O8_2 Zn3_2 1_555 1_555
O9_2 C12_2 1_555 1_555
O10_2 C16_2 1_555 1_555
O11_2 C16_2 1_555 1_555
O12_2 C19_2 1_555 1_555
O17 C19_2 1_555 1_555
C12_2 O8_2 1_555 1_555
C13_2 C12_2 1_555 1_555
C14_2 C13_2 1_555 1_555
H12_2 C14_2 1_555 1_555
C15_2 C14_2 1_555 1_555
C16_2 C15_2 1_555 1_555
C17_2 C15_2 1_555 1_555
H13_2 C17_2 1_555 1_555
C18_2 C17_2 1_555 1_555
C19_2 C18_2 1_555 1_555
C20_2 C13_2 1_555 1_555
H14_2 C20_2 1_555 1_555
C21_2 N6_2 1_555 1_555
Zn4_2 N2_2 1_555 1_555
N5_2 C11_2 1_555 1_555
N8_2 C21_2 1_555 1_555
N9_2 C21_2 1_555 1_555
O10_2 Zn4_2 1_555 1_555
C18_2 C20_2 1_555 1_555
Zn1_2 N1_2 1_555 1_555
Zn7_2 N3_2 1_555 1_555
N3_2 C10_2 1_555 1_555
N4_2 H1_2 1_555 1_555
H2_2 N4_2 1_555 1_555
O2_2 Zn1_2 1_555 1_555
O3_2 C1_2 1_555 1_555
O4_2 C5_2 1_555 1_555
O6_2 C8_2 1_555 1_555
O16 C8_2 1_555 1_555
C1_2 O2_2 1_555 1_555
C2_2 C1_2 1_555 1_555
C3_2 C2_2 1_555 1_555
H5_2 C3_2 1_555 1_555
C4_2 C3_2 1_555 1_555
C5_2 C4_2 1_555 1_555
C6_2 C4_2 1_555 1_555
H6_2 C6_2 1_555 1_555
C7_2 C6_2 1_555 1_555
C8_2 C7_2 1_555 1_555
C9_2 C2_2 1_555 1_555
H7_2 C9_2 1_555 1_555
C10_2 N1_2 1_555 1_555
N7_2 C22_2 1_555 1_555
N10_2 H10_2 1_555 1_555
H11_2 N10_2 1_555 1_555
N11_2 Zn1_2 1_555 1_555
O15_2 Zn1_2 1_555 1_555
N4_2 C10_2 1_555 1_555
C7_2 C9_2 1_555 1_555
N10_2 C22_2 1_555 1_555
Zn2_2 N3_3 1_555 1_555
N1_3 N11 1_555 1_555
N11 C11_3 1_555 1_555
N3_3 C10_3 1_555 1_555
N4_3 H1_3 1_555 1_555
H2_3 N4_3 1_555 1_555
N5_3 H3_3 1_555 1_555
H4_3 N5_3 1_555 1_555
C10_3 N1_3 1_555 1_555
C11_3 N3_3 1_555 1_555
N6_3 N12 1_555 1_555
N12 C22_3 1_555 1_555
N8_3 Zn2_2 1_555 1_555
N9_3 H8_3 1_555 1_555
H9_3 N9_3 1_555 1_555
N10_3 H10_3 1_555 1_555
H11_3 N10_3 1_555 1_555
C21_3 N6_3 1_555 1_555
C22_3 N8_3 1_555 1_555
O16_2 Zn2_2 1_555 1_555
O17_2 Zn2_2 1_555 1_555
N4_3 C10_3 1_555 1_555
N5_3 C11_3 1_555 1_555
N8_3 C21_3 1_555 1_555
N9_3 C21_3 1_555 1_555
N10_3 C22_3 1_555 1_555
O2_3 Zn4 1_555 1_555
O3_3 C1_3 1_555 1_555
O14 C5_3 1_555 1_555
O6_3 C8_3 1_555 1_555
O7_2 C8_3 1_555 1_555
C1_3 O2_3 1_555 1_555
C2_3 C1_3 1_555 1_555
C3_3 C2_3 1_555 1_555
H5_3 C3_3 1_555 1_555
C4_3 C3_3 1_555 1_555
C5_3 C4_3 1_555 1_555
C6_3 C4_3 1_555 1_555
H6_3 C6_3 1_555 1_555
C7_3 C6_3 1_555 1_555
C8_3 C7_3 1_555 1_555
C9_3 C2_3 1_555 1_555
H7_3 C9_3 1_555 1_555
O8_3 Zn5 1_555 1_555
O9_3 C12_3 1_555 1_555
O15 C16_3 1_555 1_555
O11_3 C16_3 1_555 1_555
O12_3 C19_3 1_555 1_555
O13_2 C19_3 1_555 1_555
C12_3 O8_3 1_555 1_555
C13_3 C12_3 1_555 1_555
C14_3 C13_3 1_555 1_555
H12_3 C14_3 1_555 1_555
C15_3 C14_3 1_555 1_555
C16_3 C15_3 1_555 1_555
C17_3 C15_3 1_555 1_555
H13_3 C17_3 1_555 1_555
C18_3 C17_3 1_555 1_555
C19_3 C18_3 1_555 1_555
C20_3 C13_3 1_555 1_555
H14_3 C20_3 1_555 1_555
Zn6_2 O7_2 1_555 1_555
Zn6 O13_2 1_555 1_555
C7_3 C9_3 1_555 1_555
C18_3 C20_3 1_555 1_555
Zn4_2 N1_4 1_555 1_555
Zn6 N3_4 1_555 1_555
N3_4 C10_4 1_555 1_555
N4_4 H1_4 1_555 1_555
H2_4 N4_4 1_555 1_555
O2_4 Zn4_2 1_555 1_555
O3_4 C1_4 1_555 1_555
O14_2 C5_4 1_555 1_555
O6_4 C8_4 1_555 1_555
O16_2 C8_4 1_555 1_555
C1_4 O2_4 1_555 1_555
C2_4 C1_4 1_555 1_555
C3_4 C2_4 1_555 1_555
H5_4 C3_4 1_555 1_555
C4_4 C3_4 1_555 1_555
C5_4 C4_4 1_555 1_555
C6_4 C4_4 1_555 1_555
H6_4 C6_4 1_555 1_555
C7_4 C6_4 1_555 1_555
C8_4 C7_4 1_555 1_555
C9_4 C2_4 1_555 1_555
H7_4 C9_4 1_555 1_555
C10_4 N1_4 1_555 1_555
N12_2 C22_4 1_555 1_555
N10_4 H10_4 1_555 1_555
H11_4 N10_4 1_555 1_555
N4_4 C10_4 1_555 1_555
C7_4 C9_4 1_555 1_555
N10_4 C22_4 1_555 1_555
N11_2 C11_4 1_555 1_555
N5_4 H3_4 1_555 1_555
H4_4 N5_4 1_555 1_555
Zn5_2 N6_4 1_555 1_555
N8_4 Zn6_2 1_555 1_555
N9_4 H8_4 1_555 1_555
H9_4 N9_4 1_555 1_555
O8_4 Zn5_2 1_555 1_555
O9_4 C12_4 1_555 1_555
O15_2 C16_4 1_555 1_555
O11_4 C16_4 1_555 1_555
O12_4 C19_4 1_555 1_555
O17_2 C19_4 1_555 1_555
C12_4 O8_4 1_555 1_555
C13_4 C12_4 1_555 1_555
C14_4 C13_4 1_555 1_555
H12_4 C14_4 1_555 1_555
C15_4 C14_4 1_555 1_555
C16_4 C15_4 1_555 1_555
C17_4 C15_4 1_555 1_555
H13_4 C17_4 1_555 1_555
C18_4 C17_4 1_555 1_555
C19_4 C18_4 1_555 1_555
C20_4 C13_4 1_555 1_555
H14_4 C20_4 1_555 1_555
C21_4 N6_4 1_555 1_555
N5_4 C11_4 1_555 1_555
N8_4 C21_4 1_555 1_555
N9_4 C21_4 1_555 1_555
C18_4 C20_4 1_555 1_555

#END
