
###############################################################################
#
# This file contains modified crystal structure data generated from the
# MOF subset of the Cambridge Structural Database (CSD) v543 
# hosted by the Cambridge Crystallographic Data Centre (CCDC).
#
# This work is licensed under the Creative Commons
# Attribution-NonCommercial-ShareAlike 4.0 International License.
# To view a copy of this license, visit
# http://creativecommons.org/licenses/by-nc-sa/4.0/
# or send a letter to
# Creative Commons, PO Box 1866, Mountain View, CA 94042, USA.
#
# CIF created using the CSD Python API on 29 September 2022
# The structure has been converted into the P1 space group
# The structure has a 3D framework
# The original CSD entry QALXUA is in the orthorhombic crystal system
# The framework has been calculated to contain at least 10.0% void space
# The void calculation uses a probe of radius 1.32A, grid spacing 0.4
# The framework is charged, counterions have been retained in the structure
#
###############################################################################

data_QALXUA
_chemical_formula_moiety         '(C104 H72 N57 O32 Zn14 10-)n'
_symmetry_cell_setting           triclinic
_symmetry_space_group_name_H-M   'P 1'
_symmetry_Int_Tables_number      1
_space_group_name_Hall           'P 1'
loop_
_symmetry_equiv_pos_site_id
_symmetry_equiv_pos_as_xyz
1 x,y,z
_cell_length_a                   15.629(5)
_cell_length_b                   22.225(7)
_cell_length_c                   17.895(6)
_cell_angle_alpha                90
_cell_angle_beta                 90
_cell_angle_gamma                90
_cell_volume                     6215.91
loop_
_atom_site_label
_atom_site_type_symbol
_atom_site_fract_x
_atom_site_fract_y
_atom_site_fract_z
Zn6 Zn -0.000000 0.66268(7) 0.3782(2)
Zn1 Zn 0.500000 0.16268(7) 0.3782(2)
Zn2 Zn 0.38083(8) 0.00027(14) 0.1290(2)
C11 C 0.4264(13) 0.0820(8) 0.2529(11)
C12 C 0.3460(15) 0.0917(9) 0.2764(13)
H7 H 0.346989 0.116234 0.320602
H8 H 0.314262 0.111955 0.237964
H9 H 0.319125 0.053913 0.287563
N1 N 0.4509(9) 0.0503(6) 0.1938(8)
N2 N 0.500000 0.1111(10) 0.2890(14)
C16 C 0.5736(13) 0.0820(8) 0.2529(11)
C17 C 0.6540(15) 0.0917(9) 0.2764(13)
H13 H 0.653011 0.116234 0.320602
H14 H 0.685738 0.111955 0.237964
H15 H 0.680875 0.053913 0.287563
N10 N 0.5491(9) 0.0503(6) 0.1938(8)
Zn3 Zn 0.61917(8) 0.00027(14) 0.1290(2)
N15 N 0.500000 0.1042(9) 0.4674(13)
N16 N 0.6987(7) 0.0488(5) 0.0738(6)
N17 N 0.3013(7) 0.0488(5) 0.0738(6)
O9 O 0.5996(5) 0.2150(4) 0.3754(10)
O10 O 0.4004(5) 0.2150(4) 0.3754(10)
C1 C 0.276(2) 0.9147(13) 0.2092(12)
C2 C 0.2431(8) 0.8858(6) 0.2774(6)
C3 C 0.2625(7) 0.9054(6) 0.3488(7)
H1 H 0.296697 0.939224 0.355518
C4 C 0.2310(8) 0.8747(6) 0.4102(7)
C5 C 0.1801(7) 0.8245(6) 0.4003(8)
H2 H 0.158985 0.803840 0.441544
C6 C 0.1607(7) 0.8048(5) 0.3289(8)
C7 C 0.1922(8) 0.8355(6) 0.2675(6)
H3 H 0.179087 0.822298 0.219502
C8 C 0.1063(13) 0.7467(8) 0.3265(13)
C9 C 0.4398(12) 0.9129(8) 0.0049(11)
H5 H 0.312985 0.877728 0.029648
N3 N 0.4621(9) 0.9482(7) 0.0631(9)
N5 N 0.3055(8) 0.9402(6) 0.4990(6)
N6 N 0.3013(7) 0.9512(5) 0.5738(6)
N7 N 0.2392(9) 0.9154(6) 0.6032(6)
N8 N 0.2049(9) 0.8822(6) 0.5466(8)
C13 C 0.2459(8) 0.8976(6) 0.4822(7)
O1 O 0.3290(8) 0.9567(6) 0.2232(9)
O2 O 0.2535(11) 0.9054(7) 0.1451(8)
O3 O 0.0996(5) 0.7150(4) 0.3754(10)
O4 O 0.0733(12) 0.7421(7) 0.2599(10)
C14 C 0.5602(12) 0.9129(8) 0.0049(11)
H11 H 0.687015 0.877728 0.029648
N9 N 0.5379(9) 0.9482(7) 0.0631(9)
C18 C 0.724(2) 0.9147(13) 0.2092(12)
C19 C 0.7569(8) 0.8858(6) 0.2774(6)
C20 C 0.7375(7) 0.9054(6) 0.3488(7)
H16 H 0.703303 0.939224 0.355518
C21 C 0.7690(8) 0.8747(6) 0.4102(7)
C22 C 0.8199(7) 0.8245(6) 0.4003(8)
H17 H 0.841015 0.803840 0.441544
C23 C 0.8393(7) 0.8048(5) 0.3289(8)
C24 C 0.8078(8) 0.8355(6) 0.2675(6)
H18 H 0.820913 0.822298 0.219502
C25 C 0.8937(13) 0.7467(8) 0.3265(13)
N11 N 0.6945(8) 0.9402(6) 0.4990(6)
N12 N 0.6987(7) 0.9512(5) 0.5738(6)
N13 N 0.7608(9) 0.9154(6) 0.6032(6)
N14 N 0.7951(9) 0.8822(6) 0.5466(8)
C26 C 0.7541(8) 0.8976(6) 0.4822(7)
O5 O 0.6710(8) 0.9567(6) 0.2232(9)
O6 O 0.7465(11) 0.9054(7) 0.1451(8)
O7 O 0.9004(5) 0.7150(4) 0.3754(10)
O8 O 0.9267(12) 0.7421(7) 0.2599(10)
Zn6_2 Zn 1.000000 0.66268(7) 0.3782(2)
Zn7 Zn 0.61917(8) 0.99973(14) 0.6290(2)
Zn8 Zn 0.38083(8) 0.99973(14) 0.6290(2)
C10 C 0.3373(12) 0.8991(7) 0.9881(10)
H4 H 0.307384 0.936388 0.981245
H6 H 0.332138 0.875072 0.943721
N4 N 0.500000 0.8958(9) 0.9674(13)
C15 C 0.6627(12) 0.8991(7) 0.9881(10)
H10 H 0.692616 0.936388 0.981245
H12 H 0.667862 0.875072 0.943721
Zn4 Zn 0.500000 0.83732(7) 0.8782(2)
Zn5 Zn -0.000000 0.33732(7) 0.8782(2)
N7_2 N 0.7608(9) 0.0846(6) 0.1032(6)
N8_2 N 0.7951(9) 0.1178(6) 0.0466(8)
N13_2 N 0.2392(9) 0.0846(6) 0.1032(6)
N14_2 N 0.2049(9) 0.1178(6) 0.0466(8)
C1_2 C 0.724(2) 0.0853(13) 0.7092(12)
C2_2 C 0.7569(8) 0.1142(6) 0.7774(6)
C3_2 C 0.7375(7) 0.0946(6) 0.8488(7)
H1_2 H 0.703303 0.060776 0.855518
C4_2 C 0.7690(8) 0.1253(6) 0.9102(7)
C5_2 C 0.8199(7) 0.1755(6) 0.9003(8)
H2_2 H 0.841015 0.196160 0.941544
C6_2 C 0.8393(7) 0.1952(5) 0.8289(8)
C7_2 C 0.8078(8) 0.1645(6) 0.7675(6)
H3_2 H 0.820913 0.177702 0.719502
C8_2 C 0.8937(13) 0.2533(8) 0.8265(13)
C9_2 C 0.5602(12) 0.0871(8) 0.5049(11)
C10_2 C 0.6627(12) 0.1009(7) 0.4881(10)
H4_2 H 0.692616 0.063612 0.481245
H5_2 H 0.687015 0.122272 0.529648
H6_2 H 0.667862 0.124928 0.443721
N3_2 N 0.5379(9) 0.0518(7) 0.5631(9)
N5_2 N 0.6945(8) 0.0598(6) 0.9990(6)
C13_2 C 0.7541(8) 0.1024(6) 0.9822(7)
O1_2 O 0.6710(8) 0.0433(6) 0.7232(9)
O2_2 O 0.7465(11) 0.0946(7) 0.6451(8)
O3_2 O 0.9004(5) 0.2850(4) 0.8754(10)
O4_2 O 0.9267(12) 0.2579(7) 0.7599(10)
C14_2 C 0.4398(12) 0.0871(8) 0.5049(11)
C15_2 C 0.3373(12) 0.1009(7) 0.4881(10)
H10_2 H 0.307384 0.063612 0.481245
H11_2 H 0.312985 0.122272 0.529648
H12_2 H 0.332138 0.124928 0.443721
N9_2 N 0.4621(9) 0.0518(7) 0.5631(9)
C18_2 C 0.276(2) 0.0853(13) 0.7092(12)
C19_2 C 0.2431(8) 0.1142(6) 0.7774(6)
C20_2 C 0.2625(7) 0.0946(6) 0.8488(7)
H16_2 H 0.296697 0.060776 0.855518
C21_2 C 0.2310(8) 0.1253(6) 0.9102(7)
C22_2 C 0.1801(7) 0.1755(6) 0.9003(8)
H17_2 H 0.158985 0.196160 0.941544
C23_2 C 0.1607(7) 0.1952(5) 0.8289(8)
C24_2 C 0.1922(8) 0.1645(6) 0.7675(6)
H18_2 H 0.179087 0.177702 0.719502
C25_2 C 0.1063(13) 0.2533(8) 0.8265(13)
N11_2 N 0.3055(8) 0.0598(6) 0.9990(6)
C26_2 C 0.2459(8) 0.1024(6) 0.9822(7)
O5_2 O 0.3290(8) 0.0433(6) 0.7232(9)
O6_2 O 0.2535(11) 0.0946(7) 0.6451(8)
O7_2 O 0.0996(5) 0.2850(4) 0.8754(10)
O8_2 O 0.0733(12) 0.2579(7) 0.7599(10)
Zn5_2 Zn 1.000000 0.33732(7) 0.8782(2)
C11_2 C 0.5736(13) 0.9180(8) 0.7529(11)
C12_2 C 0.6540(15) 0.9083(9) 0.7764(13)
H7_2 H 0.653011 0.883766 0.820602
H8_2 H 0.685738 0.888045 0.737964
H9_2 H 0.680875 0.946087 0.787563
N1_2 N 0.5491(9) 0.9497(6) 0.6938(8)
N2_2 N 0.500000 0.8889(10) 0.7890(14)
C16_2 C 0.4264(13) 0.9180(8) 0.7529(11)
C17_2 C 0.3460(15) 0.9083(9) 0.7764(13)
H13_2 H 0.346989 0.883766 0.820602
H14_2 H 0.314262 0.888045 0.737964
H15_2 H 0.319125 0.946087 0.787563
N10_2 N 0.4509(9) 0.9497(6) 0.6938(8)
O9_2 O 0.4004(5) 0.7850(4) 0.8754(10)
O10_2 O 0.5996(5) 0.7850(4) 0.8754(10)
N2_3 N -0.000000 0.6111(10) 0.2890(14)
C14_3 C 0.0602(12) 0.4129(8) 0.0049(11)
H11_3 H 0.187015 0.377728 0.029648
N9_3 N 0.0379(9) 0.4482(7) 0.0631(9)
C16_3 C 0.0736(13) 0.5820(8) 0.2529(11)
C17_3 C 0.1540(15) 0.5917(9) 0.2764(13)
H13_3 H 0.153011 0.616234 0.320602
H14_3 H 0.185738 0.611955 0.237964
H15_3 H 0.180875 0.553913 0.287563
N10_3 N 0.0491(9) 0.5503(6) 0.1938(8)
Zn3_2 Zn 0.11917(8) 0.50027(14) 0.1290(2)
C18_3 C 0.224(2) 0.4147(13) 0.2092(12)
C19_3 C 0.2569(8) 0.3858(6) 0.2774(6)
C20_3 C 0.2375(7) 0.4054(6) 0.3488(7)
H16_3 H 0.203303 0.439224 0.355518
C21_3 C 0.2690(8) 0.3747(6) 0.4102(7)
C22_3 C 0.3199(7) 0.3245(6) 0.4003(8)
H17_3 H 0.341015 0.303840 0.441544
C23_3 C 0.3393(7) 0.3048(5) 0.3289(8)
C24_3 C 0.3078(8) 0.3355(6) 0.2675(6)
H18_3 H 0.320913 0.322298 0.219502
C25_3 C 0.3937(13) 0.2467(8) 0.3265(13)
N11_3 N 0.1945(8) 0.4402(6) 0.4990(6)
N12_2 N 0.1987(7) 0.4512(5) 0.5738(6)
N13_3 N 0.2608(9) 0.4154(6) 0.6032(6)
N14_3 N 0.2951(9) 0.3822(6) 0.5466(8)
C26_3 C 0.2541(8) 0.3976(6) 0.4822(7)
O5_3 O 0.1710(8) 0.4567(6) 0.2232(9)
O6_3 O 0.2465(11) 0.4054(7) 0.1451(8)
O8_3 O 0.4267(12) 0.2421(7) 0.2599(10)
Zn7_2 Zn 0.11917(8) 0.49973(14) 0.6290(2)
N15_2 N -0.000000 0.6042(9) 0.4674(13)
N16_2 N 0.1987(7) 0.5488(5) 0.0738(6)
N4_2 N -0.000000 0.3958(9) 0.9674(13)
C15_3 C 0.1627(12) 0.3991(7) 0.9881(10)
H10_3 H 0.192616 0.436388 0.981245
H12_3 H 0.167862 0.375072 0.943721
Zn2_2 Zn 0.88083(8) 0.50027(14) 0.1290(2)
C1_3 C 0.776(2) 0.4147(13) 0.2092(12)
C2_3 C 0.7431(8) 0.3858(6) 0.2774(6)
C3_3 C 0.7625(7) 0.4054(6) 0.3488(7)
H1_3 H 0.796697 0.439224 0.355518
C4_3 C 0.7310(8) 0.3747(6) 0.4102(7)
C5_3 C 0.6801(7) 0.3245(6) 0.4003(8)
H2_3 H 0.658985 0.303840 0.441544
C6_3 C 0.6607(7) 0.3048(5) 0.3289(8)
C7_3 C 0.6922(8) 0.3355(6) 0.2675(6)
H3_3 H 0.679087 0.322298 0.219502
C8_3 C 0.6063(13) 0.2467(8) 0.3265(13)
C9_3 C 0.9398(12) 0.4129(8) 0.0049(11)
H5_3 H 0.812985 0.377728 0.029648
C11_3 C 0.9264(13) 0.5820(8) 0.2529(11)
C12_3 C 0.8460(15) 0.5917(9) 0.2764(13)
H7_3 H 0.846989 0.616234 0.320602
H8_3 H 0.814262 0.611955 0.237964
H9_3 H 0.819125 0.553913 0.287563
N1_3 N 0.9509(9) 0.5503(6) 0.1938(8)
N2_4 N 1.000000 0.6111(10) 0.2890(14)
N3_3 N 0.9621(9) 0.4482(7) 0.0631(9)
N5_3 N 0.8055(8) 0.4402(6) 0.4990(6)
N6_2 N 0.8013(7) 0.4512(5) 0.5738(6)
N7_3 N 0.7392(9) 0.4154(6) 0.6032(6)
N8_3 N 0.7049(9) 0.3822(6) 0.5466(8)
C13_3 C 0.7459(8) 0.3976(6) 0.4822(7)
O1_3 O 0.8290(8) 0.4567(6) 0.2232(9)
O2_3 O 0.7535(11) 0.4054(7) 0.1451(8)
O4_3 O 0.5733(12) 0.2421(7) 0.2599(10)
Zn8_2 Zn 0.88083(8) 0.49973(14) 0.6290(2)
N15_3 N 1.000000 0.6042(9) 0.4674(13)
N17_2 N 0.8013(7) 0.5488(5) 0.0738(6)
C10_3 C 0.8373(12) 0.3991(7) 0.9881(10)
H4_3 H 0.807384 0.436388 0.981245
H6_3 H 0.832138 0.375072 0.943721
N4_3 N 1.000000 0.3958(9) 0.9674(13)
N7_4 N 0.2608(9) 0.5846(6) 0.1032(6)
N8_4 N 0.2951(9) 0.6178(6) 0.0466(8)
C1_4 C 0.224(2) 0.5853(13) 0.7092(12)
C2_4 C 0.2569(8) 0.6142(6) 0.7774(6)
C3_4 C 0.2375(7) 0.5946(6) 0.8488(7)
H1_4 H 0.203303 0.560776 0.855518
C4_4 C 0.2690(8) 0.6253(6) 0.9102(7)
C5_4 C 0.3199(7) 0.6755(6) 0.9003(8)
H2_4 H 0.341015 0.696160 0.941544
C6_4 C 0.3393(7) 0.6952(5) 0.8289(8)
C7_4 C 0.3078(8) 0.6645(6) 0.7675(6)
H3_4 H 0.320913 0.677702 0.719502
C8_4 C 0.3937(13) 0.7533(8) 0.8265(13)
C9_4 C 0.0602(12) 0.5871(8) 0.5049(11)
C10_4 C 0.1627(12) 0.6009(7) 0.4881(10)
H4_4 H 0.192616 0.563612 0.481245
H5_4 H 0.187015 0.622272 0.529648
H6_4 H 0.167862 0.624928 0.443721
C11_4 C 0.0736(13) 0.4180(8) 0.7529(11)
C12_4 C 0.1540(15) 0.4083(9) 0.7764(13)
H7_4 H 0.153011 0.383766 0.820602
H8_4 H 0.185738 0.388045 0.737964
H9_4 H 0.180875 0.446087 0.787563
N1_4 N 0.0491(9) 0.4497(6) 0.6938(8)
N2_5 N -0.000000 0.3889(10) 0.7890(14)
N3_4 N 0.0379(9) 0.5518(7) 0.5631(9)
N5_4 N 0.1945(8) 0.5598(6) 0.9990(6)
C13_4 C 0.2541(8) 0.6024(6) 0.9822(7)
O1_4 O 0.1710(8) 0.5433(6) 0.7232(9)
O2_4 O 0.2465(11) 0.5946(7) 0.6451(8)
O4_4 O 0.4267(12) 0.7579(7) 0.7599(10)
N13_4 N 0.7392(9) 0.5846(6) 0.1032(6)
N14_4 N 0.7049(9) 0.6178(6) 0.0466(8)
N2_6 N 1.000000 0.3889(10) 0.7890(14)
C14_4 C 0.9398(12) 0.5871(8) 0.5049(11)
C15_4 C 0.8373(12) 0.6009(7) 0.4881(10)
H10_4 H 0.807384 0.563612 0.481245
H11_4 H 0.812985 0.622272 0.529648
H12_4 H 0.832138 0.624928 0.443721
N9_4 N 0.9621(9) 0.5518(7) 0.5631(9)
C16_4 C 0.9264(13) 0.4180(8) 0.7529(11)
C17_4 C 0.8460(15) 0.4083(9) 0.7764(13)
H13_4 H 0.846989 0.383766 0.820602
H14_4 H 0.814262 0.388045 0.737964
H15_4 H 0.819125 0.446087 0.787563
N10_4 N 0.9509(9) 0.4497(6) 0.6938(8)
C18_4 C 0.776(2) 0.5853(13) 0.7092(12)
C19_4 C 0.7431(8) 0.6142(6) 0.7774(6)
C20_4 C 0.7625(7) 0.5946(6) 0.8488(7)
H16_4 H 0.796697 0.560776 0.855518
C21_4 C 0.7310(8) 0.6253(6) 0.9102(7)
C22_4 C 0.6801(7) 0.6755(6) 0.9003(8)
H17_4 H 0.658985 0.696160 0.941544
C23_4 C 0.6607(7) 0.6952(5) 0.8289(8)
C24_4 C 0.6922(8) 0.6645(6) 0.7675(6)
H18_4 H 0.679087 0.677702 0.719502
C25_4 C 0.6063(13) 0.7533(8) 0.8265(13)
N11_4 N 0.8055(8) 0.5598(6) 0.9990(6)
C26_4 C 0.7459(8) 0.6024(6) 0.9822(7)
O5_4 O 0.8290(8) 0.5433(6) 0.7232(9)
O6_4 O 0.7535(11) 0.5946(7) 0.6451(8)
O8_4 O 0.5733(12) 0.7579(7) 0.7599(10)
loop_
_geom_bond_atom_site_label_1
_geom_bond_atom_site_label_2
_geom_bond_site_symmetry_1
_geom_bond_site_symmetry_2
Zn1 N2 1_555 1_555
Zn2 N1 1_555 1_555
C11 C12 1_555 1_555
C12 H7 1_555 1_555
H8 C12 1_555 1_555
H9 C12 1_555 1_555
N1 C11 1_555 1_555
N2 C11 1_555 1_555
C16 N2 1_555 1_555
C17 C16 1_555 1_555
H13 C17 1_555 1_555
H14 C17 1_555 1_555
H15 C17 1_555 1_555
N10 N1 1_555 1_555
N15 Zn1 1_555 1_555
N16 Zn3 1_555 1_555
N17 Zn2 1_555 1_555
O9 Zn1 1_555 1_555
O10 Zn1 1_555 1_555
C16 N10 1_555 1_555
N10 Zn3 1_555 1_555
C1 C2 1_555 1_555
C2 C3 1_555 1_555
C3 H1 1_555 1_555
C4 C3 1_555 1_555
C5 C4 1_555 1_555
H2 C5 1_555 1_555
C6 C5 1_555 1_555
C7 C2 1_555 1_555
H3 C7 1_555 1_555
C8 C6 1_555 1_555
N5 N6 1_555 1_555
N6 N7 1_555 1_555
N7 N8 1_555 1_555
N8 C13 1_555 1_555
C13 C4 1_555 1_555
O2 C1 1_555 1_555
O3 C8 1_555 1_555
O4 C8 1_555 1_555
N9 N3 1_555 1_555
C18 C19 1_555 1_555
C19 C20 1_555 1_555
C20 H16 1_555 1_555
C21 C20 1_555 1_555
C22 C21 1_555 1_555
H17 C22 1_555 1_555
C23 C22 1_555 1_555
C24 C19 1_555 1_555
H18 C24 1_555 1_555
C25 C23 1_555 1_555
N11 N12 1_555 1_555
N12 N13 1_555 1_555
N13 N14 1_555 1_555
N14 C26 1_555 1_555
C26 C21 1_555 1_555
O6 C18 1_555 1_555
O7 C25 1_555 1_555
O8 C25 1_555 1_555
Zn6 O3 1_555 1_555
Zn6_2 O7 1_555 1_555
Zn7 N12 1_555 1_555
Zn8 N6 1_555 1_555
C1 O1 1_555 1_555
C6 C7 1_555 1_555
C9 N3 1_555 1_555
N5 C13 1_555 1_555
C14 N9 1_555 1_555
C18 O5 1_555 1_555
C23 C24 1_555 1_555
N11 C26 1_555 1_555
C10 H4 1_555 1_555
H6 C10 1_555 1_555
H10 C15 1_555 1_555
H12 C15 1_555 1_555
Zn4 N4 1_555 1_555
N16 N7_2 1_555 1_555
N7_2 N8_2 1_555 1_555
N17 N13_2 1_555 1_555
N13_2 N14_2 1_555 1_555
C1_2 C2_2 1_555 1_555
C2_2 C3_2 1_555 1_555
C3_2 H1_2 1_555 1_555
C4_2 C3_2 1_555 1_555
C5_2 C4_2 1_555 1_555
H2_2 C5_2 1_555 1_555
C6_2 C5_2 1_555 1_555
C7_2 C2_2 1_555 1_555
H3_2 C7_2 1_555 1_555
C8_2 C6_2 1_555 1_555
C9_2 C10_2 1_555 1_555
C10_2 H4_2 1_555 1_555
H5_2 C10_2 1_555 1_555
H6_2 C10_2 1_555 1_555
N15 C9_2 1_555 1_555
C13_2 C4_2 1_555 1_555
O2_2 C1_2 1_555 1_555
O3_2 C8_2 1_555 1_555
O4_2 C8_2 1_555 1_555
C14_2 N15 1_555 1_555
C15_2 C14_2 1_555 1_555
H10_2 C15_2 1_555 1_555
H11_2 C15_2 1_555 1_555
H12_2 C15_2 1_555 1_555
N9_2 N3_2 1_555 1_555
C18_2 C19_2 1_555 1_555
C19_2 C20_2 1_555 1_555
C20_2 H16_2 1_555 1_555
C21_2 C20_2 1_555 1_555
C22_2 C21_2 1_555 1_555
H17_2 C22_2 1_555 1_555
C23_2 C22_2 1_555 1_555
C24_2 C19_2 1_555 1_555
H18_2 C24_2 1_555 1_555
C25_2 C23_2 1_555 1_555
C26_2 C21_2 1_555 1_555
O6_2 C18_2 1_555 1_555
O7_2 C25_2 1_555 1_555
O8_2 C25_2 1_555 1_555
Zn5_2 O3_2 1_555 1_555
Zn5 O7_2 1_555 1_555
C1_2 O1_2 1_555 1_555
C6_2 C7_2 1_555 1_555
C9_2 N3_2 1_555 1_555
N5_2 C13_2 1_555 1_555
C14_2 N9_2 1_555 1_555
C18_2 O5_2 1_555 1_555
C23_2 C24_2 1_555 1_555
N11_2 C26_2 1_555 1_555
Zn4 N2_2 1_555 1_555
Zn7 N1_2 1_555 1_555
C11_2 C12_2 1_555 1_555
C12_2 H7_2 1_555 1_555
H8_2 C12_2 1_555 1_555
H9_2 C12_2 1_555 1_555
N1_2 C11_2 1_555 1_555
N2_2 C11_2 1_555 1_555
C16_2 N2_2 1_555 1_555
C17_2 C16_2 1_555 1_555
H13_2 C17_2 1_555 1_555
H14_2 C17_2 1_555 1_555
H15_2 C17_2 1_555 1_555
N10_2 N1_2 1_555 1_555
O9_2 Zn4 1_555 1_555
O10_2 Zn4 1_555 1_555
C16_2 N10_2 1_555 1_555
N10_2 Zn8 1_555 1_555
Zn6 N2_3 1_555 1_555
C16_3 N2_3 1_555 1_555
C17_3 C16_3 1_555 1_555
H13_3 C17_3 1_555 1_555
H14_3 C17_3 1_555 1_555
H15_3 C17_3 1_555 1_555
Zn3_2 N9_3 1_555 1_555
C18_3 C19_3 1_555 1_555
C19_3 C20_3 1_555 1_555
C20_3 H16_3 1_555 1_555
C21_3 C20_3 1_555 1_555
C22_3 C21_3 1_555 1_555
H17_3 C22_3 1_555 1_555
C23_3 C22_3 1_555 1_555
C24_3 C19_3 1_555 1_555
H18_3 C24_3 1_555 1_555
C25_3 C23_3 1_555 1_555
N11_3 N12_2 1_555 1_555
N12_2 N13_3 1_555 1_555
N13_3 N14_3 1_555 1_555
N14_3 C26_3 1_555 1_555
C26_3 C21_3 1_555 1_555
O5_3 Zn3_2 1_555 1_555
O6_3 C18_3 1_555 1_555
O10 C25_3 1_555 1_555
O8_3 C25_3 1_555 1_555
Zn7_2 N12_2 1_555 1_555
N15_2 Zn6 1_555 1_555
N16_2 Zn3_2 1_555 1_555
C14_3 N9_3 1_555 1_555
C16_3 N10_3 1_555 1_555
N10_3 Zn3_2 1_555 1_555
C18_3 O5_3 1_555 1_555
C23_3 C24_3 1_555 1_555
N11_3 C26_3 1_555 1_555
H10_3 C15_3 1_555 1_555
H12_3 C15_3 1_555 1_555
Zn5 N4_2 1_555 1_555
Zn6_2 N2_4 1_555 1_555
Zn2_2 N1_3 1_555 1_555
C1_3 C2_3 1_555 1_555
C2_3 C3_3 1_555 1_555
C3_3 H1_3 1_555 1_555
C4_3 C3_3 1_555 1_555
C5_3 C4_3 1_555 1_555
H2_3 C5_3 1_555 1_555
C6_3 C5_3 1_555 1_555
C7_3 C2_3 1_555 1_555
H3_3 C7_3 1_555 1_555
C8_3 C6_3 1_555 1_555
C11_3 C12_3 1_555 1_555
C12_3 H7_3 1_555 1_555
H8_3 C12_3 1_555 1_555
H9_3 C12_3 1_555 1_555
N1_3 C11_3 1_555 1_555
N2_4 C11_3 1_555 1_555
N3_3 Zn2_2 1_555 1_555
N5_3 N6_2 1_555 1_555
N6_2 N7_3 1_555 1_555
N7_3 N8_3 1_555 1_555
N8_3 C13_3 1_555 1_555
C13_3 C4_3 1_555 1_555
O1_3 Zn2_2 1_555 1_555
O2_3 C1_3 1_555 1_555
O9 C8_3 1_555 1_555
O4_3 C8_3 1_555 1_555
Zn8_2 N6_2 1_555 1_555
N15_3 Zn6_2 1_555 1_555
N17_2 Zn2_2 1_555 1_555
C1_3 O1_3 1_555 1_555
C6_3 C7_3 1_555 1_555
C9_3 N3_3 1_555 1_555
N5_3 C13_3 1_555 1_555
C10_3 H4_3 1_555 1_555
H6_3 C10_3 1_555 1_555
Zn5_2 N4_3 1_555 1_555
N16_2 N7_4 1_555 1_555
N7_4 N8_4 1_555 1_555
Zn5 N2_5 1_555 1_555
Zn7_2 N1_4 1_555 1_555
C1_4 C2_4 1_555 1_555
C2_4 C3_4 1_555 1_555
C3_4 H1_4 1_555 1_555
C4_4 C3_4 1_555 1_555
C5_4 C4_4 1_555 1_555
H2_4 C5_4 1_555 1_555
C6_4 C5_4 1_555 1_555
C7_4 C2_4 1_555 1_555
H3_4 C7_4 1_555 1_555
C8_4 C6_4 1_555 1_555
C9_4 C10_4 1_555 1_555
C10_4 H4_4 1_555 1_555
H5_4 C10_4 1_555 1_555
H6_4 C10_4 1_555 1_555
C11_4 C12_4 1_555 1_555
C12_4 H7_4 1_555 1_555
H8_4 C12_4 1_555 1_555
H9_4 C12_4 1_555 1_555
N1_4 C11_4 1_555 1_555
N2_5 C11_4 1_555 1_555
N3_4 Zn7_2 1_555 1_555
N15_2 C9_4 1_555 1_555
C13_4 C4_4 1_555 1_555
O1_4 Zn7_2 1_555 1_555
O2_4 C1_4 1_555 1_555
O9_2 C8_4 1_555 1_555
O4_4 C8_4 1_555 1_555
C1_4 O1_4 1_555 1_555
C6_4 C7_4 1_555 1_555
C9_4 N3_4 1_555 1_555
N5_4 C13_4 1_555 1_555
N17_2 N13_4 1_555 1_555
N13_4 N14_4 1_555 1_555
Zn5_2 N2_6 1_555 1_555
C14_4 N15_3 1_555 1_555
C15_4 C14_4 1_555 1_555
H10_4 C15_4 1_555 1_555
H11_4 C15_4 1_555 1_555
H12_4 C15_4 1_555 1_555
C16_4 N2_6 1_555 1_555
C17_4 C16_4 1_555 1_555
H13_4 C17_4 1_555 1_555
H14_4 C17_4 1_555 1_555
H15_4 C17_4 1_555 1_555
Zn8_2 N9_4 1_555 1_555
C18_4 C19_4 1_555 1_555
C19_4 C20_4 1_555 1_555
C20_4 H16_4 1_555 1_555
C21_4 C20_4 1_555 1_555
C22_4 C21_4 1_555 1_555
H17_4 C22_4 1_555 1_555
C23_4 C22_4 1_555 1_555
C24_4 C19_4 1_555 1_555
H18_4 C24_4 1_555 1_555
C25_4 C23_4 1_555 1_555
C26_4 C21_4 1_555 1_555
O5_4 Zn8_2 1_555 1_555
O6_4 C18_4 1_555 1_555
O10_2 C25_4 1_555 1_555
O8_4 C25_4 1_555 1_555
C14_4 N9_4 1_555 1_555
C16_4 N10_4 1_555 1_555
N10_4 Zn8_2 1_555 1_555
C18_4 O5_4 1_555 1_555
C23_4 C24_4 1_555 1_555
N11_4 C26_4 1_555 1_555

#END
