
###############################################################################
#
# This file contains modified crystal structure data generated from the
# MOF subset of the Cambridge Structural Database (CSD) v543 
# hosted by the Cambridge Crystallographic Data Centre (CCDC).
#
# This work is licensed under the Creative Commons
# Attribution-NonCommercial-ShareAlike 4.0 International License.
# To view a copy of this license, visit
# http://creativecommons.org/licenses/by-nc-sa/4.0/
# or send a letter to
# Creative Commons, PO Box 1866, Mountain View, CA 94042, USA.
#
# CIF created using the CSD Python API on 29 September 2022
# The structure has been converted into the P1 space group
# The structure has a 3D framework
# The original CSD entry QALXEK is in the monoclinic crystal system
# The framework has been calculated to contain at least 10.0% void space
# The void calculation uses a probe of radius 1.32A, grid spacing 0.4
# The framework is charged, counterions have been retained in the structure
# H atom positions have been added when not included in the experimental data
# Generated hydrogen atom positions removed from atoms on special positions
#
###############################################################################

data_QALXEK
_chemical_formula_moiety         '(C88 H80 N72 O40 Zn14)n'
_symmetry_cell_setting           triclinic
_symmetry_space_group_name_H-M   'P 1'
_symmetry_Int_Tables_number      1
_space_group_name_Hall           'P 1'
loop_
_symmetry_equiv_pos_site_id
_symmetry_equiv_pos_as_xyz
1 x,y,z
_cell_length_a                   19.55(3)
_cell_length_b                   18.20(3)
_cell_length_c                   17.24(2)
_cell_angle_alpha                90
_cell_angle_beta                 97.96(2)
_cell_angle_gamma                90
_cell_volume                     6075.06
loop_
_atom_site_label
_atom_site_type_symbol
_atom_site_fract_x
_atom_site_fract_y
_atom_site_fract_z
Zn5 Zn 0.000000 0.79271(7) 0.750000
N16 N 0.7258(4) 0.5420(8) 0.0349(5)
Zn6 Zn 0.58899(4) 0.47716(5) 0.03564(5)
N19 N 0.4666(3) 0.5753(4) 0.0495(3)
N22 N 0.3323(3) 0.4765(5) 0.0078(4)
Zn1 Zn 0.500000 0.29271(7) 0.750000
Zn2 Zn 0.41101(4) 0.52284(5) 0.96436(5)
N1 N 0.4679(3) 0.4469(4) 0.9173(3)
N2 N 0.5334(3) 0.4247(4) 0.9505(3)
N3 N 0.5021(3) 0.3613(4) 0.8417(3)
N4 N 0.6104(3) 0.3370(5) 0.9122(4)
H1 H 0.641268 0.346947 0.951309
H2 H 0.618129 0.303778 0.879022
N5 N 0.3928(3) 0.4168(5) 0.8051(5)
H3 H 0.361395 0.446711 0.815758
H4 H 0.386107 0.390539 0.763261
N6 N 0.3323(3) 0.5235(5) 0.5078(4)
N7 N 0.2742(4) 0.5420(8) 0.4651(5)
N8 N 0.2344(4) 0.5717(10) 0.5167(5)
N9 N 0.3334(3) 0.5445(4) 0.5806(4)
O1 O 0.3671(2) 0.5698(4) 0.8697(3)
O2 O 0.3060(3) 0.6477(5) 0.9309(4)
O3 O 0.0545(3) 0.6942(4) 0.6606(4)
O4 O 0.0926(2) 0.7491(3) 0.7724(3)
C1 C 0.3184(4) 0.6161(5) 0.8718(5)
C2 C 0.2729(4) 0.6268(5) 0.7937(4)
C3 C 0.2906(4) 0.5968(5) 0.7281(5)
H5 H 0.331699 0.570530 0.730913
C4 C 0.2495(4) 0.6039(5) 0.6569(4)
C5 C 0.2711(4) 0.5736(6) 0.5865(5)
C6 C 0.1860(4) 0.6364(5) 0.6566(5)
H6 H 0.155313 0.636728 0.610354
C7 C 0.1664(4) 0.6683(5) 0.7219(4)
C8 C 0.0992(4) 0.7043(5) 0.7170(5)
C9 C 0.2104(3) 0.6630(5) 0.7912(4)
H7 H 0.198189 0.683897 0.836605
C10 C 0.5513(3) 0.3725(4) 0.9032(4)
C11 C 0.4521(4) 0.4110(5) 0.8536(4)
Zn3 Zn 0.58899(4) 0.52284(5) 0.53564(5)
N10 N 0.5321(3) 0.4469(4) 0.5827(3)
N11 N 0.4666(3) 0.4247(4) 0.5495(3)
N12 N 0.4979(3) 0.3613(4) 0.6583(3)
N13 N 0.3896(3) 0.3370(5) 0.5878(4)
H8 H 0.358732 0.346947 0.548691
H9 H 0.381871 0.303778 0.620978
N14 N 0.6072(3) 0.4168(5) 0.6949(5)
H10 H 0.638605 0.446711 0.684242
H11 H 0.613893 0.390539 0.736739
N15 N 0.6677(3) 0.5235(5) 0.9922(4)
N17 N 0.7656(4) 0.5717(10) 0.9833(5)
N18 N 0.6666(3) 0.5445(4) 0.9194(4)
O5 O 0.6329(2) 0.5698(4) 0.6303(3)
O6 O 0.6940(3) 0.6477(5) 0.5691(4)
O7 O 0.9455(3) 0.6942(4) 0.8394(4)
O8 O 0.9074(2) 0.7491(3) 0.7276(3)
C12 C 0.6816(4) 0.6161(5) 0.6282(5)
C13 C 0.7271(4) 0.6268(5) 0.7063(4)
C14 C 0.7094(4) 0.5968(5) 0.7719(5)
H12 H 0.668301 0.570530 0.769087
C15 C 0.7505(4) 0.6039(5) 0.8431(4)
C16 C 0.7289(4) 0.5736(6) 0.9135(5)
C17 C 0.8140(4) 0.6364(5) 0.8434(5)
H13 H 0.844687 0.636728 0.889646
C18 C 0.8336(4) 0.6683(5) 0.7781(4)
C19 C 0.9008(4) 0.7043(5) 0.7830(5)
C20 C 0.7896(3) 0.6630(5) 0.7088(4)
H14 H 0.801811 0.683897 0.663395
C21 C 0.4487(3) 0.3725(4) 0.5968(4)
C22 C 0.5479(4) 0.4110(5) 0.6464(4)
Zn5_2 Zn 1.000000 0.79271(7) 0.750000
Zn7 Zn 0.41101(4) 0.47716(5) 0.46436(5)
N20 N 0.5334(3) 0.5753(4) 0.4505(3)
N21 N 0.6677(3) 0.4765(5) 0.4922(4)
O9 O 0.5926(2) 0.2491(3) 0.7724(3)
O10 O 0.4074(2) 0.2491(3) 0.7276(3)
Zn3_2 Zn 0.08899(4) 0.02284(5) 0.53564(5)
N15_2 N 0.1677(3) 0.0235(5) 0.9922(4)
N17_2 N 0.2656(4) 0.0717(10) 0.9833(5)
N18_2 N 0.1666(3) 0.0445(4) 0.9194(4)
O5_2 O 0.1329(2) 0.0698(4) 0.6303(3)
O6_2 O 0.1940(3) 0.1477(5) 0.5691(4)
O7_2 O 0.4455(3) 0.1942(4) 0.8394(4)
C12_2 C 0.1816(4) 0.1161(5) 0.6282(5)
C13_2 C 0.2271(4) 0.1268(5) 0.7063(4)
C14_2 C 0.2094(4) 0.0968(5) 0.7719(5)
H12_2 H 0.168301 0.070530 0.769087
C15_2 C 0.2505(4) 0.1039(5) 0.8431(4)
C16_2 C 0.2289(4) 0.0736(6) 0.9135(5)
C17_2 C 0.3140(4) 0.1364(5) 0.8434(5)
H13_2 H 0.344687 0.136728 0.889646
C18_2 C 0.3336(4) 0.1683(5) 0.7781(4)
C19_2 C 0.4008(4) 0.2043(5) 0.7830(5)
C20_2 C 0.2896(3) 0.1630(5) 0.7088(4)
H14_2 H 0.301811 0.183897 0.663395
N20_2 N 0.0334(3) 0.0753(4) 0.4505(3)
Zn6_2 Zn 0.08899(4) 0.97716(5) 0.03564(5)
N2_2 N 0.0334(3) 0.9247(4) 0.9505(3)
N3_2 N 0.0021(3) 0.8613(4) 0.8417(3)
N4_2 N 0.1104(3) 0.8370(5) 0.9122(4)
H1_2 H 0.141268 0.846947 0.951309
H2_2 H 0.118129 0.803778 0.879022
C10_2 C 0.0513(3) 0.8725(4) 0.9032(4)
N10_2 N 0.0321(3) 0.9469(4) 0.5827(3)
N14_2 N 0.1072(3) 0.9168(5) 0.6949(5)
H10_2 H 0.138605 0.946711 0.684242
H11_2 H 0.113893 0.890539 0.736739
C22_2 C 0.0479(4) 0.9110(5) 0.6464(4)
N21_2 N 0.1677(3) 0.9765(5) 0.4922(4)
N19_2 N 0.9666(3) 0.0753(4) 0.0495(3)
Zn2_2 Zn 0.91101(4) 0.02284(5) 0.96436(5)
N6_2 N 0.8323(3) 0.0235(5) 0.5078(4)
N7_2 N 0.7742(4) 0.0420(8) 0.4651(5)
N8_2 N 0.7344(4) 0.0717(10) 0.5167(5)
N9_2 N 0.8334(3) 0.0445(4) 0.5806(4)
O1_2 O 0.8671(2) 0.0698(4) 0.8697(3)
O2_2 O 0.8060(3) 0.1477(5) 0.9309(4)
O3_2 O 0.5545(3) 0.1942(4) 0.6606(4)
C1_2 C 0.8184(4) 0.1161(5) 0.8718(5)
C2_2 C 0.7729(4) 0.1268(5) 0.7937(4)
C3_2 C 0.7906(4) 0.0968(5) 0.7281(5)
H5_2 H 0.831699 0.070530 0.730913
C4_2 C 0.7495(4) 0.1039(5) 0.6569(4)
C5_2 C 0.7711(4) 0.0736(6) 0.5865(5)
C6_2 C 0.6860(4) 0.1364(5) 0.6566(5)
H6_2 H 0.655313 0.136728 0.610354
C7_2 C 0.6664(4) 0.1683(5) 0.7219(4)
C8_2 C 0.5992(4) 0.2043(5) 0.7170(5)
C9_2 C 0.7104(3) 0.1630(5) 0.7912(4)
H7_2 H 0.698189 0.183897 0.836605
N22_2 N 0.8323(3) 0.9765(5) 0.0078(4)
N1_2 N 0.9679(3) 0.9469(4) 0.9173(3)
N5_2 N 0.8928(3) 0.9168(5) 0.8051(5)
H3_2 H 0.861395 0.946711 0.815758
H4_2 H 0.886107 0.890539 0.763261
C11_2 C 0.9521(4) 0.9110(5) 0.8536(4)
N11_2 N 0.9666(3) 0.9247(4) 0.5495(3)
N12_2 N 0.9979(3) 0.8613(4) 0.6583(3)
N13_2 N 0.8896(3) 0.8370(5) 0.5878(4)
H8_2 H 0.858732 0.846947 0.548691
H9_2 H 0.881871 0.803778 0.620978
C21_2 C 0.9487(3) 0.8725(4) 0.5968(4)
Zn7_2 Zn 0.91101(4) 0.97716(5) 0.46436(5)
Zn4 Zn -0.000000 0.20729(7) 0.250000
Zn1_2 Zn 0.500000 0.70729(7) 0.250000
N1_3 N 0.5321(3) 0.5531(4) 0.0827(3)
N3_3 N 0.4979(3) 0.6387(4) 0.1583(3)
N4_3 N 0.3896(3) 0.6630(5) 0.0878(4)
H1_3 H 0.358732 0.653053 0.048691
H2_3 H 0.381871 0.696222 0.120978
N5_3 N 0.6072(3) 0.5832(5) 0.1949(5)
H3_3 H 0.638605 0.553289 0.184242
H4_3 H 0.613893 0.609461 0.236739
N7_3 N 0.7258(4) 0.4580(8) 0.5349(5)
N8_3 N 0.7656(4) 0.4283(10) 0.4833(5)
N9_3 N 0.6666(3) 0.4555(4) 0.4194(4)
O1_3 O 0.6329(2) 0.4302(4) 0.1303(3)
O2_3 O 0.6940(3) 0.3523(5) 0.0691(4)
O3_3 O 0.9455(3) 0.3058(4) 0.3394(4)
O4_2 O 0.9074(2) 0.2509(3) 0.2276(3)
C1_3 C 0.6816(4) 0.3839(5) 0.1282(5)
C2_3 C 0.7271(4) 0.3732(5) 0.2063(4)
C3_3 C 0.7094(4) 0.4032(5) 0.2719(5)
H5_3 H 0.668301 0.429470 0.269087
C4_3 C 0.7505(4) 0.3961(5) 0.3431(4)
C5_3 C 0.7289(4) 0.4264(6) 0.4135(5)
C6_3 C 0.8140(4) 0.3636(5) 0.3434(5)
H6_3 H 0.844687 0.363272 0.389646
C7_3 C 0.8336(4) 0.3317(5) 0.2781(4)
C8_3 C 0.9008(4) 0.2957(5) 0.2830(5)
C9_3 C 0.7896(3) 0.3370(5) 0.2088(4)
H7_3 H 0.801811 0.316103 0.163395
C10_3 C 0.4487(3) 0.6275(4) 0.0968(4)
C11_3 C 0.5479(4) 0.5890(5) 0.1464(4)
N10_3 N 0.4679(3) 0.5531(4) 0.4173(3)
N12_3 N 0.5021(3) 0.6387(4) 0.3417(3)
N13_3 N 0.6104(3) 0.6630(5) 0.4122(4)
H8_3 H 0.641268 0.653053 0.451309
H9_3 H 0.618129 0.696222 0.379022
N14_3 N 0.3928(3) 0.5832(5) 0.3051(5)
H10_3 H 0.361395 0.553289 0.315758
H11_3 H 0.386107 0.609461 0.263261
N17_3 N 0.2344(4) 0.4283(10) 0.0167(5)
N18_3 N 0.3334(3) 0.4555(4) 0.0806(4)
O5_3 O 0.3671(2) 0.4302(4) 0.3697(3)
O6_3 O 0.3060(3) 0.3523(5) 0.4309(4)
O7_3 O 0.0545(3) 0.3058(4) 0.1606(4)
O8_2 O 0.0926(2) 0.2509(3) 0.2724(3)
C12_3 C 0.3184(4) 0.3839(5) 0.3718(5)
C13_3 C 0.2729(4) 0.3732(5) 0.2937(4)
C14_3 C 0.2906(4) 0.4032(5) 0.2281(5)
H12_3 H 0.331699 0.429470 0.230913
C15_3 C 0.2495(4) 0.3961(5) 0.1569(4)
C16_3 C 0.2711(4) 0.4264(6) 0.0865(5)
C17_3 C 0.1860(4) 0.3636(5) 0.1566(5)
H13_3 H 0.155313 0.363272 0.110354
C18_3 C 0.1664(4) 0.3317(5) 0.2219(4)
C19_3 C 0.0992(4) 0.2957(5) 0.2170(5)
C20_3 C 0.2104(3) 0.3370(5) 0.2912(4)
H14_3 H 0.198189 0.316103 0.336605
C21_3 C 0.5513(3) 0.6275(4) 0.4032(4)
C22_3 C 0.4521(4) 0.5890(5) 0.3536(4)
Zn4_2 Zn 1.000000 0.20729(7) 0.250000
O9_2 O 0.4074(2) 0.7509(3) 0.2276(3)
O10_2 O 0.5926(2) 0.7509(3) 0.2724(3)
N16_2 N 0.2742(4) 0.4580(8) 0.9651(5)
N1_4 N 0.0321(3) 0.0531(4) 0.0827(3)
N5_4 N 0.1072(3) 0.0832(5) 0.1949(5)
H3_4 H 0.138605 0.053289 0.184242
H4_4 H 0.113893 0.109461 0.236739
C11_4 C 0.0479(4) 0.0890(5) 0.1464(4)
N12_4 N 0.0021(3) 0.1387(4) 0.3417(3)
N13_4 N 0.1104(3) 0.1630(5) 0.4122(4)
H8_4 H 0.141268 0.153053 0.451309
H9_4 H 0.118129 0.196222 0.379022
C21_4 C 0.0513(3) 0.1275(4) 0.4032(4)
N7_4 N 0.2258(4) 0.9580(8) 0.5349(5)
N8_4 N 0.2656(4) 0.9283(10) 0.4833(5)
N9_4 N 0.1666(3) 0.9555(4) 0.4194(4)
O1_4 O 0.1329(2) 0.9302(4) 0.1303(3)
O2_4 O 0.1940(3) 0.8523(5) 0.0691(4)
O3_4 O 0.4455(3) 0.8058(4) 0.3394(4)
C1_4 C 0.1816(4) 0.8839(5) 0.1282(5)
C2_4 C 0.2271(4) 0.8732(5) 0.2063(4)
C3_4 C 0.2094(4) 0.9032(5) 0.2719(5)
H5_4 H 0.168301 0.929470 0.269087
C4_4 C 0.2505(4) 0.8961(5) 0.3431(4)
C5_4 C 0.2289(4) 0.9264(6) 0.4135(5)
C6_4 C 0.3140(4) 0.8636(5) 0.3434(5)
H6_4 H 0.344687 0.863272 0.389646
C7_4 C 0.3336(4) 0.8317(5) 0.2781(4)
C8_4 C 0.4008(4) 0.7957(5) 0.2830(5)
C9_4 C 0.2896(3) 0.8370(5) 0.2088(4)
H7_4 H 0.301811 0.816103 0.163395
N3_4 N 0.9979(3) 0.1387(4) 0.1583(3)
N4_4 N 0.8896(3) 0.1630(5) 0.0878(4)
H1_4 H 0.858732 0.153053 0.048691
H2_4 H 0.881871 0.196222 0.120978
C10_4 C 0.9487(3) 0.1275(4) 0.0968(4)
N10_4 N 0.9679(3) 0.0531(4) 0.4173(3)
N14_4 N 0.8928(3) 0.0832(5) 0.3051(5)
H10_4 H 0.861395 0.053289 0.315758
H11_4 H 0.886107 0.109461 0.263261
C22_4 C 0.9521(4) 0.0890(5) 0.3536(4)
N17_4 N 0.7344(4) 0.9283(10) 0.0167(5)
N18_4 N 0.8334(3) 0.9555(4) 0.0806(4)
O5_4 O 0.8671(2) 0.9302(4) 0.3697(3)
O6_4 O 0.8060(3) 0.8523(5) 0.4309(4)
O7_4 O 0.5545(3) 0.8058(4) 0.1606(4)
C12_4 C 0.8184(4) 0.8839(5) 0.3718(5)
C13_4 C 0.7729(4) 0.8732(5) 0.2937(4)
C14_4 C 0.7906(4) 0.9032(5) 0.2281(5)
H12_4 H 0.831699 0.929470 0.230913
C15_4 C 0.7495(4) 0.8961(5) 0.1569(4)
C16_4 C 0.7711(4) 0.9264(6) 0.0865(5)
C17_4 C 0.6860(4) 0.8636(5) 0.1566(5)
H13_4 H 0.655313 0.863272 0.110354
C18_4 C 0.6664(4) 0.8317(5) 0.2219(4)
C19_4 C 0.5992(4) 0.7957(5) 0.2170(5)
C20_4 C 0.7104(3) 0.8370(5) 0.2912(4)
H14_4 H 0.698189 0.816103 0.336605
N16_3 N 0.2258(4) 0.0420(8) 0.0349(5)
N16_4 N 0.7742(4) 0.9580(8) 0.9651(5)
O11 O 0.2049(11) 0.557(3) 0.3050(12)
O11_2 O 0.7951(11) 0.557(3) 0.1950(12)
O11_3 O 0.7049(11) 0.057(3) 0.3050(12)
O11_4 O 0.2951(11) 0.057(3) 0.1950(12)
O11_5 O 0.7951(11) 0.443(3) 0.6950(12)
O11_6 O 0.2049(11) 0.443(3) 0.8050(12)
O11_7 O 0.2951(11) 0.943(3) 0.6950(12)
O11_8 O 0.7049(11) 0.943(3) 0.8050(12)
loop_
_geom_bond_atom_site_label_1
_geom_bond_atom_site_label_2
_geom_bond_site_symmetry_1
_geom_bond_site_symmetry_2
Zn1 N3 1_555 1_555
Zn2 N1 1_555 1_555
N1 N2 1_555 1_555
N2 C10 1_555 1_555
N3 C10 1_555 1_555
N4 H1 1_555 1_555
H2 N4 1_555 1_555
N5 H3 1_555 1_555
H4 N5 1_555 1_555
N6 N7 1_555 1_555
N7 N8 1_555 1_555
N8 C5 1_555 1_555
N9 N6 1_555 1_555
O1 Zn2 1_555 1_555
O2 C1 1_555 1_555
O3 C8 1_555 1_555
O4 C8 1_555 1_555
C1 O1 1_555 1_555
C2 C1 1_555 1_555
C3 C2 1_555 1_555
H5 C3 1_555 1_555
C4 C3 1_555 1_555
C5 N9 1_555 1_555
C6 C4 1_555 1_555
H6 C6 1_555 1_555
C7 C6 1_555 1_555
C8 C7 1_555 1_555
C9 C2 1_555 1_555
H7 C9 1_555 1_555
C10 N4 1_555 1_555
C11 N1 1_555 1_555
Zn3 N10 1_555 1_555
N10 N11 1_555 1_555
N11 C21 1_555 1_555
N12 Zn1 1_555 1_555
N13 H8 1_555 1_555
H9 N13 1_555 1_555
N14 H10 1_555 1_555
H11 N14 1_555 1_555
N17 C16 1_555 1_555
N18 N15 1_555 1_555
O5 Zn3 1_555 1_555
O6 C12 1_555 1_555
O7 C19 1_555 1_555
O8 C19 1_555 1_555
C12 O5 1_555 1_555
C13 C12 1_555 1_555
C14 C13 1_555 1_555
H12 C14 1_555 1_555
C15 C14 1_555 1_555
C16 N18 1_555 1_555
C17 C15 1_555 1_555
H13 C17 1_555 1_555
C18 C17 1_555 1_555
C19 C18 1_555 1_555
C20 C13 1_555 1_555
H14 C20 1_555 1_555
C21 N12 1_555 1_555
C22 N10 1_555 1_555
Zn5 O4 1_555 1_555
Zn5_2 O8 1_555 1_555
Zn7 N6 1_555 1_555
N20 Zn3 1_555 1_555
N21 Zn3 1_555 1_555
O9 Zn1 1_555 1_555
O10 Zn1 1_555 1_555
N3 C11 1_555 1_555
N5 C11 1_555 1_555
C4 C5 1_555 1_555
C7 C9 1_555 1_555
N11 Zn7 1_555 1_555
N12 C22 1_555 1_555
N13 C21 1_555 1_555
N14 C22 1_555 1_555
C15 C16 1_555 1_555
C18 C20 1_555 1_555
N17_2 C16_2 1_555 1_555
N18_2 N15_2 1_555 1_555
O5_2 Zn3_2 1_555 1_555
O6_2 C12_2 1_555 1_555
O7_2 C19_2 1_555 1_555
O10 C19_2 1_555 1_555
C12_2 O5_2 1_555 1_555
C13_2 C12_2 1_555 1_555
C14_2 C13_2 1_555 1_555
H12_2 C14_2 1_555 1_555
C15_2 C14_2 1_555 1_555
C16_2 N18_2 1_555 1_555
C17_2 C15_2 1_555 1_555
H13_2 C17_2 1_555 1_555
C18_2 C17_2 1_555 1_555
C19_2 C18_2 1_555 1_555
C20_2 C13_2 1_555 1_555
H14_2 C20_2 1_555 1_555
N20_2 Zn3_2 1_555 1_555
C15_2 C16_2 1_555 1_555
C18_2 C20_2 1_555 1_555
Zn5 N3_2 1_555 1_555
N2_2 C10_2 1_555 1_555
N3_2 C10_2 1_555 1_555
N4_2 H1_2 1_555 1_555
H2_2 N4_2 1_555 1_555
C10_2 N4_2 1_555 1_555
N14_2 H10_2 1_555 1_555
H11_2 N14_2 1_555 1_555
C22_2 N10_2 1_555 1_555
N14_2 C22_2 1_555 1_555
N6_2 N7_2 1_555 1_555
N7_2 N8_2 1_555 1_555
N8_2 C5_2 1_555 1_555
N9_2 N6_2 1_555 1_555
O1_2 Zn2_2 1_555 1_555
O2_2 C1_2 1_555 1_555
O3_2 C8_2 1_555 1_555
O9 C8_2 1_555 1_555
C1_2 O1_2 1_555 1_555
C2_2 C1_2 1_555 1_555
C3_2 C2_2 1_555 1_555
H5_2 C3_2 1_555 1_555
C4_2 C3_2 1_555 1_555
C5_2 N9_2 1_555 1_555
C6_2 C4_2 1_555 1_555
H6_2 C6_2 1_555 1_555
C7_2 C6_2 1_555 1_555
C8_2 C7_2 1_555 1_555
C9_2 C2_2 1_555 1_555
H7_2 C9_2 1_555 1_555
C4_2 C5_2 1_555 1_555
C7_2 C9_2 1_555 1_555
N5_2 H3_2 1_555 1_555
H4_2 N5_2 1_555 1_555
C11_2 N1_2 1_555 1_555
N11_2 C21_2 1_555 1_555
N12_2 Zn5_2 1_555 1_555
N13_2 H8_2 1_555 1_555
H9_2 N13_2 1_555 1_555
C21_2 N12_2 1_555 1_555
N5_2 C11_2 1_555 1_555
N11_2 Zn7_2 1_555 1_555
N13_2 C21_2 1_555 1_555
Zn1_2 N3_3 1_555 1_555
Zn6 N1_3 1_555 1_555
N1_3 N19 1_555 1_555
N19 C10_3 1_555 1_555
N3_3 C10_3 1_555 1_555
N4_3 H1_3 1_555 1_555
H2_3 N4_3 1_555 1_555
N5_3 H3_3 1_555 1_555
H4_3 N5_3 1_555 1_555
N21 N7_3 1_555 1_555
N7_3 N8_3 1_555 1_555
N8_3 C5_3 1_555 1_555
N9_3 N21 1_555 1_555
O1_3 Zn6 1_555 1_555
O2_3 C1_3 1_555 1_555
O3_3 C8_3 1_555 1_555
O4_2 C8_3 1_555 1_555
C1_3 O1_3 1_555 1_555
C2_3 C1_3 1_555 1_555
C3_3 C2_3 1_555 1_555
H5_3 C3_3 1_555 1_555
C4_3 C3_3 1_555 1_555
C5_3 N9_3 1_555 1_555
C6_3 C4_3 1_555 1_555
H6_3 C6_3 1_555 1_555
C7_3 C6_3 1_555 1_555
C8_3 C7_3 1_555 1_555
C9_3 C2_3 1_555 1_555
H7_3 C9_3 1_555 1_555
C10_3 N4_3 1_555 1_555
C11_3 N1_3 1_555 1_555
Zn7 N10_3 1_555 1_555
N10_3 N20 1_555 1_555
N20 C21_3 1_555 1_555
N12_3 Zn1_2 1_555 1_555
N13_3 H8_3 1_555 1_555
H9_3 N13_3 1_555 1_555
N14_3 H10_3 1_555 1_555
H11_3 N14_3 1_555 1_555
N17_3 C16_3 1_555 1_555
N18_3 N22 1_555 1_555
O5_3 Zn7 1_555 1_555
O6_3 C12_3 1_555 1_555
O7_3 C19_3 1_555 1_555
O8_2 C19_3 1_555 1_555
C12_3 O5_3 1_555 1_555
C13_3 C12_3 1_555 1_555
C14_3 C13_3 1_555 1_555
H12_3 C14_3 1_555 1_555
C15_3 C14_3 1_555 1_555
C16_3 N18_3 1_555 1_555
C17_3 C15_3 1_555 1_555
H13_3 C17_3 1_555 1_555
C18_3 C17_3 1_555 1_555
C19_3 C18_3 1_555 1_555
C20_3 C13_3 1_555 1_555
H14_3 C20_3 1_555 1_555
C21_3 N12_3 1_555 1_555
C22_3 N10_3 1_555 1_555
Zn4_2 O4_2 1_555 1_555
Zn4 O8_2 1_555 1_555
O9_2 Zn1_2 1_555 1_555
O10_2 Zn1_2 1_555 1_555
N3_3 C11_3 1_555 1_555
N5_3 C11_3 1_555 1_555
C4_3 C5_3 1_555 1_555
C7_3 C9_3 1_555 1_555
N12_3 C22_3 1_555 1_555
N13_3 C21_3 1_555 1_555
N14_3 C22_3 1_555 1_555
C15_3 C16_3 1_555 1_555
C18_3 C20_3 1_555 1_555
N5_4 H3_4 1_555 1_555
H4_4 N5_4 1_555 1_555
C11_4 N1_4 1_555 1_555
N20_2 C21_4 1_555 1_555
N12_4 Zn4 1_555 1_555
N13_4 H8_4 1_555 1_555
H9_4 N13_4 1_555 1_555
C21_4 N12_4 1_555 1_555
N5_4 C11_4 1_555 1_555
N13_4 C21_4 1_555 1_555
N21_2 N7_4 1_555 1_555
N7_4 N8_4 1_555 1_555
N8_4 C5_4 1_555 1_555
N9_4 N21_2 1_555 1_555
O1_4 Zn6_2 1_555 1_555
O2_4 C1_4 1_555 1_555
O3_4 C8_4 1_555 1_555
O9_2 C8_4 1_555 1_555
C1_4 O1_4 1_555 1_555
C2_4 C1_4 1_555 1_555
C3_4 C2_4 1_555 1_555
H5_4 C3_4 1_555 1_555
C4_4 C3_4 1_555 1_555
C5_4 N9_4 1_555 1_555
C6_4 C4_4 1_555 1_555
H6_4 C6_4 1_555 1_555
C7_4 C6_4 1_555 1_555
C8_4 C7_4 1_555 1_555
C9_4 C2_4 1_555 1_555
H7_4 C9_4 1_555 1_555
C4_4 C5_4 1_555 1_555
C7_4 C9_4 1_555 1_555
Zn4_2 N3_4 1_555 1_555
N19_2 C10_4 1_555 1_555
N3_4 C10_4 1_555 1_555
N4_4 H1_4 1_555 1_555
H2_4 N4_4 1_555 1_555
C10_4 N4_4 1_555 1_555
N14_4 H10_4 1_555 1_555
H11_4 N14_4 1_555 1_555
C22_4 N10_4 1_555 1_555
N14_4 C22_4 1_555 1_555
N17_4 C16_4 1_555 1_555
N18_4 N22_2 1_555 1_555
O5_4 Zn7_2 1_555 1_555
O6_4 C12_4 1_555 1_555
O7_4 C19_4 1_555 1_555
O10_2 C19_4 1_555 1_555
C12_4 O5_4 1_555 1_555
C13_4 C12_4 1_555 1_555
C14_4 C13_4 1_555 1_555
H12_4 C14_4 1_555 1_555
C15_4 C14_4 1_555 1_555
C16_4 N18_4 1_555 1_555
C17_4 C15_4 1_555 1_555
H13_4 C17_4 1_555 1_555
C18_4 C17_4 1_555 1_555
C19_4 C18_4 1_555 1_555
C20_4 C13_4 1_555 1_555
H14_4 C20_4 1_555 1_555
C15_4 C16_4 1_555 1_555
C18_4 C20_4 1_555 1_555

#END
