
###############################################################################
#
# This file contains modified crystal structure data generated from the
# MOF subset of the Cambridge Structural Database (CSD) v543 
# hosted by the Cambridge Crystallographic Data Centre (CCDC).
#
# This work is licensed under the Creative Commons
# Attribution-NonCommercial-ShareAlike 4.0 International License.
# To view a copy of this license, visit
# http://creativecommons.org/licenses/by-nc-sa/4.0/
# or send a letter to
# Creative Commons, PO Box 1866, Mountain View, CA 94042, USA.
#
# CIF created using the CSD Python API on 29 September 2022
# The structure has been converted into the P1 space group
# The structure has a 3D framework
# The original CSD entry QALXUA01 is in the orthorhombic crystal system
# The framework has been calculated to contain at least 10.0% void space
# The void calculation uses a probe of radius 1.32A, grid spacing 0.4
# The framework is charged, counterions have been retained in the structure
#
###############################################################################

data_QALXUA01
_chemical_formula_moiety         '(C104 H72 N60 O32 Zn11 8-)n'
_symmetry_cell_setting           triclinic
_symmetry_space_group_name_H-M   'P 1'
_symmetry_Int_Tables_number      1
_space_group_name_Hall           'P 1'
loop_
_symmetry_equiv_pos_site_id
_symmetry_equiv_pos_as_xyz
1 x,y,z
_cell_length_a                   12.042(2)
_cell_length_b                   23.990(4)
_cell_length_c                   18.036(3)
_cell_angle_alpha                90
_cell_angle_beta                 90
_cell_angle_gamma                90
_cell_volume                     5210.38
loop_
_atom_site_label
_atom_site_type_symbol
_atom_site_fract_x
_atom_site_fract_y
_atom_site_fract_z
Zn6 Zn 0.000000 0.64844(4) 0.50076(10)
Zn2 Zn 0.34577(6) 0.00012(5) 0.75053(10)
C10 C 0.4101(9) 0.0776(4) 0.6278(5)
C11 C 0.2971(9) 0.0881(5) 0.6061(6)
H4 H 0.296110 0.112144 0.563646
H5 H 0.261532 0.053418 0.593983
H6 H 0.258098 0.105565 0.646313
N5 N 0.4415(7) 0.0460(3) 0.6844(4)
N6 N 0.500000 0.0949(5) 0.5872(7)
C14 C 0.5899(9) 0.0776(4) 0.6278(5)
C15 C 0.7029(9) 0.0881(5) 0.6061(6)
H10 H 0.703890 0.112144 0.563646
H11 H 0.738468 0.053418 0.593983
H12 H 0.741902 0.105565 0.646313
N9 N 0.5585(7) 0.0460(3) 0.6844(4)
Zn3 Zn 0.65423(6) 0.00012(5) 0.75053(10)
Zn4 Zn 0.500000 0.14844(4) 0.50076(10)
N15 N 0.7438(8) 0.0499(3) 0.8095(4)
N16 N 0.2562(8) 0.0499(3) 0.8095(4)
Zn1 Zn 0.500000 0.85156(4) 0.00076(10)
N17 N 0.500000 0.9051(5) 0.0872(7)
O9 O 0.3791(5) 0.79656(18) 0.0018(5)
O10 O 0.6209(5) 0.79656(18) 0.0018(5)
C1 C 0.2084(8) 0.8816(3) 0.6035(4)
C2 C 0.1777(7) 0.8262(3) 0.6115(4)
H1 H 0.171856 0.810670 0.658557
C3 C 0.1556(6) 0.7941(3) 0.5494(4)
C4 C 0.1642(6) 0.8173(3) 0.4794(4)
H2 H 0.149318 0.795783 0.437676
C5 C 0.1949(6) 0.8726(3) 0.4714(4)
C6 C 0.2170(7) 0.9047(3) 0.5334(4)
H3 H 0.237614 0.941887 0.528058
C7 C 0.2354(9) 0.9134(5) 0.6723(6)
C8 C 0.1179(11) 0.7334(4) 0.5568(6)
C9 C 0.2054(8) 0.8925(5) 0.3963(5)
C12 C 0.4127(10) 0.9227(5) 0.8756(6)
C13 C 0.2909(10) 0.9141(5) 0.8965(6)
H7 H 0.286449 0.891104 0.940015
H8 H 0.256967 0.949509 0.906365
H9 H 0.252749 0.896120 0.856325
N1 N 0.1610(10) 0.8771(4) 0.3365(5)
N2 N 0.1932(9) 0.9099(4) 0.2812(4)
N3 N 0.2562(8) 0.9501(3) 0.3095(4)
N4 N 0.2629(7) 0.9422(3) 0.3822(5)
N7 N 0.4448(8) 0.9529(3) 0.8173(4)
N8 N 0.500000 0.8995(4) 0.9101(5)
O1 O 0.2777(8) 0.9615(3) 0.6651(5)
O2 O 0.2143(12) 0.8959(4) 0.7323(4)
O3 O 0.1209(5) 0.70344(18) 0.5018(5)
O4 O 0.0845(9) 0.7173(3) 0.6191(4)
C16 C 0.5873(10) 0.9227(5) 0.8756(6)
C17 C 0.7091(10) 0.9141(5) 0.8965(6)
H13 H 0.713551 0.891104 0.940015
H14 H 0.743033 0.949509 0.906365
H15 H 0.747251 0.896120 0.856325
N10 N 0.5552(8) 0.9529(3) 0.8173(4)
C18 C 0.7916(8) 0.8816(3) 0.6035(4)
C19 C 0.8223(7) 0.8262(3) 0.6115(4)
H16 H 0.828144 0.810670 0.658557
C20 C 0.8444(6) 0.7941(3) 0.5494(4)
C21 C 0.8358(6) 0.8173(3) 0.4794(4)
H17 H 0.850682 0.795783 0.437676
C22 C 0.8051(6) 0.8726(3) 0.4714(4)
C23 C 0.7830(7) 0.9047(3) 0.5334(4)
H18 H 0.762386 0.941887 0.528058
C24 C 0.7646(9) 0.9134(5) 0.6723(6)
C25 C 0.8821(11) 0.7334(4) 0.5568(6)
C26 C 0.7946(8) 0.8925(5) 0.3963(5)
N11 N 0.8390(10) 0.8771(4) 0.3365(5)
N12 N 0.8068(9) 0.9099(4) 0.2812(4)
N13 N 0.7438(8) 0.9501(3) 0.3095(4)
N14 N 0.7371(7) 0.9422(3) 0.3822(5)
O5 O 0.7223(8) 0.9615(3) 0.6651(5)
O6 O 0.7857(12) 0.8959(4) 0.7323(4)
O7 O 0.8791(5) 0.70344(18) 0.5018(5)
O8 O 0.9155(9) 0.7173(3) 0.6191(4)
Zn6_2 Zn 1.000000 0.64844(4) 0.50076(10)
Zn7 Zn 0.65423(6) 0.99988(5) 0.25053(10)
Zn8 Zn 0.34577(6) 0.99988(5) 0.25053(10)
Zn5 Zn -0.000000 0.35156(4) 0.00076(10)
C1_2 C 0.7916(8) 0.1184(3) 0.1035(4)
C2_2 C 0.8223(7) 0.1738(3) 0.1115(4)
H1_2 H 0.828144 0.189330 0.158557
C3_2 C 0.8444(6) 0.2059(3) 0.0494(4)
C6_2 C 0.7830(7) 0.0953(3) 0.0334(4)
H3_2 H 0.762386 0.058113 0.028058
C7_2 C 0.7646(9) 0.0866(5) 0.1723(6)
C8_2 C 0.8821(11) 0.2666(4) 0.0568(6)
C12_2 C 0.5873(10) 0.0773(5) 0.3756(6)
C13_2 C 0.7091(10) 0.0859(5) 0.3965(6)
H7_2 H 0.713551 0.108896 0.440015
H8_2 H 0.743033 0.050491 0.406365
H9_2 H 0.747251 0.103880 0.356325
N7_2 N 0.5552(8) 0.0471(3) 0.3173(4)
N8_2 N 0.500000 0.1005(4) 0.4101(5)
O1_2 O 0.7223(8) 0.0385(3) 0.1651(5)
O2_2 O 0.7857(12) 0.1041(4) 0.2323(4)
O3_2 O 0.8791(5) 0.29656(18) 0.0018(5)
O4_2 O 0.9155(9) 0.2827(3) 0.1191(4)
C16_2 C 0.4127(10) 0.0773(5) 0.3756(6)
C17_2 C 0.2909(10) 0.0859(5) 0.3965(6)
H13_2 H 0.286449 0.108896 0.440015
H14_2 H 0.256967 0.050491 0.406365
H15_2 H 0.252749 0.103880 0.356325
N10_2 N 0.4448(8) 0.0471(3) 0.3173(4)
C18_2 C 0.2084(8) 0.1184(3) 0.1035(4)
C19_2 C 0.1777(7) 0.1738(3) 0.1115(4)
H16_2 H 0.171856 0.189330 0.158557
C20_2 C 0.1556(6) 0.2059(3) 0.0494(4)
C23_2 C 0.2170(7) 0.0953(3) 0.0334(4)
H18_2 H 0.237614 0.058113 0.028058
C24_2 C 0.2354(9) 0.0866(5) 0.1723(6)
C25_2 C 0.1179(11) 0.2666(4) 0.0568(6)
O5_2 O 0.2777(8) 0.0385(3) 0.1651(5)
O6_2 O 0.2143(12) 0.1041(4) 0.2323(4)
O7_2 O 0.1209(5) 0.29656(18) 0.0018(5)
O8_2 O 0.0845(9) 0.2827(3) 0.1191(4)
Zn5_2 Zn 1.000000 0.35156(4) 0.00076(10)
O9_2 O 0.6209(5) 0.20344(18) 0.5018(5)
O10_2 O 0.3791(5) 0.20344(18) 0.5018(5)
C4_2 C 0.8358(6) 0.1827(3) 0.9794(4)
H2_2 H 0.850682 0.204217 0.937676
C5_2 C 0.8051(6) 0.1274(3) 0.9714(4)
C9_2 C 0.7946(8) 0.1075(5) 0.8963(5)
N1_2 N 0.8390(10) 0.1229(4) 0.8365(5)
N2_2 N 0.8068(9) 0.0901(4) 0.7812(4)
N4_2 N 0.7371(7) 0.0578(3) 0.8822(5)
C21_2 C 0.1642(6) 0.1827(3) 0.9794(4)
H17_2 H 0.149318 0.204217 0.937676
C22_2 C 0.1949(6) 0.1274(3) 0.9714(4)
C26_2 C 0.2054(8) 0.1075(5) 0.8963(5)
N11_2 N 0.1610(10) 0.1229(4) 0.8365(5)
N12_2 N 0.1932(9) 0.0901(4) 0.7812(4)
N14_2 N 0.2629(7) 0.0578(3) 0.8822(5)
C10_2 C 0.5899(9) 0.9224(4) 0.1278(5)
C11_2 C 0.7029(9) 0.9119(5) 0.1061(6)
H4_2 H 0.703890 0.887856 0.063646
H5_2 H 0.738468 0.946582 0.093983
H6_2 H 0.741902 0.894435 0.146313
N5_2 N 0.5585(7) 0.9540(3) 0.1844(4)
C14_2 C 0.4101(9) 0.9224(4) 0.1278(5)
C15_2 C 0.2971(9) 0.9119(5) 0.1061(6)
H10_2 H 0.296110 0.887856 0.063646
H11_2 H 0.261532 0.946582 0.093983
H12_2 H 0.258098 0.894435 0.146313
N9_2 N 0.4415(7) 0.9540(3) 0.1844(4)
N17_2 N 0.000000 0.4051(5) 0.0872(7)
N6_2 N 0.000000 0.5949(5) 0.5872(7)
N8_3 N 0.000000 0.3995(4) 0.9101(5)
C14_3 C 0.0899(9) 0.5776(4) 0.6278(5)
C15_3 C 0.2029(9) 0.5881(5) 0.6061(6)
H10_3 H 0.203890 0.612144 0.563646
H11_3 H 0.238468 0.553418 0.593983
H12_3 H 0.241902 0.605565 0.646313
N9_3 N 0.0585(7) 0.5460(3) 0.6844(4)
C16_3 C 0.0873(10) 0.4227(5) 0.8756(6)
C17_3 C 0.2091(10) 0.4141(5) 0.8965(6)
H13_3 H 0.213551 0.391104 0.940015
H14_3 H 0.243033 0.449509 0.906365
H15_3 H 0.247251 0.396120 0.856325
N10_3 N 0.0552(8) 0.4529(3) 0.8173(4)
Zn3_2 Zn 0.15423(6) 0.50012(5) 0.75053(10)
C18_3 C 0.2916(8) 0.3816(3) 0.6035(4)
C19_3 C 0.3223(7) 0.3262(3) 0.6115(4)
H16_3 H 0.328144 0.310670 0.658557
C20_3 C 0.3444(6) 0.2941(3) 0.5494(4)
C21_3 C 0.3358(6) 0.3173(3) 0.4794(4)
H17_3 H 0.350682 0.295783 0.437676
C22_3 C 0.3051(6) 0.3726(3) 0.4714(4)
C23_3 C 0.2830(7) 0.4047(3) 0.5334(4)
H18_3 H 0.262386 0.441887 0.528058
C24_3 C 0.2646(9) 0.4134(5) 0.6723(6)
C25_3 C 0.3821(11) 0.2334(4) 0.5568(6)
C26_3 C 0.2946(8) 0.3925(5) 0.3963(5)
N11_3 N 0.3390(10) 0.3771(4) 0.3365(5)
N12_3 N 0.3068(9) 0.4099(4) 0.2812(4)
N13_2 N 0.2438(8) 0.4501(3) 0.3095(4)
N14_3 N 0.2371(7) 0.4422(3) 0.3822(5)
O5_3 O 0.2223(8) 0.4615(3) 0.6651(5)
O6_3 O 0.2857(12) 0.3959(4) 0.7323(4)
O8_3 O 0.4155(9) 0.2173(3) 0.6191(4)
Zn7_2 Zn 0.15423(6) 0.49988(5) 0.25053(10)
N15_2 N 0.2438(8) 0.5499(3) 0.8095(4)
N17_3 N 1.000000 0.4051(5) 0.0872(7)
Zn2_2 Zn 0.84577(6) 0.50012(5) 0.75053(10)
C1_3 C 0.7084(8) 0.3816(3) 0.6035(4)
C2_3 C 0.6777(7) 0.3262(3) 0.6115(4)
H1_3 H 0.671856 0.310670 0.658557
C3_3 C 0.6556(6) 0.2941(3) 0.5494(4)
C4_3 C 0.6642(6) 0.3173(3) 0.4794(4)
H2_3 H 0.649318 0.295783 0.437676
C5_3 C 0.6949(6) 0.3726(3) 0.4714(4)
C6_3 C 0.7170(7) 0.4047(3) 0.5334(4)
H3_3 H 0.737614 0.441887 0.528058
C7_3 C 0.7354(9) 0.4134(5) 0.6723(6)
C8_3 C 0.6179(11) 0.2334(4) 0.5568(6)
C9_3 C 0.7054(8) 0.3925(5) 0.3963(5)
C10_3 C 0.9101(9) 0.5776(4) 0.6278(5)
C11_3 C 0.7971(9) 0.5881(5) 0.6061(6)
H4_3 H 0.796110 0.612144 0.563646
H5_3 H 0.761532 0.553418 0.593983
H6_3 H 0.758098 0.605565 0.646313
C12_3 C 0.9127(10) 0.4227(5) 0.8756(6)
C13_3 C 0.7909(10) 0.4141(5) 0.8965(6)
H7_3 H 0.786449 0.391104 0.940015
H8_3 H 0.756967 0.449509 0.906365
H9_3 H 0.752749 0.396120 0.856325
N1_3 N 0.6610(10) 0.3771(4) 0.3365(5)
N2_3 N 0.6932(9) 0.4099(4) 0.2812(4)
N3_2 N 0.7562(8) 0.4501(3) 0.3095(4)
N4_3 N 0.7629(7) 0.4422(3) 0.3822(5)
N5_3 N 0.9415(7) 0.5460(3) 0.6844(4)
N6_3 N 1.000000 0.5949(5) 0.5872(7)
N7_3 N 0.9448(8) 0.4529(3) 0.8173(4)
N8_4 N 1.000000 0.3995(4) 0.9101(5)
O1_3 O 0.7777(8) 0.4615(3) 0.6651(5)
O2_3 O 0.7143(12) 0.3959(4) 0.7323(4)
O4_3 O 0.5845(9) 0.2173(3) 0.6191(4)
Zn8_2 Zn 0.84577(6) 0.49988(5) 0.25053(10)
N16_2 N 0.7562(8) 0.5499(3) 0.8095(4)
C1_4 C 0.2916(8) 0.6184(3) 0.1035(4)
C2_4 C 0.3223(7) 0.6738(3) 0.1115(4)
H1_4 H 0.328144 0.689330 0.158557
C3_4 C 0.3444(6) 0.7059(3) 0.0494(4)
C6_4 C 0.2830(7) 0.5953(3) 0.0334(4)
H3_4 H 0.262386 0.558113 0.028058
C7_4 C 0.2646(9) 0.5866(5) 0.1723(6)
C8_4 C 0.3821(11) 0.7666(4) 0.0568(6)
C10_4 C 0.0899(9) 0.4224(4) 0.1278(5)
C11_4 C 0.2029(9) 0.4119(5) 0.1061(6)
H4_4 H 0.203890 0.387856 0.063646
H5_4 H 0.238468 0.446582 0.093983
H6_4 H 0.241902 0.394435 0.146313
C12_4 C 0.0873(10) 0.5773(5) 0.3756(6)
C13_4 C 0.2091(10) 0.5859(5) 0.3965(6)
H7_4 H 0.213551 0.608896 0.440015
H8_4 H 0.243033 0.550491 0.406365
H9_4 H 0.247251 0.603880 0.356325
N5_4 N 0.0585(7) 0.4540(3) 0.1844(4)
N7_4 N 0.0552(8) 0.5471(3) 0.3173(4)
N8_5 N 0.000000 0.6005(4) 0.4101(5)
O1_4 O 0.2223(8) 0.5385(3) 0.1651(5)
O2_4 O 0.2857(12) 0.6041(4) 0.2323(4)
O4_4 O 0.4155(9) 0.7827(3) 0.1191(4)
C4_4 C 0.3358(6) 0.6827(3) 0.9794(4)
H2_4 H 0.350682 0.704217 0.937676
C5_4 C 0.3051(6) 0.6274(3) 0.9714(4)
C9_4 C 0.2946(8) 0.6075(5) 0.8963(5)
N1_4 N 0.3390(10) 0.6229(4) 0.8365(5)
N2_4 N 0.3068(9) 0.5901(4) 0.7812(4)
N4_4 N 0.2371(7) 0.5578(3) 0.8822(5)
N8_6 N 1.000000 0.6005(4) 0.4101(5)
C14_4 C 0.9101(9) 0.4224(4) 0.1278(5)
C15_4 C 0.7971(9) 0.4119(5) 0.1061(6)
H10_4 H 0.796110 0.387856 0.063646
H11_4 H 0.761532 0.446582 0.093983
H12_4 H 0.758098 0.394435 0.146313
N9_4 N 0.9415(7) 0.4540(3) 0.1844(4)
C16_4 C 0.9127(10) 0.5773(5) 0.3756(6)
C17_4 C 0.7909(10) 0.5859(5) 0.3965(6)
H13_4 H 0.786449 0.608896 0.440015
H14_4 H 0.756967 0.550491 0.406365
H15_4 H 0.752749 0.603880 0.356325
N10_4 N 0.9448(8) 0.5471(3) 0.3173(4)
C18_4 C 0.7084(8) 0.6184(3) 0.1035(4)
C19_4 C 0.6777(7) 0.6738(3) 0.1115(4)
H16_4 H 0.671856 0.689330 0.158557
C20_4 C 0.6556(6) 0.7059(3) 0.0494(4)
C23_4 C 0.7170(7) 0.5953(3) 0.0334(4)
H18_4 H 0.737614 0.558113 0.028058
C24_4 C 0.7354(9) 0.5866(5) 0.1723(6)
C25_4 C 0.6179(11) 0.7666(4) 0.0568(6)
O5_4 O 0.7777(8) 0.5385(3) 0.1651(5)
O6_4 O 0.7143(12) 0.6041(4) 0.2323(4)
O8_4 O 0.5845(9) 0.7827(3) 0.1191(4)
C21_4 C 0.6642(6) 0.6827(3) 0.9794(4)
H17_4 H 0.649318 0.704217 0.937676
C22_4 C 0.6949(6) 0.6274(3) 0.9714(4)
C26_4 C 0.7054(8) 0.6075(5) 0.8963(5)
N11_4 N 0.6610(10) 0.6229(4) 0.8365(5)
N12_4 N 0.6932(9) 0.5901(4) 0.7812(4)
N14_4 N 0.7629(7) 0.5578(3) 0.8822(5)
loop_
_geom_bond_atom_site_label_1
_geom_bond_atom_site_label_2
_geom_bond_site_symmetry_1
_geom_bond_site_symmetry_2
Zn2 N5 1_555 1_555
C10 C11 1_555 1_555
C11 H4 1_555 1_555
H5 C11 1_555 1_555
H6 C11 1_555 1_555
N5 C10 1_555 1_555
N6 C10 1_555 1_555
C14 N6 1_555 1_555
C15 C14 1_555 1_555
H10 C15 1_555 1_555
H11 C15 1_555 1_555
H12 C15 1_555 1_555
N9 N5 1_555 1_555
Zn3 N9 1_555 1_555
Zn4 N6 1_555 1_555
N15 Zn3 1_555 1_555
N16 Zn2 1_555 1_555
C14 N9 1_555 1_555
N17 Zn1 1_555 1_555
O9 Zn1 1_555 1_555
O10 Zn1 1_555 1_555
C1 C2 1_555 1_555
C2 H1 1_555 1_555
C3 C2 1_555 1_555
C4 C3 1_555 1_555
H2 C4 1_555 1_555
C5 C4 1_555 1_555
C6 C1 1_555 1_555
H3 C6 1_555 1_555
C7 C1 1_555 1_555
C8 C3 1_555 1_555
C9 C5 1_555 1_555
C12 C13 1_555 1_555
C13 H7 1_555 1_555
H8 C13 1_555 1_555
H9 C13 1_555 1_555
N1 C9 1_555 1_555
N2 N1 1_555 1_555
N3 N2 1_555 1_555
N4 C9 1_555 1_555
N8 C12 1_555 1_555
O2 C7 1_555 1_555
O3 C8 1_555 1_555
O4 C8 1_555 1_555
C16 N8 1_555 1_555
C17 C16 1_555 1_555
H13 C17 1_555 1_555
H14 C17 1_555 1_555
H15 C17 1_555 1_555
N10 N7 1_555 1_555
C18 C19 1_555 1_555
C19 H16 1_555 1_555
C20 C19 1_555 1_555
C21 C20 1_555 1_555
H17 C21 1_555 1_555
C22 C21 1_555 1_555
C23 C18 1_555 1_555
H18 C23 1_555 1_555
C24 C18 1_555 1_555
C25 C20 1_555 1_555
C26 C22 1_555 1_555
N11 C26 1_555 1_555
N12 N11 1_555 1_555
N13 N12 1_555 1_555
N14 C26 1_555 1_555
O6 C24 1_555 1_555
O7 C25 1_555 1_555
O8 C25 1_555 1_555
Zn6 O3 1_555 1_555
Zn6_2 O7 1_555 1_555
Zn7 N13 1_555 1_555
Zn8 N3 1_555 1_555
C5 C6 1_555 1_555
C7 O1 1_555 1_555
C12 N7 1_555 1_555
N3 N4 1_555 1_555
C16 N10 1_555 1_555
C22 C23 1_555 1_555
C24 O5 1_555 1_555
N13 N14 1_555 1_555
Zn4 N8_2 1_555 1_555
C1_2 C2_2 1_555 1_555
C2_2 H1_2 1_555 1_555
C3_2 C2_2 1_555 1_555
C6_2 C1_2 1_555 1_555
H3_2 C6_2 1_555 1_555
C7_2 C1_2 1_555 1_555
C8_2 C3_2 1_555 1_555
C12_2 C13_2 1_555 1_555
C13_2 H7_2 1_555 1_555
H8_2 C13_2 1_555 1_555
H9_2 C13_2 1_555 1_555
N8_2 C12_2 1_555 1_555
O2_2 C7_2 1_555 1_555
O3_2 C8_2 1_555 1_555
O4_2 C8_2 1_555 1_555
C16_2 N8_2 1_555 1_555
C17_2 C16_2 1_555 1_555
H13_2 C17_2 1_555 1_555
H14_2 C17_2 1_555 1_555
H15_2 C17_2 1_555 1_555
N10_2 N7_2 1_555 1_555
C18_2 C19_2 1_555 1_555
C19_2 H16_2 1_555 1_555
C20_2 C19_2 1_555 1_555
C23_2 C18_2 1_555 1_555
H18_2 C23_2 1_555 1_555
C24_2 C18_2 1_555 1_555
C25_2 C20_2 1_555 1_555
O6_2 C24_2 1_555 1_555
O7_2 C25_2 1_555 1_555
O8_2 C25_2 1_555 1_555
Zn5_2 O3_2 1_555 1_555
Zn5 O7_2 1_555 1_555
O9_2 Zn4 1_555 1_555
O10_2 Zn4 1_555 1_555
C7_2 O1_2 1_555 1_555
C12_2 N7_2 1_555 1_555
C16_2 N10_2 1_555 1_555
C24_2 O5_2 1_555 1_555
H2_2 C4_2 1_555 1_555
C5_2 C4_2 1_555 1_555
C9_2 C5_2 1_555 1_555
N1_2 C9_2 1_555 1_555
N2_2 N1_2 1_555 1_555
N15 N2_2 1_555 1_555
N4_2 C9_2 1_555 1_555
H17_2 C21_2 1_555 1_555
C22_2 C21_2 1_555 1_555
C26_2 C22_2 1_555 1_555
N11_2 C26_2 1_555 1_555
N12_2 N11_2 1_555 1_555
N16 N12_2 1_555 1_555
N14_2 C26_2 1_555 1_555
N15 N4_2 1_555 1_555
N16 N14_2 1_555 1_555
Zn7 N5_2 1_555 1_555
C10_2 C11_2 1_555 1_555
C11_2 H4_2 1_555 1_555
H5_2 C11_2 1_555 1_555
H6_2 C11_2 1_555 1_555
N5_2 C10_2 1_555 1_555
N17 C10_2 1_555 1_555
C14_2 N17 1_555 1_555
C15_2 C14_2 1_555 1_555
H10_2 C15_2 1_555 1_555
H11_2 C15_2 1_555 1_555
H12_2 C15_2 1_555 1_555
N9_2 N5_2 1_555 1_555
Zn8 N9_2 1_555 1_555
C14_2 N9_2 1_555 1_555
N17_2 Zn5 1_555 1_555
C14_3 N6_2 1_555 1_555
C15_3 C14_3 1_555 1_555
H10_3 C15_3 1_555 1_555
H11_3 C15_3 1_555 1_555
H12_3 C15_3 1_555 1_555
C16_3 N8_3 1_555 1_555
C17_3 C16_3 1_555 1_555
H13_3 C17_3 1_555 1_555
H14_3 C17_3 1_555 1_555
H15_3 C17_3 1_555 1_555
Zn3_2 N9_3 1_555 1_555
C18_3 C19_3 1_555 1_555
C19_3 H16_3 1_555 1_555
C20_3 C19_3 1_555 1_555
C21_3 C20_3 1_555 1_555
H17_3 C21_3 1_555 1_555
C22_3 C21_3 1_555 1_555
C23_3 C18_3 1_555 1_555
H18_3 C23_3 1_555 1_555
C24_3 C18_3 1_555 1_555
C25_3 C20_3 1_555 1_555
C26_3 C22_3 1_555 1_555
N11_3 C26_3 1_555 1_555
N12_3 N11_3 1_555 1_555
N13_2 N12_3 1_555 1_555
N14_3 C26_3 1_555 1_555
O5_3 Zn3_2 1_555 1_555
O6_3 C24_3 1_555 1_555
O10_2 C25_3 1_555 1_555
O8_3 C25_3 1_555 1_555
Zn6 N6_2 1_555 1_555
Zn7_2 N13_2 1_555 1_555
N15_2 Zn3_2 1_555 1_555
C14_3 N9_3 1_555 1_555
C16_3 N10_3 1_555 1_555
N10_3 Zn3_2 1_555 1_555
C22_3 C23_3 1_555 1_555
C24_3 O5_3 1_555 1_555
N13_2 N14_3 1_555 1_555
N17_3 Zn5_2 1_555 1_555
Zn2_2 N5_3 1_555 1_555
C1_3 C2_3 1_555 1_555
C2_3 H1_3 1_555 1_555
C3_3 C2_3 1_555 1_555
C4_3 C3_3 1_555 1_555
H2_3 C4_3 1_555 1_555
C5_3 C4_3 1_555 1_555
C6_3 C1_3 1_555 1_555
H3_3 C6_3 1_555 1_555
C7_3 C1_3 1_555 1_555
C8_3 C3_3 1_555 1_555
C9_3 C5_3 1_555 1_555
C10_3 C11_3 1_555 1_555
C11_3 H4_3 1_555 1_555
H5_3 C11_3 1_555 1_555
H6_3 C11_3 1_555 1_555
C12_3 C13_3 1_555 1_555
C13_3 H7_3 1_555 1_555
H8_3 C13_3 1_555 1_555
H9_3 C13_3 1_555 1_555
N1_3 C9_3 1_555 1_555
N2_3 N1_3 1_555 1_555
N3_2 N2_3 1_555 1_555
N4_3 C9_3 1_555 1_555
N5_3 C10_3 1_555 1_555
N6_3 C10_3 1_555 1_555
N7_3 Zn2_2 1_555 1_555
N8_4 C12_3 1_555 1_555
O1_3 Zn2_2 1_555 1_555
O2_3 C7_3 1_555 1_555
O9_2 C8_3 1_555 1_555
O4_3 C8_3 1_555 1_555
Zn6_2 N6_3 1_555 1_555
Zn8_2 N3_2 1_555 1_555
N16_2 Zn2_2 1_555 1_555
C5_3 C6_3 1_555 1_555
C7_3 O1_3 1_555 1_555
C12_3 N7_3 1_555 1_555
N3_2 N4_3 1_555 1_555
Zn6 N8_5 1_555 1_555
Zn7_2 N5_4 1_555 1_555
C1_4 C2_4 1_555 1_555
C2_4 H1_4 1_555 1_555
C3_4 C2_4 1_555 1_555
C6_4 C1_4 1_555 1_555
H3_4 C6_4 1_555 1_555
C7_4 C1_4 1_555 1_555
C8_4 C3_4 1_555 1_555
C10_4 C11_4 1_555 1_555
C11_4 H4_4 1_555 1_555
H5_4 C11_4 1_555 1_555
H6_4 C11_4 1_555 1_555
C12_4 C13_4 1_555 1_555
C13_4 H7_4 1_555 1_555
H8_4 C13_4 1_555 1_555
H9_4 C13_4 1_555 1_555
N5_4 C10_4 1_555 1_555
N17_2 C10_4 1_555 1_555
N7_4 Zn7_2 1_555 1_555
N8_5 C12_4 1_555 1_555
O1_4 Zn7_2 1_555 1_555
O2_4 C7_4 1_555 1_555
O9 C8_4 1_555 1_555
O4_4 C8_4 1_555 1_555
C7_4 O1_4 1_555 1_555
C12_4 N7_4 1_555 1_555
H2_4 C4_4 1_555 1_555
C5_4 C4_4 1_555 1_555
C9_4 C5_4 1_555 1_555
N1_4 C9_4 1_555 1_555
N2_4 N1_4 1_555 1_555
N15_2 N2_4 1_555 1_555
N4_4 C9_4 1_555 1_555
N15_2 N4_4 1_555 1_555
Zn6_2 N8_6 1_555 1_555
C14_4 N17_3 1_555 1_555
C15_4 C14_4 1_555 1_555
H10_4 C15_4 1_555 1_555
H11_4 C15_4 1_555 1_555
H12_4 C15_4 1_555 1_555
C16_4 N8_6 1_555 1_555
C17_4 C16_4 1_555 1_555
H13_4 C17_4 1_555 1_555
H14_4 C17_4 1_555 1_555
H15_4 C17_4 1_555 1_555
Zn8_2 N9_4 1_555 1_555
C18_4 C19_4 1_555 1_555
C19_4 H16_4 1_555 1_555
C20_4 C19_4 1_555 1_555
C23_4 C18_4 1_555 1_555
H18_4 C23_4 1_555 1_555
C24_4 C18_4 1_555 1_555
C25_4 C20_4 1_555 1_555
O5_4 Zn8_2 1_555 1_555
O6_4 C24_4 1_555 1_555
O10 C25_4 1_555 1_555
O8_4 C25_4 1_555 1_555
C14_4 N9_4 1_555 1_555
C16_4 N10_4 1_555 1_555
N10_4 Zn8_2 1_555 1_555
C24_4 O5_4 1_555 1_555
H17_4 C21_4 1_555 1_555
C22_4 C21_4 1_555 1_555
C26_4 C22_4 1_555 1_555
N11_4 C26_4 1_555 1_555
N12_4 N11_4 1_555 1_555
N16_2 N12_4 1_555 1_555
N14_4 C26_4 1_555 1_555
N16_2 N14_4 1_555 1_555

#END
