
###############################################################################
#
# This file contains modified crystal structure data generated from the
# MOF subset of the Cambridge Structural Database (CSD) v543 
# hosted by the Cambridge Crystallographic Data Centre (CCDC).
#
# This work is licensed under the Creative Commons
# Attribution-NonCommercial-ShareAlike 4.0 International License.
# To view a copy of this license, visit
# http://creativecommons.org/licenses/by-nc-sa/4.0/
# or send a letter to
# Creative Commons, PO Box 1866, Mountain View, CA 94042, USA.
#
# CIF created using the CSD Python API on 29 September 2022
# The structure has been converted into the P1 space group
# The structure has a 3D framework
# The original CSD entry QALXOU is in the orthorhombic crystal system
# The framework has been calculated to contain at least 10.0% void space
# The void calculation uses a probe of radius 1.32A, grid spacing 0.4
# The framework is charged, counterions have been retained in the structure
# H atom positions have been added when not included in the experimental data
# Generated hydrogen atom positions removed from atoms on special positions
#
###############################################################################

data_QALXOU
_chemical_formula_moiety         '(C104 H96 N56 O40 Zn14)n'
_symmetry_cell_setting           triclinic
_symmetry_space_group_name_H-M   'P 1'
_symmetry_Int_Tables_number      1
_space_group_name_Hall           'P 1'
loop_
_symmetry_equiv_pos_site_id
_symmetry_equiv_pos_as_xyz
1 x,y,z
_cell_length_a                   19.76(2)
_cell_length_b                   18.00(2)
_cell_length_c                   17.624(19)
_cell_angle_alpha                90
_cell_angle_beta                 90
_cell_angle_gamma                90
_cell_volume                     6268.5
loop_
_atom_site_label
_atom_site_type_symbol
_atom_site_fract_x
_atom_site_fract_y
_atom_site_fract_z
N16 N 0.03631(13) 0.43423(17) 0.06414(16)
N17 N 0.15371(17) 0.5569(2) 0.0530(2)
Zn1 Zn -0.000000 0.70554(4) 0.750000
N2 N 0.03631(13) 0.56577(17) 0.56414(16)
N3 N 0.00244(12) 0.63610(19) 0.65875(19)
C11 C 0.05510(18) 0.6117(2) 0.6181(2)
C13 C 0.1267(2) 0.6326(3) 0.6319(3)
H7 H 0.152234 0.626624 0.585961
H8 H 0.145387 0.601153 0.670676
H9 H 0.128924 0.683445 0.648109
Zn3 Zn 0.09259(2) 0.49343(2) 0.99309(2)
N8 N 0.03263(14) 0.55931(17) 0.93020(17)
N11 N 0.16202(16) 0.4440(2) 0.62773(19)
N12 N 0.15371(17) 0.4431(2) 0.5530(2)
N13 N 0.1995(3) 0.4015(4) 0.5213(3)
N14 N 0.2367(3) 0.3720(4) 0.5777(3)
O5 O 0.13805(14) 0.44269(18) 0.91233(16)
O6 O 0.2205(2) 0.4026(3) 0.9836(2)
O7 O 0.41834(14) 0.26395(18) 0.74161(14)
O8 O 0.42729(15) 0.2979(2) 0.86097(19)
C14 C 0.1955(2) 0.4121(3) 0.9214(3)
C15 C 0.2319(2) 0.3895(3) 0.8509(2)
C16 C 0.2057(2) 0.4029(3) 0.7810(2)
H10 H 0.163743 0.425973 0.776915
C17 C 0.2402(2) 0.3829(3) 0.7157(2)
C18 C 0.2127(2) 0.3984(3) 0.6408(2)
C19 C 0.3021(2) 0.3474(2) 0.7228(2)
H11 H 0.325245 0.332246 0.679473
C20 C 0.32972(19) 0.3343(2) 0.7929(2)
C21 C 0.39739(19) 0.2968(2) 0.7994(3)
C22 C 0.2945(2) 0.3552(2) 0.8572(2)
H12 H 0.312868 0.346241 0.904904
C23 C 0.05082(18) 0.6021(2) 0.8734(2)
C25 C 0.1223(2) 0.6105(3) 0.8484(3)
H13 H 0.142357 0.652181 0.873864
H14 H 0.123516 0.618625 0.794542
H15 H 0.147050 0.566218 0.860512
Zn5 Zn 0.500000 0.20554(4) 0.750000
Zn6 Zn 0.09259(2) 0.50657(2) 0.49309(2)
O9 O 0.08166(14) 0.76395(18) 0.74161(14)
Zn7 Zn 0.90741(2) 0.50657(2) 0.00691(2)
Zn1_2 Zn 1.000000 0.70554(4) 0.750000
Zn2 Zn 0.90741(2) 0.49343(2) 0.50691(2)
N1 N 0.96737(14) 0.55931(17) 0.56980(17)
N4 N 0.83798(16) 0.4440(2) 0.87227(19)
N5 N 0.84629(17) 0.4431(2) 0.9470(2)
N6 N 0.8005(3) 0.4015(4) 0.9787(3)
N7 N 0.7633(3) 0.3720(4) 0.9223(3)
O1 O 0.86195(14) 0.44269(18) 0.58767(16)
O2 O 0.7795(2) 0.4026(3) 0.5164(2)
O3 O 0.58166(14) 0.26395(18) 0.75839(14)
O4 O 0.57271(15) 0.2979(2) 0.63903(19)
C1 C 0.8045(2) 0.4121(3) 0.5786(3)
C2 C 0.7681(2) 0.3895(3) 0.6491(2)
C3 C 0.7943(2) 0.4029(3) 0.7190(2)
H1 H 0.836257 0.425973 0.723085
C4 C 0.7598(2) 0.3829(3) 0.7843(2)
C5 C 0.7873(2) 0.3984(3) 0.8592(2)
C6 C 0.6979(2) 0.3474(2) 0.7772(2)
H2 H 0.674755 0.332246 0.820527
C7 C 0.67028(19) 0.3343(2) 0.7071(2)
C8 C 0.60261(19) 0.2968(2) 0.7006(3)
C9 C 0.7055(2) 0.3552(2) 0.6428(2)
H3 H 0.687132 0.346241 0.595096
C10 C 0.94918(18) 0.6021(2) 0.6266(2)
C12 C 0.8777(2) 0.6105(3) 0.6516(3)
H4 H 0.857643 0.652181 0.626136
H5 H 0.876484 0.618625 0.705458
H6 H 0.852950 0.566218 0.639488
N9 N 0.96369(13) 0.56577(17) 0.93586(16)
N10 N 0.99756(12) 0.63610(19) 0.84125(19)
C24 C 0.94490(18) 0.6117(2) 0.8819(2)
C26 C 0.8733(2) 0.6326(3) 0.8681(3)
H16 H 0.847766 0.626624 0.914039
H17 H 0.854613 0.601153 0.829324
H18 H 0.871076 0.683445 0.851891
N15 N 0.96369(13) 0.43423(17) 0.43586(16)
N18 N 0.84629(17) 0.5569(2) 0.4470(2)
O10 O 0.91834(14) 0.76395(18) 0.75839(14)
Zn4 Zn 0.000000 0.29446(4) 0.250000
Zn2_2 Zn 0.59259(2) 0.00657(2) 0.00691(2)
N4_2 N 0.66202(16) 0.0560(2) 0.37227(19)
N5_2 N 0.65371(17) 0.0569(2) 0.4470(2)
N6_2 N 0.6995(3) 0.0985(4) 0.4787(3)
N7_2 N 0.7367(3) 0.1280(4) 0.4223(3)
O1_2 O 0.63805(14) 0.05731(18) 0.08767(16)
O2_2 O 0.7205(2) 0.0974(3) 0.0164(2)
O3_2 O 0.91834(14) 0.23605(18) 0.25839(14)
O4_2 O 0.92729(15) 0.2021(2) 0.13903(19)
C1_2 C 0.6955(2) 0.0879(3) 0.0786(3)
C2_2 C 0.7319(2) 0.1105(3) 0.1491(2)
C3_2 C 0.7057(2) 0.0971(3) 0.2190(2)
H1_2 H 0.663743 0.074027 0.223085
C4_2 C 0.7402(2) 0.1171(3) 0.2843(2)
C5_2 C 0.7127(2) 0.1016(3) 0.3592(2)
C6_2 C 0.8021(2) 0.1526(2) 0.2772(2)
H2_2 H 0.825245 0.167754 0.320527
C7_2 C 0.82972(19) 0.1657(2) 0.2071(2)
C8_2 C 0.89739(19) 0.2032(2) 0.2006(3)
C9_2 C 0.7945(2) 0.1448(2) 0.1428(2)
H3_2 H 0.812868 0.153759 0.095096
Zn3_2 Zn 0.40741(2) 0.00657(2) 0.49309(2)
N11_2 N 0.33798(16) 0.0560(2) 0.12773(19)
N12_2 N 0.34629(17) 0.0569(2) 0.0530(2)
N13_2 N 0.3005(3) 0.0985(4) 0.0213(3)
N14_2 N 0.2633(3) 0.1280(4) 0.0777(3)
O5_2 O 0.36195(14) 0.05731(18) 0.41233(16)
O6_2 O 0.2795(2) 0.0974(3) 0.4836(2)
O7_2 O 0.08166(14) 0.23605(18) 0.24161(14)
O8_2 O 0.07271(15) 0.2021(2) 0.36097(19)
C14_2 C 0.3045(2) 0.0879(3) 0.4214(3)
C15_2 C 0.2681(2) 0.1105(3) 0.3509(2)
C16_2 C 0.2943(2) 0.0971(3) 0.2810(2)
H10_2 H 0.336257 0.074027 0.276915
C17_2 C 0.2598(2) 0.1171(3) 0.2157(2)
C18_2 C 0.2873(2) 0.1016(3) 0.1408(2)
C19_2 C 0.1979(2) 0.1526(2) 0.2228(2)
H11_2 H 0.174755 0.167754 0.179473
C20_2 C 0.17028(19) 0.1657(2) 0.2929(2)
C21_2 C 0.10261(19) 0.2032(2) 0.2994(3)
C22_2 C 0.2055(2) 0.1448(2) 0.3572(2)
H12_2 H 0.187132 0.153759 0.404904
Zn4_2 Zn 1.000000 0.29446(4) 0.250000
N16_2 N 0.46369(13) 0.06577(17) 0.56414(16)
N15_2 N 0.53631(13) 0.06577(17) 0.93586(16)
Zn1_3 Zn 0.500000 0.79446(4) 0.250000
N1_2 N 0.53263(14) 0.94069(17) 0.06980(17)
N2_2 N 0.46369(13) 0.93423(17) 0.06414(16)
N3_2 N 0.49756(12) 0.86390(19) 0.15875(19)
C10_2 C 0.55082(18) 0.8979(2) 0.1266(2)
C11_2 C 0.44490(18) 0.8883(2) 0.1181(2)
C12_2 C 0.6223(2) 0.8895(3) 0.1516(3)
H4_2 H 0.642357 0.847819 0.126136
H5_2 H 0.623516 0.881375 0.205458
H6_2 H 0.647050 0.933782 0.139488
C13_2 C 0.3733(2) 0.8674(3) 0.1319(3)
H7_2 H 0.347766 0.873376 0.085961
H8_2 H 0.354613 0.898847 0.170676
H9_2 H 0.371076 0.816555 0.148109
N8_2 N 0.46737(14) 0.94069(17) 0.43020(17)
N9_2 N 0.53631(13) 0.93423(17) 0.43586(16)
N10_2 N 0.50244(12) 0.86390(19) 0.34125(19)
C23_2 C 0.44918(18) 0.8979(2) 0.3734(2)
C24_2 C 0.55510(18) 0.8883(2) 0.3819(2)
C25_2 C 0.3777(2) 0.8895(3) 0.3484(3)
H13_2 H 0.357643 0.847819 0.373864
H14_2 H 0.376484 0.881375 0.294542
H15_2 H 0.352950 0.933782 0.360512
C26_2 C 0.6267(2) 0.8674(3) 0.3681(3)
H16_2 H 0.652234 0.873376 0.414039
H17_2 H 0.645387 0.898847 0.329324
H18_2 H 0.628924 0.816555 0.351891
Zn7_2 Zn 0.59259(2) 0.99343(2) 0.50691(2)
N17_2 N 0.34629(17) 0.9431(2) 0.5530(2)
O9_2 O 0.41834(14) 0.73605(18) 0.24161(14)
O10_2 O 0.58166(14) 0.73605(18) 0.25839(14)
Zn6_2 Zn 0.40741(2) 0.99343(2) 0.99309(2)
N18_2 N 0.65371(17) 0.9431(2) 0.9470(2)
N1_3 N 0.03263(14) 0.44069(17) 0.43020(17)
N4_3 N 0.16202(16) 0.5560(2) 0.12773(19)
N6_3 N 0.1995(3) 0.5985(4) 0.0213(3)
N7_3 N 0.2367(3) 0.6280(4) 0.0777(3)
O1_3 O 0.13805(14) 0.55731(18) 0.41233(16)
O2_3 O 0.2205(2) 0.5974(3) 0.4836(2)
O4_3 O 0.42729(15) 0.7021(2) 0.36097(19)
C1_3 C 0.1955(2) 0.5879(3) 0.4214(3)
C2_3 C 0.2319(2) 0.6105(3) 0.3509(2)
C3_3 C 0.2057(2) 0.5971(3) 0.2810(2)
H1_3 H 0.163743 0.574027 0.276915
C4_3 C 0.2402(2) 0.6171(3) 0.2157(2)
C5_3 C 0.2127(2) 0.6016(3) 0.1408(2)
C6_3 C 0.3021(2) 0.6526(2) 0.2228(2)
H2_3 H 0.325245 0.667754 0.179473
C7_3 C 0.32972(19) 0.6657(2) 0.2929(2)
C8_3 C 0.39739(19) 0.7032(2) 0.2994(3)
C9_3 C 0.2945(2) 0.6448(2) 0.3572(2)
H3_3 H 0.312868 0.653759 0.404904
C10_3 C 0.05082(18) 0.3979(2) 0.3734(2)
C12_3 C 0.1223(2) 0.3895(3) 0.3484(3)
H4_3 H 0.142357 0.347819 0.373864
H5_3 H 0.123516 0.381375 0.294542
H6_3 H 0.147050 0.433782 0.360512
N10_3 N 0.00244(12) 0.36390(19) 0.15875(19)
C24_3 C 0.05510(18) 0.3883(2) 0.1181(2)
C26_3 C 0.1267(2) 0.3674(3) 0.1319(3)
H16_3 H 0.152234 0.373376 0.085961
H17_3 H 0.145387 0.398847 0.170676
H18_3 H 0.128924 0.316555 0.148109
N3_3 N 0.99756(12) 0.36390(19) 0.34125(19)
C11_3 C 0.94490(18) 0.3883(2) 0.3819(2)
C13_3 C 0.8733(2) 0.3674(3) 0.3681(3)
H7_3 H 0.847766 0.373376 0.414039
H8_3 H 0.854613 0.398847 0.329324
H9_3 H 0.871076 0.316555 0.351891
N8_3 N 0.96737(14) 0.44069(17) 0.06980(17)
N11_3 N 0.83798(16) 0.5560(2) 0.37227(19)
N13_3 N 0.8005(3) 0.5985(4) 0.4787(3)
N14_3 N 0.7633(3) 0.6280(4) 0.4223(3)
O5_3 O 0.86195(14) 0.55731(18) 0.08767(16)
O6_3 O 0.7795(2) 0.5974(3) 0.0164(2)
O8_3 O 0.57271(15) 0.7021(2) 0.13903(19)
C14_3 C 0.8045(2) 0.5879(3) 0.0786(3)
C15_3 C 0.7681(2) 0.6105(3) 0.1491(2)
C16_3 C 0.7943(2) 0.5971(3) 0.2190(2)
H10_3 H 0.836257 0.574027 0.223085
C17_3 C 0.7598(2) 0.6171(3) 0.2843(2)
C18_3 C 0.7873(2) 0.6016(3) 0.3592(2)
C19_3 C 0.6979(2) 0.6526(2) 0.2772(2)
H11_3 H 0.674755 0.667754 0.320527
C20_3 C 0.67028(19) 0.6657(2) 0.2071(2)
C21_3 C 0.60261(19) 0.7032(2) 0.2006(3)
C22_3 C 0.7055(2) 0.6448(2) 0.1428(2)
H12_3 H 0.687132 0.653759 0.095096
C23_3 C 0.94918(18) 0.3979(2) 0.1266(2)
C25_3 C 0.8777(2) 0.3895(3) 0.1516(3)
H13_3 H 0.857643 0.347819 0.126136
H14_3 H 0.876484 0.381375 0.205458
H15_3 H 0.852950 0.433782 0.139488
N1_4 N 0.46737(14) 0.05931(17) 0.93020(17)
N3_4 N 0.50244(12) 0.13610(19) 0.84125(19)
C10_4 C 0.44918(18) 0.1021(2) 0.8734(2)
C11_4 C 0.55510(18) 0.1117(2) 0.8819(2)
C12_4 C 0.3777(2) 0.1105(3) 0.8484(3)
H4_4 H 0.357643 0.152181 0.873864
H5_4 H 0.376484 0.118625 0.794542
H6_4 H 0.352950 0.066218 0.860512
C13_4 C 0.6267(2) 0.1326(3) 0.8681(3)
H7_4 H 0.652234 0.126624 0.914039
H8_4 H 0.645387 0.101153 0.829324
H9_4 H 0.628924 0.183445 0.851891
N8_4 N 0.53263(14) 0.05931(17) 0.56980(17)
N10_4 N 0.49756(12) 0.13610(19) 0.65875(19)
C23_4 C 0.55082(18) 0.1021(2) 0.6266(2)
C24_4 C 0.44490(18) 0.1117(2) 0.6181(2)
C25_4 C 0.6223(2) 0.1105(3) 0.6516(3)
H13_4 H 0.642357 0.152181 0.626136
H14_4 H 0.623516 0.118625 0.705458
H15_4 H 0.647050 0.066218 0.639488
C26_4 C 0.3733(2) 0.1326(3) 0.6319(3)
H16_4 H 0.347766 0.126624 0.585961
H17_4 H 0.354613 0.101153 0.670676
H18_4 H 0.371076 0.183445 0.648109
N4_4 N 0.33798(16) 0.9440(2) 0.62773(19)
N6_4 N 0.3005(3) 0.9015(4) 0.5213(3)
N7_4 N 0.2633(3) 0.8720(4) 0.5777(3)
O1_4 O 0.36195(14) 0.94269(18) 0.91233(16)
O2_4 O 0.2795(2) 0.9026(3) 0.9836(2)
O4_4 O 0.07271(15) 0.7979(2) 0.86097(19)
C1_4 C 0.3045(2) 0.9121(3) 0.9214(3)
C2_4 C 0.2681(2) 0.8895(3) 0.8509(2)
C3_4 C 0.2943(2) 0.9029(3) 0.7810(2)
H1_4 H 0.336257 0.925973 0.776915
C4_4 C 0.2598(2) 0.8829(3) 0.7157(2)
C5_4 C 0.2873(2) 0.8984(3) 0.6408(2)
C6_4 C 0.1979(2) 0.8474(2) 0.7228(2)
H2_4 H 0.174755 0.832246 0.679473
C7_4 C 0.17028(19) 0.8343(2) 0.7929(2)
C8_4 C 0.10261(19) 0.7968(2) 0.7994(3)
C9_4 C 0.2055(2) 0.8552(2) 0.8572(2)
H3_4 H 0.187132 0.846241 0.904904
N11_4 N 0.66202(16) 0.9440(2) 0.87227(19)
N13_4 N 0.6995(3) 0.9015(4) 0.9787(3)
N14_4 N 0.7367(3) 0.8720(4) 0.9223(3)
O5_4 O 0.63805(14) 0.94269(18) 0.58767(16)
O6_4 O 0.7205(2) 0.9026(3) 0.5164(2)
O8_4 O 0.92729(15) 0.7979(2) 0.63903(19)
C14_4 C 0.6955(2) 0.9121(3) 0.5786(3)
C15_4 C 0.7319(2) 0.8895(3) 0.6491(2)
C16_4 C 0.7057(2) 0.9029(3) 0.7190(2)
H10_4 H 0.663743 0.925973 0.723085
C17_4 C 0.7402(2) 0.8829(3) 0.7843(2)
C18_4 C 0.7127(2) 0.8984(3) 0.8592(2)
C19_4 C 0.8021(2) 0.8474(2) 0.7772(2)
H11_4 H 0.825245 0.832246 0.820527
C20_4 C 0.82972(19) 0.8343(2) 0.7071(2)
C21_4 C 0.89739(19) 0.7968(2) 0.7006(3)
C22_4 C 0.7945(2) 0.8552(2) 0.6428(2)
H12_4 H 0.812868 0.846241 0.595096
O11 O 0.6994(6) 0.3153(8) 0.4180(8)
O11_2 O 0.8006(6) 0.1847(8) 0.9180(8)
O11_3 O 0.3006(6) 0.3153(8) 0.0820(8)
O11_4 O 0.1994(6) 0.1847(8) 0.5820(8)
O11_5 O 0.3006(6) 0.6847(8) 0.5820(8)
O11_6 O 0.1994(6) 0.8153(8) 0.0820(8)
O11_7 O 0.6994(6) 0.6847(8) 0.9180(8)
O11_8 O 0.8006(6) 0.8153(8) 0.4180(8)
loop_
_geom_bond_atom_site_label_1
_geom_bond_atom_site_label_2
_geom_bond_site_symmetry_1
_geom_bond_site_symmetry_2
Zn1 N3 1_555 1_555
N2 C11 1_555 1_555
C11 N3 1_555 1_555
C13 C11 1_555 1_555
H7 C13 1_555 1_555
H8 C13 1_555 1_555
H9 C13 1_555 1_555
Zn3 N8 1_555 1_555
N11 N12 1_555 1_555
N12 N13 1_555 1_555
N13 N14 1_555 1_555
N14 C18 1_555 1_555
O5 Zn3 1_555 1_555
O6 C14 1_555 1_555
O7 C21 1_555 1_555
O8 C21 1_555 1_555
C14 O5 1_555 1_555
C15 C14 1_555 1_555
C16 C15 1_555 1_555
H10 C16 1_555 1_555
C17 C16 1_555 1_555
C18 N11 1_555 1_555
C19 C17 1_555 1_555
H11 C19 1_555 1_555
C20 C19 1_555 1_555
C21 C20 1_555 1_555
C22 C15 1_555 1_555
H12 C22 1_555 1_555
C23 N8 1_555 1_555
C25 C23 1_555 1_555
H13 C25 1_555 1_555
H14 C25 1_555 1_555
H15 C25 1_555 1_555
Zn5 O7 1_555 1_555
Zn6 N2 1_555 1_555
O9 Zn1 1_555 1_555
N12 Zn6 1_555 1_555
C17 C18 1_555 1_555
C20 C22 1_555 1_555
Zn2 N1 1_555 1_555
N4 N5 1_555 1_555
N5 N6 1_555 1_555
N6 N7 1_555 1_555
N7 C5 1_555 1_555
O1 Zn2 1_555 1_555
O2 C1 1_555 1_555
O3 C8 1_555 1_555
O4 C8 1_555 1_555
C1 O1 1_555 1_555
C2 C1 1_555 1_555
C3 C2 1_555 1_555
H1 C3 1_555 1_555
C4 C3 1_555 1_555
C5 N4 1_555 1_555
C6 C4 1_555 1_555
H2 C6 1_555 1_555
C7 C6 1_555 1_555
C8 C7 1_555 1_555
C9 C2 1_555 1_555
H3 C9 1_555 1_555
C10 N1 1_555 1_555
C12 C10 1_555 1_555
H4 C12 1_555 1_555
H5 C12 1_555 1_555
H6 C12 1_555 1_555
N9 C24 1_555 1_555
N10 Zn1_2 1_555 1_555
C24 N10 1_555 1_555
C26 C24 1_555 1_555
H16 C26 1_555 1_555
H17 C26 1_555 1_555
H18 C26 1_555 1_555
Zn5 O3 1_555 1_555
N15 Zn2 1_555 1_555
N18 Zn2 1_555 1_555
O10 Zn1_2 1_555 1_555
C4 C5 1_555 1_555
C7 C9 1_555 1_555
N4_2 N5_2 1_555 1_555
N5_2 N6_2 1_555 1_555
N6_2 N7_2 1_555 1_555
N7_2 C5_2 1_555 1_555
O1_2 Zn2_2 1_555 1_555
O2_2 C1_2 1_555 1_555
O3_2 C8_2 1_555 1_555
O4_2 C8_2 1_555 1_555
C1_2 O1_2 1_555 1_555
C2_2 C1_2 1_555 1_555
C3_2 C2_2 1_555 1_555
H1_2 C3_2 1_555 1_555
C4_2 C3_2 1_555 1_555
C5_2 N4_2 1_555 1_555
C6_2 C4_2 1_555 1_555
H2_2 C6_2 1_555 1_555
C7_2 C6_2 1_555 1_555
C8_2 C7_2 1_555 1_555
C9_2 C2_2 1_555 1_555
H3_2 C9_2 1_555 1_555
N11_2 N12_2 1_555 1_555
N12_2 N13_2 1_555 1_555
N13_2 N14_2 1_555 1_555
N14_2 C18_2 1_555 1_555
O5_2 Zn3_2 1_555 1_555
O6_2 C14_2 1_555 1_555
O7_2 C21_2 1_555 1_555
O8_2 C21_2 1_555 1_555
C14_2 O5_2 1_555 1_555
C15_2 C14_2 1_555 1_555
C16_2 C15_2 1_555 1_555
H10_2 C16_2 1_555 1_555
C17_2 C16_2 1_555 1_555
C18_2 N11_2 1_555 1_555
C19_2 C17_2 1_555 1_555
H11_2 C19_2 1_555 1_555
C20_2 C19_2 1_555 1_555
C21_2 C20_2 1_555 1_555
C22_2 C15_2 1_555 1_555
H12_2 C22_2 1_555 1_555
Zn4_2 O3_2 1_555 1_555
Zn4 O7_2 1_555 1_555
N16_2 Zn3_2 1_555 1_555
C4_2 C5_2 1_555 1_555
C7_2 C9_2 1_555 1_555
C17_2 C18_2 1_555 1_555
C20_2 C22_2 1_555 1_555
Zn1_3 N3_2 1_555 1_555
N1_2 N2_2 1_555 1_555
N2_2 C11_2 1_555 1_555
N3_2 C10_2 1_555 1_555
C10_2 N1_2 1_555 1_555
C11_2 N3_2 1_555 1_555
C12_2 C10_2 1_555 1_555
H4_2 C12_2 1_555 1_555
H5_2 C12_2 1_555 1_555
H6_2 C12_2 1_555 1_555
C13_2 C11_2 1_555 1_555
H7_2 C13_2 1_555 1_555
H8_2 C13_2 1_555 1_555
H9_2 C13_2 1_555 1_555
N8_2 N9_2 1_555 1_555
N9_2 C24_2 1_555 1_555
N10_2 Zn1_3 1_555 1_555
C23_2 N8_2 1_555 1_555
C24_2 N10_2 1_555 1_555
C25_2 C23_2 1_555 1_555
H13_2 C25_2 1_555 1_555
H14_2 C25_2 1_555 1_555
H15_2 C25_2 1_555 1_555
C26_2 C24_2 1_555 1_555
H16_2 C26_2 1_555 1_555
H17_2 C26_2 1_555 1_555
H18_2 C26_2 1_555 1_555
O9_2 Zn1_3 1_555 1_555
O10_2 Zn1_3 1_555 1_555
N9_2 Zn7_2 1_555 1_555
N10_2 C23_2 1_555 1_555
Zn6 N1_3 1_555 1_555
N4_3 N17 1_555 1_555
N17 N6_3 1_555 1_555
N6_3 N7_3 1_555 1_555
N7_3 C5_3 1_555 1_555
O1_3 Zn6 1_555 1_555
O2_3 C1_3 1_555 1_555
O9_2 C8_3 1_555 1_555
O4_3 C8_3 1_555 1_555
C1_3 O1_3 1_555 1_555
C2_3 C1_3 1_555 1_555
C3_3 C2_3 1_555 1_555
H1_3 C3_3 1_555 1_555
C4_3 C3_3 1_555 1_555
C5_3 N4_3 1_555 1_555
C6_3 C4_3 1_555 1_555
H2_3 C6_3 1_555 1_555
C7_3 C6_3 1_555 1_555
C8_3 C7_3 1_555 1_555
C9_3 C2_3 1_555 1_555
H3_3 C9_3 1_555 1_555
C10_3 N1_3 1_555 1_555
C12_3 C10_3 1_555 1_555
H4_3 C12_3 1_555 1_555
H5_3 C12_3 1_555 1_555
H6_3 C12_3 1_555 1_555
N16 C24_3 1_555 1_555
N10_3 Zn4 1_555 1_555
C24_3 N10_3 1_555 1_555
C26_3 C24_3 1_555 1_555
H16_3 C26_3 1_555 1_555
H17_3 C26_3 1_555 1_555
H18_3 C26_3 1_555 1_555
C4_3 C5_3 1_555 1_555
C7_3 C9_3 1_555 1_555
Zn4_2 N3_3 1_555 1_555
N15 C11_3 1_555 1_555
C11_3 N3_3 1_555 1_555
C13_3 C11_3 1_555 1_555
H7_3 C13_3 1_555 1_555
H8_3 C13_3 1_555 1_555
H9_3 C13_3 1_555 1_555
Zn7 N8_3 1_555 1_555
N11_3 N18 1_555 1_555
N18 N13_3 1_555 1_555
N13_3 N14_3 1_555 1_555
N14_3 C18_3 1_555 1_555
O5_3 Zn7 1_555 1_555
O6_3 C14_3 1_555 1_555
O10_2 C21_3 1_555 1_555
O8_3 C21_3 1_555 1_555
C14_3 O5_3 1_555 1_555
C15_3 C14_3 1_555 1_555
C16_3 C15_3 1_555 1_555
H10_3 C16_3 1_555 1_555
C17_3 C16_3 1_555 1_555
C18_3 N11_3 1_555 1_555
C19_3 C17_3 1_555 1_555
H11_3 C19_3 1_555 1_555
C20_3 C19_3 1_555 1_555
C21_3 C20_3 1_555 1_555
C22_3 C15_3 1_555 1_555
H12_3 C22_3 1_555 1_555
C23_3 N8_3 1_555 1_555
C25_3 C23_3 1_555 1_555
H13_3 C25_3 1_555 1_555
H14_3 C25_3 1_555 1_555
H15_3 C25_3 1_555 1_555
C17_3 C18_3 1_555 1_555
C20_3 C22_3 1_555 1_555
Zn5 N3_4 1_555 1_555
N1_4 N15_2 1_555 1_555
N15_2 C11_4 1_555 1_555
N3_4 C10_4 1_555 1_555
C10_4 N1_4 1_555 1_555
C11_4 N3_4 1_555 1_555
C12_4 C10_4 1_555 1_555
H4_4 C12_4 1_555 1_555
H5_4 C12_4 1_555 1_555
H6_4 C12_4 1_555 1_555
C13_4 C11_4 1_555 1_555
H7_4 C13_4 1_555 1_555
H8_4 C13_4 1_555 1_555
H9_4 C13_4 1_555 1_555
N8_4 N16_2 1_555 1_555
N16_2 C24_4 1_555 1_555
N10_4 Zn5 1_555 1_555
C23_4 N8_4 1_555 1_555
C24_4 N10_4 1_555 1_555
C25_4 C23_4 1_555 1_555
H13_4 C25_4 1_555 1_555
H14_4 C25_4 1_555 1_555
H15_4 C25_4 1_555 1_555
C26_4 C24_4 1_555 1_555
H16_4 C26_4 1_555 1_555
H17_4 C26_4 1_555 1_555
H18_4 C26_4 1_555 1_555
N10_4 C23_4 1_555 1_555
N4_4 N17_2 1_555 1_555
N17_2 N6_4 1_555 1_555
N6_4 N7_4 1_555 1_555
N7_4 C5_4 1_555 1_555
O1_4 Zn6_2 1_555 1_555
O2_4 C1_4 1_555 1_555
O9 C8_4 1_555 1_555
O4_4 C8_4 1_555 1_555
C1_4 O1_4 1_555 1_555
C2_4 C1_4 1_555 1_555
C3_4 C2_4 1_555 1_555
H1_4 C3_4 1_555 1_555
C4_4 C3_4 1_555 1_555
C5_4 N4_4 1_555 1_555
C6_4 C4_4 1_555 1_555
H2_4 C6_4 1_555 1_555
C7_4 C6_4 1_555 1_555
C8_4 C7_4 1_555 1_555
C9_4 C2_4 1_555 1_555
H3_4 C9_4 1_555 1_555
N11_4 N18_2 1_555 1_555
N18_2 N13_4 1_555 1_555
N13_4 N14_4 1_555 1_555
N14_4 C18_4 1_555 1_555
O5_4 Zn7_2 1_555 1_555
O6_4 C14_4 1_555 1_555
O10 C21_4 1_555 1_555
O8_4 C21_4 1_555 1_555
C14_4 O5_4 1_555 1_555
C15_4 C14_4 1_555 1_555
C16_4 C15_4 1_555 1_555
H10_4 C16_4 1_555 1_555
C17_4 C16_4 1_555 1_555
C18_4 N11_4 1_555 1_555
C19_4 C17_4 1_555 1_555
H11_4 C19_4 1_555 1_555
C20_4 C19_4 1_555 1_555
C21_4 C20_4 1_555 1_555
C22_4 C15_4 1_555 1_555
H12_4 C22_4 1_555 1_555
C4_4 C5_4 1_555 1_555
C7_4 C9_4 1_555 1_555
C17_4 C18_4 1_555 1_555
C20_4 C22_4 1_555 1_555

#END
