
###############################################################################
#
# This file contains modified crystal structure data generated from the
# MOF subset of the Cambridge Structural Database (CSD) v543 
# hosted by the Cambridge Crystallographic Data Centre (CCDC).
#
# This work is licensed under the Creative Commons
# Attribution-NonCommercial-ShareAlike 4.0 International License.
# To view a copy of this license, visit
# http://creativecommons.org/licenses/by-nc-sa/4.0/
# or send a letter to
# Creative Commons, PO Box 1866, Mountain View, CA 94042, USA.
#
# CIF created using the CSD Python API on 29 September 2022
# The structure has been converted into the P1 space group
# The structure has a 3D framework
# The original CSD entry QALZIQ is in the monoclinic crystal system
# The framework has been calculated to contain at least 10.0% void space
# The void calculation uses a probe of radius 1.32A, grid spacing 0.4
#
###############################################################################

data_QALZIQ
_chemical_formula_moiety         '(C408 H325 Cu40 N8 O201)n'
_symmetry_cell_setting           triclinic
_symmetry_space_group_name_H-M   'P 1'
_symmetry_Int_Tables_number      1
_space_group_name_Hall           'P 1'
loop_
_symmetry_equiv_pos_site_id
_symmetry_equiv_pos_as_xyz
1 x,y,z
_cell_length_a                   32.031(6)
_cell_length_b                   18.235(5)
_cell_length_c                   41.925(10)
_cell_angle_alpha                90
_cell_angle_beta                 95.246(12)
_cell_angle_gamma                90
_cell_volume                     24385.2
loop_
_atom_site_label
_atom_site_type_symbol
_atom_site_fract_x
_atom_site_fract_y
_atom_site_fract_z
H4 H 0.465987 0.015640 0.338453
H37 H 0.353386 0.052067 0.287580
H41 H 0.326399 0.029497 0.349135
O29 O 0.06757(18) 0.0575(3) 0.45441(11)
O31 O 0.51706(13) 0.0621(3) 0.28827(10)
O32 O 0.44251(12) 0.0521(2) 0.25278(10)
O35 O 0.07143(18) 0.0216(3) 0.52157(11)
Cu2 Cu 0.03979(3) 0.98915(5) 0.48150(2)
O2 O 0.45527(14) 0.9818(3) 0.32251(11)
H3 H 0.434014 0.948059 0.327021
Cu3 Cu 0.23230(2) 0.70093(4) 0.22483(2)
O3 O 0.2106(2) 0.6311(4) 0.18583(16)
H5 H 0.183048 0.611670 0.185152
H6 H 0.228310 0.618269 0.169704
Cu4 Cu 0.47921(2) 0.98128(4) 0.27611(2)
O4 O 0.00684(14) 0.9217(2) 0.50442(9)
H7 H 0.023083 0.899008 0.523411
Cu5 Cu 0.26070(3) 0.77795(4) 0.27600(2)
O5 O 0.44341(19) 0.6681(3) 0.02473(12)
C1 C 0.4338(3) 0.6248(4) 0.04655(17)
O6 O 0.43243(18) 0.5575(3) 0.04559(11)
C2 C 0.4096(3) 0.6167(4) 0.10111(17)
H8 H 0.407127 0.565132 0.098464
O7 O 0.47668(12) 0.9117(2) 0.20975(10)
C3 C 0.4008(3) 0.6500(4) 0.12964(17)
H9 H 0.393294 0.620096 0.146770
O8 O 0.44585(11) 0.9028(2) 0.25547(9)
C4 C 0.4027(2) 0.7244(4) 0.13373(16)
O9 O 0.28755(13) 0.7136(2) 0.21027(10)
C5 C 0.4112(3) 0.7681(4) 0.10804(17)
O10 O 0.31252(13) 0.7738(2) 0.25445(9)
C6 C 0.4212(3) 0.7350(4) 0.07984(17)
H10 H 0.427615 0.764579 0.062287
O11 O 0.4102(3) 0.8419(3) 0.11224(14)
C7 C 0.3958(2) 0.7574(3) 0.16594(15)
C8 C 0.3606(2) 0.7368(3) 0.18126(15)
H11 H 0.340687 0.703706 0.171171
C9 C 0.35491(18) 0.7655(3) 0.21160(14)
C10 C 0.38432(17) 0.8123(3) 0.22667(14)
H12 H 0.380932 0.830262 0.247547
C11 C 0.41908(18) 0.8330(3) 0.21096(14)
C12 C 0.42453(19) 0.8049(3) 0.18058(15)
H13 H 0.448304 0.819037 0.170042
C13 C 0.44968(16) 0.8864(3) 0.22699(14)
C14 C 0.31558(18) 0.7479(3) 0.22671(14)
C15 C 0.4215(5) 0.8895(5) 0.0862(3)
H14 H 0.419322 0.940907 0.092590
H15 H 0.450342 0.878960 0.081561
H16 H 0.402395 0.880312 0.066982
C16 C 0.4218(3) 0.6596(4) 0.07712(16)
C17 C 0.0175(3) 0.8746(5) 0.43331(18)
O13 O 0.0283(2) 0.9382(3) 0.44044(12)
C18 C 0.0369(3) 0.7625(5) 0.4032(2)
H17 H 0.025028 0.732675 0.418595
O14 O 0.01706(13) 0.5621(3) 0.28827(10)
C19 C 0.0533(3) 0.7309(5) 0.3772(2)
H18 H 0.051505 0.679257 0.374280
O15 O 0.05749(12) 0.5521(2) 0.24722(10)
C20 C 0.0726(3) 0.7733(4) 0.35505(19)
O16 O 0.18122(13) 0.7005(2) 0.24651(10)
C21 C 0.0742(4) 0.8478(5) 0.3595(2)
O17 O 0.20410(13) 0.7687(2) 0.28947(10)
C22 C 0.0580(3) 0.8816(5) 0.3858(2)
H19 H 0.060908 0.932911 0.389073
O18 O 0.0909(3) 0.8881(3) 0.33587(17)
C23 C 0.0884(2) 0.7354(4) 0.32713(18)
C24 C 0.0624(2) 0.6781(4) 0.31333(17)
H20 H 0.037131 0.665533 0.322215
C25 C 0.07444(19) 0.6408(3) 0.28678(16)
C26 C 0.11118(19) 0.6603(3) 0.27317(15)
H21 H 0.118501 0.636132 0.254385
C27 C 0.1367(2) 0.7146(3) 0.28707(16)
C28 C 0.1256(2) 0.7522(4) 0.31442(17)
H22 H 0.143547 0.788972 0.324089
C29 C 0.04835(18) 0.5807(3) 0.27311(15)
C30 C 0.1774(2) 0.7304(3) 0.27378(16)
C31 C 0.0930(5) 0.9698(6) 0.3405(3)
H23 H 0.105384 0.992413 0.322350
H24 H 0.064677 0.989151 0.341776
H25 H 0.110359 0.981107 0.360361
C32 C 0.0378(3) 0.8391(4) 0.40662(19)
O19 O 0.3850(2) 0.5597(4) 0.49165(14)
C33 C 0.3961(3) 0.5151(5) 0.47287(17)
O20 O 0.42857(18) 0.4784(3) 0.47843(11)
C34 C 0.3884(3) 0.4604(5) 0.41830(19)
H26 H 0.413228 0.433216 0.424149
O21 O 0.27499(14) 0.6850(2) 0.29659(10)
C35 C 0.3682(3) 0.4557(6) 0.3863(2)
O22 O 0.25296(15) 0.6202(2) 0.25235(10)
C36 C 0.3321(3) 0.4920(5) 0.3787(2)
O23 O 0.25762(13) 0.3586(2) 0.25201(10)
C37 C 0.3142(3) 0.5361(6) 0.4018(2)
H27 H 0.288899 0.562449 0.396758
O24 O 0.28349(14) 0.2951(2) 0.29505(10)
C38 C 0.3359(3) 0.5386(6) 0.4325(2)
H28 H 0.324260 0.566543 0.448625
C39 C 0.3108(3) 0.4903(4) 0.34480(18)
C40 C 0.3004(2) 0.5555(4) 0.32916(17)
H29 H 0.306591 0.600608 0.339889
C41 C 0.2812(2) 0.5563(4) 0.29797(16)
C42 C 0.2731(2) 0.4891(3) 0.28201(16)
H30 H 0.260051 0.488664 0.260741
C43 C 0.2841(2) 0.4247(3) 0.29704(15)
C44 C 0.3033(2) 0.4243(4) 0.32892(17)
H31 H 0.310881 0.379224 0.339258
C45 C 0.2682(2) 0.6255(3) 0.28129(16)
C46 C 0.2753(2) 0.3543(3) 0.28037(15)
C47 C 0.3718(3) 0.5039(5) 0.43995(17)
O25 O 0.3898(4) 0.4143(8) 0.3646(3)
C48 C 0.4294(6) 0.3773(13) 0.3727(5)
H32 H 0.438104 0.352290 0.353726
H33 H 0.450736 0.413439 0.380247
H34 H 0.426159 0.341332 0.389657
C49 C 0.3096(3) 0.9001(6) 0.2978(3)
H35 H 0.311348 0.891334 0.275653
O26 O 0.2863(2) 0.8472(4) 0.31356(17)
N1 N 0.3314(3) 0.9663(6) 0.31048(19)
C50 C 0.3571(3) 0.9987(6) 0.2877(2)
H36 H 0.348727 0.979232 0.266256
H38 H 0.386620 0.986902 0.293699
C51 C 0.3320(4) 0.9778(6) 0.3449(2)
H39 H 0.310469 0.947199 0.353397
H40 H 0.359633 0.964332 0.355253
Cu6 Cu 0.46466(4) 0.35742(6) 0.48459(3)
Cu8 Cu 0.46021(3) 0.48915(5) 0.01850(2)
Cu10 Cu 0.46021(3) 0.51085(5) 0.51850(2)
Cu11 Cu 0.26770(2) 0.20093(4) 0.27517(2)
Cu12 Cu 0.52079(2) 0.98128(4) 0.22389(2)
Cu14 Cu 0.02079(2) 0.48128(4) 0.22389(2)
Cu15 Cu 0.23930(3) 0.27795(4) 0.22400(2)
O30 O 0.52332(12) 0.9117(2) 0.29025(10)
O33 O 0.1150(2) 0.9403(4) 0.50835(14)
O36 O 0.24238(13) 0.8586(2) 0.24799(10)
O37 O 0.21651(14) 0.7951(2) 0.20495(10)
Cu7 Cu 0.46466(4) 0.64258(6) 0.98459(3)
Cu9 Cu 0.96021(3) 0.01085(5) 0.51850(2)
O27 O 0.99316(14) 0.0783(2) 0.49558(9)
Cu1 Cu 0.96466(4) 0.85742(6) 0.48459(3)
O1 O 0.9178(2) 0.8003(4) 0.46280(15)
H1 H 0.920002 0.780775 0.442019
H2 H 0.893062 0.792481 0.473220
O12 O 0.9909(2) 0.8381(4) 0.44663(14)
Cu13 Cu 0.97921(2) 0.48128(4) 0.27611(2)
O28 O 0.94341(19) 0.8319(3) 0.52473(12)
O34 O 0.92857(18) 0.9784(3) 0.47843(11)
O27_2 O 0.00684(14) 0.0783(2) 0.00442(9)
Cu9_2 Cu 0.03979(3) 0.01085(5) 0.98150(2)
Cu1_2 Cu 0.03534(4) 0.85742(6) 0.01541(3)
O1_2 O 0.0822(2) 0.8003(4) 0.03720(15)
H1_2 H 0.079998 0.780775 0.057981
H2_2 H 0.106938 0.792481 0.026780
O12_2 O 0.0091(2) 0.8381(4) 0.05337(14)
O34_2 O 0.07143(18) 0.9784(3) 0.02157(11)
O28_2 O 0.05659(19) 0.8319(3) 0.97527(12)
H4_2 H 0.534013 0.015640 0.161547
H37_2 H 0.646614 0.052067 0.212420
H41_2 H 0.673601 0.029497 0.150865
O29_2 O 0.93243(18) 0.0575(3) 0.04559(11)
O31_2 O 0.48294(13) 0.0621(3) 0.21173(10)
O32_2 O 0.55749(12) 0.0521(2) 0.24722(10)
O35_2 O 0.92857(18) 0.0216(3) 0.97843(11)
Cu2_2 Cu 0.96021(3) 0.98915(5) 0.01850(2)
O2_2 O 0.54473(14) 0.9818(3) 0.17749(11)
H3_2 H 0.565986 0.948059 0.172979
Cu3_2 Cu 0.76770(2) 0.70093(4) 0.27517(2)
O3_2 O 0.7894(2) 0.6311(4) 0.31417(16)
H5_2 H 0.816952 0.611670 0.314848
H6_2 H 0.771690 0.618269 0.330296
Cu5_2 Cu 0.73930(3) 0.77795(4) 0.22400(2)
O5_2 O 0.55659(19) 0.6681(3) 0.47527(12)
C1_2 C 0.5662(3) 0.6248(4) 0.45345(17)
O6_2 O 0.56757(18) 0.5575(3) 0.45441(11)
C2_2 C 0.5904(3) 0.6167(4) 0.39889(17)
H8_2 H 0.592873 0.565132 0.401536
C3_2 C 0.5992(3) 0.6500(4) 0.37036(17)
H9_2 H 0.606706 0.620096 0.353230
O8_2 O 0.55415(11) 0.9028(2) 0.24453(9)
C4_2 C 0.5973(2) 0.7244(4) 0.36627(16)
O9_2 O 0.71245(13) 0.7136(2) 0.28973(10)
C5_2 C 0.5888(3) 0.7681(4) 0.39196(17)
O10_2 O 0.68748(13) 0.7738(2) 0.24555(9)
C6_2 C 0.5788(3) 0.7350(4) 0.42016(17)
H10_2 H 0.572385 0.764579 0.437713
O11_2 O 0.5898(3) 0.8419(3) 0.38776(14)
C7_2 C 0.6042(2) 0.7574(3) 0.33406(15)
C8_2 C 0.6394(2) 0.7368(3) 0.31874(15)
H11_2 H 0.659313 0.703706 0.328829
C9_2 C 0.64509(18) 0.7655(3) 0.28840(14)
C10_2 C 0.61568(17) 0.8123(3) 0.27333(14)
H12_2 H 0.619068 0.830262 0.252453
C11_2 C 0.58092(18) 0.8330(3) 0.28904(14)
C12_2 C 0.57547(19) 0.8049(3) 0.31942(15)
H13_2 H 0.551696 0.819037 0.329958
C13_2 C 0.55032(16) 0.8864(3) 0.27301(14)
C14_2 C 0.68442(18) 0.7479(3) 0.27329(14)
C15_2 C 0.5785(5) 0.8895(5) 0.4138(3)
H14_2 H 0.580678 0.940907 0.407410
H15_2 H 0.549658 0.878960 0.418439
H16_2 H 0.597605 0.880312 0.433018
C16_2 C 0.5782(3) 0.6596(4) 0.42288(16)
C17_2 C 0.9825(3) 0.8746(5) 0.06669(18)
O13_2 O 0.9717(2) 0.9382(3) 0.05956(12)
C18_2 C 0.9631(3) 0.7625(5) 0.0968(2)
H17_2 H 0.974972 0.732675 0.081405
O14_2 O 0.98294(13) 0.5621(3) 0.21173(10)
C19_2 C 0.9467(3) 0.7309(5) 0.1228(2)
H18_2 H 0.948495 0.679257 0.125720
O15_2 O 0.94251(12) 0.5521(2) 0.25278(10)
C20_2 C 0.9274(3) 0.7733(4) 0.14495(19)
O16_2 O 0.81878(13) 0.7005(2) 0.25349(10)
C21_2 C 0.9258(4) 0.8478(5) 0.1405(2)
O17_2 O 0.79590(13) 0.7687(2) 0.21053(10)
C22_2 C 0.9420(3) 0.8816(5) 0.1142(2)
H19_2 H 0.939092 0.932911 0.110927
O18_2 O 0.9091(3) 0.8881(3) 0.16413(17)
C23_2 C 0.9116(2) 0.7354(4) 0.17287(18)
C24_2 C 0.9376(2) 0.6781(4) 0.18667(17)
H20_2 H 0.962869 0.665533 0.177785
C25_2 C 0.92556(19) 0.6408(3) 0.21322(16)
C26_2 C 0.88882(19) 0.6603(3) 0.22683(15)
H21_2 H 0.881499 0.636132 0.245615
C27_2 C 0.8633(2) 0.7146(3) 0.21293(16)
C28_2 C 0.8744(2) 0.7522(4) 0.18558(17)
H22_2 H 0.856453 0.788972 0.175911
C29_2 C 0.95165(18) 0.5807(3) 0.22689(15)
C30_2 C 0.8226(2) 0.7304(3) 0.22622(16)
C31_2 C 0.9070(5) 0.9698(6) 0.1595(3)
H23_2 H 0.894616 0.992413 0.177650
H24_2 H 0.935323 0.989151 0.158224
H25_2 H 0.889641 0.981107 0.139639
C32_2 C 0.9622(3) 0.8391(4) 0.09338(19)
O19_2 O 0.6150(2) 0.5597(4) 0.00835(14)
C33_2 C 0.6039(3) 0.5151(5) 0.02713(17)
O20_2 O 0.57143(18) 0.4784(3) 0.02157(11)
C34_2 C 0.6116(3) 0.4604(5) 0.08170(19)
H26_2 H 0.586772 0.433216 0.075851
O21_2 O 0.72501(14) 0.6850(2) 0.20341(10)
C35_2 C 0.6318(3) 0.4557(6) 0.1137(2)
O22_2 O 0.74704(15) 0.6202(2) 0.24765(10)
C36_2 C 0.6679(3) 0.4920(5) 0.1213(2)
O23_2 O 0.74238(13) 0.3586(2) 0.24799(10)
C37_2 C 0.6858(3) 0.5361(6) 0.0982(2)
H27_2 H 0.711101 0.562449 0.103242
O24_2 O 0.71651(14) 0.2951(2) 0.20495(10)
C38_2 C 0.6641(3) 0.5386(6) 0.0675(2)
H28_2 H 0.675740 0.566543 0.051375
C39_2 C 0.6892(3) 0.4903(4) 0.15520(18)
C40_2 C 0.6996(2) 0.5555(4) 0.17084(17)
H29_2 H 0.693409 0.600608 0.160111
C41_2 C 0.7188(2) 0.5563(4) 0.20203(16)
C42_2 C 0.7269(2) 0.4891(3) 0.21799(16)
H30_2 H 0.739949 0.488664 0.239259
C43_2 C 0.7159(2) 0.4247(3) 0.20296(15)
C44_2 C 0.6967(2) 0.4243(4) 0.17108(17)
H31_2 H 0.689119 0.379224 0.160742
C45_2 C 0.7318(2) 0.6255(3) 0.21871(16)
C46_2 C 0.7247(2) 0.3543(3) 0.21963(15)
C47_2 C 0.6282(3) 0.5039(5) 0.06005(17)
O25_2 O 0.6102(4) 0.4143(8) 0.1354(3)
C48_2 C 0.5706(6) 0.3773(13) 0.1273(5)
H32_2 H 0.561896 0.352290 0.146274
H33_2 H 0.549264 0.413439 0.119753
H34_2 H 0.573841 0.341332 0.110343
C49_2 C 0.6904(3) 0.9001(6) 0.2022(3)
H35_2 H 0.688652 0.891334 0.224347
O26_2 O 0.7137(2) 0.8472(4) 0.18644(17)
N1_2 N 0.6686(3) 0.9663(6) 0.18952(19)
C50_2 C 0.6429(3) 0.9987(6) 0.2123(2)
H36_2 H 0.651273 0.979232 0.233744
H38_2 H 0.613380 0.986902 0.206301
C51_2 C 0.6680(4) 0.9778(6) 0.1551(2)
H39_2 H 0.689531 0.947199 0.146603
H40_2 H 0.640367 0.964332 0.144747
Cu6_2 Cu 0.53534(4) 0.35742(6) 0.01541(3)
Cu7_2 Cu 0.53534(4) 0.64258(6) 0.51541(3)
Cu8_2 Cu 0.53979(3) 0.48915(5) 0.48150(2)
Cu11_2 Cu 0.73230(2) 0.20093(4) 0.22483(2)
Cu15_2 Cu 0.76070(3) 0.27795(4) 0.27600(2)
O36_2 O 0.75762(13) 0.8586(2) 0.25201(10)
O37_2 O 0.78349(14) 0.7951(2) 0.29505(10)
O4_2 O 0.99316(14) 0.9217(2) 0.99558(9)
H7_2 H 0.976917 0.899008 0.976589
Cu10_2 Cu 0.53979(3) 0.51085(5) 0.98150(2)
O33_2 O 0.8850(2) 0.9403(4) 0.99165(14)
O30_2 O 0.02332(12) 0.4117(2) 0.29025(10)
O1_3 O 0.4178(2) 0.3003(4) 0.46280(15)
H1_3 H 0.420002 0.280775 0.442019
H2_3 H 0.393062 0.292481 0.473220
O2_3 O 0.95527(14) 0.4818(3) 0.32251(11)
H3_3 H 0.934014 0.448059 0.327021
H4_3 H 0.965987 0.515640 0.338453
O3_3 O 0.7106(2) 0.1311(4) 0.18583(16)
H5_3 H 0.683048 0.111670 0.185152
H6_3 H 0.728310 0.118269 0.169704
O4_3 O 0.50684(14) 0.4217(2) 0.50442(9)
H7_3 H 0.523083 0.399008 0.523411
O5_3 O 0.94341(19) 0.1681(3) 0.02473(12)
C1_3 C 0.9338(3) 0.1248(4) 0.04655(17)
C2_3 C 0.9096(3) 0.1167(4) 0.10111(17)
H8_3 H 0.907127 0.065132 0.098464
O7_2 O 0.97668(12) 0.4117(2) 0.20975(10)
C3_3 C 0.9008(3) 0.1500(4) 0.12964(17)
H9_3 H 0.893294 0.120096 0.146770
O8_3 O 0.94585(11) 0.4028(2) 0.25547(9)
C4_3 C 0.9027(2) 0.2244(4) 0.13373(16)
O9_3 O 0.78755(13) 0.2136(2) 0.21027(10)
C5_3 C 0.9112(3) 0.2681(4) 0.10804(17)
O10_3 O 0.81252(13) 0.2738(2) 0.25445(9)
C6_3 C 0.9212(3) 0.2350(4) 0.07984(17)
H10_3 H 0.927615 0.264579 0.062287
O11_3 O 0.9102(3) 0.3419(3) 0.11224(14)
C7_3 C 0.8958(2) 0.2574(3) 0.16594(15)
C8_3 C 0.8606(2) 0.2368(3) 0.18126(15)
H11_3 H 0.840687 0.203706 0.171171
C9_3 C 0.85491(18) 0.2655(3) 0.21160(14)
C10_3 C 0.88432(17) 0.3123(3) 0.22667(14)
H12_3 H 0.880932 0.330262 0.247547
C11_3 C 0.91908(18) 0.3330(3) 0.21096(14)
C12_3 C 0.92453(19) 0.3049(3) 0.18058(15)
H13_3 H 0.948304 0.319037 0.170042
C13_3 C 0.94968(16) 0.3864(3) 0.22699(14)
C14_3 C 0.81558(18) 0.2479(3) 0.22671(14)
C15_3 C 0.9215(5) 0.3895(5) 0.0862(3)
H14_3 H 0.919322 0.440907 0.092590
H15_3 H 0.950342 0.378960 0.081561
H16_3 H 0.902395 0.380312 0.066982
C16_3 C 0.9218(3) 0.1596(4) 0.07712(16)
O12_3 O 0.4909(2) 0.3381(4) 0.44663(14)
C17_3 C 0.5175(3) 0.3746(5) 0.43331(18)
O13_3 O 0.5283(2) 0.4382(3) 0.44044(12)
C18_3 C 0.5369(3) 0.2625(5) 0.4032(2)
H17_3 H 0.525028 0.232675 0.418595
C19_3 C 0.5533(3) 0.2309(5) 0.3772(2)
H18_3 H 0.551505 0.179257 0.374280
C20_3 C 0.5726(3) 0.2733(4) 0.35505(19)
O16_3 O 0.68122(13) 0.2005(2) 0.24651(10)
C21_3 C 0.5742(4) 0.3478(5) 0.3595(2)
O17_3 O 0.70410(13) 0.2687(2) 0.28947(10)
C22_3 C 0.5580(3) 0.3816(5) 0.3858(2)
H19_3 H 0.560908 0.432911 0.389073
O18_3 O 0.5909(3) 0.3881(3) 0.33587(17)
C23_3 C 0.5884(2) 0.2354(4) 0.32713(18)
C24_3 C 0.5624(2) 0.1781(4) 0.31333(17)
H20_3 H 0.537131 0.165533 0.322215
C25_3 C 0.57444(19) 0.1408(3) 0.28678(16)
C26_3 C 0.61118(19) 0.1603(3) 0.27317(15)
H21_3 H 0.618501 0.136132 0.254385
C27_3 C 0.6367(2) 0.2146(3) 0.28707(16)
C28_3 C 0.6256(2) 0.2522(4) 0.31442(17)
H22_3 H 0.643547 0.288972 0.324089
C29_3 C 0.54835(18) 0.0807(3) 0.27311(15)
C30_3 C 0.6774(2) 0.2304(3) 0.27378(16)
C31_3 C 0.5930(5) 0.4698(6) 0.3405(3)
H23_3 H 0.605384 0.492413 0.322350
H24_3 H 0.564677 0.489151 0.341776
H25_3 H 0.610359 0.481107 0.360361
C32_3 C 0.5378(3) 0.3391(4) 0.40662(19)
O19_3 O 0.8850(2) 0.0597(4) 0.49165(14)
C33_3 C 0.8961(3) 0.0151(5) 0.47287(17)
O21_3 O 0.77499(14) 0.1850(2) 0.29659(10)
O22_3 O 0.75296(15) 0.1202(2) 0.25235(10)
C37_3 C 0.8142(3) 0.0361(6) 0.4018(2)
H27_3 H 0.788899 0.062449 0.396758
C38_3 C 0.8359(3) 0.0386(6) 0.4325(2)
H28_3 H 0.824260 0.066543 0.448625
C40_3 C 0.8004(2) 0.0555(4) 0.32916(17)
H29_3 H 0.806591 0.100608 0.339889
C41_3 C 0.7812(2) 0.0563(4) 0.29797(16)
C45_3 C 0.7682(2) 0.1255(3) 0.28129(16)
C47_3 C 0.8718(3) 0.0039(5) 0.43995(17)
C49_3 C 0.8096(3) 0.4001(6) 0.2978(3)
H35_3 H 0.811348 0.391334 0.275653
O26_3 O 0.7863(2) 0.3472(4) 0.31356(17)
N1_3 N 0.8314(3) 0.4663(6) 0.31048(19)
C50_3 C 0.8571(3) 0.4987(6) 0.2877(2)
H36_3 H 0.848727 0.479232 0.266256
H37_3 H 0.853386 0.552067 0.287580
H38_3 H 0.886620 0.486902 0.293699
C51_3 C 0.8320(4) 0.4778(6) 0.3449(2)
H39_3 H 0.810469 0.447199 0.353397
H40_3 H 0.859633 0.464332 0.355253
H41_3 H 0.826399 0.529497 0.349135
O27_3 O 0.49316(14) 0.5783(2) 0.49558(9)
O28_3 O 0.44341(19) 0.3319(3) 0.52473(12)
O33_3 O 0.6150(2) 0.4403(4) 0.50835(14)
O35_3 O 0.57143(18) 0.5216(3) 0.52157(11)
Cu7_3 Cu 0.96466(4) 0.14258(6) 0.98459(3)
C34_3 C 0.8884(3) 0.9604(5) 0.41830(19)
H26_3 H 0.913228 0.933216 0.424149
C35_3 C 0.8682(3) 0.9557(6) 0.3863(2)
C36_3 C 0.8321(3) 0.9920(5) 0.3787(2)
C39_3 C 0.8108(3) 0.9903(4) 0.34480(18)
C42_3 C 0.7731(2) 0.9891(3) 0.28201(16)
H30_3 H 0.760051 0.988664 0.260741
C43_3 C 0.7841(2) 0.9247(3) 0.29704(15)
C44_3 C 0.8033(2) 0.9243(4) 0.32892(17)
H31_3 H 0.810881 0.879224 0.339258
C46_3 C 0.7753(2) 0.8543(3) 0.28037(15)
O25_3 O 0.8898(4) 0.9143(8) 0.3646(3)
C48_3 C 0.9294(6) 0.8773(13) 0.3727(5)
H32_3 H 0.938104 0.852290 0.353726
H33_3 H 0.950736 0.913439 0.380247
H34_3 H 0.926159 0.841332 0.389657
O1_4 O 0.5822(2) 0.3003(4) 0.03720(15)
H1_4 H 0.579998 0.280775 0.057981
H2_4 H 0.606938 0.292481 0.026780
O2_4 O 0.04473(14) 0.4818(3) 0.17749(11)
H3_4 H 0.065986 0.448059 0.172979
H4_4 H 0.034013 0.515640 0.161547
O3_4 O 0.2894(2) 0.1311(4) 0.31417(16)
H5_4 H 0.316952 0.111670 0.314848
H6_4 H 0.271690 0.118269 0.330296
O5_4 O 0.05659(19) 0.1681(3) 0.47527(12)
C1_4 C 0.0662(3) 0.1248(4) 0.45345(17)
C2_4 C 0.0904(3) 0.1167(4) 0.39889(17)
H8_4 H 0.092873 0.065132 0.401536
C3_4 C 0.0992(3) 0.1500(4) 0.37036(17)
H9_4 H 0.106706 0.120096 0.353230
O8_4 O 0.05415(11) 0.4028(2) 0.24453(9)
C4_4 C 0.0973(2) 0.2244(4) 0.36627(16)
O9_4 O 0.21245(13) 0.2136(2) 0.28973(10)
C5_4 C 0.0888(3) 0.2681(4) 0.39196(17)
O10_4 O 0.18748(13) 0.2738(2) 0.24555(9)
C6_4 C 0.0788(3) 0.2350(4) 0.42016(17)
H10_4 H 0.072385 0.264579 0.437713
O11_4 O 0.0898(3) 0.3419(3) 0.38776(14)
C7_4 C 0.1042(2) 0.2574(3) 0.33406(15)
C8_4 C 0.1394(2) 0.2368(3) 0.31874(15)
H11_4 H 0.159313 0.203706 0.328829
C9_4 C 0.14509(18) 0.2655(3) 0.28840(14)
C10_4 C 0.11568(17) 0.3123(3) 0.27333(14)
H12_4 H 0.119068 0.330262 0.252453
C11_4 C 0.08092(18) 0.3330(3) 0.28904(14)
C12_4 C 0.07547(19) 0.3049(3) 0.31942(15)
H13_4 H 0.051696 0.319037 0.329958
C13_4 C 0.05032(16) 0.3864(3) 0.27301(14)
C14_4 C 0.18442(18) 0.2479(3) 0.27329(14)
C15_4 C 0.0785(5) 0.3895(5) 0.4138(3)
H14_4 H 0.080678 0.440907 0.407410
H15_4 H 0.049658 0.378960 0.418439
H16_4 H 0.097605 0.380312 0.433018
C16_4 C 0.0782(3) 0.1596(4) 0.42288(16)
O12_4 O 0.5091(2) 0.3381(4) 0.05337(14)
C17_4 C 0.4825(3) 0.3746(5) 0.06669(18)
O13_4 O 0.4717(2) 0.4382(3) 0.05956(12)
C18_4 C 0.4631(3) 0.2625(5) 0.0968(2)
H17_4 H 0.474972 0.232675 0.081405
C19_4 C 0.4467(3) 0.2309(5) 0.1228(2)
H18_4 H 0.448495 0.179257 0.125720
C20_4 C 0.4274(3) 0.2733(4) 0.14495(19)
O16_4 O 0.31878(13) 0.2005(2) 0.25349(10)
C21_4 C 0.4258(4) 0.3478(5) 0.1405(2)
O17_4 O 0.29590(13) 0.2687(2) 0.21053(10)
C22_4 C 0.4420(3) 0.3816(5) 0.1142(2)
H19_4 H 0.439092 0.432911 0.110927
O18_4 O 0.4091(3) 0.3881(3) 0.16413(17)
C23_4 C 0.4116(2) 0.2354(4) 0.17287(18)
C24_4 C 0.4376(2) 0.1781(4) 0.18667(17)
H20_4 H 0.462869 0.165533 0.177785
C25_4 C 0.42556(19) 0.1408(3) 0.21322(16)
C26_4 C 0.38882(19) 0.1603(3) 0.22683(15)
H21_4 H 0.381499 0.136132 0.245615
C27_4 C 0.3633(2) 0.2146(3) 0.21293(16)
C28_4 C 0.3744(2) 0.2522(4) 0.18558(17)
H22_4 H 0.356453 0.288972 0.175911
C29_4 C 0.45165(18) 0.0807(3) 0.22689(15)
C30_4 C 0.3226(2) 0.2304(3) 0.22622(16)
C31_4 C 0.4070(5) 0.4698(6) 0.1595(3)
H23_4 H 0.394616 0.492413 0.177650
H24_4 H 0.435323 0.489151 0.158224
H25_4 H 0.389641 0.481107 0.139639
C32_4 C 0.4622(3) 0.3391(4) 0.09338(19)
O19_4 O 0.1150(2) 0.0597(4) 0.00835(14)
C33_4 C 0.1039(3) 0.0151(5) 0.02713(17)
O21_4 O 0.22501(14) 0.1850(2) 0.20341(10)
O22_4 O 0.24704(15) 0.1202(2) 0.24765(10)
C37_4 C 0.1858(3) 0.0361(6) 0.0982(2)
H27_4 H 0.211101 0.062449 0.103242
C38_4 C 0.1641(3) 0.0386(6) 0.0675(2)
H28_4 H 0.175740 0.066543 0.051375
C40_4 C 0.1996(2) 0.0555(4) 0.17084(17)
H29_4 H 0.193409 0.100608 0.160111
C41_4 C 0.2188(2) 0.0563(4) 0.20203(16)
C45_4 C 0.2318(2) 0.1255(3) 0.21871(16)
C47_4 C 0.1282(3) 0.0039(5) 0.06005(17)
C49_4 C 0.1904(3) 0.4001(6) 0.2022(3)
H35_4 H 0.188652 0.391334 0.224347
O26_4 O 0.2137(2) 0.3472(4) 0.18644(17)
N1_4 N 0.1686(3) 0.4663(6) 0.18952(19)
C50_4 C 0.1429(3) 0.4987(6) 0.2123(2)
H36_4 H 0.151273 0.479232 0.233744
H37_4 H 0.146614 0.552067 0.212420
H38_4 H 0.113380 0.486902 0.206301
C51_4 C 0.1680(4) 0.4778(6) 0.1551(2)
H39_4 H 0.189531 0.447199 0.146603
H40_4 H 0.140367 0.464332 0.144747
H41_4 H 0.173601 0.529497 0.150865
Cu7_4 Cu 0.03534(4) 0.14258(6) 0.51541(3)
O27_4 O 0.50684(14) 0.5783(2) 0.00442(9)
O4_4 O 0.49316(14) 0.4217(2) 0.99558(9)
H7_4 H 0.476917 0.399008 0.976589
O28_4 O 0.55659(19) 0.3319(3) 0.97527(12)
O33_4 O 0.3850(2) 0.4403(4) 0.99165(14)
O35_4 O 0.42857(18) 0.5216(3) 0.97843(11)
C34_4 C 0.1116(3) 0.9604(5) 0.08170(19)
H26_4 H 0.086772 0.933216 0.075851
C35_4 C 0.1318(3) 0.9557(6) 0.1137(2)
C36_4 C 0.1679(3) 0.9920(5) 0.1213(2)
C39_4 C 0.1892(3) 0.9903(4) 0.15520(18)
C42_4 C 0.2269(2) 0.9891(3) 0.21799(16)
H30_4 H 0.239949 0.988664 0.239259
C43_4 C 0.2159(2) 0.9247(3) 0.20296(15)
C44_4 C 0.1967(2) 0.9243(4) 0.17108(17)
H31_4 H 0.189119 0.879224 0.160742
C46_4 C 0.2247(2) 0.8543(3) 0.21963(15)
O25_4 O 0.1102(4) 0.9143(8) 0.1354(3)
C48_4 C 0.0706(6) 0.8773(13) 0.1273(5)
H32_4 H 0.061896 0.852290 0.146274
H33_4 H 0.049264 0.913439 0.119753
H34_4 H 0.073841 0.841332 0.110343
O1_5 O 0.0822(2) 0.1997(4) 0.53720(15)
H1_5 H 0.079998 0.219225 0.557981
H2_5 H 0.106938 0.207519 0.526780
O12_5 O 0.0091(2) 0.1619(4) 0.55337(14)
Cu13_2 Cu 0.02079(2) 0.51872(4) 0.72389(2)
O2_5 O 0.54473(14) 0.0182(3) 0.67749(11)
H3_5 H 0.565986 0.051941 0.672979
Cu3_3 Cu 0.76770(2) 0.29907(4) 0.77517(2)
O3_5 O 0.7894(2) 0.3689(4) 0.81417(16)
H5_5 H 0.816952 0.388330 0.814848
H6_5 H 0.771690 0.381731 0.830296
Cu4_2 Cu 0.52079(2) 0.01872(4) 0.72389(2)
H7_5 H 0.976917 0.100992 0.476589
Cu5_3 Cu 0.73930(3) 0.22205(4) 0.72400(2)
C1_5 C 0.5662(3) 0.3752(4) 0.95345(17)
O6_3 O 0.56757(18) 0.4425(3) 0.95441(11)
C2_5 C 0.5904(3) 0.3833(4) 0.89889(17)
H8_5 H 0.592873 0.434868 0.901536
O7_3 O 0.52332(12) 0.0883(2) 0.79025(10)
C3_5 C 0.5992(3) 0.3500(4) 0.87036(17)
H9_5 H 0.606706 0.379904 0.853230
O8_5 O 0.55415(11) 0.0972(2) 0.74453(9)
C4_5 C 0.5973(2) 0.2756(4) 0.86627(16)
O9_5 O 0.71245(13) 0.2864(2) 0.78973(10)
C5_5 C 0.5888(3) 0.2319(4) 0.89196(17)
O10_5 O 0.68748(13) 0.2262(2) 0.74555(9)
C6_5 C 0.5788(3) 0.2650(4) 0.92016(17)
H10_5 H 0.572385 0.235421 0.937713
O11_5 O 0.5898(3) 0.1581(3) 0.88776(14)
C7_5 C 0.6042(2) 0.2426(3) 0.83406(15)
C8_5 C 0.6394(2) 0.2632(3) 0.81874(15)
H11_5 H 0.659313 0.296294 0.828829
C9_5 C 0.64509(18) 0.2345(3) 0.78840(14)
C10_5 C 0.61568(17) 0.1877(3) 0.77333(14)
H12_5 H 0.619068 0.169738 0.752453
C11_5 C 0.58092(18) 0.1670(3) 0.78904(14)
C12_5 C 0.57547(19) 0.1951(3) 0.81942(15)
H13_5 H 0.551696 0.180963 0.829958
C13_5 C 0.55032(16) 0.1136(3) 0.77301(14)
C14_5 C 0.68442(18) 0.2521(3) 0.77329(14)
C15_5 C 0.5785(5) 0.1105(5) 0.9138(3)
H14_5 H 0.580678 0.059093 0.907410
H15_5 H 0.549658 0.121040 0.918439
H16_5 H 0.597605 0.119688 0.933018
C16_5 C 0.5782(3) 0.3404(4) 0.92288(16)
C17_5 C 0.9825(3) 0.1254(5) 0.56669(18)
O13_5 O 0.9717(2) 0.0618(3) 0.55956(12)
C18_5 C 0.9631(3) 0.2375(5) 0.5968(2)
H17_5 H 0.974972 0.267325 0.581405
O14_3 O 0.98294(13) 0.4379(3) 0.71173(10)
C19_5 C 0.9467(3) 0.2691(5) 0.6228(2)
H18_5 H 0.948495 0.320743 0.625720
O15_3 O 0.94251(12) 0.4479(2) 0.75278(10)
C20_5 C 0.9274(3) 0.2267(4) 0.64495(19)
O16_5 O 0.81878(13) 0.2995(2) 0.75349(10)
C21_5 C 0.9258(4) 0.1522(5) 0.6405(2)
O17_5 O 0.79590(13) 0.2313(2) 0.71053(10)
C22_5 C 0.9420(3) 0.1184(5) 0.6142(2)
H19_5 H 0.939092 0.067089 0.610927
O18_5 O 0.9091(3) 0.1119(3) 0.66413(17)
C23_5 C 0.9116(2) 0.2646(4) 0.67287(18)
C24_5 C 0.9376(2) 0.3219(4) 0.68667(17)
H20_5 H 0.962869 0.334467 0.677785
C25_5 C 0.92556(19) 0.3592(3) 0.71322(16)
C26_5 C 0.88882(19) 0.3397(3) 0.72683(15)
H21_5 H 0.881499 0.363868 0.745615
C27_5 C 0.8633(2) 0.2854(3) 0.71293(16)
C28_5 C 0.8744(2) 0.2478(4) 0.68558(17)
H22_5 H 0.856453 0.211028 0.675911
C29_5 C 0.95165(18) 0.4193(3) 0.72689(15)
C30_5 C 0.8226(2) 0.2696(3) 0.72622(16)
C31_5 C 0.9070(5) 0.0302(6) 0.6595(3)
H23_5 H 0.894616 0.007587 0.677650
H24_5 H 0.935323 0.010849 0.658224
H25_5 H 0.889641 0.018893 0.639639
C32_5 C 0.9622(3) 0.1609(4) 0.59338(19)
C33_5 C 0.6039(3) 0.4849(5) 0.52713(17)
C34_5 C 0.6116(3) 0.5396(5) 0.58170(19)
H26_5 H 0.586772 0.566784 0.575851
O21_5 O 0.72501(14) 0.3150(2) 0.70341(10)
C35_5 C 0.6318(3) 0.5443(6) 0.6137(2)
O22_5 O 0.74704(15) 0.3798(2) 0.74765(10)
C36_5 C 0.6679(3) 0.5080(5) 0.6213(2)
O23_3 O 0.74238(13) 0.6414(2) 0.74799(10)
C37_5 C 0.6858(3) 0.4639(6) 0.5982(2)
H27_5 H 0.711101 0.437551 0.603242
O24_3 O 0.71651(14) 0.7049(2) 0.70495(10)
C38_5 C 0.6641(3) 0.4614(6) 0.5675(2)
H28_5 H 0.675740 0.433457 0.551375
C39_5 C 0.6892(3) 0.5097(4) 0.65520(18)
C40_5 C 0.6996(2) 0.4445(4) 0.67084(17)
H29_5 H 0.693409 0.399392 0.660111
C41_5 C 0.7188(2) 0.4437(4) 0.70203(16)
C42_5 C 0.7269(2) 0.5109(3) 0.71799(16)
H30_5 H 0.739949 0.511336 0.739259
C43_5 C 0.7159(2) 0.5753(3) 0.70296(15)
C44_5 C 0.6967(2) 0.5757(4) 0.67108(17)
H31_5 H 0.689119 0.620776 0.660742
C45_5 C 0.7318(2) 0.3745(3) 0.71871(16)
C46_5 C 0.7247(2) 0.6457(3) 0.71963(15)
C47_5 C 0.6282(3) 0.4961(5) 0.56005(17)
O25_5 O 0.6102(4) 0.5857(8) 0.6354(3)
C48_5 C 0.5706(6) 0.6227(13) 0.6273(5)
H32_5 H 0.561896 0.647710 0.646274
H33_5 H 0.549264 0.586561 0.619753
H34_5 H 0.573841 0.658668 0.610343
C49_5 C 0.6904(3) 0.0999(6) 0.7022(3)
H35_5 H 0.688652 0.108666 0.724347
O26_5 O 0.7137(2) 0.1528(4) 0.68644(17)
N1_5 N 0.6686(3) 0.0337(6) 0.68952(19)
C50_5 C 0.6429(3) 0.0013(6) 0.7123(2)
H36_5 H 0.651273 0.020768 0.733744
H38_5 H 0.613380 0.013098 0.706301
C51_5 C 0.6680(4) 0.0222(6) 0.6551(2)
H39_5 H 0.689531 0.052801 0.646603
H40_5 H 0.640367 0.035668 0.644747
Cu11_3 Cu 0.73230(2) 0.79907(4) 0.72483(2)
Cu12_2 Cu 0.47921(2) 0.01872(4) 0.77611(2)
Cu14_2 Cu 0.97921(2) 0.51872(4) 0.77611(2)
Cu15_3 Cu 0.76070(3) 0.72205(4) 0.77600(2)
O30_3 O 0.47668(12) 0.0883(2) 0.70975(10)
O36_3 O 0.75762(13) 0.1414(2) 0.75201(10)
O37_3 O 0.78349(14) 0.2049(2) 0.79505(10)
H4_5 H 0.534013 0.984360 0.661547
H37_5 H 0.646614 0.947933 0.712420
H41_5 H 0.673601 0.970503 0.650865
O29_3 O 0.93243(18) 0.9425(3) 0.54559(11)
O31_3 O 0.48294(13) 0.9379(3) 0.71173(10)
O32_3 O 0.55749(12) 0.9479(2) 0.74722(10)
H7_6 H 0.023083 0.100992 0.023411
O2_6 O 0.45527(14) 0.0182(3) 0.82251(11)
H3_6 H 0.434014 0.051941 0.827021
Cu3_4 Cu 0.23230(2) 0.29907(4) 0.72483(2)
O3_6 O 0.2106(2) 0.3689(4) 0.68583(16)
H5_6 H 0.183048 0.388330 0.685152
H6_6 H 0.228310 0.381731 0.669704
Cu5_4 Cu 0.26070(3) 0.22205(4) 0.77600(2)
C1_6 C 0.4338(3) 0.3752(4) 0.54655(17)
O6_4 O 0.43243(18) 0.4425(3) 0.54559(11)
C2_6 C 0.4096(3) 0.3833(4) 0.60111(17)
H8_6 H 0.407127 0.434868 0.598464
C3_6 C 0.4008(3) 0.3500(4) 0.62964(17)
H9_6 H 0.393294 0.379904 0.646770
O8_6 O 0.44585(11) 0.0972(2) 0.75547(9)
C4_6 C 0.4027(2) 0.2756(4) 0.63373(16)
O9_6 O 0.28755(13) 0.2864(2) 0.71027(10)
C5_6 C 0.4112(3) 0.2319(4) 0.60804(17)
O10_6 O 0.31252(13) 0.2262(2) 0.75445(9)
C6_6 C 0.4212(3) 0.2650(4) 0.57984(17)
H10_6 H 0.427615 0.235421 0.562287
O11_6 O 0.4102(3) 0.1581(3) 0.61224(14)
C7_6 C 0.3958(2) 0.2426(3) 0.66594(15)
C8_6 C 0.3606(2) 0.2632(3) 0.68126(15)
H11_6 H 0.340687 0.296294 0.671171
C9_6 C 0.35491(18) 0.2345(3) 0.71160(14)
C10_6 C 0.38432(17) 0.1877(3) 0.72667(14)
H12_6 H 0.380932 0.169738 0.747547
C11_6 C 0.41908(18) 0.1670(3) 0.71096(14)
C12_6 C 0.42453(19) 0.1951(3) 0.68058(15)
H13_6 H 0.448304 0.180963 0.670042
C13_6 C 0.44968(16) 0.1136(3) 0.72699(14)
C14_6 C 0.31558(18) 0.2521(3) 0.72671(14)
C15_6 C 0.4215(5) 0.1105(5) 0.5862(3)
H14_6 H 0.419322 0.059093 0.592590
H15_6 H 0.450342 0.121040 0.581561
H16_6 H 0.402395 0.119688 0.566982
C16_6 C 0.4218(3) 0.3404(4) 0.57712(16)
C17_6 C 0.0175(3) 0.1254(5) 0.93331(18)
O13_6 O 0.0283(2) 0.0618(3) 0.94044(12)
C18_6 C 0.0369(3) 0.2375(5) 0.9032(2)
H17_6 H 0.025028 0.267325 0.918595
O14_4 O 0.01706(13) 0.4379(3) 0.78827(10)
C19_6 C 0.0533(3) 0.2691(5) 0.8772(2)
H18_6 H 0.051505 0.320743 0.874280
O15_4 O 0.05749(12) 0.4479(2) 0.74722(10)
C20_6 C 0.0726(3) 0.2267(4) 0.85505(19)
O16_6 O 0.18122(13) 0.2995(2) 0.74651(10)
C21_6 C 0.0742(4) 0.1522(5) 0.8595(2)
O17_6 O 0.20410(13) 0.2313(2) 0.78947(10)
C22_6 C 0.0580(3) 0.1184(5) 0.8858(2)
H19_6 H 0.060908 0.067089 0.889073
O18_6 O 0.0909(3) 0.1119(3) 0.83587(17)
C23_6 C 0.0884(2) 0.2646(4) 0.82713(18)
C24_6 C 0.0624(2) 0.3219(4) 0.81333(17)
H20_6 H 0.037131 0.334467 0.822215
C25_6 C 0.07444(19) 0.3592(3) 0.78678(16)
C26_6 C 0.11118(19) 0.3397(3) 0.77317(15)
H21_6 H 0.118501 0.363868 0.754385
C27_6 C 0.1367(2) 0.2854(3) 0.78707(16)
C28_6 C 0.1256(2) 0.2478(4) 0.81442(17)
H22_6 H 0.143547 0.211028 0.824089
C29_6 C 0.04835(18) 0.4193(3) 0.77311(15)
C30_6 C 0.1774(2) 0.2696(3) 0.77378(16)
C31_6 C 0.0930(5) 0.0302(6) 0.8405(3)
H23_6 H 0.105384 0.007587 0.822350
H24_6 H 0.064677 0.010849 0.841776
H25_6 H 0.110359 0.018893 0.860361
C32_6 C 0.0378(3) 0.1609(4) 0.90662(19)
C33_6 C 0.3961(3) 0.4849(5) 0.97287(17)
C34_6 C 0.3884(3) 0.5396(5) 0.91830(19)
H26_6 H 0.413228 0.566784 0.924149
O21_6 O 0.27499(14) 0.3150(2) 0.79659(10)
C35_6 C 0.3682(3) 0.5443(6) 0.8863(2)
O22_6 O 0.25296(15) 0.3798(2) 0.75235(10)
C36_6 C 0.3321(3) 0.5080(5) 0.8787(2)
O23_4 O 0.25762(13) 0.6414(2) 0.75201(10)
C37_6 C 0.3142(3) 0.4639(6) 0.9018(2)
H27_6 H 0.288899 0.437551 0.896758
O24_4 O 0.28349(14) 0.7049(2) 0.79505(10)
C38_6 C 0.3359(3) 0.4614(6) 0.9325(2)
H28_6 H 0.324260 0.433457 0.948625
C39_6 C 0.3108(3) 0.5097(4) 0.84480(18)
C40_6 C 0.3004(2) 0.4445(4) 0.82916(17)
H29_6 H 0.306591 0.399392 0.839889
C41_6 C 0.2812(2) 0.4437(4) 0.79797(16)
C42_6 C 0.2731(2) 0.5109(3) 0.78201(16)
H30_6 H 0.260051 0.511336 0.760741
C43_6 C 0.2841(2) 0.5753(3) 0.79704(15)
C44_6 C 0.3033(2) 0.5757(4) 0.82892(17)
H31_6 H 0.310881 0.620776 0.839258
C45_6 C 0.2682(2) 0.3745(3) 0.78129(16)
C46_6 C 0.2753(2) 0.6457(3) 0.78037(15)
C47_6 C 0.3718(3) 0.4961(5) 0.93995(17)
O25_6 O 0.3898(4) 0.5857(8) 0.8646(3)
C48_6 C 0.4294(6) 0.6227(13) 0.8727(5)
H32_6 H 0.438104 0.647710 0.853726
H33_6 H 0.450736 0.586561 0.880247
H34_6 H 0.426159 0.658668 0.889657
C49_6 C 0.3096(3) 0.0999(6) 0.7978(3)
H35_6 H 0.311348 0.108666 0.775653
O26_6 O 0.2863(2) 0.1528(4) 0.81356(17)
N1_6 N 0.3314(3) 0.0337(6) 0.81048(19)
C50_6 C 0.3571(3) 0.0013(6) 0.7877(2)
H36_6 H 0.348727 0.020768 0.766256
H38_6 H 0.386620 0.013098 0.793699
C51_6 C 0.3320(4) 0.0222(6) 0.8449(2)
H39_6 H 0.310469 0.052801 0.853397
H40_6 H 0.359633 0.035668 0.855253
Cu11_4 Cu 0.26770(2) 0.79907(4) 0.77517(2)
Cu15_4 Cu 0.23930(3) 0.72205(4) 0.72400(2)
O36_4 O 0.24238(13) 0.1414(2) 0.74799(10)
O37_4 O 0.21651(14) 0.2049(2) 0.70495(10)
H4_6 H 0.465987 0.984360 0.838453
H37_6 H 0.353386 0.947933 0.787580
H41_6 H 0.326399 0.970503 0.849135
O29_4 O 0.06757(18) 0.9425(3) 0.95441(11)
O31_4 O 0.51706(13) 0.9379(3) 0.78827(10)
O32_4 O 0.44251(12) 0.9479(2) 0.75278(10)
O1_6 O 0.9178(2) 0.1997(4) 0.96280(15)
H1_6 H 0.920002 0.219225 0.942019
H2_6 H 0.893062 0.207519 0.973220
O12_6 O 0.9909(2) 0.1619(4) 0.94663(14)
C34_7 C 0.1116(3) 0.0396(5) 0.58170(19)
H26_7 H 0.086772 0.066784 0.575851
C35_7 C 0.1318(3) 0.0443(6) 0.6137(2)
C36_7 C 0.1679(3) 0.0080(5) 0.6213(2)
C39_7 C 0.1892(3) 0.0097(4) 0.65520(18)
C42_7 C 0.2269(2) 0.0109(3) 0.71799(16)
H30_7 H 0.239949 0.011336 0.739259
C43_7 C 0.2159(2) 0.0753(3) 0.70296(15)
C44_7 C 0.1967(2) 0.0757(4) 0.67108(17)
H31_7 H 0.189119 0.120776 0.660742
C46_7 C 0.2247(2) 0.1457(3) 0.71963(15)
O25_7 O 0.1102(4) 0.0857(8) 0.6354(3)
C48_7 C 0.0706(6) 0.1227(13) 0.6273(5)
H32_7 H 0.061896 0.147710 0.646274
H33_7 H 0.049264 0.086561 0.619753
H34_7 H 0.073841 0.158668 0.610343
O1_7 O 0.5822(2) 0.6997(4) 0.53720(15)
H1_7 H 0.579998 0.719225 0.557981
H2_7 H 0.606938 0.707519 0.526780
O2_7 O 0.04473(14) 0.5182(3) 0.67749(11)
H3_7 H 0.065986 0.551941 0.672979
H4_7 H 0.034013 0.484360 0.661547
O3_7 O 0.2894(2) 0.8689(4) 0.81417(16)
H5_7 H 0.316952 0.888330 0.814848
H6_7 H 0.271690 0.881731 0.830296
H7_7 H 0.476917 0.600992 0.476589
C1_7 C 0.0662(3) 0.8752(4) 0.95345(17)
C2_7 C 0.0904(3) 0.8833(4) 0.89889(17)
H8_7 H 0.092873 0.934868 0.901536
O7_4 O 0.02332(12) 0.5883(2) 0.79025(10)
C3_7 C 0.0992(3) 0.8500(4) 0.87036(17)
H9_7 H 0.106706 0.879904 0.853230
O8_7 O 0.05415(11) 0.5972(2) 0.74453(9)
C4_7 C 0.0973(2) 0.7756(4) 0.86627(16)
O9_7 O 0.21245(13) 0.7864(2) 0.78973(10)
C5_7 C 0.0888(3) 0.7319(4) 0.89196(17)
O10_7 O 0.18748(13) 0.7262(2) 0.74555(9)
C6_7 C 0.0788(3) 0.7650(4) 0.92016(17)
H10_7 H 0.072385 0.735421 0.937713
O11_7 O 0.0898(3) 0.6581(3) 0.88776(14)
C7_7 C 0.1042(2) 0.7426(3) 0.83406(15)
C8_7 C 0.1394(2) 0.7632(3) 0.81874(15)
H11_7 H 0.159313 0.796294 0.828829
C9_7 C 0.14509(18) 0.7345(3) 0.78840(14)
C10_7 C 0.11568(17) 0.6877(3) 0.77333(14)
H12_7 H 0.119068 0.669738 0.752453
C11_7 C 0.08092(18) 0.6670(3) 0.78904(14)
C12_7 C 0.07547(19) 0.6951(3) 0.81942(15)
H13_7 H 0.051696 0.680963 0.829958
C13_7 C 0.05032(16) 0.6136(3) 0.77301(14)
C14_7 C 0.18442(18) 0.7521(3) 0.77329(14)
C15_7 C 0.0785(5) 0.6105(5) 0.9138(3)
H14_7 H 0.080678 0.559093 0.907410
H15_7 H 0.049658 0.621040 0.918439
H16_7 H 0.097605 0.619688 0.933018
C16_7 C 0.0782(3) 0.8404(4) 0.92288(16)
O12_7 O 0.5091(2) 0.6619(4) 0.55337(14)
C17_7 C 0.4825(3) 0.6254(5) 0.56669(18)
O13_7 O 0.4717(2) 0.5618(3) 0.55956(12)
C18_7 C 0.4631(3) 0.7375(5) 0.5968(2)
H17_7 H 0.474972 0.767325 0.581405
C19_7 C 0.4467(3) 0.7691(5) 0.6228(2)
H18_7 H 0.448495 0.820743 0.625720
C20_7 C 0.4274(3) 0.7267(4) 0.64495(19)
O16_7 O 0.31878(13) 0.7995(2) 0.75349(10)
C21_7 C 0.4258(4) 0.6522(5) 0.6405(2)
O17_7 O 0.29590(13) 0.7313(2) 0.71053(10)
C22_7 C 0.4420(3) 0.6184(5) 0.6142(2)
H19_7 H 0.439092 0.567089 0.610927
O18_7 O 0.4091(3) 0.6119(3) 0.66413(17)
C23_7 C 0.4116(2) 0.7646(4) 0.67287(18)
C24_7 C 0.4376(2) 0.8219(4) 0.68667(17)
H20_7 H 0.462869 0.834467 0.677785
C25_7 C 0.42556(19) 0.8592(3) 0.71322(16)
C26_7 C 0.38882(19) 0.8397(3) 0.72683(15)
H21_7 H 0.381499 0.863868 0.745615
C27_7 C 0.3633(2) 0.7854(3) 0.71293(16)
C28_7 C 0.3744(2) 0.7478(4) 0.68558(17)
H22_7 H 0.356453 0.711028 0.675911
C29_7 C 0.45165(18) 0.9193(3) 0.72689(15)
C30_7 C 0.3226(2) 0.7696(3) 0.72622(16)
C31_7 C 0.4070(5) 0.5302(6) 0.6595(3)
H23_7 H 0.394616 0.507587 0.677650
H24_7 H 0.435323 0.510849 0.658224
H25_7 H 0.389641 0.518893 0.639639
C32_7 C 0.4622(3) 0.6609(4) 0.59338(19)
C33_7 C 0.1039(3) 0.9849(5) 0.52713(17)
O21_7 O 0.22501(14) 0.8150(2) 0.70341(10)
O22_7 O 0.24704(15) 0.8798(2) 0.74765(10)
C37_7 C 0.1858(3) 0.9639(6) 0.5982(2)
H27_7 H 0.211101 0.937551 0.603242
C38_7 C 0.1641(3) 0.9614(6) 0.5675(2)
H28_7 H 0.175740 0.933457 0.551375
C40_7 C 0.1996(2) 0.9445(4) 0.67084(17)
H29_7 H 0.193409 0.899392 0.660111
C41_7 C 0.2188(2) 0.9437(4) 0.70203(16)
C45_7 C 0.2318(2) 0.8745(3) 0.71871(16)
C47_7 C 0.1282(3) 0.9961(5) 0.56005(17)
C49_7 C 0.1904(3) 0.5999(6) 0.7022(3)
H35_7 H 0.188652 0.608666 0.724347
O26_7 O 0.2137(2) 0.6528(4) 0.68644(17)
N1_7 N 0.1686(3) 0.5337(6) 0.68952(19)
C50_7 C 0.1429(3) 0.5013(6) 0.7123(2)
H36_7 H 0.151273 0.520768 0.733744
H37_7 H 0.146614 0.447933 0.712420
H38_7 H 0.113380 0.513098 0.706301
C51_7 C 0.1680(4) 0.5222(6) 0.6551(2)
H39_7 H 0.189531 0.552801 0.646603
H40_7 H 0.140367 0.535668 0.644747
H41_7 H 0.173601 0.470503 0.650865
O30_4 O 0.97668(12) 0.5883(2) 0.70975(10)
C34_8 C 0.8884(3) 0.0396(5) 0.91830(19)
H26_8 H 0.913228 0.066784 0.924149
C35_8 C 0.8682(3) 0.0443(6) 0.8863(2)
C36_8 C 0.8321(3) 0.0080(5) 0.8787(2)
C39_8 C 0.8108(3) 0.0097(4) 0.84480(18)
C42_8 C 0.7731(2) 0.0109(3) 0.78201(16)
H30_8 H 0.760051 0.011336 0.760741
C43_8 C 0.7841(2) 0.0753(3) 0.79704(15)
C44_8 C 0.8033(2) 0.0757(4) 0.82892(17)
H31_8 H 0.810881 0.120776 0.839258
C46_8 C 0.7753(2) 0.1457(3) 0.78037(15)
O25_8 O 0.8898(4) 0.0857(8) 0.8646(3)
C48_8 C 0.9294(6) 0.1227(13) 0.8727(5)
H32_8 H 0.938104 0.147710 0.853726
H33_8 H 0.950736 0.086561 0.880247
H34_8 H 0.926159 0.158668 0.889657
H7_8 H 0.523083 0.600992 0.023411
O1_8 O 0.4178(2) 0.6997(4) 0.96280(15)
H1_8 H 0.420002 0.719225 0.942019
H2_8 H 0.393062 0.707519 0.973220
O2_8 O 0.95527(14) 0.5182(3) 0.82251(11)
H3_8 H 0.934014 0.551941 0.827021
H4_8 H 0.965987 0.484360 0.838453
O3_8 O 0.7106(2) 0.8689(4) 0.68583(16)
H5_8 H 0.683048 0.888330 0.685152
H6_8 H 0.728310 0.881731 0.669704
C1_8 C 0.9338(3) 0.8752(4) 0.54655(17)
C2_8 C 0.9096(3) 0.8833(4) 0.60111(17)
H8_8 H 0.907127 0.934868 0.598464
C3_8 C 0.9008(3) 0.8500(4) 0.62964(17)
H9_8 H 0.893294 0.879904 0.646770
O8_8 O 0.94585(11) 0.5972(2) 0.75547(9)
C4_8 C 0.9027(2) 0.7756(4) 0.63373(16)
O9_8 O 0.78755(13) 0.7864(2) 0.71027(10)
C5_8 C 0.9112(3) 0.7319(4) 0.60804(17)
O10_8 O 0.81252(13) 0.7262(2) 0.75445(9)
C6_8 C 0.9212(3) 0.7650(4) 0.57984(17)
H10_8 H 0.927615 0.735421 0.562287
O11_8 O 0.9102(3) 0.6581(3) 0.61224(14)
C7_8 C 0.8958(2) 0.7426(3) 0.66594(15)
C8_8 C 0.8606(2) 0.7632(3) 0.68126(15)
H11_8 H 0.840687 0.796294 0.671171
C9_8 C 0.85491(18) 0.7345(3) 0.71160(14)
C10_8 C 0.88432(17) 0.6877(3) 0.72667(14)
H12_8 H 0.880932 0.669738 0.747547
C11_8 C 0.91908(18) 0.6670(3) 0.71096(14)
C12_8 C 0.92453(19) 0.6951(3) 0.68058(15)
H13_8 H 0.948304 0.680963 0.670042
C13_8 C 0.94968(16) 0.6136(3) 0.72699(14)
C14_8 C 0.81558(18) 0.7521(3) 0.72671(14)
C15_8 C 0.9215(5) 0.6105(5) 0.5862(3)
H14_8 H 0.919322 0.559093 0.592590
H15_8 H 0.950342 0.621040 0.581561
H16_8 H 0.902395 0.619688 0.566982
C16_8 C 0.9218(3) 0.8404(4) 0.57712(16)
O12_8 O 0.4909(2) 0.6619(4) 0.94663(14)
C17_8 C 0.5175(3) 0.6254(5) 0.93331(18)
O13_8 O 0.5283(2) 0.5618(3) 0.94044(12)
C18_8 C 0.5369(3) 0.7375(5) 0.9032(2)
H17_8 H 0.525028 0.767325 0.918595
C19_8 C 0.5533(3) 0.7691(5) 0.8772(2)
H18_8 H 0.551505 0.820743 0.874280
C20_8 C 0.5726(3) 0.7267(4) 0.85505(19)
O16_8 O 0.68122(13) 0.7995(2) 0.74651(10)
C21_8 C 0.5742(4) 0.6522(5) 0.8595(2)
O17_8 O 0.70410(13) 0.7313(2) 0.78947(10)
C22_8 C 0.5580(3) 0.6184(5) 0.8858(2)
H19_8 H 0.560908 0.567089 0.889073
O18_8 O 0.5909(3) 0.6119(3) 0.83587(17)
C23_8 C 0.5884(2) 0.7646(4) 0.82713(18)
C24_8 C 0.5624(2) 0.8219(4) 0.81333(17)
H20_8 H 0.537131 0.834467 0.822215
C25_8 C 0.57444(19) 0.8592(3) 0.78678(16)
C26_8 C 0.61118(19) 0.8397(3) 0.77317(15)
H21_8 H 0.618501 0.863868 0.754385
C27_8 C 0.6367(2) 0.7854(3) 0.78707(16)
C28_8 C 0.6256(2) 0.7478(4) 0.81442(17)
H22_8 H 0.643547 0.711028 0.824089
C29_8 C 0.54835(18) 0.9193(3) 0.77311(15)
C30_8 C 0.6774(2) 0.7696(3) 0.77378(16)
C31_8 C 0.5930(5) 0.5302(6) 0.8405(3)
H23_8 H 0.605384 0.507587 0.822350
H24_8 H 0.564677 0.510849 0.841776
H25_8 H 0.610359 0.518893 0.860361
C32_8 C 0.5378(3) 0.6609(4) 0.90662(19)
C33_8 C 0.8961(3) 0.9849(5) 0.97287(17)
O21_8 O 0.77499(14) 0.8150(2) 0.79659(10)
O22_8 O 0.75296(15) 0.8798(2) 0.75235(10)
C37_8 C 0.8142(3) 0.9639(6) 0.9018(2)
H27_8 H 0.788899 0.937551 0.896758
C38_8 C 0.8359(3) 0.9614(6) 0.9325(2)
H28_8 H 0.824260 0.933457 0.948625
C40_8 C 0.8004(2) 0.9445(4) 0.82916(17)
H29_8 H 0.806591 0.899392 0.839889
C41_8 C 0.7812(2) 0.9437(4) 0.79797(16)
C45_8 C 0.7682(2) 0.8745(3) 0.78129(16)
C47_8 C 0.8718(3) 0.9961(5) 0.93995(17)
C49_8 C 0.8096(3) 0.5999(6) 0.7978(3)
H35_8 H 0.811348 0.608666 0.775653
O26_8 O 0.7863(2) 0.6528(4) 0.81356(17)
N1_8 N 0.8314(3) 0.5337(6) 0.81048(19)
C50_8 C 0.8571(3) 0.5013(6) 0.7877(2)
H36_8 H 0.848727 0.520768 0.766256
H37_8 H 0.853386 0.447933 0.787580
H38_8 H 0.886620 0.513098 0.793699
C51_8 C 0.8320(4) 0.5222(6) 0.8449(2)
H39_8 H 0.810469 0.552801 0.853397
H40_8 H 0.859633 0.535668 0.855253
H41_8 H 0.826399 0.470503 0.849135
loop_
_geom_bond_atom_site_label_1
_geom_bond_atom_site_label_2
_geom_bond_site_symmetry_1
_geom_bond_site_symmetry_2
Cu2 O4 1_555 1_555
O2 H3 1_555 1_555
Cu3 O3 1_555 1_555
O3 H5 1_555 1_555
H6 O3 1_555 1_555
Cu4 O2 1_555 1_555
H7 O4 1_555 1_555
Cu5 O10 1_555 1_555
O5 C1 1_555 1_555
C1 O6 1_555 1_555
O6 Cu8 1_555 1_555
C2 H8 1_555 1_555
O7 C13 1_555 1_555
C3 C2 1_555 1_555
H9 C3 1_555 1_555
O8 Cu4 1_555 1_555
C4 C3 1_555 1_555
O9 Cu3 1_555 1_555
C5 C4 1_555 1_555
O10 C14 1_555 1_555
C6 C5 1_555 1_555
H10 C6 1_555 1_555
O11 C5 1_555 1_555
C7 C4 1_555 1_555
C8 C7 1_555 1_555
H11 C8 1_555 1_555
C9 C8 1_555 1_555
C10 C9 1_555 1_555
H12 C10 1_555 1_555
C11 C10 1_555 1_555
C12 C7 1_555 1_555
H13 C12 1_555 1_555
C13 O8 1_555 1_555
C14 O9 1_555 1_555
C15 O11 1_555 1_555
H14 C15 1_555 1_555
H15 C15 1_555 1_555
H16 C15 1_555 1_555
C16 C1 1_555 1_555
O13 Cu2 1_555 1_555
C18 H17 1_555 1_555
O14 C29 1_555 1_555
C19 C18 1_555 1_555
H18 C19 1_555 1_555
O15 C29 1_555 1_555
C20 C19 1_555 1_555
O16 Cu3 1_555 1_555
C21 C20 1_555 1_555
O17 Cu5 1_555 1_555
C22 C21 1_555 1_555
H19 C22 1_555 1_555
O18 C21 1_555 1_555
C23 C20 1_555 1_555
C24 C23 1_555 1_555
H20 C24 1_555 1_555
C25 C24 1_555 1_555
C26 C25 1_555 1_555
H21 C26 1_555 1_555
C27 C26 1_555 1_555
C28 C23 1_555 1_555
H22 C28 1_555 1_555
C29 C25 1_555 1_555
C30 O16 1_555 1_555
C31 O18 1_555 1_555
H23 C31 1_555 1_555
H24 C31 1_555 1_555
H25 C31 1_555 1_555
C32 C17 1_555 1_555
O19 C33 1_555 1_555
C33 O20 1_555 1_555
O20 Cu6 1_555 1_555
C34 H26 1_555 1_555
O21 Cu5 1_555 1_555
C35 C34 1_555 1_555
O22 Cu3 1_555 1_555
C36 C35 1_555 1_555
O23 C46 1_555 1_555
C37 C36 1_555 1_555
H27 C37 1_555 1_555
O24 C46 1_555 1_555
C38 C37 1_555 1_555
H28 C38 1_555 1_555
C39 C36 1_555 1_555
C40 C39 1_555 1_555
H29 C40 1_555 1_555
C41 C40 1_555 1_555
C42 C41 1_555 1_555
H30 C42 1_555 1_555
C43 C42 1_555 1_555
C44 C39 1_555 1_555
H31 C44 1_555 1_555
C45 O21 1_555 1_555
C46 C43 1_555 1_555
C47 C33 1_555 1_555
O25 C35 1_555 1_555
C48 O25 1_555 1_555
H32 C48 1_555 1_555
H33 C48 1_555 1_555
H34 C48 1_555 1_555
C49 H35 1_555 1_555
O26 Cu5 1_555 1_555
N1 C49 1_555 1_555
C50 N1 1_555 1_555
H36 C50 1_555 1_555
H38 C50 1_555 1_555
C51 N1 1_555 1_555
H39 C51 1_555 1_555
H40 C51 1_555 1_555
Cu10 O19 1_555 1_555
Cu11 O24 1_555 1_555
Cu12 O7 1_555 1_555
Cu14 O15 1_555 1_555
Cu15 O23 1_555 1_555
O30 Cu4 1_555 1_555
O33 Cu2 1_555 1_555
O36 Cu5 1_555 1_555
O37 Cu3 1_555 1_555
C2 C16 1_555 1_555
C6 C16 1_555 1_555
C9 C14 1_555 1_555
C11 C12 1_555 1_555
C11 C13 1_555 1_555
C17 O13 1_555 1_555
C18 C32 1_555 1_555
O17 C30 1_555 1_555
C22 C32 1_555 1_555
C27 C28 1_555 1_555
C27 C30 1_555 1_555
O20 Cu10 1_555 1_555
C34 C47 1_555 1_555
O22 C45 1_555 1_555
C38 C47 1_555 1_555
C41 C45 1_555 1_555
C43 C44 1_555 1_555
C49 O26 1_555 1_555
Cu9 O27 1_555 1_555
Cu1 O1 1_555 1_555
O1 H1 1_555 1_555
H2 O1 1_555 1_555
O12 Cu1 1_555 1_555
O28 Cu1 1_555 1_555
O34 Cu1 1_555 1_555
Cu1_2 O1_2 1_555 1_555
O1_2 H1_2 1_555 1_555
H2_2 O1_2 1_555 1_555
O12_2 Cu1_2 1_555 1_555
O34_2 Cu1_2 1_555 1_555
O2_2 H3_2 1_555 1_555
Cu3_2 O3_2 1_555 1_555
O3_2 H5_2 1_555 1_555
H6_2 O3_2 1_555 1_555
Cu12 O2_2 1_555 1_555
Cu5_2 O10_2 1_555 1_555
O5_2 C1_2 1_555 1_555
C1_2 O6_2 1_555 1_555
O6_2 Cu8_2 1_555 1_555
C2_2 H8_2 1_555 1_555
O30 C13_2 1_555 1_555
C3_2 C2_2 1_555 1_555
H9_2 C3_2 1_555 1_555
O8_2 Cu12 1_555 1_555
C4_2 C3_2 1_555 1_555
O9_2 Cu3_2 1_555 1_555
C5_2 C4_2 1_555 1_555
O10_2 C14_2 1_555 1_555
C6_2 C5_2 1_555 1_555
H10_2 C6_2 1_555 1_555
O11_2 C5_2 1_555 1_555
C7_2 C4_2 1_555 1_555
C8_2 C7_2 1_555 1_555
H11_2 C8_2 1_555 1_555
C9_2 C8_2 1_555 1_555
C10_2 C9_2 1_555 1_555
H12_2 C10_2 1_555 1_555
C11_2 C10_2 1_555 1_555
C12_2 C7_2 1_555 1_555
H13_2 C12_2 1_555 1_555
C13_2 O8_2 1_555 1_555
C14_2 O9_2 1_555 1_555
C15_2 O11_2 1_555 1_555
H14_2 C15_2 1_555 1_555
H15_2 C15_2 1_555 1_555
H16_2 C15_2 1_555 1_555
C16_2 C1_2 1_555 1_555
O13_2 Cu2_2 1_555 1_555
C18_2 H17_2 1_555 1_555
O14_2 C29_2 1_555 1_555
C19_2 C18_2 1_555 1_555
H18_2 C19_2 1_555 1_555
O15_2 C29_2 1_555 1_555
C20_2 C19_2 1_555 1_555
O16_2 Cu3_2 1_555 1_555
C21_2 C20_2 1_555 1_555
O17_2 Cu5_2 1_555 1_555
C22_2 C21_2 1_555 1_555
H19_2 C22_2 1_555 1_555
O18_2 C21_2 1_555 1_555
C23_2 C20_2 1_555 1_555
C24_2 C23_2 1_555 1_555
H20_2 C24_2 1_555 1_555
C25_2 C24_2 1_555 1_555
C26_2 C25_2 1_555 1_555
H21_2 C26_2 1_555 1_555
C27_2 C26_2 1_555 1_555
C28_2 C23_2 1_555 1_555
H22_2 C28_2 1_555 1_555
C29_2 C25_2 1_555 1_555
C30_2 O16_2 1_555 1_555
C31_2 O18_2 1_555 1_555
H23_2 C31_2 1_555 1_555
H24_2 C31_2 1_555 1_555
H25_2 C31_2 1_555 1_555
C32_2 C17_2 1_555 1_555
O19_2 C33_2 1_555 1_555
C33_2 O20_2 1_555 1_555
O20_2 Cu6_2 1_555 1_555
C34_2 H26_2 1_555 1_555
O21_2 Cu5_2 1_555 1_555
C35_2 C34_2 1_555 1_555
O22_2 Cu3_2 1_555 1_555
C36_2 C35_2 1_555 1_555
O23_2 C46_2 1_555 1_555
C37_2 C36_2 1_555 1_555
H27_2 C37_2 1_555 1_555
O24_2 C46_2 1_555 1_555
C38_2 C37_2 1_555 1_555
H28_2 C38_2 1_555 1_555
C39_2 C36_2 1_555 1_555
C40_2 C39_2 1_555 1_555
H29_2 C40_2 1_555 1_555
C41_2 C40_2 1_555 1_555
C42_2 C41_2 1_555 1_555
H30_2 C42_2 1_555 1_555
C43_2 C42_2 1_555 1_555
C44_2 C39_2 1_555 1_555
H31_2 C44_2 1_555 1_555
C45_2 O21_2 1_555 1_555
C46_2 C43_2 1_555 1_555
C47_2 C33_2 1_555 1_555
O25_2 C35_2 1_555 1_555
C48_2 O25_2 1_555 1_555
H32_2 C48_2 1_555 1_555
H33_2 C48_2 1_555 1_555
H34_2 C48_2 1_555 1_555
C49_2 H35_2 1_555 1_555
O26_2 Cu5_2 1_555 1_555
N1_2 C49_2 1_555 1_555
C50_2 N1_2 1_555 1_555
H36_2 C50_2 1_555 1_555
H38_2 C50_2 1_555 1_555
C51_2 N1_2 1_555 1_555
H39_2 C51_2 1_555 1_555
H40_2 C51_2 1_555 1_555
Cu7_2 O5_2 1_555 1_555
Cu11_2 O24_2 1_555 1_555
Cu13 O15_2 1_555 1_555
Cu15_2 O23_2 1_555 1_555
O36_2 Cu5_2 1_555 1_555
O37_2 Cu3_2 1_555 1_555
C2_2 C16_2 1_555 1_555
C6_2 C16_2 1_555 1_555
C9_2 C14_2 1_555 1_555
C11_2 C12_2 1_555 1_555
C11_2 C13_2 1_555 1_555
C17_2 O13_2 1_555 1_555
C18_2 C32_2 1_555 1_555
O17_2 C30_2 1_555 1_555
C22_2 C32_2 1_555 1_555
C27_2 C28_2 1_555 1_555
C27_2 C30_2 1_555 1_555
C34_2 C47_2 1_555 1_555
O22_2 C45_2 1_555 1_555
C38_2 C47_2 1_555 1_555
C41_2 C45_2 1_555 1_555
C43_2 C44_2 1_555 1_555
C49_2 O26_2 1_555 1_555
H7_2 O4_2 1_555 1_555
Cu6 O1_3 1_555 1_555
O1_3 H1_3 1_555 1_555
H2_3 O1_3 1_555 1_555
Cu8_2 O4_3 1_555 1_555
O2_3 H3_3 1_555 1_555
H4_3 O2_3 1_555 1_555
Cu11_2 O3_3 1_555 1_555
O3_3 H5_3 1_555 1_555
H6_3 O3_3 1_555 1_555
Cu13 O2_3 1_555 1_555
O4_3 Cu6 1_555 1_555
H7_3 O4_3 1_555 1_555
Cu15_2 O10_3 1_555 1_555
O5_3 C1_3 1_555 1_555
C1_3 O29_2 1_555 1_555
C2_3 H8_3 1_555 1_555
O7_2 C13_3 1_555 1_555
C3_3 C2_3 1_555 1_555
H9_3 C3_3 1_555 1_555
O8_3 Cu13 1_555 1_555
C4_3 C3_3 1_555 1_555
O9_3 Cu11_2 1_555 1_555
C5_3 C4_3 1_555 1_555
O10_3 C14_3 1_555 1_555
C6_3 C5_3 1_555 1_555
H10_3 C6_3 1_555 1_555
O11_3 C5_3 1_555 1_555
C7_3 C4_3 1_555 1_555
C8_3 C7_3 1_555 1_555
H11_3 C8_3 1_555 1_555
C9_3 C8_3 1_555 1_555
C10_3 C9_3 1_555 1_555
H12_3 C10_3 1_555 1_555
C11_3 C10_3 1_555 1_555
C12_3 C7_3 1_555 1_555
H13_3 C12_3 1_555 1_555
C13_3 O8_3 1_555 1_555
C14_3 O9_3 1_555 1_555
C15_3 O11_3 1_555 1_555
H14_3 C15_3 1_555 1_555
H15_3 C15_3 1_555 1_555
H16_3 C15_3 1_555 1_555
C16_3 C1_3 1_555 1_555
O12_3 Cu6 1_555 1_555
C17_3 O12_3 1_555 1_555
O13_3 Cu8_2 1_555 1_555
C18_3 H17_3 1_555 1_555
O31 C29_3 1_555 1_555
C19_3 C18_3 1_555 1_555
H18_3 C19_3 1_555 1_555
O32_2 C29_3 1_555 1_555
C20_3 C19_3 1_555 1_555
O16_3 Cu11_2 1_555 1_555
C21_3 C20_3 1_555 1_555
O17_3 Cu15_2 1_555 1_555
C22_3 C21_3 1_555 1_555
H19_3 C22_3 1_555 1_555
O18_3 C21_3 1_555 1_555
C23_3 C20_3 1_555 1_555
C24_3 C23_3 1_555 1_555
H20_3 C24_3 1_555 1_555
C25_3 C24_3 1_555 1_555
C26_3 C25_3 1_555 1_555
H21_3 C26_3 1_555 1_555
C27_3 C26_3 1_555 1_555
C28_3 C23_3 1_555 1_555
H22_3 C28_3 1_555 1_555
C29_3 C25_3 1_555 1_555
C30_3 O16_3 1_555 1_555
C31_3 O18_3 1_555 1_555
H23_3 C31_3 1_555 1_555
H24_3 C31_3 1_555 1_555
H25_3 C31_3 1_555 1_555
C32_3 C17_3 1_555 1_555
O19_3 C33_3 1_555 1_555
O21_3 Cu15_2 1_555 1_555
O22_3 Cu11_2 1_555 1_555
H27_3 C37_3 1_555 1_555
C38_3 C37_3 1_555 1_555
H28_3 C38_3 1_555 1_555
H29_3 C40_3 1_555 1_555
C41_3 C40_3 1_555 1_555
C45_3 O21_3 1_555 1_555
C47_3 C33_3 1_555 1_555
C49_3 H35_3 1_555 1_555
O26_3 Cu15_2 1_555 1_555
N1_3 C49_3 1_555 1_555
C50_3 N1_3 1_555 1_555
H36_3 C50_3 1_555 1_555
H37_3 C50_3 1_555 1_555
H38_3 C50_3 1_555 1_555
C51_3 N1_3 1_555 1_555
H39_3 C51_3 1_555 1_555
H40_3 C51_3 1_555 1_555
H41_3 C51_3 1_555 1_555
Cu10 O4_3 1_555 1_555
Cu9 O19_3 1_555 1_555
O27_3 Cu8_2 1_555 1_555
O28_3 Cu6 1_555 1_555
O33_3 Cu8_2 1_555 1_555
O35_3 Cu8_2 1_555 1_555
C2_3 C16_3 1_555 1_555
C6_3 C16_3 1_555 1_555
C9_3 C14_3 1_555 1_555
C11_3 C12_3 1_555 1_555
C11_3 C13_3 1_555 1_555
C17_3 O13_3 1_555 1_555
C18_3 C32_3 1_555 1_555
O17_3 C30_3 1_555 1_555
C22_3 C32_3 1_555 1_555
C27_3 C28_3 1_555 1_555
C27_3 C30_3 1_555 1_555
O22_3 C45_3 1_555 1_555
C38_3 C47_3 1_555 1_555
C41_3 C45_3 1_555 1_555
C49_3 O26_3 1_555 1_555
Cu10 O27_3 1_555 1_555
C34_3 H26_3 1_555 1_555
C35_3 C34_3 1_555 1_555
C36_3 C35_3 1_555 1_555
O36_2 C46_3 1_555 1_555
O37_2 C46_3 1_555 1_555
C39_3 C36_3 1_555 1_555
H30_3 C42_3 1_555 1_555
C43_3 C42_3 1_555 1_555
C44_3 C39_3 1_555 1_555
H31_3 C44_3 1_555 1_555
C46_3 C43_3 1_555 1_555
O25_3 C35_3 1_555 1_555
C48_3 O25_3 1_555 1_555
H32_3 C48_3 1_555 1_555
H33_3 C48_3 1_555 1_555
H34_3 C48_3 1_555 1_555
C43_3 C44_3 1_555 1_555
Cu6_2 O1_4 1_555 1_555
O1_4 H1_4 1_555 1_555
H2_4 O1_4 1_555 1_555
O2_4 H3_4 1_555 1_555
H4_4 O2_4 1_555 1_555
Cu11 O3_4 1_555 1_555
O3_4 H5_4 1_555 1_555
H6_4 O3_4 1_555 1_555
Cu14 O2_4 1_555 1_555
Cu15 O10_4 1_555 1_555
O5_4 C1_4 1_555 1_555
C1_4 O29 1_555 1_555
C2_4 H8_4 1_555 1_555
O30_2 C13_4 1_555 1_555
C3_4 C2_4 1_555 1_555
H9_4 C3_4 1_555 1_555
O8_4 Cu14 1_555 1_555
C4_4 C3_4 1_555 1_555
O9_4 Cu11 1_555 1_555
C5_4 C4_4 1_555 1_555
O10_4 C14_4 1_555 1_555
C6_4 C5_4 1_555 1_555
H10_4 C6_4 1_555 1_555
O11_4 C5_4 1_555 1_555
C7_4 C4_4 1_555 1_555
C8_4 C7_4 1_555 1_555
H11_4 C8_4 1_555 1_555
C9_4 C8_4 1_555 1_555
C10_4 C9_4 1_555 1_555
H12_4 C10_4 1_555 1_555
C11_4 C10_4 1_555 1_555
C12_4 C7_4 1_555 1_555
H13_4 C12_4 1_555 1_555
C13_4 O8_4 1_555 1_555
C14_4 O9_4 1_555 1_555
C15_4 O11_4 1_555 1_555
H14_4 C15_4 1_555 1_555
H15_4 C15_4 1_555 1_555
H16_4 C15_4 1_555 1_555
C16_4 C1_4 1_555 1_555
O12_4 Cu6_2 1_555 1_555
C17_4 O12_4 1_555 1_555
O13_4 Cu8 1_555 1_555
C18_4 H17_4 1_555 1_555
O31_2 C29_4 1_555 1_555
C19_4 C18_4 1_555 1_555
H18_4 C19_4 1_555 1_555
O32 C29_4 1_555 1_555
C20_4 C19_4 1_555 1_555
O16_4 Cu11 1_555 1_555
C21_4 C20_4 1_555 1_555
O17_4 Cu15 1_555 1_555
C22_4 C21_4 1_555 1_555
H19_4 C22_4 1_555 1_555
O18_4 C21_4 1_555 1_555
C23_4 C20_4 1_555 1_555
C24_4 C23_4 1_555 1_555
H20_4 C24_4 1_555 1_555
C25_4 C24_4 1_555 1_555
C26_4 C25_4 1_555 1_555
H21_4 C26_4 1_555 1_555
C27_4 C26_4 1_555 1_555
C28_4 C23_4 1_555 1_555
H22_4 C28_4 1_555 1_555
C29_4 C25_4 1_555 1_555
C30_4 O16_4 1_555 1_555
C31_4 O18_4 1_555 1_555
H23_4 C31_4 1_555 1_555
H24_4 C31_4 1_555 1_555
H25_4 C31_4 1_555 1_555
C32_4 C17_4 1_555 1_555
O19_4 C33_4 1_555 1_555
O21_4 Cu15 1_555 1_555
O22_4 Cu11 1_555 1_555
H27_4 C37_4 1_555 1_555
C38_4 C37_4 1_555 1_555
H28_4 C38_4 1_555 1_555
H29_4 C40_4 1_555 1_555
C41_4 C40_4 1_555 1_555
C45_4 O21_4 1_555 1_555
C47_4 C33_4 1_555 1_555
C49_4 H35_4 1_555 1_555
O26_4 Cu15 1_555 1_555
N1_4 C49_4 1_555 1_555
C50_4 N1_4 1_555 1_555
H36_4 C50_4 1_555 1_555
H37_4 C50_4 1_555 1_555
H38_4 C50_4 1_555 1_555
C51_4 N1_4 1_555 1_555
H39_4 C51_4 1_555 1_555
H40_4 C51_4 1_555 1_555
H41_4 C51_4 1_555 1_555
Cu7_4 O5_4 1_555 1_555
O27_4 Cu8 1_555 1_555
C2_4 C16_4 1_555 1_555
C6_4 C16_4 1_555 1_555
C9_4 C14_4 1_555 1_555
C11_4 C12_4 1_555 1_555
C11_4 C13_4 1_555 1_555
C17_4 O13_4 1_555 1_555
C18_4 C32_4 1_555 1_555
O17_4 C30_4 1_555 1_555
C22_4 C32_4 1_555 1_555
C27_4 C28_4 1_555 1_555
C27_4 C30_4 1_555 1_555
O22_4 C45_4 1_555 1_555
C38_4 C47_4 1_555 1_555
C41_4 C45_4 1_555 1_555
C49_4 O26_4 1_555 1_555
H7_4 O4_4 1_555 1_555
Cu10_2 O4_4 1_555 1_555
C34_4 H26_4 1_555 1_555
C35_4 C34_4 1_555 1_555
C36_4 C35_4 1_555 1_555
O36 C46_4 1_555 1_555
O37 C46_4 1_555 1_555
C39_4 C36_4 1_555 1_555
H30_4 C42_4 1_555 1_555
C43_4 C42_4 1_555 1_555
C44_4 C39_4 1_555 1_555
H31_4 C44_4 1_555 1_555
C46_4 C43_4 1_555 1_555
O25_4 C35_4 1_555 1_555
C48_4 O25_4 1_555 1_555
H32_4 C48_4 1_555 1_555
H33_4 C48_4 1_555 1_555
H34_4 C48_4 1_555 1_555
C43_4 C44_4 1_555 1_555
Cu7_4 O1_5 1_555 1_555
O1_5 H1_5 1_555 1_555
H2_5 O1_5 1_555 1_555
O12_5 Cu7_4 1_555 1_555
O35 Cu7_4 1_555 1_555
O2_5 H3_5 1_555 1_555
Cu3_3 O3_5 1_555 1_555
O3_5 H5_5 1_555 1_555
H6_5 O3_5 1_555 1_555
Cu4_2 O2_5 1_555 1_555
H7_5 O27 1_555 1_555
Cu5_3 O10_5 1_555 1_555
O28_4 C1_5 1_555 1_555
C1_5 O6_3 1_555 1_555
O6_3 Cu10_2 1_555 1_555
C2_5 H8_5 1_555 1_555
O7_3 C13_5 1_555 1_555
C3_5 C2_5 1_555 1_555
H9_5 C3_5 1_555 1_555
O8_5 Cu4_2 1_555 1_555
C4_5 C3_5 1_555 1_555
O9_5 Cu3_3 1_555 1_555
C5_5 C4_5 1_555 1_555
O10_5 C14_5 1_555 1_555
C6_5 C5_5 1_555 1_555
H10_5 C6_5 1_555 1_555
O11_5 C5_5 1_555 1_555
C7_5 C4_5 1_555 1_555
C8_5 C7_5 1_555 1_555
H11_5 C8_5 1_555 1_555
C9_5 C8_5 1_555 1_555
C10_5 C9_5 1_555 1_555
H12_5 C10_5 1_555 1_555
C11_5 C10_5 1_555 1_555
C12_5 C7_5 1_555 1_555
H13_5 C12_5 1_555 1_555
C13_5 O8_5 1_555 1_555
C14_5 O9_5 1_555 1_555
C15_5 O11_5 1_555 1_555
H14_5 C15_5 1_555 1_555
H15_5 C15_5 1_555 1_555
H16_5 C15_5 1_555 1_555
C16_5 C1_5 1_555 1_555
O13_5 Cu9 1_555 1_555
C18_5 H17_5 1_555 1_555
O14_3 C29_5 1_555 1_555
C19_5 C18_5 1_555 1_555
H18_5 C19_5 1_555 1_555
O15_3 C29_5 1_555 1_555
C20_5 C19_5 1_555 1_555
O16_5 Cu3_3 1_555 1_555
C21_5 C20_5 1_555 1_555
O17_5 Cu5_3 1_555 1_555
C22_5 C21_5 1_555 1_555
H19_5 C22_5 1_555 1_555
O18_5 C21_5 1_555 1_555
C23_5 C20_5 1_555 1_555
C24_5 C23_5 1_555 1_555
H20_5 C24_5 1_555 1_555
C25_5 C24_5 1_555 1_555
C26_5 C25_5 1_555 1_555
H21_5 C26_5 1_555 1_555
C27_5 C26_5 1_555 1_555
C28_5 C23_5 1_555 1_555
H22_5 C28_5 1_555 1_555
C29_5 C25_5 1_555 1_555
C30_5 O16_5 1_555 1_555
C31_5 O18_5 1_555 1_555
H23_5 C31_5 1_555 1_555
H24_5 C31_5 1_555 1_555
H25_5 C31_5 1_555 1_555
C32_5 C17_5 1_555 1_555
O33_3 C33_5 1_555 1_555
C33_5 O35_3 1_555 1_555
O35_3 Cu7_2 1_555 1_555
C34_5 H26_5 1_555 1_555
O21_5 Cu5_3 1_555 1_555
C35_5 C34_5 1_555 1_555
O22_5 Cu3_3 1_555 1_555
C36_5 C35_5 1_555 1_555
O23_3 C46_5 1_555 1_555
C37_5 C36_5 1_555 1_555
H27_5 C37_5 1_555 1_555
O24_3 C46_5 1_555 1_555
C38_5 C37_5 1_555 1_555
H28_5 C38_5 1_555 1_555
C39_5 C36_5 1_555 1_555
C40_5 C39_5 1_555 1_555
H29_5 C40_5 1_555 1_555
C41_5 C40_5 1_555 1_555
C42_5 C41_5 1_555 1_555
H30_5 C42_5 1_555 1_555
C43_5 C42_5 1_555 1_555
C44_5 C39_5 1_555 1_555
H31_5 C44_5 1_555 1_555
C45_5 O21_5 1_555 1_555
C46_5 C43_5 1_555 1_555
C47_5 C33_5 1_555 1_555
O25_5 C35_5 1_555 1_555
C48_5 O25_5 1_555 1_555
H32_5 C48_5 1_555 1_555
H33_5 C48_5 1_555 1_555
H34_5 C48_5 1_555 1_555
C49_5 H35_5 1_555 1_555
O26_5 Cu5_3 1_555 1_555
N1_5 C49_5 1_555 1_555
C50_5 N1_5 1_555 1_555
H36_5 C50_5 1_555 1_555
H38_5 C50_5 1_555 1_555
C51_5 N1_5 1_555 1_555
H39_5 C51_5 1_555 1_555
H40_5 C51_5 1_555 1_555
Cu11_3 O24_3 1_555 1_555
Cu12_2 O7_3 1_555 1_555
Cu14_2 O15_3 1_555 1_555
Cu15_3 O23_3 1_555 1_555
O30_3 Cu4_2 1_555 1_555
O36_3 Cu5_3 1_555 1_555
O37_3 Cu3_3 1_555 1_555
C2_5 C16_5 1_555 1_555
C6_5 C16_5 1_555 1_555
C9_5 C14_5 1_555 1_555
C11_5 C12_5 1_555 1_555
C11_5 C13_5 1_555 1_555
C17_5 O13_5 1_555 1_555
C18_5 C32_5 1_555 1_555
O17_5 C30_5 1_555 1_555
C22_5 C32_5 1_555 1_555
C27_5 C28_5 1_555 1_555
C27_5 C30_5 1_555 1_555
C34_5 C47_5 1_555 1_555
O22_5 C45_5 1_555 1_555
C38_5 C47_5 1_555 1_555
C41_5 C45_5 1_555 1_555
C43_5 C44_5 1_555 1_555
C49_5 O26_5 1_555 1_555
H7_6 O27_2 1_555 1_555
O2_6 H3_6 1_555 1_555
Cu3_4 O3_6 1_555 1_555
O3_6 H5_6 1_555 1_555
H6_6 O3_6 1_555 1_555
Cu12_2 O2_6 1_555 1_555
Cu5_4 O10_6 1_555 1_555
O28_3 C1_6 1_555 1_555
C1_6 O6_4 1_555 1_555
O6_4 Cu10 1_555 1_555
C2_6 H8_6 1_555 1_555
O30_3 C13_6 1_555 1_555
C3_6 C2_6 1_555 1_555
H9_6 C3_6 1_555 1_555
O8_6 Cu12_2 1_555 1_555
C4_6 C3_6 1_555 1_555
O9_6 Cu3_4 1_555 1_555
C5_6 C4_6 1_555 1_555
O10_6 C14_6 1_555 1_555
C6_6 C5_6 1_555 1_555
H10_6 C6_6 1_555 1_555
O11_6 C5_6 1_555 1_555
C7_6 C4_6 1_555 1_555
C8_6 C7_6 1_555 1_555
H11_6 C8_6 1_555 1_555
C9_6 C8_6 1_555 1_555
C10_6 C9_6 1_555 1_555
H12_6 C10_6 1_555 1_555
C11_6 C10_6 1_555 1_555
C12_6 C7_6 1_555 1_555
H13_6 C12_6 1_555 1_555
C13_6 O8_6 1_555 1_555
C14_6 O9_6 1_555 1_555
C15_6 O11_6 1_555 1_555
H14_6 C15_6 1_555 1_555
H15_6 C15_6 1_555 1_555
H16_6 C15_6 1_555 1_555
C16_6 C1_6 1_555 1_555
O13_6 Cu9_2 1_555 1_555
C18_6 H17_6 1_555 1_555
O14_4 C29_6 1_555 1_555
C19_6 C18_6 1_555 1_555
H18_6 C19_6 1_555 1_555
O15_4 C29_6 1_555 1_555
C20_6 C19_6 1_555 1_555
O16_6 Cu3_4 1_555 1_555
C21_6 C20_6 1_555 1_555
O17_6 Cu5_4 1_555 1_555
C22_6 C21_6 1_555 1_555
H19_6 C22_6 1_555 1_555
O18_6 C21_6 1_555 1_555
C23_6 C20_6 1_555 1_555
C24_6 C23_6 1_555 1_555
H20_6 C24_6 1_555 1_555
C25_6 C24_6 1_555 1_555
C26_6 C25_6 1_555 1_555
H21_6 C26_6 1_555 1_555
C27_6 C26_6 1_555 1_555
C28_6 C23_6 1_555 1_555
H22_6 C28_6 1_555 1_555
C29_6 C25_6 1_555 1_555
C30_6 O16_6 1_555 1_555
C31_6 O18_6 1_555 1_555
H23_6 C31_6 1_555 1_555
H24_6 C31_6 1_555 1_555
H25_6 C31_6 1_555 1_555
C32_6 C17_6 1_555 1_555
O33_4 C33_6 1_555 1_555
C33_6 O35_4 1_555 1_555
O35_4 Cu7 1_555 1_555
C34_6 H26_6 1_555 1_555
O21_6 Cu5_4 1_555 1_555
C35_6 C34_6 1_555 1_555
O22_6 Cu3_4 1_555 1_555
C36_6 C35_6 1_555 1_555
O23_4 C46_6 1_555 1_555
C37_6 C36_6 1_555 1_555
H27_6 C37_6 1_555 1_555
O24_4 C46_6 1_555 1_555
C38_6 C37_6 1_555 1_555
H28_6 C38_6 1_555 1_555
C39_6 C36_6 1_555 1_555
C40_6 C39_6 1_555 1_555
H29_6 C40_6 1_555 1_555
C41_6 C40_6 1_555 1_555
C42_6 C41_6 1_555 1_555
H30_6 C42_6 1_555 1_555
C43_6 C42_6 1_555 1_555
C44_6 C39_6 1_555 1_555
H31_6 C44_6 1_555 1_555
C45_6 O21_6 1_555 1_555
C46_6 C43_6 1_555 1_555
C47_6 C33_6 1_555 1_555
O25_6 C35_6 1_555 1_555
C48_6 O25_6 1_555 1_555
H32_6 C48_6 1_555 1_555
H33_6 C48_6 1_555 1_555
H34_6 C48_6 1_555 1_555
C49_6 H35_6 1_555 1_555
O26_6 Cu5_4 1_555 1_555
N1_6 C49_6 1_555 1_555
C50_6 N1_6 1_555 1_555
H36_6 C50_6 1_555 1_555
H38_6 C50_6 1_555 1_555
C51_6 N1_6 1_555 1_555
H39_6 C51_6 1_555 1_555
H40_6 C51_6 1_555 1_555
Cu11_4 O24_4 1_555 1_555
Cu13_2 O15_4 1_555 1_555
Cu15_4 O23_4 1_555 1_555
O36_4 Cu5_4 1_555 1_555
O37_4 Cu3_4 1_555 1_555
C2_6 C16_6 1_555 1_555
C6_6 C16_6 1_555 1_555
C9_6 C14_6 1_555 1_555
C11_6 C12_6 1_555 1_555
C11_6 C13_6 1_555 1_555
C17_6 O13_6 1_555 1_555
C18_6 C32_6 1_555 1_555
O17_6 C30_6 1_555 1_555
C22_6 C32_6 1_555 1_555
C27_6 C28_6 1_555 1_555
C27_6 C30_6 1_555 1_555
C34_6 C47_6 1_555 1_555
O22_6 C45_6 1_555 1_555
C38_6 C47_6 1_555 1_555
C41_6 C45_6 1_555 1_555
C43_6 C44_6 1_555 1_555
C49_6 O26_6 1_555 1_555
Cu7_3 O1_6 1_555 1_555
O1_6 H1_6 1_555 1_555
H2_6 O1_6 1_555 1_555
O12_6 Cu7_3 1_555 1_555
O35_2 Cu7_3 1_555 1_555
C34_7 H26_7 1_555 1_555
C35_7 C34_7 1_555 1_555
C36_7 C35_7 1_555 1_555
O36_4 C46_7 1_555 1_555
O37_4 C46_7 1_555 1_555
C39_7 C36_7 1_555 1_555
H30_7 C42_7 1_555 1_555
C43_7 C42_7 1_555 1_555
C44_7 C39_7 1_555 1_555
H31_7 C44_7 1_555 1_555
C46_7 C43_7 1_555 1_555
O25_7 C35_7 1_555 1_555
C48_7 O25_7 1_555 1_555
H32_7 C48_7 1_555 1_555
H33_7 C48_7 1_555 1_555
H34_7 C48_7 1_555 1_555
C43_7 C44_7 1_555 1_555
Cu7_2 O1_7 1_555 1_555
O1_7 H1_7 1_555 1_555
H2_7 O1_7 1_555 1_555
O2_7 H3_7 1_555 1_555
H4_7 O2_7 1_555 1_555
Cu11_4 O3_7 1_555 1_555
O3_7 H5_7 1_555 1_555
H6_7 O3_7 1_555 1_555
Cu13_2 O2_7 1_555 1_555
O27_3 Cu7_2 1_555 1_555
H7_7 O27_3 1_555 1_555
Cu15_4 O10_7 1_555 1_555
O28_2 C1_7 1_555 1_555
C1_7 O29_4 1_555 1_555
C2_7 H8_7 1_555 1_555
O7_4 C13_7 1_555 1_555
C3_7 C2_7 1_555 1_555
H9_7 C3_7 1_555 1_555
O8_7 Cu13_2 1_555 1_555
C4_7 C3_7 1_555 1_555
O9_7 Cu11_4 1_555 1_555
C5_7 C4_7 1_555 1_555
O10_7 C14_7 1_555 1_555
C6_7 C5_7 1_555 1_555
H10_7 C6_7 1_555 1_555
O11_7 C5_7 1_555 1_555
C7_7 C4_7 1_555 1_555
C8_7 C7_7 1_555 1_555
H11_7 C8_7 1_555 1_555
C9_7 C8_7 1_555 1_555
C10_7 C9_7 1_555 1_555
H12_7 C10_7 1_555 1_555
C11_7 C10_7 1_555 1_555
C12_7 C7_7 1_555 1_555
H13_7 C12_7 1_555 1_555
C13_7 O8_7 1_555 1_555
C14_7 O9_7 1_555 1_555
C15_7 O11_7 1_555 1_555
H14_7 C15_7 1_555 1_555
H15_7 C15_7 1_555 1_555
H16_7 C15_7 1_555 1_555
C16_7 C1_7 1_555 1_555
O12_7 Cu7_2 1_555 1_555
C17_7 O12_7 1_555 1_555
O13_7 Cu10 1_555 1_555
C18_7 H17_7 1_555 1_555
O31_3 C29_7 1_555 1_555
C19_7 C18_7 1_555 1_555
H18_7 C19_7 1_555 1_555
O32_4 C29_7 1_555 1_555
C20_7 C19_7 1_555 1_555
O16_7 Cu11_4 1_555 1_555
C21_7 C20_7 1_555 1_555
O17_7 Cu15_4 1_555 1_555
C22_7 C21_7 1_555 1_555
H19_7 C22_7 1_555 1_555
O18_7 C21_7 1_555 1_555
C23_7 C20_7 1_555 1_555
C24_7 C23_7 1_555 1_555
H20_7 C24_7 1_555 1_555
C25_7 C24_7 1_555 1_555
C26_7 C25_7 1_555 1_555
H21_7 C26_7 1_555 1_555
C27_7 C26_7 1_555 1_555
C28_7 C23_7 1_555 1_555
H22_7 C28_7 1_555 1_555
C29_7 C25_7 1_555 1_555
C30_7 O16_7 1_555 1_555
C31_7 O18_7 1_555 1_555
H23_7 C31_7 1_555 1_555
H24_7 C31_7 1_555 1_555
H25_7 C31_7 1_555 1_555
C32_7 C17_7 1_555 1_555
O33 C33_7 1_555 1_555
O21_7 Cu15_4 1_555 1_555
O22_7 Cu11_4 1_555 1_555
H27_7 C37_7 1_555 1_555
C38_7 C37_7 1_555 1_555
H28_7 C38_7 1_555 1_555
H29_7 C40_7 1_555 1_555
C41_7 C40_7 1_555 1_555
C45_7 O21_7 1_555 1_555
C47_7 C33_7 1_555 1_555
C49_7 H35_7 1_555 1_555
O26_7 Cu15_4 1_555 1_555
N1_7 C49_7 1_555 1_555
C50_7 N1_7 1_555 1_555
H36_7 C50_7 1_555 1_555
H37_7 C50_7 1_555 1_555
H38_7 C50_7 1_555 1_555
C51_7 N1_7 1_555 1_555
H39_7 C51_7 1_555 1_555
H40_7 C51_7 1_555 1_555
H41_7 C51_7 1_555 1_555
C2_7 C16_7 1_555 1_555
C6_7 C16_7 1_555 1_555
C9_7 C14_7 1_555 1_555
C11_7 C12_7 1_555 1_555
C11_7 C13_7 1_555 1_555
C17_7 O13_7 1_555 1_555
C18_7 C32_7 1_555 1_555
O17_7 C30_7 1_555 1_555
C22_7 C32_7 1_555 1_555
C27_7 C28_7 1_555 1_555
C27_7 C30_7 1_555 1_555
O22_7 C45_7 1_555 1_555
C38_7 C47_7 1_555 1_555
C41_7 C45_7 1_555 1_555
C49_7 O26_7 1_555 1_555
C34_8 H26_8 1_555 1_555
C35_8 C34_8 1_555 1_555
C36_8 C35_8 1_555 1_555
O36_3 C46_8 1_555 1_555
O37_3 C46_8 1_555 1_555
C39_8 C36_8 1_555 1_555
H30_8 C42_8 1_555 1_555
C43_8 C42_8 1_555 1_555
C44_8 C39_8 1_555 1_555
H31_8 C44_8 1_555 1_555
C46_8 C43_8 1_555 1_555
O25_8 C35_8 1_555 1_555
C48_8 O25_8 1_555 1_555
H32_8 C48_8 1_555 1_555
H33_8 C48_8 1_555 1_555
H34_8 C48_8 1_555 1_555
C43_8 C44_8 1_555 1_555
H7_8 O27_4 1_555 1_555
Cu7 O1_8 1_555 1_555
O1_8 H1_8 1_555 1_555
H2_8 O1_8 1_555 1_555
O2_8 H3_8 1_555 1_555
H4_8 O2_8 1_555 1_555
Cu11_3 O3_8 1_555 1_555
O3_8 H5_8 1_555 1_555
H6_8 O3_8 1_555 1_555
Cu14_2 O2_8 1_555 1_555
Cu15_3 O10_8 1_555 1_555
O28 C1_8 1_555 1_555
C1_8 O29_3 1_555 1_555
C2_8 H8_8 1_555 1_555
O30_4 C13_8 1_555 1_555
C3_8 C2_8 1_555 1_555
H9_8 C3_8 1_555 1_555
O8_8 Cu14_2 1_555 1_555
C4_8 C3_8 1_555 1_555
O9_8 Cu11_3 1_555 1_555
C5_8 C4_8 1_555 1_555
O10_8 C14_8 1_555 1_555
C6_8 C5_8 1_555 1_555
H10_8 C6_8 1_555 1_555
O11_8 C5_8 1_555 1_555
C7_8 C4_8 1_555 1_555
C8_8 C7_8 1_555 1_555
H11_8 C8_8 1_555 1_555
C9_8 C8_8 1_555 1_555
C10_8 C9_8 1_555 1_555
H12_8 C10_8 1_555 1_555
C11_8 C10_8 1_555 1_555
C12_8 C7_8 1_555 1_555
H13_8 C12_8 1_555 1_555
C13_8 O8_8 1_555 1_555
C14_8 O9_8 1_555 1_555
C15_8 O11_8 1_555 1_555
H14_8 C15_8 1_555 1_555
H15_8 C15_8 1_555 1_555
H16_8 C15_8 1_555 1_555
C16_8 C1_8 1_555 1_555
O12_8 Cu7 1_555 1_555
C17_8 O12_8 1_555 1_555
O13_8 Cu10_2 1_555 1_555
C18_8 H17_8 1_555 1_555
O31_4 C29_8 1_555 1_555
C19_8 C18_8 1_555 1_555
H18_8 C19_8 1_555 1_555
O32_3 C29_8 1_555 1_555
C20_8 C19_8 1_555 1_555
O16_8 Cu11_3 1_555 1_555
C21_8 C20_8 1_555 1_555
O17_8 Cu15_3 1_555 1_555
C22_8 C21_8 1_555 1_555
H19_8 C22_8 1_555 1_555
O18_8 C21_8 1_555 1_555
C23_8 C20_8 1_555 1_555
C24_8 C23_8 1_555 1_555
H20_8 C24_8 1_555 1_555
C25_8 C24_8 1_555 1_555
C26_8 C25_8 1_555 1_555
H21_8 C26_8 1_555 1_555
C27_8 C26_8 1_555 1_555
C28_8 C23_8 1_555 1_555
H22_8 C28_8 1_555 1_555
C29_8 C25_8 1_555 1_555
C30_8 O16_8 1_555 1_555
C31_8 O18_8 1_555 1_555
H23_8 C31_8 1_555 1_555
H24_8 C31_8 1_555 1_555
H25_8 C31_8 1_555 1_555
C32_8 C17_8 1_555 1_555
O33_2 C33_8 1_555 1_555
O21_8 Cu15_3 1_555 1_555
O22_8 Cu11_3 1_555 1_555
H27_8 C37_8 1_555 1_555
C38_8 C37_8 1_555 1_555
H28_8 C38_8 1_555 1_555
H29_8 C40_8 1_555 1_555
C41_8 C40_8 1_555 1_555
C45_8 O21_8 1_555 1_555
C47_8 C33_8 1_555 1_555
C49_8 H35_8 1_555 1_555
O26_8 Cu15_3 1_555 1_555
N1_8 C49_8 1_555 1_555
C50_8 N1_8 1_555 1_555
H36_8 C50_8 1_555 1_555
H37_8 C50_8 1_555 1_555
H38_8 C50_8 1_555 1_555
C51_8 N1_8 1_555 1_555
H39_8 C51_8 1_555 1_555
H40_8 C51_8 1_555 1_555
H41_8 C51_8 1_555 1_555
C2_8 C16_8 1_555 1_555
C6_8 C16_8 1_555 1_555
C9_8 C14_8 1_555 1_555
C11_8 C12_8 1_555 1_555
C11_8 C13_8 1_555 1_555
C17_8 O13_8 1_555 1_555
C18_8 C32_8 1_555 1_555
O17_8 C30_8 1_555 1_555
C22_8 C32_8 1_555 1_555
C27_8 C28_8 1_555 1_555
C27_8 C30_8 1_555 1_555
O22_8 C45_8 1_555 1_555
C38_8 C47_8 1_555 1_555
C41_8 C45_8 1_555 1_555
C49_8 O26_8 1_555 1_555

#END
