
###############################################################################
#
# This file contains modified crystal structure data generated from the
# MOF subset of the Cambridge Structural Database (CSD) v543 
# hosted by the Cambridge Crystallographic Data Centre (CCDC).
#
# This work is licensed under the Creative Commons
# Attribution-NonCommercial-ShareAlike 4.0 International License.
# To view a copy of this license, visit
# http://creativecommons.org/licenses/by-nc-sa/4.0/
# or send a letter to
# Creative Commons, PO Box 1866, Mountain View, CA 94042, USA.
#
# CIF created using the CSD Python API on 29 September 2022
# The structure has been converted into the P1 space group
# The structure has a 3D framework
# The original CSD entry QAMDOB is in the cubic crystal system
# The framework has been calculated to contain at least 10.0% void space
# The void calculation uses a probe of radius 1.32A, grid spacing 0.4
#
###############################################################################

data_QAMDOB
_chemical_formula_moiety         '(C36 Fe5 O36)n'
_symmetry_cell_setting           triclinic
_symmetry_space_group_name_H-M   'P 1'
_symmetry_Int_Tables_number      1
_space_group_name_Hall           'P 1'
loop_
_symmetry_equiv_pos_site_id
_symmetry_equiv_pos_as_xyz
1 x,y,z
_cell_length_a                   10.5457(2)
_cell_length_b                   10.5457(2)
_cell_length_c                   10.5457(2)
_cell_angle_alpha                90
_cell_angle_beta                 90
_cell_angle_gamma                90
_cell_volume                     1172.81
loop_
_atom_site_label
_atom_site_type_symbol
_atom_site_fract_x
_atom_site_fract_y
_atom_site_fract_z
_atom_site_U_iso_or_equiv
_atom_site_thermal_displace_type
C13 C 0.3730(7) 0.1305(7) 0.5 0.0141 Uiso
C14 C 0.3650(6) 0.0667(4) 0.6264(6) 0.0141 Uiso
O13 O 0.3676(7) 0.2638(6) 0.5 0.0141 Uiso
O14 O 0.3522(3) 0.1331(3) 0.7220(3) 0.0141 Uiso
C17 C 0.3650(6) 0.0667(4) 0.3736(6) 0.0141 Uiso
O17 O 0.3522(3) 0.1331(3) 0.2780(3) 0.0141 Uiso
Fe6 Fe 0.31730(9) 0.31730(9) 0.68270(9) 0.0186 Uiso
Fe8 Fe 0.31730(9) 0.31730(9) 0.31730(9) 0.0186 Uiso
Fe2 Fe 0.31730(9) 0.68270(9) 0.68270(9) 0.0186 Uiso
C7 C 0.1305(7) 0.5 0.6270(7) 0.0141 Uiso
C8 C 0.0667(4) 0.6264(6) 0.6350(6) 0.0141 Uiso
O7 O 0.2638(6) 0.5 0.6324(7) 0.0141 Uiso
O8 O 0.1331(3) 0.7220(3) 0.6478(3) 0.0141 Uiso
C11 C 0.0667(4) 0.3736(6) 0.6350(6) 0.0141 Uiso
O11 O 0.1331(3) 0.2780(3) 0.6478(3) 0.0141 Uiso
C15 C 0.3730(7) 0.8695(7) 0.5 0.0141 Uiso
C16 C 0.3650(6) 0.9333(4) 0.6264(6) 0.0141 Uiso
O15 O 0.3676(7) 0.7362(6) 0.5 0.0141 Uiso
O16 O 0.3522(3) 0.8669(3) 0.7220(3) 0.0141 Uiso
C18 C 0.3650(6) 0.9333(4) 0.3736(6) 0.0141 Uiso
O18 O 0.3522(3) 0.8669(3) 0.2780(3) 0.0141 Uiso
Fe7 Fe 0.31730(9) 0.68270(9) 0.31730(9) 0.0186 Uiso
O22 O 0.5 0.6324(7) 0.7362(6) 0.0141 Uiso
O25 O 0.2780(3) 0.6478(3) 0.8669(3) 0.0141 Uiso
C3 C 0.6270(7) 0.1305(7) 0.5 0.0141 Uiso
C4 C 0.6350(6) 0.0667(4) 0.6264(6) 0.0141 Uiso
O3 O 0.6324(7) 0.2638(6) 0.5 0.0141 Uiso
O4 O 0.6478(3) 0.1331(3) 0.7220(3) 0.0141 Uiso
C6 C 0.6350(6) 0.0667(4) 0.3736(6) 0.0141 Uiso
O6 O 0.6478(3) 0.1331(3) 0.2780(3) 0.0141 Uiso
Fe3 Fe 0.68270(9) 0.31730(9) 0.68270(9) 0.0186 Uiso
Fe9 Fe 0.68270(9) 0.31730(9) 0.31730(9) 0.0186 Uiso
O19 O 0.5 0.3676(7) 0.7362(6) 0.0141 Uiso
O24 O 0.7362(6) 0.5 0.6324(7) 0.0141 Uiso
O26 O 0.7220(3) 0.3522(3) 0.8669(3) 0.0141 Uiso
O29 O 0.8669(3) 0.2780(3) 0.6478(3) 0.0141 Uiso
Fe1 Fe 0.68270(9) 0.68270(9) 0.68270(9) 0.0186 Uiso
C1 C 0.6270(7) 0.8695(7) 0.5 0.0141 Uiso
C2 C 0.6350(6) 0.9333(4) 0.6264(6) 0.0141 Uiso
O1 O 0.6324(7) 0.7362(6) 0.5 0.0141 Uiso
O2 O 0.6478(3) 0.8669(3) 0.7220(3) 0.0141 Uiso
C5 C 0.6350(6) 0.9333(4) 0.3736(6) 0.0141 Uiso
O5 O 0.6478(3) 0.8669(3) 0.2780(3) 0.0141 Uiso
C9 C 0.8695(7) 0.5 0.6270(7) 0.0141 Uiso
C10 C 0.9333(4) 0.6264(6) 0.6350(6) 0.0141 Uiso
O10 O 0.8669(3) 0.7220(3) 0.6478(3) 0.0141 Uiso
C12 C 0.9333(4) 0.3736(6) 0.6350(6) 0.0141 Uiso
Fe4 Fe 0.68270(9) 0.68270(9) 0.31730(9) 0.0186 Uiso
O20 O 0.5 0.6324(7) 0.2638(6) 0.0141 Uiso
O23 O 0.7362(6) 0.5 0.3676(7) 0.0141 Uiso
O27 O 0.7220(3) 0.6478(3) 0.1331(3) 0.0141 Uiso
O28 O 0.7220(3) 0.6478(3) 0.8669(3) 0.0141 Uiso
O30 O 0.8669(3) 0.7220(3) 0.3522(3) 0.0141 Uiso
O20_2 O 0.5 0.3676(7) 0.2638(6) 0.0141 Uiso
O23_2 O 0.2638(6) 0.5 0.3676(7) 0.0141 Uiso
O27_2 O 0.2780(3) 0.3522(3) 0.1331(3) 0.0141 Uiso
O28_2 O 0.2780(3) 0.3522(3) 0.8669(3) 0.0141 Uiso
O30_2 O 0.1331(3) 0.2780(3) 0.3522(3) 0.0141 Uiso
C9_2 C 0.1305(7) 0.5 0.3730(7) 0.0141 Uiso
C10_2 C 0.0667(4) 0.6264(6) 0.3650(6) 0.0141 Uiso
O10_2 O 0.1331(3) 0.7220(3) 0.3522(3) 0.0141 Uiso
C12_2 C 0.0667(4) 0.3736(6) 0.3650(6) 0.0141 Uiso
O28_3 O 0.2780(3) 0.6478(3) 0.1331(3) 0.0141 Uiso
C7_2 C 0.8695(7) 0.5 0.3730(7) 0.0141 Uiso
C8_2 C 0.9333(4) 0.6264(6) 0.3650(6) 0.0141 Uiso
C11_2 C 0.9333(4) 0.3736(6) 0.3650(6) 0.0141 Uiso
O11_2 O 0.8669(3) 0.2780(3) 0.3522(3) 0.0141 Uiso
C7_3 C 0.5 0.3730(7) 0.1305(7) 0.0141 Uiso
C8_3 C 0.3736(6) 0.3650(6) 0.0667(4) 0.0141 Uiso
C11_3 C 0.6264(6) 0.3650(6) 0.0667(4) 0.0141 Uiso
O11_3 O 0.7220(3) 0.3522(3) 0.1331(3) 0.0141 Uiso
C9_3 C 0.5 0.3730(7) 0.8695(7) 0.0141 Uiso
C10_3 C 0.3736(6) 0.3650(6) 0.9333(4) 0.0141 Uiso
C12_3 C 0.6264(6) 0.3650(6) 0.9333(4) 0.0141 Uiso
C9_4 C 0.5 0.6270(7) 0.1305(7) 0.0141 Uiso
C10_4 C 0.3736(6) 0.6350(6) 0.0667(4) 0.0141 Uiso
C12_4 C 0.6264(6) 0.6350(6) 0.0667(4) 0.0141 Uiso
C7_4 C 0.5 0.6270(7) 0.8695(7) 0.0141 Uiso
C8_4 C 0.3736(6) 0.6350(6) 0.9333(4) 0.0141 Uiso
C11_4 C 0.6264(6) 0.6350(6) 0.9333(4) 0.0141 Uiso
loop_
_geom_bond_atom_site_label_1
_geom_bond_atom_site_label_2
_geom_bond_site_symmetry_1
_geom_bond_site_symmetry_2
C13 C14 1_555 1_555
C14 O14 1_555 1_555
O13 C13 1_555 1_555
O14 Fe6 1_555 1_555
C17 C13 1_555 1_555
O17 C17 1_555 1_555
Fe6 O13 1_555 1_555
Fe8 O13 1_555 1_555
O17 Fe8 1_555 1_555
Fe2 O7 1_555 1_555
C7 C8 1_555 1_555
C8 O8 1_555 1_555
O7 C7 1_555 1_555
O8 Fe2 1_555 1_555
C11 C7 1_555 1_555
O11 C11 1_555 1_555
C15 C16 1_555 1_555
O15 Fe2 1_555 1_555
O16 Fe2 1_555 1_555
C18 C15 1_555 1_555
O18 C18 1_555 1_555
Fe6 O7 1_555 1_555
Fe7 O15 1_555 1_555
O22 Fe2 1_555 1_555
O25 Fe2 1_555 1_555
O11 Fe6 1_555 1_555
C15 O15 1_555 1_555
C16 O16 1_555 1_555
O18 Fe7 1_555 1_555
C3 C4 1_555 1_555
O3 C3 1_555 1_555
O4 C4 1_555 1_555
C6 C3 1_555 1_555
O6 C6 1_555 1_555
Fe3 O3 1_555 1_555
Fe9 O3 1_555 1_555
O19 Fe3 1_555 1_555
O24 Fe3 1_555 1_555
O26 Fe3 1_555 1_555
O29 Fe3 1_555 1_555
O4 Fe3 1_555 1_555
O6 Fe9 1_555 1_555
Fe1 O1 1_555 1_555
C1 C2 1_555 1_555
C2 O2 1_555 1_555
O1 C1 1_555 1_555
O2 Fe1 1_555 1_555
C5 C1 1_555 1_555
O5 C5 1_555 1_555
C9 C10 1_555 1_555
O24 Fe1 1_555 1_555
O10 Fe1 1_555 1_555
C12 C9 1_555 1_555
O29 C12 1_555 1_555
Fe4 O1 1_555 1_555
O20 Fe4 1_555 1_555
O22 Fe1 1_555 1_555
O23 Fe4 1_555 1_555
O27 Fe4 1_555 1_555
O28 Fe1 1_555 1_555
O30 Fe4 1_555 1_555
O5 Fe4 1_555 1_555
C9 O24 1_555 1_555
C10 O10 1_555 1_555
O20_2 Fe8 1_555 1_555
O19 Fe6 1_555 1_555
O23_2 Fe8 1_555 1_555
O27_2 Fe8 1_555 1_555
O28_2 Fe6 1_555 1_555
O30_2 Fe8 1_555 1_555
C9_2 C10_2 1_555 1_555
O23_2 Fe7 1_555 1_555
O10_2 Fe7 1_555 1_555
C12_2 C9_2 1_555 1_555
O30_2 C12_2 1_555 1_555
O20 Fe7 1_555 1_555
O28_3 Fe7 1_555 1_555
C9_2 O23_2 1_555 1_555
C10_2 O10_2 1_555 1_555
C7_2 C8_2 1_555 1_555
C8_2 O30 1_555 1_555
O23 C7_2 1_555 1_555
C11_2 C7_2 1_555 1_555
O11_2 C11_2 1_555 1_555
Fe9 O23 1_555 1_555
O11_2 Fe9 1_555 1_555
C7_3 C8_3 1_555 1_555
C8_3 O27_2 1_555 1_555
O20_2 C7_3 1_555 1_555
C11_3 C7_3 1_555 1_555
O11_3 C11_3 1_555 1_555
Fe9 O20_2 1_555 1_555
O11_3 Fe9 1_555 1_555
C9_3 C10_3 1_555 1_555
C12_3 C9_3 1_555 1_555
O26 C12_3 1_555 1_555
C9_3 O19 1_555 1_555
C10_3 O28_2 1_555 1_555
C9_4 C10_4 1_555 1_555
C12_4 C9_4 1_555 1_555
O27 C12_4 1_555 1_555
C9_4 O20 1_555 1_555
C10_4 O28_3 1_555 1_555
C7_4 C8_4 1_555 1_555
C8_4 O25 1_555 1_555
O22 C7_4 1_555 1_555
C11_4 C7_4 1_555 1_555
O28 C11_4 1_555 1_555

#END
