
###############################################################################
#
# This file contains modified crystal structure data generated from the
# MOF subset of the Cambridge Structural Database (CSD) v543 
# hosted by the Cambridge Crystallographic Data Centre (CCDC).
#
# This work is licensed under the Creative Commons
# Attribution-NonCommercial-ShareAlike 4.0 International License.
# To view a copy of this license, visit
# http://creativecommons.org/licenses/by-nc-sa/4.0/
# or send a letter to
# Creative Commons, PO Box 1866, Mountain View, CA 94042, USA.
#
# CIF created using the CSD Python API on 29 September 2022
# The structure has been converted into the P1 space group
# The structure has a 3D framework
# The original CSD entry QAMKUN is in the hexagonal crystal system
# The framework has been calculated to contain at least 10.0% void space
# The void calculation uses a probe of radius 1.32A, grid spacing 0.4
#
###############################################################################

data_QAMKUN
_chemical_formula_moiety         '(C84 H48 In6 N12 O26)n'
_symmetry_cell_setting           triclinic
_symmetry_space_group_name_H-M   'P 1'
_symmetry_Int_Tables_number      1
_space_group_name_Hall           'P 1'
loop_
_symmetry_equiv_pos_site_id
_symmetry_equiv_pos_as_xyz
1 x,y,z
_cell_length_a                   16.9675(2)
_cell_length_b                   16.9675(2)
_cell_length_c                   15.6734(5)
_cell_angle_alpha                90
_cell_angle_beta                 90
_cell_angle_gamma                120
_cell_volume                     3907.78
loop_
_atom_site_label
_atom_site_type_symbol
_atom_site_fract_x
_atom_site_fract_y
_atom_site_fract_z
N4 N 0.0925(3) 0.04626(33) 0.7500
H8 H 0.2210 0.0144 0.7500
N5 N 0.18872(23) 0.3774(2) 0.7500
C17 C 0.0984(3) 0.3308(2) 0.7500
H9 H 0.0671 0.3628 0.7500
C18 C 0.0489(3) 0.2370(2) 0.7500
C19 C 0.09461(34) 0.1892(3) 0.7500
C20 C 0.04409(34) 0.0882(3) 0.7500
C25 C 0.2324(2) 0.3308(2) 0.7500
H15 H 0.2957 0.3628 0.7500
C26 C 0.1881(2) 0.2370(2) 0.7500
H16 H 0.2210 0.2066 0.7500
In5 In 0.264311(19) 0.528621(17) 0.7500
N3 N 0.18868(11) 0.81128(23) 0.7500
C13 C 0.2324(2) 0.9016(3) 0.7500
H7 H 0.2957 0.9329 0.7500
C14 C 0.1881(2) 0.9511(3) 0.7500
C15 C 0.09459(15) 0.90539(34) 0.7500
C16 C 0.04411(16) 0.95591(34) 0.7500
C21 C 0.0984(3) 0.7676(2) 0.7500
H11 H 0.0671 0.7043 0.7500
C22 C 0.0489(3) 0.8119(2) 0.7500
In4 In 0.264310(8) 0.735689(19) 0.7500
N6 N 0.95374(33) 0.04624(13) 0.7500
H10 H 0.9856 0.2066 0.7500
H14 H 0.7934 0.0144 0.7500
O7 O 0.51798(10) 0.16808(14) 0.34615(11)
C30 C 0.57022(10) 0.14044(14) 0.3717(2)
C31 C 0.53373(10) 0.06746(14) 0.4387(2)
C32 C 0.44770(17) 0.03339(23) 0.4695(2)
H18 H 0.4112 0.0556 0.4488
O8 O 0.65010(10) 0.16808(14) 0.34615(11)
C33 C 0.58569(16) 0.03339(23) 0.4695(2)
H19 H 0.6444 0.0556 0.4488
In7 In 0.528621(17) 0.264310(8) 0.2500
In9 In 0.735690(8) 0.264311(19) 0.2500
In1 In 0.471379(17) 0.735690(8) 0.7500
O1 O 0.3333 0.6667 0.7500
O2 O 0.48202(10) 0.65010(10) 0.65385(11)
N1 N 0.6226(2) 0.81132(11) 0.7500
N2 N 0.95376(13) 0.9075(3) 0.7500
C1 C 0.42978(10) 0.57022(10) 0.6283(2)
C2 C 0.46627(10) 0.53373(10) 0.5613(2)
C3 C 0.55230(17) 0.58569(16) 0.5305(2)
H1 H 0.5888 0.6444 0.5512
C4 C 0.6692(2) 0.7676(2) 0.7500
H2 H 0.6372 0.7043 0.7500
C5 C 0.7630(2) 0.8119(2) 0.7500
H3 H 0.7934 0.7790 0.7500
C6 C 0.8108(3) 0.90541(15) 0.7500
C7 C 0.9118(3) 0.95589(16) 0.7500
O3 O 0.65010(10) 0.48202(10) 0.34615(11)
C8 C 0.57022(10) 0.42978(10) 0.3717(2)
C9 C 0.53373(10) 0.46627(10) 0.4387(2)
C10 C 0.58569(16) 0.55230(17) 0.4695(2)
H4 H 0.6444 0.5888 0.4488
O4 O 0.51798(10) 0.34990(10) 0.34615(11)
C11 C 0.44770(17) 0.41431(16) 0.4695(2)
H5 H 0.4112 0.3556 0.4488
O5 O 0.34990(10) 0.51798(10) 0.65385(11)
C12 C 0.41431(16) 0.44770(17) 0.5305(2)
H6 H 0.3556 0.4112 0.5512
H12 H 0.9856 0.7790 0.7500
C23 C 0.6692(2) 0.9016(3) 0.7500
H13 H 0.6372 0.9329 0.7500
C24 C 0.7630(2) 0.9511(3) 0.7500
O6 O 0.34990(10) 0.83192(14) 0.65385(11)
C27 C 0.42978(10) 0.85956(14) 0.6283(2)
C28 C 0.46627(10) 0.93254(14) 0.5613(2)
C29 C 0.41431(16) 0.96661(23) 0.5305(2)
H17 H 0.3556 0.9444 0.5512
O9 O 0.48202(10) 0.83192(14) 0.65385(11)
C34 C 0.55230(17) 0.96661(23) 0.5305(2)
H20 H 0.5888 0.9444 0.5512
O10 O 0.16808(14) 0.51798(10) 0.65385(11)
C35 C 0.14044(14) 0.57022(10) 0.6283(2)
C36 C 0.06746(14) 0.53373(10) 0.5613(2)
C37 C 0.03339(23) 0.44770(17) 0.5305(2)
H21 H 0.0556 0.4112 0.5512
O13 O 0.16808(14) 0.65010(10) 0.65385(11)
C42 C 0.03339(23) 0.58569(16) 0.5305(2)
H24 H 0.0556 0.6444 0.5512
In11 In 0.735689(19) 0.471379(17) 0.2500
O14 O 0.34990(10) 0.51798(10) 0.84615(11)
O15 O 0.16808(14) 0.65010(10) 0.84615(11)
O16 O 0.48202(10) 0.83192(14) 0.84615(11)
O17 O 0.48202(10) 0.65010(10) 0.84615(11)
O18 O 0.34990(10) 0.83192(14) 0.84615(11)
O19 O 0.16808(14) 0.51798(10) 0.84615(11)
O11 O 0.83192(14) 0.34990(10) 0.34615(11)
C38 C 0.85956(14) 0.42978(10) 0.3717(2)
C39 C 0.93254(14) 0.46627(10) 0.4387(2)
C40 C 0.96661(23) 0.41431(16) 0.4695(2)
H22 H 0.9444 0.3556 0.4488
O12 O 0.83192(14) 0.48202(10) 0.34615(11)
C41 C 0.96661(23) 0.55230(17) 0.4695(2)
H23 H 0.9444 0.5888 0.4488
C38_2 C 0.14044(14) 0.57022(10) 0.8717(2)
C39_2 C 0.06746(14) 0.53373(10) 0.9387(2)
C40_2 C 0.03339(23) 0.58569(16) 0.9695(2)
H22_2 H 0.0556 0.6444 0.9488
C41_2 C 0.03339(23) 0.44770(17) 0.9695(2)
H23_2 H 0.0556 0.4112 0.9488
O1_2 O 0.6667 0.3333 0.2500
O2_2 O 0.51798(10) 0.34990(10) 0.15385(11)
N1_2 N 0.3774(2) 0.18868(11) 0.2500
N2_2 N 0.04624(13) 0.0925(3) 0.2500
C1_2 C 0.57022(10) 0.42978(10) 0.1283(2)
C2_2 C 0.53373(10) 0.46627(10) 0.0613(2)
C3_2 C 0.44770(17) 0.41431(16) 0.0305(2)
H1_2 H 0.4112 0.3556 0.0512
C4_2 C 0.3308(2) 0.2324(2) 0.2500
H2_2 H 0.3628 0.2957 0.2500
C5_2 C 0.2370(2) 0.1881(2) 0.2500
H3_2 H 0.2066 0.2210 0.2500
C6_2 C 0.1892(3) 0.09459(15) 0.2500
C7_2 C 0.0882(3) 0.04411(16) 0.2500
O5_2 O 0.65010(10) 0.48202(10) 0.15385(11)
C12_2 C 0.58569(16) 0.55230(17) 0.0305(2)
H6_2 H 0.6444 0.5888 0.0512
H12_2 H 0.0144 0.2210 0.2500
C23_2 C 0.3308(2) 0.0984(3) 0.2500
H13_2 H 0.3628 0.0671 0.2500
C24_2 C 0.2370(2) 0.0489(3) 0.2500
O6_2 O 0.65010(10) 0.16808(14) 0.15385(11)
C27_2 C 0.57022(10) 0.14044(14) 0.1283(2)
C28_2 C 0.53373(10) 0.06746(14) 0.0613(2)
C29_2 C 0.58569(16) 0.03339(23) 0.0305(2)
H17_2 H 0.6444 0.0556 0.0512
O9_2 O 0.51798(10) 0.16808(14) 0.15385(11)
C34_2 C 0.44770(17) 0.03339(23) 0.0305(2)
H20_2 H 0.4112 0.0556 0.0512
O10_2 O 0.83192(14) 0.48202(10) 0.15385(11)
C35_2 C 0.85956(14) 0.42978(10) 0.1283(2)
C36_2 C 0.93254(14) 0.46627(10) 0.0613(2)
C37_2 C 0.96661(23) 0.55230(17) 0.0305(2)
H21_2 H 0.9444 0.5888 0.0512
O13_2 O 0.83192(14) 0.34990(10) 0.15385(11)
C42_2 C 0.96661(23) 0.41431(16) 0.0305(2)
H24_2 H 0.9444 0.3556 0.0512
N7 N 0.81132(11) 0.18872(23) 0.2500
N8 N 0.81128(23) 0.6226(2) 0.2500
C8_2 C 0.42978(10) 0.57022(10) 0.8717(2)
C9_2 C 0.46627(10) 0.53373(10) 0.9387(2)
C10_2 C 0.41431(16) 0.44770(17) 0.9695(2)
H4_2 H 0.3556 0.4112 0.9488
C11_2 C 0.55230(17) 0.58569(16) 0.9695(2)
H5_2 H 0.5888 0.6444 0.9488
N6_2 N 0.04626(33) 0.95376(13) 0.2500
H10_2 H 0.0144 0.7934 0.2500
H14_2 H 0.2066 0.9856 0.2500
C30_2 C 0.42978(10) 0.85956(14) 0.8717(2)
C31_2 C 0.46627(10) 0.93254(14) 0.9387(2)
C32_2 C 0.55230(17) 0.96661(23) 0.9695(2)
H18_2 H 0.5888 0.9444 0.9488
C33_2 C 0.41431(16) 0.96661(23) 0.9695(2)
H19_2 H 0.3556 0.9444 0.9488
C13_2 C 0.7676(2) 0.0984(3) 0.2500
H7_2 H 0.7043 0.0671 0.2500
C14_2 C 0.8119(2) 0.0489(3) 0.2500
C15_2 C 0.90541(15) 0.09461(34) 0.2500
C16_2 C 0.95589(16) 0.04409(34) 0.2500
C21_2 C 0.9016(3) 0.2324(2) 0.2500
H11_2 H 0.9329 0.2957 0.2500
C22_2 C 0.9511(3) 0.1881(2) 0.2500
N4_2 N 0.9075(3) 0.95374(33) 0.2500
H8_2 H 0.7790 0.9856 0.2500
C17_2 C 0.9016(3) 0.6692(2) 0.2500
H9_2 H 0.9329 0.6372 0.2500
C18_2 C 0.9511(3) 0.7630(2) 0.2500
C19_2 C 0.90539(34) 0.8108(3) 0.2500
C20_2 C 0.95591(34) 0.9118(3) 0.2500
C25_2 C 0.7676(2) 0.6692(2) 0.2500
H15_2 H 0.7043 0.6372 0.2500
C26_2 C 0.8119(2) 0.7630(2) 0.2500
H16_2 H 0.7790 0.7934 0.2500
loop_
_geom_bond_atom_site_label_1
_geom_bond_atom_site_label_2
_geom_bond_site_symmetry_1
_geom_bond_site_symmetry_2
N5 C17 1_555 1_555
C17 H9 1_555 1_555
C18 C17 1_555 1_555
C19 C18 1_555 1_555
C20 N4 1_555 1_555
C25 N5 1_555 1_555
H15 C25 1_555 1_555
C26 C19 1_555 1_555
H16 C26 1_555 1_555
In5 N5 1_555 1_555
C19 C20 1_555 1_555
C25 C26 1_555 1_555
N3 C13 1_555 1_555
C13 H7 1_555 1_555
C14 C13 1_555 1_555
C15 C14 1_555 1_555
C21 N3 1_555 1_555
H11 C21 1_555 1_555
C22 C15 1_555 1_555
In4 N3 1_555 1_555
C15 C16 1_555 1_555
C21 C22 1_555 1_555
O7 C30 1_555 1_555
C30 C31 1_555 1_555
C31 C32 1_555 1_555
H18 C32 1_555 1_555
O8 C30 1_555 1_555
C33 C31 1_555 1_555
H19 C33 1_555 1_555
In7 O7 1_555 1_555
In9 O8 1_555 1_555
In1 O1 1_555 1_555
O1 In4 1_555 1_555
O2 In1 1_555 1_555
N1 In1 1_555 1_555
N2 C7 1_555 1_555
C1 O2 1_555 1_555
C2 C1 1_555 1_555
C3 C2 1_555 1_555
H1 C3 1_555 1_555
C4 N1 1_555 1_555
H2 C4 1_555 1_555
C5 C4 1_555 1_555
H3 C5 1_555 1_555
C6 C5 1_555 1_555
C7 C6 1_555 1_555
O3 C8 1_555 1_555
C8 C9 1_555 1_555
C9 C10 1_555 1_555
C10 C3 1_555 1_555
H4 C10 1_555 1_555
O4 C8 1_555 1_555
C11 C9 1_555 1_555
H5 C11 1_555 1_555
O5 C1 1_555 1_555
C12 C2 1_555 1_555
H6 C12 1_555 1_555
C23 N1 1_555 1_555
H13 C23 1_555 1_555
C24 C6 1_555 1_555
In4 O6 1_555 1_555
O6 C27 1_555 1_555
C27 C28 1_555 1_555
C28 C29 1_555 1_555
C29 H17 1_555 1_555
O9 In1 1_555 1_555
C34 C28 1_555 1_555
H20 C34 1_555 1_555
In5 O1 1_555 1_555
O10 In5 1_555 1_555
C35 O10 1_555 1_555
C36 C35 1_555 1_555
C37 C36 1_555 1_555
H21 C37 1_555 1_555
O13 In4 1_555 1_555
C42 C36 1_555 1_555
H24 C42 1_555 1_555
In7 O4 1_555 1_555
In11 O3 1_555 1_555
O14 In5 1_555 1_555
O15 In4 1_555 1_555
O16 In1 1_555 1_555
O17 In1 1_555 1_555
O18 In4 1_555 1_555
O19 In5 1_555 1_555
C11 C12 1_555 1_555
O5 In5 1_555 1_555
C23 C24 1_555 1_555
C27 O9 1_555 1_555
C35 O13 1_555 1_555
O11 C38 1_555 1_555
C38 C39 1_555 1_555
C39 C40 1_555 1_555
H22 C40 1_555 1_555
O12 C38 1_555 1_555
C41 C39 1_555 1_555
H23 C41 1_555 1_555
In9 O11 1_555 1_555
In11 O12 1_555 1_555
O15 C38_2 1_555 1_555
C38_2 C39_2 1_555 1_555
C39_2 C40_2 1_555 1_555
H22_2 C40_2 1_555 1_555
O19 C38_2 1_555 1_555
C41_2 C39_2 1_555 1_555
H23_2 C41_2 1_555 1_555
In7 O1_2 1_555 1_555
O1_2 In9 1_555 1_555
O2_2 In7 1_555 1_555
N1_2 In7 1_555 1_555
N2_2 C7_2 1_555 1_555
C1_2 O2_2 1_555 1_555
C2_2 C1_2 1_555 1_555
C3_2 C2_2 1_555 1_555
H1_2 C3_2 1_555 1_555
C4_2 N1_2 1_555 1_555
H2_2 C4_2 1_555 1_555
C5_2 C4_2 1_555 1_555
H3_2 C5_2 1_555 1_555
C6_2 C5_2 1_555 1_555
C7_2 C6_2 1_555 1_555
O5_2 C1_2 1_555 1_555
C12_2 C2_2 1_555 1_555
H6_2 C12_2 1_555 1_555
C23_2 N1_2 1_555 1_555
H13_2 C23_2 1_555 1_555
C24_2 C6_2 1_555 1_555
In9 O6_2 1_555 1_555
O6_2 C27_2 1_555 1_555
C27_2 C28_2 1_555 1_555
C28_2 C29_2 1_555 1_555
C29_2 H17_2 1_555 1_555
O9_2 In7 1_555 1_555
C34_2 C28_2 1_555 1_555
H20_2 C34_2 1_555 1_555
In11 O1_2 1_555 1_555
O10_2 In11 1_555 1_555
C35_2 O10_2 1_555 1_555
C36_2 C35_2 1_555 1_555
C37_2 C36_2 1_555 1_555
H21_2 C37_2 1_555 1_555
O13_2 In9 1_555 1_555
C42_2 C36_2 1_555 1_555
H24_2 C42_2 1_555 1_555
N7 In9 1_555 1_555
N8 In11 1_555 1_555
O5_2 In11 1_555 1_555
C23_2 C24_2 1_555 1_555
C27_2 O9_2 1_555 1_555
C35_2 O13_2 1_555 1_555
O14 C8_2 1_555 1_555
C8_2 C9_2 1_555 1_555
C9_2 C10_2 1_555 1_555
H4_2 C10_2 1_555 1_555
O17 C8_2 1_555 1_555
C11_2 C9_2 1_555 1_555
H5_2 C11_2 1_555 1_555
O16 C30_2 1_555 1_555
C30_2 C31_2 1_555 1_555
C31_2 C32_2 1_555 1_555
H18_2 C32_2 1_555 1_555
O18 C30_2 1_555 1_555
C33_2 C31_2 1_555 1_555
H19_2 C33_2 1_555 1_555
N7 C13_2 1_555 1_555
C13_2 H7_2 1_555 1_555
C14_2 C13_2 1_555 1_555
C15_2 C14_2 1_555 1_555
C21_2 N7 1_555 1_555
H11_2 C21_2 1_555 1_555
C22_2 C15_2 1_555 1_555
C15_2 C16_2 1_555 1_555
C21_2 C22_2 1_555 1_555
N8 C17_2 1_555 1_555
C17_2 H9_2 1_555 1_555
C18_2 C17_2 1_555 1_555
C19_2 C18_2 1_555 1_555
C20_2 N4_2 1_555 1_555
C25_2 N8 1_555 1_555
H15_2 C25_2 1_555 1_555
C26_2 C19_2 1_555 1_555
H16_2 C26_2 1_555 1_555
C19_2 C20_2 1_555 1_555
C25_2 C26_2 1_555 1_555

#END
