
###############################################################################
#
# This file contains modified crystal structure data generated from the
# MOF subset of the Cambridge Structural Database (CSD) v543 
# hosted by the Cambridge Crystallographic Data Centre (CCDC).
#
# This work is licensed under the Creative Commons
# Attribution-NonCommercial-ShareAlike 4.0 International License.
# To view a copy of this license, visit
# http://creativecommons.org/licenses/by-nc-sa/4.0/
# or send a letter to
# Creative Commons, PO Box 1866, Mountain View, CA 94042, USA.
#
# CIF created using the CSD Python API on 29 September 2022
# The structure has been converted into the P1 space group
# The structure has a 3D framework
# The original CSD entry QAMKOH is in the rhombohedral crystal system
# The framework has been calculated to contain at least 10.0% void space
# The void calculation uses a probe of radius 1.32A, grid spacing 0.4
#
###############################################################################

data_QAMKOH
_chemical_formula_moiety         '(C346 H202 In22 N22 O76)n'
_symmetry_cell_setting           triclinic
_symmetry_space_group_name_H-M   'P 1'
_symmetry_Int_Tables_number      1
_space_group_name_Hall           'P 1'
loop_
_symmetry_equiv_pos_site_id
_symmetry_equiv_pos_as_xyz
1 x,y,z
_cell_length_a                   19.6449(3)
_cell_length_b                   19.6449(3)
_cell_length_c                   45.9531(11)
_cell_angle_alpha                90
_cell_angle_beta                 90
_cell_angle_gamma                120
_cell_volume                     15358.4
loop_
_atom_site_label
_atom_site_type_symbol
_atom_site_fract_x
_atom_site_fract_y
_atom_site_fract_z
In9 In 0.103530(7) 0.000000(10) 0.7500
N2 N 0.11647(8) 0.66667(11) 0.9167
C20 C 0.06361(9) 0.63057(13) 0.93783(3)
H12 H 0.0755 0.6060 0.9527
O8 O 0.06015(6) 0.90719(8) 0.78203(2)
C30 C 0.09971(9) 0.70276(13) 0.89550(3)
H18 H 0.1362 0.7273 0.8806
C31 C 0.03073(10) 0.70511(14) 0.89468(3)
C32 C 0.01821(10) 0.74735(14) 0.87022(3)
C35 C 0.00188(9) 0.82298(13) 0.82167(3)
C36 C 0.07363(10) 0.85393(14) 0.83581(3)
H21 H 0.1167 0.8998 0.8289
C37 C 0.08155(10) 0.81674(15) 0.86019(4)
H22 H 0.1296 0.8385 0.8698
In7 In -0.000000(10) 0.103529(7) 0.7500
In9_2 In 0.103530(7) 1.000000(10) 0.7500
In11 In 0.229804(7) 0.666667(10) 0.9167
In1 In 0.563137(7) 0.229804(7) 0.0833
O1 O 0.6667 0.3333 0.0833
O2 O 0.60652(6) 0.18038(6) 0.05130(2)
O3 O 0.73767(6) 0.25105(6) 0.04710(2)
C6 C 0.72869(11) 0.15304(12) 0.00017(4)
H4 H 0.7779 0.1832 0.0086
C7 C 0.66479(9) 0.15444(10) 0.01166(3)
H5 H 0.5500 0.1165 0.0044
C10 C 0.67066(9) 0.19937(9) 0.03877(3)
In2 In 0.770196(7) 0.333333(10) 0.0833
O6 O 0.81962(6) 0.42614(8) 0.05130(2)
O7 O 0.74895(6) 0.48662(8) 0.04710(2)
C25 C 0.84696(12) 0.57565(16) 0.00017(4)
H15 H 0.8168 0.5947 0.0086
C26 C 0.84556(10) 0.51035(13) 0.01166(3)
H16 H 0.8835 0.4335 0.0044
C29 C 0.80063(9) 0.47129(13) 0.03877(3)
In3 In 0.666667(10) 0.436863(7) 0.0833
O10 O 0.57386(8) 0.39348(6) 0.05130(2)
O11 O 0.51338(8) 0.26233(6) 0.04710(2)
C44 C 0.42435(16) 0.27131(11) 0.00017(4)
H26 H 0.4053 0.2221 0.0086
C45 C 0.48965(13) 0.33521(9) 0.01166(3)
H27 H 0.5665 0.4500 0.0044
C48 C 0.52871(13) 0.32934(9) 0.03877(3)
O14 O 0.51371(6) 0.27319(6) 0.11537(2)
O15 O 0.75947(8) 0.48629(6) 0.11537(2)
O16 O 0.72681(6) 0.24053(8) 0.11537(2)
O17 O 0.58438(6) 0.40434(6) 0.11957(2)
O18 O 0.81995(8) 0.41562(6) 0.11957(2)
O19 O 0.59566(6) 0.18005(8) 0.11957(2)
N4 N 0.44980(8) 0.11647(8) 0.0833
N5 N 0.88353(8) 0.33333(11) 0.0833
N6 N 0.66667(11) 0.55020(8) 0.0833
C2 C 0.63594(10) 0.00772(10) 0.93865(3)
C3 C 0.69084(13) 0.02417(13) 0.9167
H2 H 0.7382 0.0715 0.9167
C4 C 0.64846(10) 0.06248(10) 0.96311(3)
C5 C 0.72022(11) 0.10707(13) 0.97608(4)
H3 H 0.7639 0.1065 0.9686
C8 C 0.59304(10) 0.11364(10) 0.99752(3)
C9 C 0.58512(10) 0.06853(11) 0.97314(4)
H6 H 0.5371 0.0423 0.9635
O5 O 0.91772(6) 0.07100(6) 0.78623(2)
C14 C 0.77374(13) 0.05355(11) 0.85725(4)
H8 H 0.7732 0.0972 0.8647
C15 C 0.81971(12) 0.06202(11) 0.83316(4)
H9 H 0.8499 0.1112 0.8247
C19 C 0.86604(9) 0.00399(9) 0.79456(3)
C21 C 0.99228(10) 0.62822(14) 0.93865(3)
C22 C 0.97583(13) 0.66667(18) 0.9167
H13 H 0.9285 0.6667 0.9167
C23 C 0.93752(10) 0.58598(14) 0.96311(3)
C24 C 0.89293(13) 0.61315(17) 0.97608(4)
H14 H 0.8935 0.6574 0.9686
C27 C 0.88636(10) 0.47940(14) 0.99752(3)
C28 C 0.93147(11) 0.51659(15) 0.97314(4)
H17 H 0.9577 0.4948 0.9635
O9 O 0.92900(6) 0.84671(8) 0.78623(2)
C33 C 0.94645(11) 0.72018(17) 0.85725(4)
H19 H 0.9028 0.6759 0.8647
C34 C 0.93798(11) 0.75768(16) 0.83316(4)
H20 H 0.8888 0.7386 0.8247
C38 C 0.99601(9) 0.86204(13) 0.79456(3)
N3 N 0.33333(11) 0.44980(8) 0.9167
C39 C 0.36943(13) 0.43304(9) 0.93783(3)
H23 H 0.3940 0.4695 0.9527
C40 C 0.37178(14) 0.36406(10) 0.93865(3)
C41 C 0.33333(18) 0.30916(13) 0.9167
H24 H 0.3333 0.2618 0.9167
C42 C 0.41402(14) 0.35154(10) 0.96311(3)
C43 C 0.38685(17) 0.27978(11) 0.97608(4)
H25 H 0.3426 0.2361 0.9686
C46 C 0.52060(14) 0.40696(10) 0.99752(3)
C47 C 0.48341(15) 0.41488(10) 0.97314(4)
H28 H 0.5052 0.4629 0.9635
O12 O 0.09281(8) 0.15295(6) 0.78203(2)
O13 O 0.15329(8) 0.08228(6) 0.78623(2)
C49 C 0.29724(13) 0.39694(9) 0.89550(3)
H29 H 0.2727 0.4088 0.8806
C50 C 0.29489(14) 0.32561(10) 0.89468(3)
C51 C 0.25265(14) 0.27085(10) 0.87022(3)
C52 C 0.27982(17) 0.22626(13) 0.85725(4)
H30 H 0.3241 0.2268 0.8647
C53 C 0.24232(16) 0.18029(12) 0.83316(4)
H31 H 0.2614 0.1501 0.8247
C54 C 0.17702(13) 0.17889(10) 0.82167(3)
C55 C 0.14607(14) 0.21969(10) 0.83581(3)
H32 H 0.1002 0.2168 0.8289
C56 C 0.18326(15) 0.26480(11) 0.86019(4)
H33 H 0.1615 0.2910 0.8698
C57 C 0.13796(13) 0.13396(9) 0.79456(3)
In5 In 0.896471(7) 0.896470(7) 0.7500
In7_2 In 1.000000(10) 0.103529(7) 0.7500
In12 In 0.333333(10) 0.563137(7) 0.9167
N1 N 0.55020(8) 0.88353(8) 0.9167
C1 C 0.56696(9) 0.93639(9) 0.93783(3)
H1 H 0.5305 0.9245 0.9527
O4 O 0.84705(6) 0.93985(6) 0.78203(2)
C11 C 0.60306(9) 0.90029(9) 0.89550(3)
H7 H 0.5912 0.8638 0.8806
C12 C 0.67439(10) 0.96927(10) 0.89468(3)
C13 C 0.72915(10) 0.98179(10) 0.87022(3)
C16 C 0.82111(10) 0.99812(9) 0.82167(3)
C17 C 0.78031(10) 0.92637(10) 0.83581(3)
H10 H 0.7832 0.8833 0.8289
C18 C 0.73520(11) 0.91845(10) 0.86019(4)
H11 H 0.7090 0.8704 0.8698
In10 In 0.436863(7) 0.770196(7) 0.9167
N2_2 N 0.66667(11) 0.11647(8) 0.5833
C20_2 C 0.63057(13) 0.06361(9) 0.56217(3)
H12_2 H 0.6060 0.0755 0.5473
O8_2 O 0.90719(8) 0.06015(6) 0.71797(2)
C30_2 C 0.70276(13) 0.09971(9) 0.60450(3)
H18_2 H 0.7273 0.1362 0.6194
C31_2 C 0.70511(14) 0.03073(10) 0.60532(3)
C32_2 C 0.74735(14) 0.01821(10) 0.62978(3)
C35_2 C 0.82298(13) 0.00188(9) 0.67833(3)
C36_2 C 0.85393(14) 0.07363(10) 0.66419(3)
H21_2 H 0.8998 0.1167 0.6711
C37_2 C 0.81674(15) 0.08155(10) 0.63981(4)
H22_2 H 0.8385 0.1296 0.6302
In11_2 In 0.666667(10) 0.229804(7) 0.5833
In1_2 In 0.229804(7) 0.563137(7) 0.4167
O1_2 O 0.3333 0.6667 0.4167
O2_2 O 0.18038(6) 0.60652(6) 0.44870(2)
O3_2 O 0.25105(6) 0.73767(6) 0.45290(2)
C2_2 C 0.00772(10) 0.63594(10) 0.56135(3)
C3_2 C 0.02417(13) 0.69084(13) 0.5833
H2_2 H 0.0715 0.7382 0.5833
C4_2 C 0.06248(10) 0.64846(10) 0.53689(3)
C5_2 C 0.10707(13) 0.72022(11) 0.52392(4)
H3_2 H 0.1065 0.7639 0.5314
C6_2 C 0.15304(12) 0.72869(11) 0.49983(4)
H4_2 H 0.1832 0.7779 0.4914
C7_2 C 0.15444(10) 0.66479(9) 0.48834(3)
C8_2 C 0.11364(10) 0.59304(10) 0.50248(3)
H5_2 H 0.1165 0.5500 0.4956
C9_2 C 0.06853(11) 0.58512(10) 0.52686(4)
H6_2 H 0.0423 0.5371 0.5365
C10_2 C 0.19937(9) 0.67066(9) 0.46123(3)
O5_2 O 0.07100(6) 0.91772(6) 0.71377(2)
C14_2 C 0.05355(11) 0.77374(13) 0.64275(4)
H8_2 H 0.0972 0.7732 0.6353
C15_2 C 0.06202(11) 0.81971(12) 0.66684(4)
H9_2 H 0.1112 0.8499 0.6753
C19_2 C 0.00399(9) 0.86604(9) 0.70544(3)
In2_2 In 0.333333(10) 0.770196(7) 0.4167
O6_2 O 0.42614(8) 0.81962(6) 0.44870(2)
O7_2 O 0.48662(8) 0.74895(6) 0.45290(2)
C21_2 C 0.62822(14) 0.99228(10) 0.56135(3)
C22_2 C 0.66667(18) 0.97583(13) 0.5833
H13_2 H 0.6667 0.9285 0.5833
C23_2 C 0.58598(14) 0.93752(10) 0.53689(3)
C24_2 C 0.61315(17) 0.89293(13) 0.52392(4)
H14_2 H 0.6574 0.8935 0.5314
C25_2 C 0.57565(16) 0.84696(12) 0.49983(4)
H15_2 H 0.5947 0.8168 0.4914
C26_2 C 0.51035(13) 0.84556(10) 0.48834(3)
C27_2 C 0.47940(14) 0.88636(10) 0.50248(3)
H16_2 H 0.4335 0.8835 0.4956
C28_2 C 0.51659(15) 0.93147(11) 0.52686(4)
H17_2 H 0.4948 0.9577 0.5365
C29_2 C 0.47129(13) 0.80063(9) 0.46123(3)
O9_2 O 0.84671(8) 0.92900(6) 0.71377(2)
C33_2 C 0.72018(17) 0.94645(11) 0.64275(4)
H19_2 H 0.6759 0.9028 0.6353
C34_2 C 0.75768(16) 0.93798(11) 0.66684(4)
H20_2 H 0.7386 0.8888 0.6753
C38_2 C 0.86204(13) 0.99601(9) 0.70544(3)
In3_2 In 0.436863(7) 0.666667(10) 0.4167
O10_2 O 0.39348(6) 0.57386(8) 0.44870(2)
O11_2 O 0.26233(6) 0.51338(8) 0.45290(2)
N3_2 N 0.44980(8) 0.33333(11) 0.5833
C39_2 C 0.43304(9) 0.36943(13) 0.56217(3)
H23_2 H 0.4695 0.3940 0.5473
C40_2 C 0.36406(10) 0.37178(14) 0.56135(3)
C41_2 C 0.30916(13) 0.33333(18) 0.5833
H24_2 H 0.2618 0.3333 0.5833
C42_2 C 0.35154(10) 0.41402(14) 0.53689(3)
C43_2 C 0.27978(11) 0.38685(17) 0.52392(4)
H25_2 H 0.2361 0.3426 0.5314
C44_2 C 0.27131(11) 0.42435(16) 0.49983(4)
H26_2 H 0.2221 0.4053 0.4914
C45_2 C 0.33521(9) 0.48965(13) 0.48834(3)
C46_2 C 0.40696(10) 0.52060(14) 0.50248(3)
H27_2 H 0.4500 0.5665 0.4956
C47_2 C 0.41488(10) 0.48341(15) 0.52686(4)
H28_2 H 0.4629 0.5052 0.5365
C48_2 C 0.32934(9) 0.52871(13) 0.46123(3)
O12_2 O 0.15295(6) 0.09281(8) 0.71797(2)
O13_2 O 0.08228(6) 0.15329(8) 0.71377(2)
C49_2 C 0.39694(9) 0.29724(13) 0.60450(3)
H29_2 H 0.4088 0.2727 0.6194
C50_2 C 0.32561(10) 0.29489(14) 0.60532(3)
C51_2 C 0.27085(10) 0.25265(14) 0.62978(3)
C52_2 C 0.22626(13) 0.27982(17) 0.64275(4)
H30_2 H 0.2268 0.3241 0.6353
C53_2 C 0.18029(12) 0.24232(16) 0.66684(4)
H31_2 H 0.1501 0.2614 0.6753
C54_2 C 0.17889(10) 0.17702(13) 0.67833(3)
C55_2 C 0.21969(10) 0.14607(14) 0.66419(3)
H32_2 H 0.2168 0.1002 0.6711
C56_2 C 0.26480(11) 0.18326(15) 0.63981(4)
H33_2 H 0.2910 0.1615 0.6302
C57_2 C 0.13396(9) 0.13796(13) 0.70544(3)
In12_2 In 0.563137(7) 0.333333(10) 0.5833
O14_2 O 0.27319(6) 0.51371(6) 0.38463(2)
O15_2 O 0.48629(6) 0.75947(8) 0.38463(2)
O16_2 O 0.24053(8) 0.72681(6) 0.38463(2)
O17_2 O 0.40434(6) 0.58438(6) 0.38043(2)
O18_2 O 0.41562(6) 0.81995(8) 0.38043(2)
O19_2 O 0.18005(8) 0.59566(6) 0.38043(2)
N4_2 N 0.11647(8) 0.44980(8) 0.4167
N5_2 N 0.33333(11) 0.88353(8) 0.4167
N6_2 N 0.55020(8) 0.66667(11) 0.4167
N1_2 N 0.88353(8) 0.55020(8) 0.5833
C1_2 C 0.93639(9) 0.56696(9) 0.56217(3)
H1_2 H 0.9245 0.5305 0.5473
O4_2 O 0.93985(6) 0.84705(6) 0.71797(2)
C11_2 C 0.90029(9) 0.60306(9) 0.60450(3)
H7_2 H 0.8638 0.5912 0.6194
C12_2 C 0.96927(10) 0.67439(10) 0.60532(3)
C13_2 C 0.98179(10) 0.72915(10) 0.62978(3)
C16_2 C 0.99812(9) 0.82111(10) 0.67833(3)
C17_2 C 0.92637(10) 0.78031(10) 0.66419(3)
H10_2 H 0.8833 0.7832 0.6711
C18_2 C 0.91845(10) 0.73520(11) 0.63981(4)
H11_2 H 0.8704 0.7090 0.6302
In10_2 In 0.770196(7) 0.436863(7) 0.5833
N2_3 N 0.78314(8) 0.00000(11) 0.2500
C22_3 C 0.64250(13) 0.00000(18) 0.2500
H13_3 H 0.5952 0.0000 0.2500
C30_3 C 0.76637(9) 0.03610(13) 0.22884(3)
H18_3 H 0.8028 0.0607 0.2140
C31_3 C 0.69739(10) 0.03845(14) 0.22802(3)
C32_3 C 0.68487(10) 0.08069(14) 0.20356(3)
C33_3 C 0.61311(11) 0.05352(17) 0.19059(4)
H19_3 H 0.5694 0.0093 0.1981
C34_3 C 0.60464(11) 0.09102(16) 0.16650(4)
H20_3 H 0.5554 0.0720 0.1581
C35_3 C 0.66854(9) 0.15632(13) 0.15501(3)
C36_3 C 0.74029(10) 0.18727(14) 0.16915(3)
H21_3 H 0.7833 0.2332 0.1623
C37_3 C 0.74821(10) 0.15008(15) 0.19353(4)
H22_3 H 0.7962 0.1719 0.2032
C38_3 C 0.66267(9) 0.19538(13) 0.12790(3)
In11_3 In 0.896471(7) 0.000000(10) 0.2500
N1_3 N 0.21687(8) 0.21686(8) 0.2500
C1_3 C 0.23363(9) 0.26972(9) 0.27116(3)
H1_3 H 0.1972 0.2578 0.2860
C2_3 C 0.30261(10) 0.34105(10) 0.27198(3)
C3_3 C 0.35751(13) 0.35750(13) 0.2500
H2_3 H 0.4049 0.4048 0.2500
C4_3 C 0.31513(10) 0.39581(10) 0.29644(3)
C5_3 C 0.38689(11) 0.44040(13) 0.30941(4)
H3_3 H 0.4306 0.4398 0.3019
C6_3 C 0.39536(11) 0.48637(12) 0.33350(4)
H4_3 H 0.4446 0.5165 0.3419
C7_3 C 0.33146(9) 0.48777(10) 0.34499(3)
C8_3 C 0.25971(10) 0.44697(10) 0.33085(3)
H5_3 H 0.2167 0.4498 0.3377
C9_3 C 0.25179(10) 0.40186(11) 0.30647(4)
H6_3 H 0.2038 0.3756 0.2968
C10_3 C 0.33733(9) 0.53270(9) 0.37210(3)
C11_3 C 0.26972(9) 0.23363(9) 0.22884(3)
H7_3 H 0.2578 0.1972 0.2140
C12_3 C 0.34105(10) 0.30261(10) 0.22802(3)
C13_3 C 0.39581(10) 0.31513(10) 0.20356(3)
C14_3 C 0.44040(13) 0.38689(11) 0.19059(4)
H8_3 H 0.4398 0.4306 0.1981
C15_3 C 0.48637(12) 0.39536(11) 0.16650(4)
H9_3 H 0.5165 0.4446 0.1581
C16_3 C 0.48777(10) 0.33146(9) 0.15501(3)
C17_3 C 0.44697(10) 0.25971(10) 0.16915(3)
H10_3 H 0.4498 0.2167 0.1623
C18_3 C 0.40186(11) 0.25179(10) 0.19353(4)
H11_3 H 0.3756 0.2038 0.2032
C19_3 C 0.53270(9) 0.33733(9) 0.12790(3)
N2_4 N 0.78314(8) 1.00000(11) 0.2500
C20_3 C 0.73028(9) 0.96390(13) 0.27116(3)
H12_3 H 0.7422 0.9393 0.2860
C21_3 C 0.65895(10) 0.96155(14) 0.27198(3)
C22_4 C 0.64250(13) 1.00000(18) 0.2500
H13_4 H 0.5952 1.0000 0.2500
C23_3 C 0.60419(10) 0.91931(14) 0.29644(3)
C24_3 C 0.55960(13) 0.94648(17) 0.30941(4)
H14_3 H 0.5602 0.9907 0.3019
C25_3 C 0.51363(12) 0.90898(16) 0.33350(4)
H15_3 H 0.4835 0.9280 0.3419
C26_3 C 0.51223(10) 0.84368(13) 0.34499(3)
C27_3 C 0.55303(10) 0.81273(14) 0.33085(3)
H16_3 H 0.5502 0.7668 0.3377
C28_3 C 0.59814(11) 0.84992(15) 0.30647(4)
H17_3 H 0.6244 0.8281 0.2968
C29_3 C 0.46730(9) 0.80462(13) 0.37210(3)
N3_3 N -0.00000(11) 0.78313(8) 0.2500
C39_3 C 0.03610(13) 0.76637(9) 0.27116(3)
H23_3 H 0.0607 0.8028 0.2860
C40_3 C 0.03845(14) 0.69739(10) 0.27198(3)
C41_3 C -0.00000(18) 0.64249(13) 0.2500
H24_3 H -0.0000 0.5951 0.2500
C42_3 C 0.08069(14) 0.68487(10) 0.29644(3)
C43_3 C 0.05352(17) 0.61311(11) 0.30941(4)
H25_3 H 0.0093 0.5694 0.3019
C44_3 C 0.09102(16) 0.60464(11) 0.33350(4)
H26_3 H 0.0720 0.5554 0.3419
C45_3 C 0.15632(13) 0.66854(9) 0.34499(3)
C46_3 C 0.18727(14) 0.74029(10) 0.33085(3)
H27_3 H 0.2332 0.7833 0.3377
C47_3 C 0.15008(15) 0.74821(10) 0.30647(4)
H28_3 H 0.1719 0.7962 0.2968
C48_3 C 0.19538(13) 0.66267(9) 0.37210(3)
In10_3 In 0.103530(7) 0.103529(7) 0.2500
In11_4 In 0.896471(7) 1.000000(10) 0.2500
In12_3 In -0.000000(10) 0.896470(7) 0.2500
N3_4 N 1.00000(11) 0.78313(8) 0.2500
C41_4 C 1.00000(18) 0.64249(13) 0.2500
H24_4 H 1.0000 0.5951 0.2500
C49_3 C 0.96390(13) 0.73028(9) 0.22884(3)
H29_3 H 0.9393 0.7422 0.2140
C50_3 C 0.96155(14) 0.65895(10) 0.22802(3)
C51_3 C 0.91931(14) 0.60419(10) 0.20356(3)
C52_3 C 0.94648(17) 0.55960(13) 0.19059(4)
H30_3 H 0.9907 0.5602 0.1981
C53_3 C 0.90898(16) 0.51363(12) 0.16650(4)
H31_3 H 0.9280 0.4835 0.1581
C54_3 C 0.84368(13) 0.51223(10) 0.15501(3)
C55_3 C 0.81273(14) 0.55303(10) 0.16915(3)
H32_3 H 0.7668 0.5502 0.1623
C56_3 C 0.84992(15) 0.59814(11) 0.19353(4)
H33_3 H 0.8281 0.6244 0.2032
C57_3 C 0.80462(13) 0.46730(9) 0.12790(3)
In12_4 In 1.000000(10) 0.896470(7) 0.2500
O1_3 O -0.0000 0.0000 0.7500
N5_3 N -0.00000(11) 0.21686(8) 0.7500
N6_3 N 0.21687(8) 0.00000(11) 0.7500
O1_4 O -0.0000 1.0000 0.7500
N6_4 N 0.21687(8) 1.00000(11) 0.7500
O1_5 O 1.0000 0.0000 0.7500
N5_4 N 1.00000(11) 0.21686(8) 0.7500
O1_6 O 1.0000 1.0000 0.7500
N4_3 N 0.78314(8) 0.78313(8) 0.7500
C1_4 C 0.43304(9) 0.06361(9) 0.06217(3)
H1_4 H 0.4695 0.0755 0.0473
O4_3 O 0.15295(6) 0.06015(6) 0.21797(2)
C11_4 C 0.39694(9) 0.09971(9) 0.10450(3)
H7_4 H 0.4088 0.1362 0.1194
C12_4 C 0.32561(10) 0.03073(10) 0.10532(3)
C13_4 C 0.27085(10) 0.01821(10) 0.12978(3)
C16_4 C 0.17889(10) 0.00188(9) 0.17833(3)
C17_4 C 0.21969(10) 0.07363(10) 0.16419(3)
H10_4 H 0.2168 0.1167 0.1711
C18_4 C 0.26480(11) 0.08155(10) 0.13981(4)
H11_4 H 0.2910 0.1296 0.1302
C2_4 C 0.36406(10) 0.99228(10) 0.06135(3)
C3_4 C 0.30916(13) 0.97583(13) 0.0833
H2_4 H 0.2618 0.9285 0.0833
C4_4 C 0.35154(10) 0.93752(10) 0.03689(3)
C5_4 C 0.27978(11) 0.89293(13) 0.02392(4)
H3_4 H 0.2361 0.8935 0.0314
C8_4 C 0.40696(10) 0.88636(10) 0.00248(3)
C9_4 C 0.41488(10) 0.93147(11) 0.02686(4)
H6_4 H 0.4629 0.9577 0.0365
O5_3 O 0.08228(6) 0.92900(6) 0.21377(2)
C14_4 C 0.22626(13) 0.94645(11) 0.14275(4)
H8_4 H 0.2268 0.9028 0.1353
C15_4 C 0.18029(12) 0.93798(11) 0.16684(4)
H9_4 H 0.1501 0.8888 0.1753
C19_4 C 0.13396(9) 0.99601(9) 0.20544(3)
C21_4 C 0.00772(10) 0.37178(14) 0.06135(3)
C22_5 C 0.02417(13) 0.33333(18) 0.0833
H13_5 H 0.0715 0.3333 0.0833
C23_4 C 0.06248(10) 0.41402(14) 0.03689(3)
C24_4 C 0.10707(13) 0.38685(17) 0.02392(4)
H14_4 H 0.1065 0.3426 0.0314
C27_4 C 0.11364(10) 0.52060(14) 0.00248(3)
C28_4 C 0.06853(11) 0.48341(15) 0.02686(4)
H17_4 H 0.0423 0.5052 0.0365
O9_3 O 0.07100(6) 0.15329(8) 0.21377(2)
C33_4 C 0.05355(11) 0.27982(17) 0.14275(4)
H19_4 H 0.0972 0.3241 0.1353
C34_4 C 0.06202(11) 0.24232(16) 0.16684(4)
H20_4 H 0.1112 0.2614 0.1753
C38_4 C 0.00399(9) 0.13796(13) 0.20544(3)
C39_4 C 0.63057(13) 0.56696(9) 0.06217(3)
H23_4 H 0.6060 0.5305 0.0473
C40_4 C 0.62822(14) 0.63594(10) 0.06135(3)
C41_5 C 0.66667(18) 0.69084(13) 0.0833
H24_5 H 0.6667 0.7382 0.0833
C42_4 C 0.58598(14) 0.64846(10) 0.03689(3)
C43_4 C 0.61315(17) 0.72022(11) 0.02392(4)
H25_4 H 0.6574 0.7639 0.0314
C46_4 C 0.47940(14) 0.59304(10) 0.00248(3)
C47_4 C 0.51659(15) 0.58512(10) 0.02686(4)
H28_4 H 0.4948 0.5371 0.0365
O12_3 O 0.90719(8) 0.84705(6) 0.21797(2)
O13_3 O 0.84671(8) 0.91772(6) 0.21377(2)
C49_4 C 0.70276(13) 0.60306(9) 0.10450(3)
H29_4 H 0.7273 0.5912 0.1194
C50_4 C 0.70511(14) 0.67439(10) 0.10532(3)
C51_4 C 0.74735(14) 0.72915(10) 0.12978(3)
C52_4 C 0.72018(17) 0.77374(13) 0.14275(4)
H30_4 H 0.6759 0.7732 0.1353
C53_4 C 0.75768(16) 0.81971(12) 0.16684(4)
H31_4 H 0.7386 0.8499 0.1753
C54_4 C 0.82298(13) 0.82111(10) 0.17833(3)
C55_4 C 0.85393(14) 0.78031(10) 0.16419(3)
H32_4 H 0.8998 0.7832 0.1711
C56_4 C 0.81674(15) 0.73520(11) 0.13981(4)
H33_4 H 0.8385 0.7090 0.1302
C57_4 C 0.86204(13) 0.86604(9) 0.20544(3)
O1_7 O 0.3333 0.6667 0.9167
O2_3 O 0.39348(6) 0.81962(6) 0.94870(2)
O3_3 O 0.26233(6) 0.74895(6) 0.95290(2)
C6_4 C 0.27131(11) 0.84696(12) 0.99983(4)
H4_4 H 0.2221 0.8168 0.9914
C7_4 C 0.33521(9) 0.84556(10) 0.98834(3)
H5_4 H 0.4500 0.8835 0.9956
C10_4 C 0.32934(9) 0.80063(9) 0.96123(3)
O6_3 O 0.18038(6) 0.57386(8) 0.94870(2)
O7_3 O 0.25105(6) 0.51338(8) 0.95290(2)
C25_4 C 0.15304(12) 0.42435(16) 0.99983(4)
H15_4 H 0.1832 0.4053 0.9914
C26_4 C 0.15444(10) 0.48965(13) 0.98834(3)
H16_4 H 0.1165 0.5665 0.9956
C29_4 C 0.19937(9) 0.52871(13) 0.96123(3)
O10_3 O 0.42614(8) 0.60652(6) 0.94870(2)
O11_3 O 0.48662(8) 0.73767(6) 0.95290(2)
C44_4 C 0.57565(16) 0.72869(11) 0.99983(4)
H26_4 H 0.5947 0.7779 0.9914
C45_4 C 0.51035(13) 0.66479(9) 0.98834(3)
H27_4 H 0.4335 0.5500 0.9956
C48_4 C 0.47129(13) 0.67066(9) 0.96123(3)
O14_3 O 0.48629(6) 0.72681(6) 0.88463(2)
O15_3 O 0.24053(8) 0.51371(6) 0.88463(2)
O16_3 O 0.27319(6) 0.75947(8) 0.88463(2)
O17_3 O 0.41562(6) 0.59566(6) 0.88043(2)
O18_3 O 0.18005(8) 0.58438(6) 0.88043(2)
O19_3 O 0.40434(6) 0.81995(8) 0.88043(2)
C20_4 C 0.93639(9) 0.36943(13) 0.06217(3)
H12_4 H 0.9245 0.3940 0.0473
O8_3 O 0.93985(6) 0.09281(8) 0.21797(2)
C30_4 C 0.90029(9) 0.29724(13) 0.10450(3)
H18_4 H 0.8638 0.2727 0.1194
C31_4 C 0.96927(10) 0.29489(14) 0.10532(3)
C32_4 C 0.98179(10) 0.25265(14) 0.12978(3)
C35_4 C 0.99812(9) 0.17702(13) 0.17833(3)
C36_4 C 0.92637(10) 0.14607(14) 0.16419(3)
H21_4 H 0.8833 0.1002 0.1711
C37_4 C 0.91845(10) 0.18326(15) 0.13981(4)
H22_4 H 0.8704 0.1615 0.1302
C1_5 C 0.06361(9) 0.43304(9) 0.43783(3)
H1_5 H 0.0755 0.4695 0.4527
O4_4 O 0.06015(6) 0.15295(6) 0.28203(2)
C11_5 C 0.09971(9) 0.39694(9) 0.39550(3)
H7_5 H 0.1362 0.4088 0.3806
C12_5 C 0.03073(10) 0.32561(10) 0.39468(3)
C13_5 C 0.01821(10) 0.27085(10) 0.37022(3)
C16_5 C 0.00188(9) 0.17889(10) 0.32167(3)
C17_5 C 0.07363(10) 0.21969(10) 0.33581(3)
H10_5 H 0.1167 0.2168 0.3289
C18_5 C 0.08155(10) 0.26480(11) 0.36019(4)
H11_5 H 0.1296 0.2910 0.3698
O1_8 O 0.6667 0.3333 0.5833
O2_4 O 0.81962(6) 0.39348(6) 0.55130(2)
O3_4 O 0.74895(6) 0.26233(6) 0.54710(2)
C2_5 C 0.99228(10) 0.36406(10) 0.43865(3)
C3_5 C 0.97583(13) 0.30916(13) 0.4167
H2_5 H 0.9285 0.2618 0.4167
C4_5 C 0.93752(10) 0.35154(10) 0.46311(3)
C5_5 C 0.89293(13) 0.27978(11) 0.47608(4)
H3_5 H 0.8935 0.2361 0.4686
C6_5 C 0.84696(12) 0.27131(11) 0.50017(4)
H4_5 H 0.8168 0.2221 0.5086
C7_5 C 0.84556(10) 0.33521(9) 0.51166(3)
C8_5 C 0.88636(10) 0.40696(10) 0.49752(3)
H5_5 H 0.8835 0.4500 0.5044
C9_5 C 0.93147(11) 0.41488(10) 0.47314(4)
H6_5 H 0.9577 0.4629 0.4635
C10_5 C 0.80063(9) 0.32934(9) 0.53877(3)
O5_4 O 0.92900(6) 0.08228(6) 0.28623(2)
C14_5 C 0.94645(11) 0.22626(13) 0.35725(4)
H8_5 H 0.9028 0.2268 0.3647
C15_5 C 0.93798(11) 0.18029(12) 0.33316(4)
H9_5 H 0.8888 0.1501 0.3247
C19_5 C 0.99601(9) 0.13396(9) 0.29456(3)
O6_4 O 0.57386(8) 0.18038(6) 0.55130(2)
O7_4 O 0.51338(8) 0.25105(6) 0.54710(2)
C21_5 C 0.37178(14) 0.00772(10) 0.43865(3)
C22_6 C 0.33333(18) 0.02417(13) 0.4167
H13_6 H 0.3333 0.0715 0.4167
C23_5 C 0.41402(14) 0.06248(10) 0.46311(3)
C24_5 C 0.38685(17) 0.10707(13) 0.47608(4)
H14_5 H 0.3426 0.1065 0.4686
C25_5 C 0.42435(16) 0.15304(12) 0.50017(4)
H15_5 H 0.4053 0.1832 0.5086
C26_5 C 0.48965(13) 0.15444(10) 0.51166(3)
C27_5 C 0.52060(14) 0.11364(10) 0.49752(3)
H16_5 H 0.5665 0.1165 0.5044
C28_5 C 0.48341(15) 0.06853(11) 0.47314(4)
H17_5 H 0.5052 0.0423 0.4635
C29_5 C 0.52871(13) 0.19937(9) 0.53877(3)
O9_4 O 0.15329(8) 0.07100(6) 0.28623(2)
C33_5 C 0.27982(17) 0.05355(11) 0.35725(4)
H19_5 H 0.3241 0.0972 0.3647
C34_5 C 0.24232(16) 0.06202(11) 0.33316(4)
H20_5 H 0.2614 0.1112 0.3247
C38_5 C 0.13796(13) 0.00399(9) 0.29456(3)
O10_4 O 0.60652(6) 0.42614(8) 0.55130(2)
O11_4 O 0.73767(6) 0.48662(8) 0.54710(2)
C39_5 C 0.56696(9) 0.63057(13) 0.43783(3)
H23_5 H 0.5305 0.6060 0.4527
C40_5 C 0.63594(10) 0.62822(14) 0.43865(3)
C41_6 C 0.69084(13) 0.66667(18) 0.4167
H24_6 H 0.7382 0.6667 0.4167
C42_5 C 0.64846(10) 0.58598(14) 0.46311(3)
C43_5 C 0.72022(11) 0.61315(17) 0.47608(4)
H25_5 H 0.7639 0.6574 0.4686
C44_5 C 0.72869(11) 0.57565(16) 0.50017(4)
H26_5 H 0.7779 0.5947 0.5086
C45_5 C 0.66479(9) 0.51035(13) 0.51166(3)
C46_5 C 0.59304(10) 0.47940(14) 0.49752(3)
H27_5 H 0.5500 0.4335 0.5044
C47_5 C 0.58512(10) 0.51659(15) 0.47314(4)
H28_5 H 0.5371 0.4948 0.4635
C48_5 C 0.67066(9) 0.47129(13) 0.53877(3)
O12_4 O 0.84705(6) 0.90719(8) 0.28203(2)
O13_4 O 0.91772(6) 0.84671(8) 0.28623(2)
C49_5 C 0.60306(9) 0.70276(13) 0.39550(3)
H29_5 H 0.5912 0.7273 0.3806
C50_5 C 0.67439(10) 0.70511(14) 0.39468(3)
C51_5 C 0.72915(10) 0.74735(14) 0.37022(3)
C52_5 C 0.77374(13) 0.72018(17) 0.35725(4)
H30_5 H 0.7732 0.6759 0.3647
C53_5 C 0.81971(12) 0.75768(16) 0.33316(4)
H31_5 H 0.8499 0.7386 0.3247
C54_5 C 0.82111(10) 0.82298(13) 0.32167(3)
C55_5 C 0.78031(10) 0.85393(14) 0.33581(3)
H32_5 H 0.7832 0.8998 0.3289
C56_5 C 0.73520(11) 0.81674(15) 0.36019(4)
H33_5 H 0.7090 0.8385 0.3698
C57_5 C 0.86604(9) 0.86204(13) 0.29456(3)
O14_4 O 0.72681(6) 0.48629(6) 0.61537(2)
O15_4 O 0.51371(6) 0.24053(8) 0.61537(2)
O16_4 O 0.75947(8) 0.27319(6) 0.61537(2)
O17_4 O 0.59566(6) 0.41562(6) 0.61957(2)
O18_4 O 0.58438(6) 0.18005(8) 0.61957(2)
O19_4 O 0.81995(8) 0.40434(6) 0.61957(2)
C20_5 C 0.36943(13) 0.93639(9) 0.43783(3)
H12_5 H 0.3940 0.9245 0.4527
O8_4 O 0.09281(8) 0.93985(6) 0.28203(2)
C30_5 C 0.29724(13) 0.90029(9) 0.39550(3)
H18_5 H 0.2727 0.8638 0.3806
C31_5 C 0.29489(14) 0.96927(10) 0.39468(3)
C32_5 C 0.25265(14) 0.98179(10) 0.37022(3)
C35_5 C 0.17702(13) 0.99812(9) 0.32167(3)
C36_5 C 0.14607(14) 0.92637(10) 0.33581(3)
H21_5 H 0.1002 0.8833 0.3289
C37_5 C 0.18326(15) 0.91845(10) 0.36019(4)
H22_5 H 0.1615 0.8704 0.3698
C41_7 C 0.00000(18) 0.35751(13) 0.7500
H24_7 H 0.0000 0.4049 0.7500
C49_6 C 0.03610(13) 0.26972(9) 0.77116(3)
H29_6 H 0.0607 0.2578 0.7860
C50_6 C 0.03845(14) 0.34105(10) 0.77198(3)
C51_6 C 0.08069(14) 0.39581(10) 0.79644(3)
C52_6 C 0.05352(17) 0.44040(13) 0.80941(4)
H30_6 H 0.0093 0.4398 0.8019
C53_6 C 0.09102(16) 0.48637(12) 0.83350(4)
H31_6 H 0.0720 0.5165 0.8419
C54_6 C 0.15632(13) 0.48777(10) 0.84499(3)
C55_6 C 0.18727(14) 0.44697(10) 0.83085(3)
H32_6 H 0.2332 0.4498 0.8377
C56_6 C 0.15008(15) 0.40186(11) 0.80647(4)
H33_6 H 0.1719 0.3756 0.7968
C57_6 C 0.19538(13) 0.53270(9) 0.87210(3)
C1_6 C 0.76637(9) 0.73028(9) 0.72884(3)
H1_6 H 0.8028 0.7422 0.7140
C2_6 C 0.69739(10) 0.65895(10) 0.72802(3)
C3_6 C 0.64249(13) 0.64250(13) 0.7500
H2_6 H 0.5951 0.5952 0.7500
C4_6 C 0.68487(10) 0.60419(10) 0.70356(3)
C5_6 C 0.61311(11) 0.55960(13) 0.69059(4)
H3_6 H 0.5694 0.5602 0.6981
C6_6 C 0.60464(11) 0.51363(12) 0.66650(4)
H4_6 H 0.5554 0.4835 0.6581
C7_6 C 0.66854(9) 0.51223(10) 0.65501(3)
C8_6 C 0.74029(10) 0.55303(10) 0.66915(3)
H5_6 H 0.7833 0.5502 0.6623
C9_6 C 0.74821(10) 0.59814(11) 0.69353(4)
H6_6 H 0.7962 0.6244 0.7032
C10_6 C 0.66267(9) 0.46730(9) 0.62790(3)
C11_6 C 0.73028(9) 0.76637(9) 0.77116(3)
H7_6 H 0.7422 0.8028 0.7860
C12_6 C 0.65895(10) 0.69739(10) 0.77198(3)
C13_6 C 0.60419(10) 0.68487(10) 0.79644(3)
C14_6 C 0.55960(13) 0.61311(11) 0.80941(4)
H8_6 H 0.5602 0.5694 0.8019
C15_6 C 0.51363(12) 0.60464(11) 0.83350(4)
H9_6 H 0.4835 0.5554 0.8419
C16_6 C 0.51223(10) 0.66854(9) 0.84499(3)
C17_6 C 0.55303(10) 0.74029(10) 0.83085(3)
H10_6 H 0.5502 0.7833 0.8377
C18_6 C 0.59814(11) 0.74821(10) 0.80647(4)
H11_6 H 0.6244 0.7962 0.7968
C19_6 C 0.46730(9) 0.66267(9) 0.87210(3)
C20_6 C 0.26972(9) 0.03610(13) 0.72884(3)
H12_6 H 0.2578 0.0607 0.7140
C21_6 C 0.34105(10) 0.03845(14) 0.72802(3)
C22_7 C 0.35750(13) -0.00000(18) 0.7500
H13_7 H 0.4048 -0.0000 0.7500
C23_6 C 0.39581(10) 0.08069(14) 0.70356(3)
C24_6 C 0.44040(13) 0.05352(17) 0.69059(4)
H14_6 H 0.4398 0.0093 0.6981
C25_6 C 0.48637(12) 0.09102(16) 0.66650(4)
H15_6 H 0.5165 0.0720 0.6581
C26_6 C 0.48777(10) 0.15632(13) 0.65501(3)
C27_6 C 0.44697(10) 0.18727(14) 0.66915(3)
H16_6 H 0.4498 0.2332 0.6623
C28_6 C 0.40186(11) 0.15008(15) 0.69353(4)
H17_6 H 0.3756 0.1719 0.7032
C29_6 C 0.53270(9) 0.19538(13) 0.62790(3)
C39_6 C 0.96390(13) 0.23363(9) 0.72884(3)
H23_6 H 0.9393 0.1972 0.7140
C40_6 C 0.96155(14) 0.30261(10) 0.72802(3)
C41_8 C 1.00000(18) 0.35751(13) 0.7500
H24_8 H 1.0000 0.4049 0.7500
C42_6 C 0.91931(14) 0.31513(10) 0.70356(3)
C43_6 C 0.94648(17) 0.38689(11) 0.69059(4)
H25_6 H 0.9907 0.4306 0.6981
C44_6 C 0.90898(16) 0.39536(11) 0.66650(4)
H26_6 H 0.9280 0.4446 0.6581
C45_6 C 0.84368(13) 0.33146(9) 0.65501(3)
C46_6 C 0.81273(14) 0.25971(10) 0.66915(3)
H27_6 H 0.7668 0.2167 0.6623
C47_6 C 0.84992(15) 0.25179(10) 0.69353(4)
H28_6 H 0.8281 0.2038 0.7032
C48_6 C 0.80462(13) 0.33733(9) 0.62790(3)
C22_8 C 0.35750(13) 1.00000(18) 0.7500
H13_8 H 0.4048 1.0000 0.7500
C30_6 C 0.23363(9) 0.96390(13) 0.77116(3)
H18_6 H 0.1972 0.9393 0.7860
C31_6 C 0.30261(10) 0.96155(14) 0.77198(3)
C32_6 C 0.31513(10) 0.91931(14) 0.79644(3)
C33_6 C 0.38689(11) 0.94648(17) 0.80941(4)
H19_6 H 0.4306 0.9907 0.8019
C34_6 C 0.39536(11) 0.90898(16) 0.83350(4)
H20_6 H 0.4446 0.9280 0.8419
C35_6 C 0.33146(9) 0.84368(13) 0.84499(3)
C36_6 C 0.25971(10) 0.81273(14) 0.83085(3)
H21_6 H 0.2167 0.7668 0.8377
C37_6 C 0.25179(10) 0.84992(15) 0.80647(4)
H22_6 H 0.2038 0.8281 0.7968
C38_6 C 0.33733(9) 0.80462(13) 0.87210(3)
O1_9 O 0.0000 -0.0000 0.2500
O1_10 O 0.0000 1.0000 0.2500
O1_11 O 1.0000 -0.0000 0.2500
O1_12 O 1.0000 1.0000 0.2500
loop_
_geom_bond_atom_site_label_1
_geom_bond_atom_site_label_2
_geom_bond_site_symmetry_1
_geom_bond_site_symmetry_2
N2 C20 1_555 1_555
C20 H12 1_555 1_555
C30 N2 1_555 1_555
H18 C30 1_555 1_555
C32 C31 1_555 1_555
C36 C35 1_555 1_555
H21 C36 1_555 1_555
C37 C32 1_555 1_555
H22 C37 1_555 1_555
In9_2 O8 1_555 1_555
In11 N2 1_555 1_555
C30 C31 1_555 1_555
C36 C37 1_555 1_555
In1 O1 1_555 1_555
O1 In2 1_555 1_555
O2 In1 1_555 1_555
O3 C10 1_555 1_555
H4 C6 1_555 1_555
C7 C6 1_555 1_555
C10 O2 1_555 1_555
In2 O3 1_555 1_555
O6 In2 1_555 1_555
O7 C29 1_555 1_555
H15 C25 1_555 1_555
C26 C25 1_555 1_555
C29 O6 1_555 1_555
In3 O1 1_555 1_555
O10 In3 1_555 1_555
O11 In1 1_555 1_555
H26 C44 1_555 1_555
C45 C44 1_555 1_555
C48 O10 1_555 1_555
O14 In1 1_555 1_555
O15 In3 1_555 1_555
O16 In2 1_555 1_555
O17 In3 1_555 1_555
O18 In2 1_555 1_555
O19 In1 1_555 1_555
N4 In1 1_555 1_555
N5 In2 1_555 1_555
N6 In3 1_555 1_555
C7 C10 1_555 1_555
O7 In3 1_555 1_555
C26 C29 1_555 1_555
O11 C48 1_555 1_555
C45 C48 1_555 1_555
C3 C2 1_555 1_555
H2 C3 1_555 1_555
C4 C2 1_555 1_555
C5 C4 1_555 1_555
H3 C5 1_555 1_555
C9 C4 1_555 1_555
H6 C9 1_555 1_555
O5 C19 1_555 1_555
H8 C14 1_555 1_555
C15 C14 1_555 1_555
H9 C15 1_555 1_555
C22 C21 1_555 1_555
H13 C22 1_555 1_555
C23 C21 1_555 1_555
C24 C23 1_555 1_555
H14 C24 1_555 1_555
C28 C23 1_555 1_555
H17 C28 1_555 1_555
O9 C38 1_555 1_555
H19 C33 1_555 1_555
C34 C33 1_555 1_555
H20 C34 1_555 1_555
N3 C39 1_555 1_555
C39 H23 1_555 1_555
C40 C39 1_555 1_555
C41 C40 1_555 1_555
H24 C41 1_555 1_555
C42 C40 1_555 1_555
C43 C42 1_555 1_555
H25 C43 1_555 1_555
C47 C42 1_555 1_555
H28 C47 1_555 1_555
O12 C57 1_555 1_555
O13 C57 1_555 1_555
C49 N3 1_555 1_555
H29 C49 1_555 1_555
C50 C41 1_555 1_555
C51 C50 1_555 1_555
C52 C51 1_555 1_555
H30 C52 1_555 1_555
C53 C52 1_555 1_555
H31 C53 1_555 1_555
C54 C53 1_555 1_555
C55 C54 1_555 1_555
H32 C55 1_555 1_555
C56 C51 1_555 1_555
H33 C56 1_555 1_555
C57 C54 1_555 1_555
In5 O9 1_555 1_555
In7 O12 1_555 1_555
In7_2 O5 1_555 1_555
In9 O13 1_555 1_555
In12 N3 1_555 1_555
C8 C9 1_555 1_555
C27 C28 1_555 1_555
C46 C47 1_555 1_555
C49 C50 1_555 1_555
C55 C56 1_555 1_555
N1 C1 1_555 1_555
C1 H1 1_555 1_555
C11 N1 1_555 1_555
H7 C11 1_555 1_555
C13 C12 1_555 1_555
C17 C16 1_555 1_555
H10 C17 1_555 1_555
C18 C13 1_555 1_555
H11 C18 1_555 1_555
In5 O4 1_555 1_555
In10 N1 1_555 1_555
C11 C12 1_555 1_555
C17 C18 1_555 1_555
N2_2 C20_2 1_555 1_555
C20_2 H12_2 1_555 1_555
C30_2 N2_2 1_555 1_555
H18_2 C30_2 1_555 1_555
C32_2 C31_2 1_555 1_555
C36_2 C35_2 1_555 1_555
H21_2 C36_2 1_555 1_555
C37_2 C32_2 1_555 1_555
H22_2 C37_2 1_555 1_555
In7_2 O8_2 1_555 1_555
In11_2 N2_2 1_555 1_555
C30_2 C31_2 1_555 1_555
C36_2 C37_2 1_555 1_555
In1_2 O1_2 1_555 1_555
O1_2 In2_2 1_555 1_555
O2_2 In1_2 1_555 1_555
O3_2 C10_2 1_555 1_555
C3_2 C2_2 1_555 1_555
H2_2 C3_2 1_555 1_555
C4_2 C2_2 1_555 1_555
C5_2 C4_2 1_555 1_555
H3_2 C5_2 1_555 1_555
C6_2 C5_2 1_555 1_555
H4_2 C6_2 1_555 1_555
C7_2 C6_2 1_555 1_555
C8_2 C7_2 1_555 1_555
H5_2 C8_2 1_555 1_555
C9_2 C4_2 1_555 1_555
H6_2 C9_2 1_555 1_555
C10_2 O2_2 1_555 1_555
O5_2 C19_2 1_555 1_555
H8_2 C14_2 1_555 1_555
C15_2 C14_2 1_555 1_555
H9_2 C15_2 1_555 1_555
In2_2 O3_2 1_555 1_555
O6_2 In2_2 1_555 1_555
O7_2 C29_2 1_555 1_555
C22_2 C21_2 1_555 1_555
H13_2 C22_2 1_555 1_555
C23_2 C21_2 1_555 1_555
C24_2 C23_2 1_555 1_555
H14_2 C24_2 1_555 1_555
C25_2 C24_2 1_555 1_555
H15_2 C25_2 1_555 1_555
C26_2 C25_2 1_555 1_555
C27_2 C26_2 1_555 1_555
H16_2 C27_2 1_555 1_555
C28_2 C23_2 1_555 1_555
H17_2 C28_2 1_555 1_555
C29_2 O6_2 1_555 1_555
O9_2 C38_2 1_555 1_555
H19_2 C33_2 1_555 1_555
C34_2 C33_2 1_555 1_555
H20_2 C34_2 1_555 1_555
In3_2 O1_2 1_555 1_555
O10_2 In3_2 1_555 1_555
O11_2 In1_2 1_555 1_555
N3_2 C39_2 1_555 1_555
C39_2 H23_2 1_555 1_555
C40_2 C39_2 1_555 1_555
C41_2 C40_2 1_555 1_555
H24_2 C41_2 1_555 1_555
C42_2 C40_2 1_555 1_555
C43_2 C42_2 1_555 1_555
H25_2 C43_2 1_555 1_555
C44_2 C43_2 1_555 1_555
H26_2 C44_2 1_555 1_555
C45_2 C44_2 1_555 1_555
C46_2 C45_2 1_555 1_555
H27_2 C46_2 1_555 1_555
C47_2 C42_2 1_555 1_555
H28_2 C47_2 1_555 1_555
C48_2 O10_2 1_555 1_555
O12_2 C57_2 1_555 1_555
O13_2 C57_2 1_555 1_555
C49_2 N3_2 1_555 1_555
H29_2 C49_2 1_555 1_555
C50_2 C41_2 1_555 1_555
C51_2 C50_2 1_555 1_555
C52_2 C51_2 1_555 1_555
H30_2 C52_2 1_555 1_555
C53_2 C52_2 1_555 1_555
H31_2 C53_2 1_555 1_555
C54_2 C53_2 1_555 1_555
C55_2 C54_2 1_555 1_555
H32_2 C55_2 1_555 1_555
C56_2 C51_2 1_555 1_555
H33_2 C56_2 1_555 1_555
C57_2 C54_2 1_555 1_555
In5 O9_2 1_555 1_555
In9 O12_2 1_555 1_555
In9_2 O5_2 1_555 1_555
In7 O13_2 1_555 1_555
In12_2 N3_2 1_555 1_555
O14_2 In1_2 1_555 1_555
O15_2 In3_2 1_555 1_555
O16_2 In2_2 1_555 1_555
O17_2 In3_2 1_555 1_555
O18_2 In2_2 1_555 1_555
O19_2 In1_2 1_555 1_555
N4_2 In1_2 1_555 1_555
N5_2 In2_2 1_555 1_555
N6_2 In3_2 1_555 1_555
C7_2 C10_2 1_555 1_555
C8_2 C9_2 1_555 1_555
O7_2 In3_2 1_555 1_555
C26_2 C29_2 1_555 1_555
C27_2 C28_2 1_555 1_555
O11_2 C48_2 1_555 1_555
C45_2 C48_2 1_555 1_555
C46_2 C47_2 1_555 1_555
C49_2 C50_2 1_555 1_555
C55_2 C56_2 1_555 1_555
N1_2 C1_2 1_555 1_555
C1_2 H1_2 1_555 1_555
C11_2 N1_2 1_555 1_555
H7_2 C11_2 1_555 1_555
C13_2 C12_2 1_555 1_555
C17_2 C16_2 1_555 1_555
H10_2 C17_2 1_555 1_555
C18_2 C13_2 1_555 1_555
H11_2 C18_2 1_555 1_555
In5 O4_2 1_555 1_555
In10_2 N1_2 1_555 1_555
C11_2 C12_2 1_555 1_555
C17_2 C18_2 1_555 1_555
H13_3 C22_3 1_555 1_555
O16 C38_3 1_555 1_555
O19 C38_3 1_555 1_555
C30_3 N2_3 1_555 1_555
H18_3 C30_3 1_555 1_555
C31_3 C22_3 1_555 1_555
C32_3 C31_3 1_555 1_555
C33_3 C32_3 1_555 1_555
H19_3 C33_3 1_555 1_555
C34_3 C33_3 1_555 1_555
H20_3 C34_3 1_555 1_555
C35_3 C34_3 1_555 1_555
C36_3 C35_3 1_555 1_555
H21_3 C36_3 1_555 1_555
C37_3 C32_3 1_555 1_555
H22_3 C37_3 1_555 1_555
C38_3 C35_3 1_555 1_555
In11_3 N2_3 1_555 1_555
C30_3 C31_3 1_555 1_555
C36_3 C37_3 1_555 1_555
O17_2 C10_3 1_555 1_555
N1_3 C1_3 1_555 1_555
C1_3 H1_3 1_555 1_555
C2_3 C1_3 1_555 1_555
C3_3 C2_3 1_555 1_555
H2_3 C3_3 1_555 1_555
C4_3 C2_3 1_555 1_555
C5_3 C4_3 1_555 1_555
H3_3 C5_3 1_555 1_555
C6_3 C5_3 1_555 1_555
H4_3 C6_3 1_555 1_555
C7_3 C6_3 1_555 1_555
C8_3 C7_3 1_555 1_555
H5_3 C8_3 1_555 1_555
C9_3 C4_3 1_555 1_555
H6_3 C9_3 1_555 1_555
C10_3 O14_2 1_555 1_555
O14 C19_3 1_555 1_555
O17 C19_3 1_555 1_555
C11_3 N1_3 1_555 1_555
H7_3 C11_3 1_555 1_555
C12_3 C3_3 1_555 1_555
C13_3 C12_3 1_555 1_555
C14_3 C13_3 1_555 1_555
H8_3 C14_3 1_555 1_555
C15_3 C14_3 1_555 1_555
H9_3 C15_3 1_555 1_555
C16_3 C15_3 1_555 1_555
C17_3 C16_3 1_555 1_555
H10_3 C17_3 1_555 1_555
C18_3 C13_3 1_555 1_555
H11_3 C18_3 1_555 1_555
C19_3 C16_3 1_555 1_555
O18_2 C29_3 1_555 1_555
N2_4 C20_3 1_555 1_555
C20_3 H12_3 1_555 1_555
C21_3 C20_3 1_555 1_555
C22_4 C21_3 1_555 1_555
H13_4 C22_4 1_555 1_555
C23_3 C21_3 1_555 1_555
C24_3 C23_3 1_555 1_555
H14_3 C24_3 1_555 1_555
C25_3 C24_3 1_555 1_555
H15_3 C25_3 1_555 1_555
C26_3 C25_3 1_555 1_555
C27_3 C26_3 1_555 1_555
H16_3 C27_3 1_555 1_555
C28_3 C23_3 1_555 1_555
H17_3 C28_3 1_555 1_555
C29_3 O15_2 1_555 1_555
N3_3 C39_3 1_555 1_555
C39_3 H23_3 1_555 1_555
C40_3 C39_3 1_555 1_555
C41_3 C40_3 1_555 1_555
H24_3 C41_3 1_555 1_555
C42_3 C40_3 1_555 1_555
C43_3 C42_3 1_555 1_555
H25_3 C43_3 1_555 1_555
C44_3 C43_3 1_555 1_555
H26_3 C44_3 1_555 1_555
C45_3 C44_3 1_555 1_555
C46_3 C45_3 1_555 1_555
H27_3 C46_3 1_555 1_555
C47_3 C42_3 1_555 1_555
H28_3 C47_3 1_555 1_555
C48_3 O16_2 1_555 1_555
In10_3 N1_3 1_555 1_555
In11_4 N2_4 1_555 1_555
In12_3 N3_3 1_555 1_555
C7_3 C10_3 1_555 1_555
C8_3 C9_3 1_555 1_555
C11_3 C12_3 1_555 1_555
C17_3 C18_3 1_555 1_555
C26_3 C29_3 1_555 1_555
C27_3 C28_3 1_555 1_555
O19_2 C48_3 1_555 1_555
C45_3 C48_3 1_555 1_555
C46_3 C47_3 1_555 1_555
H24_4 C41_4 1_555 1_555
O15 C57_3 1_555 1_555
O18 C57_3 1_555 1_555
C49_3 N3_4 1_555 1_555
H29_3 C49_3 1_555 1_555
C50_3 C41_4 1_555 1_555
C51_3 C50_3 1_555 1_555
C52_3 C51_3 1_555 1_555
H30_3 C52_3 1_555 1_555
C53_3 C52_3 1_555 1_555
H31_3 C53_3 1_555 1_555
C54_3 C53_3 1_555 1_555
C55_3 C54_3 1_555 1_555
H32_3 C55_3 1_555 1_555
C56_3 C51_3 1_555 1_555
H33_3 C56_3 1_555 1_555
C57_3 C54_3 1_555 1_555
In12_4 N3_4 1_555 1_555
C49_3 C50_3 1_555 1_555
C55_3 C56_3 1_555 1_555
O1_3 In7 1_555 1_555
In9 O1_3 1_555 1_555
N5_3 In7 1_555 1_555
N6_3 In9 1_555 1_555
In9_2 O1_4 1_555 1_555
N6_4 In9_2 1_555 1_555
O1_5 In7_2 1_555 1_555
N5_4 In7_2 1_555 1_555
In5 O1_6 1_555 1_555
N4_3 In5 1_555 1_555
N4 C1_4 1_555 1_555
C1_4 H1_4 1_555 1_555
C11_4 N4 1_555 1_555
H7_4 C11_4 1_555 1_555
C13_4 C12_4 1_555 1_555
C17_4 C16_4 1_555 1_555
H10_4 C17_4 1_555 1_555
C18_4 C13_4 1_555 1_555
H11_4 C18_4 1_555 1_555
In10_3 O4_3 1_555 1_555
C11_4 C12_4 1_555 1_555
C17_4 C18_4 1_555 1_555
C3_4 C2_4 1_555 1_555
H2_4 C3_4 1_555 1_555
C4_4 C2_4 1_555 1_555
C5_4 C4_4 1_555 1_555
H3_4 C5_4 1_555 1_555
C9_4 C4_4 1_555 1_555
H6_4 C9_4 1_555 1_555
O5_3 C19_4 1_555 1_555
H8_4 C14_4 1_555 1_555
C15_4 C14_4 1_555 1_555
H9_4 C15_4 1_555 1_555
C22_5 C21_4 1_555 1_555
H13_5 C22_5 1_555 1_555
C23_4 C21_4 1_555 1_555
C24_4 C23_4 1_555 1_555
H14_4 C24_4 1_555 1_555
C28_4 C23_4 1_555 1_555
H17_4 C28_4 1_555 1_555
O9_3 C38_4 1_555 1_555
H19_4 C33_4 1_555 1_555
C34_4 C33_4 1_555 1_555
H20_4 C34_4 1_555 1_555
N6 C39_4 1_555 1_555
C39_4 H23_4 1_555 1_555
C40_4 C39_4 1_555 1_555
C41_5 C40_4 1_555 1_555
H24_5 C41_5 1_555 1_555
C42_4 C40_4 1_555 1_555
C43_4 C42_4 1_555 1_555
H25_4 C43_4 1_555 1_555
C47_4 C42_4 1_555 1_555
H28_4 C47_4 1_555 1_555
O12_3 C57_4 1_555 1_555
O13_3 C57_4 1_555 1_555
C49_4 N6 1_555 1_555
H29_4 C49_4 1_555 1_555
C50_4 C41_5 1_555 1_555
C51_4 C50_4 1_555 1_555
C52_4 C51_4 1_555 1_555
H30_4 C52_4 1_555 1_555
C53_4 C52_4 1_555 1_555
H31_4 C53_4 1_555 1_555
C54_4 C53_4 1_555 1_555
C55_4 C54_4 1_555 1_555
H32_4 C55_4 1_555 1_555
C56_4 C51_4 1_555 1_555
H33_4 C56_4 1_555 1_555
C57_4 C54_4 1_555 1_555
In10_3 O9_3 1_555 1_555
In12_4 O12_3 1_555 1_555
In12_3 O5_3 1_555 1_555
In11_4 O13_3 1_555 1_555
C8_4 C9_4 1_555 1_555
C27_4 C28_4 1_555 1_555
C46_4 C47_4 1_555 1_555
C49_4 C50_4 1_555 1_555
C55_4 C56_4 1_555 1_555
In10 O1_7 1_555 1_555
O1_7 In11 1_555 1_555
O2_3 In10 1_555 1_555
O3_3 C10_4 1_555 1_555
H4_4 C6_4 1_555 1_555
C7_4 C6_4 1_555 1_555
C10_4 O2_3 1_555 1_555
In11 O3_3 1_555 1_555
O6_3 In11 1_555 1_555
O7_3 C29_4 1_555 1_555
H15_4 C25_4 1_555 1_555
C26_4 C25_4 1_555 1_555
C29_4 O6_3 1_555 1_555
In12 O1_7 1_555 1_555
O10_3 In12 1_555 1_555
O11_3 In10 1_555 1_555
H26_4 C44_4 1_555 1_555
C45_4 C44_4 1_555 1_555
C48_4 O10_3 1_555 1_555
O14_3 In10 1_555 1_555
O15_3 In12 1_555 1_555
O16_3 In11 1_555 1_555
O17_3 In12 1_555 1_555
O18_3 In11 1_555 1_555
O19_3 In10 1_555 1_555
C7_4 C10_4 1_555 1_555
O7_3 In12 1_555 1_555
C26_4 C29_4 1_555 1_555
O11_3 C48_4 1_555 1_555
C45_4 C48_4 1_555 1_555
N5 C20_4 1_555 1_555
C20_4 H12_4 1_555 1_555
C30_4 N5 1_555 1_555
H18_4 C30_4 1_555 1_555
C32_4 C31_4 1_555 1_555
C36_4 C35_4 1_555 1_555
H21_4 C36_4 1_555 1_555
C37_4 C32_4 1_555 1_555
H22_4 C37_4 1_555 1_555
In11_3 O8_3 1_555 1_555
C30_4 C31_4 1_555 1_555
C36_4 C37_4 1_555 1_555
N4_2 C1_5 1_555 1_555
C1_5 H1_5 1_555 1_555
C11_5 N4_2 1_555 1_555
H7_5 C11_5 1_555 1_555
C13_5 C12_5 1_555 1_555
C17_5 C16_5 1_555 1_555
H10_5 C17_5 1_555 1_555
C18_5 C13_5 1_555 1_555
H11_5 C18_5 1_555 1_555
In10_3 O4_4 1_555 1_555
C11_5 C12_5 1_555 1_555
C17_5 C18_5 1_555 1_555
In10_2 O1_8 1_555 1_555
O1_8 In11_2 1_555 1_555
O2_4 In10_2 1_555 1_555
O3_4 C10_5 1_555 1_555
C3_5 C2_5 1_555 1_555
H2_5 C3_5 1_555 1_555
C4_5 C2_5 1_555 1_555
C5_5 C4_5 1_555 1_555
H3_5 C5_5 1_555 1_555
C6_5 C5_5 1_555 1_555
H4_5 C6_5 1_555 1_555
C7_5 C6_5 1_555 1_555
C8_5 C7_5 1_555 1_555
H5_5 C8_5 1_555 1_555
C9_5 C4_5 1_555 1_555
H6_5 C9_5 1_555 1_555
C10_5 O2_4 1_555 1_555
O5_4 C19_5 1_555 1_555
H8_5 C14_5 1_555 1_555
C15_5 C14_5 1_555 1_555
H9_5 C15_5 1_555 1_555
In11_2 O3_4 1_555 1_555
O6_4 In11_2 1_555 1_555
O7_4 C29_5 1_555 1_555
C22_6 C21_5 1_555 1_555
H13_6 C22_6 1_555 1_555
C23_5 C21_5 1_555 1_555
C24_5 C23_5 1_555 1_555
H14_5 C24_5 1_555 1_555
C25_5 C24_5 1_555 1_555
H15_5 C25_5 1_555 1_555
C26_5 C25_5 1_555 1_555
C27_5 C26_5 1_555 1_555
H16_5 C27_5 1_555 1_555
C28_5 C23_5 1_555 1_555
H17_5 C28_5 1_555 1_555
C29_5 O6_4 1_555 1_555
O9_4 C38_5 1_555 1_555
H19_5 C33_5 1_555 1_555
C34_5 C33_5 1_555 1_555
H20_5 C34_5 1_555 1_555
In12_2 O1_8 1_555 1_555
O10_4 In12_2 1_555 1_555
O11_4 In10_2 1_555 1_555
N6_2 C39_5 1_555 1_555
C39_5 H23_5 1_555 1_555
C40_5 C39_5 1_555 1_555
C41_6 C40_5 1_555 1_555
H24_6 C41_6 1_555 1_555
C42_5 C40_5 1_555 1_555
C43_5 C42_5 1_555 1_555
H25_5 C43_5 1_555 1_555
C44_5 C43_5 1_555 1_555
H26_5 C44_5 1_555 1_555
C45_5 C44_5 1_555 1_555
C46_5 C45_5 1_555 1_555
H27_5 C46_5 1_555 1_555
C47_5 C42_5 1_555 1_555
H28_5 C47_5 1_555 1_555
C48_5 O10_4 1_555 1_555
O12_4 C57_5 1_555 1_555
O13_4 C57_5 1_555 1_555
C49_5 N6_2 1_555 1_555
H29_5 C49_5 1_555 1_555
C50_5 C41_6 1_555 1_555
C51_5 C50_5 1_555 1_555
C52_5 C51_5 1_555 1_555
H30_5 C52_5 1_555 1_555
C53_5 C52_5 1_555 1_555
H31_5 C53_5 1_555 1_555
C54_5 C53_5 1_555 1_555
C55_5 C54_5 1_555 1_555
H32_5 C55_5 1_555 1_555
C56_5 C51_5 1_555 1_555
H33_5 C56_5 1_555 1_555
C57_5 C54_5 1_555 1_555
In10_3 O9_4 1_555 1_555
In11_4 O12_4 1_555 1_555
In11_3 O5_4 1_555 1_555
In12_4 O13_4 1_555 1_555
O14_4 In10_2 1_555 1_555
O15_4 In12_2 1_555 1_555
O16_4 In11_2 1_555 1_555
O17_4 In12_2 1_555 1_555
O18_4 In11_2 1_555 1_555
O19_4 In10_2 1_555 1_555
C7_5 C10_5 1_555 1_555
C8_5 C9_5 1_555 1_555
O7_4 In12_2 1_555 1_555
C26_5 C29_5 1_555 1_555
C27_5 C28_5 1_555 1_555
O11_4 C48_5 1_555 1_555
C45_5 C48_5 1_555 1_555
C46_5 C47_5 1_555 1_555
C49_5 C50_5 1_555 1_555
C55_5 C56_5 1_555 1_555
N5_2 C20_5 1_555 1_555
C20_5 H12_5 1_555 1_555
C30_5 N5_2 1_555 1_555
H18_5 C30_5 1_555 1_555
C32_5 C31_5 1_555 1_555
C36_5 C35_5 1_555 1_555
H21_5 C36_5 1_555 1_555
C37_5 C32_5 1_555 1_555
H22_5 C37_5 1_555 1_555
In12_3 O8_4 1_555 1_555
C30_5 C31_5 1_555 1_555
C36_5 C37_5 1_555 1_555
H24_7 C41_7 1_555 1_555
O15_3 C57_6 1_555 1_555
O18_3 C57_6 1_555 1_555
C49_6 N5_3 1_555 1_555
H29_6 C49_6 1_555 1_555
C50_6 C41_7 1_555 1_555
C51_6 C50_6 1_555 1_555
C52_6 C51_6 1_555 1_555
H30_6 C52_6 1_555 1_555
C53_6 C52_6 1_555 1_555
H31_6 C53_6 1_555 1_555
C54_6 C53_6 1_555 1_555
C55_6 C54_6 1_555 1_555
H32_6 C55_6 1_555 1_555
C56_6 C51_6 1_555 1_555
H33_6 C56_6 1_555 1_555
C57_6 C54_6 1_555 1_555
C49_6 C50_6 1_555 1_555
C55_6 C56_6 1_555 1_555
O17_4 C10_6 1_555 1_555
N4_3 C1_6 1_555 1_555
C1_6 H1_6 1_555 1_555
C2_6 C1_6 1_555 1_555
C3_6 C2_6 1_555 1_555
H2_6 C3_6 1_555 1_555
C4_6 C2_6 1_555 1_555
C5_6 C4_6 1_555 1_555
H3_6 C5_6 1_555 1_555
C6_6 C5_6 1_555 1_555
H4_6 C6_6 1_555 1_555
C7_6 C6_6 1_555 1_555
C8_6 C7_6 1_555 1_555
H5_6 C8_6 1_555 1_555
C9_6 C4_6 1_555 1_555
H6_6 C9_6 1_555 1_555
C10_6 O14_4 1_555 1_555
O14_3 C19_6 1_555 1_555
O17_3 C19_6 1_555 1_555
C11_6 N4_3 1_555 1_555
H7_6 C11_6 1_555 1_555
C12_6 C3_6 1_555 1_555
C13_6 C12_6 1_555 1_555
C14_6 C13_6 1_555 1_555
H8_6 C14_6 1_555 1_555
C15_6 C14_6 1_555 1_555
H9_6 C15_6 1_555 1_555
C16_6 C15_6 1_555 1_555
C17_6 C16_6 1_555 1_555
H10_6 C17_6 1_555 1_555
C18_6 C13_6 1_555 1_555
H11_6 C18_6 1_555 1_555
C19_6 C16_6 1_555 1_555
O18_4 C29_6 1_555 1_555
N6_3 C20_6 1_555 1_555
C20_6 H12_6 1_555 1_555
C21_6 C20_6 1_555 1_555
C22_7 C21_6 1_555 1_555
H13_7 C22_7 1_555 1_555
C23_6 C21_6 1_555 1_555
C24_6 C23_6 1_555 1_555
H14_6 C24_6 1_555 1_555
C25_6 C24_6 1_555 1_555
H15_6 C25_6 1_555 1_555
C26_6 C25_6 1_555 1_555
C27_6 C26_6 1_555 1_555
H16_6 C27_6 1_555 1_555
C28_6 C23_6 1_555 1_555
H17_6 C28_6 1_555 1_555
C29_6 O15_4 1_555 1_555
N5_4 C39_6 1_555 1_555
C39_6 H23_6 1_555 1_555
C40_6 C39_6 1_555 1_555
C41_8 C40_6 1_555 1_555
H24_8 C41_8 1_555 1_555
C42_6 C40_6 1_555 1_555
C43_6 C42_6 1_555 1_555
H25_6 C43_6 1_555 1_555
C44_6 C43_6 1_555 1_555
H26_6 C44_6 1_555 1_555
C45_6 C44_6 1_555 1_555
C46_6 C45_6 1_555 1_555
H27_6 C46_6 1_555 1_555
C47_6 C42_6 1_555 1_555
H28_6 C47_6 1_555 1_555
C48_6 O16_4 1_555 1_555
C7_6 C10_6 1_555 1_555
C8_6 C9_6 1_555 1_555
C11_6 C12_6 1_555 1_555
C17_6 C18_6 1_555 1_555
C26_6 C29_6 1_555 1_555
C27_6 C28_6 1_555 1_555
O19_4 C48_6 1_555 1_555
C45_6 C48_6 1_555 1_555
C46_6 C47_6 1_555 1_555
H13_8 C22_8 1_555 1_555
O16_3 C38_6 1_555 1_555
O19_3 C38_6 1_555 1_555
C30_6 N6_4 1_555 1_555
H18_6 C30_6 1_555 1_555
C31_6 C22_8 1_555 1_555
C32_6 C31_6 1_555 1_555
C33_6 C32_6 1_555 1_555
H19_6 C33_6 1_555 1_555
C34_6 C33_6 1_555 1_555
H20_6 C34_6 1_555 1_555
C35_6 C34_6 1_555 1_555
C36_6 C35_6 1_555 1_555
H21_6 C36_6 1_555 1_555
C37_6 C32_6 1_555 1_555
H22_6 C37_6 1_555 1_555
C38_6 C35_6 1_555 1_555
C30_6 C31_6 1_555 1_555
C36_6 C37_6 1_555 1_555
In10_3 O1_9 1_555 1_555
O1_10 In12_3 1_555 1_555
In11_3 O1_11 1_555 1_555
O1_12 In12_4 1_555 1_555
In11_4 O1_12 1_555 1_555

#END
