
###############################################################################
#
# This file contains modified crystal structure data generated from the
# MOF subset of the Cambridge Structural Database (CSD) v543 
# hosted by the Cambridge Crystallographic Data Centre (CCDC).
#
# This work is licensed under the Creative Commons
# Attribution-NonCommercial-ShareAlike 4.0 International License.
# To view a copy of this license, visit
# http://creativecommons.org/licenses/by-nc-sa/4.0/
# or send a letter to
# Creative Commons, PO Box 1866, Mountain View, CA 94042, USA.
#
# CIF created using the CSD Python API on 29 September 2022
# The structure has been converted into the P1 space group
# The structure has a 3D framework
# The original CSD entry QAMVEH01 is in the hexagonal crystal system
# The original CSD entry QAMVEH01 is in a Sohncke space group
# The framework has been calculated to contain at least 10.0% void space
# The void calculation uses a probe of radius 1.32A, grid spacing 0.4
# H atom positions have been added when not included in the experimental data
# Generated hydrogen atom positions removed from atoms on special positions
#
###############################################################################

data_QAMVEH01
_chemical_formula_moiety         '(C162 H114 Ce12 O44)n'
_symmetry_cell_setting           triclinic
_symmetry_space_group_name_H-M   'P 1'
_symmetry_Int_Tables_number      1
_space_group_name_Hall           'P 1'
loop_
_symmetry_equiv_pos_site_id
_symmetry_equiv_pos_as_xyz
1 x,y,z
_cell_length_a                   16.5126(7)
_cell_length_b                   16.5126(7)
_cell_length_c                   24.5098(14)
_cell_angle_alpha                90
_cell_angle_beta                 90
_cell_angle_gamma                120
_cell_volume                     5787.64
loop_
_atom_site_label
_atom_site_type_symbol
_atom_site_fract_x
_atom_site_fract_y
_atom_site_fract_z
Ce1 Ce 0.07702(5) -0.0000 0.0000
O4 O 0.2308(9) -0.0000 0.0000
O6 O 0.2001(9) 0.1686(5) 0.0036(4)
O10 O 0.1012(7) 0.1388(5) 0.0710(3)
H17 H 0.283557 0.0654239 0.00139695
Ce1_2 Ce 0.07702(5) -0.0000 1.0000
O4_2 O 0.2308(9) -0.0000 1.0000
O9 O 0.1388(5) 0.0376(5) 0.9043(3)
Ce1_3 Ce 0.07702(5) 1.0000 0.0000
O4_3 O 0.2308(9) 1.0000 0.0000
O8 O 0.1012(7) 0.9624(5) 0.0957(3)
Ce1_4 Ce 0.07702(5) 1.0000 1.0000
O1 O 0.0315(7) 0.8314(5) 0.9964(4)
O4_4 O 0.2308(9) 1.0000 1.0000
Ce6 Ce -0.0000 0.92298(5) 0.8333
H16 H 0.235526 0.969362 0.966244
O12 O 0.9988(8) 0.0708(7) 0.9548(3)
H1 H 0.9777 0.6610 0.0032
O13 O 0.9280(11) 0.9292(7) 0.0452(3)
C1 C 0.9703(7) 0.8037(7) 0.9602(4)
C2 C 0.9036(7) 0.6986(8) 0.9540(4)
C3 C 0.9261(10) 0.6379(9) 0.9802(5)
C4 C 0.8697(10) 0.5413(10) 0.9715(6)
H2 H 0.8851 0.5008 0.9890
C5 C 0.7938(9) 0.5053(8) 0.9385(5)
C6 C 0.7714(8) 0.5684(8) 0.9133(5)
H3 H 0.7189 0.5447 0.8909
C7 C 0.8251(9) 0.6652(8) 0.9207(5)
H4 H 0.8089 0.7058 0.9040
C8 C 0.7409(8) 0.4038(8) 0.9276(5)
C9 C 0.6454(6) 0.3546(6) 0.9167
H5 H 0.6128 0.3872 0.9167
C10 C 0.7849(9) 0.3529(9) 0.9282(6)
H6 H 0.8482 0.3835 0.9369
C11 C 0.7414(6) 0.2586(6) 0.9167
C12 C 0.7940(7) 0.2060(7) 0.9167
C13 C 0.8617(12) 0.2235(11) 0.9559(7)
H7 H 0.8742 0.2676 0.9830
C14 C 0.9089(12) 0.1776(12) 0.9548(6)
H8 H 0.9555 0.1923 0.9806
C15 C 0.8911(6) 0.1089(6) 0.9167
C16 C 0.9439(6) 0.0561(6) 0.9167
O2 O 0.9624(5) 0.8612(5) 0.9290(3)
Ce6_2 Ce 1.0000 0.92298(5) 0.8333
C17 C 0.1963(7) 0.0297(7) 0.8731(4)
C18 C 0.3014(8) 0.0964(7) 0.8793(4)
C19 C 0.3621(9) 0.0739(10) 0.8531(5)
H9 H 0.3390 0.0223 0.8301
C20 C 0.4587(10) 0.1303(10) 0.8618(6)
H10 H 0.4992 0.1149 0.8443
C21 C 0.4947(8) 0.2062(9) 0.8948(5)
C22 C 0.4316(8) 0.2286(8) 0.9200(5)
H11 H 0.4553 0.2811 0.9424
C23 C 0.3348(8) 0.1749(9) 0.9126(5)
H12 H 0.2942 0.1911 0.9293
C24 C 0.5962(8) 0.2591(8) 0.9057(5)
C25 C 0.6471(9) 0.2151(9) 0.9051(6)
H13 H 0.6165 0.1518 0.8964
C26 C 0.7765(11) 0.1383(12) 0.8774(7)
H14 H 0.7324 0.1258 0.8503
C27 C 0.8224(12) 0.0911(12) 0.8785(6)
H15 H 0.8077 0.0445 0.8527
O11 O 0.9292(7) 0.0012(8) 0.8785(3)
O5 O 0.1686(5) 0.9685(7) 0.8369(4)
Ce3 Ce 0.07702(5) 0.07702(5) 0.1667
O1_2 O 0.2001(9) 0.0315(7) 0.1631(4)
O4_5 O 0.2308(9) 0.2308(9) 0.1667
O6_2 O 0.0315(10) 0.2001(9) 0.1703(4)
O8_2 O 0.1388(9) 0.1012(7) 0.2623(3)
C1_2 C 0.1666(10) 0.9703(7) 0.1269(4)
C2_2 C 0.2050(11) 0.9036(7) 0.1207(4)
C3_2 C 0.2882(13) 0.9261(10) 0.1469(5)
H1_2 H 0.3167 0.9777 0.1699
C4_2 C 0.3284(14) 0.8697(10) 0.1382(6)
H2_2 H 0.3843 0.8851 0.1557
C5_2 C 0.2885(12) 0.7938(9) 0.1052(5)
C6_2 C 0.2030(11) 0.7714(8) 0.0800(5)
H3_2 H 0.1742 0.7189 0.0576
C7_2 C 0.1599(12) 0.8251(9) 0.0874(5)
H4_2 H 0.1031 0.8089 0.0707
C8_2 C 0.3371(11) 0.7409(8) 0.0943(5)
C9_2 C 0.2908(8) 0.6454(6) 0.0834
H5_2 H 0.2256 0.6128 0.0834
C10_2 C 0.4320(13) 0.7849(9) 0.0949(6)
H6_2 H 0.4647 0.8482 0.1036
C11_2 C 0.4828(8) 0.7414(6) 0.0834
C12_2 C 0.5880(10) 0.7940(7) 0.0834
C13_2 C 0.6382(16) 0.8617(12) 0.1226(7)
H7_2 H 0.6066 0.8742 0.1497
C14_2 C 0.7313(17) 0.9089(12) 0.1215(6)
H8_2 H 0.7632 0.9555 0.1473
C15_2 C 0.7822(8) 0.8911(6) 0.0834
C16_2 C 0.8878(8) 0.9439(6) 0.0834
O3 O 0.9280(11) 0.9988(8) 0.1215(3)
C17_2 C 0.1666(10) 0.1963(7) 0.0398(4)
C18_2 C 0.2050(11) 0.3014(8) 0.0460(4)
C19_2 C 0.2882(13) 0.3621(9) 0.0198(5)
C20_2 C 0.3284(14) 0.4587(10) 0.0285(6)
H10_2 H 0.3843 0.4992 0.0110
C21_2 C 0.2885(12) 0.4947(8) 0.0615(5)
C22_2 C 0.2030(11) 0.4316(8) 0.0867(5)
H11_2 H 0.1742 0.4553 0.1091
C23_2 C 0.1599(12) 0.3348(8) 0.0793(5)
H12_2 H 0.1031 0.2942 0.0960
C24_2 C 0.3371(11) 0.5962(8) 0.0724(5)
C25_2 C 0.4320(13) 0.6471(9) 0.0718(6)
H13_2 H 0.4647 0.6165 0.0631
C26_2 C 0.6382(16) 0.7765(11) 0.0441(7)
H14_2 H 0.6066 0.7324 0.0170
C27_2 C 0.7313(17) 0.8224(12) 0.0452(6)
H15_2 H 0.7632 0.8077 0.0194
H9_2 H 0.3167 0.3390 0.9968
O10_2 O 0.9624(9) 0.1012(7) 0.2377(3)
O13_2 O 0.9988(13) 0.9280(11) 0.2119(3)
Ce3_2 Ce 0.0000 0.07702(5) 0.3333
Ce3_3 Ce 1.0000 0.07702(5) 0.3333
C1_3 C 0.1963(7) 0.1666(10) 0.2935(4)
C2_3 C 0.3014(8) 0.2050(11) 0.2873(4)
C3_3 C 0.3621(9) 0.2882(13) 0.3135(5)
H1_3 H 0.3390 0.3167 0.3365
C4_3 C 0.4587(10) 0.3284(14) 0.3048(6)
H2_3 H 0.4992 0.3843 0.3223
C5_3 C 0.4947(8) 0.2885(12) 0.2718(5)
C6_3 C 0.4316(8) 0.2030(11) 0.2466(5)
H3_3 H 0.4553 0.1742 0.2242
C7_3 C 0.3348(8) 0.1599(12) 0.2540(5)
H4_3 H 0.2942 0.1031 0.2373
C8_3 C 0.5962(8) 0.3371(11) 0.2609(5)
C9_3 C 0.6454(6) 0.2908(8) 0.2500
H5_3 H 0.6128 0.2256 0.2500
C10_3 C 0.6471(9) 0.4320(13) 0.2615(6)
H6_3 H 0.6165 0.4647 0.2702
C11_3 C 0.7414(6) 0.4828(8) 0.2500
C12_3 C 0.7940(7) 0.5880(10) 0.2500
C13_3 C 0.7765(11) 0.6382(16) 0.2892(7)
H7_3 H 0.7324 0.6066 0.3163
C14_3 C 0.8224(12) 0.7313(17) 0.2881(6)
H8_3 H 0.8077 0.7632 0.3139
C15_3 C 0.8911(6) 0.7822(8) 0.2500
C16_3 C 0.9439(6) 0.8878(8) 0.2500
O1_3 O 0.1686(5) 0.2001(9) 0.3297(4)
O3_2 O 0.9292(7) 0.9280(11) 0.2881(3)
O4_6 O 0.0000 0.2308(9) 0.3333
C17_3 C 0.9703(7) 0.1666(10) 0.2065(4)
C18_3 C 0.9036(7) 0.2050(11) 0.2127(4)
C19_3 C 0.9261(10) 0.2882(13) 0.1865(5)
H9_3 H 0.9777 0.3167 0.1635
C20_3 C 0.8697(10) 0.3284(14) 0.1952(6)
H10_3 H 0.8851 0.3843 0.1777
C21_3 C 0.7938(9) 0.2885(12) 0.2282(5)
C22_3 C 0.7714(8) 0.2030(11) 0.2534(5)
H11_3 H 0.7189 0.1742 0.2758
C23_3 C 0.8251(9) 0.1599(12) 0.2460(5)
H12_3 H 0.8089 0.1031 0.2627
C24_3 C 0.7409(8) 0.3371(11) 0.2391(5)
C25_3 C 0.7849(9) 0.4320(13) 0.2385(6)
H13_3 H 0.8482 0.4647 0.2298
C26_3 C 0.8617(12) 0.6382(16) 0.2108(7)
H14_3 H 0.8742 0.6066 0.1837
C27_3 C 0.9089(12) 0.7313(17) 0.2119(6)
H15_3 H 0.9555 0.7632 0.1861
O8_3 O 0.0376(5) 0.1388(9) 0.4290(3)
H16_2 H 0.0306384 0.266165 0.299577
O13_3 O 0.0708(7) 0.9988(13) 0.3785(3)
O4_7 O 1.0000 0.2308(9) 0.3333
O6_3 O 0.8314(5) 0.0315(10) 0.3369(4)
H17_2 H 0.934576 0.218133 0.33473
O10_3 O 0.8612(5) 0.9624(9) 0.4043(3)
Ce2 Ce 0.92298(5) 0.0000 0.5000
C1_4 C 0.0297(7) 0.1963(7) 0.4602(4)
C2_4 C 0.0964(7) 0.3014(8) 0.4540(4)
C3_4 C 0.0739(10) 0.3621(9) 0.4802(5)
H1_4 H 0.0223 0.3390 0.5032
C4_4 C 0.1303(10) 0.4587(10) 0.4715(6)
H2_4 H 0.1149 0.4992 0.4890
C5_4 C 0.2062(9) 0.4947(8) 0.4385(5)
C6_4 C 0.2286(8) 0.4316(8) 0.4133(5)
H3_4 H 0.2811 0.4553 0.3909
C7_4 C 0.1749(9) 0.3348(8) 0.4207(5)
H4_4 H 0.1911 0.2942 0.4040
C8_4 C 0.2591(8) 0.5962(8) 0.4276(5)
C9_4 C 0.3546(6) 0.6454(6) 0.4167
H5_4 H 0.3872 0.6128 0.4167
C10_4 C 0.2151(9) 0.6471(9) 0.4282(6)
H6_4 H 0.1518 0.6165 0.4369
C11_4 C 0.2586(6) 0.7414(6) 0.4167
C12_4 C 0.2060(7) 0.7940(7) 0.4167
C13_4 C 0.1383(12) 0.7765(11) 0.4559(7)
H7_4 H 0.1258 0.7324 0.4830
C14_4 C 0.0911(12) 0.8224(12) 0.4548(6)
H8_4 H 0.0445 0.8077 0.4806
C15_4 C 0.1089(6) 0.8911(6) 0.4167
C16_4 C 0.0561(6) 0.9439(6) 0.4167
O3_3 O 0.0012(8) 0.9292(7) 0.4548(3)
Ce2_2 Ce 0.92298(5) 1.0000 0.5000
C17_4 C 0.8037(7) 0.9703(7) 0.3731(4)
C18_4 C 0.6986(8) 0.9036(7) 0.3793(4)
C19_4 C 0.6379(9) 0.9261(10) 0.3531(5)
H9_4 H 0.6610 0.9777 0.3301
C20_4 C 0.5413(10) 0.8697(10) 0.3618(6)
H10_4 H 0.5008 0.8851 0.3443
C21_4 C 0.5053(8) 0.7938(9) 0.3948(5)
C22_4 C 0.5684(8) 0.7714(8) 0.4200(5)
H11_4 H 0.5447 0.7189 0.4424
C23_4 C 0.6652(8) 0.8251(9) 0.4126(5)
H12_4 H 0.7058 0.8089 0.4293
C24_4 C 0.4038(8) 0.7409(8) 0.4057(5)
C25_4 C 0.3529(9) 0.7849(9) 0.4051(6)
H13_4 H 0.3835 0.8482 0.3964
C26_4 C 0.2235(11) 0.8617(12) 0.3774(7)
H14_4 H 0.2676 0.8742 0.3503
C27_4 C 0.1776(12) 0.9089(12) 0.3785(6)
H15_4 H 0.1923 0.9555 0.3527
O13_4 O 0.0720(11) 0.0708(7) 0.5452(3)
O1_4 O 0.9685(7) 0.1686(5) 0.4964(4)
O4_8 O 0.7692(9) 0.0000 0.5000
O8_4 O 0.8988(7) 0.0376(5) 0.5957(3)
H16_3 H 0.764474 0.0306384 0.466244
O4_9 O 0.7692(9) 1.0000 0.5000
O6_4 O 0.7999(9) 0.8314(5) 0.5036(4)
O10_4 O 0.8988(7) 0.8612(5) 0.5710(3)
H17_3 H 0.716443 0.934576 0.501397
O12_2 O 0.0720(11) 0.0012(8) 0.6215(3)
O13_5 O 0.0012(13) 0.0720(11) 0.7119(3)
O10_5 O 0.0376(9) 0.8988(7) 0.7377(3)
C1_5 C 0.8334(10) 0.0297(7) 0.6269(4)
C2_5 C 0.7950(11) 0.0964(7) 0.6207(4)
C3_5 C 0.7118(13) 0.0739(10) 0.6469(5)
H1_5 H 0.6833 0.0223 0.6699
C4_5 C 0.6716(14) 0.1303(10) 0.6382(6)
H2_5 H 0.6157 0.1149 0.6557
C5_5 C 0.7115(12) 0.2062(9) 0.6052(5)
C6_5 C 0.7970(11) 0.2286(8) 0.5800(5)
H3_5 H 0.8258 0.2811 0.5576
C7_5 C 0.8401(12) 0.1749(9) 0.5874(5)
H4_5 H 0.8969 0.1911 0.5707
C8_5 C 0.6629(11) 0.2591(8) 0.5943(5)
C9_5 C 0.7092(8) 0.3546(6) 0.5834
H5_5 H 0.7744 0.3872 0.5834
C10_5 C 0.5680(13) 0.2151(9) 0.5949(6)
H6_5 H 0.5353 0.1518 0.6036
C11_5 C 0.5172(8) 0.2586(6) 0.5834
C12_5 C 0.4120(10) 0.2060(7) 0.5834
C13_5 C 0.3618(16) 0.1383(12) 0.6226(7)
H7_5 H 0.3934 0.1258 0.6497
C14_5 C 0.2687(17) 0.0911(12) 0.6215(6)
H8_5 H 0.2368 0.0445 0.6473
C15_5 C 0.2178(8) 0.1089(6) 0.5834
C16_5 C 0.1122(8) 0.0561(6) 0.5834
Ce2_3 Ce 0.92298(5) 0.92298(5) 0.6667
C17_5 C 0.8334(10) 0.8037(7) 0.5398(4)
C18_5 C 0.7950(11) 0.6986(8) 0.5460(4)
C19_5 C 0.7118(13) 0.6379(9) 0.5198(5)
H9_5 H 0.6833 0.6610 0.4968
C20_5 C 0.6716(14) 0.5413(10) 0.5285(6)
H10_5 H 0.6157 0.5008 0.5110
C21_5 C 0.7115(12) 0.5053(8) 0.5615(5)
C22_5 C 0.7970(11) 0.5684(8) 0.5867(5)
H11_5 H 0.8258 0.5447 0.6091
C23_5 C 0.8401(12) 0.6652(8) 0.5793(5)
H12_5 H 0.8969 0.7058 0.5960
C24_5 C 0.6629(11) 0.4038(8) 0.5724(5)
C25_5 C 0.5680(13) 0.3529(9) 0.5718(6)
H13_5 H 0.5353 0.3835 0.5631
C26_5 C 0.3618(16) 0.2235(11) 0.5441(7)
H14_5 H 0.3934 0.2676 0.5170
C27_5 C 0.2687(17) 0.1776(12) 0.5452(6)
H15_5 H 0.2368 0.1923 0.5194
O1_5 O 0.7999(9) 0.9685(7) 0.6631(4)
O4_10 O 0.7692(9) 0.7692(9) 0.6667
O6_5 O 0.9685(10) 0.7999(9) 0.6703(4)
O8_5 O 0.8612(9) 0.8988(7) 0.7623(3)
O12_3 O 0.0708(7) 0.0720(11) 0.7881(3)
O4_11 O -0.0000 0.7692(9) 0.8333
H17_4 H 0.0654239 0.781867 0.83473
C1_6 C 0.8037(7) 0.8334(10) 0.7935(4)
C2_6 C 0.6986(8) 0.7950(11) 0.7873(4)
C3_6 C 0.6379(9) 0.7118(13) 0.8135(5)
H1_6 H 0.6610 0.6833 0.8365
C4_6 C 0.5413(10) 0.6716(14) 0.8048(6)
H2_6 H 0.5008 0.6157 0.8223
C5_6 C 0.5053(8) 0.7115(12) 0.7718(5)
C6_6 C 0.5684(8) 0.7970(11) 0.7466(5)
H3_6 H 0.5447 0.8258 0.7242
C7_6 C 0.6652(8) 0.8401(12) 0.7540(5)
H4_6 H 0.7058 0.8969 0.7373
C8_6 C 0.4038(8) 0.6629(11) 0.7609(5)
C9_6 C 0.3546(6) 0.7092(8) 0.7500
H5_6 H 0.3872 0.7744 0.7500
C10_6 C 0.3529(9) 0.5680(13) 0.7615(6)
H6_6 H 0.3835 0.5353 0.7702
C11_6 C 0.2586(6) 0.5172(8) 0.7500
C12_6 C 0.2060(7) 0.4120(10) 0.7500
C13_6 C 0.2235(11) 0.3618(16) 0.7892(7)
H7_6 H 0.2676 0.3934 0.8163
C14_6 C 0.1776(12) 0.2687(17) 0.7881(6)
H8_6 H 0.1923 0.2368 0.8139
C15_6 C 0.1089(6) 0.2178(8) 0.7500
C16_6 C 0.0561(6) 0.1122(8) 0.7500
O1_6 O 0.8314(5) 0.7999(9) 0.8297(4)
O4_12 O 1.0000 0.7692(9) 0.8333
C17_6 C 0.0297(7) 0.8334(10) 0.7065(4)
C18_6 C 0.0964(7) 0.7950(11) 0.7127(4)
C19_6 C 0.0739(10) 0.7118(13) 0.6865(5)
H9_6 H 0.0223 0.6833 0.6635
C20_6 C 0.1303(10) 0.6716(14) 0.6952(6)
H10_6 H 0.1149 0.6157 0.6777
C21_6 C 0.2062(9) 0.7115(12) 0.7282(5)
C22_6 C 0.2286(8) 0.7970(11) 0.7534(5)
H11_6 H 0.2811 0.8258 0.7758
C23_6 C 0.1749(9) 0.8401(12) 0.7460(5)
H12_6 H 0.1911 0.8969 0.7627
C24_6 C 0.2591(8) 0.6629(11) 0.7391(5)
C25_6 C 0.2151(9) 0.5680(13) 0.7385(6)
H13_6 H 0.1518 0.5353 0.7298
C26_6 C 0.1383(12) 0.3618(16) 0.7108(7)
H14_6 H 0.1258 0.3934 0.6837
C27_6 C 0.0911(12) 0.2687(17) 0.7119(6)
H15_6 H 0.0445 0.2368 0.6861
H16_4 H 0.969362 0.733835 0.799577
H16_5 H 0.0306384 0.764474 0.86709
H17_5 H 0.934576 0.716443 0.831936
H16_6 H 0.266165 0.0306384 0.0337562
H17_6 H 0.218133 0.934576 0.998603
H17_7 H 0.0654239 0.283557 0.331936
H16_7 H 0.969362 0.235526 0.36709
H17_8 H 0.781867 0.0654239 0.498603
H16_8 H 0.733835 0.969362 0.533756
loop_
_geom_bond_atom_site_label_1
_geom_bond_atom_site_label_2
_geom_bond_site_symmetry_1
_geom_bond_site_symmetry_2
O4 Ce1 1_555 1_555
O6 Ce1 1_555 1_555
O10 Ce1 1_555 1_555
O4 H17 1_555 1_555
O4_2 Ce1_2 1_555 1_555
O9 Ce1_2 1_555 1_555
O4_3 Ce1_3 1_555 1_555
O8 Ce1_3 1_555 1_555
Ce1_4 O1 1_555 1_555
O4_4 Ce1_4 1_555 1_555
O4_4 H16 1_555 1_555
C1 C2 1_555 1_555
C2 C3 1_555 1_555
C4 C3 1_555 1_555
H2 C4 1_555 1_555
C5 C4 1_555 1_555
C6 C5 1_555 1_555
H3 C6 1_555 1_555
C7 C2 1_555 1_555
H4 C7 1_555 1_555
C8 C5 1_555 1_555
C9 C8 1_555 1_555
H5 C9 1_555 1_555
C10 C8 1_555 1_555
H6 C10 1_555 1_555
C11 C10 1_555 1_555
C12 C11 1_555 1_555
C13 C12 1_555 1_555
H7 C13 1_555 1_555
C14 C13 1_555 1_555
H8 C14 1_555 1_555
C15 C14 1_555 1_555
C16 C15 1_555 1_555
O12 C16 1_555 1_555
Ce6_2 O2 1_555 1_555
C17 C18 1_555 1_555
C18 C19 1_555 1_555
C19 H9 1_555 1_555
C20 C19 1_555 1_555
H10 C20 1_555 1_555
C21 C20 1_555 1_555
C22 C21 1_555 1_555
H11 C22 1_555 1_555
C23 C18 1_555 1_555
H12 C23 1_555 1_555
C24 C9 1_555 1_555
C25 C11 1_555 1_555
H13 C25 1_555 1_555
C26 C12 1_555 1_555
H14 C26 1_555 1_555
C27 C15 1_555 1_555
H15 C27 1_555 1_555
O11 C16 1_555 1_555
C1 O2 1_555 1_555
C6 C7 1_555 1_555
C17 O9 1_555 1_555
C21 C24 1_555 1_555
C22 C23 1_555 1_555
C24 C25 1_555 1_555
C26 C27 1_555 1_555
Ce6 O5 1_555 1_555
Ce3 O1_2 1_555 1_555
O4_5 Ce3 1_555 1_555
O6_2 Ce3 1_555 1_555
O8_2 Ce3 1_555 1_555
O10 Ce3 1_555 1_555
C1_2 C2_2 1_555 1_555
C2_2 C3_2 1_555 1_555
C3_2 H1_2 1_555 1_555
C4_2 C3_2 1_555 1_555
H2_2 C4_2 1_555 1_555
C5_2 C4_2 1_555 1_555
C6_2 C5_2 1_555 1_555
H3_2 C6_2 1_555 1_555
C7_2 C2_2 1_555 1_555
H4_2 C7_2 1_555 1_555
C8_2 C5_2 1_555 1_555
C9_2 C8_2 1_555 1_555
H5_2 C9_2 1_555 1_555
C10_2 C8_2 1_555 1_555
H6_2 C10_2 1_555 1_555
C11_2 C10_2 1_555 1_555
C12_2 C11_2 1_555 1_555
C13_2 C12_2 1_555 1_555
H7_2 C13_2 1_555 1_555
C14_2 C13_2 1_555 1_555
H8_2 C14_2 1_555 1_555
C15_2 C14_2 1_555 1_555
C16_2 C15_2 1_555 1_555
O3 C16_2 1_555 1_555
C17_2 C18_2 1_555 1_555
C18_2 C19_2 1_555 1_555
C20_2 C19_2 1_555 1_555
H10_2 C20_2 1_555 1_555
C21_2 C20_2 1_555 1_555
C22_2 C21_2 1_555 1_555
H11_2 C22_2 1_555 1_555
C23_2 C18_2 1_555 1_555
H12_2 C23_2 1_555 1_555
C24_2 C9_2 1_555 1_555
C25_2 C11_2 1_555 1_555
H13_2 C25_2 1_555 1_555
C26_2 C12_2 1_555 1_555
H14_2 C26_2 1_555 1_555
C27_2 C15_2 1_555 1_555
H15_2 C27_2 1_555 1_555
O6 C17_2 1_555 1_555
O13 C16_2 1_555 1_555
C1_2 O8 1_555 1_555
C6_2 C7_2 1_555 1_555
C17_2 O10 1_555 1_555
C21_2 C24_2 1_555 1_555
C22_2 C23_2 1_555 1_555
C24_2 C25_2 1_555 1_555
C26_2 C27_2 1_555 1_555
Ce3_2 O1_3 1_555 1_555
C1_3 C2_3 1_555 1_555
C2_3 C3_3 1_555 1_555
C3_3 H1_3 1_555 1_555
C4_3 C3_3 1_555 1_555
H2_3 C4_3 1_555 1_555
C5_3 C4_3 1_555 1_555
C6_3 C5_3 1_555 1_555
H3_3 C6_3 1_555 1_555
C7_3 C2_3 1_555 1_555
H4_3 C7_3 1_555 1_555
C8_3 C5_3 1_555 1_555
C9_3 C8_3 1_555 1_555
H5_3 C9_3 1_555 1_555
C10_3 C8_3 1_555 1_555
H6_3 C10_3 1_555 1_555
C11_3 C10_3 1_555 1_555
C12_3 C11_3 1_555 1_555
C13_3 C12_3 1_555 1_555
H7_3 C13_3 1_555 1_555
C14_3 C13_3 1_555 1_555
H8_3 C14_3 1_555 1_555
C15_3 C14_3 1_555 1_555
C16_3 C15_3 1_555 1_555
O1_3 C1_3 1_555 1_555
O8_2 Ce3_2 1_555 1_555
O3_2 C16_3 1_555 1_555
O4_6 Ce3_2 1_555 1_555
Ce3_3 O10_2 1_555 1_555
C17_3 C18_3 1_555 1_555
C18_3 C19_3 1_555 1_555
C19_3 H9_3 1_555 1_555
C20_3 C19_3 1_555 1_555
H10_3 C20_3 1_555 1_555
C21_3 C20_3 1_555 1_555
C22_3 C21_3 1_555 1_555
H11_3 C22_3 1_555 1_555
C23_3 C18_3 1_555 1_555
H12_3 C23_3 1_555 1_555
C24_3 C9_3 1_555 1_555
C25_3 C11_3 1_555 1_555
H13_3 C25_3 1_555 1_555
C26_3 C12_3 1_555 1_555
H14_3 C26_3 1_555 1_555
C27_3 C15_3 1_555 1_555
H15_3 C27_3 1_555 1_555
O8_3 Ce3_2 1_555 1_555
O13_2 C16_3 1_555 1_555
C1_3 O8_2 1_555 1_555
C6_3 C7_3 1_555 1_555
C17_3 O10_2 1_555 1_555
C21_3 C24_3 1_555 1_555
C22_3 C23_3 1_555 1_555
C24_3 C25_3 1_555 1_555
C26_3 C27_3 1_555 1_555
O4_6 H16_2 1_555 1_555
O4_7 Ce3_3 1_555 1_555
O6_3 Ce3_3 1_555 1_555
O4_7 H17_2 1_555 1_555
C1_4 C2_4 1_555 1_555
C2_4 C3_4 1_555 1_555
C3_4 H1_4 1_555 1_555
C4_4 C3_4 1_555 1_555
H2_4 C4_4 1_555 1_555
C5_4 C4_4 1_555 1_555
C6_4 C5_4 1_555 1_555
H3_4 C6_4 1_555 1_555
C7_4 C2_4 1_555 1_555
H4_4 C7_4 1_555 1_555
C8_4 C5_4 1_555 1_555
C9_4 C8_4 1_555 1_555
H5_4 C9_4 1_555 1_555
C10_4 C8_4 1_555 1_555
H6_4 C10_4 1_555 1_555
C11_4 C10_4 1_555 1_555
C12_4 C11_4 1_555 1_555
C13_4 C12_4 1_555 1_555
H7_4 C13_4 1_555 1_555
C14_4 C13_4 1_555 1_555
H8_4 C14_4 1_555 1_555
C15_4 C14_4 1_555 1_555
C16_4 C15_4 1_555 1_555
O3_3 C16_4 1_555 1_555
Ce2_2 O10_3 1_555 1_555
C17_4 C18_4 1_555 1_555
C18_4 C19_4 1_555 1_555
C19_4 H9_4 1_555 1_555
C20_4 C19_4 1_555 1_555
H10_4 C20_4 1_555 1_555
C21_4 C20_4 1_555 1_555
C22_4 C21_4 1_555 1_555
H11_4 C22_4 1_555 1_555
C23_4 C18_4 1_555 1_555
H12_4 C23_4 1_555 1_555
C24_4 C9_4 1_555 1_555
C25_4 C11_4 1_555 1_555
H13_4 C25_4 1_555 1_555
C26_4 C12_4 1_555 1_555
H14_4 C26_4 1_555 1_555
C27_4 C15_4 1_555 1_555
H15_4 C27_4 1_555 1_555
O13_3 C16_4 1_555 1_555
C1_4 O8_3 1_555 1_555
C6_4 C7_4 1_555 1_555
C17_4 O10_3 1_555 1_555
C21_4 C24_4 1_555 1_555
C22_4 C23_4 1_555 1_555
C24_4 C25_4 1_555 1_555
C26_4 C27_4 1_555 1_555
Ce2 O1_4 1_555 1_555
O4_8 Ce2 1_555 1_555
O8_4 Ce2 1_555 1_555
O4_8 H16_3 1_555 1_555
O4_9 Ce2_2 1_555 1_555
O6_4 Ce2_2 1_555 1_555
O10_4 Ce2_2 1_555 1_555
O4_9 H17_3 1_555 1_555
C1_5 C2_5 1_555 1_555
C2_5 C3_5 1_555 1_555
C3_5 H1_5 1_555 1_555
C4_5 C3_5 1_555 1_555
H2_5 C4_5 1_555 1_555
C5_5 C4_5 1_555 1_555
C6_5 C5_5 1_555 1_555
H3_5 C6_5 1_555 1_555
C7_5 C2_5 1_555 1_555
H4_5 C7_5 1_555 1_555
C8_5 C5_5 1_555 1_555
C9_5 C8_5 1_555 1_555
H5_5 C9_5 1_555 1_555
C10_5 C8_5 1_555 1_555
H6_5 C10_5 1_555 1_555
C11_5 C10_5 1_555 1_555
C12_5 C11_5 1_555 1_555
C13_5 C12_5 1_555 1_555
H7_5 C13_5 1_555 1_555
C14_5 C13_5 1_555 1_555
H8_5 C14_5 1_555 1_555
C15_5 C14_5 1_555 1_555
C16_5 C15_5 1_555 1_555
O12_2 C16_5 1_555 1_555
Ce2_3 O10_4 1_555 1_555
C17_5 C18_5 1_555 1_555
C18_5 C19_5 1_555 1_555
C19_5 H9_5 1_555 1_555
C20_5 C19_5 1_555 1_555
H10_5 C20_5 1_555 1_555
C21_5 C20_5 1_555 1_555
C22_5 C21_5 1_555 1_555
H11_5 C22_5 1_555 1_555
C23_5 C18_5 1_555 1_555
H12_5 C23_5 1_555 1_555
C24_5 C9_5 1_555 1_555
C25_5 C11_5 1_555 1_555
H13_5 C25_5 1_555 1_555
C26_5 C12_5 1_555 1_555
H14_5 C26_5 1_555 1_555
C27_5 C15_5 1_555 1_555
H15_5 C27_5 1_555 1_555
O6_4 C17_5 1_555 1_555
O13_4 C16_5 1_555 1_555
C1_5 O8_4 1_555 1_555
C6_5 C7_5 1_555 1_555
C17_5 O10_4 1_555 1_555
C21_5 C24_5 1_555 1_555
C22_5 C23_5 1_555 1_555
C24_5 C25_5 1_555 1_555
C26_5 C27_5 1_555 1_555
Ce2_3 O1_5 1_555 1_555
O4_10 Ce2_3 1_555 1_555
O6_5 Ce2_3 1_555 1_555
O8_5 Ce2_3 1_555 1_555
O4_11 Ce6 1_555 1_555
O10_5 Ce6 1_555 1_555
O4_11 H17_4 1_555 1_555
Ce6_2 O1_6 1_555 1_555
C1_6 C2_6 1_555 1_555
C2_6 C3_6 1_555 1_555
C3_6 H1_6 1_555 1_555
C4_6 C3_6 1_555 1_555
H2_6 C4_6 1_555 1_555
C5_6 C4_6 1_555 1_555
C6_6 C5_6 1_555 1_555
H3_6 C6_6 1_555 1_555
C7_6 C2_6 1_555 1_555
H4_6 C7_6 1_555 1_555
C8_6 C5_6 1_555 1_555
C9_6 C8_6 1_555 1_555
H5_6 C9_6 1_555 1_555
C10_6 C8_6 1_555 1_555
H6_6 C10_6 1_555 1_555
C11_6 C10_6 1_555 1_555
C12_6 C11_6 1_555 1_555
C13_6 C12_6 1_555 1_555
H7_6 C13_6 1_555 1_555
C14_6 C13_6 1_555 1_555
H8_6 C14_6 1_555 1_555
C15_6 C14_6 1_555 1_555
C16_6 C15_6 1_555 1_555
O1_6 C1_6 1_555 1_555
O8_5 Ce6_2 1_555 1_555
O12_3 C16_6 1_555 1_555
O4_12 Ce6_2 1_555 1_555
C17_6 C18_6 1_555 1_555
C18_6 C19_6 1_555 1_555
C19_6 H9_6 1_555 1_555
C20_6 C19_6 1_555 1_555
H10_6 C20_6 1_555 1_555
C21_6 C20_6 1_555 1_555
C22_6 C21_6 1_555 1_555
H11_6 C22_6 1_555 1_555
C23_6 C18_6 1_555 1_555
H12_6 C23_6 1_555 1_555
C24_6 C9_6 1_555 1_555
C25_6 C11_6 1_555 1_555
H13_6 C25_6 1_555 1_555
C26_6 C12_6 1_555 1_555
H14_6 C26_6 1_555 1_555
C27_6 C15_6 1_555 1_555
H15_6 C27_6 1_555 1_555
O13_5 C16_6 1_555 1_555
C1_6 O8_5 1_555 1_555
C6_6 C7_6 1_555 1_555
C17_6 O10_5 1_555 1_555
C21_6 C24_6 1_555 1_555
C22_6 C23_6 1_555 1_555
C24_6 C25_6 1_555 1_555
C26_6 C27_6 1_555 1_555
O4_12 H16_4 1_555 1_555
O4_11 H16_5 1_555 1_555
O4_12 H17_5 1_555 1_555
O4 H16_6 1_555 1_555
O4_4 H17_6 1_555 1_555
O4_6 H17_7 1_555 1_555
O4_7 H16_7 1_555 1_555
O4_8 H17_8 1_555 1_555
O4_9 H16_8 1_555 1_555

#END
