
###############################################################################
#
# This file contains modified crystal structure data generated from the
# MOF subset of the Cambridge Structural Database (CSD) v543 
# hosted by the Cambridge Crystallographic Data Centre (CCDC).
#
# This work is licensed under the Creative Commons
# Attribution-NonCommercial-ShareAlike 4.0 International License.
# To view a copy of this license, visit
# http://creativecommons.org/licenses/by-nc-sa/4.0/
# or send a letter to
# Creative Commons, PO Box 1866, Mountain View, CA 94042, USA.
#
# CIF created using the CSD Python API on 29 September 2022
# The structure has been converted into the P1 space group
# The structure has a 3D framework
# The original CSD entry QAMXAF is in the triclinic crystal system
# The framework has been calculated to contain at least 10.0% void space
# The void calculation uses a probe of radius 1.32A, grid spacing 0.4
#
###############################################################################

data_QAMXAF
_chemical_formula_moiety         '(C34 H24 Co3 N10 O7)n'
_symmetry_cell_setting           triclinic
_symmetry_space_group_name_H-M   'P 1'
_symmetry_Int_Tables_number      1
_space_group_name_Hall           'P 1'
loop_
_symmetry_equiv_pos_site_id
_symmetry_equiv_pos_as_xyz
1 x,y,z
_cell_length_a                   8.7880(13)
_cell_length_b                   10.9939(16)
_cell_length_c                   11.0850(17)
_cell_angle_alpha                76.825(2)
_cell_angle_beta                 77.100(2)
_cell_angle_gamma                67.533(2)
_cell_volume                     952.538
loop_
_atom_site_label
_atom_site_type_symbol
_atom_site_fract_x
_atom_site_fract_y
_atom_site_fract_z
Co2 Co 0.5000 0.0000 -0.0000
O8 O 0.5326(2) 0.16826(19) 0.0345(2)
O14 O 0.3212(3) 0.0033(2) 0.16045(19)
Co2_2 Co 0.5000 -0.0000 1.0000
N1 N 0.3261(3) 0.1303(2) 0.8747(2)
C1 C 0.2202(4) 0.1742(3) 0.6817(3)
H2 H 0.2323 0.1503 0.6040
C2 C 0.3360(4) 0.1019(3) 0.7618(3)
H3 H 0.4257 0.0294 0.7354
C3 C 0.1963(4) 0.2363(3) 0.9094(3)
H4 H 0.1880 0.2589 0.9872
C4 C 0.0751(4) 0.3133(3) 0.8368(3)
C5 C 0.0860(4) 0.2828(3) 0.7194(3)
Co2_3 Co 0.5000 1.0000 -0.0000
N7 N 0.6739(3) 0.8697(2) 0.1253(2)
Co2_4 Co 0.5000 1.0000 1.0000
O7 O 0.4674(2) 0.83174(19) 0.9655(2)
O13 O 0.6788(3) 0.9967(2) 0.83955(19)
Co1 Co 0.5000 0.5000 -0.0000
N2 N 0.6139(3) 0.4990(2) 0.1567(2)
N3 N 0.8342(3) 0.4705(3) 0.6737(2)
N4 N 0.7475(3) 0.5181(3) 0.5761(2)
H1 H 0.664(5) 0.589(4) 0.579(3)
N5 N 0.9575(3) 0.3426(2) 0.5225(2)
H5 H 0.9867 0.3851 0.8657
C6 C 0.9585(4) 0.3647(3) 0.6381(3)
C7 C 0.8212(4) 0.4417(3) 0.4868(3)
C8 C 0.7537(4) 0.4650(3) 0.3706(3)
C9 C 0.6007(4) 0.5632(3) 0.3520(3)
H6 H 0.5423 0.6193 0.4111
C10 C 0.5362(4) 0.5767(3) 0.2452(3)
H7 H 0.4337 0.6430 0.2340
C11 C 0.7658(4) 0.4101(3) 0.1722(3)
H8 H 0.8255 0.3600 0.1087
C12 C 0.8386(4) 0.3888(3) 0.2763(3)
H9 H 0.9432 0.3241 0.2835
C16 C 0.0894(3) 0.9903(3) 0.0944(3)
C17 C 0.1795(4) 0.9948(3) 0.1930(3)
O2 O 0.3308(2) 0.68905(18) 0.02052(19)
O3 O 0.1040(3) 0.9983(3) 0.3022(2)
O5 O 0.3224(3) 0.4190(2) 0.1082(2)
H11 H 0.358(5) 0.337(4) 0.111(4)
H12 H 0.274(5) 0.436(4) 0.177(4)
Co1_2 Co 0.5000 0.5000 1.0000
C13 C 0.3365(3) 0.8048(3) 0.9958(2)
C14 C 0.1653(3) 0.9126(3) 0.9987(2)
C15 C 0.0755(3) 0.9249(3) 0.9060(3)
H10 H 0.1273 0.8747 0.8415
N8 N 0.3861(3) 0.5010(2) 0.8433(2)
N9 N 0.1658(3) 0.5295(3) 0.3263(2)
N10 N 0.2525(3) 0.4819(3) 0.4239(2)
H13 H 0.336(5) 0.411(4) 0.421(3)
N11 N 0.0425(3) 0.6574(2) 0.4775(2)
H17 H 0.0133 0.6149 0.1343
C23 C 0.0415(4) 0.6353(3) 0.3619(3)
C24 C 0.1788(4) 0.5583(3) 0.5132(3)
C25 C 0.2463(4) 0.5350(3) 0.6294(3)
C26 C 0.3993(4) 0.4368(3) 0.6480(3)
H18 H 0.4577 0.3807 0.5889
C27 C 0.4638(4) 0.4233(3) 0.7548(3)
H19 H 0.5663 0.3570 0.7660
C28 C 0.2342(4) 0.5899(3) 0.8278(3)
H20 H 0.1745 0.6400 0.8913
C29 C 0.1614(4) 0.6112(3) 0.7237(3)
H21 H 0.0568 0.6759 0.7165
O10 O 0.6692(2) 0.31095(18) 0.97948(19)
O15 O 0.6776(3) 0.5810(2) 0.8918(2)
H23 H 0.642(5) 0.663(4) 0.889(4)
H24 H 0.726(5) 0.564(4) 0.823(4)
C30 C 0.6635(3) 0.1952(3) 0.0042(2)
C31 C 0.8347(3) 0.0874(3) 0.0013(2)
C32 C 0.9245(3) 0.0751(3) 0.0940(3)
H22 H 0.8727 0.1253 0.1585
C33 C 0.9106(3) 0.0097(3) 0.9056(3)
C34 C 0.8205(4) 0.0052(3) 0.8070(3)
O11 O 0.8960(3) 0.0017(3) 0.6978(2)
C18 C 0.7798(4) 0.8258(3) 0.3183(3)
H14 H 0.7677 0.8497 0.3960
C19 C 0.6640(4) 0.8981(3) 0.2382(3)
H15 H 0.5743 0.9706 0.2646
C20 C 0.8037(4) 0.7637(3) 0.0906(3)
H16 H 0.8120 0.7411 0.0128
C21 C 0.9249(4) 0.6867(3) 0.1632(3)
C22 C 0.9140(4) 0.7172(3) 0.2806(3)
loop_
_geom_bond_atom_site_label_1
_geom_bond_atom_site_label_2
_geom_bond_site_symmetry_1
_geom_bond_site_symmetry_2
O8 Co2 1_555 1_555
O14 Co2 1_555 1_555
Co2_2 N1 1_555 1_555
N1 C2 1_555 1_555
C1 H2 1_555 1_555
C2 C1 1_555 1_555
H3 C2 1_555 1_555
C3 N1 1_555 1_555
H4 C3 1_555 1_555
C4 C3 1_555 1_555
C5 C1 1_555 1_555
C4 C5 1_555 1_555
N7 Co2_3 1_555 1_555
O7 Co2_4 1_555 1_555
O13 Co2_4 1_555 1_555
Co1 N2 1_555 1_555
N2 C10 1_555 1_555
N3 N4 1_555 1_555
N4 H1 1_555 1_555
N5 C6 1_555 1_555
C6 N3 1_555 1_555
C7 N4 1_555 1_555
C8 C7 1_555 1_555
C9 C8 1_555 1_555
H6 C9 1_555 1_555
C10 C9 1_555 1_555
H7 C10 1_555 1_555
C11 N2 1_555 1_555
H8 C11 1_555 1_555
C12 C8 1_555 1_555
H9 C12 1_555 1_555
C17 C16 1_555 1_555
O2 Co1 1_555 1_555
O3 C17 1_555 1_555
O5 Co1 1_555 1_555
H11 O5 1_555 1_555
H12 O5 1_555 1_555
N5 C7 1_555 1_555
C11 C12 1_555 1_555
C13 C14 1_555 1_555
C14 C15 1_555 1_555
C15 H10 1_555 1_555
O7 C13 1_555 1_555
N8 Co1_2 1_555 1_555
N9 N10 1_555 1_555
N10 H13 1_555 1_555
N11 C23 1_555 1_555
C23 N9 1_555 1_555
C24 N10 1_555 1_555
C25 C24 1_555 1_555
C26 C25 1_555 1_555
H18 C26 1_555 1_555
C27 N8 1_555 1_555
H19 C27 1_555 1_555
C28 N8 1_555 1_555
H20 C28 1_555 1_555
C29 C25 1_555 1_555
H21 C29 1_555 1_555
O10 Co1_2 1_555 1_555
O15 Co1_2 1_555 1_555
H23 O15 1_555 1_555
H24 O15 1_555 1_555
N11 C24 1_555 1_555
C26 C27 1_555 1_555
C28 C29 1_555 1_555
C30 C31 1_555 1_555
C31 C32 1_555 1_555
H22 C32 1_555 1_555
O8 C30 1_555 1_555
C34 C33 1_555 1_555
O11 C34 1_555 1_555
N7 C19 1_555 1_555
C18 H14 1_555 1_555
C19 C18 1_555 1_555
H15 C19 1_555 1_555
C20 N7 1_555 1_555
H16 C20 1_555 1_555
C21 C20 1_555 1_555
C22 C18 1_555 1_555
C21 C22 1_555 1_555

#END
