
###############################################################################
#
# This file contains modified crystal structure data generated from the
# MOF subset of the Cambridge Structural Database (CSD) v543 
# hosted by the Cambridge Crystallographic Data Centre (CCDC).
#
# This work is licensed under the Creative Commons
# Attribution-NonCommercial-ShareAlike 4.0 International License.
# To view a copy of this license, visit
# http://creativecommons.org/licenses/by-nc-sa/4.0/
# or send a letter to
# Creative Commons, PO Box 1866, Mountain View, CA 94042, USA.
#
# CIF created using the CSD Python API on 29 September 2022
# The structure has been converted into the P1 space group
# The structure has a 3D framework
# The original CSD entry QAMZEN is in the monoclinic crystal system
# The framework has been calculated to contain at least 10.0% void space
# The void calculation uses a probe of radius 1.32A, grid spacing 0.4
#
###############################################################################

data_QAMZEN
_chemical_formula_moiety         '(C208 H136 Co10 N8 O52)n'
_symmetry_cell_setting           triclinic
_symmetry_space_group_name_H-M   'P 1'
_symmetry_Int_Tables_number      1
_space_group_name_Hall           'P 1'
loop_
_symmetry_equiv_pos_site_id
_symmetry_equiv_pos_as_xyz
1 x,y,z
_cell_length_a                   13.8779(3)
_cell_length_b                   18.0470(4)
_cell_length_c                   25.8568(5)
_cell_angle_alpha                90
_cell_angle_beta                 91.577(2)
_cell_angle_gamma                90
_cell_volume                     6473.5
loop_
_atom_site_label
_atom_site_type_symbol
_atom_site_fract_x
_atom_site_fract_y
_atom_site_fract_z
Co8 Co 0.01981(6) 0.94867(5) 0.64130(3)
N3 N 0.4882(4) 0.0460(3) 0.1274(2)
Co1 Co 0.49982(6) 0.74501(4) 0.13504(3)
Co2 Co 0.51981(6) 0.55133(5) 0.14130(3)
Co3 Co 0.46959(6) 0.93081(5) 0.12502(3)
O1 O 0.9524(3) 0.9356(2) 0.57346(16)
O2 O 0.4454(3) 0.5777(2) 0.20176(15)
O3 O 0.5287(3) 0.9175(2) 0.19712(15)
O4 O 0.9092(3) 0.8183(2) 0.58857(15)
O5 O 0.4456(3) 0.7032(2) 0.20174(15)
O6 O 0.0916(3) 0.5897(2) 0.58652(17)
O7 O 0.3904(3) 0.8266(2) 0.13238(16)
O8 O 0.5888(3) 0.8048(2) 0.18358(16)
O9 O 0.3289(3) 0.9325(2) 0.15540(19)
O10 O 0.0602(3) 0.7097(2) 0.57037(15)
N1 N 0.5040(4) 0.4371(3) 0.14129(19)
C1 C 0.5764(4) 0.8604(3) 0.2109(2)
C2 C 0.3923(4) 0.6416(3) 0.2755(2)
C3 C 0.6045(5) 0.9195(3) 0.2976(2)
H1 H 0.5653(5) 0.9599(3) 0.2865(2)
C4 C 0.4310(4) 0.6416(3) 0.2221(2)
C5 C 0.3208(4) 0.8632(3) 0.1496(2)
C6 C 0.8177(5) 0.8057(3) 0.4928(2)
H2 H 0.8261(5) 0.7621(3) 0.5130(2)
C7 C 0.8541(4) 0.8729(3) 0.5112(2)
C8 C 0.3195(5) 0.6444(3) 0.3755(2)
C10 C 0.1029(4) 0.6504(3) 0.5621(2)
C11 C 0.7697(5) 0.8018(3) 0.4454(2)
H4 H 0.7463(5) 0.7553(3) 0.4332(2)
C12 C 0.9098(4) 0.8748(3) 0.5616(2)
C13 C 0.5291(5) 0.3960(3) 0.1828(2)
H5 H 0.5492(5) 0.4206(3) 0.2137(2)
C14 C 0.7056(4) 0.8624(3) 0.3640(2)
C15 C 0.4089(5) 0.7027(3) 0.3076(2)
H6 H 0.4438(5) 0.7440(3) 0.2952(2)
C16 C 0.4615(5) 0.0817(3) 0.1702(2)
H7 H 0.4391(5) 0.0534(3) 0.1984(2)
C18 C 0.6187(4) 0.8603(3) 0.2644(2)
C19 C 0.7549(5) 0.8654(3) 0.4152(2)
C20 C 0.2757(5) 0.6464(3) 0.4267(2)
C21 C 0.6466(5) 0.9205(3) 0.3466(2)
H8 H 0.6353(5) 0.9613(3) 0.3689(2)
C22 C 0.4762(5) 0.3255(3) 0.0933(2)
H9 H 0.4596(5) 0.3024(3) 0.0613(2)
C23 C 0.8399(5) 0.9373(3) 0.4816(2)
H10 H 0.8638(5) 0.9835(3) 0.4939(2)
C24 C 0.3750(5) 0.7037(3) 0.3573(2)
H11 H 0.3892(5) 0.7446(3) 0.3793(2)
C25 C 0.5269(5) 0.3195(3) 0.1824(2)
H12 H 0.5434(5) 0.2922(3) 0.2128(2)
C26 C 0.3400(4) 0.5818(3) 0.2936(2)
H13 H 0.3293(4) 0.5397(3) 0.2721(2)
C27 C 0.7181(5) 0.8019(3) 0.3307(2)
H14 H 0.7555(5) 0.7606(3) 0.3422(2)
C28 C 0.5002(4) 0.2827(3) 0.1368(2)
C29 C 0.2107(6) 0.5835(3) 0.5007(3)
H15 H 0.2027(6) 0.5393(3) 0.5200(3)
C31 C 0.3037(5) 0.5834(3) 0.3428(2)
H17 H 0.2674(5) 0.5424(3) 0.3546(2)
C32 C 0.1710(4) 0.6494(3) 0.5182(2)
C33 C 0.4653(5) 0.1584(3) 0.1749(3)
H18 H 0.4467(5) 0.1819(3) 0.2060(3)
C34 C 0.1911(5) 0.7144(3) 0.4922(2)
H19 H 0.1689(5) 0.7603(3) 0.5054(2)
C35 C 0.4767(4) 0.4021(3) 0.0974(2)
H20 H 0.4572(4) 0.4308(3) 0.0682(2)
C36 C 0.6770(5) 0.8015(3) 0.2814(2)
H21 H 0.6884(5) 0.7609(3) 0.2590(2)
C37 C 0.1282(4) 0.7172(3) 0.1644(3)
H22 H 0.1224(4) 0.6647(3) 0.1643(3)
C38 C 0.2429(5) 0.7135(3) 0.4473(2)
H23 H 0.2563(5) 0.7588(3) 0.4302(2)
C39 C 0.2278(4) 0.8259(3) 0.1604(2)
C41 C 0.0578(5) 0.8380(3) 0.1735(3)
H24 H 0.0034(5) 0.8688(3) 0.1788(3)
C42 C 0.5251(5) 0.1632(3) 0.0897(3)
H25 H 0.5480(5) 0.1903(3) 0.0610(3)
C45 C 0.0461(4) 0.7605(3) 0.1701(3)
C46 C 0.2617(6) 0.5817(4) 0.4554(3)
H28 H 0.2873(6) 0.5361(4) 0.4437(3)
C47 C 0.7908(5) 0.9332(3) 0.4345(2)
H29 H 0.7811(5) 0.9770(3) 0.4147(2)
C48 C 0.1475(5) 0.8691(4) 0.1693(3)
H30 H 0.1546(5) 0.9212(4) 0.1725(3)
C49 C 0.2189(4) 0.7492(3) 0.1589(2)
H31 H 0.2739(4) 0.7190(3) 0.1541(2)
C50 C 0.5196(5) 0.0866(3) 0.0878(3)
H32 H 0.5387(5) 0.0619(3) 0.0573(3)
C51 C 0.4967(5) 0.1997(3) 0.1339(2)
O13 O 0.4025(4) 0.9389(4) 0.0487(2)
H33 H 0.354(4) 0.909(3) 0.0463(11)
H34 H 0.442(2) 0.923(4) 0.0258(4)
Co6 Co 0.99982(6) 0.75499(4) 0.63504(3)
O14 O 0.4524(3) 0.5644(2) 0.07346(16)
O15 O 0.4092(3) 0.6817(2) 0.08857(15)
O16 O 0.5916(3) 0.9103(2) 0.08652(17)
O17 O 0.5602(3) 0.7903(2) 0.07037(15)
O18 O 0.6005(3) 0.6574(2) 0.13248(16)
O19 O 0.6624(3) 0.5553(2) 0.16336(17)
C9 C 0.8437(4) 0.6224(3) 0.1824(2)
H3 H 0.8345(4) 0.5737(3) 0.1952(2)
C17 C 0.7661(4) 0.6601(3) 0.1596(2)
C30 C 0.9342(4) 0.6546(3) 0.1869(3)
H16 H 0.9863(4) 0.6275(3) 0.2023(3)
C40 C 0.9496(4) 0.7267(3) 0.1691(2)
C43 C 0.7797(4) 0.7324(3) 0.1419(2)
H26 H 0.7273(4) 0.7593(3) 0.1267(2)
C44 C 0.8704(4) 0.7648(3) 0.1467(3)
H27 H 0.8792(4) 0.8139(3) 0.1345(3)
C52 C 0.6720(4) 0.6234(3) 0.1519(2)
Co10 Co 0.96959(6) 0.56919(5) 0.62502(3)
H2_2 H 0.3261(5) 0.7379(3) 0.0130(2)
C7_2 C 0.3541(4) 0.6271(3) 0.0112(2)
C12_2 C 0.4098(4) 0.6252(3) 0.0616(2)
O3_2 O 0.0287(3) 0.5825(2) 0.69712(15)
O8_2 O 0.0888(3) 0.6952(2) 0.68358(16)
C1_2 C 0.0764(4) 0.6396(3) 0.7109(2)
C3_2 C 0.1045(5) 0.5805(3) 0.7976(2)
H1_2 H 0.0653(5) 0.5401(3) 0.7865(2)
C6_2 C 0.3177(5) 0.6943(3) 0.9928(2)
C11_2 C 0.2697(5) 0.6982(3) 0.9454(2)
H4_2 H 0.2463(5) 0.7447(3) 0.9332(2)
C14_2 C 0.2056(4) 0.6376(3) 0.8640(2)
C18_2 C 0.1187(4) 0.6397(3) 0.7644(2)
C19_2 C 0.2549(5) 0.6346(3) 0.9152(2)
C21_2 C 0.1466(5) 0.5795(3) 0.8466(2)
H8_2 H 0.1353(5) 0.5387(3) 0.8689(2)
C23_2 C 0.3399(5) 0.5627(3) 0.9816(2)
H10_2 H 0.3638(5) 0.5165(3) 0.9939(2)
C27_2 C 0.2181(5) 0.6981(3) 0.8307(2)
H14_2 H 0.2555(5) 0.7394(3) 0.8422(2)
C36_2 C 0.1770(5) 0.6985(3) 0.7814(2)
H21_2 H 0.1884(5) 0.7391(3) 0.7590(2)
C47_2 C 0.2908(5) 0.5668(3) 0.9345(2)
H29_2 H 0.2811(5) 0.5230(3) 0.9147(2)
O18_2 O 0.1005(3) 0.8426(2) 0.63248(16)
O19_2 O 0.1624(3) 0.9447(2) 0.66336(17)
N2 N 0.9882(4) 0.4540(3) 0.6274(2)
C16_2 C 0.9615(5) 0.4183(3) 0.6702(2)
H7_2 H 0.9391(5) 0.4466(3) 0.6984(2)
C22_2 C 0.9762(5) 0.1745(3) 0.5933(2)
H9_2 H 0.9596(5) 0.1976(3) 0.5613(2)
C33_2 C 0.9653(5) 0.3416(3) 0.6749(3)
H18_2 H 0.9467(5) 0.3181(3) 0.7060(3)
C35_2 C 0.9767(4) 0.0979(3) 0.5974(2)
H20_2 H 0.9572(4) 0.0692(3) 0.5682(2)
C51_2 C 0.9967(5) 0.3003(3) 0.6339(2)
C10_2 C 0.6029(4) 0.8496(3) 0.0621(2)
C29_2 C 0.7107(6) 0.9165(3) 0.0007(3)
H15_2 H 0.7027(6) 0.9607(3) 0.0200(3)
C32_2 C 0.6710(4) 0.8506(3) 0.0182(2)
H19_2 H 0.6689(5) 0.7397(3) 0.0054(2)
O2_2 O 0.9454(3) 0.9223(2) 0.70176(15)
O5_2 O 0.9456(3) 0.7968(2) 0.70174(15)
O7_2 O 0.8904(3) 0.6734(2) 0.63238(16)
O9_2 O 0.8289(3) 0.5675(2) 0.65540(19)
C2_2 C 0.8923(4) 0.8584(3) 0.7755(2)
C4_2 C 0.9310(4) 0.8584(3) 0.7221(2)
C5_2 C 0.8208(4) 0.6368(3) 0.6496(2)
C8_2 C 0.8195(5) 0.8556(3) 0.8755(2)
C9_2 C 0.3437(4) 0.8776(3) 0.6824(2)
H3_2 H 0.3345(4) 0.9263(3) 0.6952(2)
C15_2 C 0.9089(5) 0.7973(3) 0.8076(2)
H6_2 H 0.9438(5) 0.7560(3) 0.7952(2)
C17_2 C 0.2661(4) 0.8399(3) 0.6596(2)
C20_2 C 0.7757(5) 0.8536(3) 0.9267(2)
C24_2 C 0.8750(5) 0.7963(3) 0.8573(2)
H11_2 H 0.8892(5) 0.7554(3) 0.8793(2)
C26_2 C 0.8400(4) 0.9182(3) 0.7936(2)
H13_2 H 0.8293(4) 0.9603(3) 0.7721(2)
C30_2 C 0.4342(4) 0.8454(3) 0.6869(3)
H16_2 H 0.4863(4) 0.8725(3) 0.7023(3)
C31_2 C 0.8037(5) 0.9166(3) 0.8428(2)
H17_2 H 0.7674(5) 0.9576(3) 0.8546(2)
C34_2 C 0.6911(5) 0.7856(3) 0.9922(2)
C37_2 C 0.6282(4) 0.7828(3) 0.6644(3)
H22_2 H 0.6224(4) 0.8353(3) 0.6643(3)
C38_2 C 0.7429(5) 0.7865(3) 0.9473(2)
H23_2 H 0.7563(5) 0.7412(3) 0.9302(2)
C39_2 C 0.7278(4) 0.6741(3) 0.6604(2)
C40_2 C 0.4496(4) 0.7733(3) 0.6691(2)
C41_2 C 0.5578(5) 0.6620(3) 0.6735(3)
H24_2 H 0.5034(5) 0.6312(3) 0.6788(3)
C43_2 C 0.2797(4) 0.7676(3) 0.6419(2)
H26_2 H 0.2273(4) 0.7407(3) 0.6267(2)
C44_2 C 0.3704(4) 0.7352(3) 0.6467(3)
H27_2 H 0.3792(4) 0.6861(3) 0.6345(3)
C45_2 C 0.5461(4) 0.7395(3) 0.6701(3)
C46_2 C 0.7617(6) 0.9183(4) 0.9554(3)
H28_2 H 0.7873(6) 0.9639(4) 0.9437(3)
C48_2 C 0.6475(5) 0.6309(4) 0.6693(3)
H30_2 H 0.6546(5) 0.5788(4) 0.6725(3)
C49_2 C 0.7189(4) 0.7508(3) 0.6589(2)
H31_2 H 0.7739(4) 0.7810(3) 0.6541(2)
O13_2 O 0.9025(4) 0.5611(4) 0.5487(2)
H33_2 H 0.854(4) 0.591(3) 0.5463(11)
H34_2 H 0.942(2) 0.577(4) 0.5258(4)
C52_2 C 0.1720(4) 0.8766(3) 0.6519(2)
Co4 Co 0.00018(6) 0.24501(4) 0.36496(3)
Co3_2 Co 0.03041(6) 0.43081(5) 0.37498(3)
O2_3 O 0.0546(3) 0.0777(2) 0.29824(15)
O5_3 O 0.0544(3) 0.2032(2) 0.29826(15)
O7_3 O 0.1096(3) 0.3266(2) 0.36762(16)
O9_3 O 0.1711(3) 0.4325(2) 0.34460(19)
C2_3 C 0.1077(4) 0.1416(3) 0.2245(2)
C4_3 C 0.0690(4) 0.1416(3) 0.2779(2)
C5_3 C 0.1792(4) 0.3632(3) 0.3504(2)
C8_3 C 0.1805(5) 0.1444(3) 0.1245(2)
C9_3 C 0.6563(4) 0.1224(3) 0.3176(2)
H3_3 H 0.6655(4) 0.0737(3) 0.3048(2)
C15_3 C 0.0911(5) 0.2027(3) 0.1924(2)
H6_3 H 0.0562(5) 0.2440(3) 0.2048(2)
C17_3 C 0.7339(4) 0.1601(3) 0.3404(2)
C20_3 C 0.2243(5) 0.1464(3) 0.0733(2)
C24_3 C 0.1250(5) 0.2037(3) 0.1427(2)
H11_3 H 0.1108(5) 0.2446(3) 0.1207(2)
C26_3 C 0.1600(4) 0.0818(3) 0.2064(2)
H13_3 H 0.1707(4) 0.0397(3) 0.2279(2)
C30_3 C 0.5658(4) 0.1546(3) 0.3131(3)
H16_3 H 0.5137(4) 0.1275(3) 0.2977(3)
C31_3 C 0.1963(5) 0.0834(3) 0.1572(2)
H17_3 H 0.2326(5) 0.0424(3) 0.1454(2)
C34_3 C 0.3089(5) 0.2144(3) 0.0078(2)
C37_3 C 0.3718(4) 0.2172(3) 0.3356(3)
H22_3 H 0.3776(4) 0.1647(3) 0.3357(3)
C38_3 C 0.2571(5) 0.2135(3) 0.0527(2)
H23_3 H 0.2437(5) 0.2588(3) 0.0698(2)
C39_3 C 0.2722(4) 0.3259(3) 0.3396(2)
C40_3 C 0.5504(4) 0.2267(3) 0.3309(2)
C41_3 C 0.4422(5) 0.3380(3) 0.3265(3)
H24_3 H 0.4966(5) 0.3688(3) 0.3212(3)
C43_3 C 0.7203(4) 0.2324(3) 0.3581(2)
H26_3 H 0.7727(4) 0.2593(3) 0.3733(2)
C44_3 C 0.6296(4) 0.2648(3) 0.3533(3)
H27_3 H 0.6208(4) 0.3139(3) 0.3655(3)
C45_3 C 0.4539(4) 0.2605(3) 0.3299(3)
C46_3 C 0.2383(6) 0.0817(4) 0.0446(3)
H28_3 H 0.2127(6) 0.0361(4) 0.0563(3)
C48_3 C 0.3525(5) 0.3691(4) 0.3307(3)
H30_3 H 0.3454(5) 0.4212(4) 0.3275(3)
C49_3 C 0.2811(4) 0.2492(3) 0.3411(2)
H31_3 H 0.2261(4) 0.2190(3) 0.3459(2)
O11 O 0.8995(3) 0.1574(2) 0.36752(16)
O12 O 0.8376(3) 0.0553(2) 0.33664(17)
O13_3 O 0.0975(4) 0.4389(4) 0.4513(2)
H33_3 H 0.146(4) 0.409(3) 0.4537(11)
H34_3 H 0.058(2) 0.423(4) 0.4742(4)
C52_3 C 0.8280(4) 0.1234(3) 0.3481(2)
Co7 Co 0.98019(6) 0.05133(5) 0.35870(3)
O14_2 O 0.0476(3) 0.0644(2) 0.42654(16)
O15_2 O 0.0908(3) 0.1817(2) 0.41143(15)
N3_2 N 0.0118(4) 0.5460(3) 0.3726(2)
O6_2 O 0.4084(3) 0.0897(2) 0.91348(17)
O10_2 O 0.4398(3) 0.2097(2) 0.92963(15)
C10_3 C 0.3971(4) 0.1504(3) 0.9379(2)
C29_3 C 0.2893(6) 0.0835(3) 0.9993(3)
H15_3 H 0.2973(6) 0.0393(3) 0.9800(3)
C32_3 C 0.3290(4) 0.1494(3) 0.9818(2)
H19_3 H 0.3311(5) 0.2603(3) 0.9946(2)
Co5 Co 0.50018(6) 0.25499(4) 0.86496(3)
Co10_2 Co 0.53041(6) 0.06919(5) 0.87498(3)
C16_3 C 0.0385(5) 0.5817(3) 0.3298(2)
H7_3 H 0.0609(5) 0.5534(3) 0.3016(2)
C22_3 C 0.0238(5) 0.8255(3) 0.4067(2)
H9_3 H 0.0404(5) 0.8024(3) 0.4387(2)
C33_3 C 0.0347(5) 0.6584(3) 0.3251(3)
H18_3 H 0.0533(5) 0.6819(3) 0.2940(3)
C35_3 C 0.0233(4) 0.9021(3) 0.4026(2)
H20_3 H 0.0428(4) 0.9308(3) 0.4318(2)
C51_3 C 0.0033(5) 0.6997(3) 0.3661(2)
O3_3 O 0.9713(3) 0.4175(2) 0.30288(15)
O8_3 O 0.9112(3) 0.3048(2) 0.31642(16)
C1_3 C 0.9236(4) 0.3604(3) 0.2891(2)
C3_3 C 0.8955(5) 0.4195(3) 0.2024(2)
H1_3 H 0.9347(5) 0.4599(3) 0.2135(2)
C6_3 C 0.6823(5) 0.3057(3) 0.0072(2)
C11_3 C 0.7303(5) 0.3018(3) 0.0546(2)
H4_3 H 0.7537(5) 0.2553(3) 0.0668(2)
C14_3 C 0.7944(4) 0.3624(3) 0.1360(2)
C18_3 C 0.8813(4) 0.3603(3) 0.2356(2)
C19_3 C 0.7451(5) 0.3654(3) 0.0848(2)
C21_3 C 0.8534(5) 0.4205(3) 0.1534(2)
H8_3 H 0.8647(5) 0.4613(3) 0.1311(2)
C23_3 C 0.6601(5) 0.4373(3) 0.0184(2)
H10_3 H 0.6362(5) 0.4835(3) 0.0061(2)
C27_3 C 0.7819(5) 0.3019(3) 0.1693(2)
H14_3 H 0.7445(5) 0.2606(3) 0.1578(2)
C36_3 C 0.8230(5) 0.3015(3) 0.2186(2)
H21_3 H 0.8116(5) 0.2609(3) 0.2410(2)
C47_3 C 0.7092(5) 0.4332(3) 0.0655(2)
H29_3 H 0.7189(5) 0.4770(3) 0.0853(2)
O16_2 O 0.9084(3) 0.4103(2) 0.41348(17)
O17_2 O 0.9398(3) 0.2903(2) 0.42963(15)
O1_2 O 0.5476(3) 0.4356(2) 0.92654(16)
O4_2 O 0.5908(3) 0.3183(2) 0.91143(15)
H2_3 H 0.6739(5) 0.2621(3) 0.9870(2)
C7_3 C 0.6459(4) 0.3729(3) 0.9888(2)
C12_3 C 0.5902(4) 0.3748(3) 0.9384(2)
Co8_2 Co 0.48019(6) 0.44867(5) 0.85870(3)
C9_4 C 0.1563(4) 0.3776(3) 0.8176(2)
H3_4 H 0.1655(4) 0.4263(3) 0.8048(2)
C17_4 C 0.2339(4) 0.3399(3) 0.8404(2)
C30_4 C 0.0658(4) 0.3454(3) 0.8131(3)
H16_4 H 0.0137(4) 0.3725(3) 0.7977(3)
C40_4 C 0.0504(4) 0.2733(3) 0.8309(2)
C43_4 C 0.2203(4) 0.2676(3) 0.8581(2)
H26_4 H 0.2727(4) 0.2407(3) 0.8733(2)
C44_4 C 0.1296(4) 0.2352(3) 0.8533(3)
H27_4 H 0.1208(4) 0.1861(3) 0.8655(3)
O11_2 O 0.3995(3) 0.3426(2) 0.86752(16)
O12_2 O 0.3376(3) 0.4447(2) 0.83664(17)
C52_4 C 0.3280(4) 0.3766(3) 0.8481(2)
O2_4 O 0.5546(3) 0.4223(2) 0.79824(15)
O3_4 O 0.4713(3) 0.0825(2) 0.80288(15)
O5_4 O 0.5544(3) 0.2968(2) 0.79826(15)
O7_4 O 0.6096(3) 0.1734(2) 0.86762(16)
O8_4 O 0.4112(3) 0.1952(2) 0.81642(16)
O9_4 O 0.6711(3) 0.0675(2) 0.84460(19)
N1_2 N 0.4960(4) 0.5629(3) 0.85871(19)
C1_4 C 0.4236(4) 0.1396(3) 0.7891(2)
N2_2 N 0.5118(4) 0.9540(3) 0.8726(2)
C2_4 C 0.6077(4) 0.3584(3) 0.7245(2)
C3_4 C 0.3955(5) 0.0805(3) 0.7024(2)
H1_4 H 0.4347(5) 0.0401(3) 0.7135(2)
C4_4 C 0.5690(4) 0.3584(3) 0.7779(2)
C5_4 C 0.6792(4) 0.1368(3) 0.8504(2)
C6_4 C 0.1823(5) 0.1943(3) 0.5072(2)
H2_4 H 0.1739(5) 0.2379(3) 0.4870(2)
C7_4 C 0.1459(4) 0.1271(3) 0.4888(2)
C8_4 C 0.6805(5) 0.3556(3) 0.6245(2)
C10_4 C 0.8971(4) 0.3496(3) 0.4379(2)
C11_4 C 0.2303(5) 0.1982(3) 0.5546(2)
H4_4 H 0.2537(5) 0.2447(3) 0.5668(2)
C12_4 C 0.0902(4) 0.1252(3) 0.4384(2)
C13_2 C 0.4709(5) 0.6040(3) 0.8172(2)
H5_2 H 0.4508(5) 0.5794(3) 0.7863(2)
C14_4 C 0.2944(4) 0.1376(3) 0.6360(2)
C15_4 C 0.5911(5) 0.2973(3) 0.6924(2)
H6_4 H 0.5562(5) 0.2560(3) 0.7048(2)
C16_4 C 0.5385(5) 0.9183(3) 0.8298(2)
H7_4 H 0.5609(5) 0.9466(3) 0.8016(2)
C18_4 C 0.3813(4) 0.1397(3) 0.7356(2)
C19_4 C 0.2451(5) 0.1346(3) 0.5848(2)
C20_4 C 0.7243(5) 0.3536(3) 0.5733(2)
C21_4 C 0.3534(5) 0.0795(3) 0.6534(2)
H8_4 H 0.3647(5) 0.0387(3) 0.6311(2)
C22_4 C 0.5238(5) 0.6745(3) 0.9067(2)
H9_4 H 0.5404(5) 0.6976(3) 0.9387(2)
C23_4 C 0.1601(5) 0.0627(3) 0.5184(2)
H10_4 H 0.1362(5) 0.0165(3) 0.5061(2)
C24_4 C 0.6250(5) 0.2963(3) 0.6427(2)
H11_4 H 0.6108(5) 0.2554(3) 0.6207(2)
C25_2 C 0.4731(5) 0.6805(3) 0.8176(2)
H12_2 H 0.4566(5) 0.7078(3) 0.7872(2)
C26_4 C 0.6600(4) 0.4182(3) 0.7064(2)
H13_4 H 0.6707(4) 0.4603(3) 0.7279(2)
C27_4 C 0.2819(5) 0.1981(3) 0.6693(2)
H14_4 H 0.2445(5) 0.2394(3) 0.6578(2)
C28_2 C 0.4998(4) 0.7173(3) 0.8632(2)
C29_4 C 0.7893(6) 0.4165(3) 0.4993(3)
H15_4 H 0.7973(6) 0.4607(3) 0.4800(3)
C31_4 C 0.6963(5) 0.4166(3) 0.6572(2)
H17_4 H 0.7326(5) 0.4576(3) 0.6454(2)
C32_4 C 0.8290(4) 0.3506(3) 0.4818(2)
C33_4 C 0.5347(5) 0.8416(3) 0.8251(3)
H18_4 H 0.5533(5) 0.8181(3) 0.7940(3)
C34_4 C 0.8089(5) 0.2856(3) 0.5078(2)
H19_4 H 0.8311(5) 0.2397(3) 0.4946(2)
C35_4 C 0.5233(4) 0.5979(3) 0.9026(2)
H20_4 H 0.5428(4) 0.5692(3) 0.9318(2)
C36_4 C 0.3230(5) 0.1985(3) 0.7186(2)
H21_4 H 0.3116(5) 0.2391(3) 0.7410(2)
C37_4 C 0.8718(4) 0.2828(3) 0.8356(3)
H22_4 H 0.8776(4) 0.3353(3) 0.8357(3)
C38_4 C 0.7571(5) 0.2865(3) 0.5527(2)
H23_4 H 0.7437(5) 0.2412(3) 0.5698(2)
C39_4 C 0.7722(4) 0.1741(3) 0.8396(2)
C41_4 C 0.9422(5) 0.1620(3) 0.8265(3)
H24_4 H 0.9966(5) 0.1312(3) 0.8212(3)
C42_2 C 0.4749(5) 0.8368(3) 0.9103(3)
H25_2 H 0.4520(5) 0.8097(3) 0.9390(3)
C45_4 C 0.9539(4) 0.2395(3) 0.8299(3)
C46_4 C 0.7383(6) 0.4183(4) 0.5446(3)
H28_4 H 0.7127(6) 0.4639(4) 0.5563(3)
C47_4 C 0.2092(5) 0.0668(3) 0.5655(2)
H29_4 H 0.2189(5) 0.0230(3) 0.5853(2)
C48_4 C 0.8525(5) 0.1309(4) 0.8307(3)
H30_4 H 0.8454(5) 0.0788(4) 0.8275(3)
C49_4 C 0.7811(4) 0.2508(3) 0.8411(2)
H31_4 H 0.7261(4) 0.2810(3) 0.8459(2)
C50_2 C 0.4804(5) 0.9134(3) 0.9122(3)
H32_2 H 0.4613(5) 0.9381(3) 0.9427(3)
C51_4 C 0.5033(5) 0.8003(3) 0.8661(2)
O13_4 O 0.5975(4) 0.0611(4) 0.9513(2)
H33_4 H 0.646(4) 0.091(3) 0.9537(11)
H34_4 H 0.558(2) 0.077(4) 0.9742(4)
N1_3 N 0.9960(4) 0.9371(3) 0.35871(19)
C13_3 C 0.9709(5) 0.8960(3) 0.3172(2)
H5_3 H 0.9508(5) 0.9206(3) 0.2863(2)
C25_3 C 0.9731(5) 0.8195(3) 0.3176(2)
H12_3 H 0.9566(5) 0.7922(3) 0.2872(2)
C28_3 C 0.9998(4) 0.7827(3) 0.3632(2)
C42_3 C 0.9749(5) 0.6632(3) 0.4103(3)
H25_3 H 0.9520(5) 0.6903(3) 0.4390(3)
C50_3 C 0.9804(5) 0.5866(3) 0.4122(3)
H32_3 H 0.9613(5) 0.5619(3) 0.4427(3)
N1_4 N 0.0040(4) 0.0629(3) 0.64129(19)
C13_4 C 0.0291(5) 0.1040(3) 0.6828(2)
H5_4 H 0.0492(5) 0.0794(3) 0.7137(2)
C25_4 C 0.0269(5) 0.1805(3) 0.6824(2)
H12_4 H 0.0434(5) 0.2078(3) 0.7128(2)
C28_4 C 0.0002(4) 0.2173(3) 0.6368(2)
C42_4 C 0.0251(5) 0.3368(3) 0.5897(3)
H25_4 H 0.0480(5) 0.3097(3) 0.5610(3)
C50_4 C 0.0196(5) 0.4134(3) 0.5878(3)
H32_4 H 0.0387(5) 0.4381(3) 0.5573(3)
loop_
_geom_bond_atom_site_label_1
_geom_bond_atom_site_label_2
_geom_bond_site_symmetry_1
_geom_bond_site_symmetry_2
Co1 O5 1_555 1_555
Co2 O2 1_555 1_555
Co3 O3 1_555 1_555
O1 C12 1_555 1_555
O2 C4 1_555 1_555
O3 C1 1_555 1_555
O4 C12 1_555 1_555
O5 C4 1_555 1_555
O6 C10 1_555 1_555
O7 Co1 1_555 1_555
O8 Co1 1_555 1_555
O9 Co3 1_555 1_555
O10 C10 1_555 1_555
N1 Co2 1_555 1_555
C1 O8 1_555 1_555
N3 C16 1_555 1_555
C2 C4 1_555 1_555
C3 H1 1_555 1_555
C5 O7 1_555 1_555
C6 H2 1_555 1_555
C7 C6 1_555 1_555
C8 C20 1_555 1_555
C10 C32 1_555 1_555
C11 C6 1_555 1_555
H4 C11 1_555 1_555
C12 C7 1_555 1_555
C13 N1 1_555 1_555
H5 C13 1_555 1_555
C14 C19 1_555 1_555
C15 C2 1_555 1_555
H6 C15 1_555 1_555
C16 H7 1_555 1_555
C18 C1 1_555 1_555
C19 C11 1_555 1_555
C20 C38 1_555 1_555
C21 C3 1_555 1_555
H8 C21 1_555 1_555
C22 H9 1_555 1_555
C23 C7 1_555 1_555
H10 C23 1_555 1_555
C24 C8 1_555 1_555
H11 C24 1_555 1_555
C25 C13 1_555 1_555
H12 C25 1_555 1_555
C26 C2 1_555 1_555
H13 C26 1_555 1_555
C27 C14 1_555 1_555
H14 C27 1_555 1_555
C28 C22 1_555 1_555
C29 H15 1_555 1_555
C31 C8 1_555 1_555
H17 C31 1_555 1_555
C32 C29 1_555 1_555
C33 C16 1_555 1_555
H18 C33 1_555 1_555
C34 C32 1_555 1_555
H19 C34 1_555 1_555
C35 N1 1_555 1_555
H20 C35 1_555 1_555
C36 C18 1_555 1_555
H21 C36 1_555 1_555
C37 H22 1_555 1_555
C38 C34 1_555 1_555
H23 C38 1_555 1_555
C39 C5 1_555 1_555
C41 H24 1_555 1_555
C42 H25 1_555 1_555
C45 C37 1_555 1_555
C46 C20 1_555 1_555
H28 C46 1_555 1_555
C47 C19 1_555 1_555
H29 C47 1_555 1_555
C48 C39 1_555 1_555
H30 C48 1_555 1_555
C49 C37 1_555 1_555
H31 C49 1_555 1_555
C50 N3 1_555 1_555
H32 C50 1_555 1_555
C51 C28 1_555 1_555
O13 Co3 1_555 1_555
H33 O13 1_555 1_555
H34 O13 1_555 1_555
Co6 O4 1_555 1_555
O14 Co2 1_555 1_555
O15 Co1 1_555 1_555
O16 Co3 1_555 1_555
O17 Co1 1_555 1_555
O18 Co1 1_555 1_555
O19 Co2 1_555 1_555
Co2 O18 1_555 1_555
Co3 O7 1_555 1_555
O9 C5 1_555 1_555
C3 C18 1_555 1_555
C14 C21 1_555 1_555
C15 C24 1_555 1_555
C22 C35 1_555 1_555
C23 C47 1_555 1_555
C25 C28 1_555 1_555
C26 C31 1_555 1_555
C27 C36 1_555 1_555
C29 C46 1_555 1_555
C33 C51 1_555 1_555
C39 C49 1_555 1_555
C41 C45 1_555 1_555
C41 C48 1_555 1_555
C42 C50 1_555 1_555
C42 C51 1_555 1_555
C9 H3 1_555 1_555
C17 C9 1_555 1_555
C30 C9 1_555 1_555
H16 C30 1_555 1_555
C40 C30 1_555 1_555
C43 C17 1_555 1_555
H26 C43 1_555 1_555
C44 C40 1_555 1_555
H27 C44 1_555 1_555
O18 C52 1_555 1_555
O19 C52 1_555 1_555
C52 C17 1_555 1_555
C43 C44 1_555 1_555
O14 C12_2 1_555 1_555
O15 C12_2 1_555 1_555
C12_2 C7_2 1_555 1_555
O3_2 C1_2 1_555 1_555
C1_2 O8_2 1_555 1_555
C3_2 H1_2 1_555 1_555
C11_2 C6_2 1_555 1_555
H4_2 C11_2 1_555 1_555
C14_2 C19_2 1_555 1_555
C18_2 C1_2 1_555 1_555
C19_2 C11_2 1_555 1_555
C21_2 C3_2 1_555 1_555
H8_2 C21_2 1_555 1_555
H10_2 C23_2 1_555 1_555
C27_2 C14_2 1_555 1_555
H14_2 C27_2 1_555 1_555
C36_2 C18_2 1_555 1_555
H21_2 C36_2 1_555 1_555
C47_2 C19_2 1_555 1_555
H29_2 C47_2 1_555 1_555
O19_2 Co8 1_555 1_555
Co8 O18_2 1_555 1_555
C3_2 C18_2 1_555 1_555
C14_2 C21_2 1_555 1_555
C23_2 C47_2 1_555 1_555
C27_2 C36_2 1_555 1_555
N2 C16_2 1_555 1_555
C16_2 H7_2 1_555 1_555
C22_2 H9_2 1_555 1_555
C33_2 C16_2 1_555 1_555
H18_2 C33_2 1_555 1_555
H20_2 C35_2 1_555 1_555
Co10 N2 1_555 1_555
C22_2 C35_2 1_555 1_555
C33_2 C51_2 1_555 1_555
O16 C10_2 1_555 1_555
O17 C10_2 1_555 1_555
C10_2 C32_2 1_555 1_555
C29_2 H15_2 1_555 1_555
C32_2 C29_2 1_555 1_555
Co6 O5_2 1_555 1_555
O2_2 C4_2 1_555 1_555
O5_2 C4_2 1_555 1_555
O7_2 Co6 1_555 1_555
O9_2 Co10 1_555 1_555
C2_2 C4_2 1_555 1_555
C5_2 O7_2 1_555 1_555
C8_2 C20_2 1_555 1_555
C9_2 H3_2 1_555 1_555
C15_2 C2_2 1_555 1_555
H6_2 C15_2 1_555 1_555
C17_2 C9_2 1_555 1_555
C20_2 C38_2 1_555 1_555
C24_2 C8_2 1_555 1_555
H11_2 C24_2 1_555 1_555
C26_2 C2_2 1_555 1_555
H13_2 C26_2 1_555 1_555
C30_2 C9_2 1_555 1_555
H16_2 C30_2 1_555 1_555
C31_2 C8_2 1_555 1_555
H17_2 C31_2 1_555 1_555
C37_2 H22_2 1_555 1_555
C38_2 C34_2 1_555 1_555
H23_2 C38_2 1_555 1_555
C39_2 C5_2 1_555 1_555
C40_2 C30_2 1_555 1_555
C41_2 H24_2 1_555 1_555
C43_2 C17_2 1_555 1_555
H26_2 C43_2 1_555 1_555
C44_2 C40_2 1_555 1_555
H27_2 C44_2 1_555 1_555
C45_2 C37_2 1_555 1_555
C46_2 C20_2 1_555 1_555
H28_2 C46_2 1_555 1_555
C48_2 C39_2 1_555 1_555
H30_2 C48_2 1_555 1_555
C49_2 C37_2 1_555 1_555
H31_2 C49_2 1_555 1_555
O18_2 C52_2 1_555 1_555
O19_2 C52_2 1_555 1_555
O13_2 Co10 1_555 1_555
H33_2 O13_2 1_555 1_555
H34_2 O13_2 1_555 1_555
C52_2 C17_2 1_555 1_555
Co10 O7_2 1_555 1_555
O9_2 C5_2 1_555 1_555
C15_2 C24_2 1_555 1_555
C26_2 C31_2 1_555 1_555
C39_2 C49_2 1_555 1_555
C40_2 C45_2 1_555 1_555
C41_2 C45_2 1_555 1_555
C41_2 C48_2 1_555 1_555
C43_2 C44_2 1_555 1_555
Co4 O5_3 1_555 1_555
O2_3 C4_3 1_555 1_555
O5_3 C4_3 1_555 1_555
O7_3 Co4 1_555 1_555
O9_3 Co3_2 1_555 1_555
C2_3 C4_3 1_555 1_555
C5_3 O7_3 1_555 1_555
C8_3 C20_3 1_555 1_555
C9_3 H3_3 1_555 1_555
C15_3 C2_3 1_555 1_555
H6_3 C15_3 1_555 1_555
C17_3 C9_3 1_555 1_555
C20_3 C38_3 1_555 1_555
C24_3 C8_3 1_555 1_555
H11_3 C24_3 1_555 1_555
C26_3 C2_3 1_555 1_555
H13_3 C26_3 1_555 1_555
C30_3 C9_3 1_555 1_555
H16_3 C30_3 1_555 1_555
C31_3 C8_3 1_555 1_555
H17_3 C31_3 1_555 1_555
C37_3 H22_3 1_555 1_555
C38_3 C34_3 1_555 1_555
H23_3 C38_3 1_555 1_555
C39_3 C5_3 1_555 1_555
C40_3 C30_3 1_555 1_555
C41_3 H24_3 1_555 1_555
C43_3 C17_3 1_555 1_555
H26_3 C43_3 1_555 1_555
C44_3 C40_3 1_555 1_555
H27_3 C44_3 1_555 1_555
C45_3 C37_3 1_555 1_555
C46_3 C20_3 1_555 1_555
H28_3 C46_3 1_555 1_555
C48_3 C39_3 1_555 1_555
H30_3 C48_3 1_555 1_555
C49_3 C37_3 1_555 1_555
H31_3 C49_3 1_555 1_555
O11 C52_3 1_555 1_555
O12 C52_3 1_555 1_555
O13_3 Co3_2 1_555 1_555
H33_3 O13_3 1_555 1_555
H34_3 O13_3 1_555 1_555
C52_3 C17_3 1_555 1_555
Co7 O11 1_555 1_555
O15_2 Co4 1_555 1_555
N3_2 Co3_2 1_555 1_555
Co3_2 O7_3 1_555 1_555
O9_3 C5_3 1_555 1_555
C15_3 C24_3 1_555 1_555
C26_3 C31_3 1_555 1_555
C39_3 C49_3 1_555 1_555
C40_3 C45_3 1_555 1_555
C41_3 C45_3 1_555 1_555
C41_3 C48_3 1_555 1_555
C43_3 C44_3 1_555 1_555
O12 Co7 1_555 1_555
O6_2 C10_3 1_555 1_555
O10_2 C10_3 1_555 1_555
C10_3 C32_3 1_555 1_555
C29_3 H15_3 1_555 1_555
C32_3 C29_3 1_555 1_555
Co5 O10_2 1_555 1_555
Co10_2 O6_2 1_555 1_555
N3_2 C16_3 1_555 1_555
C16_3 H7_3 1_555 1_555
C22_3 H9_3 1_555 1_555
C33_3 C16_3 1_555 1_555
H18_3 C33_3 1_555 1_555
H20_3 C35_3 1_555 1_555
C22_3 C35_3 1_555 1_555
C33_3 C51_3 1_555 1_555
O3_3 C1_3 1_555 1_555
C1_3 O8_3 1_555 1_555
C3_3 H1_3 1_555 1_555
C11_3 C6_3 1_555 1_555
H4_3 C11_3 1_555 1_555
C14_3 C19_3 1_555 1_555
C18_3 C1_3 1_555 1_555
C19_3 C11_3 1_555 1_555
C21_3 C3_3 1_555 1_555
H8_3 C21_3 1_555 1_555
H10_3 C23_3 1_555 1_555
C27_3 C14_3 1_555 1_555
H14_3 C27_3 1_555 1_555
C36_3 C18_3 1_555 1_555
H21_3 C36_3 1_555 1_555
C47_3 C19_3 1_555 1_555
H29_3 C47_3 1_555 1_555
C3_3 C18_3 1_555 1_555
C14_3 C21_3 1_555 1_555
C23_3 C47_3 1_555 1_555
C27_3 C36_3 1_555 1_555
O1_2 C12_3 1_555 1_555
O4_2 C12_3 1_555 1_555
C12_3 C7_3 1_555 1_555
Co5 O4_2 1_555 1_555
Co8_2 O1_2 1_555 1_555
C9_4 H3_4 1_555 1_555
C17_4 C9_4 1_555 1_555
C30_4 C9_4 1_555 1_555
H16_4 C30_4 1_555 1_555
C40_4 C30_4 1_555 1_555
C43_4 C17_4 1_555 1_555
H26_4 C43_4 1_555 1_555
C44_4 C40_4 1_555 1_555
H27_4 C44_4 1_555 1_555
O11_2 C52_4 1_555 1_555
O12_2 C52_4 1_555 1_555
C52_4 C17_4 1_555 1_555
Co5 O11_2 1_555 1_555
Co8_2 O11_2 1_555 1_555
C43_4 C44_4 1_555 1_555
O12_2 Co8_2 1_555 1_555
Co5 O5_4 1_555 1_555
Co8_2 O2_4 1_555 1_555
Co10_2 O3_4 1_555 1_555
O14_2 C12_4 1_555 1_555
O2_4 C4_4 1_555 1_555
O3_4 C1_4 1_555 1_555
O15_2 C12_4 1_555 1_555
O5_4 C4_4 1_555 1_555
O16_2 C10_4 1_555 1_555
O7_4 Co5 1_555 1_555
O8_4 Co5 1_555 1_555
O9_4 Co10_2 1_555 1_555
O17_2 C10_4 1_555 1_555
N1_2 Co8_2 1_555 1_555
C1_4 O8_4 1_555 1_555
N2_2 C16_4 1_555 1_555
C2_4 C4_4 1_555 1_555
C3_4 H1_4 1_555 1_555
C5_4 O7_4 1_555 1_555
C6_4 H2_4 1_555 1_555
C7_4 C6_4 1_555 1_555
C8_4 C20_4 1_555 1_555
C10_4 C32_4 1_555 1_555
C11_4 C6_4 1_555 1_555
H4_4 C11_4 1_555 1_555
C12_4 C7_4 1_555 1_555
C13_2 N1_2 1_555 1_555
H5_2 C13_2 1_555 1_555
C14_4 C19_4 1_555 1_555
C15_4 C2_4 1_555 1_555
H6_4 C15_4 1_555 1_555
C16_4 H7_4 1_555 1_555
C18_4 C1_4 1_555 1_555
C19_4 C11_4 1_555 1_555
C20_4 C38_4 1_555 1_555
C21_4 C3_4 1_555 1_555
H8_4 C21_4 1_555 1_555
C22_4 H9_4 1_555 1_555
C23_4 C7_4 1_555 1_555
H10_4 C23_4 1_555 1_555
C24_4 C8_4 1_555 1_555
H11_4 C24_4 1_555 1_555
C25_2 C13_2 1_555 1_555
H12_2 C25_2 1_555 1_555
C26_4 C2_4 1_555 1_555
H13_4 C26_4 1_555 1_555
C27_4 C14_4 1_555 1_555
H14_4 C27_4 1_555 1_555
C28_2 C22_4 1_555 1_555
C29_4 H15_4 1_555 1_555
C31_4 C8_4 1_555 1_555
H17_4 C31_4 1_555 1_555
C32_4 C29_4 1_555 1_555
C33_4 C16_4 1_555 1_555
H18_4 C33_4 1_555 1_555
C34_4 C32_4 1_555 1_555
H19_4 C34_4 1_555 1_555
C35_4 N1_2 1_555 1_555
H20_4 C35_4 1_555 1_555
C36_4 C18_4 1_555 1_555
H21_4 C36_4 1_555 1_555
C37_4 H22_4 1_555 1_555
C38_4 C34_4 1_555 1_555
H23_4 C38_4 1_555 1_555
C39_4 C5_4 1_555 1_555
C41_4 H24_4 1_555 1_555
C42_2 H25_2 1_555 1_555
C45_4 C37_4 1_555 1_555
C46_4 C20_4 1_555 1_555
H28_4 C46_4 1_555 1_555
C47_4 C19_4 1_555 1_555
H29_4 C47_4 1_555 1_555
C48_4 C39_4 1_555 1_555
H30_4 C48_4 1_555 1_555
C49_4 C37_4 1_555 1_555
H31_4 C49_4 1_555 1_555
C50_2 N2_2 1_555 1_555
H32_2 C50_2 1_555 1_555
C51_4 C28_2 1_555 1_555
O13_4 Co10_2 1_555 1_555
H33_4 O13_4 1_555 1_555
H34_4 O13_4 1_555 1_555
Co10_2 O7_4 1_555 1_555
O9_4 C5_4 1_555 1_555
C3_4 C18_4 1_555 1_555
C14_4 C21_4 1_555 1_555
C15_4 C24_4 1_555 1_555
C22_4 C35_4 1_555 1_555
C23_4 C47_4 1_555 1_555
C25_2 C28_2 1_555 1_555
C26_4 C31_4 1_555 1_555
C27_4 C36_4 1_555 1_555
C29_4 C46_4 1_555 1_555
C33_4 C51_4 1_555 1_555
C39_4 C49_4 1_555 1_555
C41_4 C45_4 1_555 1_555
C41_4 C48_4 1_555 1_555
C42_2 C50_2 1_555 1_555
C42_2 C51_4 1_555 1_555
C13_3 N1_3 1_555 1_555
H5_3 C13_3 1_555 1_555
C25_3 C13_3 1_555 1_555
H12_3 C25_3 1_555 1_555
C42_3 H25_3 1_555 1_555
H32_3 C50_3 1_555 1_555
C25_3 C28_3 1_555 1_555
C42_3 C50_3 1_555 1_555
C13_4 N1_4 1_555 1_555
H5_4 C13_4 1_555 1_555
C25_4 C13_4 1_555 1_555
H12_4 C25_4 1_555 1_555
C42_4 H25_4 1_555 1_555
H32_4 C50_4 1_555 1_555
C25_4 C28_4 1_555 1_555
C42_4 C50_4 1_555 1_555

#END
