
###############################################################################
#
# This file contains modified crystal structure data generated from the
# MOF subset of the Cambridge Structural Database (CSD) v543 
# hosted by the Cambridge Crystallographic Data Centre (CCDC).
#
# This work is licensed under the Creative Commons
# Attribution-NonCommercial-ShareAlike 4.0 International License.
# To view a copy of this license, visit
# http://creativecommons.org/licenses/by-nc-sa/4.0/
# or send a letter to
# Creative Commons, PO Box 1866, Mountain View, CA 94042, USA.
#
# CIF created using the CSD Python API on 29 September 2022
# The structure has been converted into the P1 space group
# The structure has a 3D framework
# The original CSD entry QANSEE is in the rhombohedral crystal system
# The framework has been calculated to contain at least 10.0% void space
# The void calculation uses a probe of radius 1.32A, grid spacing 0.4
#
###############################################################################

data_QANSEE
_chemical_formula_moiety         '(C360 H216 N72 Zn12)n'
_symmetry_cell_setting           triclinic
_symmetry_space_group_name_H-M   'P 1'
_symmetry_Int_Tables_number      1
_space_group_name_Hall           'P 1'
loop_
_symmetry_equiv_pos_site_id
_symmetry_equiv_pos_as_xyz
1 x,y,z
_cell_length_a                   33.0359(2)
_cell_length_b                   33.0359(2)
_cell_length_c                   9.0191(3)
_cell_angle_alpha                90
_cell_angle_beta                 90
_cell_angle_gamma                120
_cell_volume                     8524.45
loop_
_atom_site_label
_atom_site_type_symbol
_atom_site_fract_x
_atom_site_fract_y
_atom_site_fract_z
C13 C 0.22876(13) 0.45280(14) 0.0332(4)
H6 H 0.2172 0.4414 0.1298
N3 N 0.26033(12) 0.49804(11) 0.0173(4)
Zn1 Zn 0.1667 0.3333 0.3333
C1 C 0.22205(10) 0.30817(10) 0.5496(3)
C2 C 0.25109(11) 0.32486(11) 0.6802(4)
H1 H 0.2688 0.3122 0.7218
C3 C 0.24848(11) 0.36183(11) 0.7328(4)
H2 H 0.2638 0.3800 0.8179
C4 C 0.21771(10) 0.36847(10) 0.6341(3)
C5 C 0.20831(9) 0.40557(10) 0.6424(3)
C6 C 0.18342(9) 0.41569(10) 0.5375(3)
C7 C 0.17026(11) 0.45140(11) 0.5533(4)
H3 H 0.1782 0.4730 0.6327
C8 C 0.14431(11) 0.44778(10) 0.4322(4)
H4 H 0.1304 0.4664 0.4113
C9 C 0.14161(10) 0.41066(10) 0.3409(3)
C10 C 0.21742(10) 0.27191(10) 0.4585(3)
N1 N 0.20172(8) 0.33492(8) 0.5260(3)
N2 N 0.16626(8) 0.39230(8) 0.4065(3)
C11 C 0.22724(10) 0.43775(10) 0.7732(3)
C12 C 0.21209(12) 0.42171(12) 0.9156(4)
H5 H 0.1904 0.3896 0.9326
C14 C 0.27573(15) 0.51314(13) 0.8797(5)
H7 H 0.2987 0.5451 0.8666
C15 C 0.26005(12) 0.48480(11) 0.7555(4)
H8 H 0.2715 0.4973 0.6598
C16 C 0.24354(10) 0.24740(10) 0.5026(3)
C17 C 0.28606(11) 0.25925(11) 0.4367(4)
H9 H 0.2997 0.2839 0.3665
C18 C 0.30806(11) 0.23475(11) 0.4747(4)
H10 H 0.3370 0.2429 0.4286
N4 N 0.29054(9) 0.19986(8) 0.5736(3)
C19 C 0.25012(11) 0.18905(11) 0.6378(4)
H11 H 0.2374 0.1645 0.7086
C20 C 0.22557(11) 0.21200(11) 0.6064(4)
H12 H 0.1970 0.2035 0.6555
Zn2 Zn 0.3333 0.1666 0.6667
C21 C 0.11128(10) 0.35850(10) 0.1171(3)
C24 C 0.11562(10) 0.29820(10) 0.0326(3)
C25 C 0.12502(9) 0.26110(10) 0.0243(3)
C26 C 0.14991(9) 0.25098(10) 0.1292(3)
C27 C 0.16307(11) 0.21527(11) 0.1134(4)
H15 H 0.1551 0.1937 0.0340
C28 C 0.18902(11) 0.21889(10) 0.2345(4)
H16 H 0.2029 0.2003 0.2554
C29 C 0.19172(10) 0.25601(10) 0.3258(3)
C30 C 0.11591(10) 0.39476(10) 0.2082(3)
N5 N 0.13161(8) 0.33175(8) 0.1407(3)
N6 N 0.16707(8) 0.27437(8) 0.2602(3)
H20 H 0.0618 0.1694 0.0069
C36 C 0.08979(10) 0.41927(10) 0.1641(3)
C37 C 0.04727(11) 0.40742(11) 0.2300(4)
H21 H 0.0336 0.3828 0.3002
C38 C 0.02527(11) 0.43192(11) 0.1920(4)
N8 N 0.04279(9) 0.46681(8) 0.0931(3)
N9 N 0.09068(12) 0.29054(9) 0.4264(3)
N10 N 0.24265(12) 0.37613(9) 0.2403(3)
C39 C 0.08321(11) 0.47762(11) 0.0289(4)
C40 C 0.10776(11) 0.45467(11) 0.0603(4)
H24 H 0.1363 0.4632 0.0112
Zn3 Zn 1.0000 0.4999 1.0000
C17_2 C 0.74075(11) 0.02681(16) 0.4367(4)
H9_2 H 0.7161 0.0158 0.3665
C18_2 C 0.76525(11) 0.07331(16) 0.4747(4)
H10_2 H 0.7571 0.0941 0.4286
N4_2 N 0.80014(8) 0.09068(12) 0.5736(3)
C19_2 C 0.81095(11) 0.06107(16) 0.6378(4)
H11_2 H 0.8355 0.0729 0.7086
C20_2 C 0.78800(11) 0.01357(16) 0.6064(4)
Zn2_2 Zn 0.8334 0.1667 0.6667
H16_2 H 0.7997 0.0027 0.2554
Zn1_2 Zn 0.6667 0.8334 0.3333
C1_2 C 0.69183(10) 0.91388(14) 0.5496(3)
C2_2 C 0.67514(11) 0.92623(16) 0.6802(4)
H1_2 H 0.6878 0.9566 0.7218
C3_2 C 0.63817(11) 0.88665(16) 0.7328(4)
H2_2 H 0.6200 0.8838 0.8179
C4_2 C 0.63153(10) 0.84924(14) 0.6341(3)
C5_2 C 0.59443(10) 0.80274(13) 0.6424(3)
C6_2 C 0.58431(10) 0.76773(13) 0.5375(3)
C7_2 C 0.54860(11) 0.71886(16) 0.5533(4)
H3_2 H 0.5270 0.7052 0.6327
C8_2 C 0.55222(10) 0.69653(15) 0.4322(4)
H4_2 H 0.5336 0.6640 0.4113
C9_2 C 0.58934(10) 0.73095(14) 0.3409(3)
C10_2 C 0.72809(10) 0.94551(14) 0.4585(3)
N1_2 N 0.66508(8) 0.86680(11) 0.5260(3)
N2_2 N 0.60770(8) 0.77396(11) 0.4065(3)
C11_2 C 0.56225(10) 0.78949(14) 0.7732(3)
C12_2 C 0.57829(12) 0.79038(17) 0.9156(4)
H5_2 H 0.6104 0.8008 0.9326
C14_2 C 0.48686(13) 0.76259(20) 0.8797(5)
H7_2 H 0.4549 0.7536 0.8666
C15_2 C 0.51520(11) 0.77525(16) 0.7555(4)
H8_2 H 0.5027 0.7742 0.6598
C16_2 C 0.75260(10) 0.99614(14) 0.5026(3)
H12_2 H 0.7965 0.9935 0.6555
Zn3_2 Zn 0.5001 0.5000 0.0000
C21_2 C 0.64150(10) 0.75279(14) 0.1171(3)
C24_2 C 0.70180(10) 0.81743(14) 0.0326(3)
C25_2 C 0.73890(10) 0.86393(13) 0.0243(3)
C26_2 C 0.74902(10) 0.89894(13) 0.1292(3)
C27_2 C 0.78473(11) 0.94781(16) 0.1134(4)
H15_2 H 0.8063 0.9615 0.0340
C28_2 C 0.78111(10) 0.97014(15) 0.2345(4)
C29_2 C 0.74399(10) 0.93572(14) 0.3258(3)
C30_2 C 0.60524(10) 0.72116(14) 0.2082(3)
N5_2 N 0.66825(8) 0.79987(11) 0.1407(3)
N6_2 N 0.72563(8) 0.89271(11) 0.2602(3)
H20_2 H 0.8306 0.8925 0.0069
C36_2 C 0.58073(10) 0.67053(14) 0.1641(3)
C37_2 C 0.59258(11) 0.63986(16) 0.2300(4)
H21_2 H 0.6172 0.6509 0.3002
C38_2 C 0.56808(11) 0.59336(16) 0.1920(4)
H22 H 0.5762 0.5726 0.2381
N8_2 N 0.53319(8) 0.57599(12) 0.0931(3)
N9_2 N 0.70946(9) 0.80014(15) 0.4264(3)
N10_2 N 0.62387(9) 0.86653(15) 0.2403(3)
C39_2 C 0.52238(11) 0.60560(16) 0.0289(4)
C40_2 C 0.54533(11) 0.65310(16) 0.0603(4)
H24_2 H 0.5368 0.6732 0.0112
Zn3_3 Zn 0.5001 0.5000 1.0000
C22 C 0.65819(11) 0.74044(16) 0.9865(4)
H13 H 0.6455 0.7101 0.9449
C23 C 0.69516(11) 0.78002(16) 0.9339(4)
H14 H 0.7133 0.7829 0.8488
C31 C 0.77108(10) 0.87718(14) 0.8935(3)
C32 C 0.75504(12) 0.87629(17) 0.7511(4)
H17 H 0.7229 0.8659 0.7341
C33 C 0.78613(14) 0.89071(19) 0.6335(4)
H18 H 0.7747 0.8909 0.5369
N7 N 0.83137(11) 0.90438(16) 0.6494(4)
C34 C 0.84647(13) 0.90408(20) 0.7870(5)
H19 H 0.8784 0.9131 0.8001
C35 C 0.81813(11) 0.89142(16) 0.9112(4)
H23 H 0.4978 0.5938 0.9581
Zn3_4 Zn 0.5000 0.0000 1.0000
Zn1_3 Zn 0.1666 0.8333 0.3333
C1_3 C 0.08612(14) 0.77795(10) 0.5496(3)
C2_3 C 0.07377(16) 0.74891(11) 0.6802(4)
H1_3 H 0.0434 0.7312 0.7218
C3_3 C 0.11335(16) 0.75152(11) 0.7328(4)
H2_3 H 0.1162 0.7362 0.8179
C4_3 C 0.15076(14) 0.78229(10) 0.6341(3)
C5_3 C 0.19726(13) 0.79169(9) 0.6424(3)
C6_3 C 0.23227(13) 0.81658(9) 0.5375(3)
C7_3 C 0.28114(16) 0.82974(11) 0.5533(4)
H3_3 H 0.2948 0.8218 0.6327
C8_3 C 0.30347(15) 0.85569(11) 0.4322(4)
H4_3 H 0.3360 0.8696 0.4113
C9_3 C 0.26905(14) 0.85839(10) 0.3409(3)
C10_3 C 0.05449(14) 0.78258(10) 0.4585(3)
N1_3 N 0.13320(11) 0.79828(8) 0.5260(3)
N2_3 N 0.22604(11) 0.83374(8) 0.4065(3)
C11_3 C 0.21051(14) 0.77276(10) 0.7732(3)
C12_3 C 0.20962(17) 0.78791(12) 0.9156(4)
H5_3 H 0.1992 0.8096 0.9326
C14_3 C 0.23741(20) 0.72427(15) 0.8797(5)
H7_3 H 0.2464 0.7013 0.8666
C15_3 C 0.22475(16) 0.73995(12) 0.7555(4)
H8_3 H 0.2258 0.7285 0.6598
C16_3 C 0.00386(14) 0.75646(10) 0.5026(3)
H12_3 H 0.0065 0.8030 0.6555
C21_3 C 0.24721(14) 0.88872(10) 0.1171(3)
C24_3 C 0.18257(14) 0.88438(10) 0.0326(3)
C25_3 C 0.13607(13) 0.87498(9) 0.0243(3)
C26_3 C 0.10106(13) 0.85009(9) 0.1292(3)
C27_3 C 0.05219(16) 0.83693(11) 0.1134(4)
H15_3 H 0.0385 0.8449 0.0340
C28_3 C 0.02986(15) 0.81098(11) 0.2345(4)
C29_3 C 0.06428(14) 0.80828(10) 0.3258(3)
C30_3 C 0.27884(14) 0.88409(10) 0.2082(3)
N5_3 N 0.20013(11) 0.86839(8) 0.1407(3)
N6_3 N 0.10729(11) 0.83293(8) 0.2602(3)
H20_3 H 0.1075 0.9382 0.0069
C36_3 C 0.32947(14) 0.91021(10) 0.1641(3)
C37_3 C 0.36014(16) 0.95273(11) 0.2300(4)
H21_3 H 0.3491 0.9664 0.3002
C38_3 C 0.40664(16) 0.97473(11) 0.1920(4)
N8_3 N 0.42401(12) 0.95721(9) 0.0931(3)
N9_3 N 0.19986(15) 0.90932(12) 0.4264(3)
N10_3 N 0.13347(15) 0.75735(12) 0.2403(3)
C39_3 C 0.39440(16) 0.91679(11) 0.0289(4)
C40_3 C 0.34690(16) 0.89224(11) 0.0603(4)
H24_3 H 0.3268 0.8637 0.0112
C17_3 C 0.97319(16) 0.71394(11) 0.4367(4)
H9_3 H 0.9842 0.7003 0.3665
C18_3 C 0.92669(16) 0.69194(11) 0.4747(4)
H10_3 H 0.9059 0.6630 0.4286
N4_3 N 0.90932(12) 0.70946(9) 0.5736(3)
C19_3 C 0.93893(16) 0.74988(11) 0.6378(4)
H11_3 H 0.9271 0.7626 0.7086
C20_3 C 0.98643(16) 0.77443(11) 0.6064(4)
Zn2_3 Zn 0.8333 0.6667 0.6667
H16_3 H 0.9973 0.7971 0.2554
C1_4 C 0.88872(10) 0.64150(10) 0.8829(3)
C4_4 C 0.88438(10) 0.70180(10) 0.9674(3)
C5_4 C 0.87498(9) 0.73890(10) 0.9757(3)
C6_4 C 0.85009(9) 0.74902(10) 0.8708(3)
C7_4 C 0.83693(11) 0.78473(11) 0.8866(4)
H3_4 H 0.8449 0.8063 0.9660
C8_4 C 0.81098(11) 0.78111(10) 0.7655(4)
H4_4 H 0.7971 0.7997 0.7446
C9_4 C 0.80828(10) 0.74399(10) 0.6742(3)
C10_4 C 0.88409(10) 0.60524(10) 0.7918(3)
N1_4 N 0.86839(8) 0.66825(8) 0.8593(3)
N2_4 N 0.83293(8) 0.72563(8) 0.7398(3)
H8_4 H 0.9382 0.8306 0.9931
C16_4 C 0.91021(10) 0.58073(10) 0.8359(3)
C17_4 C 0.95273(11) 0.59258(11) 0.7700(4)
H9_4 H 0.9664 0.6172 0.6998
C18_4 C 0.97473(11) 0.56808(11) 0.8080(4)
N4_4 N 0.95721(9) 0.53319(8) 0.9069(3)
C19_4 C 0.91679(11) 0.52238(11) 0.9711(4)
C20_4 C 0.89224(11) 0.54533(11) 0.9397(4)
H12_4 H 0.8637 0.5368 0.9888
C21_4 C 0.77795(10) 0.69183(10) 0.4504(3)
C22_2 C 0.74891(11) 0.67514(11) 0.3198(4)
H13_2 H 0.7312 0.6878 0.2782
C23_2 C 0.75152(11) 0.63817(11) 0.2672(4)
H14_2 H 0.7362 0.6200 0.1821
C24_4 C 0.78229(10) 0.63153(10) 0.3659(3)
C25_4 C 0.79169(9) 0.59443(10) 0.3576(3)
C26_4 C 0.81658(9) 0.58431(10) 0.4625(3)
C27_4 C 0.82974(11) 0.54860(11) 0.4467(4)
H15_4 H 0.8218 0.5270 0.3673
C28_4 C 0.85569(11) 0.55222(10) 0.5678(4)
H16_4 H 0.8696 0.5336 0.5887
C29_4 C 0.85839(10) 0.58934(10) 0.6591(3)
C30_4 C 0.78258(10) 0.72809(10) 0.5415(3)
N5_4 N 0.79828(8) 0.66508(8) 0.4740(3)
N6_4 N 0.83374(8) 0.60770(8) 0.5935(3)
C31_2 C 0.77276(10) 0.56225(10) 0.2268(3)
C32_2 C 0.78791(12) 0.57829(12) 0.0844(4)
H17_2 H 0.8096 0.6104 0.0674
C34_2 C 0.72427(15) 0.48686(13) 0.1203(5)
H19_2 H 0.7013 0.4549 0.1334
C35_2 C 0.73995(12) 0.51520(11) 0.2445(4)
H20_4 H 0.7285 0.5027 0.3402
C36_4 C 0.75646(10) 0.75260(10) 0.4974(3)
C37_4 C 0.71394(11) 0.74075(11) 0.5633(4)
H21_4 H 0.7003 0.7161 0.6335
C38_4 C 0.69194(11) 0.76525(11) 0.5253(4)
H22_2 H 0.6630 0.7571 0.5714
N9_4 N 0.75735(12) 0.62387(9) 0.7597(3)
C39_4 C 0.74988(11) 0.81095(11) 0.3622(4)
H23_2 H 0.7626 0.8355 0.2914
C40_4 C 0.77443(11) 0.78800(11) 0.3936(4)
H24_4 H 0.8030 0.7965 0.3445
C2_4 C 0.34181(11) 0.25956(16) 0.0135(4)
H1_4 H 0.3545 0.2899 0.0551
C3_4 C 0.30484(11) 0.21998(16) 0.0661(4)
H2_4 H 0.2867 0.2171 0.1512
C11_4 C 0.22892(10) 0.12282(14) 0.1065(3)
C12_4 C 0.24496(12) 0.12371(17) 0.2489(4)
H5_4 H 0.2771 0.1341 0.2659
C13_2 C 0.21387(14) 0.10929(19) 0.3665(4)
H6_2 H 0.2253 0.1091 0.4631
N3_2 N 0.16863(11) 0.09562(16) 0.3506(4)
C14_4 C 0.15353(13) 0.09592(20) 0.2130(5)
H7_4 H 0.1216 0.0869 0.1999
C15_4 C 0.18187(11) 0.10858(16) 0.0888(4)
H11_4 H 0.5022 0.4062 0.0419
C1_5 C 0.35850(10) 0.24721(14) 0.8829(3)
C4_5 C 0.29820(10) 0.18257(14) 0.9674(3)
C5_5 C 0.26110(10) 0.13607(13) 0.9757(3)
C6_5 C 0.25098(10) 0.10106(13) 0.8708(3)
C7_5 C 0.21527(11) 0.05219(16) 0.8866(4)
H3_5 H 0.1937 0.0385 0.9660
C8_5 C 0.21889(10) 0.02986(15) 0.7655(4)
C9_5 C 0.25601(10) 0.06428(14) 0.6742(3)
C10_5 C 0.39476(10) 0.27884(14) 0.7918(3)
N1_5 N 0.33175(8) 0.20013(11) 0.8593(3)
N2_5 N 0.27437(8) 0.10729(11) 0.7398(3)
H8_5 H 0.1694 0.1075 0.9931
C16_5 C 0.41927(10) 0.32947(14) 0.8359(3)
C17_5 C 0.40742(11) 0.36014(16) 0.7700(4)
H9_5 H 0.3828 0.3491 0.6998
C18_5 C 0.43192(11) 0.40664(16) 0.8080(4)
H10_4 H 0.4238 0.4274 0.7619
N4_5 N 0.46681(8) 0.42401(12) 0.9069(3)
C19_5 C 0.47762(11) 0.39440(16) 0.9711(4)
C20_5 C 0.45467(11) 0.34690(16) 0.9397(4)
H12_5 H 0.4632 0.3268 0.9888
C21_5 C 0.30817(10) 0.08612(14) 0.4504(3)
C22_3 C 0.32486(11) 0.07377(16) 0.3198(4)
H13_3 H 0.3122 0.0434 0.2782
C23_3 C 0.36183(11) 0.11335(16) 0.2672(4)
H14_3 H 0.3800 0.1162 0.1821
C24_5 C 0.36847(10) 0.15076(14) 0.3659(3)
C25_5 C 0.40557(10) 0.19726(13) 0.3576(3)
C26_5 C 0.41569(10) 0.23227(13) 0.4625(3)
C27_5 C 0.45140(11) 0.28114(16) 0.4467(4)
H15_5 H 0.4730 0.2948 0.3673
C28_5 C 0.44778(10) 0.30347(15) 0.5678(4)
H16_5 H 0.4664 0.3360 0.5887
C29_5 C 0.41066(10) 0.26905(14) 0.6591(3)
C30_5 C 0.27191(10) 0.05449(14) 0.5415(3)
N5_5 N 0.33492(8) 0.13320(11) 0.4740(3)
N6_5 N 0.39230(8) 0.22604(11) 0.5935(3)
C31_3 C 0.43775(10) 0.21051(14) 0.2268(3)
C32_3 C 0.42171(12) 0.20962(17) 0.0844(4)
H17_3 H 0.3896 0.1992 0.0674
C34_3 C 0.51314(13) 0.23741(20) 0.1203(5)
H19_3 H 0.5451 0.2464 0.1334
C35_3 C 0.48480(11) 0.22475(16) 0.2445(4)
H20_5 H 0.4973 0.2258 0.3402
C36_5 C 0.24740(10) 0.00386(14) 0.4974(3)
N9_5 N 0.37613(9) 0.13347(15) 0.7597(3)
H24_5 H 0.2035 0.0065 0.3445
H4_5 H 0.2003 0.9973 0.7446
C37_5 C 0.25925(11) 0.97319(16) 0.5633(4)
H21_5 H 0.2839 0.9842 0.6335
C38_5 C 0.23475(11) 0.92669(16) 0.5253(4)
H22_3 H 0.2429 0.9059 0.5714
C39_5 C 0.18905(11) 0.93893(16) 0.3622(4)
H23_3 H 0.1645 0.9271 0.2914
C40_5 C 0.21200(11) 0.98643(16) 0.3936(4)
H4_6 H 0.0027 0.2029 0.7446
C37_6 C 0.02681(16) 0.28606(11) 0.5633(4)
H21_6 H 0.0158 0.2997 0.6335
C38_6 C 0.07331(16) 0.30806(11) 0.5253(4)
H22_4 H 0.0941 0.3370 0.5714
C39_6 C 0.06107(16) 0.25012(11) 0.3622(4)
H23_4 H 0.0729 0.2374 0.2914
C40_6 C 0.01357(16) 0.22557(11) 0.3936(4)
C1_6 C 0.75279(14) 0.11128(10) 0.8829(3)
C4_6 C 0.81743(14) 0.11562(10) 0.9674(3)
C5_6 C 0.86393(13) 0.12502(9) 0.9757(3)
C6_6 C 0.89894(13) 0.14991(9) 0.8708(3)
C7_6 C 0.94781(16) 0.16307(11) 0.8866(4)
H3_6 H 0.9615 0.1551 0.9660
C8_6 C 0.97014(15) 0.18902(11) 0.7655(4)
C9_6 C 0.93572(14) 0.19172(10) 0.6742(3)
C10_6 C 0.72116(14) 0.11591(10) 0.7918(3)
N1_6 N 0.79987(11) 0.13161(8) 0.8593(3)
N2_6 N 0.89271(11) 0.16707(8) 0.7398(3)
H8_6 H 0.8925 0.0618 0.9931
C16_6 C 0.67053(14) 0.08979(10) 0.8359(3)
C17_6 C 0.63986(16) 0.04727(11) 0.7700(4)
H9_6 H 0.6509 0.0336 0.6998
C18_6 C 0.59336(16) 0.02527(11) 0.8080(4)
N4_6 N 0.57599(12) 0.04279(9) 0.9069(3)
C19_6 C 0.60560(16) 0.08321(11) 0.9711(4)
C20_6 C 0.65310(16) 0.10776(11) 0.9397(4)
H12_6 H 0.6732 0.1363 0.9888
C21_6 C 0.91388(14) 0.22205(10) 0.4504(3)
C22_4 C 0.92623(16) 0.25109(11) 0.3198(4)
H13_4 H 0.9566 0.2688 0.2782
C23_4 C 0.88665(16) 0.24848(11) 0.2672(4)
H14_4 H 0.8838 0.2638 0.1821
C24_6 C 0.84924(14) 0.21771(10) 0.3659(3)
C25_6 C 0.80274(13) 0.20831(9) 0.3576(3)
C26_6 C 0.76773(13) 0.18342(9) 0.4625(3)
C27_6 C 0.71886(16) 0.17026(11) 0.4467(4)
H15_6 H 0.7052 0.1782 0.3673
C28_6 C 0.69653(15) 0.14431(11) 0.5678(4)
H16_6 H 0.6640 0.1304 0.5887
C29_6 C 0.73095(14) 0.14161(10) 0.6591(3)
C30_6 C 0.94551(14) 0.21742(10) 0.5415(3)
N5_6 N 0.86680(11) 0.20172(8) 0.4740(3)
N6_6 N 0.77396(11) 0.16626(8) 0.5935(3)
C31_4 C 0.78949(14) 0.22724(10) 0.2268(3)
C32_4 C 0.79038(17) 0.21209(12) 0.0844(4)
H17_4 H 0.8008 0.1904 0.0674
C34_4 C 0.76259(20) 0.27573(15) 0.1203(5)
H19_4 H 0.7536 0.2987 0.1334
C35_4 C 0.77525(16) 0.26005(12) 0.2445(4)
H20_6 H 0.7742 0.2715 0.3402
C36_6 C 0.99614(14) 0.24354(10) 0.4974(3)
N9_6 N 0.86653(15) 0.24265(12) 0.7597(3)
H24_6 H 0.9935 0.1970 0.3445
C21_7 C 0.44462(10) 0.02516(10) 0.7837(3)
C22_5 C 0.41558(11) 0.00847(11) 0.6531(4)
H13_5 H 0.3979 0.0211 0.6115
C30_7 C 0.44925(10) 0.06142(10) 0.8748(3)
C36_7 C 0.42313(10) 0.08593(10) 0.8307(3)
C37_7 C 0.38061(11) 0.07408(11) 0.8966(4)
H21_7 H 0.3670 0.0494 0.9668
C38_7 C 0.35861(11) 0.09858(11) 0.8586(4)
H22_5 H 0.3297 0.0904 0.9047
C39_7 C 0.41655(11) 0.14428(11) 0.6955(4)
H23_5 H 0.4293 0.1688 0.6247
C40_7 C 0.44110(11) 0.12133(11) 0.7269(4)
H24_7 H 0.4697 0.1298 0.6778
Zn1_4 Zn 0.5000 1.0000 -0.0000
C1_7 C 0.55538(10) 0.97484(10) 0.2163(3)
C2_5 C 0.58442(11) 0.99153(11) 0.3469(4)
H1_5 H 0.6021 0.9789 0.3885
C10_7 C 0.55075(10) 0.93858(10) 0.1252(3)
C16_7 C 0.57687(10) 0.91407(10) 0.1693(3)
C17_7 C 0.61939(11) 0.92592(11) 0.1034(4)
H9_7 H 0.6330 0.9506 0.0332
C18_7 C 0.64139(11) 0.90142(11) 0.1414(4)
H10_5 H 0.6703 0.9096 0.0953
C19_7 C 0.58345(11) 0.85572(11) 0.3045(4)
H11_5 H 0.5707 0.8312 0.3753
C20_7 C 0.55890(11) 0.87867(11) 0.2731(4)
H12_7 H 0.5303 0.8702 0.3222
Zn1_5 Zn 0.0000 0.5001 -0.0000
C1_8 C 0.02516(10) 0.58055(14) 0.2163(3)
C2_6 C 0.00847(11) 0.59290(16) 0.3469(4)
H1_6 H 0.0211 0.6233 0.3885
C10_8 C 0.06142(10) 0.61218(14) 0.1252(3)
C16_8 C 0.08593(10) 0.66281(14) 0.1693(3)
C17_8 C 0.07408(11) 0.69348(16) 0.1034(4)
H9_8 H 0.0494 0.6825 0.0332
C18_8 C 0.09858(11) 0.73998(16) 0.1414(4)
H10_6 H 0.0904 0.7608 0.0953
C19_8 C 0.14428(11) 0.72774(16) 0.3045(4)
H11_6 H 0.1688 0.7396 0.3753
C20_8 C 0.12133(11) 0.68024(16) 0.2731(4)
H12_8 H 0.1298 0.6602 0.3222
C21_8 C 0.97484(10) 0.41945(14) 0.7837(3)
C22_6 C 0.99153(11) 0.40710(16) 0.6531(4)
H13_6 H 0.9789 0.3767 0.6115
C30_8 C 0.93858(10) 0.38782(14) 0.8748(3)
C36_8 C 0.91407(10) 0.33719(14) 0.8307(3)
C37_8 C 0.92592(11) 0.30652(16) 0.8966(4)
H21_8 H 0.9506 0.3175 0.9668
C38_8 C 0.90142(11) 0.26002(16) 0.8586(4)
H22_6 H 0.9096 0.2392 0.9047
C39_8 C 0.85572(11) 0.27226(16) 0.6955(4)
H23_6 H 0.8312 0.2604 0.6247
C40_8 C 0.87867(11) 0.31976(16) 0.7269(4)
H24_8 H 0.8702 0.3398 0.6778
C1_9 C 0.41945(14) 0.44462(10) 0.2163(3)
C2_7 C 0.40710(16) 0.41558(11) 0.3469(4)
H1_7 H 0.3767 0.3979 0.3885
C3_5 C 0.44668(16) 0.41819(11) 0.3995(4)
H2_5 H 0.4495 0.4029 0.4846
C4_7 C 0.48409(14) 0.44896(10) 0.3008(3)
C5_7 C 0.53059(13) 0.45836(9) 0.3091(3)
C6_7 C 0.56560(13) 0.48325(9) 0.2042(3)
C7_7 C 0.61447(16) 0.49641(11) 0.2200(4)
H3_7 H 0.6281 0.4885 0.2994
C8_7 C 0.63680(15) 0.52236(11) 0.0989(4)
H4_7 H 0.6693 0.5363 0.0780
C9_7 C 0.60238(14) 0.52506(10) 0.0076(3)
C10_9 C 0.38782(14) 0.44925(10) 0.1252(3)
N1_7 N 0.46653(11) 0.46495(8) 0.1927(3)
N2_7 N 0.55937(11) 0.50041(8) 0.0732(3)
C11_5 C 0.54384(14) 0.43943(10) 0.4399(3)
C12_5 C 0.54295(17) 0.45458(12) 0.5823(4)
H5_5 H 0.5325 0.4763 0.5993
C13_3 C 0.55737(19) 0.43791(13) 0.6999(4)
H6_3 H 0.5575 0.4495 0.7965
N3_3 N 0.57104(16) 0.40634(12) 0.6840(4)
C14_5 C 0.57074(20) 0.39094(15) 0.5464(5)
H7_5 H 0.5797 0.3680 0.5333
C15_5 C 0.55808(16) 0.40662(12) 0.4222(4)
H8_7 H 0.5591 0.3952 0.3265
C16_9 C 0.33719(14) 0.42313(10) 0.1693(3)
C17_9 C 0.30652(16) 0.38061(11) 0.1034(4)
H9_9 H 0.3175 0.3670 0.0332
C18_9 C 0.26002(16) 0.35861(11) 0.1414(4)
H10_7 H 0.2392 0.3297 0.0953
C19_9 C 0.27226(16) 0.41655(11) 0.3045(4)
H11_7 H 0.2604 0.4293 0.3753
C20_9 C 0.31976(16) 0.44110(11) 0.2731(4)
H12_9 H 0.3398 0.4697 0.3222
C21_9 C 0.58055(14) 0.55538(10) 0.7837(3)
C22_7 C 0.59290(16) 0.58442(11) 0.6531(4)
H13_7 H 0.6233 0.6021 0.6115
C23_5 C 0.55332(16) 0.58181(11) 0.6005(4)
H14_5 H 0.5505 0.5971 0.5154
C24_7 C 0.51591(14) 0.55104(10) 0.6992(3)
C25_7 C 0.46941(13) 0.54164(9) 0.6909(3)
C26_7 C 0.43440(13) 0.51675(9) 0.7958(3)
C27_7 C 0.38553(16) 0.50359(11) 0.7800(4)
H15_7 H 0.3719 0.5115 0.7006
C28_7 C 0.36320(15) 0.47764(11) 0.9011(4)
H16_7 H 0.3307 0.4637 0.9220
C29_7 C 0.39762(14) 0.47494(10) 0.9924(3)
C30_9 C 0.61218(14) 0.55075(10) 0.8748(3)
N5_7 N 0.53347(11) 0.53505(8) 0.8073(3)
N6_7 N 0.44063(11) 0.49959(8) 0.9268(3)
C31_5 C 0.45616(14) 0.56057(10) 0.5601(3)
C32_5 C 0.45705(17) 0.54542(12) 0.4177(4)
H17_5 H 0.4675 0.5237 0.4007
C33_2 C 0.44263(19) 0.56209(13) 0.3001(4)
H18_2 H 0.4425 0.5505 0.2035
N7_2 N 0.42896(16) 0.59366(12) 0.3160(4)
C34_5 C 0.42926(20) 0.60906(15) 0.4536(5)
H19_5 H 0.4203 0.6320 0.4667
C35_5 C 0.44192(16) 0.59338(12) 0.5778(4)
H20_7 H 0.4409 0.6048 0.6735
C36_9 C 0.66281(14) 0.57687(10) 0.8307(3)
C37_9 C 0.69348(16) 0.61939(11) 0.8966(4)
H21_9 H 0.6825 0.6330 0.9668
C38_9 C 0.73998(16) 0.64139(11) 0.8586(4)
H22_7 H 0.7608 0.6703 0.9047
C39_9 C 0.72774(16) 0.58345(11) 0.6955(4)
H23_7 H 0.7396 0.5707 0.6247
C40_9 C 0.68024(16) 0.55890(11) 0.7269(4)
H24_9 H 0.6602 0.5303 0.6778
C22_8 C 0.08224(11) 0.34181(11) 0.9865(4)
H13_8 H 0.0645 0.3545 0.9449
C23_6 C 0.08485(11) 0.30484(11) 0.9339(4)
H14_6 H 0.0695 0.2867 0.8488
C31_6 C 0.10609(10) 0.22892(10) 0.8935(3)
C32_6 C 0.12124(12) 0.24496(12) 0.7511(4)
H17_6 H 0.1429 0.2771 0.7341
C33_3 C 0.10457(13) 0.21387(14) 0.6335(4)
H18_3 H 0.1161 0.2253 0.5369
N7_3 N 0.07300(12) 0.16863(11) 0.6494(4)
C34_6 C 0.05760(15) 0.15353(13) 0.7870(5)
H19_6 H 0.0346 0.1216 0.8001
C35_6 C 0.07328(12) 0.18187(11) 0.9112(4)
H23_8 H 0.0959 0.5022 0.9581
H10_8 H 0.0037 0.5762 0.7619
Zn1_6 Zn 0.0000 0.5001 1.0000
C23_7 C 0.02850(11) 0.44668(16) 0.6005(4)
H14_7 H 0.0467 0.4495 0.5154
C24_8 C 0.03514(10) 0.48409(14) 0.6992(3)
C25_8 C 0.07224(10) 0.53059(13) 0.6909(3)
C26_8 C 0.08236(10) 0.56560(13) 0.7958(3)
C27_8 C 0.11807(11) 0.61447(16) 0.7800(4)
H15_8 H 0.1397 0.6281 0.7006
C28_8 C 0.11445(10) 0.63680(15) 0.9011(4)
H16_8 H 0.1331 0.6693 0.9220
C29_8 C 0.07733(10) 0.60238(14) 0.9924(3)
N5_8 N 0.00159(8) 0.46653(11) 0.8073(3)
N6_8 N 0.05897(8) 0.55937(11) 0.9268(3)
C31_7 C 0.10442(10) 0.54384(14) 0.5601(3)
C32_7 C 0.08838(12) 0.54295(17) 0.4177(4)
H17_7 H 0.0563 0.5325 0.4007
C33_4 C 0.11947(14) 0.55737(19) 0.3001(4)
H18_4 H 0.1081 0.5575 0.2035
N7_4 N 0.16471(11) 0.57104(16) 0.3160(4)
C34_7 C 0.17981(13) 0.57074(20) 0.4536(5)
H19_7 H 0.2118 0.5797 0.4667
C35_7 C 0.15147(11) 0.55808(16) 0.5778(4)
H20_8 H 0.1640 0.5591 0.6735
Zn3_5 Zn 1.0000 0.4999 0.0000
H22_8 H 0.9963 0.4238 0.2381
C2_8 C 0.91776(11) 0.65819(11) 0.0135(4)
H1_8 H 0.9355 0.6455 0.0551
C3_6 C 0.91515(11) 0.69516(11) 0.0661(4)
H2_6 H 0.9305 0.7133 0.1512
C11_6 C 0.89391(10) 0.77108(10) 0.1065(3)
C12_6 C 0.87876(12) 0.75504(12) 0.2489(4)
H5_6 H 0.8571 0.7229 0.2659
C13_4 C 0.89543(13) 0.78613(14) 0.3665(4)
H6_4 H 0.8839 0.7747 0.4631
N3_4 N 0.92700(12) 0.83137(11) 0.3506(4)
C14_6 C 0.94240(15) 0.84647(13) 0.2130(5)
H7_6 H 0.9654 0.8784 0.1999
C15_6 C 0.92672(12) 0.81813(11) 0.0888(4)
H11_8 H 0.9041 0.4978 0.0419
C3_7 C 0.97150(11) 0.55332(16) 0.3995(4)
H2_7 H 0.9533 0.5505 0.4846
C4_8 C 0.96486(10) 0.51591(14) 0.3008(3)
C5_8 C 0.92776(10) 0.46941(13) 0.3091(3)
C6_8 C 0.91764(10) 0.43440(13) 0.2042(3)
C7_8 C 0.88193(11) 0.38553(16) 0.2200(4)
H3_8 H 0.8603 0.3719 0.2994
C8_8 C 0.88555(10) 0.36320(15) 0.0989(4)
H4_8 H 0.8669 0.3307 0.0780
C9_8 C 0.92267(10) 0.39762(14) 0.0076(3)
N1_8 N 0.99841(8) 0.53347(11) 0.1927(3)
N2_8 N 0.94103(8) 0.44063(11) 0.0732(3)
C11_7 C 0.89558(10) 0.45616(14) 0.4399(3)
C12_7 C 0.91162(12) 0.45705(17) 0.5823(4)
H5_7 H 0.9437 0.4675 0.5993
C13_5 C 0.88053(14) 0.44263(19) 0.6999(4)
H6_5 H 0.8919 0.4425 0.7965
N3_5 N 0.83529(11) 0.42896(16) 0.6840(4)
C14_7 C 0.82019(13) 0.42926(20) 0.5464(5)
H7_7 H 0.7882 0.4203 0.5333
C15_7 C 0.84853(11) 0.44192(16) 0.4222(4)
H8_8 H 0.8360 0.4409 0.3265
C13_6 C 0.54720(14) 0.77596(19) 0.0332(4)
H6_6 H 0.5586 0.7758 0.1298
N3_6 N 0.50196(11) 0.76229(16) 0.0173(4)
Zn3_6 Zn 0.5000 0.0000 0.0000
H22_9 H 0.4274 0.0037 0.2381
C2_9 C 0.74044(16) 0.08224(11) 0.0135(4)
H1_9 H 0.7101 0.0645 0.0551
C3_8 C 0.78002(16) 0.08485(11) 0.0661(4)
H2_8 H 0.7829 0.0695 0.1512
C11_8 C 0.87718(14) 0.10609(10) 0.1065(3)
C12_8 C 0.87629(17) 0.12124(12) 0.2489(4)
H5_8 H 0.8659 0.1429 0.2659
C13_7 C 0.89071(19) 0.10457(13) 0.3665(4)
H6_7 H 0.8909 0.1161 0.4631
N3_7 N 0.90438(16) 0.07300(12) 0.3506(4)
C14_8 C 0.90408(20) 0.05760(15) 0.2130(5)
H7_8 H 0.9131 0.0346 0.1999
C15_8 C 0.89142(16) 0.07328(12) 0.0888(4)
H11_9 H 0.5938 0.0959 0.0419
C3_9 C 0.58181(11) 0.02850(11) 0.3995(4)
H2_9 H 0.5971 0.0467 0.4846
C4_9 C 0.55104(10) 0.03514(10) 0.3008(3)
C5_9 C 0.54164(9) 0.07224(10) 0.3091(3)
C6_9 C 0.51675(9) 0.08236(10) 0.2042(3)
C7_9 C 0.50359(11) 0.11807(11) 0.2200(4)
H3_9 H 0.5115 0.1397 0.2994
C8_9 C 0.47764(11) 0.11445(10) 0.0989(4)
H4_9 H 0.4637 0.1331 0.0780
C9_9 C 0.47494(10) 0.07733(10) 0.0076(3)
N1_9 N 0.53505(8) 0.00159(8) 0.1927(3)
N2_9 N 0.49959(8) 0.05897(8) 0.0732(3)
C11_9 C 0.56057(10) 0.10442(10) 0.4399(3)
C12_9 C 0.54542(12) 0.08838(12) 0.5823(4)
H5_9 H 0.5237 0.0563 0.5993
C13_8 C 0.56209(13) 0.11947(14) 0.6999(4)
H6_8 H 0.5505 0.1081 0.7965
N3_8 N 0.59366(12) 0.16471(11) 0.6840(4)
C14_9 C 0.60906(15) 0.17981(13) 0.5464(5)
H7_9 H 0.6320 0.2118 0.5333
C15_9 C 0.59338(12) 0.15147(11) 0.4222(4)
H8_9 H 0.6048 0.1640 0.3265
C13_9 C 0.22404(19) 0.77124(13) 0.0332(4)
H6_9 H 0.2242 0.7828 0.1298
N3_9 N 0.23771(16) 0.73967(12) 0.0173(4)
C22_9 C 0.25956(16) 0.91776(11) 0.9865(4)
H13_9 H 0.2899 0.9355 0.9449
C23_8 C 0.21998(16) 0.91515(11) 0.9339(4)
H14_8 H 0.2171 0.9305 0.8488
C31_8 C 0.12282(14) 0.89391(10) 0.8935(3)
C32_8 C 0.12371(17) 0.87876(12) 0.7511(4)
H17_8 H 0.1341 0.8571 0.7341
C33_5 C 0.10929(19) 0.89543(13) 0.6335(4)
H18_5 H 0.1091 0.8839 0.5369
N7_5 N 0.09562(16) 0.92700(12) 0.6494(4)
C34_8 C 0.09592(20) 0.94240(15) 0.7870(5)
H19_8 H 0.0869 0.9654 0.8001
C35_8 C 0.10858(16) 0.92672(12) 0.9112(4)
H23_9 H 0.4062 0.9041 0.9581
H10_9 H 0.5726 0.9963 0.7619
Zn1_7 Zn 0.5000 1.0000 1.0000
C23_9 C 0.41819(11) 0.97150(11) 0.6005(4)
H14_9 H 0.4029 0.9533 0.5154
C24_9 C 0.44896(10) 0.96486(10) 0.6992(3)
C25_9 C 0.45836(9) 0.92776(10) 0.6909(3)
C26_9 C 0.48325(9) 0.91764(10) 0.7958(3)
C27_9 C 0.49641(11) 0.88193(11) 0.7800(4)
H15_9 H 0.4885 0.8603 0.7006
C28_9 C 0.52236(11) 0.88555(10) 0.9011(4)
H16_9 H 0.5363 0.8669 0.9220
C29_9 C 0.52506(10) 0.92267(10) 0.9924(3)
N5_9 N 0.46495(8) 0.99841(8) 0.8073(3)
N6_9 N 0.50041(8) 0.94103(8) 0.9268(3)
C31_9 C 0.43943(10) 0.89558(10) 0.5601(3)
C32_9 C 0.45458(12) 0.91162(12) 0.4177(4)
H17_9 H 0.4763 0.9437 0.4007
C33_6 C 0.43791(13) 0.88053(14) 0.3001(4)
H18_6 H 0.4495 0.8919 0.2035
N7_6 N 0.40634(12) 0.83529(11) 0.3160(4)
C34_9 C 0.39094(15) 0.82019(13) 0.4536(5)
H19_9 H 0.3680 0.7882 0.4667
C35_9 C 0.40662(12) 0.84853(11) 0.5778(4)
H20_9 H 0.3952 0.8360 0.6735
C33_7 C 0.77124(13) 0.54720(14) 0.9668(4)
H18_7 H 0.7828 0.5586 0.8702
N7_7 N 0.73967(12) 0.50196(11) 0.9827(4)
C33_8 C 0.45280(14) 0.22404(19) 0.9668(4)
H18_8 H 0.4414 0.2242 0.8702
N7_8 N 0.49804(11) 0.23771(16) 0.9827(4)
C33_9 C 0.77596(19) 0.22876(13) 0.9668(4)
H18_9 H 0.7758 0.2172 0.8702
N7_9 N 0.76229(16) 0.26033(12) 0.9827(4)
loop_
_geom_bond_atom_site_label_1
_geom_bond_atom_site_label_2
_geom_bond_site_symmetry_1
_geom_bond_site_symmetry_2
H6 C13 1_555 1_555
N3 C13 1_555 1_555
Zn1 N1 1_555 1_555
C1 C2 1_555 1_555
C2 H1 1_555 1_555
C3 C2 1_555 1_555
H2 C3 1_555 1_555
C4 C3 1_555 1_555
C5 C4 1_555 1_555
C6 C5 1_555 1_555
C7 C6 1_555 1_555
H3 C7 1_555 1_555
C8 C7 1_555 1_555
H4 C8 1_555 1_555
C9 C8 1_555 1_555
C10 C1 1_555 1_555
N1 C1 1_555 1_555
N2 Zn1 1_555 1_555
C11 C5 1_555 1_555
C12 C11 1_555 1_555
H5 C12 1_555 1_555
H7 C14 1_555 1_555
C15 C11 1_555 1_555
H8 C15 1_555 1_555
C16 C10 1_555 1_555
C17 C16 1_555 1_555
H9 C17 1_555 1_555
C18 C17 1_555 1_555
H10 C18 1_555 1_555
N4 C18 1_555 1_555
C19 N4 1_555 1_555
H11 C19 1_555 1_555
C20 C16 1_555 1_555
H12 C20 1_555 1_555
Zn2 N4 1_555 1_555
C25 C24 1_555 1_555
C26 C25 1_555 1_555
C27 C26 1_555 1_555
H15 C27 1_555 1_555
C28 C27 1_555 1_555
H16 C28 1_555 1_555
C29 C10 1_555 1_555
C30 C9 1_555 1_555
N5 Zn1 1_555 1_555
N6 Zn1 1_555 1_555
C36 C30 1_555 1_555
C37 C36 1_555 1_555
H21 C37 1_555 1_555
C38 C37 1_555 1_555
N8 C38 1_555 1_555
N9 Zn1 1_555 1_555
N10 Zn1 1_555 1_555
C39 N8 1_555 1_555
C40 C36 1_555 1_555
H24 C40 1_555 1_555
C4 N1 1_555 1_555
C6 N2 1_555 1_555
C9 N2 1_555 1_555
C14 C15 1_555 1_555
C19 C20 1_555 1_555
C21 C30 1_555 1_555
C21 N5 1_555 1_555
C24 N5 1_555 1_555
C26 N6 1_555 1_555
C28 C29 1_555 1_555
C29 N6 1_555 1_555
C39 C40 1_555 1_555
H9_2 C17_2 1_555 1_555
C18_2 C17_2 1_555 1_555
H10_2 C18_2 1_555 1_555
N4_2 C18_2 1_555 1_555
C19_2 N4_2 1_555 1_555
H11_2 C19_2 1_555 1_555
Zn2_2 N4_2 1_555 1_555
C19_2 C20_2 1_555 1_555
Zn1_2 N1_2 1_555 1_555
C1_2 C2_2 1_555 1_555
C2_2 H1_2 1_555 1_555
C3_2 C2_2 1_555 1_555
H2_2 C3_2 1_555 1_555
C4_2 C3_2 1_555 1_555
C5_2 C4_2 1_555 1_555
C6_2 C5_2 1_555 1_555
C7_2 C6_2 1_555 1_555
H3_2 C7_2 1_555 1_555
C8_2 C7_2 1_555 1_555
H4_2 C8_2 1_555 1_555
C9_2 C8_2 1_555 1_555
C10_2 C1_2 1_555 1_555
N1_2 C1_2 1_555 1_555
N2_2 Zn1_2 1_555 1_555
C11_2 C5_2 1_555 1_555
C12_2 C11_2 1_555 1_555
H5_2 C12_2 1_555 1_555
H7_2 C14_2 1_555 1_555
C15_2 C11_2 1_555 1_555
H8_2 C15_2 1_555 1_555
C16_2 C10_2 1_555 1_555
Zn3_2 N8_2 1_555 1_555
C25_2 C24_2 1_555 1_555
C26_2 C25_2 1_555 1_555
C27_2 C26_2 1_555 1_555
H15_2 C27_2 1_555 1_555
C28_2 C27_2 1_555 1_555
C29_2 C10_2 1_555 1_555
C30_2 C9_2 1_555 1_555
N5_2 Zn1_2 1_555 1_555
N6_2 Zn1_2 1_555 1_555
C36_2 C30_2 1_555 1_555
C37_2 C36_2 1_555 1_555
H21_2 C37_2 1_555 1_555
C38_2 C37_2 1_555 1_555
H22 C38_2 1_555 1_555
N8_2 C38_2 1_555 1_555
N9_2 Zn1_2 1_555 1_555
N10_2 Zn1_2 1_555 1_555
C39_2 N8_2 1_555 1_555
C40_2 C36_2 1_555 1_555
H24_2 C40_2 1_555 1_555
C4_2 N1_2 1_555 1_555
C6_2 N2_2 1_555 1_555
C9_2 N2_2 1_555 1_555
C14_2 C15_2 1_555 1_555
C21_2 C30_2 1_555 1_555
C21_2 N5_2 1_555 1_555
C24_2 N5_2 1_555 1_555
C26_2 N6_2 1_555 1_555
C28_2 C29_2 1_555 1_555
C29_2 N6_2 1_555 1_555
C39_2 C40_2 1_555 1_555
C22 H13 1_555 1_555
C23 C22 1_555 1_555
H14 C23 1_555 1_555
C32 C31 1_555 1_555
H17 C32 1_555 1_555
C33 C32 1_555 1_555
H18 C33 1_555 1_555
N7 C33 1_555 1_555
C34 N7 1_555 1_555
H19 C34 1_555 1_555
C35 C31 1_555 1_555
C34 C35 1_555 1_555
Zn1_3 N1_3 1_555 1_555
C1_3 C2_3 1_555 1_555
C2_3 H1_3 1_555 1_555
C3_3 C2_3 1_555 1_555
H2_3 C3_3 1_555 1_555
C4_3 C3_3 1_555 1_555
C5_3 C4_3 1_555 1_555
C6_3 C5_3 1_555 1_555
C7_3 C6_3 1_555 1_555
H3_3 C7_3 1_555 1_555
C8_3 C7_3 1_555 1_555
H4_3 C8_3 1_555 1_555
C9_3 C8_3 1_555 1_555
C10_3 C1_3 1_555 1_555
N1_3 C1_3 1_555 1_555
N2_3 Zn1_3 1_555 1_555
C11_3 C5_3 1_555 1_555
C12_3 C11_3 1_555 1_555
H5_3 C12_3 1_555 1_555
H7_3 C14_3 1_555 1_555
C15_3 C11_3 1_555 1_555
H8_3 C15_3 1_555 1_555
C16_3 C10_3 1_555 1_555
C25_3 C24_3 1_555 1_555
C26_3 C25_3 1_555 1_555
C27_3 C26_3 1_555 1_555
H15_3 C27_3 1_555 1_555
C28_3 C27_3 1_555 1_555
C29_3 C10_3 1_555 1_555
C30_3 C9_3 1_555 1_555
N5_3 Zn1_3 1_555 1_555
N6_3 Zn1_3 1_555 1_555
C36_3 C30_3 1_555 1_555
C37_3 C36_3 1_555 1_555
H21_3 C37_3 1_555 1_555
C38_3 C37_3 1_555 1_555
N8_3 C38_3 1_555 1_555
N9_3 Zn1_3 1_555 1_555
N10_3 Zn1_3 1_555 1_555
C39_3 N8_3 1_555 1_555
C40_3 C36_3 1_555 1_555
H24_3 C40_3 1_555 1_555
C4_3 N1_3 1_555 1_555
C6_3 N2_3 1_555 1_555
C9_3 N2_3 1_555 1_555
C14_3 C15_3 1_555 1_555
C21_3 C30_3 1_555 1_555
C21_3 N5_3 1_555 1_555
C24_3 N5_3 1_555 1_555
C26_3 N6_3 1_555 1_555
C28_3 C29_3 1_555 1_555
C29_3 N6_3 1_555 1_555
C39_3 C40_3 1_555 1_555
H9_3 C17_3 1_555 1_555
C18_3 C17_3 1_555 1_555
H10_3 C18_3 1_555 1_555
N4_3 C18_3 1_555 1_555
C19_3 N4_3 1_555 1_555
H11_3 C19_3 1_555 1_555
Zn2_3 N4_3 1_555 1_555
C19_3 C20_3 1_555 1_555
Zn2_3 N1_4 1_555 1_555
C5_4 C4_4 1_555 1_555
C6_4 C5_4 1_555 1_555
C7_4 C6_4 1_555 1_555
H3_4 C7_4 1_555 1_555
C8_4 C7_4 1_555 1_555
H4_4 C8_4 1_555 1_555
C9_4 C8_4 1_555 1_555
C10_4 C1_4 1_555 1_555
N1_4 C1_4 1_555 1_555
N2_4 Zn2_3 1_555 1_555
C16_4 C10_4 1_555 1_555
C17_4 C16_4 1_555 1_555
H9_4 C17_4 1_555 1_555
C18_4 C17_4 1_555 1_555
N4_4 C18_4 1_555 1_555
C19_4 N4_4 1_555 1_555
C20_4 C16_4 1_555 1_555
H12_4 C20_4 1_555 1_555
Zn3 N4_4 1_555 1_555
C21_4 C22_2 1_555 1_555
C22_2 H13_2 1_555 1_555
C23_2 C22_2 1_555 1_555
H14_2 C23_2 1_555 1_555
C24_4 C23_2 1_555 1_555
C25_4 C24_4 1_555 1_555
C26_4 C25_4 1_555 1_555
C27_4 C26_4 1_555 1_555
H15_4 C27_4 1_555 1_555
C28_4 C27_4 1_555 1_555
H16_4 C28_4 1_555 1_555
C29_4 C10_4 1_555 1_555
C30_4 C9_4 1_555 1_555
N5_4 Zn2_3 1_555 1_555
N6_4 Zn2_3 1_555 1_555
C31_2 C25_4 1_555 1_555
C32_2 C31_2 1_555 1_555
H17_2 C32_2 1_555 1_555
H19_2 C34_2 1_555 1_555
C35_2 C31_2 1_555 1_555
H20_4 C35_2 1_555 1_555
C36_4 C30_4 1_555 1_555
C37_4 C36_4 1_555 1_555
H21_4 C37_4 1_555 1_555
C38_4 C37_4 1_555 1_555
H22_2 C38_4 1_555 1_555
N9_2 C38_4 1_555 1_555
N9_4 Zn2_3 1_555 1_555
C39_4 N9_2 1_555 1_555
H23_2 C39_4 1_555 1_555
C40_4 C36_4 1_555 1_555
H24_4 C40_4 1_555 1_555
C4_4 N1_4 1_555 1_555
C6_4 N2_4 1_555 1_555
C9_4 N2_4 1_555 1_555
C19_4 C20_4 1_555 1_555
C21_4 C30_4 1_555 1_555
C21_4 N5_4 1_555 1_555
C24_4 N5_4 1_555 1_555
C26_4 N6_4 1_555 1_555
C28_4 C29_4 1_555 1_555
C29_4 N6_4 1_555 1_555
C34_2 C35_2 1_555 1_555
C39_4 C40_4 1_555 1_555
C2_4 H1_4 1_555 1_555
C3_4 C2_4 1_555 1_555
H2_4 C3_4 1_555 1_555
C12_4 C11_4 1_555 1_555
H5_4 C12_4 1_555 1_555
C13_2 C12_4 1_555 1_555
H6_2 C13_2 1_555 1_555
N3_2 C13_2 1_555 1_555
C14_4 N3_2 1_555 1_555
H7_4 C14_4 1_555 1_555
C15_4 C11_4 1_555 1_555
C14_4 C15_4 1_555 1_555
Zn2 N1_5 1_555 1_555
C5_5 C4_5 1_555 1_555
C6_5 C5_5 1_555 1_555
C7_5 C6_5 1_555 1_555
H3_5 C7_5 1_555 1_555
C8_5 C7_5 1_555 1_555
C9_5 C8_5 1_555 1_555
C10_5 C1_5 1_555 1_555
N1_5 C1_5 1_555 1_555
N2_5 Zn2 1_555 1_555
C16_5 C10_5 1_555 1_555
C17_5 C16_5 1_555 1_555
H9_5 C17_5 1_555 1_555
C18_5 C17_5 1_555 1_555
H10_4 C18_5 1_555 1_555
N4_5 C18_5 1_555 1_555
C19_5 N4_5 1_555 1_555
C20_5 C16_5 1_555 1_555
H12_5 C20_5 1_555 1_555
Zn3_3 N4_5 1_555 1_555
C21_5 C22_3 1_555 1_555
C22_3 H13_3 1_555 1_555
C23_3 C22_3 1_555 1_555
H14_3 C23_3 1_555 1_555
C24_5 C23_3 1_555 1_555
C25_5 C24_5 1_555 1_555
C26_5 C25_5 1_555 1_555
C27_5 C26_5 1_555 1_555
H15_5 C27_5 1_555 1_555
C28_5 C27_5 1_555 1_555
H16_5 C28_5 1_555 1_555
C29_5 C10_5 1_555 1_555
C30_5 C9_5 1_555 1_555
N5_5 Zn2 1_555 1_555
N6_5 Zn2 1_555 1_555
C31_3 C25_5 1_555 1_555
C32_3 C31_3 1_555 1_555
H17_3 C32_3 1_555 1_555
H19_3 C34_3 1_555 1_555
C35_3 C31_3 1_555 1_555
H20_5 C35_3 1_555 1_555
C36_5 C30_5 1_555 1_555
N9_5 Zn2 1_555 1_555
C4_5 N1_5 1_555 1_555
C6_5 N2_5 1_555 1_555
C9_5 N2_5 1_555 1_555
C19_5 C20_5 1_555 1_555
C21_5 C30_5 1_555 1_555
C21_5 N5_5 1_555 1_555
C24_5 N5_5 1_555 1_555
C26_5 N6_5 1_555 1_555
C28_5 C29_5 1_555 1_555
C29_5 N6_5 1_555 1_555
C34_3 C35_3 1_555 1_555
H21_5 C37_5 1_555 1_555
C38_5 C37_5 1_555 1_555
H22_3 C38_5 1_555 1_555
N9_3 C38_5 1_555 1_555
C39_5 N9_3 1_555 1_555
H23_3 C39_5 1_555 1_555
C39_5 C40_5 1_555 1_555
H21_6 C37_6 1_555 1_555
C38_6 C37_6 1_555 1_555
H22_4 C38_6 1_555 1_555
N9 C38_6 1_555 1_555
C39_6 N9 1_555 1_555
H23_4 C39_6 1_555 1_555
C39_6 C40_6 1_555 1_555
Zn2_2 N1_6 1_555 1_555
C5_6 C4_6 1_555 1_555
C6_6 C5_6 1_555 1_555
C7_6 C6_6 1_555 1_555
H3_6 C7_6 1_555 1_555
C8_6 C7_6 1_555 1_555
C9_6 C8_6 1_555 1_555
C10_6 C1_6 1_555 1_555
N1_6 C1_6 1_555 1_555
N2_6 Zn2_2 1_555 1_555
C16_6 C10_6 1_555 1_555
C17_6 C16_6 1_555 1_555
H9_6 C17_6 1_555 1_555
C18_6 C17_6 1_555 1_555
N4_6 C18_6 1_555 1_555
C19_6 N4_6 1_555 1_555
C20_6 C16_6 1_555 1_555
H12_6 C20_6 1_555 1_555
Zn3_4 N4_6 1_555 1_555
C21_6 C22_4 1_555 1_555
C22_4 H13_4 1_555 1_555
C23_4 C22_4 1_555 1_555
H14_4 C23_4 1_555 1_555
C24_6 C23_4 1_555 1_555
C25_6 C24_6 1_555 1_555
C26_6 C25_6 1_555 1_555
C27_6 C26_6 1_555 1_555
H15_6 C27_6 1_555 1_555
C28_6 C27_6 1_555 1_555
H16_6 C28_6 1_555 1_555
C29_6 C10_6 1_555 1_555
C30_6 C9_6 1_555 1_555
N5_6 Zn2_2 1_555 1_555
N6_6 Zn2_2 1_555 1_555
C31_4 C25_6 1_555 1_555
C32_4 C31_4 1_555 1_555
H17_4 C32_4 1_555 1_555
H19_4 C34_4 1_555 1_555
C35_4 C31_4 1_555 1_555
H20_6 C35_4 1_555 1_555
C36_6 C30_6 1_555 1_555
N9_6 Zn2_2 1_555 1_555
C4_6 N1_6 1_555 1_555
C6_6 N2_6 1_555 1_555
C9_6 N2_6 1_555 1_555
C19_6 C20_6 1_555 1_555
C21_6 C30_6 1_555 1_555
C21_6 N5_6 1_555 1_555
C24_6 N5_6 1_555 1_555
C26_6 N6_6 1_555 1_555
C28_6 C29_6 1_555 1_555
C29_6 N6_6 1_555 1_555
C34_4 C35_4 1_555 1_555
C21_7 C22_5 1_555 1_555
C22_5 H13_5 1_555 1_555
C36_7 C30_7 1_555 1_555
C37_7 C36_7 1_555 1_555
H21_7 C37_7 1_555 1_555
C38_7 C37_7 1_555 1_555
H22_5 C38_7 1_555 1_555
N9_5 C38_7 1_555 1_555
C39_7 N9_5 1_555 1_555
H23_5 C39_7 1_555 1_555
C40_7 C36_7 1_555 1_555
H24_7 C40_7 1_555 1_555
C21_7 C30_7 1_555 1_555
C39_7 C40_7 1_555 1_555
C1_7 C2_5 1_555 1_555
C2_5 H1_5 1_555 1_555
C10_7 C1_7 1_555 1_555
C16_7 C10_7 1_555 1_555
C17_7 C16_7 1_555 1_555
H9_7 C17_7 1_555 1_555
C18_7 C17_7 1_555 1_555
H10_5 C18_7 1_555 1_555
N10_2 C18_7 1_555 1_555
C19_7 N10_2 1_555 1_555
H11_5 C19_7 1_555 1_555
C20_7 C16_7 1_555 1_555
H12_7 C20_7 1_555 1_555
N8_3 Zn1_4 1_555 1_555
C19_7 C20_7 1_555 1_555
C1_8 C2_6 1_555 1_555
C2_6 H1_6 1_555 1_555
C10_8 C1_8 1_555 1_555
C16_8 C10_8 1_555 1_555
C17_8 C16_8 1_555 1_555
H9_8 C17_8 1_555 1_555
C18_8 C17_8 1_555 1_555
H10_6 C18_8 1_555 1_555
N10_3 C18_8 1_555 1_555
C19_8 N10_3 1_555 1_555
H11_6 C19_8 1_555 1_555
C20_8 C16_8 1_555 1_555
H12_8 C20_8 1_555 1_555
N8 Zn1_5 1_555 1_555
C19_8 C20_8 1_555 1_555
C21_8 C22_6 1_555 1_555
C22_6 H13_6 1_555 1_555
C36_8 C30_8 1_555 1_555
C37_8 C36_8 1_555 1_555
H21_8 C37_8 1_555 1_555
C38_8 C37_8 1_555 1_555
H22_6 C38_8 1_555 1_555
N9_6 C38_8 1_555 1_555
C39_8 N9_6 1_555 1_555
H23_6 C39_8 1_555 1_555
C40_8 C36_8 1_555 1_555
H24_8 C40_8 1_555 1_555
C21_8 C30_8 1_555 1_555
C39_8 C40_8 1_555 1_555
Zn3_2 N1_7 1_555 1_555
C1_9 C2_7 1_555 1_555
C2_7 H1_7 1_555 1_555
C3_5 C2_7 1_555 1_555
H2_5 C3_5 1_555 1_555
C4_7 C3_5 1_555 1_555
C5_7 C4_7 1_555 1_555
C6_7 C5_7 1_555 1_555
C7_7 C6_7 1_555 1_555
H3_7 C7_7 1_555 1_555
C8_7 C7_7 1_555 1_555
H4_7 C8_7 1_555 1_555
C9_7 C8_7 1_555 1_555
C10_9 C1_9 1_555 1_555
N1_7 C1_9 1_555 1_555
N2_7 Zn3_2 1_555 1_555
C11_5 C5_7 1_555 1_555
C12_5 C11_5 1_555 1_555
H5_5 C12_5 1_555 1_555
C13_3 C12_5 1_555 1_555
H6_3 C13_3 1_555 1_555
N3_3 C13_3 1_555 1_555
C14_5 N3_3 1_555 1_555
H7_5 C14_5 1_555 1_555
C15_5 C11_5 1_555 1_555
H8_7 C15_5 1_555 1_555
C16_9 C10_9 1_555 1_555
C17_9 C16_9 1_555 1_555
H9_9 C17_9 1_555 1_555
C18_9 C17_9 1_555 1_555
H10_7 C18_9 1_555 1_555
N10 C18_9 1_555 1_555
C19_9 N10 1_555 1_555
H11_7 C19_9 1_555 1_555
C20_9 C16_9 1_555 1_555
H12_9 C20_9 1_555 1_555
C4_7 N1_7 1_555 1_555
C6_7 N2_7 1_555 1_555
C9_7 N2_7 1_555 1_555
C14_5 C15_5 1_555 1_555
C19_9 C20_9 1_555 1_555
C21_9 C22_7 1_555 1_555
C22_7 H13_7 1_555 1_555
C23_5 C22_7 1_555 1_555
H14_5 C23_5 1_555 1_555
C24_7 C23_5 1_555 1_555
C25_7 C24_7 1_555 1_555
C26_7 C25_7 1_555 1_555
C27_7 C26_7 1_555 1_555
H15_7 C27_7 1_555 1_555
C28_7 C27_7 1_555 1_555
H16_7 C28_7 1_555 1_555
N5_7 Zn3_3 1_555 1_555
N6_7 Zn3_3 1_555 1_555
C31_5 C25_7 1_555 1_555
C32_5 C31_5 1_555 1_555
H17_5 C32_5 1_555 1_555
C33_2 C32_5 1_555 1_555
H18_2 C33_2 1_555 1_555
N7_2 C33_2 1_555 1_555
C34_5 N7_2 1_555 1_555
H19_5 C34_5 1_555 1_555
C35_5 C31_5 1_555 1_555
H20_7 C35_5 1_555 1_555
C36_9 C30_9 1_555 1_555
C37_9 C36_9 1_555 1_555
H21_9 C37_9 1_555 1_555
C38_9 C37_9 1_555 1_555
H22_7 C38_9 1_555 1_555
N9_4 C38_9 1_555 1_555
C39_9 N9_4 1_555 1_555
H23_7 C39_9 1_555 1_555
C40_9 C36_9 1_555 1_555
H24_9 C40_9 1_555 1_555
C21_9 C30_9 1_555 1_555
C21_9 N5_7 1_555 1_555
C24_7 N5_7 1_555 1_555
C26_7 N6_7 1_555 1_555
C28_7 C29_7 1_555 1_555
C29_7 N6_7 1_555 1_555
C34_5 C35_5 1_555 1_555
C39_9 C40_9 1_555 1_555
C22_8 H13_8 1_555 1_555
C23_6 C22_8 1_555 1_555
H14_6 C23_6 1_555 1_555
C32_6 C31_6 1_555 1_555
H17_6 C32_6 1_555 1_555
C33_3 C32_6 1_555 1_555
H18_3 C33_3 1_555 1_555
N7_3 C33_3 1_555 1_555
C34_6 N7_3 1_555 1_555
H19_6 C34_6 1_555 1_555
C35_6 C31_6 1_555 1_555
C34_6 C35_6 1_555 1_555
H14_7 C23_7 1_555 1_555
C24_8 C23_7 1_555 1_555
C25_8 C24_8 1_555 1_555
C26_8 C25_8 1_555 1_555
C27_8 C26_8 1_555 1_555
H15_8 C27_8 1_555 1_555
C28_8 C27_8 1_555 1_555
H16_8 C28_8 1_555 1_555
N5_8 Zn1_6 1_555 1_555
N6_8 Zn1_6 1_555 1_555
C31_7 C25_8 1_555 1_555
C32_7 C31_7 1_555 1_555
H17_7 C32_7 1_555 1_555
C33_4 C32_7 1_555 1_555
H18_4 C33_4 1_555 1_555
N7_4 C33_4 1_555 1_555
C34_7 N7_4 1_555 1_555
H19_7 C34_7 1_555 1_555
C35_7 C31_7 1_555 1_555
H20_8 C35_7 1_555 1_555
C24_8 N5_8 1_555 1_555
C26_8 N6_8 1_555 1_555
C28_8 C29_8 1_555 1_555
C29_8 N6_8 1_555 1_555
C34_7 C35_7 1_555 1_555
C2_8 H1_8 1_555 1_555
C3_6 C2_8 1_555 1_555
H2_6 C3_6 1_555 1_555
C12_6 C11_6 1_555 1_555
H5_6 C12_6 1_555 1_555
C13_4 C12_6 1_555 1_555
H6_4 C13_4 1_555 1_555
N3_4 C13_4 1_555 1_555
C14_6 N3_4 1_555 1_555
H7_6 C14_6 1_555 1_555
C15_6 C11_6 1_555 1_555
C14_6 C15_6 1_555 1_555
H2_7 C3_7 1_555 1_555
C4_8 C3_7 1_555 1_555
C5_8 C4_8 1_555 1_555
C6_8 C5_8 1_555 1_555
C7_8 C6_8 1_555 1_555
H3_8 C7_8 1_555 1_555
C8_8 C7_8 1_555 1_555
H4_8 C8_8 1_555 1_555
C9_8 C8_8 1_555 1_555
C11_7 C5_8 1_555 1_555
C12_7 C11_7 1_555 1_555
H5_7 C12_7 1_555 1_555
C13_5 C12_7 1_555 1_555
H6_5 C13_5 1_555 1_555
N3_5 C13_5 1_555 1_555
C14_7 N3_5 1_555 1_555
H7_7 C14_7 1_555 1_555
C15_7 C11_7 1_555 1_555
H8_8 C15_7 1_555 1_555
C4_8 N1_8 1_555 1_555
C6_8 N2_8 1_555 1_555
C9_8 N2_8 1_555 1_555
C14_7 C15_7 1_555 1_555
N1_8 Zn3_5 1_555 1_555
N2_8 Zn3_5 1_555 1_555
H6_6 C13_6 1_555 1_555
N3_6 C13_6 1_555 1_555
C2_9 H1_9 1_555 1_555
C3_8 C2_9 1_555 1_555
H2_8 C3_8 1_555 1_555
C12_8 C11_8 1_555 1_555
H5_8 C12_8 1_555 1_555
C13_7 C12_8 1_555 1_555
H6_7 C13_7 1_555 1_555
N3_7 C13_7 1_555 1_555
C14_8 N3_7 1_555 1_555
H7_8 C14_8 1_555 1_555
C15_8 C11_8 1_555 1_555
C14_8 C15_8 1_555 1_555
H2_9 C3_9 1_555 1_555
C4_9 C3_9 1_555 1_555
C5_9 C4_9 1_555 1_555
C6_9 C5_9 1_555 1_555
C7_9 C6_9 1_555 1_555
H3_9 C7_9 1_555 1_555
C8_9 C7_9 1_555 1_555
H4_9 C8_9 1_555 1_555
C9_9 C8_9 1_555 1_555
C11_9 C5_9 1_555 1_555
C12_9 C11_9 1_555 1_555
H5_9 C12_9 1_555 1_555
C13_8 C12_9 1_555 1_555
H6_8 C13_8 1_555 1_555
N3_8 C13_8 1_555 1_555
C14_9 N3_8 1_555 1_555
H7_9 C14_9 1_555 1_555
C15_9 C11_9 1_555 1_555
H8_9 C15_9 1_555 1_555
C4_9 N1_9 1_555 1_555
C6_9 N2_9 1_555 1_555
C9_9 N2_9 1_555 1_555
C14_9 C15_9 1_555 1_555
N1_9 Zn3_6 1_555 1_555
N2_9 Zn3_6 1_555 1_555
H6_9 C13_9 1_555 1_555
N3_9 C13_9 1_555 1_555
C22_9 H13_9 1_555 1_555
C23_8 C22_9 1_555 1_555
H14_8 C23_8 1_555 1_555
C32_8 C31_8 1_555 1_555
H17_8 C32_8 1_555 1_555
C33_5 C32_8 1_555 1_555
H18_5 C33_5 1_555 1_555
N7_5 C33_5 1_555 1_555
C34_8 N7_5 1_555 1_555
H19_8 C34_8 1_555 1_555
C35_8 C31_8 1_555 1_555
C34_8 C35_8 1_555 1_555
H14_9 C23_9 1_555 1_555
C24_9 C23_9 1_555 1_555
C25_9 C24_9 1_555 1_555
C26_9 C25_9 1_555 1_555
C27_9 C26_9 1_555 1_555
H15_9 C27_9 1_555 1_555
C28_9 C27_9 1_555 1_555
H16_9 C28_9 1_555 1_555
N5_9 Zn1_7 1_555 1_555
N6_9 Zn1_7 1_555 1_555
C31_9 C25_9 1_555 1_555
C32_9 C31_9 1_555 1_555
H17_9 C32_9 1_555 1_555
C33_6 C32_9 1_555 1_555
H18_6 C33_6 1_555 1_555
N7_6 C33_6 1_555 1_555
C34_9 N7_6 1_555 1_555
H19_9 C34_9 1_555 1_555
C35_9 C31_9 1_555 1_555
H20_9 C35_9 1_555 1_555
C24_9 N5_9 1_555 1_555
C26_9 N6_9 1_555 1_555
C28_9 C29_9 1_555 1_555
C29_9 N6_9 1_555 1_555
C34_9 C35_9 1_555 1_555
H18_7 C33_7 1_555 1_555
N7_7 C33_7 1_555 1_555
H18_8 C33_8 1_555 1_555
N7_8 C33_8 1_555 1_555
H18_9 C33_9 1_555 1_555
N7_9 C33_9 1_555 1_555

#END
