
###############################################################################
#
# This file contains modified crystal structure data generated from the
# MOF subset of the Cambridge Structural Database (CSD) v543 
# hosted by the Cambridge Crystallographic Data Centre (CCDC).
#
# This work is licensed under the Creative Commons
# Attribution-NonCommercial-ShareAlike 4.0 International License.
# To view a copy of this license, visit
# http://creativecommons.org/licenses/by-nc-sa/4.0/
# or send a letter to
# Creative Commons, PO Box 1866, Mountain View, CA 94042, USA.
#
# CIF created using the CSD Python API on 29 September 2022
# The structure has been converted into the P1 space group
# The structure has a 3D framework
# The original CSD entry QANSUV is in the rhombohedral crystal system
# The framework has been calculated to contain at least 10.0% void space
# The void calculation uses a probe of radius 1.32A, grid spacing 0.4
# H atom positions have been added when not included in the experimental data
# Generated hydrogen atom positions removed from atoms on special positions
#
###############################################################################

data_QANSUV
_chemical_formula_moiety         '(C504 H367 Cl10 Cu78 N202 O175)n'
_symmetry_cell_setting           triclinic
_symmetry_space_group_name_H-M   'P 1'
_symmetry_Int_Tables_number      1
_space_group_name_Hall           'P 1'
loop_
_symmetry_equiv_pos_site_id
_symmetry_equiv_pos_as_xyz
1 x,y,z
_cell_length_a                   23.9647(10)
_cell_length_b                   23.9647(10)
_cell_length_c                   40.979(3)
_cell_angle_alpha                90
_cell_angle_beta                 90
_cell_angle_gamma                120
_cell_volume                     20381.5
loop_
_atom_site_label
_atom_site_type_symbol
_atom_site_fract_x
_atom_site_fract_y
_atom_site_fract_z
O3 O 0.0056(3) 0.1166(3) 0.40214(16)
O4 O 0.0212(3) 0.1962(3) 0.36968(14)
Cu5 Cu 0.07904(6) 0.36358(4) 0.38399(2)
Cu10 Cu 0.03024(4) 0.41238(6) 0.44935(2)
Cu22 Cu 0.09965(4) 0.23121(7) 0.39902(2)
Cu38 Cu 0.1668 0.3334 0.3334
Cl2 Cl 0.1332(2) 0.4666(2) 0.4167
N17 N 0.0535(4) 0.3135(5) 0.42602(14)
N28 N 0.0551(3) 0.2596(4) 0.43083(14)
N36 N 0.1550(5) 0.2204(4) 0.36568(14)
N53 N 0.1108(5) 0.4143(4) 0.34268(15)
O17 O 0.1461(5) 0.2187(3) 0.43411(13)
O38 O 0.1386(4) 0.3319(3) 0.37804(12)
Cu2 Cu 0.76632(4) 0.20178(6) 0.23235(2)
Cl1 Cl 0.7999(2) 0.0000 0.2500
N1 N 0.6936(4) 0.0333(3) 0.28438(14)
N2 N 0.7202(4) 0.0734(3) 0.25935(14)
N3 N 0.7218(3) 0.1289(3) 0.26416(14)
O1 O 0.5604(4) 0.0112(3) 0.39245(17)
O2 O 0.5940(4) 0.1146(3) 0.39922(13)
C1 C 0.8830(6) 0.0370(4) 0.37733(19)
H5 H 0.8955 0.0219 0.3952
C2 C 0.9207(6) 0.0978(4) 0.3657(2)
C3 C 0.8993(6) 0.1222(4) 0.3397(2)
H6 H 0.9251 0.1648 0.3332
C4 C 0.8418(6) 0.0847(4) 0.3240(2)
H7 H 0.8284 0.1008 0.3069
C5 C 0.8046(6) 0.0212(4) 0.33485(18)
C7 C 0.9866(4) 0.1390(4) 0.3805(2)
C8 C 0.6422(6) 0.0433(4) 0.33617(18)
H8 H 0.6284 0.0023 0.3445
C9 C 0.6304(6) 0.0866(4) 0.35228(19)
C10 C 0.6509(6) 0.1487(4) 0.3395(2)
H9 H 0.6426 0.1768 0.3514
C11 C 0.6821(6) 0.1689(4) 0.3105(2)
H10 H 0.6950 0.2098 0.3023
C12 C 0.6940(6) 0.1246(4) 0.29348(18)
C13 C 0.6757(6) 0.0636(4) 0.30663(18)
C14 C 0.5920(6) 0.0682(4) 0.3840(2)
Cu4 Cu 0.74571(6) 0.04880(4) 0.21732(2)
Cu8 Cu 0.61787(4) 0.03024(4) 0.55065(2)
Cu9 Cu 0.92096(6) 0.28453(4) 0.11601(2)
Cu11 Cu 0.36358(4) 0.07904(6) 0.11601(2)
Cu15 Cu 0.71547(4) 0.07904(6) 0.61601(2)
Cu17 Cu 0.41238(6) 0.03024(4) 0.05065(2)
Cu20 Cu 0.53511(6) 0.10213(7) 0.43432(2)
Cu23 Cu 0.79822(6) 0.56454(7) 0.23235(2)
Cu24 Cu 0.89787(7) 0.43299(4) 0.43432(2)
Cu25 Cu 0.43546(7) 0.23368(4) 0.23235(2)
Cu27 Cu 0.90035(4) 0.13155(6) 0.10098(2)
Cu32 Cu 0.86845(6) 0.09965(4) 0.60098(2)
Cu33 Cu 0.8335 0.1667 0.1667
Cu34 Cu 0.3333 0.1665 0.1667
Cu37 Cu 0.5001 0.0001 0.0001
Cl5 Cl 0.6667 0.1332(2) 0.5833
N8 N 0.9936(5) 0.3603(4) 0.38229(14)
N11 N 0.7000(3) 0.0269(4) 0.54895(14)
N13 N 0.9801(5) 0.3869(4) 0.40732(14)
N16 N 0.7401(3) 0.0535(4) 0.57398(14)
N22 N 0.9262(4) 0.3885(3) 0.40251(14)
N25 N 0.7956(3) 0.0551(3) 0.56917(14)
N26 N 0.4622(3) 0.0738(4) 0.40251(14)
N29 N 0.8217(5) 0.2679(3) 0.19901(14)
N30 N 0.4463(4) 0.1783(5) 0.19901(14)
N32 N 0.8450(5) 0.0654(3) 0.13432(14)
N34 N 0.6013(3) 0.1129(4) 0.46765(14)
N37 N 0.8514(4) 0.2536(3) 0.17633(14)
N38 N 0.4023(3) 0.1486(4) 0.17633(14)
N40 N 0.8153(4) 0.0797(3) 0.15700(14)
N42 N 0.2644(3) 0.1847(4) 0.15700(14)
N44 N 0.5870(3) 0.0689(3) 0.49033(14)
N48 N 0.8892(5) 0.3034(3) 0.15732(15)
N49 N 0.4143(4) 0.1108(5) 0.15732(15)
N51 N 0.7775(5) 0.0299(3) 0.17601(15)
N56 N 0.6368(3) 0.0809(4) 0.50934(15)
O8 O 0.8825(5) 0.2271(4) 0.27422(17)
H11 H 0.5780 0.0179 0.1195
H12 H 0.9113 0.2268 0.2862
O13 O 0.8127(5) 0.2607(4) 0.26745(13)
O18 O 0.7777(4) 0.4499(3) 0.23547(16)
O19 O 0.6723(3) 0.2223(4) 0.23547(16)
O24 O 0.5557(4) 0.2167(3) 0.43119(16)
O26 O 0.8417(4) 0.5295(3) 0.20301(14)
O27 O 0.6879(3) 0.1583(4) 0.20301(14)
O32 O 0.4917(4) 0.1371(3) 0.46365(14)
O34 O 0.8053(4) 0.1401(2) 0.21137(12)
O36 O 0.4734(2) 0.0015(3) 0.45530(12)
O42 O 0.8614(4) 0.1932(2) 0.12196(12)
O43 O 0.3348(3) 0.1947(4) 0.21137(12)
O44 O 0.3319(3) 0.1386(4) 0.12196(12)
H19 H 0.5056 0.0233 0.0555
H23 H 0.5178 0.0233 0.5555
O49 O 0.7229(8) 0.1339(5) 0.1457(2)
O50 O 0.9438(8) 0.1994(5) 0.1876(2)
O51 O 0.4111(6) 0.2771(8) 0.1457(2)
O52 O 0.2556(6) 0.0562(8) 0.1876(2)
O55 O 0.4673(5) 0.0777(6) 0.5209(2)
O58 O 0.6105(8) 0.0777(6) 0.0209(2)
H31 H 0.7097 0.1568 0.1551
H32 H 0.9570 0.1765 0.1782
H33 H 0.4472 0.2903 0.1551
H34 H 0.2195 0.0430 0.1782
H37 H 0.4902 0.1138 0.5115
H40 H 0.6237 0.1138 0.0115
H42 H 0.7255 0.1421 0.1254
H43 H 0.9412 0.1912 0.2079
H44 H 0.4167 0.2745 0.1254
H45 H 0.2500 0.0588 0.2079
H48 H 0.4755 0.0833 0.5412
H51 H 0.6079 0.0833 0.0412
C15 C 0.8207(7) 0.3703(4) 0.21066(19)
C16 C 0.5497(6) 0.1793(7) 0.21066(19)
H52 H 0.7931 0.3552 0.2285
H53 H 0.5622 0.2069 0.2285
C20 C 0.8438(7) 0.4311(4) 0.1990(2)
C21 C 0.5874(6) 0.1562(7) 0.1990(2)
C25 C 0.8896(7) 0.4555(4) 0.1730(2)
C26 C 0.5660(6) 0.1104(7) 0.1730(2)
H57 H 0.9064 0.4981 0.1665
H58 H 0.5918 0.0936 0.1665
C30 C 0.9096(7) 0.4180(4) 0.1573(2)
C31 C 0.5085(6) 0.0904(7) 0.1573(2)
H62 H 0.9391 0.4341 0.1402
H63 H 0.4951 0.0609 0.1402
C35 C 0.8833(7) 0.3545(4) 0.16818(18)
C36 C 0.4713(6) 0.1167(7) 0.16818(18)
C40 C 0.8403(5) 0.3314(3) 0.19462(19)
C41 C 0.4912(4) 0.1597(5) 0.19462(19)
C43 C 0.8264(5) 0.0019(3) 0.13871(19)
C45 C 0.8191(6) 0.4723(4) 0.2138(2)
C46 C 0.6533(4) 0.1809(6) 0.2138(2)
C51 C 0.9322(7) 0.3089(6) 0.33050(18)
H68 H 0.9594 0.2951 0.3222
C56 C 0.8771(7) 0.2971(6) 0.31439(19)
C61 C 0.8355(7) 0.3176(6) 0.3272(2)
H73 H 0.7991 0.3093 0.3153
C66 C 0.8465(7) 0.3488(6) 0.3562(2)
C69 C 0.8356(4) 0.0154(6) 0.5228(2)
H78 H 0.8185 0.3617 0.3644
H81 H 0.8765 0.0283 0.5310
C71 C 0.9027(7) 0.3607(6) 0.37319(18)
C74 C 0.7913(4) 0.0273(6) 0.53985(18)
C76 C 0.9454(7) 0.3424(6) 0.36004(18)
C79 C 0.7303(4) 0.0090(6) 0.52670(18)
C81 C 0.8571(7) 0.2587(6) 0.2827(2)
N47 N 0.4820(4) 0.0689(3) 0.99033(14)
O47 O 0.5280(4) 0.0015(3) 0.95530(12)
Cu1 Cu 0.69691(4) 0.95120(4) 0.28268(2)
Cu3 Cu 0.6666 0.8334 0.3334
Cl1_2 Cl 0.7999(2) 1.0000 0.2500
N4 N 0.7796(4) 0.9346(3) 0.36568(14)
N5 N 0.7356(3) 0.9203(3) 0.34300(14)
N6 N 0.7476(4) 0.9701(3) 0.32399(15)
H1 H 0.5601 0.9821 0.3805
O5 O 0.6652(3) 0.8599(2) 0.28863(12)
O6 O 0.7444(6) 0.8006(5) 0.3124(2)
H3 H 0.7805 0.8235 0.3218
H4 H 0.7500 0.8088 0.2921
C6 C 0.8245(4) 0.9981(3) 0.36129(19)
Cu6 Cu 0.71547(4) 0.63642(4) 0.11601(2)
Cu7 Cu 0.58762(6) 0.61787(4) 0.44935(2)
Cu12 Cu 0.63642(4) 0.71547(4) 0.38399(2)
Cu13 Cu 0.61787(4) 0.58762(6) 0.05065(2)
Cu14 Cu 0.28453(4) 0.92096(6) 0.38399(2)
Cu16 Cu 0.38213(4) 0.96976(4) 0.44935(2)
Cu18 Cu 0.56454(7) 0.79822(6) 0.26765(2)
Cu19 Cu 0.76879(7) 0.86845(6) 0.39902(2)
Cu21 Cu 0.43299(4) 0.89787(7) 0.06568(2)
Cu26 Cu 0.23368(4) 0.43546(7) 0.26765(2)
Cu28 Cu 0.86845(6) 0.76879(7) 0.10098(2)
Cu29 Cu 0.46489(6) 0.56701(4) 0.06568(2)
Cu30 Cu 0.20178(6) 0.76632(4) 0.26765(2)
Cu31 Cu 0.90035(4) 0.76879(7) 0.60098(2)
Cu35 Cu 0.1667 0.8335 0.3333
Cu36 Cu 0.5001 0.9999 0.4999
Cl3 Cl 0.6667 0.5334(2) 0.0833
Cl4 Cl 0.5334(2) 0.6667 0.4167
N7 N 0.6603(5) 0.9667(3) 0.21562(14)
N9 N 0.6334(3) 0.6397(4) 0.11771(14)
N10 N 0.6730(5) 0.7000(3) 0.45105(14)
N12 N 0.6468(5) 0.9266(3) 0.24065(14)
N14 N 0.5933(3) 0.6131(4) 0.09268(14)
N15 N 0.6865(5) 0.7401(3) 0.42602(14)
N18 N 0.7401(3) 0.6865(5) 0.07398(14)
N19 N 0.6131(4) 0.5933(3) 0.40732(14)
N20 N 0.5933(3) 0.9801(5) 0.59268(14)
N21 N 0.5929(4) 0.8711(3) 0.23584(14)
N23 N 0.5378(3) 0.6115(3) 0.09749(14)
N24 N 0.7404(4) 0.7956(3) 0.43083(14)
N27 N 0.3885(3) 0.9262(4) 0.09749(14)
N31 N 0.5537(4) 0.7321(3) 0.30099(14)
N33 N 0.2679(3) 0.8217(5) 0.30099(14)
N35 N 0.4883(5) 0.8871(4) 0.03235(14)
N39 N 0.5977(3) 0.7464(3) 0.32367(14)
N41 N 0.2536(3) 0.8514(4) 0.32367(14)
N43 N 0.0797(3) 0.8153(4) 0.34300(14)
N45 N 0.4130(3) 0.9311(3) 0.50967(14)
N46 N 0.5180(4) 0.9311(3) 0.00967(14)
N50 N 0.5857(4) 0.6966(3) 0.34268(15)
N52 N 0.3034(3) 0.8892(5) 0.34268(15)
N54 N 0.6966(3) 0.5857(4) 0.15732(15)
N55 N 0.5558(5) 0.6368(3) 0.49066(15)
O7 O 0.5492(5) 0.9888(3) 0.10755(17)
O9 O 0.6555(3) 0.7729(4) 0.22578(17)
O10 O 0.7841(5) 0.6779(3) 0.55912(17)
O11 O 0.6779(3) 0.8937(4) 0.44088(17)
H13 H 0.6846 0.7732 0.2138
H14 H 0.7553 0.6488 0.5472
H15 H 0.6488 0.8934 0.4528
O12 O 0.4794(5) 0.8854(3) 0.10078(13)
O14 O 0.5521(3) 0.7393(4) 0.23255(13)
O15 O 0.8539(5) 0.7813(3) 0.56589(13)
O16 O 0.7813(3) 0.9273(4) 0.43411(13)
O20 O 0.3277(3) 0.5501(3) 0.26453(16)
O21 O 0.8890(4) 0.8834(3) 0.09786(16)
O22 O 0.4499(3) 0.7777(4) 0.26453(16)
O23 O 0.8834(3) 0.8890(4) 0.40214(16)
O25 O 0.3389(3) 0.7833(3) 0.06881(16)
O28 O 0.3121(3) 0.4705(3) 0.29699(14)
O29 O 0.8250(4) 0.8038(3) 0.13032(14)
O30 O 0.5295(3) 0.8417(4) 0.29699(14)
O31 O 0.8038(3) 0.8250(4) 0.36968(14)
O33 O 0.3545(3) 0.8629(3) 0.03635(14)
O35 O 0.6681(3) 0.8068(2) 0.37804(12)
O37 O 0.4720(4) 0.9985(3) 0.04470(12)
O39 O 0.8068(2) 0.6681(3) 0.12196(12)
O40 O 0.5280(4) 0.5266(2) 0.45530(12)
O41 O 0.5266(2) 0.9985(3) 0.54470(12)
O45 O 0.1401(2) 0.8053(4) 0.28863(12)
O46 O 0.1932(2) 0.8614(4) 0.37804(12)
H18 H 0.4822 0.9767 0.4445
O48 O 0.5889(6) 0.8661(5) 0.3543(2)
O53 O 0.1339(5) 0.7229(8) 0.3543(2)
O54 O 0.1994(5) 0.9438(8) 0.3124(2)
O56 O 0.5327(5) 0.9223(6) 0.4791(2)
H30 H 0.5528 0.8432 0.3449
H35 H 0.1568 0.7097 0.3449
H36 H 0.1765 0.9570 0.3218
H38 H 0.5098 0.8862 0.4885
H41 H 0.5833 0.8579 0.3746
H46 H 0.1421 0.7255 0.3746
H47 H 0.1912 0.9412 0.2921
H49 H 0.5245 0.9167 0.4588
C17 C 0.4503(6) 0.6297(4) 0.28934(19)
C18 C 0.8460(7) 0.9630(4) 0.12267(19)
C19 C 0.3703(4) 0.8207(7) 0.28934(19)
H54 H 0.4378 0.6448 0.2715
H55 H 0.8736 0.9781 0.1048
H56 H 0.3552 0.7931 0.2715
C22 C 0.4126(6) 0.5689(4) 0.3010(2)
C23 C 0.8229(7) 0.9022(4) 0.1343(2)
C24 C 0.4311(4) 0.8438(7) 0.3010(2)
C27 C 0.4340(6) 0.5445(4) 0.3270(2)
C28 C 0.7771(7) 0.8778(4) 0.1603(2)
C29 C 0.4555(4) 0.8896(7) 0.3270(2)
H59 H 0.4082 0.5019 0.3335
H60 H 0.7603 0.8352 0.1668
H61 H 0.4981 0.9064 0.3335
C32 C 0.4915(6) 0.5820(4) 0.3427(2)
C33 C 0.7571(7) 0.9153(4) 0.1760(2)
C34 C 0.4180(4) 0.9096(7) 0.3427(2)
H64 H 0.5049 0.5659 0.3598
H65 H 0.7276 0.8992 0.1931
H66 H 0.4341 0.9391 0.3598
C37 C 0.5287(6) 0.6455(4) 0.33182(18)
C38 C 0.7834(7) 0.9788(4) 0.16515(18)
C39 C 0.3545(4) 0.8833(7) 0.33182(18)
C42 C 0.5088(4) 0.6686(3) 0.30538(19)
C44 C 0.3314(3) 0.8403(5) 0.30538(19)
C47 C 0.3467(4) 0.5277(4) 0.2862(2)
C48 C 0.8476(6) 0.8610(4) 0.1195(2)
C49 C 0.4723(4) 0.8191(6) 0.2862(2)
C50 C 0.5989(7) 0.9567(4) 0.16383(18)
C52 C 0.6234(4) 0.6911(6) 0.16950(18)
C53 C 0.7344(7) 0.7100(4) 0.50284(18)
C54 C 0.7100(4) 0.9755(6) 0.49716(18)
H67 H 0.6261 0.9977 0.1555
H69 H 0.6644 0.7049 0.1778
H70 H 0.7072 0.6690 0.5112
H71 H 0.6690 0.9617 0.4888
C55 C 0.5438(7) 0.9134(4) 0.14772(19)
C57 C 0.5801(4) 0.7029(6) 0.18561(19)
C58 C 0.7895(7) 0.7533(4) 0.51895(19)
C59 C 0.7533(4) 0.9637(6) 0.48105(19)
C60 C 0.5022(7) 0.8513(4) 0.1605(2)
C62 C 0.5180(4) 0.6824(6) 0.1728(2)
C63 C 0.8311(7) 0.8154(4) 0.5062(2)
C64 C 0.8154(4) 0.9842(6) 0.4938(2)
H72 H 0.4658 0.8232 0.1486
H74 H 0.4899 0.6907 0.1847
H75 H 0.8675 0.8435 0.5181
H76 H 0.8435 0.9759 0.4819
C65 C 0.5132(7) 0.8311(4) 0.1895(2)
C67 C 0.4978(4) 0.6512(6) 0.1438(2)
C68 C 0.8201(7) 0.8356(4) 0.4772(2)
H77 H 0.4852 0.7902 0.1977
H79 H 0.4569 0.6383 0.1356
H80 H 0.8481 0.8765 0.4690
C70 C 0.5694(7) 0.8754(4) 0.20652(18)
C72 C 0.5421(4) 0.6393(6) 0.12681(18)
C73 C 0.7639(7) 0.7913(4) 0.46015(18)
C75 C 0.6121(7) 0.9364(4) 0.19337(18)
C77 C 0.6031(4) 0.6576(6) 0.13996(18)
C78 C 0.7212(7) 0.7303(4) 0.47330(18)
C80 C 0.5238(7) 0.9318(4) 0.1160(2)
C82 C 0.5985(4) 0.7413(6) 0.2173(2)
C83 C 0.8095(7) 0.7349(4) 0.5507(2)
C84 C 0.7349(4) 0.9253(6) 0.4493(2)
H29 H 0.4944 0.9767 0.9445
O57 O 0.3895(8) 0.9223(6) 0.9791(2)
H39 H 0.3763 0.8862 0.9885
H50 H 0.3921 0.9167 0.9588
H82 H 0.559237 0.985694 0.954403
Cu28_2 Cu 0.23121(7) 0.09965(9) 0.10098(2)
Cu31_2 Cu 0.23121(7) 0.13155(8) 0.60098(2)
Cl3_2 Cl 0.4666(2) 0.1332(2) 0.0833
N18_2 N 0.3135(5) 0.0535(6) 0.07398(14)
N19_2 N 0.4067(3) 0.0199(5) 0.40732(14)
O10_2 O 0.3221(3) 0.1063(6) 0.55912(17)
H14_2 H 0.3512 0.1066 0.5472
O15_2 O 0.2187(3) 0.0727(6) 0.56589(13)
O21_2 O 0.1166(3) 0.0056(5) 0.09786(16)
O29_2 O 0.1962(3) 0.0212(5) 0.13032(14)
C53_2 C 0.2900(4) 0.0245(8) 0.50284(18)
H70_2 H 0.3310 0.0383 0.5112
C58_2 C 0.2467(4) 0.0363(8) 0.51895(19)
C63_2 C 0.1846(4) 0.0158(8) 0.5062(2)
H75_2 H 0.1565 0.0241 0.5181
C83_2 C 0.2651(4) 0.0747(8) 0.5507(2)
H83 H 0.483148 0.000390414 0.478769
Cu1_2 Cu 0.04880(4) 0.74571(6) 0.28268(2)
Cl1_3 Cl 0.0000 0.7999(2) 0.2500
N4_2 N 0.0654(3) 0.8450(5) 0.36568(14)
N6_2 N 0.0299(3) 0.7775(5) 0.32399(15)
H1_2 H 0.0179 0.5780 0.3805
C6_2 C 0.0019(3) 0.8264(5) 0.36129(19)
Cu19_2 Cu 0.13155(6) 0.90035(9) 0.39902(2)
Cu21_2 Cu 0.10213(7) 0.53511(8) 0.06568(2)
Cu36_2 Cu 0.0001 0.5001 0.4999
Cl4_2 Cl 0.3333 0.8668(2) 0.4167
N7_2 N 0.0333(3) 0.6936(6) 0.21562(14)
N9_2 N 0.3603(4) 0.9936(5) 0.11771(14)
N10_2 N 0.3000(3) 0.9731(6) 0.45105(14)
N12_2 N 0.0734(3) 0.7202(6) 0.24065(14)
N14_2 N 0.3869(4) 0.9801(5) 0.09268(14)
N15_2 N 0.2599(3) 0.9465(6) 0.42602(14)
N20_2 N 0.0199(5) 0.6131(6) 0.59268(14)
N21_2 N 0.1289(3) 0.7218(5) 0.23584(14)
N24_2 N 0.2044(3) 0.9449(5) 0.43083(14)
N27_2 N 0.0738(4) 0.4622(5) 0.09749(14)
N33_2 N 0.1783(5) 0.4463(6) 0.30099(14)
N35_2 N 0.1129(4) 0.6013(6) 0.03235(14)
N41_2 N 0.1486(4) 0.4023(5) 0.32367(14)
N43_2 N 0.1847(4) 0.2644(5) 0.34300(14)
N45_2 N 0.0689(3) 0.4820(4) 0.50967(14)
N46_2 N 0.0689(3) 0.5870(5) 0.00967(14)
N55_2 N 0.3632(3) 0.9191(6) 0.49066(15)
O7_2 O 0.0112(3) 0.5604(6) 0.10755(17)
O9_2 O 0.2271(4) 0.8825(5) 0.22578(17)
O11_2 O 0.1063(4) 0.7841(5) 0.44088(17)
H13_2 H 0.2268 0.9113 0.2138
H15_2 H 0.1066 0.7553 0.4528
O12_2 O 0.1146(3) 0.5940(6) 0.10078(13)
O14_2 O 0.2607(4) 0.8127(5) 0.23255(13)
O16_2 O 0.0727(4) 0.8539(5) 0.43411(13)
O22_2 O 0.2223(4) 0.6723(5) 0.26453(16)
O23_2 O 0.1110(4) 0.9944(5) 0.40214(16)
O25_2 O 0.2167(3) 0.5557(4) 0.06881(16)
O30_2 O 0.1583(4) 0.6879(5) 0.29699(14)
O31_2 O 0.1750(4) 0.9788(5) 0.36968(14)
O33_2 O 0.1371(3) 0.4917(4) 0.03635(14)
O37_2 O 0.0015(3) 0.4734(5) 0.04470(12)
O41_2 O 0.0015(3) 0.5280(4) 0.54470(12)
O45_2 O 0.1947(4) 0.3348(4) 0.28863(12)
H18_2 H 0.0233 0.5056 0.4445
O53_2 O 0.2771(8) 0.4111(9) 0.3543(2)
O54_2 O 0.0562(8) 0.2556(9) 0.3124(2)
O56_2 O 0.0777(6) 0.6105(8) 0.4791(2)
H35_2 H 0.2903 0.4472 0.3449
H36_2 H 0.0430 0.2195 0.3218
H38_2 H 0.1138 0.6237 0.4885
H46_2 H 0.2745 0.4167 0.3746
H47_2 H 0.0588 0.2500 0.2921
H49_2 H 0.0833 0.6079 0.4588
C18_2 C 0.0370(4) 0.8830(8) 0.12267(19)
C19_2 C 0.1793(7) 0.5497(8) 0.28934(19)
H55_2 H 0.0219 0.8955 0.1048
H56_2 H 0.2069 0.5622 0.2715
C23_2 C 0.0978(4) 0.9207(8) 0.1343(2)
C24_2 C 0.1562(7) 0.5874(8) 0.3010(2)
C28_2 C 0.1222(4) 0.8993(8) 0.1603(2)
C29_2 C 0.1104(7) 0.5660(8) 0.3270(2)
H60_2 H 0.1648 0.9251 0.1668
H61_2 H 0.0936 0.5918 0.3335
C33_2 C 0.0847(4) 0.8418(8) 0.1760(2)
C34_2 C 0.0904(7) 0.5085(8) 0.3427(2)
H65_2 H 0.1008 0.8284 0.1931
H66_2 H 0.0609 0.4951 0.3598
C38_2 C 0.0212(4) 0.8046(8) 0.16515(18)
C39_2 C 0.1167(7) 0.4713(8) 0.33182(18)
C44_2 C 0.1597(5) 0.4912(6) 0.30538(19)
C48_2 C 0.1390(4) 0.9866(7) 0.1195(2)
C49_2 C 0.1809(6) 0.6533(7) 0.2862(2)
C50_2 C 0.0433(4) 0.6422(8) 0.16383(18)
C52_2 C 0.3089(6) 0.9322(7) 0.16950(18)
C54_2 C 0.0245(6) 0.7344(7) 0.49716(18)
H67_2 H 0.0023 0.6284 0.1555
H69_2 H 0.2951 0.9594 0.1778
H71_2 H 0.0383 0.7072 0.4888
C55_2 C 0.0866(4) 0.6304(8) 0.14772(19)
C57_2 C 0.2971(6) 0.8771(7) 0.18561(19)
C59_2 C 0.0363(6) 0.7895(7) 0.48105(19)
C60_2 C 0.1487(4) 0.6509(8) 0.1605(2)
C62_2 C 0.3176(6) 0.8355(7) 0.1728(2)
C64_2 C 0.0158(6) 0.8311(7) 0.4938(2)
H72_2 H 0.1768 0.6426 0.1486
H74_2 H 0.3093 0.7991 0.1847
H76_2 H 0.0241 0.8675 0.4819
C65_2 C 0.1689(4) 0.6821(8) 0.1895(2)
C67_2 C 0.3488(6) 0.8465(7) 0.1438(2)
C68_2 C 0.1644(4) 0.9846(8) 0.4772(2)
H77_2 H 0.2098 0.6950 0.1977
H79_2 H 0.3617 0.8185 0.1356
H80_2 H 0.1235 0.9717 0.4690
C70_2 C 0.1246(4) 0.6940(8) 0.20652(18)
C72_2 C 0.3607(6) 0.9027(7) 0.12681(18)
C73_2 C 0.2087(4) 0.9727(8) 0.46015(18)
C75_2 C 0.0636(4) 0.6757(8) 0.19337(18)
C77_2 C 0.3424(6) 0.9454(7) 0.13996(18)
C78_2 C 0.2697(4) 0.9910(8) 0.47330(18)
C80_2 C 0.0682(4) 0.5920(8) 0.1160(2)
C82_2 C 0.2587(6) 0.8571(7) 0.2173(2)
C84_2 C 0.0747(6) 0.8095(7) 0.4493(2)
H29_2 H 0.0233 0.5178 0.9445
O57_2 O 0.0777(6) 0.4673(10) 0.9791(2)
H39_2 H 0.1138 0.4902 0.9885
H50_2 H 0.0833 0.4755 0.9588
H82_2 H 0.0143055 0.573543 0.954403
Cl1_4 Cl 1.0000 0.7999(2) 0.2500
N1_2 N 0.9667(3) 0.6603(5) 0.28438(14)
N2_2 N 0.9266(3) 0.6468(5) 0.25935(14)
N3_2 N 0.8711(3) 0.5929(4) 0.26416(14)
O1_2 O 0.9888(3) 0.5492(5) 0.39245(17)
O2_2 O 0.8854(3) 0.4794(5) 0.39922(13)
C1_2 C 0.9630(4) 0.8460(7) 0.37733(19)
H5_2 H 0.9781 0.8736 0.3952
C2_2 C 0.9022(4) 0.8229(7) 0.3657(2)
C3_2 C 0.8778(4) 0.7771(7) 0.3397(2)
H6_2 H 0.8352 0.7603 0.3332
C4_2 C 0.9153(4) 0.7571(7) 0.3240(2)
H7_2 H 0.8992 0.7276 0.3069
C5_2 C 0.9788(4) 0.7834(7) 0.33485(18)
C7_2 C 0.8610(4) 0.8476(6) 0.3805(2)
C8_2 C 0.9567(4) 0.5989(7) 0.33617(18)
H8_2 H 0.9977 0.6261 0.3445
C9_2 C 0.9134(4) 0.5438(7) 0.35228(19)
C10_2 C 0.8513(4) 0.5022(7) 0.3395(2)
H9_2 H 0.8232 0.4658 0.3514
C11_2 C 0.8311(4) 0.5132(7) 0.3105(2)
H10_2 H 0.7902 0.4852 0.3023
C12_2 C 0.8754(4) 0.5694(7) 0.29348(18)
C13_2 C 0.9364(4) 0.6121(7) 0.30663(18)
C14_2 C 0.9318(4) 0.5238(7) 0.3840(2)
Cu4_2 Cu 0.95120(4) 0.69691(7) 0.21732(2)
Cu8_2 Cu 0.96976(4) 0.58762(6) 0.55065(2)
Cu15_2 Cu 0.92096(6) 0.63642(7) 0.61601(2)
Cu17_2 Cu 0.96976(4) 0.38213(7) 0.05065(2)
Cu24_2 Cu 0.56701(4) 0.46489(8) 0.43432(2)
Cu33_2 Cu 0.8333 0.6667 0.1667
Cu37_2 Cu 0.9999 0.5001 0.0001
Cl5_2 Cl 0.8668(2) 0.5334(2) 0.5833
N8_2 N 0.6397(4) 0.6334(6) 0.38229(14)
N11_2 N 0.9731(4) 0.6730(5) 0.54895(14)
N16_2 N 0.9465(4) 0.6865(5) 0.57398(14)
N22_2 N 0.6115(3) 0.5378(5) 0.40251(14)
N25_2 N 0.9449(3) 0.7404(4) 0.56917(14)
N29_2 N 0.7321(3) 0.5537(6) 0.19901(14)
N32_2 N 0.9346(3) 0.7796(6) 0.13432(14)
N34_2 N 0.8871(4) 0.4883(5) 0.46765(14)
N37_2 N 0.7464(3) 0.5977(5) 0.17633(14)
N40_2 N 0.9203(3) 0.7356(5) 0.15700(14)
N44_2 N 0.9311(3) 0.5180(4) 0.49033(14)
N51_2 N 0.9701(3) 0.7476(6) 0.17601(15)
N56_2 N 0.9191(4) 0.5558(5) 0.50934(15)
O8_2 O 0.7729(4) 0.6555(6) 0.27422(17)
H11_2 H 0.9821 0.5601 0.1195
H12_2 H 0.7732 0.6846 0.2862
O13_2 O 0.7393(4) 0.5521(6) 0.26745(13)
O18_2 O 0.5501(3) 0.3277(5) 0.23547(16)
O24_2 O 0.7833(3) 0.3389(5) 0.43119(16)
O26_2 O 0.4705(3) 0.3121(5) 0.20301(14)
O32_2 O 0.8629(3) 0.3545(5) 0.46365(14)
O34_2 O 0.8599(2) 0.6652(4) 0.21137(12)
O36_2 O 0.9985(3) 0.4720(4) 0.45530(12)
H19_2 H 0.9767 0.4822 0.0555
H23_2 H 0.9767 0.4944 0.5555
O49_2 O 0.8661(5) 0.5889(9) 0.1457(2)
O50_2 O 0.8006(5) 0.7444(9) 0.1876(2)
O55_2 O 0.9223(6) 0.3895(8) 0.5209(2)
O58_2 O 0.9223(6) 0.5327(10) 0.0209(2)
H31_2 H 0.8432 0.5528 0.1551
H32_2 H 0.8235 0.7805 0.1782
H37_2 H 0.8862 0.3763 0.5115
H40_2 H 0.8862 0.5098 0.0115
H42_2 H 0.8579 0.5833 0.1254
H43_2 H 0.8088 0.7500 0.2079
H48_2 H 0.9167 0.3921 0.5412
H51_2 H 0.9167 0.5245 0.0412
C15_2 C 0.6297(4) 0.4503(8) 0.21066(19)
H52_2 H 0.6448 0.4378 0.2285
C20_2 C 0.5689(4) 0.4126(8) 0.1990(2)
C25_2 C 0.5445(4) 0.4340(8) 0.1730(2)
H57_2 H 0.5019 0.4082 0.1665
C30_2 C 0.5820(4) 0.4915(8) 0.1573(2)
H62_2 H 0.5659 0.5049 0.1402
C35_2 C 0.6455(4) 0.5287(8) 0.16818(18)
C40_2 C 0.6686(3) 0.5088(6) 0.19462(19)
C43_2 C 0.9981(3) 0.8245(6) 0.13871(19)
C45_2 C 0.5277(4) 0.3467(7) 0.2138(2)
C51_2 C 0.6911(6) 0.6234(9) 0.33050(18)
H68_2 H 0.7049 0.6644 0.3222
C56_2 C 0.7029(6) 0.5801(9) 0.31439(19)
C61_2 C 0.6824(6) 0.5180(9) 0.3272(2)
H73_2 H 0.6907 0.4899 0.3153
C66_2 C 0.6512(6) 0.4978(9) 0.3562(2)
C69_2 C 0.9846(6) 0.8201(7) 0.5228(2)
H78_2 H 0.6383 0.4569 0.3644
H81_2 H 0.9717 0.8481 0.5310
C71_2 C 0.6393(6) 0.5421(9) 0.37319(18)
C74_2 C 0.9727(6) 0.7639(7) 0.53985(18)
C76_2 C 0.6576(6) 0.6031(9) 0.36004(18)
C79_2 C 0.9910(6) 0.7212(7) 0.52670(18)
C81_2 C 0.7413(6) 0.5985(9) 0.2827(2)
N47_2 N 0.9311(3) 0.4130(5) 0.99033(14)
O47_2 O 0.9985(3) 0.5266(5) 0.95530(12)
Cu1_3 Cu 0.25429(6) 0.30309(4) 0.28268(2)
Cl1_5 Cl 0.2001(2) 0.2001(2) 0.2500
N1_3 N 0.3397(5) 0.3064(4) 0.28438(14)
N2_3 N 0.3532(5) 0.2798(4) 0.25935(14)
N3_3 N 0.4071(4) 0.2782(3) 0.26416(14)
N6_3 N 0.2225(5) 0.2524(4) 0.32399(15)
O1_3 O 0.4508(5) 0.4396(4) 0.39245(17)
H1_3 H 0.4220 0.4399 0.3805
O2_3 O 0.5206(5) 0.4060(4) 0.39922(13)
C1_3 C 0.1540(7) 0.1170(6) 0.37733(19)
H5_3 H 0.1264 0.1045 0.3952
C2_3 C 0.1771(7) 0.0793(6) 0.3657(2)
C3_3 C 0.2229(7) 0.1007(6) 0.3397(2)
H6_3 H 0.2397 0.0749 0.3332
C4_3 C 0.2429(7) 0.1582(6) 0.3240(2)
H7_3 H 0.2724 0.1716 0.3069
C5_3 C 0.2166(7) 0.1954(6) 0.33485(18)
C6_3 C 0.1736(5) 0.1755(4) 0.36129(19)
C7_3 C 0.1524(6) 0.0134(4) 0.3805(2)
C8_3 C 0.4011(7) 0.3578(6) 0.33617(18)
H8_3 H 0.3739 0.3716 0.3445
C9_3 C 0.4562(7) 0.3696(6) 0.35228(19)
C10_3 C 0.4978(7) 0.3491(6) 0.3395(2)
H9_3 H 0.5342 0.3574 0.3514
C11_3 C 0.4868(7) 0.3179(6) 0.3105(2)
H10_3 H 0.5148 0.3050 0.3023
C12_3 C 0.4306(7) 0.3060(6) 0.29348(18)
C13_3 C 0.3879(7) 0.3243(6) 0.30663(18)
C14_3 C 0.4762(7) 0.4080(6) 0.3840(2)
Cu4_3 Cu 0.30309(7) 0.25429(6) 0.21732(2)
Cu8_3 Cu 0.41238(6) 0.38213(4) 0.55065(2)
Cu15_3 Cu 0.36358(7) 0.28453(4) 0.61601(2)
Cu36_3 Cu 0.4999 0.4999 0.4999
Cu37_3 Cu 0.4999 0.4999 0.0001
Cl5_3 Cl 0.4666(2) 0.3333 0.5833
N7_3 N 0.3064(6) 0.3397(5) 0.21562(14)
N8_3 N 0.3666(6) 0.0064(5) 0.38229(14)
N9_3 N 0.0064(5) 0.3666(3) 0.11771(14)
N10_3 N 0.0269(6) 0.3270(5) 0.45105(14)
N11_3 N 0.3270(5) 0.3000(3) 0.54895(14)
N12_3 N 0.2798(6) 0.3532(5) 0.24065(14)
N14_3 N 0.0199(5) 0.4067(3) 0.09268(14)
N16_3 N 0.3135(5) 0.2599(3) 0.57398(14)
N20_3 N 0.3869(6) 0.4067(3) 0.59268(14)
N21_3 N 0.2782(5) 0.4071(4) 0.23584(14)
N25_3 N 0.2596(4) 0.2044(3) 0.56917(14)
N32_3 N 0.2204(6) 0.1550(5) 0.13432(14)
N34_3 N 0.5117(5) 0.3987(3) 0.46765(14)
N35_3 N 0.3987(6) 0.5117(5) 0.03235(14)
N44_3 N 0.4820(4) 0.4130(3) 0.49033(14)
N45_3 N 0.5180(4) 0.5870(3) 0.50967(14)
N46_3 N 0.4130(5) 0.4820(4) 0.00967(14)
N51_3 N 0.2524(6) 0.2225(5) 0.17601(15)
N55_3 N 0.0809(6) 0.4442(5) 0.49066(15)
N56_3 N 0.4442(5) 0.3632(3) 0.50934(15)
O7_3 O 0.4396(6) 0.4508(5) 0.10755(17)
O8_3 O 0.3445(6) 0.1175(5) 0.27422(17)
O9_3 O 0.1175(5) 0.3445(3) 0.22578(17)
O11_3 O 0.2159(5) 0.3221(3) 0.44088(17)
H11_3 H 0.4399 0.4220 0.1195
H12_3 H 0.3154 0.0887 0.2862
H13_3 H 0.0887 0.3154 0.2138
H15_3 H 0.2447 0.3512 0.4528
O12_3 O 0.4060(6) 0.5206(5) 0.10078(13)
O13_3 O 0.4479(6) 0.1873(5) 0.26745(13)
O14_3 O 0.1873(5) 0.4479(3) 0.23255(13)
O24_3 O 0.6611(5) 0.4443(4) 0.43119(16)
O25_3 O 0.4443(4) 0.6611(3) 0.06881(16)
O32_3 O 0.6455(5) 0.5083(4) 0.46365(14)
O33_3 O 0.5083(4) 0.6455(3) 0.03635(14)
O37_3 O 0.5266(5) 0.5280(4) 0.04470(12)
O41_3 O 0.4720(4) 0.4734(2) 0.54470(12)
O55_3 O 0.6105(8) 0.5327(5) 0.5209(2)
O56_3 O 0.3895(8) 0.4673(5) 0.4791(2)
O58_3 O 0.4673(10) 0.3895(8) 0.0209(2)
H37_3 H 0.6237 0.5098 0.5115
H38_3 H 0.3763 0.4902 0.4885
H40_3 H 0.4902 0.3763 0.0115
H48_3 H 0.6079 0.5245 0.5412
H49_3 H 0.3921 0.4755 0.4588
H51_3 H 0.4755 0.3921 0.0412
C18_3 C 0.1170(8) 0.1540(7) 0.12267(19)
H55_3 H 0.1045 0.1264 0.1048
C23_3 C 0.0793(8) 0.1771(7) 0.1343(2)
C28_3 C 0.1007(8) 0.2229(7) 0.1603(2)
H60_3 H 0.0749 0.2397 0.1668
C33_3 C 0.1582(8) 0.2429(7) 0.1760(2)
H65_3 H 0.1716 0.2724 0.1931
C38_3 C 0.1954(8) 0.2166(7) 0.16515(18)
C43_3 C 0.1755(6) 0.1736(5) 0.13871(19)
C48_3 C 0.0134(7) 0.1524(6) 0.1195(2)
C50_3 C 0.3578(8) 0.4011(7) 0.16383(18)
C51_3 C 0.3766(9) 0.0678(7) 0.33050(18)
C52_3 C 0.0678(7) 0.3766(4) 0.16950(18)
C54_3 C 0.2656(7) 0.2900(4) 0.49716(18)
H67_3 H 0.3716 0.3739 0.1555
H68_3 H 0.3356 0.0406 0.3222
H69_3 H 0.0406 0.3356 0.1778
H71_3 H 0.2928 0.3310 0.4888
C55_3 C 0.3696(8) 0.4562(7) 0.14772(19)
C56_3 C 0.4199(9) 0.1229(7) 0.31439(19)
C57_3 C 0.1229(7) 0.4199(4) 0.18561(19)
C59_3 C 0.2105(7) 0.2467(4) 0.48105(19)
C60_3 C 0.3491(8) 0.4978(7) 0.1605(2)
C61_3 C 0.4820(9) 0.1645(7) 0.3272(2)
C62_3 C 0.1645(7) 0.4820(4) 0.1728(2)
C64_3 C 0.1689(7) 0.1846(4) 0.4938(2)
H72_3 H 0.3574 0.5342 0.1486
H73_3 H 0.5101 0.2009 0.3153
H74_3 H 0.2009 0.5101 0.1847
H76_3 H 0.1325 0.1565 0.4819
C65_3 C 0.3179(8) 0.4868(7) 0.1895(2)
C66_3 C 0.5022(9) 0.1535(7) 0.3562(2)
C67_3 C 0.1535(7) 0.5022(4) 0.1438(2)
C68_3 C 0.0154(8) 0.1799(7) 0.4772(2)
C69_3 C 0.1799(7) 0.1644(4) 0.5228(2)
H77_3 H 0.3050 0.5148 0.1977
H78_3 H 0.5431 0.1815 0.3644
H79_3 H 0.1815 0.5431 0.1356
H80_3 H 0.0283 0.1519 0.4690
H81_3 H 0.1519 0.1235 0.5310
C70_3 C 0.3060(8) 0.4306(7) 0.20652(18)
C71_3 C 0.4579(9) 0.0973(7) 0.37319(18)
C72_3 C 0.0973(7) 0.4579(4) 0.12681(18)
C73_3 C 0.0273(8) 0.2361(7) 0.46015(18)
C74_3 C 0.2361(7) 0.2087(4) 0.53985(18)
C75_3 C 0.3243(8) 0.3879(7) 0.19337(18)
C76_3 C 0.3969(9) 0.0546(7) 0.36004(18)
C77_3 C 0.0546(7) 0.3969(4) 0.13996(18)
C78_3 C 0.0090(8) 0.2788(7) 0.47330(18)
C79_3 C 0.2788(7) 0.2697(4) 0.52670(18)
C80_3 C 0.4080(8) 0.4762(7) 0.1160(2)
C81_3 C 0.4015(9) 0.1429(7) 0.2827(2)
C82_3 C 0.1429(7) 0.4015(4) 0.2173(2)
C84_3 C 0.1905(7) 0.2651(4) 0.4493(2)
N47_3 N 0.5870(5) 0.5180(4) 0.99033(14)
O47_3 O 0.4734(5) 0.4720(4) 0.95530(12)
O57_3 O 0.5327(10) 0.6105(8) 0.9791(2)
H39_3 H 0.5098 0.6237 0.9885
H50_3 H 0.5245 0.6079 0.9588
Cl3_3 Cl 0.8668(2) 0.3333 0.0833
N18_3 N 0.9465(6) 0.2599(3) 0.07398(14)
O10_3 O 0.8937(6) 0.2159(5) 0.55912(17)
H14_3 H 0.8934 0.2447 0.5472
O15_3 O 0.9273(6) 0.1461(5) 0.56589(13)
O21_3 O 0.9944(5) 0.1110(4) 0.09786(16)
O29_3 O 0.9788(5) 0.1750(4) 0.13032(14)
C53_3 C 0.9755(8) 0.2656(7) 0.50284(18)
H70_3 H 0.9617 0.2928 0.5112
C58_3 C 0.9637(8) 0.2105(7) 0.51895(19)
C63_3 C 0.9842(8) 0.1689(7) 0.5062(2)
H75_3 H 0.9759 0.1325 0.5181
C83_3 C 0.9253(8) 0.1905(7) 0.5507(2)
H83_2 H 0.99961 0.482758 0.478769
N28_2 N 0.2596(4) 0.0551(3) 0.06917(14)
O17_2 O 0.2187(3) 0.1461(5) 0.06589(13)
Cu8_4 Cu 0.03024(4) 0.61787(4) 0.94935(2)
Cu15_4 Cu 0.07904(6) 0.71547(4) 0.88399(2)
Cu32_2 Cu 0.09965(4) 0.86845(6) 0.89902(2)
Cl5_4 Cl 0.1332(2) 0.6667 0.9167
N11_4 N 0.0269(4) 0.7000(3) 0.95105(14)
N16_4 N 0.0535(4) 0.7401(3) 0.92602(14)
N25_4 N 0.0551(3) 0.7956(3) 0.93083(14)
N56_4 N 0.0809(4) 0.6368(3) 0.99066(15)
C69_4 C 0.0154(6) 0.8356(4) 0.9772(2)
H81_4 H 0.0283 0.8765 0.9690
C74_4 C 0.0273(6) 0.7913(4) 0.96015(18)
C79_4 C 0.0090(6) 0.7303(4) 0.97330(18)
N10_4 N 0.7000(3) 0.6730(5) 0.04895(14)
N24_3 N 0.7956(3) 0.7404(4) 0.06917(14)
N55_4 N 0.6368(3) 0.5558(5) 0.00934(15)
O11_4 O 0.8937(4) 0.6779(3) 0.05912(17)
H15_4 H 0.8934 0.6488 0.0472
O16_3 O 0.9273(4) 0.7813(3) 0.06589(13)
C54_4 C 0.9755(6) 0.7100(4) 0.00284(18)
H71_4 H 0.9617 0.6690 0.0112
C59_4 C 0.9637(6) 0.7533(4) 0.01895(19)
C64_4 C 0.9842(6) 0.8154(4) 0.0062(2)
H76_4 H 0.9759 0.8435 0.0181
C68_4 C 0.8356(4) 0.8201(7) 0.0228(2)
H80_4 H 0.8765 0.8481 0.0310
C73_4 C 0.7913(4) 0.7639(7) 0.03985(18)
C78_4 C 0.7303(4) 0.7212(7) 0.02670(18)
C84_4 C 0.9253(6) 0.7349(4) 0.0507(2)
H82_3 H 0.985694 0.559237 0.545597
Cu31_3 Cu 0.76879(7) 0.90035(4) 0.89902(2)
N20_4 N 0.9801(5) 0.5933(3) 0.90732(14)
O10_4 O 0.6779(3) 0.7841(5) 0.94088(17)
H14_4 H 0.6488 0.7553 0.9528
O15_4 O 0.7813(3) 0.8539(5) 0.93411(13)
C53_4 C 0.7100(4) 0.7344(7) 0.99716(18)
H70_4 H 0.6690 0.7072 0.9888
C58_4 C 0.7533(4) 0.7895(7) 0.98105(19)
C63_4 C 0.8154(4) 0.8311(7) 0.9938(2)
H75_4 H 0.8435 0.8675 0.9819
C83_4 C 0.7349(4) 0.8095(7) 0.9493(2)
H83_3 H 0.000390414 0.483148 0.0212313
Cu31_4 Cu 0.13155(8) 0.23121(7) 0.89902(2)
O10_5 O 0.1063(6) 0.3221(3) 0.94088(17)
H14_5 H 0.1066 0.3512 0.9528
O15_5 O 0.0727(6) 0.2187(3) 0.93411(13)
C53_5 C 0.0245(8) 0.2900(4) 0.99716(18)
H70_5 H 0.0383 0.3310 0.9888
C58_5 C 0.0363(8) 0.2467(4) 0.98105(19)
C63_5 C 0.0158(8) 0.1846(4) 0.9938(2)
H75_5 H 0.0241 0.1565 0.9819
C83_5 C 0.0747(8) 0.2651(4) 0.9493(2)
N10_5 N 0.9731(6) 0.3000(3) 0.04895(14)
N24_4 N 0.9449(5) 0.2044(3) 0.06917(14)
N55_5 N 0.9191(6) 0.3632(3) 0.00934(15)
O11_5 O 0.7841(5) 0.1063(4) 0.05912(17)
H15_5 H 0.7553 0.1066 0.0472
O16_4 O 0.8539(5) 0.0727(4) 0.06589(13)
C54_5 C 0.7344(7) 0.0245(6) 0.00284(18)
H71_5 H 0.7072 0.0383 0.0112
C59_5 C 0.7895(7) 0.0363(6) 0.01895(19)
C64_5 C 0.8311(7) 0.0158(6) 0.0062(2)
H76_5 H 0.8675 0.0241 0.0181
C68_5 C 0.9846(8) 0.1644(4) 0.0228(2)
H80_5 H 0.9717 0.1235 0.0310
C73_5 C 0.9727(8) 0.2087(4) 0.03985(18)
C78_5 C 0.9910(8) 0.2697(4) 0.02670(18)
C84_5 C 0.8095(7) 0.0747(6) 0.0507(2)
H82_4 H 0.573543 0.0143055 0.545597
N20_5 N 0.6131(6) 0.0199(5) 0.90732(14)
Cu8_5 Cu 0.58762(6) 0.96976(4) 0.94935(2)
Cu15_5 Cu 0.63642(7) 0.92096(6) 0.88399(2)
Cl5_5 Cl 0.5334(2) 0.8668(2) 0.9167
N11_5 N 0.6730(5) 0.9731(4) 0.95105(14)
N16_5 N 0.6865(5) 0.9465(4) 0.92602(14)
N25_5 N 0.7404(4) 0.9449(3) 0.93083(14)
N56_5 N 0.5558(5) 0.9191(4) 0.99066(15)
C69_5 C 0.8201(7) 0.9846(6) 0.9772(2)
H81_5 H 0.8481 0.9717 0.9690
C74_5 C 0.7639(7) 0.9727(6) 0.96015(18)
C79_5 C 0.7212(7) 0.9910(6) 0.97330(18)
N10_6 N 0.3270(5) 0.0269(6) 0.04895(14)
N55_6 N 0.4442(5) 0.0809(6) 0.00934(15)
O11_6 O 0.3221(3) 0.2159(5) 0.05912(17)
H15_6 H 0.3512 0.2447 0.0472
C54_6 C 0.2900(4) 0.2656(7) 0.00284(18)
H71_6 H 0.3310 0.2928 0.0112
C59_6 C 0.2467(4) 0.2105(7) 0.01895(19)
C64_6 C 0.1846(4) 0.1689(7) 0.0062(2)
H76_6 H 0.1565 0.1325 0.0181
C68_6 C 0.1799(7) 0.0154(8) 0.0228(2)
H80_6 H 0.1519 0.0283 0.0310
C73_6 C 0.2361(7) 0.0273(8) 0.03985(18)
C78_6 C 0.2788(7) 0.0090(8) 0.02670(18)
C84_6 C 0.2651(4) 0.1905(7) 0.0507(2)
Cu8_6 Cu 0.38213(4) 0.41238(6) 0.94935(2)
Cu15_6 Cu 0.28453(4) 0.36358(7) 0.88399(2)
Cl5_6 Cl 0.3333 0.4666(2) 0.9167
N11_6 N 0.3000(3) 0.3270(5) 0.95105(14)
N16_6 N 0.2599(3) 0.3135(5) 0.92602(14)
N20_6 N 0.4067(3) 0.3869(6) 0.90732(14)
N25_6 N 0.2044(3) 0.2596(4) 0.93083(14)
N56_6 N 0.3632(3) 0.4442(5) 0.99066(15)
C69_6 C 0.1644(4) 0.1799(7) 0.9772(2)
H81_6 H 0.1235 0.1519 0.9690
C74_6 C 0.2087(4) 0.2361(7) 0.96015(18)
C79_6 C 0.2697(4) 0.2788(7) 0.97330(18)
H83_4 H 0.482758 0.99961 0.0212313
O10_6 O 0.2159(5) 0.8937(6) 0.94088(17)
H14_6 H 0.2447 0.8934 0.9528
O15_6 O 0.1461(5) 0.9273(6) 0.93411(13)
C53_6 C 0.2656(7) 0.9755(8) 0.99716(18)
H70_6 H 0.2928 0.9617 0.9888
C58_6 C 0.2105(7) 0.9637(8) 0.98105(19)
C63_6 C 0.1689(7) 0.9842(8) 0.9938(2)
H75_6 H 0.1325 0.9759 0.9819
C83_6 C 0.1905(7) 0.9253(8) 0.9493(2)
Cu2_2 Cu 0.43299(4) 0.53511(6) 0.56568(2)
Cu3_2 Cu 0.3333 0.1667 0.6667
N1_4 N 0.3603(4) 0.3666(3) 0.61771(14)
N3_4 N 0.3885(3) 0.4622(3) 0.59749(14)
N4_3 N 0.4463(4) 0.2679(3) 0.69901(14)
N5_2 N 0.4023(3) 0.2536(3) 0.67633(14)
N6_4 N 0.4143(4) 0.3034(3) 0.65732(15)
O1_4 O 0.2271(4) 0.3445(3) 0.72578(17)
H1_4 H 0.2268 0.3154 0.7138
O2_4 O 0.2607(4) 0.4479(3) 0.73255(13)
O3_2 O 0.6723(3) 0.4499(3) 0.73547(16)
O4_2 O 0.6879(3) 0.5295(3) 0.70301(14)
O5_2 O 0.3319(3) 0.1932(2) 0.62196(12)
O6_2 O 0.4111(6) 0.1339(5) 0.6457(2)
H3_2 H 0.4472 0.1568 0.6551
H4_2 H 0.4167 0.1421 0.6254
C1_4 C 0.5497(6) 0.3703(4) 0.71066(19)
H5_4 H 0.5622 0.3552 0.7285
C2_4 C 0.5874(6) 0.4311(4) 0.6990(2)
C3_4 C 0.5660(6) 0.4555(4) 0.6730(2)
H6_4 H 0.5918 0.4981 0.6665
C4_4 C 0.5085(6) 0.4180(4) 0.6573(2)
H7_4 H 0.4951 0.4341 0.6402
C5_4 C 0.4713(6) 0.3545(4) 0.66818(18)
C6_4 C 0.4912(4) 0.3314(3) 0.69462(19)
C7_4 C 0.6533(4) 0.4723(4) 0.7138(2)
C8_4 C 0.3089(6) 0.3766(4) 0.66950(18)
H8_4 H 0.2951 0.3356 0.6778
C9_4 C 0.2971(6) 0.4199(4) 0.68561(19)
C10_4 C 0.3176(6) 0.4820(4) 0.6728(2)
H9_4 H 0.3093 0.5101 0.6847
C11_4 C 0.3488(6) 0.5022(4) 0.6438(2)
H10_4 H 0.3617 0.5431 0.6356
C12_4 C 0.3607(6) 0.4579(4) 0.62681(18)
C13_4 C 0.3424(6) 0.3969(4) 0.63996(18)
C14_4 C 0.2587(6) 0.4015(4) 0.7173(2)
Cu5_2 Cu 0.74571(6) 0.69691(4) 0.71732(2)
Cu10_2 Cu 0.69691(4) 0.74571(6) 0.78268(2)
Cu12_2 Cu 0.30309(4) 0.04880(4) 0.71732(2)
Cu16_2 Cu 0.04880(4) 0.30309(4) 0.78268(2)
Cu19_3 Cu 0.43546(7) 0.20178(6) 0.73235(2)
Cu20_2 Cu 0.20178(6) 0.43546(7) 0.76765(2)
Cu22_2 Cu 0.76632(4) 0.56454(7) 0.73235(2)
Cu23_2 Cu 0.46489(6) 0.89787(7) 0.56568(2)
Cu24_3 Cu 0.56454(7) 0.76632(4) 0.76765(2)
Cu25_2 Cu 0.10213(7) 0.56701(4) 0.56568(2)
Cu31_5 Cu 0.56701(4) 0.10213(7) 0.93432(2)
Cu32_3 Cu 0.53511(6) 0.43299(4) 0.93432(2)
Cu36_4 Cu 0.1667 0.3333 0.8333
Cu38_2 Cu 0.8335 0.6667 0.6667
Cl2_2 Cl 0.7999(2) 0.7999(2) 0.7500
Cl4_3 Cl 0.2001(2) 0.0000 0.7500
N8_4 N 0.6603(5) 0.6936(4) 0.71562(14)
N10_7 N 0.3397(5) 0.0333(3) 0.78438(14)
N11_7 N 0.3666(3) 0.3603(4) 0.88229(14)
N13_2 N 0.6468(5) 0.7202(4) 0.74065(14)
N15_3 N 0.3532(5) 0.0734(3) 0.75935(14)
N17_2 N 0.7202(4) 0.6468(5) 0.75935(14)
N22_3 N 0.5929(4) 0.7218(3) 0.73584(14)
N24_5 N 0.4071(4) 0.1289(3) 0.76416(14)
N25_7 N 0.4622(3) 0.3885(3) 0.90251(14)
N26_2 N 0.1289(3) 0.4071(4) 0.73584(14)
N28_3 N 0.7218(3) 0.5929(4) 0.76416(14)
N29_3 N 0.4883(5) 0.6013(3) 0.53235(14)
N30_2 N 0.1129(4) 0.5117(5) 0.53235(14)
N31_2 N 0.2204(4) 0.0654(3) 0.63432(14)
N34_4 N 0.2679(3) 0.4463(4) 0.80099(14)
N36_2 N 0.8217(5) 0.5537(4) 0.69901(14)
N39_2 N 0.2644(3) 0.0797(3) 0.65700(14)
N44_4 N 0.2536(3) 0.4023(3) 0.82367(14)
N45_4 N 0.0797(3) 0.2644(3) 0.84300(14)
N50_2 N 0.2524(4) 0.0299(3) 0.67601(15)
N53_2 N 0.7775(5) 0.7476(4) 0.67601(15)
N56_7 N 0.3034(3) 0.4143(4) 0.84268(15)
O8_4 O 0.5492(5) 0.5604(4) 0.60755(17)
O10_7 O 0.4508(5) 0.0112(3) 0.89245(17)
O11_7 O 0.3445(3) 0.2271(4) 0.77422(17)
H12_4 H 0.5780 0.5601 0.6195
H15_7 H 0.3154 0.2268 0.7862
O13_4 O 0.4794(5) 0.5940(4) 0.60078(13)
O15_7 O 0.5206(5) 0.1146(3) 0.89922(13)
O16_5 O 0.4479(3) 0.2607(4) 0.76745(13)
O17_3 O 0.8127(5) 0.5521(3) 0.76745(13)
O18_3 O 0.4443(4) 0.7833(3) 0.56881(16)
O19_2 O 0.3389(3) 0.5557(4) 0.56881(16)
O22_3 O 0.1166(3) 0.1110(4) 0.59786(16)
O23_3 O 0.5501(3) 0.2223(4) 0.73547(16)
O24_4 O 0.2223(4) 0.5501(3) 0.76453(16)
O26_3 O 0.5083(4) 0.8629(3) 0.53635(14)
O27_2 O 0.3545(3) 0.4917(4) 0.53635(14)
O30_3 O 0.1962(3) 0.1750(4) 0.63032(14)
O31_3 O 0.4705(3) 0.1583(4) 0.70301(14)
O32_4 O 0.1583(4) 0.4705(3) 0.79699(14)
O35_2 O 0.3348(3) 0.1401(2) 0.71137(12)
O36_3 O 0.1401(2) 0.3348(3) 0.78863(12)
O38_2 O 0.8053(4) 0.6652(3) 0.71137(12)
O41_4 O 0.1932(2) 0.3319(3) 0.87804(12)
O48_2 O 0.2556(6) 0.1994(5) 0.6876(2)
O55_4 O 0.1339(5) 0.4111(6) 0.8543(2)
O56_4 O 0.1994(5) 0.2556(6) 0.8124(2)
H30_2 H 0.2195 0.1765 0.6782
H37_4 H 0.1568 0.4472 0.8449
H38_4 H 0.1765 0.2195 0.8218
H41_2 H 0.2500 0.1912 0.7079
H48_4 H 0.1421 0.4167 0.8746
H49_4 H 0.1912 0.2500 0.7921
C15_3 C 0.4873(7) 0.7037(4) 0.54400(19)
C16_2 C 0.2163(6) 0.5127(7) 0.54400(19)
C18_4 C 0.5127(7) 0.2963(4) 0.45600(19)
C19_3 C 0.0370(4) 0.1540(7) 0.62267(19)
H52_3 H 0.4597 0.6886 0.5619
H53_2 H 0.2288 0.5403 0.5619
H55_4 H 0.5403 0.3114 0.4381
H56_3 H 0.0219 0.1264 0.6048
C20_3 C 0.5104(7) 0.7645(4) 0.5324(2)
C21_2 C 0.2540(6) 0.4896(7) 0.5324(2)
C23_4 C 0.4896(7) 0.2355(4) 0.4676(2)
C24_3 C 0.0978(4) 0.1771(7) 0.6343(2)
C25_3 C 0.5562(7) 0.7889(4) 0.5064(2)
C26_2 C 0.2326(6) 0.4438(7) 0.5064(2)
C28_4 C 0.4438(7) 0.2111(4) 0.4936(2)
C29_3 C 0.1222(4) 0.2229(7) 0.6603(2)
H57_3 H 0.5730 0.8315 0.4999
H58_2 H 0.2584 0.4270 0.4999
H60_4 H 0.4270 0.1685 0.5001
H61_3 H 0.1648 0.2397 0.6668
C30_3 C 0.5762(7) 0.7514(4) 0.4907(2)
C31_2 C 0.1751(6) 0.4238(7) 0.4907(2)
C33_4 C 0.4238(7) 0.2486(4) 0.5093(2)
C34_3 C 0.0847(4) 0.2429(7) 0.6760(2)
H62_3 H 0.6057 0.7675 0.4736
H63_2 H 0.1617 0.3943 0.4736
H65_4 H 0.3943 0.2325 0.5264
H66_3 H 0.1008 0.2724 0.6931
C35_3 C 0.5499(7) 0.6879(4) 0.50152(18)
C36_2 C 0.1379(6) 0.4501(7) 0.50152(18)
C38_4 C 0.4501(7) 0.3121(4) 0.49848(18)
C39_3 C 0.0212(4) 0.2166(7) 0.66515(18)
C40_3 C 0.5069(5) 0.6648(3) 0.52796(19)
C41_2 C 0.1578(4) 0.4931(5) 0.52796(19)
C42_2 C 0.1755(4) 0.0019(3) 0.63871(19)
C43_4 C 0.4931(5) 0.3352(3) 0.47204(19)
C45_3 C 0.4857(6) 0.8057(4) 0.5472(2)
C46_2 C 0.3199(4) 0.5143(6) 0.5472(2)
C48_4 C 0.5143(6) 0.1943(4) 0.4528(2)
C49_3 C 0.1390(4) 0.1524(6) 0.6195(2)
C51_4 C 0.5989(7) 0.6422(6) 0.66383(18)
C53_7 C 0.4011(7) 0.0433(4) 0.83617(18)
C54_7 C 0.3766(4) 0.3089(6) 0.83050(18)
H68_4 H 0.6261 0.6284 0.6555
H70_7 H 0.3739 0.0023 0.8445
H71_7 H 0.3356 0.2951 0.8222
C56_4 C 0.5438(7) 0.6304(6) 0.64772(19)
C58_7 C 0.4562(7) 0.0866(4) 0.85228(19)
C59_7 C 0.4199(4) 0.2971(6) 0.81439(19)
C61_4 C 0.5022(7) 0.6509(6) 0.6605(2)
C63_7 C 0.4978(7) 0.1487(4) 0.8395(2)
C64_7 C 0.4820(4) 0.3176(6) 0.8272(2)
H73_4 H 0.4658 0.6426 0.6486
H75_7 H 0.5342 0.1768 0.8514
H76_7 H 0.5101 0.3093 0.8153
C66_4 C 0.5132(7) 0.6821(6) 0.6895(2)
C68_7 C 0.4868(7) 0.1689(4) 0.8105(2)
C69_7 C 0.5022(4) 0.3488(6) 0.8562(2)
H78_4 H 0.4852 0.6950 0.6977
H80_7 H 0.5148 0.2098 0.8023
H81_7 H 0.5431 0.3617 0.8644
C71_4 C 0.5694(7) 0.6940(6) 0.70652(18)
C73_7 C 0.4306(7) 0.1246(4) 0.79348(18)
C74_7 C 0.4579(4) 0.3607(6) 0.87319(18)
C76_4 C 0.6121(7) 0.6757(6) 0.69337(18)
C78_7 C 0.3879(7) 0.0636(4) 0.80663(18)
C79_7 C 0.3969(4) 0.3424(6) 0.86004(18)
C81_4 C 0.5238(7) 0.5920(6) 0.6160(2)
C83_7 C 0.4762(7) 0.0682(4) 0.8840(2)
C84_7 C 0.4015(4) 0.2587(6) 0.7827(2)
Cu7_2 Cu 0.25429(6) 0.95120(4) 0.78268(2)
Cl4_4 Cl 0.2001(2) 1.0000 0.7500
N19_3 N 0.2798(4) 0.9266(3) 0.74065(14)
N55_7 N 0.2225(5) 0.9701(3) 0.82399(15)
H14_7 H 0.4220 0.9821 0.8805
O40_2 O 0.1947(4) 0.8599(2) 0.78863(12)
C17_2 C 0.1170(6) 0.9630(4) 0.62267(19)
H54_2 H 0.1045 0.9781 0.6048
C22_2 C 0.0793(6) 0.9022(4) 0.6343(2)
C27_2 C 0.1007(6) 0.8778(4) 0.6603(2)
H59_2 H 0.0749 0.8352 0.6668
C32_2 C 0.1582(6) 0.9153(4) 0.6760(2)
H64_2 H 0.1716 0.8992 0.6931
C37_2 C 0.1954(6) 0.9788(4) 0.66515(18)
C47_2 C 0.0134(4) 0.8610(4) 0.6195(2)
Cu14_2 Cu 0.95120(4) 0.25429(6) 0.71732(2)
Cu34_2 Cu 0.9999 0.4999 0.5001
Cu35_2 Cu 0.8334 0.1668 0.6666
N33_3 N 0.9346(3) 0.1550(5) 0.63432(14)
N41_3 N 0.9203(3) 0.1847(4) 0.65700(14)
N43_3 N 0.7464(3) 0.1486(4) 0.67633(14)
N52_2 N 0.9701(3) 0.2225(5) 0.67601(15)
O45_3 O 0.8068(2) 0.1386(4) 0.62196(12)
O46_2 O 0.8599(2) 0.1947(4) 0.71137(12)
O53_3 O 0.8006(5) 0.0562(8) 0.6876(2)
O54_3 O 0.8661(5) 0.2771(8) 0.6457(2)
H35_3 H 0.8235 0.0430 0.6782
H36_3 H 0.8432 0.2903 0.6551
H46_3 H 0.8088 0.0588 0.7079
H47_3 H 0.8579 0.2745 0.6254
C44_3 C 0.9981(3) 0.1736(5) 0.63871(19)
O20_2 O 0.9944(3) 0.8834(3) 0.59786(16)
O28_2 O 0.9788(3) 0.8038(3) 0.63032(14)
Cl4_5 Cl -0.0000 0.2001(2) 0.7500
N19_4 N 0.0734(3) 0.3532(5) 0.74065(14)
N55_8 N 0.0299(3) 0.2524(6) 0.82399(15)
H14_8 H 0.0179 0.4399 0.8805
N4_4 N 0.7321(3) 0.1783(5) 0.69901(14)
N6_5 N 0.6966(3) 0.1108(5) 0.65732(15)
C1_5 C 0.6297(4) 0.1793(7) 0.71066(19)
H5_5 H 0.6448 0.2069 0.7285
C2_5 C 0.5689(4) 0.1562(7) 0.6990(2)
C3_5 C 0.5445(4) 0.1104(7) 0.6730(2)
H6_5 H 0.5019 0.0936 0.6665
C4_5 C 0.5820(4) 0.0904(7) 0.6573(2)
H7_5 H 0.5659 0.0609 0.6402
C5_5 C 0.6455(4) 0.1167(7) 0.66818(18)
C6_5 C 0.6686(3) 0.1597(5) 0.69462(19)
C7_5 C 0.5277(4) 0.1809(6) 0.7138(2)
Cu19_4 Cu 0.79822(6) 0.23368(9) 0.73235(2)
Cu31_6 Cu 0.89787(7) 0.46489(8) 0.93432(2)
Cu33_3 Cu 0.4999 0.0001 0.5001
Cl4_6 Cl 1.0000 0.2001(2) 0.7500
N10_8 N 0.9667(3) 0.3064(6) 0.78438(14)
N11_8 N 0.6397(4) 0.0064(5) 0.88229(14)
N15_4 N 0.9266(3) 0.2798(6) 0.75935(14)
N24_6 N 0.8711(3) 0.2782(5) 0.76416(14)
N25_8 N 0.6115(3) 0.0738(4) 0.90251(14)
O10_8 O 0.9888(3) 0.4396(6) 0.89245(17)
O11_8 O 0.7729(4) 0.1175(5) 0.77422(17)
H12_5 H 0.4399 0.0179 0.6195
H15_8 H 0.7732 0.0887 0.7862
O15_8 O 0.8854(3) 0.4060(6) 0.89922(13)
O16_6 O 0.7393(4) 0.1873(5) 0.76745(13)
O22_4 O 0.8890(4) 0.0056(5) 0.59786(16)
O23_4 O 0.7777(4) 0.3277(5) 0.73547(16)
O30_4 O 0.8250(4) 0.0212(5) 0.63032(14)
O31_4 O 0.8417(4) 0.3121(5) 0.70301(14)
C18_5 C 0.7037(4) 0.2163(8) 0.45600(19)
H55_5 H 0.6886 0.2288 0.4381
C23_5 C 0.7645(4) 0.2540(8) 0.4676(2)
C28_5 C 0.7889(4) 0.2326(8) 0.4936(2)
H60_5 H 0.8315 0.2584 0.5001
C33_5 C 0.7514(4) 0.1751(8) 0.5093(2)
H65_5 H 0.7675 0.1617 0.5264
C38_5 C 0.6879(4) 0.1379(8) 0.49848(18)
C43_5 C 0.6648(3) 0.1578(6) 0.47204(19)
C48_5 C 0.8057(4) 0.3199(7) 0.4528(2)
C53_8 C 0.9567(4) 0.3578(8) 0.83617(18)
C54_8 C 0.6911(6) 0.0678(7) 0.83050(18)
H70_8 H 0.9977 0.3716 0.8445
H71_8 H 0.7049 0.0406 0.8222
C58_8 C 0.9134(4) 0.3696(8) 0.85228(19)
C59_8 C 0.7029(6) 0.1229(7) 0.81439(19)
C63_8 C 0.8513(4) 0.3491(8) 0.8395(2)
C64_8 C 0.6824(6) 0.1645(7) 0.8272(2)
H75_8 H 0.8232 0.3574 0.8514
H76_8 H 0.6907 0.2009 0.8153
C68_8 C 0.8311(4) 0.3179(8) 0.8105(2)
C69_8 C 0.6512(6) 0.1535(7) 0.8562(2)
H80_8 H 0.7902 0.3050 0.8023
H81_8 H 0.6383 0.1815 0.8644
C73_8 C 0.8754(4) 0.3060(8) 0.79348(18)
C74_8 C 0.6393(6) 0.0973(7) 0.87319(18)
C78_8 C 0.9364(4) 0.3243(8) 0.80663(18)
C79_8 C 0.6576(6) 0.0546(7) 0.86004(18)
C83_8 C 0.9318(4) 0.4080(8) 0.8840(2)
C84_8 C 0.7413(6) 0.1429(7) 0.7827(2)
N1_5 N 0.6334(3) 0.9936(5) 0.61771(14)
N3_5 N 0.5378(3) 0.9262(4) 0.59749(14)
O1_5 O 0.6555(3) 0.8825(5) 0.72578(17)
H1_5 H 0.6846 0.9113 0.7138
O2_5 O 0.5521(3) 0.8127(5) 0.73255(13)
C8_5 C 0.6234(4) 0.9322(7) 0.66950(18)
H8_5 H 0.6644 0.9594 0.6778
C9_5 C 0.5801(4) 0.8771(7) 0.68561(19)
C10_5 C 0.5180(4) 0.8355(7) 0.6728(2)
H9_5 H 0.4899 0.7991 0.6847
C11_5 C 0.4978(4) 0.8465(7) 0.6438(2)
H10_5 H 0.4569 0.8185 0.6356
C12_5 C 0.5421(4) 0.9027(7) 0.62681(18)
C13_5 C 0.6031(4) 0.9454(7) 0.63996(18)
C14_5 C 0.5985(4) 0.8571(7) 0.7173(2)
Cu24_4 Cu 0.23368(4) 0.79822(8) 0.76765(2)
Cu36_5 Cu 0.6667 0.8335 0.8333
N8_5 N 0.3064(4) 0.9667(6) 0.71562(14)
N22_4 N 0.2782(3) 0.8711(5) 0.73584(14)
N29_4 N 0.3987(3) 0.8871(6) 0.53235(14)
N33_4 N 0.8450(5) 0.7796(6) 0.63432(14)
N34_5 N 0.5537(4) 0.8217(5) 0.80099(14)
N41_4 N 0.8153(4) 0.7356(5) 0.65700(14)
N43_4 N 0.8514(4) 0.5977(5) 0.67633(14)
N44_5 N 0.5977(3) 0.8514(4) 0.82367(14)
N45_5 N 0.7356(3) 0.8153(4) 0.84300(14)
N56_8 N 0.5857(4) 0.8892(5) 0.84268(15)
O8_5 O 0.4396(4) 0.9888(6) 0.60755(17)
O13_5 O 0.4060(4) 0.8854(6) 0.60078(13)
O18_4 O 0.2167(3) 0.6611(5) 0.56881(16)
O24_5 O 0.4499(3) 0.6723(5) 0.76453(16)
O26_4 O 0.1371(3) 0.6455(5) 0.53635(14)
O32_5 O 0.5295(3) 0.6879(5) 0.79699(14)
O36_4 O 0.6652(3) 0.8053(4) 0.78863(12)
O41_5 O 0.6681(3) 0.8614(4) 0.87804(12)
O45_4 O 0.8614(4) 0.6681(4) 0.62196(12)
O53_4 O 0.9438(8) 0.7444(9) 0.6876(2)
O54_4 O 0.7229(8) 0.5889(9) 0.6457(2)
O55_5 O 0.5889(6) 0.7229(8) 0.8543(2)
O56_5 O 0.7444(6) 0.9438(8) 0.8124(2)
H35_4 H 0.9570 0.7805 0.6782
H36_4 H 0.7097 0.5528 0.6551
H37_5 H 0.5528 0.7097 0.8449
H38_5 H 0.7805 0.9570 0.8218
H46_4 H 0.9412 0.7500 0.7079
H47_4 H 0.7255 0.5833 0.6254
H48_5 H 0.5833 0.7255 0.8746
H49_5 H 0.7500 0.9412 0.7921
C15_4 C 0.2963(4) 0.7837(8) 0.54400(19)
C19_4 C 0.8460(7) 0.8830(8) 0.62267(19)
H52_4 H 0.3114 0.7712 0.5619
H56_4 H 0.8736 0.8955 0.6048
C20_4 C 0.2355(4) 0.7460(8) 0.5324(2)
C24_4 C 0.8229(7) 0.9207(8) 0.6343(2)
C25_4 C 0.2111(4) 0.7674(8) 0.5064(2)
C29_4 C 0.7771(7) 0.8993(8) 0.6603(2)
H57_4 H 0.1685 0.7416 0.4999
H61_4 H 0.7603 0.9251 0.6668
C30_4 C 0.2486(4) 0.8249(8) 0.4907(2)
C34_4 C 0.7571(7) 0.8418(8) 0.6760(2)
H62_4 H 0.2325 0.8383 0.4736
H66_4 H 0.7276 0.8284 0.6931
C35_4 C 0.3121(4) 0.8621(8) 0.50152(18)
C39_4 C 0.7834(7) 0.8046(8) 0.66515(18)
C40_4 C 0.3352(3) 0.8422(6) 0.52796(19)
C44_4 C 0.8264(5) 0.8245(6) 0.63871(19)
C45_4 C 0.1943(4) 0.6801(7) 0.5472(2)
C49_4 C 0.8476(6) 0.9866(7) 0.6195(2)
C51_5 C 0.3578(6) 0.9567(9) 0.66383(18)
H68_5 H 0.3716 0.9977 0.6555
C56_5 C 0.3696(6) 0.9134(9) 0.64772(19)
C61_5 C 0.3491(6) 0.8513(9) 0.6605(2)
H73_5 H 0.3574 0.8232 0.6486
C66_5 C 0.3179(6) 0.8311(9) 0.6895(2)
H78_5 H 0.3050 0.7902 0.6977
C71_5 C 0.3060(6) 0.8754(9) 0.70652(18)
C76_5 C 0.3243(6) 0.9364(9) 0.69337(18)
C81_5 C 0.4080(6) 0.9318(9) 0.6160(2)
N1_6 N 0.0064(5) 0.6397(4) 0.61771(14)
N3_6 N 0.0738(4) 0.6115(3) 0.59749(14)
O1_6 O 0.1175(5) 0.7729(4) 0.72578(17)
H1_6 H 0.0887 0.7732 0.7138
O2_6 O 0.1873(5) 0.7393(4) 0.73255(13)
C8_6 C 0.0678(7) 0.6911(6) 0.66950(18)
H8_6 H 0.0406 0.7049 0.6778
C9_6 C 0.1229(7) 0.7029(6) 0.68561(19)
C10_6 C 0.1645(7) 0.6824(6) 0.6728(2)
H9_6 H 0.2009 0.6907 0.6847
C11_6 C 0.1535(7) 0.6512(6) 0.6438(2)
H10_6 H 0.1815 0.6383 0.6356
C12_6 C 0.0973(7) 0.6393(6) 0.62681(18)
C13_6 C 0.0546(7) 0.6576(6) 0.63996(18)
C14_6 C 0.1429(7) 0.7413(6) 0.7173(2)
Cu36_6 Cu 0.1665 0.8333 0.8333
N8_6 N 0.0333(6) 0.3397(5) 0.71562(14)
N34_6 N 0.1783(5) 0.7321(3) 0.80099(14)
N44_6 N 0.1486(4) 0.7464(3) 0.82367(14)
N45_6 N 0.1847(4) 0.9203(3) 0.84300(14)
N56_9 N 0.1108(5) 0.6966(3) 0.84268(15)
O8_6 O 0.0112(6) 0.4508(5) 0.60755(17)
O13_6 O 0.1146(6) 0.5206(5) 0.60078(13)
O24_6 O 0.3277(5) 0.7777(4) 0.76453(16)
O32_6 O 0.3121(5) 0.8417(4) 0.79699(14)
O41_6 O 0.1386(4) 0.8068(2) 0.87804(12)
O55_6 O 0.2771(8) 0.8661(5) 0.8543(2)
O56_6 O 0.0562(8) 0.8006(5) 0.8124(2)
H37_6 H 0.2903 0.8432 0.8449
H38_6 H 0.0430 0.8235 0.8218
H48_6 H 0.2745 0.8579 0.8746
H49_6 H 0.0588 0.8088 0.7921
C51_6 C 0.0433(9) 0.4011(7) 0.66383(18)
H68_6 H 0.0023 0.3739 0.6555
C56_6 C 0.0866(9) 0.4562(7) 0.64772(19)
C61_6 C 0.1487(9) 0.4978(7) 0.6605(2)
H73_6 H 0.1768 0.5342 0.6486
C66_6 C 0.1689(9) 0.4868(7) 0.6895(2)
H78_6 H 0.2098 0.5148 0.6977
C71_6 C 0.1246(9) 0.4306(7) 0.70652(18)
C76_6 C 0.0636(9) 0.3879(7) 0.69337(18)
C81_6 C 0.0682(9) 0.4762(7) 0.6160(2)
N6_6 N 0.8892(5) 0.5857(4) 0.65732(15)
C1_6 C 0.8207(7) 0.4503(6) 0.71066(19)
H5_6 H 0.7931 0.4378 0.7285
C2_6 C 0.8438(7) 0.4126(6) 0.6990(2)
C3_6 C 0.8896(7) 0.4340(6) 0.6730(2)
H6_6 H 0.9064 0.4082 0.6665
C4_6 C 0.9096(7) 0.4915(6) 0.6573(2)
H7_6 H 0.9391 0.5049 0.6402
C5_6 C 0.8833(7) 0.5287(6) 0.66818(18)
C6_6 C 0.8403(5) 0.5088(4) 0.69462(19)
C7_6 C 0.8191(6) 0.3467(4) 0.7138(2)
N10_9 N 0.6936(6) 0.6603(5) 0.78438(14)
N11_9 N 0.9936(5) 0.6334(3) 0.88229(14)
N25_9 N 0.9262(4) 0.5378(3) 0.90251(14)
N55_9 N 0.7476(6) 0.7775(5) 0.82399(15)
O10_9 O 0.5604(6) 0.5492(5) 0.89245(17)
O11_9 O 0.8825(5) 0.6555(3) 0.77422(17)
H12_6 H 0.9821 0.4220 0.6195
H14_9 H 0.5601 0.5780 0.8805
H15_9 H 0.9113 0.6846 0.7862
O15_9 O 0.5940(6) 0.4794(5) 0.89922(13)
C18_6 C 0.7837(8) 0.4873(7) 0.45600(19)
H55_6 H 0.7712 0.4597 0.4381
C23_6 C 0.7460(8) 0.5104(7) 0.4676(2)
C28_6 C 0.7674(8) 0.5562(7) 0.4936(2)
H60_6 H 0.7416 0.5730 0.5001
C33_6 C 0.8249(8) 0.5762(7) 0.5093(2)
H65_6 H 0.8383 0.6057 0.5264
C38_6 C 0.8621(8) 0.5499(7) 0.49848(18)
C43_6 C 0.8422(6) 0.5069(5) 0.47204(19)
C48_6 C 0.6801(7) 0.4857(6) 0.4528(2)
C53_9 C 0.6422(8) 0.5989(7) 0.83617(18)
C54_9 C 0.9322(7) 0.6234(4) 0.83050(18)
H70_9 H 0.6284 0.6261 0.8445
H71_9 H 0.9594 0.6644 0.8222
C58_9 C 0.6304(8) 0.5438(7) 0.85228(19)
C59_9 C 0.8771(7) 0.5801(4) 0.81439(19)
C63_9 C 0.6509(8) 0.5022(7) 0.8395(2)
C64_9 C 0.8355(7) 0.5180(4) 0.8272(2)
H75_9 H 0.6426 0.4658 0.8514
H76_9 H 0.7991 0.4899 0.8153
C68_9 C 0.6821(8) 0.5132(7) 0.8105(2)
C69_9 C 0.8465(7) 0.4978(4) 0.8562(2)
H80_9 H 0.6950 0.4852 0.8023
H81_9 H 0.8185 0.4569 0.8644
C73_9 C 0.6940(8) 0.5694(7) 0.79348(18)
C74_9 C 0.9027(7) 0.5421(4) 0.87319(18)
C78_9 C 0.6757(8) 0.6121(7) 0.80663(18)
C79_9 C 0.9454(7) 0.6031(4) 0.86004(18)
C83_9 C 0.5920(8) 0.5238(7) 0.8840(2)
C84_9 C 0.8571(7) 0.5985(4) 0.7827(2)
O18_5 O 0.1110(4) 0.1166(3) 0.90214(16)
O26_5 O 0.1750(4) 0.1962(3) 0.86968(14)
C15_5 C 0.1540(7) 0.0370(4) 0.87733(19)
H52_5 H 0.1264 0.0219 0.8952
C20_5 C 0.1771(7) 0.0978(4) 0.8657(2)
C25_5 C 0.2229(7) 0.1222(4) 0.8397(2)
H57_5 H 0.2397 0.1648 0.8332
C30_5 C 0.2429(7) 0.0847(4) 0.8240(2)
H62_5 H 0.2724 0.1008 0.8069
C35_5 C 0.2166(7) 0.0212(4) 0.83485(18)
C45_5 C 0.1524(6) 0.1390(4) 0.8805(2)
C1_7 C 0.2163(6) 0.7037(4) 0.04400(19)
H5_7 H 0.2288 0.6886 0.0619
C2_7 C 0.2540(6) 0.7645(4) 0.0324(2)
C3_7 C 0.2326(6) 0.7889(4) 0.0064(2)
C5_7 C 0.1379(6) 0.6879(4) 0.00152(18)
C6_7 C 0.1578(4) 0.6648(3) 0.02796(19)
C7_7 C 0.3199(4) 0.8057(4) 0.0472(2)
H6_7 H 0.2584 0.8315 0.9999
C4_7 C 0.1751(6) 0.7514(4) 0.9907(2)
H7_7 H 0.1617 0.7675 0.9736
N29_5 N 0.1550(5) 0.9346(3) 0.86568(14)
O19_3 O 0.0056(3) 0.8890(4) 0.90214(16)
O27_3 O 0.0212(3) 0.8250(4) 0.86968(14)
C18_7 C 0.1793(7) 0.6297(4) 0.78934(19)
H55_7 H 0.2069 0.6448 0.7715
C23_7 C 0.1562(7) 0.5689(4) 0.8010(2)
C28_7 C 0.1104(7) 0.5445(4) 0.8270(2)
H60_7 H 0.0936 0.5019 0.8335
C33_7 C 0.0904(7) 0.5820(4) 0.8427(2)
H65_7 H 0.0609 0.5659 0.8598
C38_7 C 0.1167(7) 0.6455(4) 0.83182(18)
C40_5 C 0.1736(5) 0.9981(3) 0.86129(19)
C43_7 C 0.1597(5) 0.6686(3) 0.80538(19)
C48_7 C 0.1809(6) 0.5277(4) 0.7862(2)
H59_3 H 0.7416 0.1685 0.0001
H61_5 H 0.8315 0.5730 0.0001
C32_3 C 0.8249(6) 0.2486(4) 0.0093(2)
C34_5 C 0.7514(4) 0.5762(7) 0.0093(2)
H64_3 H 0.8383 0.2325 0.0264
H66_5 H 0.7675 0.6057 0.0264
Cu35_3 Cu 0.5001 0.5001 0.9999
N30_3 N 0.7796(4) 0.8450(5) 0.86568(14)
N31_3 N 0.8871(4) 0.3987(3) 0.96765(14)
N33_5 N 0.6013(3) 0.4883(5) 0.96765(14)
O20_3 O 0.6611(3) 0.2167(3) 0.93119(16)
O22_5 O 0.7833(3) 0.4443(4) 0.93119(16)
O28_3 O 0.6455(3) 0.1371(3) 0.96365(14)
O30_5 O 0.8629(3) 0.5083(4) 0.96365(14)
C16_3 C 0.8830(6) 0.8460(7) 0.87733(19)
C17_3 C 0.7837(6) 0.2963(4) 0.95600(19)
C19_5 C 0.7037(4) 0.4873(7) 0.95600(19)
H53_3 H 0.8955 0.8736 0.8952
H54_3 H 0.7712 0.3114 0.9381
H56_5 H 0.6886 0.4597 0.9381
C21_3 C 0.9207(6) 0.8229(7) 0.8657(2)
C22_3 C 0.7460(6) 0.2355(4) 0.9676(2)
C24_5 C 0.7645(4) 0.5104(7) 0.9676(2)
C26_3 C 0.8993(6) 0.7771(7) 0.8397(2)
C27_3 C 0.7674(6) 0.2111(4) 0.9936(2)
C29_5 C 0.7889(4) 0.5562(7) 0.9936(2)
H58_3 H 0.9251 0.7603 0.8332
C31_3 C 0.8418(6) 0.7571(7) 0.8240(2)
H63_3 H 0.8284 0.7276 0.8069
C36_3 C 0.8046(6) 0.7834(7) 0.83485(18)
C37_3 C 0.8621(6) 0.3121(4) 0.99848(18)
C39_5 C 0.6879(4) 0.5499(7) 0.99848(18)
C41_3 C 0.8245(4) 0.8264(5) 0.86129(19)
C42_3 C 0.8422(4) 0.3352(3) 0.97204(19)
C44_5 C 0.6648(3) 0.5069(5) 0.97204(19)
C46_3 C 0.9866(4) 0.8476(6) 0.8805(2)
C47_3 C 0.6801(4) 0.1943(4) 0.9528(2)
C49_5 C 0.8057(4) 0.4857(6) 0.9528(2)
C1_8 C 0.2963(4) 0.5127(7) 0.04400(19)
H5_8 H 0.3114 0.5403 0.0619
C2_8 C 0.2355(4) 0.4896(7) 0.0324(2)
C3_8 C 0.2111(4) 0.4438(7) 0.0064(2)
C5_8 C 0.3121(4) 0.4501(7) 0.00152(18)
C6_8 C 0.3352(3) 0.4931(5) 0.02796(19)
C7_8 C 0.1943(4) 0.5143(6) 0.0472(2)
H61_6 H 0.4270 0.2584 0.0001
C34_6 C 0.4238(7) 0.1751(8) 0.0093(2)
H66_6 H 0.3943 0.1617 0.0264
H6_8 H 0.1685 0.4270 0.9999
C4_8 C 0.2486(4) 0.4238(7) 0.9907(2)
H7_8 H 0.2325 0.3943 0.9736
N29_6 N 0.0654(3) 0.2204(6) 0.86568(14)
N33_6 N 0.5117(5) 0.1129(6) 0.96765(14)
O22_6 O 0.5557(4) 0.3389(5) 0.93119(16)
O30_6 O 0.4917(4) 0.3545(5) 0.96365(14)
C18_8 C 0.3703(4) 0.5497(8) 0.78934(19)
C19_6 C 0.5127(7) 0.2163(8) 0.95600(19)
H55_8 H 0.3552 0.5622 0.7715
H56_6 H 0.5403 0.2288 0.9381
C23_8 C 0.4311(4) 0.5874(8) 0.8010(2)
C24_6 C 0.4896(7) 0.2540(8) 0.9676(2)
C28_8 C 0.4555(4) 0.5660(8) 0.8270(2)
C29_6 C 0.4438(7) 0.2326(8) 0.9936(2)
H60_8 H 0.4981 0.5918 0.8335
C33_8 C 0.4180(4) 0.5085(8) 0.8427(2)
H65_8 H 0.4341 0.4951 0.8598
C38_8 C 0.3545(4) 0.4713(8) 0.83182(18)
C39_6 C 0.4501(7) 0.1379(8) 0.99848(18)
C40_6 C 0.0019(3) 0.1755(6) 0.86129(19)
C43_8 C 0.3314(3) 0.4912(6) 0.80538(19)
C44_6 C 0.4931(5) 0.1578(6) 0.97204(19)
C48_8 C 0.4723(4) 0.6533(7) 0.7862(2)
C49_6 C 0.5143(6) 0.3199(7) 0.9528(2)
Cu35_4 Cu 0.4999 0.9999 0.9999
C15_6 C 0.9630(4) 0.1170(8) 0.87733(19)
H52_6 H 0.9781 0.1045 0.8952
C20_6 C 0.9022(4) 0.0793(8) 0.8657(2)
C25_6 C 0.8778(4) 0.1007(8) 0.8397(2)
H57_6 H 0.8352 0.0749 0.8332
C30_6 C 0.9153(4) 0.1582(8) 0.8240(2)
H62_6 H 0.8992 0.1716 0.8069
C35_6 C 0.9788(4) 0.1954(8) 0.83485(18)
C45_6 C 0.8610(4) 0.0134(7) 0.8805(2)
O18_6 O 0.8834(3) 0.9944(5) 0.90214(16)
O26_6 O 0.8038(3) 0.9788(5) 0.86968(14)
Cu35_5 Cu 0.0001 0.4999 0.9999
C1_9 C 0.4873(7) 0.7837(6) 0.04400(19)
H5_9 H 0.4597 0.7712 0.0619
C2_9 C 0.5104(7) 0.7460(6) 0.0324(2)
C3_9 C 0.5562(7) 0.7674(6) 0.0064(2)
C5_9 C 0.5499(7) 0.8621(6) 0.00152(18)
C6_9 C 0.5069(5) 0.8422(4) 0.02796(19)
C7_9 C 0.4857(6) 0.6801(4) 0.0472(2)
H6_9 H 0.5730 0.7416 0.9999
C4_9 C 0.5762(7) 0.8249(6) 0.9907(2)
H7_9 H 0.6057 0.8383 0.9736
C18_9 C 0.4503(8) 0.8207(7) 0.78934(19)
H55_9 H 0.4378 0.7931 0.7715
C23_9 C 0.4126(8) 0.8438(7) 0.8010(2)
C28_9 C 0.4340(8) 0.8896(7) 0.8270(2)
H60_9 H 0.4082 0.9064 0.8335
C33_9 C 0.4915(8) 0.9096(7) 0.8427(2)
H65_9 H 0.5049 0.9391 0.8598
C38_9 C 0.5287(8) 0.8833(7) 0.83182(18)
C43_9 C 0.5088(6) 0.8403(5) 0.80538(19)
C48_9 C 0.3467(7) 0.8191(6) 0.7862(2)
H82_5 H 0.440763 0.0143055 0.0455965
H82_6 H 0.985694 0.426457 0.0455965
H83_5 H 0.516852 0.99961 0.521231
H83_6 H 0.000390414 0.517242 0.521231
H82_7 H 0.0143055 0.440763 0.454403
H82_8 H 0.426457 0.985694 0.454403
H83_7 H 0.99961 0.516852 0.978769
H83_8 H 0.517242 0.000390414 0.978769
loop_
_geom_bond_atom_site_label_1
_geom_bond_atom_site_label_2
_geom_bond_site_symmetry_1
_geom_bond_site_symmetry_2
Cu5 Cl2 1_555 1_555
Cu10 Cl2 1_555 1_555
Cu22 O3 1_555 1_555
Cu38 O38 1_555 1_555
N17 Cu5 1_555 1_555
N28 Cu22 1_555 1_555
N36 Cu22 1_555 1_555
N53 Cu5 1_555 1_555
O17 Cu22 1_555 1_555
O38 Cu5 1_555 1_555
O4 Cu22 1_555 1_555
Cu22 O38 1_555 1_555
N17 N28 1_555 1_555
Cu2 N3 1_555 1_555
Cl1 Cu4 1_555 1_555
N2 N1 1_555 1_555
N3 N2 1_555 1_555
O2 C14 1_555 1_555
C1 H5 1_555 1_555
C2 C1 1_555 1_555
C3 C2 1_555 1_555
H6 C3 1_555 1_555
C4 C3 1_555 1_555
H7 C4 1_555 1_555
C7 C2 1_555 1_555
C8 H8 1_555 1_555
C9 C8 1_555 1_555
C10 C9 1_555 1_555
H9 C10 1_555 1_555
C11 C10 1_555 1_555
H10 C11 1_555 1_555
C12 N3 1_555 1_555
C13 N1 1_555 1_555
C14 O1 1_555 1_555
Cu4 N2 1_555 1_555
Cu8 Cl5 1_555 1_555
Cu9 N48 1_555 1_555
Cu11 N49 1_555 1_555
Cu15 Cl5 1_555 1_555
Cu20 O2 1_555 1_555
Cu23 O18 1_555 1_555
Cu24 N22 1_555 1_555
Cu25 N30 1_555 1_555
Cu27 N32 1_555 1_555
Cu32 N25 1_555 1_555
Cu33 N37 1_555 1_555
Cu34 N38 1_555 1_555
N11 Cu8 1_555 1_555
N16 Cu15 1_555 1_555
N22 N13 1_555 1_555
N25 N16 1_555 1_555
N26 Cu20 1_555 1_555
N29 Cu2 1_555 1_555
N30 N38 1_555 1_555
N32 N40 1_555 1_555
N34 Cu20 1_555 1_555
N37 N29 1_555 1_555
N38 N49 1_555 1_555
N40 Cu33 1_555 1_555
N42 Cu34 1_555 1_555
N44 N34 1_555 1_555
N48 N37 1_555 1_555
N49 C36 1_555 1_555
N51 Cu4 1_555 1_555
N56 Cu8 1_555 1_555
O8 H12 1_555 1_555
O13 Cu2 1_555 1_555
O18 C45 1_555 1_555
O19 Cu2 1_555 1_555
O24 Cu20 1_555 1_555
O26 Cu23 1_555 1_555
O27 Cu2 1_555 1_555
O32 Cu20 1_555 1_555
O34 Cu2 1_555 1_555
O36 Cu20 1_555 1_555
O42 Cu9 1_555 1_555
O43 Cu25 1_555 1_555
O44 Cu11 1_555 1_555
O49 Cu33 1_555 1_555
O50 Cu33 1_555 1_555
O51 Cu34 1_555 1_555
O52 Cu34 1_555 1_555
O58 Cu37 1_555 1_555
H31 O49 1_555 1_555
H32 O50 1_555 1_555
H33 O51 1_555 1_555
H34 O52 1_555 1_555
H37 O55 1_555 1_555
H40 O58 1_555 1_555
H42 O49 1_555 1_555
H43 O50 1_555 1_555
H44 O51 1_555 1_555
H45 O52 1_555 1_555
H48 O55 1_555 1_555
H51 O58 1_555 1_555
C15 H52 1_555 1_555
C16 H53 1_555 1_555
C20 C15 1_555 1_555
C21 C16 1_555 1_555
C25 C20 1_555 1_555
C26 C21 1_555 1_555
H57 C25 1_555 1_555
H58 C26 1_555 1_555
C30 C25 1_555 1_555
C31 C26 1_555 1_555
H62 C30 1_555 1_555
H63 C31 1_555 1_555
C35 N48 1_555 1_555
C36 C31 1_555 1_555
C40 N29 1_555 1_555
C41 N30 1_555 1_555
C43 N32 1_555 1_555
C45 O26 1_555 1_555
C46 O19 1_555 1_555
C51 H68 1_555 1_555
C56 C51 1_555 1_555
C61 C56 1_555 1_555
H73 C61 1_555 1_555
C66 C61 1_555 1_555
H78 C66 1_555 1_555
H81 C69 1_555 1_555
C71 N22 1_555 1_555
C74 N25 1_555 1_555
C76 N8 1_555 1_555
C79 N11 1_555 1_555
C81 O8 1_555 1_555
C4 C5 1_555 1_555
C8 C13 1_555 1_555
C9 C14 1_555 1_555
C11 C12 1_555 1_555
C12 C13 1_555 1_555
Cu4 O34 1_555 1_555
Cu27 O42 1_555 1_555
Cu33 O34 1_555 1_555
Cu33 O42 1_555 1_555
Cu34 O43 1_555 1_555
Cu34 O44 1_555 1_555
N8 N13 1_555 1_555
N11 N16 1_555 1_555
N40 N51 1_555 1_555
N44 N56 1_555 1_555
O13 C81 1_555 1_555
O27 C46 1_555 1_555
C15 C40 1_555 1_555
C16 C41 1_555 1_555
C20 C45 1_555 1_555
C21 C46 1_555 1_555
C30 C35 1_555 1_555
C35 C40 1_555 1_555
C36 C41 1_555 1_555
C51 C76 1_555 1_555
C56 C81 1_555 1_555
C66 C71 1_555 1_555
C69 C74 1_555 1_555
C71 C76 1_555 1_555
C74 C79 1_555 1_555
Cu1 Cl1_2 1_555 1_555
Cu3 N5 1_555 1_555
N4 N5 1_555 1_555
N5 N6 1_555 1_555
N6 Cu1 1_555 1_555
O5 Cu1 1_555 1_555
O6 Cu3 1_555 1_555
H3 O6 1_555 1_555
H4 O6 1_555 1_555
C6 N4 1_555 1_555
Cu6 Cl3 1_555 1_555
Cu7 Cl4 1_555 1_555
Cu12 Cl4 1_555 1_555
Cu13 Cl3 1_555 1_555
Cu14 N52 1_555 1_555
Cu18 O5 1_555 1_555
Cu19 N4 1_555 1_555
Cu21 N27 1_555 1_555
Cu26 O20 1_555 1_555
Cu28 O21 1_555 1_555
Cu29 N23 1_555 1_555
Cu30 N33 1_555 1_555
Cu31 O15 1_555 1_555
Cu35 N41 1_555 1_555
N9 Cu6 1_555 1_555
N10 Cu7 1_555 1_555
N12 Cu1 1_555 1_555
N14 Cu13 1_555 1_555
N15 Cu12 1_555 1_555
N18 Cu6 1_555 1_555
N19 Cu7 1_555 1_555
N21 Cu18 1_555 1_555
N23 N14 1_555 1_555
N24 Cu19 1_555 1_555
N31 Cu18 1_555 1_555
N33 N41 1_555 1_555
N35 Cu21 1_555 1_555
N39 Cu3 1_555 1_555
N41 N52 1_555 1_555
N43 Cu35 1_555 1_555
N45 Cu36 1_555 1_555
N46 N35 1_555 1_555
N50 Cu12 1_555 1_555
N52 C39 1_555 1_555
N54 Cu6 1_555 1_555
N55 Cu7 1_555 1_555
O9 H13 1_555 1_555
O10 H14 1_555 1_555
O11 H15 1_555 1_555
O12 Cu21 1_555 1_555
O14 Cu18 1_555 1_555
O15 C83 1_555 1_555
O16 Cu19 1_555 1_555
O20 C47 1_555 1_555
O21 C48 1_555 1_555
O22 Cu18 1_555 1_555
O23 Cu19 1_555 1_555
O25 Cu21 1_555 1_555
O28 Cu26 1_555 1_555
O29 Cu28 1_555 1_555
O30 Cu18 1_555 1_555
O31 Cu19 1_555 1_555
O33 Cu21 1_555 1_555
O35 Cu3 1_555 1_555
O37 Cu21 1_555 1_555
O39 Cu6 1_555 1_555
O40 Cu7 1_555 1_555
O45 Cu30 1_555 1_555
O46 Cu14 1_555 1_555
O48 Cu3 1_555 1_555
O53 Cu35 1_555 1_555
O54 Cu35 1_555 1_555
O56 Cu36 1_555 1_555
H30 O48 1_555 1_555
H35 O53 1_555 1_555
H36 O54 1_555 1_555
H38 O56 1_555 1_555
H41 O48 1_555 1_555
H46 O53 1_555 1_555
H47 O54 1_555 1_555
H49 O56 1_555 1_555
C17 H54 1_555 1_555
C18 H55 1_555 1_555
C19 H56 1_555 1_555
C22 C17 1_555 1_555
C23 C18 1_555 1_555
C24 C19 1_555 1_555
C27 C22 1_555 1_555
C28 C23 1_555 1_555
C29 C24 1_555 1_555
H59 C27 1_555 1_555
H60 C28 1_555 1_555
H61 C29 1_555 1_555
C32 C27 1_555 1_555
C33 C28 1_555 1_555
C34 C29 1_555 1_555
H64 C32 1_555 1_555
H65 C33 1_555 1_555
H66 C34 1_555 1_555
C37 N50 1_555 1_555
C39 C34 1_555 1_555
C42 N31 1_555 1_555
C44 N33 1_555 1_555
C47 O28 1_555 1_555
C48 O29 1_555 1_555
C49 O22 1_555 1_555
C50 H67 1_555 1_555
C52 H69 1_555 1_555
C53 H70 1_555 1_555
C54 H71 1_555 1_555
C55 C50 1_555 1_555
C57 C52 1_555 1_555
C58 C53 1_555 1_555
C59 C54 1_555 1_555
C60 C55 1_555 1_555
C62 C57 1_555 1_555
C63 C58 1_555 1_555
C64 C59 1_555 1_555
H72 C60 1_555 1_555
H74 C62 1_555 1_555
H75 C63 1_555 1_555
H76 C64 1_555 1_555
C65 C60 1_555 1_555
C67 C62 1_555 1_555
C68 C63 1_555 1_555
H77 C65 1_555 1_555
H79 C67 1_555 1_555
H80 C68 1_555 1_555
C70 N21 1_555 1_555
C72 N23 1_555 1_555
C73 N24 1_555 1_555
C75 N7 1_555 1_555
C77 N9 1_555 1_555
C78 N10 1_555 1_555
C80 O7 1_555 1_555
C82 O9 1_555 1_555
C83 O10 1_555 1_555
C84 O11 1_555 1_555
Cu3 O5 1_555 1_555
Cu12 O35 1_555 1_555
Cu19 O35 1_555 1_555
Cu28 O39 1_555 1_555
Cu35 O45 1_555 1_555
Cu35 O46 1_555 1_555
Cu36 O41 1_555 1_555
N7 N12 1_555 1_555
N9 N14 1_555 1_555
N10 N15 1_555 1_555
N12 N21 1_555 1_555
N15 N24 1_555 1_555
N31 N39 1_555 1_555
N39 N50 1_555 1_555
O12 C80 1_555 1_555
O14 C82 1_555 1_555
O16 C84 1_555 1_555
O30 C49 1_555 1_555
C17 C42 1_555 1_555
C19 C44 1_555 1_555
C22 C47 1_555 1_555
C23 C48 1_555 1_555
C24 C49 1_555 1_555
C32 C37 1_555 1_555
C33 C38 1_555 1_555
C37 C42 1_555 1_555
C39 C44 1_555 1_555
C50 C75 1_555 1_555
C52 C77 1_555 1_555
C53 C78 1_555 1_555
C55 C80 1_555 1_555
C57 C82 1_555 1_555
C58 C83 1_555 1_555
C59 C84 1_555 1_555
C65 C70 1_555 1_555
C67 C72 1_555 1_555
C68 C73 1_555 1_555
C70 C75 1_555 1_555
C72 C77 1_555 1_555
C73 C78 1_555 1_555
H39 O57 1_555 1_555
H50 O57 1_555 1_555
Cu11 Cl3_2 1_555 1_555
Cu17 Cl3_2 1_555 1_555
Cu28_2 O21_2 1_555 1_555
Cu31_2 O15_2 1_555 1_555
N18_2 Cu11 1_555 1_555
O10_2 H14_2 1_555 1_555
O15_2 C83_2 1_555 1_555
O29_2 Cu28_2 1_555 1_555
C53_2 H70_2 1_555 1_555
C58_2 C53_2 1_555 1_555
C63_2 C58_2 1_555 1_555
H75_2 C63_2 1_555 1_555
C83_2 O10_2 1_555 1_555
Cu28_2 O44 1_555 1_555
C58_2 C83_2 1_555 1_555
O36 H83 1_555 1_555
Cu1_2 Cl1_3 1_555 1_555
N4_2 N43 1_555 1_555
N43 N6_2 1_555 1_555
N6_2 Cu1_2 1_555 1_555
O45 Cu1_2 1_555 1_555
C6_2 N4_2 1_555 1_555
Cu16 Cl4_2 1_555 1_555
Cu14 Cl4_2 1_555 1_555
Cu19_2 N4_2 1_555 1_555
Cu21_2 N27_2 1_555 1_555
Cu26 N33_2 1_555 1_555
Cu38 N41_2 1_555 1_555
N10_2 Cu16 1_555 1_555
N12_2 Cu1_2 1_555 1_555
N15_2 Cu14 1_555 1_555
N21_2 Cu30 1_555 1_555
N27 N14_2 1_555 1_555
N24_2 Cu19_2 1_555 1_555
N33_2 N41_2 1_555 1_555
N35_2 Cu21_2 1_555 1_555
N41_2 N53 1_555 1_555
N43_2 Cu38 1_555 1_555
N45_2 Cu36_2 1_555 1_555
N46_2 N35_2 1_555 1_555
N53 C39_2 1_555 1_555
N55_2 Cu16 1_555 1_555
O9_2 H13_2 1_555 1_555
O11_2 H15_2 1_555 1_555
O12_2 Cu21_2 1_555 1_555
O14_2 Cu30 1_555 1_555
O16_2 Cu19_2 1_555 1_555
O22_2 Cu30 1_555 1_555
O23_2 Cu19_2 1_555 1_555
O25_2 Cu21_2 1_555 1_555
O30_2 Cu30 1_555 1_555
O31_2 Cu19_2 1_555 1_555
O33_2 Cu21_2 1_555 1_555
O37_2 Cu21_2 1_555 1_555
O45_2 Cu26 1_555 1_555
O53_2 Cu38 1_555 1_555
O54_2 Cu38 1_555 1_555
O56_2 Cu36_2 1_555 1_555
H35_2 O53_2 1_555 1_555
H36_2 O54_2 1_555 1_555
H38_2 O56_2 1_555 1_555
H46_2 O53_2 1_555 1_555
H47_2 O54_2 1_555 1_555
H49_2 O56_2 1_555 1_555
C18_2 H55_2 1_555 1_555
C19_2 H56_2 1_555 1_555
C23_2 C18_2 1_555 1_555
C24_2 C19_2 1_555 1_555
C28_2 C23_2 1_555 1_555
C29_2 C24_2 1_555 1_555
H60_2 C28_2 1_555 1_555
H61_2 C29_2 1_555 1_555
C33_2 C28_2 1_555 1_555
C34_2 C29_2 1_555 1_555
H65_2 C33_2 1_555 1_555
H66_2 C34_2 1_555 1_555
C39_2 C34_2 1_555 1_555
C44_2 N33_2 1_555 1_555
C49_2 O22_2 1_555 1_555
C50_2 H67_2 1_555 1_555
C52_2 H69_2 1_555 1_555
C54_2 H71_2 1_555 1_555
C55_2 C50_2 1_555 1_555
C57_2 C52_2 1_555 1_555
C59_2 C54_2 1_555 1_555
C60_2 C55_2 1_555 1_555
C62_2 C57_2 1_555 1_555
C64_2 C59_2 1_555 1_555
H72_2 C60_2 1_555 1_555
H74_2 C62_2 1_555 1_555
H76_2 C64_2 1_555 1_555
C65_2 C60_2 1_555 1_555
C67_2 C62_2 1_555 1_555
H77_2 C65_2 1_555 1_555
H79_2 C67_2 1_555 1_555
H80_2 C68_2 1_555 1_555
C70_2 N21_2 1_555 1_555
C72_2 N27 1_555 1_555
C73_2 N24_2 1_555 1_555
C75_2 N7_2 1_555 1_555
C77_2 N9_2 1_555 1_555
C78_2 N10_2 1_555 1_555
C80_2 O7_2 1_555 1_555
C82_2 O9_2 1_555 1_555
C84_2 O11_2 1_555 1_555
Cu19_2 O46 1_555 1_555
Cu38 O45_2 1_555 1_555
Cu36_2 O41_2 1_555 1_555
N7_2 N12_2 1_555 1_555
N9_2 N14_2 1_555 1_555
N10_2 N15_2 1_555 1_555
N12_2 N21_2 1_555 1_555
N15_2 N24_2 1_555 1_555
O12_2 C80_2 1_555 1_555
O14_2 C82_2 1_555 1_555
O16_2 C84_2 1_555 1_555
O30_2 C49_2 1_555 1_555
C19_2 C44_2 1_555 1_555
C23_2 C48_2 1_555 1_555
C24_2 C49_2 1_555 1_555
C33_2 C38_2 1_555 1_555
C39_2 C44_2 1_555 1_555
C50_2 C75_2 1_555 1_555
C52_2 C77_2 1_555 1_555
C55_2 C80_2 1_555 1_555
C57_2 C82_2 1_555 1_555
C59_2 C84_2 1_555 1_555
C65_2 C70_2 1_555 1_555
C67_2 C72_2 1_555 1_555
C68_2 C73_2 1_555 1_555
C70_2 C75_2 1_555 1_555
C72_2 C77_2 1_555 1_555
C73_2 C78_2 1_555 1_555
H39_2 O57_2 1_555 1_555
H50_2 O57_2 1_555 1_555
Cu23 N3_2 1_555 1_555
Cl1_4 Cu4_2 1_555 1_555
N2_2 N1_2 1_555 1_555
N3_2 N2_2 1_555 1_555
O2_2 C14_2 1_555 1_555
O23 C7_2 1_555 1_555
O31 C7_2 1_555 1_555
C1_2 H5_2 1_555 1_555
C2_2 C1_2 1_555 1_555
C3_2 C2_2 1_555 1_555
H6_2 C3_2 1_555 1_555
C4_2 C3_2 1_555 1_555
H7_2 C4_2 1_555 1_555
C7_2 C2_2 1_555 1_555
C8_2 H8_2 1_555 1_555
C9_2 C8_2 1_555 1_555
C10_2 C9_2 1_555 1_555
H9_2 C10_2 1_555 1_555
C11_2 C10_2 1_555 1_555
H10_2 C11_2 1_555 1_555
C12_2 N3_2 1_555 1_555
C13_2 N1_2 1_555 1_555
C14_2 O1_2 1_555 1_555
Cu4_2 N2_2 1_555 1_555
Cu8_2 Cl5_2 1_555 1_555
Cu15_2 Cl5_2 1_555 1_555
Cu24 O2_2 1_555 1_555
Cu25 O18_2 1_555 1_555
Cu24_2 N22_2 1_555 1_555
Cu28 N32_2 1_555 1_555
Cu31 N25_2 1_555 1_555
Cu33_2 N37_2 1_555 1_555
N8_2 Cu12 1_555 1_555
N11_2 Cu8_2 1_555 1_555
N16_2 Cu15_2 1_555 1_555
N22_2 N19 1_555 1_555
N25_2 N16_2 1_555 1_555
N29_2 Cu23 1_555 1_555
N32_2 N40_2 1_555 1_555
N34_2 Cu24 1_555 1_555
N37_2 N29_2 1_555 1_555
N40_2 Cu33_2 1_555 1_555
N44_2 N34_2 1_555 1_555
N54 N37_2 1_555 1_555
N51_2 Cu4_2 1_555 1_555
N56_2 Cu8_2 1_555 1_555
O8_2 H12_2 1_555 1_555
O13_2 Cu23 1_555 1_555
O18_2 C45_2 1_555 1_555
O24_2 Cu24 1_555 1_555
O26_2 Cu25 1_555 1_555
O32_2 Cu24 1_555 1_555
O34_2 Cu23 1_555 1_555
O36_2 Cu24 1_555 1_555
O49_2 Cu33_2 1_555 1_555
O50_2 Cu33_2 1_555 1_555
O58_2 Cu37_2 1_555 1_555
H31_2 O49_2 1_555 1_555
H32_2 O50_2 1_555 1_555
H37_2 O55_2 1_555 1_555
H40_2 O58_2 1_555 1_555
H42_2 O49_2 1_555 1_555
H43_2 O50_2 1_555 1_555
H48_2 O55_2 1_555 1_555
H51_2 O58_2 1_555 1_555
C15_2 H52_2 1_555 1_555
C20_2 C15_2 1_555 1_555
C25_2 C20_2 1_555 1_555
H57_2 C25_2 1_555 1_555
C30_2 C25_2 1_555 1_555
H62_2 C30_2 1_555 1_555
C35_2 N54 1_555 1_555
C40_2 N29_2 1_555 1_555
C43_2 N32_2 1_555 1_555
C45_2 O26_2 1_555 1_555
C51_2 H68_2 1_555 1_555
C56_2 C51_2 1_555 1_555
C61_2 C56_2 1_555 1_555
H73_2 C61_2 1_555 1_555
C66_2 C61_2 1_555 1_555
H78_2 C66_2 1_555 1_555
H81_2 C69_2 1_555 1_555
C71_2 N22_2 1_555 1_555
C74_2 N25_2 1_555 1_555
C76_2 N8_2 1_555 1_555
C79_2 N11_2 1_555 1_555
C81_2 O8_2 1_555 1_555
C4_2 C5_2 1_555 1_555
C8_2 C13_2 1_555 1_555
C9_2 C14_2 1_555 1_555
C11_2 C12_2 1_555 1_555
C12_2 C13_2 1_555 1_555
Cu4_2 O34_2 1_555 1_555
Cu33_2 O34_2 1_555 1_555
Cu33_2 O39 1_555 1_555
N8_2 N19 1_555 1_555
N11_2 N16_2 1_555 1_555
N40_2 N51_2 1_555 1_555
N44_2 N56_2 1_555 1_555
O13_2 C81_2 1_555 1_555
C15_2 C40_2 1_555 1_555
C20_2 C45_2 1_555 1_555
C30_2 C35_2 1_555 1_555
C35_2 C40_2 1_555 1_555
C51_2 C76_2 1_555 1_555
C56_2 C81_2 1_555 1_555
C66_2 C71_2 1_555 1_555
C69_2 C74_2 1_555 1_555
C71_2 C76_2 1_555 1_555
C74_2 C79_2 1_555 1_555
Cu1_3 Cl1_5 1_555 1_555
Cu25 N3_3 1_555 1_555
Cl1_5 Cu4_3 1_555 1_555
N1_3 Cu1_3 1_555 1_555
N2_3 N1_3 1_555 1_555
N3_3 N2_3 1_555 1_555
N36 N43_2 1_555 1_555
N43_2 N6_3 1_555 1_555
N6_3 Cu1_3 1_555 1_555
O1_3 H1_3 1_555 1_555
O2_3 C14_3 1_555 1_555
O45_2 Cu1_3 1_555 1_555
C1_3 H5_3 1_555 1_555
C2_3 C1_3 1_555 1_555
C3_3 C2_3 1_555 1_555
H6_3 C3_3 1_555 1_555
C4_3 C3_3 1_555 1_555
H7_3 C4_3 1_555 1_555
C5_3 N6_3 1_555 1_555
C6_3 N36 1_555 1_555
C7_3 C2_3 1_555 1_555
C8_3 H8_3 1_555 1_555
C9_3 C8_3 1_555 1_555
C10_3 C9_3 1_555 1_555
H9_3 C10_3 1_555 1_555
C11_3 C10_3 1_555 1_555
H10_3 C11_3 1_555 1_555
C12_3 N3_3 1_555 1_555
C13_3 N1_3 1_555 1_555
C14_3 O1_3 1_555 1_555
Cu4_3 N2_3 1_555 1_555
Cu8_3 Cl5_3 1_555 1_555
Cu15_3 Cl5_3 1_555 1_555
Cu13 O37_3 1_555 1_555
Cu24_2 O2_3 1_555 1_555
Cu28_2 N32_3 1_555 1_555
Cu31_2 N25_3 1_555 1_555
Cu36_3 N44_3 1_555 1_555
Cu37_3 N46_3 1_555 1_555
N7_3 Cu4_3 1_555 1_555
N10_3 Cu10 1_555 1_555
N11_3 Cu8_3 1_555 1_555
N12_3 Cu1_3 1_555 1_555
N16_3 Cu15_3 1_555 1_555
N20_3 Cu8_3 1_555 1_555
N21_3 Cu26 1_555 1_555
N26 N19_2 1_555 1_555
N27_2 N14_3 1_555 1_555
N25_3 N16_3 1_555 1_555
N32_3 N42 1_555 1_555
N34_3 Cu24_2 1_555 1_555
N35_3 Cu29 1_555 1_555
N44_3 N34_3 1_555 1_555
N45_3 Cu36_3 1_555 1_555
N46_3 N35_3 1_555 1_555
N51_3 Cu4_3 1_555 1_555
N55_3 Cu10 1_555 1_555
N56_3 Cu8_3 1_555 1_555
O7_3 H11_3 1_555 1_555
O8_3 H12_3 1_555 1_555
O9_3 H13_3 1_555 1_555
O11_3 H15_3 1_555 1_555
O12_3 Cu29 1_555 1_555
O13_3 Cu25 1_555 1_555
O14_3 Cu26 1_555 1_555
O24_3 Cu24_2 1_555 1_555
O25_3 Cu29 1_555 1_555
O32_3 Cu24_2 1_555 1_555
O33_3 Cu29 1_555 1_555
O40 Cu24_2 1_555 1_555
O37_3 Cu29 1_555 1_555
O41_3 Cu8_3 1_555 1_555
O55_3 Cu36_3 1_555 1_555
O56_3 Cu36_3 1_555 1_555
O58_3 Cu37_3 1_555 1_555
H37_3 O55_3 1_555 1_555
H38_3 O56_3 1_555 1_555
H40_3 O58_3 1_555 1_555
H48_3 O55_3 1_555 1_555
H49_3 O56_3 1_555 1_555
H51_3 O58_3 1_555 1_555
C18_3 H55_3 1_555 1_555
C23_3 C18_3 1_555 1_555
C28_3 C23_3 1_555 1_555
H60_3 C28_3 1_555 1_555
C33_3 C28_3 1_555 1_555
H65_3 C33_3 1_555 1_555
C38_3 N51_3 1_555 1_555
C43_3 N32_3 1_555 1_555
C50_3 H67_3 1_555 1_555
C51_3 H68_3 1_555 1_555
C52_3 H69_3 1_555 1_555
C54_3 H71_3 1_555 1_555
C55_3 C50_3 1_555 1_555
C56_3 C51_3 1_555 1_555
C57_3 C52_3 1_555 1_555
C59_3 C54_3 1_555 1_555
C60_3 C55_3 1_555 1_555
C61_3 C56_3 1_555 1_555
C62_3 C57_3 1_555 1_555
C64_3 C59_3 1_555 1_555
H72_3 C60_3 1_555 1_555
H73_3 C61_3 1_555 1_555
H74_3 C62_3 1_555 1_555
H76_3 C64_3 1_555 1_555
C65_3 C60_3 1_555 1_555
C66_3 C61_3 1_555 1_555
C67_3 C62_3 1_555 1_555
C69_3 C64_3 1_555 1_555
H77_3 C65_3 1_555 1_555
H78_3 C66_3 1_555 1_555
H79_3 C67_3 1_555 1_555
H80_3 C68_3 1_555 1_555
H81_3 C69_3 1_555 1_555
C70_3 N21_3 1_555 1_555
C71_3 N26 1_555 1_555
C72_3 N27_2 1_555 1_555
C73_3 N28 1_555 1_555
C74_3 N25_3 1_555 1_555
C75_3 N7_3 1_555 1_555
C76_3 N8_3 1_555 1_555
C77_3 N9_3 1_555 1_555
C78_3 N10_3 1_555 1_555
C79_3 N11_3 1_555 1_555
C80_3 O7_3 1_555 1_555
C81_3 O8_3 1_555 1_555
C82_3 O9_3 1_555 1_555
C84_3 O11_3 1_555 1_555
C1_3 C6_3 1_555 1_555
C4_3 C5_3 1_555 1_555
C5_3 C6_3 1_555 1_555
C8_3 C13_3 1_555 1_555
C9_3 C14_3 1_555 1_555
C11_3 C12_3 1_555 1_555
C12_3 C13_3 1_555 1_555
Cu4_3 O43 1_555 1_555
Cu36_3 O40 1_555 1_555
Cu36_3 O41_3 1_555 1_555
Cu37_3 O37_3 1_555 1_555
N7_3 N12_3 1_555 1_555
N8_3 N19_2 1_555 1_555
N9_3 N14_3 1_555 1_555
N10_3 N17 1_555 1_555
N11_3 N16_3 1_555 1_555
N12_3 N21_3 1_555 1_555
N42 N51_3 1_555 1_555
N44_3 N56_3 1_555 1_555
O12_3 C80_3 1_555 1_555
O13_3 C81_3 1_555 1_555
O14_3 C82_3 1_555 1_555
O17 C84_3 1_555 1_555
C18_3 C43_3 1_555 1_555
C23_3 C48_3 1_555 1_555
C33_3 C38_3 1_555 1_555
C38_3 C43_3 1_555 1_555
C50_3 C75_3 1_555 1_555
C51_3 C76_3 1_555 1_555
C52_3 C77_3 1_555 1_555
C54_3 C79_3 1_555 1_555
C55_3 C80_3 1_555 1_555
C56_3 C81_3 1_555 1_555
C57_3 C82_3 1_555 1_555
C59_3 C84_3 1_555 1_555
C65_3 C70_3 1_555 1_555
C66_3 C71_3 1_555 1_555
C67_3 C72_3 1_555 1_555
C68_3 C73_3 1_555 1_555
C69_3 C74_3 1_555 1_555
C70_3 C75_3 1_555 1_555
C71_3 C76_3 1_555 1_555
C72_3 C77_3 1_555 1_555
C73_3 C78_3 1_555 1_555
C74_3 C79_3 1_555 1_555
H39_3 O57_3 1_555 1_555
H50_3 O57_3 1_555 1_555
Cu9 Cl3_3 1_555 1_555
Cu17_2 Cl3_3 1_555 1_555
Cu27 O21_3 1_555 1_555
Cu32 O15_3 1_555 1_555
N18_3 Cu9 1_555 1_555
O10_3 H14_3 1_555 1_555
O15_3 C83_3 1_555 1_555
O29_3 Cu27 1_555 1_555
C53_3 H70_3 1_555 1_555
C58_3 C53_3 1_555 1_555
C63_3 C58_3 1_555 1_555
H75_3 C63_3 1_555 1_555
C83_3 O10_3 1_555 1_555
C58_3 C83_3 1_555 1_555
O36_2 H83_2 1_555 1_555
N28_2 Cu28_2 1_555 1_555
O17_2 Cu28_2 1_555 1_555
N18_2 N28_2 1_555 1_555
Cu8_4 Cl5_4 1_555 1_555
Cu15_4 Cl5_4 1_555 1_555
Cu32_2 N25_4 1_555 1_555
N11_4 Cu8_4 1_555 1_555
N16_4 Cu15_4 1_555 1_555
N25_4 N16_4 1_555 1_555
N56_4 Cu8_4 1_555 1_555
H81_4 C69_4 1_555 1_555
C74_4 N25_4 1_555 1_555
C79_4 N11_4 1_555 1_555
N11_4 N16_4 1_555 1_555
C69_4 C74_4 1_555 1_555
C74_4 C79_4 1_555 1_555
N10_4 Cu13 1_555 1_555
N24_3 Cu28 1_555 1_555
N55_4 Cu13 1_555 1_555
O11_4 H15_4 1_555 1_555
O16_3 Cu28 1_555 1_555
C54_4 H71_4 1_555 1_555
C59_4 C54_4 1_555 1_555
C64_4 C59_4 1_555 1_555
H76_4 C64_4 1_555 1_555
H80_4 C68_4 1_555 1_555
C73_4 N24_3 1_555 1_555
C78_4 N10_4 1_555 1_555
C84_4 O11_4 1_555 1_555
N10_4 N18 1_555 1_555
N18 N24_3 1_555 1_555
O16_3 C84_4 1_555 1_555
C59_4 C84_4 1_555 1_555
C68_4 C73_4 1_555 1_555
C73_4 C78_4 1_555 1_555
Cu31_3 O15_4 1_555 1_555
O10_4 H14_4 1_555 1_555
O15_4 C83_4 1_555 1_555
C53_4 H70_4 1_555 1_555
C58_4 C53_4 1_555 1_555
C63_4 C58_4 1_555 1_555
H75_4 C63_4 1_555 1_555
C83_4 O10_4 1_555 1_555
C58_4 C83_4 1_555 1_555
O37_2 H83_3 1_555 1_555
Cu31_4 O15_5 1_555 1_555
O10_5 H14_5 1_555 1_555
O15_5 C83_5 1_555 1_555
C53_5 H70_5 1_555 1_555
C58_5 C53_5 1_555 1_555
C63_5 C58_5 1_555 1_555
H75_5 C63_5 1_555 1_555
C83_5 O10_5 1_555 1_555
C58_5 C83_5 1_555 1_555
N10_5 Cu17_2 1_555 1_555
N24_4 Cu27 1_555 1_555
N55_5 Cu17_2 1_555 1_555
O11_5 H15_5 1_555 1_555
O16_4 Cu27 1_555 1_555
C54_5 H71_5 1_555 1_555
C59_5 C54_5 1_555 1_555
C64_5 C59_5 1_555 1_555
H76_5 C64_5 1_555 1_555
H80_5 C68_5 1_555 1_555
C73_5 N24_4 1_555 1_555
C78_5 N10_5 1_555 1_555
C84_5 O11_5 1_555 1_555
N10_5 N18_3 1_555 1_555
N18_3 N24_4 1_555 1_555
O16_4 C84_5 1_555 1_555
C59_5 C84_5 1_555 1_555
C68_5 C73_5 1_555 1_555
C73_5 C78_5 1_555 1_555
Cu8_5 Cl5_5 1_555 1_555
Cu15_5 Cl5_5 1_555 1_555
Cu31_3 N25_5 1_555 1_555
N11_5 Cu8_5 1_555 1_555
N16_5 Cu15_5 1_555 1_555
N25_5 N16_5 1_555 1_555
N56_5 Cu8_5 1_555 1_555
H81_5 C69_5 1_555 1_555
C74_5 N25_5 1_555 1_555
C79_5 N11_5 1_555 1_555
N11_5 N16_5 1_555 1_555
C69_5 C74_5 1_555 1_555
C74_5 C79_5 1_555 1_555
N10_6 Cu17 1_555 1_555
N55_6 Cu17 1_555 1_555
O11_6 H15_6 1_555 1_555
C54_6 H71_6 1_555 1_555
C59_6 C54_6 1_555 1_555
C64_6 C59_6 1_555 1_555
H76_6 C64_6 1_555 1_555
H80_6 C68_6 1_555 1_555
C73_6 N28_2 1_555 1_555
C78_6 N10_6 1_555 1_555
C84_6 O11_6 1_555 1_555
N10_6 N18_2 1_555 1_555
O17_2 C84_6 1_555 1_555
C59_6 C84_6 1_555 1_555
C68_6 C73_6 1_555 1_555
C73_6 C78_6 1_555 1_555
Cu8_6 Cl5_6 1_555 1_555
Cu15_6 Cl5_6 1_555 1_555
Cu31_4 N25_6 1_555 1_555
N11_6 Cu8_6 1_555 1_555
N16_6 Cu15_6 1_555 1_555
N20_6 Cu8_6 1_555 1_555
N25_6 N16_6 1_555 1_555
N56_6 Cu8_6 1_555 1_555
O47_3 Cu8_6 1_555 1_555
H81_6 C69_6 1_555 1_555
C74_6 N25_6 1_555 1_555
C79_6 N11_6 1_555 1_555
N11_6 N16_6 1_555 1_555
C69_6 C74_6 1_555 1_555
C74_6 C79_6 1_555 1_555
O37 H83_4 1_555 1_555
Cu32_2 O15_6 1_555 1_555
O10_6 H14_6 1_555 1_555
O15_6 C83_6 1_555 1_555
C53_6 H70_6 1_555 1_555
C58_6 C53_6 1_555 1_555
C63_6 C58_6 1_555 1_555
H75_6 C63_6 1_555 1_555
C83_6 O10_6 1_555 1_555
C58_6 C83_6 1_555 1_555
Cu2_2 N3_4 1_555 1_555
Cu3_2 N5_2 1_555 1_555
N1_4 Cu15_3 1_555 1_555
N20_3 N1_4 1_555 1_555
N3_4 N20_3 1_555 1_555
N4_3 N5_2 1_555 1_555
N5_2 N6_4 1_555 1_555
N6_4 Cu15_3 1_555 1_555
O1_4 H1_4 1_555 1_555
O2_4 C14_4 1_555 1_555
O3_2 C7_4 1_555 1_555
O4_2 C7_4 1_555 1_555
O5_2 Cu15_3 1_555 1_555
O6_2 Cu3_2 1_555 1_555
H3_2 O6_2 1_555 1_555
H4_2 O6_2 1_555 1_555
C1_4 H5_4 1_555 1_555
C2_4 C1_4 1_555 1_555
C3_4 C2_4 1_555 1_555
H6_4 C3_4 1_555 1_555
C4_4 C3_4 1_555 1_555
H7_4 C4_4 1_555 1_555
C5_4 N6_4 1_555 1_555
C6_4 N4_3 1_555 1_555
C7_4 C2_4 1_555 1_555
C8_4 H8_4 1_555 1_555
C9_4 C8_4 1_555 1_555
C10_4 C9_4 1_555 1_555
H9_4 C10_4 1_555 1_555
C11_4 C10_4 1_555 1_555
H10_4 C11_4 1_555 1_555
C12_4 N3_4 1_555 1_555
C13_4 N1_4 1_555 1_555
C14_4 O1_4 1_555 1_555
Cu5_2 Cl2_2 1_555 1_555
Cu10_2 Cl2_2 1_555 1_555
Cu12_2 Cl4_3 1_555 1_555
Cu16_2 O36_3 1_555 1_555
Cu31_2 O5_2 1_555 1_555
Cu19_3 N4_3 1_555 1_555
Cu20_2 O2_4 1_555 1_555
Cu22_2 O3_2 1_555 1_555
Cu23_2 O18_3 1_555 1_555
Cu24_3 N22_3 1_555 1_555
Cu25_2 N30_2 1_555 1_555
Cu31_5 O15_7 1_555 1_555
Cu32_3 N25_7 1_555 1_555
Cu36_4 N44_4 1_555 1_555
Cu38_2 O38_2 1_555 1_555
N8_4 Cu5_2 1_555 1_555
N11_7 Cu15_6 1_555 1_555
N13_2 Cu10_2 1_555 1_555
N15_3 Cu12_2 1_555 1_555
N17_2 Cu5_2 1_555 1_555
N22_3 N13_2 1_555 1_555
N24_5 Cu19_3 1_555 1_555
N25_7 N20_6 1_555 1_555
N26_2 Cu20_2 1_555 1_555
N28_3 Cu22_2 1_555 1_555
N29_3 Cu2_2 1_555 1_555
N30_2 N45_2 1_555 1_555
N31_2 Cu31_2 1_555 1_555
N34_4 Cu20_2 1_555 1_555
N36_2 Cu22_2 1_555 1_555
N45_3 N29_3 1_555 1_555
N45_2 N55_3 1_555 1_555
N39_2 Cu3_2 1_555 1_555
N44_4 N34_4 1_555 1_555
N45_4 Cu36_4 1_555 1_555
N55 N45_3 1_555 1_555
N55_3 C36_2 1_555 1_555
N50_2 Cu12_2 1_555 1_555
N53_2 Cu5_2 1_555 1_555
N56_7 Cu15_6 1_555 1_555
O8_4 H12_4 1_555 1_555
O11_7 H15_7 1_555 1_555
O13_4 Cu2_2 1_555 1_555
O15_7 C83_7 1_555 1_555
O16_5 Cu19_3 1_555 1_555
O17_3 Cu22_2 1_555 1_555
O18_3 C45_3 1_555 1_555
O19_2 Cu2_2 1_555 1_555
O24 C48_4 1_555 1_555
O22_3 Cu31_2 1_555 1_555
O23_3 Cu19_3 1_555 1_555
O24_4 Cu20_2 1_555 1_555
O26_3 Cu23_2 1_555 1_555
O27_2 Cu2_2 1_555 1_555
O30_3 Cu31_2 1_555 1_555
O31_3 Cu19_3 1_555 1_555
O32_4 Cu20_2 1_555 1_555
O41_3 Cu2_2 1_555 1_555
O35_2 Cu3_2 1_555 1_555
O36_3 Cu20_2 1_555 1_555
O38_2 Cu5_2 1_555 1_555
O41_4 Cu15_6 1_555 1_555
O41_2 Cu25_2 1_555 1_555
O48_2 Cu3_2 1_555 1_555
O55_4 Cu36_4 1_555 1_555
O56_4 Cu36_4 1_555 1_555
H30_2 O48_2 1_555 1_555
H37_4 O55_4 1_555 1_555
H38_4 O56_4 1_555 1_555
H41_2 O48_2 1_555 1_555
H48_4 O55_4 1_555 1_555
H49_4 O56_4 1_555 1_555
C15_3 H52_3 1_555 1_555
C16_2 H53_2 1_555 1_555
C18_4 H55_4 1_555 1_555
C19_3 H56_3 1_555 1_555
C20_3 C15_3 1_555 1_555
C21_2 C16_2 1_555 1_555
C23_4 C18_4 1_555 1_555
C24_3 C19_3 1_555 1_555
C25_3 C20_3 1_555 1_555
C26_2 C21_2 1_555 1_555
C28_4 C23_4 1_555 1_555
C29_3 C24_3 1_555 1_555
H57_3 C25_3 1_555 1_555
H58_2 C26_2 1_555 1_555
H60_4 C28_4 1_555 1_555
H61_3 C29_3 1_555 1_555
C30_3 C25_3 1_555 1_555
C31_2 C26_2 1_555 1_555
C33_4 C28_4 1_555 1_555
C34_3 C29_3 1_555 1_555
H62_3 C30_3 1_555 1_555
H63_2 C31_2 1_555 1_555
H65_4 C33_4 1_555 1_555
H66_3 C34_3 1_555 1_555
C35_3 N55 1_555 1_555
C36_2 C31_2 1_555 1_555
C38_4 N56_3 1_555 1_555
C39_3 C34_3 1_555 1_555
C40_3 N29_3 1_555 1_555
C41_2 N30_2 1_555 1_555
C42_2 N31_2 1_555 1_555
C43_4 N34_3 1_555 1_555
C45_3 O26_3 1_555 1_555
C46_2 O19_2 1_555 1_555
C48_4 O32 1_555 1_555
C49_3 O22_3 1_555 1_555
C51_4 H68_4 1_555 1_555
C53_7 H70_7 1_555 1_555
C54_7 H71_7 1_555 1_555
C56_4 C51_4 1_555 1_555
C58_7 C53_7 1_555 1_555
C59_7 C54_7 1_555 1_555
C61_4 C56_4 1_555 1_555
C63_7 C58_7 1_555 1_555
C64_7 C59_7 1_555 1_555
H73_4 C61_4 1_555 1_555
H75_7 C63_7 1_555 1_555
H76_7 C64_7 1_555 1_555
C66_4 C61_4 1_555 1_555
C68_7 C63_7 1_555 1_555
C69_7 C64_7 1_555 1_555
H78_4 C66_4 1_555 1_555
H80_7 C68_7 1_555 1_555
H81_7 C69_7 1_555 1_555
C71_4 N22_3 1_555 1_555
C73_7 N24_5 1_555 1_555
C74_7 N25_7 1_555 1_555
C76_4 N8_4 1_555 1_555
C78_7 N10_7 1_555 1_555
C79_7 N11_7 1_555 1_555
C81_4 O8_4 1_555 1_555
C83_7 O10_7 1_555 1_555
C84_7 O11_7 1_555 1_555
Cu3_2 O5_2 1_555 1_555
O4_2 Cu22_2 1_555 1_555
C1_4 C6_4 1_555 1_555
C4_4 C5_4 1_555 1_555
C5_4 C6_4 1_555 1_555
C8_4 C13_4 1_555 1_555
C9_4 C14_4 1_555 1_555
C11_4 C12_4 1_555 1_555
C12_4 C13_4 1_555 1_555
Cu12_2 O35_2 1_555 1_555
Cu19_3 O35_2 1_555 1_555
Cu22_2 O38_2 1_555 1_555
Cu36_4 O36_3 1_555 1_555
Cu36_4 O41_4 1_555 1_555
N8_4 N13_2 1_555 1_555
N10_7 N15_3 1_555 1_555
N11_7 N20_6 1_555 1_555
N15_3 N24_5 1_555 1_555
N17_2 N28_3 1_555 1_555
N31_2 N39_2 1_555 1_555
N39_2 N50_2 1_555 1_555
N44_4 N56_7 1_555 1_555
O13_4 C81_4 1_555 1_555
O16_5 C84_7 1_555 1_555
O27_2 C46_2 1_555 1_555
O30_3 C49_3 1_555 1_555
C15_3 C40_3 1_555 1_555
C16_2 C41_2 1_555 1_555
C18_4 C43_4 1_555 1_555
C20_3 C45_3 1_555 1_555
C21_2 C46_2 1_555 1_555
C23_4 C48_4 1_555 1_555
C24_3 C49_3 1_555 1_555
C30_3 C35_3 1_555 1_555
C33_4 C38_4 1_555 1_555
C35_3 C40_3 1_555 1_555
C36_2 C41_2 1_555 1_555
C38_4 C43_4 1_555 1_555
C51_4 C76_4 1_555 1_555
C53_7 C78_7 1_555 1_555
C54_7 C79_7 1_555 1_555
C56_4 C81_4 1_555 1_555
C58_7 C83_7 1_555 1_555
C59_7 C84_7 1_555 1_555
C66_4 C71_4 1_555 1_555
C68_7 C73_7 1_555 1_555
C69_7 C74_7 1_555 1_555
C71_4 C76_4 1_555 1_555
C73_7 C78_7 1_555 1_555
C74_7 C79_7 1_555 1_555
Cu7_2 Cl4_4 1_555 1_555
N19_3 Cu7_2 1_555 1_555
N55_7 Cu7_2 1_555 1_555
O40_2 Cu7_2 1_555 1_555
C17_2 H54_2 1_555 1_555
C22_2 C17_2 1_555 1_555
C27_2 C22_2 1_555 1_555
H59_2 C27_2 1_555 1_555
C32_2 C27_2 1_555 1_555
H64_2 C32_2 1_555 1_555
C22_2 C47_2 1_555 1_555
C32_2 C37_2 1_555 1_555
Cu14_2 N52_2 1_555 1_555
Cu32 N33_3 1_555 1_555
Cu35_2 N41_3 1_555 1_555
N33_3 N41_3 1_555 1_555
N41_3 N52_2 1_555 1_555
N44_2 Cu34_2 1_555 1_555
N43_3 Cu35_2 1_555 1_555
O45_3 Cu32 1_555 1_555
O46_2 Cu14_2 1_555 1_555
O55_2 Cu34_2 1_555 1_555
O53_3 Cu35_2 1_555 1_555
O54_3 Cu35_2 1_555 1_555
H35_3 O53_3 1_555 1_555
H36_3 O54_3 1_555 1_555
H46_3 O53_3 1_555 1_555
H47_3 O54_3 1_555 1_555
C44_3 N33_3 1_555 1_555
Cu34_2 O36_2 1_555 1_555
Cu35_2 O45_3 1_555 1_555
Cu35_2 O46_2 1_555 1_555
Cu31 O20_2 1_555 1_555
O28_2 Cu31 1_555 1_555
Cu16_2 Cl4_5 1_555 1_555
N19_4 Cu16_2 1_555 1_555
N55_8 Cu16_2 1_555 1_555
N4_4 N43_3 1_555 1_555
N43_3 N6_5 1_555 1_555
N6_5 Cu15 1_555 1_555
O23_3 C7_5 1_555 1_555
O31_3 C7_5 1_555 1_555
O45_3 Cu15 1_555 1_555
C1_5 H5_5 1_555 1_555
C2_5 C1_5 1_555 1_555
C3_5 C2_5 1_555 1_555
H6_5 C3_5 1_555 1_555
C4_5 C3_5 1_555 1_555
H7_5 C4_5 1_555 1_555
C5_5 N6_5 1_555 1_555
C6_5 N4_4 1_555 1_555
C7_5 C2_5 1_555 1_555
Cu14_2 Cl4_6 1_555 1_555
Cu19_4 N4_4 1_555 1_555
Cu31_6 O15_8 1_555 1_555
Cu31_5 N25_8 1_555 1_555
N15_4 Cu14_2 1_555 1_555
N24_6 Cu19_4 1_555 1_555
N25_8 N20_5 1_555 1_555
N44 Cu33_3 1_555 1_555
O11_8 H15_8 1_555 1_555
O15_8 C83_8 1_555 1_555
O16_6 Cu19_4 1_555 1_555
O24_2 C48_5 1_555 1_555
O22_4 Cu32 1_555 1_555
O23_4 Cu19_4 1_555 1_555
O30_4 Cu32 1_555 1_555
O31_4 Cu19_4 1_555 1_555
O55 Cu33_3 1_555 1_555
C18_5 H55_5 1_555 1_555
C23_5 C18_5 1_555 1_555
C28_5 C23_5 1_555 1_555
H60_5 C28_5 1_555 1_555
C33_5 C28_5 1_555 1_555
H65_5 C33_5 1_555 1_555
C38_5 N56 1_555 1_555
C43_5 N34 1_555 1_555
C48_5 O32_2 1_555 1_555
C53_8 H70_8 1_555 1_555
C54_8 H71_8 1_555 1_555
C58_8 C53_8 1_555 1_555
C59_8 C54_8 1_555 1_555
C63_8 C58_8 1_555 1_555
C64_8 C59_8 1_555 1_555
H75_8 C63_8 1_555 1_555
H76_8 C64_8 1_555 1_555
C68_8 C63_8 1_555 1_555
C69_8 C64_8 1_555 1_555
H80_8 C68_8 1_555 1_555
H81_8 C69_8 1_555 1_555
C73_8 N24_6 1_555 1_555
C74_8 N25_8 1_555 1_555
C78_8 N10_8 1_555 1_555
C79_8 N11_8 1_555 1_555
C83_8 O10_8 1_555 1_555
C84_8 O11_8 1_555 1_555
C1_5 C6_5 1_555 1_555
C4_5 C5_5 1_555 1_555
C5_5 C6_5 1_555 1_555
Cu19_4 O46_2 1_555 1_555
Cu33_3 O36 1_555 1_555
N10_8 N15_4 1_555 1_555
N11_8 N20_5 1_555 1_555
N15_4 N24_6 1_555 1_555
O16_6 C84_8 1_555 1_555
C18_5 C43_5 1_555 1_555
C23_5 C48_5 1_555 1_555
C33_5 C38_5 1_555 1_555
C38_5 C43_5 1_555 1_555
C53_8 C78_8 1_555 1_555
C54_8 C79_8 1_555 1_555
C58_8 C83_8 1_555 1_555
C59_8 C84_8 1_555 1_555
C68_8 C73_8 1_555 1_555
C69_8 C74_8 1_555 1_555
C73_8 C78_8 1_555 1_555
C74_8 C79_8 1_555 1_555
Cu23_2 N3_5 1_555 1_555
N20 N1_5 1_555 1_555
N3_5 N20 1_555 1_555
O1_5 H1_5 1_555 1_555
O2_5 C14_5 1_555 1_555
C8_5 H8_5 1_555 1_555
C9_5 C8_5 1_555 1_555
C10_5 C9_5 1_555 1_555
H9_5 C10_5 1_555 1_555
C11_5 C10_5 1_555 1_555
H10_5 C11_5 1_555 1_555
C12_5 N3_5 1_555 1_555
C13_5 N1_5 1_555 1_555
C14_5 O1_5 1_555 1_555
Cu10_2 O36_4 1_555 1_555
Cu24_3 O2_5 1_555 1_555
Cu25_2 O18_4 1_555 1_555
Cu24_4 N22_4 1_555 1_555
Cu31 N33_4 1_555 1_555
Cu38_2 N41_4 1_555 1_555
Cu36_5 N44_5 1_555 1_555
N22_4 N19_3 1_555 1_555
N29_4 Cu23_2 1_555 1_555
N33_4 N41_4 1_555 1_555
N34_5 Cu24_3 1_555 1_555
N45 N29_4 1_555 1_555
N41_4 N53_2 1_555 1_555
N43_4 Cu38_2 1_555 1_555
N44_5 N34_5 1_555 1_555
N45_5 Cu36_5 1_555 1_555
N55_2 N45 1_555 1_555
N53_2 C39_4 1_555 1_555
N56_8 Cu15_5 1_555 1_555
O13_5 Cu23_2 1_555 1_555
O18_4 C45_4 1_555 1_555
O24_5 Cu24_3 1_555 1_555
O26_4 Cu25_2 1_555 1_555
O32_5 Cu24_3 1_555 1_555
O41 Cu23_2 1_555 1_555
O36_4 Cu24_3 1_555 1_555
O41_5 Cu15_5 1_555 1_555
O45_4 Cu31 1_555 1_555
O53_4 Cu38_2 1_555 1_555
O54_4 Cu38_2 1_555 1_555
O55_5 Cu36_5 1_555 1_555
O56_5 Cu36_5 1_555 1_555
H35_4 O53_4 1_555 1_555
H36_4 O54_4 1_555 1_555
H37_5 O55_5 1_555 1_555
H38_5 O56_5 1_555 1_555
H46_4 O53_4 1_555 1_555
H47_4 O54_4 1_555 1_555
H48_5 O55_5 1_555 1_555
H49_5 O56_5 1_555 1_555
C15_4 H52_4 1_555 1_555
C19_4 H56_4 1_555 1_555
C20_4 C15_4 1_555 1_555
C24_4 C19_4 1_555 1_555
C25_4 C20_4 1_555 1_555
C29_4 C24_4 1_555 1_555
H57_4 C25_4 1_555 1_555
H61_4 C29_4 1_555 1_555
C30_4 C25_4 1_555 1_555
C34_4 C29_4 1_555 1_555
H62_4 C30_4 1_555 1_555
H66_4 C34_4 1_555 1_555
C35_4 N55_2 1_555 1_555
C39_4 C34_4 1_555 1_555
C40_4 N29_4 1_555 1_555
C44_4 N33_4 1_555 1_555
C45_4 O26_4 1_555 1_555
C51_5 H68_5 1_555 1_555
C56_5 C51_5 1_555 1_555
C61_5 C56_5 1_555 1_555
H73_5 C61_5 1_555 1_555
C66_5 C61_5 1_555 1_555
H78_5 C66_5 1_555 1_555
C71_5 N22_4 1_555 1_555
C76_5 N8_5 1_555 1_555
C81_5 O8_5 1_555 1_555
C8_5 C13_5 1_555 1_555
C9_5 C14_5 1_555 1_555
C11_5 C12_5 1_555 1_555
C12_5 C13_5 1_555 1_555
Cu38_2 O45_4 1_555 1_555
Cu36_5 O36_4 1_555 1_555
Cu36_5 O41_5 1_555 1_555
N8_5 N19_3 1_555 1_555
N44_5 N56_8 1_555 1_555
O13_5 C81_5 1_555 1_555
C15_4 C40_4 1_555 1_555
C19_4 C44_4 1_555 1_555
C20_4 C45_4 1_555 1_555
C24_4 C49_4 1_555 1_555
C30_4 C35_4 1_555 1_555
C35_4 C40_4 1_555 1_555
C39_4 C44_4 1_555 1_555
C51_5 C76_5 1_555 1_555
C56_5 C81_5 1_555 1_555
C66_5 C71_5 1_555 1_555
C71_5 C76_5 1_555 1_555
Cu25_2 N3_6 1_555 1_555
N20_2 N1_6 1_555 1_555
N3_6 N20_2 1_555 1_555
O1_6 H1_6 1_555 1_555
O2_6 C14_6 1_555 1_555
C8_6 H8_6 1_555 1_555
C9_6 C8_6 1_555 1_555
C10_6 C9_6 1_555 1_555
H9_6 C10_6 1_555 1_555
C11_6 C10_6 1_555 1_555
H10_6 C11_6 1_555 1_555
C12_6 N3_6 1_555 1_555
C13_6 N1_6 1_555 1_555
C14_6 O1_6 1_555 1_555
Cu24_4 O2_6 1_555 1_555
Cu36_6 N44_6 1_555 1_555
N26_2 N19_4 1_555 1_555
N34_6 Cu24_4 1_555 1_555
N44_6 N34_6 1_555 1_555
N45_6 Cu36_6 1_555 1_555
N56_9 Cu15_4 1_555 1_555
O13_6 Cu25_2 1_555 1_555
O24_6 Cu24_4 1_555 1_555
O32_6 Cu24_4 1_555 1_555
O40_2 Cu24_4 1_555 1_555
O41_6 Cu15_4 1_555 1_555
O55_6 Cu36_6 1_555 1_555
O56_6 Cu36_6 1_555 1_555
H37_6 O55_6 1_555 1_555
H38_6 O56_6 1_555 1_555
H48_6 O55_6 1_555 1_555
H49_6 O56_6 1_555 1_555
C51_6 H68_6 1_555 1_555
C56_6 C51_6 1_555 1_555
C61_6 C56_6 1_555 1_555
H73_6 C61_6 1_555 1_555
C66_6 C61_6 1_555 1_555
H78_6 C66_6 1_555 1_555
C71_6 N26_2 1_555 1_555
C76_6 N8_6 1_555 1_555
C81_6 O8_6 1_555 1_555
C8_6 C13_6 1_555 1_555
C9_6 C14_6 1_555 1_555
C11_6 C12_6 1_555 1_555
C12_6 C13_6 1_555 1_555
Cu36_6 O40_2 1_555 1_555
Cu36_6 O41_6 1_555 1_555
N8_6 N19_4 1_555 1_555
N44_6 N56_9 1_555 1_555
O13_6 C81_6 1_555 1_555
C51_6 C76_6 1_555 1_555
C56_6 C81_6 1_555 1_555
C66_6 C71_6 1_555 1_555
C71_6 C76_6 1_555 1_555
N36_2 N43_4 1_555 1_555
N43_4 N6_6 1_555 1_555
N6_6 Cu15_2 1_555 1_555
O23_4 C7_6 1_555 1_555
O31_4 C7_6 1_555 1_555
O45_4 Cu15_2 1_555 1_555
C1_6 H5_6 1_555 1_555
C2_6 C1_6 1_555 1_555
C3_6 C2_6 1_555 1_555
H6_6 C3_6 1_555 1_555
C4_6 C3_6 1_555 1_555
H7_6 C4_6 1_555 1_555
C5_6 N6_6 1_555 1_555
C6_6 N36_2 1_555 1_555
C7_6 C2_6 1_555 1_555
Cu32_3 O15_9 1_555 1_555
Cu31_6 N25_9 1_555 1_555
N10_9 Cu10_2 1_555 1_555
N25_9 N20_4 1_555 1_555
N55_9 Cu10_2 1_555 1_555
O10_9 H14_9 1_555 1_555
O11_9 H15_9 1_555 1_555
O15_9 C83_9 1_555 1_555
O24_3 C48_6 1_555 1_555
C18_6 H55_6 1_555 1_555
C23_6 C18_6 1_555 1_555
C28_6 C23_6 1_555 1_555
H60_6 C28_6 1_555 1_555
C33_6 C28_6 1_555 1_555
H65_6 C33_6 1_555 1_555
C38_6 N56_2 1_555 1_555
C43_6 N34_2 1_555 1_555
C48_6 O32_3 1_555 1_555
C53_9 H70_9 1_555 1_555
C54_9 H71_9 1_555 1_555
C58_9 C53_9 1_555 1_555
C59_9 C54_9 1_555 1_555
C63_9 C58_9 1_555 1_555
C64_9 C59_9 1_555 1_555
H75_9 C63_9 1_555 1_555
H76_9 C64_9 1_555 1_555
C68_9 C63_9 1_555 1_555
C69_9 C64_9 1_555 1_555
H80_9 C68_9 1_555 1_555
H81_9 C69_9 1_555 1_555
C73_9 N28_3 1_555 1_555
C74_9 N25_9 1_555 1_555
C78_9 N10_9 1_555 1_555
C79_9 N11_9 1_555 1_555
C83_9 O10_9 1_555 1_555
C84_9 O11_9 1_555 1_555
C1_6 C6_6 1_555 1_555
C4_6 C5_6 1_555 1_555
C5_6 C6_6 1_555 1_555
N10_9 N17_2 1_555 1_555
N11_9 N20_4 1_555 1_555
O17_3 C84_9 1_555 1_555
C18_6 C43_6 1_555 1_555
C23_6 C48_6 1_555 1_555
C33_6 C38_6 1_555 1_555
C38_6 C43_6 1_555 1_555
C53_9 C78_9 1_555 1_555
C54_9 C79_9 1_555 1_555
C58_9 C83_9 1_555 1_555
C59_9 C84_9 1_555 1_555
C68_9 C73_9 1_555 1_555
C69_9 C74_9 1_555 1_555
C73_9 C78_9 1_555 1_555
C74_9 C79_9 1_555 1_555
Cu31_4 O18_5 1_555 1_555
O18_5 C45_5 1_555 1_555
O26_5 Cu31_4 1_555 1_555
C15_5 H52_5 1_555 1_555
C20_5 C15_5 1_555 1_555
C25_5 C20_5 1_555 1_555
H57_5 C25_5 1_555 1_555
C30_5 C25_5 1_555 1_555
H62_5 C30_5 1_555 1_555
C45_5 O26_5 1_555 1_555
C20_5 C45_5 1_555 1_555
C30_5 C35_5 1_555 1_555
O25 C7_7 1_555 1_555
O33 C7_7 1_555 1_555
C1_7 H5_7 1_555 1_555
C2_7 C1_7 1_555 1_555
C3_7 C2_7 1_555 1_555
C6_7 N35_2 1_555 1_555
C7_7 C2_7 1_555 1_555
C1_7 C6_7 1_555 1_555
C5_7 C6_7 1_555 1_555
H7_7 C4_7 1_555 1_555
N29_5 Cu32_2 1_555 1_555
N45_6 N29_5 1_555 1_555
N55_7 N45_6 1_555 1_555
O19_3 Cu32_2 1_555 1_555
O24_4 C48_7 1_555 1_555
O27_3 Cu32_2 1_555 1_555
O41_6 Cu32_2 1_555 1_555
C18_7 H55_7 1_555 1_555
C23_7 C18_7 1_555 1_555
C28_7 C23_7 1_555 1_555
H60_7 C28_7 1_555 1_555
C33_7 C28_7 1_555 1_555
H65_7 C33_7 1_555 1_555
C38_7 N56_9 1_555 1_555
C40_5 N29_5 1_555 1_555
C43_7 N34_6 1_555 1_555
C48_7 O32_4 1_555 1_555
C18_7 C43_7 1_555 1_555
C23_7 C48_7 1_555 1_555
C33_7 C38_7 1_555 1_555
C38_7 C43_7 1_555 1_555
H64_3 C32_3 1_555 1_555
H66_5 C34_5 1_555 1_555
Cu31_6 O47_2 1_555 1_555
Cu31_3 N30_3 1_555 1_555
Cu31_5 O20_3 1_555 1_555
Cu32_3 N33_5 1_555 1_555
Cu35_3 N47_3 1_555 1_555
N30_3 N45_5 1_555 1_555
N31_3 Cu31_6 1_555 1_555
N33_5 N47_3 1_555 1_555
N45_5 N55_9 1_555 1_555
N55_9 C36_3 1_555 1_555
O20_3 C47_3 1_555 1_555
O22_5 Cu31_6 1_555 1_555
O28_3 Cu31_5 1_555 1_555
O30_5 Cu31_6 1_555 1_555
O41_5 Cu31_3 1_555 1_555
O47_3 Cu32_3 1_555 1_555
O57_3 Cu35_3 1_555 1_555
C16_3 H53_3 1_555 1_555
C17_3 H54_3 1_555 1_555
C19_5 H56_5 1_555 1_555
C21_3 C16_3 1_555 1_555
C22_3 C17_3 1_555 1_555
C24_5 C19_5 1_555 1_555
C26_3 C21_3 1_555 1_555
C27_3 C22_3 1_555 1_555
C29_5 C24_5 1_555 1_555
H58_3 C26_3 1_555 1_555
C31_3 C26_3 1_555 1_555
H63_3 C31_3 1_555 1_555
C36_3 C31_3 1_555 1_555
C41_3 N30_3 1_555 1_555
C42_3 N31_3 1_555 1_555
C44_5 N33_5 1_555 1_555
C47_3 O28_3 1_555 1_555
C49_5 O22_5 1_555 1_555
Cu35_3 O47_3 1_555 1_555
N31_3 N47_2 1_555 1_555
O30_5 C49_5 1_555 1_555
C16_3 C41_3 1_555 1_555
C17_3 C42_3 1_555 1_555
C19_5 C44_5 1_555 1_555
C21_3 C46_3 1_555 1_555
C22_3 C47_3 1_555 1_555
C24_5 C49_5 1_555 1_555
C36_3 C41_3 1_555 1_555
C37_3 C42_3 1_555 1_555
C39_5 C44_5 1_555 1_555
O25_2 C7_8 1_555 1_555
O33_2 C7_8 1_555 1_555
C1_8 H5_8 1_555 1_555
C2_8 C1_8 1_555 1_555
C3_8 C2_8 1_555 1_555
C6_8 N35_3 1_555 1_555
C7_8 C2_8 1_555 1_555
H66_6 C34_6 1_555 1_555
C1_8 C6_8 1_555 1_555
C5_8 C6_8 1_555 1_555
H7_8 C4_8 1_555 1_555
Cu31_5 N33_6 1_555 1_555
N29_6 Cu31_4 1_555 1_555
N33_6 N47 1_555 1_555
N45_4 N29_6 1_555 1_555
N55_8 N45_4 1_555 1_555
O24_5 C48_8 1_555 1_555
O22_6 Cu32_3 1_555 1_555
O30_6 Cu32_3 1_555 1_555
O41_4 Cu31_4 1_555 1_555
O47 Cu31_5 1_555 1_555
C18_8 H55_8 1_555 1_555
C19_6 H56_6 1_555 1_555
C23_8 C18_8 1_555 1_555
C24_6 C19_6 1_555 1_555
C28_8 C23_8 1_555 1_555
C29_6 C24_6 1_555 1_555
H60_8 C28_8 1_555 1_555
C33_8 C28_8 1_555 1_555
H65_8 C33_8 1_555 1_555
C38_8 N56_7 1_555 1_555
C40_6 N29_6 1_555 1_555
C43_8 N34_4 1_555 1_555
C44_6 N33_6 1_555 1_555
C48_8 O32_5 1_555 1_555
C49_6 O22_6 1_555 1_555
O30_6 C49_6 1_555 1_555
C18_8 C43_8 1_555 1_555
C19_6 C44_6 1_555 1_555
C23_8 C48_8 1_555 1_555
C24_6 C49_6 1_555 1_555
C33_8 C38_8 1_555 1_555
C38_8 C43_8 1_555 1_555
C39_6 C44_6 1_555 1_555
O57 Cu35_4 1_555 1_555
C15_6 H52_6 1_555 1_555
C20_6 C15_6 1_555 1_555
C25_6 C20_6 1_555 1_555
H57_6 C25_6 1_555 1_555
C30_6 C25_6 1_555 1_555
H62_6 C30_6 1_555 1_555
C20_6 C45_6 1_555 1_555
C30_6 C35_6 1_555 1_555
Cu31_3 O18_6 1_555 1_555
O26_6 Cu31_3 1_555 1_555
O57_2 Cu35_5 1_555 1_555
O25_3 C7_9 1_555 1_555
O33_3 C7_9 1_555 1_555
C1_9 H5_9 1_555 1_555
C2_9 C1_9 1_555 1_555
C3_9 C2_9 1_555 1_555
C6_9 N35 1_555 1_555
C7_9 C2_9 1_555 1_555
C1_9 C6_9 1_555 1_555
C5_9 C6_9 1_555 1_555
H7_9 C4_9 1_555 1_555
O24_6 C48_9 1_555 1_555
C18_9 H55_9 1_555 1_555
C23_9 C18_9 1_555 1_555
C28_9 C23_9 1_555 1_555
H60_9 C28_9 1_555 1_555
C33_9 C28_9 1_555 1_555
H65_9 C33_9 1_555 1_555
C38_9 N56_8 1_555 1_555
C43_9 N34_5 1_555 1_555
C48_9 O32_6 1_555 1_555
C18_9 C43_9 1_555 1_555
C23_9 C48_9 1_555 1_555
C33_9 C38_9 1_555 1_555
C38_9 C43_9 1_555 1_555
O41 H83_5 1_555 1_555
O41_2 H83_6 1_555 1_555
O47_2 H83_7 1_555 1_555
O47 H83_8 1_555 1_555

#END
