
###############################################################################
#
# This file contains modified crystal structure data generated from the
# MOF subset of the Cambridge Structural Database (CSD) v543 
# hosted by the Cambridge Crystallographic Data Centre (CCDC).
#
# This work is licensed under the Creative Commons
# Attribution-NonCommercial-ShareAlike 4.0 International License.
# To view a copy of this license, visit
# http://creativecommons.org/licenses/by-nc-sa/4.0/
# or send a letter to
# Creative Commons, PO Box 1866, Mountain View, CA 94042, USA.
#
# CIF created using the CSD Python API on 29 September 2022
# The structure has been converted into the P1 space group
# The structure has a 3D framework
# The original CSD entry QANWOV is in the orthorhombic crystal system
# The framework has been calculated to contain at least 10.0% void space
# The void calculation uses a probe of radius 1.32A, grid spacing 0.4
# H atom positions have been added when not included in the experimental data
# Generated hydrogen atom positions removed from atoms on special positions
#
###############################################################################

data_QANWOV
_chemical_formula_moiety         '(C176 H208 O66 Zr16)n'
_symmetry_cell_setting           triclinic
_symmetry_space_group_name_H-M   'P 1'
_symmetry_Int_Tables_number      1
_space_group_name_Hall           'P 1'
loop_
_symmetry_equiv_pos_site_id
_symmetry_equiv_pos_as_xyz
1 x,y,z
_cell_length_a                   25.9052(10)
_cell_length_b                   32.1806(17)
_cell_length_c                   12.2659(5)
_cell_angle_alpha                90
_cell_angle_beta                 90
_cell_angle_gamma                90
_cell_volume                     10225.4
loop_
_atom_site_label
_atom_site_type_symbol
_atom_site_fract_x
_atom_site_fract_y
_atom_site_fract_z
Zr1 Zr 0.56789(3) 0.5000 0.64391(6)
Zr2 Zr 0.5000 0.42363(4) 0.5000
O1 O 0.44863(17) 0.38823(14) 0.3908(3)
O2 O 0.5000 0.46262(18) 0.6428(6)
O3 O 0.40459(18) 0.43757(17) 0.2993(4)
O4 O 0.6516(3) 0.5000 0.6375(6)
O5 O 0.5544(4) 0.5000 0.8233(6)
C1 C 0.4161(3) 0.4005(3) 0.3188(6)
C2 C 0.3912(2) 0.3665(2) 0.2542(5)
C3 C 0.3446(3) 0.3059(2) 0.1247(6)
C4 C 0.3474(3) 0.3759(2) 0.1913(6)
H1 H 0.3336 0.4033 0.1919
C5 C 0.3246(3) 0.3455(2) 0.1288(6)
H2 H 0.2946 0.3520 0.0878
C6 C 0.3219(2) 0.2715(2) 0.0565(6)
C7 C 0.4095(3) 0.3277(3) 0.2496(6)
H3 H 0.4390 0.3209 0.2921
C8 C 0.3876(3) 0.2971(2) 0.1862(6)
H4 H 0.4022 0.2701 0.1849
C9 C 0.3009(3) 0.2373(2) 0.1148(8)
C10 C 0.2938(3) 0.2024(2) 0.0559(9)
H5 H 0.2885 0.1769 0.0932
C11 C 0.2775(3) 0.2412(4) 0.2248(8)
H6 H 0.2997 0.2594 0.2699
H7 H 0.2770 0.2134 0.2596
O6 O 0.5692(3) 0.4645(3) 0.5000
O7 O 0.05137(17) 0.11177(14) 0.3908(3)
O8 O 0.09541(18) 0.06243(17) 0.2993(4)
C12 C 0.0839(3) 0.0995(3) 0.3188(6)
C13 C 0.1088(2) 0.1335(2) 0.2542(5)
C14 C 0.1554(3) 0.1941(2) 0.1247(6)
C15 C 0.1526(3) 0.1241(2) 0.1913(6)
H8 H 0.1664 0.0967 0.1919
C16 C 0.1754(3) 0.1545(2) 0.1288(6)
H9 H 0.2054 0.1480 0.0878
C17 C 0.1781(2) 0.2285(2) 0.0565(6)
C18 C 0.0905(3) 0.1723(3) 0.2496(6)
H10 H 0.0610 0.1791 0.2921
C19 C 0.1124(3) 0.2029(2) 0.1862(6)
H11 H 0.0978 0.2299 0.1849
C20 C 0.1991(3) 0.2627(2) 0.1148(8)
C21 C 0.2062(3) 0.2976(2) 0.0559(9)
H12 H 0.2115 0.3231 0.0932
C22 C 0.2225(3) 0.2588(4) 0.2248(8)
H13 H 0.2003 0.2406 0.2699
H14 H 0.2230 0.2866 0.2596
Zr3 Zr 0.43211(3) 0.5000 0.64391(6)
O13 O 0.5000 0.53738(18) 0.6428(6)
O14 O 0.3484(3) 0.5000 0.6375(6)
O15 O 0.4456(4) 0.5000 0.8233(6)
O16 O 0.4308(3) 0.5355(3) 0.5000
Zr5 Zr 0.43211(3) 0.5000 0.35609(6)
Zr6 Zr 0.56789(3) 0.5000 0.35609(6)
Zr8 Zr 0.06789(3) 0.0000 0.35609(6)
Zr10 Zr 0.5000 0.57637(4) 0.5000
Zr12 Zr 0.0000 0.07637(4) 0.5000
O17 O 0.55137(17) 0.38823(14) 0.6092(3)
O18 O 0.44863(17) 0.38823(14) 0.6092(3)
O19 O 0.55137(17) 0.38823(14) 0.3908(3)
O20 O 0.5000 0.46262(18) 0.3572(6)
O21 O 0.59541(18) 0.43757(17) 0.7007(4)
O22 O 0.40459(18) 0.56243(17) 0.7007(4)
O23 O 0.59541(18) 0.56243(17) 0.7007(4)
O24 O 0.40459(18) 0.43757(17) 0.7007(4)
O25 O 0.4308(3) 0.4645(3) 0.5000
O26 O 0.5692(3) 0.5355(3) 0.5000
C23 C 0.4161(3) 0.4005(3) 0.6812(6)
C24 C 0.3912(2) 0.3665(2) 0.7458(5)
C25 C 0.3446(3) 0.3059(2) 0.8753(6)
C26 C 0.3474(3) 0.3759(2) 0.8087(6)
H15 H 0.3336 0.4033 0.8081
C27 C 0.3246(3) 0.3455(2) 0.8712(6)
H16 H 0.2946 0.3520 0.9122
C28 C 0.3219(2) 0.2715(2) 0.9435(6)
C29 C 0.4095(3) 0.3277(3) 0.7504(6)
H17 H 0.4390 0.3209 0.7079
C30 C 0.3876(3) 0.2971(2) 0.8138(6)
H18 H 0.4022 0.2701 0.8151
C31 C 0.3009(3) 0.2373(2) 0.8852(8)
C32 C 0.2938(3) 0.2024(2) 0.9441(9)
H19 H 0.2885 0.1769 0.9068
C33 C 0.2775(3) 0.2412(4) 0.7752(8)
H20 H 0.2997 0.2594 0.7301
H21 H 0.2770 0.2134 0.7404
O11 O 0.05137(17) 0.11177(14) 0.6092(3)
O12 O 0.09541(18) 0.06243(17) 0.7007(4)
C34 C 0.0839(3) 0.0995(3) 0.6812(6)
C35 C 0.1088(2) 0.1335(2) 0.7458(5)
C36 C 0.1554(3) 0.1941(2) 0.8753(6)
C37 C 0.1526(3) 0.1241(2) 0.8087(6)
H22 H 0.1664 0.0967 0.8081
C38 C 0.1754(3) 0.1545(2) 0.8712(6)
H23 H 0.2054 0.1480 0.9122
C39 C 0.1781(2) 0.2285(2) 0.9435(6)
C40 C 0.0905(3) 0.1723(3) 0.7504(6)
H24 H 0.0610 0.1791 0.7079
C41 C 0.1124(3) 0.2029(2) 0.8138(6)
H25 H 0.0978 0.2299 0.8151
C42 C 0.1991(3) 0.2627(2) 0.8852(8)
C43 C 0.2062(3) 0.2976(2) 0.9441(9)
H26 H 0.2115 0.3231 0.9068
C44 C 0.2225(3) 0.2588(4) 0.7752(8)
H27 H 0.2003 0.2406 0.7301
H28 H 0.2230 0.2866 0.7404
Zr7 Zr 0.06789(3) 0.0000 0.64391(6)
Zr8_2 Zr 0.06789(3) 1.0000 0.35609(6)
Zr7_2 Zr 0.06789(3) 1.0000 0.64391(6)
Zr12_2 Zr 1.0000 0.07637(4) 0.5000
Zr12_3 Zr 0.0000 0.92363(4) 0.5000
Zr8_3 Zr 0.93211(3) 0.0000 0.35609(6)
Zr7_3 Zr 0.93211(3) 0.0000 0.64391(6)
O1_2 O 0.55137(17) 0.61177(14) 0.3908(3)
O3_2 O 0.59541(18) 0.56243(17) 0.2993(4)
C1_2 C 0.5839(3) 0.5995(3) 0.3188(6)
C2_2 C 0.6088(2) 0.6335(2) 0.2542(5)
C3_2 C 0.6554(3) 0.6941(2) 0.1247(6)
C4_2 C 0.6526(3) 0.6241(2) 0.1913(6)
H1_2 H 0.6664 0.5967 0.1919
C5_2 C 0.6754(3) 0.6545(2) 0.1288(6)
H2_2 H 0.7054 0.6480 0.0878
C6_2 C 0.6781(2) 0.7285(2) 0.0565(6)
C7_2 C 0.5905(3) 0.6723(3) 0.2496(6)
H3_2 H 0.5610 0.6791 0.2921
C8_2 C 0.6124(3) 0.7029(2) 0.1862(6)
H4_2 H 0.5978 0.7299 0.1849
C9_2 C 0.6991(3) 0.7627(2) 0.1148(8)
C10_2 C 0.7062(3) 0.7976(2) 0.0559(9)
H5_2 H 0.7115 0.8231 0.0932
C11_2 C 0.7225(3) 0.7588(4) 0.2248(8)
H6_2 H 0.7003 0.7406 0.2699
H7_2 H 0.7230 0.7866 0.2596
O7_2 O 0.94863(17) 0.88823(14) 0.3908(3)
O8_2 O 0.90459(18) 0.93757(17) 0.2993(4)
C12_2 C 0.9161(3) 0.9005(3) 0.3188(6)
C13_2 C 0.8912(2) 0.8665(2) 0.2542(5)
C14_2 C 0.8446(3) 0.8059(2) 0.1247(6)
C15_2 C 0.8474(3) 0.8759(2) 0.1913(6)
H8_2 H 0.8336 0.9033 0.1919
C16_2 C 0.8246(3) 0.8455(2) 0.1288(6)
H9_2 H 0.7946 0.8520 0.0878
C17_2 C 0.8219(2) 0.7715(2) 0.0565(6)
C18_2 C 0.9095(3) 0.8277(3) 0.2496(6)
H10_2 H 0.9390 0.8209 0.2921
C19_2 C 0.8876(3) 0.7971(2) 0.1862(6)
H11_2 H 0.9022 0.7701 0.1849
C20_2 C 0.8009(3) 0.7373(2) 0.1148(8)
C21_2 C 0.7938(3) 0.7024(2) 0.0559(9)
H12_2 H 0.7885 0.6769 0.0932
C22_2 C 0.7775(3) 0.7412(4) 0.2248(8)
H13_2 H 0.7997 0.7594 0.2699
H14_2 H 0.7770 0.7134 0.2596
Zr8_4 Zr 0.93211(3) 1.0000 0.35609(6)
Zr12_4 Zr 1.0000 0.92363(4) 0.5000
O17_2 O 0.44863(17) 0.61177(14) 0.6092(3)
O18_2 O 0.55137(17) 0.61177(14) 0.6092(3)
O19_2 O 0.44863(17) 0.61177(14) 0.3908(3)
O20_2 O 0.5000 0.53738(18) 0.3572(6)
C23_2 C 0.5839(3) 0.5995(3) 0.6812(6)
C24_2 C 0.6088(2) 0.6335(2) 0.7458(5)
C25_2 C 0.6554(3) 0.6941(2) 0.8753(6)
C26_2 C 0.6526(3) 0.6241(2) 0.8087(6)
H15_2 H 0.6664 0.5967 0.8081
C27_2 C 0.6754(3) 0.6545(2) 0.8712(6)
H16_2 H 0.7054 0.6480 0.9122
C28_2 C 0.6781(2) 0.7285(2) 0.9435(6)
C29_2 C 0.5905(3) 0.6723(3) 0.7504(6)
H17_2 H 0.5610 0.6791 0.7079
C30_2 C 0.6124(3) 0.7029(2) 0.8138(6)
H18_2 H 0.5978 0.7299 0.8151
C31_2 C 0.6991(3) 0.7627(2) 0.8852(8)
C32_2 C 0.7062(3) 0.7976(2) 0.9441(9)
H19_2 H 0.7115 0.8231 0.9068
C33_2 C 0.7225(3) 0.7588(4) 0.7752(8)
H20_2 H 0.7003 0.7406 0.7301
H21_2 H 0.7230 0.7866 0.7404
O11_2 O 0.94863(17) 0.88823(14) 0.6092(3)
O12_2 O 0.90459(18) 0.93757(17) 0.7007(4)
C34_2 C 0.9161(3) 0.9005(3) 0.6812(6)
C35_2 C 0.8912(2) 0.8665(2) 0.7458(5)
C36_2 C 0.8446(3) 0.8059(2) 0.8753(6)
C37_2 C 0.8474(3) 0.8759(2) 0.8087(6)
H22_2 H 0.8336 0.9033 0.8081
C38_2 C 0.8246(3) 0.8455(2) 0.8712(6)
H23_2 H 0.7946 0.8520 0.9122
C39_2 C 0.8219(2) 0.7715(2) 0.9435(6)
C40_2 C 0.9095(3) 0.8277(3) 0.7504(6)
H24_2 H 0.9390 0.8209 0.7079
C41_2 C 0.8876(3) 0.7971(2) 0.8138(6)
H25_2 H 0.9022 0.7701 0.8151
C42_2 C 0.8009(3) 0.7373(2) 0.8852(8)
C43_2 C 0.7938(3) 0.7024(2) 0.9441(9)
H26_2 H 0.7885 0.6769 0.9068
C44_2 C 0.7775(3) 0.7412(4) 0.7752(8)
H27_2 H 0.7997 0.7594 0.7301
H28_2 H 0.7770 0.7134 0.7404
Zr7_4 Zr 0.93211(3) 1.0000 0.64391(6)
O10 O 0.59541(18) 0.43757(17) 0.2993(4)
C23_3 C 0.5839(3) 0.4005(3) 0.3188(6)
C24_3 C 0.6088(2) 0.3665(2) 0.2542(5)
C25_3 C 0.6554(3) 0.3059(2) 0.1247(6)
C26_3 C 0.6526(3) 0.3759(2) 0.1913(6)
H15_3 H 0.6664 0.4033 0.1919
C27_3 C 0.6754(3) 0.3455(2) 0.1288(6)
H16_3 H 0.7054 0.3520 0.0878
C28_3 C 0.6781(2) 0.2715(2) 0.0565(6)
C29_3 C 0.5905(3) 0.3277(3) 0.2496(6)
H17_3 H 0.5610 0.3209 0.2921
C30_3 C 0.6124(3) 0.2971(2) 0.1862(6)
H18_3 H 0.5978 0.2701 0.1849
C31_3 C 0.6991(3) 0.2373(2) 0.1148(8)
C32_3 C 0.7062(3) 0.2024(2) 0.0559(9)
H19_3 H 0.7115 0.1769 0.0932
C33_3 C 0.7225(3) 0.2412(4) 0.2248(8)
H20_3 H 0.7003 0.2594 0.2699
H21_3 H 0.7230 0.2134 0.2596
O11_3 O 0.94863(17) 0.11177(14) 0.3908(3)
O12_3 O 0.90459(18) 0.06243(17) 0.2993(4)
C34_3 C 0.9161(3) 0.0995(3) 0.3188(6)
C35_3 C 0.8912(2) 0.1335(2) 0.2542(5)
C36_3 C 0.8446(3) 0.1941(2) 0.1247(6)
C37_3 C 0.8474(3) 0.1241(2) 0.1913(6)
H22_3 H 0.8336 0.0967 0.1919
C38_3 C 0.8246(3) 0.1545(2) 0.1288(6)
H23_3 H 0.7946 0.1480 0.0878
C39_3 C 0.8219(2) 0.2285(2) 0.0565(6)
C40_3 C 0.9095(3) 0.1723(3) 0.2496(6)
H24_3 H 0.9390 0.1791 0.2921
C41_3 C 0.8876(3) 0.2029(2) 0.1862(6)
H25_3 H 0.9022 0.2299 0.1849
C42_3 C 0.8009(3) 0.2627(2) 0.1148(8)
C43_3 C 0.7938(3) 0.2976(2) 0.0559(9)
H26_3 H 0.7885 0.3231 0.0932
C44_3 C 0.7775(3) 0.2588(4) 0.2248(8)
H27_3 H 0.7997 0.2406 0.2699
H28_3 H 0.7770 0.2866 0.2596
O4_2 O 0.3484(3) 0.5000 0.3625(6)
O5_2 O 0.4456(4) 0.5000 0.1767(6)
C1_3 C 0.5839(3) 0.4005(3) 0.6812(6)
C2_3 C 0.6088(2) 0.3665(2) 0.7458(5)
C3_3 C 0.6554(3) 0.3059(2) 0.8753(6)
C4_3 C 0.6526(3) 0.3759(2) 0.8087(6)
H1_3 H 0.6664 0.4033 0.8081
C5_3 C 0.6754(3) 0.3455(2) 0.8712(6)
H2_3 H 0.7054 0.3520 0.9122
C6_3 C 0.6781(2) 0.2715(2) 0.9435(6)
C7_3 C 0.5905(3) 0.3277(3) 0.7504(6)
H3_3 H 0.5610 0.3209 0.7079
C8_3 C 0.6124(3) 0.2971(2) 0.8138(6)
H4_3 H 0.5978 0.2701 0.8151
C9_3 C 0.6991(3) 0.2373(2) 0.8852(8)
C10_3 C 0.7062(3) 0.2024(2) 0.9441(9)
H5_3 H 0.7115 0.1769 0.9068
C11_3 C 0.7225(3) 0.2412(4) 0.7752(8)
H6_3 H 0.7003 0.2594 0.7301
H7_3 H 0.7230 0.2134 0.7404
O7_3 O 0.94863(17) 0.11177(14) 0.6092(3)
O8_3 O 0.90459(18) 0.06243(17) 0.7007(4)
C12_3 C 0.9161(3) 0.0995(3) 0.6812(6)
C13_3 C 0.8912(2) 0.1335(2) 0.7458(5)
C14_3 C 0.8446(3) 0.1941(2) 0.8753(6)
C15_3 C 0.8474(3) 0.1241(2) 0.8087(6)
H8_3 H 0.8336 0.0967 0.8081
C16_3 C 0.8246(3) 0.1545(2) 0.8712(6)
H9_3 H 0.7946 0.1480 0.9122
C17_3 C 0.8219(2) 0.2285(2) 0.9435(6)
C18_3 C 0.9095(3) 0.1723(3) 0.7504(6)
H10_3 H 0.9390 0.1791 0.7079
C19_3 C 0.8876(3) 0.2029(2) 0.8138(6)
H11_3 H 0.9022 0.2299 0.8151
C20_3 C 0.8009(3) 0.2627(2) 0.8852(8)
C21_3 C 0.7938(3) 0.2976(2) 0.9441(9)
H12_3 H 0.7885 0.3231 0.9068
C22_3 C 0.7775(3) 0.2588(4) 0.7752(8)
H13_3 H 0.7997 0.2406 0.7301
H14_3 H 0.7770 0.2866 0.7404
O14_2 O 0.6516(3) 0.5000 0.3625(6)
O15_2 O 0.5544(4) 0.5000 0.1767(6)
O23_2 O 0.40459(18) 0.56243(17) 0.2993(4)
C23_4 C 0.4161(3) 0.5995(3) 0.3188(6)
C24_4 C 0.3912(2) 0.6335(2) 0.2542(5)
C25_4 C 0.3446(3) 0.6941(2) 0.1247(6)
C26_4 C 0.3474(3) 0.6241(2) 0.1913(6)
H15_4 H 0.3336 0.5967 0.1919
C27_4 C 0.3246(3) 0.6545(2) 0.1288(6)
H16_4 H 0.2946 0.6480 0.0878
C28_4 C 0.3219(2) 0.7285(2) 0.0565(6)
C29_4 C 0.4095(3) 0.6723(3) 0.2496(6)
H17_4 H 0.4390 0.6791 0.2921
C30_4 C 0.3876(3) 0.7029(2) 0.1862(6)
H18_4 H 0.4022 0.7299 0.1849
C31_4 C 0.3009(3) 0.7627(2) 0.1148(8)
C32_4 C 0.2938(3) 0.7976(2) 0.0559(9)
H19_4 H 0.2885 0.8231 0.0932
C33_4 C 0.2775(3) 0.7588(4) 0.2248(8)
H20_4 H 0.2997 0.7406 0.2699
H21_4 H 0.2770 0.7866 0.2596
O11_4 O 0.05137(17) 0.88823(14) 0.3908(3)
O12_4 O 0.09541(18) 0.93757(17) 0.2993(4)
C34_4 C 0.0839(3) 0.9005(3) 0.3188(6)
C35_4 C 0.1088(2) 0.8665(2) 0.2542(5)
C36_4 C 0.1554(3) 0.8059(2) 0.1247(6)
C37_4 C 0.1526(3) 0.8759(2) 0.1913(6)
H22_4 H 0.1664 0.9033 0.1919
C38_4 C 0.1754(3) 0.8455(2) 0.1288(6)
H23_4 H 0.2054 0.8520 0.0878
C39_4 C 0.1781(2) 0.7715(2) 0.0565(6)
C40_4 C 0.0905(3) 0.8277(3) 0.2496(6)
H24_4 H 0.0610 0.8209 0.2921
C41_4 C 0.1124(3) 0.7971(2) 0.1862(6)
H25_4 H 0.0978 0.7701 0.1849
C42_4 C 0.1991(3) 0.7373(2) 0.1148(8)
C43_4 C 0.2062(3) 0.7024(2) 0.0559(9)
H26_4 H 0.2115 0.6769 0.0932
C44_4 C 0.2225(3) 0.7412(4) 0.2248(8)
H27_4 H 0.2003 0.7594 0.2699
H28_4 H 0.2230 0.7134 0.2596
C1_4 C 0.4161(3) 0.5995(3) 0.6812(6)
C2_4 C 0.3912(2) 0.6335(2) 0.7458(5)
C3_4 C 0.3446(3) 0.6941(2) 0.8753(6)
C4_4 C 0.3474(3) 0.6241(2) 0.8087(6)
H1_4 H 0.3336 0.5967 0.8081
C5_4 C 0.3246(3) 0.6545(2) 0.8712(6)
H2_4 H 0.2946 0.6480 0.9122
C6_4 C 0.3219(2) 0.7285(2) 0.9435(6)
C7_4 C 0.4095(3) 0.6723(3) 0.7504(6)
H3_4 H 0.4390 0.6791 0.7079
C8_4 C 0.3876(3) 0.7029(2) 0.8138(6)
H4_4 H 0.4022 0.7299 0.8151
C9_4 C 0.3009(3) 0.7627(2) 0.8852(8)
C10_4 C 0.2938(3) 0.7976(2) 0.9441(9)
H5_4 H 0.2885 0.8231 0.9068
C11_4 C 0.2775(3) 0.7588(4) 0.7752(8)
H6_4 H 0.2997 0.7406 0.7301
H7_4 H 0.2770 0.7866 0.7404
O7_4 O 0.05137(17) 0.88823(14) 0.6092(3)
O8_4 O 0.09541(18) 0.93757(17) 0.7007(4)
C12_4 C 0.0839(3) 0.9005(3) 0.6812(6)
C13_4 C 0.1088(2) 0.8665(2) 0.7458(5)
C14_4 C 0.1554(3) 0.8059(2) 0.8753(6)
C15_4 C 0.1526(3) 0.8759(2) 0.8087(6)
H8_4 H 0.1664 0.9033 0.8081
C16_4 C 0.1754(3) 0.8455(2) 0.8712(6)
H9_4 H 0.2054 0.8520 0.9122
C17_4 C 0.1781(2) 0.7715(2) 0.9435(6)
C18_4 C 0.0905(3) 0.8277(3) 0.7504(6)
H10_4 H 0.0610 0.8209 0.7079
C19_4 C 0.1124(3) 0.7971(2) 0.8138(6)
H11_4 H 0.0978 0.7701 0.8151
C20_4 C 0.1991(3) 0.7373(2) 0.8852(8)
C21_4 C 0.2062(3) 0.7024(2) 0.9441(9)
H12_4 H 0.2115 0.6769 0.9068
C22_4 C 0.2225(3) 0.7412(4) 0.7752(8)
H13_4 H 0.2003 0.7594 0.7301
H14_4 H 0.2230 0.7134 0.7404
O4_3 O 0.1516(3) 0.0000 0.6375(6)
O5_3 O 0.0544(4) 0.0000 0.8233(6)
O13_2 O -0.0000 0.03738(18) 0.6428(6)
O26_2 O 0.0692(3) 0.0355(3) 0.5000
O2_2 O -0.0000 0.96262(18) 0.6428(6)
O4_4 O 0.1516(3) 1.0000 0.6375(6)
O5_4 O 0.0544(4) 1.0000 0.8233(6)
O6_2 O 0.0692(3) 0.9645(3) 0.5000
O20_3 O -0.0000 0.96262(18) 0.3572(6)
O13_3 O 1.0000 0.03738(18) 0.6428(6)
O14_3 O 0.8484(3) 0.0000 0.6375(6)
O15_3 O 0.9456(4) 0.0000 0.8233(6)
O16_2 O 0.9308(3) 0.0355(3) 0.5000
O2_3 O 1.0000 0.96262(18) 0.6428(6)
O14_4 O 0.8484(3) 1.0000 0.6375(6)
O15_4 O 0.9456(4) 1.0000 0.8233(6)
O20_4 O 1.0000 0.96262(18) 0.3572(6)
O25_2 O 0.9308(3) 0.9645(3) 0.5000
O20_5 O 0.0000 0.03738(18) 0.3572(6)
O20_6 O 1.0000 0.03738(18) 0.3572(6)
O14_5 O 0.1516(3) 0.0000 0.3625(6)
O15_5 O 0.0544(4) 0.0000 0.1767(6)
O14_6 O 0.1516(3) 1.0000 0.3625(6)
O15_6 O 0.0544(4) 1.0000 0.1767(6)
O4_5 O 0.8484(3) 0.0000 0.3625(6)
O5_5 O 0.9456(4) 0.0000 0.1767(6)
O4_6 O 0.8484(3) 1.0000 0.3625(6)
O5_6 O 0.9456(4) 1.0000 0.1767(6)
loop_
_geom_bond_atom_site_label_1
_geom_bond_atom_site_label_2
_geom_bond_site_symmetry_1
_geom_bond_site_symmetry_2
Zr1 O2 1_555 1_555
Zr2 O1 1_555 1_555
O1 C1 1_555 1_555
O2 Zr2 1_555 1_555
O3 C1 1_555 1_555
O4 Zr1 1_555 1_555
O5 Zr1 1_555 1_555
C1 C2 1_555 1_555
C2 C4 1_555 1_555
C3 C5 1_555 1_555
C4 H1 1_555 1_555
C5 C4 1_555 1_555
H2 C5 1_555 1_555
C6 C3 1_555 1_555
C7 C2 1_555 1_555
H3 C7 1_555 1_555
C8 C3 1_555 1_555
H4 C8 1_555 1_555
C9 C6 1_555 1_555
C10 C9 1_555 1_555
H5 C10 1_555 1_555
C11 C9 1_555 1_555
H6 C11 1_555 1_555
H7 C11 1_555 1_555
O6 Zr1 1_555 1_555
O7 C12 1_555 1_555
O8 C12 1_555 1_555
C12 C13 1_555 1_555
C13 C15 1_555 1_555
C14 C16 1_555 1_555
C15 H8 1_555 1_555
C16 C15 1_555 1_555
H9 C16 1_555 1_555
C17 C14 1_555 1_555
C18 C13 1_555 1_555
H10 C18 1_555 1_555
C19 C14 1_555 1_555
H11 C19 1_555 1_555
C20 C17 1_555 1_555
C21 C20 1_555 1_555
H12 C21 1_555 1_555
C22 C11 1_555 1_555
H13 C22 1_555 1_555
H14 C22 1_555 1_555
Zr3 O2 1_555 1_555
O13 Zr1 1_555 1_555
O14 Zr3 1_555 1_555
O15 Zr3 1_555 1_555
O16 Zr3 1_555 1_555
Zr5 O3 1_555 1_555
Zr6 O6 1_555 1_555
Zr8 O8 1_555 1_555
Zr10 O13 1_555 1_555
Zr12 O7 1_555 1_555
O17 Zr2 1_555 1_555
O18 Zr2 1_555 1_555
O19 Zr2 1_555 1_555
O20 Zr2 1_555 1_555
O21 Zr1 1_555 1_555
O22 Zr3 1_555 1_555
O23 Zr1 1_555 1_555
O24 Zr3 1_555 1_555
O25 Zr2 1_555 1_555
O26 Zr1 1_555 1_555
Zr2 O6 1_555 1_555
C7 C8 1_555 1_555
C18 C19 1_555 1_555
C20 C22 1_555 1_555
Zr3 O13 1_555 1_555
Zr3 O25 1_555 1_555
O16 Zr5 1_555 1_555
O16 Zr10 1_555 1_555
Zr5 O20 1_555 1_555
Zr5 O25 1_555 1_555
Zr6 O20 1_555 1_555
Zr6 O26 1_555 1_555
Zr10 O26 1_555 1_555
O18 C23 1_555 1_555
O24 C23 1_555 1_555
C23 C24 1_555 1_555
C24 C26 1_555 1_555
C25 C27 1_555 1_555
C26 H15 1_555 1_555
C27 C26 1_555 1_555
H16 C27 1_555 1_555
C29 C24 1_555 1_555
H17 C29 1_555 1_555
C30 C25 1_555 1_555
H18 C30 1_555 1_555
C31 C28 1_555 1_555
H19 C32 1_555 1_555
C33 C31 1_555 1_555
H20 C33 1_555 1_555
H21 C33 1_555 1_555
O11 C34 1_555 1_555
O12 C34 1_555 1_555
C34 C35 1_555 1_555
C35 C37 1_555 1_555
C36 C38 1_555 1_555
C37 H22 1_555 1_555
C38 C37 1_555 1_555
H23 C38 1_555 1_555
C40 C35 1_555 1_555
H24 C40 1_555 1_555
C41 C36 1_555 1_555
H25 C41 1_555 1_555
C42 C39 1_555 1_555
H26 C43 1_555 1_555
C44 C33 1_555 1_555
H27 C44 1_555 1_555
H28 C44 1_555 1_555
Zr7 O12 1_555 1_555
Zr12 O11 1_555 1_555
C25 C28 1_555 1_555
C29 C30 1_555 1_555
C31 C32 1_555 1_555
C36 C39 1_555 1_555
C40 C41 1_555 1_555
C42 C43 1_555 1_555
C42 C44 1_555 1_555
Zr10 O1_2 1_555 1_555
O1_2 C1_2 1_555 1_555
O3_2 C1_2 1_555 1_555
C1_2 C2_2 1_555 1_555
C2_2 C4_2 1_555 1_555
C3_2 C5_2 1_555 1_555
C4_2 H1_2 1_555 1_555
C5_2 C4_2 1_555 1_555
H2_2 C5_2 1_555 1_555
C6_2 C3_2 1_555 1_555
C7_2 C2_2 1_555 1_555
H3_2 C7_2 1_555 1_555
C8_2 C3_2 1_555 1_555
H4_2 C8_2 1_555 1_555
C9_2 C6_2 1_555 1_555
C10_2 C9_2 1_555 1_555
H5_2 C10_2 1_555 1_555
C11_2 C9_2 1_555 1_555
H6_2 C11_2 1_555 1_555
H7_2 C11_2 1_555 1_555
O7_2 C12_2 1_555 1_555
O8_2 C12_2 1_555 1_555
C12_2 C13_2 1_555 1_555
C13_2 C15_2 1_555 1_555
C14_2 C16_2 1_555 1_555
C15_2 H8_2 1_555 1_555
C16_2 C15_2 1_555 1_555
H9_2 C16_2 1_555 1_555
C17_2 C14_2 1_555 1_555
C18_2 C13_2 1_555 1_555
H10_2 C18_2 1_555 1_555
C19_2 C14_2 1_555 1_555
H11_2 C19_2 1_555 1_555
C20_2 C17_2 1_555 1_555
C21_2 C20_2 1_555 1_555
H12_2 C21_2 1_555 1_555
C22_2 C11_2 1_555 1_555
H13_2 C22_2 1_555 1_555
H14_2 C22_2 1_555 1_555
Zr6 O3_2 1_555 1_555
Zr8_4 O8_2 1_555 1_555
Zr12_4 O7_2 1_555 1_555
O17_2 Zr10 1_555 1_555
O18_2 Zr10 1_555 1_555
O19_2 Zr10 1_555 1_555
O20_2 Zr10 1_555 1_555
C7_2 C8_2 1_555 1_555
C18_2 C19_2 1_555 1_555
C20_2 C22_2 1_555 1_555
Zr6 O20_2 1_555 1_555
Zr5 O20_2 1_555 1_555
O18_2 C23_2 1_555 1_555
O23 C23_2 1_555 1_555
C23_2 C24_2 1_555 1_555
C24_2 C26_2 1_555 1_555
C25_2 C27_2 1_555 1_555
C26_2 H15_2 1_555 1_555
C27_2 C26_2 1_555 1_555
H16_2 C27_2 1_555 1_555
C29_2 C24_2 1_555 1_555
H17_2 C29_2 1_555 1_555
C30_2 C25_2 1_555 1_555
H18_2 C30_2 1_555 1_555
C31_2 C28_2 1_555 1_555
H19_2 C32_2 1_555 1_555
C33_2 C31_2 1_555 1_555
H20_2 C33_2 1_555 1_555
H21_2 C33_2 1_555 1_555
O11_2 C34_2 1_555 1_555
O12_2 C34_2 1_555 1_555
C34_2 C35_2 1_555 1_555
C35_2 C37_2 1_555 1_555
C36_2 C38_2 1_555 1_555
C37_2 H22_2 1_555 1_555
C38_2 C37_2 1_555 1_555
H23_2 C38_2 1_555 1_555
C40_2 C35_2 1_555 1_555
H24_2 C40_2 1_555 1_555
C41_2 C36_2 1_555 1_555
H25_2 C41_2 1_555 1_555
C42_2 C39_2 1_555 1_555
H26_2 C43_2 1_555 1_555
C44_2 C33_2 1_555 1_555
H27_2 C44_2 1_555 1_555
H28_2 C44_2 1_555 1_555
Zr7_4 O12_2 1_555 1_555
Zr12_4 O11_2 1_555 1_555
C25_2 C28_2 1_555 1_555
C29_2 C30_2 1_555 1_555
C31_2 C32_2 1_555 1_555
C36_2 C39_2 1_555 1_555
C40_2 C41_2 1_555 1_555
C42_2 C43_2 1_555 1_555
C42_2 C44_2 1_555 1_555
O19 C23_3 1_555 1_555
O10 C23_3 1_555 1_555
C23_3 C24_3 1_555 1_555
C24_3 C26_3 1_555 1_555
C25_3 C27_3 1_555 1_555
C26_3 H15_3 1_555 1_555
C27_3 C26_3 1_555 1_555
H16_3 C27_3 1_555 1_555
C29_3 C24_3 1_555 1_555
H17_3 C29_3 1_555 1_555
C30_3 C25_3 1_555 1_555
H18_3 C30_3 1_555 1_555
C31_3 C28_3 1_555 1_555
H19_3 C32_3 1_555 1_555
C33_3 C31_3 1_555 1_555
H20_3 C33_3 1_555 1_555
H21_3 C33_3 1_555 1_555
O11_3 C34_3 1_555 1_555
O12_3 C34_3 1_555 1_555
C34_3 C35_3 1_555 1_555
C35_3 C37_3 1_555 1_555
C36_3 C38_3 1_555 1_555
C37_3 H22_3 1_555 1_555
C38_3 C37_3 1_555 1_555
H23_3 C38_3 1_555 1_555
C40_3 C35_3 1_555 1_555
H24_3 C40_3 1_555 1_555
C41_3 C36_3 1_555 1_555
H25_3 C41_3 1_555 1_555
C42_3 C39_3 1_555 1_555
H26_3 C43_3 1_555 1_555
C44_3 C33_3 1_555 1_555
H27_3 C44_3 1_555 1_555
H28_3 C44_3 1_555 1_555
Zr6 O10 1_555 1_555
Zr8_3 O12_3 1_555 1_555
Zr12_2 O11_3 1_555 1_555
C25_3 C28_3 1_555 1_555
C29_3 C30_3 1_555 1_555
C31_3 C32_3 1_555 1_555
C36_3 C39_3 1_555 1_555
C40_3 C41_3 1_555 1_555
C42_3 C43_3 1_555 1_555
C42_3 C44_3 1_555 1_555
O17 C1_3 1_555 1_555
O21 C1_3 1_555 1_555
O4_2 Zr5 1_555 1_555
O5_2 Zr5 1_555 1_555
C1_3 C2_3 1_555 1_555
C2_3 C4_3 1_555 1_555
C3_3 C5_3 1_555 1_555
C4_3 H1_3 1_555 1_555
C5_3 C4_3 1_555 1_555
H2_3 C5_3 1_555 1_555
C6_3 C3_3 1_555 1_555
C7_3 C2_3 1_555 1_555
H3_3 C7_3 1_555 1_555
C8_3 C3_3 1_555 1_555
H4_3 C8_3 1_555 1_555
C9_3 C6_3 1_555 1_555
C10_3 C9_3 1_555 1_555
H5_3 C10_3 1_555 1_555
C11_3 C9_3 1_555 1_555
H6_3 C11_3 1_555 1_555
H7_3 C11_3 1_555 1_555
O7_3 C12_3 1_555 1_555
O8_3 C12_3 1_555 1_555
C12_3 C13_3 1_555 1_555
C13_3 C15_3 1_555 1_555
C14_3 C16_3 1_555 1_555
C15_3 H8_3 1_555 1_555
C16_3 C15_3 1_555 1_555
H9_3 C16_3 1_555 1_555
C17_3 C14_3 1_555 1_555
C18_3 C13_3 1_555 1_555
H10_3 C18_3 1_555 1_555
C19_3 C14_3 1_555 1_555
H11_3 C19_3 1_555 1_555
C20_3 C17_3 1_555 1_555
C21_3 C20_3 1_555 1_555
H12_3 C21_3 1_555 1_555
C22_3 C11_3 1_555 1_555
H13_3 C22_3 1_555 1_555
H14_3 C22_3 1_555 1_555
O14_2 Zr6 1_555 1_555
O15_2 Zr6 1_555 1_555
Zr7_3 O8_3 1_555 1_555
Zr12_2 O7_3 1_555 1_555
O23_2 Zr5 1_555 1_555
C7_3 C8_3 1_555 1_555
C18_3 C19_3 1_555 1_555
C20_3 C22_3 1_555 1_555
O19_2 C23_4 1_555 1_555
O23_2 C23_4 1_555 1_555
C23_4 C24_4 1_555 1_555
C24_4 C26_4 1_555 1_555
C25_4 C27_4 1_555 1_555
C26_4 H15_4 1_555 1_555
C27_4 C26_4 1_555 1_555
H16_4 C27_4 1_555 1_555
C29_4 C24_4 1_555 1_555
H17_4 C29_4 1_555 1_555
C30_4 C25_4 1_555 1_555
H18_4 C30_4 1_555 1_555
C31_4 C28_4 1_555 1_555
H19_4 C32_4 1_555 1_555
C33_4 C31_4 1_555 1_555
H20_4 C33_4 1_555 1_555
H21_4 C33_4 1_555 1_555
O11_4 C34_4 1_555 1_555
O12_4 C34_4 1_555 1_555
C34_4 C35_4 1_555 1_555
C35_4 C37_4 1_555 1_555
C36_4 C38_4 1_555 1_555
C37_4 H22_4 1_555 1_555
C38_4 C37_4 1_555 1_555
H23_4 C38_4 1_555 1_555
C40_4 C35_4 1_555 1_555
H24_4 C40_4 1_555 1_555
C41_4 C36_4 1_555 1_555
H25_4 C41_4 1_555 1_555
C42_4 C39_4 1_555 1_555
H26_4 C43_4 1_555 1_555
C44_4 C33_4 1_555 1_555
H27_4 C44_4 1_555 1_555
H28_4 C44_4 1_555 1_555
Zr8_2 O12_4 1_555 1_555
Zr12_3 O11_4 1_555 1_555
C25_4 C28_4 1_555 1_555
C29_4 C30_4 1_555 1_555
C31_4 C32_4 1_555 1_555
C36_4 C39_4 1_555 1_555
C40_4 C41_4 1_555 1_555
C42_4 C43_4 1_555 1_555
C42_4 C44_4 1_555 1_555
O17_2 C1_4 1_555 1_555
O22 C1_4 1_555 1_555
C1_4 C2_4 1_555 1_555
C2_4 C4_4 1_555 1_555
C3_4 C5_4 1_555 1_555
C4_4 H1_4 1_555 1_555
C5_4 C4_4 1_555 1_555
H2_4 C5_4 1_555 1_555
C6_4 C3_4 1_555 1_555
C7_4 C2_4 1_555 1_555
H3_4 C7_4 1_555 1_555
C8_4 C3_4 1_555 1_555
H4_4 C8_4 1_555 1_555
C9_4 C6_4 1_555 1_555
C10_4 C9_4 1_555 1_555
H5_4 C10_4 1_555 1_555
C11_4 C9_4 1_555 1_555
H6_4 C11_4 1_555 1_555
H7_4 C11_4 1_555 1_555
O7_4 C12_4 1_555 1_555
O8_4 C12_4 1_555 1_555
C12_4 C13_4 1_555 1_555
C13_4 C15_4 1_555 1_555
C14_4 C16_4 1_555 1_555
C15_4 H8_4 1_555 1_555
C16_4 C15_4 1_555 1_555
H9_4 C16_4 1_555 1_555
C17_4 C14_4 1_555 1_555
C18_4 C13_4 1_555 1_555
H10_4 C18_4 1_555 1_555
C19_4 C14_4 1_555 1_555
H11_4 C19_4 1_555 1_555
C20_4 C17_4 1_555 1_555
C21_4 C20_4 1_555 1_555
H12_4 C21_4 1_555 1_555
C22_4 C11_4 1_555 1_555
H13_4 C22_4 1_555 1_555
H14_4 C22_4 1_555 1_555
Zr7_2 O8_4 1_555 1_555
Zr12_3 O7_4 1_555 1_555
C7_4 C8_4 1_555 1_555
C18_4 C19_4 1_555 1_555
C20_4 C22_4 1_555 1_555
O4_3 Zr7 1_555 1_555
O5_3 Zr7 1_555 1_555
O13_2 Zr7 1_555 1_555
Zr12 O13_2 1_555 1_555
O26_2 Zr7 1_555 1_555
Zr8 O26_2 1_555 1_555
Zr12 O26_2 1_555 1_555
Zr7_2 O2_2 1_555 1_555
O2_2 Zr12_3 1_555 1_555
O4_4 Zr7_2 1_555 1_555
O5_4 Zr7_2 1_555 1_555
O6_2 Zr7_2 1_555 1_555
Zr8_2 O6_2 1_555 1_555
O20_3 Zr12_3 1_555 1_555
Zr12_3 O6_2 1_555 1_555
Zr8_2 O20_3 1_555 1_555
O14_3 Zr7_3 1_555 1_555
O15_3 Zr7_3 1_555 1_555
O16_2 Zr7_3 1_555 1_555
Zr12_2 O13_3 1_555 1_555
Zr7_3 O13_3 1_555 1_555
O16_2 Zr8_3 1_555 1_555
O16_2 Zr12_2 1_555 1_555
O2_3 Zr12_4 1_555 1_555
Zr7_4 O2_3 1_555 1_555
O14_4 Zr7_4 1_555 1_555
O15_4 Zr7_4 1_555 1_555
O20_4 Zr12_4 1_555 1_555
O25_2 Zr12_4 1_555 1_555
Zr7_4 O25_2 1_555 1_555
Zr8_4 O20_4 1_555 1_555
Zr8_4 O25_2 1_555 1_555
O20_5 Zr12 1_555 1_555
Zr8 O20_5 1_555 1_555
O20_6 Zr12_2 1_555 1_555
Zr8_3 O20_6 1_555 1_555
O14_5 Zr8 1_555 1_555
O15_5 Zr8 1_555 1_555
O14_6 Zr8_2 1_555 1_555
O15_6 Zr8_2 1_555 1_555
O4_5 Zr8_3 1_555 1_555
O5_5 Zr8_3 1_555 1_555
O4_6 Zr8_4 1_555 1_555
O5_6 Zr8_4 1_555 1_555

#END
