
###############################################################################
#
# This file contains modified crystal structure data generated from the
# MOF subset of the Cambridge Structural Database (CSD) v543 
# hosted by the Cambridge Crystallographic Data Centre (CCDC).
#
# This work is licensed under the Creative Commons
# Attribution-NonCommercial-ShareAlike 4.0 International License.
# To view a copy of this license, visit
# http://creativecommons.org/licenses/by-nc-sa/4.0/
# or send a letter to
# Creative Commons, PO Box 1866, Mountain View, CA 94042, USA.
#
# CIF created using the CSD Python API on 29 September 2022
# The structure has been converted into the P1 space group
# The structure has a 3D framework
# The original CSD entry QANWUB is in the orthorhombic crystal system
# The framework has been calculated to contain at least 10.0% void space
# The void calculation uses a probe of radius 1.32A, grid spacing 0.4
# H atom positions have been added when not included in the experimental data
# Generated hydrogen atom positions removed from atoms on special positions
#
###############################################################################

data_QANWUB
_chemical_formula_moiety         '(C352 H480 O160 Zr42)n'
_symmetry_cell_setting           triclinic
_symmetry_space_group_name_H-M   'P 1'
_symmetry_Int_Tables_number      1
_space_group_name_Hall           'P 1'
loop_
_symmetry_equiv_pos_site_id
_symmetry_equiv_pos_as_xyz
1 x,y,z
_cell_length_a                   19.7633(2)
_cell_length_b                   26.0683(2)
_cell_length_c                   35.3983(3)
_cell_angle_alpha                90
_cell_angle_beta                 90
_cell_angle_gamma                90
_cell_volume                     18237
loop_
_atom_site_label
_atom_site_type_symbol
_atom_site_fract_x
_atom_site_fract_y
_atom_site_fract_z
Zr6 Zr -0.0000 -0.0000 0.56856(2)
Zr5 Zr -0.0000 0.5000 0.93144(2)
Zr6_2 Zr -0.0000 1.0000 0.56856(2)
Zr4 Zr 0.5000 -0.0000 0.93144(2)
Zr6_3 Zr 1.0000 -0.0000 0.56856(2)
Zr9 Zr 0.58986(2) 0.93183(2) -0.0000
Zr10 Zr 0.91014(2) 0.56817(2) -0.0000
Zr1 Zr 0.5000 0.5000 0.56856(2)
Zr2 Zr 0.41014(2) 0.43183(2) 0.5000
O1 O 0.56668(9) 0.55014(6) 0.60024(4)
O2 O 0.62365(11) 0.59792(7) 0.55813(4)
O3 O 0.40995(19) 0.5000 0.53343(8)
O4 O 0.41740(18) 0.34779(9) 0.5000
O5 O 0.30040(14) 0.43460(12) 0.5000
O6 O 0.5000 0.43175(14) 0.53363(9)
C1 C 0.62465(14) 0.62125(9) 0.62334(6)
C2 C 0.60364(13) 0.58742(9) 0.59109(6)
C3 C 0.67956(12) 0.69628(8) 0.75425(6)
C4 C 0.67213(11) 0.72866(9) 0.78527(6)
H1 H 0.6695 0.7140 0.8098
C5 C 0.66838(11) 0.71775(9) 0.71832(6)
C6 C 0.71406(13) 0.64496(8) 0.75923(6)
H2 H 0.6861 0.6178 0.7475
H3 H 0.7182 0.6372 0.7865
C7 C 0.65594(12) 0.68418(9) 0.68509(6)
C8 C 0.59715(13) 0.61114(10) 0.65907(7)
H4 H 0.5677 0.5827 0.6624
C9 C 0.68241(14) 0.69402(10) 0.64910(6)
H5 H 0.7116 0.7226 0.6455
C10 C 0.66667(14) 0.66261(10) 0.61855(6)
H6 H 0.6851 0.6698 0.5943
C11 C 0.61263(13) 0.64230(10) 0.68941(6)
H7 H 0.5936 0.6351 0.7135
O7 O 0.56668(9) 0.94986(6) 0.89976(4)
O8 O 0.62365(11) 0.90208(7) 0.94187(4)
C12 C 0.62465(14) 0.87875(9) 0.87666(6)
C13 C 0.60364(13) 0.91258(9) 0.90891(6)
C14 C 0.67956(12) 0.80372(8) 0.74575(6)
C15 C 0.67213(11) 0.77134(9) 0.71473(6)
H8 H 0.6695 0.7860 0.6902
C16 C 0.66838(11) 0.78225(9) 0.78168(6)
C17 C 0.71406(13) 0.85504(8) 0.74077(6)
H9 H 0.6861 0.8822 0.7525
H10 H 0.7182 0.8628 0.7135
C18 C 0.65594(12) 0.81582(9) 0.81491(6)
C19 C 0.59715(13) 0.88886(10) 0.84093(7)
H11 H 0.5677 0.9173 0.8376
C20 C 0.68241(14) 0.80598(10) 0.85090(6)
H12 H 0.7116 0.7774 0.8545
C21 C 0.66667(14) 0.83739(10) 0.88145(6)
H13 H 0.6851 0.8302 0.9057
C22 C 0.61263(13) 0.85770(10) 0.81059(6)
H14 H 0.5936 0.8649 0.7865
O9 O 0.93332(9) 0.55014(6) 0.89976(4)
O10 O 0.87635(11) 0.59792(7) 0.94187(4)
C23 C 0.87535(14) 0.62125(9) 0.87666(6)
C24 C 0.89636(13) 0.58742(9) 0.90891(6)
C25 C 0.82044(12) 0.69628(8) 0.74575(6)
C26 C 0.82787(11) 0.72866(9) 0.71473(6)
H15 H 0.8305 0.7140 0.6902
C27 C 0.83162(11) 0.71775(9) 0.78168(6)
C28 C 0.78594(13) 0.64496(8) 0.74077(6)
H16 H 0.8139 0.6178 0.7525
H17 H 0.7818 0.6372 0.7135
C29 C 0.84406(12) 0.68418(9) 0.81491(6)
C30 C 0.90285(13) 0.61114(10) 0.84093(7)
H18 H 0.9323 0.5827 0.8376
C31 C 0.81759(14) 0.69402(10) 0.85090(6)
H19 H 0.7884 0.7226 0.8545
C32 C 0.83333(14) 0.66261(10) 0.88145(6)
H20 H 0.8149 0.6698 0.9057
C33 C 0.88737(13) 0.64230(10) 0.81059(6)
H21 H 0.9064 0.6351 0.7865
O11 O 0.93332(9) 0.94986(6) 0.60024(4)
O12 O 0.87635(11) 0.90208(7) 0.55813(4)
C34 C 0.87535(14) 0.87875(9) 0.62334(6)
C35 C 0.89636(13) 0.91258(9) 0.59109(6)
C36 C 0.82044(12) 0.80372(8) 0.75425(6)
C37 C 0.82787(11) 0.77134(9) 0.78527(6)
H22 H 0.8305 0.7860 0.8098
C38 C 0.83162(11) 0.78225(9) 0.71832(6)
C39 C 0.78594(13) 0.85504(8) 0.75923(6)
H23 H 0.8139 0.8822 0.7475
H24 H 0.7818 0.8628 0.7865
C40 C 0.84406(12) 0.81582(9) 0.68509(6)
C41 C 0.90285(13) 0.88886(10) 0.65907(7)
H25 H 0.9323 0.9173 0.6624
C42 C 0.81759(14) 0.80598(10) 0.64910(6)
H26 H 0.7884 0.7774 0.6455
C43 C 0.83333(14) 0.83739(10) 0.61855(6)
H27 H 0.8149 0.8302 0.5943
C44 C 0.88737(13) 0.85770(10) 0.68941(6)
H28 H 0.9064 0.8649 0.7135
Zr3 Zr 0.58986(2) 0.56817(2) 0.5000
O13 O 0.59005(19) 0.5000 0.53343(8)
O14 O 0.58260(18) 0.65221(9) 0.5000
O15 O 0.69960(14) 0.56540(12) 0.5000
O16 O 0.5000 0.56825(14) 0.53363(9)
Zr4_2 Zr 0.5000 1.0000 0.93144(2)
Zr5_2 Zr 1.0000 0.5000 0.93144(2)
Zr6_4 Zr 1.0000 1.0000 0.56856(2)
Zr7 Zr 0.58986(2) 0.43183(2) 0.5000
Zr8 Zr 0.41014(2) 0.56817(2) 0.5000
Zr9_2 Zr 0.58986(2) 0.93183(2) 1.0000
Zr10_2 Zr 0.91014(2) 0.56817(2) 1.0000
Zr11 Zr 0.91014(2) 0.93183(2) 0.5000
O17 O 0.43332(9) 0.44986(6) 0.60024(4)
O18 O 0.56668(9) 0.44986(6) 0.60024(4)
O19 O 0.43332(9) 0.55014(6) 0.60024(4)
O20 O 0.37635(11) 0.40208(7) 0.55813(4)
O21 O 0.37635(11) 0.40208(7) 0.44187(4)
O22 O 0.62365(11) 0.59792(7) 0.44187(4)
O23 O 0.59005(19) 0.5000 0.46657(8)
O24 O 0.40995(19) 0.5000 0.46657(8)
O25 O 0.5000 0.43175(14) 0.46637(9)
O26 O 0.5000 0.56825(14) 0.46637(9)
Zr9_3 Zr 0.41014(2) 0.06817(2) -0.0000
Zr10_3 Zr 0.08986(2) 0.43183(2) -0.0000
C1_2 C 0.37535(14) 0.37875(9) 0.62334(6)
C2_2 C 0.39636(13) 0.41258(9) 0.59109(6)
C3_2 C 0.32044(12) 0.30372(8) 0.75425(6)
C4_2 C 0.32787(11) 0.27134(9) 0.78527(6)
H1_2 H 0.3305 0.2860 0.8098
C5_2 C 0.33162(11) 0.28225(9) 0.71832(6)
C6_2 C 0.28594(13) 0.35504(8) 0.75923(6)
H2_2 H 0.3139 0.3822 0.7475
H3_2 H 0.2818 0.3628 0.7865
C7_2 C 0.34406(12) 0.31582(9) 0.68509(6)
C8_2 C 0.40285(13) 0.38886(10) 0.65907(7)
H4_2 H 0.4323 0.4173 0.6624
C9_2 C 0.31759(14) 0.30598(10) 0.64910(6)
H5_2 H 0.2884 0.2774 0.6455
C10_2 C 0.33333(14) 0.33739(10) 0.61855(6)
H6_2 H 0.3149 0.3302 0.5943
C11_2 C 0.38737(13) 0.35770(10) 0.68941(6)
H7_2 H 0.4064 0.3649 0.7135
O7_2 O 0.43332(9) 0.05014(6) 0.89976(4)
O8_2 O 0.37635(11) 0.09792(7) 0.94187(4)
C12_2 C 0.37535(14) 0.12125(9) 0.87666(6)
C13_2 C 0.39636(13) 0.08742(9) 0.90891(6)
C14_2 C 0.32044(12) 0.19628(8) 0.74575(6)
C15_2 C 0.32787(11) 0.22866(9) 0.71473(6)
H8_2 H 0.3305 0.2140 0.6902
C16_2 C 0.33162(11) 0.21775(9) 0.78168(6)
C17_2 C 0.28594(13) 0.14496(8) 0.74077(6)
H9_2 H 0.3139 0.1178 0.7525
H10_2 H 0.2818 0.1372 0.7135
C18_2 C 0.34406(12) 0.18418(9) 0.81491(6)
C19_2 C 0.40285(13) 0.11114(10) 0.84093(7)
H11_2 H 0.4323 0.0827 0.8376
C20_2 C 0.31759(14) 0.19402(10) 0.85090(6)
H12_2 H 0.2884 0.2226 0.8545
C21_2 C 0.33333(14) 0.16261(10) 0.88145(6)
H13_2 H 0.3149 0.1698 0.9057
C22_2 C 0.38737(13) 0.14230(10) 0.81059(6)
H14_2 H 0.4064 0.1351 0.7865
O9_2 O 0.06668(9) 0.44986(6) 0.89976(4)
O10_2 O 0.12365(11) 0.40208(7) 0.94187(4)
C23_2 C 0.12465(14) 0.37875(9) 0.87666(6)
C24_2 C 0.10364(13) 0.41258(9) 0.90891(6)
C25_2 C 0.17956(12) 0.30372(8) 0.74575(6)
C26_2 C 0.17213(11) 0.27134(9) 0.71473(6)
H15_2 H 0.1695 0.2860 0.6902
C27_2 C 0.16838(11) 0.28225(9) 0.78168(6)
C28_2 C 0.21406(13) 0.35504(8) 0.74077(6)
H16_2 H 0.1861 0.3822 0.7525
H17_2 H 0.2182 0.3628 0.7135
C29_2 C 0.15594(12) 0.31582(9) 0.81491(6)
C30_2 C 0.09715(13) 0.38886(10) 0.84093(7)
H18_2 H 0.0677 0.4173 0.8376
C31_2 C 0.18241(14) 0.30598(10) 0.85090(6)
H19_2 H 0.2116 0.2774 0.8545
C32_2 C 0.16667(14) 0.33739(10) 0.88145(6)
H20_2 H 0.1851 0.3302 0.9057
C33_2 C 0.11263(13) 0.35770(10) 0.81059(6)
H21_2 H 0.0936 0.3649 0.7865
O11_2 O 0.06668(9) 0.05014(6) 0.60024(4)
O12_2 O 0.12365(11) 0.09792(7) 0.55813(4)
C34_2 C 0.12465(14) 0.12125(9) 0.62334(6)
C35_2 C 0.10364(13) 0.08742(9) 0.59109(6)
C36_2 C 0.17956(12) 0.19628(8) 0.75425(6)
C37_2 C 0.17213(11) 0.22866(9) 0.78527(6)
H22_2 H 0.1695 0.2140 0.8098
C38_2 C 0.16838(11) 0.21775(9) 0.71832(6)
C39_2 C 0.21406(13) 0.14496(8) 0.75923(6)
H23_2 H 0.1861 0.1178 0.7475
H24_2 H 0.2182 0.1372 0.7865
C40_2 C 0.15594(12) 0.18418(9) 0.68509(6)
C41_2 C 0.09715(13) 0.11114(10) 0.65907(7)
H25_2 H 0.0677 0.0827 0.6624
C42_2 C 0.18241(14) 0.19402(10) 0.64910(6)
H26_2 H 0.2116 0.2226 0.6455
C43_2 C 0.16667(14) 0.16261(10) 0.61855(6)
H27_2 H 0.1851 0.1698 0.5943
C44_2 C 0.11263(13) 0.14230(10) 0.68941(6)
H28_2 H 0.0936 0.1351 0.7135
Zr9_4 Zr 0.41014(2) 0.06817(2) 1.0000
Zr10_4 Zr 0.08986(2) 0.43183(2) 1.0000
Zr11_2 Zr 0.08986(2) 0.06817(2) 0.5000
Zr4_3 Zr 0.5000 -0.0000 0.06856(2)
Zr6_5 Zr 0.0000 -0.0000 0.43144(2)
Zr1_2 Zr 0.5000 0.5000 0.43144(2)
O1_2 O 0.43332(9) 0.55014(6) 0.39976(4)
O2_2 O 0.37635(11) 0.59792(7) 0.44187(4)
O4_2 O 0.58260(18) 0.34779(9) 0.5000
O5_2 O 0.69960(14) 0.43460(12) 0.5000
C1_3 C 0.37535(14) 0.62125(9) 0.37666(6)
C2_3 C 0.39636(13) 0.58742(9) 0.40891(6)
C3_3 C 0.32044(12) 0.69628(8) 0.24575(6)
C4_3 C 0.32787(11) 0.72866(9) 0.21473(6)
H1_3 H 0.3305 0.7140 0.1902
C5_3 C 0.33162(11) 0.71775(9) 0.28168(6)
C6_3 C 0.28594(13) 0.64496(8) 0.24077(6)
H2_3 H 0.3139 0.6178 0.2525
H3_3 H 0.2818 0.6372 0.2135
C7_3 C 0.34406(12) 0.68418(9) 0.31491(6)
C8_3 C 0.40285(13) 0.61114(10) 0.34093(7)
H4_3 H 0.4323 0.5827 0.3376
C9_3 C 0.31759(14) 0.69402(10) 0.35090(6)
H5_3 H 0.2884 0.7226 0.3545
C10_3 C 0.33333(14) 0.66261(10) 0.38145(6)
H6_3 H 0.3149 0.6698 0.4057
C11_3 C 0.38737(13) 0.64230(10) 0.31059(6)
H7_3 H 0.4064 0.6351 0.2865
O7_3 O 0.43332(9) 0.94986(6) 0.10024(4)
O8_3 O 0.37635(11) 0.90208(7) 0.05813(4)
C12_3 C 0.37535(14) 0.87875(9) 0.12334(6)
C13_3 C 0.39636(13) 0.91258(9) 0.09109(6)
C14_3 C 0.32044(12) 0.80372(8) 0.25425(6)
C15_3 C 0.32787(11) 0.77134(9) 0.28527(6)
H8_3 H 0.3305 0.7860 0.3098
C16_3 C 0.33162(11) 0.78225(9) 0.21832(6)
C17_3 C 0.28594(13) 0.85504(8) 0.25923(6)
H9_3 H 0.3139 0.8822 0.2475
H10_3 H 0.2818 0.8628 0.2865
C18_3 C 0.34406(12) 0.81582(9) 0.18509(6)
C19_3 C 0.40285(13) 0.88886(10) 0.15907(7)
H11_3 H 0.4323 0.9173 0.1624
C20_3 C 0.31759(14) 0.80598(10) 0.14910(6)
H12_3 H 0.2884 0.7774 0.1455
C21_3 C 0.33333(14) 0.83739(10) 0.11855(6)
H13_3 H 0.3149 0.8302 0.0943
C22_3 C 0.38737(13) 0.85770(10) 0.18941(6)
H14_3 H 0.4064 0.8649 0.2135
O9_3 O 0.06668(9) 0.55014(6) 0.10024(4)
O10_3 O 0.12365(11) 0.59792(7) 0.05813(4)
C23_3 C 0.12465(14) 0.62125(9) 0.12334(6)
C24_3 C 0.10364(13) 0.58742(9) 0.09109(6)
C25_3 C 0.17956(12) 0.69628(8) 0.25425(6)
C26_3 C 0.17213(11) 0.72866(9) 0.28527(6)
H15_3 H 0.1695 0.7140 0.3098
C27_3 C 0.16838(11) 0.71775(9) 0.21832(6)
C28_3 C 0.21406(13) 0.64496(8) 0.25923(6)
H16_3 H 0.1861 0.6178 0.2475
H17_3 H 0.2182 0.6372 0.2865
C29_3 C 0.15594(12) 0.68418(9) 0.18509(6)
C30_3 C 0.09715(13) 0.61114(10) 0.15907(7)
H18_3 H 0.0677 0.5827 0.1624
C31_3 C 0.18241(14) 0.69402(10) 0.14910(6)
H19_3 H 0.2116 0.7226 0.1455
C32_3 C 0.16667(14) 0.66261(10) 0.11855(6)
H20_3 H 0.1851 0.6698 0.0943
C33_3 C 0.11263(13) 0.64230(10) 0.18941(6)
H21_3 H 0.0936 0.6351 0.2135
O11_3 O 0.06668(9) 0.94986(6) 0.39976(4)
O12_3 O 0.12365(11) 0.90208(7) 0.44187(4)
C34_3 C 0.12465(14) 0.87875(9) 0.37666(6)
C35_3 C 0.10364(13) 0.91258(9) 0.40891(6)
C36_3 C 0.17956(12) 0.80372(8) 0.24575(6)
C37_3 C 0.17213(11) 0.77134(9) 0.21473(6)
H22_3 H 0.1695 0.7860 0.1902
C38_3 C 0.16838(11) 0.78225(9) 0.28168(6)
C39_3 C 0.21406(13) 0.85504(8) 0.24077(6)
H23_3 H 0.1861 0.8822 0.2525
H24_3 H 0.2182 0.8628 0.2135
C40_3 C 0.15594(12) 0.81582(9) 0.31491(6)
C41_3 C 0.09715(13) 0.88886(10) 0.34093(7)
H25_3 H 0.0677 0.9173 0.3376
C42_3 C 0.18241(14) 0.80598(10) 0.35090(6)
H26_3 H 0.2116 0.7774 0.3545
C43_3 C 0.16667(14) 0.83739(10) 0.38145(6)
H27_3 H 0.1851 0.8302 0.4057
C44_3 C 0.11263(13) 0.85770(10) 0.31059(6)
H28_3 H 0.0936 0.8649 0.2865
O14_2 O 0.41740(18) 0.65221(9) 0.5000
O15_2 O 0.30040(14) 0.56540(12) 0.5000
Zr4_4 Zr 0.5000 1.0000 0.06856(2)
Zr5_3 Zr 0.0000 0.5000 0.06856(2)
Zr6_6 Zr 0.0000 1.0000 0.43144(2)
Zr9_5 Zr 0.41014(2) 0.93183(2) 0.0000
Zr10_5 Zr 0.08986(2) 0.56817(2) 0.0000
Zr11_3 Zr 0.08986(2) 0.93183(2) 0.5000
O17_2 O 0.56668(9) 0.44986(6) 0.39976(4)
O18_2 O 0.43332(9) 0.44986(6) 0.39976(4)
O19_2 O 0.56668(9) 0.55014(6) 0.39976(4)
O20_2 O 0.62365(11) 0.40208(7) 0.44187(4)
O21_2 O 0.62365(11) 0.40208(7) 0.55813(4)
O22_2 O 0.37635(11) 0.59792(7) 0.55813(4)
Zr9_6 Zr 0.41014(2) 0.93183(2) 1.0000
Zr10_6 Zr 0.08986(2) 0.56817(2) 1.0000
Zr6_7 Zr 1.0000 -0.0000 0.43144(2)
Zr5_4 Zr 1.0000 0.5000 0.06856(2)
Zr6_8 Zr 1.0000 1.0000 0.43144(2)
C1_4 C 0.62465(14) 0.37875(9) 0.37666(6)
C2_4 C 0.60364(13) 0.41258(9) 0.40891(6)
C3_4 C 0.67956(12) 0.30372(8) 0.24575(6)
C4_4 C 0.67213(11) 0.27134(9) 0.21473(6)
H1_4 H 0.6695 0.2860 0.1902
C5_4 C 0.66838(11) 0.28225(9) 0.28168(6)
C6_4 C 0.71406(13) 0.35504(8) 0.24077(6)
H2_4 H 0.6861 0.3822 0.2525
H3_4 H 0.7182 0.3628 0.2135
C7_4 C 0.65594(12) 0.31582(9) 0.31491(6)
C8_4 C 0.59715(13) 0.38886(10) 0.34093(7)
H4_4 H 0.5677 0.4173 0.3376
C9_4 C 0.68241(14) 0.30598(10) 0.35090(6)
H5_4 H 0.7116 0.2774 0.3545
C10_4 C 0.66667(14) 0.33739(10) 0.38145(6)
H6_4 H 0.6851 0.3302 0.4057
C11_4 C 0.61263(13) 0.35770(10) 0.31059(6)
H7_4 H 0.5936 0.3649 0.2865
O7_4 O 0.56668(9) 0.05014(6) 0.10024(4)
O8_4 O 0.62365(11) 0.09792(7) 0.05813(4)
C12_4 C 0.62465(14) 0.12125(9) 0.12334(6)
C13_4 C 0.60364(13) 0.08742(9) 0.09109(6)
C14_4 C 0.67956(12) 0.19628(8) 0.25425(6)
C15_4 C 0.67213(11) 0.22866(9) 0.28527(6)
H8_4 H 0.6695 0.2140 0.3098
C16_4 C 0.66838(11) 0.21775(9) 0.21832(6)
C17_4 C 0.71406(13) 0.14496(8) 0.25923(6)
H9_4 H 0.6861 0.1178 0.2475
H10_4 H 0.7182 0.1372 0.2865
C18_4 C 0.65594(12) 0.18418(9) 0.18509(6)
C19_4 C 0.59715(13) 0.11114(10) 0.15907(7)
H11_4 H 0.5677 0.0827 0.1624
C20_4 C 0.68241(14) 0.19402(10) 0.14910(6)
H12_4 H 0.7116 0.2226 0.1455
C21_4 C 0.66667(14) 0.16261(10) 0.11855(6)
H13_4 H 0.6851 0.1698 0.0943
C22_4 C 0.61263(13) 0.14230(10) 0.18941(6)
H14_4 H 0.5936 0.1351 0.2135
O9_4 O 0.93332(9) 0.44986(6) 0.10024(4)
O10_4 O 0.87635(11) 0.40208(7) 0.05813(4)
C23_4 C 0.87535(14) 0.37875(9) 0.12334(6)
C24_4 C 0.89636(13) 0.41258(9) 0.09109(6)
C25_4 C 0.82044(12) 0.30372(8) 0.25425(6)
C26_4 C 0.82787(11) 0.27134(9) 0.28527(6)
H15_4 H 0.8305 0.2860 0.3098
C27_4 C 0.83162(11) 0.28225(9) 0.21832(6)
C28_4 C 0.78594(13) 0.35504(8) 0.25923(6)
H16_4 H 0.8139 0.3822 0.2475
H17_4 H 0.7818 0.3628 0.2865
C29_4 C 0.84406(12) 0.31582(9) 0.18509(6)
C30_4 C 0.90285(13) 0.38886(10) 0.15907(7)
H18_4 H 0.9323 0.4173 0.1624
C31_4 C 0.81759(14) 0.30598(10) 0.14910(6)
H19_4 H 0.7884 0.2774 0.1455
C32_4 C 0.83333(14) 0.33739(10) 0.11855(6)
H20_4 H 0.8149 0.3302 0.0943
C33_4 C 0.88737(13) 0.35770(10) 0.18941(6)
H21_4 H 0.9064 0.3649 0.2135
O11_4 O 0.93332(9) 0.05014(6) 0.39976(4)
O12_4 O 0.87635(11) 0.09792(7) 0.44187(4)
C34_4 C 0.87535(14) 0.12125(9) 0.37666(6)
C35_4 C 0.89636(13) 0.08742(9) 0.40891(6)
C36_4 C 0.82044(12) 0.19628(8) 0.24575(6)
C37_4 C 0.82787(11) 0.22866(9) 0.21473(6)
H22_4 H 0.8305 0.2140 0.1902
C38_4 C 0.83162(11) 0.21775(9) 0.28168(6)
C39_4 C 0.78594(13) 0.14496(8) 0.24077(6)
H23_4 H 0.8139 0.1178 0.2525
H24_4 H 0.7818 0.1372 0.2135
C40_4 C 0.84406(12) 0.18418(9) 0.31491(6)
C41_4 C 0.90285(13) 0.11114(10) 0.34093(7)
H25_4 H 0.9323 0.0827 0.3376
C42_4 C 0.81759(14) 0.19402(10) 0.35090(6)
H26_4 H 0.7884 0.2226 0.3545
C43_4 C 0.83333(14) 0.16261(10) 0.38145(6)
H27_4 H 0.8149 0.1698 0.4057
C44_4 C 0.88737(13) 0.14230(10) 0.31059(6)
H28_4 H 0.9064 0.1351 0.2865
Zr9_7 Zr 0.58986(2) 0.06817(2) 0.0000
Zr10_7 Zr 0.91014(2) 0.43183(2) 0.0000
Zr11_4 Zr 0.91014(2) 0.06817(2) 0.5000
Zr9_8 Zr 0.58986(2) 0.06817(2) 1.0000
Zr10_8 Zr 0.91014(2) 0.43183(2) 1.0000
O3_2 O 0.40995(19) -0.0000 0.03343(8)
O13_2 O 0.59005(19) -0.0000 0.03343(8)
O14_3 O 0.58260(18) 0.15221(9) -0.0000
O15_3 O 0.69960(14) 0.06540(12) -0.0000
O16_2 O 0.5000 0.06825(14) 0.03363(9)
O19_3 O 0.43332(9) 0.05014(6) 0.10024(4)
O14_4 O 0.58260(18) 0.15221(9) 1.0000
O15_4 O 0.69960(14) 0.06540(12) 1.0000
O22_3 O 0.62365(11) 0.09792(7) 0.94187(4)
O23_2 O 0.59005(19) -0.0000 0.96657(8)
O24_2 O 0.40995(19) -0.0000 0.96657(8)
O26_2 O 0.5000 0.06825(14) 0.96637(9)
O3_3 O 0.40995(19) 1.0000 0.03343(8)
O4_3 O 0.41740(18) 0.84779(9) -0.0000
O5_3 O 0.30040(14) 0.93460(12) -0.0000
O6_2 O 0.5000 0.93175(14) 0.03363(9)
O13_3 O 0.59005(19) 1.0000 0.03343(8)
O18_3 O 0.56668(9) 0.94986(6) 0.10024(4)
O4_4 O 0.41740(18) 0.84779(9) 1.0000
O5_4 O 0.30040(14) 0.93460(12) 1.0000
O21_3 O 0.37635(11) 0.90208(7) 0.94187(4)
O23_3 O 0.59005(19) 1.0000 0.96657(8)
O24_3 O 0.40995(19) 1.0000 0.96657(8)
O25_2 O 0.5000 0.93175(14) 0.96637(9)
O14_5 O 0.41740(18) 0.15221(9) 0.0000
O15_5 O 0.30040(14) 0.06540(12) 0.0000
O22_4 O 0.37635(11) 0.09792(7) 0.05813(4)
O14_6 O 0.41740(18) 0.15221(9) 1.0000
O15_6 O 0.30040(14) 0.06540(12) 1.0000
O19_4 O 0.56668(9) 0.05014(6) 0.89976(4)
O4_5 O 0.58260(18) 0.84779(9) 0.0000
O5_5 O 0.69960(14) 0.93460(12) 0.0000
O21_4 O 0.62365(11) 0.90208(7) 0.05813(4)
O4_6 O 0.58260(18) 0.84779(9) 1.0000
O5_6 O 0.69960(14) 0.93460(12) 1.0000
O18_4 O 0.43332(9) 0.94986(6) 0.89976(4)
O6_3 O -0.0000 0.43175(14) 0.03363(9)
O13_4 O 0.09005(19) 0.5000 0.03343(8)
O14_7 O 0.08260(18) 0.65221(9) -0.0000
O15_7 O 0.19960(14) 0.56540(12) -0.0000
O16_3 O 0.0000 0.56825(14) 0.03363(9)
O18_5 O 0.06668(9) 0.44986(6) 0.10024(4)
O14_8 O 0.08260(18) 0.65221(9) 1.0000
O15_8 O 0.19960(14) 0.56540(12) 1.0000
O22_5 O 0.12365(11) 0.59792(7) 0.94187(4)
O23_4 O 0.09005(19) 0.5000 0.96657(8)
O25_3 O -0.0000 0.43175(14) 0.96637(9)
O26_3 O 0.0000 0.56825(14) 0.96637(9)
O3_4 O 0.90995(19) 0.5000 0.03343(8)
O4_7 O 0.91740(18) 0.34779(9) -0.0000
O5_7 O 0.80040(14) 0.43460(12) -0.0000
O6_4 O 1.0000 0.43175(14) 0.03363(9)
O16_4 O 1.0000 0.56825(14) 0.03363(9)
O19_5 O 0.93332(9) 0.55014(6) 0.10024(4)
O4_8 O 0.91740(18) 0.34779(9) 1.0000
O5_8 O 0.80040(14) 0.43460(12) 1.0000
O21_5 O 0.87635(11) 0.40208(7) 0.94187(4)
O24_4 O 0.90995(19) 0.5000 0.96657(8)
O25_4 O 1.0000 0.43175(14) 0.96637(9)
O26_4 O 1.0000 0.56825(14) 0.96637(9)
O4_9 O 0.08260(18) 0.34779(9) 0.0000
O5_9 O 0.19960(14) 0.43460(12) 0.0000
O21_6 O 0.12365(11) 0.40208(7) 0.05813(4)
O4_10 O 0.08260(18) 0.34779(9) 1.0000
O5_10 O 0.19960(14) 0.43460(12) 1.0000
O19_6 O 0.06668(9) 0.55014(6) 0.89976(4)
O14_9 O 0.91740(18) 0.65221(9) 0.0000
O15_9 O 0.80040(14) 0.56540(12) 0.0000
O22_6 O 0.87635(11) 0.59792(7) 0.05813(4)
O14_10 O 0.91740(18) 0.65221(9) 1.0000
O15_10 O 0.80040(14) 0.56540(12) 1.0000
O18_6 O 0.93332(9) 0.44986(6) 0.89976(4)
O13_5 O 0.09005(19) -0.0000 0.53343(8)
O14_11 O 0.08260(18) 0.15221(9) 0.5000
O15_11 O 0.19960(14) 0.06540(12) 0.5000
O16_5 O 0.0000 0.06825(14) 0.53363(9)
O22_7 O 0.12365(11) 0.09792(7) 0.44187(4)
O23_5 O 0.09005(19) -0.0000 0.46657(8)
O26_5 O 0.0000 0.06825(14) 0.46637(9)
O6_5 O -0.0000 0.93175(14) 0.53363(9)
O13_6 O 0.09005(19) 1.0000 0.53343(8)
O18_7 O 0.06668(9) 0.94986(6) 0.60024(4)
O23_6 O 0.09005(19) 1.0000 0.46657(8)
O25_5 O -0.0000 0.93175(14) 0.46637(9)
O3_5 O 0.90995(19) -0.0000 0.53343(8)
O16_6 O 1.0000 0.06825(14) 0.53363(9)
O19_7 O 0.93332(9) 0.05014(6) 0.60024(4)
O24_5 O 0.90995(19) -0.0000 0.46657(8)
O26_6 O 1.0000 0.06825(14) 0.46637(9)
O3_6 O 0.90995(19) 1.0000 0.53343(8)
O4_11 O 0.91740(18) 0.84779(9) 0.5000
O5_11 O 0.80040(14) 0.93460(12) 0.5000
O6_6 O 1.0000 0.93175(14) 0.53363(9)
O21_7 O 0.87635(11) 0.90208(7) 0.44187(4)
O24_6 O 0.90995(19) 1.0000 0.46657(8)
O25_6 O 1.0000 0.93175(14) 0.46637(9)
O19_8 O 0.06668(9) 0.05014(6) 0.39976(4)
O4_12 O 0.08260(18) 0.84779(9) 0.5000
O5_12 O 0.19960(14) 0.93460(12) 0.5000
O21_8 O 0.12365(11) 0.90208(7) 0.55813(4)
O14_12 O 0.91740(18) 0.15221(9) 0.5000
O15_12 O 0.80040(14) 0.06540(12) 0.5000
O22_8 O 0.87635(11) 0.09792(7) 0.55813(4)
O18_8 O 0.93332(9) 0.94986(6) 0.39976(4)
C1_5 C 0.37535(14) 0.37875(9) 0.37666(6)
C2_5 C 0.39636(13) 0.41258(9) 0.40891(6)
C3_5 C 0.32044(12) 0.30372(8) 0.24575(6)
C4_5 C 0.32787(11) 0.27134(9) 0.21473(6)
H1_5 H 0.3305 0.2860 0.1902
C5_5 C 0.33162(11) 0.28225(9) 0.28168(6)
C6_5 C 0.28594(13) 0.35504(8) 0.24077(6)
H2_5 H 0.3139 0.3822 0.2525
H3_5 H 0.2818 0.3628 0.2135
C7_5 C 0.34406(12) 0.31582(9) 0.31491(6)
C8_5 C 0.40285(13) 0.38886(10) 0.34093(7)
H4_5 H 0.4323 0.4173 0.3376
C9_5 C 0.31759(14) 0.30598(10) 0.35090(6)
H5_5 H 0.2884 0.2774 0.3545
C10_5 C 0.33333(14) 0.33739(10) 0.38145(6)
H6_5 H 0.3149 0.3302 0.4057
C11_5 C 0.38737(13) 0.35770(10) 0.31059(6)
H7_5 H 0.4064 0.3649 0.2865
C12_5 C 0.37535(14) 0.12125(9) 0.12334(6)
C13_5 C 0.39636(13) 0.08742(9) 0.09109(6)
C14_5 C 0.32044(12) 0.19628(8) 0.25425(6)
C15_5 C 0.32787(11) 0.22866(9) 0.28527(6)
H8_5 H 0.3305 0.2140 0.3098
C16_5 C 0.33162(11) 0.21775(9) 0.21832(6)
C17_5 C 0.28594(13) 0.14496(8) 0.25923(6)
H9_5 H 0.3139 0.1178 0.2475
H10_5 H 0.2818 0.1372 0.2865
C18_5 C 0.34406(12) 0.18418(9) 0.18509(6)
C19_5 C 0.40285(13) 0.11114(10) 0.15907(7)
H11_5 H 0.4323 0.0827 0.1624
C20_5 C 0.31759(14) 0.19402(10) 0.14910(6)
H12_5 H 0.2884 0.2226 0.1455
C21_5 C 0.33333(14) 0.16261(10) 0.11855(6)
H13_5 H 0.3149 0.1698 0.0943
C22_5 C 0.38737(13) 0.14230(10) 0.18941(6)
H14_5 H 0.4064 0.1351 0.2135
C23_5 C 0.12465(14) 0.37875(9) 0.12334(6)
C24_5 C 0.10364(13) 0.41258(9) 0.09109(6)
C25_5 C 0.17956(12) 0.30372(8) 0.25425(6)
C26_5 C 0.17213(11) 0.27134(9) 0.28527(6)
H15_5 H 0.1695 0.2860 0.3098
C27_5 C 0.16838(11) 0.28225(9) 0.21832(6)
C28_5 C 0.21406(13) 0.35504(8) 0.25923(6)
H16_5 H 0.1861 0.3822 0.2475
H17_5 H 0.2182 0.3628 0.2865
C29_5 C 0.15594(12) 0.31582(9) 0.18509(6)
C30_5 C 0.09715(13) 0.38886(10) 0.15907(7)
H18_5 H 0.0677 0.4173 0.1624
C31_5 C 0.18241(14) 0.30598(10) 0.14910(6)
H19_5 H 0.2116 0.2774 0.1455
C32_5 C 0.16667(14) 0.33739(10) 0.11855(6)
H20_5 H 0.1851 0.3302 0.0943
C33_5 C 0.11263(13) 0.35770(10) 0.18941(6)
H21_5 H 0.0936 0.3649 0.2135
C34_5 C 0.12465(14) 0.12125(9) 0.37666(6)
C35_5 C 0.10364(13) 0.08742(9) 0.40891(6)
C36_5 C 0.17956(12) 0.19628(8) 0.24575(6)
C37_5 C 0.17213(11) 0.22866(9) 0.21473(6)
H22_5 H 0.1695 0.2140 0.1902
C38_5 C 0.16838(11) 0.21775(9) 0.28168(6)
C39_5 C 0.21406(13) 0.14496(8) 0.24077(6)
H23_5 H 0.1861 0.1178 0.2525
H24_5 H 0.2182 0.1372 0.2135
C40_5 C 0.15594(12) 0.18418(9) 0.31491(6)
C41_5 C 0.09715(13) 0.11114(10) 0.34093(7)
H25_5 H 0.0677 0.0827 0.3376
C42_5 C 0.18241(14) 0.19402(10) 0.35090(6)
H26_5 H 0.2116 0.2226 0.3545
C43_5 C 0.16667(14) 0.16261(10) 0.38145(6)
H27_5 H 0.1851 0.1698 0.4057
C44_5 C 0.11263(13) 0.14230(10) 0.31059(6)
H28_5 H 0.0936 0.1351 0.2865
C1_6 C 0.62465(14) 0.62125(9) 0.37666(6)
C2_6 C 0.60364(13) 0.58742(9) 0.40891(6)
C3_6 C 0.67956(12) 0.69628(8) 0.24575(6)
C4_6 C 0.67213(11) 0.72866(9) 0.21473(6)
H1_6 H 0.6695 0.7140 0.1902
C5_6 C 0.66838(11) 0.71775(9) 0.28168(6)
C6_6 C 0.71406(13) 0.64496(8) 0.24077(6)
H2_6 H 0.6861 0.6178 0.2525
H3_6 H 0.7182 0.6372 0.2135
C7_6 C 0.65594(12) 0.68418(9) 0.31491(6)
C8_6 C 0.59715(13) 0.61114(10) 0.34093(7)
H4_6 H 0.5677 0.5827 0.3376
C9_6 C 0.68241(14) 0.69402(10) 0.35090(6)
H5_6 H 0.7116 0.7226 0.3545
C10_6 C 0.66667(14) 0.66261(10) 0.38145(6)
H6_6 H 0.6851 0.6698 0.4057
C11_6 C 0.61263(13) 0.64230(10) 0.31059(6)
H7_6 H 0.5936 0.6351 0.2865
C12_6 C 0.62465(14) 0.87875(9) 0.12334(6)
C13_6 C 0.60364(13) 0.91258(9) 0.09109(6)
C14_6 C 0.67956(12) 0.80372(8) 0.25425(6)
C15_6 C 0.67213(11) 0.77134(9) 0.28527(6)
H8_6 H 0.6695 0.7860 0.3098
C16_6 C 0.66838(11) 0.78225(9) 0.21832(6)
C17_6 C 0.71406(13) 0.85504(8) 0.25923(6)
H9_6 H 0.6861 0.8822 0.2475
H10_6 H 0.7182 0.8628 0.2865
C18_6 C 0.65594(12) 0.81582(9) 0.18509(6)
C19_6 C 0.59715(13) 0.88886(10) 0.15907(7)
H11_6 H 0.5677 0.9173 0.1624
C20_6 C 0.68241(14) 0.80598(10) 0.14910(6)
H12_6 H 0.7116 0.7774 0.1455
C21_6 C 0.66667(14) 0.83739(10) 0.11855(6)
H13_6 H 0.6851 0.8302 0.0943
C22_6 C 0.61263(13) 0.85770(10) 0.18941(6)
H14_6 H 0.5936 0.8649 0.2135
C23_6 C 0.87535(14) 0.62125(9) 0.12334(6)
C24_6 C 0.89636(13) 0.58742(9) 0.09109(6)
C25_6 C 0.82044(12) 0.69628(8) 0.25425(6)
C26_6 C 0.82787(11) 0.72866(9) 0.28527(6)
H15_6 H 0.8305 0.7140 0.3098
C27_6 C 0.83162(11) 0.71775(9) 0.21832(6)
C28_6 C 0.78594(13) 0.64496(8) 0.25923(6)
H16_6 H 0.8139 0.6178 0.2475
H17_6 H 0.7818 0.6372 0.2865
C29_6 C 0.84406(12) 0.68418(9) 0.18509(6)
C30_6 C 0.90285(13) 0.61114(10) 0.15907(7)
H18_6 H 0.9323 0.5827 0.1624
C31_6 C 0.81759(14) 0.69402(10) 0.14910(6)
H19_6 H 0.7884 0.7226 0.1455
C32_6 C 0.83333(14) 0.66261(10) 0.11855(6)
H20_6 H 0.8149 0.6698 0.0943
C33_6 C 0.88737(13) 0.64230(10) 0.18941(6)
H21_6 H 0.9064 0.6351 0.2135
C34_6 C 0.87535(14) 0.87875(9) 0.37666(6)
C35_6 C 0.89636(13) 0.91258(9) 0.40891(6)
C36_6 C 0.82044(12) 0.80372(8) 0.24575(6)
C37_6 C 0.82787(11) 0.77134(9) 0.21473(6)
H22_6 H 0.8305 0.7860 0.1902
C38_6 C 0.83162(11) 0.78225(9) 0.28168(6)
C39_6 C 0.78594(13) 0.85504(8) 0.24077(6)
H23_6 H 0.8139 0.8822 0.2525
H24_6 H 0.7818 0.8628 0.2135
C40_6 C 0.84406(12) 0.81582(9) 0.31491(6)
C41_6 C 0.90285(13) 0.88886(10) 0.34093(7)
H25_6 H 0.9323 0.9173 0.3376
C42_6 C 0.81759(14) 0.80598(10) 0.35090(6)
H26_6 H 0.7884 0.7774 0.3545
C43_6 C 0.83333(14) 0.83739(10) 0.38145(6)
H27_6 H 0.8149 0.8302 0.4057
C44_6 C 0.88737(13) 0.85770(10) 0.31059(6)
H28_6 H 0.9064 0.8649 0.2865
C1_7 C 0.62465(14) 0.37875(9) 0.62334(6)
C2_7 C 0.60364(13) 0.41258(9) 0.59109(6)
C3_7 C 0.67956(12) 0.30372(8) 0.75425(6)
C4_7 C 0.67213(11) 0.27134(9) 0.78527(6)
H1_7 H 0.6695 0.2860 0.8098
C5_7 C 0.66838(11) 0.28225(9) 0.71832(6)
C6_7 C 0.71406(13) 0.35504(8) 0.75923(6)
H2_7 H 0.6861 0.3822 0.7475
H3_7 H 0.7182 0.3628 0.7865
C7_7 C 0.65594(12) 0.31582(9) 0.68509(6)
C8_7 C 0.59715(13) 0.38886(10) 0.65907(7)
H4_7 H 0.5677 0.4173 0.6624
C9_7 C 0.68241(14) 0.30598(10) 0.64910(6)
H5_7 H 0.7116 0.2774 0.6455
C10_7 C 0.66667(14) 0.33739(10) 0.61855(6)
H6_7 H 0.6851 0.3302 0.5943
C11_7 C 0.61263(13) 0.35770(10) 0.68941(6)
H7_7 H 0.5936 0.3649 0.7135
C12_7 C 0.62465(14) 0.12125(9) 0.87666(6)
C13_7 C 0.60364(13) 0.08742(9) 0.90891(6)
C14_7 C 0.67956(12) 0.19628(8) 0.74575(6)
C15_7 C 0.67213(11) 0.22866(9) 0.71473(6)
H8_7 H 0.6695 0.2140 0.6902
C16_7 C 0.66838(11) 0.21775(9) 0.78168(6)
C17_7 C 0.71406(13) 0.14496(8) 0.74077(6)
H9_7 H 0.6861 0.1178 0.7525
H10_7 H 0.7182 0.1372 0.7135
C18_7 C 0.65594(12) 0.18418(9) 0.81491(6)
C19_7 C 0.59715(13) 0.11114(10) 0.84093(7)
H11_7 H 0.5677 0.0827 0.8376
C20_7 C 0.68241(14) 0.19402(10) 0.85090(6)
H12_7 H 0.7116 0.2226 0.8545
C21_7 C 0.66667(14) 0.16261(10) 0.88145(6)
H13_7 H 0.6851 0.1698 0.9057
C22_7 C 0.61263(13) 0.14230(10) 0.81059(6)
H14_7 H 0.5936 0.1351 0.7865
C23_7 C 0.87535(14) 0.37875(9) 0.87666(6)
C24_7 C 0.89636(13) 0.41258(9) 0.90891(6)
C25_7 C 0.82044(12) 0.30372(8) 0.74575(6)
C26_7 C 0.82787(11) 0.27134(9) 0.71473(6)
H15_7 H 0.8305 0.2860 0.6902
C27_7 C 0.83162(11) 0.28225(9) 0.78168(6)
C28_7 C 0.78594(13) 0.35504(8) 0.74077(6)
H16_7 H 0.8139 0.3822 0.7525
H17_7 H 0.7818 0.3628 0.7135
C29_7 C 0.84406(12) 0.31582(9) 0.81491(6)
C30_7 C 0.90285(13) 0.38886(10) 0.84093(7)
H18_7 H 0.9323 0.4173 0.8376
C31_7 C 0.81759(14) 0.30598(10) 0.85090(6)
H19_7 H 0.7884 0.2774 0.8545
C32_7 C 0.83333(14) 0.33739(10) 0.88145(6)
H20_7 H 0.8149 0.3302 0.9057
C33_7 C 0.88737(13) 0.35770(10) 0.81059(6)
H21_7 H 0.9064 0.3649 0.7865
C34_7 C 0.87535(14) 0.12125(9) 0.62334(6)
C35_7 C 0.89636(13) 0.08742(9) 0.59109(6)
C36_7 C 0.82044(12) 0.19628(8) 0.75425(6)
C37_7 C 0.82787(11) 0.22866(9) 0.78527(6)
H22_7 H 0.8305 0.2140 0.8098
C38_7 C 0.83162(11) 0.21775(9) 0.71832(6)
C39_7 C 0.78594(13) 0.14496(8) 0.75923(6)
H23_7 H 0.8139 0.1178 0.7475
H24_7 H 0.7818 0.1372 0.7865
C40_7 C 0.84406(12) 0.18418(9) 0.68509(6)
C41_7 C 0.90285(13) 0.11114(10) 0.65907(7)
H25_7 H 0.9323 0.0827 0.6624
C42_7 C 0.81759(14) 0.19402(10) 0.64910(6)
H26_7 H 0.7884 0.2226 0.6455
C43_7 C 0.83333(14) 0.16261(10) 0.61855(6)
H27_7 H 0.8149 0.1698 0.5943
C44_7 C 0.88737(13) 0.14230(10) 0.68941(6)
H28_7 H 0.9064 0.1351 0.7135
C1_8 C 0.37535(14) 0.62125(9) 0.62334(6)
C2_8 C 0.39636(13) 0.58742(9) 0.59109(6)
C3_8 C 0.32044(12) 0.69628(8) 0.75425(6)
C4_8 C 0.32787(11) 0.72866(9) 0.78527(6)
H1_8 H 0.3305 0.7140 0.8098
C5_8 C 0.33162(11) 0.71775(9) 0.71832(6)
C6_8 C 0.28594(13) 0.64496(8) 0.75923(6)
H2_8 H 0.3139 0.6178 0.7475
H3_8 H 0.2818 0.6372 0.7865
C7_8 C 0.34406(12) 0.68418(9) 0.68509(6)
C8_8 C 0.40285(13) 0.61114(10) 0.65907(7)
H4_8 H 0.4323 0.5827 0.6624
C9_8 C 0.31759(14) 0.69402(10) 0.64910(6)
H5_8 H 0.2884 0.7226 0.6455
C10_8 C 0.33333(14) 0.66261(10) 0.61855(6)
H6_8 H 0.3149 0.6698 0.5943
C11_8 C 0.38737(13) 0.64230(10) 0.68941(6)
H7_8 H 0.4064 0.6351 0.7135
C12_8 C 0.37535(14) 0.87875(9) 0.87666(6)
C13_8 C 0.39636(13) 0.91258(9) 0.90891(6)
C14_8 C 0.32044(12) 0.80372(8) 0.74575(6)
C15_8 C 0.32787(11) 0.77134(9) 0.71473(6)
H8_8 H 0.3305 0.7860 0.6902
C16_8 C 0.33162(11) 0.78225(9) 0.78168(6)
C17_8 C 0.28594(13) 0.85504(8) 0.74077(6)
H9_8 H 0.3139 0.8822 0.7525
H10_8 H 0.2818 0.8628 0.7135
C18_8 C 0.34406(12) 0.81582(9) 0.81491(6)
C19_8 C 0.40285(13) 0.88886(10) 0.84093(7)
H11_8 H 0.4323 0.9173 0.8376
C20_8 C 0.31759(14) 0.80598(10) 0.85090(6)
H12_8 H 0.2884 0.7774 0.8545
C21_8 C 0.33333(14) 0.83739(10) 0.88145(6)
H13_8 H 0.3149 0.8302 0.9057
C22_8 C 0.38737(13) 0.85770(10) 0.81059(6)
H14_8 H 0.4064 0.8649 0.7865
C23_8 C 0.12465(14) 0.62125(9) 0.87666(6)
C24_8 C 0.10364(13) 0.58742(9) 0.90891(6)
C25_8 C 0.17956(12) 0.69628(8) 0.74575(6)
C26_8 C 0.17213(11) 0.72866(9) 0.71473(6)
H15_8 H 0.1695 0.7140 0.6902
C27_8 C 0.16838(11) 0.71775(9) 0.78168(6)
C28_8 C 0.21406(13) 0.64496(8) 0.74077(6)
H16_8 H 0.1861 0.6178 0.7525
H17_8 H 0.2182 0.6372 0.7135
C29_8 C 0.15594(12) 0.68418(9) 0.81491(6)
C30_8 C 0.09715(13) 0.61114(10) 0.84093(7)
H18_8 H 0.0677 0.5827 0.8376
C31_8 C 0.18241(14) 0.69402(10) 0.85090(6)
H19_8 H 0.2116 0.7226 0.8545
C32_8 C 0.16667(14) 0.66261(10) 0.88145(6)
H20_8 H 0.1851 0.6698 0.9057
C33_8 C 0.11263(13) 0.64230(10) 0.81059(6)
H21_8 H 0.0936 0.6351 0.7865
C34_8 C 0.12465(14) 0.87875(9) 0.62334(6)
C35_8 C 0.10364(13) 0.91258(9) 0.59109(6)
C36_8 C 0.17956(12) 0.80372(8) 0.75425(6)
C37_8 C 0.17213(11) 0.77134(9) 0.78527(6)
H22_8 H 0.1695 0.7860 0.8098
C38_8 C 0.16838(11) 0.78225(9) 0.71832(6)
C39_8 C 0.21406(13) 0.85504(8) 0.75923(6)
H23_8 H 0.1861 0.8822 0.7475
H24_8 H 0.2182 0.8628 0.7865
C40_8 C 0.15594(12) 0.81582(9) 0.68509(6)
C41_8 C 0.09715(13) 0.88886(10) 0.65907(7)
H25_8 H 0.0677 0.9173 0.6624
C42_8 C 0.18241(14) 0.80598(10) 0.64910(6)
H26_8 H 0.2116 0.7774 0.6455
C43_8 C 0.16667(14) 0.83739(10) 0.61855(6)
H27_8 H 0.1851 0.8302 0.5943
C44_8 C 0.11263(13) 0.85770(10) 0.68941(6)
H28_8 H 0.0936 0.8649 0.7135
loop_
_geom_bond_atom_site_label_1
_geom_bond_atom_site_label_2
_geom_bond_site_symmetry_1
_geom_bond_site_symmetry_2
Zr1 O1 1_555 1_555
Zr2 O3 1_555 1_555
O1 C2 1_555 1_555
O2 C2 1_555 1_555
O3 Zr1 1_555 1_555
O4 Zr2 1_555 1_555
O5 Zr2 1_555 1_555
O6 Zr1 1_555 1_555
C1 C2 1_555 1_555
C3 C4 1_555 1_555
C4 H1 1_555 1_555
C5 C3 1_555 1_555
C6 C3 1_555 1_555
H2 C6 1_555 1_555
H3 C6 1_555 1_555
C7 C5 1_555 1_555
C8 C1 1_555 1_555
H4 C8 1_555 1_555
C9 C7 1_555 1_555
H5 C9 1_555 1_555
C10 C1 1_555 1_555
H6 C10 1_555 1_555
C11 C7 1_555 1_555
H7 C11 1_555 1_555
O7 C13 1_555 1_555
O8 C13 1_555 1_555
C12 C13 1_555 1_555
C14 C15 1_555 1_555
C15 C5 1_555 1_555
H8 C15 1_555 1_555
C16 C4 1_555 1_555
C17 C14 1_555 1_555
H9 C17 1_555 1_555
H10 C17 1_555 1_555
C18 C16 1_555 1_555
C19 C12 1_555 1_555
H11 C19 1_555 1_555
C20 C18 1_555 1_555
H12 C20 1_555 1_555
C21 C12 1_555 1_555
H13 C21 1_555 1_555
C22 C18 1_555 1_555
H14 C22 1_555 1_555
O9 C24 1_555 1_555
O10 C24 1_555 1_555
C23 C24 1_555 1_555
C25 C26 1_555 1_555
C26 H15 1_555 1_555
C27 C25 1_555 1_555
C28 C6 1_555 1_555
H16 C28 1_555 1_555
H17 C28 1_555 1_555
C29 C27 1_555 1_555
C30 C23 1_555 1_555
H18 C30 1_555 1_555
C31 C29 1_555 1_555
H19 C31 1_555 1_555
C32 C23 1_555 1_555
H20 C32 1_555 1_555
C33 C29 1_555 1_555
H21 C33 1_555 1_555
O11 C35 1_555 1_555
O12 C35 1_555 1_555
C34 C35 1_555 1_555
C36 C37 1_555 1_555
C37 C27 1_555 1_555
H22 C37 1_555 1_555
C38 C26 1_555 1_555
C39 C17 1_555 1_555
H23 C39 1_555 1_555
H24 C39 1_555 1_555
C40 C38 1_555 1_555
C41 C34 1_555 1_555
H25 C41 1_555 1_555
C42 C40 1_555 1_555
H26 C42 1_555 1_555
C43 C34 1_555 1_555
H27 C43 1_555 1_555
C44 C40 1_555 1_555
H28 C44 1_555 1_555
Zr3 O2 1_555 1_555
O13 Zr1 1_555 1_555
O14 Zr3 1_555 1_555
O15 Zr3 1_555 1_555
O16 Zr1 1_555 1_555
Zr4_2 O7 1_555 1_555
Zr5_2 O9 1_555 1_555
Zr6_4 O11 1_555 1_555
Zr7 O6 1_555 1_555
Zr8 O3 1_555 1_555
Zr9_2 O8 1_555 1_555
Zr10_2 O10 1_555 1_555
Zr11 O12 1_555 1_555
O17 Zr1 1_555 1_555
O18 Zr1 1_555 1_555
O19 Zr1 1_555 1_555
O20 Zr2 1_555 1_555
O21 Zr2 1_555 1_555
O22 Zr3 1_555 1_555
O23 Zr3 1_555 1_555
O24 Zr2 1_555 1_555
O25 Zr2 1_555 1_555
O26 Zr3 1_555 1_555
Zr2 O6 1_555 1_555
C8 C11 1_555 1_555
C9 C10 1_555 1_555
C14 C16 1_555 1_555
C19 C22 1_555 1_555
C20 C21 1_555 1_555
C25 C28 1_555 1_555
C30 C33 1_555 1_555
C31 C32 1_555 1_555
C36 C38 1_555 1_555
C36 C39 1_555 1_555
C41 C44 1_555 1_555
C42 C43 1_555 1_555
Zr3 O13 1_555 1_555
Zr3 O16 1_555 1_555
O13 Zr7 1_555 1_555
O16 Zr8 1_555 1_555
Zr7 O23 1_555 1_555
Zr7 O25 1_555 1_555
Zr8 O24 1_555 1_555
Zr8 O26 1_555 1_555
O17 C2_2 1_555 1_555
O20 C2_2 1_555 1_555
C1_2 C2_2 1_555 1_555
C3_2 C4_2 1_555 1_555
C4_2 H1_2 1_555 1_555
C5_2 C3_2 1_555 1_555
C6_2 C3_2 1_555 1_555
H2_2 C6_2 1_555 1_555
H3_2 C6_2 1_555 1_555
C7_2 C5_2 1_555 1_555
C8_2 C1_2 1_555 1_555
H4_2 C8_2 1_555 1_555
C9_2 C7_2 1_555 1_555
H5_2 C9_2 1_555 1_555
C10_2 C1_2 1_555 1_555
H6_2 C10_2 1_555 1_555
C11_2 C7_2 1_555 1_555
H7_2 C11_2 1_555 1_555
O7_2 C13_2 1_555 1_555
O8_2 C13_2 1_555 1_555
C12_2 C13_2 1_555 1_555
C14_2 C15_2 1_555 1_555
C15_2 C5_2 1_555 1_555
H8_2 C15_2 1_555 1_555
C16_2 C4_2 1_555 1_555
C17_2 C14_2 1_555 1_555
H9_2 C17_2 1_555 1_555
H10_2 C17_2 1_555 1_555
C18_2 C16_2 1_555 1_555
C19_2 C12_2 1_555 1_555
H11_2 C19_2 1_555 1_555
C20_2 C18_2 1_555 1_555
H12_2 C20_2 1_555 1_555
C21_2 C12_2 1_555 1_555
H13_2 C21_2 1_555 1_555
C22_2 C18_2 1_555 1_555
H14_2 C22_2 1_555 1_555
O9_2 C24_2 1_555 1_555
O10_2 C24_2 1_555 1_555
C23_2 C24_2 1_555 1_555
C25_2 C26_2 1_555 1_555
C26_2 H15_2 1_555 1_555
C27_2 C25_2 1_555 1_555
C28_2 C6_2 1_555 1_555
H16_2 C28_2 1_555 1_555
H17_2 C28_2 1_555 1_555
C29_2 C27_2 1_555 1_555
C30_2 C23_2 1_555 1_555
H18_2 C30_2 1_555 1_555
C31_2 C29_2 1_555 1_555
H19_2 C31_2 1_555 1_555
C32_2 C23_2 1_555 1_555
H20_2 C32_2 1_555 1_555
C33_2 C29_2 1_555 1_555
H21_2 C33_2 1_555 1_555
O11_2 C35_2 1_555 1_555
O12_2 C35_2 1_555 1_555
C34_2 C35_2 1_555 1_555
C36_2 C37_2 1_555 1_555
C37_2 C27_2 1_555 1_555
H22_2 C37_2 1_555 1_555
C38_2 C26_2 1_555 1_555
C39_2 C17_2 1_555 1_555
H23_2 C39_2 1_555 1_555
H24_2 C39_2 1_555 1_555
C40_2 C38_2 1_555 1_555
C41_2 C34_2 1_555 1_555
H25_2 C41_2 1_555 1_555
C42_2 C40_2 1_555 1_555
H26_2 C42_2 1_555 1_555
C43_2 C34_2 1_555 1_555
H27_2 C43_2 1_555 1_555
C44_2 C40_2 1_555 1_555
H28_2 C44_2 1_555 1_555
Zr4 O7_2 1_555 1_555
Zr5 O9_2 1_555 1_555
Zr6 O11_2 1_555 1_555
Zr9_4 O8_2 1_555 1_555
Zr10_4 O10_2 1_555 1_555
Zr11_2 O12_2 1_555 1_555
C8_2 C11_2 1_555 1_555
C9_2 C10_2 1_555 1_555
C14_2 C16_2 1_555 1_555
C19_2 C22_2 1_555 1_555
C20_2 C21_2 1_555 1_555
C25_2 C28_2 1_555 1_555
C30_2 C33_2 1_555 1_555
C31_2 C32_2 1_555 1_555
C36_2 C38_2 1_555 1_555
C36_2 C39_2 1_555 1_555
C41_2 C44_2 1_555 1_555
C42_2 C43_2 1_555 1_555
Zr1_2 O1_2 1_555 1_555
O1_2 C2_3 1_555 1_555
O2_2 C2_3 1_555 1_555
O23 Zr1_2 1_555 1_555
O4_2 Zr7 1_555 1_555
O5_2 Zr7 1_555 1_555
O25 Zr1_2 1_555 1_555
C1_3 C2_3 1_555 1_555
C3_3 C4_3 1_555 1_555
C4_3 H1_3 1_555 1_555
C5_3 C3_3 1_555 1_555
C6_3 C3_3 1_555 1_555
H2_3 C6_3 1_555 1_555
H3_3 C6_3 1_555 1_555
C7_3 C5_3 1_555 1_555
C8_3 C1_3 1_555 1_555
H4_3 C8_3 1_555 1_555
C9_3 C7_3 1_555 1_555
H5_3 C9_3 1_555 1_555
C10_3 C1_3 1_555 1_555
H6_3 C10_3 1_555 1_555
C11_3 C7_3 1_555 1_555
H7_3 C11_3 1_555 1_555
O7_3 C13_3 1_555 1_555
O8_3 C13_3 1_555 1_555
C12_3 C13_3 1_555 1_555
C14_3 C15_3 1_555 1_555
C15_3 C5_3 1_555 1_555
H8_3 C15_3 1_555 1_555
C16_3 C4_3 1_555 1_555
C17_3 C14_3 1_555 1_555
H9_3 C17_3 1_555 1_555
H10_3 C17_3 1_555 1_555
C18_3 C16_3 1_555 1_555
C19_3 C12_3 1_555 1_555
H11_3 C19_3 1_555 1_555
C20_3 C18_3 1_555 1_555
H12_3 C20_3 1_555 1_555
C21_3 C12_3 1_555 1_555
H13_3 C21_3 1_555 1_555
C22_3 C18_3 1_555 1_555
H14_3 C22_3 1_555 1_555
O9_3 C24_3 1_555 1_555
O10_3 C24_3 1_555 1_555
C23_3 C24_3 1_555 1_555
C25_3 C26_3 1_555 1_555
C26_3 H15_3 1_555 1_555
C27_3 C25_3 1_555 1_555
C28_3 C6_3 1_555 1_555
H16_3 C28_3 1_555 1_555
H17_3 C28_3 1_555 1_555
C29_3 C27_3 1_555 1_555
C30_3 C23_3 1_555 1_555
H18_3 C30_3 1_555 1_555
C31_3 C29_3 1_555 1_555
H19_3 C31_3 1_555 1_555
C32_3 C23_3 1_555 1_555
H20_3 C32_3 1_555 1_555
C33_3 C29_3 1_555 1_555
H21_3 C33_3 1_555 1_555
O11_3 C35_3 1_555 1_555
O12_3 C35_3 1_555 1_555
C34_3 C35_3 1_555 1_555
C36_3 C37_3 1_555 1_555
C37_3 C27_3 1_555 1_555
H22_3 C37_3 1_555 1_555
C38_3 C26_3 1_555 1_555
C39_3 C17_3 1_555 1_555
H23_3 C39_3 1_555 1_555
H24_3 C39_3 1_555 1_555
C40_3 C38_3 1_555 1_555
C41_3 C34_3 1_555 1_555
H25_3 C41_3 1_555 1_555
C42_3 C40_3 1_555 1_555
H26_3 C42_3 1_555 1_555
C43_3 C34_3 1_555 1_555
H27_3 C43_3 1_555 1_555
C44_3 C40_3 1_555 1_555
H28_3 C44_3 1_555 1_555
Zr8 O2_2 1_555 1_555
O24 Zr1_2 1_555 1_555
O14_2 Zr8 1_555 1_555
O15_2 Zr8 1_555 1_555
O26 Zr1_2 1_555 1_555
Zr4_4 O7_3 1_555 1_555
Zr5_3 O9_3 1_555 1_555
Zr6_6 O11_3 1_555 1_555
Zr9_5 O8_3 1_555 1_555
Zr10_5 O10_3 1_555 1_555
Zr11_3 O12_3 1_555 1_555
O17_2 Zr1_2 1_555 1_555
O18_2 Zr1_2 1_555 1_555
O19_2 Zr1_2 1_555 1_555
O20_2 Zr7 1_555 1_555
O21_2 Zr7 1_555 1_555
O22_2 Zr8 1_555 1_555
C8_3 C11_3 1_555 1_555
C9_3 C10_3 1_555 1_555
C14_3 C16_3 1_555 1_555
C19_3 C22_3 1_555 1_555
C20_3 C21_3 1_555 1_555
C25_3 C28_3 1_555 1_555
C30_3 C33_3 1_555 1_555
C31_3 C32_3 1_555 1_555
C36_3 C38_3 1_555 1_555
C36_3 C39_3 1_555 1_555
C41_3 C44_3 1_555 1_555
C42_3 C43_3 1_555 1_555
O17_2 C2_4 1_555 1_555
O20_2 C2_4 1_555 1_555
C1_4 C2_4 1_555 1_555
C3_4 C4_4 1_555 1_555
C4_4 H1_4 1_555 1_555
C5_4 C3_4 1_555 1_555
C6_4 C3_4 1_555 1_555
H2_4 C6_4 1_555 1_555
H3_4 C6_4 1_555 1_555
C7_4 C5_4 1_555 1_555
C8_4 C1_4 1_555 1_555
H4_4 C8_4 1_555 1_555
C9_4 C7_4 1_555 1_555
H5_4 C9_4 1_555 1_555
C10_4 C1_4 1_555 1_555
H6_4 C10_4 1_555 1_555
C11_4 C7_4 1_555 1_555
H7_4 C11_4 1_555 1_555
O7_4 C13_4 1_555 1_555
O8_4 C13_4 1_555 1_555
C12_4 C13_4 1_555 1_555
C14_4 C15_4 1_555 1_555
C15_4 C5_4 1_555 1_555
H8_4 C15_4 1_555 1_555
C16_4 C4_4 1_555 1_555
C17_4 C14_4 1_555 1_555
H9_4 C17_4 1_555 1_555
H10_4 C17_4 1_555 1_555
C18_4 C16_4 1_555 1_555
C19_4 C12_4 1_555 1_555
H11_4 C19_4 1_555 1_555
C20_4 C18_4 1_555 1_555
H12_4 C20_4 1_555 1_555
C21_4 C12_4 1_555 1_555
H13_4 C21_4 1_555 1_555
C22_4 C18_4 1_555 1_555
H14_4 C22_4 1_555 1_555
O9_4 C24_4 1_555 1_555
O10_4 C24_4 1_555 1_555
C23_4 C24_4 1_555 1_555
C25_4 C26_4 1_555 1_555
C26_4 H15_4 1_555 1_555
C27_4 C25_4 1_555 1_555
C28_4 C6_4 1_555 1_555
H16_4 C28_4 1_555 1_555
H17_4 C28_4 1_555 1_555
C29_4 C27_4 1_555 1_555
C30_4 C23_4 1_555 1_555
H18_4 C30_4 1_555 1_555
C31_4 C29_4 1_555 1_555
H19_4 C31_4 1_555 1_555
C32_4 C23_4 1_555 1_555
H20_4 C32_4 1_555 1_555
C33_4 C29_4 1_555 1_555
H21_4 C33_4 1_555 1_555
O11_4 C35_4 1_555 1_555
O12_4 C35_4 1_555 1_555
C34_4 C35_4 1_555 1_555
C36_4 C37_4 1_555 1_555
C37_4 C27_4 1_555 1_555
H22_4 C37_4 1_555 1_555
C38_4 C26_4 1_555 1_555
C39_4 C17_4 1_555 1_555
H23_4 C39_4 1_555 1_555
H24_4 C39_4 1_555 1_555
C40_4 C38_4 1_555 1_555
C41_4 C34_4 1_555 1_555
H25_4 C41_4 1_555 1_555
C42_4 C40_4 1_555 1_555
H26_4 C42_4 1_555 1_555
C43_4 C34_4 1_555 1_555
H27_4 C43_4 1_555 1_555
C44_4 C40_4 1_555 1_555
H28_4 C44_4 1_555 1_555
Zr4_3 O7_4 1_555 1_555
Zr5_4 O9_4 1_555 1_555
Zr6_7 O11_4 1_555 1_555
Zr9_7 O8_4 1_555 1_555
Zr10_7 O10_4 1_555 1_555
Zr11_4 O12_4 1_555 1_555
C8_4 C11_4 1_555 1_555
C9_4 C10_4 1_555 1_555
C14_4 C16_4 1_555 1_555
C19_4 C22_4 1_555 1_555
C20_4 C21_4 1_555 1_555
C25_4 C28_4 1_555 1_555
C30_4 C33_4 1_555 1_555
C31_4 C32_4 1_555 1_555
C36_4 C38_4 1_555 1_555
C36_4 C39_4 1_555 1_555
C41_4 C44_4 1_555 1_555
C42_4 C43_4 1_555 1_555
O3_2 Zr4_3 1_555 1_555
O13_2 Zr4_3 1_555 1_555
O14_3 Zr9_7 1_555 1_555
O15_3 Zr9_7 1_555 1_555
O16_2 Zr4_3 1_555 1_555
Zr9_3 O3_2 1_555 1_555
O19_3 Zr4_3 1_555 1_555
Zr9_7 O13_2 1_555 1_555
Zr9_7 O16_2 1_555 1_555
O16_2 Zr9_3 1_555 1_555
O14_4 Zr9_8 1_555 1_555
O15_4 Zr9_8 1_555 1_555
O22_3 Zr9_8 1_555 1_555
O23_2 Zr9_8 1_555 1_555
O26_2 Zr9_8 1_555 1_555
Zr9_4 O24_2 1_555 1_555
Zr9_4 O26_2 1_555 1_555
Zr9_5 O3_3 1_555 1_555
O3_3 Zr4_4 1_555 1_555
O4_3 Zr9_5 1_555 1_555
O5_3 Zr9_5 1_555 1_555
O6_2 Zr4_4 1_555 1_555
O13_3 Zr4_4 1_555 1_555
Zr9 O6_2 1_555 1_555
O18_3 Zr4_4 1_555 1_555
Zr9_5 O6_2 1_555 1_555
O13_3 Zr9 1_555 1_555
O4_4 Zr9_6 1_555 1_555
O5_4 Zr9_6 1_555 1_555
O21_3 Zr9_6 1_555 1_555
O24_3 Zr9_6 1_555 1_555
O25_2 Zr9_6 1_555 1_555
Zr9_2 O23_3 1_555 1_555
Zr9_2 O25_2 1_555 1_555
O14_5 Zr9_3 1_555 1_555
O15_5 Zr9_3 1_555 1_555
O22_4 Zr9_3 1_555 1_555
O23_2 Zr4 1_555 1_555
O24_2 Zr4 1_555 1_555
O14_6 Zr9_4 1_555 1_555
O15_6 Zr9_4 1_555 1_555
O26_2 Zr4 1_555 1_555
O19_4 Zr4 1_555 1_555
O4_5 Zr9 1_555 1_555
O5_5 Zr9 1_555 1_555
O21_4 Zr9 1_555 1_555
O23_3 Zr4_2 1_555 1_555
O4_6 Zr9_2 1_555 1_555
O5_6 Zr9_2 1_555 1_555
O25_2 Zr4_2 1_555 1_555
O24_3 Zr4_2 1_555 1_555
O18_4 Zr4_2 1_555 1_555
O6_3 Zr5_3 1_555 1_555
O13_4 Zr5_3 1_555 1_555
O14_7 Zr10_5 1_555 1_555
O15_7 Zr10_5 1_555 1_555
O16_3 Zr5_3 1_555 1_555
Zr10_3 O6_3 1_555 1_555
O18_5 Zr5_3 1_555 1_555
Zr10_5 O13_4 1_555 1_555
Zr10_5 O16_3 1_555 1_555
O13_4 Zr10_3 1_555 1_555
O14_8 Zr10_6 1_555 1_555
O15_8 Zr10_6 1_555 1_555
O22_5 Zr10_6 1_555 1_555
O23_4 Zr10_6 1_555 1_555
O26_3 Zr10_6 1_555 1_555
Zr10_4 O23_4 1_555 1_555
Zr10_4 O25_3 1_555 1_555
Zr10_7 O3_4 1_555 1_555
O3_4 Zr5_4 1_555 1_555
O4_7 Zr10_7 1_555 1_555
O5_7 Zr10_7 1_555 1_555
O6_4 Zr5_4 1_555 1_555
O16_4 Zr5_4 1_555 1_555
Zr10 O3_4 1_555 1_555
O19_5 Zr5_4 1_555 1_555
Zr10_7 O6_4 1_555 1_555
O16_4 Zr10 1_555 1_555
O4_8 Zr10_8 1_555 1_555
O5_8 Zr10_8 1_555 1_555
O21_5 Zr10_8 1_555 1_555
O24_4 Zr10_8 1_555 1_555
O25_4 Zr10_8 1_555 1_555
Zr10_2 O24_4 1_555 1_555
Zr10_2 O26_4 1_555 1_555
O4_9 Zr10_3 1_555 1_555
O5_9 Zr10_3 1_555 1_555
O21_6 Zr10_3 1_555 1_555
O23_4 Zr5 1_555 1_555
O4_10 Zr10_4 1_555 1_555
O5_10 Zr10_4 1_555 1_555
O25_3 Zr5 1_555 1_555
O26_3 Zr5 1_555 1_555
O19_6 Zr5 1_555 1_555
O14_9 Zr10 1_555 1_555
O15_9 Zr10 1_555 1_555
O22_6 Zr10 1_555 1_555
O25_4 Zr5_2 1_555 1_555
O24_4 Zr5_2 1_555 1_555
O14_10 Zr10_2 1_555 1_555
O15_10 Zr10_2 1_555 1_555
O26_4 Zr5_2 1_555 1_555
O18_6 Zr5_2 1_555 1_555
O13_5 Zr6 1_555 1_555
O14_11 Zr11_2 1_555 1_555
O15_11 Zr11_2 1_555 1_555
O16_5 Zr6 1_555 1_555
O22_7 Zr11_2 1_555 1_555
O23_5 Zr11_2 1_555 1_555
O26_5 Zr11_2 1_555 1_555
Zr11_2 O13_5 1_555 1_555
Zr11_2 O16_5 1_555 1_555
O6_5 Zr6_2 1_555 1_555
O13_6 Zr6_2 1_555 1_555
Zr11_3 O6_5 1_555 1_555
O18_7 Zr6_2 1_555 1_555
O13_6 Zr11_3 1_555 1_555
Zr11_3 O23_6 1_555 1_555
Zr11_3 O25_5 1_555 1_555
O3_5 Zr6_3 1_555 1_555
O16_6 Zr6_3 1_555 1_555
Zr11_4 O3_5 1_555 1_555
O19_7 Zr6_3 1_555 1_555
O16_6 Zr11_4 1_555 1_555
Zr11_4 O24_5 1_555 1_555
Zr11_4 O26_6 1_555 1_555
Zr11 O3_6 1_555 1_555
O3_6 Zr6_4 1_555 1_555
O4_11 Zr11 1_555 1_555
O5_11 Zr11 1_555 1_555
O6_6 Zr6_4 1_555 1_555
O21_7 Zr11 1_555 1_555
O24_6 Zr11 1_555 1_555
O25_6 Zr11 1_555 1_555
Zr11 O6_6 1_555 1_555
O23_5 Zr6_5 1_555 1_555
O26_5 Zr6_5 1_555 1_555
O19_8 Zr6_5 1_555 1_555
O23_6 Zr6_6 1_555 1_555
O4_12 Zr11_3 1_555 1_555
O5_12 Zr11_3 1_555 1_555
O25_5 Zr6_6 1_555 1_555
O21_8 Zr11_3 1_555 1_555
O24_5 Zr6_7 1_555 1_555
O14_12 Zr11_4 1_555 1_555
O15_12 Zr11_4 1_555 1_555
O26_6 Zr6_7 1_555 1_555
O22_8 Zr11_4 1_555 1_555
O25_6 Zr6_8 1_555 1_555
O24_6 Zr6_8 1_555 1_555
O18_8 Zr6_8 1_555 1_555
O18_2 C2_5 1_555 1_555
O21 C2_5 1_555 1_555
C1_5 C2_5 1_555 1_555
C3_5 C4_5 1_555 1_555
C4_5 H1_5 1_555 1_555
C5_5 C3_5 1_555 1_555
C6_5 C3_5 1_555 1_555
H2_5 C6_5 1_555 1_555
H3_5 C6_5 1_555 1_555
C7_5 C5_5 1_555 1_555
C8_5 C1_5 1_555 1_555
H4_5 C8_5 1_555 1_555
C9_5 C7_5 1_555 1_555
H5_5 C9_5 1_555 1_555
C10_5 C1_5 1_555 1_555
H6_5 C10_5 1_555 1_555
C11_5 C7_5 1_555 1_555
H7_5 C11_5 1_555 1_555
O19_3 C13_5 1_555 1_555
O22_4 C13_5 1_555 1_555
C12_5 C13_5 1_555 1_555
C14_5 C15_5 1_555 1_555
C15_5 C5_5 1_555 1_555
H8_5 C15_5 1_555 1_555
C16_5 C4_5 1_555 1_555
C17_5 C14_5 1_555 1_555
H9_5 C17_5 1_555 1_555
H10_5 C17_5 1_555 1_555
C18_5 C16_5 1_555 1_555
C19_5 C12_5 1_555 1_555
H11_5 C19_5 1_555 1_555
C20_5 C18_5 1_555 1_555
H12_5 C20_5 1_555 1_555
C21_5 C12_5 1_555 1_555
H13_5 C21_5 1_555 1_555
C22_5 C18_5 1_555 1_555
H14_5 C22_5 1_555 1_555
O18_5 C24_5 1_555 1_555
O21_6 C24_5 1_555 1_555
C23_5 C24_5 1_555 1_555
C25_5 C26_5 1_555 1_555
C26_5 H15_5 1_555 1_555
C27_5 C25_5 1_555 1_555
C28_5 C6_5 1_555 1_555
H16_5 C28_5 1_555 1_555
H17_5 C28_5 1_555 1_555
C29_5 C27_5 1_555 1_555
C30_5 C23_5 1_555 1_555
H18_5 C30_5 1_555 1_555
C31_5 C29_5 1_555 1_555
H19_5 C31_5 1_555 1_555
C32_5 C23_5 1_555 1_555
H20_5 C32_5 1_555 1_555
C33_5 C29_5 1_555 1_555
H21_5 C33_5 1_555 1_555
O19_8 C35_5 1_555 1_555
O22_7 C35_5 1_555 1_555
C34_5 C35_5 1_555 1_555
C36_5 C37_5 1_555 1_555
C37_5 C27_5 1_555 1_555
H22_5 C37_5 1_555 1_555
C38_5 C26_5 1_555 1_555
C39_5 C17_5 1_555 1_555
H23_5 C39_5 1_555 1_555
H24_5 C39_5 1_555 1_555
C40_5 C38_5 1_555 1_555
C41_5 C34_5 1_555 1_555
H25_5 C41_5 1_555 1_555
C42_5 C40_5 1_555 1_555
H26_5 C42_5 1_555 1_555
C43_5 C34_5 1_555 1_555
H27_5 C43_5 1_555 1_555
C44_5 C40_5 1_555 1_555
H28_5 C44_5 1_555 1_555
C8_5 C11_5 1_555 1_555
C9_5 C10_5 1_555 1_555
C14_5 C16_5 1_555 1_555
C19_5 C22_5 1_555 1_555
C20_5 C21_5 1_555 1_555
C25_5 C28_5 1_555 1_555
C30_5 C33_5 1_555 1_555
C31_5 C32_5 1_555 1_555
C36_5 C38_5 1_555 1_555
C36_5 C39_5 1_555 1_555
C41_5 C44_5 1_555 1_555
C42_5 C43_5 1_555 1_555
O19_2 C2_6 1_555 1_555
O22 C2_6 1_555 1_555
C1_6 C2_6 1_555 1_555
C3_6 C4_6 1_555 1_555
C4_6 H1_6 1_555 1_555
C5_6 C3_6 1_555 1_555
C6_6 C3_6 1_555 1_555
H2_6 C6_6 1_555 1_555
H3_6 C6_6 1_555 1_555
C7_6 C5_6 1_555 1_555
C8_6 C1_6 1_555 1_555
H4_6 C8_6 1_555 1_555
C9_6 C7_6 1_555 1_555
H5_6 C9_6 1_555 1_555
C10_6 C1_6 1_555 1_555
H6_6 C10_6 1_555 1_555
C11_6 C7_6 1_555 1_555
H7_6 C11_6 1_555 1_555
O18_3 C13_6 1_555 1_555
O21_4 C13_6 1_555 1_555
C12_6 C13_6 1_555 1_555
C14_6 C15_6 1_555 1_555
C15_6 C5_6 1_555 1_555
H8_6 C15_6 1_555 1_555
C16_6 C4_6 1_555 1_555
C17_6 C14_6 1_555 1_555
H9_6 C17_6 1_555 1_555
H10_6 C17_6 1_555 1_555
C18_6 C16_6 1_555 1_555
C19_6 C12_6 1_555 1_555
H11_6 C19_6 1_555 1_555
C20_6 C18_6 1_555 1_555
H12_6 C20_6 1_555 1_555
C21_6 C12_6 1_555 1_555
H13_6 C21_6 1_555 1_555
C22_6 C18_6 1_555 1_555
H14_6 C22_6 1_555 1_555
O19_5 C24_6 1_555 1_555
O22_6 C24_6 1_555 1_555
C23_6 C24_6 1_555 1_555
C25_6 C26_6 1_555 1_555
C26_6 H15_6 1_555 1_555
C27_6 C25_6 1_555 1_555
C28_6 C6_6 1_555 1_555
H16_6 C28_6 1_555 1_555
H17_6 C28_6 1_555 1_555
C29_6 C27_6 1_555 1_555
C30_6 C23_6 1_555 1_555
H18_6 C30_6 1_555 1_555
C31_6 C29_6 1_555 1_555
H19_6 C31_6 1_555 1_555
C32_6 C23_6 1_555 1_555
H20_6 C32_6 1_555 1_555
C33_6 C29_6 1_555 1_555
H21_6 C33_6 1_555 1_555
O18_8 C35_6 1_555 1_555
O21_7 C35_6 1_555 1_555
C34_6 C35_6 1_555 1_555
C36_6 C37_6 1_555 1_555
C37_6 C27_6 1_555 1_555
H22_6 C37_6 1_555 1_555
C38_6 C26_6 1_555 1_555
C39_6 C17_6 1_555 1_555
H23_6 C39_6 1_555 1_555
H24_6 C39_6 1_555 1_555
C40_6 C38_6 1_555 1_555
C41_6 C34_6 1_555 1_555
H25_6 C41_6 1_555 1_555
C42_6 C40_6 1_555 1_555
H26_6 C42_6 1_555 1_555
C43_6 C34_6 1_555 1_555
H27_6 C43_6 1_555 1_555
C44_6 C40_6 1_555 1_555
H28_6 C44_6 1_555 1_555
C8_6 C11_6 1_555 1_555
C9_6 C10_6 1_555 1_555
C14_6 C16_6 1_555 1_555
C19_6 C22_6 1_555 1_555
C20_6 C21_6 1_555 1_555
C25_6 C28_6 1_555 1_555
C30_6 C33_6 1_555 1_555
C31_6 C32_6 1_555 1_555
C36_6 C38_6 1_555 1_555
C36_6 C39_6 1_555 1_555
C41_6 C44_6 1_555 1_555
C42_6 C43_6 1_555 1_555
O18 C2_7 1_555 1_555
O21_2 C2_7 1_555 1_555
C1_7 C2_7 1_555 1_555
C3_7 C4_7 1_555 1_555
C4_7 H1_7 1_555 1_555
C5_7 C3_7 1_555 1_555
C6_7 C3_7 1_555 1_555
H2_7 C6_7 1_555 1_555
H3_7 C6_7 1_555 1_555
C7_7 C5_7 1_555 1_555
C8_7 C1_7 1_555 1_555
H4_7 C8_7 1_555 1_555
C9_7 C7_7 1_555 1_555
H5_7 C9_7 1_555 1_555
C10_7 C1_7 1_555 1_555
H6_7 C10_7 1_555 1_555
C11_7 C7_7 1_555 1_555
H7_7 C11_7 1_555 1_555
O19_4 C13_7 1_555 1_555
O22_3 C13_7 1_555 1_555
C12_7 C13_7 1_555 1_555
C14_7 C15_7 1_555 1_555
C15_7 C5_7 1_555 1_555
H8_7 C15_7 1_555 1_555
C16_7 C4_7 1_555 1_555
C17_7 C14_7 1_555 1_555
H9_7 C17_7 1_555 1_555
H10_7 C17_7 1_555 1_555
C18_7 C16_7 1_555 1_555
C19_7 C12_7 1_555 1_555
H11_7 C19_7 1_555 1_555
C20_7 C18_7 1_555 1_555
H12_7 C20_7 1_555 1_555
C21_7 C12_7 1_555 1_555
H13_7 C21_7 1_555 1_555
C22_7 C18_7 1_555 1_555
H14_7 C22_7 1_555 1_555
O18_6 C24_7 1_555 1_555
O21_5 C24_7 1_555 1_555
C23_7 C24_7 1_555 1_555
C25_7 C26_7 1_555 1_555
C26_7 H15_7 1_555 1_555
C27_7 C25_7 1_555 1_555
C28_7 C6_7 1_555 1_555
H16_7 C28_7 1_555 1_555
H17_7 C28_7 1_555 1_555
C29_7 C27_7 1_555 1_555
C30_7 C23_7 1_555 1_555
H18_7 C30_7 1_555 1_555
C31_7 C29_7 1_555 1_555
H19_7 C31_7 1_555 1_555
C32_7 C23_7 1_555 1_555
H20_7 C32_7 1_555 1_555
C33_7 C29_7 1_555 1_555
H21_7 C33_7 1_555 1_555
O19_7 C35_7 1_555 1_555
O22_8 C35_7 1_555 1_555
C34_7 C35_7 1_555 1_555
C36_7 C37_7 1_555 1_555
C37_7 C27_7 1_555 1_555
H22_7 C37_7 1_555 1_555
C38_7 C26_7 1_555 1_555
C39_7 C17_7 1_555 1_555
H23_7 C39_7 1_555 1_555
H24_7 C39_7 1_555 1_555
C40_7 C38_7 1_555 1_555
C41_7 C34_7 1_555 1_555
H25_7 C41_7 1_555 1_555
C42_7 C40_7 1_555 1_555
H26_7 C42_7 1_555 1_555
C43_7 C34_7 1_555 1_555
H27_7 C43_7 1_555 1_555
C44_7 C40_7 1_555 1_555
H28_7 C44_7 1_555 1_555
C8_7 C11_7 1_555 1_555
C9_7 C10_7 1_555 1_555
C14_7 C16_7 1_555 1_555
C19_7 C22_7 1_555 1_555
C20_7 C21_7 1_555 1_555
C25_7 C28_7 1_555 1_555
C30_7 C33_7 1_555 1_555
C31_7 C32_7 1_555 1_555
C36_7 C38_7 1_555 1_555
C36_7 C39_7 1_555 1_555
C41_7 C44_7 1_555 1_555
C42_7 C43_7 1_555 1_555
O19 C2_8 1_555 1_555
O22_2 C2_8 1_555 1_555
C1_8 C2_8 1_555 1_555
C3_8 C4_8 1_555 1_555
C4_8 H1_8 1_555 1_555
C5_8 C3_8 1_555 1_555
C6_8 C3_8 1_555 1_555
H2_8 C6_8 1_555 1_555
H3_8 C6_8 1_555 1_555
C7_8 C5_8 1_555 1_555
C8_8 C1_8 1_555 1_555
H4_8 C8_8 1_555 1_555
C9_8 C7_8 1_555 1_555
H5_8 C9_8 1_555 1_555
C10_8 C1_8 1_555 1_555
H6_8 C10_8 1_555 1_555
C11_8 C7_8 1_555 1_555
H7_8 C11_8 1_555 1_555
O18_4 C13_8 1_555 1_555
O21_3 C13_8 1_555 1_555
C12_8 C13_8 1_555 1_555
C14_8 C15_8 1_555 1_555
C15_8 C5_8 1_555 1_555
H8_8 C15_8 1_555 1_555
C16_8 C4_8 1_555 1_555
C17_8 C14_8 1_555 1_555
H9_8 C17_8 1_555 1_555
H10_8 C17_8 1_555 1_555
C18_8 C16_8 1_555 1_555
C19_8 C12_8 1_555 1_555
H11_8 C19_8 1_555 1_555
C20_8 C18_8 1_555 1_555
H12_8 C20_8 1_555 1_555
C21_8 C12_8 1_555 1_555
H13_8 C21_8 1_555 1_555
C22_8 C18_8 1_555 1_555
H14_8 C22_8 1_555 1_555
O19_6 C24_8 1_555 1_555
O22_5 C24_8 1_555 1_555
C23_8 C24_8 1_555 1_555
C25_8 C26_8 1_555 1_555
C26_8 H15_8 1_555 1_555
C27_8 C25_8 1_555 1_555
C28_8 C6_8 1_555 1_555
H16_8 C28_8 1_555 1_555
H17_8 C28_8 1_555 1_555
C29_8 C27_8 1_555 1_555
C30_8 C23_8 1_555 1_555
H18_8 C30_8 1_555 1_555
C31_8 C29_8 1_555 1_555
H19_8 C31_8 1_555 1_555
C32_8 C23_8 1_555 1_555
H20_8 C32_8 1_555 1_555
C33_8 C29_8 1_555 1_555
H21_8 C33_8 1_555 1_555
O18_7 C35_8 1_555 1_555
O21_8 C35_8 1_555 1_555
C34_8 C35_8 1_555 1_555
C36_8 C37_8 1_555 1_555
C37_8 C27_8 1_555 1_555
H22_8 C37_8 1_555 1_555
C38_8 C26_8 1_555 1_555
C39_8 C17_8 1_555 1_555
H23_8 C39_8 1_555 1_555
H24_8 C39_8 1_555 1_555
C40_8 C38_8 1_555 1_555
C41_8 C34_8 1_555 1_555
H25_8 C41_8 1_555 1_555
C42_8 C40_8 1_555 1_555
H26_8 C42_8 1_555 1_555
C43_8 C34_8 1_555 1_555
H27_8 C43_8 1_555 1_555
C44_8 C40_8 1_555 1_555
H28_8 C44_8 1_555 1_555
C8_8 C11_8 1_555 1_555
C9_8 C10_8 1_555 1_555
C14_8 C16_8 1_555 1_555
C19_8 C22_8 1_555 1_555
C20_8 C21_8 1_555 1_555
C25_8 C28_8 1_555 1_555
C30_8 C33_8 1_555 1_555
C31_8 C32_8 1_555 1_555
C36_8 C38_8 1_555 1_555
C36_8 C39_8 1_555 1_555
C41_8 C44_8 1_555 1_555
C42_8 C43_8 1_555 1_555

#END
