
###############################################################################
#
# This file contains modified crystal structure data generated from the
# MOF subset of the Cambridge Structural Database (CSD) v543 
# hosted by the Cambridge Crystallographic Data Centre (CCDC).
#
# This work is licensed under the Creative Commons
# Attribution-NonCommercial-ShareAlike 4.0 International License.
# To view a copy of this license, visit
# http://creativecommons.org/licenses/by-nc-sa/4.0/
# or send a letter to
# Creative Commons, PO Box 1866, Mountain View, CA 94042, USA.
#
# CIF created using the CSD Python API on 29 September 2022
# The structure has been converted into the P1 space group
# The structure has a 3D framework
# The original CSD entry QAPQEE is in the monoclinic crystal system
# The framework has been calculated to contain at least 10.0% void space
# The void calculation uses a probe of radius 1.32A, grid spacing 0.4
# The framework is charged, counterions have been retained in the structure
#
###############################################################################

data_QAPQEE
_chemical_formula_moiety         '(C96 H80 Ag8 F48 N48 P8)n'
_symmetry_cell_setting           triclinic
_symmetry_space_group_name_H-M   'P 1'
_symmetry_Int_Tables_number      1
_space_group_name_Hall           'P 1'
loop_
_symmetry_equiv_pos_site_id
_symmetry_equiv_pos_as_xyz
1 x,y,z
_cell_length_a                   15.2035(10)
_cell_length_b                   16.5919(11)
_cell_length_c                   16.1240(10)
_cell_angle_alpha                90
_cell_angle_beta                 116.8490(10)
_cell_angle_gamma                90
_cell_volume                     3628.9
loop_
_atom_site_label
_atom_site_type_symbol
_atom_site_fract_x
_atom_site_fract_y
_atom_site_fract_z
C6 C 0.3896(3) 0.09724(18) 0.0986(2)
H5 H 0.4002 0.0855 0.1601
C7 C 0.3674(3) 0.1752(2) 0.0673(2)
H6 H 0.3637 0.2162 0.1067
N2 N 0.39687(16) 0.03704(13) 0.04698(14)
Ag1 Ag 0.070275(14) 0.411062(11) 0.395584(13)
C1 C 0.16677(18) 0.26358(15) 0.55504(16)
H1 H 0.1890 0.3055 0.6001
C2 C 0.20316(17) 0.18656(14) 0.58266(16)
C3 C 0.17143(19) 0.12508(15) 0.51683(17)
H2 H 0.1957 0.0717 0.5335
C4 C 0.1037(2) 0.14335(16) 0.42644(18)
H3 H 0.0806 0.1028 0.3798
C5 C 0.07047(18) 0.22158(17) 0.40574(17)
H4 H 0.0228 0.2334 0.3440
C8 C 0.3505(3) 0.19315(18) 0.9771(2)
H7 H 0.3342 0.2464 0.9534
C9 C 0.35782(19) 0.13167(15) 0.92283(17)
C10 C 0.38134(18) 0.05481(15) 0.96051(16)
H8 H 0.3867 0.0128 0.9230
C11 C 0.27620(18) 0.16705(13) 0.67845(16)
C12 C 0.34293(18) 0.14270(14) 0.82700(16)
N1 N 0.10146(15) 0.28183(13) 0.46741(14)
N3 N 0.40322(15) 0.11563(12) 0.79582(13)
N4 N 0.36062(15) 0.13110(12) 0.70120(13)
N5 N 0.26295(15) 0.17698(12) 0.75621(13)
N6 N 0.18221(19) 0.20960(16) 0.76514(16)
H9 H 0.132(2) 0.1817(19) 0.728(2)
H10 H 0.182(2) 0.263(2) 0.750(2)
Ag3 Ag 0.570275(14) 0.088938(11) 0.895584(13)
Ag4 Ag 0.429725(14) 0.088938(11) 0.604416(13)
N7 N 0.10313(16) 0.53704(13) 0.45302(14)
N9 N 0.13938(15) 0.36890(12) 0.29880(13)
Ag3_2 Ag 0.070275(14) 0.588938(11) 0.895584(13)
N7_2 N 0.60313(16) 0.03704(13) 0.45302(14)
N8 N 0.09678(15) 0.38437(12) 0.20418(13)
C1_2 C 0.83323(18) 0.26358(15) 0.94496(16)
H1_2 H 0.8110 0.3055 0.8999
C2_2 C 0.79684(17) 0.18656(14) 0.91734(16)
C3_2 C 0.82857(19) 0.12508(15) 0.98317(17)
H2_2 H 0.8043 0.0717 0.9665
C6_2 C 0.6104(3) 0.09724(18) 0.4014(2)
H5_2 H 0.5998 0.0855 0.3399
C7_2 C 0.6326(3) 0.1752(2) 0.4327(2)
H6_2 H 0.6363 0.2162 0.3933
C8_2 C 0.6495(3) 0.19315(18) 0.5229(2)
H7_2 H 0.6658 0.2464 0.5466
C9_2 C 0.64218(19) 0.13167(15) 0.57717(17)
C10_2 C 0.61866(18) 0.05481(15) 0.53949(16)
H8_2 H 0.6133 0.0128 0.5770
C11_2 C 0.72380(18) 0.16705(13) 0.82155(16)
C12_2 C 0.65707(18) 0.14270(14) 0.67300(16)
N3_2 N 0.59678(15) 0.11563(12) 0.70418(13)
N4_2 N 0.63938(15) 0.13110(12) 0.79880(13)
N5_2 N 0.73705(15) 0.17698(12) 0.74379(13)
N6_2 N 0.81779(19) 0.20960(16) 0.73486(16)
H9_2 H 0.868(2) 0.1817(19) 0.772(2)
H10_2 H 0.818(2) 0.263(2) 0.750(2)
C1_3 C 0.33323(18) 0.76358(15) 0.94496(16)
H1_3 H 0.3110 0.8055 0.8999
C2_3 C 0.29684(17) 0.68656(14) 0.91734(16)
C3_3 C 0.32857(19) 0.62508(15) 0.98317(17)
H2_3 H 0.3043 0.5717 0.9665
C6_3 C 0.1104(3) 0.59724(18) 0.4014(2)
H5_3 H 0.0998 0.5855 0.3399
C7_3 C 0.1326(3) 0.6752(2) 0.4327(2)
H6_3 H 0.1363 0.7162 0.3933
C8_3 C 0.1495(3) 0.69315(18) 0.5229(2)
H7_3 H 0.1658 0.7464 0.5466
C9_3 C 0.14218(19) 0.63167(15) 0.57717(17)
C10_3 C 0.11866(18) 0.55481(15) 0.53949(16)
H8_3 H 0.1133 0.5128 0.5770
C11_3 C 0.22380(18) 0.66705(13) 0.82155(16)
C12_3 C 0.15707(18) 0.64270(14) 0.67300(16)
N3_3 N 0.09678(15) 0.61563(12) 0.70418(13)
N4_3 N 0.13938(15) 0.63110(12) 0.79880(13)
N5_3 N 0.23705(15) 0.67698(12) 0.74379(13)
N6_3 N 0.31779(19) 0.70960(16) 0.73486(16)
H9_3 H 0.368(2) 0.6817(19) 0.772(2)
H10_3 H 0.318(2) 0.763(2) 0.750(2)
C1_4 C 0.33323(18) 0.23642(15) 0.44496(16)
H1_4 H 0.3110 0.1945 0.3999
C2_4 C 0.29684(17) 0.31344(14) 0.41734(16)
C3_4 C 0.32857(19) 0.37492(15) 0.48317(17)
H2_4 H 0.3043 0.4283 0.4665
C4_2 C 0.3963(2) 0.35665(16) 0.57356(18)
H3_2 H 0.4194 0.3972 0.6202
C5_2 C 0.42953(18) 0.27842(17) 0.59426(17)
H4_2 H 0.4772 0.2666 0.6560
C8_4 C 0.1495(3) 0.30685(18) 0.0229(2)
H7_4 H 0.1658 0.2536 0.0466
C9_4 C 0.14218(19) 0.36833(15) 0.07717(17)
C10_4 C 0.11866(18) 0.44519(15) 0.03949(16)
H8_4 H 0.1133 0.4872 0.0770
C11_4 C 0.22380(18) 0.33295(13) 0.32155(16)
C12_4 C 0.15707(18) 0.35730(14) 0.17300(16)
N1_2 N 0.39854(15) 0.21817(13) 0.53259(14)
N5_4 N 0.23705(15) 0.32302(12) 0.24379(13)
N6_4 N 0.31779(19) 0.29040(16) 0.23486(16)
H9_4 H 0.368(2) 0.3183(19) 0.272(2)
H10_4 H 0.318(2) 0.237(2) 0.250(2)
C6_4 C 0.1104(3) 0.40276(18) 0.9014(2)
H5_4 H 0.0998 0.4145 0.8399
C7_4 C 0.1326(3) 0.3248(2) 0.9327(2)
H6_4 H 0.1363 0.2838 0.8933
N2_2 N 0.10313(16) 0.46296(13) 0.95302(14)
C4_3 C 0.1037(2) 0.85665(16) 0.92644(18)
H3_3 H 0.0806 0.8972 0.8798
C5_3 C 0.07047(18) 0.77842(17) 0.90574(17)
H4_3 H 0.0228 0.7666 0.8440
N1_3 N 0.10146(15) 0.71817(13) 0.96741(14)
C4_4 C 0.6037(2) 0.35665(16) 0.92644(18)
H3_4 H 0.5806 0.3972 0.8798
C5_4 C 0.57047(18) 0.27842(17) 0.90574(17)
H4_4 H 0.5228 0.2666 0.8440
N1_4 N 0.60146(15) 0.21817(13) 0.96741(14)
Ag2 Ag 0.429725(14) 0.911062(11) 0.104416(13)
N8_2 N 0.90322(15) 0.38437(12) 0.29582(13)
C6_5 C 0.8896(3) 0.59724(18) 0.0986(2)
H5_5 H 0.9002 0.5855 0.1601
C7_5 C 0.8674(3) 0.6752(2) 0.0673(2)
H6_5 H 0.8637 0.7162 0.1067
N2_3 N 0.89687(16) 0.53704(13) 0.04698(14)
Ag2_2 Ag 0.929725(14) 0.411062(11) 0.104416(13)
Ag1_2 Ag 0.570275(14) 0.911062(11) 0.395584(13)
C1_5 C 0.66677(18) 0.76358(15) 0.55504(16)
H1_5 H 0.6890 0.8055 0.6001
C2_5 C 0.70316(17) 0.68656(14) 0.58266(16)
C3_5 C 0.67143(19) 0.62508(15) 0.51683(17)
H2_5 H 0.6957 0.5717 0.5335
C4_5 C 0.6037(2) 0.64335(16) 0.42644(18)
H3_5 H 0.5806 0.6028 0.3798
C5_5 C 0.57047(18) 0.72158(17) 0.40574(17)
H4_5 H 0.5228 0.7334 0.3440
C8_5 C 0.8505(3) 0.69315(18) 0.9771(2)
H7_5 H 0.8342 0.7464 0.9534
C9_5 C 0.85782(19) 0.63167(15) 0.92283(17)
C10_5 C 0.88134(18) 0.55481(15) 0.96051(16)
H8_5 H 0.8867 0.5128 0.9230
C11_5 C 0.77620(18) 0.66705(13) 0.67845(16)
C12_5 C 0.84293(18) 0.64270(14) 0.82700(16)
N1_5 N 0.60146(15) 0.78183(13) 0.46741(14)
N3_4 N 0.90322(15) 0.61563(12) 0.79582(13)
N4_4 N 0.86062(15) 0.63110(12) 0.70120(13)
N5_5 N 0.76295(15) 0.67698(12) 0.75621(13)
N6_5 N 0.68221(19) 0.70960(16) 0.76514(16)
H9_5 H 0.632(2) 0.6817(19) 0.728(2)
H10_5 H 0.682(2) 0.763(2) 0.750(2)
Ag4_2 Ag 0.929725(14) 0.588938(11) 0.604416(13)
N8_3 N 0.40322(15) 0.88437(12) 0.29582(13)
N9_2 N 0.63938(15) 0.86890(12) 0.29880(13)
C4_6 C 0.8963(2) 0.14335(16) 0.07356(18)
H3_6 H 0.9194 0.1028 0.1202
C5_6 C 0.92953(18) 0.22158(17) 0.09426(17)
H4_6 H 0.9772 0.2334 0.1560
N1_6 N 0.89854(15) 0.28183(13) 0.03259(14)
N9_3 N 0.86062(15) 0.36890(12) 0.20120(13)
C4_7 C 0.3963(2) 0.64335(16) 0.07356(18)
H3_7 H 0.4194 0.6028 0.1202
C5_7 C 0.42953(18) 0.72158(17) 0.09426(17)
H4_7 H 0.4772 0.7334 0.1560
N1_7 N 0.39854(15) 0.78183(13) 0.03259(14)
N8_4 N 0.59678(15) 0.88437(12) 0.20418(13)
N9_4 N 0.36062(15) 0.86890(12) 0.20120(13)
C1_6 C 0.83323(18) 0.73642(15) 0.44496(16)
H1_6 H 0.8110 0.6945 0.3999
C2_6 C 0.79684(17) 0.81344(14) 0.41734(16)
C3_6 C 0.82857(19) 0.87492(15) 0.48317(17)
H2_6 H 0.8043 0.9283 0.4665
C4_8 C 0.8963(2) 0.85665(16) 0.57356(18)
H3_8 H 0.9194 0.8972 0.6202
C5_8 C 0.92953(18) 0.77842(17) 0.59426(17)
H4_8 H 0.9772 0.7666 0.6560
C8_6 C 0.6495(3) 0.80685(18) 0.0229(2)
H7_6 H 0.6658 0.7536 0.0466
C9_6 C 0.64218(19) 0.86833(15) 0.07717(17)
C10_6 C 0.61866(18) 0.94519(15) 0.03949(16)
H8_6 H 0.6133 0.9872 0.0770
C11_6 C 0.72380(18) 0.83295(13) 0.32155(16)
C12_6 C 0.65707(18) 0.85730(14) 0.17300(16)
N1_8 N 0.89854(15) 0.71817(13) 0.53259(14)
N5_6 N 0.73705(15) 0.82302(12) 0.24379(13)
N6_6 N 0.81779(19) 0.79040(16) 0.23486(16)
H9_6 H 0.868(2) 0.8183(19) 0.272(2)
H10_6 H 0.818(2) 0.737(2) 0.250(2)
N7_3 N 0.89687(16) 0.46296(13) 0.54698(14)
N7_4 N 0.39687(16) 0.96296(13) 0.54698(14)
C1_7 C 0.16677(18) 0.73642(15) 0.05504(16)
H1_7 H 0.1890 0.6945 0.1001
C2_7 C 0.20316(17) 0.81344(14) 0.08266(16)
C3_7 C 0.17143(19) 0.87492(15) 0.01683(17)
H2_7 H 0.1957 0.9283 0.0335
C6_6 C 0.3896(3) 0.90276(18) 0.5986(2)
H5_6 H 0.4002 0.9145 0.6601
C7_6 C 0.3674(3) 0.8248(2) 0.5673(2)
H6_6 H 0.3637 0.7838 0.6067
C8_7 C 0.3505(3) 0.80685(18) 0.4771(2)
H7_7 H 0.3342 0.7536 0.4534
C9_7 C 0.35782(19) 0.86833(15) 0.42283(17)
C10_7 C 0.38134(18) 0.94519(15) 0.46051(16)
H8_7 H 0.3867 0.9872 0.4230
C11_7 C 0.27620(18) 0.83295(13) 0.17845(16)
C12_7 C 0.34293(18) 0.85730(14) 0.32700(16)
N5_7 N 0.26295(15) 0.82302(12) 0.25621(13)
N6_7 N 0.18221(19) 0.79040(16) 0.26514(16)
H9_7 H 0.132(2) 0.8183(19) 0.228(2)
H10_7 H 0.182(2) 0.737(2) 0.250(2)
C1_8 C 0.66677(18) 0.23642(15) 0.05504(16)
H1_8 H 0.6890 0.1945 0.1001
C2_8 C 0.70316(17) 0.31344(14) 0.08266(16)
C3_8 C 0.67143(19) 0.37492(15) 0.01683(17)
H2_8 H 0.6957 0.4283 0.0335
C6_7 C 0.8896(3) 0.40276(18) 0.5986(2)
H5_7 H 0.9002 0.4145 0.6601
C7_7 C 0.8674(3) 0.3248(2) 0.5673(2)
H6_7 H 0.8637 0.2838 0.6067
C8_8 C 0.8505(3) 0.30685(18) 0.4771(2)
H7_8 H 0.8342 0.2536 0.4534
C9_8 C 0.85782(19) 0.36833(15) 0.42283(17)
C10_8 C 0.88134(18) 0.44519(15) 0.46051(16)
H8_8 H 0.8867 0.4872 0.4230
C11_8 C 0.77620(18) 0.33295(13) 0.17845(16)
C12_8 C 0.84293(18) 0.35730(14) 0.32700(16)
N5_8 N 0.76295(15) 0.32302(12) 0.25621(13)
N6_8 N 0.68221(19) 0.29040(16) 0.26514(16)
H9_8 H 0.632(2) 0.3183(19) 0.228(2)
H10_8 H 0.682(2) 0.237(2) 0.250(2)
C6_8 C 0.6104(3) 0.90276(18) 0.9014(2)
H5_8 H 0.5998 0.9145 0.8399
C7_8 C 0.6326(3) 0.8248(2) 0.9327(2)
H6_8 H 0.6363 0.7838 0.8933
N2_4 N 0.60313(16) 0.96296(13) 0.95302(14)
P1 P 0.3005(3) 0.4211(2) 0.7878(3)
F1 F 0.3432(9) 0.3511(6) 0.7463(8)
F2 F 0.2588(3) 0.4891(2) 0.8275(3)
F3 F 0.3024(3) 0.4822(3) 0.7129(4)
F4 F 0.1912(8) 0.3945(7) 0.7183(5)
F5 F 0.2999(3) 0.3591(2) 0.8616(2)
F6 F 0.4109(2) 0.4468(2) 0.8594(3)
P1_2 P 0.8005(3) 0.9211(2) 0.7878(3)
F1_2 F 0.8432(9) 0.8511(6) 0.7463(8)
F2_2 F 0.7588(3) 0.9891(2) 0.8275(3)
F3_2 F 0.8024(3) 0.9822(3) 0.7129(4)
F4_2 F 0.6912(8) 0.8945(7) 0.7183(5)
F5_2 F 0.7999(3) 0.8591(2) 0.8616(2)
F6_2 F 0.9109(2) 0.9468(2) 0.8594(3)
P1_3 P 0.6995(3) 0.4211(2) 0.7122(3)
F1_3 F 0.6568(9) 0.3511(6) 0.7537(8)
F2_3 F 0.7412(3) 0.4891(2) 0.6725(3)
F3_3 F 0.6976(3) 0.4822(3) 0.7871(4)
F4_3 F 0.8088(8) 0.3945(7) 0.7817(5)
F5_3 F 0.7001(3) 0.3591(2) 0.6384(2)
F6_3 F 0.5891(2) 0.4468(2) 0.6406(3)
P1_4 P 0.1995(3) 0.9211(2) 0.7122(3)
F1_4 F 0.1568(9) 0.8511(6) 0.7537(8)
F2_4 F 0.2412(3) 0.9891(2) 0.6725(3)
F3_4 F 0.1976(3) 0.9822(3) 0.7871(4)
F4_4 F 0.3088(8) 0.8945(7) 0.7817(5)
F5_4 F 0.2001(3) 0.8591(2) 0.6384(2)
F6_4 F 0.0891(2) 0.9468(2) 0.6406(3)
P1_5 P 0.6995(3) 0.5789(2) 0.2122(3)
F1_5 F 0.6568(9) 0.6489(6) 0.2537(8)
F2_5 F 0.7412(3) 0.5109(2) 0.1725(3)
F3_5 F 0.6976(3) 0.5178(3) 0.2871(4)
F4_5 F 0.8088(8) 0.6055(7) 0.2817(5)
F5_5 F 0.7001(3) 0.6409(2) 0.1384(2)
F6_5 F 0.5891(2) 0.5532(2) 0.1406(3)
P1_6 P 0.1995(3) 0.0789(2) 0.2122(3)
F1_6 F 0.1568(9) 0.1489(6) 0.2537(8)
F2_6 F 0.2412(3) 0.0109(2) 0.1725(3)
F3_6 F 0.1976(3) 0.0178(3) 0.2871(4)
F4_6 F 0.3088(8) 0.1055(7) 0.2817(5)
F5_6 F 0.2001(3) 0.1409(2) 0.1384(2)
F6_6 F 0.0891(2) 0.0532(2) 0.1406(3)
P1_7 P 0.3005(3) 0.5789(2) 0.2878(3)
F1_7 F 0.3432(9) 0.6489(6) 0.2463(8)
F2_7 F 0.2588(3) 0.5109(2) 0.3275(3)
F3_7 F 0.3024(3) 0.5178(3) 0.2129(4)
F4_7 F 0.1912(8) 0.6055(7) 0.2183(5)
F5_7 F 0.2999(3) 0.6409(2) 0.3616(2)
F6_7 F 0.4109(2) 0.5532(2) 0.3594(3)
P1_8 P 0.8005(3) 0.0789(2) 0.2878(3)
F1_8 F 0.8432(9) 0.1489(6) 0.2463(8)
F2_8 F 0.7588(3) 0.0109(2) 0.3275(3)
F3_8 F 0.8024(3) 0.0178(3) 0.2129(4)
F4_8 F 0.6912(8) 0.1055(7) 0.2183(5)
F5_8 F 0.7999(3) 0.1409(2) 0.3616(2)
F6_8 F 0.9109(2) 0.0532(2) 0.3594(3)
loop_
_geom_bond_atom_site_label_1
_geom_bond_atom_site_label_2
_geom_bond_site_symmetry_1
_geom_bond_site_symmetry_2
C6 H5 1_555 1_555
C7 C6 1_555 1_555
H6 C7 1_555 1_555
N2 C6 1_555 1_555
Ag1 N1 1_555 1_555
C1 H1 1_555 1_555
C2 C1 1_555 1_555
C3 C2 1_555 1_555
H2 C3 1_555 1_555
C4 C3 1_555 1_555
H3 C4 1_555 1_555
C5 C4 1_555 1_555
H4 C5 1_555 1_555
H7 C8 1_555 1_555
C9 C8 1_555 1_555
C10 C9 1_555 1_555
H8 C10 1_555 1_555
C11 C2 1_555 1_555
C12 C9 1_555 1_555
N1 C1 1_555 1_555
N3 C12 1_555 1_555
N4 C11 1_555 1_555
N5 C11 1_555 1_555
N6 N5 1_555 1_555
H9 N6 1_555 1_555
H10 N6 1_555 1_555
Ag3 N3 1_555 1_555
Ag4 N4 1_555 1_555
N7 Ag1 1_555 1_555
N9 Ag1 1_555 1_555
C5 N1 1_555 1_555
C12 N5 1_555 1_555
N3 N4 1_555 1_555
C1_2 H1_2 1_555 1_555
C2_2 C1_2 1_555 1_555
C3_2 C2_2 1_555 1_555
H2_2 C3_2 1_555 1_555
C6_2 H5_2 1_555 1_555
C7_2 C6_2 1_555 1_555
H6_2 C7_2 1_555 1_555
C8_2 C7_2 1_555 1_555
H7_2 C8_2 1_555 1_555
C9_2 C8_2 1_555 1_555
C10_2 C9_2 1_555 1_555
H8_2 C10_2 1_555 1_555
C11_2 C2_2 1_555 1_555
C12_2 C9_2 1_555 1_555
N7_2 C6_2 1_555 1_555
N3_2 C12_2 1_555 1_555
N4_2 C11_2 1_555 1_555
N5_2 C11_2 1_555 1_555
N6_2 N5_2 1_555 1_555
H9_2 N6_2 1_555 1_555
H10_2 N6_2 1_555 1_555
Ag4 N3_2 1_555 1_555
Ag3 N4_2 1_555 1_555
C10_2 N7_2 1_555 1_555
C12_2 N5_2 1_555 1_555
N3_2 N4_2 1_555 1_555
C1_3 H1_3 1_555 1_555
C2_3 C1_3 1_555 1_555
C3_3 C2_3 1_555 1_555
H2_3 C3_3 1_555 1_555
C6_3 H5_3 1_555 1_555
C7_3 C6_3 1_555 1_555
H6_3 C7_3 1_555 1_555
C8_3 C7_3 1_555 1_555
H7_3 C8_3 1_555 1_555
C9_3 C8_3 1_555 1_555
C10_3 C9_3 1_555 1_555
H8_3 C10_3 1_555 1_555
C11_3 C2_3 1_555 1_555
C12_3 C9_3 1_555 1_555
N7 C6_3 1_555 1_555
N3_3 C12_3 1_555 1_555
N4_3 C11_3 1_555 1_555
N5_3 C11_3 1_555 1_555
N6_3 N5_3 1_555 1_555
H9_3 N6_3 1_555 1_555
H10_3 N6_3 1_555 1_555
Ag3_2 N4_3 1_555 1_555
C10_3 N7 1_555 1_555
C12_3 N5_3 1_555 1_555
N3_3 N4_3 1_555 1_555
Ag4 N1_2 1_555 1_555
C1_4 H1_4 1_555 1_555
C2_4 C1_4 1_555 1_555
C3_4 C2_4 1_555 1_555
H2_4 C3_4 1_555 1_555
C4_2 C3_4 1_555 1_555
H3_2 C4_2 1_555 1_555
C5_2 C4_2 1_555 1_555
H4_2 C5_2 1_555 1_555
H7_4 C8_4 1_555 1_555
C9_4 C8_4 1_555 1_555
C10_4 C9_4 1_555 1_555
H8_4 C10_4 1_555 1_555
C11_4 C2_4 1_555 1_555
C12_4 C9_4 1_555 1_555
N1_2 C1_4 1_555 1_555
N8 C12_4 1_555 1_555
N9 C11_4 1_555 1_555
N5_4 C11_4 1_555 1_555
N6_4 N5_4 1_555 1_555
H9_4 N6_4 1_555 1_555
H10_4 N6_4 1_555 1_555
C5_2 N1_2 1_555 1_555
C12_4 N5_4 1_555 1_555
N8 N9 1_555 1_555
C6_4 H5_4 1_555 1_555
C7_4 C6_4 1_555 1_555
H6_4 C7_4 1_555 1_555
N2_2 C6_4 1_555 1_555
Ag3_2 N2_2 1_555 1_555
Ag3_2 N1_3 1_555 1_555
H3_3 C4_3 1_555 1_555
C5_3 C4_3 1_555 1_555
H4_3 C5_3 1_555 1_555
C5_3 N1_3 1_555 1_555
Ag3 N1_4 1_555 1_555
H3_4 C4_4 1_555 1_555
C5_4 C4_4 1_555 1_555
H4_4 C5_4 1_555 1_555
C5_4 N1_4 1_555 1_555
C6_5 H5_5 1_555 1_555
C7_5 C6_5 1_555 1_555
H6_5 C7_5 1_555 1_555
N2_3 C6_5 1_555 1_555
Ag2_2 N2_3 1_555 1_555
Ag1_2 N1_5 1_555 1_555
C1_5 H1_5 1_555 1_555
C2_5 C1_5 1_555 1_555
C3_5 C2_5 1_555 1_555
H2_5 C3_5 1_555 1_555
C4_5 C3_5 1_555 1_555
H3_5 C4_5 1_555 1_555
C5_5 C4_5 1_555 1_555
H4_5 C5_5 1_555 1_555
H7_5 C8_5 1_555 1_555
C9_5 C8_5 1_555 1_555
C10_5 C9_5 1_555 1_555
H8_5 C10_5 1_555 1_555
C11_5 C2_5 1_555 1_555
C12_5 C9_5 1_555 1_555
N1_5 C1_5 1_555 1_555
N3_4 C12_5 1_555 1_555
N4_4 C11_5 1_555 1_555
N5_5 C11_5 1_555 1_555
N6_5 N5_5 1_555 1_555
H9_5 N6_5 1_555 1_555
H10_5 N6_5 1_555 1_555
Ag4_2 N4_4 1_555 1_555
N8_3 Ag1_2 1_555 1_555
N9_2 Ag1_2 1_555 1_555
C5_5 N1_5 1_555 1_555
C12_5 N5_5 1_555 1_555
N3_4 N4_4 1_555 1_555
Ag2_2 N1_6 1_555 1_555
H3_6 C4_6 1_555 1_555
C5_6 C4_6 1_555 1_555
H4_6 C5_6 1_555 1_555
N9_3 Ag2_2 1_555 1_555
C5_6 N1_6 1_555 1_555
Ag2 N1_7 1_555 1_555
H3_7 C4_7 1_555 1_555
C5_7 C4_7 1_555 1_555
H4_7 C5_7 1_555 1_555
N8_4 Ag2 1_555 1_555
N9_4 Ag2 1_555 1_555
C5_7 N1_7 1_555 1_555
Ag4_2 N1_8 1_555 1_555
C1_6 H1_6 1_555 1_555
C2_6 C1_6 1_555 1_555
C3_6 C2_6 1_555 1_555
H2_6 C3_6 1_555 1_555
C4_8 C3_6 1_555 1_555
H3_8 C4_8 1_555 1_555
C5_8 C4_8 1_555 1_555
H4_8 C5_8 1_555 1_555
H7_6 C8_6 1_555 1_555
C9_6 C8_6 1_555 1_555
C10_6 C9_6 1_555 1_555
H8_6 C10_6 1_555 1_555
C11_6 C2_6 1_555 1_555
C12_6 C9_6 1_555 1_555
N1_8 C1_6 1_555 1_555
N8_4 C12_6 1_555 1_555
N9_2 C11_6 1_555 1_555
N5_6 C11_6 1_555 1_555
N6_6 N5_6 1_555 1_555
H9_6 N6_6 1_555 1_555
H10_6 N6_6 1_555 1_555
N7_3 Ag4_2 1_555 1_555
C5_8 N1_8 1_555 1_555
C12_6 N5_6 1_555 1_555
N8_4 N9_2 1_555 1_555
C1_7 H1_7 1_555 1_555
C2_7 C1_7 1_555 1_555
C3_7 C2_7 1_555 1_555
H2_7 C3_7 1_555 1_555
C6_6 H5_6 1_555 1_555
C7_6 C6_6 1_555 1_555
H6_6 C7_6 1_555 1_555
C8_7 C7_6 1_555 1_555
H7_7 C8_7 1_555 1_555
C9_7 C8_7 1_555 1_555
C10_7 C9_7 1_555 1_555
H8_7 C10_7 1_555 1_555
C11_7 C2_7 1_555 1_555
C12_7 C9_7 1_555 1_555
N7_4 C6_6 1_555 1_555
N8_3 C12_7 1_555 1_555
N9_4 C11_7 1_555 1_555
N5_7 C11_7 1_555 1_555
N6_7 N5_7 1_555 1_555
H9_7 N6_7 1_555 1_555
H10_7 N6_7 1_555 1_555
C10_7 N7_4 1_555 1_555
C12_7 N5_7 1_555 1_555
N8_3 N9_4 1_555 1_555
C1_8 H1_8 1_555 1_555
C2_8 C1_8 1_555 1_555
C3_8 C2_8 1_555 1_555
H2_8 C3_8 1_555 1_555
C6_7 H5_7 1_555 1_555
C7_7 C6_7 1_555 1_555
H6_7 C7_7 1_555 1_555
C8_8 C7_7 1_555 1_555
H7_8 C8_8 1_555 1_555
C9_8 C8_8 1_555 1_555
C10_8 C9_8 1_555 1_555
H8_8 C10_8 1_555 1_555
C11_8 C2_8 1_555 1_555
C12_8 C9_8 1_555 1_555
N7_3 C6_7 1_555 1_555
N8_2 C12_8 1_555 1_555
N9_3 C11_8 1_555 1_555
N5_8 C11_8 1_555 1_555
N6_8 N5_8 1_555 1_555
H9_8 N6_8 1_555 1_555
H10_8 N6_8 1_555 1_555
C10_8 N7_3 1_555 1_555
C12_8 N5_8 1_555 1_555
N8_2 N9_3 1_555 1_555
C6_8 H5_8 1_555 1_555
C7_8 C6_8 1_555 1_555
H6_8 C7_8 1_555 1_555
N2_4 C6_8 1_555 1_555
P1 F1 1_555 1_555
F2 P1 1_555 1_555
F3 P1 1_555 1_555
F4 P1 1_555 1_555
F5 P1 1_555 1_555
F6 P1 1_555 1_555
P1_2 F1_2 1_555 1_555
F2_2 P1_2 1_555 1_555
F3_2 P1_2 1_555 1_555
F4_2 P1_2 1_555 1_555
F5_2 P1_2 1_555 1_555
F6_2 P1_2 1_555 1_555
P1_3 F1_3 1_555 1_555
F2_3 P1_3 1_555 1_555
F3_3 P1_3 1_555 1_555
F4_3 P1_3 1_555 1_555
F5_3 P1_3 1_555 1_555
F6_3 P1_3 1_555 1_555
P1_4 F1_4 1_555 1_555
F2_4 P1_4 1_555 1_555
F3_4 P1_4 1_555 1_555
F4_4 P1_4 1_555 1_555
F5_4 P1_4 1_555 1_555
F6_4 P1_4 1_555 1_555
P1_5 F1_5 1_555 1_555
F2_5 P1_5 1_555 1_555
F3_5 P1_5 1_555 1_555
F4_5 P1_5 1_555 1_555
F5_5 P1_5 1_555 1_555
F6_5 P1_5 1_555 1_555
P1_6 F1_6 1_555 1_555
F2_6 P1_6 1_555 1_555
F3_6 P1_6 1_555 1_555
F4_6 P1_6 1_555 1_555
F5_6 P1_6 1_555 1_555
F6_6 P1_6 1_555 1_555
P1_7 F1_7 1_555 1_555
F2_7 P1_7 1_555 1_555
F3_7 P1_7 1_555 1_555
F4_7 P1_7 1_555 1_555
F5_7 P1_7 1_555 1_555
F6_7 P1_7 1_555 1_555
P1_8 F1_8 1_555 1_555
F2_8 P1_8 1_555 1_555
F3_8 P1_8 1_555 1_555
F4_8 P1_8 1_555 1_555
F5_8 P1_8 1_555 1_555
F6_8 P1_8 1_555 1_555

#END
