
###############################################################################
#
# This file contains modified crystal structure data generated from the
# MOF subset of the Cambridge Structural Database (CSD) v543 
# hosted by the Cambridge Crystallographic Data Centre (CCDC).
#
# This work is licensed under the Creative Commons
# Attribution-NonCommercial-ShareAlike 4.0 International License.
# To view a copy of this license, visit
# http://creativecommons.org/licenses/by-nc-sa/4.0/
# or send a letter to
# Creative Commons, PO Box 1866, Mountain View, CA 94042, USA.
#
# CIF created using the CSD Python API on 29 September 2022
# The structure has been converted into the P1 space group
# The structure has a 3D framework
# The original CSD entry QAPQAA is in the monoclinic crystal system
# The framework has been calculated to contain at least 10.0% void space
# The void calculation uses a probe of radius 1.32A, grid spacing 0.4
# The framework is charged, counterions have been retained in the structure
#
###############################################################################

data_QAPQAA
_chemical_formula_moiety         '(C96 H80 Ag8 Cl8 N48 O32)n'
_symmetry_cell_setting           triclinic
_symmetry_space_group_name_H-M   'P 1'
_symmetry_Int_Tables_number      1
_space_group_name_Hall           'P 1'
loop_
_symmetry_equiv_pos_site_id
_symmetry_equiv_pos_as_xyz
1 x,y,z
_cell_length_a                   14.1747(10)
_cell_length_b                   16.2713(11)
_cell_length_c                   15.9983(11)
_cell_angle_alpha                90
_cell_angle_beta                 114.9410(10)
_cell_angle_gamma                90
_cell_volume                     3345.75
loop_
_atom_site_label
_atom_site_type_symbol
_atom_site_fract_x
_atom_site_fract_y
_atom_site_fract_z
C11 C 0.43689(18) 0.55719(14) 0.06148(15)
H7 H 0.4729 0.5124 0.0998
C12 C 0.45252(17) 0.63634(14) 0.09620(14)
H8 H 0.5008 0.6449 0.1584
N6 N 0.40232(13) 0.70151(11) 0.04564(12)
Ag4 Ag 0.430223(12) 0.826722(9) 0.108044(10)
Ag2 Ag 0.930223(12) 0.673278(9) 0.608044(10)
N7 N 0.90212(13) 0.37270(10) 0.30235(11)
C11_2 C 0.93689(18) 0.05719(14) 0.06148(15)
H7_2 H 0.9729 0.0124 0.0998
C12_2 C 0.95252(17) 0.13634(14) 0.09620(14)
N6_2 N 0.90232(13) 0.20151(11) 0.04564(12)
Ag4_2 Ag 0.930223(12) 0.326722(9) 0.108044(10)
Ag1 Ag 0.569777(12) 0.826722(9) 0.391956(10)
C1 C 0.64082(15) 0.98112(12) 0.55077(14)
H1 H 0.6614 0.9389 0.5960
H6 H 0.8566 0.9898 0.9449
N1 N 0.61502(13) 0.96056(10) 0.46249(12)
H10 H 0.825(2) 0.9770(18) 0.7435(19)
N7_2 N 0.40212(13) 0.87270(10) 0.30235(11)
N8 N 0.64736(13) 0.85953(10) 0.29181(11)
N9 N 0.59768(13) 0.70151(11) 0.45436(12)
C4 C 0.91721(18) 0.60269(14) 0.07852(16)
H3 H 0.9377 0.6436 0.1252
C5 C 0.91258(17) 0.52101(14) 0.10001(14)
H4 H 0.9299 0.5070 0.1624
N1_2 N 0.88498(13) 0.46056(10) 0.03751(12)
N8_2 N 0.85264(13) 0.35953(10) 0.20819(11)
C1_2 C 0.85918(15) 0.48112(12) 0.94923(14)
H1_2 H 0.8386 0.4389 0.9040
C2 C 0.86144(15) 0.56204(12) 0.92163(13)
C3 C 0.89143(17) 0.62385(13) 0.98760(14)
H2 H 0.8942 0.6795 0.9707
C6 C 0.83908(15) 0.58434(11) 0.82587(13)
C7 C 0.76112(15) 0.60511(11) 0.67816(13)
C8 C 0.66467(15) 0.68859(12) 0.54223(14)
H5 H 0.7009 0.7343 0.5785
C9 C 0.68335(15) 0.61096(12) 0.58262(13)
C10 C 0.63187(17) 0.54356(13) 0.52970(15)
H6_2 H 0.6434 0.4898 0.5551
C11_3 C 0.56311(18) 0.55719(14) 0.43852(15)
H7_3 H 0.5271 0.5124 0.4002
C12_3 C 0.54748(17) 0.63634(14) 0.40380(14)
H8_2 H 0.4992 0.6449 0.3416
N2 N 0.90212(13) 0.62730(10) 0.80235(11)
N3 N 0.85264(13) 0.64047(10) 0.70819(11)
N4 N 0.74987(12) 0.56790(10) 0.74955(11)
N5 N 0.65984(14) 0.52640(13) 0.74210(13)
H9 H 0.639(2) 0.5499(18) 0.775(2)
H10_2 H 0.675(2) 0.4770(18) 0.7565(19)
N1_3 N 0.38498(13) 0.96056(10) 0.03751(12)
N7_3 N 0.59788(13) 0.87270(10) 0.19765(11)
N8_3 N 0.35264(13) 0.85953(10) 0.20819(11)
C1_3 C 0.85918(15) 0.51888(12) 0.44923(14)
H1_3 H 0.8386 0.5611 0.4040
C2_2 C 0.86144(15) 0.43796(12) 0.42163(13)
C3_2 C 0.89143(17) 0.37615(13) 0.48760(14)
H2_2 H 0.8942 0.3205 0.4707
C4_2 C 0.91721(18) 0.39731(14) 0.57852(16)
H3_2 H 0.9377 0.3564 0.6252
C5_2 C 0.91258(17) 0.47899(14) 0.60001(14)
H4_2 H 0.9299 0.4930 0.6624
C6_2 C 0.83908(15) 0.41566(11) 0.32587(13)
C7_2 C 0.76112(15) 0.39489(11) 0.17816(13)
C8_2 C 0.66467(15) 0.31141(12) 0.04223(14)
H5_2 H 0.7009 0.2657 0.0785
C9_2 C 0.68335(15) 0.38904(12) 0.08262(13)
C10_2 C 0.63187(17) 0.45644(13) 0.02970(15)
H6_3 H 0.6434 0.5102 0.0551
N1_4 N 0.88498(13) 0.53944(10) 0.53751(12)
N4_2 N 0.74987(12) 0.43210(10) 0.24955(11)
N5_2 N 0.65984(14) 0.47360(13) 0.24210(13)
H9_2 H 0.639(2) 0.4501(18) 0.275(2)
H10_3 H 0.675(2) 0.5230(18) 0.2565(19)
N9_2 N 0.90232(13) 0.79849(11) 0.54564(12)
C2_3 C 0.36144(15) 0.93796(12) 0.42163(13)
C3_3 C 0.39143(17) 0.87615(13) 0.48760(14)
H2_3 H 0.3942 0.8205 0.4707
C4_3 C 0.41721(18) 0.89731(14) 0.57852(16)
H3_3 H 0.4377 0.8564 0.6252
C5_3 C 0.41258(17) 0.97899(14) 0.60001(14)
H4_3 H 0.4299 0.9930 0.6624
C6_3 C 0.33908(15) 0.91566(11) 0.32587(13)
C7_3 C 0.26112(15) 0.89489(11) 0.17816(13)
C8_3 C 0.16467(15) 0.81141(12) 0.04223(14)
H5_3 H 0.2009 0.7657 0.0785
C9_3 C 0.18335(15) 0.88904(12) 0.08262(13)
C10_3 C 0.13187(17) 0.95644(13) 0.02970(15)
N4_3 N 0.24987(12) 0.93210(10) 0.24955(11)
N5_3 N 0.15984(14) 0.97360(13) 0.24210(13)
H9_3 H 0.139(2) 0.9501(18) 0.275(2)
C2_4 C 0.63856(15) 0.93796(12) 0.07837(13)
C3_4 C 0.60857(17) 0.87615(13) 0.01240(14)
H2_4 H 0.6058 0.8205 0.0293
C6_4 C 0.66092(15) 0.91566(11) 0.17413(13)
C7_4 C 0.73888(15) 0.89489(11) 0.32184(13)
C8_4 C 0.83533(15) 0.81141(12) 0.45777(14)
H5_4 H 0.7991 0.7657 0.4215
C9_4 C 0.81665(15) 0.88904(12) 0.41738(13)
C10_4 C 0.86813(17) 0.95644(13) 0.47030(15)
C11_4 C 0.93689(18) 0.94281(14) 0.56148(15)
H7_4 H 0.9729 0.9876 0.5998
C12_4 C 0.95252(17) 0.86366(14) 0.59620(14)
N4_4 N 0.75013(12) 0.93210(10) 0.25045(11)
N5_4 N 0.84016(14) 0.97360(13) 0.25790(13)
H9_4 H 0.861(2) 0.9501(18) 0.225(2)
Ag1_2 Ag 0.069777(12) 0.326722(9) 0.391956(10)
C1_4 C 0.14082(15) 0.48112(12) 0.55077(14)
H1_4 H 0.1614 0.4389 0.5960
C2_5 C 0.13856(15) 0.56204(12) 0.57837(13)
C3_5 C 0.10857(17) 0.62385(13) 0.51240(14)
H2_5 H 0.1058 0.6795 0.5293
C4_4 C 0.08279(18) 0.60269(14) 0.42148(16)
H3_4 H 0.0623 0.6436 0.3748
C5_4 C 0.08742(17) 0.52101(14) 0.39999(14)
H4_4 H 0.0701 0.5070 0.3376
C6_5 C 0.16092(15) 0.58434(11) 0.67413(13)
C7_5 C 0.23888(15) 0.60511(11) 0.82184(13)
C8_5 C 0.33533(15) 0.68859(12) 0.95777(14)
H5_5 H 0.2991 0.7343 0.9215
C9_5 C 0.31665(15) 0.61096(12) 0.91738(13)
C10_5 C 0.36813(17) 0.54356(13) 0.97030(15)
H6_4 H 0.3566 0.4898 0.9449
N1_5 N 0.11502(13) 0.46056(10) 0.46249(12)
N2_2 N 0.09788(13) 0.62730(10) 0.69765(11)
N3_2 N 0.14736(13) 0.64047(10) 0.79181(11)
N4_5 N 0.25013(12) 0.56790(10) 0.75045(11)
N5_5 N 0.34016(14) 0.52640(13) 0.75790(13)
H9_5 H 0.361(2) 0.5499(18) 0.725(2)
H10_4 H 0.325(2) 0.4770(18) 0.7435(19)
Ag3 Ag 0.069777(12) 0.673278(9) 0.891956(10)
N8_4 N 0.14736(13) 0.35953(10) 0.29181(11)
N9_3 N 0.09768(13) 0.20151(11) 0.45436(12)
C2_6 C 0.63856(15) 0.06204(12) 0.57837(13)
C3_6 C 0.60857(17) 0.12385(13) 0.51240(14)
H2_6 H 0.6058 0.1795 0.5293
C4_5 C 0.58279(18) 0.10269(14) 0.42148(16)
H3_5 H 0.5623 0.1436 0.3748
C5_5 C 0.58742(17) 0.02101(14) 0.39999(14)
H4_5 H 0.5701 0.0070 0.3376
C6_6 C 0.66092(15) 0.08434(11) 0.67413(13)
C7_6 C 0.73888(15) 0.10511(11) 0.82184(13)
C8_6 C 0.83533(15) 0.18859(12) 0.95777(14)
H5_6 H 0.7991 0.2343 0.9215
C9_6 C 0.81665(15) 0.11096(12) 0.91738(13)
C10_6 C 0.86813(17) 0.04356(13) 0.97030(15)
N2_3 N 0.59788(13) 0.12730(10) 0.69765(11)
N3_3 N 0.64736(13) 0.14047(10) 0.79181(11)
N4_6 N 0.75013(12) 0.06790(10) 0.75045(11)
N5_6 N 0.84016(14) 0.02640(13) 0.75790(13)
H9_6 H 0.861(2) 0.0499(18) 0.725(2)
Ag2_2 Ag 0.430223(12) 0.173278(9) 0.608044(10)
Ag3_2 Ag 0.569777(12) 0.173278(9) 0.891956(10)
N7_4 N 0.09788(13) 0.37270(10) 0.19765(11)
C2_7 C 0.36144(15) 0.06204(12) 0.92163(13)
C3_7 C 0.39143(17) 0.12385(13) 0.98760(14)
H2_7 H 0.3942 0.1795 0.9707
C6_7 C 0.33908(15) 0.08434(11) 0.82587(13)
C7_7 C 0.26112(15) 0.10511(11) 0.67816(13)
C8_7 C 0.16467(15) 0.18859(12) 0.54223(14)
H5_7 H 0.2009 0.2343 0.5785
C9_7 C 0.18335(15) 0.11096(12) 0.58262(13)
C10_7 C 0.13187(17) 0.04356(13) 0.52970(15)
C11_5 C 0.06311(18) 0.05719(14) 0.43852(15)
H7_5 H 0.0271 0.0124 0.4002
C12_5 C 0.04748(17) 0.13634(14) 0.40380(14)
N2_4 N 0.40212(13) 0.12730(10) 0.80235(11)
N3_4 N 0.35264(13) 0.14047(10) 0.70819(11)
N4_7 N 0.24987(12) 0.06790(10) 0.74955(11)
N5_7 N 0.15984(14) 0.02640(13) 0.74210(13)
H9_7 H 0.139(2) 0.0499(18) 0.775(2)
C11_6 C 0.56311(18) 0.44281(14) 0.93852(15)
H7_6 H 0.5271 0.4876 0.9002
C12_6 C 0.54748(17) 0.36366(14) 0.90380(14)
H8_3 H 0.4992 0.3551 0.8416
N6_3 N 0.59768(13) 0.29849(11) 0.95436(12)
C1_5 C 0.35918(15) 0.01888(12) 0.44923(14)
H1_5 H 0.3386 0.0611 0.4040
H6_5 H 0.1434 0.0102 0.0551
N1_6 N 0.38498(13) 0.03944(10) 0.53751(12)
H10_5 H 0.175(2) 0.0230(18) 0.2565(19)
N9_4 N 0.40232(13) 0.29849(11) 0.54564(12)
C11_7 C 0.06311(18) 0.94281(14) 0.93852(15)
H7_7 H 0.0271 0.9876 0.9002
C12_7 C 0.04748(17) 0.86366(14) 0.90380(14)
N6_4 N 0.09768(13) 0.79849(11) 0.95436(12)
C1_6 C 0.14082(15) 0.51888(12) 0.05077(14)
H1_6 H 0.1614 0.5611 0.0960
C2_8 C 0.13856(15) 0.43796(12) 0.07837(13)
C3_8 C 0.10857(17) 0.37615(13) 0.01240(14)
H2_8 H 0.1058 0.3205 0.0293
C6_8 C 0.16092(15) 0.41566(11) 0.17413(13)
C7_8 C 0.23888(15) 0.39489(11) 0.32184(13)
C8_8 C 0.33533(15) 0.31141(12) 0.45777(14)
H5_8 H 0.2991 0.2657 0.4215
C9_8 C 0.31665(15) 0.38904(12) 0.41738(13)
C10_8 C 0.36813(17) 0.45644(13) 0.47030(15)
H6_6 H 0.3566 0.5102 0.4449
C11_8 C 0.43689(18) 0.44281(14) 0.56148(15)
H7_8 H 0.4729 0.4876 0.5998
C12_8 C 0.45252(17) 0.36366(14) 0.59620(14)
H8_4 H 0.5008 0.3551 0.6584
N4_8 N 0.25013(12) 0.43210(10) 0.25045(11)
N5_8 N 0.34016(14) 0.47360(13) 0.25790(13)
H9_8 H 0.361(2) 0.4501(18) 0.225(2)
H10_6 H 0.325(2) 0.5230(18) 0.2435(19)
C4_6 C 0.08279(18) 0.39731(14) 0.92148(16)
H3_6 H 0.0623 0.3564 0.8748
C5_6 C 0.08742(17) 0.47899(14) 0.89999(14)
H4_6 H 0.0701 0.4930 0.8376
N1_7 N 0.11502(13) 0.53944(10) 0.96249(12)
N1_8 N 0.61502(13) 0.03944(10) 0.96249(12)
H8_5 H 0.0008 0.1449 0.1584
C4_7 C 0.41721(18) 0.10269(14) 0.07852(16)
H3_7 H 0.4377 0.1436 0.1252
C5_7 C 0.41258(17) 0.02101(14) 0.10001(14)
H4_7 H 0.4299 0.0070 0.1624
C1_7 C 0.35918(15) 0.98112(12) 0.94923(14)
H1_7 H 0.3386 0.9389 0.9040
H6_7 H 0.1434 0.9898 0.5551
H10_7 H 0.175(2) 0.9770(18) 0.7565(19)
H8_6 H 0.9992 0.1449 0.3416
H8_7 H 0.9992 0.8551 0.8416
H8_8 H 0.0008 0.8551 0.6584
C1_8 C 0.64082(15) 0.01888(12) 0.05077(14)
H1_8 H 0.6614 0.0611 0.0960
H6_8 H 0.8566 0.0102 0.4449
H10_8 H 0.825(2) 0.0230(18) 0.2435(19)
C4_8 C 0.58279(18) 0.89731(14) 0.92148(16)
H3_8 H 0.5623 0.8564 0.8748
C5_8 C 0.58742(17) 0.97899(14) 0.89999(14)
H4_8 H 0.5701 0.9930 0.8376
Cl1 Cl 0.26912(5) 0.82645(3) 0.72979(4)
O1 O 0.20683(15) 0.83785(10) 0.78062(13)
O2 O 0.3320(10) 0.7565(4) 0.7622(8)
O3 O 0.3296(6) 0.8976(6) 0.7394(5)
O4 O 0.1977(7) 0.8156(8) 0.6344(3)
Cl1_2 Cl 0.76912(5) 0.32645(3) 0.72979(4)
O1_2 O 0.70683(15) 0.33785(10) 0.78062(13)
O2_2 O 0.8320(10) 0.2565(4) 0.7622(8)
O3_2 O 0.8296(6) 0.3976(6) 0.7394(5)
O4_2 O 0.6977(7) 0.3156(8) 0.6344(3)
Cl1_3 Cl 0.73088(5) 0.82645(3) 0.77021(4)
O1_3 O 0.79317(15) 0.83785(10) 0.71938(13)
O2_3 O 0.6680(10) 0.7565(4) 0.7378(8)
O3_3 O 0.6704(6) 0.8976(6) 0.7606(5)
O4_3 O 0.8023(7) 0.8156(8) 0.8656(3)
Cl1_4 Cl 0.23088(5) 0.32645(3) 0.77021(4)
O1_4 O 0.29317(15) 0.33785(10) 0.71938(13)
O2_4 O 0.1680(10) 0.2565(4) 0.7378(8)
O3_4 O 0.1704(6) 0.3976(6) 0.7606(5)
O4_4 O 0.3023(7) 0.3156(8) 0.8656(3)
Cl1_5 Cl 0.73088(5) 0.17355(3) 0.27021(4)
O1_5 O 0.79317(15) 0.16215(10) 0.21938(13)
O2_5 O 0.6680(10) 0.2435(4) 0.2378(8)
O3_5 O 0.6704(6) 0.1024(6) 0.2606(5)
O4_5 O 0.8023(7) 0.1844(8) 0.3656(3)
Cl1_6 Cl 0.23088(5) 0.67355(3) 0.27021(4)
O1_6 O 0.29317(15) 0.66215(10) 0.21938(13)
O2_6 O 0.1680(10) 0.7435(4) 0.2378(8)
O3_6 O 0.1704(6) 0.6024(6) 0.2606(5)
O4_6 O 0.3023(7) 0.6844(8) 0.3656(3)
Cl1_7 Cl 0.26912(5) 0.17355(3) 0.22979(4)
O1_7 O 0.20683(15) 0.16215(10) 0.28062(13)
O2_7 O 0.3320(10) 0.2435(4) 0.2622(8)
O3_7 O 0.3296(6) 0.1024(6) 0.2394(5)
O4_7 O 0.1977(7) 0.1844(8) 0.1344(3)
Cl1_8 Cl 0.76912(5) 0.67355(3) 0.22979(4)
O1_8 O 0.70683(15) 0.66215(10) 0.28062(13)
O2_8 O 0.8320(10) 0.7435(4) 0.2622(8)
O3_8 O 0.8296(6) 0.6024(6) 0.2394(5)
O4_8 O 0.6977(7) 0.6844(8) 0.1344(3)
loop_
_geom_bond_atom_site_label_1
_geom_bond_atom_site_label_2
_geom_bond_site_symmetry_1
_geom_bond_site_symmetry_2
H7 C11 1_555 1_555
C12 C11 1_555 1_555
H8 C12 1_555 1_555
Ag4 N6 1_555 1_555
C12 N6 1_555 1_555
H7_2 C11_2 1_555 1_555
C12_2 C11_2 1_555 1_555
Ag4_2 N6_2 1_555 1_555
C12_2 N6_2 1_555 1_555
Ag1 N1 1_555 1_555
C1 H1 1_555 1_555
N1 C1 1_555 1_555
N7_2 Ag1 1_555 1_555
N8 Ag1 1_555 1_555
N9 Ag1 1_555 1_555
Ag4_2 N1_2 1_555 1_555
H3 C4 1_555 1_555
C5 C4 1_555 1_555
H4 C5 1_555 1_555
N8_2 Ag4_2 1_555 1_555
C5 N1_2 1_555 1_555
C1_2 H1_2 1_555 1_555
C2 C1_2 1_555 1_555
C3 C2 1_555 1_555
H2 C3 1_555 1_555
C6 C2 1_555 1_555
C7 C9 1_555 1_555
C8 H5 1_555 1_555
C9 C8 1_555 1_555
C10 C9 1_555 1_555
H6_2 C10 1_555 1_555
C11_3 C10 1_555 1_555
H7_3 C11_3 1_555 1_555
C12_3 C11_3 1_555 1_555
H8_2 C12_3 1_555 1_555
N2 C6 1_555 1_555
N3 C7 1_555 1_555
N4 C6 1_555 1_555
N5 N4 1_555 1_555
H9 N5 1_555 1_555
H10_2 N5 1_555 1_555
N9 C8 1_555 1_555
Ag2 N3 1_555 1_555
C7 N4 1_555 1_555
C12_3 N9 1_555 1_555
N2 N3 1_555 1_555
Ag4 N1_3 1_555 1_555
N7_3 Ag4 1_555 1_555
N8_3 Ag4 1_555 1_555
Ag2 N1_4 1_555 1_555
C1_3 H1_3 1_555 1_555
C2_2 C1_3 1_555 1_555
C3_2 C2_2 1_555 1_555
H2_2 C3_2 1_555 1_555
C4_2 C3_2 1_555 1_555
H3_2 C4_2 1_555 1_555
C5_2 C4_2 1_555 1_555
H4_2 C5_2 1_555 1_555
C6_2 C2_2 1_555 1_555
C7_2 C9_2 1_555 1_555
C8_2 H5_2 1_555 1_555
C9_2 C8_2 1_555 1_555
C10_2 C9_2 1_555 1_555
H6_3 C10_2 1_555 1_555
N1_4 C1_3 1_555 1_555
N7 C6_2 1_555 1_555
N8_2 C7_2 1_555 1_555
N4_2 C6_2 1_555 1_555
N5_2 N4_2 1_555 1_555
H9_2 N5_2 1_555 1_555
H10_3 N5_2 1_555 1_555
N9_2 Ag2 1_555 1_555
C5_2 N1_4 1_555 1_555
C7_2 N4_2 1_555 1_555
N7 N8_2 1_555 1_555
C3_3 C2_3 1_555 1_555
H2_3 C3_3 1_555 1_555
C4_3 C3_3 1_555 1_555
H3_3 C4_3 1_555 1_555
C5_3 C4_3 1_555 1_555
H4_3 C5_3 1_555 1_555
C6_3 C2_3 1_555 1_555
C7_3 C9_3 1_555 1_555
C8_3 H5_3 1_555 1_555
C9_3 C8_3 1_555 1_555
C10_3 C9_3 1_555 1_555
N7_2 C6_3 1_555 1_555
N8_3 C7_3 1_555 1_555
N4_3 C6_3 1_555 1_555
N5_3 N4_3 1_555 1_555
H9_3 N5_3 1_555 1_555
C7_3 N4_3 1_555 1_555
N7_2 N8_3 1_555 1_555
C3_4 C2_4 1_555 1_555
H2_4 C3_4 1_555 1_555
C6_4 C2_4 1_555 1_555
C7_4 C9_4 1_555 1_555
C8_4 H5_4 1_555 1_555
C9_4 C8_4 1_555 1_555
C10_4 C9_4 1_555 1_555
C11_4 C10_4 1_555 1_555
H7_4 C11_4 1_555 1_555
C12_4 C11_4 1_555 1_555
N7_3 C6_4 1_555 1_555
N8 C7_4 1_555 1_555
N4_4 C6_4 1_555 1_555
N5_4 N4_4 1_555 1_555
H9_4 N5_4 1_555 1_555
N9_2 C8_4 1_555 1_555
C7_4 N4_4 1_555 1_555
C12_4 N9_2 1_555 1_555
N7_3 N8 1_555 1_555
Ag1_2 N1_5 1_555 1_555
C1_4 H1_4 1_555 1_555
C2_5 C1_4 1_555 1_555
C3_5 C2_5 1_555 1_555
H2_5 C3_5 1_555 1_555
C4_4 C3_5 1_555 1_555
H3_4 C4_4 1_555 1_555
C5_4 C4_4 1_555 1_555
H4_4 C5_4 1_555 1_555
C6_5 C2_5 1_555 1_555
C7_5 C9_5 1_555 1_555
C8_5 H5_5 1_555 1_555
C9_5 C8_5 1_555 1_555
C10_5 C9_5 1_555 1_555
H6_4 C10_5 1_555 1_555
N1_5 C1_4 1_555 1_555
N2_2 C6_5 1_555 1_555
N3_2 C7_5 1_555 1_555
N4_5 C6_5 1_555 1_555
N5_5 N4_5 1_555 1_555
H9_5 N5_5 1_555 1_555
H10_4 N5_5 1_555 1_555
Ag3 N3_2 1_555 1_555
N8_4 Ag1_2 1_555 1_555
N9_3 Ag1_2 1_555 1_555
C5_4 N1_5 1_555 1_555
C7_5 N4_5 1_555 1_555
N2_2 N3_2 1_555 1_555
C3_6 C2_6 1_555 1_555
H2_6 C3_6 1_555 1_555
C4_5 C3_6 1_555 1_555
H3_5 C4_5 1_555 1_555
C5_5 C4_5 1_555 1_555
H4_5 C5_5 1_555 1_555
C6_6 C2_6 1_555 1_555
C7_6 C9_6 1_555 1_555
C8_6 H5_6 1_555 1_555
C9_6 C8_6 1_555 1_555
C10_6 C9_6 1_555 1_555
N2_3 C6_6 1_555 1_555
N3_3 C7_6 1_555 1_555
N4_6 C6_6 1_555 1_555
N5_6 N4_6 1_555 1_555
H9_6 N5_6 1_555 1_555
Ag2_2 N2_3 1_555 1_555
Ag3_2 N3_3 1_555 1_555
C7_6 N4_6 1_555 1_555
N2_3 N3_3 1_555 1_555
C3_7 C2_7 1_555 1_555
H2_7 C3_7 1_555 1_555
C6_7 C2_7 1_555 1_555
C7_7 C9_7 1_555 1_555
C8_7 H5_7 1_555 1_555
C9_7 C8_7 1_555 1_555
C10_7 C9_7 1_555 1_555
C11_5 C10_7 1_555 1_555
H7_5 C11_5 1_555 1_555
C12_5 C11_5 1_555 1_555
N2_4 C6_7 1_555 1_555
N3_4 C7_7 1_555 1_555
N4_7 C6_7 1_555 1_555
N5_7 N4_7 1_555 1_555
H9_7 N5_7 1_555 1_555
N9_3 C8_7 1_555 1_555
Ag3_2 N2_4 1_555 1_555
Ag2_2 N3_4 1_555 1_555
C7_7 N4_7 1_555 1_555
C12_5 N9_3 1_555 1_555
N2_4 N3_4 1_555 1_555
H7_6 C11_6 1_555 1_555
C12_6 C11_6 1_555 1_555
H8_3 C12_6 1_555 1_555
Ag3_2 N6_3 1_555 1_555
C12_6 N6_3 1_555 1_555
Ag2_2 N1_6 1_555 1_555
C1_5 H1_5 1_555 1_555
N1_6 C1_5 1_555 1_555
N9_4 Ag2_2 1_555 1_555
H7_7 C11_7 1_555 1_555
C12_7 C11_7 1_555 1_555
Ag3 N6_4 1_555 1_555
C12_7 N6_4 1_555 1_555
C1_6 H1_6 1_555 1_555
C2_8 C1_6 1_555 1_555
C3_8 C2_8 1_555 1_555
H2_8 C3_8 1_555 1_555
C6_8 C2_8 1_555 1_555
C7_8 C9_8 1_555 1_555
C8_8 H5_8 1_555 1_555
C9_8 C8_8 1_555 1_555
C10_8 C9_8 1_555 1_555
H6_6 C10_8 1_555 1_555
C11_8 C10_8 1_555 1_555
H7_8 C11_8 1_555 1_555
C12_8 C11_8 1_555 1_555
H8_4 C12_8 1_555 1_555
N7_4 C6_8 1_555 1_555
N8_4 C7_8 1_555 1_555
N4_8 C6_8 1_555 1_555
N5_8 N4_8 1_555 1_555
H9_8 N5_8 1_555 1_555
H10_6 N5_8 1_555 1_555
N9_4 C8_8 1_555 1_555
C7_8 N4_8 1_555 1_555
C12_8 N9_4 1_555 1_555
N7_4 N8_4 1_555 1_555
Ag3 N1_7 1_555 1_555
H3_6 C4_6 1_555 1_555
C5_6 C4_6 1_555 1_555
H4_6 C5_6 1_555 1_555
C5_6 N1_7 1_555 1_555
Ag3_2 N1_8 1_555 1_555
H3_7 C4_7 1_555 1_555
C5_7 C4_7 1_555 1_555
H4_7 C5_7 1_555 1_555
C1_7 H1_7 1_555 1_555
C1_8 H1_8 1_555 1_555
H3_8 C4_8 1_555 1_555
C5_8 C4_8 1_555 1_555
H4_8 C5_8 1_555 1_555
Cl1 O1 1_555 1_555
O2 Cl1 1_555 1_555
O3 Cl1 1_555 1_555
O4 Cl1 1_555 1_555
Cl1_2 O1_2 1_555 1_555
O2_2 Cl1_2 1_555 1_555
O3_2 Cl1_2 1_555 1_555
O4_2 Cl1_2 1_555 1_555
Cl1_3 O1_3 1_555 1_555
O2_3 Cl1_3 1_555 1_555
O3_3 Cl1_3 1_555 1_555
O4_3 Cl1_3 1_555 1_555
Cl1_4 O1_4 1_555 1_555
O2_4 Cl1_4 1_555 1_555
O3_4 Cl1_4 1_555 1_555
O4_4 Cl1_4 1_555 1_555
Cl1_5 O1_5 1_555 1_555
O2_5 Cl1_5 1_555 1_555
O3_5 Cl1_5 1_555 1_555
O4_5 Cl1_5 1_555 1_555
Cl1_6 O1_6 1_555 1_555
O2_6 Cl1_6 1_555 1_555
O3_6 Cl1_6 1_555 1_555
O4_6 Cl1_6 1_555 1_555
Cl1_7 O1_7 1_555 1_555
O2_7 Cl1_7 1_555 1_555
O3_7 Cl1_7 1_555 1_555
O4_7 Cl1_7 1_555 1_555
Cl1_8 O1_8 1_555 1_555
O2_8 Cl1_8 1_555 1_555
O3_8 Cl1_8 1_555 1_555
O4_8 Cl1_8 1_555 1_555

#END
