
###############################################################################
#
# This file contains modified crystal structure data generated from the
# MOF subset of the Cambridge Structural Database (CSD) v543 
# hosted by the Cambridge Crystallographic Data Centre (CCDC).
#
# This work is licensed under the Creative Commons
# Attribution-NonCommercial-ShareAlike 4.0 International License.
# To view a copy of this license, visit
# http://creativecommons.org/licenses/by-nc-sa/4.0/
# or send a letter to
# Creative Commons, PO Box 1866, Mountain View, CA 94042, USA.
#
# CIF created using the CSD Python API on 29 September 2022
# The structure has been converted into the P1 space group
# The structure has a 3D framework
# The original CSD entry QAPWAG is in the hexagonal crystal system
# The original CSD entry QAPWAG is in a Sohncke space group
# The framework has been calculated to contain at least 10.0% void space
# The void calculation uses a probe of radius 1.32A, grid spacing 0.4
# The framework is charged, counterions have been retained in the structure
#
###############################################################################

data_QAPWAG
_chemical_formula_moiety         '(C504 H864 N234 O174 Ru6 Zn36 7+)n'
_symmetry_cell_setting           triclinic
_symmetry_space_group_name_H-M   'P 1'
_symmetry_Int_Tables_number      1
_space_group_name_Hall           'P 1'
loop_
_symmetry_equiv_pos_site_id
_symmetry_equiv_pos_as_xyz
1 x,y,z
_cell_length_a                   20.000(4)
_cell_length_b                   20.000(4)
_cell_length_c                   71.74(2)
_cell_angle_alpha                90
_cell_angle_beta                 90
_cell_angle_gamma                120
_cell_volume                     24851.5
loop_
_atom_site_label
_atom_site_type_symbol
_atom_site_fract_x
_atom_site_fract_y
_atom_site_fract_z
Zn1 Zn 0.45468(8) 0.05350(7) 0.31157(2)
N2 N 0.5724(6) 0.1408(5) 0.3055(1)
N3 N 0.4439(8) 0.1534(7) 0.3156(1)
N4 N 0.3477(6) 0.0093(7) 0.2976(1)
C1 C 0.5475(6) 0.0574(6) 0.2784(1)
C2 C 0.6037(7) 0.1123(7) 0.2907(2)
C3 C 0.566(1) 0.2111(8) 0.3010(3)
C4 C 0.525(1) 0.2250(8) 0.3131(2)
C5 C 0.373(2) 0.133(2) 0.3033(2)
C6 C 0.321(1) 0.061(1) 0.2984(3)
C7 C 0.3668(9) 0.017(1) 0.2776(2)
H1 H 0.5714 0.0346 0.2710
H2 H 0.5307 0.0840 0.2700
H3 H 0.6014 0.1503 0.3160
H4 H 0.6410 0.1562 0.2835
H5 H 0.6311 0.0893 0.2966
H6 H 0.4295 0.1530 0.3277
H7 H 0.6177 0.2558 0.3005
H8 H 0.5433 0.2045 0.2887
H10 H 0.5192 0.2680 0.3087
H11 H 0.5510 0.2393 0.3250
H12 H 0.3451 0.1547 0.3094
H13 H 0.3933 0.1618 0.2918
H14 H 0.3004 0.0622 0.2862
H15 H 0.2784 0.0413 0.3072
H17 H 0.4019 0.0697 0.2741
Zn4 Zn 0.59882(11) 0.05350(7) 0.18843(2)
N17 N 0.5684(8) 0.1408(5) 0.1945(1)
N18 N 0.7095(11) 0.1534(7) 0.1844(1)
N19 N 0.6616(9) 0.0093(7) 0.2024(1)
C43 C 0.5099(8) 0.0574(6) 0.2216(1)
C44 C 0.5086(10) 0.1123(7) 0.2093(2)
C45 C 0.6451(13) 0.2111(8) 0.1990(3)
C46 C 0.7000(13) 0.2250(8) 0.1869(2)
C47 C 0.760(3) 0.133(2) 0.1967(2)
C48 C 0.740(1) 0.061(1) 0.2016(3)
C49 C 0.6502(13) 0.017(1) 0.2224(2)
H73 H 0.4632 0.0346 0.2290
H74 H 0.5533 0.0840 0.2300
H75 H 0.5489 0.1503 0.1840
H76 H 0.5152 0.1562 0.2165
H77 H 0.4582 0.0893 0.2034
H78 H 0.7235 0.1530 0.1723
H79 H 0.6381 0.2558 0.1995
H80 H 0.6612 0.2045 0.2113
H82 H 0.7488 0.2680 0.1913
H83 H 0.6883 0.2393 0.1750
H84 H 0.8096 0.1547 0.1906
H85 H 0.7685 0.1618 0.2082
H86 H 0.7618 0.0622 0.2138
H87 H 0.7629 0.0413 0.1928
H89 H 0.6678 0.0697 0.2259
Ru1 Ru 0.33871(4) 0.67742(7) 0.2500
Zn3 Zn 0.60396(8) 0.55663(7) 0.31038(2)
O1 O 0.4532(5) 0.9980(4) 0.33310(7)
O2 O 0.4478 0.4478(5) 0.1666
N1 N 0.4796(4) 0.9954(4) 0.28776(9)
N5 N 0.4396(4) 0.7692(4) 0.26338(8)
N6 N 0.0216(4) 0.4898(4) 0.28843(9)
N7 N 0.0335(5) 0.3576(5) 0.2976(1)
N10 N 0.2502(4) 0.6841(4) 0.26549(8)
N11 N 0.5140(4) 0.5296(4) 0.28879(9)
N12 N 0.6539(5) 0.6672(5) 0.2970(1)
N13 N 0.7210(6) 0.5838(7) 0.3114(1)
N14 N 0.5841(6) 0.4461(6) 0.3018(1)
N15 N 0.3344(4) 0.5817(4) 0.26411(9)
C8 C 0.4094(7) 0.9627(7) 0.2763(1)
C9 C 0.4912(5) 0.9344(5) 0.2957(1)
C10 C 0.5002(5) 0.8837(5) 0.2819(1)
C11 C 0.4360(5) 0.8156(5) 0.2764(1)
C12 C 0.5078(4) 0.7869(4) 0.2557(1)
C13 C 0.5757(5) 0.8527(5) 0.2611(1)
C14 C 0.5716(5) 0.9017(5) 0.2744(1)
C15 C 0.0462(6) 0.4535(5) 0.2742(1)
C16 C 0.0871(6) 0.4133(6) 0.2831(1)
C23 C 0.0876(5) 0.5586(5) 0.2980(1)
C24 C 0.1347(4) 0.6206(5) 0.2849(1)
C25 C 0.2056(4) 0.6313(5) 0.2780(1)
C26 C 0.2284(4) 0.7331(4) 0.2588(1)
C27 C 0.1611(5) 0.7313(5) 0.2653(1)
C28 C 0.1161(5) 0.6775(5) 0.2784(1)
C29 C 0.5542(5) 0.5877(6) 0.2745(1)
C30 C 0.6017(6) 0.6687(6) 0.2827(1)
C31 C 0.7312(6) 0.6847(8) 0.2913(2)
C32 C 0.7693(8) 0.6634(8) 0.3056(2)
C33 C 0.7306(9) 0.5262(9) 0.3006(3)
C34 C 0.6599(9) 0.4459(8) 0.3032(2)
C35 C 0.5565(8) 0.4370(7) 0.2827(2)
C36 C 0.4929(6) 0.4529(6) 0.2812(1)
C37 C 0.4497(5) 0.5347(5) 0.2977(1)
C38 C 0.3861(5) 0.5229(5) 0.2839(1)
C39 C 0.3839(5) 0.5864(5) 0.2762(1)
C40 C 0.2810(5) 0.5115(4) 0.2576(1)
C41 C 0.2764(5) 0.4448(5) 0.2644(1)
C42 C 0.3297(5) 0.4507(5) 0.2783(1)
H9 H 0.3121 0.9606 0.3012
H16 H 0.0626 0.3530 0.3067
H18 H 0.3209 0.9957 0.2699
H20 H 0.3736 0.9108 0.2806
H21 H 0.4225 0.9596 0.2635
H23 H 0.4475 0.9023 0.3036
H24 H 0.5368 0.9584 0.3035
H25 H 0.3886 0.8015 0.2818
H26 H 0.6600 0.7022 0.3059
H27 H 0.7326 0.5802 0.3235
H28 H 0.6229 0.8638 0.2561
H29 H 0.5476 0.4085 0.3091
H30 H 0.6162 0.9461 0.2781
H31 H 0.0811 0.4925 0.2655
H32 H 0.0015 0.4158 0.2673
H33 H 0.0988 0.3859 0.2737
H34 H 0.1351 0.4513 0.2889
H35 H 0.0085 0.2539 0.2865
H47 H 0.0670 0.5782 0.3074
H48 H 0.1200 0.5422 0.3042
H49 H 0.2226 0.5990 0.2827
H50 H 0.1473 0.7664 0.2608
H51 H 0.0729 0.6776 0.2831
H52 H 0.5167 0.5871 0.2658
H53 H 0.5881 0.5750 0.2676
H54 H 0.6316 0.7051 0.2729
H55 H 0.5678 0.6849 0.2882
H56 H 0.7274 0.6569 0.2799
H57 H 0.7623 0.7395 0.2887
H58 H 0.8177 0.6704 0.3007
H59 H 0.7810 0.6970 0.3163
H60 H 0.7766 0.5258 0.3047
H61 H 0.7369 0.5399 0.2874
H62 H 0.6606 0.4113 0.2938
H63 H 0.6628 0.4261 0.3153
H64 H 0.5393 0.3847 0.2785
H65 H 0.5985 0.4721 0.2746
H66 H 0.4486 0.4135 0.2879
H67 H 0.4784 0.4504 0.2682
H68 H 0.4702 0.5849 0.3035
H69 H 0.4273 0.4959 0.3074
H70 H 0.4209 0.6354 0.2803
H71 H 0.2390 0.3968 0.2600
H72 H 0.3265 0.4066 0.2834
Zn5 Zn 0.43299(11) 0.39676(8) 0.19024(2)
Zn6 Zn 0.39676(8) 0.43299(11) 0.14309(2)
Zn7 Zn 0.39604(8) 0.95267(11) 0.35629(2)
Zn9 Zn 0.55663(7) 0.95267(11) 0.14371(2)
O3 O 0.5468(5) 0.5448(6) 0.33357(7)
O4 O 0.5448(6) 0.9980(4) 0.16690(7)
O6 O 0.0000(5) 0.4478 0.3333
N16 N 0.5158(6) 0.9954(4) 0.21224(9)
N20 N 0.3296(6) 0.7692(4) 0.23662(8)
N21 N 0.4682(6) 0.4898(4) 0.21157(9)
N22 N 0.3241(7) 0.3576(5) 0.2024(1)
N23 N 0.3957(8) 0.2751(6) 0.1890(1)
N24 N 0.5388(8) 0.4058(6) 0.1995(1)
N25 N 0.4339(6) 0.6841(4) 0.23451(8)
N26 N 0.0156(6) 0.5296(4) 0.21121(9)
N27 N 0.0133(7) 0.6672(5) 0.2030(1)
N30 N 0.2473(6) 0.5817(4) 0.23589(9)
C50 C 0.5533(10) 0.9627(7) 0.2237(1)
C51 C 0.4432(7) 0.9344(5) 0.2043(1)
C52 C 0.3835(7) 0.8837(5) 0.2181(1)
C53 C 0.3796(7) 0.8156(5) 0.2236(1)
C54 C 0.2791(6) 0.7869(4) 0.2443(1)
C55 C 0.2770(7) 0.8527(5) 0.2389(1)
C56 C 0.3301(7) 0.9017(5) 0.2256(1)
C57 C 0.4073(8) 0.4535(5) 0.2258(1)
C58 C 0.3262(8) 0.4133(6) 0.2169(1)
C59 C 0.2995(11) 0.2792(7) 0.2099(2)
C60 C 0.3114(12) 0.2314(8) 0.1949(2)
C61 C 0.4469(13) 0.264(1) 0.2001(3)
C62 C 0.5331(12) 0.330(1) 0.1969(3)
C63 C 0.5515(9) 0.4335(7) 0.2188(2)
C64 C 0.5425(8) 0.5070(6) 0.2187(1)
C65 C 0.4710(7) 0.5586(5) 0.2020(1)
C66 C 0.4859(6) 0.6206(5) 0.2151(1)
C67 C 0.4257(6) 0.6313(5) 0.2220(1)
C68 C 0.5047(6) 0.7331(4) 0.2412(1)
C69 C 0.5702(7) 0.7313(5) 0.2347(1)
C70 C 0.5614(7) 0.6775(5) 0.2216(1)
C71 C 0.0335(8) 0.5877(6) 0.2255(1)
C72 C 0.0670(8) 0.6687(6) 0.2173(1)
C79 C 0.0850(7) 0.5347(5) 0.2023(1)
C80 C 0.1368(7) 0.5229(5) 0.2161(1)
C81 C 0.2025(7) 0.5864(5) 0.2238(1)
C82 C 0.2305(6) 0.5115(4) 0.2424(1)
C83 C 0.1684(7) 0.4448(5) 0.2356(1)
C84 C 0.1210(7) 0.4507(5) 0.2217(1)
H81 H 0.6485 0.9606 0.1988
H88 H 0.2904 0.3530 0.1933
H90 H 0.6748 0.9957 0.2301
H91 H 0.3993 0.2623 0.1771
H92 H 0.5372 0.9108 0.2194
H93 H 0.5371 0.9596 0.2365
H94 H 0.5782 0.4411 0.1922
H95 H 0.4548 0.9023 0.1964
H96 H 0.4216 0.9584 0.1965
H97 H 0.4129 0.8015 0.2182
H98 H 0.0422 0.7022 0.1941
H100 H 0.2409 0.8638 0.2439
H102 H 0.3299 0.9461 0.2219
H103 H 0.4114 0.4925 0.2345
H104 H 0.4143 0.4158 0.2327
H105 H 0.2871 0.3859 0.2263
H106 H 0.3162 0.4513 0.2111
H107 H 0.2454 0.2539 0.2135
H108 H 0.3296 0.2834 0.2209
H109 H 0.2983 0.1811 0.1999
H110 H 0.2783 0.2237 0.1843
H111 H 0.4415 0.2140 0.1971
H112 H 0.4330 0.2627 0.2131
H113 H 0.5662 0.3237 0.2057
H114 H 0.5488 0.3257 0.1844
H115 H 0.6027 0.4465 0.2230
H116 H 0.5136 0.3943 0.2270
H117 H 0.5486 0.5269 0.2313
H118 H 0.5829 0.5467 0.2110
H119 H 0.5112 0.5782 0.1926
H120 H 0.4222 0.5422 0.1958
H121 H 0.3764 0.5990 0.2173
H122 H 0.6191 0.7664 0.2392
H123 H 0.6047 0.6776 0.2169
H124 H 0.0704 0.5871 0.2342
H126 H 0.0735 0.7051 0.2271
H127 H 0.1171 0.6849 0.2118
H140 H 0.1147 0.5849 0.1965
H141 H 0.0686 0.4959 0.1926
H142 H 0.2145 0.6354 0.2197
H143 H 0.1578 0.3968 0.2400
H144 H 0.0801 0.4066 0.2166
Zn2 Zn 0.96377(7) 0.39676(8) 0.30976(2)
N8 N 0.8794(5) 0.2751(6) 0.3110(1)
N9 N 0.8670(5) 0.4058(6) 0.3005(1)
C17 C 0.9797(9) 0.2792(7) 0.2901(2)
C18 C 0.9200(9) 0.2314(8) 0.3051(2)
C19 C 0.8171(8) 0.264(1) 0.2999(3)
C20 C 0.7969(7) 0.330(1) 0.3031(3)
C21 C 0.8820(6) 0.4335(7) 0.2812(2)
C22 C 0.9645(5) 0.5070(6) 0.2813(1)
H19 H 0.8630 0.2623 0.3229
H22 H 0.8629 0.4411 0.3078
H36 H 0.9538 0.2834 0.2791
H37 H 0.8828 0.1811 0.3001
H38 H 0.9454 0.2237 0.3157
H39 H 0.7725 0.2140 0.3029
H40 H 0.8297 0.2627 0.2869
H41 H 0.7575 0.3237 0.2943
H42 H 0.7769 0.3257 0.3156
H43 H 0.8438 0.4465 0.2770
H44 H 0.8807 0.3943 0.2730
H45 H 0.9783 0.5269 0.2687
H46 H 0.9638 0.5467 0.2890
Zn8 Zn 0.95267(11) 0.55663(7) 0.18962(2)
O5 O 0.9980(4) 0.5448(6) 0.16643(7)
O6_2 O 1.0000(5) 0.4478 0.3333
N28 N 0.8628(9) 0.5838(7) 0.1886(1)
N29 N 0.8620(8) 0.4461(6) 0.1982(1)
C73 C 0.9535(10) 0.6847(8) 0.2087(2)
C74 C 0.8941(11) 0.6634(8) 0.1944(2)
C75 C 0.7956(13) 0.5262(9) 0.1994(3)
C76 C 0.7860(12) 0.4459(8) 0.1968(2)
C77 C 0.8805(11) 0.4370(7) 0.2173(2)
C78 C 0.9600(8) 0.4529(6) 0.2188(1)
H99 H 0.8476 0.5802 0.1765
H101 H 0.8609 0.4085 0.1909
H125 H 0.9869 0.5750 0.2324
H128 H 0.9295 0.6569 0.2201
H129 H 0.9772 0.7395 0.2113
H130 H 0.8527 0.6704 0.1993
H131 H 0.9160 0.6970 0.1837
H132 H 0.7492 0.5258 0.1953
H133 H 0.8030 0.5399 0.2126
H134 H 0.7507 0.4113 0.2062
H135 H 0.7633 0.4261 0.1847
H136 H 0.8454 0.3847 0.2215
H137 H 0.8736 0.4721 0.2254
H138 H 0.9649 0.4135 0.2121
H139 H 0.9720 0.4504 0.2318
Zn3_2 Zn 0.04733(11) 0.60396(8) 0.47705(2)
N13_2 N 0.1372(9) 0.7210(6) 0.4781(1)
N14_2 N 0.1380(8) 0.5841(6) 0.4685(1)
C31_2 C 0.0465(10) 0.7312(6) 0.4580(2)
C32_2 C 0.1059(11) 0.7693(8) 0.4723(2)
C33_2 C 0.2044(13) 0.7306(9) 0.4673(3)
C34_2 C 0.2140(12) 0.6599(9) 0.4699(2)
C35_2 C 0.1195(11) 0.5565(8) 0.4494(2)
C36_2 C 0.0400(8) 0.4929(6) 0.4479(1)
H27_2 H 0.1524 0.7326 0.4902
H29_2 H 0.1391 0.5476 0.4758
H53_2 H 0.0131 0.5881 0.4343
H56_2 H 0.0705 0.7274 0.4466
H57_2 H 0.0228 0.7623 0.4554
H58_2 H 0.1473 0.8177 0.4674
H59_2 H 0.0840 0.7810 0.4830
H60_2 H 0.2508 0.7766 0.4714
H61_2 H 0.1970 0.7369 0.4541
H62_2 H 0.2493 0.6606 0.4605
H63_2 H 0.2367 0.6628 0.4820
H64_2 H 0.1546 0.5393 0.4452
H65_2 H 0.1264 0.5985 0.4413
H66_2 H 0.0351 0.4486 0.4546
H67_2 H 0.0280 0.4784 0.4349
Zn5_2 Zn 0.03623(14) 0.43299(11) 0.35691(2)
O3_2 O 0.0020(8) 0.5468(5) 0.50023(7)
N23_2 N 0.1206(10) 0.3957(8) 0.3557(1)
N24_2 N 0.1330(10) 0.5388(8) 0.3662(1)
C59_2 C 0.0203(13) 0.2995(11) 0.3766(2)
C60_2 C 0.0800(14) 0.3114(12) 0.3616(2)
C61_2 C 0.1829(16) 0.4469(13) 0.3668(3)
C62_2 C 0.2031(16) 0.5331(12) 0.3636(3)
C63_2 C 0.1180(11) 0.5515(9) 0.3855(2)
C64_2 C 0.0355(10) 0.5425(8) 0.3854(1)
H91_2 H 0.1370 0.3993 0.3438
H94_2 H 0.1371 0.5782 0.3589
H108_2 H 0.0462 0.3296 0.3876
H109_2 H 0.1172 0.2983 0.3666
H110_2 H 0.0546 0.2783 0.3510
H111_2 H 0.2275 0.4415 0.3638
H112_2 H 0.1703 0.4330 0.3798
H113_2 H 0.2425 0.5662 0.3724
H114_2 H 0.2231 0.5488 0.3511
H115_2 H 0.1562 0.6027 0.3897
H116_2 H 0.1193 0.5136 0.3937
H117_2 H 0.0217 0.5486 0.3980
H118_2 H 0.0362 0.5829 0.3777
Ru1_2 Ru 0.66129(8) 0.33871(4) 0.4167
Zn1_2 Zn 0.40118(11) 0.45468(8) 0.47824(2)
O1_2 O 0.4552(6) 0.4532(5) 0.49977(7)
N1_2 N 0.4842(6) 0.4796(4) 0.45443(9)
N2_2 N 0.4316(8) 0.5724(6) 0.4722(1)
N3_2 N 0.2905(11) 0.4439(8) 0.4823(1)
N4_2 N 0.3384(9) 0.3477(6) 0.4643(1)
N5_2 N 0.6704(6) 0.4396(4) 0.43005(8)
N6_2 N 0.5318(6) 0.0216(4) 0.45510(9)
N7_2 N 0.6759(7) 0.0335(5) 0.4643(1)
N10_2 N 0.5661(6) 0.2502(4) 0.43216(8)
N11_2 N 0.9844(6) 0.5140(4) 0.45546(9)
N12_2 N 0.9867(7) 0.6539(5) 0.4637(1)
N15_2 N 0.7527(6) 0.3344(4) 0.43078(9)
C1_2 C 0.4901(8) 0.5475(6) 0.4451(1)
C2_2 C 0.4914(10) 0.6037(7) 0.4574(2)
C3_2 C 0.3549(13) 0.566(1) 0.4677(3)
C4_2 C 0.3000(13) 0.525(1) 0.4798(2)
C5_2 C 0.240(3) 0.373(2) 0.4700(2)
C6_2 C 0.260(1) 0.321(1) 0.4651(3)
C7_2 C 0.3498(13) 0.3668(9) 0.4443(2)
C8_2 C 0.4467(10) 0.4094(7) 0.4430(1)
C9_2 C 0.5568(7) 0.4912(5) 0.4624(1)
C10_2 C 0.6165(7) 0.5002(5) 0.4486(1)
C11_2 C 0.6204(7) 0.4360(5) 0.4431(1)
C12_2 C 0.7209(6) 0.5078(4) 0.4224(1)
C13_2 C 0.7230(7) 0.5757(5) 0.4278(1)
C14_2 C 0.6699(7) 0.5716(5) 0.4411(1)
C15_2 C 0.5927(8) 0.0462(6) 0.4409(1)
C16_2 C 0.6738(8) 0.0871(6) 0.4498(1)
C23_2 C 0.5290(7) 0.0876(5) 0.4647(1)
C24_2 C 0.5141(6) 0.1347(4) 0.4516(1)
C25_2 C 0.5743(6) 0.2056(4) 0.4447(1)
C26_2 C 0.4953(6) 0.2284(4) 0.4255(1)
C27_2 C 0.4298(7) 0.1611(5) 0.4320(1)
C28_2 C 0.4386(7) 0.1161(5) 0.4451(1)
C29_2 C 0.9665(8) 0.5542(5) 0.4412(1)
C30_2 C 0.9330(8) 0.6017(6) 0.4494(1)
C37_2 C 0.9150(7) 0.4497(5) 0.4644(1)
C38_2 C 0.8632(7) 0.3861(5) 0.4506(1)
C39_2 C 0.7975(7) 0.3839(5) 0.4429(1)
C40_2 C 0.7695(6) 0.2810(5) 0.4243(1)
C41_2 C 0.8316(7) 0.2764(5) 0.4311(1)
C42_2 C 0.8790(7) 0.3297(5) 0.4450(1)
H1_2 H 0.5368 0.5714 0.4377
H2_2 H 0.4467 0.5307 0.4367
H3_2 H 0.4511 0.6014 0.4827
H4_2 H 0.4848 0.6410 0.4502
H5_2 H 0.5418 0.6311 0.4633
H6_2 H 0.2765 0.4295 0.4944
H7_2 H 0.3619 0.6177 0.4672
H8_2 H 0.3388 0.5433 0.4554
H9_2 H 0.3515 0.3121 0.4679
H10_2 H 0.2512 0.5192 0.4754
H11_2 H 0.3117 0.5510 0.4917
H12_2 H 0.1904 0.3451 0.4761
H13_2 H 0.2315 0.3933 0.4585
H14_2 H 0.2382 0.3004 0.4529
H15_2 H 0.2371 0.2784 0.4739
H16_2 H 0.7096 0.0626 0.4734
H17_2 H 0.3322 0.4019 0.4408
H18_2 H 0.3252 0.3209 0.4366
H20_2 H 0.4628 0.3736 0.4473
H21_2 H 0.4629 0.4225 0.4302
H23_2 H 0.5452 0.4475 0.4703
H24_2 H 0.5784 0.5368 0.4702
H25_2 H 0.5871 0.3886 0.4485
H26_2 H 0.9578 0.6600 0.4726
H28_2 H 0.7591 0.6229 0.4228
H30_2 H 0.6701 0.6162 0.4448
H31_2 H 0.5886 0.0811 0.4322
H32_2 H 0.5857 0.0015 0.4340
H33_2 H 0.7129 0.0988 0.4404
H34_2 H 0.6838 0.1351 0.4556
H35_2 H 0.7546 0.0085 0.4532
H47_2 H 0.4888 0.0670 0.4741
H48_2 H 0.5778 0.1200 0.4709
H49_2 H 0.6236 0.2226 0.4494
H50_2 H 0.3809 0.1473 0.4275
H51_2 H 0.3953 0.0729 0.4498
H52_2 H 0.9296 0.5167 0.4325
H54_2 H 0.9265 0.6316 0.4396
H55_2 H 0.8829 0.5678 0.4549
H68_2 H 0.8853 0.4702 0.4702
H69_2 H 0.9314 0.4273 0.4741
H70_2 H 0.7855 0.4209 0.4470
H71_2 H 0.8422 0.2390 0.4267
H72_2 H 0.9199 0.3265 0.4501
Zn4_2 Zn 0.54532(13) 0.59882(11) 0.35510(2)
Zn7_2 Zn 0.44337(14) 0.39604(8) 0.52295(2)
O6_3 O 0.5522(5) 0.0000(5) 0.4999
N16_2 N 0.5204(7) 0.5158(6) 0.37891(9)
N17_2 N 0.4276(9) 0.5684(8) 0.3612(1)
N18_2 N 0.5561(13) 0.7095(11) 0.3511(1)
N19_2 N 0.6523(11) 0.6616(9) 0.3691(1)
N20_2 N 0.5604(7) 0.3296(6) 0.40329(8)
N21_2 N 0.9784(7) 0.4682(6) 0.37824(9)
N22_2 N 0.9665(9) 0.3241(7) 0.3691(1)
N25_2 N 0.7498(7) 0.4339(6) 0.40118(8)
N26_2 N 0.4860(7) 0.0156(6) 0.37788(9)
N27_2 N 0.3461(9) 0.0133(7) 0.3697(1)
N30_2 N 0.6656(7) 0.2473(6) 0.40256(9)
C43_2 C 0.4525(10) 0.5099(8) 0.3883(1)
C44_2 C 0.3963(12) 0.5086(10) 0.3760(2)
C45_2 C 0.4340(15) 0.6451(13) 0.3657(3)
C46_2 C 0.4750(15) 0.7000(13) 0.3536(2)
C47_2 C 0.627(4) 0.760(3) 0.3634(2)
C48_2 C 0.679(1) 0.740(1) 0.3683(3)
C49_2 C 0.6332(16) 0.6502(13) 0.3891(2)
C50_2 C 0.5906(12) 0.5533(10) 0.3904(1)
C51_2 C 0.5088(9) 0.4432(7) 0.3710(1)
C52_2 C 0.4998(9) 0.3835(7) 0.3848(1)
C53_2 C 0.5640(9) 0.3796(7) 0.3903(1)
C54_2 C 0.4922(7) 0.2791(6) 0.4110(1)
C55_2 C 0.4243(9) 0.2770(7) 0.4056(1)
C56_2 C 0.4284(9) 0.3301(7) 0.3923(1)
C57_2 C 0.9538(9) 0.4073(8) 0.3925(1)
C58_2 C 0.9129(10) 0.3262(8) 0.3836(1)
C65_2 C 0.9124(9) 0.4710(7) 0.3687(1)
C66_2 C 0.8653(8) 0.4859(6) 0.3818(1)
C67_2 C 0.7944(8) 0.4257(6) 0.3887(1)
C68_2 C 0.7716(7) 0.5047(6) 0.4079(1)
C69_2 C 0.8389(9) 0.5702(7) 0.4014(1)
C70_2 C 0.8839(9) 0.5614(7) 0.3883(1)
C71_2 C 0.4458(10) 0.0335(8) 0.3922(1)
C72_2 C 0.3983(10) 0.0670(8) 0.3840(1)
C79_2 C 0.5503(9) 0.0850(7) 0.3690(1)
C80_2 C 0.6139(9) 0.1368(7) 0.3828(1)
C81_2 C 0.6161(9) 0.2025(7) 0.3905(1)
C82_2 C 0.7190(7) 0.2305(6) 0.4091(1)
C83_2 C 0.7236(9) 0.1684(7) 0.4023(1)
C84_2 C 0.6703(9) 0.1210(7) 0.3884(1)
H73_2 H 0.4286 0.4632 0.3957
H74_2 H 0.4693 0.5533 0.3967
H75_2 H 0.3986 0.5489 0.3507
H76_2 H 0.3590 0.5152 0.3832
H77_2 H 0.3689 0.4582 0.3701
H78_2 H 0.5705 0.7235 0.3390
H79_2 H 0.3823 0.6381 0.3662
H80_2 H 0.4567 0.6612 0.3780
H81_2 H 0.6879 0.6485 0.3655
H82_2 H 0.4808 0.7488 0.3580
H83_2 H 0.4490 0.6883 0.3417
H84_2 H 0.6549 0.8096 0.3573
H85_2 H 0.6067 0.7685 0.3749
H86_2 H 0.6996 0.7618 0.3805
H87_2 H 0.7216 0.7629 0.3595
H88_2 H 0.9374 0.2904 0.3600
H89_2 H 0.5981 0.6678 0.3926
H90_2 H 0.6791 0.6748 0.3968
H92_2 H 0.6264 0.5372 0.3861
H93_2 H 0.5775 0.5371 0.4032
H95_2 H 0.5525 0.4548 0.3631
H96_2 H 0.4632 0.4216 0.3632
H97_2 H 0.6114 0.4129 0.3849
H98_2 H 0.3400 0.0422 0.3608
H100_2 H 0.3771 0.2409 0.4106
H102_2 H 0.3838 0.3299 0.3886
H103_2 H 0.9189 0.4114 0.4012
H104_2 H 0.9985 0.4143 0.3994
H105_2 H 0.9012 0.2871 0.3930
H106_2 H 0.8649 0.3162 0.3778
H107_2 H 0.9915 0.2454 0.3802
H119_2 H 0.9330 0.5112 0.3593
H120_2 H 0.8800 0.4222 0.3625
H121_2 H 0.7774 0.3764 0.3840
H122_2 H 0.8527 0.6191 0.4059
H123_2 H 0.9271 0.6047 0.3836
H124_2 H 0.4833 0.0704 0.4009
H126_2 H 0.3684 0.0735 0.3938
H127_2 H 0.4322 0.1171 0.3785
H140_2 H 0.5298 0.1147 0.3632
H141_2 H 0.5727 0.0686 0.3593
H142_2 H 0.5791 0.2145 0.3864
H143_2 H 0.7610 0.1578 0.4067
H144_2 H 0.6735 0.0801 0.3833
Zn2_2 Zn 0.56701(11) 0.96377(7) 0.47643(2)
N8_2 N 0.6043(8) 0.8794(5) 0.4777(1)
N9_2 N 0.4612(8) 0.8670(5) 0.4672(1)
C17_2 C 0.7005(11) 0.9797(9) 0.4568(2)
C18_2 C 0.6886(12) 0.9200(9) 0.4718(2)
C19_2 C 0.5531(13) 0.8171(8) 0.4666(3)
C20_2 C 0.4669(12) 0.7969(7) 0.4698(3)
C21_2 C 0.4485(9) 0.8820(6) 0.4479(2)
C22_2 C 0.4575(8) 0.9645(5) 0.4480(1)
H19_2 H 0.6007 0.8630 0.4896
H22_2 H 0.4218 0.8629 0.4745
H36_2 H 0.6704 0.9538 0.4458
H37_2 H 0.7017 0.8828 0.4668
H38_2 H 0.7217 0.9454 0.4824
H39_2 H 0.5585 0.7725 0.4696
H40_2 H 0.5670 0.8297 0.4536
H41_2 H 0.4338 0.7575 0.4610
H42_2 H 0.4512 0.7769 0.4823
H43_2 H 0.3973 0.8438 0.4437
H44_2 H 0.4864 0.8807 0.4397
H45_2 H 0.4514 0.9783 0.4354
H46_2 H 0.4171 0.9638 0.4557
O6_4 O 0.5522(5) 1.0000(5) 0.4999
N28_2 N 0.2790(11) 0.8628(9) 0.3553(1)
N29_2 N 0.4159(10) 0.8620(8) 0.3649(1)
C73_2 C 0.2688(13) 0.9535(10) 0.3754(2)
C74_2 C 0.2307(14) 0.8941(11) 0.3611(2)
C75_2 C 0.2694(16) 0.7956(13) 0.3661(3)
C76_2 C 0.3401(14) 0.7860(12) 0.3635(2)
C77_2 C 0.4435(13) 0.8805(11) 0.3840(2)
C78_2 C 0.5071(10) 0.9600(8) 0.3855(1)
H99_2 H 0.2674 0.8476 0.3432
H101_2 H 0.4524 0.8609 0.3576
H125_2 H 0.4119 0.9869 0.3991
H128_2 H 0.2726 0.9295 0.3868
H129_2 H 0.2377 0.9772 0.3780
H130_2 H 0.1823 0.8527 0.3660
H131_2 H 0.2190 0.9160 0.3504
H132_2 H 0.2234 0.7492 0.3620
H133_2 H 0.2631 0.8030 0.3793
H134_2 H 0.3394 0.7507 0.3729
H135_2 H 0.3372 0.7633 0.3514
H136_2 H 0.4607 0.8454 0.3882
H137_2 H 0.4015 0.8736 0.3921
H138_2 H 0.5514 0.9649 0.3788
H139_2 H 0.5216 0.9720 0.3985
Zn3_3 Zn 0.44337(7) 0.04733(11) 0.64371(2)
N13_3 N 0.4162(7) 0.1372(9) 0.6447(1)
N14_3 N 0.5539(6) 0.1380(8) 0.6351(1)
C31_3 C 0.3153(8) 0.0465(10) 0.6246(2)
C32_3 C 0.3366(8) 0.1059(11) 0.6389(2)
C33_3 C 0.4738(9) 0.2044(13) 0.6339(3)
C34_3 C 0.5541(8) 0.2140(12) 0.6365(2)
C35_3 C 0.5630(7) 0.1195(11) 0.6160(2)
C36_3 C 0.5471(6) 0.0400(8) 0.6145(1)
H27_3 H 0.4198 0.1524 0.6568
H29_3 H 0.5915 0.1391 0.6424
H53_3 H 0.4250 0.0131 0.6009
H56_3 H 0.3431 0.0705 0.6132
H57_3 H 0.2605 0.0228 0.6220
H58_3 H 0.3296 0.1473 0.6340
H59_3 H 0.3030 0.0840 0.6496
H60_3 H 0.4742 0.2508 0.6380
H61_3 H 0.4601 0.1970 0.6207
H62_3 H 0.5887 0.2493 0.6271
H63_3 H 0.5739 0.2367 0.6486
H64_3 H 0.6153 0.1546 0.6118
H65_3 H 0.5279 0.1264 0.6079
H66_3 H 0.5865 0.0351 0.6212
H67_3 H 0.5496 0.0280 0.6015
Zn5_3 Zn 0.60324(8) 0.03623(14) 0.52357(2)
O3_3 O 0.4552(6) 0.0020(8) 0.66690(7)
N23_3 N 0.7249(6) 0.1206(10) 0.5223(1)
N24_3 N 0.5942(6) 0.1330(10) 0.5328(1)
C59_3 C 0.7208(7) 0.0203(13) 0.5432(2)
C60_3 C 0.7686(8) 0.0800(14) 0.5282(2)
C61_3 C 0.736(1) 0.1829(16) 0.5334(3)
C62_3 C 0.670(1) 0.2031(16) 0.5302(3)
C63_3 C 0.5665(7) 0.1180(11) 0.5521(2)
C64_3 C 0.4930(6) 0.0355(10) 0.5520(1)
H91_3 H 0.7377 0.1370 0.5104
H94_3 H 0.5589 0.1371 0.5255
H108_3 H 0.7166 0.0462 0.5542
H109_3 H 0.8189 0.1172 0.5332
H110_3 H 0.7763 0.0546 0.5176
H111_3 H 0.7860 0.2275 0.5304
H112_3 H 0.7373 0.1703 0.5464
H113_3 H 0.6763 0.2425 0.5390
H114_3 H 0.6743 0.2231 0.5177
H115_3 H 0.5535 0.1562 0.5563
H116_3 H 0.6057 0.1193 0.5603
H117_3 H 0.4731 0.0217 0.5646
H118_3 H 0.4533 0.0362 0.5443
Ru1_3 Ru 0.32258(7) 0.66129(8) 0.5833
Zn2_3 Zn 0.60324(8) 0.56701(11) 0.64309(2)
O1_3 O 0.0020(4) 0.4552(6) 0.66643(7)
N1_3 N 0.0046(4) 0.4842(6) 0.62109(9)
N5_3 N 0.2308(4) 0.6704(6) 0.59671(8)
N6_3 N 0.5102(4) 0.5318(6) 0.62176(9)
N7_3 N 0.6424(5) 0.6759(7) 0.6309(1)
N8_3 N 0.7249(6) 0.6043(8) 0.6443(1)
N9_3 N 0.5942(6) 0.4612(8) 0.6338(1)
N10_3 N 0.3159(4) 0.5661(6) 0.59882(8)
N11_3 N 0.4704(4) 0.9844(6) 0.62212(9)
N12_3 N 0.3328(5) 0.9867(7) 0.6303(1)
N15_3 N 0.4183(4) 0.7527(6) 0.59744(9)
C8_3 C 0.0373(7) 0.4467(10) 0.6096(1)
C9_3 C 0.0656(5) 0.5568(7) 0.6290(1)
C10_3 C 0.1163(5) 0.6165(7) 0.6152(1)
C11_3 C 0.1844(5) 0.6204(7) 0.6097(1)
C12_3 C 0.2131(4) 0.7209(6) 0.5890(1)
C13_3 C 0.1473(5) 0.7230(7) 0.5944(1)
C14_3 C 0.0983(5) 0.6699(7) 0.6077(1)
C15_3 C 0.5465(5) 0.5927(8) 0.6075(1)
C16_3 C 0.5867(6) 0.6738(8) 0.6164(1)
C17_3 C 0.7208(7) 0.7005(11) 0.6234(2)
C18_3 C 0.7686(8) 0.6886(12) 0.6384(2)
C19_3 C 0.736(1) 0.5531(13) 0.6332(3)
C20_3 C 0.670(1) 0.4669(12) 0.6364(3)
C21_3 C 0.5665(7) 0.4485(9) 0.6145(2)
C22_3 C 0.4930(6) 0.4575(8) 0.6146(1)
C23_3 C 0.4414(5) 0.5290(7) 0.6313(1)
C24_3 C 0.3794(5) 0.5141(6) 0.6182(1)
C25_3 C 0.3687(5) 0.5743(6) 0.6113(1)
C26_3 C 0.2669(4) 0.4953(6) 0.5921(1)
C27_3 C 0.2687(5) 0.4298(7) 0.5986(1)
C28_3 C 0.3225(5) 0.4386(7) 0.6117(1)
C29_3 C 0.4123(6) 0.9665(8) 0.6078(1)
C30_3 C 0.3313(6) 0.9330(8) 0.6160(1)
C37_3 C 0.4653(5) 0.9150(7) 0.6310(1)
C38_3 C 0.4771(5) 0.8632(7) 0.6172(1)
C39_3 C 0.4136(5) 0.7975(7) 0.6095(1)
C40_3 C 0.4885(4) 0.7695(6) 0.5909(1)
C41_3 C 0.5552(5) 0.8316(7) 0.5977(1)
C42_3 C 0.5493(5) 0.8790(7) 0.6116(1)
H9_3 H 0.0394 0.3515 0.6345
H16_3 H 0.6470 0.7096 0.6400
H18_3 H 0.0043 0.3252 0.6032
H19_3 H 0.7377 0.6007 0.6562
H20_3 H 0.0892 0.4628 0.6139
H21_3 H 0.0404 0.4629 0.5968
H22_3 H 0.5589 0.4218 0.6411
H23_3 H 0.0977 0.5452 0.6369
H24_3 H 0.0416 0.5784 0.6368
H25_3 H 0.1985 0.5871 0.6151
H26_3 H 0.2978 0.9578 0.6392
H28_3 H 0.1362 0.7591 0.5894
H30_3 H 0.0539 0.6701 0.6114
H31_3 H 0.5075 0.5886 0.5988
H32_3 H 0.5842 0.5857 0.6006
H33_3 H 0.6141 0.7129 0.6070
H34_3 H 0.5487 0.6838 0.6222
H35_3 H 0.7461 0.7546 0.6198
H36_3 H 0.7166 0.6704 0.6124
H37_3 H 0.8189 0.7017 0.6334
H38_3 H 0.7763 0.7217 0.6490
H39_3 H 0.7860 0.5585 0.6362
H40_3 H 0.7373 0.5670 0.6202
H41_3 H 0.6763 0.4338 0.6276
H42_3 H 0.6743 0.4512 0.6489
H43_3 H 0.5535 0.3973 0.6103
H44_3 H 0.6057 0.4864 0.6063
H45_3 H 0.4731 0.4514 0.6020
H46_3 H 0.4533 0.4171 0.6223
H47_3 H 0.4218 0.4888 0.6407
H48_3 H 0.4578 0.5778 0.6375
H49_3 H 0.4010 0.6236 0.6160
H50_3 H 0.2336 0.3809 0.5941
H51_3 H 0.3224 0.3953 0.6164
H52_3 H 0.4129 0.9296 0.5991
H54_3 H 0.2949 0.9265 0.6062
H55_3 H 0.3151 0.8829 0.6215
H68_3 H 0.4151 0.8853 0.6368
H69_3 H 0.5041 0.9314 0.6407
H70_3 H 0.3646 0.7855 0.6136
H71_3 H 0.6032 0.8422 0.5933
H72_3 H 0.5934 0.9199 0.6167
Zn7_3 Zn 0.04733(11) 0.44337(14) 0.68962(2)
O6_5 O 0.5522 0.5522(5) 0.6666
N16_3 N 0.0046(4) 0.5204(7) 0.54557(9)
N20_3 N 0.2308(4) 0.5604(7) 0.56995(8)
N21_3 N 0.5102(4) 0.9784(7) 0.54490(9)
N22_3 N 0.6424(5) 0.9665(9) 0.5357(1)
N25_3 N 0.3159(4) 0.7498(7) 0.56784(8)
N26_3 N 0.4704(4) 0.4860(7) 0.54454(9)
N27_3 N 0.3328(5) 0.3461(9) 0.5363(1)
N28_3 N 0.4162(7) 0.2790(11) 0.5219(1)
N29_3 N 0.5539(6) 0.4159(10) 0.5315(1)
N30_3 N 0.4183(4) 0.6656(7) 0.56922(9)
C50_3 C 0.0373(7) 0.5906(12) 0.5570(1)
C51_3 C 0.0656(5) 0.5088(9) 0.5376(1)
C52_3 C 0.1163(5) 0.4998(9) 0.5514(1)
C53_3 C 0.1844(5) 0.5640(9) 0.5569(1)
C54_3 C 0.2131(4) 0.4922(7) 0.5776(1)
C55_3 C 0.1473(5) 0.4243(9) 0.5722(1)
C56_3 C 0.0983(5) 0.4284(9) 0.5589(1)
C57_3 C 0.5465(5) 0.9538(9) 0.5591(1)
C58_3 C 0.5867(6) 0.9129(10) 0.5502(1)
C65_3 C 0.4414(5) 0.9124(9) 0.5353(1)
C66_3 C 0.3794(5) 0.8653(8) 0.5484(1)
C67_3 C 0.3687(5) 0.7944(8) 0.5553(1)
C68_3 C 0.2669(4) 0.7716(7) 0.5745(1)
C69_3 C 0.2687(5) 0.8389(9) 0.5680(1)
C70_3 C 0.3225(5) 0.8839(9) 0.5549(1)
C71_3 C 0.4123(6) 0.4458(10) 0.5588(1)
C72_3 C 0.3313(6) 0.3983(10) 0.5506(1)
C73_3 C 0.3153(8) 0.2688(13) 0.5420(2)
C74_3 C 0.3366(8) 0.2307(14) 0.5277(2)
C75_3 C 0.4738(9) 0.2694(16) 0.5327(3)
C76_3 C 0.5541(8) 0.3401(14) 0.5301(2)
C77_3 C 0.5630(7) 0.4435(13) 0.5506(2)
C78_3 C 0.5471(6) 0.5071(10) 0.5521(1)
C79_3 C 0.4653(5) 0.5503(9) 0.5356(1)
C80_3 C 0.4771(5) 0.6139(9) 0.5494(1)
C81_3 C 0.4136(5) 0.6161(9) 0.5571(1)
C82_3 C 0.4885(4) 0.7190(7) 0.5757(1)
C83_3 C 0.5552(5) 0.7236(9) 0.5689(1)
C84_3 C 0.5493(5) 0.6703(9) 0.5550(1)
H81_3 H 0.0394 0.6879 0.5321
H88_3 H 0.6470 0.9374 0.5266
H90_3 H 0.0043 0.6791 0.5634
H92_3 H 0.0892 0.6264 0.5527
H93_3 H 0.0404 0.5775 0.5698
H95_3 H 0.0977 0.5525 0.5297
H96_3 H 0.0416 0.4632 0.5298
H97_3 H 0.1985 0.6114 0.5515
H98_3 H 0.2978 0.3400 0.5274
H99_3 H 0.4198 0.2674 0.5098
H100_3 H 0.1362 0.3771 0.5772
H101_3 H 0.5915 0.4524 0.5242
H102_3 H 0.0539 0.3838 0.5552
H103_3 H 0.5075 0.9189 0.5678
H104_3 H 0.5842 0.9985 0.5660
H105_3 H 0.6141 0.9012 0.5596
H106_3 H 0.5487 0.8649 0.5444
H107_3 H 0.7461 0.9915 0.5468
H119_3 H 0.4218 0.9330 0.5259
H120_3 H 0.4578 0.8800 0.5291
H121_3 H 0.4010 0.7774 0.5506
H122_3 H 0.2336 0.8527 0.5725
H123_3 H 0.3224 0.9271 0.5502
H124_3 H 0.4129 0.4833 0.5675
H125_3 H 0.4250 0.4119 0.5657
H126_3 H 0.2949 0.3684 0.5604
H127_3 H 0.3151 0.4322 0.5451
H128_3 H 0.3431 0.2726 0.5534
H129_3 H 0.2605 0.2377 0.5446
H130_3 H 0.3296 0.1823 0.5326
H131_3 H 0.3030 0.2190 0.5170
H132_3 H 0.4742 0.2234 0.5286
H133_3 H 0.4601 0.2631 0.5459
H134_3 H 0.5887 0.3394 0.5395
H135_3 H 0.5739 0.3372 0.5180
H136_3 H 0.6153 0.4607 0.5548
H137_3 H 0.5279 0.4015 0.5587
H138_3 H 0.5865 0.5514 0.5454
H139_3 H 0.5496 0.5216 0.5651
H140_3 H 0.4151 0.5298 0.5298
H141_3 H 0.5041 0.5727 0.5259
H142_3 H 0.3646 0.5791 0.5530
H143_3 H 0.6032 0.7610 0.5733
H144_3 H 0.5934 0.6735 0.5499
Zn2_4 Zn 0.03623(7) 0.60324(8) 0.80976(2)
N8_4 N 0.1206(5) 0.7249(6) 0.8110(1)
N9_4 N 0.1330(5) 0.5942(6) 0.8005(1)
C17_4 C 0.0203(9) 0.7208(7) 0.7901(2)
C18_4 C 0.0800(9) 0.7686(8) 0.8051(2)
C19_4 C 0.1829(8) 0.736(1) 0.7999(3)
C20_4 C 0.2031(7) 0.670(1) 0.8031(3)
C21_4 C 0.1180(6) 0.5665(7) 0.7812(2)
C22_4 C 0.0355(5) 0.4930(6) 0.7813(1)
H19_4 H 0.1370 0.7377 0.8229
H22_4 H 0.1371 0.5589 0.8078
H36_4 H 0.0462 0.7166 0.7791
H37_4 H 0.1172 0.8189 0.8001
H38_4 H 0.0546 0.7763 0.8157
H39_4 H 0.2275 0.7860 0.8029
H40_4 H 0.1703 0.7373 0.7869
H41_4 H 0.2425 0.6763 0.7943
H42_4 H 0.2231 0.6743 0.8156
H43_4 H 0.1562 0.5535 0.7770
H44_4 H 0.1193 0.6057 0.7730
H45_4 H 0.0217 0.4731 0.7687
H46_4 H 0.0362 0.4533 0.7890
O6_6 O 0.0000(5) 0.5522 0.8333
N28_4 N 0.1372(9) 0.4162(7) 0.6886(1)
N29_4 N 0.1380(8) 0.5539(6) 0.6982(1)
C73_4 C 0.0465(10) 0.3153(8) 0.7087(2)
C74_4 C 0.1059(11) 0.3366(8) 0.6944(2)
C75_4 C 0.2044(13) 0.4738(9) 0.6994(3)
C76_4 C 0.2140(12) 0.5541(8) 0.6968(2)
C77_4 C 0.1195(11) 0.5630(7) 0.7173(2)
C78_4 C 0.0400(8) 0.5471(6) 0.7188(1)
H99_4 H 0.1524 0.4198 0.6765
H101_4 H 0.1391 0.5915 0.6909
H125_4 H 0.0131 0.4250 0.7324
H128_4 H 0.0705 0.3431 0.7201
H129_4 H 0.0228 0.2605 0.7113
H130_4 H 0.1473 0.3296 0.6993
H131_4 H 0.0840 0.3030 0.6837
H132_4 H 0.2508 0.4742 0.6953
H133_4 H 0.1970 0.4601 0.7126
H134_4 H 0.2493 0.5887 0.7062
H135_4 H 0.2367 0.5739 0.6847
H136_4 H 0.1546 0.6153 0.7215
H137_4 H 0.1264 0.5279 0.7254
H138_4 H 0.0351 0.5865 0.7121
H139_4 H 0.0280 0.5496 0.7318
Ru1_4 Ru 0.66129(4) 0.32258(7) 0.7500
Zn3_4 Zn 0.39604(8) 0.44337(7) 0.81038(2)
O1_4 O 0.5468(5) 0.0020(4) 0.83310(7)
N1_4 N 0.5204(4) 0.0046(4) 0.78776(9)
N5_4 N 0.5604(4) 0.2308(4) 0.76338(8)
N6_4 N 0.9784(4) 0.5102(4) 0.78843(9)
N7_4 N 0.9665(5) 0.6424(5) 0.7976(1)
N10_4 N 0.7498(4) 0.3159(4) 0.76549(8)
N11_4 N 0.4860(4) 0.4704(4) 0.78879(9)
N12_4 N 0.3461(5) 0.3328(5) 0.7970(1)
N13_4 N 0.2790(6) 0.4162(7) 0.8114(1)
N14_4 N 0.4159(6) 0.5539(6) 0.8018(1)
N15_4 N 0.6656(4) 0.4183(4) 0.76411(9)
C8_4 C 0.5906(7) 0.0373(7) 0.7763(1)
C9_4 C 0.5088(5) 0.0656(5) 0.7957(1)
C10_4 C 0.4998(5) 0.1163(5) 0.7819(1)
C11_4 C 0.5640(5) 0.1844(5) 0.7764(1)
C12_4 C 0.4922(4) 0.2131(4) 0.7557(1)
C13_4 C 0.4243(5) 0.1473(5) 0.7611(1)
C14_4 C 0.4284(5) 0.0983(5) 0.7744(1)
C15_4 C 0.9538(6) 0.5465(5) 0.7742(1)
C16_4 C 0.9129(6) 0.5867(6) 0.7831(1)
C23_4 C 0.9124(5) 0.4414(5) 0.7980(1)
C24_4 C 0.8653(4) 0.3794(5) 0.7849(1)
C25_4 C 0.7944(4) 0.3687(5) 0.7780(1)
C26_4 C 0.7716(4) 0.2669(4) 0.7588(1)
C27_4 C 0.8389(5) 0.2687(5) 0.7653(1)
C28_4 C 0.8839(5) 0.3225(5) 0.7784(1)
C29_4 C 0.4458(5) 0.4123(6) 0.7745(1)
C30_4 C 0.3983(6) 0.3313(6) 0.7827(1)
C31_4 C 0.2688(6) 0.3153(8) 0.7913(2)
C32_4 C 0.2307(8) 0.3366(8) 0.8056(2)
C33_4 C 0.2694(9) 0.4738(9) 0.8006(3)
C34_4 C 0.3401(9) 0.5541(8) 0.8032(2)
C35_4 C 0.4435(8) 0.5630(7) 0.7827(2)
C36_4 C 0.5071(6) 0.5471(6) 0.7812(1)
C37_4 C 0.5503(5) 0.4653(5) 0.7977(1)
C38_4 C 0.6139(5) 0.4771(5) 0.7839(1)
C39_4 C 0.6161(5) 0.4136(5) 0.7762(1)
C40_4 C 0.7190(5) 0.4885(4) 0.7576(1)
C41_4 C 0.7236(5) 0.5552(5) 0.7644(1)
C42_4 C 0.6703(5) 0.5493(5) 0.7783(1)
H9_4 H 0.6879 0.0394 0.8012
H16_4 H 0.9374 0.6470 0.8067
H18_4 H 0.6791 0.0043 0.7699
H20_4 H 0.6264 0.0892 0.7806
H21_4 H 0.5775 0.0404 0.7635
H23_4 H 0.5525 0.0977 0.8036
H24_4 H 0.4632 0.0416 0.8035
H25_4 H 0.6114 0.1985 0.7818
H26_4 H 0.3400 0.2978 0.8059
H27_4 H 0.2674 0.4198 0.8235
H28_4 H 0.3771 0.1362 0.7561
H29_4 H 0.4524 0.5915 0.8091
H30_4 H 0.3838 0.0539 0.7781
H31_4 H 0.9189 0.5075 0.7655
H32_4 H 0.9985 0.5842 0.7673
H33_4 H 0.9012 0.6141 0.7737
H34_4 H 0.8649 0.5487 0.7889
H35_4 H 0.9915 0.7461 0.7865
H47_4 H 0.9330 0.4218 0.8074
H48_4 H 0.8800 0.4578 0.8042
H49_4 H 0.7774 0.4010 0.7827
H50_4 H 0.8527 0.2336 0.7608
H51_4 H 0.9271 0.3224 0.7831
H52_4 H 0.4833 0.4129 0.7658
H53_4 H 0.4119 0.4250 0.7676
H54_4 H 0.3684 0.2949 0.7729
H55_4 H 0.4322 0.3151 0.7882
H56_4 H 0.2726 0.3431 0.7799
H57_4 H 0.2377 0.2605 0.7887
H58_4 H 0.1823 0.3296 0.8007
H59_4 H 0.2190 0.3030 0.8163
H60_4 H 0.2234 0.4742 0.8047
H61_4 H 0.2631 0.4601 0.7874
H62_4 H 0.3394 0.5887 0.7938
H63_4 H 0.3372 0.5739 0.8153
H64_4 H 0.4607 0.6153 0.7785
H65_4 H 0.4015 0.5279 0.7746
H66_4 H 0.5514 0.5865 0.7879
H67_4 H 0.5216 0.5496 0.7682
H68_4 H 0.5298 0.4151 0.8035
H69_4 H 0.5727 0.5041 0.8074
H70_4 H 0.5791 0.3646 0.7803
H71_4 H 0.7610 0.6032 0.7600
H72_4 H 0.6735 0.5934 0.7834
Zn5_4 Zn 0.56701(11) 0.60324(8) 0.69024(2)
Zn7_4 Zn 0.60396(8) 0.04733(11) 0.85629(2)
O3_4 O 0.4532(5) 0.4552(6) 0.83357(7)
O6_7 O 1.0000(5) 0.5522 0.8333
N16_4 N 0.4842(6) 0.0046(4) 0.71224(9)
N20_4 N 0.6704(6) 0.2308(4) 0.73662(8)
N21_4 N 0.5318(6) 0.5102(4) 0.71157(9)
N22_4 N 0.6759(7) 0.6424(5) 0.7024(1)
N23_4 N 0.6043(8) 0.7249(6) 0.6890(1)
N24_4 N 0.4612(8) 0.5942(6) 0.6995(1)
N25_4 N 0.5661(6) 0.3159(4) 0.73451(8)
N26_4 N 0.9844(6) 0.4704(4) 0.71121(9)
N27_4 N 0.9867(7) 0.3328(5) 0.7030(1)
N30_4 N 0.7527(6) 0.4183(4) 0.73589(9)
C50_4 C 0.4467(10) 0.0373(7) 0.7237(1)
C51_4 C 0.5568(7) 0.0656(5) 0.7043(1)
C52_4 C 0.6165(7) 0.1163(5) 0.7181(1)
C53_4 C 0.6204(7) 0.1844(5) 0.7236(1)
C54_4 C 0.7209(6) 0.2131(4) 0.7443(1)
C55_4 C 0.7230(7) 0.1473(5) 0.7389(1)
C56_4 C 0.6699(7) 0.0983(5) 0.7256(1)
C57_4 C 0.5927(8) 0.5465(5) 0.7258(1)
C58_4 C 0.6738(8) 0.5867(6) 0.7169(1)
C59_4 C 0.7005(11) 0.7208(7) 0.7099(2)
C60_4 C 0.6886(12) 0.7686(8) 0.6949(2)
C61_4 C 0.5531(13) 0.736(1) 0.7001(3)
C62_4 C 0.4669(12) 0.670(1) 0.6969(3)
C63_4 C 0.4485(9) 0.5665(7) 0.7188(2)
C64_4 C 0.4575(8) 0.4930(6) 0.7187(1)
C65_4 C 0.5290(7) 0.4414(5) 0.7020(1)
C66_4 C 0.5141(6) 0.3794(5) 0.7151(1)
C67_4 C 0.5743(6) 0.3687(5) 0.7220(1)
C68_4 C 0.4953(6) 0.2669(4) 0.7412(1)
C69_4 C 0.4298(7) 0.2687(5) 0.7347(1)
C70_4 C 0.4386(7) 0.3225(5) 0.7216(1)
C71_4 C 0.9665(8) 0.4123(6) 0.7255(1)
C72_4 C 0.9330(8) 0.3313(6) 0.7173(1)
C79_4 C 0.9150(7) 0.4653(5) 0.7023(1)
C80_4 C 0.8632(7) 0.4771(5) 0.7161(1)
C81_4 C 0.7975(7) 0.4136(5) 0.7238(1)
C82_4 C 0.7695(6) 0.4885(4) 0.7424(1)
C83_4 C 0.8316(7) 0.5552(5) 0.7356(1)
C84_4 C 0.8790(7) 0.5493(5) 0.7217(1)
H81_4 H 0.3515 0.0394 0.6988
H88_4 H 0.7096 0.6470 0.6933
H90_4 H 0.3252 0.0043 0.7301
H91_4 H 0.6007 0.7377 0.6771
H92_4 H 0.4628 0.0892 0.7194
H93_4 H 0.4629 0.0404 0.7365
H94_4 H 0.4218 0.5589 0.6922
H95_4 H 0.5452 0.0977 0.6964
H96_4 H 0.5784 0.0416 0.6965
H97_4 H 0.5871 0.1985 0.7182
H98_4 H 0.9578 0.2978 0.6941
H100_4 H 0.7591 0.1362 0.7439
H102_4 H 0.6701 0.0539 0.7219
H103_4 H 0.5886 0.5075 0.7345
H104_4 H 0.5857 0.5842 0.7327
H105_4 H 0.7129 0.6141 0.7263
H106_4 H 0.6838 0.5487 0.7111
H107_4 H 0.7546 0.7461 0.7135
H108_4 H 0.6704 0.7166 0.7209
H109_4 H 0.7017 0.8189 0.6999
H110_4 H 0.7217 0.7763 0.6843
H111_4 H 0.5585 0.7860 0.6971
H112_4 H 0.5670 0.7373 0.7131
H113_4 H 0.4338 0.6763 0.7057
H114_4 H 0.4512 0.6743 0.6844
H115_4 H 0.3973 0.5535 0.7230
H116_4 H 0.4864 0.6057 0.7270
H117_4 H 0.4514 0.4731 0.7313
H118_4 H 0.4171 0.4533 0.7110
H119_4 H 0.4888 0.4218 0.6926
H120_4 H 0.5778 0.4578 0.6958
H121_4 H 0.6236 0.4010 0.7173
H122_4 H 0.3809 0.2336 0.7392
H123_4 H 0.3953 0.3224 0.7169
H124_4 H 0.9296 0.4129 0.7342
H126_4 H 0.9265 0.2949 0.7271
H127_4 H 0.8829 0.3151 0.7118
H140_4 H 0.8853 0.4151 0.6965
H141_4 H 0.9314 0.5041 0.6926
H142_4 H 0.7855 0.3646 0.7197
H143_4 H 0.8422 0.6032 0.7400
H144_4 H 0.9199 0.5934 0.7166
Zn2_5 Zn 0.43299(11) 0.03623(7) 0.97643(2)
N8_5 N 0.3957(8) 0.1206(5) 0.9777(1)
N9_5 N 0.5388(8) 0.1330(5) 0.9672(1)
C17_5 C 0.2995(11) 0.0203(9) 0.9568(2)
C18_5 C 0.3114(12) 0.0800(9) 0.9718(2)
C19_5 C 0.4469(13) 0.1829(8) 0.9666(3)
C20_5 C 0.5331(12) 0.2031(7) 0.9698(3)
C21_5 C 0.5515(9) 0.1180(6) 0.9479(2)
C22_5 C 0.5425(8) 0.0355(5) 0.9480(1)
H19_5 H 0.3993 0.1370 0.9896
H22_5 H 0.5782 0.1371 0.9745
H36_5 H 0.3296 0.0462 0.9458
H37_5 H 0.2983 0.1172 0.9668
H38_5 H 0.2783 0.0546 0.9824
H39_5 H 0.4415 0.2275 0.9696
H40_5 H 0.4330 0.1703 0.9536
H41_5 H 0.5662 0.2425 0.9610
H42_5 H 0.5488 0.2231 0.9823
H43_5 H 0.6027 0.1562 0.9437
H44_5 H 0.5136 0.1193 0.9397
H45_5 H 0.5486 0.0217 0.9354
H46_5 H 0.5829 0.0362 0.9557
O6_8 O 0.4478(5) -0.0000(5) 0.9999
N28_5 N 0.7210(11) 0.1372(9) 0.8553(1)
N29_5 N 0.5841(10) 0.1380(8) 0.8649(1)
C73_5 C 0.7312(13) 0.0465(10) 0.8754(2)
C74_5 C 0.7693(14) 0.1059(11) 0.8611(2)
C75_5 C 0.7306(16) 0.2044(13) 0.8661(3)
C76_5 C 0.6599(14) 0.2140(12) 0.8635(2)
C77_5 C 0.5565(13) 0.1195(11) 0.8840(2)
C78_5 C 0.4929(10) 0.0400(8) 0.8855(1)
H99_5 H 0.7326 0.1524 0.8432
H101_5 H 0.5476 0.1391 0.8576
H125_5 H 0.5881 0.0131 0.8991
H128_5 H 0.7274 0.0705 0.8868
H129_5 H 0.7623 0.0228 0.8780
H130_5 H 0.8177 0.1473 0.8660
H131_5 H 0.7810 0.0840 0.8504
H132_5 H 0.7766 0.2508 0.8620
H133_5 H 0.7369 0.1970 0.8793
H134_5 H 0.6606 0.2493 0.8729
H135_5 H 0.6628 0.2367 0.8514
H136_5 H 0.5393 0.1546 0.8882
H137_5 H 0.5985 0.1264 0.8921
H138_5 H 0.4486 0.0351 0.8788
H139_5 H 0.4784 0.0280 0.8985
Zn7_5 Zn 0.55663(14) 0.60396(8) 0.02295(2)
Ru1_5 Ru 0.33871(8) 0.66129(4) 0.9167
Zn1_3 Zn 0.59882(11) 0.54532(8) 0.97824(2)
O1_5 O 0.5448(6) 0.5468(5) 0.99977(7)
N1_5 N 0.5158(6) 0.5204(4) 0.95443(9)
N2_3 N 0.5684(8) 0.4276(6) 0.9722(1)
N3_3 N 0.7095(11) 0.5561(8) 0.9823(1)
N4_3 N 0.6616(9) 0.6523(6) 0.9643(1)
N5_5 N 0.3296(6) 0.5604(4) 0.93005(8)
N6_5 N 0.4682(6) 0.9784(4) 0.95510(9)
N7_5 N 0.3241(7) 0.9665(5) 0.9643(1)
N10_5 N 0.4339(6) 0.7498(4) 0.93216(8)
N11_5 N 0.0156(6) 0.4860(4) 0.95546(9)
N12_5 N 0.0133(7) 0.3461(5) 0.9637(1)
N15_5 N 0.2473(6) 0.6656(4) 0.93078(9)
C1_3 C 0.5099(8) 0.4525(6) 0.9451(1)
C2_3 C 0.5086(10) 0.3963(7) 0.9574(2)
C3_3 C 0.6451(13) 0.434(1) 0.9677(3)
C4_3 C 0.7000(13) 0.475(1) 0.9798(2)
C5_3 C 0.760(3) 0.627(2) 0.9700(2)
C6_3 C 0.740(1) 0.679(1) 0.9651(3)
C7_3 C 0.6502(13) 0.6332(9) 0.9443(2)
C8_5 C 0.5533(10) 0.5906(7) 0.9430(1)
C9_5 C 0.4432(7) 0.5088(5) 0.9624(1)
C10_5 C 0.3835(7) 0.4998(5) 0.9486(1)
C11_5 C 0.3796(7) 0.5640(5) 0.9431(1)
C12_5 C 0.2791(6) 0.4922(4) 0.9224(1)
C13_5 C 0.2770(7) 0.4243(5) 0.9278(1)
C14_5 C 0.3301(7) 0.4284(5) 0.9411(1)
C15_5 C 0.4073(8) 0.9538(6) 0.9409(1)
C16_5 C 0.3262(8) 0.9129(6) 0.9498(1)
C23_5 C 0.4710(7) 0.9124(5) 0.9647(1)
C24_5 C 0.4859(6) 0.8653(4) 0.9516(1)
C25_5 C 0.4257(6) 0.7944(4) 0.9447(1)
C26_5 C 0.5047(6) 0.7716(4) 0.9255(1)
C27_5 C 0.5702(7) 0.8389(5) 0.9320(1)
C28_5 C 0.5614(7) 0.8839(5) 0.9451(1)
C29_5 C 0.0335(8) 0.4458(5) 0.9412(1)
C30_5 C 0.0670(8) 0.3983(6) 0.9494(1)
C37_5 C 0.0850(7) 0.5503(5) 0.9644(1)
C38_5 C 0.1368(7) 0.6139(5) 0.9506(1)
C39_5 C 0.2025(7) 0.6161(5) 0.9429(1)
C40_5 C 0.2305(6) 0.7190(5) 0.9243(1)
C41_5 C 0.1684(7) 0.7236(5) 0.9311(1)
C42_5 C 0.1210(7) 0.6703(5) 0.9450(1)
H1_3 H 0.4632 0.4286 0.9377
H2_3 H 0.5533 0.4693 0.9367
H3_3 H 0.5489 0.3986 0.9827
H4_3 H 0.5152 0.3590 0.9502
H5_3 H 0.4582 0.3689 0.9633
H6_3 H 0.7235 0.5705 0.9944
H7_3 H 0.6381 0.3823 0.9672
H8_3 H 0.6612 0.4567 0.9554
H9_5 H 0.6485 0.6879 0.9679
H10_3 H 0.7488 0.4808 0.9754
H11_3 H 0.6883 0.4490 0.9917
H12_3 H 0.8096 0.6549 0.9761
H13_3 H 0.7685 0.6067 0.9585
H14_3 H 0.7618 0.6996 0.9529
H15_3 H 0.7629 0.7216 0.9739
H16_5 H 0.2904 0.9374 0.9734
H17_3 H 0.6678 0.5981 0.9408
H18_5 H 0.6748 0.6791 0.9366
H20_5 H 0.5372 0.6264 0.9473
H21_5 H 0.5371 0.5775 0.9302
H23_5 H 0.4548 0.5525 0.9703
H24_5 H 0.4216 0.4632 0.9702
H25_5 H 0.4129 0.6114 0.9485
H26_5 H 0.0422 0.3400 0.9726
H28_5 H 0.2409 0.3771 0.9228
H30_5 H 0.3299 0.3838 0.9448
H31_5 H 0.4114 0.9189 0.9322
H32_5 H 0.4143 0.9985 0.9340
H33_5 H 0.2871 0.9012 0.9404
H34_5 H 0.3162 0.8649 0.9556
H35_5 H 0.2454 0.9915 0.9532
H47_5 H 0.5112 0.9330 0.9741
H48_5 H 0.4222 0.8800 0.9709
H49_5 H 0.3764 0.7774 0.9494
H50_5 H 0.6191 0.8527 0.9275
H51_5 H 0.6047 0.9271 0.9498
H52_5 H 0.0704 0.4833 0.9325
H54_5 H 0.0735 0.3684 0.9396
H55_5 H 0.1171 0.4322 0.9549
H68_5 H 0.1147 0.5298 0.9702
H69_5 H 0.0686 0.5727 0.9741
H70_5 H 0.2145 0.5791 0.9470
H71_5 H 0.1578 0.7610 0.9267
H72_5 H 0.0801 0.6735 0.9501
Zn4_3 Zn 0.45468(13) 0.40118(11) 0.85510(2)
O6_9 O 0.4478(5) 1.0000(5) 0.9999
N16_5 N 0.4796(7) 0.4842(6) 0.87891(9)
N17_3 N 0.5724(9) 0.4316(8) 0.8612(1)
N18_3 N 0.4439(13) 0.2905(11) 0.8511(1)
N19_3 N 0.3477(11) 0.3384(9) 0.8691(1)
N20_5 N 0.4396(7) 0.6704(6) 0.90329(8)
N21_5 N 0.0216(7) 0.5318(6) 0.87824(9)
N22_5 N 0.0335(9) 0.6759(7) 0.8691(1)
N25_5 N 0.2502(7) 0.5661(6) 0.90118(8)
N26_5 N 0.5140(7) 0.9844(6) 0.87788(9)
N27_5 N 0.6539(9) 0.9867(7) 0.8697(1)
N30_5 N 0.3344(7) 0.7527(6) 0.90256(9)
C43_3 C 0.5475(10) 0.4901(8) 0.8883(1)
C44_3 C 0.6037(12) 0.4914(10) 0.8760(2)
C45_3 C 0.5660(15) 0.3549(13) 0.8657(3)
C46_3 C 0.5250(15) 0.3000(13) 0.8536(2)
C47_3 C 0.373(4) 0.240(3) 0.8634(2)
C48_3 C 0.321(1) 0.260(1) 0.8683(3)
C49_3 C 0.3668(16) 0.3498(13) 0.8891(2)
C50_5 C 0.4094(12) 0.4467(10) 0.8904(1)
C51_5 C 0.4912(9) 0.5568(7) 0.8710(1)
C52_5 C 0.5002(9) 0.6165(7) 0.8848(1)
C53_5 C 0.4360(9) 0.6204(7) 0.8903(1)
C54_5 C 0.5078(7) 0.7209(6) 0.9110(1)
C55_5 C 0.5757(9) 0.7230(7) 0.9056(1)
C56_5 C 0.5716(9) 0.6699(7) 0.8923(1)
C57_5 C 0.0462(9) 0.5927(8) 0.8925(1)
C58_5 C 0.0871(10) 0.6738(8) 0.8836(1)
C65_5 C 0.0876(9) 0.5290(7) 0.8687(1)
C66_5 C 0.1347(8) 0.5141(6) 0.8818(1)
C67_5 C 0.2056(8) 0.5743(6) 0.8887(1)
C68_5 C 0.2284(7) 0.4953(6) 0.9079(1)
C69_5 C 0.1611(9) 0.4298(7) 0.9014(1)
C70_5 C 0.1161(9) 0.4386(7) 0.8883(1)
C71_5 C 0.5542(10) 0.9665(8) 0.8922(1)
C72_5 C 0.6017(10) 0.9330(8) 0.8840(1)
C79_5 C 0.4497(9) 0.9150(7) 0.8690(1)
C80_5 C 0.3861(9) 0.8632(7) 0.8828(1)
C81_5 C 0.3839(9) 0.7975(7) 0.8905(1)
C82_5 C 0.2810(7) 0.7695(6) 0.9091(1)
C83_5 C 0.2764(9) 0.8316(7) 0.9023(1)
C84_5 C 0.3297(9) 0.8790(7) 0.8884(1)
H73_3 H 0.5714 0.5368 0.8957
H74_3 H 0.5307 0.4467 0.8967
H75_3 H 0.6014 0.4511 0.8507
H76_3 H 0.6410 0.4848 0.8832
H77_3 H 0.6311 0.5418 0.8701
H78_3 H 0.4295 0.2765 0.8390
H79_3 H 0.6177 0.3619 0.8662
H80_3 H 0.5433 0.3388 0.8780
H81_5 H 0.3121 0.3515 0.8655
H82_3 H 0.5192 0.2512 0.8580
H83_3 H 0.5510 0.3117 0.8417
H84_3 H 0.3451 0.1904 0.8573
H85_3 H 0.3933 0.2315 0.8749
H86_3 H 0.3004 0.2382 0.8805
H87_3 H 0.2784 0.2371 0.8595
H88_5 H 0.0626 0.7096 0.8600
H89_3 H 0.4019 0.3322 0.8926
H90_5 H 0.3209 0.3252 0.8968
H92_5 H 0.3736 0.4628 0.8861
H93_5 H 0.4225 0.4629 0.9032
H95_5 H 0.4475 0.5452 0.8631
H96_5 H 0.5368 0.5784 0.8632
H97_5 H 0.3886 0.5871 0.8849
H98_5 H 0.6600 0.9578 0.8608
H100_5 H 0.6229 0.7591 0.9106
H102_5 H 0.6162 0.6701 0.8886
H103_5 H 0.0811 0.5886 0.9012
H104_5 H 0.0015 0.5857 0.8994
H105_5 H 0.0988 0.7129 0.8930
H106_5 H 0.1351 0.6838 0.8778
H107_5 H 0.0085 0.7546 0.8802
H119_5 H 0.0670 0.4888 0.8593
H120_5 H 0.1200 0.5778 0.8625
H121_5 H 0.2226 0.6236 0.8840
H122_5 H 0.1473 0.3809 0.9059
H123_5 H 0.0729 0.3953 0.8836
H124_5 H 0.5167 0.9296 0.9009
H126_5 H 0.6316 0.9265 0.8938
H127_5 H 0.5678 0.8829 0.8785
H140_5 H 0.4702 0.8853 0.8632
H141_5 H 0.4273 0.9314 0.8593
H142_5 H 0.4209 0.7855 0.8864
H143_5 H 0.2390 0.8422 0.9067
H144_5 H 0.3265 0.9199 0.8833
O3_5 O 0.9980(8) 0.4532(5) 0.00023(7)
Zn3_5 Zn 0.95267(11) 0.39604(8) 0.97705(2)
N13_5 N 0.8628(9) 0.2790(6) 0.9781(1)
N14_5 N 0.8620(8) 0.4159(6) 0.9685(1)
C31_5 C 0.9535(10) 0.2688(6) 0.9580(2)
C32_5 C 0.8941(11) 0.2307(8) 0.9723(2)
C33_5 C 0.7956(13) 0.2694(9) 0.9673(3)
C34_5 C 0.7860(12) 0.3401(9) 0.9699(2)
C35_5 C 0.8805(11) 0.4435(8) 0.9494(2)
C36_5 C 0.9600(8) 0.5071(6) 0.9479(1)
H27_5 H 0.8476 0.2674 0.9902
H29_5 H 0.8609 0.4524 0.9758
H53_5 H 0.9869 0.4119 0.9343
H56_5 H 0.9295 0.2726 0.9466
H57_5 H 0.9772 0.2377 0.9554
H58_5 H 0.8527 0.1823 0.9674
H59_5 H 0.9160 0.2190 0.9830
H60_5 H 0.7492 0.2234 0.9714
H61_5 H 0.8030 0.2631 0.9541
H62_5 H 0.7507 0.3394 0.9605
H63_5 H 0.7633 0.3372 0.9820
H64_5 H 0.8454 0.4607 0.9452
H65_5 H 0.8736 0.4015 0.9413
H66_5 H 0.9649 0.5514 0.9546
H67_5 H 0.9720 0.5216 0.9349
Zn5_5 Zn 0.96377(14) 0.56701(11) 0.85691(2)
N23_5 N 0.8794(10) 0.6043(8) 0.8557(1)
N24_5 N 0.8670(10) 0.4612(8) 0.8662(1)
C59_5 C 0.9797(13) 0.7005(11) 0.8766(2)
C60_5 C 0.9200(14) 0.6886(12) 0.8616(2)
C61_5 C 0.8171(16) 0.5531(13) 0.8668(3)
C62_5 C 0.7969(16) 0.4669(12) 0.8636(3)
C63_5 C 0.8820(11) 0.4485(9) 0.8855(2)
C64_5 C 0.9645(10) 0.4575(8) 0.8854(1)
H91_5 H 0.8630 0.6007 0.8438
H94_5 H 0.8629 0.4218 0.8589
H108_5 H 0.9538 0.6704 0.8876
H109_5 H 0.8828 0.7017 0.8666
H110_5 H 0.9454 0.7217 0.8510
H111_5 H 0.7725 0.5585 0.8638
H112_5 H 0.8297 0.5670 0.8798
H113_5 H 0.7575 0.4338 0.8724
H114_5 H 0.7769 0.4512 0.8511
H115_5 H 0.8438 0.3973 0.8897
H116_5 H 0.8807 0.4864 0.8937
H117_5 H 0.9783 0.4514 0.8980
H118_5 H 0.9638 0.4171 0.8777
Ru1_6 Ru 0.67742(7) 0.33871(8) 0.0833
N1_6 N 0.9954(4) 0.5158(6) 0.12109(9)
N5_6 N 0.7692(4) 0.3296(6) 0.09671(8)
N6_6 N 0.4898(4) 0.4682(6) 0.12176(9)
N7_6 N 0.3576(5) 0.3241(7) 0.1309(1)
N8_6 N 0.2751(6) 0.3957(8) 0.1443(1)
N9_6 N 0.4058(6) 0.5388(8) 0.1338(1)
N10_6 N 0.6841(4) 0.4339(6) 0.09882(8)
N11_6 N 0.5296(4) 0.0156(6) 0.12212(9)
N12_6 N 0.6672(5) 0.0133(7) 0.1303(1)
N15_6 N 0.5817(4) 0.2473(6) 0.09744(9)
C8_6 C 0.9627(7) 0.5533(10) 0.1096(1)
C9_6 C 0.9344(5) 0.4432(7) 0.1290(1)
C10_6 C 0.8837(5) 0.3835(7) 0.1152(1)
C11_6 C 0.8156(5) 0.3796(7) 0.1097(1)
C12_6 C 0.7869(4) 0.2791(6) 0.0890(1)
C13_6 C 0.8527(5) 0.2770(7) 0.0944(1)
C14_6 C 0.9017(5) 0.3301(7) 0.1077(1)
C15_6 C 0.4535(5) 0.4073(8) 0.1075(1)
C16_6 C 0.4133(6) 0.3262(8) 0.1164(1)
C17_6 C 0.2792(7) 0.2995(11) 0.1234(2)
C18_6 C 0.2314(8) 0.3114(12) 0.1384(2)
C19_6 C 0.264(1) 0.4469(13) 0.1332(3)
C20_6 C 0.330(1) 0.5331(12) 0.1364(3)
C21_6 C 0.4335(7) 0.5515(9) 0.1145(2)
C22_6 C 0.5070(6) 0.5425(8) 0.1146(1)
C23_6 C 0.5586(5) 0.4710(7) 0.1313(1)
C24_6 C 0.6206(5) 0.4859(6) 0.1182(1)
C25_6 C 0.6313(5) 0.4257(6) 0.1113(1)
C26_6 C 0.7331(4) 0.5047(6) 0.0921(1)
C27_6 C 0.7313(5) 0.5702(7) 0.0986(1)
C28_6 C 0.6775(5) 0.5614(7) 0.1117(1)
C29_6 C 0.5877(6) 0.0335(8) 0.1078(1)
C30_6 C 0.6687(6) 0.0670(8) 0.1160(1)
C37_6 C 0.5347(5) 0.0850(7) 0.1310(1)
C38_6 C 0.5229(5) 0.1368(7) 0.1172(1)
C39_6 C 0.5864(5) 0.2025(7) 0.1095(1)
C40_6 C 0.5115(4) 0.2305(6) 0.0909(1)
C41_6 C 0.4448(5) 0.1684(7) 0.0977(1)
C42_6 C 0.4507(5) 0.1210(7) 0.1116(1)
H9_6 H 0.9606 0.6485 0.1345
H16_6 H 0.3530 0.2904 0.1400
H18_6 H 0.9957 0.6748 0.1032
H19_6 H 0.2623 0.3993 0.1562
H20_6 H 0.9108 0.5372 0.1139
H21_6 H 0.9596 0.5371 0.0968
H22_6 H 0.4411 0.5782 0.1411
H23_6 H 0.9023 0.4548 0.1369
H24_6 H 0.9584 0.4216 0.1368
H25_6 H 0.8015 0.4129 0.1151
H26_6 H 0.7022 0.0422 0.1392
H28_6 H 0.8638 0.2409 0.0894
H30_6 H 0.9461 0.3299 0.1114
H31_6 H 0.4925 0.4114 0.0988
H32_6 H 0.4158 0.4143 0.1006
H33_6 H 0.3859 0.2871 0.1070
H34_6 H 0.4513 0.3162 0.1222
H35_6 H 0.2539 0.2454 0.1198
H36_6 H 0.2834 0.3296 0.1124
H37_6 H 0.1811 0.2983 0.1334
H38_6 H 0.2237 0.2783 0.1490
H39_6 H 0.2140 0.4415 0.1362
H40_6 H 0.2627 0.4330 0.1202
H41_6 H 0.3237 0.5662 0.1276
H42_6 H 0.3257 0.5488 0.1489
H43_6 H 0.4465 0.6027 0.1103
H44_6 H 0.3943 0.5136 0.1063
H45_6 H 0.5269 0.5486 0.1020
H46_6 H 0.5467 0.5829 0.1223
H47_6 H 0.5782 0.5112 0.1407
H48_6 H 0.5422 0.4222 0.1375
H49_6 H 0.5990 0.3764 0.1160
H50_6 H 0.7664 0.6191 0.0941
H51_6 H 0.6776 0.6047 0.1164
H52_6 H 0.5871 0.0704 0.0991
H54_6 H 0.7051 0.0735 0.1062
H55_6 H 0.6849 0.1171 0.1215
H68_6 H 0.5849 0.1147 0.1368
H69_6 H 0.4959 0.0686 0.1407
H70_6 H 0.6354 0.2145 0.1136
H71_6 H 0.3968 0.1578 0.0933
H72_6 H 0.4066 0.0801 0.1167
N16_6 N 0.9954(4) 0.4796(7) 0.04557(9)
N20_6 N 0.7692(4) 0.4396(7) 0.06995(8)
N21_6 N 0.4898(4) 0.0216(7) 0.04490(9)
N22_6 N 0.3576(5) 0.0335(9) 0.0357(1)
N25_6 N 0.6841(4) 0.2502(7) 0.06784(8)
N26_6 N 0.5296(4) 0.5140(7) 0.04454(9)
N27_6 N 0.6672(5) 0.6539(9) 0.0363(1)
N28_6 N 0.5838(7) 0.7210(11) 0.0219(1)
N29_6 N 0.4461(6) 0.5841(10) 0.0315(1)
N30_6 N 0.5817(4) 0.3344(7) 0.06922(9)
C50_6 C 0.9627(7) 0.4094(12) 0.0570(1)
C51_6 C 0.9344(5) 0.4912(9) 0.0376(1)
C52_6 C 0.8837(5) 0.5002(9) 0.0514(1)
C53_6 C 0.8156(5) 0.4360(9) 0.0569(1)
C54_6 C 0.7869(4) 0.5078(7) 0.0776(1)
C55_6 C 0.8527(5) 0.5757(9) 0.0722(1)
C56_6 C 0.9017(5) 0.5716(9) 0.0589(1)
C57_6 C 0.4535(5) 0.0462(9) 0.0591(1)
C58_6 C 0.4133(6) 0.0871(10) 0.0502(1)
C65_6 C 0.5586(5) 0.0876(9) 0.0353(1)
C66_6 C 0.6206(5) 0.1347(8) 0.0484(1)
C67_6 C 0.6313(5) 0.2056(8) 0.0553(1)
C68_6 C 0.7331(4) 0.2284(7) 0.0745(1)
C69_6 C 0.7313(5) 0.1611(9) 0.0680(1)
C70_6 C 0.6775(5) 0.1161(9) 0.0549(1)
C71_6 C 0.5877(6) 0.5542(10) 0.0588(1)
C72_6 C 0.6687(6) 0.6017(10) 0.0506(1)
C73_6 C 0.6847(8) 0.7312(13) 0.0420(2)
C74_6 C 0.6634(8) 0.7693(14) 0.0277(2)
C75_6 C 0.5262(9) 0.7306(16) 0.0327(3)
C76_6 C 0.4459(8) 0.6599(14) 0.0301(2)
C77_6 C 0.4370(7) 0.5565(13) 0.0506(2)
C78_6 C 0.4529(6) 0.4929(10) 0.0521(1)
C79_6 C 0.5347(5) 0.4497(9) 0.0356(1)
C80_6 C 0.5229(5) 0.3861(9) 0.0494(1)
C81_6 C 0.5864(5) 0.3839(9) 0.0571(1)
C82_6 C 0.5115(4) 0.2810(7) 0.0757(1)
C83_6 C 0.4448(5) 0.2764(9) 0.0689(1)
C84_6 C 0.4507(5) 0.3297(9) 0.0550(1)
H81_6 H 0.9606 0.3121 0.0321
H88_6 H 0.3530 0.0626 0.0266
H90_6 H 0.9957 0.3209 0.0634
H92_6 H 0.9108 0.3736 0.0527
H93_6 H 0.9596 0.4225 0.0698
H95_6 H 0.9023 0.4475 0.0297
H96_6 H 0.9584 0.5368 0.0298
H97_6 H 0.8015 0.3886 0.0515
H98_6 H 0.7022 0.6600 0.0274
H99_6 H 0.5802 0.7326 0.0098
H100_6 H 0.8638 0.6229 0.0772
H101_6 H 0.4085 0.5476 0.0242
H102_6 H 0.9461 0.6162 0.0552
H103_6 H 0.4925 0.0811 0.0678
H104_6 H 0.4158 0.0015 0.0660
H105_6 H 0.3859 0.0988 0.0596
H106_6 H 0.4513 0.1351 0.0444
H107_6 H 0.2539 0.0085 0.0468
H119_6 H 0.5782 0.0670 0.0259
H120_6 H 0.5422 0.1200 0.0291
H121_6 H 0.5990 0.2226 0.0506
H122_6 H 0.7664 0.1473 0.0725
H123_6 H 0.6776 0.0729 0.0502
H124_6 H 0.5871 0.5167 0.0675
H125_6 H 0.5750 0.5881 0.0657
H126_6 H 0.7051 0.6316 0.0604
H127_6 H 0.6849 0.5678 0.0451
H128_6 H 0.6569 0.7274 0.0534
H129_6 H 0.7395 0.7623 0.0446
H130_6 H 0.6704 0.8177 0.0326
H131_6 H 0.6970 0.7810 0.0170
H132_6 H 0.5258 0.7766 0.0286
H133_6 H 0.5399 0.7369 0.0459
H134_6 H 0.4113 0.6606 0.0395
H135_6 H 0.4261 0.6628 0.0180
H136_6 H 0.3847 0.5393 0.0548
H137_6 H 0.4721 0.5985 0.0587
H138_6 H 0.4135 0.4486 0.0454
H139_6 H 0.4504 0.4784 0.0651
H140_6 H 0.5849 0.4702 0.0298
H141_6 H 0.4959 0.4273 0.0259
H142_6 H 0.6354 0.4209 0.0530
H143_6 H 0.3968 0.2390 0.0733
H144_6 H 0.4066 0.3265 0.0499
N13_6 N 0.5838(7) 0.8628(9) 0.1447(1)
N14_6 N 0.4461(6) 0.8620(8) 0.1351(1)
C31_6 C 0.6847(8) 0.9535(10) 0.1246(2)
C32_6 C 0.6634(8) 0.8941(11) 0.1389(2)
C33_6 C 0.5262(9) 0.7956(13) 0.1339(3)
C34_6 C 0.4459(8) 0.7860(12) 0.1365(2)
C35_6 C 0.4370(7) 0.8805(11) 0.1160(2)
C36_6 C 0.4529(6) 0.9600(8) 0.1145(1)
H27_6 H 0.5802 0.8476 0.1568
H29_6 H 0.4085 0.8609 0.1424
H53_6 H 0.5750 0.9869 0.1009
H56_6 H 0.6569 0.9295 0.1132
H57_6 H 0.7395 0.9772 0.1220
H58_6 H 0.6704 0.8527 0.1340
H59_6 H 0.6970 0.9160 0.1496
H60_6 H 0.5258 0.7492 0.1380
H61_6 H 0.5399 0.8030 0.1207
H62_6 H 0.4113 0.7507 0.1271
H63_6 H 0.4261 0.7633 0.1486
H64_6 H 0.3847 0.8454 0.1118
H65_6 H 0.4721 0.8736 0.1079
H66_6 H 0.4135 0.9649 0.1212
H67_6 H 0.4504 0.9720 0.1015
Zn5_6 Zn 0.39676(8) 0.96377(14) 0.02357(2)
N23_6 N 0.2751(6) 0.8794(10) 0.0223(1)
N24_6 N 0.4058(6) 0.8670(10) 0.0328(1)
C59_6 C 0.2792(7) 0.9797(13) 0.0432(2)
C60_6 C 0.2314(8) 0.9200(14) 0.0282(2)
C61_6 C 0.264(1) 0.8171(16) 0.0334(3)
C62_6 C 0.330(1) 0.7969(16) 0.0302(3)
C63_6 C 0.4335(7) 0.8820(11) 0.0521(2)
C64_6 C 0.5070(6) 0.9645(10) 0.0520(1)
H91_6 H 0.2623 0.8630 0.0104
H94_6 H 0.4411 0.8629 0.0255
H108_6 H 0.2834 0.9538 0.0542
H109_6 H 0.1811 0.8828 0.0332
H110_6 H 0.2237 0.9454 0.0176
H111_6 H 0.2140 0.7725 0.0304
H112_6 H 0.2627 0.8297 0.0464
H113_6 H 0.3237 0.7575 0.0390
H114_6 H 0.3257 0.7769 0.0177
H115_6 H 0.4465 0.8438 0.0563
H116_6 H 0.3943 0.8807 0.0603
H117_6 H 0.5269 0.9783 0.0646
H118_6 H 0.5467 0.9638 0.0443
O6_10 O 0.4478 0.0000(5) 0.0001
O6_11 O 0.4478 1.0000(5) 0.0001
Zn1_4 Zn 0.94650(7) 0.40118(11) 0.64490(2)
N2_4 N 0.8592(5) 0.4316(8) 0.6388(1)
N3_4 N 0.8466(7) 0.2905(11) 0.6489(1)
N4_4 N 0.9907(7) 0.3384(9) 0.6309(1)
C1_4 C 0.9426(6) 0.4901(8) 0.6117(1)
C2_4 C 0.8877(7) 0.4914(10) 0.6240(2)
C3_4 C 0.7889(8) 0.3549(13) 0.6343(3)
C4_4 C 0.7750(8) 0.3000(13) 0.6464(2)
C5_4 C 0.867(2) 0.240(3) 0.6366(2)
C6_4 C 0.939(1) 0.260(1) 0.6317(3)
C7_4 C 0.983(1) 0.3498(13) 0.6109(2)
H1_4 H 0.9654 0.5368 0.6043
H2_4 H 0.9160 0.4467 0.6033
H3_4 H 0.8497 0.4511 0.6493
H4_4 H 0.8438 0.4848 0.6168
H5_4 H 0.9107 0.5418 0.6299
H6_4 H 0.8470 0.2765 0.6610
H7_4 H 0.7442 0.3619 0.6338
H8_4 H 0.7955 0.3388 0.6220
H10_4 H 0.7320 0.2512 0.6420
H11_4 H 0.7607 0.3117 0.6583
H12_4 H 0.8453 0.1904 0.6427
H13_4 H 0.8382 0.2315 0.6251
H14_4 H 0.9378 0.2382 0.6195
H15_4 H 0.9587 0.2371 0.6405
H17_4 H 0.9303 0.3322 0.6074
Zn4_4 Zn 0.94650(7) 0.54532(13) 0.52176(2)
N17_4 N 0.8592(5) 0.4276(9) 0.5278(1)
N18_4 N 0.8466(7) 0.5561(13) 0.5177(1)
N19_4 N 0.9907(7) 0.6523(11) 0.5357(1)
C43_4 C 0.9426(6) 0.4525(10) 0.5549(1)
C44_4 C 0.8877(7) 0.3963(12) 0.5426(2)
C45_4 C 0.7889(8) 0.4340(15) 0.5323(3)
C46_4 C 0.7750(8) 0.4750(15) 0.5202(2)
C47_4 C 0.867(2) 0.627(4) 0.5300(2)
C48_4 C 0.939(1) 0.679(1) 0.5349(3)
C49_4 C 0.983(1) 0.6332(16) 0.5557(2)
H73_4 H 0.9654 0.4286 0.5623
H74_4 H 0.9160 0.4693 0.5633
H75_4 H 0.8497 0.3986 0.5173
H76_4 H 0.8438 0.3590 0.5498
H77_4 H 0.9107 0.3689 0.5367
H78_4 H 0.8470 0.5705 0.5056
H79_4 H 0.7442 0.3823 0.5328
H80_4 H 0.7955 0.4567 0.5446
H82_4 H 0.7320 0.4808 0.5246
H83_4 H 0.7607 0.4490 0.5083
H84_4 H 0.8453 0.6549 0.5239
H85_4 H 0.8382 0.6067 0.5415
H86_4 H 0.9378 0.6996 0.5471
H87_4 H 0.9587 0.7216 0.5261
H89_4 H 0.9303 0.5981 0.5592
Zn1_5 Zn 0.54532(8) 0.94650(7) 0.81157(2)
N2_5 N 0.4276(6) 0.8592(5) 0.8055(1)
N3_5 N 0.5561(8) 0.8466(7) 0.8156(1)
N4_5 N 0.6523(6) 0.9907(7) 0.7976(1)
C1_5 C 0.4525(6) 0.9426(6) 0.7784(1)
C2_5 C 0.3963(7) 0.8877(7) 0.7907(2)
C3_5 C 0.434(1) 0.7889(8) 0.8010(3)
C4_5 C 0.475(1) 0.7750(8) 0.8131(2)
C5_5 C 0.627(2) 0.867(2) 0.8033(2)
C6_5 C 0.679(1) 0.939(1) 0.7984(3)
C7_5 C 0.6332(9) 0.983(1) 0.7776(2)
H1_5 H 0.4286 0.9654 0.7710
H2_5 H 0.4693 0.9160 0.7700
H3_5 H 0.3986 0.8497 0.8160
H4_5 H 0.3590 0.8438 0.7835
H5_5 H 0.3689 0.9107 0.7966
H6_5 H 0.5705 0.8470 0.8277
H7_5 H 0.3823 0.7442 0.8005
H8_5 H 0.4567 0.7955 0.7887
H10_5 H 0.4808 0.7320 0.8087
H11_5 H 0.4490 0.7607 0.8250
H12_5 H 0.6549 0.8453 0.8094
H13_5 H 0.6067 0.8382 0.7918
H14_5 H 0.6996 0.9378 0.7862
H15_5 H 0.7216 0.9587 0.8072
H17_5 H 0.5981 0.9303 0.7741
Zn4_5 Zn 0.40118(11) 0.94650(7) 0.68843(2)
N17_5 N 0.4316(8) 0.8592(5) 0.6945(1)
N18_5 N 0.2905(11) 0.8466(7) 0.6844(1)
N19_5 N 0.3384(9) 0.9907(7) 0.7024(1)
C43_5 C 0.4901(8) 0.9426(6) 0.7216(1)
C44_5 C 0.4914(10) 0.8877(7) 0.7093(2)
C45_5 C 0.3549(13) 0.7889(8) 0.6990(3)
C46_5 C 0.3000(13) 0.7750(8) 0.6869(2)
C47_5 C 0.240(3) 0.867(2) 0.6967(2)
C48_5 C 0.260(1) 0.939(1) 0.7016(3)
C49_5 C 0.3498(13) 0.983(1) 0.7224(2)
H73_5 H 0.5368 0.9654 0.7290
H74_5 H 0.4467 0.9160 0.7300
H75_5 H 0.4511 0.8497 0.6840
H76_5 H 0.4848 0.8438 0.7165
H77_5 H 0.5418 0.9107 0.7034
H78_5 H 0.2765 0.8470 0.6723
H79_5 H 0.3619 0.7442 0.6995
H80_5 H 0.3388 0.7955 0.7113
H82_5 H 0.2512 0.7320 0.6913
H83_5 H 0.3117 0.7607 0.6750
H84_5 H 0.1904 0.8453 0.6906
H85_5 H 0.2315 0.8382 0.7082
H86_5 H 0.2382 0.9378 0.7138
H87_5 H 0.2371 0.9587 0.6928
H89_5 H 0.3322 0.9303 0.7259
Zn1_6 Zn 0.05350(7) 0.59882(11) 0.14490(2)
N2_6 N 0.1408(5) 0.5684(8) 0.1388(1)
N3_6 N 0.1534(7) 0.7095(11) 0.1489(1)
N4_6 N 0.0093(7) 0.6616(9) 0.1309(1)
C1_6 C 0.0574(6) 0.5099(8) 0.1117(1)
C2_6 C 0.1123(7) 0.5086(10) 0.1240(2)
C3_6 C 0.2111(8) 0.6451(13) 0.1343(3)
C4_6 C 0.2250(8) 0.7000(13) 0.1464(2)
C5_6 C 0.133(2) 0.760(3) 0.1366(2)
C6_6 C 0.061(1) 0.740(1) 0.1317(3)
C7_6 C 0.017(1) 0.6502(13) 0.1109(2)
H1_6 H 0.0346 0.4632 0.1043
H2_6 H 0.0840 0.5533 0.1033
H3_6 H 0.1503 0.5489 0.1493
H4_6 H 0.1562 0.5152 0.1168
H5_6 H 0.0893 0.4582 0.1299
H6_6 H 0.1530 0.7235 0.1610
H7_6 H 0.2558 0.6381 0.1338
H8_6 H 0.2045 0.6612 0.1220
H10_6 H 0.2680 0.7488 0.1420
H11_6 H 0.2393 0.6883 0.1583
H12_6 H 0.1547 0.8096 0.1427
H13_6 H 0.1618 0.7685 0.1251
H14_6 H 0.0622 0.7618 0.1195
H15_6 H 0.0413 0.7629 0.1405
H17_6 H 0.0697 0.6678 0.1074
Zn4_6 Zn 0.05350(7) 0.45468(13) 0.02176(2)
N17_6 N 0.1408(5) 0.5724(9) 0.0278(1)
N18_6 N 0.1534(7) 0.4439(13) 0.0177(1)
N19_6 N 0.0093(7) 0.3477(11) 0.0357(1)
C43_6 C 0.0574(6) 0.5475(10) 0.0549(1)
C44_6 C 0.1123(7) 0.6037(12) 0.0426(2)
C45_6 C 0.2111(8) 0.5660(15) 0.0323(3)
C46_6 C 0.2250(8) 0.5250(15) 0.0202(2)
C47_6 C 0.133(2) 0.373(4) 0.0300(2)
C48_6 C 0.061(1) 0.321(1) 0.0349(3)
C49_6 C 0.017(1) 0.3668(16) 0.0557(2)
H73_6 H 0.0346 0.5714 0.0623
H74_6 H 0.0840 0.5307 0.0633
H75_6 H 0.1503 0.6014 0.0173
H76_6 H 0.1562 0.6410 0.0498
H77_6 H 0.0893 0.6311 0.0367
H78_6 H 0.1530 0.4295 0.0056
H79_6 H 0.2558 0.6177 0.0328
H80_6 H 0.2045 0.5433 0.0446
H82_6 H 0.2680 0.5192 0.0246
H83_6 H 0.2393 0.5510 0.0083
H84_6 H 0.1547 0.3451 0.0239
H85_6 H 0.1618 0.3933 0.0415
H86_6 H 0.0622 0.3004 0.0471
H87_6 H 0.0413 0.2784 0.0261
H89_6 H 0.0697 0.4019 0.0592
O7 O 0.2421(7) 0.6210(4) 0.0833
O8 O 0.3507(7) 0.7292(4) 0.0825(2)
N31 N 0.3143(7) 0.6571(4) 0.0833
O9 O 0.3507(7) 0.6215(8) 0.0842(2)
O7_2 O 0.6211(8) 0.2421(7) 0.2500
O8_2 O 0.6215(8) 0.3507(7) 0.2492(2)
N31_2 N 0.6572(8) 0.3143(7) 0.2500
O9_2 O 0.7292(11) 0.3507(7) 0.2508(2)
O7_3 O 0.3790(4) 0.6211(8) 0.4166
O8_3 O 0.2708(4) 0.6215(8) 0.4158(2)
N31_3 N 0.3429(4) 0.6572(8) 0.4166
O9_3 O 0.3785(8) 0.7292(11) 0.4175(2)
O7_4 O 0.7579(7) 0.3790(4) 0.5833
O8_4 O 0.6493(7) 0.2708(4) 0.5825(2)
N31_4 N 0.6857(7) 0.3429(4) 0.5833
O9_4 O 0.6493(7) 0.3785(8) 0.5842(2)
O7_5 O 0.3789(8) 0.7579(7) 0.7500
O8_5 O 0.3785(8) 0.6493(7) 0.7492(2)
N31_5 N 0.3428(8) 0.6857(7) 0.7500
O9_5 O 0.2708(11) 0.6493(7) 0.7508(2)
O7_6 O 0.6210(4) 0.3789(8) 0.9166
O8_6 O 0.7292(4) 0.3785(8) 0.9158(2)
N31_6 N 0.6571(4) 0.3428(8) 0.9166
O9_6 O 0.6215(8) 0.2708(11) 0.9175(2)
O10 O 0.3060(5) 0.3178(4) 0.0749(1)
O11 O 0.3022(5) 0.4200(4) 0.0832(1)
O12 O 0.2312(5) 0.3496(5) 0.0603(1)
N32 N 0.2798(3) 0.3625(3) 0.07279(7)
O10_2 O 0.9882(6) 0.3060(5) 0.2416(1)
O11_2 O 0.8822(6) 0.3022(5) 0.2499(1)
O12_2 O 0.8816(7) 0.2312(5) 0.2270(1)
N32_2 N 0.9173(4) 0.2798(3) 0.23946(7)
O10_3 O 0.6822(4) 0.9882(6) 0.4082(1)
O11_3 O 0.5800(4) 0.8822(6) 0.4165(1)
O12_3 O 0.6504(5) 0.8816(7) 0.3936(1)
N32_3 N 0.6375(3) 0.9173(4) 0.40612(7)
O10_4 O 0.6940(5) 0.6822(4) 0.5749(1)
O11_4 O 0.6978(5) 0.5800(4) 0.5832(1)
O12_4 O 0.7688(5) 0.6504(5) 0.5603(1)
N32_4 N 0.7202(3) 0.6375(3) 0.57279(7)
O10_5 O 0.0118(6) 0.6940(5) 0.7416(1)
O11_5 O 0.1178(6) 0.6978(5) 0.7499(1)
O12_5 O 0.1184(7) 0.7688(5) 0.7270(1)
N32_5 N 0.0827(4) 0.7202(3) 0.73946(7)
O10_6 O 0.3178(4) 0.0118(6) 0.9082(1)
O11_6 O 0.4200(4) 0.1178(6) 0.9165(1)
O12_6 O 0.3496(5) 0.1184(7) 0.8936(1)
N32_6 N 0.3625(3) 0.0827(4) 0.90612(7)
O10_7 O 0.9882(6) 0.6822(4) 0.9251(1)
O11_7 O 0.8822(6) 0.5800(4) 0.9168(1)
O12_7 O 0.8816(7) 0.6504(5) 0.9397(1)
N32_7 N 0.9173(4) 0.6375(3) 0.92721(7)
O10_8 O 0.6822(4) 0.6940(5) 0.7584(1)
O11_8 O 0.5800(4) 0.6978(5) 0.7501(1)
O12_8 O 0.6504(5) 0.7688(5) 0.7730(1)
N32_8 N 0.6375(3) 0.7202(3) 0.76054(7)
O10_9 O 0.6940(5) 0.0118(6) 0.5918(1)
O11_9 O 0.6978(5) 0.1178(6) 0.5835(1)
O12_9 O 0.7688(5) 0.1184(7) 0.6064(1)
N32_9 N 0.7202(3) 0.0827(4) 0.59388(7)
O10_10 O 0.0118(6) 0.3178(4) 0.4251(1)
O11_10 O 0.1178(6) 0.4200(4) 0.4168(1)
O12_10 O 0.1184(7) 0.3496(5) 0.4397(1)
N32_10 N 0.0827(4) 0.3625(3) 0.42721(7)
O10_11 O 0.3178(4) 0.3060(5) 0.2584(1)
O11_11 O 0.4200(4) 0.3022(5) 0.2501(1)
O12_11 O 0.3496(5) 0.2312(5) 0.2730(1)
N32_11 N 0.3625(3) 0.2798(3) 0.26054(7)
O10_12 O 0.3060(5) 0.9882(6) 0.0918(1)
O11_12 O 0.3022(5) 0.8822(6) 0.0835(1)
O12_12 O 0.2312(5) 0.8816(7) 0.1064(1)
N32_12 N 0.2798(3) 0.9173(4) 0.09388(7)
O13 O 0.5663(4) 0.8705(5) 0.0828(1)
O14 O 0.6695(5) 0.9757(4) 0.0746(1)
O15 O 0.6406(6) 0.8675(5) 0.0612(1)
N33 N 0.6254(4) 0.9046(4) 0.07290(8)
O13_2 O 0.6958(6) 0.5663(4) 0.2495(1)
O14_2 O 0.6938(6) 0.6695(5) 0.2413(1)
O15_2 O 0.7731(8) 0.6406(6) 0.2279(1)
N33_2 N 0.7208(6) 0.6254(4) 0.23957(8)
O13_3 O 0.1295(5) 0.6958(6) 0.4161(1)
O14_3 O 0.0243(4) 0.6938(6) 0.4079(1)
O15_3 O 0.1325(5) 0.7731(8) 0.3945(1)
N33_3 N 0.0954(4) 0.7208(6) 0.40623(8)
O13_4 O 0.4337(4) 0.1295(5) 0.5828(1)
O14_4 O 0.3305(5) 0.0243(4) 0.5746(1)
O15_4 O 0.3594(6) 0.1325(5) 0.5612(1)
N33_4 N 0.3746(4) 0.0954(4) 0.57290(8)
O13_5 O 0.3042(6) 0.4337(4) 0.7495(1)
O14_5 O 0.3062(6) 0.3305(5) 0.7413(1)
O15_5 O 0.2269(8) 0.3594(6) 0.7279(1)
N33_5 N 0.2792(6) 0.3746(4) 0.73957(8)
O13_6 O 0.8705(5) 0.3042(6) 0.9161(1)
O14_6 O 0.9757(4) 0.3062(6) 0.9079(1)
O15_6 O 0.8675(5) 0.2269(8) 0.8945(1)
N33_6 N 0.9046(4) 0.2792(6) 0.90623(8)
O13_7 O 0.6958(6) 0.1295(5) 0.9172(1)
O14_7 O 0.6938(6) 0.0243(4) 0.9254(1)
O15_7 O 0.7731(8) 0.1325(5) 0.9388(1)
N33_7 N 0.7208(6) 0.0954(4) 0.92710(8)
O13_8 O 0.1295(5) 0.4337(4) 0.7505(1)
O14_8 O 0.0243(4) 0.3305(5) 0.7587(1)
O15_8 O 0.1325(5) 0.3594(6) 0.7721(1)
N33_8 N 0.0954(4) 0.3746(4) 0.76043(8)
O13_9 O 0.4337(4) 0.3042(6) 0.5839(1)
O14_9 O 0.3305(5) 0.3062(6) 0.5921(1)
O15_9 O 0.3594(6) 0.2269(8) 0.6055(1)
N33_9 N 0.3746(4) 0.2792(6) 0.59377(8)
O13_10 O 0.3042(6) 0.8705(5) 0.4172(1)
O14_10 O 0.3062(6) 0.9757(4) 0.4254(1)
O15_10 O 0.2269(8) 0.8675(5) 0.4388(1)
N33_10 N 0.2792(6) 0.9046(4) 0.42710(8)
O13_11 O 0.8705(5) 0.5663(4) 0.2505(1)
O14_11 O 0.9757(4) 0.6695(5) 0.2587(1)
O15_11 O 0.8675(5) 0.6406(6) 0.2721(1)
N33_11 N 0.9046(4) 0.6254(4) 0.26043(8)
O13_12 O 0.5663(4) 0.6958(6) 0.0839(1)
O14_12 O 0.6695(5) 0.6938(6) 0.0921(1)
O15_12 O 0.6406(6) 0.7731(8) 0.1055(1)
N33_12 N 0.6254(4) 0.7208(6) 0.09377(8)
O16 O 0.446(1) 0.257(2) 0.0040(5)
O17 O 0.514(2) 0.220(2) 0.0199(5)
O18 O 0.568(2) 0.335(1) 0.0081(5)
N34 N 0.509(1) 0.271(1) 0.0107(2)
O16_2 O 0.189(2) 0.446(1) 0.1707(5)
O17_2 O 0.294(3) 0.514(2) 0.1866(5)
O18_2 O 0.233(2) 0.568(2) 0.1748(5)
N34_2 N 0.238(1) 0.509(1) 0.1774(2)
O16_3 O 0.743(2) 0.189(2) 0.3373(5)
O17_3 O 0.780(2) 0.294(3) 0.3532(5)
O18_3 O 0.665(1) 0.233(2) 0.3414(5)
N34_3 N 0.729(1) 0.238(1) 0.3440(2)
O16_4 O 0.554(1) 0.743(2) 0.5040(5)
O17_4 O 0.486(2) 0.780(2) 0.5199(5)
O18_4 O 0.432(2) 0.665(1) 0.5081(5)
N34_4 N 0.491(1) 0.729(1) 0.5107(2)
O16_5 O 0.811(2) 0.554(1) 0.6707(5)
O17_5 O 0.706(3) 0.486(2) 0.6866(5)
O18_5 O 0.767(2) 0.432(2) 0.6748(5)
N34_5 N 0.762(1) 0.491(1) 0.6774(2)
O16_6 O 0.257(2) 0.811(2) 0.8373(5)
O17_6 O 0.220(2) 0.706(3) 0.8532(5)
O18_6 O 0.335(1) 0.767(2) 0.8414(5)
N34_6 N 0.271(1) 0.762(1) 0.8440(2)
O16_7 O 0.189(2) 0.743(2) 0.9960(5)
O17_7 O 0.294(3) 0.780(2) 0.9801(5)
O18_7 O 0.233(2) 0.665(1) 0.9919(5)
N34_7 N 0.238(1) 0.729(1) 0.9893(2)
O16_8 O 0.743(2) 0.554(1) 0.8293(5)
O17_8 O 0.780(2) 0.486(2) 0.8134(5)
O18_8 O 0.665(1) 0.432(2) 0.8252(5)
N34_8 N 0.729(1) 0.491(1) 0.8226(2)
O16_9 O 0.554(1) 0.811(2) 0.6627(5)
O17_9 O 0.486(2) 0.706(3) 0.6468(5)
O18_9 O 0.432(2) 0.767(2) 0.6586(5)
N34_9 N 0.491(1) 0.762(1) 0.6560(2)
O16_10 O 0.811(2) 0.257(2) 0.4960(5)
O17_10 O 0.706(3) 0.220(2) 0.4801(5)
O18_10 O 0.767(2) 0.335(1) 0.4919(5)
N34_10 N 0.762(1) 0.271(1) 0.4893(2)
O16_11 O 0.257(2) 0.446(1) 0.3293(5)
O17_11 O 0.220(2) 0.514(2) 0.3134(5)
O18_11 O 0.335(1) 0.568(2) 0.3252(5)
N34_11 N 0.271(1) 0.509(1) 0.3226(2)
O16_12 O 0.446(1) 0.189(2) 0.1627(5)
O17_12 O 0.514(2) 0.294(3) 0.1468(5)
O18_12 O 0.568(2) 0.233(2) 0.1586(5)
N34_12 N 0.509(1) 0.238(1) 0.1560(2)
O19 O 0.750(1) 0.520(1) 0.0242(3)
O20 O 0.868(1) 0.599(1) 0.0155(3)
O21 O 0.820(1) 0.476(1) 0.0123(3)
N35 N 0.8127(9) 0.5321(9) 0.0173(2)
O19_2 O 0.230(1) 0.750(1) 0.1909(3)
O20_2 O 0.269(1) 0.868(1) 0.1822(3)
O21_2 O 0.344(1) 0.820(1) 0.1790(3)
N35_2 N 0.2806(13) 0.8127(9) 0.1840(2)
O19_3 O 0.480(1) 0.230(1) 0.3575(3)
O20_3 O 0.401(1) 0.269(1) 0.3488(3)
O21_3 O 0.524(1) 0.344(1) 0.3456(3)
N35_3 N 0.4679(9) 0.2806(13) 0.3506(2)
O19_4 O 0.250(1) 0.480(1) 0.5242(3)
O20_4 O 0.132(1) 0.401(1) 0.5155(3)
O21_4 O 0.180(1) 0.524(1) 0.5123(3)
N35_4 N 0.1873(9) 0.4679(9) 0.5173(2)
O19_5 O 0.770(1) 0.250(1) 0.6909(3)
O20_5 O 0.731(1) 0.132(1) 0.6822(3)
O21_5 O 0.656(1) 0.180(1) 0.6790(3)
N35_5 N 0.7194(13) 0.1873(9) 0.6840(2)
O19_6 O 0.520(1) 0.770(1) 0.8575(3)
O20_6 O 0.599(1) 0.731(1) 0.8488(3)
O21_6 O 0.476(1) 0.656(1) 0.8456(3)
N35_6 N 0.5321(9) 0.7194(13) 0.8506(2)
O19_7 O 0.230(1) 0.480(1) 0.9758(3)
O20_7 O 0.269(1) 0.401(1) 0.9845(3)
O21_7 O 0.344(1) 0.524(1) 0.9877(3)
N35_7 N 0.2806(13) 0.4679(9) 0.9827(2)
O19_8 O 0.480(1) 0.250(1) 0.8091(3)
O20_8 O 0.401(1) 0.132(1) 0.8178(3)
O21_8 O 0.524(1) 0.180(1) 0.8210(3)
N35_8 N 0.4679(9) 0.1873(9) 0.8160(2)
O19_9 O 0.250(1) 0.770(1) 0.6425(3)
O20_9 O 0.132(1) 0.731(1) 0.6512(3)
O21_9 O 0.180(1) 0.656(1) 0.6544(3)
N35_9 N 0.1873(9) 0.7194(13) 0.6494(2)
O19_10 O 0.770(1) 0.520(1) 0.4758(3)
O20_10 O 0.731(1) 0.599(1) 0.4845(3)
O21_10 O 0.656(1) 0.476(1) 0.4877(3)
N35_10 N 0.7194(13) 0.5321(9) 0.4827(2)
O19_11 O 0.520(1) 0.750(1) 0.3091(3)
O20_11 O 0.599(1) 0.868(1) 0.3178(3)
O21_11 O 0.476(1) 0.820(1) 0.3210(3)
N35_11 N 0.5321(9) 0.8127(9) 0.3160(2)
O19_12 O 0.750(1) 0.230(1) 0.1425(3)
O20_12 O 0.868(1) 0.269(1) 0.1512(3)
O21_12 O 0.820(1) 0.344(1) 0.1544(3)
N35_12 N 0.8127(9) 0.2806(13) 0.1494(2)
loop_
_geom_bond_atom_site_label_1
_geom_bond_atom_site_label_2
_geom_bond_site_symmetry_1
_geom_bond_site_symmetry_2
N2 Zn1 1_555 1_555
N3 Zn1 1_555 1_555
N4 Zn1 1_555 1_555
C2 N2 1_555 1_555
C3 N2 1_555 1_555
C4 N3 1_555 1_555
C5 N3 1_555 1_555
C6 N4 1_555 1_555
C7 N4 1_555 1_555
H1 C1 1_555 1_555
H2 C1 1_555 1_555
H3 N2 1_555 1_555
H4 C2 1_555 1_555
H5 C2 1_555 1_555
H6 N3 1_555 1_555
H7 C3 1_555 1_555
H8 C3 1_555 1_555
H10 C4 1_555 1_555
H11 C4 1_555 1_555
H12 C5 1_555 1_555
H13 C5 1_555 1_555
H14 C6 1_555 1_555
H15 C6 1_555 1_555
H17 C7 1_555 1_555
N17 Zn4 1_555 1_555
N18 Zn4 1_555 1_555
N19 Zn4 1_555 1_555
C44 N17 1_555 1_555
C45 N17 1_555 1_555
C46 N18 1_555 1_555
C47 N18 1_555 1_555
C48 N19 1_555 1_555
C49 N19 1_555 1_555
H73 C43 1_555 1_555
H74 C43 1_555 1_555
H75 N17 1_555 1_555
H76 C44 1_555 1_555
H77 C44 1_555 1_555
H78 N18 1_555 1_555
H79 C45 1_555 1_555
H80 C45 1_555 1_555
H82 C46 1_555 1_555
H83 C46 1_555 1_555
H84 C47 1_555 1_555
H85 C47 1_555 1_555
H86 C48 1_555 1_555
H87 C48 1_555 1_555
H89 C49 1_555 1_555
C1 C2 1_555 1_555
C3 C4 1_555 1_555
C5 C6 1_555 1_555
C43 C44 1_555 1_555
C45 C46 1_555 1_555
C47 C48 1_555 1_555
Ru1 N5 1_555 1_555
Zn3 N11 1_555 1_555
O1 Zn7 1_555 1_555
O2 Zn5 1_555 1_555
N5 C11 1_555 1_555
N6 C15 1_555 1_555
N10 Ru1 1_555 1_555
N11 C29 1_555 1_555
N12 Zn3 1_555 1_555
N13 Zn3 1_555 1_555
N14 Zn3 1_555 1_555
N15 Ru1 1_555 1_555
C8 N1 1_555 1_555
C9 N1 1_555 1_555
C10 C9 1_555 1_555
C11 C10 1_555 1_555
C12 N5 1_555 1_555
C13 C12 1_555 1_555
C14 C10 1_555 1_555
C15 C16 1_555 1_555
C16 N7 1_555 1_555
C23 N6 1_555 1_555
C24 C23 1_555 1_555
C25 N10 1_555 1_555
C26 N10 1_555 1_555
C27 C26 1_555 1_555
C28 C24 1_555 1_555
C29 C30 1_555 1_555
C30 N12 1_555 1_555
C31 N12 1_555 1_555
C32 N13 1_555 1_555
C33 N13 1_555 1_555
C34 N14 1_555 1_555
C35 N14 1_555 1_555
C36 N11 1_555 1_555
C37 N11 1_555 1_555
C38 C37 1_555 1_555
C39 N15 1_555 1_555
C40 N15 1_555 1_555
C41 C40 1_555 1_555
C42 C38 1_555 1_555
H16 N7 1_555 1_555
H20 C8 1_555 1_555
H21 C8 1_555 1_555
H23 C9 1_555 1_555
H24 C9 1_555 1_555
H25 C11 1_555 1_555
H26 N12 1_555 1_555
H27 N13 1_555 1_555
H28 C13 1_555 1_555
H29 N14 1_555 1_555
H30 C14 1_555 1_555
H31 C15 1_555 1_555
H32 C15 1_555 1_555
H33 C16 1_555 1_555
H34 C16 1_555 1_555
H47 C23 1_555 1_555
H48 C23 1_555 1_555
H49 C25 1_555 1_555
H50 C27 1_555 1_555
H51 C28 1_555 1_555
H52 C29 1_555 1_555
H53 C29 1_555 1_555
H54 C30 1_555 1_555
H55 C30 1_555 1_555
H56 C31 1_555 1_555
H57 C31 1_555 1_555
H58 C32 1_555 1_555
H59 C32 1_555 1_555
H60 C33 1_555 1_555
H61 C33 1_555 1_555
H62 C34 1_555 1_555
H63 C34 1_555 1_555
H64 C35 1_555 1_555
H65 C35 1_555 1_555
H66 C36 1_555 1_555
H67 C36 1_555 1_555
H68 C37 1_555 1_555
H69 C37 1_555 1_555
H70 C39 1_555 1_555
H71 C41 1_555 1_555
H72 C42 1_555 1_555
Zn5 N21 1_555 1_555
Zn6 O2 1_555 1_555
Zn9 O4 1_555 1_555
O3 Zn3 1_555 1_555
N20 Ru1 1_555 1_555
N21 C57 1_555 1_555
N22 Zn5 1_555 1_555
N23 Zn5 1_555 1_555
N24 Zn5 1_555 1_555
N25 Ru1 1_555 1_555
N30 Ru1 1_555 1_555
C50 N16 1_555 1_555
C51 N16 1_555 1_555
C52 C51 1_555 1_555
C53 N20 1_555 1_555
C54 C26 1_555 1_555
C55 C54 1_555 1_555
C56 C52 1_555 1_555
C57 C58 1_555 1_555
C58 N22 1_555 1_555
C59 N22 1_555 1_555
C60 N23 1_555 1_555
C61 N23 1_555 1_555
C62 N24 1_555 1_555
C63 N24 1_555 1_555
C64 N21 1_555 1_555
C65 N21 1_555 1_555
C66 C65 1_555 1_555
C67 N25 1_555 1_555
C68 C12 1_555 1_555
C69 C68 1_555 1_555
C70 C66 1_555 1_555
C71 N26 1_555 1_555
C72 N27 1_555 1_555
C79 N26 1_555 1_555
C80 C79 1_555 1_555
C81 N30 1_555 1_555
C82 C40 1_555 1_555
C83 C82 1_555 1_555
C84 C80 1_555 1_555
H88 N22 1_555 1_555
H91 N23 1_555 1_555
H92 C50 1_555 1_555
H93 C50 1_555 1_555
H94 N24 1_555 1_555
H95 C51 1_555 1_555
H96 C51 1_555 1_555
H97 C53 1_555 1_555
H98 N27 1_555 1_555
H100 C55 1_555 1_555
H102 C56 1_555 1_555
H103 C57 1_555 1_555
H104 C57 1_555 1_555
H105 C58 1_555 1_555
H106 C58 1_555 1_555
H107 C59 1_555 1_555
H108 C59 1_555 1_555
H109 C60 1_555 1_555
H110 C60 1_555 1_555
H111 C61 1_555 1_555
H112 C61 1_555 1_555
H113 C62 1_555 1_555
H114 C62 1_555 1_555
H115 C63 1_555 1_555
H116 C63 1_555 1_555
H117 C64 1_555 1_555
H118 C64 1_555 1_555
H119 C65 1_555 1_555
H120 C65 1_555 1_555
H121 C67 1_555 1_555
H122 C69 1_555 1_555
H123 C70 1_555 1_555
H124 C71 1_555 1_555
H126 C72 1_555 1_555
H127 C72 1_555 1_555
H140 C79 1_555 1_555
H141 C79 1_555 1_555
H142 C81 1_555 1_555
H143 C83 1_555 1_555
H144 C84 1_555 1_555
C13 C14 1_555 1_555
C24 C25 1_555 1_555
C27 C28 1_555 1_555
C31 C32 1_555 1_555
C33 C34 1_555 1_555
C35 C36 1_555 1_555
C38 C39 1_555 1_555
C41 C42 1_555 1_555
N20 C54 1_555 1_555
N25 C68 1_555 1_555
N30 C82 1_555 1_555
C52 C53 1_555 1_555
C55 C56 1_555 1_555
C59 C60 1_555 1_555
C61 C62 1_555 1_555
C63 C64 1_555 1_555
C66 C67 1_555 1_555
C69 C70 1_555 1_555
C71 C72 1_555 1_555
C80 C81 1_555 1_555
C83 C84 1_555 1_555
N8 Zn2 1_555 1_555
N9 Zn2 1_555 1_555
C18 N8 1_555 1_555
C19 N8 1_555 1_555
C20 N9 1_555 1_555
C21 N9 1_555 1_555
H19 N8 1_555 1_555
H22 N9 1_555 1_555
H36 C17 1_555 1_555
H37 C18 1_555 1_555
H38 C18 1_555 1_555
H39 C19 1_555 1_555
H40 C19 1_555 1_555
H41 C20 1_555 1_555
H42 C20 1_555 1_555
H43 C21 1_555 1_555
H44 C21 1_555 1_555
H45 C22 1_555 1_555
H46 C22 1_555 1_555
Zn8 O5 1_555 1_555
O6_2 Zn2 1_555 1_555
N28 Zn8 1_555 1_555
N29 Zn8 1_555 1_555
C74 N28 1_555 1_555
C75 N28 1_555 1_555
C76 N29 1_555 1_555
C77 N29 1_555 1_555
H99 N28 1_555 1_555
H101 N29 1_555 1_555
H128 C73 1_555 1_555
H129 C73 1_555 1_555
H130 C74 1_555 1_555
H131 C74 1_555 1_555
H132 C75 1_555 1_555
H133 C75 1_555 1_555
H134 C76 1_555 1_555
H135 C76 1_555 1_555
H136 C77 1_555 1_555
H137 C77 1_555 1_555
H138 C78 1_555 1_555
H139 C78 1_555 1_555
C17 C18 1_555 1_555
C19 C20 1_555 1_555
C21 C22 1_555 1_555
C73 C74 1_555 1_555
C75 C76 1_555 1_555
C77 C78 1_555 1_555
O6 Zn5_2 1_555 1_555
N13_2 Zn3_2 1_555 1_555
N14_2 Zn3_2 1_555 1_555
C32_2 N13_2 1_555 1_555
C33_2 N13_2 1_555 1_555
C34_2 N14_2 1_555 1_555
C35_2 N14_2 1_555 1_555
H27_2 N13_2 1_555 1_555
H29_2 N14_2 1_555 1_555
H56_2 C31_2 1_555 1_555
H57_2 C31_2 1_555 1_555
H58_2 C32_2 1_555 1_555
H59_2 C32_2 1_555 1_555
H60_2 C33_2 1_555 1_555
H61_2 C33_2 1_555 1_555
H62_2 C34_2 1_555 1_555
H63_2 C34_2 1_555 1_555
H64_2 C35_2 1_555 1_555
H65_2 C35_2 1_555 1_555
H66_2 C36_2 1_555 1_555
H67_2 C36_2 1_555 1_555
O3_2 Zn3_2 1_555 1_555
N23_2 Zn5_2 1_555 1_555
N24_2 Zn5_2 1_555 1_555
C60_2 N23_2 1_555 1_555
C61_2 N23_2 1_555 1_555
C62_2 N24_2 1_555 1_555
C63_2 N24_2 1_555 1_555
H91_2 N23_2 1_555 1_555
H94_2 N24_2 1_555 1_555
H108_2 C59_2 1_555 1_555
H109_2 C60_2 1_555 1_555
H110_2 C60_2 1_555 1_555
H111_2 C61_2 1_555 1_555
H112_2 C61_2 1_555 1_555
H113_2 C62_2 1_555 1_555
H114_2 C62_2 1_555 1_555
H115_2 C63_2 1_555 1_555
H116_2 C63_2 1_555 1_555
H117_2 C64_2 1_555 1_555
H118_2 C64_2 1_555 1_555
C31_2 C32_2 1_555 1_555
C33_2 C34_2 1_555 1_555
C35_2 C36_2 1_555 1_555
C59_2 C60_2 1_555 1_555
C61_2 C62_2 1_555 1_555
C63_2 C64_2 1_555 1_555
Ru1_2 N5_2 1_555 1_555
Zn1_2 O1_2 1_555 1_555
O1_2 Zn7_2 1_555 1_555
N1_2 Zn1_2 1_555 1_555
N2_2 Zn1_2 1_555 1_555
N3_2 Zn1_2 1_555 1_555
N4_2 Zn1_2 1_555 1_555
N5_2 C11_2 1_555 1_555
N6_2 C15_2 1_555 1_555
N10_2 Ru1_2 1_555 1_555
N11_2 C29_2 1_555 1_555
N15_2 Ru1_2 1_555 1_555
C1_2 N1_2 1_555 1_555
C2_2 N2_2 1_555 1_555
C3_2 N2_2 1_555 1_555
C4_2 N3_2 1_555 1_555
C5_2 N3_2 1_555 1_555
C6_2 N4_2 1_555 1_555
C7_2 N4_2 1_555 1_555
C8_2 N1_2 1_555 1_555
C9_2 N1_2 1_555 1_555
C10_2 C9_2 1_555 1_555
C11_2 C10_2 1_555 1_555
C12_2 N5_2 1_555 1_555
C13_2 C12_2 1_555 1_555
C14_2 C10_2 1_555 1_555
C15_2 C16_2 1_555 1_555
C16_2 N7_2 1_555 1_555
C23_2 N6_2 1_555 1_555
C24_2 C23_2 1_555 1_555
C25_2 N10_2 1_555 1_555
C26_2 N10_2 1_555 1_555
C27_2 C26_2 1_555 1_555
C28_2 C24_2 1_555 1_555
C29_2 C30_2 1_555 1_555
C30_2 N12_2 1_555 1_555
C37_2 N11_2 1_555 1_555
C38_2 C37_2 1_555 1_555
C39_2 N15_2 1_555 1_555
C40_2 N15_2 1_555 1_555
C41_2 C40_2 1_555 1_555
C42_2 C38_2 1_555 1_555
H1_2 C1_2 1_555 1_555
H2_2 C1_2 1_555 1_555
H3_2 N2_2 1_555 1_555
H4_2 C2_2 1_555 1_555
H5_2 C2_2 1_555 1_555
H6_2 N3_2 1_555 1_555
H7_2 C3_2 1_555 1_555
H8_2 C3_2 1_555 1_555
H9_2 N4_2 1_555 1_555
H10_2 C4_2 1_555 1_555
H11_2 C4_2 1_555 1_555
H12_2 C5_2 1_555 1_555
H13_2 C5_2 1_555 1_555
H14_2 C6_2 1_555 1_555
H15_2 C6_2 1_555 1_555
H16_2 N7_2 1_555 1_555
H17_2 C7_2 1_555 1_555
H18_2 C7_2 1_555 1_555
H20_2 C8_2 1_555 1_555
H21_2 C8_2 1_555 1_555
H23_2 C9_2 1_555 1_555
H24_2 C9_2 1_555 1_555
H25_2 C11_2 1_555 1_555
H26_2 N12_2 1_555 1_555
H28_2 C13_2 1_555 1_555
H30_2 C14_2 1_555 1_555
H31_2 C15_2 1_555 1_555
H32_2 C15_2 1_555 1_555
H33_2 C16_2 1_555 1_555
H34_2 C16_2 1_555 1_555
H47_2 C23_2 1_555 1_555
H48_2 C23_2 1_555 1_555
H49_2 C25_2 1_555 1_555
H50_2 C27_2 1_555 1_555
H51_2 C28_2 1_555 1_555
H52_2 C29_2 1_555 1_555
H54_2 C30_2 1_555 1_555
H55_2 C30_2 1_555 1_555
H68_2 C37_2 1_555 1_555
H69_2 C37_2 1_555 1_555
H70_2 C39_2 1_555 1_555
H71_2 C41_2 1_555 1_555
H72_2 C42_2 1_555 1_555
Zn4_2 O3 1_555 1_555
N16_2 Zn4_2 1_555 1_555
N17_2 Zn4_2 1_555 1_555
N18_2 Zn4_2 1_555 1_555
N19_2 Zn4_2 1_555 1_555
N20_2 Ru1_2 1_555 1_555
N21_2 C57_2 1_555 1_555
N25_2 Ru1_2 1_555 1_555
N30_2 Ru1_2 1_555 1_555
C43_2 N16_2 1_555 1_555
C44_2 N17_2 1_555 1_555
C45_2 N17_2 1_555 1_555
C46_2 N18_2 1_555 1_555
C47_2 N18_2 1_555 1_555
C48_2 N19_2 1_555 1_555
C49_2 N19_2 1_555 1_555
C50_2 N16_2 1_555 1_555
C51_2 N16_2 1_555 1_555
C52_2 C51_2 1_555 1_555
C53_2 N20_2 1_555 1_555
C54_2 C26_2 1_555 1_555
C55_2 C54_2 1_555 1_555
C56_2 C52_2 1_555 1_555
C57_2 C58_2 1_555 1_555
C58_2 N22_2 1_555 1_555
C65_2 N21_2 1_555 1_555
C66_2 C65_2 1_555 1_555
C67_2 N25_2 1_555 1_555
C68_2 C12_2 1_555 1_555
C69_2 C68_2 1_555 1_555
C70_2 C66_2 1_555 1_555
C71_2 N26_2 1_555 1_555
C72_2 N27_2 1_555 1_555
C79_2 N26_2 1_555 1_555
C80_2 C79_2 1_555 1_555
C81_2 N30_2 1_555 1_555
C82_2 C40_2 1_555 1_555
C83_2 C82_2 1_555 1_555
C84_2 C80_2 1_555 1_555
H73_2 C43_2 1_555 1_555
H74_2 C43_2 1_555 1_555
H75_2 N17_2 1_555 1_555
H76_2 C44_2 1_555 1_555
H77_2 C44_2 1_555 1_555
H78_2 N18_2 1_555 1_555
H79_2 C45_2 1_555 1_555
H80_2 C45_2 1_555 1_555
H81_2 N19_2 1_555 1_555
H82_2 C46_2 1_555 1_555
H83_2 C46_2 1_555 1_555
H84_2 C47_2 1_555 1_555
H85_2 C47_2 1_555 1_555
H86_2 C48_2 1_555 1_555
H87_2 C48_2 1_555 1_555
H88_2 N22_2 1_555 1_555
H89_2 C49_2 1_555 1_555
H90_2 C49_2 1_555 1_555
H92_2 C50_2 1_555 1_555
H93_2 C50_2 1_555 1_555
H95_2 C51_2 1_555 1_555
H96_2 C51_2 1_555 1_555
H97_2 C53_2 1_555 1_555
H98_2 N27_2 1_555 1_555
H100_2 C55_2 1_555 1_555
H102_2 C56_2 1_555 1_555
H103_2 C57_2 1_555 1_555
H104_2 C57_2 1_555 1_555
H105_2 C58_2 1_555 1_555
H106_2 C58_2 1_555 1_555
H119_2 C65_2 1_555 1_555
H120_2 C65_2 1_555 1_555
H121_2 C67_2 1_555 1_555
H122_2 C69_2 1_555 1_555
H123_2 C70_2 1_555 1_555
H124_2 C71_2 1_555 1_555
H126_2 C72_2 1_555 1_555
H127_2 C72_2 1_555 1_555
H140_2 C79_2 1_555 1_555
H141_2 C79_2 1_555 1_555
H142_2 C81_2 1_555 1_555
H143_2 C83_2 1_555 1_555
H144_2 C84_2 1_555 1_555
C1_2 C2_2 1_555 1_555
C3_2 C4_2 1_555 1_555
C5_2 C6_2 1_555 1_555
C7_2 C8_2 1_555 1_555
C13_2 C14_2 1_555 1_555
C24_2 C25_2 1_555 1_555
C27_2 C28_2 1_555 1_555
C38_2 C39_2 1_555 1_555
C41_2 C42_2 1_555 1_555
N20_2 C54_2 1_555 1_555
N25_2 C68_2 1_555 1_555
N30_2 C82_2 1_555 1_555
C43_2 C44_2 1_555 1_555
C45_2 C46_2 1_555 1_555
C47_2 C48_2 1_555 1_555
C49_2 C50_2 1_555 1_555
C52_2 C53_2 1_555 1_555
C55_2 C56_2 1_555 1_555
C66_2 C67_2 1_555 1_555
C69_2 C70_2 1_555 1_555
C71_2 C72_2 1_555 1_555
C80_2 C81_2 1_555 1_555
C83_2 C84_2 1_555 1_555
N8_2 Zn2_2 1_555 1_555
N9_2 Zn2_2 1_555 1_555
C18_2 N8_2 1_555 1_555
C19_2 N8_2 1_555 1_555
C20_2 N9_2 1_555 1_555
C21_2 N9_2 1_555 1_555
H19_2 N8_2 1_555 1_555
H22_2 N9_2 1_555 1_555
H36_2 C17_2 1_555 1_555
H37_2 C18_2 1_555 1_555
H38_2 C18_2 1_555 1_555
H39_2 C19_2 1_555 1_555
H40_2 C19_2 1_555 1_555
H41_2 C20_2 1_555 1_555
H42_2 C20_2 1_555 1_555
H43_2 C21_2 1_555 1_555
H44_2 C21_2 1_555 1_555
H45_2 C22_2 1_555 1_555
H46_2 C22_2 1_555 1_555
O6_4 Zn2_2 1_555 1_555
N28_2 Zn7 1_555 1_555
N29_2 Zn7 1_555 1_555
C74_2 N28_2 1_555 1_555
C75_2 N28_2 1_555 1_555
C76_2 N29_2 1_555 1_555
C77_2 N29_2 1_555 1_555
H99_2 N28_2 1_555 1_555
H101_2 N29_2 1_555 1_555
H128_2 C73_2 1_555 1_555
H129_2 C73_2 1_555 1_555
H130_2 C74_2 1_555 1_555
H131_2 C74_2 1_555 1_555
H132_2 C75_2 1_555 1_555
H133_2 C75_2 1_555 1_555
H134_2 C76_2 1_555 1_555
H135_2 C76_2 1_555 1_555
H136_2 C77_2 1_555 1_555
H137_2 C77_2 1_555 1_555
H138_2 C78_2 1_555 1_555
H139_2 C78_2 1_555 1_555
C17_2 C18_2 1_555 1_555
C19_2 C20_2 1_555 1_555
C21_2 C22_2 1_555 1_555
C73_2 C74_2 1_555 1_555
C75_2 C76_2 1_555 1_555
C77_2 C78_2 1_555 1_555
O6_3 Zn5_3 1_555 1_555
N13_3 Zn3_3 1_555 1_555
N14_3 Zn3_3 1_555 1_555
C32_3 N13_3 1_555 1_555
C33_3 N13_3 1_555 1_555
C34_3 N14_3 1_555 1_555
C35_3 N14_3 1_555 1_555
H27_3 N13_3 1_555 1_555
H29_3 N14_3 1_555 1_555
H56_3 C31_3 1_555 1_555
H57_3 C31_3 1_555 1_555
H58_3 C32_3 1_555 1_555
H59_3 C32_3 1_555 1_555
H60_3 C33_3 1_555 1_555
H61_3 C33_3 1_555 1_555
H62_3 C34_3 1_555 1_555
H63_3 C34_3 1_555 1_555
H64_3 C35_3 1_555 1_555
H65_3 C35_3 1_555 1_555
H66_3 C36_3 1_555 1_555
H67_3 C36_3 1_555 1_555
O3_3 Zn3_3 1_555 1_555
N23_3 Zn5_3 1_555 1_555
N24_3 Zn5_3 1_555 1_555
C60_3 N23_3 1_555 1_555
C61_3 N23_3 1_555 1_555
C62_3 N24_3 1_555 1_555
C63_3 N24_3 1_555 1_555
H91_3 N23_3 1_555 1_555
H94_3 N24_3 1_555 1_555
H108_3 C59_3 1_555 1_555
H109_3 C60_3 1_555 1_555
H110_3 C60_3 1_555 1_555
H111_3 C61_3 1_555 1_555
H112_3 C61_3 1_555 1_555
H113_3 C62_3 1_555 1_555
H114_3 C62_3 1_555 1_555
H115_3 C63_3 1_555 1_555
H116_3 C63_3 1_555 1_555
H117_3 C64_3 1_555 1_555
H118_3 C64_3 1_555 1_555
C31_3 C32_3 1_555 1_555
C33_3 C34_3 1_555 1_555
C35_3 C36_3 1_555 1_555
C59_3 C60_3 1_555 1_555
C61_3 C62_3 1_555 1_555
C63_3 C64_3 1_555 1_555
Ru1_3 N5_3 1_555 1_555
Zn2_3 N6_3 1_555 1_555
O1_3 Zn7_3 1_555 1_555
N5_3 C11_3 1_555 1_555
N6_3 C15_3 1_555 1_555
N7_3 Zn2_3 1_555 1_555
N8_3 Zn2_3 1_555 1_555
N9_3 Zn2_3 1_555 1_555
N10_3 Ru1_3 1_555 1_555
N11_3 C29_3 1_555 1_555
N15_3 Ru1_3 1_555 1_555
C8_3 N1_3 1_555 1_555
C9_3 N1_3 1_555 1_555
C10_3 C9_3 1_555 1_555
C11_3 C10_3 1_555 1_555
C12_3 N5_3 1_555 1_555
C13_3 C12_3 1_555 1_555
C14_3 C10_3 1_555 1_555
C15_3 C16_3 1_555 1_555
C16_3 N7_3 1_555 1_555
C17_3 N7_3 1_555 1_555
C18_3 N8_3 1_555 1_555
C19_3 N8_3 1_555 1_555
C20_3 N9_3 1_555 1_555
C21_3 N9_3 1_555 1_555
C22_3 N6_3 1_555 1_555
C23_3 N6_3 1_555 1_555
C24_3 C23_3 1_555 1_555
C25_3 N10_3 1_555 1_555
C26_3 N10_3 1_555 1_555
C27_3 C26_3 1_555 1_555
C28_3 C24_3 1_555 1_555
C29_3 C30_3 1_555 1_555
C30_3 N12_3 1_555 1_555
C37_3 N11_3 1_555 1_555
C38_3 C37_3 1_555 1_555
C39_3 N15_3 1_555 1_555
C40_3 N15_3 1_555 1_555
C41_3 C40_3 1_555 1_555
C42_3 C38_3 1_555 1_555
H16_3 N7_3 1_555 1_555
H19_3 N8_3 1_555 1_555
H20_3 C8_3 1_555 1_555
H21_3 C8_3 1_555 1_555
H22_3 N9_3 1_555 1_555
H23_3 C9_3 1_555 1_555
H24_3 C9_3 1_555 1_555
H25_3 C11_3 1_555 1_555
H26_3 N12_3 1_555 1_555
H28_3 C13_3 1_555 1_555
H30_3 C14_3 1_555 1_555
H31_3 C15_3 1_555 1_555
H32_3 C15_3 1_555 1_555
H33_3 C16_3 1_555 1_555
H34_3 C16_3 1_555 1_555
H35_3 C17_3 1_555 1_555
H36_3 C17_3 1_555 1_555
H37_3 C18_3 1_555 1_555
H38_3 C18_3 1_555 1_555
H39_3 C19_3 1_555 1_555
H40_3 C19_3 1_555 1_555
H41_3 C20_3 1_555 1_555
H42_3 C20_3 1_555 1_555
H43_3 C21_3 1_555 1_555
H44_3 C21_3 1_555 1_555
H45_3 C22_3 1_555 1_555
H46_3 C22_3 1_555 1_555
H47_3 C23_3 1_555 1_555
H48_3 C23_3 1_555 1_555
H49_3 C25_3 1_555 1_555
H50_3 C27_3 1_555 1_555
H51_3 C28_3 1_555 1_555
H52_3 C29_3 1_555 1_555
H54_3 C30_3 1_555 1_555
H55_3 C30_3 1_555 1_555
H68_3 C37_3 1_555 1_555
H69_3 C37_3 1_555 1_555
H70_3 C39_3 1_555 1_555
H71_3 C41_3 1_555 1_555
H72_3 C42_3 1_555 1_555
O6_5 Zn2_3 1_555 1_555
N20_3 Ru1_3 1_555 1_555
N21_3 C57_3 1_555 1_555
N25_3 Ru1_3 1_555 1_555
N26_3 Zn7_2 1_555 1_555
N27_3 Zn7_2 1_555 1_555
N28_3 Zn7_2 1_555 1_555
N29_3 Zn7_2 1_555 1_555
N30_3 Ru1_3 1_555 1_555
C50_3 N16_3 1_555 1_555
C51_3 N16_3 1_555 1_555
C52_3 C51_3 1_555 1_555
C53_3 N20_3 1_555 1_555
C54_3 C26_3 1_555 1_555
C55_3 C54_3 1_555 1_555
C56_3 C52_3 1_555 1_555
C57_3 C58_3 1_555 1_555
C58_3 N22_3 1_555 1_555
C65_3 N21_3 1_555 1_555
C66_3 C65_3 1_555 1_555
C67_3 N25_3 1_555 1_555
C68_3 C12_3 1_555 1_555
C69_3 C68_3 1_555 1_555
C70_3 C66_3 1_555 1_555
C71_3 N26_3 1_555 1_555
C72_3 N27_3 1_555 1_555
C73_3 N27_3 1_555 1_555
C74_3 N28_3 1_555 1_555
C75_3 N28_3 1_555 1_555
C76_3 N29_3 1_555 1_555
C77_3 N29_3 1_555 1_555
C78_3 N26_3 1_555 1_555
C79_3 N26_3 1_555 1_555
C80_3 C79_3 1_555 1_555
C81_3 N30_3 1_555 1_555
C82_3 C40_3 1_555 1_555
C83_3 C82_3 1_555 1_555
C84_3 C80_3 1_555 1_555
H88_3 N22_3 1_555 1_555
H92_3 C50_3 1_555 1_555
H93_3 C50_3 1_555 1_555
H95_3 C51_3 1_555 1_555
H96_3 C51_3 1_555 1_555
H97_3 C53_3 1_555 1_555
H98_3 N27_3 1_555 1_555
H99_3 N28_3 1_555 1_555
H100_3 C55_3 1_555 1_555
H101_3 N29_3 1_555 1_555
H102_3 C56_3 1_555 1_555
H103_3 C57_3 1_555 1_555
H104_3 C57_3 1_555 1_555
H105_3 C58_3 1_555 1_555
H106_3 C58_3 1_555 1_555
H119_3 C65_3 1_555 1_555
H120_3 C65_3 1_555 1_555
H121_3 C67_3 1_555 1_555
H122_3 C69_3 1_555 1_555
H123_3 C70_3 1_555 1_555
H124_3 C71_3 1_555 1_555
H125_3 C71_3 1_555 1_555
H126_3 C72_3 1_555 1_555
H127_3 C72_3 1_555 1_555
H128_3 C73_3 1_555 1_555
H129_3 C73_3 1_555 1_555
H130_3 C74_3 1_555 1_555
H131_3 C74_3 1_555 1_555
H132_3 C75_3 1_555 1_555
H133_3 C75_3 1_555 1_555
H134_3 C76_3 1_555 1_555
H135_3 C76_3 1_555 1_555
H136_3 C77_3 1_555 1_555
H137_3 C77_3 1_555 1_555
H138_3 C78_3 1_555 1_555
H139_3 C78_3 1_555 1_555
H140_3 C79_3 1_555 1_555
H141_3 C79_3 1_555 1_555
H142_3 C81_3 1_555 1_555
H143_3 C83_3 1_555 1_555
H144_3 C84_3 1_555 1_555
C13_3 C14_3 1_555 1_555
C17_3 C18_3 1_555 1_555
C19_3 C20_3 1_555 1_555
C21_3 C22_3 1_555 1_555
C24_3 C25_3 1_555 1_555
C27_3 C28_3 1_555 1_555
C38_3 C39_3 1_555 1_555
C41_3 C42_3 1_555 1_555
N20_3 C54_3 1_555 1_555
N25_3 C68_3 1_555 1_555
N30_3 C82_3 1_555 1_555
C52_3 C53_3 1_555 1_555
C55_3 C56_3 1_555 1_555
C66_3 C67_3 1_555 1_555
C69_3 C70_3 1_555 1_555
C71_3 C72_3 1_555 1_555
C73_3 C74_3 1_555 1_555
C75_3 C76_3 1_555 1_555
C77_3 C78_3 1_555 1_555
C80_3 C81_3 1_555 1_555
C83_3 C84_3 1_555 1_555
N8_4 Zn2_4 1_555 1_555
N9_4 Zn2_4 1_555 1_555
C18_4 N8_4 1_555 1_555
C19_4 N8_4 1_555 1_555
C20_4 N9_4 1_555 1_555
C21_4 N9_4 1_555 1_555
H19_4 N8_4 1_555 1_555
H22_4 N9_4 1_555 1_555
H36_4 C17_4 1_555 1_555
H37_4 C18_4 1_555 1_555
H38_4 C18_4 1_555 1_555
H39_4 C19_4 1_555 1_555
H40_4 C19_4 1_555 1_555
H41_4 C20_4 1_555 1_555
H42_4 C20_4 1_555 1_555
H43_4 C21_4 1_555 1_555
H44_4 C21_4 1_555 1_555
H45_4 C22_4 1_555 1_555
H46_4 C22_4 1_555 1_555
O6_6 Zn2_4 1_555 1_555
N28_4 Zn7_3 1_555 1_555
N29_4 Zn7_3 1_555 1_555
C74_4 N28_4 1_555 1_555
C75_4 N28_4 1_555 1_555
C76_4 N29_4 1_555 1_555
C77_4 N29_4 1_555 1_555
H99_4 N28_4 1_555 1_555
H101_4 N29_4 1_555 1_555
H128_4 C73_4 1_555 1_555
H129_4 C73_4 1_555 1_555
H130_4 C74_4 1_555 1_555
H131_4 C74_4 1_555 1_555
H132_4 C75_4 1_555 1_555
H133_4 C75_4 1_555 1_555
H134_4 C76_4 1_555 1_555
H135_4 C76_4 1_555 1_555
H136_4 C77_4 1_555 1_555
H137_4 C77_4 1_555 1_555
H138_4 C78_4 1_555 1_555
H139_4 C78_4 1_555 1_555
C17_4 C18_4 1_555 1_555
C19_4 C20_4 1_555 1_555
C21_4 C22_4 1_555 1_555
C73_4 C74_4 1_555 1_555
C75_4 C76_4 1_555 1_555
C77_4 C78_4 1_555 1_555
Ru1_4 N5_4 1_555 1_555
Zn3_4 N11_4 1_555 1_555
O1_4 Zn7_4 1_555 1_555
O6_5 Zn5_4 1_555 1_555
N5_4 C11_4 1_555 1_555
N6_4 C15_4 1_555 1_555
N10_4 Ru1_4 1_555 1_555
N11_4 C29_4 1_555 1_555
N12_4 Zn3_4 1_555 1_555
N13_4 Zn3_4 1_555 1_555
N14_4 Zn3_4 1_555 1_555
N15_4 Ru1_4 1_555 1_555
C8_4 N1_4 1_555 1_555
C9_4 N1_4 1_555 1_555
C10_4 C9_4 1_555 1_555
C11_4 C10_4 1_555 1_555
C12_4 N5_4 1_555 1_555
C13_4 C12_4 1_555 1_555
C14_4 C10_4 1_555 1_555
C15_4 C16_4 1_555 1_555
C16_4 N7_4 1_555 1_555
C23_4 N6_4 1_555 1_555
C24_4 C23_4 1_555 1_555
C25_4 N10_4 1_555 1_555
C26_4 N10_4 1_555 1_555
C27_4 C26_4 1_555 1_555
C28_4 C24_4 1_555 1_555
C29_4 C30_4 1_555 1_555
C30_4 N12_4 1_555 1_555
C31_4 N12_4 1_555 1_555
C32_4 N13_4 1_555 1_555
C33_4 N13_4 1_555 1_555
C34_4 N14_4 1_555 1_555
C35_4 N14_4 1_555 1_555
C36_4 N11_4 1_555 1_555
C37_4 N11_4 1_555 1_555
C38_4 C37_4 1_555 1_555
C39_4 N15_4 1_555 1_555
C40_4 N15_4 1_555 1_555
C41_4 C40_4 1_555 1_555
C42_4 C38_4 1_555 1_555
H16_4 N7_4 1_555 1_555
H20_4 C8_4 1_555 1_555
H21_4 C8_4 1_555 1_555
H23_4 C9_4 1_555 1_555
H24_4 C9_4 1_555 1_555
H25_4 C11_4 1_555 1_555
H26_4 N12_4 1_555 1_555
H27_4 N13_4 1_555 1_555
H28_4 C13_4 1_555 1_555
H29_4 N14_4 1_555 1_555
H30_4 C14_4 1_555 1_555
H31_4 C15_4 1_555 1_555
H32_4 C15_4 1_555 1_555
H33_4 C16_4 1_555 1_555
H34_4 C16_4 1_555 1_555
H47_4 C23_4 1_555 1_555
H48_4 C23_4 1_555 1_555
H49_4 C25_4 1_555 1_555
H50_4 C27_4 1_555 1_555
H51_4 C28_4 1_555 1_555
H52_4 C29_4 1_555 1_555
H53_4 C29_4 1_555 1_555
H54_4 C30_4 1_555 1_555
H55_4 C30_4 1_555 1_555
H56_4 C31_4 1_555 1_555
H57_4 C31_4 1_555 1_555
H58_4 C32_4 1_555 1_555
H59_4 C32_4 1_555 1_555
H60_4 C33_4 1_555 1_555
H61_4 C33_4 1_555 1_555
H62_4 C34_4 1_555 1_555
H63_4 C34_4 1_555 1_555
H64_4 C35_4 1_555 1_555
H65_4 C35_4 1_555 1_555
H66_4 C36_4 1_555 1_555
H67_4 C36_4 1_555 1_555
H68_4 C37_4 1_555 1_555
H69_4 C37_4 1_555 1_555
H70_4 C39_4 1_555 1_555
H71_4 C41_4 1_555 1_555
H72_4 C42_4 1_555 1_555
Zn5_4 N21_4 1_555 1_555
O3_4 Zn3_4 1_555 1_555
N20_4 Ru1_4 1_555 1_555
N21_4 C57_4 1_555 1_555
N22_4 Zn5_4 1_555 1_555
N23_4 Zn5_4 1_555 1_555
N24_4 Zn5_4 1_555 1_555
N25_4 Ru1_4 1_555 1_555
N30_4 Ru1_4 1_555 1_555
C50_4 N16_4 1_555 1_555
C51_4 N16_4 1_555 1_555
C52_4 C51_4 1_555 1_555
C53_4 N20_4 1_555 1_555
C54_4 C26_4 1_555 1_555
C55_4 C54_4 1_555 1_555
C56_4 C52_4 1_555 1_555
C57_4 C58_4 1_555 1_555
C58_4 N22_4 1_555 1_555
C59_4 N22_4 1_555 1_555
C60_4 N23_4 1_555 1_555
C61_4 N23_4 1_555 1_555
C62_4 N24_4 1_555 1_555
C63_4 N24_4 1_555 1_555
C64_4 N21_4 1_555 1_555
C65_4 N21_4 1_555 1_555
C66_4 C65_4 1_555 1_555
C67_4 N25_4 1_555 1_555
C68_4 C12_4 1_555 1_555
C69_4 C68_4 1_555 1_555
C70_4 C66_4 1_555 1_555
C71_4 N26_4 1_555 1_555
C72_4 N27_4 1_555 1_555
C79_4 N26_4 1_555 1_555
C80_4 C79_4 1_555 1_555
C81_4 N30_4 1_555 1_555
C82_4 C40_4 1_555 1_555
C83_4 C82_4 1_555 1_555
C84_4 C80_4 1_555 1_555
H88_4 N22_4 1_555 1_555
H91_4 N23_4 1_555 1_555
H92_4 C50_4 1_555 1_555
H93_4 C50_4 1_555 1_555
H94_4 N24_4 1_555 1_555
H95_4 C51_4 1_555 1_555
H96_4 C51_4 1_555 1_555
H97_4 C53_4 1_555 1_555
H98_4 N27_4 1_555 1_555
H100_4 C55_4 1_555 1_555
H102_4 C56_4 1_555 1_555
H103_4 C57_4 1_555 1_555
H104_4 C57_4 1_555 1_555
H105_4 C58_4 1_555 1_555
H106_4 C58_4 1_555 1_555
H107_4 C59_4 1_555 1_555
H108_4 C59_4 1_555 1_555
H109_4 C60_4 1_555 1_555
H110_4 C60_4 1_555 1_555
H111_4 C61_4 1_555 1_555
H112_4 C61_4 1_555 1_555
H113_4 C62_4 1_555 1_555
H114_4 C62_4 1_555 1_555
H115_4 C63_4 1_555 1_555
H116_4 C63_4 1_555 1_555
H117_4 C64_4 1_555 1_555
H118_4 C64_4 1_555 1_555
H119_4 C65_4 1_555 1_555
H120_4 C65_4 1_555 1_555
H121_4 C67_4 1_555 1_555
H122_4 C69_4 1_555 1_555
H123_4 C70_4 1_555 1_555
H124_4 C71_4 1_555 1_555
H126_4 C72_4 1_555 1_555
H127_4 C72_4 1_555 1_555
H140_4 C79_4 1_555 1_555
H141_4 C79_4 1_555 1_555
H142_4 C81_4 1_555 1_555
H143_4 C83_4 1_555 1_555
H144_4 C84_4 1_555 1_555
C13_4 C14_4 1_555 1_555
C24_4 C25_4 1_555 1_555
C27_4 C28_4 1_555 1_555
C31_4 C32_4 1_555 1_555
C33_4 C34_4 1_555 1_555
C35_4 C36_4 1_555 1_555
C38_4 C39_4 1_555 1_555
C41_4 C42_4 1_555 1_555
N20_4 C54_4 1_555 1_555
N25_4 C68_4 1_555 1_555
N30_4 C82_4 1_555 1_555
C52_4 C53_4 1_555 1_555
C55_4 C56_4 1_555 1_555
C59_4 C60_4 1_555 1_555
C61_4 C62_4 1_555 1_555
C63_4 C64_4 1_555 1_555
C66_4 C67_4 1_555 1_555
C69_4 C70_4 1_555 1_555
C71_4 C72_4 1_555 1_555
C80_4 C81_4 1_555 1_555
C83_4 C84_4 1_555 1_555
N8_5 Zn2_5 1_555 1_555
N9_5 Zn2_5 1_555 1_555
C18_5 N8_5 1_555 1_555
C19_5 N8_5 1_555 1_555
C20_5 N9_5 1_555 1_555
C21_5 N9_5 1_555 1_555
H19_5 N8_5 1_555 1_555
H22_5 N9_5 1_555 1_555
H36_5 C17_5 1_555 1_555
H37_5 C18_5 1_555 1_555
H38_5 C18_5 1_555 1_555
H39_5 C19_5 1_555 1_555
H40_5 C19_5 1_555 1_555
H41_5 C20_5 1_555 1_555
H42_5 C20_5 1_555 1_555
H43_5 C21_5 1_555 1_555
H44_5 C21_5 1_555 1_555
H45_5 C22_5 1_555 1_555
H46_5 C22_5 1_555 1_555
O6_8 Zn2_5 1_555 1_555
N28_5 Zn7_4 1_555 1_555
N29_5 Zn7_4 1_555 1_555
C74_5 N28_5 1_555 1_555
C75_5 N28_5 1_555 1_555
C76_5 N29_5 1_555 1_555
C77_5 N29_5 1_555 1_555
H99_5 N28_5 1_555 1_555
H101_5 N29_5 1_555 1_555
H128_5 C73_5 1_555 1_555
H129_5 C73_5 1_555 1_555
H130_5 C74_5 1_555 1_555
H131_5 C74_5 1_555 1_555
H132_5 C75_5 1_555 1_555
H133_5 C75_5 1_555 1_555
H134_5 C76_5 1_555 1_555
H135_5 C76_5 1_555 1_555
H136_5 C77_5 1_555 1_555
H137_5 C77_5 1_555 1_555
H138_5 C78_5 1_555 1_555
H139_5 C78_5 1_555 1_555
C17_5 C18_5 1_555 1_555
C19_5 C20_5 1_555 1_555
C21_5 C22_5 1_555 1_555
C73_5 C74_5 1_555 1_555
C75_5 C76_5 1_555 1_555
C77_5 C78_5 1_555 1_555
Ru1_5 N5_5 1_555 1_555
Zn1_3 O1_5 1_555 1_555
N1_5 Zn1_3 1_555 1_555
N2_3 Zn1_3 1_555 1_555
N3_3 Zn1_3 1_555 1_555
N4_3 Zn1_3 1_555 1_555
N5_5 C11_5 1_555 1_555
N6_5 C15_5 1_555 1_555
N10_5 Ru1_5 1_555 1_555
N11_5 C29_5 1_555 1_555
N15_5 Ru1_5 1_555 1_555
C1_3 N1_5 1_555 1_555
C2_3 N2_3 1_555 1_555
C3_3 N2_3 1_555 1_555
C4_3 N3_3 1_555 1_555
C5_3 N3_3 1_555 1_555
C6_3 N4_3 1_555 1_555
C7_3 N4_3 1_555 1_555
C8_5 N1_5 1_555 1_555
C9_5 N1_5 1_555 1_555
C10_5 C9_5 1_555 1_555
C11_5 C10_5 1_555 1_555
C12_5 N5_5 1_555 1_555
C13_5 C12_5 1_555 1_555
C14_5 C10_5 1_555 1_555
C15_5 C16_5 1_555 1_555
C16_5 N7_5 1_555 1_555
C23_5 N6_5 1_555 1_555
C24_5 C23_5 1_555 1_555
C25_5 N10_5 1_555 1_555
C26_5 N10_5 1_555 1_555
C27_5 C26_5 1_555 1_555
C28_5 C24_5 1_555 1_555
C29_5 C30_5 1_555 1_555
C30_5 N12_5 1_555 1_555
C37_5 N11_5 1_555 1_555
C38_5 C37_5 1_555 1_555
C39_5 N15_5 1_555 1_555
C40_5 N15_5 1_555 1_555
C41_5 C40_5 1_555 1_555
C42_5 C38_5 1_555 1_555
H1_3 C1_3 1_555 1_555
H2_3 C1_3 1_555 1_555
H3_3 N2_3 1_555 1_555
H4_3 C2_3 1_555 1_555
H5_3 C2_3 1_555 1_555
H6_3 N3_3 1_555 1_555
H7_3 C3_3 1_555 1_555
H8_3 C3_3 1_555 1_555
H9_5 N4_3 1_555 1_555
H10_3 C4_3 1_555 1_555
H11_3 C4_3 1_555 1_555
H12_3 C5_3 1_555 1_555
H13_3 C5_3 1_555 1_555
H14_3 C6_3 1_555 1_555
H15_3 C6_3 1_555 1_555
H16_5 N7_5 1_555 1_555
H17_3 C7_3 1_555 1_555
H18_5 C7_3 1_555 1_555
H20_5 C8_5 1_555 1_555
H21_5 C8_5 1_555 1_555
H23_5 C9_5 1_555 1_555
H24_5 C9_5 1_555 1_555
H25_5 C11_5 1_555 1_555
H26_5 N12_5 1_555 1_555
H28_5 C13_5 1_555 1_555
H30_5 C14_5 1_555 1_555
H31_5 C15_5 1_555 1_555
H32_5 C15_5 1_555 1_555
H33_5 C16_5 1_555 1_555
H34_5 C16_5 1_555 1_555
H47_5 C23_5 1_555 1_555
H48_5 C23_5 1_555 1_555
H49_5 C25_5 1_555 1_555
H50_5 C27_5 1_555 1_555
H51_5 C28_5 1_555 1_555
H52_5 C29_5 1_555 1_555
H54_5 C30_5 1_555 1_555
H55_5 C30_5 1_555 1_555
H68_5 C37_5 1_555 1_555
H69_5 C37_5 1_555 1_555
H70_5 C39_5 1_555 1_555
H71_5 C41_5 1_555 1_555
H72_5 C42_5 1_555 1_555
Zn4_3 O3_4 1_555 1_555
N16_5 Zn4_3 1_555 1_555
N17_3 Zn4_3 1_555 1_555
N18_3 Zn4_3 1_555 1_555
N19_3 Zn4_3 1_555 1_555
N20_5 Ru1_5 1_555 1_555
N21_5 C57_5 1_555 1_555
N25_5 Ru1_5 1_555 1_555
N30_5 Ru1_5 1_555 1_555
C43_3 N16_5 1_555 1_555
C44_3 N17_3 1_555 1_555
C45_3 N17_3 1_555 1_555
C46_3 N18_3 1_555 1_555
C47_3 N18_3 1_555 1_555
C48_3 N19_3 1_555 1_555
C49_3 N19_3 1_555 1_555
C50_5 N16_5 1_555 1_555
C51_5 N16_5 1_555 1_555
C52_5 C51_5 1_555 1_555
C53_5 N20_5 1_555 1_555
C54_5 C26_5 1_555 1_555
C55_5 C54_5 1_555 1_555
C56_5 C52_5 1_555 1_555
C57_5 C58_5 1_555 1_555
C58_5 N22_5 1_555 1_555
C65_5 N21_5 1_555 1_555
C66_5 C65_5 1_555 1_555
C67_5 N25_5 1_555 1_555
C68_5 C12_5 1_555 1_555
C69_5 C68_5 1_555 1_555
C70_5 C66_5 1_555 1_555
C71_5 N26_5 1_555 1_555
C72_5 N27_5 1_555 1_555
C79_5 N26_5 1_555 1_555
C80_5 C79_5 1_555 1_555
C81_5 N30_5 1_555 1_555
C82_5 C40_5 1_555 1_555
C83_5 C82_5 1_555 1_555
C84_5 C80_5 1_555 1_555
H73_3 C43_3 1_555 1_555
H74_3 C43_3 1_555 1_555
H75_3 N17_3 1_555 1_555
H76_3 C44_3 1_555 1_555
H77_3 C44_3 1_555 1_555
H78_3 N18_3 1_555 1_555
H79_3 C45_3 1_555 1_555
H80_3 C45_3 1_555 1_555
H81_5 N19_3 1_555 1_555
H82_3 C46_3 1_555 1_555
H83_3 C46_3 1_555 1_555
H84_3 C47_3 1_555 1_555
H85_3 C47_3 1_555 1_555
H86_3 C48_3 1_555 1_555
H87_3 C48_3 1_555 1_555
H88_5 N22_5 1_555 1_555
H89_3 C49_3 1_555 1_555
H90_5 C49_3 1_555 1_555
H92_5 C50_5 1_555 1_555
H93_5 C50_5 1_555 1_555
H95_5 C51_5 1_555 1_555
H96_5 C51_5 1_555 1_555
H97_5 C53_5 1_555 1_555
H98_5 N27_5 1_555 1_555
H100_5 C55_5 1_555 1_555
H102_5 C56_5 1_555 1_555
H103_5 C57_5 1_555 1_555
H104_5 C57_5 1_555 1_555
H105_5 C58_5 1_555 1_555
H106_5 C58_5 1_555 1_555
H119_5 C65_5 1_555 1_555
H120_5 C65_5 1_555 1_555
H121_5 C67_5 1_555 1_555
H122_5 C69_5 1_555 1_555
H123_5 C70_5 1_555 1_555
H124_5 C71_5 1_555 1_555
H126_5 C72_5 1_555 1_555
H127_5 C72_5 1_555 1_555
H140_5 C79_5 1_555 1_555
H141_5 C79_5 1_555 1_555
H142_5 C81_5 1_555 1_555
H143_5 C83_5 1_555 1_555
H144_5 C84_5 1_555 1_555
C1_3 C2_3 1_555 1_555
C3_3 C4_3 1_555 1_555
C5_3 C6_3 1_555 1_555
C7_3 C8_5 1_555 1_555
C13_5 C14_5 1_555 1_555
C24_5 C25_5 1_555 1_555
C27_5 C28_5 1_555 1_555
C38_5 C39_5 1_555 1_555
C41_5 C42_5 1_555 1_555
N20_5 C54_5 1_555 1_555
N25_5 C68_5 1_555 1_555
N30_5 C82_5 1_555 1_555
C43_3 C44_3 1_555 1_555
C45_3 C46_3 1_555 1_555
C47_3 C48_3 1_555 1_555
C49_3 C50_5 1_555 1_555
C52_5 C53_5 1_555 1_555
C55_5 C56_5 1_555 1_555
C66_5 C67_5 1_555 1_555
C69_5 C70_5 1_555 1_555
C71_5 C72_5 1_555 1_555
C80_5 C81_5 1_555 1_555
C83_5 C84_5 1_555 1_555
O6_7 Zn5_5 1_555 1_555
N13_5 Zn3_5 1_555 1_555
N14_5 Zn3_5 1_555 1_555
C32_5 N13_5 1_555 1_555
C33_5 N13_5 1_555 1_555
C34_5 N14_5 1_555 1_555
C35_5 N14_5 1_555 1_555
H27_5 N13_5 1_555 1_555
H29_5 N14_5 1_555 1_555
H56_5 C31_5 1_555 1_555
H57_5 C31_5 1_555 1_555
H58_5 C32_5 1_555 1_555
H59_5 C32_5 1_555 1_555
H60_5 C33_5 1_555 1_555
H61_5 C33_5 1_555 1_555
H62_5 C34_5 1_555 1_555
H63_5 C34_5 1_555 1_555
H64_5 C35_5 1_555 1_555
H65_5 C35_5 1_555 1_555
H66_5 C36_5 1_555 1_555
H67_5 C36_5 1_555 1_555
N23_5 Zn5_5 1_555 1_555
N24_5 Zn5_5 1_555 1_555
C60_5 N23_5 1_555 1_555
C61_5 N23_5 1_555 1_555
C62_5 N24_5 1_555 1_555
C63_5 N24_5 1_555 1_555
H91_5 N23_5 1_555 1_555
H94_5 N24_5 1_555 1_555
H108_5 C59_5 1_555 1_555
H109_5 C60_5 1_555 1_555
H110_5 C60_5 1_555 1_555
H111_5 C61_5 1_555 1_555
H112_5 C61_5 1_555 1_555
H113_5 C62_5 1_555 1_555
H114_5 C62_5 1_555 1_555
H115_5 C63_5 1_555 1_555
H116_5 C63_5 1_555 1_555
H117_5 C64_5 1_555 1_555
H118_5 C64_5 1_555 1_555
C31_5 C32_5 1_555 1_555
C33_5 C34_5 1_555 1_555
C35_5 C36_5 1_555 1_555
C59_5 C60_5 1_555 1_555
C61_5 C62_5 1_555 1_555
C63_5 C64_5 1_555 1_555
Ru1_6 N5_6 1_555 1_555
Zn6 N6_6 1_555 1_555
N5_6 C11_6 1_555 1_555
N6_6 C15_6 1_555 1_555
N7_6 Zn6 1_555 1_555
N8_6 Zn6 1_555 1_555
N9_6 Zn6 1_555 1_555
N10_6 Ru1_6 1_555 1_555
N11_6 C29_6 1_555 1_555
N15_6 Ru1_6 1_555 1_555
C8_6 N1_6 1_555 1_555
C9_6 N1_6 1_555 1_555
C10_6 C9_6 1_555 1_555
C11_6 C10_6 1_555 1_555
C12_6 N5_6 1_555 1_555
C13_6 C12_6 1_555 1_555
C14_6 C10_6 1_555 1_555
C15_6 C16_6 1_555 1_555
C16_6 N7_6 1_555 1_555
C17_6 N7_6 1_555 1_555
C18_6 N8_6 1_555 1_555
C19_6 N8_6 1_555 1_555
C20_6 N9_6 1_555 1_555
C21_6 N9_6 1_555 1_555
C22_6 N6_6 1_555 1_555
C23_6 N6_6 1_555 1_555
C24_6 C23_6 1_555 1_555
C25_6 N10_6 1_555 1_555
C26_6 N10_6 1_555 1_555
C27_6 C26_6 1_555 1_555
C28_6 C24_6 1_555 1_555
C29_6 C30_6 1_555 1_555
C30_6 N12_6 1_555 1_555
C37_6 N11_6 1_555 1_555
C38_6 C37_6 1_555 1_555
C39_6 N15_6 1_555 1_555
C40_6 N15_6 1_555 1_555
C41_6 C40_6 1_555 1_555
C42_6 C38_6 1_555 1_555
H16_6 N7_6 1_555 1_555
H19_6 N8_6 1_555 1_555
H20_6 C8_6 1_555 1_555
H21_6 C8_6 1_555 1_555
H22_6 N9_6 1_555 1_555
H23_6 C9_6 1_555 1_555
H24_6 C9_6 1_555 1_555
H25_6 C11_6 1_555 1_555
H26_6 N12_6 1_555 1_555
H28_6 C13_6 1_555 1_555
H30_6 C14_6 1_555 1_555
H31_6 C15_6 1_555 1_555
H32_6 C15_6 1_555 1_555
H33_6 C16_6 1_555 1_555
H34_6 C16_6 1_555 1_555
H35_6 C17_6 1_555 1_555
H36_6 C17_6 1_555 1_555
H37_6 C18_6 1_555 1_555
H38_6 C18_6 1_555 1_555
H39_6 C19_6 1_555 1_555
H40_6 C19_6 1_555 1_555
H41_6 C20_6 1_555 1_555
H42_6 C20_6 1_555 1_555
H43_6 C21_6 1_555 1_555
H44_6 C21_6 1_555 1_555
H45_6 C22_6 1_555 1_555
H46_6 C22_6 1_555 1_555
H47_6 C23_6 1_555 1_555
H48_6 C23_6 1_555 1_555
H49_6 C25_6 1_555 1_555
H50_6 C27_6 1_555 1_555
H51_6 C28_6 1_555 1_555
H52_6 C29_6 1_555 1_555
H54_6 C30_6 1_555 1_555
H55_6 C30_6 1_555 1_555
H68_6 C37_6 1_555 1_555
H69_6 C37_6 1_555 1_555
H70_6 C39_6 1_555 1_555
H71_6 C41_6 1_555 1_555
H72_6 C42_6 1_555 1_555
N20_6 Ru1_6 1_555 1_555
N21_6 C57_6 1_555 1_555
N25_6 Ru1_6 1_555 1_555
N26_6 Zn7_5 1_555 1_555
N27_6 Zn7_5 1_555 1_555
N28_6 Zn7_5 1_555 1_555
N29_6 Zn7_5 1_555 1_555
N30_6 Ru1_6 1_555 1_555
C50_6 N16_6 1_555 1_555
C51_6 N16_6 1_555 1_555
C52_6 C51_6 1_555 1_555
C53_6 N20_6 1_555 1_555
C54_6 C26_6 1_555 1_555
C55_6 C54_6 1_555 1_555
C56_6 C52_6 1_555 1_555
C57_6 C58_6 1_555 1_555
C58_6 N22_6 1_555 1_555
C65_6 N21_6 1_555 1_555
C66_6 C65_6 1_555 1_555
C67_6 N25_6 1_555 1_555
C68_6 C12_6 1_555 1_555
C69_6 C68_6 1_555 1_555
C70_6 C66_6 1_555 1_555
C71_6 N26_6 1_555 1_555
C72_6 N27_6 1_555 1_555
C73_6 N27_6 1_555 1_555
C74_6 N28_6 1_555 1_555
C75_6 N28_6 1_555 1_555
C76_6 N29_6 1_555 1_555
C77_6 N29_6 1_555 1_555
C78_6 N26_6 1_555 1_555
C79_6 N26_6 1_555 1_555
C80_6 C79_6 1_555 1_555
C81_6 N30_6 1_555 1_555
C82_6 C40_6 1_555 1_555
C83_6 C82_6 1_555 1_555
C84_6 C80_6 1_555 1_555
H88_6 N22_6 1_555 1_555
H92_6 C50_6 1_555 1_555
H93_6 C50_6 1_555 1_555
H95_6 C51_6 1_555 1_555
H96_6 C51_6 1_555 1_555
H97_6 C53_6 1_555 1_555
H98_6 N27_6 1_555 1_555
H99_6 N28_6 1_555 1_555
H100_6 C55_6 1_555 1_555
H101_6 N29_6 1_555 1_555
H102_6 C56_6 1_555 1_555
H103_6 C57_6 1_555 1_555
H104_6 C57_6 1_555 1_555
H105_6 C58_6 1_555 1_555
H106_6 C58_6 1_555 1_555
H119_6 C65_6 1_555 1_555
H120_6 C65_6 1_555 1_555
H121_6 C67_6 1_555 1_555
H122_6 C69_6 1_555 1_555
H123_6 C70_6 1_555 1_555
H124_6 C71_6 1_555 1_555
H125_6 C71_6 1_555 1_555
H126_6 C72_6 1_555 1_555
H127_6 C72_6 1_555 1_555
H128_6 C73_6 1_555 1_555
H129_6 C73_6 1_555 1_555
H130_6 C74_6 1_555 1_555
H131_6 C74_6 1_555 1_555
H132_6 C75_6 1_555 1_555
H133_6 C75_6 1_555 1_555
H134_6 C76_6 1_555 1_555
H135_6 C76_6 1_555 1_555
H136_6 C77_6 1_555 1_555
H137_6 C77_6 1_555 1_555
H138_6 C78_6 1_555 1_555
H139_6 C78_6 1_555 1_555
H140_6 C79_6 1_555 1_555
H141_6 C79_6 1_555 1_555
H142_6 C81_6 1_555 1_555
H143_6 C83_6 1_555 1_555
H144_6 C84_6 1_555 1_555
C13_6 C14_6 1_555 1_555
C17_6 C18_6 1_555 1_555
C19_6 C20_6 1_555 1_555
C21_6 C22_6 1_555 1_555
C24_6 C25_6 1_555 1_555
C27_6 C28_6 1_555 1_555
C38_6 C39_6 1_555 1_555
C41_6 C42_6 1_555 1_555
N20_6 C54_6 1_555 1_555
N25_6 C68_6 1_555 1_555
N30_6 C82_6 1_555 1_555
C52_6 C53_6 1_555 1_555
C55_6 C56_6 1_555 1_555
C66_6 C67_6 1_555 1_555
C69_6 C70_6 1_555 1_555
C71_6 C72_6 1_555 1_555
C73_6 C74_6 1_555 1_555
C75_6 C76_6 1_555 1_555
C77_6 C78_6 1_555 1_555
C80_6 C81_6 1_555 1_555
C83_6 C84_6 1_555 1_555
N13_6 Zn9 1_555 1_555
N14_6 Zn9 1_555 1_555
C32_6 N13_6 1_555 1_555
C33_6 N13_6 1_555 1_555
C34_6 N14_6 1_555 1_555
C35_6 N14_6 1_555 1_555
H27_6 N13_6 1_555 1_555
H29_6 N14_6 1_555 1_555
H56_6 C31_6 1_555 1_555
H57_6 C31_6 1_555 1_555
H58_6 C32_6 1_555 1_555
H59_6 C32_6 1_555 1_555
H60_6 C33_6 1_555 1_555
H61_6 C33_6 1_555 1_555
H62_6 C34_6 1_555 1_555
H63_6 C34_6 1_555 1_555
H64_6 C35_6 1_555 1_555
H65_6 C35_6 1_555 1_555
H66_6 C36_6 1_555 1_555
H67_6 C36_6 1_555 1_555
N23_6 Zn5_6 1_555 1_555
N24_6 Zn5_6 1_555 1_555
C60_6 N23_6 1_555 1_555
C61_6 N23_6 1_555 1_555
C62_6 N24_6 1_555 1_555
C63_6 N24_6 1_555 1_555
H91_6 N23_6 1_555 1_555
H94_6 N24_6 1_555 1_555
H108_6 C59_6 1_555 1_555
H109_6 C60_6 1_555 1_555
H110_6 C60_6 1_555 1_555
H111_6 C61_6 1_555 1_555
H112_6 C61_6 1_555 1_555
H113_6 C62_6 1_555 1_555
H114_6 C62_6 1_555 1_555
H115_6 C63_6 1_555 1_555
H116_6 C63_6 1_555 1_555
H117_6 C64_6 1_555 1_555
H118_6 C64_6 1_555 1_555
C31_6 C32_6 1_555 1_555
C33_6 C34_6 1_555 1_555
C35_6 C36_6 1_555 1_555
C59_6 C60_6 1_555 1_555
C61_6 C62_6 1_555 1_555
C63_6 C64_6 1_555 1_555
O6_11 Zn5_6 1_555 1_555
N2_4 Zn1_4 1_555 1_555
N3_4 Zn1_4 1_555 1_555
N4_4 Zn1_4 1_555 1_555
C2_4 N2_4 1_555 1_555
C3_4 N2_4 1_555 1_555
C4_4 N3_4 1_555 1_555
C5_4 N3_4 1_555 1_555
C6_4 N4_4 1_555 1_555
C7_4 N4_4 1_555 1_555
H1_4 C1_4 1_555 1_555
H2_4 C1_4 1_555 1_555
H3_4 N2_4 1_555 1_555
H4_4 C2_4 1_555 1_555
H5_4 C2_4 1_555 1_555
H6_4 N3_4 1_555 1_555
H7_4 C3_4 1_555 1_555
H8_4 C3_4 1_555 1_555
H10_4 C4_4 1_555 1_555
H11_4 C4_4 1_555 1_555
H12_4 C5_4 1_555 1_555
H13_4 C5_4 1_555 1_555
H14_4 C6_4 1_555 1_555
H15_4 C6_4 1_555 1_555
H17_4 C7_4 1_555 1_555
N17_4 Zn4_4 1_555 1_555
N18_4 Zn4_4 1_555 1_555
N19_4 Zn4_4 1_555 1_555
C44_4 N17_4 1_555 1_555
C45_4 N17_4 1_555 1_555
C46_4 N18_4 1_555 1_555
C47_4 N18_4 1_555 1_555
C48_4 N19_4 1_555 1_555
C49_4 N19_4 1_555 1_555
H73_4 C43_4 1_555 1_555
H74_4 C43_4 1_555 1_555
H75_4 N17_4 1_555 1_555
H76_4 C44_4 1_555 1_555
H77_4 C44_4 1_555 1_555
H78_4 N18_4 1_555 1_555
H79_4 C45_4 1_555 1_555
H80_4 C45_4 1_555 1_555
H82_4 C46_4 1_555 1_555
H83_4 C46_4 1_555 1_555
H84_4 C47_4 1_555 1_555
H85_4 C47_4 1_555 1_555
H86_4 C48_4 1_555 1_555
H87_4 C48_4 1_555 1_555
H89_4 C49_4 1_555 1_555
C1_4 C2_4 1_555 1_555
C3_4 C4_4 1_555 1_555
C5_4 C6_4 1_555 1_555
C43_4 C44_4 1_555 1_555
C45_4 C46_4 1_555 1_555
C47_4 C48_4 1_555 1_555
N2_5 Zn1_5 1_555 1_555
N3_5 Zn1_5 1_555 1_555
N4_5 Zn1_5 1_555 1_555
C2_5 N2_5 1_555 1_555
C3_5 N2_5 1_555 1_555
C4_5 N3_5 1_555 1_555
C5_5 N3_5 1_555 1_555
C6_5 N4_5 1_555 1_555
C7_5 N4_5 1_555 1_555
H1_5 C1_5 1_555 1_555
H2_5 C1_5 1_555 1_555
H3_5 N2_5 1_555 1_555
H4_5 C2_5 1_555 1_555
H5_5 C2_5 1_555 1_555
H6_5 N3_5 1_555 1_555
H7_5 C3_5 1_555 1_555
H8_5 C3_5 1_555 1_555
H10_5 C4_5 1_555 1_555
H11_5 C4_5 1_555 1_555
H12_5 C5_5 1_555 1_555
H13_5 C5_5 1_555 1_555
H14_5 C6_5 1_555 1_555
H15_5 C6_5 1_555 1_555
H17_5 C7_5 1_555 1_555
N17_5 Zn4_5 1_555 1_555
N18_5 Zn4_5 1_555 1_555
N19_5 Zn4_5 1_555 1_555
C44_5 N17_5 1_555 1_555
C45_5 N17_5 1_555 1_555
C46_5 N18_5 1_555 1_555
C47_5 N18_5 1_555 1_555
C48_5 N19_5 1_555 1_555
C49_5 N19_5 1_555 1_555
H73_5 C43_5 1_555 1_555
H74_5 C43_5 1_555 1_555
H75_5 N17_5 1_555 1_555
H76_5 C44_5 1_555 1_555
H77_5 C44_5 1_555 1_555
H78_5 N18_5 1_555 1_555
H79_5 C45_5 1_555 1_555
H80_5 C45_5 1_555 1_555
H82_5 C46_5 1_555 1_555
H83_5 C46_5 1_555 1_555
H84_5 C47_5 1_555 1_555
H85_5 C47_5 1_555 1_555
H86_5 C48_5 1_555 1_555
H87_5 C48_5 1_555 1_555
H89_5 C49_5 1_555 1_555
C1_5 C2_5 1_555 1_555
C3_5 C4_5 1_555 1_555
C5_5 C6_5 1_555 1_555
C43_5 C44_5 1_555 1_555
C45_5 C46_5 1_555 1_555
C47_5 C48_5 1_555 1_555
N2_6 Zn1_6 1_555 1_555
N3_6 Zn1_6 1_555 1_555
N4_6 Zn1_6 1_555 1_555
C2_6 N2_6 1_555 1_555
C3_6 N2_6 1_555 1_555
C4_6 N3_6 1_555 1_555
C5_6 N3_6 1_555 1_555
C6_6 N4_6 1_555 1_555
C7_6 N4_6 1_555 1_555
H1_6 C1_6 1_555 1_555
H2_6 C1_6 1_555 1_555
H3_6 N2_6 1_555 1_555
H4_6 C2_6 1_555 1_555
H5_6 C2_6 1_555 1_555
H6_6 N3_6 1_555 1_555
H7_6 C3_6 1_555 1_555
H8_6 C3_6 1_555 1_555
H10_6 C4_6 1_555 1_555
H11_6 C4_6 1_555 1_555
H12_6 C5_6 1_555 1_555
H13_6 C5_6 1_555 1_555
H14_6 C6_6 1_555 1_555
H15_6 C6_6 1_555 1_555
H17_6 C7_6 1_555 1_555
N17_6 Zn4_6 1_555 1_555
N18_6 Zn4_6 1_555 1_555
N19_6 Zn4_6 1_555 1_555
C44_6 N17_6 1_555 1_555
C45_6 N17_6 1_555 1_555
C46_6 N18_6 1_555 1_555
C47_6 N18_6 1_555 1_555
C48_6 N19_6 1_555 1_555
C49_6 N19_6 1_555 1_555
H73_6 C43_6 1_555 1_555
H74_6 C43_6 1_555 1_555
H75_6 N17_6 1_555 1_555
H76_6 C44_6 1_555 1_555
H77_6 C44_6 1_555 1_555
H78_6 N18_6 1_555 1_555
H79_6 C45_6 1_555 1_555
H80_6 C45_6 1_555 1_555
H82_6 C46_6 1_555 1_555
H83_6 C46_6 1_555 1_555
H84_6 C47_6 1_555 1_555
H85_6 C47_6 1_555 1_555
H86_6 C48_6 1_555 1_555
H87_6 C48_6 1_555 1_555
H89_6 C49_6 1_555 1_555
C1_6 C2_6 1_555 1_555
C3_6 C4_6 1_555 1_555
C5_6 C6_6 1_555 1_555
C43_6 C44_6 1_555 1_555
C45_6 C46_6 1_555 1_555
C47_6 C48_6 1_555 1_555
O7 N31 1_555 1_555
O8 N31 1_555 1_555
N31 O9 1_555 1_555
O7_2 N31_2 1_555 1_555
O8_2 N31_2 1_555 1_555
N31_2 O9_2 1_555 1_555
O7_3 N31_3 1_555 1_555
O8_3 N31_3 1_555 1_555
N31_3 O9_3 1_555 1_555
O7_4 N31_4 1_555 1_555
O8_4 N31_4 1_555 1_555
N31_4 O9_4 1_555 1_555
O7_5 N31_5 1_555 1_555
O8_5 N31_5 1_555 1_555
N31_5 O9_5 1_555 1_555
O7_6 N31_6 1_555 1_555
O8_6 N31_6 1_555 1_555
N31_6 O9_6 1_555 1_555
O10 N32 1_555 1_555
O11 N32 1_555 1_555
O12 N32 1_555 1_555
O10_2 N32_2 1_555 1_555
O11_2 N32_2 1_555 1_555
O12_2 N32_2 1_555 1_555
O10_3 N32_3 1_555 1_555
O11_3 N32_3 1_555 1_555
O12_3 N32_3 1_555 1_555
O10_4 N32_4 1_555 1_555
O11_4 N32_4 1_555 1_555
O12_4 N32_4 1_555 1_555
O10_5 N32_5 1_555 1_555
O11_5 N32_5 1_555 1_555
O12_5 N32_5 1_555 1_555
O10_6 N32_6 1_555 1_555
O11_6 N32_6 1_555 1_555
O12_6 N32_6 1_555 1_555
O10_7 N32_7 1_555 1_555
O11_7 N32_7 1_555 1_555
O12_7 N32_7 1_555 1_555
O10_8 N32_8 1_555 1_555
O11_8 N32_8 1_555 1_555
O12_8 N32_8 1_555 1_555
O10_9 N32_9 1_555 1_555
O11_9 N32_9 1_555 1_555
O12_9 N32_9 1_555 1_555
O10_10 N32_10 1_555 1_555
O11_10 N32_10 1_555 1_555
O12_10 N32_10 1_555 1_555
O10_11 N32_11 1_555 1_555
O11_11 N32_11 1_555 1_555
O12_11 N32_11 1_555 1_555
O10_12 N32_12 1_555 1_555
O11_12 N32_12 1_555 1_555
O12_12 N32_12 1_555 1_555
O13 N33 1_555 1_555
O14 N33 1_555 1_555
O15 N33 1_555 1_555
O13_2 N33_2 1_555 1_555
O14_2 N33_2 1_555 1_555
O15_2 N33_2 1_555 1_555
O13_3 N33_3 1_555 1_555
O14_3 N33_3 1_555 1_555
O15_3 N33_3 1_555 1_555
O13_4 N33_4 1_555 1_555
O14_4 N33_4 1_555 1_555
O15_4 N33_4 1_555 1_555
O13_5 N33_5 1_555 1_555
O14_5 N33_5 1_555 1_555
O15_5 N33_5 1_555 1_555
O13_6 N33_6 1_555 1_555
O14_6 N33_6 1_555 1_555
O15_6 N33_6 1_555 1_555
O13_7 N33_7 1_555 1_555
O14_7 N33_7 1_555 1_555
O15_7 N33_7 1_555 1_555
O13_8 N33_8 1_555 1_555
O14_8 N33_8 1_555 1_555
O15_8 N33_8 1_555 1_555
O13_9 N33_9 1_555 1_555
O14_9 N33_9 1_555 1_555
O15_9 N33_9 1_555 1_555
O13_10 N33_10 1_555 1_555
O14_10 N33_10 1_555 1_555
O15_10 N33_10 1_555 1_555
O13_11 N33_11 1_555 1_555
O14_11 N33_11 1_555 1_555
O15_11 N33_11 1_555 1_555
O13_12 N33_12 1_555 1_555
O14_12 N33_12 1_555 1_555
O15_12 N33_12 1_555 1_555
O16 N34 1_555 1_555
O17 N34 1_555 1_555
O18 N34 1_555 1_555
O16_2 N34_2 1_555 1_555
O17_2 N34_2 1_555 1_555
O18_2 N34_2 1_555 1_555
O16_3 N34_3 1_555 1_555
O17_3 N34_3 1_555 1_555
O18_3 N34_3 1_555 1_555
O16_4 N34_4 1_555 1_555
O17_4 N34_4 1_555 1_555
O18_4 N34_4 1_555 1_555
O16_5 N34_5 1_555 1_555
O17_5 N34_5 1_555 1_555
O18_5 N34_5 1_555 1_555
O16_6 N34_6 1_555 1_555
O17_6 N34_6 1_555 1_555
O18_6 N34_6 1_555 1_555
O16_7 N34_7 1_555 1_555
O17_7 N34_7 1_555 1_555
O18_7 N34_7 1_555 1_555
O16_8 N34_8 1_555 1_555
O17_8 N34_8 1_555 1_555
O18_8 N34_8 1_555 1_555
O16_9 N34_9 1_555 1_555
O17_9 N34_9 1_555 1_555
O18_9 N34_9 1_555 1_555
O16_10 N34_10 1_555 1_555
O17_10 N34_10 1_555 1_555
O18_10 N34_10 1_555 1_555
O16_11 N34_11 1_555 1_555
O17_11 N34_11 1_555 1_555
O18_11 N34_11 1_555 1_555
O16_12 N34_12 1_555 1_555
O17_12 N34_12 1_555 1_555
O18_12 N34_12 1_555 1_555
O19 N35 1_555 1_555
O20 N35 1_555 1_555
O21 N35 1_555 1_555
O19_2 N35_2 1_555 1_555
O20_2 N35_2 1_555 1_555
O21_2 N35_2 1_555 1_555
O19_3 N35_3 1_555 1_555
O20_3 N35_3 1_555 1_555
O21_3 N35_3 1_555 1_555
O19_4 N35_4 1_555 1_555
O20_4 N35_4 1_555 1_555
O21_4 N35_4 1_555 1_555
O19_5 N35_5 1_555 1_555
O20_5 N35_5 1_555 1_555
O21_5 N35_5 1_555 1_555
O19_6 N35_6 1_555 1_555
O20_6 N35_6 1_555 1_555
O21_6 N35_6 1_555 1_555
O19_7 N35_7 1_555 1_555
O20_7 N35_7 1_555 1_555
O21_7 N35_7 1_555 1_555
O19_8 N35_8 1_555 1_555
O20_8 N35_8 1_555 1_555
O21_8 N35_8 1_555 1_555
O19_9 N35_9 1_555 1_555
O20_9 N35_9 1_555 1_555
O21_9 N35_9 1_555 1_555
O19_10 N35_10 1_555 1_555
O20_10 N35_10 1_555 1_555
O21_10 N35_10 1_555 1_555
O19_11 N35_11 1_555 1_555
O20_11 N35_11 1_555 1_555
O21_11 N35_11 1_555 1_555
O19_12 N35_12 1_555 1_555
O20_12 N35_12 1_555 1_555
O21_12 N35_12 1_555 1_555

#END
