
###############################################################################
#
# This file contains modified crystal structure data generated from the
# MOF subset of the Cambridge Structural Database (CSD) v543 
# hosted by the Cambridge Crystallographic Data Centre (CCDC).
#
# This work is licensed under the Creative Commons
# Attribution-NonCommercial-ShareAlike 4.0 International License.
# To view a copy of this license, visit
# http://creativecommons.org/licenses/by-nc-sa/4.0/
# or send a letter to
# Creative Commons, PO Box 1866, Mountain View, CA 94042, USA.
#
# CIF created using the CSD Python API on 29 September 2022
# The structure has been converted into the P1 space group
# The structure has a 3D framework
# The original CSD entry QAPZUF is in the orthorhombic crystal system
# The framework has been calculated to contain at least 10.0% void space
# The void calculation uses a probe of radius 1.32A, grid spacing 0.4
#
###############################################################################

data_QAPZUF
_chemical_formula_moiety         '(C416 H256 N16 O96 P16 Zn14)n'
_symmetry_cell_setting           triclinic
_symmetry_space_group_name_H-M   'P 1'
_symmetry_Int_Tables_number      1
_space_group_name_Hall           'P 1'
loop_
_symmetry_equiv_pos_site_id
_symmetry_equiv_pos_as_xyz
1 x,y,z
_cell_length_a                   25.986(3)
_cell_length_b                   23.633(2)
_cell_length_c                   26.746(3)
_cell_angle_alpha                90
_cell_angle_beta                 90
_cell_angle_gamma                90
_cell_volume                     16425.4
loop_
_atom_site_label
_atom_site_type_symbol
_atom_site_fract_x
_atom_site_fract_y
_atom_site_fract_z
Zn1 Zn 0.35376(2) 0.500000 0.750000
Zn2 Zn 0.38634(2) 0.53166(2) 0.63675(2)
C1 C 0.48237(18) 0.52211(19) 0.50968(17)
C2 C 0.45530(17) 0.51294(17) 0.55298(16)
H1 H 0.459582 0.477746 0.569624
C3 C 0.4167(2) 0.6010(2) 0.55130(19)
H2 H 0.394916 0.628449 0.566298
C4 C 0.4412(3) 0.6134(3) 0.5074(2)
H3 H 0.435861 0.648960 0.491672
C5 C 0.4739(3) 0.5738(2) 0.4860(2)
H4 H 0.490573 0.581945 0.455193
C6 C 0.37774(14) 0.41553(15) 0.66496(15)
C7 C 0.38702(13) 0.35360(14) 0.65520(15)
C8 C 0.41776(16) 0.33625(16) 0.61585(17)
H5 H 0.432202 0.363550 0.593873
C9 C 0.42760(15) 0.27920(15) 0.60833(15)
H6 H 0.448628 0.267621 0.581140
C10 C 0.40703(13) 0.23918(14) 0.64012(14)
C11 C 0.37574(17) 0.25677(16) 0.67886(17)
H7 H 0.360314 0.229449 0.700166
C12 C 0.36656(15) 0.31381(16) 0.68703(16)
H8 H 0.346127 0.325420 0.714642
C13 C 0.46292(14) 0.14536(15) 0.68069(17)
C14 C 0.48266(15) 0.09051(16) 0.68149(19)
H9 H 0.473193 0.064716 0.655844
C15 C 0.51569(14) 0.07293(16) 0.71884(19)
H10 H 0.527812 0.035012 0.719171
C16 C 0.53118(15) 0.10998(16) 0.75559(17)
C17 C 0.51121(19) 0.16463(19) 0.75589(18)
H11 H 0.520832 0.190434 0.781473
C18 C 0.47718(18) 0.18131(18) 0.71868(18)
H12 H 0.463380 0.218521 0.719490
C19 C 0.56758(16) 0.09305(17) 0.79632(17)
C20 C 0.36264(15) 0.13002(15) 0.64212(15)
C21 C 0.32635(19) 0.1279(2) 0.60426(17)
H13 H 0.334448 0.143027 0.572298
C22 C 0.27823(19) 0.1041(2) 0.61244(17)
H14 H 0.253553 0.103418 0.586248
C23 C 0.26620(14) 0.08137(15) 0.65823(14)
C24 C 0.30255(15) 0.08315(17) 0.69674(16)
H15 H 0.294603 0.067600 0.728574
C25 C 0.35001(15) 0.10757(17) 0.68836(16)
H16 H 0.374439 0.109004 0.714752
C26 C 0.21396(15) 0.05694(14) 0.66707(15)
N1 N 0.42295(14) 0.55129(14) 0.57315(13)
O1 O 0.39101(11) 0.44887(11) 0.63033(11)
O2 O 0.35823(9) 0.42978(10) 0.70560(10)
O3 O 0.58490(10) 0.04085(11) 0.79499(11)
O4 O 0.57947(15) 0.12495(14) 0.83013(13)
O5 O 0.18400(11) 0.05563(12) 0.62972(10)
O6 O 0.20341(10) 0.03997(11) 0.71048(10)
P1 P 0.42366(4) 0.16504(4) 0.62736(4)
C27 C 0.51763(18) 0.47789(19) 0.49032(17)
C28 C 0.54470(17) 0.48706(17) 0.44702(16)
H17 H 0.540418 0.522254 0.430376
C29 C 0.5833(2) 0.3990(2) 0.44870(19)
H18 H 0.605084 0.371551 0.433702
C30 C 0.5588(3) 0.3866(3) 0.4926(2)
H19 H 0.564139 0.351040 0.508328
C31 C 0.5261(3) 0.4262(2) 0.5140(2)
H20 H 0.509427 0.418055 0.544807
N2 N 0.57705(14) 0.44871(14) 0.42685(13)
C32 C 0.62226(14) 0.08447(15) 0.66496(15)
C33 C 0.61298(13) 0.14640(14) 0.65520(15)
C34 C 0.58224(16) 0.16375(16) 0.61585(17)
H21 H 0.567798 0.136450 0.593873
C35 C 0.57240(15) 0.22080(15) 0.60833(15)
H22 H 0.551372 0.232379 0.581140
C36 C 0.59297(13) 0.26082(14) 0.64012(14)
C37 C 0.62426(17) 0.24323(16) 0.67886(17)
H23 H 0.639686 0.270551 0.700166
C38 C 0.63344(15) 0.18619(16) 0.68703(16)
H24 H 0.653873 0.174580 0.714642
C39 C 0.53708(14) 0.35464(15) 0.68069(17)
C40 C 0.51734(15) 0.40949(16) 0.68149(19)
H25 H 0.526807 0.435284 0.655844
C41 C 0.48431(14) 0.42707(16) 0.71884(19)
H26 H 0.472188 0.464988 0.719171
C42 C 0.46882(15) 0.39002(16) 0.75559(17)
C43 C 0.48879(19) 0.33537(19) 0.75589(18)
H27 H 0.479168 0.309566 0.781473
C44 C 0.52282(18) 0.31869(18) 0.71868(18)
H28 H 0.536620 0.281479 0.719490
C45 C 0.43242(16) 0.40695(17) 0.79632(17)
C46 C 0.63736(15) 0.36998(15) 0.64212(15)
C47 C 0.67365(19) 0.3721(2) 0.60426(17)
H29 H 0.665552 0.356973 0.572298
C48 C 0.72177(19) 0.3959(2) 0.61244(17)
H30 H 0.746447 0.396582 0.586248
C49 C 0.73380(14) 0.41863(15) 0.65823(14)
C50 C 0.69745(15) 0.41685(17) 0.69674(16)
H31 H 0.705397 0.432400 0.728574
C51 C 0.64999(15) 0.39243(17) 0.68836(16)
H32 H 0.625561 0.390996 0.714752
C52 C 0.78604(15) 0.44306(14) 0.66707(15)
O7 O 0.60899(11) 0.05113(11) 0.63033(11)
O8 O 0.64177(9) 0.07022(10) 0.70560(10)
O9 O 0.41510(10) 0.45915(11) 0.79499(11)
O10 O 0.42053(15) 0.37505(14) 0.83013(13)
O11 O 0.81600(11) 0.44437(12) 0.62972(10)
O12 O 0.79659(10) 0.46003(11) 0.71048(10)
P2 P 0.57634(4) 0.33496(4) 0.62736(4)
Zn4 Zn 0.64624(2) 0.000000 0.750000
Zn5 Zn 0.14624(2) 0.000000 0.750000
Zn6 Zn 0.85376(2) 0.500000 0.750000
Zn7 Zn 0.38634(2) 0.46834(2) 0.86325(2)
Zn8 Zn 0.61366(2) 0.03166(2) 0.86325(2)
Zn9 Zn 0.61366(2) 0.46834(2) 0.36325(2)
Zn10 Zn 0.11366(2) 0.03166(2) 0.63675(2)
Zn11 Zn 0.88634(2) 0.46834(2) 0.63675(2)
O13 O 0.35823(9) 0.57022(10) 0.79440(10)
O15 O 0.41510(10) 0.54085(11) 0.70501(11)
O17 O 0.42053(15) 0.62495(14) 0.66987(13)
O18 O 0.31600(11) 0.55563(12) 0.62972(10)
O20 O 0.29659(10) 0.46003(11) 0.78952(10)
O21 O 0.29659(10) 0.53997(11) 0.71048(10)
Zn3 Zn 0.61366(2) 0.96834(2) 0.63675(2)
Zn4_2 Zn 0.64624(2) 1.000000 0.750000
Zn5_2 Zn 0.14624(2) 1.000000 0.750000
N3 N 0.57705(14) 0.94871(14) 0.57315(13)
O14 O 0.58490(10) 0.95915(11) 0.70501(11)
O16 O 0.57947(15) 0.87505(14) 0.66987(13)
O19 O 0.68400(11) 0.94437(12) 0.62972(10)
H1_2 H 0.540418 0.022254 0.569624
C27_2 C 0.48237(18) 0.02211(19) 0.49032(17)
C28_2 C 0.45530(17) 0.01294(17) 0.44702(16)
C29_2 C 0.4167(2) 0.1010(2) 0.44870(19)
H18_2 H 0.394916 0.128449 0.433702
C30_2 C 0.4412(3) 0.1134(3) 0.4926(2)
H19_2 H 0.435861 0.148960 0.508328
C31_2 C 0.4739(3) 0.0738(2) 0.5140(2)
H20_2 H 0.490573 0.081945 0.544807
N2_2 N 0.42295(14) 0.05129(14) 0.42685(13)
Zn9_2 Zn 0.38634(2) 0.03166(2) 0.36325(2)
O20_2 O 0.70341(10) 0.03997(11) 0.78952(10)
C1_2 C 0.51763(18) 0.97789(19) 0.50968(17)
C2_2 C 0.54470(17) 0.98706(17) 0.55298(16)
C3_2 C 0.5833(2) 0.8990(2) 0.55130(19)
H2_2 H 0.605084 0.871551 0.566298
C4_2 C 0.5588(3) 0.8866(3) 0.5074(2)
H3_2 H 0.564139 0.851040 0.491672
C5_2 C 0.5261(3) 0.9262(2) 0.4860(2)
H4_2 H 0.509427 0.918055 0.455193
H17_2 H 0.459582 0.977746 0.430376
O13_2 O 0.64177(9) 0.92978(10) 0.79440(10)
O21_2 O 0.70341(10) 0.96003(11) 0.71048(10)
N3_2 N 0.57705(14) 0.05129(14) 0.92685(13)
O19_2 O 0.68400(11) 0.05563(12) 0.87028(10)
H3_3 H 0.435861 0.351040 0.008328
C5_3 C 0.4739(3) 0.4262(2) 0.0140(2)
H4_3 H 0.490573 0.418055 0.044807
C27_3 C 0.51763(18) 0.52211(19) 0.00968(17)
C28_3 C 0.54470(17) 0.51294(17) 0.05298(16)
H17_3 H 0.540418 0.477746 0.069624
C29_3 C 0.5833(2) 0.6010(2) 0.05130(19)
H18_3 H 0.605084 0.628449 0.066298
C30_3 C 0.5588(3) 0.6134(3) 0.0074(2)
N2_3 N 0.57705(14) 0.55129(14) 0.07315(13)
Zn9_3 Zn 0.61366(2) 0.53166(2) 0.13675(2)
C1_3 C 0.48237(18) 0.47789(19) 0.99032(17)
C2_3 C 0.45530(17) 0.48706(17) 0.94702(16)
H1_3 H 0.459582 0.522254 0.930376
C3_3 C 0.4167(2) 0.3990(2) 0.94870(19)
H2_3 H 0.394916 0.371551 0.933702
C4_3 C 0.4412(3) 0.3866(3) 0.9926(2)
C6_2 C 0.37774(14) 0.58447(15) 0.83504(15)
C7_2 C 0.38702(13) 0.64640(14) 0.84480(15)
C8_2 C 0.41776(16) 0.66375(16) 0.88415(17)
H5_2 H 0.432202 0.636450 0.906127
C9_2 C 0.42760(15) 0.72080(15) 0.89167(15)
H6_2 H 0.448628 0.732379 0.918860
C10_2 C 0.40703(13) 0.76082(14) 0.85988(14)
C11_2 C 0.37574(17) 0.74323(16) 0.82114(17)
H7_2 H 0.360314 0.770551 0.799834
C12_2 C 0.36656(15) 0.68619(16) 0.81297(16)
H8_2 H 0.346127 0.674580 0.785358
C13_2 C 0.46292(14) 0.85464(15) 0.81931(17)
C14_2 C 0.48266(15) 0.90949(16) 0.81851(19)
H9_2 H 0.473193 0.935284 0.844156
C15_2 C 0.51569(14) 0.92707(16) 0.78116(19)
H10_2 H 0.527812 0.964988 0.780829
C16_2 C 0.53118(15) 0.89002(16) 0.74441(17)
C17_2 C 0.51121(19) 0.83537(19) 0.74411(18)
H11_2 H 0.520832 0.809566 0.718527
C18_2 C 0.47718(18) 0.81869(18) 0.78132(18)
H12_2 H 0.463380 0.781479 0.780510
C19_2 C 0.56758(16) 0.90695(17) 0.70368(17)
C20_2 C 0.36264(15) 0.86998(15) 0.85788(15)
C21_2 C 0.32635(19) 0.8721(2) 0.89574(17)
H13_2 H 0.334448 0.856973 0.927702
C22_2 C 0.27823(19) 0.8959(2) 0.88756(17)
H14_2 H 0.253553 0.896582 0.913752
C23_2 C 0.26620(14) 0.91863(15) 0.84177(14)
C24_2 C 0.30255(15) 0.91685(17) 0.80326(16)
H15_2 H 0.294603 0.932400 0.771426
C25_2 C 0.35001(15) 0.89243(17) 0.81164(16)
H16_2 H 0.374439 0.890996 0.785248
C26_2 C 0.21396(15) 0.94306(14) 0.83293(15)
N1_2 N 0.42295(14) 0.44871(14) 0.92685(13)
O1_2 O 0.39101(11) 0.55113(11) 0.86967(11)
O5_2 O 0.18400(11) 0.94437(12) 0.87028(10)
O6_2 O 0.20341(10) 0.96003(11) 0.78952(10)
P1_2 P 0.42366(4) 0.83496(4) 0.87264(4)
H19_3 H 0.564139 0.648960 0.991672
C31_3 C 0.5261(3) 0.5738(2) 0.9860(2)
H20_3 H 0.509427 0.581945 0.955193
C32_2 C 0.62226(14) 0.91553(15) 0.83504(15)
C33_2 C 0.61298(13) 0.85360(14) 0.84480(15)
C34_2 C 0.58224(16) 0.83625(16) 0.88415(17)
H21_2 H 0.567798 0.863550 0.906127
C35_2 C 0.57240(15) 0.77920(15) 0.89167(15)
H22_2 H 0.551372 0.767621 0.918860
C36_2 C 0.59297(13) 0.73918(14) 0.85988(14)
C37_2 C 0.62426(17) 0.75677(16) 0.82114(17)
H23_2 H 0.639686 0.729449 0.799834
C38_2 C 0.63344(15) 0.81381(16) 0.81297(16)
H24_2 H 0.653873 0.825420 0.785358
C39_2 C 0.53708(14) 0.64536(15) 0.81931(17)
C40_2 C 0.51734(15) 0.59051(16) 0.81851(19)
H25_2 H 0.526807 0.564716 0.844156
C41_2 C 0.48431(14) 0.57293(16) 0.78116(19)
H26_2 H 0.472188 0.535012 0.780829
C42_2 C 0.46882(15) 0.60998(16) 0.74441(17)
C43_2 C 0.48879(19) 0.66463(19) 0.74411(18)
H27_2 H 0.479168 0.690434 0.718527
C44_2 C 0.52282(18) 0.68131(18) 0.78132(18)
H28_2 H 0.536620 0.718521 0.780510
C45_2 C 0.43242(16) 0.59305(17) 0.70368(17)
C46_2 C 0.63736(15) 0.63002(15) 0.85788(15)
C47_2 C 0.67365(19) 0.6279(2) 0.89574(17)
H29_2 H 0.665552 0.643027 0.927702
C48_2 C 0.72177(19) 0.6041(2) 0.88756(17)
H30_2 H 0.746447 0.603418 0.913752
C49_2 C 0.73380(14) 0.58137(15) 0.84177(14)
C50_2 C 0.69745(15) 0.58315(17) 0.80326(16)
H31_2 H 0.705397 0.567600 0.771426
C51_2 C 0.64999(15) 0.60757(17) 0.81164(16)
H32_2 H 0.625561 0.609004 0.785248
C52_2 C 0.78604(15) 0.55694(14) 0.83293(15)
O7_2 O 0.60899(11) 0.94887(11) 0.86967(11)
O11_2 O 0.81600(11) 0.55563(12) 0.87028(10)
O12_2 O 0.79659(10) 0.53997(11) 0.78952(10)
P2_2 P 0.57634(4) 0.66504(4) 0.87264(4)
Zn10_2 Zn 0.11366(2) 0.96834(2) 0.86325(2)
Zn11_2 Zn 0.88634(2) 0.53166(2) 0.86325(2)
O18_2 O 0.31600(11) 0.44437(12) 0.87028(10)
H3_4 H 0.564139 0.148960 0.008328
C5_4 C 0.5261(3) 0.0738(2) 0.0140(2)
H4_4 H 0.509427 0.081945 0.044807
H17_4 H 0.459582 0.022254 0.069624
C1_4 C 0.51763(18) 0.02211(19) 0.99032(17)
C2_4 C 0.54470(17) 0.01294(17) 0.94702(16)
C3_4 C 0.5833(2) 0.1010(2) 0.94870(19)
H2_4 H 0.605084 0.128449 0.933702
C4_4 C 0.5588(3) 0.1134(3) 0.9926(2)
C27_4 C 0.48237(18) 0.97789(19) 0.00968(17)
C28_4 C 0.45530(17) 0.98706(17) 0.05298(16)
C29_4 C 0.4167(2) 0.8990(2) 0.05130(19)
H18_4 H 0.394916 0.871551 0.066298
C30_4 C 0.4412(3) 0.8866(3) 0.0074(2)
N2_4 N 0.42295(14) 0.94871(14) 0.07315(13)
Zn9_4 Zn 0.38634(2) 0.96834(2) 0.13675(2)
H1_4 H 0.540418 0.977746 0.930376
H19_4 H 0.435861 0.851040 0.991672
C31_4 C 0.4739(3) 0.9262(2) 0.9860(2)
H20_4 H 0.490573 0.918055 0.955193
Zn6_2 Zn 0.35376(2) 0.000000 0.250000
H17_5 H 0.040418 0.022254 0.930376
C15_3 C 0.01569(14) 0.57293(16) 0.21884(19)
H10_3 H 0.027812 0.535012 0.219171
C16_3 C 0.03118(15) 0.60998(16) 0.25559(17)
C17_3 C 0.01121(19) 0.66463(19) 0.25589(18)
H11_3 H 0.020832 0.690434 0.281473
C19_3 C 0.06758(16) 0.59305(17) 0.29632(17)
O3_2 O 0.08490(10) 0.54085(11) 0.29499(11)
O4_2 O 0.07947(15) 0.62495(14) 0.33013(13)
H19_5 H 0.064139 0.851040 0.008328
C31_5 C 0.0261(3) 0.9262(2) 0.0140(2)
H20_5 H 0.009427 0.918055 0.044807
Zn3_2 Zn 0.11366(2) 0.46834(2) 0.13675(2)
C32_3 C 0.12226(14) 0.58447(15) 0.16496(15)
C33_3 C 0.11298(13) 0.64640(14) 0.15520(15)
C34_3 C 0.08224(16) 0.66375(16) 0.11585(17)
H21_3 H 0.067798 0.636450 0.093873
C35_3 C 0.07240(15) 0.72080(15) 0.10833(15)
H22_3 H 0.051372 0.732379 0.081140
C36_3 C 0.09297(13) 0.76082(14) 0.14012(14)
C37_3 C 0.12426(17) 0.74323(16) 0.17886(17)
H23_3 H 0.139686 0.770551 0.200166
C38_3 C 0.13344(15) 0.68619(16) 0.18703(16)
H24_3 H 0.153873 0.674580 0.214642
C39_3 C 0.03708(14) 0.85464(15) 0.18069(17)
C40_3 C 0.01734(15) 0.90949(16) 0.18149(19)
H25_3 H 0.026807 0.935284 0.155844
C44_3 C 0.02282(18) 0.81869(18) 0.21868(18)
H28_3 H 0.036620 0.781479 0.219490
C46_3 C 0.13736(15) 0.86998(15) 0.14212(15)
C47_3 C 0.17365(19) 0.8721(2) 0.10426(17)
H29_3 H 0.165552 0.856973 0.072298
C48_3 C 0.22177(19) 0.8959(2) 0.11244(17)
H30_3 H 0.246447 0.896582 0.086248
C49_3 C 0.23380(14) 0.91863(15) 0.15823(14)
C50_3 C 0.19745(15) 0.91685(17) 0.19674(16)
H31_3 H 0.205397 0.932400 0.228574
C51_3 C 0.14999(15) 0.89243(17) 0.18836(16)
H32_3 H 0.125561 0.890996 0.214752
C52_3 C 0.28604(15) 0.94306(14) 0.16707(15)
O7_3 O 0.10899(11) 0.55113(11) 0.13033(11)
O8_2 O 0.14177(9) 0.57022(10) 0.20560(10)
O11_3 O 0.31600(11) 0.94437(12) 0.12972(10)
O12_3 O 0.29659(10) 0.96003(11) 0.21048(10)
P2_3 P 0.07634(4) 0.83496(4) 0.12736(4)
Zn4_3 Zn 0.14624(2) 0.500000 0.250000
Zn6_3 Zn 0.35376(2) 1.000000 0.250000
Zn8_2 Zn 0.11366(2) 0.53166(2) 0.36325(2)
N3_3 N 0.07705(14) 0.44871(14) 0.07315(13)
O14_2 O 0.08490(10) 0.45915(11) 0.20501(11)
O16_2 O 0.07947(15) 0.37505(14) 0.16987(13)
O19_3 O 0.18400(11) 0.44437(12) 0.12972(10)
C27_5 C 0.01763(18) 0.97789(19) 0.99032(17)
C28_5 C 0.04470(17) 0.98706(17) 0.94702(16)
C29_5 C 0.0833(2) 0.8990(2) 0.94870(19)
H18_5 H 0.105084 0.871551 0.933702
C30_5 C 0.0588(3) 0.8866(3) 0.9926(2)
N2_5 N 0.07705(14) 0.94871(14) 0.92685(13)
Zn1_2 Zn 0.85376(2) 0.000000 0.250000
Zn2_2 Zn 0.88634(2) 0.03166(2) 0.13675(2)
C1_5 C 0.98237(18) 0.02211(19) 0.00968(17)
C2_5 C 0.95530(17) 0.01294(17) 0.05298(16)
C3_5 C 0.9167(2) 0.1010(2) 0.05130(19)
H2_5 H 0.894916 0.128449 0.066298
C4_5 C 0.9412(3) 0.1134(3) 0.0074(2)
N1_3 N 0.92295(14) 0.05129(14) 0.07315(13)
O13_3 O 0.85823(9) 0.07022(10) 0.29440(10)
O15_2 O 0.91510(10) 0.04085(11) 0.20501(11)
O17_2 O 0.92053(15) 0.12495(14) 0.16987(13)
O18_3 O 0.81600(11) 0.05563(12) 0.12972(10)
O21_3 O 0.79659(10) 0.03997(11) 0.21048(10)
H3_5 H 0.935861 0.148960 0.991672
C5_5 C 0.9739(3) 0.0738(2) 0.9860(2)
H4_5 H 0.990573 0.081945 0.955193
Zn1_3 Zn 0.85376(2) 1.000000 0.250000
H1_5 H 0.959582 0.977746 0.069624
C6_3 C 0.87774(14) 0.91553(15) 0.16496(15)
C7_3 C 0.88702(13) 0.85360(14) 0.15520(15)
C8_3 C 0.91776(16) 0.83625(16) 0.11585(17)
H5_3 H 0.932202 0.863550 0.093873
C9_3 C 0.92760(15) 0.77920(15) 0.10833(15)
H6_3 H 0.948628 0.767621 0.081140
C10_3 C 0.90703(13) 0.73918(14) 0.14012(14)
C11_3 C 0.87574(17) 0.75677(16) 0.17886(17)
H7_3 H 0.860314 0.729449 0.200166
C12_3 C 0.86656(15) 0.81381(16) 0.18703(16)
H8_3 H 0.846127 0.825420 0.214642
C13_3 C 0.96292(14) 0.64536(15) 0.18069(17)
C14_3 C 0.98266(15) 0.59051(16) 0.18149(19)
H9_3 H 0.973193 0.564716 0.155844
C18_3 C 0.97718(18) 0.68131(18) 0.21868(18)
H12_3 H 0.963380 0.718521 0.219490
C20_3 C 0.86264(15) 0.63002(15) 0.14212(15)
C21_3 C 0.82635(19) 0.6279(2) 0.10426(17)
H13_3 H 0.834448 0.643027 0.072298
C22_3 C 0.77823(19) 0.6041(2) 0.11244(17)
H14_3 H 0.753553 0.603418 0.086248
C23_3 C 0.76620(14) 0.58137(15) 0.15823(14)
C24_3 C 0.80255(15) 0.58315(17) 0.19674(16)
H15_3 H 0.794603 0.567600 0.228574
C25_3 C 0.85001(15) 0.60757(17) 0.18836(16)
H16_3 H 0.874439 0.609004 0.214752
C26_3 C 0.71396(15) 0.55694(14) 0.16707(15)
O1_3 O 0.89101(11) 0.94887(11) 0.13033(11)
O2_2 O 0.85823(9) 0.92978(10) 0.20560(10)
O5_3 O 0.68400(11) 0.55563(12) 0.12972(10)
O6_3 O 0.70341(10) 0.53997(11) 0.21048(10)
P1_3 P 0.92366(4) 0.66504(4) 0.12736(4)
C41_3 C 0.98431(14) 0.92707(16) 0.21884(19)
H26_3 H 0.972188 0.964988 0.219171
C42_3 C 0.96882(15) 0.89002(16) 0.25559(17)
C43_3 C 0.98879(19) 0.83537(19) 0.25589(18)
H27_3 H 0.979168 0.809566 0.281473
C45_3 C 0.93242(16) 0.90695(17) 0.29632(17)
O9_2 O 0.91510(10) 0.95915(11) 0.29499(11)
O10_2 O 0.92053(15) 0.87505(14) 0.33013(13)
Zn5_3 Zn 0.64624(2) 0.500000 0.250000
Zn7_2 Zn 0.88634(2) 0.96834(2) 0.36325(2)
O20_3 O 0.79659(10) 0.96003(11) 0.28952(10)
C1_6 C 0.01763(18) 0.47789(19) 0.00968(17)
C2_6 C 0.04470(17) 0.48706(17) 0.05298(16)
H1_6 H 0.040418 0.522254 0.069624
C3_6 C 0.0833(2) 0.3990(2) 0.05130(19)
H2_6 H 0.105084 0.371551 0.066298
C4_6 C 0.0588(3) 0.3866(3) 0.0074(2)
O13_4 O 0.14177(9) 0.42978(10) 0.29440(10)
O20_4 O 0.20341(10) 0.53997(11) 0.28952(10)
O21_4 O 0.20341(10) 0.46003(11) 0.21048(10)
H3_6 H 0.064139 0.351040 0.991672
C5_6 C 0.0261(3) 0.4262(2) 0.9860(2)
H4_6 H 0.009427 0.418055 0.955193
H19_6 H 0.935861 0.648960 0.008328
C31_6 C 0.9739(3) 0.5738(2) 0.0140(2)
H20_6 H 0.990573 0.581945 0.044807
C27_6 C 0.98237(18) 0.52211(19) 0.99032(17)
C28_6 C 0.95530(17) 0.51294(17) 0.94702(16)
H17_6 H 0.959582 0.477746 0.930376
C29_6 C 0.9167(2) 0.6010(2) 0.94870(19)
H18_6 H 0.894916 0.628449 0.933702
C30_6 C 0.9412(3) 0.6134(3) 0.9926(2)
N2_6 N 0.92295(14) 0.55129(14) 0.92685(13)
C15_4 C 0.01569(14) 0.42707(16) 0.28116(19)
H10_4 H 0.027812 0.464988 0.280829
C16_4 C 0.03118(15) 0.39002(16) 0.24441(17)
C17_4 C 0.01121(19) 0.33537(19) 0.24411(18)
H11_4 H 0.020832 0.309566 0.218527
C19_4 C 0.06758(16) 0.40695(17) 0.20368(17)
C27_7 C 0.01763(18) 0.02211(19) 0.50968(17)
C28_7 C 0.04470(17) 0.01294(17) 0.55298(16)
C29_7 C 0.0833(2) 0.1010(2) 0.55130(19)
H18_7 H 0.105084 0.128449 0.566298
C30_7 C 0.0588(3) 0.1134(3) 0.5074(2)
H19_7 H 0.064139 0.148960 0.491672
C31_7 C 0.0261(3) 0.0738(2) 0.4860(2)
H20_7 H 0.009427 0.081945 0.455193
N2_7 N 0.07705(14) 0.05129(14) 0.57315(13)
C32_4 C 0.12226(14) 0.41553(15) 0.33504(15)
C33_4 C 0.11298(13) 0.35360(14) 0.34480(15)
C34_4 C 0.08224(16) 0.33625(16) 0.38415(17)
H21_4 H 0.067798 0.363550 0.406127
C35_4 C 0.07240(15) 0.27920(15) 0.39167(15)
H22_4 H 0.051372 0.267621 0.418860
C36_4 C 0.09297(13) 0.23918(14) 0.35988(14)
C37_4 C 0.12426(17) 0.25677(16) 0.32114(17)
H23_4 H 0.139686 0.229449 0.299834
C38_4 C 0.13344(15) 0.31381(16) 0.31297(16)
H24_4 H 0.153873 0.325420 0.285358
C39_4 C 0.03708(14) 0.14536(15) 0.31931(17)
C40_4 C 0.01734(15) 0.09051(16) 0.31851(19)
H25_4 H 0.026807 0.064716 0.344156
C44_4 C 0.02282(18) 0.18131(18) 0.28132(18)
H28_4 H 0.036620 0.218521 0.280510
C46_4 C 0.13736(15) 0.13002(15) 0.35788(15)
C47_4 C 0.17365(19) 0.1279(2) 0.39574(17)
H29_4 H 0.165552 0.143027 0.427702
C48_4 C 0.22177(19) 0.1041(2) 0.38756(17)
H30_4 H 0.246447 0.103418 0.413752
C49_4 C 0.23380(14) 0.08137(15) 0.34177(14)
C50_4 C 0.19745(15) 0.08315(17) 0.30326(16)
H31_4 H 0.205397 0.067600 0.271426
C51_4 C 0.14999(15) 0.10757(17) 0.31164(16)
H32_4 H 0.125561 0.109004 0.285248
C52_4 C 0.28604(15) 0.05694(14) 0.33293(15)
O7_4 O 0.10899(11) 0.44887(11) 0.36967(11)
O11_4 O 0.31600(11) 0.05563(12) 0.37028(10)
O12_4 O 0.29659(10) 0.03997(11) 0.28952(10)
P2_4 P 0.07634(4) 0.16504(4) 0.37264(4)
N3_4 N 0.07705(14) 0.55129(14) 0.42685(13)
O19_4 O 0.18400(11) 0.55563(12) 0.37028(10)
H17_7 H 0.040418 0.977746 0.569624
H1_7 H 0.959582 0.022254 0.430376
C6_4 C 0.87774(14) 0.08447(15) 0.33504(15)
C7_4 C 0.88702(13) 0.14640(14) 0.34480(15)
C8_4 C 0.91776(16) 0.16375(16) 0.38415(17)
H5_4 H 0.932202 0.136450 0.406127
C9_4 C 0.92760(15) 0.22080(15) 0.39167(15)
H6_4 H 0.948628 0.232379 0.418860
C10_4 C 0.90703(13) 0.26082(14) 0.35988(14)
C11_4 C 0.87574(17) 0.24323(16) 0.32114(17)
H7_4 H 0.860314 0.270551 0.299834
C12_4 C 0.86656(15) 0.18619(16) 0.31297(16)
H8_4 H 0.846127 0.174580 0.285358
C13_4 C 0.96292(14) 0.35464(15) 0.31931(17)
C14_4 C 0.98266(15) 0.40949(16) 0.31851(19)
H9_4 H 0.973193 0.435284 0.344156
C18_4 C 0.97718(18) 0.31869(18) 0.28132(18)
H12_4 H 0.963380 0.281479 0.280510
C20_4 C 0.86264(15) 0.36998(15) 0.35788(15)
C21_4 C 0.82635(19) 0.3721(2) 0.39574(17)
H13_4 H 0.834448 0.356973 0.427702
C22_4 C 0.77823(19) 0.3959(2) 0.38756(17)
H14_4 H 0.753553 0.396582 0.413752
C23_4 C 0.76620(14) 0.41863(15) 0.34177(14)
C24_4 C 0.80255(15) 0.41685(17) 0.30326(16)
H15_4 H 0.794603 0.432400 0.271426
C25_4 C 0.85001(15) 0.39243(17) 0.31164(16)
H16_4 H 0.874439 0.390996 0.285248
C26_4 C 0.71396(15) 0.44306(14) 0.33293(15)
O1_4 O 0.89101(11) 0.05113(11) 0.36967(11)
O5_4 O 0.68400(11) 0.44437(12) 0.37028(10)
O6_4 O 0.70341(10) 0.46003(11) 0.28952(10)
P1_4 P 0.92366(4) 0.33496(4) 0.37264(4)
C41_4 C 0.98431(14) 0.07293(16) 0.28116(19)
H26_4 H 0.972188 0.035012 0.280829
C42_4 C 0.96882(15) 0.10998(16) 0.24441(17)
C43_4 C 0.98879(19) 0.16463(19) 0.24411(18)
H27_4 H 0.979168 0.190434 0.218527
C45_4 C 0.93242(16) 0.09305(17) 0.20368(17)
C1_7 C 0.98237(18) 0.97789(19) 0.49032(17)
C2_7 C 0.95530(17) 0.98706(17) 0.44702(16)
C3_7 C 0.9167(2) 0.8990(2) 0.44870(19)
H2_7 H 0.894916 0.871551 0.433702
C4_7 C 0.9412(3) 0.8866(3) 0.4926(2)
H3_7 H 0.935861 0.851040 0.508328
C5_7 C 0.9739(3) 0.9262(2) 0.5140(2)
H4_7 H 0.990573 0.918055 0.544807
N1_4 N 0.92295(14) 0.94871(14) 0.42685(13)
O18_4 O 0.81600(11) 0.94437(12) 0.37028(10)
C1_8 C 0.01763(18) 0.52211(19) 0.49032(17)
C2_8 C 0.04470(17) 0.51294(17) 0.44702(16)
H1_8 H 0.040418 0.477746 0.430376
C3_8 C 0.0833(2) 0.6010(2) 0.44870(19)
H2_8 H 0.105084 0.628449 0.433702
C4_8 C 0.0588(3) 0.6134(3) 0.4926(2)
H3_8 H 0.064139 0.648960 0.508328
C5_8 C 0.0261(3) 0.5738(2) 0.5140(2)
H4_8 H 0.009427 0.581945 0.544807
C27_8 C 0.98237(18) 0.47789(19) 0.50968(17)
C28_8 C 0.95530(17) 0.48706(17) 0.55298(16)
H17_8 H 0.959582 0.522254 0.569624
C29_8 C 0.9167(2) 0.3990(2) 0.55130(19)
H18_8 H 0.894916 0.371551 0.566298
C30_8 C 0.9412(3) 0.3866(3) 0.5074(2)
H19_8 H 0.935861 0.351040 0.491672
C31_8 C 0.9739(3) 0.4262(2) 0.4860(2)
H20_8 H 0.990573 0.418055 0.455193
N2_8 N 0.92295(14) 0.44871(14) 0.57315(13)
O14_3 O 0.41510(10) 0.04085(11) 0.29499(11)
O16_3 O 0.42053(15) 0.12495(14) 0.33013(13)
C6_5 C 0.62226(14) 0.58447(15) 0.33504(15)
C7_5 C 0.61298(13) 0.64640(14) 0.34480(15)
C8_5 C 0.58224(16) 0.66375(16) 0.38415(17)
H5_5 H 0.567798 0.636450 0.406127
C9_5 C 0.57240(15) 0.72080(15) 0.39167(15)
H6_5 H 0.551372 0.732379 0.418860
C10_5 C 0.59297(13) 0.76082(14) 0.35988(14)
C11_5 C 0.62426(17) 0.74323(16) 0.32114(17)
H7_5 H 0.639686 0.770551 0.299834
C12_5 C 0.63344(15) 0.68619(16) 0.31297(16)
H8_5 H 0.653873 0.674580 0.285358
C13_5 C 0.53708(14) 0.85464(15) 0.31931(17)
C14_5 C 0.51734(15) 0.90949(16) 0.31851(19)
H9_5 H 0.526807 0.935284 0.344156
C15_5 C 0.48431(14) 0.92707(16) 0.28116(19)
H10_5 H 0.472188 0.964988 0.280829
C16_5 C 0.46882(15) 0.89002(16) 0.24441(17)
C17_5 C 0.48879(19) 0.83537(19) 0.24411(18)
H11_5 H 0.479168 0.809566 0.218527
C18_5 C 0.52282(18) 0.81869(18) 0.28132(18)
H12_5 H 0.536620 0.781479 0.280510
C19_5 C 0.43242(16) 0.90695(17) 0.20368(17)
C20_5 C 0.63736(15) 0.86998(15) 0.35788(15)
C21_5 C 0.67365(19) 0.8721(2) 0.39574(17)
H13_5 H 0.665552 0.856973 0.427702
C22_5 C 0.72177(19) 0.8959(2) 0.38756(17)
H14_5 H 0.746447 0.896582 0.413752
C23_5 C 0.73380(14) 0.91863(15) 0.34177(14)
C24_5 C 0.69745(15) 0.91685(17) 0.30326(16)
H15_5 H 0.705397 0.932400 0.271426
C25_5 C 0.64999(15) 0.89243(17) 0.31164(16)
H16_5 H 0.625561 0.890996 0.285248
C26_5 C 0.78604(15) 0.94306(14) 0.33293(15)
O1_5 O 0.60899(11) 0.55113(11) 0.36967(11)
O2_3 O 0.64177(9) 0.57022(10) 0.29440(10)
O3_3 O 0.41510(10) 0.95915(11) 0.20501(11)
O4_3 O 0.42053(15) 0.87505(14) 0.16987(13)
P1_5 P 0.57634(4) 0.83496(4) 0.37264(4)
C32_5 C 0.37774(14) 0.91553(15) 0.33504(15)
C33_5 C 0.38702(13) 0.85360(14) 0.34480(15)
C34_5 C 0.41776(16) 0.83625(16) 0.38415(17)
H21_5 H 0.432202 0.863550 0.406127
C35_5 C 0.42760(15) 0.77920(15) 0.39167(15)
H22_5 H 0.448628 0.767621 0.418860
C36_5 C 0.40703(13) 0.73918(14) 0.35988(14)
C37_5 C 0.37574(17) 0.75677(16) 0.32114(17)
H23_5 H 0.360314 0.729449 0.299834
C38_5 C 0.36656(15) 0.81381(16) 0.31297(16)
H24_5 H 0.346127 0.825420 0.285358
C39_5 C 0.46292(14) 0.64536(15) 0.31931(17)
C40_5 C 0.48266(15) 0.59051(16) 0.31851(19)
H25_5 H 0.473193 0.564716 0.344156
C41_5 C 0.51569(14) 0.57293(16) 0.28116(19)
H26_5 H 0.527812 0.535012 0.280829
C42_5 C 0.53118(15) 0.60998(16) 0.24441(17)
C43_5 C 0.51121(19) 0.66463(19) 0.24411(18)
H27_5 H 0.520832 0.690434 0.218527
C44_5 C 0.47718(18) 0.68131(18) 0.28132(18)
H28_5 H 0.463380 0.718521 0.280510
C45_5 C 0.56758(16) 0.59305(17) 0.20368(17)
C46_5 C 0.36264(15) 0.63002(15) 0.35788(15)
C47_5 C 0.32635(19) 0.6279(2) 0.39574(17)
H29_5 H 0.334448 0.643027 0.427702
C48_5 C 0.27823(19) 0.6041(2) 0.38756(17)
H30_5 H 0.253553 0.603418 0.413752
C49_5 C 0.26620(14) 0.58137(15) 0.34177(14)
C50_5 C 0.30255(15) 0.58315(17) 0.30326(16)
H31_5 H 0.294603 0.567600 0.271426
C51_5 C 0.35001(15) 0.60757(17) 0.31164(16)
H32_5 H 0.374439 0.609004 0.285248
C52_5 C 0.21396(15) 0.55694(14) 0.33293(15)
O7_5 O 0.39101(11) 0.94887(11) 0.36967(11)
O8_3 O 0.35823(9) 0.92978(10) 0.29440(10)
O9_3 O 0.58490(10) 0.54085(11) 0.20501(11)
O10_3 O 0.57947(15) 0.62495(14) 0.16987(13)
P2_5 P 0.42366(4) 0.66504(4) 0.37264(4)
O13_5 O 0.64177(9) 0.42978(10) 0.20560(10)
O15_3 O 0.58490(10) 0.45915(11) 0.29499(11)
O17_3 O 0.57947(15) 0.37505(14) 0.33013(13)
O13_6 O 0.35823(9) 0.07022(10) 0.20560(10)
C6_6 C 0.62226(14) 0.41553(15) 0.16496(15)
C7_6 C 0.61298(13) 0.35360(14) 0.15520(15)
C8_6 C 0.58224(16) 0.33625(16) 0.11585(17)
H5_6 H 0.567798 0.363550 0.093873
C9_6 C 0.57240(15) 0.27920(15) 0.10833(15)
H6_6 H 0.551372 0.267621 0.081140
C10_6 C 0.59297(13) 0.23918(14) 0.14012(14)
C11_6 C 0.62426(17) 0.25677(16) 0.17886(17)
H7_6 H 0.639686 0.229449 0.200166
C12_6 C 0.63344(15) 0.31381(16) 0.18703(16)
H8_6 H 0.653873 0.325420 0.214642
C13_6 C 0.53708(14) 0.14536(15) 0.18069(17)
C14_6 C 0.51734(15) 0.09051(16) 0.18149(19)
H9_6 H 0.526807 0.064716 0.155844
C15_6 C 0.48431(14) 0.07293(16) 0.21884(19)
H10_6 H 0.472188 0.035012 0.219171
C16_6 C 0.46882(15) 0.10998(16) 0.25559(17)
C17_6 C 0.48879(19) 0.16463(19) 0.25589(18)
H11_6 H 0.479168 0.190434 0.281473
C18_6 C 0.52282(18) 0.18131(18) 0.21868(18)
H12_6 H 0.536620 0.218521 0.219490
C19_6 C 0.43242(16) 0.09305(17) 0.29632(17)
C20_6 C 0.63736(15) 0.13002(15) 0.14212(15)
C21_6 C 0.67365(19) 0.1279(2) 0.10426(17)
H13_6 H 0.665552 0.143027 0.072298
C22_6 C 0.72177(19) 0.1041(2) 0.11244(17)
H14_6 H 0.746447 0.103418 0.086248
C23_6 C 0.73380(14) 0.08137(15) 0.15823(14)
C24_6 C 0.69745(15) 0.08315(17) 0.19674(16)
H15_6 H 0.705397 0.067600 0.228574
C25_6 C 0.64999(15) 0.10757(17) 0.18836(16)
H16_6 H 0.625561 0.109004 0.214752
C26_6 C 0.78604(15) 0.05694(14) 0.16707(15)
O1_6 O 0.60899(11) 0.44887(11) 0.13033(11)
P1_6 P 0.57634(4) 0.16504(4) 0.12736(4)
C32_6 C 0.37774(14) 0.08447(15) 0.16496(15)
C33_6 C 0.38702(13) 0.14640(14) 0.15520(15)
C34_6 C 0.41776(16) 0.16375(16) 0.11585(17)
H21_6 H 0.432202 0.136450 0.093873
C35_6 C 0.42760(15) 0.22080(15) 0.10833(15)
H22_6 H 0.448628 0.232379 0.081140
C36_6 C 0.40703(13) 0.26082(14) 0.14012(14)
C37_6 C 0.37574(17) 0.24323(16) 0.17886(17)
H23_6 H 0.360314 0.270551 0.200166
C38_6 C 0.36656(15) 0.18619(16) 0.18703(16)
H24_6 H 0.346127 0.174580 0.214642
C39_6 C 0.46292(14) 0.35464(15) 0.18069(17)
C40_6 C 0.48266(15) 0.40949(16) 0.18149(19)
H25_6 H 0.473193 0.435284 0.155844
C41_6 C 0.51569(14) 0.42707(16) 0.21884(19)
H26_6 H 0.527812 0.464988 0.219171
C42_6 C 0.53118(15) 0.39002(16) 0.25559(17)
C43_6 C 0.51121(19) 0.33537(19) 0.25589(18)
H27_6 H 0.520832 0.309566 0.281473
C44_6 C 0.47718(18) 0.31869(18) 0.21868(18)
H28_6 H 0.463380 0.281479 0.219490
C45_6 C 0.56758(16) 0.40695(17) 0.29632(17)
C46_6 C 0.36264(15) 0.36998(15) 0.14212(15)
C47_6 C 0.32635(19) 0.3721(2) 0.10426(17)
H29_6 H 0.334448 0.356973 0.072298
C48_6 C 0.27823(19) 0.3959(2) 0.11244(17)
H30_6 H 0.253553 0.396582 0.086248
C49_6 C 0.26620(14) 0.41863(15) 0.15823(14)
C50_6 C 0.30255(15) 0.41685(17) 0.19674(16)
H31_6 H 0.294603 0.432400 0.228574
C51_6 C 0.35001(15) 0.39243(17) 0.18836(16)
H32_6 H 0.374439 0.390996 0.214752
C52_6 C 0.21396(15) 0.44306(14) 0.16707(15)
O7_6 O 0.39101(11) 0.05113(11) 0.13033(11)
P2_6 P 0.42366(4) 0.33496(4) 0.12736(4)
C6_7 C 0.12226(14) 0.08447(15) 0.83504(15)
C7_7 C 0.11298(13) 0.14640(14) 0.84480(15)
C8_7 C 0.08224(16) 0.16375(16) 0.88415(17)
H5_7 H 0.067798 0.136450 0.906127
C9_7 C 0.07240(15) 0.22080(15) 0.89167(15)
H6_7 H 0.051372 0.232379 0.918860
C10_7 C 0.09297(13) 0.26082(14) 0.85988(14)
C11_7 C 0.12426(17) 0.24323(16) 0.82114(17)
H7_7 H 0.139686 0.270551 0.799834
C12_7 C 0.13344(15) 0.18619(16) 0.81297(16)
H8_7 H 0.153873 0.174580 0.785358
C13_7 C 0.03708(14) 0.35464(15) 0.81931(17)
C14_7 C 0.01734(15) 0.40949(16) 0.81851(19)
H9_7 H 0.026807 0.435284 0.844156
C18_7 C 0.02282(18) 0.31869(18) 0.78132(18)
H12_7 H 0.036620 0.281479 0.780510
C20_7 C 0.13736(15) 0.36998(15) 0.85788(15)
C21_7 C 0.17365(19) 0.3721(2) 0.89574(17)
H13_7 H 0.165552 0.356973 0.927702
C22_7 C 0.22177(19) 0.3959(2) 0.88756(17)
H14_7 H 0.246447 0.396582 0.913752
C23_7 C 0.23380(14) 0.41863(15) 0.84177(14)
C24_7 C 0.19745(15) 0.41685(17) 0.80326(16)
H15_7 H 0.205397 0.432400 0.771426
C25_7 C 0.14999(15) 0.39243(17) 0.81164(16)
H16_7 H 0.125561 0.390996 0.785248
C26_7 C 0.28604(15) 0.44306(14) 0.83293(15)
O1_7 O 0.10899(11) 0.05113(11) 0.86967(11)
O2_4 O 0.14177(9) 0.07022(10) 0.79440(10)
P1_7 P 0.07634(4) 0.33496(4) 0.87264(4)
C41_7 C 0.01569(14) 0.07293(16) 0.78116(19)
H26_7 H 0.027812 0.035012 0.780829
C42_7 C 0.03118(15) 0.10998(16) 0.74441(17)
C43_7 C 0.01121(19) 0.16463(19) 0.74411(18)
H27_7 H 0.020832 0.190434 0.718527
C45_7 C 0.06758(16) 0.09305(17) 0.70368(17)
O9_4 O 0.08490(10) 0.04085(11) 0.70501(11)
O10_4 O 0.07947(15) 0.12495(14) 0.66987(13)
O13_7 O 0.14177(9) 0.92978(10) 0.70560(10)
O15_4 O 0.08490(10) 0.95915(11) 0.79499(11)
O17_4 O 0.07947(15) 0.87505(14) 0.83013(13)
C15_7 C 0.98431(14) 0.42707(16) 0.78116(19)
H10_7 H 0.972188 0.464988 0.780829
C16_7 C 0.96882(15) 0.39002(16) 0.74441(17)
C17_7 C 0.98879(19) 0.33537(19) 0.74411(18)
H11_7 H 0.979168 0.309566 0.718527
C19_7 C 0.93242(16) 0.40695(17) 0.70368(17)
O3_4 O 0.91510(10) 0.45915(11) 0.70501(11)
O4_4 O 0.92053(15) 0.37505(14) 0.66987(13)
C32_7 C 0.87774(14) 0.41553(15) 0.83504(15)
C33_7 C 0.88702(13) 0.35360(14) 0.84480(15)
C34_7 C 0.91776(16) 0.33625(16) 0.88415(17)
H21_7 H 0.932202 0.363550 0.906127
C35_7 C 0.92760(15) 0.27920(15) 0.89167(15)
H22_7 H 0.948628 0.267621 0.918860
C36_7 C 0.90703(13) 0.23918(14) 0.85988(14)
C37_7 C 0.87574(17) 0.25677(16) 0.82114(17)
H23_7 H 0.860314 0.229449 0.799834
C38_7 C 0.86656(15) 0.31381(16) 0.81297(16)
H24_7 H 0.846127 0.325420 0.785358
C39_7 C 0.96292(14) 0.14536(15) 0.81931(17)
C40_7 C 0.98266(15) 0.09051(16) 0.81851(19)
H25_7 H 0.973193 0.064716 0.844156
C44_7 C 0.97718(18) 0.18131(18) 0.78132(18)
H28_7 H 0.963380 0.218521 0.780510
C46_7 C 0.86264(15) 0.13002(15) 0.85788(15)
C47_7 C 0.82635(19) 0.1279(2) 0.89574(17)
H29_7 H 0.834448 0.143027 0.927702
C48_7 C 0.77823(19) 0.1041(2) 0.88756(17)
H30_7 H 0.753553 0.103418 0.913752
C49_7 C 0.76620(14) 0.08137(15) 0.84177(14)
C50_7 C 0.80255(15) 0.08315(17) 0.80326(16)
H31_7 H 0.794603 0.067600 0.771426
C51_7 C 0.85001(15) 0.10757(17) 0.81164(16)
H32_7 H 0.874439 0.109004 0.785248
C52_7 C 0.71396(15) 0.05694(14) 0.83293(15)
O7_7 O 0.89101(11) 0.44887(11) 0.86967(11)
O8_4 O 0.85823(9) 0.42978(10) 0.79440(10)
P2_7 P 0.92366(4) 0.16504(4) 0.87264(4)
O14_4 O 0.91510(10) 0.54085(11) 0.79499(11)
O16_4 O 0.92053(15) 0.62495(14) 0.83013(13)
O13_8 O 0.85823(9) 0.57022(10) 0.70560(10)
C6_8 C 0.12226(14) 0.91553(15) 0.66496(15)
C7_8 C 0.11298(13) 0.85360(14) 0.65520(15)
C8_8 C 0.08224(16) 0.83625(16) 0.61585(17)
H5_8 H 0.067798 0.863550 0.593873
C9_8 C 0.07240(15) 0.77920(15) 0.60833(15)
H6_8 H 0.051372 0.767621 0.581140
C10_8 C 0.09297(13) 0.73918(14) 0.64012(14)
C11_8 C 0.12426(17) 0.75677(16) 0.67886(17)
H7_8 H 0.139686 0.729449 0.700166
C12_8 C 0.13344(15) 0.81381(16) 0.68703(16)
H8_8 H 0.153873 0.825420 0.714642
C13_8 C 0.03708(14) 0.64536(15) 0.68069(17)
C14_8 C 0.01734(15) 0.59051(16) 0.68149(19)
H9_8 H 0.026807 0.564716 0.655844
C18_8 C 0.02282(18) 0.68131(18) 0.71868(18)
H12_8 H 0.036620 0.718521 0.719490
C20_8 C 0.13736(15) 0.63002(15) 0.64212(15)
C21_8 C 0.17365(19) 0.6279(2) 0.60426(17)
H13_8 H 0.165552 0.643027 0.572298
C22_8 C 0.22177(19) 0.6041(2) 0.61244(17)
H14_8 H 0.246447 0.603418 0.586248
C23_8 C 0.23380(14) 0.58137(15) 0.65823(14)
C24_8 C 0.19745(15) 0.58315(17) 0.69674(16)
H15_8 H 0.205397 0.567600 0.728574
C25_8 C 0.14999(15) 0.60757(17) 0.68836(16)
H16_8 H 0.125561 0.609004 0.714752
C26_8 C 0.28604(15) 0.55694(14) 0.66707(15)
O1_8 O 0.10899(11) 0.94887(11) 0.63033(11)
P1_8 P 0.07634(4) 0.66504(4) 0.62736(4)
C41_8 C 0.01569(14) 0.92707(16) 0.71884(19)
H26_8 H 0.027812 0.964988 0.719171
C42_8 C 0.03118(15) 0.89002(16) 0.75559(17)
C43_8 C 0.01121(19) 0.83537(19) 0.75589(18)
H27_8 H 0.020832 0.809566 0.781473
C45_8 C 0.06758(16) 0.90695(17) 0.79632(17)
C15_8 C 0.98431(14) 0.57293(16) 0.71884(19)
H10_8 H 0.972188 0.535012 0.719171
C16_8 C 0.96882(15) 0.60998(16) 0.75559(17)
C17_8 C 0.98879(19) 0.66463(19) 0.75589(18)
H11_8 H 0.979168 0.690434 0.781473
C19_8 C 0.93242(16) 0.59305(17) 0.79632(17)
C32_8 C 0.87774(14) 0.58447(15) 0.66496(15)
C33_8 C 0.88702(13) 0.64640(14) 0.65520(15)
C34_8 C 0.91776(16) 0.66375(16) 0.61585(17)
H21_8 H 0.932202 0.636450 0.593873
C35_8 C 0.92760(15) 0.72080(15) 0.60833(15)
H22_8 H 0.948628 0.732379 0.581140
C36_8 C 0.90703(13) 0.76082(14) 0.64012(14)
C37_8 C 0.87574(17) 0.74323(16) 0.67886(17)
H23_8 H 0.860314 0.770551 0.700166
C38_8 C 0.86656(15) 0.68619(16) 0.68703(16)
H24_8 H 0.846127 0.674580 0.714642
C39_8 C 0.96292(14) 0.85464(15) 0.68069(17)
C40_8 C 0.98266(15) 0.90949(16) 0.68149(19)
H25_8 H 0.973193 0.935284 0.655844
C44_8 C 0.97718(18) 0.81869(18) 0.71868(18)
H28_8 H 0.963380 0.781479 0.719490
C46_8 C 0.86264(15) 0.86998(15) 0.64212(15)
C47_8 C 0.82635(19) 0.8721(2) 0.60426(17)
H29_8 H 0.834448 0.856973 0.572298
C48_8 C 0.77823(19) 0.8959(2) 0.61244(17)
H30_8 H 0.753553 0.896582 0.586248
C49_8 C 0.76620(14) 0.91863(15) 0.65823(14)
C50_8 C 0.80255(15) 0.91685(17) 0.69674(16)
H31_8 H 0.794603 0.932400 0.728574
C51_8 C 0.85001(15) 0.89243(17) 0.68836(16)
H32_8 H 0.874439 0.890996 0.714752
C52_8 C 0.71396(15) 0.94306(14) 0.66707(15)
O7_8 O 0.89101(11) 0.55113(11) 0.63033(11)
P2_8 P 0.92366(4) 0.83496(4) 0.62736(4)
loop_
_geom_bond_atom_site_label_1
_geom_bond_atom_site_label_2
_geom_bond_site_symmetry_1
_geom_bond_site_symmetry_2
Zn1 O2 1_555 1_555
Zn2 N1 1_555 1_555
C1 C2 1_555 1_555
C2 H1 1_555 1_555
C3 H2 1_555 1_555
C4 C3 1_555 1_555
H3 C4 1_555 1_555
C5 C1 1_555 1_555
H4 C5 1_555 1_555
C6 C7 1_555 1_555
C7 C8 1_555 1_555
C8 H5 1_555 1_555
C9 C8 1_555 1_555
H6 C9 1_555 1_555
C10 C9 1_555 1_555
C11 C10 1_555 1_555
H7 C11 1_555 1_555
C12 C7 1_555 1_555
H8 C12 1_555 1_555
C13 C14 1_555 1_555
C14 H9 1_555 1_555
C15 C14 1_555 1_555
H10 C15 1_555 1_555
C16 C15 1_555 1_555
C17 C16 1_555 1_555
H11 C17 1_555 1_555
C18 C13 1_555 1_555
H12 C18 1_555 1_555
C19 C16 1_555 1_555
C20 C21 1_555 1_555
C21 H13 1_555 1_555
C22 C21 1_555 1_555
H14 C22 1_555 1_555
C23 C22 1_555 1_555
C24 C23 1_555 1_555
H15 C24 1_555 1_555
C25 C20 1_555 1_555
H16 C25 1_555 1_555
C26 C23 1_555 1_555
N1 C2 1_555 1_555
O1 Zn2 1_555 1_555
O2 C6 1_555 1_555
O3 C19 1_555 1_555
O4 C19 1_555 1_555
O5 C26 1_555 1_555
O6 C26 1_555 1_555
P1 C10 1_555 1_555
C27 C1 1_555 1_555
C28 C27 1_555 1_555
H17 C28 1_555 1_555
C29 H18 1_555 1_555
C30 C29 1_555 1_555
H19 C30 1_555 1_555
C31 C27 1_555 1_555
H20 C31 1_555 1_555
N2 C28 1_555 1_555
C32 C33 1_555 1_555
C33 C34 1_555 1_555
C34 H21 1_555 1_555
C35 C34 1_555 1_555
H22 C35 1_555 1_555
C36 C35 1_555 1_555
C37 C36 1_555 1_555
H23 C37 1_555 1_555
C38 C33 1_555 1_555
H24 C38 1_555 1_555
C39 C40 1_555 1_555
C40 H25 1_555 1_555
C41 C40 1_555 1_555
H26 C41 1_555 1_555
C42 C41 1_555 1_555
C43 C42 1_555 1_555
H27 C43 1_555 1_555
C44 C39 1_555 1_555
H28 C44 1_555 1_555
C45 C42 1_555 1_555
C46 C47 1_555 1_555
C47 H29 1_555 1_555
C48 C47 1_555 1_555
H30 C48 1_555 1_555
C49 C48 1_555 1_555
C50 C49 1_555 1_555
H31 C50 1_555 1_555
C51 C46 1_555 1_555
H32 C51 1_555 1_555
C52 C49 1_555 1_555
O7 C32 1_555 1_555
O8 C32 1_555 1_555
O9 Zn1 1_555 1_555
O10 C45 1_555 1_555
O11 C52 1_555 1_555
O12 C52 1_555 1_555
P2 C36 1_555 1_555
Zn4 O3 1_555 1_555
Zn5 O6 1_555 1_555
Zn6 O12 1_555 1_555
Zn7 O9 1_555 1_555
Zn8 O3 1_555 1_555
Zn9 N2 1_555 1_555
Zn10 O5 1_555 1_555
Zn11 O11 1_555 1_555
O13 Zn1 1_555 1_555
O15 Zn1 1_555 1_555
O17 Zn2 1_555 1_555
O18 Zn2 1_555 1_555
O20 Zn1 1_555 1_555
O21 Zn1 1_555 1_555
Zn2 O15 1_555 1_555
C3 N1 1_555 1_555
C4 C5 1_555 1_555
C6 O1 1_555 1_555
C11 C12 1_555 1_555
C13 P1 1_555 1_555
C17 C18 1_555 1_555
C20 P1 1_555 1_555
C24 C25 1_555 1_555
O4 Zn8 1_555 1_555
C29 N2 1_555 1_555
C30 C31 1_555 1_555
C37 C38 1_555 1_555
C39 P2 1_555 1_555
C43 C44 1_555 1_555
C45 O9 1_555 1_555
C46 P2 1_555 1_555
C50 C51 1_555 1_555
O8 Zn4 1_555 1_555
O10 Zn7 1_555 1_555
N3 Zn3 1_555 1_555
O14 Zn3 1_555 1_555
O16 Zn3 1_555 1_555
O19 Zn3 1_555 1_555
Zn4_2 O14 1_555 1_555
C28_2 C27_2 1_555 1_555
C29_2 H18_2 1_555 1_555
C30_2 C29_2 1_555 1_555
H19_2 C30_2 1_555 1_555
C31_2 C27_2 1_555 1_555
H20_2 C31_2 1_555 1_555
N2_2 C28_2 1_555 1_555
Zn9_2 N2_2 1_555 1_555
O20_2 Zn4 1_555 1_555
C29_2 N2_2 1_555 1_555
C30_2 C31_2 1_555 1_555
C1_2 C2_2 1_555 1_555
C3_2 H2_2 1_555 1_555
C4_2 C3_2 1_555 1_555
H3_2 C4_2 1_555 1_555
C5_2 C1_2 1_555 1_555
H4_2 C5_2 1_555 1_555
N3 C2_2 1_555 1_555
O13_2 Zn4_2 1_555 1_555
O21_2 Zn4_2 1_555 1_555
C3_2 N3 1_555 1_555
C4_2 C5_2 1_555 1_555
N3_2 Zn8 1_555 1_555
O19_2 Zn8 1_555 1_555
H4_3 C5_3 1_555 1_555
C28_3 C27_3 1_555 1_555
H17_3 C28_3 1_555 1_555
C29_3 H18_3 1_555 1_555
C30_3 C29_3 1_555 1_555
N2_3 C28_3 1_555 1_555
Zn9_3 N2_3 1_555 1_555
C29_3 N2_3 1_555 1_555
Zn7 N1_2 1_555 1_555
C1_3 C2_3 1_555 1_555
C2_3 H1_3 1_555 1_555
C3_3 H2_3 1_555 1_555
C4_3 C3_3 1_555 1_555
C6_2 C7_2 1_555 1_555
C7_2 C8_2 1_555 1_555
C8_2 H5_2 1_555 1_555
C9_2 C8_2 1_555 1_555
H6_2 C9_2 1_555 1_555
C10_2 C9_2 1_555 1_555
C11_2 C10_2 1_555 1_555
H7_2 C11_2 1_555 1_555
C12_2 C7_2 1_555 1_555
H8_2 C12_2 1_555 1_555
C13_2 C14_2 1_555 1_555
C14_2 H9_2 1_555 1_555
C15_2 C14_2 1_555 1_555
H10_2 C15_2 1_555 1_555
C16_2 C15_2 1_555 1_555
C17_2 C16_2 1_555 1_555
H11_2 C17_2 1_555 1_555
C18_2 C13_2 1_555 1_555
H12_2 C18_2 1_555 1_555
C19_2 C16_2 1_555 1_555
C20_2 C21_2 1_555 1_555
C21_2 H13_2 1_555 1_555
C22_2 C21_2 1_555 1_555
H14_2 C22_2 1_555 1_555
C23_2 C22_2 1_555 1_555
C24_2 C23_2 1_555 1_555
H15_2 C24_2 1_555 1_555
C25_2 C20_2 1_555 1_555
H16_2 C25_2 1_555 1_555
C26_2 C23_2 1_555 1_555
N1_2 C2_3 1_555 1_555
O1_2 Zn7 1_555 1_555
O13 C6_2 1_555 1_555
O14 C19_2 1_555 1_555
O16 C19_2 1_555 1_555
O5_2 C26_2 1_555 1_555
O6_2 C26_2 1_555 1_555
P1_2 C10_2 1_555 1_555
H20_3 C31_3 1_555 1_555
C32_2 C33_2 1_555 1_555
C33_2 C34_2 1_555 1_555
C34_2 H21_2 1_555 1_555
C35_2 C34_2 1_555 1_555
H22_2 C35_2 1_555 1_555
C36_2 C35_2 1_555 1_555
C37_2 C36_2 1_555 1_555
H23_2 C37_2 1_555 1_555
C38_2 C33_2 1_555 1_555
H24_2 C38_2 1_555 1_555
C39_2 C40_2 1_555 1_555
C40_2 H25_2 1_555 1_555
C41_2 C40_2 1_555 1_555
H26_2 C41_2 1_555 1_555
C42_2 C41_2 1_555 1_555
C43_2 C42_2 1_555 1_555
H27_2 C43_2 1_555 1_555
C44_2 C39_2 1_555 1_555
H28_2 C44_2 1_555 1_555
C45_2 C42_2 1_555 1_555
C46_2 C47_2 1_555 1_555
C47_2 H29_2 1_555 1_555
C48_2 C47_2 1_555 1_555
H30_2 C48_2 1_555 1_555
C49_2 C48_2 1_555 1_555
C50_2 C49_2 1_555 1_555
H31_2 C50_2 1_555 1_555
C51_2 C46_2 1_555 1_555
H32_2 C51_2 1_555 1_555
C52_2 C49_2 1_555 1_555
O7_2 C32_2 1_555 1_555
O13_2 C32_2 1_555 1_555
O17 C45_2 1_555 1_555
O11_2 C52_2 1_555 1_555
O12_2 C52_2 1_555 1_555
P2_2 C36_2 1_555 1_555
Zn5_2 O6_2 1_555 1_555
Zn6 O12_2 1_555 1_555
Zn10_2 O5_2 1_555 1_555
Zn11_2 O11_2 1_555 1_555
O18_2 Zn7 1_555 1_555
C3_3 N1_2 1_555 1_555
C6_2 O1_2 1_555 1_555
C11_2 C12_2 1_555 1_555
C13_2 P1_2 1_555 1_555
C17_2 C18_2 1_555 1_555
C20_2 P1_2 1_555 1_555
C24_2 C25_2 1_555 1_555
C37_2 C38_2 1_555 1_555
C39_2 P2_2 1_555 1_555
C43_2 C44_2 1_555 1_555
C45_2 O15 1_555 1_555
C46_2 P2_2 1_555 1_555
C50_2 C51_2 1_555 1_555
H4_4 C5_4 1_555 1_555
C1_4 C2_4 1_555 1_555
C3_4 H2_4 1_555 1_555
C4_4 C3_4 1_555 1_555
N3_2 C2_4 1_555 1_555
C3_4 N3_2 1_555 1_555
C28_4 C27_4 1_555 1_555
C29_4 H18_4 1_555 1_555
C30_4 C29_4 1_555 1_555
N2_4 C28_4 1_555 1_555
Zn9_4 N2_4 1_555 1_555
C29_4 N2_4 1_555 1_555
H20_4 C31_4 1_555 1_555
H10_3 C15_3 1_555 1_555
C16_3 C15_3 1_555 1_555
C17_3 C16_3 1_555 1_555
H11_3 C17_3 1_555 1_555
C19_3 C16_3 1_555 1_555
O3_2 C19_3 1_555 1_555
O4_2 C19_3 1_555 1_555
H20_5 C31_5 1_555 1_555
Zn3_2 O7_3 1_555 1_555
C32_3 C33_3 1_555 1_555
C33_3 C34_3 1_555 1_555
C34_3 H21_3 1_555 1_555
C35_3 C34_3 1_555 1_555
H22_3 C35_3 1_555 1_555
C36_3 C35_3 1_555 1_555
C37_3 C36_3 1_555 1_555
H23_3 C37_3 1_555 1_555
C38_3 C33_3 1_555 1_555
H24_3 C38_3 1_555 1_555
C39_3 C40_3 1_555 1_555
C40_3 H25_3 1_555 1_555
C44_3 C39_3 1_555 1_555
H28_3 C44_3 1_555 1_555
C46_3 C47_3 1_555 1_555
C47_3 H29_3 1_555 1_555
C48_3 C47_3 1_555 1_555
H30_3 C48_3 1_555 1_555
C49_3 C48_3 1_555 1_555
C50_3 C49_3 1_555 1_555
H31_3 C50_3 1_555 1_555
C51_3 C46_3 1_555 1_555
H32_3 C51_3 1_555 1_555
C52_3 C49_3 1_555 1_555
O7_3 C32_3 1_555 1_555
O8_2 C32_3 1_555 1_555
O11_3 C52_3 1_555 1_555
O12_3 C52_3 1_555 1_555
P2_3 C36_3 1_555 1_555
Zn4_3 O3_2 1_555 1_555
Zn6_3 O12_3 1_555 1_555
Zn8_2 O3_2 1_555 1_555
Zn9_4 O11_3 1_555 1_555
N3_3 Zn3_2 1_555 1_555
O14_2 Zn3_2 1_555 1_555
O16_2 Zn3_2 1_555 1_555
O19_3 Zn3_2 1_555 1_555
O4_2 Zn8_2 1_555 1_555
C37_3 C38_3 1_555 1_555
C39_3 P2_3 1_555 1_555
C46_3 P2_3 1_555 1_555
C50_3 C51_3 1_555 1_555
O8_2 Zn4_3 1_555 1_555
Zn4_3 O14_2 1_555 1_555
C28_5 C27_5 1_555 1_555
C29_5 H18_5 1_555 1_555
C30_5 C29_5 1_555 1_555
N2_5 C28_5 1_555 1_555
Zn10_2 N2_5 1_555 1_555
C29_5 N2_5 1_555 1_555
Zn2_2 N1_3 1_555 1_555
C1_5 C2_5 1_555 1_555
C3_5 H2_5 1_555 1_555
C4_5 C3_5 1_555 1_555
N1_3 C2_5 1_555 1_555
O13_3 Zn1_2 1_555 1_555
O15_2 Zn1_2 1_555 1_555
O17_2 Zn2_2 1_555 1_555
O18_3 Zn2_2 1_555 1_555
O21_3 Zn1_2 1_555 1_555
Zn2_2 O15_2 1_555 1_555
C3_5 N1_3 1_555 1_555
H4_5 C5_5 1_555 1_555
Zn1_3 O2_2 1_555 1_555
C6_3 C7_3 1_555 1_555
C7_3 C8_3 1_555 1_555
C8_3 H5_3 1_555 1_555
C9_3 C8_3 1_555 1_555
H6_3 C9_3 1_555 1_555
C10_3 C9_3 1_555 1_555
C11_3 C10_3 1_555 1_555
H7_3 C11_3 1_555 1_555
C12_3 C7_3 1_555 1_555
H8_3 C12_3 1_555 1_555
C13_3 C14_3 1_555 1_555
C14_3 H9_3 1_555 1_555
C18_3 C13_3 1_555 1_555
H12_3 C18_3 1_555 1_555
C20_3 C21_3 1_555 1_555
C21_3 H13_3 1_555 1_555
C22_3 C21_3 1_555 1_555
H14_3 C22_3 1_555 1_555
C23_3 C22_3 1_555 1_555
C24_3 C23_3 1_555 1_555
H15_3 C24_3 1_555 1_555
C25_3 C20_3 1_555 1_555
H16_3 C25_3 1_555 1_555
C26_3 C23_3 1_555 1_555
O2_2 C6_3 1_555 1_555
O5_3 C26_3 1_555 1_555
O6_3 C26_3 1_555 1_555
P1_3 C10_3 1_555 1_555
H26_3 C41_3 1_555 1_555
C42_3 C41_3 1_555 1_555
C43_3 C42_3 1_555 1_555
H27_3 C43_3 1_555 1_555
C45_3 C42_3 1_555 1_555
O9_2 Zn1_3 1_555 1_555
O10_2 C45_3 1_555 1_555
Zn5_3 O6_3 1_555 1_555
Zn7_2 O9_2 1_555 1_555
Zn9_3 O5_3 1_555 1_555
O20_3 Zn1_3 1_555 1_555
C6_3 O1_3 1_555 1_555
C11_3 C12_3 1_555 1_555
C13_3 P1_3 1_555 1_555
C20_3 P1_3 1_555 1_555
C24_3 C25_3 1_555 1_555
C45_3 O9_2 1_555 1_555
O10_2 Zn7_2 1_555 1_555
C1_6 C2_6 1_555 1_555
C2_6 H1_6 1_555 1_555
C3_6 H2_6 1_555 1_555
C4_6 C3_6 1_555 1_555
N3_3 C2_6 1_555 1_555
O13_4 Zn4_3 1_555 1_555
O20_4 Zn4_3 1_555 1_555
O21_4 Zn4_3 1_555 1_555
C3_6 N3_3 1_555 1_555
H4_6 C5_6 1_555 1_555
H20_6 C31_6 1_555 1_555
C28_6 C27_6 1_555 1_555
H17_6 C28_6 1_555 1_555
C29_6 H18_6 1_555 1_555
C30_6 C29_6 1_555 1_555
N2_6 C28_6 1_555 1_555
Zn11_2 N2_6 1_555 1_555
C29_6 N2_6 1_555 1_555
H10_4 C15_4 1_555 1_555
C16_4 C15_4 1_555 1_555
C17_4 C16_4 1_555 1_555
H11_4 C17_4 1_555 1_555
C19_4 C16_4 1_555 1_555
O14_2 C19_4 1_555 1_555
O16_2 C19_4 1_555 1_555
C28_7 C27_7 1_555 1_555
C29_7 H18_7 1_555 1_555
C30_7 C29_7 1_555 1_555
H19_7 C30_7 1_555 1_555
C31_7 C27_7 1_555 1_555
H20_7 C31_7 1_555 1_555
N2_7 C28_7 1_555 1_555
Zn8_2 O7_4 1_555 1_555
C32_4 C33_4 1_555 1_555
C33_4 C34_4 1_555 1_555
C34_4 H21_4 1_555 1_555
C35_4 C34_4 1_555 1_555
H22_4 C35_4 1_555 1_555
C36_4 C35_4 1_555 1_555
C37_4 C36_4 1_555 1_555
H23_4 C37_4 1_555 1_555
C38_4 C33_4 1_555 1_555
H24_4 C38_4 1_555 1_555
C39_4 C40_4 1_555 1_555
C40_4 H25_4 1_555 1_555
C44_4 C39_4 1_555 1_555
H28_4 C44_4 1_555 1_555
C46_4 C47_4 1_555 1_555
C47_4 H29_4 1_555 1_555
C48_4 C47_4 1_555 1_555
H30_4 C48_4 1_555 1_555
C49_4 C48_4 1_555 1_555
C50_4 C49_4 1_555 1_555
H31_4 C50_4 1_555 1_555
C51_4 C46_4 1_555 1_555
H32_4 C51_4 1_555 1_555
C52_4 C49_4 1_555 1_555
O7_4 C32_4 1_555 1_555
O13_4 C32_4 1_555 1_555
O11_4 C52_4 1_555 1_555
O12_4 C52_4 1_555 1_555
P2_4 C36_4 1_555 1_555
Zn6_2 O12_4 1_555 1_555
Zn10 N2_7 1_555 1_555
Zn9_2 O11_4 1_555 1_555
N3_4 Zn8_2 1_555 1_555
O19_4 Zn8_2 1_555 1_555
C29_7 N2_7 1_555 1_555
C30_7 C31_7 1_555 1_555
C37_4 C38_4 1_555 1_555
C39_4 P2_4 1_555 1_555
C46_4 P2_4 1_555 1_555
C50_4 C51_4 1_555 1_555
C6_4 C7_4 1_555 1_555
C7_4 C8_4 1_555 1_555
C8_4 H5_4 1_555 1_555
C9_4 C8_4 1_555 1_555
H6_4 C9_4 1_555 1_555
C10_4 C9_4 1_555 1_555
C11_4 C10_4 1_555 1_555
H7_4 C11_4 1_555 1_555
C12_4 C7_4 1_555 1_555
H8_4 C12_4 1_555 1_555
C13_4 C14_4 1_555 1_555
C14_4 H9_4 1_555 1_555
C18_4 C13_4 1_555 1_555
H12_4 C18_4 1_555 1_555
C20_4 C21_4 1_555 1_555
C21_4 H13_4 1_555 1_555
C22_4 C21_4 1_555 1_555
H14_4 C22_4 1_555 1_555
C23_4 C22_4 1_555 1_555
C24_4 C23_4 1_555 1_555
H15_4 C24_4 1_555 1_555
C25_4 C20_4 1_555 1_555
H16_4 C25_4 1_555 1_555
C26_4 C23_4 1_555 1_555
O13_3 C6_4 1_555 1_555
O5_4 C26_4 1_555 1_555
O6_4 C26_4 1_555 1_555
P1_4 C10_4 1_555 1_555
H26_4 C41_4 1_555 1_555
C42_4 C41_4 1_555 1_555
C43_4 C42_4 1_555 1_555
H27_4 C43_4 1_555 1_555
C45_4 C42_4 1_555 1_555
O17_2 C45_4 1_555 1_555
Zn5_3 O6_4 1_555 1_555
Zn9 O5_4 1_555 1_555
C6_4 O1_4 1_555 1_555
C11_4 C12_4 1_555 1_555
C13_4 P1_4 1_555 1_555
C20_4 P1_4 1_555 1_555
C24_4 C25_4 1_555 1_555
C45_4 O15_2 1_555 1_555
Zn7_2 N1_4 1_555 1_555
C1_7 C2_7 1_555 1_555
C3_7 H2_7 1_555 1_555
C4_7 C3_7 1_555 1_555
H3_7 C4_7 1_555 1_555
C5_7 C1_7 1_555 1_555
H4_7 C5_7 1_555 1_555
N1_4 C2_7 1_555 1_555
O18_4 Zn7_2 1_555 1_555
C3_7 N1_4 1_555 1_555
C4_7 C5_7 1_555 1_555
C1_8 C2_8 1_555 1_555
C2_8 H1_8 1_555 1_555
C3_8 H2_8 1_555 1_555
C4_8 C3_8 1_555 1_555
H3_8 C4_8 1_555 1_555
C5_8 C1_8 1_555 1_555
H4_8 C5_8 1_555 1_555
N3_4 C2_8 1_555 1_555
C3_8 N3_4 1_555 1_555
C4_8 C5_8 1_555 1_555
C28_8 C27_8 1_555 1_555
H17_8 C28_8 1_555 1_555
C29_8 H18_8 1_555 1_555
C30_8 C29_8 1_555 1_555
H19_8 C30_8 1_555 1_555
C31_8 C27_8 1_555 1_555
H20_8 C31_8 1_555 1_555
N2_8 C28_8 1_555 1_555
Zn11 N2_8 1_555 1_555
C29_8 N2_8 1_555 1_555
C30_8 C31_8 1_555 1_555
O14_3 Zn9_2 1_555 1_555
O16_3 Zn9_2 1_555 1_555
Zn6_2 O14_3 1_555 1_555
Zn5_3 O2_3 1_555 1_555
C6_5 C7_5 1_555 1_555
C7_5 C8_5 1_555 1_555
C8_5 H5_5 1_555 1_555
C9_5 C8_5 1_555 1_555
H6_5 C9_5 1_555 1_555
C10_5 C9_5 1_555 1_555
C11_5 C10_5 1_555 1_555
H7_5 C11_5 1_555 1_555
C12_5 C7_5 1_555 1_555
H8_5 C12_5 1_555 1_555
C13_5 C14_5 1_555 1_555
C14_5 H9_5 1_555 1_555
C15_5 C14_5 1_555 1_555
H10_5 C15_5 1_555 1_555
C16_5 C15_5 1_555 1_555
C17_5 C16_5 1_555 1_555
H11_5 C17_5 1_555 1_555
C18_5 C13_5 1_555 1_555
H12_5 C18_5 1_555 1_555
C19_5 C16_5 1_555 1_555
C20_5 C21_5 1_555 1_555
C21_5 H13_5 1_555 1_555
C22_5 C21_5 1_555 1_555
H14_5 C22_5 1_555 1_555
C23_5 C22_5 1_555 1_555
C24_5 C23_5 1_555 1_555
H15_5 C24_5 1_555 1_555
C25_5 C20_5 1_555 1_555
H16_5 C25_5 1_555 1_555
C26_5 C23_5 1_555 1_555
O1_5 Zn9 1_555 1_555
O2_3 C6_5 1_555 1_555
O3_3 C19_5 1_555 1_555
O4_3 C19_5 1_555 1_555
O18_4 C26_5 1_555 1_555
O20_3 C26_5 1_555 1_555
P1_5 C10_5 1_555 1_555
C32_5 C33_5 1_555 1_555
C33_5 C34_5 1_555 1_555
C34_5 H21_5 1_555 1_555
C35_5 C34_5 1_555 1_555
H22_5 C35_5 1_555 1_555
C36_5 C35_5 1_555 1_555
C37_5 C36_5 1_555 1_555
H23_5 C37_5 1_555 1_555
C38_5 C33_5 1_555 1_555
H24_5 C38_5 1_555 1_555
C39_5 C40_5 1_555 1_555
C40_5 H25_5 1_555 1_555
C41_5 C40_5 1_555 1_555
H26_5 C41_5 1_555 1_555
C42_5 C41_5 1_555 1_555
C43_5 C42_5 1_555 1_555
H27_5 C43_5 1_555 1_555
C44_5 C39_5 1_555 1_555
H28_5 C44_5 1_555 1_555
C45_5 C42_5 1_555 1_555
C46_5 C47_5 1_555 1_555
C47_5 H29_5 1_555 1_555
C48_5 C47_5 1_555 1_555
H30_5 C48_5 1_555 1_555
C49_5 C48_5 1_555 1_555
C50_5 C49_5 1_555 1_555
H31_5 C50_5 1_555 1_555
C51_5 C46_5 1_555 1_555
H32_5 C51_5 1_555 1_555
C52_5 C49_5 1_555 1_555
O7_5 C32_5 1_555 1_555
O8_3 C32_5 1_555 1_555
O9_3 Zn5_3 1_555 1_555
O10_3 C45_5 1_555 1_555
O19_4 C52_5 1_555 1_555
O20_4 C52_5 1_555 1_555
P2_5 C36_5 1_555 1_555
Zn6_3 O3_3 1_555 1_555
Zn9_3 O9_3 1_555 1_555
Zn9_4 O3_3 1_555 1_555
O13_5 Zn5_3 1_555 1_555
O15_3 Zn5_3 1_555 1_555
O17_3 Zn9 1_555 1_555
Zn9 O15_3 1_555 1_555
C6_5 O1_5 1_555 1_555
C11_5 C12_5 1_555 1_555
C13_5 P1_5 1_555 1_555
C17_5 C18_5 1_555 1_555
C20_5 P1_5 1_555 1_555
C24_5 C25_5 1_555 1_555
O4_3 Zn9_4 1_555 1_555
C37_5 C38_5 1_555 1_555
C39_5 P2_5 1_555 1_555
C43_5 C44_5 1_555 1_555
C45_5 O9_3 1_555 1_555
C46_5 P2_5 1_555 1_555
C50_5 C51_5 1_555 1_555
O8_3 Zn6_3 1_555 1_555
O10_3 Zn9_3 1_555 1_555
O13_6 Zn6_2 1_555 1_555
C6_6 C7_6 1_555 1_555
C7_6 C8_6 1_555 1_555
C8_6 H5_6 1_555 1_555
C9_6 C8_6 1_555 1_555
H6_6 C9_6 1_555 1_555
C10_6 C9_6 1_555 1_555
C11_6 C10_6 1_555 1_555
H7_6 C11_6 1_555 1_555
C12_6 C7_6 1_555 1_555
H8_6 C12_6 1_555 1_555
C13_6 C14_6 1_555 1_555
C14_6 H9_6 1_555 1_555
C15_6 C14_6 1_555 1_555
H10_6 C15_6 1_555 1_555
C16_6 C15_6 1_555 1_555
C17_6 C16_6 1_555 1_555
H11_6 C17_6 1_555 1_555
C18_6 C13_6 1_555 1_555
H12_6 C18_6 1_555 1_555
C19_6 C16_6 1_555 1_555
C20_6 C21_6 1_555 1_555
C21_6 H13_6 1_555 1_555
C22_6 C21_6 1_555 1_555
H14_6 C22_6 1_555 1_555
C23_6 C22_6 1_555 1_555
C24_6 C23_6 1_555 1_555
H15_6 C24_6 1_555 1_555
C25_6 C20_6 1_555 1_555
H16_6 C25_6 1_555 1_555
C26_6 C23_6 1_555 1_555
O1_6 Zn9_3 1_555 1_555
O13_5 C6_6 1_555 1_555
O14_3 C19_6 1_555 1_555
O16_3 C19_6 1_555 1_555
O18_3 C26_6 1_555 1_555
O21_3 C26_6 1_555 1_555
P1_6 C10_6 1_555 1_555
C32_6 C33_6 1_555 1_555
C33_6 C34_6 1_555 1_555
C34_6 H21_6 1_555 1_555
C35_6 C34_6 1_555 1_555
H22_6 C35_6 1_555 1_555
C36_6 C35_6 1_555 1_555
C37_6 C36_6 1_555 1_555
H23_6 C37_6 1_555 1_555
C38_6 C33_6 1_555 1_555
H24_6 C38_6 1_555 1_555
C39_6 C40_6 1_555 1_555
C40_6 H25_6 1_555 1_555
C41_6 C40_6 1_555 1_555
H26_6 C41_6 1_555 1_555
C42_6 C41_6 1_555 1_555
C43_6 C42_6 1_555 1_555
H27_6 C43_6 1_555 1_555
C44_6 C39_6 1_555 1_555
H28_6 C44_6 1_555 1_555
C45_6 C42_6 1_555 1_555
C46_6 C47_6 1_555 1_555
C47_6 H29_6 1_555 1_555
C48_6 C47_6 1_555 1_555
H30_6 C48_6 1_555 1_555
C49_6 C48_6 1_555 1_555
C50_6 C49_6 1_555 1_555
H31_6 C50_6 1_555 1_555
C51_6 C46_6 1_555 1_555
H32_6 C51_6 1_555 1_555
C52_6 C49_6 1_555 1_555
O7_6 C32_6 1_555 1_555
O13_6 C32_6 1_555 1_555
O17_3 C45_6 1_555 1_555
O19_3 C52_6 1_555 1_555
O21_4 C52_6 1_555 1_555
P2_6 C36_6 1_555 1_555
C6_6 O1_6 1_555 1_555
C11_6 C12_6 1_555 1_555
C13_6 P1_6 1_555 1_555
C17_6 C18_6 1_555 1_555
C20_6 P1_6 1_555 1_555
C24_6 C25_6 1_555 1_555
C37_6 C38_6 1_555 1_555
C39_6 P2_6 1_555 1_555
C43_6 C44_6 1_555 1_555
C45_6 O15_3 1_555 1_555
C46_6 P2_6 1_555 1_555
C50_6 C51_6 1_555 1_555
Zn5 O2_4 1_555 1_555
C6_7 C7_7 1_555 1_555
C7_7 C8_7 1_555 1_555
C8_7 H5_7 1_555 1_555
C9_7 C8_7 1_555 1_555
H6_7 C9_7 1_555 1_555
C10_7 C9_7 1_555 1_555
C11_7 C10_7 1_555 1_555
H7_7 C11_7 1_555 1_555
C12_7 C7_7 1_555 1_555
H8_7 C12_7 1_555 1_555
C13_7 C14_7 1_555 1_555
C14_7 H9_7 1_555 1_555
C18_7 C13_7 1_555 1_555
H12_7 C18_7 1_555 1_555
C20_7 C21_7 1_555 1_555
C21_7 H13_7 1_555 1_555
C22_7 C21_7 1_555 1_555
H14_7 C22_7 1_555 1_555
C23_7 C22_7 1_555 1_555
C24_7 C23_7 1_555 1_555
H15_7 C24_7 1_555 1_555
C25_7 C20_7 1_555 1_555
H16_7 C25_7 1_555 1_555
C26_7 C23_7 1_555 1_555
O2_4 C6_7 1_555 1_555
O18_2 C26_7 1_555 1_555
O20 C26_7 1_555 1_555
P1_7 C10_7 1_555 1_555
H26_7 C41_7 1_555 1_555
C42_7 C41_7 1_555 1_555
C43_7 C42_7 1_555 1_555
H27_7 C43_7 1_555 1_555
C45_7 C42_7 1_555 1_555
O9_4 Zn5 1_555 1_555
O10_4 C45_7 1_555 1_555
Zn10 O9_4 1_555 1_555
C6_7 O1_7 1_555 1_555
C11_7 C12_7 1_555 1_555
C13_7 P1_7 1_555 1_555
C20_7 P1_7 1_555 1_555
C24_7 C25_7 1_555 1_555
C45_7 O9_4 1_555 1_555
O10_4 Zn10 1_555 1_555
O13_7 Zn5_2 1_555 1_555
O15_4 Zn5_2 1_555 1_555
O17_4 Zn10_2 1_555 1_555
Zn10_2 O15_4 1_555 1_555
H10_7 C15_7 1_555 1_555
C16_7 C15_7 1_555 1_555
C17_7 C16_7 1_555 1_555
H11_7 C17_7 1_555 1_555
C19_7 C16_7 1_555 1_555
O3_4 C19_7 1_555 1_555
O4_4 C19_7 1_555 1_555
Zn11_2 O7_7 1_555 1_555
C32_7 C33_7 1_555 1_555
C33_7 C34_7 1_555 1_555
C34_7 H21_7 1_555 1_555
C35_7 C34_7 1_555 1_555
H22_7 C35_7 1_555 1_555
C36_7 C35_7 1_555 1_555
C37_7 C36_7 1_555 1_555
H23_7 C37_7 1_555 1_555
C38_7 C33_7 1_555 1_555
H24_7 C38_7 1_555 1_555
C39_7 C40_7 1_555 1_555
C40_7 H25_7 1_555 1_555
C44_7 C39_7 1_555 1_555
H28_7 C44_7 1_555 1_555
C46_7 C47_7 1_555 1_555
C47_7 H29_7 1_555 1_555
C48_7 C47_7 1_555 1_555
H30_7 C48_7 1_555 1_555
C49_7 C48_7 1_555 1_555
C50_7 C49_7 1_555 1_555
H31_7 C50_7 1_555 1_555
C51_7 C46_7 1_555 1_555
H32_7 C51_7 1_555 1_555
C52_7 C49_7 1_555 1_555
O7_7 C32_7 1_555 1_555
O8_4 C32_7 1_555 1_555
O19_2 C52_7 1_555 1_555
O20_2 C52_7 1_555 1_555
P2_7 C36_7 1_555 1_555
Zn6 O3_4 1_555 1_555
Zn11 O3_4 1_555 1_555
O14_4 Zn11_2 1_555 1_555
O16_4 Zn11_2 1_555 1_555
O4_4 Zn11 1_555 1_555
C37_7 C38_7 1_555 1_555
C39_7 P2_7 1_555 1_555
C46_7 P2_7 1_555 1_555
C50_7 C51_7 1_555 1_555
O8_4 Zn6 1_555 1_555
Zn6 O14_4 1_555 1_555
O13_8 Zn6 1_555 1_555
C6_8 C7_8 1_555 1_555
C7_8 C8_8 1_555 1_555
C8_8 H5_8 1_555 1_555
C9_8 C8_8 1_555 1_555
H6_8 C9_8 1_555 1_555
C10_8 C9_8 1_555 1_555
C11_8 C10_8 1_555 1_555
H7_8 C11_8 1_555 1_555
C12_8 C7_8 1_555 1_555
H8_8 C12_8 1_555 1_555
C13_8 C14_8 1_555 1_555
C14_8 H9_8 1_555 1_555
C18_8 C13_8 1_555 1_555
H12_8 C18_8 1_555 1_555
C20_8 C21_8 1_555 1_555
C21_8 H13_8 1_555 1_555
C22_8 C21_8 1_555 1_555
H14_8 C22_8 1_555 1_555
C23_8 C22_8 1_555 1_555
C24_8 C23_8 1_555 1_555
H15_8 C24_8 1_555 1_555
C25_8 C20_8 1_555 1_555
H16_8 C25_8 1_555 1_555
C26_8 C23_8 1_555 1_555
O13_7 C6_8 1_555 1_555
O18 C26_8 1_555 1_555
O21 C26_8 1_555 1_555
P1_8 C10_8 1_555 1_555
H26_8 C41_8 1_555 1_555
C42_8 C41_8 1_555 1_555
C43_8 C42_8 1_555 1_555
H27_8 C43_8 1_555 1_555
C45_8 C42_8 1_555 1_555
O17_4 C45_8 1_555 1_555
C6_8 O1_8 1_555 1_555
C11_8 C12_8 1_555 1_555
C13_8 P1_8 1_555 1_555
C20_8 P1_8 1_555 1_555
C24_8 C25_8 1_555 1_555
C45_8 O15_4 1_555 1_555
H10_8 C15_8 1_555 1_555
C16_8 C15_8 1_555 1_555
C17_8 C16_8 1_555 1_555
H11_8 C17_8 1_555 1_555
C19_8 C16_8 1_555 1_555
O14_4 C19_8 1_555 1_555
O16_4 C19_8 1_555 1_555
Zn11 O7_8 1_555 1_555
C32_8 C33_8 1_555 1_555
C33_8 C34_8 1_555 1_555
C34_8 H21_8 1_555 1_555
C35_8 C34_8 1_555 1_555
H22_8 C35_8 1_555 1_555
C36_8 C35_8 1_555 1_555
C37_8 C36_8 1_555 1_555
H23_8 C37_8 1_555 1_555
C38_8 C33_8 1_555 1_555
H24_8 C38_8 1_555 1_555
C39_8 C40_8 1_555 1_555
C40_8 H25_8 1_555 1_555
C44_8 C39_8 1_555 1_555
H28_8 C44_8 1_555 1_555
C46_8 C47_8 1_555 1_555
C47_8 H29_8 1_555 1_555
C48_8 C47_8 1_555 1_555
H30_8 C48_8 1_555 1_555
C49_8 C48_8 1_555 1_555
C50_8 C49_8 1_555 1_555
H31_8 C50_8 1_555 1_555
C51_8 C46_8 1_555 1_555
H32_8 C51_8 1_555 1_555
C52_8 C49_8 1_555 1_555
O7_8 C32_8 1_555 1_555
O13_8 C32_8 1_555 1_555
O19 C52_8 1_555 1_555
O21_2 C52_8 1_555 1_555
P2_8 C36_8 1_555 1_555
C37_8 C38_8 1_555 1_555
C39_8 P2_8 1_555 1_555
C46_8 P2_8 1_555 1_555
C50_8 C51_8 1_555 1_555

#END
