
###############################################################################
#
# This file contains modified crystal structure data generated from the
# MOF subset of the Cambridge Structural Database (CSD) v543 
# hosted by the Cambridge Crystallographic Data Centre (CCDC).
#
# This work is licensed under the Creative Commons
# Attribution-NonCommercial-ShareAlike 4.0 International License.
# To view a copy of this license, visit
# http://creativecommons.org/licenses/by-nc-sa/4.0/
# or send a letter to
# Creative Commons, PO Box 1866, Mountain View, CA 94042, USA.
#
# CIF created using the CSD Python API on 29 September 2022
# The structure has been converted into the P1 space group
# The structure has a 3D framework
# The original CSD entry QAQNOO01 is in the trigonal crystal system
# The original CSD entry QAQNOO01 is in a Sohncke space group
# The framework has been calculated to contain at least 10.0% void space
# The void calculation uses a probe of radius 1.32A, grid spacing 0.4
# H atom positions have been added when not included in the experimental data
#
###############################################################################

data_QAQNOO01
_chemical_formula_moiety         '(C180 H216 Cu12 N36 Ni6 O60)n'
_symmetry_cell_setting           triclinic
_symmetry_space_group_name_H-M   'P 1'
_symmetry_Int_Tables_number      1
_space_group_name_Hall           'P 1'
loop_
_symmetry_equiv_pos_site_id
_symmetry_equiv_pos_as_xyz
1 x,y,z
_cell_length_a                   19.6993(13)
_cell_length_b                   19.6993(13)
_cell_length_c                   29.2983(17)
_cell_angle_alpha                90
_cell_angle_beta                 90
_cell_angle_gamma                120
_cell_volume                     9846.34
loop_
_atom_site_label
_atom_site_type_symbol
_atom_site_fract_x
_atom_site_fract_y
_atom_site_fract_z
Cu1 Cu 0.36299(7) 0.67128(7) 0.66925(3)
O1 O 0.3109(4) 0.7032(4) 0.62318(17)
O2 O 0.2569(4) 0.6662(4) 0.55285(18)
O3 O 0.2906(4) 0.5437(4) 0.55542(17)
N1 N 0.3401(5) 0.5893(5) 0.6269(2)
C1 C 0.3091(5) 0.5937(6) 0.5904(3)
C2 C 0.2858(6) 0.6574(5) 0.5875(3)
C3 C 0.4209(6) 0.5697(7) 0.6785(3)
C4 C 0.3745(7) 0.5372(7) 0.6358(3)
H1 H 0.4087 0.5396 0.6099
O4 O 0.4276(4) 0.6311(4) 0.69856(17)
O5 O 0.4544(4) 0.5326(4) 0.69398(19)
Cu2 Cu 0.24384(7) 0.56524(8) 0.50189(3)
O6 O 0.3456(4) 0.6164(4) 0.46650(17)
O7 O 0.2378(3) 0.6354(4) 0.37463(16)
O8 O 0.3847(3) 0.6593(3) 0.39511(18)
N2 N 0.2023(5) 0.5864(5) 0.4483(2)
O9 O 0.1348(4) 0.5116(4) 0.5208(2)
O10 O 0.0188(5) 0.5080(5) 0.50505(19)
C5 C 0.3112(7) 0.4533(7) 0.6454(3)
C6 C 0.3087(11) 0.3916(12) 0.6233(5)
H2 H 0.3435 0.4011 0.5986
C7 C 0.2579(12) 0.3168(11) 0.6356(6)
H3 H 0.2633 0.2756 0.6225
C8 C 0.2012(11) 0.2993(9) 0.6651(7)
H4 H 0.1633 0.2459 0.6704
C9 C 0.1958(8) 0.3569(11) 0.6886(5)
H5 H 0.1557 0.3448 0.7104
C10 C 0.2531(8) 0.4349(9) 0.6784(4)
H6 H 0.2522 0.4764 0.6944
C11 C 0.3343(7) 0.6333(5) 0.4255(3)
C12 C 0.2510(6) 0.6167(5) 0.4139(3)
C13 C 0.1180(6) 0.5621(7) 0.4479(3)
H7 H 0.0911 0.5209 0.4240
C14 C 0.0893(9) 0.5235(6) 0.4964(3)
C15 C 0.1017(8) 0.6268(10) 0.4392(4)
C16 C 0.1395(7) 0.6969(10) 0.4649(5)
H8 H 0.1809 0.7059 0.4851
C17 C 0.1157(10) 0.7546(9) 0.4606(6)
H9 H 0.1373 0.7989 0.4802
C18 C 0.0581(11) 0.7448(16) 0.4260(8)
H10 H 0.0409 0.7817 0.4215
C19 C 0.0299(11) 0.6752(15) 0.3997(5)
C20 C 0.0454(10) 0.6174(11) 0.4082(5)
H12 H 0.0169 0.5690 0.3924
Ni1 Ni 0.48824(9) 0.51653(8) 0.76040(4)
N3 N 0.5968(9) 0.5986(9) 0.7497(5)
N4 N 0.5136(8) 0.4394(8) 0.7301(4)
C21 C 0.6308(11) 0.5343(16) 0.6980(6)
H13 H 0.6585 0.5256 0.7236
H14 H 0.6639 0.5437 0.6707
N5 N 0.4670(11) 0.6008(10) 0.7892(3)
C22 C 0.5561(14) 0.4543(14) 0.6898(4)
H15 H 0.5259 0.4571 0.6636
H16 H 0.5695 0.4129 0.6839
C23 C 0.5464(14) 0.6607(10) 0.7956(9)
H17 H 0.5634 0.6507 0.8254
H18 H 0.5464 0.7108 0.7987
C24 C 0.6355(14) 0.6125(17) 0.7082(8)
H19 H 0.6906 0.6553 0.7108
H20 H 0.6089 0.6260 0.6843
C25 C 0.4174(17) 0.5902(18) 0.8269(5)
H21 H 0.4044 0.6326 0.8285
H22 H 0.4421 0.5886 0.8560
C26 C 0.3213(11) 0.4258(14) 0.8042(7)
H23 H 0.3284 0.3995 0.8311
H24 H 0.2654 0.3962 0.7952
C27 C 0.344(2) 0.5108(16) 0.8169(8)
H25 H 0.3186 0.5245 0.7923
H26 H 0.3115 0.5029 0.8443
C28 C 0.4418(14) 0.3769(12) 0.7233(7)
H27 H 0.4489 0.3310 0.7186
H28 H 0.4222 0.3858 0.6941
N6 N 0.3680(8) 0.4263(10) 0.7683(5)
C29 C 0.613(2) 0.6750(19) 0.7594(10)
H29 H 0.6084 0.7011 0.7316
H30 H 0.6658 0.7071 0.7726
C30 C 0.3751(11) 0.3522(12) 0.7589(7)
H31 H 0.3880 0.3340 0.7873
H32 H 0.3252 0.3092 0.7466
Cu3 Cu 0.32872(7) 0.69171(10) 0.33592(3)
O11 O 0.3976(5) 0.7622(3) 0.70796(16)
O12 O 0.2746(4) 0.6153(3) 0.72844(18)
O13 O 0.5108(7) 0.4920(5) 0.82828(19)
H33 H 0.446597 0.619852 0.763274
H34 H 0.540652 0.423616 0.753842
H35 H 0.6294 0.587698 0.772179
H36 H 0.34119 0.431403 0.739987
H11 H 0.9977 0.6691 0.3742
Ni2 Ni 0.97171(12) 0.48347(8) 0.57293(4)
N4_2 N 0.5606(8) 0.0742(11) 0.3968(4)
C21_2 C 0.4657(16) 0.0965(19) 0.3647(6)
H13_2 H 0.4744 0.1329 0.3903
H14_2 H 0.4563 0.1202 0.3374
C22_2 C 0.5457(14) 0.1018(20) 0.3565(4)
H15_2 H 0.5429 0.0688 0.3303
H16_2 H 0.5871 0.1566 0.3506
C24_2 C 0.3875(17) 0.0230(22) 0.3749(8)
H19_2 H 0.3447 0.0353 0.3775
C28_2 C 0.6231(12) 0.0649(18) 0.3900(7)
H27_2 H 0.6690 0.1179 0.3853
H28_2 H 0.6142 0.0364 0.3608
C30_2 C 0.6478(12) 0.0229(16) 0.4256(7)
H31_2 H 0.6660 0.0540 0.4540
H32_2 H 0.6908 0.0160 0.4133
O13_2 O 0.5080(5) 0.0188(9) 0.49495(19)
H34_2 H 0.576384 0.117036 0.420509
H35_2 H 0.412302 0.0417022 0.438846
O1_2 O 0.2968(4) 0.6077(6) 0.28985(17)
O2_2 O 0.3338(4) 0.5907(6) 0.21952(18)
O3_2 O 0.4563(4) 0.7469(6) 0.22209(17)
N1_2 N 0.4107(5) 0.7508(7) 0.2936(2)
C1_2 C 0.4063(6) 0.7154(8) 0.2571(3)
C2_2 C 0.3426(5) 0.6284(8) 0.2542(3)
C3_2 C 0.4303(7) 0.8512(9) 0.3452(3)
C4_2 C 0.4628(7) 0.8373(10) 0.3025(3)
H1_2 H 0.4604 0.8691 0.2766
O4_2 O 0.3689(4) 0.7965(6) 0.36523(17)
O5_2 O 0.4674(4) 0.9218(6) 0.36065(19)
Cu2_2 Cu 0.43476(8) 0.67860(11) 0.16856(3)
O6_2 O 0.3836(4) 0.7292(6) 0.13317(17)
O7_2 O 0.3646(4) 0.6024(5) 0.04130(16)
O8_2 O 0.3407(3) 0.7254(4) 0.06178(18)
N2_2 N 0.4136(5) 0.6159(7) 0.1150(2)
O9_2 O 0.4884(4) 0.6232(6) 0.1875(2)
O10_2 O 0.4920(5) 0.5108(7) 0.17172(19)
C5_2 C 0.5467(7) 0.8579(10) 0.3121(3)
C6_2 C 0.6084(12) 0.9171(16) 0.2900(5)
H2_2 H 0.5989 0.9424 0.2653
C7_2 C 0.6832(11) 0.9411(16) 0.3023(6)
H3_2 H 0.7244 0.9877 0.2892
C8_2 C 0.7007(9) 0.9019(14) 0.3318(7)
H4_2 H 0.7541 0.9174 0.3371
C9_2 C 0.6431(11) 0.8389(14) 0.3553(5)
H5_2 H 0.6552 0.8109 0.3771
C10_2 C 0.5651(9) 0.8182(12) 0.3451(4)
H6_2 H 0.5236 0.7758 0.3611
C11_2 C 0.3667(5) 0.7010(9) 0.0922(3)
C12_2 C 0.3833(5) 0.6343(8) 0.0806(3)
C13_2 C 0.4379(7) 0.5559(9) 0.1146(3)
H7_2 H 0.4791 0.5702 0.0907
C14_2 C 0.4765(6) 0.5658(11) 0.1631(3)
C15_2 C 0.3732(10) 0.4749(13) 0.1059(4)
C16_2 C 0.3031(10) 0.4426(12) 0.1316(5)
H8_2 H 0.2941 0.4750 0.1518
C17_2 C 0.2454(9) 0.3611(13) 0.1273(6)
H9_2 H 0.2011 0.3384 0.1469
C18_2 C 0.2552(16) 0.3133(19) 0.0927(8)
H10_2 H 0.2183 0.2592 0.0882
C19_2 C 0.3248(15) 0.3547(19) 0.0664(5)
H11_2 H 0.3309 0.3286 0.0409
C20_2 C 0.3826(11) 0.4280(15) 0.0749(5)
H12_2 H 0.4310 0.4479 0.0591
Ni1_2 Ni 0.48347(8) 0.97171(12) 0.42707(4)
N3_2 N 0.4014(9) 0.9982(13) 0.4164(5)
N5_2 N 0.3992(10) 0.8662(15) 0.4559(3)
C23_2 C 0.3393(10) 0.8857(17) 0.4623(9)
H17_2 H 0.3493 0.9127 0.4921
H18_2 H 0.2892 0.8356 0.4654
H20_2 H 0.3740 0.9829 0.3510
C25_2 C 0.4098(18) 0.8272(25) 0.4936(5)
H21_2 H 0.3674 0.7718 0.4952
H22_2 H 0.4114 0.8535 0.5227
C26_2 C 0.5742(14) 0.8955(18) 0.4709(7)
H23_2 H 0.6005 0.9289 0.4978
H24_2 H 0.6038 0.8692 0.4619
C27_2 C 0.4892(16) 0.8332(26) 0.4836(8)
H25_2 H 0.4755 0.7941 0.4590
H26_2 H 0.4971 0.8086 0.5110
N6_2 N 0.5737(10) 0.9417(13) 0.4350(5)
C29_2 C 0.3250(19) 0.9380(28) 0.4261(10)
H29_2 H 0.2989 0.9073 0.3983
H30_2 H 0.2929 0.9587 0.4393
Cu3_2 Cu 0.30829(10) 0.63701(12) 0.00258(3)
Ni2_2 Ni 0.51653(8) 0.48824(14) 0.23960(4)
H33_2 H 0.380148 0.826745 0.429941
H36_2 H 0.568597 0.909787 0.406654
H11_3 H 0.6714 0.0023 0.7075
Ni2_3 Ni 0.51176(14) 0.02829(12) 0.90627(4)
C3_3 C 0.1488(9) 0.5791(6) 0.0118(3)
O4_3 O 0.2035(6) 0.5724(4) 0.03189(17)
O5_3 O 0.0782(6) 0.5456(4) 0.02731(19)
H4_3 H 0.0826 0.8367 0.0037
C9_3 C 0.1611(14) 0.8042(8) 0.0219(5)
H5_3 H 0.1891 0.8443 0.0437
C10_3 C 0.1818(12) 0.7469(8) 0.0117(4)
H6_3 H 0.2242 0.7478 0.0277
Ni1_3 Ni 0.02829(12) 0.51176(9) 0.09373(4)
N3_3 N 0.0018(13) 0.4032(9) 0.0830(5)
N5_3 N 0.1338(15) 0.5330(11) 0.1225(3)
C23_3 C 0.1143(17) 0.4536(14) 0.1289(9)
H17_3 H 0.0873 0.4366 0.1587
H18_3 H 0.1644 0.4536 0.1320
H20_3 H 0.0171 0.3911 0.0176
C25_3 C 0.1728(25) 0.5826(17) 0.1602(5)
H21_3 H 0.2282 0.5956 0.1618
H22_3 H 0.1465 0.5579 0.1893
C26_3 C 0.1045(18) 0.6787(11) 0.1375(7)
H23_3 H 0.0711 0.6716 0.1644
H24_3 H 0.1308 0.7346 0.1285
C27_3 C 0.1668(26) 0.656(2) 0.1502(8)
H25_3 H 0.2059 0.6814 0.1256
H26_3 H 0.1914 0.6885 0.1776
N6_3 N 0.0583(13) 0.6320(8) 0.1016(5)
C29_3 C 0.0620(28) 0.387(2) 0.0927(10)
H29_3 H 0.0927 0.3916 0.0649
H30_3 H 0.0413 0.3342 0.1059
H33_3 H 0.173255 0.553403 0.0966073
H36_3 H 0.0902129 0.65881 0.0733204
O1_3 O 0.3923(6) 0.6891(4) 0.95651(17)
O2_3 O 0.4093(6) 0.7431(4) 0.88618(18)
O3_3 O 0.2531(6) 0.7094(4) 0.88875(17)
N1_3 N 0.2492(7) 0.6599(5) 0.9602(2)
C1_3 C 0.2846(8) 0.6909(5) 0.9237(3)
C2_3 C 0.3716(8) 0.7142(6) 0.9208(3)
C4_3 C 0.1627(10) 0.6255(7) 0.9691(3)
H1_3 H 0.1309 0.5913 0.9432
Cu2_3 Cu 0.32140(11) 0.75616(7) 0.83522(3)
O6_3 O 0.2708(6) 0.6544(4) 0.79983(17)
N2_3 N 0.3841(7) 0.7977(5) 0.7816(2)
O9_3 O 0.3768(6) 0.8652(4) 0.8541(2)
O10_3 O 0.4892(7) 0.9812(5) 0.83838(19)
C5_3 C 0.1421(10) 0.6888(7) 0.9787(3)
C6_3 C 0.0829(16) 0.6913(11) 0.9566(5)
H2_3 H 0.0576 0.6565 0.9319
C7_3 C 0.0589(16) 0.7421(12) 0.9689(6)
H3_3 H 0.0123 0.7367 0.9558
C8_3 C 0.0981(14) 0.7988(11) 0.9984(7)
C11_3 C 0.2990(9) 0.6657(7) 0.7588(3)
C12_3 C 0.3657(8) 0.7490(6) 0.7472(3)
C13_3 C 0.4441(9) 0.8820(6) 0.7812(3)
H7_3 H 0.4298 0.9089 0.7573
C14_3 C 0.4342(11) 0.9107(9) 0.8297(3)
C15_3 C 0.5251(13) 0.8983(8) 0.7725(4)
C16_3 C 0.5574(12) 0.8605(7) 0.7982(5)
H8_3 H 0.5250 0.8191 0.8184
C17_3 C 0.6389(13) 0.8843(10) 0.7939(6)
H9_3 H 0.6616 0.8627 0.8135
C18_3 C 0.6867(19) 0.9419(11) 0.7593(8)
H10_3 H 0.7408 0.9591 0.7548
C19_3 C 0.6453(19) 0.9701(11) 0.7330(5)
C20_3 C 0.5720(15) 0.9546(10) 0.7415(5)
H12_3 H 0.5521 0.9831 0.7257
N4_3 N 0.9258(11) 0.4864(8) 0.0634(4)
C21_3 C 0.9035(19) 0.3692(11) 0.0313(6)
H13_3 H 0.8671 0.3415 0.0569
H14_3 H 0.8798 0.3361 0.0040
C22_3 C 0.8982(20) 0.4439(14) 0.0231(4)
H16_3 H 0.8434 0.4305 0.0172
C24_3 C 0.9770(22) 0.3645(14) 0.0415(8)
H19_3 H 0.9647 0.3094 0.0441
C28_3 C 0.9351(18) 0.5582(14) 0.0566(7)
H27_3 H 0.8821 0.5511 0.0519
H28_3 H 0.9636 0.5778 0.0274
C30_3 C 0.9771(16) 0.6249(11) 0.0922(7)
H31_3 H 0.9460 0.6120 0.1206
H32_3 H 0.9840 0.6748 0.0799
O13_3 O 0.9812(9) 0.4892(7) 0.16162(19)
H34_3 H 0.882964 0.459348 0.0871756
H35_3 H 0.958298 0.3706 0.105513
Cu1_2 Cu 0.67128(7) 0.36299(7) 0.33075(3)
O1_4 O 0.7032(4) 0.3109(4) 0.37682(17)
O2_4 O 0.6662(4) 0.2569(4) 0.44715(18)
O3_4 O 0.5437(4) 0.2906(4) 0.44458(17)
N1_4 N 0.5893(5) 0.3401(5) 0.3731(2)
C1_4 C 0.5937(6) 0.3091(5) 0.4096(3)
C2_4 C 0.6574(5) 0.2858(6) 0.4125(3)
C3_4 C 0.5697(7) 0.4209(6) 0.3215(3)
C4_4 C 0.5372(7) 0.3745(7) 0.3642(3)
H1_4 H 0.5396 0.4087 0.3901
O4_4 O 0.6311(4) 0.4276(4) 0.30144(17)
O5_4 O 0.5326(4) 0.4544(4) 0.30602(19)
Cu2_4 Cu 0.56524(8) 0.24384(7) 0.49811(3)
O6_4 O 0.6164(4) 0.3456(4) 0.53350(17)
O7_3 O 0.6354(4) 0.2378(3) 0.62537(16)
O8_3 O 0.6593(3) 0.3847(3) 0.60489(18)
N2_4 N 0.5864(5) 0.2023(5) 0.5517(2)
O9_4 O 0.5116(4) 0.1348(4) 0.4792(2)
C5_4 C 0.4533(7) 0.3112(7) 0.3546(3)
C6_4 C 0.3916(12) 0.3087(11) 0.3767(5)
H2_4 H 0.4011 0.3435 0.4014
C7_4 C 0.3168(11) 0.2579(12) 0.3644(6)
H3_4 H 0.2756 0.2633 0.3775
C8_4 C 0.2993(9) 0.2012(11) 0.3349(7)
H4_4 H 0.2459 0.1633 0.3296
C9_4 C 0.3569(11) 0.1958(8) 0.3114(5)
H5_4 H 0.3448 0.1557 0.2896
C10_4 C 0.4349(9) 0.2531(8) 0.3216(4)
H6_4 H 0.4764 0.2522 0.3056
C11_4 C 0.6333(5) 0.3343(7) 0.5745(3)
C12_4 C 0.6167(5) 0.2510(6) 0.5861(3)
C13_4 C 0.5621(7) 0.1180(6) 0.5521(3)
H7_4 H 0.5209 0.0911 0.5760
C14_4 C 0.5235(6) 0.0893(9) 0.5036(3)
C15_4 C 0.6268(10) 0.1017(8) 0.5608(4)
C16_4 C 0.6969(10) 0.1395(7) 0.5351(5)
H8_4 H 0.7059 0.1809 0.5149
C17_4 C 0.7546(9) 0.1157(10) 0.5394(6)
H9_4 H 0.7989 0.1373 0.5198
C18_4 C 0.7448(16) 0.0581(11) 0.5740(8)
H10_4 H 0.7817 0.0409 0.5785
C19_4 C 0.6752(15) 0.0299(11) 0.6003(5)
C20_4 C 0.6174(11) 0.0454(10) 0.5918(5)
H12_4 H 0.5690 0.0169 0.6076
N3_4 N 0.5986(9) 0.5968(9) 0.2503(5)
N4_4 N 0.4394(8) 0.5136(8) 0.2699(4)
C21_4 C 0.5343(16) 0.6308(11) 0.3020(6)
H13_4 H 0.5256 0.6585 0.2764
H14_4 H 0.5437 0.6639 0.3293
N5_4 N 0.6008(10) 0.4670(11) 0.2108(3)
C22_4 C 0.4543(14) 0.5561(14) 0.3102(4)
H15_3 H 0.4571 0.5259 0.3364
H16_4 H 0.4129 0.5695 0.3161
C23_4 C 0.6607(10) 0.5464(14) 0.2044(9)
H17_4 H 0.6507 0.5634 0.1746
H18_4 H 0.7108 0.5464 0.2013
C24_4 C 0.6125(17) 0.6355(14) 0.2918(8)
H19_4 H 0.6553 0.6906 0.2892
H20_4 H 0.6260 0.6089 0.3157
C25_4 C 0.5902(18) 0.4174(17) 0.1731(5)
H21_4 H 0.6326 0.4044 0.1715
H22_4 H 0.5886 0.4421 0.1440
C26_4 C 0.4258(14) 0.3213(11) 0.1958(7)
H23_4 H 0.3995 0.3284 0.1689
H24_4 H 0.3962 0.2654 0.2048
C27_4 C 0.5108(16) 0.344(2) 0.1831(8)
H25_4 H 0.5245 0.3186 0.2077
H26_4 H 0.5029 0.3115 0.1557
C28_4 C 0.3769(12) 0.4418(14) 0.2767(7)
H27_4 H 0.3310 0.4489 0.2814
H28_4 H 0.3858 0.4222 0.3059
N6_4 N 0.4263(10) 0.3680(8) 0.2317(5)
C29_4 C 0.6750(19) 0.613(2) 0.2406(10)
H29_4 H 0.7011 0.6084 0.2684
H30_4 H 0.7071 0.6658 0.2274
C30_4 C 0.3522(12) 0.3751(11) 0.2411(7)
H31_4 H 0.3340 0.3880 0.2127
H32_4 H 0.3092 0.3252 0.2534
Cu3_3 Cu 0.69171(10) 0.32872(7) 0.66408(3)
O11_2 O 0.7622(3) 0.3976(5) 0.29204(16)
O12_2 O 0.6153(3) 0.2746(4) 0.27156(18)
H33_4 H 0.619852 0.446597 0.236726
H34_4 H 0.423616 0.540652 0.246158
H35_4 H 0.587698 0.6294 0.227821
H36_4 H 0.431403 0.34119 0.260013
H11_4 H 0.6691 0.9977 0.6258
N4_5 N 0.0742(11) 0.5606(8) 0.6032(4)
C21_5 C 0.0965(19) 0.4657(16) 0.6353(6)
H13_5 H 0.1329 0.4744 0.6097
H14_5 H 0.1202 0.4563 0.6626
C22_5 C 0.1018(20) 0.5457(14) 0.6435(4)
H15_4 H 0.0688 0.5429 0.6697
H16_5 H 0.1566 0.5871 0.6494
C24_5 C 0.0230(22) 0.3875(17) 0.6251(8)
H19_5 H 0.0353 0.3447 0.6225
C28_5 C 0.0649(18) 0.6231(12) 0.6100(7)
H27_5 H 0.1179 0.6690 0.6147
H28_5 H 0.0364 0.6142 0.6392
C30_5 C 0.0229(16) 0.6478(12) 0.5744(7)
H31_5 H 0.0540 0.6660 0.5460
H32_5 H 0.0160 0.6908 0.5867
H34_5 H 0.117036 0.576384 0.579491
H35_5 H 0.0417022 0.412302 0.561154
O1_5 O 0.6077(6) 0.2968(4) 0.71015(17)
O2_5 O 0.5907(6) 0.3338(4) 0.78048(18)
O3_5 O 0.7469(6) 0.4563(4) 0.77791(17)
N1_5 N 0.7508(7) 0.4107(5) 0.7064(2)
C1_5 C 0.7154(8) 0.4063(6) 0.7429(3)
C2_5 C 0.6284(8) 0.3426(5) 0.7458(3)
C3_5 C 0.8512(9) 0.4303(7) 0.6548(3)
C4_5 C 0.8373(10) 0.4628(7) 0.6975(3)
H1_5 H 0.8691 0.4604 0.7234
O4_5 O 0.7965(6) 0.3689(4) 0.63477(17)
O5_5 O 0.9218(6) 0.4674(4) 0.63935(19)
Cu2_5 Cu 0.67860(11) 0.43476(8) 0.83144(3)
O6_5 O 0.7292(6) 0.3836(4) 0.86683(17)
O7_4 O 0.6024(5) 0.3646(4) 0.95870(16)
O8_4 O 0.7254(4) 0.3407(3) 0.93822(18)
N2_5 N 0.6159(7) 0.4136(5) 0.8850(2)
O9_5 O 0.6232(6) 0.4884(4) 0.8125(2)
C5_5 C 0.8579(10) 0.5467(7) 0.6879(3)
C6_5 C 0.9171(16) 0.6084(12) 0.7100(5)
H2_5 H 0.9424 0.5989 0.7347
C7_5 C 0.9411(16) 0.6832(11) 0.6977(6)
H3_5 H 0.9877 0.7244 0.7108
C8_5 C 0.9019(14) 0.7007(9) 0.6682(7)
H4_5 H 0.9174 0.7541 0.6629
C9_5 C 0.8389(14) 0.6431(11) 0.6447(5)
H5_5 H 0.8109 0.6552 0.6229
C10_5 C 0.8182(12) 0.5651(9) 0.6549(4)
H6_5 H 0.7758 0.5236 0.6389
C11_5 C 0.7010(9) 0.3667(5) 0.9078(3)
C12_5 C 0.6343(8) 0.3833(5) 0.9194(3)
C13_5 C 0.5559(9) 0.4379(7) 0.8854(3)
H7_5 H 0.5702 0.4791 0.9093
C14_5 C 0.5658(11) 0.4765(6) 0.8369(3)
C15_5 C 0.4749(13) 0.3732(10) 0.8941(4)
C16_5 C 0.4426(12) 0.3031(10) 0.8684(5)
H8_5 H 0.4750 0.2941 0.8482
C17_5 C 0.3611(13) 0.2454(9) 0.8727(6)
H9_5 H 0.3384 0.2011 0.8531
C18_5 C 0.3133(19) 0.2552(16) 0.9073(8)
H10_5 H 0.2592 0.2183 0.9118
C19_5 C 0.3547(19) 0.3248(15) 0.9336(5)
H11_5 H 0.3286 0.3309 0.9591
C20_5 C 0.4280(15) 0.3826(11) 0.9251(5)
H12_5 H 0.4479 0.4310 0.9409
N3_5 N 0.9982(13) 0.4014(9) 0.5836(5)
N5_5 N 0.8662(15) 0.3992(10) 0.5441(3)
C23_5 C 0.8857(17) 0.3393(10) 0.5377(9)
H17_5 H 0.9127 0.3493 0.5079
H18_5 H 0.8356 0.2892 0.5346
H20_5 H 0.9829 0.3740 0.6490
C25_5 C 0.8272(25) 0.4098(18) 0.5064(5)
H21_5 H 0.7718 0.3674 0.5048
H22_5 H 0.8535 0.4114 0.4773
C26_5 C 0.8955(18) 0.5742(14) 0.5291(7)
H23_5 H 0.9289 0.6005 0.5022
H24_5 H 0.8692 0.6038 0.5381
C27_5 C 0.8332(26) 0.4892(16) 0.5164(8)
H25_5 H 0.7941 0.4755 0.5410
H26_5 H 0.8086 0.4971 0.4890
N6_5 N 0.9417(13) 0.5737(10) 0.5650(5)
C29_5 C 0.9380(28) 0.3250(19) 0.5739(10)
H29_5 H 0.9073 0.2989 0.6017
H30_5 H 0.9587 0.2929 0.5607
Cu3_4 Cu 0.63701(12) 0.30829(10) 0.99742(3)
H33_5 H 0.826745 0.380148 0.570059
H36_5 H 0.909787 0.568597 0.593346
H11_6 H 0.0023 0.6714 0.2925
O1_6 O 0.6891(4) 0.3923(6) 0.04349(17)
O2_6 O 0.7431(4) 0.4093(6) 0.11382(18)
O3_6 O 0.7094(4) 0.2531(6) 0.11125(17)
N1_6 N 0.6599(5) 0.2492(7) 0.0398(2)
C1_6 C 0.6909(5) 0.2846(8) 0.0763(3)
C2_6 C 0.7142(6) 0.3716(8) 0.0792(3)
C4_6 C 0.6255(7) 0.1627(10) 0.0309(3)
H1_6 H 0.5913 0.1309 0.0568
Cu2_6 Cu 0.75616(7) 0.32140(11) 0.16478(3)
O6_6 O 0.6544(4) 0.2708(6) 0.20017(17)
N2_6 N 0.7977(5) 0.3841(7) 0.2184(2)
O9_6 O 0.8652(4) 0.3768(6) 0.1459(2)
C5_6 C 0.6888(7) 0.1421(10) 0.0213(3)
C6_6 C 0.6913(11) 0.0829(16) 0.0434(5)
H2_6 H 0.6565 0.0576 0.0681
C7_6 C 0.7421(12) 0.0589(16) 0.0311(6)
H3_6 H 0.7367 0.0123 0.0442
C8_6 C 0.7988(11) 0.0981(14) 0.0016(7)
C11_6 C 0.6657(7) 0.2990(9) 0.2412(3)
C12_6 C 0.7490(6) 0.3657(8) 0.2528(3)
C13_6 C 0.8820(6) 0.4441(9) 0.2188(3)
H7_6 H 0.9089 0.4298 0.2427
C14_6 C 0.9107(9) 0.4342(11) 0.1703(3)
C15_6 C 0.8983(8) 0.5251(13) 0.2275(4)
C16_6 C 0.8605(7) 0.5574(12) 0.2018(5)
H8_6 H 0.8191 0.5250 0.1816
C17_6 C 0.8843(10) 0.6389(13) 0.2061(6)
H9_6 H 0.8627 0.6616 0.1865
C18_6 C 0.9419(11) 0.6867(19) 0.2407(8)
H10_6 H 0.9591 0.7408 0.2452
C19_6 C 0.9701(11) 0.6453(19) 0.2670(5)
C20_6 C 0.9546(10) 0.5720(15) 0.2585(5)
H12_6 H 0.9831 0.5521 0.2743
C3_6 C 0.5791(6) 0.1488(9) 0.9882(3)
O4_6 O 0.5724(4) 0.2035(6) 0.96811(17)
O5_6 O 0.5456(4) 0.0782(6) 0.97269(19)
H4_6 H 0.8367 0.0826 0.9963
C9_6 C 0.8042(8) 0.1611(14) 0.9781(5)
H5_6 H 0.8443 0.1891 0.9563
C10_6 C 0.7469(8) 0.1818(12) 0.9883(4)
H6_6 H 0.7478 0.2242 0.9723
N3_6 N 0.4032(9) 0.0018(13) 0.9170(5)
N5_6 N 0.5330(11) 0.1338(15) 0.8775(3)
C23_6 C 0.4536(14) 0.1143(17) 0.8711(9)
H17_6 H 0.4366 0.0873 0.8413
H18_6 H 0.4536 0.1644 0.8680
H20_6 H 0.3911 0.0171 0.9824
C25_6 C 0.5826(17) 0.1728(25) 0.8398(5)
H21_6 H 0.5956 0.2282 0.8382
H22_6 H 0.5579 0.1465 0.8107
C26_6 C 0.6787(11) 0.1045(18) 0.8625(7)
H23_6 H 0.6716 0.0711 0.8356
H24_6 H 0.7346 0.1308 0.8715
C27_6 C 0.656(2) 0.1668(26) 0.8498(8)
H25_6 H 0.6814 0.2059 0.8744
H26_6 H 0.6885 0.1914 0.8224
N6_6 N 0.6320(8) 0.0583(13) 0.8984(5)
C29_6 C 0.387(2) 0.0620(28) 0.9073(10)
H29_6 H 0.3916 0.0927 0.9351
H30_6 H 0.3342 0.0413 0.8941
H33_6 H 0.553403 0.173255 0.903393
H36_6 H 0.65881 0.0902129 0.92668
N4_6 N 0.4864(8) 0.9258(11) 0.9366(4)
C21_6 C 0.3692(11) 0.9035(19) 0.9687(6)
H13_6 H 0.3415 0.8671 0.9431
H14_6 H 0.3361 0.8798 0.9960
C22_6 C 0.4439(14) 0.8982(20) 0.9769(4)
H16_6 H 0.4305 0.8434 0.9828
C24_6 C 0.3645(14) 0.9770(22) 0.9585(8)
H19_6 H 0.3094 0.9647 0.9559
C28_6 C 0.5582(14) 0.9351(18) 0.9434(7)
H27_6 H 0.5511 0.8821 0.9481
H28_6 H 0.5778 0.9636 0.9726
C30_6 C 0.6249(11) 0.9771(16) 0.9078(7)
H31_6 H 0.6120 0.9460 0.8794
H32_6 H 0.6748 0.9840 0.9201
H34_6 H 0.459348 0.882964 0.912824
H35_6 H 0.3706 0.958298 0.894487
H15_5 H 0.9312 0.4741 0.9969
H15_6 H 0.4741 0.9312 0.0031
loop_
_geom_bond_atom_site_label_1
_geom_bond_atom_site_label_2
_geom_bond_site_symmetry_1
_geom_bond_site_symmetry_2
Cu1 O1 1_555 1_555
O1 C2 1_555 1_555
O2 C2 1_555 1_555
O3 C1 1_555 1_555
N1 Cu1 1_555 1_555
C1 N1 1_555 1_555
C2 C1 1_555 1_555
C3 C4 1_555 1_555
C4 N1 1_555 1_555
H1 C4 1_555 1_555
O4 Cu1 1_555 1_555
O5 C3 1_555 1_555
Cu2 O2 1_555 1_555
O6 Cu2 1_555 1_555
O7 C12 1_555 1_555
O8 C11 1_555 1_555
N2 Cu2 1_555 1_555
O9 Cu2 1_555 1_555
O10 C14 1_555 1_555
C5 C4 1_555 1_555
C6 C5 1_555 1_555
H2 C6 1_555 1_555
C7 C6 1_555 1_555
H3 C7 1_555 1_555
C8 C7 1_555 1_555
H4 C8 1_555 1_555
C9 C8 1_555 1_555
H5 C9 1_555 1_555
C10 C5 1_555 1_555
H6 C10 1_555 1_555
C11 O6 1_555 1_555
C12 N2 1_555 1_555
C13 N2 1_555 1_555
H7 C13 1_555 1_555
C14 O9 1_555 1_555
C15 C13 1_555 1_555
C16 C15 1_555 1_555
H8 C16 1_555 1_555
C17 C16 1_555 1_555
H9 C17 1_555 1_555
C18 C17 1_555 1_555
H10 C18 1_555 1_555
C19 C18 1_555 1_555
C20 C15 1_555 1_555
H12 C20 1_555 1_555
Ni1 O5 1_555 1_555
N3 Ni1 1_555 1_555
N4 Ni1 1_555 1_555
C21 H13 1_555 1_555
H14 C21 1_555 1_555
N5 Ni1 1_555 1_555
C22 N4 1_555 1_555
H15 C22 1_555 1_555
H16 C22 1_555 1_555
C23 N5 1_555 1_555
H17 C23 1_555 1_555
H18 C23 1_555 1_555
C24 N3 1_555 1_555
H19 C24 1_555 1_555
H20 C24 1_555 1_555
C25 N5 1_555 1_555
H21 C25 1_555 1_555
H22 C25 1_555 1_555
C26 H23 1_555 1_555
H24 C26 1_555 1_555
C27 C25 1_555 1_555
H25 C27 1_555 1_555
H26 C27 1_555 1_555
C28 N4 1_555 1_555
H27 C28 1_555 1_555
H28 C28 1_555 1_555
N6 Ni1 1_555 1_555
C29 N3 1_555 1_555
H29 C29 1_555 1_555
H30 C29 1_555 1_555
C30 C28 1_555 1_555
H31 C30 1_555 1_555
H32 C30 1_555 1_555
Cu3 O7 1_555 1_555
O11 Cu1 1_555 1_555
O12 Cu1 1_555 1_555
O13 Ni1 1_555 1_555
O3 Cu2 1_555 1_555
C3 O4 1_555 1_555
O8 Cu3 1_555 1_555
C9 C10 1_555 1_555
C11 C12 1_555 1_555
C13 C14 1_555 1_555
C19 C20 1_555 1_555
C21 C22 1_555 1_555
C21 C24 1_555 1_555
C23 C29 1_555 1_555
C26 C27 1_555 1_555
C26 N6 1_555 1_555
N6 C30 1_555 1_555
N5 H33 1_555 1_555
N4 H34 1_555 1_555
N3 H35 1_555 1_555
N6 H36 1_555 1_555
C21_2 H13_2 1_555 1_555
H14_2 C21_2 1_555 1_555
C22_2 N4_2 1_555 1_555
H15_2 C22_2 1_555 1_555
H16_2 C22_2 1_555 1_555
H19_2 C24_2 1_555 1_555
C28_2 N4_2 1_555 1_555
H27_2 C28_2 1_555 1_555
H28_2 C28_2 1_555 1_555
C30_2 C28_2 1_555 1_555
H31_2 C30_2 1_555 1_555
H32_2 C30_2 1_555 1_555
C21_2 C22_2 1_555 1_555
C21_2 C24_2 1_555 1_555
N4_2 H34_2 1_555 1_555
Cu3 O1_2 1_555 1_555
O1_2 C2_2 1_555 1_555
O2_2 C2_2 1_555 1_555
O3_2 C1_2 1_555 1_555
N1_2 Cu3 1_555 1_555
C1_2 N1_2 1_555 1_555
C2_2 C1_2 1_555 1_555
C3_2 C4_2 1_555 1_555
C4_2 N1_2 1_555 1_555
H1_2 C4_2 1_555 1_555
O4_2 Cu3 1_555 1_555
O5_2 C3_2 1_555 1_555
Cu2_2 O2_2 1_555 1_555
O6_2 Cu2_2 1_555 1_555
O7_2 C12_2 1_555 1_555
O8_2 C11_2 1_555 1_555
N2_2 Cu2_2 1_555 1_555
O9_2 Cu2_2 1_555 1_555
O10_2 C14_2 1_555 1_555
C5_2 C4_2 1_555 1_555
C6_2 C5_2 1_555 1_555
H2_2 C6_2 1_555 1_555
C7_2 C6_2 1_555 1_555
H3_2 C7_2 1_555 1_555
C8_2 C7_2 1_555 1_555
H4_2 C8_2 1_555 1_555
C9_2 C8_2 1_555 1_555
H5_2 C9_2 1_555 1_555
C10_2 C5_2 1_555 1_555
H6_2 C10_2 1_555 1_555
C11_2 O6_2 1_555 1_555
C12_2 N2_2 1_555 1_555
C13_2 N2_2 1_555 1_555
H7_2 C13_2 1_555 1_555
C14_2 O9_2 1_555 1_555
C15_2 C13_2 1_555 1_555
C16_2 C15_2 1_555 1_555
H8_2 C16_2 1_555 1_555
C17_2 C16_2 1_555 1_555
H9_2 C17_2 1_555 1_555
C18_2 C17_2 1_555 1_555
H10_2 C18_2 1_555 1_555
C19_2 C18_2 1_555 1_555
H11_2 C19_2 1_555 1_555
C20_2 C15_2 1_555 1_555
H12_2 C20_2 1_555 1_555
Ni1_2 O5_2 1_555 1_555
N3_2 Ni1_2 1_555 1_555
N5_2 Ni1_2 1_555 1_555
C23_2 N5_2 1_555 1_555
H17_2 C23_2 1_555 1_555
H18_2 C23_2 1_555 1_555
C25_2 N5_2 1_555 1_555
H21_2 C25_2 1_555 1_555
H22_2 C25_2 1_555 1_555
C26_2 H23_2 1_555 1_555
H24_2 C26_2 1_555 1_555
C27_2 C25_2 1_555 1_555
H25_2 C27_2 1_555 1_555
H26_2 C27_2 1_555 1_555
N6_2 Ni1_2 1_555 1_555
C29_2 N3_2 1_555 1_555
H29_2 C29_2 1_555 1_555
H30_2 C29_2 1_555 1_555
Cu3_2 O7_2 1_555 1_555
Ni2_2 O10_2 1_555 1_555
O3_2 Cu2_2 1_555 1_555
C3_2 O4_2 1_555 1_555
O8_2 Cu3_2 1_555 1_555
C9_2 C10_2 1_555 1_555
C11_2 C12_2 1_555 1_555
C13_2 C14_2 1_555 1_555
C19_2 C20_2 1_555 1_555
C23_2 C29_2 1_555 1_555
C26_2 C27_2 1_555 1_555
C26_2 N6_2 1_555 1_555
N5_2 H33_2 1_555 1_555
N6_2 H36_2 1_555 1_555
O4_3 Cu3_2 1_555 1_555
O5_3 C3_3 1_555 1_555
H5_3 C9_3 1_555 1_555
H6_3 C10_3 1_555 1_555
Ni1_3 O5_3 1_555 1_555
N3_3 Ni1_3 1_555 1_555
N5_3 Ni1_3 1_555 1_555
C23_3 N5_3 1_555 1_555
H17_3 C23_3 1_555 1_555
H18_3 C23_3 1_555 1_555
C25_3 N5_3 1_555 1_555
H21_3 C25_3 1_555 1_555
H22_3 C25_3 1_555 1_555
C26_3 H23_3 1_555 1_555
H24_3 C26_3 1_555 1_555
C27_3 C25_3 1_555 1_555
H25_3 C27_3 1_555 1_555
H26_3 C27_3 1_555 1_555
N6_3 Ni1_3 1_555 1_555
C29_3 N3_3 1_555 1_555
H29_3 C29_3 1_555 1_555
H30_3 C29_3 1_555 1_555
C3_3 O4_3 1_555 1_555
C9_3 C10_3 1_555 1_555
C23_3 C29_3 1_555 1_555
C26_3 C27_3 1_555 1_555
C26_3 N6_3 1_555 1_555
N5_3 H33_3 1_555 1_555
N6_3 H36_3 1_555 1_555
O1_3 C2_3 1_555 1_555
O2_3 C2_3 1_555 1_555
O3_3 C1_3 1_555 1_555
C1_3 N1_3 1_555 1_555
C2_3 C1_3 1_555 1_555
C4_3 N1_3 1_555 1_555
H1_3 C4_3 1_555 1_555
Cu2_3 O2_3 1_555 1_555
O6_3 Cu2_3 1_555 1_555
O11 C12_3 1_555 1_555
O12 C11_3 1_555 1_555
N2_3 Cu2_3 1_555 1_555
O9_3 Cu2_3 1_555 1_555
O10_3 C14_3 1_555 1_555
C5_3 C4_3 1_555 1_555
C6_3 C5_3 1_555 1_555
H2_3 C6_3 1_555 1_555
C7_3 C6_3 1_555 1_555
H3_3 C7_3 1_555 1_555
C8_3 C7_3 1_555 1_555
C11_3 O6_3 1_555 1_555
C12_3 N2_3 1_555 1_555
C13_3 N2_3 1_555 1_555
H7_3 C13_3 1_555 1_555
C14_3 O9_3 1_555 1_555
C15_3 C13_3 1_555 1_555
C16_3 C15_3 1_555 1_555
H8_3 C16_3 1_555 1_555
C17_3 C16_3 1_555 1_555
H9_3 C17_3 1_555 1_555
C18_3 C17_3 1_555 1_555
H10_3 C18_3 1_555 1_555
C19_3 C18_3 1_555 1_555
C20_3 C15_3 1_555 1_555
H12_3 C20_3 1_555 1_555
O3_3 Cu2_3 1_555 1_555
C11_3 C12_3 1_555 1_555
C13_3 C14_3 1_555 1_555
C19_3 C20_3 1_555 1_555
C21_3 H13_3 1_555 1_555
H14_3 C21_3 1_555 1_555
C22_3 N4_3 1_555 1_555
H16_3 C22_3 1_555 1_555
H19_3 C24_3 1_555 1_555
C28_3 N4_3 1_555 1_555
H27_3 C28_3 1_555 1_555
H28_3 C28_3 1_555 1_555
C30_3 C28_3 1_555 1_555
H31_3 C30_3 1_555 1_555
H32_3 C30_3 1_555 1_555
C21_3 C22_3 1_555 1_555
C21_3 C24_3 1_555 1_555
N4_3 H34_3 1_555 1_555
Cu1_2 O1_4 1_555 1_555
O1_4 C2_4 1_555 1_555
O2_4 C2_4 1_555 1_555
O3_4 C1_4 1_555 1_555
N1_4 Cu1_2 1_555 1_555
C1_4 N1_4 1_555 1_555
C2_4 C1_4 1_555 1_555
C3_4 C4_4 1_555 1_555
C4_4 N1_4 1_555 1_555
H1_4 C4_4 1_555 1_555
O4_4 Cu1_2 1_555 1_555
O5_4 C3_4 1_555 1_555
Cu2_4 O2_4 1_555 1_555
O6_4 Cu2_4 1_555 1_555
O7_3 C12_4 1_555 1_555
O8_3 C11_4 1_555 1_555
N2_4 Cu2_4 1_555 1_555
O9_4 Cu2_4 1_555 1_555
O13_2 C14_4 1_555 1_555
C5_4 C4_4 1_555 1_555
C6_4 C5_4 1_555 1_555
H2_4 C6_4 1_555 1_555
C7_4 C6_4 1_555 1_555
H3_4 C7_4 1_555 1_555
C8_4 C7_4 1_555 1_555
H4_4 C8_4 1_555 1_555
C9_4 C8_4 1_555 1_555
H5_4 C9_4 1_555 1_555
C10_4 C5_4 1_555 1_555
H6_4 C10_4 1_555 1_555
C11_4 O6_4 1_555 1_555
C12_4 N2_4 1_555 1_555
C13_4 N2_4 1_555 1_555
H7_4 C13_4 1_555 1_555
C14_4 O9_4 1_555 1_555
C15_4 C13_4 1_555 1_555
C16_4 C15_4 1_555 1_555
H8_4 C16_4 1_555 1_555
C17_4 C16_4 1_555 1_555
H9_4 C17_4 1_555 1_555
C18_4 C17_4 1_555 1_555
H10_4 C18_4 1_555 1_555
C19_4 C18_4 1_555 1_555
C20_4 C15_4 1_555 1_555
H12_4 C20_4 1_555 1_555
Ni2_2 O5_4 1_555 1_555
N3_4 Ni2_2 1_555 1_555
N4_4 Ni2_2 1_555 1_555
C21_4 H13_4 1_555 1_555
H14_4 C21_4 1_555 1_555
N5_4 Ni2_2 1_555 1_555
C22_4 N4_4 1_555 1_555
H15_3 C22_4 1_555 1_555
H16_4 C22_4 1_555 1_555
C23_4 N5_4 1_555 1_555
H17_4 C23_4 1_555 1_555
H18_4 C23_4 1_555 1_555
C24_4 N3_4 1_555 1_555
H19_4 C24_4 1_555 1_555
H20_4 C24_4 1_555 1_555
C25_4 N5_4 1_555 1_555
H21_4 C25_4 1_555 1_555
H22_4 C25_4 1_555 1_555
C26_4 H23_4 1_555 1_555
H24_4 C26_4 1_555 1_555
C27_4 C25_4 1_555 1_555
H25_4 C27_4 1_555 1_555
H26_4 C27_4 1_555 1_555
C28_4 N4_4 1_555 1_555
H27_4 C28_4 1_555 1_555
H28_4 C28_4 1_555 1_555
N6_4 Ni2_2 1_555 1_555
C29_4 N3_4 1_555 1_555
H29_4 C29_4 1_555 1_555
H30_4 C29_4 1_555 1_555
C30_4 C28_4 1_555 1_555
H31_4 C30_4 1_555 1_555
H32_4 C30_4 1_555 1_555
Cu3_3 O7_3 1_555 1_555
O11_2 Cu1_2 1_555 1_555
O12_2 Cu1_2 1_555 1_555
O3_4 Cu2_4 1_555 1_555
C3_4 O4_4 1_555 1_555
O8_3 Cu3_3 1_555 1_555
C9_4 C10_4 1_555 1_555
C11_4 C12_4 1_555 1_555
C13_4 C14_4 1_555 1_555
C19_4 C20_4 1_555 1_555
C21_4 C22_4 1_555 1_555
C21_4 C24_4 1_555 1_555
C23_4 C29_4 1_555 1_555
C26_4 C27_4 1_555 1_555
C26_4 N6_4 1_555 1_555
N6_4 C30_4 1_555 1_555
N5_4 H33_4 1_555 1_555
N4_4 H34_4 1_555 1_555
N3_4 H35_4 1_555 1_555
N6_4 H36_4 1_555 1_555
C21_5 H13_5 1_555 1_555
H14_5 C21_5 1_555 1_555
C22_5 N4_5 1_555 1_555
H15_4 C22_5 1_555 1_555
H16_5 C22_5 1_555 1_555
H19_5 C24_5 1_555 1_555
C28_5 N4_5 1_555 1_555
H27_5 C28_5 1_555 1_555
H28_5 C28_5 1_555 1_555
C30_5 C28_5 1_555 1_555
H31_5 C30_5 1_555 1_555
H32_5 C30_5 1_555 1_555
C21_5 C22_5 1_555 1_555
C21_5 C24_5 1_555 1_555
N4_5 H34_5 1_555 1_555
Cu3_3 O1_5 1_555 1_555
O1_5 C2_5 1_555 1_555
O2_5 C2_5 1_555 1_555
O3_5 C1_5 1_555 1_555
N1_5 Cu3_3 1_555 1_555
C1_5 N1_5 1_555 1_555
C2_5 C1_5 1_555 1_555
C3_5 C4_5 1_555 1_555
C4_5 N1_5 1_555 1_555
H1_5 C4_5 1_555 1_555
O4_5 Cu3_3 1_555 1_555
O5_5 C3_5 1_555 1_555
Cu2_5 O2_5 1_555 1_555
O6_5 Cu2_5 1_555 1_555
O7_4 C12_5 1_555 1_555
O8_4 C11_5 1_555 1_555
N2_5 Cu2_5 1_555 1_555
O9_5 Cu2_5 1_555 1_555
O13 C14_5 1_555 1_555
C5_5 C4_5 1_555 1_555
C6_5 C5_5 1_555 1_555
H2_5 C6_5 1_555 1_555
C7_5 C6_5 1_555 1_555
H3_5 C7_5 1_555 1_555
C8_5 C7_5 1_555 1_555
H4_5 C8_5 1_555 1_555
C9_5 C8_5 1_555 1_555
H5_5 C9_5 1_555 1_555
C10_5 C5_5 1_555 1_555
H6_5 C10_5 1_555 1_555
C11_5 O6_5 1_555 1_555
C12_5 N2_5 1_555 1_555
C13_5 N2_5 1_555 1_555
H7_5 C13_5 1_555 1_555
C14_5 O9_5 1_555 1_555
C15_5 C13_5 1_555 1_555
C16_5 C15_5 1_555 1_555
H8_5 C16_5 1_555 1_555
C17_5 C16_5 1_555 1_555
H9_5 C17_5 1_555 1_555
C18_5 C17_5 1_555 1_555
H10_5 C18_5 1_555 1_555
C19_5 C18_5 1_555 1_555
H11_5 C19_5 1_555 1_555
C20_5 C15_5 1_555 1_555
H12_5 C20_5 1_555 1_555
Ni2 O5_5 1_555 1_555
N3_5 Ni2 1_555 1_555
N5_5 Ni2 1_555 1_555
C23_5 N5_5 1_555 1_555
H17_5 C23_5 1_555 1_555
H18_5 C23_5 1_555 1_555
C25_5 N5_5 1_555 1_555
H21_5 C25_5 1_555 1_555
H22_5 C25_5 1_555 1_555
C26_5 H23_5 1_555 1_555
H24_5 C26_5 1_555 1_555
C27_5 C25_5 1_555 1_555
H25_5 C27_5 1_555 1_555
H26_5 C27_5 1_555 1_555
N6_5 Ni2 1_555 1_555
C29_5 N3_5 1_555 1_555
H29_5 C29_5 1_555 1_555
H30_5 C29_5 1_555 1_555
Cu3_4 O7_4 1_555 1_555
O3_5 Cu2_5 1_555 1_555
C3_5 O4_5 1_555 1_555
O8_4 Cu3_4 1_555 1_555
C9_5 C10_5 1_555 1_555
C11_5 C12_5 1_555 1_555
C13_5 C14_5 1_555 1_555
C19_5 C20_5 1_555 1_555
C23_5 C29_5 1_555 1_555
C26_5 C27_5 1_555 1_555
C26_5 N6_5 1_555 1_555
N5_5 H33_5 1_555 1_555
N6_5 H36_5 1_555 1_555
O1_6 C2_6 1_555 1_555
O2_6 C2_6 1_555 1_555
O3_6 C1_6 1_555 1_555
C1_6 N1_6 1_555 1_555
C2_6 C1_6 1_555 1_555
C4_6 N1_6 1_555 1_555
H1_6 C4_6 1_555 1_555
Cu2_6 O2_6 1_555 1_555
O6_6 Cu2_6 1_555 1_555
O11_2 C12_6 1_555 1_555
O12_2 C11_6 1_555 1_555
N2_6 Cu2_6 1_555 1_555
O9_6 Cu2_6 1_555 1_555
O13_3 C14_6 1_555 1_555
C5_6 C4_6 1_555 1_555
C6_6 C5_6 1_555 1_555
H2_6 C6_6 1_555 1_555
C7_6 C6_6 1_555 1_555
H3_6 C7_6 1_555 1_555
C8_6 C7_6 1_555 1_555
C11_6 O6_6 1_555 1_555
C12_6 N2_6 1_555 1_555
C13_6 N2_6 1_555 1_555
H7_6 C13_6 1_555 1_555
C14_6 O9_6 1_555 1_555
C15_6 C13_6 1_555 1_555
C16_6 C15_6 1_555 1_555
H8_6 C16_6 1_555 1_555
C17_6 C16_6 1_555 1_555
H9_6 C17_6 1_555 1_555
C18_6 C17_6 1_555 1_555
H10_6 C18_6 1_555 1_555
C19_6 C18_6 1_555 1_555
C20_6 C15_6 1_555 1_555
H12_6 C20_6 1_555 1_555
O3_6 Cu2_6 1_555 1_555
C11_6 C12_6 1_555 1_555
C13_6 C14_6 1_555 1_555
C19_6 C20_6 1_555 1_555
O4_6 Cu3_4 1_555 1_555
O5_6 C3_6 1_555 1_555
H5_6 C9_6 1_555 1_555
H6_6 C10_6 1_555 1_555
Ni2_3 O5_6 1_555 1_555
N3_6 Ni2_3 1_555 1_555
N5_6 Ni2_3 1_555 1_555
C23_6 N5_6 1_555 1_555
H17_6 C23_6 1_555 1_555
H18_6 C23_6 1_555 1_555
C25_6 N5_6 1_555 1_555
H21_6 C25_6 1_555 1_555
H22_6 C25_6 1_555 1_555
C26_6 H23_6 1_555 1_555
H24_6 C26_6 1_555 1_555
C27_6 C25_6 1_555 1_555
H25_6 C27_6 1_555 1_555
H26_6 C27_6 1_555 1_555
N6_6 Ni2_3 1_555 1_555
C29_6 N3_6 1_555 1_555
H29_6 C29_6 1_555 1_555
H30_6 C29_6 1_555 1_555
C3_6 O4_6 1_555 1_555
C9_6 C10_6 1_555 1_555
C23_6 C29_6 1_555 1_555
C26_6 C27_6 1_555 1_555
C26_6 N6_6 1_555 1_555
N5_6 H33_6 1_555 1_555
N6_6 H36_6 1_555 1_555
C21_6 H13_6 1_555 1_555
H14_6 C21_6 1_555 1_555
C22_6 N4_6 1_555 1_555
H16_6 C22_6 1_555 1_555
H19_6 C24_6 1_555 1_555
C28_6 N4_6 1_555 1_555
H27_6 C28_6 1_555 1_555
H28_6 C28_6 1_555 1_555
C30_6 C28_6 1_555 1_555
H31_6 C30_6 1_555 1_555
H32_6 C30_6 1_555 1_555
C21_6 C22_6 1_555 1_555
C21_6 C24_6 1_555 1_555
N4_6 H34_6 1_555 1_555

#END
