
###############################################################################
#
# This file contains modified crystal structure data generated from the
# MOF subset of the Cambridge Structural Database (CSD) v543 
# hosted by the Cambridge Crystallographic Data Centre (CCDC).
#
# This work is licensed under the Creative Commons
# Attribution-NonCommercial-ShareAlike 4.0 International License.
# To view a copy of this license, visit
# http://creativecommons.org/licenses/by-nc-sa/4.0/
# or send a letter to
# Creative Commons, PO Box 1866, Mountain View, CA 94042, USA.
#
# CIF created using the CSD Python API on 29 September 2022
# The structure has been converted into the P1 space group
# The structure has a 3D framework
# The original CSD entry QAQNOO is in the trigonal crystal system
# The original CSD entry QAQNOO is in a Sohncke space group
# The framework has been calculated to contain at least 10.0% void space
# The void calculation uses a probe of radius 1.32A, grid spacing 0.4
# H atom positions have been added when not included in the experimental data
#
###############################################################################

data_QAQNOO
_chemical_formula_moiety         '(C180 H228 Cu12 N36 Ni6 O66)n'
_symmetry_cell_setting           triclinic
_symmetry_space_group_name_H-M   'P 1'
_symmetry_Int_Tables_number      1
_space_group_name_Hall           'P 1'
loop_
_symmetry_equiv_pos_site_id
_symmetry_equiv_pos_as_xyz
1 x,y,z
_cell_length_a                   19.6993(13)
_cell_length_b                   19.6993(13)
_cell_length_c                   29.2983(17)
_cell_angle_alpha                90
_cell_angle_beta                 90
_cell_angle_gamma                120
_cell_volume                     9846.34
loop_
_atom_site_label
_atom_site_type_symbol
_atom_site_fract_x
_atom_site_fract_y
_atom_site_fract_z
Cu1 Cu 0.36310(15) 0.67135(14) 0.66933(6)
O1 O 0.3097(8) 0.7032(8) 0.6233(4)
O2 O 0.2575(8) 0.6657(8) 0.5527(4)
O3 O 0.2905(8) 0.5443(8) 0.5553(3)
N1 N 0.3406(9) 0.5898(9) 0.6264(4)
C1 C 0.3078(11) 0.5917(11) 0.5900(5)
C2 C 0.2850(11) 0.6567(11) 0.5870(6)
C3 C 0.4214(13) 0.5680(13) 0.6783(6)
C4 C 0.3731(13) 0.5378(13) 0.6359(6)
H1 H 0.4069 0.5398 0.6099
O4 O 0.4271(8) 0.6296(8) 0.6982(4)
O5 O 0.4541(9) 0.5318(9) 0.6944(4)
Cu2 Cu 0.24382(15) 0.56530(16) 0.50181(6)
O6 O 0.3447(7) 0.6159(8) 0.4666(4)
O7 O 0.2382(7) 0.6351(7) 0.3745(3)
O8 O 0.3851(7) 0.6592(7) 0.3956(4)
N2 N 0.2024(9) 0.5858(9) 0.4480(4)
O9 O 0.1330(8) 0.5116(8) 0.5202(4)
O10 O 0.0167(9) 0.5081(11) 0.5054(4)
C5 C 0.3109(13) 0.4541(13) 0.6448(6)
C6 C 0.308(2) 0.395(2) 0.6229(10)
H2 H 0.3438 0.4039 0.5985
C7 C 0.255(3) 0.320(2) 0.6351(13)
H3 H 0.2587 0.2787 0.6200
C8 C 0.197(2) 0.2974(19) 0.6673(13)
H4 H 0.1601 0.2441 0.6735
C9 C 0.1965(16) 0.3557(19) 0.6885(10)
H5 H 0.1579 0.3446 0.7112
C10 C 0.2528(15) 0.4358(16) 0.6786(8)
H6 H 0.2511 0.4768 0.6947
C11 C 0.3357(13) 0.6337(11) 0.4253(6)
C12 C 0.2510(11) 0.6171(10) 0.4136(5)
C13 C 0.1201(12) 0.5620(13) 0.4479(5)
H7 H 0.0932 0.5213 0.4238
C14 C 0.0860(18) 0.5231(12) 0.4965(6)
C15 C 0.1032(14) 0.6288(17) 0.4394(7)
C16 C 0.1393(13) 0.6961(17) 0.4646(10)
H8 H 0.1803 0.7045 0.4849
C17 C 0.1167(18) 0.7527(18) 0.4608(12)
H9 H 0.1400 0.7969 0.4805
C18 C 0.060(2) 0.747(4) 0.4288(17)
H10 H 0.0456 0.7856 0.4257
C19 C 0.027(2) 0.676(3) 0.4012(10)
C20 C 0.0458(18) 0.619(2) 0.4080(9)
H12 H 0.0192 0.5719 0.3910
Ni1 Ni 0.48805(18) 0.51648(17) 0.76037(8)
N3 N 0.5966(16) 0.5979(16) 0.7488(9)
H13 H 0.6286 0.5869 0.7709
N4 N 0.5104(17) 0.4395(17) 0.7299(8)
H14 H 0.5381 0.4247 0.7530
C21 C 0.631(2) 0.531(3) 0.6987(11)
H15 H 0.6641 0.5402 0.6714
H16 H 0.6571 0.5208 0.7245
N5 N 0.4642(19) 0.5983(16) 0.7905(7)
H17 H 0.4447 0.6189 0.7657
C22 C 0.553(2) 0.456(2) 0.6903(8)
H18 H 0.5248 0.4627 0.6646
H19 H 0.5628 0.4121 0.6828
C23 C 0.536(2) 0.6585(17) 0.8031(13)
H20 H 0.5510 0.6488 0.8338
H21 H 0.5363 0.7087 0.8038
C24 C 0.632(3) 0.608(4) 0.7093(15)
H22 H 0.6869 0.6523 0.7111
H23 H 0.6045 0.6201 0.6851
C25 C 0.409(2) 0.574(3) 0.8267(7)
H24 H 0.3981 0.6172 0.8340
H25 H 0.4307 0.5635 0.8543
C26 C 0.323(2) 0.420(3) 0.8004(11)
H26 H 0.3341 0.3982 0.8277
H27 H 0.2676 0.3843 0.7915
C27 C 0.331(3) 0.500(3) 0.813(2)
H28 H 0.2949 0.4896 0.8389
H29 H 0.3103 0.5155 0.7871
C28 C 0.438(2) 0.374(2) 0.7238(16)
H30 H 0.4465 0.3292 0.7193
H31 H 0.4167 0.3815 0.6947
N6 N 0.3693(15) 0.4242(19) 0.7666(9)
H32 H 0.3430 0.4283 0.7384
C29 C 0.594(3) 0.661(3) 0.7669(18)
H33 H 0.5883 0.6891 0.7405
H34 H 0.6469 0.6959 0.7795
C30 C 0.375(2) 0.350(2) 0.7596(13)
H35 H 0.3894 0.3345 0.7883
H36 H 0.3241 0.3065 0.7486
O11 O 0.2209(14) 0.4277(13) 0.4788(8)
Cu3 Cu 0.32865(14) 0.69175(21) 0.33600(6)
O12 O 0.3969(10) 0.7618(7) 0.7078(3)
O13 O 0.2741(10) 0.6149(7) 0.7289(4)
O14 O 0.5086(14) 0.4919(11) 0.8279(4)
H37 H 0.16855 0.386641 0.489726
H38 H 0.223347 0.424594 0.445063
H11 H 0.9911 0.6699 0.3776
Ni2 Ni 0.97157(25) 0.48352(17) 0.57296(8)
H13_2 H 0.4131 0.0417 0.4376
N4_2 N 0.5605(17) 0.0709(24) 0.3966(8)
H14_2 H 0.5753 0.1134 0.4197
C21_2 C 0.469(3) 0.100(4) 0.3654(11)
H15_2 H 0.4598 0.1239 0.3381
H16_2 H 0.4792 0.1363 0.3912
C22_2 C 0.544(2) 0.097(3) 0.3570(8)
H18_2 H 0.5373 0.0621 0.3313
H19_2 H 0.5879 0.1507 0.3495
C24_2 C 0.392(4) 0.024(5) 0.3760(15)
H22_2 H 0.3477 0.0346 0.3778
C28_2 C 0.626(2) 0.064(3) 0.3905(16)
H30_2 H 0.6708 0.1173 0.3860
H31_2 H 0.6185 0.0352 0.3614
C30_2 C 0.650(2) 0.025(3) 0.4263(13)
H35_2 H 0.6655 0.0549 0.4550
H36_2 H 0.6935 0.0176 0.4153
O14_2 O 0.5081(11) 0.0167(18) 0.4946(4)
O1_2 O 0.2968(8) 0.6065(11) 0.2900(4)
O2_2 O 0.3343(8) 0.5918(11) 0.2194(4)
O3_2 O 0.4557(8) 0.7462(11) 0.2220(3)
N1_2 N 0.4102(9) 0.7508(13) 0.2931(4)
C1_2 C 0.4083(11) 0.7161(16) 0.2567(5)
C2_2 C 0.3433(11) 0.6283(16) 0.2537(6)
C3_2 C 0.4320(13) 0.8534(18) 0.3450(6)
C4_2 C 0.4622(13) 0.8353(18) 0.3026(6)
H1_2 H 0.4602 0.8671 0.2766
O4_2 O 0.3704(8) 0.7975(11) 0.3649(4)
O5_2 O 0.4682(9) 0.9223(13) 0.3611(4)
Cu2_2 Cu 0.43470(16) 0.67852(22) 0.16848(6)
O6_2 O 0.3841(8) 0.7288(11) 0.1333(4)
O7_2 O 0.3649(7) 0.6031(10) 0.0412(3)
O8_2 O 0.3408(7) 0.7259(10) 0.0623(4)
N2_2 N 0.4142(9) 0.6166(13) 0.1147(4)
O9_2 O 0.4884(8) 0.6214(11) 0.1869(4)
O10_2 O 0.4919(11) 0.5086(14) 0.1721(4)
C5_2 C 0.5459(13) 0.8568(18) 0.3115(6)
C6_2 C 0.605(2) 0.913(3) 0.2896(10)
H2_2 H 0.5961 0.9399 0.2652
C7_2 C 0.680(2) 0.935(4) 0.3018(13)
H3_2 H 0.7213 0.9800 0.2867
C8_2 C 0.7026(19) 0.8996(28) 0.3340(13)
H4_2 H 0.7559 0.9160 0.3402
C9_2 C 0.6443(19) 0.8408(25) 0.3552(10)
H5_2 H 0.6554 0.8133 0.3779
C10_2 C 0.5642(16) 0.8170(22) 0.3453(8)
H6_2 H 0.5232 0.7743 0.3614
C11_2 C 0.3663(11) 0.7020(17) 0.0920(6)
C12_2 C 0.3829(10) 0.6339(15) 0.0803(5)
C13_2 C 0.4380(13) 0.5581(18) 0.1146(5)
H7_2 H 0.4787 0.5719 0.0905
C14_2 C 0.4769(12) 0.5629(22) 0.1632(6)
C15_2 C 0.3712(17) 0.4744(22) 0.1061(7)
C16_2 C 0.3039(17) 0.4432(21) 0.1313(10)
H8_2 H 0.2955 0.4758 0.1516
C17_2 C 0.2473(18) 0.3640(25) 0.1275(12)
H9_2 H 0.2031 0.3431 0.1472
C18_2 C 0.253(4) 0.313(4) 0.0955(17)
H10_2 H 0.2144 0.2600 0.0924
C19_2 C 0.324(3) 0.351(4) 0.0679(10)
H11_2 H 0.3301 0.3212 0.0443
C20_2 C 0.381(2) 0.4268(27) 0.0747(9)
H12_2 H 0.4281 0.4473 0.0577
Ni1_2 Ni 0.48352(17) 0.97157(25) 0.42704(8)
N3_2 N 0.4021(16) 0.9987(23) 0.4155(9)
N5_2 N 0.4017(16) 0.8659(25) 0.4572(7)
H17_2 H 0.3811 0.8258 0.4324
C23_2 C 0.3415(17) 0.8775(26) 0.4698(13)
H20_2 H 0.3512 0.9022 0.5005
H21_2 H 0.2913 0.8276 0.4705
H23_2 H 0.3799 0.9844 0.3518
C25_2 C 0.426(3) 0.835(4) 0.4934(7)
H24_2 H 0.3828 0.7809 0.5007
H25_2 H 0.4365 0.8672 0.5210
C26_2 C 0.580(3) 0.903(4) 0.4671(11)
H26_2 H 0.6018 0.9359 0.4944
H27_2 H 0.6157 0.8833 0.4582
C27_2 C 0.500(3) 0.831(4) 0.480(2)
H28_2 H 0.5104 0.8053 0.5056
H29_2 H 0.4845 0.7948 0.4538
N6_2 N 0.5758(19) 0.9451(24) 0.4333(9)
H32_2 H 0.5717 0.9147 0.4051
C29_2 C 0.339(3) 0.933(4) 0.4336(18)
H33_2 H 0.3109 0.8992 0.4072
H34_2 H 0.3041 0.9510 0.4462
O11_2 O 0.5723(13) 0.7932(19) 0.1455(8)
Cu3_2 Cu 0.30825(21) 0.63690(25) 0.00266(6)
Ni2_2 Ni 0.51648(17) 0.48805(30) 0.23963(8)
H37_2 H 0.613359 0.781909 0.156392
H38_2 H 0.575406 0.798754 0.111729
H11_3 H 0.6788 0.0089 0.7109
Ni2_3 Ni 0.51195(30) 0.02843(25) 0.90630(8)
C3_3 C 0.1466(18) 0.5786(13) 0.0116(6)
O4_3 O 0.2025(11) 0.5729(8) 0.0315(4)
O5_3 O 0.0777(13) 0.5459(9) 0.0277(4)
C8_3 C 0.1004(28) 0.803(2) 0.0006(13)
H4_3 H 0.0840 0.8399 0.0068
C9_3 C 0.1592(25) 0.8035(16) 0.0218(10)
H5_3 H 0.1867 0.8421 0.0445
C10_3 C 0.1830(22) 0.7472(15) 0.0119(8)
H6_3 H 0.2257 0.7489 0.0280
Ni1_3 Ni 0.02843(25) 0.51195(18) 0.09370(8)
N3_3 N 0.0013(23) 0.4034(16) 0.0821(9)
N5_3 N 0.1341(25) 0.5358(19) 0.1238(7)
H17_3 H 0.1742 0.5553 0.0990
C23_3 C 0.1225(26) 0.464(2) 0.1364(13)
H20_3 H 0.0978 0.4490 0.1671
H21_3 H 0.1724 0.4637 0.1371
H23_3 H 0.0156 0.3955 0.0184
C25_3 C 0.165(4) 0.591(2) 0.1600(7)
H24_3 H 0.2191 0.6019 0.1673
H25_3 H 0.1328 0.5693 0.1876
C26_3 C 0.097(4) 0.677(2) 0.1337(11)
H26_3 H 0.0641 0.6659 0.1610
H27_3 H 0.1167 0.7324 0.1248
C27_3 C 0.169(4) 0.669(3) 0.146(2)
H28_3 H 0.1947 0.7051 0.1722
H29_3 H 0.2052 0.6897 0.1204
N6_3 N 0.0549(24) 0.6307(15) 0.0999(9)
H32_3 H 0.0853 0.6570 0.0717
C29_3 C 0.067(4) 0.406(3) 0.1002(18)
H33_3 H 0.1008 0.4117 0.0738
H34_3 H 0.0490 0.3531 0.1128
O1_3 O 0.3935(11) 0.6903(8) 0.9566(4)
O2_3 O 0.4082(11) 0.7425(8) 0.8860(4)
O3_3 O 0.2538(11) 0.7095(8) 0.8886(3)
N1_3 N 0.2492(13) 0.6594(9) 0.9597(4)
C1_3 C 0.2839(16) 0.6922(11) 0.9233(5)
C2_3 C 0.3717(16) 0.7150(11) 0.9203(6)
C4_3 C 0.1647(18) 0.6269(13) 0.9692(6)
H1_3 H 0.1329 0.5931 0.9432
Cu2_3 Cu 0.32148(22) 0.75618(15) 0.83514(6)
O6_3 O 0.2712(11) 0.6553(7) 0.7999(4)
N2_3 N 0.3834(13) 0.7976(9) 0.7813(4)
O9_3 O 0.3786(11) 0.8670(8) 0.8535(4)
O10_3 O 0.4914(14) 0.9833(9) 0.8387(4)
C5_3 C 0.1432(18) 0.6891(13) 0.9781(6)
C6_3 C 0.087(3) 0.692(2) 0.9562(10)
H2_3 H 0.0601 0.6562 0.9318
C7_3 C 0.065(4) 0.745(3) 0.9684(13)
H3_3 H 0.0200 0.7413 0.9533
C11_3 C 0.2980(17) 0.6643(13) 0.7586(6)
C12_3 C 0.3661(15) 0.7490(11) 0.7469(5)
C13_3 C 0.4419(18) 0.8799(12) 0.7812(5)
H7_3 H 0.4281 0.9068 0.7571
C14_3 C 0.4371(22) 0.9140(18) 0.8298(6)
C15_3 C 0.5256(22) 0.8968(14) 0.7727(7)
C16_3 C 0.5568(21) 0.8607(13) 0.7979(10)
H8_3 H 0.5242 0.8197 0.8182
C17_3 C 0.6360(25) 0.8833(18) 0.7941(12)
H9_3 H 0.6569 0.8600 0.8138
C18_3 C 0.687(4) 0.940(2) 0.7621(17)
H10_3 H 0.7400 0.9544 0.7590
C19_3 C 0.649(4) 0.973(2) 0.7345(10)
C20_3 C 0.5732(27) 0.9542(18) 0.7413(9)
H12_3 H 0.5527 0.9808 0.7243
O11_3 O 0.2068(19) 0.7791(14) 0.8121(8)
H37_3 H 0.218091 0.83145 0.823059
H38_3 H 0.201246 0.776653 0.778396
H13_3 H 0.9583 0.3714 0.1042
N4_3 N 0.9291(24) 0.4896(17) 0.0632(8)
H14_3 H 0.8866 0.4619 0.0863
C21_3 C 0.900(4) 0.369(2) 0.0320(11)
H15_3 H 0.8761 0.3359 0.0047
H16_3 H 0.8637 0.3429 0.0578
C22_3 C 0.903(3) 0.447(2) 0.0236(8)
H19_3 H 0.8493 0.4372 0.0161
C24_3 C 0.976(5) 0.368(3) 0.0426(15)
H22_3 H 0.9654 0.3131 0.0444
C28_3 C 0.936(3) 0.562(2) 0.0571(16)
H30_3 H 0.8827 0.5535 0.0526
H31_3 H 0.9648 0.5833 0.0280
C30_3 C 0.975(3) 0.625(2) 0.0929(13)
H35_3 H 0.9451 0.6106 0.1216
H36_3 H 0.9824 0.6759 0.0819
O14_3 O 0.9833(18) 0.4914(14) 0.1613(4)
Cu1_2 Cu 0.67135(14) 0.36310(15) 0.33067(6)
O1_4 O 0.7032(8) 0.3097(8) 0.3767(4)
O2_4 O 0.6657(8) 0.2575(8) 0.4473(4)
O3_4 O 0.5443(8) 0.2905(8) 0.4447(3)
N1_4 N 0.5898(9) 0.3406(9) 0.3736(4)
C1_4 C 0.5917(11) 0.3078(11) 0.4100(5)
C2_4 C 0.6567(11) 0.2850(11) 0.4130(6)
C3_4 C 0.5680(13) 0.4214(13) 0.3217(6)
C4_4 C 0.5378(13) 0.3731(13) 0.3641(6)
H1_4 H 0.5398 0.4069 0.3901
O4_4 O 0.6296(8) 0.4271(8) 0.3018(4)
O5_4 O 0.5318(9) 0.4541(9) 0.3056(4)
Cu2_4 Cu 0.56530(16) 0.24382(15) 0.49819(6)
O6_4 O 0.6159(8) 0.3447(7) 0.5334(4)
O7_3 O 0.6351(7) 0.2382(7) 0.6255(3)
O8_3 O 0.6592(7) 0.3851(7) 0.6044(4)
N2_4 N 0.5858(9) 0.2024(9) 0.5520(4)
O9_4 O 0.5116(8) 0.1330(8) 0.4798(4)
C5_4 C 0.4541(13) 0.3109(13) 0.3552(6)
C6_4 C 0.395(2) 0.308(2) 0.3771(10)
H2_4 H 0.4039 0.3438 0.4015
C7_4 C 0.320(2) 0.255(3) 0.3649(13)
H3_4 H 0.2787 0.2587 0.3800
C8_4 C 0.2974(19) 0.197(2) 0.3327(13)
H4_4 H 0.2441 0.1601 0.3265
C9_4 C 0.3557(19) 0.1965(16) 0.3115(10)
H5_4 H 0.3446 0.1579 0.2888
C10_4 C 0.4358(16) 0.2528(15) 0.3214(8)
H6_4 H 0.4768 0.2511 0.3053
C11_4 C 0.6337(11) 0.3357(13) 0.5747(6)
C12_4 C 0.6171(10) 0.2510(11) 0.5864(5)
C13_4 C 0.5620(13) 0.1201(12) 0.5521(5)
H7_4 H 0.5213 0.0932 0.5762
C14_4 C 0.5231(12) 0.0860(18) 0.5035(6)
C15_4 C 0.6288(17) 0.1032(14) 0.5606(7)
C16_4 C 0.6961(17) 0.1393(13) 0.5354(10)
H8_4 H 0.7045 0.1803 0.5151
C17_4 C 0.7527(18) 0.1167(18) 0.5392(12)
H9_4 H 0.7969 0.1400 0.5195
C18_4 C 0.747(4) 0.060(2) 0.5712(17)
H10_4 H 0.7856 0.0456 0.5743
C19_4 C 0.676(3) 0.027(2) 0.5988(10)
C20_4 C 0.619(2) 0.0458(18) 0.5920(9)
H12_4 H 0.5719 0.0192 0.6090
N3_4 N 0.5979(16) 0.5966(16) 0.2512(9)
H13_4 H 0.5869 0.6286 0.2291
N4_4 N 0.4395(17) 0.5104(17) 0.2701(8)
H14_4 H 0.4247 0.5381 0.2470
C21_4 C 0.531(3) 0.631(2) 0.3013(11)
H15_4 H 0.5402 0.6641 0.3286
H16_4 H 0.5208 0.6571 0.2755
N5_4 N 0.5983(16) 0.4642(19) 0.2095(7)
H17_4 H 0.6189 0.4447 0.2343
C22_4 C 0.456(2) 0.553(2) 0.3097(8)
H18_3 H 0.4627 0.5248 0.3354
H19_4 H 0.4121 0.5628 0.3172
C23_4 C 0.6585(17) 0.536(2) 0.1969(13)
H20_4 H 0.6488 0.5510 0.1662
H21_4 H 0.7087 0.5363 0.1962
C24_4 C 0.608(4) 0.632(3) 0.2907(15)
H22_4 H 0.6523 0.6869 0.2889
H23_4 H 0.6201 0.6045 0.3149
C25_4 C 0.574(3) 0.409(2) 0.1733(7)
H24_4 H 0.6172 0.3981 0.1660
H25_4 H 0.5635 0.4307 0.1457
C26_4 C 0.420(3) 0.323(2) 0.1996(11)
H26_4 H 0.3982 0.3341 0.1723
H27_4 H 0.3843 0.2676 0.2085
C27_4 C 0.500(3) 0.331(3) 0.187(2)
H28_4 H 0.4896 0.2949 0.1611
H29_4 H 0.5155 0.3103 0.2129
C28_4 C 0.374(2) 0.438(2) 0.2762(16)
H30_4 H 0.3292 0.4465 0.2807
H31_4 H 0.3815 0.4167 0.3053
N6_4 N 0.4242(19) 0.3693(15) 0.2334(9)
H32_4 H 0.4283 0.3430 0.2616
C29_4 C 0.661(3) 0.594(3) 0.2331(18)
H33_4 H 0.6891 0.5883 0.2595
H34_4 H 0.6959 0.6469 0.2205
C30_4 C 0.350(2) 0.375(2) 0.2404(13)
H35_4 H 0.3345 0.3894 0.2117
H36_4 H 0.3065 0.3241 0.2514
O11_4 O 0.4277(13) 0.2209(14) 0.5212(8)
Cu3_3 Cu 0.69175(21) 0.32865(14) 0.66400(6)
O12_2 O 0.7618(7) 0.3969(10) 0.2922(3)
O13_2 O 0.6149(7) 0.2741(10) 0.2711(4)
H37_4 H 0.386641 0.16855 0.510274
H38_4 H 0.424594 0.223347 0.554937
H11_4 H 0.6699 0.9911 0.6224
H13_5 H 0.0417 0.4131 0.5624
N4_5 N 0.0709(24) 0.5605(17) 0.6034(8)
H14_5 H 0.1134 0.5753 0.5803
C21_5 C 0.100(4) 0.469(3) 0.6346(11)
H15_5 H 0.1239 0.4598 0.6619
H16_5 H 0.1363 0.4792 0.6088
C22_5 C 0.097(3) 0.544(2) 0.6430(8)
H18_4 H 0.0621 0.5373 0.6687
H19_5 H 0.1507 0.5879 0.6505
C24_5 C 0.024(5) 0.392(4) 0.6240(15)
H22_5 H 0.0346 0.3477 0.6222
C28_5 C 0.064(3) 0.626(2) 0.6095(16)
H30_5 H 0.1173 0.6708 0.6140
H31_5 H 0.0352 0.6185 0.6386
C30_5 C 0.025(3) 0.650(2) 0.5737(13)
H35_5 H 0.0549 0.6655 0.5450
H36_5 H 0.0176 0.6935 0.5847
O1_5 O 0.6065(11) 0.2968(8) 0.7100(4)
O2_5 O 0.5918(11) 0.3343(8) 0.7806(4)
O3_5 O 0.7462(11) 0.4557(8) 0.7780(3)
N1_5 N 0.7508(13) 0.4102(9) 0.7069(4)
C1_5 C 0.7161(16) 0.4083(11) 0.7433(5)
C2_5 C 0.6283(16) 0.3433(11) 0.7463(6)
C3_5 C 0.8534(18) 0.4320(13) 0.6550(6)
C4_5 C 0.8353(18) 0.4622(13) 0.6974(6)
H1_5 H 0.8671 0.4602 0.7234
O4_5 O 0.7975(11) 0.3704(8) 0.6351(4)
O5_5 O 0.9223(13) 0.4682(9) 0.6389(4)
Cu2_5 Cu 0.67852(22) 0.43470(16) 0.83152(6)
O6_5 O 0.7288(11) 0.3841(8) 0.8667(4)
O7_4 O 0.6031(10) 0.3649(7) 0.9588(3)
O8_4 O 0.7259(10) 0.3408(7) 0.9377(4)
N2_5 N 0.6166(13) 0.4142(9) 0.8853(4)
O9_5 O 0.6214(11) 0.4884(8) 0.8131(4)
C5_5 C 0.8568(18) 0.5459(13) 0.6885(6)
C6_5 C 0.913(3) 0.605(2) 0.7104(10)
H2_5 H 0.9399 0.5961 0.7348
C7_5 C 0.935(4) 0.680(2) 0.6982(13)
H3_5 H 0.9800 0.7213 0.7133
C8_5 C 0.8996(28) 0.7026(19) 0.6660(13)
H4_5 H 0.9160 0.7559 0.6598
C9_5 C 0.8408(25) 0.6443(19) 0.6448(10)
H5_5 H 0.8133 0.6554 0.6221
C10_5 C 0.8170(22) 0.5642(16) 0.6547(8)
H6_5 H 0.7743 0.5232 0.6386
C11_5 C 0.7020(17) 0.3663(11) 0.9080(6)
C12_5 C 0.6339(15) 0.3829(10) 0.9197(5)
C13_5 C 0.5581(18) 0.4380(13) 0.8854(5)
H7_5 H 0.5719 0.4787 0.9095
C14_5 C 0.5629(22) 0.4769(12) 0.8368(6)
C15_5 C 0.4744(22) 0.3712(17) 0.8939(7)
C16_5 C 0.4432(21) 0.3039(17) 0.8687(10)
H8_5 H 0.4758 0.2955 0.8484
C17_5 C 0.3640(25) 0.2473(18) 0.8725(12)
H9_5 H 0.3431 0.2031 0.8528
C18_5 C 0.313(4) 0.253(4) 0.9045(17)
H10_5 H 0.2600 0.2144 0.9076
C19_5 C 0.351(4) 0.324(3) 0.9321(10)
H11_5 H 0.3212 0.3301 0.9557
C20_5 C 0.4268(27) 0.381(2) 0.9253(9)
H12_5 H 0.4473 0.4281 0.9423
N3_5 N 0.9987(23) 0.4021(16) 0.5845(9)
N5_5 N 0.8659(25) 0.4017(16) 0.5428(7)
H17_5 H 0.8258 0.3811 0.5676
C23_5 C 0.8775(26) 0.3415(17) 0.5302(13)
H20_5 H 0.9022 0.3512 0.4995
H21_5 H 0.8276 0.2913 0.5295
H23_5 H 0.9844 0.3799 0.6482
C25_5 C 0.835(4) 0.426(3) 0.5066(7)
H24_5 H 0.7809 0.3828 0.4993
H25_5 H 0.8672 0.4365 0.4790
C26_5 C 0.903(4) 0.580(3) 0.5329(11)
H26_5 H 0.9359 0.6018 0.5056
H27_5 H 0.8833 0.6157 0.5418
C27_5 C 0.831(4) 0.500(3) 0.520(2)
H28_5 H 0.8053 0.5104 0.4944
H29_5 H 0.7948 0.4845 0.5462
N6_5 N 0.9451(24) 0.5758(19) 0.5667(9)
H32_5 H 0.9147 0.5717 0.5949
C29_5 C 0.933(4) 0.339(3) 0.5664(18)
H33_5 H 0.8992 0.3109 0.5928
H34_5 H 0.9510 0.3041 0.5538
O11_5 O 0.7932(19) 0.5723(13) 0.8545(8)
Cu3_4 Cu 0.63690(25) 0.30825(21) 0.99734(6)
H37_5 H 0.781909 0.613359 0.843608
H38_5 H 0.798754 0.575406 0.888271
H11_6 H 0.0089 0.6788 0.2891
O1_6 O 0.6903(8) 0.3935(11) 0.0434(4)
O2_6 O 0.7425(8) 0.4082(11) 0.1140(4)
O3_6 O 0.7095(8) 0.2538(11) 0.1114(3)
N1_6 N 0.6594(9) 0.2492(13) 0.0403(4)
C1_6 C 0.6922(11) 0.2839(16) 0.0767(5)
C2_6 C 0.7150(11) 0.3717(16) 0.0797(6)
C4_6 C 0.6269(13) 0.1647(18) 0.0308(6)
H1_6 H 0.5931 0.1329 0.0568
Cu2_6 Cu 0.75618(15) 0.32148(22) 0.16486(6)
O6_6 O 0.6553(7) 0.2712(11) 0.2001(4)
N2_6 N 0.7976(9) 0.3834(13) 0.2187(4)
O9_6 O 0.8670(8) 0.3786(11) 0.1465(4)
C5_6 C 0.6891(13) 0.1432(18) 0.0219(6)
C6_6 C 0.692(2) 0.087(3) 0.0438(10)
H2_6 H 0.6562 0.0601 0.0682
C7_6 C 0.745(3) 0.065(4) 0.0316(13)
H3_6 H 0.7413 0.0200 0.0467
C11_6 C 0.6643(13) 0.2980(17) 0.2414(6)
C12_6 C 0.7490(11) 0.3661(15) 0.2531(5)
C13_6 C 0.8799(12) 0.4419(18) 0.2188(5)
H7_6 H 0.9068 0.4281 0.2429
C14_6 C 0.9140(18) 0.4371(22) 0.1702(6)
C15_6 C 0.8968(14) 0.5256(22) 0.2273(7)
C16_6 C 0.8607(13) 0.5568(21) 0.2021(10)
H8_6 H 0.8197 0.5242 0.1818
C17_6 C 0.8833(18) 0.6360(25) 0.2059(12)
H9_6 H 0.8600 0.6569 0.1862
C18_6 C 0.940(2) 0.687(4) 0.2379(17)
H10_6 H 0.9544 0.7400 0.2410
C19_6 C 0.973(2) 0.649(4) 0.2655(10)
C20_6 C 0.9542(18) 0.5732(27) 0.2587(9)
H12_6 H 0.9808 0.5527 0.2757
O11_6 O 0.7791(14) 0.2068(19) 0.1879(8)
H37_6 H 0.83145 0.218091 0.176941
H38_6 H 0.776653 0.201246 0.221604
C3_6 C 0.5786(13) 0.1466(18) 0.9884(6)
O4_6 O 0.5729(8) 0.2025(11) 0.9685(4)
O5_6 O 0.5459(9) 0.0777(13) 0.9723(4)
C8_6 C 0.803(2) 0.1004(28) 0.9994(13)
H4_6 H 0.8399 0.0840 0.9932
C9_6 C 0.8035(16) 0.1592(25) 0.9782(10)
H5_6 H 0.8421 0.1867 0.9555
C10_6 C 0.7472(15) 0.1830(22) 0.9881(8)
H6_6 H 0.7489 0.2257 0.9720
N3_6 N 0.4034(16) 0.0013(23) 0.9179(9)
N5_6 N 0.5358(19) 0.1341(25) 0.8762(7)
H17_6 H 0.5553 0.1742 0.9010
C23_6 C 0.464(2) 0.1225(26) 0.8636(13)
H20_6 H 0.4490 0.0978 0.8329
H21_6 H 0.4637 0.1724 0.8629
H23_6 H 0.3955 0.0156 0.9816
C25_6 C 0.591(2) 0.165(4) 0.8400(7)
H24_6 H 0.6019 0.2191 0.8327
H25_6 H 0.5693 0.1328 0.8124
C26_6 C 0.677(2) 0.097(4) 0.8663(11)
H26_6 H 0.6659 0.0641 0.8390
H27_6 H 0.7324 0.1167 0.8752
C27_6 C 0.669(3) 0.169(4) 0.854(2)
H28_6 H 0.7051 0.1947 0.8278
H29_6 H 0.6897 0.2052 0.8796
N6_6 N 0.6307(15) 0.0549(24) 0.9001(9)
H32_6 H 0.6570 0.0853 0.9283
C29_6 C 0.406(3) 0.067(4) 0.8998(18)
H33_6 H 0.4117 0.1008 0.9262
H34_6 H 0.3531 0.0490 0.8872
H13_6 H 0.3714 0.9583 0.8958
N4_6 N 0.4896(17) 0.9291(24) 0.9368(8)
H14_6 H 0.4619 0.8866 0.9137
C21_6 C 0.369(2) 0.900(4) 0.9680(11)
H15_6 H 0.3359 0.8761 0.9953
H16_6 H 0.3429 0.8637 0.9422
C22_6 C 0.447(2) 0.903(3) 0.9764(8)
H19_6 H 0.4372 0.8493 0.9839
C24_6 C 0.368(3) 0.976(5) 0.9574(15)
H22_6 H 0.3131 0.9654 0.9556
C28_6 C 0.562(2) 0.936(3) 0.9429(16)
H30_6 H 0.5535 0.8827 0.9474
H31_6 H 0.5833 0.9648 0.9720
C30_6 C 0.625(2) 0.975(3) 0.9071(13)
H35_6 H 0.6106 0.9451 0.8784
H36_6 H 0.6759 0.9824 0.9181
H18_5 H 0.9379 0.4752 0.9979
H18_6 H 0.4752 0.9379 0.0021
loop_
_geom_bond_atom_site_label_1
_geom_bond_atom_site_label_2
_geom_bond_site_symmetry_1
_geom_bond_site_symmetry_2
Cu1 O1 1_555 1_555
O1 C2 1_555 1_555
O2 C2 1_555 1_555
O3 C1 1_555 1_555
N1 Cu1 1_555 1_555
C1 N1 1_555 1_555
C2 C1 1_555 1_555
C3 C4 1_555 1_555
C4 N1 1_555 1_555
H1 C4 1_555 1_555
O4 Cu1 1_555 1_555
O5 C3 1_555 1_555
Cu2 O2 1_555 1_555
O6 Cu2 1_555 1_555
O7 C12 1_555 1_555
O8 C11 1_555 1_555
N2 Cu2 1_555 1_555
O9 Cu2 1_555 1_555
O10 C14 1_555 1_555
C5 C4 1_555 1_555
C6 C5 1_555 1_555
H2 C6 1_555 1_555
C7 C6 1_555 1_555
H3 C7 1_555 1_555
C8 C7 1_555 1_555
H4 C8 1_555 1_555
C9 C8 1_555 1_555
H5 C9 1_555 1_555
C10 C5 1_555 1_555
H6 C10 1_555 1_555
C11 O6 1_555 1_555
C12 N2 1_555 1_555
C13 N2 1_555 1_555
H7 C13 1_555 1_555
C14 O9 1_555 1_555
C15 C13 1_555 1_555
C16 C15 1_555 1_555
H8 C16 1_555 1_555
C17 C16 1_555 1_555
H9 C17 1_555 1_555
C18 C17 1_555 1_555
H10 C18 1_555 1_555
C19 C18 1_555 1_555
C20 C15 1_555 1_555
H12 C20 1_555 1_555
Ni1 O5 1_555 1_555
N3 Ni1 1_555 1_555
H13 N3 1_555 1_555
N4 Ni1 1_555 1_555
H14 N4 1_555 1_555
C21 H15 1_555 1_555
H16 C21 1_555 1_555
N5 Ni1 1_555 1_555
H17 N5 1_555 1_555
C22 N4 1_555 1_555
H18 C22 1_555 1_555
H19 C22 1_555 1_555
C23 N5 1_555 1_555
H20 C23 1_555 1_555
H21 C23 1_555 1_555
C24 N3 1_555 1_555
H22 C24 1_555 1_555
H23 C24 1_555 1_555
C25 N5 1_555 1_555
H24 C25 1_555 1_555
H25 C25 1_555 1_555
C26 H26 1_555 1_555
H27 C26 1_555 1_555
C27 C25 1_555 1_555
H28 C27 1_555 1_555
H29 C27 1_555 1_555
C28 N4 1_555 1_555
H30 C28 1_555 1_555
H31 C28 1_555 1_555
N6 Ni1 1_555 1_555
H32 N6 1_555 1_555
C29 N3 1_555 1_555
H33 C29 1_555 1_555
H34 C29 1_555 1_555
C30 C28 1_555 1_555
H35 C30 1_555 1_555
H36 C30 1_555 1_555
O11 Cu2 1_555 1_555
Cu3 O7 1_555 1_555
O12 Cu1 1_555 1_555
O13 Cu1 1_555 1_555
O14 Ni1 1_555 1_555
O3 Cu2 1_555 1_555
C3 O4 1_555 1_555
O8 Cu3 1_555 1_555
C9 C10 1_555 1_555
C11 C12 1_555 1_555
C13 C14 1_555 1_555
C19 C20 1_555 1_555
C21 C22 1_555 1_555
C21 C24 1_555 1_555
C23 C29 1_555 1_555
C26 C27 1_555 1_555
C26 N6 1_555 1_555
N6 C30 1_555 1_555
O11 H37 1_555 1_555
O11 H38 1_555 1_555
H14_2 N4_2 1_555 1_555
C21_2 H15_2 1_555 1_555
H16_2 C21_2 1_555 1_555
C22_2 N4_2 1_555 1_555
H18_2 C22_2 1_555 1_555
H19_2 C22_2 1_555 1_555
H22_2 C24_2 1_555 1_555
C28_2 N4_2 1_555 1_555
H30_2 C28_2 1_555 1_555
H31_2 C28_2 1_555 1_555
C30_2 C28_2 1_555 1_555
H35_2 C30_2 1_555 1_555
H36_2 C30_2 1_555 1_555
C21_2 C22_2 1_555 1_555
C21_2 C24_2 1_555 1_555
Cu3 O1_2 1_555 1_555
O1_2 C2_2 1_555 1_555
O2_2 C2_2 1_555 1_555
O3_2 C1_2 1_555 1_555
N1_2 Cu3 1_555 1_555
C1_2 N1_2 1_555 1_555
C2_2 C1_2 1_555 1_555
C3_2 C4_2 1_555 1_555
C4_2 N1_2 1_555 1_555
H1_2 C4_2 1_555 1_555
O4_2 Cu3 1_555 1_555
O5_2 C3_2 1_555 1_555
Cu2_2 O2_2 1_555 1_555
O6_2 Cu2_2 1_555 1_555
O7_2 C12_2 1_555 1_555
O8_2 C11_2 1_555 1_555
N2_2 Cu2_2 1_555 1_555
O9_2 Cu2_2 1_555 1_555
O10_2 C14_2 1_555 1_555
C5_2 C4_2 1_555 1_555
C6_2 C5_2 1_555 1_555
H2_2 C6_2 1_555 1_555
C7_2 C6_2 1_555 1_555
H3_2 C7_2 1_555 1_555
C8_2 C7_2 1_555 1_555
H4_2 C8_2 1_555 1_555
C9_2 C8_2 1_555 1_555
H5_2 C9_2 1_555 1_555
C10_2 C5_2 1_555 1_555
H6_2 C10_2 1_555 1_555
C11_2 O6_2 1_555 1_555
C12_2 N2_2 1_555 1_555
C13_2 N2_2 1_555 1_555
H7_2 C13_2 1_555 1_555
C14_2 O9_2 1_555 1_555
C15_2 C13_2 1_555 1_555
C16_2 C15_2 1_555 1_555
H8_2 C16_2 1_555 1_555
C17_2 C16_2 1_555 1_555
H9_2 C17_2 1_555 1_555
C18_2 C17_2 1_555 1_555
H10_2 C18_2 1_555 1_555
C19_2 C18_2 1_555 1_555
H11_2 C19_2 1_555 1_555
C20_2 C15_2 1_555 1_555
H12_2 C20_2 1_555 1_555
Ni1_2 O5_2 1_555 1_555
N3_2 Ni1_2 1_555 1_555
N5_2 Ni1_2 1_555 1_555
H17_2 N5_2 1_555 1_555
C23_2 N5_2 1_555 1_555
H20_2 C23_2 1_555 1_555
H21_2 C23_2 1_555 1_555
C25_2 N5_2 1_555 1_555
H24_2 C25_2 1_555 1_555
H25_2 C25_2 1_555 1_555
C26_2 H26_2 1_555 1_555
H27_2 C26_2 1_555 1_555
C27_2 C25_2 1_555 1_555
H28_2 C27_2 1_555 1_555
H29_2 C27_2 1_555 1_555
N6_2 Ni1_2 1_555 1_555
H32_2 N6_2 1_555 1_555
C29_2 N3_2 1_555 1_555
H33_2 C29_2 1_555 1_555
H34_2 C29_2 1_555 1_555
O11_2 Cu2_2 1_555 1_555
Cu3_2 O7_2 1_555 1_555
Ni2_2 O10_2 1_555 1_555
O3_2 Cu2_2 1_555 1_555
C3_2 O4_2 1_555 1_555
O8_2 Cu3_2 1_555 1_555
C9_2 C10_2 1_555 1_555
C11_2 C12_2 1_555 1_555
C13_2 C14_2 1_555 1_555
C19_2 C20_2 1_555 1_555
C23_2 C29_2 1_555 1_555
C26_2 C27_2 1_555 1_555
C26_2 N6_2 1_555 1_555
O11_2 H37_2 1_555 1_555
O11_2 H38_2 1_555 1_555
O4_3 Cu3_2 1_555 1_555
O5_3 C3_3 1_555 1_555
H4_3 C8_3 1_555 1_555
C9_3 C8_3 1_555 1_555
H5_3 C9_3 1_555 1_555
H6_3 C10_3 1_555 1_555
Ni1_3 O5_3 1_555 1_555
N3_3 Ni1_3 1_555 1_555
N5_3 Ni1_3 1_555 1_555
H17_3 N5_3 1_555 1_555
C23_3 N5_3 1_555 1_555
H20_3 C23_3 1_555 1_555
H21_3 C23_3 1_555 1_555
C25_3 N5_3 1_555 1_555
H24_3 C25_3 1_555 1_555
H25_3 C25_3 1_555 1_555
C26_3 H26_3 1_555 1_555
H27_3 C26_3 1_555 1_555
C27_3 C25_3 1_555 1_555
H28_3 C27_3 1_555 1_555
H29_3 C27_3 1_555 1_555
N6_3 Ni1_3 1_555 1_555
H32_3 N6_3 1_555 1_555
C29_3 N3_3 1_555 1_555
H33_3 C29_3 1_555 1_555
H34_3 C29_3 1_555 1_555
C3_3 O4_3 1_555 1_555
C9_3 C10_3 1_555 1_555
C23_3 C29_3 1_555 1_555
C26_3 C27_3 1_555 1_555
C26_3 N6_3 1_555 1_555
O1_3 C2_3 1_555 1_555
O2_3 C2_3 1_555 1_555
O3_3 C1_3 1_555 1_555
C1_3 N1_3 1_555 1_555
C2_3 C1_3 1_555 1_555
C4_3 N1_3 1_555 1_555
H1_3 C4_3 1_555 1_555
Cu2_3 O2_3 1_555 1_555
O6_3 Cu2_3 1_555 1_555
O12 C12_3 1_555 1_555
O13 C11_3 1_555 1_555
N2_3 Cu2_3 1_555 1_555
O9_3 Cu2_3 1_555 1_555
O10_3 C14_3 1_555 1_555
C5_3 C4_3 1_555 1_555
C6_3 C5_3 1_555 1_555
H2_3 C6_3 1_555 1_555
C7_3 C6_3 1_555 1_555
H3_3 C7_3 1_555 1_555
C11_3 O6_3 1_555 1_555
C12_3 N2_3 1_555 1_555
C13_3 N2_3 1_555 1_555
H7_3 C13_3 1_555 1_555
C14_3 O9_3 1_555 1_555
C15_3 C13_3 1_555 1_555
C16_3 C15_3 1_555 1_555
H8_3 C16_3 1_555 1_555
C17_3 C16_3 1_555 1_555
H9_3 C17_3 1_555 1_555
C18_3 C17_3 1_555 1_555
H10_3 C18_3 1_555 1_555
C19_3 C18_3 1_555 1_555
C20_3 C15_3 1_555 1_555
H12_3 C20_3 1_555 1_555
O11_3 Cu2_3 1_555 1_555
O3_3 Cu2_3 1_555 1_555
C11_3 C12_3 1_555 1_555
C13_3 C14_3 1_555 1_555
C19_3 C20_3 1_555 1_555
O11_3 H37_3 1_555 1_555
O11_3 H38_3 1_555 1_555
H14_3 N4_3 1_555 1_555
C21_3 H15_3 1_555 1_555
H16_3 C21_3 1_555 1_555
C22_3 N4_3 1_555 1_555
H19_3 C22_3 1_555 1_555
H22_3 C24_3 1_555 1_555
C28_3 N4_3 1_555 1_555
H30_3 C28_3 1_555 1_555
H31_3 C28_3 1_555 1_555
C30_3 C28_3 1_555 1_555
H35_3 C30_3 1_555 1_555
H36_3 C30_3 1_555 1_555
C21_3 C22_3 1_555 1_555
C21_3 C24_3 1_555 1_555
Cu1_2 O1_4 1_555 1_555
O1_4 C2_4 1_555 1_555
O2_4 C2_4 1_555 1_555
O3_4 C1_4 1_555 1_555
N1_4 Cu1_2 1_555 1_555
C1_4 N1_4 1_555 1_555
C2_4 C1_4 1_555 1_555
C3_4 C4_4 1_555 1_555
C4_4 N1_4 1_555 1_555
H1_4 C4_4 1_555 1_555
O4_4 Cu1_2 1_555 1_555
O5_4 C3_4 1_555 1_555
Cu2_4 O2_4 1_555 1_555
O6_4 Cu2_4 1_555 1_555
O7_3 C12_4 1_555 1_555
O8_3 C11_4 1_555 1_555
N2_4 Cu2_4 1_555 1_555
O9_4 Cu2_4 1_555 1_555
O14_2 C14_4 1_555 1_555
C5_4 C4_4 1_555 1_555
C6_4 C5_4 1_555 1_555
H2_4 C6_4 1_555 1_555
C7_4 C6_4 1_555 1_555
H3_4 C7_4 1_555 1_555
C8_4 C7_4 1_555 1_555
H4_4 C8_4 1_555 1_555
C9_4 C8_4 1_555 1_555
H5_4 C9_4 1_555 1_555
C10_4 C5_4 1_555 1_555
H6_4 C10_4 1_555 1_555
C11_4 O6_4 1_555 1_555
C12_4 N2_4 1_555 1_555
C13_4 N2_4 1_555 1_555
H7_4 C13_4 1_555 1_555
C14_4 O9_4 1_555 1_555
C15_4 C13_4 1_555 1_555
C16_4 C15_4 1_555 1_555
H8_4 C16_4 1_555 1_555
C17_4 C16_4 1_555 1_555
H9_4 C17_4 1_555 1_555
C18_4 C17_4 1_555 1_555
H10_4 C18_4 1_555 1_555
C19_4 C18_4 1_555 1_555
C20_4 C15_4 1_555 1_555
H12_4 C20_4 1_555 1_555
Ni2_2 O5_4 1_555 1_555
N3_4 Ni2_2 1_555 1_555
H13_4 N3_4 1_555 1_555
N4_4 Ni2_2 1_555 1_555
H14_4 N4_4 1_555 1_555
C21_4 H15_4 1_555 1_555
H16_4 C21_4 1_555 1_555
N5_4 Ni2_2 1_555 1_555
H17_4 N5_4 1_555 1_555
C22_4 N4_4 1_555 1_555
H18_3 C22_4 1_555 1_555
H19_4 C22_4 1_555 1_555
C23_4 N5_4 1_555 1_555
H20_4 C23_4 1_555 1_555
H21_4 C23_4 1_555 1_555
C24_4 N3_4 1_555 1_555
H22_4 C24_4 1_555 1_555
H23_4 C24_4 1_555 1_555
C25_4 N5_4 1_555 1_555
H24_4 C25_4 1_555 1_555
H25_4 C25_4 1_555 1_555
C26_4 H26_4 1_555 1_555
H27_4 C26_4 1_555 1_555
C27_4 C25_4 1_555 1_555
H28_4 C27_4 1_555 1_555
H29_4 C27_4 1_555 1_555
C28_4 N4_4 1_555 1_555
H30_4 C28_4 1_555 1_555
H31_4 C28_4 1_555 1_555
N6_4 Ni2_2 1_555 1_555
H32_4 N6_4 1_555 1_555
C29_4 N3_4 1_555 1_555
H33_4 C29_4 1_555 1_555
H34_4 C29_4 1_555 1_555
C30_4 C28_4 1_555 1_555
H35_4 C30_4 1_555 1_555
H36_4 C30_4 1_555 1_555
O11_4 Cu2_4 1_555 1_555
Cu3_3 O7_3 1_555 1_555
O12_2 Cu1_2 1_555 1_555
O13_2 Cu1_2 1_555 1_555
O3_4 Cu2_4 1_555 1_555
C3_4 O4_4 1_555 1_555
O8_3 Cu3_3 1_555 1_555
C9_4 C10_4 1_555 1_555
C11_4 C12_4 1_555 1_555
C13_4 C14_4 1_555 1_555
C19_4 C20_4 1_555 1_555
C21_4 C22_4 1_555 1_555
C21_4 C24_4 1_555 1_555
C23_4 C29_4 1_555 1_555
C26_4 C27_4 1_555 1_555
C26_4 N6_4 1_555 1_555
N6_4 C30_4 1_555 1_555
O11_4 H37_4 1_555 1_555
O11_4 H38_4 1_555 1_555
H14_5 N4_5 1_555 1_555
C21_5 H15_5 1_555 1_555
H16_5 C21_5 1_555 1_555
C22_5 N4_5 1_555 1_555
H18_4 C22_5 1_555 1_555
H19_5 C22_5 1_555 1_555
H22_5 C24_5 1_555 1_555
C28_5 N4_5 1_555 1_555
H30_5 C28_5 1_555 1_555
H31_5 C28_5 1_555 1_555
C30_5 C28_5 1_555 1_555
H35_5 C30_5 1_555 1_555
H36_5 C30_5 1_555 1_555
C21_5 C22_5 1_555 1_555
C21_5 C24_5 1_555 1_555
Cu3_3 O1_5 1_555 1_555
O1_5 C2_5 1_555 1_555
O2_5 C2_5 1_555 1_555
O3_5 C1_5 1_555 1_555
N1_5 Cu3_3 1_555 1_555
C1_5 N1_5 1_555 1_555
C2_5 C1_5 1_555 1_555
C3_5 C4_5 1_555 1_555
C4_5 N1_5 1_555 1_555
H1_5 C4_5 1_555 1_555
O4_5 Cu3_3 1_555 1_555
O5_5 C3_5 1_555 1_555
Cu2_5 O2_5 1_555 1_555
O6_5 Cu2_5 1_555 1_555
O7_4 C12_5 1_555 1_555
O8_4 C11_5 1_555 1_555
N2_5 Cu2_5 1_555 1_555
O9_5 Cu2_5 1_555 1_555
O14 C14_5 1_555 1_555
C5_5 C4_5 1_555 1_555
C6_5 C5_5 1_555 1_555
H2_5 C6_5 1_555 1_555
C7_5 C6_5 1_555 1_555
H3_5 C7_5 1_555 1_555
C8_5 C7_5 1_555 1_555
H4_5 C8_5 1_555 1_555
C9_5 C8_5 1_555 1_555
H5_5 C9_5 1_555 1_555
C10_5 C5_5 1_555 1_555
H6_5 C10_5 1_555 1_555
C11_5 O6_5 1_555 1_555
C12_5 N2_5 1_555 1_555
C13_5 N2_5 1_555 1_555
H7_5 C13_5 1_555 1_555
C14_5 O9_5 1_555 1_555
C15_5 C13_5 1_555 1_555
C16_5 C15_5 1_555 1_555
H8_5 C16_5 1_555 1_555
C17_5 C16_5 1_555 1_555
H9_5 C17_5 1_555 1_555
C18_5 C17_5 1_555 1_555
H10_5 C18_5 1_555 1_555
C19_5 C18_5 1_555 1_555
H11_5 C19_5 1_555 1_555
C20_5 C15_5 1_555 1_555
H12_5 C20_5 1_555 1_555
Ni2 O5_5 1_555 1_555
N3_5 Ni2 1_555 1_555
N5_5 Ni2 1_555 1_555
H17_5 N5_5 1_555 1_555
C23_5 N5_5 1_555 1_555
H20_5 C23_5 1_555 1_555
H21_5 C23_5 1_555 1_555
C25_5 N5_5 1_555 1_555
H24_5 C25_5 1_555 1_555
H25_5 C25_5 1_555 1_555
C26_5 H26_5 1_555 1_555
H27_5 C26_5 1_555 1_555
C27_5 C25_5 1_555 1_555
H28_5 C27_5 1_555 1_555
H29_5 C27_5 1_555 1_555
N6_5 Ni2 1_555 1_555
H32_5 N6_5 1_555 1_555
C29_5 N3_5 1_555 1_555
H33_5 C29_5 1_555 1_555
H34_5 C29_5 1_555 1_555
O11_5 Cu2_5 1_555 1_555
Cu3_4 O7_4 1_555 1_555
O3_5 Cu2_5 1_555 1_555
C3_5 O4_5 1_555 1_555
O8_4 Cu3_4 1_555 1_555
C9_5 C10_5 1_555 1_555
C11_5 C12_5 1_555 1_555
C13_5 C14_5 1_555 1_555
C19_5 C20_5 1_555 1_555
C23_5 C29_5 1_555 1_555
C26_5 C27_5 1_555 1_555
C26_5 N6_5 1_555 1_555
O11_5 H37_5 1_555 1_555
O11_5 H38_5 1_555 1_555
O1_6 C2_6 1_555 1_555
O2_6 C2_6 1_555 1_555
O3_6 C1_6 1_555 1_555
C1_6 N1_6 1_555 1_555
C2_6 C1_6 1_555 1_555
C4_6 N1_6 1_555 1_555
H1_6 C4_6 1_555 1_555
Cu2_6 O2_6 1_555 1_555
O6_6 Cu2_6 1_555 1_555
O12_2 C12_6 1_555 1_555
O13_2 C11_6 1_555 1_555
N2_6 Cu2_6 1_555 1_555
O9_6 Cu2_6 1_555 1_555
O14_3 C14_6 1_555 1_555
C5_6 C4_6 1_555 1_555
C6_6 C5_6 1_555 1_555
H2_6 C6_6 1_555 1_555
C7_6 C6_6 1_555 1_555
H3_6 C7_6 1_555 1_555
C11_6 O6_6 1_555 1_555
C12_6 N2_6 1_555 1_555
C13_6 N2_6 1_555 1_555
H7_6 C13_6 1_555 1_555
C14_6 O9_6 1_555 1_555
C15_6 C13_6 1_555 1_555
C16_6 C15_6 1_555 1_555
H8_6 C16_6 1_555 1_555
C17_6 C16_6 1_555 1_555
H9_6 C17_6 1_555 1_555
C18_6 C17_6 1_555 1_555
H10_6 C18_6 1_555 1_555
C19_6 C18_6 1_555 1_555
C20_6 C15_6 1_555 1_555
H12_6 C20_6 1_555 1_555
O11_6 Cu2_6 1_555 1_555
O3_6 Cu2_6 1_555 1_555
C11_6 C12_6 1_555 1_555
C13_6 C14_6 1_555 1_555
C19_6 C20_6 1_555 1_555
O11_6 H37_6 1_555 1_555
O11_6 H38_6 1_555 1_555
O4_6 Cu3_4 1_555 1_555
O5_6 C3_6 1_555 1_555
H4_6 C8_6 1_555 1_555
C9_6 C8_6 1_555 1_555
H5_6 C9_6 1_555 1_555
H6_6 C10_6 1_555 1_555
Ni2_3 O5_6 1_555 1_555
N3_6 Ni2_3 1_555 1_555
N5_6 Ni2_3 1_555 1_555
H17_6 N5_6 1_555 1_555
C23_6 N5_6 1_555 1_555
H20_6 C23_6 1_555 1_555
H21_6 C23_6 1_555 1_555
C25_6 N5_6 1_555 1_555
H24_6 C25_6 1_555 1_555
H25_6 C25_6 1_555 1_555
C26_6 H26_6 1_555 1_555
H27_6 C26_6 1_555 1_555
C27_6 C25_6 1_555 1_555
H28_6 C27_6 1_555 1_555
H29_6 C27_6 1_555 1_555
N6_6 Ni2_3 1_555 1_555
H32_6 N6_6 1_555 1_555
C29_6 N3_6 1_555 1_555
H33_6 C29_6 1_555 1_555
H34_6 C29_6 1_555 1_555
C3_6 O4_6 1_555 1_555
C9_6 C10_6 1_555 1_555
C23_6 C29_6 1_555 1_555
C26_6 C27_6 1_555 1_555
C26_6 N6_6 1_555 1_555
H14_6 N4_6 1_555 1_555
C21_6 H15_6 1_555 1_555
H16_6 C21_6 1_555 1_555
C22_6 N4_6 1_555 1_555
H19_6 C22_6 1_555 1_555
H22_6 C24_6 1_555 1_555
C28_6 N4_6 1_555 1_555
H30_6 C28_6 1_555 1_555
H31_6 C28_6 1_555 1_555
C30_6 C28_6 1_555 1_555
H35_6 C30_6 1_555 1_555
H36_6 C30_6 1_555 1_555
C21_6 C22_6 1_555 1_555
C21_6 C24_6 1_555 1_555

#END
