
###############################################################################
#
# This file contains modified crystal structure data generated from the
# MOF subset of the Cambridge Structural Database (CSD) v543 
# hosted by the Cambridge Crystallographic Data Centre (CCDC).
#
# This work is licensed under the Creative Commons
# Attribution-NonCommercial-ShareAlike 4.0 International License.
# To view a copy of this license, visit
# http://creativecommons.org/licenses/by-nc-sa/4.0/
# or send a letter to
# Creative Commons, PO Box 1866, Mountain View, CA 94042, USA.
#
# CIF created using the CSD Python API on 29 September 2022
# The structure has been converted into the P1 space group
# The structure has a 3D framework
# The original CSD entry QAQSAD is in the triclinic crystal system
# The framework has been calculated to contain at least 10.0% void space
# The void calculation uses a probe of radius 1.32A, grid spacing 0.4
#
###############################################################################

data_QAQSAD
_chemical_formula_moiety         '(C38 H24 O14 Zn7)n'
_symmetry_cell_setting           triclinic
_symmetry_space_group_name_H-M   'P 1'
_symmetry_Int_Tables_number      1
_space_group_name_Hall           'P 1'
loop_
_symmetry_equiv_pos_site_id
_symmetry_equiv_pos_as_xyz
1 x,y,z
_cell_length_a                   10.327(3)
_cell_length_b                   11.067(6)
_cell_length_c                   11.692(10)
_cell_angle_alpha                112.33(5)
_cell_angle_beta                 97.31(6)
_cell_angle_gamma                106.79(4)
_cell_volume                     1140.21
loop_
_atom_site_label
_atom_site_type_symbol
_atom_site_fract_x
_atom_site_fract_y
_atom_site_fract_z
Zn7 Zn 0.0000 0.0000 -0.0000
Zn7_2 Zn 0.0000 -0.0000 1.0000
Zn7_3 Zn 0.0000 1.0000 1.0000
Zn7_4 Zn 1.0000 0.0000 -0.0000
Zn7_5 Zn 1.0000 1.0000 -0.0000
O3 O 0.2864(2) 0.02213(18) 0.26416(18)
O4 O 0.2087(2) 0.07819(19) 0.11192(17)
C7 C 0.2792(3) 0.1121(3) 0.2217(3)
C8 C 0.3608(3) 0.2642(3) 0.3111(2)
C9 C 0.3666(3) 0.3673(3) 0.2651(3)
H4 H 0.3225 0.3398 0.1800
C10 C 0.4369(3) 0.5063(3) 0.3458(3)
H5 H 0.4419 0.5727 0.3145
C11 C 0.4267(3) 0.3045(3) 0.4365(2)
H6 H 0.4249 0.2364 0.4651
C12 C 0.5024(3) 0.5511(3) 0.4767(2)
Zn7_6 Zn 1.0000 1.0000 1.0000
O11 O 0.7136(2) 0.97787(18) 0.73584(18)
O13 O 0.7913(2) 0.92181(19) 0.88808(17)
C26 C 0.7208(3) 0.8879(3) 0.7783(3)
C27 C 0.6392(3) 0.7358(3) 0.6889(2)
C28 C 0.6334(3) 0.6327(3) 0.7349(3)
H16 H 0.6775 0.6602 0.8200
C29 C 0.5631(3) 0.4937(3) 0.6542(3)
H17 H 0.5581 0.4273 0.6855
C30 C 0.5733(3) 0.6955(3) 0.5635(2)
H18 H 0.5751 0.7636 0.5349
C31 C 0.4976(3) 0.4489(3) 0.5233(2)
O16 O 0.0863(2) 0.07771(19) 0.87559(18)
O1 O 0.0065(2) 0.80845(18) 0.89271(18)
O2 O 0.1810(2) 0.7506(2) 0.96378(18)
C1 C 0.0895(3) 0.7447(3) 0.8753(2)
C2 C 0.0782(3) 0.6496(3) 0.7396(2)
C6 C 0.1766(3) 0.5842(3) 0.7108(3)
H3 H 0.2507 0.6011 0.7762
C22 C 0.0317(3) 0.3753(3) 0.3563(3)
H13 H 0.0952 0.3309 0.3360
C23 C 0.0503(3) 0.4676(3) 0.4860(3)
C24 C 0.1626(3) 0.4957(3) 0.5864(3)
H14 H 0.2281 0.4537 0.5680
O18 O 0.0271(2) 0.2532(2) 0.8654(2)
O9 O 0.9935(2) 0.19155(18) 0.10729(18)
O5 O 0.9137(2) 0.92229(19) 0.12441(18)
O6 O 0.9729(2) 0.7468(2) 0.1346(2)
C13 C 0.8826(3) 0.7995(3) 0.1148(3)
C14 C 0.7315(3) 0.7054(3) 0.0780(3)
C15 C 0.6238(3) 0.7593(3) 0.0657(3)
H7 H 0.6475 0.8540 0.0858
C16 C 0.4854(3) 0.6727(3) 0.0247(3)
H8 H 0.4160 0.7094 0.0169
C18 C 0.6960(3) 0.5654(3) 0.0500(3)
H9 H 0.7668 0.5309 0.0599
C36 C 0.5537(3) 0.4727(3) 0.0064(3)
C3 C 0.9683(3) 0.6247(3) 0.6437(3)
H1 H 0.9048 0.6691 0.6640
C4 C 0.9497(3) 0.5324(3) 0.5140(3)
C5 C 0.8374(3) 0.5043(3) 0.4136(3)
H2 H 0.7719 0.5463 0.4320
C17 C 0.4463(3) 0.5273(3) 0.9936(3)
O10 O 0.8190(2) 0.2494(2) 0.03622(18)
C20 C 0.9105(3) 0.2553(3) 0.1247(2)
C21 C 0.9218(3) 0.3504(3) 0.2604(2)
C25 C 0.8234(3) 0.4158(3) 0.2892(3)
H15 H 0.7493 0.3989 0.2238
C32 C 0.1174(3) 0.2005(3) 0.8852(3)
C33 C 0.2685(3) 0.2946(3) 0.9220(3)
C34 C 0.3762(3) 0.2407(3) 0.9343(3)
H19 H 0.3525 0.1460 0.9142
C35 C 0.5146(3) 0.3273(3) 0.9753(3)
H20 H 0.5840 0.2906 0.9831
C37 C 0.3040(3) 0.4346(3) 0.9500(3)
H21 H 0.2332 0.4691 0.9401
Zn7_7 Zn -0.0000 1.0000 -0.0000
Zn1 Zn 0.16664(3) 0.83289(3) 0.13998(3)
O7 O 0.2438(2) 0.7280(2) 0.2191(2)
C19 C 0.1603(4) 0.6052(3) 0.2274(4)
H10 H 0.1931 0.6121 0.3110
H11 H 0.1679 0.5237 0.1635
H12 H 0.0641 0.5975 0.2132
Zn4 Zn 0.83336(3) 0.16711(3) 0.86002(3)
Zn7_8 Zn 1.0000 -0.0000 1.0000
O19 O 0.7562(2) 0.2720(2) 0.7809(2)
C38 C 0.8397(4) 0.3948(3) 0.7726(4)
H22 H 0.8069 0.3879 0.6890
H23 H 0.8321 0.4763 0.8365
H24 H 0.9359 0.4025 0.7868
loop_
_geom_bond_atom_site_label_1
_geom_bond_atom_site_label_2
_geom_bond_site_symmetry_1
_geom_bond_site_symmetry_2
O4 Zn7 1_555 1_555
C7 O3 1_555 1_555
C8 C7 1_555 1_555
C9 C8 1_555 1_555
H4 C9 1_555 1_555
C10 C9 1_555 1_555
H5 C10 1_555 1_555
C11 C8 1_555 1_555
H6 C11 1_555 1_555
C12 C10 1_555 1_555
Zn7_6 O13 1_555 1_555
O11 C26 1_555 1_555
O13 C26 1_555 1_555
C26 C27 1_555 1_555
C27 C28 1_555 1_555
C28 H16 1_555 1_555
C29 C28 1_555 1_555
H17 C29 1_555 1_555
C30 C12 1_555 1_555
H18 C30 1_555 1_555
C31 C11 1_555 1_555
O4 C7 1_555 1_555
C12 C31 1_555 1_555
C27 C30 1_555 1_555
C29 C31 1_555 1_555
O16 Zn7_2 1_555 1_555
Zn7_3 O1 1_555 1_555
O1 C1 1_555 1_555
O2 C1 1_555 1_555
C1 C2 1_555 1_555
C6 C2 1_555 1_555
H3 C6 1_555 1_555
C22 H13 1_555 1_555
C24 C6 1_555 1_555
H14 C24 1_555 1_555
C22 C23 1_555 1_555
C23 C24 1_555 1_555
O9 Zn7_4 1_555 1_555
O5 Zn7_5 1_555 1_555
C13 O5 1_555 1_555
C14 C13 1_555 1_555
C15 C14 1_555 1_555
H7 C15 1_555 1_555
C16 C15 1_555 1_555
H8 C16 1_555 1_555
C18 C14 1_555 1_555
H9 C18 1_555 1_555
O6 C13 1_555 1_555
C18 C36 1_555 1_555
C3 H1 1_555 1_555
C4 C3 1_555 1_555
C5 C4 1_555 1_555
H2 C5 1_555 1_555
O9 C20 1_555 1_555
O10 C20 1_555 1_555
O16 C32 1_555 1_555
O18 C32 1_555 1_555
C20 C21 1_555 1_555
C25 C5 1_555 1_555
H15 C25 1_555 1_555
C32 C33 1_555 1_555
C33 C34 1_555 1_555
C34 H19 1_555 1_555
C35 C34 1_555 1_555
H20 C35 1_555 1_555
C37 C17 1_555 1_555
H21 C37 1_555 1_555
C21 C25 1_555 1_555
C33 C37 1_555 1_555
O7 Zn1 1_555 1_555
C19 O7 1_555 1_555
H10 C19 1_555 1_555
H11 C19 1_555 1_555
H12 C19 1_555 1_555
O19 Zn4 1_555 1_555
C38 O19 1_555 1_555
H22 C38 1_555 1_555
H23 C38 1_555 1_555
H24 C38 1_555 1_555

#END
