
###############################################################################
#
# This file contains modified crystal structure data generated from the
# MOF subset of the Cambridge Structural Database (CSD) v543 
# hosted by the Cambridge Crystallographic Data Centre (CCDC).
#
# This work is licensed under the Creative Commons
# Attribution-NonCommercial-ShareAlike 4.0 International License.
# To view a copy of this license, visit
# http://creativecommons.org/licenses/by-nc-sa/4.0/
# or send a letter to
# Creative Commons, PO Box 1866, Mountain View, CA 94042, USA.
#
# CIF created using the CSD Python API on 29 September 2022
# The structure has been converted into the P1 space group
# The structure has a 3D framework
# The original CSD entry QARLUT is in the monoclinic crystal system
# The framework has been calculated to contain at least 10.0% void space
# The void calculation uses a probe of radius 1.32A, grid spacing 0.4
#
###############################################################################

data_QARLUT
_chemical_formula_moiety         '(C288 H192 Br48 N96 Zn24)n'
_symmetry_cell_setting           triclinic
_symmetry_space_group_name_H-M   'P 1'
_symmetry_Int_Tables_number      1
_space_group_name_Hall           'P 1'
loop_
_symmetry_equiv_pos_site_id
_symmetry_equiv_pos_as_xyz
1 x,y,z
_cell_length_a                   34.1904(4)
_cell_length_b                   14.67836(15)
_cell_length_c                   30.1683(4)
_cell_angle_alpha                90
_cell_angle_beta                 101.7441(13)
_cell_angle_gamma                90
_cell_volume                     14823.3
loop_
_atom_site_label
_atom_site_type_symbol
_atom_site_fract_x
_atom_site_fract_y
_atom_site_fract_z
Zn2 Zn 0.1811(3) 0.6464(6) 0.2770(4)
Br3 Br 0.1397(4) 0.6681(5) 0.2057(4)
Br4 Br 0.2390(3) 0.7317(4) 0.3027(5)
C1 C 0.32794(14) 0.0464(3) 0.40596(16)
H1 H 0.3458 0.0789 0.4288
C2 C 0.29979(14) 0.0946(3) 0.37607(16)
H2 H 0.2987 0.1591 0.3779
C3 C 0.27315(13) 0.0480(3) 0.34337(15)
C6 C 0.24264(13) 0.0959(3) 0.30907(15)
N2 N 0.23750(11) 0.1851(2) 0.31414(12)
C7 C 0.20921(14) 0.2223(3) 0.28236(15)
N3 N 0.18594(11) 0.1765(2) 0.24860(13)
C8 C 0.19457(13) 0.0888(3) 0.24632(15)
N4 N 0.22329(11) 0.0446(2) 0.27532(12)
C9 C 0.20267(14) 0.3224(3) 0.28238(16)
C10 C 0.22504(15) 0.3795(3) 0.31366(17)
H5 H 0.2451 0.3555 0.3373
C11 C 0.21813(16) 0.4720(3) 0.31050(18)
H6 H 0.2336 0.5110 0.3324
N5 N 0.19033(13) 0.5088(3) 0.27750(15)
C12 C 0.16909(19) 0.4535(4) 0.2477(2)
H7 H 0.1492 0.4791 0.2244
C13 C 0.17413(18) 0.3612(3) 0.2484(2)
H8 H 0.1582 0.3241 0.2259
C14 C 0.17113(13) 0.0362(3) 0.20758(15)
C17 C 0.12036(17) 0.0300(3) 0.14088(19)
H11 H 0.1014 0.0609 0.1185
C18 C 0.14385(17) 0.0801(3) 0.17508(19)
H12 H 0.1411 0.1445 0.1760
C19 C 0.03554(13) 0.0280(3) 0.05211(16)
H13 H 0.0211 0.0196 0.0756
C20 C 0.02898(12) 0.1057(3) 0.02611(15)
H14 H 0.0105 0.1504 0.0318
N14 N 0.14266(13) 0.6636(3) 0.31971(16)
C21 C 0.04975(12) 0.1179(3) 0.99131(14)
C22 C 0.07509(14) 0.0486(3) 0.98306(16)
H15 H 0.0886 0.0528 0.9585
C24 C 0.04571(12) 0.2021(3) 0.96406(15)
N8 N 0.01838(10) 0.2628(2) 0.97071(12)
C25 C 0.01457(12) 0.3346(3) 0.94311(15)
N9 N 0.03636(11) 0.3507(3) 0.91207(13)
C26 C 0.06448(12) 0.2886(3) 0.91021(16)
N10 N 0.06982(10) 0.2115(2) 0.93498(13)
C32 C 0.09166(13) 0.3047(3) 0.87871(16)
C33 C 0.12721(16) 0.2590(4) 0.8832(2)
H21 H 0.1347 0.2153 0.9067
C34 C 0.15208(16) 0.2767(4) 0.8535(2)
H22 H 0.1768 0.2452 0.8573
N12 N 0.14266(13) 0.3364(3) 0.81971(16)
C35 C 0.1086(2) 0.3808(4) 0.8159(2)
H23 H 0.1017 0.4239 0.7921
C36 C 0.08249(18) 0.3678(4) 0.8446(2)
H24 H 0.0585 0.4021 0.8408
Zn5 Zn 0.1811(3) 0.3536(6) 0.7770(4)
Br3_2 Br 0.1397(4) 0.3319(5) 0.7057(4)
Br4_2 Br 0.2390(3) 0.2683(4) 0.8027(5)
C1_2 C 0.32794(14) 0.9536(3) 0.90596(16)
H1_2 H 0.3458 0.9211 0.9288
C2_2 C 0.29979(14) 0.9054(3) 0.87607(16)
H2_2 H 0.2987 0.8409 0.8779
C3_2 C 0.27315(13) 0.9520(3) 0.84337(15)
C6_2 C 0.24264(13) 0.9041(3) 0.80907(15)
N2_2 N 0.23750(11) 0.8149(2) 0.81414(12)
C7_2 C 0.20921(14) 0.7777(3) 0.78236(15)
N3_2 N 0.18594(11) 0.8235(2) 0.74860(13)
C8_2 C 0.19457(13) 0.9112(3) 0.74632(15)
N4_2 N 0.22329(11) 0.9554(2) 0.77532(12)
C9_2 C 0.20267(14) 0.6776(3) 0.78238(16)
C10_2 C 0.22504(15) 0.6205(3) 0.81366(17)
H5_2 H 0.2451 0.6445 0.8373
C11_2 C 0.21813(16) 0.5280(3) 0.81050(18)
H6_2 H 0.2336 0.4890 0.8324
N5_2 N 0.19033(13) 0.4912(3) 0.77750(15)
C12_2 C 0.16909(19) 0.5465(4) 0.7477(2)
H7_2 H 0.1492 0.5209 0.7244
C13_2 C 0.17413(18) 0.6388(3) 0.7484(2)
H8_2 H 0.1582 0.6759 0.7259
C14_2 C 0.17113(13) 0.9638(3) 0.70758(15)
C17_2 C 0.12036(17) 0.9700(3) 0.64088(19)
H11_2 H 0.1014 0.9391 0.6185
C18_2 C 0.14385(17) 0.9199(3) 0.67508(19)
H12_2 H 0.1411 0.8555 0.6760
C19_2 C 0.03554(13) 0.9720(3) 0.55211(16)
H13_2 H 0.0211 0.9804 0.5756
C20_2 C 0.02898(12) 0.8943(3) 0.52611(15)
H14_2 H 0.0105 0.8496 0.5318
C21_2 C 0.04975(12) 0.8821(3) 0.49131(14)
C22_2 C 0.07509(14) 0.9514(3) 0.48306(16)
H15_2 H 0.0886 0.9472 0.4585
C24_2 C 0.04571(12) 0.7979(3) 0.46406(15)
N8_2 N 0.01838(10) 0.7372(2) 0.47071(12)
C25_2 C 0.01457(12) 0.6654(3) 0.44311(15)
N9_2 N 0.03636(11) 0.6493(3) 0.41207(13)
C26_2 C 0.06448(12) 0.7114(3) 0.41021(16)
N10_2 N 0.06982(10) 0.7885(2) 0.43498(13)
C32_2 C 0.09166(13) 0.6953(3) 0.37871(16)
C33_2 C 0.12721(16) 0.7410(4) 0.3832(2)
H21_2 H 0.1347 0.7847 0.4067
C34_2 C 0.15208(16) 0.7233(4) 0.3535(2)
H22_2 H 0.1768 0.7548 0.3573
C35_2 C 0.1086(2) 0.6192(4) 0.3159(2)
H23_2 H 0.1017 0.5761 0.2921
C36_2 C 0.08249(18) 0.6322(4) 0.3446(2)
H24_2 H 0.0585 0.5979 0.3408
Zn1 Zn 0.37464(2) 0.88897(4) 0.45025(2)
Br1 Br 0.38822(19) 0.7528(5) 0.4154(3)
Br2 Br 0.35804(2) 0.90173(5) 0.52070(2)
Zn3 Zn 0.08078(2) 0.86411(3) 0.09426(2)
Br5 Br 0.11503(2) 0.75518(3) 0.06083(2)
Br6 Br 0.02886(2) 0.84279(4) 0.13308(2)
N1 N 0.33129(11) 0.9562(3) 0.40435(13)
C4 C 0.27618(16) 0.9537(3) 0.34215(18)
H3 H 0.2581 0.9194 0.3203
C5 C 0.30550(15) 0.9107(3) 0.37276(19)
H4 H 0.3076 0.8462 0.3715
C15 C 0.17546(14) 0.9429(3) 0.20376(16)
H9 H 0.1950 0.9107 0.2249
C16 C 0.15087(14) 0.8974(3) 0.16868(16)
H10 H 0.1538 0.8333 0.1663
N6 N 0.12335(12) 0.9397(2) 0.13822(13)
N7 N 0.06164(11) 0.9635(2) 0.04546(12)
C23 C 0.08027(13) 0.9736(3) 0.01131(16)
H16 H 0.0980 0.9270 0.0060
N13 N 0.42252(11) 0.9748(3) 0.45072(14)
C21_3 C 0.54975(12) 0.6179(3) 0.99131(14)
C22_3 C 0.57509(14) 0.5486(3) 0.98306(16)
H15_3 H 0.5886 0.5528 0.9585
C24_3 C 0.54571(12) 0.7021(3) 0.96406(15)
N8_3 N 0.51838(10) 0.7628(2) 0.97071(12)
C25_3 C 0.51457(12) 0.8346(3) 0.94311(15)
N9_3 N 0.53636(11) 0.8507(3) 0.91207(13)
C26_3 C 0.56448(12) 0.7886(3) 0.91021(16)
N10_3 N 0.56982(10) 0.7115(2) 0.93498(13)
C27 C 0.48262(13) 0.9015(3) 0.94629(16)
C28 C 0.46576(14) 0.9059(3) 0.98348(16)
C29 C 0.43622(13) 0.9687(3) 0.98470(16)
C31 C 0.46885(18) 0.9605(4) 0.9107(2)
H20 H 0.4799 0.9593 0.8843
C32_3 C 0.59166(13) 0.8047(3) 0.87871(16)
C33_3 C 0.62721(16) 0.7590(4) 0.8832(2)
H21_3 H 0.6347 0.7153 0.9067
C34_3 C 0.65208(16) 0.7767(4) 0.8535(2)
H22_3 H 0.6768 0.7452 0.8573
N12_2 N 0.64266(13) 0.8364(3) 0.81971(16)
C35_3 C 0.6086(2) 0.8808(4) 0.8159(2)
H23_3 H 0.6017 0.9239 0.7921
C36_3 C 0.58249(18) 0.8678(4) 0.8446(2)
H24_3 H 0.5585 0.9021 0.8408
Zn5_2 Zn 0.6811(3) 0.8536(6) 0.7770(4)
Br3_3 Br 0.6397(4) 0.8319(5) 0.7057(4)
Br4_3 Br 0.7390(3) 0.7683(4) 0.8027(5)
H6_3 H 0.7336 0.9890 0.8324
N5_3 N 0.69033(13) 0.9912(3) 0.77750(15)
C30 C 0.43913(19) 0.9796(4) 0.4143(2)
H19 H 0.4298 0.9394 0.3898
H17 H 0.9743 0.3658 0.0083
H18 H 0.9251 0.4720 0.0111
C27_2 C 0.98262(13) 0.4015(3) 0.94629(16)
C28_2 C 0.96576(14) 0.4059(3) 0.98348(16)
C29_2 C 0.93622(13) 0.4687(3) 0.98470(16)
N11 N 0.92252(11) 0.5252(3) 0.95072(14)
C30_2 C 0.93913(19) 0.5204(4) 0.9143(2)
H19_2 H 0.9298 0.5606 0.8898
C31_2 C 0.96885(18) 0.4605(4) 0.9107(2)
H20_2 H 0.9799 0.4593 0.8843
Zn4 Zn 0.87464(2) 0.61103(4) 0.95025(2)
Zn2_2 Zn 0.6811(3) 0.1464(6) 0.2770(4)
Br3_4 Br 0.6397(4) 0.1681(5) 0.2057(4)
Br4_4 Br 0.7390(3) 0.2317(4) 0.3027(5)
H6_4 H 0.7336 0.0110 0.3324
N5_4 N 0.69033(13) 0.0088(3) 0.27750(15)
N14_2 N 0.64266(13) 0.1636(3) 0.31971(16)
Br1_2 Br 0.88822(19) 0.7472(5) 0.9154(3)
Zn3_2 Zn 0.58078(2) 0.63589(3) 0.59426(2)
Br5_2 Br 0.61503(2) 0.74482(3) 0.56083(2)
Br6_2 Br 0.52886(2) 0.65721(4) 0.63308(2)
N1_2 N 0.83129(11) 0.5438(3) 0.90435(13)
C1_3 C 0.82794(14) 0.4536(3) 0.90596(16)
H1_3 H 0.8458 0.4211 0.9288
C2_3 C 0.79979(14) 0.4054(3) 0.87607(16)
H2_3 H 0.7987 0.3409 0.8779
C3_3 C 0.77315(13) 0.4520(3) 0.84337(15)
C4_2 C 0.77618(16) 0.5463(3) 0.84215(18)
H3_2 H 0.7581 0.5806 0.8203
C5_2 C 0.80550(15) 0.5893(3) 0.87276(19)
H4_2 H 0.8076 0.6538 0.8715
C6_3 C 0.74264(13) 0.4041(3) 0.80907(15)
N2_3 N 0.73750(11) 0.3149(2) 0.81414(12)
C7_3 C 0.70921(14) 0.2777(3) 0.78236(15)
N3_3 N 0.68594(11) 0.3235(2) 0.74860(13)
C8_3 C 0.69457(13) 0.4112(3) 0.74632(15)
N4_3 N 0.72329(11) 0.4554(2) 0.77532(12)
C9_3 C 0.70267(14) 0.1776(3) 0.78238(16)
C10_3 C 0.72504(15) 0.1205(3) 0.81366(17)
H5_3 H 0.7451 0.1445 0.8373
C11_3 C 0.71813(16) 0.0280(3) 0.81050(18)
C12_3 C 0.66909(19) 0.0465(4) 0.7477(2)
H7_3 H 0.6492 0.0209 0.7244
C13_3 C 0.67413(18) 0.1388(3) 0.7484(2)
H8_3 H 0.6582 0.1759 0.7259
C14_3 C 0.67113(13) 0.4638(3) 0.70758(15)
C15_2 C 0.67546(14) 0.5571(3) 0.70376(16)
H9_2 H 0.6950 0.5893 0.7249
C16_2 C 0.65087(14) 0.6026(3) 0.66868(16)
H10_2 H 0.6538 0.6667 0.6663
N6_2 N 0.62335(12) 0.5603(2) 0.63822(13)
C17_3 C 0.62036(17) 0.4700(3) 0.64088(19)
H11_3 H 0.6014 0.4391 0.6185
C18_3 C 0.64385(17) 0.4199(3) 0.67508(19)
H12_3 H 0.6411 0.3555 0.6760
N7_2 N 0.56164(11) 0.5365(2) 0.54546(12)
C19_3 C 0.53554(13) 0.4720(3) 0.55211(16)
H13_3 H 0.5211 0.4804 0.5756
C20_3 C 0.52898(12) 0.3943(3) 0.52611(15)
H14_3 H 0.5105 0.3496 0.5318
C21_4 C 0.54975(12) 0.3821(3) 0.49131(14)
C22_4 C 0.57509(14) 0.4514(3) 0.48306(16)
H15_4 H 0.5886 0.4472 0.4585
C23_2 C 0.58027(13) 0.5264(3) 0.51131(16)
H16_2 H 0.5980 0.5730 0.5060
C24_4 C 0.54571(12) 0.2979(3) 0.46406(15)
N8_4 N 0.51838(10) 0.2372(2) 0.47071(12)
C25_4 C 0.51457(12) 0.1654(3) 0.44311(15)
N9_4 N 0.53636(11) 0.1493(3) 0.41207(13)
C26_4 C 0.56448(12) 0.2114(3) 0.41021(16)
N10_4 N 0.56982(10) 0.2885(2) 0.43498(13)
C27_3 C 0.48262(13) 0.0985(3) 0.44629(16)
C28_3 C 0.46576(14) 0.0941(3) 0.48348(16)
H17_2 H 0.4743 0.1342 0.5083
C29_3 C 0.43622(13) 0.0313(3) 0.48470(16)
H18_2 H 0.4251 0.0280 0.5111
C31_3 C 0.46885(18) 0.0395(4) 0.4107(2)
H20_3 H 0.4799 0.0407 0.3843
C32_4 C 0.59166(13) 0.1953(3) 0.37871(16)
C33_4 C 0.62721(16) 0.2410(4) 0.3832(2)
H21_4 H 0.6347 0.2847 0.4067
C34_4 C 0.65208(16) 0.2233(4) 0.3535(2)
H22_4 H 0.6768 0.2548 0.3573
C35_4 C 0.6086(2) 0.1192(4) 0.3159(2)
H23_4 H 0.6017 0.0761 0.2921
C36_4 C 0.58249(18) 0.1322(4) 0.3446(2)
H24_4 H 0.5585 0.0979 0.3408
C27_4 C 0.01738(13) 0.4015(3) 0.55371(16)
C28_4 C 0.03424(14) 0.4059(3) 0.51652(16)
H17_3 H 0.0257 0.3658 0.4917
C29_4 C 0.06378(13) 0.4687(3) 0.51530(16)
H18_3 H 0.0749 0.4720 0.4889
N11_2 N 0.07748(11) 0.5252(3) 0.54928(14)
C30_3 C 0.06087(19) 0.5204(4) 0.5857(2)
H19_3 H 0.0702 0.5606 0.6102
C31_4 C 0.03115(18) 0.4605(4) 0.5893(2)
H20_4 H 0.0201 0.4593 0.6157
Zn4_2 Zn 0.12536(2) 0.61103(4) 0.54975(2)
Br1_3 Br 0.11178(19) 0.7472(5) 0.5846(3)
Br2_2 Br 0.14196(2) 0.59827(5) 0.47930(2)
Zn3_3 Zn 0.41922(2) 0.63589(3) 0.90574(2)
Br5_3 Br 0.38497(2) 0.74482(3) 0.93917(2)
Br6_3 Br 0.47114(2) 0.65721(4) 0.86692(2)
N1_3 N 0.16871(11) 0.5438(3) 0.59565(13)
C1_4 C 0.17206(14) 0.4536(3) 0.59404(16)
H1_4 H 0.1542 0.4211 0.5712
C2_4 C 0.20021(14) 0.4054(3) 0.62393(16)
H2_4 H 0.2013 0.3409 0.6221
C3_4 C 0.22685(13) 0.4520(3) 0.65663(15)
C4_3 C 0.22382(16) 0.5463(3) 0.65785(18)
H3_3 H 0.2419 0.5806 0.6797
C5_3 C 0.19450(15) 0.5893(3) 0.62724(19)
H4_3 H 0.1924 0.6538 0.6285
C6_4 C 0.25736(13) 0.4041(3) 0.69093(15)
N2_4 N 0.26250(11) 0.3149(2) 0.68586(12)
C7_4 C 0.29079(14) 0.2777(3) 0.71764(15)
N3_4 N 0.31406(11) 0.3235(2) 0.75140(13)
C8_4 C 0.30543(13) 0.4112(3) 0.75368(15)
N4_4 N 0.27671(11) 0.4554(2) 0.72468(12)
C9_4 C 0.29733(14) 0.1776(3) 0.71762(16)
C10_4 C 0.27496(15) 0.1205(3) 0.68634(17)
H5_4 H 0.2549 0.1445 0.6627
C11_4 C 0.28187(16) 0.0280(3) 0.68950(18)
C12_4 C 0.33091(19) 0.0465(4) 0.7523(2)
H7_4 H 0.3508 0.0209 0.7756
C13_4 C 0.32587(18) 0.1388(3) 0.7516(2)
H8_4 H 0.3418 0.1759 0.7741
C14_4 C 0.32887(13) 0.4638(3) 0.79242(15)
C15_3 C 0.32454(14) 0.5571(3) 0.79624(16)
H9_3 H 0.3050 0.5893 0.7751
C16_3 C 0.34913(14) 0.6026(3) 0.83132(16)
H10_3 H 0.3462 0.6667 0.8337
N6_3 N 0.37665(12) 0.5603(2) 0.86178(13)
C17_4 C 0.37964(17) 0.4700(3) 0.85912(19)
H11_4 H 0.3986 0.4391 0.8815
C18_4 C 0.35615(17) 0.4199(3) 0.82492(19)
H12_4 H 0.3589 0.3555 0.8240
N7_3 N 0.43836(11) 0.5365(2) 0.95454(12)
C19_4 C 0.46446(13) 0.4720(3) 0.94789(16)
H13_4 H 0.4789 0.4804 0.9244
C20_4 C 0.47102(12) 0.3943(3) 0.97389(15)
H14_4 H 0.4895 0.3496 0.9682
C23_3 C 0.41973(13) 0.5264(3) 0.98869(16)
H16_3 H 0.4020 0.5730 0.9940
H17_4 H 0.5257 0.1342 0.9917
H18_4 H 0.5749 0.0280 0.9889
Zn2_3 Zn 0.8189(3) 0.6464(6) 0.2230(4)
Br3_5 Br 0.8603(4) 0.6681(5) 0.2943(4)
Br4_5 Br 0.7610(3) 0.7317(4) 0.1973(5)
C1_5 C 0.67206(14) 0.0464(3) 0.09404(16)
H1_5 H 0.6542 0.0789 0.0712
C2_5 C 0.70021(14) 0.0946(3) 0.12393(16)
H2_5 H 0.7013 0.1591 0.1221
C3_5 C 0.72685(13) 0.0480(3) 0.15663(15)
C6_5 C 0.75736(13) 0.0959(3) 0.19093(15)
N2_5 N 0.76250(11) 0.1851(2) 0.18586(12)
C7_5 C 0.79079(14) 0.2223(3) 0.21764(15)
N3_5 N 0.81406(11) 0.1765(2) 0.25140(13)
C8_5 C 0.80543(13) 0.0888(3) 0.25368(15)
N4_5 N 0.77671(11) 0.0446(2) 0.22468(12)
C9_5 C 0.79733(14) 0.3224(3) 0.21762(16)
C10_5 C 0.77496(15) 0.3795(3) 0.18634(17)
H5_5 H 0.7549 0.3555 0.1627
C11_5 C 0.78187(16) 0.4720(3) 0.18950(18)
H6_5 H 0.7664 0.5110 0.1676
N5_5 N 0.80967(13) 0.5088(3) 0.22250(15)
C12_5 C 0.83091(19) 0.4535(4) 0.2523(2)
H7_5 H 0.8508 0.4791 0.2756
C13_5 C 0.82587(18) 0.3612(3) 0.2516(2)
H8_5 H 0.8418 0.3241 0.2741
C14_5 C 0.82887(13) 0.0362(3) 0.29242(15)
C17_5 C 0.87964(17) 0.0300(3) 0.35912(19)
H11_5 H 0.8986 0.0609 0.3815
C18_5 C 0.85615(17) 0.0801(3) 0.32492(19)
H12_5 H 0.8589 0.1445 0.3240
C19_5 C 0.96446(13) 0.0280(3) 0.44789(16)
H13_5 H 0.9789 0.0196 0.4244
C20_5 C 0.97102(12) 0.1057(3) 0.47389(15)
H14_5 H 0.9895 0.1504 0.4682
C21_5 C 0.95025(12) 0.1179(3) 0.50869(14)
C22_5 C 0.92491(14) 0.0486(3) 0.51694(16)
H15_5 H 0.9114 0.0528 0.5415
C24_5 C 0.95429(12) 0.2021(3) 0.53594(15)
N8_5 N 0.98162(10) 0.2628(2) 0.52929(12)
C25_5 C 0.98543(12) 0.3346(3) 0.55689(15)
N9_5 N 0.96364(11) 0.3507(3) 0.58793(13)
C26_5 C 0.93552(12) 0.2886(3) 0.58979(16)
N10_5 N 0.93018(10) 0.2115(2) 0.56502(13)
C32_5 C 0.90834(13) 0.3047(3) 0.62129(16)
C33_5 C 0.87279(16) 0.2590(4) 0.6168(2)
H21_5 H 0.8653 0.2153 0.5933
C34_5 C 0.84792(16) 0.2767(4) 0.6465(2)
H22_5 H 0.8232 0.2452 0.6427
N12_3 N 0.85734(13) 0.3364(3) 0.68029(16)
C35_5 C 0.8914(2) 0.3808(4) 0.6841(2)
H23_5 H 0.8983 0.4239 0.7079
C36_5 C 0.91751(18) 0.3678(4) 0.6554(2)
H24_5 H 0.9415 0.4021 0.6592
Zn5_3 Zn 0.8189(3) 0.3536(6) 0.7230(4)
N14_3 N 0.85734(13) 0.6636(3) 0.18029(16)
C21_6 C 0.95025(12) 0.8821(3) 0.00869(14)
C22_6 C 0.92491(14) 0.9514(3) 0.01694(16)
H15_6 H 0.9114 0.9472 0.0415
C24_6 C 0.95429(12) 0.7979(3) 0.03594(15)
N8_6 N 0.98162(10) 0.7372(2) 0.02929(12)
C25_6 C 0.98543(12) 0.6654(3) 0.05689(15)
N9_6 N 0.96364(11) 0.6493(3) 0.08793(13)
C26_6 C 0.93552(12) 0.7114(3) 0.08979(16)
N10_6 N 0.93018(10) 0.7885(2) 0.06502(13)
C32_6 C 0.90834(13) 0.6953(3) 0.12129(16)
C33_6 C 0.87279(16) 0.7410(4) 0.1168(2)
H21_6 H 0.8653 0.7847 0.0933
C34_6 C 0.84792(16) 0.7233(4) 0.1465(2)
H22_6 H 0.8232 0.7548 0.1427
C35_6 C 0.8914(2) 0.6192(4) 0.1841(2)
H23_6 H 0.8983 0.5761 0.2079
C36_6 C 0.91751(18) 0.6322(4) 0.1554(2)
H24_6 H 0.9415 0.5979 0.1592
Br3_6 Br 0.8603(4) 0.3319(5) 0.7943(4)
Br4_6 Br 0.7610(3) 0.2683(4) 0.6973(5)
C1_6 C 0.67206(14) 0.9536(3) 0.59404(16)
H1_6 H 0.6542 0.9211 0.5712
C2_6 C 0.70021(14) 0.9054(3) 0.62393(16)
H2_6 H 0.7013 0.8409 0.6221
C3_6 C 0.72685(13) 0.9520(3) 0.65663(15)
C6_6 C 0.75736(13) 0.9041(3) 0.69093(15)
N2_6 N 0.76250(11) 0.8149(2) 0.68586(12)
C7_6 C 0.79079(14) 0.7777(3) 0.71764(15)
N3_6 N 0.81406(11) 0.8235(2) 0.75140(13)
C8_6 C 0.80543(13) 0.9112(3) 0.75368(15)
N4_6 N 0.77671(11) 0.9554(2) 0.72468(12)
C9_6 C 0.79733(14) 0.6776(3) 0.71762(16)
C10_6 C 0.77496(15) 0.6205(3) 0.68634(17)
H5_6 H 0.7549 0.6445 0.6627
C11_6 C 0.78187(16) 0.5280(3) 0.68950(18)
H6_6 H 0.7664 0.4890 0.6676
N5_6 N 0.80967(13) 0.4912(3) 0.72250(15)
C12_6 C 0.83091(19) 0.5465(4) 0.7523(2)
H7_6 H 0.8508 0.5209 0.7756
C13_6 C 0.82587(18) 0.6388(3) 0.7516(2)
H8_6 H 0.8418 0.6759 0.7741
C14_6 C 0.82887(13) 0.9638(3) 0.79242(15)
C17_6 C 0.87964(17) 0.9700(3) 0.85912(19)
H11_6 H 0.8986 0.9391 0.8815
C18_6 C 0.85615(17) 0.9199(3) 0.82492(19)
H12_6 H 0.8589 0.8555 0.8240
C19_6 C 0.96446(13) 0.9720(3) 0.94789(16)
H13_6 H 0.9789 0.9804 0.9244
C20_6 C 0.97102(12) 0.8943(3) 0.97389(15)
H14_6 H 0.9895 0.8496 0.9682
Zn1_2 Zn 0.62536(2) 0.88897(4) 0.04975(2)
Br1_4 Br 0.61178(19) 0.7528(5) 0.0846(3)
Zn3_4 Zn 0.91922(2) 0.86411(3) 0.40574(2)
Br5_4 Br 0.88497(2) 0.75518(3) 0.43917(2)
Br6_4 Br 0.97114(2) 0.84279(4) 0.36692(2)
N1_4 N 0.66871(11) 0.9562(3) 0.09565(13)
C4_4 C 0.72382(16) 0.9537(3) 0.15785(18)
H3_4 H 0.7419 0.9194 0.1797
C5_4 C 0.69450(15) 0.9107(3) 0.12724(19)
H4_4 H 0.6924 0.8462 0.1285
C15_4 C 0.82454(14) 0.9429(3) 0.29624(16)
H9_4 H 0.8050 0.9107 0.2751
C16_4 C 0.84913(14) 0.8974(3) 0.33132(16)
H10_4 H 0.8462 0.8333 0.3337
N6_4 N 0.87665(12) 0.9397(2) 0.36178(13)
N7_4 N 0.93836(11) 0.9635(2) 0.45454(12)
C23_4 C 0.91973(13) 0.9736(3) 0.48869(16)
H16_4 H 0.9020 0.9270 0.4940
N13_2 N 0.57748(11) 0.9748(3) 0.04928(14)
C30_4 C 0.56087(19) 0.9796(4) 0.0857(2)
H19_4 H 0.5702 0.9394 0.1102
Br2_3 Br 0.64196(2) 0.90173(5) 0.97930(2)
N11_3 N 0.42252(11) 0.0252(3) 0.95072(14)
C30_5 C 0.43913(19) 0.0204(4) 0.9143(2)
H19_5 H 0.4298 0.0606 0.8898
Zn4_3 Zn 0.37464(2) 0.11103(4) 0.95025(2)
Br1_5 Br 0.38822(19) 0.2472(5) 0.9154(3)
Zn3_5 Zn 0.08078(2) 0.13589(3) 0.59426(2)
Br5_5 Br 0.11503(2) 0.24482(3) 0.56083(2)
Br6_5 Br 0.02886(2) 0.15721(4) 0.63308(2)
N1_5 N 0.33129(11) 0.0438(3) 0.90435(13)
C4_5 C 0.27618(16) 0.0463(3) 0.84215(18)
H3_5 H 0.2581 0.0806 0.8203
C5_5 C 0.30550(15) 0.0893(3) 0.87276(19)
H4_5 H 0.3076 0.1538 0.8715
C15_5 C 0.17546(14) 0.0571(3) 0.70376(16)
H9_5 H 0.1950 0.0893 0.7249
C16_5 C 0.15087(14) 0.1026(3) 0.66868(16)
H10_5 H 0.1538 0.1667 0.6663
N6_5 N 0.12335(12) 0.0603(2) 0.63822(13)
N7_5 N 0.06164(11) 0.0365(2) 0.54546(12)
C23_5 C 0.08027(13) 0.0264(3) 0.51131(16)
H16_5 H 0.0980 0.0730 0.5060
Zn1_3 Zn 0.87464(2) 0.38897(4) 0.45025(2)
Br1_6 Br 0.88822(19) 0.2528(5) 0.4154(3)
Br2_4 Br 0.85804(2) 0.40173(5) 0.52070(2)
Zn3_6 Zn 0.58078(2) 0.36411(3) 0.09426(2)
Br5_6 Br 0.61503(2) 0.25518(3) 0.06083(2)
Br6_6 Br 0.52886(2) 0.34279(4) 0.13308(2)
N1_6 N 0.83129(11) 0.4562(3) 0.40435(13)
C1_7 C 0.82794(14) 0.5464(3) 0.40596(16)
H1_7 H 0.8458 0.5789 0.4288
C2_7 C 0.79979(14) 0.5946(3) 0.37607(16)
H2_7 H 0.7987 0.6591 0.3779
C3_7 C 0.77315(13) 0.5480(3) 0.34337(15)
C4_6 C 0.77618(16) 0.4537(3) 0.34215(18)
H3_6 H 0.7581 0.4194 0.3203
C5_6 C 0.80550(15) 0.4107(3) 0.37276(19)
H4_6 H 0.8076 0.3462 0.3715
C6_7 C 0.74264(13) 0.5959(3) 0.30907(15)
N2_7 N 0.73750(11) 0.6851(2) 0.31414(12)
C7_7 C 0.70921(14) 0.7223(3) 0.28236(15)
N3_7 N 0.68594(11) 0.6765(2) 0.24860(13)
C8_7 C 0.69457(13) 0.5888(3) 0.24632(15)
N4_7 N 0.72329(11) 0.5446(2) 0.27532(12)
C9_7 C 0.70267(14) 0.8224(3) 0.28238(16)
C10_7 C 0.72504(15) 0.8795(3) 0.31366(17)
H5_7 H 0.7451 0.8555 0.3373
C11_7 C 0.71813(16) 0.9720(3) 0.31050(18)
C12_7 C 0.66909(19) 0.9535(4) 0.2477(2)
H7_7 H 0.6492 0.9791 0.2244
C13_7 C 0.67413(18) 0.8612(3) 0.2484(2)
H8_7 H 0.6582 0.8241 0.2259
C14_7 C 0.67113(13) 0.5362(3) 0.20758(15)
C15_6 C 0.67546(14) 0.4429(3) 0.20376(16)
H9_6 H 0.6950 0.4107 0.2249
C16_6 C 0.65087(14) 0.3974(3) 0.16868(16)
H10_6 H 0.6538 0.3333 0.1663
N6_6 N 0.62335(12) 0.4397(2) 0.13822(13)
C17_7 C 0.62036(17) 0.5300(3) 0.14088(19)
H11_7 H 0.6014 0.5609 0.1185
C18_7 C 0.64385(17) 0.5801(3) 0.17508(19)
H12_7 H 0.6411 0.6445 0.1760
N7_6 N 0.56164(11) 0.4635(2) 0.04546(12)
C19_7 C 0.53554(13) 0.5280(3) 0.05211(16)
H13_7 H 0.5211 0.5196 0.0756
C20_7 C 0.52898(12) 0.6057(3) 0.02611(15)
H14_7 H 0.5105 0.6504 0.0318
C23_6 C 0.58027(13) 0.4736(3) 0.01131(16)
H16_6 H 0.5980 0.4270 0.0060
H17_5 H 0.4743 0.8658 0.0083
H18_5 H 0.4251 0.9720 0.0111
N13_3 N 0.92252(11) 0.4748(3) 0.45072(14)
C27_5 C 0.98262(13) 0.5985(3) 0.44629(16)
C28_5 C 0.96576(14) 0.5941(3) 0.48348(16)
H17_6 H 0.9743 0.6342 0.5083
C29_5 C 0.93622(13) 0.5313(3) 0.48470(16)
H18_6 H 0.9251 0.5280 0.5111
C30_6 C 0.93913(19) 0.4796(4) 0.4143(2)
H19_6 H 0.9298 0.4394 0.3898
C31_5 C 0.96885(18) 0.5395(4) 0.4107(2)
H20_5 H 0.9799 0.5407 0.3843
Zn2_4 Zn 0.3189(3) 0.1464(6) 0.2230(4)
Br3_7 Br 0.3603(4) 0.1681(5) 0.2943(4)
Br4_7 Br 0.2610(3) 0.2317(4) 0.1973(5)
H6_7 H 0.2664 0.0110 0.1676
N5_7 N 0.30967(13) 0.0088(3) 0.22250(15)
N11_4 N 0.57748(11) 0.0252(3) 0.54928(14)
C30_7 C 0.56087(19) 0.0204(4) 0.5857(2)
H19_7 H 0.5702 0.0606 0.6102
Zn4_4 Zn 0.62536(2) 0.11103(4) 0.54975(2)
N14_4 N 0.35734(13) 0.1636(3) 0.18029(16)
Br1_7 Br 0.61178(19) 0.2472(5) 0.5846(3)
Br2_5 Br 0.64196(2) 0.09827(5) 0.47930(2)
Zn3_7 Zn 0.91922(2) 0.13589(3) 0.90574(2)
Br5_7 Br 0.88497(2) 0.24482(3) 0.93917(2)
Br6_7 Br 0.97114(2) 0.15721(4) 0.86692(2)
N1_7 N 0.66871(11) 0.0438(3) 0.59565(13)
C4_7 C 0.72382(16) 0.0463(3) 0.65785(18)
H3_7 H 0.7419 0.0806 0.6797
C5_7 C 0.69450(15) 0.0893(3) 0.62724(19)
H4_7 H 0.6924 0.1538 0.6285
C15_7 C 0.82454(14) 0.0571(3) 0.79624(16)
H9_7 H 0.8050 0.0893 0.7751
C16_7 C 0.84913(14) 0.1026(3) 0.83132(16)
H10_7 H 0.8462 0.1667 0.8337
N6_7 N 0.87665(12) 0.0603(2) 0.86178(13)
N7_7 N 0.93836(11) 0.0365(2) 0.95454(12)
C23_7 C 0.91973(13) 0.0264(3) 0.98869(16)
H16_7 H 0.9020 0.0730 0.9940
C21_7 C 0.45025(12) 0.3821(3) 0.00869(14)
C22_7 C 0.42491(14) 0.4514(3) 0.01694(16)
H15_7 H 0.4114 0.4472 0.0415
C24_7 C 0.45429(12) 0.2979(3) 0.03594(15)
N8_7 N 0.48162(10) 0.2372(2) 0.02929(12)
C25_7 C 0.48543(12) 0.1654(3) 0.05689(15)
N9_7 N 0.46364(11) 0.1493(3) 0.08793(13)
C26_7 C 0.43552(12) 0.2114(3) 0.08979(16)
N10_7 N 0.43018(10) 0.2885(2) 0.06502(13)
C27_6 C 0.51738(13) 0.0985(3) 0.05371(16)
C28_6 C 0.53424(14) 0.0941(3) 0.01652(16)
C29_6 C 0.56378(13) 0.0313(3) 0.01530(16)
C31_6 C 0.53115(18) 0.0395(4) 0.0893(2)
H20_6 H 0.5201 0.0407 0.1157
C32_7 C 0.40834(13) 0.1953(3) 0.12129(16)
C33_7 C 0.37279(16) 0.2410(4) 0.1168(2)
H21_7 H 0.3653 0.2847 0.0933
C34_7 C 0.34792(16) 0.2233(4) 0.1465(2)
H22_7 H 0.3232 0.2548 0.1427
C35_7 C 0.3914(2) 0.1192(4) 0.1841(2)
H23_7 H 0.3983 0.0761 0.2079
C36_7 C 0.41751(18) 0.1322(4) 0.1554(2)
H24_7 H 0.4415 0.0979 0.1592
Zn1_4 Zn 0.12536(2) 0.38897(4) 0.04975(2)
Br1_8 Br 0.11178(19) 0.2528(5) 0.0846(3)
Zn3_8 Zn 0.41922(2) 0.36411(3) 0.40574(2)
Br5_8 Br 0.38497(2) 0.25518(3) 0.43917(2)
Br6_8 Br 0.47114(2) 0.34279(4) 0.36692(2)
N1_8 N 0.16871(11) 0.4562(3) 0.09565(13)
C1_8 C 0.17206(14) 0.5464(3) 0.09404(16)
H1_8 H 0.1542 0.5789 0.0712
C2_8 C 0.20021(14) 0.5946(3) 0.12393(16)
H2_8 H 0.2013 0.6591 0.1221
C3_8 C 0.22685(13) 0.5480(3) 0.15663(15)
C4_8 C 0.22382(16) 0.4537(3) 0.15785(18)
H3_8 H 0.2419 0.4194 0.1797
C5_8 C 0.19450(15) 0.4107(3) 0.12724(19)
H4_8 H 0.1924 0.3462 0.1285
C6_8 C 0.25736(13) 0.5959(3) 0.19093(15)
N2_8 N 0.26250(11) 0.6851(2) 0.18586(12)
C7_8 C 0.29079(14) 0.7223(3) 0.21764(15)
N3_8 N 0.31406(11) 0.6765(2) 0.25140(13)
C8_8 C 0.30543(13) 0.5888(3) 0.25368(15)
N4_8 N 0.27671(11) 0.5446(2) 0.22468(12)
C9_8 C 0.29733(14) 0.8224(3) 0.21762(16)
C10_8 C 0.27496(15) 0.8795(3) 0.18634(17)
H5_8 H 0.2549 0.8555 0.1627
C11_8 C 0.28187(16) 0.9720(3) 0.18950(18)
C12_8 C 0.33091(19) 0.9535(4) 0.2523(2)
H7_8 H 0.3508 0.9791 0.2756
C13_8 C 0.32587(18) 0.8612(3) 0.2516(2)
H8_8 H 0.3418 0.8241 0.2741
C14_8 C 0.32887(13) 0.5362(3) 0.29242(15)
C15_8 C 0.32454(14) 0.4429(3) 0.29624(16)
H9_8 H 0.3050 0.4107 0.2751
C16_8 C 0.34913(14) 0.3974(3) 0.33132(16)
H10_8 H 0.3462 0.3333 0.3337
N6_8 N 0.37665(12) 0.4397(2) 0.36178(13)
C17_8 C 0.37964(17) 0.5300(3) 0.35912(19)
H11_8 H 0.3986 0.5609 0.3815
C18_8 C 0.35615(17) 0.5801(3) 0.32492(19)
H12_8 H 0.3589 0.6445 0.3240
N7_8 N 0.43836(11) 0.4635(2) 0.45454(12)
C19_8 C 0.46446(13) 0.5280(3) 0.44789(16)
H13_8 H 0.4789 0.5196 0.4244
C20_8 C 0.47102(12) 0.6057(3) 0.47389(15)
H14_8 H 0.4895 0.6504 0.4682
C21_8 C 0.45025(12) 0.6179(3) 0.50869(14)
C22_8 C 0.42491(14) 0.5486(3) 0.51694(16)
H15_8 H 0.4114 0.5528 0.5415
C23_8 C 0.41973(13) 0.4736(3) 0.48869(16)
H16_8 H 0.4020 0.4270 0.4940
C24_8 C 0.45429(12) 0.7021(3) 0.53594(15)
N8_8 N 0.48162(10) 0.7628(2) 0.52929(12)
C25_8 C 0.48543(12) 0.8346(3) 0.55689(15)
N9_8 N 0.46364(11) 0.8507(3) 0.58793(13)
C26_8 C 0.43552(12) 0.7886(3) 0.58979(16)
N10_8 N 0.43018(10) 0.7115(2) 0.56502(13)
C27_7 C 0.51738(13) 0.9015(3) 0.55371(16)
C28_7 C 0.53424(14) 0.9059(3) 0.51652(16)
H17_7 H 0.5257 0.8658 0.4917
C29_7 C 0.56378(13) 0.9687(3) 0.51530(16)
H18_7 H 0.5749 0.9720 0.4889
C31_7 C 0.53115(18) 0.9605(4) 0.5893(2)
H20_7 H 0.5201 0.9593 0.6157
C32_8 C 0.40834(13) 0.8047(3) 0.62129(16)
C33_8 C 0.37279(16) 0.7590(4) 0.6168(2)
H21_8 H 0.3653 0.7153 0.5933
C34_8 C 0.34792(16) 0.7767(4) 0.6465(2)
H22_8 H 0.3232 0.7452 0.6427
N12_4 N 0.35734(13) 0.8364(3) 0.68029(16)
C35_8 C 0.3914(2) 0.8808(4) 0.6841(2)
H23_8 H 0.3983 0.9239 0.7079
C36_8 C 0.41751(18) 0.8678(4) 0.6554(2)
H24_8 H 0.4415 0.9021 0.6592
Zn5_4 Zn 0.3189(3) 0.8536(6) 0.7230(4)
N13_4 N 0.07748(11) 0.4748(3) 0.04928(14)
C27_8 C 0.01738(13) 0.5985(3) 0.05371(16)
C28_8 C 0.03424(14) 0.5941(3) 0.01652(16)
C29_8 C 0.06378(13) 0.5313(3) 0.01530(16)
C30_8 C 0.06087(19) 0.4796(4) 0.0857(2)
H19_8 H 0.0702 0.4394 0.1102
C31_8 C 0.03115(18) 0.5395(4) 0.0893(2)
H20_8 H 0.0201 0.5407 0.1157
Br3_8 Br 0.3603(4) 0.8319(5) 0.7943(4)
Br4_8 Br 0.2610(3) 0.7683(4) 0.6973(5)
H6_8 H 0.2664 0.9890 0.6676
N5_8 N 0.30967(13) 0.9912(3) 0.72250(15)
Br2_6 Br 0.14196(2) 0.40173(5) 0.97930(2)
H17_8 H 0.0257 0.6342 0.9917
H18_8 H 0.0749 0.5280 0.9889
Br2_7 Br 0.35804(2) 0.09827(5) 0.02070(2)
Br2_8 Br 0.85804(2) 0.59827(5) 0.02070(2)
loop_
_geom_bond_atom_site_label_1
_geom_bond_atom_site_label_2
_geom_bond_site_symmetry_1
_geom_bond_site_symmetry_2
Zn2 Br3 1_555 1_555
Br4 Zn2 1_555 1_555
H1 C1 1_555 1_555
C2 C1 1_555 1_555
H2 C2 1_555 1_555
C3 C2 1_555 1_555
C6 C3 1_555 1_555
N2 C6 1_555 1_555
C7 N2 1_555 1_555
N3 C7 1_555 1_555
C8 N3 1_555 1_555
N4 C6 1_555 1_555
C9 C7 1_555 1_555
C10 C9 1_555 1_555
H5 C10 1_555 1_555
C11 C10 1_555 1_555
H6 C11 1_555 1_555
N5 Zn2 1_555 1_555
C12 N5 1_555 1_555
H7 C12 1_555 1_555
C13 C9 1_555 1_555
H8 C13 1_555 1_555
C14 C8 1_555 1_555
H11 C17 1_555 1_555
C18 C14 1_555 1_555
H12 C18 1_555 1_555
H13 C19 1_555 1_555
C20 C19 1_555 1_555
H14 C20 1_555 1_555
N14 Zn2 1_555 1_555
C8 N4 1_555 1_555
C11 N5 1_555 1_555
C12 C13 1_555 1_555
C17 C18 1_555 1_555
C22 C21 1_555 1_555
H15 C22 1_555 1_555
C24 C21 1_555 1_555
N8 C24 1_555 1_555
C25 N8 1_555 1_555
N9 C25 1_555 1_555
C26 N9 1_555 1_555
N10 C24 1_555 1_555
C32 C26 1_555 1_555
C33 C32 1_555 1_555
H21 C33 1_555 1_555
C34 C33 1_555 1_555
H22 C34 1_555 1_555
N12 C34 1_555 1_555
C35 N12 1_555 1_555
H23 C35 1_555 1_555
C36 C32 1_555 1_555
H24 C36 1_555 1_555
Zn5 N12 1_555 1_555
C26 N10 1_555 1_555
C35 C36 1_555 1_555
Zn5 Br3_2 1_555 1_555
Br4_2 Zn5 1_555 1_555
H1_2 C1_2 1_555 1_555
C2_2 C1_2 1_555 1_555
H2_2 C2_2 1_555 1_555
C3_2 C2_2 1_555 1_555
C6_2 C3_2 1_555 1_555
N2_2 C6_2 1_555 1_555
C7_2 N2_2 1_555 1_555
N3_2 C7_2 1_555 1_555
C8_2 N3_2 1_555 1_555
N4_2 C6_2 1_555 1_555
C9_2 C7_2 1_555 1_555
C10_2 C9_2 1_555 1_555
H5_2 C10_2 1_555 1_555
C11_2 C10_2 1_555 1_555
H6_2 C11_2 1_555 1_555
N5_2 Zn5 1_555 1_555
C12_2 N5_2 1_555 1_555
H7_2 C12_2 1_555 1_555
C13_2 C9_2 1_555 1_555
H8_2 C13_2 1_555 1_555
C14_2 C8_2 1_555 1_555
H11_2 C17_2 1_555 1_555
C18_2 C14_2 1_555 1_555
H12_2 C18_2 1_555 1_555
H13_2 C19_2 1_555 1_555
C20_2 C19_2 1_555 1_555
H14_2 C20_2 1_555 1_555
C21_2 C20_2 1_555 1_555
C22_2 C21_2 1_555 1_555
H15_2 C22_2 1_555 1_555
C24_2 C21_2 1_555 1_555
N8_2 C24_2 1_555 1_555
C25_2 N8_2 1_555 1_555
N9_2 C25_2 1_555 1_555
C26_2 N9_2 1_555 1_555
N10_2 C24_2 1_555 1_555
C32_2 C26_2 1_555 1_555
C33_2 C32_2 1_555 1_555
H21_2 C33_2 1_555 1_555
C34_2 C33_2 1_555 1_555
H22_2 C34_2 1_555 1_555
N14 C34_2 1_555 1_555
C35_2 N14 1_555 1_555
H23_2 C35_2 1_555 1_555
C36_2 C32_2 1_555 1_555
H24_2 C36_2 1_555 1_555
C8_2 N4_2 1_555 1_555
C11_2 N5_2 1_555 1_555
C12_2 C13_2 1_555 1_555
C17_2 C18_2 1_555 1_555
C26_2 N10_2 1_555 1_555
C35_2 C36_2 1_555 1_555
Zn1 Br1 1_555 1_555
Br2 Zn1 1_555 1_555
Zn3 Br5 1_555 1_555
Br6 Zn3 1_555 1_555
N1 Zn1 1_555 1_555
H3 C4 1_555 1_555
C5 N1 1_555 1_555
H4 C5 1_555 1_555
H9 C15 1_555 1_555
C16 C15 1_555 1_555
H10 C16 1_555 1_555
N6 Zn3 1_555 1_555
N7 Zn3 1_555 1_555
C23 N7 1_555 1_555
H16 C23 1_555 1_555
N13 Zn1 1_555 1_555
C4 C5 1_555 1_555
C16 N6 1_555 1_555
C22_3 C21_3 1_555 1_555
H15_3 C22_3 1_555 1_555
C24_3 C21_3 1_555 1_555
N8_3 C24_3 1_555 1_555
C25_3 N8_3 1_555 1_555
N9_3 C25_3 1_555 1_555
C26_3 N9_3 1_555 1_555
N10_3 C24_3 1_555 1_555
C27 C25_3 1_555 1_555
C28 C27 1_555 1_555
C29 C28 1_555 1_555
C31 C27 1_555 1_555
H20 C31 1_555 1_555
C32_3 C26_3 1_555 1_555
C33_3 C32_3 1_555 1_555
H21_3 C33_3 1_555 1_555
C34_3 C33_3 1_555 1_555
H22_3 C34_3 1_555 1_555
N12_2 C34_3 1_555 1_555
C35_3 N12_2 1_555 1_555
H23_3 C35_3 1_555 1_555
C36_3 C32_3 1_555 1_555
H24_3 C36_3 1_555 1_555
Zn5_2 N12_2 1_555 1_555
C26_3 N10_3 1_555 1_555
C35_3 C36_3 1_555 1_555
Zn5_2 Br3_3 1_555 1_555
Br4_3 Zn5_2 1_555 1_555
N5_3 Zn5_2 1_555 1_555
C30 N13 1_555 1_555
H19 C30 1_555 1_555
C28_2 C27_2 1_555 1_555
C29_2 C28_2 1_555 1_555
N11 C29_2 1_555 1_555
C30_2 N11 1_555 1_555
H19_2 C30_2 1_555 1_555
C31_2 C27_2 1_555 1_555
H20_2 C31_2 1_555 1_555
Zn4 N11 1_555 1_555
C30_2 C31_2 1_555 1_555
Zn2_2 Br3_4 1_555 1_555
Br4_4 Zn2_2 1_555 1_555
N5_4 Zn2_2 1_555 1_555
N14_2 Zn2_2 1_555 1_555
Zn4 Br1_2 1_555 1_555
Zn3_2 Br5_2 1_555 1_555
Br6_2 Zn3_2 1_555 1_555
N1_2 Zn4 1_555 1_555
C1_3 N1_2 1_555 1_555
H1_3 C1_3 1_555 1_555
C2_3 C1_3 1_555 1_555
H2_3 C2_3 1_555 1_555
C3_3 C2_3 1_555 1_555
C4_2 C3_3 1_555 1_555
H3_2 C4_2 1_555 1_555
C5_2 N1_2 1_555 1_555
H4_2 C5_2 1_555 1_555
C6_3 C3_3 1_555 1_555
N2_3 C6_3 1_555 1_555
C7_3 N2_3 1_555 1_555
N3_3 C7_3 1_555 1_555
C8_3 N3_3 1_555 1_555
N4_3 C6_3 1_555 1_555
C9_3 C7_3 1_555 1_555
C10_3 C9_3 1_555 1_555
H5_3 C10_3 1_555 1_555
C11_3 C10_3 1_555 1_555
H7_3 C12_3 1_555 1_555
C13_3 C9_3 1_555 1_555
H8_3 C13_3 1_555 1_555
C14_3 C8_3 1_555 1_555
C15_2 C14_3 1_555 1_555
H9_2 C15_2 1_555 1_555
C16_2 C15_2 1_555 1_555
H10_2 C16_2 1_555 1_555
N6_2 Zn3_2 1_555 1_555
C17_3 N6_2 1_555 1_555
H11_3 C17_3 1_555 1_555
C18_3 C14_3 1_555 1_555
H12_3 C18_3 1_555 1_555
N7_2 Zn3_2 1_555 1_555
C19_3 N7_2 1_555 1_555
H13_3 C19_3 1_555 1_555
C20_3 C19_3 1_555 1_555
H14_3 C20_3 1_555 1_555
C21_4 C20_3 1_555 1_555
C22_4 C21_4 1_555 1_555
H15_4 C22_4 1_555 1_555
C23_2 N7_2 1_555 1_555
H16_2 C23_2 1_555 1_555
C24_4 C21_4 1_555 1_555
N8_4 C24_4 1_555 1_555
C25_4 N8_4 1_555 1_555
N9_4 C25_4 1_555 1_555
C26_4 N9_4 1_555 1_555
N10_4 C24_4 1_555 1_555
C27_3 C25_4 1_555 1_555
C28_3 C27_3 1_555 1_555
H17_2 C28_3 1_555 1_555
C29_3 C28_3 1_555 1_555
H18_2 C29_3 1_555 1_555
C31_3 C27_3 1_555 1_555
H20_3 C31_3 1_555 1_555
C32_4 C26_4 1_555 1_555
C33_4 C32_4 1_555 1_555
H21_4 C33_4 1_555 1_555
C34_4 C33_4 1_555 1_555
H22_4 C34_4 1_555 1_555
N14_2 C34_4 1_555 1_555
C35_4 N14_2 1_555 1_555
H23_4 C35_4 1_555 1_555
C36_4 C32_4 1_555 1_555
H24_4 C36_4 1_555 1_555
C4_2 C5_2 1_555 1_555
C8_3 N4_3 1_555 1_555
C12_3 C13_3 1_555 1_555
C16_2 N6_2 1_555 1_555
C17_3 C18_3 1_555 1_555
C22_4 C23_2 1_555 1_555
C26_4 N10_4 1_555 1_555
C35_4 C36_4 1_555 1_555
C28_4 C27_4 1_555 1_555
H17_3 C28_4 1_555 1_555
C29_4 C28_4 1_555 1_555
H18_3 C29_4 1_555 1_555
N11_2 C29_4 1_555 1_555
C30_3 N11_2 1_555 1_555
H19_3 C30_3 1_555 1_555
C31_4 C27_4 1_555 1_555
H20_4 C31_4 1_555 1_555
Zn4_2 N11_2 1_555 1_555
C30_3 C31_4 1_555 1_555
Zn4_2 Br1_3 1_555 1_555
Br2_2 Zn4_2 1_555 1_555
Zn3_3 Br5_3 1_555 1_555
Br6_3 Zn3_3 1_555 1_555
N1_3 Zn4_2 1_555 1_555
C1_4 N1_3 1_555 1_555
H1_4 C1_4 1_555 1_555
C2_4 C1_4 1_555 1_555
H2_4 C2_4 1_555 1_555
C3_4 C2_4 1_555 1_555
C4_3 C3_4 1_555 1_555
H3_3 C4_3 1_555 1_555
C5_3 N1_3 1_555 1_555
H4_3 C5_3 1_555 1_555
C6_4 C3_4 1_555 1_555
N2_4 C6_4 1_555 1_555
C7_4 N2_4 1_555 1_555
N3_4 C7_4 1_555 1_555
C8_4 N3_4 1_555 1_555
N4_4 C6_4 1_555 1_555
C9_4 C7_4 1_555 1_555
C10_4 C9_4 1_555 1_555
H5_4 C10_4 1_555 1_555
C11_4 C10_4 1_555 1_555
H7_4 C12_4 1_555 1_555
C13_4 C9_4 1_555 1_555
H8_4 C13_4 1_555 1_555
C14_4 C8_4 1_555 1_555
C15_3 C14_4 1_555 1_555
H9_3 C15_3 1_555 1_555
C16_3 C15_3 1_555 1_555
H10_3 C16_3 1_555 1_555
N6_3 Zn3_3 1_555 1_555
C17_4 N6_3 1_555 1_555
H11_4 C17_4 1_555 1_555
C18_4 C14_4 1_555 1_555
H12_4 C18_4 1_555 1_555
N7_3 Zn3_3 1_555 1_555
C19_4 N7_3 1_555 1_555
H13_4 C19_4 1_555 1_555
C20_4 C19_4 1_555 1_555
H14_4 C20_4 1_555 1_555
C23_3 N7_3 1_555 1_555
H16_3 C23_3 1_555 1_555
C4_3 C5_3 1_555 1_555
C8_4 N4_4 1_555 1_555
C12_4 C13_4 1_555 1_555
C16_3 N6_3 1_555 1_555
C17_4 C18_4 1_555 1_555
Zn2_3 Br3_5 1_555 1_555
Br4_5 Zn2_3 1_555 1_555
H1_5 C1_5 1_555 1_555
C2_5 C1_5 1_555 1_555
H2_5 C2_5 1_555 1_555
C3_5 C2_5 1_555 1_555
C6_5 C3_5 1_555 1_555
N2_5 C6_5 1_555 1_555
C7_5 N2_5 1_555 1_555
N3_5 C7_5 1_555 1_555
C8_5 N3_5 1_555 1_555
N4_5 C6_5 1_555 1_555
C9_5 C7_5 1_555 1_555
C10_5 C9_5 1_555 1_555
H5_5 C10_5 1_555 1_555
C11_5 C10_5 1_555 1_555
H6_5 C11_5 1_555 1_555
N5_5 Zn2_3 1_555 1_555
C12_5 N5_5 1_555 1_555
H7_5 C12_5 1_555 1_555
C13_5 C9_5 1_555 1_555
H8_5 C13_5 1_555 1_555
C14_5 C8_5 1_555 1_555
H11_5 C17_5 1_555 1_555
C18_5 C14_5 1_555 1_555
H12_5 C18_5 1_555 1_555
H13_5 C19_5 1_555 1_555
C20_5 C19_5 1_555 1_555
H14_5 C20_5 1_555 1_555
C21_5 C20_5 1_555 1_555
C22_5 C21_5 1_555 1_555
H15_5 C22_5 1_555 1_555
C24_5 C21_5 1_555 1_555
N8_5 C24_5 1_555 1_555
C25_5 N8_5 1_555 1_555
N9_5 C25_5 1_555 1_555
C26_5 N9_5 1_555 1_555
N10_5 C24_5 1_555 1_555
C32_5 C26_5 1_555 1_555
C33_5 C32_5 1_555 1_555
H21_5 C33_5 1_555 1_555
C34_5 C33_5 1_555 1_555
H22_5 C34_5 1_555 1_555
N12_3 C34_5 1_555 1_555
C35_5 N12_3 1_555 1_555
H23_5 C35_5 1_555 1_555
C36_5 C32_5 1_555 1_555
H24_5 C36_5 1_555 1_555
Zn5_3 N12_3 1_555 1_555
N14_3 Zn2_3 1_555 1_555
C8_5 N4_5 1_555 1_555
C11_5 N5_5 1_555 1_555
C12_5 C13_5 1_555 1_555
C17_5 C18_5 1_555 1_555
C26_5 N10_5 1_555 1_555
C35_5 C36_5 1_555 1_555
C22_6 C21_6 1_555 1_555
H15_6 C22_6 1_555 1_555
C24_6 C21_6 1_555 1_555
N8_6 C24_6 1_555 1_555
C25_6 N8_6 1_555 1_555
N9_6 C25_6 1_555 1_555
C26_6 N9_6 1_555 1_555
N10_6 C24_6 1_555 1_555
C32_6 C26_6 1_555 1_555
C33_6 C32_6 1_555 1_555
H21_6 C33_6 1_555 1_555
C34_6 C33_6 1_555 1_555
H22_6 C34_6 1_555 1_555
N14_3 C34_6 1_555 1_555
C35_6 N14_3 1_555 1_555
H23_6 C35_6 1_555 1_555
C36_6 C32_6 1_555 1_555
H24_6 C36_6 1_555 1_555
C26_6 N10_6 1_555 1_555
C35_6 C36_6 1_555 1_555
Zn5_3 Br3_6 1_555 1_555
Br4_6 Zn5_3 1_555 1_555
H1_6 C1_6 1_555 1_555
C2_6 C1_6 1_555 1_555
H2_6 C2_6 1_555 1_555
C3_6 C2_6 1_555 1_555
C6_6 C3_6 1_555 1_555
N2_6 C6_6 1_555 1_555
C7_6 N2_6 1_555 1_555
N3_6 C7_6 1_555 1_555
C8_6 N3_6 1_555 1_555
N4_6 C6_6 1_555 1_555
C9_6 C7_6 1_555 1_555
C10_6 C9_6 1_555 1_555
H5_6 C10_6 1_555 1_555
C11_6 C10_6 1_555 1_555
H6_6 C11_6 1_555 1_555
N5_6 Zn5_3 1_555 1_555
C12_6 N5_6 1_555 1_555
H7_6 C12_6 1_555 1_555
C13_6 C9_6 1_555 1_555
H8_6 C13_6 1_555 1_555
C14_6 C8_6 1_555 1_555
H11_6 C17_6 1_555 1_555
C18_6 C14_6 1_555 1_555
H12_6 C18_6 1_555 1_555
H13_6 C19_6 1_555 1_555
C20_6 C19_6 1_555 1_555
H14_6 C20_6 1_555 1_555
C8_6 N4_6 1_555 1_555
C11_6 N5_6 1_555 1_555
C12_6 C13_6 1_555 1_555
C17_6 C18_6 1_555 1_555
Zn1_2 Br1_4 1_555 1_555
Zn3_4 Br5_4 1_555 1_555
Br6_4 Zn3_4 1_555 1_555
N1_4 Zn1_2 1_555 1_555
H3_4 C4_4 1_555 1_555
C5_4 N1_4 1_555 1_555
H4_4 C5_4 1_555 1_555
H9_4 C15_4 1_555 1_555
C16_4 C15_4 1_555 1_555
H10_4 C16_4 1_555 1_555
N6_4 Zn3_4 1_555 1_555
N7_4 Zn3_4 1_555 1_555
C23_4 N7_4 1_555 1_555
H16_4 C23_4 1_555 1_555
N13_2 Zn1_2 1_555 1_555
C4_4 C5_4 1_555 1_555
C16_4 N6_4 1_555 1_555
C30_4 N13_2 1_555 1_555
H19_4 C30_4 1_555 1_555
C30_5 N11_3 1_555 1_555
H19_5 C30_5 1_555 1_555
Zn4_3 N11_3 1_555 1_555
Zn4_3 Br1_5 1_555 1_555
Zn3_5 Br5_5 1_555 1_555
Br6_5 Zn3_5 1_555 1_555
N1_5 Zn4_3 1_555 1_555
H3_5 C4_5 1_555 1_555
C5_5 N1_5 1_555 1_555
H4_5 C5_5 1_555 1_555
H9_5 C15_5 1_555 1_555
C16_5 C15_5 1_555 1_555
H10_5 C16_5 1_555 1_555
N6_5 Zn3_5 1_555 1_555
N7_5 Zn3_5 1_555 1_555
C23_5 N7_5 1_555 1_555
H16_5 C23_5 1_555 1_555
C4_5 C5_5 1_555 1_555
C16_5 N6_5 1_555 1_555
Zn1_3 Br1_6 1_555 1_555
Br2_4 Zn1_3 1_555 1_555
Zn3_6 Br5_6 1_555 1_555
Br6_6 Zn3_6 1_555 1_555
N1_6 Zn1_3 1_555 1_555
C1_7 N1_6 1_555 1_555
H1_7 C1_7 1_555 1_555
C2_7 C1_7 1_555 1_555
H2_7 C2_7 1_555 1_555
C3_7 C2_7 1_555 1_555
C4_6 C3_7 1_555 1_555
H3_6 C4_6 1_555 1_555
C5_6 N1_6 1_555 1_555
H4_6 C5_6 1_555 1_555
C6_7 C3_7 1_555 1_555
N2_7 C6_7 1_555 1_555
C7_7 N2_7 1_555 1_555
N3_7 C7_7 1_555 1_555
C8_7 N3_7 1_555 1_555
N4_7 C6_7 1_555 1_555
C9_7 C7_7 1_555 1_555
C10_7 C9_7 1_555 1_555
H5_7 C10_7 1_555 1_555
C11_7 C10_7 1_555 1_555
H7_7 C12_7 1_555 1_555
C13_7 C9_7 1_555 1_555
H8_7 C13_7 1_555 1_555
C14_7 C8_7 1_555 1_555
C15_6 C14_7 1_555 1_555
H9_6 C15_6 1_555 1_555
C16_6 C15_6 1_555 1_555
H10_6 C16_6 1_555 1_555
N6_6 Zn3_6 1_555 1_555
C17_7 N6_6 1_555 1_555
H11_7 C17_7 1_555 1_555
C18_7 C14_7 1_555 1_555
H12_7 C18_7 1_555 1_555
N7_6 Zn3_6 1_555 1_555
C19_7 N7_6 1_555 1_555
H13_7 C19_7 1_555 1_555
C20_7 C19_7 1_555 1_555
H14_7 C20_7 1_555 1_555
C23_6 N7_6 1_555 1_555
H16_6 C23_6 1_555 1_555
N13_3 Zn1_3 1_555 1_555
C4_6 C5_6 1_555 1_555
C8_7 N4_7 1_555 1_555
C12_7 C13_7 1_555 1_555
C16_6 N6_6 1_555 1_555
C17_7 C18_7 1_555 1_555
C28_5 C27_5 1_555 1_555
H17_6 C28_5 1_555 1_555
C29_5 C28_5 1_555 1_555
H18_6 C29_5 1_555 1_555
N13_3 C29_5 1_555 1_555
C30_6 N13_3 1_555 1_555
H19_6 C30_6 1_555 1_555
C31_5 C27_5 1_555 1_555
H20_5 C31_5 1_555 1_555
C30_6 C31_5 1_555 1_555
Zn2_4 Br3_7 1_555 1_555
Br4_7 Zn2_4 1_555 1_555
N5_7 Zn2_4 1_555 1_555
C30_7 N11_4 1_555 1_555
H19_7 C30_7 1_555 1_555
Zn4_4 N11_4 1_555 1_555
N14_4 Zn2_4 1_555 1_555
Zn4_4 Br1_7 1_555 1_555
Br2_5 Zn4_4 1_555 1_555
Zn3_7 Br5_7 1_555 1_555
Br6_7 Zn3_7 1_555 1_555
N1_7 Zn4_4 1_555 1_555
H3_7 C4_7 1_555 1_555
C5_7 N1_7 1_555 1_555
H4_7 C5_7 1_555 1_555
H9_7 C15_7 1_555 1_555
C16_7 C15_7 1_555 1_555
H10_7 C16_7 1_555 1_555
N6_7 Zn3_7 1_555 1_555
N7_7 Zn3_7 1_555 1_555
C23_7 N7_7 1_555 1_555
H16_7 C23_7 1_555 1_555
C4_7 C5_7 1_555 1_555
C16_7 N6_7 1_555 1_555
C22_7 C21_7 1_555 1_555
H15_7 C22_7 1_555 1_555
C24_7 C21_7 1_555 1_555
N8_7 C24_7 1_555 1_555
C25_7 N8_7 1_555 1_555
N9_7 C25_7 1_555 1_555
C26_7 N9_7 1_555 1_555
N10_7 C24_7 1_555 1_555
C27_6 C25_7 1_555 1_555
C28_6 C27_6 1_555 1_555
C29_6 C28_6 1_555 1_555
C31_6 C27_6 1_555 1_555
H20_6 C31_6 1_555 1_555
C32_7 C26_7 1_555 1_555
C33_7 C32_7 1_555 1_555
H21_7 C33_7 1_555 1_555
C34_7 C33_7 1_555 1_555
H22_7 C34_7 1_555 1_555
N14_4 C34_7 1_555 1_555
C35_7 N14_4 1_555 1_555
H23_7 C35_7 1_555 1_555
C36_7 C32_7 1_555 1_555
H24_7 C36_7 1_555 1_555
C26_7 N10_7 1_555 1_555
C35_7 C36_7 1_555 1_555
Zn1_4 Br1_8 1_555 1_555
Zn3_8 Br5_8 1_555 1_555
Br6_8 Zn3_8 1_555 1_555
N1_8 Zn1_4 1_555 1_555
C1_8 N1_8 1_555 1_555
H1_8 C1_8 1_555 1_555
C2_8 C1_8 1_555 1_555
H2_8 C2_8 1_555 1_555
C3_8 C2_8 1_555 1_555
C4_8 C3_8 1_555 1_555
H3_8 C4_8 1_555 1_555
C5_8 N1_8 1_555 1_555
H4_8 C5_8 1_555 1_555
C6_8 C3_8 1_555 1_555
N2_8 C6_8 1_555 1_555
C7_8 N2_8 1_555 1_555
N3_8 C7_8 1_555 1_555
C8_8 N3_8 1_555 1_555
N4_8 C6_8 1_555 1_555
C9_8 C7_8 1_555 1_555
C10_8 C9_8 1_555 1_555
H5_8 C10_8 1_555 1_555
C11_8 C10_8 1_555 1_555
H7_8 C12_8 1_555 1_555
C13_8 C9_8 1_555 1_555
H8_8 C13_8 1_555 1_555
C14_8 C8_8 1_555 1_555
C15_8 C14_8 1_555 1_555
H9_8 C15_8 1_555 1_555
C16_8 C15_8 1_555 1_555
H10_8 C16_8 1_555 1_555
N6_8 Zn3_8 1_555 1_555
C17_8 N6_8 1_555 1_555
H11_8 C17_8 1_555 1_555
C18_8 C14_8 1_555 1_555
H12_8 C18_8 1_555 1_555
N7_8 Zn3_8 1_555 1_555
C19_8 N7_8 1_555 1_555
H13_8 C19_8 1_555 1_555
C20_8 C19_8 1_555 1_555
H14_8 C20_8 1_555 1_555
C21_8 C20_8 1_555 1_555
C22_8 C21_8 1_555 1_555
H15_8 C22_8 1_555 1_555
C23_8 N7_8 1_555 1_555
H16_8 C23_8 1_555 1_555
C24_8 C21_8 1_555 1_555
N8_8 C24_8 1_555 1_555
C25_8 N8_8 1_555 1_555
N9_8 C25_8 1_555 1_555
C26_8 N9_8 1_555 1_555
N10_8 C24_8 1_555 1_555
C27_7 C25_8 1_555 1_555
C28_7 C27_7 1_555 1_555
H17_7 C28_7 1_555 1_555
C29_7 C28_7 1_555 1_555
H18_7 C29_7 1_555 1_555
C31_7 C27_7 1_555 1_555
H20_7 C31_7 1_555 1_555
C32_8 C26_8 1_555 1_555
C33_8 C32_8 1_555 1_555
H21_8 C33_8 1_555 1_555
C34_8 C33_8 1_555 1_555
H22_8 C34_8 1_555 1_555
N12_4 C34_8 1_555 1_555
C35_8 N12_4 1_555 1_555
H23_8 C35_8 1_555 1_555
C36_8 C32_8 1_555 1_555
H24_8 C36_8 1_555 1_555
Zn5_4 N12_4 1_555 1_555
N13_4 Zn1_4 1_555 1_555
C4_8 C5_8 1_555 1_555
C8_8 N4_8 1_555 1_555
C12_8 C13_8 1_555 1_555
C16_8 N6_8 1_555 1_555
C17_8 C18_8 1_555 1_555
C22_8 C23_8 1_555 1_555
C26_8 N10_8 1_555 1_555
C35_8 C36_8 1_555 1_555
C28_8 C27_8 1_555 1_555
C29_8 C28_8 1_555 1_555
N13_4 C29_8 1_555 1_555
C30_8 N13_4 1_555 1_555
H19_8 C30_8 1_555 1_555
C31_8 C27_8 1_555 1_555
H20_8 C31_8 1_555 1_555
C30_8 C31_8 1_555 1_555
Zn5_4 Br3_8 1_555 1_555
Br4_8 Zn5_4 1_555 1_555
N5_8 Zn5_4 1_555 1_555

#END
