
###############################################################################
#
# This file contains modified crystal structure data generated from the
# MOF subset of the Cambridge Structural Database (CSD) v543 
# hosted by the Cambridge Crystallographic Data Centre (CCDC).
#
# This work is licensed under the Creative Commons
# Attribution-NonCommercial-ShareAlike 4.0 International License.
# To view a copy of this license, visit
# http://creativecommons.org/licenses/by-nc-sa/4.0/
# or send a letter to
# Creative Commons, PO Box 1866, Mountain View, CA 94042, USA.
#
# CIF created using the CSD Python API on 29 September 2022
# The structure has been converted into the P1 space group
# The structure has a 3D framework
# The original CSD entry QARMAA is in the monoclinic crystal system
# The framework has been calculated to contain at least 10.0% void space
# The void calculation uses a probe of radius 1.32A, grid spacing 0.4
#
###############################################################################

data_QARMAA
_chemical_formula_moiety         '(C288 H192 I48 N96 Zn24)n'
_symmetry_cell_setting           triclinic
_symmetry_space_group_name_H-M   'P 1'
_symmetry_Int_Tables_number      1
_space_group_name_Hall           'P 1'
loop_
_symmetry_equiv_pos_site_id
_symmetry_equiv_pos_as_xyz
1 x,y,z
_cell_length_a                   35.0063(17)
_cell_length_b                   15.0958(7)
_cell_length_c                   30.2162(15)
_cell_angle_alpha                90
_cell_angle_beta                 102.0881(19)
_cell_angle_gamma                90
_cell_volume                     15613.6
loop_
_atom_site_label
_atom_site_type_symbol
_atom_site_fract_x
_atom_site_fract_y
_atom_site_fract_z
Zn2 Zn 0.1736(3) 0.6414(8) 0.2724(3)
I3 I 0.12869(16) 0.6627(4) 0.19539(16)
I4 I 0.23283(14) 0.7398(3) 0.29605(12)
C1 C 0.3235(2) 0.0575(5) 0.4061(3)
H1 H 0.3394 0.0889 0.4304
C2 C 0.2956(2) 0.1043(5) 0.3763(3)
H2 H 0.2934 0.1666 0.3795
C3 C 0.2710(2) 0.0604(4) 0.3420(2)
C6 C 0.2400(2) 0.1068(5) 0.3092(2)
N2 N 0.23472(18) 0.1920(4) 0.3141(2)
C7 C 0.2065(2) 0.2281(5) 0.2830(2)
N3 N 0.18314(18) 0.1839(4) 0.2491(2)
C8 C 0.1920(2) 0.0980(5) 0.2469(2)
N4 N 0.22108(18) 0.0566(4) 0.2750(2)
C9 C 0.1997(2) 0.3257(5) 0.2835(3)
C10 C 0.2224(2) 0.3812(5) 0.3146(3)
H5 H 0.2423 0.3580 0.3380
C11 C 0.2156(3) 0.4709(5) 0.3110(3)
H6 H 0.2318 0.5091 0.3319
N5 N 0.1877(2) 0.5067(4) 0.2800(2)
C12 C 0.1658(3) 0.4528(6) 0.2501(4)
H7 H 0.1456 0.4776 0.2275
C13 C 0.1714(3) 0.3634(5) 0.2507(3)
H8 H 0.1557 0.3272 0.2283
C14 C 0.1689(2) 0.0472(4) 0.2084(2)
C17 C 0.1166(3) 0.0383(5) 0.1447(3)
H11 H 0.0957 0.0671 0.1248
C18 C 0.1395(3) 0.0878(5) 0.1781(3)
H12 H 0.1351 0.1496 0.1802
C19 C 0.0349(2) 0.0384(5) 0.0500(3)
H13 H 0.0196 0.0287 0.0720
C20 C 0.0284(2) 0.1133(5) 0.0239(3)
H14 H 0.0092 0.1550 0.0285
N14 N 0.1408(2) 0.6558(4) 0.3223(2)
C21 C 0.04944(19) 0.1279(4) 0.9914(2)
C22 C 0.0758(2) 0.0640(5) 0.9852(3)
H15 H 0.0901 0.0704 0.9619
C24 C 0.04525(19) 0.2103(5) 0.9644(2)
N8 N 0.01792(17) 0.2680(4) 0.9705(2)
C25 C 0.01408(19) 0.3381(5) 0.9423(2)
N9 N 0.03515(18) 0.3545(4) 0.9116(2)
C26 C 0.0633(2) 0.2955(5) 0.9108(2)
N10 N 0.06913(17) 0.2224(4) 0.9356(2)
C32 C 0.0900(2) 0.3120(5) 0.8795(3)
C33 C 0.1238(3) 0.2652(6) 0.8836(3)
H21 H 0.1300 0.2202 0.9059
C34 C 0.1492(3) 0.2834(6) 0.8553(3)
H22 H 0.1732 0.2520 0.8593
N12 N 0.1408(2) 0.3442(4) 0.8223(2)
C35 C 0.1080(3) 0.3891(7) 0.8189(4)
H23 H 0.1018 0.4325 0.7958
C36 C 0.0826(3) 0.3763(6) 0.8470(3)
H24 H 0.0599 0.4120 0.8440
Zn5 Zn 0.1736(3) 0.3586(8) 0.7724(3)
I3_2 I 0.12869(16) 0.3373(4) 0.69539(16)
I4_2 I 0.23283(14) 0.2602(3) 0.79605(12)
C1_2 C 0.3235(2) 0.9425(5) 0.9061(3)
H1_2 H 0.3394 0.9111 0.9304
C2_2 C 0.2956(2) 0.8957(5) 0.8763(3)
H2_2 H 0.2934 0.8334 0.8795
C3_2 C 0.2710(2) 0.9396(4) 0.8420(2)
C6_2 C 0.2400(2) 0.8932(5) 0.8092(2)
N2_2 N 0.23472(18) 0.8080(4) 0.8141(2)
C7_2 C 0.2065(2) 0.7719(5) 0.7830(2)
N3_2 N 0.18314(18) 0.8161(4) 0.7491(2)
C8_2 C 0.1920(2) 0.9020(5) 0.7469(2)
N4_2 N 0.22108(18) 0.9434(4) 0.7750(2)
C9_2 C 0.1997(2) 0.6743(5) 0.7835(3)
C10_2 C 0.2224(2) 0.6188(5) 0.8146(3)
H5_2 H 0.2423 0.6420 0.8380
C11_2 C 0.2156(3) 0.5291(5) 0.8110(3)
H6_2 H 0.2318 0.4909 0.8319
N5_2 N 0.1877(2) 0.4933(4) 0.7800(2)
C12_2 C 0.1658(3) 0.5472(6) 0.7501(4)
H7_2 H 0.1456 0.5224 0.7275
C13_2 C 0.1714(3) 0.6366(5) 0.7507(3)
H8_2 H 0.1557 0.6728 0.7283
C14_2 C 0.1689(2) 0.9528(4) 0.7084(2)
C17_2 C 0.1166(3) 0.9617(5) 0.6447(3)
H11_2 H 0.0957 0.9329 0.6248
C18_2 C 0.1395(3) 0.9122(5) 0.6781(3)
H12_2 H 0.1351 0.8504 0.6802
C19_2 C 0.0349(2) 0.9616(5) 0.5500(3)
H13_2 H 0.0196 0.9713 0.5720
C20_2 C 0.0284(2) 0.8867(5) 0.5239(3)
H14_2 H 0.0092 0.8450 0.5285
C21_2 C 0.04944(19) 0.8721(4) 0.4914(2)
C22_2 C 0.0758(2) 0.9360(5) 0.4852(3)
H15_2 H 0.0901 0.9296 0.4619
C24_2 C 0.04525(19) 0.7897(5) 0.4644(2)
N8_2 N 0.01792(17) 0.7320(4) 0.4705(2)
C25_2 C 0.01408(19) 0.6619(5) 0.4423(2)
N9_2 N 0.03515(18) 0.6455(4) 0.4116(2)
C26_2 C 0.0633(2) 0.7045(5) 0.4108(2)
N10_2 N 0.06913(17) 0.7776(4) 0.4356(2)
C32_2 C 0.0900(2) 0.6880(5) 0.3795(3)
C33_2 C 0.1238(3) 0.7348(6) 0.3836(3)
H21_2 H 0.1300 0.7798 0.4059
C34_2 C 0.1492(3) 0.7166(6) 0.3553(3)
H22_2 H 0.1732 0.7480 0.3593
C35_2 C 0.1080(3) 0.6109(7) 0.3189(4)
H23_2 H 0.1018 0.5675 0.2958
C36_2 C 0.0826(3) 0.6237(6) 0.3470(3)
H24_2 H 0.0599 0.5880 0.3440
Zn1 Zn 0.37178(3) 0.90828(6) 0.44920(4)
I1 I 0.35327(3) 0.93000(8) 0.52422(3)
I2 I 0.3835(2) 0.7608(2) 0.4185(3)
Zn3 Zn 0.08051(3) 0.88034(5) 0.09369(3)
I5 I 0.11580(2) 0.76599(4) 0.05670(2)
I6 I 0.02662(2) 0.85478(5) 0.13634(2)
N1 N 0.32926(18) 0.9717(4) 0.4028(2)
C4 C 0.2762(3) 0.9701(5) 0.3388(3)
H3 H 0.2600 0.9368 0.3155
C5 C 0.3052(3) 0.9289(5) 0.3702(3)
H4 H 0.3080 0.8665 0.3683
C15 C 0.1753(2) 0.9580(5) 0.2017(3)
H9 H 0.1960 0.9275 0.2209
C16 C 0.1510(2) 0.9142(5) 0.1665(3)
H10 H 0.1554 0.8530 0.1623
N6 N 0.12197(18) 0.9532(4) 0.1386(2)
N7 N 0.06208(17) 0.9784(4) 0.0457(2)
C23 C 0.0814(2) 0.9915(5) 0.0126(3)
H16 H 0.0999 0.9483 0.0079
N13 N 0.41966(18) 0.9872(4) 0.4490(2)
C21_3 C 0.54944(19) 0.6279(4) 0.9914(2)
C22_3 C 0.5758(2) 0.5640(5) 0.9852(3)
H15_3 H 0.5901 0.5704 0.9619
C24_3 C 0.54525(19) 0.7103(5) 0.9644(2)
N8_3 N 0.51792(17) 0.7680(4) 0.9705(2)
C25_3 C 0.51408(19) 0.8381(5) 0.9423(2)
N9_3 N 0.53515(18) 0.8545(4) 0.9116(2)
C26_3 C 0.5633(2) 0.7955(5) 0.9108(2)
N10_3 N 0.56913(17) 0.7224(4) 0.9356(2)
C27 C 0.4817(2) 0.9002(5) 0.9448(2)
C28 C 0.4660(2) 0.9054(5) 0.9829(3)
C29 C 0.4358(2) 0.9610(6) 0.9841(3)
C31 C 0.4653(3) 0.9516(7) 0.9089(3)
H20 H 0.4748 0.9498 0.8817
C32_3 C 0.5900(2) 0.8120(5) 0.8795(3)
C33_3 C 0.6238(3) 0.7652(6) 0.8836(3)
H21_3 H 0.6300 0.7202 0.9059
C34_3 C 0.6492(3) 0.7834(6) 0.8553(3)
H22_3 H 0.6732 0.7520 0.8593
N12_2 N 0.6408(2) 0.8442(4) 0.8223(2)
C35_3 C 0.6080(3) 0.8891(7) 0.8189(4)
H23_3 H 0.6018 0.9325 0.7958
C36_3 C 0.5826(3) 0.8763(6) 0.8470(3)
H24_3 H 0.5599 0.9120 0.8440
Zn5_2 Zn 0.6736(3) 0.8586(8) 0.7724(3)
I3_3 I 0.62869(16) 0.8373(4) 0.69539(16)
I4_3 I 0.73283(14) 0.7602(3) 0.79605(12)
H6_3 H 0.7318 0.9909 0.8319
N5_3 N 0.6877(2) 0.9933(4) 0.7800(2)
C30 C 0.4346(3) 0.9936(8) 0.4127(3)
H19 H 0.4235 0.9580 0.3873
H17 H 0.9764 0.3698 0.0085
H18 H 0.9256 0.4634 0.0109
C27_2 C 0.9817(2) 0.4002(5) 0.9448(2)
C28_2 C 0.9660(2) 0.4054(5) 0.9829(3)
C29_2 C 0.9358(2) 0.4610(6) 0.9841(3)
N11 N 0.91966(18) 0.5128(4) 0.9490(2)
C30_2 C 0.9346(3) 0.5064(8) 0.9127(3)
H19_2 H 0.9235 0.5420 0.8873
C31_2 C 0.9653(3) 0.4516(7) 0.9089(3)
H20_2 H 0.9748 0.4498 0.8817
Zn4 Zn 0.87178(3) 0.59172(6) 0.94920(4)
Zn2_2 Zn 0.6736(3) 0.1414(8) 0.2724(3)
I3_4 I 0.62869(16) 0.1627(4) 0.19539(16)
I4_4 I 0.73283(14) 0.2398(3) 0.29605(12)
H6_4 H 0.7318 0.0091 0.3319
N5_4 N 0.6877(2) 0.0067(4) 0.2800(2)
N14_2 N 0.6408(2) 0.1558(4) 0.3223(2)
I2_2 I 0.8835(2) 0.7392(2) 0.9185(3)
Zn3_2 Zn 0.58051(3) 0.61966(5) 0.59369(3)
I5_2 I 0.61580(2) 0.73401(4) 0.55670(2)
I6_2 I 0.52662(2) 0.64522(5) 0.63634(2)
N1_2 N 0.82926(18) 0.5283(4) 0.9028(2)
C1_3 C 0.8235(2) 0.4425(5) 0.9061(3)
H1_3 H 0.8394 0.4111 0.9304
C2_3 C 0.7956(2) 0.3957(5) 0.8763(3)
H2_3 H 0.7934 0.3334 0.8795
C3_3 C 0.7710(2) 0.4396(4) 0.8420(2)
C4_2 C 0.7762(3) 0.5299(5) 0.8388(3)
H3_2 H 0.7600 0.5632 0.8155
C5_2 C 0.8052(3) 0.5711(5) 0.8702(3)
H4_2 H 0.8080 0.6335 0.8683
C6_3 C 0.7400(2) 0.3932(5) 0.8092(2)
N2_3 N 0.73472(18) 0.3080(4) 0.8141(2)
C7_3 C 0.7065(2) 0.2719(5) 0.7830(2)
N3_3 N 0.68314(18) 0.3161(4) 0.7491(2)
C8_3 C 0.6920(2) 0.4020(5) 0.7469(2)
N4_3 N 0.72108(18) 0.4434(4) 0.7750(2)
C9_3 C 0.6997(2) 0.1743(5) 0.7835(3)
C10_3 C 0.7224(2) 0.1188(5) 0.8146(3)
H5_3 H 0.7423 0.1420 0.8380
C11_3 C 0.7156(3) 0.0291(5) 0.8110(3)
C12_3 C 0.6658(3) 0.0472(6) 0.7501(4)
H7_3 H 0.6456 0.0224 0.7275
C13_3 C 0.6714(3) 0.1366(5) 0.7507(3)
H8_3 H 0.6557 0.1728 0.7283
C14_3 C 0.6689(2) 0.4528(4) 0.7084(2)
C15_2 C 0.6753(2) 0.5420(5) 0.7017(3)
H9_2 H 0.6960 0.5725 0.7209
C16_2 C 0.6510(2) 0.5858(5) 0.6665(3)
H10_2 H 0.6554 0.6470 0.6623
N6_2 N 0.62197(18) 0.5468(4) 0.6386(2)
C17_3 C 0.6166(3) 0.4617(5) 0.6447(3)
H11_3 H 0.5957 0.4329 0.6248
C18_3 C 0.6395(3) 0.4122(5) 0.6781(3)
H12_3 H 0.6351 0.3504 0.6802
N7_2 N 0.56208(17) 0.5216(4) 0.5457(2)
C19_3 C 0.5349(2) 0.4616(5) 0.5500(3)
H13_3 H 0.5196 0.4713 0.5720
C20_3 C 0.5284(2) 0.3867(5) 0.5239(3)
H14_3 H 0.5092 0.3450 0.5285
C21_4 C 0.54944(19) 0.3721(4) 0.4914(2)
C22_4 C 0.5758(2) 0.4360(5) 0.4852(3)
H15_4 H 0.5901 0.4296 0.4619
C23_2 C 0.5814(2) 0.5085(5) 0.5126(3)
H16_2 H 0.5999 0.5517 0.5079
C24_4 C 0.54525(19) 0.2897(5) 0.4644(2)
N8_4 N 0.51792(17) 0.2320(4) 0.4705(2)
C25_4 C 0.51408(19) 0.1619(5) 0.4423(2)
N9_4 N 0.53515(18) 0.1455(4) 0.4116(2)
C26_4 C 0.5633(2) 0.2045(5) 0.4108(2)
N10_4 N 0.56913(17) 0.2776(4) 0.4356(2)
C27_3 C 0.4817(2) 0.0998(5) 0.4448(2)
C28_3 C 0.4660(2) 0.0946(5) 0.4829(3)
H17_2 H 0.4764 0.1302 0.5085
C29_3 C 0.4358(2) 0.0390(6) 0.4841(3)
H18_2 H 0.4256 0.0366 0.5109
C31_3 C 0.4653(3) 0.0484(7) 0.4089(3)
H20_3 H 0.4748 0.0502 0.3817
C32_4 C 0.5900(2) 0.1880(5) 0.3795(3)
C33_4 C 0.6238(3) 0.2348(6) 0.3836(3)
H21_4 H 0.6300 0.2798 0.4059
C34_4 C 0.6492(3) 0.2166(6) 0.3553(3)
H22_4 H 0.6732 0.2480 0.3593
C35_4 C 0.6080(3) 0.1109(7) 0.3189(4)
H23_4 H 0.6018 0.0675 0.2958
C36_4 C 0.5826(3) 0.1237(6) 0.3470(3)
H24_4 H 0.5599 0.0880 0.3440
C27_4 C 0.0183(2) 0.4002(5) 0.5552(2)
C28_4 C 0.0340(2) 0.4054(5) 0.5171(3)
H17_3 H 0.0236 0.3698 0.4915
C29_4 C 0.0642(2) 0.4610(6) 0.5159(3)
H18_3 H 0.0744 0.4634 0.4891
N11_2 N 0.08034(18) 0.5128(4) 0.5510(2)
C30_3 C 0.0654(3) 0.5064(8) 0.5873(3)
H19_3 H 0.0765 0.5420 0.6127
C31_4 C 0.0347(3) 0.4516(7) 0.5911(3)
H20_4 H 0.0252 0.4498 0.6183
Zn4_2 Zn 0.12822(3) 0.59172(6) 0.55080(4)
I1_2 I 0.14673(3) 0.57000(8) 0.47578(3)
I2_3 I 0.1165(2) 0.7392(2) 0.5815(3)
Zn3_3 Zn 0.41949(3) 0.61966(5) 0.90631(3)
I5_3 I 0.38420(2) 0.73401(4) 0.94330(2)
I6_3 I 0.47338(2) 0.64522(5) 0.86366(2)
N1_3 N 0.17074(18) 0.5283(4) 0.5972(2)
C1_4 C 0.1765(2) 0.4425(5) 0.5939(3)
H1_4 H 0.1606 0.4111 0.5696
C2_4 C 0.2044(2) 0.3957(5) 0.6237(3)
H2_4 H 0.2066 0.3334 0.6205
C3_4 C 0.2290(2) 0.4396(4) 0.6580(2)
C4_3 C 0.2238(3) 0.5299(5) 0.6612(3)
H3_3 H 0.2400 0.5632 0.6845
C5_3 C 0.1948(3) 0.5711(5) 0.6298(3)
H4_3 H 0.1920 0.6335 0.6317
C6_4 C 0.2600(2) 0.3932(5) 0.6908(2)
N2_4 N 0.26528(18) 0.3080(4) 0.6859(2)
C7_4 C 0.2935(2) 0.2719(5) 0.7170(2)
N3_4 N 0.31686(18) 0.3161(4) 0.7509(2)
C8_4 C 0.3080(2) 0.4020(5) 0.7531(2)
N4_4 N 0.27892(18) 0.4434(4) 0.7250(2)
C9_4 C 0.3003(2) 0.1743(5) 0.7165(3)
C10_4 C 0.2776(2) 0.1188(5) 0.6854(3)
H5_4 H 0.2577 0.1420 0.6620
C11_4 C 0.2844(3) 0.0291(5) 0.6890(3)
C12_4 C 0.3342(3) 0.0472(6) 0.7499(4)
H7_4 H 0.3544 0.0224 0.7725
C13_4 C 0.3286(3) 0.1366(5) 0.7493(3)
H8_4 H 0.3443 0.1728 0.7717
C14_4 C 0.3311(2) 0.4528(4) 0.7916(2)
C15_3 C 0.3247(2) 0.5420(5) 0.7983(3)
H9_3 H 0.3040 0.5725 0.7791
C16_3 C 0.3490(2) 0.5858(5) 0.8335(3)
H10_3 H 0.3446 0.6470 0.8377
N6_3 N 0.37803(18) 0.5468(4) 0.8614(2)
C17_4 C 0.3834(3) 0.4617(5) 0.8553(3)
H11_4 H 0.4043 0.4329 0.8752
C18_4 C 0.3605(3) 0.4122(5) 0.8219(3)
H12_4 H 0.3649 0.3504 0.8198
N7_3 N 0.43792(17) 0.5216(4) 0.9543(2)
C19_4 C 0.4651(2) 0.4616(5) 0.9500(3)
H13_4 H 0.4804 0.4713 0.9280
C20_4 C 0.4716(2) 0.3867(5) 0.9761(3)
H14_4 H 0.4908 0.3450 0.9715
C23_3 C 0.4186(2) 0.5085(5) 0.9874(3)
H16_3 H 0.4001 0.5517 0.9921
H17_4 H 0.5236 0.1302 0.9915
H18_4 H 0.5744 0.0366 0.9891
Zn2_3 Zn 0.8264(3) 0.6414(8) 0.2276(3)
I3_5 I 0.87131(16) 0.6627(4) 0.30461(16)
I4_5 I 0.76717(14) 0.7398(3) 0.20395(12)
C1_5 C 0.6765(2) 0.0575(5) 0.0939(3)
H1_5 H 0.6606 0.0889 0.0696
C2_5 C 0.7044(2) 0.1043(5) 0.1237(3)
H2_5 H 0.7066 0.1666 0.1205
C3_5 C 0.7290(2) 0.0604(4) 0.1580(2)
C6_5 C 0.7600(2) 0.1068(5) 0.1908(2)
N2_5 N 0.76528(18) 0.1920(4) 0.1859(2)
C7_5 C 0.7935(2) 0.2281(5) 0.2170(2)
N3_5 N 0.81686(18) 0.1839(4) 0.2509(2)
C8_5 C 0.8080(2) 0.0980(5) 0.2531(2)
N4_5 N 0.77892(18) 0.0566(4) 0.2250(2)
C9_5 C 0.8003(2) 0.3257(5) 0.2165(3)
C10_5 C 0.7776(2) 0.3812(5) 0.1854(3)
H5_5 H 0.7577 0.3580 0.1620
C11_5 C 0.7844(3) 0.4709(5) 0.1890(3)
H6_5 H 0.7682 0.5091 0.1681
N5_5 N 0.8123(2) 0.5067(4) 0.2200(2)
C12_5 C 0.8342(3) 0.4528(6) 0.2499(4)
H7_5 H 0.8544 0.4776 0.2725
C13_5 C 0.8286(3) 0.3634(5) 0.2493(3)
H8_5 H 0.8443 0.3272 0.2717
C14_5 C 0.8311(2) 0.0472(4) 0.2916(2)
C17_5 C 0.8834(3) 0.0383(5) 0.3553(3)
H11_5 H 0.9043 0.0671 0.3752
C18_5 C 0.8605(3) 0.0878(5) 0.3219(3)
H12_5 H 0.8649 0.1496 0.3198
C19_5 C 0.9651(2) 0.0384(5) 0.4500(3)
H13_5 H 0.9804 0.0287 0.4280
C20_5 C 0.9716(2) 0.1133(5) 0.4761(3)
H14_5 H 0.9908 0.1550 0.4715
C21_5 C 0.95056(19) 0.1279(4) 0.5086(2)
C22_5 C 0.9242(2) 0.0640(5) 0.5148(3)
H15_5 H 0.9099 0.0704 0.5381
C24_5 C 0.95475(19) 0.2103(5) 0.5356(2)
N8_5 N 0.98208(17) 0.2680(4) 0.5295(2)
C25_5 C 0.98592(19) 0.3381(5) 0.5577(2)
N9_5 N 0.96485(18) 0.3545(4) 0.5884(2)
C26_5 C 0.9367(2) 0.2955(5) 0.5892(2)
N10_5 N 0.93087(17) 0.2224(4) 0.5644(2)
C32_5 C 0.9100(2) 0.3120(5) 0.6205(3)
C33_5 C 0.8762(3) 0.2652(6) 0.6164(3)
H21_5 H 0.8700 0.2202 0.5941
C34_5 C 0.8508(3) 0.2834(6) 0.6447(3)
H22_5 H 0.8268 0.2520 0.6407
N12_3 N 0.8592(2) 0.3442(4) 0.6777(2)
C35_5 C 0.8920(3) 0.3891(7) 0.6811(4)
H23_5 H 0.8982 0.4325 0.7042
C36_5 C 0.9174(3) 0.3763(6) 0.6530(3)
H24_5 H 0.9401 0.4120 0.6560
Zn5_3 Zn 0.8264(3) 0.3586(8) 0.7276(3)
N14_3 N 0.8592(2) 0.6558(4) 0.1777(2)
C21_6 C 0.95056(19) 0.8721(4) 0.0086(2)
C22_6 C 0.9242(2) 0.9360(5) 0.0148(3)
H15_6 H 0.9099 0.9296 0.0381
C24_6 C 0.95475(19) 0.7897(5) 0.0356(2)
N8_6 N 0.98208(17) 0.7320(4) 0.0295(2)
C25_6 C 0.98592(19) 0.6619(5) 0.0577(2)
N9_6 N 0.96485(18) 0.6455(4) 0.0884(2)
C26_6 C 0.9367(2) 0.7045(5) 0.0892(2)
N10_6 N 0.93087(17) 0.7776(4) 0.0644(2)
C32_6 C 0.9100(2) 0.6880(5) 0.1205(3)
C33_6 C 0.8762(3) 0.7348(6) 0.1164(3)
H21_6 H 0.8700 0.7798 0.0941
C34_6 C 0.8508(3) 0.7166(6) 0.1447(3)
H22_6 H 0.8268 0.7480 0.1407
C35_6 C 0.8920(3) 0.6109(7) 0.1811(4)
H23_6 H 0.8982 0.5675 0.2042
C36_6 C 0.9174(3) 0.6237(6) 0.1530(3)
H24_6 H 0.9401 0.5880 0.1560
I3_6 I 0.87131(16) 0.3373(4) 0.80461(16)
I4_6 I 0.76717(14) 0.2602(3) 0.70395(12)
C1_6 C 0.6765(2) 0.9425(5) 0.5939(3)
H1_6 H 0.6606 0.9111 0.5696
C2_6 C 0.7044(2) 0.8957(5) 0.6237(3)
H2_6 H 0.7066 0.8334 0.6205
C3_6 C 0.7290(2) 0.9396(4) 0.6580(2)
C6_6 C 0.7600(2) 0.8932(5) 0.6908(2)
N2_6 N 0.76528(18) 0.8080(4) 0.6859(2)
C7_6 C 0.7935(2) 0.7719(5) 0.7170(2)
N3_6 N 0.81686(18) 0.8161(4) 0.7509(2)
C8_6 C 0.8080(2) 0.9020(5) 0.7531(2)
N4_6 N 0.77892(18) 0.9434(4) 0.7250(2)
C9_6 C 0.8003(2) 0.6743(5) 0.7165(3)
C10_6 C 0.7776(2) 0.6188(5) 0.6854(3)
H5_6 H 0.7577 0.6420 0.6620
C11_6 C 0.7844(3) 0.5291(5) 0.6890(3)
H6_6 H 0.7682 0.4909 0.6681
N5_6 N 0.8123(2) 0.4933(4) 0.7200(2)
C12_6 C 0.8342(3) 0.5472(6) 0.7499(4)
H7_6 H 0.8544 0.5224 0.7725
C13_6 C 0.8286(3) 0.6366(5) 0.7493(3)
H8_6 H 0.8443 0.6728 0.7717
C14_6 C 0.8311(2) 0.9528(4) 0.7916(2)
C17_6 C 0.8834(3) 0.9617(5) 0.8553(3)
H11_6 H 0.9043 0.9329 0.8752
C18_6 C 0.8605(3) 0.9122(5) 0.8219(3)
H12_6 H 0.8649 0.8504 0.8198
C19_6 C 0.9651(2) 0.9616(5) 0.9500(3)
H13_6 H 0.9804 0.9713 0.9280
C20_6 C 0.9716(2) 0.8867(5) 0.9761(3)
H14_6 H 0.9908 0.8450 0.9715
Zn1_2 Zn 0.62822(3) 0.90828(6) 0.05080(4)
I2_4 I 0.6165(2) 0.7608(2) 0.0815(3)
Zn3_4 Zn 0.91949(3) 0.88034(5) 0.40631(3)
I5_4 I 0.88420(2) 0.76599(4) 0.44330(2)
I6_4 I 0.97338(2) 0.85478(5) 0.36366(2)
N1_4 N 0.67074(18) 0.9717(4) 0.0972(2)
C4_4 C 0.7238(3) 0.9701(5) 0.1612(3)
H3_4 H 0.7400 0.9368 0.1845
C5_4 C 0.6948(3) 0.9289(5) 0.1298(3)
H4_4 H 0.6920 0.8665 0.1317
C15_4 C 0.8247(2) 0.9580(5) 0.2983(3)
H9_4 H 0.8040 0.9275 0.2791
C16_4 C 0.8490(2) 0.9142(5) 0.3335(3)
H10_4 H 0.8446 0.8530 0.3377
N6_4 N 0.87803(18) 0.9532(4) 0.3614(2)
N7_4 N 0.93792(17) 0.9784(4) 0.4543(2)
C23_4 C 0.9186(2) 0.9915(5) 0.4874(3)
H16_4 H 0.9001 0.9483 0.4921
N13_2 N 0.58034(18) 0.9872(4) 0.0510(2)
C30_4 C 0.5654(3) 0.9936(8) 0.0873(3)
H19_4 H 0.5765 0.9580 0.1127
I1_3 I 0.64673(3) 0.93000(8) 0.97578(3)
N11_3 N 0.41966(18) 0.0128(4) 0.9490(2)
C30_5 C 0.4346(3) 0.0064(8) 0.9127(3)
H19_5 H 0.4235 0.0420 0.8873
Zn4_3 Zn 0.37178(3) 0.09172(6) 0.94920(4)
I2_5 I 0.3835(2) 0.2392(2) 0.9185(3)
Zn3_5 Zn 0.08051(3) 0.11966(5) 0.59369(3)
I5_5 I 0.11580(2) 0.23401(4) 0.55670(2)
I6_5 I 0.02662(2) 0.14522(5) 0.63634(2)
N1_5 N 0.32926(18) 0.0283(4) 0.9028(2)
C4_5 C 0.2762(3) 0.0299(5) 0.8388(3)
H3_5 H 0.2600 0.0632 0.8155
C5_5 C 0.3052(3) 0.0711(5) 0.8702(3)
H4_5 H 0.3080 0.1335 0.8683
C15_5 C 0.1753(2) 0.0420(5) 0.7017(3)
H9_5 H 0.1960 0.0725 0.7209
C16_5 C 0.1510(2) 0.0858(5) 0.6665(3)
H10_5 H 0.1554 0.1470 0.6623
N6_5 N 0.12197(18) 0.0468(4) 0.6386(2)
N7_5 N 0.06208(17) 0.0216(4) 0.5457(2)
C23_5 C 0.0814(2) 0.0085(5) 0.5126(3)
H16_5 H 0.0999 0.0517 0.5079
Zn1_3 Zn 0.87178(3) 0.40828(6) 0.44920(4)
I1_4 I 0.85327(3) 0.43000(8) 0.52422(3)
I2_6 I 0.8835(2) 0.2608(2) 0.4185(3)
Zn3_6 Zn 0.58051(3) 0.38034(5) 0.09369(3)
I5_6 I 0.61580(2) 0.26599(4) 0.05670(2)
I6_6 I 0.52662(2) 0.35478(5) 0.13634(2)
N1_6 N 0.82926(18) 0.4717(4) 0.4028(2)
C1_7 C 0.8235(2) 0.5575(5) 0.4061(3)
H1_7 H 0.8394 0.5889 0.4304
C2_7 C 0.7956(2) 0.6043(5) 0.3763(3)
H2_7 H 0.7934 0.6666 0.3795
C3_7 C 0.7710(2) 0.5604(4) 0.3420(2)
C4_6 C 0.7762(3) 0.4701(5) 0.3388(3)
H3_6 H 0.7600 0.4368 0.3155
C5_6 C 0.8052(3) 0.4289(5) 0.3702(3)
H4_6 H 0.8080 0.3665 0.3683
C6_7 C 0.7400(2) 0.6068(5) 0.3092(2)
N2_7 N 0.73472(18) 0.6920(4) 0.3141(2)
C7_7 C 0.7065(2) 0.7281(5) 0.2830(2)
N3_7 N 0.68314(18) 0.6839(4) 0.2491(2)
C8_7 C 0.6920(2) 0.5980(5) 0.2469(2)
N4_7 N 0.72108(18) 0.5566(4) 0.2750(2)
C9_7 C 0.6997(2) 0.8257(5) 0.2835(3)
C10_7 C 0.7224(2) 0.8812(5) 0.3146(3)
H5_7 H 0.7423 0.8580 0.3380
C11_7 C 0.7156(3) 0.9709(5) 0.3110(3)
C12_7 C 0.6658(3) 0.9528(6) 0.2501(4)
H7_7 H 0.6456 0.9776 0.2275
C13_7 C 0.6714(3) 0.8634(5) 0.2507(3)
H8_7 H 0.6557 0.8272 0.2283
C14_7 C 0.6689(2) 0.5472(4) 0.2084(2)
C15_6 C 0.6753(2) 0.4580(5) 0.2017(3)
H9_6 H 0.6960 0.4275 0.2209
C16_6 C 0.6510(2) 0.4142(5) 0.1665(3)
H10_6 H 0.6554 0.3530 0.1623
N6_6 N 0.62197(18) 0.4532(4) 0.1386(2)
C17_7 C 0.6166(3) 0.5383(5) 0.1447(3)
H11_7 H 0.5957 0.5671 0.1248
C18_7 C 0.6395(3) 0.5878(5) 0.1781(3)
H12_7 H 0.6351 0.6496 0.1802
N7_6 N 0.56208(17) 0.4784(4) 0.0457(2)
C19_7 C 0.5349(2) 0.5384(5) 0.0500(3)
H13_7 H 0.5196 0.5287 0.0720
C20_7 C 0.5284(2) 0.6133(5) 0.0239(3)
H14_7 H 0.5092 0.6550 0.0285
C23_6 C 0.5814(2) 0.4915(5) 0.0126(3)
H16_6 H 0.5999 0.4483 0.0079
H17_5 H 0.4764 0.8698 0.0085
H18_5 H 0.4256 0.9634 0.0109
N13_3 N 0.91966(18) 0.4872(4) 0.4490(2)
C27_5 C 0.9817(2) 0.5998(5) 0.4448(2)
C28_5 C 0.9660(2) 0.5946(5) 0.4829(3)
H17_6 H 0.9764 0.6302 0.5085
C29_5 C 0.9358(2) 0.5390(6) 0.4841(3)
H18_6 H 0.9256 0.5366 0.5109
C30_6 C 0.9346(3) 0.4936(8) 0.4127(3)
H19_6 H 0.9235 0.4580 0.3873
C31_5 C 0.9653(3) 0.5484(7) 0.4089(3)
H20_5 H 0.9748 0.5502 0.3817
Zn2_4 Zn 0.3264(3) 0.1414(8) 0.2276(3)
I3_7 I 0.37131(16) 0.1627(4) 0.30461(16)
I4_7 I 0.26717(14) 0.2398(3) 0.20395(12)
H6_7 H 0.2682 0.0091 0.1681
N5_7 N 0.3123(2) 0.0067(4) 0.2200(2)
N11_4 N 0.58034(18) 0.0128(4) 0.5510(2)
C30_7 C 0.5654(3) 0.0064(8) 0.5873(3)
H19_7 H 0.5765 0.0420 0.6127
Zn4_4 Zn 0.62822(3) 0.09172(6) 0.55080(4)
N14_4 N 0.3592(2) 0.1558(4) 0.1777(2)
I1_5 I 0.64673(3) 0.07000(8) 0.47578(3)
I2_7 I 0.6165(2) 0.2392(2) 0.5815(3)
Zn3_7 Zn 0.91949(3) 0.11966(5) 0.90631(3)
I5_7 I 0.88420(2) 0.23401(4) 0.94330(2)
I6_7 I 0.97338(2) 0.14522(5) 0.86366(2)
N1_7 N 0.67074(18) 0.0283(4) 0.5972(2)
C4_7 C 0.7238(3) 0.0299(5) 0.6612(3)
H3_7 H 0.7400 0.0632 0.6845
C5_7 C 0.6948(3) 0.0711(5) 0.6298(3)
H4_7 H 0.6920 0.1335 0.6317
C15_7 C 0.8247(2) 0.0420(5) 0.7983(3)
H9_7 H 0.8040 0.0725 0.7791
C16_7 C 0.8490(2) 0.0858(5) 0.8335(3)
H10_7 H 0.8446 0.1470 0.8377
N6_7 N 0.87803(18) 0.0468(4) 0.8614(2)
N7_7 N 0.93792(17) 0.0216(4) 0.9543(2)
C23_7 C 0.9186(2) 0.0085(5) 0.9874(3)
H16_7 H 0.9001 0.0517 0.9921
C21_7 C 0.45056(19) 0.3721(4) 0.0086(2)
C22_7 C 0.4242(2) 0.4360(5) 0.0148(3)
H15_7 H 0.4099 0.4296 0.0381
C24_7 C 0.45475(19) 0.2897(5) 0.0356(2)
N8_7 N 0.48208(17) 0.2320(4) 0.0295(2)
C25_7 C 0.48592(19) 0.1619(5) 0.0577(2)
N9_7 N 0.46485(18) 0.1455(4) 0.0884(2)
C26_7 C 0.4367(2) 0.2045(5) 0.0892(2)
N10_7 N 0.43087(17) 0.2776(4) 0.0644(2)
C27_6 C 0.5183(2) 0.0998(5) 0.0552(2)
C28_6 C 0.5340(2) 0.0946(5) 0.0171(3)
C29_6 C 0.5642(2) 0.0390(6) 0.0159(3)
C31_6 C 0.5347(3) 0.0484(7) 0.0911(3)
H20_6 H 0.5252 0.0502 0.1183
C32_7 C 0.4100(2) 0.1880(5) 0.1205(3)
C33_7 C 0.3762(3) 0.2348(6) 0.1164(3)
H21_7 H 0.3700 0.2798 0.0941
C34_7 C 0.3508(3) 0.2166(6) 0.1447(3)
H22_7 H 0.3268 0.2480 0.1407
C35_7 C 0.3920(3) 0.1109(7) 0.1811(4)
H23_7 H 0.3982 0.0675 0.2042
C36_7 C 0.4174(3) 0.1237(6) 0.1530(3)
H24_7 H 0.4401 0.0880 0.1560
Zn1_4 Zn 0.12822(3) 0.40828(6) 0.05080(4)
I2_8 I 0.1165(2) 0.2608(2) 0.0815(3)
Zn3_8 Zn 0.41949(3) 0.38034(5) 0.40631(3)
I5_8 I 0.38420(2) 0.26599(4) 0.44330(2)
I6_8 I 0.47338(2) 0.35478(5) 0.36366(2)
N1_8 N 0.17074(18) 0.4717(4) 0.0972(2)
C1_8 C 0.1765(2) 0.5575(5) 0.0939(3)
H1_8 H 0.1606 0.5889 0.0696
C2_8 C 0.2044(2) 0.6043(5) 0.1237(3)
H2_8 H 0.2066 0.6666 0.1205
C3_8 C 0.2290(2) 0.5604(4) 0.1580(2)
C4_8 C 0.2238(3) 0.4701(5) 0.1612(3)
H3_8 H 0.2400 0.4368 0.1845
C5_8 C 0.1948(3) 0.4289(5) 0.1298(3)
H4_8 H 0.1920 0.3665 0.1317
C6_8 C 0.2600(2) 0.6068(5) 0.1908(2)
N2_8 N 0.26528(18) 0.6920(4) 0.1859(2)
C7_8 C 0.2935(2) 0.7281(5) 0.2170(2)
N3_8 N 0.31686(18) 0.6839(4) 0.2509(2)
C8_8 C 0.3080(2) 0.5980(5) 0.2531(2)
N4_8 N 0.27892(18) 0.5566(4) 0.2250(2)
C9_8 C 0.3003(2) 0.8257(5) 0.2165(3)
C10_8 C 0.2776(2) 0.8812(5) 0.1854(3)
H5_8 H 0.2577 0.8580 0.1620
C11_8 C 0.2844(3) 0.9709(5) 0.1890(3)
C12_8 C 0.3342(3) 0.9528(6) 0.2499(4)
H7_8 H 0.3544 0.9776 0.2725
C13_8 C 0.3286(3) 0.8634(5) 0.2493(3)
H8_8 H 0.3443 0.8272 0.2717
C14_8 C 0.3311(2) 0.5472(4) 0.2916(2)
C15_8 C 0.3247(2) 0.4580(5) 0.2983(3)
H9_8 H 0.3040 0.4275 0.2791
C16_8 C 0.3490(2) 0.4142(5) 0.3335(3)
H10_8 H 0.3446 0.3530 0.3377
N6_8 N 0.37803(18) 0.4532(4) 0.3614(2)
C17_8 C 0.3834(3) 0.5383(5) 0.3553(3)
H11_8 H 0.4043 0.5671 0.3752
C18_8 C 0.3605(3) 0.5878(5) 0.3219(3)
H12_8 H 0.3649 0.6496 0.3198
N7_8 N 0.43792(17) 0.4784(4) 0.4543(2)
C19_8 C 0.4651(2) 0.5384(5) 0.4500(3)
H13_8 H 0.4804 0.5287 0.4280
C20_8 C 0.4716(2) 0.6133(5) 0.4761(3)
H14_8 H 0.4908 0.6550 0.4715
C21_8 C 0.45056(19) 0.6279(4) 0.5086(2)
C22_8 C 0.4242(2) 0.5640(5) 0.5148(3)
H15_8 H 0.4099 0.5704 0.5381
C23_8 C 0.4186(2) 0.4915(5) 0.4874(3)
H16_8 H 0.4001 0.4483 0.4921
C24_8 C 0.45475(19) 0.7103(5) 0.5356(2)
N8_8 N 0.48208(17) 0.7680(4) 0.5295(2)
C25_8 C 0.48592(19) 0.8381(5) 0.5577(2)
N9_8 N 0.46485(18) 0.8545(4) 0.5884(2)
C26_8 C 0.4367(2) 0.7955(5) 0.5892(2)
N10_8 N 0.43087(17) 0.7224(4) 0.5644(2)
C27_7 C 0.5183(2) 0.9002(5) 0.5552(2)
C28_7 C 0.5340(2) 0.9054(5) 0.5171(3)
H17_7 H 0.5236 0.8698 0.4915
C29_7 C 0.5642(2) 0.9610(6) 0.5159(3)
H18_7 H 0.5744 0.9634 0.4891
C31_7 C 0.5347(3) 0.9516(7) 0.5911(3)
H20_7 H 0.5252 0.9498 0.6183
C32_8 C 0.4100(2) 0.8120(5) 0.6205(3)
C33_8 C 0.3762(3) 0.7652(6) 0.6164(3)
H21_8 H 0.3700 0.7202 0.5941
C34_8 C 0.3508(3) 0.7834(6) 0.6447(3)
H22_8 H 0.3268 0.7520 0.6407
N12_4 N 0.3592(2) 0.8442(4) 0.6777(2)
C35_8 C 0.3920(3) 0.8891(7) 0.6811(4)
H23_8 H 0.3982 0.9325 0.7042
C36_8 C 0.4174(3) 0.8763(6) 0.6530(3)
H24_8 H 0.4401 0.9120 0.6560
Zn5_4 Zn 0.3264(3) 0.8586(8) 0.7276(3)
N13_4 N 0.08034(18) 0.4872(4) 0.0510(2)
C27_8 C 0.0183(2) 0.5998(5) 0.0552(2)
C28_8 C 0.0340(2) 0.5946(5) 0.0171(3)
C29_8 C 0.0642(2) 0.5390(6) 0.0159(3)
C30_8 C 0.0654(3) 0.4936(8) 0.0873(3)
H19_8 H 0.0765 0.4580 0.1127
C31_8 C 0.0347(3) 0.5484(7) 0.0911(3)
H20_8 H 0.0252 0.5502 0.1183
I3_8 I 0.37131(16) 0.8373(4) 0.80461(16)
I4_8 I 0.26717(14) 0.7602(3) 0.70395(12)
H6_8 H 0.2682 0.9909 0.6681
N5_8 N 0.3123(2) 0.9933(4) 0.7200(2)
I1_6 I 0.14673(3) 0.43000(8) 0.97578(3)
H17_8 H 0.0236 0.6302 0.9915
H18_8 H 0.0744 0.5366 0.9891
I1_7 I 0.35327(3) 0.07000(8) 0.02422(3)
I1_8 I 0.85327(3) 0.57000(8) 0.02422(3)
loop_
_geom_bond_atom_site_label_1
_geom_bond_atom_site_label_2
_geom_bond_site_symmetry_1
_geom_bond_site_symmetry_2
Zn2 I3 1_555 1_555
I4 Zn2 1_555 1_555
H1 C1 1_555 1_555
C2 C1 1_555 1_555
H2 C2 1_555 1_555
C3 C2 1_555 1_555
C6 C3 1_555 1_555
N2 C6 1_555 1_555
C7 N2 1_555 1_555
N3 C7 1_555 1_555
C8 N3 1_555 1_555
N4 C6 1_555 1_555
C9 C7 1_555 1_555
C10 C9 1_555 1_555
H5 C10 1_555 1_555
C11 C10 1_555 1_555
H6 C11 1_555 1_555
N5 Zn2 1_555 1_555
C12 N5 1_555 1_555
H7 C12 1_555 1_555
C13 C9 1_555 1_555
H8 C13 1_555 1_555
C14 C8 1_555 1_555
H11 C17 1_555 1_555
C18 C14 1_555 1_555
H12 C18 1_555 1_555
H13 C19 1_555 1_555
C20 C19 1_555 1_555
H14 C20 1_555 1_555
N14 Zn2 1_555 1_555
C8 N4 1_555 1_555
C11 N5 1_555 1_555
C12 C13 1_555 1_555
C17 C18 1_555 1_555
C22 C21 1_555 1_555
H15 C22 1_555 1_555
C24 C21 1_555 1_555
N8 C24 1_555 1_555
C25 N8 1_555 1_555
N9 C25 1_555 1_555
C26 N9 1_555 1_555
N10 C24 1_555 1_555
C32 C26 1_555 1_555
C33 C32 1_555 1_555
H21 C33 1_555 1_555
C34 C33 1_555 1_555
H22 C34 1_555 1_555
N12 C34 1_555 1_555
C35 N12 1_555 1_555
H23 C35 1_555 1_555
C36 C32 1_555 1_555
H24 C36 1_555 1_555
Zn5 N12 1_555 1_555
C26 N10 1_555 1_555
C35 C36 1_555 1_555
Zn5 I3_2 1_555 1_555
I4_2 Zn5 1_555 1_555
H1_2 C1_2 1_555 1_555
C2_2 C1_2 1_555 1_555
H2_2 C2_2 1_555 1_555
C3_2 C2_2 1_555 1_555
C6_2 C3_2 1_555 1_555
N2_2 C6_2 1_555 1_555
C7_2 N2_2 1_555 1_555
N3_2 C7_2 1_555 1_555
C8_2 N3_2 1_555 1_555
N4_2 C6_2 1_555 1_555
C9_2 C7_2 1_555 1_555
C10_2 C9_2 1_555 1_555
H5_2 C10_2 1_555 1_555
C11_2 C10_2 1_555 1_555
H6_2 C11_2 1_555 1_555
N5_2 Zn5 1_555 1_555
C12_2 N5_2 1_555 1_555
H7_2 C12_2 1_555 1_555
C13_2 C9_2 1_555 1_555
H8_2 C13_2 1_555 1_555
C14_2 C8_2 1_555 1_555
H11_2 C17_2 1_555 1_555
C18_2 C14_2 1_555 1_555
H12_2 C18_2 1_555 1_555
H13_2 C19_2 1_555 1_555
C20_2 C19_2 1_555 1_555
H14_2 C20_2 1_555 1_555
C21_2 C20_2 1_555 1_555
C22_2 C21_2 1_555 1_555
H15_2 C22_2 1_555 1_555
C24_2 C21_2 1_555 1_555
N8_2 C24_2 1_555 1_555
C25_2 N8_2 1_555 1_555
N9_2 C25_2 1_555 1_555
C26_2 N9_2 1_555 1_555
N10_2 C24_2 1_555 1_555
C32_2 C26_2 1_555 1_555
C33_2 C32_2 1_555 1_555
H21_2 C33_2 1_555 1_555
C34_2 C33_2 1_555 1_555
H22_2 C34_2 1_555 1_555
N14 C34_2 1_555 1_555
C35_2 N14 1_555 1_555
H23_2 C35_2 1_555 1_555
C36_2 C32_2 1_555 1_555
H24_2 C36_2 1_555 1_555
C8_2 N4_2 1_555 1_555
C11_2 N5_2 1_555 1_555
C12_2 C13_2 1_555 1_555
C17_2 C18_2 1_555 1_555
C26_2 N10_2 1_555 1_555
C35_2 C36_2 1_555 1_555
Zn1 I1 1_555 1_555
I2 Zn1 1_555 1_555
Zn3 I5 1_555 1_555
I6 Zn3 1_555 1_555
N1 Zn1 1_555 1_555
H3 C4 1_555 1_555
C5 N1 1_555 1_555
H4 C5 1_555 1_555
H9 C15 1_555 1_555
C16 C15 1_555 1_555
H10 C16 1_555 1_555
N6 Zn3 1_555 1_555
N7 Zn3 1_555 1_555
C23 N7 1_555 1_555
H16 C23 1_555 1_555
N13 Zn1 1_555 1_555
C4 C5 1_555 1_555
C16 N6 1_555 1_555
C22_3 C21_3 1_555 1_555
H15_3 C22_3 1_555 1_555
C24_3 C21_3 1_555 1_555
N8_3 C24_3 1_555 1_555
C25_3 N8_3 1_555 1_555
N9_3 C25_3 1_555 1_555
C26_3 N9_3 1_555 1_555
N10_3 C24_3 1_555 1_555
C27 C25_3 1_555 1_555
C28 C27 1_555 1_555
C29 C28 1_555 1_555
C31 C27 1_555 1_555
H20 C31 1_555 1_555
C32_3 C26_3 1_555 1_555
C33_3 C32_3 1_555 1_555
H21_3 C33_3 1_555 1_555
C34_3 C33_3 1_555 1_555
H22_3 C34_3 1_555 1_555
N12_2 C34_3 1_555 1_555
C35_3 N12_2 1_555 1_555
H23_3 C35_3 1_555 1_555
C36_3 C32_3 1_555 1_555
H24_3 C36_3 1_555 1_555
Zn5_2 N12_2 1_555 1_555
C26_3 N10_3 1_555 1_555
C35_3 C36_3 1_555 1_555
Zn5_2 I3_3 1_555 1_555
I4_3 Zn5_2 1_555 1_555
N5_3 Zn5_2 1_555 1_555
C30 N13 1_555 1_555
H19 C30 1_555 1_555
C28_2 C27_2 1_555 1_555
C29_2 C28_2 1_555 1_555
N11 C29_2 1_555 1_555
C30_2 N11 1_555 1_555
H19_2 C30_2 1_555 1_555
C31_2 C27_2 1_555 1_555
H20_2 C31_2 1_555 1_555
Zn4 N11 1_555 1_555
C30_2 C31_2 1_555 1_555
Zn2_2 I3_4 1_555 1_555
I4_4 Zn2_2 1_555 1_555
N5_4 Zn2_2 1_555 1_555
N14_2 Zn2_2 1_555 1_555
I2_2 Zn4 1_555 1_555
Zn3_2 I5_2 1_555 1_555
I6_2 Zn3_2 1_555 1_555
N1_2 Zn4 1_555 1_555
C1_3 N1_2 1_555 1_555
H1_3 C1_3 1_555 1_555
C2_3 C1_3 1_555 1_555
H2_3 C2_3 1_555 1_555
C3_3 C2_3 1_555 1_555
C4_2 C3_3 1_555 1_555
H3_2 C4_2 1_555 1_555
C5_2 N1_2 1_555 1_555
H4_2 C5_2 1_555 1_555
C6_3 C3_3 1_555 1_555
N2_3 C6_3 1_555 1_555
C7_3 N2_3 1_555 1_555
N3_3 C7_3 1_555 1_555
C8_3 N3_3 1_555 1_555
N4_3 C6_3 1_555 1_555
C9_3 C7_3 1_555 1_555
C10_3 C9_3 1_555 1_555
H5_3 C10_3 1_555 1_555
C11_3 C10_3 1_555 1_555
H7_3 C12_3 1_555 1_555
C13_3 C9_3 1_555 1_555
H8_3 C13_3 1_555 1_555
C14_3 C8_3 1_555 1_555
C15_2 C14_3 1_555 1_555
H9_2 C15_2 1_555 1_555
C16_2 C15_2 1_555 1_555
H10_2 C16_2 1_555 1_555
N6_2 Zn3_2 1_555 1_555
C17_3 N6_2 1_555 1_555
H11_3 C17_3 1_555 1_555
C18_3 C14_3 1_555 1_555
H12_3 C18_3 1_555 1_555
N7_2 Zn3_2 1_555 1_555
C19_3 N7_2 1_555 1_555
H13_3 C19_3 1_555 1_555
C20_3 C19_3 1_555 1_555
H14_3 C20_3 1_555 1_555
C21_4 C20_3 1_555 1_555
C22_4 C21_4 1_555 1_555
H15_4 C22_4 1_555 1_555
C23_2 N7_2 1_555 1_555
H16_2 C23_2 1_555 1_555
C24_4 C21_4 1_555 1_555
N8_4 C24_4 1_555 1_555
C25_4 N8_4 1_555 1_555
N9_4 C25_4 1_555 1_555
C26_4 N9_4 1_555 1_555
N10_4 C24_4 1_555 1_555
C27_3 C25_4 1_555 1_555
C28_3 C27_3 1_555 1_555
H17_2 C28_3 1_555 1_555
C29_3 C28_3 1_555 1_555
H18_2 C29_3 1_555 1_555
C31_3 C27_3 1_555 1_555
H20_3 C31_3 1_555 1_555
C32_4 C26_4 1_555 1_555
C33_4 C32_4 1_555 1_555
H21_4 C33_4 1_555 1_555
C34_4 C33_4 1_555 1_555
H22_4 C34_4 1_555 1_555
N14_2 C34_4 1_555 1_555
C35_4 N14_2 1_555 1_555
H23_4 C35_4 1_555 1_555
C36_4 C32_4 1_555 1_555
H24_4 C36_4 1_555 1_555
C4_2 C5_2 1_555 1_555
C8_3 N4_3 1_555 1_555
C12_3 C13_3 1_555 1_555
C16_2 N6_2 1_555 1_555
C17_3 C18_3 1_555 1_555
C22_4 C23_2 1_555 1_555
C26_4 N10_4 1_555 1_555
C35_4 C36_4 1_555 1_555
C28_4 C27_4 1_555 1_555
H17_3 C28_4 1_555 1_555
C29_4 C28_4 1_555 1_555
H18_3 C29_4 1_555 1_555
N11_2 C29_4 1_555 1_555
C30_3 N11_2 1_555 1_555
H19_3 C30_3 1_555 1_555
C31_4 C27_4 1_555 1_555
H20_4 C31_4 1_555 1_555
Zn4_2 N11_2 1_555 1_555
C30_3 C31_4 1_555 1_555
Zn4_2 I1_2 1_555 1_555
I2_3 Zn4_2 1_555 1_555
Zn3_3 I5_3 1_555 1_555
I6_3 Zn3_3 1_555 1_555
N1_3 Zn4_2 1_555 1_555
C1_4 N1_3 1_555 1_555
H1_4 C1_4 1_555 1_555
C2_4 C1_4 1_555 1_555
H2_4 C2_4 1_555 1_555
C3_4 C2_4 1_555 1_555
C4_3 C3_4 1_555 1_555
H3_3 C4_3 1_555 1_555
C5_3 N1_3 1_555 1_555
H4_3 C5_3 1_555 1_555
C6_4 C3_4 1_555 1_555
N2_4 C6_4 1_555 1_555
C7_4 N2_4 1_555 1_555
N3_4 C7_4 1_555 1_555
C8_4 N3_4 1_555 1_555
N4_4 C6_4 1_555 1_555
C9_4 C7_4 1_555 1_555
C10_4 C9_4 1_555 1_555
H5_4 C10_4 1_555 1_555
C11_4 C10_4 1_555 1_555
H7_4 C12_4 1_555 1_555
C13_4 C9_4 1_555 1_555
H8_4 C13_4 1_555 1_555
C14_4 C8_4 1_555 1_555
C15_3 C14_4 1_555 1_555
H9_3 C15_3 1_555 1_555
C16_3 C15_3 1_555 1_555
H10_3 C16_3 1_555 1_555
N6_3 Zn3_3 1_555 1_555
C17_4 N6_3 1_555 1_555
H11_4 C17_4 1_555 1_555
C18_4 C14_4 1_555 1_555
H12_4 C18_4 1_555 1_555
N7_3 Zn3_3 1_555 1_555
C19_4 N7_3 1_555 1_555
H13_4 C19_4 1_555 1_555
C20_4 C19_4 1_555 1_555
H14_4 C20_4 1_555 1_555
C23_3 N7_3 1_555 1_555
H16_3 C23_3 1_555 1_555
C4_3 C5_3 1_555 1_555
C8_4 N4_4 1_555 1_555
C12_4 C13_4 1_555 1_555
C16_3 N6_3 1_555 1_555
C17_4 C18_4 1_555 1_555
Zn2_3 I3_5 1_555 1_555
I4_5 Zn2_3 1_555 1_555
H1_5 C1_5 1_555 1_555
C2_5 C1_5 1_555 1_555
H2_5 C2_5 1_555 1_555
C3_5 C2_5 1_555 1_555
C6_5 C3_5 1_555 1_555
N2_5 C6_5 1_555 1_555
C7_5 N2_5 1_555 1_555
N3_5 C7_5 1_555 1_555
C8_5 N3_5 1_555 1_555
N4_5 C6_5 1_555 1_555
C9_5 C7_5 1_555 1_555
C10_5 C9_5 1_555 1_555
H5_5 C10_5 1_555 1_555
C11_5 C10_5 1_555 1_555
H6_5 C11_5 1_555 1_555
N5_5 Zn2_3 1_555 1_555
C12_5 N5_5 1_555 1_555
H7_5 C12_5 1_555 1_555
C13_5 C9_5 1_555 1_555
H8_5 C13_5 1_555 1_555
C14_5 C8_5 1_555 1_555
H11_5 C17_5 1_555 1_555
C18_5 C14_5 1_555 1_555
H12_5 C18_5 1_555 1_555
H13_5 C19_5 1_555 1_555
C20_5 C19_5 1_555 1_555
H14_5 C20_5 1_555 1_555
C21_5 C20_5 1_555 1_555
C22_5 C21_5 1_555 1_555
H15_5 C22_5 1_555 1_555
C24_5 C21_5 1_555 1_555
N8_5 C24_5 1_555 1_555
C25_5 N8_5 1_555 1_555
N9_5 C25_5 1_555 1_555
C26_5 N9_5 1_555 1_555
N10_5 C24_5 1_555 1_555
C32_5 C26_5 1_555 1_555
C33_5 C32_5 1_555 1_555
H21_5 C33_5 1_555 1_555
C34_5 C33_5 1_555 1_555
H22_5 C34_5 1_555 1_555
N12_3 C34_5 1_555 1_555
C35_5 N12_3 1_555 1_555
H23_5 C35_5 1_555 1_555
C36_5 C32_5 1_555 1_555
H24_5 C36_5 1_555 1_555
Zn5_3 N12_3 1_555 1_555
N14_3 Zn2_3 1_555 1_555
C8_5 N4_5 1_555 1_555
C11_5 N5_5 1_555 1_555
C12_5 C13_5 1_555 1_555
C17_5 C18_5 1_555 1_555
C26_5 N10_5 1_555 1_555
C35_5 C36_5 1_555 1_555
C22_6 C21_6 1_555 1_555
H15_6 C22_6 1_555 1_555
C24_6 C21_6 1_555 1_555
N8_6 C24_6 1_555 1_555
C25_6 N8_6 1_555 1_555
N9_6 C25_6 1_555 1_555
C26_6 N9_6 1_555 1_555
N10_6 C24_6 1_555 1_555
C32_6 C26_6 1_555 1_555
C33_6 C32_6 1_555 1_555
H21_6 C33_6 1_555 1_555
C34_6 C33_6 1_555 1_555
H22_6 C34_6 1_555 1_555
N14_3 C34_6 1_555 1_555
C35_6 N14_3 1_555 1_555
H23_6 C35_6 1_555 1_555
C36_6 C32_6 1_555 1_555
H24_6 C36_6 1_555 1_555
C26_6 N10_6 1_555 1_555
C35_6 C36_6 1_555 1_555
Zn5_3 I3_6 1_555 1_555
I4_6 Zn5_3 1_555 1_555
H1_6 C1_6 1_555 1_555
C2_6 C1_6 1_555 1_555
H2_6 C2_6 1_555 1_555
C3_6 C2_6 1_555 1_555
C6_6 C3_6 1_555 1_555
N2_6 C6_6 1_555 1_555
C7_6 N2_6 1_555 1_555
N3_6 C7_6 1_555 1_555
C8_6 N3_6 1_555 1_555
N4_6 C6_6 1_555 1_555
C9_6 C7_6 1_555 1_555
C10_6 C9_6 1_555 1_555
H5_6 C10_6 1_555 1_555
C11_6 C10_6 1_555 1_555
H6_6 C11_6 1_555 1_555
N5_6 Zn5_3 1_555 1_555
C12_6 N5_6 1_555 1_555
H7_6 C12_6 1_555 1_555
C13_6 C9_6 1_555 1_555
H8_6 C13_6 1_555 1_555
C14_6 C8_6 1_555 1_555
H11_6 C17_6 1_555 1_555
C18_6 C14_6 1_555 1_555
H12_6 C18_6 1_555 1_555
H13_6 C19_6 1_555 1_555
C20_6 C19_6 1_555 1_555
H14_6 C20_6 1_555 1_555
C8_6 N4_6 1_555 1_555
C11_6 N5_6 1_555 1_555
C12_6 C13_6 1_555 1_555
C17_6 C18_6 1_555 1_555
I2_4 Zn1_2 1_555 1_555
Zn3_4 I5_4 1_555 1_555
I6_4 Zn3_4 1_555 1_555
N1_4 Zn1_2 1_555 1_555
H3_4 C4_4 1_555 1_555
C5_4 N1_4 1_555 1_555
H4_4 C5_4 1_555 1_555
H9_4 C15_4 1_555 1_555
C16_4 C15_4 1_555 1_555
H10_4 C16_4 1_555 1_555
N6_4 Zn3_4 1_555 1_555
N7_4 Zn3_4 1_555 1_555
C23_4 N7_4 1_555 1_555
H16_4 C23_4 1_555 1_555
N13_2 Zn1_2 1_555 1_555
C4_4 C5_4 1_555 1_555
C16_4 N6_4 1_555 1_555
C30_4 N13_2 1_555 1_555
H19_4 C30_4 1_555 1_555
C30_5 N11_3 1_555 1_555
H19_5 C30_5 1_555 1_555
Zn4_3 N11_3 1_555 1_555
I2_5 Zn4_3 1_555 1_555
Zn3_5 I5_5 1_555 1_555
I6_5 Zn3_5 1_555 1_555
N1_5 Zn4_3 1_555 1_555
H3_5 C4_5 1_555 1_555
C5_5 N1_5 1_555 1_555
H4_5 C5_5 1_555 1_555
H9_5 C15_5 1_555 1_555
C16_5 C15_5 1_555 1_555
H10_5 C16_5 1_555 1_555
N6_5 Zn3_5 1_555 1_555
N7_5 Zn3_5 1_555 1_555
C23_5 N7_5 1_555 1_555
H16_5 C23_5 1_555 1_555
C4_5 C5_5 1_555 1_555
C16_5 N6_5 1_555 1_555
Zn1_3 I1_4 1_555 1_555
I2_6 Zn1_3 1_555 1_555
Zn3_6 I5_6 1_555 1_555
I6_6 Zn3_6 1_555 1_555
N1_6 Zn1_3 1_555 1_555
C1_7 N1_6 1_555 1_555
H1_7 C1_7 1_555 1_555
C2_7 C1_7 1_555 1_555
H2_7 C2_7 1_555 1_555
C3_7 C2_7 1_555 1_555
C4_6 C3_7 1_555 1_555
H3_6 C4_6 1_555 1_555
C5_6 N1_6 1_555 1_555
H4_6 C5_6 1_555 1_555
C6_7 C3_7 1_555 1_555
N2_7 C6_7 1_555 1_555
C7_7 N2_7 1_555 1_555
N3_7 C7_7 1_555 1_555
C8_7 N3_7 1_555 1_555
N4_7 C6_7 1_555 1_555
C9_7 C7_7 1_555 1_555
C10_7 C9_7 1_555 1_555
H5_7 C10_7 1_555 1_555
C11_7 C10_7 1_555 1_555
H7_7 C12_7 1_555 1_555
C13_7 C9_7 1_555 1_555
H8_7 C13_7 1_555 1_555
C14_7 C8_7 1_555 1_555
C15_6 C14_7 1_555 1_555
H9_6 C15_6 1_555 1_555
C16_6 C15_6 1_555 1_555
H10_6 C16_6 1_555 1_555
N6_6 Zn3_6 1_555 1_555
C17_7 N6_6 1_555 1_555
H11_7 C17_7 1_555 1_555
C18_7 C14_7 1_555 1_555
H12_7 C18_7 1_555 1_555
N7_6 Zn3_6 1_555 1_555
C19_7 N7_6 1_555 1_555
H13_7 C19_7 1_555 1_555
C20_7 C19_7 1_555 1_555
H14_7 C20_7 1_555 1_555
C23_6 N7_6 1_555 1_555
H16_6 C23_6 1_555 1_555
N13_3 Zn1_3 1_555 1_555
C4_6 C5_6 1_555 1_555
C8_7 N4_7 1_555 1_555
C12_7 C13_7 1_555 1_555
C16_6 N6_6 1_555 1_555
C17_7 C18_7 1_555 1_555
C28_5 C27_5 1_555 1_555
H17_6 C28_5 1_555 1_555
C29_5 C28_5 1_555 1_555
H18_6 C29_5 1_555 1_555
N13_3 C29_5 1_555 1_555
C30_6 N13_3 1_555 1_555
H19_6 C30_6 1_555 1_555
C31_5 C27_5 1_555 1_555
H20_5 C31_5 1_555 1_555
C30_6 C31_5 1_555 1_555
Zn2_4 I3_7 1_555 1_555
I4_7 Zn2_4 1_555 1_555
N5_7 Zn2_4 1_555 1_555
C30_7 N11_4 1_555 1_555
H19_7 C30_7 1_555 1_555
Zn4_4 N11_4 1_555 1_555
N14_4 Zn2_4 1_555 1_555
Zn4_4 I1_5 1_555 1_555
I2_7 Zn4_4 1_555 1_555
Zn3_7 I5_7 1_555 1_555
I6_7 Zn3_7 1_555 1_555
N1_7 Zn4_4 1_555 1_555
H3_7 C4_7 1_555 1_555
C5_7 N1_7 1_555 1_555
H4_7 C5_7 1_555 1_555
H9_7 C15_7 1_555 1_555
C16_7 C15_7 1_555 1_555
H10_7 C16_7 1_555 1_555
N6_7 Zn3_7 1_555 1_555
N7_7 Zn3_7 1_555 1_555
C23_7 N7_7 1_555 1_555
H16_7 C23_7 1_555 1_555
C4_7 C5_7 1_555 1_555
C16_7 N6_7 1_555 1_555
C22_7 C21_7 1_555 1_555
H15_7 C22_7 1_555 1_555
C24_7 C21_7 1_555 1_555
N8_7 C24_7 1_555 1_555
C25_7 N8_7 1_555 1_555
N9_7 C25_7 1_555 1_555
C26_7 N9_7 1_555 1_555
N10_7 C24_7 1_555 1_555
C27_6 C25_7 1_555 1_555
C28_6 C27_6 1_555 1_555
C29_6 C28_6 1_555 1_555
C31_6 C27_6 1_555 1_555
H20_6 C31_6 1_555 1_555
C32_7 C26_7 1_555 1_555
C33_7 C32_7 1_555 1_555
H21_7 C33_7 1_555 1_555
C34_7 C33_7 1_555 1_555
H22_7 C34_7 1_555 1_555
N14_4 C34_7 1_555 1_555
C35_7 N14_4 1_555 1_555
H23_7 C35_7 1_555 1_555
C36_7 C32_7 1_555 1_555
H24_7 C36_7 1_555 1_555
C26_7 N10_7 1_555 1_555
C35_7 C36_7 1_555 1_555
I2_8 Zn1_4 1_555 1_555
Zn3_8 I5_8 1_555 1_555
I6_8 Zn3_8 1_555 1_555
N1_8 Zn1_4 1_555 1_555
C1_8 N1_8 1_555 1_555
H1_8 C1_8 1_555 1_555
C2_8 C1_8 1_555 1_555
H2_8 C2_8 1_555 1_555
C3_8 C2_8 1_555 1_555
C4_8 C3_8 1_555 1_555
H3_8 C4_8 1_555 1_555
C5_8 N1_8 1_555 1_555
H4_8 C5_8 1_555 1_555
C6_8 C3_8 1_555 1_555
N2_8 C6_8 1_555 1_555
C7_8 N2_8 1_555 1_555
N3_8 C7_8 1_555 1_555
C8_8 N3_8 1_555 1_555
N4_8 C6_8 1_555 1_555
C9_8 C7_8 1_555 1_555
C10_8 C9_8 1_555 1_555
H5_8 C10_8 1_555 1_555
C11_8 C10_8 1_555 1_555
H7_8 C12_8 1_555 1_555
C13_8 C9_8 1_555 1_555
H8_8 C13_8 1_555 1_555
C14_8 C8_8 1_555 1_555
C15_8 C14_8 1_555 1_555
H9_8 C15_8 1_555 1_555
C16_8 C15_8 1_555 1_555
H10_8 C16_8 1_555 1_555
N6_8 Zn3_8 1_555 1_555
C17_8 N6_8 1_555 1_555
H11_8 C17_8 1_555 1_555
C18_8 C14_8 1_555 1_555
H12_8 C18_8 1_555 1_555
N7_8 Zn3_8 1_555 1_555
C19_8 N7_8 1_555 1_555
H13_8 C19_8 1_555 1_555
C20_8 C19_8 1_555 1_555
H14_8 C20_8 1_555 1_555
C21_8 C20_8 1_555 1_555
C22_8 C21_8 1_555 1_555
H15_8 C22_8 1_555 1_555
C23_8 N7_8 1_555 1_555
H16_8 C23_8 1_555 1_555
C24_8 C21_8 1_555 1_555
N8_8 C24_8 1_555 1_555
C25_8 N8_8 1_555 1_555
N9_8 C25_8 1_555 1_555
C26_8 N9_8 1_555 1_555
N10_8 C24_8 1_555 1_555
C27_7 C25_8 1_555 1_555
C28_7 C27_7 1_555 1_555
H17_7 C28_7 1_555 1_555
C29_7 C28_7 1_555 1_555
H18_7 C29_7 1_555 1_555
C31_7 C27_7 1_555 1_555
H20_7 C31_7 1_555 1_555
C32_8 C26_8 1_555 1_555
C33_8 C32_8 1_555 1_555
H21_8 C33_8 1_555 1_555
C34_8 C33_8 1_555 1_555
H22_8 C34_8 1_555 1_555
N12_4 C34_8 1_555 1_555
C35_8 N12_4 1_555 1_555
H23_8 C35_8 1_555 1_555
C36_8 C32_8 1_555 1_555
H24_8 C36_8 1_555 1_555
Zn5_4 N12_4 1_555 1_555
N13_4 Zn1_4 1_555 1_555
C4_8 C5_8 1_555 1_555
C8_8 N4_8 1_555 1_555
C12_8 C13_8 1_555 1_555
C16_8 N6_8 1_555 1_555
C17_8 C18_8 1_555 1_555
C22_8 C23_8 1_555 1_555
C26_8 N10_8 1_555 1_555
C35_8 C36_8 1_555 1_555
C28_8 C27_8 1_555 1_555
C29_8 C28_8 1_555 1_555
N13_4 C29_8 1_555 1_555
C30_8 N13_4 1_555 1_555
H19_8 C30_8 1_555 1_555
C31_8 C27_8 1_555 1_555
H20_8 C31_8 1_555 1_555
C30_8 C31_8 1_555 1_555
Zn5_4 I3_8 1_555 1_555
I4_8 Zn5_4 1_555 1_555
N5_8 Zn5_4 1_555 1_555

#END
