
###############################################################################
#
# This file contains modified crystal structure data generated from the
# MOF subset of the Cambridge Structural Database (CSD) v543 
# hosted by the Cambridge Crystallographic Data Centre (CCDC).
#
# This work is licensed under the Creative Commons
# Attribution-NonCommercial-ShareAlike 4.0 International License.
# To view a copy of this license, visit
# http://creativecommons.org/licenses/by-nc-sa/4.0/
# or send a letter to
# Creative Commons, PO Box 1866, Mountain View, CA 94042, USA.
#
# CIF created using the CSD Python API on 29 September 2022
# The structure has been converted into the P1 space group
# The structure has a 3D framework
# The original CSD entry QARSUB is in the monoclinic crystal system
# The original CSD entry QARSUB is in a Sohncke space group
# The framework has been calculated to contain at least 10.0% void space
# The void calculation uses a probe of radius 1.32A, grid spacing 0.4
#
###############################################################################

data_QARSUB
_chemical_formula_moiety         '(C18 H20 N6 O6 Zn2)n'
_symmetry_cell_setting           triclinic
_symmetry_space_group_name_H-M   'P 1'
_symmetry_Int_Tables_number      1
_space_group_name_Hall           'P 1'
loop_
_symmetry_equiv_pos_site_id
_symmetry_equiv_pos_as_xyz
1 x,y,z
_cell_length_a                   9.3937(3)
_cell_length_b                   9.2495(3)
_cell_length_c                   9.3999(3)
_cell_angle_alpha                90
_cell_angle_beta                 118.634(2)
_cell_angle_gamma                90
_cell_volume                     716.842
loop_
_atom_site_label
_atom_site_type_symbol
_atom_site_fract_x
_atom_site_fract_y
_atom_site_fract_z
H8 H 0.051976 0.555885 0.097279
Zn3 Zn 0.21978(3) 0.25637(3) 0.13604(3)
N1 N 0.3919(2) 0.2590(4) 0.0619(2)
H10 H 0.396116 0.349054 0.025045
H11 H 0.490523 0.239941 0.148299
C1 C 0.3592(3) 0.1518(3) 0.9316(3)
H1 H 0.246329 0.164485 0.843775
H2 H 0.368585 0.053237 0.976182
C2 C 0.4735(4) 0.1652(3) 0.8603(4)
H3 H 0.453057 0.084689 0.783521
H4 H 0.586827 0.157144 0.948379
C3 C 0.4519(3) 0.3094(3) 0.7717(3)
C4 C 0.5205(3) 0.4460(2) 0.5896(3)
H5 H 0.501879 0.533524 0.641077
C5 C 0.3840(3) 0.4342(3) 0.4133(3)
C6 C 0.6809(3) 0.4637(3) 0.5846(3)
H6 H 0.688878 0.386796 0.515449
H7 H 0.680650 0.558023 0.534768
C7 C 0.8258(3) 0.4558(3) 0.7491(3)
C8 C 0.9976(5) 0.5062(4) 0.9968(5)
C9 C 0.9352(3) 0.3452(3) 0.8128(3)
H9 H 0.935655 0.259849 0.756780
N2 N 0.5277(2) 0.3190(2) 0.6834(2)
H12 H 0.585191 0.244500 0.681800
N3 N 0.8670(2) 0.5594(2) 0.8684(2)
O1 O 0.3707(3) 0.4092(2) 0.7850(3)
O2 O 0.3342(2) 0.30601(19) 0.3649(2)
O3 O 0.3373(2) 0.5448(2) 0.3290(2)
Zn4 Zn 0.78022(3) 0.75637(3) 0.86396(3)
N6 N 0.1330(2) 0.0594(2) 0.1316(2)
H5_2 H 0.498121 0.033524 0.358923
H7_2 H 0.319350 0.058023 0.465232
C8_2 C 0.0024(5) 0.0062(4) 0.0032(5)
O3_2 O 0.6627(2) 0.0448(2) 0.6710(2)
C1_2 C 0.6408(3) 0.6518(3) 0.0684(3)
H1_2 H 0.753671 0.664485 0.156225
H2_2 H 0.631415 0.553237 0.023818
C2_2 C 0.5265(4) 0.6652(3) 0.1397(4)
H3_2 H 0.546943 0.584689 0.216479
H4_2 H 0.413173 0.657144 0.051621
C3_2 C 0.5481(3) 0.8094(3) 0.2283(3)
C4_2 C 0.4795(3) 0.9460(2) 0.4104(3)
C5_2 C 0.6160(3) 0.9342(3) 0.5867(3)
C6_2 C 0.3191(3) 0.9637(3) 0.4154(3)
H6_2 H 0.311122 0.886796 0.484551
C7_2 C 0.1742(3) 0.9558(3) 0.2509(3)
C9_2 C 0.0648(3) 0.8452(3) 0.1872(3)
H9_2 H 0.064345 0.759849 0.243220
N2_2 N 0.4723(2) 0.8190(2) 0.3166(2)
H12_2 H 0.414809 0.744500 0.318200
O1_2 O 0.6293(3) 0.9092(2) 0.2150(3)
O2_2 O 0.6658(2) 0.80601(19) 0.6351(2)
N5 N 0.6081(2) 0.7590(4) 0.9381(2)
H10_2 H 0.603884 0.849054 0.974955
H11_2 H 0.509477 0.739941 0.851701
N4 N 0.0449(3) 0.3777(2) 0.9718(3)
N7 N 0.9551(3) 0.8777(2) 0.0282(3)
H8_2 H 0.948024 0.055885 0.902721
loop_
_geom_bond_atom_site_label_1
_geom_bond_atom_site_label_2
_geom_bond_site_symmetry_1
_geom_bond_site_symmetry_2
H10 N1 1_555 1_555
H11 N1 1_555 1_555
Zn3 N1 1_555 1_555
Zn3 O2 1_555 1_555
C1 H1 1_555 1_555
H2 C1 1_555 1_555
C2 C1 1_555 1_555
H3 C2 1_555 1_555
H4 C2 1_555 1_555
C3 C2 1_555 1_555
C4 H5 1_555 1_555
C5 C4 1_555 1_555
C6 C4 1_555 1_555
H6 C6 1_555 1_555
H7 C6 1_555 1_555
C7 C6 1_555 1_555
C9 C7 1_555 1_555
H9 C9 1_555 1_555
N2 C3 1_555 1_555
H12 N2 1_555 1_555
N3 C7 1_555 1_555
O1 C3 1_555 1_555
O2 C5 1_555 1_555
O3 C5 1_555 1_555
Zn4 N3 1_555 1_555
N6 Zn3 1_555 1_555
C4 N2 1_555 1_555
C8 N3 1_555 1_555
C8_2 N6 1_555 1_555
Zn4 O2_2 1_555 1_555
C1_2 H1_2 1_555 1_555
H2_2 C1_2 1_555 1_555
C2_2 C1_2 1_555 1_555
H3_2 C2_2 1_555 1_555
H4_2 C2_2 1_555 1_555
C3_2 C2_2 1_555 1_555
C5_2 C4_2 1_555 1_555
C6_2 C4_2 1_555 1_555
H6_2 C6_2 1_555 1_555
C7_2 C6_2 1_555 1_555
C9_2 C7_2 1_555 1_555
H9_2 C9_2 1_555 1_555
N2_2 C3_2 1_555 1_555
H12_2 N2_2 1_555 1_555
O1_2 C3_2 1_555 1_555
O2_2 C5_2 1_555 1_555
N5 Zn4 1_555 1_555
C4_2 N2_2 1_555 1_555
H10_2 N5 1_555 1_555
H11_2 N5 1_555 1_555

#END
