
###############################################################################
#
# This file contains modified crystal structure data generated from the
# MOF subset of the Cambridge Structural Database (CSD) v543 
# hosted by the Cambridge Crystallographic Data Centre (CCDC).
#
# This work is licensed under the Creative Commons
# Attribution-NonCommercial-ShareAlike 4.0 International License.
# To view a copy of this license, visit
# http://creativecommons.org/licenses/by-nc-sa/4.0/
# or send a letter to
# Creative Commons, PO Box 1866, Mountain View, CA 94042, USA.
#
# CIF created using the CSD Python API on 29 September 2022
# The structure has been converted into the P1 space group
# The structure has a 3D framework
# The original CSD entry QARSAF is in the monoclinic crystal system
# The framework has been calculated to contain at least 10.0% void space
# The void calculation uses a probe of radius 1.32A, grid spacing 0.4
#
###############################################################################

data_QARSAF
_chemical_formula_moiety         '(C44 H28 Gd4 N12 O24)n'
_symmetry_cell_setting           triclinic
_symmetry_space_group_name_H-M   'P 1'
_symmetry_Int_Tables_number      1
_space_group_name_Hall           'P 1'
loop_
_symmetry_equiv_pos_site_id
_symmetry_equiv_pos_as_xyz
1 x,y,z
_cell_length_a                   8.3211(7)
_cell_length_b                   14.8190(13)
_cell_length_c                   11.5700(10)
_cell_angle_alpha                90
_cell_angle_beta                 90.8900(10)
_cell_angle_gamma                90
_cell_volume                     1426.53
loop_
_atom_site_label
_atom_site_type_symbol
_atom_site_fract_x
_atom_site_fract_y
_atom_site_fract_z
C1 C 0.1818(10) 0.2386(5) 0.3153(7)
C2 C 0.0708(10) 0.2941(6) 0.2395(7)
Gd1 Gd 0.22113(5) 0.13164(3) 0.06726(3)
N1 N 0.0360(9) 0.2603(5) 0.1308(6)
O1 O 0.2291(8) 0.1659(4) 0.2692(5)
O2 O 0.2189(8) 0.2633(4) 0.4145(5)
O3 O 0.0035(8) 0.4097(4) 0.4536(5)
O7 O 0.4399(9) 0.2334(5) 0.0979(6)
H6 H 0.5344 0.2212 0.0863
H7 H 0.4373 0.2825 0.1306
Gd3 Gd 0.22113(5) 0.36836(3) 0.56726(3)
O14 O 0.1106(10) 0.0067(5) 0.1690(6)
O18 O 0.4478(9) 0.0419(5) 0.1343(6)
C11 C 0.4730(13) 0.0020(7) 0.9366(8)
O5 O 0.3522(9) 0.0516(5) 0.9115(6)
C12 C 0.1818(10) 0.2614(5) 0.8153(7)
C13 C 0.0708(10) 0.2059(6) 0.7395(7)
N4 N 0.0360(9) 0.2397(5) 0.6308(6)
O8 O 0.2291(8) 0.3341(4) 0.7692(5)
O9 O 0.2189(8) 0.2367(4) 0.9145(5)
O11 O 0.0035(8) 0.0903(4) 0.9536(5)
O15 O 0.1106(10) 0.4933(5) 0.6690(6)
O17 O 0.3522(9) 0.4484(5) 0.4115(6)
O19 O 0.4478(9) 0.4581(5) 0.6343(6)
O20 O 0.4399(9) 0.2666(5) 0.5979(6)
H13 H 0.5344 0.2788 0.5863
H14 H 0.4373 0.2175 0.6306
C22 C 0.5270(13) 0.9980(7) 0.0634(8)
O16 O 0.6478(9) 0.9484(5) 0.0885(6)
O6 O 0.5522(9) 0.9581(5) 0.8657(6)
Gd5 Gd 0.77887(5) 0.86836(3) 0.93274(3)
C3 C 0.9930(11) 0.3744(5) 0.2552(7)
C4 C 0.9641(11) 0.4357(6) 0.3541(8)
C5 C 0.9374(11) 0.3204(6) 0.0814(7)
H4 H 0.7515 0.1897 0.0019
N2 N 0.9118(10) 0.3905(5) 0.1524(6)
H5 H 0.8546 0.4374 0.1365
O4 O 0.8894(10) 0.5067(5) 0.3310(6)
Gd4 Gd 0.77887(5) 0.63164(3) 0.43274(3)
C6 C 0.8515(11) 0.3113(6) 0.9685(7)
C7 C 0.8579(14) 0.3786(7) 0.8849(9)
H1 H 0.9220 0.4295 0.8953
C8 C 0.7648(15) 0.3672(7) 0.7851(9)
H2 H 0.7678 0.4119 0.7288
C9 C 0.6675(14) 0.2329(8) 0.8458(10)
H3 H 0.6014 0.1831 0.8330
C10 C 0.7562(12) 0.2363(7) 0.9483(8)
N3 N 0.6713(11) 0.2953(7) 0.7660(7)
C14 C 0.9930(11) 0.1256(5) 0.7552(7)
C15 C 0.9641(11) 0.0643(6) 0.8541(8)
C16 C 0.9374(11) 0.1796(6) 0.5814(7)
C17 C 0.8515(11) 0.1887(6) 0.4685(7)
C18 C 0.8579(14) 0.1214(7) 0.3849(9)
H8 H 0.9220 0.0705 0.3953
C19 C 0.7648(15) 0.1328(7) 0.2851(9)
H9 H 0.7678 0.0881 0.2288
C20 C 0.6675(14) 0.2671(8) 0.3458(10)
H10 H 0.6014 0.3169 0.3330
C21 C 0.7562(12) 0.2637(7) 0.4483(8)
H11 H 0.7515 0.3103 0.5019
N5 N 0.9118(10) 0.1095(5) 0.6524(6)
H12 H 0.8546 0.0626 0.6365
N6 N 0.6713(11) 0.2047(7) 0.2660(7)
O13 O 0.8894(10) 0.9933(5) 0.8310(6)
C17_2 C 0.1485(11) 0.6887(6) 0.0315(7)
C18_2 C 0.1421(14) 0.6214(7) 0.1151(9)
H8_2 H 0.0780 0.5705 0.1047
C19_2 C 0.2352(15) 0.6328(7) 0.2149(9)
H9_2 H 0.2322 0.5881 0.2712
C20_2 C 0.3325(14) 0.7671(8) 0.1542(10)
H10_2 H 0.3986 0.8169 0.1670
C21_2 C 0.2438(12) 0.7637(7) 0.0517(8)
N6_2 N 0.3287(11) 0.7047(7) 0.2340(7)
C3_2 C 0.0070(11) 0.8744(5) 0.2448(7)
C4_2 C 0.0359(11) 0.9357(6) 0.1459(8)
C5_2 C 0.0626(11) 0.8204(6) 0.4186(7)
C6_2 C 0.1485(11) 0.8113(6) 0.5315(7)
C7_2 C 0.1421(14) 0.8786(7) 0.6151(9)
H1_2 H 0.0780 0.9295 0.6047
C8_2 C 0.2352(15) 0.8672(7) 0.7149(9)
H2_2 H 0.2322 0.9119 0.7712
C9_2 C 0.3325(14) 0.7329(8) 0.6542(10)
H3_2 H 0.3986 0.6831 0.6670
C10_2 C 0.2438(12) 0.7363(7) 0.5517(8)
H4_2 H 0.2485 0.6897 0.4981
N2_2 N 0.0882(10) 0.8905(5) 0.3476(6)
H5_2 H 0.1454 0.9374 0.3635
N3_2 N 0.3287(11) 0.7953(7) 0.7340(7)
C14_2 C 0.0070(11) 0.6256(5) 0.7448(7)
C15_2 C 0.0359(11) 0.5643(6) 0.6459(8)
C16_2 C 0.0626(11) 0.6796(6) 0.9186(7)
H11_2 H 0.2485 0.8103 0.9981
N5_2 N 0.0882(10) 0.6095(5) 0.8476(6)
H12_2 H 0.1454 0.5626 0.8635
O10 O 0.7811(8) 0.7633(4) 0.0855(5)
O12 O 0.9965(8) 0.9097(4) 0.0464(5)
C1_2 C 0.8182(10) 0.7386(5) 0.1847(7)
C2_2 C 0.9292(10) 0.7941(6) 0.2605(7)
C11_2 C 0.5270(13) 0.5020(7) 0.5634(8)
N1_2 N 0.9640(9) 0.7603(5) 0.3692(6)
O1_2 O 0.7709(8) 0.6659(4) 0.2308(5)
O5_2 O 0.6478(9) 0.5516(5) 0.5885(6)
O7_2 O 0.5601(9) 0.7334(5) 0.4021(6)
H6_2 H 0.4656 0.7212 0.4137
H7_2 H 0.5627 0.7825 0.3694
C12_2 C 0.8182(10) 0.7614(5) 0.6847(7)
C13_2 C 0.9292(10) 0.7059(6) 0.7605(7)
C22_2 C 0.4730(13) 0.4980(7) 0.4366(8)
N4_2 N 0.9640(9) 0.7397(5) 0.8692(6)
O8_2 O 0.7709(8) 0.8341(4) 0.7308(5)
O9_2 O 0.7811(8) 0.7367(4) 0.5855(5)
O11_2 O 0.9965(8) 0.5903(4) 0.5464(5)
O18_2 O 0.5522(9) 0.5419(5) 0.3657(6)
O20_2 O 0.5601(9) 0.7666(5) 0.9021(6)
H13_2 H 0.4656 0.7788 0.9137
H14_2 H 0.5627 0.7175 0.8694
loop_
_geom_bond_atom_site_label_1
_geom_bond_atom_site_label_2
_geom_bond_site_symmetry_1
_geom_bond_site_symmetry_2
C1 C2 1_555 1_555
Gd1 N1 1_555 1_555
N1 C2 1_555 1_555
O1 C1 1_555 1_555
O2 C1 1_555 1_555
O3 Gd3 1_555 1_555
O7 Gd1 1_555 1_555
H6 O7 1_555 1_555
H7 O7 1_555 1_555
Gd3 O2 1_555 1_555
O14 Gd1 1_555 1_555
O18 Gd1 1_555 1_555
Gd1 O1 1_555 1_555
C11 O5 1_555 1_555
C12 C13 1_555 1_555
Gd3 N4 1_555 1_555
N4 C13 1_555 1_555
O8 C12 1_555 1_555
O15 Gd3 1_555 1_555
O17 Gd3 1_555 1_555
O19 Gd3 1_555 1_555
O20 Gd3 1_555 1_555
H13 O20 1_555 1_555
H14 O20 1_555 1_555
C12 O9 1_555 1_555
Gd3 O8 1_555 1_555
O16 C22 1_555 1_555
Gd5 O6 1_555 1_555
C3 C4 1_555 1_555
N2 C3 1_555 1_555
H5 N2 1_555 1_555
O4 C4 1_555 1_555
Gd4 O4 1_555 1_555
C5 N2 1_555 1_555
C6 C7 1_555 1_555
C7 H1 1_555 1_555
C8 C7 1_555 1_555
H2 C8 1_555 1_555
C9 H3 1_555 1_555
C10 C6 1_555 1_555
N3 C8 1_555 1_555
C14 C15 1_555 1_555
C16 C17 1_555 1_555
C17 C18 1_555 1_555
C18 H8 1_555 1_555
C19 C18 1_555 1_555
H9 C19 1_555 1_555
C20 H10 1_555 1_555
C21 C17 1_555 1_555
H11 C21 1_555 1_555
N5 C14 1_555 1_555
H12 N5 1_555 1_555
N6 C19 1_555 1_555
C9 C10 1_555 1_555
C9 N3 1_555 1_555
C16 N5 1_555 1_555
C20 C21 1_555 1_555
C20 N6 1_555 1_555
Gd5 O13 1_555 1_555
C17_2 C18_2 1_555 1_555
C18_2 H8_2 1_555 1_555
C19_2 C18_2 1_555 1_555
H9_2 C19_2 1_555 1_555
C20_2 H10_2 1_555 1_555
C21_2 C17_2 1_555 1_555
N6_2 C19_2 1_555 1_555
C20_2 C21_2 1_555 1_555
C20_2 N6_2 1_555 1_555
C3_2 C4_2 1_555 1_555
C5_2 C6_2 1_555 1_555
C6_2 C7_2 1_555 1_555
C7_2 H1_2 1_555 1_555
C8_2 C7_2 1_555 1_555
H2_2 C8_2 1_555 1_555
C9_2 H3_2 1_555 1_555
C10_2 C6_2 1_555 1_555
H4_2 C10_2 1_555 1_555
N2_2 C3_2 1_555 1_555
H5_2 N2_2 1_555 1_555
N3_2 C8_2 1_555 1_555
C14_2 C15_2 1_555 1_555
N5_2 C14_2 1_555 1_555
H12_2 N5_2 1_555 1_555
O15 C15_2 1_555 1_555
C5_2 N2_2 1_555 1_555
C9_2 C10_2 1_555 1_555
C9_2 N3_2 1_555 1_555
C16_2 N5_2 1_555 1_555
C1_2 C2_2 1_555 1_555
C11_2 O5_2 1_555 1_555
Gd4 N1_2 1_555 1_555
N1_2 C2_2 1_555 1_555
O1_2 C1_2 1_555 1_555
O10 C1_2 1_555 1_555
O5_2 Gd4 1_555 1_555
O19 C11_2 1_555 1_555
O7_2 Gd4 1_555 1_555
H6_2 O7_2 1_555 1_555
H7_2 O7_2 1_555 1_555
C12_2 C13_2 1_555 1_555
C22_2 C11_2 1_555 1_555
Gd5 N4_2 1_555 1_555
N4_2 C13_2 1_555 1_555
O8_2 C12_2 1_555 1_555
O9_2 Gd4 1_555 1_555
O11_2 Gd4 1_555 1_555
O17 C22_2 1_555 1_555
O18_2 Gd4 1_555 1_555
O20_2 Gd5 1_555 1_555
H13_2 O20_2 1_555 1_555
H14_2 O20_2 1_555 1_555
Gd4 O1_2 1_555 1_555
C12_2 O9_2 1_555 1_555
C22_2 O18_2 1_555 1_555
Gd5 O8_2 1_555 1_555

#END
