
###############################################################################
#
# This file contains modified crystal structure data generated from the
# MOF subset of the Cambridge Structural Database (CSD) v543 
# hosted by the Cambridge Crystallographic Data Centre (CCDC).
#
# This work is licensed under the Creative Commons
# Attribution-NonCommercial-ShareAlike 4.0 International License.
# To view a copy of this license, visit
# http://creativecommons.org/licenses/by-nc-sa/4.0/
# or send a letter to
# Creative Commons, PO Box 1866, Mountain View, CA 94042, USA.
#
# CIF created using the CSD Python API on 29 September 2022
# The structure has been converted into the P1 space group
# The structure has a 3D framework
# The original CSD entry QARSOT is in the monoclinic crystal system
# The framework has been calculated to contain at least 10.0% void space
# The void calculation uses a probe of radius 1.32A, grid spacing 0.4
#
###############################################################################

data_QARSOT
_chemical_formula_moiety         '(C44 H28 Ho4 N12 O24)n'
_symmetry_cell_setting           triclinic
_symmetry_space_group_name_H-M   'P 1'
_symmetry_Int_Tables_number      1
_space_group_name_Hall           'P 1'
loop_
_symmetry_equiv_pos_site_id
_symmetry_equiv_pos_as_xyz
1 x,y,z
_cell_length_a                   8.3073(9)
_cell_length_b                   14.6061(15)
_cell_length_c                   11.4733(12)
_cell_angle_alpha                90
_cell_angle_beta                 90.7390(10)
_cell_angle_gamma                90
_cell_volume                     1392.02
loop_
_atom_site_label
_atom_site_type_symbol
_atom_site_fract_x
_atom_site_fract_y
_atom_site_fract_z
C12 C 0.2436 0.7634 0.5526
H8 H 0.2501 0.8102 0.4979
C13 C 0.3326(6) 0.7673(3) 0.6562(4)
H9 H 0.3999 0.8173 0.6686
C14 C 0.2304(6) 0.6320(3) 0.7185(4)
H10 H 0.2250 0.5871 0.7758
C15 C 0.1382(6) 0.6208(3) 0.6177(4)
H11 H 0.0734 0.5695 0.6070
C16 C 0.1462 0.6890 0.5331
C17 C 0.0579 0.6799 0.4202
C18 C 0.0056 0.6250 0.2454
C21 C 0.0368(5) 0.5646(2) 0.1434(3)
Ho6 Ho 0.2234 0.3681 0.0664
N5 N 0.0875 0.6087 0.3481
H12 H 0.1467 0.5618 0.3637
N6 N 0.3263(5) 0.7040(3) 0.7373(3)
O15 O 0.1149(4) 0.49345(18) 0.1653(2)
C8 C 0.0761 0.2943 0.7386
C9 C 0.1856(4) 0.2384(2) 0.8139(3)
Ho1 Ho 0.2234 0.1319 0.5664
N1 N 0.0421 0.2604 0.6287
O1 O 0.2333(3) 0.16473(16) 0.76789(19)
O2 O 0.2231(3) 0.26271(16) 0.9142(2)
O3 O 0.0085(3) 0.40912(18) 0.9552(2)
O5 O 0.4472(4) 0.0425(2) 0.6344(2)
O7 O 0.4411(4) 0.23225(19) 0.5939(2)
H6 H 0.4210 0.2888 0.5945
H7 H 0.5145 0.2236 0.6443
C22 C 0.4742(5) 0.0019(3) 0.4375(4)
O11 O 0.2231(3) 0.23729(16) 0.4142(2)
O14 O 0.0085(3) 0.09088(18) 0.4552(2)
O16 O 0.1149(4) 0.00655(18) 0.6653(2)
O19 O 0.3523(4) 0.05159(19) 0.4127(2)
C11 C 0.5258(5) 0.9981(3) 0.5625(4)
O6 O 0.6477(4) 0.94841(19) 0.5873(2)
C19 C 0.9239 0.7057 0.2614
C20 C 0.8144(4) 0.7616(2) 0.1861(3)
Ho2 Ho 0.7766 0.8681 0.4336
N4 N 0.9579 0.7396 0.3713
O8 O 0.7667(3) 0.83527(16) 0.23211(19)
O9 O 0.7769(3) 0.73729(16) 0.0858(2)
O10 O 0.7769(3) 0.76271(16) 0.5858(2)
O12 O 0.9915(3) 0.59088(18) 0.0448(2)
O13 O 0.9915(3) 0.90912(18) 0.5448(2)
O17 O 0.8851(4) 0.99345(18) 0.3347(2)
O18 O 0.5528(4) 0.9575(2) 0.3656(2)
O20 O 0.5589(4) 0.76775(19) 0.4061(2)
H13 H 0.5790 0.7112 0.4055
H14 H 0.4855 0.7764 0.3557
Ho4 Ho 0.7766 0.6319 0.9336
C1 C 0.7564 0.2366 0.4474
H1 H 0.7499 0.1898 0.5021
C2 C 0.6674(6) 0.2327(3) 0.3438(4)
H2 H 0.6001 0.1827 0.3314
C3 C 0.7696(6) 0.3680(3) 0.2815(4)
H3 H 0.7750 0.4129 0.2242
C4 C 0.8618(6) 0.3792(3) 0.3823(4)
H4 H 0.9266 0.4305 0.3930
C5 C 0.8538 0.3110 0.4669
C6 C 0.9421 0.3201 0.5798
C7 C 0.9944 0.3750 0.7546
C10 C 0.9632(5) 0.4354(2) 0.8566(3)
N2 N 0.9125 0.3913 0.6519
H5 H 0.8533 0.4382 0.6363
N3 N 0.6737(5) 0.2960(3) 0.2627(3)
O4 O 0.8851(4) 0.50655(18) 0.8347(2)
C19_2 C 0.0761 0.2057 0.2386
C20_2 C 0.1856(4) 0.2616(2) 0.3139(3)
C22_2 C 0.5258(5) 0.5019(3) 0.0625(4)
N4_2 N 0.0421 0.2396 0.1287
O8_2 O 0.2333(3) 0.33527(16) 0.26789(19)
O18_2 O 0.4472(4) 0.4575(2) 0.1344(2)
O19_2 O 0.6477(4) 0.55159(19) 0.0873(2)
O20_2 O 0.4411(4) 0.26775(19) 0.0939(2)
H13_2 H 0.4210 0.2112 0.0945
H14_2 H 0.5145 0.2764 0.1443
C8_2 C 0.9239 0.7943 0.7614
C9_2 C 0.8144(4) 0.7384(2) 0.6861(3)
C11_2 C 0.4742(5) 0.4981(3) 0.9375(4)
N1_2 N 0.9579 0.7604 0.8713
O1_2 O 0.7667(3) 0.66473(16) 0.73211(19)
O5_2 O 0.5528(4) 0.5425(2) 0.8656(2)
O6_2 O 0.3523(4) 0.44841(19) 0.9127(2)
O7_2 O 0.5589(4) 0.73225(19) 0.9061(2)
H6_2 H 0.5790 0.7888 0.9055
H7_2 H 0.4855 0.7236 0.8557
C1_2 C 0.2436 0.7366 0.0526
C2_2 C 0.3326(6) 0.7327(3) 0.1562(4)
H2_2 H 0.3999 0.6827 0.1686
C3_2 C 0.2304(6) 0.8680(3) 0.2185(4)
H3_2 H 0.2250 0.9129 0.2758
C4_2 C 0.1382(6) 0.8792(3) 0.1177(4)
H4_2 H 0.0734 0.9305 0.1070
C5_2 C 0.1462 0.8110 0.0331
N3_2 N 0.3263(5) 0.7960(3) 0.2373(3)
H1_2 H 0.2501 0.6898 0.9979
C6_2 C 0.0579 0.8201 0.9202
C7_2 C 0.0056 0.8750 0.7454
C10_2 C 0.0368(5) 0.9354(2) 0.6434(3)
N2_2 N 0.0875 0.8913 0.8481
H5_2 H 0.1467 0.9382 0.8637
H8_2 H 0.7499 0.3102 0.0021
C17_2 C 0.9421 0.1799 0.0798
C18_2 C 0.9944 0.1250 0.2546
C21_2 C 0.9632(5) 0.0646(2) 0.3566(3)
N5_2 N 0.9125 0.1087 0.1519
H12_2 H 0.8533 0.0618 0.1363
C12_2 C 0.7564 0.2634 0.9474
C13_2 C 0.6674(6) 0.2673(3) 0.8438(4)
H9_2 H 0.6001 0.3173 0.8314
C14_2 C 0.7696(6) 0.1320(3) 0.7815(4)
H10_2 H 0.7750 0.0871 0.7242
C15_2 C 0.8618(6) 0.1208(3) 0.8823(4)
H11_2 H 0.9266 0.0695 0.8930
C16_2 C 0.8538 0.1890 0.9669
N6_2 N 0.6737(5) 0.2040(3) 0.7627(3)
loop_
_geom_bond_atom_site_label_1
_geom_bond_atom_site_label_2
_geom_bond_site_symmetry_1
_geom_bond_site_symmetry_2
C12 H8 1_555 1_555
C13 C12 1_555 1_555
H9 C13 1_555 1_555
C14 H10 1_555 1_555
C15 C14 1_555 1_555
H11 C15 1_555 1_555
C16 C12 1_555 1_555
C17 C16 1_555 1_555
C21 C18 1_555 1_555
Ho6 O15 1_555 1_555
N5 C17 1_555 1_555
H12 N5 1_555 1_555
N6 C13 1_555 1_555
O15 C21 1_555 1_555
C14 N6 1_555 1_555
C15 C16 1_555 1_555
C18 N5 1_555 1_555
C8 C9 1_555 1_555
C9 O1 1_555 1_555
Ho1 N1 1_555 1_555
O1 Ho1 1_555 1_555
O2 C9 1_555 1_555
O5 Ho1 1_555 1_555
O7 Ho1 1_555 1_555
H6 O7 1_555 1_555
H7 O7 1_555 1_555
O11 Ho1 1_555 1_555
O14 Ho1 1_555 1_555
O16 Ho1 1_555 1_555
O19 Ho1 1_555 1_555
C8 N1 1_555 1_555
C22 O19 1_555 1_555
O6 C11 1_555 1_555
C19 C20 1_555 1_555
C20 O8 1_555 1_555
Ho2 O6 1_555 1_555
O8 Ho2 1_555 1_555
O9 C20 1_555 1_555
O10 Ho2 1_555 1_555
O13 Ho2 1_555 1_555
O17 Ho2 1_555 1_555
O20 Ho2 1_555 1_555
H13 O20 1_555 1_555
H14 O20 1_555 1_555
C19 N4 1_555 1_555
Ho2 N4 1_555 1_555
Ho2 O18 1_555 1_555
C1 H1 1_555 1_555
C2 C1 1_555 1_555
H2 C2 1_555 1_555
C3 H3 1_555 1_555
C4 C3 1_555 1_555
H4 C4 1_555 1_555
C5 C1 1_555 1_555
C6 C5 1_555 1_555
C10 C7 1_555 1_555
N2 C6 1_555 1_555
H5 N2 1_555 1_555
N3 C2 1_555 1_555
O4 C10 1_555 1_555
Ho4 O4 1_555 1_555
C3 N3 1_555 1_555
C4 C5 1_555 1_555
C7 N2 1_555 1_555
C19_2 C20_2 1_555 1_555
C20_2 O8_2 1_555 1_555
O8_2 Ho6 1_555 1_555
O11 C20_2 1_555 1_555
O18_2 C22_2 1_555 1_555
O20_2 Ho6 1_555 1_555
H13_2 O20_2 1_555 1_555
H14_2 O20_2 1_555 1_555
C19_2 N4_2 1_555 1_555
C22_2 O19_2 1_555 1_555
Ho6 N4_2 1_555 1_555
Ho6 O18_2 1_555 1_555
C8_2 C9_2 1_555 1_555
C9_2 O1_2 1_555 1_555
C11_2 O5_2 1_555 1_555
Ho4 N1_2 1_555 1_555
O1_2 Ho4 1_555 1_555
O10 C9_2 1_555 1_555
O5_2 Ho4 1_555 1_555
O6_2 C11_2 1_555 1_555
O7_2 Ho4 1_555 1_555
H6_2 O7_2 1_555 1_555
H7_2 O7_2 1_555 1_555
C8_2 N1_2 1_555 1_555
C2_2 C1_2 1_555 1_555
H2_2 C2_2 1_555 1_555
C3_2 H3_2 1_555 1_555
C4_2 C3_2 1_555 1_555
H4_2 C4_2 1_555 1_555
C5_2 C1_2 1_555 1_555
N3_2 C2_2 1_555 1_555
C3_2 N3_2 1_555 1_555
C4_2 C5_2 1_555 1_555
C10_2 C7_2 1_555 1_555
N2_2 C6_2 1_555 1_555
H5_2 N2_2 1_555 1_555
C7_2 N2_2 1_555 1_555
C21_2 C18_2 1_555 1_555
N5_2 C17_2 1_555 1_555
H12_2 N5_2 1_555 1_555
C18_2 N5_2 1_555 1_555
C13_2 C12_2 1_555 1_555
H9_2 C13_2 1_555 1_555
C14_2 H10_2 1_555 1_555
C15_2 C14_2 1_555 1_555
H11_2 C15_2 1_555 1_555
C16_2 C12_2 1_555 1_555
N6_2 C13_2 1_555 1_555
C14_2 N6_2 1_555 1_555
C15_2 C16_2 1_555 1_555

#END
