
###############################################################################
#
# This file contains modified crystal structure data generated from the
# MOF subset of the Cambridge Structural Database (CSD) v543 
# hosted by the Cambridge Crystallographic Data Centre (CCDC).
#
# This work is licensed under the Creative Commons
# Attribution-NonCommercial-ShareAlike 4.0 International License.
# To view a copy of this license, visit
# http://creativecommons.org/licenses/by-nc-sa/4.0/
# or send a letter to
# Creative Commons, PO Box 1866, Mountain View, CA 94042, USA.
#
# CIF created using the CSD Python API on 29 September 2022
# The structure has been converted into the P1 space group
# The structure has a 3D framework
# The original CSD entry QARSIN is in the monoclinic crystal system
# The framework has been calculated to contain at least 10.0% void space
# The void calculation uses a probe of radius 1.32A, grid spacing 0.4
#
###############################################################################

data_QARSIN
_chemical_formula_moiety         '(C44 H28 Dy4 N12 O26)n'
_symmetry_cell_setting           triclinic
_symmetry_space_group_name_H-M   'P 1'
_symmetry_Int_Tables_number      1
_space_group_name_Hall           'P 1'
loop_
_symmetry_equiv_pos_site_id
_symmetry_equiv_pos_as_xyz
1 x,y,z
_cell_length_a                   8.3161(10)
_cell_length_b                   14.6487(18)
_cell_length_c                   11.4869(14)
_cell_angle_alpha                90
_cell_angle_beta                 90.761(2)
_cell_angle_gamma                90
_cell_volume                     1399.21
loop_
_atom_site_label
_atom_site_type_symbol
_atom_site_fract_x
_atom_site_fract_y
_atom_site_fract_z
H7 H 0.0182 0.2047 0.1373
C11 C 0.0238(13) 0.9988(7) 0.0593(10)
O6 O 0.1461(10) 0.9485(5) 0.0877(6)
C17 C 0.6469(11) 0.6900(7) 0.0330(8)
C18 C 0.6418(14) 0.6216(7) 0.1169(8)
H8 H 0.5784 0.5699 0.1061
C19 C 0.7342(15) 0.6329(8) 0.2168(9)
H9 H 0.7311 0.5874 0.2731
C20 C 0.8328(14) 0.7695(9) 0.1558(10)
H10 H 0.8993 0.8197 0.1681
C21 C 0.7429(13) 0.7645(8) 0.0529(8)
N6 N 0.8270(11) 0.7051(7) 0.2369(8)
O12 O 0.4905(9) 0.9094(5) 0.0453(6)
O15 O 0.2784(8) 0.7636(4) 0.0856(5)
C12 C 0.5342(12) 0.5639(7) 0.6451(8)
C13 C 0.5048(11) 0.6248(6) 0.7464(8)
C14 C 0.4247(11) 0.7056(6) 0.7621(7)
C15 C 0.3142(10) 0.7614(6) 0.6857(7)
C16 C 0.5597(11) 0.6793(6) 0.9196(7)
H11 H 0.7479 0.8112 0.9982
Dy2 Dy 0.27672(5) 0.86847(3) 0.93335(3)
Dy4 Dy 0.27672(5) 0.63153(3) 0.43335(3)
Dy6 Dy 0.72328(5) 0.36847(3) 0.56665(3)
N4 N 0.4598(9) 0.7402(5) 0.8715(6)
N5 N 0.5855(10) 0.6101(5) 0.8489(6)
H12 H 0.6440 0.5632 0.8649
O8 O 0.6110(10) 0.4920(5) 0.6674(6)
O10 O 0.3890(10) 0.9920(5) 0.8326(6)
O11 O 0.4905(9) 0.5906(5) 0.5453(6)
O14 O 0.2784(8) 0.7364(4) 0.5856(5)
O17 O 0.2675(8) 0.8342(4) 0.7316(5)
O18 O 0.0532(10) 0.9592(6) 0.8657(7)
O20 O 0.0606(9) 0.7666(5) 0.9043(6)
H13 H 0.0383(10) 0.7219(5) 0.9210(7)
C1 C 0.4658(12) 0.4361(7) 0.3549(8)
C2 C 0.4952(11) 0.3752(6) 0.2536(8)
C3 C 0.5753(11) 0.2944(6) 0.2379(7)
C4 C 0.6858(10) 0.2386(6) 0.3143(7)
C5 C 0.4403(11) 0.3207(6) 0.0804(7)
H4 H 0.2521 0.1888 0.0018
Dy1 Dy 0.72328(5) 0.13153(3) 0.06665(3)
N1 N 0.5402(9) 0.2598(5) 0.1285(6)
N2 N 0.4145(10) 0.3899(5) 0.1511(6)
H5 H 0.3560 0.4368 0.1351
O1 O 0.3890(10) 0.5080(5) 0.3326(6)
O2 O 0.5095(9) 0.4094(5) 0.4547(6)
O3 O 0.7216(8) 0.2636(4) 0.4144(5)
O4 O 0.7325(8) 0.1658(4) 0.2684(5)
O5 O 0.9468(10) 0.0408(6) 0.1343(7)
O7 O 0.9394(9) 0.2334(5) 0.0957(6)
H6 H 0.9617(10) 0.2781(5) 0.0790(7)
O9 O 0.6110(10) 0.0080(5) 0.1674(6)
C6 C 0.3531(11) 0.3100(7) 0.9670(8)
C7 C 0.3582(14) 0.3784(7) 0.8831(8)
H1 H 0.4216 0.4301 0.8939
C8 C 0.2658(15) 0.3671(8) 0.7832(9)
H2 H 0.2689 0.4126 0.7269
C9 C 0.1672(14) 0.2305(9) 0.8442(10)
H3 H 0.1007 0.1803 0.8319
C10 C 0.2571(13) 0.2355(8) 0.9471(8)
N3 N 0.1730(11) 0.2949(7) 0.7631(8)
C22 C 0.9762(13) 0.0012(7) 0.9407(10)
O13 O 0.5095(9) 0.0906(5) 0.9547(6)
O16 O 0.7216(8) 0.2364(4) 0.9144(5)
O19 O 0.8539(10) 0.0515(5) 0.9123(6)
C1_2 C 0.5342(12) 0.9361(7) 0.1451(8)
C2_2 C 0.5048(11) 0.8752(6) 0.2464(8)
C3_2 C 0.4247(11) 0.7944(6) 0.2621(7)
C4_2 C 0.3142(10) 0.7386(6) 0.1857(7)
C5_2 C 0.5597(11) 0.8207(6) 0.4196(7)
C6_2 C 0.6469(11) 0.8100(7) 0.5330(8)
C7_2 C 0.6418(14) 0.8784(7) 0.6169(8)
H1_2 H 0.5784 0.9301 0.6061
C8_2 C 0.7342(15) 0.8671(8) 0.7168(9)
H2_2 H 0.7311 0.9126 0.7731
C9_2 C 0.8328(14) 0.7305(9) 0.6558(10)
H3_2 H 0.8993 0.6803 0.6681
C10_2 C 0.7429(13) 0.7355(8) 0.5529(8)
H4_2 H 0.7479 0.6888 0.4982
N1_2 N 0.4598(9) 0.7598(5) 0.3715(6)
N2_2 N 0.5855(10) 0.8899(5) 0.3489(6)
H5_2 H 0.6440 0.9368 0.3649
N3_2 N 0.8270(11) 0.7949(7) 0.7369(8)
O4_2 O 0.2675(8) 0.6658(4) 0.2316(5)
O5_2 O 0.0532(10) 0.5408(6) 0.3657(7)
O7_2 O 0.0606(9) 0.7334(5) 0.4043(6)
H6_2 H 0.0383(10) 0.7781(5) 0.4210(7)
C22_2 C 0.0238(13) 0.5012(7) 0.5593(10)
O19_2 O 0.1461(10) 0.5515(5) 0.5877(6)
H14 H 0.0182 0.2953 0.6373
C11_2 C 0.9762(13) 0.4988(7) 0.4407(10)
O6_2 O 0.8539(10) 0.4485(5) 0.4123(6)
H7_2 H 0.9818 0.7047 0.3627
C12_2 C 0.4658(12) 0.0639(7) 0.8549(8)
C13_2 C 0.4952(11) 0.1248(6) 0.7536(8)
C14_2 C 0.5753(11) 0.2056(6) 0.7379(7)
C15_2 C 0.6858(10) 0.2614(6) 0.8143(7)
C16_2 C 0.4403(11) 0.1793(6) 0.5804(7)
C17_2 C 0.3531(11) 0.1900(7) 0.4670(8)
C18_2 C 0.3582(14) 0.1216(7) 0.3831(8)
H8_2 H 0.4216 0.0699 0.3939
C19_2 C 0.2658(15) 0.1329(8) 0.2832(9)
H9_2 H 0.2689 0.0874 0.2269
C20_2 C 0.1672(14) 0.2695(9) 0.3442(10)
H10_2 H 0.1007 0.3197 0.3319
C21_2 C 0.2571(13) 0.2645(8) 0.4471(8)
H11_2 H 0.2521 0.3112 0.5018
N4_2 N 0.5402(9) 0.2402(5) 0.6285(6)
N5_2 N 0.4145(10) 0.1101(5) 0.6511(6)
H12_2 H 0.3560 0.0632 0.6351
N6_2 N 0.1730(11) 0.2051(7) 0.2631(8)
O17_2 O 0.7325(8) 0.3342(4) 0.7684(5)
O18_2 O 0.9468(10) 0.4592(6) 0.6343(7)
O20_2 O 0.9394(9) 0.2666(5) 0.5957(6)
H13_2 H 0.9617(10) 0.2219(5) 0.5790(7)
H14_2 H 0.9818 0.7953 0.8627
loop_
_geom_bond_atom_site_label_1
_geom_bond_atom_site_label_2
_geom_bond_site_symmetry_1
_geom_bond_site_symmetry_2
O6 C11 1_555 1_555
C17 C18 1_555 1_555
C18 H8 1_555 1_555
C19 C18 1_555 1_555
H9 C19 1_555 1_555
C20 H10 1_555 1_555
C21 C17 1_555 1_555
N6 C19 1_555 1_555
C20 C21 1_555 1_555
C20 N6 1_555 1_555
C12 C13 1_555 1_555
C13 C14 1_555 1_555
C14 C15 1_555 1_555
C15 O14 1_555 1_555
Dy4 O11 1_555 1_555
Dy6 O8 1_555 1_555
N4 C14 1_555 1_555
N5 C13 1_555 1_555
H12 N5 1_555 1_555
O8 C12 1_555 1_555
O10 Dy2 1_555 1_555
O11 C12 1_555 1_555
O14 Dy4 1_555 1_555
O17 C15 1_555 1_555
O20 Dy2 1_555 1_555
H13 O20 1_555 1_555
C16 N4 1_555 1_555
C16 N5 1_555 1_555
Dy2 N4 1_555 1_555
Dy2 O17 1_555 1_555
Dy2 O18 1_555 1_555
C1 C2 1_555 1_555
C2 C3 1_555 1_555
C3 C4 1_555 1_555
C4 O3 1_555 1_555
Dy1 N1 1_555 1_555
N1 C3 1_555 1_555
N2 C2 1_555 1_555
H5 N2 1_555 1_555
O1 C1 1_555 1_555
O2 C1 1_555 1_555
O3 Dy6 1_555 1_555
O4 C4 1_555 1_555
O5 Dy1 1_555 1_555
O7 Dy1 1_555 1_555
H6 O7 1_555 1_555
Dy4 O1 1_555 1_555
Dy6 O2 1_555 1_555
O9 Dy1 1_555 1_555
C5 N1 1_555 1_555
C5 N2 1_555 1_555
Dy1 O4 1_555 1_555
C6 C7 1_555 1_555
C7 H1 1_555 1_555
C8 C7 1_555 1_555
H2 C8 1_555 1_555
C9 H3 1_555 1_555
C10 C6 1_555 1_555
N3 C8 1_555 1_555
C9 C10 1_555 1_555
C9 N3 1_555 1_555
C22 O19 1_555 1_555
C1_2 C2_2 1_555 1_555
C2_2 C3_2 1_555 1_555
C3_2 C4_2 1_555 1_555
C4_2 O15 1_555 1_555
C5_2 C6_2 1_555 1_555
C6_2 C7_2 1_555 1_555
C7_2 H1_2 1_555 1_555
C8_2 C7_2 1_555 1_555
H2_2 C8_2 1_555 1_555
C9_2 H3_2 1_555 1_555
C10_2 C6_2 1_555 1_555
H4_2 C10_2 1_555 1_555
Dy4 N1_2 1_555 1_555
N1_2 C3_2 1_555 1_555
N2_2 C2_2 1_555 1_555
H5_2 N2_2 1_555 1_555
N3_2 C8_2 1_555 1_555
O12 C1_2 1_555 1_555
O4_2 C4_2 1_555 1_555
O5_2 Dy4 1_555 1_555
O7_2 Dy4 1_555 1_555
H6_2 O7_2 1_555 1_555
O19_2 Dy4 1_555 1_555
C5_2 N1_2 1_555 1_555
C5_2 N2_2 1_555 1_555
C9_2 C10_2 1_555 1_555
C9_2 N3_2 1_555 1_555
Dy4 O4_2 1_555 1_555
C22_2 O19_2 1_555 1_555
O6_2 C11_2 1_555 1_555
C12_2 C13_2 1_555 1_555
C13_2 C14_2 1_555 1_555
C14_2 C15_2 1_555 1_555
C15_2 O16 1_555 1_555
C16_2 C17_2 1_555 1_555
C17_2 C18_2 1_555 1_555
C18_2 H8_2 1_555 1_555
C19_2 C18_2 1_555 1_555
H9_2 C19_2 1_555 1_555
C20_2 H10_2 1_555 1_555
C21_2 C17_2 1_555 1_555
H11_2 C21_2 1_555 1_555
Dy6 O6_2 1_555 1_555
N4_2 C14_2 1_555 1_555
N5_2 C13_2 1_555 1_555
H12_2 N5_2 1_555 1_555
N6_2 C19_2 1_555 1_555
O13 C12_2 1_555 1_555
O17_2 C15_2 1_555 1_555
O20_2 Dy6 1_555 1_555
H13_2 O20_2 1_555 1_555
C16_2 N4_2 1_555 1_555
C16_2 N5_2 1_555 1_555
C20_2 C21_2 1_555 1_555
C20_2 N6_2 1_555 1_555
Dy6 N4_2 1_555 1_555
Dy6 O17_2 1_555 1_555
Dy6 O18_2 1_555 1_555

#END
