
###############################################################################
#
# This file contains modified crystal structure data generated from the
# MOF subset of the Cambridge Structural Database (CSD) v543 
# hosted by the Cambridge Crystallographic Data Centre (CCDC).
#
# This work is licensed under the Creative Commons
# Attribution-NonCommercial-ShareAlike 4.0 International License.
# To view a copy of this license, visit
# http://creativecommons.org/licenses/by-nc-sa/4.0/
# or send a letter to
# Creative Commons, PO Box 1866, Mountain View, CA 94042, USA.
#
# CIF created using the CSD Python API on 29 September 2022
# The structure has been converted into the P1 space group
# The structure has a 3D framework
# The original CSD entry QARTAI is in the monoclinic crystal system
# The original CSD entry QARTAI is in a Sohncke space group
# The framework has been calculated to contain at least 10.0% void space
# The void calculation uses a probe of radius 1.32A, grid spacing 0.4
#
###############################################################################

data_QARTAI
_chemical_formula_moiety         '(C18 H24 N6 O6)n'
_symmetry_cell_setting           triclinic
_symmetry_space_group_name_H-M   'P 1'
_symmetry_Int_Tables_number      1
_space_group_name_Hall           'P 1'
loop_
_symmetry_equiv_pos_site_id
_symmetry_equiv_pos_as_xyz
1 x,y,z
_cell_length_a                   9.3008(8)
_cell_length_b                   8.7747(7)
_cell_length_c                   9.7001(7)
_cell_angle_alpha                90
_cell_angle_beta                 112.461(3)
_cell_angle_gamma                90
_cell_volume                     731.588
loop_
_atom_site_label
_atom_site_type_symbol
_atom_site_fract_x
_atom_site_fract_y
_atom_site_fract_z
N4 N 0.0938(4) 0.7109(4) 0.0428(4)
Zn3 Zn 0.09179(5) 0.58981(6) 0.21332(4)
O3 O 0.1044(4) 0.8986(3) 0.3765(3)
N3 N 0.0175(4) 0.8950(4) 0.8698(3)
C5 C 0.0266(5) 0.7987(5) 0.4047(4)
C6 C 0.1252(5) 0.7936(5) 0.6822(4)
H9 H 0.174374 0.699428 0.671194
H10 H 0.198110 0.875726 0.691156
C7 C 0.0967(5) 0.7855(4) 0.8234(4)
C8 C 0.1429(5) 0.6751(4) 0.9286(4)
H11 H 0.198952 0.588521 0.924864
C9 C 0.0184(7) 0.8412(7) 0.9992(7)
N5 N 0.3163(4) 0.5432(3) 0.3424(4)
Zn4 Zn 0.90821(5) 0.08981(6) 0.78668(4)
O1 O 0.6651(3) 0.8739(3) 0.3881(3)
O2 O 0.9865(3) 0.6716(3) 0.3355(3)
H1 H 0.319991 0.508624 0.429974
H2 H 0.348840 0.468502 0.299460
N2 N 0.8556(4) 0.7153(4) 0.5329(4)
H3 H 0.877209 0.632932 0.584915
C1 C 0.4263(5) 0.6723(5) 0.3704(5)
H4 H 0.415157 0.738510 0.445747
H5 H 0.401155 0.731087 0.279460
C2 C 0.5936(5) 0.6172(5) 0.4223(4)
H6 H 0.619537 0.561522 0.515092
H7 H 0.603382 0.547694 0.348632
C3 C 0.7077(5) 0.7474(5) 0.4459(4)
C4 C 0.9797(5) 0.8194(5) 0.5394(4)
H8 H 0.943416 0.924247 0.539549
N6 N 0.9825(4) 0.3950(4) 0.1302(3)
O1_2 O 0.3349(3) 0.3739(3) 0.6119(3)
O2_2 O 0.0135(3) 0.1716(3) 0.6645(3)
N1 N 0.6837(4) 0.0432(3) 0.6576(4)
H1_2 H 0.680009 0.008624 0.570026
N2_2 N 0.1444(4) 0.2153(4) 0.4671(4)
H3_2 H 0.122791 0.132932 0.415085
C1_2 C 0.5737(5) 0.1723(5) 0.6296(5)
H4_2 H 0.584843 0.238510 0.554253
H5_2 H 0.598845 0.231087 0.720540
C2_2 C 0.4064(5) 0.1172(5) 0.5777(4)
H6_2 H 0.380463 0.061522 0.484908
H7_2 H 0.396618 0.047694 0.651368
C3_2 C 0.2923(5) 0.2474(5) 0.5541(4)
C4_2 C 0.0203(5) 0.3194(5) 0.4606(4)
H8_2 H 0.056584 0.424247 0.460451
H2_2 H 0.651160 0.968502 0.700540
O3_2 O 0.8956(4) 0.3986(3) 0.6235(3)
C5_2 C 0.9734(5) 0.2987(5) 0.5953(4)
C6_2 C 0.8748(5) 0.2936(5) 0.3178(4)
H9_2 H 0.825626 0.199428 0.328806
H10_2 H 0.801890 0.375726 0.308844
C7_2 C 0.9033(5) 0.2855(4) 0.1766(4)
C8_2 C 0.8571(5) 0.1751(4) 0.0714(4)
H11_2 H 0.801048 0.088521 0.075136
C9_2 C 0.9816(7) 0.3412(7) 0.0008(7)
N7 N 0.9062(4) 0.2109(4) 0.9572(4)
H12 H 0.969970 0.891402 0.054169
H12_2 H 0.030030 0.391402 0.945831
loop_
_geom_bond_atom_site_label_1
_geom_bond_atom_site_label_2
_geom_bond_site_symmetry_1
_geom_bond_site_symmetry_2
Zn3 N4 1_555 1_555
O3 C5 1_555 1_555
N3 C7 1_555 1_555
H9 C6 1_555 1_555
H10 C6 1_555 1_555
C7 C6 1_555 1_555
C8 C7 1_555 1_555
H11 C8 1_555 1_555
C9 N3 1_555 1_555
N5 Zn3 1_555 1_555
O1 C3 1_555 1_555
N5 H1 1_555 1_555
H2 N5 1_555 1_555
N2 H3 1_555 1_555
C1 N5 1_555 1_555
H4 C1 1_555 1_555
H5 C1 1_555 1_555
C2 C1 1_555 1_555
H6 C2 1_555 1_555
H7 C2 1_555 1_555
C3 N2 1_555 1_555
C4 N2 1_555 1_555
H8 C4 1_555 1_555
C2 C3 1_555 1_555
O1_2 C3_2 1_555 1_555
N1 H1_2 1_555 1_555
N2_2 H3_2 1_555 1_555
C1_2 N1 1_555 1_555
H4_2 C1_2 1_555 1_555
H5_2 C1_2 1_555 1_555
C2_2 C1_2 1_555 1_555
H6_2 C2_2 1_555 1_555
H7_2 C2_2 1_555 1_555
C3_2 N2_2 1_555 1_555
C4_2 N2_2 1_555 1_555
H8_2 C4_2 1_555 1_555
Zn4 N1 1_555 1_555
C2_2 C3_2 1_555 1_555
O3_2 C5_2 1_555 1_555
N6 C7_2 1_555 1_555
H9_2 C6_2 1_555 1_555
H10_2 C6_2 1_555 1_555
C7_2 C6_2 1_555 1_555
C8_2 C7_2 1_555 1_555
H11_2 C8_2 1_555 1_555
C9_2 N6 1_555 1_555
N7 Zn4 1_555 1_555

#END
