
###############################################################################
#
# This file contains modified crystal structure data generated from the
# MOF subset of the Cambridge Structural Database (CSD) v543 
# hosted by the Cambridge Crystallographic Data Centre (CCDC).
#
# This work is licensed under the Creative Commons
# Attribution-NonCommercial-ShareAlike 4.0 International License.
# To view a copy of this license, visit
# http://creativecommons.org/licenses/by-nc-sa/4.0/
# or send a letter to
# Creative Commons, PO Box 1866, Mountain View, CA 94042, USA.
#
# CIF created using the CSD Python API on 29 September 2022
# The structure has been converted into the P1 space group
# The structure has a 3D framework
# The original CSD entry QASTUC is in the orthorhombic crystal system
# The framework has been calculated to contain at least 10.0% void space
# The void calculation uses a probe of radius 1.32A, grid spacing 0.4
#
###############################################################################

data_QASTUC
_chemical_formula_moiety         '(C288 H184 Mn12 N40 O46)n'
_symmetry_cell_setting           triclinic
_symmetry_space_group_name_H-M   'P 1'
_symmetry_Int_Tables_number      1
_space_group_name_Hall           'P 1'
loop_
_symmetry_equiv_pos_site_id
_symmetry_equiv_pos_as_xyz
1 x,y,z
_cell_length_a                   18.894(4)
_cell_length_b                   31.681(7)
_cell_length_c                   13.876(3)
_cell_angle_alpha                90
_cell_angle_beta                 90
_cell_angle_gamma                90
_cell_volume                     8305.91
loop_
_atom_site_label
_atom_site_type_symbol
_atom_site_fract_x
_atom_site_fract_y
_atom_site_fract_z
O1 O 0.0055(9) 0.2500 0.3531(14)
Mn4 Mn 0.07368(15) 0.2500 0.4579(2)
C1 C 0.9420(14) 0.2500 0.383(2)
C2 C 0.8841(12) 0.2500 0.3091(18)
C3 C 0.9007(13) 0.2500 0.2117(19)
H1 H 0.9477 0.2500 0.1920
Mn1 Mn 0.57368(15) 0.2500 0.0421(2)
O5 O 0.9281(11) 0.2500 0.4698(16)
O6 O 0.6555(9) 0.2500 0.1276(13)
O7 O 0.7352(10) 0.2500 0.0103(15)
C7 C 0.7755(11) 0.2500 0.1719(18)
C11 C 0.7594(13) 0.2500 0.2685(19)
H5 H 0.7123 0.2500 0.2881
C17 C 0.7191(13) 0.2500 0.0980(19)
C19 C 0.8134(12) 0.2500 0.3378(18)
H8 H 0.8020 0.2500 0.4030
C28 C 0.8468(13) 0.2500 0.1434(18)
H15 H 0.8581 0.2500 0.0782
O13 O 0.5055(9) 0.2500 0.1469(14)
N9 N 0.0450(8) 0.1511(5) 0.6543(14)
N10 N 0.0741(8) 0.2002(5) 0.5475(13)
C59 C 0.0230(9) 0.1794(6) 0.5898(13)
C62 C 0.0055(9) 0.1217(5) 0.7103(14)
H37 H 0.0143 0.0676 0.9065
C65 C 0.0320(10) 0.1074(6) 0.7970(15)
H39 H 0.0741 0.1184 0.8211
C71 C 0.1328(14) 0.1833(13) 0.585(4)
H45 H 0.1787 0.1917 0.5706
C72 C 0.1158(15) 0.1527(15) 0.647(4)
H46 H 0.1476 0.1354 0.6795
C1_2 C 0.4420(14) 0.2500 0.117(2)
C2_2 C 0.3841(12) 0.2500 0.1909(18)
C3_2 C 0.4007(13) 0.2500 0.2883(19)
H1_2 H 0.4477 0.2500 0.3080
O5_2 O 0.4281(11) 0.2500 0.0302(16)
O6_2 O 0.1555(9) 0.2500 0.3724(13)
N4 N 0.0450(8) 0.3489(5) 0.6543(14)
N5 N 0.0741(8) 0.2998(5) 0.5475(13)
O7_2 O 0.2352(10) 0.2500 0.4897(15)
C7_2 C 0.2755(11) 0.2500 0.3281(18)
C11_2 C 0.2594(13) 0.2500 0.2315(19)
H5_2 H 0.2123 0.2500 0.2119
C17_2 C 0.2191(13) 0.2500 0.4020(19)
C18 C 0.0230(9) 0.3206(6) 0.5898(13)
C19_2 C 0.3134(12) 0.2500 0.1622(18)
H8_2 H 0.3020 0.2500 0.0970
C24 C 0.0055(9) 0.3783(5) 0.7103(14)
H12 H 0.0143 0.4324 0.9065
C27 C 0.0320(10) 0.3926(6) 0.7970(15)
H14 H 0.0741 0.3816 0.8211
C28_2 C 0.3468(13) 0.2500 0.3566(18)
H15_2 H 0.3581 0.2500 0.4218
C35 C 0.1328(14) 0.3167(13) 0.585(4)
H22 H 0.1787 0.3083 0.5706
C36 C 0.1158(15) 0.3473(15) 0.647(4)
H23 H 0.1476 0.3646 0.6795
O2 O 0.1892(7) 0.0082(4) 0.4445(11)
N4_2 N 0.5450(8) 0.1511(5) 0.8457(14)
N5_2 N 0.5741(8) 0.2002(5) 0.9525(13)
C6 C 0.3957(9) 0.0222(5) 0.5364(11)
H3 H 0.4202 0.0420 0.4998
C12 C 0.4063(9) 0.0761(5) 0.7720(12)
H6 H 0.3632 0.0661 0.7948
C14 C 0.3962(8) 0.0244(5) 0.6362(12)
C16 C 0.4337(9) 0.0596(5) 0.6871(12)
C18_2 C 0.5230(9) 0.1794(6) 0.9102(13)
H7 H 0.4754 0.1840 0.9238
C23 C 0.4413(9) 0.1069(5) 0.8235(13)
H11 H 0.4221 0.1176 0.8802
C24_2 C 0.5055(9) 0.1217(5) 0.7897(14)
C25 C 0.4963(10) 0.0769(6) 0.6522(14)
H12_2 H 0.5143 0.0676 0.5935
C27_2 C 0.5320(10) 0.1074(6) 0.7030(15)
H14_2 H 0.5741 0.1184 0.6789
C29 C 0.3686(13) 0.0035(7) 0.2237(15)
H16 H 0.3891 0.0212 0.1780
C30 C 0.3803(11) 0.0105(6) 0.3202(13)
H17 H 0.4088 0.0328 0.3401
C35_2 C 0.6328(14) 0.1833(13) 0.915(4)
H22_2 H 0.6787 0.1917 0.9294
C36_2 C 0.6158(15) 0.1527(15) 0.853(4)
H23_2 H 0.6476 0.1354 0.8205
C39 C 0.0468(9) 0.0307(6) 0.4700(12)
H24 H 0.0781 0.0516 0.4498
N11 N 0.5741(8) 0.2998(5) 0.9525(13)
Mn2 Mn 0.26214(12) 0.91663(6) 0.47499(16)
O3 O 0.2231(7) 0.8601(4) 0.4193(10)
O4 O 0.3368(7) 0.8610(4) 0.4463(10)
N1 N 0.2553(7) 0.8992(4) 0.6277(10)
N2 N 0.3241(7) 0.9603(4) 0.5442(9)
N3 N 0.3088(7) 0.9512(4) 0.3595(9)
C4 C 0.2977(10) 0.9448(6) 0.2652(13)
H2 H 0.2693 0.9222 0.2464
C5 C 0.3256(8) 0.9619(5) 0.6405(11)
O8 O 0.1656(6) 0.9417(4) 0.4861(9)
C8 C 0.3614(9) 0.9934(5) 0.6885(12)
H4 H 0.3621 0.9939 0.7555
C9 C 0.3497(8) 0.9844(5) 0.3865(12)
C10 C 0.3577(8) 0.9897(5) 0.4915(11)
C13 C 0.2857(9) 0.9270(5) 0.6880(12)
C15 C 0.2809(10) 0.8412(5) 0.4250(13)
C20 C 0.2214(9) 0.7719(5) 0.4041(13)
H9 H 0.1789 0.7864 0.3966
C21 C 0.2160(10) 0.8678(6) 0.6638(16)
H10 H 0.1955 0.8486 0.6216
C22 C 0.2831(9) 0.7941(5) 0.4149(12)
C26 C 0.3268(13) 0.9704(7) 0.1945(14)
H13 H 0.3184 0.9653 0.1295
C31 C 0.2371(12) 0.8910(7) 0.8226(16)
H18 H 0.2319 0.8880 0.8889
C32 C 0.2769(11) 0.9235(6) 0.7863(14)
H19 H 0.2977 0.9430 0.8276
C33 C 0.3462(10) 0.7718(5) 0.4235(17)
H20 H 0.3887 0.7864 0.4293
C34 C 0.2049(12) 0.8630(7) 0.7615(17)
H21 H 0.1765 0.8414 0.7851
C37 C 0.0711(9) 0.9902(5) 0.4853(11)
C38 C 0.1486(10) 0.9801(6) 0.4698(11)
C40 C 0.0235(10) 0.9596(6) 0.5157(13)
H25 H 0.0393 0.9322 0.5264
O11 O 0.2231(7) 0.6399(4) 0.4193(10)
O12 O 0.3368(7) 0.6390(4) 0.4463(10)
C45 C 0.2809(10) 0.6588(5) 0.4250(13)
C46 C 0.2214(9) 0.7281(5) 0.4041(13)
H28 H 0.1789 0.7136 0.3966
C47 C 0.2831(9) 0.7059(5) 0.4149(12)
C48 C 0.3462(10) 0.7282(5) 0.4235(17)
H29 H 0.3887 0.7136 0.4293
Mn6 Mn 0.26214(12) 0.58337(6) 0.47499(16)
O9 O 0.1892(7) 0.4918(4) 0.4445(11)
O10 O 0.1656(6) 0.5583(4) 0.4861(9)
C41 C 0.0711(9) 0.5098(5) 0.4853(11)
C42 C 0.1486(10) 0.5199(6) 0.4698(11)
C43 C 0.0468(9) 0.4693(6) 0.4700(12)
H26 H 0.0781 0.4484 0.4498
C44 C 0.0235(10) 0.5404(6) 0.5157(13)
H27 H 0.0393 0.5678 0.5264
N6 N 0.2553(7) 0.6008(4) 0.6277(10)
N7 N 0.3241(7) 0.5397(4) 0.5442(9)
N8 N 0.3088(7) 0.5488(4) 0.3595(9)
N9_2 N 0.5450(8) 0.3489(5) 0.8457(14)
C49 C 0.2977(10) 0.5552(6) 0.2652(13)
H30 H 0.2693 0.5778 0.2464
C50 C 0.3256(8) 0.5381(5) 0.6405(11)
C51 C 0.3957(9) 0.4778(5) 0.5364(11)
H31 H 0.4202 0.4580 0.4998
C52 C 0.3614(9) 0.5066(5) 0.6885(12)
H32 H 0.3621 0.5061 0.7555
C53 C 0.3497(8) 0.5156(5) 0.3865(12)
C54 C 0.3577(8) 0.5103(5) 0.4915(11)
C55 C 0.4063(9) 0.4239(5) 0.7720(12)
H33 H 0.3632 0.4339 0.7948
C56 C 0.2857(9) 0.5730(5) 0.6880(12)
C57 C 0.3962(8) 0.4756(5) 0.6362(12)
C58 C 0.4337(9) 0.4404(5) 0.6871(12)
C59_2 C 0.5230(9) 0.3206(6) 0.9102(13)
H34 H 0.4754 0.3160 0.9238
C60 C 0.2160(10) 0.6322(6) 0.6638(16)
H35 H 0.1955 0.6514 0.6216
C61 C 0.4413(9) 0.3931(5) 0.8235(13)
H36 H 0.4221 0.3824 0.8802
C62_2 C 0.5055(9) 0.3783(5) 0.7897(14)
C63 C 0.4963(10) 0.4231(6) 0.6522(14)
H37_2 H 0.5143 0.4324 0.5935
C64 C 0.3268(13) 0.5296(7) 0.1945(14)
H38 H 0.3184 0.5347 0.1295
C65_2 C 0.5320(10) 0.3926(6) 0.7030(15)
H39_2 H 0.5741 0.3816 0.6789
C66 C 0.3686(13) 0.4965(7) 0.2237(15)
H40 H 0.3891 0.4788 0.1780
C67 C 0.3803(11) 0.4895(6) 0.3202(13)
H41 H 0.4088 0.4672 0.3401
C68 C 0.2371(12) 0.6090(7) 0.8226(16)
H42 H 0.2319 0.6120 0.8889
C69 C 0.2769(11) 0.5765(6) 0.7863(14)
H43 H 0.2977 0.5570 0.8276
C70 C 0.2049(12) 0.6370(7) 0.7615(17)
H44 H 0.1765 0.6586 0.7851
C71_2 C 0.6328(14) 0.3167(13) 0.915(4)
H45_2 H 0.6787 0.3083 0.9294
C72_2 C 0.6158(15) 0.3473(15) 0.853(4)
H46_2 H 0.6476 0.3646 0.8205
O10_2 O 0.8344(6) 0.0583(4) 0.5139(9)
C41_2 C 0.9289(9) 0.0098(5) 0.5147(11)
C42_2 C 0.8514(10) 0.0199(6) 0.5302(11)
C44_2 C 0.9765(10) 0.0404(6) 0.4843(13)
H27_2 H 0.9607 0.0678 0.4736
Mn3 Mn 0.73786(12) 0.08337(6) 0.52501(16)
N6_2 N 0.7447(7) 0.1008(4) 0.3723(10)
N7_2 N 0.6759(7) 0.0397(4) 0.4558(9)
N8_2 N 0.6912(7) 0.0488(4) 0.6405(9)
C49_2 C 0.7023(10) 0.0552(6) 0.7348(13)
H30_2 H 0.7307 0.0778 0.7536
C50_2 C 0.6744(8) 0.0381(5) 0.3595(11)
C52_2 C 0.6386(9) 0.0066(5) 0.3115(12)
H32_2 H 0.6379 0.0061 0.2445
C53_2 C 0.6503(8) 0.0156(5) 0.6135(12)
C54_2 C 0.6423(8) 0.0103(5) 0.5085(11)
C56_2 C 0.7143(9) 0.0730(5) 0.3120(12)
C60_2 C 0.7840(10) 0.1322(6) 0.3362(16)
H35_2 H 0.8045 0.1514 0.3784
C64_2 C 0.6732(13) 0.0296(7) 0.8055(14)
H38_2 H 0.6816 0.0347 0.8705
C68_2 C 0.7629(12) 0.1090(7) 0.1774(16)
H42_2 H 0.7681 0.1120 0.1111
C69_2 C 0.7231(11) 0.0765(6) 0.2137(14)
H43_2 H 0.7023 0.0570 0.1724
C70_2 C 0.7951(12) 0.1370(7) 0.2385(17)
H44_2 H 0.8235 0.1586 0.2149
O14 O 0.7769(7) 0.1399(4) 0.5807(10)
O15 O 0.6632(7) 0.1390(4) 0.5537(10)
O9_2 O 0.8108(7) 0.9918(4) 0.5555(11)
C43_2 C 0.9532(9) 0.9693(6) 0.5300(12)
H26_2 H 0.9219 0.9484 0.5502
N9_3 N 0.4550(8) 0.8489(5) 0.1543(14)
N10_2 N 0.4259(8) 0.7998(5) 0.0475(13)
C51_2 C 0.6043(9) 0.9778(5) 0.4636(11)
H31_2 H 0.5798 0.9580 0.5002
C55_2 C 0.5937(9) 0.9239(5) 0.2280(12)
H33_2 H 0.6368 0.9339 0.2052
C57_2 C 0.6038(8) 0.9756(5) 0.3638(12)
C58_2 C 0.5663(9) 0.9404(5) 0.3129(12)
C59_3 C 0.4770(9) 0.8206(6) 0.0898(13)
H34_2 H 0.5246 0.8160 0.0762
C61_2 C 0.5587(9) 0.8931(5) 0.1765(13)
H36_2 H 0.5779 0.8824 0.1198
C62_3 C 0.4945(9) 0.8783(5) 0.2103(14)
C63_2 C 0.5037(10) 0.9231(6) 0.3478(14)
H37_3 H 0.4857 0.9324 0.4065
C65_3 C 0.4680(10) 0.8926(6) 0.2970(15)
H39_3 H 0.4259 0.8816 0.3211
C66_2 C 0.6314(13) 0.9965(7) 0.7763(15)
H40_2 H 0.6109 0.9788 0.8220
C67_2 C 0.6197(11) 0.9895(6) 0.6798(13)
H41_2 H 0.5912 0.9672 0.6599
C71_3 C 0.3672(14) 0.8167(13) 0.085(4)
H45_3 H 0.3213 0.8083 0.0706
C72_3 C 0.3842(15) 0.8473(15) 0.147(4)
H46_3 H 0.3524 0.8646 0.1795
O2_2 O 0.8108(7) 0.5082(4) 0.5555(11)
Mn2_2 Mn 0.73786(12) 0.41663(6) 0.52501(16)
O3_2 O 0.7769(7) 0.3601(4) 0.5807(10)
O4_2 O 0.6632(7) 0.3610(4) 0.5537(10)
N1_2 N 0.7447(7) 0.3992(4) 0.3723(10)
N2_2 N 0.6759(7) 0.4603(4) 0.4558(9)
N3_2 N 0.6912(7) 0.4512(4) 0.6405(9)
N4_3 N 0.4550(8) 0.6511(5) 0.1543(14)
N5_3 N 0.4259(8) 0.7002(5) 0.0475(13)
C4_2 C 0.7023(10) 0.4448(6) 0.7348(13)
H2_2 H 0.7307 0.4222 0.7536
C5_2 C 0.6744(8) 0.4619(5) 0.3595(11)
O8_2 O 0.8344(6) 0.4417(4) 0.5139(9)
C6_2 C 0.6043(9) 0.5222(5) 0.4636(11)
H3_2 H 0.5798 0.5420 0.5002
C8_2 C 0.6386(9) 0.4934(5) 0.3115(12)
H4_2 H 0.6379 0.4939 0.2445
C9_2 C 0.6503(8) 0.4844(5) 0.6135(12)
C10_2 C 0.6423(8) 0.4897(5) 0.5085(11)
C12_2 C 0.5937(9) 0.5761(5) 0.2280(12)
H6_2 H 0.6368 0.5661 0.2052
C13_2 C 0.7143(9) 0.4270(5) 0.3120(12)
C14_2 C 0.6038(8) 0.5244(5) 0.3638(12)
C15_2 C 0.7191(10) 0.3412(5) 0.5750(13)
C16_2 C 0.5663(9) 0.5596(5) 0.3129(12)
C18_3 C 0.4770(9) 0.6794(6) 0.0898(13)
H7_2 H 0.5246 0.6840 0.0762
C20_2 C 0.7786(9) 0.2719(5) 0.5959(13)
H9_2 H 0.8211 0.2864 0.6034
C21_2 C 0.7840(10) 0.3678(6) 0.3362(16)
H10_2 H 0.8045 0.3486 0.3784
C22_2 C 0.7169(9) 0.2941(5) 0.5851(12)
C23_2 C 0.5587(9) 0.6069(5) 0.1765(13)
H11_2 H 0.5779 0.6176 0.1198
C24_3 C 0.4945(9) 0.6217(5) 0.2103(14)
C25_2 C 0.5037(10) 0.5769(6) 0.3478(14)
H12_3 H 0.4857 0.5676 0.4065
C26_2 C 0.6732(13) 0.4704(7) 0.8055(14)
H13_2 H 0.6816 0.4653 0.8705
C27_3 C 0.4680(10) 0.6074(6) 0.2970(15)
H14_3 H 0.4259 0.6184 0.3211
C29_2 C 0.6314(13) 0.5035(7) 0.7763(15)
H16_2 H 0.6109 0.5212 0.8220
C30_2 C 0.6197(11) 0.5105(6) 0.6798(13)
H17_2 H 0.5912 0.5328 0.6599
C31_2 C 0.7629(12) 0.3910(7) 0.1774(16)
H18_2 H 0.7681 0.3880 0.1111
C32_2 C 0.7231(11) 0.4235(6) 0.2137(14)
H19_2 H 0.7023 0.4430 0.1724
C33_2 C 0.6538(10) 0.2718(5) 0.5765(17)
H20_2 H 0.6113 0.2864 0.5707
C34_2 C 0.7951(12) 0.3630(7) 0.2385(17)
H21_2 H 0.8235 0.3414 0.2149
C35_3 C 0.3672(14) 0.6833(13) 0.085(4)
H22_3 H 0.3213 0.6917 0.0706
C36_3 C 0.3842(15) 0.6527(15) 0.147(4)
H23_3 H 0.3524 0.6354 0.1795
C37_2 C 0.9289(9) 0.4902(5) 0.5147(11)
C38_2 C 0.8514(10) 0.4801(6) 0.5302(11)
C39_2 C 0.9532(9) 0.5307(6) 0.5300(12)
H24_2 H 0.9219 0.5516 0.5502
C40_2 C 0.9765(10) 0.4596(6) 0.4843(13)
H25_2 H 0.9607 0.4322 0.4736
C45_2 C 0.7191(10) 0.1588(5) 0.5750(13)
C46_2 C 0.7786(9) 0.2281(5) 0.5959(13)
H28_2 H 0.8211 0.2136 0.6034
C47_2 C 0.7169(9) 0.2059(5) 0.5851(12)
C48_2 C 0.6538(10) 0.2282(5) 0.5765(17)
H29_2 H 0.6113 0.2136 0.5707
Mn5 Mn 0.42632(15) 0.7500 0.9579(2)
O1_2 O 0.4945(9) 0.7500 0.8531(14)
C1_3 C 0.5580(14) 0.7500 0.883(2)
C2_3 C 0.6159(12) 0.7500 0.8091(18)
C3_3 C 0.5993(13) 0.7500 0.7117(19)
H1_3 H 0.5523 0.7500 0.6920
Mn1_2 Mn 0.92632(15) 0.7500 0.5421(2)
O5_3 O 0.5719(11) 0.7500 0.9698(16)
O6_3 O 0.8445(9) 0.7500 0.6276(13)
N4_4 N 0.9550(8) 0.8489(5) 0.3457(14)
N5_4 N 0.9259(8) 0.7998(5) 0.4525(13)
O7_3 O 0.7648(10) 0.7500 0.5103(15)
C7_3 C 0.7245(11) 0.7500 0.6719(18)
C11_3 C 0.7406(13) 0.7500 0.7685(19)
H5_3 H 0.7877 0.7500 0.7881
C17_3 C 0.7809(13) 0.7500 0.5980(19)
C18_4 C 0.9770(9) 0.8206(6) 0.4102(13)
C19_3 C 0.6866(12) 0.7500 0.8378(18)
H8_3 H 0.6980 0.7500 0.9030
C24_4 C 0.9945(9) 0.8783(5) 0.2897(14)
H12_4 H 0.9857 0.9324 0.0935
C27_4 C 0.9680(10) 0.8926(6) 0.2030(15)
H14_4 H 0.9259 0.8816 0.1789
C28_3 C 0.6532(13) 0.7500 0.6434(18)
H15_3 H 0.6419 0.7500 0.5782
C35_4 C 0.8672(14) 0.8167(13) 0.415(4)
H22_4 H 0.8213 0.8083 0.4294
C36_4 C 0.8842(15) 0.8473(15) 0.353(4)
H23_4 H 0.8524 0.8646 0.3205
O13_2 O 0.9945(9) 0.7500 0.6469(14)
N11_2 N 0.9259(8) 0.7002(5) 0.4525(13)
N9_4 N 0.9550(8) 0.6511(5) 0.3457(14)
C59_4 C 0.9770(9) 0.6794(6) 0.4102(13)
C62_4 C 0.9945(9) 0.6217(5) 0.2897(14)
H37_4 H 0.9857 0.5676 0.0935
C65_4 C 0.9680(10) 0.6074(6) 0.2030(15)
H39_4 H 0.9259 0.6184 0.1789
C71_4 C 0.8672(14) 0.6833(13) 0.415(4)
H45_4 H 0.8213 0.6917 0.4294
C72_4 C 0.8842(15) 0.6527(15) 0.353(4)
H46_4 H 0.8524 0.6354 0.3205
C1_4 C 0.0580(14) 0.7500 0.617(2)
C2_4 C 0.1159(12) 0.7500 0.6909(18)
C3_4 C 0.0993(13) 0.7500 0.7883(19)
H1_4 H 0.0523 0.7500 0.8080
O5_4 O 0.0719(11) 0.7500 0.5302(16)
O6_4 O 0.3445(9) 0.7500 0.8724(13)
O7_4 O 0.2648(10) 0.7500 0.9897(15)
C7_4 C 0.2245(11) 0.7500 0.8281(18)
C11_4 C 0.2406(13) 0.7500 0.7315(19)
H5_4 H 0.2877 0.7500 0.7119
C17_4 C 0.2809(13) 0.7500 0.9020(19)
C19_4 C 0.1866(12) 0.7500 0.6622(18)
H8_4 H 0.1980 0.7500 0.5970
C28_4 C 0.1532(13) 0.7500 0.8566(18)
H15_4 H 0.1419 0.7500 0.9218
N1_3 N 0.2447(7) 0.1008(4) 0.1277(10)
N2_3 N 0.1759(7) 0.0397(4) 0.0442(9)
C5_3 C 0.1744(8) 0.0381(5) 0.1405(11)
C8_3 C 0.1386(9) 0.0066(5) 0.1885(12)
H4_3 H 0.1379 0.0061 0.2555
C13_3 C 0.2143(9) 0.0730(5) 0.1880(12)
C21_3 C 0.2840(10) 0.1322(6) 0.1638(16)
H10_3 H 0.3045 0.1514 0.1216
C31_3 C 0.2629(12) 0.1090(7) 0.3226(16)
H18_3 H 0.2681 0.1120 0.3889
C32_3 C 0.2231(11) 0.0765(6) 0.2863(14)
H19_3 H 0.2023 0.0570 0.3276
C34_3 C 0.2951(12) 0.1370(7) 0.2615(17)
H21_3 H 0.3235 0.1586 0.2851
C40_3 C 0.4765(10) 0.0404(6) 0.0157(13)
H25_3 H 0.4607 0.0678 0.0264
O9_3 O 0.6892(7) 0.0082(4) 0.0555(11)
C43_3 C 0.5468(9) 0.0307(6) 0.0300(12)
H26_3 H 0.5781 0.0516 0.0502
H31_3 H 0.9202 0.0420 0.0002
C66_3 C 0.8686(13) 0.0035(7) 0.2763(15)
H40_3 H 0.8891 0.0212 0.3220
C67_3 C 0.8803(11) 0.0105(6) 0.1798(13)
H41_3 H 0.9088 0.0328 0.1599
Mn2_3 Mn 0.23786(12) 0.08337(6) 0.97499(16)
O3_3 O 0.2769(7) 0.1399(4) 0.9193(10)
O4_3 O 0.1632(7) 0.1390(4) 0.9463(10)
N3_3 N 0.1912(7) 0.0488(4) 0.8595(9)
C4_3 C 0.2023(10) 0.0552(6) 0.7652(13)
H2_3 H 0.2307 0.0778 0.7464
O8_3 O 0.3344(6) 0.0583(4) 0.9861(9)
C9_3 C 0.1503(8) 0.0156(5) 0.8865(12)
C10_3 C 0.1423(8) 0.0103(5) 0.9915(11)
C15_3 C 0.2191(10) 0.1588(5) 0.9250(13)
C20_3 C 0.2786(9) 0.2281(5) 0.9041(13)
H9_3 H 0.3211 0.2136 0.8966
C22_3 C 0.2169(9) 0.2059(5) 0.9149(12)
C26_3 C 0.1732(13) 0.0296(7) 0.6945(14)
H13_3 H 0.1816 0.0347 0.6295
C33_3 C 0.1538(10) 0.2282(5) 0.9235(17)
H20_3 H 0.1113 0.2136 0.9293
C37_3 C 0.4289(9) 0.0098(5) 0.9853(11)
C38_3 C 0.3514(10) 0.0199(6) 0.9698(11)
O11_2 O 0.2769(7) 0.3601(4) 0.9193(10)
O12_2 O 0.1632(7) 0.3610(4) 0.9463(10)
C45_3 C 0.2191(10) 0.3412(5) 0.9250(13)
C46_3 C 0.2786(9) 0.2719(5) 0.9041(13)
H28_3 H 0.3211 0.2864 0.8966
C47_3 C 0.2169(9) 0.2941(5) 0.9149(12)
C48_3 C 0.1538(10) 0.2718(5) 0.9235(17)
H29_3 H 0.1113 0.2864 0.9293
C51_3 C 0.8957(9) 0.0222(5) 0.9636(11)
C55_3 C 0.9063(9) 0.0761(5) 0.7280(12)
H33_3 H 0.8632 0.0661 0.7052
C57_3 C 0.8962(8) 0.0244(5) 0.8638(12)
C58_3 C 0.9337(9) 0.0596(5) 0.8129(12)
H34_3 H 0.9754 0.1840 0.5762
C61_3 C 0.9413(9) 0.1069(5) 0.6765(13)
H36_3 H 0.9221 0.1176 0.6198
C63_3 C 0.9963(10) 0.0769(6) 0.8478(14)
Mn6_2 Mn 0.23786(12) 0.41663(6) 0.97499(16)
N1_4 N 0.7553(7) 0.6008(4) 0.8723(10)
N2_4 N 0.8241(7) 0.5397(4) 0.9558(9)
C5_4 C 0.8256(8) 0.5381(5) 0.8595(11)
C6_3 C 0.8957(9) 0.4778(5) 0.9636(11)
C8_4 C 0.8614(9) 0.5066(5) 0.8115(12)
H4_4 H 0.8621 0.5061 0.7445
C12_3 C 0.9063(9) 0.4239(5) 0.7280(12)
H6_3 H 0.8632 0.4339 0.7052
C13_4 C 0.7857(9) 0.5730(5) 0.8120(12)
C14_3 C 0.8962(8) 0.4756(5) 0.8638(12)
C16_3 C 0.9337(9) 0.4404(5) 0.8129(12)
H7_3 H 0.9754 0.3160 0.5762
C21_4 C 0.7160(10) 0.6322(6) 0.8362(16)
H10_4 H 0.6955 0.6514 0.8784
C23_3 C 0.9413(9) 0.3931(5) 0.6765(13)
H11_3 H 0.9221 0.3824 0.6198
C25_3 C 0.9963(10) 0.4231(6) 0.8478(14)
C31_4 C 0.7371(12) 0.6090(7) 0.6774(16)
H18_4 H 0.7319 0.6120 0.6111
C32_4 C 0.7769(11) 0.5765(6) 0.7137(14)
H19_4 H 0.7977 0.5570 0.6724
C34_4 C 0.7049(12) 0.6370(7) 0.7385(17)
H21_4 H 0.6765 0.6586 0.7149
C40_4 C 0.5235(10) 0.5404(6) 0.9843(13)
H25_4 H 0.5393 0.5678 0.9736
O9_4 O 0.3108(7) 0.5082(4) 0.9445(11)
O10_3 O 0.3344(6) 0.4417(4) 0.9861(9)
C41_3 C 0.4289(9) 0.4902(5) 0.9853(11)
C42_3 C 0.3514(10) 0.4801(6) 0.9698(11)
C43_4 C 0.4532(9) 0.5307(6) 0.9700(12)
H26_4 H 0.4219 0.5516 0.9498
N8_3 N 0.1912(7) 0.4512(4) 0.8595(9)
C49_3 C 0.2023(10) 0.4448(6) 0.7652(13)
H30_3 H 0.2307 0.4222 0.7464
H31_4 H 0.0798 0.5420 0.9998
C53_3 C 0.1503(8) 0.4844(5) 0.8865(12)
C54_3 C 0.1423(8) 0.4897(5) 0.9915(11)
C64_3 C 0.1732(13) 0.4704(7) 0.6945(14)
H38_3 H 0.1816 0.4653 0.6295
C66_4 C 0.1314(13) 0.5035(7) 0.7237(15)
H40_4 H 0.1109 0.5212 0.6780
C67_4 C 0.1197(11) 0.5105(6) 0.8202(13)
H41_4 H 0.0912 0.5328 0.8401
C6_4 C 0.1043(9) 0.9778(5) 0.0364(11)
C12_4 C 0.0937(9) 0.9239(5) 0.2720(12)
H6_4 H 0.1368 0.9339 0.2948
C14_4 C 0.1038(8) 0.9756(5) 0.1362(12)
C16_4 C 0.0663(9) 0.9404(5) 0.1871(12)
H7_4 H 0.0246 0.8160 0.4238
C23_4 C 0.0587(9) 0.8931(5) 0.3235(13)
H11_4 H 0.0779 0.8824 0.3802
C25_4 C 0.0037(10) 0.9231(6) 0.1522(14)
O10_4 O 0.6656(6) 0.9417(4) 0.0139(9)
C41_4 C 0.5711(9) 0.9902(5) 0.0147(11)
C42_4 C 0.6486(10) 0.9801(6) 0.0302(11)
Mn3_2 Mn 0.76214(12) 0.91663(6) 0.02501(16)
N8_4 N 0.8088(7) 0.9512(4) 0.1405(9)
C49_4 C 0.7977(10) 0.9448(6) 0.2348(13)
H30_4 H 0.7693 0.9222 0.2536
C53_4 C 0.8497(8) 0.9844(5) 0.1135(12)
C54_4 C 0.8577(8) 0.9897(5) 0.0085(11)
C64_4 C 0.8268(13) 0.9704(7) 0.3055(14)
H38_4 H 0.8184 0.9653 0.3705
O14_2 O 0.7231(7) 0.8601(4) 0.0807(10)
O15_2 O 0.8368(7) 0.8610(4) 0.0537(10)
O2_3 O 0.6892(7) 0.4918(4) 0.0555(11)
Mn2_4 Mn 0.76214(12) 0.58337(6) 0.02501(16)
O3_4 O 0.7231(7) 0.6399(4) 0.0807(10)
O4_4 O 0.8368(7) 0.6390(4) 0.0537(10)
N3_4 N 0.8088(7) 0.5488(4) 0.1405(9)
C4_4 C 0.7977(10) 0.5552(6) 0.2348(13)
H2_4 H 0.7693 0.5778 0.2536
O8_4 O 0.6656(6) 0.5583(4) 0.0139(9)
H3_3 H 0.9202 0.4580 0.0002
C9_4 C 0.8497(8) 0.5156(5) 0.1135(12)
C10_4 C 0.8577(8) 0.5103(5) 0.0085(11)
C15_4 C 0.7809(10) 0.6588(5) 0.0750(13)
C20_4 C 0.7214(9) 0.7281(5) 0.0959(13)
H9_4 H 0.6789 0.7136 0.1034
C22_4 C 0.7831(9) 0.7059(5) 0.0851(12)
C26_4 C 0.8268(13) 0.5296(7) 0.3055(14)
H13_4 H 0.8184 0.5347 0.3705
C29_3 C 0.8686(13) 0.4965(7) 0.2763(15)
H16_3 H 0.8891 0.4788 0.3220
C30_3 C 0.8803(11) 0.4895(6) 0.1798(13)
H17_3 H 0.9088 0.4672 0.1599
C33_4 C 0.8462(10) 0.7282(5) 0.0765(17)
H20_4 H 0.8887 0.7136 0.0707
C37_4 C 0.5711(9) 0.5098(5) 0.0147(11)
C38_4 C 0.6486(10) 0.5199(6) 0.0302(11)
C39_3 C 0.5468(9) 0.4693(6) 0.0300(12)
H24_3 H 0.5781 0.4484 0.0502
C44_3 C 0.4765(10) 0.4596(6) 0.0157(13)
H27_3 H 0.4607 0.4322 0.0264
C45_4 C 0.7809(10) 0.8412(5) 0.0750(13)
C46_4 C 0.7214(9) 0.7719(5) 0.0959(13)
H28_4 H 0.6789 0.7864 0.1034
C47_4 C 0.7831(9) 0.7941(5) 0.0851(12)
C48_4 C 0.8462(10) 0.7718(5) 0.0765(17)
H29_4 H 0.8887 0.7864 0.0707
N6_3 N 0.2447(7) 0.3992(4) 0.1277(10)
N7_3 N 0.1759(7) 0.4603(4) 0.0442(9)
C50_3 C 0.1744(8) 0.4619(5) 0.1405(11)
C51_4 C 0.1043(9) 0.5222(5) 0.0364(11)
C52_3 C 0.1386(9) 0.4934(5) 0.1885(12)
H32_3 H 0.1379 0.4939 0.2555
C55_4 C 0.0937(9) 0.5761(5) 0.2720(12)
H33_4 H 0.1368 0.5661 0.2948
C56_3 C 0.2143(9) 0.4270(5) 0.1880(12)
C57_4 C 0.1038(8) 0.5244(5) 0.1362(12)
C58_4 C 0.0663(9) 0.5596(5) 0.1871(12)
H34_4 H 0.0246 0.6840 0.4238
C60_3 C 0.2840(10) 0.3678(6) 0.1638(16)
H35_3 H 0.3045 0.3486 0.1216
C61_4 C 0.0587(9) 0.6069(5) 0.3235(13)
H36_4 H 0.0779 0.6176 0.3802
C63_4 C 0.0037(10) 0.5769(6) 0.1522(14)
C68_3 C 0.2629(12) 0.3910(7) 0.3226(16)
H42_3 H 0.2681 0.3880 0.3889
C69_3 C 0.2231(11) 0.4235(6) 0.2863(14)
H43_3 H 0.2023 0.4430 0.3276
C70_3 C 0.2951(12) 0.3630(7) 0.2615(17)
H44_3 H 0.3235 0.3414 0.2851
O2_4 O 0.3108(7) 0.9918(4) 0.9445(11)
H3_4 H 0.0798 0.9580 0.9998
C29_4 C 0.1314(13) 0.9965(7) 0.7237(15)
H16_4 H 0.1109 0.9788 0.6780
C30_4 C 0.1197(11) 0.9895(6) 0.8202(13)
H17_4 H 0.0912 0.9672 0.8401
C39_4 C 0.4532(9) 0.9693(6) 0.9700(12)
H24_4 H 0.4219 0.9484 0.9498
C44_4 C 0.5235(10) 0.9596(6) 0.9843(13)
H27_4 H 0.5393 0.9322 0.9736
N6_4 N 0.7553(7) 0.8992(4) 0.8723(10)
N7_4 N 0.8241(7) 0.9603(4) 0.9558(9)
C50_4 C 0.8256(8) 0.9619(5) 0.8595(11)
C52_4 C 0.8614(9) 0.9934(5) 0.8115(12)
H32_4 H 0.8621 0.9939 0.7445
C56_4 C 0.7857(9) 0.9270(5) 0.8120(12)
C60_4 C 0.7160(10) 0.8678(6) 0.8362(16)
H35_4 H 0.6955 0.8486 0.8784
C68_4 C 0.7371(12) 0.8910(7) 0.6774(16)
H42_4 H 0.7319 0.8880 0.6111
C69_4 C 0.7769(11) 0.9235(6) 0.7137(14)
H43_4 H 0.7977 0.9430 0.6724
C70_4 C 0.7049(12) 0.8630(7) 0.7385(17)
H44_4 H 0.6765 0.8414 0.7149
loop_
_geom_bond_atom_site_label_1
_geom_bond_atom_site_label_2
_geom_bond_site_symmetry_1
_geom_bond_site_symmetry_2
Mn4 O1 1_555 1_555
C1 C2 1_555 1_555
C2 C3 1_555 1_555
C3 H1 1_555 1_555
Mn1 O6 1_555 1_555
O5 C1 1_555 1_555
O6 C17 1_555 1_555
O7 C17 1_555 1_555
C7 C11 1_555 1_555
C11 H5 1_555 1_555
C17 C7 1_555 1_555
C19 C2 1_555 1_555
H8 C19 1_555 1_555
C28 C3 1_555 1_555
H15 C28 1_555 1_555
O13 Mn1 1_555 1_555
C7 C28 1_555 1_555
C11 C19 1_555 1_555
N9 C59 1_555 1_555
N10 C59 1_555 1_555
C62 N9 1_555 1_555
C65 C62 1_555 1_555
H39 C65 1_555 1_555
C71 N10 1_555 1_555
H45 C71 1_555 1_555
C72 N9 1_555 1_555
H46 C72 1_555 1_555
Mn4 N10 1_555 1_555
C71 C72 1_555 1_555
O13 C1_2 1_555 1_555
C1_2 C2_2 1_555 1_555
C2_2 C3_2 1_555 1_555
C3_2 H1_2 1_555 1_555
Mn4 O6_2 1_555 1_555
O5_2 C1_2 1_555 1_555
O6_2 C17_2 1_555 1_555
N4 C18 1_555 1_555
N5 Mn4 1_555 1_555
O7_2 C17_2 1_555 1_555
C7_2 C11_2 1_555 1_555
C11_2 H5_2 1_555 1_555
C17_2 C7_2 1_555 1_555
C18 N5 1_555 1_555
C19_2 C2_2 1_555 1_555
H8_2 C19_2 1_555 1_555
C24 N4 1_555 1_555
C27 C24 1_555 1_555
H14 C27 1_555 1_555
C28_2 C3_2 1_555 1_555
H15_2 C28_2 1_555 1_555
C35 N5 1_555 1_555
H22 C35 1_555 1_555
C36 N4 1_555 1_555
H23 C36 1_555 1_555
C7_2 C28_2 1_555 1_555
C11_2 C19_2 1_555 1_555
C35 C36 1_555 1_555
N4_2 C18_2 1_555 1_555
C6 H3 1_555 1_555
C12 H6 1_555 1_555
C14 C6 1_555 1_555
C16 C12 1_555 1_555
C18_2 N5_2 1_555 1_555
H7 C18_2 1_555 1_555
C23 C12 1_555 1_555
H11 C23 1_555 1_555
C24_2 N4_2 1_555 1_555
C25 C16 1_555 1_555
H12_2 C25 1_555 1_555
C27_2 C24_2 1_555 1_555
H14_2 C27_2 1_555 1_555
H16 C29 1_555 1_555
H17 C30 1_555 1_555
C35_2 N5_2 1_555 1_555
H22_2 C35_2 1_555 1_555
C36_2 N4_2 1_555 1_555
H23_2 C36_2 1_555 1_555
H24 C39 1_555 1_555
C14 C16 1_555 1_555
C23 C24_2 1_555 1_555
C25 C27_2 1_555 1_555
C29 C30 1_555 1_555
C35_2 C36_2 1_555 1_555
Mn2 O3 1_555 1_555
O3 C15 1_555 1_555
O4 Mn2 1_555 1_555
N1 Mn2 1_555 1_555
N2 Mn2 1_555 1_555
N3 Mn2 1_555 1_555
C4 N3 1_555 1_555
H2 C4 1_555 1_555
C5 N2 1_555 1_555
O8 Mn2 1_555 1_555
C8 C5 1_555 1_555
H4 C8 1_555 1_555
C9 N3 1_555 1_555
C10 N2 1_555 1_555
C13 N1 1_555 1_555
C15 O4 1_555 1_555
C20 H9 1_555 1_555
C21 N1 1_555 1_555
H10 C21 1_555 1_555
C22 C15 1_555 1_555
C26 C4 1_555 1_555
H13 C26 1_555 1_555
C31 H18 1_555 1_555
C32 C13 1_555 1_555
H19 C32 1_555 1_555
C33 C22 1_555 1_555
H20 C33 1_555 1_555
C34 C21 1_555 1_555
H21 C34 1_555 1_555
C37 C38 1_555 1_555
C38 O8 1_555 1_555
C40 C37 1_555 1_555
H25 C40 1_555 1_555
O11 C45 1_555 1_555
O12 C45 1_555 1_555
C45 C47 1_555 1_555
C46 C20 1_555 1_555
H28 C46 1_555 1_555
C47 C46 1_555 1_555
C48 C33 1_555 1_555
H29 C48 1_555 1_555
Mn6 O11 1_555 1_555
C5 C13 1_555 1_555
C9 C10 1_555 1_555
C20 C22 1_555 1_555
C31 C32 1_555 1_555
C31 C34 1_555 1_555
O12 Mn6 1_555 1_555
C47 C48 1_555 1_555
O9 C42 1_555 1_555
O10 C42 1_555 1_555
C41 C42 1_555 1_555
H26 C43 1_555 1_555
H27 C44 1_555 1_555
Mn6 O10 1_555 1_555
N6 Mn6 1_555 1_555
N7 Mn6 1_555 1_555
N8 Mn6 1_555 1_555
N9_2 C59_2 1_555 1_555
N11 C59_2 1_555 1_555
C49 N8 1_555 1_555
H30 C49 1_555 1_555
C50 N7 1_555 1_555
C51 H31 1_555 1_555
C52 C50 1_555 1_555
H32 C52 1_555 1_555
C53 N8 1_555 1_555
C54 N7 1_555 1_555
C55 H33 1_555 1_555
C56 N6 1_555 1_555
C57 C51 1_555 1_555
C58 C55 1_555 1_555
C59_2 H34 1_555 1_555
C60 N6 1_555 1_555
H35 C60 1_555 1_555
C61 C55 1_555 1_555
H36 C61 1_555 1_555
C62_2 N9_2 1_555 1_555
C63 C58 1_555 1_555
H37_2 C63 1_555 1_555
C64 C49 1_555 1_555
H38 C64 1_555 1_555
C65_2 C62_2 1_555 1_555
H39_2 C65_2 1_555 1_555
C66 C64 1_555 1_555
H40 C66 1_555 1_555
C67 C53 1_555 1_555
H41 C67 1_555 1_555
C68 H42 1_555 1_555
C69 C56 1_555 1_555
H43 C69 1_555 1_555
C70 C60 1_555 1_555
H44 C70 1_555 1_555
C71_2 N11 1_555 1_555
H45_2 C71_2 1_555 1_555
C72_2 N9_2 1_555 1_555
H46_2 C72_2 1_555 1_555
C41 C43 1_555 1_555
C41 C44 1_555 1_555
C50 C56 1_555 1_555
C51 C54 1_555 1_555
C52 C57 1_555 1_555
C53 C54 1_555 1_555
C57 C58 1_555 1_555
C61 C62_2 1_555 1_555
C63 C65_2 1_555 1_555
C66 C67 1_555 1_555
C68 C69 1_555 1_555
C68 C70 1_555 1_555
C71_2 C72_2 1_555 1_555
O10_2 C42_2 1_555 1_555
C41_2 C42_2 1_555 1_555
H27_2 C44_2 1_555 1_555
Mn3 O10_2 1_555 1_555
N6_2 Mn3 1_555 1_555
N7_2 Mn3 1_555 1_555
N8_2 Mn3 1_555 1_555
C49_2 N8_2 1_555 1_555
H30_2 C49_2 1_555 1_555
C50_2 N7_2 1_555 1_555
C52_2 C50_2 1_555 1_555
H32_2 C52_2 1_555 1_555
C53_2 N8_2 1_555 1_555
C54_2 N7_2 1_555 1_555
C56_2 N6_2 1_555 1_555
C60_2 N6_2 1_555 1_555
H35_2 C60_2 1_555 1_555
C64_2 C49_2 1_555 1_555
H38_2 C64_2 1_555 1_555
C68_2 H42_2 1_555 1_555
C69_2 C56_2 1_555 1_555
H43_2 C69_2 1_555 1_555
C70_2 C60_2 1_555 1_555
H44_2 C70_2 1_555 1_555
O14 Mn3 1_555 1_555
O15 Mn3 1_555 1_555
C41_2 C44_2 1_555 1_555
C50_2 C56_2 1_555 1_555
C53_2 C54_2 1_555 1_555
C68_2 C69_2 1_555 1_555
C68_2 C70_2 1_555 1_555
H26_2 C43_2 1_555 1_555
N9_3 C59_3 1_555 1_555
N10_2 C59_3 1_555 1_555
C51_2 H31_2 1_555 1_555
C55_2 H33_2 1_555 1_555
C57_2 C51_2 1_555 1_555
C58_2 C55_2 1_555 1_555
C59_3 H34_2 1_555 1_555
C61_2 C55_2 1_555 1_555
H36_2 C61_2 1_555 1_555
C62_3 N9_3 1_555 1_555
C63_2 C58_2 1_555 1_555
H37_3 C63_2 1_555 1_555
C65_3 C62_3 1_555 1_555
H39_3 C65_3 1_555 1_555
H40_2 C66_2 1_555 1_555
H41_2 C67_2 1_555 1_555
C71_3 N10_2 1_555 1_555
H45_3 C71_3 1_555 1_555
C72_3 N9_3 1_555 1_555
H46_3 C72_3 1_555 1_555
C57_2 C58_2 1_555 1_555
C61_2 C62_3 1_555 1_555
C63_2 C65_3 1_555 1_555
C66_2 C67_2 1_555 1_555
C71_3 C72_3 1_555 1_555
O2_2 C38_2 1_555 1_555
Mn2_2 O3_2 1_555 1_555
O3_2 C15_2 1_555 1_555
O4_2 Mn2_2 1_555 1_555
N1_2 Mn2_2 1_555 1_555
N2_2 Mn2_2 1_555 1_555
N3_2 Mn2_2 1_555 1_555
N4_3 C18_3 1_555 1_555
C4_2 N3_2 1_555 1_555
H2_2 C4_2 1_555 1_555
C5_2 N2_2 1_555 1_555
O8_2 Mn2_2 1_555 1_555
C6_2 H3_2 1_555 1_555
C8_2 C5_2 1_555 1_555
H4_2 C8_2 1_555 1_555
C9_2 N3_2 1_555 1_555
C10_2 N2_2 1_555 1_555
C12_2 H6_2 1_555 1_555
C13_2 N1_2 1_555 1_555
C14_2 C6_2 1_555 1_555
C15_2 O4_2 1_555 1_555
C16_2 C12_2 1_555 1_555
C18_3 N5_3 1_555 1_555
H7_2 C18_3 1_555 1_555
C20_2 H9_2 1_555 1_555
C21_2 N1_2 1_555 1_555
H10_2 C21_2 1_555 1_555
C22_2 C15_2 1_555 1_555
C23_2 C12_2 1_555 1_555
H11_2 C23_2 1_555 1_555
C24_3 N4_3 1_555 1_555
C25_2 C16_2 1_555 1_555
H12_3 C25_2 1_555 1_555
C26_2 C4_2 1_555 1_555
H13_2 C26_2 1_555 1_555
C27_3 C24_3 1_555 1_555
H14_3 C27_3 1_555 1_555
C29_2 C26_2 1_555 1_555
H16_2 C29_2 1_555 1_555
C30_2 C9_2 1_555 1_555
H17_2 C30_2 1_555 1_555
C31_2 H18_2 1_555 1_555
C32_2 C13_2 1_555 1_555
H19_2 C32_2 1_555 1_555
C33_2 C22_2 1_555 1_555
H20_2 C33_2 1_555 1_555
C34_2 C21_2 1_555 1_555
H21_2 C34_2 1_555 1_555
C35_3 N5_3 1_555 1_555
H22_3 C35_3 1_555 1_555
C36_3 N4_3 1_555 1_555
H23_3 C36_3 1_555 1_555
C37_2 C38_2 1_555 1_555
C38_2 O8_2 1_555 1_555
C39_2 C37_2 1_555 1_555
H24_2 C39_2 1_555 1_555
C40_2 C37_2 1_555 1_555
H25_2 C40_2 1_555 1_555
O14 C45_2 1_555 1_555
O15 C45_2 1_555 1_555
C45_2 C47_2 1_555 1_555
C46_2 C20_2 1_555 1_555
H28_2 C46_2 1_555 1_555
C47_2 C46_2 1_555 1_555
C48_2 C33_2 1_555 1_555
H29_2 C48_2 1_555 1_555
C5_2 C13_2 1_555 1_555
C6_2 C10_2 1_555 1_555
C8_2 C14_2 1_555 1_555
C9_2 C10_2 1_555 1_555
C14_2 C16_2 1_555 1_555
C20_2 C22_2 1_555 1_555
C23_2 C24_3 1_555 1_555
C25_2 C27_3 1_555 1_555
C29_2 C30_2 1_555 1_555
C31_2 C32_2 1_555 1_555
C31_2 C34_2 1_555 1_555
C35_3 C36_3 1_555 1_555
C47_2 C48_2 1_555 1_555
O1_2 C1_3 1_555 1_555
C1_3 C2_3 1_555 1_555
C2_3 C3_3 1_555 1_555
C3_3 H1_3 1_555 1_555
Mn1_2 O6_3 1_555 1_555
O5_3 C1_3 1_555 1_555
O6_3 C17_3 1_555 1_555
N4_4 C18_4 1_555 1_555
N5_4 Mn1_2 1_555 1_555
O7_3 C17_3 1_555 1_555
C7_3 C11_3 1_555 1_555
C11_3 H5_3 1_555 1_555
C17_3 C7_3 1_555 1_555
C18_4 N5_4 1_555 1_555
C19_3 C2_3 1_555 1_555
H8_3 C19_3 1_555 1_555
C24_4 N4_4 1_555 1_555
C27_4 C24_4 1_555 1_555
H14_4 C27_4 1_555 1_555
C28_3 C3_3 1_555 1_555
H15_3 C28_3 1_555 1_555
C35_4 N5_4 1_555 1_555
H22_4 C35_4 1_555 1_555
C36_4 N4_4 1_555 1_555
H23_4 C36_4 1_555 1_555
O13_2 Mn1_2 1_555 1_555
Mn5 O1_2 1_555 1_555
N11_2 Mn1_2 1_555 1_555
C7_3 C28_3 1_555 1_555
C11_3 C19_3 1_555 1_555
C35_4 C36_4 1_555 1_555
N9_4 C59_4 1_555 1_555
N11_2 C59_4 1_555 1_555
C62_4 N9_4 1_555 1_555
C65_4 C62_4 1_555 1_555
H39_4 C65_4 1_555 1_555
C71_4 N11_2 1_555 1_555
H45_4 C71_4 1_555 1_555
C72_4 N9_4 1_555 1_555
H46_4 C72_4 1_555 1_555
C71_4 C72_4 1_555 1_555
C1_4 C2_4 1_555 1_555
C2_4 C3_4 1_555 1_555
C3_4 H1_4 1_555 1_555
Mn5 O6_4 1_555 1_555
O5_4 C1_4 1_555 1_555
O6_4 C17_4 1_555 1_555
O7_4 C17_4 1_555 1_555
C7_4 C11_4 1_555 1_555
C11_4 H5_4 1_555 1_555
C17_4 C7_4 1_555 1_555
C19_4 C2_4 1_555 1_555
H8_4 C19_4 1_555 1_555
C28_4 C3_4 1_555 1_555
H15_4 C28_4 1_555 1_555
C7_4 C28_4 1_555 1_555
C11_4 C19_4 1_555 1_555
C5_3 N2_3 1_555 1_555
C8_3 C5_3 1_555 1_555
H4_3 C8_3 1_555 1_555
C13_3 N1_3 1_555 1_555
C21_3 N1_3 1_555 1_555
H10_3 C21_3 1_555 1_555
C31_3 H18_3 1_555 1_555
C32_3 C13_3 1_555 1_555
H19_3 C32_3 1_555 1_555
C34_3 C21_3 1_555 1_555
H21_3 C34_3 1_555 1_555
H25_3 C40_3 1_555 1_555
C43_3 C40_3 1_555 1_555
H26_3 C43_3 1_555 1_555
H40_3 C66_3 1_555 1_555
H41_3 C67_3 1_555 1_555
C5_3 C13_3 1_555 1_555
C31_3 C32_3 1_555 1_555
C31_3 C34_3 1_555 1_555
C66_3 C67_3 1_555 1_555
Mn2_3 O3_3 1_555 1_555
O3_3 C15_3 1_555 1_555
O4_3 Mn2_3 1_555 1_555
N3_3 Mn2_3 1_555 1_555
C4_3 N3_3 1_555 1_555
H2_3 C4_3 1_555 1_555
O8_3 Mn2_3 1_555 1_555
C9_3 N3_3 1_555 1_555
C15_3 O4_3 1_555 1_555
C20_3 H9_3 1_555 1_555
C22_3 C15_3 1_555 1_555
C26_3 C4_3 1_555 1_555
H13_3 C26_3 1_555 1_555
C33_3 C22_3 1_555 1_555
H20_3 C33_3 1_555 1_555
C37_3 C38_3 1_555 1_555
C38_3 O8_3 1_555 1_555
O11_2 C45_3 1_555 1_555
O12_2 C45_3 1_555 1_555
C45_3 C47_3 1_555 1_555
C46_3 C20_3 1_555 1_555
H28_3 C46_3 1_555 1_555
C47_3 C46_3 1_555 1_555
C48_3 C33_3 1_555 1_555
H29_3 C48_3 1_555 1_555
C55_3 H33_3 1_555 1_555
C57_3 C51_3 1_555 1_555
C58_3 C55_3 1_555 1_555
C61_3 C55_3 1_555 1_555
H36_3 C61_3 1_555 1_555
C63_3 C58_3 1_555 1_555
Mn6_2 O11_2 1_555 1_555
C9_3 C10_3 1_555 1_555
C20_3 C22_3 1_555 1_555
O12_2 Mn6_2 1_555 1_555
C47_3 C48_3 1_555 1_555
C57_3 C58_3 1_555 1_555
C5_4 N2_4 1_555 1_555
C8_4 C5_4 1_555 1_555
H4_4 C8_4 1_555 1_555
C12_3 H6_3 1_555 1_555
C13_4 N1_4 1_555 1_555
C14_3 C6_3 1_555 1_555
C16_3 C12_3 1_555 1_555
C21_4 N1_4 1_555 1_555
H10_4 C21_4 1_555 1_555
C23_3 C12_3 1_555 1_555
H11_3 C23_3 1_555 1_555
C25_3 C16_3 1_555 1_555
C31_4 H18_4 1_555 1_555
C32_4 C13_4 1_555 1_555
H19_4 C32_4 1_555 1_555
C34_4 C21_4 1_555 1_555
H21_4 C34_4 1_555 1_555
H25_4 C40_4 1_555 1_555
O9_4 C42_3 1_555 1_555
O10_3 C42_3 1_555 1_555
C41_3 C42_3 1_555 1_555
C43_4 C40_4 1_555 1_555
H26_4 C43_4 1_555 1_555
Mn6_2 O10_3 1_555 1_555
N8_3 Mn6_2 1_555 1_555
C49_3 N8_3 1_555 1_555
H30_3 C49_3 1_555 1_555
C53_3 N8_3 1_555 1_555
C64_3 C49_3 1_555 1_555
H38_3 C64_3 1_555 1_555
C66_4 C64_3 1_555 1_555
H40_4 C66_4 1_555 1_555
C67_4 C53_3 1_555 1_555
H41_4 C67_4 1_555 1_555
C5_4 C13_4 1_555 1_555
C8_4 C14_3 1_555 1_555
C14_3 C16_3 1_555 1_555
C31_4 C32_4 1_555 1_555
C31_4 C34_4 1_555 1_555
C41_3 C43_4 1_555 1_555
C53_3 C54_3 1_555 1_555
C66_4 C67_4 1_555 1_555
C12_4 H6_4 1_555 1_555
C14_4 C6_4 1_555 1_555
C16_4 C12_4 1_555 1_555
C23_4 C12_4 1_555 1_555
H11_4 C23_4 1_555 1_555
C25_4 C16_4 1_555 1_555
O10_4 C42_4 1_555 1_555
C41_4 C42_4 1_555 1_555
Mn3_2 O10_4 1_555 1_555
N8_4 Mn3_2 1_555 1_555
C49_4 N8_4 1_555 1_555
H30_4 C49_4 1_555 1_555
C53_4 N8_4 1_555 1_555
C64_4 C49_4 1_555 1_555
H38_4 C64_4 1_555 1_555
O14_2 Mn3_2 1_555 1_555
O15_2 Mn3_2 1_555 1_555
C14_4 C16_4 1_555 1_555
C53_4 C54_4 1_555 1_555
O2_3 C38_4 1_555 1_555
Mn2_4 O3_4 1_555 1_555
O3_4 C15_4 1_555 1_555
O4_4 Mn2_4 1_555 1_555
N3_4 Mn2_4 1_555 1_555
C4_4 N3_4 1_555 1_555
H2_4 C4_4 1_555 1_555
O8_4 Mn2_4 1_555 1_555
C9_4 N3_4 1_555 1_555
C15_4 O4_4 1_555 1_555
C20_4 H9_4 1_555 1_555
C22_4 C15_4 1_555 1_555
C26_4 C4_4 1_555 1_555
H13_4 C26_4 1_555 1_555
C29_3 C26_4 1_555 1_555
H16_3 C29_3 1_555 1_555
C30_3 C9_4 1_555 1_555
H17_3 C30_3 1_555 1_555
C33_4 C22_4 1_555 1_555
H20_4 C33_4 1_555 1_555
C37_4 C38_4 1_555 1_555
C38_4 O8_4 1_555 1_555
C39_3 C37_4 1_555 1_555
H24_3 C39_3 1_555 1_555
C44_3 C39_3 1_555 1_555
H27_3 C44_3 1_555 1_555
O14_2 C45_4 1_555 1_555
O15_2 C45_4 1_555 1_555
C45_4 C47_4 1_555 1_555
C46_4 C20_4 1_555 1_555
H28_4 C46_4 1_555 1_555
C47_4 C46_4 1_555 1_555
C48_4 C33_4 1_555 1_555
H29_4 C48_4 1_555 1_555
C50_3 N7_3 1_555 1_555
C52_3 C50_3 1_555 1_555
H32_3 C52_3 1_555 1_555
C55_4 H33_4 1_555 1_555
C56_3 N6_3 1_555 1_555
C57_4 C51_4 1_555 1_555
C58_4 C55_4 1_555 1_555
C60_3 N6_3 1_555 1_555
H35_3 C60_3 1_555 1_555
C61_4 C55_4 1_555 1_555
H36_4 C61_4 1_555 1_555
C63_4 C58_4 1_555 1_555
C68_3 H42_3 1_555 1_555
C69_3 C56_3 1_555 1_555
H43_3 C69_3 1_555 1_555
C70_3 C60_3 1_555 1_555
H44_3 C70_3 1_555 1_555
C9_4 C10_4 1_555 1_555
C20_4 C22_4 1_555 1_555
C29_3 C30_3 1_555 1_555
C47_4 C48_4 1_555 1_555
C50_3 C56_3 1_555 1_555
C52_3 C57_4 1_555 1_555
C57_4 C58_4 1_555 1_555
C68_3 C69_3 1_555 1_555
C68_3 C70_3 1_555 1_555
H16_4 C29_4 1_555 1_555
H17_4 C30_4 1_555 1_555
H24_4 C39_4 1_555 1_555
C44_4 C39_4 1_555 1_555
H27_4 C44_4 1_555 1_555
C50_4 N7_4 1_555 1_555
C52_4 C50_4 1_555 1_555
H32_4 C52_4 1_555 1_555
C56_4 N6_4 1_555 1_555
C60_4 N6_4 1_555 1_555
H35_4 C60_4 1_555 1_555
C68_4 H42_4 1_555 1_555
C69_4 C56_4 1_555 1_555
H43_4 C69_4 1_555 1_555
C70_4 C60_4 1_555 1_555
H44_4 C70_4 1_555 1_555
C29_4 C30_4 1_555 1_555
C50_4 C56_4 1_555 1_555
C68_4 C69_4 1_555 1_555
C68_4 C70_4 1_555 1_555

#END
