
###############################################################################
#
# This file contains modified crystal structure data generated from the
# MOF subset of the Cambridge Structural Database (CSD) v543 
# hosted by the Cambridge Crystallographic Data Centre (CCDC).
#
# This work is licensed under the Creative Commons
# Attribution-NonCommercial-ShareAlike 4.0 International License.
# To view a copy of this license, visit
# http://creativecommons.org/licenses/by-nc-sa/4.0/
# or send a letter to
# Creative Commons, PO Box 1866, Mountain View, CA 94042, USA.
#
# CIF created using the CSD Python API on 29 September 2022
# The structure has been converted into the P1 space group
# The structure has a 3D framework
# The original CSD entry QASYUH is in the monoclinic crystal system
# The framework has been calculated to contain at least 10.0% void space
# The void calculation uses a probe of radius 1.32A, grid spacing 0.4
#
###############################################################################

data_QASYUH
_chemical_formula_moiety         '(C72 H40 N16 O28 Zn14)n'
_symmetry_cell_setting           triclinic
_symmetry_space_group_name_H-M   'P 1'
_symmetry_Int_Tables_number      1
_space_group_name_Hall           'P 1'
loop_
_symmetry_equiv_pos_site_id
_symmetry_equiv_pos_as_xyz
1 x,y,z
_cell_length_a                   20.532(3)
_cell_length_b                   9.1180(15)
_cell_length_c                   16.593(3)
_cell_angle_alpha                90
_cell_angle_beta                 109.109(4)
_cell_angle_gamma                90
_cell_volume                     2935.22
loop_
_atom_site_label
_atom_site_type_symbol
_atom_site_fract_x
_atom_site_fract_y
_atom_site_fract_z
C4 C 0.0988(3) 0.6010(6) 0.0706(3)
H2 H 0.0685 0.6702 0.0792
C5 C 0.1605(3) 0.5661(6) 0.1349(3)
C6 C 0.2050(2) 0.4587(5) 0.1218(3)
C7 C 0.1912(2) 0.3893(5) 0.0437(3)
H3 H 0.2219 0.3218 0.0344
C8 C 0.2460(3) 0.5376(6) 0.2512(3)
C9 C 0.2922(3) 0.5576(7) 0.3418(3)
H4 H 0.3216 0.6425 0.3458
H5 H 0.2647 0.5737 0.3786
N1 N 0.1876(2) 0.6166(5) 0.2177(3)
N2 N 0.2596(2) 0.4427(5) 0.1983(3)
O4 O 0.3328(3) 0.4311(6) 0.3677(3)
Zn5 Zn 0.16166(3) 0.80187(6) 0.26535(3)
Zn6 Zn 0.33834(3) 0.30187(6) 0.23465(3)
C1 C 0.1123(2) 0.3482(6) 0.8961(3)
C2 C 0.1302(2) 0.4239(6) 0.9798(3)
C3 C 0.0850(3) 0.5280(6) 0.9941(3)
H1 H 0.0442 0.5486 0.9503
O1 O 0.0527(2) 0.3698(5) 0.8444(3)
O2 O 0.15759(19) 0.2714(5) 0.8798(2)
O3 O 0.06743(19) 0.1301(5) 0.7201(3)
Zn1 Zn 0.16166(3) 0.19813(6) 0.76535(3)
Zn2 Zn 0.0000 0.24214(10) 0.7500
N6 N 0.1876(2) 0.3834(5) 0.7177(3)
N7 N 0.2404(2) 0.0573(5) 0.8017(3)
O9 O 0.1672(3) 0.0689(6) 0.6323(3)
Zn2_2 Zn 1.0000 0.24214(10) 0.7500
C10 C 0.8877(2) 0.3482(6) 0.6039(3)
C11 C 0.8698(2) 0.4239(6) 0.5202(3)
C12 C 0.9150(3) 0.5280(6) 0.5059(3)
H6 H 0.9558 0.5486 0.5497
C13 C 0.9012(3) 0.6010(6) 0.4294(3)
H7 H 0.9315 0.6702 0.4208
C14 C 0.8395(3) 0.5661(6) 0.3651(3)
C15 C 0.7950(2) 0.4587(5) 0.3782(3)
C16 C 0.8088(2) 0.3893(5) 0.4563(3)
H8 H 0.7781 0.3218 0.4656
C17 C 0.7540(3) 0.5376(6) 0.2488(3)
C18 C 0.7078(3) 0.5576(7) 0.1582(3)
H9 H 0.6784 0.6425 0.1542
H10 H 0.7353 0.5737 0.1214
N3 N 0.8124(2) 0.6166(5) 0.2823(3)
N4 N 0.7404(2) 0.4427(5) 0.3017(3)
O5 O 0.9473(2) 0.3698(5) 0.6556(3)
O6 O 0.84241(19) 0.2714(5) 0.6202(2)
O7 O 0.93257(19) 0.1301(5) 0.7799(3)
O8 O 0.6672(3) 0.4311(6) 0.1323(3)
Zn3 Zn 0.83834(3) 0.19813(6) 0.73465(3)
N5 N 0.8124(2) 0.3834(5) 0.7823(3)
N8 N 0.7596(2) 0.0573(5) 0.6983(3)
O10 O 0.8328(3) 0.0689(6) 0.8677(3)
Zn4 Zn 0.83834(3) 0.80187(6) 0.23465(3)
Zn7 Zn 0.66166(3) 0.30187(6) 0.26535(3)
C4_2 C 0.5988(3) 0.1010(6) 0.0706(3)
H2_2 H 0.5685 0.1702 0.0792
C5_2 C 0.6605(3) 0.0661(6) 0.1349(3)
C8_2 C 0.7460(3) 0.0376(6) 0.2512(3)
C9_2 C 0.7922(3) 0.0576(7) 0.3418(3)
H4_2 H 0.8216 0.1425 0.3458
H5_2 H 0.7647 0.0737 0.3786
N1_2 N 0.6876(2) 0.1166(5) 0.2177(3)
C3_2 C 0.5850(3) 0.0280(6) 0.9941(3)
H1_2 H 0.5442 0.0486 0.9503
C12_2 C 0.4150(3) 0.0280(6) 0.5059(3)
H6_2 H 0.4558 0.0486 0.5497
C13_2 C 0.4012(3) 0.1010(6) 0.4294(3)
H7_2 H 0.4315 0.1702 0.4208
C14_2 C 0.3395(3) 0.0661(6) 0.3651(3)
C17_2 C 0.2540(3) 0.0376(6) 0.2488(3)
C18_2 C 0.2078(3) 0.0576(7) 0.1582(3)
H9_2 H 0.1784 0.1425 0.1542
H10_2 H 0.2353 0.0737 0.1214
N3_2 N 0.3124(2) 0.1166(5) 0.2823(3)
C6_2 C 0.7050(2) 0.9587(5) 0.1218(3)
C7_2 C 0.6912(2) 0.8893(5) 0.0437(3)
H3_2 H 0.7219 0.8218 0.0344
N2_2 N 0.7596(2) 0.9427(5) 0.1983(3)
O4_2 O 0.8328(3) 0.9311(6) 0.3677(3)
C1_2 C 0.6123(2) 0.8482(6) 0.8961(3)
C2_2 C 0.6302(2) 0.9239(6) 0.9798(3)
O1_2 O 0.5527(2) 0.8698(5) 0.8444(3)
O2_2 O 0.65759(19) 0.7714(5) 0.8798(2)
O3_2 O 0.56743(19) 0.6301(5) 0.7201(3)
Zn1_2 Zn 0.66166(3) 0.69813(6) 0.76535(3)
Zn2_3 Zn 0.5000 0.74214(10) 0.7500
C10_2 C 0.3877(2) 0.8482(6) 0.6039(3)
C11_2 C 0.3698(2) 0.9239(6) 0.5202(3)
C15_2 C 0.2950(2) 0.9587(5) 0.3782(3)
C16_2 C 0.3088(2) 0.8893(5) 0.4563(3)
H8_2 H 0.2781 0.8218 0.4656
N4_2 N 0.2404(2) 0.9427(5) 0.3017(3)
O5_2 O 0.4473(2) 0.8698(5) 0.6556(3)
O6_2 O 0.34241(19) 0.7714(5) 0.6202(2)
O7_2 O 0.43257(19) 0.6301(5) 0.7799(3)
O8_2 O 0.1672(3) 0.9311(6) 0.1323(3)
Zn3_2 Zn 0.33834(3) 0.69813(6) 0.73465(3)
N5_2 N 0.3124(2) 0.8834(5) 0.7823(3)
N6_2 N 0.6876(2) 0.8834(5) 0.7177(3)
N7_2 N 0.7404(2) 0.5573(5) 0.8017(3)
N8_2 N 0.2596(2) 0.5573(5) 0.6983(3)
O9_2 O 0.6672(3) 0.5689(6) 0.6323(3)
O10_2 O 0.3328(3) 0.5689(6) 0.8677(3)
Zn2_4 Zn -0.0000 0.75786(10) 0.2500
C10_3 C 0.1123(2) 0.6518(6) 0.3961(3)
C11_3 C 0.1302(2) 0.5761(6) 0.4798(3)
C12_3 C 0.0850(3) 0.4720(6) 0.4941(3)
H6_3 H 0.0442 0.4514 0.4503
C13_3 C 0.0988(3) 0.3990(6) 0.5706(3)
H7_3 H 0.0685 0.3298 0.5792
C14_3 C 0.1605(3) 0.4339(6) 0.6349(3)
C15_3 C 0.2050(2) 0.5413(5) 0.6218(3)
C16_3 C 0.1912(2) 0.6107(5) 0.5437(3)
H8_3 H 0.2219 0.6782 0.5344
C17_3 C 0.2460(3) 0.4624(6) 0.7512(3)
C18_3 C 0.2922(3) 0.4424(7) 0.8418(3)
H9_3 H 0.3216 0.3575 0.8458
H10_3 H 0.2647 0.4263 0.8786
O5_3 O 0.0527(2) 0.6302(5) 0.3444(3)
O6_3 O 0.15759(19) 0.7286(5) 0.3798(2)
O7_3 O 0.06743(19) 0.8699(5) 0.2201(3)
C1_3 C 0.8877(2) 0.6518(6) 0.1039(3)
C2_3 C 0.8698(2) 0.5761(6) 0.0202(3)
C3_3 C 0.9150(3) 0.4720(6) 0.0059(3)
H1_3 H 0.9558 0.4514 0.0497
O1_3 O 0.9473(2) 0.6302(5) 0.1556(3)
O2_3 O 0.84241(19) 0.7286(5) 0.1202(2)
O3_3 O 0.93257(19) 0.8699(5) 0.2799(3)
Zn2_5 Zn 1.0000 0.75786(10) 0.2500
C4_3 C 0.9012(3) 0.3990(6) 0.9294(3)
H2_3 H 0.9315 0.3298 0.9208
C5_3 C 0.8395(3) 0.4339(6) 0.8651(3)
C6_3 C 0.7950(2) 0.5413(5) 0.8782(3)
C7_3 C 0.8088(2) 0.6107(5) 0.9563(3)
H3_3 H 0.7781 0.6782 0.9656
C8_3 C 0.7540(3) 0.4624(6) 0.7488(3)
C9_3 C 0.7078(3) 0.4424(7) 0.6582(3)
H4_3 H 0.6784 0.3575 0.6542
H5_3 H 0.7353 0.4263 0.6214
C1_4 C 0.3877(2) 0.1518(6) 0.1039(3)
C2_4 C 0.3698(2) 0.0761(6) 0.0202(3)
O1_4 O 0.4473(2) 0.1302(5) 0.1556(3)
O2_4 O 0.34241(19) 0.2286(5) 0.1202(2)
O3_4 O 0.43257(19) 0.3699(5) 0.2799(3)
Zn2_6 Zn 0.5000 0.25786(10) 0.2500
C10_4 C 0.6123(2) 0.1518(6) 0.3961(3)
C11_4 C 0.6302(2) 0.0761(6) 0.4798(3)
C15_4 C 0.7050(2) 0.0413(5) 0.6218(3)
C16_4 C 0.6912(2) 0.1107(5) 0.5437(3)
H8_4 H 0.7219 0.1782 0.5344
O5_4 O 0.5527(2) 0.1302(5) 0.3444(3)
O6_4 O 0.65759(19) 0.2286(5) 0.3798(2)
O7_4 O 0.56743(19) 0.3699(5) 0.2201(3)
C6_4 C 0.2950(2) 0.0413(5) 0.8782(3)
C7_4 C 0.3088(2) 0.1107(5) 0.9563(3)
H3_4 H 0.2781 0.1782 0.9656
C3_4 C 0.4150(3) 0.9720(6) 0.0059(3)
H1_4 H 0.4558 0.9514 0.0497
C12_4 C 0.5850(3) 0.9720(6) 0.4941(3)
H6_4 H 0.5442 0.9514 0.4503
C13_4 C 0.5988(3) 0.8990(6) 0.5706(3)
H7_4 H 0.5685 0.8298 0.5792
C14_4 C 0.6605(3) 0.9339(6) 0.6349(3)
C17_4 C 0.7460(3) 0.9624(6) 0.7512(3)
C18_4 C 0.7922(3) 0.9424(7) 0.8418(3)
H9_4 H 0.8216 0.8575 0.8458
H10_4 H 0.7647 0.9263 0.8786
C4_4 C 0.4012(3) 0.8990(6) 0.9294(3)
H2_4 H 0.4315 0.8298 0.9208
C5_4 C 0.3395(3) 0.9339(6) 0.8651(3)
C8_4 C 0.2540(3) 0.9624(6) 0.7488(3)
C9_4 C 0.2078(3) 0.9424(7) 0.6582(3)
H4_4 H 0.1784 0.8575 0.6542
H5_4 H 0.2353 0.9263 0.6214
loop_
_geom_bond_atom_site_label_1
_geom_bond_atom_site_label_2
_geom_bond_site_symmetry_1
_geom_bond_site_symmetry_2
H2 C4 1_555 1_555
C5 C4 1_555 1_555
C6 C5 1_555 1_555
H3 C7 1_555 1_555
C8 C9 1_555 1_555
C9 H4 1_555 1_555
H5 C9 1_555 1_555
N1 C5 1_555 1_555
N2 C6 1_555 1_555
O4 C9 1_555 1_555
Zn5 N1 1_555 1_555
Zn6 N2 1_555 1_555
C6 C7 1_555 1_555
C8 N1 1_555 1_555
C8 N2 1_555 1_555
O4 Zn6 1_555 1_555
C1 C2 1_555 1_555
C2 C3 1_555 1_555
C3 H1 1_555 1_555
O1 C1 1_555 1_555
O2 C1 1_555 1_555
O3 Zn1 1_555 1_555
Zn1 O2 1_555 1_555
Zn2 O1 1_555 1_555
N6 Zn1 1_555 1_555
N7 Zn1 1_555 1_555
O9 Zn1 1_555 1_555
O3 Zn2 1_555 1_555
C10 C11 1_555 1_555
C11 C12 1_555 1_555
C12 H6 1_555 1_555
C13 C12 1_555 1_555
H7 C13 1_555 1_555
C14 C13 1_555 1_555
C15 C14 1_555 1_555
C16 C11 1_555 1_555
H8 C16 1_555 1_555
C17 C18 1_555 1_555
C18 H9 1_555 1_555
H10 C18 1_555 1_555
N3 C14 1_555 1_555
N4 C15 1_555 1_555
O5 Zn2_2 1_555 1_555
O6 C10 1_555 1_555
O7 Zn2_2 1_555 1_555
O8 C18 1_555 1_555
Zn3 O6 1_555 1_555
N5 Zn3 1_555 1_555
N8 Zn3 1_555 1_555
O10 Zn3 1_555 1_555
Zn4 N3 1_555 1_555
Zn7 N4 1_555 1_555
C10 O5 1_555 1_555
C15 C16 1_555 1_555
C17 N3 1_555 1_555
C17 N4 1_555 1_555
O7 Zn3 1_555 1_555
O8 Zn7 1_555 1_555
H2_2 C4_2 1_555 1_555
C5_2 C4_2 1_555 1_555
C8_2 C9_2 1_555 1_555
C9_2 H4_2 1_555 1_555
H5_2 C9_2 1_555 1_555
N1_2 C5_2 1_555 1_555
Zn7 N1_2 1_555 1_555
C8_2 N1_2 1_555 1_555
C3_2 H1_2 1_555 1_555
C12_2 H6_2 1_555 1_555
C13_2 C12_2 1_555 1_555
H7_2 C13_2 1_555 1_555
C14_2 C13_2 1_555 1_555
C17_2 C18_2 1_555 1_555
C18_2 H9_2 1_555 1_555
H10_2 C18_2 1_555 1_555
N3_2 C14_2 1_555 1_555
Zn6 N3_2 1_555 1_555
C17_2 N3_2 1_555 1_555
H3_2 C7_2 1_555 1_555
N2_2 C6_2 1_555 1_555
Zn4 N2_2 1_555 1_555
C6_2 C7_2 1_555 1_555
O4_2 Zn4 1_555 1_555
C1_2 C2_2 1_555 1_555
O1_2 C1_2 1_555 1_555
O2_2 C1_2 1_555 1_555
O3_2 Zn1_2 1_555 1_555
Zn1_2 O2_2 1_555 1_555
Zn2_3 O1_2 1_555 1_555
C10_2 C11_2 1_555 1_555
C16_2 C11_2 1_555 1_555
H8_2 C16_2 1_555 1_555
N4_2 C15_2 1_555 1_555
O5_2 Zn2_3 1_555 1_555
O6_2 C10_2 1_555 1_555
O7_2 Zn2_3 1_555 1_555
Zn3_2 O6_2 1_555 1_555
N5_2 Zn3_2 1_555 1_555
N6_2 Zn1_2 1_555 1_555
N7_2 Zn1_2 1_555 1_555
N8_2 Zn3_2 1_555 1_555
O9_2 Zn1_2 1_555 1_555
O10_2 Zn3_2 1_555 1_555
Zn5 N4_2 1_555 1_555
O3_2 Zn2_3 1_555 1_555
C10_2 O5_2 1_555 1_555
C15_2 C16_2 1_555 1_555
O7_2 Zn3_2 1_555 1_555
O8_2 Zn5 1_555 1_555
C10_3 C11_3 1_555 1_555
C11_3 C12_3 1_555 1_555
C12_3 H6_3 1_555 1_555
C13_3 C12_3 1_555 1_555
H7_3 C13_3 1_555 1_555
C14_3 C13_3 1_555 1_555
C15_3 C14_3 1_555 1_555
C16_3 C11_3 1_555 1_555
H8_3 C16_3 1_555 1_555
C17_3 C18_3 1_555 1_555
C18_3 H9_3 1_555 1_555
H10_3 C18_3 1_555 1_555
N6 C14_3 1_555 1_555
N8_2 C15_3 1_555 1_555
O5_3 Zn2_4 1_555 1_555
O6_3 C10_3 1_555 1_555
O7_3 Zn2_4 1_555 1_555
O10_2 C18_3 1_555 1_555
Zn5 O6_3 1_555 1_555
C10_3 O5_3 1_555 1_555
C15_3 C16_3 1_555 1_555
C17_3 N6 1_555 1_555
C17_3 N8_2 1_555 1_555
O7_3 Zn5 1_555 1_555
C1_3 C2_3 1_555 1_555
C2_3 C3_3 1_555 1_555
C3_3 H1_3 1_555 1_555
O1_3 C1_3 1_555 1_555
O2_3 C1_3 1_555 1_555
O3_3 Zn4 1_555 1_555
Zn4 O2_3 1_555 1_555
Zn2_5 O1_3 1_555 1_555
O3_3 Zn2_5 1_555 1_555
H2_3 C4_3 1_555 1_555
C5_3 C4_3 1_555 1_555
C6_3 C5_3 1_555 1_555
H3_3 C7_3 1_555 1_555
C8_3 C9_3 1_555 1_555
C9_3 H4_3 1_555 1_555
H5_3 C9_3 1_555 1_555
N5 C5_3 1_555 1_555
N7_2 C6_3 1_555 1_555
O9_2 C9_3 1_555 1_555
C6_3 C7_3 1_555 1_555
C8_3 N5 1_555 1_555
C8_3 N7_2 1_555 1_555
C1_4 C2_4 1_555 1_555
O1_4 C1_4 1_555 1_555
O2_4 C1_4 1_555 1_555
O3_4 Zn6 1_555 1_555
Zn6 O2_4 1_555 1_555
Zn2_6 O1_4 1_555 1_555
C10_4 C11_4 1_555 1_555
C16_4 C11_4 1_555 1_555
H8_4 C16_4 1_555 1_555
N8 C15_4 1_555 1_555
O5_4 Zn2_6 1_555 1_555
O6_4 C10_4 1_555 1_555
O7_4 Zn2_6 1_555 1_555
Zn7 O6_4 1_555 1_555
O3_4 Zn2_6 1_555 1_555
C10_4 O5_4 1_555 1_555
C15_4 C16_4 1_555 1_555
O7_4 Zn7 1_555 1_555
H3_4 C7_4 1_555 1_555
N7 C6_4 1_555 1_555
C6_4 C7_4 1_555 1_555
C3_4 H1_4 1_555 1_555
C12_4 H6_4 1_555 1_555
C13_4 C12_4 1_555 1_555
H7_4 C13_4 1_555 1_555
C14_4 C13_4 1_555 1_555
C17_4 C18_4 1_555 1_555
C18_4 H9_4 1_555 1_555
H10_4 C18_4 1_555 1_555
N6_2 C14_4 1_555 1_555
C17_4 N6_2 1_555 1_555
H2_4 C4_4 1_555 1_555
C5_4 C4_4 1_555 1_555
C8_4 C9_4 1_555 1_555
C9_4 H4_4 1_555 1_555
H5_4 C9_4 1_555 1_555
N5_2 C5_4 1_555 1_555
C8_4 N5_2 1_555 1_555

#END
