
###############################################################################
#
# This file contains modified crystal structure data generated from the
# MOF subset of the Cambridge Structural Database (CSD) v543 
# hosted by the Cambridge Crystallographic Data Centre (CCDC).
#
# This work is licensed under the Creative Commons
# Attribution-NonCommercial-ShareAlike 4.0 International License.
# To view a copy of this license, visit
# http://creativecommons.org/licenses/by-nc-sa/4.0/
# or send a letter to
# Creative Commons, PO Box 1866, Mountain View, CA 94042, USA.
#
# CIF created using the CSD Python API on 29 September 2022
# The structure has been converted into the P1 space group
# The structure has a 3D framework
# The original CSD entry QATHOK is in the rhombohedral crystal system
# The framework has been calculated to contain at least 10.0% void space
# The void calculation uses a probe of radius 1.32A, grid spacing 0.4
#
###############################################################################

data_QATHOK
_chemical_formula_moiety         '(C306 H198 Cd18 N54 O62)n'
_symmetry_cell_setting           triclinic
_symmetry_space_group_name_H-M   'P 1'
_symmetry_Int_Tables_number      1
_space_group_name_Hall           'P 1'
loop_
_symmetry_equiv_pos_site_id
_symmetry_equiv_pos_as_xyz
1 x,y,z
_cell_length_a                   29.9118(16)
_cell_length_b                   29.9118(16)
_cell_length_c                   13.7506(15)
_cell_angle_alpha                90
_cell_angle_beta                 90
_cell_angle_gamma                120
_cell_volume                     10654.6
loop_
_atom_site_label
_atom_site_type_symbol
_atom_site_fract_x
_atom_site_fract_y
_atom_site_fract_z
Cd1 Cd 0.39268(2) 0.01307(2) 0.45919(4)
O1 O 0.3574(2) 0.0353(2) 0.3260(4)
O2 O 0.3269(2) 0.0851(2) 0.2719(4)
O3 O 0.4492(2) 0.3969(2) 0.6200(4)
O4 O 0.4824(3) 0.3518(3) 0.6814(6)
N1 N 0.3794(2) 0.0823(2) 0.5020(4)
N2 N 0.3695(2) 0.3114(2) 0.5465(4)
N3 N 0.4769(3) 0.0707(2) 0.4128(5)
C1 C 0.3612(3) 0.0999(3) 0.4321(5)
C2 C 0.3565(3) 0.1424(3) 0.4440(5)
H1 H 0.3423 0.1528 0.3948
C3 C 0.3729(3) 0.1705(3) 0.5310(5)
C4 C 0.3909(3) 0.1520(3) 0.6011(6)
H2 H 0.4016 0.1690 0.6605
C5 C 0.3935(3) 0.1075(3) 0.5843(5)
H3 H 0.4058 0.0952 0.6335
C6 C 0.3473(3) 0.0711(3) 0.3364(5)
C7 C 0.4086(3) 0.3073(3) 0.5898(5)
C8 C 0.4093(3) 0.2621(3) 0.5888(5)
H4 H 0.4357 0.2601 0.6204
C9 C 0.3707(3) 0.2187(3) 0.5414(5)
C10 C 0.3306(3) 0.2227(3) 0.4997(5)
H5 H 0.3034 0.1941 0.4700
C11 C 0.3312(3) 0.2698(3) 0.5023(6)
H6 H 0.3046 0.2723 0.4729
C12 C 0.4488(4) 0.3554(4) 0.6345(6)
C13 C 0.4867(4) 0.1020(3) 0.3376(7)
H7 H 0.4590 0.0988 0.3012
C14 C 0.5363(4) 0.1395(4) 0.3105(8)
H8 H 0.5414 0.1617 0.2589
C15 C 0.5770(4) 0.1431(5) 0.3604(9)
H9 H 0.6105 0.1673 0.3422
C16 C 0.5689(5) 0.1119(5) 0.4353(10)
H10 H 0.5967 0.1138 0.4694
C17 C 0.5168(4) 0.0753(4) 0.4631(7)
H11 H 0.5110 0.0544 0.5173
Cd2 Cd 0.32026(2) 0.04628(3) 0.12586(4)
Cd3 Cd 0.37961(3) 0.39268(2) 0.54081(4)
O5 O 0.4249(3) 0.0064(2) 0.6052(4)
O6 O 0.0523(3) 0.4492(4) 0.3800(4)
N4 N 0.0581(3) 0.3695(4) 0.4535(4)
Cd3_2 Cd 0.60732(2) 0.98693(4) 0.54081(4)
Cd1_2 Cd 0.62039(3) 0.60732(2) 0.45919(4)
O1_2 O 0.6779(3) 0.6426(2) 0.3260(4)
O2_2 O 0.7582(3) 0.6731(2) 0.2719(4)
O3_2 O 0.9477(3) 0.5508(2) 0.6200(4)
O4_2 O 0.8694(4) 0.5176(3) 0.6814(6)
N1_2 N 0.7029(3) 0.6206(2) 0.5020(4)
N2_2 N 0.9419(3) 0.6305(2) 0.5465(4)
N3_2 N 0.5938(4) 0.5231(3) 0.4128(5)
C1_2 C 0.7387(4) 0.6388(3) 0.4321(5)
C2_2 C 0.7859(4) 0.6435(3) 0.4440(5)
H1_2 H 0.8105 0.6577 0.3948
C3_2 C 0.7976(4) 0.6271(3) 0.5310(5)
C4_2 C 0.7611(4) 0.6091(3) 0.6011(6)
H2_2 H 0.7674 0.5984 0.6605
C5_2 C 0.7140(4) 0.6065(3) 0.5843(5)
H3_2 H 0.6894 0.5942 0.6335
C6_2 C 0.7238(4) 0.6527(3) 0.3364(5)
C7_2 C 0.8987(4) 0.5914(3) 0.5898(5)
C8_2 C 0.8528(4) 0.5907(3) 0.5888(5)
H4_2 H 0.8244 0.5643 0.6204
C9_2 C 0.8480(4) 0.6293(3) 0.5414(5)
C10_2 C 0.8921(4) 0.6694(3) 0.4997(5)
H5_2 H 0.8907 0.6966 0.4700
C11_2 C 0.9386(4) 0.6688(3) 0.5023(6)
H6_2 H 0.9677 0.6954 0.4729
C12_2 C 0.9066(6) 0.5512(4) 0.6345(6)
C13_2 C 0.6153(5) 0.5133(4) 0.3376(7)
H7_2 H 0.6398 0.5410 0.3012
C14_2 C 0.6032(6) 0.4637(4) 0.3105(8)
H8_2 H 0.6203 0.4586 0.2589
C15_2 C 0.5661(6) 0.4230(4) 0.3604(9)
H9_2 H 0.5568 0.3895 0.3422
C16_2 C 0.5430(7) 0.4311(5) 0.4353(10)
H10_2 H 0.5171 0.4033 0.4694
C17_2 C 0.5585(6) 0.4832(4) 0.4631(7)
H11_2 H 0.5434 0.4890 0.5173
Cd2_2 Cd 0.72601(4) 0.67974(2) 0.12586(4)
O5_2 O 0.5816(4) 0.5751(3) 0.6052(4)
O6_2 O 0.5508(4) 0.6031(2) 0.3800(4)
N4_2 N 0.6305(4) 0.6886(2) 0.4535(4)
Cd1_3 Cd 0.65360(2) 0.71294(3) 0.79252(4)
O1_3 O 0.6314(2) 0.6554(3) 0.6593(4)
O3_3 O 0.2698(2) 0.3856(3) 0.9533(4)
N1_3 N 0.5844(2) 0.6304(3) 0.8353(4)
N2_3 N 0.3553(2) 0.3914(3) 0.8798(4)
N3_3 N 0.5960(2) 0.7395(4) 0.7461(5)
C1_3 C 0.5668(3) 0.5946(4) 0.7654(5)
C2_3 C 0.5243(3) 0.5474(4) 0.7773(5)
H1_3 H 0.5139 0.5228 0.7281
C3_3 C 0.4962(3) 0.5357(4) 0.8643(5)
C4_3 C 0.5147(3) 0.5722(4) 0.9344(6)
H2_3 H 0.4977 0.5659 0.9938
C5_3 C 0.5592(3) 0.6193(4) 0.9176(5)
H3_3 H 0.5715 0.6439 0.9668
C6_3 C 0.5956(3) 0.6095(4) 0.6697(5)
C7_3 C 0.3594(3) 0.4346(4) 0.9231(5)
C8_3 C 0.4046(3) 0.4805(4) 0.9221(5)
H4_3 H 0.4066 0.5089 0.9537
C9_3 C 0.4480(3) 0.4853(4) 0.8747(5)
C10_3 C 0.4440(3) 0.4412(4) 0.8330(5)
H5_3 H 0.4726 0.4426 0.8033
C11_3 C 0.3969(3) 0.3947(4) 0.8356(6)
H6_3 H 0.3944 0.3656 0.8062
C12_3 C 0.3113(4) 0.4267(6) 0.9678(6)
C13_3 C 0.5647(3) 0.7180(5) 0.6709(7)
H7_3 H 0.5679 0.6935 0.6345
C14_3 C 0.5272(4) 0.7301(6) 0.6438(8)
H8_3 H 0.5050 0.7130 0.5922
C15_3 C 0.5236(5) 0.7672(6) 0.6937(9)
H9_3 H 0.4994 0.7765 0.6755
C16_3 C 0.5548(5) 0.7903(7) 0.7686(10)
H10_3 H 0.5529 0.8162 0.8027
C17_3 C 0.5914(4) 0.7748(6) 0.7964(7)
H11_3 H 0.6123 0.7899 0.8506
Cd3_3 Cd 0.27399(2) 0.32026(4) 0.87414(4)
O5_3 O 0.6602(2) 0.7518(4) 0.9386(4)
O6_3 O 0.7190(3) 0.7825(4) 0.7133(4)
N4_3 N 0.7248(3) 0.7028(4) 0.7868(4)
C10_4 C 0.5588(4) 0.0027(3) 0.8330(5)
H5_4 H 0.5574 0.0299 0.8033
C11_4 C 0.6053(4) 0.0021(3) 0.8356(6)
H6_4 H 0.6344 0.0287 0.8062
N4_4 N 0.2972(4) 0.0219(2) 0.7868(4)
Cd1_4 Cd 0.28706(3) 0.94065(2) 0.79252(4)
O1_4 O 0.3446(3) 0.9759(2) 0.6593(4)
O3_4 O 0.6144(3) 0.8841(2) 0.9533(4)
N1_4 N 0.3696(3) 0.9539(2) 0.8353(4)
N2_4 N 0.6086(3) 0.9638(2) 0.8798(4)
N3_4 N 0.2605(4) 0.8564(3) 0.7461(5)
C1_4 C 0.4054(4) 0.9721(3) 0.7654(5)
C2_4 C 0.4526(4) 0.9768(3) 0.7773(5)
H1_4 H 0.4772 0.9910 0.7281
C3_4 C 0.4643(4) 0.9604(3) 0.8643(5)
C4_4 C 0.4278(4) 0.9424(3) 0.9344(6)
H2_4 H 0.4341 0.9317 0.9938
C5_4 C 0.3807(4) 0.9398(3) 0.9176(5)
H3_4 H 0.3561 0.9275 0.9668
C6_4 C 0.3905(4) 0.9860(3) 0.6697(5)
C7_4 C 0.5654(4) 0.9247(3) 0.9231(5)
C8_4 C 0.5195(4) 0.9240(3) 0.9221(5)
H4_4 H 0.4911 0.8976 0.9537
C9_4 C 0.5147(4) 0.9626(3) 0.8747(5)
C12_4 C 0.5733(6) 0.8845(4) 0.9678(6)
C13_4 C 0.2820(5) 0.8466(4) 0.6709(7)
H7_4 H 0.3065 0.8743 0.6345
C14_4 C 0.2699(6) 0.7970(4) 0.6438(8)
H8_4 H 0.2870 0.7919 0.5922
C15_4 C 0.2328(6) 0.7563(4) 0.6937(9)
H9_4 H 0.2235 0.7228 0.6755
C16_4 C 0.2097(7) 0.7644(5) 0.7686(10)
H10_4 H 0.1838 0.7366 0.8027
C17_4 C 0.2252(6) 0.8165(4) 0.7964(7)
H11_4 H 0.2101 0.8223 0.8506
Cd3_4 Cd 0.67974(4) 0.95372(3) 0.87414(4)
O5_4 O 0.2482(4) 0.9085(3) 0.9386(4)
O6_4 O 0.2175(4) 0.9364(2) 0.7133(4)
O3_5 O 0.7825(2) 0.0636(2) 0.2867(4)
O4_3 O 0.8157(3) 0.0185(3) 0.3481(6)
C12_5 C 0.7821(4) 0.0221(4) 0.3012(6)
Cd3_5 Cd 0.71294(3) 0.05935(2) 0.20748(4)
N1_5 N 0.7127(2) 0.7490(2) 0.1687(4)
N2_5 N 0.7028(2) 0.9781(2) 0.2132(4)
N3_5 N 0.8102(3) 0.7374(2) 0.0795(5)
C1_5 C 0.6945(3) 0.7666(3) 0.0988(5)
C2_5 C 0.6898(3) 0.8091(3) 0.1107(5)
H1_5 H 0.6756 0.8195 0.0615
C3_5 C 0.7062(3) 0.8372(3) 0.1977(5)
C4_5 C 0.7242(3) 0.8187(3) 0.2678(6)
H2_5 H 0.7349 0.8357 0.3272
C5_5 C 0.7268(3) 0.7742(3) 0.2510(5)
H3_5 H 0.7391 0.7619 0.3002
C6_5 C 0.6806(3) 0.7378(3) 0.0031(5)
C7_5 C 0.7419(3) 0.9740(3) 0.2565(5)
C8_5 C 0.7426(3) 0.9288(3) 0.2555(5)
H4_5 H 0.7690 0.9268 0.2871
C9_5 C 0.7040(3) 0.8854(3) 0.2081(5)
C10_5 C 0.6639(3) 0.8894(3) 0.1664(5)
H5_5 H 0.6367 0.8608 0.1367
C11_5 C 0.6645(3) 0.9365(3) 0.1690(6)
H6_5 H 0.6379 0.9390 0.1396
C13_5 C 0.8200(4) 0.7687(3) 0.0043(7)
C15_5 C 0.9103(4) 0.8098(5) 0.0271(9)
H9_5 H 0.9438 0.8340 0.0089
C16_5 C 0.9022(5) 0.7786(5) 0.1020(10)
H10_5 H 0.9300 0.7805 0.1361
C17_5 C 0.8501(4) 0.7420(4) 0.1298(7)
H11_5 H 0.8443 0.7211 0.1840
O6_5 O 0.7302(2) 0.6144(3) 0.0467(4)
N4_5 N 0.6447(2) 0.6086(3) 0.1202(4)
O1_5 O 0.6907(2) 0.7020(2) 0.9927(4)
H7_5 H 0.7923 0.7655 0.9679
C14_5 C 0.8696(4) 0.8062(4) 0.9772(8)
H8_5 H 0.8747 0.8284 0.9256
N3_6 N 0.2626(2) 0.0729(4) 0.0795(5)
C13_6 C 0.2313(3) 0.0514(5) 0.0043(7)
C15_6 C 0.1902(5) 0.1006(6) 0.0271(9)
H9_6 H 0.1660 0.1099 0.0089
C16_6 C 0.2214(5) 0.1237(7) 0.1020(10)
H10_6 H 0.2195 0.1496 0.1361
C17_6 C 0.2580(4) 0.1082(6) 0.1298(7)
H11_6 H 0.2789 0.1233 0.1840
O6_6 O 0.3856(3) 0.1159(4) 0.0467(4)
N4_6 N 0.3914(3) 0.0362(4) 0.1202(4)
O1_6 O 0.2980(2) 0.9888(3) 0.9927(4)
O3_6 O 0.2810(3) 0.2175(2) 0.2867(4)
O4_4 O 0.2027(4) 0.1843(3) 0.3481(6)
N1_6 N 0.0362(3) 0.2873(2) 0.1687(4)
N2_6 N 0.2752(3) 0.2972(2) 0.2132(4)
C1_6 C 0.0720(4) 0.3055(3) 0.0988(5)
C2_6 C 0.1192(4) 0.3102(3) 0.1107(5)
H1_6 H 0.1438 0.3244 0.0615
C3_6 C 0.1309(4) 0.2938(3) 0.1977(5)
C4_6 C 0.0944(4) 0.2758(3) 0.2678(6)
H2_6 H 0.1007 0.2651 0.3272
C5_6 C 0.0473(4) 0.2732(3) 0.2510(5)
H3_6 H 0.0227 0.2609 0.3002
C6_6 C 0.0571(4) 0.3194(3) 0.0031(5)
C7_6 C 0.2320(4) 0.2581(3) 0.2565(5)
C8_6 C 0.1861(4) 0.2574(3) 0.2555(5)
H4_6 H 0.1577 0.2310 0.2871
C9_6 C 0.1813(4) 0.2960(3) 0.2081(5)
C10_6 C 0.2254(4) 0.3361(3) 0.1664(5)
H5_6 H 0.2240 0.3633 0.1367
C11_6 C 0.2719(4) 0.3355(3) 0.1690(6)
H6_6 H 0.3010 0.3621 0.1396
C12_6 C 0.2399(6) 0.2179(4) 0.3012(6)
Cd3_6 Cd 0.34640(4) 0.28706(3) 0.20748(4)
O1_7 O 0.6426(2) 0.9647(2) 0.6740(4)
O2_3 O 0.6731(2) 0.9149(2) 0.7281(4)
O4_5 O 0.5176(3) 0.6482(3) 0.3186(6)
N1_7 N 0.6206(2) 0.9177(2) 0.4980(4)
N3_7 N 0.5231(3) 0.9293(2) 0.5872(5)
C1_7 C 0.6388(3) 0.9001(3) 0.5679(5)
C2_7 C 0.6435(3) 0.8576(3) 0.5560(5)
H1_7 H 0.6577 0.8472 0.6052
C3_7 C 0.6271(3) 0.8295(3) 0.4690(5)
C4_7 C 0.6091(3) 0.8480(3) 0.3989(6)
H2_7 H 0.5984 0.8310 0.3395
C5_7 C 0.6065(3) 0.8925(3) 0.4157(5)
H3_7 H 0.5942 0.9048 0.3665
C6_7 C 0.6527(3) 0.9289(3) 0.6636(5)
C7_7 C 0.5914(3) 0.6927(3) 0.4102(5)
C8_7 C 0.5907(3) 0.7379(3) 0.4112(5)
H4_7 H 0.5643 0.7399 0.3796
C9_7 C 0.6293(3) 0.7813(3) 0.4586(5)
C10_7 C 0.6694(3) 0.7773(3) 0.5003(5)
H5_7 H 0.6966 0.8059 0.5300
C11_7 C 0.6688(3) 0.7302(3) 0.4977(6)
H6_7 H 0.6954 0.7277 0.5271
C12_7 C 0.5512(4) 0.6446(4) 0.3655(6)
C13_7 C 0.5133(4) 0.8980(3) 0.6624(7)
H7_6 H 0.5410 0.9012 0.6988
C14_6 C 0.4637(4) 0.8605(4) 0.6895(8)
H8_6 H 0.4586 0.8383 0.7411
C15_7 C 0.4230(4) 0.8569(5) 0.6396(9)
H9_7 H 0.3895 0.8327 0.6578
C16_7 C 0.4311(5) 0.8881(5) 0.5647(10)
H10_7 H 0.4033 0.8862 0.5306
C17_7 C 0.4832(4) 0.9247(4) 0.5369(7)
H11_7 H 0.4890 0.9456 0.4827
O5_5 O 0.5751(3) 0.9936(2) 0.3948(4)
O1_8 O 0.3221(3) 0.3574(2) 0.6740(4)
O2_4 O 0.2418(3) 0.3269(2) 0.7281(4)
O4_6 O 0.1306(4) 0.4824(3) 0.3186(6)
N1_8 N 0.2971(3) 0.3794(2) 0.4980(4)
N3_8 N 0.4062(4) 0.4769(3) 0.5872(5)
C1_8 C 0.2613(4) 0.3612(3) 0.5679(5)
C2_8 C 0.2141(4) 0.3565(3) 0.5560(5)
H1_8 H 0.1895 0.3423 0.6052
C3_8 C 0.2024(4) 0.3729(3) 0.4690(5)
C4_8 C 0.2389(4) 0.3909(3) 0.3989(6)
H2_8 H 0.2326 0.4016 0.3395
C5_8 C 0.2860(4) 0.3935(3) 0.4157(5)
H3_8 H 0.3106 0.4058 0.3665
C6_8 C 0.2762(4) 0.3473(3) 0.6636(5)
C7_8 C 0.1013(4) 0.4086(3) 0.4102(5)
C8_8 C 0.1472(4) 0.4093(3) 0.4112(5)
H4_8 H 0.1756 0.4357 0.3796
C9_8 C 0.1520(4) 0.3707(3) 0.4586(5)
C10_8 C 0.1079(4) 0.3306(3) 0.5003(5)
H5_8 H 0.1093 0.3034 0.5300
C11_8 C 0.0614(4) 0.3312(3) 0.4977(6)
H6_8 H 0.0323 0.3046 0.5271
C12_8 C 0.0934(6) 0.4488(4) 0.3655(6)
C13_8 C 0.3847(5) 0.4867(4) 0.6624(7)
H7_7 H 0.3602 0.4590 0.6988
C14_7 C 0.3968(6) 0.5363(4) 0.6895(8)
H8_7 H 0.3797 0.5414 0.7411
C15_8 C 0.4339(6) 0.5770(4) 0.6396(9)
H9_8 H 0.4432 0.6105 0.6578
C16_8 C 0.4570(7) 0.5689(5) 0.5647(10)
H10_8 H 0.4829 0.5967 0.5306
C17_8 C 0.4415(6) 0.5168(4) 0.5369(7)
H11_8 H 0.4566 0.5110 0.4827
O5_6 O 0.4184(4) 0.4249(3) 0.3948(4)
O1_9 O 0.3686(2) 0.3446(3) 0.3407(4)
N1_9 N 0.4156(2) 0.3696(3) 0.1647(4)
N3_9 N 0.4040(2) 0.2605(4) 0.2539(5)
C1_9 C 0.4332(3) 0.4054(4) 0.2346(5)
C2_9 C 0.4757(3) 0.4526(4) 0.2227(5)
H1_9 H 0.4861 0.4772 0.2719
C3_9 C 0.5038(3) 0.4643(4) 0.1357(5)
C4_9 C 0.4853(3) 0.4278(4) 0.0656(6)
H2_9 H 0.5023 0.4341 0.0062
C5_9 C 0.4408(3) 0.3807(4) 0.0824(5)
H3_9 H 0.4285 0.3561 0.0332
C6_9 C 0.4044(3) 0.3905(4) 0.3303(5)
C7_9 C 0.6406(3) 0.5654(4) 0.0769(5)
C8_9 C 0.5954(3) 0.5195(4) 0.0779(5)
H4_9 H 0.5934 0.4911 0.0463
C9_9 C 0.5520(3) 0.5147(4) 0.1253(5)
C10_9 C 0.5560(3) 0.5588(4) 0.1670(5)
H5_9 H 0.5274 0.5574 0.1967
C11_9 C 0.6031(3) 0.6053(4) 0.1644(6)
H6_9 H 0.6056 0.6344 0.1938
C12_9 C 0.6887(4) 0.5733(6) 0.0322(6)
C13_9 C 0.4353(3) 0.2820(5) 0.3291(7)
H7_8 H 0.4321 0.3065 0.3655
C14_8 C 0.4728(4) 0.2699(6) 0.3562(8)
H8_8 H 0.4950 0.2870 0.4078
C15_9 C 0.4764(5) 0.2328(6) 0.3063(9)
H9_9 H 0.5006 0.2235 0.3245
C16_9 C 0.4452(5) 0.2097(7) 0.2314(10)
H10_9 H 0.4471 0.1838 0.1973
C17_9 C 0.4086(4) 0.2252(6) 0.2036(7)
H11_9 H 0.3877 0.2101 0.1494
O5_7 O 0.3398(2) 0.2482(4) 0.0614(4)
O1_10 O 0.6554(3) 0.0241(2) 0.3407(4)
N1_10 N 0.6304(3) 0.0461(2) 0.1647(4)
N3_10 N 0.7395(4) 0.1436(3) 0.2539(5)
C1_10 C 0.5946(4) 0.0279(3) 0.2346(5)
C2_10 C 0.5474(4) 0.0232(3) 0.2227(5)
H1_10 H 0.5228 0.0090 0.2719
C3_10 C 0.5357(4) 0.0396(3) 0.1357(5)
C4_10 C 0.5722(4) 0.0576(3) 0.0656(6)
H2_10 H 0.5659 0.0683 0.0062
C5_10 C 0.6193(4) 0.0602(3) 0.0824(5)
H3_10 H 0.6439 0.0725 0.0332
C6_10 C 0.6095(4) 0.0140(3) 0.3303(5)
C7_10 C 0.4346(4) 0.0753(3) 0.0769(5)
C8_10 C 0.4805(4) 0.0760(3) 0.0779(5)
H4_10 H 0.5089 0.1024 0.0463
C9_10 C 0.4853(4) 0.0374(3) 0.1253(5)
C12_10 C 0.4267(6) 0.1155(4) 0.0322(6)
C13_10 C 0.7180(5) 0.1534(4) 0.3291(7)
H7_9 H 0.6935 0.1257 0.3655
C14_9 C 0.7301(6) 0.2030(4) 0.3562(8)
H8_9 H 0.7130 0.2081 0.4078
C15_10 C 0.7672(6) 0.2437(4) 0.3063(9)
H9_10 H 0.7765 0.2772 0.3245
C16_10 C 0.7903(7) 0.2356(5) 0.2314(10)
H10_10 H 0.8162 0.2634 0.1973
C17_10 C 0.7748(6) 0.1835(4) 0.2036(7)
H11_10 H 0.7899 0.1777 0.1494
O5_8 O 0.7518(4) 0.0915(3) 0.0614(4)
C10_10 C 0.4412(4) 0.9973(3) 0.1670(5)
H5_10 H 0.4426 0.9701 0.1967
C11_10 C 0.3947(4) 0.9979(3) 0.1644(6)
H6_10 H 0.3656 0.9713 0.1938
O1_11 O 0.3093(2) 0.2980(2) 0.0073(4)
H7_10 H 0.2077 0.2345 0.0321
C14_10 C 0.1304(4) 0.1938(4) 0.0228(8)
H8_10 H 0.1253 0.1716 0.0744
N1_11 N 0.2873(2) 0.2510(2) 0.8313(4)
N3_11 N 0.1898(3) 0.2626(2) 0.9205(5)
C1_11 C 0.3055(3) 0.2334(3) 0.9012(5)
C2_11 C 0.3102(3) 0.1909(3) 0.8893(5)
H1_11 H 0.3244 0.1805 0.9385
C3_11 C 0.2938(3) 0.1628(3) 0.8023(5)
C4_11 C 0.2758(3) 0.1813(3) 0.7322(6)
H2_11 H 0.2651 0.1643 0.6728
C5_11 C 0.2732(3) 0.2258(3) 0.7490(5)
H3_11 H 0.2609 0.2381 0.6998
C6_11 C 0.3194(3) 0.2622(3) 0.9969(5)
C7_11 C 0.2581(3) 0.0260(3) 0.7435(5)
C8_11 C 0.2574(3) 0.0712(3) 0.7445(5)
H4_11 H 0.2310 0.0732 0.7129
C9_11 C 0.2960(3) 0.1146(3) 0.7919(5)
C10_11 C 0.3361(3) 0.1106(3) 0.8336(5)
H5_11 H 0.3633 0.1392 0.8633
C11_11 C 0.3355(3) 0.0635(3) 0.8310(6)
H6_11 H 0.3621 0.0610 0.8604
C13_11 C 0.1800(4) 0.2313(3) 0.9957(7)
C15_11 C 0.0897(4) 0.1902(5) 0.9729(9)
H9_11 H 0.0562 0.1660 0.9911
C16_11 C 0.0978(5) 0.2214(5) 0.8980(10)
H10_11 H 0.0700 0.2195 0.8639
C17_11 C 0.1499(4) 0.2580(4) 0.8702(7)
H11_11 H 0.1557 0.2789 0.8160
O4_7 O 0.1843(3) 0.9815(3) 0.6519(6)
C12_11 C 0.2179(4) 0.9779(4) 0.6988(6)
O1_12 O 0.7020(2) 0.0112(3) 0.0073(4)
N3_12 N 0.7374(2) 0.9271(4) 0.9205(5)
C13_12 C 0.7687(3) 0.9486(5) 0.9957(7)
C15_12 C 0.8098(5) 0.8994(6) 0.9729(9)
H9_12 H 0.8340 0.8901 0.9911
C16_12 C 0.7786(5) 0.8763(7) 0.8980(10)
H10_12 H 0.7805 0.8504 0.8639
C17_12 C 0.7420(4) 0.8918(6) 0.8702(7)
H11_12 H 0.7211 0.8767 0.8160
O4_8 O 0.7973(4) 0.8157(3) 0.6519(6)
N1_12 N 0.9638(3) 0.7127(2) 0.8313(4)
C1_12 C 0.9280(4) 0.6945(3) 0.9012(5)
C2_12 C 0.8808(4) 0.6898(3) 0.8893(5)
H1_12 H 0.8562 0.6756 0.9385
C3_12 C 0.8691(4) 0.7062(3) 0.8023(5)
C4_12 C 0.9056(4) 0.7242(3) 0.7322(6)
H2_12 H 0.8993 0.7349 0.6728
C5_12 C 0.9527(4) 0.7268(3) 0.7490(5)
H3_12 H 0.9773 0.7391 0.6998
C6_12 C 0.9429(4) 0.6806(3) 0.9969(5)
C7_12 C 0.7680(4) 0.7419(3) 0.7435(5)
C8_12 C 0.8139(4) 0.7426(3) 0.7445(5)
H4_12 H 0.8423 0.7690 0.7129
C9_12 C 0.8187(4) 0.7040(3) 0.7919(5)
C10_12 C 0.7746(4) 0.6639(3) 0.8336(5)
H5_12 H 0.7760 0.6367 0.8633
C11_12 C 0.7281(4) 0.6645(3) 0.8310(6)
H6_12 H 0.6990 0.6379 0.8604
C12_12 C 0.7601(6) 0.7821(4) 0.6988(6)
O6_7 O 0.3969(2) 0.9477(3) 0.3800(4)
N4_7 N 0.3114(2) 0.9419(3) 0.4535(4)
Cd3_7 Cd 0.01307(4) 0.62039(3) 0.54081(4)
Cd1_5 Cd 0.05935(2) 0.34640(2) 0.79252(4)
O1_13 O 0.0241(2) 0.3686(2) 0.6593(4)
O3_7 O 0.1159(2) 0.7302(2) 0.9533(4)
N1_13 N 0.0461(2) 0.4156(2) 0.8353(4)
N2_7 N 0.0362(2) 0.6447(2) 0.8798(4)
N3_13 N 0.1436(3) 0.4040(2) 0.7461(5)
C1_13 C 0.0279(3) 0.4332(3) 0.7654(5)
C2_13 C 0.0232(3) 0.4757(3) 0.7773(5)
H1_13 H 0.0090 0.4861 0.7281
C3_13 C 0.0396(3) 0.5038(3) 0.8643(5)
C4_13 C 0.0576(3) 0.4853(3) 0.9344(6)
H2_13 H 0.0683 0.5023 0.9938
C5_13 C 0.0602(3) 0.4408(3) 0.9176(5)
H3_13 H 0.0725 0.4285 0.9668
C6_13 C 0.0140(3) 0.4044(3) 0.6697(5)
C7_13 C 0.0753(3) 0.6406(3) 0.9231(5)
C8_13 C 0.0760(3) 0.5954(3) 0.9221(5)
H4_13 H 0.1024 0.5934 0.9537
C9_13 C 0.0374(3) 0.5520(3) 0.8747(5)
C12_13 C 0.1155(4) 0.6887(4) 0.9678(6)
C13_13 C 0.1534(4) 0.4353(3) 0.6709(7)
H7_11 H 0.1257 0.4321 0.6345
C14_11 C 0.2030(4) 0.4728(4) 0.6438(8)
H8_11 H 0.2081 0.4950 0.5922
C15_13 C 0.2437(4) 0.4764(5) 0.6937(9)
H9_13 H 0.2772 0.5006 0.6755
C16_13 C 0.2356(5) 0.4452(5) 0.7686(10)
H10_13 H 0.2634 0.4471 0.8027
C17_13 C 0.1835(4) 0.4086(4) 0.7964(7)
H11_13 H 0.1777 0.3877 0.8506
Cd3_8 Cd 0.04628(3) 0.72601(2) 0.87414(4)
O5_9 O 0.0915(3) 0.3398(2) 0.9386(4)
O6_8 O 0.0636(2) 0.2810(3) 0.7133(4)
N1_14 N 0.2510(2) 0.9638(3) 0.1687(4)
N2_8 N 0.0219(2) 0.7248(3) 0.2132(4)
C1_14 C 0.2334(3) 0.9280(4) 0.0988(5)
C2_14 C 0.1909(3) 0.8808(4) 0.1107(5)
H1_14 H 0.1805 0.8562 0.0615
C3_14 C 0.1628(3) 0.8691(4) 0.1977(5)
C4_14 C 0.1813(3) 0.9056(4) 0.2678(6)
H2_14 H 0.1643 0.8993 0.3272
C5_14 C 0.2258(3) 0.9527(4) 0.2510(5)
H3_14 H 0.2381 0.9773 0.3002
C6_14 C 0.2622(3) 0.9429(4) 0.0031(5)
C7_14 C 0.0260(3) 0.7680(4) 0.2565(5)
C8_14 C 0.0712(3) 0.8139(4) 0.2555(5)
H4_14 H 0.0732 0.8423 0.2871
C9_14 C 0.1146(3) 0.8187(4) 0.2081(5)
C10_13 C 0.1106(3) 0.7746(4) 0.1664(5)
H5_13 H 0.1392 0.7760 0.1367
C11_13 C 0.0635(3) 0.7281(4) 0.1690(6)
H6_13 H 0.0610 0.6990 0.1396
O1_14 O 0.0112(3) 0.3093(2) 0.9927(4)
O1_15 O 0.0353(2) 0.6779(3) 0.6740(4)
O2_5 O 0.0851(2) 0.7582(3) 0.7281(4)
O4_9 O 0.3518(3) 0.8694(4) 0.3186(6)
N1_15 N 0.0823(2) 0.7029(3) 0.4980(4)
N3_14 N 0.0707(2) 0.5938(4) 0.5872(5)
C1_15 C 0.0999(3) 0.7387(4) 0.5679(5)
C2_15 C 0.1424(3) 0.7859(4) 0.5560(5)
H1_15 H 0.1528 0.8105 0.6052
C3_15 C 0.1705(3) 0.7976(4) 0.4690(5)
C4_15 C 0.1520(3) 0.7611(4) 0.3989(6)
H2_15 H 0.1690 0.7674 0.3395
C5_15 C 0.1075(3) 0.7140(4) 0.4157(5)
H3_15 H 0.0952 0.6894 0.3665
C6_15 C 0.0711(3) 0.7238(4) 0.6636(5)
C7_15 C 0.3073(3) 0.8987(4) 0.4102(5)
C8_15 C 0.2621(3) 0.8528(4) 0.4112(5)
H4_15 H 0.2601 0.8244 0.3796
C9_15 C 0.2187(3) 0.8480(4) 0.4586(5)
C10_14 C 0.2227(3) 0.8921(4) 0.5003(5)
H5_14 H 0.1941 0.8907 0.5300
C11_14 C 0.2698(3) 0.9386(4) 0.4977(6)
H6_14 H 0.2723 0.9677 0.5271
C12_14 C 0.3554(4) 0.9066(6) 0.3655(6)
C13_14 C 0.1020(3) 0.6153(5) 0.6624(7)
H7_12 H 0.0988 0.6398 0.6988
C14_12 C 0.1395(4) 0.6032(6) 0.6895(8)
H8_12 H 0.1617 0.6203 0.7411
C15_14 C 0.1431(5) 0.5661(6) 0.6396(9)
H9_14 H 0.1673 0.5568 0.6578
C16_14 C 0.1119(5) 0.5430(7) 0.5647(10)
H10_14 H 0.1138 0.5171 0.5306
C17_14 C 0.0753(4) 0.5585(6) 0.5369(7)
H11_14 H 0.0544 0.5434 0.4827
O5_10 O 0.0064(2) 0.5816(4) 0.3948(4)
C10_15 C 0.0027(3) 0.4440(3) 0.1670(5)
H5_15 H 0.0299 0.4726 0.1967
C11_15 C 0.0021(3) 0.3969(3) 0.1644(6)
H6_15 H 0.0287 0.3944 0.1938
O4_10 O 0.0185(3) 0.2027(4) 0.6519(6)
C12_15 C 0.0221(4) 0.2399(6) 0.6988(6)
N3_15 N 0.0729(4) 0.8102(3) 0.9205(5)
C13_15 C 0.0514(5) 0.8200(4) 0.9957(7)
C15_15 C 0.1006(6) 0.9103(4) 0.9729(9)
H9_15 H 0.1099 0.9438 0.9911
C16_15 C 0.1237(7) 0.9022(5) 0.8980(10)
H10_15 H 0.1496 0.9300 0.8639
C17_15 C 0.1082(6) 0.8501(4) 0.8702(7)
H11_15 H 0.1233 0.8443 0.8160
Cd1_6 Cd 0.98693(2) 0.37961(3) 0.45919(4)
O1_16 O 0.9647(2) 0.3221(3) 0.3260(4)
O2_6 O 0.9149(2) 0.2418(3) 0.2719(4)
O3_8 O 0.6031(2) 0.0523(3) 0.6200(4)
O4_11 O 0.6482(3) 0.1306(4) 0.6814(6)
N1_16 N 0.9177(2) 0.2971(3) 0.5020(4)
N2_9 N 0.6886(2) 0.0581(3) 0.5465(4)
N3_16 N 0.9293(2) 0.4062(4) 0.4128(5)
C1_16 C 0.9001(3) 0.2613(4) 0.4321(5)
C2_16 C 0.8576(3) 0.2141(4) 0.4440(5)
H1_16 H 0.8472 0.1895 0.3948
C3_16 C 0.8295(3) 0.2024(4) 0.5310(5)
C4_16 C 0.8480(3) 0.2389(4) 0.6011(6)
H2_16 H 0.8310 0.2326 0.6605
C5_16 C 0.8925(3) 0.2860(4) 0.5843(5)
H3_16 H 0.9048 0.3106 0.6335
C6_16 C 0.9289(3) 0.2762(4) 0.3364(5)
C7_16 C 0.6927(3) 0.1013(4) 0.5898(5)
C8_16 C 0.7379(3) 0.1472(4) 0.5888(5)
H4_16 H 0.7399 0.1756 0.6204
C9_16 C 0.7813(3) 0.1520(4) 0.5414(5)
C10_16 C 0.7773(3) 0.1079(4) 0.4997(5)
H5_16 H 0.8059 0.1093 0.4700
C11_16 C 0.7302(3) 0.0614(4) 0.5023(6)
H6_16 H 0.7277 0.0323 0.4729
C12_16 C 0.6446(4) 0.0934(6) 0.6345(6)
C13_16 C 0.8980(3) 0.3847(5) 0.3376(7)
H7_13 H 0.9012 0.3602 0.3012
C14_13 C 0.8605(4) 0.3968(6) 0.3105(8)
H8_13 H 0.8383 0.3797 0.2589
C15_16 C 0.8569(5) 0.4339(6) 0.3604(9)
H9_16 H 0.8327 0.4432 0.3422
C16_16 C 0.8881(5) 0.4570(7) 0.4353(10)
H10_16 H 0.8862 0.4829 0.4694
C17_16 C 0.9247(4) 0.4415(6) 0.4631(7)
H11_16 H 0.9456 0.4566 0.5173
Cd2_3 Cd 0.95372(3) 0.27399(4) 0.12586(4)
O5_11 O 0.9936(2) 0.4184(4) 0.6052(4)
C10_17 C 0.9973(3) 0.5560(3) 0.8330(5)
H5_17 H 0.9701 0.5274 0.8033
C11_17 C 0.9979(3) 0.6031(3) 0.8356(6)
H6_17 H 0.9713 0.6056 0.8062
N4_8 N 0.9781(2) 0.2752(3) 0.7868(4)
O3_9 O 0.9364(2) 0.7190(3) 0.2867(4)
O4_12 O 0.9815(3) 0.7973(4) 0.3481(6)
C12_17 C 0.9779(4) 0.7601(6) 0.3012(6)
Cd3_9 Cd 0.94065(2) 0.65360(4) 0.20748(4)
N3_17 N 0.9271(4) 0.1898(3) 0.0795(5)
C13_17 C 0.9486(5) 0.1800(4) 0.0043(7)
C15_17 C 0.8994(6) 0.0897(4) 0.0271(9)
H9_17 H 0.8901 0.0562 0.0089
C16_17 C 0.8763(7) 0.0978(5) 0.1020(10)
H10_17 H 0.8504 0.0700 0.1361
C17_17 C 0.8918(6) 0.1499(4) 0.1298(7)
H11_17 H 0.8767 0.1557 0.1840
O6_9 O 0.8841(4) 0.2698(2) 0.0467(4)
N4_9 N 0.9638(4) 0.3553(2) 0.1202(4)
O1_17 O 0.9759(2) 0.6314(2) 0.3407(4)
N1_17 N 0.9539(2) 0.5844(2) 0.1647(4)
N3_18 N 0.8564(3) 0.5960(2) 0.2539(5)
C1_17 C 0.9721(3) 0.5668(3) 0.2346(5)
C2_17 C 0.9768(3) 0.5243(3) 0.2227(5)
H1_17 H 0.9910 0.5139 0.2719
C3_17 C 0.9604(3) 0.4962(3) 0.1357(5)
C4_17 C 0.9424(3) 0.5147(3) 0.0656(6)
H2_17 H 0.9317 0.4977 0.0062
C5_17 C 0.9398(3) 0.5592(3) 0.0824(5)
H3_17 H 0.9275 0.5715 0.0332
C6_17 C 0.9860(3) 0.5956(3) 0.3303(5)
C7_17 C 0.9247(3) 0.3594(3) 0.0769(5)
C8_17 C 0.9240(3) 0.4046(3) 0.0779(5)
H4_17 H 0.8976 0.4066 0.0463
C9_17 C 0.9626(3) 0.4480(3) 0.1253(5)
C12_18 C 0.8845(4) 0.3113(4) 0.0322(6)
C13_18 C 0.8466(4) 0.5647(3) 0.3291(7)
H7_14 H 0.8743 0.5679 0.3655
C14_14 C 0.7970(4) 0.5272(4) 0.3562(8)
H8_14 H 0.7919 0.5050 0.4078
C15_18 C 0.7563(4) 0.5236(5) 0.3063(9)
H9_18 H 0.7228 0.4994 0.3245
C16_18 C 0.7644(5) 0.5548(5) 0.2314(10)
H10_18 H 0.7366 0.5529 0.1973
C17_18 C 0.8165(4) 0.5914(4) 0.2036(7)
H11_18 H 0.8223 0.6123 0.1494
O5_12 O 0.9085(3) 0.6602(2) 0.0614(4)
N1_18 N 0.7490(2) 0.0362(3) 0.8313(4)
C1_18 C 0.7666(3) 0.0720(4) 0.9012(5)
C2_18 C 0.8091(3) 0.1192(4) 0.8893(5)
H1_18 H 0.8195 0.1438 0.9385
C3_18 C 0.8372(3) 0.1309(4) 0.8023(5)
C4_18 C 0.8187(3) 0.0944(4) 0.7322(6)
H2_18 H 0.8357 0.1007 0.6728
C5_18 C 0.7742(3) 0.0473(4) 0.7490(5)
H3_18 H 0.7619 0.0227 0.6998
C6_18 C 0.7378(3) 0.0571(4) 0.9969(5)
C7_18 C 0.9740(3) 0.2320(4) 0.7435(5)
C8_18 C 0.9288(3) 0.1861(4) 0.7445(5)
H4_18 H 0.9268 0.1577 0.7129
C9_18 C 0.8854(3) 0.1813(4) 0.7919(5)
C10_18 C 0.8894(3) 0.2254(4) 0.8336(5)
H5_18 H 0.8608 0.2240 0.8633
C11_18 C 0.9365(3) 0.2719(4) 0.8310(6)
H6_18 H 0.9390 0.3010 0.8604
O1_18 O 0.9888(3) 0.6907(2) 0.0073(4)
O4_13 O 0.1491(3) 0.6851(3) 0.0147(6)
O4_14 O 0.3149(3) 0.4639(4) 0.0147(6)
O4_15 O 0.5361(4) 0.8509(3) 0.0147(6)
H7_15 H 0.2345 0.0269 0.9679
C14_15 C 0.1938(4) 0.0635(6) 0.9772(8)
H8_15 H 0.1716 0.0464 0.9256
H7_16 H 0.9731 0.2077 0.9679
C14_16 C 0.9365(6) 0.1304(4) 0.9772(8)
H8_16 H 0.9536 0.1253 0.9256
O4_16 O 0.8509(3) 0.3149(3) 0.9853(6)
O4_17 O 0.6851(3) 0.5361(4) 0.9853(6)
O4_18 O 0.4639(4) 0.1491(3) 0.9853(6)
H7_17 H 0.7655 0.9731 0.0321
C14_17 C 0.8062(4) 0.9365(6) 0.0228(8)
H8_17 H 0.8284 0.9536 0.0744
H7_18 H 0.0269 0.7923 0.0321
C14_18 C 0.0635(6) 0.8696(4) 0.0228(8)
H8_18 H 0.0464 0.8747 0.0744
loop_
_geom_bond_atom_site_label_1
_geom_bond_atom_site_label_2
_geom_bond_site_symmetry_1
_geom_bond_site_symmetry_2
Cd1 O1 1_555 1_555
O1 C6 1_555 1_555
O2 C6 1_555 1_555
O3 C12 1_555 1_555
O4 C12 1_555 1_555
N1 Cd1 1_555 1_555
N2 C7 1_555 1_555
N3 Cd1 1_555 1_555
C1 N1 1_555 1_555
C2 C1 1_555 1_555
H1 C2 1_555 1_555
C3 C2 1_555 1_555
C4 C3 1_555 1_555
H2 C4 1_555 1_555
C5 N1 1_555 1_555
H3 C5 1_555 1_555
C6 C1 1_555 1_555
C7 C8 1_555 1_555
C8 H4 1_555 1_555
C9 C3 1_555 1_555
C10 C9 1_555 1_555
H5 C10 1_555 1_555
C11 N2 1_555 1_555
H6 C11 1_555 1_555
C12 C7 1_555 1_555
C13 N3 1_555 1_555
H7 C13 1_555 1_555
C14 C13 1_555 1_555
H8 C14 1_555 1_555
C15 C14 1_555 1_555
H9 C15 1_555 1_555
C16 C15 1_555 1_555
H10 C16 1_555 1_555
C17 N3 1_555 1_555
H11 C17 1_555 1_555
Cd2 O2 1_555 1_555
Cd3 O3 1_555 1_555
O5 Cd1 1_555 1_555
N2 Cd3 1_555 1_555
C4 C5 1_555 1_555
C8 C9 1_555 1_555
C10 C11 1_555 1_555
C16 C17 1_555 1_555
Cd1_2 O1_2 1_555 1_555
O1_2 C6_2 1_555 1_555
O2_2 C6_2 1_555 1_555
O3_2 C12_2 1_555 1_555
O4_2 C12_2 1_555 1_555
N1_2 Cd1_2 1_555 1_555
N2_2 C7_2 1_555 1_555
N3_2 Cd1_2 1_555 1_555
C1_2 N1_2 1_555 1_555
C2_2 C1_2 1_555 1_555
H1_2 C2_2 1_555 1_555
C3_2 C2_2 1_555 1_555
C4_2 C3_2 1_555 1_555
H2_2 C4_2 1_555 1_555
C5_2 N1_2 1_555 1_555
H3_2 C5_2 1_555 1_555
C6_2 C1_2 1_555 1_555
C7_2 C8_2 1_555 1_555
C8_2 H4_2 1_555 1_555
C9_2 C3_2 1_555 1_555
C10_2 C9_2 1_555 1_555
H5_2 C10_2 1_555 1_555
C11_2 N2_2 1_555 1_555
H6_2 C11_2 1_555 1_555
C12_2 C7_2 1_555 1_555
C13_2 N3_2 1_555 1_555
H7_2 C13_2 1_555 1_555
C14_2 C13_2 1_555 1_555
H8_2 C14_2 1_555 1_555
C15_2 C14_2 1_555 1_555
H9_2 C15_2 1_555 1_555
C16_2 C15_2 1_555 1_555
H10_2 C16_2 1_555 1_555
C17_2 N3_2 1_555 1_555
H11_2 C17_2 1_555 1_555
Cd2_2 O2_2 1_555 1_555
O5_2 Cd1_2 1_555 1_555
O6_2 Cd1_2 1_555 1_555
N4_2 Cd1_2 1_555 1_555
C4_2 C5_2 1_555 1_555
C8_2 C9_2 1_555 1_555
C10_2 C11_2 1_555 1_555
C16_2 C17_2 1_555 1_555
Cd1_3 O1_3 1_555 1_555
O1_3 C6_3 1_555 1_555
O5_2 C6_3 1_555 1_555
O3_3 C12_3 1_555 1_555
N1_3 Cd1_3 1_555 1_555
N2_3 C7_3 1_555 1_555
N3_3 Cd1_3 1_555 1_555
C1_3 N1_3 1_555 1_555
C2_3 C1_3 1_555 1_555
H1_3 C2_3 1_555 1_555
C3_3 C2_3 1_555 1_555
C4_3 C3_3 1_555 1_555
H2_3 C4_3 1_555 1_555
C5_3 N1_3 1_555 1_555
H3_3 C5_3 1_555 1_555
C6_3 C1_3 1_555 1_555
C7_3 C8_3 1_555 1_555
C8_3 H4_3 1_555 1_555
C9_3 C3_3 1_555 1_555
C10_3 C9_3 1_555 1_555
H5_3 C10_3 1_555 1_555
C11_3 N2_3 1_555 1_555
H6_3 C11_3 1_555 1_555
C12_3 C7_3 1_555 1_555
C13_3 N3_3 1_555 1_555
H7_3 C13_3 1_555 1_555
C14_3 C13_3 1_555 1_555
H8_3 C14_3 1_555 1_555
C15_3 C14_3 1_555 1_555
H9_3 C15_3 1_555 1_555
C16_3 C15_3 1_555 1_555
H10_3 C16_3 1_555 1_555
C17_3 N3_3 1_555 1_555
H11_3 C17_3 1_555 1_555
Cd3_3 O3_3 1_555 1_555
O5_3 Cd1_3 1_555 1_555
O6_3 Cd1_3 1_555 1_555
N4_3 Cd1_3 1_555 1_555
N2_3 Cd3_3 1_555 1_555
C4_3 C5_3 1_555 1_555
C8_3 C9_3 1_555 1_555
C10_3 C11_3 1_555 1_555
C16_3 C17_3 1_555 1_555
H5_4 C10_4 1_555 1_555
H6_4 C11_4 1_555 1_555
C10_4 C11_4 1_555 1_555
Cd1_4 O1_4 1_555 1_555
O1_4 C6_4 1_555 1_555
O3_4 C12_4 1_555 1_555
N1_4 Cd1_4 1_555 1_555
N2_4 C7_4 1_555 1_555
N3_4 Cd1_4 1_555 1_555
C1_4 N1_4 1_555 1_555
C2_4 C1_4 1_555 1_555
H1_4 C2_4 1_555 1_555
C3_4 C2_4 1_555 1_555
C4_4 C3_4 1_555 1_555
H2_4 C4_4 1_555 1_555
C5_4 N1_4 1_555 1_555
H3_4 C5_4 1_555 1_555
C6_4 C1_4 1_555 1_555
C7_4 C8_4 1_555 1_555
C8_4 H4_4 1_555 1_555
C9_4 C3_4 1_555 1_555
C12_4 C7_4 1_555 1_555
C13_4 N3_4 1_555 1_555
H7_4 C13_4 1_555 1_555
C14_4 C13_4 1_555 1_555
H8_4 C14_4 1_555 1_555
C15_4 C14_4 1_555 1_555
H9_4 C15_4 1_555 1_555
C16_4 C15_4 1_555 1_555
H10_4 C16_4 1_555 1_555
C17_4 N3_4 1_555 1_555
H11_4 C17_4 1_555 1_555
Cd3_4 O3_4 1_555 1_555
O5_4 Cd1_4 1_555 1_555
O6_4 Cd1_4 1_555 1_555
N2_4 Cd3_4 1_555 1_555
C4_4 C5_4 1_555 1_555
C8_4 C9_4 1_555 1_555
C16_4 C17_4 1_555 1_555
O3_5 C12_5 1_555 1_555
O4_3 C12_5 1_555 1_555
Cd3_5 O3_5 1_555 1_555
N1_5 Cd2_2 1_555 1_555
N2_5 C7_5 1_555 1_555
N3_5 Cd2_2 1_555 1_555
C1_5 N1_5 1_555 1_555
C2_5 C1_5 1_555 1_555
H1_5 C2_5 1_555 1_555
C3_5 C2_5 1_555 1_555
C4_5 C3_5 1_555 1_555
H2_5 C4_5 1_555 1_555
C5_5 N1_5 1_555 1_555
H3_5 C5_5 1_555 1_555
C6_5 C1_5 1_555 1_555
C7_5 C8_5 1_555 1_555
C8_5 H4_5 1_555 1_555
C9_5 C3_5 1_555 1_555
C10_5 C9_5 1_555 1_555
H5_5 C10_5 1_555 1_555
C11_5 N2_5 1_555 1_555
H6_5 C11_5 1_555 1_555
C13_5 N3_5 1_555 1_555
H9_5 C15_5 1_555 1_555
C16_5 C15_5 1_555 1_555
H10_5 C16_5 1_555 1_555
C17_5 N3_5 1_555 1_555
H11_5 C17_5 1_555 1_555
O6_5 Cd2_2 1_555 1_555
N4_5 Cd2_2 1_555 1_555
C4_5 C5_5 1_555 1_555
C8_5 C9_5 1_555 1_555
C10_5 C11_5 1_555 1_555
C16_5 C17_5 1_555 1_555
H8_5 C14_5 1_555 1_555
N3_6 Cd2 1_555 1_555
C13_6 N3_6 1_555 1_555
H9_6 C15_6 1_555 1_555
C16_6 C15_6 1_555 1_555
H10_6 C16_6 1_555 1_555
C17_6 N3_6 1_555 1_555
H11_6 C17_6 1_555 1_555
O6_6 Cd2 1_555 1_555
N4_6 Cd2 1_555 1_555
C16_6 C17_6 1_555 1_555
O3_6 C12_6 1_555 1_555
O4_4 C12_6 1_555 1_555
N2_6 C7_6 1_555 1_555
C1_6 N1_6 1_555 1_555
C2_6 C1_6 1_555 1_555
H1_6 C2_6 1_555 1_555
C3_6 C2_6 1_555 1_555
C4_6 C3_6 1_555 1_555
H2_6 C4_6 1_555 1_555
C5_6 N1_6 1_555 1_555
H3_6 C5_6 1_555 1_555
C6_6 C1_6 1_555 1_555
C7_6 C8_6 1_555 1_555
C8_6 H4_6 1_555 1_555
C9_6 C3_6 1_555 1_555
C10_6 C9_6 1_555 1_555
H5_6 C10_6 1_555 1_555
C11_6 N2_6 1_555 1_555
H6_6 C11_6 1_555 1_555
C12_6 C7_6 1_555 1_555
Cd3_6 O3_6 1_555 1_555
N2_6 Cd3_6 1_555 1_555
C4_6 C5_6 1_555 1_555
C8_6 C9_6 1_555 1_555
C10_6 C11_6 1_555 1_555
Cd3_2 O1_7 1_555 1_555
O1_7 C6_7 1_555 1_555
O2_3 C6_7 1_555 1_555
O6_2 C12_7 1_555 1_555
O4_5 C12_7 1_555 1_555
N1_7 Cd3_2 1_555 1_555
N4_2 C7_7 1_555 1_555
N3_7 Cd3_2 1_555 1_555
C1_7 N1_7 1_555 1_555
C2_7 C1_7 1_555 1_555
H1_7 C2_7 1_555 1_555
C3_7 C2_7 1_555 1_555
C4_7 C3_7 1_555 1_555
H2_7 C4_7 1_555 1_555
C5_7 N1_7 1_555 1_555
H3_7 C5_7 1_555 1_555
C6_7 C1_7 1_555 1_555
C7_7 C8_7 1_555 1_555
C8_7 H4_7 1_555 1_555
C9_7 C3_7 1_555 1_555
C10_7 C9_7 1_555 1_555
H5_7 C10_7 1_555 1_555
C11_7 N4_2 1_555 1_555
H6_7 C11_7 1_555 1_555
C12_7 C7_7 1_555 1_555
C13_7 N3_7 1_555 1_555
H7_6 C13_7 1_555 1_555
C14_6 C13_7 1_555 1_555
H8_6 C14_6 1_555 1_555
C15_7 C14_6 1_555 1_555
H9_7 C15_7 1_555 1_555
C16_7 C15_7 1_555 1_555
H10_7 C16_7 1_555 1_555
C17_7 N3_7 1_555 1_555
H11_7 C17_7 1_555 1_555
Cd3_4 O2_3 1_555 1_555
O5_5 Cd3_2 1_555 1_555
C4_7 C5_7 1_555 1_555
C8_7 C9_7 1_555 1_555
C10_7 C11_7 1_555 1_555
C16_7 C17_7 1_555 1_555
Cd3 O1_8 1_555 1_555
O1_8 C6_8 1_555 1_555
O2_4 C6_8 1_555 1_555
O6 C12_8 1_555 1_555
O4_6 C12_8 1_555 1_555
N1_8 Cd3 1_555 1_555
N4 C7_8 1_555 1_555
N3_8 Cd3 1_555 1_555
C1_8 N1_8 1_555 1_555
C2_8 C1_8 1_555 1_555
H1_8 C2_8 1_555 1_555
C3_8 C2_8 1_555 1_555
C4_8 C3_8 1_555 1_555
H2_8 C4_8 1_555 1_555
C5_8 N1_8 1_555 1_555
H3_8 C5_8 1_555 1_555
C6_8 C1_8 1_555 1_555
C7_8 C8_8 1_555 1_555
C8_8 H4_8 1_555 1_555
C9_8 C3_8 1_555 1_555
C10_8 C9_8 1_555 1_555
H5_8 C10_8 1_555 1_555
C11_8 N4 1_555 1_555
H6_8 C11_8 1_555 1_555
C12_8 C7_8 1_555 1_555
C13_8 N3_8 1_555 1_555
H7_7 C13_8 1_555 1_555
C14_7 C13_8 1_555 1_555
H8_7 C14_7 1_555 1_555
C15_8 C14_7 1_555 1_555
H9_8 C15_8 1_555 1_555
C16_8 C15_8 1_555 1_555
H10_8 C16_8 1_555 1_555
C17_8 N3_8 1_555 1_555
H11_8 C17_8 1_555 1_555
Cd3_3 O2_4 1_555 1_555
O5_6 Cd3 1_555 1_555
C4_8 C5_8 1_555 1_555
C8_8 C9_8 1_555 1_555
C10_8 C11_8 1_555 1_555
C16_8 C17_8 1_555 1_555
Cd3_6 O1_9 1_555 1_555
O1_9 C6_9 1_555 1_555
O5_6 C6_9 1_555 1_555
O6_5 C12_9 1_555 1_555
N1_9 Cd3_6 1_555 1_555
N4_5 C7_9 1_555 1_555
N3_9 Cd3_6 1_555 1_555
C1_9 N1_9 1_555 1_555
C2_9 C1_9 1_555 1_555
H1_9 C2_9 1_555 1_555
C3_9 C2_9 1_555 1_555
C4_9 C3_9 1_555 1_555
H2_9 C4_9 1_555 1_555
C5_9 N1_9 1_555 1_555
H3_9 C5_9 1_555 1_555
C6_9 C1_9 1_555 1_555
C7_9 C8_9 1_555 1_555
C8_9 H4_9 1_555 1_555
C9_9 C3_9 1_555 1_555
C10_9 C9_9 1_555 1_555
H5_9 C10_9 1_555 1_555
C11_9 N4_5 1_555 1_555
H6_9 C11_9 1_555 1_555
C12_9 C7_9 1_555 1_555
C13_9 N3_9 1_555 1_555
H7_8 C13_9 1_555 1_555
C14_8 C13_9 1_555 1_555
H8_8 C14_8 1_555 1_555
C15_9 C14_8 1_555 1_555
H9_9 C15_9 1_555 1_555
C16_9 C15_9 1_555 1_555
H10_9 C16_9 1_555 1_555
C17_9 N3_9 1_555 1_555
H11_9 C17_9 1_555 1_555
O5_7 Cd3_6 1_555 1_555
C4_9 C5_9 1_555 1_555
C8_9 C9_9 1_555 1_555
C10_9 C11_9 1_555 1_555
C16_9 C17_9 1_555 1_555
Cd3_5 O1_10 1_555 1_555
O1_10 C6_10 1_555 1_555
O6_6 C12_10 1_555 1_555
N1_10 Cd3_5 1_555 1_555
N4_6 C7_10 1_555 1_555
N3_10 Cd3_5 1_555 1_555
C1_10 N1_10 1_555 1_555
C2_10 C1_10 1_555 1_555
H1_10 C2_10 1_555 1_555
C3_10 C2_10 1_555 1_555
C4_10 C3_10 1_555 1_555
H2_10 C4_10 1_555 1_555
C5_10 N1_10 1_555 1_555
H3_10 C5_10 1_555 1_555
C6_10 C1_10 1_555 1_555
C7_10 C8_10 1_555 1_555
C8_10 H4_10 1_555 1_555
C9_10 C3_10 1_555 1_555
C12_10 C7_10 1_555 1_555
C13_10 N3_10 1_555 1_555
H7_9 C13_10 1_555 1_555
C14_9 C13_10 1_555 1_555
H8_9 C14_9 1_555 1_555
C15_10 C14_9 1_555 1_555
H9_10 C15_10 1_555 1_555
C16_10 C15_10 1_555 1_555
H10_10 C16_10 1_555 1_555
C17_10 N3_10 1_555 1_555
H11_10 C17_10 1_555 1_555
O5_8 Cd3_5 1_555 1_555
C4_10 C5_10 1_555 1_555
C8_10 C9_10 1_555 1_555
C16_10 C17_10 1_555 1_555
H5_10 C10_10 1_555 1_555
H6_10 C11_10 1_555 1_555
C10_10 C11_10 1_555 1_555
H8_10 C14_10 1_555 1_555
N1_11 Cd3_3 1_555 1_555
N4_4 C7_11 1_555 1_555
N3_11 Cd3_3 1_555 1_555
C1_11 N1_11 1_555 1_555
C2_11 C1_11 1_555 1_555
H1_11 C2_11 1_555 1_555
C3_11 C2_11 1_555 1_555
C4_11 C3_11 1_555 1_555
H2_11 C4_11 1_555 1_555
C5_11 N1_11 1_555 1_555
H3_11 C5_11 1_555 1_555
C6_11 C1_11 1_555 1_555
C7_11 C8_11 1_555 1_555
C8_11 H4_11 1_555 1_555
C9_11 C3_11 1_555 1_555
C10_11 C9_11 1_555 1_555
H5_11 C10_11 1_555 1_555
C11_11 N4_4 1_555 1_555
H6_11 C11_11 1_555 1_555
C13_11 N3_11 1_555 1_555
H9_11 C15_11 1_555 1_555
C16_11 C15_11 1_555 1_555
H10_11 C16_11 1_555 1_555
C17_11 N3_11 1_555 1_555
H11_11 C17_11 1_555 1_555
C4_11 C5_11 1_555 1_555
C8_11 C9_11 1_555 1_555
C10_11 C11_11 1_555 1_555
C16_11 C17_11 1_555 1_555
O6_4 C12_11 1_555 1_555
O4_7 C12_11 1_555 1_555
N3_12 Cd3_4 1_555 1_555
C13_12 N3_12 1_555 1_555
H9_12 C15_12 1_555 1_555
C16_12 C15_12 1_555 1_555
H10_12 C16_12 1_555 1_555
C17_12 N3_12 1_555 1_555
H11_12 C17_12 1_555 1_555
C16_12 C17_12 1_555 1_555
O6_3 C12_12 1_555 1_555
O4_8 C12_12 1_555 1_555
N4_3 C7_12 1_555 1_555
C1_12 N1_12 1_555 1_555
C2_12 C1_12 1_555 1_555
H1_12 C2_12 1_555 1_555
C3_12 C2_12 1_555 1_555
C4_12 C3_12 1_555 1_555
H2_12 C4_12 1_555 1_555
C5_12 N1_12 1_555 1_555
H3_12 C5_12 1_555 1_555
C6_12 C1_12 1_555 1_555
C7_12 C8_12 1_555 1_555
C8_12 H4_12 1_555 1_555
C9_12 C3_12 1_555 1_555
C10_12 C9_12 1_555 1_555
H5_12 C10_12 1_555 1_555
C11_12 N4_3 1_555 1_555
H6_12 C11_12 1_555 1_555
C12_12 C7_12 1_555 1_555
C4_12 C5_12 1_555 1_555
C8_12 C9_12 1_555 1_555
C10_12 C11_12 1_555 1_555
Cd1_5 O1_13 1_555 1_555
O1_13 C6_13 1_555 1_555
O3_7 C12_13 1_555 1_555
N1_13 Cd1_5 1_555 1_555
N2_7 C7_13 1_555 1_555
N3_13 Cd1_5 1_555 1_555
C1_13 N1_13 1_555 1_555
C2_13 C1_13 1_555 1_555
H1_13 C2_13 1_555 1_555
C3_13 C2_13 1_555 1_555
C4_13 C3_13 1_555 1_555
H2_13 C4_13 1_555 1_555
C5_13 N1_13 1_555 1_555
H3_13 C5_13 1_555 1_555
C6_13 C1_13 1_555 1_555
C7_13 C8_13 1_555 1_555
C8_13 H4_13 1_555 1_555
C9_13 C3_13 1_555 1_555
C12_13 C7_13 1_555 1_555
C13_13 N3_13 1_555 1_555
H7_11 C13_13 1_555 1_555
C14_11 C13_13 1_555 1_555
H8_11 C14_11 1_555 1_555
C15_13 C14_11 1_555 1_555
H9_13 C15_13 1_555 1_555
C16_13 C15_13 1_555 1_555
H10_13 C16_13 1_555 1_555
C17_13 N3_13 1_555 1_555
H11_13 C17_13 1_555 1_555
Cd3_8 O3_7 1_555 1_555
O5_9 Cd1_5 1_555 1_555
O6_8 Cd1_5 1_555 1_555
N2_7 Cd3_8 1_555 1_555
C4_13 C5_13 1_555 1_555
C8_13 C9_13 1_555 1_555
C16_13 C17_13 1_555 1_555
N2_8 C7_14 1_555 1_555
C1_14 N1_14 1_555 1_555
C2_14 C1_14 1_555 1_555
H1_14 C2_14 1_555 1_555
C3_14 C2_14 1_555 1_555
C4_14 C3_14 1_555 1_555
H2_14 C4_14 1_555 1_555
C5_14 N1_14 1_555 1_555
H3_14 C5_14 1_555 1_555
C6_14 C1_14 1_555 1_555
C7_14 C8_14 1_555 1_555
C8_14 H4_14 1_555 1_555
C9_14 C3_14 1_555 1_555
C10_13 C9_14 1_555 1_555
H5_13 C10_13 1_555 1_555
C11_13 N2_8 1_555 1_555
H6_13 C11_13 1_555 1_555
C4_14 C5_14 1_555 1_555
C8_14 C9_14 1_555 1_555
C10_13 C11_13 1_555 1_555
Cd3_7 O1_15 1_555 1_555
O1_15 C6_15 1_555 1_555
O2_5 C6_15 1_555 1_555
O6_7 C12_14 1_555 1_555
O4_9 C12_14 1_555 1_555
N1_15 Cd3_7 1_555 1_555
N4_7 C7_15 1_555 1_555
N3_14 Cd3_7 1_555 1_555
C1_15 N1_15 1_555 1_555
C2_15 C1_15 1_555 1_555
H1_15 C2_15 1_555 1_555
C3_15 C2_15 1_555 1_555
C4_15 C3_15 1_555 1_555
H2_15 C4_15 1_555 1_555
C5_15 N1_15 1_555 1_555
H3_15 C5_15 1_555 1_555
C6_15 C1_15 1_555 1_555
C7_15 C8_15 1_555 1_555
C8_15 H4_15 1_555 1_555
C9_15 C3_15 1_555 1_555
C10_14 C9_15 1_555 1_555
H5_14 C10_14 1_555 1_555
C11_14 N4_7 1_555 1_555
H6_14 C11_14 1_555 1_555
C12_14 C7_15 1_555 1_555
C13_14 N3_14 1_555 1_555
H7_12 C13_14 1_555 1_555
C14_12 C13_14 1_555 1_555
H8_12 C14_12 1_555 1_555
C15_14 C14_12 1_555 1_555
H9_14 C15_14 1_555 1_555
C16_14 C15_14 1_555 1_555
H10_14 C16_14 1_555 1_555
C17_14 N3_14 1_555 1_555
H11_14 C17_14 1_555 1_555
Cd3_8 O2_5 1_555 1_555
O5_10 Cd3_7 1_555 1_555
C4_15 C5_15 1_555 1_555
C8_15 C9_15 1_555 1_555
C10_14 C11_14 1_555 1_555
C16_14 C17_14 1_555 1_555
H5_15 C10_15 1_555 1_555
H6_15 C11_15 1_555 1_555
C10_15 C11_15 1_555 1_555
O6_8 C12_15 1_555 1_555
O4_10 C12_15 1_555 1_555
N3_15 Cd3_8 1_555 1_555
C13_15 N3_15 1_555 1_555
H9_15 C15_15 1_555 1_555
C16_15 C15_15 1_555 1_555
H10_15 C16_15 1_555 1_555
C17_15 N3_15 1_555 1_555
H11_15 C17_15 1_555 1_555
C16_15 C17_15 1_555 1_555
Cd1_6 O1_16 1_555 1_555
O1_16 C6_16 1_555 1_555
O2_6 C6_16 1_555 1_555
O3_8 C12_16 1_555 1_555
O4_11 C12_16 1_555 1_555
N1_16 Cd1_6 1_555 1_555
N2_9 C7_16 1_555 1_555
N3_16 Cd1_6 1_555 1_555
C1_16 N1_16 1_555 1_555
C2_16 C1_16 1_555 1_555
H1_16 C2_16 1_555 1_555
C3_16 C2_16 1_555 1_555
C4_16 C3_16 1_555 1_555
H2_16 C4_16 1_555 1_555
C5_16 N1_16 1_555 1_555
H3_16 C5_16 1_555 1_555
C6_16 C1_16 1_555 1_555
C7_16 C8_16 1_555 1_555
C8_16 H4_16 1_555 1_555
C9_16 C3_16 1_555 1_555
C10_16 C9_16 1_555 1_555
H5_16 C10_16 1_555 1_555
C11_16 N2_9 1_555 1_555
H6_16 C11_16 1_555 1_555
C12_16 C7_16 1_555 1_555
C13_16 N3_16 1_555 1_555
H7_13 C13_16 1_555 1_555
C14_13 C13_16 1_555 1_555
H8_13 C14_13 1_555 1_555
C15_16 C14_13 1_555 1_555
H9_16 C15_16 1_555 1_555
C16_16 C15_16 1_555 1_555
H10_16 C16_16 1_555 1_555
C17_16 N3_16 1_555 1_555
H11_16 C17_16 1_555 1_555
Cd2_3 O2_6 1_555 1_555
O5_11 Cd1_6 1_555 1_555
C4_16 C5_16 1_555 1_555
C8_16 C9_16 1_555 1_555
C10_16 C11_16 1_555 1_555
C16_16 C17_16 1_555 1_555
H5_17 C10_17 1_555 1_555
H6_17 C11_17 1_555 1_555
C10_17 C11_17 1_555 1_555
O3_9 C12_17 1_555 1_555
O4_12 C12_17 1_555 1_555
Cd3_9 O3_9 1_555 1_555
N3_17 Cd2_3 1_555 1_555
C13_17 N3_17 1_555 1_555
H9_17 C15_17 1_555 1_555
C16_17 C15_17 1_555 1_555
H10_17 C16_17 1_555 1_555
C17_17 N3_17 1_555 1_555
H11_17 C17_17 1_555 1_555
O6_9 Cd2_3 1_555 1_555
N4_9 Cd2_3 1_555 1_555
C16_17 C17_17 1_555 1_555
Cd3_9 O1_17 1_555 1_555
O1_17 C6_17 1_555 1_555
O6_9 C12_18 1_555 1_555
N1_17 Cd3_9 1_555 1_555
N4_9 C7_17 1_555 1_555
N3_18 Cd3_9 1_555 1_555
C1_17 N1_17 1_555 1_555
C2_17 C1_17 1_555 1_555
H1_17 C2_17 1_555 1_555
C3_17 C2_17 1_555 1_555
C4_17 C3_17 1_555 1_555
H2_17 C4_17 1_555 1_555
C5_17 N1_17 1_555 1_555
H3_17 C5_17 1_555 1_555
C6_17 C1_17 1_555 1_555
C7_17 C8_17 1_555 1_555
C8_17 H4_17 1_555 1_555
C9_17 C3_17 1_555 1_555
C12_18 C7_17 1_555 1_555
C13_18 N3_18 1_555 1_555
H7_14 C13_18 1_555 1_555
C14_14 C13_18 1_555 1_555
H8_14 C14_14 1_555 1_555
C15_18 C14_14 1_555 1_555
H9_18 C15_18 1_555 1_555
C16_18 C15_18 1_555 1_555
H10_18 C16_18 1_555 1_555
C17_18 N3_18 1_555 1_555
H11_18 C17_18 1_555 1_555
O5_12 Cd3_9 1_555 1_555
C4_17 C5_17 1_555 1_555
C8_17 C9_17 1_555 1_555
C16_18 C17_18 1_555 1_555
N4_8 C7_18 1_555 1_555
C1_18 N1_18 1_555 1_555
C2_18 C1_18 1_555 1_555
H1_18 C2_18 1_555 1_555
C3_18 C2_18 1_555 1_555
C4_18 C3_18 1_555 1_555
H2_18 C4_18 1_555 1_555
C5_18 N1_18 1_555 1_555
H3_18 C5_18 1_555 1_555
C6_18 C1_18 1_555 1_555
C7_18 C8_18 1_555 1_555
C8_18 H4_18 1_555 1_555
C9_18 C3_18 1_555 1_555
C10_18 C9_18 1_555 1_555
H5_18 C10_18 1_555 1_555
C11_18 N4_8 1_555 1_555
H6_18 C11_18 1_555 1_555
C4_18 C5_18 1_555 1_555
C8_18 C9_18 1_555 1_555
C10_18 C11_18 1_555 1_555
H8_15 C14_15 1_555 1_555
H8_16 C14_16 1_555 1_555
H8_17 C14_17 1_555 1_555
H8_18 C14_18 1_555 1_555

#END
