
###############################################################################
#
# This file contains modified crystal structure data generated from the
# MOF subset of the Cambridge Structural Database (CSD) v543 
# hosted by the Cambridge Crystallographic Data Centre (CCDC).
#
# This work is licensed under the Creative Commons
# Attribution-NonCommercial-ShareAlike 4.0 International License.
# To view a copy of this license, visit
# http://creativecommons.org/licenses/by-nc-sa/4.0/
# or send a letter to
# Creative Commons, PO Box 1866, Mountain View, CA 94042, USA.
#
# CIF created using the CSD Python API on 29 September 2022
# The structure has been converted into the P1 space group
# The structure has a 3D framework
# The original CSD entry QATPUX is in the monoclinic crystal system
# The framework has been calculated to contain at least 10.0% void space
# The void calculation uses a probe of radius 1.32A, grid spacing 0.4
# H atom positions have been added when not included in the experimental data
# Generated hydrogen atom positions removed from atoms on special positions
#
###############################################################################

data_QATPUX
_chemical_formula_moiety         '(C16 H10 Co7 O20)n'
_symmetry_cell_setting           triclinic
_symmetry_space_group_name_H-M   'P 1'
_symmetry_Int_Tables_number      1
_space_group_name_Hall           'P 1'
loop_
_symmetry_equiv_pos_site_id
_symmetry_equiv_pos_as_xyz
1 x,y,z
_cell_length_a                   9.4684(11)
_cell_length_b                   12.7225(15)
_cell_length_c                   5.4873(7)
_cell_angle_alpha                90
_cell_angle_beta                 90.314(2)
_cell_angle_gamma                90
_cell_volume                     661
loop_
_atom_site_label
_atom_site_type_symbol
_atom_site_fract_x
_atom_site_fract_y
_atom_site_fract_z
Co4 Co 0.0000 -0.0000 0.5000
Co5 Co -0.0000 0.12399(3) -0.0000
Co7 Co 0.5000 0.37601(3) -0.0000
Co9 Co 0.5000 0.62399(3) -0.0000
Co10 Co -0.0000 0.87601(3) -0.0000
O20 O 0.12692(18) 0.11344(13) 0.3277(3)
Co1 Co 0.5000 0.5000 0.5000
O1 O 0.37751(17) 0.26220(13) 0.1478(3)
O2 O 0.3995(3) 0.5000 0.1726(4)
C1 C 0.3081(2) 0.25720(19) 0.3396(4)
O3 O 0.37308(18) 0.38656(13) 0.6723(3)
C2 C 0.3054(2) 0.31136(18) 0.5760(4)
Co4_2 Co 0.0000 1.0000 0.5000
Co5_2 Co -0.0000 0.12399(3) 1.0000
Co7_2 Co 0.5000 0.37601(3) 1.0000
Co9_2 Co 0.5000 0.62399(3) 1.0000
Co10_2 Co 0.0000 0.87601(3) 1.0000
O4 O 0.12249(17) 0.23780(13) 0.8522(3)
O5 O 0.37751(17) 0.73780(13) 0.1478(3)
O6 O 0.12249(17) 0.76220(13) 0.8522(3)
O9 O 0.6005(3) 0.5000 0.8274(4)
O12 O 0.1005(3) -0.0000 0.8274(4)
H5 H 0.171(5) -0.0000 0.842(8)
C3 C 0.1919(2) 0.24280(19) 0.6604(4)
C4 C 0.3081(2) 0.74280(19) 0.3396(4)
C5 C 0.1919(2) 0.75720(19) 0.6604(4)
O14 O 0.37308(18) 0.61344(13) 0.6723(3)
O15 O 0.12692(18) 0.88656(13) 0.3277(3)
O16 O 0.62692(18) 0.61344(13) 0.3277(3)
O17 O 0.62692(18) 0.38656(13) 0.3277(3)
C6 C 0.1946(2) 0.18864(18) 0.4240(4)
C7 C 0.3054(2) 0.68864(18) 0.5760(4)
C8 C 0.1946(2) 0.81136(18) 0.4240(4)
O7 O 0.62249(17) 0.26220(13) 0.8522(3)
O12_2 O 0.1005(3) 1.0000 0.8274(4)
H5_2 H 0.171(5) 1.0000 0.842(8)
Co4_3 Co 1.0000 -0.0000 0.5000
Co5_3 Co 1.0000 0.12399(3) -0.0000
Co10_3 Co 1.0000 0.87601(3) -0.0000
O8 O 0.87751(17) 0.23780(13) 0.1478(3)
O11 O 0.8995(3) 0.0000 0.1726(4)
H4 H 0.829(5) -0.0000 0.158(8)
H6 H 0.921041 0.00402972 0.349662
Co4_4 Co 1.0000 1.0000 0.5000
Co5_4 Co 1.0000 0.12399(3) 1.0000
Co10_4 Co 1.0000 0.87601(3) 1.0000
O19 O 0.87308(18) 0.11344(13) 0.6723(3)
O11_2 O 0.8995(3) 1.0000 0.1726(4)
H4_2 H 0.829(5) 1.0000 0.158(8)
C4_2 C 0.8081(2) 0.24280(19) 0.3396(4)
C5_2 C 0.6919(2) 0.25720(19) 0.6604(4)
C7_2 C 0.8054(2) 0.18864(18) 0.5760(4)
C8_2 C 0.6946(2) 0.31136(18) 0.4240(4)
O1_2 O 0.87751(17) 0.76220(13) 0.1478(3)
C1_2 C 0.8081(2) 0.75720(19) 0.3396(4)
O3_2 O 0.87308(18) 0.88656(13) 0.6723(3)
C2_2 C 0.8054(2) 0.81136(18) 0.5760(4)
O4_2 O 0.62249(17) 0.73780(13) 0.8522(3)
C3_2 C 0.6919(2) 0.74280(19) 0.6604(4)
C6_2 C 0.6946(2) 0.68864(18) 0.4240(4)
H6_2 H 0.0789587 0.00402972 0.650338
H6_3 H 0.0789587 0.99597 0.650338
H6_4 H 0.921041 0.99597 0.349662
loop_
_geom_bond_atom_site_label_1
_geom_bond_atom_site_label_2
_geom_bond_site_symmetry_1
_geom_bond_site_symmetry_2
O20 Co5 1_555 1_555
Co1 O2 1_555 1_555
Co7 O1 1_555 1_555
O1 C1 1_555 1_555
O2 Co7 1_555 1_555
C1 C2 1_555 1_555
O3 Co1 1_555 1_555
C2 O3 1_555 1_555
Co4 O12 1_555 1_555
Co4_2 O15 1_555 1_555
Co5_2 O4 1_555 1_555
Co9 O2 1_555 1_555
Co7_2 O3 1_555 1_555
Co9_2 O9 1_555 1_555
Co10_2 O6 1_555 1_555
Co10 O15 1_555 1_555
O4 C3 1_555 1_555
O5 Co9 1_555 1_555
O6 C5 1_555 1_555
O9 Co1 1_555 1_555
O12 Co5_2 1_555 1_555
H5 O12 1_555 1_555
C3 C2 1_555 1_555
C4 O5 1_555 1_555
C5 C7 1_555 1_555
O20 Co4 1_555 1_555
O14 Co1 1_555 1_555
O15 C8 1_555 1_555
O16 Co1 1_555 1_555
O17 Co1 1_555 1_555
C6 C1 1_555 1_555
C7 C4 1_555 1_555
C8 C4 1_555 1_555
Co7 O17 1_555 1_555
Co9 O16 1_555 1_555
Co7_2 O9 1_555 1_555
Co9_2 O14 1_555 1_555
C3 C6 1_555 1_555
C5 C8 1_555 1_555
O20 C6 1_555 1_555
O14 C7 1_555 1_555
O7 Co7_2 1_555 1_555
Co4_2 O12_2 1_555 1_555
H5_2 O12_2 1_555 1_555
O8 Co5_3 1_555 1_555
O11 Co5_3 1_555 1_555
H4 O11 1_555 1_555
O11 H6 1_555 1_555
O19 Co4_3 1_555 1_555
Co5_4 O19 1_555 1_555
H4_2 O11_2 1_555 1_555
Co10_2 O12_2 1_555 1_555
Co4_3 O11 1_555 1_555
O7 C5_2 1_555 1_555
C4_2 O8 1_555 1_555
C5_2 C7_2 1_555 1_555
O17 C8_2 1_555 1_555
C7_2 C4_2 1_555 1_555
C8_2 C4_2 1_555 1_555
C5_2 C8_2 1_555 1_555
O19 C7_2 1_555 1_555
Co4_4 O11_2 1_555 1_555
Co10_3 O1_2 1_555 1_555
O1_2 C1_2 1_555 1_555
O11_2 Co10_3 1_555 1_555
C1_2 C2_2 1_555 1_555
O3_2 Co4_4 1_555 1_555
C2_2 O3_2 1_555 1_555
Co9_2 O4_2 1_555 1_555
Co10_4 O3_2 1_555 1_555
O4_2 C3_2 1_555 1_555
C3_2 C2_2 1_555 1_555
C6_2 C1_2 1_555 1_555
C3_2 C6_2 1_555 1_555
O16 C6_2 1_555 1_555
O12 H6_2 1_555 1_555
O12_2 H6_3 1_555 1_555
O11_2 H6_4 1_555 1_555

#END
