
###############################################################################
#
# This file contains modified crystal structure data generated from the
# MOF subset of the Cambridge Structural Database (CSD) v543 
# hosted by the Cambridge Crystallographic Data Centre (CCDC).
#
# This work is licensed under the Creative Commons
# Attribution-NonCommercial-ShareAlike 4.0 International License.
# To view a copy of this license, visit
# http://creativecommons.org/licenses/by-nc-sa/4.0/
# or send a letter to
# Creative Commons, PO Box 1866, Mountain View, CA 94042, USA.
#
# CIF created using the CSD Python API on 29 September 2022
# The structure has been converted into the P1 space group
# The structure has a 3D framework
# The original CSD entry QATRAG is in the monoclinic crystal system
# The framework has been calculated to contain at least 10.0% void space
# The void calculation uses a probe of radius 1.32A, grid spacing 0.4
# H atom positions have been added when not included in the experimental data
#
###############################################################################

data_QATRAG
_chemical_formula_moiety         '(C20 H32 Ce4 O34)n'
_symmetry_cell_setting           triclinic
_symmetry_space_group_name_H-M   'P 1'
_symmetry_Int_Tables_number      1
_space_group_name_Hall           'P 1'
loop_
_symmetry_equiv_pos_site_id
_symmetry_equiv_pos_as_xyz
1 x,y,z
_cell_length_a                   6.0997(11)
_cell_length_b                   7.6528(13)
_cell_length_c                   22.533(4)
_cell_angle_alpha                90
_cell_angle_beta                 91.606(9)
_cell_angle_gamma                90
_cell_volume                     1051.42
loop_
_atom_site_label
_atom_site_type_symbol
_atom_site_fract_x
_atom_site_fract_y
_atom_site_fract_z
Ce2 Ce 0.45488(2) 0.498290(16) 0.146094(6)
O10 O 0.1538(3) 0.7107(3) 0.16664(9)
O12 O 0.8544(3) 0.5527(3) 0.15468(9)
O14 O 0.6001(3) 0.8140(2) 0.14171(8)
H8 H 0.560(5) 0.875(4) 0.1163(11)
O17 O 0.2203(3) 0.3597(2) 0.23470(7)
H11 H 0.302(4) 0.272(3) 0.2419(13)
O20 O 0.6496(3) 0.2132(2) 0.17026(8)
O23 O 0.5111(3) 0.6020(2) 0.24922(8)
O25 O 0.3385(3) 0.6306(3) 0.04632(8)
O27 O 0.6233(3) 0.3681(3) 0.05176(8)
O28 O 0.1496(3) 0.2934(3) 0.11110(10)
H12 H 0.040(4) 0.322(5) 0.1291(12)
H13 H 0.109(5) 0.271(5) 0.0777(7)
H16 H 0.76214 0.806377 0.139365
H17 H 0.0700731 0.325269 0.221197
O21 O 0.4889(3) 0.1020(2) 0.25078(8)
H15 H 0.9590 0.0220 0.2199
C9 C 0.6389(4) 0.1059(3) 0.21129(10)
Ce7 Ce 0.54512(2) 0.998290(16) 0.353906(6)
O15 O 0.7797(3) 0.8597(2) 0.26530(7)
H9 H 0.698(4) 0.772(3) 0.2581(13)
C6 C 0.9532(4) 0.6943(3) 0.15989(11)
C7 C 0.8177(4) 0.8607(3) 0.15670(10)
H14 H 0.8741 0.9356 0.1253
C8 C 0.8163(4) 0.9645(3) 0.21448(11)
C10 C 0.5821(5) 0.4242(4) 0.00133(11)
O8 O 0.3767(3) 0.6319(3) 0.94824(8)
C5 C 0.4179(5) 0.5758(4) 0.99867(11)
Ce6 Ce 0.54512(2) 0.501710(16) 0.853906(6)
O24 O 0.6615(3) 0.3694(3) 0.95368(8)
O2 O 0.1456(3) 0.0527(3) 0.34532(9)
O3 O 0.3999(3) 0.3140(2) 0.35829(8)
H1 H 0.440(5) 0.375(4) 0.3837(11)
O5 O 0.3504(3) 0.7132(2) 0.32974(8)
C1 C 0.0468(4) 0.1943(3) 0.34011(11)
C2 C 0.1823(4) 0.3607(3) 0.34330(10)
H5 H 0.1259 0.4356 0.3747
C3 C 0.1837(4) 0.4645(3) 0.28552(11)
H6 H 0.0410 0.5220 0.2801
C4 C 0.3611(4) 0.6059(3) 0.28871(10)
O1 O 0.8462(3) 0.2107(3) 0.33336(9)
O7 O 0.6615(3) 0.1306(3) 0.45368(8)
O8_2 O 0.6233(3) 0.1319(3) 0.55176(8)
C5_2 C 0.5821(5) 0.0758(4) 0.50133(11)
Ce6_2 Ce 0.45488(2) 0.001710(16) 0.646094(6)
O9 O 0.8504(3) 0.7934(3) 0.38890(10)
H3 H 0.960(4) 0.822(5) 0.3709(12)
H4 H 0.891(5) 0.771(5) 0.4223(7)
O24_2 O 0.3385(3) 0.8694(3) 0.54632(8)
O26 O 0.3767(3) 0.8681(3) 0.44824(8)
C10_2 C 0.4179(5) 0.9242(4) 0.49867(11)
H18 H 0.929927 0.825269 0.278803
H16_2 H 0.23786 0.306377 0.360635
O2_2 O 0.1456(3) 0.4473(3) 0.84532(9)
O3_2 O 0.3999(3) 0.1860(2) 0.85829(8)
H1_2 H 0.440(5) 0.125(4) 0.8837(11)
O4 O 0.2203(3) 0.1403(2) 0.73470(7)
H2 H 0.302(4) 0.228(3) 0.7419(13)
C1_2 C 0.0468(4) 0.3057(3) 0.84011(11)
C2_2 C 0.1823(4) 0.1393(3) 0.84330(10)
H5_2 H 0.1259 0.0644 0.8747
C3_2 C 0.1837(4) 0.0355(3) 0.78552(11)
O5_2 O 0.3504(3) 0.7868(2) 0.82974(8)
O6 O 0.5111(3) 0.8980(2) 0.74922(8)
H6_2 H 0.0410 0.9780 0.7801
C4_2 C 0.3611(4) 0.8941(3) 0.78871(10)
O1_2 O 0.8462(3) 0.2893(3) 0.83336(9)
O9_2 O 0.8504(3) 0.7066(3) 0.88890(10)
H3_2 H 0.960(4) 0.678(5) 0.8709(12)
H4_2 H 0.891(5) 0.729(5) 0.9223(7)
O16 O 0.7797(3) 0.6403(2) 0.76530(7)
H10 H 0.698(4) 0.728(3) 0.7581(13)
O22 O 0.4889(3) 0.3980(2) 0.75078(8)
H18_2 H 0.929927 0.674731 0.778803
H16_3 H 0.23786 0.193623 0.860635
O20_2 O 0.6496(3) 0.2868(2) 0.67026(8)
O28_2 O 0.1496(3) 0.2066(3) 0.61110(10)
H12_2 H 0.040(4) 0.178(5) 0.6291(12)
H13_2 H 0.109(5) 0.229(5) 0.5777(7)
H17_2 H 0.0700731 0.174731 0.721197
O10_2 O 0.1538(3) 0.7893(3) 0.66664(9)
O12_2 O 0.8544(3) 0.9473(3) 0.65468(9)
O14_2 O 0.6001(3) 0.6860(2) 0.64171(8)
H8_2 H 0.560(5) 0.625(4) 0.6163(11)
H16_4 H 0.76214 0.693623 0.639365
C6_2 C 0.9532(4) 0.8057(3) 0.65989(11)
C7_2 C 0.8177(4) 0.6393(3) 0.65670(10)
H14_2 H 0.8741 0.5644 0.6253
C8_2 C 0.8163(4) 0.5355(3) 0.71448(11)
H15_2 H 0.9590 0.4780 0.7199
C9_2 C 0.6389(4) 0.3941(3) 0.71129(10)
loop_
_geom_bond_atom_site_label_1
_geom_bond_atom_site_label_2
_geom_bond_site_symmetry_1
_geom_bond_site_symmetry_2
Ce2 O10 1_555 1_555
O12 Ce2 1_555 1_555
O14 Ce2 1_555 1_555
H8 O14 1_555 1_555
O17 Ce2 1_555 1_555
H11 O17 1_555 1_555
O20 Ce2 1_555 1_555
O23 Ce2 1_555 1_555
O25 Ce2 1_555 1_555
O27 Ce2 1_555 1_555
O28 Ce2 1_555 1_555
H12 O28 1_555 1_555
H13 O28 1_555 1_555
O14 H16 1_555 1_555
O17 H17 1_555 1_555
O20 C9 1_555 1_555
C9 O21 1_555 1_555
Ce7 O15 1_555 1_555
O15 H9 1_555 1_555
C6 O12 1_555 1_555
C7 O14 1_555 1_555
H14 C7 1_555 1_555
C8 O15 1_555 1_555
O27 C10 1_555 1_555
C6 C7 1_555 1_555
C7 C8 1_555 1_555
O8 C5 1_555 1_555
Ce6 O8 1_555 1_555
O24 Ce6 1_555 1_555
O2 C1 1_555 1_555
O3 H1 1_555 1_555
O5 C4 1_555 1_555
O23 C4 1_555 1_555
C1 C2 1_555 1_555
C2 O3 1_555 1_555
H5 C2 1_555 1_555
C3 O17 1_555 1_555
H6 C3 1_555 1_555
C4 C3 1_555 1_555
Ce7 O5 1_555 1_555
C2 C3 1_555 1_555
O8_2 C5_2 1_555 1_555
C5_2 O7 1_555 1_555
Ce6_2 O8_2 1_555 1_555
O9 Ce7 1_555 1_555
H3 O9 1_555 1_555
H4 O9 1_555 1_555
O26 Ce7 1_555 1_555
O24_2 C10_2 1_555 1_555
O26 C10_2 1_555 1_555
O15 H18 1_555 1_555
O3 H16_2 1_555 1_555
O2_2 C1_2 1_555 1_555
O3_2 H1_2 1_555 1_555
O4 H2 1_555 1_555
C1_2 C2_2 1_555 1_555
C2_2 O3_2 1_555 1_555
H5_2 C2_2 1_555 1_555
C3_2 O4 1_555 1_555
Ce6 O2_2 1_555 1_555
Ce6_2 O4 1_555 1_555
O3_2 Ce6 1_555 1_555
C2_2 C3_2 1_555 1_555
O5_2 C4_2 1_555 1_555
O6 C4_2 1_555 1_555
Ce6 O5_2 1_555 1_555
Ce6 O1_2 1_555 1_555
O9_2 Ce6 1_555 1_555
H3_2 O9_2 1_555 1_555
H4_2 O9_2 1_555 1_555
O16 Ce6 1_555 1_555
H10 O16 1_555 1_555
O22 Ce6 1_555 1_555
O16 H18_2 1_555 1_555
O3_2 H16_3 1_555 1_555
O20_2 Ce6_2 1_555 1_555
O28_2 Ce6_2 1_555 1_555
H12_2 O28_2 1_555 1_555
H13_2 O28_2 1_555 1_555
O4 H17_2 1_555 1_555
H8_2 O14_2 1_555 1_555
O14_2 H16_4 1_555 1_555
O20_2 C9_2 1_555 1_555
C6_2 O12_2 1_555 1_555
C7_2 O14_2 1_555 1_555
H14_2 C7_2 1_555 1_555
C8_2 O16 1_555 1_555
H15_2 C8_2 1_555 1_555
C9_2 O22 1_555 1_555
C6_2 C7_2 1_555 1_555
C7_2 C8_2 1_555 1_555
C8_2 C9_2 1_555 1_555

#END
