
###############################################################################
#
# This file contains modified crystal structure data generated from the
# MOF subset of the Cambridge Structural Database (CSD) v543 
# hosted by the Cambridge Crystallographic Data Centre (CCDC).
#
# This work is licensed under the Creative Commons
# Attribution-NonCommercial-ShareAlike 4.0 International License.
# To view a copy of this license, visit
# http://creativecommons.org/licenses/by-nc-sa/4.0/
# or send a letter to
# Creative Commons, PO Box 1866, Mountain View, CA 94042, USA.
#
# CIF created using the CSD Python API on 29 September 2022
# The structure has been converted into the P1 space group
# The structure has a 3D framework
# The original CSD entry QATVUE is in the tetragonal crystal system
# The framework has been calculated to contain at least 10.0% void space
# The void calculation uses a probe of radius 1.32A, grid spacing 0.4
# The framework is charged, counterions have been retained in the structure
#
###############################################################################

data_QATVUE
_chemical_formula_moiety         '(C192 H128 Cl26 Cu8 N64 O80)n'
_symmetry_cell_setting           triclinic
_symmetry_space_group_name_H-M   'P 1'
_symmetry_Int_Tables_number      1
_space_group_name_Hall           'P 1'
loop_
_symmetry_equiv_pos_site_id
_symmetry_equiv_pos_as_xyz
1 x,y,z
_cell_length_a                   17.540(2)
_cell_length_b                   17.540(2)
_cell_length_c                   21.383(6)
_cell_angle_alpha                90
_cell_angle_beta                 90
_cell_angle_gamma                90
_cell_volume                     6578.51
loop_
_atom_site_label
_atom_site_type_symbol
_atom_site_fract_x
_atom_site_fract_y
_atom_site_fract_z
Cu1 Cu 0.27912(6) 0.2500 0.1250
O1 O 0.3616(3) 0.0690(3) 0.0037(2)
N1 N 0.3626(3) 0.2626(3) 0.0588(3)
N2 N 0.2941(3) 0.1223(3) 0.0782(3)
N3 N 0.2689(4) 0.0459(3) 0.0712(3)
C1 C 0.3972(5) 0.3298(5) 0.0498(4)
H1 H 0.3824 0.3716 0.0736
C2 C 0.4541(6) 0.3381(6) 0.0062(5)
H2 H 0.4760 0.3858 0.0004
C5 C 0.3882(4) 0.2023(4) 0.0252(3)
C6 C 0.3469(4) 0.1302(4) 0.0377(3)
C7 C 0.3084(4) 0.0180(4) 0.0267(3)
Cu3 Cu 0.2500 0.77912(6) 0.3750
O2 O 0.3616(3) 0.4310(3) 0.2463(2)
N5 N 0.3626(3) 0.2374(3) 0.1912(3)
N6 N 0.2941(3) 0.3777(3) 0.1718(3)
N7 N 0.2689(4) 0.4541(3) 0.1788(3)
C13 C 0.3972(5) 0.1702(5) 0.2002(4)
H9 H 0.3824 0.1284 0.1764
C14 C 0.4541(6) 0.1619(6) 0.2438(5)
H10 H 0.4760 0.1142 0.2496
C15 C 0.4791(7) 0.2209(6) 0.2783(5)
H11 H 0.5175 0.2144 0.3078
C16 C 0.4448(5) 0.2942(5) 0.2685(4)
H12 H 0.4603 0.3370 0.2908
C17 C 0.3882(4) 0.2977(4) 0.2248(3)
C18 C 0.3469(4) 0.3698(4) 0.2123(3)
C19 C 0.3084(4) 0.4820(4) 0.2233(3)
C20 C 0.3037(5) 0.5568(4) 0.2527(4)
C21 C 0.2538(6) 0.6112(5) 0.2305(4)
H13 H 0.2254 0.6030 0.1944
C22 C 0.3476(5) 0.5755(4) 0.3058(4)
H14 H 0.3843 0.5418 0.3207
N8 N 0.2827(4) 0.6940(3) 0.3154(3)
N9 N 0.1940(3) 0.2827(4) 0.0654(3)
N10 N 0.1940(3) 0.2173(4) 0.1846(3)
C23 C 0.2475(7) 0.6775(5) 0.2636(4)
H15 H 0.2149 0.7144 0.2475
C24 C 0.3360(5) 0.6423(4) 0.3344(5)
H16 H 0.3658 0.6541 0.3691
C8 C 0.3037(5) 0.9432(4) 0.9973(4)
C10 C 0.3476(5) 0.9245(4) 0.9442(4)
H6 H 0.3843 0.9582 0.9293
N4 N 0.2827(4) 0.8060(3) 0.9346(3)
C11 C 0.2475(7) 0.8225(5) 0.9864(4)
C12 C 0.3360(5) 0.8577(4) 0.9156(5)
H8 H 0.3658 0.8459 0.8809
Cu2 Cu 0.2500 0.72088(6) 0.8750
C8_2 C 0.6963(5) 0.0568(4) 0.9973(4)
C10_2 C 0.6524(5) 0.0755(4) 0.9442(4)
H6_2 H 0.6157 0.0418 0.9293
N4_2 N 0.7173(4) 0.1940(3) 0.9346(3)
C11_2 C 0.7525(7) 0.1775(5) 0.9864(4)
C12_2 C 0.6640(5) 0.1423(4) 0.9156(5)
H8_2 H 0.6342 0.1541 0.8809
Cu2_2 Cu 0.7500 0.27912(6) 0.8750
Cu1_2 Cu 0.72088(6) 0.7500 0.1250
O1_2 O 0.6384(3) 0.9310(3) 0.0037(2)
N1_2 N 0.6374(3) 0.7374(3) 0.0588(3)
N2_2 N 0.7059(3) 0.8777(3) 0.0782(3)
N3_2 N 0.7311(4) 0.9541(3) 0.0712(3)
C1_2 C 0.6028(5) 0.6702(5) 0.0498(4)
H1_2 H 0.6176 0.6284 0.0736
C2_2 C 0.5459(6) 0.6619(6) 0.0062(5)
H2_2 H 0.5240 0.6142 0.0004
C5_2 C 0.6118(4) 0.7977(4) 0.0252(3)
C6_2 C 0.6531(4) 0.8698(4) 0.0377(3)
C7_2 C 0.6916(4) 0.9820(4) 0.0267(3)
Cu3_2 Cu 0.7500 0.22088(6) 0.3750
O2_2 O 0.6384(3) 0.5690(3) 0.2463(2)
N5_2 N 0.6374(3) 0.7626(3) 0.1912(3)
N6_2 N 0.7059(3) 0.6223(3) 0.1718(3)
N7_2 N 0.7311(4) 0.5459(3) 0.1788(3)
C13_2 C 0.6028(5) 0.8298(5) 0.2002(4)
H9_2 H 0.6176 0.8716 0.1764
C14_2 C 0.5459(6) 0.8381(6) 0.2438(5)
H10_2 H 0.5240 0.8858 0.2496
C15_2 C 0.5209(7) 0.7791(6) 0.2783(5)
H11_2 H 0.4825 0.7856 0.3078
C16_2 C 0.5552(5) 0.7058(5) 0.2685(4)
H12_2 H 0.5397 0.6630 0.2908
C17_2 C 0.6118(4) 0.7023(4) 0.2248(3)
C18_2 C 0.6531(4) 0.6302(4) 0.2123(3)
C19_2 C 0.6916(4) 0.5180(4) 0.2233(3)
C20_2 C 0.6963(5) 0.4432(4) 0.2527(4)
C21_2 C 0.7462(6) 0.3888(5) 0.2305(4)
H13_2 H 0.7746 0.3970 0.1944
C22_2 C 0.6524(5) 0.4245(4) 0.3058(4)
H14_2 H 0.6157 0.4582 0.3207
N8_2 N 0.7173(4) 0.3060(3) 0.3154(3)
N9_2 N 0.8060(3) 0.7173(4) 0.0654(3)
N10_2 N 0.8060(3) 0.7827(4) 0.1846(3)
C23_2 C 0.7525(7) 0.3225(5) 0.2636(4)
H15_2 H 0.7851 0.2856 0.2475
C24_2 C 0.6640(5) 0.3577(4) 0.3344(5)
H16_2 H 0.6342 0.3459 0.3691
O1_3 O 0.0690(3) 0.6384(3) 0.9963(2)
N1_3 N 0.2626(3) 0.6374(3) 0.9412(3)
N2_3 N 0.1223(3) 0.7059(3) 0.9218(3)
N3_3 N 0.0459(3) 0.7311(4) 0.9288(3)
C1_3 C 0.3298(5) 0.6028(5) 0.9502(4)
H1_3 H 0.3716 0.6176 0.9264
C2_3 C 0.3381(6) 0.5459(6) 0.9938(5)
H2_3 H 0.3858 0.5240 0.9996
C5_3 C 0.2023(4) 0.6118(4) 0.9748(3)
C6_3 C 0.1302(4) 0.6531(4) 0.9623(3)
C7_3 C 0.0180(4) 0.6916(4) 0.9733(3)
Cu3_3 Cu 0.77912(6) 0.7500 0.6250
O2_3 O 0.4310(3) 0.6384(3) 0.7537(2)
N5_3 N 0.2374(3) 0.6374(3) 0.8088(3)
N6_3 N 0.3777(3) 0.7059(3) 0.8282(3)
N7_3 N 0.4541(3) 0.7311(4) 0.8212(3)
C13_3 C 0.1702(5) 0.6028(5) 0.7998(4)
H9_3 H 0.1284 0.6176 0.8236
C14_3 C 0.1619(6) 0.5459(6) 0.7562(5)
H10_3 H 0.1142 0.5240 0.7504
C15_3 C 0.2209(6) 0.5209(7) 0.7217(5)
H11_3 H 0.2144 0.4825 0.6922
C16_3 C 0.2942(5) 0.5552(5) 0.7315(4)
H12_3 H 0.3370 0.5397 0.7092
C17_3 C 0.2977(4) 0.6118(4) 0.7752(3)
C18_3 C 0.3698(4) 0.6531(4) 0.7877(3)
C19_3 C 0.4820(4) 0.6916(4) 0.7767(3)
C20_3 C 0.5568(4) 0.6963(5) 0.7473(4)
C21_3 C 0.6112(5) 0.7462(6) 0.7695(4)
H13_3 H 0.6030 0.7746 0.8056
C22_3 C 0.5755(4) 0.6524(5) 0.6942(4)
H14_3 H 0.5418 0.6157 0.6793
N8_3 N 0.6940(3) 0.7173(4) 0.6846(3)
N10_3 N 0.2173(4) 0.8060(3) 0.8154(3)
C23_3 C 0.6775(5) 0.7525(7) 0.7364(4)
H15_3 H 0.7144 0.7851 0.7525
C24_3 C 0.6423(4) 0.6640(5) 0.6656(5)
H16_3 H 0.6541 0.6342 0.6309
C8_3 C 0.9432(4) 0.6963(5) 0.0027(4)
C10_3 C 0.9245(4) 0.6524(5) 0.0558(4)
H6_3 H 0.9582 0.6157 0.0707
C11_3 C 0.8225(5) 0.7525(7) 0.0136(4)
C12_3 C 0.8577(4) 0.6640(5) 0.0844(5)
H8_3 H 0.8459 0.6342 0.1191
C8_4 C 0.0568(4) 0.3037(5) 0.0027(4)
C10_4 C 0.0755(4) 0.3476(5) 0.0558(4)
H6_4 H 0.0418 0.3843 0.0707
C11_4 C 0.1775(5) 0.2475(7) 0.0136(4)
C12_4 C 0.1423(4) 0.3360(5) 0.0844(5)
H8_4 H 0.1541 0.3658 0.1191
O1_4 O 0.9310(3) 0.3616(3) 0.9963(2)
N1_4 N 0.7374(3) 0.3626(3) 0.9412(3)
N2_4 N 0.8777(3) 0.2941(3) 0.9218(3)
N3_4 N 0.9541(3) 0.2689(4) 0.9288(3)
C1_4 C 0.6702(5) 0.3972(5) 0.9502(4)
H1_4 H 0.6284 0.3824 0.9264
C2_4 C 0.6619(6) 0.4541(6) 0.9938(5)
H2_4 H 0.6142 0.4760 0.9996
C5_4 C 0.7977(4) 0.3882(4) 0.9748(3)
C6_4 C 0.8698(4) 0.3469(4) 0.9623(3)
C7_4 C 0.9820(4) 0.3084(4) 0.9733(3)
Cu3_4 Cu 0.22088(6) 0.2500 0.6250
O2_4 O 0.5690(3) 0.3616(3) 0.7537(2)
N5_4 N 0.7626(3) 0.3626(3) 0.8088(3)
N6_4 N 0.6223(3) 0.2941(3) 0.8282(3)
N7_4 N 0.5459(3) 0.2689(4) 0.8212(3)
C13_4 C 0.8298(5) 0.3972(5) 0.7998(4)
H9_4 H 0.8716 0.3824 0.8236
C14_4 C 0.8381(6) 0.4541(6) 0.7562(5)
H10_4 H 0.8858 0.4760 0.7504
C15_4 C 0.7791(6) 0.4791(7) 0.7217(5)
H11_4 H 0.7856 0.5175 0.6922
C16_4 C 0.7058(5) 0.4448(5) 0.7315(4)
H12_4 H 0.6630 0.4603 0.7092
C17_4 C 0.7023(4) 0.3882(4) 0.7752(3)
C18_4 C 0.6302(4) 0.3469(4) 0.7877(3)
C19_4 C 0.5180(4) 0.3084(4) 0.7767(3)
C20_4 C 0.4432(4) 0.3037(5) 0.7473(4)
C21_4 C 0.3888(5) 0.2538(6) 0.7695(4)
H13_4 H 0.3970 0.2254 0.8056
C22_4 C 0.4245(4) 0.3476(5) 0.6942(4)
H14_4 H 0.4582 0.3843 0.6793
N8_4 N 0.3060(3) 0.2827(4) 0.6846(3)
N10_4 N 0.7827(4) 0.1940(3) 0.8154(3)
C23_4 C 0.3225(5) 0.2475(7) 0.7364(4)
H15_4 H 0.2856 0.2149 0.7525
C24_4 C 0.3577(4) 0.3360(5) 0.6656(5)
H16_4 H 0.3459 0.3658 0.6309
O1_5 O 0.1384(3) 0.0690(3) 0.7463(2)
N1_5 N 0.1374(3) 0.2626(3) 0.6912(3)
N2_5 N 0.2059(3) 0.1223(3) 0.6718(3)
N3_5 N 0.2311(4) 0.0459(3) 0.6788(3)
C1_5 C 0.1028(5) 0.3298(5) 0.7002(4)
H1_5 H 0.1176 0.3716 0.6764
C2_5 C 0.0459(6) 0.3381(6) 0.7438(5)
H2_5 H 0.0240 0.3858 0.7496
C3 C 0.0209(7) 0.2791(6) 0.7783(5)
C4 C 0.0552(5) 0.2058(5) 0.7685(4)
H4 H 0.0397 0.1630 0.7908
C5_5 C 0.1118(4) 0.2023(4) 0.7248(3)
C6_5 C 0.1531(4) 0.1302(4) 0.7123(3)
C7_5 C 0.1916(4) 0.0180(4) 0.7233(3)
O2_5 O 0.1384(3) 0.4310(3) 0.5037(2)
N5_5 N 0.1374(3) 0.2374(3) 0.5588(3)
N6_5 N 0.2059(3) 0.3777(3) 0.5782(3)
N7_5 N 0.2311(4) 0.4541(3) 0.5712(3)
C13_5 C 0.1028(5) 0.1702(5) 0.5498(4)
H9_5 H 0.1176 0.1284 0.5736
C14_5 C 0.0459(6) 0.1619(6) 0.5062(5)
H10_5 H 0.0240 0.1142 0.5004
C15_5 C 0.0209(7) 0.2209(6) 0.4717(5)
C16_5 C 0.0552(5) 0.2942(5) 0.4815(4)
H12_5 H 0.0397 0.3370 0.4592
C17_5 C 0.1118(4) 0.2977(4) 0.5252(3)
C18_5 C 0.1531(4) 0.3698(4) 0.5377(3)
C19_5 C 0.1916(4) 0.4820(4) 0.5267(3)
C20_5 C 0.1963(5) 0.5568(4) 0.4973(4)
C21_5 C 0.2462(6) 0.6112(5) 0.5195(4)
H13_5 H 0.2746 0.6030 0.5556
C22_5 C 0.1524(5) 0.5755(4) 0.4442(4)
H14_5 H 0.1157 0.5418 0.4293
N8_5 N 0.2173(4) 0.6940(3) 0.4346(3)
N10_5 N 0.3060(3) 0.2173(4) 0.5654(3)
C23_5 C 0.2525(7) 0.6775(5) 0.4864(4)
H15_5 H 0.2851 0.7144 0.5025
C24_5 C 0.1640(5) 0.6423(4) 0.4156(5)
H16_5 H 0.1342 0.6541 0.3809
C8_5 C 0.1963(5) 0.9432(4) 0.7527(4)
C9 C 0.2462(6) 0.8888(5) 0.7305(4)
H5 H 0.2746 0.8970 0.6944
C10_5 C 0.1524(5) 0.9245(4) 0.8058(4)
H6_5 H 0.1157 0.9582 0.8207
C11_5 C 0.2525(7) 0.8225(5) 0.7636(4)
H7 H 0.2851 0.7856 0.7475
C12_5 C 0.1640(5) 0.8577(4) 0.8344(5)
H8_5 H 0.1342 0.8459 0.8691
C8_6 C 0.8037(5) 0.0568(4) 0.7527(4)
C9_2 C 0.7538(6) 0.1112(5) 0.7305(4)
H5_2 H 0.7254 0.1030 0.6944
C10_6 C 0.8476(5) 0.0755(4) 0.8058(4)
H6_6 H 0.8843 0.0418 0.8207
C11_6 C 0.7475(7) 0.1775(5) 0.7636(4)
H7_2 H 0.7149 0.2144 0.7475
C12_6 C 0.8360(5) 0.1423(4) 0.8344(5)
H8_6 H 0.8658 0.1541 0.8691
O1_6 O 0.8616(3) 0.9310(3) 0.7463(2)
N1_6 N 0.8626(3) 0.7374(3) 0.6912(3)
N2_6 N 0.7941(3) 0.8777(3) 0.6718(3)
N3_6 N 0.7689(4) 0.9541(3) 0.6788(3)
C1_6 C 0.8972(5) 0.6702(5) 0.7002(4)
H1_6 H 0.8824 0.6284 0.6764
C2_6 C 0.9541(6) 0.6619(6) 0.7438(5)
H2_6 H 0.9760 0.6142 0.7496
C3_2 C 0.9791(7) 0.7209(6) 0.7783(5)
C4_2 C 0.9448(5) 0.7942(5) 0.7685(4)
H4_2 H 0.9603 0.8370 0.7908
C5_6 C 0.8882(4) 0.7977(4) 0.7248(3)
C6_6 C 0.8469(4) 0.8698(4) 0.7123(3)
C7_6 C 0.8084(4) 0.9820(4) 0.7233(3)
O2_6 O 0.8616(3) 0.5690(3) 0.5037(2)
N5_6 N 0.8626(3) 0.7626(3) 0.5588(3)
N6_6 N 0.7941(3) 0.6223(3) 0.5782(3)
N7_6 N 0.7689(4) 0.5459(3) 0.5712(3)
C13_6 C 0.8972(5) 0.8298(5) 0.5498(4)
H9_6 H 0.8824 0.8716 0.5736
C14_6 C 0.9541(6) 0.8381(6) 0.5062(5)
H10_6 H 0.9760 0.8858 0.5004
C15_6 C 0.9791(7) 0.7791(6) 0.4717(5)
C16_6 C 0.9448(5) 0.7058(5) 0.4815(4)
H12_6 H 0.9603 0.6630 0.4592
C17_6 C 0.8882(4) 0.7023(4) 0.5252(3)
C18_6 C 0.8469(4) 0.6302(4) 0.5377(3)
C19_6 C 0.8084(4) 0.5180(4) 0.5267(3)
C20_6 C 0.8037(5) 0.4432(4) 0.4973(4)
C21_6 C 0.7538(6) 0.3888(5) 0.5195(4)
H13_6 H 0.7254 0.3970 0.5556
C22_6 C 0.8476(5) 0.4245(4) 0.4442(4)
H14_6 H 0.8843 0.4582 0.4293
N8_6 N 0.7827(4) 0.3060(3) 0.4346(3)
N10_6 N 0.6940(3) 0.7827(4) 0.5654(3)
C23_6 C 0.7475(7) 0.3225(5) 0.4864(4)
H15_6 H 0.7149 0.2856 0.5025
C24_6 C 0.8360(5) 0.3577(4) 0.4156(5)
H16_6 H 0.8658 0.3459 0.3809
C20_7 C 0.0568(4) 0.1963(5) 0.2473(4)
C21_7 C 0.1112(5) 0.2462(6) 0.2695(4)
H13_7 H 0.1030 0.2746 0.3056
C22_7 C 0.0755(4) 0.1524(5) 0.1942(4)
H14_7 H 0.0418 0.1157 0.1793
C23_7 C 0.1775(5) 0.2525(7) 0.2364(4)
H15_7 H 0.2144 0.2851 0.2525
C24_7 C 0.1423(4) 0.1640(5) 0.1656(5)
H16_7 H 0.1541 0.1342 0.1309
O1_7 O 0.5690(3) 0.1384(3) 0.4963(2)
N1_7 N 0.7626(3) 0.1374(3) 0.4412(3)
N2_7 N 0.6223(3) 0.2059(3) 0.4218(3)
N3_7 N 0.5459(3) 0.2311(4) 0.4288(3)
C1_7 C 0.8298(5) 0.1028(5) 0.4502(4)
H1_7 H 0.8716 0.1176 0.4264
C2_7 C 0.8381(6) 0.0459(6) 0.4938(5)
H2_7 H 0.8858 0.0240 0.4996
C3_3 C 0.7791(6) 0.0209(7) 0.5283(5)
C4_3 C 0.7058(5) 0.0552(5) 0.5185(4)
H4_3 H 0.6630 0.0397 0.5408
C5_7 C 0.7023(4) 0.1118(4) 0.4748(3)
C6_7 C 0.6302(4) 0.1531(4) 0.4623(3)
C7_7 C 0.5180(4) 0.1916(4) 0.4733(3)
C8_7 C 0.4432(4) 0.1963(5) 0.5027(4)
C9_3 C 0.3888(5) 0.2462(6) 0.4805(4)
H5_3 H 0.3970 0.2746 0.4444
C10_7 C 0.4245(4) 0.1524(5) 0.5558(4)
H6_7 H 0.4582 0.1157 0.5707
C11_7 C 0.3225(5) 0.2525(7) 0.5136(4)
H7_3 H 0.2856 0.2851 0.4975
C12_7 C 0.3577(4) 0.1640(5) 0.5844(5)
H8_7 H 0.3459 0.1342 0.6191
O2_7 O 0.9310(3) 0.1384(3) 0.2537(2)
N5_7 N 0.7374(3) 0.1374(3) 0.3088(3)
N6_7 N 0.8777(3) 0.2059(3) 0.3282(3)
N7_7 N 0.9541(3) 0.2311(4) 0.3212(3)
C13_7 C 0.6702(5) 0.1028(5) 0.2998(4)
H9_7 H 0.6284 0.1176 0.3236
C14_7 C 0.6619(6) 0.0459(6) 0.2562(5)
H10_7 H 0.6142 0.0240 0.2504
C15_7 C 0.7209(6) 0.0209(7) 0.2217(5)
C16_7 C 0.7942(5) 0.0552(5) 0.2315(4)
H12_7 H 0.8370 0.0397 0.2092
C17_7 C 0.7977(4) 0.1118(4) 0.2752(3)
C18_7 C 0.8698(4) 0.1531(4) 0.2877(3)
C19_7 C 0.9820(4) 0.1916(4) 0.2767(3)
O1_8 O 0.4310(3) 0.8616(3) 0.4963(2)
N1_8 N 0.2374(3) 0.8626(3) 0.4412(3)
N2_8 N 0.3777(3) 0.7941(3) 0.4218(3)
N3_8 N 0.4541(3) 0.7689(4) 0.4288(3)
C1_8 C 0.1702(5) 0.8972(5) 0.4502(4)
H1_8 H 0.1284 0.8824 0.4264
C2_8 C 0.1619(6) 0.9541(6) 0.4938(5)
H2_8 H 0.1142 0.9760 0.4996
C3_4 C 0.2209(6) 0.9791(7) 0.5283(5)
C4_4 C 0.2942(5) 0.9448(5) 0.5185(4)
H4_4 H 0.3370 0.9603 0.5408
C5_8 C 0.2977(4) 0.8882(4) 0.4748(3)
C6_8 C 0.3698(4) 0.8469(4) 0.4623(3)
C7_8 C 0.4820(4) 0.8084(4) 0.4733(3)
C8_8 C 0.5568(4) 0.8037(5) 0.5027(4)
C9_4 C 0.6112(5) 0.7538(6) 0.4805(4)
H5_4 H 0.6030 0.7254 0.4444
C10_8 C 0.5755(4) 0.8476(5) 0.5558(4)
H6_8 H 0.5418 0.8843 0.5707
C11_8 C 0.6775(5) 0.7475(7) 0.5136(4)
H7_4 H 0.7144 0.7149 0.4975
C12_8 C 0.6423(4) 0.8360(5) 0.5844(5)
H8_8 H 0.6541 0.8658 0.6191
O2_8 O 0.0690(3) 0.8616(3) 0.2537(2)
N5_8 N 0.2626(3) 0.8626(3) 0.3088(3)
N6_8 N 0.1223(3) 0.7941(3) 0.3282(3)
N7_8 N 0.0459(3) 0.7689(4) 0.3212(3)
C13_8 C 0.3298(5) 0.8972(5) 0.2998(4)
H9_8 H 0.3716 0.8824 0.3236
C14_8 C 0.3381(6) 0.9541(6) 0.2562(5)
H10_8 H 0.3858 0.9760 0.2504
C15_8 C 0.2791(6) 0.9791(7) 0.2217(5)
C16_8 C 0.2058(5) 0.9448(5) 0.2315(4)
H12_8 H 0.1630 0.9603 0.2092
C17_8 C 0.2023(4) 0.8882(4) 0.2752(3)
C18_8 C 0.1302(4) 0.8469(4) 0.2877(3)
C19_8 C 0.0180(4) 0.8084(4) 0.2767(3)
C20_8 C 0.9432(4) 0.8037(5) 0.2473(4)
C21_8 C 0.8888(5) 0.7538(6) 0.2695(4)
H13_8 H 0.8970 0.7254 0.3056
C22_8 C 0.9245(4) 0.8476(5) 0.1942(4)
H14_8 H 0.9582 0.8843 0.1793
C23_8 C 0.8225(5) 0.7475(7) 0.2364(4)
H15_8 H 0.7856 0.7149 0.2525
C24_8 C 0.8577(4) 0.8360(5) 0.1656(5)
H16_8 H 0.8459 0.8658 0.1309
C3_5 C 0.4791(7) 0.2791(6) 0.9717(5)
H3 H 0.5175 0.2856 0.9422
C4_5 C 0.4448(5) 0.2058(5) 0.9815(4)
H4_5 H 0.4603 0.1630 0.9592
C9_5 C 0.2538(6) 0.8888(5) 0.0195(4)
H5_5 H 0.2254 0.8970 0.0556
H7_5 H 0.2149 0.7856 0.0025
C9_6 C 0.7462(6) 0.1112(5) 0.0195(4)
H5_6 H 0.7746 0.1030 0.0556
H7_6 H 0.7851 0.2144 0.0025
C3_6 C 0.5209(7) 0.7209(6) 0.9717(5)
H3_2 H 0.4825 0.7144 0.9422
C4_6 C 0.5552(5) 0.7942(5) 0.9815(4)
H4_6 H 0.5397 0.8370 0.9592
C3_7 C 0.2791(6) 0.5209(7) 0.0283(5)
H3_3 H 0.2856 0.4825 0.0578
C4_7 C 0.2058(5) 0.5552(5) 0.0185(4)
H4_7 H 0.1630 0.5397 0.0408
C9_7 C 0.8888(5) 0.7462(6) 0.9805(4)
H5_7 H 0.8970 0.7746 0.9444
H7_7 H 0.7856 0.7851 0.9975
C9_8 C 0.1112(5) 0.2538(6) 0.9805(4)
H5_8 H 0.1030 0.2254 0.9444
H7_8 H 0.2144 0.2149 0.9975
C3_8 C 0.7209(6) 0.4791(7) 0.0283(5)
H3_4 H 0.7144 0.5175 0.0578
C4_8 C 0.7942(5) 0.4448(5) 0.0185(4)
H4_8 H 0.8370 0.4603 0.0408
H3_5 H 0.9825 0.2856 0.8078
H11_5 H 0.9825 0.2144 0.4422
H3_6 H 0.0175 0.7144 0.8078
H11_6 H 0.0175 0.7856 0.4422
H3_7 H 0.7856 0.9825 0.5578
H11_7 H 0.7144 0.9825 0.1922
H3_8 H 0.2144 0.0175 0.5578
H11_8 H 0.2856 0.0175 0.1922
Cl1 Cl 0.1263(2) 0.7500 0.1250
O3 O 0.0828(7) 0.7813(6) 0.0788(5)
O4 O 0.1727(6) 0.6954(5) 0.0982(4)
O5 O 0.0828(7) 0.7187(6) 0.1712(5)
O6 O 0.1727(6) 0.8046(5) 0.1518(4)
Cl1_2 Cl 0.8737(2) 0.2500 0.1250
O3_2 O 0.9172(7) 0.2187(6) 0.0788(5)
O4_2 O 0.8273(6) 0.3046(5) 0.0982(4)
O5_2 O 0.9172(7) 0.2813(6) 0.1712(5)
O6_2 O 0.8273(6) 0.1954(5) 0.1518(4)
Cl1_3 Cl 0.7500 0.8737(2) 0.8750
O3_3 O 0.7813(6) 0.9172(7) 0.9212(5)
O4_3 O 0.6954(5) 0.8273(6) 0.9018(4)
O5_3 O 0.7187(6) 0.9172(7) 0.8288(5)
O6_3 O 0.8046(5) 0.8273(6) 0.8482(4)
Cl1_4 Cl 0.2500 0.1263(2) 0.8750
O3_4 O 0.2187(6) 0.0828(7) 0.9212(5)
O4_4 O 0.3046(5) 0.1727(6) 0.9018(4)
O5_4 O 0.2813(6) 0.0828(7) 0.8288(5)
O6_4 O 0.1954(5) 0.1727(6) 0.8482(4)
Cl1_5 Cl 0.3737(2) 0.7500 0.6250
O3_5 O 0.4172(7) 0.7813(6) 0.6712(5)
O4_5 O 0.3273(6) 0.6954(5) 0.6518(4)
O5_5 O 0.4172(7) 0.7187(6) 0.5788(5)
O6_5 O 0.3273(6) 0.8046(5) 0.5982(4)
Cl1_6 Cl 0.6263(2) 0.2500 0.6250
O3_6 O 0.5828(7) 0.2187(6) 0.6712(5)
O4_6 O 0.6727(6) 0.3046(5) 0.6518(4)
O5_6 O 0.5828(7) 0.2813(6) 0.5788(5)
O6_6 O 0.6727(6) 0.1954(5) 0.5982(4)
Cl1_7 Cl 0.2500 0.3737(2) 0.3750
O3_7 O 0.2813(6) 0.4172(7) 0.4212(5)
O4_7 O 0.1954(5) 0.3273(6) 0.4018(4)
O5_7 O 0.2187(6) 0.4172(7) 0.3288(5)
O6_7 O 0.3046(5) 0.3273(6) 0.3482(4)
Cl1_8 Cl 0.7500 0.6263(2) 0.3750
O3_8 O 0.7187(6) 0.5828(7) 0.4212(5)
O4_8 O 0.8046(5) 0.6727(6) 0.4018(4)
O5_8 O 0.7813(6) 0.5828(7) 0.3288(5)
O6_8 O 0.6954(5) 0.6727(6) 0.3482(4)
Cl2 Cl 0.5000 0.0000 0.10609(19)
O8 O 0.4343(6) 0.0157(7) 0.1325(6)
O9 O 0.5190(10) 0.0625(10) 0.0703(7)
Cl2_2 Cl 0.5000 1.0000 0.10609(19)
O7 O 0.4810(10) 0.9375(10) 0.0703(7)
O10 O 0.5657(6) 0.9843(7) 0.1325(6)
Cl2_3 Cl 0.0000 0.5000 0.89391(19)
O8_2 O 0.0157(7) 0.5657(6) 0.8675(6)
O9_2 O 0.0625(10) 0.4810(10) 0.9297(7)
Cl2_4 Cl 1.0000 0.5000 0.89391(19)
O7_2 O 0.9375(10) 0.5190(10) 0.9297(7)
O10_2 O 0.9843(7) 0.4343(6) 0.8675(6)
Cl2_5 Cl 0.0000 0.0000 0.64391(19)
O8_3 O 0.0657(6) 0.0157(7) 0.6175(6)
Cl2_6 Cl 0.0000 1.0000 0.64391(19)
O7_3 O 0.0190(10) 0.9375(10) 0.6797(7)
Cl2_7 Cl 1.0000 0.0000 0.64391(19)
O9_3 O 0.9810(10) 0.0625(10) 0.6797(7)
Cl2_8 Cl 1.0000 1.0000 0.64391(19)
O10_3 O 0.9343(6) 0.9843(7) 0.6175(6)
Cl2_9 Cl 0.5000 0.5000 0.85609(19)
O7_4 O 0.5625(10) 0.5190(10) 0.8203(7)
O8_4 O 0.4843(7) 0.5657(6) 0.8825(6)
O9_4 O 0.4375(10) 0.4810(10) 0.8203(7)
O10_4 O 0.5157(7) 0.4343(6) 0.8825(6)
Cl2_10 Cl 0.0000 0.5000 0.60609(19)
O9_5 O 0.0190(10) 0.5625(10) 0.5703(7)
O10_5 O 0.0657(6) 0.4843(7) 0.6325(6)
Cl2_11 Cl 1.0000 0.5000 0.60609(19)
O7_5 O 0.9810(10) 0.4375(10) 0.5703(7)
O8_5 O 0.9343(6) 0.5157(7) 0.6325(6)
Cl2_12 Cl 0.5000 0.0000 0.39391(19)
O7_6 O 0.4375(10) 0.0190(10) 0.4297(7)
O8_6 O 0.5157(7) 0.0657(6) 0.3675(6)
Cl2_13 Cl 0.5000 1.0000 0.39391(19)
O9_6 O 0.5625(10) 0.9810(10) 0.4297(7)
O10_6 O 0.4843(7) 0.9343(6) 0.3675(6)
Cl2_14 Cl 0.5000 0.5000 0.14391(19)
O7_7 O 0.5190(10) 0.4375(10) 0.1797(7)
O8_7 O 0.5657(6) 0.5157(7) 0.1175(6)
O9_7 O 0.4810(10) 0.5625(10) 0.1797(7)
O10_7 O 0.4343(6) 0.4843(7) 0.1175(6)
Cl2_15 Cl -0.0000 0.0000 0.35609(19)
O7_8 O 0.0625(10) 0.0190(10) 0.3203(7)
Cl2_16 Cl 0.0000 1.0000 0.35609(19)
O10_8 O 0.0157(7) 0.9343(6) 0.3825(6)
Cl2_17 Cl 1.0000 0.0000 0.35609(19)
O8_8 O 0.9843(7) 0.0657(6) 0.3825(6)
Cl2_18 Cl 1.0000 1.0000 0.35609(19)
O9_8 O 0.9375(10) 0.9810(10) 0.3203(7)
loop_
_geom_bond_atom_site_label_1
_geom_bond_atom_site_label_2
_geom_bond_site_symmetry_1
_geom_bond_site_symmetry_2
Cu1 N1 1_555 1_555
O1 C6 1_555 1_555
N1 C1 1_555 1_555
N2 Cu1 1_555 1_555
N3 N2 1_555 1_555
C1 H1 1_555 1_555
C2 C1 1_555 1_555
H2 C2 1_555 1_555
C5 N1 1_555 1_555
C6 N2 1_555 1_555
C7 O1 1_555 1_555
Cu3 N8 1_555 1_555
O2 C18 1_555 1_555
N5 Cu1 1_555 1_555
N6 Cu1 1_555 1_555
N7 N6 1_555 1_555
C13 N5 1_555 1_555
H9 C13 1_555 1_555
C14 C13 1_555 1_555
H10 C14 1_555 1_555
C15 C14 1_555 1_555
H11 C15 1_555 1_555
C16 C15 1_555 1_555
H12 C16 1_555 1_555
C17 N5 1_555 1_555
C18 N6 1_555 1_555
C19 O2 1_555 1_555
C20 C19 1_555 1_555
C21 C20 1_555 1_555
H13 C21 1_555 1_555
C22 C20 1_555 1_555
H14 C22 1_555 1_555
N8 C23 1_555 1_555
N9 Cu1 1_555 1_555
N10 Cu1 1_555 1_555
C23 C21 1_555 1_555
H15 C23 1_555 1_555
C24 C22 1_555 1_555
H16 C24 1_555 1_555
N3 C7 1_555 1_555
C5 C6 1_555 1_555
N7 C19 1_555 1_555
C16 C17 1_555 1_555
C17 C18 1_555 1_555
N8 C24 1_555 1_555
C10 C8 1_555 1_555
H6 C10 1_555 1_555
N4 C11 1_555 1_555
C12 C10 1_555 1_555
H8 C12 1_555 1_555
Cu2 N4 1_555 1_555
N4 C12 1_555 1_555
C10_2 C8_2 1_555 1_555
H6_2 C10_2 1_555 1_555
N4_2 C11_2 1_555 1_555
C12_2 C10_2 1_555 1_555
H8_2 C12_2 1_555 1_555
Cu2_2 N4_2 1_555 1_555
N4_2 C12_2 1_555 1_555
Cu1_2 N1_2 1_555 1_555
O1_2 C6_2 1_555 1_555
N1_2 C1_2 1_555 1_555
N2_2 Cu1_2 1_555 1_555
N3_2 N2_2 1_555 1_555
C1_2 H1_2 1_555 1_555
C2_2 C1_2 1_555 1_555
H2_2 C2_2 1_555 1_555
C5_2 N1_2 1_555 1_555
C6_2 N2_2 1_555 1_555
C7_2 O1_2 1_555 1_555
Cu3_2 N8_2 1_555 1_555
O2_2 C18_2 1_555 1_555
N5_2 Cu1_2 1_555 1_555
N6_2 Cu1_2 1_555 1_555
N7_2 N6_2 1_555 1_555
C13_2 N5_2 1_555 1_555
H9_2 C13_2 1_555 1_555
C14_2 C13_2 1_555 1_555
H10_2 C14_2 1_555 1_555
C15_2 C14_2 1_555 1_555
H11_2 C15_2 1_555 1_555
C16_2 C15_2 1_555 1_555
H12_2 C16_2 1_555 1_555
C17_2 N5_2 1_555 1_555
C18_2 N6_2 1_555 1_555
C19_2 O2_2 1_555 1_555
C20_2 C19_2 1_555 1_555
C21_2 C20_2 1_555 1_555
H13_2 C21_2 1_555 1_555
C22_2 C20_2 1_555 1_555
H14_2 C22_2 1_555 1_555
N8_2 C23_2 1_555 1_555
N9_2 Cu1_2 1_555 1_555
N10_2 Cu1_2 1_555 1_555
C23_2 C21_2 1_555 1_555
H15_2 C23_2 1_555 1_555
C24_2 C22_2 1_555 1_555
H16_2 C24_2 1_555 1_555
N3_2 C7_2 1_555 1_555
C5_2 C6_2 1_555 1_555
N7_2 C19_2 1_555 1_555
C16_2 C17_2 1_555 1_555
C17_2 C18_2 1_555 1_555
N8_2 C24_2 1_555 1_555
Cu2 N1_3 1_555 1_555
O1_3 C6_3 1_555 1_555
N1_3 C1_3 1_555 1_555
N2_3 Cu2 1_555 1_555
N3_3 N2_3 1_555 1_555
C1_3 H1_3 1_555 1_555
C2_3 C1_3 1_555 1_555
H2_3 C2_3 1_555 1_555
C5_3 N1_3 1_555 1_555
C6_3 N2_3 1_555 1_555
C7_3 O1_3 1_555 1_555
Cu3_3 N8_3 1_555 1_555
O2_3 C18_3 1_555 1_555
N5_3 Cu2 1_555 1_555
N6_3 Cu2 1_555 1_555
N7_3 N6_3 1_555 1_555
C13_3 N5_3 1_555 1_555
H9_3 C13_3 1_555 1_555
C14_3 C13_3 1_555 1_555
H10_3 C14_3 1_555 1_555
C15_3 C14_3 1_555 1_555
H11_3 C15_3 1_555 1_555
C16_3 C15_3 1_555 1_555
H12_3 C16_3 1_555 1_555
C17_3 N5_3 1_555 1_555
C18_3 N6_3 1_555 1_555
C19_3 O2_3 1_555 1_555
C20_3 C19_3 1_555 1_555
C21_3 C20_3 1_555 1_555
H13_3 C21_3 1_555 1_555
C22_3 C20_3 1_555 1_555
H14_3 C22_3 1_555 1_555
N8_3 C23_3 1_555 1_555
N10_3 Cu2 1_555 1_555
C23_3 C21_3 1_555 1_555
H15_3 C23_3 1_555 1_555
C24_3 C22_3 1_555 1_555
H16_3 C24_3 1_555 1_555
N3_3 C7_3 1_555 1_555
C5_3 C6_3 1_555 1_555
N7_3 C19_3 1_555 1_555
C16_3 C17_3 1_555 1_555
C17_3 C18_3 1_555 1_555
N8_3 C24_3 1_555 1_555
C10_3 C8_3 1_555 1_555
H6_3 C10_3 1_555 1_555
N9_2 C11_3 1_555 1_555
C12_3 C10_3 1_555 1_555
H8_3 C12_3 1_555 1_555
N9_2 C12_3 1_555 1_555
C10_4 C8_4 1_555 1_555
H6_4 C10_4 1_555 1_555
N9 C11_4 1_555 1_555
C12_4 C10_4 1_555 1_555
H8_4 C12_4 1_555 1_555
N9 C12_4 1_555 1_555
Cu2_2 N1_4 1_555 1_555
O1_4 C6_4 1_555 1_555
N1_4 C1_4 1_555 1_555
N2_4 Cu2_2 1_555 1_555
N3_4 N2_4 1_555 1_555
C1_4 H1_4 1_555 1_555
C2_4 C1_4 1_555 1_555
H2_4 C2_4 1_555 1_555
C5_4 N1_4 1_555 1_555
C6_4 N2_4 1_555 1_555
C7_4 O1_4 1_555 1_555
Cu3_4 N8_4 1_555 1_555
O2_4 C18_4 1_555 1_555
N5_4 Cu2_2 1_555 1_555
N6_4 Cu2_2 1_555 1_555
N7_4 N6_4 1_555 1_555
C13_4 N5_4 1_555 1_555
H9_4 C13_4 1_555 1_555
C14_4 C13_4 1_555 1_555
H10_4 C14_4 1_555 1_555
C15_4 C14_4 1_555 1_555
H11_4 C15_4 1_555 1_555
C16_4 C15_4 1_555 1_555
H12_4 C16_4 1_555 1_555
C17_4 N5_4 1_555 1_555
C18_4 N6_4 1_555 1_555
C19_4 O2_4 1_555 1_555
C20_4 C19_4 1_555 1_555
C21_4 C20_4 1_555 1_555
H13_4 C21_4 1_555 1_555
C22_4 C20_4 1_555 1_555
H14_4 C22_4 1_555 1_555
N8_4 C23_4 1_555 1_555
N10_4 Cu2_2 1_555 1_555
C23_4 C21_4 1_555 1_555
H15_4 C23_4 1_555 1_555
C24_4 C22_4 1_555 1_555
H16_4 C24_4 1_555 1_555
N3_4 C7_4 1_555 1_555
C5_4 C6_4 1_555 1_555
N7_4 C19_4 1_555 1_555
C16_4 C17_4 1_555 1_555
C17_4 C18_4 1_555 1_555
N8_4 C24_4 1_555 1_555
Cu3_4 N1_5 1_555 1_555
O1_5 C6_5 1_555 1_555
N1_5 C1_5 1_555 1_555
N2_5 Cu3_4 1_555 1_555
N3_5 N2_5 1_555 1_555
C1_5 H1_5 1_555 1_555
C2_5 C1_5 1_555 1_555
H2_5 C2_5 1_555 1_555
C3 C2_5 1_555 1_555
C4 C3 1_555 1_555
H4 C4 1_555 1_555
C5_5 N1_5 1_555 1_555
C6_5 N2_5 1_555 1_555
C7_5 O1_5 1_555 1_555
Cu3 N8_5 1_555 1_555
O2_5 C18_5 1_555 1_555
N5_5 Cu3_4 1_555 1_555
N6_5 Cu3_4 1_555 1_555
N7_5 N6_5 1_555 1_555
C13_5 N5_5 1_555 1_555
H9_5 C13_5 1_555 1_555
C14_5 C13_5 1_555 1_555
H10_5 C14_5 1_555 1_555
C15_5 C14_5 1_555 1_555
C16_5 C15_5 1_555 1_555
H12_5 C16_5 1_555 1_555
C17_5 N5_5 1_555 1_555
C18_5 N6_5 1_555 1_555
C19_5 O2_5 1_555 1_555
C20_5 C19_5 1_555 1_555
C21_5 C20_5 1_555 1_555
H13_5 C21_5 1_555 1_555
C22_5 C20_5 1_555 1_555
H14_5 C22_5 1_555 1_555
N8_5 C23_5 1_555 1_555
N10_5 Cu3_4 1_555 1_555
C23_5 C21_5 1_555 1_555
H15_5 C23_5 1_555 1_555
C24_5 C22_5 1_555 1_555
H16_5 C24_5 1_555 1_555
N3_5 C7_5 1_555 1_555
C4 C5_5 1_555 1_555
C5_5 C6_5 1_555 1_555
N7_5 C19_5 1_555 1_555
C16_5 C17_5 1_555 1_555
C17_5 C18_5 1_555 1_555
N8_5 C24_5 1_555 1_555
C9 C8_5 1_555 1_555
H5 C9 1_555 1_555
C10_5 C8_5 1_555 1_555
H6_5 C10_5 1_555 1_555
N10_3 C11_5 1_555 1_555
C11_5 C9 1_555 1_555
H7 C11_5 1_555 1_555
C12_5 C10_5 1_555 1_555
H8_5 C12_5 1_555 1_555
N10_3 C12_5 1_555 1_555
C9_2 C8_6 1_555 1_555
H5_2 C9_2 1_555 1_555
C10_6 C8_6 1_555 1_555
H6_6 C10_6 1_555 1_555
N10_4 C11_6 1_555 1_555
C11_6 C9_2 1_555 1_555
H7_2 C11_6 1_555 1_555
C12_6 C10_6 1_555 1_555
H8_6 C12_6 1_555 1_555
N10_4 C12_6 1_555 1_555
Cu3_3 N1_6 1_555 1_555
O1_6 C6_6 1_555 1_555
N1_6 C1_6 1_555 1_555
N2_6 Cu3_3 1_555 1_555
N3_6 N2_6 1_555 1_555
C1_6 H1_6 1_555 1_555
C2_6 C1_6 1_555 1_555
H2_6 C2_6 1_555 1_555
C3_2 C2_6 1_555 1_555
C4_2 C3_2 1_555 1_555
H4_2 C4_2 1_555 1_555
C5_6 N1_6 1_555 1_555
C6_6 N2_6 1_555 1_555
C7_6 O1_6 1_555 1_555
Cu3_2 N8_6 1_555 1_555
O2_6 C18_6 1_555 1_555
N5_6 Cu3_3 1_555 1_555
N6_6 Cu3_3 1_555 1_555
N7_6 N6_6 1_555 1_555
C13_6 N5_6 1_555 1_555
H9_6 C13_6 1_555 1_555
C14_6 C13_6 1_555 1_555
H10_6 C14_6 1_555 1_555
C15_6 C14_6 1_555 1_555
C16_6 C15_6 1_555 1_555
H12_6 C16_6 1_555 1_555
C17_6 N5_6 1_555 1_555
C18_6 N6_6 1_555 1_555
C19_6 O2_6 1_555 1_555
C20_6 C19_6 1_555 1_555
C21_6 C20_6 1_555 1_555
H13_6 C21_6 1_555 1_555
C22_6 C20_6 1_555 1_555
H14_6 C22_6 1_555 1_555
N8_6 C23_6 1_555 1_555
N10_6 Cu3_3 1_555 1_555
C23_6 C21_6 1_555 1_555
H15_6 C23_6 1_555 1_555
C24_6 C22_6 1_555 1_555
H16_6 C24_6 1_555 1_555
N3_6 C7_6 1_555 1_555
C4_2 C5_6 1_555 1_555
C5_6 C6_6 1_555 1_555
N7_6 C19_6 1_555 1_555
C16_6 C17_6 1_555 1_555
C17_6 C18_6 1_555 1_555
N8_6 C24_6 1_555 1_555
C21_7 C20_7 1_555 1_555
H13_7 C21_7 1_555 1_555
C22_7 C20_7 1_555 1_555
H14_7 C22_7 1_555 1_555
N10 C23_7 1_555 1_555
C23_7 C21_7 1_555 1_555
H15_7 C23_7 1_555 1_555
C24_7 C22_7 1_555 1_555
H16_7 C24_7 1_555 1_555
N10 C24_7 1_555 1_555
Cu3_2 N1_7 1_555 1_555
O1_7 C6_7 1_555 1_555
N1_7 C1_7 1_555 1_555
N2_7 Cu3_2 1_555 1_555
N3_7 N2_7 1_555 1_555
C1_7 H1_7 1_555 1_555
C2_7 C1_7 1_555 1_555
H2_7 C2_7 1_555 1_555
C3_3 C2_7 1_555 1_555
C4_3 C3_3 1_555 1_555
H4_3 C4_3 1_555 1_555
C5_7 N1_7 1_555 1_555
C6_7 N2_7 1_555 1_555
C7_7 O1_7 1_555 1_555
C8_7 C7_7 1_555 1_555
C9_3 C8_7 1_555 1_555
H5_3 C9_3 1_555 1_555
C10_7 C8_7 1_555 1_555
H6_7 C10_7 1_555 1_555
N10_5 C11_7 1_555 1_555
C11_7 C9_3 1_555 1_555
H7_3 C11_7 1_555 1_555
C12_7 C10_7 1_555 1_555
H8_7 C12_7 1_555 1_555
O2_7 C18_7 1_555 1_555
N5_7 Cu3_2 1_555 1_555
N6_7 Cu3_2 1_555 1_555
N7_7 N6_7 1_555 1_555
C13_7 N5_7 1_555 1_555
H9_7 C13_7 1_555 1_555
C14_7 C13_7 1_555 1_555
H10_7 C14_7 1_555 1_555
C15_7 C14_7 1_555 1_555
C16_7 C15_7 1_555 1_555
H12_7 C16_7 1_555 1_555
C17_7 N5_7 1_555 1_555
C18_7 N6_7 1_555 1_555
C19_7 O2_7 1_555 1_555
N3_7 C7_7 1_555 1_555
C4_3 C5_7 1_555 1_555
C5_7 C6_7 1_555 1_555
N10_5 C12_7 1_555 1_555
N7_7 C19_7 1_555 1_555
C16_7 C17_7 1_555 1_555
C17_7 C18_7 1_555 1_555
Cu3 N1_8 1_555 1_555
O1_8 C6_8 1_555 1_555
N1_8 C1_8 1_555 1_555
N2_8 Cu3 1_555 1_555
N3_8 N2_8 1_555 1_555
C1_8 H1_8 1_555 1_555
C2_8 C1_8 1_555 1_555
H2_8 C2_8 1_555 1_555
C3_4 C2_8 1_555 1_555
C4_4 C3_4 1_555 1_555
H4_4 C4_4 1_555 1_555
C5_8 N1_8 1_555 1_555
C6_8 N2_8 1_555 1_555
C7_8 O1_8 1_555 1_555
C8_8 C7_8 1_555 1_555
C9_4 C8_8 1_555 1_555
H5_4 C9_4 1_555 1_555
C10_8 C8_8 1_555 1_555
H6_8 C10_8 1_555 1_555
N10_6 C11_8 1_555 1_555
C11_8 C9_4 1_555 1_555
H7_4 C11_8 1_555 1_555
C12_8 C10_8 1_555 1_555
H8_8 C12_8 1_555 1_555
O2_8 C18_8 1_555 1_555
N5_8 Cu3 1_555 1_555
N6_8 Cu3 1_555 1_555
N7_8 N6_8 1_555 1_555
C13_8 N5_8 1_555 1_555
H9_8 C13_8 1_555 1_555
C14_8 C13_8 1_555 1_555
H10_8 C14_8 1_555 1_555
C15_8 C14_8 1_555 1_555
C16_8 C15_8 1_555 1_555
H12_8 C16_8 1_555 1_555
C17_8 N5_8 1_555 1_555
C18_8 N6_8 1_555 1_555
C19_8 O2_8 1_555 1_555
N3_8 C7_8 1_555 1_555
C4_4 C5_8 1_555 1_555
C5_8 C6_8 1_555 1_555
N10_6 C12_8 1_555 1_555
N7_8 C19_8 1_555 1_555
C16_8 C17_8 1_555 1_555
C17_8 C18_8 1_555 1_555
C21_8 C20_8 1_555 1_555
H13_8 C21_8 1_555 1_555
C22_8 C20_8 1_555 1_555
H14_8 C22_8 1_555 1_555
N10_2 C23_8 1_555 1_555
C23_8 C21_8 1_555 1_555
H15_8 C23_8 1_555 1_555
C24_8 C22_8 1_555 1_555
H16_8 C24_8 1_555 1_555
N10_2 C24_8 1_555 1_555
H3 C3_5 1_555 1_555
C4_5 C3_5 1_555 1_555
H4_5 C4_5 1_555 1_555
H5_5 C9_5 1_555 1_555
H5_6 C9_6 1_555 1_555
H3_2 C3_6 1_555 1_555
C4_6 C3_6 1_555 1_555
H4_6 C4_6 1_555 1_555
H3_3 C3_7 1_555 1_555
C4_7 C3_7 1_555 1_555
H4_7 C4_7 1_555 1_555
H5_7 C9_7 1_555 1_555
H5_8 C9_8 1_555 1_555
H3_4 C3_8 1_555 1_555
C4_8 C3_8 1_555 1_555
H4_8 C4_8 1_555 1_555
Cl1 O3 1_555 1_555
O4 Cl1 1_555 1_555
O5 Cl1 1_555 1_555
O6 Cl1 1_555 1_555
Cl1_2 O3_2 1_555 1_555
O4_2 Cl1_2 1_555 1_555
O5_2 Cl1_2 1_555 1_555
O6_2 Cl1_2 1_555 1_555
Cl1_3 O3_3 1_555 1_555
O4_3 Cl1_3 1_555 1_555
O5_3 Cl1_3 1_555 1_555
O6_3 Cl1_3 1_555 1_555
Cl1_4 O3_4 1_555 1_555
O4_4 Cl1_4 1_555 1_555
O5_4 Cl1_4 1_555 1_555
O6_4 Cl1_4 1_555 1_555
Cl1_5 O3_5 1_555 1_555
O4_5 Cl1_5 1_555 1_555
O5_5 Cl1_5 1_555 1_555
O6_5 Cl1_5 1_555 1_555
Cl1_6 O3_6 1_555 1_555
O4_6 Cl1_6 1_555 1_555
O5_6 Cl1_6 1_555 1_555
O6_6 Cl1_6 1_555 1_555
Cl1_7 O3_7 1_555 1_555
O4_7 Cl1_7 1_555 1_555
O5_7 Cl1_7 1_555 1_555
O6_7 Cl1_7 1_555 1_555
Cl1_8 O3_8 1_555 1_555
O4_8 Cl1_8 1_555 1_555
O5_8 Cl1_8 1_555 1_555
O6_8 Cl1_8 1_555 1_555
O8 Cl2 1_555 1_555
O9 Cl2 1_555 1_555
Cl2_2 O7 1_555 1_555
O10 Cl2_2 1_555 1_555
O8_2 Cl2_3 1_555 1_555
O9_2 Cl2_3 1_555 1_555
Cl2_4 O7_2 1_555 1_555
O10_2 Cl2_4 1_555 1_555
O8_3 Cl2_5 1_555 1_555
Cl2_6 O7_3 1_555 1_555
O9_3 Cl2_7 1_555 1_555
O10_3 Cl2_8 1_555 1_555
Cl2_9 O7_4 1_555 1_555
O8_4 Cl2_9 1_555 1_555
O9_4 Cl2_9 1_555 1_555
O10_4 Cl2_9 1_555 1_555
O9_5 Cl2_10 1_555 1_555
O10_5 Cl2_10 1_555 1_555
Cl2_11 O7_5 1_555 1_555
O8_5 Cl2_11 1_555 1_555
Cl2_12 O7_6 1_555 1_555
O8_6 Cl2_12 1_555 1_555
O9_6 Cl2_13 1_555 1_555
O10_6 Cl2_13 1_555 1_555
Cl2_14 O7_7 1_555 1_555
O8_7 Cl2_14 1_555 1_555
O9_7 Cl2_14 1_555 1_555
O10_7 Cl2_14 1_555 1_555
Cl2_15 O7_8 1_555 1_555
O10_8 Cl2_16 1_555 1_555
O8_8 Cl2_17 1_555 1_555
O9_8 Cl2_18 1_555 1_555

#END
