
###############################################################################
#
# This file contains modified crystal structure data generated from the
# MOF subset of the Cambridge Structural Database (CSD) v543 
# hosted by the Cambridge Crystallographic Data Centre (CCDC).
#
# This work is licensed under the Creative Commons
# Attribution-NonCommercial-ShareAlike 4.0 International License.
# To view a copy of this license, visit
# http://creativecommons.org/licenses/by-nc-sa/4.0/
# or send a letter to
# Creative Commons, PO Box 1866, Mountain View, CA 94042, USA.
#
# CIF created using the CSD Python API on 29 September 2022
# The structure has been converted into the P1 space group
# The structure has a 3D framework
# The original CSD entry QATXIU is in the cubic crystal system
# The framework has been calculated to contain at least 10.0% void space
# The void calculation uses a probe of radius 1.32A, grid spacing 0.4
# The framework is charged, counterions have been retained in the structure
#
###############################################################################

data_QATXIU
_chemical_formula_moiety         '(C960 H1056 Cd66 N96 O384 12+)n'
_symmetry_cell_setting           triclinic
_symmetry_space_group_name_H-M   'P 1'
_symmetry_Int_Tables_number      1
_space_group_name_Hall           'P 1'
loop_
_symmetry_equiv_pos_site_id
_symmetry_equiv_pos_as_xyz
1 x,y,z
_cell_length_a                   31.2009(10)
_cell_length_b                   31.2009(10)
_cell_length_c                   31.2009(10)
_cell_angle_alpha                90
_cell_angle_beta                 90
_cell_angle_gamma                90
_cell_volume                     30374
loop_
_atom_site_label
_atom_site_type_symbol
_atom_site_fract_x
_atom_site_fract_y
_atom_site_fract_z
Cd2 Cd 0.06204(5) 0.12044(5) 0.92395(5)
O4 O 0.0193(7) 0.1310(10) 0.9777(6)
O24 O 0.0896(4) 0.0533(4) 0.9464(4)
O31 O 0.0386(5) 0.0553(5) 0.9001(4)
O38 O 0.1196(4) 0.1494(4) 0.8997(4)
O45 O 0.0793(3) 0.1318(4) 0.8454(3)
Cd1 Cd 0.7500 0.1250 0.0000
C1 C 0.8807(4) 0.1644(4) 0.0064(4)
C2 C 0.8859(6) 0.2019(6) 0.0325(7)
H1 H 0.8639 0.2121 0.0498
C3 C 0.9267(6) 0.2228(6) 0.0305(8)
H2 H 0.9315 0.2494 0.0432
C4 C 0.9580(5) 0.2015(6) 0.0089(7)
H3 H 0.9852 0.2136 0.0097
C13 C 0.8373(5) 0.1455(5) 0.0065(4)
C15 C 0.9212(6) 0.0655(5) 0.0358(5)
O1 O 0.8311(3) 0.1074(3) 0.0091(4)
O2 O 0.8055(3) 0.1724(3) 0.0025(3)
O5 O 0.9464(4) 0.0896(4) 0.0533(4)
O6 O 0.9001(4) 0.0386(5) 0.0553(5)
Cd4 Cd 0.43796(5) 0.12044(5) 0.07605(5)
Cd5 Cd 0.82605(5) 0.12956(5) 0.31204(5)
Cd6 Cd 0.92395(5) 0.06204(5) 0.12044(5)
Cd9 Cd 0.62956(5) 0.18796(5) 0.17395(5)
C19 C 0.7436(4) 0.0856(4) 0.1307(4)
C22 C 0.7175(7) 0.0481(6) 0.1359(6)
H9 H 0.7002 0.0379 0.1139
C25 C 0.7195(8) 0.0272(6) 0.1767(6)
H12 H 0.7068 0.0006 0.1815
C28 C 0.7411(7) 0.0485(6) 0.2080(5)
H15 H 0.7403 0.0364 0.2352
C30 C 0.5460(5) 0.1657(4) 0.0131(5)
C31 C 0.7631(5) 0.0843(4) 0.2040(5)
C33 C 0.5846(4) 0.1462(4) 0.0141(4)
C34 C 0.7641(4) 0.1038(4) 0.1654(4)
C36 C 0.5882(4) 0.1027(4) 0.0370(4)
C37 C 0.7870(4) 0.1473(4) 0.1618(4)
C39 C 0.5818(4) 0.0649(4) 0.0124(4)
C40 C 0.7624(4) 0.1851(4) 0.1682(4)
C42 C 0.5840(5) 0.0257(4) 0.0324(6)
C43 C 0.7824(6) 0.2243(4) 0.1660(5)
H17 H 0.5800 0.0012 0.0160
H18 H 0.7660 0.2488 0.1700
C45 C 0.5919(5) 0.0210(5) 0.0765(7)
C46 C 0.8265(7) 0.2290(5) 0.1581(5)
H21 H 0.8396 0.2557 0.1568
C48 C 0.5974(4) 0.0583(6) 0.0985(5)
C49 C 0.8485(5) 0.1917(6) 0.1526(4)
H23 H 0.6028 0.0564 0.1278
H24 H 0.8778 0.1936 0.1472
C51 C 0.5957(4) 0.0985(4) 0.0810(5)
C52 C 0.8310(5) 0.1515(4) 0.1543(4)
C55 C 0.7435(4) 0.1045(5) 0.0873(5)
C57 C 0.5070(5) 0.1498(5) 0.0386(8)
C58 C 0.7886(8) 0.1002(5) 0.2430(5)
C61 C 0.7142(5) 0.1845(5) 0.1712(6)
C63 C 0.6044(5) 0.1358(5) 0.1114(6)
C64 C 0.8614(6) 0.1142(5) 0.1456(5)
O11 O 0.7409(4) 0.1426(3) 0.0811(3)
O14 O 0.7475(3) 0.0776(3) 0.0555(3)
O16 O 0.5038(7) 0.1497(7) 0.0740(5)
O17 O 0.8240(5) 0.1003(7) 0.2462(7)
O19 O 0.4807(7) 0.1310(10) 0.0223(6)
O20 O 0.7723(6) 0.1190(10) 0.2693(7)
O23 O 0.6967(4) 0.1604(4) 0.1964(4)
O26 O 0.4104(4) 0.0533(4) 0.0536(4)
O27 O 0.8036(4) 0.1967(4) 0.3396(4)
O30 O 0.6947(5) 0.2114(5) 0.1501(4)
O33 O 0.4614(5) 0.0553(5) 0.0999(4)
O34 O 0.8499(4) 0.1947(5) 0.2886(5)
O36 O 0.6006(4) 0.1304(4) 0.1497(4)
O37 O 0.8997(4) 0.1196(4) 0.1494(4)
O40 O 0.3804(4) 0.1494(4) 0.1003(4)
O41 O 0.8503(4) 0.1006(4) 0.3696(4)
O43 O 0.6182(4) 0.1707(3) 0.0954(3)
O44 O 0.8454(3) 0.0793(3) 0.1318(4)
O47 O 0.4207(3) 0.1318(4) 0.1546(3)
O48 O 0.9046(3) 0.1182(4) 0.3293(3)
Cd1_2 Cd 0.7500 0.1250 1.0000
C5 C 0.9540(5) 0.1657(4) 0.9869(5)
C6 C 0.9154(4) 0.1462(4) 0.9859(4)
C7 C 0.9118(4) 0.1027(4) 0.9630(4)
C8 C 0.9182(4) 0.0649(4) 0.9876(4)
C9 C 0.9160(5) 0.0257(4) 0.9676(6)
H4 H 0.9200 0.0012 0.9840
C10 C 0.9081(5) 0.0210(5) 0.9235(7)
C11 C 0.9026(4) 0.0583(6) 0.9015(5)
H6 H 0.8972 0.0564 0.8722
C12 C 0.9043(4) 0.0985(4) 0.9190(5)
C14 C 0.9930(5) 0.1498(5) 0.9614(8)
C16 C 0.8956(5) 0.1358(5) 0.8886(6)
O3 O 0.9962(7) 0.1497(7) 0.9260(5)
O7 O 0.8994(4) 0.1304(4) 0.8503(4)
O8 O 0.8818(4) 0.1707(3) 0.9046(3)
Cd3 Cd 0.67395(5) 0.12956(5) 0.68796(5)
Cd7 Cd 0.87044(5) 0.18796(5) 0.82605(5)
Cd8 Cd 0.57605(5) 0.06204(5) 0.87956(5)
C17 C 0.7564(4) 0.0856(4) 0.8693(4)
C18 C 0.6193(4) 0.1644(4) 0.9936(4)
C20 C 0.7825(7) 0.0481(6) 0.8641(6)
C21 C 0.6141(6) 0.2019(6) 0.9675(7)
H7 H 0.7998 0.0379 0.8861
H8 H 0.6361 0.2121 0.9502
C23 C 0.7805(8) 0.0272(6) 0.8233(6)
C24 C 0.5733(6) 0.2228(6) 0.9695(8)
H10 H 0.7932 0.0006 0.8185
H11 H 0.5685 0.2494 0.9568
C26 C 0.7589(7) 0.0485(6) 0.7920(5)
C27 C 0.5420(5) 0.2015(6) 0.9911(7)
H13 H 0.7597 0.0364 0.7648
H14 H 0.5148 0.2136 0.9903
C29 C 0.7369(5) 0.0843(4) 0.7960(5)
C32 C 0.7359(4) 0.1038(4) 0.8346(4)
C35 C 0.7130(4) 0.1473(4) 0.8382(4)
C38 C 0.7376(4) 0.1851(4) 0.8318(4)
C41 C 0.7176(6) 0.2243(4) 0.8340(5)
H16 H 0.7340 0.2488 0.8300
C44 C 0.6735(7) 0.2290(5) 0.8419(5)
H19 H 0.6604 0.2557 0.8432
C47 C 0.6515(5) 0.1917(6) 0.8474(4)
H22 H 0.6222 0.1936 0.8528
C50 C 0.6690(5) 0.1515(4) 0.8457(4)
C53 C 0.7565(4) 0.1045(5) 0.9127(5)
C54 C 0.6627(5) 0.1455(5) 0.9935(4)
C56 C 0.7114(8) 0.1002(5) 0.7570(5)
C59 C 0.7858(5) 0.1845(5) 0.8288(6)
C60 C 0.5788(6) 0.0655(5) 0.9642(5)
C62 C 0.6386(6) 0.1142(5) 0.8544(5)
O9 O 0.7591(4) 0.1426(3) 0.9189(3)
O10 O 0.6689(3) 0.1074(3) 0.9909(4)
O12 O 0.7525(3) 0.0776(3) 0.9445(3)
O13 O 0.6945(3) 0.1724(3) 0.9975(3)
O15 O 0.6760(5) 0.1003(7) 0.7538(7)
O18 O 0.7277(6) 0.1190(10) 0.7307(7)
O21 O 0.8033(4) 0.1604(4) 0.8036(4)
O22 O 0.5536(4) 0.0896(4) 0.9467(4)
O25 O 0.6964(4) 0.1967(4) 0.6604(4)
O28 O 0.8053(5) 0.2114(5) 0.8499(4)
O29 O 0.5999(4) 0.0386(5) 0.9447(5)
O32 O 0.6501(4) 0.1947(5) 0.7114(5)
O35 O 0.6003(4) 0.1196(4) 0.8506(4)
O39 O 0.6497(4) 0.1006(4) 0.6304(4)
O42 O 0.6546(3) 0.0793(3) 0.8682(4)
O46 O 0.5954(3) 0.1182(4) 0.6707(3)
Cd4_2 Cd 0.06204(5) 0.87956(5) 0.57605(5)
O19_2 O 0.0193(7) 0.8690(10) 0.5223(6)
O26_2 O 0.0896(4) 0.9467(4) 0.5536(4)
O33_2 O 0.0386(5) 0.9447(5) 0.5999(4)
O40_2 O 0.1196(4) 0.8506(4) 0.6003(4)
O47_2 O 0.0793(3) 0.8682(4) 0.6546(3)
Cd1_3 Cd 0.7500 0.8750 0.5000
Cd2_2 Cd 0.43796(5) 0.87956(5) 0.42395(5)
C1_2 C 0.6193(4) 0.8356(4) 0.5064(4)
C2_2 C 0.6141(6) 0.7981(6) 0.5325(7)
H1_2 H 0.6361 0.7879 0.5498
C3_2 C 0.5733(6) 0.7772(6) 0.5305(8)
H2_2 H 0.5685 0.7506 0.5432
C4_2 C 0.5420(5) 0.7985(6) 0.5089(7)
H3_2 H 0.5148 0.7864 0.5097
C5_2 C 0.5460(5) 0.8343(4) 0.4869(5)
C6_2 C 0.5846(4) 0.8538(4) 0.4859(4)
C7_2 C 0.5882(4) 0.8973(4) 0.4630(4)
C8_2 C 0.5818(4) 0.9351(4) 0.4876(4)
C9_2 C 0.5840(5) 0.9743(4) 0.4676(6)
H4_2 H 0.5800 0.9988 0.4840
C10_2 C 0.5919(5) 0.9790(5) 0.4235(7)
C11_2 C 0.5974(4) 0.9417(6) 0.4015(5)
H6_2 H 0.6028 0.9436 0.3722
C12_2 C 0.5957(4) 0.9015(4) 0.4190(5)
C13_2 C 0.6627(5) 0.8545(5) 0.5065(4)
C14_2 C 0.5070(5) 0.8502(5) 0.4614(8)
C15_2 C 0.5788(6) 0.9345(5) 0.5358(5)
C16_2 C 0.6044(5) 0.8642(5) 0.3886(6)
O1_2 O 0.6689(3) 0.8926(3) 0.5091(4)
O2_2 O 0.6945(3) 0.8276(3) 0.5025(3)
O3_2 O 0.5038(7) 0.8503(7) 0.4260(5)
O4_2 O 0.4807(7) 0.8690(10) 0.4777(6)
O5_2 O 0.5536(4) 0.9104(4) 0.5533(4)
O6_2 O 0.5999(4) 0.9614(5) 0.5553(5)
O7_2 O 0.6006(4) 0.8696(4) 0.3503(4)
O8_2 O 0.6182(4) 0.8293(3) 0.4046(3)
Cd3_2 Cd 0.82605(5) 0.87044(5) 0.18796(5)
Cd5_2 Cd 0.67395(5) 0.87044(5) 0.81204(5)
Cd6_2 Cd 0.57605(5) 0.93796(5) 0.62044(5)
Cd7_2 Cd 0.62956(5) 0.81204(5) 0.32605(5)
Cd8_2 Cd 0.92395(5) 0.93796(5) 0.37956(5)
Cd9_2 Cd 0.87044(5) 0.81204(5) 0.67395(5)
C17_2 C 0.7436(4) 0.9144(4) 0.3693(4)
C18_2 C 0.8807(4) 0.8356(4) 0.4936(4)
C19_2 C 0.7564(4) 0.9144(4) 0.6307(4)
C20_2 C 0.7175(7) 0.9519(6) 0.3641(6)
C21_2 C 0.8859(6) 0.7981(6) 0.4675(7)
C22_2 C 0.7825(7) 0.9519(6) 0.6359(6)
H7_2 H 0.7002 0.9621 0.3861
H8_2 H 0.8639 0.7879 0.4502
H9_2 H 0.7998 0.9621 0.6139
C23_2 C 0.7195(8) 0.9728(6) 0.3233(6)
C24_2 C 0.9267(6) 0.7772(6) 0.4695(8)
C25_2 C 0.7805(8) 0.9728(6) 0.6767(6)
H10_2 H 0.7068 0.9994 0.3185
H11_2 H 0.9315 0.7506 0.4568
H12_2 H 0.7932 0.9994 0.6815
C26_2 C 0.7411(7) 0.9515(6) 0.2920(5)
C27_2 C 0.9580(5) 0.7985(6) 0.4911(7)
C28_2 C 0.7589(7) 0.9515(6) 0.7080(5)
H13_2 H 0.7403 0.9636 0.2648
H14_2 H 0.9852 0.7864 0.4903
H15_2 H 0.7597 0.9636 0.7352
C29_2 C 0.7631(5) 0.9157(4) 0.2960(5)
C30_2 C 0.9540(5) 0.8343(4) 0.5131(5)
C31_2 C 0.7369(5) 0.9157(4) 0.7040(5)
C32_2 C 0.7641(4) 0.8962(4) 0.3346(4)
C33_2 C 0.9154(4) 0.8538(4) 0.5141(4)
C34_2 C 0.7359(4) 0.8962(4) 0.6654(4)
C35_2 C 0.7870(4) 0.8527(4) 0.3382(4)
C36_2 C 0.9118(4) 0.8973(4) 0.5370(4)
C37_2 C 0.7130(4) 0.8527(4) 0.6618(4)
C38_2 C 0.7624(4) 0.8149(4) 0.3318(4)
C39_2 C 0.9182(4) 0.9351(4) 0.5124(4)
C40_2 C 0.7376(4) 0.8149(4) 0.6682(4)
C41_2 C 0.7824(6) 0.7757(4) 0.3340(5)
C42_2 C 0.9160(5) 0.9743(4) 0.5324(6)
C43_2 C 0.7176(6) 0.7757(4) 0.6660(5)
H16_2 H 0.7660 0.7512 0.3300
H17_2 H 0.9200 0.9988 0.5160
H18_2 H 0.7340 0.7512 0.6700
C44_2 C 0.8265(7) 0.7710(5) 0.3419(5)
C45_2 C 0.9081(5) 0.9790(5) 0.5765(7)
C46_2 C 0.6735(7) 0.7710(5) 0.6581(5)
H19_2 H 0.8396 0.7443 0.3432
H21_2 H 0.6604 0.7443 0.6568
C47_2 C 0.8485(5) 0.8083(6) 0.3474(4)
C48_2 C 0.9026(4) 0.9417(6) 0.5985(5)
C49_2 C 0.6515(5) 0.8083(6) 0.6526(4)
H22_2 H 0.8778 0.8064 0.3528
H23_2 H 0.8972 0.9436 0.6278
H24_2 H 0.6222 0.8064 0.6472
C50_2 C 0.8310(5) 0.8485(4) 0.3457(4)
C51_2 C 0.9043(4) 0.9015(4) 0.5810(5)
C52_2 C 0.6690(5) 0.8485(4) 0.6543(4)
C53_2 C 0.7435(4) 0.8955(5) 0.4127(5)
C54_2 C 0.8373(5) 0.8545(5) 0.4935(4)
C55_2 C 0.7565(4) 0.8955(5) 0.5873(5)
C56_2 C 0.7886(8) 0.8998(5) 0.2570(5)
C57_2 C 0.9930(5) 0.8502(5) 0.5386(8)
C58_2 C 0.7114(8) 0.8998(5) 0.7430(5)
C59_2 C 0.7142(5) 0.8155(5) 0.3288(6)
C60_2 C 0.9212(6) 0.9345(5) 0.4642(5)
C61_2 C 0.7858(5) 0.8155(5) 0.6712(6)
C62_2 C 0.8614(6) 0.8858(5) 0.3544(5)
C63_2 C 0.8956(5) 0.8642(5) 0.6114(6)
C64_2 C 0.6386(6) 0.8858(5) 0.6456(5)
O9_2 O 0.7409(4) 0.8574(3) 0.4189(3)
O10_2 O 0.8311(3) 0.8926(3) 0.4909(4)
O11_2 O 0.7591(4) 0.8574(3) 0.5811(3)
O12_2 O 0.7475(3) 0.9224(3) 0.4445(3)
O13_2 O 0.8055(3) 0.8276(3) 0.4975(3)
O14_2 O 0.7525(3) 0.9224(3) 0.5555(3)
O15_2 O 0.8240(5) 0.8997(7) 0.2538(7)
O16_2 O 0.9962(7) 0.8503(7) 0.5740(5)
O17_2 O 0.6760(5) 0.8997(7) 0.7462(7)
O18_2 O 0.7723(6) 0.8810(10) 0.2307(7)
O20_2 O 0.7277(6) 0.8810(10) 0.7693(7)
O21_2 O 0.6967(4) 0.8396(4) 0.3036(4)
O22_2 O 0.9464(4) 0.9104(4) 0.4467(4)
O23_2 O 0.8033(4) 0.8396(4) 0.6964(4)
O24_2 O 0.4104(4) 0.9467(4) 0.4464(4)
O25_2 O 0.8036(4) 0.8033(4) 0.1604(4)
O27_2 O 0.6964(4) 0.8033(4) 0.8396(4)
O28_2 O 0.6947(5) 0.7886(5) 0.3499(4)
O29_2 O 0.9001(4) 0.9614(5) 0.4447(5)
O30_2 O 0.8053(5) 0.7886(5) 0.6501(4)
O31_2 O 0.4614(5) 0.9447(5) 0.4001(4)
O32_2 O 0.8499(4) 0.8053(5) 0.2114(5)
O34_2 O 0.6501(4) 0.8053(5) 0.7886(5)
O35_2 O 0.8997(4) 0.8804(4) 0.3506(4)
O36_2 O 0.8994(4) 0.8696(4) 0.6497(4)
O37_2 O 0.6003(4) 0.8804(4) 0.6494(4)
O38_2 O 0.3804(4) 0.8506(4) 0.3997(4)
O39_2 O 0.8503(4) 0.8994(4) 0.1304(4)
O41_2 O 0.6497(4) 0.8994(4) 0.8696(4)
O42_2 O 0.8454(3) 0.9207(3) 0.3682(4)
O43_2 O 0.8818(4) 0.8293(3) 0.5954(3)
O44_2 O 0.6546(3) 0.9207(3) 0.6318(4)
O45_2 O 0.4207(3) 0.8682(4) 0.3454(3)
O46_2 O 0.9046(3) 0.8818(4) 0.1707(3)
O48_2 O 0.5954(3) 0.8818(4) 0.8293(3)
Cd1_4 Cd 0.2500 0.6250 0.5000
C1_3 C 0.1193(4) 0.6644(4) 0.4936(4)
C2_3 C 0.1141(6) 0.7019(6) 0.4675(7)
H1_3 H 0.1361 0.7121 0.4502
C3_3 C 0.0733(6) 0.7228(6) 0.4695(8)
H2_3 H 0.0685 0.7494 0.4568
C4_3 C 0.0420(5) 0.7015(6) 0.4911(7)
H3_3 H 0.0148 0.7136 0.4903
C5_3 C 0.0460(5) 0.6657(4) 0.5131(5)
C6_3 C 0.0846(4) 0.6462(4) 0.5141(4)
C7_3 C 0.0882(4) 0.6027(4) 0.5370(4)
C8_3 C 0.0818(4) 0.5649(4) 0.5124(4)
C9_3 C 0.0840(5) 0.5257(4) 0.5324(6)
H4_3 H 0.0800 0.5012 0.5160
C10_3 C 0.0919(5) 0.5210(5) 0.5765(7)
H5 H 0.0932 0.4943 0.5896
C11_3 C 0.0974(4) 0.5583(6) 0.5985(5)
H6_3 H 0.1028 0.5564 0.6278
C12_3 C 0.0957(4) 0.5985(4) 0.5810(5)
C13_3 C 0.1627(5) 0.6455(5) 0.4935(4)
C14_3 C 0.0070(5) 0.6498(5) 0.5386(8)
C15_3 C 0.0788(6) 0.5655(5) 0.4642(5)
C16_3 C 0.1044(5) 0.6358(5) 0.6114(6)
O1_3 O 0.1689(3) 0.6074(3) 0.4909(4)
O2_3 O 0.1945(3) 0.6724(3) 0.4975(3)
O3_3 O 0.0038(7) 0.6497(7) 0.5740(5)
O5_3 O 0.0536(4) 0.5896(4) 0.4467(4)
O6_3 O 0.0999(4) 0.5386(5) 0.4447(5)
O7_3 O 0.1006(4) 0.6304(4) 0.6497(4)
O8_3 O 0.1182(4) 0.6707(3) 0.5954(3)
Cd3_3 Cd 0.32605(5) 0.62956(5) 0.81204(5)
Cd4_3 Cd 0.56204(5) 0.62044(5) 0.42395(5)
Cd5_3 Cd 0.17395(5) 0.62956(5) 0.18796(5)
Cd6_3 Cd 0.07605(5) 0.56204(5) 0.37956(5)
Cd7_3 Cd 0.12956(5) 0.68796(5) 0.67395(5)
Cd8_3 Cd 0.42395(5) 0.56204(5) 0.62044(5)
Cd9_3 Cd 0.37044(5) 0.68796(5) 0.32605(5)
C17_3 C 0.2436(4) 0.5856(4) 0.6307(4)
C18_3 C 0.3807(4) 0.6644(4) 0.5064(4)
C19_3 C 0.2564(4) 0.5856(4) 0.3693(4)
C20_3 C 0.2175(7) 0.5481(6) 0.6359(6)
C21_3 C 0.3859(6) 0.7019(6) 0.5325(7)
C22_3 C 0.2825(7) 0.5481(6) 0.3641(6)
H7_3 H 0.2002 0.5379 0.6139
H8_3 H 0.3639 0.7121 0.5498
H9_3 H 0.2998 0.5379 0.3861
C23_3 C 0.2195(8) 0.5272(6) 0.6767(6)
C24_3 C 0.4267(6) 0.7228(6) 0.5305(8)
C25_3 C 0.2805(8) 0.5272(6) 0.3233(6)
H10_3 H 0.2068 0.5006 0.6815
H11_3 H 0.4315 0.7494 0.5432
H12_3 H 0.2932 0.5006 0.3185
C26_3 C 0.2411(7) 0.5485(6) 0.7080(5)
C27_3 C 0.4580(5) 0.7015(6) 0.5089(7)
C28_3 C 0.2589(7) 0.5485(6) 0.2920(5)
H13_3 H 0.2403 0.5364 0.7352
H14_3 H 0.4852 0.7136 0.5097
H15_3 H 0.2597 0.5364 0.2648
C29_3 C 0.2631(5) 0.5843(4) 0.7040(5)
C30_3 C 0.4540(5) 0.6657(4) 0.4869(5)
C31_3 C 0.2369(5) 0.5843(4) 0.2960(5)
C32_3 C 0.2641(4) 0.6038(4) 0.6654(4)
C33_3 C 0.4154(4) 0.6462(4) 0.4859(4)
C34_3 C 0.2359(4) 0.6038(4) 0.3346(4)
C35_3 C 0.2870(4) 0.6473(4) 0.6618(4)
C36_3 C 0.4118(4) 0.6027(4) 0.4630(4)
C37_3 C 0.2130(4) 0.6473(4) 0.3382(4)
C38_3 C 0.2624(4) 0.6851(4) 0.6682(4)
C39_3 C 0.4182(4) 0.5649(4) 0.4876(4)
C40_3 C 0.2376(4) 0.6851(4) 0.3318(4)
C41_3 C 0.2824(6) 0.7243(4) 0.6660(5)
C42_3 C 0.4160(5) 0.5257(4) 0.4676(6)
C43_3 C 0.2176(6) 0.7243(4) 0.3340(5)
H16_3 H 0.2660 0.7488 0.6700
H17_3 H 0.4200 0.5012 0.4840
H18_3 H 0.2340 0.7488 0.3300
C44_3 C 0.3265(7) 0.7290(5) 0.6581(5)
C45_3 C 0.4081(5) 0.5210(5) 0.4235(7)
C46_3 C 0.1735(7) 0.7290(5) 0.3419(5)
H19_3 H 0.3396 0.7557 0.6568
H20 H 0.4068 0.4943 0.4104
H21_3 H 0.1604 0.7557 0.3432
C47_3 C 0.3485(5) 0.6917(6) 0.6526(4)
C48_3 C 0.4026(4) 0.5583(6) 0.4015(5)
C49_3 C 0.1515(5) 0.6917(6) 0.3474(4)
H22_3 H 0.3778 0.6936 0.6472
H23_3 H 0.3972 0.5564 0.3722
H24_3 H 0.1222 0.6936 0.3528
C50_3 C 0.3310(5) 0.6515(4) 0.6543(4)
C51_3 C 0.4043(4) 0.5985(4) 0.4190(5)
C52_3 C 0.1690(5) 0.6515(4) 0.3457(4)
C53_3 C 0.2435(4) 0.6045(5) 0.5873(5)
C54_3 C 0.3373(5) 0.6455(5) 0.5065(4)
C55_3 C 0.2565(4) 0.6045(5) 0.4127(5)
C56_3 C 0.2886(8) 0.6002(5) 0.7430(5)
C57_3 C 0.4930(5) 0.6498(5) 0.4614(8)
C58_3 C 0.2114(8) 0.6002(5) 0.2570(5)
C59_3 C 0.2142(5) 0.6845(5) 0.6712(6)
C60_3 C 0.4212(6) 0.5655(5) 0.5358(5)
C61_3 C 0.2858(5) 0.6845(5) 0.3288(6)
C62_3 C 0.3614(6) 0.6142(5) 0.6456(5)
C63_3 C 0.3956(5) 0.6358(5) 0.3886(6)
C64_3 C 0.1386(6) 0.6142(5) 0.3544(5)
O9_3 O 0.2409(4) 0.6426(3) 0.5811(3)
O10_3 O 0.3311(3) 0.6074(3) 0.5091(4)
O11_3 O 0.2591(4) 0.6426(3) 0.4189(3)
O12_3 O 0.2475(3) 0.5776(3) 0.5555(3)
O13_3 O 0.3055(3) 0.6724(3) 0.5025(3)
O14_3 O 0.2525(3) 0.5776(3) 0.4445(3)
O15_3 O 0.3240(5) 0.6003(7) 0.7462(7)
O16_3 O 0.4962(7) 0.6497(7) 0.4260(5)
O17_3 O 0.1760(5) 0.6003(7) 0.2538(7)
O18_3 O 0.2723(6) 0.6190(10) 0.7693(7)
O19_3 O 0.5193(7) 0.6310(10) 0.4777(6)
O20_3 O 0.2277(6) 0.6190(10) 0.2307(7)
O21_3 O 0.1967(4) 0.6604(4) 0.6964(4)
O22_3 O 0.4464(4) 0.5896(4) 0.5533(4)
O23_3 O 0.3033(4) 0.6604(4) 0.3036(4)
O25_3 O 0.3036(4) 0.6967(4) 0.8396(4)
O26_3 O 0.5896(4) 0.5533(4) 0.4464(4)
O27_3 O 0.1964(4) 0.6967(4) 0.1604(4)
O28_3 O 0.1947(5) 0.7114(5) 0.6501(4)
O29_3 O 0.4001(4) 0.5386(5) 0.5553(5)
O30_3 O 0.3053(5) 0.7114(5) 0.3499(4)
O32_3 O 0.3499(4) 0.6947(5) 0.7886(5)
O33_3 O 0.5386(5) 0.5553(5) 0.4001(4)
O34_3 O 0.1501(4) 0.6947(5) 0.2114(5)
O35_3 O 0.3997(4) 0.6196(4) 0.6494(4)
O36_3 O 0.3994(4) 0.6304(4) 0.3503(4)
O37_3 O 0.1003(4) 0.6196(4) 0.3506(4)
O39_3 O 0.3503(4) 0.6006(4) 0.8696(4)
O40_3 O 0.6196(4) 0.6494(4) 0.3997(4)
O41_3 O 0.1497(4) 0.6006(4) 0.1304(4)
O42_3 O 0.3454(3) 0.5793(3) 0.6318(4)
O43_3 O 0.3818(4) 0.6707(3) 0.4046(3)
O44_3 O 0.1546(3) 0.5793(3) 0.3682(4)
O46_3 O 0.4046(3) 0.6182(4) 0.8293(3)
O47_3 O 0.5793(3) 0.6318(4) 0.3454(3)
O48_3 O 0.0954(3) 0.6182(4) 0.1707(3)
Cd2_3 Cd 0.93796(5) 0.62044(5) 0.57605(5)
O4_3 O 0.9807(7) 0.6310(10) 0.5223(6)
O24_3 O 0.9104(4) 0.5533(4) 0.5536(4)
O31_3 O 0.9614(5) 0.5553(5) 0.5999(4)
O38_3 O 0.8804(4) 0.6494(4) 0.6003(4)
O45_3 O 0.9207(3) 0.6318(4) 0.6546(3)
Cd1_5 Cd 0.2500 0.3750 0.0000
Cd2_4 Cd 0.56204(5) 0.37956(5) 0.07605(5)
C5_4 C 0.4540(5) 0.3343(4) 0.0131(5)
C6_4 C 0.4154(4) 0.3538(4) 0.0141(4)
C7_4 C 0.4118(4) 0.3973(4) 0.0370(4)
C8_4 C 0.4182(4) 0.4351(4) 0.0124(4)
C9_4 C 0.4160(5) 0.4743(4) 0.0324(6)
H4_4 H 0.4200 0.4988 0.0160
C10_4 C 0.4081(5) 0.4790(5) 0.0765(7)
H5_2 H 0.4068 0.5057 0.0896
C11_4 C 0.4026(4) 0.4417(6) 0.0985(5)
H6_4 H 0.3972 0.4436 0.1278
C12_4 C 0.4043(4) 0.4015(4) 0.0810(5)
C14_4 C 0.4930(5) 0.3502(5) 0.0386(8)
C16_4 C 0.3956(5) 0.3642(5) 0.1114(6)
O3_4 O 0.4962(7) 0.3503(7) 0.0740(5)
O4_4 O 0.5193(7) 0.3690(10) 0.0223(6)
O7_4 O 0.3994(4) 0.3696(4) 0.1497(4)
O8_4 O 0.3818(4) 0.3293(3) 0.0954(3)
Cd3_4 Cd 0.17395(5) 0.37044(5) 0.31204(5)
Cd7_4 Cd 0.37044(5) 0.31204(5) 0.17395(5)
Cd8_4 Cd 0.07605(5) 0.43796(5) 0.12044(5)
C17_4 C 0.2564(4) 0.4144(4) 0.1307(4)
C18_4 C 0.1193(4) 0.3356(4) 0.0064(4)
C20_4 C 0.2825(7) 0.4519(6) 0.1359(6)
C21_4 C 0.1141(6) 0.2981(6) 0.0325(7)
H7_4 H 0.2998 0.4621 0.1139
H8_4 H 0.1361 0.2879 0.0498
C23_4 C 0.2805(8) 0.4728(6) 0.1767(6)
C24_4 C 0.0733(6) 0.2772(6) 0.0305(8)
H10_4 H 0.2932 0.4994 0.1815
H11_4 H 0.0685 0.2506 0.0432
C26_4 C 0.2589(7) 0.4515(6) 0.2080(5)
C27_4 C 0.0420(5) 0.2985(6) 0.0089(7)
H13_4 H 0.2597 0.4636 0.2352
H14_4 H 0.0148 0.2864 0.0097
C29_4 C 0.2369(5) 0.4157(4) 0.2040(5)
C32_4 C 0.2359(4) 0.3962(4) 0.1654(4)
C35_4 C 0.2130(4) 0.3527(4) 0.1618(4)
C38_4 C 0.2376(4) 0.3149(4) 0.1682(4)
C41_4 C 0.2176(6) 0.2757(4) 0.1660(5)
H16_4 H 0.2340 0.2512 0.1700
C44_4 C 0.1735(7) 0.2710(5) 0.1581(5)
H19_4 H 0.1604 0.2443 0.1568
C47_4 C 0.1515(5) 0.3083(6) 0.1526(4)
H22_4 H 0.1222 0.3064 0.1472
C50_4 C 0.1690(5) 0.3485(4) 0.1543(4)
C53_4 C 0.2565(4) 0.3955(5) 0.0873(5)
C54_4 C 0.1627(5) 0.3545(5) 0.0065(4)
C56_4 C 0.2114(8) 0.3998(5) 0.2430(5)
C59_4 C 0.2858(5) 0.3155(5) 0.1712(6)
C60_4 C 0.0788(6) 0.4345(5) 0.0358(5)
C62_4 C 0.1386(6) 0.3858(5) 0.1456(5)
O9_4 O 0.2591(4) 0.3574(3) 0.0811(3)
O10_4 O 0.1689(3) 0.3926(3) 0.0091(4)
O12_4 O 0.2525(3) 0.4224(3) 0.0555(3)
O13_4 O 0.1945(3) 0.3276(3) 0.0025(3)
O15_4 O 0.1760(5) 0.3997(7) 0.2462(7)
O18_4 O 0.2277(6) 0.3810(10) 0.2693(7)
O21_4 O 0.3033(4) 0.3396(4) 0.1964(4)
O22_4 O 0.0536(4) 0.4104(4) 0.0533(4)
O24_4 O 0.5896(4) 0.4467(4) 0.0536(4)
O25_4 O 0.1964(4) 0.3033(4) 0.3396(4)
O28_4 O 0.3053(5) 0.2886(5) 0.1501(4)
O29_4 O 0.0999(4) 0.4614(5) 0.0553(5)
O31_4 O 0.5386(5) 0.4447(5) 0.0999(4)
O32_4 O 0.1501(4) 0.3053(5) 0.2886(5)
O35_4 O 0.1003(4) 0.3804(4) 0.1494(4)
O38_4 O 0.6196(4) 0.3506(4) 0.1003(4)
O39_4 O 0.1497(4) 0.3994(4) 0.3696(4)
O42_4 O 0.1546(3) 0.4207(3) 0.1318(4)
O45_4 O 0.5793(3) 0.3682(4) 0.1546(3)
O46_4 O 0.0954(3) 0.3818(4) 0.3293(3)
Cd1_6 Cd 0.2500 0.3750 1.0000
C1_4 C 0.3807(4) 0.3356(4) 0.9936(4)
C2_4 C 0.3859(6) 0.2981(6) 0.9675(7)
H1_4 H 0.3639 0.2879 0.9502
C3_4 C 0.4267(6) 0.2772(6) 0.9695(8)
H2_4 H 0.4315 0.2506 0.9568
C4_4 C 0.4580(5) 0.2985(6) 0.9911(7)
H3_4 H 0.4852 0.2864 0.9903
C13_4 C 0.3373(5) 0.3545(5) 0.9935(4)
C15_4 C 0.4212(6) 0.4345(5) 0.9642(5)
O1_4 O 0.3311(3) 0.3926(3) 0.9909(4)
O2_4 O 0.3055(3) 0.3276(3) 0.9975(3)
O5_4 O 0.4464(4) 0.4104(4) 0.9467(4)
O6_4 O 0.4001(4) 0.4614(5) 0.9447(5)
Cd5_4 Cd 0.32605(5) 0.37044(5) 0.68796(5)
Cd6_4 Cd 0.42395(5) 0.43796(5) 0.87956(5)
Cd9_4 Cd 0.12956(5) 0.31204(5) 0.82605(5)
C19_4 C 0.2436(4) 0.4144(4) 0.8693(4)
C22_4 C 0.2175(7) 0.4519(6) 0.8641(6)
H9_4 H 0.2002 0.4621 0.8861
C25_4 C 0.2195(8) 0.4728(6) 0.8233(6)
H12_4 H 0.2068 0.4994 0.8185
C28_4 C 0.2411(7) 0.4515(6) 0.7920(5)
H15_4 H 0.2403 0.4636 0.7648
C30_4 C 0.0460(5) 0.3343(4) 0.9869(5)
C31_4 C 0.2631(5) 0.4157(4) 0.7960(5)
C33_4 C 0.0846(4) 0.3538(4) 0.9859(4)
C34_4 C 0.2641(4) 0.3962(4) 0.8346(4)
C36_4 C 0.0882(4) 0.3973(4) 0.9630(4)
C37_4 C 0.2870(4) 0.3527(4) 0.8382(4)
C39_4 C 0.0818(4) 0.4351(4) 0.9876(4)
C40_4 C 0.2624(4) 0.3149(4) 0.8318(4)
C42_4 C 0.0840(5) 0.4743(4) 0.9676(6)
C43_4 C 0.2824(6) 0.2757(4) 0.8340(5)
H17_4 H 0.0800 0.4988 0.9840
H18_4 H 0.2660 0.2512 0.8300
C45_4 C 0.0919(5) 0.4790(5) 0.9235(7)
C46_4 C 0.3265(7) 0.2710(5) 0.8419(5)
H20_2 H 0.0932 0.5057 0.9104
H21_4 H 0.3396 0.2443 0.8432
C48_4 C 0.0974(4) 0.4417(6) 0.9015(5)
C49_4 C 0.3485(5) 0.3083(6) 0.8474(4)
H23_4 H 0.1028 0.4436 0.8722
H24_4 H 0.3778 0.3064 0.8528
C51_4 C 0.0957(4) 0.4015(4) 0.9190(5)
C52_4 C 0.3310(5) 0.3485(4) 0.8457(4)
C55_4 C 0.2435(4) 0.3955(5) 0.9127(5)
C57_4 C 0.0070(5) 0.3502(5) 0.9614(8)
C58_4 C 0.2886(8) 0.3998(5) 0.7570(5)
C61_4 C 0.2142(5) 0.3155(5) 0.8288(6)
C63_4 C 0.1044(5) 0.3642(5) 0.8886(6)
C64_4 C 0.3614(6) 0.3858(5) 0.8544(5)
O11_4 O 0.2409(4) 0.3574(3) 0.9189(3)
O14_4 O 0.2475(3) 0.4224(3) 0.9445(3)
O16_4 O 0.0038(7) 0.3503(7) 0.9260(5)
O17_4 O 0.3240(5) 0.3997(7) 0.7538(7)
O20_4 O 0.2723(6) 0.3810(10) 0.7307(7)
O23_4 O 0.1967(4) 0.3396(4) 0.8036(4)
O27_4 O 0.3036(4) 0.3033(4) 0.6604(4)
O30_4 O 0.1947(5) 0.2886(5) 0.8499(4)
O34_4 O 0.3499(4) 0.3053(5) 0.7114(5)
O36_4 O 0.1006(4) 0.3696(4) 0.8503(4)
O37_4 O 0.3997(4) 0.3804(4) 0.8506(4)
O41_4 O 0.3503(4) 0.3994(4) 0.6304(4)
O43_4 O 0.1182(4) 0.3293(3) 0.9046(3)
O44_4 O 0.3454(3) 0.4207(3) 0.8682(4)
O48_4 O 0.4046(3) 0.3818(4) 0.6707(3)
Cd4_4 Cd 0.93796(5) 0.37956(5) 0.92395(5)
O19_4 O 0.9807(7) 0.3690(10) 0.9777(6)
O26_4 O 0.9104(4) 0.4467(4) 0.9464(4)
O33_4 O 0.9614(5) 0.4447(5) 0.9001(4)
O40_4 O 0.8804(4) 0.3506(4) 0.8997(4)
O47_4 O 0.9207(3) 0.3682(4) 0.8454(3)
Cd1_7 Cd 0.0000 0.7500 0.1250
C1_5 C 0.0064(4) 0.8807(4) 0.1644(4)
C2_5 C 0.0325(7) 0.8859(6) 0.2019(6)
H1_5 H 0.0498 0.8639 0.2121
C3_5 C 0.0305(8) 0.9267(6) 0.2228(6)
H2_5 H 0.0432 0.9315 0.2494
C4_5 C 0.0089(7) 0.9580(5) 0.2015(6)
H3_5 H 0.0097 0.9852 0.2136
C13_5 C 0.0065(4) 0.8373(5) 0.1455(5)
C15_5 C 0.0358(5) 0.9212(6) 0.0655(5)
O1_5 O 0.0091(4) 0.8311(3) 0.1074(3)
O2_5 O 0.0025(3) 0.8055(3) 0.1724(3)
O5_5 O 0.0533(4) 0.9464(4) 0.0896(4)
O6_5 O 0.0553(5) 0.9001(4) 0.0386(5)
Cd5_5 Cd 0.31204(5) 0.82605(5) 0.12956(5)
Cd6_5 Cd 0.12044(5) 0.92395(5) 0.06204(5)
C19_5 C 0.1307(4) 0.7436(4) 0.0856(4)
C22_5 C 0.1359(6) 0.7175(7) 0.0481(6)
H9_5 H 0.1139 0.7002 0.0379
C25_5 C 0.1767(6) 0.7195(8) 0.0272(6)
H12_5 H 0.1815 0.7068 0.0006
C28_5 C 0.2080(5) 0.7411(7) 0.0485(6)
H15_5 H 0.2352 0.7403 0.0364
C30_5 C 0.0131(5) 0.5460(5) 0.1657(4)
C31_5 C 0.2040(5) 0.7631(5) 0.0843(4)
C33_5 C 0.0141(4) 0.5846(4) 0.1462(4)
C34_5 C 0.1654(4) 0.7641(4) 0.1038(4)
C36_5 C 0.0370(4) 0.5882(4) 0.1027(4)
C37_5 C 0.1618(4) 0.7870(4) 0.1473(4)
C39_5 C 0.0124(4) 0.5818(4) 0.0649(4)
C40_5 C 0.1682(4) 0.7624(4) 0.1851(4)
C42_5 C 0.0324(6) 0.5840(5) 0.0257(4)
C43_5 C 0.1660(5) 0.7824(6) 0.2243(4)
H17_5 H 0.0160 0.5800 0.0012
H18_5 H 0.1700 0.7660 0.2488
C45_5 C 0.0765(7) 0.5919(5) 0.0210(5)
C46_5 C 0.1581(5) 0.8265(7) 0.2290(5)
H21_5 H 0.1568 0.8396 0.2557
C48_5 C 0.0985(5) 0.5974(4) 0.0583(6)
C49_5 C 0.1526(4) 0.8485(5) 0.1917(6)
H23_5 H 0.1278 0.6028 0.0564
H24_5 H 0.1472 0.8778 0.1936
C51_5 C 0.0810(5) 0.5957(4) 0.0985(4)
C52_5 C 0.1543(4) 0.8310(5) 0.1515(4)
C55_5 C 0.0873(5) 0.7435(4) 0.1045(5)
C57_5 C 0.0386(8) 0.5070(5) 0.1498(5)
C58_5 C 0.2430(5) 0.7886(8) 0.1002(5)
C61_5 C 0.1712(6) 0.7142(5) 0.1845(5)
C63_5 C 0.1114(6) 0.6044(5) 0.1358(5)
C64_5 C 0.1456(5) 0.8614(6) 0.1142(5)
O11_5 O 0.0811(3) 0.7409(4) 0.1426(3)
O14_5 O 0.0555(3) 0.7475(3) 0.0776(3)
O16_5 O 0.0740(5) 0.5038(7) 0.1497(7)
O17_5 O 0.2462(7) 0.8240(5) 0.1003(7)
O19_5 O 0.0223(6) 0.4807(7) 0.1310(10)
O20_5 O 0.2693(7) 0.7723(6) 0.1190(10)
O27_5 O 0.3396(4) 0.8036(4) 0.1967(4)
O34_5 O 0.2886(5) 0.8499(4) 0.1947(5)
O37_5 O 0.1494(4) 0.8997(4) 0.1196(4)
O41_5 O 0.3696(4) 0.8503(4) 0.1006(4)
O44_5 O 0.1318(4) 0.8454(3) 0.0793(3)
O48_5 O 0.3293(3) 0.9046(3) 0.1182(4)
O4_5 O 0.9777(6) 0.0193(7) 0.1310(10)
Cd1_8 Cd 1.0000 0.7500 0.1250
C5_5 C 0.9869(5) 0.9540(5) 0.1657(4)
C6_5 C 0.9859(4) 0.9154(4) 0.1462(4)
C7_5 C 0.9630(4) 0.9118(4) 0.1027(4)
C8_5 C 0.9876(4) 0.9182(4) 0.0649(4)
C9_5 C 0.9676(6) 0.9160(5) 0.0257(4)
H4_5 H 0.9840 0.9200 0.0012
C10_5 C 0.9235(7) 0.9081(5) 0.0210(5)
C11_5 C 0.9015(5) 0.9026(4) 0.0583(6)
H6_5 H 0.8722 0.8972 0.0564
C12_5 C 0.9190(5) 0.9043(4) 0.0985(4)
C14_5 C 0.9614(8) 0.9930(5) 0.1498(5)
C16_5 C 0.8886(6) 0.8956(5) 0.1358(5)
O3_5 O 0.9260(5) 0.9962(7) 0.1497(7)
Cd3_5 Cd 0.68796(5) 0.67395(5) 0.12956(5)
Cd8_5 Cd 0.87956(5) 0.57605(5) 0.06204(5)
C17_5 C 0.8693(4) 0.7564(4) 0.0856(4)
C18_5 C 0.9936(4) 0.6193(4) 0.1644(4)
C20_5 C 0.8641(6) 0.7825(7) 0.0481(6)
C21_5 C 0.9675(7) 0.6141(6) 0.2019(6)
H7_5 H 0.8861 0.7998 0.0379
H8_5 H 0.9502 0.6361 0.2121
C23_5 C 0.8233(6) 0.7805(8) 0.0272(6)
C24_5 C 0.9695(8) 0.5733(6) 0.2228(6)
H10_5 H 0.8185 0.7932 0.0006
H11_5 H 0.9568 0.5685 0.2494
C26_5 C 0.7920(5) 0.7589(7) 0.0485(6)
C27_5 C 0.9911(7) 0.5420(5) 0.2015(6)
H13_5 H 0.7648 0.7597 0.0364
H14_5 H 0.9903 0.5148 0.2136
C29_5 C 0.7960(5) 0.7369(5) 0.0843(4)
C32_5 C 0.8346(4) 0.7359(4) 0.1038(4)
C35_5 C 0.8382(4) 0.7130(4) 0.1473(4)
C38_5 C 0.8318(4) 0.7376(4) 0.1851(4)
C41_5 C 0.8340(5) 0.7176(6) 0.2243(4)
H16_5 H 0.8300 0.7340 0.2488
C44_5 C 0.8419(5) 0.6735(7) 0.2290(5)
H19_5 H 0.8432 0.6604 0.2557
C47_5 C 0.8474(4) 0.6515(5) 0.1917(6)
H22_5 H 0.8528 0.6222 0.1936
C50_5 C 0.8457(4) 0.6690(5) 0.1515(4)
C53_5 C 0.9127(5) 0.7565(4) 0.1045(5)
C54_5 C 0.9935(4) 0.6627(5) 0.1455(5)
C56_5 C 0.7570(5) 0.7114(8) 0.1002(5)
C59_5 C 0.8288(6) 0.7858(5) 0.1845(5)
C60_5 C 0.9642(5) 0.5788(6) 0.0655(5)
C62_5 C 0.8544(5) 0.6386(6) 0.1142(5)
O9_5 O 0.9189(3) 0.7591(4) 0.1426(3)
O10_5 O 0.9909(4) 0.6689(3) 0.1074(3)
O12_5 O 0.9445(3) 0.7525(3) 0.0776(3)
O13_5 O 0.9975(3) 0.6945(3) 0.1724(3)
O15_5 O 0.7538(7) 0.6760(5) 0.1003(7)
O18_5 O 0.7307(7) 0.7277(6) 0.1190(10)
O22_5 O 0.9467(4) 0.5536(4) 0.0896(4)
O25_5 O 0.6604(4) 0.6964(4) 0.1967(4)
O29_5 O 0.9447(5) 0.5999(4) 0.0386(5)
O32_5 O 0.7114(5) 0.6501(4) 0.1947(5)
O35_5 O 0.8506(4) 0.6003(4) 0.1196(4)
O39_5 O 0.6304(4) 0.6497(4) 0.1006(4)
O42_5 O 0.8682(4) 0.6546(3) 0.0793(3)
O46_5 O 0.6707(3) 0.5954(3) 0.1182(4)
O19_6 O 0.5223(6) 0.0193(7) 0.8690(10)
Cd1_9 Cd 0.5000 0.7500 0.8750
C1_6 C 0.5064(4) 0.6193(4) 0.8356(4)
C2_6 C 0.5325(7) 0.6141(6) 0.7981(6)
H1_6 H 0.5498 0.6361 0.7879
C3_6 C 0.5305(8) 0.5733(6) 0.7772(6)
H2_6 H 0.5432 0.5685 0.7506
C4_6 C 0.5089(7) 0.5420(5) 0.7985(6)
H3_6 H 0.5097 0.5148 0.7864
C5_6 C 0.4869(5) 0.5460(5) 0.8343(4)
C6_6 C 0.4859(4) 0.5846(4) 0.8538(4)
C7_6 C 0.4630(4) 0.5882(4) 0.8973(4)
C8_6 C 0.4876(4) 0.5818(4) 0.9351(4)
C9_6 C 0.4676(6) 0.5840(5) 0.9743(4)
H4_6 H 0.4840 0.5800 0.9988
C10_6 C 0.4235(7) 0.5919(5) 0.9790(5)
C11_6 C 0.4015(5) 0.5974(4) 0.9417(6)
H6_6 H 0.3722 0.6028 0.9436
C12_6 C 0.4190(5) 0.5957(4) 0.9015(4)
C13_6 C 0.5065(4) 0.6627(5) 0.8545(5)
C14_6 C 0.4614(8) 0.5070(5) 0.8502(5)
C15_6 C 0.5358(5) 0.5788(6) 0.9345(5)
C16_6 C 0.3886(6) 0.6044(5) 0.8642(5)
O1_6 O 0.5091(4) 0.6689(3) 0.8926(3)
O2_6 O 0.5025(3) 0.6945(3) 0.8276(3)
O3_6 O 0.4260(5) 0.5038(7) 0.8503(7)
O4_6 O 0.4777(6) 0.4807(7) 0.8690(10)
O5_6 O 0.5533(4) 0.5536(4) 0.9104(4)
O6_6 O 0.5553(5) 0.5999(4) 0.9614(5)
Cd3_6 Cd 0.18796(5) 0.82605(5) 0.87044(5)
Cd5_6 Cd 0.81204(5) 0.67395(5) 0.87044(5)
Cd6_6 Cd 0.62044(5) 0.57605(5) 0.93796(5)
Cd8_6 Cd 0.37956(5) 0.92395(5) 0.93796(5)
C17_6 C 0.3693(4) 0.7436(4) 0.9144(4)
C18_6 C 0.4936(4) 0.8807(4) 0.8356(4)
C19_6 C 0.6307(4) 0.7564(4) 0.9144(4)
C20_6 C 0.3641(6) 0.7175(7) 0.9519(6)
C21_6 C 0.4675(7) 0.8859(6) 0.7981(6)
C22_6 C 0.6359(6) 0.7825(7) 0.9519(6)
H7_6 H 0.3861 0.7002 0.9621
H8_6 H 0.4502 0.8639 0.7879
H9_6 H 0.6139 0.7998 0.9621
C23_6 C 0.3233(6) 0.7195(8) 0.9728(6)
C24_6 C 0.4695(8) 0.9267(6) 0.7772(6)
C25_6 C 0.6767(6) 0.7805(8) 0.9728(6)
H10_6 H 0.3185 0.7068 0.9994
H11_6 H 0.4568 0.9315 0.7506
H12_6 H 0.6815 0.7932 0.9994
C26_6 C 0.2920(5) 0.7411(7) 0.9515(6)
C27_6 C 0.4911(7) 0.9580(5) 0.7985(6)
C28_6 C 0.7080(5) 0.7589(7) 0.9515(6)
H13_6 H 0.2648 0.7403 0.9636
H14_6 H 0.4903 0.9852 0.7864
H15_6 H 0.7352 0.7597 0.9636
C29_6 C 0.2960(5) 0.7631(5) 0.9157(4)
C30_6 C 0.5131(5) 0.9540(5) 0.8343(4)
C31_6 C 0.7040(5) 0.7369(5) 0.9157(4)
C32_6 C 0.3346(4) 0.7641(4) 0.8962(4)
C33_6 C 0.5141(4) 0.9154(4) 0.8538(4)
C34_6 C 0.6654(4) 0.7359(4) 0.8962(4)
C35_6 C 0.3382(4) 0.7870(4) 0.8527(4)
C36_6 C 0.5370(4) 0.9118(4) 0.8973(4)
C37_6 C 0.6618(4) 0.7130(4) 0.8527(4)
C38_6 C 0.3318(4) 0.7624(4) 0.8149(4)
C39_6 C 0.5124(4) 0.9182(4) 0.9351(4)
C40_6 C 0.6682(4) 0.7376(4) 0.8149(4)
C41_6 C 0.3340(5) 0.7824(6) 0.7757(4)
C42_6 C 0.5324(6) 0.9160(5) 0.9743(4)
C43_6 C 0.6660(5) 0.7176(6) 0.7757(4)
H16_6 H 0.3300 0.7660 0.7512
H17_6 H 0.5160 0.9200 0.9988
H18_6 H 0.6700 0.7340 0.7512
C44_6 C 0.3419(5) 0.8265(7) 0.7710(5)
C45_6 C 0.5765(7) 0.9081(5) 0.9790(5)
C46_6 C 0.6581(5) 0.6735(7) 0.7710(5)
H19_6 H 0.3432 0.8396 0.7443
H21_6 H 0.6568 0.6604 0.7443
C47_6 C 0.3474(4) 0.8485(5) 0.8083(6)
C48_6 C 0.5985(5) 0.9026(4) 0.9417(6)
C49_6 C 0.6526(4) 0.6515(5) 0.8083(6)
H22_6 H 0.3528 0.8778 0.8064
H23_6 H 0.6278 0.8972 0.9436
H24_6 H 0.6472 0.6222 0.8064
C50_6 C 0.3457(4) 0.8310(5) 0.8485(4)
C51_6 C 0.5810(5) 0.9043(4) 0.9015(4)
C52_6 C 0.6543(4) 0.6690(5) 0.8485(4)
C53_6 C 0.4127(5) 0.7435(4) 0.8955(5)
C54_6 C 0.4935(4) 0.8373(5) 0.8545(5)
C55_6 C 0.5873(5) 0.7565(4) 0.8955(5)
C56_6 C 0.2570(5) 0.7886(8) 0.8998(5)
C57_6 C 0.5386(8) 0.9930(5) 0.8502(5)
C58_6 C 0.7430(5) 0.7114(8) 0.8998(5)
C59_6 C 0.3288(6) 0.7142(5) 0.8155(5)
C60_6 C 0.4642(5) 0.9212(6) 0.9345(5)
C61_6 C 0.6712(6) 0.7858(5) 0.8155(5)
C62_6 C 0.3544(5) 0.8614(6) 0.8858(5)
C63_6 C 0.6114(6) 0.8956(5) 0.8642(5)
C64_6 C 0.6456(5) 0.6386(6) 0.8858(5)
O9_6 O 0.4189(3) 0.7409(4) 0.8574(3)
O10_6 O 0.4909(4) 0.8311(3) 0.8926(3)
O11_6 O 0.5811(3) 0.7591(4) 0.8574(3)
O12_6 O 0.4445(3) 0.7475(3) 0.9224(3)
O13_6 O 0.4975(3) 0.8055(3) 0.8276(3)
O14_6 O 0.5555(3) 0.7525(3) 0.9224(3)
O15_6 O 0.2538(7) 0.8240(5) 0.8997(7)
O16_6 O 0.5740(5) 0.9962(7) 0.8503(7)
O17_6 O 0.7462(7) 0.6760(5) 0.8997(7)
O18_6 O 0.2307(7) 0.7723(6) 0.8810(10)
O20_6 O 0.7693(7) 0.7277(6) 0.8810(10)
O22_6 O 0.4467(4) 0.9464(4) 0.9104(4)
O25_6 O 0.1604(4) 0.8036(4) 0.8033(4)
O27_6 O 0.8396(4) 0.6964(4) 0.8033(4)
O29_6 O 0.4447(5) 0.9001(4) 0.9614(5)
O32_6 O 0.2114(5) 0.8499(4) 0.8053(5)
O34_6 O 0.7886(5) 0.6501(4) 0.8053(5)
O35_6 O 0.3506(4) 0.8997(4) 0.8804(4)
O37_6 O 0.6494(4) 0.6003(4) 0.8804(4)
O39_6 O 0.1304(4) 0.8503(4) 0.8994(4)
O41_6 O 0.8696(4) 0.6497(4) 0.8994(4)
O42_6 O 0.3682(4) 0.8454(3) 0.9207(3)
O44_6 O 0.6318(4) 0.6546(3) 0.9207(3)
O46_6 O 0.1707(3) 0.9046(3) 0.8818(4)
O48_6 O 0.8293(3) 0.5954(3) 0.8818(4)
Cd1_10 Cd 0.5000 0.2500 0.6250
C1_7 C 0.4936(4) 0.1193(4) 0.6644(4)
C2_7 C 0.4675(7) 0.1141(6) 0.7019(6)
H1_7 H 0.4502 0.1361 0.7121
C3_7 C 0.4695(8) 0.0733(6) 0.7228(6)
H2_7 H 0.4568 0.0685 0.7494
C4_7 C 0.4911(7) 0.0420(5) 0.7015(6)
H3_7 H 0.4903 0.0148 0.7136
C5_7 C 0.5131(5) 0.0460(5) 0.6657(4)
C6_7 C 0.5141(4) 0.0846(4) 0.6462(4)
C7_7 C 0.5370(4) 0.0882(4) 0.6027(4)
C8_7 C 0.5124(4) 0.0818(4) 0.5649(4)
C9_7 C 0.5324(6) 0.0840(5) 0.5257(4)
H4_7 H 0.5160 0.0800 0.5012
C10_7 C 0.5765(7) 0.0919(5) 0.5210(5)
H5_3 H 0.5896 0.0932 0.4943
C11_7 C 0.5985(5) 0.0974(4) 0.5583(6)
H6_7 H 0.6278 0.1028 0.5564
C12_7 C 0.5810(5) 0.0957(4) 0.5985(4)
C13_7 C 0.4935(4) 0.1627(5) 0.6455(5)
C14_7 C 0.5386(8) 0.0070(5) 0.6498(5)
C15_7 C 0.4642(5) 0.0788(6) 0.5655(5)
C16_7 C 0.6114(6) 0.1044(5) 0.6358(5)
O1_7 O 0.4909(4) 0.1689(3) 0.6074(3)
O2_7 O 0.4975(3) 0.1945(3) 0.6724(3)
O3_7 O 0.5740(5) 0.0038(7) 0.6497(7)
O5_7 O 0.4467(4) 0.0536(4) 0.5896(4)
O6_7 O 0.4447(5) 0.0999(4) 0.5386(5)
Cd3_7 Cd 0.81204(5) 0.32605(5) 0.62956(5)
Cd5_7 Cd 0.18796(5) 0.17395(5) 0.62956(5)
Cd6_7 Cd 0.37956(5) 0.07605(5) 0.56204(5)
Cd8_7 Cd 0.62044(5) 0.42395(5) 0.56204(5)
C17_7 C 0.6307(4) 0.2436(4) 0.5856(4)
C18_7 C 0.5064(4) 0.3807(4) 0.6644(4)
C19_7 C 0.3693(4) 0.2564(4) 0.5856(4)
C20_7 C 0.6359(6) 0.2175(7) 0.5481(6)
C21_7 C 0.5325(7) 0.3859(6) 0.7019(6)
C22_7 C 0.3641(6) 0.2825(7) 0.5481(6)
H7_7 H 0.6139 0.2002 0.5379
H8_7 H 0.5498 0.3639 0.7121
H9_7 H 0.3861 0.2998 0.5379
C23_7 C 0.6767(6) 0.2195(8) 0.5272(6)
C24_7 C 0.5305(8) 0.4267(6) 0.7228(6)
C25_7 C 0.3233(6) 0.2805(8) 0.5272(6)
H10_7 H 0.6815 0.2068 0.5006
H11_7 H 0.5432 0.4315 0.7494
H12_7 H 0.3185 0.2932 0.5006
C26_7 C 0.7080(5) 0.2411(7) 0.5485(6)
C27_7 C 0.5089(7) 0.4580(5) 0.7015(6)
C28_7 C 0.2920(5) 0.2589(7) 0.5485(6)
H13_7 H 0.7352 0.2403 0.5364
H14_7 H 0.5097 0.4852 0.7136
H15_7 H 0.2648 0.2597 0.5364
C29_7 C 0.7040(5) 0.2631(5) 0.5843(4)
C30_7 C 0.4869(5) 0.4540(5) 0.6657(4)
C31_7 C 0.2960(5) 0.2369(5) 0.5843(4)
C32_7 C 0.6654(4) 0.2641(4) 0.6038(4)
C33_7 C 0.4859(4) 0.4154(4) 0.6462(4)
C34_7 C 0.3346(4) 0.2359(4) 0.6038(4)
C35_7 C 0.6618(4) 0.2870(4) 0.6473(4)
C36_7 C 0.4630(4) 0.4118(4) 0.6027(4)
C37_7 C 0.3382(4) 0.2130(4) 0.6473(4)
C38_7 C 0.6682(4) 0.2624(4) 0.6851(4)
C39_7 C 0.4876(4) 0.4182(4) 0.5649(4)
C40_7 C 0.3318(4) 0.2376(4) 0.6851(4)
C41_7 C 0.6660(5) 0.2824(6) 0.7243(4)
C42_7 C 0.4676(6) 0.4160(5) 0.5257(4)
C43_7 C 0.3340(5) 0.2176(6) 0.7243(4)
H16_7 H 0.6700 0.2660 0.7488
H17_7 H 0.4840 0.4200 0.5012
H18_7 H 0.3300 0.2340 0.7488
C44_7 C 0.6581(5) 0.3265(7) 0.7290(5)
C45_7 C 0.4235(7) 0.4081(5) 0.5210(5)
C46_7 C 0.3419(5) 0.1735(7) 0.7290(5)
H19_7 H 0.6568 0.3396 0.7557
H20_3 H 0.4104 0.4068 0.4943
H21_7 H 0.3432 0.1604 0.7557
C47_7 C 0.6526(4) 0.3485(5) 0.6917(6)
C48_7 C 0.4015(5) 0.4026(4) 0.5583(6)
C49_7 C 0.3474(4) 0.1515(5) 0.6917(6)
H22_7 H 0.6472 0.3778 0.6936
H23_7 H 0.3722 0.3972 0.5564
H24_7 H 0.3528 0.1222 0.6936
C50_7 C 0.6543(4) 0.3310(5) 0.6515(4)
C51_7 C 0.4190(5) 0.4043(4) 0.5985(4)
C52_7 C 0.3457(4) 0.1690(5) 0.6515(4)
C53_7 C 0.5873(5) 0.2435(4) 0.6045(5)
C54_7 C 0.5065(4) 0.3373(5) 0.6455(5)
C55_7 C 0.4127(5) 0.2565(4) 0.6045(5)
C56_7 C 0.7430(5) 0.2886(8) 0.6002(5)
C57_7 C 0.4614(8) 0.4930(5) 0.6498(5)
C58_7 C 0.2570(5) 0.2114(8) 0.6002(5)
C59_7 C 0.6712(6) 0.2142(5) 0.6845(5)
C60_7 C 0.5358(5) 0.4212(6) 0.5655(5)
C61_7 C 0.3288(6) 0.2858(5) 0.6845(5)
C62_7 C 0.6456(5) 0.3614(6) 0.6142(5)
C63_7 C 0.3886(6) 0.3956(5) 0.6358(5)
C64_7 C 0.3544(5) 0.1386(6) 0.6142(5)
O9_7 O 0.5811(3) 0.2409(4) 0.6426(3)
O10_7 O 0.5091(4) 0.3311(3) 0.6074(3)
O11_7 O 0.4189(3) 0.2591(4) 0.6426(3)
O12_7 O 0.5555(3) 0.2475(3) 0.5776(3)
O13_7 O 0.5025(3) 0.3055(3) 0.6724(3)
O14_7 O 0.4445(3) 0.2525(3) 0.5776(3)
O15_7 O 0.7462(7) 0.3240(5) 0.6003(7)
O16_7 O 0.4260(5) 0.4962(7) 0.6497(7)
O17_7 O 0.2538(7) 0.1760(5) 0.6003(7)
O18_7 O 0.7693(7) 0.2723(6) 0.6190(10)
O19_7 O 0.4777(6) 0.5193(7) 0.6310(10)
O20_7 O 0.2307(7) 0.2277(6) 0.6190(10)
O22_7 O 0.5533(4) 0.4464(4) 0.5896(4)
O25_7 O 0.8396(4) 0.3036(4) 0.6967(4)
O27_7 O 0.1604(4) 0.1964(4) 0.6967(4)
O29_7 O 0.5553(5) 0.4001(4) 0.5386(5)
O32_7 O 0.7886(5) 0.3499(4) 0.6947(5)
O34_7 O 0.2114(5) 0.1501(4) 0.6947(5)
O35_7 O 0.6494(4) 0.3997(4) 0.6196(4)
O37_7 O 0.3506(4) 0.1003(4) 0.6196(4)
O39_7 O 0.8696(4) 0.3503(4) 0.6006(4)
O41_7 O 0.1304(4) 0.1497(4) 0.6006(4)
O42_7 O 0.6318(4) 0.3454(3) 0.5793(3)
O44_7 O 0.3682(4) 0.1546(3) 0.5793(3)
O46_7 O 0.8293(3) 0.4046(3) 0.6182(4)
O48_7 O 0.1707(3) 0.0954(3) 0.6182(4)
O4_7 O 0.5223(6) 0.9807(7) 0.6310(10)
Cd1_11 Cd -0.0000 0.2500 0.3750
C5_8 C 0.0131(5) 0.4540(5) 0.3343(4)
C6_8 C 0.0141(4) 0.4154(4) 0.3538(4)
C7_8 C 0.0370(4) 0.4118(4) 0.3973(4)
C8_8 C 0.0124(4) 0.4182(4) 0.4351(4)
C9_8 C 0.0324(6) 0.4160(5) 0.4743(4)
H4_8 H 0.0160 0.4200 0.4988
C10_8 C 0.0765(7) 0.4081(5) 0.4790(5)
H5_4 H 0.0896 0.4068 0.5057
C11_8 C 0.0985(5) 0.4026(4) 0.4417(6)
H6_8 H 0.1278 0.3972 0.4436
C12_8 C 0.0810(5) 0.4043(4) 0.4015(4)
C14_8 C 0.0386(8) 0.4930(5) 0.3502(5)
C16_8 C 0.1114(6) 0.3956(5) 0.3642(5)
O3_8 O 0.0740(5) 0.4962(7) 0.3503(7)
O4_8 O 0.0223(6) 0.5193(7) 0.3690(10)
Cd3_8 Cd 0.31204(5) 0.17395(5) 0.37044(5)
Cd8_8 Cd 0.12044(5) 0.07605(5) 0.43796(5)
C17_8 C 0.1307(4) 0.2564(4) 0.4144(4)
C18_8 C 0.0064(4) 0.1193(4) 0.3356(4)
C20_8 C 0.1359(6) 0.2825(7) 0.4519(6)
C21_8 C 0.0325(7) 0.1141(6) 0.2981(6)
H7_8 H 0.1139 0.2998 0.4621
H8_8 H 0.0498 0.1361 0.2879
C23_8 C 0.1767(6) 0.2805(8) 0.4728(6)
C24_8 C 0.0305(8) 0.0733(6) 0.2772(6)
H10_8 H 0.1815 0.2932 0.4994
H11_8 H 0.0432 0.0685 0.2506
C26_8 C 0.2080(5) 0.2589(7) 0.4515(6)
C27_8 C 0.0089(7) 0.0420(5) 0.2985(6)
H13_8 H 0.2352 0.2597 0.4636
H14_8 H 0.0097 0.0148 0.2864
C29_8 C 0.2040(5) 0.2369(5) 0.4157(4)
C32_8 C 0.1654(4) 0.2359(4) 0.3962(4)
C35_8 C 0.1618(4) 0.2130(4) 0.3527(4)
C38_8 C 0.1682(4) 0.2376(4) 0.3149(4)
C41_8 C 0.1660(5) 0.2176(6) 0.2757(4)
H16_8 H 0.1700 0.2340 0.2512
C44_8 C 0.1581(5) 0.1735(7) 0.2710(5)
H19_8 H 0.1568 0.1604 0.2443
C47_8 C 0.1526(4) 0.1515(5) 0.3083(6)
H22_8 H 0.1472 0.1222 0.3064
C50_8 C 0.1543(4) 0.1690(5) 0.3485(4)
C53_8 C 0.0873(5) 0.2565(4) 0.3955(5)
C54_8 C 0.0065(4) 0.1627(5) 0.3545(5)
C56_8 C 0.2430(5) 0.2114(8) 0.3998(5)
C59_8 C 0.1712(6) 0.2858(5) 0.3155(5)
C60_8 C 0.0358(5) 0.0788(6) 0.4345(5)
C62_8 C 0.1456(5) 0.1386(6) 0.3858(5)
O9_8 O 0.0811(3) 0.2591(4) 0.3574(3)
O10_8 O 0.0091(4) 0.1689(3) 0.3926(3)
O12_8 O 0.0555(3) 0.2525(3) 0.4224(3)
O13_8 O 0.0025(3) 0.1945(3) 0.3276(3)
O15_8 O 0.2462(7) 0.1760(5) 0.3997(7)
O18_8 O 0.2693(7) 0.2277(6) 0.3810(10)
O22_8 O 0.0533(4) 0.0536(4) 0.4104(4)
O25_8 O 0.3396(4) 0.1964(4) 0.3033(4)
O29_8 O 0.0553(5) 0.0999(4) 0.4614(5)
O32_8 O 0.2886(5) 0.1501(4) 0.3053(5)
O35_8 O 0.1494(4) 0.1003(4) 0.3804(4)
O39_8 O 0.3696(4) 0.1497(4) 0.3994(4)
O42_8 O 0.1318(4) 0.1546(3) 0.4207(3)
O46_8 O 0.3293(3) 0.0954(3) 0.3818(4)
Cd1_12 Cd 1.0000 0.2500 0.3750
C1_8 C 0.9936(4) 0.3807(4) 0.3356(4)
C2_8 C 0.9675(7) 0.3859(6) 0.2981(6)
H1_8 H 0.9502 0.3639 0.2879
C3_8 C 0.9695(8) 0.4267(6) 0.2772(6)
H2_8 H 0.9568 0.4315 0.2506
C4_8 C 0.9911(7) 0.4580(5) 0.2985(6)
H3_8 H 0.9903 0.4852 0.2864
C13_8 C 0.9935(4) 0.3373(5) 0.3545(5)
C15_8 C 0.9642(5) 0.4212(6) 0.4345(5)
O1_8 O 0.9909(4) 0.3311(3) 0.3926(3)
O2_8 O 0.9975(3) 0.3055(3) 0.3276(3)
O5_8 O 0.9467(4) 0.4464(4) 0.4104(4)
O6_8 O 0.9447(5) 0.4001(4) 0.4614(5)
Cd5_8 Cd 0.68796(5) 0.32605(5) 0.37044(5)
Cd6_8 Cd 0.87956(5) 0.42395(5) 0.43796(5)
C19_8 C 0.8693(4) 0.2436(4) 0.4144(4)
C22_8 C 0.8641(6) 0.2175(7) 0.4519(6)
H9_8 H 0.8861 0.2002 0.4621
C25_8 C 0.8233(6) 0.2195(8) 0.4728(6)
H12_8 H 0.8185 0.2068 0.4994
C28_8 C 0.7920(5) 0.2411(7) 0.4515(6)
H15_8 H 0.7648 0.2403 0.4636
C30_8 C 0.9869(5) 0.0460(5) 0.3343(4)
C31_8 C 0.7960(5) 0.2631(5) 0.4157(4)
C33_8 C 0.9859(4) 0.0846(4) 0.3538(4)
C34_8 C 0.8346(4) 0.2641(4) 0.3962(4)
C36_8 C 0.9630(4) 0.0882(4) 0.3973(4)
C37_8 C 0.8382(4) 0.2870(4) 0.3527(4)
C39_8 C 0.9876(4) 0.0818(4) 0.4351(4)
C40_8 C 0.8318(4) 0.2624(4) 0.3149(4)
C42_8 C 0.9676(6) 0.0840(5) 0.4743(4)
C43_8 C 0.8340(5) 0.2824(6) 0.2757(4)
H17_8 H 0.9840 0.0800 0.4988
H18_8 H 0.8300 0.2660 0.2512
C45_8 C 0.9235(7) 0.0919(5) 0.4790(5)
C46_8 C 0.8419(5) 0.3265(7) 0.2710(5)
H20_4 H 0.9104 0.0932 0.5057
H21_8 H 0.8432 0.3396 0.2443
C48_8 C 0.9015(5) 0.0974(4) 0.4417(6)
C49_8 C 0.8474(4) 0.3485(5) 0.3083(6)
H23_8 H 0.8722 0.1028 0.4436
H24_8 H 0.8528 0.3778 0.3064
C51_8 C 0.9190(5) 0.0957(4) 0.4015(4)
C52_8 C 0.8457(4) 0.3310(5) 0.3485(4)
C55_8 C 0.9127(5) 0.2435(4) 0.3955(5)
C57_8 C 0.9614(8) 0.0070(5) 0.3502(5)
C58_8 C 0.7570(5) 0.2886(8) 0.3998(5)
C61_8 C 0.8288(6) 0.2142(5) 0.3155(5)
C63_8 C 0.8886(6) 0.1044(5) 0.3642(5)
C64_8 C 0.8544(5) 0.3614(6) 0.3858(5)
O11_8 O 0.9189(3) 0.2409(4) 0.3574(3)
O14_8 O 0.9445(3) 0.2475(3) 0.4224(3)
O16_8 O 0.9260(5) 0.0038(7) 0.3503(7)
O17_8 O 0.7538(7) 0.3240(5) 0.3997(7)
O20_8 O 0.7307(7) 0.2723(6) 0.3810(10)
O27_8 O 0.6604(4) 0.3036(4) 0.3033(4)
O34_8 O 0.7114(5) 0.3499(4) 0.3053(5)
O37_8 O 0.8506(4) 0.3997(4) 0.3804(4)
O41_8 O 0.6304(4) 0.3503(4) 0.3994(4)
O44_8 O 0.8682(4) 0.3454(3) 0.4207(3)
O48_8 O 0.6707(3) 0.4046(3) 0.3818(4)
O19_8 O 0.9777(6) 0.9807(7) 0.3690(10)
Cd1_13 Cd 0.1250 0.0000 0.7500
C1_9 C 0.1644(4) 0.0064(4) 0.8807(4)
C2_9 C 0.2019(6) 0.0325(7) 0.8859(6)
H1_9 H 0.2121 0.0498 0.8639
C3_9 C 0.2228(6) 0.0305(8) 0.9267(6)
H2_9 H 0.2494 0.0432 0.9315
C4_9 C 0.2015(6) 0.0089(7) 0.9580(5)
H3_9 H 0.2136 0.0097 0.9852
C13_9 C 0.1455(5) 0.0065(4) 0.8373(5)
C15_9 C 0.0655(5) 0.0358(5) 0.9212(6)
O1_9 O 0.1074(3) 0.0091(4) 0.8311(3)
O2_9 O 0.1724(3) 0.0025(3) 0.8055(3)
C19_9 C 0.0856(4) 0.1307(4) 0.7436(4)
C22_9 C 0.0481(6) 0.1359(6) 0.7175(7)
H9_9 H 0.0379 0.1139 0.7002
C25_9 C 0.0272(6) 0.1767(6) 0.7195(8)
H12_9 H 0.0006 0.1815 0.7068
C28_9 C 0.0485(6) 0.2080(5) 0.7411(7)
H15_9 H 0.0364 0.2352 0.7403
C30_9 C 0.1657(4) 0.0131(5) 0.5460(5)
C31_9 C 0.0843(4) 0.2040(5) 0.7631(5)
C33_9 C 0.1462(4) 0.0141(4) 0.5846(4)
C34_9 C 0.1038(4) 0.1654(4) 0.7641(4)
C36_9 C 0.1027(4) 0.0370(4) 0.5882(4)
C37_9 C 0.1473(4) 0.1618(4) 0.7870(4)
C39_9 C 0.0649(4) 0.0124(4) 0.5818(4)
C40_9 C 0.1851(4) 0.1682(4) 0.7624(4)
C42_9 C 0.0257(4) 0.0324(6) 0.5840(5)
C43_9 C 0.2243(4) 0.1660(5) 0.7824(6)
H17_9 H 0.0012 0.0160 0.5800
H18_9 H 0.2488 0.1700 0.7660
C45_9 C 0.0210(5) 0.0765(7) 0.5919(5)
C46_9 C 0.2290(5) 0.1581(5) 0.8265(7)
H21_9 H 0.2557 0.1568 0.8396
C48_9 C 0.0583(6) 0.0985(5) 0.5974(4)
C49_9 C 0.1917(6) 0.1526(4) 0.8485(5)
H23_9 H 0.0564 0.1278 0.6028
H24_9 H 0.1936 0.1472 0.8778
C51_9 C 0.0985(4) 0.0810(5) 0.5957(4)
C52_9 C 0.1515(4) 0.1543(4) 0.8310(5)
C55_9 C 0.1045(5) 0.0873(5) 0.7435(4)
C57_9 C 0.1498(5) 0.0386(8) 0.5070(5)
C58_9 C 0.1002(5) 0.2430(5) 0.7886(8)
C61_9 C 0.1845(5) 0.1712(6) 0.7142(5)
C63_9 C 0.1358(5) 0.1114(6) 0.6044(5)
C64_9 C 0.1142(5) 0.1456(5) 0.8614(6)
O11_9 O 0.1426(3) 0.0811(3) 0.7409(4)
O14_9 O 0.0776(3) 0.0555(3) 0.7475(3)
O16_9 O 0.1497(7) 0.0740(5) 0.5038(7)
O17_9 O 0.1003(7) 0.2462(7) 0.8240(5)
O19_9 O 0.1310(10) 0.0223(6) 0.4807(7)
O20_9 O 0.1190(10) 0.2693(7) 0.7723(6)
O4_9 O 0.1310(10) 0.9777(6) 0.0193(7)
Cd1_14 Cd 0.1250 1.0000 0.7500
C5_9 C 0.1657(4) 0.9869(5) 0.9540(5)
C6_9 C 0.1462(4) 0.9859(4) 0.9154(4)
C7_9 C 0.1027(4) 0.9630(4) 0.9118(4)
C8_9 C 0.0649(4) 0.9876(4) 0.9182(4)
C9_9 C 0.0257(4) 0.9676(6) 0.9160(5)
H4_9 H 0.0012 0.9840 0.9200
C10_9 C 0.0210(5) 0.9235(7) 0.9081(5)
C11_9 C 0.0583(6) 0.9015(5) 0.9026(4)
H6_9 H 0.0564 0.8722 0.8972
C12_9 C 0.0985(4) 0.9190(5) 0.9043(4)
C14_9 C 0.1498(5) 0.9614(8) 0.9930(5)
C16_9 C 0.1358(5) 0.8886(6) 0.8956(5)
O3_9 O 0.1497(7) 0.9260(5) 0.9962(7)
C17_9 C 0.0856(4) 0.8693(4) 0.7564(4)
C18_9 C 0.1644(4) 0.9936(4) 0.6193(4)
C20_9 C 0.0481(6) 0.8641(6) 0.7825(7)
C21_9 C 0.2019(6) 0.9675(7) 0.6141(6)
H7_9 H 0.0379 0.8861 0.7998
H8_9 H 0.2121 0.9502 0.6361
C23_9 C 0.0272(6) 0.8233(6) 0.7805(8)
C24_9 C 0.2228(6) 0.9695(8) 0.5733(6)
H10_9 H 0.0006 0.8185 0.7932
H11_9 H 0.2494 0.9568 0.5685
C26_9 C 0.0485(6) 0.7920(5) 0.7589(7)
C27_9 C 0.2015(6) 0.9911(7) 0.5420(5)
H13_9 H 0.0364 0.7648 0.7597
H14_9 H 0.2136 0.9903 0.5148
C29_9 C 0.0843(4) 0.7960(5) 0.7369(5)
C32_9 C 0.1038(4) 0.8346(4) 0.7359(4)
C35_9 C 0.1473(4) 0.8382(4) 0.7130(4)
C38_9 C 0.1851(4) 0.8318(4) 0.7376(4)
C41_9 C 0.2243(4) 0.8340(5) 0.7176(6)
H16_9 H 0.2488 0.8300 0.7340
C44_9 C 0.2290(5) 0.8419(5) 0.6735(7)
H19_9 H 0.2557 0.8432 0.6604
C47_9 C 0.1917(6) 0.8474(4) 0.6515(5)
H22_9 H 0.1936 0.8528 0.6222
C50_9 C 0.1515(4) 0.8457(4) 0.6690(5)
C53_9 C 0.1045(5) 0.9127(5) 0.7565(4)
C54_9 C 0.1455(5) 0.9935(4) 0.6627(5)
C56_9 C 0.1002(5) 0.7570(5) 0.7114(8)
C59_9 C 0.1845(5) 0.8288(6) 0.7858(5)
C60_9 C 0.0655(5) 0.9642(5) 0.5788(6)
C62_9 C 0.1142(5) 0.8544(5) 0.6386(6)
O9_9 O 0.1426(3) 0.9189(3) 0.7591(4)
O10_9 O 0.1074(3) 0.9909(4) 0.6689(3)
O12_9 O 0.0776(3) 0.9445(3) 0.7525(3)
O13_9 O 0.1724(3) 0.9975(3) 0.6945(3)
O15_9 O 0.1003(7) 0.7538(7) 0.6760(5)
O18_9 O 0.1190(10) 0.7307(7) 0.7277(6)
O19_10 O 0.8690(10) 0.5223(6) 0.0193(7)
Cd1_15 Cd 0.8750 0.5000 0.7500
C1_10 C 0.8356(4) 0.5064(4) 0.6193(4)
C2_10 C 0.7981(6) 0.5325(7) 0.6141(6)
H1_10 H 0.7879 0.5498 0.6361
C3_10 C 0.7772(6) 0.5305(8) 0.5733(6)
H2_10 H 0.7506 0.5432 0.5685
C4_10 C 0.7985(6) 0.5089(7) 0.5420(5)
H3_10 H 0.7864 0.5097 0.5148
C5_10 C 0.8343(4) 0.4869(5) 0.5460(5)
C6_10 C 0.8538(4) 0.4859(4) 0.5846(4)
C7_10 C 0.8973(4) 0.4630(4) 0.5882(4)
C8_10 C 0.9351(4) 0.4876(4) 0.5818(4)
C9_10 C 0.9743(4) 0.4676(6) 0.5840(5)
H4_10 H 0.9988 0.4840 0.5800
C10_10 C 0.9790(5) 0.4235(7) 0.5919(5)
C11_10 C 0.9417(6) 0.4015(5) 0.5974(4)
H6_10 H 0.9436 0.3722 0.6028
C12_10 C 0.9015(4) 0.4190(5) 0.5957(4)
C13_10 C 0.8545(5) 0.5065(4) 0.6627(5)
C14_10 C 0.8502(5) 0.4614(8) 0.5070(5)
C15_10 C 0.9345(5) 0.5358(5) 0.5788(6)
C16_10 C 0.8642(5) 0.3886(6) 0.6044(5)
O1_10 O 0.8926(3) 0.5091(4) 0.6689(3)
O2_10 O 0.8276(3) 0.5025(3) 0.6945(3)
O3_10 O 0.8503(7) 0.4260(5) 0.5038(7)
O4_10 O 0.8690(10) 0.4777(6) 0.4807(7)
C17_10 C 0.9144(4) 0.3693(4) 0.7436(4)
C18_10 C 0.8356(4) 0.4936(4) 0.8807(4)
C19_10 C 0.9144(4) 0.6307(4) 0.7564(4)
C20_10 C 0.9519(6) 0.3641(6) 0.7175(7)
C21_10 C 0.7981(6) 0.4675(7) 0.8859(6)
C22_10 C 0.9519(6) 0.6359(6) 0.7825(7)
H7_10 H 0.9621 0.3861 0.7002
H8_10 H 0.7879 0.4502 0.8639
H9_10 H 0.9621 0.6139 0.7998
C23_10 C 0.9728(6) 0.3233(6) 0.7195(8)
C24_10 C 0.7772(6) 0.4695(8) 0.9267(6)
C25_10 C 0.9728(6) 0.6767(6) 0.7805(8)
H10_10 H 0.9994 0.3185 0.7068
H11_10 H 0.7506 0.4568 0.9315
H12_10 H 0.9994 0.6815 0.7932
C26_10 C 0.9515(6) 0.2920(5) 0.7411(7)
C27_10 C 0.7985(6) 0.4911(7) 0.9580(5)
C28_10 C 0.9515(6) 0.7080(5) 0.7589(7)
H13_10 H 0.9636 0.2648 0.7403
H14_10 H 0.7864 0.4903 0.9852
H15_10 H 0.9636 0.7352 0.7597
C29_10 C 0.9157(4) 0.2960(5) 0.7631(5)
C30_10 C 0.8343(4) 0.5131(5) 0.9540(5)
C31_10 C 0.9157(4) 0.7040(5) 0.7369(5)
C32_10 C 0.8962(4) 0.3346(4) 0.7641(4)
C33_10 C 0.8538(4) 0.5141(4) 0.9154(4)
C34_10 C 0.8962(4) 0.6654(4) 0.7359(4)
C35_10 C 0.8527(4) 0.3382(4) 0.7870(4)
C36_10 C 0.8973(4) 0.5370(4) 0.9118(4)
C37_10 C 0.8527(4) 0.6618(4) 0.7130(4)
C38_10 C 0.8149(4) 0.3318(4) 0.7624(4)
C39_10 C 0.9351(4) 0.5124(4) 0.9182(4)
C40_10 C 0.8149(4) 0.6682(4) 0.7376(4)
C41_10 C 0.7757(4) 0.3340(5) 0.7824(6)
C42_10 C 0.9743(4) 0.5324(6) 0.9160(5)
C43_10 C 0.7757(4) 0.6660(5) 0.7176(6)
H16_10 H 0.7512 0.3300 0.7660
H17_10 H 0.9988 0.5160 0.9200
H18_10 H 0.7512 0.6700 0.7340
C44_10 C 0.7710(5) 0.3419(5) 0.8265(7)
C45_10 C 0.9790(5) 0.5765(7) 0.9081(5)
C46_10 C 0.7710(5) 0.6581(5) 0.6735(7)
H19_10 H 0.7443 0.3432 0.8396
H21_10 H 0.7443 0.6568 0.6604
C47_10 C 0.8083(6) 0.3474(4) 0.8485(5)
C48_10 C 0.9417(6) 0.5985(5) 0.9026(4)
C49_10 C 0.8083(6) 0.6526(4) 0.6515(5)
H22_10 H 0.8064 0.3528 0.8778
H23_10 H 0.9436 0.6278 0.8972
H24_10 H 0.8064 0.6472 0.6222
C50_10 C 0.8485(4) 0.3457(4) 0.8310(5)
C51_10 C 0.9015(4) 0.5810(5) 0.9043(4)
C52_10 C 0.8485(4) 0.6543(4) 0.6690(5)
C53_10 C 0.8955(5) 0.4127(5) 0.7435(4)
C54_10 C 0.8545(5) 0.4935(4) 0.8373(5)
C55_10 C 0.8955(5) 0.5873(5) 0.7565(4)
C56_10 C 0.8998(5) 0.2570(5) 0.7886(8)
C57_10 C 0.8502(5) 0.5386(8) 0.9930(5)
C58_10 C 0.8998(5) 0.7430(5) 0.7114(8)
C59_10 C 0.8155(5) 0.3288(6) 0.7142(5)
C60_10 C 0.9345(5) 0.4642(5) 0.9212(6)
C61_10 C 0.8155(5) 0.6712(6) 0.7858(5)
C62_10 C 0.8858(5) 0.3544(5) 0.8614(6)
C63_10 C 0.8642(5) 0.6114(6) 0.8956(5)
C64_10 C 0.8858(5) 0.6456(5) 0.6386(6)
O9_10 O 0.8574(3) 0.4189(3) 0.7409(4)
O10_10 O 0.8926(3) 0.4909(4) 0.8311(3)
O11_10 O 0.8574(3) 0.5811(3) 0.7591(4)
O12_10 O 0.9224(3) 0.4445(3) 0.7475(3)
O13_10 O 0.8276(3) 0.4975(3) 0.8055(3)
O14_10 O 0.9224(3) 0.5555(3) 0.7525(3)
O15_10 O 0.8997(7) 0.2538(7) 0.8240(5)
O16_10 O 0.8503(7) 0.5740(5) 0.9962(7)
O17_10 O 0.8997(7) 0.7462(7) 0.6760(5)
O18_10 O 0.8810(10) 0.2307(7) 0.7723(6)
O20_10 O 0.8810(10) 0.7693(7) 0.7277(6)
Cd1_16 Cd 0.6250 0.5000 0.2500
C1_11 C 0.6644(4) 0.4936(4) 0.1193(4)
C2_11 C 0.7019(6) 0.4675(7) 0.1141(6)
H1_11 H 0.7121 0.4502 0.1361
C3_11 C 0.7228(6) 0.4695(8) 0.0733(6)
H2_11 H 0.7494 0.4568 0.0685
C4_11 C 0.7015(6) 0.4911(7) 0.0420(5)
H3_11 H 0.7136 0.4903 0.0148
C5_11 C 0.6657(4) 0.5131(5) 0.0460(5)
C6_11 C 0.6462(4) 0.5141(4) 0.0846(4)
C7_11 C 0.6027(4) 0.5370(4) 0.0882(4)
C8_11 C 0.5649(4) 0.5124(4) 0.0818(4)
C9_11 C 0.5257(4) 0.5324(6) 0.0840(5)
H4_11 H 0.5012 0.5160 0.0800
C10_11 C 0.5210(5) 0.5765(7) 0.0919(5)
H5_5 H 0.4943 0.5896 0.0932
C11_11 C 0.5583(6) 0.5985(5) 0.0974(4)
H6_11 H 0.5564 0.6278 0.1028
C12_11 C 0.5985(4) 0.5810(5) 0.0957(4)
C13_11 C 0.6455(5) 0.4935(4) 0.1627(5)
C14_11 C 0.6498(5) 0.5386(8) 0.0070(5)
C15_11 C 0.5655(5) 0.4642(5) 0.0788(6)
C16_11 C 0.6358(5) 0.6114(6) 0.1044(5)
O1_11 O 0.6074(3) 0.4909(4) 0.1689(3)
O2_11 O 0.6724(3) 0.4975(3) 0.1945(3)
O3_11 O 0.6497(7) 0.5740(5) 0.0038(7)
C17_11 C 0.5856(4) 0.6307(4) 0.2436(4)
C18_11 C 0.6644(4) 0.5064(4) 0.3807(4)
C19_11 C 0.5856(4) 0.3693(4) 0.2564(4)
C20_11 C 0.5481(6) 0.6359(6) 0.2175(7)
C21_11 C 0.7019(6) 0.5325(7) 0.3859(6)
C22_11 C 0.5481(6) 0.3641(6) 0.2825(7)
H7_11 H 0.5379 0.6139 0.2002
H8_11 H 0.7121 0.5498 0.3639
H9_11 H 0.5379 0.3861 0.2998
C23_11 C 0.5272(6) 0.6767(6) 0.2195(8)
C24_11 C 0.7228(6) 0.5305(8) 0.4267(6)
C25_11 C 0.5272(6) 0.3233(6) 0.2805(8)
H10_11 H 0.5006 0.6815 0.2068
H11_11 H 0.7494 0.5432 0.4315
H12_11 H 0.5006 0.3185 0.2932
C26_11 C 0.5485(6) 0.7080(5) 0.2411(7)
C27_11 C 0.7015(6) 0.5089(7) 0.4580(5)
C28_11 C 0.5485(6) 0.2920(5) 0.2589(7)
H13_11 H 0.5364 0.7352 0.2403
H14_11 H 0.7136 0.5097 0.4852
H15_11 H 0.5364 0.2648 0.2597
C29_11 C 0.5843(4) 0.7040(5) 0.2631(5)
C30_11 C 0.6657(4) 0.4869(5) 0.4540(5)
C31_11 C 0.5843(4) 0.2960(5) 0.2369(5)
C32_11 C 0.6038(4) 0.6654(4) 0.2641(4)
C33_11 C 0.6462(4) 0.4859(4) 0.4154(4)
C34_11 C 0.6038(4) 0.3346(4) 0.2359(4)
C35_11 C 0.6473(4) 0.6618(4) 0.2870(4)
C36_11 C 0.6027(4) 0.4630(4) 0.4118(4)
C37_11 C 0.6473(4) 0.3382(4) 0.2130(4)
C38_11 C 0.6851(4) 0.6682(4) 0.2624(4)
C39_11 C 0.5649(4) 0.4876(4) 0.4182(4)
C40_11 C 0.6851(4) 0.3318(4) 0.2376(4)
C41_11 C 0.7243(4) 0.6660(5) 0.2824(6)
C42_11 C 0.5257(4) 0.4676(6) 0.4160(5)
C43_11 C 0.7243(4) 0.3340(5) 0.2176(6)
H16_11 H 0.7488 0.6700 0.2660
H17_11 H 0.5012 0.4840 0.4200
H18_11 H 0.7488 0.3300 0.2340
C44_11 C 0.7290(5) 0.6581(5) 0.3265(7)
C45_11 C 0.5210(5) 0.4235(7) 0.4081(5)
C46_11 C 0.7290(5) 0.3419(5) 0.1735(7)
H19_11 H 0.7557 0.6568 0.3396
H20_5 H 0.4943 0.4104 0.4068
H21_11 H 0.7557 0.3432 0.1604
C47_11 C 0.6917(6) 0.6526(4) 0.3485(5)
C48_11 C 0.5583(6) 0.4015(5) 0.4026(4)
C49_11 C 0.6917(6) 0.3474(4) 0.1515(5)
H22_11 H 0.6936 0.6472 0.3778
H23_11 H 0.5564 0.3722 0.3972
H24_11 H 0.6936 0.3528 0.1222
C50_11 C 0.6515(4) 0.6543(4) 0.3310(5)
C51_11 C 0.5985(4) 0.4190(5) 0.4043(4)
C52_11 C 0.6515(4) 0.3457(4) 0.1690(5)
C53_11 C 0.6045(5) 0.5873(5) 0.2435(4)
C54_11 C 0.6455(5) 0.5065(4) 0.3373(5)
C55_11 C 0.6045(5) 0.4127(5) 0.2565(4)
C56_11 C 0.6002(5) 0.7430(5) 0.2886(8)
C57_11 C 0.6498(5) 0.4614(8) 0.4930(5)
C58_11 C 0.6002(5) 0.2570(5) 0.2114(8)
C59_11 C 0.6845(5) 0.6712(6) 0.2142(5)
C60_11 C 0.5655(5) 0.5358(5) 0.4212(6)
C61_11 C 0.6845(5) 0.3288(6) 0.2858(5)
C62_11 C 0.6142(5) 0.6456(5) 0.3614(6)
C63_11 C 0.6358(5) 0.3886(6) 0.3956(5)
C64_11 C 0.6142(5) 0.3544(5) 0.1386(6)
O9_11 O 0.6426(3) 0.5811(3) 0.2409(4)
O10_11 O 0.6074(3) 0.5091(4) 0.3311(3)
O11_11 O 0.6426(3) 0.4189(3) 0.2591(4)
O12_11 O 0.5776(3) 0.5555(3) 0.2475(3)
O13_11 O 0.6724(3) 0.5025(3) 0.3055(3)
O14_11 O 0.5776(3) 0.4445(3) 0.2525(3)
O15_11 O 0.6003(7) 0.7462(7) 0.3240(5)
O16_11 O 0.6497(7) 0.4260(5) 0.4962(7)
O17_11 O 0.6003(7) 0.2538(7) 0.1760(5)
O18_11 O 0.6190(10) 0.7693(7) 0.2723(6)
O19_11 O 0.6310(10) 0.4777(6) 0.5193(7)
O20_11 O 0.6190(10) 0.2307(7) 0.2277(6)
O4_11 O 0.6310(10) 0.5223(6) 0.9807(7)
Cd1_17 Cd 0.3750 0.0000 0.2500
C5_12 C 0.3343(4) 0.0131(5) 0.4540(5)
C6_12 C 0.3538(4) 0.0141(4) 0.4154(4)
C7_12 C 0.3973(4) 0.0370(4) 0.4118(4)
C8_12 C 0.4351(4) 0.0124(4) 0.4182(4)
C9_12 C 0.4743(4) 0.0324(6) 0.4160(5)
H4_12 H 0.4988 0.0160 0.4200
C10_12 C 0.4790(5) 0.0765(7) 0.4081(5)
H5_6 H 0.5057 0.0896 0.4068
C11_12 C 0.4417(6) 0.0985(5) 0.4026(4)
H6_12 H 0.4436 0.1278 0.3972
C12_12 C 0.4015(4) 0.0810(5) 0.4043(4)
C14_12 C 0.3502(5) 0.0386(8) 0.4930(5)
C16_12 C 0.3642(5) 0.1114(6) 0.3956(5)
O3_12 O 0.3503(7) 0.0740(5) 0.4962(7)
O4_12 O 0.3690(10) 0.0223(6) 0.5193(7)
C17_12 C 0.4144(4) 0.1307(4) 0.2564(4)
C18_12 C 0.3356(4) 0.0064(4) 0.1193(4)
C20_12 C 0.4519(6) 0.1359(6) 0.2825(7)
C21_12 C 0.2981(6) 0.0325(7) 0.1141(6)
H7_12 H 0.4621 0.1139 0.2998
H8_12 H 0.2879 0.0498 0.1361
C23_12 C 0.4728(6) 0.1767(6) 0.2805(8)
C24_12 C 0.2772(6) 0.0305(8) 0.0733(6)
H10_12 H 0.4994 0.1815 0.2932
H11_12 H 0.2506 0.0432 0.0685
C26_12 C 0.4515(6) 0.2080(5) 0.2589(7)
C27_12 C 0.2985(6) 0.0089(7) 0.0420(5)
H13_12 H 0.4636 0.2352 0.2597
H14_12 H 0.2864 0.0097 0.0148
C29_12 C 0.4157(4) 0.2040(5) 0.2369(5)
C32_12 C 0.3962(4) 0.1654(4) 0.2359(4)
C35_12 C 0.3527(4) 0.1618(4) 0.2130(4)
C38_12 C 0.3149(4) 0.1682(4) 0.2376(4)
C41_12 C 0.2757(4) 0.1660(5) 0.2176(6)
H16_12 H 0.2512 0.1700 0.2340
C44_12 C 0.2710(5) 0.1581(5) 0.1735(7)
H19_12 H 0.2443 0.1568 0.1604
C47_12 C 0.3083(6) 0.1526(4) 0.1515(5)
H22_12 H 0.3064 0.1472 0.1222
C50_12 C 0.3485(4) 0.1543(4) 0.1690(5)
C53_12 C 0.3955(5) 0.0873(5) 0.2565(4)
C54_12 C 0.3545(5) 0.0065(4) 0.1627(5)
C56_12 C 0.3998(5) 0.2430(5) 0.2114(8)
C59_12 C 0.3155(5) 0.1712(6) 0.2858(5)
C60_12 C 0.4345(5) 0.0358(5) 0.0788(6)
C62_12 C 0.3858(5) 0.1456(5) 0.1386(6)
O9_12 O 0.3574(3) 0.0811(3) 0.2591(4)
O10_12 O 0.3926(3) 0.0091(4) 0.1689(3)
O12_12 O 0.4224(3) 0.0555(3) 0.2525(3)
O13_12 O 0.3276(3) 0.0025(3) 0.1945(3)
O15_12 O 0.3997(7) 0.2462(7) 0.1760(5)
O18_12 O 0.3810(10) 0.2693(7) 0.2277(6)
Cd1_18 Cd 0.3750 1.0000 0.2500
C1_12 C 0.3356(4) 0.9936(4) 0.3807(4)
C2_12 C 0.2981(6) 0.9675(7) 0.3859(6)
H1_12 H 0.2879 0.9502 0.3639
C3_12 C 0.2772(6) 0.9695(8) 0.4267(6)
H2_12 H 0.2506 0.9568 0.4315
C4_12 C 0.2985(6) 0.9911(7) 0.4580(5)
H3_12 H 0.2864 0.9903 0.4852
C13_12 C 0.3545(5) 0.9935(4) 0.3373(5)
C15_12 C 0.4345(5) 0.9642(5) 0.4212(6)
O1_12 O 0.3926(3) 0.9909(4) 0.3311(3)
O2_12 O 0.3276(3) 0.9975(3) 0.3055(3)
C19_12 C 0.4144(4) 0.8693(4) 0.2436(4)
C22_12 C 0.4519(6) 0.8641(6) 0.2175(7)
H9_12 H 0.4621 0.8861 0.2002
C25_12 C 0.4728(6) 0.8233(6) 0.2195(8)
H12_12 H 0.4994 0.8185 0.2068
C28_12 C 0.4515(6) 0.7920(5) 0.2411(7)
H15_12 H 0.4636 0.7648 0.2403
C30_12 C 0.3343(4) 0.9869(5) 0.0460(5)
C31_12 C 0.4157(4) 0.7960(5) 0.2631(5)
C33_12 C 0.3538(4) 0.9859(4) 0.0846(4)
C34_12 C 0.3962(4) 0.8346(4) 0.2641(4)
C36_12 C 0.3973(4) 0.9630(4) 0.0882(4)
C37_12 C 0.3527(4) 0.8382(4) 0.2870(4)
C39_12 C 0.4351(4) 0.9876(4) 0.0818(4)
C40_12 C 0.3149(4) 0.8318(4) 0.2624(4)
C42_12 C 0.4743(4) 0.9676(6) 0.0840(5)
C43_12 C 0.2757(4) 0.8340(5) 0.2824(6)
H17_12 H 0.4988 0.9840 0.0800
H18_12 H 0.2512 0.8300 0.2660
C45_12 C 0.4790(5) 0.9235(7) 0.0919(5)
C46_12 C 0.2710(5) 0.8419(5) 0.3265(7)
H20_6 H 0.5057 0.9104 0.0932
H21_12 H 0.2443 0.8432 0.3396
C48_12 C 0.4417(6) 0.9015(5) 0.0974(4)
C49_12 C 0.3083(6) 0.8474(4) 0.3485(5)
H23_12 H 0.4436 0.8722 0.1028
H24_12 H 0.3064 0.8528 0.3778
C51_12 C 0.4015(4) 0.9190(5) 0.0957(4)
C52_12 C 0.3485(4) 0.8457(4) 0.3310(5)
C55_12 C 0.3955(5) 0.9127(5) 0.2435(4)
C57_12 C 0.3502(5) 0.9614(8) 0.0070(5)
C58_12 C 0.3998(5) 0.7570(5) 0.2886(8)
C61_12 C 0.3155(5) 0.8288(6) 0.2142(5)
C63_12 C 0.3642(5) 0.8886(6) 0.1044(5)
C64_12 C 0.3858(5) 0.8544(5) 0.3614(6)
O11_12 O 0.3574(3) 0.9189(3) 0.2409(4)
O14_12 O 0.4224(3) 0.9445(3) 0.2475(3)
O16_12 O 0.3503(7) 0.9260(5) 0.0038(7)
O17_12 O 0.3997(7) 0.7538(7) 0.3240(5)
O20_12 O 0.3810(10) 0.7307(7) 0.2723(6)
O19_12 O 0.3690(10) 0.9777(6) 0.9807(7)
H20_7 H 0.5932 0.9943 0.0896
H5_7 H 0.9068 0.9943 0.9104
H5_8 H 0.5932 0.0057 0.4104
H20_8 H 0.9068 0.0057 0.5896
H20_9 H 0.0896 0.5932 0.9943
H5_9 H 0.9104 0.9068 0.9943
H5_10 H 0.4104 0.5932 0.0057
H20_10 H 0.5896 0.9068 0.0057
H20_11 H 0.9943 0.0896 0.5932
H5_11 H 0.9943 0.9104 0.9068
H5_12 H 0.0057 0.4104 0.5932
H20_12 H 0.0057 0.5896 0.9068
N1 N 0.0260(5) 0.0518(5) 0.8181(5)
H25 H 0.0455 0.0559 0.7972
H26 H 0.0396 0.0524 0.8436
C65 C 0.0034(6) 0.0093(6) 0.8120(6)
H30 H 0.0044 0.1144 0.8195
H27 H 0.0241 0.9866 0.8123
H28 H 0.9885 0.0094 0.7851
H29 H 0.9832 0.0051 0.8349
C66 C 0.9913(6) 0.0867(6) 0.8163(6)
H31 H 0.9711 0.0823 0.8390
H32 H 0.9768 0.0853 0.7892
H27_2 H 0.4759 0.0134 0.3123
N1_2 N 0.4740(5) 0.9482(5) 0.3181(5)
H25_2 H 0.4545 0.9441 0.2972
H26_2 H 0.4604 0.9476 0.3436
C65_2 C 0.4966(6) 0.9907(6) 0.3120(6)
H28_2 H 0.5115 0.9906 0.2851
H29_2 H 0.5168 0.9949 0.3349
C66_2 C 0.5087(6) 0.9133(6) 0.3163(6)
H30_2 H 0.4956 0.8856 0.3195
H31_2 H 0.5289 0.9177 0.3390
H32_2 H 0.5232 0.9147 0.2892
H28_3 H 0.0115 0.5094 0.7149
H29_3 H 0.0168 0.5051 0.6651
C66_3 C 0.0087(6) 0.5867(6) 0.6837(6)
H31_3 H 0.0289 0.5823 0.6610
H32_3 H 0.0232 0.5853 0.7108
N1_3 N 0.9740(5) 0.5518(5) 0.6819(5)
H25_3 H 0.9545 0.5559 0.7028
H26_3 H 0.9604 0.5524 0.6564
C65_3 C 0.9966(6) 0.5093(6) 0.6880(6)
H27_3 H 0.9759 0.4866 0.6877
H30_3 H 0.9956 0.6144 0.6805
N1_4 N 0.5260(5) 0.4482(5) 0.1819(5)
H25_4 H 0.5455 0.4441 0.2028
H26_4 H 0.5396 0.4476 0.1564
C65_4 C 0.5034(6) 0.4907(6) 0.1880(6)
H27_4 H 0.5241 0.5134 0.1877
H28_4 H 0.4885 0.4906 0.2149
H29_4 H 0.4832 0.4949 0.1651
C66_4 C 0.4913(6) 0.4133(6) 0.1837(6)
H30_4 H 0.5044 0.3856 0.1805
H31_4 H 0.4711 0.4177 0.1610
H32_4 H 0.4768 0.4147 0.2108
N1_5 N 0.8181(5) 0.0260(5) 0.0518(5)
H25_5 H 0.7972 0.0455 0.0559
H26_5 H 0.8436 0.0396 0.0524
C65_5 C 0.8120(6) 0.0034(6) 0.0093(6)
H30_5 H 0.8195 0.0044 0.1144
H27_5 H 0.8123 0.0241 0.9866
H28_5 H 0.7851 0.9885 0.0094
H29_5 H 0.8349 0.9832 0.0051
C66_5 C 0.8163(6) 0.9913(6) 0.0867(6)
H31_5 H 0.8390 0.9711 0.0823
H32_5 H 0.7892 0.9768 0.0853
H27_6 H 0.3123 0.4759 0.0134
N1_6 N 0.3181(5) 0.4740(5) 0.9482(5)
H25_6 H 0.2972 0.4545 0.9441
H26_6 H 0.3436 0.4604 0.9476
C65_6 C 0.3120(6) 0.4966(6) 0.9907(6)
H28_6 H 0.2851 0.5115 0.9906
H29_6 H 0.3349 0.5168 0.9949
C66_6 C 0.3163(6) 0.5087(6) 0.9133(6)
H30_6 H 0.3195 0.4956 0.8856
H31_6 H 0.3390 0.5289 0.9177
H32_6 H 0.2892 0.5232 0.9147
H28_7 H 0.7149 0.0115 0.5094
H29_7 H 0.6651 0.0168 0.5051
C66_7 C 0.6837(6) 0.0087(6) 0.5867(6)
H31_7 H 0.6610 0.0289 0.5823
H32_7 H 0.7108 0.0232 0.5853
N1_7 N 0.6819(5) 0.9740(5) 0.5518(5)
H25_7 H 0.7028 0.9545 0.5559
H26_7 H 0.6564 0.9604 0.5524
C65_7 C 0.6880(6) 0.9966(6) 0.5093(6)
H27_7 H 0.6877 0.9759 0.4866
H30_7 H 0.6805 0.9956 0.6144
N1_8 N 0.1819(5) 0.5260(5) 0.4482(5)
H25_8 H 0.2028 0.5455 0.4441
H26_8 H 0.1564 0.5396 0.4476
C65_8 C 0.1880(6) 0.5034(6) 0.4907(6)
H27_8 H 0.1877 0.5241 0.5134
H28_8 H 0.2149 0.4885 0.4906
H29_8 H 0.1651 0.4832 0.4949
C66_8 C 0.1837(6) 0.4913(6) 0.4133(6)
H30_8 H 0.1805 0.5044 0.3856
H31_8 H 0.1610 0.4711 0.4177
H32_8 H 0.2108 0.4768 0.4147
N1_9 N 0.0518(5) 0.8181(5) 0.0260(5)
H25_9 H 0.0559 0.7972 0.0455
H26_9 H 0.0524 0.8436 0.0396
C65_9 C 0.0093(6) 0.8120(6) 0.0034(6)
H30_9 H 0.1144 0.8195 0.0044
H28_9 H 0.0094 0.7851 0.9885
H29_9 H 0.0051 0.8349 0.9832
C66_9 C 0.0867(6) 0.8163(6) 0.9913(6)
H31_9 H 0.0823 0.8390 0.9711
H32_9 H 0.0853 0.7892 0.9768
H27_9 H 0.9866 0.8123 0.0241
H27_10 H 0.0134 0.3123 0.4759
N1_10 N 0.9482(5) 0.3181(5) 0.4740(5)
H25_10 H 0.9441 0.2972 0.4545
H26_10 H 0.9476 0.3436 0.4604
C65_10 C 0.9907(6) 0.3120(6) 0.4966(6)
H28_10 H 0.9906 0.2851 0.5115
H29_10 H 0.9949 0.3349 0.5168
C66_10 C 0.9133(6) 0.3163(6) 0.5087(6)
H30_10 H 0.8856 0.3195 0.4956
H31_10 H 0.9177 0.3390 0.5289
H32_10 H 0.9147 0.2892 0.5232
H28_11 H 0.5094 0.7149 0.0115
H29_11 H 0.5051 0.6651 0.0168
C66_11 C 0.5867(6) 0.6837(6) 0.0087(6)
H31_11 H 0.5823 0.6610 0.0289
H32_11 H 0.5853 0.7108 0.0232
N1_11 N 0.5518(5) 0.6819(5) 0.9740(5)
H25_11 H 0.5559 0.7028 0.9545
H26_11 H 0.5524 0.6564 0.9604
C65_11 C 0.5093(6) 0.6880(6) 0.9966(6)
H27_11 H 0.4866 0.6877 0.9759
H30_11 H 0.6144 0.6805 0.9956
N1_12 N 0.4482(5) 0.1819(5) 0.5260(5)
H25_12 H 0.4441 0.2028 0.5455
H26_12 H 0.4476 0.1564 0.5396
C65_12 C 0.4907(6) 0.1880(6) 0.5034(6)
H27_12 H 0.5134 0.1877 0.5241
H28_12 H 0.4906 0.2149 0.4885
H29_12 H 0.4949 0.1651 0.4832
C66_12 C 0.4133(6) 0.1837(6) 0.4913(6)
H30_12 H 0.3856 0.1805 0.5044
H31_12 H 0.4177 0.1610 0.4711
H32_12 H 0.4147 0.2108 0.4768
N1_13 N 0.3018(5) 0.2760(5) 0.0681(5)
H25_13 H 0.3059 0.2955 0.0472
H26_13 H 0.3024 0.2896 0.0936
C65_13 C 0.2593(6) 0.2534(6) 0.0620(6)
H27_13 H 0.2366 0.2741 0.0623
H28_13 H 0.2594 0.2385 0.0351
H29_13 H 0.2551 0.2332 0.0849
C66_13 C 0.3367(6) 0.2413(6) 0.0663(6)
H30_13 H 0.3644 0.2544 0.0695
H31_13 H 0.3323 0.2211 0.0890
H32_13 H 0.3353 0.2268 0.0392
N1_14 N 0.1982(5) 0.7240(5) 0.5681(5)
H25_14 H 0.1941 0.7045 0.5472
H26_14 H 0.1976 0.7104 0.5936
C65_14 C 0.2407(6) 0.7466(6) 0.5620(6)
H27_14 H 0.2634 0.7259 0.5623
H28_14 H 0.2406 0.7615 0.5351
H29_14 H 0.2449 0.7668 0.5849
C66_14 C 0.1633(6) 0.7587(6) 0.5663(6)
H30_14 H 0.1356 0.7456 0.5695
H31_14 H 0.1677 0.7789 0.5890
H32_14 H 0.1647 0.7732 0.5392
N1_15 N 0.8018(5) 0.2240(5) 0.9319(5)
H25_15 H 0.8059 0.2045 0.9528
H26_15 H 0.8024 0.2104 0.9064
C65_15 C 0.7593(6) 0.2466(6) 0.9380(6)
H27_15 H 0.7366 0.2259 0.9377
H28_15 H 0.7594 0.2615 0.9649
H29_15 H 0.7551 0.2668 0.9151
C66_15 C 0.8367(6) 0.2587(6) 0.9337(6)
H30_15 H 0.8644 0.2456 0.9305
H31_15 H 0.8323 0.2789 0.9110
H32_15 H 0.8353 0.2732 0.9608
N1_16 N 0.6982(5) 0.7760(5) 0.4319(5)
H25_16 H 0.6941 0.7955 0.4528
H26_16 H 0.6976 0.7896 0.4064
C65_16 C 0.7407(6) 0.7534(6) 0.4380(6)
H27_16 H 0.7634 0.7741 0.4377
H28_16 H 0.7406 0.7385 0.4649
H29_16 H 0.7449 0.7332 0.4151
C66_16 C 0.6633(6) 0.7413(6) 0.4337(6)
H30_16 H 0.6356 0.7544 0.4305
H31_16 H 0.6677 0.7211 0.4110
H32_16 H 0.6647 0.7268 0.4608
N1_17 N 0.2760(5) 0.0681(5) 0.3018(5)
H25_17 H 0.2955 0.0472 0.3059
H26_17 H 0.2896 0.0936 0.3024
C65_17 C 0.2534(6) 0.0620(6) 0.2593(6)
H27_17 H 0.2741 0.0623 0.2366
H28_17 H 0.2385 0.0351 0.2594
H29_17 H 0.2332 0.0849 0.2551
C66_17 C 0.2413(6) 0.0663(6) 0.3367(6)
H30_17 H 0.2544 0.0695 0.3644
H31_17 H 0.2211 0.0890 0.3323
H32_17 H 0.2268 0.0392 0.3353
N1_18 N 0.7240(5) 0.5681(5) 0.1982(5)
H25_18 H 0.7045 0.5472 0.1941
H26_18 H 0.7104 0.5936 0.1976
C65_18 C 0.7466(6) 0.5620(6) 0.2407(6)
H27_18 H 0.7259 0.5623 0.2634
H28_18 H 0.7615 0.5351 0.2406
H29_18 H 0.7668 0.5849 0.2449
C66_18 C 0.7587(6) 0.5663(6) 0.1633(6)
H30_18 H 0.7456 0.5695 0.1356
H31_18 H 0.7789 0.5890 0.1677
H32_18 H 0.7732 0.5392 0.1647
N1_19 N 0.2240(5) 0.9319(5) 0.8018(5)
H25_19 H 0.2045 0.9528 0.8059
H26_19 H 0.2104 0.9064 0.8024
C65_19 C 0.2466(6) 0.9380(6) 0.7593(6)
H27_19 H 0.2259 0.9377 0.7366
H28_19 H 0.2615 0.9649 0.7594
H29_19 H 0.2668 0.9151 0.7551
C66_19 C 0.2587(6) 0.9337(6) 0.8367(6)
H30_19 H 0.2456 0.9305 0.8644
H31_19 H 0.2789 0.9110 0.8323
H32_19 H 0.2732 0.9608 0.8353
N1_20 N 0.7760(5) 0.4319(5) 0.6982(5)
H25_20 H 0.7955 0.4528 0.6941
H26_20 H 0.7896 0.4064 0.6976
C65_20 C 0.7534(6) 0.4380(6) 0.7407(6)
H27_20 H 0.7741 0.4377 0.7634
H28_20 H 0.7385 0.4649 0.7406
H29_20 H 0.7332 0.4151 0.7449
C66_20 C 0.7413(6) 0.4337(6) 0.6633(6)
H30_20 H 0.7544 0.4305 0.6356
H31_20 H 0.7211 0.4110 0.6677
H32_20 H 0.7268 0.4608 0.6647
N1_21 N 0.0681(5) 0.3018(5) 0.2760(5)
H25_21 H 0.0472 0.3059 0.2955
H26_21 H 0.0936 0.3024 0.2896
C65_21 C 0.0620(6) 0.2593(6) 0.2534(6)
H27_21 H 0.0623 0.2366 0.2741
H28_21 H 0.0351 0.2594 0.2385
H29_21 H 0.0849 0.2551 0.2332
C66_21 C 0.0663(6) 0.3367(6) 0.2413(6)
H30_21 H 0.0695 0.3644 0.2544
H31_21 H 0.0890 0.3323 0.2211
H32_21 H 0.0392 0.3353 0.2268
N1_22 N 0.5681(5) 0.1982(5) 0.7240(5)
H25_22 H 0.5472 0.1941 0.7045
H26_22 H 0.5936 0.1976 0.7104
C65_22 C 0.5620(6) 0.2407(6) 0.7466(6)
H27_22 H 0.5623 0.2634 0.7259
H28_22 H 0.5351 0.2406 0.7615
H29_22 H 0.5849 0.2449 0.7668
C66_22 C 0.5663(6) 0.1633(6) 0.7587(6)
H30_22 H 0.5695 0.1356 0.7456
H31_22 H 0.5890 0.1677 0.7789
H32_22 H 0.5392 0.1647 0.7732
N1_23 N 0.9319(5) 0.8018(5) 0.2240(5)
H25_23 H 0.9528 0.8059 0.2045
H26_23 H 0.9064 0.8024 0.2104
C65_23 C 0.9380(6) 0.7593(6) 0.2466(6)
H27_23 H 0.9377 0.7366 0.2259
H28_23 H 0.9649 0.7594 0.2615
H29_23 H 0.9151 0.7551 0.2668
C66_23 C 0.9337(6) 0.8367(6) 0.2587(6)
H30_23 H 0.9305 0.8644 0.2456
H31_23 H 0.9110 0.8323 0.2789
H32_23 H 0.9608 0.8353 0.2732
N1_24 N 0.4319(5) 0.6982(5) 0.7760(5)
H25_24 H 0.4528 0.6941 0.7955
H26_24 H 0.4064 0.6976 0.7896
C65_24 C 0.4380(6) 0.7407(6) 0.7534(6)
H27_24 H 0.4377 0.7634 0.7741
H28_24 H 0.4649 0.7406 0.7385
H29_24 H 0.4151 0.7449 0.7332
C66_24 C 0.4337(6) 0.6633(6) 0.7413(6)
H30_24 H 0.4305 0.6356 0.7544
H31_24 H 0.4110 0.6677 0.7211
H32_24 H 0.4608 0.6647 0.7268
N1_25 N 0.5260(5) 0.5518(5) 0.3181(5)
H25_25 H 0.5455 0.5559 0.2972
H26_25 H 0.5396 0.5524 0.3436
C65_25 C 0.5034(6) 0.5093(6) 0.3120(6)
H27_25 H 0.5241 0.4866 0.3123
H28_25 H 0.4885 0.5094 0.2851
H29_25 H 0.4832 0.5051 0.3349
C66_25 C 0.4913(6) 0.5867(6) 0.3163(6)
H30_25 H 0.5044 0.6144 0.3195
H31_25 H 0.4711 0.5823 0.3390
H32_25 H 0.4768 0.5853 0.2892
H28_26 H 0.0115 0.4906 0.7851
H29_26 H 0.0168 0.4949 0.8349
C66_26 C 0.0087(6) 0.4133(6) 0.8163(6)
H31_26 H 0.0289 0.4177 0.8390
H32_26 H 0.0232 0.4147 0.7892
N1_26 N 0.9740(5) 0.4482(5) 0.8181(5)
H25_26 H 0.9545 0.4441 0.7972
H26_26 H 0.9604 0.4476 0.8436
C65_26 C 0.9966(6) 0.4907(6) 0.8120(6)
H27_26 H 0.9759 0.5134 0.8123
H30_26 H 0.9956 0.3856 0.8195
N1_27 N 0.4740(5) 0.0518(5) 0.1819(5)
H25_27 H 0.4545 0.0559 0.2028
H26_27 H 0.4604 0.0524 0.1564
C65_27 C 0.4966(6) 0.0093(6) 0.1880(6)
H28_27 H 0.5115 0.0094 0.2149
H29_27 H 0.5168 0.0051 0.1651
C66_27 C 0.5087(6) 0.0867(6) 0.1837(6)
H30_27 H 0.4956 0.1144 0.1805
H31_27 H 0.5289 0.0823 0.1610
H32_27 H 0.5232 0.0853 0.2108
H27_27 H 0.4759 0.9866 0.1877
H27_28 H 0.0241 0.0134 0.6877
N1_28 N 0.0260(5) 0.9482(5) 0.6819(5)
H25_28 H 0.0455 0.9441 0.7028
H26_28 H 0.0396 0.9476 0.6564
C65_28 C 0.0034(6) 0.9907(6) 0.6880(6)
H30_28 H 0.0044 0.8856 0.6805
H28_28 H 0.9885 0.9906 0.7149
H29_28 H 0.9832 0.9949 0.6651
C66_28 C 0.9913(6) 0.9133(6) 0.6837(6)
H31_28 H 0.9711 0.9177 0.6610
H32_28 H 0.9768 0.9147 0.7108
N1_29 N 0.3181(5) 0.5260(5) 0.5518(5)
H25_29 H 0.2972 0.5455 0.5559
H26_29 H 0.3436 0.5396 0.5524
C65_29 C 0.3120(6) 0.5034(6) 0.5093(6)
H27_29 H 0.3123 0.5241 0.4866
H28_29 H 0.2851 0.4885 0.5094
H29_29 H 0.3349 0.4832 0.5051
C66_29 C 0.3163(6) 0.4913(6) 0.5867(6)
H30_29 H 0.3195 0.5044 0.6144
H31_29 H 0.3390 0.4711 0.5823
H32_29 H 0.2892 0.4768 0.5853
H28_30 H 0.7851 0.0115 0.4906
H29_30 H 0.8349 0.0168 0.4949
C66_30 C 0.8163(6) 0.0087(6) 0.4133(6)
H31_30 H 0.8390 0.0289 0.4177
H32_30 H 0.7892 0.0232 0.4147
N1_30 N 0.8181(5) 0.9740(5) 0.4482(5)
H25_30 H 0.7972 0.9545 0.4441
H26_30 H 0.8436 0.9604 0.4476
C65_30 C 0.8120(6) 0.9966(6) 0.4907(6)
H27_30 H 0.8123 0.9759 0.5134
H30_30 H 0.8195 0.9956 0.3856
N1_31 N 0.1819(5) 0.4740(5) 0.0518(5)
H25_31 H 0.2028 0.4545 0.0559
H26_31 H 0.1564 0.4604 0.0524
C65_31 C 0.1880(6) 0.4966(6) 0.0093(6)
H28_31 H 0.2149 0.5115 0.0094
H29_31 H 0.1651 0.5168 0.0051
C66_31 C 0.1837(6) 0.5087(6) 0.0867(6)
H30_31 H 0.1805 0.4956 0.1144
H31_31 H 0.1610 0.5289 0.0823
H32_31 H 0.2108 0.5232 0.0853
H27_31 H 0.1877 0.4759 0.9866
H27_32 H 0.6877 0.0241 0.0134
N1_32 N 0.6819(5) 0.0260(5) 0.9482(5)
H25_32 H 0.7028 0.0455 0.9441
H26_32 H 0.6564 0.0396 0.9476
C65_32 C 0.6880(6) 0.0034(6) 0.9907(6)
H30_32 H 0.6805 0.0044 0.8856
H28_32 H 0.7149 0.9885 0.9906
H29_32 H 0.6651 0.9832 0.9949
C66_32 C 0.6837(6) 0.9913(6) 0.9133(6)
H31_32 H 0.6610 0.9711 0.9177
H32_32 H 0.7108 0.9768 0.9147
N1_33 N 0.5518(5) 0.3181(5) 0.5260(5)
H25_33 H 0.5559 0.2972 0.5455
H26_33 H 0.5524 0.3436 0.5396
C65_33 C 0.5093(6) 0.3120(6) 0.5034(6)
H27_33 H 0.4866 0.3123 0.5241
H28_33 H 0.5094 0.2851 0.4885
H29_33 H 0.5051 0.3349 0.4832
C66_33 C 0.5867(6) 0.3163(6) 0.4913(6)
H30_33 H 0.6144 0.3195 0.5044
H31_33 H 0.5823 0.3390 0.4711
H32_33 H 0.5853 0.2892 0.4768
H28_34 H 0.4906 0.7851 0.0115
H29_34 H 0.4949 0.8349 0.0168
C66_34 C 0.4133(6) 0.8163(6) 0.0087(6)
H31_34 H 0.4177 0.8390 0.0289
H32_34 H 0.4147 0.7892 0.0232
N1_34 N 0.4482(5) 0.8181(5) 0.9740(5)
H25_34 H 0.4441 0.7972 0.9545
H26_34 H 0.4476 0.8436 0.9604
C65_34 C 0.4907(6) 0.8120(6) 0.9966(6)
H27_34 H 0.5134 0.8123 0.9759
H30_34 H 0.3856 0.8195 0.9956
N1_35 N 0.0518(5) 0.1819(5) 0.4740(5)
H25_35 H 0.0559 0.2028 0.4545
H26_35 H 0.0524 0.1564 0.4604
C65_35 C 0.0093(6) 0.1880(6) 0.4966(6)
H28_35 H 0.0094 0.2149 0.5115
H29_35 H 0.0051 0.1651 0.5168
C66_35 C 0.0867(6) 0.1837(6) 0.5087(6)
H30_35 H 0.1144 0.1805 0.4956
H31_35 H 0.0823 0.1610 0.5289
H32_35 H 0.0853 0.2108 0.5232
H27_35 H 0.9866 0.1877 0.4759
H27_36 H 0.0134 0.6877 0.0241
N1_36 N 0.9482(5) 0.6819(5) 0.0260(5)
H25_36 H 0.9441 0.7028 0.0455
H26_36 H 0.9476 0.6564 0.0396
C65_36 C 0.9907(6) 0.6880(6) 0.0034(6)
H30_36 H 0.8856 0.6805 0.0044
H28_36 H 0.9906 0.7149 0.9885
H29_36 H 0.9949 0.6651 0.9832
C66_36 C 0.9133(6) 0.6837(6) 0.9913(6)
H31_36 H 0.9177 0.6610 0.9711
H32_36 H 0.9147 0.7108 0.9768
N1_37 N 0.8018(5) 0.7760(5) 0.5681(5)
H25_37 H 0.8059 0.7955 0.5472
H26_37 H 0.8024 0.7896 0.5936
C65_37 C 0.7593(6) 0.7534(6) 0.5620(6)
H27_37 H 0.7366 0.7741 0.5623
H28_37 H 0.7594 0.7385 0.5351
H29_37 H 0.7551 0.7332 0.5849
C66_37 C 0.8367(6) 0.7413(6) 0.5663(6)
H30_37 H 0.8644 0.7544 0.5695
H31_37 H 0.8323 0.7211 0.5890
H32_37 H 0.8353 0.7268 0.5392
N1_38 N 0.6982(5) 0.2240(5) 0.0681(5)
H25_38 H 0.6941 0.2045 0.0472
H26_38 H 0.6976 0.2104 0.0936
C65_38 C 0.7407(6) 0.2466(6) 0.0620(6)
H27_38 H 0.7634 0.2259 0.0623
H28_38 H 0.7406 0.2615 0.0351
H29_38 H 0.7449 0.2668 0.0849
C66_38 C 0.6633(6) 0.2587(6) 0.0663(6)
H30_38 H 0.6356 0.2456 0.0695
H31_38 H 0.6677 0.2789 0.0890
H32_38 H 0.6647 0.2732 0.0392
N1_39 N 0.3018(5) 0.7240(5) 0.4319(5)
H25_39 H 0.3059 0.7045 0.4528
H26_39 H 0.3024 0.7104 0.4064
C65_39 C 0.2593(6) 0.7466(6) 0.4380(6)
H27_39 H 0.2366 0.7259 0.4377
H28_39 H 0.2594 0.7615 0.4649
H29_39 H 0.2551 0.7668 0.4151
C66_39 C 0.3367(6) 0.7587(6) 0.4337(6)
H30_39 H 0.3644 0.7456 0.4305
H31_39 H 0.3323 0.7789 0.4110
H32_39 H 0.3353 0.7732 0.4608
N1_40 N 0.1982(5) 0.2760(5) 0.9319(5)
H25_40 H 0.1941 0.2955 0.9528
H26_40 H 0.1976 0.2896 0.9064
C65_40 C 0.2407(6) 0.2534(6) 0.9380(6)
H27_40 H 0.2634 0.2741 0.9377
H28_40 H 0.2406 0.2385 0.9649
H29_40 H 0.2449 0.2332 0.9151
C66_40 C 0.1633(6) 0.2413(6) 0.9337(6)
H30_40 H 0.1356 0.2544 0.9305
H31_40 H 0.1677 0.2211 0.9110
H32_40 H 0.1647 0.2268 0.9608
N1_41 N 0.7760(5) 0.5681(5) 0.8018(5)
H25_41 H 0.7955 0.5472 0.8059
H26_41 H 0.7896 0.5936 0.8024
C65_41 C 0.7534(6) 0.5620(6) 0.7593(6)
H27_41 H 0.7741 0.5623 0.7366
H28_41 H 0.7385 0.5351 0.7594
H29_41 H 0.7332 0.5849 0.7551
C66_41 C 0.7413(6) 0.5663(6) 0.8367(6)
H30_41 H 0.7544 0.5695 0.8644
H31_41 H 0.7211 0.5890 0.8323
H32_41 H 0.7268 0.5392 0.8353
N1_42 N 0.2240(5) 0.0681(5) 0.6982(5)
H25_42 H 0.2045 0.0472 0.6941
H26_42 H 0.2104 0.0936 0.6976
C65_42 C 0.2466(6) 0.0620(6) 0.7407(6)
H27_42 H 0.2259 0.0623 0.7634
H28_42 H 0.2615 0.0351 0.7406
H29_42 H 0.2668 0.0849 0.7449
C66_42 C 0.2587(6) 0.0663(6) 0.6633(6)
H30_42 H 0.2456 0.0695 0.6356
H31_42 H 0.2789 0.0890 0.6677
H32_42 H 0.2732 0.0392 0.6647
N1_43 N 0.7240(5) 0.4319(5) 0.3018(5)
H25_43 H 0.7045 0.4528 0.3059
H26_43 H 0.7104 0.4064 0.3024
C65_43 C 0.7466(6) 0.4380(6) 0.2593(6)
H27_43 H 0.7259 0.4377 0.2366
H28_43 H 0.7615 0.4649 0.2594
H29_43 H 0.7668 0.4151 0.2551
C66_43 C 0.7587(6) 0.4337(6) 0.3367(6)
H30_43 H 0.7456 0.4305 0.3644
H31_43 H 0.7789 0.4110 0.3323
H32_43 H 0.7732 0.4608 0.3353
N1_44 N 0.2760(5) 0.9319(5) 0.1982(5)
H25_44 H 0.2955 0.9528 0.1941
H26_44 H 0.2896 0.9064 0.1976
C65_44 C 0.2534(6) 0.9380(6) 0.2407(6)
H27_44 H 0.2741 0.9377 0.2634
H28_44 H 0.2385 0.9649 0.2406
H29_44 H 0.2332 0.9151 0.2449
C66_44 C 0.2413(6) 0.9337(6) 0.1633(6)
H30_44 H 0.2544 0.9305 0.1356
H31_44 H 0.2211 0.9110 0.1677
H32_44 H 0.2268 0.9608 0.1647
N1_45 N 0.5681(5) 0.8018(5) 0.7760(5)
H25_45 H 0.5472 0.8059 0.7955
H26_45 H 0.5936 0.8024 0.7896
C65_45 C 0.5620(6) 0.7593(6) 0.7534(6)
H27_45 H 0.5623 0.7366 0.7741
H28_45 H 0.5351 0.7594 0.7385
H29_45 H 0.5849 0.7551 0.7332
C66_45 C 0.5663(6) 0.8367(6) 0.7413(6)
H30_45 H 0.5695 0.8644 0.7544
H31_45 H 0.5890 0.8323 0.7211
H32_45 H 0.5392 0.8353 0.7268
N1_46 N 0.0681(5) 0.6982(5) 0.2240(5)
H25_46 H 0.0472 0.6941 0.2045
H26_46 H 0.0936 0.6976 0.2104
C65_46 C 0.0620(6) 0.7407(6) 0.2466(6)
H27_46 H 0.0623 0.7634 0.2259
H28_46 H 0.0351 0.7406 0.2615
H29_46 H 0.0849 0.7449 0.2668
C66_46 C 0.0663(6) 0.6633(6) 0.2587(6)
H30_46 H 0.0695 0.6356 0.2456
H31_46 H 0.0890 0.6677 0.2789
H32_46 H 0.0392 0.6647 0.2732
N1_47 N 0.4319(5) 0.3018(5) 0.7240(5)
H25_47 H 0.4528 0.3059 0.7045
H26_47 H 0.4064 0.3024 0.7104
C65_47 C 0.4380(6) 0.2593(6) 0.7466(6)
H27_47 H 0.4377 0.2366 0.7259
H28_47 H 0.4649 0.2594 0.7615
H29_47 H 0.4151 0.2551 0.7668
C66_47 C 0.4337(6) 0.3367(6) 0.7587(6)
H30_47 H 0.4305 0.3644 0.7456
H31_47 H 0.4110 0.3323 0.7789
H32_47 H 0.4608 0.3353 0.7732
N1_48 N 0.9319(5) 0.1982(5) 0.2760(5)
H25_48 H 0.9528 0.1941 0.2955
H26_48 H 0.9064 0.1976 0.2896
C65_48 C 0.9380(6) 0.2407(6) 0.2534(6)
H27_48 H 0.9377 0.2634 0.2741
H28_48 H 0.9649 0.2406 0.2385
H29_48 H 0.9151 0.2449 0.2332
C66_48 C 0.9337(6) 0.1633(6) 0.2413(6)
H30_48 H 0.9305 0.1356 0.2544
H31_48 H 0.9110 0.1677 0.2211
H32_48 H 0.9608 0.1647 0.2268
C67 C 0.006(3) 0.111(4) 0.147(2)
H34 H 0.0179 0.1080 0.1752
H35 H 0.0271 0.1046 0.1259
C68 C 0.025(3) 0.184(2) 0.138(2)
H36 H 0.0147 0.2106 0.1270
H37 H 0.0463 0.1725 0.1184
H38 H 0.0377 0.1878 0.1655
H33 H 0.9824 0.0907 0.1442
N2 N 0.990(3) 0.154(3) 0.1410(16)
H39 H 0.9731 0.1610 0.1634
H40 H 0.9739 0.1548 0.1171
C67_2 C 0.494(3) 0.889(4) 0.647(2)
H33_2 H 0.5176 0.9093 0.6442
H34_2 H 0.4821 0.8920 0.6752
H35_2 H 0.4729 0.8954 0.6259
C68_2 C 0.475(3) 0.816(2) 0.638(2)
H36_2 H 0.4853 0.7894 0.6270
H37_2 H 0.4537 0.8275 0.6184
H38_2 H 0.4623 0.8122 0.6655
N2_2 N 0.510(3) 0.846(3) 0.6410(16)
H39_2 H 0.5269 0.8390 0.6634
H40_2 H 0.5261 0.8452 0.6171
H33_3 H 0.0176 0.5907 0.3558
N2_3 N 0.010(3) 0.654(3) 0.3590(16)
H39_3 H 0.0269 0.6610 0.3366
H40_3 H 0.0261 0.6548 0.3829
C67_3 C 0.994(3) 0.611(4) 0.353(2)
H34_3 H 0.9821 0.6080 0.3248
H35_3 H 0.9729 0.6046 0.3741
C68_3 C 0.975(3) 0.684(2) 0.362(2)
H36_3 H 0.9853 0.7106 0.3730
H37_3 H 0.9537 0.6725 0.3816
H38_3 H 0.9623 0.6878 0.3345
C67_4 C 0.506(3) 0.389(4) 0.853(2)
H33_4 H 0.4824 0.4093 0.8558
H34_4 H 0.5179 0.3920 0.8248
H35_4 H 0.5271 0.3954 0.8741
C68_4 C 0.525(3) 0.316(2) 0.862(2)
H36_4 H 0.5147 0.2894 0.8730
H37_4 H 0.5463 0.3275 0.8816
H38_4 H 0.5377 0.3122 0.8345
N2_4 N 0.490(3) 0.346(3) 0.8590(16)
H39_4 H 0.4731 0.3390 0.8366
H40_4 H 0.4739 0.3452 0.8829
C67_5 C 0.147(2) 0.006(3) 0.111(4)
H34_5 H 0.1752 0.0179 0.1080
H35_5 H 0.1259 0.0271 0.1046
C68_5 C 0.138(2) 0.025(3) 0.184(2)
H36_5 H 0.1270 0.0147 0.2106
H37_5 H 0.1184 0.0463 0.1725
H38_5 H 0.1655 0.0377 0.1878
H33_5 H 0.1442 0.9824 0.0907
N2_5 N 0.1410(16) 0.990(3) 0.154(3)
H39_5 H 0.1634 0.9731 0.1610
H40_5 H 0.1171 0.9739 0.1548
C67_6 C 0.647(2) 0.494(3) 0.889(4)
H33_6 H 0.6442 0.5176 0.9093
H34_6 H 0.6752 0.4821 0.8920
H35_6 H 0.6259 0.4729 0.8954
C68_6 C 0.638(2) 0.475(3) 0.816(2)
H36_6 H 0.6270 0.4853 0.7894
H37_6 H 0.6184 0.4537 0.8275
H38_6 H 0.6655 0.4623 0.8122
N2_6 N 0.6410(16) 0.510(3) 0.846(3)
H39_6 H 0.6634 0.5269 0.8390
H40_6 H 0.6171 0.5261 0.8452
H33_7 H 0.3558 0.0176 0.5907
N2_7 N 0.3590(16) 0.010(3) 0.654(3)
H39_7 H 0.3366 0.0269 0.6610
H40_7 H 0.3829 0.0261 0.6548
C67_7 C 0.353(2) 0.994(3) 0.611(4)
H34_7 H 0.3248 0.9821 0.6080
H35_7 H 0.3741 0.9729 0.6046
C68_7 C 0.362(2) 0.975(3) 0.684(2)
H36_7 H 0.3730 0.9853 0.7106
H37_7 H 0.3816 0.9537 0.6725
H38_7 H 0.3345 0.9623 0.6878
C67_8 C 0.853(2) 0.506(3) 0.389(4)
H33_8 H 0.8558 0.4824 0.4093
H34_8 H 0.8248 0.5179 0.3920
H35_8 H 0.8741 0.5271 0.3954
C68_8 C 0.862(2) 0.525(3) 0.316(2)
H36_8 H 0.8730 0.5147 0.2894
H37_8 H 0.8816 0.5463 0.3275
H38_8 H 0.8345 0.5377 0.3122
N2_8 N 0.8590(16) 0.490(3) 0.346(3)
H39_8 H 0.8366 0.4731 0.3390
H40_8 H 0.8829 0.4739 0.3452
C67_9 C 0.111(4) 0.147(2) 0.006(3)
H34_9 H 0.1080 0.1752 0.0179
H35_9 H 0.1046 0.1259 0.0271
C68_9 C 0.184(2) 0.138(2) 0.025(3)
H36_9 H 0.2106 0.1270 0.0147
H37_9 H 0.1725 0.1184 0.0463
H38_9 H 0.1878 0.1655 0.0377
H33_9 H 0.0907 0.1442 0.9824
N2_9 N 0.154(3) 0.1410(16) 0.990(3)
H39_9 H 0.1610 0.1634 0.9731
H40_9 H 0.1548 0.1171 0.9739
C67_10 C 0.889(4) 0.647(2) 0.494(3)
H33_10 H 0.9093 0.6442 0.5176
H34_10 H 0.8920 0.6752 0.4821
H35_10 H 0.8954 0.6259 0.4729
C68_10 C 0.816(2) 0.638(2) 0.475(3)
H36_10 H 0.7894 0.6270 0.4853
H37_10 H 0.8275 0.6184 0.4537
H38_10 H 0.8122 0.6655 0.4623
N2_10 N 0.846(3) 0.6410(16) 0.510(3)
H39_10 H 0.8390 0.6634 0.5269
H40_10 H 0.8452 0.6171 0.5261
H33_11 H 0.5907 0.3558 0.0176
N2_11 N 0.654(3) 0.3590(16) 0.010(3)
H39_11 H 0.6610 0.3366 0.0269
H40_11 H 0.6548 0.3829 0.0261
C67_11 C 0.611(4) 0.353(2) 0.994(3)
H34_11 H 0.6080 0.3248 0.9821
H35_11 H 0.6046 0.3741 0.9729
C68_11 C 0.684(2) 0.362(2) 0.975(3)
H36_11 H 0.7106 0.3730 0.9853
H37_11 H 0.6725 0.3816 0.9537
H38_11 H 0.6878 0.3345 0.9623
C67_12 C 0.389(4) 0.853(2) 0.506(3)
H33_12 H 0.4093 0.8558 0.4824
H34_12 H 0.3920 0.8248 0.5179
H35_12 H 0.3954 0.8741 0.5271
C68_12 C 0.316(2) 0.862(2) 0.525(3)
H36_12 H 0.2894 0.8730 0.5147
H37_12 H 0.3275 0.8816 0.5463
H38_12 H 0.3122 0.8345 0.5377
N2_12 N 0.346(3) 0.8590(16) 0.490(3)
H39_12 H 0.3390 0.8366 0.4731
H40_12 H 0.3452 0.8829 0.4739
C67_13 C 0.361(4) 0.256(3) 0.397(2)
H33_13 H 0.3407 0.2324 0.3942
H34_13 H 0.3580 0.2679 0.4252
H35_13 H 0.3546 0.2771 0.3759
C68_13 C 0.434(2) 0.275(3) 0.388(2)
H36_13 H 0.4606 0.2647 0.3770
H37_13 H 0.4225 0.2963 0.3684
H38_13 H 0.4378 0.2877 0.4155
N2_13 N 0.404(3) 0.240(3) 0.3910(16)
H39_13 H 0.4110 0.2231 0.4134
H40_13 H 0.4048 0.2239 0.3671
C67_14 C 0.139(4) 0.744(3) 0.897(2)
H33_14 H 0.1593 0.7676 0.8942
H34_14 H 0.1420 0.7321 0.9252
H35_14 H 0.1454 0.7229 0.8759
C68_14 C 0.066(2) 0.725(3) 0.888(2)
H36_14 H 0.0394 0.7353 0.8770
H37_14 H 0.0775 0.7037 0.8684
H38_14 H 0.0622 0.7123 0.9155
N2_14 N 0.096(3) 0.760(3) 0.8910(16)
H39_14 H 0.0890 0.7769 0.9134
H40_14 H 0.0952 0.7761 0.8671
C67_15 C 0.861(4) 0.244(3) 0.603(2)
H33_15 H 0.8407 0.2676 0.6058
H34_15 H 0.8580 0.2321 0.5748
H35_15 H 0.8546 0.2229 0.6241
C68_15 C 0.934(2) 0.225(3) 0.612(2)
H36_15 H 0.9606 0.2353 0.6230
H37_15 H 0.9225 0.2037 0.6316
H38_15 H 0.9378 0.2123 0.5845
N2_15 N 0.904(3) 0.260(3) 0.6090(16)
H39_15 H 0.9110 0.2769 0.5866
H40_15 H 0.9048 0.2761 0.6329
C67_16 C 0.639(4) 0.756(3) 0.103(2)
H33_16 H 0.6593 0.7324 0.1058
H34_16 H 0.6420 0.7679 0.0748
H35_16 H 0.6454 0.7771 0.1241
C68_16 C 0.566(2) 0.775(3) 0.112(2)
H36_16 H 0.5394 0.7647 0.1230
H37_16 H 0.5775 0.7963 0.1316
H38_16 H 0.5622 0.7877 0.0845
N2_16 N 0.596(3) 0.740(3) 0.1090(16)
H39_16 H 0.5890 0.7231 0.0866
H40_16 H 0.5952 0.7239 0.1329
C67_17 C 0.256(3) 0.397(2) 0.361(4)
H33_17 H 0.2324 0.3942 0.3407
H34_17 H 0.2679 0.4252 0.3580
H35_17 H 0.2771 0.3759 0.3546
C68_17 C 0.275(3) 0.388(2) 0.434(2)
H36_17 H 0.2647 0.3770 0.4606
H37_17 H 0.2963 0.3684 0.4225
H38_17 H 0.2877 0.4155 0.4378
N2_17 N 0.240(3) 0.3910(16) 0.404(3)
H39_17 H 0.2231 0.4134 0.4110
H40_17 H 0.2239 0.3671 0.4048
C67_18 C 0.744(3) 0.897(2) 0.139(4)
H33_18 H 0.7676 0.8942 0.1593
H34_18 H 0.7321 0.9252 0.1420
H35_18 H 0.7229 0.8759 0.1454
C68_18 C 0.725(3) 0.888(2) 0.066(2)
H36_18 H 0.7353 0.8770 0.0394
H37_18 H 0.7037 0.8684 0.0775
H38_18 H 0.7123 0.9155 0.0622
N2_18 N 0.760(3) 0.8910(16) 0.096(3)
H39_18 H 0.7769 0.9134 0.0890
H40_18 H 0.7761 0.8671 0.0952
C67_19 C 0.244(3) 0.603(2) 0.861(4)
H33_19 H 0.2676 0.6058 0.8407
H34_19 H 0.2321 0.5748 0.8580
H35_19 H 0.2229 0.6241 0.8546
C68_19 C 0.225(3) 0.612(2) 0.934(2)
H36_19 H 0.2353 0.6230 0.9606
H37_19 H 0.2037 0.6316 0.9225
H38_19 H 0.2123 0.5845 0.9378
N2_19 N 0.260(3) 0.6090(16) 0.904(3)
H39_19 H 0.2769 0.5866 0.9110
H40_19 H 0.2761 0.6329 0.9048
C67_20 C 0.756(3) 0.103(2) 0.639(4)
H33_20 H 0.7324 0.1058 0.6593
H34_20 H 0.7679 0.0748 0.6420
H35_20 H 0.7771 0.1241 0.6454
C68_20 C 0.775(3) 0.112(2) 0.566(2)
H36_20 H 0.7647 0.1230 0.5394
H37_20 H 0.7963 0.1316 0.5775
H38_20 H 0.7877 0.0845 0.5622
N2_20 N 0.740(3) 0.1090(16) 0.596(3)
H39_20 H 0.7231 0.0866 0.5890
H40_20 H 0.7239 0.1329 0.5952
C67_21 C 0.397(2) 0.361(4) 0.256(3)
H33_21 H 0.3942 0.3407 0.2324
H34_21 H 0.4252 0.3580 0.2679
H35_21 H 0.3759 0.3546 0.2771
C68_21 C 0.388(2) 0.434(2) 0.275(3)
H36_21 H 0.3770 0.4606 0.2647
H37_21 H 0.3684 0.4225 0.2963
H38_21 H 0.4155 0.4378 0.2877
N2_21 N 0.3910(16) 0.404(3) 0.240(3)
H39_21 H 0.4134 0.4110 0.2231
H40_21 H 0.3671 0.4048 0.2239
C67_22 C 0.897(2) 0.139(4) 0.744(3)
H33_22 H 0.8942 0.1593 0.7676
H34_22 H 0.9252 0.1420 0.7321
H35_22 H 0.8759 0.1454 0.7229
C68_22 C 0.888(2) 0.066(2) 0.725(3)
H36_22 H 0.8770 0.0394 0.7353
H37_22 H 0.8684 0.0775 0.7037
H38_22 H 0.9155 0.0622 0.7123
N2_22 N 0.8910(16) 0.096(3) 0.760(3)
H39_22 H 0.9134 0.0890 0.7769
H40_22 H 0.8671 0.0952 0.7761
C67_23 C 0.603(2) 0.861(4) 0.244(3)
H33_23 H 0.6058 0.8407 0.2676
H34_23 H 0.5748 0.8580 0.2321
H35_23 H 0.6241 0.8546 0.2229
C68_23 C 0.612(2) 0.934(2) 0.225(3)
H36_23 H 0.6230 0.9606 0.2353
H37_23 H 0.6316 0.9225 0.2037
H38_23 H 0.5845 0.9378 0.2123
N2_23 N 0.6090(16) 0.904(3) 0.260(3)
H39_23 H 0.5866 0.9110 0.2769
H40_23 H 0.6329 0.9048 0.2761
C67_24 C 0.103(2) 0.639(4) 0.756(3)
H33_24 H 0.1058 0.6593 0.7324
H34_24 H 0.0748 0.6420 0.7679
H35_24 H 0.1241 0.6454 0.7771
C68_24 C 0.112(2) 0.566(2) 0.775(3)
H36_24 H 0.1230 0.5394 0.7647
H37_24 H 0.1316 0.5775 0.7963
H38_24 H 0.0845 0.5622 0.7877
N2_24 N 0.1090(16) 0.596(3) 0.740(3)
H39_24 H 0.0866 0.5890 0.7231
H40_24 H 0.1329 0.5952 0.7239
C67_25 C 0.506(3) 0.611(4) 0.647(2)
H33_25 H 0.4824 0.5907 0.6442
H34_25 H 0.5179 0.6080 0.6752
H35_25 H 0.5271 0.6046 0.6259
C68_25 C 0.525(3) 0.684(2) 0.638(2)
H36_25 H 0.5147 0.7106 0.6270
H37_25 H 0.5463 0.6725 0.6184
H38_25 H 0.5377 0.6878 0.6655
N2_25 N 0.490(3) 0.654(3) 0.6410(16)
H39_25 H 0.4731 0.6610 0.6634
H40_25 H 0.4739 0.6548 0.6171
H33_26 H 0.0176 0.4093 0.1442
N2_26 N 0.010(3) 0.346(3) 0.1410(16)
H39_26 H 0.0269 0.3390 0.1634
H40_26 H 0.0261 0.3452 0.1171
C67_26 C 0.994(3) 0.389(4) 0.147(2)
H34_26 H 0.9821 0.3920 0.1752
H35_26 H 0.9729 0.3954 0.1259
C68_26 C 0.975(3) 0.316(2) 0.138(2)
H36_26 H 0.9853 0.2894 0.1270
H37_26 H 0.9537 0.3275 0.1184
H38_26 H 0.9623 0.3122 0.1655
C67_27 C 0.494(3) 0.111(4) 0.853(2)
H33_27 H 0.5176 0.0907 0.8558
H34_27 H 0.4821 0.1080 0.8248
H35_27 H 0.4729 0.1046 0.8741
C68_27 C 0.475(3) 0.184(2) 0.862(2)
H36_27 H 0.4853 0.2106 0.8730
H37_27 H 0.4537 0.1725 0.8816
H38_27 H 0.4623 0.1878 0.8345
N2_27 N 0.510(3) 0.154(3) 0.8590(16)
H39_27 H 0.5269 0.1610 0.8366
H40_27 H 0.5261 0.1548 0.8829
C67_28 C 0.006(3) 0.889(4) 0.353(2)
H34_28 H 0.0179 0.8920 0.3248
H35_28 H 0.0271 0.8954 0.3741
C68_28 C 0.025(3) 0.816(2) 0.362(2)
H36_28 H 0.0147 0.7894 0.3730
H37_28 H 0.0463 0.8275 0.3816
H38_28 H 0.0377 0.8122 0.3345
H33_28 H 0.9824 0.9093 0.3558
N2_28 N 0.990(3) 0.846(3) 0.3590(16)
H39_28 H 0.9731 0.8390 0.3366
H40_28 H 0.9739 0.8452 0.3829
C67_29 C 0.647(2) 0.506(3) 0.611(4)
H33_29 H 0.6442 0.4824 0.5907
H34_29 H 0.6752 0.5179 0.6080
H35_29 H 0.6259 0.5271 0.6046
C68_29 C 0.638(2) 0.525(3) 0.684(2)
H36_29 H 0.6270 0.5147 0.7106
H37_29 H 0.6184 0.5463 0.6725
H38_29 H 0.6655 0.5377 0.6878
N2_29 N 0.6410(16) 0.490(3) 0.654(3)
H39_29 H 0.6634 0.4731 0.6610
H40_29 H 0.6171 0.4739 0.6548
H33_30 H 0.1442 0.0176 0.4093
N2_30 N 0.1410(16) 0.010(3) 0.346(3)
H39_30 H 0.1634 0.0269 0.3390
H40_30 H 0.1171 0.0261 0.3452
C67_30 C 0.147(2) 0.994(3) 0.389(4)
H34_30 H 0.1752 0.9821 0.3920
H35_30 H 0.1259 0.9729 0.3954
C68_30 C 0.138(2) 0.975(3) 0.316(2)
H36_30 H 0.1270 0.9853 0.2894
H37_30 H 0.1184 0.9537 0.3275
H38_30 H 0.1655 0.9623 0.3122
C67_31 C 0.853(2) 0.494(3) 0.111(4)
H33_31 H 0.8558 0.5176 0.0907
H34_31 H 0.8248 0.4821 0.1080
H35_31 H 0.8741 0.4729 0.1046
C68_31 C 0.862(2) 0.475(3) 0.184(2)
H36_31 H 0.8730 0.4853 0.2106
H37_31 H 0.8816 0.4537 0.1725
H38_31 H 0.8345 0.4623 0.1878
N2_31 N 0.8590(16) 0.510(3) 0.154(3)
H39_31 H 0.8366 0.5269 0.1610
H40_31 H 0.8829 0.5261 0.1548
C67_32 C 0.353(2) 0.006(3) 0.889(4)
H34_32 H 0.3248 0.0179 0.8920
H35_32 H 0.3741 0.0271 0.8954
C68_32 C 0.362(2) 0.025(3) 0.816(2)
H36_32 H 0.3730 0.0147 0.7894
H37_32 H 0.3816 0.0463 0.8275
H38_32 H 0.3345 0.0377 0.8122
H33_32 H 0.3558 0.9824 0.9093
N2_32 N 0.3590(16) 0.990(3) 0.846(3)
H39_32 H 0.3366 0.9731 0.8390
H40_32 H 0.3829 0.9739 0.8452
C67_33 C 0.611(4) 0.647(2) 0.506(3)
H33_33 H 0.5907 0.6442 0.4824
H34_33 H 0.6080 0.6752 0.5179
H35_33 H 0.6046 0.6259 0.5271
C68_33 C 0.684(2) 0.638(2) 0.525(3)
H36_33 H 0.7106 0.6270 0.5147
H37_33 H 0.6725 0.6184 0.5463
H38_33 H 0.6878 0.6655 0.5377
N2_33 N 0.654(3) 0.6410(16) 0.490(3)
H39_33 H 0.6610 0.6634 0.4731
H40_33 H 0.6548 0.6171 0.4739
H33_34 H 0.4093 0.1442 0.0176
N2_34 N 0.346(3) 0.1410(16) 0.010(3)
H39_34 H 0.3390 0.1634 0.0269
H40_34 H 0.3452 0.1171 0.0261
C67_34 C 0.389(4) 0.147(2) 0.994(3)
H34_34 H 0.3920 0.1752 0.9821
H35_34 H 0.3954 0.1259 0.9729
C68_34 C 0.316(2) 0.138(2) 0.975(3)
H36_34 H 0.2894 0.1270 0.9853
H37_34 H 0.3275 0.1184 0.9537
H38_34 H 0.3122 0.1655 0.9623
C67_35 C 0.111(4) 0.853(2) 0.494(3)
H33_35 H 0.0907 0.8558 0.5176
H34_35 H 0.1080 0.8248 0.4821
H35_35 H 0.1046 0.8741 0.4729
C68_35 C 0.184(2) 0.862(2) 0.475(3)
H36_35 H 0.2106 0.8730 0.4853
H37_35 H 0.1725 0.8816 0.4537
H38_35 H 0.1878 0.8345 0.4623
N2_35 N 0.154(3) 0.8590(16) 0.510(3)
H39_35 H 0.1610 0.8366 0.5269
H40_35 H 0.1548 0.8829 0.5261
C67_36 C 0.889(4) 0.353(2) 0.006(3)
H34_36 H 0.8920 0.3248 0.0179
H35_36 H 0.8954 0.3741 0.0271
C68_36 C 0.816(2) 0.362(2) 0.025(3)
H36_36 H 0.7894 0.3730 0.0147
H37_36 H 0.8275 0.3816 0.0463
H38_36 H 0.8122 0.3345 0.0377
H33_36 H 0.9093 0.3558 0.9824
N2_36 N 0.846(3) 0.3590(16) 0.990(3)
H39_36 H 0.8390 0.3366 0.9731
H40_36 H 0.8452 0.3829 0.9739
C67_37 C 0.861(4) 0.756(3) 0.897(2)
H33_37 H 0.8407 0.7324 0.8942
H34_37 H 0.8580 0.7679 0.9252
H35_37 H 0.8546 0.7771 0.8759
C68_37 C 0.934(2) 0.775(3) 0.888(2)
H36_37 H 0.9606 0.7647 0.8770
H37_37 H 0.9225 0.7963 0.8684
H38_37 H 0.9378 0.7877 0.9155
N2_37 N 0.904(3) 0.740(3) 0.8910(16)
H39_37 H 0.9110 0.7231 0.9134
H40_37 H 0.9048 0.7239 0.8671
C67_38 C 0.639(4) 0.244(3) 0.397(2)
H33_38 H 0.6593 0.2676 0.3942
H34_38 H 0.6420 0.2321 0.4252
H35_38 H 0.6454 0.2229 0.3759
C68_38 C 0.566(2) 0.225(3) 0.388(2)
H36_38 H 0.5394 0.2353 0.3770
H37_38 H 0.5775 0.2037 0.3684
H38_38 H 0.5622 0.2123 0.4155
N2_38 N 0.596(3) 0.260(3) 0.3910(16)
H39_38 H 0.5890 0.2769 0.4134
H40_38 H 0.5952 0.2761 0.3671
C67_39 C 0.361(4) 0.744(3) 0.103(2)
H33_39 H 0.3407 0.7676 0.1058
H34_39 H 0.3580 0.7321 0.0748
H35_39 H 0.3546 0.7229 0.1241
C68_39 C 0.434(2) 0.725(3) 0.112(2)
H36_39 H 0.4606 0.7353 0.1230
H37_39 H 0.4225 0.7037 0.1316
H38_39 H 0.4378 0.7123 0.0845
N2_39 N 0.404(3) 0.760(3) 0.1090(16)
H39_39 H 0.4110 0.7769 0.0866
H40_39 H 0.4048 0.7761 0.1329
C67_40 C 0.139(4) 0.256(3) 0.603(2)
H33_40 H 0.1593 0.2324 0.6058
H34_40 H 0.1420 0.2679 0.5748
H35_40 H 0.1454 0.2771 0.6241
C68_40 C 0.066(2) 0.275(3) 0.612(2)
H36_40 H 0.0394 0.2647 0.6230
H37_40 H 0.0775 0.2963 0.6316
H38_40 H 0.0622 0.2877 0.5845
N2_40 N 0.096(3) 0.240(3) 0.6090(16)
H39_40 H 0.0890 0.2231 0.5866
H40_40 H 0.0952 0.2239 0.6329
C67_41 C 0.756(3) 0.897(2) 0.861(4)
H33_41 H 0.7324 0.8942 0.8407
H34_41 H 0.7679 0.9252 0.8580
H35_41 H 0.7771 0.8759 0.8546
C68_41 C 0.775(3) 0.888(2) 0.934(2)
H36_41 H 0.7647 0.8770 0.9606
H37_41 H 0.7963 0.8684 0.9225
H38_41 H 0.7877 0.9155 0.9378
N2_41 N 0.740(3) 0.8910(16) 0.904(3)
H39_41 H 0.7231 0.9134 0.9110
H40_41 H 0.7239 0.8671 0.9048
C67_42 C 0.244(3) 0.397(2) 0.639(4)
H33_42 H 0.2676 0.3942 0.6593
H34_42 H 0.2321 0.4252 0.6420
H35_42 H 0.2229 0.3759 0.6454
C68_42 C 0.225(3) 0.388(2) 0.566(2)
H36_42 H 0.2353 0.3770 0.5394
H37_42 H 0.2037 0.3684 0.5775
H38_42 H 0.2123 0.4155 0.5622
N2_42 N 0.260(3) 0.3910(16) 0.596(3)
H39_42 H 0.2769 0.4134 0.5890
H40_42 H 0.2761 0.3671 0.5952
C67_43 C 0.744(3) 0.103(2) 0.361(4)
H33_43 H 0.7676 0.1058 0.3407
H34_43 H 0.7321 0.0748 0.3580
H35_43 H 0.7229 0.1241 0.3546
C68_43 C 0.725(3) 0.112(2) 0.434(2)
H36_43 H 0.7353 0.1230 0.4606
H37_43 H 0.7037 0.1316 0.4225
H38_43 H 0.7123 0.0845 0.4378
N2_43 N 0.760(3) 0.1090(16) 0.404(3)
H39_43 H 0.7769 0.0866 0.4110
H40_43 H 0.7761 0.1329 0.4048
C67_44 C 0.256(3) 0.603(2) 0.139(4)
H33_44 H 0.2324 0.6058 0.1593
H34_44 H 0.2679 0.5748 0.1420
H35_44 H 0.2771 0.6241 0.1454
C68_44 C 0.275(3) 0.612(2) 0.066(2)
H36_44 H 0.2647 0.6230 0.0394
H37_44 H 0.2963 0.6316 0.0775
H38_44 H 0.2877 0.5845 0.0622
N2_44 N 0.240(3) 0.6090(16) 0.096(3)
H39_44 H 0.2231 0.5866 0.0890
H40_44 H 0.2239 0.6329 0.0952
C67_45 C 0.897(2) 0.861(4) 0.756(3)
H33_45 H 0.8942 0.8407 0.7324
H34_45 H 0.9252 0.8580 0.7679
H35_45 H 0.8759 0.8546 0.7771
C68_45 C 0.888(2) 0.934(2) 0.775(3)
H36_45 H 0.8770 0.9606 0.7647
H37_45 H 0.8684 0.9225 0.7963
H38_45 H 0.9155 0.9378 0.7877
N2_45 N 0.8910(16) 0.904(3) 0.740(3)
H39_45 H 0.9134 0.9110 0.7231
H40_45 H 0.8671 0.9048 0.7239
C67_46 C 0.397(2) 0.639(4) 0.244(3)
H33_46 H 0.3942 0.6593 0.2676
H34_46 H 0.4252 0.6420 0.2321
H35_46 H 0.3759 0.6454 0.2229
C68_46 C 0.388(2) 0.566(2) 0.225(3)
H36_46 H 0.3770 0.5394 0.2353
H37_46 H 0.3684 0.5775 0.2037
H38_46 H 0.4155 0.5622 0.2123
N2_46 N 0.3910(16) 0.596(3) 0.260(3)
H39_46 H 0.4134 0.5890 0.2769
H40_46 H 0.3671 0.5952 0.2761
C67_47 C 0.103(2) 0.361(4) 0.744(3)
H33_47 H 0.1058 0.3407 0.7676
H34_47 H 0.0748 0.3580 0.7321
H35_47 H 0.1241 0.3546 0.7229
C68_47 C 0.112(2) 0.434(2) 0.725(3)
H36_47 H 0.1230 0.4606 0.7353
H37_47 H 0.1316 0.4225 0.7037
H38_47 H 0.0845 0.4378 0.7123
N2_47 N 0.1090(16) 0.404(3) 0.760(3)
H39_47 H 0.0866 0.4110 0.7769
H40_47 H 0.1329 0.4048 0.7761
C67_48 C 0.603(2) 0.139(4) 0.256(3)
H33_48 H 0.6058 0.1593 0.2324
H34_48 H 0.5748 0.1420 0.2679
H35_48 H 0.6241 0.1454 0.2771
C68_48 C 0.612(2) 0.066(2) 0.275(3)
H36_48 H 0.6230 0.0394 0.2647
H37_48 H 0.6316 0.0775 0.2963
H38_48 H 0.5845 0.0622 0.2877
N2_48 N 0.6090(16) 0.096(3) 0.240(3)
H39_48 H 0.5866 0.0890 0.2231
H40_48 H 0.6329 0.0952 0.2239
loop_
_geom_bond_atom_site_label_1
_geom_bond_atom_site_label_2
_geom_bond_site_symmetry_1
_geom_bond_site_symmetry_2
O4 Cd2 1_555 1_555
O24 Cd2 1_555 1_555
O31 Cd2 1_555 1_555
O38 Cd2 1_555 1_555
O45 Cd2 1_555 1_555
Cd1 O1 1_555 1_555
C1 C2 1_555 1_555
C2 H1 1_555 1_555
C3 C2 1_555 1_555
H2 C3 1_555 1_555
C4 C3 1_555 1_555
H3 C4 1_555 1_555
C13 C1 1_555 1_555
O1 C13 1_555 1_555
O2 Cd1 1_555 1_555
O5 C15 1_555 1_555
O6 C15 1_555 1_555
Cd4 O16 1_555 1_555
Cd5 O17 1_555 1_555
Cd6 O5 1_555 1_555
Cd9 O23 1_555 1_555
C19 C22 1_555 1_555
C22 H9 1_555 1_555
C25 C22 1_555 1_555
H12 C25 1_555 1_555
C28 C25 1_555 1_555
H15 C28 1_555 1_555
C31 C28 1_555 1_555
C34 C19 1_555 1_555
C36 C33 1_555 1_555
C37 C34 1_555 1_555
C39 C36 1_555 1_555
C40 C37 1_555 1_555
C42 C39 1_555 1_555
C43 C40 1_555 1_555
H17 C42 1_555 1_555
H18 C43 1_555 1_555
C45 C42 1_555 1_555
C46 C43 1_555 1_555
H21 C46 1_555 1_555
C48 C45 1_555 1_555
C49 C46 1_555 1_555
H23 C48 1_555 1_555
H24 C49 1_555 1_555
C51 C36 1_555 1_555
C52 C37 1_555 1_555
C55 C19 1_555 1_555
C57 C30 1_555 1_555
C58 C31 1_555 1_555
C61 C40 1_555 1_555
C63 C51 1_555 1_555
C64 C52 1_555 1_555
O11 Cd1 1_555 1_555
O14 Cd1 1_555 1_555
O16 C57 1_555 1_555
O17 C58 1_555 1_555
O19 Cd4 1_555 1_555
O20 Cd5 1_555 1_555
O23 C61 1_555 1_555
O26 Cd4 1_555 1_555
O27 Cd5 1_555 1_555
O30 Cd9 1_555 1_555
O33 Cd4 1_555 1_555
O34 Cd5 1_555 1_555
O36 Cd9 1_555 1_555
O37 Cd6 1_555 1_555
O40 Cd4 1_555 1_555
O41 Cd5 1_555 1_555
O43 Cd9 1_555 1_555
O44 Cd6 1_555 1_555
O47 Cd4 1_555 1_555
O48 Cd5 1_555 1_555
C13 O2 1_555 1_555
O6 Cd6 1_555 1_555
C30 C33 1_555 1_555
C31 C34 1_555 1_555
C48 C51 1_555 1_555
C49 C52 1_555 1_555
C55 O11 1_555 1_555
C55 O14 1_555 1_555
C57 O19 1_555 1_555
C58 O20 1_555 1_555
C61 O30 1_555 1_555
C63 O36 1_555 1_555
C63 O43 1_555 1_555
C64 O37 1_555 1_555
C64 O44 1_555 1_555
C7 C6 1_555 1_555
C8 C7 1_555 1_555
C9 C8 1_555 1_555
H4 C9 1_555 1_555
C10 C9 1_555 1_555
C11 C10 1_555 1_555
H6 C11 1_555 1_555
C12 C7 1_555 1_555
C14 C5 1_555 1_555
C16 C12 1_555 1_555
O3 C14 1_555 1_555
O7 C16 1_555 1_555
O8 C16 1_555 1_555
Cd3 O15 1_555 1_555
Cd7 O7 1_555 1_555
Cd8 O22 1_555 1_555
C17 C20 1_555 1_555
C18 C21 1_555 1_555
C20 H7 1_555 1_555
C21 H8 1_555 1_555
C23 C20 1_555 1_555
C24 C21 1_555 1_555
H10 C23 1_555 1_555
H11 C24 1_555 1_555
C26 C23 1_555 1_555
C27 C24 1_555 1_555
H13 C26 1_555 1_555
H14 C27 1_555 1_555
C29 C26 1_555 1_555
C32 C17 1_555 1_555
C35 C32 1_555 1_555
C38 C35 1_555 1_555
C41 C38 1_555 1_555
H16 C41 1_555 1_555
C44 C41 1_555 1_555
H19 C44 1_555 1_555
C47 C44 1_555 1_555
H22 C47 1_555 1_555
C50 C35 1_555 1_555
C53 C17 1_555 1_555
C54 C18 1_555 1_555
C56 C29 1_555 1_555
C59 C38 1_555 1_555
C62 C50 1_555 1_555
O9 Cd1_2 1_555 1_555
O10 Cd1_2 1_555 1_555
O12 Cd1_2 1_555 1_555
O13 Cd1_2 1_555 1_555
O15 C56 1_555 1_555
O18 Cd3 1_555 1_555
O21 Cd7 1_555 1_555
O22 C60 1_555 1_555
O25 Cd3 1_555 1_555
O28 Cd7 1_555 1_555
O29 Cd8 1_555 1_555
O32 Cd3 1_555 1_555
O35 Cd8 1_555 1_555
O39 Cd3 1_555 1_555
O42 Cd8 1_555 1_555
O46 Cd3 1_555 1_555
C5 C6 1_555 1_555
C11 C12 1_555 1_555
O8 Cd7 1_555 1_555
C29 C32 1_555 1_555
C47 C50 1_555 1_555
C53 O9 1_555 1_555
C53 O12 1_555 1_555
C54 O10 1_555 1_555
C54 O13 1_555 1_555
C56 O18 1_555 1_555
C59 O21 1_555 1_555
C59 O28 1_555 1_555
C60 O29 1_555 1_555
C62 O35 1_555 1_555
C62 O42 1_555 1_555
O19_2 Cd4_2 1_555 1_555
O26_2 Cd4_2 1_555 1_555
O33_2 Cd4_2 1_555 1_555
O40_2 Cd4_2 1_555 1_555
O47_2 Cd4_2 1_555 1_555
Cd1_3 O1_2 1_555 1_555
Cd2_2 O3_2 1_555 1_555
C1_2 C2_2 1_555 1_555
C2_2 H1_2 1_555 1_555
C3_2 C2_2 1_555 1_555
H2_2 C3_2 1_555 1_555
C4_2 C3_2 1_555 1_555
H3_2 C4_2 1_555 1_555
C5_2 C4_2 1_555 1_555
C6_2 C1_2 1_555 1_555
C7_2 C6_2 1_555 1_555
C8_2 C7_2 1_555 1_555
C9_2 C8_2 1_555 1_555
H4_2 C9_2 1_555 1_555
C10_2 C9_2 1_555 1_555
C11_2 C10_2 1_555 1_555
H6_2 C11_2 1_555 1_555
C12_2 C7_2 1_555 1_555
C13_2 C1_2 1_555 1_555
C14_2 C5_2 1_555 1_555
C15_2 C8_2 1_555 1_555
C16_2 C12_2 1_555 1_555
O1_2 C13_2 1_555 1_555
O2_2 Cd1_3 1_555 1_555
O3_2 C14_2 1_555 1_555
O4_2 Cd2_2 1_555 1_555
O5_2 C15_2 1_555 1_555
O6_2 C15_2 1_555 1_555
O7_2 C16_2 1_555 1_555
O8_2 C16_2 1_555 1_555
Cd3_2 O15_2 1_555 1_555
Cd5_2 O17_2 1_555 1_555
Cd6_2 O5_2 1_555 1_555
Cd7_2 O7_2 1_555 1_555
Cd8_2 O22_2 1_555 1_555
Cd9_2 O23_2 1_555 1_555
C17_2 C20_2 1_555 1_555
C18_2 C21_2 1_555 1_555
C19_2 C22_2 1_555 1_555
C20_2 H7_2 1_555 1_555
C21_2 H8_2 1_555 1_555
C22_2 H9_2 1_555 1_555
C23_2 C20_2 1_555 1_555
C24_2 C21_2 1_555 1_555
C25_2 C22_2 1_555 1_555
H10_2 C23_2 1_555 1_555
H11_2 C24_2 1_555 1_555
H12_2 C25_2 1_555 1_555
C26_2 C23_2 1_555 1_555
C27_2 C24_2 1_555 1_555
C28_2 C25_2 1_555 1_555
H13_2 C26_2 1_555 1_555
H14_2 C27_2 1_555 1_555
H15_2 C28_2 1_555 1_555
C29_2 C26_2 1_555 1_555
C30_2 C27_2 1_555 1_555
C31_2 C28_2 1_555 1_555
C32_2 C17_2 1_555 1_555
C33_2 C18_2 1_555 1_555
C34_2 C19_2 1_555 1_555
C35_2 C32_2 1_555 1_555
C36_2 C33_2 1_555 1_555
C37_2 C34_2 1_555 1_555
C38_2 C35_2 1_555 1_555
C39_2 C36_2 1_555 1_555
C40_2 C37_2 1_555 1_555
C41_2 C38_2 1_555 1_555
C42_2 C39_2 1_555 1_555
C43_2 C40_2 1_555 1_555
H16_2 C41_2 1_555 1_555
H17_2 C42_2 1_555 1_555
H18_2 C43_2 1_555 1_555
C44_2 C41_2 1_555 1_555
C45_2 C42_2 1_555 1_555
C46_2 C43_2 1_555 1_555
H19_2 C44_2 1_555 1_555
H21_2 C46_2 1_555 1_555
C47_2 C44_2 1_555 1_555
C48_2 C45_2 1_555 1_555
C49_2 C46_2 1_555 1_555
H22_2 C47_2 1_555 1_555
H23_2 C48_2 1_555 1_555
H24_2 C49_2 1_555 1_555
C50_2 C35_2 1_555 1_555
C51_2 C36_2 1_555 1_555
C52_2 C37_2 1_555 1_555
C53_2 C17_2 1_555 1_555
C54_2 C18_2 1_555 1_555
C55_2 C19_2 1_555 1_555
C56_2 C29_2 1_555 1_555
C57_2 C30_2 1_555 1_555
C58_2 C31_2 1_555 1_555
C59_2 C38_2 1_555 1_555
C60_2 C39_2 1_555 1_555
C61_2 C40_2 1_555 1_555
C62_2 C50_2 1_555 1_555
C63_2 C51_2 1_555 1_555
C64_2 C52_2 1_555 1_555
O9_2 Cd1_3 1_555 1_555
O10_2 Cd1_3 1_555 1_555
O11_2 Cd1_3 1_555 1_555
O12_2 Cd1_3 1_555 1_555
O13_2 Cd1_3 1_555 1_555
O14_2 Cd1_3 1_555 1_555
O15_2 C56_2 1_555 1_555
O16_2 C57_2 1_555 1_555
O17_2 C58_2 1_555 1_555
O18_2 Cd3_2 1_555 1_555
O20_2 Cd5_2 1_555 1_555
O21_2 Cd7_2 1_555 1_555
O22_2 C60_2 1_555 1_555
O23_2 C61_2 1_555 1_555
O24_2 Cd2_2 1_555 1_555
O25_2 Cd3_2 1_555 1_555
O27_2 Cd5_2 1_555 1_555
O28_2 Cd7_2 1_555 1_555
O29_2 Cd8_2 1_555 1_555
O30_2 Cd9_2 1_555 1_555
O31_2 Cd2_2 1_555 1_555
O32_2 Cd3_2 1_555 1_555
O34_2 Cd5_2 1_555 1_555
O35_2 Cd8_2 1_555 1_555
O36_2 Cd9_2 1_555 1_555
O37_2 Cd6_2 1_555 1_555
O38_2 Cd2_2 1_555 1_555
O39_2 Cd3_2 1_555 1_555
O41_2 Cd5_2 1_555 1_555
O42_2 Cd8_2 1_555 1_555
O43_2 Cd9_2 1_555 1_555
O44_2 Cd6_2 1_555 1_555
O45_2 Cd2_2 1_555 1_555
O46_2 Cd3_2 1_555 1_555
O48_2 Cd5_2 1_555 1_555
C5_2 C6_2 1_555 1_555
C11_2 C12_2 1_555 1_555
C13_2 O2_2 1_555 1_555
C14_2 O4_2 1_555 1_555
O6_2 Cd6_2 1_555 1_555
O8_2 Cd7_2 1_555 1_555
C29_2 C32_2 1_555 1_555
C30_2 C33_2 1_555 1_555
C31_2 C34_2 1_555 1_555
C47_2 C50_2 1_555 1_555
C48_2 C51_2 1_555 1_555
C49_2 C52_2 1_555 1_555
C53_2 O9_2 1_555 1_555
C53_2 O12_2 1_555 1_555
C54_2 O10_2 1_555 1_555
C54_2 O13_2 1_555 1_555
C55_2 O11_2 1_555 1_555
C55_2 O14_2 1_555 1_555
C56_2 O18_2 1_555 1_555
C58_2 O20_2 1_555 1_555
C59_2 O21_2 1_555 1_555
C59_2 O28_2 1_555 1_555
C60_2 O29_2 1_555 1_555
C61_2 O30_2 1_555 1_555
C62_2 O35_2 1_555 1_555
C62_2 O42_2 1_555 1_555
C63_2 O36_2 1_555 1_555
C63_2 O43_2 1_555 1_555
C64_2 O37_2 1_555 1_555
C64_2 O44_2 1_555 1_555
Cd1_4 O1_3 1_555 1_555
C1_3 C2_3 1_555 1_555
C2_3 H1_3 1_555 1_555
C3_3 C2_3 1_555 1_555
H2_3 C3_3 1_555 1_555
C4_3 C3_3 1_555 1_555
H3_3 C4_3 1_555 1_555
C5_3 C4_3 1_555 1_555
C6_3 C1_3 1_555 1_555
C7_3 C6_3 1_555 1_555
C8_3 C7_3 1_555 1_555
C9_3 C8_3 1_555 1_555
H4_3 C9_3 1_555 1_555
C10_3 C9_3 1_555 1_555
H5 C10_3 1_555 1_555
C11_3 C10_3 1_555 1_555
H6_3 C11_3 1_555 1_555
C12_3 C7_3 1_555 1_555
C13_3 C1_3 1_555 1_555
C14_3 C5_3 1_555 1_555
C15_3 C8_3 1_555 1_555
C16_3 C12_3 1_555 1_555
O1_3 C13_3 1_555 1_555
O2_3 Cd1_4 1_555 1_555
O3_3 C14_3 1_555 1_555
O5_3 C15_3 1_555 1_555
O6_3 C15_3 1_555 1_555
O7_3 C16_3 1_555 1_555
O8_3 C16_3 1_555 1_555
Cd3_3 O15_3 1_555 1_555
Cd4_3 O16_3 1_555 1_555
Cd5_3 O17_3 1_555 1_555
Cd6_3 O5_3 1_555 1_555
Cd7_3 O7_3 1_555 1_555
Cd8_3 O22_3 1_555 1_555
Cd9_3 O23_3 1_555 1_555
C17_3 C20_3 1_555 1_555
C18_3 C21_3 1_555 1_555
C19_3 C22_3 1_555 1_555
C20_3 H7_3 1_555 1_555
C21_3 H8_3 1_555 1_555
C22_3 H9_3 1_555 1_555
C23_3 C20_3 1_555 1_555
C24_3 C21_3 1_555 1_555
C25_3 C22_3 1_555 1_555
H10_3 C23_3 1_555 1_555
H11_3 C24_3 1_555 1_555
H12_3 C25_3 1_555 1_555
C26_3 C23_3 1_555 1_555
C27_3 C24_3 1_555 1_555
C28_3 C25_3 1_555 1_555
H13_3 C26_3 1_555 1_555
H14_3 C27_3 1_555 1_555
H15_3 C28_3 1_555 1_555
C29_3 C26_3 1_555 1_555
C30_3 C27_3 1_555 1_555
C31_3 C28_3 1_555 1_555
C32_3 C17_3 1_555 1_555
C33_3 C18_3 1_555 1_555
C34_3 C19_3 1_555 1_555
C35_3 C32_3 1_555 1_555
C36_3 C33_3 1_555 1_555
C37_3 C34_3 1_555 1_555
C38_3 C35_3 1_555 1_555
C39_3 C36_3 1_555 1_555
C40_3 C37_3 1_555 1_555
C41_3 C38_3 1_555 1_555
C42_3 C39_3 1_555 1_555
C43_3 C40_3 1_555 1_555
H16_3 C41_3 1_555 1_555
H17_3 C42_3 1_555 1_555
H18_3 C43_3 1_555 1_555
C44_3 C41_3 1_555 1_555
C45_3 C42_3 1_555 1_555
C46_3 C43_3 1_555 1_555
H19_3 C44_3 1_555 1_555
H20 C45_3 1_555 1_555
H21_3 C46_3 1_555 1_555
C47_3 C44_3 1_555 1_555
C48_3 C45_3 1_555 1_555
C49_3 C46_3 1_555 1_555
H22_3 C47_3 1_555 1_555
H23_3 C48_3 1_555 1_555
H24_3 C49_3 1_555 1_555
C50_3 C35_3 1_555 1_555
C51_3 C36_3 1_555 1_555
C52_3 C37_3 1_555 1_555
C53_3 C17_3 1_555 1_555
C54_3 C18_3 1_555 1_555
C55_3 C19_3 1_555 1_555
C56_3 C29_3 1_555 1_555
C57_3 C30_3 1_555 1_555
C58_3 C31_3 1_555 1_555
C59_3 C38_3 1_555 1_555
C60_3 C39_3 1_555 1_555
C61_3 C40_3 1_555 1_555
C62_3 C50_3 1_555 1_555
C63_3 C51_3 1_555 1_555
C64_3 C52_3 1_555 1_555
O9_3 Cd1_4 1_555 1_555
O10_3 Cd1_4 1_555 1_555
O11_3 Cd1_4 1_555 1_555
O12_3 Cd1_4 1_555 1_555
O13_3 Cd1_4 1_555 1_555
O14_3 Cd1_4 1_555 1_555
O15_3 C56_3 1_555 1_555
O16_3 C57_3 1_555 1_555
O17_3 C58_3 1_555 1_555
O18_3 Cd3_3 1_555 1_555
O19_3 Cd4_3 1_555 1_555
O20_3 Cd5_3 1_555 1_555
O21_3 Cd7_3 1_555 1_555
O22_3 C60_3 1_555 1_555
O23_3 C61_3 1_555 1_555
O25_3 Cd3_3 1_555 1_555
O26_3 Cd4_3 1_555 1_555
O27_3 Cd5_3 1_555 1_555
O28_3 Cd7_3 1_555 1_555
O29_3 Cd8_3 1_555 1_555
O30_3 Cd9_3 1_555 1_555
O32_3 Cd3_3 1_555 1_555
O33_3 Cd4_3 1_555 1_555
O34_3 Cd5_3 1_555 1_555
O35_3 Cd8_3 1_555 1_555
O36_3 Cd9_3 1_555 1_555
O37_3 Cd6_3 1_555 1_555
O39_3 Cd3_3 1_555 1_555
O40_3 Cd4_3 1_555 1_555
O41_3 Cd5_3 1_555 1_555
O42_3 Cd8_3 1_555 1_555
O43_3 Cd9_3 1_555 1_555
O44_3 Cd6_3 1_555 1_555
O46_3 Cd3_3 1_555 1_555
O47_3 Cd4_3 1_555 1_555
O48_3 Cd5_3 1_555 1_555
C5_3 C6_3 1_555 1_555
C11_3 C12_3 1_555 1_555
C13_3 O2_3 1_555 1_555
O6_3 Cd6_3 1_555 1_555
O8_3 Cd7_3 1_555 1_555
C29_3 C32_3 1_555 1_555
C30_3 C33_3 1_555 1_555
C31_3 C34_3 1_555 1_555
C47_3 C50_3 1_555 1_555
C48_3 C51_3 1_555 1_555
C49_3 C52_3 1_555 1_555
C53_3 O9_3 1_555 1_555
C53_3 O12_3 1_555 1_555
C54_3 O10_3 1_555 1_555
C54_3 O13_3 1_555 1_555
C55_3 O11_3 1_555 1_555
C55_3 O14_3 1_555 1_555
C56_3 O18_3 1_555 1_555
C57_3 O19_3 1_555 1_555
C58_3 O20_3 1_555 1_555
C59_3 O21_3 1_555 1_555
C59_3 O28_3 1_555 1_555
C60_3 O29_3 1_555 1_555
C61_3 O30_3 1_555 1_555
C62_3 O35_3 1_555 1_555
C62_3 O42_3 1_555 1_555
C63_3 O36_3 1_555 1_555
C63_3 O43_3 1_555 1_555
C64_3 O37_3 1_555 1_555
C64_3 O44_3 1_555 1_555
O4_3 Cd2_3 1_555 1_555
O24_3 Cd2_3 1_555 1_555
O31_3 Cd2_3 1_555 1_555
O38_3 Cd2_3 1_555 1_555
O45_3 Cd2_3 1_555 1_555
Cd2_4 O3_4 1_555 1_555
C7_4 C6_4 1_555 1_555
C8_4 C7_4 1_555 1_555
C9_4 C8_4 1_555 1_555
H4_4 C9_4 1_555 1_555
C10_4 C9_4 1_555 1_555
H5_2 C10_4 1_555 1_555
C11_4 C10_4 1_555 1_555
H6_4 C11_4 1_555 1_555
C12_4 C7_4 1_555 1_555
C14_4 C5_4 1_555 1_555
C16_4 C12_4 1_555 1_555
O3_4 C14_4 1_555 1_555
O4_4 Cd2_4 1_555 1_555
O7_4 C16_4 1_555 1_555
O8_4 C16_4 1_555 1_555
Cd3_4 O15_4 1_555 1_555
Cd7_4 O7_4 1_555 1_555
Cd8_4 O22_4 1_555 1_555
C17_4 C20_4 1_555 1_555
C18_4 C21_4 1_555 1_555
C20_4 H7_4 1_555 1_555
C21_4 H8_4 1_555 1_555
C23_4 C20_4 1_555 1_555
C24_4 C21_4 1_555 1_555
H10_4 C23_4 1_555 1_555
H11_4 C24_4 1_555 1_555
C26_4 C23_4 1_555 1_555
C27_4 C24_4 1_555 1_555
H13_4 C26_4 1_555 1_555
H14_4 C27_4 1_555 1_555
C29_4 C26_4 1_555 1_555
C32_4 C17_4 1_555 1_555
C35_4 C32_4 1_555 1_555
C38_4 C35_4 1_555 1_555
C41_4 C38_4 1_555 1_555
H16_4 C41_4 1_555 1_555
C44_4 C41_4 1_555 1_555
H19_4 C44_4 1_555 1_555
C47_4 C44_4 1_555 1_555
H22_4 C47_4 1_555 1_555
C50_4 C35_4 1_555 1_555
C53_4 C17_4 1_555 1_555
C54_4 C18_4 1_555 1_555
C56_4 C29_4 1_555 1_555
C59_4 C38_4 1_555 1_555
C62_4 C50_4 1_555 1_555
O9_4 Cd1_5 1_555 1_555
O10_4 Cd1_5 1_555 1_555
O12_4 Cd1_5 1_555 1_555
O13_4 Cd1_5 1_555 1_555
O15_4 C56_4 1_555 1_555
O18_4 Cd3_4 1_555 1_555
O21_4 Cd7_4 1_555 1_555
O22_4 C60_4 1_555 1_555
O24_4 Cd2_4 1_555 1_555
O25_4 Cd3_4 1_555 1_555
O28_4 Cd7_4 1_555 1_555
O29_4 Cd8_4 1_555 1_555
O31_4 Cd2_4 1_555 1_555
O32_4 Cd3_4 1_555 1_555
O35_4 Cd8_4 1_555 1_555
O38_4 Cd2_4 1_555 1_555
O39_4 Cd3_4 1_555 1_555
O42_4 Cd8_4 1_555 1_555
O45_4 Cd2_4 1_555 1_555
O46_4 Cd3_4 1_555 1_555
C5_4 C6_4 1_555 1_555
C11_4 C12_4 1_555 1_555
C14_4 O4_4 1_555 1_555
O8_4 Cd7_4 1_555 1_555
C29_4 C32_4 1_555 1_555
C47_4 C50_4 1_555 1_555
C53_4 O9_4 1_555 1_555
C53_4 O12_4 1_555 1_555
C54_4 O10_4 1_555 1_555
C54_4 O13_4 1_555 1_555
C56_4 O18_4 1_555 1_555
C59_4 O21_4 1_555 1_555
C59_4 O28_4 1_555 1_555
C60_4 O29_4 1_555 1_555
C62_4 O35_4 1_555 1_555
C62_4 O42_4 1_555 1_555
Cd1_6 O1_4 1_555 1_555
C1_4 C2_4 1_555 1_555
C2_4 H1_4 1_555 1_555
C3_4 C2_4 1_555 1_555
H2_4 C3_4 1_555 1_555
C4_4 C3_4 1_555 1_555
H3_4 C4_4 1_555 1_555
C13_4 C1_4 1_555 1_555
O1_4 C13_4 1_555 1_555
O2_4 Cd1_6 1_555 1_555
O5_4 C15_4 1_555 1_555
O6_4 C15_4 1_555 1_555
Cd5_4 O17_4 1_555 1_555
Cd6_4 O5_4 1_555 1_555
Cd9_4 O23_4 1_555 1_555
C19_4 C22_4 1_555 1_555
C22_4 H9_4 1_555 1_555
C25_4 C22_4 1_555 1_555
H12_4 C25_4 1_555 1_555
C28_4 C25_4 1_555 1_555
H15_4 C28_4 1_555 1_555
C31_4 C28_4 1_555 1_555
C34_4 C19_4 1_555 1_555
C36_4 C33_4 1_555 1_555
C37_4 C34_4 1_555 1_555
C39_4 C36_4 1_555 1_555
C40_4 C37_4 1_555 1_555
C42_4 C39_4 1_555 1_555
C43_4 C40_4 1_555 1_555
H17_4 C42_4 1_555 1_555
H18_4 C43_4 1_555 1_555
C45_4 C42_4 1_555 1_555
C46_4 C43_4 1_555 1_555
H20_2 C45_4 1_555 1_555
H21_4 C46_4 1_555 1_555
C48_4 C45_4 1_555 1_555
C49_4 C46_4 1_555 1_555
H23_4 C48_4 1_555 1_555
H24_4 C49_4 1_555 1_555
C51_4 C36_4 1_555 1_555
C52_4 C37_4 1_555 1_555
C55_4 C19_4 1_555 1_555
C57_4 C30_4 1_555 1_555
C58_4 C31_4 1_555 1_555
C61_4 C40_4 1_555 1_555
C63_4 C51_4 1_555 1_555
C64_4 C52_4 1_555 1_555
O11_4 Cd1_6 1_555 1_555
O14_4 Cd1_6 1_555 1_555
O16_4 C57_4 1_555 1_555
O17_4 C58_4 1_555 1_555
O20_4 Cd5_4 1_555 1_555
O23_4 C61_4 1_555 1_555
O27_4 Cd5_4 1_555 1_555
O30_4 Cd9_4 1_555 1_555
O34_4 Cd5_4 1_555 1_555
O36_4 Cd9_4 1_555 1_555
O37_4 Cd6_4 1_555 1_555
O41_4 Cd5_4 1_555 1_555
O43_4 Cd9_4 1_555 1_555
O44_4 Cd6_4 1_555 1_555
O48_4 Cd5_4 1_555 1_555
C13_4 O2_4 1_555 1_555
O6_4 Cd6_4 1_555 1_555
C30_4 C33_4 1_555 1_555
C31_4 C34_4 1_555 1_555
C48_4 C51_4 1_555 1_555
C49_4 C52_4 1_555 1_555
C55_4 O11_4 1_555 1_555
C55_4 O14_4 1_555 1_555
C58_4 O20_4 1_555 1_555
C61_4 O30_4 1_555 1_555
C63_4 O36_4 1_555 1_555
C63_4 O43_4 1_555 1_555
C64_4 O37_4 1_555 1_555
C64_4 O44_4 1_555 1_555
O19_4 Cd4_4 1_555 1_555
O26_4 Cd4_4 1_555 1_555
O33_4 Cd4_4 1_555 1_555
O40_4 Cd4_4 1_555 1_555
O47_4 Cd4_4 1_555 1_555
Cd1_7 O1_5 1_555 1_555
C1_5 C2_5 1_555 1_555
C2_5 H1_5 1_555 1_555
C3_5 C2_5 1_555 1_555
H2_5 C3_5 1_555 1_555
C4_5 C3_5 1_555 1_555
H3_5 C4_5 1_555 1_555
C13_5 C1_5 1_555 1_555
O1_5 C13_5 1_555 1_555
O2_5 Cd1_7 1_555 1_555
O5_5 C15_5 1_555 1_555
O6_5 C15_5 1_555 1_555
Cd8_4 O16_5 1_555 1_555
Cd5_5 O17_5 1_555 1_555
Cd6_5 O5_5 1_555 1_555
C19_5 C22_5 1_555 1_555
C22_5 H9_5 1_555 1_555
C25_5 C22_5 1_555 1_555
H12_5 C25_5 1_555 1_555
C28_5 C25_5 1_555 1_555
H15_5 C28_5 1_555 1_555
C31_5 C28_5 1_555 1_555
C34_5 C19_5 1_555 1_555
C36_5 C33_5 1_555 1_555
C37_5 C34_5 1_555 1_555
C39_5 C36_5 1_555 1_555
C40_5 C37_5 1_555 1_555
C42_5 C39_5 1_555 1_555
C43_5 C40_5 1_555 1_555
H17_5 C42_5 1_555 1_555
H18_5 C43_5 1_555 1_555
C45_5 C42_5 1_555 1_555
C46_5 C43_5 1_555 1_555
H21_5 C46_5 1_555 1_555
C48_5 C45_5 1_555 1_555
C49_5 C46_5 1_555 1_555
H23_5 C48_5 1_555 1_555
H24_5 C49_5 1_555 1_555
C51_5 C36_5 1_555 1_555
C52_5 C37_5 1_555 1_555
C55_5 C19_5 1_555 1_555
C57_5 C30_5 1_555 1_555
C58_5 C31_5 1_555 1_555
C61_5 C40_5 1_555 1_555
C63_5 C51_5 1_555 1_555
C64_5 C52_5 1_555 1_555
O11_5 Cd1_7 1_555 1_555
O14_5 Cd1_7 1_555 1_555
O16_5 C57_5 1_555 1_555
O17_5 C58_5 1_555 1_555
O19_5 Cd8_4 1_555 1_555
O20_5 Cd5_5 1_555 1_555
O27_3 C61_5 1_555 1_555
O27_5 Cd5_5 1_555 1_555
O34_5 Cd5_5 1_555 1_555
O37_5 Cd6_5 1_555 1_555
O41_5 Cd5_5 1_555 1_555
O44_5 Cd6_5 1_555 1_555
O48_5 Cd5_5 1_555 1_555
C13_5 O2_5 1_555 1_555
O6_5 Cd6_5 1_555 1_555
C30_5 C33_5 1_555 1_555
C31_5 C34_5 1_555 1_555
C48_5 C51_5 1_555 1_555
C49_5 C52_5 1_555 1_555
C55_5 O11_5 1_555 1_555
C55_5 O14_5 1_555 1_555
C57_5 O19_5 1_555 1_555
C58_5 O20_5 1_555 1_555
C61_5 O34_3 1_555 1_555
C63_5 O41_3 1_555 1_555
C63_5 O48_3 1_555 1_555
C64_5 O37_5 1_555 1_555
C64_5 O44_5 1_555 1_555
O4_5 Cd6 1_555 1_555
C7_5 C6_5 1_555 1_555
C8_5 C7_5 1_555 1_555
C9_5 C8_5 1_555 1_555
H4_5 C9_5 1_555 1_555
C10_5 C9_5 1_555 1_555
C11_5 C10_5 1_555 1_555
H6_5 C11_5 1_555 1_555
C12_5 C7_5 1_555 1_555
C14_5 C5_5 1_555 1_555
C16_5 C12_5 1_555 1_555
O3_5 C14_5 1_555 1_555
O39_2 C16_5 1_555 1_555
O46_2 C16_5 1_555 1_555
Cd3_5 O15_5 1_555 1_555
Cd8_5 O22_5 1_555 1_555
C17_5 C20_5 1_555 1_555
C18_5 C21_5 1_555 1_555
C20_5 H7_5 1_555 1_555
C21_5 H8_5 1_555 1_555
C23_5 C20_5 1_555 1_555
C24_5 C21_5 1_555 1_555
H10_5 C23_5 1_555 1_555
H11_5 C24_5 1_555 1_555
C26_5 C23_5 1_555 1_555
C27_5 C24_5 1_555 1_555
H13_5 C26_5 1_555 1_555
H14_5 C27_5 1_555 1_555
C29_5 C26_5 1_555 1_555
C32_5 C17_5 1_555 1_555
C35_5 C32_5 1_555 1_555
C38_5 C35_5 1_555 1_555
C41_5 C38_5 1_555 1_555
H16_5 C41_5 1_555 1_555
C44_5 C41_5 1_555 1_555
H19_5 C44_5 1_555 1_555
C47_5 C44_5 1_555 1_555
H22_5 C47_5 1_555 1_555
C50_5 C35_5 1_555 1_555
C53_5 C17_5 1_555 1_555
C54_5 C18_5 1_555 1_555
C56_5 C29_5 1_555 1_555
C59_5 C38_5 1_555 1_555
C62_5 C50_5 1_555 1_555
O9_5 Cd1_8 1_555 1_555
O10_5 Cd1_8 1_555 1_555
O12_5 Cd1_8 1_555 1_555
O13_5 Cd1_8 1_555 1_555
O15_5 C56_5 1_555 1_555
O18_5 Cd3_5 1_555 1_555
O22_5 C60_5 1_555 1_555
O25_5 Cd3_5 1_555 1_555
O29_5 Cd8_5 1_555 1_555
O32_5 Cd3_5 1_555 1_555
O35_5 Cd8_5 1_555 1_555
O39_5 Cd3_5 1_555 1_555
O42_5 Cd8_5 1_555 1_555
O46_5 Cd3_5 1_555 1_555
C5_5 C6_5 1_555 1_555
C11_5 C12_5 1_555 1_555
C29_5 C32_5 1_555 1_555
C47_5 C50_5 1_555 1_555
C53_5 O9_5 1_555 1_555
C53_5 O12_5 1_555 1_555
C54_5 O10_5 1_555 1_555
C54_5 O13_5 1_555 1_555
C56_5 O18_5 1_555 1_555
C59_5 O25_2 1_555 1_555
C59_5 O32_2 1_555 1_555
C60_5 O29_5 1_555 1_555
C62_5 O35_5 1_555 1_555
C62_5 O42_5 1_555 1_555
O19_6 Cd8 1_555 1_555
Cd1_9 O1_6 1_555 1_555
Cd6_4 O3_6 1_555 1_555
C1_6 C2_6 1_555 1_555
C2_6 H1_6 1_555 1_555
C3_6 C2_6 1_555 1_555
H2_6 C3_6 1_555 1_555
C4_6 C3_6 1_555 1_555
H3_6 C4_6 1_555 1_555
C5_6 C4_6 1_555 1_555
C6_6 C1_6 1_555 1_555
C7_6 C6_6 1_555 1_555
C8_6 C7_6 1_555 1_555
C9_6 C8_6 1_555 1_555
H4_6 C9_6 1_555 1_555
C10_6 C9_6 1_555 1_555
C11_6 C10_6 1_555 1_555
H6_6 C11_6 1_555 1_555
C12_6 C7_6 1_555 1_555
C13_6 C1_6 1_555 1_555
C14_6 C5_6 1_555 1_555
C15_6 C8_6 1_555 1_555
C16_6 C12_6 1_555 1_555
O1_6 C13_6 1_555 1_555
O2_6 Cd1_9 1_555 1_555
O3_6 C14_6 1_555 1_555
O4_6 Cd6_4 1_555 1_555
O5_6 C15_6 1_555 1_555
O6_6 C15_6 1_555 1_555
O39_3 C16_6 1_555 1_555
O46_3 C16_6 1_555 1_555
Cd3_6 O15_6 1_555 1_555
Cd5_6 O17_6 1_555 1_555
Cd6_6 O5_6 1_555 1_555
Cd8_6 O22_6 1_555 1_555
C17_6 C20_6 1_555 1_555
C18_6 C21_6 1_555 1_555
C19_6 C22_6 1_555 1_555
C20_6 H7_6 1_555 1_555
C21_6 H8_6 1_555 1_555
C22_6 H9_6 1_555 1_555
C23_6 C20_6 1_555 1_555
C24_6 C21_6 1_555 1_555
C25_6 C22_6 1_555 1_555
H10_6 C23_6 1_555 1_555
H11_6 C24_6 1_555 1_555
H12_6 C25_6 1_555 1_555
C26_6 C23_6 1_555 1_555
C27_6 C24_6 1_555 1_555
C28_6 C25_6 1_555 1_555
H13_6 C26_6 1_555 1_555
H14_6 C27_6 1_555 1_555
H15_6 C28_6 1_555 1_555
C29_6 C26_6 1_555 1_555
C30_6 C27_6 1_555 1_555
C31_6 C28_6 1_555 1_555
C32_6 C17_6 1_555 1_555
C33_6 C18_6 1_555 1_555
C34_6 C19_6 1_555 1_555
C35_6 C32_6 1_555 1_555
C36_6 C33_6 1_555 1_555
C37_6 C34_6 1_555 1_555
C38_6 C35_6 1_555 1_555
C39_6 C36_6 1_555 1_555
C40_6 C37_6 1_555 1_555
C41_6 C38_6 1_555 1_555
C42_6 C39_6 1_555 1_555
C43_6 C40_6 1_555 1_555
H16_6 C41_6 1_555 1_555
H17_6 C42_6 1_555 1_555
H18_6 C43_6 1_555 1_555
C44_6 C41_6 1_555 1_555
C45_6 C42_6 1_555 1_555
C46_6 C43_6 1_555 1_555
H19_6 C44_6 1_555 1_555
H21_6 C46_6 1_555 1_555
C47_6 C44_6 1_555 1_555
C48_6 C45_6 1_555 1_555
C49_6 C46_6 1_555 1_555
H22_6 C47_6 1_555 1_555
H23_6 C48_6 1_555 1_555
H24_6 C49_6 1_555 1_555
C50_6 C35_6 1_555 1_555
C51_6 C36_6 1_555 1_555
C52_6 C37_6 1_555 1_555
C53_6 C17_6 1_555 1_555
C54_6 C18_6 1_555 1_555
C55_6 C19_6 1_555 1_555
C56_6 C29_6 1_555 1_555
C57_6 C30_6 1_555 1_555
C58_6 C31_6 1_555 1_555
C59_6 C38_6 1_555 1_555
C60_6 C39_6 1_555 1_555
C61_6 C40_6 1_555 1_555
C62_6 C50_6 1_555 1_555
C63_6 C51_6 1_555 1_555
C64_6 C52_6 1_555 1_555
O9_6 Cd1_9 1_555 1_555
O10_6 Cd1_9 1_555 1_555
O11_6 Cd1_9 1_555 1_555
O12_6 Cd1_9 1_555 1_555
O13_6 Cd1_9 1_555 1_555
O14_6 Cd1_9 1_555 1_555
O15_6 C56_6 1_555 1_555
O16_6 C57_6 1_555 1_555
O17_6 C58_6 1_555 1_555
O18_6 Cd3_6 1_555 1_555
O20_6 Cd5_6 1_555 1_555
O22_6 C60_6 1_555 1_555
O27_2 C61_6 1_555 1_555
O25_6 Cd3_6 1_555 1_555
O27_6 Cd5_6 1_555 1_555
O29_6 Cd8_6 1_555 1_555
O32_6 Cd3_6 1_555 1_555
O34_6 Cd5_6 1_555 1_555
O35_6 Cd8_6 1_555 1_555
O37_6 Cd6_6 1_555 1_555
O39_6 Cd3_6 1_555 1_555
O41_6 Cd5_6 1_555 1_555
O42_6 Cd8_6 1_555 1_555
O44_6 Cd6_6 1_555 1_555
O46_6 Cd3_6 1_555 1_555
O48_6 Cd5_6 1_555 1_555
C5_6 C6_6 1_555 1_555
C11_6 C12_6 1_555 1_555
C13_6 O2_6 1_555 1_555
C14_6 O4_6 1_555 1_555
O6_6 Cd6_6 1_555 1_555
C29_6 C32_6 1_555 1_555
C30_6 C33_6 1_555 1_555
C31_6 C34_6 1_555 1_555
C47_6 C50_6 1_555 1_555
C48_6 C51_6 1_555 1_555
C49_6 C52_6 1_555 1_555
C53_6 O9_6 1_555 1_555
C53_6 O12_6 1_555 1_555
C54_6 O10_6 1_555 1_555
C54_6 O13_6 1_555 1_555
C55_6 O11_6 1_555 1_555
C55_6 O14_6 1_555 1_555
C56_6 O18_6 1_555 1_555
C58_6 O20_6 1_555 1_555
C59_6 O25_3 1_555 1_555
C59_6 O32_3 1_555 1_555
C60_6 O29_6 1_555 1_555
C61_6 O34_2 1_555 1_555
C62_6 O35_6 1_555 1_555
C62_6 O42_6 1_555 1_555
C63_6 O41_2 1_555 1_555
C63_6 O48_2 1_555 1_555
C64_6 O37_6 1_555 1_555
C64_6 O44_6 1_555 1_555
Cd1_10 O1_7 1_555 1_555
C1_7 C2_7 1_555 1_555
C2_7 H1_7 1_555 1_555
C3_7 C2_7 1_555 1_555
H2_7 C3_7 1_555 1_555
C4_7 C3_7 1_555 1_555
H3_7 C4_7 1_555 1_555
C5_7 C4_7 1_555 1_555
C6_7 C1_7 1_555 1_555
C7_7 C6_7 1_555 1_555
C8_7 C7_7 1_555 1_555
C9_7 C8_7 1_555 1_555
H4_7 C9_7 1_555 1_555
C10_7 C9_7 1_555 1_555
H5_3 C10_7 1_555 1_555
C11_7 C10_7 1_555 1_555
H6_7 C11_7 1_555 1_555
C12_7 C7_7 1_555 1_555
C13_7 C1_7 1_555 1_555
C14_7 C5_7 1_555 1_555
C15_7 C8_7 1_555 1_555
C16_7 C12_7 1_555 1_555
O1_7 C13_7 1_555 1_555
O2_7 Cd1_10 1_555 1_555
O3_7 C14_7 1_555 1_555
O5_7 C15_7 1_555 1_555
O6_7 C15_7 1_555 1_555
O39 C16_7 1_555 1_555
O46 C16_7 1_555 1_555
Cd3_7 O15_7 1_555 1_555
Cd8_3 O16_7 1_555 1_555
Cd5_7 O17_7 1_555 1_555
Cd6_7 O5_7 1_555 1_555
Cd8_7 O22_7 1_555 1_555
C17_7 C20_7 1_555 1_555
C18_7 C21_7 1_555 1_555
C19_7 C22_7 1_555 1_555
C20_7 H7_7 1_555 1_555
C21_7 H8_7 1_555 1_555
C22_7 H9_7 1_555 1_555
C23_7 C20_7 1_555 1_555
C24_7 C21_7 1_555 1_555
C25_7 C22_7 1_555 1_555
H10_7 C23_7 1_555 1_555
H11_7 C24_7 1_555 1_555
H12_7 C25_7 1_555 1_555
C26_7 C23_7 1_555 1_555
C27_7 C24_7 1_555 1_555
C28_7 C25_7 1_555 1_555
H13_7 C26_7 1_555 1_555
H14_7 C27_7 1_555 1_555
H15_7 C28_7 1_555 1_555
C29_7 C26_7 1_555 1_555
C30_7 C27_7 1_555 1_555
C31_7 C28_7 1_555 1_555
C32_7 C17_7 1_555 1_555
C33_7 C18_7 1_555 1_555
C34_7 C19_7 1_555 1_555
C35_7 C32_7 1_555 1_555
C36_7 C33_7 1_555 1_555
C37_7 C34_7 1_555 1_555
C38_7 C35_7 1_555 1_555
C39_7 C36_7 1_555 1_555
C40_7 C37_7 1_555 1_555
C41_7 C38_7 1_555 1_555
C42_7 C39_7 1_555 1_555
C43_7 C40_7 1_555 1_555
H16_7 C41_7 1_555 1_555
H17_7 C42_7 1_555 1_555
H18_7 C43_7 1_555 1_555
C44_7 C41_7 1_555 1_555
C45_7 C42_7 1_555 1_555
C46_7 C43_7 1_555 1_555
H19_7 C44_7 1_555 1_555
H20_3 C45_7 1_555 1_555
H21_7 C46_7 1_555 1_555
C47_7 C44_7 1_555 1_555
C48_7 C45_7 1_555 1_555
C49_7 C46_7 1_555 1_555
H22_7 C47_7 1_555 1_555
H23_7 C48_7 1_555 1_555
H24_7 C49_7 1_555 1_555
C50_7 C35_7 1_555 1_555
C51_7 C36_7 1_555 1_555
C52_7 C37_7 1_555 1_555
C53_7 C17_7 1_555 1_555
C54_7 C18_7 1_555 1_555
C55_7 C19_7 1_555 1_555
C56_7 C29_7 1_555 1_555
C57_7 C30_7 1_555 1_555
C58_7 C31_7 1_555 1_555
C59_7 C38_7 1_555 1_555
C60_7 C39_7 1_555 1_555
C61_7 C40_7 1_555 1_555
C62_7 C50_7 1_555 1_555
C63_7 C51_7 1_555 1_555
C64_7 C52_7 1_555 1_555
O9_7 Cd1_10 1_555 1_555
O10_7 Cd1_10 1_555 1_555
O11_7 Cd1_10 1_555 1_555
O12_7 Cd1_10 1_555 1_555
O13_7 Cd1_10 1_555 1_555
O14_7 Cd1_10 1_555 1_555
O15_7 C56_7 1_555 1_555
O16_7 C57_7 1_555 1_555
O17_7 C58_7 1_555 1_555
O18_7 Cd3_7 1_555 1_555
O19_7 Cd8_3 1_555 1_555
O20_7 Cd5_7 1_555 1_555
O22_7 C60_7 1_555 1_555
O27_4 C61_7 1_555 1_555
O25_7 Cd3_7 1_555 1_555
O27_7 Cd5_7 1_555 1_555
O29_7 Cd8_7 1_555 1_555
O32_7 Cd3_7 1_555 1_555
O34_7 Cd5_7 1_555 1_555
O35_7 Cd8_7 1_555 1_555
O37_7 Cd6_7 1_555 1_555
O39_7 Cd3_7 1_555 1_555
O41_7 Cd5_7 1_555 1_555
O42_7 Cd8_7 1_555 1_555
O44_7 Cd6_7 1_555 1_555
O46_7 Cd3_7 1_555 1_555
O48_7 Cd5_7 1_555 1_555
C5_7 C6_7 1_555 1_555
C11_7 C12_7 1_555 1_555
C13_7 O2_7 1_555 1_555
O6_7 Cd6_7 1_555 1_555
C29_7 C32_7 1_555 1_555
C30_7 C33_7 1_555 1_555
C31_7 C34_7 1_555 1_555
C47_7 C50_7 1_555 1_555
C48_7 C51_7 1_555 1_555
C49_7 C52_7 1_555 1_555
C53_7 O9_7 1_555 1_555
C53_7 O12_7 1_555 1_555
C54_7 O10_7 1_555 1_555
C54_7 O13_7 1_555 1_555
C55_7 O11_7 1_555 1_555
C55_7 O14_7 1_555 1_555
C56_7 O18_7 1_555 1_555
C57_7 O19_7 1_555 1_555
C58_7 O20_7 1_555 1_555
C59_7 O25 1_555 1_555
C59_7 O32 1_555 1_555
C60_7 O29_7 1_555 1_555
C61_7 O34_4 1_555 1_555
C62_7 O35_7 1_555 1_555
C62_7 O42_7 1_555 1_555
C63_7 O41_4 1_555 1_555
C63_7 O48_4 1_555 1_555
C64_7 O37_7 1_555 1_555
C64_7 O44_7 1_555 1_555
O4_7 Cd6_2 1_555 1_555
Cd6_3 O3_8 1_555 1_555
C7_8 C6_8 1_555 1_555
C8_8 C7_8 1_555 1_555
C9_8 C8_8 1_555 1_555
H4_8 C9_8 1_555 1_555
C10_8 C9_8 1_555 1_555
H5_4 C10_8 1_555 1_555
C11_8 C10_8 1_555 1_555
H6_8 C11_8 1_555 1_555
C12_8 C7_8 1_555 1_555
C14_8 C5_8 1_555 1_555
C16_8 C12_8 1_555 1_555
O3_8 C14_8 1_555 1_555
O4_8 Cd6_3 1_555 1_555
O39_4 C16_8 1_555 1_555
O46_4 C16_8 1_555 1_555
Cd3_8 O15_8 1_555 1_555
Cd8_8 O22_8 1_555 1_555
C17_8 C20_8 1_555 1_555
C18_8 C21_8 1_555 1_555
C20_8 H7_8 1_555 1_555
C21_8 H8_8 1_555 1_555
C23_8 C20_8 1_555 1_555
C24_8 C21_8 1_555 1_555
H10_8 C23_8 1_555 1_555
H11_8 C24_8 1_555 1_555
C26_8 C23_8 1_555 1_555
C27_8 C24_8 1_555 1_555
H13_8 C26_8 1_555 1_555
H14_8 C27_8 1_555 1_555
C29_8 C26_8 1_555 1_555
C32_8 C17_8 1_555 1_555
C35_8 C32_8 1_555 1_555
C38_8 C35_8 1_555 1_555
C41_8 C38_8 1_555 1_555
H16_8 C41_8 1_555 1_555
C44_8 C41_8 1_555 1_555
H19_8 C44_8 1_555 1_555
C47_8 C44_8 1_555 1_555
H22_8 C47_8 1_555 1_555
C50_8 C35_8 1_555 1_555
C53_8 C17_8 1_555 1_555
C54_8 C18_8 1_555 1_555
C56_8 C29_8 1_555 1_555
C59_8 C38_8 1_555 1_555
C62_8 C50_8 1_555 1_555
O9_8 Cd1_11 1_555 1_555
O10_8 Cd1_11 1_555 1_555
O12_8 Cd1_11 1_555 1_555
O13_8 Cd1_11 1_555 1_555
O15_8 C56_8 1_555 1_555
O18_8 Cd3_8 1_555 1_555
O22_8 C60_8 1_555 1_555
O25_8 Cd3_8 1_555 1_555
O29_8 Cd8_8 1_555 1_555
O32_8 Cd3_8 1_555 1_555
O35_8 Cd8_8 1_555 1_555
O39_8 Cd3_8 1_555 1_555
O42_8 Cd8_8 1_555 1_555
O46_8 Cd3_8 1_555 1_555
C5_8 C6_8 1_555 1_555
C11_8 C12_8 1_555 1_555
C14_8 O4_8 1_555 1_555
C29_8 C32_8 1_555 1_555
C47_8 C50_8 1_555 1_555
C53_8 O9_8 1_555 1_555
C53_8 O12_8 1_555 1_555
C54_8 O10_8 1_555 1_555
C54_8 O13_8 1_555 1_555
C56_8 O18_8 1_555 1_555
C59_8 O25_4 1_555 1_555
C59_8 O32_4 1_555 1_555
C60_8 O29_8 1_555 1_555
C62_8 O35_8 1_555 1_555
C62_8 O42_8 1_555 1_555
Cd1_12 O1_8 1_555 1_555
C1_8 C2_8 1_555 1_555
C2_8 H1_8 1_555 1_555
C3_8 C2_8 1_555 1_555
H2_8 C3_8 1_555 1_555
C4_8 C3_8 1_555 1_555
H3_8 C4_8 1_555 1_555
C13_8 C1_8 1_555 1_555
O1_8 C13_8 1_555 1_555
O2_8 Cd1_12 1_555 1_555
O5_8 C15_8 1_555 1_555
O6_8 C15_8 1_555 1_555
Cd5_8 O17_8 1_555 1_555
Cd6_8 O5_8 1_555 1_555
C19_8 C22_8 1_555 1_555
C22_8 H9_8 1_555 1_555
C25_8 C22_8 1_555 1_555
H12_8 C25_8 1_555 1_555
C28_8 C25_8 1_555 1_555
H15_8 C28_8 1_555 1_555
C31_8 C28_8 1_555 1_555
C34_8 C19_8 1_555 1_555
C36_8 C33_8 1_555 1_555
C37_8 C34_8 1_555 1_555
C39_8 C36_8 1_555 1_555
C40_8 C37_8 1_555 1_555
C42_8 C39_8 1_555 1_555
C43_8 C40_8 1_555 1_555
H17_8 C42_8 1_555 1_555
H18_8 C43_8 1_555 1_555
C45_8 C42_8 1_555 1_555
C46_8 C43_8 1_555 1_555
H20_4 C45_8 1_555 1_555
H21_8 C46_8 1_555 1_555
C48_8 C45_8 1_555 1_555
C49_8 C46_8 1_555 1_555
H23_8 C48_8 1_555 1_555
H24_8 C49_8 1_555 1_555
C51_8 C36_8 1_555 1_555
C52_8 C37_8 1_555 1_555
C55_8 C19_8 1_555 1_555
C57_8 C30_8 1_555 1_555
C58_8 C31_8 1_555 1_555
C61_8 C40_8 1_555 1_555
C63_8 C51_8 1_555 1_555
C64_8 C52_8 1_555 1_555
O11_8 Cd1_12 1_555 1_555
O14_8 Cd1_12 1_555 1_555
O16_8 C57_8 1_555 1_555
O17_8 C58_8 1_555 1_555
O20_8 Cd5_8 1_555 1_555
O27 C61_8 1_555 1_555
O27_8 Cd5_8 1_555 1_555
O34_8 Cd5_8 1_555 1_555
O37_8 Cd6_8 1_555 1_555
O41_8 Cd5_8 1_555 1_555
O44_8 Cd6_8 1_555 1_555
O48_8 Cd5_8 1_555 1_555
C13_8 O2_8 1_555 1_555
O6_8 Cd6_8 1_555 1_555
C30_8 C33_8 1_555 1_555
C31_8 C34_8 1_555 1_555
C48_8 C51_8 1_555 1_555
C49_8 C52_8 1_555 1_555
C55_8 O11_8 1_555 1_555
C55_8 O14_8 1_555 1_555
C58_8 O20_8 1_555 1_555
C61_8 O34 1_555 1_555
C63_8 O41 1_555 1_555
C63_8 O48 1_555 1_555
C64_8 O37_8 1_555 1_555
C64_8 O44_8 1_555 1_555
O19_8 Cd8_2 1_555 1_555
Cd1_13 O1_9 1_555 1_555
C1_9 C2_9 1_555 1_555
C2_9 H1_9 1_555 1_555
C3_9 C2_9 1_555 1_555
H2_9 C3_9 1_555 1_555
C4_9 C3_9 1_555 1_555
H3_9 C4_9 1_555 1_555
C13_9 C1_9 1_555 1_555
O1_9 C13_9 1_555 1_555
O2_9 Cd1_13 1_555 1_555
O24 C15_9 1_555 1_555
O31 C15_9 1_555 1_555
Cd8_8 O16_9 1_555 1_555
Cd9_4 O17_9 1_555 1_555
C19_9 C22_9 1_555 1_555
C22_9 H9_9 1_555 1_555
C25_9 C22_9 1_555 1_555
H12_9 C25_9 1_555 1_555
C28_9 C25_9 1_555 1_555
H15_9 C28_9 1_555 1_555
C31_9 C28_9 1_555 1_555
C34_9 C19_9 1_555 1_555
C36_9 C33_9 1_555 1_555
C37_9 C34_9 1_555 1_555
C39_9 C36_9 1_555 1_555
C40_9 C37_9 1_555 1_555
C42_9 C39_9 1_555 1_555
C43_9 C40_9 1_555 1_555
H17_9 C42_9 1_555 1_555
H18_9 C43_9 1_555 1_555
C45_9 C42_9 1_555 1_555
C46_9 C43_9 1_555 1_555
H21_9 C46_9 1_555 1_555
C48_9 C45_9 1_555 1_555
C49_9 C46_9 1_555 1_555
H23_9 C48_9 1_555 1_555
H24_9 C49_9 1_555 1_555
C51_9 C36_9 1_555 1_555
C52_9 C37_9 1_555 1_555
C55_9 C19_9 1_555 1_555
C57_9 C30_9 1_555 1_555
C58_9 C31_9 1_555 1_555
C61_9 C40_9 1_555 1_555
C63_9 C51_9 1_555 1_555
C64_9 C52_9 1_555 1_555
O11_9 Cd1_13 1_555 1_555
O14_9 Cd1_13 1_555 1_555
O16_9 C57_9 1_555 1_555
O17_9 C58_9 1_555 1_555
O19_9 Cd8_8 1_555 1_555
O20_9 Cd9_4 1_555 1_555
O27_7 C61_9 1_555 1_555
C13_9 O2_9 1_555 1_555
C30_9 C33_9 1_555 1_555
C31_9 C34_9 1_555 1_555
C48_9 C51_9 1_555 1_555
C49_9 C52_9 1_555 1_555
C55_9 O11_9 1_555 1_555
C55_9 O14_9 1_555 1_555
C57_9 O19_9 1_555 1_555
C58_9 O20_9 1_555 1_555
C61_9 O34_7 1_555 1_555
C63_9 O41_7 1_555 1_555
C63_9 O48_7 1_555 1_555
C64_9 O38 1_555 1_555
C64_9 O45 1_555 1_555
O4_9 Cd6_5 1_555 1_555
C7_9 C6_9 1_555 1_555
C8_9 C7_9 1_555 1_555
C9_9 C8_9 1_555 1_555
H4_9 C9_9 1_555 1_555
C10_9 C9_9 1_555 1_555
C11_9 C10_9 1_555 1_555
H6_9 C11_9 1_555 1_555
C12_9 C7_9 1_555 1_555
C14_9 C5_9 1_555 1_555
C16_9 C12_9 1_555 1_555
O3_9 C14_9 1_555 1_555
O39_6 C16_9 1_555 1_555
O46_6 C16_9 1_555 1_555
Cd7_3 O15_9 1_555 1_555
C17_9 C20_9 1_555 1_555
C18_9 C21_9 1_555 1_555
C20_9 H7_9 1_555 1_555
C21_9 H8_9 1_555 1_555
C23_9 C20_9 1_555 1_555
C24_9 C21_9 1_555 1_555
H10_9 C23_9 1_555 1_555
H11_9 C24_9 1_555 1_555
C26_9 C23_9 1_555 1_555
C27_9 C24_9 1_555 1_555
H13_9 C26_9 1_555 1_555
H14_9 C27_9 1_555 1_555
C29_9 C26_9 1_555 1_555
C32_9 C17_9 1_555 1_555
C35_9 C32_9 1_555 1_555
C38_9 C35_9 1_555 1_555
C41_9 C38_9 1_555 1_555
H16_9 C41_9 1_555 1_555
C44_9 C41_9 1_555 1_555
H19_9 C44_9 1_555 1_555
C47_9 C44_9 1_555 1_555
H22_9 C47_9 1_555 1_555
C50_9 C35_9 1_555 1_555
C53_9 C17_9 1_555 1_555
C54_9 C18_9 1_555 1_555
C56_9 C29_9 1_555 1_555
C59_9 C38_9 1_555 1_555
C62_9 C50_9 1_555 1_555
O9_9 Cd1_14 1_555 1_555
O10_9 Cd1_14 1_555 1_555
O12_9 Cd1_14 1_555 1_555
O13_9 Cd1_14 1_555 1_555
O15_9 C56_9 1_555 1_555
O18_9 Cd7_3 1_555 1_555
O26_2 C60_9 1_555 1_555
C5_9 C6_9 1_555 1_555
C11_9 C12_9 1_555 1_555
C29_9 C32_9 1_555 1_555
C47_9 C50_9 1_555 1_555
C53_9 O9_9 1_555 1_555
C53_9 O12_9 1_555 1_555
C54_9 O10_9 1_555 1_555
C54_9 O13_9 1_555 1_555
C56_9 O18_9 1_555 1_555
C59_9 O25_6 1_555 1_555
C59_9 O32_6 1_555 1_555
C60_9 O33_2 1_555 1_555
C62_9 O40_2 1_555 1_555
C62_9 O47_2 1_555 1_555
O19_10 Cd8_5 1_555 1_555
Cd1_15 O1_10 1_555 1_555
Cd6_8 O3_10 1_555 1_555
C1_10 C2_10 1_555 1_555
C2_10 H1_10 1_555 1_555
C3_10 C2_10 1_555 1_555
H2_10 C3_10 1_555 1_555
C4_10 C3_10 1_555 1_555
H3_10 C4_10 1_555 1_555
C5_10 C4_10 1_555 1_555
C6_10 C1_10 1_555 1_555
C7_10 C6_10 1_555 1_555
C8_10 C7_10 1_555 1_555
C9_10 C8_10 1_555 1_555
H4_10 C9_10 1_555 1_555
C10_10 C9_10 1_555 1_555
C11_10 C10_10 1_555 1_555
H6_10 C11_10 1_555 1_555
C12_10 C7_10 1_555 1_555
C13_10 C1_10 1_555 1_555
C14_10 C5_10 1_555 1_555
C15_10 C8_10 1_555 1_555
C16_10 C12_10 1_555 1_555
O1_10 C13_10 1_555 1_555
O2_10 Cd1_15 1_555 1_555
O3_10 C14_10 1_555 1_555
O4_10 Cd6_8 1_555 1_555
O24_3 C15_10 1_555 1_555
O31_3 C15_10 1_555 1_555
O39_7 C16_10 1_555 1_555
O46_7 C16_10 1_555 1_555
Cd7 O15_10 1_555 1_555
Cd9_2 O17_10 1_555 1_555
C17_10 C20_10 1_555 1_555
C18_10 C21_10 1_555 1_555
C19_10 C22_10 1_555 1_555
C20_10 H7_10 1_555 1_555
C21_10 H8_10 1_555 1_555
C22_10 H9_10 1_555 1_555
C23_10 C20_10 1_555 1_555
C24_10 C21_10 1_555 1_555
C25_10 C22_10 1_555 1_555
H10_10 C23_10 1_555 1_555
H11_10 C24_10 1_555 1_555
H12_10 C25_10 1_555 1_555
C26_10 C23_10 1_555 1_555
C27_10 C24_10 1_555 1_555
C28_10 C25_10 1_555 1_555
H13_10 C26_10 1_555 1_555
H14_10 C27_10 1_555 1_555
H15_10 C28_10 1_555 1_555
C29_10 C26_10 1_555 1_555
C30_10 C27_10 1_555 1_555
C31_10 C28_10 1_555 1_555
C32_10 C17_10 1_555 1_555
C33_10 C18_10 1_555 1_555
C34_10 C19_10 1_555 1_555
C35_10 C32_10 1_555 1_555
C36_10 C33_10 1_555 1_555
C37_10 C34_10 1_555 1_555
C38_10 C35_10 1_555 1_555
C39_10 C36_10 1_555 1_555
C40_10 C37_10 1_555 1_555
C41_10 C38_10 1_555 1_555
C42_10 C39_10 1_555 1_555
C43_10 C40_10 1_555 1_555
H16_10 C41_10 1_555 1_555
H17_10 C42_10 1_555 1_555
H18_10 C43_10 1_555 1_555
C44_10 C41_10 1_555 1_555
C45_10 C42_10 1_555 1_555
C46_10 C43_10 1_555 1_555
H19_10 C44_10 1_555 1_555
H21_10 C46_10 1_555 1_555
C47_10 C44_10 1_555 1_555
C48_10 C45_10 1_555 1_555
C49_10 C46_10 1_555 1_555
H22_10 C47_10 1_555 1_555
H23_10 C48_10 1_555 1_555
H24_10 C49_10 1_555 1_555
C50_10 C35_10 1_555 1_555
C51_10 C36_10 1_555 1_555
C52_10 C37_10 1_555 1_555
C53_10 C17_10 1_555 1_555
C54_10 C18_10 1_555 1_555
C55_10 C19_10 1_555 1_555
C56_10 C29_10 1_555 1_555
C57_10 C30_10 1_555 1_555
C58_10 C31_10 1_555 1_555
C59_10 C38_10 1_555 1_555
C60_10 C39_10 1_555 1_555
C61_10 C40_10 1_555 1_555
C62_10 C50_10 1_555 1_555
C63_10 C51_10 1_555 1_555
C64_10 C52_10 1_555 1_555
O9_10 Cd1_15 1_555 1_555
O10_10 Cd1_15 1_555 1_555
O11_10 Cd1_15 1_555 1_555
O12_10 Cd1_15 1_555 1_555
O13_10 Cd1_15 1_555 1_555
O14_10 Cd1_15 1_555 1_555
O15_10 C56_10 1_555 1_555
O16_10 C57_10 1_555 1_555
O17_10 C58_10 1_555 1_555
O18_10 Cd7 1_555 1_555
O20_10 Cd9_2 1_555 1_555
O26_4 C60_10 1_555 1_555
O27_6 C61_10 1_555 1_555
C5_10 C6_10 1_555 1_555
C11_10 C12_10 1_555 1_555
C13_10 O2_10 1_555 1_555
C14_10 O4_10 1_555 1_555
C29_10 C32_10 1_555 1_555
C30_10 C33_10 1_555 1_555
C31_10 C34_10 1_555 1_555
C47_10 C50_10 1_555 1_555
C48_10 C51_10 1_555 1_555
C49_10 C52_10 1_555 1_555
C53_10 O9_10 1_555 1_555
C53_10 O12_10 1_555 1_555
C54_10 O10_10 1_555 1_555
C54_10 O13_10 1_555 1_555
C55_10 O11_10 1_555 1_555
C55_10 O14_10 1_555 1_555
C56_10 O18_10 1_555 1_555
C58_10 O20_10 1_555 1_555
C59_10 O25_7 1_555 1_555
C59_10 O32_7 1_555 1_555
C60_10 O33_4 1_555 1_555
C61_10 O34_6 1_555 1_555
C62_10 O40_4 1_555 1_555
C62_10 O47_4 1_555 1_555
C63_10 O41_6 1_555 1_555
C63_10 O48_6 1_555 1_555
C64_10 O38_3 1_555 1_555
C64_10 O45_3 1_555 1_555
Cd1_16 O1_11 1_555 1_555
C1_11 C2_11 1_555 1_555
C2_11 H1_11 1_555 1_555
C3_11 C2_11 1_555 1_555
H2_11 C3_11 1_555 1_555
C4_11 C3_11 1_555 1_555
H3_11 C4_11 1_555 1_555
C5_11 C4_11 1_555 1_555
C6_11 C1_11 1_555 1_555
C7_11 C6_11 1_555 1_555
C8_11 C7_11 1_555 1_555
C9_11 C8_11 1_555 1_555
H4_11 C9_11 1_555 1_555
C10_11 C9_11 1_555 1_555
H5_5 C10_11 1_555 1_555
C11_11 C10_11 1_555 1_555
H6_11 C11_11 1_555 1_555
C12_11 C7_11 1_555 1_555
C13_11 C1_11 1_555 1_555
C14_11 C5_11 1_555 1_555
C15_11 C8_11 1_555 1_555
C16_11 C12_11 1_555 1_555
O1_11 C13_11 1_555 1_555
O2_11 Cd1_16 1_555 1_555
O3_11 C14_11 1_555 1_555
O24_4 C15_11 1_555 1_555
O31_4 C15_11 1_555 1_555
O39_5 C16_11 1_555 1_555
O46_5 C16_11 1_555 1_555
Cd7_2 O15_11 1_555 1_555
Cd8_7 O16_11 1_555 1_555
Cd9 O17_11 1_555 1_555
C17_11 C20_11 1_555 1_555
C18_11 C21_11 1_555 1_555
C19_11 C22_11 1_555 1_555
C20_11 H7_11 1_555 1_555
C21_11 H8_11 1_555 1_555
C22_11 H9_11 1_555 1_555
C23_11 C20_11 1_555 1_555
C24_11 C21_11 1_555 1_555
C25_11 C22_11 1_555 1_555
H10_11 C23_11 1_555 1_555
H11_11 C24_11 1_555 1_555
H12_11 C25_11 1_555 1_555
C26_11 C23_11 1_555 1_555
C27_11 C24_11 1_555 1_555
C28_11 C25_11 1_555 1_555
H13_11 C26_11 1_555 1_555
H14_11 C27_11 1_555 1_555
H15_11 C28_11 1_555 1_555
C29_11 C26_11 1_555 1_555
C30_11 C27_11 1_555 1_555
C31_11 C28_11 1_555 1_555
C32_11 C17_11 1_555 1_555
C33_11 C18_11 1_555 1_555
C34_11 C19_11 1_555 1_555
C35_11 C32_11 1_555 1_555
C36_11 C33_11 1_555 1_555
C37_11 C34_11 1_555 1_555
C38_11 C35_11 1_555 1_555
C39_11 C36_11 1_555 1_555
C40_11 C37_11 1_555 1_555
C41_11 C38_11 1_555 1_555
C42_11 C39_11 1_555 1_555
C43_11 C40_11 1_555 1_555
H16_11 C41_11 1_555 1_555
H17_11 C42_11 1_555 1_555
H18_11 C43_11 1_555 1_555
C44_11 C41_11 1_555 1_555
C45_11 C42_11 1_555 1_555
C46_11 C43_11 1_555 1_555
H19_11 C44_11 1_555 1_555
H20_5 C45_11 1_555 1_555
H21_11 C46_11 1_555 1_555
C47_11 C44_11 1_555 1_555
C48_11 C45_11 1_555 1_555
C49_11 C46_11 1_555 1_555
H22_11 C47_11 1_555 1_555
H23_11 C48_11 1_555 1_555
H24_11 C49_11 1_555 1_555
C50_11 C35_11 1_555 1_555
C51_11 C36_11 1_555 1_555
C52_11 C37_11 1_555 1_555
C53_11 C17_11 1_555 1_555
C54_11 C18_11 1_555 1_555
C55_11 C19_11 1_555 1_555
C56_11 C29_11 1_555 1_555
C57_11 C30_11 1_555 1_555
C58_11 C31_11 1_555 1_555
C59_11 C38_11 1_555 1_555
C60_11 C39_11 1_555 1_555
C61_11 C40_11 1_555 1_555
C62_11 C50_11 1_555 1_555
C63_11 C51_11 1_555 1_555
C64_11 C52_11 1_555 1_555
O9_11 Cd1_16 1_555 1_555
O10_11 Cd1_16 1_555 1_555
O11_11 Cd1_16 1_555 1_555
O12_11 Cd1_16 1_555 1_555
O13_11 Cd1_16 1_555 1_555
O14_11 Cd1_16 1_555 1_555
O15_11 C56_11 1_555 1_555
O16_11 C57_11 1_555 1_555
O17_11 C58_11 1_555 1_555
O18_11 Cd7_2 1_555 1_555
O19_11 Cd8_7 1_555 1_555
O20_11 Cd9 1_555 1_555
O26_3 C60_11 1_555 1_555
O27_8 C61_11 1_555 1_555
C5_11 C6_11 1_555 1_555
C11_11 C12_11 1_555 1_555
C13_11 O2_11 1_555 1_555
C29_11 C32_11 1_555 1_555
C30_11 C33_11 1_555 1_555
C31_11 C34_11 1_555 1_555
C47_11 C50_11 1_555 1_555
C48_11 C51_11 1_555 1_555
C49_11 C52_11 1_555 1_555
C53_11 O9_11 1_555 1_555
C53_11 O12_11 1_555 1_555
C54_11 O10_11 1_555 1_555
C54_11 O13_11 1_555 1_555
C55_11 O11_11 1_555 1_555
C55_11 O14_11 1_555 1_555
C56_11 O18_11 1_555 1_555
C57_11 O19_11 1_555 1_555
C58_11 O20_11 1_555 1_555
C59_11 O25_5 1_555 1_555
C59_11 O32_5 1_555 1_555
C60_11 O33_3 1_555 1_555
C61_11 O34_8 1_555 1_555
C62_11 O40_3 1_555 1_555
C62_11 O47_3 1_555 1_555
C63_11 O41_8 1_555 1_555
C63_11 O48_8 1_555 1_555
C64_11 O38_4 1_555 1_555
C64_11 O45_4 1_555 1_555
O4_11 Cd6_6 1_555 1_555
Cd6_7 O3_12 1_555 1_555
C7_12 C6_12 1_555 1_555
C8_12 C7_12 1_555 1_555
C9_12 C8_12 1_555 1_555
H4_12 C9_12 1_555 1_555
C10_12 C9_12 1_555 1_555
H5_6 C10_12 1_555 1_555
C11_12 C10_12 1_555 1_555
H6_12 C11_12 1_555 1_555
C12_12 C7_12 1_555 1_555
C14_12 C5_12 1_555 1_555
C16_12 C12_12 1_555 1_555
O3_12 C14_12 1_555 1_555
O4_12 Cd6_7 1_555 1_555
O39_8 C16_12 1_555 1_555
O46_8 C16_12 1_555 1_555
Cd7_4 O15_12 1_555 1_555
C17_12 C20_12 1_555 1_555
C18_12 C21_12 1_555 1_555
C20_12 H7_12 1_555 1_555
C21_12 H8_12 1_555 1_555
C23_12 C20_12 1_555 1_555
C24_12 C21_12 1_555 1_555
H10_12 C23_12 1_555 1_555
H11_12 C24_12 1_555 1_555
C26_12 C23_12 1_555 1_555
C27_12 C24_12 1_555 1_555
H13_12 C26_12 1_555 1_555
H14_12 C27_12 1_555 1_555
C29_12 C26_12 1_555 1_555
C32_12 C17_12 1_555 1_555
C35_12 C32_12 1_555 1_555
C38_12 C35_12 1_555 1_555
C41_12 C38_12 1_555 1_555
H16_12 C41_12 1_555 1_555
C44_12 C41_12 1_555 1_555
H19_12 C44_12 1_555 1_555
C47_12 C44_12 1_555 1_555
H22_12 C47_12 1_555 1_555
C50_12 C35_12 1_555 1_555
C53_12 C17_12 1_555 1_555
C54_12 C18_12 1_555 1_555
C56_12 C29_12 1_555 1_555
C59_12 C38_12 1_555 1_555
C62_12 C50_12 1_555 1_555
O9_12 Cd1_17 1_555 1_555
O10_12 Cd1_17 1_555 1_555
O12_12 Cd1_17 1_555 1_555
O13_12 Cd1_17 1_555 1_555
O15_12 C56_12 1_555 1_555
O18_12 Cd7_4 1_555 1_555
O26 C60_12 1_555 1_555
C5_12 C6_12 1_555 1_555
C11_12 C12_12 1_555 1_555
C14_12 O4_12 1_555 1_555
C29_12 C32_12 1_555 1_555
C47_12 C50_12 1_555 1_555
C53_12 O9_12 1_555 1_555
C53_12 O12_12 1_555 1_555
C54_12 O10_12 1_555 1_555
C54_12 O13_12 1_555 1_555
C56_12 O18_12 1_555 1_555
C59_12 O25_8 1_555 1_555
C59_12 O32_8 1_555 1_555
C60_12 O33 1_555 1_555
C62_12 O40 1_555 1_555
C62_12 O47 1_555 1_555
Cd1_18 O1_12 1_555 1_555
C1_12 C2_12 1_555 1_555
C2_12 H1_12 1_555 1_555
C3_12 C2_12 1_555 1_555
H2_12 C3_12 1_555 1_555
C4_12 C3_12 1_555 1_555
H3_12 C4_12 1_555 1_555
C13_12 C1_12 1_555 1_555
O1_12 C13_12 1_555 1_555
O2_12 Cd1_18 1_555 1_555
O24_2 C15_12 1_555 1_555
O31_2 C15_12 1_555 1_555
Cd9_3 O17_12 1_555 1_555
C19_12 C22_12 1_555 1_555
C22_12 H9_12 1_555 1_555
C25_12 C22_12 1_555 1_555
H12_12 C25_12 1_555 1_555
C28_12 C25_12 1_555 1_555
H15_12 C28_12 1_555 1_555
C31_12 C28_12 1_555 1_555
C34_12 C19_12 1_555 1_555
C36_12 C33_12 1_555 1_555
C37_12 C34_12 1_555 1_555
C39_12 C36_12 1_555 1_555
C40_12 C37_12 1_555 1_555
C42_12 C39_12 1_555 1_555
C43_12 C40_12 1_555 1_555
H17_12 C42_12 1_555 1_555
H18_12 C43_12 1_555 1_555
C45_12 C42_12 1_555 1_555
C46_12 C43_12 1_555 1_555
H20_6 C45_12 1_555 1_555
H21_12 C46_12 1_555 1_555
C48_12 C45_12 1_555 1_555
C49_12 C46_12 1_555 1_555
H23_12 C48_12 1_555 1_555
H24_12 C49_12 1_555 1_555
C51_12 C36_12 1_555 1_555
C52_12 C37_12 1_555 1_555
C55_12 C19_12 1_555 1_555
C57_12 C30_12 1_555 1_555
C58_12 C31_12 1_555 1_555
C61_12 C40_12 1_555 1_555
C63_12 C51_12 1_555 1_555
C64_12 C52_12 1_555 1_555
O11_12 Cd1_18 1_555 1_555
O14_12 Cd1_18 1_555 1_555
O16_12 C57_12 1_555 1_555
O17_12 C58_12 1_555 1_555
O20_12 Cd9_3 1_555 1_555
O27_5 C61_12 1_555 1_555
C13_12 O2_12 1_555 1_555
C30_12 C33_12 1_555 1_555
C31_12 C34_12 1_555 1_555
C48_12 C51_12 1_555 1_555
C49_12 C52_12 1_555 1_555
C55_12 O11_12 1_555 1_555
C55_12 O14_12 1_555 1_555
C58_12 O20_12 1_555 1_555
C61_12 O34_5 1_555 1_555
C63_12 O41_5 1_555 1_555
C63_12 O48_5 1_555 1_555
C64_12 O38_2 1_555 1_555
C64_12 O45_2 1_555 1_555
O19_12 Cd8_6 1_555 1_555
N1 H25 1_555 1_555
H26 N1 1_555 1_555
C65 N1 1_555 1_555
H31 C66 1_555 1_555
H32 C66 1_555 1_555
N1_2 H25_2 1_555 1_555
H26_2 N1_2 1_555 1_555
C65_2 N1_2 1_555 1_555
H28_2 C65_2 1_555 1_555
H29_2 C65_2 1_555 1_555
C66_2 N1_2 1_555 1_555
H30_2 C66_2 1_555 1_555
H31_2 C66_2 1_555 1_555
H32_2 C66_2 1_555 1_555
H31_3 C66_3 1_555 1_555
H32_3 C66_3 1_555 1_555
N1_3 H25_3 1_555 1_555
H26_3 N1_3 1_555 1_555
C65_3 N1_3 1_555 1_555
H27_3 C65_3 1_555 1_555
N1_4 H25_4 1_555 1_555
H26_4 N1_4 1_555 1_555
C65_4 N1_4 1_555 1_555
H27_4 C65_4 1_555 1_555
H28_4 C65_4 1_555 1_555
H29_4 C65_4 1_555 1_555
C66_4 N1_4 1_555 1_555
H30_4 C66_4 1_555 1_555
H31_4 C66_4 1_555 1_555
H32_4 C66_4 1_555 1_555
N1_5 H25_5 1_555 1_555
H26_5 N1_5 1_555 1_555
C65_5 N1_5 1_555 1_555
H31_5 C66_5 1_555 1_555
H32_5 C66_5 1_555 1_555
N1_6 H25_6 1_555 1_555
H26_6 N1_6 1_555 1_555
C65_6 N1_6 1_555 1_555
H28_6 C65_6 1_555 1_555
H29_6 C65_6 1_555 1_555
C66_6 N1_6 1_555 1_555
H30_6 C66_6 1_555 1_555
H31_6 C66_6 1_555 1_555
H32_6 C66_6 1_555 1_555
H31_7 C66_7 1_555 1_555
H32_7 C66_7 1_555 1_555
N1_7 H25_7 1_555 1_555
H26_7 N1_7 1_555 1_555
C65_7 N1_7 1_555 1_555
H27_7 C65_7 1_555 1_555
N1_8 H25_8 1_555 1_555
H26_8 N1_8 1_555 1_555
C65_8 N1_8 1_555 1_555
H27_8 C65_8 1_555 1_555
H28_8 C65_8 1_555 1_555
H29_8 C65_8 1_555 1_555
C66_8 N1_8 1_555 1_555
H30_8 C66_8 1_555 1_555
H31_8 C66_8 1_555 1_555
H32_8 C66_8 1_555 1_555
N1_9 H25_9 1_555 1_555
H26_9 N1_9 1_555 1_555
C65_9 N1_9 1_555 1_555
H31_9 C66_9 1_555 1_555
H32_9 C66_9 1_555 1_555
N1_10 H25_10 1_555 1_555
H26_10 N1_10 1_555 1_555
C65_10 N1_10 1_555 1_555
H28_10 C65_10 1_555 1_555
H29_10 C65_10 1_555 1_555
C66_10 N1_10 1_555 1_555
H30_10 C66_10 1_555 1_555
H31_10 C66_10 1_555 1_555
H32_10 C66_10 1_555 1_555
H31_11 C66_11 1_555 1_555
H32_11 C66_11 1_555 1_555
N1_11 H25_11 1_555 1_555
H26_11 N1_11 1_555 1_555
C65_11 N1_11 1_555 1_555
H27_11 C65_11 1_555 1_555
N1_12 H25_12 1_555 1_555
H26_12 N1_12 1_555 1_555
C65_12 N1_12 1_555 1_555
H27_12 C65_12 1_555 1_555
H28_12 C65_12 1_555 1_555
H29_12 C65_12 1_555 1_555
C66_12 N1_12 1_555 1_555
H30_12 C66_12 1_555 1_555
H31_12 C66_12 1_555 1_555
H32_12 C66_12 1_555 1_555
N1_13 H25_13 1_555 1_555
H26_13 N1_13 1_555 1_555
C65_13 N1_13 1_555 1_555
H27_13 C65_13 1_555 1_555
H28_13 C65_13 1_555 1_555
H29_13 C65_13 1_555 1_555
C66_13 N1_13 1_555 1_555
H30_13 C66_13 1_555 1_555
H31_13 C66_13 1_555 1_555
H32_13 C66_13 1_555 1_555
N1_14 H25_14 1_555 1_555
H26_14 N1_14 1_555 1_555
C65_14 N1_14 1_555 1_555
H27_14 C65_14 1_555 1_555
H28_14 C65_14 1_555 1_555
H29_14 C65_14 1_555 1_555
C66_14 N1_14 1_555 1_555
H30_14 C66_14 1_555 1_555
H31_14 C66_14 1_555 1_555
H32_14 C66_14 1_555 1_555
N1_15 H25_15 1_555 1_555
H26_15 N1_15 1_555 1_555
C65_15 N1_15 1_555 1_555
H27_15 C65_15 1_555 1_555
H28_15 C65_15 1_555 1_555
H29_15 C65_15 1_555 1_555
C66_15 N1_15 1_555 1_555
H30_15 C66_15 1_555 1_555
H31_15 C66_15 1_555 1_555
H32_15 C66_15 1_555 1_555
N1_16 H25_16 1_555 1_555
H26_16 N1_16 1_555 1_555
C65_16 N1_16 1_555 1_555
H27_16 C65_16 1_555 1_555
H28_16 C65_16 1_555 1_555
H29_16 C65_16 1_555 1_555
C66_16 N1_16 1_555 1_555
H30_16 C66_16 1_555 1_555
H31_16 C66_16 1_555 1_555
H32_16 C66_16 1_555 1_555
N1_17 H25_17 1_555 1_555
H26_17 N1_17 1_555 1_555
C65_17 N1_17 1_555 1_555
H27_17 C65_17 1_555 1_555
H28_17 C65_17 1_555 1_555
H29_17 C65_17 1_555 1_555
C66_17 N1_17 1_555 1_555
H30_17 C66_17 1_555 1_555
H31_17 C66_17 1_555 1_555
H32_17 C66_17 1_555 1_555
N1_18 H25_18 1_555 1_555
H26_18 N1_18 1_555 1_555
C65_18 N1_18 1_555 1_555
H27_18 C65_18 1_555 1_555
H28_18 C65_18 1_555 1_555
H29_18 C65_18 1_555 1_555
C66_18 N1_18 1_555 1_555
H30_18 C66_18 1_555 1_555
H31_18 C66_18 1_555 1_555
H32_18 C66_18 1_555 1_555
N1_19 H25_19 1_555 1_555
H26_19 N1_19 1_555 1_555
C65_19 N1_19 1_555 1_555
H27_19 C65_19 1_555 1_555
H28_19 C65_19 1_555 1_555
H29_19 C65_19 1_555 1_555
C66_19 N1_19 1_555 1_555
H30_19 C66_19 1_555 1_555
H31_19 C66_19 1_555 1_555
H32_19 C66_19 1_555 1_555
N1_20 H25_20 1_555 1_555
H26_20 N1_20 1_555 1_555
C65_20 N1_20 1_555 1_555
H27_20 C65_20 1_555 1_555
H28_20 C65_20 1_555 1_555
H29_20 C65_20 1_555 1_555
C66_20 N1_20 1_555 1_555
H30_20 C66_20 1_555 1_555
H31_20 C66_20 1_555 1_555
H32_20 C66_20 1_555 1_555
N1_21 H25_21 1_555 1_555
H26_21 N1_21 1_555 1_555
C65_21 N1_21 1_555 1_555
H27_21 C65_21 1_555 1_555
H28_21 C65_21 1_555 1_555
H29_21 C65_21 1_555 1_555
C66_21 N1_21 1_555 1_555
H30_21 C66_21 1_555 1_555
H31_21 C66_21 1_555 1_555
H32_21 C66_21 1_555 1_555
N1_22 H25_22 1_555 1_555
H26_22 N1_22 1_555 1_555
C65_22 N1_22 1_555 1_555
H27_22 C65_22 1_555 1_555
H28_22 C65_22 1_555 1_555
H29_22 C65_22 1_555 1_555
C66_22 N1_22 1_555 1_555
H30_22 C66_22 1_555 1_555
H31_22 C66_22 1_555 1_555
H32_22 C66_22 1_555 1_555
N1_23 H25_23 1_555 1_555
H26_23 N1_23 1_555 1_555
C65_23 N1_23 1_555 1_555
H27_23 C65_23 1_555 1_555
H28_23 C65_23 1_555 1_555
H29_23 C65_23 1_555 1_555
C66_23 N1_23 1_555 1_555
H30_23 C66_23 1_555 1_555
H31_23 C66_23 1_555 1_555
H32_23 C66_23 1_555 1_555
N1_24 H25_24 1_555 1_555
H26_24 N1_24 1_555 1_555
C65_24 N1_24 1_555 1_555
H27_24 C65_24 1_555 1_555
H28_24 C65_24 1_555 1_555
H29_24 C65_24 1_555 1_555
C66_24 N1_24 1_555 1_555
H30_24 C66_24 1_555 1_555
H31_24 C66_24 1_555 1_555
H32_24 C66_24 1_555 1_555
N1_25 H25_25 1_555 1_555
H26_25 N1_25 1_555 1_555
C65_25 N1_25 1_555 1_555
H27_25 C65_25 1_555 1_555
H28_25 C65_25 1_555 1_555
H29_25 C65_25 1_555 1_555
C66_25 N1_25 1_555 1_555
H30_25 C66_25 1_555 1_555
H31_25 C66_25 1_555 1_555
H32_25 C66_25 1_555 1_555
H31_26 C66_26 1_555 1_555
H32_26 C66_26 1_555 1_555
N1_26 H25_26 1_555 1_555
H26_26 N1_26 1_555 1_555
C65_26 N1_26 1_555 1_555
H27_26 C65_26 1_555 1_555
N1_27 H25_27 1_555 1_555
H26_27 N1_27 1_555 1_555
C65_27 N1_27 1_555 1_555
H28_27 C65_27 1_555 1_555
H29_27 C65_27 1_555 1_555
C66_27 N1_27 1_555 1_555
H30_27 C66_27 1_555 1_555
H31_27 C66_27 1_555 1_555
H32_27 C66_27 1_555 1_555
N1_28 H25_28 1_555 1_555
H26_28 N1_28 1_555 1_555
C65_28 N1_28 1_555 1_555
H31_28 C66_28 1_555 1_555
H32_28 C66_28 1_555 1_555
N1_29 H25_29 1_555 1_555
H26_29 N1_29 1_555 1_555
C65_29 N1_29 1_555 1_555
H27_29 C65_29 1_555 1_555
H28_29 C65_29 1_555 1_555
H29_29 C65_29 1_555 1_555
C66_29 N1_29 1_555 1_555
H30_29 C66_29 1_555 1_555
H31_29 C66_29 1_555 1_555
H32_29 C66_29 1_555 1_555
H31_30 C66_30 1_555 1_555
H32_30 C66_30 1_555 1_555
N1_30 H25_30 1_555 1_555
H26_30 N1_30 1_555 1_555
C65_30 N1_30 1_555 1_555
H27_30 C65_30 1_555 1_555
N1_31 H25_31 1_555 1_555
H26_31 N1_31 1_555 1_555
C65_31 N1_31 1_555 1_555
H28_31 C65_31 1_555 1_555
H29_31 C65_31 1_555 1_555
C66_31 N1_31 1_555 1_555
H30_31 C66_31 1_555 1_555
H31_31 C66_31 1_555 1_555
H32_31 C66_31 1_555 1_555
N1_32 H25_32 1_555 1_555
H26_32 N1_32 1_555 1_555
C65_32 N1_32 1_555 1_555
H31_32 C66_32 1_555 1_555
H32_32 C66_32 1_555 1_555
N1_33 H25_33 1_555 1_555
H26_33 N1_33 1_555 1_555
C65_33 N1_33 1_555 1_555
H27_33 C65_33 1_555 1_555
H28_33 C65_33 1_555 1_555
H29_33 C65_33 1_555 1_555
C66_33 N1_33 1_555 1_555
H30_33 C66_33 1_555 1_555
H31_33 C66_33 1_555 1_555
H32_33 C66_33 1_555 1_555
H31_34 C66_34 1_555 1_555
H32_34 C66_34 1_555 1_555
N1_34 H25_34 1_555 1_555
H26_34 N1_34 1_555 1_555
C65_34 N1_34 1_555 1_555
H27_34 C65_34 1_555 1_555
N1_35 H25_35 1_555 1_555
H26_35 N1_35 1_555 1_555
C65_35 N1_35 1_555 1_555
H28_35 C65_35 1_555 1_555
H29_35 C65_35 1_555 1_555
C66_35 N1_35 1_555 1_555
H30_35 C66_35 1_555 1_555
H31_35 C66_35 1_555 1_555
H32_35 C66_35 1_555 1_555
N1_36 H25_36 1_555 1_555
H26_36 N1_36 1_555 1_555
C65_36 N1_36 1_555 1_555
H31_36 C66_36 1_555 1_555
H32_36 C66_36 1_555 1_555
N1_37 H25_37 1_555 1_555
H26_37 N1_37 1_555 1_555
C65_37 N1_37 1_555 1_555
H27_37 C65_37 1_555 1_555
H28_37 C65_37 1_555 1_555
H29_37 C65_37 1_555 1_555
C66_37 N1_37 1_555 1_555
H30_37 C66_37 1_555 1_555
H31_37 C66_37 1_555 1_555
H32_37 C66_37 1_555 1_555
N1_38 H25_38 1_555 1_555
H26_38 N1_38 1_555 1_555
C65_38 N1_38 1_555 1_555
H27_38 C65_38 1_555 1_555
H28_38 C65_38 1_555 1_555
H29_38 C65_38 1_555 1_555
C66_38 N1_38 1_555 1_555
H30_38 C66_38 1_555 1_555
H31_38 C66_38 1_555 1_555
H32_38 C66_38 1_555 1_555
N1_39 H25_39 1_555 1_555
H26_39 N1_39 1_555 1_555
C65_39 N1_39 1_555 1_555
H27_39 C65_39 1_555 1_555
H28_39 C65_39 1_555 1_555
H29_39 C65_39 1_555 1_555
C66_39 N1_39 1_555 1_555
H30_39 C66_39 1_555 1_555
H31_39 C66_39 1_555 1_555
H32_39 C66_39 1_555 1_555
N1_40 H25_40 1_555 1_555
H26_40 N1_40 1_555 1_555
C65_40 N1_40 1_555 1_555
H27_40 C65_40 1_555 1_555
H28_40 C65_40 1_555 1_555
H29_40 C65_40 1_555 1_555
C66_40 N1_40 1_555 1_555
H30_40 C66_40 1_555 1_555
H31_40 C66_40 1_555 1_555
H32_40 C66_40 1_555 1_555
N1_41 H25_41 1_555 1_555
H26_41 N1_41 1_555 1_555
C65_41 N1_41 1_555 1_555
H27_41 C65_41 1_555 1_555
H28_41 C65_41 1_555 1_555
H29_41 C65_41 1_555 1_555
C66_41 N1_41 1_555 1_555
H30_41 C66_41 1_555 1_555
H31_41 C66_41 1_555 1_555
H32_41 C66_41 1_555 1_555
N1_42 H25_42 1_555 1_555
H26_42 N1_42 1_555 1_555
C65_42 N1_42 1_555 1_555
H27_42 C65_42 1_555 1_555
H28_42 C65_42 1_555 1_555
H29_42 C65_42 1_555 1_555
C66_42 N1_42 1_555 1_555
H30_42 C66_42 1_555 1_555
H31_42 C66_42 1_555 1_555
H32_42 C66_42 1_555 1_555
N1_43 H25_43 1_555 1_555
H26_43 N1_43 1_555 1_555
C65_43 N1_43 1_555 1_555
H27_43 C65_43 1_555 1_555
H28_43 C65_43 1_555 1_555
H29_43 C65_43 1_555 1_555
C66_43 N1_43 1_555 1_555
H30_43 C66_43 1_555 1_555
H31_43 C66_43 1_555 1_555
H32_43 C66_43 1_555 1_555
N1_44 H25_44 1_555 1_555
H26_44 N1_44 1_555 1_555
C65_44 N1_44 1_555 1_555
H27_44 C65_44 1_555 1_555
H28_44 C65_44 1_555 1_555
H29_44 C65_44 1_555 1_555
C66_44 N1_44 1_555 1_555
H30_44 C66_44 1_555 1_555
H31_44 C66_44 1_555 1_555
H32_44 C66_44 1_555 1_555
N1_45 H25_45 1_555 1_555
H26_45 N1_45 1_555 1_555
C65_45 N1_45 1_555 1_555
H27_45 C65_45 1_555 1_555
H28_45 C65_45 1_555 1_555
H29_45 C65_45 1_555 1_555
C66_45 N1_45 1_555 1_555
H30_45 C66_45 1_555 1_555
H31_45 C66_45 1_555 1_555
H32_45 C66_45 1_555 1_555
N1_46 H25_46 1_555 1_555
H26_46 N1_46 1_555 1_555
C65_46 N1_46 1_555 1_555
H27_46 C65_46 1_555 1_555
H28_46 C65_46 1_555 1_555
H29_46 C65_46 1_555 1_555
C66_46 N1_46 1_555 1_555
H30_46 C66_46 1_555 1_555
H31_46 C66_46 1_555 1_555
H32_46 C66_46 1_555 1_555
N1_47 H25_47 1_555 1_555
H26_47 N1_47 1_555 1_555
C65_47 N1_47 1_555 1_555
H27_47 C65_47 1_555 1_555
H28_47 C65_47 1_555 1_555
H29_47 C65_47 1_555 1_555
C66_47 N1_47 1_555 1_555
H30_47 C66_47 1_555 1_555
H31_47 C66_47 1_555 1_555
H32_47 C66_47 1_555 1_555
N1_48 H25_48 1_555 1_555
H26_48 N1_48 1_555 1_555
C65_48 N1_48 1_555 1_555
H27_48 C65_48 1_555 1_555
H28_48 C65_48 1_555 1_555
H29_48 C65_48 1_555 1_555
C66_48 N1_48 1_555 1_555
H30_48 C66_48 1_555 1_555
H31_48 C66_48 1_555 1_555
H32_48 C66_48 1_555 1_555
H34 C67 1_555 1_555
H35 C67 1_555 1_555
C68 H36 1_555 1_555
H37 C68 1_555 1_555
H38 C68 1_555 1_555
H39 N2 1_555 1_555
H40 N2 1_555 1_555
C67_2 H33_2 1_555 1_555
H34_2 C67_2 1_555 1_555
H35_2 C67_2 1_555 1_555
C68_2 H36_2 1_555 1_555
H37_2 C68_2 1_555 1_555
H38_2 C68_2 1_555 1_555
N2_2 C67_2 1_555 1_555
H39_2 N2_2 1_555 1_555
H40_2 N2_2 1_555 1_555
C68_2 N2_2 1_555 1_555
H39_3 N2_3 1_555 1_555
H40_3 N2_3 1_555 1_555
H34_3 C67_3 1_555 1_555
H35_3 C67_3 1_555 1_555
C68_3 H36_3 1_555 1_555
H37_3 C68_3 1_555 1_555
H38_3 C68_3 1_555 1_555
C67_4 H33_4 1_555 1_555
H34_4 C67_4 1_555 1_555
H35_4 C67_4 1_555 1_555
C68_4 H36_4 1_555 1_555
H37_4 C68_4 1_555 1_555
H38_4 C68_4 1_555 1_555
N2_4 C67_4 1_555 1_555
H39_4 N2_4 1_555 1_555
H40_4 N2_4 1_555 1_555
C68_4 N2_4 1_555 1_555
H34_5 C67_5 1_555 1_555
H35_5 C67_5 1_555 1_555
C68_5 H36_5 1_555 1_555
H37_5 C68_5 1_555 1_555
H38_5 C68_5 1_555 1_555
H39_5 N2_5 1_555 1_555
H40_5 N2_5 1_555 1_555
C67_6 H33_6 1_555 1_555
H34_6 C67_6 1_555 1_555
H35_6 C67_6 1_555 1_555
C68_6 H36_6 1_555 1_555
H37_6 C68_6 1_555 1_555
H38_6 C68_6 1_555 1_555
N2_6 C67_6 1_555 1_555
H39_6 N2_6 1_555 1_555
H40_6 N2_6 1_555 1_555
C68_6 N2_6 1_555 1_555
H39_7 N2_7 1_555 1_555
H40_7 N2_7 1_555 1_555
H34_7 C67_7 1_555 1_555
H35_7 C67_7 1_555 1_555
C68_7 H36_7 1_555 1_555
H37_7 C68_7 1_555 1_555
H38_7 C68_7 1_555 1_555
C67_8 H33_8 1_555 1_555
H34_8 C67_8 1_555 1_555
H35_8 C67_8 1_555 1_555
C68_8 H36_8 1_555 1_555
H37_8 C68_8 1_555 1_555
H38_8 C68_8 1_555 1_555
N2_8 C67_8 1_555 1_555
H39_8 N2_8 1_555 1_555
H40_8 N2_8 1_555 1_555
C68_8 N2_8 1_555 1_555
H34_9 C67_9 1_555 1_555
H35_9 C67_9 1_555 1_555
C68_9 H36_9 1_555 1_555
H37_9 C68_9 1_555 1_555
H38_9 C68_9 1_555 1_555
H39_9 N2_9 1_555 1_555
H40_9 N2_9 1_555 1_555
C67_10 H33_10 1_555 1_555
H34_10 C67_10 1_555 1_555
H35_10 C67_10 1_555 1_555
C68_10 H36_10 1_555 1_555
H37_10 C68_10 1_555 1_555
H38_10 C68_10 1_555 1_555
N2_10 C67_10 1_555 1_555
H39_10 N2_10 1_555 1_555
H40_10 N2_10 1_555 1_555
C68_10 N2_10 1_555 1_555
H39_11 N2_11 1_555 1_555
H40_11 N2_11 1_555 1_555
H34_11 C67_11 1_555 1_555
H35_11 C67_11 1_555 1_555
C68_11 H36_11 1_555 1_555
H37_11 C68_11 1_555 1_555
H38_11 C68_11 1_555 1_555
C67_12 H33_12 1_555 1_555
H34_12 C67_12 1_555 1_555
H35_12 C67_12 1_555 1_555
C68_12 H36_12 1_555 1_555
H37_12 C68_12 1_555 1_555
H38_12 C68_12 1_555 1_555
N2_12 C67_12 1_555 1_555
H39_12 N2_12 1_555 1_555
H40_12 N2_12 1_555 1_555
C68_12 N2_12 1_555 1_555
C67_13 H33_13 1_555 1_555
H34_13 C67_13 1_555 1_555
H35_13 C67_13 1_555 1_555
C68_13 H36_13 1_555 1_555
H37_13 C68_13 1_555 1_555
H38_13 C68_13 1_555 1_555
N2_13 C67_13 1_555 1_555
H39_13 N2_13 1_555 1_555
H40_13 N2_13 1_555 1_555
C68_13 N2_13 1_555 1_555
C67_14 H33_14 1_555 1_555
H34_14 C67_14 1_555 1_555
H35_14 C67_14 1_555 1_555
C68_14 H36_14 1_555 1_555
H37_14 C68_14 1_555 1_555
H38_14 C68_14 1_555 1_555
N2_14 C67_14 1_555 1_555
H39_14 N2_14 1_555 1_555
H40_14 N2_14 1_555 1_555
C68_14 N2_14 1_555 1_555
C67_15 H33_15 1_555 1_555
H34_15 C67_15 1_555 1_555
H35_15 C67_15 1_555 1_555
C68_15 H36_15 1_555 1_555
H37_15 C68_15 1_555 1_555
H38_15 C68_15 1_555 1_555
N2_15 C67_15 1_555 1_555
H39_15 N2_15 1_555 1_555
H40_15 N2_15 1_555 1_555
C68_15 N2_15 1_555 1_555
C67_16 H33_16 1_555 1_555
H34_16 C67_16 1_555 1_555
H35_16 C67_16 1_555 1_555
C68_16 H36_16 1_555 1_555
H37_16 C68_16 1_555 1_555
H38_16 C68_16 1_555 1_555
N2_16 C67_16 1_555 1_555
H39_16 N2_16 1_555 1_555
H40_16 N2_16 1_555 1_555
C68_16 N2_16 1_555 1_555
C67_17 H33_17 1_555 1_555
H34_17 C67_17 1_555 1_555
H35_17 C67_17 1_555 1_555
C68_17 H36_17 1_555 1_555
H37_17 C68_17 1_555 1_555
H38_17 C68_17 1_555 1_555
N2_17 C67_17 1_555 1_555
H39_17 N2_17 1_555 1_555
H40_17 N2_17 1_555 1_555
C68_17 N2_17 1_555 1_555
C67_18 H33_18 1_555 1_555
H34_18 C67_18 1_555 1_555
H35_18 C67_18 1_555 1_555
C68_18 H36_18 1_555 1_555
H37_18 C68_18 1_555 1_555
H38_18 C68_18 1_555 1_555
N2_18 C67_18 1_555 1_555
H39_18 N2_18 1_555 1_555
H40_18 N2_18 1_555 1_555
C68_18 N2_18 1_555 1_555
C67_19 H33_19 1_555 1_555
H34_19 C67_19 1_555 1_555
H35_19 C67_19 1_555 1_555
C68_19 H36_19 1_555 1_555
H37_19 C68_19 1_555 1_555
H38_19 C68_19 1_555 1_555
N2_19 C67_19 1_555 1_555
H39_19 N2_19 1_555 1_555
H40_19 N2_19 1_555 1_555
C68_19 N2_19 1_555 1_555
C67_20 H33_20 1_555 1_555
H34_20 C67_20 1_555 1_555
H35_20 C67_20 1_555 1_555
C68_20 H36_20 1_555 1_555
H37_20 C68_20 1_555 1_555
H38_20 C68_20 1_555 1_555
N2_20 C67_20 1_555 1_555
H39_20 N2_20 1_555 1_555
H40_20 N2_20 1_555 1_555
C68_20 N2_20 1_555 1_555
C67_21 H33_21 1_555 1_555
H34_21 C67_21 1_555 1_555
H35_21 C67_21 1_555 1_555
C68_21 H36_21 1_555 1_555
H37_21 C68_21 1_555 1_555
H38_21 C68_21 1_555 1_555
N2_21 C67_21 1_555 1_555
H39_21 N2_21 1_555 1_555
H40_21 N2_21 1_555 1_555
C68_21 N2_21 1_555 1_555
C67_22 H33_22 1_555 1_555
H34_22 C67_22 1_555 1_555
H35_22 C67_22 1_555 1_555
C68_22 H36_22 1_555 1_555
H37_22 C68_22 1_555 1_555
H38_22 C68_22 1_555 1_555
N2_22 C67_22 1_555 1_555
H39_22 N2_22 1_555 1_555
H40_22 N2_22 1_555 1_555
C68_22 N2_22 1_555 1_555
C67_23 H33_23 1_555 1_555
H34_23 C67_23 1_555 1_555
H35_23 C67_23 1_555 1_555
C68_23 H36_23 1_555 1_555
H37_23 C68_23 1_555 1_555
H38_23 C68_23 1_555 1_555
N2_23 C67_23 1_555 1_555
H39_23 N2_23 1_555 1_555
H40_23 N2_23 1_555 1_555
C68_23 N2_23 1_555 1_555
C67_24 H33_24 1_555 1_555
H34_24 C67_24 1_555 1_555
H35_24 C67_24 1_555 1_555
C68_24 H36_24 1_555 1_555
H37_24 C68_24 1_555 1_555
H38_24 C68_24 1_555 1_555
N2_24 C67_24 1_555 1_555
H39_24 N2_24 1_555 1_555
H40_24 N2_24 1_555 1_555
C68_24 N2_24 1_555 1_555
C67_25 H33_25 1_555 1_555
H34_25 C67_25 1_555 1_555
H35_25 C67_25 1_555 1_555
C68_25 H36_25 1_555 1_555
H37_25 C68_25 1_555 1_555
H38_25 C68_25 1_555 1_555
N2_25 C67_25 1_555 1_555
H39_25 N2_25 1_555 1_555
H40_25 N2_25 1_555 1_555
C68_25 N2_25 1_555 1_555
H39_26 N2_26 1_555 1_555
H40_26 N2_26 1_555 1_555
H34_26 C67_26 1_555 1_555
H35_26 C67_26 1_555 1_555
C68_26 H36_26 1_555 1_555
H37_26 C68_26 1_555 1_555
H38_26 C68_26 1_555 1_555
C67_27 H33_27 1_555 1_555
H34_27 C67_27 1_555 1_555
H35_27 C67_27 1_555 1_555
C68_27 H36_27 1_555 1_555
H37_27 C68_27 1_555 1_555
H38_27 C68_27 1_555 1_555
N2_27 C67_27 1_555 1_555
H39_27 N2_27 1_555 1_555
H40_27 N2_27 1_555 1_555
C68_27 N2_27 1_555 1_555
H34_28 C67_28 1_555 1_555
H35_28 C67_28 1_555 1_555
C68_28 H36_28 1_555 1_555
H37_28 C68_28 1_555 1_555
H38_28 C68_28 1_555 1_555
H39_28 N2_28 1_555 1_555
H40_28 N2_28 1_555 1_555
C67_29 H33_29 1_555 1_555
H34_29 C67_29 1_555 1_555
H35_29 C67_29 1_555 1_555
C68_29 H36_29 1_555 1_555
H37_29 C68_29 1_555 1_555
H38_29 C68_29 1_555 1_555
N2_29 C67_29 1_555 1_555
H39_29 N2_29 1_555 1_555
H40_29 N2_29 1_555 1_555
C68_29 N2_29 1_555 1_555
H39_30 N2_30 1_555 1_555
H40_30 N2_30 1_555 1_555
H34_30 C67_30 1_555 1_555
H35_30 C67_30 1_555 1_555
C68_30 H36_30 1_555 1_555
H37_30 C68_30 1_555 1_555
H38_30 C68_30 1_555 1_555
C67_31 H33_31 1_555 1_555
H34_31 C67_31 1_555 1_555
H35_31 C67_31 1_555 1_555
C68_31 H36_31 1_555 1_555
H37_31 C68_31 1_555 1_555
H38_31 C68_31 1_555 1_555
N2_31 C67_31 1_555 1_555
H39_31 N2_31 1_555 1_555
H40_31 N2_31 1_555 1_555
C68_31 N2_31 1_555 1_555
H34_32 C67_32 1_555 1_555
H35_32 C67_32 1_555 1_555
C68_32 H36_32 1_555 1_555
H37_32 C68_32 1_555 1_555
H38_32 C68_32 1_555 1_555
H39_32 N2_32 1_555 1_555
H40_32 N2_32 1_555 1_555
C67_33 H33_33 1_555 1_555
H34_33 C67_33 1_555 1_555
H35_33 C67_33 1_555 1_555
C68_33 H36_33 1_555 1_555
H37_33 C68_33 1_555 1_555
H38_33 C68_33 1_555 1_555
N2_33 C67_33 1_555 1_555
H39_33 N2_33 1_555 1_555
H40_33 N2_33 1_555 1_555
C68_33 N2_33 1_555 1_555
H39_34 N2_34 1_555 1_555
H40_34 N2_34 1_555 1_555
H34_34 C67_34 1_555 1_555
H35_34 C67_34 1_555 1_555
C68_34 H36_34 1_555 1_555
H37_34 C68_34 1_555 1_555
H38_34 C68_34 1_555 1_555
C67_35 H33_35 1_555 1_555
H34_35 C67_35 1_555 1_555
H35_35 C67_35 1_555 1_555
C68_35 H36_35 1_555 1_555
H37_35 C68_35 1_555 1_555
H38_35 C68_35 1_555 1_555
N2_35 C67_35 1_555 1_555
H39_35 N2_35 1_555 1_555
H40_35 N2_35 1_555 1_555
C68_35 N2_35 1_555 1_555
H34_36 C67_36 1_555 1_555
H35_36 C67_36 1_555 1_555
C68_36 H36_36 1_555 1_555
H37_36 C68_36 1_555 1_555
H38_36 C68_36 1_555 1_555
H39_36 N2_36 1_555 1_555
H40_36 N2_36 1_555 1_555
C67_37 H33_37 1_555 1_555
H34_37 C67_37 1_555 1_555
H35_37 C67_37 1_555 1_555
C68_37 H36_37 1_555 1_555
H37_37 C68_37 1_555 1_555
H38_37 C68_37 1_555 1_555
N2_37 C67_37 1_555 1_555
H39_37 N2_37 1_555 1_555
H40_37 N2_37 1_555 1_555
C68_37 N2_37 1_555 1_555
C67_38 H33_38 1_555 1_555
H34_38 C67_38 1_555 1_555
H35_38 C67_38 1_555 1_555
C68_38 H36_38 1_555 1_555
H37_38 C68_38 1_555 1_555
H38_38 C68_38 1_555 1_555
N2_38 C67_38 1_555 1_555
H39_38 N2_38 1_555 1_555
H40_38 N2_38 1_555 1_555
C68_38 N2_38 1_555 1_555
C67_39 H33_39 1_555 1_555
H34_39 C67_39 1_555 1_555
H35_39 C67_39 1_555 1_555
C68_39 H36_39 1_555 1_555
H37_39 C68_39 1_555 1_555
H38_39 C68_39 1_555 1_555
N2_39 C67_39 1_555 1_555
H39_39 N2_39 1_555 1_555
H40_39 N2_39 1_555 1_555
C68_39 N2_39 1_555 1_555
C67_40 H33_40 1_555 1_555
H34_40 C67_40 1_555 1_555
H35_40 C67_40 1_555 1_555
C68_40 H36_40 1_555 1_555
H37_40 C68_40 1_555 1_555
H38_40 C68_40 1_555 1_555
N2_40 C67_40 1_555 1_555
H39_40 N2_40 1_555 1_555
H40_40 N2_40 1_555 1_555
C68_40 N2_40 1_555 1_555
C67_41 H33_41 1_555 1_555
H34_41 C67_41 1_555 1_555
H35_41 C67_41 1_555 1_555
C68_41 H36_41 1_555 1_555
H37_41 C68_41 1_555 1_555
H38_41 C68_41 1_555 1_555
N2_41 C67_41 1_555 1_555
H39_41 N2_41 1_555 1_555
H40_41 N2_41 1_555 1_555
C68_41 N2_41 1_555 1_555
C67_42 H33_42 1_555 1_555
H34_42 C67_42 1_555 1_555
H35_42 C67_42 1_555 1_555
C68_42 H36_42 1_555 1_555
H37_42 C68_42 1_555 1_555
H38_42 C68_42 1_555 1_555
N2_42 C67_42 1_555 1_555
H39_42 N2_42 1_555 1_555
H40_42 N2_42 1_555 1_555
C68_42 N2_42 1_555 1_555
C67_43 H33_43 1_555 1_555
H34_43 C67_43 1_555 1_555
H35_43 C67_43 1_555 1_555
C68_43 H36_43 1_555 1_555
H37_43 C68_43 1_555 1_555
H38_43 C68_43 1_555 1_555
N2_43 C67_43 1_555 1_555
H39_43 N2_43 1_555 1_555
H40_43 N2_43 1_555 1_555
C68_43 N2_43 1_555 1_555
C67_44 H33_44 1_555 1_555
H34_44 C67_44 1_555 1_555
H35_44 C67_44 1_555 1_555
C68_44 H36_44 1_555 1_555
H37_44 C68_44 1_555 1_555
H38_44 C68_44 1_555 1_555
N2_44 C67_44 1_555 1_555
H39_44 N2_44 1_555 1_555
H40_44 N2_44 1_555 1_555
C68_44 N2_44 1_555 1_555
C67_45 H33_45 1_555 1_555
H34_45 C67_45 1_555 1_555
H35_45 C67_45 1_555 1_555
C68_45 H36_45 1_555 1_555
H37_45 C68_45 1_555 1_555
H38_45 C68_45 1_555 1_555
N2_45 C67_45 1_555 1_555
H39_45 N2_45 1_555 1_555
H40_45 N2_45 1_555 1_555
C68_45 N2_45 1_555 1_555
C67_46 H33_46 1_555 1_555
H34_46 C67_46 1_555 1_555
H35_46 C67_46 1_555 1_555
C68_46 H36_46 1_555 1_555
H37_46 C68_46 1_555 1_555
H38_46 C68_46 1_555 1_555
N2_46 C67_46 1_555 1_555
H39_46 N2_46 1_555 1_555
H40_46 N2_46 1_555 1_555
C68_46 N2_46 1_555 1_555
C67_47 H33_47 1_555 1_555
H34_47 C67_47 1_555 1_555
H35_47 C67_47 1_555 1_555
C68_47 H36_47 1_555 1_555
H37_47 C68_47 1_555 1_555
H38_47 C68_47 1_555 1_555
N2_47 C67_47 1_555 1_555
H39_47 N2_47 1_555 1_555
H40_47 N2_47 1_555 1_555
C68_47 N2_47 1_555 1_555
C67_48 H33_48 1_555 1_555
H34_48 C67_48 1_555 1_555
H35_48 C67_48 1_555 1_555
C68_48 H36_48 1_555 1_555
H37_48 C68_48 1_555 1_555
H38_48 C68_48 1_555 1_555
N2_48 C67_48 1_555 1_555
H39_48 N2_48 1_555 1_555
H40_48 N2_48 1_555 1_555
C68_48 N2_48 1_555 1_555

#END
