
###############################################################################
#
# This file contains modified crystal structure data generated from the
# MOF subset of the Cambridge Structural Database (CSD) v543 
# hosted by the Cambridge Crystallographic Data Centre (CCDC).
#
# This work is licensed under the Creative Commons
# Attribution-NonCommercial-ShareAlike 4.0 International License.
# To view a copy of this license, visit
# http://creativecommons.org/licenses/by-nc-sa/4.0/
# or send a letter to
# Creative Commons, PO Box 1866, Mountain View, CA 94042, USA.
#
# CIF created using the CSD Python API on 29 September 2022
# The structure has been converted into the P1 space group
# The structure has a 3D framework
# The original CSD entry QAVBUL is in the rhombohedral crystal system
# The original CSD entry QAVBUL is in a Sohncke space group
# The framework has been calculated to contain at least 10.0% void space
# The void calculation uses a probe of radius 1.32A, grid spacing 0.4
# H atom positions have been added when not included in the experimental data
# Generated hydrogen atom positions removed from atoms on special positions
#
###############################################################################

data_QAVBUL
_chemical_formula_moiety         '(C253 H173 O66 Tb16)n'
_symmetry_cell_setting           triclinic
_symmetry_space_group_name_H-M   'P 1'
_symmetry_Int_Tables_number      1
_space_group_name_Hall           'P 1'
loop_
_symmetry_equiv_pos_site_id
_symmetry_equiv_pos_as_xyz
1 x,y,z
_cell_length_a                   28.5344(8)
_cell_length_b                   28.5344(8)
_cell_length_c                   12.2148(5)
_cell_angle_alpha                90
_cell_angle_beta                 90
_cell_angle_gamma                120.00
_cell_volume                     8613
loop_
_atom_site_label
_atom_site_type_symbol
_atom_site_fract_x
_atom_site_fract_y
_atom_site_fract_z
Tb1 Tb 0.344180(6) 0.010846(6) 0.3333
O1 O 0.31930(8) 0.06930(7) 0.25274(16)
O2 O 0.04295(6) 0.31906(6) 0.16358(13)
O3 O 0.08329(6) 0.38600(7) 0.28140(14)
O4 O 0.42939(10) 0.09605(10) 0.3333
C1 C 0.3333 0.09651(14) 0.1667
C2 C 0.3333 0.14994(15) 0.1667
C3 C 0.29961(11) 0.15703(10) 0.2369(2)
H1 H 0.2779 0.1303 0.2867
C4 C 0.29902(11) 0.20502(10) 0.2311(3)
H2 H 0.2741 0.2090 0.2732
C5 C 0.3333 0.24627(15) 0.1667
C6 C 0.3333 0.29962(14) 0.1667
C7 C 0.28521(10) 0.30086(11) 0.1747(2)
H3 H 0.2527 0.2684 0.1803
C8 C 0.28427(10) 0.34885(10) 0.1744(2)
C9 C 0.3333 0.39752(14) 0.1667
H4 H 0.3333 0.4301 0.1667
C10 C 0.23262(9) 0.34915(10) 0.1836(2)
C11 C 0.18488(10) 0.30997(11) 0.1373(3)
H5 H 0.1844 0.2810 0.1014
C12 C 0.13826(10) 0.31235(10) 0.1423(2)
H6 H 0.1070 0.2856 0.1088
C13 C 0.13740(10) 0.35489(10) 0.1977(2)
C14 C 0.18449(10) 0.39419(11) 0.2455(2)
H7 H 0.1845 0.4227 0.2822
C15 C 0.23104(11) 0.39206(10) 0.2402(2)
H8 H 0.2622 0.4189 0.2738
C16 C 0.08595(10) 0.35457(10) 0.2135(2)
Tb3 Tb 0.000001(8) 0.322487(6) 0.0000
Tb4 Tb 0.322487(6) -0.000001(8) 0.0000
Tb5 Tb 0.666666(8) 0.655820(6) 0.3333
Tb6 Tb 0.677513(6) 0.677513(6) 0.0000
O5 O 0.34737(8) 0.08333(11) 0.08059(16)
O7 O 0.62372(6) 0.60944(8) 0.16975(13)
O9 O 0.34761(6) 0.05722(8) 0.49691(13)
O10 O 0.39056(8) 0.01427(6) 0.16975(13)
O12 O 0.58338(6) 0.63604(9) 0.05193(14)
C17 C 0.36706(11) 0.19075(15) 0.0964(2)
H9 H 0.3888 0.1857 0.0466
C18 C 0.36765(11) 0.23933(15) 0.1022(3)
H10 H 0.3926 0.2682 0.0601
C19 C 0.38146(10) 0.34898(15) 0.1586(2)
H11 H 0.4140 0.3490 0.1530
C20 C 0.38240(10) 0.39791(14) 0.1589(2)
C21 C 0.43405(9) 0.44986(13) 0.1497(2)
C22 C 0.48179(10) 0.45842(15) 0.1960(3)
H12 H 0.4823 0.4299 0.2319
C23 C 0.52841(10) 0.50742(14) 0.1910(2)
H13 H 0.5597 0.5119 0.2245
C24 C 0.52927(10) 0.55082(14) 0.1356(2)
C25 C 0.48218(10) 0.54303(15) 0.0878(2)
H14 H 0.4822 0.5715 0.0511
C26 C 0.43563(11) 0.49435(15) 0.0931(2)
H15 H 0.4045 0.4900 0.0595
C27 C 0.58072(10) 0.60195(14) 0.1198(2)
Tb3_2 Tb 0.000001(8) 0.322487(6) 1.0000
Tb4_2 Tb 0.322487(6) -0.000001(8) 1.0000
Tb6_2 Tb 0.677513(6) 0.677513(6) 1.0000
Tb4_3 Tb 0.322487(6) 0.999999(8) 0.0000
O6 O 0.40263(7) 0.98597(8) 0.41393(16)
O8 O 0.27611(8) 0.95705(6) 0.16358(13)
O11 O 0.29038(6) 0.94278(8) 0.50309(13)
O13 O 0.30271(9) 0.91671(6) 0.28140(14)
O14 O 0.25004(6) 0.96938(9) 0.38527(14)
Tb4_4 Tb 0.322487(6) 0.999999(8) 1.0000
Tb2 Tb 0.989154(6) 0.333334(8) 0.3333
Tb3_3 Tb 1.000001(8) 0.322487(6) 0.0000
Tb3_4 Tb 1.000001(8) 0.322487(6) 1.0000
O6_2 O 0.01403(8) 0.41667(11) 0.41393(16)
O11_2 O 0.05722(8) 0.34761(10) 0.50309(13)
O14_2 O 0.03062(9) 0.28067(11) 0.38527(14)
O1_2 O 0.93070(7) 0.25000(11) 0.25274(16)
O4_2 O 0.90395(10) 0.33334(14) 0.3333
C1_2 C 0.90349(14) 0.23679(14) 0.1667
C2_2 C 0.85006(15) 0.18336(15) 0.1667
C3_2 C 0.84297(10) 0.14258(15) 0.2369(2)
H1_2 H 0.8697 0.1476 0.2867
C4_2 C 0.79498(10) 0.09400(15) 0.2311(3)
H2_2 H 0.7910 0.0651 0.2732
C5_2 C 0.75373(15) 0.08703(15) 0.1667
C6_2 C 0.70038(14) 0.03368(14) 0.1667
O5_2 O 0.91667(11) 0.26403(14) 0.08059(16)
O9_2 O 0.94278(8) 0.29038(10) 0.49691(13)
O10_2 O 0.98573(6) 0.37628(10) 0.16975(13)
C17_2 C 0.80925(15) 0.17630(19) 0.0964(2)
H9_2 H 0.8143 0.2030 0.0466
C18_2 C 0.76067(15) 0.12831(19) 0.1022(3)
H10_2 H 0.7318 0.1243 0.0601
C19_2 C 0.65102(15) 0.03247(18) 0.1586(2)
H11_2 H 0.6510 0.0649 0.1530
C22_2 C 0.54158(15) 0.02336(18) 0.1960(3)
H12_2 H 0.5701 0.0523 0.2319
C23_2 C 0.49258(14) 0.02098(17) 0.1910(2)
H13_2 H 0.4881 0.0477 0.2245
O2_2 O 0.68094(6) 0.72389(8) 0.16358(13)
O3_2 O 0.61400(7) 0.69729(9) 0.28140(14)
C7_2 C 0.69914(11) 0.98435(15) 0.1747(2)
H3_2 H 0.7316 0.9843 0.1803
C8_2 C 0.65115(10) 0.93542(14) 0.1744(2)
C9_2 C 0.60248(14) 0.93578(14) 0.1667
H4_2 H 0.5699 0.9032 0.1667
C10_2 C 0.65085(10) 0.88347(13) 0.1836(2)
C11_2 C 0.69003(11) 0.87491(15) 0.1373(3)
H5_2 H 0.7190 0.9034 0.1014
C12_2 C 0.68765(10) 0.82591(14) 0.1423(2)
H6_2 H 0.7144 0.8214 0.1088
C13_2 C 0.64511(10) 0.78251(14) 0.1977(2)
C14_2 C 0.60581(11) 0.79030(15) 0.2455(2)
H7_2 H 0.5773 0.7618 0.2822
C15_2 C 0.60794(10) 0.83898(15) 0.2402(2)
H8_2 H 0.5811 0.8433 0.2738
C16_2 C 0.64543(10) 0.73138(14) 0.2135(2)
O12_2 O 0.36396(9) 0.94733(11) 0.05193(14)
C20_2 C 0.60209(14) 0.98448(17) 0.1589(2)
C21_2 C 0.55014(13) 0.98418(16) 0.1497(2)
C24_2 C 0.44918(14) 0.97844(17) 0.1356(2)
C25_2 C 0.45697(15) 0.93914(18) 0.0878(2)
H14_2 H 0.4285 0.9106 0.0511
C26_2 C 0.50565(15) 0.94127(19) 0.0931(2)
H15_2 H 0.5100 0.9144 0.0595
C27_2 C 0.39805(14) 0.97876(17) 0.1198(2)
C7_3 C 0.01565(15) 0.71479(10) 0.1747(2)
H3_3 H 0.0157 0.7473 0.1803
C8_3 C 0.06458(14) 0.71573(10) 0.1744(2)
C9_3 C 0.06422(14) 0.6667 0.1667
H4_3 H 0.0968 0.6667 0.1667
C10_3 C 0.11653(13) 0.76738(9) 0.1836(2)
C11_3 C 0.12509(15) 0.81512(10) 0.1373(3)
H5_3 H 0.0966 0.8156 0.1014
C12_3 C 0.17409(14) 0.86174(10) 0.1423(2)
H6_3 H 0.1786 0.8930 0.1088
C13_3 C 0.21749(14) 0.86260(10) 0.1977(2)
C14_3 C 0.20970(15) 0.81551(10) 0.2455(2)
H7_3 H 0.2382 0.8155 0.2822
C15_3 C 0.16102(15) 0.76896(11) 0.2402(2)
H8_3 H 0.1567 0.7378 0.2738
C16_3 C 0.26862(14) 0.91405(10) 0.2135(2)
O12_3 O 0.05267(11) 0.41662(6) 0.05193(14)
C20_3 C 0.01552(17) 0.61760(10) 0.1589(2)
C21_3 C 0.01582(16) 0.56595(9) 0.1497(2)
C24_3 C 0.02156(17) 0.47073(10) 0.1356(2)
C25_3 C 0.06086(18) 0.51782(10) 0.0878(2)
H14_3 H 0.0894 0.5178 0.0511
C26_3 C 0.05873(19) 0.56437(11) 0.0931(2)
H15_3 H 0.0856 0.5955 0.0595
C27_3 C 0.02124(17) 0.41928(10) 0.1198(2)
O1_3 O 0.75000(11) 0.68070(8) 0.25274(16)
O4_3 O 0.66666(14) 0.57061(10) 0.3333
C1_3 C 0.76321(14) 0.6667 0.1667
C2_3 C 0.81664(15) 0.6667 0.1667
C3_3 C 0.85742(15) 0.70039(11) 0.2369(2)
H1_3 H 0.8524 0.7221 0.2867
C4_3 C 0.90600(15) 0.70098(11) 0.2311(3)
H2_3 H 0.9349 0.7259 0.2732
C5_3 C 0.91297(15) 0.6667 0.1667
C6_3 C 0.96632(14) 0.6667 0.1667
O5_3 O 0.73597(14) 0.65263(8) 0.08059(16)
O6_3 O 0.58333(11) 0.59737(7) 0.41393(16)
O9_3 O 0.70962(10) 0.65239(6) 0.49691(13)
O11_3 O 0.65239(10) 0.70962(6) 0.50309(13)
O14_3 O 0.71933(11) 0.74996(6) 0.38527(14)
C17_3 C 0.82370(19) 0.63294(11) 0.0964(2)
H9_3 H 0.7970 0.6112 0.0466
C18_3 C 0.87169(19) 0.63235(11) 0.1022(3)
H10_3 H 0.8757 0.6074 0.0601
C19_3 C 0.96753(18) 0.61854(10) 0.1586(2)
H11_3 H 0.9351 0.5860 0.1530
C22_3 C 0.97664(18) 0.51821(10) 0.1960(3)
H12_3 H 0.9477 0.5177 0.2319
C23_3 C 0.97902(17) 0.47159(10) 0.1910(2)
H13_3 H 0.9523 0.4403 0.2245
Tb1_2 Tb 0.010846(6) 0.344180(6) 0.6667
O1_4 O 0.06930(7) 0.31930(8) 0.74726(16)
O2_3 O 0.31906(6) 0.04295(6) 0.83642(13)
O3_3 O 0.38600(7) 0.08329(6) 0.71860(14)
O4_4 O 0.09605(10) 0.42939(10) 0.6667
C1_4 C 0.09651(14) 0.3333 0.8333
C2_4 C 0.14994(15) 0.3333 0.8333
C3_4 C 0.15703(10) 0.29961(11) 0.7631(2)
H1_4 H 0.1303 0.2779 0.7133
C4_4 C 0.20502(10) 0.29902(11) 0.7689(3)
H2_4 H 0.2090 0.2741 0.7268
C5_4 C 0.24627(15) 0.3333 0.8333
C6_4 C 0.29962(14) 0.3333 0.8333
C7_4 C 0.30086(11) 0.28521(10) 0.8253(2)
H3_4 H 0.2684 0.2527 0.8197
C8_4 C 0.34885(10) 0.28427(10) 0.8256(2)
C9_4 C 0.39752(14) 0.3333 0.8333
H4_4 H 0.4301 0.3333 0.8333
C10_4 C 0.34915(10) 0.23262(9) 0.8164(2)
C11_4 C 0.30997(11) 0.18488(10) 0.8627(3)
H5_4 H 0.2810 0.1844 0.8986
C12_4 C 0.31235(10) 0.13826(10) 0.8577(2)
H6_4 H 0.2856 0.1070 0.8912
C13_4 C 0.35489(10) 0.13740(10) 0.8023(2)
C14_4 C 0.39419(11) 0.18449(10) 0.7545(2)
H7_4 H 0.4227 0.1845 0.7178
C15_4 C 0.39206(10) 0.23104(11) 0.7598(2)
H8_4 H 0.4189 0.2622 0.7262
C16_4 C 0.35457(10) 0.08595(10) 0.7865(2)
Tb5_2 Tb 0.655820(6) 0.666666(8) 0.6667
O5_4 O 0.08333(11) 0.34737(8) 0.91941(16)
O7_2 O 0.60944(8) 0.62372(6) 0.83025(13)
O10_3 O 0.01427(6) 0.39056(8) 0.83025(13)
O12_4 O 0.63604(9) 0.58338(6) 0.94807(14)
C17_4 C 0.19075(15) 0.36706(11) 0.9036(2)
H9_4 H 0.1857 0.3888 0.9534
C18_4 C 0.23933(15) 0.36765(11) 0.8978(3)
H10_4 H 0.2682 0.3926 0.9399
C19_4 C 0.34898(15) 0.38146(10) 0.8414(2)
H11_4 H 0.3490 0.4140 0.8470
C20_4 C 0.39791(14) 0.38240(10) 0.8411(2)
C21_4 C 0.44986(13) 0.43405(9) 0.8503(2)
C22_4 C 0.45842(15) 0.48179(10) 0.8040(3)
H12_4 H 0.4299 0.4823 0.7681
C23_4 C 0.50742(14) 0.52841(10) 0.8090(2)
H13_4 H 0.5119 0.5597 0.7755
C24_4 C 0.55082(14) 0.52927(10) 0.8644(2)
C25_4 C 0.54303(15) 0.48218(10) 0.9122(2)
H14_4 H 0.5715 0.4822 0.9489
C26_4 C 0.49435(15) 0.43563(11) 0.9069(2)
H15_4 H 0.4900 0.4045 0.9405
C27_4 C 0.60195(14) 0.58072(10) 0.8802(2)
Tb2_2 Tb 0.333334(8) 0.989154(6) 0.6667
O6_4 O 0.98597(8) 0.40263(7) 0.58607(16)
O8_2 O 0.95705(6) 0.27611(8) 0.83642(13)
O13_2 O 0.91671(6) 0.30271(9) 0.71860(14)
O14_4 O 0.96938(9) 0.25004(6) 0.61473(14)
O6_5 O 0.41667(11) 0.01403(8) 0.58607(16)
O14_5 O 0.28067(11) 0.03062(9) 0.61473(14)
O1_5 O 0.25000(11) 0.93070(7) 0.74726(16)
O4_5 O 0.33334(14) 0.90395(10) 0.6667
C1_5 C 0.23679(14) 0.90349(14) 0.8333
C2_5 C 0.18336(15) 0.85006(15) 0.8333
C3_5 C 0.14258(15) 0.84297(10) 0.7631(2)
H1_5 H 0.1476 0.8697 0.7133
C4_5 C 0.09400(15) 0.79498(10) 0.7689(3)
H2_5 H 0.0651 0.7910 0.7268
C5_5 C 0.08703(15) 0.75373(15) 0.8333
C6_5 C 0.03368(14) 0.70038(14) 0.8333
O5_5 O 0.26403(14) 0.91667(11) 0.91941(16)
O10_4 O 0.37628(10) 0.98573(6) 0.83025(13)
C17_5 C 0.17630(19) 0.80925(15) 0.9036(2)
H9_5 H 0.2030 0.8143 0.9534
C18_5 C 0.12831(19) 0.76067(15) 0.8978(3)
H10_5 H 0.1243 0.7318 0.9399
C19_5 C 0.03247(18) 0.65102(15) 0.8414(2)
H11_5 H 0.0649 0.6510 0.8470
C22_5 C 0.02336(18) 0.54158(15) 0.8040(3)
H12_5 H 0.0523 0.5701 0.7681
C23_5 C 0.02098(17) 0.49258(14) 0.8090(2)
H13_5 H 0.0477 0.4881 0.7755
O2_4 O 0.72389(8) 0.68094(6) 0.83642(13)
O3_4 O 0.69729(9) 0.61400(7) 0.71860(14)
C7_5 C 0.98435(15) 0.69914(11) 0.8253(2)
H3_5 H 0.9843 0.7316 0.8197
C8_5 C 0.93542(14) 0.65115(10) 0.8256(2)
C9_5 C 0.93578(14) 0.60248(14) 0.8333
H4_5 H 0.9032 0.5699 0.8333
C10_5 C 0.88347(13) 0.65085(10) 0.8164(2)
C11_5 C 0.87491(15) 0.69003(11) 0.8627(3)
H5_5 H 0.9034 0.7190 0.8986
C12_5 C 0.82591(14) 0.68765(10) 0.8577(2)
H6_5 H 0.8214 0.7144 0.8912
C13_5 C 0.78251(14) 0.64511(10) 0.8023(2)
C14_5 C 0.79030(15) 0.60581(11) 0.7545(2)
H7_5 H 0.7618 0.5773 0.7178
C15_5 C 0.83898(15) 0.60794(10) 0.7598(2)
H8_5 H 0.8433 0.5811 0.7262
C16_5 C 0.73138(14) 0.64543(10) 0.7865(2)
O12_5 O 0.94733(11) 0.36396(9) 0.94807(14)
C20_5 C 0.98448(17) 0.60209(14) 0.8411(2)
C21_5 C 0.98418(16) 0.55014(13) 0.8503(2)
C24_5 C 0.97844(17) 0.44918(14) 0.8644(2)
C25_5 C 0.93914(18) 0.45697(15) 0.9122(2)
H14_5 H 0.9106 0.4285 0.9489
C26_5 C 0.94127(19) 0.50565(15) 0.9069(2)
H15_5 H 0.9144 0.5100 0.9405
C27_5 C 0.97876(17) 0.39805(14) 0.8802(2)
C7_6 C 0.71479(10) 0.01565(15) 0.8253(2)
H3_6 H 0.7473 0.0157 0.8197
C8_6 C 0.71573(10) 0.06458(14) 0.8256(2)
C9_6 C 0.6667 0.06422(14) 0.8333
H4_6 H 0.6667 0.0968 0.8333
C10_6 C 0.76738(9) 0.11653(13) 0.8164(2)
C11_6 C 0.81512(10) 0.12509(15) 0.8627(3)
H5_6 H 0.8156 0.0966 0.8986
C12_6 C 0.86174(10) 0.17409(14) 0.8577(2)
H6_6 H 0.8930 0.1786 0.8912
C13_6 C 0.86260(10) 0.21749(14) 0.8023(2)
C14_6 C 0.81551(10) 0.20970(15) 0.7545(2)
H7_6 H 0.8155 0.2382 0.7178
C15_6 C 0.76896(11) 0.16102(15) 0.7598(2)
H8_6 H 0.7378 0.1567 0.7262
C16_6 C 0.91405(10) 0.26862(14) 0.7865(2)
O12_6 O 0.41662(6) 0.05267(11) 0.94807(14)
C20_6 C 0.61760(10) 0.01552(17) 0.8411(2)
C21_6 C 0.56595(9) 0.01582(16) 0.8503(2)
C24_6 C 0.47073(10) 0.02156(17) 0.8644(2)
C25_6 C 0.51782(10) 0.06086(18) 0.9122(2)
H14_6 H 0.5178 0.0894 0.9489
C26_6 C 0.56437(11) 0.05873(19) 0.9069(2)
H15_6 H 0.5955 0.0856 0.9405
C27_6 C 0.41928(10) 0.02124(17) 0.8802(2)
O1_6 O 0.68070(8) 0.75000(11) 0.74726(16)
O4_6 O 0.57061(10) 0.66666(14) 0.6667
C1_6 C 0.6667 0.76321(14) 0.8333
C2_6 C 0.6667 0.81664(15) 0.8333
C3_6 C 0.70039(11) 0.85742(15) 0.7631(2)
H1_6 H 0.7221 0.8524 0.7133
C4_6 C 0.70098(11) 0.90600(15) 0.7689(3)
H2_6 H 0.7259 0.9349 0.7268
C5_6 C 0.6667 0.91297(15) 0.8333
C6_6 C 0.6667 0.96632(14) 0.8333
O5_6 O 0.65263(8) 0.73597(14) 0.91941(16)
O6_6 O 0.59737(7) 0.58333(11) 0.58607(16)
O14_6 O 0.74996(6) 0.71933(11) 0.61473(14)
C17_6 C 0.63294(11) 0.82370(19) 0.9036(2)
H9_6 H 0.6112 0.7970 0.9534
C18_6 C 0.63235(11) 0.87169(19) 0.8978(3)
H10_6 H 0.6074 0.8757 0.9399
C19_6 C 0.61854(10) 0.96753(18) 0.8414(2)
H11_6 H 0.5860 0.9351 0.8470
C22_6 C 0.51821(10) 0.97664(18) 0.8040(3)
H12_6 H 0.5177 0.9477 0.7681
C23_6 C 0.47159(10) 0.97902(17) 0.8090(2)
H13_6 H 0.4403 0.9523 0.7755
C1_7 C -0.0000 0.42984(14) 0.5000
C2_7 C -0.0000 0.48327(15) 0.5000
C5_7 C -0.0000 0.57960(15) 0.5000
C6_7 C -0.0000 0.63295(14) 0.5000
C9_7 C -0.0000 0.73085(14) 0.5000
H4_7 H -0.0000 0.7634 0.5000
C17_7 C 0.03372(11) 0.52409(15) 0.4298(2)
H9_7 H 0.0554 0.5191 0.3800
C18_7 C 0.03431(11) 0.57267(15) 0.4356(3)
H10_7 H 0.0592 0.6016 0.3935
C19_7 C 0.04812(10) 0.68232(15) 0.4920(2)
H11_7 H 0.0806 0.6824 0.4864
C20_7 C 0.04906(10) 0.73125(14) 0.4923(2)
C21_7 C 0.10071(9) 0.78320(13) 0.4831(2)
C22_7 C 0.14845(10) 0.79176(15) 0.5294(3)
H12_7 H 0.1489 0.7633 0.5653
C23_7 C 0.19507(10) 0.84076(14) 0.5244(2)
H13_7 H 0.2263 0.8453 0.5579
C24_7 C 0.19593(10) 0.88416(14) 0.4690(2)
C25_7 C 0.14884(10) 0.87637(15) 0.4212(2)
H14_7 H 0.1488 0.9049 0.3845
C26_7 C 0.10229(11) 0.82769(15) 0.4265(2)
H15_7 H 0.0711 0.8234 0.3929
C27_7 C 0.24738(10) 0.93529(14) 0.4532(2)
C1_8 C 1.0000 0.42984(14) 0.5000
C2_8 C 1.0000 0.48327(15) 0.5000
C3_7 C 0.96628(11) 0.49036(10) 0.5702(2)
H1_7 H 0.9446 0.4636 0.6200
C4_7 C 0.96569(11) 0.53835(10) 0.5644(3)
H2_7 H 0.9408 0.5423 0.6065
C5_8 C 1.0000 0.57960(15) 0.5000
C6_8 C 1.0000 0.63295(14) 0.5000
C7_7 C 0.95188(10) 0.63419(11) 0.5080(2)
H3_7 H 0.9194 0.6017 0.5136
C8_7 C 0.95094(10) 0.68218(10) 0.5077(2)
C9_8 C 1.0000 0.73085(14) 0.5000
H4_8 H 1.0000 0.7634 0.5000
C10_7 C 0.89929(9) 0.68248(10) 0.5169(2)
C11_7 C 0.85155(10) 0.64330(11) 0.4706(3)
H5_7 H 0.8511 0.6143 0.4347
C12_7 C 0.80493(10) 0.64568(10) 0.4756(2)
H6_7 H 0.7737 0.6189 0.4421
C13_7 C 0.80407(10) 0.68822(10) 0.5310(2)
C14_7 C 0.85116(10) 0.72752(11) 0.5788(2)
H7_7 H 0.8512 0.7560 0.6155
C15_7 C 0.89771(11) 0.72539(10) 0.5735(2)
H8_7 H 0.9289 0.7522 0.6071
C16_7 C 0.75262(10) 0.68790(10) 0.5468(2)
C1_9 C 0.57016(14) 0.57012(14) 0.5000
C2_9 C 0.51673(15) 0.51669(15) 0.5000
C3_8 C 0.50964(10) 0.47591(15) 0.5702(2)
H1_8 H 0.5364 0.4809 0.6200
C4_8 C 0.46165(10) 0.42733(15) 0.5644(3)
H2_8 H 0.4577 0.3984 0.6065
C5_9 C 0.42040(15) 0.42036(15) 0.5000
C6_9 C 0.36705(14) 0.36701(14) 0.5000
C7_8 C 0.36581(11) 0.31768(15) 0.5080(2)
H3_8 H 0.3983 0.3176 0.5136
C8_8 C 0.31782(10) 0.26875(14) 0.5077(2)
C9_9 C 0.26915(14) 0.26911(14) 0.5000
H4_9 H 0.2366 0.2365 0.5000
C10_8 C 0.31752(10) 0.21680(13) 0.5169(2)
C11_8 C 0.35670(11) 0.20824(15) 0.4706(3)
H5_8 H 0.3857 0.2367 0.4347
C12_8 C 0.35432(10) 0.15924(14) 0.4756(2)
H6_8 H 0.3811 0.1547 0.4421
C13_8 C 0.31178(10) 0.11584(14) 0.5310(2)
C14_8 C 0.27248(11) 0.12363(15) 0.5788(2)
H7_8 H 0.2440 0.0951 0.6155
C15_8 C 0.27461(10) 0.17231(15) 0.5735(2)
H8_8 H 0.2478 0.1766 0.6071
C16_8 C 0.31210(10) 0.06471(14) 0.5468(2)
C17_8 C 0.47591(15) 0.50964(19) 0.4298(2)
H9_8 H 0.4809 0.5364 0.3800
C18_8 C 0.42733(15) 0.46165(19) 0.4356(3)
H10_8 H 0.3984 0.4577 0.3935
C19_8 C 0.31768(15) 0.36581(18) 0.4920(2)
H11_8 H 0.3176 0.3983 0.4864
C20_8 C 0.26875(14) 0.31782(17) 0.4923(2)
C21_8 C 0.21680(13) 0.31752(16) 0.4831(2)
C22_8 C 0.20824(15) 0.35670(18) 0.5294(3)
H12_8 H 0.2367 0.3857 0.5653
C23_8 C 0.15924(14) 0.35432(17) 0.5244(2)
H13_8 H 0.1547 0.3811 0.5579
C24_8 C 0.11584(14) 0.31178(17) 0.4690(2)
C25_8 C 0.12363(15) 0.27248(18) 0.4212(2)
H14_8 H 0.0951 0.2440 0.3845
C26_8 C 0.17231(15) 0.27461(19) 0.4265(2)
H15_8 H 0.1766 0.2478 0.3929
C27_8 C 0.06471(14) 0.31210(17) 0.4532(2)
C1_10 C 0.42988(14) 0.0000 0.5000
C2_10 C 0.48331(15) 0.0000 0.5000
C3_9 C 0.52409(15) 0.03372(11) 0.5702(2)
H1_9 H 0.5191 0.0554 0.6200
C4_9 C 0.57267(15) 0.03431(11) 0.5644(3)
H2_9 H 0.6016 0.0592 0.6065
C5_10 C 0.57964(15) 0.0000 0.5000
C6_10 C 0.63299(14) 0.0000 0.5000
C7_9 C 0.68232(15) 0.04812(10) 0.5080(2)
H3_9 H 0.6824 0.0806 0.5136
C8_9 C 0.73125(14) 0.04906(10) 0.5077(2)
C9_10 C 0.73089(14) 0.0000 0.5000
H4_10 H 0.7635 0.0000 0.5000
C10_9 C 0.78320(13) 0.10071(9) 0.5169(2)
C11_9 C 0.79176(15) 0.14845(10) 0.4706(3)
H5_9 H 0.7633 0.1489 0.4347
C12_9 C 0.84076(14) 0.19507(10) 0.4756(2)
H6_9 H 0.8453 0.2263 0.4421
C13_9 C 0.88416(14) 0.19593(10) 0.5310(2)
C14_9 C 0.87637(15) 0.14884(10) 0.5788(2)
H7_9 H 0.9049 0.1488 0.6155
C15_9 C 0.82769(15) 0.10229(11) 0.5735(2)
H8_9 H 0.8234 0.0711 0.6071
C16_9 C 0.93529(14) 0.24738(10) 0.5468(2)
C1_11 C 0.42988(14) 1.0000 0.5000
C2_11 C 0.48331(15) 1.0000 0.5000
C5_11 C 0.57964(15) 1.0000 0.5000
C6_11 C 0.63299(14) 1.0000 0.5000
C9_11 C 0.73089(14) 1.0000 0.5000
H4_11 H 0.7635 1.0000 0.5000
C17_9 C 0.49036(19) 0.96628(11) 0.4298(2)
H9_9 H 0.4636 0.9446 0.3800
C18_9 C 0.53835(19) 0.96569(11) 0.4356(3)
H10_9 H 0.5423 0.9408 0.3935
C19_9 C 0.63419(18) 0.95188(10) 0.4920(2)
H11_9 H 0.6017 0.9194 0.4864
C20_9 C 0.68218(17) 0.95094(10) 0.4923(2)
C21_9 C 0.68248(16) 0.89929(9) 0.4831(2)
C22_9 C 0.64330(18) 0.85155(10) 0.5294(3)
H12_9 H 0.6143 0.8511 0.5653
C23_9 C 0.64568(17) 0.80493(10) 0.5244(2)
H13_9 H 0.6189 0.7737 0.5579
C24_9 C 0.68822(17) 0.80407(10) 0.4690(2)
C25_9 C 0.72752(18) 0.85116(10) 0.4212(2)
H14_9 H 0.7560 0.8512 0.3845
C26_9 C 0.72539(19) 0.89771(11) 0.4265(2)
H15_9 H 0.7522 0.9289 0.3929
C27_9 C 0.68790(17) 0.75262(10) 0.4532(2)
O4_7 O 0.76272(10) 0.76272(10) 0.0000
O4_8 O 0.76272(10) 0.76272(10) 1.0000
H16 H 0.789937 0.758707 0.956665
H17 H 0.757223 0.791414 0.966988
O4_9 O 0.00001(14) 0.23728(10) 0.0000
O4_10 O 0.00001(14) 0.23728(10) 1.0000
H17_2 H 0.034191 0.242777 0.966988
O4_11 O 1.00001(14) 0.23728(10) 0.0000
O4_12 O 1.00001(14) 0.23728(10) 1.0000
H16_2 H 0.96877 0.210063 0.956665
O4_13 O 0.23728(10) -0.00001(14) 0.0000
O4_14 O 0.23728(10) -0.00001(14) 1.0000
H16_3 H 0.241293 0.03123 0.956665
O4_15 O 0.23728(10) 0.99999(14) 0.0000
O4_16 O 0.23728(10) 0.99999(14) 1.0000
H17_3 H 0.208586 0.965809 0.966988
H16_4 H 0.758707 0.789937 0.0433349
H17_4 H 0.791414 0.757223 0.0330118
H17_5 H 0.242777 0.034191 0.0330118
H16_5 H 0.210063 0.96877 0.0433349
H16_6 H 0.03123 0.241293 0.0433349
H17_6 H 0.965809 0.208586 0.0330118
loop_
_geom_bond_atom_site_label_1
_geom_bond_atom_site_label_2
_geom_bond_site_symmetry_1
_geom_bond_site_symmetry_2
Tb1 O1 1_555 1_555
O1 C1 1_555 1_555
O2 C16 1_555 1_555
O3 C16 1_555 1_555
O4 Tb1 1_555 1_555
C1 C2 1_555 1_555
C2 C3 1_555 1_555
C3 H1 1_555 1_555
C4 C3 1_555 1_555
H2 C4 1_555 1_555
C5 C4 1_555 1_555
C6 C5 1_555 1_555
C7 C6 1_555 1_555
H3 C7 1_555 1_555
C8 C7 1_555 1_555
C9 C8 1_555 1_555
H4 C9 1_555 1_555
C10 C8 1_555 1_555
C11 C10 1_555 1_555
H5 C11 1_555 1_555
C12 C11 1_555 1_555
H6 C12 1_555 1_555
C13 C12 1_555 1_555
C14 C13 1_555 1_555
H7 C14 1_555 1_555
C15 C10 1_555 1_555
H8 C15 1_555 1_555
C16 C13 1_555 1_555
Tb3 O2 1_555 1_555
Tb4 O5 1_555 1_555
Tb5 O7 1_555 1_555
Tb6 O7 1_555 1_555
O5 C1 1_555 1_555
O7 C27 1_555 1_555
O9 Tb1 1_555 1_555
O10 Tb1 1_555 1_555
O12 Tb6 1_555 1_555
C17 C2 1_555 1_555
H9 C17 1_555 1_555
C18 C5 1_555 1_555
H10 C18 1_555 1_555
C19 C6 1_555 1_555
H11 C19 1_555 1_555
C20 C9 1_555 1_555
C21 C20 1_555 1_555
C22 C21 1_555 1_555
H12 C22 1_555 1_555
C23 C22 1_555 1_555
H13 C23 1_555 1_555
C24 C23 1_555 1_555
C25 C24 1_555 1_555
H14 C25 1_555 1_555
C26 C21 1_555 1_555
H15 C26 1_555 1_555
C27 O12 1_555 1_555
C14 C15 1_555 1_555
Tb4 O10 1_555 1_555
C17 C18 1_555 1_555
C19 C20 1_555 1_555
C24 C27 1_555 1_555
C25 C26 1_555 1_555
Tb4_3 O8 1_555 1_555
Tb2 O1_2 1_555 1_555
O1_2 C1_2 1_555 1_555
O4_2 Tb2 1_555 1_555
C1_2 C2_2 1_555 1_555
C2_2 C3_2 1_555 1_555
C3_2 H1_2 1_555 1_555
C4_2 C3_2 1_555 1_555
H2_2 C4_2 1_555 1_555
C5_2 C4_2 1_555 1_555
C6_2 C5_2 1_555 1_555
Tb3_3 O5_2 1_555 1_555
O5_2 C1_2 1_555 1_555
O9_2 Tb2 1_555 1_555
O10_2 Tb2 1_555 1_555
C17_2 C2_2 1_555 1_555
H9_2 C17_2 1_555 1_555
C18_2 C5_2 1_555 1_555
H10_2 C18_2 1_555 1_555
C19_2 C6_2 1_555 1_555
H11_2 C19_2 1_555 1_555
H12_2 C22_2 1_555 1_555
C23_2 C22_2 1_555 1_555
H13_2 C23_2 1_555 1_555
Tb3_3 O10_2 1_555 1_555
C17_2 C18_2 1_555 1_555
O2_2 C16_2 1_555 1_555
O3_2 C16_2 1_555 1_555
H3_2 C7_2 1_555 1_555
C8_2 C7_2 1_555 1_555
C9_2 C8_2 1_555 1_555
H4_2 C9_2 1_555 1_555
C10_2 C8_2 1_555 1_555
C11_2 C10_2 1_555 1_555
H5_2 C11_2 1_555 1_555
C12_2 C11_2 1_555 1_555
H6_2 C12_2 1_555 1_555
C13_2 C12_2 1_555 1_555
C14_2 C13_2 1_555 1_555
H7_2 C14_2 1_555 1_555
C15_2 C10_2 1_555 1_555
H8_2 C15_2 1_555 1_555
C16_2 C13_2 1_555 1_555
Tb5 O2_2 1_555 1_555
Tb6 O2_2 1_555 1_555
O12_2 Tb4_3 1_555 1_555
C20_2 C9_2 1_555 1_555
C21_2 C20_2 1_555 1_555
C25_2 C24_2 1_555 1_555
H14_2 C25_2 1_555 1_555
C26_2 C21_2 1_555 1_555
H15_2 C26_2 1_555 1_555
C27_2 O12_2 1_555 1_555
O3_2 Tb5 1_555 1_555
C14_2 C15_2 1_555 1_555
C24_2 C27_2 1_555 1_555
C25_2 C26_2 1_555 1_555
O8 C16_3 1_555 1_555
O13 C16_3 1_555 1_555
H3_3 C7_3 1_555 1_555
C8_3 C7_3 1_555 1_555
C9_3 C8_3 1_555 1_555
H4_3 C9_3 1_555 1_555
C10_3 C8_3 1_555 1_555
C11_3 C10_3 1_555 1_555
H5_3 C11_3 1_555 1_555
C12_3 C11_3 1_555 1_555
H6_3 C12_3 1_555 1_555
C13_3 C12_3 1_555 1_555
C14_3 C13_3 1_555 1_555
H7_3 C14_3 1_555 1_555
C15_3 C10_3 1_555 1_555
H8_3 C15_3 1_555 1_555
C16_3 C13_3 1_555 1_555
O12_3 Tb3 1_555 1_555
C20_3 C9_3 1_555 1_555
C21_3 C20_3 1_555 1_555
C25_3 C24_3 1_555 1_555
H14_3 C25_3 1_555 1_555
C26_3 C21_3 1_555 1_555
H15_3 C26_3 1_555 1_555
C27_3 O12_3 1_555 1_555
C14_3 C15_3 1_555 1_555
C24_3 C27_3 1_555 1_555
C25_3 C26_3 1_555 1_555
Tb5 O1_3 1_555 1_555
O1_3 C1_3 1_555 1_555
O4_3 Tb5 1_555 1_555
C1_3 C2_3 1_555 1_555
C2_3 C3_3 1_555 1_555
C3_3 H1_3 1_555 1_555
C4_3 C3_3 1_555 1_555
H2_3 C4_3 1_555 1_555
C5_3 C4_3 1_555 1_555
C6_3 C5_3 1_555 1_555
Tb6 O5_3 1_555 1_555
O5_3 C1_3 1_555 1_555
O6_3 Tb5 1_555 1_555
O9_3 Tb5 1_555 1_555
O11_3 Tb5 1_555 1_555
O14_3 Tb5 1_555 1_555
C17_3 C2_3 1_555 1_555
H9_3 C17_3 1_555 1_555
C18_3 C5_3 1_555 1_555
H10_3 C18_3 1_555 1_555
C19_3 C6_3 1_555 1_555
H11_3 C19_3 1_555 1_555
H12_3 C22_3 1_555 1_555
C23_3 C22_3 1_555 1_555
H13_3 C23_3 1_555 1_555
C17_3 C18_3 1_555 1_555
Tb1_2 O1_4 1_555 1_555
O1_4 C1_4 1_555 1_555
O2_3 C16_4 1_555 1_555
O3_3 C16_4 1_555 1_555
O4_4 Tb1_2 1_555 1_555
C1_4 C2_4 1_555 1_555
C2_4 C3_4 1_555 1_555
C3_4 H1_4 1_555 1_555
C4_4 C3_4 1_555 1_555
H2_4 C4_4 1_555 1_555
C5_4 C4_4 1_555 1_555
C6_4 C5_4 1_555 1_555
C7_4 C6_4 1_555 1_555
H3_4 C7_4 1_555 1_555
C8_4 C7_4 1_555 1_555
C9_4 C8_4 1_555 1_555
H4_4 C9_4 1_555 1_555
C10_4 C8_4 1_555 1_555
C11_4 C10_4 1_555 1_555
H5_4 C11_4 1_555 1_555
C12_4 C11_4 1_555 1_555
H6_4 C12_4 1_555 1_555
C13_4 C12_4 1_555 1_555
C14_4 C13_4 1_555 1_555
H7_4 C14_4 1_555 1_555
C15_4 C10_4 1_555 1_555
H8_4 C15_4 1_555 1_555
C16_4 C13_4 1_555 1_555
Tb4_2 O2_3 1_555 1_555
Tb3_2 O5_4 1_555 1_555
Tb5_2 O7_2 1_555 1_555
Tb6_2 O7_2 1_555 1_555
O5_4 C1_4 1_555 1_555
O7_2 C27_4 1_555 1_555
O11_2 Tb1_2 1_555 1_555
O10_3 Tb1_2 1_555 1_555
O12_4 Tb6_2 1_555 1_555
C17_4 C2_4 1_555 1_555
H9_4 C17_4 1_555 1_555
C18_4 C5_4 1_555 1_555
H10_4 C18_4 1_555 1_555
C19_4 C6_4 1_555 1_555
H11_4 C19_4 1_555 1_555
C20_4 C9_4 1_555 1_555
C21_4 C20_4 1_555 1_555
C22_4 C21_4 1_555 1_555
H12_4 C22_4 1_555 1_555
C23_4 C22_4 1_555 1_555
H13_4 C23_4 1_555 1_555
C24_4 C23_4 1_555 1_555
C25_4 C24_4 1_555 1_555
H14_4 C25_4 1_555 1_555
C26_4 C21_4 1_555 1_555
H15_4 C26_4 1_555 1_555
C27_4 O12_4 1_555 1_555
C14_4 C15_4 1_555 1_555
Tb3_2 O10_3 1_555 1_555
C17_4 C18_4 1_555 1_555
C19_4 C20_4 1_555 1_555
C24_4 C27_4 1_555 1_555
C25_4 C26_4 1_555 1_555
Tb3_4 O8_2 1_555 1_555
Tb2_2 O1_5 1_555 1_555
O1_5 C1_5 1_555 1_555
O4_5 Tb2_2 1_555 1_555
C1_5 C2_5 1_555 1_555
C2_5 C3_5 1_555 1_555
C3_5 H1_5 1_555 1_555
C4_5 C3_5 1_555 1_555
H2_5 C4_5 1_555 1_555
C5_5 C4_5 1_555 1_555
C6_5 C5_5 1_555 1_555
Tb4_4 O5_5 1_555 1_555
O5_5 C1_5 1_555 1_555
O11 Tb2_2 1_555 1_555
O10_4 Tb2_2 1_555 1_555
C17_5 C2_5 1_555 1_555
H9_5 C17_5 1_555 1_555
C18_5 C5_5 1_555 1_555
H10_5 C18_5 1_555 1_555
C19_5 C6_5 1_555 1_555
H11_5 C19_5 1_555 1_555
H12_5 C22_5 1_555 1_555
C23_5 C22_5 1_555 1_555
H13_5 C23_5 1_555 1_555
Tb4_4 O10_4 1_555 1_555
C17_5 C18_5 1_555 1_555
O2_4 C16_5 1_555 1_555
O3_4 C16_5 1_555 1_555
H3_5 C7_5 1_555 1_555
C8_5 C7_5 1_555 1_555
C9_5 C8_5 1_555 1_555
H4_5 C9_5 1_555 1_555
C10_5 C8_5 1_555 1_555
C11_5 C10_5 1_555 1_555
H5_5 C11_5 1_555 1_555
C12_5 C11_5 1_555 1_555
H6_5 C12_5 1_555 1_555
C13_5 C12_5 1_555 1_555
C14_5 C13_5 1_555 1_555
H7_5 C14_5 1_555 1_555
C15_5 C10_5 1_555 1_555
H8_5 C15_5 1_555 1_555
C16_5 C13_5 1_555 1_555
Tb5_2 O2_4 1_555 1_555
Tb6_2 O2_4 1_555 1_555
O12_5 Tb3_4 1_555 1_555
C20_5 C9_5 1_555 1_555
C21_5 C20_5 1_555 1_555
C25_5 C24_5 1_555 1_555
H14_5 C25_5 1_555 1_555
C26_5 C21_5 1_555 1_555
H15_5 C26_5 1_555 1_555
C27_5 O12_5 1_555 1_555
O3_4 Tb5_2 1_555 1_555
C14_5 C15_5 1_555 1_555
C24_5 C27_5 1_555 1_555
C25_5 C26_5 1_555 1_555
O8_2 C16_6 1_555 1_555
O13_2 C16_6 1_555 1_555
H3_6 C7_6 1_555 1_555
C8_6 C7_6 1_555 1_555
C9_6 C8_6 1_555 1_555
H4_6 C9_6 1_555 1_555
C10_6 C8_6 1_555 1_555
C11_6 C10_6 1_555 1_555
H5_6 C11_6 1_555 1_555
C12_6 C11_6 1_555 1_555
H6_6 C12_6 1_555 1_555
C13_6 C12_6 1_555 1_555
C14_6 C13_6 1_555 1_555
H7_6 C14_6 1_555 1_555
C15_6 C10_6 1_555 1_555
H8_6 C15_6 1_555 1_555
C16_6 C13_6 1_555 1_555
O12_6 Tb4_2 1_555 1_555
C20_6 C9_6 1_555 1_555
C21_6 C20_6 1_555 1_555
C25_6 C24_6 1_555 1_555
H14_6 C25_6 1_555 1_555
C26_6 C21_6 1_555 1_555
H15_6 C26_6 1_555 1_555
C27_6 O12_6 1_555 1_555
C14_6 C15_6 1_555 1_555
C24_6 C27_6 1_555 1_555
C25_6 C26_6 1_555 1_555
Tb5_2 O1_6 1_555 1_555
O1_6 C1_6 1_555 1_555
O4_6 Tb5_2 1_555 1_555
C1_6 C2_6 1_555 1_555
C2_6 C3_6 1_555 1_555
C3_6 H1_6 1_555 1_555
C4_6 C3_6 1_555 1_555
H2_6 C4_6 1_555 1_555
C5_6 C4_6 1_555 1_555
C6_6 C5_6 1_555 1_555
Tb6_2 O5_6 1_555 1_555
O5_6 C1_6 1_555 1_555
O6_6 Tb5_2 1_555 1_555
O11_3 Tb5_2 1_555 1_555
O9_3 Tb5_2 1_555 1_555
O14_6 Tb5_2 1_555 1_555
C17_6 C2_6 1_555 1_555
H9_6 C17_6 1_555 1_555
C18_6 C5_6 1_555 1_555
H10_6 C18_6 1_555 1_555
C19_6 C6_6 1_555 1_555
H11_6 C19_6 1_555 1_555
H12_6 C22_6 1_555 1_555
C23_6 C22_6 1_555 1_555
H13_6 C23_6 1_555 1_555
C17_6 C18_6 1_555 1_555
C1_7 C2_7 1_555 1_555
C6_7 C5_7 1_555 1_555
H4_7 C9_7 1_555 1_555
O6_2 C1_7 1_555 1_555
O11 C27_7 1_555 1_555
C17_7 C2_7 1_555 1_555
H9_7 C17_7 1_555 1_555
C18_7 C5_7 1_555 1_555
H10_7 C18_7 1_555 1_555
C19_7 C6_7 1_555 1_555
H11_7 C19_7 1_555 1_555
C20_7 C9_7 1_555 1_555
C21_7 C20_7 1_555 1_555
C22_7 C21_7 1_555 1_555
H12_7 C22_7 1_555 1_555
C23_7 C22_7 1_555 1_555
H13_7 C23_7 1_555 1_555
C24_7 C23_7 1_555 1_555
C25_7 C24_7 1_555 1_555
H14_7 C25_7 1_555 1_555
C26_7 C21_7 1_555 1_555
H15_7 C26_7 1_555 1_555
C27_7 O14 1_555 1_555
C17_7 C18_7 1_555 1_555
C19_7 C20_7 1_555 1_555
C24_7 C27_7 1_555 1_555
C25_7 C26_7 1_555 1_555
O6_4 C1_8 1_555 1_555
O9_3 C16_7 1_555 1_555
O14_6 C16_7 1_555 1_555
C1_8 C2_8 1_555 1_555
C2_8 C3_7 1_555 1_555
C3_7 H1_7 1_555 1_555
C4_7 C3_7 1_555 1_555
H2_7 C4_7 1_555 1_555
C5_8 C4_7 1_555 1_555
C6_8 C5_8 1_555 1_555
C7_7 C6_8 1_555 1_555
H3_7 C7_7 1_555 1_555
C8_7 C7_7 1_555 1_555
C9_8 C8_7 1_555 1_555
H4_8 C9_8 1_555 1_555
C10_7 C8_7 1_555 1_555
C11_7 C10_7 1_555 1_555
H5_7 C11_7 1_555 1_555
C12_7 C11_7 1_555 1_555
H6_7 C12_7 1_555 1_555
C13_7 C12_7 1_555 1_555
C14_7 C13_7 1_555 1_555
H7_7 C14_7 1_555 1_555
C15_7 C10_7 1_555 1_555
H8_7 C15_7 1_555 1_555
C16_7 C13_7 1_555 1_555
C14_7 C15_7 1_555 1_555
O6_6 C1_9 1_555 1_555
O9 C16_8 1_555 1_555
O14_5 C16_8 1_555 1_555
C1_9 C2_9 1_555 1_555
C2_9 C3_8 1_555 1_555
C3_8 H1_8 1_555 1_555
C4_8 C3_8 1_555 1_555
H2_8 C4_8 1_555 1_555
C5_9 C4_8 1_555 1_555
C6_9 C5_9 1_555 1_555
C7_8 C6_9 1_555 1_555
H3_8 C7_8 1_555 1_555
C8_8 C7_8 1_555 1_555
C9_9 C8_8 1_555 1_555
H4_9 C9_9 1_555 1_555
C10_8 C8_8 1_555 1_555
C11_8 C10_8 1_555 1_555
H5_8 C11_8 1_555 1_555
C12_8 C11_8 1_555 1_555
H6_8 C12_8 1_555 1_555
C13_8 C12_8 1_555 1_555
C14_8 C13_8 1_555 1_555
H7_8 C14_8 1_555 1_555
C15_8 C10_8 1_555 1_555
H8_8 C15_8 1_555 1_555
C16_8 C13_8 1_555 1_555
O6_3 C1_9 1_555 1_555
O11_2 C27_8 1_555 1_555
C17_8 C2_9 1_555 1_555
H9_8 C17_8 1_555 1_555
C18_8 C5_9 1_555 1_555
H10_8 C18_8 1_555 1_555
C19_8 C6_9 1_555 1_555
H11_8 C19_8 1_555 1_555
C20_8 C9_9 1_555 1_555
C21_8 C20_8 1_555 1_555
C22_8 C21_8 1_555 1_555
H12_8 C22_8 1_555 1_555
C23_8 C22_8 1_555 1_555
H13_8 C23_8 1_555 1_555
C24_8 C23_8 1_555 1_555
C25_8 C24_8 1_555 1_555
H14_8 C25_8 1_555 1_555
C26_8 C21_8 1_555 1_555
H15_8 C26_8 1_555 1_555
C27_8 O14_2 1_555 1_555
C14_8 C15_8 1_555 1_555
C17_8 C18_8 1_555 1_555
C19_8 C20_8 1_555 1_555
C24_8 C27_8 1_555 1_555
C25_8 C26_8 1_555 1_555
O6_5 C1_10 1_555 1_555
O9_2 C16_9 1_555 1_555
O14_4 C16_9 1_555 1_555
C1_10 C2_10 1_555 1_555
C2_10 C3_9 1_555 1_555
C3_9 H1_9 1_555 1_555
C4_9 C3_9 1_555 1_555
H2_9 C4_9 1_555 1_555
C5_10 C4_9 1_555 1_555
C6_10 C5_10 1_555 1_555
C7_9 C6_10 1_555 1_555
H3_9 C7_9 1_555 1_555
C8_9 C7_9 1_555 1_555
C9_10 C8_9 1_555 1_555
H4_10 C9_10 1_555 1_555
C10_9 C8_9 1_555 1_555
C11_9 C10_9 1_555 1_555
H5_9 C11_9 1_555 1_555
C12_9 C11_9 1_555 1_555
H6_9 C12_9 1_555 1_555
C13_9 C12_9 1_555 1_555
C14_9 C13_9 1_555 1_555
H7_9 C14_9 1_555 1_555
C15_9 C10_9 1_555 1_555
H8_9 C15_9 1_555 1_555
C16_9 C13_9 1_555 1_555
C14_9 C15_9 1_555 1_555
C1_11 C2_11 1_555 1_555
C6_11 C5_11 1_555 1_555
H4_11 C9_11 1_555 1_555
O6 C1_11 1_555 1_555
O11_3 C27_9 1_555 1_555
C17_9 C2_11 1_555 1_555
H9_9 C17_9 1_555 1_555
C18_9 C5_11 1_555 1_555
H10_9 C18_9 1_555 1_555
C19_9 C6_11 1_555 1_555
H11_9 C19_9 1_555 1_555
C20_9 C9_11 1_555 1_555
C21_9 C20_9 1_555 1_555
C22_9 C21_9 1_555 1_555
H12_9 C22_9 1_555 1_555
C23_9 C22_9 1_555 1_555
H13_9 C23_9 1_555 1_555
C24_9 C23_9 1_555 1_555
C25_9 C24_9 1_555 1_555
H14_9 C25_9 1_555 1_555
C26_9 C21_9 1_555 1_555
H15_9 C26_9 1_555 1_555
C27_9 O14_3 1_555 1_555
C17_9 C18_9 1_555 1_555
C19_9 C20_9 1_555 1_555
C24_9 C27_9 1_555 1_555
C25_9 C26_9 1_555 1_555
O4_7 Tb6 1_555 1_555
O4_8 Tb6_2 1_555 1_555
O4_8 H16 1_555 1_555
O4_8 H17 1_555 1_555
O4_9 Tb3 1_555 1_555
O4_10 Tb3_2 1_555 1_555
O4_10 H17_2 1_555 1_555
O4_11 Tb3_3 1_555 1_555
O4_12 Tb3_4 1_555 1_555
O4_12 H16_2 1_555 1_555
O4_13 Tb4 1_555 1_555
O4_14 Tb4_2 1_555 1_555
O4_14 H16_3 1_555 1_555
O4_15 Tb4_3 1_555 1_555
O4_16 Tb4_4 1_555 1_555
O4_16 H17_3 1_555 1_555
O4_7 H16_4 1_555 1_555
O4_7 H17_4 1_555 1_555
O4_13 H17_5 1_555 1_555
O4_15 H16_5 1_555 1_555
O4_9 H16_6 1_555 1_555
O4_11 H17_6 1_555 1_555

#END
