
###############################################################################
#
# This file contains modified crystal structure data generated from the
# MOF subset of the Cambridge Structural Database (CSD) v543 
# hosted by the Cambridge Crystallographic Data Centre (CCDC).
#
# This work is licensed under the Creative Commons
# Attribution-NonCommercial-ShareAlike 4.0 International License.
# To view a copy of this license, visit
# http://creativecommons.org/licenses/by-nc-sa/4.0/
# or send a letter to
# Creative Commons, PO Box 1866, Mountain View, CA 94042, USA.
#
# CIF created using the CSD Python API on 29 September 2022
# The structure has been converted into the P1 space group
# The structure has a 3D framework
# The original CSD entry QAVSOZ is in the tetragonal crystal system
# The original CSD entry QAVSOZ is in a Sohncke space group
# The framework has been calculated to contain at least 10.0% void space
# The void calculation uses a probe of radius 1.32A, grid spacing 0.4
#
###############################################################################

data_QAVSOZ
_chemical_formula_moiety         '(C180 H108 N12 O50 Zn16)n'
_symmetry_cell_setting           triclinic
_symmetry_space_group_name_H-M   'P 1'
_symmetry_Int_Tables_number      1
_space_group_name_Hall           'P 1'
loop_
_symmetry_equiv_pos_site_id
_symmetry_equiv_pos_as_xyz
1 x,y,z
_cell_length_a                   19.1455(19)
_cell_length_b                   19.1455(19)
_cell_length_c                   19.117(2)
_cell_angle_alpha                90
_cell_angle_beta                 90
_cell_angle_gamma                90
_cell_volume                     7007.34
loop_
_atom_site_label
_atom_site_type_symbol
_atom_site_fract_x
_atom_site_fract_y
_atom_site_fract_z
Zn6 Zn 0.09119(17) 0.67693(17) 0.2668(3)
Zn8 Zn 0.08395(18) 0.56294(19) 0.3893(4)
Zn2 Zn 0.20124(17) 0.55756(17) 0.2670(4)
Zn4 Zn 0.20763(17) 0.67669(17) 0.3800(3)
O1 O 0.3068(7) 0.6552(5) 0.3557(6)
O2 O 0.2998(8) 0.5635(6) 0.2815(6)
O3 O 0.9984(7) 0.6559(5) 0.2582(5)
O4 O 0.9964(10) 0.5724(6) 0.3389(6)
O5 O 0.19716(18) 0.59693(13) 0.1640(5)
O6 O 0.11089(16) 0.66592(14) 0.1628(5)
O9 O 0.1691(3) 0.4594(6) 0.2672(3)
O10 O 0.0931(4) 0.4646(5) 0.3300(3)
O13 O 0.1497(6) 0.6205(5) 0.3254(10)
N1 N 0.6262(4) 0.5926(5) 0.3238(5)
N3 N 0.09835(19) 0.1263(4) 0.26503(18)
C1 C 0.3257(4) 0.6077(5) 0.3185(5)
C2 C 0.4039(4) 0.6022(4) 0.3187(4)
C3 C 0.4388(4) 0.5516(5) 0.2800(5)
H1 H 0.4136 0.5199 0.2531
C4 C 0.5113(4) 0.5484(5) 0.2816(5)
H2 H 0.5347 0.5145 0.2557
C5 C 0.5489(4) 0.5957(4) 0.3218(4)
C6 C 0.5140(4) 0.6463(5) 0.3605(5)
H3 H 0.5392 0.6780 0.3874
C7 C 0.4415(4) 0.6496(5) 0.3589(5)
H4 H 0.4181 0.6835 0.3848
C8 C 0.6721(4) 0.6258(5) 0.2913(5)
H5 H 0.6548 0.6586 0.2598
C9 C 0.8941(4) 0.6164(4) 0.2976(4)
C10 C 0.8606(5) 0.6630(5) 0.2530(5)
H6 H 0.8867 0.6923 0.2244
C11 C 0.7880(5) 0.6657(5) 0.2513(6)
H7 H 0.7656 0.6969 0.2215
C12 C 0.7490(4) 0.6219(5) 0.2941(5)
C13 C 0.7825(5) 0.5753(5) 0.3386(5)
H8 H 0.7564 0.5460 0.3673
C14 C 0.8551(5) 0.5726(5) 0.3404(5)
H9 H 0.8775 0.5414 0.3702
C15 C 0.9724(5) 0.6146(5) 0.2984(5)
C16 C 0.15647(17) 0.63397(14) 0.1328(4)
C17 C 0.16424(10) 0.63925(8) 0.0549(4)
C18 C 0.21720(11) 0.60181(10) 0.0222(4)
H10 H 0.2471 0.5741 0.0486
C22 C 0.11952(12) 0.68073(10) 0.0155(4)
H13 H 0.0841 0.7058 0.0373
C31 C 0.12603(19) 0.4229(4) 0.29574(14)
C32 C 0.1178(3) 0.3453(4) 0.2885(3)
C33 C 0.0656(3) 0.3100(4) 0.3246(3)
H19 H 0.0353 0.3345 0.3536
C34 C 0.0588(3) 0.2381(4) 0.3173(3)
H20 H 0.0238 0.2145 0.3414
C35 C 0.10407(17) 0.2015(4) 0.27387(16)
C36 C 0.1563(3) 0.2368(4) 0.2378(3)
H21 H 0.1866 0.2124 0.2087
C37 C 0.1631(3) 0.3088(4) 0.2451(3)
H22 H 0.1981 0.3324 0.2209
C38 C 0.14390(14) 0.1043(4) 0.30634(12)
H23 H 0.1720 0.1328 0.3338
C39 C 0.14733(9) 0.0286(4) 0.30598(4)
H24 H 0.2247 0.0214 0.3776
H27 H 0.0713 0.0117 0.2345
O16 O 0.21046(19) 0.66641(12) 0.4782(7)
O17 O 0.1140(2) 0.60849(12) 0.4732(7)
O18 O 0.20349(16) 0.7778(6) 0.34643(14)
O19 O 0.11946(16) 0.7799(6) 0.26843(13)
N2 N 0.19079(18) 0.65065(15) 0.8337(5)
C19 C 0.22543(15) 0.60586(13) 0.9501(4)
H11 H 0.2609 0.5808 0.9282
C20 C 0.18072(17) 0.64734(14) 0.9107(4)
C21 C 0.12776(16) 0.68477(13) 0.9434(4)
H12 H 0.0978 0.7125 0.9170
C23 C 0.14132(19) 0.62126(12) 0.8029(4)
H14 H 0.1047 0.5990 0.8259
C24 C 0.15724(12) 0.63330(7) 0.5794(5)
C25 C 0.20851(13) 0.66366(10) 0.6210(6)
H15 H 0.2461 0.6865 0.6003
C26 C 0.20360(17) 0.65991(12) 0.6934(6)
H16 H 0.2379 0.6802 0.7212
C27 C 0.1474(2) 0.62580(12) 0.7243(5)
C28 C 0.09616(17) 0.59544(12) 0.6828(6)
H17 H 0.0586 0.5726 0.7034
C29 C 0.10107(13) 0.59919(10) 0.6103(6)
H18 H 0.0668 0.5789 0.5825
C30 C 0.16129(18) 0.63656(11) 0.5043(6)
C40 C 0.19538(11) 0.9953(4) 0.34907(7)
C41 C 0.19952(13) 0.9228(4) 0.34954(11)
H25 H 0.2317 0.9005 0.3784
C42 C 0.15563(15) 0.8836(4) 0.30690(12)
C43 C 0.10759(14) 0.9170(4) 0.26381(11)
H26 H 0.0782 0.8908 0.2353
C44 C 0.10344(11) 0.9894(4) 0.26335(7)
C45 C 0.16120(15) 0.8055(4) 0.30842(13)
O14 O 0.0016(7) 0.3441(5) 0.7582(5)
O15 O 0.0036(10) 0.4276(6) 0.8389(6)
O11 O 0.79651(16) 0.2222(6) 0.84643(14)
O12 O 0.88054(16) 0.2201(6) 0.76843(13)
C40_2 C 0.80462(11) 0.0047(4) 0.84907(7)
C41_2 C 0.80048(13) 0.0772(4) 0.84954(11)
H25_2 H 0.7683 0.0995 0.8784
C42_2 C 0.84437(15) 0.1164(4) 0.80690(12)
C43_2 C 0.89241(14) 0.0830(4) 0.76381(11)
H26_2 H 0.9218 0.1092 0.7353
C44_2 C 0.89656(11) 0.0106(4) 0.76335(7)
C45_2 C 0.83880(15) 0.1945(4) 0.80842(13)
Zn5 Zn 0.90881(17) 0.32307(17) 0.7668(3)
Zn9 Zn 0.79237(17) 0.32331(17) 0.8800(3)
Zn2_2 Zn 0.79876(17) 0.44244(17) 0.7670(4)
Zn3 Zn 0.91605(18) 0.43706(19) 0.8893(4)
O1_2 O 0.6932(7) 0.3448(5) 0.8557(6)
O2_2 O 0.7002(8) 0.4365(6) 0.7815(6)
O5_2 O 0.80284(18) 0.40307(13) 0.6640(5)
O6_2 O 0.88911(16) 0.33408(14) 0.6628(5)
O9_2 O 0.8309(3) 0.5406(6) 0.7672(3)
O10_2 O 0.9069(4) 0.5354(5) 0.8300(3)
O13_2 O 0.8503(6) 0.3795(5) 0.8254(10)
N1_2 N 0.3738(4) 0.4074(5) 0.8238(5)
N2_2 N 0.80921(18) 0.34935(15) 0.3337(5)
N3_2 N 0.90165(19) 0.8737(4) 0.76503(18)
C1_2 C 0.6743(4) 0.3923(5) 0.8185(5)
C2_2 C 0.5961(4) 0.3978(4) 0.8187(4)
C3_2 C 0.5612(4) 0.4484(5) 0.7800(5)
H1_2 H 0.5864 0.4801 0.7531
C4_2 C 0.4887(4) 0.4516(5) 0.7816(5)
H2_2 H 0.4653 0.4855 0.7557
C5_2 C 0.4511(4) 0.4043(4) 0.8218(4)
C6_2 C 0.4860(4) 0.3537(5) 0.8605(5)
H3_2 H 0.4608 0.3220 0.8874
C7_2 C 0.5585(4) 0.3504(5) 0.8589(5)
H4_2 H 0.5819 0.3165 0.8848
C8_2 C 0.3279(4) 0.3742(5) 0.7913(5)
H5_2 H 0.3452 0.3414 0.7598
C9_2 C 0.1059(4) 0.3836(4) 0.7976(4)
C10_2 C 0.1394(5) 0.3370(5) 0.7530(5)
H6_2 H 0.1133 0.3077 0.7244
C11_2 C 0.2120(5) 0.3343(5) 0.7513(6)
H7_2 H 0.2344 0.3031 0.7215
C12_2 C 0.2510(4) 0.3781(5) 0.7941(5)
C13_2 C 0.2175(5) 0.4247(5) 0.8386(5)
H8_2 H 0.2436 0.4540 0.8673
C14_2 C 0.1449(5) 0.4274(5) 0.8404(5)
H9_2 H 0.1225 0.4586 0.8702
C15_2 C 0.0276(5) 0.3854(5) 0.7984(5)
C16_2 C 0.84353(17) 0.36603(14) 0.6328(4)
C17_2 C 0.83576(10) 0.36075(8) 0.5549(4)
C18_2 C 0.78280(11) 0.39819(10) 0.5222(4)
H10_2 H 0.7529 0.4259 0.5486
C19_2 C 0.77457(15) 0.39414(13) 0.4501(4)
H11_2 H 0.7391 0.4192 0.4282
C20_2 C 0.81928(17) 0.35266(14) 0.4107(4)
C21_2 C 0.87224(16) 0.31523(13) 0.4434(4)
H12_2 H 0.9022 0.2875 0.4170
C22_2 C 0.88048(12) 0.31927(10) 0.5155(4)
H13_2 H 0.9159 0.2942 0.5373
C23_2 C 0.85868(19) 0.37874(12) 0.3029(4)
H14_2 H 0.8953 0.4010 0.3259
C24_2 C 0.84276(12) 0.36670(7) 0.0794(5)
C25_2 C 0.79149(13) 0.33634(10) 0.1210(6)
H15_2 H 0.7539 0.3135 0.1003
C26_2 C 0.79640(17) 0.34009(12) 0.1934(6)
H16_2 H 0.7621 0.3198 0.2212
C27_2 C 0.8526(2) 0.37420(12) 0.2243(5)
C28_2 C 0.90384(17) 0.40456(12) 0.1828(6)
H17_2 H 0.9414 0.4274 0.2034
C29_2 C 0.89893(13) 0.40081(10) 0.1103(6)
H18_2 H 0.9332 0.4211 0.0825
C30_2 C 0.83871(18) 0.36344(11) 0.0043(6)
C31_2 C 0.87397(19) 0.5771(4) 0.79574(14)
C32_2 C 0.8822(3) 0.6547(4) 0.7885(3)
C33_2 C 0.9344(3) 0.6900(4) 0.8246(3)
H19_2 H 0.9647 0.6655 0.8536
C34_2 C 0.9412(3) 0.7619(4) 0.8173(3)
H20_2 H 0.9762 0.7855 0.8414
C35_2 C 0.89593(17) 0.7985(4) 0.77387(16)
C36_2 C 0.8437(3) 0.7632(4) 0.7378(3)
H21_2 H 0.8134 0.7876 0.7087
C37_2 C 0.8369(3) 0.6912(4) 0.7451(3)
H22_2 H 0.8019 0.6676 0.7209
C38_2 C 0.85610(14) 0.8957(4) 0.80634(12)
H23_2 H 0.8280 0.8672 0.8338
C39_2 C 0.85267(9) 0.9714(4) 0.80598(4)
H24_2 H 0.7753 0.9786 0.8776
H27_2 H 0.9287 0.9883 0.7345
O16_2 O 0.78954(19) 0.33359(12) 0.9782(7)
O17_2 O 0.8860(2) 0.39151(12) 0.9732(7)
O11_2 O 0.2222(6) 0.20349(16) 0.59643(14)
O12_2 O 0.2201(6) 0.11946(16) 0.51843(13)
C40_3 C 0.0047(4) 0.19538(11) 0.59907(7)
C41_3 C 0.0772(4) 0.19952(13) 0.59954(11)
H25_3 H 0.0995 0.2317 0.6284
C42_3 C 0.1164(4) 0.15563(15) 0.55690(12)
C43_3 C 0.0830(4) 0.10759(14) 0.51381(11)
H26_3 H 0.1092 0.0782 0.4853
C44_3 C 0.0106(4) 0.10344(11) 0.51335(7)
C45_3 C 0.1945(4) 0.16120(15) 0.55842(13)
Zn5_2 Zn 0.32307(17) 0.09119(17) 0.5168(3)
Zn9_2 Zn 0.32331(17) 0.20763(17) 0.6300(3)
Zn8_2 Zn 0.43706(19) 0.08395(18) 0.6393(4)
Zn2_3 Zn 0.44244(17) 0.20124(17) 0.5170(4)
O1_3 O 0.3448(5) 0.3068(7) 0.6057(6)
O2_3 O 0.4365(6) 0.2998(8) 0.5315(6)
O3_2 O 0.3441(5) 0.9984(7) 0.5082(5)
O4_2 O 0.4276(6) 0.9964(10) 0.5889(6)
O5_3 O 0.40307(13) 0.19716(18) 0.4140(5)
O6_3 O 0.33408(14) 0.11089(16) 0.4128(5)
O9_3 O 0.5406(6) 0.1691(3) 0.5172(3)
O10_3 O 0.5354(5) 0.0931(4) 0.5800(3)
O13_3 O 0.3795(5) 0.1497(6) 0.5754(10)
N1_3 N 0.4074(5) 0.6262(4) 0.5738(5)
N2_3 N 0.34935(15) 0.19079(18) 0.0837(5)
N3_3 N 0.8737(4) 0.09835(19) 0.51503(18)
C1_3 C 0.3923(5) 0.3257(4) 0.5685(5)
C2_3 C 0.3978(4) 0.4039(4) 0.5687(4)
C3_3 C 0.4484(5) 0.4388(4) 0.5300(5)
H1_3 H 0.4801 0.4136 0.5031
C4_3 C 0.4516(5) 0.5113(4) 0.5316(5)
H2_3 H 0.4855 0.5347 0.5057
C5_3 C 0.4043(4) 0.5489(4) 0.5718(4)
C6_3 C 0.3537(5) 0.5140(4) 0.6105(5)
H3_3 H 0.3220 0.5392 0.6374
C7_3 C 0.3504(5) 0.4415(4) 0.6089(5)
H4_3 H 0.3165 0.4181 0.6348
C8_3 C 0.3742(5) 0.6721(4) 0.5413(5)
H5_3 H 0.3414 0.6548 0.5098
C9_3 C 0.3836(4) 0.8941(4) 0.5476(4)
C10_3 C 0.3370(5) 0.8606(5) 0.5030(5)
H6_3 H 0.3077 0.8867 0.4744
C11_3 C 0.3343(5) 0.7880(5) 0.5013(6)
H7_3 H 0.3031 0.7656 0.4715
C12_3 C 0.3781(5) 0.7490(4) 0.5441(5)
C13_3 C 0.4247(5) 0.7825(5) 0.5886(5)
H8_3 H 0.4540 0.7564 0.6173
C14_3 C 0.4274(5) 0.8551(5) 0.5904(5)
H9_3 H 0.4586 0.8775 0.6202
C15_3 C 0.3854(5) 0.9724(5) 0.5484(5)
C16_3 C 0.36603(14) 0.15647(17) 0.3828(4)
C17_3 C 0.36075(8) 0.16424(10) 0.3049(4)
C18_3 C 0.39819(10) 0.21720(11) 0.2722(4)
H10_3 H 0.4259 0.2471 0.2986
C19_3 C 0.39414(13) 0.22543(15) 0.2001(4)
H11_3 H 0.4192 0.2609 0.1782
C20_3 C 0.35266(14) 0.18072(17) 0.1607(4)
C21_3 C 0.31523(13) 0.12776(16) 0.1934(4)
H12_3 H 0.2875 0.0978 0.1670
C22_3 C 0.31927(10) 0.11952(12) 0.2655(4)
H13_3 H 0.2942 0.0841 0.2873
C23_3 C 0.37874(12) 0.14132(19) 0.0529(4)
H14_3 H 0.4010 0.1047 0.0759
C31_3 C 0.5771(4) 0.12603(19) 0.54574(14)
C32_3 C 0.6547(4) 0.1178(3) 0.5385(3)
C33_3 C 0.6900(4) 0.0656(3) 0.5746(3)
H19_3 H 0.6655 0.0353 0.6036
C34_3 C 0.7619(4) 0.0588(3) 0.5673(3)
H20_3 H 0.7855 0.0238 0.5914
C35_3 C 0.7985(4) 0.10407(17) 0.52387(16)
C36_3 C 0.7632(4) 0.1563(3) 0.4878(3)
H21_3 H 0.7876 0.1866 0.4587
C37_3 C 0.6912(4) 0.1631(3) 0.4951(3)
H22_3 H 0.6676 0.1981 0.4709
C38_3 C 0.8957(4) 0.14390(14) 0.55634(12)
H23_3 H 0.8672 0.1720 0.5838
C39_3 C 0.9714(4) 0.14733(9) 0.55598(4)
H24_3 H 0.9786 0.2247 0.6276
H27_3 H 0.9883 0.0713 0.4845
O16_3 O 0.33359(12) 0.21046(19) 0.7282(7)
O17_3 O 0.39151(12) 0.1140(2) 0.7232(7)
C24_3 C 0.36670(7) 0.15724(12) 0.8294(5)
C25_3 C 0.33634(10) 0.20851(13) 0.8710(6)
H15_3 H 0.3135 0.2461 0.8503
C26_3 C 0.34009(12) 0.20360(17) 0.9434(6)
H16_3 H 0.3198 0.2379 0.9712
C27_3 C 0.37420(12) 0.1474(2) 0.9743(5)
C28_3 C 0.40456(12) 0.09616(17) 0.9328(6)
H17_3 H 0.4274 0.0586 0.9534
C29_3 C 0.40081(10) 0.10107(13) 0.8603(6)
H18_3 H 0.4211 0.0668 0.8325
C30_3 C 0.36344(11) 0.16129(18) 0.7543(6)
O14_2 O 0.6559(5) 0.0016(7) 0.0082(5)
O15_2 O 0.5724(6) 0.0036(10) 0.0889(6)
Zn1 Zn 0.67693(17) 0.90881(17) 0.0168(3)
Zn2_4 Zn 0.55756(17) 0.79876(17) 0.0170(4)
Zn3_2 Zn 0.56294(19) 0.91605(18) 0.1393(4)
Zn4_2 Zn 0.67669(17) 0.79237(17) 0.1300(3)
O1_4 O 0.6552(5) 0.6932(7) 0.1057(6)
O2_4 O 0.5635(6) 0.7002(8) 0.0315(6)
O9_4 O 0.4594(6) 0.8309(3) 0.0172(3)
O10_4 O 0.4646(5) 0.9069(4) 0.0800(3)
O13_4 O 0.6205(5) 0.8503(6) 0.0754(10)
N1_4 N 0.5926(5) 0.3738(4) 0.0738(5)
N3_4 N 0.1263(4) 0.90165(19) 0.01503(18)
C1_4 C 0.6077(5) 0.6743(4) 0.0685(5)
C2_4 C 0.6022(4) 0.5961(4) 0.0687(4)
C3_4 C 0.5516(5) 0.5612(4) 0.0300(5)
H1_4 H 0.5199 0.5864 0.0031
C4_4 C 0.5484(5) 0.4887(4) 0.0316(5)
H2_4 H 0.5145 0.4653 0.0057
C5_4 C 0.5957(4) 0.4511(4) 0.0718(4)
C6_4 C 0.6463(5) 0.4860(4) 0.1105(5)
H3_4 H 0.6780 0.4608 0.1374
C7_4 C 0.6496(5) 0.5585(4) 0.1089(5)
H4_4 H 0.6835 0.5819 0.1348
C8_4 C 0.6258(5) 0.3279(4) 0.0413(5)
H5_4 H 0.6586 0.3452 0.0098
C9_4 C 0.6164(4) 0.1059(4) 0.0476(4)
C10_4 C 0.6630(5) 0.1394(5) 0.0030(5)
C11_4 C 0.6657(5) 0.2120(5) 0.0013(6)
C12_4 C 0.6219(5) 0.2510(4) 0.0441(5)
C13_4 C 0.5753(5) 0.2175(5) 0.0886(5)
H8_4 H 0.5460 0.2436 0.1173
C14_4 C 0.5726(5) 0.1449(5) 0.0904(5)
H9_4 H 0.5414 0.1225 0.1202
C15_4 C 0.6146(5) 0.0276(5) 0.0484(5)
C31_4 C 0.4229(4) 0.87397(19) 0.04574(14)
C32_4 C 0.3453(4) 0.8822(3) 0.0385(3)
C33_4 C 0.3100(4) 0.9344(3) 0.0746(3)
H19_4 H 0.3345 0.9647 0.1036
C34_4 C 0.2381(4) 0.9412(3) 0.0673(3)
H20_4 H 0.2145 0.9762 0.0914
C35_4 C 0.2015(4) 0.89593(17) 0.02387(16)
C38_4 C 0.1043(4) 0.85610(14) 0.05634(12)
H23_4 H 0.1328 0.8280 0.0838
C39_4 C 0.0286(4) 0.85267(9) 0.05598(4)
H24_4 H 0.0214 0.7753 0.1276
O16_4 O 0.66641(12) 0.78954(19) 0.2282(7)
O17_4 O 0.60849(12) 0.8860(2) 0.2232(7)
O18_2 O 0.7778(6) 0.79651(16) 0.09643(14)
O19_2 O 0.7799(6) 0.88054(16) 0.01843(13)
O5_4 O 0.59693(13) 0.80284(18) 0.9140(5)
O6_4 O 0.66592(14) 0.88911(16) 0.9128(5)
N2_4 N 0.65065(15) 0.80921(18) 0.5837(5)
H6_4 H 0.6923 0.1133 0.9744
H7_4 H 0.6969 0.2344 0.9715
C16_4 C 0.63397(14) 0.84353(17) 0.8828(4)
C17_4 C 0.63925(8) 0.83576(10) 0.8049(4)
C18_4 C 0.60181(10) 0.78280(11) 0.7722(4)
H10_4 H 0.5741 0.7529 0.7986
C19_4 C 0.60586(13) 0.77457(15) 0.7001(4)
H11_4 H 0.5808 0.7391 0.6782
C20_4 C 0.64734(14) 0.81928(17) 0.6607(4)
C21_4 C 0.68477(13) 0.87224(16) 0.6934(4)
H12_4 H 0.7125 0.9022 0.6670
C22_4 C 0.68073(10) 0.88048(12) 0.7655(4)
H13_4 H 0.7058 0.9159 0.7873
C23_4 C 0.62126(12) 0.85868(19) 0.5529(4)
H14_4 H 0.5990 0.8953 0.5759
C24_4 C 0.63330(7) 0.84276(12) 0.3294(5)
C25_4 C 0.66366(10) 0.79149(13) 0.3710(6)
H15_4 H 0.6865 0.7539 0.3503
C26_4 C 0.65991(12) 0.79640(17) 0.4434(6)
H16_4 H 0.6802 0.7621 0.4712
C27_4 C 0.62580(12) 0.8526(2) 0.4743(5)
C28_4 C 0.59544(12) 0.90384(17) 0.4328(6)
H17_4 H 0.5726 0.9414 0.4534
C29_4 C 0.59919(10) 0.89893(13) 0.3603(6)
H18_4 H 0.5789 0.9332 0.3325
C30_4 C 0.63656(11) 0.83871(18) 0.2543(6)
C36_4 C 0.2368(4) 0.8437(3) 0.9878(3)
H21_4 H 0.2124 0.8134 0.9587
C37_4 C 0.3088(4) 0.8369(3) 0.9951(3)
H22_4 H 0.3324 0.8019 0.9709
H27_4 H 0.0117 0.9287 0.9845
C40_4 C 0.9953(4) 0.80462(11) 0.09907(7)
C41_4 C 0.9228(4) 0.80048(13) 0.09954(11)
H25_4 H 0.9005 0.7683 0.1284
C42_4 C 0.8836(4) 0.84437(15) 0.05690(12)
C43_4 C 0.9170(4) 0.89241(14) 0.01381(11)
C44_4 C 0.9894(4) 0.89656(11) 0.01335(7)
C45_4 C 0.8055(4) 0.83880(15) 0.05842(13)
H26_4 H 0.8908 0.9218 0.9853
loop_
_geom_bond_atom_site_label_1
_geom_bond_atom_site_label_2
_geom_bond_site_symmetry_1
_geom_bond_site_symmetry_2
Zn6 O6 1_555 1_555
Zn2 O2 1_555 1_555
Zn8 O10 1_555 1_555
Zn4 O1 1_555 1_555
O1 C1 1_555 1_555
O2 C1 1_555 1_555
O3 C15 1_555 1_555
O4 C15 1_555 1_555
O5 Zn2 1_555 1_555
O6 C16 1_555 1_555
O9 Zn2 1_555 1_555
O10 C31 1_555 1_555
O13 Zn6 1_555 1_555
N1 C5 1_555 1_555
N3 C35 1_555 1_555
C1 C2 1_555 1_555
C2 C3 1_555 1_555
C3 H1 1_555 1_555
C4 C3 1_555 1_555
H2 C4 1_555 1_555
C5 C4 1_555 1_555
C6 C5 1_555 1_555
H3 C6 1_555 1_555
C7 C2 1_555 1_555
H4 C7 1_555 1_555
C8 N1 1_555 1_555
H5 C8 1_555 1_555
C9 C10 1_555 1_555
C10 H6 1_555 1_555
C11 C10 1_555 1_555
H7 C11 1_555 1_555
C12 C8 1_555 1_555
C13 C12 1_555 1_555
H8 C13 1_555 1_555
C14 C9 1_555 1_555
H9 C14 1_555 1_555
C15 C9 1_555 1_555
C16 O5 1_555 1_555
C17 C16 1_555 1_555
C18 C17 1_555 1_555
H10 C18 1_555 1_555
C22 C17 1_555 1_555
H13 C22 1_555 1_555
C31 O9 1_555 1_555
C32 C31 1_555 1_555
C33 C32 1_555 1_555
H19 C33 1_555 1_555
C34 C33 1_555 1_555
H20 C34 1_555 1_555
C35 C34 1_555 1_555
C36 C35 1_555 1_555
H21 C36 1_555 1_555
C37 C32 1_555 1_555
H22 C37 1_555 1_555
C38 N3 1_555 1_555
H23 C38 1_555 1_555
C39 C38 1_555 1_555
O16 Zn4 1_555 1_555
O17 Zn8 1_555 1_555
O18 Zn4 1_555 1_555
O19 Zn6 1_555 1_555
Zn2 O13 1_555 1_555
Zn8 O13 1_555 1_555
Zn4 O13 1_555 1_555
C6 C7 1_555 1_555
C11 C12 1_555 1_555
C13 C14 1_555 1_555
C36 C37 1_555 1_555
O16 C30 1_555 1_555
O17 C30 1_555 1_555
N2 C20 1_555 1_555
H11 C19 1_555 1_555
C20 C19 1_555 1_555
C21 C20 1_555 1_555
H12 C21 1_555 1_555
C23 N2 1_555 1_555
H14 C23 1_555 1_555
C24 C25 1_555 1_555
C25 H15 1_555 1_555
C26 C25 1_555 1_555
H16 C26 1_555 1_555
C27 C23 1_555 1_555
C28 C27 1_555 1_555
H17 C28 1_555 1_555
C29 C24 1_555 1_555
H18 C29 1_555 1_555
C30 C24 1_555 1_555
C26 C27 1_555 1_555
C28 C29 1_555 1_555
O18 C45 1_555 1_555
O19 C45 1_555 1_555
C41 C40 1_555 1_555
H25 C41 1_555 1_555
C42 C41 1_555 1_555
C43 C42 1_555 1_555
H26 C43 1_555 1_555
C45 C42 1_555 1_555
C43 C44 1_555 1_555
O11 C45_2 1_555 1_555
O12 C45_2 1_555 1_555
C41_2 C40_2 1_555 1_555
H25_2 C41_2 1_555 1_555
C42_2 C41_2 1_555 1_555
C43_2 C42_2 1_555 1_555
H26_2 C43_2 1_555 1_555
C45_2 C42_2 1_555 1_555
Zn5 O12 1_555 1_555
Zn9 O11 1_555 1_555
C43_2 C44_2 1_555 1_555
Zn5 O6_2 1_555 1_555
Zn2_2 O2_2 1_555 1_555
Zn3 O10_2 1_555 1_555
Zn9 O1_2 1_555 1_555
O1_2 C1_2 1_555 1_555
O2_2 C1_2 1_555 1_555
O14 C15_2 1_555 1_555
O15 C15_2 1_555 1_555
O5_2 Zn2_2 1_555 1_555
O6_2 C16_2 1_555 1_555
O9_2 Zn2_2 1_555 1_555
O10_2 C31_2 1_555 1_555
O13_2 Zn5 1_555 1_555
N1_2 C5_2 1_555 1_555
N2_2 C20_2 1_555 1_555
N3_2 C35_2 1_555 1_555
C1_2 C2_2 1_555 1_555
C2_2 C3_2 1_555 1_555
C3_2 H1_2 1_555 1_555
C4_2 C3_2 1_555 1_555
H2_2 C4_2 1_555 1_555
C5_2 C4_2 1_555 1_555
C6_2 C5_2 1_555 1_555
H3_2 C6_2 1_555 1_555
C7_2 C2_2 1_555 1_555
H4_2 C7_2 1_555 1_555
C8_2 N1_2 1_555 1_555
H5_2 C8_2 1_555 1_555
C9_2 C10_2 1_555 1_555
C10_2 H6_2 1_555 1_555
C11_2 C10_2 1_555 1_555
H7_2 C11_2 1_555 1_555
C12_2 C8_2 1_555 1_555
C13_2 C12_2 1_555 1_555
H8_2 C13_2 1_555 1_555
C14_2 C9_2 1_555 1_555
H9_2 C14_2 1_555 1_555
C15_2 C9_2 1_555 1_555
C16_2 O5_2 1_555 1_555
C17_2 C16_2 1_555 1_555
C18_2 C17_2 1_555 1_555
H10_2 C18_2 1_555 1_555
C19_2 C18_2 1_555 1_555
H11_2 C19_2 1_555 1_555
C20_2 C19_2 1_555 1_555
C21_2 C20_2 1_555 1_555
H12_2 C21_2 1_555 1_555
C22_2 C17_2 1_555 1_555
H13_2 C22_2 1_555 1_555
C23_2 N2_2 1_555 1_555
H14_2 C23_2 1_555 1_555
C24_2 C25_2 1_555 1_555
C25_2 H15_2 1_555 1_555
C26_2 C25_2 1_555 1_555
H16_2 C26_2 1_555 1_555
C27_2 C23_2 1_555 1_555
C28_2 C27_2 1_555 1_555
H17_2 C28_2 1_555 1_555
C29_2 C24_2 1_555 1_555
H18_2 C29_2 1_555 1_555
C30_2 C24_2 1_555 1_555
C31_2 O9_2 1_555 1_555
C32_2 C31_2 1_555 1_555
C33_2 C32_2 1_555 1_555
H19_2 C33_2 1_555 1_555
C34_2 C33_2 1_555 1_555
H20_2 C34_2 1_555 1_555
C35_2 C34_2 1_555 1_555
C36_2 C35_2 1_555 1_555
H21_2 C36_2 1_555 1_555
C37_2 C32_2 1_555 1_555
H22_2 C37_2 1_555 1_555
C38_2 N3_2 1_555 1_555
H23_2 C38_2 1_555 1_555
C39_2 C38_2 1_555 1_555
O16_2 Zn9 1_555 1_555
O17_2 Zn3 1_555 1_555
Zn2_2 O13_2 1_555 1_555
Zn3 O13_2 1_555 1_555
Zn9 O13_2 1_555 1_555
C6_2 C7_2 1_555 1_555
C11_2 C12_2 1_555 1_555
C13_2 C14_2 1_555 1_555
C21_2 C22_2 1_555 1_555
C26_2 C27_2 1_555 1_555
C28_2 C29_2 1_555 1_555
C36_2 C37_2 1_555 1_555
O11_2 C45_3 1_555 1_555
O12_2 C45_3 1_555 1_555
C41_3 C40_3 1_555 1_555
H25_3 C41_3 1_555 1_555
C42_3 C41_3 1_555 1_555
C43_3 C42_3 1_555 1_555
H26_3 C43_3 1_555 1_555
C45_3 C42_3 1_555 1_555
Zn5_2 O12_2 1_555 1_555
Zn9_2 O11_2 1_555 1_555
C43_3 C44_3 1_555 1_555
Zn5_2 O6_3 1_555 1_555
Zn2_3 O2_3 1_555 1_555
Zn8_2 O10_3 1_555 1_555
Zn9_2 O1_3 1_555 1_555
O1_3 C1_3 1_555 1_555
O2_3 C1_3 1_555 1_555
O3_2 C15_3 1_555 1_555
O4_2 C15_3 1_555 1_555
O5_3 Zn2_3 1_555 1_555
O6_3 C16_3 1_555 1_555
O9_3 Zn2_3 1_555 1_555
O10_3 C31_3 1_555 1_555
O13_3 Zn5_2 1_555 1_555
N1_3 C5_3 1_555 1_555
N2_3 C20_3 1_555 1_555
N3_3 C35_3 1_555 1_555
C1_3 C2_3 1_555 1_555
C2_3 C3_3 1_555 1_555
C3_3 H1_3 1_555 1_555
C4_3 C3_3 1_555 1_555
H2_3 C4_3 1_555 1_555
C5_3 C4_3 1_555 1_555
C6_3 C5_3 1_555 1_555
H3_3 C6_3 1_555 1_555
C7_3 C2_3 1_555 1_555
H4_3 C7_3 1_555 1_555
C8_3 N1_3 1_555 1_555
H5_3 C8_3 1_555 1_555
C9_3 C10_3 1_555 1_555
C10_3 H6_3 1_555 1_555
C11_3 C10_3 1_555 1_555
H7_3 C11_3 1_555 1_555
C12_3 C8_3 1_555 1_555
C13_3 C12_3 1_555 1_555
H8_3 C13_3 1_555 1_555
C14_3 C9_3 1_555 1_555
H9_3 C14_3 1_555 1_555
C15_3 C9_3 1_555 1_555
C16_3 O5_3 1_555 1_555
C17_3 C16_3 1_555 1_555
C18_3 C17_3 1_555 1_555
H10_3 C18_3 1_555 1_555
C19_3 C18_3 1_555 1_555
H11_3 C19_3 1_555 1_555
C20_3 C19_3 1_555 1_555
C21_3 C20_3 1_555 1_555
H12_3 C21_3 1_555 1_555
C22_3 C17_3 1_555 1_555
H13_3 C22_3 1_555 1_555
C23_3 N2_3 1_555 1_555
H14_3 C23_3 1_555 1_555
C31_3 O9_3 1_555 1_555
C32_3 C31_3 1_555 1_555
C33_3 C32_3 1_555 1_555
H19_3 C33_3 1_555 1_555
C34_3 C33_3 1_555 1_555
H20_3 C34_3 1_555 1_555
C35_3 C34_3 1_555 1_555
C36_3 C35_3 1_555 1_555
H21_3 C36_3 1_555 1_555
C37_3 C32_3 1_555 1_555
H22_3 C37_3 1_555 1_555
C38_3 N3_3 1_555 1_555
H23_3 C38_3 1_555 1_555
C39_3 C38_3 1_555 1_555
O16_3 Zn9_2 1_555 1_555
O17_3 Zn8_2 1_555 1_555
Zn2_3 O13_3 1_555 1_555
Zn8_2 O13_3 1_555 1_555
Zn9_2 O13_3 1_555 1_555
C6_3 C7_3 1_555 1_555
C11_3 C12_3 1_555 1_555
C13_3 C14_3 1_555 1_555
C21_3 C22_3 1_555 1_555
C36_3 C37_3 1_555 1_555
O16_3 C30_3 1_555 1_555
O17_3 C30_3 1_555 1_555
C24_3 C25_3 1_555 1_555
C25_3 H15_3 1_555 1_555
C26_3 C25_3 1_555 1_555
H16_3 C26_3 1_555 1_555
C28_3 C27_3 1_555 1_555
H17_3 C28_3 1_555 1_555
C29_3 C24_3 1_555 1_555
H18_3 C29_3 1_555 1_555
C30_3 C24_3 1_555 1_555
C26_3 C27_3 1_555 1_555
C28_3 C29_3 1_555 1_555
Zn2_4 O2_4 1_555 1_555
Zn3_2 O10_4 1_555 1_555
Zn4_2 O1_4 1_555 1_555
O1_4 C1_4 1_555 1_555
O2_4 C1_4 1_555 1_555
O14_2 C15_4 1_555 1_555
O15_2 C15_4 1_555 1_555
O9_4 Zn2_4 1_555 1_555
O10_4 C31_4 1_555 1_555
O13_4 Zn1 1_555 1_555
N1_4 C5_4 1_555 1_555
N3_4 C35_4 1_555 1_555
C1_4 C2_4 1_555 1_555
C2_4 C3_4 1_555 1_555
C3_4 H1_4 1_555 1_555
C4_4 C3_4 1_555 1_555
H2_4 C4_4 1_555 1_555
C5_4 C4_4 1_555 1_555
C6_4 C5_4 1_555 1_555
H3_4 C6_4 1_555 1_555
C7_4 C2_4 1_555 1_555
H4_4 C7_4 1_555 1_555
C8_4 N1_4 1_555 1_555
H5_4 C8_4 1_555 1_555
C9_4 C10_4 1_555 1_555
C11_4 C10_4 1_555 1_555
C12_4 C8_4 1_555 1_555
C13_4 C12_4 1_555 1_555
H8_4 C13_4 1_555 1_555
C14_4 C9_4 1_555 1_555
H9_4 C14_4 1_555 1_555
C15_4 C9_4 1_555 1_555
C31_4 O9_4 1_555 1_555
C32_4 C31_4 1_555 1_555
C33_4 C32_4 1_555 1_555
H19_4 C33_4 1_555 1_555
C34_4 C33_4 1_555 1_555
H20_4 C34_4 1_555 1_555
C35_4 C34_4 1_555 1_555
C38_4 N3_4 1_555 1_555
H23_4 C38_4 1_555 1_555
C39_4 C38_4 1_555 1_555
O16_4 Zn4_2 1_555 1_555
O17_4 Zn3_2 1_555 1_555
O18_2 Zn4_2 1_555 1_555
O19_2 Zn1 1_555 1_555
Zn2_4 O13_4 1_555 1_555
Zn3_2 O13_4 1_555 1_555
Zn4_2 O13_4 1_555 1_555
C6_4 C7_4 1_555 1_555
C11_4 C12_4 1_555 1_555
C13_4 C14_4 1_555 1_555
O6_4 C16_4 1_555 1_555
O16_4 C30_4 1_555 1_555
O17_4 C30_4 1_555 1_555
N2_4 C20_4 1_555 1_555
C16_4 O5_4 1_555 1_555
C17_4 C16_4 1_555 1_555
C18_4 C17_4 1_555 1_555
H10_4 C18_4 1_555 1_555
C19_4 C18_4 1_555 1_555
H11_4 C19_4 1_555 1_555
C20_4 C19_4 1_555 1_555
C21_4 C20_4 1_555 1_555
H12_4 C21_4 1_555 1_555
C22_4 C17_4 1_555 1_555
H13_4 C22_4 1_555 1_555
C23_4 N2_4 1_555 1_555
H14_4 C23_4 1_555 1_555
C24_4 C25_4 1_555 1_555
C25_4 H15_4 1_555 1_555
C26_4 C25_4 1_555 1_555
H16_4 C26_4 1_555 1_555
C27_4 C23_4 1_555 1_555
C28_4 C27_4 1_555 1_555
H17_4 C28_4 1_555 1_555
C29_4 C24_4 1_555 1_555
H18_4 C29_4 1_555 1_555
C30_4 C24_4 1_555 1_555
H21_4 C36_4 1_555 1_555
H22_4 C37_4 1_555 1_555
C21_4 C22_4 1_555 1_555
C26_4 C27_4 1_555 1_555
C28_4 C29_4 1_555 1_555
C36_4 C37_4 1_555 1_555
O18_2 C45_4 1_555 1_555
O19_2 C45_4 1_555 1_555
C41_4 C40_4 1_555 1_555
H25_4 C41_4 1_555 1_555
C42_4 C41_4 1_555 1_555
C43_4 C42_4 1_555 1_555
C45_4 C42_4 1_555 1_555
C43_4 C44_4 1_555 1_555

#END
