
###############################################################################
#
# This file contains modified crystal structure data generated from the
# MOF subset of the Cambridge Structural Database (CSD) v543 
# hosted by the Cambridge Crystallographic Data Centre (CCDC).
#
# This work is licensed under the Creative Commons
# Attribution-NonCommercial-ShareAlike 4.0 International License.
# To view a copy of this license, visit
# http://creativecommons.org/licenses/by-nc-sa/4.0/
# or send a letter to
# Creative Commons, PO Box 1866, Mountain View, CA 94042, USA.
#
# CIF created using the CSD Python API on 29 September 2022
# The structure has been converted into the P1 space group
# The structure has a 3D framework
# The original CSD entry QAVWAN is in the monoclinic crystal system
# The framework has been calculated to contain at least 10.0% void space
# The void calculation uses a probe of radius 1.32A, grid spacing 0.4
#
###############################################################################

data_QAVWAN
_chemical_formula_moiety         '(C144 H96 N8 O32 Zn8)n'
_symmetry_cell_setting           triclinic
_symmetry_space_group_name_H-M   'P 1'
_symmetry_Int_Tables_number      1
_space_group_name_Hall           'P 1'
loop_
_symmetry_equiv_pos_site_id
_symmetry_equiv_pos_as_xyz
1 x,y,z
_cell_length_a                   18.198(4)
_cell_length_b                   18.607(4)
_cell_length_c                   13.922(3)
_cell_angle_alpha                90
_cell_angle_beta                 113.776(3)
_cell_angle_gamma                90
_cell_volume                     4314.04
loop_
_atom_site_label
_atom_site_type_symbol
_atom_site_fract_x
_atom_site_fract_y
_atom_site_fract_z
H5 H 0.0145 0.0615 0.0033
Zn2 Zn 0.02714(3) 0.16036(3) 0.36662(4)
Zn6 Zn 0.47286(3) 0.66036(3) 0.13338(4)
Zn7 Zn 0.52714(3) 0.66036(3) 0.36662(4)
O5 O 0.1127(2) 0.22381(19) 0.3546(3)
O6 O 0.0514(2) 0.24340(18) 0.1811(3)
O7 O 0.4040(2) 0.57368(18) 0.1319(3)
O9 O 0.0960(2) 0.07368(18) 0.3681(3)
O10 O 0.4284(2) 0.59280(19) 0.3012(3)
O11 O 0.0716(2) 0.09280(19) 0.1988(3)
N3 N 0.0310(3) 0.1601(2) 0.5159(3)
C19 C 0.1055(3) 0.2557(3) 0.2707(4)
C20 C 0.1648(4) 0.3131(3) 0.2778(4)
C21 C 0.2190(3) 0.3391(3) 0.3764(4)
H13 H 0.2182 0.3189 0.4387
C22 C 0.2714(3) 0.3918(3) 0.3839(4)
H14 H 0.3073 0.4081 0.4512
C23 C 0.1672(4) 0.3419(4) 0.1890(5)
H15 H 0.1317 0.3240 0.1225
C24 C 0.2738(4) 0.4233(3) 0.2925(4)
C25 C 0.3267(4) 0.4787(3) 0.2955(4)
H16 H 0.3599 0.4990 0.3615
C32 C 0.3322(4) 0.5047(3) 0.2067(4)
C33 C 0.3926(3) 0.5619(3) 0.2142(4)
C34 C 0.2807(5) 0.4782(4) 0.1086(5)
H23 H 0.2829 0.4971 0.0464
C35 C 0.2264(5) 0.4244(5) 0.1023(6)
H24 H 0.1924 0.4059 0.0355
C36 C 0.2206(5) 0.3967(4) 0.1933(5)
C8 C 0.0003(3) 0.1015(3) 0.9570(4)
C9 C 0.0126(4) 0.0968(3) 0.8672(4)
H6 H 0.0349 0.0545 0.8516
C28 C 0.0078(4) 0.1548(3) 0.7014(4)
C29 C 0.0401(3) 0.2148(3) 0.6755(4)
H19 H 0.0540 0.2553 0.7208
C30 C 0.0525(3) 0.2164(3) 0.5833(4)
C31 C 0.0886(4) 0.2807(3) 0.5535(4)
H20 H 0.1397 0.2670 0.5505
H21 H 0.0981 0.3186 0.6060
H22 H 0.0516 0.2983 0.4846
Zn1 Zn 0.97286(3) 0.16036(3) 0.13338(4)
O1 O 0.8873(2) 0.22381(19) 0.1454(3)
O2 O 0.9486(2) 0.24340(18) 0.3189(3)
O3 O 0.5960(2) 0.57368(18) 0.3681(3)
O4 O 0.5716(2) 0.59280(19) 0.1988(3)
C1 C 0.8945(3) 0.2557(3) 0.2293(4)
C2 C 0.8352(4) 0.3131(3) 0.2222(4)
C3 C 0.7810(3) 0.3391(3) 0.1236(4)
H1 H 0.7818 0.3189 0.0613
C4 C 0.7286(3) 0.3918(3) 0.1161(4)
H2 H 0.6927 0.4081 0.0488
C5 C 0.8328(4) 0.3419(4) 0.3110(5)
H3 H 0.8683 0.3240 0.3775
C6 C 0.7262(4) 0.4233(3) 0.2075(4)
C7 C 0.6733(4) 0.4787(3) 0.2045(4)
H4 H 0.6401 0.4990 0.1385
H10 H 0.9484 0.2983 0.0154
C14 C 0.6678(4) 0.5047(3) 0.2933(4)
C15 C 0.6074(3) 0.5619(3) 0.2858(4)
C16 C 0.7193(5) 0.4782(4) 0.3914(5)
H11 H 0.7171 0.4971 0.4536
C17 C 0.7736(5) 0.4244(5) 0.3977(6)
H12 H 0.8076 0.4059 0.4645
C18 C 0.7794(5) 0.3967(4) 0.3067(5)
O8 O 0.9040(2) 0.07368(18) 0.1319(3)
O12 O 0.9284(2) 0.09280(19) 0.3012(3)
N1 N 0.9690(3) 0.1601(2) 0.9841(3)
C10 C 0.9922(4) 0.1548(3) 0.7986(4)
C11 C 0.9599(3) 0.2148(3) 0.8245(4)
H7 H 0.9460 0.2553 0.7792
C12 C 0.9475(3) 0.2164(3) 0.9167(4)
C13 C 0.9114(4) 0.2807(3) 0.9465(4)
H8 H 0.8603 0.2670 0.9495
H9 H 0.9019 0.3186 0.8940
C26 C 0.9997(3) 0.1015(3) 0.5430(4)
H17 H 0.9855 0.0615 0.4967
C27 C 0.9874(4) 0.0968(3) 0.6328(4)
H18 H 0.9651 0.0545 0.6484
C14_2 C 0.1678(4) 0.0047(3) 0.2933(4)
C15_2 C 0.1074(3) 0.0619(3) 0.2858(4)
C32_2 C 0.8322(4) 0.0047(3) 0.2067(4)
C33_2 C 0.8926(3) 0.0619(3) 0.2142(4)
O1_2 O 0.3873(2) 0.72381(19) 0.1454(3)
O2_2 O 0.4486(2) 0.74340(18) 0.3189(3)
C1_2 C 0.3945(3) 0.7557(3) 0.2293(4)
C2_2 C 0.3352(4) 0.8131(3) 0.2222(4)
C3_2 C 0.2810(3) 0.8391(3) 0.1236(4)
H1_2 H 0.2818 0.8189 0.0613
C4_2 C 0.2286(3) 0.8918(3) 0.1161(4)
H2_2 H 0.1927 0.9081 0.0488
C5_2 C 0.3328(4) 0.8419(4) 0.3110(5)
H3_2 H 0.3683 0.8240 0.3775
C6_2 C 0.2262(4) 0.9233(3) 0.2075(4)
C7_2 C 0.1733(4) 0.9787(3) 0.2045(4)
H4_2 H 0.1401 0.9990 0.1385
H5_2 H 0.5145 0.5615 0.0033
H10_2 H 0.4484 0.7983 0.0154
C16_2 C 0.2193(5) 0.9782(4) 0.3914(5)
H11_2 H 0.2171 0.9971 0.4536
C17_2 C 0.2736(5) 0.9244(5) 0.3977(6)
H12_2 H 0.3076 0.9059 0.4645
C18_2 C 0.2794(5) 0.8967(4) 0.3067(5)
O5_2 O 0.6127(2) 0.72381(19) 0.3546(3)
O6_2 O 0.5514(2) 0.74340(18) 0.1811(3)
N3_2 N 0.5310(3) 0.6601(2) 0.5159(3)
C19_2 C 0.6055(3) 0.7557(3) 0.2707(4)
C20_2 C 0.6648(4) 0.8131(3) 0.2778(4)
C21_2 C 0.7190(3) 0.8391(3) 0.3764(4)
H13_2 H 0.7182 0.8189 0.4387
C22_2 C 0.7714(3) 0.8918(3) 0.3839(4)
H14_2 H 0.8073 0.9081 0.4512
C23_2 C 0.6672(4) 0.8419(4) 0.1890(5)
H15_2 H 0.6317 0.8240 0.1225
C24_2 C 0.7738(4) 0.9233(3) 0.2925(4)
C25_2 C 0.8267(4) 0.9787(3) 0.2955(4)
H16_2 H 0.8599 0.9990 0.3615
C34_2 C 0.7807(5) 0.9782(4) 0.1086(5)
H23_2 H 0.7829 0.9971 0.0464
C35_2 C 0.7264(5) 0.9244(5) 0.1023(6)
H24_2 H 0.6924 0.9059 0.0355
C36_2 C 0.7206(5) 0.8967(4) 0.1933(5)
N1_2 N 0.4690(3) 0.6601(2) 0.9841(3)
C8_2 C 0.5003(3) 0.6015(3) 0.9570(4)
C9_2 C 0.5126(4) 0.5968(3) 0.8672(4)
H6_2 H 0.5349 0.5545 0.8516
C10_2 C 0.4922(4) 0.6548(3) 0.7986(4)
C11_2 C 0.4599(3) 0.7148(3) 0.8245(4)
H7_2 H 0.4460 0.7553 0.7792
C12_2 C 0.4475(3) 0.7164(3) 0.9167(4)
C13_2 C 0.4114(4) 0.7807(3) 0.9465(4)
H8_2 H 0.3603 0.7670 0.9495
H9_2 H 0.4019 0.8186 0.8940
C26_2 C 0.4997(3) 0.6015(3) 0.5430(4)
H17_2 H 0.4855 0.5615 0.4967
C27_2 C 0.4874(4) 0.5968(3) 0.6328(4)
H18_2 H 0.4651 0.5545 0.6484
C28_2 C 0.5078(4) 0.6548(3) 0.7014(4)
C29_2 C 0.5401(3) 0.7148(3) 0.6755(4)
H19_2 H 0.5540 0.7553 0.7208
C30_2 C 0.5525(3) 0.7164(3) 0.5833(4)
C31_2 C 0.5886(4) 0.7807(3) 0.5535(4)
H20_2 H 0.6397 0.7670 0.5505
H21_2 H 0.5981 0.8186 0.6060
H22_2 H 0.5516 0.7983 0.4846
N1_3 N 0.0310(3) 0.8399(2) 0.0159(3)
C10_3 C 0.0078(4) 0.8452(3) 0.2014(4)
C11_3 C 0.0401(3) 0.7852(3) 0.1755(4)
H7_3 H 0.0540 0.7447 0.2208
C12_3 C 0.0525(3) 0.7836(3) 0.0833(4)
C13_3 C 0.0886(4) 0.7193(3) 0.0535(4)
H8_3 H 0.1397 0.7330 0.0505
H9_3 H 0.0981 0.6814 0.1060
C26_3 C 0.0003(3) 0.8985(3) 0.4570(4)
H17_3 H 0.0145 0.9385 0.5033
C27_3 C 0.0126(4) 0.9032(3) 0.3672(4)
H18_3 H 0.0349 0.9455 0.3516
Zn1_2 Zn 0.02714(3) 0.83964(3) 0.86662(4)
O1_3 O 0.1127(2) 0.77619(19) 0.8546(3)
O2_3 O 0.0514(2) 0.75660(18) 0.6811(3)
O3_2 O 0.4040(2) 0.42632(18) 0.6319(3)
O4_2 O 0.4284(2) 0.40720(19) 0.8012(3)
C1_3 C 0.1055(3) 0.7443(3) 0.7707(4)
C2_3 C 0.1648(4) 0.6869(3) 0.7778(4)
C3_3 C 0.2190(3) 0.6609(3) 0.8764(4)
H1_3 H 0.2182 0.6811 0.9387
C4_3 C 0.2714(3) 0.6082(3) 0.8839(4)
H2_3 H 0.3073 0.5919 0.9512
C5_3 C 0.1672(4) 0.6581(4) 0.6890(5)
H3_3 H 0.1317 0.6760 0.6225
C6_3 C 0.2738(4) 0.5767(3) 0.7925(4)
C7_3 C 0.3267(4) 0.5213(3) 0.7955(4)
H4_3 H 0.3599 0.5010 0.8615
H10_3 H 0.0516 0.7017 0.9846
C14_3 C 0.3322(4) 0.4953(3) 0.7067(4)
C15_3 C 0.3926(3) 0.4381(3) 0.7142(4)
C16_3 C 0.2807(5) 0.5218(4) 0.6086(5)
H11_3 H 0.2829 0.5029 0.5464
C17_3 C 0.2264(5) 0.5756(5) 0.6023(6)
H12_3 H 0.1924 0.5941 0.5355
C18_3 C 0.2206(5) 0.6033(4) 0.6933(5)
Zn3 Zn 0.47286(3) 0.33964(3) 0.63338(4)
Zn4 Zn 0.52714(3) 0.33964(3) 0.86662(4)
O8_2 O 0.0960(2) 0.92632(18) 0.8681(3)
O12_2 O 0.0716(2) 0.90720(19) 0.6988(3)
C8_3 C 0.9997(3) 0.8985(3) 0.0430(4)
C9_3 C 0.9874(4) 0.9032(3) 0.1328(4)
H6_3 H 0.9651 0.9455 0.1484
Zn5 Zn 0.97286(3) 0.83964(3) 0.63338(4)
N2 N 0.9690(3) 0.8399(2) 0.4841(3)
C28_3 C 0.9922(4) 0.8452(3) 0.2986(4)
C29_3 C 0.9599(3) 0.7852(3) 0.3245(4)
H19_3 H 0.9460 0.7447 0.2792
C30_3 C 0.9475(3) 0.7836(3) 0.4167(4)
C31_3 C 0.9114(4) 0.7193(3) 0.4465(4)
H20_3 H 0.8603 0.7330 0.4495
H21_3 H 0.9019 0.6814 0.3940
H22_3 H 0.9484 0.7017 0.5154
H5_3 H 0.9855 0.9385 0.9967
O5_3 O 0.8873(2) 0.77619(19) 0.6454(3)
O6_3 O 0.9486(2) 0.75660(18) 0.8189(3)
O7_2 O 0.5960(2) 0.42632(18) 0.8681(3)
O9_2 O 0.9040(2) 0.92632(18) 0.6319(3)
O10_2 O 0.5716(2) 0.40720(19) 0.6988(3)
O11_2 O 0.9284(2) 0.90720(19) 0.8012(3)
C19_3 C 0.8945(3) 0.7443(3) 0.7293(4)
C20_3 C 0.8352(4) 0.6869(3) 0.7222(4)
C21_3 C 0.7810(3) 0.6609(3) 0.6236(4)
H13_3 H 0.7818 0.6811 0.5613
C22_3 C 0.7286(3) 0.6082(3) 0.6161(4)
H14_3 H 0.6927 0.5919 0.5488
C23_3 C 0.8328(4) 0.6581(4) 0.8110(5)
H15_3 H 0.8683 0.6760 0.8775
C24_3 C 0.7262(4) 0.5767(3) 0.7075(4)
C25_3 C 0.6733(4) 0.5213(3) 0.7045(4)
H16_3 H 0.6401 0.5010 0.6385
C32_3 C 0.6678(4) 0.4953(3) 0.7933(4)
C33_3 C 0.6074(3) 0.4381(3) 0.7858(4)
C34_3 C 0.7193(5) 0.5218(4) 0.8914(5)
H23_3 H 0.7171 0.5029 0.9536
C35_3 C 0.7736(5) 0.5756(5) 0.8977(6)
H24_3 H 0.8076 0.5941 0.9645
C36_3 C 0.7794(5) 0.6033(4) 0.8067(5)
N1_4 N 0.5310(3) 0.3399(2) 0.0159(3)
C8_4 C 0.4997(3) 0.3985(3) 0.0430(4)
C9_4 C 0.4874(4) 0.4032(3) 0.1328(4)
H6_4 H 0.4651 0.4455 0.1484
C10_4 C 0.5078(4) 0.3452(3) 0.2014(4)
C11_4 C 0.5401(3) 0.2852(3) 0.1755(4)
H7_4 H 0.5540 0.2447 0.2208
C12_4 C 0.5525(3) 0.2836(3) 0.0833(4)
C13_4 C 0.5886(4) 0.2193(3) 0.0535(4)
H8_4 H 0.6397 0.2330 0.0505
H9_4 H 0.5981 0.1814 0.1060
N2_2 N 0.4690(3) 0.3399(2) 0.4841(3)
C26_4 C 0.5003(3) 0.3985(3) 0.4570(4)
H17_4 H 0.5145 0.4385 0.5033
C27_4 C 0.5126(4) 0.4032(3) 0.3672(4)
H18_4 H 0.5349 0.4455 0.3516
C28_4 C 0.4922(4) 0.3452(3) 0.2986(4)
C29_4 C 0.4599(3) 0.2852(3) 0.3245(4)
H19_4 H 0.4460 0.2447 0.2792
C30_4 C 0.4475(3) 0.2836(3) 0.4167(4)
C31_4 C 0.4114(4) 0.2193(3) 0.4465(4)
H20_4 H 0.3603 0.2330 0.4495
H21_4 H 0.4019 0.1814 0.3940
H22_4 H 0.4484 0.2017 0.5154
O1_4 O 0.6127(2) 0.27619(19) 0.8546(3)
O2_4 O 0.5514(2) 0.25660(18) 0.6811(3)
C1_4 C 0.6055(3) 0.2443(3) 0.7707(4)
C2_4 C 0.6648(4) 0.1869(3) 0.7778(4)
C3_4 C 0.7190(3) 0.1609(3) 0.8764(4)
H1_4 H 0.7182 0.1811 0.9387
C4_4 C 0.7714(3) 0.1082(3) 0.8839(4)
H2_4 H 0.8073 0.0919 0.9512
C5_4 C 0.6672(4) 0.1581(4) 0.6890(5)
H3_4 H 0.6317 0.1760 0.6225
C6_4 C 0.7738(4) 0.0767(3) 0.7925(4)
C7_4 C 0.8267(4) 0.0213(3) 0.7955(4)
H4_4 H 0.8599 0.0010 0.8615
H5_4 H 0.4855 0.4385 0.9967
H10_4 H 0.5516 0.2017 0.9846
C16_4 C 0.7807(5) 0.0218(4) 0.6086(5)
H11_4 H 0.7829 0.0029 0.5464
C17_4 C 0.7264(5) 0.0756(5) 0.6023(6)
H12_4 H 0.6924 0.0941 0.5355
C18_4 C 0.7206(5) 0.1033(4) 0.6933(5)
O5_4 O 0.3873(2) 0.27619(19) 0.6454(3)
O6_4 O 0.4486(2) 0.25660(18) 0.8189(3)
C19_4 C 0.3945(3) 0.2443(3) 0.7293(4)
C20_4 C 0.3352(4) 0.1869(3) 0.7222(4)
C21_4 C 0.2810(3) 0.1609(3) 0.6236(4)
H13_4 H 0.2818 0.1811 0.5613
C22_4 C 0.2286(3) 0.1082(3) 0.6161(4)
H14_4 H 0.1927 0.0919 0.5488
C23_4 C 0.3328(4) 0.1581(4) 0.8110(5)
H15_4 H 0.3683 0.1760 0.8775
C24_4 C 0.2262(4) 0.0767(3) 0.7075(4)
C25_4 C 0.1733(4) 0.0213(3) 0.7045(4)
H16_4 H 0.1401 0.0010 0.6385
C34_4 C 0.2193(5) 0.0218(4) 0.8914(5)
H23_4 H 0.2171 0.0029 0.9536
C35_4 C 0.2736(5) 0.0756(5) 0.8977(6)
H24_4 H 0.3076 0.0941 0.9645
C36_4 C 0.2794(5) 0.1033(4) 0.8067(5)
C14_4 C 0.8322(4) 0.9953(3) 0.7067(4)
C15_4 C 0.8926(3) 0.9381(3) 0.7142(4)
C32_4 C 0.1678(4) 0.9953(3) 0.7933(4)
C33_4 C 0.1074(3) 0.9381(3) 0.7858(4)
loop_
_geom_bond_atom_site_label_1
_geom_bond_atom_site_label_2
_geom_bond_site_symmetry_1
_geom_bond_site_symmetry_2
Zn6 O7 1_555 1_555
Zn7 O10 1_555 1_555
O5 Zn2 1_555 1_555
O7 C33 1_555 1_555
O9 Zn2 1_555 1_555
O10 C33 1_555 1_555
N3 Zn2 1_555 1_555
C19 O5 1_555 1_555
C20 C19 1_555 1_555
C21 C20 1_555 1_555
H13 C21 1_555 1_555
C22 C21 1_555 1_555
H14 C22 1_555 1_555
C23 C20 1_555 1_555
H15 C23 1_555 1_555
C24 C22 1_555 1_555
C25 C24 1_555 1_555
H16 C25 1_555 1_555
C32 C25 1_555 1_555
C33 C32 1_555 1_555
C34 C32 1_555 1_555
H23 C34 1_555 1_555
C35 C34 1_555 1_555
H24 C35 1_555 1_555
C36 C23 1_555 1_555
O6 C19 1_555 1_555
C24 C36 1_555 1_555
C35 C36 1_555 1_555
C9 C8 1_555 1_555
H6 C9 1_555 1_555
C29 C28 1_555 1_555
H19 C29 1_555 1_555
C30 N3 1_555 1_555
C31 C30 1_555 1_555
H20 C31 1_555 1_555
H21 C31 1_555 1_555
H22 C31 1_555 1_555
C29 C30 1_555 1_555
Zn1 O1 1_555 1_555
O1 C1 1_555 1_555
O2 C1 1_555 1_555
O3 C15 1_555 1_555
O4 C15 1_555 1_555
C1 C2 1_555 1_555
C2 C3 1_555 1_555
C3 H1 1_555 1_555
C4 C3 1_555 1_555
H2 C4 1_555 1_555
C5 C2 1_555 1_555
H3 C5 1_555 1_555
C6 C4 1_555 1_555
C7 C6 1_555 1_555
H4 C7 1_555 1_555
C14 C7 1_555 1_555
C15 C14 1_555 1_555
C16 C14 1_555 1_555
H11 C16 1_555 1_555
C17 C16 1_555 1_555
H12 C17 1_555 1_555
C18 C5 1_555 1_555
Zn7 O3 1_555 1_555
Zn6 O4 1_555 1_555
O8 Zn1 1_555 1_555
C6 C18 1_555 1_555
C17 C18 1_555 1_555
C11 C10 1_555 1_555
H7 C11 1_555 1_555
C12 N1 1_555 1_555
C13 C12 1_555 1_555
H8 C13 1_555 1_555
H9 C13 1_555 1_555
C26 H17 1_555 1_555
C27 C26 1_555 1_555
H18 C27 1_555 1_555
C11 C12 1_555 1_555
O9 C15_2 1_555 1_555
O11 C15_2 1_555 1_555
C15_2 C14_2 1_555 1_555
O8 C33_2 1_555 1_555
O12 C33_2 1_555 1_555
C33_2 C32_2 1_555 1_555
Zn6 O1_2 1_555 1_555
O1_2 C1_2 1_555 1_555
O2_2 C1_2 1_555 1_555
C1_2 C2_2 1_555 1_555
C2_2 C3_2 1_555 1_555
C3_2 H1_2 1_555 1_555
C4_2 C3_2 1_555 1_555
H2_2 C4_2 1_555 1_555
C5_2 C2_2 1_555 1_555
H3_2 C5_2 1_555 1_555
C6_2 C4_2 1_555 1_555
C7_2 C6_2 1_555 1_555
H4_2 C7_2 1_555 1_555
H11_2 C16_2 1_555 1_555
C17_2 C16_2 1_555 1_555
H12_2 C17_2 1_555 1_555
C18_2 C5_2 1_555 1_555
Zn7 O2_2 1_555 1_555
O5_2 Zn7 1_555 1_555
O6_2 Zn6 1_555 1_555
N3_2 Zn7 1_555 1_555
C19_2 O5_2 1_555 1_555
C20_2 C19_2 1_555 1_555
C21_2 C20_2 1_555 1_555
H13_2 C21_2 1_555 1_555
C22_2 C21_2 1_555 1_555
H14_2 C22_2 1_555 1_555
C23_2 C20_2 1_555 1_555
H15_2 C23_2 1_555 1_555
C24_2 C22_2 1_555 1_555
C25_2 C24_2 1_555 1_555
H16_2 C25_2 1_555 1_555
H23_2 C34_2 1_555 1_555
C35_2 C34_2 1_555 1_555
H24_2 C35_2 1_555 1_555
C36_2 C23_2 1_555 1_555
C6_2 C18_2 1_555 1_555
C17_2 C18_2 1_555 1_555
O6_2 C19_2 1_555 1_555
C24_2 C36_2 1_555 1_555
C35_2 C36_2 1_555 1_555
C8_2 N1_2 1_555 1_555
C9_2 C8_2 1_555 1_555
H6_2 C9_2 1_555 1_555
C10_2 C9_2 1_555 1_555
C11_2 C10_2 1_555 1_555
H7_2 C11_2 1_555 1_555
C12_2 N1_2 1_555 1_555
C13_2 C12_2 1_555 1_555
H8_2 C13_2 1_555 1_555
H9_2 C13_2 1_555 1_555
N3_2 C26_2 1_555 1_555
C26_2 H17_2 1_555 1_555
C27_2 C26_2 1_555 1_555
H18_2 C27_2 1_555 1_555
C28_2 C10_2 1_555 1_555
C29_2 C28_2 1_555 1_555
H19_2 C29_2 1_555 1_555
C30_2 N3_2 1_555 1_555
C31_2 C30_2 1_555 1_555
H20_2 C31_2 1_555 1_555
H21_2 C31_2 1_555 1_555
H22_2 C31_2 1_555 1_555
C11_2 C12_2 1_555 1_555
C27_2 C28_2 1_555 1_555
C29_2 C30_2 1_555 1_555
C11_3 C10_3 1_555 1_555
H7_3 C11_3 1_555 1_555
C12_3 N1_3 1_555 1_555
C13_3 C12_3 1_555 1_555
H8_3 C13_3 1_555 1_555
H9_3 C13_3 1_555 1_555
C26_3 H17_3 1_555 1_555
C27_3 C26_3 1_555 1_555
H18_3 C27_3 1_555 1_555
C11_3 C12_3 1_555 1_555
Zn1_2 O1_3 1_555 1_555
O1_3 C1_3 1_555 1_555
O2_3 C1_3 1_555 1_555
O3_2 C15_3 1_555 1_555
O4_2 C15_3 1_555 1_555
C1_3 C2_3 1_555 1_555
C2_3 C3_3 1_555 1_555
C3_3 H1_3 1_555 1_555
C4_3 C3_3 1_555 1_555
H2_3 C4_3 1_555 1_555
C5_3 C2_3 1_555 1_555
H3_3 C5_3 1_555 1_555
C6_3 C4_3 1_555 1_555
C7_3 C6_3 1_555 1_555
H4_3 C7_3 1_555 1_555
C14_3 C7_3 1_555 1_555
C15_3 C14_3 1_555 1_555
C16_3 C14_3 1_555 1_555
H11_3 C16_3 1_555 1_555
C17_3 C16_3 1_555 1_555
H12_3 C17_3 1_555 1_555
C18_3 C5_3 1_555 1_555
Zn3 O3_2 1_555 1_555
Zn4 O4_2 1_555 1_555
O8_2 Zn1_2 1_555 1_555
C6_3 C18_3 1_555 1_555
C17_3 C18_3 1_555 1_555
C9_3 C8_3 1_555 1_555
H6_3 C9_3 1_555 1_555
Zn5 N2 1_555 1_555
C29_3 C28_3 1_555 1_555
H19_3 C29_3 1_555 1_555
C30_3 N2 1_555 1_555
C31_3 C30_3 1_555 1_555
H20_3 C31_3 1_555 1_555
H21_3 C31_3 1_555 1_555
H22_3 C31_3 1_555 1_555
C29_3 C30_3 1_555 1_555
Zn4 O7_2 1_555 1_555
Zn3 O10_2 1_555 1_555
O5_3 Zn5 1_555 1_555
O7_2 C33_3 1_555 1_555
O9_2 Zn5 1_555 1_555
O10_2 C33_3 1_555 1_555
C19_3 O5_3 1_555 1_555
C20_3 C19_3 1_555 1_555
C21_3 C20_3 1_555 1_555
H13_3 C21_3 1_555 1_555
C22_3 C21_3 1_555 1_555
H14_3 C22_3 1_555 1_555
C23_3 C20_3 1_555 1_555
H15_3 C23_3 1_555 1_555
C24_3 C22_3 1_555 1_555
C25_3 C24_3 1_555 1_555
H16_3 C25_3 1_555 1_555
C32_3 C25_3 1_555 1_555
C33_3 C32_3 1_555 1_555
C34_3 C32_3 1_555 1_555
H23_3 C34_3 1_555 1_555
C35_3 C34_3 1_555 1_555
H24_3 C35_3 1_555 1_555
C36_3 C23_3 1_555 1_555
O6_3 C19_3 1_555 1_555
C24_3 C36_3 1_555 1_555
C35_3 C36_3 1_555 1_555
C8_4 N1_4 1_555 1_555
C9_4 C8_4 1_555 1_555
H6_4 C9_4 1_555 1_555
C10_4 C9_4 1_555 1_555
C11_4 C10_4 1_555 1_555
H7_4 C11_4 1_555 1_555
C12_4 N1_4 1_555 1_555
C13_4 C12_4 1_555 1_555
H8_4 C13_4 1_555 1_555
H9_4 C13_4 1_555 1_555
Zn3 N2_2 1_555 1_555
N2_2 C26_4 1_555 1_555
C26_4 H17_4 1_555 1_555
C27_4 C26_4 1_555 1_555
H18_4 C27_4 1_555 1_555
C28_4 C10_4 1_555 1_555
C29_4 C28_4 1_555 1_555
H19_4 C29_4 1_555 1_555
C30_4 N2_2 1_555 1_555
C31_4 C30_4 1_555 1_555
H20_4 C31_4 1_555 1_555
H21_4 C31_4 1_555 1_555
H22_4 C31_4 1_555 1_555
C11_4 C12_4 1_555 1_555
C27_4 C28_4 1_555 1_555
C29_4 C30_4 1_555 1_555
Zn4 O1_4 1_555 1_555
O1_4 C1_4 1_555 1_555
O2_4 C1_4 1_555 1_555
C1_4 C2_4 1_555 1_555
C2_4 C3_4 1_555 1_555
C3_4 H1_4 1_555 1_555
C4_4 C3_4 1_555 1_555
H2_4 C4_4 1_555 1_555
C5_4 C2_4 1_555 1_555
H3_4 C5_4 1_555 1_555
C6_4 C4_4 1_555 1_555
C7_4 C6_4 1_555 1_555
H4_4 C7_4 1_555 1_555
H11_4 C16_4 1_555 1_555
C17_4 C16_4 1_555 1_555
H12_4 C17_4 1_555 1_555
C18_4 C5_4 1_555 1_555
Zn3 O2_4 1_555 1_555
O5_4 Zn3 1_555 1_555
O6_4 Zn4 1_555 1_555
C19_4 O5_4 1_555 1_555
C20_4 C19_4 1_555 1_555
C21_4 C20_4 1_555 1_555
H13_4 C21_4 1_555 1_555
C22_4 C21_4 1_555 1_555
H14_4 C22_4 1_555 1_555
C23_4 C20_4 1_555 1_555
H15_4 C23_4 1_555 1_555
C24_4 C22_4 1_555 1_555
C25_4 C24_4 1_555 1_555
H16_4 C25_4 1_555 1_555
H23_4 C34_4 1_555 1_555
C35_4 C34_4 1_555 1_555
H24_4 C35_4 1_555 1_555
C36_4 C23_4 1_555 1_555
C6_4 C18_4 1_555 1_555
C17_4 C18_4 1_555 1_555
O6_4 C19_4 1_555 1_555
C24_4 C36_4 1_555 1_555
C35_4 C36_4 1_555 1_555
O9_2 C15_4 1_555 1_555
O11_2 C15_4 1_555 1_555
C15_4 C14_4 1_555 1_555
O8_2 C33_4 1_555 1_555
O12_2 C33_4 1_555 1_555
C33_4 C32_4 1_555 1_555

#END
