
###############################################################################
#
# This file contains modified crystal structure data generated from the
# MOF subset of the Cambridge Structural Database (CSD) v543 
# hosted by the Cambridge Crystallographic Data Centre (CCDC).
#
# This work is licensed under the Creative Commons
# Attribution-NonCommercial-ShareAlike 4.0 International License.
# To view a copy of this license, visit
# http://creativecommons.org/licenses/by-nc-sa/4.0/
# or send a letter to
# Creative Commons, PO Box 1866, Mountain View, CA 94042, USA.
#
# CIF created using the CSD Python API on 29 September 2022
# The structure has been converted into the P1 space group
# The structure has a 3D framework
# The original CSD entry QAVYUJ is in the triclinic crystal system
# The framework has been calculated to contain at least 10.0% void space
# The void calculation uses a probe of radius 1.32A, grid spacing 0.4
#
###############################################################################

data_QAVYUJ
_chemical_formula_moiety         '(C26 H22 La2 N6 Ni2 O16)n'
_symmetry_cell_setting           triclinic
_symmetry_space_group_name_H-M   'P 1'
_symmetry_Int_Tables_number      1
_space_group_name_Hall           'P 1'
loop_
_symmetry_equiv_pos_site_id
_symmetry_equiv_pos_as_xyz
1 x,y,z
_cell_length_a                   7.2918(16)
_cell_length_b                   9.340(2)
_cell_length_c                   14.129(3)
_cell_angle_alpha                83.816(3)
_cell_angle_beta                 85.461(3)
_cell_angle_gamma                72.646(3)
_cell_volume                     911.994
loop_
_atom_site_label
_atom_site_type_symbol
_atom_site_fract_x
_atom_site_fract_y
_atom_site_fract_z
La7 La 0.50617(5) 0.28555(4) 0.59596(2)
O19 O 0.1617(6) 0.4825(5) 0.5924(3)
O22 O 0.2246(6) 0.3403(5) 0.7260(3)
C19 C 0.1274(9) 0.4575(7) 0.6798(4)
O25 O 0.7212(6) 0.0104(5) 0.6116(3)
O28 O 0.5199(7) 0.0609(5) 0.7349(3)
La1 La 0.49383(5) 0.71445(4) 0.40404(2)
Ni1 Ni 0.5000 0.5000 0.0000
O1 O 0.3736(6) 0.6435(5) 0.1039(3)
O2 O 0.3515(6) 0.6657(5) 0.2601(3)
O3 O 0.5954(7) 0.1904(5) 0.4218(3)
O4 O 0.4775(6) 0.4370(5) 0.4208(3)
N1 N 0.2657(7) 0.3980(6) 0.0244(3)
N2 N 0.6319(7) 0.3770(6) 0.1164(3)
C1 C 0.7356(9) 0.2380(7) 0.1407(4)
H3 H 0.8064 0.1708 0.0979
N3 N 0.7254(7) 0.2064(6) 0.2350(4)
H4 H 0.7835 0.1222 0.2653
C2 C 0.6073(8) 0.3299(7) 0.2754(4)
C3 C 0.5493(8) 0.4375(7) 0.2005(4)
C4 C 0.4154(9) 0.5949(7) 0.1893(4)
C5 C 0.5559(9) 0.3188(7) 0.3789(4)
C7 C 0.2041(8) 0.3580(7) 0.1190(4)
C8 C 0.0698(9) 0.4642(7) 0.1706(4)
H5 H 0.0105 0.5590 0.1411
C9 C 0.0238(8) 0.4291(7) 0.2662(4)
C10 C 0.1114(9) 0.2869(7) 0.3101(4)
H6 H 0.0815 0.2631 0.3740
C11 C 0.2886(8) 0.2157(7) 0.1629(4)
H7 H 0.3757 0.1435 0.1281
C12 C 0.2443(8) 0.1802(7) 0.2580(4)
C13 C 0.3407(9) 0.0273(7) 0.3066(4)
O9 O 0.7184(7) 0.8643(6) 0.4483(3)
H8 H 0.7342 0.8976 0.4996
H9 H 0.7304 0.9367 0.4090
O10 O 0.1487(7) 0.7094(6) 0.4519(3)
H10 H 0.1442 0.6242 0.4778
H11 H 0.0360 0.7414 0.4313
O14 O 0.4046(7) 0.8096(5) 0.5782(3)
O17 O 0.5225(6) 0.5630(5) 0.5792(3)
O20 O 0.8383(6) 0.5175(5) 0.4076(3)
O23 O 0.7754(6) 0.6597(5) 0.2740(3)
H12 H 0.8373 0.5380 0.0039
H13 H 0.7002 0.6859 0.0066
O26 O 0.2788(6) 0.9896(5) 0.3884(3)
O29 O 0.4801(7) 0.9391(5) 0.2651(3)
Ni1_2 Ni 0.5000 0.5000 1.0000
H1 H 0.1627 0.4620 0.9961
H2 H 0.2998 0.3141 0.9934
O11 O 0.6264(6) 0.3565(5) 0.8961(3)
O12 O 0.6485(6) 0.3343(5) 0.7399(3)
N4 N 0.7343(7) 0.6020(6) 0.9756(3)
N5 N 0.3681(7) 0.6230(6) 0.8836(3)
C14 C 0.2644(9) 0.7620(7) 0.8593(4)
H14 H 0.1936 0.8292 0.9021
N6 N 0.2746(7) 0.7936(6) 0.7650(4)
H15 H 0.2165 0.8778 0.7347
C15 C 0.3927(8) 0.6701(7) 0.7246(4)
C16 C 0.4507(8) 0.5625(7) 0.7995(4)
C17 C 0.5846(9) 0.4051(7) 0.8107(4)
C18 C 0.4441(9) 0.6812(7) 0.6211(4)
C20 C 0.7959(8) 0.6420(7) 0.8810(4)
C21 C 0.9302(9) 0.5358(7) 0.8294(4)
H16 H 0.9895 0.4410 0.8589
C22 C 0.9762(8) 0.5709(7) 0.7338(4)
C23 C 0.8886(9) 0.7131(7) 0.6899(4)
H17 H 0.9185 0.7369 0.6260
C24 C 0.7114(8) 0.7843(7) 0.8371(4)
H18 H 0.6243 0.8565 0.8719
C25 C 0.7557(8) 0.8198(7) 0.7420(4)
C26 C 0.6593(9) 0.9727(7) 0.6934(4)
O31 O 0.2816(7) 0.1357(6) 0.5517(3)
H19 H 0.2658 0.1024 0.5004
H20 H 0.2696 0.0633 0.5910
O32 O 0.8513(7) 0.2906(6) 0.5481(3)
H21 H 0.8558 0.3758 0.5222
H22 H 0.9640 0.2586 0.5687
C6 C 0.8726(9) 0.5425(7) 0.3202(4)
loop_
_geom_bond_atom_site_label_1
_geom_bond_atom_site_label_2
_geom_bond_site_symmetry_1
_geom_bond_site_symmetry_2
La7 O19 1_555 1_555
O19 C19 1_555 1_555
O22 La7 1_555 1_555
C19 O22 1_555 1_555
La7 O25 1_555 1_555
O28 La7 1_555 1_555
La1 O2 1_555 1_555
Ni1 O1 1_555 1_555
O1 C4 1_555 1_555
O2 C4 1_555 1_555
O3 C5 1_555 1_555
O4 La1 1_555 1_555
N1 Ni1 1_555 1_555
N2 Ni1 1_555 1_555
C1 N2 1_555 1_555
H3 C1 1_555 1_555
N3 C1 1_555 1_555
H4 N3 1_555 1_555
C2 N3 1_555 1_555
C3 N2 1_555 1_555
C4 C3 1_555 1_555
C5 O4 1_555 1_555
C7 N1 1_555 1_555
C8 C7 1_555 1_555
H5 C8 1_555 1_555
C9 C8 1_555 1_555
C10 C9 1_555 1_555
H6 C10 1_555 1_555
C11 C7 1_555 1_555
H7 C11 1_555 1_555
C12 C10 1_555 1_555
C13 C12 1_555 1_555
O9 La1 1_555 1_555
H8 O9 1_555 1_555
H9 O9 1_555 1_555
O10 La1 1_555 1_555
H10 O10 1_555 1_555
H11 O10 1_555 1_555
La7 O3 1_555 1_555
O14 La1 1_555 1_555
O17 La1 1_555 1_555
O20 La1 1_555 1_555
O23 La1 1_555 1_555
O26 La1 1_555 1_555
O29 La1 1_555 1_555
O4 La7 1_555 1_555
C2 C3 1_555 1_555
C2 C5 1_555 1_555
C11 C12 1_555 1_555
La7 O17 1_555 1_555
La7 O12 1_555 1_555
O11 Ni1_2 1_555 1_555
O12 C17 1_555 1_555
O14 C18 1_555 1_555
N4 Ni1_2 1_555 1_555
N5 Ni1_2 1_555 1_555
C14 N5 1_555 1_555
H14 C14 1_555 1_555
N6 C14 1_555 1_555
H15 N6 1_555 1_555
C15 N6 1_555 1_555
C16 N5 1_555 1_555
C17 O11 1_555 1_555
C18 O17 1_555 1_555
C20 N4 1_555 1_555
C21 C20 1_555 1_555
H16 C21 1_555 1_555
C23 C22 1_555 1_555
H17 C23 1_555 1_555
C24 C20 1_555 1_555
H18 C24 1_555 1_555
C25 C23 1_555 1_555
C26 C25 1_555 1_555
O31 La7 1_555 1_555
H19 O31 1_555 1_555
H20 O31 1_555 1_555
O32 La7 1_555 1_555
H21 O32 1_555 1_555
H22 O32 1_555 1_555
C15 C16 1_555 1_555
C15 C18 1_555 1_555
C16 C17 1_555 1_555
C21 C22 1_555 1_555
C24 C25 1_555 1_555
O20 C6 1_555 1_555
O23 C6 1_555 1_555

#END
