
###############################################################################
#
# This file contains modified crystal structure data generated from the
# MOF subset of the Cambridge Structural Database (CSD) v543 
# hosted by the Cambridge Crystallographic Data Centre (CCDC).
#
# This work is licensed under the Creative Commons
# Attribution-NonCommercial-ShareAlike 4.0 International License.
# To view a copy of this license, visit
# http://creativecommons.org/licenses/by-nc-sa/4.0/
# or send a letter to
# Creative Commons, PO Box 1866, Mountain View, CA 94042, USA.
#
# CIF created using the CSD Python API on 29 September 2022
# The structure has been converted into the P1 space group
# The structure has a 3D framework
# The original CSD entry QAVZAQ is in the triclinic crystal system
# The framework has been calculated to contain at least 10.0% void space
# The void calculation uses a probe of radius 1.32A, grid spacing 0.4
#
###############################################################################

data_QAVZAQ
_chemical_formula_moiety         '(C26 H22 N6 Nd2 Ni1 O16)n'
_symmetry_cell_setting           triclinic
_symmetry_space_group_name_H-M   'P 1'
_symmetry_Int_Tables_number      1
_space_group_name_Hall           'P 1'
loop_
_symmetry_equiv_pos_site_id
_symmetry_equiv_pos_as_xyz
1 x,y,z
_cell_length_a                   7.2904(12)
_cell_length_b                   9.2414(15)
_cell_length_c                   14.014(2)
_cell_angle_alpha                83.886(2)
_cell_angle_beta                 85.398(2)
_cell_angle_gamma                72.647(2)
_cell_volume                     894.903
loop_
_atom_site_label
_atom_site_type_symbol
_atom_site_fract_x
_atom_site_fract_y
_atom_site_fract_z
_atom_site_U_iso_or_equiv
_atom_site_thermal_displace_type
O1 O 0.2318(5) 0.3417(4) 0.2244(2) 0.0282 Uani
O2 O 0.1662(5) 0.4840(4) 0.0900(2) 0.0316 Uani
C1 C 0.1317(6) 0.4592(5) 0.1778(3) 0.0209 Uani
Nd5 Nd 0.50473(3) 0.28690(3) 0.095490(16) 0.0187 Uani
O3 O 0.5152(5) 0.0631(4) 0.2337(3) 0.0350 Uani
O4 O 0.7191(5) 0.0167(4) 0.1101(2) 0.0314 Uani
O25 O 0.5246(5) 0.5613(4) 0.0776(2) 0.0262 Uani
O28 O 0.4049(6) 0.8095(4) 0.0751(2) 0.0337 Uani
Ni1 Ni 0.5000 0.5000 0.5000 0.0198 Uani
O7 O 0.6475(5) 0.3313(4) 0.2378(2) 0.0269 Uani
O8 O 0.6259(5) 0.3541(4) 0.3950(2) 0.0237 Uani
O9 O 0.2856(5) 0.1430(4) 0.0519(3) 0.0345 Uani
H1 H 0.2905 0.0921 0.0068 0.0510 Uiso
H2 H 0.2547 0.0866 0.0953 0.0510 Uiso
O10 O 0.8418(5) 0.2898(4) 0.0500(3) 0.0371 Uani
H3 H 0.8403 0.3552 0.0053 0.0550 Uiso
H4 H 0.9429 0.2253 0.0638 0.0550 Uiso
N1 N 0.7357(6) 0.6013(5) 0.4759(3) 0.0240 Uani
H5 H 0.7283 0.6748 0.5135 0.0360 Uiso
H6 H 0.8364 0.5274 0.4978 0.0360 Uiso
N2 N 0.2746(6) 0.7959(5) 0.2632(3) 0.0240 Uani
H7 H 0.2172 0.8837 0.2376 0.0360 Uiso
N3 N 0.3684(6) 0.6243(5) 0.3827(3) 0.0222 Uani
C2 C 0.9777(6) 0.5722(5) 0.2312(3) 0.0205 Uani
C3 C 0.9315(6) 0.5370(5) 0.3271(3) 0.0215 Uani
H8 H 0.9921 0.4416 0.3568 0.0250 Uiso
C4 C 0.7961(7) 0.6424(5) 0.3791(3) 0.0218 Uani
C5 C 0.7099(6) 0.7852(5) 0.3359(3) 0.0212 Uani
H9 H 0.6221 0.8573 0.3713 0.0260 Uiso
C6 C 0.7537(6) 0.8220(5) 0.2397(3) 0.0205 Uani
C7 C 0.8889(6) 0.7148(5) 0.1873(3) 0.0209 Uani
H10 H 0.9193 0.7391 0.1231 0.0250 Uiso
C8 C 0.6563(7) 0.9765(5) 0.1922(3) 0.0226 Uani
C9 C 0.4444(7) 0.6804(6) 0.1185(3) 0.0222 Uani
C10 C 0.3932(7) 0.6693(5) 0.2232(3) 0.0218 Uani
C11 C 0.4510(7) 0.5619(5) 0.2991(3) 0.0196 Uani
C12 C 0.2634(7) 0.7634(6) 0.3583(3) 0.0248 Uani
H11 H 0.1907 0.8307 0.4015 0.0300 Uiso
C13 C 0.5838(7) 0.4037(5) 0.3096(3) 0.0215 Uani
Nd6 Nd 0.49527(3) 0.71310(3) 0.904510(16) 0.0187 Uani
O13 O 0.7682(5) 0.6583(4) 0.7756(2) 0.0282 Uani
O16 O 0.8338(5) 0.5160(4) 0.9100(2) 0.0316 Uani
O19 O 0.4848(5) 0.9369(4) 0.7663(3) 0.0350 Uani
O22 O 0.2809(5) 0.9833(4) 0.8899(2) 0.0314 Uani
O23 O 0.4754(5) 0.4387(4) 0.9224(2) 0.0262 Uani
O26 O 0.5951(6) 0.1905(4) 0.9249(2) 0.0337 Uani
O29 O 0.3525(5) 0.6687(4) 0.7622(2) 0.0269 Uani
O30 O 0.3741(5) 0.6459(4) 0.6050(2) 0.0237 Uani
O31 O 0.7144(5) 0.8570(4) 0.9481(3) 0.0345 Uani
H12 H 0.7095 0.9079 0.9932 0.0510 Uiso
H13 H 0.7453 0.9134 0.9047 0.0510 Uiso
O32 O 0.1582(5) 0.7102(4) 0.9500(3) 0.0371 Uani
H14 H 0.1597 0.6448 0.9947 0.0550 Uiso
H15 H 0.0571 0.7747 0.9362 0.0550 Uiso
N4 N 0.2643(6) 0.3987(5) 0.5241(3) 0.0240 Uani
H16 H 0.2717 0.3252 0.4865 0.0360 Uiso
H17 H 0.1636 0.4726 0.5022 0.0360 Uiso
N5 N 0.7254(6) 0.2041(5) 0.7368(3) 0.0240 Uani
H18 H 0.7828 0.1163 0.7624 0.0360 Uiso
N6 N 0.6316(6) 0.3757(5) 0.6173(3) 0.0222 Uani
C15 C 0.0223(6) 0.4278(5) 0.7688(3) 0.0205 Uani
C16 C 0.0685(6) 0.4630(5) 0.6729(3) 0.0215 Uani
H19 H 0.0079 0.5584 0.6432 0.0250 Uiso
C17 C 0.2039(7) 0.3576(5) 0.6209(3) 0.0218 Uani
C18 C 0.2901(6) 0.2148(5) 0.6641(3) 0.0212 Uani
H20 H 0.3779 0.1427 0.6287 0.0260 Uiso
C19 C 0.2463(6) 0.1780(5) 0.7603(3) 0.0205 Uani
C20 C 0.1111(6) 0.2852(5) 0.8127(3) 0.0209 Uani
H21 H 0.0807 0.2609 0.8769 0.0250 Uiso
C21 C 0.3437(7) 0.0235(5) 0.8078(3) 0.0226 Uani
C22 C 0.5556(7) 0.3196(6) 0.8815(3) 0.0222 Uani
C23 C 0.6068(7) 0.3307(5) 0.7768(3) 0.0218 Uani
C24 C 0.5490(7) 0.4381(5) 0.7009(3) 0.0196 Uani
C25 C 0.7366(7) 0.2366(6) 0.6417(3) 0.0248 Uani
H22 H 0.8093 0.1693 0.5985 0.0300 Uiso
C26 C 0.4162(7) 0.5963(5) 0.6904(3) 0.0215 Uani
C14 C 0.8683(6) 0.5408(5) 0.8222(3) 0.0209 Uani
loop_
_atom_site_aniso_label
_atom_site_aniso_U_11
_atom_site_aniso_U_22
_atom_site_aniso_U_33
_atom_site_aniso_U_23
_atom_site_aniso_U_13
_atom_site_aniso_U_12
O1 0.0301 0.0199 0.025 0.0054 0.0019 0.0041
O2 0.0308 0.028 0.0248 0.0031 0.0087 0.0041
C1 0.02 0.015 0.025 -0.0009 0.0047 -0.0026
Nd5 0.024 0.01428 0.01461 0.00052 0.00104 -0.00197
O3 0.037 0.0207 0.033 0.0015 0.0068 0.0097
O4 0.039 0.0202 0.0262 0.0081 0.0045 -0.0003
O25 0.039 0.0216 0.0169 -0.0011 -0.0014 -0.0073
O28 0.059 0.0197 0.0168 0.0044 0.0014 -0.006
Ni1 0.025 0.0209 0.0105 0.0006 0.0013 -0.0036
O7 0.034 0.025 0.0171 -0.0014 0.0007 -0.0025
O8 0.031 0.0205 0.0145 0.0029 -0.0003 -0.0015
O9 0.045 0.03 0.029 -0.0033 -0.0015 -0.0114
O10 0.028 0.037 0.039 0.0128 0.0004 -0.0044
N1 0.027 0.028 0.0146 0.0011 0.0017 -0.0063
N2 0.033 0.019 0.017 0.0003 -0.0013 -0.0039
N3 0.026 0.021 0.0169 0.0003 -0.001 -0.0034
C2 0.02 0.019 0.021 0.0009 -0.0009 -0.0043
C3 0.02 0.018 0.023 0.0029 -0.0036 -0.0014
C4 0.023 0.023 0.019 0.0033 -0.0009 -0.008
C5 0.019 0.018 0.024 -0.0063 0.0034 -0.001
C6 0.019 0.013 0.026 0.0014 -0.0007 -0.0007
C7 0.02 0.019 0.02 0.0038 0.0012 -0.0024
C8 0.025 0.016 0.025 -0.0006 -0.0022 -0.0034
C9 0.028 0.025 0.015 0.0019 -0.0022 -0.011
C10 0.031 0.018 0.016 -0.0012 -0.0006 -0.007
C11 0.026 0.023 0.013 0.0008 -0.001 -0.013
C12 0.026 0.024 0.018 -0.0059 0.0027 0.003
C13 0.024 0.022 0.018 0.0027 0.0002 -0.008
Nd6 0.024 0.01428 0.01461 0.00052 0.00104 -0.00197
O13 0.0301 0.0199 0.025 0.0054 0.0019 0.0041
O16 0.0308 0.028 0.0248 0.0031 0.0087 0.0041
O19 0.037 0.0207 0.033 0.0015 0.0068 0.0097
O22 0.039 0.0202 0.0262 0.0081 0.0045 -0.0003
O23 0.039 0.0216 0.0169 -0.0011 -0.0014 -0.0073
O26 0.059 0.0197 0.0168 0.0044 0.0014 -0.006
O29 0.034 0.025 0.0171 -0.0014 0.0007 -0.0025
O30 0.031 0.0205 0.0145 0.0029 -0.0003 -0.0015
O31 0.045 0.03 0.029 -0.0033 -0.0015 -0.0114
O32 0.028 0.037 0.039 0.0128 0.0004 -0.0044
N4 0.027 0.028 0.0146 0.0011 0.0017 -0.0063
N5 0.033 0.019 0.017 0.0003 -0.0013 -0.0039
N6 0.026 0.021 0.0169 0.0003 -0.001 -0.0034
C15 0.02 0.019 0.021 0.0009 -0.0009 -0.0043
C16 0.02 0.018 0.023 0.0029 -0.0036 -0.0014
C17 0.023 0.023 0.019 0.0033 -0.0009 -0.008
C18 0.019 0.018 0.024 -0.0063 0.0034 -0.001
C19 0.019 0.013 0.026 0.0014 -0.0007 -0.0007
C20 0.02 0.019 0.02 0.0038 0.0012 -0.0024
C21 0.025 0.016 0.025 -0.0006 -0.0022 -0.0034
C22 0.028 0.025 0.015 0.0019 -0.0022 -0.011
C23 0.031 0.018 0.016 -0.0012 -0.0006 -0.007
C24 0.026 0.023 0.013 0.0008 -0.001 -0.013
C25 0.026 0.024 0.018 -0.0059 0.0027 0.003
C26 0.024 0.022 0.018 0.0027 0.0002 -0.008
C14 0.02 0.015 0.025 -0.0009 0.0047 -0.0026
loop_
_geom_bond_atom_site_label_1
_geom_bond_atom_site_label_2
_geom_bond_site_symmetry_1
_geom_bond_site_symmetry_2
O1 C1 1_555 1_555
O2 C1 1_555 1_555
Nd5 O1 1_555 1_555
O2 Nd5 1_555 1_555
Nd5 O3 1_555 1_555
O4 Nd5 1_555 1_555
Nd5 O25 1_555 1_555
Ni1 O8 1_555 1_555
O25 C9 1_555 1_555
O28 C9 1_555 1_555
O7 Nd5 1_555 1_555
O8 C13 1_555 1_555
O9 Nd5 1_555 1_555
H1 O9 1_555 1_555
H2 O9 1_555 1_555
O10 Nd5 1_555 1_555
H3 O10 1_555 1_555
H4 O10 1_555 1_555
N1 Ni1 1_555 1_555
H5 N1 1_555 1_555
H6 N1 1_555 1_555
N2 H7 1_555 1_555
N3 Ni1 1_555 1_555
C2 C3 1_555 1_555
C3 H8 1_555 1_555
C4 N1 1_555 1_555
C5 C4 1_555 1_555
H9 C5 1_555 1_555
C6 C5 1_555 1_555
C7 C2 1_555 1_555
H10 C7 1_555 1_555
C8 C6 1_555 1_555
C9 C10 1_555 1_555
C10 N2 1_555 1_555
C11 N3 1_555 1_555
C12 N2 1_555 1_555
H11 C12 1_555 1_555
C13 O7 1_555 1_555
Nd6 O13 1_555 1_555
O16 Nd6 1_555 1_555
O19 Nd6 1_555 1_555
O22 Nd6 1_555 1_555
O23 Nd6 1_555 1_555
O29 Nd6 1_555 1_555
O30 Ni1 1_555 1_555
O31 Nd6 1_555 1_555
H12 O31 1_555 1_555
H13 O31 1_555 1_555
O32 Nd6 1_555 1_555
H14 O32 1_555 1_555
H15 O32 1_555 1_555
N4 Ni1 1_555 1_555
H16 N4 1_555 1_555
H17 N4 1_555 1_555
N5 H18 1_555 1_555
N6 Ni1 1_555 1_555
C16 C15 1_555 1_555
H19 C16 1_555 1_555
C17 N4 1_555 1_555
C18 C17 1_555 1_555
H20 C18 1_555 1_555
C19 C18 1_555 1_555
C20 C15 1_555 1_555
H21 C20 1_555 1_555
C22 O23 1_555 1_555
C23 N5 1_555 1_555
C24 N6 1_555 1_555
C25 N5 1_555 1_555
H22 C25 1_555 1_555
C26 O29 1_555 1_555
N3 C12 1_555 1_555
C3 C4 1_555 1_555
C6 C7 1_555 1_555
C10 C11 1_555 1_555
C11 C13 1_555 1_555
O26 C22 1_555 1_555
O30 C26 1_555 1_555
N6 C25 1_555 1_555
C16 C17 1_555 1_555
C19 C20 1_555 1_555
C19 C21 1_555 1_555
C22 C23 1_555 1_555
C23 C24 1_555 1_555
C24 C26 1_555 1_555
O13 C14 1_555 1_555
C14 O16 1_555 1_555

#END
