
###############################################################################
#
# This file contains modified crystal structure data generated from the
# MOF subset of the Cambridge Structural Database (CSD) v543 
# hosted by the Cambridge Crystallographic Data Centre (CCDC).
#
# This work is licensed under the Creative Commons
# Attribution-NonCommercial-ShareAlike 4.0 International License.
# To view a copy of this license, visit
# http://creativecommons.org/licenses/by-nc-sa/4.0/
# or send a letter to
# Creative Commons, PO Box 1866, Mountain View, CA 94042, USA.
#
# CIF created using the CSD Python API on 29 September 2022
# The structure has been converted into the P1 space group
# The structure has a 3D framework
# The original CSD entry QAWHIH01 is in the monoclinic crystal system
# The framework has been calculated to contain at least 10.0% void space
# The void calculation uses a probe of radius 1.32A, grid spacing 0.4
#
###############################################################################

data_QAWHIH01
_chemical_formula_moiety         '(C44 H44 Cu6 N4 O28)n'
_symmetry_cell_setting           triclinic
_symmetry_space_group_name_H-M   'P 1'
_symmetry_Int_Tables_number      1
_space_group_name_Hall           'P 1'
loop_
_symmetry_equiv_pos_site_id
_symmetry_equiv_pos_as_xyz
1 x,y,z
_cell_length_a                   10.7687(14)
_cell_length_b                   12.8355(16)
_cell_length_c                   17.0513(17)
_cell_angle_alpha                90
_cell_angle_beta                 126.803(6)
_cell_angle_gamma                90
_cell_volume                     1887.14
loop_
_atom_site_label
_atom_site_type_symbol
_atom_site_fract_x
_atom_site_fract_y
_atom_site_fract_z
O2 O 0.2007(3) 0.59673(19) 0.96868(19)
O7 O 0.1921(3) 0.6970(2) 0.8579(2)
C11 C 0.1407(4) 0.6655(3) 0.9030(3)
Cu4 Cu 0.35081(5) 0.64511(4) 0.84300(3)
Cu6 Cu 0.35802(5) 0.49743(3) 0.99595(3)
Cu3 Cu 0.64919(5) 0.14511(4) 0.65700(3)
H1 H 0.503(5) 0.644(3) 0.008(3)
Cu2 Cu 0.64198(5) 0.50257(3) 0.00405(3)
O8 O 0.5212(3) 0.4034(2) 0.02232(19)
O9 O 0.7993(3) 0.40327(19) 0.03132(19)
O11 O 0.7962(3) 0.5469(2) 0.1690(2)
O1 O 0.4788(3) 0.5966(2) 0.97768(19)
O3 O 0.5405(3) 0.7087(2) 0.8618(2)
O4 O 0.7312(3) 0.5957(2) 0.9603(2)
O5 O 0.6321(3) 0.9921(2) 0.7030(2)
O6 O 0.7962(3) 0.9531(2) 0.6690(2)
C1 C 0.7978(4) 0.8461(3) 0.7817(3)
C2 C 0.7357(4) 0.9362(3) 0.7126(3)
C3 C 0.7160(4) 0.8055(3) 0.8134(3)
H2 H 0.6232 0.8366 0.7934
C4 C 0.9348(4) 0.7993(3) 0.8114(3)
H3 H 0.9891 0.8249 0.7889
C5 C 0.9103(4) 0.6743(3) 0.9062(3)
H4 H 0.9488 0.6175 0.9485
C6 C 0.7701(4) 0.7192(3) 0.8747(3)
C7 C 0.9928(4) 0.7144(3) 0.8745(3)
N1 N 0.2101(4) 0.6981(3) 0.7061(3)
H5 H 0.195(5) 0.761(4) 0.704(4)
C8 C 0.0648(7) 0.6404(5) 0.6460(4)
H7 H 0.0228 0.6308 0.6817
H8 H 0.0837 0.5736 0.6296
C9 C 0.6720(4) 0.6708(3) 0.9013(3)
C10 C 0.2753(8) 0.7165(8) 0.6544(5)
H9 H 0.3204 0.6533 0.6520
H10 H 0.3539 0.7693 0.6878
H11 H 0.1952 0.7394 0.5890
H12 H 0.497(5) 0.356(3) 0.992(3)
Cu7 Cu 0.64198(5) 0.99743(3) 0.50405(3)
O10 O 0.3679(3) 0.4921(2) 0.7970(2)
O1_2 O 0.5212(3) 0.0966(2) 0.52232(19)
H1_2 H 0.497(5) 0.144(3) 0.492(3)
Cu2_2 Cu 0.35802(5) 0.00257(3) 0.49595(3)
O3_2 O 0.4595(3) 0.2087(2) 0.6382(2)
O4_2 O 0.2688(3) 0.0957(2) 0.5397(2)
O6_2 O 0.2038(3) 0.4531(2) 0.8310(2)
C1_2 C 0.2022(4) 0.3461(3) 0.7183(3)
C2_2 C 0.2643(4) 0.4362(3) 0.7874(3)
C3_2 C 0.2840(4) 0.3055(3) 0.6866(3)
H2_2 H 0.3768 0.3366 0.7066
C4_2 C 0.0652(4) 0.2993(3) 0.6886(3)
H3_2 H 0.0109 0.3249 0.7111
C5_2 C 0.0897(4) 0.1743(3) 0.5938(3)
H4_2 H 0.0512 0.1175 0.5515
C6_2 C 0.2299(4) 0.2192(3) 0.6253(3)
C7_2 C 0.0072(4) 0.2144(3) 0.6255(3)
N1_2 N 0.7899(4) 0.1981(3) 0.7939(3)
H5_2 H 0.805(5) 0.261(4) 0.796(4)
C8_2 C 0.9352(7) 0.1404(5) 0.8540(4)
H7_2 H 0.9772 0.1308 0.8183
H8_2 H 0.9163 0.0736 0.8704
C9_2 C 0.3280(4) 0.1708(3) 0.5987(3)
C10_2 C 0.7247(8) 0.2165(8) 0.8456(5)
H9_2 H 0.6796 0.1533 0.8480
H10_2 H 0.6461 0.2693 0.8122
H11_2 H 0.8048 0.2394 0.9110
O11_2 O 0.2038(3) 0.0469(2) 0.3310(2)
O12 O 0.8079(3) 0.1970(2) 0.6421(2)
O8_2 O 0.4788(3) 0.9034(2) 0.47768(19)
H12_2 H 0.503(5) 0.856(3) 0.508(3)
O9_2 O 0.2007(3) 0.90327(19) 0.46868(19)
O2_2 O 0.7993(3) 0.09673(19) 0.53132(19)
C11_2 C 0.8593(4) 0.1655(3) 0.5970(3)
Cu1 Cu 0.64919(5) 0.35489(4) 0.15700(3)
O3_3 O 0.4595(3) 0.2913(2) 0.1382(2)
O4_3 O 0.2688(3) 0.4043(2) 0.0397(2)
O5_2 O 0.3679(3) 0.0079(2) 0.2970(2)
C1_3 C 0.2022(4) 0.1539(3) 0.2183(3)
C2_3 C 0.2643(4) 0.0638(3) 0.2874(3)
C3_3 C 0.2840(4) 0.1945(3) 0.1866(3)
H2_3 H 0.3768 0.1634 0.2066
C4_3 C 0.0652(4) 0.2007(3) 0.1886(3)
H3_3 H 0.0109 0.1751 0.2111
C5_3 C 0.0897(4) 0.3257(3) 0.0938(3)
H4_3 H 0.0512 0.3825 0.0515
C6_3 C 0.2299(4) 0.2808(3) 0.1253(3)
C7_3 C 0.0072(4) 0.2856(3) 0.1255(3)
N1_3 N 0.7899(4) 0.3019(3) 0.2939(3)
H5_3 H 0.805(5) 0.239(4) 0.296(4)
C8_3 C 0.9352(7) 0.3596(5) 0.3540(4)
H7_3 H 0.9772 0.3692 0.3183
H8_3 H 0.9163 0.4264 0.3704
C9_3 C 0.3280(4) 0.3292(3) 0.0987(3)
C10_3 C 0.7247(8) 0.2835(8) 0.3456(5)
H9_3 H 0.6796 0.3467 0.3480
H10_3 H 0.6461 0.2307 0.3122
H11_3 H 0.8048 0.2606 0.4110
O10_2 O 0.6321(3) 0.5079(2) 0.2030(2)
O12_2 O 0.8079(3) 0.3030(2) 0.1421(2)
Cu3_2 Cu 0.35081(5) 0.85489(4) 0.34300(3)
C11_3 C 0.8593(4) 0.3345(3) 0.0970(3)
O7_2 O 0.1921(3) 0.8030(2) 0.3579(2)
C11_4 C 0.1407(4) 0.8345(3) 0.4030(3)
O3_4 O 0.5405(3) 0.7913(2) 0.3618(2)
O4_4 O 0.7312(3) 0.9043(2) 0.4603(2)
C1_4 C 0.7978(4) 0.6539(3) 0.2817(3)
C2_4 C 0.7357(4) 0.5638(3) 0.2126(3)
C3_4 C 0.7160(4) 0.6945(3) 0.3134(3)
H2_4 H 0.6232 0.6634 0.2934
C4_4 C 0.9348(4) 0.7007(3) 0.3114(3)
H3_4 H 0.9891 0.6751 0.2889
C5_4 C 0.9103(4) 0.8257(3) 0.4062(3)
H4_4 H 0.9488 0.8825 0.4485
C6_4 C 0.7701(4) 0.7808(3) 0.3747(3)
C7_4 C 0.9928(4) 0.7856(3) 0.3745(3)
N1_4 N 0.2101(4) 0.8019(3) 0.2061(3)
H5_4 H 0.195(5) 0.739(4) 0.204(4)
C8_4 C 0.0648(7) 0.8596(5) 0.1460(4)
H7_4 H 0.0228 0.8692 0.1817
H8_4 H 0.0837 0.9264 0.1296
C9_4 C 0.6720(4) 0.8292(3) 0.4013(3)
C10_4 C 0.2753(8) 0.7835(8) 0.1544(5)
H9_4 H 0.3204 0.8467 0.1520
H10_4 H 0.3539 0.7307 0.1878
H11_4 H 0.1952 0.7606 0.0890
H6 H 0.9923 0.6787 0.5870
H6_2 H 0.0077 0.1787 0.9130
H6_3 H 0.0077 0.3213 0.4130
H6_4 H 0.9923 0.8213 0.0870
loop_
_geom_bond_atom_site_label_1
_geom_bond_atom_site_label_2
_geom_bond_site_symmetry_1
_geom_bond_site_symmetry_2
O2 C11 1_555 1_555
O7 C11 1_555 1_555
Cu4 O7 1_555 1_555
Cu6 O2 1_555 1_555
O8 Cu2 1_555 1_555
O9 Cu2 1_555 1_555
O11 Cu2 1_555 1_555
Cu4 O1 1_555 1_555
O3 Cu4 1_555 1_555
O5 C2 1_555 1_555
O6 C2 1_555 1_555
C1 C2 1_555 1_555
C3 C1 1_555 1_555
H2 C3 1_555 1_555
C4 C1 1_555 1_555
H3 C4 1_555 1_555
C5 H4 1_555 1_555
C6 C3 1_555 1_555
C7 C4 1_555 1_555
N1 Cu4 1_555 1_555
H5 N1 1_555 1_555
C8 N1 1_555 1_555
H7 C8 1_555 1_555
H8 C8 1_555 1_555
C9 O3 1_555 1_555
C10 N1 1_555 1_555
H9 C10 1_555 1_555
H10 C10 1_555 1_555
H11 C10 1_555 1_555
Cu6 O1 1_555 1_555
Cu7 O6 1_555 1_555
O10 Cu4 1_555 1_555
O4 C9 1_555 1_555
C5 C6 1_555 1_555
C5 C7 1_555 1_555
C6 C9 1_555 1_555
Cu3 O1_2 1_555 1_555
O1_2 H1_2 1_555 1_555
Cu2_2 O1_2 1_555 1_555
O3_2 Cu3 1_555 1_555
O4_2 Cu2_2 1_555 1_555
O10 C2_2 1_555 1_555
O6_2 C2_2 1_555 1_555
C1_2 C2_2 1_555 1_555
C3_2 C1_2 1_555 1_555
H2_2 C3_2 1_555 1_555
C4_2 C1_2 1_555 1_555
H3_2 C4_2 1_555 1_555
C5_2 H4_2 1_555 1_555
C6_2 C3_2 1_555 1_555
C7_2 C4_2 1_555 1_555
N1_2 Cu3 1_555 1_555
H5_2 N1_2 1_555 1_555
C8_2 N1_2 1_555 1_555
H7_2 C8_2 1_555 1_555
H8_2 C8_2 1_555 1_555
C9_2 O3_2 1_555 1_555
C10_2 N1_2 1_555 1_555
H9_2 C10_2 1_555 1_555
H10_2 C10_2 1_555 1_555
H11_2 C10_2 1_555 1_555
Cu6 O6_2 1_555 1_555
O11_2 Cu2_2 1_555 1_555
O12 Cu3 1_555 1_555
O4_2 C9_2 1_555 1_555
C5_2 C6_2 1_555 1_555
C5_2 C7_2 1_555 1_555
C6_2 C9_2 1_555 1_555
H12_2 O8_2 1_555 1_555
O8_2 Cu7 1_555 1_555
O2_2 C11_2 1_555 1_555
O12 C11_2 1_555 1_555
Cu1 O8 1_555 1_555
O3_3 Cu1 1_555 1_555
O5_2 C2_3 1_555 1_555
O11_2 C2_3 1_555 1_555
C1_3 C2_3 1_555 1_555
C3_3 C1_3 1_555 1_555
H2_3 C3_3 1_555 1_555
C4_3 C1_3 1_555 1_555
H3_3 C4_3 1_555 1_555
C5_3 H4_3 1_555 1_555
C6_3 C3_3 1_555 1_555
C7_3 C4_3 1_555 1_555
N1_3 Cu1 1_555 1_555
H5_3 N1_3 1_555 1_555
C8_3 N1_3 1_555 1_555
H7_3 C8_3 1_555 1_555
H8_3 C8_3 1_555 1_555
C9_3 O3_3 1_555 1_555
C10_3 N1_3 1_555 1_555
H9_3 C10_3 1_555 1_555
H10_3 C10_3 1_555 1_555
H11_3 C10_3 1_555 1_555
O10_2 Cu1 1_555 1_555
O12_2 Cu1 1_555 1_555
O4_3 C9_3 1_555 1_555
C5_3 C6_3 1_555 1_555
C5_3 C7_3 1_555 1_555
C6_3 C9_3 1_555 1_555
O9 C11_3 1_555 1_555
O12_2 C11_3 1_555 1_555
O9_2 C11_4 1_555 1_555
O7_2 C11_4 1_555 1_555
Cu3_2 O7_2 1_555 1_555
Cu3_2 O8_2 1_555 1_555
O3_4 Cu3_2 1_555 1_555
O4_4 Cu7 1_555 1_555
O10_2 C2_4 1_555 1_555
O11 C2_4 1_555 1_555
C1_4 C2_4 1_555 1_555
C3_4 C1_4 1_555 1_555
H2_4 C3_4 1_555 1_555
C4_4 C1_4 1_555 1_555
H3_4 C4_4 1_555 1_555
C5_4 H4_4 1_555 1_555
C6_4 C3_4 1_555 1_555
C7_4 C4_4 1_555 1_555
N1_4 Cu3_2 1_555 1_555
H5_4 N1_4 1_555 1_555
C8_4 N1_4 1_555 1_555
H7_4 C8_4 1_555 1_555
H8_4 C8_4 1_555 1_555
C9_4 O3_4 1_555 1_555
C10_4 N1_4 1_555 1_555
H9_4 C10_4 1_555 1_555
H10_4 C10_4 1_555 1_555
H11_4 C10_4 1_555 1_555
O4_4 C9_4 1_555 1_555
C5_4 C6_4 1_555 1_555
C5_4 C7_4 1_555 1_555
C6_4 C9_4 1_555 1_555

#END
