
###############################################################################
#
# This file contains modified crystal structure data generated from the
# MOF subset of the Cambridge Structural Database (CSD) v543 
# hosted by the Cambridge Crystallographic Data Centre (CCDC).
#
# This work is licensed under the Creative Commons
# Attribution-NonCommercial-ShareAlike 4.0 International License.
# To view a copy of this license, visit
# http://creativecommons.org/licenses/by-nc-sa/4.0/
# or send a letter to
# Creative Commons, PO Box 1866, Mountain View, CA 94042, USA.
#
# CIF created using the CSD Python API on 29 September 2022
# The structure has been converted into the P1 space group
# The structure has a 3D framework
# The original CSD entry QAWHIH is in the monoclinic crystal system
# The framework has been calculated to contain at least 10.0% void space
# The void calculation uses a probe of radius 1.32A, grid spacing 0.4
#
###############################################################################

data_QAWHIH
_chemical_formula_moiety         '(C44 H44 Cu6 N4 O28)n'
_symmetry_cell_setting           triclinic
_symmetry_space_group_name_H-M   'P 1'
_symmetry_Int_Tables_number      1
_space_group_name_Hall           'P 1'
loop_
_symmetry_equiv_pos_site_id
_symmetry_equiv_pos_as_xyz
1 x,y,z
_cell_length_a                   10.7687(14)
_cell_length_b                   12.8355(16)
_cell_length_c                   17.0513(17)
_cell_angle_alpha                90
_cell_angle_beta                 126.803(6)
_cell_angle_gamma                90
_cell_volume                     1887.14
loop_
_atom_site_label
_atom_site_type_symbol
_atom_site_fract_x
_atom_site_fract_y
_atom_site_fract_z
O2 O 0.2005(4) 0.5968(2) 0.9685(2)
O7 O 0.1922(4) 0.6969(3) 0.8578(3)
C11 C 0.1407(5) 0.6655(4) 0.9028(3)
Cu4 Cu 0.35083(6) 0.64510(4) 0.84303(4)
Cu6 Cu 0.35799(6) 0.49745(4) 0.99587(4)
Cu3 Cu 0.64917(6) 0.14510(4) 0.65697(4)
H1 H 0.498(6) 0.645(4) 0.005(4)
Cu2 Cu 0.64201(6) 0.50255(4) 0.00413(4)
O8 O 0.5213(4) 0.4034(2) 0.0224(2)
O9 O 0.7995(4) 0.4032(2) 0.0315(2)
O11 O 0.7957(4) 0.5467(3) 0.1688(3)
O1 O 0.4787(4) 0.5966(2) 0.9776(2)
O3 O 0.5399(4) 0.7087(3) 0.8616(3)
O4 O 0.7319(4) 0.5958(3) 0.9607(3)
O5 O 0.6320(4) 0.9918(3) 0.7029(3)
O6 O 0.7957(4) 0.9533(3) 0.6688(3)
C1 C 0.7978(5) 0.8456(4) 0.7818(3)
C2 C 0.7358(5) 0.9364(4) 0.7124(4)
C3 C 0.7156(5) 0.8055(3) 0.8135(4)
H2 H 0.6230 0.8367 0.7936
C4 C 0.9344(5) 0.7989(4) 0.8111(4)
H3 H 0.9882 0.8243 0.7882
C5 C 0.9101(5) 0.6741(3) 0.9061(3)
H4 H 0.9484 0.6172 0.9482
C6 C 0.7695(5) 0.7192(3) 0.8746(3)
C7 C 0.9929(5) 0.7143(3) 0.8744(3)
N1 N 0.2098(5) 0.6984(4) 0.7060(3)
H5 H 0.187(7) 0.766(5) 0.707(4)
C8 C 0.0644(9) 0.6408(6) 0.6451(5)
H7 H 0.0244 0.6280 0.6816
H8 H 0.0826 0.5757 0.6259
C9 C 0.6721(5) 0.6708(3) 0.9010(3)
C10 C 0.2751(9) 0.7142(10) 0.6539(5)
H9 H 0.3255 0.6514 0.6560
H10 H 0.3494 0.7698 0.6840
H11 H 0.1940 0.7318 0.5870
H12 H 0.502(6) 0.355(4) 0.995(4)
Cu7 Cu 0.64201(6) 0.99745(4) 0.50413(4)
O10 O 0.3680(4) 0.4918(3) 0.7971(3)
O1_2 O 0.5213(4) 0.0966(2) 0.5224(2)
H1_2 H 0.502(6) 0.145(4) 0.495(4)
Cu2_2 Cu 0.35799(6) 0.00255(4) 0.49587(4)
O3_2 O 0.4601(4) 0.2087(3) 0.6384(3)
O4_2 O 0.2681(4) 0.0958(3) 0.5393(3)
O6_2 O 0.2043(4) 0.4533(3) 0.8312(3)
C1_2 C 0.2022(5) 0.3456(4) 0.7182(3)
C2_2 C 0.2642(5) 0.4364(4) 0.7876(4)
C3_2 C 0.2844(5) 0.3055(3) 0.6865(4)
H2_2 H 0.3770 0.3367 0.7064
C4_2 C 0.0656(5) 0.2989(4) 0.6889(4)
H3_2 H 0.0118 0.3243 0.7118
C5_2 C 0.0899(5) 0.1741(3) 0.5939(3)
H4_2 H 0.0516 0.1172 0.5518
C6_2 C 0.2305(5) 0.2192(3) 0.6254(3)
C7_2 C 0.0071(5) 0.2143(3) 0.6256(3)
N1_2 N 0.7902(5) 0.1984(4) 0.7940(3)
H5_2 H 0.813(7) 0.266(5) 0.793(4)
C8_2 C 0.9356(9) 0.1408(6) 0.8549(5)
H7_2 H 0.9756 0.1280 0.8184
H8_2 H 0.9174 0.0757 0.8741
C9_2 C 0.3279(5) 0.1708(3) 0.5990(3)
C10_2 C 0.7249(9) 0.2142(10) 0.8461(5)
H9_2 H 0.6745 0.1514 0.8440
H10_2 H 0.6506 0.2698 0.8160
H11_2 H 0.8060 0.2318 0.9130
O11_2 O 0.2043(4) 0.0467(3) 0.3312(3)
O12 O 0.8078(4) 0.1969(3) 0.6422(3)
O8_2 O 0.4787(4) 0.9034(2) 0.4776(2)
H12_2 H 0.498(6) 0.855(4) 0.505(4)
O9_2 O 0.2005(4) 0.9032(2) 0.4685(2)
O2_2 O 0.7995(4) 0.0968(2) 0.5315(2)
C11_2 C 0.8593(5) 0.1655(4) 0.5972(3)
Cu1 Cu 0.64917(6) 0.35490(4) 0.15697(4)
O3_3 O 0.4601(4) 0.2913(3) 0.1384(3)
O4_3 O 0.2681(4) 0.4042(3) 0.0393(3)
O5_2 O 0.3680(4) 0.0082(3) 0.2971(3)
C1_3 C 0.2022(5) 0.1544(4) 0.2182(3)
C2_3 C 0.2642(5) 0.0636(4) 0.2876(4)
C3_3 C 0.2844(5) 0.1945(3) 0.1865(4)
H2_3 H 0.3770 0.1633 0.2064
C4_3 C 0.0656(5) 0.2011(4) 0.1889(4)
H3_3 H 0.0118 0.1757 0.2118
C5_3 C 0.0899(5) 0.3259(3) 0.0939(3)
H4_3 H 0.0516 0.3828 0.0518
C6_3 C 0.2305(5) 0.2808(3) 0.1254(3)
C7_3 C 0.0071(5) 0.2857(3) 0.1256(3)
N1_3 N 0.7902(5) 0.3016(4) 0.2940(3)
H5_3 H 0.813(7) 0.234(5) 0.293(4)
C8_3 C 0.9356(9) 0.3592(6) 0.3549(5)
H7_3 H 0.9756 0.3720 0.3184
H8_3 H 0.9174 0.4243 0.3741
C9_3 C 0.3279(5) 0.3292(3) 0.0990(3)
C10_3 C 0.7249(9) 0.2858(10) 0.3461(5)
H9_3 H 0.6745 0.3486 0.3440
H10_3 H 0.6506 0.2302 0.3160
H11_3 H 0.8060 0.2682 0.4130
O10_2 O 0.6320(4) 0.5082(3) 0.2029(3)
O12_2 O 0.8078(4) 0.3031(3) 0.1422(3)
Cu3_2 Cu 0.35083(6) 0.85490(4) 0.34303(4)
C11_3 C 0.8593(5) 0.3345(4) 0.0972(3)
O7_2 O 0.1922(4) 0.8031(3) 0.3578(3)
C11_4 C 0.1407(5) 0.8345(4) 0.4028(3)
O3_4 O 0.5399(4) 0.7913(3) 0.3616(3)
O4_4 O 0.7319(4) 0.9042(3) 0.4607(3)
C1_4 C 0.7978(5) 0.6544(4) 0.2818(3)
C2_4 C 0.7358(5) 0.5636(4) 0.2124(4)
C3_4 C 0.7156(5) 0.6945(3) 0.3135(4)
H2_4 H 0.6230 0.6633 0.2936
C4_4 C 0.9344(5) 0.7011(4) 0.3111(4)
H3_4 H 0.9882 0.6757 0.2882
C5_4 C 0.9101(5) 0.8259(3) 0.4061(3)
H4_4 H 0.9484 0.8828 0.4482
C6_4 C 0.7695(5) 0.7808(3) 0.3746(3)
C7_4 C 0.9929(5) 0.7857(3) 0.3744(3)
N1_4 N 0.2098(5) 0.8016(4) 0.2060(3)
H5_4 H 0.187(7) 0.734(5) 0.207(4)
C8_4 C 0.0644(9) 0.8592(6) 0.1451(5)
H7_4 H 0.0244 0.8720 0.1816
H8_4 H 0.0826 0.9243 0.1259
C9_4 C 0.6721(5) 0.8292(3) 0.4010(3)
C10_4 C 0.2751(9) 0.7858(10) 0.1539(5)
H9_4 H 0.3255 0.8486 0.1560
H10_4 H 0.3494 0.7302 0.1840
H11_4 H 0.1940 0.7682 0.0870
H6 H 0.9906 0.6810 0.5878
H6_2 H 0.0094 0.1810 0.9122
H6_3 H 0.0094 0.3190 0.4122
H6_4 H 0.9906 0.8190 0.0878
loop_
_geom_bond_atom_site_label_1
_geom_bond_atom_site_label_2
_geom_bond_site_symmetry_1
_geom_bond_site_symmetry_2
O2 C11 1_555 1_555
O7 C11 1_555 1_555
Cu4 O7 1_555 1_555
Cu6 O2 1_555 1_555
O8 Cu2 1_555 1_555
O9 Cu2 1_555 1_555
O11 Cu2 1_555 1_555
Cu4 O1 1_555 1_555
O3 Cu4 1_555 1_555
O5 C2 1_555 1_555
O6 C2 1_555 1_555
C1 C2 1_555 1_555
C3 C1 1_555 1_555
H2 C3 1_555 1_555
C4 C1 1_555 1_555
H3 C4 1_555 1_555
C5 H4 1_555 1_555
C6 C3 1_555 1_555
C7 C4 1_555 1_555
N1 Cu4 1_555 1_555
H5 N1 1_555 1_555
C8 N1 1_555 1_555
H7 C8 1_555 1_555
H8 C8 1_555 1_555
C9 O3 1_555 1_555
C10 N1 1_555 1_555
H9 C10 1_555 1_555
H10 C10 1_555 1_555
H11 C10 1_555 1_555
Cu6 O1 1_555 1_555
Cu7 O6 1_555 1_555
O10 Cu4 1_555 1_555
O4 C9 1_555 1_555
C5 C6 1_555 1_555
C5 C7 1_555 1_555
C6 C9 1_555 1_555
Cu3 O1_2 1_555 1_555
O1_2 H1_2 1_555 1_555
Cu2_2 O1_2 1_555 1_555
O3_2 Cu3 1_555 1_555
O4_2 Cu2_2 1_555 1_555
O10 C2_2 1_555 1_555
O6_2 C2_2 1_555 1_555
C1_2 C2_2 1_555 1_555
C3_2 C1_2 1_555 1_555
H2_2 C3_2 1_555 1_555
C4_2 C1_2 1_555 1_555
H3_2 C4_2 1_555 1_555
C5_2 H4_2 1_555 1_555
C6_2 C3_2 1_555 1_555
C7_2 C4_2 1_555 1_555
N1_2 Cu3 1_555 1_555
H5_2 N1_2 1_555 1_555
C8_2 N1_2 1_555 1_555
H7_2 C8_2 1_555 1_555
H8_2 C8_2 1_555 1_555
C9_2 O3_2 1_555 1_555
C10_2 N1_2 1_555 1_555
H9_2 C10_2 1_555 1_555
H10_2 C10_2 1_555 1_555
H11_2 C10_2 1_555 1_555
Cu6 O6_2 1_555 1_555
O11_2 Cu2_2 1_555 1_555
O12 Cu3 1_555 1_555
O4_2 C9_2 1_555 1_555
C5_2 C6_2 1_555 1_555
C5_2 C7_2 1_555 1_555
C6_2 C9_2 1_555 1_555
H12_2 O8_2 1_555 1_555
O8_2 Cu7 1_555 1_555
O2_2 C11_2 1_555 1_555
O12 C11_2 1_555 1_555
Cu1 O8 1_555 1_555
O3_3 Cu1 1_555 1_555
O5_2 C2_3 1_555 1_555
O11_2 C2_3 1_555 1_555
C1_3 C2_3 1_555 1_555
C3_3 C1_3 1_555 1_555
H2_3 C3_3 1_555 1_555
C4_3 C1_3 1_555 1_555
H3_3 C4_3 1_555 1_555
C5_3 H4_3 1_555 1_555
C6_3 C3_3 1_555 1_555
C7_3 C4_3 1_555 1_555
N1_3 Cu1 1_555 1_555
H5_3 N1_3 1_555 1_555
C8_3 N1_3 1_555 1_555
H7_3 C8_3 1_555 1_555
H8_3 C8_3 1_555 1_555
C9_3 O3_3 1_555 1_555
C10_3 N1_3 1_555 1_555
H9_3 C10_3 1_555 1_555
H10_3 C10_3 1_555 1_555
H11_3 C10_3 1_555 1_555
O10_2 Cu1 1_555 1_555
O12_2 Cu1 1_555 1_555
O4_3 C9_3 1_555 1_555
C5_3 C6_3 1_555 1_555
C5_3 C7_3 1_555 1_555
C6_3 C9_3 1_555 1_555
O9 C11_3 1_555 1_555
O12_2 C11_3 1_555 1_555
O9_2 C11_4 1_555 1_555
O7_2 C11_4 1_555 1_555
Cu3_2 O7_2 1_555 1_555
Cu3_2 O8_2 1_555 1_555
O3_4 Cu3_2 1_555 1_555
O4_4 Cu7 1_555 1_555
O10_2 C2_4 1_555 1_555
O11 C2_4 1_555 1_555
C1_4 C2_4 1_555 1_555
C3_4 C1_4 1_555 1_555
H2_4 C3_4 1_555 1_555
C4_4 C1_4 1_555 1_555
H3_4 C4_4 1_555 1_555
C5_4 H4_4 1_555 1_555
C6_4 C3_4 1_555 1_555
C7_4 C4_4 1_555 1_555
N1_4 Cu3_2 1_555 1_555
H5_4 N1_4 1_555 1_555
C8_4 N1_4 1_555 1_555
H7_4 C8_4 1_555 1_555
H8_4 C8_4 1_555 1_555
C9_4 O3_4 1_555 1_555
C10_4 N1_4 1_555 1_555
H9_4 C10_4 1_555 1_555
H10_4 C10_4 1_555 1_555
H11_4 C10_4 1_555 1_555
O4_4 C9_4 1_555 1_555
C5_4 C6_4 1_555 1_555
C5_4 C7_4 1_555 1_555
C6_4 C9_4 1_555 1_555

#END
