
###############################################################################
#
# This file contains modified crystal structure data generated from the
# MOF subset of the Cambridge Structural Database (CSD) v543 
# hosted by the Cambridge Crystallographic Data Centre (CCDC).
#
# This work is licensed under the Creative Commons
# Attribution-NonCommercial-ShareAlike 4.0 International License.
# To view a copy of this license, visit
# http://creativecommons.org/licenses/by-nc-sa/4.0/
# or send a letter to
# Creative Commons, PO Box 1866, Mountain View, CA 94042, USA.
#
# CIF created using the CSD Python API on 29 September 2022
# The structure has been converted into the P1 space group
# The structure has a 3D framework
# The original CSD entry QAWRIQ is in the triclinic crystal system
# The framework has been calculated to contain at least 10.0% void space
# The void calculation uses a probe of radius 1.32A, grid spacing 0.4
#
###############################################################################

data_QAWRIQ
_chemical_formula_moiety         '(C48 H38 Gd4 N6 O26)n'
_symmetry_cell_setting           triclinic
_symmetry_space_group_name_H-M   'P 1'
_symmetry_Int_Tables_number      1
_space_group_name_Hall           'P 1'
loop_
_symmetry_equiv_pos_site_id
_symmetry_equiv_pos_as_xyz
1 x,y,z
_cell_length_a                   10.524(3)
_cell_length_b                   11.307(3)
_cell_length_c                   14.316(4)
_cell_angle_alpha                111.186(4)
_cell_angle_beta                 107.831(4)
_cell_angle_gamma                91.583(4)
_cell_volume                     1493.63
loop_
_atom_site_label
_atom_site_type_symbol
_atom_site_fract_x
_atom_site_fract_y
_atom_site_fract_z
_atom_site_U_iso_or_equiv
_atom_site_thermal_displace_type
O21 O 0.0171(6) 0.6456(6) 0.3965(5) 0.0262 Uani
O17 O 0.1112(5) 0.4431(5) 0.7709(4) 0.0201 Uani
Gd6 Gd 0.30683(4) 0.51726(3) 0.91887(3) 0.0120 Uani
Gd13 Gd 0.21557(4) 0.36764(3) 0.60525(3) 0.0126 Uani
Gd8 Gd 0.69317(4) 0.48274(3) 0.08113(3) 0.0120 Uani
O7 O 0.6917(7) 0.3251(6) 0.1521(5) 0.0279 Uani
O8 O 0.7940(7) 0.4080(5) 0.3283(5) 0.0289 Uani
N2 N 0.8388(11) 0.0372(9) 0.4345(7) 0.0581 Uani
H7 H 0.8664 0.1072 0.4906 0.0700 Uiso
C12 C 0.6682(11) 0.0750(8) 0.1444(8) 0.0358 Uani
H15 H 0.6230 0.0855 0.0817 0.0430 Uiso
C13 C 0.7322(9) 0.1808(8) 0.2381(7) 0.0197 Uani
C14 C 0.7387(9) 0.3154(8) 0.2393(7) 0.0222 Uani
C15 C 0.7879(9) 0.1635(8) 0.3321(7) 0.0250 Uani
H16 H 0.8254 0.2353 0.3952 0.0290 Uiso
C16 C 0.7899(9) 0.0420(8) 0.3357(7) 0.0243 Uani
O35 O 0.6096(6) 0.2923(6) 0.9220(5) 0.0274 Uani
O37 O 0.8306(6) 0.3366(6) 0.9933(5) 0.0319 Uani
C43 C 0.8617(10) 0.0458(9) 0.7188(8) 0.0332 Uani
H36 H 0.9448 0.0292 0.7111 0.0390 Uiso
C44 C 0.8602(10) 0.1439(9) 0.8093(8) 0.0332 Uani
H37 H 0.9398 0.1930 0.8621 0.0400 Uiso
C45 C 0.7338(10) 0.1672(8) 0.8190(7) 0.0264 Uani
C46 C 0.7236(9) 0.2701(8) 0.9177(7) 0.0222 Uani
C47 C 0.6163(10) 0.0959(8) 0.7388(7) 0.0301 Uani
H38 H 0.5333 0.1152 0.7453 0.0370 Uiso
Gd11 Gd 0.78443(4) 0.63236(3) 0.39475(3) 0.0126 Uani
O1 O 0.4582(5) 0.4678(5) 0.0717(4) 0.0168 Uani
O2 O 0.5889(5) 0.5561(5) 0.2389(4) 0.0189 Uani
O5 O 0.7053(6) 0.7093(5) 0.1435(5) 0.0226 Uani
O6 O 0.7819(7) 0.7850(5) 0.3209(5) 0.0277 Uani
O13 O 0.9205(7) 0.5913(6) 0.5524(5) 0.0349 Uani
H1 H 0.9640 0.5282 0.5445 0.0420 Uiso
H2 H 0.9234 0.6404 0.6144 0.0420 Uiso
O14 O 0.6424(7) 0.5375(7) 0.4613(6) 0.0432 Uani
H3 H 0.5783 0.4765 0.4183 0.0520 Uiso
H4 H 0.6565 0.5651 0.5278 0.0520 Uiso
N1 N 0.1953(8) 0.4086(8) 0.0195(6) 0.0306 Uani
H8 H 0.8419 0.9643 0.4405 0.0700 Uiso
C1 C 0.4725(8) 0.5195(7) 0.1703(6) 0.0158 Uani
C2 C 0.3504(8) 0.5353(8) 0.2025(7) 0.0199 Uani
C3 C 0.3643(9) 0.6104(8) 0.3071(7) 0.0242 Uani
H11 H 0.4506 0.6464 0.3561 0.0290 Uiso
C4 C 0.2554(9) 0.6333(9) 0.3404(7) 0.0265 Uani
H12 H 0.2671 0.6849 0.4107 0.0320 Uiso
C5 C 0.1268(8) 0.5779(8) 0.2671(6) 0.0177 Uani
C6 C 0.0036(8) 0.5961(8) 0.2994(7) 0.0186 Uani
C7 C 0.1101(8) 0.5048(8) 0.1627(7) 0.0231 Uani
H13 H 0.0232 0.4709 0.1141 0.0270 Uiso
C8 C 0.2197(8) 0.4802(8) 0.1278(6) 0.0186 Uani
C9 C 0.7412(9) 0.7997(7) 0.2342(7) 0.0185 Uani
C10 C 0.7358(9) 0.9335(7) 0.2386(7) 0.0231 Uani
C11 C 0.6731(11) 0.9528(8) 0.1460(7) 0.0345 Uani
H14 H 0.6330 0.8817 0.0828 0.0420 Uiso
O18 O 0.8888(5) 0.5569(5) 0.2291(4) 0.0201 Uani
O31 O 0.8732(6) 0.8334(6) 0.5477(5) 0.0289 Uani
O33 O 0.6536(7) 0.7899(6) 0.4744(6) 0.0400 Uani
O36 O 0.3904(6) 0.7077(6) 0.0780(5) 0.0274 Uani
O38 O 0.1694(6) 0.6634(6) 0.0067(5) 0.0319 Uani
H24 H 0.8863 0.6192 0.0239 0.0370 Uiso
H25 H 0.7380 0.6076 0.0035 0.0370 Uiso
N6 N 0.4951(10) 0.9209(10) 0.5769(8) 0.0627 Uani
H28 H 0.4216 0.9378 0.5898 0.0750 Uiso
H29 H 0.4925 0.8578 0.5199 0.0750 Uiso
C41 C 0.7576(10) 0.8593(8) 0.5485(7) 0.0247 Uani
C42 C 0.7454(10) 0.9701(8) 0.6383(7) 0.0251 Uani
C48 C 0.6200(9) 0.9966(9) 0.6493(7) 0.0291 Uani
H5 H 0.1137 0.3808 0.9761 0.0370 Uiso
H6 H 0.2620 0.3924 0.9965 0.0370 Uiso
O15 O 0.5418(5) 0.5322(5) 0.9283(4) 0.0168 Uani
O16 O 0.4111(5) 0.4439(5) 0.7611(4) 0.0189 Uani
O20 O 0.9829(6) 0.3544(6) 0.6035(5) 0.0262 Uani
O24 O 0.2947(6) 0.2907(5) 0.8565(5) 0.0226 Uani
O26 O 0.2181(7) 0.2150(5) 0.6791(5) 0.0277 Uani
O28 O 0.3083(7) 0.6749(6) 0.8479(5) 0.0279 Uani
O30 O 0.2060(7) 0.5920(5) 0.6717(5) 0.0289 Uani
O32 O 0.1268(6) 0.1666(6) 0.4523(5) 0.0289 Uani
O34 O 0.3464(7) 0.2101(6) 0.5256(6) 0.0400 Uani
O39 O 0.0795(7) 0.4087(6) 0.4476(5) 0.0349 Uani
H20 H 0.0360 0.4718 0.4555 0.0420 Uiso
H21 H 0.0766 0.3596 0.3856 0.0420 Uiso
O40 O 0.3576(7) 0.4625(7) 0.5387(6) 0.0432 Uani
H22 H 0.4217 0.5235 0.5817 0.0520 Uiso
H23 H 0.3435 0.4349 0.4722 0.0520 Uiso
N4 N 0.8047(8) 0.5914(8) 0.9805(6) 0.0306 Uani
C25 C 0.5275(8) 0.4805(7) 0.8297(6) 0.0158 Uani
C26 C 0.6496(8) 0.4647(8) 0.7975(7) 0.0199 Uani
C27 C 0.6357(9) 0.3896(8) 0.6929(7) 0.0242 Uani
H30 H 0.5494 0.3536 0.6439 0.0290 Uiso
C28 C 0.7446(9) 0.3667(9) 0.6596(7) 0.0265 Uani
H31 H 0.7329 0.3151 0.5893 0.0320 Uiso
C29 C 0.8732(8) 0.4221(8) 0.7329(6) 0.0177 Uani
C30 C 0.9964(8) 0.4039(8) 0.7006(7) 0.0186 Uani
C31 C 0.8899(8) 0.4952(8) 0.8373(7) 0.0231 Uani
H32 H 0.9768 0.5291 0.8859 0.0270 Uiso
C32 C 0.7803(8) 0.5198(8) 0.8722(6) 0.0186 Uani
N3 N 0.5049(10) 0.0791(10) 0.4231(8) 0.0627 Uani
H9 H 0.5784 0.0622 0.4102 0.0750 Uiso
H10 H 0.5075 0.1422 0.4801 0.0750 Uiso
C17 C 0.2424(10) 0.1407(8) 0.4515(7) 0.0247 Uani
C18 C 0.2546(10) 0.0299(8) 0.3617(7) 0.0251 Uani
C24 C 0.3800(9) 0.0034(9) 0.3507(7) 0.0291 Uani
H27 H 0.1581 0.0357 0.5595 0.0700 Uiso
C33 C 0.2588(9) 0.2003(7) 0.7658(7) 0.0185 Uani
C34 C 0.2642(9) 0.0665(7) 0.7614(7) 0.0231 Uani
C35 C 0.3269(11) 0.0472(8) 0.8540(7) 0.0345 Uani
H33 H 0.3670 0.1183 0.9172 0.0420 Uiso
C19 C 0.1383(10) 0.9542(9) 0.2812(8) 0.0332 Uani
H17 H 0.0552 0.9708 0.2889 0.0390 Uiso
C20 C 0.1398(10) 0.8561(9) 0.1907(8) 0.0332 Uani
H18 H 0.0602 0.8070 0.1379 0.0400 Uiso
C21 C 0.2662(10) 0.8328(8) 0.1810(7) 0.0264 Uani
C22 C 0.2764(9) 0.7299(8) 0.0823(7) 0.0222 Uani
C23 C 0.3837(10) 0.9041(8) 0.2612(7) 0.0301 Uani
H19 H 0.4667 0.8848 0.2547 0.0370 Uiso
N5 N 0.1612(11) 0.9628(9) 0.5655(7) 0.0581 Uani
H26 H 0.1336 0.8928 0.5094 0.0700 Uiso
C36 C 0.3318(11) 0.9250(8) 0.8556(8) 0.0358 Uani
H34 H 0.3770 0.9145 0.9183 0.0430 Uiso
C37 C 0.2678(9) 0.8192(8) 0.7619(7) 0.0197 Uani
C38 C 0.2613(9) 0.6846(8) 0.7607(7) 0.0222 Uani
C39 C 0.2121(9) 0.8365(8) 0.6679(7) 0.0250 Uani
H35 H 0.1746 0.7647 0.6048 0.0290 Uiso
C40 C 0.2101(9) 0.9580(8) 0.6643(7) 0.0243 Uani
loop_
_atom_site_aniso_label
_atom_site_aniso_U_11
_atom_site_aniso_U_22
_atom_site_aniso_U_33
_atom_site_aniso_U_23
_atom_site_aniso_U_13
_atom_site_aniso_U_12
O21 0.015 0.043 0.02 0.008 0.01 0.008
O17 0.011 0.028 0.015 0.005 0 0.005
Gd6 0.0125 0.0098 0.0125 0.00321 0.00379 0.00559
Gd13 0.0132 0.0106 0.014 0.00444 0.00492 0.00523
Gd8 0.0125 0.0098 0.0125 0.00321 0.00379 0.00559
O7 0.045 0.021 0.02 0.017 0.003 0.007
O8 0.043 0.011 0.029 0.006 0.009 0.008
N2 0.088 0.029 0.04 0.012 0.001 0.001
C12 0.057 0.017 0.023 0.006 0.002 0.002
C13 0.028 0.016 0.021 0.013 0.009 0.007
C14 0.03 0.012 0.03 0.008 0.017 0.009
C15 0.036 0.012 0.021 0.006 0.002 0.003
C16 0.027 0.021 0.028 0.018 0.003 0.007
O35 0.025 0.027 0.022 0 0.008 0.007
O37 0.027 0.03 0.026 -0.001 0.006 0.006
C43 0.024 0.032 0.037 0.003 0.014 0.006
C44 0.026 0.028 0.032 -0.005 0.012 0
C45 0.032 0.019 0.024 0.002 0.011 0.011
C46 0.032 0.012 0.021 0.005 0.008 0.008
C47 0.025 0.023 0.033 -0.001 0.011 0.013
Gd11 0.0132 0.0106 0.014 0.00444 0.00492 0.00523
O1 0.014 0.021 0.016 0.007 0.006 0.004
O2 0.01 0.029 0.017 0.01 0.002 0.007
O5 0.035 0.01 0.021 0.006 0.007 0.007
O6 0.054 0.007 0.021 0.007 0.009 0.01
O13 0.038 0.041 0.028 0.018 0.008 0.016
O14 0.039 0.055 0.047 0.025 0.024 0.003
N1 0.018 0.047 0.02 0.002 0.011 0.001
C1 0.017 0.016 0.019 0.012 0.006 0.005
C2 0.009 0.027 0.024 0.015 0 0.003
C3 0.014 0.034 0.014 -0.002 0.004 0.004
C4 0.019 0.037 0.015 0.003 0.003 0.003
C5 0.016 0.027 0.016 0.01 0.011 0.009
C6 0.018 0.023 0.02 0.01 0.011 0.009
C7 0.007 0.03 0.027 0.005 0.006 0
C8 0.016 0.021 0.015 0.004 0.004 0.001
C9 0.023 0.01 0.024 0.008 0.008 0.007
C10 0.028 0.008 0.031 0.009 0.005 0.004
C11 0.062 0.013 0.02 0.007 0.002 0.004
O18 0.011 0.028 0.015 0.005 0 0.005
O31 0.026 0.023 0.027 0 0.006 0.009
O33 0.028 0.032 0.038 -0.013 0.014 -0.001
O36 0.025 0.027 0.022 0 0.008 0.007
O38 0.027 0.03 0.026 -0.001 0.006 0.006
N6 0.041 0.062 0.06 -0.009 0.023 0.003
C41 0.033 0.016 0.021 0.003 0.009 0.002
C42 0.035 0.019 0.019 0 0.015 0.003
C48 0.027 0.025 0.021 -0.001 0.001 0.004
O15 0.014 0.021 0.016 0.007 0.006 0.004
O16 0.01 0.029 0.017 0.01 0.002 0.007
O20 0.015 0.043 0.02 0.008 0.01 0.008
O24 0.035 0.01 0.021 0.006 0.007 0.007
O26 0.054 0.007 0.021 0.007 0.009 0.01
O28 0.045 0.021 0.02 0.017 0.003 0.007
O30 0.043 0.011 0.029 0.006 0.009 0.008
O32 0.026 0.023 0.027 0 0.006 0.009
O34 0.028 0.032 0.038 -0.013 0.014 -0.001
O39 0.038 0.041 0.028 0.018 0.008 0.016
O40 0.039 0.055 0.047 0.025 0.024 0.003
N4 0.018 0.047 0.02 0.002 0.011 0.001
C25 0.017 0.016 0.019 0.012 0.006 0.005
C26 0.009 0.027 0.024 0.015 0 0.003
C27 0.014 0.034 0.014 -0.002 0.004 0.004
C28 0.019 0.037 0.015 0.003 0.003 0.003
C29 0.016 0.027 0.016 0.01 0.011 0.009
C30 0.018 0.023 0.02 0.01 0.011 0.009
C31 0.007 0.03 0.027 0.005 0.006 0
C32 0.016 0.021 0.015 0.004 0.004 0.001
N3 0.041 0.062 0.06 -0.009 0.023 0.003
C17 0.033 0.016 0.021 0.003 0.009 0.002
C18 0.035 0.019 0.019 0 0.015 0.003
C24 0.027 0.025 0.021 -0.001 0.001 0.004
C33 0.023 0.01 0.024 0.008 0.008 0.007
C34 0.028 0.008 0.031 0.009 0.005 0.004
C35 0.062 0.013 0.02 0.007 0.002 0.004
C19 0.024 0.032 0.037 0.003 0.014 0.006
C20 0.026 0.028 0.032 -0.005 0.012 0
C21 0.032 0.019 0.024 0.002 0.011 0.011
C22 0.032 0.012 0.021 0.005 0.008 0.008
C23 0.025 0.023 0.033 -0.001 0.011 0.013
N5 0.088 0.029 0.04 0.012 0.001 0.001
C36 0.057 0.017 0.023 0.006 0.002 0.002
C37 0.028 0.016 0.021 0.013 0.009 0.007
C38 0.03 0.012 0.03 0.008 0.017 0.009
C39 0.036 0.012 0.021 0.006 0.002 0.003
C40 0.027 0.021 0.028 0.018 0.003 0.007
loop_
_geom_bond_atom_site_label_1
_geom_bond_atom_site_label_2
_geom_bond_site_symmetry_1
_geom_bond_site_symmetry_2
Gd6 O17 1_555 1_555
O7 C14 1_555 1_555
O8 C14 1_555 1_555
N2 H7 1_555 1_555
H15 C12 1_555 1_555
C13 C12 1_555 1_555
C14 C13 1_555 1_555
C15 C13 1_555 1_555
H16 C15 1_555 1_555
C16 N2 1_555 1_555
O35 C46 1_555 1_555
O37 C46 1_555 1_555
H36 C43 1_555 1_555
C44 C43 1_555 1_555
H37 C44 1_555 1_555
C45 C44 1_555 1_555
C46 C45 1_555 1_555
C47 C45 1_555 1_555
H38 C47 1_555 1_555
Gd8 O7 1_555 1_555
Gd11 O8 1_555 1_555
C15 C16 1_555 1_555
O1 C1 1_555 1_555
O2 C1 1_555 1_555
O21 C6 1_555 1_555
O5 C9 1_555 1_555
O6 C9 1_555 1_555
O13 H1 1_555 1_555
H2 O13 1_555 1_555
O14 H3 1_555 1_555
H4 O14 1_555 1_555
C1 C2 1_555 1_555
C2 C3 1_555 1_555
C3 H11 1_555 1_555
C4 C3 1_555 1_555
H12 C4 1_555 1_555
C5 C4 1_555 1_555
C6 C5 1_555 1_555
C7 C5 1_555 1_555
H13 C7 1_555 1_555
C8 N1 1_555 1_555
C9 C10 1_555 1_555
C10 C11 1_555 1_555
C11 H14 1_555 1_555
Gd8 O1 1_555 1_555
Gd11 O2 1_555 1_555
O18 Gd8 1_555 1_555
O31 Gd11 1_555 1_555
O33 Gd11 1_555 1_555
N6 H28 1_555 1_555
H29 N6 1_555 1_555
C41 O31 1_555 1_555
C42 C41 1_555 1_555
C48 N6 1_555 1_555
O2 Gd8 1_555 1_555
O5 Gd8 1_555 1_555
O6 Gd11 1_555 1_555
O13 Gd11 1_555 1_555
O14 Gd11 1_555 1_555
C2 C8 1_555 1_555
C7 C8 1_555 1_555
O33 C41 1_555 1_555
C42 C48 1_555 1_555
O16 C25 1_555 1_555
O20 C30 1_555 1_555
O24 Gd6 1_555 1_555
O26 Gd13 1_555 1_555
O28 Gd6 1_555 1_555
O30 Gd13 1_555 1_555
O32 Gd13 1_555 1_555
O34 Gd13 1_555 1_555
O39 H20 1_555 1_555
H21 O39 1_555 1_555
O40 H22 1_555 1_555
H23 O40 1_555 1_555
C25 O15 1_555 1_555
C26 C25 1_555 1_555
C27 C26 1_555 1_555
H30 C27 1_555 1_555
C28 C27 1_555 1_555
H31 C28 1_555 1_555
C29 C28 1_555 1_555
C30 C29 1_555 1_555
C31 C29 1_555 1_555
H32 C31 1_555 1_555
C32 N4 1_555 1_555
Gd13 O16 1_555 1_555
O15 Gd6 1_555 1_555
O16 Gd6 1_555 1_555
O39 Gd13 1_555 1_555
O40 Gd13 1_555 1_555
C26 C32 1_555 1_555
C31 C32 1_555 1_555
O32 C17 1_555 1_555
O34 C17 1_555 1_555
N3 H9 1_555 1_555
H10 N3 1_555 1_555
C17 C18 1_555 1_555
C24 N3 1_555 1_555
C18 C24 1_555 1_555
O24 C33 1_555 1_555
O26 C33 1_555 1_555
C33 C34 1_555 1_555
C34 C35 1_555 1_555
C35 H33 1_555 1_555
O36 C22 1_555 1_555
O38 C22 1_555 1_555
C19 H17 1_555 1_555
C20 C19 1_555 1_555
H18 C20 1_555 1_555
C21 C20 1_555 1_555
C22 C21 1_555 1_555
C23 C21 1_555 1_555
H19 C23 1_555 1_555
N5 H26 1_555 1_555
H34 C36 1_555 1_555
C37 C36 1_555 1_555
C38 O28 1_555 1_555
C39 C37 1_555 1_555
H35 C39 1_555 1_555
C40 N5 1_555 1_555
O30 C38 1_555 1_555
C37 C38 1_555 1_555
C39 C40 1_555 1_555

#END
