
###############################################################################
#
# This file contains modified crystal structure data generated from the
# MOF subset of the Cambridge Structural Database (CSD) v543 
# hosted by the Cambridge Crystallographic Data Centre (CCDC).
#
# This work is licensed under the Creative Commons
# Attribution-NonCommercial-ShareAlike 4.0 International License.
# To view a copy of this license, visit
# http://creativecommons.org/licenses/by-nc-sa/4.0/
# or send a letter to
# Creative Commons, PO Box 1866, Mountain View, CA 94042, USA.
#
# CIF created using the CSD Python API on 29 September 2022
# The structure has been converted into the P1 space group
# The structure has a 3D framework
# The original CSD entry QAXGEF is in the orthorhombic crystal system
# The framework has been calculated to contain at least 10.0% void space
# The void calculation uses a probe of radius 1.32A, grid spacing 0.4
#
###############################################################################

data_QAXGEF
_chemical_formula_moiety         '(C256 H224 Gd4 N48 O128 8+)n'
_symmetry_cell_setting           triclinic
_symmetry_space_group_name_H-M   'P 1'
_symmetry_Int_Tables_number      1
_space_group_name_Hall           'P 1'
loop_
_symmetry_equiv_pos_site_id
_symmetry_equiv_pos_as_xyz
1 x,y,z
_cell_length_a                   17.9185(7)
_cell_length_b                   18.0874(8)
_cell_length_c                   26.5146(11)
_cell_angle_alpha                90
_cell_angle_beta                 90
_cell_angle_gamma                90
_cell_volume                     8593.36
loop_
_atom_site_label
_atom_site_type_symbol
_atom_site_fract_x
_atom_site_fract_y
_atom_site_fract_z
O6 O 0.41140(11) 0.22161(10) 0.61310(7)
N2 N 0.41822(11) 0.11565(11) 0.54518(7)
C9 C 0.41959(14) 0.05837(14) 0.51301(10)
C10 C 0.36970(14) 0.04824(15) 0.47455(10)
C11 C 0.36629(19) 0.16570(18) 0.53825(12)
O8 O 0.3283(2) 0.28268(19) 0.56820(13)
C12 C 0.3682(2) 0.22904(19) 0.57581(13)
C13 C 0.3144(3) 0.1595(3) 0.50064(17)
H4 H 0.278764 0.196383 0.496400
C14 C 0.3147(2) 0.0996(2) 0.46922(16)
H5 H 0.277954 0.093930 0.444717
H6 H 0.4560(14) 0.0239(14) 0.5166(11)
Gd3 Gd 0.49907(2) 0.125000 0.625000
Gd1 Gd 0.50093(2) 0.875000 0.375000
O1 O 0.31052(11) 0.78977(12) 0.43005(8)
O2 O 0.33860(11) 0.52839(10) 0.61310(7)
O3 O 0.43328(11) 0.79673(12) 0.42726(8)
N1 N 0.33178(11) 0.63435(11) 0.54518(7)
C1 C 0.37391(13) 0.76847(14) 0.44120(9)
C2 C 0.33041(14) 0.69163(14) 0.51301(10)
C3 C 0.38030(14) 0.70176(15) 0.47455(10)
C4 C 0.38371(19) 0.58430(18) 0.53825(12)
O4 O 0.4217(2) 0.46732(19) 0.56820(13)
C5 C 0.3818(2) 0.52096(19) 0.57581(13)
C6 C 0.4356(3) 0.5905(3) 0.50064(17)
H1 H 0.471236 0.553617 0.496400
C7 C 0.4353(2) 0.6504(2) 0.46922(16)
H2 H 0.472046 0.656070 0.444717
H3 H 0.2940(14) 0.7261(14) 0.5166(11)
O5 O 0.43948(11) 0.96023(12) 0.43005(8)
O7 O 0.31672(11) 0.95327(12) 0.42726(8)
C8 C 0.37609(13) 0.98153(14) 0.44120(9)
Gd2 Gd 0.24907(2) 0.875000 0.375000
Gd4 Gd 0.25093(2) 0.625000 0.625000
O9 O 0.43948(11) 0.78977(12) 0.31995(8)
O10 O 0.58860(11) 0.77839(10) 0.38690(7)
O11 O 0.58860(11) 0.97161(10) 0.36310(7)
O12 O 0.43328(11) 0.95327(12) 0.32274(8)
N3 N 0.58178(11) 0.88435(11) 0.45482(7)
N4 N 0.58178(11) 0.86565(11) 0.29518(7)
O9_2 O 0.31052(11) 0.96023(12) 0.31995(8)
O10_2 O 0.16140(11) 0.97161(10) 0.38690(7)
O11_2 O 0.16140(11) 0.77839(10) 0.36310(7)
O12_2 O 0.31672(11) 0.79673(12) 0.32274(8)
N3_2 N 0.16822(11) 0.86565(11) 0.45482(7)
N4_2 N 0.16822(11) 0.88435(11) 0.29518(7)
O6_2 O 0.33860(11) 0.22161(10) 0.13690(7)
N2_2 N 0.33178(11) 0.11565(11) 0.20482(7)
C9_2 C 0.33041(14) 0.05837(14) 0.23699(10)
C10_2 C 0.38030(14) 0.04824(15) 0.27545(10)
C11_2 C 0.38371(19) 0.16570(18) 0.21175(12)
O8_2 O 0.4217(2) 0.28268(19) 0.18180(13)
C12_2 C 0.3818(2) 0.22904(19) 0.17419(13)
C13_2 C 0.4356(3) 0.1595(3) 0.24936(17)
H4_2 H 0.471236 0.196383 0.253600
C14_2 C 0.4353(2) 0.0996(2) 0.28078(16)
H5_2 H 0.472046 0.093930 0.305283
H6_2 H 0.2940(14) 0.0239(14) 0.2334(11)
Gd3_2 Gd 0.25093(2) 0.125000 0.125000
O2_2 O 0.41140(11) 0.52839(10) 0.13690(7)
N1_2 N 0.41822(11) 0.63435(11) 0.20482(7)
C1_2 C 0.37609(13) 0.76847(14) 0.30880(9)
C2_2 C 0.41959(14) 0.69163(14) 0.23699(10)
C3_2 C 0.36970(14) 0.70176(15) 0.27545(10)
C4_2 C 0.36629(19) 0.58430(18) 0.21175(12)
O4_2 O 0.3283(2) 0.46732(19) 0.18180(13)
C5_2 C 0.3682(2) 0.52096(19) 0.17419(13)
C6_2 C 0.3144(3) 0.5905(3) 0.24936(17)
H1_2 H 0.278764 0.553617 0.253600
C7_2 C 0.3147(2) 0.6504(2) 0.28078(16)
H2_2 H 0.277954 0.656070 0.305283
H3_2 H 0.4560(14) 0.7261(14) 0.2334(11)
C8_2 C 0.37391(13) 0.98153(14) 0.30880(9)
Gd4_2 Gd 0.49907(2) 0.625000 0.125000
O2_3 O 0.33860(11) 0.02839(10) 0.11310(7)
N1_3 N 0.33178(11) 0.13435(11) 0.04518(7)
C2_3 C 0.33041(14) 0.19163(14) 0.01301(10)
C4_3 C 0.38371(19) 0.08430(18) 0.03825(12)
C5_3 C 0.3818(2) 0.02096(19) 0.07581(13)
C6_3 C 0.4356(3) 0.0905(3) 0.00064(17)
H3_3 H 0.2940(14) 0.2261(14) 0.0166(11)
O6_3 O 0.41140(11) 0.72161(10) 0.11310(7)
N2_3 N 0.41822(11) 0.61565(11) 0.04518(7)
C9_3 C 0.41959(14) 0.55837(14) 0.01301(10)
C11_3 C 0.36629(19) 0.66570(18) 0.03825(12)
O8_3 O 0.3283(2) 0.78268(19) 0.06820(13)
C12_3 C 0.3682(2) 0.72904(19) 0.07581(13)
C13_3 C 0.3144(3) 0.6595(3) 0.00064(17)
H6_3 H 0.4560(14) 0.5239(14) 0.0166(11)
Gd1_2 Gd 0.50093(2) 0.375000 0.875000
O1_2 O 0.31052(11) 0.28977(12) 0.93005(8)
O3_2 O 0.43328(11) 0.29673(12) 0.92726(8)
C1_3 C 0.37391(13) 0.26847(14) 0.94120(9)
C3_3 C 0.38030(14) 0.20176(15) 0.97455(10)
H1_3 H 0.471236 0.053617 0.996400
C7_3 C 0.4353(2) 0.1504(2) 0.96922(16)
H2_3 H 0.472046 0.156070 0.944717
O5_2 O 0.43948(11) 0.46023(12) 0.93005(8)
O7_2 O 0.31672(11) 0.45327(12) 0.92726(8)
C8_3 C 0.37609(13) 0.48153(14) 0.94120(9)
C10_3 C 0.36970(14) 0.54824(15) 0.97455(10)
H4_3 H 0.278764 0.696383 0.996400
C14_3 C 0.3147(2) 0.5996(2) 0.96922(16)
H5_3 H 0.277954 0.593930 0.944717
Gd2_2 Gd 0.24907(2) 0.375000 0.875000
O9_3 O 0.43948(11) 0.28977(12) 0.81995(8)
O10_3 O 0.58860(11) 0.27839(10) 0.88690(7)
O11_3 O 0.58860(11) 0.47161(10) 0.86310(7)
O12_3 O 0.43328(11) 0.45327(12) 0.82274(8)
N3_3 N 0.58178(11) 0.38435(11) 0.95482(7)
N4_3 N 0.58178(11) 0.36565(11) 0.79518(7)
O9_4 O 0.31052(11) 0.46023(12) 0.81995(8)
O10_4 O 0.16140(11) 0.47161(10) 0.88690(7)
O11_4 O 0.16140(11) 0.27839(10) 0.86310(7)
O12_4 O 0.31672(11) 0.29673(12) 0.82274(8)
N3_4 N 0.16822(11) 0.36565(11) 0.95482(7)
N4_4 N 0.16822(11) 0.38435(11) 0.79518(7)
O2_4 O 0.41140(11) 0.02839(10) 0.63690(7)
N1_4 N 0.41822(11) 0.13435(11) 0.70482(7)
C1_4 C 0.37609(13) 0.26847(14) 0.80880(9)
C2_4 C 0.41959(14) 0.19163(14) 0.73699(10)
C3_4 C 0.36970(14) 0.20176(15) 0.77545(10)
C4_4 C 0.36629(19) 0.08430(18) 0.71175(12)
C5_4 C 0.3682(2) 0.02096(19) 0.67419(13)
C6_4 C 0.3144(3) 0.0905(3) 0.74936(17)
H1_4 H 0.278764 0.053617 0.753600
C7_4 C 0.3147(2) 0.1504(2) 0.78078(16)
H2_4 H 0.277954 0.156070 0.805283
H3_4 H 0.4560(14) 0.2261(14) 0.7334(11)
O6_4 O 0.33860(11) 0.72161(10) 0.63690(7)
N2_4 N 0.33178(11) 0.61565(11) 0.70482(7)
C8_4 C 0.37391(13) 0.48153(14) 0.80880(9)
C9_4 C 0.33041(14) 0.55837(14) 0.73699(10)
C10_4 C 0.38030(14) 0.54824(15) 0.77545(10)
C11_4 C 0.38371(19) 0.66570(18) 0.71175(12)
O8_4 O 0.4217(2) 0.78268(19) 0.68180(13)
C12_4 C 0.3818(2) 0.72904(19) 0.67419(13)
C13_4 C 0.4356(3) 0.6595(3) 0.74936(17)
H4_4 H 0.471236 0.696383 0.753600
C14_4 C 0.4353(2) 0.5996(2) 0.78078(16)
H5_4 H 0.472046 0.593930 0.805283
H6_4 H 0.2940(14) 0.5239(14) 0.7334(11)
Gd1_3 Gd 0.00093(2) 0.875000 0.875000
O10_5 O 0.08860(11) 0.77839(10) 0.88690(7)
O11_5 O 0.08860(11) 0.97161(10) 0.86310(7)
N3_5 N 0.08178(11) 0.88435(11) 0.95482(7)
N4_5 N 0.08178(11) 0.86565(11) 0.79518(7)
O6_5 O 0.91140(11) 0.22161(10) 0.11310(7)
N2_5 N 0.91822(11) 0.11565(11) 0.04518(7)
C9_5 C 0.91959(14) 0.05837(14) 0.01301(10)
C11_5 C 0.86629(19) 0.16570(18) 0.03825(12)
O8_5 O 0.8283(2) 0.28268(19) 0.06820(13)
C12_5 C 0.8682(2) 0.22904(19) 0.07581(13)
C13_5 C 0.8144(3) 0.1595(3) 0.00064(17)
H6_5 H 0.9560(14) 0.0239(14) 0.0166(11)
Gd3_3 Gd 0.99907(2) 0.125000 0.125000
O2_5 O 0.83860(11) 0.52839(10) 0.11310(7)
N1_5 N 0.83178(11) 0.63435(11) 0.04518(7)
C2_5 C 0.83041(14) 0.69163(14) 0.01301(10)
C4_5 C 0.88371(19) 0.58430(18) 0.03825(12)
O4_3 O 0.9217(2) 0.46732(19) 0.06820(13)
C5_5 C 0.8818(2) 0.52096(19) 0.07581(13)
C6_5 C 0.9356(3) 0.5905(3) 0.00064(17)
H3_5 H 0.7940(14) 0.7261(14) 0.0166(11)
Gd4_3 Gd 0.75093(2) 0.625000 0.125000
O1_3 O 0.81052(11) 0.78977(12) 0.93005(8)
O3_3 O 0.93328(11) 0.79673(12) 0.92726(8)
C1_5 C 0.87391(13) 0.76847(14) 0.94120(9)
C3_5 C 0.88030(14) 0.70176(15) 0.97455(10)
H1_5 H 0.971236 0.553617 0.996400
C7_5 C 0.9353(2) 0.6504(2) 0.96922(16)
H2_5 H 0.972046 0.656070 0.944717
O5_3 O 0.93948(11) 0.96023(12) 0.93005(8)
O7_3 O 0.81672(11) 0.95327(12) 0.92726(8)
C8_5 C 0.87609(13) 0.98153(14) 0.94120(9)
Gd2_3 Gd 0.74907(2) 0.875000 0.875000
O9_5 O 0.93948(11) 0.78977(12) 0.81995(8)
O12_5 O 0.93328(11) 0.95327(12) 0.82274(8)
O9_6 O 0.81052(11) 0.96023(12) 0.81995(8)
O10_6 O 0.66140(11) 0.97161(10) 0.88690(7)
O11_6 O 0.66140(11) 0.77839(10) 0.86310(7)
O12_6 O 0.81672(11) 0.79673(12) 0.82274(8)
N3_6 N 0.66822(11) 0.86565(11) 0.95482(7)
N4_6 N 0.66822(11) 0.88435(11) 0.79518(7)
O6_6 O 0.83860(11) 0.22161(10) 0.63690(7)
N2_6 N 0.83178(11) 0.11565(11) 0.70482(7)
C9_6 C 0.83041(14) 0.05837(14) 0.73699(10)
C10_5 C 0.88030(14) 0.04824(15) 0.77545(10)
C11_6 C 0.88371(19) 0.16570(18) 0.71175(12)
O8_6 O 0.9217(2) 0.28268(19) 0.68180(13)
C12_6 C 0.8818(2) 0.22904(19) 0.67419(13)
C13_6 C 0.9356(3) 0.1595(3) 0.74936(17)
H4_5 H 0.971236 0.196383 0.753600
C14_5 C 0.9353(2) 0.0996(2) 0.78078(16)
H5_5 H 0.972046 0.093930 0.805283
H6_6 H 0.7940(14) 0.0239(14) 0.7334(11)
Gd3_4 Gd 0.75093(2) 0.125000 0.625000
O2_6 O 0.91140(11) 0.52839(10) 0.63690(7)
N1_6 N 0.91822(11) 0.63435(11) 0.70482(7)
C1_6 C 0.87609(13) 0.76847(14) 0.80880(9)
C2_6 C 0.91959(14) 0.69163(14) 0.73699(10)
C3_6 C 0.86970(14) 0.70176(15) 0.77545(10)
C4_6 C 0.86629(19) 0.58430(18) 0.71175(12)
O4_4 O 0.8283(2) 0.46732(19) 0.68180(13)
C5_6 C 0.8682(2) 0.52096(19) 0.67419(13)
C6_6 C 0.8144(3) 0.5905(3) 0.74936(17)
H1_6 H 0.778764 0.553617 0.753600
C7_6 C 0.8147(2) 0.6504(2) 0.78078(16)
H2_6 H 0.777954 0.656070 0.805283
H3_6 H 0.9560(14) 0.7261(14) 0.7334(11)
C8_6 C 0.87391(13) 0.98153(14) 0.80880(9)
Gd4_4 Gd 0.99907(2) 0.625000 0.625000
Gd1_4 Gd 0.00093(2) 0.375000 0.375000
O10_7 O 0.08860(11) 0.27839(10) 0.38690(7)
O11_7 O 0.08860(11) 0.47161(10) 0.36310(7)
N3_7 N 0.08178(11) 0.38435(11) 0.45482(7)
N4_7 N 0.08178(11) 0.36565(11) 0.29518(7)
O1_4 O 0.81052(11) 0.28977(12) 0.43005(8)
O2_7 O 0.83860(11) 0.02839(10) 0.61310(7)
O3_4 O 0.93328(11) 0.29673(12) 0.42726(8)
N1_7 N 0.83178(11) 0.13435(11) 0.54518(7)
C1_7 C 0.87391(13) 0.26847(14) 0.44120(9)
C2_7 C 0.83041(14) 0.19163(14) 0.51301(10)
C3_7 C 0.88030(14) 0.20176(15) 0.47455(10)
C4_7 C 0.88371(19) 0.08430(18) 0.53825(12)
C5_7 C 0.8818(2) 0.02096(19) 0.57581(13)
C6_7 C 0.9356(3) 0.0905(3) 0.50064(17)
H1_7 H 0.971236 0.053617 0.496400
C7_7 C 0.9353(2) 0.1504(2) 0.46922(16)
H2_7 H 0.972046 0.156070 0.444717
H3_7 H 0.7940(14) 0.2261(14) 0.5166(11)
O5_4 O 0.93948(11) 0.46023(12) 0.43005(8)
O6_7 O 0.91140(11) 0.72161(10) 0.61310(7)
O7_4 O 0.81672(11) 0.45327(12) 0.42726(8)
N2_7 N 0.91822(11) 0.61565(11) 0.54518(7)
C8_7 C 0.87609(13) 0.48153(14) 0.44120(9)
C9_7 C 0.91959(14) 0.55837(14) 0.51301(10)
C10_6 C 0.86970(14) 0.54824(15) 0.47455(10)
C11_7 C 0.86629(19) 0.66570(18) 0.53825(12)
O8_7 O 0.8283(2) 0.78268(19) 0.56820(13)
C12_7 C 0.8682(2) 0.72904(19) 0.57581(13)
C13_7 C 0.8144(3) 0.6595(3) 0.50064(17)
H4_6 H 0.778764 0.696383 0.496400
C14_6 C 0.8147(2) 0.5996(2) 0.46922(16)
H5_6 H 0.777954 0.593930 0.444717
H6_7 H 0.9560(14) 0.5239(14) 0.5166(11)
Gd2_4 Gd 0.74907(2) 0.375000 0.375000
O9_7 O 0.93948(11) 0.28977(12) 0.31995(8)
O12_7 O 0.93328(11) 0.45327(12) 0.32274(8)
O9_8 O 0.81052(11) 0.46023(12) 0.31995(8)
O10_8 O 0.66140(11) 0.47161(10) 0.38690(7)
O11_8 O 0.66140(11) 0.27839(10) 0.36310(7)
O12_8 O 0.81672(11) 0.29673(12) 0.32274(8)
N3_8 N 0.66822(11) 0.36565(11) 0.45482(7)
N4_8 N 0.66822(11) 0.38435(11) 0.29518(7)
O2_8 O 0.91140(11) 0.02839(10) 0.13690(7)
N1_8 N 0.91822(11) 0.13435(11) 0.20482(7)
C1_8 C 0.87609(13) 0.26847(14) 0.30880(9)
C2_8 C 0.91959(14) 0.19163(14) 0.23699(10)
C3_8 C 0.86970(14) 0.20176(15) 0.27545(10)
C4_8 C 0.86629(19) 0.08430(18) 0.21175(12)
C5_8 C 0.8682(2) 0.02096(19) 0.17419(13)
C6_8 C 0.8144(3) 0.0905(3) 0.24936(17)
H1_8 H 0.778764 0.053617 0.253600
C7_8 C 0.8147(2) 0.1504(2) 0.28078(16)
H2_8 H 0.777954 0.156070 0.305283
H3_8 H 0.9560(14) 0.2261(14) 0.2334(11)
O6_8 O 0.83860(11) 0.72161(10) 0.13690(7)
N2_8 N 0.83178(11) 0.61565(11) 0.20482(7)
C8_8 C 0.87391(13) 0.48153(14) 0.30880(9)
C9_8 C 0.83041(14) 0.55837(14) 0.23699(10)
C10_7 C 0.88030(14) 0.54824(15) 0.27545(10)
C11_8 C 0.88371(19) 0.66570(18) 0.21175(12)
O8_8 O 0.9217(2) 0.78268(19) 0.18180(13)
C12_8 C 0.8818(2) 0.72904(19) 0.17419(13)
C13_8 C 0.9356(3) 0.6595(3) 0.24936(17)
H4_7 H 0.971236 0.696383 0.253600
C14_7 C 0.9353(2) 0.5996(2) 0.28078(16)
H5_7 H 0.972046 0.593930 0.305283
H6_8 H 0.7940(14) 0.5239(14) 0.2334(11)
O1_5 O 0.68948(11) 0.21023(12) 0.56995(8)
O3_5 O 0.56672(11) 0.20327(12) 0.57274(8)
C1_9 C 0.62609(13) 0.23153(14) 0.55880(9)
C2_9 C 0.66959(14) 0.30837(14) 0.48699(10)
C3_9 C 0.61970(14) 0.29824(15) 0.52545(10)
C4_9 C 0.61629(19) 0.41570(18) 0.46175(12)
O4_5 O 0.5783(2) 0.53268(19) 0.43180(13)
C5_9 C 0.6182(2) 0.47904(19) 0.42419(13)
C6_9 C 0.5644(3) 0.4095(3) 0.49936(17)
H1_9 H 0.528764 0.446383 0.503600
C7_9 C 0.5647(2) 0.3496(2) 0.53078(16)
H2_9 H 0.527954 0.343930 0.555283
H3_9 H 0.7060(14) 0.2739(14) 0.4834(11)
O5_5 O 0.56052(11) 0.03977(12) 0.56995(8)
O7_5 O 0.68328(11) 0.04673(12) 0.57274(8)
C8_9 C 0.62391(13) 0.01847(14) 0.55880(9)
O9_9 O 0.56052(11) 0.21023(12) 0.68005(8)
O12_9 O 0.56672(11) 0.04673(12) 0.67726(8)
C9_9 C 0.58041(14) 0.94163(14) 0.48699(10)
C10_8 C 0.63030(14) 0.95176(15) 0.52545(10)
C11_9 C 0.63371(19) 0.83430(18) 0.46175(12)
O8_9 O 0.6717(2) 0.71732(19) 0.43180(13)
C12_9 C 0.6318(2) 0.77096(19) 0.42419(13)
C13_9 C 0.6856(3) 0.8405(3) 0.49936(17)
H4_8 H 0.721236 0.803617 0.503600
C14_8 C 0.6853(2) 0.9004(2) 0.53078(16)
H5_8 H 0.722046 0.906070 0.555283
H6_9 H 0.5440(14) 0.9761(14) 0.4834(11)
O9_10 O 0.68948(11) 0.03977(12) 0.68005(8)
O12_10 O 0.68328(11) 0.20327(12) 0.67726(8)
C1_10 C 0.62391(13) 0.23153(14) 0.69120(9)
C2_10 C 0.58041(14) 0.30837(14) 0.76301(10)
C3_10 C 0.63030(14) 0.29824(15) 0.72455(10)
C4_10 C 0.63371(19) 0.41570(18) 0.78825(12)
O4_6 O 0.6717(2) 0.53268(19) 0.81820(13)
C5_10 C 0.6318(2) 0.47904(19) 0.82581(13)
C6_10 C 0.6856(3) 0.4095(3) 0.75064(17)
H1_10 H 0.721236 0.446383 0.746400
C7_10 C 0.6853(2) 0.3496(2) 0.71922(16)
H2_10 H 0.722046 0.343930 0.694717
H3_10 H 0.5440(14) 0.2739(14) 0.7666(11)
C8_10 C 0.62609(13) 0.01847(14) 0.69120(9)
C9_10 C 0.66959(14) 0.94163(14) 0.76301(10)
C10_9 C 0.61970(14) 0.95176(15) 0.72455(10)
C11_10 C 0.61629(19) 0.83430(18) 0.78825(12)
O8_10 O 0.5783(2) 0.71732(19) 0.81820(13)
C12_10 C 0.6182(2) 0.77096(19) 0.82581(13)
C13_10 C 0.5644(3) 0.8405(3) 0.75064(17)
H4_9 H 0.528764 0.803617 0.746400
C14_9 C 0.5647(2) 0.9004(2) 0.71922(16)
H5_9 H 0.527954 0.906070 0.694717
H6_10 H 0.7060(14) 0.9761(14) 0.7666(11)
O1_6 O 0.68948(11) 0.71023(12) 0.06995(8)
O3_6 O 0.56672(11) 0.70327(12) 0.07274(8)
C1_11 C 0.62609(13) 0.73153(14) 0.05880(9)
C3_11 C 0.61970(14) 0.79824(15) 0.02545(10)
H1_11 H 0.528764 0.946383 0.003600
C7_11 C 0.5647(2) 0.8496(2) 0.03078(16)
H2_11 H 0.527954 0.843930 0.055283
O5_6 O 0.56052(11) 0.53977(12) 0.06995(8)
O7_6 O 0.68328(11) 0.54673(12) 0.07274(8)
C8_11 C 0.62391(13) 0.51847(14) 0.05880(9)
C10_10 C 0.63030(14) 0.45176(15) 0.02545(10)
H4_10 H 0.721236 0.303617 0.003600
C14_10 C 0.6853(2) 0.4004(2) 0.03078(16)
H5_10 H 0.722046 0.406070 0.055283
O9_11 O 0.56052(11) 0.71023(12) 0.18005(8)
O12_11 O 0.56672(11) 0.54673(12) 0.17726(8)
C2_11 C 0.66959(14) 0.80837(14) 0.98699(10)
C4_11 C 0.61629(19) 0.91570(18) 0.96175(12)
C5_11 C 0.6182(2) 0.97904(19) 0.92419(13)
C6_11 C 0.5644(3) 0.9095(3) 0.99936(17)
H3_11 H 0.7060(14) 0.7739(14) 0.9834(11)
C9_11 C 0.58041(14) 0.44163(14) 0.98699(10)
C11_11 C 0.63371(19) 0.33430(18) 0.96175(12)
O8_11 O 0.6717(2) 0.21732(19) 0.93180(13)
C12_11 C 0.6318(2) 0.27096(19) 0.92419(13)
C13_11 C 0.6856(3) 0.3405(3) 0.99936(17)
H6_11 H 0.5440(14) 0.4761(14) 0.9834(11)
O9_12 O 0.68948(11) 0.53977(12) 0.18005(8)
O12_12 O 0.68328(11) 0.70327(12) 0.17726(8)
C1_12 C 0.62391(13) 0.73153(14) 0.19120(9)
C2_12 C 0.58041(14) 0.80837(14) 0.26301(10)
C3_12 C 0.63030(14) 0.79824(15) 0.22455(10)
C4_12 C 0.63371(19) 0.91570(18) 0.28825(12)
C5_12 C 0.6318(2) 0.97904(19) 0.32581(13)
C6_12 C 0.6856(3) 0.9095(3) 0.25064(17)
H1_12 H 0.721236 0.946383 0.246400
C7_12 C 0.6853(2) 0.8496(2) 0.21922(16)
H2_12 H 0.722046 0.843930 0.194717
H3_12 H 0.5440(14) 0.7739(14) 0.2666(11)
C8_12 C 0.62609(13) 0.51847(14) 0.19120(9)
C9_12 C 0.66959(14) 0.44163(14) 0.26301(10)
C10_11 C 0.61970(14) 0.45176(15) 0.22455(10)
C11_12 C 0.61629(19) 0.33430(18) 0.28825(12)
O8_12 O 0.5783(2) 0.21732(19) 0.31820(13)
C12_12 C 0.6182(2) 0.27096(19) 0.32581(13)
C13_12 C 0.5644(3) 0.3405(3) 0.25064(17)
H4_11 H 0.528764 0.303617 0.246400
C14_11 C 0.5647(2) 0.4004(2) 0.21922(16)
H5_11 H 0.527954 0.406070 0.194717
H6_12 H 0.7060(14) 0.4761(14) 0.2666(11)
O1_7 O 0.18948(11) 0.21023(12) 0.06995(8)
O3_7 O 0.06672(11) 0.20327(12) 0.07274(8)
C1_13 C 0.12609(13) 0.23153(14) 0.05880(9)
C3_13 C 0.11970(14) 0.29824(15) 0.02545(10)
H1_13 H 0.028764 0.446383 0.003600
C7_13 C 0.0647(2) 0.3496(2) 0.03078(16)
H2_13 H 0.027954 0.343930 0.055283
O5_7 O 0.06052(11) 0.03977(12) 0.06995(8)
O7_7 O 0.18328(11) 0.04673(12) 0.07274(8)
C8_13 C 0.12391(13) 0.01847(14) 0.05880(9)
O9_13 O 0.06052(11) 0.21023(12) 0.18005(8)
O12_13 O 0.06672(11) 0.04673(12) 0.17726(8)
C2_13 C 0.16959(14) 0.30837(14) 0.98699(10)
C4_13 C 0.11629(19) 0.41570(18) 0.96175(12)
O4_7 O 0.0783(2) 0.53268(19) 0.93180(13)
C5_13 C 0.1182(2) 0.47904(19) 0.92419(13)
C6_13 C 0.0644(3) 0.4095(3) 0.99936(17)
H3_13 H 0.2060(14) 0.2739(14) 0.9834(11)
C9_13 C 0.08041(14) 0.94163(14) 0.98699(10)
C11_13 C 0.13371(19) 0.83430(18) 0.96175(12)
O8_13 O 0.1717(2) 0.71732(19) 0.93180(13)
C12_13 C 0.1318(2) 0.77096(19) 0.92419(13)
C13_13 C 0.1856(3) 0.8405(3) 0.99936(17)
H6_13 H 0.0440(14) 0.9761(14) 0.9834(11)
O9_14 O 0.18948(11) 0.03977(12) 0.18005(8)
O12_14 O 0.18328(11) 0.20327(12) 0.17726(8)
C1_14 C 0.12391(13) 0.23153(14) 0.19120(9)
C2_14 C 0.08041(14) 0.30837(14) 0.26301(10)
C3_14 C 0.13030(14) 0.29824(15) 0.22455(10)
C4_14 C 0.13371(19) 0.41570(18) 0.28825(12)
O4_8 O 0.1717(2) 0.53268(19) 0.31820(13)
C5_14 C 0.1318(2) 0.47904(19) 0.32581(13)
C6_14 C 0.1856(3) 0.4095(3) 0.25064(17)
H1_14 H 0.221236 0.446383 0.246400
C7_14 C 0.1853(2) 0.3496(2) 0.21922(16)
H2_14 H 0.222046 0.343930 0.194717
H3_14 H 0.0440(14) 0.2739(14) 0.2666(11)
C8_14 C 0.12609(13) 0.01847(14) 0.19120(9)
C9_14 C 0.16959(14) 0.94163(14) 0.26301(10)
C10_12 C 0.11970(14) 0.95176(15) 0.22455(10)
C11_14 C 0.11629(19) 0.83430(18) 0.28825(12)
O8_14 O 0.0783(2) 0.71732(19) 0.31820(13)
C12_14 C 0.1182(2) 0.77096(19) 0.32581(13)
C13_14 C 0.0644(3) 0.8405(3) 0.25064(17)
H4_12 H 0.028764 0.803617 0.246400
C14_12 C 0.0647(2) 0.9004(2) 0.21922(16)
H5_12 H 0.027954 0.906070 0.194717
H6_14 H 0.2060(14) 0.9761(14) 0.2666(11)
O1_8 O 0.18948(11) 0.71023(12) 0.56995(8)
O3_8 O 0.06672(11) 0.70327(12) 0.57274(8)
C1_15 C 0.12609(13) 0.73153(14) 0.55880(9)
C2_15 C 0.16959(14) 0.80837(14) 0.48699(10)
C3_15 C 0.11970(14) 0.79824(15) 0.52545(10)
C4_15 C 0.11629(19) 0.91570(18) 0.46175(12)
C5_15 C 0.1182(2) 0.97904(19) 0.42419(13)
C6_15 C 0.0644(3) 0.9095(3) 0.49936(17)
H1_15 H 0.028764 0.946383 0.503600
C7_15 C 0.0647(2) 0.8496(2) 0.53078(16)
H2_15 H 0.027954 0.843930 0.555283
H3_15 H 0.2060(14) 0.7739(14) 0.4834(11)
O5_8 O 0.06052(11) 0.53977(12) 0.56995(8)
O7_8 O 0.18328(11) 0.54673(12) 0.57274(8)
C8_15 C 0.12391(13) 0.51847(14) 0.55880(9)
C9_15 C 0.08041(14) 0.44163(14) 0.48699(10)
C10_13 C 0.13030(14) 0.45176(15) 0.52545(10)
C11_15 C 0.13371(19) 0.33430(18) 0.46175(12)
O8_15 O 0.1717(2) 0.21732(19) 0.43180(13)
C12_15 C 0.1318(2) 0.27096(19) 0.42419(13)
C13_15 C 0.1856(3) 0.3405(3) 0.49936(17)
H4_13 H 0.221236 0.303617 0.503600
C14_13 C 0.1853(2) 0.4004(2) 0.53078(16)
H5_13 H 0.222046 0.406070 0.555283
H6_15 H 0.0440(14) 0.4761(14) 0.4834(11)
O9_15 O 0.06052(11) 0.71023(12) 0.68005(8)
O12_15 O 0.06672(11) 0.54673(12) 0.67726(8)
O9_16 O 0.18948(11) 0.53977(12) 0.68005(8)
O12_16 O 0.18328(11) 0.70327(12) 0.67726(8)
C1_16 C 0.12391(13) 0.73153(14) 0.69120(9)
C2_16 C 0.08041(14) 0.80837(14) 0.76301(10)
C3_16 C 0.13030(14) 0.79824(15) 0.72455(10)
C4_16 C 0.13371(19) 0.91570(18) 0.78825(12)
C5_16 C 0.1318(2) 0.97904(19) 0.82581(13)
C6_16 C 0.1856(3) 0.9095(3) 0.75064(17)
H1_16 H 0.221236 0.946383 0.746400
C7_16 C 0.1853(2) 0.8496(2) 0.71922(16)
H2_16 H 0.222046 0.843930 0.694717
H3_16 H 0.0440(14) 0.7739(14) 0.7666(11)
C8_16 C 0.12609(13) 0.51847(14) 0.69120(9)
C9_16 C 0.16959(14) 0.44163(14) 0.76301(10)
C10_14 C 0.11970(14) 0.45176(15) 0.72455(10)
C11_16 C 0.11629(19) 0.33430(18) 0.78825(12)
O8_16 O 0.0783(2) 0.21732(19) 0.81820(13)
C12_16 C 0.1182(2) 0.27096(19) 0.82581(13)
C13_16 C 0.0644(3) 0.3405(3) 0.75064(17)
H4_14 H 0.028764 0.303617 0.746400
C14_14 C 0.0647(2) 0.4004(2) 0.71922(16)
H5_14 H 0.027954 0.406070 0.694717
H6_16 H 0.2060(14) 0.4761(14) 0.7666(11)
O4_9 O 0.4217(2) 0.96732(19) 0.06820(13)
O4_10 O 0.3283(2) 0.96732(19) 0.68180(13)
C10_15 C 0.86970(14) 0.04824(15) 0.97455(10)
H4_15 H 0.778764 0.196383 0.996400
C14_15 C 0.8147(2) 0.0996(2) 0.96922(16)
H5_15 H 0.777954 0.093930 0.944717
O4_11 O 0.9217(2) 0.96732(19) 0.56820(13)
O4_12 O 0.8283(2) 0.96732(19) 0.18180(13)
O4_13 O 0.5783(2) 0.03268(19) 0.93180(13)
O4_14 O 0.6717(2) 0.03268(19) 0.31820(13)
C10_16 C 0.13030(14) 0.95176(15) 0.02545(10)
H4_16 H 0.221236 0.803617 0.003600
C14_16 C 0.1853(2) 0.9004(2) 0.03078(16)
H5_16 H 0.222046 0.906070 0.055283
O4_15 O 0.0783(2) 0.03268(19) 0.43180(13)
O4_16 O 0.1717(2) 0.03268(19) 0.81820(13)
N5 N 0.375000 0.375000 0.64885(18)
H7 H 0.381700 0.342040 0.625919
C15 C 0.4413(4) 0.3878(3) 0.6772(2)
H8 H 0.476246 0.348612 0.671027
H9 H 0.429428 0.389495 0.712463
H10 H 0.463015 0.434097 0.667133
H11 H 0.368300 0.407960 0.625919
C16 C 0.3087(4) 0.3622(3) 0.6772(2)
H12 H 0.273754 0.401388 0.671027
H13 H 0.320572 0.360505 0.712463
H14 H 0.286985 0.315903 0.667133
N5_2 N 0.375000 0.375000 0.10115(18)
H7_2 H 0.368300 0.342040 0.124081
C15_2 C 0.3087(4) 0.3878(3) 0.0728(2)
H8_2 H 0.273754 0.348612 0.078973
H9_2 H 0.320572 0.389495 0.037537
H10_2 H 0.286985 0.434097 0.082867
H11_2 H 0.381700 0.407960 0.124081
C16_2 C 0.4413(4) 0.3622(3) 0.0728(2)
H12_2 H 0.476246 0.401388 0.078973
H13_2 H 0.429428 0.360505 0.037537
H14_2 H 0.463015 0.315903 0.082867
N5_3 N 0.375000 0.875000 0.14885(18)
H7_3 H 0.381700 0.842040 0.125919
C15_3 C 0.4413(4) 0.8878(3) 0.1772(2)
H8_3 H 0.476246 0.848612 0.171027
H9_3 H 0.429428 0.889495 0.212463
H10_3 H 0.463015 0.934097 0.167133
H11_3 H 0.368300 0.907960 0.125919
C16_3 C 0.3087(4) 0.8622(3) 0.1772(2)
H12_3 H 0.273754 0.901388 0.171027
H13_3 H 0.320572 0.860505 0.212463
H14_3 H 0.286985 0.815903 0.167133
N5_4 N 0.375000 0.875000 0.60115(18)
H7_4 H 0.368300 0.842040 0.624081
C15_4 C 0.3087(4) 0.8878(3) 0.5728(2)
H8_4 H 0.273754 0.848612 0.578973
H9_4 H 0.320572 0.889495 0.537537
H10_4 H 0.286985 0.934097 0.582867
H11_4 H 0.381700 0.907960 0.624081
C16_4 C 0.4413(4) 0.8622(3) 0.5728(2)
H12_4 H 0.476246 0.901388 0.578973
H13_4 H 0.429428 0.860505 0.537537
H14_4 H 0.463015 0.815903 0.582867
N5_5 N 0.875000 0.375000 0.14885(18)
H7_5 H 0.881700 0.342040 0.125919
C15_5 C 0.9413(4) 0.3878(3) 0.1772(2)
H8_5 H 0.976246 0.348612 0.171027
H9_5 H 0.929428 0.389495 0.212463
H10_5 H 0.963015 0.434097 0.167133
H11_5 H 0.868300 0.407960 0.125919
C16_5 C 0.8087(4) 0.3622(3) 0.1772(2)
H12_5 H 0.773754 0.401388 0.171027
H13_5 H 0.820572 0.360505 0.212463
H14_5 H 0.786985 0.315903 0.167133
N5_6 N 0.875000 0.375000 0.60115(18)
H7_6 H 0.868300 0.342040 0.624081
C15_6 C 0.8087(4) 0.3878(3) 0.5728(2)
H8_6 H 0.773754 0.348612 0.578973
H9_6 H 0.820572 0.389495 0.537537
H10_6 H 0.786985 0.434097 0.582867
H11_6 H 0.881700 0.407960 0.624081
C16_6 C 0.9413(4) 0.3622(3) 0.5728(2)
H12_6 H 0.976246 0.401388 0.578973
H13_6 H 0.929428 0.360505 0.537537
H14_6 H 0.963015 0.315903 0.582867
N5_7 N 0.875000 0.875000 0.64885(18)
H7_7 H 0.881700 0.842040 0.625919
C15_7 C 0.9413(4) 0.8878(3) 0.6772(2)
H8_7 H 0.976246 0.848612 0.671027
H9_7 H 0.929428 0.889495 0.712463
H10_7 H 0.963015 0.934097 0.667133
H11_7 H 0.868300 0.907960 0.625919
C16_7 C 0.8087(4) 0.8622(3) 0.6772(2)
H12_7 H 0.773754 0.901388 0.671027
H13_7 H 0.820572 0.860505 0.712463
H14_7 H 0.786985 0.815903 0.667133
N5_8 N 0.875000 0.875000 0.10115(18)
H7_8 H 0.868300 0.842040 0.124081
C15_8 C 0.8087(4) 0.8878(3) 0.0728(2)
H8_8 H 0.773754 0.848612 0.078973
H9_8 H 0.820572 0.889495 0.037537
H10_8 H 0.786985 0.934097 0.082867
H11_8 H 0.881700 0.907960 0.124081
C16_8 C 0.9413(4) 0.8622(3) 0.0728(2)
H12_8 H 0.976246 0.901388 0.078973
H13_8 H 0.929428 0.860505 0.037537
H14_8 H 0.963015 0.815903 0.082867
N5_9 N 0.625000 0.625000 0.35115(18)
H7_9 H 0.618300 0.657960 0.374081
C15_9 C 0.5587(4) 0.6122(3) 0.3228(2)
H8_9 H 0.523754 0.651388 0.328973
H9_9 H 0.570572 0.610505 0.287537
H10_9 H 0.536985 0.565903 0.332867
H11_9 H 0.631700 0.592040 0.374081
C16_9 C 0.6913(4) 0.6378(3) 0.3228(2)
H12_9 H 0.726246 0.598612 0.328973
H13_9 H 0.679428 0.639495 0.287537
H14_9 H 0.713015 0.684097 0.332867
N5_10 N 0.625000 0.625000 0.89885(18)
H7_10 H 0.631700 0.657960 0.875919
C15_10 C 0.6913(4) 0.6122(3) 0.9272(2)
H8_10 H 0.726246 0.651388 0.921027
H9_10 H 0.679428 0.610505 0.962463
H10_10 H 0.713015 0.565903 0.917133
H11_10 H 0.618300 0.592040 0.875919
C16_10 C 0.5587(4) 0.6378(3) 0.9272(2)
H12_10 H 0.523754 0.598612 0.921027
H13_10 H 0.570572 0.639495 0.962463
H14_10 H 0.536985 0.684097 0.917133
N5_11 N 0.625000 0.125000 0.85115(18)
H7_11 H 0.618300 0.157960 0.874081
C15_11 C 0.5587(4) 0.1122(3) 0.8228(2)
H8_11 H 0.523754 0.151388 0.828973
H9_11 H 0.570572 0.110505 0.787537
H10_11 H 0.536985 0.065903 0.832867
H11_11 H 0.631700 0.092040 0.874081
C16_11 C 0.6913(4) 0.1378(3) 0.8228(2)
H12_11 H 0.726246 0.098612 0.828973
H13_11 H 0.679428 0.139495 0.787537
H14_11 H 0.713015 0.184097 0.832867
N5_12 N 0.625000 0.125000 0.39885(18)
H7_12 H 0.631700 0.157960 0.375919
C15_12 C 0.6913(4) 0.1122(3) 0.4272(2)
H8_12 H 0.726246 0.151388 0.421027
H9_12 H 0.679428 0.110505 0.462463
H10_12 H 0.713015 0.065903 0.417133
H11_12 H 0.618300 0.092040 0.375919
C16_12 C 0.5587(4) 0.1378(3) 0.4272(2)
H12_12 H 0.523754 0.098612 0.421027
H13_12 H 0.570572 0.139495 0.462463
H14_12 H 0.536985 0.184097 0.417133
N5_13 N 0.125000 0.625000 0.85115(18)
H7_13 H 0.118300 0.657960 0.874081
C15_13 C 0.0587(4) 0.6122(3) 0.8228(2)
H8_13 H 0.023754 0.651388 0.828973
H9_13 H 0.070572 0.610505 0.787537
H10_13 H 0.036985 0.565903 0.832867
H11_13 H 0.131700 0.592040 0.874081
C16_13 C 0.1913(4) 0.6378(3) 0.8228(2)
H12_13 H 0.226246 0.598612 0.828973
H13_13 H 0.179428 0.639495 0.787537
H14_13 H 0.213015 0.684097 0.832867
N5_14 N 0.125000 0.625000 0.39885(18)
H7_14 H 0.131700 0.657960 0.375919
C15_14 C 0.1913(4) 0.6122(3) 0.4272(2)
H8_14 H 0.226246 0.651388 0.421027
H9_14 H 0.179428 0.610505 0.462463
H10_14 H 0.213015 0.565903 0.417133
H11_14 H 0.118300 0.592040 0.375919
C16_14 C 0.0587(4) 0.6378(3) 0.4272(2)
H12_14 H 0.023754 0.598612 0.421027
H13_14 H 0.070572 0.639495 0.462463
H14_14 H 0.036985 0.684097 0.417133
N5_15 N 0.125000 0.125000 0.35115(18)
H7_15 H 0.118300 0.157960 0.374081
C15_15 C 0.0587(4) 0.1122(3) 0.3228(2)
H8_15 H 0.023754 0.151388 0.328973
H9_15 H 0.070572 0.110505 0.287537
H10_15 H 0.036985 0.065903 0.332867
H11_15 H 0.131700 0.092040 0.374081
C16_15 C 0.1913(4) 0.1378(3) 0.3228(2)
H12_15 H 0.226246 0.098612 0.328973
H13_15 H 0.179428 0.139495 0.287537
H14_15 H 0.213015 0.184097 0.332867
N5_16 N 0.125000 0.125000 0.89885(18)
H7_16 H 0.131700 0.157960 0.875919
C15_16 C 0.1913(4) 0.1122(3) 0.9272(2)
H8_16 H 0.226246 0.151388 0.921027
H9_16 H 0.179428 0.110505 0.962463
H10_16 H 0.213015 0.065903 0.917133
H11_16 H 0.118300 0.092040 0.875919
C16_16 C 0.0587(4) 0.1378(3) 0.9272(2)
H12_16 H 0.023754 0.098612 0.921027
H13_16 H 0.070572 0.139495 0.962463
H14_16 H 0.036985 0.184097 0.917133
loop_
_geom_bond_atom_site_label_1
_geom_bond_atom_site_label_2
_geom_bond_site_symmetry_1
_geom_bond_site_symmetry_2
O6 C12 1_555 1_555
N2 C9 1_555 1_555
C9 C10 1_555 1_555
C11 N2 1_555 1_555
O8 C12 1_555 1_555
C12 C11 1_555 1_555
C13 C11 1_555 1_555
H4 C13 1_555 1_555
C14 C10 1_555 1_555
H5 C14 1_555 1_555
H6 C9 1_555 1_555
Gd3 O6 1_555 1_555
N2 Gd3 1_555 1_555
C13 C14 1_555 1_555
Gd1 O3 1_555 1_555
O1 C1 1_555 1_555
O2 C5 1_555 1_555
O3 C1 1_555 1_555
N1 C2 1_555 1_555
C1 C3 1_555 1_555
C2 C3 1_555 1_555
C3 C7 1_555 1_555
C4 N1 1_555 1_555
O4 C5 1_555 1_555
C5 C4 1_555 1_555
C6 C4 1_555 1_555
H1 C6 1_555 1_555
C7 C6 1_555 1_555
H2 C7 1_555 1_555
H3 C2 1_555 1_555
O5 Gd1 1_555 1_555
O7 C8 1_555 1_555
C8 O5 1_555 1_555
Gd2 O1 1_555 1_555
Gd4 O2 1_555 1_555
O9 Gd1 1_555 1_555
O10 Gd1 1_555 1_555
O11 Gd1 1_555 1_555
O12 Gd1 1_555 1_555
N3 Gd1 1_555 1_555
N4 Gd1 1_555 1_555
N1 Gd4 1_555 1_555
O7 Gd2 1_555 1_555
O9_2 Gd2 1_555 1_555
O10_2 Gd2 1_555 1_555
O11_2 Gd2 1_555 1_555
O12_2 Gd2 1_555 1_555
N3_2 Gd2 1_555 1_555
N4_2 Gd2 1_555 1_555
O6_2 C12_2 1_555 1_555
N2_2 C9_2 1_555 1_555
C9_2 C10_2 1_555 1_555
C11_2 N2_2 1_555 1_555
O8_2 C12_2 1_555 1_555
C12_2 C11_2 1_555 1_555
C13_2 C11_2 1_555 1_555
H4_2 C13_2 1_555 1_555
C14_2 C10_2 1_555 1_555
H5_2 C14_2 1_555 1_555
H6_2 C9_2 1_555 1_555
Gd3_2 O6_2 1_555 1_555
N2_2 Gd3_2 1_555 1_555
C13_2 C14_2 1_555 1_555
O9 C1_2 1_555 1_555
O2_2 C5_2 1_555 1_555
O12_2 C1_2 1_555 1_555
N1_2 C2_2 1_555 1_555
C1_2 C3_2 1_555 1_555
C2_2 C3_2 1_555 1_555
C3_2 C7_2 1_555 1_555
C4_2 N1_2 1_555 1_555
O4_2 C5_2 1_555 1_555
C5_2 C4_2 1_555 1_555
C6_2 C4_2 1_555 1_555
H1_2 C6_2 1_555 1_555
C7_2 C6_2 1_555 1_555
H2_2 C7_2 1_555 1_555
H3_2 C2_2 1_555 1_555
O12 C8_2 1_555 1_555
C8_2 O9_2 1_555 1_555
Gd4_2 O2_2 1_555 1_555
N1_2 Gd4_2 1_555 1_555
O2_3 C5_3 1_555 1_555
N1_3 C2_3 1_555 1_555
C4_3 N1_3 1_555 1_555
C5_3 C4_3 1_555 1_555
C6_3 C4_3 1_555 1_555
H3_3 C2_3 1_555 1_555
O6_3 C12_3 1_555 1_555
N2_3 C9_3 1_555 1_555
C11_3 N2_3 1_555 1_555
O8_3 C12_3 1_555 1_555
C12_3 C11_3 1_555 1_555
C13_3 C11_3 1_555 1_555
H6_3 C9_3 1_555 1_555
Gd4_2 O6_3 1_555 1_555
Gd3_2 O2_3 1_555 1_555
N1_3 Gd3_2 1_555 1_555
N2_3 Gd4_2 1_555 1_555
Gd1_2 O3_2 1_555 1_555
O1_2 C1_3 1_555 1_555
O3_2 C1_3 1_555 1_555
C1_3 C3_3 1_555 1_555
C3_3 C7_3 1_555 1_555
H2_3 C7_3 1_555 1_555
O5_2 Gd1_2 1_555 1_555
O7_2 C8_3 1_555 1_555
C8_3 O5_2 1_555 1_555
C10_3 C8_3 1_555 1_555
C14_3 C10_3 1_555 1_555
H5_3 C14_3 1_555 1_555
Gd2_2 O1_2 1_555 1_555
O9_3 Gd1_2 1_555 1_555
O10_3 Gd1_2 1_555 1_555
O11_3 Gd1_2 1_555 1_555
O12_3 Gd1_2 1_555 1_555
N3_3 Gd1_2 1_555 1_555
N4_3 Gd1_2 1_555 1_555
O7_2 Gd2_2 1_555 1_555
O9_4 Gd2_2 1_555 1_555
O10_4 Gd2_2 1_555 1_555
O11_4 Gd2_2 1_555 1_555
O12_4 Gd2_2 1_555 1_555
N3_4 Gd2_2 1_555 1_555
N4_4 Gd2_2 1_555 1_555
O9_3 C1_4 1_555 1_555
O2_4 C5_4 1_555 1_555
O12_4 C1_4 1_555 1_555
N1_4 C2_4 1_555 1_555
C1_4 C3_4 1_555 1_555
C2_4 C3_4 1_555 1_555
C3_4 C7_4 1_555 1_555
C4_4 N1_4 1_555 1_555
C5_4 C4_4 1_555 1_555
C6_4 C4_4 1_555 1_555
H1_4 C6_4 1_555 1_555
C7_4 C6_4 1_555 1_555
H2_4 C7_4 1_555 1_555
H3_4 C2_4 1_555 1_555
O6_4 C12_4 1_555 1_555
O12_3 C8_4 1_555 1_555
N2_4 C9_4 1_555 1_555
C8_4 O9_4 1_555 1_555
C9_4 C10_4 1_555 1_555
C10_4 C8_4 1_555 1_555
C11_4 N2_4 1_555 1_555
O8_4 C12_4 1_555 1_555
C12_4 C11_4 1_555 1_555
C13_4 C11_4 1_555 1_555
H4_4 C13_4 1_555 1_555
C14_4 C10_4 1_555 1_555
H5_4 C14_4 1_555 1_555
H6_4 C9_4 1_555 1_555
Gd4 O6_4 1_555 1_555
Gd3 O2_4 1_555 1_555
N1_4 Gd3 1_555 1_555
N2_4 Gd4 1_555 1_555
C13_4 C14_4 1_555 1_555
O10_5 Gd1_3 1_555 1_555
O11_5 Gd1_3 1_555 1_555
N3_5 Gd1_3 1_555 1_555
N4_5 Gd1_3 1_555 1_555
O6_5 C12_5 1_555 1_555
N2_5 C9_5 1_555 1_555
C11_5 N2_5 1_555 1_555
O8_5 C12_5 1_555 1_555
C12_5 C11_5 1_555 1_555
C13_5 C11_5 1_555 1_555
H6_5 C9_5 1_555 1_555
Gd3_3 O6_5 1_555 1_555
N2_5 Gd3_3 1_555 1_555
O2_5 C5_5 1_555 1_555
N1_5 C2_5 1_555 1_555
C4_5 N1_5 1_555 1_555
O4_3 C5_5 1_555 1_555
C5_5 C4_5 1_555 1_555
C6_5 C4_5 1_555 1_555
H3_5 C2_5 1_555 1_555
Gd4_3 O2_5 1_555 1_555
N1_5 Gd4_3 1_555 1_555
O1_3 C1_5 1_555 1_555
O3_3 C1_5 1_555 1_555
C1_5 C3_5 1_555 1_555
C3_5 C7_5 1_555 1_555
H2_5 C7_5 1_555 1_555
O7_3 C8_5 1_555 1_555
C8_5 O5_3 1_555 1_555
Gd2_3 O1_3 1_555 1_555
O7_3 Gd2_3 1_555 1_555
O9_6 Gd2_3 1_555 1_555
O10_6 Gd2_3 1_555 1_555
O11_6 Gd2_3 1_555 1_555
O12_6 Gd2_3 1_555 1_555
N3_6 Gd2_3 1_555 1_555
N4_6 Gd2_3 1_555 1_555
O6_6 C12_6 1_555 1_555
N2_6 C9_6 1_555 1_555
C9_6 C10_5 1_555 1_555
C11_6 N2_6 1_555 1_555
O8_6 C12_6 1_555 1_555
C12_6 C11_6 1_555 1_555
C13_6 C11_6 1_555 1_555
H4_5 C13_6 1_555 1_555
C14_5 C10_5 1_555 1_555
H5_5 C14_5 1_555 1_555
H6_6 C9_6 1_555 1_555
Gd3_4 O6_6 1_555 1_555
N2_6 Gd3_4 1_555 1_555
C13_6 C14_5 1_555 1_555
O9_5 C1_6 1_555 1_555
O2_6 C5_6 1_555 1_555
O12_6 C1_6 1_555 1_555
N1_6 C2_6 1_555 1_555
C1_6 C3_6 1_555 1_555
C2_6 C3_6 1_555 1_555
C3_6 C7_6 1_555 1_555
C4_6 N1_6 1_555 1_555
O4_4 C5_6 1_555 1_555
C5_6 C4_6 1_555 1_555
C6_6 C4_6 1_555 1_555
H1_6 C6_6 1_555 1_555
C7_6 C6_6 1_555 1_555
H2_6 C7_6 1_555 1_555
H3_6 C2_6 1_555 1_555
O12_5 C8_6 1_555 1_555
C8_6 O9_6 1_555 1_555
Gd4_4 O2_6 1_555 1_555
N1_6 Gd4_4 1_555 1_555
O10_7 Gd1_4 1_555 1_555
O11_7 Gd1_4 1_555 1_555
N3_7 Gd1_4 1_555 1_555
N4_7 Gd1_4 1_555 1_555
O1_4 C1_7 1_555 1_555
O2_7 C5_7 1_555 1_555
O3_4 C1_7 1_555 1_555
N1_7 C2_7 1_555 1_555
C1_7 C3_7 1_555 1_555
C2_7 C3_7 1_555 1_555
C3_7 C7_7 1_555 1_555
C4_7 N1_7 1_555 1_555
C5_7 C4_7 1_555 1_555
C6_7 C4_7 1_555 1_555
H1_7 C6_7 1_555 1_555
C7_7 C6_7 1_555 1_555
H2_7 C7_7 1_555 1_555
H3_7 C2_7 1_555 1_555
O6_7 C12_7 1_555 1_555
O7_4 C8_7 1_555 1_555
N2_7 C9_7 1_555 1_555
C8_7 O5_4 1_555 1_555
C9_7 C10_6 1_555 1_555
C10_6 C8_7 1_555 1_555
C11_7 N2_7 1_555 1_555
O8_7 C12_7 1_555 1_555
C12_7 C11_7 1_555 1_555
C13_7 C11_7 1_555 1_555
H4_6 C13_7 1_555 1_555
C14_6 C10_6 1_555 1_555
H5_6 C14_6 1_555 1_555
H6_7 C9_7 1_555 1_555
Gd2_4 O1_4 1_555 1_555
Gd4_4 O6_7 1_555 1_555
Gd3_4 O2_7 1_555 1_555
N1_7 Gd3_4 1_555 1_555
O7_4 Gd2_4 1_555 1_555
N2_7 Gd4_4 1_555 1_555
C13_7 C14_6 1_555 1_555
O9_8 Gd2_4 1_555 1_555
O10_8 Gd2_4 1_555 1_555
O11_8 Gd2_4 1_555 1_555
O12_8 Gd2_4 1_555 1_555
N3_8 Gd2_4 1_555 1_555
N4_8 Gd2_4 1_555 1_555
O9_7 C1_8 1_555 1_555
O2_8 C5_8 1_555 1_555
O12_8 C1_8 1_555 1_555
N1_8 C2_8 1_555 1_555
C1_8 C3_8 1_555 1_555
C2_8 C3_8 1_555 1_555
C3_8 C7_8 1_555 1_555
C4_8 N1_8 1_555 1_555
C5_8 C4_8 1_555 1_555
C6_8 C4_8 1_555 1_555
H1_8 C6_8 1_555 1_555
C7_8 C6_8 1_555 1_555
H2_8 C7_8 1_555 1_555
H3_8 C2_8 1_555 1_555
O6_8 C12_8 1_555 1_555
O12_7 C8_8 1_555 1_555
N2_8 C9_8 1_555 1_555
C8_8 O9_8 1_555 1_555
C9_8 C10_7 1_555 1_555
C10_7 C8_8 1_555 1_555
C11_8 N2_8 1_555 1_555
O8_8 C12_8 1_555 1_555
C12_8 C11_8 1_555 1_555
C13_8 C11_8 1_555 1_555
H4_7 C13_8 1_555 1_555
C14_7 C10_7 1_555 1_555
H5_7 C14_7 1_555 1_555
H6_8 C9_8 1_555 1_555
Gd4_3 O6_8 1_555 1_555
Gd3_3 O2_8 1_555 1_555
N1_8 Gd3_3 1_555 1_555
N2_8 Gd4_3 1_555 1_555
C13_8 C14_7 1_555 1_555
Gd3 O3_5 1_555 1_555
O1_5 C1_9 1_555 1_555
O10_8 C5_9 1_555 1_555
O3_5 C1_9 1_555 1_555
N3_8 C2_9 1_555 1_555
C1_9 C3_9 1_555 1_555
C2_9 C3_9 1_555 1_555
C3_9 C7_9 1_555 1_555
C4_9 N3_8 1_555 1_555
O4_5 C5_9 1_555 1_555
C5_9 C4_9 1_555 1_555
C6_9 C4_9 1_555 1_555
H1_9 C6_9 1_555 1_555
C7_9 C6_9 1_555 1_555
H2_9 C7_9 1_555 1_555
H3_9 C2_9 1_555 1_555
O5_5 Gd3 1_555 1_555
O7_5 C8_9 1_555 1_555
C8_9 O5_5 1_555 1_555
Gd3_4 O1_5 1_555 1_555
O9_9 Gd3 1_555 1_555
O12_9 Gd3 1_555 1_555
O7_5 Gd3_4 1_555 1_555
O10 C12_9 1_555 1_555
N3 C9_9 1_555 1_555
C9_9 C10_8 1_555 1_555
C11_9 N3 1_555 1_555
O8_9 C12_9 1_555 1_555
C12_9 C11_9 1_555 1_555
C13_9 C11_9 1_555 1_555
H4_8 C13_9 1_555 1_555
C14_8 C10_8 1_555 1_555
H5_8 C14_8 1_555 1_555
H6_9 C9_9 1_555 1_555
C13_9 C14_8 1_555 1_555
O9_10 Gd3_4 1_555 1_555
O12_10 Gd3_4 1_555 1_555
O9_9 C1_10 1_555 1_555
O11_3 C5_10 1_555 1_555
O12_10 C1_10 1_555 1_555
N4_3 C2_10 1_555 1_555
C1_10 C3_10 1_555 1_555
C2_10 C3_10 1_555 1_555
C3_10 C7_10 1_555 1_555
C4_10 N4_3 1_555 1_555
O4_6 C5_10 1_555 1_555
C5_10 C4_10 1_555 1_555
C6_10 C4_10 1_555 1_555
H1_10 C6_10 1_555 1_555
C7_10 C6_10 1_555 1_555
H2_10 C7_10 1_555 1_555
H3_10 C2_10 1_555 1_555
O12_9 C8_10 1_555 1_555
C8_10 O9_10 1_555 1_555
O11_6 C12_10 1_555 1_555
N4_6 C9_10 1_555 1_555
C9_10 C10_9 1_555 1_555
C11_10 N4_6 1_555 1_555
O8_10 C12_10 1_555 1_555
C12_10 C11_10 1_555 1_555
C13_10 C11_10 1_555 1_555
H4_9 C13_10 1_555 1_555
C14_9 C10_9 1_555 1_555
H5_9 C14_9 1_555 1_555
H6_10 C9_10 1_555 1_555
C13_10 C14_9 1_555 1_555
Gd4_2 O3_6 1_555 1_555
O1_6 C1_11 1_555 1_555
O3_6 C1_11 1_555 1_555
C1_11 C3_11 1_555 1_555
C3_11 C7_11 1_555 1_555
H2_11 C7_11 1_555 1_555
O5_6 Gd4_2 1_555 1_555
O7_6 C8_11 1_555 1_555
C8_11 O5_6 1_555 1_555
C10_10 C8_11 1_555 1_555
C14_10 C10_10 1_555 1_555
H5_10 C14_10 1_555 1_555
Gd4_3 O1_6 1_555 1_555
O9_11 Gd4_2 1_555 1_555
O12_11 Gd4_2 1_555 1_555
O7_6 Gd4_3 1_555 1_555
O10_6 C5_11 1_555 1_555
N3_6 C2_11 1_555 1_555
C4_11 N3_6 1_555 1_555
C5_11 C4_11 1_555 1_555
C6_11 C4_11 1_555 1_555
H3_11 C2_11 1_555 1_555
O10_3 C12_11 1_555 1_555
N3_3 C9_11 1_555 1_555
C11_11 N3_3 1_555 1_555
O8_11 C12_11 1_555 1_555
C12_11 C11_11 1_555 1_555
C13_11 C11_11 1_555 1_555
H6_11 C9_11 1_555 1_555
O9_12 Gd4_3 1_555 1_555
O12_12 Gd4_3 1_555 1_555
O9_11 C1_12 1_555 1_555
O11 C5_12 1_555 1_555
O12_12 C1_12 1_555 1_555
N4 C2_12 1_555 1_555
C1_12 C3_12 1_555 1_555
C2_12 C3_12 1_555 1_555
C3_12 C7_12 1_555 1_555
C4_12 N4 1_555 1_555
C5_12 C4_12 1_555 1_555
C6_12 C4_12 1_555 1_555
H1_12 C6_12 1_555 1_555
C7_12 C6_12 1_555 1_555
H2_12 C7_12 1_555 1_555
H3_12 C2_12 1_555 1_555
O11_8 C12_12 1_555 1_555
O12_11 C8_12 1_555 1_555
N4_8 C9_12 1_555 1_555
C8_12 O9_12 1_555 1_555
C9_12 C10_11 1_555 1_555
C10_11 C8_12 1_555 1_555
C11_12 N4_8 1_555 1_555
O8_12 C12_12 1_555 1_555
C12_12 C11_12 1_555 1_555
C13_12 C11_12 1_555 1_555
H4_11 C13_12 1_555 1_555
C14_11 C10_11 1_555 1_555
H5_11 C14_11 1_555 1_555
H6_12 C9_12 1_555 1_555
C13_12 C14_11 1_555 1_555
O1_7 C1_13 1_555 1_555
O3_7 C1_13 1_555 1_555
C1_13 C3_13 1_555 1_555
C3_13 C7_13 1_555 1_555
H2_13 C7_13 1_555 1_555
O7_7 C8_13 1_555 1_555
C8_13 O5_7 1_555 1_555
Gd3_2 O1_7 1_555 1_555
O7_7 Gd3_2 1_555 1_555
O10_4 C5_13 1_555 1_555
N3_4 C2_13 1_555 1_555
C4_13 N3_4 1_555 1_555
O4_7 C5_13 1_555 1_555
C5_13 C4_13 1_555 1_555
C6_13 C4_13 1_555 1_555
H3_13 C2_13 1_555 1_555
O10_5 C12_13 1_555 1_555
N3_5 C9_13 1_555 1_555
C11_13 N3_5 1_555 1_555
O8_13 C12_13 1_555 1_555
C12_13 C11_13 1_555 1_555
C13_13 C11_13 1_555 1_555
H6_13 C9_13 1_555 1_555
O9_14 Gd3_2 1_555 1_555
O12_14 Gd3_2 1_555 1_555
O9_13 C1_14 1_555 1_555
O11_7 C5_14 1_555 1_555
O12_14 C1_14 1_555 1_555
N4_7 C2_14 1_555 1_555
C1_14 C3_14 1_555 1_555
C2_14 C3_14 1_555 1_555
C3_14 C7_14 1_555 1_555
C4_14 N4_7 1_555 1_555
O4_8 C5_14 1_555 1_555
C5_14 C4_14 1_555 1_555
C6_14 C4_14 1_555 1_555
H1_14 C6_14 1_555 1_555
C7_14 C6_14 1_555 1_555
H2_14 C7_14 1_555 1_555
H3_14 C2_14 1_555 1_555
O12_13 C8_14 1_555 1_555
C8_14 O9_14 1_555 1_555
O11_2 C12_14 1_555 1_555
N4_2 C9_14 1_555 1_555
C9_14 C10_12 1_555 1_555
C11_14 N4_2 1_555 1_555
O8_14 C12_14 1_555 1_555
C12_14 C11_14 1_555 1_555
C13_14 C11_14 1_555 1_555
H4_12 C13_14 1_555 1_555
C14_12 C10_12 1_555 1_555
H5_12 C14_12 1_555 1_555
H6_14 C9_14 1_555 1_555
C13_14 C14_12 1_555 1_555
O1_8 C1_15 1_555 1_555
O10_2 C5_15 1_555 1_555
O3_8 C1_15 1_555 1_555
N3_2 C2_15 1_555 1_555
C1_15 C3_15 1_555 1_555
C2_15 C3_15 1_555 1_555
C3_15 C7_15 1_555 1_555
C4_15 N3_2 1_555 1_555
C5_15 C4_15 1_555 1_555
C6_15 C4_15 1_555 1_555
H1_15 C6_15 1_555 1_555
C7_15 C6_15 1_555 1_555
H2_15 C7_15 1_555 1_555
H3_15 C2_15 1_555 1_555
O10_7 C12_15 1_555 1_555
O7_8 C8_15 1_555 1_555
N3_7 C9_15 1_555 1_555
C8_15 O5_8 1_555 1_555
C9_15 C10_13 1_555 1_555
C10_13 C8_15 1_555 1_555
C11_15 N3_7 1_555 1_555
O8_15 C12_15 1_555 1_555
C12_15 C11_15 1_555 1_555
C13_15 C11_15 1_555 1_555
H4_13 C13_15 1_555 1_555
C14_13 C10_13 1_555 1_555
H5_13 C14_13 1_555 1_555
H6_15 C9_15 1_555 1_555
Gd4 O1_8 1_555 1_555
O7_8 Gd4 1_555 1_555
C13_15 C14_13 1_555 1_555
O9_16 Gd4 1_555 1_555
O12_16 Gd4 1_555 1_555
O9_15 C1_16 1_555 1_555
O11_5 C5_16 1_555 1_555
O12_16 C1_16 1_555 1_555
N4_5 C2_16 1_555 1_555
C1_16 C3_16 1_555 1_555
C2_16 C3_16 1_555 1_555
C3_16 C7_16 1_555 1_555
C4_16 N4_5 1_555 1_555
C5_16 C4_16 1_555 1_555
C6_16 C4_16 1_555 1_555
H1_16 C6_16 1_555 1_555
C7_16 C6_16 1_555 1_555
H2_16 C7_16 1_555 1_555
H3_16 C2_16 1_555 1_555
O11_4 C12_16 1_555 1_555
O12_15 C8_16 1_555 1_555
N4_4 C9_16 1_555 1_555
C8_16 O9_16 1_555 1_555
C9_16 C10_14 1_555 1_555
C10_14 C8_16 1_555 1_555
C11_16 N4_4 1_555 1_555
O8_16 C12_16 1_555 1_555
C12_16 C11_16 1_555 1_555
C13_16 C11_16 1_555 1_555
H4_14 C13_16 1_555 1_555
C14_14 C10_14 1_555 1_555
H5_14 C14_14 1_555 1_555
H6_16 C9_16 1_555 1_555
C13_16 C14_14 1_555 1_555
C14_15 C10_15 1_555 1_555
H5_15 C14_15 1_555 1_555
C14_16 C10_16 1_555 1_555
H5_16 C14_16 1_555 1_555
N5 H7 1_555 1_555
C15 N5 1_555 1_555
H8 C15 1_555 1_555
H9 C15 1_555 1_555
H10 C15 1_555 1_555
H11 N5 1_555 1_555
C16 N5 1_555 1_555
H12 C16 1_555 1_555
H13 C16 1_555 1_555
H14 C16 1_555 1_555
N5_2 H7_2 1_555 1_555
C15_2 N5_2 1_555 1_555
H8_2 C15_2 1_555 1_555
H9_2 C15_2 1_555 1_555
H10_2 C15_2 1_555 1_555
H11_2 N5_2 1_555 1_555
C16_2 N5_2 1_555 1_555
H12_2 C16_2 1_555 1_555
H13_2 C16_2 1_555 1_555
H14_2 C16_2 1_555 1_555
N5_3 H7_3 1_555 1_555
C15_3 N5_3 1_555 1_555
H8_3 C15_3 1_555 1_555
H9_3 C15_3 1_555 1_555
H10_3 C15_3 1_555 1_555
H11_3 N5_3 1_555 1_555
C16_3 N5_3 1_555 1_555
H12_3 C16_3 1_555 1_555
H13_3 C16_3 1_555 1_555
H14_3 C16_3 1_555 1_555
N5_4 H7_4 1_555 1_555
C15_4 N5_4 1_555 1_555
H8_4 C15_4 1_555 1_555
H9_4 C15_4 1_555 1_555
H10_4 C15_4 1_555 1_555
H11_4 N5_4 1_555 1_555
C16_4 N5_4 1_555 1_555
H12_4 C16_4 1_555 1_555
H13_4 C16_4 1_555 1_555
H14_4 C16_4 1_555 1_555
N5_5 H7_5 1_555 1_555
C15_5 N5_5 1_555 1_555
H8_5 C15_5 1_555 1_555
H9_5 C15_5 1_555 1_555
H10_5 C15_5 1_555 1_555
H11_5 N5_5 1_555 1_555
C16_5 N5_5 1_555 1_555
H12_5 C16_5 1_555 1_555
H13_5 C16_5 1_555 1_555
H14_5 C16_5 1_555 1_555
N5_6 H7_6 1_555 1_555
C15_6 N5_6 1_555 1_555
H8_6 C15_6 1_555 1_555
H9_6 C15_6 1_555 1_555
H10_6 C15_6 1_555 1_555
H11_6 N5_6 1_555 1_555
C16_6 N5_6 1_555 1_555
H12_6 C16_6 1_555 1_555
H13_6 C16_6 1_555 1_555
H14_6 C16_6 1_555 1_555
N5_7 H7_7 1_555 1_555
C15_7 N5_7 1_555 1_555
H8_7 C15_7 1_555 1_555
H9_7 C15_7 1_555 1_555
H10_7 C15_7 1_555 1_555
H11_7 N5_7 1_555 1_555
C16_7 N5_7 1_555 1_555
H12_7 C16_7 1_555 1_555
H13_7 C16_7 1_555 1_555
H14_7 C16_7 1_555 1_555
N5_8 H7_8 1_555 1_555
C15_8 N5_8 1_555 1_555
H8_8 C15_8 1_555 1_555
H9_8 C15_8 1_555 1_555
H10_8 C15_8 1_555 1_555
H11_8 N5_8 1_555 1_555
C16_8 N5_8 1_555 1_555
H12_8 C16_8 1_555 1_555
H13_8 C16_8 1_555 1_555
H14_8 C16_8 1_555 1_555
N5_9 H7_9 1_555 1_555
C15_9 N5_9 1_555 1_555
H8_9 C15_9 1_555 1_555
H9_9 C15_9 1_555 1_555
H10_9 C15_9 1_555 1_555
H11_9 N5_9 1_555 1_555
C16_9 N5_9 1_555 1_555
H12_9 C16_9 1_555 1_555
H13_9 C16_9 1_555 1_555
H14_9 C16_9 1_555 1_555
N5_10 H7_10 1_555 1_555
C15_10 N5_10 1_555 1_555
H8_10 C15_10 1_555 1_555
H9_10 C15_10 1_555 1_555
H10_10 C15_10 1_555 1_555
H11_10 N5_10 1_555 1_555
C16_10 N5_10 1_555 1_555
H12_10 C16_10 1_555 1_555
H13_10 C16_10 1_555 1_555
H14_10 C16_10 1_555 1_555
N5_11 H7_11 1_555 1_555
C15_11 N5_11 1_555 1_555
H8_11 C15_11 1_555 1_555
H9_11 C15_11 1_555 1_555
H10_11 C15_11 1_555 1_555
H11_11 N5_11 1_555 1_555
C16_11 N5_11 1_555 1_555
H12_11 C16_11 1_555 1_555
H13_11 C16_11 1_555 1_555
H14_11 C16_11 1_555 1_555
N5_12 H7_12 1_555 1_555
C15_12 N5_12 1_555 1_555
H8_12 C15_12 1_555 1_555
H9_12 C15_12 1_555 1_555
H10_12 C15_12 1_555 1_555
H11_12 N5_12 1_555 1_555
C16_12 N5_12 1_555 1_555
H12_12 C16_12 1_555 1_555
H13_12 C16_12 1_555 1_555
H14_12 C16_12 1_555 1_555
N5_13 H7_13 1_555 1_555
C15_13 N5_13 1_555 1_555
H8_13 C15_13 1_555 1_555
H9_13 C15_13 1_555 1_555
H10_13 C15_13 1_555 1_555
H11_13 N5_13 1_555 1_555
C16_13 N5_13 1_555 1_555
H12_13 C16_13 1_555 1_555
H13_13 C16_13 1_555 1_555
H14_13 C16_13 1_555 1_555
N5_14 H7_14 1_555 1_555
C15_14 N5_14 1_555 1_555
H8_14 C15_14 1_555 1_555
H9_14 C15_14 1_555 1_555
H10_14 C15_14 1_555 1_555
H11_14 N5_14 1_555 1_555
C16_14 N5_14 1_555 1_555
H12_14 C16_14 1_555 1_555
H13_14 C16_14 1_555 1_555
H14_14 C16_14 1_555 1_555
N5_15 H7_15 1_555 1_555
C15_15 N5_15 1_555 1_555
H8_15 C15_15 1_555 1_555
H9_15 C15_15 1_555 1_555
H10_15 C15_15 1_555 1_555
H11_15 N5_15 1_555 1_555
C16_15 N5_15 1_555 1_555
H12_15 C16_15 1_555 1_555
H13_15 C16_15 1_555 1_555
H14_15 C16_15 1_555 1_555
N5_16 H7_16 1_555 1_555
C15_16 N5_16 1_555 1_555
H8_16 C15_16 1_555 1_555
H9_16 C15_16 1_555 1_555
H10_16 C15_16 1_555 1_555
H11_16 N5_16 1_555 1_555
C16_16 N5_16 1_555 1_555
H12_16 C16_16 1_555 1_555
H13_16 C16_16 1_555 1_555
H14_16 C16_16 1_555 1_555

#END
