
###############################################################################
#
# This file contains modified crystal structure data generated from the
# MOF subset of the Cambridge Structural Database (CSD) v543 
# hosted by the Cambridge Crystallographic Data Centre (CCDC).
#
# This work is licensed under the Creative Commons
# Attribution-NonCommercial-ShareAlike 4.0 International License.
# To view a copy of this license, visit
# http://creativecommons.org/licenses/by-nc-sa/4.0/
# or send a letter to
# Creative Commons, PO Box 1866, Mountain View, CA 94042, USA.
#
# CIF created using the CSD Python API on 29 September 2022
# The structure has been converted into the P1 space group
# The structure has a 3D framework
# The original CSD entry QAYGAC is in the monoclinic crystal system
# The framework has been calculated to contain at least 10.0% void space
# The void calculation uses a probe of radius 1.32A, grid spacing 0.4
#
###############################################################################

data_QAYGAC
_chemical_formula_moiety         '(C156 H148 Eu6 N28 O60)n'
_symmetry_cell_setting           triclinic
_symmetry_space_group_name_H-M   'P 1'
_symmetry_Int_Tables_number      1
_space_group_name_Hall           'P 1'
loop_
_symmetry_equiv_pos_site_id
_symmetry_equiv_pos_as_xyz
1 x,y,z
_cell_length_a                   12.00220(10)
_cell_length_b                   15.27140(10)
_cell_length_c                   26.8992(2)
_cell_angle_alpha                90
_cell_angle_beta                 100.2530(10)
_cell_angle_gamma                90
_cell_volume                     4851.63
loop_
_atom_site_label
_atom_site_type_symbol
_atom_site_fract_x
_atom_site_fract_y
_atom_site_fract_z
O15 O 0.0090(8) 0.2171(5) 0.4009(3)
O16 O 0.1906(5) 0.0833(5) 0.4148(2)
H5 H 0.239022 0.096537 0.440757
H6 H 0.201(10) 0.107(8) 0.387(4)
N7 N 0.0235(16) 0.3599(11) 0.4460(7)
H30 H 0.168685 0.003511 0.288648
C37 C 0.049(2) 0.2832(11) 0.4208(8)
H31 H 0.125980 0.284362 0.418851
C39 C 0.0928(19) 0.4302(13) 0.4677(10)
H35 H 0.170056 0.427541 0.462902
H36 H 0.058796 0.483521 0.453362
H37 H 0.090326 0.428691 0.503162
O20 O 0.0951(4) 0.1394(3) 0.50441(17)
Eu1 Eu 0.53928(3) 0.57718(2) 0.56991(2)
O1 O 0.5349(4) 0.5349(4) 0.66028(18)
O2 O 0.3854(5) 0.6000(4) 0.6174(2)
O3 O 0.4982(4) 0.4755(4) 0.84548(18)
O4 O 0.3380(5) 0.4155(4) 0.85736(19)
O5 O 0.4422(5) 0.4449(3) 0.5645(2)
O6 O 0.3641(5) 0.3768(4) 0.49383(19)
O8 O 0.1155(5) 0.0615(3) 0.5754(2)
O9 O 0.3914(4) 0.5981(4) 0.50107(18)
O10 O 0.3236(4) 0.5392(3) 0.42599(18)
O11 O 0.1037(4) 0.9539(3) 0.4778(2)
O12 O 0.1543(5) 0.8554(4) 0.53716(18)
O13 O 0.5218(6) 0.7374(4) 0.5726(2)
H1 H 0.502197 0.761727 0.598139
H2 H 0.548057 0.776517 0.555449
O14 O 0.7120(5) 0.6345(4) 0.6213(2)
H3 H 0.729001 0.686146 0.631744
H4 H 0.757351 0.599146 0.638984
N3 N 0.4887(12) 0.2661(7) 0.7819(4)
N4 N 0.3896(12) 0.2515(7) 0.7894(3)
H8 H 0.373167 0.248717 0.819218
N5 N 0.1234(11) 0.7651(7) 0.2314(3)
N6 N 0.1542(8) 0.8489(6) 0.2378(3)
H9 H 0.152008 0.884773 0.213032
C1 C 0.3619(7) 0.5243(5) 0.6927(3)
C2 C 0.4115(7) 0.5020(5) 0.7420(3)
H10 H 0.489714 0.504271 0.751896
C3 C 0.3432(7) 0.4763(5) 0.7763(3)
C4 C 0.2272(7) 0.4720(5) 0.7609(3)
H11 H 0.182116 0.454663 0.783902
C5 C 0.1759(7) 0.4934(5) 0.7113(3)
C6 C 0.2460(7) 0.5202(5) 0.6783(3)
H12 H 0.213722 0.535818 0.645500
C7 C 0.4331(7) 0.5551(5) 0.6551(3)
C8 C 0.3960(7) 0.4541(5) 0.8291(3)
C9 C 0.0529(7) 0.4907(5) 0.6937(3)
C12 C 0.0350(7) 0.3789(6) 0.6191(3)
H14 H 0.080235 0.335757 0.639446
H15 H 0.079661 0.407303 0.597608
C13 C 0.3342(7) 0.3192(5) 0.5717(3)
C14 C 0.2563(7) 0.2589(5) 0.5481(3)
H17 H 0.232058 0.261026 0.513292
C15 C 0.2144(7) 0.1949(5) 0.5770(3)
C16 C 0.2519(7) 0.1909(5) 0.6286(3)
H18 H 0.225467 0.146780 0.647297
C17 C 0.3288(7) 0.2523(5) 0.6529(3)
C18 C 0.3695(7) 0.3167(5) 0.6231(3)
H19 H 0.421046 0.358168 0.638548
C19 C 0.3834(7) 0.3854(5) 0.5406(3)
C20 C 0.1349(7) 0.1267(5) 0.5501(3)
C21 C 0.3699(7) 0.2511(5) 0.7079(3)
C22 C 0.4833(7) 0.2682(5) 0.7327(3)
H20 H 0.544130 0.279059 0.716418
C23 C 0.3083(7) 0.2403(6) 0.7456(3)
C24 C 0.1955(8) 0.2306(6) 0.7454(3)
H21 H 0.154284 0.274372 0.723927
H22 H 0.180785 0.237185 0.779092
H23 H 0.171750 0.173479 0.732848
C25 C 0.2834(6) 0.6887(5) 0.4389(3)
C26 C 0.2507(6) 0.7464(5) 0.4727(3)
H24 H 0.266342 0.734531 0.507176
C27 C 0.1937(6) 0.8233(5) 0.4550(3)
C28 C 0.1723(7) 0.8420(5) 0.4034(3)
H25 H 0.133494 0.892733 0.391678
C29 C 0.2094(7) 0.7842(5) 0.3694(3)
C30 C 0.2642(7) 0.7080(5) 0.3879(3)
H26 H 0.288670 0.669046 0.365523
C31 C 0.3381(6) 0.6021(5) 0.4572(3)
C32 C 0.1492(6) 0.8813(5) 0.4921(3)
C33 C 0.1806(7) 0.7982(5) 0.3140(3)
C34 C 0.1450(7) 0.7333(5) 0.2779(3)
H27 H 0.137473 0.674522 0.285743
C35 C 0.1883(7) 0.8722(5) 0.2856(3)
C36 C 0.2282(7) 0.9624(6) 0.3002(3)
H28 H 0.249039 0.966068 0.336260
H29 H 0.292778 0.975920 0.284994
Eu3 Eu 0.46072(3) 0.42282(2) 0.43009(2)
Eu6 Eu 0.00490(3) 0.93380(2) 0.56793(2)
Eu7 Eu 0.49510(3) 0.43380(2) 0.93207(2)
O19 O 0.6359(5) 0.6232(4) 0.50617(19)
O22 O 0.6764(4) 0.4608(3) 0.57401(18)
Eu2 Eu 0.99510(3) 0.06620(2) 0.43207(2)
C38 C 0.9081(16) 0.3636(15) 0.4528(9)
H32 H 0.859178 0.350628 0.421340
H33 H 0.891308 0.421158 0.463820
H34 H 0.896338 0.321368 0.477720
O17 O 0.9982(4) 0.0245(4) 0.34548(18)
O18 O 0.8380(5) 0.0845(4) 0.35736(19)
O23 O 0.8963(4) 0.0461(3) 0.5222(2)
O24 O 0.8457(5) 0.1446(4) 0.46284(18)
N1 N 0.8682(6) 0.5283(6) 0.6829(3)
N2 N 0.8861(5) 0.4690(5) 0.6479(3)
H7 H 0.833089 0.448818 0.625032
C10 C 0.9693(7) 0.5405(6) 0.7104(3)
H13 H 0.983454 0.578187 0.737905
C11 C 0.9947(7) 0.4449(5) 0.6525(3)
H16 H 0.971045 0.350870 0.598767
O21 O 0.8845(5) 0.9385(3) 0.4246(2)
Eu2_2 Eu 0.50490(3) 0.56620(2) 0.06793(2)
O10_2 O 0.1764(4) 0.0392(3) 0.07401(18)
O11_2 O 0.3963(4) 0.4539(3) 0.0222(2)
O15_2 O 0.4910(8) 0.7171(5) 0.0991(3)
O16_2 O 0.3094(5) 0.5833(5) 0.0852(2)
H5_2 H 0.260978 0.596537 0.059243
H6_2 H 0.299(10) 0.607(8) 0.113(4)
N5_2 N 0.3766(11) 0.2651(7) 0.2686(3)
N6_2 N 0.3458(8) 0.3489(6) 0.2622(3)
H9_2 H 0.347992 0.384773 0.286968
N7_2 N 0.4765(16) 0.8599(11) 0.0540(7)
C25_2 C 0.2166(6) 0.1887(5) 0.0611(3)
C26_2 C 0.2493(6) 0.2464(5) 0.0273(3)
C27_2 C 0.3063(6) 0.3233(5) 0.0450(3)
C28_2 C 0.3277(7) 0.3420(5) 0.0966(3)
H25_2 H 0.366506 0.392733 0.108322
C29_2 C 0.2906(7) 0.2842(5) 0.1306(3)
C30_2 C 0.2358(7) 0.2080(5) 0.1121(3)
H26_2 H 0.211330 0.169046 0.134477
C31_2 C 0.1619(6) 0.1021(5) 0.0428(3)
C32_2 C 0.3508(6) 0.3813(5) 0.0079(3)
C33_2 C 0.3194(7) 0.2982(5) 0.1860(3)
C34_2 C 0.3550(7) 0.2333(5) 0.2221(3)
H27_2 H 0.362527 0.174522 0.214257
C35_2 C 0.3117(7) 0.3722(5) 0.2144(3)
C36_2 C 0.2718(7) 0.4624(6) 0.1998(3)
H28_2 H 0.250961 0.466068 0.163740
H29_2 H 0.207222 0.475920 0.215006
H30_2 H 0.331315 0.503511 0.211352
C37_2 C 0.451(2) 0.7832(11) 0.0792(8)
H31_2 H 0.374020 0.784362 0.081149
C38_2 C 0.5919(16) 0.8636(15) 0.0472(9)
H32_2 H 0.640822 0.850628 0.078660
H33_2 H 0.608692 0.921158 0.036180
H34_2 H 0.603662 0.821368 0.022280
C39_2 C 0.4072(19) 0.9302(13) 0.0323(10)
H35_2 H 0.329944 0.927541 0.037098
H36_2 H 0.441204 0.983521 0.046638
O17_2 O 0.5018(4) 0.5245(4) 0.15452(18)
O18_2 O 0.6620(5) 0.5845(4) 0.14264(19)
O21_2 O 0.6155(5) 0.4385(3) 0.0754(2)
O24_2 O 0.6543(5) 0.6446(4) 0.03716(18)
O2_2 O 0.1146(5) 0.1000(4) 0.8826(2)
O9_2 O 0.1086(4) 0.0981(4) 0.99893(18)
O12_2 O 0.3457(5) 0.3554(4) 0.96284(18)
N1_2 N 0.6318(6) 0.0283(6) 0.8171(3)
C1_2 C 0.1381(7) 0.0243(5) 0.8073(3)
C2_2 C 0.0885(7) 0.0020(5) 0.7580(3)
H10_2 H 0.010286 0.004271 0.748104
C6_2 C 0.2540(7) 0.0202(5) 0.8217(3)
H12_2 H 0.286278 0.035818 0.854500
C7_2 C 0.0669(7) 0.0551(5) 0.8449(3)
C10_2 C 0.5307(7) 0.0405(6) 0.7896(3)
H13_2 H 0.516546 0.078187 0.762095
H24_2 H 0.233658 0.234531 0.992824
H37_2 H 0.409674 0.928691 0.996838
O20_2 O 0.4049(4) 0.6394(3) 0.99559(17)
O23_2 O 0.6037(4) 0.5461(3) 0.9778(2)
O6_2 O 0.1359(5) 0.8768(4) 0.00617(19)
Eu3_2 Eu 0.03928(3) 0.92282(2) 0.06991(2)
O3_2 O 0.0018(4) 0.9755(4) 0.65452(18)
O4_2 O 0.1620(5) 0.9155(4) 0.64264(19)
O5_2 O 0.0578(5) 0.9449(3) 0.9355(2)
O8_2 O 0.3845(5) 0.5615(3) 0.9246(2)
N2_2 N 0.6139(5) 0.9690(5) 0.8521(3)
H7_2 H 0.666911 0.948818 0.874968
N3_2 N 0.0113(12) 0.7661(7) 0.7181(4)
N4_2 N 0.1104(12) 0.7515(7) 0.7106(3)
H8_2 H 0.126833 0.748717 0.680782
C3_2 C 0.1568(7) 0.9763(5) 0.7237(3)
C4_2 C 0.2728(7) 0.9720(5) 0.7391(3)
H11_2 H 0.317884 0.954663 0.716098
C5_2 C 0.3241(7) 0.9934(5) 0.7887(3)
C8_2 C 0.1040(7) 0.9541(5) 0.6709(3)
C9_2 C 0.4471(7) 0.9907(5) 0.8063(3)
C11_2 C 0.5053(7) 0.9449(5) 0.8475(3)
C12_2 C 0.4650(7) 0.8789(6) 0.8809(3)
H14_2 H 0.419765 0.835757 0.860554
H15_2 H 0.420339 0.907303 0.902392
H16_2 H 0.528955 0.850870 0.901233
C13_2 C 0.1658(7) 0.8192(5) 0.9283(3)
C14_2 C 0.2437(7) 0.7589(5) 0.9519(3)
H17_2 H 0.267942 0.761026 0.986708
C15_2 C 0.2856(7) 0.6949(5) 0.9230(3)
C16_2 C 0.2481(7) 0.6909(5) 0.8714(3)
H18_2 H 0.274533 0.646780 0.852703
C17_2 C 0.1712(7) 0.7523(5) 0.8471(3)
C18_2 C 0.1305(7) 0.8167(5) 0.8769(3)
H19_2 H 0.078954 0.858168 0.861452
C19_2 C 0.1166(7) 0.8854(5) 0.9594(3)
C20_2 C 0.3651(7) 0.6267(5) 0.9499(3)
C21_2 C 0.1301(7) 0.7511(5) 0.7921(3)
C22_2 C 0.0167(7) 0.7682(5) 0.7673(3)
C23_2 C 0.1917(7) 0.7403(6) 0.7544(3)
C24_2 C 0.3045(8) 0.7306(6) 0.7546(3)
H21_2 H 0.345716 0.774372 0.776073
H22_2 H 0.319215 0.737185 0.720908
H23_2 H 0.328250 0.673479 0.767152
Eu1_2 Eu 0.96072(3) 0.07718(2) 0.93009(2)
O1_2 O 0.9651(4) 0.0349(4) 0.83972(18)
O13_2 O 0.9782(6) 0.2374(4) 0.9274(2)
H1_2 H 0.997803 0.261727 0.901861
H2_2 H 0.951943 0.276517 0.944551
O14_2 O 0.7880(5) 0.1345(4) 0.8787(2)
H3_2 H 0.770999 0.186146 0.868256
H4_2 H 0.742649 0.099146 0.861016
O19_2 O 0.8641(5) 0.1232(4) 0.99383(19)
H20_2 H 0.955870 0.779059 0.783582
O22_2 O 0.8236(4) 0.9608(3) 0.92599(18)
N1_3 N 0.1318(6) 0.4717(6) 0.3171(3)
N2_3 N 0.1139(5) 0.5310(5) 0.3521(3)
H7_3 H 0.166911 0.551182 0.374968
C10_3 C 0.0307(7) 0.4595(6) 0.2896(3)
H13_3 H 0.016546 0.421813 0.262095
C11_3 C 0.0053(7) 0.5551(5) 0.3475(3)
H16_3 H 0.028955 0.649130 0.401233
C38_3 C 0.0919(16) 0.6364(15) 0.5472(9)
H32_3 H 0.140822 0.649372 0.578660
H33_3 H 0.108692 0.578842 0.536180
H34_3 H 0.103662 0.678632 0.522280
O1_3 O 0.4651(4) 0.4651(4) 0.33972(18)
O2_3 O 0.6146(5) 0.4000(4) 0.3826(2)
O5_3 O 0.5578(5) 0.5551(3) 0.4355(2)
O7 O 0.9049(4) 0.8606(3) 0.49559(17)
O9_3 O 0.6086(4) 0.4019(4) 0.49893(18)
O13_3 O 0.4782(6) 0.2626(4) 0.4274(2)
H1_3 H 0.497803 0.238273 0.401861
H2_3 H 0.451943 0.223483 0.444551
O14_3 O 0.2880(5) 0.3655(4) 0.3787(2)
H3_3 H 0.270999 0.313854 0.368256
H4_3 H 0.242649 0.400854 0.361016
N3_3 N 0.5113(12) 0.7339(7) 0.2181(4)
N4_3 N 0.6104(12) 0.7485(7) 0.2106(3)
H8_3 H 0.626833 0.751283 0.180782
N5_3 N 0.8766(11) 0.2349(7) 0.7686(3)
N6_3 N 0.8458(8) 0.1511(6) 0.7622(3)
H9_3 H 0.847992 0.115227 0.786968
C1_3 C 0.6381(7) 0.4757(5) 0.3073(3)
C2_3 C 0.5885(7) 0.4980(5) 0.2580(3)
H10_3 H 0.510286 0.495729 0.248104
C3_3 C 0.6568(7) 0.5237(5) 0.2237(3)
C4_3 C 0.7728(7) 0.5280(5) 0.2391(3)
H11_3 H 0.817884 0.545337 0.216098
C5_3 C 0.8241(7) 0.5066(5) 0.2887(3)
C6_3 C 0.7540(7) 0.4798(5) 0.3217(3)
H12_3 H 0.786278 0.464182 0.354500
C7_3 C 0.5669(7) 0.4449(5) 0.3449(3)
C8_3 C 0.6040(7) 0.5459(5) 0.1709(3)
C9_3 C 0.9471(7) 0.5093(5) 0.3063(3)
C12_3 C 0.9650(7) 0.6211(6) 0.3809(3)
H14_3 H 0.919765 0.664243 0.360554
H15_3 H 0.920339 0.592697 0.402392
C13_3 C 0.6658(7) 0.6808(5) 0.4283(3)
C14_3 C 0.7437(7) 0.7411(5) 0.4519(3)
H17_3 H 0.767942 0.738974 0.486708
C15_3 C 0.7856(7) 0.8051(5) 0.4230(3)
C16_3 C 0.7481(7) 0.8091(5) 0.3714(3)
H18_3 H 0.774533 0.853220 0.352703
C17_3 C 0.6712(7) 0.7477(5) 0.3471(3)
C18_3 C 0.6305(7) 0.6833(5) 0.3769(3)
H19_3 H 0.578954 0.641832 0.361452
C19_3 C 0.6166(7) 0.6146(5) 0.4594(3)
C20_3 C 0.8651(7) 0.8733(5) 0.4499(3)
C21_3 C 0.6301(7) 0.7489(5) 0.2921(3)
C22_3 C 0.5167(7) 0.7318(5) 0.2673(3)
H20_3 H 0.455870 0.720941 0.283582
C23_3 C 0.6917(7) 0.7597(6) 0.2544(3)
C24_3 C 0.8045(8) 0.7694(6) 0.2546(3)
H21_3 H 0.845716 0.725628 0.276073
H22_3 H 0.819215 0.762815 0.220908
H23_3 H 0.828250 0.826521 0.267152
C25_3 C 0.7166(6) 0.3113(5) 0.5611(3)
C26_3 C 0.7493(6) 0.2536(5) 0.5273(3)
H24_3 H 0.733658 0.265469 0.492824
C27_3 C 0.8063(6) 0.1767(5) 0.5450(3)
C28_3 C 0.8277(7) 0.1580(5) 0.5966(3)
H25_3 H 0.866506 0.107267 0.608322
C29_3 C 0.7906(7) 0.2158(5) 0.6306(3)
C30_3 C 0.7358(7) 0.2920(5) 0.6121(3)
H26_3 H 0.711330 0.330954 0.634477
C31_3 C 0.6619(6) 0.3979(5) 0.5428(3)
C32_3 C 0.8508(6) 0.1187(5) 0.5079(3)
C33_3 C 0.8194(7) 0.2018(5) 0.6860(3)
C34_3 C 0.8550(7) 0.2667(5) 0.7221(3)
H27_3 H 0.862527 0.325478 0.714257
C35_3 C 0.8117(7) 0.1278(5) 0.7144(3)
C36_3 C 0.7718(7) 0.0376(6) 0.6998(3)
H28_3 H 0.750961 0.033932 0.663740
H29_3 H 0.707222 0.024080 0.715006
O15_3 O 0.9910(8) 0.7829(5) 0.5991(3)
O16_3 O 0.8094(5) 0.9167(5) 0.5852(2)
H5_3 H 0.760978 0.903463 0.559243
H6_3 H 0.799(10) 0.893(8) 0.613(4)
N7_3 N 0.9765(16) 0.6401(11) 0.5540(7)
H30_3 H 0.831315 0.996489 0.711352
C37_3 C 0.951(2) 0.7168(11) 0.5792(8)
H31_3 H 0.874020 0.715638 0.581149
C39_3 C 0.9072(19) 0.5698(13) 0.5323(10)
H35_3 H 0.829944 0.572459 0.537098
H36_3 H 0.941204 0.516479 0.546638
H37_3 H 0.909674 0.571309 0.496838
H20_4 H 0.044130 0.220941 0.216418
O1_4 O 0.0349(4) 0.9651(4) 0.16028(18)
O13_4 O 0.0218(6) 0.7626(4) 0.0726(2)
H1_4 H 0.002197 0.738273 0.098139
H2_4 H 0.048057 0.723483 0.055449
O14_4 O 0.2120(5) 0.8655(4) 0.1213(2)
H3_4 H 0.229001 0.813854 0.131744
H4_4 H 0.257351 0.900854 0.138984
O5_4 O 0.9422(5) 0.0551(3) 0.0645(2)
O7_2 O 0.5951(4) 0.3606(3) 0.00441(17)
N2_4 N 0.3861(5) 0.0310(5) 0.1479(3)
H7_4 H 0.333089 0.051182 0.125032
N3_4 N 0.9887(12) 0.2339(7) 0.2819(4)
N4_4 N 0.8896(12) 0.2485(7) 0.2894(3)
H8_4 H 0.873167 0.251283 0.319218
C3_4 C 0.8432(7) 0.0237(5) 0.2763(3)
C4_4 C 0.7272(7) 0.0280(5) 0.2609(3)
H11_4 H 0.682116 0.045337 0.283902
C5_4 C 0.6759(7) 0.0066(5) 0.2113(3)
C8_4 C 0.8960(7) 0.0459(5) 0.3291(3)
C9_4 C 0.5529(7) 0.0093(5) 0.1937(3)
C11_4 C 0.4947(7) 0.0551(5) 0.1525(3)
C12_4 C 0.5350(7) 0.1211(6) 0.1191(3)
H14_4 H 0.580235 0.164243 0.139446
H15_4 H 0.579661 0.092697 0.097608
H16_4 H 0.471045 0.149130 0.098767
C13_4 C 0.8342(7) 0.1808(5) 0.0717(3)
C14_4 C 0.7563(7) 0.2411(5) 0.0481(3)
H17_4 H 0.732058 0.238974 0.013292
C15_4 C 0.7144(7) 0.3051(5) 0.0770(3)
C16_4 C 0.7519(7) 0.3091(5) 0.1286(3)
H18_4 H 0.725467 0.353220 0.147297
C17_4 C 0.8288(7) 0.2477(5) 0.1529(3)
C18_4 C 0.8695(7) 0.1833(5) 0.1231(3)
H19_4 H 0.921046 0.141832 0.138548
C19_4 C 0.8834(7) 0.1146(5) 0.0406(3)
C20_4 C 0.6349(7) 0.3733(5) 0.0501(3)
C21_4 C 0.8699(7) 0.2489(5) 0.2079(3)
C22_4 C 0.9833(7) 0.2318(5) 0.2327(3)
C23_4 C 0.8083(7) 0.2597(6) 0.2456(3)
C24_4 C 0.6955(8) 0.2694(6) 0.2454(3)
H21_4 H 0.654284 0.225628 0.223927
H22_4 H 0.680785 0.262815 0.279092
H23_4 H 0.671750 0.326521 0.232848
O2_4 O 0.8854(5) 0.9000(4) 0.1174(2)
O9_4 O 0.8914(4) 0.9019(4) 0.00107(18)
N1_4 N 0.3682(6) 0.9717(6) 0.1829(3)
C1_4 C 0.8619(7) 0.9757(5) 0.1927(3)
C2_4 C 0.9115(7) 0.9980(5) 0.2420(3)
H10_4 H 0.989714 0.995729 0.251896
C6_4 C 0.7460(7) 0.9798(5) 0.1783(3)
H12_4 H 0.713722 0.964182 0.145500
C7_4 C 0.9331(7) 0.9449(5) 0.1551(3)
C10_4 C 0.4693(7) 0.9595(6) 0.2104(3)
H13_4 H 0.483454 0.921813 0.237905
H24_4 H 0.766342 0.765469 0.007176
H37_4 H 0.590326 0.071309 0.003162
O15_4 O 0.5090(8) 0.2829(5) 0.9009(3)
O16_4 O 0.6906(5) 0.4167(5) 0.9148(2)
H5_4 H 0.739022 0.403463 0.940757
H6_4 H 0.701(10) 0.393(8) 0.887(4)
N5_4 N 0.6234(11) 0.7349(7) 0.7314(3)
N6_4 N 0.6542(8) 0.6511(6) 0.7378(3)
H9_4 H 0.652008 0.615227 0.713032
N7_4 N 0.5235(16) 0.1401(11) 0.9460(7)
C25_4 C 0.7834(6) 0.8113(5) 0.9389(3)
C26_4 C 0.7507(6) 0.7536(5) 0.9727(3)
C27_4 C 0.6937(6) 0.6767(5) 0.9550(3)
C28_4 C 0.6723(7) 0.6580(5) 0.9034(3)
H25_4 H 0.633494 0.607267 0.891678
C29_4 C 0.7094(7) 0.7158(5) 0.8694(3)
C30_4 C 0.7642(7) 0.7920(5) 0.8879(3)
H26_4 H 0.788670 0.830954 0.865523
C31_4 C 0.8381(6) 0.8979(5) 0.9572(3)
C32_4 C 0.6492(6) 0.6187(5) 0.9921(3)
C33_4 C 0.6806(7) 0.7018(5) 0.8140(3)
C34_4 C 0.6450(7) 0.7667(5) 0.7779(3)
H27_4 H 0.637473 0.825478 0.785743
C35_4 C 0.6883(7) 0.6278(5) 0.7856(3)
C36_4 C 0.7282(7) 0.5376(6) 0.8002(3)
H28_4 H 0.749039 0.533932 0.836260
H29_4 H 0.792778 0.524080 0.784994
H30_4 H 0.668685 0.496489 0.788648
C37_4 C 0.549(2) 0.2168(11) 0.9208(8)
H31_4 H 0.625980 0.215638 0.918851
C38_4 C 0.4081(16) 0.1364(15) 0.9528(9)
H32_4 H 0.359178 0.149372 0.921340
H33_4 H 0.391308 0.078842 0.963820
H34_4 H 0.396338 0.178632 0.977720
C39_4 C 0.5928(19) 0.0698(13) 0.9677(10)
H35_4 H 0.670056 0.072459 0.962902
H36_4 H 0.558796 0.016479 0.953362
loop_
_geom_bond_atom_site_label_1
_geom_bond_atom_site_label_2
_geom_bond_site_symmetry_1
_geom_bond_site_symmetry_2
H5 O16 1_555 1_555
H6 O16 1_555 1_555
N7 C37 1_555 1_555
C37 O15 1_555 1_555
H31 C37 1_555 1_555
C39 N7 1_555 1_555
H35 C39 1_555 1_555
H36 C39 1_555 1_555
H37 C39 1_555 1_555
Eu1 O1 1_555 1_555
O1 C7 1_555 1_555
O2 Eu1 1_555 1_555
O3 C8 1_555 1_555
O4 C8 1_555 1_555
O5 Eu1 1_555 1_555
O6 C19 1_555 1_555
O20 C20 1_555 1_555
O8 C20 1_555 1_555
O9 Eu1 1_555 1_555
O10 C31 1_555 1_555
O11 C32 1_555 1_555
O12 C32 1_555 1_555
O13 Eu1 1_555 1_555
H1 O13 1_555 1_555
H2 O13 1_555 1_555
O14 Eu1 1_555 1_555
H3 O14 1_555 1_555
H4 O14 1_555 1_555
N3 N4 1_555 1_555
N4 H8 1_555 1_555
N5 N6 1_555 1_555
N6 H9 1_555 1_555
C1 C2 1_555 1_555
C2 H10 1_555 1_555
C3 C2 1_555 1_555
C4 C3 1_555 1_555
H11 C4 1_555 1_555
C5 C4 1_555 1_555
C6 C1 1_555 1_555
H12 C6 1_555 1_555
C7 O2 1_555 1_555
C8 C3 1_555 1_555
C9 C5 1_555 1_555
H14 C12 1_555 1_555
H15 C12 1_555 1_555
C13 C14 1_555 1_555
C14 H17 1_555 1_555
C15 C14 1_555 1_555
C16 C15 1_555 1_555
H18 C16 1_555 1_555
C17 C16 1_555 1_555
C18 C13 1_555 1_555
H19 C18 1_555 1_555
C19 O5 1_555 1_555
C20 C15 1_555 1_555
C21 C17 1_555 1_555
C22 N3 1_555 1_555
H20 C22 1_555 1_555
C23 N4 1_555 1_555
C24 C23 1_555 1_555
H21 C24 1_555 1_555
H22 C24 1_555 1_555
H23 C24 1_555 1_555
C25 C26 1_555 1_555
C26 H24 1_555 1_555
C27 C26 1_555 1_555
C28 C27 1_555 1_555
H25 C28 1_555 1_555
C29 C28 1_555 1_555
C30 C25 1_555 1_555
H26 C30 1_555 1_555
C31 O9 1_555 1_555
C32 C27 1_555 1_555
C33 C29 1_555 1_555
C34 N5 1_555 1_555
H27 C34 1_555 1_555
C35 N6 1_555 1_555
C36 C35 1_555 1_555
H28 C36 1_555 1_555
H29 C36 1_555 1_555
Eu3 O6 1_555 1_555
Eu6 O11 1_555 1_555
Eu7 O3 1_555 1_555
O19 Eu1 1_555 1_555
O22 Eu1 1_555 1_555
O4 Eu7 1_555 1_555
O10 Eu3 1_555 1_555
O12 Eu6 1_555 1_555
C1 C7 1_555 1_555
C5 C6 1_555 1_555
C13 C19 1_555 1_555
C17 C18 1_555 1_555
C21 C22 1_555 1_555
C21 C23 1_555 1_555
C25 C31 1_555 1_555
C29 C30 1_555 1_555
C33 C34 1_555 1_555
C33 C35 1_555 1_555
H32 C38 1_555 1_555
H33 C38 1_555 1_555
H34 C38 1_555 1_555
O17 Eu2 1_555 1_555
O18 Eu2 1_555 1_555
O23 Eu2 1_555 1_555
O24 Eu2 1_555 1_555
N1 N2 1_555 1_555
N2 H7 1_555 1_555
C10 N1 1_555 1_555
H13 C10 1_555 1_555
C11 N2 1_555 1_555
Eu2_2 O11_2 1_555 1_555
O10_2 C31_2 1_555 1_555
O11_2 C32_2 1_555 1_555
O15_2 Eu2_2 1_555 1_555
O16_2 Eu2_2 1_555 1_555
H5_2 O16_2 1_555 1_555
H6_2 O16_2 1_555 1_555
N5_2 N6_2 1_555 1_555
N6_2 H9_2 1_555 1_555
N7_2 C37_2 1_555 1_555
C25_2 C26_2 1_555 1_555
C27_2 C26_2 1_555 1_555
C28_2 C27_2 1_555 1_555
H25_2 C28_2 1_555 1_555
C29_2 C28_2 1_555 1_555
C30_2 C25_2 1_555 1_555
H26_2 C30_2 1_555 1_555
C32_2 C27_2 1_555 1_555
C33_2 C29_2 1_555 1_555
C34_2 N5_2 1_555 1_555
H27_2 C34_2 1_555 1_555
C35_2 N6_2 1_555 1_555
C36_2 C35_2 1_555 1_555
H28_2 C36_2 1_555 1_555
H29_2 C36_2 1_555 1_555
H30_2 C36_2 1_555 1_555
C37_2 O15_2 1_555 1_555
H31_2 C37_2 1_555 1_555
C38_2 N7_2 1_555 1_555
H32_2 C38_2 1_555 1_555
H33_2 C38_2 1_555 1_555
H34_2 C38_2 1_555 1_555
C39_2 N7_2 1_555 1_555
H35_2 C39_2 1_555 1_555
H36_2 C39_2 1_555 1_555
O17_2 Eu2_2 1_555 1_555
O18_2 Eu2_2 1_555 1_555
O21_2 Eu2_2 1_555 1_555
O24_2 Eu2_2 1_555 1_555
C25_2 C31_2 1_555 1_555
C29_2 C30_2 1_555 1_555
C33_2 C34_2 1_555 1_555
C33_2 C35_2 1_555 1_555
C1_2 C2_2 1_555 1_555
C2_2 H10_2 1_555 1_555
C6_2 C1_2 1_555 1_555
H12_2 C6_2 1_555 1_555
C7_2 O2_2 1_555 1_555
C10_2 N1_2 1_555 1_555
H13_2 C10_2 1_555 1_555
O12_2 Eu7 1_555 1_555
C1_2 C7_2 1_555 1_555
Eu7 O23_2 1_555 1_555
Eu3_2 O6_2 1_555 1_555
O3_2 C8_2 1_555 1_555
O4_2 C8_2 1_555 1_555
O20_2 C20_2 1_555 1_555
O8_2 C20_2 1_555 1_555
N2_2 H7_2 1_555 1_555
N3_2 N4_2 1_555 1_555
N4_2 H8_2 1_555 1_555
C4_2 C3_2 1_555 1_555
H11_2 C4_2 1_555 1_555
C5_2 C4_2 1_555 1_555
C8_2 C3_2 1_555 1_555
C9_2 C5_2 1_555 1_555
C11_2 N2_2 1_555 1_555
C12_2 C11_2 1_555 1_555
H14_2 C12_2 1_555 1_555
H15_2 C12_2 1_555 1_555
H16_2 C12_2 1_555 1_555
C13_2 C14_2 1_555 1_555
C14_2 H17_2 1_555 1_555
C15_2 C14_2 1_555 1_555
C16_2 C15_2 1_555 1_555
H18_2 C16_2 1_555 1_555
C17_2 C16_2 1_555 1_555
C18_2 C13_2 1_555 1_555
H19_2 C18_2 1_555 1_555
C19_2 O5_2 1_555 1_555
C20_2 C15_2 1_555 1_555
C21_2 C17_2 1_555 1_555
C22_2 N3_2 1_555 1_555
C23_2 N4_2 1_555 1_555
C24_2 C23_2 1_555 1_555
H21_2 C24_2 1_555 1_555
H22_2 C24_2 1_555 1_555
H23_2 C24_2 1_555 1_555
Eu7 O8_2 1_555 1_555
Eu6 O3_2 1_555 1_555
O4_2 Eu6 1_555 1_555
C9_2 C11_2 1_555 1_555
C13_2 C19_2 1_555 1_555
C17_2 C18_2 1_555 1_555
C21_2 C22_2 1_555 1_555
C21_2 C23_2 1_555 1_555
Eu1_2 O1_2 1_555 1_555
O13_2 Eu1_2 1_555 1_555
H1_2 O13_2 1_555 1_555
H2_2 O13_2 1_555 1_555
O14_2 Eu1_2 1_555 1_555
H3_2 O14_2 1_555 1_555
H4_2 O14_2 1_555 1_555
O19_2 Eu1_2 1_555 1_555
N1_3 N2_3 1_555 1_555
N2_3 H7_3 1_555 1_555
C10_3 N1_3 1_555 1_555
H13_3 C10_3 1_555 1_555
C11_3 N2_3 1_555 1_555
H32_3 C38_3 1_555 1_555
H33_3 C38_3 1_555 1_555
H34_3 C38_3 1_555 1_555
Eu3 O1_3 1_555 1_555
O1_3 C7_3 1_555 1_555
O2_3 Eu3 1_555 1_555
O17_2 C8_3 1_555 1_555
O18_2 C8_3 1_555 1_555
O5_3 Eu3 1_555 1_555
O19 C19_3 1_555 1_555
O7 C20_3 1_555 1_555
O21 C20_3 1_555 1_555
O9_3 Eu3 1_555 1_555
O22 C31_3 1_555 1_555
O23 C32_3 1_555 1_555
O24 C32_3 1_555 1_555
O13_3 Eu3 1_555 1_555
H1_3 O13_3 1_555 1_555
H2_3 O13_3 1_555 1_555
O14_3 Eu3 1_555 1_555
H3_3 O14_3 1_555 1_555
H4_3 O14_3 1_555 1_555
N3_3 N4_3 1_555 1_555
N4_3 H8_3 1_555 1_555
N5_3 N6_3 1_555 1_555
N6_3 H9_3 1_555 1_555
C1_3 C2_3 1_555 1_555
C2_3 H10_3 1_555 1_555
C3_3 C2_3 1_555 1_555
C4_3 C3_3 1_555 1_555
H11_3 C4_3 1_555 1_555
C5_3 C4_3 1_555 1_555
C6_3 C1_3 1_555 1_555
H12_3 C6_3 1_555 1_555
C7_3 O2_3 1_555 1_555
C8_3 C3_3 1_555 1_555
C9_3 C5_3 1_555 1_555
H14_3 C12_3 1_555 1_555
H15_3 C12_3 1_555 1_555
C13_3 C14_3 1_555 1_555
C14_3 H17_3 1_555 1_555
C15_3 C14_3 1_555 1_555
C16_3 C15_3 1_555 1_555
H18_3 C16_3 1_555 1_555
C17_3 C16_3 1_555 1_555
C18_3 C13_3 1_555 1_555
H19_3 C18_3 1_555 1_555
C19_3 O5_3 1_555 1_555
C20_3 C15_3 1_555 1_555
C21_3 C17_3 1_555 1_555
C22_3 N3_3 1_555 1_555
H20_3 C22_3 1_555 1_555
C23_3 N4_3 1_555 1_555
C24_3 C23_3 1_555 1_555
H21_3 C24_3 1_555 1_555
H22_3 C24_3 1_555 1_555
H23_3 C24_3 1_555 1_555
C25_3 C26_3 1_555 1_555
C26_3 H24_3 1_555 1_555
C27_3 C26_3 1_555 1_555
C28_3 C27_3 1_555 1_555
H25_3 C28_3 1_555 1_555
C29_3 C28_3 1_555 1_555
C30_3 C25_3 1_555 1_555
H26_3 C30_3 1_555 1_555
C31_3 O9_3 1_555 1_555
C32_3 C27_3 1_555 1_555
C33_3 C29_3 1_555 1_555
C34_3 N5_3 1_555 1_555
H27_3 C34_3 1_555 1_555
C35_3 N6_3 1_555 1_555
C36_3 C35_3 1_555 1_555
H28_3 C36_3 1_555 1_555
H29_3 C36_3 1_555 1_555
C1_3 C7_3 1_555 1_555
C5_3 C6_3 1_555 1_555
C13_3 C19_3 1_555 1_555
C17_3 C18_3 1_555 1_555
C21_3 C22_3 1_555 1_555
C21_3 C23_3 1_555 1_555
C25_3 C31_3 1_555 1_555
C29_3 C30_3 1_555 1_555
C33_3 C34_3 1_555 1_555
C33_3 C35_3 1_555 1_555
H5_3 O16_3 1_555 1_555
H6_3 O16_3 1_555 1_555
N7_3 C37_3 1_555 1_555
C37_3 O15_3 1_555 1_555
H31_3 C37_3 1_555 1_555
C39_3 N7_3 1_555 1_555
H35_3 C39_3 1_555 1_555
H36_3 C39_3 1_555 1_555
H37_3 C39_3 1_555 1_555
Eu3_2 O1_4 1_555 1_555
O13_4 Eu3_2 1_555 1_555
H1_4 O13_4 1_555 1_555
H2_4 O13_4 1_555 1_555
O14_4 Eu3_2 1_555 1_555
H3_4 O14_4 1_555 1_555
H4_4 O14_4 1_555 1_555
O17 C8_4 1_555 1_555
O18 C8_4 1_555 1_555
O7_2 C20_4 1_555 1_555
O21_2 C20_4 1_555 1_555
N2_4 H7_4 1_555 1_555
N3_4 N4_4 1_555 1_555
N4_4 H8_4 1_555 1_555
C4_4 C3_4 1_555 1_555
H11_4 C4_4 1_555 1_555
C5_4 C4_4 1_555 1_555
C8_4 C3_4 1_555 1_555
C9_4 C5_4 1_555 1_555
C11_4 N2_4 1_555 1_555
C12_4 C11_4 1_555 1_555
H14_4 C12_4 1_555 1_555
H15_4 C12_4 1_555 1_555
H16_4 C12_4 1_555 1_555
C13_4 C14_4 1_555 1_555
C14_4 H17_4 1_555 1_555
C15_4 C14_4 1_555 1_555
C16_4 C15_4 1_555 1_555
H18_4 C16_4 1_555 1_555
C17_4 C16_4 1_555 1_555
C18_4 C13_4 1_555 1_555
H19_4 C18_4 1_555 1_555
C19_4 O5_4 1_555 1_555
C20_4 C15_4 1_555 1_555
C21_4 C17_4 1_555 1_555
C22_4 N3_4 1_555 1_555
C23_4 N4_4 1_555 1_555
C24_4 C23_4 1_555 1_555
H21_4 C24_4 1_555 1_555
H22_4 C24_4 1_555 1_555
H23_4 C24_4 1_555 1_555
C9_4 C11_4 1_555 1_555
C13_4 C19_4 1_555 1_555
C17_4 C18_4 1_555 1_555
C21_4 C22_4 1_555 1_555
C21_4 C23_4 1_555 1_555
C1_4 C2_4 1_555 1_555
C2_4 H10_4 1_555 1_555
C6_4 C1_4 1_555 1_555
H12_4 C6_4 1_555 1_555
C7_4 O2_4 1_555 1_555
C10_4 N1_4 1_555 1_555
H13_4 C10_4 1_555 1_555
C1_4 C7_4 1_555 1_555
O22_2 C31_4 1_555 1_555
O23_2 C32_4 1_555 1_555
O15_4 Eu7 1_555 1_555
O16_4 Eu7 1_555 1_555
H5_4 O16_4 1_555 1_555
H6_4 O16_4 1_555 1_555
N5_4 N6_4 1_555 1_555
N6_4 H9_4 1_555 1_555
N7_4 C37_4 1_555 1_555
C25_4 C26_4 1_555 1_555
C27_4 C26_4 1_555 1_555
C28_4 C27_4 1_555 1_555
H25_4 C28_4 1_555 1_555
C29_4 C28_4 1_555 1_555
C30_4 C25_4 1_555 1_555
H26_4 C30_4 1_555 1_555
C32_4 C27_4 1_555 1_555
C33_4 C29_4 1_555 1_555
C34_4 N5_4 1_555 1_555
H27_4 C34_4 1_555 1_555
C35_4 N6_4 1_555 1_555
C36_4 C35_4 1_555 1_555
H28_4 C36_4 1_555 1_555
H29_4 C36_4 1_555 1_555
H30_4 C36_4 1_555 1_555
C37_4 O15_4 1_555 1_555
H31_4 C37_4 1_555 1_555
C38_4 N7_4 1_555 1_555
H32_4 C38_4 1_555 1_555
H33_4 C38_4 1_555 1_555
H34_4 C38_4 1_555 1_555
C39_4 N7_4 1_555 1_555
H35_4 C39_4 1_555 1_555
H36_4 C39_4 1_555 1_555
C25_4 C31_4 1_555 1_555
C29_4 C30_4 1_555 1_555
C33_4 C34_4 1_555 1_555
C33_4 C35_4 1_555 1_555

#END
