
###############################################################################
#
# This file contains modified crystal structure data generated from the
# MOF subset of the Cambridge Structural Database (CSD) v543 
# hosted by the Cambridge Crystallographic Data Centre (CCDC).
#
# This work is licensed under the Creative Commons
# Attribution-NonCommercial-ShareAlike 4.0 International License.
# To view a copy of this license, visit
# http://creativecommons.org/licenses/by-nc-sa/4.0/
# or send a letter to
# Creative Commons, PO Box 1866, Mountain View, CA 94042, USA.
#
# CIF created using the CSD Python API on 29 September 2022
# The structure has been converted into the P1 space group
# The structure has a 3D framework
# The original CSD entry QAYTEP is in the rhombohedral crystal system
# The framework has been calculated to contain at least 10.0% void space
# The void calculation uses a probe of radius 1.32A, grid spacing 0.4
# The framework is charged, counterions have been retained in the structure
#
###############################################################################

data_QAYTEP
_chemical_formula_moiety         '(C90 H180 N36 Nd13 O72)n'
_symmetry_cell_setting           triclinic
_symmetry_space_group_name_H-M   'P 1'
_symmetry_Int_Tables_number      1
_space_group_name_Hall           'P 1'
loop_
_symmetry_equiv_pos_site_id
_symmetry_equiv_pos_as_xyz
1 x,y,z
_cell_length_a                   13.9921(10)
_cell_length_b                   13.9921(10)
_cell_length_c                   25.705(2)
_cell_angle_alpha                90
_cell_angle_beta                 90
_cell_angle_gamma                120.00
_cell_volume                     4358.27
loop_
_atom_site_label
_atom_site_type_symbol
_atom_site_fract_x
_atom_site_fract_y
_atom_site_fract_z
Nd1 Nd -0.0000 0.0000 0.5000
O1 O 0.1500(2) 0.1201(3) 0.44972(12)
C1 C 0.2493(4) 0.1816(4) 0.4370(2)
C2 C 0.3255(4) 0.2733(5) 0.4719(2)
H1 H 0.3835(4) 0.3304(5) 0.4516(2)
H2 H 0.3568(4) 0.2458(5) 0.4970(2)
H3 H 0.2854(4) 0.3025(5) 0.4896(2)
N1 N 0.2880(3) 0.1683(3) 0.3934(2)
H4 H 0.3595(9) 0.2100(27) 0.3845(15)
C3 C 0.2228(4) 0.0796(4) 0.3563(2)
H5 H 0.2498(4) 0.1050(4) 0.3214(2)
H6 H 0.1464(4) 0.0619(4) 0.3578(2)
O6 O 0.0299(4) 0.1500(2) 0.55028(12)
H51 H 0.0262(9) 0.5433(27) 0.7178(15)
H58 H 0.0502(4) 0.6637(5) 0.7849(2)
H59 H 0.0235(4) 0.5791(5) 0.8303(2)
Nd1_2 Nd 0.0000 1.0000 0.5000
C4 C 0.2291(4) 0.9763(4) 0.3677(2)
H7 H 0.3059(4) 0.9950(4) 0.3683(2)
H8 H 0.1981(4) 0.9485(4) 0.4018(2)
C5 C 0.1680(4) 0.8873(4) 0.3279(2)
H9 H 0.2020(4) 0.9145(4) 0.2942(2)
H10 H 0.0927(4) 0.8728(4) 0.3258(2)
O5 O 0.1201(3) 0.9701(4) 0.55028(12)
C6 C 0.1653(4) 0.7794(4) 0.3388(2)
C9 C 0.1042(4) 0.6904(4) 0.2990(2)
H11 H 0.1313(4) 0.7522(4) 0.3725(2)
H12 H 0.2406(4) 0.7939(4) 0.3409(2)
C12 C 0.1105(4) 0.5871(4) 0.3104(2)
H13 H 0.0274(4) 0.6717(4) 0.2984(2)
H14 H 0.1352(4) 0.7182(4) 0.2649(2)
H17 H 0.0171(6) 0.7146(4) 0.4896(2)
N4 N 0.0453(3) 0.4984(3) 0.2733(2)
H23 H 0.0835(4) 0.5617(4) 0.3453(2)
H24 H 0.1869(4) 0.6048(4) 0.3089(2)
C17 C 0.0840(4) 0.4851(4) 0.2297(2)
O7 O 0.1833(2) 0.5466(3) 0.21695(12)
C20 C 0.0078(4) 0.3934(5) 0.1948(2)
Nd2 Nd 0.3333 0.6667 0.1667
H54 H 0.0479(4) 0.3642(5) 0.1771(2)
Nd1_3 Nd 1.0000 0.0000 0.5000
O2 O 0.8799(3) 0.0299(4) 0.44972(12)
C16 C 0.7709(4) 0.0237(4) 0.6323(2)
H32 H 0.6941(4) 0.0050(4) 0.6317(2)
H33 H 0.8019(4) 0.0515(4) 0.5982(2)
C19 C 0.8320(4) 0.1127(4) 0.6721(2)
H42 H 0.4828(28) 0.0262(9) 0.2822(15)
C26 C 0.8347(4) 0.2206(4) 0.6612(2)
H43 H 0.7980(4) 0.0855(4) 0.7058(2)
H44 H 0.9073(4) 0.1272(4) 0.6742(2)
C27 C 0.8958(4) 0.3096(4) 0.7010(2)
H45 H 0.8687(4) 0.2478(4) 0.6275(2)
H46 H 0.7594(4) 0.2061(4) 0.6591(2)
C28 C 0.8895(4) 0.4129(4) 0.6896(2)
H47 H 0.9726(4) 0.3283(4) 0.7016(2)
H48 H 0.8648(4) 0.2818(4) 0.7351(2)
N6 N 0.9547(3) 0.5016(3) 0.7267(2)
H49 H 0.9165(4) 0.4383(4) 0.6547(2)
H50 H 0.8131(4) 0.3952(4) 0.6911(2)
C29 C 0.9160(4) 0.5149(4) 0.7703(2)
H55 H 0.3864(6) 0.0502(4) 0.2151(2)
H56 H 0.4443(6) 0.0235(4) 0.1697(2)
O9 O 0.8167(2) 0.4534(3) 0.78305(12)
C30 C 0.9922(4) 0.6066(5) 0.8052(2)
Nd4 Nd 0.6667 0.3333 0.8333
H60 H 0.9521(4) 0.6358(5) 0.8229(2)
Nd1_4 Nd 1.0000 1.0000 0.5000
O3 O 0.9701(4) 0.8500(2) 0.44972(12)
O4 O 0.8500(2) 0.8799(3) 0.55028(12)
C7 C 0.9323(6) 0.7507(4) 0.4370(2)
C8 C 0.7507(4) 0.8184(4) 0.5630(2)
C10 C 0.9478(6) 0.6745(4) 0.4719(2)
N2 N 0.8803(4) 0.7120(3) 0.3934(2)
C11 C 0.6745(4) 0.7267(5) 0.5281(2)
N3 N 0.7120(3) 0.8317(3) 0.6066(2)
H15 H 0.9469(6) 0.6165(4) 0.4516(2)
H16 H 0.8890(6) 0.6432(4) 0.4970(2)
H18 H 0.8505(28) 0.6405(9) 0.3845(15)
C13 C 0.8568(6) 0.7772(4) 0.3563(2)
H19 H 0.6165(4) 0.6696(5) 0.5484(2)
H20 H 0.6432(4) 0.7542(5) 0.5030(2)
H21 H 0.7146(4) 0.6975(5) 0.5104(2)
H22 H 0.6405(9) 0.7900(27) 0.6155(15)
C14 C 0.7772(4) 0.9204(4) 0.6437(2)
H25 H 0.8552(6) 0.7502(4) 0.3214(2)
H26 H 0.9155(6) 0.8536(4) 0.3578(2)
C15 C 0.7472(6) 0.7709(4) 0.3677(2)
H27 H 0.7502(4) 0.8950(4) 0.6786(2)
H28 H 0.8536(4) 0.9381(4) 0.6422(2)
H29 H 0.9738(9) 0.4567(27) 0.2822(15)
H30 H 0.6891(6) 0.6941(4) 0.3683(2)
H31 H 0.7504(6) 0.8019(4) 0.4018(2)
C18 C 0.7193(6) 0.8320(4) 0.3279(2)
C21 C 0.6140(6) 0.8347(4) 0.3388(2)
H34 H 0.7125(6) 0.7980(4) 0.2942(2)
H35 H 0.7801(6) 0.9073(4) 0.3258(2)
C22 C 0.5861(6) 0.8958(4) 0.2990(2)
H36 H 0.6208(6) 0.8687(4) 0.3725(2)
H37 H 0.5532(6) 0.7594(4) 0.3409(2)
C23 C 0.4765(6) 0.8895(4) 0.3104(2)
H38 H 0.6442(6) 0.9726(4) 0.2984(2)
H39 H 0.5829(6) 0.8648(4) 0.2649(2)
N5 N 0.4530(4) 0.9547(3) 0.2733(2)
H40 H 0.4781(6) 0.9165(4) 0.3453(2)
H41 H 0.4178(6) 0.8131(4) 0.3089(2)
C24 C 0.4010(6) 0.9160(4) 0.2297(2)
O8 O 0.3632(4) 0.8167(2) 0.21695(12)
C25 C 0.3855(6) 0.9922(4) 0.1948(2)
H52 H 0.9498(4) 0.3363(5) 0.2151(2)
H53 H 0.9765(4) 0.4209(5) 0.1697(2)
H57 H 0.3162(6) 0.9521(4) 0.1771(2)
C4_2 C 0.0237(4) 0.2528(6) 0.3677(2)
H7_2 H 0.0050(4) 0.3109(6) 0.3683(2)
H8_2 H 0.0515(4) 0.2496(6) 0.4018(2)
C5_2 C 0.1127(4) 0.2807(6) 0.3279(2)
H9_2 H 0.0855(4) 0.2875(6) 0.2942(2)
H10_2 H 0.1272(4) 0.2199(6) 0.3258(2)
C6_2 C 0.2206(4) 0.3860(6) 0.3388(2)
C9_2 C 0.3096(4) 0.4139(6) 0.2990(2)
H11_2 H 0.2478(4) 0.3792(6) 0.3725(2)
H12_2 H 0.2061(4) 0.4468(6) 0.3409(2)
C12_2 C 0.4129(4) 0.5235(6) 0.3104(2)
H13_2 H 0.3283(4) 0.3558(6) 0.2984(2)
H14_2 H 0.2818(4) 0.4171(6) 0.2649(2)
H21_2 H 0.3025(5) 0.0171(6) 0.5104(2)
N4_2 N 0.5016(3) 0.5470(4) 0.2733(2)
H23_2 H 0.4383(4) 0.5219(6) 0.3453(2)
H24_2 H 0.3952(4) 0.5822(6) 0.3089(2)
C17_2 C 0.5149(4) 0.5990(6) 0.2297(2)
H29_2 H 0.5433(27) 0.5172(28) 0.2822(15)
O7_2 O 0.4534(3) 0.6368(4) 0.21695(12)
C20_2 C 0.6066(5) 0.6145(6) 0.1948(2)
H52_2 H 0.6637(5) 0.6136(6) 0.2151(2)
H53_2 H 0.5791(5) 0.5557(6) 0.1697(2)
H54_2 H 0.6358(5) 0.6838(6) 0.1771(2)
C8_2 C 0.1816(4) 0.9323(6) 0.5630(2)
C11_2 C 0.2733(5) 0.9478(6) 0.5281(2)
N3_2 N 0.1683(3) 0.8803(4) 0.6066(2)
H19_2 H 0.3304(5) 0.9469(6) 0.5484(2)
H20_2 H 0.2458(5) 0.8890(6) 0.5030(2)
H22_2 H 0.2100(27) 0.8505(28) 0.6155(15)
C14_2 C 0.0796(4) 0.8568(6) 0.6437(2)
H27_2 H 0.1050(4) 0.8552(6) 0.6786(2)
H28_2 H 0.0619(4) 0.9155(6) 0.6422(2)
C1_2 C 0.8184(4) 0.0677(6) 0.4370(2)
C2_2 C 0.7267(5) 0.0522(6) 0.4719(2)
H1_2 H 0.6696(5) 0.0531(6) 0.4516(2)
H2_2 H 0.7542(5) 0.1110(6) 0.4970(2)
N1_2 N 0.8317(3) 0.1197(4) 0.3934(2)
H4_2 H 0.7900(27) 0.1495(28) 0.3845(15)
C3_2 C 0.9204(4) 0.1432(6) 0.3563(2)
H5_2 H 0.8950(4) 0.1448(6) 0.3214(2)
H6_2 H 0.9381(4) 0.0845(6) 0.3578(2)
H3_2 H 0.6975(5) 0.9829(6) 0.4896(2)
C16_2 C 0.9763(4) 0.7472(6) 0.6323(2)
H32_2 H 0.9950(4) 0.6891(6) 0.6317(2)
H33_2 H 0.9485(4) 0.7504(6) 0.5982(2)
C19_2 C 0.8873(4) 0.7193(6) 0.6721(2)
C26_2 C 0.7794(4) 0.6140(6) 0.6612(2)
H43_2 H 0.9145(4) 0.7125(6) 0.7058(2)
H44_2 H 0.8728(4) 0.7801(6) 0.6742(2)
C27_2 C 0.6904(4) 0.5861(6) 0.7010(2)
H45_2 H 0.7522(4) 0.6208(6) 0.6275(2)
H46_2 H 0.7939(4) 0.5532(6) 0.6591(2)
C28_2 C 0.5871(4) 0.4765(6) 0.6896(2)
H47_2 H 0.6717(4) 0.6442(6) 0.7016(2)
H48_2 H 0.7182(4) 0.5829(6) 0.7351(2)
N6_2 N 0.4984(3) 0.4530(4) 0.7267(2)
H49_2 H 0.5617(4) 0.4781(6) 0.6547(2)
H50_2 H 0.6048(4) 0.4178(6) 0.6911(2)
C29_2 C 0.4851(4) 0.4010(6) 0.7703(2)
H51_2 H 0.4567(27) 0.4828(28) 0.7178(15)
O9_2 O 0.5466(3) 0.3632(4) 0.78305(12)
C30_2 C 0.3934(5) 0.3855(6) 0.8052(2)
H58_2 H 0.3363(5) 0.3864(6) 0.7849(2)
H59_2 H 0.4209(5) 0.4443(6) 0.8303(2)
H60_2 H 0.3642(5) 0.3162(6) 0.8229(2)
C8_3 C 0.0677(6) 0.2493(4) 0.5630(2)
C11_3 C 0.0522(6) 0.3255(4) 0.5281(2)
N3_3 N 0.1197(4) 0.2880(3) 0.6066(2)
H19_3 H 0.0531(6) 0.3835(4) 0.5484(2)
H20_3 H 0.1110(6) 0.3568(4) 0.5030(2)
H22_3 H 0.1495(28) 0.3595(9) 0.6155(15)
C14_3 C 0.1432(6) 0.2228(4) 0.6437(2)
H27_3 H 0.1448(6) 0.2498(4) 0.6786(2)
H28_3 H 0.0845(6) 0.1464(4) 0.6422(2)
C16_3 C 0.2528(6) 0.2291(4) 0.6323(2)
H32_3 H 0.3109(6) 0.3059(4) 0.6317(2)
H33_3 H 0.2496(6) 0.1981(4) 0.5982(2)
C19_3 C 0.2807(6) 0.1680(4) 0.6721(2)
C26_3 C 0.3860(6) 0.1653(4) 0.6612(2)
H43_3 H 0.2875(6) 0.2020(4) 0.7058(2)
H44_3 H 0.2199(6) 0.0927(4) 0.6742(2)
C27_3 C 0.4139(6) 0.1042(4) 0.7010(2)
H45_3 H 0.3792(6) 0.1313(4) 0.6275(2)
H46_3 H 0.4468(6) 0.2406(4) 0.6591(2)
C28_3 C 0.5235(6) 0.1105(4) 0.6896(2)
H47_3 H 0.3558(6) 0.0274(4) 0.7016(2)
H48_3 H 0.4171(6) 0.1352(4) 0.7351(2)
N6_3 N 0.5470(4) 0.0453(3) 0.7267(2)
H49_3 H 0.5219(6) 0.0835(4) 0.6547(2)
H50_3 H 0.5822(6) 0.1869(4) 0.6911(2)
C29_3 C 0.5990(6) 0.0840(4) 0.7703(2)
O9_3 O 0.6368(4) 0.1833(2) 0.78305(12)
C30_3 C 0.6145(6) 0.0078(4) 0.8052(2)
H60_3 H 0.6838(6) 0.0479(4) 0.8229(2)
H51_3 H 0.5172(28) 0.9738(9) 0.7178(15)
H58_3 H 0.6136(6) 0.9498(4) 0.7849(2)
H59_3 H 0.5557(6) 0.9765(4) 0.8303(2)
H21_3 H 0.9829(6) 0.2854(4) 0.5104(2)
H27_4 H 0.4169(4) 0.2283(4) 0.0119(2)
C19_4 C 0.4987(4) 0.4460(4) 0.0054(2)
H43_4 H 0.4647(4) 0.4188(4) 0.0391(2)
H44_4 H 0.5740(4) 0.4605(4) 0.0075(2)
C27_4 C 0.5624(4) 0.6430(4) 0.0344(2)
C28_4 C 0.5561(4) 0.7463(4) 0.0230(2)
H47_4 H 0.6392(4) 0.6617(4) 0.0350(2)
H48_4 H 0.5314(4) 0.6152(4) 0.0685(2)
N6_4 N 0.6213(3) 0.8350(3) 0.0601(2)
H50_4 H 0.4797(4) 0.7286(4) 0.0245(2)
C29_4 C 0.5826(4) 0.8483(4) 0.1037(2)
H51_4 H 0.6928(9) 0.8767(27) 0.0512(15)
O9_4 O 0.4833(2) 0.7868(3) 0.11639(12)
C30_4 C 0.6588(4) 0.9400(5) 0.1386(2)
H58_4 H 0.7168(4) 0.9971(5) 0.1183(2)
H59_4 H 0.6901(4) 0.9125(5) 0.1637(2)
H60_4 H 0.6187(4) 0.9692(5) 0.1563(2)
O4_2 O 0.5167(2) 0.2132(3) 0.88361(12)
O5_2 O 0.7868(3) 0.3034(4) 0.88361(12)
O6_2 O 0.6966(4) 0.4833(2) 0.88361(12)
C8_4 C 0.4174(4) 0.1517(4) 0.8963(2)
C11_4 C 0.3412(4) 0.0600(5) 0.8614(2)
N3_4 N 0.3787(3) 0.1650(3) 0.9399(2)
H19_4 H 0.2832(4) 0.0029(5) 0.8817(2)
H20_4 H 0.3099(4) 0.0875(5) 0.8363(2)
H21_4 H 0.3813(4) 0.0308(5) 0.8437(2)
H22_4 H 0.3072(9) 0.1233(27) 0.9488(15)
C14_4 C 0.4439(4) 0.2537(4) 0.9770(2)
H28_4 H 0.5203(4) 0.2714(4) 0.9755(2)
C16_4 C 0.4376(4) 0.3570(4) 0.9656(2)
H32_4 H 0.3608(4) 0.3383(4) 0.9650(2)
H33_4 H 0.4686(4) 0.3848(4) 0.9315(2)
C26_4 C 0.5013(4) 0.5540(4) 0.9946(2)
H45_4 H 0.5353(4) 0.5812(4) 0.9609(2)
H46_4 H 0.4260(4) 0.5395(4) 0.9925(2)
H49_4 H 0.5831(4) 0.7717(4) 0.9881(2)
H27_5 H 0.7717(4) 0.1885(6) 0.0119(2)
C19_5 C 0.5540(4) 0.0526(6) 0.0054(2)
H43_5 H 0.5812(4) 0.0458(6) 0.0391(2)
H44_5 H 0.5395(4) 0.1134(6) 0.0075(2)
C8_5 C 0.8483(4) 0.2656(6) 0.8963(2)
C11_5 C 0.9400(5) 0.2811(6) 0.8614(2)
N3_5 N 0.8350(3) 0.2136(4) 0.9399(2)
H19_5 H 0.9971(5) 0.2802(6) 0.8817(2)
H20_5 H 0.9125(5) 0.2223(6) 0.8363(2)
H21_5 H 0.9692(5) 0.3504(6) 0.8437(2)
H22_5 H 0.8767(27) 0.1838(28) 0.9488(15)
C14_5 C 0.7463(4) 0.1901(6) 0.9770(2)
H28_5 H 0.7286(4) 0.2488(6) 0.9755(2)
C16_5 C 0.6430(4) 0.0805(6) 0.9656(2)
H32_5 H 0.6617(4) 0.0224(6) 0.9650(2)
H33_5 H 0.6152(4) 0.0837(6) 0.9315(2)
C27_5 C 0.3570(4) 0.9195(6) 0.0344(2)
C28_5 C 0.2537(4) 0.8099(6) 0.0230(2)
H47_5 H 0.3383(4) 0.9776(6) 0.0350(2)
H48_5 H 0.3848(4) 0.9163(6) 0.0685(2)
N6_5 N 0.1650(3) 0.7864(4) 0.0601(2)
H50_5 H 0.2714(4) 0.7512(6) 0.0245(2)
C29_5 C 0.1517(4) 0.7344(6) 0.1037(2)
H51_5 H 0.1233(27) 0.8162(28) 0.0512(15)
O9_5 O 0.2132(3) 0.6966(4) 0.11639(12)
C30_5 C 0.0600(5) 0.7189(6) 0.1386(2)
H58_5 H 0.0029(5) 0.7198(6) 0.1183(2)
H59_5 H 0.0875(5) 0.7777(6) 0.1637(2)
H60_5 H 0.0308(5) 0.6496(6) 0.1563(2)
C26_5 C 0.4460(4) 0.9474(6) 0.9946(2)
H45_5 H 0.4188(4) 0.9542(6) 0.9609(2)
H46_5 H 0.4605(4) 0.8866(6) 0.9925(2)
H49_5 H 0.2283(4) 0.8115(6) 0.9881(2)
C27_6 C 0.0805(6) 0.4376(4) 0.0344(2)
C28_6 C 0.1901(6) 0.4439(4) 0.0230(2)
H47_6 H 0.0224(6) 0.3608(4) 0.0350(2)
H48_6 H 0.0837(6) 0.4686(4) 0.0685(2)
N6_6 N 0.2136(4) 0.3787(3) 0.0601(2)
H50_6 H 0.2488(6) 0.5203(4) 0.0245(2)
C29_6 C 0.2656(6) 0.4174(4) 0.1037(2)
H51_6 H 0.1838(28) 0.3072(9) 0.0512(15)
O9_6 O 0.3034(4) 0.5167(2) 0.11639(12)
C30_6 C 0.2811(6) 0.3412(4) 0.1386(2)
H58_6 H 0.2802(6) 0.2832(4) 0.1183(2)
H59_6 H 0.2223(6) 0.3099(4) 0.1637(2)
H60_6 H 0.3504(6) 0.3813(4) 0.1563(2)
C26_6 C 0.0526(6) 0.4987(4) 0.9946(2)
H45_6 H 0.0458(6) 0.4647(4) 0.9609(2)
H46_6 H 0.1134(6) 0.5740(4) 0.9925(2)
H49_6 H 0.1885(6) 0.4169(4) 0.9881(2)
H27_6 H 0.8115(6) 0.5831(4) 0.0119(2)
C19_6 C 0.9474(6) 0.5013(4) 0.0054(2)
H43_6 H 0.9542(6) 0.5353(4) 0.0391(2)
H44_6 H 0.8866(6) 0.4260(4) 0.0075(2)
C8_6 C 0.7344(6) 0.5826(4) 0.8963(2)
C11_6 C 0.7189(6) 0.6588(4) 0.8614(2)
N3_6 N 0.7864(4) 0.6213(3) 0.9399(2)
H19_6 H 0.7198(6) 0.7168(4) 0.8817(2)
H20_6 H 0.7777(6) 0.6901(4) 0.8363(2)
H21_6 H 0.6496(6) 0.6187(4) 0.8437(2)
H22_6 H 0.8162(28) 0.6928(9) 0.9488(15)
C14_6 C 0.8099(6) 0.5561(4) 0.9770(2)
H28_6 H 0.7512(6) 0.4797(4) 0.9755(2)
C16_6 C 0.9195(6) 0.5624(4) 0.9656(2)
H32_6 H 0.9776(6) 0.6392(4) 0.9650(2)
H33_6 H 0.9163(6) 0.5314(4) 0.9315(2)
Nd5 Nd 0.6667 0.3333 0.3333
N7 N 0.5368(3) 0.1313(3) 0.40182(13)
O10 O 0.5967(2) 0.1319(2) 0.36424(11)
O11 O 0.5371(2) 0.2205(2) 0.41015(11)
O12 O 0.4824(3) 0.0490(3) 0.42791(13)
O13 O 0.8681(2) 0.4648(3) 0.36424(11)
O14 O 0.5352(3) 0.4033(2) 0.36424(11)
O15 O 0.7366(2) 0.5348(2) 0.30243(11)
O16 O 0.4652(2) 0.2019(3) 0.30243(11)
O17 O 0.7981(3) 0.2634(2) 0.30243(11)
O18 O 0.7795(2) 0.3166(3) 0.41015(11)
O19 O 0.6834(3) 0.4629(2) 0.41015(11)
O20 O 0.7962(2) 0.4462(2) 0.25652(11)
O21 O 0.5538(2) 0.3501(3) 0.25652(11)
O22 O 0.6499(3) 0.2038(2) 0.25652(11)
N8 N 0.8687(3) 0.4055(4) 0.40182(13)
N9 N 0.5945(4) 0.4632(3) 0.40182(13)
N10 N 0.7965(3) 0.5354(3) 0.26485(13)
N11 N 0.4646(3) 0.2612(4) 0.26485(13)
N12 N 0.7388(4) 0.2035(3) 0.26485(13)
O23 O 0.9510(3) 0.4334(4) 0.42791(13)
O24 O 0.5666(4) 0.5176(3) 0.42791(13)
O25 O 0.8509(3) 0.6177(3) 0.23876(13)
O26 O 0.3823(3) 0.2333(4) 0.23876(13)
O27 O 0.7667(4) 0.1491(3) 0.23876(13)
Nd5_2 Nd 0.3334 0.6666 0.6666
N7_2 N 0.2035(3) 0.4646(3) 0.73515(13)
O10_2 O 0.2634(2) 0.4652(2) 0.69757(11)
O11_2 O 0.2038(2) 0.5538(2) 0.74348(11)
O12_2 O 0.1491(3) 0.3823(3) 0.76124(13)
O13_2 O 0.5348(2) 0.7981(3) 0.69757(11)
O14_2 O 0.2019(3) 0.7366(2) 0.69757(11)
O15_2 O 0.4033(2) 0.8681(2) 0.63576(11)
O16_2 O 0.1319(2) 0.5352(3) 0.63576(11)
O17_2 O 0.4648(3) 0.5967(2) 0.63576(11)
O18_2 O 0.4462(2) 0.6499(3) 0.74348(11)
O19_2 O 0.3501(3) 0.7962(2) 0.74348(11)
O20_2 O 0.4629(2) 0.7795(2) 0.58985(11)
O21_2 O 0.2205(2) 0.6834(3) 0.58985(11)
O22_2 O 0.3166(3) 0.5371(2) 0.58985(11)
N8_2 N 0.5354(3) 0.7388(4) 0.73515(13)
N9_2 N 0.2612(4) 0.7965(3) 0.73515(13)
N10_2 N 0.4632(3) 0.8687(3) 0.59818(13)
N11_2 N 0.1313(3) 0.5945(4) 0.59818(13)
N12_2 N 0.4055(4) 0.5368(3) 0.59818(13)
O23_2 O 0.6177(3) 0.7667(4) 0.76124(13)
O24_2 O 0.2333(4) 0.8509(3) 0.76124(13)
O25_2 O 0.5176(3) 0.9510(3) 0.57209(13)
O26_2 O 0.0490(3) 0.5666(4) 0.57209(13)
O27_2 O 0.4334(4) 0.4824(3) 0.57209(13)
Nd5_3 Nd 0.0000 -0.0000 -0.0000
O13_3 O 0.2014(2) 0.1315(3) 0.03091(11)
O19_3 O 0.0167(3) 0.1296(2) 0.07682(11)
N8_3 N 0.2020(3) 0.0722(4) 0.06849(13)
O23_3 O 0.2843(3) 0.1001(4) 0.09458(13)
Nd5_4 Nd 0.0000 -0.0000 1.0000
O15_3 O 0.0700(2) 0.2014(2) 0.96909(11)
O20_3 O 0.1296(2) 0.1128(2) 0.92318(11)
N10_3 N 0.1299(3) 0.2020(3) 0.93151(13)
O25_3 O 0.1843(3) 0.2843(3) 0.90542(13)
Nd5_5 Nd 0.0000 1.0000 -0.0000
O18_3 O 0.1128(2) 0.9833(3) 0.07682(11)
Nd5_6 Nd 0.0000 1.0000 1.0000
O17_3 O 0.1315(3) 0.9300(2) 0.96909(11)
N12_3 N 0.0722(4) 0.8701(3) 0.93151(13)
O27_3 O 0.1001(4) 0.8157(3) 0.90542(13)
Nd5_7 Nd 1.0000 -0.0000 -0.0000
O14_3 O 0.8685(3) 0.0700(2) 0.03091(11)
N9_3 N 0.9278(4) 0.1299(3) 0.06849(13)
O24_3 O 0.8999(4) 0.1843(3) 0.09458(13)
Nd5_8 Nd 1.0000 -0.0000 1.0000
O21_3 O 0.8872(2) 0.0167(3) 0.92318(11)
Nd5_9 Nd 1.0000 1.0000 -0.0000
N7_3 N 0.8701(3) 0.7980(3) 0.06849(13)
O10_3 O 0.9300(2) 0.7986(2) 0.03091(11)
O11_3 O 0.8704(2) 0.8872(2) 0.07682(11)
O12_3 O 0.8157(3) 0.7157(3) 0.09458(13)
Nd5_10 Nd 1.0000 1.0000 1.0000
O16_3 O 0.7986(2) 0.8685(3) 0.96909(11)
O22_3 O 0.9833(3) 0.8704(2) 0.92318(11)
N11_3 N 0.7980(3) 0.9278(4) 0.93151(13)
O26_3 O 0.7157(3) 0.8999(4) 0.90542(13)
loop_
_geom_bond_atom_site_label_1
_geom_bond_atom_site_label_2
_geom_bond_site_symmetry_1
_geom_bond_site_symmetry_2
Nd1 O1 1_555 1_555
O1 C1 1_555 1_555
C1 C2 1_555 1_555
C2 H1 1_555 1_555
H2 C2 1_555 1_555
H3 C2 1_555 1_555
N1 C1 1_555 1_555
H4 N1 1_555 1_555
C3 N1 1_555 1_555
H5 C3 1_555 1_555
H6 C3 1_555 1_555
O6 Nd1 1_555 1_555
H7 C4 1_555 1_555
H8 C4 1_555 1_555
C5 C4 1_555 1_555
H9 C5 1_555 1_555
H10 C5 1_555 1_555
O5 Nd1_2 1_555 1_555
C6 C5 1_555 1_555
C9 C6 1_555 1_555
H11 C6 1_555 1_555
H12 C6 1_555 1_555
C12 C9 1_555 1_555
H13 C9 1_555 1_555
H14 C9 1_555 1_555
N4 C12 1_555 1_555
H23 C12 1_555 1_555
H24 C12 1_555 1_555
C17 N4 1_555 1_555
O7 C17 1_555 1_555
C20 C17 1_555 1_555
Nd2 O7 1_555 1_555
H54 C20 1_555 1_555
O2 Nd1_3 1_555 1_555
H32 C16 1_555 1_555
H33 C16 1_555 1_555
C19 C16 1_555 1_555
C26 C19 1_555 1_555
H43 C19 1_555 1_555
H44 C19 1_555 1_555
C27 C26 1_555 1_555
H45 C26 1_555 1_555
H46 C26 1_555 1_555
C28 C27 1_555 1_555
H47 C27 1_555 1_555
H48 C27 1_555 1_555
N6 C28 1_555 1_555
H49 C28 1_555 1_555
H50 C28 1_555 1_555
C29 N6 1_555 1_555
O9 C29 1_555 1_555
C30 C29 1_555 1_555
Nd4 O9 1_555 1_555
H60 C30 1_555 1_555
O3 Nd1_4 1_555 1_555
O4 Nd1_4 1_555 1_555
C7 O3 1_555 1_555
C8 O4 1_555 1_555
C10 C7 1_555 1_555
N2 C7 1_555 1_555
C11 C8 1_555 1_555
N3 C8 1_555 1_555
H15 C10 1_555 1_555
H16 C10 1_555 1_555
H18 N2 1_555 1_555
C13 N2 1_555 1_555
H19 C11 1_555 1_555
H20 C11 1_555 1_555
H21 C11 1_555 1_555
H22 N3 1_555 1_555
C14 N3 1_555 1_555
H25 C13 1_555 1_555
H26 C13 1_555 1_555
C15 C13 1_555 1_555
H27 C14 1_555 1_555
H28 C14 1_555 1_555
H30 C15 1_555 1_555
H31 C15 1_555 1_555
C18 C15 1_555 1_555
C21 C18 1_555 1_555
H34 C18 1_555 1_555
H35 C18 1_555 1_555
C22 C21 1_555 1_555
H36 C21 1_555 1_555
H37 C21 1_555 1_555
C23 C22 1_555 1_555
H38 C22 1_555 1_555
H39 C22 1_555 1_555
N5 C23 1_555 1_555
H40 C23 1_555 1_555
H41 C23 1_555 1_555
C24 N5 1_555 1_555
O8 C24 1_555 1_555
C25 C24 1_555 1_555
Nd2 O8 1_555 1_555
H57 C25 1_555 1_555
H7_2 C4_2 1_555 1_555
H8_2 C4_2 1_555 1_555
C5_2 C4_2 1_555 1_555
H9_2 C5_2 1_555 1_555
H10_2 C5_2 1_555 1_555
C6_2 C5_2 1_555 1_555
C9_2 C6_2 1_555 1_555
H11_2 C6_2 1_555 1_555
H12_2 C6_2 1_555 1_555
C12_2 C9_2 1_555 1_555
H13_2 C9_2 1_555 1_555
H14_2 C9_2 1_555 1_555
N4_2 C12_2 1_555 1_555
H23_2 C12_2 1_555 1_555
H24_2 C12_2 1_555 1_555
C17_2 N4_2 1_555 1_555
H29_2 N4_2 1_555 1_555
O7_2 C17_2 1_555 1_555
C20_2 C17_2 1_555 1_555
Nd2 O7_2 1_555 1_555
H52_2 C20_2 1_555 1_555
H53_2 C20_2 1_555 1_555
H54_2 C20_2 1_555 1_555
C8_2 O5 1_555 1_555
C11_2 C8_2 1_555 1_555
N3_2 C8_2 1_555 1_555
H19_2 C11_2 1_555 1_555
H20_2 C11_2 1_555 1_555
H22_2 N3_2 1_555 1_555
C14_2 N3_2 1_555 1_555
H27_2 C14_2 1_555 1_555
H28_2 C14_2 1_555 1_555
O2 C1_2 1_555 1_555
C1_2 C2_2 1_555 1_555
C2_2 H1_2 1_555 1_555
H2_2 C2_2 1_555 1_555
N1_2 C1_2 1_555 1_555
H4_2 N1_2 1_555 1_555
C3_2 N1_2 1_555 1_555
H5_2 C3_2 1_555 1_555
H6_2 C3_2 1_555 1_555
H32_2 C16_2 1_555 1_555
H33_2 C16_2 1_555 1_555
C19_2 C16_2 1_555 1_555
C26_2 C19_2 1_555 1_555
H43_2 C19_2 1_555 1_555
H44_2 C19_2 1_555 1_555
C27_2 C26_2 1_555 1_555
H45_2 C26_2 1_555 1_555
H46_2 C26_2 1_555 1_555
C28_2 C27_2 1_555 1_555
H47_2 C27_2 1_555 1_555
H48_2 C27_2 1_555 1_555
N6_2 C28_2 1_555 1_555
H49_2 C28_2 1_555 1_555
H50_2 C28_2 1_555 1_555
C29_2 N6_2 1_555 1_555
H51_2 N6_2 1_555 1_555
O9_2 C29_2 1_555 1_555
C30_2 C29_2 1_555 1_555
Nd4 O9_2 1_555 1_555
H58_2 C30_2 1_555 1_555
H59_2 C30_2 1_555 1_555
H60_2 C30_2 1_555 1_555
C8_3 O6 1_555 1_555
C11_3 C8_3 1_555 1_555
N3_3 C8_3 1_555 1_555
H19_3 C11_3 1_555 1_555
H20_3 C11_3 1_555 1_555
H22_3 N3_3 1_555 1_555
C14_3 N3_3 1_555 1_555
H27_3 C14_3 1_555 1_555
H28_3 C14_3 1_555 1_555
C16_3 C14_3 1_555 1_555
H32_3 C16_3 1_555 1_555
H33_3 C16_3 1_555 1_555
C19_3 C16_3 1_555 1_555
C26_3 C19_3 1_555 1_555
H43_3 C19_3 1_555 1_555
H44_3 C19_3 1_555 1_555
C27_3 C26_3 1_555 1_555
H45_3 C26_3 1_555 1_555
H46_3 C26_3 1_555 1_555
C28_3 C27_3 1_555 1_555
H47_3 C27_3 1_555 1_555
H48_3 C27_3 1_555 1_555
N6_3 C28_3 1_555 1_555
H49_3 C28_3 1_555 1_555
H50_3 C28_3 1_555 1_555
C29_3 N6_3 1_555 1_555
O9_3 C29_3 1_555 1_555
C30_3 C29_3 1_555 1_555
Nd4 O9_3 1_555 1_555
H60_3 C30_3 1_555 1_555
H43_4 C19_4 1_555 1_555
H44_4 C19_4 1_555 1_555
C28_4 C27_4 1_555 1_555
H47_4 C27_4 1_555 1_555
H48_4 C27_4 1_555 1_555
N6_4 C28_4 1_555 1_555
H50_4 C28_4 1_555 1_555
C29_4 N6_4 1_555 1_555
H51_4 N6_4 1_555 1_555
O9_4 C29_4 1_555 1_555
C30_4 C29_4 1_555 1_555
Nd2 O9_4 1_555 1_555
H58_4 C30_4 1_555 1_555
H59_4 C30_4 1_555 1_555
H60_4 C30_4 1_555 1_555
O4_2 Nd4 1_555 1_555
O5_2 Nd4 1_555 1_555
O6_2 Nd4 1_555 1_555
C8_4 O4_2 1_555 1_555
C11_4 C8_4 1_555 1_555
N3_4 C8_4 1_555 1_555
H19_4 C11_4 1_555 1_555
H20_4 C11_4 1_555 1_555
H21_4 C11_4 1_555 1_555
H22_4 N3_4 1_555 1_555
C14_4 N3_4 1_555 1_555
H28_4 C14_4 1_555 1_555
C16_4 C14_4 1_555 1_555
H32_4 C16_4 1_555 1_555
H33_4 C16_4 1_555 1_555
H45_4 C26_4 1_555 1_555
H46_4 C26_4 1_555 1_555
H43_5 C19_5 1_555 1_555
H44_5 C19_5 1_555 1_555
C8_5 O5_2 1_555 1_555
C11_5 C8_5 1_555 1_555
N3_5 C8_5 1_555 1_555
H19_5 C11_5 1_555 1_555
H20_5 C11_5 1_555 1_555
H21_5 C11_5 1_555 1_555
H22_5 N3_5 1_555 1_555
C14_5 N3_5 1_555 1_555
H28_5 C14_5 1_555 1_555
C16_5 C14_5 1_555 1_555
H32_5 C16_5 1_555 1_555
H33_5 C16_5 1_555 1_555
C28_5 C27_5 1_555 1_555
H47_5 C27_5 1_555 1_555
H48_5 C27_5 1_555 1_555
N6_5 C28_5 1_555 1_555
H50_5 C28_5 1_555 1_555
C29_5 N6_5 1_555 1_555
H51_5 N6_5 1_555 1_555
O9_5 C29_5 1_555 1_555
C30_5 C29_5 1_555 1_555
Nd2 O9_5 1_555 1_555
H58_5 C30_5 1_555 1_555
H59_5 C30_5 1_555 1_555
H60_5 C30_5 1_555 1_555
H45_5 C26_5 1_555 1_555
H46_5 C26_5 1_555 1_555
C28_6 C27_6 1_555 1_555
H47_6 C27_6 1_555 1_555
H48_6 C27_6 1_555 1_555
N6_6 C28_6 1_555 1_555
H50_6 C28_6 1_555 1_555
C29_6 N6_6 1_555 1_555
H51_6 N6_6 1_555 1_555
O9_6 C29_6 1_555 1_555
C30_6 C29_6 1_555 1_555
Nd2 O9_6 1_555 1_555
H58_6 C30_6 1_555 1_555
H59_6 C30_6 1_555 1_555
H60_6 C30_6 1_555 1_555
H45_6 C26_6 1_555 1_555
H46_6 C26_6 1_555 1_555
H43_6 C19_6 1_555 1_555
H44_6 C19_6 1_555 1_555
C8_6 O6_2 1_555 1_555
C11_6 C8_6 1_555 1_555
N3_6 C8_6 1_555 1_555
H19_6 C11_6 1_555 1_555
H20_6 C11_6 1_555 1_555
H21_6 C11_6 1_555 1_555
H22_6 N3_6 1_555 1_555
C14_6 N3_6 1_555 1_555
H28_6 C14_6 1_555 1_555
C16_6 C14_6 1_555 1_555
H32_6 C16_6 1_555 1_555
H33_6 C16_6 1_555 1_555
Nd5 O10 1_555 1_555
N7 O10 1_555 1_555
O11 Nd5 1_555 1_555
O12 N7 1_555 1_555
O13 Nd5 1_555 1_555
O14 Nd5 1_555 1_555
O15 Nd5 1_555 1_555
O16 Nd5 1_555 1_555
O17 Nd5 1_555 1_555
O18 Nd5 1_555 1_555
O19 Nd5 1_555 1_555
O20 Nd5 1_555 1_555
O21 Nd5 1_555 1_555
O22 Nd5 1_555 1_555
N8 O13 1_555 1_555
N9 O14 1_555 1_555
N10 O15 1_555 1_555
N11 O16 1_555 1_555
N12 O17 1_555 1_555
O23 N8 1_555 1_555
O24 N9 1_555 1_555
O25 N10 1_555 1_555
O26 N11 1_555 1_555
O27 N12 1_555 1_555
N7 O11 1_555 1_555
O18 N8 1_555 1_555
O19 N9 1_555 1_555
O20 N10 1_555 1_555
O21 N11 1_555 1_555
O22 N12 1_555 1_555
Nd5_2 O10_2 1_555 1_555
N7_2 O10_2 1_555 1_555
O11_2 Nd5_2 1_555 1_555
O12_2 N7_2 1_555 1_555
O13_2 Nd5_2 1_555 1_555
O14_2 Nd5_2 1_555 1_555
O15_2 Nd5_2 1_555 1_555
O16_2 Nd5_2 1_555 1_555
O17_2 Nd5_2 1_555 1_555
O18_2 Nd5_2 1_555 1_555
O19_2 Nd5_2 1_555 1_555
O20_2 Nd5_2 1_555 1_555
O21_2 Nd5_2 1_555 1_555
O22_2 Nd5_2 1_555 1_555
N8_2 O13_2 1_555 1_555
N9_2 O14_2 1_555 1_555
N10_2 O15_2 1_555 1_555
N11_2 O16_2 1_555 1_555
N12_2 O17_2 1_555 1_555
O23_2 N8_2 1_555 1_555
O24_2 N9_2 1_555 1_555
O25_2 N10_2 1_555 1_555
O26_2 N11_2 1_555 1_555
O27_2 N12_2 1_555 1_555
N7_2 O11_2 1_555 1_555
O18_2 N8_2 1_555 1_555
O19_2 N9_2 1_555 1_555
O20_2 N10_2 1_555 1_555
O21_2 N11_2 1_555 1_555
O22_2 N12_2 1_555 1_555
O13_3 Nd5_3 1_555 1_555
O19_3 Nd5_3 1_555 1_555
N8_3 O13_3 1_555 1_555
O23_3 N8_3 1_555 1_555
O15_3 Nd5_4 1_555 1_555
O20_3 Nd5_4 1_555 1_555
N10_3 O15_3 1_555 1_555
O25_3 N10_3 1_555 1_555
O20_3 N10_3 1_555 1_555
O18_3 Nd5_5 1_555 1_555
O17_3 Nd5_6 1_555 1_555
N12_3 O17_3 1_555 1_555
O27_3 N12_3 1_555 1_555
O14_3 Nd5_7 1_555 1_555
N9_3 O14_3 1_555 1_555
O24_3 N9_3 1_555 1_555
O21_3 Nd5_8 1_555 1_555
Nd5_9 O10_3 1_555 1_555
N7_3 O10_3 1_555 1_555
O11_3 Nd5_9 1_555 1_555
O12_3 N7_3 1_555 1_555
N7_3 O11_3 1_555 1_555
O16_3 Nd5_10 1_555 1_555
O22_3 Nd5_10 1_555 1_555
N11_3 O16_3 1_555 1_555
O26_3 N11_3 1_555 1_555

#END
