
###############################################################################
#
# This file contains modified crystal structure data generated from the
# MOF subset of the Cambridge Structural Database (CSD) v543 
# hosted by the Cambridge Crystallographic Data Centre (CCDC).
#
# This work is licensed under the Creative Commons
# Attribution-NonCommercial-ShareAlike 4.0 International License.
# To view a copy of this license, visit
# http://creativecommons.org/licenses/by-nc-sa/4.0/
# or send a letter to
# Creative Commons, PO Box 1866, Mountain View, CA 94042, USA.
#
# CIF created using the CSD Python API on 29 September 2022
# The structure has been converted into the P1 space group
# The structure has a 3D framework
# The original CSD entry QAZFEG is in the rhombohedral crystal system
# The framework has been calculated to contain at least 10.0% void space
# The void calculation uses a probe of radius 1.32A, grid spacing 0.4
# The framework is charged, counterions have been retained in the structure
#
###############################################################################

data_QAZFEG
_chemical_formula_moiety         '(C498 H166 O318 Zn52 48-)n'
_symmetry_cell_setting           triclinic
_symmetry_space_group_name_H-M   'P 1'
_symmetry_Int_Tables_number      1
_space_group_name_Hall           'P 1'
loop_
_symmetry_equiv_pos_site_id
_symmetry_equiv_pos_as_xyz
1 x,y,z
_cell_length_a                   43.1977(14)
_cell_length_b                   43.1977(14)
_cell_length_c                   17.4465(6)
_cell_angle_alpha                90
_cell_angle_beta                 90
_cell_angle_gamma                120
_cell_volume                     28194.2
loop_
_atom_site_label
_atom_site_type_symbol
_atom_site_fract_x
_atom_site_fract_y
_atom_site_fract_z
Zn1 Zn 0.666667 0.59210(2) 0.583333
Zn2 Zn 0.81950(2) 0.50488(2) 0.67351(2)
O1 O 0.69567(9) 0.57862(9) 0.52177(17)
O2 O 0.72301(13) 0.57318(14) 0.6233(2)
O3 O 0.78600(8) 0.50566(9) 0.60314(15)
O4 O 0.79682(8) 0.49156(9) 0.48675(16)
O5 O 0.71471(11) 0.48564(14) 0.27605(19)
O6 O 0.69882(10) 0.52410(11) 0.27730(18)
C1 C 0.72656(13) 0.54677(12) 0.5097(2)
C2 C 0.74731(12) 0.53407(12) 0.5401(2)
H1 H 0.754432 0.538914 0.592232
C3 C 0.75810(11) 0.51451(11) 0.49708(19)
C4 C 0.74645(12) 0.50626(12) 0.4217(2)
H2 H 0.753646 0.492536 0.391904
C5 C 0.72458(12) 0.51759(12) 0.3891(2)
C6 C 0.71549(12) 0.53855(12) 0.4319(2)
H3 H 0.701663 0.547677 0.409277
C7 C 0.71459(15) 0.56771(14) 0.5574(3)
C8 C 0.78192(12) 0.50304(11) 0.5305(2)
C9 C 0.71179(15) 0.50929(16) 0.3085(3)
O7 O 0.68021(10) 0.62729(10) 0.66382(18)
O8 O 0.72801(11) 0.66540(11) 0.5992(3)
O9 O 0.80220(10) 0.78797(9) 0.69570(17)
C10 C 0.71086(13) 0.68773(12) 0.7020(2)
C11 C 0.74192(13) 0.71959(13) 0.7015(2)
H4 H 0.760327 0.722849 0.666960
C12 C 0.74766(14) 0.74766(14) 0.750000
C13 C 0.68384(15) 0.68384(15) 0.750000
H5 H 0.661850 0.661849 0.750000
C14 C 0.70650(17) 0.65777(17) 0.6511(3)
C15 C 0.78135(16) 0.78135(16) 0.750000
O10 O 0.62729(10) 0.68021(10) 0.83618(18)
O11 O 0.66540(11) 0.72801(11) 0.9008(3)
O12 O 0.78797(9) 0.80220(10) 0.80430(17)
C16 C 0.68773(12) 0.71086(13) 0.7980(2)
C17 C 0.71959(13) 0.74192(13) 0.7985(2)
H6 H 0.722849 0.760327 0.833040
C18 C 0.65777(17) 0.70650(17) 0.8489(3)
Zn3 Zn 0.51383(2) 0.35205(3) 0.49316(2)
O13 O 0.63766(9) 0.54962(13) 0.64490(17)
O14 O 0.61032(13) 0.51684(19) 0.5434(2)
O15 O 0.54733(8) 0.38633(12) 0.56353(15)
O16 O 0.53651(8) 0.36141(12) 0.67992(16)
O17 O 0.61862(11) 0.43760(18) 0.89062(19)
O18 O 0.63451(10) 0.49195(15) 0.88937(18)
C19 C 0.60677(13) 0.48688(18) 0.6570(2)
C20 C 0.58602(12) 0.45343(17) 0.6266(2)
H7 H 0.578901 0.451149 0.574435
C21 C 0.57523(11) 0.42308(16) 0.66959(19)
C22 C 0.58688(12) 0.42648(17) 0.7450(2)
H8 H 0.579687 0.405557 0.774763
C23 C 0.60875(12) 0.45968(17) 0.7776(2)
C24 C 0.61784(12) 0.48973(17) 0.7348(2)
H9 H 0.631670 0.512681 0.757390
C25 C 0.61874(15) 0.51979(21) 0.6093(3)
C26 C 0.55141(12) 0.38779(16) 0.6362(2)
C27 C 0.62154(15) 0.46417(22) 0.8582(3)
Zn4 Zn 0.59210(2) 0.666667 0.916667
Zn5 Zn 0.49512(2) 0.31462(3) 0.67351(2)
Zn6 Zn 0.83821(2) 0.48617(2) 0.49316(2)
Zn7 Zn 0.68538(3) 0.50488(2) 0.17351(2)
Zn8 Zn 0.84717(2) 0.82845(2) 0.65982(2)
Zn9 Zn 0.64795(3) 0.48617(2) 0.99316(2)
Zn10 Zn 0.82845(2) 0.84717(2) 0.84018(2)
O19 O 0.50844(9) 0.30526(12) 0.48675(16)
O20 O 0.82489(9) 0.46349(8) 0.67992(16)
O21 O 0.77093(18) 0.48564(14) 0.77605(19)
O22 O 0.56240(18) 0.38138(11) 0.39062(19)
O23 O 0.82528(15) 0.52410(11) 0.77730(18)
O24 O 0.50805(15) 0.36549(10) 0.38937(18)
O25 O 0.65312(10) 0.61375(14) 0.50285(18)
O26 O 0.86447(10) 0.54536(9) 0.63763(17)
O27 O 0.46887(10) 0.34756(13) 0.52903(17)
Zn1_2 Zn 0.40790(2) 0.074567(20) 0.583333
O1_2 O 0.42138(9) 0.11705(13) 0.52177(17)
O2_2 O 0.42682(14) 0.14983(19) 0.6233(2)
O3_2 O 0.49434(9) 0.28034(12) 0.60314(15)
O5_2 O 0.51436(14) 0.22907(18) 0.27605(19)
O6_2 O 0.47590(11) 0.17472(15) 0.27730(18)
C1_2 C 0.45323(12) 0.17979(18) 0.5097(2)
C2_2 C 0.46593(12) 0.21324(17) 0.5401(2)
H1_2 H 0.461086 0.215518 0.592232
C3_2 C 0.48549(11) 0.24359(16) 0.49708(19)
C4_2 C 0.49374(12) 0.24019(17) 0.4217(2)
H2_2 H 0.507464 0.261110 0.391904
C5_2 C 0.48241(12) 0.20699(17) 0.3891(2)
C6_2 C 0.46145(12) 0.17694(17) 0.4319(2)
H3_2 H 0.452323 0.153986 0.409277
C7_2 C 0.43229(14) 0.14688(21) 0.5574(3)
C8_2 C 0.49696(11) 0.27888(16) 0.5305(2)
C9_2 C 0.49071(16) 0.20250(22) 0.3085(3)
O7_2 O 0.37271(10) 0.05292(14) 0.66382(18)
O8_2 O 0.33460(11) 0.06261(16) 0.5992(3)
O9_2 O 0.21203(9) 0.01423(13) 0.69570(17)
C10_2 C 0.31227(12) 0.02313(18) 0.7020(2)
C11_2 C 0.28041(13) 0.02233(18) 0.7015(2)
H4_2 H 0.277151 0.037478 0.666960
C12_2 C 0.25234(14) -0.00000(20) 0.750000
C13_2 C 0.31616(15) -0.00000(21) 0.750000
H5_2 H 0.338151 0.000001 0.750000
C14_2 C 0.34223(17) 0.04873(24) 0.6511(3)
C15_2 C 0.21865(16) -0.00000(23) 0.750000
Zn3_2 Zn 0.64795(3) 0.16179(4) 0.49316(2)
O13_2 O 0.45038(13) 0.08805(16) 0.64490(17)
O14_2 O 0.48316(19) 0.09349(23) 0.5434(2)
O15_2 O 0.61367(12) 0.16101(14) 0.56353(15)
O16_2 O 0.63859(12) 0.17511(14) 0.67992(16)
O17_2 O 0.56240(18) 0.18103(21) 0.89062(19)
O18_2 O 0.50805(15) 0.14257(18) 0.88937(18)
C19_2 C 0.51312(18) 0.11990(22) 0.6570(2)
C20_2 C 0.54657(17) 0.13260(21) 0.6266(2)
H7_2 H 0.548851 0.127753 0.574435
C21_2 C 0.57692(16) 0.15216(19) 0.66959(19)
C22_2 C 0.57352(17) 0.16041(21) 0.7450(2)
H8_2 H 0.594443 0.174131 0.774763
C23_2 C 0.54032(17) 0.14908(21) 0.7776(2)
C24_2 C 0.51027(17) 0.12812(21) 0.7348(2)
H9_2 H 0.487319 0.118990 0.757390
C25_2 C 0.48021(21) 0.09896(26) 0.6093(3)
C26_2 C 0.61221(16) 0.16363(20) 0.6362(2)
C27_2 C 0.53583(22) 0.15738(27) 0.8582(3)
Zn5_2 Zn 0.68538(3) 0.18050(4) 0.67351(2)
Zn7_2 Zn 0.49512(2) 0.18050(4) 0.17351(2)
Zn8_2 Zn 0.17155(2) 0.01871(3) 0.65982(2)
Zn9_2 Zn 0.51383(2) 0.16179(4) 0.99316(2)
O19_2 O 0.69474(12) 0.20318(15) 0.48675(16)
O21_2 O 0.51436(14) 0.28529(23) 0.77605(19)
O22_2 O 0.61862(11) 0.18103(21) 0.39062(19)
O23_2 O 0.47590(11) 0.30118(19) 0.77730(18)
O24_2 O 0.63451(10) 0.14257(18) 0.38937(18)
O25_2 O 0.38625(14) 0.03938(17) 0.50285(18)
O26_2 O 0.45464(9) 0.31910(13) 0.63763(17)
O27_2 O 0.65244(13) 0.12130(16) 0.52903(17)
C12_3 C 0.25234(14) 1.00000(20) 0.750000
C13_3 C 0.31616(15) 1.00000(21) 0.750000
H5_3 H 0.338151 1.000001 0.750000
C15_3 C 0.21865(16) 1.00000(23) 0.750000
O10_2 O 0.31979(10) 0.94708(14) 0.83618(18)
O11_2 O 0.27199(11) 0.93739(16) 0.9008(3)
O12_2 O 0.19780(10) 0.98577(13) 0.80430(17)
C16_2 C 0.28914(13) 0.97687(18) 0.7980(2)
C17_2 C 0.25808(13) 0.97767(18) 0.7985(2)
H6_2 H 0.239673 0.962522 0.833040
C18_2 C 0.29350(17) 0.95127(24) 0.8489(3)
Zn4_2 Zn 0.333333 0.925433(20) 0.916667
Zn10_2 Zn 0.15283(2) 0.98129(3) 0.84018(2)
C12_4 C 0.00000(20) 0.25234(14) 0.750000
C13_4 C 0.00000(21) 0.31616(15) 0.750000
H5_4 H -0.000001 0.338150 0.750000
C15_4 C 0.00000(23) 0.21865(16) 0.750000
O10_3 O 0.05292(14) 0.37271(10) 0.83618(18)
O11_3 O 0.06261(16) 0.33460(11) 0.9008(3)
O12_3 O 0.01423(13) 0.21203(9) 0.80430(17)
C16_3 C 0.02313(18) 0.31227(12) 0.7980(2)
C17_3 C 0.02233(18) 0.28041(13) 0.7985(2)
H6_3 H 0.037478 0.277151 0.833040
C18_3 C 0.04873(24) 0.34223(17) 0.8489(3)
Zn4_3 Zn 0.074567(20) 0.40790(2) 0.916667
Zn10_3 Zn 0.01871(3) 0.17155(2) 0.84018(2)
Zn1_3 Zn 0.925433(20) 0.333333 0.583333
O1_3 O 0.88295(13) 0.30433(9) 0.52177(17)
O2_3 O 0.85017(19) 0.27699(13) 0.6233(2)
O3_3 O 0.71966(12) 0.21400(8) 0.60314(15)
O5_3 O 0.77093(18) 0.28529(11) 0.27605(19)
O6_3 O 0.82528(15) 0.30118(10) 0.27730(18)
C1_3 C 0.82021(18) 0.27344(13) 0.5097(2)
C2_3 C 0.78676(17) 0.25269(12) 0.5401(2)
H1_3 H 0.784482 0.245568 0.592232
C3_3 C 0.75641(16) 0.24190(11) 0.49708(19)
C4_3 C 0.75981(17) 0.25355(12) 0.4217(2)
H2_3 H 0.738890 0.246354 0.391904
C5_3 C 0.79301(17) 0.27542(12) 0.3891(2)
C6_3 C 0.82306(17) 0.28451(12) 0.4319(2)
H3_3 H 0.846014 0.298337 0.409277
C7_3 C 0.85312(21) 0.28541(15) 0.5574(3)
C8_3 C 0.72112(16) 0.21808(12) 0.5305(2)
C9_3 C 0.79750(22) 0.28821(15) 0.3085(3)
O7_3 O 0.94708(14) 0.31979(10) 0.66382(18)
O8_3 O 0.93739(16) 0.27199(11) 0.5992(3)
O9_3 O 0.98577(13) 0.19780(10) 0.69570(17)
C10_3 C 0.97687(18) 0.28914(13) 0.7020(2)
C11_3 C 0.97767(18) 0.25808(13) 0.7015(2)
H4_3 H 0.962522 0.239673 0.666960
C12_5 C 1.00000(20) 0.25234(14) 0.750000
C13_5 C 1.00000(21) 0.31616(15) 0.750000
H5_5 H 0.999999 0.338150 0.750000
C14_3 C 0.95127(24) 0.29350(17) 0.6511(3)
C15_5 C 1.00000(23) 0.21865(16) 0.750000
O13_3 O 0.91195(16) 0.36234(9) 0.64490(17)
O14_3 O 0.90651(23) 0.38968(13) 0.5434(2)
O15_3 O 0.83899(14) 0.45267(8) 0.56353(15)
O17_3 O 0.81897(21) 0.38138(11) 0.89062(19)
O18_3 O 0.85743(18) 0.36549(10) 0.88937(18)
C19_3 C 0.88010(22) 0.39323(13) 0.6570(2)
C20_3 C 0.86740(21) 0.41398(12) 0.6266(2)
H7_3 H 0.872247 0.421099 0.574435
C21_3 C 0.84784(19) 0.42477(11) 0.66959(19)
C22_3 C 0.83959(21) 0.41312(12) 0.7450(2)
H8_3 H 0.825869 0.420313 0.774763
C23_3 C 0.85092(21) 0.39125(12) 0.7776(2)
C24_3 C 0.87188(21) 0.38216(12) 0.7348(2)
H9_3 H 0.881010 0.368330 0.757390
C25_3 C 0.90104(26) 0.38126(15) 0.6093(3)
C26_3 C 0.83637(20) 0.44859(12) 0.6362(2)
C27_3 C 0.84262(27) 0.37846(15) 0.8582(3)
Zn7_3 Zn 0.81950(4) 0.31462(3) 0.17351(2)
Zn8_3 Zn 0.98129(3) 0.15283(2) 0.65982(2)
Zn9_3 Zn 0.83821(4) 0.35205(3) 0.99316(2)
O21_3 O 0.71471(23) 0.22907(18) 0.77605(19)
O22_3 O 0.81897(21) 0.43760(18) 0.39062(19)
O23_3 O 0.69882(19) 0.17472(15) 0.77730(18)
O24_3 O 0.85743(18) 0.49195(15) 0.38937(18)
O25_3 O 0.96062(17) 0.34688(10) 0.50285(18)
O26_3 O 0.68090(13) 0.13553(10) 0.63763(17)
O27_3 O 0.87870(16) 0.53113(10) 0.52903(17)
O4_2 O 0.49156(9) 0.79682(8) 0.01325(16)
O5_4 O 0.48564(14) 0.71471(11) 0.22395(19)
O6_4 O 0.52410(11) 0.69882(10) 0.22270(18)
C3_4 C 0.51451(11) 0.75810(11) 0.00292(19)
C4_4 C 0.50626(12) 0.74645(12) 0.0783(2)
H2_4 H 0.492536 0.753646 0.108096
C5_4 C 0.51759(12) 0.72458(12) 0.1109(2)
C6_4 C 0.53855(12) 0.71549(12) 0.0681(2)
H3_4 H 0.547677 0.701663 0.090723
C9_4 C 0.50929(16) 0.71179(15) 0.1915(3)
Zn3_3 Zn 0.35205(3) 0.51383(2) 0.00684(2)
Zn6_2 Zn 0.48617(2) 0.83821(2) 0.00684(2)
Zn7_4 Zn 0.50488(2) 0.68538(3) 0.32649(2)
O19_3 O 0.30526(12) 0.50844(9) 0.01325(16)
O22_4 O 0.38138(11) 0.56240(18) 0.10938(19)
O24_4 O 0.36549(10) 0.50805(15) 0.11063(18)
Zn2_2 Zn 0.50488(2) 0.81950(2) 0.82649(2)
O1_4 O 0.57862(9) 0.69567(9) 0.97823(17)
O2_4 O 0.57318(14) 0.72301(13) 0.8767(2)
O3_4 O 0.50566(9) 0.78600(8) 0.89686(15)
C1_4 C 0.54677(12) 0.72656(13) 0.9903(2)
C2_4 C 0.53407(12) 0.74731(12) 0.9599(2)
H1_4 H 0.538914 0.754432 0.907768
C7_4 C 0.56771(14) 0.71459(15) 0.9426(3)
C8_4 C 0.50304(11) 0.78192(12) 0.9695(2)
O13_4 O 0.54962(13) 0.63766(9) 0.85510(17)
O14_4 O 0.51684(19) 0.61032(13) 0.9566(2)
O15_4 O 0.38633(12) 0.54733(8) 0.93647(15)
O16_3 O 0.36141(12) 0.53651(8) 0.82008(16)
O17_4 O 0.43760(18) 0.61862(11) 0.60938(19)
O18_4 O 0.49195(15) 0.63451(10) 0.61063(18)
C19_4 C 0.48688(18) 0.60677(13) 0.8430(2)
C20_4 C 0.45343(17) 0.58602(12) 0.8734(2)
H7_4 H 0.451149 0.578901 0.925565
C21_4 C 0.42308(16) 0.57523(11) 0.83041(19)
C22_4 C 0.42648(17) 0.58688(12) 0.7550(2)
H8_4 H 0.405557 0.579687 0.725237
C23_4 C 0.45968(17) 0.60875(12) 0.7224(2)
C24_4 C 0.48973(17) 0.61784(12) 0.7652(2)
H9_4 H 0.512681 0.631670 0.742610
C25_4 C 0.51979(21) 0.61874(15) 0.8907(3)
C26_4 C 0.38779(16) 0.55141(12) 0.8638(2)
C27_4 C 0.46417(22) 0.62154(15) 0.6418(3)
Zn5_3 Zn 0.31462(3) 0.49512(2) 0.82649(2)
Zn9_4 Zn 0.48617(2) 0.64795(3) 0.50684(2)
O20_2 O 0.46349(8) 0.82489(9) 0.82008(16)
O21_4 O 0.48564(14) 0.77093(18) 0.72395(19)
O23_4 O 0.52410(11) 0.82528(15) 0.72270(18)
O25_4 O 0.61375(14) 0.65312(10) 0.99715(18)
O26_4 O 0.54536(9) 0.86447(10) 0.86237(17)
O27_4 O 0.34756(13) 0.46887(10) 0.97097(17)
O5_5 O 0.22907(18) 0.51436(14) 0.22395(19)
O6_5 O 0.17472(15) 0.47590(11) 0.22270(18)
C3_5 C 0.24359(16) 0.48549(11) 0.00292(19)
C4_5 C 0.24019(17) 0.49374(12) 0.0783(2)
H2_5 H 0.261110 0.507464 0.108096
C5_5 C 0.20699(17) 0.48241(12) 0.1109(2)
C6_5 C 0.17694(17) 0.46145(12) 0.0681(2)
H3_5 H 0.153986 0.452323 0.090723
C9_5 C 0.20250(22) 0.49071(16) 0.1915(3)
Zn3_4 Zn 0.16179(4) 0.64795(3) 0.00684(2)
Zn7_5 Zn 0.18050(4) 0.49512(2) 0.32649(2)
O19_4 O 0.20318(15) 0.69474(12) 0.01325(16)
O22_5 O 0.18103(21) 0.61862(11) 0.10938(19)
O24_5 O 0.14257(18) 0.63451(10) 0.11063(18)
O1_5 O 0.11705(13) 0.42138(9) 0.97823(17)
O2_5 O 0.14983(19) 0.42682(14) 0.8767(2)
O3_5 O 0.28034(12) 0.49434(9) 0.89686(15)
C1_5 C 0.17979(18) 0.45323(12) 0.9903(2)
C2_5 C 0.21324(17) 0.46593(12) 0.9599(2)
H1_5 H 0.215518 0.461086 0.907768
C7_5 C 0.14688(21) 0.43229(14) 0.9426(3)
C8_5 C 0.27888(16) 0.49696(11) 0.9695(2)
O13_5 O 0.08805(16) 0.45038(13) 0.85510(17)
O14_5 O 0.09349(23) 0.48316(19) 0.9566(2)
O15_5 O 0.16101(14) 0.61367(12) 0.93647(15)
O16_4 O 0.17511(14) 0.63859(12) 0.82008(16)
O17_5 O 0.18103(21) 0.56240(18) 0.60938(19)
O18_5 O 0.14257(18) 0.50805(15) 0.61063(18)
C19_5 C 0.11990(22) 0.51312(18) 0.8430(2)
C20_5 C 0.13260(21) 0.54657(17) 0.8734(2)
H7_5 H 0.127753 0.548851 0.925565
C21_5 C 0.15216(19) 0.57692(16) 0.83041(19)
C22_5 C 0.16041(21) 0.57352(17) 0.7550(2)
H8_5 H 0.174131 0.594443 0.725237
C23_5 C 0.14908(21) 0.54032(17) 0.7224(2)
C24_5 C 0.12812(21) 0.51027(17) 0.7652(2)
H9_5 H 0.118990 0.487319 0.742610
C25_5 C 0.09896(26) 0.48021(21) 0.8907(3)
C26_5 C 0.16363(20) 0.61221(16) 0.8638(2)
C27_5 C 0.15738(27) 0.53583(22) 0.6418(3)
Zn5_4 Zn 0.18050(4) 0.68538(3) 0.82649(2)
Zn9_5 Zn 0.16179(4) 0.51383(2) 0.50684(2)
O21_5 O 0.28529(23) 0.51436(14) 0.72395(19)
O23_5 O 0.30118(19) 0.47590(11) 0.72270(18)
O25_5 O 0.03938(17) 0.38625(14) 0.99715(18)
O26_5 O 0.31910(13) 0.45464(9) 0.86237(17)
O27_5 O 0.12130(16) 0.65244(13) 0.97097(17)
O5_6 O 0.28529(11) 0.77093(18) 0.22395(19)
O6_6 O 0.30118(10) 0.82528(15) 0.22270(18)
C3_6 C 0.24190(11) 0.75641(16) 0.00292(19)
C4_6 C 0.25355(12) 0.75981(17) 0.0783(2)
H2_6 H 0.246354 0.738890 0.108096
C5_6 C 0.27542(12) 0.79301(17) 0.1109(2)
C6_6 C 0.28451(12) 0.82306(17) 0.0681(2)
H3_6 H 0.298337 0.846014 0.090723
C9_6 C 0.28821(15) 0.79750(22) 0.1915(3)
Zn7_6 Zn 0.31462(3) 0.81950(4) 0.32649(2)
O22_6 O 0.43760(18) 0.81897(21) 0.10938(19)
O24_6 O 0.49195(15) 0.85743(18) 0.11063(18)
O1_6 O 0.30433(9) 0.88295(13) 0.97823(17)
O2_6 O 0.27699(13) 0.85017(19) 0.8767(2)
O3_6 O 0.21400(8) 0.71966(12) 0.89686(15)
C1_6 C 0.27344(13) 0.82021(18) 0.9903(2)
C2_6 C 0.25269(12) 0.78676(17) 0.9599(2)
H1_6 H 0.245568 0.784482 0.907768
C7_6 C 0.28541(15) 0.85312(21) 0.9426(3)
C8_6 C 0.21808(12) 0.72112(16) 0.9695(2)
O13_6 O 0.36234(9) 0.91195(16) 0.85510(17)
O14_6 O 0.38968(13) 0.90651(23) 0.9566(2)
O15_6 O 0.45267(8) 0.83899(14) 0.93647(15)
O17_6 O 0.38138(11) 0.81897(21) 0.60938(19)
O18_6 O 0.36549(10) 0.85743(18) 0.61063(18)
C19_6 C 0.39323(13) 0.88010(22) 0.8430(2)
C20_6 C 0.41398(12) 0.86740(21) 0.8734(2)
H7_6 H 0.421099 0.872247 0.925565
C21_6 C 0.42477(11) 0.84784(19) 0.83041(19)
C22_6 C 0.41312(12) 0.83959(21) 0.7550(2)
H8_6 H 0.420313 0.825869 0.725237
C23_6 C 0.39125(12) 0.85092(21) 0.7224(2)
C24_6 C 0.38216(12) 0.87188(21) 0.7652(2)
H9_6 H 0.368330 0.881010 0.742610
C25_6 C 0.38126(15) 0.90104(26) 0.8907(3)
C26_6 C 0.44859(12) 0.83637(20) 0.8638(2)
C27_6 C 0.37846(15) 0.84262(27) 0.6418(3)
Zn9_6 Zn 0.35205(3) 0.83821(4) 0.50684(2)
O21_6 O 0.22907(18) 0.71471(23) 0.72395(19)
O23_6 O 0.17472(15) 0.69882(19) 0.72270(18)
O25_6 O 0.34688(10) 0.96062(17) 0.99715(18)
O26_6 O 0.13553(10) 0.68090(13) 0.86237(17)
O27_6 O 0.53113(10) 0.87870(16) 0.97097(17)
O9_4 O 0.46887(10) 0.12130(9) 0.02903(17)
C10_4 C 0.37753(13) 0.02106(12) 0.0353(2)
C11_4 C 0.40859(13) 0.05292(13) 0.0348(2)
H4_4 H 0.426994 0.056182 0.000293
C12_6 C 0.41433(14) 0.08099(14) 0.083333
C13_6 C 0.35051(15) 0.01717(15) 0.083333
C15_6 C 0.44802(16) 0.11468(16) 0.083333
O10_4 O 0.29396(10) 0.01354(10) 0.16951(18)
O11_4 O 0.33207(11) 0.06134(11) 0.2341(3)
O12_4 O 0.45464(9) 0.13553(10) 0.13763(17)
C16_4 C 0.35440(12) 0.04419(13) 0.1313(2)
C17_4 C 0.38626(13) 0.07525(13) 0.1318(2)
H6_4 H 0.389516 0.093660 0.166373
C18_4 C 0.32444(17) 0.03983(17) 0.1822(3)
Zn4_4 Zn 0.25877(2) 0.000000 0.250000
H5_6 H 0.328517 0.995182 0.083333
Zn4_5 Zn 0.25877(2) 1.000000 0.250000
O8_4 O 0.39468(11) 0.99873(11) 0.9325(3)
C14_4 C 0.37317(17) 0.99110(17) 0.9844(3)
H5_7 H 0.004818 0.333334 0.083333
Zn4_6 Zn -0.000000 0.258766(20) 0.250000
O8_5 O 0.00127(11) 0.39594(16) 0.9325(3)
C14_5 C 0.00890(17) 0.38206(24) 0.9844(3)
O9_5 O 0.87870(9) 0.34756(13) 0.02903(17)
C10_5 C 0.97894(12) 0.35646(18) 0.0353(2)
C11_5 C 0.94708(13) 0.35566(18) 0.0348(2)
H4_5 H 0.943818 0.370811 0.000293
C12_7 C 0.91901(14) 0.33333(20) 0.083333
C13_7 C 0.98283(15) 0.33333(21) 0.083333
C15_7 C 0.88532(16) 0.33333(23) 0.083333
O10_5 O 0.98646(10) 0.28041(14) 0.16951(18)
O11_5 O 0.93866(11) 0.27072(16) 0.2341(3)
O12_5 O 0.86447(10) 0.31910(13) 0.13763(17)
C16_5 C 0.95581(13) 0.31020(18) 0.1313(2)
C17_5 C 0.92475(13) 0.31100(18) 0.1318(2)
H6_5 H 0.906340 0.295855 0.166373
C18_5 C 0.96017(17) 0.28460(24) 0.1822(3)
Zn4_7 Zn 1.000000 0.258766(20) 0.250000
O9_6 O 0.65244(13) 0.53113(10) 0.02903(17)
C10_6 C 0.64354(18) 0.62247(13) 0.0353(2)
C11_6 C 0.64434(18) 0.59141(13) 0.0348(2)
H4_6 H 0.629189 0.573006 0.000293
C12_8 C 0.66667(20) 0.58567(14) 0.083333
C13_8 C 0.66667(21) 0.64949(15) 0.083333
H5_8 H 0.666666 0.671483 0.083333
C15_8 C 0.66667(23) 0.55198(16) 0.083333
O10_6 O 0.71959(14) 0.70604(10) 0.16951(18)
O11_6 O 0.72928(16) 0.66793(11) 0.2341(3)
O12_6 O 0.68090(13) 0.54536(9) 0.13763(17)
C16_6 C 0.68980(18) 0.64560(12) 0.1313(2)
C17_6 C 0.68900(18) 0.61374(13) 0.1318(2)
H6_6 H 0.704145 0.610484 0.166373
C18_6 C 0.71540(24) 0.67556(17) 0.1822(3)
Zn4_8 Zn 0.741234(20) 0.74123(2) 0.250000
O8_6 O 0.60406(16) 0.60532(11) 0.9325(3)
C14_6 C 0.61794(24) 0.62683(17) 0.9844(3)
Zn2_3 Zn 0.17155(2) 0.15283(2) 0.15982(2)
O1_7 O 0.24529(9) 0.02900(9) 0.31156(17)
O2_7 O 0.23985(14) 0.05634(13) 0.2100(2)
O3_7 O 0.17233(9) 0.11933(8) 0.23019(15)
O4_3 O 0.15823(9) 0.13015(8) 0.34658(16)
O5_7 O 0.15231(14) 0.04804(11) 0.55728(19)
O6_7 O 0.19077(11) 0.03215(10) 0.55603(18)
C1_7 C 0.21344(12) 0.05989(13) 0.3236(2)
C2_7 C 0.20074(12) 0.08064(12) 0.2932(2)
H1_7 H 0.205581 0.087765 0.241101
C3_7 C 0.18118(11) 0.09143(11) 0.33625(19)
C4_7 C 0.17293(12) 0.07978(12) 0.4116(2)
H2_7 H 0.159203 0.086979 0.441429
C5_7 C 0.18426(12) 0.05791(12) 0.4442(2)
C6_7 C 0.20522(12) 0.04882(12) 0.4014(2)
H3_7 H 0.214344 0.034996 0.424056
C7_7 C 0.23438(14) 0.04792(15) 0.2759(3)
C8_7 C 0.16971(11) 0.11525(12) 0.3028(2)
C9_7 C 0.17596(16) 0.04512(15) 0.5248(3)
Zn6_3 Zn 0.15283(2) 0.17155(2) 0.34018(2)
O20_3 O 0.13015(8) 0.15823(9) 0.15342(16)
O21_7 O 0.15231(14) 0.10426(18) 0.05728(19)
O23_7 O 0.19077(11) 0.15861(15) 0.05603(18)
O26_7 O 0.21203(9) 0.19780(10) 0.19570(17)
Zn3_5 Zn 0.01871(3) 0.84717(2) 0.34018(2)
O13_7 O 0.21628(13) 0.97100(9) 0.18844(17)
O14_7 O 0.18350(19) 0.94366(13) 0.2900(2)
O15_7 O 0.05299(12) 0.88067(8) 0.26981(15)
O16_5 O 0.02807(12) 0.86985(8) 0.15342(16)
C19_7 C 0.15354(18) 0.94011(13) 0.1764(2)
C20_7 C 0.12009(17) 0.91936(12) 0.2068(2)
H7_7 H 0.117815 0.912235 0.258899
C21_7 C 0.08974(16) 0.90857(11) 0.16375(19)
C22_7 C 0.09314(17) 0.92022(12) 0.0884(2)
H8_7 H 0.072223 0.913021 0.058571
C23_7 C 0.12634(17) 0.94209(12) 0.0558(2)
C24_7 C 0.15639(17) 0.95118(12) 0.0986(2)
H9_7 H 0.179347 0.965004 0.075944
C25_7 C 0.18645(21) 0.95208(15) 0.2241(3)
C26_7 C 0.05445(16) 0.88475(12) 0.1972(2)
O22_7 O 0.04804(11) 0.89574(18) 0.44272(19)
O24_7 O 0.03215(10) 0.84139(15) 0.44397(18)
O25_7 O 0.28041(14) 0.98646(10) 0.33049(18)
O27_7 O 0.01423(13) 0.80220(10) 0.30430(17)
O17_7 O 0.10426(18) 0.95196(11) 0.94272(19)
O18_7 O 0.15861(15) 0.96785(10) 0.94397(18)
C27_7 C 0.13083(22) 0.95488(15) 0.9752(3)
Zn5_5 Zn 0.98129(3) 0.82845(2) 0.15982(2)
O19_5 O 0.97193(12) 0.84177(9) 0.34658(16)
Zn5_6 Zn 0.84717(4) 0.01871(3) 0.15982(2)
O19_6 O 0.86985(15) 0.02807(12) 0.34658(16)
O1_8 O 0.78372(13) 0.75471(9) 0.31156(17)
O2_8 O 0.81650(19) 0.76015(14) 0.2100(2)
O3_8 O 0.94701(12) 0.82767(9) 0.23019(15)
O5_8 O 0.89574(18) 0.84769(14) 0.55728(19)
O6_8 O 0.84139(15) 0.80923(11) 0.55603(18)
C1_8 C 0.84646(18) 0.78656(12) 0.3236(2)
C2_8 C 0.87991(17) 0.79926(12) 0.2932(2)
H1_8 H 0.882185 0.794419 0.241101
C3_8 C 0.91026(16) 0.81882(11) 0.33625(19)
C4_8 C 0.90686(17) 0.82707(12) 0.4116(2)
H2_8 H 0.927777 0.840797 0.441429
C5_8 C 0.87366(17) 0.81574(12) 0.4442(2)
C6_8 C 0.84361(17) 0.79478(12) 0.4014(2)
H3_8 H 0.820653 0.785656 0.424056
C7_8 C 0.81355(21) 0.76562(14) 0.2759(3)
C8_8 C 0.94555(16) 0.83029(11) 0.3028(2)
C9_8 C 0.86917(22) 0.82404(16) 0.5248(3)
Zn3_6 Zn 0.82845(4) 0.98129(3) 0.34018(2)
O13_8 O 0.75471(16) 0.78372(13) 0.18844(17)
O14_8 O 0.76015(23) 0.81650(19) 0.2900(2)
O15_8 O 0.82767(14) 0.94701(12) 0.26981(15)
O16_6 O 0.84177(14) 0.97193(12) 0.15342(16)
C19_8 C 0.78656(22) 0.84646(18) 0.1764(2)
C20_8 C 0.79926(21) 0.87991(17) 0.2068(2)
H7_8 H 0.794419 0.882185 0.258899
C21_8 C 0.81882(19) 0.91026(16) 0.16375(19)
C22_8 C 0.82707(21) 0.90686(17) 0.0884(2)
H8_8 H 0.840797 0.927777 0.058571
C23_8 C 0.81574(21) 0.87366(17) 0.0558(2)
C24_8 C 0.79478(21) 0.84361(17) 0.0986(2)
H9_8 H 0.785656 0.820653 0.075944
C25_8 C 0.76562(26) 0.81355(21) 0.2241(3)
C26_8 C 0.83029(20) 0.94555(16) 0.1972(2)
O21_8 O 0.95196(23) 0.84769(14) 0.05728(19)
O22_8 O 0.84769(21) 0.95196(11) 0.44272(19)
O23_8 O 0.96785(19) 0.80923(11) 0.05603(18)
O24_8 O 0.80923(18) 0.96785(10) 0.44397(18)
O25_8 O 0.70604(17) 0.71959(14) 0.33049(18)
O26_8 O 0.98577(13) 0.78797(9) 0.19570(17)
O27_8 O 0.78797(16) 0.98577(13) 0.30430(17)
O17_8 O 0.84769(21) 0.89574(18) 0.94272(19)
O18_8 O 0.80923(18) 0.84139(15) 0.94397(18)
C27_8 C 0.82404(27) 0.86917(22) 0.9752(3)
O13_9 O 0.02900(9) 0.24529(16) 0.18844(17)
O14_9 O 0.05634(13) 0.23985(23) 0.2900(2)
O15_9 O 0.11933(8) 0.17233(14) 0.26981(15)
C19_9 C 0.05989(13) 0.21344(22) 0.1764(2)
C20_9 C 0.08064(12) 0.20074(21) 0.2068(2)
H7_9 H 0.087765 0.205581 0.258899
C21_9 C 0.09143(11) 0.18118(19) 0.16375(19)
C22_9 C 0.07978(12) 0.17293(21) 0.0884(2)
H8_9 H 0.086979 0.159203 0.058571
C23_9 C 0.05791(12) 0.18426(21) 0.0558(2)
C24_9 C 0.04882(12) 0.20522(21) 0.0986(2)
H9_9 H 0.034996 0.214344 0.075944
C25_9 C 0.04792(15) 0.23438(26) 0.2241(3)
C26_9 C 0.11525(12) 0.16971(20) 0.1972(2)
O22_9 O 0.10426(18) 0.15231(21) 0.44272(19)
O24_9 O 0.15861(15) 0.19077(18) 0.44397(18)
O25_9 O 0.01354(10) 0.29396(17) 0.33049(18)
O27_9 O 0.19780(10) 0.21203(16) 0.30430(17)
O17_9 O 0.04804(11) 0.15231(21) 0.94272(19)
O18_9 O 0.03215(10) 0.19077(18) 0.94397(18)
C27_9 C 0.04512(15) 0.17596(27) 0.9752(3)
O1_9 O 0.97100(9) 0.21628(13) 0.31156(17)
O2_9 O 0.94366(13) 0.18350(19) 0.2100(2)
O3_9 O 0.88067(8) 0.05299(12) 0.23019(15)
O5_9 O 0.95196(11) 0.10426(18) 0.55728(19)
O6_9 O 0.96785(10) 0.15861(15) 0.55603(18)
C1_9 C 0.94011(13) 0.15354(18) 0.3236(2)
C2_9 C 0.91936(12) 0.12009(17) 0.2932(2)
H1_9 H 0.912235 0.117815 0.241101
C3_9 C 0.90857(11) 0.08974(16) 0.33625(19)
C4_9 C 0.92022(12) 0.09314(17) 0.4116(2)
H2_9 H 0.913021 0.072223 0.441429
C5_9 C 0.94209(12) 0.12634(17) 0.4442(2)
C6_9 C 0.95118(12) 0.15639(17) 0.4014(2)
H3_9 H 0.965004 0.179347 0.424056
C7_9 C 0.95208(15) 0.18645(21) 0.2759(3)
C8_9 C 0.88475(12) 0.05445(16) 0.3028(2)
C9_9 C 0.95488(15) 0.13083(22) 0.5248(3)
O21_9 O 0.89574(18) 0.04804(23) 0.05728(19)
O23_9 O 0.84139(15) 0.03215(19) 0.05603(18)
O26_9 O 0.80220(10) 0.01423(13) 0.19570(17)
O8_7 O 0.06134(11) 0.33207(11) 0.2659(3)
O9_7 O 0.13553(10) 0.45464(9) 0.36237(17)
C10_7 C 0.04419(13) 0.35440(12) 0.3687(2)
C11_7 C 0.07525(13) 0.38626(13) 0.3682(2)
H4_7 H 0.093660 0.389516 0.333627
C12_9 C 0.08099(14) 0.41433(14) 0.416667
C13_9 C 0.01717(15) 0.35051(15) 0.416667
C14_7 C 0.03983(17) 0.32444(17) 0.3178(3)
C15_9 C 0.11468(16) 0.44802(16) 0.416667
O12_7 O 0.12130(9) 0.46887(10) 0.47097(17)
C16_7 C 0.02106(12) 0.37753(13) 0.4647(2)
C17_7 C 0.05292(13) 0.40859(13) 0.4652(2)
H6_7 H 0.056182 0.426994 0.499707
H5_9 H 0.995183 0.328516 0.416667
O11_7 O 0.99873(11) 0.39468(11) 0.5675(3)
C18_7 C 0.99110(17) 0.37317(17) 0.5156(3)
O8_8 O 0.66793(11) 0.72928(16) 0.2659(3)
O9_8 O 0.54536(9) 0.68090(13) 0.36237(17)
C10_8 C 0.64560(12) 0.68980(18) 0.3687(2)
C11_8 C 0.61374(13) 0.68900(18) 0.3682(2)
H4_8 H 0.610484 0.704145 0.333627
C12_10 C 0.58567(14) 0.66667(20) 0.416667
C13_10 C 0.64949(15) 0.66667(21) 0.416667
H5_10 H 0.671484 0.666668 0.416667
C14_8 C 0.67556(17) 0.71540(24) 0.3178(3)
C15_10 C 0.55198(16) 0.66667(23) 0.416667
O11_8 O 0.60532(11) 0.60406(16) 0.5675(3)
O12_8 O 0.53113(10) 0.65244(13) 0.47097(17)
C16_8 C 0.62247(13) 0.64354(18) 0.4647(2)
C17_8 C 0.59141(13) 0.64434(18) 0.4652(2)
H6_8 H 0.573006 0.629189 0.499707
C18_8 C 0.62683(17) 0.61794(24) 0.5156(3)
H5_11 H 0.333332 0.004817 0.416667
O11_9 O 0.39594(16) 0.00127(11) 0.5675(3)
C18_9 C 0.38206(24) 0.00890(17) 0.5156(3)
O8_9 O 0.27072(16) 0.93866(11) 0.2659(3)
O9_9 O 0.31910(13) 0.86447(10) 0.36237(17)
C10_9 C 0.31020(18) 0.95581(13) 0.3687(2)
C11_9 C 0.31100(18) 0.92475(13) 0.3682(2)
H4_9 H 0.295855 0.906340 0.333627
C12_11 C 0.33333(20) 0.91901(14) 0.416667
C13_11 C 0.33333(21) 0.98283(15) 0.416667
C14_9 C 0.28460(24) 0.96017(17) 0.3178(3)
C15_11 C 0.33333(23) 0.88532(16) 0.416667
O12_9 O 0.34756(13) 0.87870(9) 0.47097(17)
C16_9 C 0.35646(18) 0.97894(12) 0.4647(2)
C17_9 C 0.35566(18) 0.94708(13) 0.4652(2)
H6_9 H 0.370811 0.943818 0.499707
Zn1_4 Zn 0.333333 0.40790(2) 0.416667
O1_10 O 0.30433(9) 0.42138(9) 0.47823(17)
O2_10 O 0.27699(13) 0.42682(14) 0.3767(2)
O3_10 O 0.21400(8) 0.49434(9) 0.39686(15)
O4_4 O 0.20318(8) 0.50844(9) 0.51325(16)
C1_10 C 0.27344(13) 0.45323(12) 0.4903(2)
C2_10 C 0.25269(12) 0.46593(12) 0.4599(2)
H1_10 H 0.245568 0.461086 0.407768
C3_10 C 0.24190(11) 0.48549(11) 0.50292(19)
C4_10 C 0.25355(12) 0.49374(12) 0.5783(2)
H2_10 H 0.246354 0.507464 0.608096
C5_10 C 0.27542(12) 0.48241(12) 0.6109(2)
C6_10 C 0.28451(12) 0.46145(12) 0.5681(2)
H3_10 H 0.298337 0.452323 0.590723
C7_10 C 0.28541(15) 0.43229(14) 0.4426(3)
C8_10 C 0.21808(12) 0.49696(11) 0.4695(2)
C9_10 C 0.28821(15) 0.49071(16) 0.6915(3)
O7_4 O 0.31979(10) 0.37271(10) 0.33618(18)
O8_10 O 0.27199(11) 0.33460(11) 0.4008(3)
C10_10 C 0.28914(13) 0.31227(12) 0.2980(2)
C11_10 C 0.25808(13) 0.28041(13) 0.2985(2)
H4_10 H 0.239673 0.277151 0.333040
C12_12 C 0.25234(14) 0.25234(14) 0.250000
C13_12 C 0.31616(15) 0.31616(15) 0.250000
H5_12 H 0.338150 0.338151 0.250000
C14_10 C 0.29350(17) 0.34223(17) 0.3489(3)
C15_12 C 0.21865(16) 0.21865(16) 0.250000
O10_7 O 0.37271(10) 0.31979(10) 0.16382(18)
O11_10 O 0.33460(11) 0.27199(11) 0.0992(3)
C16_10 C 0.31227(12) 0.28914(13) 0.2020(2)
C17_10 C 0.28041(13) 0.25808(13) 0.2015(2)
H6_10 H 0.277151 0.239673 0.166960
C18_10 C 0.34223(17) 0.29350(17) 0.1511(3)
O13_10 O 0.36234(9) 0.45038(13) 0.35510(17)
O14_10 O 0.38968(13) 0.48316(19) 0.4566(2)
O15_10 O 0.45267(8) 0.61367(12) 0.43647(15)
O16_7 O 0.46349(8) 0.63859(12) 0.32008(16)
C19_10 C 0.39323(13) 0.51312(18) 0.3430(2)
C20_10 C 0.41398(12) 0.54657(17) 0.3734(2)
H7_10 H 0.421099 0.548851 0.425565
C21_10 C 0.42477(11) 0.57692(16) 0.33041(19)
C22_10 C 0.41312(12) 0.57352(17) 0.2550(2)
H8_10 H 0.420313 0.594443 0.225237
C23_10 C 0.39125(12) 0.54032(17) 0.2224(2)
C24_10 C 0.38216(12) 0.51027(17) 0.2652(2)
H9_10 H 0.368330 0.487319 0.242610
C25_10 C 0.38126(15) 0.48021(21) 0.3907(3)
C26_10 C 0.44859(12) 0.61221(16) 0.3638(2)
C27_10 C 0.37846(15) 0.53583(22) 0.1418(3)
Zn4_9 Zn 0.40790(2) 0.333333 0.083333
O19_7 O 0.49156(9) 0.69474(12) 0.51325(16)
O20_4 O 0.17511(9) 0.53651(8) 0.32008(16)
O25_10 O 0.34688(10) 0.38625(14) 0.49715(18)
C12_13 C 0.74766(14) 0.00000(20) 0.250000
C13_13 C 0.68384(15) 0.00000(21) 0.250000
H5_13 H 0.661849 -0.000001 0.250000
C15_13 C 0.78135(16) 0.00000(23) 0.250000
O10_8 O 0.68021(10) 0.05292(14) 0.16382(18)
O11_11 O 0.72801(11) 0.06261(16) 0.0992(3)
C16_11 C 0.71086(13) 0.02313(18) 0.2020(2)
C17_11 C 0.74192(13) 0.02233(18) 0.2015(2)
H6_11 H 0.760327 0.037478 0.166960
C18_11 C 0.70650(17) 0.04873(24) 0.1511(3)
Zn4_10 Zn 0.666667 0.074567(20) 0.083333
Zn1_5 Zn 0.59210(2) 0.925433(20) 0.416667
O1_11 O 0.57862(9) 0.88295(13) 0.47823(17)
O2_11 O 0.57318(14) 0.85017(19) 0.3767(2)
O3_11 O 0.50566(9) 0.71966(12) 0.39686(15)
C1_11 C 0.54677(12) 0.82021(18) 0.4903(2)
C2_11 C 0.53407(12) 0.78676(17) 0.4599(2)
H1_11 H 0.538914 0.784482 0.407768
C3_11 C 0.51451(11) 0.75641(16) 0.50292(19)
C4_11 C 0.50626(12) 0.75981(17) 0.5783(2)
H2_11 H 0.492536 0.738890 0.608096
C5_11 C 0.51759(12) 0.79301(17) 0.6109(2)
C6_11 C 0.53855(12) 0.82306(17) 0.5681(2)
H3_11 H 0.547677 0.846014 0.590723
C7_11 C 0.56771(14) 0.85312(21) 0.4426(3)
C8_11 C 0.50304(11) 0.72112(16) 0.4695(2)
C9_11 C 0.50929(16) 0.79750(22) 0.6915(3)
O7_5 O 0.62729(10) 0.94708(14) 0.33618(18)
O8_11 O 0.66540(11) 0.93739(16) 0.4008(3)
C10_11 C 0.68773(12) 0.97687(18) 0.2980(2)
C11_11 C 0.71959(13) 0.97767(18) 0.2985(2)
H4_11 H 0.722849 0.962522 0.333040
C12_14 C 0.74766(14) 1.00000(20) 0.250000
C13_14 C 0.68384(15) 1.00000(21) 0.250000
H5_14 H 0.661849 0.999999 0.250000
C14_11 C 0.65777(17) 0.95127(24) 0.3489(3)
C15_14 C 0.78135(16) 1.00000(23) 0.250000
O13_11 O 0.54962(13) 0.91195(16) 0.35510(17)
O14_11 O 0.51684(19) 0.90651(23) 0.4566(2)
O15_11 O 0.38633(12) 0.83899(14) 0.43647(15)
O16_8 O 0.36141(12) 0.82489(14) 0.32008(16)
C19_11 C 0.48688(18) 0.88010(22) 0.3430(2)
C20_11 C 0.45343(17) 0.86740(21) 0.3734(2)
H7_11 H 0.451149 0.872247 0.425565
C21_11 C 0.42308(16) 0.84784(19) 0.33041(19)
C22_11 C 0.42648(17) 0.83959(21) 0.2550(2)
H8_11 H 0.405557 0.825869 0.225237
C23_11 C 0.45968(17) 0.85092(21) 0.2224(2)
C24_11 C 0.48973(17) 0.87188(21) 0.2652(2)
H9_11 H 0.512681 0.881010 0.242610
C25_11 C 0.51979(21) 0.90104(26) 0.3907(3)
C26_11 C 0.38779(16) 0.83637(20) 0.3638(2)
C27_11 C 0.46417(22) 0.84262(27) 0.1418(3)
O19_8 O 0.30526(12) 0.79682(15) 0.51325(16)
O25_11 O 0.61375(14) 0.96062(17) 0.49715(18)
Zn1_6 Zn 0.074567(20) 0.666667 0.416667
O1_12 O 0.11705(13) 0.69567(9) 0.47823(17)
O2_12 O 0.14983(19) 0.72301(13) 0.3767(2)
O3_12 O 0.28034(12) 0.78600(8) 0.39686(15)
C1_12 C 0.17979(18) 0.72656(13) 0.4903(2)
C2_12 C 0.21324(17) 0.74731(12) 0.4599(2)
H1_12 H 0.215518 0.754432 0.407768
C3_12 C 0.24359(16) 0.75810(11) 0.50292(19)
C4_12 C 0.24019(17) 0.74645(12) 0.5783(2)
H2_12 H 0.261110 0.753646 0.608096
C5_12 C 0.20699(17) 0.72458(12) 0.6109(2)
C6_12 C 0.17694(17) 0.71549(12) 0.5681(2)
H3_12 H 0.153986 0.701663 0.590723
C7_12 C 0.14688(21) 0.71459(15) 0.4426(3)
C8_12 C 0.27888(16) 0.78192(12) 0.4695(2)
C9_12 C 0.20250(22) 0.71179(15) 0.6915(3)
O7_6 O 0.05292(14) 0.68021(10) 0.33618(18)
O8_12 O 0.06261(16) 0.72801(11) 0.4008(3)
C10_12 C 0.02313(18) 0.71086(13) 0.2980(2)
C11_12 C 0.02233(18) 0.74192(13) 0.2985(2)
H4_12 H 0.037478 0.760327 0.333040
C12_15 C -0.00000(20) 0.74766(14) 0.250000
C13_15 C -0.00000(21) 0.68384(15) 0.250000
H5_15 H 0.000001 0.661850 0.250000
C14_12 C 0.04873(24) 0.70650(17) 0.3489(3)
C15_15 C -0.00000(23) 0.78135(16) 0.250000
O13_12 O 0.08805(16) 0.63766(9) 0.35510(17)
O14_12 O 0.09349(23) 0.61032(13) 0.4566(2)
O15_12 O 0.16101(14) 0.54733(8) 0.43647(15)
C19_12 C 0.11990(22) 0.60677(13) 0.3430(2)
C20_12 C 0.13260(21) 0.58602(12) 0.3734(2)
H7_12 H 0.127753 0.578901 0.425565
C21_12 C 0.15216(19) 0.57523(11) 0.33041(19)
C22_12 C 0.16041(21) 0.58688(12) 0.2550(2)
H8_12 H 0.174131 0.579687 0.225237
C23_12 C 0.14908(21) 0.60875(12) 0.2224(2)
C24_12 C 0.12812(21) 0.61784(12) 0.2652(2)
H9_12 H 0.118990 0.631670 0.242610
C25_12 C 0.09896(26) 0.61874(15) 0.3907(3)
C26_12 C 0.16363(20) 0.55141(12) 0.3638(2)
C27_12 C 0.15738(27) 0.62154(15) 0.1418(3)
O25_12 O 0.03938(17) 0.65312(10) 0.49715(18)
C12_16 C 1.00000(20) 0.74766(14) 0.250000
C13_16 C 1.00000(21) 0.68384(15) 0.250000
H5_16 H 1.000001 0.661850 0.250000
C15_16 C 1.00000(23) 0.78135(16) 0.250000
O10_9 O 0.94708(14) 0.62729(10) 0.16382(18)
O11_12 O 0.93739(16) 0.66540(11) 0.0992(3)
C16_12 C 0.97687(18) 0.68773(12) 0.2020(2)
C17_12 C 0.97767(18) 0.71959(13) 0.2015(2)
H6_12 H 0.962522 0.722849 0.166960
C18_12 C 0.95127(24) 0.65777(17) 0.1511(3)
Zn4_11 Zn 0.925433(20) 0.59210(2) 0.083333
O1_13 O 0.42138(9) 0.30433(9) 0.02177(17)
O2_13 O 0.42682(14) 0.27699(13) 0.1233(2)
O3_13 O 0.49434(9) 0.21400(8) 0.10314(15)
C1_13 C 0.45323(12) 0.27344(13) 0.0097(2)
C2_13 C 0.46593(12) 0.25269(12) 0.0401(2)
H1_13 H 0.461086 0.245568 0.092232
C7_13 C 0.43229(14) 0.28541(15) 0.0574(3)
C8_13 C 0.49696(11) 0.21808(12) 0.0305(2)
O13_13 O 0.45038(13) 0.36234(9) 0.14490(17)
O14_13 O 0.48316(19) 0.38968(13) 0.0434(2)
O15_13 O 0.61367(12) 0.45267(8) 0.06353(15)
O16_9 O 0.63859(12) 0.46349(8) 0.17992(16)
C19_13 C 0.51312(18) 0.39323(13) 0.1570(2)
C20_13 C 0.54657(17) 0.41398(12) 0.1266(2)
H7_13 H 0.548851 0.421099 0.074435
C21_13 C 0.57692(16) 0.42477(11) 0.16959(19)
C22_13 C 0.57352(17) 0.41312(12) 0.2450(2)
H8_13 H 0.594443 0.420313 0.274763
C23_13 C 0.54032(17) 0.39125(12) 0.2776(2)
C24_13 C 0.51027(17) 0.38216(12) 0.2348(2)
H9_13 H 0.487319 0.368330 0.257390
C25_13 C 0.48021(21) 0.38126(15) 0.1093(3)
C26_13 C 0.61221(16) 0.44859(12) 0.1362(2)
C27_13 C 0.53583(22) 0.37846(15) 0.3582(3)
O20_5 O 0.53651(8) 0.17511(9) 0.17992(16)
O25_13 O 0.38625(14) 0.34688(10) 0.00285(18)
O4_5 O 0.50844(9) 0.20318(8) 0.98675(16)
C3_13 C 0.48549(11) 0.24190(11) 0.99708(19)
C4_13 C 0.49374(12) 0.25355(12) 0.9217(2)
H2_13 H 0.507464 0.246354 0.891904
C5_13 C 0.48241(12) 0.27542(12) 0.8891(2)
C6_13 C 0.46145(12) 0.28451(12) 0.9319(2)
H3_13 H 0.452323 0.298337 0.909277
C9_13 C 0.49071(16) 0.28821(15) 0.8085(3)
O19_9 O 0.69474(12) 0.49156(9) 0.98675(16)
O1_14 O 0.88295(13) 0.57862(9) 0.02177(17)
O2_14 O 0.85017(19) 0.57318(14) 0.1233(2)
O3_14 O 0.71966(12) 0.50566(9) 0.10314(15)
C1_14 C 0.82021(18) 0.54677(12) 0.0097(2)
C2_14 C 0.78676(17) 0.53407(12) 0.0401(2)
H1_14 H 0.784482 0.538914 0.092232
C7_14 C 0.85312(21) 0.56771(14) 0.0574(3)
C8_14 C 0.72112(16) 0.50304(11) 0.0305(2)
O13_14 O 0.91195(16) 0.54962(13) 0.14490(17)
O14_14 O 0.90651(23) 0.51684(19) 0.0434(2)
O15_14 O 0.83899(14) 0.38633(12) 0.06353(15)
O16_10 O 0.82489(14) 0.36141(12) 0.17992(16)
C19_14 C 0.88010(22) 0.48688(18) 0.1570(2)
C20_14 C 0.86740(21) 0.45343(17) 0.1266(2)
H7_14 H 0.872247 0.451149 0.074435
C21_14 C 0.84784(19) 0.42308(16) 0.16959(19)
C22_14 C 0.83959(21) 0.42648(17) 0.2450(2)
H8_14 H 0.825869 0.405557 0.274763
C23_14 C 0.85092(21) 0.45968(17) 0.2776(2)
C24_14 C 0.87188(21) 0.48973(17) 0.2348(2)
H9_14 H 0.881010 0.512681 0.257390
C25_14 C 0.90104(26) 0.51979(21) 0.1093(3)
C26_14 C 0.83637(20) 0.38779(16) 0.1362(2)
C27_14 C 0.84262(27) 0.46417(22) 0.3582(3)
O25_14 O 0.96062(17) 0.61375(14) 0.00285(18)
C3_14 C 0.75641(16) 0.51451(11) 0.99708(19)
C4_14 C 0.75981(17) 0.50626(12) 0.9217(2)
H2_14 H 0.738890 0.492536 0.891904
C5_14 C 0.79301(17) 0.51759(12) 0.8891(2)
C6_14 C 0.82306(17) 0.53855(12) 0.9319(2)
H3_14 H 0.846014 0.547677 0.909277
C9_14 C 0.79750(22) 0.50929(16) 0.8085(3)
O19_10 O 0.79682(15) 0.30526(12) 0.98675(16)
O1_15 O 0.69567(9) 0.11705(13) 0.02177(17)
O2_15 O 0.72301(13) 0.14983(19) 0.1233(2)
O3_15 O 0.78600(8) 0.28034(12) 0.10314(15)
C1_15 C 0.72656(13) 0.17979(18) 0.0097(2)
C2_15 C 0.74731(12) 0.21324(17) 0.0401(2)
H1_15 H 0.754432 0.215518 0.092232
C7_15 C 0.71459(15) 0.14688(21) 0.0574(3)
C8_15 C 0.78192(12) 0.27888(16) 0.0305(2)
O13_15 O 0.63766(9) 0.08805(16) 0.14490(17)
O14_15 O 0.61032(13) 0.09349(23) 0.0434(2)
O15_15 O 0.54733(8) 0.16101(14) 0.06353(15)
C19_15 C 0.60677(13) 0.11990(22) 0.1570(2)
C20_15 C 0.58602(12) 0.13260(21) 0.1266(2)
H7_15 H 0.578901 0.127753 0.074435
C21_15 C 0.57523(11) 0.15216(19) 0.16959(19)
C22_15 C 0.58688(12) 0.16041(21) 0.2450(2)
H8_15 H 0.579687 0.174131 0.274763
C23_15 C 0.60875(12) 0.14908(21) 0.2776(2)
C24_15 C 0.61784(12) 0.12812(21) 0.2348(2)
H9_15 H 0.631670 0.118990 0.257390
C25_15 C 0.61874(15) 0.09896(26) 0.1093(3)
C26_15 C 0.55141(12) 0.16363(20) 0.1362(2)
C27_15 C 0.62154(15) 0.15738(27) 0.3582(3)
O25_15 O 0.65312(10) 0.03938(17) 0.00285(18)
C3_15 C 0.75810(11) 0.24359(16) 0.99708(19)
C4_15 C 0.74645(12) 0.24019(17) 0.9217(2)
H2_15 H 0.753646 0.261110 0.891904
C5_15 C 0.72458(12) 0.20699(17) 0.8891(2)
C6_15 C 0.71549(12) 0.17694(17) 0.9319(2)
H3_15 H 0.701663 0.153986 0.909277
C9_15 C 0.71179(15) 0.20250(22) 0.8085(3)
O8_13 O 0.60532(11) 0.00127(11) 0.0675(3)
C14_13 C 0.62683(17) 0.00890(17) 0.0156(3)
H5_17 H 0.671483 0.004818 0.916667
Zn4_12 Zn 0.74123(2) -0.000000 0.750000
C10_13 C 0.62247(13) 0.97894(12) 0.9647(2)
C11_13 C 0.59141(13) 0.94708(13) 0.9652(2)
H4_13 H 0.573006 0.943818 0.999707
C12_17 C 0.58567(14) 0.91901(14) 0.916667
C13_17 C 0.64949(15) 0.98283(15) 0.916667
C15_17 C 0.55198(16) 0.88532(16) 0.916667
O10_10 O 0.70604(10) 0.98646(10) 0.83049(18)
O11_13 O 0.66793(11) 0.93866(11) 0.7659(3)
C16_13 C 0.64560(12) 0.95581(13) 0.8687(2)
C17_13 C 0.61374(13) 0.92475(13) 0.8682(2)
H6_13 H 0.610484 0.906340 0.833627
C18_13 C 0.67556(17) 0.96017(17) 0.8178(3)
Zn4_13 Zn 0.74123(2) 1.000000 0.750000
C10_14 C 0.02106(12) 0.64354(18) 0.9647(2)
C11_14 C 0.05292(13) 0.64434(18) 0.9652(2)
H4_14 H 0.056182 0.629189 0.999707
C12_18 C 0.08099(14) 0.66667(20) 0.916667
C13_18 C 0.01717(15) 0.66667(21) 0.916667
C15_18 C 0.11468(16) 0.66667(23) 0.916667
O10_11 O 0.01354(10) 0.71959(14) 0.83049(18)
O11_14 O 0.06134(11) 0.72928(16) 0.7659(3)
C16_14 C 0.04419(13) 0.68980(18) 0.8687(2)
C17_14 C 0.07525(13) 0.68900(18) 0.8682(2)
H6_14 H 0.093660 0.704145 0.833627
C18_14 C 0.03983(17) 0.71540(24) 0.8178(3)
Zn4_14 Zn 0.000000 0.741234(20) 0.750000
O8_14 O 0.99873(11) 0.60406(16) 0.0675(3)
C14_14 C 0.99110(17) 0.61794(24) 0.0156(3)
H5_18 H 0.995182 0.666666 0.916667
Zn4_15 Zn 1.000000 0.741234(20) 0.750000
O8_15 O 0.39594(16) 0.39468(11) 0.0675(3)
C14_15 C 0.38206(24) 0.37317(17) 0.0156(3)
C10_15 C 0.35646(18) 0.37753(13) 0.9647(2)
C11_15 C 0.35566(18) 0.40859(13) 0.9652(2)
H4_15 H 0.370811 0.426994 0.999707
C12_19 C 0.33333(20) 0.41433(14) 0.916667
C13_19 C 0.33333(21) 0.35051(15) 0.916667
H5_19 H 0.333334 0.328517 0.916667
C15_19 C 0.33333(23) 0.44802(16) 0.916667
O10_12 O 0.28041(14) 0.29396(10) 0.83049(18)
O11_15 O 0.27072(16) 0.33207(11) 0.7659(3)
C16_15 C 0.31020(18) 0.35440(12) 0.8687(2)
C17_15 C 0.31100(18) 0.38626(13) 0.8682(2)
H6_15 H 0.295855 0.389516 0.833627
C18_15 C 0.28460(24) 0.32444(17) 0.8178(3)
Zn4_16 Zn 0.258766(20) 0.25877(2) 0.750000
O19_11 O 0.02807(12) 0.15823(9) 0.65342(16)
C27_16 C 0.86917(22) 0.04512(15) 0.0248(3)
O13_16 O 0.78372(13) 0.02900(9) 0.81156(17)
O14_16 O 0.81650(19) 0.05634(13) 0.7100(2)
O15_16 O 0.94701(12) 0.11933(8) 0.73019(15)
O16_11 O 0.97193(12) 0.13015(8) 0.84658(16)
C19_16 C 0.84646(18) 0.05989(13) 0.8236(2)
C20_16 C 0.87991(17) 0.08064(12) 0.7932(2)
H7_16 H 0.882185 0.087765 0.741101
C21_16 C 0.91026(16) 0.09143(11) 0.83625(19)
C22_16 C 0.90686(17) 0.07978(12) 0.9116(2)
H8_16 H 0.927777 0.086979 0.941429
C23_16 C 0.87366(17) 0.05791(12) 0.9442(2)
C24_16 C 0.84361(17) 0.04882(12) 0.9014(2)
H9_16 H 0.820653 0.034996 0.924056
C25_16 C 0.81355(21) 0.04792(15) 0.7759(3)
C26_16 C 0.94555(16) 0.11525(12) 0.8028(2)
O25_16 O 0.71959(14) 0.01354(10) 0.66951(18)
O1_16 O 0.75471(9) 0.97100(9) 0.68844(17)
O2_16 O 0.76015(14) 0.94366(13) 0.7900(2)
O3_16 O 0.82767(9) 0.88067(8) 0.76981(15)
O4_6 O 0.84177(9) 0.86985(8) 0.65342(16)
C1_16 C 0.78656(12) 0.94011(13) 0.6764(2)
C2_16 C 0.79926(12) 0.91936(12) 0.7068(2)
H1_16 H 0.794419 0.912235 0.758899
C3_16 C 0.81882(11) 0.90857(11) 0.66375(19)
C4_16 C 0.82707(12) 0.92022(12) 0.5884(2)
H2_16 H 0.840797 0.913021 0.558571
C5_16 C 0.81574(12) 0.94209(12) 0.5558(2)
C6_16 C 0.79478(12) 0.95118(12) 0.5986(2)
H3_16 H 0.785656 0.965004 0.575944
C7_16 C 0.76562(14) 0.95208(15) 0.7241(3)
C8_16 C 0.83029(11) 0.88475(12) 0.6972(2)
C9_16 C 0.82404(16) 0.95488(15) 0.4752(3)
O20_6 O 0.86985(8) 0.84177(9) 0.84658(16)
C27_17 C 0.17596(27) 0.13083(22) 0.0248(3)
O1_17 O 0.21628(13) 0.24529(9) 0.68844(17)
O2_17 O 0.18350(19) 0.23985(14) 0.7900(2)
O3_17 O 0.05299(12) 0.17233(9) 0.76981(15)
C1_17 C 0.15354(18) 0.21344(12) 0.6764(2)
C2_17 C 0.12009(17) 0.20074(12) 0.7068(2)
H1_17 H 0.117815 0.205581 0.758899
C3_17 C 0.08974(16) 0.18118(11) 0.66375(19)
C4_17 C 0.09314(17) 0.17293(12) 0.5884(2)
H2_17 H 0.072223 0.159203 0.558571
C5_17 C 0.12634(17) 0.18426(12) 0.5558(2)
C6_17 C 0.15639(17) 0.20522(12) 0.5986(2)
H3_17 H 0.179347 0.214344 0.575944
C7_17 C 0.18645(21) 0.23438(14) 0.7241(3)
C8_17 C 0.05445(16) 0.16971(11) 0.6972(2)
C9_17 C 0.13083(22) 0.17596(16) 0.4752(3)
O13_17 O 0.24529(16) 0.21628(13) 0.81156(17)
O14_17 O 0.23985(23) 0.18350(19) 0.7100(2)
O15_17 O 0.17233(14) 0.05299(12) 0.73019(15)
O16_12 O 0.15823(14) 0.02807(12) 0.84658(16)
C19_17 C 0.21344(22) 0.15354(18) 0.8236(2)
C20_17 C 0.20074(21) 0.12009(17) 0.7932(2)
H7_17 H 0.205581 0.117815 0.741101
C21_17 C 0.18118(19) 0.08974(16) 0.83625(19)
C22_17 C 0.17293(21) 0.09314(17) 0.9116(2)
H8_17 H 0.159203 0.072223 0.941429
C23_17 C 0.18426(21) 0.12634(17) 0.9442(2)
C24_17 C 0.20522(21) 0.15639(17) 0.9014(2)
H9_17 H 0.214344 0.179347 0.924056
C25_17 C 0.23438(26) 0.18645(21) 0.7759(3)
C26_17 C 0.16971(20) 0.05445(16) 0.8028(2)
O25_17 O 0.29396(17) 0.28041(14) 0.66951(18)
O19_12 O 0.13015(15) 0.97193(12) 0.65342(16)
O1_18 O 0.02900(9) 0.78372(13) 0.68844(17)
O2_18 O 0.05634(13) 0.81650(19) 0.7900(2)
O3_18 O 0.11933(8) 0.94701(12) 0.76981(15)
C1_18 C 0.05989(13) 0.84646(18) 0.6764(2)
C2_18 C 0.08064(12) 0.87991(17) 0.7068(2)
H1_18 H 0.087765 0.882185 0.758899
C3_18 C 0.09143(11) 0.91026(16) 0.66375(19)
C4_18 C 0.07978(12) 0.90686(17) 0.5884(2)
H2_18 H 0.086979 0.927777 0.558571
C5_18 C 0.05791(12) 0.87366(17) 0.5558(2)
C6_18 C 0.04882(12) 0.84361(17) 0.5986(2)
H3_18 H 0.034996 0.820653 0.575944
C7_18 C 0.04792(15) 0.81355(21) 0.7241(3)
C8_18 C 0.11525(12) 0.94555(16) 0.6972(2)
C9_18 C 0.04512(15) 0.86917(22) 0.4752(3)
C27_18 C 0.95488(15) 0.82404(27) 0.0248(3)
O13_18 O 0.97100(9) 0.75471(16) 0.81156(17)
O14_18 O 0.94366(13) 0.76015(23) 0.7100(2)
O15_18 O 0.88067(8) 0.82767(14) 0.73019(15)
C19_18 C 0.94011(13) 0.78656(22) 0.8236(2)
C20_18 C 0.91936(12) 0.79926(21) 0.7932(2)
H7_18 H 0.912235 0.794419 0.741101
C21_18 C 0.90857(11) 0.81882(19) 0.83625(19)
C22_18 C 0.92022(12) 0.82707(21) 0.9116(2)
H8_18 H 0.913021 0.840797 0.941429
C23_18 C 0.94209(12) 0.81574(21) 0.9442(2)
C24_18 C 0.95118(12) 0.79478(21) 0.9014(2)
H9_18 H 0.965004 0.785656 0.924056
C25_18 C 0.95208(15) 0.76562(26) 0.7759(3)
C26_18 C 0.88475(12) 0.83029(20) 0.8028(2)
O25_18 O 0.98646(10) 0.70604(17) 0.66951(18)
H5_20 H 0.004817 0.671484 0.583333
O11_16 O 0.00127(11) 0.60532(11) 0.4325(3)
C18_16 C 0.00890(17) 0.62683(17) 0.4844(3)
O8_16 O 0.93866(11) 0.66793(11) 0.7341(3)
C10_16 C 0.95581(13) 0.64560(12) 0.6313(2)
C11_16 C 0.92475(13) 0.61374(13) 0.6318(2)
H4_16 H 0.906340 0.610484 0.666373
C12_20 C 0.91901(14) 0.58567(14) 0.583333
C13_20 C 0.98283(15) 0.64949(15) 0.583333
C14_16 C 0.96017(17) 0.67556(17) 0.6822(3)
C15_20 C 0.88532(16) 0.55198(16) 0.583333
C16_16 C 0.97894(12) 0.62247(13) 0.5353(2)
C17_16 C 0.94708(13) 0.59141(13) 0.5348(2)
H6_16 H 0.943818 0.573006 0.500293
O8_17 O 0.33207(11) 0.27072(16) 0.7341(3)
C10_17 C 0.35440(12) 0.31020(18) 0.6313(2)
C11_17 C 0.38626(13) 0.31100(18) 0.6318(2)
H4_17 H 0.389516 0.295855 0.666373
C12_21 C 0.41433(14) 0.33333(20) 0.583333
C13_21 C 0.35051(15) 0.33333(21) 0.583333
H5_21 H 0.328516 0.333332 0.583333
C14_17 C 0.32444(17) 0.28460(24) 0.6822(3)
C15_21 C 0.44802(16) 0.33333(23) 0.583333
O11_17 O 0.39468(11) 0.39594(16) 0.4325(3)
C16_17 C 0.37753(13) 0.35646(18) 0.5353(2)
C17_17 C 0.40859(13) 0.35566(18) 0.5348(2)
H6_17 H 0.426994 0.370811 0.500293
C18_17 C 0.37317(17) 0.38206(24) 0.4844(3)
O8_18 O 0.72928(16) 0.06134(11) 0.7341(3)
C10_18 C 0.68980(18) 0.04419(13) 0.6313(2)
C11_18 C 0.68900(18) 0.07525(13) 0.6318(2)
H4_18 H 0.704145 0.093660 0.666373
C12_22 C 0.66667(20) 0.08099(14) 0.583333
C13_22 C 0.66667(21) 0.01717(15) 0.583333
C14_18 C 0.71540(24) 0.03983(17) 0.6822(3)
C15_22 C 0.66667(23) 0.11468(16) 0.583333
C16_18 C 0.64354(18) 0.02106(12) 0.5353(2)
C17_18 C 0.64434(18) 0.05292(13) 0.5348(2)
H6_18 H 0.629189 0.056182 0.500293
H5_22 H 0.666668 0.995183 0.583333
O11_18 O 0.60406(16) 0.99873(11) 0.4325(3)
C18_18 C 0.61794(24) 0.99110(17) 0.4844(3)
loop_
_geom_bond_atom_site_label_1
_geom_bond_atom_site_label_2
_geom_bond_site_symmetry_1
_geom_bond_site_symmetry_2
Zn1 O1 1_555 1_555
Zn2 O3 1_555 1_555
O1 C7 1_555 1_555
O2 C7 1_555 1_555
O3 C8 1_555 1_555
O4 C8 1_555 1_555
O5 C9 1_555 1_555
O6 C9 1_555 1_555
C1 C2 1_555 1_555
C2 H1 1_555 1_555
C3 C2 1_555 1_555
C4 C3 1_555 1_555
H2 C4 1_555 1_555
C5 C4 1_555 1_555
C6 C1 1_555 1_555
H3 C6 1_555 1_555
C7 C1 1_555 1_555
C8 C3 1_555 1_555
C9 C5 1_555 1_555
O7 Zn1 1_555 1_555
O8 C14 1_555 1_555
O9 C15 1_555 1_555
C10 C11 1_555 1_555
C11 H4 1_555 1_555
C12 C11 1_555 1_555
C13 C10 1_555 1_555
H5 C13 1_555 1_555
C14 O7 1_555 1_555
C15 C12 1_555 1_555
O10 C18 1_555 1_555
O11 C18 1_555 1_555
O12 C15 1_555 1_555
C16 C13 1_555 1_555
C17 C12 1_555 1_555
H6 C17 1_555 1_555
C18 C16 1_555 1_555
Zn3 O15 1_555 1_555
O13 Zn1 1_555 1_555
O14 C25 1_555 1_555
O15 C26 1_555 1_555
O16 C26 1_555 1_555
O17 C27 1_555 1_555
O18 C27 1_555 1_555
C19 C20 1_555 1_555
C20 H7 1_555 1_555
C21 C20 1_555 1_555
C22 C21 1_555 1_555
H8 C22 1_555 1_555
C23 C22 1_555 1_555
C24 C19 1_555 1_555
H9 C24 1_555 1_555
C25 O13 1_555 1_555
C26 C21 1_555 1_555
C27 C23 1_555 1_555
Zn4 O10 1_555 1_555
Zn5 O16 1_555 1_555
Zn6 O4 1_555 1_555
Zn7 O5 1_555 1_555
Zn8 O9 1_555 1_555
Zn9 O17 1_555 1_555
Zn10 O12 1_555 1_555
O19 Zn3 1_555 1_555
O20 Zn2 1_555 1_555
O21 Zn2 1_555 1_555
O22 Zn3 1_555 1_555
O23 Zn2 1_555 1_555
O24 Zn3 1_555 1_555
O25 Zn1 1_555 1_555
O26 Zn2 1_555 1_555
O27 Zn3 1_555 1_555
O6 Zn7 1_555 1_555
C5 C6 1_555 1_555
C10 C14 1_555 1_555
C16 C17 1_555 1_555
O18 Zn9 1_555 1_555
C19 C25 1_555 1_555
C23 C24 1_555 1_555
Zn1_2 O1_2 1_555 1_555
Zn5 O3_2 1_555 1_555
O1_2 C7_2 1_555 1_555
O2_2 C7_2 1_555 1_555
O3_2 C8_2 1_555 1_555
O19 C8_2 1_555 1_555
O5_2 C9_2 1_555 1_555
O6_2 C9_2 1_555 1_555
C1_2 C2_2 1_555 1_555
C2_2 H1_2 1_555 1_555
C3_2 C2_2 1_555 1_555
C4_2 C3_2 1_555 1_555
H2_2 C4_2 1_555 1_555
C5_2 C4_2 1_555 1_555
C6_2 C1_2 1_555 1_555
H3_2 C6_2 1_555 1_555
C7_2 C1_2 1_555 1_555
C8_2 C3_2 1_555 1_555
C9_2 C5_2 1_555 1_555
O7_2 Zn1_2 1_555 1_555
O8_2 C14_2 1_555 1_555
O9_2 C15_2 1_555 1_555
C10_2 C11_2 1_555 1_555
C11_2 H4_2 1_555 1_555
C12_2 C11_2 1_555 1_555
C13_2 C10_2 1_555 1_555
H5_2 C13_2 1_555 1_555
C14_2 O7_2 1_555 1_555
C15_2 C12_2 1_555 1_555
Zn3_2 O15_2 1_555 1_555
O13_2 Zn1_2 1_555 1_555
O14_2 C25_2 1_555 1_555
O15_2 C26_2 1_555 1_555
O16_2 C26_2 1_555 1_555
O17_2 C27_2 1_555 1_555
O18_2 C27_2 1_555 1_555
C19_2 C20_2 1_555 1_555
C20_2 H7_2 1_555 1_555
C21_2 C20_2 1_555 1_555
C22_2 C21_2 1_555 1_555
H8_2 C22_2 1_555 1_555
C23_2 C22_2 1_555 1_555
C24_2 C19_2 1_555 1_555
H9_2 C24_2 1_555 1_555
C25_2 O13_2 1_555 1_555
C26_2 C21_2 1_555 1_555
C27_2 C23_2 1_555 1_555
Zn5_2 O16_2 1_555 1_555
Zn7_2 O5_2 1_555 1_555
Zn8_2 O9_2 1_555 1_555
Zn9_2 O17_2 1_555 1_555
O19_2 Zn3_2 1_555 1_555
O21_2 Zn5 1_555 1_555
O22_2 Zn3_2 1_555 1_555
O23_2 Zn5 1_555 1_555
O24_2 Zn3_2 1_555 1_555
O25_2 Zn1_2 1_555 1_555
O26_2 Zn5 1_555 1_555
O27_2 Zn3_2 1_555 1_555
O6_2 Zn7_2 1_555 1_555
C5_2 C6_2 1_555 1_555
C10_2 C14_2 1_555 1_555
O18_2 Zn9_2 1_555 1_555
C19_2 C25_2 1_555 1_555
C23_2 C24_2 1_555 1_555
H5_3 C13_3 1_555 1_555
C15_3 C12_3 1_555 1_555
O10_2 C18_2 1_555 1_555
O11_2 C18_2 1_555 1_555
O12_2 C15_3 1_555 1_555
C16_2 C13_3 1_555 1_555
C17_2 C12_3 1_555 1_555
H6_2 C17_2 1_555 1_555
C18_2 C16_2 1_555 1_555
Zn4_2 O10_2 1_555 1_555
Zn10_2 O12_2 1_555 1_555
C16_2 C17_2 1_555 1_555
H5_4 C13_4 1_555 1_555
C15_4 C12_4 1_555 1_555
O10_3 C18_3 1_555 1_555
O11_3 C18_3 1_555 1_555
O12_3 C15_4 1_555 1_555
C16_3 C13_4 1_555 1_555
C17_3 C12_4 1_555 1_555
H6_3 C17_3 1_555 1_555
C18_3 C16_3 1_555 1_555
Zn4_3 O10_3 1_555 1_555
Zn10_3 O12_3 1_555 1_555
C16_3 C17_3 1_555 1_555
Zn1_3 O1_3 1_555 1_555
Zn5_2 O3_3 1_555 1_555
O1_3 C7_3 1_555 1_555
O2_3 C7_3 1_555 1_555
O3_3 C8_3 1_555 1_555
O19_2 C8_3 1_555 1_555
O5_3 C9_3 1_555 1_555
O6_3 C9_3 1_555 1_555
C1_3 C2_3 1_555 1_555
C2_3 H1_3 1_555 1_555
C3_3 C2_3 1_555 1_555
C4_3 C3_3 1_555 1_555
H2_3 C4_3 1_555 1_555
C5_3 C4_3 1_555 1_555
C6_3 C1_3 1_555 1_555
H3_3 C6_3 1_555 1_555
C7_3 C1_3 1_555 1_555
C8_3 C3_3 1_555 1_555
C9_3 C5_3 1_555 1_555
O7_3 Zn1_3 1_555 1_555
O8_3 C14_3 1_555 1_555
O9_3 C15_5 1_555 1_555
C10_3 C11_3 1_555 1_555
C11_3 H4_3 1_555 1_555
C12_5 C11_3 1_555 1_555
C13_5 C10_3 1_555 1_555
H5_5 C13_5 1_555 1_555
C14_3 O7_3 1_555 1_555
C15_5 C12_5 1_555 1_555
Zn6 O15_3 1_555 1_555
O13_3 Zn1_3 1_555 1_555
O14_3 C25_3 1_555 1_555
O15_3 C26_3 1_555 1_555
O20 C26_3 1_555 1_555
O17_3 C27_3 1_555 1_555
O18_3 C27_3 1_555 1_555
C19_3 C20_3 1_555 1_555
C20_3 H7_3 1_555 1_555
C21_3 C20_3 1_555 1_555
C22_3 C21_3 1_555 1_555
H8_3 C22_3 1_555 1_555
C23_3 C22_3 1_555 1_555
C24_3 C19_3 1_555 1_555
H9_3 C24_3 1_555 1_555
C25_3 O13_3 1_555 1_555
C26_3 C21_3 1_555 1_555
C27_3 C23_3 1_555 1_555
Zn7_3 O5_3 1_555 1_555
Zn8_3 O9_3 1_555 1_555
Zn9_3 O17_3 1_555 1_555
O21_3 Zn5_2 1_555 1_555
O22_3 Zn6 1_555 1_555
O23_3 Zn5_2 1_555 1_555
O24_3 Zn6 1_555 1_555
O25_3 Zn1_3 1_555 1_555
O26_3 Zn5_2 1_555 1_555
O27_3 Zn6 1_555 1_555
O6_3 Zn7_3 1_555 1_555
C5_3 C6_3 1_555 1_555
C10_3 C14_3 1_555 1_555
O18_3 Zn9_3 1_555 1_555
C19_3 C25_3 1_555 1_555
C23_3 C24_3 1_555 1_555
O5_4 C9_4 1_555 1_555
O6_4 C9_4 1_555 1_555
C4_4 C3_4 1_555 1_555
H2_4 C4_4 1_555 1_555
C5_4 C4_4 1_555 1_555
H3_4 C6_4 1_555 1_555
C9_4 C5_4 1_555 1_555
Zn6_2 O4_2 1_555 1_555
Zn7_4 O5_4 1_555 1_555
O19_3 Zn3_3 1_555 1_555
O22_4 Zn3_3 1_555 1_555
O24_4 Zn3_3 1_555 1_555
O6_4 Zn7_4 1_555 1_555
C5_4 C6_4 1_555 1_555
Zn4 O1_4 1_555 1_555
Zn2_2 O3_4 1_555 1_555
O1_4 C7_4 1_555 1_555
O2_4 C7_4 1_555 1_555
O3_4 C8_4 1_555 1_555
C1_4 C2_4 1_555 1_555
C2_4 H1_4 1_555 1_555
C7_4 C1_4 1_555 1_555
O13_4 Zn4 1_555 1_555
O14_4 C25_4 1_555 1_555
O15_4 C26_4 1_555 1_555
O16_3 C26_4 1_555 1_555
O17_4 C27_4 1_555 1_555
O18_4 C27_4 1_555 1_555
C19_4 C20_4 1_555 1_555
C20_4 H7_4 1_555 1_555
C21_4 C20_4 1_555 1_555
C22_4 C21_4 1_555 1_555
H8_4 C22_4 1_555 1_555
C23_4 C22_4 1_555 1_555
C24_4 C19_4 1_555 1_555
H9_4 C24_4 1_555 1_555
C25_4 O13_4 1_555 1_555
C26_4 C21_4 1_555 1_555
C27_4 C23_4 1_555 1_555
Zn5_3 O16_3 1_555 1_555
Zn9_4 O17_4 1_555 1_555
O20_2 Zn2_2 1_555 1_555
O21_4 Zn2_2 1_555 1_555
O23_4 Zn2_2 1_555 1_555
O25_4 Zn4 1_555 1_555
O26_4 Zn2_2 1_555 1_555
O18_4 Zn9_4 1_555 1_555
C19_4 C25_4 1_555 1_555
C23_4 C24_4 1_555 1_555
O5_5 C9_5 1_555 1_555
O6_5 C9_5 1_555 1_555
C4_5 C3_5 1_555 1_555
H2_5 C4_5 1_555 1_555
C5_5 C4_5 1_555 1_555
H3_5 C6_5 1_555 1_555
C9_5 C5_5 1_555 1_555
Zn7_5 O5_5 1_555 1_555
O19_4 Zn3_4 1_555 1_555
O22_5 Zn3_4 1_555 1_555
O24_5 Zn3_4 1_555 1_555
O6_5 Zn7_5 1_555 1_555
C5_5 C6_5 1_555 1_555
Zn4_3 O1_5 1_555 1_555
Zn5_3 O3_5 1_555 1_555
O1_5 C7_5 1_555 1_555
O2_5 C7_5 1_555 1_555
O3_5 C8_5 1_555 1_555
C1_5 C2_5 1_555 1_555
C2_5 H1_5 1_555 1_555
C7_5 C1_5 1_555 1_555
O13_5 Zn4_3 1_555 1_555
O14_5 C25_5 1_555 1_555
O15_5 C26_5 1_555 1_555
O16_4 C26_5 1_555 1_555
O17_5 C27_5 1_555 1_555
O18_5 C27_5 1_555 1_555
C19_5 C20_5 1_555 1_555
C20_5 H7_5 1_555 1_555
C21_5 C20_5 1_555 1_555
C22_5 C21_5 1_555 1_555
H8_5 C22_5 1_555 1_555
C23_5 C22_5 1_555 1_555
C24_5 C19_5 1_555 1_555
H9_5 C24_5 1_555 1_555
C25_5 O13_5 1_555 1_555
C26_5 C21_5 1_555 1_555
C27_5 C23_5 1_555 1_555
Zn5_4 O16_4 1_555 1_555
Zn9_5 O17_5 1_555 1_555
O21_5 Zn5_3 1_555 1_555
O23_5 Zn5_3 1_555 1_555
O25_5 Zn4_3 1_555 1_555
O26_5 Zn5_3 1_555 1_555
O18_5 Zn9_5 1_555 1_555
C19_5 C25_5 1_555 1_555
C23_5 C24_5 1_555 1_555
O5_6 C9_6 1_555 1_555
O6_6 C9_6 1_555 1_555
C4_6 C3_6 1_555 1_555
H2_6 C4_6 1_555 1_555
C5_6 C4_6 1_555 1_555
H3_6 C6_6 1_555 1_555
C9_6 C5_6 1_555 1_555
Zn7_6 O5_6 1_555 1_555
O22_6 Zn6_2 1_555 1_555
O24_6 Zn6_2 1_555 1_555
O6_6 Zn7_6 1_555 1_555
C5_6 C6_6 1_555 1_555
Zn4_2 O1_6 1_555 1_555
Zn5_4 O3_6 1_555 1_555
O1_6 C7_6 1_555 1_555
O2_6 C7_6 1_555 1_555
O3_6 C8_6 1_555 1_555
C1_6 C2_6 1_555 1_555
C2_6 H1_6 1_555 1_555
C7_6 C1_6 1_555 1_555
O13_6 Zn4_2 1_555 1_555
O14_6 C25_6 1_555 1_555
O15_6 C26_6 1_555 1_555
O20_2 C26_6 1_555 1_555
O17_6 C27_6 1_555 1_555
O18_6 C27_6 1_555 1_555
C19_6 C20_6 1_555 1_555
C20_6 H7_6 1_555 1_555
C21_6 C20_6 1_555 1_555
C22_6 C21_6 1_555 1_555
H8_6 C22_6 1_555 1_555
C23_6 C22_6 1_555 1_555
C24_6 C19_6 1_555 1_555
H9_6 C24_6 1_555 1_555
C25_6 O13_6 1_555 1_555
C26_6 C21_6 1_555 1_555
C27_6 C23_6 1_555 1_555
Zn9_6 O17_6 1_555 1_555
O21_6 Zn5_4 1_555 1_555
O23_6 Zn5_4 1_555 1_555
O25_6 Zn4_2 1_555 1_555
O26_6 Zn5_4 1_555 1_555
O18_6 Zn9_6 1_555 1_555
C19_6 C25_6 1_555 1_555
C23_6 C24_6 1_555 1_555
O9_4 C15_6 1_555 1_555
C10_4 C11_4 1_555 1_555
C11_4 H4_4 1_555 1_555
C12_6 C11_4 1_555 1_555
C13_6 C10_4 1_555 1_555
C15_6 C12_6 1_555 1_555
O10_4 C18_4 1_555 1_555
O11_4 C18_4 1_555 1_555
O12_4 C15_6 1_555 1_555
C16_4 C13_6 1_555 1_555
C17_4 C12_6 1_555 1_555
H6_4 C17_4 1_555 1_555
C18_4 C16_4 1_555 1_555
Zn4_4 O10_4 1_555 1_555
Zn7_2 O12_4 1_555 1_555
C16_4 C17_4 1_555 1_555
O8_4 C14_4 1_555 1_555
C14_4 O25_6 1_555 1_555
O8_5 C14_5 1_555 1_555
C14_5 O25_5 1_555 1_555
O9_5 C15_7 1_555 1_555
C10_5 C11_5 1_555 1_555
C11_5 H4_5 1_555 1_555
C12_7 C11_5 1_555 1_555
C13_7 C10_5 1_555 1_555
C15_7 C12_7 1_555 1_555
O10_5 C18_5 1_555 1_555
O11_5 C18_5 1_555 1_555
O12_5 C15_7 1_555 1_555
C16_5 C13_7 1_555 1_555
C17_5 C12_7 1_555 1_555
H6_5 C17_5 1_555 1_555
C18_5 C16_5 1_555 1_555
Zn4_7 O10_5 1_555 1_555
Zn7_3 O12_5 1_555 1_555
C16_5 C17_5 1_555 1_555
O9_6 C15_8 1_555 1_555
C10_6 C11_6 1_555 1_555
C11_6 H4_6 1_555 1_555
C12_8 C11_6 1_555 1_555
C13_8 C10_6 1_555 1_555
H5_8 C13_8 1_555 1_555
C15_8 C12_8 1_555 1_555
O10_6 C18_6 1_555 1_555
O11_6 C18_6 1_555 1_555
O12_6 C15_8 1_555 1_555
C16_6 C13_8 1_555 1_555
C17_6 C12_8 1_555 1_555
H6_6 C17_6 1_555 1_555
C18_6 C16_6 1_555 1_555
Zn4_8 O10_6 1_555 1_555
Zn7 O12_6 1_555 1_555
C16_6 C17_6 1_555 1_555
O8_6 C14_6 1_555 1_555
C14_6 O25_4 1_555 1_555
Zn4_4 O1_7 1_555 1_555
Zn2_3 O3_7 1_555 1_555
O1_7 C7_7 1_555 1_555
O2_7 C7_7 1_555 1_555
O3_7 C8_7 1_555 1_555
O4_3 C8_7 1_555 1_555
O5_7 C9_7 1_555 1_555
O6_7 C9_7 1_555 1_555
C1_7 C2_7 1_555 1_555
C2_7 H1_7 1_555 1_555
C3_7 C2_7 1_555 1_555
C4_7 C3_7 1_555 1_555
H2_7 C4_7 1_555 1_555
C5_7 C4_7 1_555 1_555
C6_7 C1_7 1_555 1_555
H3_7 C6_7 1_555 1_555
C7_7 C1_7 1_555 1_555
C8_7 C3_7 1_555 1_555
C9_7 C5_7 1_555 1_555
Zn6_3 O4_3 1_555 1_555
Zn8_2 O5_7 1_555 1_555
O20_3 Zn2_3 1_555 1_555
O21_7 Zn2_3 1_555 1_555
O23_7 Zn2_3 1_555 1_555
O26_7 Zn2_3 1_555 1_555
O6_7 Zn8_2 1_555 1_555
C5_7 C6_7 1_555 1_555
Zn3_5 O15_7 1_555 1_555
O13_7 Zn4_5 1_555 1_555
O14_7 C25_7 1_555 1_555
O15_7 C26_7 1_555 1_555
O16_5 C26_7 1_555 1_555
C19_7 C20_7 1_555 1_555
C20_7 H7_7 1_555 1_555
C21_7 C20_7 1_555 1_555
C22_7 C21_7 1_555 1_555
H8_7 C22_7 1_555 1_555
C23_7 C22_7 1_555 1_555
C24_7 C19_7 1_555 1_555
H9_7 C24_7 1_555 1_555
C25_7 O13_7 1_555 1_555
C26_7 C21_7 1_555 1_555
O22_7 Zn3_5 1_555 1_555
O24_7 Zn3_5 1_555 1_555
O25_7 Zn4_5 1_555 1_555
O27_7 Zn3_5 1_555 1_555
C19_7 C25_7 1_555 1_555
C23_7 C24_7 1_555 1_555
O17_7 C27_7 1_555 1_555
O18_7 C27_7 1_555 1_555
Zn10_2 O17_7 1_555 1_555
O18_7 Zn10_2 1_555 1_555
Zn4_8 O1_8 1_555 1_555
Zn5_5 O3_8 1_555 1_555
O1_8 C7_8 1_555 1_555
O2_8 C7_8 1_555 1_555
O3_8 C8_8 1_555 1_555
O19_5 C8_8 1_555 1_555
O5_8 C9_8 1_555 1_555
O6_8 C9_8 1_555 1_555
C1_8 C2_8 1_555 1_555
C2_8 H1_8 1_555 1_555
C3_8 C2_8 1_555 1_555
C4_8 C3_8 1_555 1_555
H2_8 C4_8 1_555 1_555
C5_8 C4_8 1_555 1_555
C6_8 C1_8 1_555 1_555
H3_8 C6_8 1_555 1_555
C7_8 C1_8 1_555 1_555
C8_8 C3_8 1_555 1_555
C9_8 C5_8 1_555 1_555
Zn3_6 O15_8 1_555 1_555
O13_8 Zn4_8 1_555 1_555
O14_8 C25_8 1_555 1_555
O15_8 C26_8 1_555 1_555
O16_6 C26_8 1_555 1_555
C19_8 C20_8 1_555 1_555
C20_8 H7_8 1_555 1_555
C21_8 C20_8 1_555 1_555
C22_8 C21_8 1_555 1_555
H8_8 C22_8 1_555 1_555
C23_8 C22_8 1_555 1_555
C24_8 C19_8 1_555 1_555
H9_8 C24_8 1_555 1_555
C25_8 O13_8 1_555 1_555
C26_8 C21_8 1_555 1_555
Zn8 O5_8 1_555 1_555
O21_8 Zn5_5 1_555 1_555
O22_8 Zn3_6 1_555 1_555
O23_8 Zn5_5 1_555 1_555
O24_8 Zn3_6 1_555 1_555
O25_8 Zn4_8 1_555 1_555
O26_8 Zn5_5 1_555 1_555
O27_8 Zn3_6 1_555 1_555
O6_8 Zn8 1_555 1_555
C5_8 C6_8 1_555 1_555
C19_8 C25_8 1_555 1_555
C23_8 C24_8 1_555 1_555
O17_8 C27_8 1_555 1_555
O18_8 C27_8 1_555 1_555
Zn10 O17_8 1_555 1_555
O18_8 Zn10 1_555 1_555
Zn6_3 O15_9 1_555 1_555
O13_9 Zn4_6 1_555 1_555
O14_9 C25_9 1_555 1_555
O15_9 C26_9 1_555 1_555
O20_3 C26_9 1_555 1_555
C19_9 C20_9 1_555 1_555
C20_9 H7_9 1_555 1_555
C21_9 C20_9 1_555 1_555
C22_9 C21_9 1_555 1_555
H8_9 C22_9 1_555 1_555
C23_9 C22_9 1_555 1_555
C24_9 C19_9 1_555 1_555
H9_9 C24_9 1_555 1_555
C25_9 O13_9 1_555 1_555
C26_9 C21_9 1_555 1_555
O22_9 Zn6_3 1_555 1_555
O24_9 Zn6_3 1_555 1_555
O25_9 Zn4_6 1_555 1_555
O27_9 Zn6_3 1_555 1_555
C19_9 C25_9 1_555 1_555
C23_9 C24_9 1_555 1_555
O17_9 C27_9 1_555 1_555
O18_9 C27_9 1_555 1_555
Zn10_3 O17_9 1_555 1_555
O18_9 Zn10_3 1_555 1_555
Zn4_7 O1_9 1_555 1_555
Zn5_6 O3_9 1_555 1_555
O1_9 C7_9 1_555 1_555
O2_9 C7_9 1_555 1_555
O3_9 C8_9 1_555 1_555
O19_6 C8_9 1_555 1_555
O5_9 C9_9 1_555 1_555
O6_9 C9_9 1_555 1_555
C1_9 C2_9 1_555 1_555
C2_9 H1_9 1_555 1_555
C3_9 C2_9 1_555 1_555
C4_9 C3_9 1_555 1_555
H2_9 C4_9 1_555 1_555
C5_9 C4_9 1_555 1_555
C6_9 C1_9 1_555 1_555
H3_9 C6_9 1_555 1_555
C7_9 C1_9 1_555 1_555
C8_9 C3_9 1_555 1_555
C9_9 C5_9 1_555 1_555
Zn8_3 O5_9 1_555 1_555
O21_9 Zn5_6 1_555 1_555
O23_9 Zn5_6 1_555 1_555
O26_9 Zn5_6 1_555 1_555
O6_9 Zn8_3 1_555 1_555
C5_9 C6_9 1_555 1_555
O8_7 C14_7 1_555 1_555
O9_7 C15_9 1_555 1_555
C10_7 C11_7 1_555 1_555
C11_7 H4_7 1_555 1_555
C12_9 C11_7 1_555 1_555
C13_9 C10_7 1_555 1_555
C14_7 O25_9 1_555 1_555
C15_9 C12_9 1_555 1_555
O12_7 C15_9 1_555 1_555
C16_7 C13_9 1_555 1_555
C17_7 C12_9 1_555 1_555
H6_7 C17_7 1_555 1_555
Zn7_5 O9_7 1_555 1_555
Zn9_5 O12_7 1_555 1_555
C10_7 C14_7 1_555 1_555
C16_7 C17_7 1_555 1_555
O25_3 C18_7 1_555 1_555
O11_7 C18_7 1_555 1_555
O8_8 C14_8 1_555 1_555
O9_8 C15_10 1_555 1_555
C10_8 C11_8 1_555 1_555
C11_8 H4_8 1_555 1_555
C12_10 C11_8 1_555 1_555
C13_10 C10_8 1_555 1_555
H5_10 C13_10 1_555 1_555
C14_8 O25_8 1_555 1_555
C15_10 C12_10 1_555 1_555
O25 C18_8 1_555 1_555
O11_8 C18_8 1_555 1_555
O12_8 C15_10 1_555 1_555
C16_8 C13_10 1_555 1_555
C17_8 C12_10 1_555 1_555
H6_8 C17_8 1_555 1_555
C18_8 C16_8 1_555 1_555
Zn7_4 O9_8 1_555 1_555
Zn9_4 O12_8 1_555 1_555
C10_8 C14_8 1_555 1_555
C16_8 C17_8 1_555 1_555
O25_2 C18_9 1_555 1_555
O11_9 C18_9 1_555 1_555
O8_9 C14_9 1_555 1_555
O9_9 C15_11 1_555 1_555
C10_9 C11_9 1_555 1_555
C11_9 H4_9 1_555 1_555
C12_11 C11_9 1_555 1_555
C13_11 C10_9 1_555 1_555
C14_9 O25_7 1_555 1_555
C15_11 C12_11 1_555 1_555
O12_9 C15_11 1_555 1_555
C16_9 C13_11 1_555 1_555
C17_9 C12_11 1_555 1_555
H6_9 C17_9 1_555 1_555
Zn7_6 O9_9 1_555 1_555
Zn9_6 O12_9 1_555 1_555
C10_9 C14_9 1_555 1_555
C16_9 C17_9 1_555 1_555
Zn1_4 O1_10 1_555 1_555
Zn7_5 O3_10 1_555 1_555
O1_10 C7_10 1_555 1_555
O2_10 C7_10 1_555 1_555
O3_10 C8_10 1_555 1_555
O4_4 C8_10 1_555 1_555
O21_5 C9_10 1_555 1_555
O23_5 C9_10 1_555 1_555
C1_10 C2_10 1_555 1_555
C2_10 H1_10 1_555 1_555
C3_10 C2_10 1_555 1_555
C4_10 C3_10 1_555 1_555
H2_10 C4_10 1_555 1_555
C5_10 C4_10 1_555 1_555
C6_10 C1_10 1_555 1_555
H3_10 C6_10 1_555 1_555
C7_10 C1_10 1_555 1_555
C8_10 C3_10 1_555 1_555
C9_10 C5_10 1_555 1_555
O7_4 Zn1_4 1_555 1_555
O8_10 C14_10 1_555 1_555
O27_9 C15_12 1_555 1_555
C10_10 C11_10 1_555 1_555
C11_10 H4_10 1_555 1_555
C12_12 C11_10 1_555 1_555
C13_12 C10_10 1_555 1_555
H5_12 C13_12 1_555 1_555
C14_10 O7_4 1_555 1_555
C15_12 C12_12 1_555 1_555
O10_7 C18_10 1_555 1_555
O11_10 C18_10 1_555 1_555
O26_7 C15_12 1_555 1_555
C16_10 C13_12 1_555 1_555
C17_10 C12_12 1_555 1_555
H6_10 C17_10 1_555 1_555
C18_10 C16_10 1_555 1_555
Zn9_4 O15_10 1_555 1_555
O13_10 Zn1_4 1_555 1_555
O14_10 C25_10 1_555 1_555
O15_10 C26_10 1_555 1_555
O16_7 C26_10 1_555 1_555
O22_4 C27_10 1_555 1_555
O24_4 C27_10 1_555 1_555
C19_10 C20_10 1_555 1_555
C20_10 H7_10 1_555 1_555
C21_10 C20_10 1_555 1_555
C22_10 C21_10 1_555 1_555
H8_10 C22_10 1_555 1_555
C23_10 C22_10 1_555 1_555
C24_10 C19_10 1_555 1_555
H9_10 C24_10 1_555 1_555
C25_10 O13_10 1_555 1_555
C26_10 C21_10 1_555 1_555
C27_10 C23_10 1_555 1_555
Zn4_9 O10_7 1_555 1_555
Zn7_4 O16_7 1_555 1_555
Zn9_5 O4_4 1_555 1_555
O19_7 Zn9_4 1_555 1_555
O20_4 Zn7_5 1_555 1_555
O25_10 Zn1_4 1_555 1_555
C5_10 C6_10 1_555 1_555
C10_10 C14_10 1_555 1_555
C16_10 C17_10 1_555 1_555
C19_10 C25_10 1_555 1_555
C23_10 C24_10 1_555 1_555
H5_13 C13_13 1_555 1_555
C15_13 C12_13 1_555 1_555
O10_8 C18_11 1_555 1_555
O11_11 C18_11 1_555 1_555
O26_9 C15_13 1_555 1_555
C16_11 C13_13 1_555 1_555
C17_11 C12_13 1_555 1_555
H6_11 C17_11 1_555 1_555
C18_11 C16_11 1_555 1_555
Zn4_10 O10_8 1_555 1_555
C16_11 C17_11 1_555 1_555
Zn1_5 O1_11 1_555 1_555
Zn7_4 O3_11 1_555 1_555
O1_11 C7_11 1_555 1_555
O2_11 C7_11 1_555 1_555
O3_11 C8_11 1_555 1_555
O19_7 C8_11 1_555 1_555
O21_4 C9_11 1_555 1_555
O23_4 C9_11 1_555 1_555
C1_11 C2_11 1_555 1_555
C2_11 H1_11 1_555 1_555
C3_11 C2_11 1_555 1_555
C4_11 C3_11 1_555 1_555
H2_11 C4_11 1_555 1_555
C5_11 C4_11 1_555 1_555
C6_11 C1_11 1_555 1_555
H3_11 C6_11 1_555 1_555
C7_11 C1_11 1_555 1_555
C8_11 C3_11 1_555 1_555
C9_11 C5_11 1_555 1_555
O7_5 Zn1_5 1_555 1_555
O8_11 C14_11 1_555 1_555
O27_8 C15_14 1_555 1_555
C10_11 C11_11 1_555 1_555
C11_11 H4_11 1_555 1_555
C12_14 C11_11 1_555 1_555
C13_14 C10_11 1_555 1_555
H5_14 C13_14 1_555 1_555
C14_11 O7_5 1_555 1_555
C15_14 C12_14 1_555 1_555
Zn9_6 O15_11 1_555 1_555
O13_11 Zn1_5 1_555 1_555
O14_11 C25_11 1_555 1_555
O15_11 C26_11 1_555 1_555
O16_8 C26_11 1_555 1_555
O22_6 C27_11 1_555 1_555
O24_6 C27_11 1_555 1_555
C19_11 C20_11 1_555 1_555
C20_11 H7_11 1_555 1_555
C21_11 C20_11 1_555 1_555
C22_11 C21_11 1_555 1_555
H8_11 C22_11 1_555 1_555
C23_11 C22_11 1_555 1_555
C24_11 C19_11 1_555 1_555
H9_11 C24_11 1_555 1_555
C25_11 O13_11 1_555 1_555
C26_11 C21_11 1_555 1_555
C27_11 C23_11 1_555 1_555
Zn7_6 O16_8 1_555 1_555
O19_8 Zn9_6 1_555 1_555
O25_11 Zn1_5 1_555 1_555
C5_11 C6_11 1_555 1_555
C10_11 C14_11 1_555 1_555
C19_11 C25_11 1_555 1_555
C23_11 C24_11 1_555 1_555
Zn1_6 O1_12 1_555 1_555
Zn7_6 O3_12 1_555 1_555
O1_12 C7_12 1_555 1_555
O2_12 C7_12 1_555 1_555
O3_12 C8_12 1_555 1_555
O19_8 C8_12 1_555 1_555
O21_6 C9_12 1_555 1_555
O23_6 C9_12 1_555 1_555
C1_12 C2_12 1_555 1_555
C2_12 H1_12 1_555 1_555
C3_12 C2_12 1_555 1_555
C4_12 C3_12 1_555 1_555
H2_12 C4_12 1_555 1_555
C5_12 C4_12 1_555 1_555
C6_12 C1_12 1_555 1_555
H3_12 C6_12 1_555 1_555
C7_12 C1_12 1_555 1_555
C8_12 C3_12 1_555 1_555
C9_12 C5_12 1_555 1_555
O7_6 Zn1_6 1_555 1_555
O8_12 C14_12 1_555 1_555
O27_7 C15_15 1_555 1_555
C10_12 C11_12 1_555 1_555
C11_12 H4_12 1_555 1_555
C12_15 C11_12 1_555 1_555
C13_15 C10_12 1_555 1_555
H5_15 C13_15 1_555 1_555
C14_12 O7_6 1_555 1_555
C15_15 C12_15 1_555 1_555
Zn9_5 O15_12 1_555 1_555
O13_12 Zn1_6 1_555 1_555
O14_12 C25_12 1_555 1_555
O15_12 C26_12 1_555 1_555
O20_4 C26_12 1_555 1_555
O22_5 C27_12 1_555 1_555
O24_5 C27_12 1_555 1_555
C19_12 C20_12 1_555 1_555
C20_12 H7_12 1_555 1_555
C21_12 C20_12 1_555 1_555
C22_12 C21_12 1_555 1_555
H8_12 C22_12 1_555 1_555
C23_12 C22_12 1_555 1_555
C24_12 C19_12 1_555 1_555
H9_12 C24_12 1_555 1_555
C25_12 O13_12 1_555 1_555
C26_12 C21_12 1_555 1_555
C27_12 C23_12 1_555 1_555
O25_12 Zn1_6 1_555 1_555
C5_12 C6_12 1_555 1_555
C10_12 C14_12 1_555 1_555
C19_12 C25_12 1_555 1_555
C23_12 C24_12 1_555 1_555
H5_16 C13_16 1_555 1_555
C15_16 C12_16 1_555 1_555
O10_9 C18_12 1_555 1_555
O11_12 C18_12 1_555 1_555
O26_8 C15_16 1_555 1_555
C16_12 C13_16 1_555 1_555
C17_12 C12_16 1_555 1_555
H6_12 C17_12 1_555 1_555
C18_12 C16_12 1_555 1_555
Zn4_11 O10_9 1_555 1_555
C16_12 C17_12 1_555 1_555
Zn4_9 O1_13 1_555 1_555
Zn7_2 O3_13 1_555 1_555
O1_13 C7_13 1_555 1_555
O2_13 C7_13 1_555 1_555
O3_13 C8_13 1_555 1_555
C1_13 C2_13 1_555 1_555
C2_13 H1_13 1_555 1_555
C7_13 C1_13 1_555 1_555
O13_13 Zn4_9 1_555 1_555
O14_13 C25_13 1_555 1_555
O15_13 C26_13 1_555 1_555
O16_9 C26_13 1_555 1_555
O22 C27_13 1_555 1_555
O24 C27_13 1_555 1_555
C19_13 C20_13 1_555 1_555
C20_13 H7_13 1_555 1_555
C21_13 C20_13 1_555 1_555
C22_13 C21_13 1_555 1_555
H8_13 C22_13 1_555 1_555
C23_13 C22_13 1_555 1_555
C24_13 C19_13 1_555 1_555
H9_13 C24_13 1_555 1_555
C25_13 O13_13 1_555 1_555
C26_13 C21_13 1_555 1_555
C27_13 C23_13 1_555 1_555
Zn7 O16_9 1_555 1_555
O20_5 Zn7_2 1_555 1_555
O25_13 Zn4_9 1_555 1_555
C19_13 C25_13 1_555 1_555
C23_13 C24_13 1_555 1_555
O21_2 C9_13 1_555 1_555
O23_2 C9_13 1_555 1_555
C4_13 C3_13 1_555 1_555
H2_13 C4_13 1_555 1_555
C5_13 C4_13 1_555 1_555
H3_13 C6_13 1_555 1_555
C9_13 C5_13 1_555 1_555
Zn9_2 O4_5 1_555 1_555
O19_9 Zn9 1_555 1_555
C5_13 C6_13 1_555 1_555
Zn4_11 O1_14 1_555 1_555
Zn7 O3_14 1_555 1_555
O1_14 C7_14 1_555 1_555
O2_14 C7_14 1_555 1_555
O3_14 C8_14 1_555 1_555
C1_14 C2_14 1_555 1_555
C2_14 H1_14 1_555 1_555
C7_14 C1_14 1_555 1_555
O13_14 Zn4_11 1_555 1_555
O14_14 C25_14 1_555 1_555
O15_14 C26_14 1_555 1_555
O16_10 C26_14 1_555 1_555
O22_3 C27_14 1_555 1_555
O24_3 C27_14 1_555 1_555
C19_14 C20_14 1_555 1_555
C20_14 H7_14 1_555 1_555
C21_14 C20_14 1_555 1_555
C22_14 C21_14 1_555 1_555
H8_14 C22_14 1_555 1_555
C23_14 C22_14 1_555 1_555
C24_14 C19_14 1_555 1_555
H9_14 C24_14 1_555 1_555
C25_14 O13_14 1_555 1_555
C26_14 C21_14 1_555 1_555
C27_14 C23_14 1_555 1_555
Zn7_3 O16_10 1_555 1_555
O25_14 Zn4_11 1_555 1_555
C19_14 C25_14 1_555 1_555
C23_14 C24_14 1_555 1_555
O21 C9_14 1_555 1_555
O23 C9_14 1_555 1_555
C4_14 C3_14 1_555 1_555
H2_14 C4_14 1_555 1_555
C5_14 C4_14 1_555 1_555
H3_14 C6_14 1_555 1_555
C9_14 C5_14 1_555 1_555
O19_10 Zn9_3 1_555 1_555
C5_14 C6_14 1_555 1_555
Zn4_10 O1_15 1_555 1_555
Zn7_3 O3_15 1_555 1_555
O1_15 C7_15 1_555 1_555
O2_15 C7_15 1_555 1_555
O3_15 C8_15 1_555 1_555
C1_15 C2_15 1_555 1_555
C2_15 H1_15 1_555 1_555
C7_15 C1_15 1_555 1_555
O13_15 Zn4_10 1_555 1_555
O14_15 C25_15 1_555 1_555
O15_15 C26_15 1_555 1_555
O20_5 C26_15 1_555 1_555
O22_2 C27_15 1_555 1_555
O24_2 C27_15 1_555 1_555
C19_15 C20_15 1_555 1_555
C20_15 H7_15 1_555 1_555
C21_15 C20_15 1_555 1_555
C22_15 C21_15 1_555 1_555
H8_15 C22_15 1_555 1_555
C23_15 C22_15 1_555 1_555
C24_15 C19_15 1_555 1_555
H9_15 C24_15 1_555 1_555
C25_15 O13_15 1_555 1_555
C26_15 C21_15 1_555 1_555
C27_15 C23_15 1_555 1_555
O25_15 Zn4_10 1_555 1_555
C19_15 C25_15 1_555 1_555
C23_15 C24_15 1_555 1_555
O21_3 C9_15 1_555 1_555
O23_3 C9_15 1_555 1_555
C4_15 C3_15 1_555 1_555
H2_15 C4_15 1_555 1_555
C5_15 C4_15 1_555 1_555
H3_15 C6_15 1_555 1_555
C9_15 C5_15 1_555 1_555
C5_15 C6_15 1_555 1_555
O8_13 C14_13 1_555 1_555
C14_13 O25_15 1_555 1_555
O27_6 C15_17 1_555 1_555
C10_13 C11_13 1_555 1_555
C11_13 H4_13 1_555 1_555
C12_17 C11_13 1_555 1_555
C13_17 C10_13 1_555 1_555
C15_17 C12_17 1_555 1_555
O10_10 C18_13 1_555 1_555
O11_13 C18_13 1_555 1_555
O26_4 C15_17 1_555 1_555
C16_13 C13_17 1_555 1_555
C17_13 C12_17 1_555 1_555
H6_13 C17_13 1_555 1_555
C18_13 C16_13 1_555 1_555
Zn4_13 O10_10 1_555 1_555
C16_13 C17_13 1_555 1_555
O27_5 C15_18 1_555 1_555
C10_14 C11_14 1_555 1_555
C11_14 H4_14 1_555 1_555
C12_18 C11_14 1_555 1_555
C13_18 C10_14 1_555 1_555
C15_18 C12_18 1_555 1_555
O10_11 C18_14 1_555 1_555
O11_14 C18_14 1_555 1_555
O26_6 C15_18 1_555 1_555
C16_14 C13_18 1_555 1_555
C17_14 C12_18 1_555 1_555
H6_14 C17_14 1_555 1_555
C18_14 C16_14 1_555 1_555
Zn4_14 O10_11 1_555 1_555
C16_14 C17_14 1_555 1_555
O8_14 C14_14 1_555 1_555
C14_14 O25_14 1_555 1_555
O8_15 C14_15 1_555 1_555
C14_15 O25_13 1_555 1_555
O27_4 C15_19 1_555 1_555
C10_15 C11_15 1_555 1_555
C11_15 H4_15 1_555 1_555
C12_19 C11_15 1_555 1_555
C13_19 C10_15 1_555 1_555
H5_19 C13_19 1_555 1_555
C15_19 C12_19 1_555 1_555
O10_12 C18_15 1_555 1_555
O11_15 C18_15 1_555 1_555
O26_5 C15_19 1_555 1_555
C16_15 C13_19 1_555 1_555
C17_15 C12_19 1_555 1_555
H6_15 C17_15 1_555 1_555
C18_15 C16_15 1_555 1_555
Zn4_16 O10_12 1_555 1_555
C16_15 C17_15 1_555 1_555
O21_9 C27_16 1_555 1_555
O23_9 C27_16 1_555 1_555
Zn8_3 O15_16 1_555 1_555
O13_16 Zn4_12 1_555 1_555
O14_16 C25_16 1_555 1_555
O15_16 C26_16 1_555 1_555
O16_11 C26_16 1_555 1_555
C19_16 C20_16 1_555 1_555
C20_16 H7_16 1_555 1_555
C21_16 C20_16 1_555 1_555
C22_16 C21_16 1_555 1_555
H8_16 C22_16 1_555 1_555
C23_16 C22_16 1_555 1_555
C24_16 C19_16 1_555 1_555
H9_16 C24_16 1_555 1_555
C25_16 O13_16 1_555 1_555
C26_16 C21_16 1_555 1_555
O25_16 Zn4_12 1_555 1_555
C19_16 C25_16 1_555 1_555
C23_16 C24_16 1_555 1_555
Zn4_13 O1_16 1_555 1_555
Zn10 O3_16 1_555 1_555
O1_16 C7_16 1_555 1_555
O2_16 C7_16 1_555 1_555
O3_16 C8_16 1_555 1_555
O4_6 C8_16 1_555 1_555
O22_8 C9_16 1_555 1_555
O24_8 C9_16 1_555 1_555
C1_16 C2_16 1_555 1_555
C2_16 H1_16 1_555 1_555
C3_16 C2_16 1_555 1_555
C4_16 C3_16 1_555 1_555
H2_16 C4_16 1_555 1_555
C5_16 C4_16 1_555 1_555
C6_16 C1_16 1_555 1_555
H3_16 C6_16 1_555 1_555
C7_16 C1_16 1_555 1_555
C8_16 C3_16 1_555 1_555
C9_16 C5_16 1_555 1_555
Zn8 O4_6 1_555 1_555
O20_6 Zn10 1_555 1_555
C5_16 C6_16 1_555 1_555
O21_7 C27_17 1_555 1_555
O23_7 C27_17 1_555 1_555
Zn4_16 O1_17 1_555 1_555
Zn10_3 O3_17 1_555 1_555
O1_17 C7_17 1_555 1_555
O2_17 C7_17 1_555 1_555
O3_17 C8_17 1_555 1_555
O19_11 C8_17 1_555 1_555
O22_9 C9_17 1_555 1_555
O24_9 C9_17 1_555 1_555
C1_17 C2_17 1_555 1_555
C2_17 H1_17 1_555 1_555
C3_17 C2_17 1_555 1_555
C4_17 C3_17 1_555 1_555
H2_17 C4_17 1_555 1_555
C5_17 C4_17 1_555 1_555
C6_17 C1_17 1_555 1_555
H3_17 C6_17 1_555 1_555
C7_17 C1_17 1_555 1_555
C8_17 C3_17 1_555 1_555
C9_17 C5_17 1_555 1_555
Zn8_2 O15_17 1_555 1_555
O13_17 Zn4_16 1_555 1_555
O14_17 C25_17 1_555 1_555
O15_17 C26_17 1_555 1_555
O16_12 C26_17 1_555 1_555
C19_17 C20_17 1_555 1_555
C20_17 H7_17 1_555 1_555
C21_17 C20_17 1_555 1_555
C22_17 C21_17 1_555 1_555
H8_17 C22_17 1_555 1_555
C23_17 C22_17 1_555 1_555
C24_17 C19_17 1_555 1_555
H9_17 C24_17 1_555 1_555
C25_17 O13_17 1_555 1_555
C26_17 C21_17 1_555 1_555
O25_17 Zn4_16 1_555 1_555
C5_17 C6_17 1_555 1_555
C19_17 C25_17 1_555 1_555
C23_17 C24_17 1_555 1_555
Zn4_14 O1_18 1_555 1_555
Zn10_2 O3_18 1_555 1_555
O1_18 C7_18 1_555 1_555
O2_18 C7_18 1_555 1_555
O3_18 C8_18 1_555 1_555
O19_12 C8_18 1_555 1_555
O22_7 C9_18 1_555 1_555
O24_7 C9_18 1_555 1_555
C1_18 C2_18 1_555 1_555
C2_18 H1_18 1_555 1_555
C3_18 C2_18 1_555 1_555
C4_18 C3_18 1_555 1_555
H2_18 C4_18 1_555 1_555
C5_18 C4_18 1_555 1_555
C6_18 C1_18 1_555 1_555
H3_18 C6_18 1_555 1_555
C7_18 C1_18 1_555 1_555
C8_18 C3_18 1_555 1_555
C9_18 C5_18 1_555 1_555
C5_18 C6_18 1_555 1_555
O21_8 C27_18 1_555 1_555
O23_8 C27_18 1_555 1_555
Zn8 O15_18 1_555 1_555
O13_18 Zn4_15 1_555 1_555
O14_18 C25_18 1_555 1_555
O15_18 C26_18 1_555 1_555
O20_6 C26_18 1_555 1_555
C19_18 C20_18 1_555 1_555
C20_18 H7_18 1_555 1_555
C21_18 C20_18 1_555 1_555
C22_18 C21_18 1_555 1_555
H8_18 C22_18 1_555 1_555
C23_18 C22_18 1_555 1_555
C24_18 C19_18 1_555 1_555
H9_18 C24_18 1_555 1_555
C25_18 O13_18 1_555 1_555
C26_18 C21_18 1_555 1_555
O25_18 Zn4_15 1_555 1_555
C19_18 C25_18 1_555 1_555
C23_18 C24_18 1_555 1_555
O25_12 C18_16 1_555 1_555
O11_16 C18_16 1_555 1_555
O8_16 C14_16 1_555 1_555
O26 C15_20 1_555 1_555
C10_16 C11_16 1_555 1_555
C11_16 H4_16 1_555 1_555
C12_20 C11_16 1_555 1_555
C13_20 C10_16 1_555 1_555
C14_16 O25_18 1_555 1_555
C15_20 C12_20 1_555 1_555
O27_3 C15_20 1_555 1_555
C16_16 C13_20 1_555 1_555
C17_16 C12_20 1_555 1_555
H6_16 C17_16 1_555 1_555
C10_16 C14_16 1_555 1_555
C16_16 C17_16 1_555 1_555
O8_17 C14_17 1_555 1_555
O26_2 C15_21 1_555 1_555
C10_17 C11_17 1_555 1_555
C11_17 H4_17 1_555 1_555
C12_21 C11_17 1_555 1_555
C13_21 C10_17 1_555 1_555
H5_21 C13_21 1_555 1_555
C14_17 O25_17 1_555 1_555
C15_21 C12_21 1_555 1_555
O25_10 C18_17 1_555 1_555
O11_17 C18_17 1_555 1_555
O27 C15_21 1_555 1_555
C16_17 C13_21 1_555 1_555
C17_17 C12_21 1_555 1_555
H6_17 C17_17 1_555 1_555
C18_17 C16_17 1_555 1_555
C10_17 C14_17 1_555 1_555
C16_17 C17_17 1_555 1_555
O8_18 C14_18 1_555 1_555
O26_3 C15_22 1_555 1_555
C10_18 C11_18 1_555 1_555
C11_18 H4_18 1_555 1_555
C12_22 C11_18 1_555 1_555
C13_22 C10_18 1_555 1_555
C14_18 O25_16 1_555 1_555
C15_22 C12_22 1_555 1_555
O27_2 C15_22 1_555 1_555
C16_18 C13_22 1_555 1_555
C17_18 C12_22 1_555 1_555
H6_18 C17_18 1_555 1_555
C10_18 C14_18 1_555 1_555
C16_18 C17_18 1_555 1_555
O25_11 C18_18 1_555 1_555
O11_18 C18_18 1_555 1_555

#END
