
###############################################################################
#
# This file contains modified crystal structure data generated from the
# MOF subset of the Cambridge Structural Database (CSD) v543 
# hosted by the Cambridge Crystallographic Data Centre (CCDC).
#
# This work is licensed under the Creative Commons
# Attribution-NonCommercial-ShareAlike 4.0 International License.
# To view a copy of this license, visit
# http://creativecommons.org/licenses/by-nc-sa/4.0/
# or send a letter to
# Creative Commons, PO Box 1866, Mountain View, CA 94042, USA.
#
# CIF created using the CSD Python API on 29 September 2022
# The structure has been converted into the P1 space group
# The structure has a 3D framework
# The original CSD entry QAZMEL is in the monoclinic crystal system
# The framework has been calculated to contain at least 10.0% void space
# The void calculation uses a probe of radius 1.32A, grid spacing 0.4
#
###############################################################################

data_QAZMEL
_chemical_formula_moiety         '(C80 H48 N8 O14 Zn2)n'
_symmetry_cell_setting           triclinic
_symmetry_space_group_name_H-M   'P 1'
_symmetry_Int_Tables_number      1
_space_group_name_Hall           'P 1'
loop_
_symmetry_equiv_pos_site_id
_symmetry_equiv_pos_as_xyz
1 x,y,z
_cell_length_a                   10.400(1)
_cell_length_b                   19.294(2)
_cell_length_c                   10.706(1)
_cell_angle_alpha                90
_cell_angle_beta                 96.94(1)
_cell_angle_gamma                90
_cell_volume                     2132.5
loop_
_atom_site_label
_atom_site_type_symbol
_atom_site_fract_x
_atom_site_fract_y
_atom_site_fract_z
Zn2 Zn 0.06783(3) 0.560888(14) 0.36908(3)
N1 N 0.22335(19) 0.56260(11) 0.52764(19)
C1 C 0.3176(2) 0.51530(14) 0.5458(3)
H1 H 0.3211 0.4801 0.4841
C2 C 0.4106(2) 0.51504(14) 0.6500(3)
H2 H 0.4755 0.4802 0.6597
C3 C 0.4073(2) 0.56678(14) 0.7407(2)
C4 C 0.3110(2) 0.61684(14) 0.7212(2)
H3 H 0.3061 0.6532 0.7803
C5 C 0.2224(2) 0.61283(14) 0.6143(2)
H4 H 0.1572 0.6475 0.6015
C6 C 0.5024(2) 0.56744(15) 0.8496(2)
C7 C 0.5869(2) 0.56650(15) 0.9358(2)
H5 H 0.7838 0.4806 0.9673
O1 O 0.10150(17) 0.46217(9) 0.33104(16)
O2 O 0.06229(17) 0.41447(10) 0.51260(16)
C13 C 0.1006(2) 0.41195(13) 0.4064(2)
C14 C 0.1532(2) 0.34460(12) 0.3656(2)
C15 C 0.2352(2) 0.34511(14) 0.2723(2)
H9 H 0.2551 0.3876 0.2341
C16 C 0.2878(3) 0.28376(15) 0.2351(2)
H10 H 0.3464 0.2844 0.1736
C17 C 0.2553(3) 0.22152(14) 0.2872(2)
C18 C 0.1736(3) 0.22097(14) 0.3799(3)
H11 H 0.1513 0.1781 0.4154
C19 C 0.1239(2) 0.28207(14) 0.4215(2)
H12 H 0.0704 0.2816 0.4874
C20 C 0.3128(3) 0.15557(16) 0.2418(3)
O3 O 0.3935(2) 0.16190(11) 0.1631(2)
O4 O 0.2806(2) 0.09844(11) 0.2801(2)
Zn4 Zn 0.43217(3) 0.060888(14) 0.13092(3)
O6 O 0.1065(2) 0.66190(11) 0.3369(2)
O7 O 0.2194(2) 0.59844(11) 0.2199(2)
N3 N 0.59513(19) 0.06088(12) 0.27867(18)
O5 O 0.56229(17) 0.08553(10) 0.01260(16)
H1_2 H 0.1789 0.9801 0.0159
O1_2 O 0.39850(17) 0.96217(9) 0.16896(16)
C13_2 C 0.3994(2) 0.91195(13) 0.0936(2)
C14_2 C 0.3468(2) 0.84460(12) 0.1344(2)
C15_2 C 0.2648(2) 0.84511(14) 0.2277(2)
H9_2 H 0.2449 0.8876 0.2659
C16_2 C 0.2122(3) 0.78376(15) 0.2649(2)
H10_2 H 0.1536 0.7844 0.3264
C17_2 C 0.2447(3) 0.72152(14) 0.2128(2)
C18_2 C 0.3264(3) 0.72097(14) 0.1201(3)
H11_2 H 0.3487 0.6781 0.0846
C19_2 C 0.3761(2) 0.78207(14) 0.0785(2)
H12_2 H 0.4296 0.7816 0.0126
C20_2 C 0.1872(3) 0.65557(16) 0.2582(3)
C6_2 C 0.9976(2) 0.06744(15) 0.6504(2)
C7_2 C 0.9131(2) 0.06650(15) 0.5642(2)
C8 C 0.8063(2) 0.06475(14) 0.4661(2)
C9 C 0.7109(3) 0.01438(14) 0.4678(2)
C10 C 0.6080(2) 0.01450(14) 0.3726(2)
C11 C 0.6873(2) 0.10975(14) 0.2786(2)
H7 H 0.6792 0.1432 0.2129
C12 C 0.7931(2) 0.11364(14) 0.3695(2)
H8 H 0.8561 0.1491 0.3663
N3_2 N 0.09513(19) 0.43912(12) 0.77867(18)
C8_2 C 0.3063(2) 0.43525(14) 0.9661(2)
C9_2 C 0.2109(3) 0.48562(14) 0.9678(2)
C10_2 C 0.1080(2) 0.48550(14) 0.8726(2)
H6 H 0.0432 0.5201 0.8740
C11_2 C 0.1873(2) 0.39025(14) 0.7786(2)
H7_2 H 0.1792 0.3568 0.7129
C12_2 C 0.2931(2) 0.38636(14) 0.8695(2)
H8_2 H 0.3561 0.3509 0.8663
H2_2 H 0.9755 0.0198 0.1597
C8_3 C 0.6937(2) 0.56475(14) 0.0339(2)
C9_3 C 0.7891(3) 0.51438(14) 0.0322(2)
C10_3 C 0.8920(2) 0.51450(14) 0.1274(2)
H6_2 H 0.9568 0.4799 0.1260
N2 N 0.90487(19) 0.56088(12) 0.22133(18)
C11_3 C 0.8127(2) 0.60975(14) 0.2214(2)
H7_3 H 0.8208 0.6432 0.2871
C12_3 C 0.7069(2) 0.61364(14) 0.1305(2)
H8_3 H 0.6439 0.6491 0.1337
Zn3 Zn 0.93217(3) 0.439112(14) 0.63092(3)
O5_2 O 0.93771(17) 0.58553(10) 0.48740(16)
H2_3 H 0.0245 0.9802 0.8403
O2_2 O 0.43771(17) 0.91447(10) 0.98740(16)
Zn3_2 Zn 0.56783(3) 0.939112(14) 0.86908(3)
N1_2 N 0.77665(19) 0.43740(11) 0.47236(19)
C1_2 C 0.6824(2) 0.48470(14) 0.4542(3)
H1_3 H 0.6789 0.5199 0.5159
C2_2 C 0.5894(2) 0.48496(14) 0.3500(3)
H2_4 H 0.5245 0.5198 0.3403
C3_2 C 0.5927(2) 0.43322(14) 0.2593(2)
C4_2 C 0.6890(2) 0.38316(14) 0.2788(2)
H3_2 H 0.6939 0.3468 0.2197
C5_2 C 0.7776(2) 0.38717(14) 0.3857(2)
H4_2 H 0.8428 0.3525 0.3985
C6_3 C 0.4976(2) 0.43256(15) 0.1504(2)
C7_3 C 0.4131(2) 0.43350(15) 0.0642(2)
H5_2 H 0.2162 0.5194 0.0327
O1_3 O 0.89850(17) 0.53783(9) 0.66896(16)
C13_3 C 0.8994(2) 0.58805(13) 0.5936(2)
C14_3 C 0.8468(2) 0.65540(12) 0.6344(2)
C15_3 C 0.7648(2) 0.65489(14) 0.7277(2)
H9_3 H 0.7449 0.6124 0.7659
C16_3 C 0.7122(3) 0.71624(15) 0.7649(2)
H10_3 H 0.6536 0.7156 0.8264
C17_3 C 0.7447(3) 0.77848(14) 0.7128(2)
C18_3 C 0.8264(3) 0.77903(14) 0.6201(3)
H11_3 H 0.8487 0.8219 0.5846
C19_3 C 0.8761(2) 0.71793(14) 0.5785(2)
H12_3 H 0.9296 0.7184 0.5126
C20_3 C 0.6872(3) 0.84443(16) 0.7582(3)
O3_2 O 0.6065(2) 0.83810(11) 0.8369(2)
O4_2 O 0.7194(2) 0.90156(11) 0.7199(2)
O6_2 O 0.8935(2) 0.33810(11) 0.6631(2)
O7_2 O 0.7806(2) 0.40156(11) 0.7801(2)
C6_4 C 0.0024(2) 0.93256(15) 0.3496(2)
C7_4 C 0.0869(2) 0.93350(15) 0.4358(2)
C8_4 C 0.1937(2) 0.93525(14) 0.5339(2)
C9_4 C 0.2891(3) 0.98562(14) 0.5322(2)
C10_4 C 0.3920(2) 0.98550(14) 0.6274(2)
N2_2 N 0.40487(19) 0.93912(12) 0.72133(18)
C11_4 C 0.3127(2) 0.89025(14) 0.7214(2)
H7_4 H 0.3208 0.8568 0.7871
C12_4 C 0.2069(2) 0.88636(14) 0.6305(2)
H8_4 H 0.1439 0.8509 0.6337
H1_4 H 0.8211 0.0199 0.9841
O1_4 O 0.60150(17) 0.03783(9) 0.83104(16)
C13_4 C 0.6006(2) 0.08805(13) 0.9064(2)
C14_4 C 0.6532(2) 0.15540(12) 0.8656(2)
C15_4 C 0.7352(2) 0.15489(14) 0.7723(2)
H9_4 H 0.7551 0.1124 0.7341
C16_4 C 0.7878(3) 0.21624(15) 0.7351(2)
H10_4 H 0.8464 0.2156 0.6736
C17_4 C 0.7553(3) 0.27848(14) 0.7872(2)
C18_4 C 0.6736(3) 0.27903(14) 0.8799(3)
H11_4 H 0.6513 0.3219 0.9154
C19_4 C 0.6239(2) 0.21793(14) 0.9215(2)
H12_4 H 0.5704 0.2184 0.9874
C20_4 C 0.8128(3) 0.34443(16) 0.7418(3)
N1_3 N 0.27665(19) 0.06260(11) 0.97236(19)
C1_3 C 0.1824(2) 0.01530(14) 0.9542(3)
C2_3 C 0.0894(2) 0.01504(14) 0.8500(3)
C3_3 C 0.0927(2) 0.06678(14) 0.7593(2)
C4_3 C 0.1890(2) 0.11684(14) 0.7788(2)
H3_3 H 0.1939 0.1532 0.7197
C5_3 C 0.2776(2) 0.11283(14) 0.8857(2)
H4_3 H 0.3428 0.1475 0.8985
H5_3 H 0.7162 0.9806 0.5327
H6_3 H 0.5432 0.9799 0.3740
H5_4 H 0.2838 0.0194 0.4673
H6_4 H 0.4568 0.0201 0.6260
N1_4 N 0.72335(19) 0.93740(11) 0.02764(19)
C1_4 C 0.8176(2) 0.98470(14) 0.0458(3)
C2_4 C 0.9106(2) 0.98496(14) 0.1500(3)
C3_4 C 0.9073(2) 0.93322(14) 0.2407(2)
C4_4 C 0.8110(2) 0.88316(14) 0.2212(2)
H3_4 H 0.8061 0.8468 0.2803
C5_4 C 0.7224(2) 0.88717(14) 0.1143(2)
H4_4 H 0.6572 0.8525 0.1015
loop_
_geom_bond_atom_site_label_1
_geom_bond_atom_site_label_2
_geom_bond_site_symmetry_1
_geom_bond_site_symmetry_2
Zn2 N1 1_555 1_555
N1 C1 1_555 1_555
C1 H1 1_555 1_555
C2 C1 1_555 1_555
H2 C2 1_555 1_555
C3 C2 1_555 1_555
C4 C3 1_555 1_555
H3 C4 1_555 1_555
C5 N1 1_555 1_555
H4 C5 1_555 1_555
C6 C3 1_555 1_555
C7 C6 1_555 1_555
O1 Zn2 1_555 1_555
O2 C13 1_555 1_555
C13 O1 1_555 1_555
C14 C13 1_555 1_555
C15 C14 1_555 1_555
H9 C15 1_555 1_555
C16 C15 1_555 1_555
H10 C16 1_555 1_555
C17 C16 1_555 1_555
C18 C17 1_555 1_555
H11 C18 1_555 1_555
C19 C14 1_555 1_555
H12 C19 1_555 1_555
C20 C17 1_555 1_555
O3 C20 1_555 1_555
O4 C20 1_555 1_555
Zn4 O3 1_555 1_555
O6 Zn2 1_555 1_555
O7 Zn2 1_555 1_555
C4 C5 1_555 1_555
C18 C19 1_555 1_555
O4 Zn4 1_555 1_555
N3 Zn4 1_555 1_555
O5 Zn4 1_555 1_555
C13_2 O1_2 1_555 1_555
C14_2 C13_2 1_555 1_555
C15_2 C14_2 1_555 1_555
H9_2 C15_2 1_555 1_555
C16_2 C15_2 1_555 1_555
H10_2 C16_2 1_555 1_555
C17_2 C16_2 1_555 1_555
C18_2 C17_2 1_555 1_555
H11_2 C18_2 1_555 1_555
C19_2 C14_2 1_555 1_555
H12_2 C19_2 1_555 1_555
C20_2 C17_2 1_555 1_555
O6 C20_2 1_555 1_555
O7 C20_2 1_555 1_555
C18_2 C19_2 1_555 1_555
C7_2 C6_2 1_555 1_555
C8 C7_2 1_555 1_555
C9 C8 1_555 1_555
C10 C9 1_555 1_555
N3 C10 1_555 1_555
C11 N3 1_555 1_555
H7 C11 1_555 1_555
C12 C8 1_555 1_555
H8 C12 1_555 1_555
C11 C12 1_555 1_555
C9_2 C8_2 1_555 1_555
C10_2 C9_2 1_555 1_555
H6 C10_2 1_555 1_555
N3_2 C10_2 1_555 1_555
C11_2 N3_2 1_555 1_555
H7_2 C11_2 1_555 1_555
C12_2 C8_2 1_555 1_555
H8_2 C12_2 1_555 1_555
C11_2 C12_2 1_555 1_555
C9_3 C8_3 1_555 1_555
C10_3 C9_3 1_555 1_555
H6_2 C10_3 1_555 1_555
N2 C10_3 1_555 1_555
C11_3 N2 1_555 1_555
H7_3 C11_3 1_555 1_555
C12_3 C8_3 1_555 1_555
H8_3 C12_3 1_555 1_555
C11_3 C12_3 1_555 1_555
Zn3_2 O2_2 1_555 1_555
Zn3 N1_2 1_555 1_555
N1_2 C1_2 1_555 1_555
C1_2 H1_3 1_555 1_555
C2_2 C1_2 1_555 1_555
H2_4 C2_2 1_555 1_555
C3_2 C2_2 1_555 1_555
C4_2 C3_2 1_555 1_555
H3_2 C4_2 1_555 1_555
C5_2 N1_2 1_555 1_555
H4_2 C5_2 1_555 1_555
C6_3 C3_2 1_555 1_555
C7_3 C6_3 1_555 1_555
O1_3 Zn3 1_555 1_555
O5_2 C13_3 1_555 1_555
C13_3 O1_3 1_555 1_555
C14_3 C13_3 1_555 1_555
C15_3 C14_3 1_555 1_555
H9_3 C15_3 1_555 1_555
C16_3 C15_3 1_555 1_555
H10_3 C16_3 1_555 1_555
C17_3 C16_3 1_555 1_555
C18_3 C17_3 1_555 1_555
H11_3 C18_3 1_555 1_555
C19_3 C14_3 1_555 1_555
H12_3 C19_3 1_555 1_555
C20_3 C17_3 1_555 1_555
O3_2 C20_3 1_555 1_555
O4_2 C20_3 1_555 1_555
Zn3_2 O3_2 1_555 1_555
O6_2 Zn3 1_555 1_555
O7_2 Zn3 1_555 1_555
C4_2 C5_2 1_555 1_555
C18_3 C19_3 1_555 1_555
O4_2 Zn3_2 1_555 1_555
C7_4 C6_4 1_555 1_555
C8_4 C7_4 1_555 1_555
C9_4 C8_4 1_555 1_555
C10_4 C9_4 1_555 1_555
N2_2 C10_4 1_555 1_555
C11_4 N2_2 1_555 1_555
H7_4 C11_4 1_555 1_555
C12_4 C8_4 1_555 1_555
H8_4 C12_4 1_555 1_555
Zn3_2 N2_2 1_555 1_555
C11_4 C12_4 1_555 1_555
C13_4 O1_4 1_555 1_555
C14_4 C13_4 1_555 1_555
C15_4 C14_4 1_555 1_555
H9_4 C15_4 1_555 1_555
C16_4 C15_4 1_555 1_555
H10_4 C16_4 1_555 1_555
C17_4 C16_4 1_555 1_555
C18_4 C17_4 1_555 1_555
H11_4 C18_4 1_555 1_555
C19_4 C14_4 1_555 1_555
H12_4 C19_4 1_555 1_555
C20_4 C17_4 1_555 1_555
O6_2 C20_4 1_555 1_555
O7_2 C20_4 1_555 1_555
C18_4 C19_4 1_555 1_555
N1_3 C1_3 1_555 1_555
C2_3 C1_3 1_555 1_555
C3_3 C2_3 1_555 1_555
C4_3 C3_3 1_555 1_555
H3_3 C4_3 1_555 1_555
C5_3 N1_3 1_555 1_555
H4_3 C5_3 1_555 1_555
C4_3 C5_3 1_555 1_555
N1_4 C1_4 1_555 1_555
C2_4 C1_4 1_555 1_555
C3_4 C2_4 1_555 1_555
C4_4 C3_4 1_555 1_555
H3_4 C4_4 1_555 1_555
C5_4 N1_4 1_555 1_555
H4_4 C5_4 1_555 1_555
C4_4 C5_4 1_555 1_555

#END
