
###############################################################################
#
# This file contains modified crystal structure data generated from the
# MOF subset of the Cambridge Structural Database (CSD) v543 
# hosted by the Cambridge Crystallographic Data Centre (CCDC).
#
# This work is licensed under the Creative Commons
# Attribution-NonCommercial-ShareAlike 4.0 International License.
# To view a copy of this license, visit
# http://creativecommons.org/licenses/by-nc-sa/4.0/
# or send a letter to
# Creative Commons, PO Box 1866, Mountain View, CA 94042, USA.
#
# CIF created using the CSD Python API on 29 September 2022
# The structure has been converted into the P1 space group
# The structure has a 3D framework
# The original CSD entry QECHOY is in the orthorhombic crystal system
# The framework has been calculated to contain at least 10.0% void space
# The void calculation uses a probe of radius 1.32A, grid spacing 0.4
# The framework is charged, counterions have been retained in the structure
#
###############################################################################

data_QECHOY
_chemical_formula_moiety         '(C672 H352 Mo288 O1152 P29 Zn96 76-)n'
_symmetry_cell_setting           triclinic
_symmetry_space_group_name_H-M   'P 1'
_symmetry_Int_Tables_number      1
_space_group_name_Hall           'P 1'
loop_
_symmetry_equiv_pos_site_id
_symmetry_equiv_pos_as_xyz
1 x,y,z
_cell_length_a                   52.935(4)
_cell_length_b                   55.018(4)
_cell_length_c                   23.2930(15)
_cell_angle_alpha                90
_cell_angle_beta                 90
_cell_angle_gamma                90
_cell_volume                     67838
loop_
_atom_site_label
_atom_site_type_symbol
_atom_site_fract_x
_atom_site_fract_y
_atom_site_fract_z
Zn6 Zn 0.02182(10) 0.04840(9) 0.3374(2)
Mo15 Mo 0.06754(7) 0.00770(7) 0.27779(18)
Mo17 Mo 0.01168(7) 0.02633(8) 0.09344(17)
Mo18 Mo 0.05451(8) 0.03859(7) 0.19947(18)
P1 P -0.0000 0.0000 0.2398(8)
O44 O 0.0820(5) 0.0527(6) 0.1910(14)
O47 O 0.0296(6) 0.0679(4) 0.2030(13)
O48 O 0.0132(6) 0.0292(8) 0.0221(14)
O51 O 0.0555(5) 0.0043(5) 0.3585(10)
O52 O 0.0078(5) 0.0194(4) 0.3786(11)
O53 O 0.0435(5) 0.0344(5) 0.1210(12)
O56 O 0.0625(4) 0.0039(5) 0.1952(11)
O57 O 0.0470(4) 0.0387(5) 0.2836(11)
O60 O 0.0977(6) 0.0158(7) 0.2865(14)
O62 O 0.0092(5) 0.0214(4) 0.2021(9)
O149 O 0.0344(5) 0.0747(4) 0.3829(13)
Zn7 Zn 0.03038(15) 0.11755(16) 0.6266(3)
Zn10 Zn 0.0346(2) 0.1904(2) 0.8259(5)
Mo19 Mo 0.0170(2) 0.21784(15) 0.6910(4)
Mo20 Mo 0.01809(13) 0.17678(12) 0.5830(3)
Mo25 Mo 0.06037(12) 0.16790(19) 0.6885(3)
Mo26 Mo 0.00566(13) 0.09191(11) 0.7610(2)
Mo27 Mo 0.01278(10) 0.13267(15) 0.8710(2)
Mo30 Mo 0.05715(11) 0.1336(2) 0.7649(3)
O84 O 0.0169(7) 0.1267(10) 0.9399(18)
O85 O 0.0224(7) 0.1818(9) 0.508(2)
O87 O 0.0505(7) 0.1684(11) 0.6093(19)
O88 O 0.0160(12) 0.2111(10) 0.608(2)
O89 O 0.0452(7) 0.1363(11) 0.8468(18)
O90 O 0.0280(19) 0.2459(11) 0.685(3)
O96 O 0.0041(7) 0.1021(7) 0.8383(14)
O98 O 0.0898(10) 0.1680(17) 0.671(3)
O99 O 0.0121(14) 0.0636(8) 0.769(2)
O101 O 0.0877(10) 0.126(2) 0.771(2)
O102 O 0.0171(14) 0.2108(12) 0.765(2)
O105 O 0.0097(8) 0.0997(6) 0.6797(16)
O106 O 0.0103(7) 0.1709(8) 0.8650(18)
O109 O 0.0089(5) 0.1383(7) 0.7655(16)
O113 O 0.0104(6) 0.1400(6) 0.5889(12)
O114 O 0.0405(10) 0.0935(14) 0.753(2)
O115 O 0.0504(10) 0.1316(11) 0.679(2)
O135 O 0.0140(7) 0.1740(6) 0.6924(15)
O139 O 0.0564(12) 0.1683(12) 0.773(3)
O144 O 0.0505(18) 0.2082(16) 0.682(4)
O145 O 0.0630(11) 0.2085(12) 0.861(2)
O147 O 0.0492(11) 0.0949(9) 0.5786(16)
Zn5 Zn 0.05018(9) 0.97930(10) 0.1417(2)
P1_2 P 0.0000 1.0000 0.2398(8)
O4 O 0.2054(7) 0.8408(6) 0.0483(17)
O5 O 0.2156(5) 0.8247(4) 0.1329(13)
O6 O 0.0977(5) 0.9557(6) 0.1837(14)
O7 O 0.0782(5) 0.9634(5) 0.1035(13)
C21 C 0.2061(10) 0.8429(8) 0.108(3)
C22 C 0.1969(5) 0.8634(5) 0.1302(13)
C23 C 0.1801(5) 0.8786(6) 0.1018(9)
H12 H 0.1761 0.8757 0.0626
C24 C 0.1690(5) 0.8980(5) 0.1308(12)
C25 C 0.1749(5) 0.9021(4) 0.1882(12)
H13 H 0.1673 0.9154 0.2080
C26 C 0.1917(5) 0.8869(5) 0.2166(10)
H14 H 0.1957 0.8897 0.2558
C27 C 0.2027(5) 0.8675(5) 0.1876(13)
H15 H 0.2142 0.8571 0.2070
C28 C 0.1508(5) 0.9153(5) 0.0995(12)
C29 C 0.1322(5) 0.9281(5) 0.1290(9)
H16 H 0.1321 0.9282 0.1697
C30 C 0.1138(5) 0.9408(5) 0.0987(13)
C31 C 0.1140(5) 0.9407(5) 0.0391(13)
H17 H 0.1014 0.9494 0.0184
C32 C 0.1326(6) 0.9279(6) 0.0096(9)
C33 C 0.1510(5) 0.9152(5) 0.0398(12)
H18 H 0.1637 0.9065 0.0197
C34 C 0.0986(9) 0.9530(8) 0.134(2)
O73 O 0.0225(4) 0.9903(4) 0.2785(10)
Mo31 Mo 0.00789(8) 0.93551(7) 0.20051(19)
Mo32 Mo 0.02772(8) 0.98905(7) 0.38508(18)
Mo34 Mo 0.04025(9) 0.94803(7) 0.27878(19)
O116 O 0.0561(6) 0.9222(5) 0.2851(15)
O118 O 0.0160(7) 0.9066(5) 0.1900(13)
O119 O 0.0046(5) 0.9453(5) 0.1193(12)
O122 O 0.0706(5) 0.9709(6) 0.2718(13)
O123 O 0.0202(4) 0.9916(5) 0.0986(11)
O127 O 0.0316(5) 0.9877(5) 0.4539(11)
O128 O 0.0045(5) 0.9405(4) 0.2823(12)
O132 O 0.0391(4) 0.9537(5) 0.1997(11)
O134 O 0.0363(5) 0.9579(4) 0.3615(10)
Zn17 Zn 0.22818(10) 0.79840(9) 0.0874(2)
Zn2 Zn 0.04789(12) 0.87887(11) 0.8208(3)
Zn3 Zn 0.0404(2) 0.80176(15) 0.6330(5)
Mo3 Mo 0.02723(11) 0.85977(10) 0.5798(2)
Mo4 Mo 0.06899(12) 0.82277(12) 0.7689(3)
Mo5 Mo 0.07152(10) 0.85421(12) 0.6857(3)
Mo6 Mo 0.0179(2) 0.78090(13) 0.7710(4)
Mo10 Mo 0.02625(12) 0.82334(12) 0.8742(3)
Mo11 Mo 0.02829(13) 0.90345(10) 0.6819(2)
P2 P 0.0056(3) 0.8436(3) 0.7280(8)
O1 O 0.0704(19) 0.7643(13) 0.688(3)
O2 O 0.0630(11) 0.7085(12) 0.361(2)
O3 O 0.2008(11) 0.8449(9) 0.3286(16)
O8 O 0.0726(8) 0.8983(6) 0.8581(12)
O9 O 0.0893(7) 0.9113(8) 0.7730(14)
O12 O 0.0255(8) 0.8921(8) 0.6030(17)
O17 O 0.0586(8) 0.8529(8) 0.6020(16)
O18 O 0.0288(11) 0.8618(8) 0.5053(18)
O19 O 0.0237(10) 0.7859(5) 0.684(2)
O20 O 0.0245(17) 0.7503(10) 0.773(3)
O21 O 0.0653(5) 0.8577(6) 0.7687(13)
O23 O 0.0576(8) 0.8241(7) 0.8487(14)
O26 O 0.0649(8) 0.8905(8) 0.6831(17)
O29 O 0.1019(7) 0.8559(12) 0.676(2)
O30 O 0.0304(11) 0.8202(9) 0.946(2)
O33 O 0.0626(9) 0.8191(8) 0.6850(19)
O34 O 0.0176(9) 0.7933(7) 0.854(2)
O36 O 0.0238(4) 0.8585(6) 0.8637(12)
O37 O 0.0564(12) 0.7890(7) 0.772(2)
O38 O 0.0233(6) 0.8580(6) 0.6885(14)
O58 O 0.0196(7) 0.8242(7) 0.5945(15)
O64 O 0.0217(5) 0.8268(5) 0.7668(13)
O65 O 0.0303(7) 0.8987(6) 0.7679(14)
O66 O 0.1008(9) 0.8174(12) 0.771(3)
O68 O 0.0357(10) 0.9321(6) 0.6699(16)
C1 C 0.0808(15) 0.7662(18) 0.630(4)
C2 C 0.0978(9) 0.7531(8) 0.606(2)
C3 C 0.1175(12) 0.7427(9) 0.6371(13)
H1 H 0.1171 0.7424 0.6779
C4 C 0.1380(9) 0.7327(9) 0.608(2)
H2 H 0.1515 0.7256 0.6291
C5 C 0.1387(9) 0.7330(9) 0.549(2)
H3 H 0.1527 0.7262 0.5287
C6 C 0.1189(11) 0.7434(9) 0.5178(13)
C7 C 0.0985(8) 0.7534(8) 0.547(2)
H4 H 0.0850 0.7605 0.5258
C8 C 0.1161(11) 0.7436(10) 0.4531(14)
C9 C 0.0978(9) 0.7309(10) 0.423(2)
H5 H 0.0858 0.7212 0.4424
C10 C 0.0970(9) 0.7325(10) 0.363(2)
C11 C 0.1145(11) 0.7468(10) 0.3341(14)
H6 H 0.1140 0.7479 0.2934
C12 C 0.1329(9) 0.7594(9) 0.365(2)
C13 C 0.1337(9) 0.7578(9) 0.424(2)
H7 H 0.1462 0.7665 0.4450
C14 C 0.1510(9) 0.7738(10) 0.329(3)
C15 C 0.1617(11) 0.7942(11) 0.355(2)
H8 H 0.1581 0.7978 0.3938
C16 C 0.1776(10) 0.8092(8) 0.323(3)
C17 C 0.1828(10) 0.8039(12) 0.266(3)
H9 H 0.1937 0.8142 0.2446
C18 C 0.1721(14) 0.7835(14) 0.241(2)
H10 H 0.1757 0.7799 0.2015
C19 C 0.1562(12) 0.7684(9) 0.272(3)
H11 H 0.1490 0.7545 0.2546
C20 C 0.1903(14) 0.8279(13) 0.359(4)
C35 C 0.1325(6) 0.9295(5) 0.9442(11)
C36 C 0.1117(5) 0.9191(5) 0.9172(14)
H19 H 0.0979 0.9134 0.9395
C37 C 0.1112(6) 0.9171(6) 0.8578(14)
C38 C 0.1314(7) 0.9254(6) 0.8252(11)
H20 H 0.1310 0.9239 0.7846
C39 C 0.1522(6) 0.9357(6) 0.8522(15)
H21 H 0.1661 0.9414 0.8299
C40 C 0.1528(5) 0.9378(6) 0.9116(16)
H22 H 0.1670 0.9449 0.9300
C41 C 0.0923(10) 0.9092(11) 0.828(3)
O69 O 0.1908(10) 0.8278(10) 0.410(3)
C42 C 0.0819(9) 0.7153(16) 0.330(3)
O70 O 0.0745(13) 0.7238(13) 0.279(3)
O71 O 0.0629(11) 0.7772(9) 0.605(3)
Zn13 Zn 0.21962(15) 0.86755(16) 0.3766(3)
Zn16 Zn 0.0346(2) 0.6904(2) 0.3259(5)
Mo13 Mo 0.99211(8) 0.06449(7) 0.20051(19)
Mo14 Mo 0.97228(8) 0.01095(7) 0.38508(18)
Mo16 Mo 0.95975(9) 0.05197(7) 0.27878(19)
P1_3 P 1.0000 0.0000 0.2398(8)
O42 O 0.9439(6) 0.0778(5) 0.2851(15)
O43 O 0.9775(4) 0.0097(4) 0.2785(10)
O45 O 0.9840(7) 0.0934(5) 0.1900(13)
O46 O 0.9954(5) 0.0547(5) 0.1193(12)
O49 O 0.9294(5) 0.0291(6) 0.2718(13)
O50 O 0.9798(4) 0.0084(5) 0.0986(11)
O54 O 0.9684(5) 0.0123(5) 0.4539(11)
O55 O 0.9955(5) 0.0595(4) 0.2823(12)
O59 O 0.9609(4) 0.0463(5) 0.1997(11)
O61 O 0.9637(5) 0.0421(4) 0.3615(10)
Zn11 Zn 0.94982(9) 0.02070(10) 0.1417(2)
O78 O 0.7946(7) 0.1592(6) 0.0483(17)
O79 O 0.7844(5) 0.1753(4) 0.1329(13)
O80 O 0.9023(5) 0.0443(6) 0.1837(14)
O81 O 0.9218(5) 0.0366(5) 0.1035(13)
C63 C 0.7939(10) 0.1571(8) 0.108(3)
C64 C 0.8031(5) 0.1366(5) 0.1302(13)
C65 C 0.8199(5) 0.1214(6) 0.1018(9)
H34 H 0.8239 0.1243 0.0626
C66 C 0.8310(5) 0.1020(5) 0.1308(12)
C67 C 0.8251(5) 0.0979(4) 0.1882(12)
H35 H 0.8327 0.0846 0.2080
C68 C 0.8083(5) 0.1131(5) 0.2166(10)
H36 H 0.8043 0.1103 0.2558
C69 C 0.7973(5) 0.1325(5) 0.1876(13)
H37 H 0.7858 0.1429 0.2070
C70 C 0.8492(5) 0.0847(5) 0.0995(12)
C71 C 0.8678(5) 0.0719(5) 0.1290(9)
H38 H 0.8679 0.0718 0.1697
C72 C 0.8862(5) 0.0592(5) 0.0987(13)
C73 C 0.8860(5) 0.0593(5) 0.0391(13)
H39 H 0.8986 0.0506 0.0184
C74 C 0.8674(6) 0.0721(6) 0.0096(9)
C75 C 0.8490(5) 0.0848(5) 0.0398(12)
H40 H 0.8363 0.0935 0.0197
C76 C 0.9014(9) 0.0470(8) 0.134(2)
Zn18 Zn 0.77182(10) 0.20160(9) 0.0874(2)
Zn8 Zn 0.95211(12) 0.12113(11) 0.8208(3)
Zn9 Zn 0.9596(2) 0.19824(15) 0.6330(5)
Mo21 Mo 0.97277(11) 0.14023(10) 0.5798(2)
Mo22 Mo 0.93101(12) 0.17723(12) 0.7689(3)
Mo23 Mo 0.92848(10) 0.14579(12) 0.6857(3)
Mo24 Mo 0.9821(2) 0.21910(13) 0.7710(4)
Mo28 Mo 0.97375(12) 0.17666(12) 0.8742(3)
Mo29 Mo 0.97171(13) 0.09655(10) 0.6819(2)
P3 P 0.9944(3) 0.1564(3) 0.7280(8)
O75 O 0.9296(19) 0.2357(13) 0.688(3)
O76 O 0.9370(11) 0.2915(12) 0.361(2)
O77 O 0.7992(11) 0.1551(9) 0.3286(16)
O82 O 0.9274(8) 0.1017(6) 0.8581(12)
O83 O 0.9107(7) 0.0887(8) 0.7730(14)
O86 O 0.9745(8) 0.1079(8) 0.6030(17)
O91 O 0.9414(8) 0.1471(8) 0.6020(16)
O92 O 0.9712(11) 0.1382(8) 0.5053(18)
O93 O 0.9763(10) 0.2141(5) 0.684(2)
O94 O 0.9755(17) 0.2497(10) 0.773(3)
O95 O 0.9347(5) 0.1423(6) 0.7687(13)
O97 O 0.9424(8) 0.1759(7) 0.8487(14)
O100 O 0.9351(8) 0.1095(8) 0.6831(17)
O103 O 0.8981(7) 0.1441(12) 0.676(2)
O104 O 0.9696(11) 0.1798(9) 0.946(2)
O107 O 0.9374(9) 0.1809(8) 0.6850(19)
O108 O 0.9824(9) 0.2067(7) 0.854(2)
O110 O 0.9762(4) 0.1415(6) 0.8637(12)
O111 O 0.9436(12) 0.2110(7) 0.772(2)
O112 O 0.9767(6) 0.1420(6) 0.6885(14)
O131 O 0.9804(7) 0.1758(7) 0.5945(15)
O136 O 0.9783(5) 0.1732(5) 0.7668(13)
O137 O 0.9697(7) 0.1013(6) 0.7679(14)
O138 O 0.8992(9) 0.1826(12) 0.771(3)
O140 O 0.9643(10) 0.0679(6) 0.6699(16)
C43 C 0.9192(15) 0.2338(18) 0.630(4)
C44 C 0.9022(9) 0.2469(8) 0.606(2)
C45 C 0.8825(12) 0.2573(9) 0.6371(13)
H23 H 0.8829 0.2576 0.6779
C46 C 0.8620(9) 0.2673(9) 0.608(2)
H24 H 0.8485 0.2744 0.6291
C47 C 0.8613(9) 0.2670(9) 0.549(2)
H25 H 0.8473 0.2738 0.5287
C48 C 0.8811(11) 0.2566(9) 0.5178(13)
C49 C 0.9015(8) 0.2466(8) 0.547(2)
H26 H 0.9150 0.2395 0.5258
C50 C 0.8839(11) 0.2564(10) 0.4531(14)
C51 C 0.9022(9) 0.2691(10) 0.423(2)
H27 H 0.9142 0.2788 0.4424
C52 C 0.9030(9) 0.2675(10) 0.363(2)
C53 C 0.8855(11) 0.2532(10) 0.3341(14)
H28 H 0.8860 0.2521 0.2934
C54 C 0.8671(9) 0.2406(9) 0.365(2)
C55 C 0.8663(9) 0.2422(9) 0.424(2)
H29 H 0.8538 0.2335 0.4450
C56 C 0.8490(9) 0.2262(10) 0.329(3)
C57 C 0.8383(11) 0.2058(11) 0.355(2)
H30 H 0.8419 0.2022 0.3938
C58 C 0.8224(10) 0.1908(8) 0.323(3)
C59 C 0.8172(10) 0.1961(12) 0.266(3)
H31 H 0.8063 0.1858 0.2446
C60 C 0.8279(14) 0.2165(14) 0.241(2)
H32 H 0.8243 0.2201 0.2015
C61 C 0.8438(12) 0.2316(9) 0.272(3)
H33 H 0.8510 0.2455 0.2546
C62 C 0.8097(14) 0.1721(13) 0.359(4)
C77 C 0.8675(6) 0.0705(5) 0.9442(11)
C78 C 0.8883(5) 0.0809(5) 0.9172(14)
H41 H 0.9021 0.0866 0.9395
C79 C 0.8888(6) 0.0829(6) 0.8578(14)
C80 C 0.8686(7) 0.0746(6) 0.8252(11)
H42 H 0.8690 0.0761 0.7846
C81 C 0.8478(6) 0.0643(6) 0.8522(15)
H43 H 0.8339 0.0586 0.8299
C82 C 0.8472(5) 0.0622(6) 0.9116(16)
H44 H 0.8330 0.0551 0.9300
C83 C 0.9077(10) 0.0908(11) 0.828(3)
O141 O 0.8092(10) 0.1722(10) 0.410(3)
C84 C 0.9181(9) 0.2847(16) 0.330(3)
O142 O 0.9255(13) 0.2762(13) 0.279(3)
O143 O 0.9371(11) 0.2228(9) 0.605(3)
Zn14 Zn 0.78038(15) 0.13245(16) 0.3766(3)
Zn15 Zn 0.9654(2) 0.3096(2) 0.3259(5)
P1_4 P 1.0000 1.0000 0.2398(8)
O74 O 0.9908(5) 0.9786(4) 0.2021(9)
Zn12 Zn 0.97818(10) 0.95160(9) 0.3374(2)
Mo33 Mo 0.93246(7) 0.99230(7) 0.27779(18)
Mo35 Mo 0.98832(7) 0.97367(8) 0.09344(17)
Mo36 Mo 0.94549(8) 0.96141(7) 0.19947(18)
O117 O 0.9180(5) 0.9473(6) 0.1910(14)
O120 O 0.9704(6) 0.9321(4) 0.2030(13)
O121 O 0.9868(6) 0.9708(8) 0.0221(14)
O124 O 0.9445(5) 0.9957(5) 0.3585(10)
O125 O 0.9922(5) 0.9806(4) 0.3786(11)
O126 O 0.9565(5) 0.9656(5) 0.1210(12)
O129 O 0.9375(4) 0.9961(5) 0.1952(11)
O130 O 0.9530(4) 0.9613(5) 0.2836(11)
O133 O 0.9023(6) 0.9842(7) 0.2865(14)
O150 O 0.9656(5) 0.9253(4) 0.3829(13)
Zn1 Zn 0.96962(15) 0.88245(16) 0.6266(3)
Zn4 Zn 0.9654(2) 0.8096(2) 0.8259(5)
Mo1 Mo 0.9830(2) 0.78216(15) 0.6910(4)
Mo2 Mo 0.98191(13) 0.82322(12) 0.5830(3)
Mo7 Mo 0.93963(12) 0.83210(19) 0.6885(3)
Mo8 Mo 0.99434(13) 0.90809(11) 0.7610(2)
Mo9 Mo 0.98722(10) 0.86733(15) 0.8710(2)
Mo12 Mo 0.94285(11) 0.8664(2) 0.7649(3)
O10 O 0.9831(7) 0.8733(10) 0.9399(18)
O11 O 0.9776(7) 0.8182(9) 0.508(2)
O13 O 0.9495(7) 0.8316(11) 0.6093(19)
O14 O 0.9840(12) 0.7889(10) 0.608(2)
O15 O 0.9548(7) 0.8637(11) 0.8468(18)
O16 O 0.9720(19) 0.7541(11) 0.685(3)
O22 O 0.9959(7) 0.8979(7) 0.8383(14)
O24 O 0.9102(10) 0.8320(17) 0.671(3)
O25 O 0.9879(14) 0.9364(8) 0.769(2)
O27 O 0.9123(10) 0.874(2) 0.771(2)
O28 O 0.9829(14) 0.7892(12) 0.765(2)
O31 O 0.9903(8) 0.9003(6) 0.6797(16)
O32 O 0.9897(7) 0.8291(8) 0.8650(18)
O35 O 0.9911(5) 0.8617(7) 0.7655(16)
O39 O 0.9896(6) 0.8600(6) 0.5889(12)
O40 O 0.9595(10) 0.9065(14) 0.753(2)
O41 O 0.9496(10) 0.8684(11) 0.679(2)
O63 O 0.9860(7) 0.8260(6) 0.6924(15)
O67 O 0.9436(12) 0.8317(12) 0.773(3)
O72 O 0.9495(18) 0.7918(16) 0.682(4)
O146 O 0.9370(11) 0.7915(12) 0.861(2)
O148 O 0.9508(11) 0.9051(9) 0.5786(16)
Zn2_2 Zn 0.29789(12) 0.37113(11) 0.0708(3)
Zn4_2 Zn 0.2154(2) 0.4404(2) 0.0759(5)
Zn5_2 Zn 0.30018(9) 0.27070(10) 0.3917(2)
Zn6_2 Zn 0.27182(10) 0.20160(9) 0.5874(2)
Mo4_2 Mo 0.31899(12) 0.42723(12) 0.0189(3)
Mo6_2 Mo 0.2679(2) 0.46910(13) 0.0210(4)
Mo8_2 Mo 0.24434(13) 0.34191(11) 0.0110(2)
Mo9_2 Mo 0.23722(10) 0.38267(15) 0.1210(2)
Mo10_2 Mo 0.27625(12) 0.42666(12) 0.1242(3)
Mo12_2 Mo 0.19285(11) 0.3836(2) 0.0149(3)
Mo13_2 Mo 0.24211(8) 0.18551(7) 0.45051(19)
Mo14_2 Mo 0.22228(8) 0.23905(7) 0.63508(18)
Mo15_2 Mo 0.31754(7) 0.24230(7) 0.52779(18)
Mo16_2 Mo 0.20975(9) 0.19803(7) 0.52878(19)
Mo17_2 Mo 0.26168(7) 0.22367(8) 0.34344(17)
Mo18_2 Mo 0.30451(8) 0.21141(7) 0.44947(18)
P1_5 P 0.2500 0.2500 0.4898(8)
O4_2 O 0.4554(7) 0.4092(6) 0.2983(17)
O5_2 O 0.4656(5) 0.4253(4) 0.3829(13)
O6_2 O 0.3477(5) 0.2943(6) 0.4337(14)
O7_2 O 0.3282(5) 0.2866(5) 0.3535(13)
O8_2 O 0.3226(8) 0.3517(6) 0.1081(12)
O9_2 O 0.3393(7) 0.3387(8) 0.0230(14)
O10_2 O 0.2331(7) 0.3767(10) 0.1899(18)
O15_2 O 0.2048(7) 0.3863(11) 0.0968(18)
O20_2 O 0.2745(17) 0.4997(10) 0.023(3)
O21_2 O 0.3153(5) 0.3923(6) 0.0187(13)
O22_2 O 0.2459(7) 0.3521(7) 0.0883(14)
O23_2 O 0.3076(8) 0.4259(7) 0.0987(14)
O25_2 O 0.2379(14) 0.3136(8) 0.019(2)
O27_2 O 0.1623(10) 0.376(2) 0.021(2)
O28_2 O 0.2329(14) 0.4608(12) 0.015(2)
O30_2 O 0.2804(11) 0.4298(9) 0.196(2)
O32_2 O 0.2397(7) 0.4209(8) 0.1150(18)
O34_2 O 0.2676(9) 0.4567(7) 0.104(2)
O35_2 O 0.2411(5) 0.3883(7) 0.0155(16)
O36_2 O 0.2738(4) 0.3915(6) 0.1137(12)
O37_2 O 0.3064(12) 0.4610(7) 0.022(2)
O40_2 O 0.2095(10) 0.3435(14) 0.003(2)
O42_2 O 0.1939(6) 0.1722(5) 0.5351(15)
O43_2 O 0.2275(4) 0.2403(4) 0.5285(10)
O44_2 O 0.3320(5) 0.1973(6) 0.4410(14)
O45_2 O 0.2340(7) 0.1566(5) 0.4400(13)
O46_2 O 0.2454(5) 0.1953(5) 0.3693(12)
O47_2 O 0.2796(6) 0.1821(4) 0.4530(13)
O48_2 O 0.2632(6) 0.2208(8) 0.2721(14)
O49_2 O 0.1794(5) 0.2209(6) 0.5218(13)
O50_2 O 0.2298(4) 0.2416(5) 0.3486(11)
O51_2 O 0.3055(5) 0.2457(5) 0.6085(10)
O52_2 O 0.2578(5) 0.2306(4) 0.6286(11)
O53_2 O 0.2935(5) 0.2156(5) 0.3710(12)
O54_2 O 0.2184(5) 0.2377(5) 0.7039(11)
O55_2 O 0.2455(5) 0.1905(4) 0.5323(12)
O56_2 O 0.3125(4) 0.2461(5) 0.4452(11)
O57_2 O 0.2970(4) 0.2113(5) 0.5336(11)
O59_2 O 0.2109(4) 0.2037(5) 0.4497(11)
O60_2 O 0.3477(6) 0.2342(7) 0.5365(14)
O61_2 O 0.2137(5) 0.2079(4) 0.6115(10)
O62_2 O 0.2592(5) 0.2286(4) 0.4521(9)
O64_2 O 0.2717(5) 0.4232(5) 0.0168(13)
O65_2 O 0.2803(7) 0.3513(6) 0.0179(14)
O66_2 O 0.3508(9) 0.4326(12) 0.021(3)
O67_2 O 0.1936(12) 0.4183(12) 0.023(3)
C21_2 C 0.4561(10) 0.4071(8) 0.358(3)
C22_2 C 0.4469(5) 0.3866(5) 0.3802(13)
C23_2 C 0.4301(5) 0.3714(6) 0.3518(9)
H12_2 H 0.4261 0.3743 0.3126
C24_2 C 0.4190(5) 0.3520(5) 0.3808(12)
C25_2 C 0.4249(5) 0.3479(4) 0.4382(12)
H13_2 H 0.4173 0.3346 0.4580
C26_2 C 0.4417(5) 0.3631(5) 0.4666(10)
H14_2 H 0.4457 0.3603 0.5058
C27_2 C 0.4527(5) 0.3825(5) 0.4376(13)
H15_2 H 0.4642 0.3929 0.4570
C28_2 C 0.4008(5) 0.3347(5) 0.3495(12)
C29_2 C 0.3822(5) 0.3219(5) 0.3790(9)
H16_2 H 0.3821 0.3218 0.4197
C30_2 C 0.3638(5) 0.3092(5) 0.3487(13)
C31_2 C 0.3640(5) 0.3093(5) 0.2891(13)
H17_2 H 0.3514 0.3006 0.2684
C32_2 C 0.3826(6) 0.3221(6) 0.2596(9)
C33_2 C 0.4010(5) 0.3348(5) 0.2898(12)
H18_2 H 0.4137 0.3435 0.2697
C34_2 C 0.3486(9) 0.2970(8) 0.384(2)
C35_2 C 0.3825(6) 0.3205(5) 0.1942(11)
C36_2 C 0.3617(5) 0.3309(5) 0.1672(14)
H19_2 H 0.3479 0.3366 0.1895
C37_2 C 0.3612(6) 0.3329(6) 0.1078(14)
C38_2 C 0.3814(7) 0.3246(6) 0.0752(11)
H20_2 H 0.3810 0.3261 0.0346
C39_2 C 0.4022(6) 0.3143(6) 0.1022(15)
H21_2 H 0.4161 0.3086 0.0799
C40_2 C 0.4028(5) 0.3122(6) 0.1616(16)
H22_2 H 0.4170 0.3051 0.1800
C41_2 C 0.3423(10) 0.3408(11) 0.078(3)
O73_2 O 0.2725(4) 0.2597(4) 0.5285(10)
O74_2 O 0.2408(5) 0.2714(4) 0.4521(9)
Zn8_2 Zn 0.20211(12) 0.12887(11) 0.0708(3)
Zn10_2 Zn 0.2846(2) 0.0596(2) 0.0759(5)
Zn11_2 Zn 0.19982(9) 0.22930(10) 0.3917(2)
Zn12_2 Zn 0.22818(10) 0.29840(9) 0.5874(2)
Mo22_2 Mo 0.18101(12) 0.07277(12) 0.0189(3)
Mo24_2 Mo 0.2321(2) 0.03090(13) 0.0210(4)
Mo26_2 Mo 0.25566(13) 0.15809(11) 0.0110(2)
Mo27_2 Mo 0.26278(10) 0.11733(15) 0.1210(2)
Mo28_2 Mo 0.22375(12) 0.07334(12) 0.1242(3)
Mo30_2 Mo 0.30715(11) 0.1164(2) 0.0149(3)
Mo31_2 Mo 0.25789(8) 0.31449(7) 0.45051(19)
Mo32_2 Mo 0.27772(8) 0.26095(7) 0.63508(18)
Mo33_2 Mo 0.18246(7) 0.25770(7) 0.52779(18)
Mo34_2 Mo 0.29025(9) 0.30197(7) 0.52878(19)
Mo35_2 Mo 0.23832(7) 0.27633(8) 0.34344(17)
Mo36_2 Mo 0.19549(8) 0.28859(7) 0.44947(18)
O78_2 O 0.0446(7) 0.0908(6) 0.2983(17)
O80_2 O 0.1523(5) 0.2057(6) 0.4337(14)
O81_2 O 0.1718(5) 0.2134(5) 0.3535(13)
O82_2 O 0.1774(8) 0.1483(6) 0.1081(12)
O83_2 O 0.1607(7) 0.1613(8) 0.0230(14)
O84_2 O 0.2669(7) 0.1233(10) 0.1899(18)
O89_2 O 0.2952(7) 0.1137(11) 0.0968(18)
O94_2 O 0.2255(17) 0.0003(10) 0.023(3)
O95_2 O 0.1847(5) 0.1077(6) 0.0187(13)
O96_2 O 0.2541(7) 0.1479(7) 0.0883(14)
O97_2 O 0.1924(8) 0.0741(7) 0.0987(14)
O99_2 O 0.2621(14) 0.1864(8) 0.019(2)
O101_2 O 0.3377(10) 0.124(2) 0.021(2)
O102_2 O 0.2671(14) 0.0392(12) 0.015(2)
O104_2 O 0.2196(11) 0.0702(9) 0.196(2)
O106_2 O 0.2603(7) 0.0791(8) 0.1150(18)
O108_2 O 0.2324(9) 0.0433(7) 0.104(2)
O109_2 O 0.2589(5) 0.1117(7) 0.0155(16)
O110_2 O 0.2262(4) 0.1085(6) 0.1137(12)
O111_2 O 0.1936(12) 0.0390(7) 0.022(2)
O114_2 O 0.2905(10) 0.1565(14) 0.003(2)
O116_2 O 0.3061(6) 0.3278(5) 0.5351(15)
O117_2 O 0.1680(5) 0.3027(6) 0.4410(14)
O118_2 O 0.2660(7) 0.3434(5) 0.4400(13)
O119_2 O 0.2546(5) 0.3047(5) 0.3693(12)
O120_2 O 0.2204(6) 0.3179(4) 0.4530(13)
O121_2 O 0.2368(6) 0.2792(8) 0.2721(14)
O122_2 O 0.3206(5) 0.2791(6) 0.5218(13)
O123_2 O 0.2702(4) 0.2584(5) 0.3486(11)
O124_2 O 0.1945(5) 0.2543(5) 0.6085(10)
O125_2 O 0.2422(5) 0.2694(4) 0.6286(11)
O126_2 O 0.2065(5) 0.2844(5) 0.3710(12)
O127_2 O 0.2816(5) 0.2623(5) 0.7039(11)
O128_2 O 0.2545(5) 0.3095(4) 0.5323(12)
O129_2 O 0.1875(4) 0.2539(5) 0.4452(11)
O130_2 O 0.2030(4) 0.2887(5) 0.5336(11)
O132_2 O 0.2891(4) 0.2963(5) 0.4497(11)
O133_2 O 0.1523(6) 0.2658(7) 0.5365(14)
O134_2 O 0.2863(5) 0.2921(4) 0.6115(10)
O136_2 O 0.2283(5) 0.0768(5) 0.0168(13)
O137_2 O 0.2197(7) 0.1487(6) 0.0179(14)
O138_2 O 0.1492(9) 0.0674(12) 0.021(3)
O139_2 O 0.3064(12) 0.0817(12) 0.023(3)
C63_2 C 0.0439(10) 0.0929(8) 0.358(3)
C64_2 C 0.0531(5) 0.1134(5) 0.3802(13)
C65_2 C 0.0699(5) 0.1286(6) 0.3518(9)
H34_2 H 0.0739 0.1257 0.3126
C66_2 C 0.0810(5) 0.1480(5) 0.3808(12)
C67_2 C 0.0751(5) 0.1521(4) 0.4382(12)
H35_2 H 0.0827 0.1654 0.4580
C68_2 C 0.0583(5) 0.1369(5) 0.4666(10)
H36_2 H 0.0543 0.1397 0.5058
C69_2 C 0.0473(5) 0.1175(5) 0.4376(13)
H37_2 H 0.0358 0.1071 0.4570
C70_2 C 0.0992(5) 0.1653(5) 0.3495(12)
C71_2 C 0.1178(5) 0.1781(5) 0.3790(9)
H38_2 H 0.1179 0.1782 0.4197
C72_2 C 0.1362(5) 0.1908(5) 0.3487(13)
C73_2 C 0.1360(5) 0.1907(5) 0.2891(13)
H39_2 H 0.1486 0.1994 0.2684
C74_2 C 0.1174(6) 0.1779(6) 0.2596(9)
C75_2 C 0.0990(5) 0.1652(5) 0.2898(12)
H40_2 H 0.0863 0.1565 0.2697
C76_2 C 0.1514(9) 0.2030(8) 0.384(2)
C77_2 C 0.1175(6) 0.1795(5) 0.1942(11)
C78_2 C 0.1383(5) 0.1691(5) 0.1672(14)
H41_2 H 0.1521 0.1634 0.1895
C79_2 C 0.1388(6) 0.1671(6) 0.1078(14)
C80_2 C 0.1186(7) 0.1754(6) 0.0752(11)
H42_2 H 0.1190 0.1739 0.0346
C81_2 C 0.0978(6) 0.1857(6) 0.1022(15)
H43_2 H 0.0839 0.1914 0.0799
C82_2 C 0.0972(5) 0.1878(6) 0.1616(16)
H44_2 H 0.0830 0.1949 0.1800
C83_2 C 0.1577(10) 0.1592(11) 0.078(3)
Zn17_2 Zn 0.47818(10) 0.45160(9) 0.3374(2)
O145_2 O 0.3130(11) 0.0415(12) 0.111(2)
O146_2 O 0.1870(11) 0.4585(12) 0.111(2)
O149_2 O 0.2844(5) 0.1753(4) 0.6329(13)
O150_2 O 0.2156(5) 0.3247(4) 0.6329(13)
Zn1_2 Zn 0.21962(15) 0.36755(16) 0.8766(3)
Zn3_2 Zn 0.2904(2) 0.44824(15) 0.8830(5)
Mo1_2 Mo 0.2330(2) 0.46784(15) 0.9410(4)
Mo2_2 Mo 0.23191(13) 0.42678(12) 0.8330(3)
Mo3_2 Mo 0.27723(11) 0.39023(10) 0.8298(2)
Mo5_2 Mo 0.32152(10) 0.39579(12) 0.9357(3)
Mo7_2 Mo 0.18963(12) 0.41790(19) 0.9385(3)
Mo11_2 Mo 0.27829(13) 0.34655(10) 0.9319(2)
P2_2 P 0.2556(3) 0.4064(3) 0.9780(8)
O1_2 O 0.3204(19) 0.4857(13) 0.938(3)
O2_2 O 0.3130(11) 0.5415(12) 0.611(2)
O3_2 O 0.4508(11) 0.4051(9) 0.5786(16)
O11_2 O 0.2276(7) 0.4318(9) 0.758(2)
O12_2 O 0.2755(8) 0.3579(8) 0.8530(17)
O13_2 O 0.1995(7) 0.4184(11) 0.8593(19)
O14_2 O 0.2340(12) 0.4611(10) 0.858(2)
O16_2 O 0.2220(19) 0.4959(11) 0.935(3)
O17_2 O 0.3086(8) 0.3971(8) 0.8520(16)
O18_2 O 0.2788(11) 0.3882(8) 0.7553(18)
O19_2 O 0.2737(10) 0.4641(5) 0.934(2)
O24_2 O 0.1602(10) 0.4180(17) 0.921(3)
O26_2 O 0.3149(8) 0.3595(8) 0.9331(17)
O29_2 O 0.3519(7) 0.3941(12) 0.926(2)
O31_2 O 0.2403(8) 0.3497(6) 0.9297(16)
O33_2 O 0.3126(9) 0.4309(8) 0.9350(19)
O38_2 O 0.2733(6) 0.3920(6) 0.9385(14)
O39_2 O 0.2396(6) 0.3900(6) 0.8389(12)
O41_2 O 0.1996(10) 0.3816(11) 0.929(2)
O58_2 O 0.2696(7) 0.4258(7) 0.8445(15)
O63_2 O 0.2360(7) 0.4240(6) 0.9424(15)
O68_2 O 0.2857(10) 0.3179(6) 0.9199(16)
C1_2 C 0.3308(15) 0.4838(18) 0.880(4)
C2_2 C 0.3478(9) 0.4969(8) 0.856(2)
C3_2 C 0.3675(12) 0.5073(9) 0.8871(13)
H1_2 H 0.3671 0.5076 0.9279
C4_2 C 0.3880(9) 0.5173(9) 0.858(2)
H2_2 H 0.4015 0.5244 0.8791
C5_2 C 0.3887(9) 0.5170(9) 0.799(2)
H3_2 H 0.4027 0.5238 0.7787
C6_2 C 0.3689(11) 0.5066(9) 0.7678(13)
C7_2 C 0.3485(8) 0.4966(8) 0.797(2)
H4_2 H 0.3350 0.4895 0.7758
C8_2 C 0.3661(11) 0.5064(10) 0.7031(14)
C9_2 C 0.3478(9) 0.5191(10) 0.673(2)
H5_2 H 0.3358 0.5288 0.6924
C10_2 C 0.3470(9) 0.5175(10) 0.613(2)
C11_2 C 0.3645(11) 0.5032(10) 0.5841(14)
H6_2 H 0.3640 0.5021 0.5434
C12_2 C 0.3829(9) 0.4906(9) 0.615(2)
C13_2 C 0.3837(9) 0.4922(9) 0.674(2)
H7_2 H 0.3962 0.4835 0.6950
C14_2 C 0.4010(9) 0.4762(10) 0.579(3)
C15_2 C 0.4117(11) 0.4558(11) 0.605(2)
H8_2 H 0.4081 0.4522 0.6438
C16_2 C 0.4276(10) 0.4408(8) 0.573(3)
C17_2 C 0.4328(10) 0.4461(12) 0.516(3)
H9_2 H 0.4437 0.4358 0.4946
C18_2 C 0.4221(14) 0.4665(14) 0.491(2)
H10_2 H 0.4257 0.4701 0.4515
C19_2 C 0.4062(12) 0.4816(9) 0.522(3)
H11_2 H 0.3990 0.4955 0.5046
C20_2 C 0.4403(14) 0.4221(13) 0.609(4)
O69_2 O 0.4408(10) 0.4222(10) 0.660(3)
C42_2 C 0.3319(9) 0.5347(16) 0.580(3)
O70_2 O 0.3245(13) 0.5262(13) 0.529(3)
O71_2 O 0.3129(11) 0.4728(9) 0.855(3)
O72_2 O 0.1995(18) 0.4582(16) 0.932(4)
Zn7_2 Zn 0.28038(15) 0.13245(16) 0.8766(3)
Zn9_2 Zn 0.2096(2) 0.05176(15) 0.8830(5)
Mo19_2 Mo 0.2670(2) 0.03216(15) 0.9410(4)
Mo20_2 Mo 0.26809(13) 0.07322(12) 0.8330(3)
Mo21_2 Mo 0.22277(11) 0.10977(10) 0.8298(2)
Mo23_2 Mo 0.17848(10) 0.10421(12) 0.9357(3)
Mo25_2 Mo 0.31037(12) 0.08210(19) 0.9385(3)
Mo29_2 Mo 0.22171(13) 0.15345(10) 0.9319(2)
P3_2 P 0.2444(3) 0.0936(3) 0.9780(8)
O75_2 O 0.1796(19) 0.0143(13) 0.938(3)
O85_2 O 0.2724(7) 0.0682(9) 0.758(2)
O86_2 O 0.2245(8) 0.1421(8) 0.8530(17)
O87_2 O 0.3005(7) 0.0816(11) 0.8593(19)
O88_2 O 0.2660(12) 0.0389(10) 0.858(2)
O90_2 O 0.2780(19) 0.0041(11) 0.935(3)
O91_2 O 0.1914(8) 0.1029(8) 0.8520(16)
O92_2 O 0.2212(11) 0.1118(8) 0.7553(18)
O93_2 O 0.2263(10) 0.0359(5) 0.934(2)
O98_2 O 0.3398(10) 0.0820(17) 0.921(3)
O100_2 O 0.1851(8) 0.1405(8) 0.9331(17)
O103_2 O 0.1481(7) 0.1059(12) 0.926(2)
O105_2 O 0.2597(8) 0.1503(6) 0.9297(16)
O107_2 O 0.1874(9) 0.0691(8) 0.9350(19)
O112_2 O 0.2267(6) 0.1080(6) 0.9385(14)
O113_2 O 0.2604(6) 0.1100(6) 0.8389(12)
O115_2 O 0.3004(10) 0.1184(11) 0.929(2)
O131_2 O 0.2304(7) 0.0742(7) 0.8445(15)
O135_2 O 0.2640(7) 0.0760(6) 0.9424(15)
O140_2 O 0.2143(10) 0.1821(6) 0.9199(16)
C43_2 C 0.1692(15) 0.0162(18) 0.880(4)
C44_2 C 0.1522(9) 0.0031(8) 0.856(2)
C49_2 C 0.1515(8) 0.0034(8) 0.797(2)
H26_2 H 0.1650 0.0105 0.7758
C54_2 C 0.1171(9) 0.0094(9) 0.615(2)
C55_2 C 0.1163(9) 0.0078(9) 0.674(2)
H29_2 H 0.1038 0.0165 0.6950
C56_2 C 0.0990(9) 0.0238(10) 0.579(3)
C57_2 C 0.0883(11) 0.0442(11) 0.605(2)
H30_2 H 0.0919 0.0478 0.6438
C58_2 C 0.0724(10) 0.0592(8) 0.573(3)
C59_2 C 0.0672(10) 0.0539(12) 0.516(3)
H31_2 H 0.0563 0.0642 0.4946
C60_2 C 0.0779(14) 0.0335(14) 0.491(2)
H32_2 H 0.0743 0.0299 0.4515
C61_2 C 0.0938(12) 0.0184(9) 0.522(3)
H33_2 H 0.1010 0.0045 0.5046
C62_2 C 0.0597(14) 0.0779(13) 0.609(4)
O141_2 O 0.0592(10) 0.0778(10) 0.660(3)
O143_2 O 0.1871(11) 0.0272(9) 0.855(3)
O144_2 O 0.3005(18) 0.0418(16) 0.932(4)
Zn13_2 Zn 0.46962(15) 0.38245(16) 0.6266(3)
Zn16_2 Zn 0.2846(2) 0.5596(2) 0.5759(5)
O147_2 O 0.2992(11) 0.1551(9) 0.8286(16)
O148_2 O 0.2008(11) 0.3449(9) 0.8286(16)
O76_2 O 0.1870(11) 0.9585(12) 0.611(2)
C45_2 C 0.1325(12) 0.9927(9) 0.8871(13)
H23_2 H 0.1329 0.9924 0.9279
C46_2 C 0.1120(9) 0.9827(9) 0.858(2)
H24_2 H 0.0985 0.9756 0.8791
C47_2 C 0.1113(9) 0.9830(9) 0.799(2)
H25_2 H 0.0973 0.9762 0.7787
C48_2 C 0.1311(11) 0.9934(9) 0.7678(13)
C50_2 C 0.1339(11) 0.9936(10) 0.7031(14)
C51_2 C 0.1522(9) 0.9809(10) 0.673(2)
H27_2 H 0.1642 0.9712 0.6924
C52_2 C 0.1530(9) 0.9825(10) 0.613(2)
C53_2 C 0.1355(11) 0.9968(10) 0.5841(14)
H28_2 H 0.1360 0.9979 0.5434
C84_2 C 0.1681(9) 0.9653(16) 0.580(3)
O142_2 O 0.1755(13) 0.9738(13) 0.529(3)
Zn15_2 Zn 0.2154(2) 0.9404(2) 0.5759(5)
Zn2_3 Zn 0.04789(12) 0.37887(11) 0.3208(3)
Zn3_3 Zn 0.0404(2) 0.30176(15) 0.1330(5)
Zn5_3 Zn 0.05018(9) 0.47930(10) 0.6417(2)
Zn6_3 Zn 0.02182(10) 0.54840(9) 0.8374(2)
Mo3_3 Mo 0.02723(11) 0.35977(10) 0.0798(2)
Mo4_3 Mo 0.06899(12) 0.32277(12) 0.2689(3)
Mo5_3 Mo 0.07152(10) 0.35421(12) 0.1857(3)
Mo6_3 Mo 0.0179(2) 0.28090(13) 0.2710(4)
Mo10_3 Mo 0.02625(12) 0.32334(12) 0.3742(3)
Mo11_3 Mo 0.02829(13) 0.40345(10) 0.1819(2)
Mo15_3 Mo 0.06754(7) 0.50770(7) 0.77779(18)
Mo17_3 Mo 0.01168(7) 0.52633(8) 0.59344(17)
Mo18_3 Mo 0.05451(8) 0.53859(7) 0.69947(18)
P1_6 P -0.0000 0.5000 0.7398(8)
P2_3 P 0.0056(3) 0.3436(3) 0.2280(8)
O1_3 O 0.0704(19) 0.2643(13) 0.188(3)
O4_3 O 0.2054(7) 0.3408(6) 0.5483(17)
O6_3 O 0.0977(5) 0.4557(6) 0.6837(14)
O7_3 O 0.0782(5) 0.4634(5) 0.6035(13)
O8_3 O 0.0726(8) 0.3983(6) 0.3581(12)
O9_3 O 0.0893(7) 0.4113(8) 0.2730(14)
O12_3 O 0.0255(8) 0.3921(8) 0.1030(17)
O17_3 O 0.0586(8) 0.3529(8) 0.1020(16)
O18_3 O 0.0288(11) 0.3618(8) 0.0053(18)
O19_3 O 0.0237(10) 0.2859(5) 0.184(2)
O20_3 O 0.0245(17) 0.2503(10) 0.273(3)
O21_3 O 0.0653(5) 0.3577(6) 0.2687(13)
O23_3 O 0.0576(8) 0.3241(7) 0.3487(14)
O26_3 O 0.0649(8) 0.3905(8) 0.1831(17)
O29_3 O 0.1019(7) 0.3559(12) 0.176(2)
O30_3 O 0.0304(11) 0.3202(9) 0.446(2)
O33_3 O 0.0626(9) 0.3191(8) 0.1850(19)
O34_3 O 0.0176(9) 0.2933(7) 0.354(2)
O36_3 O 0.0238(4) 0.3585(6) 0.3637(12)
O37_3 O 0.0564(12) 0.2890(7) 0.272(2)
O38_3 O 0.0233(6) 0.3580(6) 0.1885(14)
O44_3 O 0.0820(5) 0.5527(6) 0.6910(14)
O47_3 O 0.0296(6) 0.5679(4) 0.7030(13)
O48_3 O 0.0132(6) 0.5292(8) 0.5221(14)
O51_3 O 0.0555(5) 0.5043(5) 0.8585(10)
O52_3 O 0.0078(5) 0.5194(4) 0.8786(11)
O53_3 O 0.0435(5) 0.5344(5) 0.6210(12)
O56_3 O 0.0625(4) 0.5039(5) 0.6952(11)
O57_3 O 0.0470(4) 0.5387(5) 0.7836(11)
O58_3 O 0.0196(7) 0.3242(7) 0.0945(15)
O60_3 O 0.0977(6) 0.5158(7) 0.7865(14)
O62_3 O 0.0092(5) 0.5214(4) 0.7021(9)
O64_3 O 0.0217(5) 0.3268(5) 0.2668(13)
O65_3 O 0.0303(7) 0.3987(6) 0.2679(14)
O66_3 O 0.1008(9) 0.3174(12) 0.271(3)
O68_3 O 0.0357(10) 0.4321(6) 0.1699(16)
C1_3 C 0.0808(15) 0.2662(18) 0.130(4)
C2_3 C 0.0978(9) 0.2531(8) 0.106(2)
C3_3 C 0.1175(12) 0.2427(9) 0.1371(13)
H1_3 H 0.1171 0.2424 0.1779
C4_3 C 0.1380(9) 0.2327(9) 0.108(2)
H2_3 H 0.1515 0.2256 0.1291
C5_3 C 0.1387(9) 0.2330(9) 0.049(2)
H3_3 H 0.1527 0.2262 0.0287
C6_3 C 0.1189(11) 0.2434(9) 0.0178(13)
C7_3 C 0.0985(8) 0.2534(8) 0.047(2)
H4_3 H 0.0850 0.2605 0.0258
C21_3 C 0.2061(10) 0.3429(8) 0.608(3)
C22_3 C 0.1969(5) 0.3634(5) 0.6302(13)
C23_3 C 0.1801(5) 0.3786(6) 0.6018(9)
H12_3 H 0.1761 0.3757 0.5626
C24_3 C 0.1690(5) 0.3980(5) 0.6308(12)
C25_3 C 0.1749(5) 0.4021(4) 0.6882(12)
H13_3 H 0.1673 0.4154 0.7080
C26_3 C 0.1917(5) 0.3869(5) 0.7166(10)
H14_3 H 0.1957 0.3897 0.7558
C27_3 C 0.2027(5) 0.3675(5) 0.6876(13)
H15_3 H 0.2142 0.3571 0.7070
C28_3 C 0.1508(5) 0.4153(5) 0.5995(12)
C29_3 C 0.1322(5) 0.4281(5) 0.6290(9)
H16_3 H 0.1321 0.4282 0.6697
C30_3 C 0.1138(5) 0.4408(5) 0.5987(13)
C31_3 C 0.1140(5) 0.4407(5) 0.5391(13)
H17_3 H 0.1014 0.4494 0.5184
C32_3 C 0.1326(6) 0.4279(6) 0.5096(9)
C33_3 C 0.1510(5) 0.4152(5) 0.5398(12)
H18_3 H 0.1637 0.4065 0.5197
C34_3 C 0.0986(9) 0.4530(8) 0.634(2)
C35_3 C 0.1325(6) 0.4295(5) 0.4442(11)
C36_3 C 0.1117(5) 0.4191(5) 0.4172(14)
H19_3 H 0.0979 0.4134 0.4395
C37_3 C 0.1112(6) 0.4171(6) 0.3578(14)
C38_3 C 0.1314(7) 0.4254(6) 0.3252(11)
H20_3 H 0.1310 0.4239 0.2846
C39_3 C 0.1522(6) 0.4357(6) 0.3522(15)
H21_3 H 0.1661 0.4414 0.3299
C40_3 C 0.1528(5) 0.4378(6) 0.4116(16)
H22_3 H 0.1670 0.4449 0.4300
C41_3 C 0.0923(10) 0.4092(11) 0.328(3)
O71_3 O 0.0629(11) 0.2772(9) 0.105(3)
O73_3 O 0.0225(4) 0.4903(4) 0.7785(10)
Zn7_3 Zn 0.03038(15) 0.61755(16) 0.1266(3)
Mo19_3 Mo 0.0170(2) 0.71784(15) 0.1910(4)
Mo20_3 Mo 0.01809(13) 0.67678(12) 0.0830(3)
Mo25_3 Mo 0.06037(12) 0.66790(19) 0.1885(3)
Mo26_3 Mo 0.00566(13) 0.59191(11) 0.2610(2)
Mo27_3 Mo 0.01278(10) 0.63267(15) 0.3710(2)
Mo30_3 Mo 0.05715(11) 0.6336(2) 0.2649(3)
Mo31_3 Mo 0.00789(8) 0.43551(7) 0.70051(19)
Mo32_3 Mo 0.02772(8) 0.48905(7) 0.88508(18)
Mo34_3 Mo 0.04025(9) 0.44803(7) 0.77878(19)
O84_3 O 0.0169(7) 0.6267(10) 0.4399(18)
O85_3 O 0.0224(7) 0.6818(9) 0.008(2)
O87_3 O 0.0505(7) 0.6684(11) 0.1093(19)
O88_3 O 0.0160(12) 0.7111(10) 0.108(2)
O89_3 O 0.0452(7) 0.6363(11) 0.3468(18)
O90_3 O 0.0280(19) 0.7459(11) 0.185(3)
O96_3 O 0.0041(7) 0.6021(7) 0.3383(14)
O98_3 O 0.0898(10) 0.6680(17) 0.171(3)
O99_3 O 0.0121(14) 0.5636(8) 0.269(2)
O101_3 O 0.0877(10) 0.626(2) 0.271(2)
O102_3 O 0.0171(14) 0.7108(12) 0.265(2)
O105_3 O 0.0097(8) 0.5997(6) 0.1797(16)
O106_3 O 0.0103(7) 0.6709(8) 0.3650(18)
O109_3 O 0.0089(5) 0.6383(7) 0.2655(16)
O113_3 O 0.0104(6) 0.6400(6) 0.0889(12)
O114_3 O 0.0405(10) 0.5935(14) 0.253(2)
O115_3 O 0.0504(10) 0.6316(11) 0.179(2)
O116_3 O 0.0561(6) 0.4222(5) 0.7851(15)
O118_3 O 0.0160(7) 0.4066(5) 0.6900(13)
O119_3 O 0.0046(5) 0.4453(5) 0.6193(12)
O122_3 O 0.0706(5) 0.4709(6) 0.7718(13)
O123_3 O 0.0202(4) 0.4916(5) 0.5986(11)
O127_3 O 0.0316(5) 0.4877(5) 0.9539(11)
O128_3 O 0.0045(5) 0.4405(4) 0.7823(12)
O132_3 O 0.0391(4) 0.4537(5) 0.6997(11)
O134_3 O 0.0363(5) 0.4579(4) 0.8615(10)
O135_3 O 0.0140(7) 0.6740(6) 0.1924(15)
O139_3 O 0.0564(12) 0.6683(12) 0.273(3)
O144_3 O 0.0505(18) 0.7082(16) 0.182(4)
O147_3 O 0.0492(11) 0.5949(9) 0.0786(16)
O149_3 O 0.0344(5) 0.5747(4) 0.8829(13)
C8_3 C 0.1161(11) 0.2436(10) 0.9531(14)
C9_3 C 0.0978(9) 0.2309(10) 0.923(2)
H5_3 H 0.0858 0.2212 0.9424
C10_3 C 0.0970(9) 0.2325(10) 0.863(2)
C11_3 C 0.1145(11) 0.2468(10) 0.8341(14)
H6_3 H 0.1140 0.2479 0.7934
C12_3 C 0.1329(9) 0.2594(9) 0.865(2)
C13_3 C 0.1337(9) 0.2578(9) 0.924(2)
H7_3 H 0.1462 0.2665 0.9450
C14_3 C 0.1510(9) 0.2738(10) 0.829(3)
C15_3 C 0.1617(11) 0.2942(11) 0.855(2)
H8_3 H 0.1581 0.2978 0.8938
C16_3 C 0.1776(10) 0.3092(8) 0.823(3)
C17_3 C 0.1828(10) 0.3039(12) 0.766(3)
H9_3 H 0.1937 0.3142 0.7446
C18_3 C 0.1721(14) 0.2835(14) 0.741(2)
H10_3 H 0.1757 0.2799 0.7015
C19_3 C 0.1562(12) 0.2684(9) 0.772(3)
H11_3 H 0.1490 0.2545 0.7546
C20_3 C 0.1903(14) 0.3279(13) 0.859(4)
O69_3 O 0.1908(10) 0.3278(10) 0.910(3)
C42_3 C 0.0819(9) 0.2153(16) 0.830(3)
O70_3 O 0.0745(13) 0.2238(13) 0.779(3)
Zn1_3 Zn 0.96962(15) 0.38245(16) 0.1266(3)
Mo1_3 Mo 0.9830(2) 0.28216(15) 0.1910(4)
Mo2_3 Mo 0.98191(13) 0.32322(12) 0.0830(3)
Mo7_3 Mo 0.93963(12) 0.33210(19) 0.1885(3)
Mo8_3 Mo 0.99434(13) 0.40809(11) 0.2610(2)
Mo9_3 Mo 0.98722(10) 0.36733(15) 0.3710(2)
Mo12_3 Mo 0.94285(11) 0.3664(2) 0.2649(3)
Mo13_3 Mo 0.99211(8) 0.56449(7) 0.70051(19)
Mo14_3 Mo 0.97228(8) 0.51095(7) 0.88508(18)
Mo16_3 Mo 0.95975(9) 0.55197(7) 0.77878(19)
P1_7 P 1.0000 0.5000 0.7398(8)
O10_3 O 0.9831(7) 0.3733(10) 0.4399(18)
O11_3 O 0.9776(7) 0.3182(9) 0.008(2)
O13_3 O 0.9495(7) 0.3316(11) 0.1093(19)
O14_3 O 0.9840(12) 0.2889(10) 0.108(2)
O15_3 O 0.9548(7) 0.3637(11) 0.3468(18)
O16_3 O 0.9720(19) 0.2541(11) 0.185(3)
O22_3 O 0.9959(7) 0.3979(7) 0.3383(14)
O24_3 O 0.9102(10) 0.3320(17) 0.171(3)
O25_3 O 0.9879(14) 0.4364(8) 0.269(2)
O27_3 O 0.9123(10) 0.374(2) 0.271(2)
O28_3 O 0.9829(14) 0.2892(12) 0.265(2)
O31_3 O 0.9903(8) 0.4003(6) 0.1797(16)
O32_3 O 0.9897(7) 0.3291(8) 0.3650(18)
O35_3 O 0.9911(5) 0.3617(7) 0.2655(16)
O39_3 O 0.9896(6) 0.3600(6) 0.0889(12)
O40_3 O 0.9595(10) 0.4065(14) 0.253(2)
O41_3 O 0.9496(10) 0.3684(11) 0.179(2)
O42_3 O 0.9439(6) 0.5778(5) 0.7851(15)
O43_3 O 0.9775(4) 0.5097(4) 0.7785(10)
O45_3 O 0.9840(7) 0.5934(5) 0.6900(13)
O46_3 O 0.9954(5) 0.5547(5) 0.6193(12)
O49_3 O 0.9294(5) 0.5291(6) 0.7718(13)
O50_3 O 0.9798(4) 0.5084(5) 0.5986(11)
O54_3 O 0.9684(5) 0.5123(5) 0.9539(11)
O55_3 O 0.9955(5) 0.5595(4) 0.7823(12)
O59_3 O 0.9609(4) 0.5463(5) 0.6997(11)
O61_3 O 0.9637(5) 0.5421(4) 0.8615(10)
O63_3 O 0.9860(7) 0.3260(6) 0.1924(15)
O67_3 O 0.9436(12) 0.3317(12) 0.273(3)
O72_3 O 0.9495(18) 0.2918(16) 0.182(4)
O74_3 O 0.9908(5) 0.4786(4) 0.7021(9)
Zn8_3 Zn 0.95211(12) 0.62113(11) 0.3208(3)
Zn9_3 Zn 0.9596(2) 0.69824(15) 0.1330(5)
Zn11_3 Zn 0.94982(9) 0.52070(10) 0.6417(2)
Zn12_3 Zn 0.97818(10) 0.45160(9) 0.8374(2)
Mo21_3 Mo 0.97277(11) 0.64023(10) 0.0798(2)
Mo22_3 Mo 0.93101(12) 0.67723(12) 0.2689(3)
Mo23_3 Mo 0.92848(10) 0.64579(12) 0.1857(3)
Mo24_3 Mo 0.9821(2) 0.71910(13) 0.2710(4)
Mo28_3 Mo 0.97375(12) 0.67666(12) 0.3742(3)
Mo29_3 Mo 0.97171(13) 0.59655(10) 0.1819(2)
Mo33_3 Mo 0.93246(7) 0.49230(7) 0.77779(18)
Mo35_3 Mo 0.98832(7) 0.47367(8) 0.59344(17)
Mo36_3 Mo 0.94549(8) 0.46141(7) 0.69947(18)
P3_3 P 0.9944(3) 0.6564(3) 0.2280(8)
O75_3 O 0.9296(19) 0.7357(13) 0.188(3)
O78_3 O 0.7946(7) 0.6592(6) 0.5483(17)
O79_2 O 0.7844(5) 0.6753(4) 0.6329(13)
O80_3 O 0.9023(5) 0.5443(6) 0.6837(14)
O81_3 O 0.9218(5) 0.5366(5) 0.6035(13)
O82_3 O 0.9274(8) 0.6017(6) 0.3581(12)
O83_3 O 0.9107(7) 0.5887(8) 0.2730(14)
O86_3 O 0.9745(8) 0.6079(8) 0.1030(17)
O91_3 O 0.9414(8) 0.6471(8) 0.1020(16)
O92_3 O 0.9712(11) 0.6382(8) 0.0053(18)
O93_3 O 0.9763(10) 0.7141(5) 0.184(2)
O94_3 O 0.9755(17) 0.7497(10) 0.273(3)
O95_3 O 0.9347(5) 0.6423(6) 0.2687(13)
O97_3 O 0.9424(8) 0.6759(7) 0.3487(14)
O100_3 O 0.9351(8) 0.6095(8) 0.1831(17)
O103_3 O 0.8981(7) 0.6441(12) 0.176(2)
O104_3 O 0.9696(11) 0.6798(9) 0.446(2)
O107_3 O 0.9374(9) 0.6809(8) 0.1850(19)
O108_3 O 0.9824(9) 0.7067(7) 0.354(2)
O110_3 O 0.9762(4) 0.6415(6) 0.3637(12)
O111_3 O 0.9436(12) 0.7110(7) 0.272(2)
O112_3 O 0.9767(6) 0.6420(6) 0.1885(14)
O117_3 O 0.9180(5) 0.4473(6) 0.6910(14)
O120_3 O 0.9704(6) 0.4321(4) 0.7030(13)
O121_3 O 0.9868(6) 0.4708(8) 0.5221(14)
O124_3 O 0.9445(5) 0.4957(5) 0.8585(10)
O125_3 O 0.9922(5) 0.4806(4) 0.8786(11)
O126_3 O 0.9565(5) 0.4656(5) 0.6210(12)
O129_3 O 0.9375(4) 0.4961(5) 0.6952(11)
O130_3 O 0.9530(4) 0.4613(5) 0.7836(11)
O131_3 O 0.9804(7) 0.6758(7) 0.0945(15)
O133_3 O 0.9023(6) 0.4842(7) 0.7865(14)
O136_3 O 0.9783(5) 0.6732(5) 0.2668(13)
O137_3 O 0.9697(7) 0.6013(6) 0.2679(14)
O138_3 O 0.8992(9) 0.6826(12) 0.271(3)
O140_3 O 0.9643(10) 0.5679(6) 0.1699(16)
C43_3 C 0.9192(15) 0.7338(18) 0.130(4)
C44_3 C 0.9022(9) 0.7469(8) 0.106(2)
C45_3 C 0.8825(12) 0.7573(9) 0.1371(13)
H23_3 H 0.8829 0.7576 0.1779
C46_3 C 0.8620(9) 0.7673(9) 0.108(2)
H24_3 H 0.8485 0.7744 0.1291
C47_3 C 0.8613(9) 0.7670(9) 0.049(2)
H25_3 H 0.8473 0.7738 0.0287
C48_3 C 0.8811(11) 0.7566(9) 0.0178(13)
C49_3 C 0.9015(8) 0.7466(8) 0.047(2)
H26_3 H 0.9150 0.7395 0.0258
C63_3 C 0.7939(10) 0.6571(8) 0.608(3)
C64_3 C 0.8031(5) 0.6366(5) 0.6302(13)
C65_3 C 0.8199(5) 0.6214(6) 0.6018(9)
H34_3 H 0.8239 0.6243 0.5626
C66_3 C 0.8310(5) 0.6020(5) 0.6308(12)
C67_3 C 0.8251(5) 0.5979(4) 0.6882(12)
H35_3 H 0.8327 0.5846 0.7080
C68_3 C 0.8083(5) 0.6131(5) 0.7166(10)
H36_3 H 0.8043 0.6103 0.7558
C69_3 C 0.7973(5) 0.6325(5) 0.6876(13)
H37_3 H 0.7858 0.6429 0.7070
C70_3 C 0.8492(5) 0.5847(5) 0.5995(12)
C71_3 C 0.8678(5) 0.5719(5) 0.6290(9)
H38_3 H 0.8679 0.5718 0.6697
C72_3 C 0.8862(5) 0.5592(5) 0.5987(13)
C73_3 C 0.8860(5) 0.5593(5) 0.5391(13)
H39_3 H 0.8986 0.5506 0.5184
C74_3 C 0.8674(6) 0.5721(6) 0.5096(9)
C75_3 C 0.8490(5) 0.5848(5) 0.5398(12)
H40_3 H 0.8363 0.5935 0.5197
C76_3 C 0.9014(9) 0.5470(8) 0.634(2)
C77_3 C 0.8675(6) 0.5705(5) 0.4442(11)
C78_3 C 0.8883(5) 0.5809(5) 0.4172(14)
H41_3 H 0.9021 0.5866 0.4395
C79_3 C 0.8888(6) 0.5829(6) 0.3578(14)
C80_3 C 0.8686(7) 0.5746(6) 0.3252(11)
H42_3 H 0.8690 0.5761 0.2846
C81_3 C 0.8478(6) 0.5643(6) 0.3522(15)
H43_3 H 0.8339 0.5586 0.3299
C82_3 C 0.8472(5) 0.5622(6) 0.4116(16)
H44_3 H 0.8330 0.5551 0.4300
C83_3 C 0.9077(10) 0.5908(11) 0.328(3)
O143_3 O 0.9371(11) 0.7228(9) 0.105(3)
Zn18_2 Zn 0.77182(10) 0.70160(9) 0.5874(2)
O148_3 O 0.9508(11) 0.4051(9) 0.0786(16)
O150_3 O 0.9656(5) 0.4253(4) 0.8829(13)
O77_2 O 0.7992(11) 0.6551(9) 0.8286(16)
C50_3 C 0.8839(11) 0.7564(10) 0.9531(14)
C51_3 C 0.9022(9) 0.7691(10) 0.923(2)
H27_3 H 0.9142 0.7788 0.9424
C52_3 C 0.9030(9) 0.7675(10) 0.863(2)
C53_3 C 0.8855(11) 0.7532(10) 0.8341(14)
H28_3 H 0.8860 0.7521 0.7934
C54_3 C 0.8671(9) 0.7406(9) 0.865(2)
C55_3 C 0.8663(9) 0.7422(9) 0.924(2)
H29_3 H 0.8538 0.7335 0.9450
C56_3 C 0.8490(9) 0.7262(10) 0.829(3)
C57_3 C 0.8383(11) 0.7058(11) 0.855(2)
H30_3 H 0.8419 0.7022 0.8938
C58_3 C 0.8224(10) 0.6908(8) 0.823(3)
C59_3 C 0.8172(10) 0.6961(12) 0.766(3)
H31_3 H 0.8063 0.6858 0.7446
C60_3 C 0.8279(14) 0.7165(14) 0.741(2)
H32_3 H 0.8243 0.7201 0.7015
C61_3 C 0.8438(12) 0.7316(9) 0.772(3)
H33_3 H 0.8510 0.7455 0.7546
C62_3 C 0.8097(14) 0.6721(13) 0.859(4)
O141_3 O 0.8092(10) 0.6722(10) 0.910(3)
C84_3 C 0.9181(9) 0.7847(16) 0.830(3)
O142_3 O 0.9255(13) 0.7762(13) 0.779(3)
Zn14_2 Zn 0.78038(15) 0.63245(16) 0.8766(3)
C3_4 C 0.3675(12) 0.0073(9) 0.3871(13)
H1_4 H 0.3671 0.0076 0.4279
C4_4 C 0.3880(9) 0.0173(9) 0.358(2)
H2_4 H 0.4015 0.0244 0.3791
C5_4 C 0.3887(9) 0.0170(9) 0.299(2)
H3_4 H 0.4027 0.0238 0.2787
C6_4 C 0.3689(11) 0.0066(9) 0.2678(13)
C8_4 C 0.3661(11) 0.0064(10) 0.2031(14)
C9_4 C 0.3478(9) 0.0191(10) 0.173(2)
H5_4 H 0.3358 0.0288 0.1924
C10_4 C 0.3470(9) 0.0175(10) 0.113(2)
C11_4 C 0.3645(11) 0.0032(10) 0.0841(14)
H6_4 H 0.3640 0.0021 0.0434
C42_4 C 0.3319(9) 0.0347(16) 0.080(3)
O70_4 O 0.3245(13) 0.0262(13) 0.029(3)
Zn6_4 Zn 0.27182(10) 0.70160(9) 0.0874(2)
Mo14_4 Mo 0.22228(8) 0.73905(7) 0.13508(18)
Mo15_4 Mo 0.31754(7) 0.74230(7) 0.02779(18)
Mo16_4 Mo 0.20975(9) 0.69803(7) 0.02878(19)
O42_4 O 0.1939(6) 0.6722(5) 0.0351(15)
O43_4 O 0.2275(4) 0.7403(4) 0.0285(10)
O49_4 O 0.1794(5) 0.7209(6) 0.0218(13)
O51_4 O 0.3055(5) 0.7457(5) 0.1085(10)
O52_4 O 0.2578(5) 0.7306(4) 0.1286(11)
O54_4 O 0.2184(5) 0.7377(5) 0.2039(11)
O55_4 O 0.2455(5) 0.6905(4) 0.0323(12)
O57_4 O 0.2970(4) 0.7113(5) 0.0336(11)
O60_4 O 0.3477(6) 0.7342(7) 0.0365(14)
O61_4 O 0.2137(5) 0.7079(4) 0.1115(10)
H14_4 H 0.4457 0.8603 0.0058
O73_4 O 0.2725(4) 0.7597(4) 0.0285(10)
Mo32_4 Mo 0.27772(8) 0.76095(7) 0.13508(18)
Mo33_4 Mo 0.18246(7) 0.75770(7) 0.02779(18)
Mo34_4 Mo 0.29025(9) 0.80197(7) 0.02878(19)
O116_4 O 0.3061(6) 0.8278(5) 0.0351(15)
O122_4 O 0.3206(5) 0.7791(6) 0.0218(13)
O124_4 O 0.1945(5) 0.7543(5) 0.1085(10)
O125_4 O 0.2422(5) 0.7694(4) 0.1286(11)
O127_4 O 0.2816(5) 0.7623(5) 0.2039(11)
O128_4 O 0.2545(5) 0.8095(4) 0.0323(12)
O130_4 O 0.2030(4) 0.7887(5) 0.0336(11)
O133_4 O 0.1523(6) 0.7658(7) 0.0365(14)
O134_4 O 0.2863(5) 0.7921(4) 0.1115(10)
H36_4 H 0.0543 0.6397 0.0058
O149_4 O 0.2844(5) 0.6753(4) 0.1329(13)
Zn2_4 Zn 0.29789(12) 0.87113(11) 0.5708(3)
Zn3_4 Zn 0.2904(2) 0.94824(15) 0.3830(5)
Zn5_4 Zn 0.30018(9) 0.77070(10) 0.8917(2)
Mo1_4 Mo 0.2330(2) 0.96784(15) 0.4410(4)
Mo2_4 Mo 0.23191(13) 0.92678(12) 0.3330(3)
Mo3_4 Mo 0.27723(11) 0.89023(10) 0.3298(2)
Mo4_4 Mo 0.31899(12) 0.92723(12) 0.5189(3)
Mo5_4 Mo 0.32152(10) 0.89579(12) 0.4357(3)
Mo6_4 Mo 0.2679(2) 0.96910(13) 0.5210(4)
Mo7_4 Mo 0.18963(12) 0.91790(19) 0.4385(3)
Mo8_4 Mo 0.24434(13) 0.84191(11) 0.5110(2)
Mo9_4 Mo 0.23722(10) 0.88267(15) 0.6210(2)
Mo10_4 Mo 0.27625(12) 0.92666(12) 0.6242(3)
Mo11_4 Mo 0.27829(13) 0.84655(10) 0.4319(2)
Mo12_4 Mo 0.19285(11) 0.8836(2) 0.5149(3)
Mo13_4 Mo 0.24211(8) 0.68551(7) 0.95051(19)
Mo17_4 Mo 0.26168(7) 0.72367(8) 0.84344(17)
Mo18_4 Mo 0.30451(8) 0.71141(7) 0.94947(18)
P1_8 P 0.2500 0.7500 0.9898(8)
P2_4 P 0.2556(3) 0.9064(3) 0.4780(8)
O1_4 O 0.3204(19) 0.9857(13) 0.438(3)
O3_3 O 0.4508(11) 0.9051(9) 0.0786(16)
O4_4 O 0.4554(7) 0.9092(6) 0.7983(17)
O5_3 O 0.4656(5) 0.9253(4) 0.8829(13)
O6_4 O 0.3477(5) 0.7943(6) 0.9337(14)
O7_4 O 0.3282(5) 0.7866(5) 0.8535(13)
O8_4 O 0.3226(8) 0.8517(6) 0.6081(12)
O9_4 O 0.3393(7) 0.8387(8) 0.5230(14)
O10_4 O 0.2331(7) 0.8767(10) 0.6899(18)
O11_4 O 0.2276(7) 0.9318(9) 0.258(2)
O12_4 O 0.2755(8) 0.8579(8) 0.3530(17)
O13_4 O 0.1995(7) 0.9184(11) 0.3593(19)
O14_4 O 0.2340(12) 0.9611(10) 0.358(2)
O15_4 O 0.2048(7) 0.8863(11) 0.5968(18)
O16_4 O 0.2220(19) 0.9959(11) 0.435(3)
O17_4 O 0.3086(8) 0.8971(8) 0.3520(16)
O18_4 O 0.2788(11) 0.8882(8) 0.2553(18)
O19_4 O 0.2737(10) 0.9641(5) 0.434(2)
O20_4 O 0.2745(17) 0.9997(10) 0.523(3)
O21_4 O 0.3153(5) 0.8923(6) 0.5187(13)
O22_4 O 0.2459(7) 0.8521(7) 0.5883(14)
O23_4 O 0.3076(8) 0.9259(7) 0.5987(14)
O24_4 O 0.1602(10) 0.9180(17) 0.421(3)
O25_4 O 0.2379(14) 0.8136(8) 0.519(2)
O26_4 O 0.3149(8) 0.8595(8) 0.4331(17)
O27_4 O 0.1623(10) 0.876(2) 0.521(2)
O28_4 O 0.2329(14) 0.9608(12) 0.515(2)
O29_4 O 0.3519(7) 0.8941(12) 0.426(2)
O30_4 O 0.2804(11) 0.9298(9) 0.696(2)
O31_4 O 0.2403(8) 0.8497(6) 0.4297(16)
O32_4 O 0.2397(7) 0.9209(8) 0.6150(18)
O33_4 O 0.3126(9) 0.9309(8) 0.4350(19)
O34_4 O 0.2676(9) 0.9567(7) 0.604(2)
O35_4 O 0.2411(5) 0.8883(7) 0.5155(16)
O36_4 O 0.2738(4) 0.8915(6) 0.6137(12)
O37_4 O 0.3064(12) 0.9610(7) 0.522(2)
O38_4 O 0.2733(6) 0.8920(6) 0.4385(14)
O39_4 O 0.2396(6) 0.8900(6) 0.3389(12)
O40_4 O 0.2095(10) 0.8435(14) 0.503(2)
O41_4 O 0.1996(10) 0.8816(11) 0.429(2)
O44_4 O 0.3320(5) 0.6973(6) 0.9410(14)
O45_4 O 0.2340(7) 0.6566(5) 0.9400(13)
O46_4 O 0.2454(5) 0.6953(5) 0.8693(12)
O47_4 O 0.2796(6) 0.6821(4) 0.9530(13)
O48_4 O 0.2632(6) 0.7208(8) 0.7721(14)
O50_4 O 0.2298(4) 0.7416(5) 0.8486(11)
O53_4 O 0.2935(5) 0.7156(5) 0.8710(12)
O56_4 O 0.3125(4) 0.7461(5) 0.9452(11)
O58_4 O 0.2696(7) 0.9258(7) 0.3445(15)
O59_4 O 0.2109(4) 0.7037(5) 0.9497(11)
O62_4 O 0.2592(5) 0.7286(4) 0.9521(9)
O63_4 O 0.2360(7) 0.9240(6) 0.4424(15)
O64_4 O 0.2717(5) 0.9232(5) 0.5168(13)
O65_4 O 0.2803(7) 0.8513(6) 0.5179(14)
O66_4 O 0.3508(9) 0.9326(12) 0.521(3)
O67_4 O 0.1936(12) 0.9183(12) 0.523(3)
O68_4 O 0.2857(10) 0.8179(6) 0.4199(16)
C1_4 C 0.3308(15) 0.9838(18) 0.380(4)
C2_4 C 0.3478(9) 0.9969(8) 0.356(2)
C7_4 C 0.3485(8) 0.9966(8) 0.297(2)
H4_4 H 0.3350 0.9895 0.2758
C12_4 C 0.3829(9) 0.9906(9) 0.115(2)
C13_4 C 0.3837(9) 0.9922(9) 0.174(2)
H7_4 H 0.3962 0.9835 0.1950
C14_4 C 0.4010(9) 0.9762(10) 0.079(3)
C15_4 C 0.4117(11) 0.9558(11) 0.105(2)
H8_4 H 0.4081 0.9522 0.1438
C16_4 C 0.4276(10) 0.9408(8) 0.073(3)
C17_4 C 0.4328(10) 0.9461(12) 0.016(3)
C19_4 C 0.4062(12) 0.9816(9) 0.022(3)
H11_4 H 0.3990 0.9955 0.0046
C20_4 C 0.4403(14) 0.9221(13) 0.109(4)
C21_4 C 0.4561(10) 0.9071(8) 0.858(3)
C22_4 C 0.4469(5) 0.8866(5) 0.8802(13)
C23_4 C 0.4301(5) 0.8714(6) 0.8518(9)
H12_4 H 0.4261 0.8743 0.8126
C24_4 C 0.4190(5) 0.8520(5) 0.8808(12)
C25_4 C 0.4249(5) 0.8479(4) 0.9382(12)
H13_4 H 0.4173 0.8346 0.9580
C26_4 C 0.4417(5) 0.8631(5) 0.9666(10)
C27_4 C 0.4527(5) 0.8825(5) 0.9376(13)
H15_4 H 0.4642 0.8929 0.9570
C28_4 C 0.4008(5) 0.8347(5) 0.8495(12)
C29_4 C 0.3822(5) 0.8219(5) 0.8790(9)
H16_4 H 0.3821 0.8218 0.9197
C30_4 C 0.3638(5) 0.8092(5) 0.8487(13)
C31_4 C 0.3640(5) 0.8093(5) 0.7891(13)
H17_4 H 0.3514 0.8006 0.7684
C32_4 C 0.3826(6) 0.8221(6) 0.7596(9)
C33_4 C 0.4010(5) 0.8348(5) 0.7898(12)
H18_4 H 0.4137 0.8435 0.7697
C34_4 C 0.3486(9) 0.7970(8) 0.884(2)
C35_4 C 0.3825(6) 0.8205(5) 0.6942(11)
C36_4 C 0.3617(5) 0.8309(5) 0.6672(14)
H19_4 H 0.3479 0.8366 0.6895
C37_4 C 0.3612(6) 0.8329(6) 0.6078(14)
C38_4 C 0.3814(7) 0.8246(6) 0.5752(11)
H20_4 H 0.3810 0.8261 0.5346
C39_4 C 0.4022(6) 0.8143(6) 0.6022(15)
H21_4 H 0.4161 0.8086 0.5799
C40_4 C 0.4028(5) 0.8122(6) 0.6616(16)
H22_4 H 0.4170 0.8051 0.6800
C41_4 C 0.3423(10) 0.8408(11) 0.578(3)
O69_4 O 0.4408(10) 0.9222(10) 0.160(3)
O71_4 O 0.3129(11) 0.9728(9) 0.355(3)
O72_4 O 0.1995(18) 0.9582(16) 0.432(4)
O74_4 O 0.2408(5) 0.7714(4) 0.9521(9)
Zn7_4 Zn 0.28038(15) 0.63245(16) 0.3766(3)
Zn8_4 Zn 0.20211(12) 0.62887(11) 0.5708(3)
Zn9_4 Zn 0.2096(2) 0.55176(15) 0.3830(5)
Zn11_4 Zn 0.19982(9) 0.72930(10) 0.8917(2)
Mo19_4 Mo 0.2670(2) 0.53216(15) 0.4410(4)
Mo20_4 Mo 0.26809(13) 0.57322(12) 0.3330(3)
Mo21_4 Mo 0.22277(11) 0.60977(10) 0.3298(2)
Mo22_4 Mo 0.18101(12) 0.57277(12) 0.5189(3)
Mo23_4 Mo 0.17848(10) 0.60421(12) 0.4357(3)
Mo24_4 Mo 0.2321(2) 0.53090(13) 0.5210(4)
Mo25_4 Mo 0.31037(12) 0.58210(19) 0.4385(3)
Mo26_4 Mo 0.25566(13) 0.65809(11) 0.5110(2)
Mo27_4 Mo 0.26278(10) 0.61733(15) 0.6210(2)
Mo28_4 Mo 0.22375(12) 0.57334(12) 0.6242(3)
Mo29_4 Mo 0.22171(13) 0.65345(10) 0.4319(2)
Mo30_4 Mo 0.30715(11) 0.6164(2) 0.5149(3)
Mo31_4 Mo 0.25789(8) 0.81449(7) 0.95051(19)
Mo35_4 Mo 0.23832(7) 0.77633(8) 0.84344(17)
Mo36_4 Mo 0.19549(8) 0.78859(7) 0.94947(18)
P3_4 P 0.2444(3) 0.5936(3) 0.4780(8)
O75_4 O 0.1796(19) 0.5143(13) 0.438(3)
O78_4 O 0.0446(7) 0.5908(6) 0.7983(17)
O80_4 O 0.1523(5) 0.7057(6) 0.9337(14)
O81_4 O 0.1718(5) 0.7134(5) 0.8535(13)
O82_4 O 0.1774(8) 0.6483(6) 0.6081(12)
O83_4 O 0.1607(7) 0.6613(8) 0.5230(14)
O84_4 O 0.2669(7) 0.6233(10) 0.6899(18)
O85_4 O 0.2724(7) 0.5682(9) 0.258(2)
O86_4 O 0.2245(8) 0.6421(8) 0.3530(17)
O87_4 O 0.3005(7) 0.5816(11) 0.3593(19)
O88_4 O 0.2660(12) 0.5389(10) 0.358(2)
O89_4 O 0.2952(7) 0.6137(11) 0.5968(18)
O90_4 O 0.2780(19) 0.5041(11) 0.435(3)
O91_4 O 0.1914(8) 0.6029(8) 0.3520(16)
O92_4 O 0.2212(11) 0.6118(8) 0.2553(18)
O93_4 O 0.2263(10) 0.5359(5) 0.434(2)
O94_4 O 0.2255(17) 0.5003(10) 0.523(3)
O95_4 O 0.1847(5) 0.6077(6) 0.5187(13)
O96_4 O 0.2541(7) 0.6479(7) 0.5883(14)
O97_4 O 0.1924(8) 0.5741(7) 0.5987(14)
O98_4 O 0.3398(10) 0.5820(17) 0.421(3)
O99_4 O 0.2621(14) 0.6864(8) 0.519(2)
O100_4 O 0.1851(8) 0.6405(8) 0.4331(17)
O101_4 O 0.3377(10) 0.624(2) 0.521(2)
O102_4 O 0.2671(14) 0.5392(12) 0.515(2)
O103_4 O 0.1481(7) 0.6059(12) 0.426(2)
O104_4 O 0.2196(11) 0.5702(9) 0.696(2)
O105_4 O 0.2597(8) 0.6503(6) 0.4297(16)
O106_4 O 0.2603(7) 0.5791(8) 0.6150(18)
O107_4 O 0.1874(9) 0.5691(8) 0.4350(19)
O108_4 O 0.2324(9) 0.5433(7) 0.604(2)
O109_4 O 0.2589(5) 0.6117(7) 0.5155(16)
O110_4 O 0.2262(4) 0.6085(6) 0.6137(12)
O111_4 O 0.1936(12) 0.5390(7) 0.522(2)
O112_4 O 0.2267(6) 0.6080(6) 0.4385(14)
O113_4 O 0.2604(6) 0.6100(6) 0.3389(12)
O114_4 O 0.2905(10) 0.6565(14) 0.503(2)
O115_4 O 0.3004(10) 0.6184(11) 0.429(2)
O117_4 O 0.1680(5) 0.8027(6) 0.9410(14)
O118_4 O 0.2660(7) 0.8434(5) 0.9400(13)
O119_4 O 0.2546(5) 0.8047(5) 0.8693(12)
O120_4 O 0.2204(6) 0.8179(4) 0.9530(13)
O121_4 O 0.2368(6) 0.7792(8) 0.7721(14)
O123_4 O 0.2702(4) 0.7584(5) 0.8486(11)
O126_4 O 0.2065(5) 0.7844(5) 0.8710(12)
O129_4 O 0.1875(4) 0.7539(5) 0.9452(11)
O131_4 O 0.2304(7) 0.5742(7) 0.3445(15)
O132_4 O 0.2891(4) 0.7963(5) 0.9497(11)
O135_4 O 0.2640(7) 0.5760(6) 0.4424(15)
O136_4 O 0.2283(5) 0.5768(5) 0.5168(13)
O137_4 O 0.2197(7) 0.6487(6) 0.5179(14)
O138_4 O 0.1492(9) 0.5674(12) 0.521(3)
O139_4 O 0.3064(12) 0.5817(12) 0.523(3)
O140_4 O 0.2143(10) 0.6821(6) 0.4199(16)
C43_4 C 0.1692(15) 0.5162(18) 0.380(4)
C44_4 C 0.1522(9) 0.5031(8) 0.356(2)
C45_4 C 0.1325(12) 0.4927(9) 0.3871(13)
H23_4 H 0.1329 0.4924 0.4279
C46_4 C 0.1120(9) 0.4827(9) 0.358(2)
H24_4 H 0.0985 0.4756 0.3791
C47_4 C 0.1113(9) 0.4830(9) 0.299(2)
H25_4 H 0.0973 0.4762 0.2787
C48_4 C 0.1311(11) 0.4934(9) 0.2678(13)
C49_4 C 0.1515(8) 0.5034(8) 0.297(2)
H26_4 H 0.1650 0.5105 0.2758
C50_4 C 0.1339(11) 0.4936(10) 0.2031(14)
C51_4 C 0.1522(9) 0.4809(10) 0.173(2)
H27_4 H 0.1642 0.4712 0.1924
C52_4 C 0.1530(9) 0.4825(10) 0.113(2)
C53_4 C 0.1355(11) 0.4968(10) 0.0841(14)
H28_4 H 0.1360 0.4979 0.0434
C54_4 C 0.1171(9) 0.5094(9) 0.115(2)
C55_4 C 0.1163(9) 0.5078(9) 0.174(2)
H29_4 H 0.1038 0.5165 0.1950
C56_4 C 0.0990(9) 0.5238(10) 0.079(3)
C57_4 C 0.0883(11) 0.5442(11) 0.105(2)
H30_4 H 0.0919 0.5478 0.1438
C58_4 C 0.0724(10) 0.5592(8) 0.073(3)
C59_4 C 0.0672(10) 0.5539(12) 0.016(3)
C61_4 C 0.0938(12) 0.5184(9) 0.022(3)
H33_4 H 0.1010 0.5045 0.0046
C62_4 C 0.0597(14) 0.5779(13) 0.109(4)
C63_4 C 0.0439(10) 0.5929(8) 0.858(3)
C64_4 C 0.0531(5) 0.6134(5) 0.8802(13)
C65_4 C 0.0699(5) 0.6286(6) 0.8518(9)
H34_4 H 0.0739 0.6257 0.8126
C66_4 C 0.0810(5) 0.6480(5) 0.8808(12)
C67_4 C 0.0751(5) 0.6521(4) 0.9382(12)
H35_4 H 0.0827 0.6654 0.9580
C68_4 C 0.0583(5) 0.6369(5) 0.9666(10)
C69_4 C 0.0473(5) 0.6175(5) 0.9376(13)
H37_4 H 0.0358 0.6071 0.9570
C70_4 C 0.0992(5) 0.6653(5) 0.8495(12)
C71_4 C 0.1178(5) 0.6781(5) 0.8790(9)
H38_4 H 0.1179 0.6782 0.9197
C72_4 C 0.1362(5) 0.6908(5) 0.8487(13)
C73_4 C 0.1360(5) 0.6907(5) 0.7891(13)
H39_4 H 0.1486 0.6994 0.7684
C74_4 C 0.1174(6) 0.6779(6) 0.7596(9)
C75_4 C 0.0990(5) 0.6652(5) 0.7898(12)
H40_4 H 0.0863 0.6565 0.7697
C76_4 C 0.1514(9) 0.7030(8) 0.884(2)
C77_4 C 0.1175(6) 0.6795(5) 0.6942(11)
C78_4 C 0.1383(5) 0.6691(5) 0.6672(14)
H41_4 H 0.1521 0.6634 0.6895
C79_4 C 0.1388(6) 0.6671(6) 0.6078(14)
C80_4 C 0.1186(7) 0.6754(6) 0.5752(11)
H42_4 H 0.1190 0.6739 0.5346
C81_4 C 0.0978(6) 0.6857(6) 0.6022(15)
H43_4 H 0.0839 0.6914 0.5799
C82_4 C 0.0972(5) 0.6878(6) 0.6616(16)
H44_4 H 0.0830 0.6949 0.6800
C83_4 C 0.1577(10) 0.6592(11) 0.578(3)
O141_4 O 0.0592(10) 0.5778(10) 0.160(3)
C84_4 C 0.1681(9) 0.4653(16) 0.080(3)
O142_4 O 0.1755(13) 0.4738(13) 0.029(3)
O143_4 O 0.1871(11) 0.5272(9) 0.355(3)
O144_4 O 0.3005(18) 0.5418(16) 0.432(4)
Zn13_3 Zn 0.46962(15) 0.88245(16) 0.1266(3)
Zn17_3 Zn 0.47818(10) 0.95160(9) 0.8374(2)
O147_4 O 0.2992(11) 0.6551(9) 0.3286(16)
Zn6_5 Zn 0.52182(10) 0.04840(9) 0.8374(2)
Mo13_5 Mo 0.49211(8) 0.06449(7) 0.70051(19)
Mo14_5 Mo 0.47228(8) 0.01095(7) 0.88508(18)
Mo15_5 Mo 0.56754(7) 0.00770(7) 0.77779(18)
Mo16_5 Mo 0.45975(9) 0.05197(7) 0.77878(19)
Mo17_5 Mo 0.51168(7) 0.02633(8) 0.59344(17)
Mo18_5 Mo 0.55451(8) 0.03859(7) 0.69947(18)
P1_9 P 0.5000 0.0000 0.7398(8)
O42_5 O 0.4439(6) 0.0778(5) 0.7851(15)
O43_5 O 0.4775(4) 0.0097(4) 0.7785(10)
O44_5 O 0.5820(5) 0.0527(6) 0.6910(14)
O45_5 O 0.4840(7) 0.0934(5) 0.6900(13)
O46_5 O 0.4954(5) 0.0547(5) 0.6193(12)
O47_5 O 0.5296(6) 0.0679(4) 0.7030(13)
O48_5 O 0.5132(6) 0.0292(8) 0.5221(14)
O49_5 O 0.4294(5) 0.0291(6) 0.7718(13)
O50_5 O 0.4798(4) 0.0084(5) 0.5986(11)
O51_5 O 0.5555(5) 0.0043(5) 0.8585(10)
O52_5 O 0.5078(5) 0.0194(4) 0.8786(11)
O53_5 O 0.5435(5) 0.0344(5) 0.6210(12)
O54_5 O 0.4684(5) 0.0123(5) 0.9539(11)
O55_5 O 0.4955(5) 0.0595(4) 0.7823(12)
O56_5 O 0.5625(4) 0.0039(5) 0.6952(11)
O57_5 O 0.5470(4) 0.0387(5) 0.7836(11)
O59_5 O 0.4609(4) 0.0463(5) 0.6997(11)
O60_5 O 0.5977(6) 0.0158(7) 0.7865(14)
O61_5 O 0.4637(5) 0.0421(4) 0.8615(10)
O62_5 O 0.5092(5) 0.0214(4) 0.7021(9)
Zn7_5 Zn 0.53038(15) 0.11755(16) 0.1266(3)
Zn8_5 Zn 0.45211(12) 0.12113(11) 0.3208(3)
Zn9_5 Zn 0.4596(2) 0.19824(15) 0.1330(5)
Zn10_3 Zn 0.5346(2) 0.1904(2) 0.3259(5)
Zn11_5 Zn 0.44982(9) 0.02070(10) 0.6417(2)
Mo19_5 Mo 0.5170(2) 0.21784(15) 0.1910(4)
Mo20_5 Mo 0.51809(13) 0.17678(12) 0.0830(3)
Mo21_5 Mo 0.47277(11) 0.14023(10) 0.0798(2)
Mo22_5 Mo 0.43101(12) 0.17723(12) 0.2689(3)
Mo23_5 Mo 0.42848(10) 0.14579(12) 0.1857(3)
Mo24_5 Mo 0.4821(2) 0.21910(13) 0.2710(4)
Mo25_5 Mo 0.56037(12) 0.16790(19) 0.1885(3)
Mo26_5 Mo 0.50566(13) 0.09191(11) 0.2610(2)
Mo27_5 Mo 0.51278(10) 0.13267(15) 0.3710(2)
Mo28_5 Mo 0.47375(12) 0.17666(12) 0.3742(3)
Mo29_5 Mo 0.47171(13) 0.09655(10) 0.1819(2)
Mo30_5 Mo 0.55715(11) 0.1336(2) 0.2649(3)
P3_5 P 0.4944(3) 0.1564(3) 0.2280(8)
O75_5 O 0.4296(19) 0.2357(13) 0.188(3)
O78_5 O 0.2946(7) 0.1592(6) 0.5483(17)
O80_5 O 0.4023(5) 0.0443(6) 0.6837(14)
O81_5 O 0.4218(5) 0.0366(5) 0.6035(13)
O82_5 O 0.4274(8) 0.1017(6) 0.3581(12)
O83_5 O 0.4107(7) 0.0887(8) 0.2730(14)
O84_5 O 0.5169(7) 0.1267(10) 0.4399(18)
O85_5 O 0.5224(7) 0.1818(9) 0.008(2)
O86_5 O 0.4745(8) 0.1079(8) 0.1030(17)
O87_5 O 0.5505(7) 0.1684(11) 0.1093(19)
O88_5 O 0.5160(12) 0.2111(10) 0.108(2)
O89_5 O 0.5452(7) 0.1363(11) 0.3468(18)
O90_5 O 0.5280(19) 0.2459(11) 0.185(3)
O91_5 O 0.4414(8) 0.1471(8) 0.1020(16)
O92_5 O 0.4712(11) 0.1382(8) 0.0053(18)
O93_5 O 0.4763(10) 0.2141(5) 0.184(2)
O94_5 O 0.4755(17) 0.2497(10) 0.273(3)
O95_5 O 0.4347(5) 0.1423(6) 0.2687(13)
O96_5 O 0.5041(7) 0.1021(7) 0.3383(14)
O97_5 O 0.4424(8) 0.1759(7) 0.3487(14)
O98_5 O 0.5898(10) 0.1680(17) 0.171(3)
O99_5 O 0.5121(14) 0.0636(8) 0.269(2)
O100_5 O 0.4351(8) 0.1095(8) 0.1831(17)
O101_5 O 0.5877(10) 0.126(2) 0.271(2)
O102_5 O 0.5171(14) 0.2108(12) 0.265(2)
O103_5 O 0.3981(7) 0.1441(12) 0.176(2)
O104_5 O 0.4696(11) 0.1798(9) 0.446(2)
O105_5 O 0.5097(8) 0.0997(6) 0.1797(16)
O106_5 O 0.5103(7) 0.1709(8) 0.3650(18)
O107_5 O 0.4374(9) 0.1809(8) 0.1850(19)
O108_5 O 0.4824(9) 0.2067(7) 0.354(2)
O109_5 O 0.5089(5) 0.1383(7) 0.2655(16)
O110_5 O 0.4762(4) 0.1415(6) 0.3637(12)
O111_5 O 0.4436(12) 0.2110(7) 0.272(2)
O112_5 O 0.4767(6) 0.1420(6) 0.1885(14)
O113_5 O 0.5104(6) 0.1400(6) 0.0889(12)
O114_5 O 0.5405(10) 0.0935(14) 0.253(2)
O115_5 O 0.5504(10) 0.1316(11) 0.179(2)
O131_5 O 0.4804(7) 0.1758(7) 0.0945(15)
O135_5 O 0.5140(7) 0.1740(6) 0.1924(15)
O136_5 O 0.4783(5) 0.1732(5) 0.2668(13)
O137_5 O 0.4697(7) 0.1013(6) 0.2679(14)
O138_5 O 0.3992(9) 0.1826(12) 0.271(3)
O139_5 O 0.5564(12) 0.1683(12) 0.273(3)
O140_5 O 0.4643(10) 0.0679(6) 0.1699(16)
C43_5 C 0.4192(15) 0.2338(18) 0.130(4)
C44_5 C 0.4022(9) 0.2469(8) 0.106(2)
C45_5 C 0.3825(12) 0.2573(9) 0.1371(13)
H23_5 H 0.3829 0.2576 0.1779
C46_5 C 0.3620(9) 0.2673(9) 0.108(2)
H24_5 H 0.3485 0.2744 0.1291
C47_5 C 0.3613(9) 0.2670(9) 0.049(2)
H25_5 H 0.3473 0.2738 0.0287
C48_5 C 0.3811(11) 0.2566(9) 0.0178(13)
C49_5 C 0.4015(8) 0.2466(8) 0.047(2)
H26_5 H 0.4150 0.2395 0.0258
C63_5 C 0.2939(10) 0.1571(8) 0.608(3)
C64_5 C 0.3031(5) 0.1366(5) 0.6302(13)
C65_5 C 0.3199(5) 0.1214(6) 0.6018(9)
H34_5 H 0.3239 0.1243 0.5626
C66_5 C 0.3310(5) 0.1020(5) 0.6308(12)
C67_5 C 0.3251(5) 0.0979(4) 0.6882(12)
H35_5 H 0.3327 0.0846 0.7080
C68_5 C 0.3083(5) 0.1131(5) 0.7166(10)
H36_5 H 0.3043 0.1103 0.7558
C69_5 C 0.2973(5) 0.1325(5) 0.6876(13)
H37_5 H 0.2858 0.1429 0.7070
C70_5 C 0.3492(5) 0.0847(5) 0.5995(12)
C71_5 C 0.3678(5) 0.0719(5) 0.6290(9)
H38_5 H 0.3679 0.0718 0.6697
C72_5 C 0.3862(5) 0.0592(5) 0.5987(13)
C73_5 C 0.3860(5) 0.0593(5) 0.5391(13)
H39_5 H 0.3986 0.0506 0.5184
C74_5 C 0.3674(6) 0.0721(6) 0.5096(9)
C75_5 C 0.3490(5) 0.0848(5) 0.5398(12)
H40_5 H 0.3363 0.0935 0.5197
C76_5 C 0.4014(9) 0.0470(8) 0.634(2)
C77_5 C 0.3675(6) 0.0705(5) 0.4442(11)
C78_5 C 0.3883(5) 0.0809(5) 0.4172(14)
H41_5 H 0.4021 0.0866 0.4395
C79_5 C 0.3888(6) 0.0829(6) 0.3578(14)
C80_5 C 0.3686(7) 0.0746(6) 0.3252(11)
H42_5 H 0.3690 0.0761 0.2846
C81_5 C 0.3478(6) 0.0643(6) 0.3522(15)
H43_5 H 0.3339 0.0586 0.3299
C82_5 C 0.3472(5) 0.0622(6) 0.4116(16)
H44_5 H 0.3330 0.0551 0.4300
C83_5 C 0.4077(10) 0.0908(11) 0.328(3)
O143_5 O 0.4371(11) 0.2228(9) 0.105(3)
O144_5 O 0.5505(18) 0.2082(16) 0.182(4)
O145_3 O 0.5630(11) 0.2085(12) 0.361(2)
O147_5 O 0.5492(11) 0.0949(9) 0.0786(16)
O149_5 O 0.5344(5) 0.0747(4) 0.8829(13)
O76_3 O 0.4370(11) 0.2915(12) 0.861(2)
C50_5 C 0.3839(11) 0.2564(10) 0.9531(14)
C51_5 C 0.4022(9) 0.2691(10) 0.923(2)
H27_5 H 0.4142 0.2788 0.9424
C52_5 C 0.4030(9) 0.2675(10) 0.863(2)
C53_5 C 0.3855(11) 0.2532(10) 0.8341(14)
H28_5 H 0.3860 0.2521 0.7934
C54_5 C 0.3671(9) 0.2406(9) 0.865(2)
C55_5 C 0.3663(9) 0.2422(9) 0.924(2)
H29_5 H 0.3538 0.2335 0.9450
C56_5 C 0.3490(9) 0.2262(10) 0.829(3)
C57_5 C 0.3383(11) 0.2058(11) 0.855(2)
H30_5 H 0.3419 0.2022 0.8938
C58_5 C 0.3224(10) 0.1908(8) 0.823(3)
C59_5 C 0.3172(10) 0.1961(12) 0.766(3)
H31_4 H 0.3063 0.1858 0.7446
C60_4 C 0.3279(14) 0.2165(14) 0.741(2)
H32_4 H 0.3243 0.2201 0.7015
C61_5 C 0.3438(12) 0.2316(9) 0.772(3)
H33_5 H 0.3510 0.2455 0.7546
C62_5 C 0.3097(14) 0.1721(13) 0.859(4)
O141_5 O 0.3092(10) 0.1722(10) 0.910(3)
C84_5 C 0.4181(9) 0.2847(16) 0.830(3)
O142_5 O 0.4255(13) 0.2762(13) 0.779(3)
Zn15_3 Zn 0.4654(2) 0.3096(2) 0.8259(5)
Zn2_5 Zn 0.54789(12) 0.87887(11) 0.3208(3)
Zn3_5 Zn 0.5404(2) 0.80176(15) 0.1330(5)
Zn4_3 Zn 0.4654(2) 0.8096(2) 0.3259(5)
Zn5_5 Zn 0.55018(9) 0.97930(10) 0.6417(2)
Mo1_5 Mo 0.4830(2) 0.78216(15) 0.1910(4)
Mo2_5 Mo 0.48191(13) 0.82322(12) 0.0830(3)
Mo3_5 Mo 0.52723(11) 0.85977(10) 0.0798(2)
Mo4_5 Mo 0.56899(12) 0.82277(12) 0.2689(3)
Mo5_5 Mo 0.57152(10) 0.85421(12) 0.1857(3)
Mo6_5 Mo 0.5179(2) 0.78090(13) 0.2710(4)
Mo7_5 Mo 0.43963(12) 0.83210(19) 0.1885(3)
Mo8_5 Mo 0.49434(13) 0.90809(11) 0.2610(2)
Mo9_5 Mo 0.48722(10) 0.86733(15) 0.3710(2)
Mo10_5 Mo 0.52625(12) 0.82334(12) 0.3742(3)
Mo11_5 Mo 0.52829(13) 0.90345(10) 0.1819(2)
Mo12_5 Mo 0.44285(11) 0.8664(2) 0.2649(3)
P1_10 P 0.5000 1.0000 0.7398(8)
P2_5 P 0.5056(3) 0.8436(3) 0.2280(8)
O1_5 O 0.5704(19) 0.7643(13) 0.188(3)
O4_5 O 0.7054(7) 0.8408(6) 0.5483(17)
O5_4 O 0.7156(5) 0.8247(4) 0.6329(13)
O6_5 O 0.5977(5) 0.9557(6) 0.6837(14)
O7_5 O 0.5782(5) 0.9634(5) 0.6035(13)
O8_5 O 0.5726(8) 0.8983(6) 0.3581(12)
O9_5 O 0.5893(7) 0.9113(8) 0.2730(14)
O10_5 O 0.4831(7) 0.8733(10) 0.4399(18)
O11_5 O 0.4776(7) 0.8182(9) 0.008(2)
O12_5 O 0.5255(8) 0.8921(8) 0.1030(17)
O13_5 O 0.4495(7) 0.8316(11) 0.1093(19)
O14_5 O 0.4840(12) 0.7889(10) 0.108(2)
O15_5 O 0.4548(7) 0.8637(11) 0.3468(18)
O16_5 O 0.4720(19) 0.7541(11) 0.185(3)
O17_5 O 0.5586(8) 0.8529(8) 0.1020(16)
O18_5 O 0.5288(11) 0.8618(8) 0.0053(18)
O19_5 O 0.5237(10) 0.7859(5) 0.184(2)
O20_5 O 0.5245(17) 0.7503(10) 0.273(3)
O21_5 O 0.5653(5) 0.8577(6) 0.2687(13)
O22_5 O 0.4959(7) 0.8979(7) 0.3383(14)
O23_5 O 0.5576(8) 0.8241(7) 0.3487(14)
O24_5 O 0.4102(10) 0.8320(17) 0.171(3)
O25_5 O 0.4879(14) 0.9364(8) 0.269(2)
O26_5 O 0.5649(8) 0.8905(8) 0.1831(17)
O27_5 O 0.4123(10) 0.874(2) 0.271(2)
O28_5 O 0.4829(14) 0.7892(12) 0.265(2)
O29_5 O 0.6019(7) 0.8559(12) 0.176(2)
O30_5 O 0.5304(11) 0.8202(9) 0.446(2)
O31_5 O 0.4903(8) 0.9003(6) 0.1797(16)
O32_5 O 0.4897(7) 0.8291(8) 0.3650(18)
O33_5 O 0.5626(9) 0.8191(8) 0.1850(19)
O34_5 O 0.5176(9) 0.7933(7) 0.354(2)
O35_5 O 0.4911(5) 0.8617(7) 0.2655(16)
O36_5 O 0.5238(4) 0.8585(6) 0.3637(12)
O37_5 O 0.5564(12) 0.7890(7) 0.272(2)
O38_5 O 0.5233(6) 0.8580(6) 0.1885(14)
O39_5 O 0.4896(6) 0.8600(6) 0.0889(12)
O40_5 O 0.4595(10) 0.9065(14) 0.253(2)
O41_5 O 0.4496(10) 0.8684(11) 0.179(2)
O58_5 O 0.5196(7) 0.8242(7) 0.0945(15)
O63_5 O 0.4860(7) 0.8260(6) 0.1924(15)
O64_5 O 0.5217(5) 0.8268(5) 0.2668(13)
O65_5 O 0.5303(7) 0.8987(6) 0.2679(14)
O66_5 O 0.6008(9) 0.8174(12) 0.271(3)
O67_5 O 0.4436(12) 0.8317(12) 0.273(3)
O68_5 O 0.5357(10) 0.9321(6) 0.1699(16)
C1_5 C 0.5808(15) 0.7662(18) 0.130(4)
C2_5 C 0.5978(9) 0.7531(8) 0.106(2)
C3_5 C 0.6175(12) 0.7427(9) 0.1371(13)
H1_5 H 0.6171 0.7424 0.1779
C4_5 C 0.6380(9) 0.7327(9) 0.108(2)
H2_5 H 0.6515 0.7256 0.1291
C5_5 C 0.6387(9) 0.7330(9) 0.049(2)
H3_5 H 0.6527 0.7262 0.0287
C6_5 C 0.6189(11) 0.7434(9) 0.0178(13)
C7_5 C 0.5985(8) 0.7534(8) 0.047(2)
H4_5 H 0.5850 0.7605 0.0258
C21_5 C 0.7061(10) 0.8429(8) 0.608(3)
C22_5 C 0.6969(5) 0.8634(5) 0.6302(13)
C23_5 C 0.6801(5) 0.8786(6) 0.6018(9)
H12_5 H 0.6761 0.8757 0.5626
C24_5 C 0.6690(5) 0.8980(5) 0.6308(12)
C25_5 C 0.6749(5) 0.9021(4) 0.6882(12)
H13_5 H 0.6673 0.9154 0.7080
C26_5 C 0.6917(5) 0.8869(5) 0.7166(10)
H14_5 H 0.6957 0.8897 0.7558
C27_5 C 0.7027(5) 0.8675(5) 0.6876(13)
H15_5 H 0.7142 0.8571 0.7070
C28_5 C 0.6508(5) 0.9153(5) 0.5995(12)
C29_5 C 0.6322(5) 0.9281(5) 0.6290(9)
H16_5 H 0.6321 0.9282 0.6697
C30_5 C 0.6138(5) 0.9408(5) 0.5987(13)
C31_5 C 0.6140(5) 0.9407(5) 0.5391(13)
H17_5 H 0.6014 0.9494 0.5184
C32_5 C 0.6326(6) 0.9279(6) 0.5096(9)
C33_5 C 0.6510(5) 0.9152(5) 0.5398(12)
H18_5 H 0.6637 0.9065 0.5197
C34_5 C 0.5986(9) 0.9530(8) 0.634(2)
C35_5 C 0.6325(6) 0.9295(5) 0.4442(11)
C36_5 C 0.6117(5) 0.9191(5) 0.4172(14)
H19_5 H 0.5979 0.9134 0.4395
C37_5 C 0.6112(6) 0.9171(6) 0.3578(14)
C38_5 C 0.6314(7) 0.9254(6) 0.3252(11)
H20_5 H 0.6310 0.9239 0.2846
C39_5 C 0.6522(6) 0.9357(6) 0.3522(15)
H21_5 H 0.6661 0.9414 0.3299
C40_5 C 0.6528(5) 0.9378(6) 0.4116(16)
H22_5 H 0.6670 0.9449 0.4300
C41_5 C 0.5923(10) 0.9092(11) 0.328(3)
O71_5 O 0.5629(11) 0.7772(9) 0.105(3)
O72_5 O 0.4495(18) 0.7918(16) 0.182(4)
O73_5 O 0.5225(4) 0.9903(4) 0.7785(10)
O74_5 O 0.4908(5) 0.9786(4) 0.7021(9)
Mo31_5 Mo 0.50789(8) 0.93551(7) 0.70051(19)
Mo32_5 Mo 0.52772(8) 0.98905(7) 0.88508(18)
Mo33_5 Mo 0.43246(7) 0.99230(7) 0.77779(18)
Mo34_5 Mo 0.54025(9) 0.94803(7) 0.77878(19)
Mo35_5 Mo 0.48832(7) 0.97367(8) 0.59344(17)
Mo36_5 Mo 0.44549(8) 0.96141(7) 0.69947(18)
O116_5 O 0.5561(6) 0.9222(5) 0.7851(15)
O117_5 O 0.4180(5) 0.9473(6) 0.6910(14)
O118_5 O 0.5160(7) 0.9066(5) 0.6900(13)
O119_5 O 0.5046(5) 0.9453(5) 0.6193(12)
O120_5 O 0.4704(6) 0.9321(4) 0.7030(13)
O121_5 O 0.4868(6) 0.9708(8) 0.5221(14)
O122_5 O 0.5706(5) 0.9709(6) 0.7718(13)
O123_5 O 0.5202(4) 0.9916(5) 0.5986(11)
O124_5 O 0.4445(5) 0.9957(5) 0.8585(10)
O125_5 O 0.4922(5) 0.9806(4) 0.8786(11)
O126_5 O 0.4565(5) 0.9656(5) 0.6210(12)
O127_5 O 0.5316(5) 0.9877(5) 0.9539(11)
O128_5 O 0.5045(5) 0.9405(4) 0.7823(12)
O129_5 O 0.4375(4) 0.9961(5) 0.6952(11)
O130_5 O 0.4530(4) 0.9613(5) 0.7836(11)
O132_5 O 0.5391(4) 0.9537(5) 0.6997(11)
O133_5 O 0.4023(6) 0.9842(7) 0.7865(14)
O134_5 O 0.5363(5) 0.9579(4) 0.8615(10)
Zn17_4 Zn 0.72818(10) 0.79840(9) 0.5874(2)
O146_3 O 0.4370(11) 0.7915(12) 0.361(2)
O2_3 O 0.5630(11) 0.7085(12) 0.861(2)
O3_4 O 0.7008(11) 0.8449(9) 0.8286(16)
C8_5 C 0.6161(11) 0.7436(10) 0.9531(14)
C9_5 C 0.5978(9) 0.7309(10) 0.923(2)
H5_5 H 0.5858 0.7212 0.9424
C10_5 C 0.5970(9) 0.7325(10) 0.863(2)
C11_5 C 0.6145(11) 0.7468(10) 0.8341(14)
H6_5 H 0.6140 0.7479 0.7934
C12_5 C 0.6329(9) 0.7594(9) 0.865(2)
C13_5 C 0.6337(9) 0.7578(9) 0.924(2)
H7_5 H 0.6462 0.7665 0.9450
C14_5 C 0.6510(9) 0.7738(10) 0.829(3)
C15_5 C 0.6617(11) 0.7942(11) 0.855(2)
H8_5 H 0.6581 0.7978 0.8938
C16_5 C 0.6776(10) 0.8092(8) 0.823(3)
C17_5 C 0.6828(10) 0.8039(12) 0.766(3)
H9_4 H 0.6937 0.8142 0.7446
C18_4 C 0.6721(14) 0.7835(14) 0.741(2)
H10_4 H 0.6757 0.7799 0.7015
C19_5 C 0.6562(12) 0.7684(9) 0.772(3)
H11_5 H 0.6490 0.7545 0.7546
C20_5 C 0.6903(14) 0.8279(13) 0.859(4)
O69_5 O 0.6908(10) 0.8278(10) 0.910(3)
C42_5 C 0.5819(9) 0.7153(16) 0.830(3)
O70_5 O 0.5745(13) 0.7238(13) 0.779(3)
Zn13_4 Zn 0.71962(15) 0.86755(16) 0.8766(3)
Zn16_3 Zn 0.5346(2) 0.6904(2) 0.8259(5)
Mo14_6 Mo 0.72228(8) 0.23905(7) 0.13508(18)
Mo15_6 Mo 0.81754(7) 0.24230(7) 0.02779(18)
Mo16_6 Mo 0.70975(9) 0.19803(7) 0.02878(19)
O42_6 O 0.6939(6) 0.1722(5) 0.0351(15)
O43_6 O 0.7275(4) 0.2403(4) 0.0285(10)
O49_6 O 0.6794(5) 0.2209(6) 0.0218(13)
O51_6 O 0.8055(5) 0.2457(5) 0.1085(10)
O52_6 O 0.7578(5) 0.2306(4) 0.1286(11)
O54_6 O 0.7184(5) 0.2377(5) 0.2039(11)
O55_6 O 0.7455(5) 0.1905(4) 0.0323(12)
O57_6 O 0.7970(4) 0.2113(5) 0.0336(11)
O60_6 O 0.8477(6) 0.2342(7) 0.0365(14)
O61_6 O 0.7137(5) 0.2079(4) 0.1115(10)
H14_6 H 0.9457 0.3603 0.0058
O73_6 O 0.7725(4) 0.2597(4) 0.0285(10)
Zn12_4 Zn 0.72818(10) 0.29840(9) 0.0874(2)
Mo32_6 Mo 0.77772(8) 0.26095(7) 0.13508(18)
Mo33_6 Mo 0.68246(7) 0.25770(7) 0.02779(18)
Mo34_6 Mo 0.79025(9) 0.30197(7) 0.02878(19)
O116_6 O 0.8061(6) 0.3278(5) 0.0351(15)
O122_6 O 0.8206(5) 0.2791(6) 0.0218(13)
O124_6 O 0.6945(5) 0.2543(5) 0.1085(10)
O125_6 O 0.7422(5) 0.2694(4) 0.1286(11)
O127_6 O 0.7816(5) 0.2623(5) 0.2039(11)
O128_6 O 0.7545(5) 0.3095(4) 0.0323(12)
O130_6 O 0.7030(4) 0.2887(5) 0.0336(11)
O133_6 O 0.6523(6) 0.2658(7) 0.0365(14)
O134_6 O 0.7863(5) 0.2921(4) 0.1115(10)
H36_6 H 0.5543 0.1397 0.0058
O150_4 O 0.7156(5) 0.3247(4) 0.1329(13)
Zn1_4 Zn 0.71962(15) 0.36755(16) 0.3766(3)
Zn2_6 Zn 0.79789(12) 0.37113(11) 0.5708(3)
Zn3_6 Zn 0.7904(2) 0.44824(15) 0.3830(5)
Zn4_4 Zn 0.7154(2) 0.4404(2) 0.5759(5)
Zn5_6 Zn 0.80018(9) 0.27070(10) 0.8917(2)
Mo1_6 Mo 0.7330(2) 0.46784(15) 0.4410(4)
Mo2_6 Mo 0.73191(13) 0.42678(12) 0.3330(3)
Mo3_6 Mo 0.77723(11) 0.39023(10) 0.3298(2)
Mo4_6 Mo 0.81899(12) 0.42723(12) 0.5189(3)
Mo5_6 Mo 0.82152(10) 0.39579(12) 0.4357(3)
Mo6_6 Mo 0.7679(2) 0.46910(13) 0.5210(4)
Mo7_6 Mo 0.68963(12) 0.41790(19) 0.4385(3)
Mo8_6 Mo 0.74434(13) 0.34191(11) 0.5110(2)
Mo9_6 Mo 0.73722(10) 0.38267(15) 0.6210(2)
Mo10_6 Mo 0.77625(12) 0.42666(12) 0.6242(3)
Mo11_6 Mo 0.77829(13) 0.34655(10) 0.4319(2)
Mo12_6 Mo 0.69285(11) 0.3836(2) 0.5149(3)
Mo13_6 Mo 0.74211(8) 0.18551(7) 0.95051(19)
Mo17_6 Mo 0.76168(7) 0.22367(8) 0.84344(17)
Mo18_6 Mo 0.80451(8) 0.21141(7) 0.94947(18)
P1_11 P 0.7500 0.2500 0.9898(8)
P2_6 P 0.7556(3) 0.4064(3) 0.4780(8)
O1_6 O 0.8204(19) 0.4857(13) 0.438(3)
O2_4 O 0.8130(11) 0.5415(12) 0.111(2)
O4_6 O 0.9554(7) 0.4092(6) 0.7983(17)
O6_6 O 0.8477(5) 0.2943(6) 0.9337(14)
O7_6 O 0.8282(5) 0.2866(5) 0.8535(13)
O8_6 O 0.8226(8) 0.3517(6) 0.6081(12)
O9_6 O 0.8393(7) 0.3387(8) 0.5230(14)
O10_6 O 0.7331(7) 0.3767(10) 0.6899(18)
O11_6 O 0.7276(7) 0.4318(9) 0.258(2)
O12_6 O 0.7755(8) 0.3579(8) 0.3530(17)
O13_6 O 0.6995(7) 0.4184(11) 0.3593(19)
O14_6 O 0.7340(12) 0.4611(10) 0.358(2)
O15_6 O 0.7048(7) 0.3863(11) 0.5968(18)
O16_6 O 0.7220(19) 0.4959(11) 0.435(3)
O17_6 O 0.8086(8) 0.3971(8) 0.3520(16)
O18_6 O 0.7788(11) 0.3882(8) 0.2553(18)
O19_6 O 0.7737(10) 0.4641(5) 0.434(2)
O20_6 O 0.7745(17) 0.4997(10) 0.523(3)
O21_6 O 0.8153(5) 0.3923(6) 0.5187(13)
O22_6 O 0.7459(7) 0.3521(7) 0.5883(14)
O23_6 O 0.8076(8) 0.4259(7) 0.5987(14)
O24_6 O 0.6602(10) 0.4180(17) 0.421(3)
O25_6 O 0.7379(14) 0.3136(8) 0.519(2)
O26_6 O 0.8149(8) 0.3595(8) 0.4331(17)
O27_6 O 0.6623(10) 0.376(2) 0.521(2)
O28_6 O 0.7329(14) 0.4608(12) 0.515(2)
O29_6 O 0.8519(7) 0.3941(12) 0.426(2)
O30_6 O 0.7804(11) 0.4298(9) 0.696(2)
O31_6 O 0.7403(8) 0.3497(6) 0.4297(16)
O32_6 O 0.7397(7) 0.4209(8) 0.6150(18)
O33_6 O 0.8126(9) 0.4309(8) 0.4350(19)
O34_6 O 0.7676(9) 0.4567(7) 0.604(2)
O35_6 O 0.7411(5) 0.3883(7) 0.5155(16)
O36_6 O 0.7738(4) 0.3915(6) 0.6137(12)
O37_6 O 0.8064(12) 0.4610(7) 0.522(2)
O38_6 O 0.7733(6) 0.3920(6) 0.4385(14)
O39_6 O 0.7396(6) 0.3900(6) 0.3389(12)
O40_6 O 0.7095(10) 0.3435(14) 0.503(2)
O41_6 O 0.6996(10) 0.3816(11) 0.429(2)
O44_6 O 0.8320(5) 0.1973(6) 0.9410(14)
O45_6 O 0.7340(7) 0.1566(5) 0.9400(13)
O46_6 O 0.7454(5) 0.1953(5) 0.8693(12)
O47_6 O 0.7796(6) 0.1821(4) 0.9530(13)
O48_6 O 0.7632(6) 0.2208(8) 0.7721(14)
O50_6 O 0.7298(4) 0.2416(5) 0.8486(11)
O53_6 O 0.7935(5) 0.2156(5) 0.8710(12)
O56_6 O 0.8125(4) 0.2461(5) 0.9452(11)
O58_6 O 0.7696(7) 0.4258(7) 0.3445(15)
O59_6 O 0.7109(4) 0.2037(5) 0.9497(11)
O62_6 O 0.7592(5) 0.2286(4) 0.9521(9)
O63_6 O 0.7360(7) 0.4240(6) 0.4424(15)
O64_6 O 0.7717(5) 0.4232(5) 0.5168(13)
O65_6 O 0.7803(7) 0.3513(6) 0.5179(14)
O66_6 O 0.8508(9) 0.4326(12) 0.521(3)
O67_6 O 0.6936(12) 0.4183(12) 0.523(3)
O68_6 O 0.7857(10) 0.3179(6) 0.4199(16)
C1_6 C 0.8308(15) 0.4838(18) 0.380(4)
C2_6 C 0.8478(9) 0.4969(8) 0.356(2)
C3_6 C 0.8675(12) 0.5073(9) 0.3871(13)
H1_6 H 0.8671 0.5076 0.4279
C4_6 C 0.8880(9) 0.5173(9) 0.358(2)
H2_6 H 0.9015 0.5244 0.3791
C5_6 C 0.8887(9) 0.5170(9) 0.299(2)
H3_6 H 0.9027 0.5238 0.2787
C6_6 C 0.8689(11) 0.5066(9) 0.2678(13)
C7_6 C 0.8485(8) 0.4966(8) 0.297(2)
H4_6 H 0.8350 0.4895 0.2758
C8_6 C 0.8661(11) 0.5064(10) 0.2031(14)
C9_6 C 0.8478(9) 0.5191(10) 0.173(2)
H5_6 H 0.8358 0.5288 0.1924
C10_6 C 0.8470(9) 0.5175(10) 0.113(2)
C11_6 C 0.8645(11) 0.5032(10) 0.0841(14)
H6_6 H 0.8640 0.5021 0.0434
C12_6 C 0.8829(9) 0.4906(9) 0.115(2)
C13_6 C 0.8837(9) 0.4922(9) 0.174(2)
H7_6 H 0.8962 0.4835 0.1950
C14_6 C 0.9010(9) 0.4762(10) 0.079(3)
C15_6 C 0.9117(11) 0.4558(11) 0.105(2)
H8_6 H 0.9081 0.4522 0.1438
C16_6 C 0.9276(10) 0.4408(8) 0.073(3)
C17_6 C 0.9328(10) 0.4461(12) 0.016(3)
C19_6 C 0.9062(12) 0.4816(9) 0.022(3)
H11_6 H 0.8990 0.4955 0.0046
C20_6 C 0.9403(14) 0.4221(13) 0.109(4)
C21_6 C 0.9561(10) 0.4071(8) 0.858(3)
C22_6 C 0.9469(5) 0.3866(5) 0.8802(13)
C23_6 C 0.9301(5) 0.3714(6) 0.8518(9)
H12_6 H 0.9261 0.3743 0.8126
C24_6 C 0.9190(5) 0.3520(5) 0.8808(12)
C25_6 C 0.9249(5) 0.3479(4) 0.9382(12)
H13_6 H 0.9173 0.3346 0.9580
C26_6 C 0.9417(5) 0.3631(5) 0.9666(10)
C27_6 C 0.9527(5) 0.3825(5) 0.9376(13)
H15_6 H 0.9642 0.3929 0.9570
C28_6 C 0.9008(5) 0.3347(5) 0.8495(12)
C29_6 C 0.8822(5) 0.3219(5) 0.8790(9)
H16_6 H 0.8821 0.3218 0.9197
C30_6 C 0.8638(5) 0.3092(5) 0.8487(13)
C31_6 C 0.8640(5) 0.3093(5) 0.7891(13)
H17_6 H 0.8514 0.3006 0.7684
C32_6 C 0.8826(6) 0.3221(6) 0.7596(9)
C33_6 C 0.9010(5) 0.3348(5) 0.7898(12)
H18_6 H 0.9137 0.3435 0.7697
C34_6 C 0.8486(9) 0.2970(8) 0.884(2)
C35_6 C 0.8825(6) 0.3205(5) 0.6942(11)
C36_6 C 0.8617(5) 0.3309(5) 0.6672(14)
H19_6 H 0.8479 0.3366 0.6895
C37_6 C 0.8612(6) 0.3329(6) 0.6078(14)
C38_6 C 0.8814(7) 0.3246(6) 0.5752(11)
H20_6 H 0.8810 0.3261 0.5346
C39_6 C 0.9022(6) 0.3143(6) 0.6022(15)
H21_6 H 0.9161 0.3086 0.5799
C40_6 C 0.9028(5) 0.3122(6) 0.6616(16)
H22_6 H 0.9170 0.3051 0.6800
C41_6 C 0.8423(10) 0.3408(11) 0.578(3)
O69_6 O 0.9408(10) 0.4222(10) 0.160(3)
C42_6 C 0.8319(9) 0.5347(16) 0.080(3)
O70_6 O 0.8245(13) 0.5262(13) 0.029(3)
O71_6 O 0.8129(11) 0.4728(9) 0.355(3)
O72_6 O 0.6995(18) 0.4582(16) 0.432(4)
O74_6 O 0.7408(5) 0.2714(4) 0.9521(9)
Zn8_6 Zn 0.70211(12) 0.12887(11) 0.5708(3)
Zn9_6 Zn 0.7096(2) 0.05176(15) 0.3830(5)
Zn10_4 Zn 0.7846(2) 0.0596(2) 0.5759(5)
Zn11_6 Zn 0.69982(9) 0.22930(10) 0.8917(2)
Mo19_6 Mo 0.7670(2) 0.03216(15) 0.4410(4)
Mo20_6 Mo 0.76809(13) 0.07322(12) 0.3330(3)
Mo21_6 Mo 0.72277(11) 0.10977(10) 0.3298(2)
Mo22_6 Mo 0.68101(12) 0.07277(12) 0.5189(3)
Mo23_6 Mo 0.67848(10) 0.10421(12) 0.4357(3)
Mo24_6 Mo 0.7321(2) 0.03090(13) 0.5210(4)
Mo25_6 Mo 0.81037(12) 0.08210(19) 0.4385(3)
Mo26_6 Mo 0.75566(13) 0.15809(11) 0.5110(2)
Mo27_6 Mo 0.76278(10) 0.11733(15) 0.6210(2)
Mo28_6 Mo 0.72375(12) 0.07334(12) 0.6242(3)
Mo29_6 Mo 0.72171(13) 0.15345(10) 0.4319(2)
Mo30_6 Mo 0.80715(11) 0.1164(2) 0.5149(3)
Mo31_6 Mo 0.75789(8) 0.31449(7) 0.95051(19)
Mo35_6 Mo 0.73832(7) 0.27633(8) 0.84344(17)
Mo36_6 Mo 0.69549(8) 0.28859(7) 0.94947(18)
P3_6 P 0.7444(3) 0.0936(3) 0.4780(8)
O75_6 O 0.6796(19) 0.0143(13) 0.438(3)
O78_6 O 0.5446(7) 0.0908(6) 0.7983(17)
O80_6 O 0.6523(5) 0.2057(6) 0.9337(14)
O81_6 O 0.6718(5) 0.2134(5) 0.8535(13)
O82_6 O 0.6774(8) 0.1483(6) 0.6081(12)
O83_6 O 0.6607(7) 0.1613(8) 0.5230(14)
O84_6 O 0.7669(7) 0.1233(10) 0.6899(18)
O85_6 O 0.7724(7) 0.0682(9) 0.258(2)
O86_6 O 0.7245(8) 0.1421(8) 0.3530(17)
O87_6 O 0.8005(7) 0.0816(11) 0.3593(19)
O88_6 O 0.7660(12) 0.0389(10) 0.358(2)
O89_6 O 0.7952(7) 0.1137(11) 0.5968(18)
O90_6 O 0.7780(19) 0.0041(11) 0.435(3)
O91_6 O 0.6914(8) 0.1029(8) 0.3520(16)
O92_6 O 0.7212(11) 0.1118(8) 0.2553(18)
O93_6 O 0.7263(10) 0.0359(5) 0.434(2)
O94_6 O 0.7255(17) 0.0003(10) 0.523(3)
O95_6 O 0.6847(5) 0.1077(6) 0.5187(13)
O96_6 O 0.7541(7) 0.1479(7) 0.5883(14)
O97_6 O 0.6924(8) 0.0741(7) 0.5987(14)
O98_6 O 0.8398(10) 0.0820(17) 0.421(3)
O99_6 O 0.7621(14) 0.1864(8) 0.519(2)
O100_6 O 0.6851(8) 0.1405(8) 0.4331(17)
O101_6 O 0.8377(10) 0.124(2) 0.521(2)
O102_6 O 0.7671(14) 0.0392(12) 0.515(2)
O103_6 O 0.6481(7) 0.1059(12) 0.426(2)
O104_6 O 0.7196(11) 0.0702(9) 0.696(2)
O105_6 O 0.7597(8) 0.1503(6) 0.4297(16)
O106_6 O 0.7603(7) 0.0791(8) 0.6150(18)
O107_6 O 0.6874(9) 0.0691(8) 0.4350(19)
O108_6 O 0.7324(9) 0.0433(7) 0.604(2)
O109_6 O 0.7589(5) 0.1117(7) 0.5155(16)
O110_6 O 0.7262(4) 0.1085(6) 0.6137(12)
O111_6 O 0.6936(12) 0.0390(7) 0.522(2)
O112_6 O 0.7267(6) 0.1080(6) 0.4385(14)
O113_6 O 0.7604(6) 0.1100(6) 0.3389(12)
O114_6 O 0.7905(10) 0.1565(14) 0.503(2)
O115_6 O 0.8004(10) 0.1184(11) 0.429(2)
O117_6 O 0.6680(5) 0.3027(6) 0.9410(14)
O118_6 O 0.7660(7) 0.3434(5) 0.9400(13)
O119_6 O 0.7546(5) 0.3047(5) 0.8693(12)
O120_6 O 0.7204(6) 0.3179(4) 0.9530(13)
O121_6 O 0.7368(6) 0.2792(8) 0.7721(14)
O123_6 O 0.7702(4) 0.2584(5) 0.8486(11)
O126_6 O 0.7065(5) 0.2844(5) 0.8710(12)
O129_6 O 0.6875(4) 0.2539(5) 0.9452(11)
O131_6 O 0.7304(7) 0.0742(7) 0.3445(15)
O132_6 O 0.7891(4) 0.2963(5) 0.9497(11)
O135_6 O 0.7640(7) 0.0760(6) 0.4424(15)
O136_6 O 0.7283(5) 0.0768(5) 0.5168(13)
O137_6 O 0.7197(7) 0.1487(6) 0.5179(14)
O138_6 O 0.6492(9) 0.0674(12) 0.521(3)
O139_6 O 0.8064(12) 0.0817(12) 0.523(3)
O140_6 O 0.7143(10) 0.1821(6) 0.4199(16)
C43_6 C 0.6692(15) 0.0162(18) 0.380(4)
C44_6 C 0.6522(9) 0.0031(8) 0.356(2)
C49_6 C 0.6515(8) 0.0034(8) 0.297(2)
H26_6 H 0.6650 0.0105 0.2758
C54_6 C 0.6171(9) 0.0094(9) 0.115(2)
C55_6 C 0.6163(9) 0.0078(9) 0.174(2)
H29_6 H 0.6038 0.0165 0.1950
C56_6 C 0.5990(9) 0.0238(10) 0.079(3)
C57_6 C 0.5883(11) 0.0442(11) 0.105(2)
H30_6 H 0.5919 0.0478 0.1438
C58_6 C 0.5724(10) 0.0592(8) 0.073(3)
C59_6 C 0.5672(10) 0.0539(12) 0.016(3)
C61_6 C 0.5938(12) 0.0184(9) 0.022(3)
H33_6 H 0.6010 0.0045 0.0046
C62_6 C 0.5597(14) 0.0779(13) 0.109(4)
C63_6 C 0.5439(10) 0.0929(8) 0.858(3)
C64_6 C 0.5531(5) 0.1134(5) 0.8802(13)
C65_6 C 0.5699(5) 0.1286(6) 0.8518(9)
H34_6 H 0.5739 0.1257 0.8126
C66_6 C 0.5810(5) 0.1480(5) 0.8808(12)
C67_6 C 0.5751(5) 0.1521(4) 0.9382(12)
H35_6 H 0.5827 0.1654 0.9580
C68_6 C 0.5583(5) 0.1369(5) 0.9666(10)
C69_6 C 0.5473(5) 0.1175(5) 0.9376(13)
H37_6 H 0.5358 0.1071 0.9570
C70_6 C 0.5992(5) 0.1653(5) 0.8495(12)
C71_6 C 0.6178(5) 0.1781(5) 0.8790(9)
H38_6 H 0.6179 0.1782 0.9197
C72_6 C 0.6362(5) 0.1908(5) 0.8487(13)
C73_6 C 0.6360(5) 0.1907(5) 0.7891(13)
H39_6 H 0.6486 0.1994 0.7684
C74_6 C 0.6174(6) 0.1779(6) 0.7596(9)
C75_6 C 0.5990(5) 0.1652(5) 0.7898(12)
H40_6 H 0.5863 0.1565 0.7697
C76_6 C 0.6514(9) 0.2030(8) 0.884(2)
C77_6 C 0.6175(6) 0.1795(5) 0.6942(11)
C78_6 C 0.6383(5) 0.1691(5) 0.6672(14)
H41_6 H 0.6521 0.1634 0.6895
C79_6 C 0.6388(6) 0.1671(6) 0.6078(14)
C80_6 C 0.6186(7) 0.1754(6) 0.5752(11)
H42_6 H 0.6190 0.1739 0.5346
C81_6 C 0.5978(6) 0.1857(6) 0.6022(15)
H43_6 H 0.5839 0.1914 0.5799
C82_6 C 0.5972(5) 0.1878(6) 0.6616(16)
H44_6 H 0.5830 0.1949 0.6800
C83_6 C 0.6577(10) 0.1592(11) 0.578(3)
O141_6 O 0.5592(10) 0.0778(10) 0.160(3)
O143_6 O 0.6871(11) 0.0272(9) 0.355(3)
O144_6 O 0.8005(18) 0.0418(16) 0.432(4)
Zn16_4 Zn 0.7846(2) 0.5596(2) 0.0759(5)
O145_4 O 0.8130(11) 0.0415(12) 0.611(2)
O146_4 O 0.6870(11) 0.4585(12) 0.611(2)
O148_4 O 0.7008(11) 0.3449(9) 0.3286(16)
O76_4 O 0.6870(11) 0.9585(12) 0.111(2)
C45_6 C 0.6325(12) 0.9927(9) 0.3871(13)
H23_6 H 0.6329 0.9924 0.4279
C46_6 C 0.6120(9) 0.9827(9) 0.358(2)
H24_6 H 0.5985 0.9756 0.3791
C47_6 C 0.6113(9) 0.9830(9) 0.299(2)
H25_6 H 0.5973 0.9762 0.2787
C48_6 C 0.6311(11) 0.9934(9) 0.2678(13)
C50_6 C 0.6339(11) 0.9936(10) 0.2031(14)
C51_6 C 0.6522(9) 0.9809(10) 0.173(2)
H27_6 H 0.6642 0.9712 0.1924
C52_6 C 0.6530(9) 0.9825(10) 0.113(2)
C53_6 C 0.6355(11) 0.9968(10) 0.0841(14)
H28_6 H 0.6360 0.9979 0.0434
C84_6 C 0.6681(9) 0.9653(16) 0.080(3)
O142_6 O 0.6755(13) 0.9738(13) 0.029(3)
Zn15_4 Zn 0.7154(2) 0.9404(2) 0.0759(5)
Zn5_7 Zn 0.55018(9) 0.47930(10) 0.1417(2)
Zn6_6 Zn 0.52182(10) 0.54840(9) 0.3374(2)
Mo13_7 Mo 0.49211(8) 0.56449(7) 0.20051(19)
Mo14_7 Mo 0.47228(8) 0.51095(7) 0.38508(18)
Mo15_7 Mo 0.56754(7) 0.50770(7) 0.27779(18)
Mo16_7 Mo 0.45975(9) 0.55197(7) 0.27878(19)
Mo17_7 Mo 0.51168(7) 0.52633(8) 0.09344(17)
Mo18_7 Mo 0.55451(8) 0.53859(7) 0.19947(18)
P1_12 P 0.5000 0.5000 0.2398(8)
O4_7 O 0.7054(7) 0.3408(6) 0.0483(17)
O6_7 O 0.5977(5) 0.4557(6) 0.1837(14)
O7_7 O 0.5782(5) 0.4634(5) 0.1035(13)
O42_7 O 0.4439(6) 0.5778(5) 0.2851(15)
O43_7 O 0.4775(4) 0.5097(4) 0.2785(10)
O44_7 O 0.5820(5) 0.5527(6) 0.1910(14)
O45_7 O 0.4840(7) 0.5934(5) 0.1900(13)
O46_7 O 0.4954(5) 0.5547(5) 0.1193(12)
O47_7 O 0.5296(6) 0.5679(4) 0.2030(13)
O48_7 O 0.5132(6) 0.5292(8) 0.0221(14)
O49_7 O 0.4294(5) 0.5291(6) 0.2718(13)
O50_7 O 0.4798(4) 0.5084(5) 0.0986(11)
O51_7 O 0.5555(5) 0.5043(5) 0.3585(10)
O52_7 O 0.5078(5) 0.5194(4) 0.3786(11)
O53_7 O 0.5435(5) 0.5344(5) 0.1210(12)
O54_7 O 0.4684(5) 0.5123(5) 0.4539(11)
O55_7 O 0.4955(5) 0.5595(4) 0.2823(12)
O56_7 O 0.5625(4) 0.5039(5) 0.1952(11)
O57_7 O 0.5470(4) 0.5387(5) 0.2836(11)
O59_7 O 0.4609(4) 0.5463(5) 0.1997(11)
O60_7 O 0.5977(6) 0.5158(7) 0.2865(14)
O61_7 O 0.4637(5) 0.5421(4) 0.3615(10)
O62_7 O 0.5092(5) 0.5214(4) 0.2021(9)
C21_7 C 0.7061(10) 0.3429(8) 0.108(3)
C22_7 C 0.6969(5) 0.3634(5) 0.1302(13)
C23_7 C 0.6801(5) 0.3786(6) 0.1018(9)
H12_7 H 0.6761 0.3757 0.0626
C24_7 C 0.6690(5) 0.3980(5) 0.1308(12)
C25_7 C 0.6749(5) 0.4021(4) 0.1882(12)
H13_7 H 0.6673 0.4154 0.2080
C26_7 C 0.6917(5) 0.3869(5) 0.2166(10)
H14_7 H 0.6957 0.3897 0.2558
C27_7 C 0.7027(5) 0.3675(5) 0.1876(13)
H15_7 H 0.7142 0.3571 0.2070
C28_7 C 0.6508(5) 0.4153(5) 0.0995(12)
C29_7 C 0.6322(5) 0.4281(5) 0.1290(9)
H16_7 H 0.6321 0.4282 0.1697
C30_7 C 0.6138(5) 0.4408(5) 0.0987(13)
C31_7 C 0.6140(5) 0.4407(5) 0.0391(13)
H17_7 H 0.6014 0.4494 0.0184
C32_7 C 0.6326(6) 0.4279(6) 0.0096(9)
C33_7 C 0.6510(5) 0.4152(5) 0.0398(12)
H18_7 H 0.6637 0.4065 0.0197
C34_7 C 0.5986(9) 0.4530(8) 0.134(2)
O73_7 O 0.5225(4) 0.4903(4) 0.2785(10)
O74_7 O 0.4908(5) 0.4786(4) 0.2021(9)
Zn11_7 Zn 0.44982(9) 0.52070(10) 0.1417(2)
Mo31_7 Mo 0.50789(8) 0.43551(7) 0.20051(19)
Mo32_7 Mo 0.52772(8) 0.48905(7) 0.38508(18)
Mo33_7 Mo 0.43246(7) 0.49230(7) 0.27779(18)
Mo34_7 Mo 0.54025(9) 0.44803(7) 0.27878(19)
Mo35_7 Mo 0.48832(7) 0.47367(8) 0.09344(17)
Mo36_7 Mo 0.44549(8) 0.46141(7) 0.19947(18)
O78_7 O 0.2946(7) 0.6592(6) 0.0483(17)
O80_7 O 0.4023(5) 0.5443(6) 0.1837(14)
O81_7 O 0.4218(5) 0.5366(5) 0.1035(13)
O116_7 O 0.5561(6) 0.4222(5) 0.2851(15)
O117_7 O 0.4180(5) 0.4473(6) 0.1910(14)
O118_7 O 0.5160(7) 0.4066(5) 0.1900(13)
O119_7 O 0.5046(5) 0.4453(5) 0.1193(12)
O120_7 O 0.4704(6) 0.4321(4) 0.2030(13)
O121_7 O 0.4868(6) 0.4708(8) 0.0221(14)
O122_7 O 0.5706(5) 0.4709(6) 0.2718(13)
O123_7 O 0.5202(4) 0.4916(5) 0.0986(11)
O124_7 O 0.4445(5) 0.4957(5) 0.3585(10)
O125_7 O 0.4922(5) 0.4806(4) 0.3786(11)
O126_7 O 0.4565(5) 0.4656(5) 0.1210(12)
O127_7 O 0.5316(5) 0.4877(5) 0.4539(11)
O128_7 O 0.5045(5) 0.4405(4) 0.2823(12)
O129_7 O 0.4375(4) 0.4961(5) 0.1952(11)
O130_7 O 0.4530(4) 0.4613(5) 0.2836(11)
O132_7 O 0.5391(4) 0.4537(5) 0.1997(11)
O133_7 O 0.4023(6) 0.4842(7) 0.2865(14)
O134_7 O 0.5363(5) 0.4579(4) 0.3615(10)
C63_7 C 0.2939(10) 0.6571(8) 0.108(3)
C64_7 C 0.3031(5) 0.6366(5) 0.1302(13)
C65_7 C 0.3199(5) 0.6214(6) 0.1018(9)
H34_7 H 0.3239 0.6243 0.0626
C66_7 C 0.3310(5) 0.6020(5) 0.1308(12)
C67_7 C 0.3251(5) 0.5979(4) 0.1882(12)
H35_7 H 0.3327 0.5846 0.2080
C68_7 C 0.3083(5) 0.6131(5) 0.2166(10)
H36_7 H 0.3043 0.6103 0.2558
C69_7 C 0.2973(5) 0.6325(5) 0.1876(13)
H37_7 H 0.2858 0.6429 0.2070
C70_7 C 0.3492(5) 0.5847(5) 0.0995(12)
C71_7 C 0.3678(5) 0.5719(5) 0.1290(9)
H38_7 H 0.3679 0.5718 0.1697
C72_7 C 0.3862(5) 0.5592(5) 0.0987(13)
C73_7 C 0.3860(5) 0.5593(5) 0.0391(13)
H39_7 H 0.3986 0.5506 0.0184
C74_7 C 0.3674(6) 0.5721(6) 0.0096(9)
C75_7 C 0.3490(5) 0.5848(5) 0.0398(12)
H40_7 H 0.3363 0.5935 0.0197
C76_7 C 0.4014(9) 0.5470(8) 0.134(2)
O149_6 O 0.5344(5) 0.5747(4) 0.3829(13)
Zn2_7 Zn 0.54789(12) 0.37887(11) 0.8208(3)
Zn3_7 Zn 0.5404(2) 0.30176(15) 0.6330(5)
Mo1_7 Mo 0.4830(2) 0.28216(15) 0.6910(4)
Mo2_7 Mo 0.48191(13) 0.32322(12) 0.5830(3)
Mo3_7 Mo 0.52723(11) 0.35977(10) 0.5798(2)
Mo4_7 Mo 0.56899(12) 0.32277(12) 0.7689(3)
Mo5_7 Mo 0.57152(10) 0.35421(12) 0.6857(3)
Mo6_7 Mo 0.5179(2) 0.28090(13) 0.7710(4)
Mo7_7 Mo 0.43963(12) 0.33210(19) 0.6885(3)
Mo8_7 Mo 0.49434(13) 0.40809(11) 0.7610(2)
Mo9_7 Mo 0.48722(10) 0.36733(15) 0.8710(2)
Mo10_7 Mo 0.52625(12) 0.32334(12) 0.8742(3)
Mo11_7 Mo 0.52829(13) 0.40345(10) 0.6819(2)
Mo12_7 Mo 0.44285(11) 0.3664(2) 0.7649(3)
P2_7 P 0.5056(3) 0.3436(3) 0.7280(8)
O1_7 O 0.5704(19) 0.2643(13) 0.688(3)
O8_7 O 0.5726(8) 0.3983(6) 0.8581(12)
O9_7 O 0.5893(7) 0.4113(8) 0.7730(14)
O10_7 O 0.4831(7) 0.3733(10) 0.9399(18)
O11_7 O 0.4776(7) 0.3182(9) 0.508(2)
O12_7 O 0.5255(8) 0.3921(8) 0.6030(17)
O13_7 O 0.4495(7) 0.3316(11) 0.6093(19)
O14_7 O 0.4840(12) 0.2889(10) 0.608(2)
O15_7 O 0.4548(7) 0.3637(11) 0.8468(18)
O16_7 O 0.4720(19) 0.2541(11) 0.685(3)
O17_7 O 0.5586(8) 0.3529(8) 0.6020(16)
O18_7 O 0.5288(11) 0.3618(8) 0.5053(18)
O19_7 O 0.5237(10) 0.2859(5) 0.684(2)
O20_7 O 0.5245(17) 0.2503(10) 0.773(3)
O21_7 O 0.5653(5) 0.3577(6) 0.7687(13)
O22_7 O 0.4959(7) 0.3979(7) 0.8383(14)
O23_7 O 0.5576(8) 0.3241(7) 0.8487(14)
O24_7 O 0.4102(10) 0.3320(17) 0.671(3)
O25_7 O 0.4879(14) 0.4364(8) 0.769(2)
O26_7 O 0.5649(8) 0.3905(8) 0.6831(17)
O27_7 O 0.4123(10) 0.374(2) 0.771(2)
O28_7 O 0.4829(14) 0.2892(12) 0.765(2)
O29_7 O 0.6019(7) 0.3559(12) 0.676(2)
O30_7 O 0.5304(11) 0.3202(9) 0.946(2)
O31_7 O 0.4903(8) 0.4003(6) 0.6797(16)
O32_7 O 0.4897(7) 0.3291(8) 0.8650(18)
O33_7 O 0.5626(9) 0.3191(8) 0.6850(19)
O34_7 O 0.5176(9) 0.2933(7) 0.854(2)
O35_7 O 0.4911(5) 0.3617(7) 0.7655(16)
O36_7 O 0.5238(4) 0.3585(6) 0.8637(12)
O37_7 O 0.5564(12) 0.2890(7) 0.772(2)
O38_7 O 0.5233(6) 0.3580(6) 0.6885(14)
O39_7 O 0.4896(6) 0.3600(6) 0.5889(12)
O40_7 O 0.4595(10) 0.4065(14) 0.753(2)
O41_7 O 0.4496(10) 0.3684(11) 0.679(2)
O58_7 O 0.5196(7) 0.3242(7) 0.5945(15)
O63_7 O 0.4860(7) 0.3260(6) 0.6924(15)
O64_7 O 0.5217(5) 0.3268(5) 0.7668(13)
O65_7 O 0.5303(7) 0.3987(6) 0.7679(14)
O66_7 O 0.6008(9) 0.3174(12) 0.771(3)
O67_7 O 0.4436(12) 0.3317(12) 0.773(3)
O68_7 O 0.5357(10) 0.4321(6) 0.6699(16)
C1_7 C 0.5808(15) 0.2662(18) 0.630(4)
C2_7 C 0.5978(9) 0.2531(8) 0.606(2)
C3_7 C 0.6175(12) 0.2427(9) 0.6371(13)
H1_7 H 0.6171 0.2424 0.6779
C4_7 C 0.6380(9) 0.2327(9) 0.608(2)
H2_7 H 0.6515 0.2256 0.6291
C5_7 C 0.6387(9) 0.2330(9) 0.549(2)
H3_7 H 0.6527 0.2262 0.5287
C6_7 C 0.6189(11) 0.2434(9) 0.5178(13)
C7_7 C 0.5985(8) 0.2534(8) 0.547(2)
H4_7 H 0.5850 0.2605 0.5258
C8_7 C 0.6161(11) 0.2436(10) 0.4531(14)
C9_7 C 0.5978(9) 0.2309(10) 0.423(2)
H5_7 H 0.5858 0.2212 0.4424
C10_7 C 0.5970(9) 0.2325(10) 0.363(2)
C11_7 C 0.6145(11) 0.2468(10) 0.3341(14)
H6_7 H 0.6140 0.2479 0.2934
C12_7 C 0.6329(9) 0.2594(9) 0.365(2)
C13_7 C 0.6337(9) 0.2578(9) 0.424(2)
H7_7 H 0.6462 0.2665 0.4450
C14_7 C 0.6510(9) 0.2738(10) 0.329(3)
C15_7 C 0.6617(11) 0.2942(11) 0.355(2)
H8_7 H 0.6581 0.2978 0.3938
C16_7 C 0.6776(10) 0.3092(8) 0.323(3)
C17_7 C 0.6828(10) 0.3039(12) 0.266(3)
H9_5 H 0.6937 0.3142 0.2446
C18_5 C 0.6721(14) 0.2835(14) 0.241(2)
H10_5 H 0.6757 0.2799 0.2015
C19_7 C 0.6562(12) 0.2684(9) 0.272(3)
H11_7 H 0.6490 0.2545 0.2546
C20_7 C 0.6903(14) 0.3279(13) 0.359(4)
C35_7 C 0.6325(6) 0.4295(5) 0.9442(11)
C36_7 C 0.6117(5) 0.4191(5) 0.9172(14)
H19_7 H 0.5979 0.4134 0.9395
C37_7 C 0.6112(6) 0.4171(6) 0.8578(14)
C38_7 C 0.6314(7) 0.4254(6) 0.8252(11)
H20_7 H 0.6310 0.4239 0.7846
C39_7 C 0.6522(6) 0.4357(6) 0.8522(15)
H21_7 H 0.6661 0.4414 0.8299
C40_7 C 0.6528(5) 0.4378(6) 0.9116(16)
H22_7 H 0.6670 0.4449 0.9300
C41_7 C 0.5923(10) 0.4092(11) 0.828(3)
O69_7 O 0.6908(10) 0.3278(10) 0.410(3)
C42_7 C 0.5819(9) 0.2153(16) 0.330(3)
O70_7 O 0.5745(13) 0.2238(13) 0.279(3)
O71_7 O 0.5629(11) 0.2772(9) 0.605(3)
O72_7 O 0.4495(18) 0.2918(16) 0.682(4)
Zn7_6 Zn 0.53038(15) 0.61755(16) 0.6266(3)
Zn8_7 Zn 0.45211(12) 0.62113(11) 0.8208(3)
Zn9_7 Zn 0.4596(2) 0.69824(15) 0.6330(5)
Mo19_7 Mo 0.5170(2) 0.71784(15) 0.6910(4)
Mo20_7 Mo 0.51809(13) 0.67678(12) 0.5830(3)
Mo21_7 Mo 0.47277(11) 0.64023(10) 0.5798(2)
Mo22_7 Mo 0.43101(12) 0.67723(12) 0.7689(3)
Mo23_7 Mo 0.42848(10) 0.64579(12) 0.6857(3)
Mo24_7 Mo 0.4821(2) 0.71910(13) 0.7710(4)
Mo25_7 Mo 0.56037(12) 0.66790(19) 0.6885(3)
Mo26_7 Mo 0.50566(13) 0.59191(11) 0.7610(2)
Mo27_7 Mo 0.51278(10) 0.63267(15) 0.8710(2)
Mo28_7 Mo 0.47375(12) 0.67666(12) 0.8742(3)
Mo29_7 Mo 0.47171(13) 0.59655(10) 0.6819(2)
Mo30_7 Mo 0.55715(11) 0.6336(2) 0.7649(3)
P3_7 P 0.4944(3) 0.6564(3) 0.7280(8)
O75_7 O 0.4296(19) 0.7357(13) 0.688(3)
O82_7 O 0.4274(8) 0.6017(6) 0.8581(12)
O83_7 O 0.4107(7) 0.5887(8) 0.7730(14)
O84_7 O 0.5169(7) 0.6267(10) 0.9399(18)
O85_7 O 0.5224(7) 0.6818(9) 0.508(2)
O86_7 O 0.4745(8) 0.6079(8) 0.6030(17)
O87_7 O 0.5505(7) 0.6684(11) 0.6093(19)
O88_7 O 0.5160(12) 0.7111(10) 0.608(2)
O89_7 O 0.5452(7) 0.6363(11) 0.8468(18)
O90_7 O 0.5280(19) 0.7459(11) 0.685(3)
O91_7 O 0.4414(8) 0.6471(8) 0.6020(16)
O92_7 O 0.4712(11) 0.6382(8) 0.5053(18)
O93_7 O 0.4763(10) 0.7141(5) 0.684(2)
O94_7 O 0.4755(17) 0.7497(10) 0.773(3)
O95_7 O 0.4347(5) 0.6423(6) 0.7687(13)
O96_7 O 0.5041(7) 0.6021(7) 0.8383(14)
O97_7 O 0.4424(8) 0.6759(7) 0.8487(14)
O98_7 O 0.5898(10) 0.6680(17) 0.671(3)
O99_7 O 0.5121(14) 0.5636(8) 0.769(2)
O100_7 O 0.4351(8) 0.6095(8) 0.6831(17)
O101_7 O 0.5877(10) 0.626(2) 0.771(2)
O102_7 O 0.5171(14) 0.7108(12) 0.765(2)
O103_7 O 0.3981(7) 0.6441(12) 0.676(2)
O104_7 O 0.4696(11) 0.6798(9) 0.946(2)
O105_7 O 0.5097(8) 0.5997(6) 0.6797(16)
O106_7 O 0.5103(7) 0.6709(8) 0.8650(18)
O107_7 O 0.4374(9) 0.6809(8) 0.6850(19)
O108_7 O 0.4824(9) 0.7067(7) 0.854(2)
O109_7 O 0.5089(5) 0.6383(7) 0.7655(16)
O110_7 O 0.4762(4) 0.6415(6) 0.8637(12)
O111_7 O 0.4436(12) 0.7110(7) 0.772(2)
O112_7 O 0.4767(6) 0.6420(6) 0.6885(14)
O113_7 O 0.5104(6) 0.6400(6) 0.5889(12)
O114_7 O 0.5405(10) 0.5935(14) 0.753(2)
O115_7 O 0.5504(10) 0.6316(11) 0.679(2)
O131_7 O 0.4804(7) 0.6758(7) 0.5945(15)
O135_7 O 0.5140(7) 0.6740(6) 0.6924(15)
O136_7 O 0.4783(5) 0.6732(5) 0.7668(13)
O137_7 O 0.4697(7) 0.6013(6) 0.7679(14)
O138_7 O 0.3992(9) 0.6826(12) 0.771(3)
O139_7 O 0.5564(12) 0.6683(12) 0.773(3)
O140_7 O 0.4643(10) 0.5679(6) 0.6699(16)
C43_7 C 0.4192(15) 0.7338(18) 0.630(4)
C44_7 C 0.4022(9) 0.7469(8) 0.606(2)
C45_7 C 0.3825(12) 0.7573(9) 0.6371(13)
H23_7 H 0.3829 0.7576 0.6779
C46_7 C 0.3620(9) 0.7673(9) 0.608(2)
H24_7 H 0.3485 0.7744 0.6291
C47_7 C 0.3613(9) 0.7670(9) 0.549(2)
H25_7 H 0.3473 0.7738 0.5287
C48_7 C 0.3811(11) 0.7566(9) 0.5178(13)
C49_7 C 0.4015(8) 0.7466(8) 0.547(2)
H26_7 H 0.4150 0.7395 0.5258
C50_7 C 0.3839(11) 0.7564(10) 0.4531(14)
C51_7 C 0.4022(9) 0.7691(10) 0.423(2)
H27_7 H 0.4142 0.7788 0.4424
C52_7 C 0.4030(9) 0.7675(10) 0.363(2)
C53_7 C 0.3855(11) 0.7532(10) 0.3341(14)
H28_7 H 0.3860 0.7521 0.2934
C54_7 C 0.3671(9) 0.7406(9) 0.365(2)
C55_7 C 0.3663(9) 0.7422(9) 0.424(2)
H29_7 H 0.3538 0.7335 0.4450
C56_7 C 0.3490(9) 0.7262(10) 0.329(3)
C57_7 C 0.3383(11) 0.7058(11) 0.355(2)
H30_7 H 0.3419 0.7022 0.3938
C58_7 C 0.3224(10) 0.6908(8) 0.323(3)
C59_7 C 0.3172(10) 0.6961(12) 0.266(3)
H31_5 H 0.3063 0.6858 0.2446
C60_5 C 0.3279(14) 0.7165(14) 0.241(2)
H32_5 H 0.3243 0.7201 0.2015
C61_7 C 0.3438(12) 0.7316(9) 0.272(3)
H33_7 H 0.3510 0.7455 0.2546
C62_7 C 0.3097(14) 0.6721(13) 0.359(4)
C77_7 C 0.3675(6) 0.5705(5) 0.9442(11)
C78_7 C 0.3883(5) 0.5809(5) 0.9172(14)
H41_7 H 0.4021 0.5866 0.9395
C79_7 C 0.3888(6) 0.5829(6) 0.8578(14)
C80_7 C 0.3686(7) 0.5746(6) 0.8252(11)
H42_7 H 0.3690 0.5761 0.7846
C81_7 C 0.3478(6) 0.5643(6) 0.8522(15)
H43_7 H 0.3339 0.5586 0.8299
C82_7 C 0.3472(5) 0.5622(6) 0.9116(16)
H44_7 H 0.3330 0.5551 0.9300
C83_7 C 0.4077(10) 0.5908(11) 0.828(3)
O141_7 O 0.3092(10) 0.6722(10) 0.410(3)
C84_7 C 0.4181(9) 0.7847(16) 0.330(3)
O142_7 O 0.4255(13) 0.7762(13) 0.279(3)
O143_7 O 0.4371(11) 0.7228(9) 0.605(3)
O144_7 O 0.5505(18) 0.7082(16) 0.682(4)
O147_6 O 0.5492(11) 0.5949(9) 0.5786(16)
C3_8 C 0.8675(12) 0.0073(9) 0.8871(13)
H1_8 H 0.8671 0.0076 0.9279
C4_8 C 0.8880(9) 0.0173(9) 0.858(2)
H2_8 H 0.9015 0.0244 0.8791
C5_8 C 0.8887(9) 0.0170(9) 0.799(2)
H3_8 H 0.9027 0.0238 0.7787
C6_8 C 0.8689(11) 0.0066(9) 0.7678(13)
C8_8 C 0.8661(11) 0.0064(10) 0.7031(14)
C9_8 C 0.8478(9) 0.0191(10) 0.673(2)
H5_8 H 0.8358 0.0288 0.6924
C10_8 C 0.8470(9) 0.0175(10) 0.613(2)
C11_8 C 0.8645(11) 0.0032(10) 0.5841(14)
H6_8 H 0.8640 0.0021 0.5434
C42_8 C 0.8319(9) 0.0347(16) 0.580(3)
O70_8 O 0.8245(13) 0.0262(13) 0.529(3)
Zn2_8 Zn 0.79789(12) 0.87113(11) 0.0708(3)
Zn5_8 Zn 0.80018(9) 0.77070(10) 0.3917(2)
Mo4_8 Mo 0.81899(12) 0.92723(12) 0.0189(3)
Mo6_8 Mo 0.7679(2) 0.96910(13) 0.0210(4)
Mo8_8 Mo 0.74434(13) 0.84191(11) 0.0110(2)
Mo9_8 Mo 0.73722(10) 0.88267(15) 0.1210(2)
Mo10_8 Mo 0.77625(12) 0.92666(12) 0.1242(3)
Mo12_8 Mo 0.69285(11) 0.8836(2) 0.0149(3)
Mo13_8 Mo 0.74211(8) 0.68551(7) 0.45051(19)
Mo14_8 Mo 0.72228(8) 0.73905(7) 0.63508(18)
Mo15_8 Mo 0.81754(7) 0.74230(7) 0.52779(18)
Mo16_8 Mo 0.70975(9) 0.69803(7) 0.52878(19)
Mo17_8 Mo 0.76168(7) 0.72367(8) 0.34344(17)
Mo18_8 Mo 0.80451(8) 0.71141(7) 0.44947(18)
P1_13 P 0.7500 0.7500 0.4898(8)
O4_8 O 0.9554(7) 0.9092(6) 0.2983(17)
O6_8 O 0.8477(5) 0.7943(6) 0.4337(14)
O7_8 O 0.8282(5) 0.7866(5) 0.3535(13)
O8_8 O 0.8226(8) 0.8517(6) 0.1081(12)
O9_8 O 0.8393(7) 0.8387(8) 0.0230(14)
O10_8 O 0.7331(7) 0.8767(10) 0.1899(18)
O15_8 O 0.7048(7) 0.8863(11) 0.0968(18)
O20_8 O 0.7745(17) 0.9997(10) 0.023(3)
O21_8 O 0.8153(5) 0.8923(6) 0.0187(13)
O22_8 O 0.7459(7) 0.8521(7) 0.0883(14)
O23_8 O 0.8076(8) 0.9259(7) 0.0987(14)
O25_8 O 0.7379(14) 0.8136(8) 0.019(2)
O27_8 O 0.6623(10) 0.876(2) 0.021(2)
O28_8 O 0.7329(14) 0.9608(12) 0.015(2)
O30_8 O 0.7804(11) 0.9298(9) 0.196(2)
O32_8 O 0.7397(7) 0.9209(8) 0.1150(18)
O34_8 O 0.7676(9) 0.9567(7) 0.104(2)
O35_8 O 0.7411(5) 0.8883(7) 0.0155(16)
O36_8 O 0.7738(4) 0.8915(6) 0.1137(12)
O37_8 O 0.8064(12) 0.9610(7) 0.022(2)
O40_8 O 0.7095(10) 0.8435(14) 0.003(2)
O42_8 O 0.6939(6) 0.6722(5) 0.5351(15)
O43_8 O 0.7275(4) 0.7403(4) 0.5285(10)
O44_8 O 0.8320(5) 0.6973(6) 0.4410(14)
O45_8 O 0.7340(7) 0.6566(5) 0.4400(13)
O46_8 O 0.7454(5) 0.6953(5) 0.3693(12)
O47_8 O 0.7796(6) 0.6821(4) 0.4530(13)
O48_8 O 0.7632(6) 0.7208(8) 0.2721(14)
O49_8 O 0.6794(5) 0.7209(6) 0.5218(13)
O50_8 O 0.7298(4) 0.7416(5) 0.3486(11)
O51_8 O 0.8055(5) 0.7457(5) 0.6085(10)
O52_8 O 0.7578(5) 0.7306(4) 0.6286(11)
O53_8 O 0.7935(5) 0.7156(5) 0.3710(12)
O54_8 O 0.7184(5) 0.7377(5) 0.7039(11)
O55_8 O 0.7455(5) 0.6905(4) 0.5323(12)
O56_8 O 0.8125(4) 0.7461(5) 0.4452(11)
O57_8 O 0.7970(4) 0.7113(5) 0.5336(11)
O59_8 O 0.7109(4) 0.7037(5) 0.4497(11)
O60_8 O 0.8477(6) 0.7342(7) 0.5365(14)
O61_8 O 0.7137(5) 0.7079(4) 0.6115(10)
O62_8 O 0.7592(5) 0.7286(4) 0.4521(9)
O64_8 O 0.7717(5) 0.9232(5) 0.0168(13)
O65_8 O 0.7803(7) 0.8513(6) 0.0179(14)
O66_8 O 0.8508(9) 0.9326(12) 0.021(3)
O67_8 O 0.6936(12) 0.9183(12) 0.023(3)
C21_8 C 0.9561(10) 0.9071(8) 0.358(3)
C22_8 C 0.9469(5) 0.8866(5) 0.3802(13)
C23_8 C 0.9301(5) 0.8714(6) 0.3518(9)
H12_8 H 0.9261 0.8743 0.3126
C24_8 C 0.9190(5) 0.8520(5) 0.3808(12)
C25_8 C 0.9249(5) 0.8479(4) 0.4382(12)
H13_8 H 0.9173 0.8346 0.4580
C26_8 C 0.9417(5) 0.8631(5) 0.4666(10)
H14_8 H 0.9457 0.8603 0.5058
C27_8 C 0.9527(5) 0.8825(5) 0.4376(13)
H15_8 H 0.9642 0.8929 0.4570
C28_8 C 0.9008(5) 0.8347(5) 0.3495(12)
C29_8 C 0.8822(5) 0.8219(5) 0.3790(9)
H16_8 H 0.8821 0.8218 0.4197
C30_8 C 0.8638(5) 0.8092(5) 0.3487(13)
C31_8 C 0.8640(5) 0.8093(5) 0.2891(13)
H17_8 H 0.8514 0.8006 0.2684
C32_8 C 0.8826(6) 0.8221(6) 0.2596(9)
C33_8 C 0.9010(5) 0.8348(5) 0.2898(12)
H18_8 H 0.9137 0.8435 0.2697
C34_8 C 0.8486(9) 0.7970(8) 0.384(2)
C35_8 C 0.8825(6) 0.8205(5) 0.1942(11)
C36_8 C 0.8617(5) 0.8309(5) 0.1672(14)
H19_8 H 0.8479 0.8366 0.1895
C37_8 C 0.8612(6) 0.8329(6) 0.1078(14)
C38_8 C 0.8814(7) 0.8246(6) 0.0752(11)
H20_8 H 0.8810 0.8261 0.0346
C39_8 C 0.9022(6) 0.8143(6) 0.1022(15)
H21_8 H 0.9161 0.8086 0.0799
C40_8 C 0.9028(5) 0.8122(6) 0.1616(16)
H22_8 H 0.9170 0.8051 0.1800
C41_8 C 0.8423(10) 0.8408(11) 0.078(3)
O73_8 O 0.7725(4) 0.7597(4) 0.5285(10)
O74_8 O 0.7408(5) 0.7714(4) 0.4521(9)
Zn8_8 Zn 0.70211(12) 0.62887(11) 0.0708(3)
Zn11_8 Zn 0.69982(9) 0.72930(10) 0.3917(2)
Mo22_8 Mo 0.68101(12) 0.57277(12) 0.0189(3)
Mo24_8 Mo 0.7321(2) 0.53090(13) 0.0210(4)
Mo26_8 Mo 0.75566(13) 0.65809(11) 0.0110(2)
Mo27_8 Mo 0.76278(10) 0.61733(15) 0.1210(2)
Mo28_8 Mo 0.72375(12) 0.57334(12) 0.1242(3)
Mo30_8 Mo 0.80715(11) 0.6164(2) 0.0149(3)
Mo31_8 Mo 0.75789(8) 0.81449(7) 0.45051(19)
Mo32_8 Mo 0.77772(8) 0.76095(7) 0.63508(18)
Mo33_8 Mo 0.68246(7) 0.75770(7) 0.52779(18)
Mo34_8 Mo 0.79025(9) 0.80197(7) 0.52878(19)
Mo35_8 Mo 0.73832(7) 0.77633(8) 0.34344(17)
Mo36_8 Mo 0.69549(8) 0.78859(7) 0.44947(18)
O78_8 O 0.5446(7) 0.5908(6) 0.2983(17)
O80_8 O 0.6523(5) 0.7057(6) 0.4337(14)
O81_8 O 0.6718(5) 0.7134(5) 0.3535(13)
O82_8 O 0.6774(8) 0.6483(6) 0.1081(12)
O83_8 O 0.6607(7) 0.6613(8) 0.0230(14)
O84_8 O 0.7669(7) 0.6233(10) 0.1899(18)
O89_8 O 0.7952(7) 0.6137(11) 0.0968(18)
O94_8 O 0.7255(17) 0.5003(10) 0.023(3)
O95_8 O 0.6847(5) 0.6077(6) 0.0187(13)
O96_8 O 0.7541(7) 0.6479(7) 0.0883(14)
O97_8 O 0.6924(8) 0.5741(7) 0.0987(14)
O99_8 O 0.7621(14) 0.6864(8) 0.019(2)
O101_8 O 0.8377(10) 0.624(2) 0.021(2)
O102_8 O 0.7671(14) 0.5392(12) 0.015(2)
O104_8 O 0.7196(11) 0.5702(9) 0.196(2)
O106_8 O 0.7603(7) 0.5791(8) 0.1150(18)
O108_8 O 0.7324(9) 0.5433(7) 0.104(2)
O109_8 O 0.7589(5) 0.6117(7) 0.0155(16)
O110_8 O 0.7262(4) 0.6085(6) 0.1137(12)
O111_8 O 0.6936(12) 0.5390(7) 0.022(2)
O114_8 O 0.7905(10) 0.6565(14) 0.003(2)
O116_8 O 0.8061(6) 0.8278(5) 0.5351(15)
O117_8 O 0.6680(5) 0.8027(6) 0.4410(14)
O118_8 O 0.7660(7) 0.8434(5) 0.4400(13)
O119_8 O 0.7546(5) 0.8047(5) 0.3693(12)
O120_8 O 0.7204(6) 0.8179(4) 0.4530(13)
O121_8 O 0.7368(6) 0.7792(8) 0.2721(14)
O122_8 O 0.8206(5) 0.7791(6) 0.5218(13)
O123_8 O 0.7702(4) 0.7584(5) 0.3486(11)
O124_8 O 0.6945(5) 0.7543(5) 0.6085(10)
O125_8 O 0.7422(5) 0.7694(4) 0.6286(11)
O126_8 O 0.7065(5) 0.7844(5) 0.3710(12)
O127_8 O 0.7816(5) 0.7623(5) 0.7039(11)
O128_8 O 0.7545(5) 0.8095(4) 0.5323(12)
O129_8 O 0.6875(4) 0.7539(5) 0.4452(11)
O130_8 O 0.7030(4) 0.7887(5) 0.5336(11)
O132_8 O 0.7891(4) 0.7963(5) 0.4497(11)
O133_8 O 0.6523(6) 0.7658(7) 0.5365(14)
O134_8 O 0.7863(5) 0.7921(4) 0.6115(10)
O136_8 O 0.7283(5) 0.5768(5) 0.0168(13)
O137_8 O 0.7197(7) 0.6487(6) 0.0179(14)
O138_8 O 0.6492(9) 0.5674(12) 0.021(3)
O139_8 O 0.8064(12) 0.5817(12) 0.023(3)
C63_8 C 0.5439(10) 0.5929(8) 0.358(3)
C64_8 C 0.5531(5) 0.6134(5) 0.3802(13)
C65_8 C 0.5699(5) 0.6286(6) 0.3518(9)
H34_8 H 0.5739 0.6257 0.3126
C66_8 C 0.5810(5) 0.6480(5) 0.3808(12)
C67_8 C 0.5751(5) 0.6521(4) 0.4382(12)
H35_8 H 0.5827 0.6654 0.4580
C68_8 C 0.5583(5) 0.6369(5) 0.4666(10)
H36_8 H 0.5543 0.6397 0.5058
C69_8 C 0.5473(5) 0.6175(5) 0.4376(13)
H37_8 H 0.5358 0.6071 0.4570
C70_8 C 0.5992(5) 0.6653(5) 0.3495(12)
C71_8 C 0.6178(5) 0.6781(5) 0.3790(9)
H38_8 H 0.6179 0.6782 0.4197
C72_8 C 0.6362(5) 0.6908(5) 0.3487(13)
C73_8 C 0.6360(5) 0.6907(5) 0.2891(13)
H39_8 H 0.6486 0.6994 0.2684
C74_8 C 0.6174(6) 0.6779(6) 0.2596(9)
C75_8 C 0.5990(5) 0.6652(5) 0.2898(12)
H40_8 H 0.5863 0.6565 0.2697
C76_8 C 0.6514(9) 0.7030(8) 0.384(2)
C77_8 C 0.6175(6) 0.6795(5) 0.1942(11)
C78_8 C 0.6383(5) 0.6691(5) 0.1672(14)
H41_8 H 0.6521 0.6634 0.1895
C79_8 C 0.6388(6) 0.6671(6) 0.1078(14)
C80_8 C 0.6186(7) 0.6754(6) 0.0752(11)
H42_8 H 0.6190 0.6739 0.0346
C81_8 C 0.5978(6) 0.6857(6) 0.1022(15)
H43_8 H 0.5839 0.6914 0.0799
C82_8 C 0.5972(5) 0.6878(6) 0.1616(16)
H44_8 H 0.5830 0.6949 0.1800
C83_8 C 0.6577(10) 0.6592(11) 0.078(3)
Zn3_8 Zn 0.7904(2) 0.94824(15) 0.8830(5)
Mo1_8 Mo 0.7330(2) 0.96784(15) 0.9410(4)
Mo2_8 Mo 0.73191(13) 0.92678(12) 0.8330(3)
Mo3_8 Mo 0.77723(11) 0.89023(10) 0.8298(2)
Mo5_8 Mo 0.82152(10) 0.89579(12) 0.9357(3)
Mo7_8 Mo 0.68963(12) 0.91790(19) 0.9385(3)
Mo11_8 Mo 0.77829(13) 0.84655(10) 0.9319(2)
P2_8 P 0.7556(3) 0.9064(3) 0.9780(8)
O1_8 O 0.8204(19) 0.9857(13) 0.938(3)
O11_8 O 0.7276(7) 0.9318(9) 0.758(2)
O12_8 O 0.7755(8) 0.8579(8) 0.8530(17)
O13_8 O 0.6995(7) 0.9184(11) 0.8593(19)
O14_8 O 0.7340(12) 0.9611(10) 0.858(2)
O16_8 O 0.7220(19) 0.9959(11) 0.935(3)
O17_8 O 0.8086(8) 0.8971(8) 0.8520(16)
O18_8 O 0.7788(11) 0.8882(8) 0.7553(18)
O19_8 O 0.7737(10) 0.9641(5) 0.934(2)
O24_8 O 0.6602(10) 0.9180(17) 0.921(3)
O26_8 O 0.8149(8) 0.8595(8) 0.9331(17)
O29_8 O 0.8519(7) 0.8941(12) 0.926(2)
O31_8 O 0.7403(8) 0.8497(6) 0.9297(16)
O33_8 O 0.8126(9) 0.9309(8) 0.9350(19)
O38_8 O 0.7733(6) 0.8920(6) 0.9385(14)
O39_8 O 0.7396(6) 0.8900(6) 0.8389(12)
O41_8 O 0.6996(10) 0.8816(11) 0.929(2)
O58_8 O 0.7696(7) 0.9258(7) 0.8445(15)
O63_8 O 0.7360(7) 0.9240(6) 0.9424(15)
O68_8 O 0.7857(10) 0.8179(6) 0.9199(16)
C1_8 C 0.8308(15) 0.9838(18) 0.880(4)
C2_8 C 0.8478(9) 0.9969(8) 0.856(2)
C7_8 C 0.8485(8) 0.9966(8) 0.797(2)
H4_8 H 0.8350 0.9895 0.7758
C12_8 C 0.8829(9) 0.9906(9) 0.615(2)
C13_8 C 0.8837(9) 0.9922(9) 0.674(2)
H7_8 H 0.8962 0.9835 0.6950
C14_8 C 0.9010(9) 0.9762(10) 0.579(3)
C15_8 C 0.9117(11) 0.9558(11) 0.605(2)
H8_8 H 0.9081 0.9522 0.6438
C16_8 C 0.9276(10) 0.9408(8) 0.573(3)
C17_8 C 0.9328(10) 0.9461(12) 0.516(3)
H9_6 H 0.9437 0.9358 0.4946
C18_6 C 0.9221(14) 0.9665(14) 0.491(2)
H10_6 H 0.9257 0.9701 0.4515
C19_8 C 0.9062(12) 0.9816(9) 0.522(3)
H11_8 H 0.8990 0.9955 0.5046
C20_8 C 0.9403(14) 0.9221(13) 0.609(4)
O69_8 O 0.9408(10) 0.9222(10) 0.660(3)
O71_8 O 0.8129(11) 0.9728(9) 0.855(3)
O72_8 O 0.6995(18) 0.9582(16) 0.932(4)
Zn9_8 Zn 0.7096(2) 0.55176(15) 0.8830(5)
Mo19_8 Mo 0.7670(2) 0.53216(15) 0.9410(4)
Mo20_8 Mo 0.76809(13) 0.57322(12) 0.8330(3)
Mo21_8 Mo 0.72277(11) 0.60977(10) 0.8298(2)
Mo23_8 Mo 0.67848(10) 0.60421(12) 0.9357(3)
Mo25_8 Mo 0.81037(12) 0.58210(19) 0.9385(3)
Mo29_8 Mo 0.72171(13) 0.65345(10) 0.9319(2)
P3_8 P 0.7444(3) 0.5936(3) 0.9780(8)
O75_8 O 0.6796(19) 0.5143(13) 0.938(3)
O85_8 O 0.7724(7) 0.5682(9) 0.758(2)
O86_8 O 0.7245(8) 0.6421(8) 0.8530(17)
O87_8 O 0.8005(7) 0.5816(11) 0.8593(19)
O88_8 O 0.7660(12) 0.5389(10) 0.858(2)
O90_8 O 0.7780(19) 0.5041(11) 0.935(3)
O91_8 O 0.6914(8) 0.6029(8) 0.8520(16)
O92_8 O 0.7212(11) 0.6118(8) 0.7553(18)
O93_8 O 0.7263(10) 0.5359(5) 0.934(2)
O98_8 O 0.8398(10) 0.5820(17) 0.921(3)
O100_8 O 0.6851(8) 0.6405(8) 0.9331(17)
O103_8 O 0.6481(7) 0.6059(12) 0.926(2)
O105_8 O 0.7597(8) 0.6503(6) 0.9297(16)
O107_8 O 0.6874(9) 0.5691(8) 0.9350(19)
O112_8 O 0.7267(6) 0.6080(6) 0.9385(14)
O113_8 O 0.7604(6) 0.6100(6) 0.8389(12)
O115_8 O 0.8004(10) 0.6184(11) 0.929(2)
O131_8 O 0.7304(7) 0.5742(7) 0.8445(15)
O135_8 O 0.7640(7) 0.5760(6) 0.9424(15)
O140_8 O 0.7143(10) 0.6821(6) 0.9199(16)
C43_8 C 0.6692(15) 0.5162(18) 0.880(4)
C44_8 C 0.6522(9) 0.5031(8) 0.856(2)
C45_8 C 0.6325(12) 0.4927(9) 0.8871(13)
H23_8 H 0.6329 0.4924 0.9279
C46_8 C 0.6120(9) 0.4827(9) 0.858(2)
H24_8 H 0.5985 0.4756 0.8791
C47_8 C 0.6113(9) 0.4830(9) 0.799(2)
H25_8 H 0.5973 0.4762 0.7787
C48_8 C 0.6311(11) 0.4934(9) 0.7678(13)
C49_8 C 0.6515(8) 0.5034(8) 0.797(2)
H26_8 H 0.6650 0.5105 0.7758
C50_8 C 0.6339(11) 0.4936(10) 0.7031(14)
C51_8 C 0.6522(9) 0.4809(10) 0.673(2)
H27_8 H 0.6642 0.4712 0.6924
C52_8 C 0.6530(9) 0.4825(10) 0.613(2)
C53_8 C 0.6355(11) 0.4968(10) 0.5841(14)
H28_8 H 0.6360 0.4979 0.5434
C54_8 C 0.6171(9) 0.5094(9) 0.615(2)
C55_8 C 0.6163(9) 0.5078(9) 0.674(2)
H29_8 H 0.6038 0.5165 0.6950
C56_8 C 0.5990(9) 0.5238(10) 0.579(3)
C57_8 C 0.5883(11) 0.5442(11) 0.605(2)
H30_8 H 0.5919 0.5478 0.6438
C58_8 C 0.5724(10) 0.5592(8) 0.573(3)
C59_8 C 0.5672(10) 0.5539(12) 0.516(3)
H31_6 H 0.5563 0.5642 0.4946
C60_6 C 0.5779(14) 0.5335(14) 0.491(2)
H32_6 H 0.5743 0.5299 0.4515
C61_8 C 0.5938(12) 0.5184(9) 0.522(3)
H33_8 H 0.6010 0.5045 0.5046
C62_8 C 0.5597(14) 0.5779(13) 0.609(4)
O141_8 O 0.5592(10) 0.5778(10) 0.660(3)
C84_8 C 0.6681(9) 0.4653(16) 0.580(3)
O142_8 O 0.6755(13) 0.4738(13) 0.529(3)
O143_8 O 0.6871(11) 0.5272(9) 0.855(3)
O144_8 O 0.8005(18) 0.5418(16) 0.932(4)
H9_7 H 0.4437 0.9358 0.9946
C18_7 C 0.4221(14) 0.9665(14) 0.991(2)
H10_7 H 0.4257 0.9701 0.9515
H31_7 H 0.0563 0.5642 0.9946
C60_7 C 0.0779(14) 0.5335(14) 0.991(2)
H32_7 H 0.0743 0.5299 0.9515
H9_8 H 0.9437 0.4358 0.9946
C18_8 C 0.9221(14) 0.4665(14) 0.991(2)
H10_8 H 0.9257 0.4701 0.9515
H31_8 H 0.5563 0.0642 0.9946
C60_8 C 0.5779(14) 0.0335(14) 0.991(2)
H32_8 H 0.5743 0.0299 0.9515
loop_
_geom_bond_atom_site_label_1
_geom_bond_atom_site_label_2
_geom_bond_site_symmetry_1
_geom_bond_site_symmetry_2
Zn6 O52 1_555 1_555
Mo15 O51 1_555 1_555
Mo18 O44 1_555 1_555
O48 Mo17 1_555 1_555
O53 Mo17 1_555 1_555
O57 Zn6 1_555 1_555
O60 Mo15 1_555 1_555
O149 Zn6 1_555 1_555
Mo15 O56 1_555 1_555
Mo15 O57 1_555 1_555
Mo17 O62 1_555 1_555
Mo18 O47 1_555 1_555
Mo18 O53 1_555 1_555
Mo18 O56 1_555 1_555
Mo18 O57 1_555 1_555
Mo18 O62 1_555 1_555
P1 O62 1_555 1_555
Zn7 O105 1_555 1_555
Zn10 O102 1_555 1_555
Mo19 O88 1_555 1_555
Mo20 O85 1_555 1_555
Mo25 O87 1_555 1_555
Mo26 O96 1_555 1_555
Mo27 O84 1_555 1_555
Mo30 O89 1_555 1_555
O87 Mo20 1_555 1_555
O88 Mo20 1_555 1_555
O89 Mo27 1_555 1_555
O90 Mo19 1_555 1_555
O96 Mo27 1_555 1_555
O98 Mo25 1_555 1_555
O99 Mo26 1_555 1_555
O101 Mo30 1_555 1_555
O102 Mo19 1_555 1_555
O105 Mo26 1_555 1_555
O106 Zn10 1_555 1_555
O109 Mo26 1_555 1_555
O113 Zn7 1_555 1_555
O114 Mo26 1_555 1_555
O115 Zn7 1_555 1_555
O135 Mo19 1_555 1_555
O139 Zn10 1_555 1_555
O144 Mo19 1_555 1_555
O145 Zn10 1_555 1_555
O147 Zn7 1_555 1_555
Mo20 O113 1_555 1_555
Mo20 O135 1_555 1_555
Mo25 O115 1_555 1_555
Mo25 O135 1_555 1_555
Mo25 O139 1_555 1_555
Mo25 O144 1_555 1_555
Mo27 O106 1_555 1_555
Mo27 O109 1_555 1_555
Mo30 O109 1_555 1_555
Mo30 O114 1_555 1_555
Mo30 O115 1_555 1_555
Mo30 O139 1_555 1_555
Zn5 O7 1_555 1_555
O4 C21 1_555 1_555
O5 C21 1_555 1_555
O6 C34 1_555 1_555
O7 C34 1_555 1_555
C21 C22 1_555 1_555
C22 C23 1_555 1_555
C23 H12 1_555 1_555
C24 C23 1_555 1_555
C25 C24 1_555 1_555
H13 C25 1_555 1_555
C26 C25 1_555 1_555
H14 C26 1_555 1_555
C27 C22 1_555 1_555
H15 C27 1_555 1_555
C28 C24 1_555 1_555
C29 C28 1_555 1_555
H16 C29 1_555 1_555
C30 C29 1_555 1_555
C31 C30 1_555 1_555
H17 C31 1_555 1_555
C32 C31 1_555 1_555
C33 C28 1_555 1_555
H18 C33 1_555 1_555
C34 C30 1_555 1_555
Mo34 O73 1_555 1_555
O116 Mo34 1_555 1_555
O118 Mo31 1_555 1_555
O119 Mo31 1_555 1_555
O123 Zn5 1_555 1_555
O127 Mo32 1_555 1_555
O132 Zn5 1_555 1_555
O134 Mo32 1_555 1_555
Zn17 O5 1_555 1_555
P1_2 O73 1_555 1_555
C26 C27 1_555 1_555
C32 C33 1_555 1_555
O73 Mo32 1_555 1_555
Mo31 O128 1_555 1_555
Mo31 O132 1_555 1_555
Mo34 O122 1_555 1_555
Mo34 O128 1_555 1_555
Mo34 O132 1_555 1_555
Mo34 O134 1_555 1_555
Zn2 O8 1_555 1_555
Zn3 O19 1_555 1_555
Mo3 O12 1_555 1_555
Mo4 O21 1_555 1_555
Mo5 O17 1_555 1_555
Mo6 O19 1_555 1_555
Mo10 O23 1_555 1_555
Mo11 O12 1_555 1_555
O1 C1 1_555 1_555
O2 C42 1_555 1_555
O3 C20 1_555 1_555
O8 C41 1_555 1_555
O9 C41 1_555 1_555
O17 Mo3 1_555 1_555
O18 Mo3 1_555 1_555
O20 Mo6 1_555 1_555
O21 Zn2 1_555 1_555
O23 Mo4 1_555 1_555
O26 Mo5 1_555 1_555
O29 Mo5 1_555 1_555
O30 Mo10 1_555 1_555
O33 Zn3 1_555 1_555
O34 Mo6 1_555 1_555
O36 Zn2 1_555 1_555
O37 Mo4 1_555 1_555
O38 Mo3 1_555 1_555
O58 Zn3 1_555 1_555
O64 Mo4 1_555 1_555
O65 Zn2 1_555 1_555
O66 Mo4 1_555 1_555
O68 Mo11 1_555 1_555
C1 C2 1_555 1_555
C2 C3 1_555 1_555
C3 H1 1_555 1_555
C4 C3 1_555 1_555
H2 C4 1_555 1_555
C5 C4 1_555 1_555
H3 C5 1_555 1_555
C6 C5 1_555 1_555
C7 C2 1_555 1_555
H4 C7 1_555 1_555
C8 C6 1_555 1_555
C9 C8 1_555 1_555
H5 C9 1_555 1_555
C10 C9 1_555 1_555
C11 C10 1_555 1_555
H6 C11 1_555 1_555
C12 C11 1_555 1_555
C13 C8 1_555 1_555
H7 C13 1_555 1_555
C14 C12 1_555 1_555
C15 C14 1_555 1_555
H8 C15 1_555 1_555
C16 C15 1_555 1_555
C17 C16 1_555 1_555
H9 C17 1_555 1_555
C18 C17 1_555 1_555
H10 C18 1_555 1_555
C19 C14 1_555 1_555
H11 C19 1_555 1_555
C20 C16 1_555 1_555
C36 C35 1_555 1_555
H19 C36 1_555 1_555
C37 C36 1_555 1_555
C38 C37 1_555 1_555
H20 C38 1_555 1_555
C39 C38 1_555 1_555
H21 C39 1_555 1_555
C40 C35 1_555 1_555
H22 C40 1_555 1_555
C41 C37 1_555 1_555
O69 C20 1_555 1_555
C42 C10 1_555 1_555
O70 C42 1_555 1_555
O71 Zn3 1_555 1_555
Zn13 O3 1_555 1_555
Zn16 O2 1_555 1_555
Mo3 O58 1_555 1_555
Mo4 O33 1_555 1_555
Mo5 O21 1_555 1_555
Mo5 O33 1_555 1_555
Mo5 O38 1_555 1_555
Mo6 O37 1_555 1_555
Mo6 O64 1_555 1_555
Mo10 O34 1_555 1_555
Mo10 O36 1_555 1_555
Mo10 O64 1_555 1_555
Mo11 O26 1_555 1_555
Mo11 O38 1_555 1_555
Mo11 O65 1_555 1_555
P2 O38 1_555 1_555
P2 O64 1_555 1_555
C1 O71 1_555 1_555
C6 C7 1_555 1_555
C12 C13 1_555 1_555
C18 C19 1_555 1_555
C39 C40 1_555 1_555
Mo13 O45 1_555 1_555
Mo14 O43 1_555 1_555
Mo16 O42 1_555 1_555
P1_3 O43 1_555 1_555
O43 Mo16 1_555 1_555
O46 Mo13 1_555 1_555
O49 Mo16 1_555 1_555
O54 Mo14 1_555 1_555
O59 Mo13 1_555 1_555
O61 Mo14 1_555 1_555
Zn11 O50 1_555 1_555
O78 C63 1_555 1_555
O79 C63 1_555 1_555
O80 C76 1_555 1_555
O81 Zn11 1_555 1_555
C63 C64 1_555 1_555
C64 C65 1_555 1_555
C65 H34 1_555 1_555
C66 C65 1_555 1_555
C67 C66 1_555 1_555
H35 C67 1_555 1_555
C68 C67 1_555 1_555
H36 C68 1_555 1_555
C69 C64 1_555 1_555
H37 C69 1_555 1_555
C70 C66 1_555 1_555
C71 C70 1_555 1_555
H38 C71 1_555 1_555
C72 C71 1_555 1_555
C73 C72 1_555 1_555
H39 C73 1_555 1_555
C74 C73 1_555 1_555
C75 C70 1_555 1_555
H40 C75 1_555 1_555
C76 O81 1_555 1_555
Zn18 O79 1_555 1_555
Mo13 O55 1_555 1_555
Mo16 O55 1_555 1_555
Mo16 O59 1_555 1_555
Mo16 O61 1_555 1_555
O59 Zn11 1_555 1_555
C68 C69 1_555 1_555
C72 C76 1_555 1_555
C74 C75 1_555 1_555
Zn8 O82 1_555 1_555
Zn9 O93 1_555 1_555
Mo21 O86 1_555 1_555
Mo22 O95 1_555 1_555
Mo23 O91 1_555 1_555
Mo24 O93 1_555 1_555
Mo28 O97 1_555 1_555
Mo29 O86 1_555 1_555
O75 C43 1_555 1_555
O76 C84 1_555 1_555
O77 C62 1_555 1_555
O82 C83 1_555 1_555
O83 C83 1_555 1_555
O91 Mo21 1_555 1_555
O92 Mo21 1_555 1_555
O94 Mo24 1_555 1_555
O95 Zn8 1_555 1_555
O97 Mo22 1_555 1_555
O100 Mo23 1_555 1_555
O103 Mo23 1_555 1_555
O104 Mo28 1_555 1_555
O107 Zn9 1_555 1_555
O108 Mo24 1_555 1_555
O110 Zn8 1_555 1_555
O111 Mo22 1_555 1_555
O112 Mo21 1_555 1_555
O131 Zn9 1_555 1_555
O136 Mo22 1_555 1_555
O137 Zn8 1_555 1_555
O138 Mo22 1_555 1_555
O140 Mo29 1_555 1_555
C43 C44 1_555 1_555
C44 C45 1_555 1_555
C45 H23 1_555 1_555
C46 C45 1_555 1_555
H24 C46 1_555 1_555
C47 C46 1_555 1_555
H25 C47 1_555 1_555
C48 C47 1_555 1_555
C49 C44 1_555 1_555
H26 C49 1_555 1_555
C50 C48 1_555 1_555
C51 C50 1_555 1_555
H27 C51 1_555 1_555
C52 C51 1_555 1_555
C53 C52 1_555 1_555
H28 C53 1_555 1_555
C54 C53 1_555 1_555
C55 C50 1_555 1_555
H29 C55 1_555 1_555
C56 C54 1_555 1_555
C57 C56 1_555 1_555
H30 C57 1_555 1_555
C58 C57 1_555 1_555
C59 C58 1_555 1_555
H31 C59 1_555 1_555
C60 C59 1_555 1_555
H32 C60 1_555 1_555
C61 C56 1_555 1_555
H33 C61 1_555 1_555
C62 C58 1_555 1_555
C78 C77 1_555 1_555
H41 C78 1_555 1_555
C79 C78 1_555 1_555
C80 C79 1_555 1_555
H42 C80 1_555 1_555
C81 C80 1_555 1_555
H43 C81 1_555 1_555
C82 C77 1_555 1_555
H44 C82 1_555 1_555
C83 C79 1_555 1_555
O141 C62 1_555 1_555
C84 C52 1_555 1_555
O142 C84 1_555 1_555
O143 Zn9 1_555 1_555
Zn14 O77 1_555 1_555
Zn15 O76 1_555 1_555
Mo21 O131 1_555 1_555
Mo22 O107 1_555 1_555
Mo23 O95 1_555 1_555
Mo23 O107 1_555 1_555
Mo23 O112 1_555 1_555
Mo24 O111 1_555 1_555
Mo24 O136 1_555 1_555
Mo28 O108 1_555 1_555
Mo28 O110 1_555 1_555
Mo28 O136 1_555 1_555
Mo29 O100 1_555 1_555
Mo29 O112 1_555 1_555
Mo29 O137 1_555 1_555
P3 O112 1_555 1_555
P3 O136 1_555 1_555
C43 O143 1_555 1_555
C48 C49 1_555 1_555
C54 C55 1_555 1_555
C60 C61 1_555 1_555
C81 C82 1_555 1_555
O74 P1_4 1_555 1_555
Zn12 O125 1_555 1_555
Mo36 O74 1_555 1_555
O117 Mo36 1_555 1_555
O121 Mo35 1_555 1_555
O126 Mo35 1_555 1_555
O130 Zn12 1_555 1_555
O133 Mo33 1_555 1_555
O150 Zn12 1_555 1_555
O74 Mo35 1_555 1_555
Mo33 O124 1_555 1_555
Mo33 O129 1_555 1_555
Mo33 O130 1_555 1_555
Mo36 O120 1_555 1_555
Mo36 O126 1_555 1_555
Mo36 O129 1_555 1_555
Mo36 O130 1_555 1_555
Zn1 O31 1_555 1_555
Zn4 O28 1_555 1_555
Mo1 O14 1_555 1_555
Mo2 O11 1_555 1_555
Mo7 O13 1_555 1_555
Mo8 O22 1_555 1_555
Mo9 O10 1_555 1_555
Mo12 O15 1_555 1_555
O13 Mo2 1_555 1_555
O14 Mo2 1_555 1_555
O15 Mo9 1_555 1_555
O16 Mo1 1_555 1_555
O22 Mo9 1_555 1_555
O24 Mo7 1_555 1_555
O25 Mo8 1_555 1_555
O27 Mo12 1_555 1_555
O28 Mo1 1_555 1_555
O31 Mo8 1_555 1_555
O32 Zn4 1_555 1_555
O35 Mo8 1_555 1_555
O39 Zn1 1_555 1_555
O40 Mo8 1_555 1_555
O41 Zn1 1_555 1_555
O63 Mo1 1_555 1_555
O67 Zn4 1_555 1_555
O72 Mo1 1_555 1_555
O146 Zn4 1_555 1_555
O148 Zn1 1_555 1_555
Mo2 O39 1_555 1_555
Mo2 O63 1_555 1_555
Mo7 O41 1_555 1_555
Mo7 O63 1_555 1_555
Mo7 O67 1_555 1_555
Mo7 O72 1_555 1_555
Mo9 O32 1_555 1_555
Mo9 O35 1_555 1_555
Mo12 O35 1_555 1_555
Mo12 O40 1_555 1_555
Mo12 O41 1_555 1_555
Mo12 O67 1_555 1_555
Zn2_2 O8_2 1_555 1_555
Zn4_2 O28_2 1_555 1_555
Zn5_2 O7_2 1_555 1_555
Zn6_2 O52_2 1_555 1_555
Mo4_2 O21_2 1_555 1_555
Mo8_2 O22_2 1_555 1_555
Mo9_2 O10_2 1_555 1_555
Mo10_2 O23_2 1_555 1_555
Mo12_2 O15_2 1_555 1_555
Mo13_2 O45_2 1_555 1_555
Mo14_2 O43_2 1_555 1_555
Mo15_2 O51_2 1_555 1_555
Mo16_2 O42_2 1_555 1_555
Mo17_2 O46_2 1_555 1_555
Mo18_2 O44_2 1_555 1_555
P1_5 O43_2 1_555 1_555
O4_2 C21_2 1_555 1_555
O5_2 C21_2 1_555 1_555
O6_2 C34_2 1_555 1_555
O7_2 C34_2 1_555 1_555
O8_2 C41_2 1_555 1_555
O9_2 C41_2 1_555 1_555
O15_2 Mo9_2 1_555 1_555
O20_2 Mo6_2 1_555 1_555
O21_2 Zn2_2 1_555 1_555
O22_2 Mo9_2 1_555 1_555
O23_2 Mo4_2 1_555 1_555
O25_2 Mo8_2 1_555 1_555
O27_2 Mo12_2 1_555 1_555
O30_2 Mo10_2 1_555 1_555
O32_2 Zn4_2 1_555 1_555
O34_2 Mo6_2 1_555 1_555
O35_2 Mo8_2 1_555 1_555
O36_2 Zn2_2 1_555 1_555
O37_2 Mo4_2 1_555 1_555
O40_2 Mo8_2 1_555 1_555
O43_2 Mo16_2 1_555 1_555
O46_2 Mo13_2 1_555 1_555
O47_2 Mo13_2 1_555 1_555
O48_2 Mo17_2 1_555 1_555
O49_2 Mo16_2 1_555 1_555
O50_2 Mo17_2 1_555 1_555
O51_2 Mo32_2 1_555 1_555
O52_2 Mo14_2 1_555 1_555
O53_2 Mo17_2 1_555 1_555
O54_2 Mo14_2 1_555 1_555
O55_2 Zn6_2 1_555 1_555
O56_2 Zn5_2 1_555 1_555
O57_2 Zn6_2 1_555 1_555
O59_2 Mo13_2 1_555 1_555
O60_2 Mo15_2 1_555 1_555
O61_2 Mo14_2 1_555 1_555
O62_2 Mo13_2 1_555 1_555
O64_2 Mo4_2 1_555 1_555
O65_2 Zn2_2 1_555 1_555
O66_2 Mo4_2 1_555 1_555
O67_2 Zn4_2 1_555 1_555
C21_2 C22_2 1_555 1_555
C22_2 C23_2 1_555 1_555
C23_2 H12_2 1_555 1_555
C24_2 C23_2 1_555 1_555
C25_2 C24_2 1_555 1_555
H13_2 C25_2 1_555 1_555
C26_2 C25_2 1_555 1_555
H14_2 C26_2 1_555 1_555
C27_2 C22_2 1_555 1_555
H15_2 C27_2 1_555 1_555
C28_2 C24_2 1_555 1_555
C29_2 C28_2 1_555 1_555
H16_2 C29_2 1_555 1_555
C30_2 C29_2 1_555 1_555
C31_2 C30_2 1_555 1_555
H17_2 C31_2 1_555 1_555
C32_2 C31_2 1_555 1_555
C33_2 C28_2 1_555 1_555
H18_2 C33_2 1_555 1_555
C34_2 C30_2 1_555 1_555
C35_2 C32_2 1_555 1_555
C36_2 C35_2 1_555 1_555
H19_2 C36_2 1_555 1_555
C37_2 C36_2 1_555 1_555
C38_2 C37_2 1_555 1_555
H20_2 C38_2 1_555 1_555
C39_2 C38_2 1_555 1_555
H21_2 C39_2 1_555 1_555
C40_2 C35_2 1_555 1_555
H22_2 C40_2 1_555 1_555
C41_2 C37_2 1_555 1_555
O73_2 Mo15_2 1_555 1_555
O74_2 P1_5 1_555 1_555
Zn8_2 O82_2 1_555 1_555
Zn10_2 O102_2 1_555 1_555
Zn11_2 O50_2 1_555 1_555
Zn12_2 O125_2 1_555 1_555
Mo22_2 O95_2 1_555 1_555
Mo26_2 O96_2 1_555 1_555
Mo27_2 O84_2 1_555 1_555
Mo28_2 O97_2 1_555 1_555
Mo30_2 O89_2 1_555 1_555
Mo31_2 O74_2 1_555 1_555
Mo32_2 O52_2 1_555 1_555
Mo33_2 O43_2 1_555 1_555
Mo34_2 O73_2 1_555 1_555
Mo35_2 O50_2 1_555 1_555
Mo36_2 O74_2 1_555 1_555
O78_2 C63_2 1_555 1_555
O149 C63_2 1_555 1_555
O80_2 C76_2 1_555 1_555
O81_2 Zn11_2 1_555 1_555
O82_2 C83_2 1_555 1_555
O83_2 C83_2 1_555 1_555
O89_2 Mo27_2 1_555 1_555
O94_2 Mo24_2 1_555 1_555
O95_2 Zn8_2 1_555 1_555
O96_2 Mo27_2 1_555 1_555
O97_2 Mo22_2 1_555 1_555
O99_2 Mo26_2 1_555 1_555
O101_2 Mo30_2 1_555 1_555
O104_2 Mo28_2 1_555 1_555
O106_2 Zn10_2 1_555 1_555
O108_2 Mo24_2 1_555 1_555
O109_2 Mo26_2 1_555 1_555
O110_2 Zn8_2 1_555 1_555
O111_2 Mo22_2 1_555 1_555
O114_2 Mo26_2 1_555 1_555
O116_2 Mo34_2 1_555 1_555
O117_2 Mo36_2 1_555 1_555
O118_2 Mo31_2 1_555 1_555
O119_2 Mo31_2 1_555 1_555
O120_2 Mo31_2 1_555 1_555
O121_2 Mo35_2 1_555 1_555
O122_2 Mo15_2 1_555 1_555
O123_2 Zn5_2 1_555 1_555
O124_2 Mo14_2 1_555 1_555
O125_2 Mo14_2 1_555 1_555
O126_2 Mo35_2 1_555 1_555
O127_2 Mo32_2 1_555 1_555
O128_2 Zn12_2 1_555 1_555
O129_2 Zn11_2 1_555 1_555
O130_2 Zn12_2 1_555 1_555
O132_2 Zn5_2 1_555 1_555
O133_2 Mo33_2 1_555 1_555
O134_2 Mo32_2 1_555 1_555
O136_2 Mo22_2 1_555 1_555
O137_2 Zn8_2 1_555 1_555
O138_2 Mo22_2 1_555 1_555
O139_2 Zn10_2 1_555 1_555
C63_2 C64_2 1_555 1_555
C64_2 C65_2 1_555 1_555
C65_2 H34_2 1_555 1_555
C66_2 C65_2 1_555 1_555
C67_2 C66_2 1_555 1_555
H35_2 C67_2 1_555 1_555
C68_2 C67_2 1_555 1_555
H36_2 C68_2 1_555 1_555
C69_2 C64_2 1_555 1_555
H37_2 C69_2 1_555 1_555
C70_2 C66_2 1_555 1_555
C71_2 C70_2 1_555 1_555
H38_2 C71_2 1_555 1_555
C72_2 C71_2 1_555 1_555
C73_2 C72_2 1_555 1_555
H39_2 C73_2 1_555 1_555
C74_2 C73_2 1_555 1_555
C75_2 C70_2 1_555 1_555
H40_2 C75_2 1_555 1_555
C76_2 O81_2 1_555 1_555
C77_2 C74_2 1_555 1_555
C78_2 C77_2 1_555 1_555
H41_2 C78_2 1_555 1_555
C79_2 C78_2 1_555 1_555
C80_2 C79_2 1_555 1_555
H42_2 C80_2 1_555 1_555
C81_2 C80_2 1_555 1_555
H43_2 C81_2 1_555 1_555
C82_2 C77_2 1_555 1_555
H44_2 C82_2 1_555 1_555
C83_2 C79_2 1_555 1_555
Zn17_2 O5_2 1_555 1_555
O145_2 Zn10_2 1_555 1_555
O146_2 Zn4_2 1_555 1_555
O149_2 Zn6_2 1_555 1_555
O150_2 Zn12_2 1_555 1_555
Mo6_2 O28_2 1_555 1_555
Mo6_2 O37_2 1_555 1_555
Mo6_2 O64_2 1_555 1_555
Mo8_2 O65_2 1_555 1_555
Mo9_2 O32_2 1_555 1_555
Mo9_2 O35_2 1_555 1_555
Mo9_2 O36_2 1_555 1_555
Mo10_2 O32_2 1_555 1_555
Mo10_2 O34_2 1_555 1_555
Mo10_2 O36_2 1_555 1_555
Mo10_2 O64_2 1_555 1_555
Mo12_2 O35_2 1_555 1_555
Mo12_2 O40_2 1_555 1_555
Mo12_2 O67_2 1_555 1_555
Mo13_2 O55_2 1_555 1_555
Mo15_2 O56_2 1_555 1_555
Mo15_2 O57_2 1_555 1_555
Mo16_2 O55_2 1_555 1_555
Mo16_2 O59_2 1_555 1_555
Mo16_2 O61_2 1_555 1_555
Mo17_2 O62_2 1_555 1_555
Mo17_2 O123_2 1_555 1_555
Mo18_2 O47_2 1_555 1_555
Mo18_2 O53_2 1_555 1_555
Mo18_2 O56_2 1_555 1_555
Mo18_2 O57_2 1_555 1_555
Mo18_2 O62_2 1_555 1_555
P1_5 O62_2 1_555 1_555
P1_5 O73_2 1_555 1_555
O49_2 Mo33_2 1_555 1_555
O59_2 Zn11_2 1_555 1_555
C26_2 C27_2 1_555 1_555
C32_2 C33_2 1_555 1_555
C39_2 C40_2 1_555 1_555
O73_2 Mo32_2 1_555 1_555
O74_2 Mo35_2 1_555 1_555
Mo24_2 O102_2 1_555 1_555
Mo24_2 O111_2 1_555 1_555
Mo24_2 O136_2 1_555 1_555
Mo26_2 O137_2 1_555 1_555
Mo27_2 O106_2 1_555 1_555
Mo27_2 O109_2 1_555 1_555
Mo27_2 O110_2 1_555 1_555
Mo28_2 O106_2 1_555 1_555
Mo28_2 O108_2 1_555 1_555
Mo28_2 O110_2 1_555 1_555
Mo28_2 O136_2 1_555 1_555
Mo30_2 O109_2 1_555 1_555
Mo30_2 O114_2 1_555 1_555
Mo30_2 O139_2 1_555 1_555
Mo31_2 O128_2 1_555 1_555
Mo31_2 O132_2 1_555 1_555
Mo32_2 O125_2 1_555 1_555
Mo33_2 O124_2 1_555 1_555
Mo33_2 O129_2 1_555 1_555
Mo33_2 O130_2 1_555 1_555
Mo34_2 O122_2 1_555 1_555
Mo34_2 O128_2 1_555 1_555
Mo34_2 O132_2 1_555 1_555
Mo34_2 O134_2 1_555 1_555
Mo35_2 O119_2 1_555 1_555
Mo35_2 O123_2 1_555 1_555
Mo36_2 O120_2 1_555 1_555
Mo36_2 O126_2 1_555 1_555
Mo36_2 O129_2 1_555 1_555
Mo36_2 O130_2 1_555 1_555
C68_2 C69_2 1_555 1_555
C72_2 C76_2 1_555 1_555
C74_2 C75_2 1_555 1_555
C81_2 C82_2 1_555 1_555
Zn1_2 O31_2 1_555 1_555
Zn3_2 O19_2 1_555 1_555
Mo1_2 O14_2 1_555 1_555
Mo2_2 O11_2 1_555 1_555
Mo3_2 O12_2 1_555 1_555
Mo5_2 O17_2 1_555 1_555
Mo7_2 O13_2 1_555 1_555
Mo11_2 O12_2 1_555 1_555
O1_2 C1_2 1_555 1_555
O2_2 C42_2 1_555 1_555
O3_2 C20_2 1_555 1_555
O13_2 Mo2_2 1_555 1_555
O14_2 Mo2_2 1_555 1_555
O16_2 Mo1_2 1_555 1_555
O17_2 Mo3_2 1_555 1_555
O18_2 Mo3_2 1_555 1_555
O19_2 Mo1_2 1_555 1_555
O24_2 Mo7_2 1_555 1_555
O26_2 Mo5_2 1_555 1_555
O29_2 Mo5_2 1_555 1_555
O33_2 Zn3_2 1_555 1_555
O38_2 Mo3_2 1_555 1_555
O39_2 Zn1_2 1_555 1_555
O41_2 Zn1_2 1_555 1_555
O58_2 Zn3_2 1_555 1_555
O63_2 Mo1_2 1_555 1_555
O68_2 Mo11_2 1_555 1_555
C1_2 C2_2 1_555 1_555
C2_2 C3_2 1_555 1_555
C3_2 H1_2 1_555 1_555
C4_2 C3_2 1_555 1_555
H2_2 C4_2 1_555 1_555
C5_2 C4_2 1_555 1_555
H3_2 C5_2 1_555 1_555
C6_2 C5_2 1_555 1_555
C7_2 C2_2 1_555 1_555
H4_2 C7_2 1_555 1_555
C8_2 C6_2 1_555 1_555
C9_2 C8_2 1_555 1_555
H5_2 C9_2 1_555 1_555
C10_2 C9_2 1_555 1_555
C11_2 C10_2 1_555 1_555
H6_2 C11_2 1_555 1_555
C12_2 C11_2 1_555 1_555
C13_2 C8_2 1_555 1_555
H7_2 C13_2 1_555 1_555
C14_2 C12_2 1_555 1_555
C15_2 C14_2 1_555 1_555
H8_2 C15_2 1_555 1_555
C16_2 C15_2 1_555 1_555
C17_2 C16_2 1_555 1_555
H9_2 C17_2 1_555 1_555
C18_2 C17_2 1_555 1_555
H10_2 C18_2 1_555 1_555
C19_2 C14_2 1_555 1_555
H11_2 C19_2 1_555 1_555
C20_2 C16_2 1_555 1_555
O69_2 C20_2 1_555 1_555
C42_2 C10_2 1_555 1_555
O70_2 C42_2 1_555 1_555
O71_2 Zn3_2 1_555 1_555
O72_2 Mo1_2 1_555 1_555
Zn7_2 O105_2 1_555 1_555
Zn9_2 O93_2 1_555 1_555
Mo19_2 O88_2 1_555 1_555
Mo20_2 O85_2 1_555 1_555
Mo21_2 O86_2 1_555 1_555
Mo23_2 O91_2 1_555 1_555
Mo25_2 O87_2 1_555 1_555
Mo29_2 O86_2 1_555 1_555
O75_2 C43_2 1_555 1_555
O147 C62_2 1_555 1_555
O87_2 Mo20_2 1_555 1_555
O88_2 Mo20_2 1_555 1_555
O90_2 Mo19_2 1_555 1_555
O91_2 Mo21_2 1_555 1_555
O92_2 Mo21_2 1_555 1_555
O93_2 Mo19_2 1_555 1_555
O98_2 Mo25_2 1_555 1_555
O100_2 Mo23_2 1_555 1_555
O103_2 Mo23_2 1_555 1_555
O107_2 Zn9_2 1_555 1_555
O112_2 Mo21_2 1_555 1_555
O113_2 Zn7_2 1_555 1_555
O115_2 Zn7_2 1_555 1_555
O131_2 Zn9_2 1_555 1_555
O135_2 Mo19_2 1_555 1_555
O140_2 Mo29_2 1_555 1_555
C43_2 C44_2 1_555 1_555
C49_2 C44_2 1_555 1_555
H26_2 C49_2 1_555 1_555
H29_2 C55_2 1_555 1_555
C56_2 C54_2 1_555 1_555
C57_2 C56_2 1_555 1_555
H30_2 C57_2 1_555 1_555
C58_2 C57_2 1_555 1_555
C59_2 C58_2 1_555 1_555
H31_2 C59_2 1_555 1_555
C60_2 C59_2 1_555 1_555
H32_2 C60_2 1_555 1_555
C61_2 C56_2 1_555 1_555
H33_2 C61_2 1_555 1_555
C62_2 C58_2 1_555 1_555
O141_2 C62_2 1_555 1_555
O143_2 Zn9_2 1_555 1_555
O144_2 Mo19_2 1_555 1_555
Zn13_2 O3_2 1_555 1_555
Zn16_2 O2_2 1_555 1_555
O147_2 Zn7_2 1_555 1_555
O148_2 Zn1_2 1_555 1_555
Mo2_2 O39_2 1_555 1_555
Mo2_2 O58_2 1_555 1_555
Mo2_2 O63_2 1_555 1_555
Mo3_2 O39_2 1_555 1_555
Mo3_2 O58_2 1_555 1_555
Mo5_2 O33_2 1_555 1_555
Mo5_2 O38_2 1_555 1_555
Mo7_2 O41_2 1_555 1_555
Mo7_2 O63_2 1_555 1_555
Mo7_2 O72_2 1_555 1_555
Mo11_2 O26_2 1_555 1_555
Mo11_2 O31_2 1_555 1_555
Mo11_2 O38_2 1_555 1_555
P2_2 O38_2 1_555 1_555
P2_2 O63_2 1_555 1_555
C1_2 O71_2 1_555 1_555
C6_2 C7_2 1_555 1_555
C12_2 C13_2 1_555 1_555
C18_2 C19_2 1_555 1_555
Mo20_2 O113_2 1_555 1_555
Mo20_2 O131_2 1_555 1_555
Mo20_2 O135_2 1_555 1_555
Mo21_2 O113_2 1_555 1_555
Mo21_2 O131_2 1_555 1_555
Mo23_2 O107_2 1_555 1_555
Mo23_2 O112_2 1_555 1_555
Mo25_2 O115_2 1_555 1_555
Mo25_2 O135_2 1_555 1_555
Mo25_2 O144_2 1_555 1_555
Mo29_2 O100_2 1_555 1_555
Mo29_2 O105_2 1_555 1_555
Mo29_2 O112_2 1_555 1_555
P3_2 O112_2 1_555 1_555
P3_2 O135_2 1_555 1_555
C43_2 O143_2 1_555 1_555
C54_2 C55_2 1_555 1_555
C60_2 C61_2 1_555 1_555
O76_2 C84_2 1_555 1_555
C45_2 H23_2 1_555 1_555
C46_2 C45_2 1_555 1_555
H24_2 C46_2 1_555 1_555
C47_2 C46_2 1_555 1_555
H25_2 C47_2 1_555 1_555
C48_2 C47_2 1_555 1_555
C50_2 C48_2 1_555 1_555
C51_2 C50_2 1_555 1_555
H27_2 C51_2 1_555 1_555
C52_2 C51_2 1_555 1_555
C53_2 C52_2 1_555 1_555
H28_2 C53_2 1_555 1_555
C84_2 C52_2 1_555 1_555
O142_2 C84_2 1_555 1_555
Zn15_2 O76_2 1_555 1_555
Zn2_3 O8_3 1_555 1_555
Zn3_3 O19_3 1_555 1_555
Zn5_3 O7_3 1_555 1_555
Zn6_3 O52_3 1_555 1_555
Mo3_3 O12_3 1_555 1_555
Mo4_3 O21_3 1_555 1_555
Mo5_3 O17_3 1_555 1_555
Mo6_3 O19_3 1_555 1_555
Mo10_3 O23_3 1_555 1_555
Mo11_3 O12_3 1_555 1_555
Mo15_3 O51_3 1_555 1_555
Mo18_3 O44_3 1_555 1_555
O1_3 C1_3 1_555 1_555
O4_3 C21_3 1_555 1_555
O150_2 C21_3 1_555 1_555
O6_3 C34_3 1_555 1_555
O7_3 C34_3 1_555 1_555
O8_3 C41_3 1_555 1_555
O9_3 C41_3 1_555 1_555
O17_3 Mo3_3 1_555 1_555
O18_3 Mo3_3 1_555 1_555
O20_3 Mo6_3 1_555 1_555
O21_3 Zn2_3 1_555 1_555
O23_3 Mo4_3 1_555 1_555
O26_3 Mo5_3 1_555 1_555
O29_3 Mo5_3 1_555 1_555
O30_3 Mo10_3 1_555 1_555
O33_3 Zn3_3 1_555 1_555
O34_3 Mo6_3 1_555 1_555
O36_3 Zn2_3 1_555 1_555
O37_3 Mo4_3 1_555 1_555
O38_3 Mo3_3 1_555 1_555
O48_3 Mo17_3 1_555 1_555
O51_3 Mo32_3 1_555 1_555
O53_3 Mo17_3 1_555 1_555
O56_3 Zn5_3 1_555 1_555
O57_3 Zn6_3 1_555 1_555
O58_3 Zn3_3 1_555 1_555
O60_3 Mo15_3 1_555 1_555
O64_3 Mo4_3 1_555 1_555
O65_3 Zn2_3 1_555 1_555
O66_3 Mo4_3 1_555 1_555
O68_3 Mo11_3 1_555 1_555
C1_3 C2_3 1_555 1_555
C2_3 C3_3 1_555 1_555
C3_3 H1_3 1_555 1_555
C4_3 C3_3 1_555 1_555
H2_3 C4_3 1_555 1_555
C5_3 C4_3 1_555 1_555
H3_3 C5_3 1_555 1_555
C6_3 C5_3 1_555 1_555
C7_3 C2_3 1_555 1_555
H4_3 C7_3 1_555 1_555
C21_3 C22_3 1_555 1_555
C22_3 C23_3 1_555 1_555
C23_3 H12_3 1_555 1_555
C24_3 C23_3 1_555 1_555
C25_3 C24_3 1_555 1_555
H13_3 C25_3 1_555 1_555
C26_3 C25_3 1_555 1_555
H14_3 C26_3 1_555 1_555
C27_3 C22_3 1_555 1_555
H15_3 C27_3 1_555 1_555
C28_3 C24_3 1_555 1_555
C29_3 C28_3 1_555 1_555
H16_3 C29_3 1_555 1_555
C30_3 C29_3 1_555 1_555
C31_3 C30_3 1_555 1_555
H17_3 C31_3 1_555 1_555
C32_3 C31_3 1_555 1_555
C33_3 C28_3 1_555 1_555
H18_3 C33_3 1_555 1_555
C34_3 C30_3 1_555 1_555
C35_3 C32_3 1_555 1_555
C36_3 C35_3 1_555 1_555
H19_3 C36_3 1_555 1_555
C37_3 C36_3 1_555 1_555
C38_3 C37_3 1_555 1_555
H20_3 C38_3 1_555 1_555
C39_3 C38_3 1_555 1_555
H21_3 C39_3 1_555 1_555
C40_3 C35_3 1_555 1_555
H22_3 C40_3 1_555 1_555
C41_3 C37_3 1_555 1_555
O71_3 Zn3_3 1_555 1_555
O73_3 Mo15_3 1_555 1_555
Zn7_3 O105_3 1_555 1_555
Zn16 O102_3 1_555 1_555
Mo19_3 O88_3 1_555 1_555
Mo20_3 O85_3 1_555 1_555
Mo25_3 O87_3 1_555 1_555
Mo26_3 O96_3 1_555 1_555
Mo27_3 O84_3 1_555 1_555
Mo30_3 O89_3 1_555 1_555
Mo32_3 O52_3 1_555 1_555
Mo34_3 O73_3 1_555 1_555
O87_3 Mo20_3 1_555 1_555
O88_3 Mo20_3 1_555 1_555
O89_3 Mo27_3 1_555 1_555
O90_3 Mo19_3 1_555 1_555
O96_3 Mo27_3 1_555 1_555
O98_3 Mo25_3 1_555 1_555
O99_3 Mo26_3 1_555 1_555
O101_3 Mo30_3 1_555 1_555
O102_3 Mo19_3 1_555 1_555
O105_3 Mo26_3 1_555 1_555
O106_3 Zn16 1_555 1_555
O109_3 Mo26_3 1_555 1_555
O113_3 Zn7_3 1_555 1_555
O114_3 Mo26_3 1_555 1_555
O115_3 Zn7_3 1_555 1_555
O116_3 Mo34_3 1_555 1_555
O118_3 Mo31_3 1_555 1_555
O119_3 Mo31_3 1_555 1_555
O122_3 Mo15_3 1_555 1_555
O123_3 Zn5_3 1_555 1_555
O127_3 Mo32_3 1_555 1_555
O132_3 Zn5_3 1_555 1_555
O134_3 Mo32_3 1_555 1_555
O135_3 Mo19_3 1_555 1_555
O139_3 Zn16 1_555 1_555
O144_3 Mo19_3 1_555 1_555
O147_3 Zn7_3 1_555 1_555
O149_3 Zn6_3 1_555 1_555
Mo3_3 O58_3 1_555 1_555
Mo4_3 O33_3 1_555 1_555
Mo5_3 O21_3 1_555 1_555
Mo5_3 O33_3 1_555 1_555
Mo5_3 O38_3 1_555 1_555
Mo6_3 O37_3 1_555 1_555
Mo6_3 O64_3 1_555 1_555
Mo10_3 O34_3 1_555 1_555
Mo10_3 O36_3 1_555 1_555
Mo10_3 O64_3 1_555 1_555
Mo11_3 O26_3 1_555 1_555
Mo11_3 O38_3 1_555 1_555
Mo11_3 O65_3 1_555 1_555
Mo15_3 O56_3 1_555 1_555
Mo15_3 O57_3 1_555 1_555
Mo17_3 O62_3 1_555 1_555
Mo17_3 O123_3 1_555 1_555
Mo18_3 O47_3 1_555 1_555
Mo18_3 O53_3 1_555 1_555
Mo18_3 O56_3 1_555 1_555
Mo18_3 O57_3 1_555 1_555
Mo18_3 O62_3 1_555 1_555
P1_6 O62_3 1_555 1_555
P1_6 O73_3 1_555 1_555
P2_3 O38_3 1_555 1_555
P2_3 O64_3 1_555 1_555
C1_3 O71_3 1_555 1_555
C6_3 C7_3 1_555 1_555
C26_3 C27_3 1_555 1_555
C32_3 C33_3 1_555 1_555
C39_3 C40_3 1_555 1_555
O73_3 Mo32_3 1_555 1_555
Mo20_3 O113_3 1_555 1_555
Mo20_3 O135_3 1_555 1_555
Mo25_3 O115_3 1_555 1_555
Mo25_3 O135_3 1_555 1_555
Mo25_3 O139_3 1_555 1_555
Mo25_3 O144_3 1_555 1_555
Mo27_3 O106_3 1_555 1_555
Mo27_3 O109_3 1_555 1_555
Mo30_3 O109_3 1_555 1_555
Mo30_3 O114_3 1_555 1_555
Mo30_3 O115_3 1_555 1_555
Mo30_3 O139_3 1_555 1_555
Mo31_3 O128_3 1_555 1_555
Mo31_3 O132_3 1_555 1_555
Mo34_3 O122_3 1_555 1_555
Mo34_3 O128_3 1_555 1_555
Mo34_3 O132_3 1_555 1_555
Mo34_3 O134_3 1_555 1_555
O145 C42_3 1_555 1_555
O148_2 C20_3 1_555 1_555
C9_3 C8_3 1_555 1_555
H5_3 C9_3 1_555 1_555
C10_3 C9_3 1_555 1_555
C11_3 C10_3 1_555 1_555
H6_3 C11_3 1_555 1_555
C12_3 C11_3 1_555 1_555
C13_3 C8_3 1_555 1_555
H7_3 C13_3 1_555 1_555
C14_3 C12_3 1_555 1_555
C15_3 C14_3 1_555 1_555
H8_3 C15_3 1_555 1_555
C16_3 C15_3 1_555 1_555
C17_3 C16_3 1_555 1_555
H9_3 C17_3 1_555 1_555
C18_3 C17_3 1_555 1_555
H10_3 C18_3 1_555 1_555
C19_3 C14_3 1_555 1_555
H11_3 C19_3 1_555 1_555
C20_3 C16_3 1_555 1_555
O69_3 C20_3 1_555 1_555
C42_3 C10_3 1_555 1_555
O70_3 C42_3 1_555 1_555
C12_3 C13_3 1_555 1_555
C18_3 C19_3 1_555 1_555
Zn1_3 O31_3 1_555 1_555
Zn15 O28_3 1_555 1_555
Mo1_3 O14_3 1_555 1_555
Mo2_3 O11_3 1_555 1_555
Mo7_3 O13_3 1_555 1_555
Mo8_3 O22_3 1_555 1_555
Mo9_3 O10_3 1_555 1_555
Mo12_3 O15_3 1_555 1_555
Mo13_3 O45_3 1_555 1_555
Mo14_3 O43_3 1_555 1_555
Mo16_3 O42_3 1_555 1_555
P1_7 O43_3 1_555 1_555
O13_3 Mo2_3 1_555 1_555
O14_3 Mo2_3 1_555 1_555
O15_3 Mo9_3 1_555 1_555
O16_3 Mo1_3 1_555 1_555
O22_3 Mo9_3 1_555 1_555
O24_3 Mo7_3 1_555 1_555
O25_3 Mo8_3 1_555 1_555
O27_3 Mo12_3 1_555 1_555
O28_3 Mo1_3 1_555 1_555
O31_3 Mo8_3 1_555 1_555
O32_3 Zn15 1_555 1_555
O35_3 Mo8_3 1_555 1_555
O39_3 Zn1_3 1_555 1_555
O40_3 Mo8_3 1_555 1_555
O41_3 Zn1_3 1_555 1_555
O43_3 Mo16_3 1_555 1_555
O46_3 Mo13_3 1_555 1_555
O49_3 Mo16_3 1_555 1_555
O54_3 Mo14_3 1_555 1_555
O59_3 Mo13_3 1_555 1_555
O61_3 Mo14_3 1_555 1_555
O63_3 Mo1_3 1_555 1_555
O67_3 Zn15 1_555 1_555
O72_3 Mo1_3 1_555 1_555
O74_3 P1_7 1_555 1_555
Zn8_3 O82_3 1_555 1_555
Zn9_3 O93_3 1_555 1_555
Zn11_3 O50_3 1_555 1_555
Zn12_3 O125_3 1_555 1_555
Mo21_3 O86_3 1_555 1_555
Mo22_3 O95_3 1_555 1_555
Mo23_3 O91_3 1_555 1_555
Mo24_3 O93_3 1_555 1_555
Mo28_3 O97_3 1_555 1_555
Mo29_3 O86_3 1_555 1_555
Mo33_3 O43_3 1_555 1_555
Mo35_3 O50_3 1_555 1_555
Mo36_3 O74_3 1_555 1_555
O75_3 C43_3 1_555 1_555
O78_3 C63_3 1_555 1_555
O79_2 C63_3 1_555 1_555
O80_3 C76_3 1_555 1_555
O81_3 Zn11_3 1_555 1_555
O82_3 C83_3 1_555 1_555
O83_3 C83_3 1_555 1_555
O91_3 Mo21_3 1_555 1_555
O92_3 Mo21_3 1_555 1_555
O94_3 Mo24_3 1_555 1_555
O95_3 Zn8_3 1_555 1_555
O97_3 Mo22_3 1_555 1_555
O100_3 Mo23_3 1_555 1_555
O103_3 Mo23_3 1_555 1_555
O104_3 Mo28_3 1_555 1_555
O107_3 Zn9_3 1_555 1_555
O108_3 Mo24_3 1_555 1_555
O110_3 Zn8_3 1_555 1_555
O111_3 Mo22_3 1_555 1_555
O112_3 Mo21_3 1_555 1_555
O117_3 Mo36_3 1_555 1_555
O121_3 Mo35_3 1_555 1_555
O124_3 Mo14_3 1_555 1_555
O125_3 Mo14_3 1_555 1_555
O126_3 Mo35_3 1_555 1_555
O129_3 Zn11_3 1_555 1_555
O130_3 Zn12_3 1_555 1_555
O131_3 Zn9_3 1_555 1_555
O133_3 Mo33_3 1_555 1_555
O136_3 Mo22_3 1_555 1_555
O137_3 Zn8_3 1_555 1_555
O138_3 Mo22_3 1_555 1_555
O140_3 Mo29_3 1_555 1_555
C43_3 C44_3 1_555 1_555
C44_3 C45_3 1_555 1_555
C45_3 H23_3 1_555 1_555
C46_3 C45_3 1_555 1_555
H24_3 C46_3 1_555 1_555
C47_3 C46_3 1_555 1_555
H25_3 C47_3 1_555 1_555
C48_3 C47_3 1_555 1_555
C49_3 C44_3 1_555 1_555
H26_3 C49_3 1_555 1_555
C63_3 C64_3 1_555 1_555
C64_3 C65_3 1_555 1_555
C65_3 H34_3 1_555 1_555
C66_3 C65_3 1_555 1_555
C67_3 C66_3 1_555 1_555
H35_3 C67_3 1_555 1_555
C68_3 C67_3 1_555 1_555
H36_3 C68_3 1_555 1_555
C69_3 C64_3 1_555 1_555
H37_3 C69_3 1_555 1_555
C70_3 C66_3 1_555 1_555
C71_3 C70_3 1_555 1_555
H38_3 C71_3 1_555 1_555
C72_3 C71_3 1_555 1_555
C73_3 C72_3 1_555 1_555
H39_3 C73_3 1_555 1_555
C74_3 C73_3 1_555 1_555
C75_3 C70_3 1_555 1_555
H40_3 C75_3 1_555 1_555
C76_3 O81_3 1_555 1_555
C77_3 C74_3 1_555 1_555
C78_3 C77_3 1_555 1_555
H41_3 C78_3 1_555 1_555
C79_3 C78_3 1_555 1_555
C80_3 C79_3 1_555 1_555
H42_3 C80_3 1_555 1_555
C81_3 C80_3 1_555 1_555
H43_3 C81_3 1_555 1_555
C82_3 C77_3 1_555 1_555
H44_3 C82_3 1_555 1_555
C83_3 C79_3 1_555 1_555
O143_3 Zn9_3 1_555 1_555
Zn18_2 O79_2 1_555 1_555
O148_3 Zn1_3 1_555 1_555
O150_3 Zn12_3 1_555 1_555
Mo2_3 O39_3 1_555 1_555
Mo2_3 O63_3 1_555 1_555
Mo7_3 O41_3 1_555 1_555
Mo7_3 O63_3 1_555 1_555
Mo7_3 O67_3 1_555 1_555
Mo7_3 O72_3 1_555 1_555
Mo9_3 O32_3 1_555 1_555
Mo9_3 O35_3 1_555 1_555
Mo12_3 O35_3 1_555 1_555
Mo12_3 O40_3 1_555 1_555
Mo12_3 O41_3 1_555 1_555
Mo12_3 O67_3 1_555 1_555
Mo13_3 O55_3 1_555 1_555
Mo16_3 O55_3 1_555 1_555
Mo16_3 O59_3 1_555 1_555
Mo16_3 O61_3 1_555 1_555
O49_3 Mo33_3 1_555 1_555
O59_3 Zn11_3 1_555 1_555
O74_3 Mo35_3 1_555 1_555
Mo21_3 O131_3 1_555 1_555
Mo22_3 O107_3 1_555 1_555
Mo23_3 O95_3 1_555 1_555
Mo23_3 O107_3 1_555 1_555
Mo23_3 O112_3 1_555 1_555
Mo24_3 O111_3 1_555 1_555
Mo24_3 O136_3 1_555 1_555
Mo28_3 O108_3 1_555 1_555
Mo28_3 O110_3 1_555 1_555
Mo28_3 O136_3 1_555 1_555
Mo29_3 O100_3 1_555 1_555
Mo29_3 O112_3 1_555 1_555
Mo29_3 O137_3 1_555 1_555
Mo33_3 O124_3 1_555 1_555
Mo33_3 O129_3 1_555 1_555
Mo33_3 O130_3 1_555 1_555
Mo36_3 O120_3 1_555 1_555
Mo36_3 O126_3 1_555 1_555
Mo36_3 O129_3 1_555 1_555
Mo36_3 O130_3 1_555 1_555
P3_3 O112_3 1_555 1_555
P3_3 O136_3 1_555 1_555
C43_3 O143_3 1_555 1_555
C48_3 C49_3 1_555 1_555
C68_3 C69_3 1_555 1_555
C72_3 C76_3 1_555 1_555
C74_3 C75_3 1_555 1_555
C81_3 C82_3 1_555 1_555
O146 C84_3 1_555 1_555
O77_2 C62_3 1_555 1_555
C51_3 C50_3 1_555 1_555
H27_3 C51_3 1_555 1_555
C52_3 C51_3 1_555 1_555
C53_3 C52_3 1_555 1_555
H28_3 C53_3 1_555 1_555
C54_3 C53_3 1_555 1_555
C55_3 C50_3 1_555 1_555
H29_3 C55_3 1_555 1_555
C56_3 C54_3 1_555 1_555
C57_3 C56_3 1_555 1_555
H30_3 C57_3 1_555 1_555
C58_3 C57_3 1_555 1_555
C59_3 C58_3 1_555 1_555
H31_3 C59_3 1_555 1_555
C60_3 C59_3 1_555 1_555
H32_3 C60_3 1_555 1_555
C61_3 C56_3 1_555 1_555
H33_3 C61_3 1_555 1_555
C62_3 C58_3 1_555 1_555
O141_3 C62_3 1_555 1_555
C84_3 C52_3 1_555 1_555
O142_3 C84_3 1_555 1_555
Zn14_2 O77_2 1_555 1_555
C54_3 C55_3 1_555 1_555
C60_3 C61_3 1_555 1_555
O145_2 C42_4 1_555 1_555
C3_4 H1_4 1_555 1_555
C4_4 C3_4 1_555 1_555
H2_4 C4_4 1_555 1_555
C5_4 C4_4 1_555 1_555
H3_4 C5_4 1_555 1_555
C6_4 C5_4 1_555 1_555
C8_4 C6_4 1_555 1_555
C9_4 C8_4 1_555 1_555
H5_4 C9_4 1_555 1_555
C10_4 C9_4 1_555 1_555
C11_4 C10_4 1_555 1_555
H6_4 C11_4 1_555 1_555
C42_4 C10_4 1_555 1_555
O70_4 C42_4 1_555 1_555
Zn6_4 O52_4 1_555 1_555
Mo14_4 O43_4 1_555 1_555
Mo15_4 O51_4 1_555 1_555
Mo16_4 O42_4 1_555 1_555
O43_4 Mo16_4 1_555 1_555
O49_4 Mo16_4 1_555 1_555
O51_4 Mo32_4 1_555 1_555
O52_4 Mo14_4 1_555 1_555
O54_4 Mo14_4 1_555 1_555
O55_4 Zn6_4 1_555 1_555
O57_4 Zn6_4 1_555 1_555
O60_4 Mo15_4 1_555 1_555
O61_4 Mo14_4 1_555 1_555
O73_4 Mo15_4 1_555 1_555
Zn17 O125_4 1_555 1_555
Mo32_4 O52_4 1_555 1_555
Mo33_4 O43_4 1_555 1_555
Mo34_4 O73_4 1_555 1_555
O116_4 Mo34_4 1_555 1_555
O122_4 Mo15_4 1_555 1_555
O124_4 Mo14_4 1_555 1_555
O125_4 Mo14_4 1_555 1_555
O127_4 Mo32_4 1_555 1_555
O128_4 Zn17 1_555 1_555
O130_4 Zn17 1_555 1_555
O133_4 Mo33_4 1_555 1_555
O134_4 Mo32_4 1_555 1_555
O149_4 Zn6_4 1_555 1_555
Mo15_4 O57_4 1_555 1_555
Mo16_4 O55_4 1_555 1_555
Mo16_4 O61_4 1_555 1_555
O49_4 Mo33_4 1_555 1_555
O73_4 Mo32_4 1_555 1_555
Mo32_4 O125_4 1_555 1_555
Mo33_4 O124_4 1_555 1_555
Mo33_4 O130_4 1_555 1_555
Mo34_4 O122_4 1_555 1_555
Mo34_4 O128_4 1_555 1_555
Mo34_4 O134_4 1_555 1_555
Zn13 O31_4 1_555 1_555
Zn2_4 O8_4 1_555 1_555
Zn3_4 O19_4 1_555 1_555
Zn15_2 O28_4 1_555 1_555
Zn5_4 O7_4 1_555 1_555
Mo1_4 O14_4 1_555 1_555
Mo2_4 O11_4 1_555 1_555
Mo3_4 O12_4 1_555 1_555
Mo4_4 O21_4 1_555 1_555
Mo5_4 O17_4 1_555 1_555
Mo6_4 O19_4 1_555 1_555
Mo7_4 O13_4 1_555 1_555
Mo8_4 O22_4 1_555 1_555
Mo9_4 O10_4 1_555 1_555
Mo10_4 O23_4 1_555 1_555
Mo11_4 O12_4 1_555 1_555
Mo12_4 O15_4 1_555 1_555
Mo13_4 O45_4 1_555 1_555
Mo17_4 O46_4 1_555 1_555
Mo18_4 O44_4 1_555 1_555
P2_4 O35_4 1_555 1_555
O1_4 C1_4 1_555 1_555
O3_3 C20_4 1_555 1_555
O4_4 C21_4 1_555 1_555
O5_3 C21_4 1_555 1_555
O6_4 C34_4 1_555 1_555
O7_4 C34_4 1_555 1_555
O8_4 C41_4 1_555 1_555
O9_4 C41_4 1_555 1_555
O13_4 Mo2_4 1_555 1_555
O14_4 Mo2_4 1_555 1_555
O15_4 Mo9_4 1_555 1_555
O16_4 Mo1_4 1_555 1_555
O17_4 Mo3_4 1_555 1_555
O18_4 Mo3_4 1_555 1_555
O19_4 Mo1_4 1_555 1_555
O20_4 Mo6_4 1_555 1_555
O21_4 Zn2_4 1_555 1_555
O22_4 Mo9_4 1_555 1_555
O23_4 Mo4_4 1_555 1_555
O24_4 Mo7_4 1_555 1_555
O25_4 Mo8_4 1_555 1_555
O26_4 Mo5_4 1_555 1_555
O27_4 Mo12_4 1_555 1_555
O28_4 Mo1_4 1_555 1_555
O29_4 Mo5_4 1_555 1_555
O30_4 Mo10_4 1_555 1_555
O31_4 Mo8_4 1_555 1_555
O32_4 Zn15_2 1_555 1_555
O33_4 Zn3_4 1_555 1_555
O34_4 Mo6_4 1_555 1_555
O35_4 Mo8_4 1_555 1_555
O36_4 Zn2_4 1_555 1_555
O37_4 Mo4_4 1_555 1_555
O38_4 Mo3_4 1_555 1_555
O39_4 Zn13 1_555 1_555
O40_4 Mo8_4 1_555 1_555
O41_4 Zn13 1_555 1_555
O46_4 Mo13_4 1_555 1_555
O47_4 Mo13_4 1_555 1_555
O48_4 Mo17_4 1_555 1_555
O50_4 Mo17_4 1_555 1_555
O53_4 Mo17_4 1_555 1_555
O56_4 Zn5_4 1_555 1_555
O58_4 Zn3_4 1_555 1_555
O59_4 Mo13_4 1_555 1_555
O62_4 Mo13_4 1_555 1_555
O63_4 Mo1_4 1_555 1_555
O64_4 Mo4_4 1_555 1_555
O65_4 Zn2_4 1_555 1_555
O66_4 Mo4_4 1_555 1_555
O67_4 Zn15_2 1_555 1_555
O68_4 Mo11_4 1_555 1_555
C1_4 C2_4 1_555 1_555
C7_4 C2_4 1_555 1_555
H4_4 C7_4 1_555 1_555
H7_4 C13_4 1_555 1_555
C14_4 C12_4 1_555 1_555
C15_4 C14_4 1_555 1_555
H8_4 C15_4 1_555 1_555
C16_4 C15_4 1_555 1_555
C17_4 C16_4 1_555 1_555
C19_4 C14_4 1_555 1_555
H11_4 C19_4 1_555 1_555
C20_4 C16_4 1_555 1_555
C21_4 C22_4 1_555 1_555
C22_4 C23_4 1_555 1_555
C23_4 H12_4 1_555 1_555
C24_4 C23_4 1_555 1_555
C25_4 C24_4 1_555 1_555
H13_4 C25_4 1_555 1_555
C26_4 C25_4 1_555 1_555
C27_4 C22_4 1_555 1_555
H15_4 C27_4 1_555 1_555
C28_4 C24_4 1_555 1_555
C29_4 C28_4 1_555 1_555
H16_4 C29_4 1_555 1_555
C30_4 C29_4 1_555 1_555
C31_4 C30_4 1_555 1_555
H17_4 C31_4 1_555 1_555
C32_4 C31_4 1_555 1_555
C33_4 C28_4 1_555 1_555
H18_4 C33_4 1_555 1_555
C34_4 C30_4 1_555 1_555
C35_4 C32_4 1_555 1_555
C36_4 C35_4 1_555 1_555
H19_4 C36_4 1_555 1_555
C37_4 C36_4 1_555 1_555
C38_4 C37_4 1_555 1_555
H20_4 C38_4 1_555 1_555
C39_4 C38_4 1_555 1_555
H21_4 C39_4 1_555 1_555
C40_4 C35_4 1_555 1_555
H22_4 C40_4 1_555 1_555
C41_4 C37_4 1_555 1_555
O69_4 C20_4 1_555 1_555
O71_4 Zn3_4 1_555 1_555
O72_4 Mo1_4 1_555 1_555
O74_4 P1_8 1_555 1_555
Zn7_4 O105_4 1_555 1_555
Zn8_4 O82_4 1_555 1_555
Zn9_4 O93_4 1_555 1_555
Zn16_2 O102_4 1_555 1_555
Zn11_4 O50_4 1_555 1_555
Mo19_4 O88_4 1_555 1_555
Mo20_4 O85_4 1_555 1_555
Mo21_4 O86_4 1_555 1_555
Mo22_4 O95_4 1_555 1_555
Mo23_4 O91_4 1_555 1_555
Mo24_4 O93_4 1_555 1_555
Mo25_4 O87_4 1_555 1_555
Mo26_4 O96_4 1_555 1_555
Mo27_4 O84_4 1_555 1_555
Mo28_4 O97_4 1_555 1_555
Mo29_4 O86_4 1_555 1_555
Mo30_4 O89_4 1_555 1_555
Mo31_4 O74_4 1_555 1_555
Mo35_4 O50_4 1_555 1_555
Mo36_4 O74_4 1_555 1_555
P3_4 O109_4 1_555 1_555
O75_4 C43_4 1_555 1_555
O146_2 C84_4 1_555 1_555
O147_3 C62_4 1_555 1_555
O78_4 C63_4 1_555 1_555
O149_3 C63_4 1_555 1_555
O80_4 C76_4 1_555 1_555
O81_4 Zn11_4 1_555 1_555
O82_4 C83_4 1_555 1_555
O83_4 C83_4 1_555 1_555
O87_4 Mo20_4 1_555 1_555
O88_4 Mo20_4 1_555 1_555
O89_4 Mo27_4 1_555 1_555
O90_4 Mo19_4 1_555 1_555
O91_4 Mo21_4 1_555 1_555
O92_4 Mo21_4 1_555 1_555
O93_4 Mo19_4 1_555 1_555
O94_4 Mo24_4 1_555 1_555
O95_4 Zn8_4 1_555 1_555
O96_4 Mo27_4 1_555 1_555
O97_4 Mo22_4 1_555 1_555
O98_4 Mo25_4 1_555 1_555
O99_4 Mo26_4 1_555 1_555
O100_4 Mo23_4 1_555 1_555
O101_4 Mo30_4 1_555 1_555
O102_4 Mo19_4 1_555 1_555
O103_4 Mo23_4 1_555 1_555
O104_4 Mo28_4 1_555 1_555
O105_4 Mo26_4 1_555 1_555
O106_4 Zn16_2 1_555 1_555
O107_4 Zn9_4 1_555 1_555
O108_4 Mo24_4 1_555 1_555
O109_4 Mo26_4 1_555 1_555
O110_4 Zn8_4 1_555 1_555
O111_4 Mo22_4 1_555 1_555
O112_4 Mo21_4 1_555 1_555
O113_4 Zn7_4 1_555 1_555
O114_4 Mo26_4 1_555 1_555
O115_4 Zn7_4 1_555 1_555
O117_4 Mo36_4 1_555 1_555
O118_4 Mo31_4 1_555 1_555
O119_4 Mo31_4 1_555 1_555
O120_4 Mo31_4 1_555 1_555
O121_4 Mo35_4 1_555 1_555
O123_4 Zn5_4 1_555 1_555
O126_4 Mo35_4 1_555 1_555
O129_4 Zn11_4 1_555 1_555
O131_4 Zn9_4 1_555 1_555
O132_4 Zn5_4 1_555 1_555
O135_4 Mo19_4 1_555 1_555
O136_4 Mo22_4 1_555 1_555
O137_4 Zn8_4 1_555 1_555
O138_4 Mo22_4 1_555 1_555
O139_4 Zn16_2 1_555 1_555
O140_4 Mo29_4 1_555 1_555
C43_4 C44_4 1_555 1_555
C44_4 C45_4 1_555 1_555
C45_4 H23_4 1_555 1_555
C46_4 C45_4 1_555 1_555
H24_4 C46_4 1_555 1_555
C47_4 C46_4 1_555 1_555
H25_4 C47_4 1_555 1_555
C48_4 C47_4 1_555 1_555
C49_4 C44_4 1_555 1_555
H26_4 C49_4 1_555 1_555
C50_4 C48_4 1_555 1_555
C51_4 C50_4 1_555 1_555
H27_4 C51_4 1_555 1_555
C52_4 C51_4 1_555 1_555
C53_4 C52_4 1_555 1_555
H28_4 C53_4 1_555 1_555
C54_4 C53_4 1_555 1_555
C55_4 C50_4 1_555 1_555
H29_4 C55_4 1_555 1_555
C56_4 C54_4 1_555 1_555
C57_4 C56_4 1_555 1_555
H30_4 C57_4 1_555 1_555
C58_4 C57_4 1_555 1_555
C59_4 C58_4 1_555 1_555
C61_4 C56_4 1_555 1_555
H33_4 C61_4 1_555 1_555
C62_4 C58_4 1_555 1_555
C63_4 C64_4 1_555 1_555
C64_4 C65_4 1_555 1_555
C65_4 H34_4 1_555 1_555
C66_4 C65_4 1_555 1_555
C67_4 C66_4 1_555 1_555
H35_4 C67_4 1_555 1_555
C68_4 C67_4 1_555 1_555
C69_4 C64_4 1_555 1_555
H37_4 C69_4 1_555 1_555
C70_4 C66_4 1_555 1_555
C71_4 C70_4 1_555 1_555
H38_4 C71_4 1_555 1_555
C72_4 C71_4 1_555 1_555
C73_4 C72_4 1_555 1_555
H39_4 C73_4 1_555 1_555
C74_4 C73_4 1_555 1_555
C75_4 C70_4 1_555 1_555
H40_4 C75_4 1_555 1_555
C76_4 O81_4 1_555 1_555
C77_4 C74_4 1_555 1_555
C78_4 C77_4 1_555 1_555
H41_4 C78_4 1_555 1_555
C79_4 C78_4 1_555 1_555
C80_4 C79_4 1_555 1_555
H42_4 C80_4 1_555 1_555
C81_4 C80_4 1_555 1_555
H43_4 C81_4 1_555 1_555
C82_4 C77_4 1_555 1_555
H44_4 C82_4 1_555 1_555
C83_4 C79_4 1_555 1_555
O141_4 C62_4 1_555 1_555
C84_4 C52_4 1_555 1_555
O142_4 C84_4 1_555 1_555
O143_4 Zn9_4 1_555 1_555
O144_4 Mo19_4 1_555 1_555
Zn13_3 O3_3 1_555 1_555
Zn17_3 O5_3 1_555 1_555
O147_4 Zn7_4 1_555 1_555
Mo2_4 O39_4 1_555 1_555
Mo2_4 O58_4 1_555 1_555
Mo2_4 O63_4 1_555 1_555
Mo3_4 O39_4 1_555 1_555
Mo3_4 O58_4 1_555 1_555
Mo4_4 O33_4 1_555 1_555
Mo5_4 O21_4 1_555 1_555
Mo5_4 O33_4 1_555 1_555
Mo5_4 O38_4 1_555 1_555
Mo6_4 O28_4 1_555 1_555
Mo6_4 O37_4 1_555 1_555
Mo6_4 O64_4 1_555 1_555
Mo7_4 O41_4 1_555 1_555
Mo7_4 O63_4 1_555 1_555
Mo7_4 O67_4 1_555 1_555
Mo7_4 O72_4 1_555 1_555
Mo8_4 O65_4 1_555 1_555
Mo9_4 O32_4 1_555 1_555
Mo9_4 O35_4 1_555 1_555
Mo9_4 O36_4 1_555 1_555
Mo10_4 O32_4 1_555 1_555
Mo10_4 O34_4 1_555 1_555
Mo10_4 O36_4 1_555 1_555
Mo10_4 O64_4 1_555 1_555
Mo11_4 O26_4 1_555 1_555
Mo11_4 O31_4 1_555 1_555
Mo11_4 O38_4 1_555 1_555
Mo11_4 O65_4 1_555 1_555
Mo12_4 O35_4 1_555 1_555
Mo12_4 O40_4 1_555 1_555
Mo12_4 O41_4 1_555 1_555
Mo12_4 O67_4 1_555 1_555
Mo17_4 O62_4 1_555 1_555
Mo17_4 O123_4 1_555 1_555
Mo18_4 O47_4 1_555 1_555
Mo18_4 O53_4 1_555 1_555
Mo18_4 O56_4 1_555 1_555
Mo18_4 O62_4 1_555 1_555
P1_8 O62_4 1_555 1_555
P2_4 O38_4 1_555 1_555
P2_4 O63_4 1_555 1_555
P2_4 O64_4 1_555 1_555
O59_4 Zn11_4 1_555 1_555
C1_4 O71_4 1_555 1_555
C12_4 C13_4 1_555 1_555
C26_4 C27_4 1_555 1_555
C32_4 C33_4 1_555 1_555
C39_4 C40_4 1_555 1_555
O74_4 Mo35_4 1_555 1_555
Mo20_4 O113_4 1_555 1_555
Mo20_4 O131_4 1_555 1_555
Mo20_4 O135_4 1_555 1_555
Mo21_4 O113_4 1_555 1_555
Mo21_4 O131_4 1_555 1_555
Mo22_4 O107_4 1_555 1_555
Mo23_4 O95_4 1_555 1_555
Mo23_4 O107_4 1_555 1_555
Mo23_4 O112_4 1_555 1_555
Mo24_4 O102_4 1_555 1_555
Mo24_4 O111_4 1_555 1_555
Mo24_4 O136_4 1_555 1_555
Mo25_4 O115_4 1_555 1_555
Mo25_4 O135_4 1_555 1_555
Mo25_4 O139_4 1_555 1_555
Mo25_4 O144_4 1_555 1_555
Mo26_4 O137_4 1_555 1_555
Mo27_4 O106_4 1_555 1_555
Mo27_4 O109_4 1_555 1_555
Mo27_4 O110_4 1_555 1_555
Mo28_4 O106_4 1_555 1_555
Mo28_4 O108_4 1_555 1_555
Mo28_4 O110_4 1_555 1_555
Mo28_4 O136_4 1_555 1_555
Mo29_4 O100_4 1_555 1_555
Mo29_4 O105_4 1_555 1_555
Mo29_4 O112_4 1_555 1_555
Mo29_4 O137_4 1_555 1_555
Mo30_4 O109_4 1_555 1_555
Mo30_4 O114_4 1_555 1_555
Mo30_4 O115_4 1_555 1_555
Mo30_4 O139_4 1_555 1_555
Mo31_4 O132_4 1_555 1_555
Mo35_4 O119_4 1_555 1_555
Mo35_4 O123_4 1_555 1_555
Mo36_4 O120_4 1_555 1_555
Mo36_4 O126_4 1_555 1_555
Mo36_4 O129_4 1_555 1_555
P3_4 O112_4 1_555 1_555
P3_4 O135_4 1_555 1_555
P3_4 O136_4 1_555 1_555
C43_4 O143_4 1_555 1_555
C48_4 C49_4 1_555 1_555
C54_4 C55_4 1_555 1_555
C68_4 C69_4 1_555 1_555
C72_4 C76_4 1_555 1_555
C74_4 C75_4 1_555 1_555
C81_4 C82_4 1_555 1_555
Zn6_5 O52_5 1_555 1_555
Mo13_5 O45_5 1_555 1_555
Mo14_5 O43_5 1_555 1_555
Mo15_5 O51_5 1_555 1_555
Mo16_5 O42_5 1_555 1_555
Mo17_5 O46_5 1_555 1_555
Mo18_5 O44_5 1_555 1_555
P1_9 O43_5 1_555 1_555
O43_5 Mo16_5 1_555 1_555
O46_5 Mo13_5 1_555 1_555
O47_5 Mo13_5 1_555 1_555
O48_5 Mo17_5 1_555 1_555
O49_5 Mo16_5 1_555 1_555
O50_5 Mo17_5 1_555 1_555
O52_5 Mo14_5 1_555 1_555
O53_5 Mo17_5 1_555 1_555
O54_5 Mo14_5 1_555 1_555
O55_5 Zn6_5 1_555 1_555
O57_5 Zn6_5 1_555 1_555
O59_5 Mo13_5 1_555 1_555
O60_5 Mo15_5 1_555 1_555
O61_5 Mo14_5 1_555 1_555
O62_5 Mo13_5 1_555 1_555
Zn7_5 O105_5 1_555 1_555
Zn8_5 O82_5 1_555 1_555
Zn9_5 O93_5 1_555 1_555
Zn10_3 O102_5 1_555 1_555
Zn11_5 O50_5 1_555 1_555
Mo19_5 O88_5 1_555 1_555
Mo20_5 O85_5 1_555 1_555
Mo21_5 O86_5 1_555 1_555
Mo22_5 O95_5 1_555 1_555
Mo23_5 O91_5 1_555 1_555
Mo24_5 O93_5 1_555 1_555
Mo25_5 O87_5 1_555 1_555
Mo26_5 O96_5 1_555 1_555
Mo27_5 O84_5 1_555 1_555
Mo28_5 O97_5 1_555 1_555
Mo29_5 O86_5 1_555 1_555
Mo30_5 O89_5 1_555 1_555
P3_5 O109_5 1_555 1_555
O75_5 C43_5 1_555 1_555
O78_5 C63_5 1_555 1_555
O149_2 C63_5 1_555 1_555
O80_5 C76_5 1_555 1_555
O81_5 Zn11_5 1_555 1_555
O82_5 C83_5 1_555 1_555
O83_5 C83_5 1_555 1_555
O87_5 Mo20_5 1_555 1_555
O88_5 Mo20_5 1_555 1_555
O89_5 Mo27_5 1_555 1_555
O90_5 Mo19_5 1_555 1_555
O91_5 Mo21_5 1_555 1_555
O92_5 Mo21_5 1_555 1_555
O93_5 Mo19_5 1_555 1_555
O94_5 Mo24_5 1_555 1_555
O95_5 Zn8_5 1_555 1_555
O96_5 Mo27_5 1_555 1_555
O97_5 Mo22_5 1_555 1_555
O98_5 Mo25_5 1_555 1_555
O99_5 Mo26_5 1_555 1_555
O100_5 Mo23_5 1_555 1_555
O101_5 Mo30_5 1_555 1_555
O102_5 Mo19_5 1_555 1_555
O103_5 Mo23_5 1_555 1_555
O104_5 Mo28_5 1_555 1_555
O105_5 Mo26_5 1_555 1_555
O106_5 Zn10_3 1_555 1_555
O107_5 Zn9_5 1_555 1_555
O108_5 Mo24_5 1_555 1_555
O109_5 Mo26_5 1_555 1_555
O110_5 Zn8_5 1_555 1_555
O111_5 Mo22_5 1_555 1_555
O112_5 Mo21_5 1_555 1_555
O113_5 Zn7_5 1_555 1_555
O114_5 Mo26_5 1_555 1_555
O115_5 Zn7_5 1_555 1_555
O131_5 Zn9_5 1_555 1_555
O135_5 Mo19_5 1_555 1_555
O136_5 Mo22_5 1_555 1_555
O137_5 Zn8_5 1_555 1_555
O138_5 Mo22_5 1_555 1_555
O139_5 Zn10_3 1_555 1_555
O140_5 Mo29_5 1_555 1_555
C43_5 C44_5 1_555 1_555
C44_5 C45_5 1_555 1_555
C45_5 H23_5 1_555 1_555
C46_5 C45_5 1_555 1_555
H24_5 C46_5 1_555 1_555
C47_5 C46_5 1_555 1_555
H25_5 C47_5 1_555 1_555
C48_5 C47_5 1_555 1_555
C49_5 C44_5 1_555 1_555
H26_5 C49_5 1_555 1_555
C63_5 C64_5 1_555 1_555
C64_5 C65_5 1_555 1_555
C65_5 H34_5 1_555 1_555
C66_5 C65_5 1_555 1_555
C67_5 C66_5 1_555 1_555
H35_5 C67_5 1_555 1_555
C68_5 C67_5 1_555 1_555
H36_5 C68_5 1_555 1_555
C69_5 C64_5 1_555 1_555
H37_5 C69_5 1_555 1_555
C70_5 C66_5 1_555 1_555
C71_5 C70_5 1_555 1_555
H38_5 C71_5 1_555 1_555
C72_5 C71_5 1_555 1_555
C73_5 C72_5 1_555 1_555
H39_5 C73_5 1_555 1_555
C74_5 C73_5 1_555 1_555
C75_5 C70_5 1_555 1_555
H40_5 C75_5 1_555 1_555
C76_5 O81_5 1_555 1_555
C77_5 C74_5 1_555 1_555
C78_5 C77_5 1_555 1_555
H41_5 C78_5 1_555 1_555
C79_5 C78_5 1_555 1_555
C80_5 C79_5 1_555 1_555
H42_5 C80_5 1_555 1_555
C81_5 C80_5 1_555 1_555
H43_5 C81_5 1_555 1_555
C82_5 C77_5 1_555 1_555
H44_5 C82_5 1_555 1_555
C83_5 C79_5 1_555 1_555
O143_5 Zn9_5 1_555 1_555
O144_5 Mo19_5 1_555 1_555
O145_3 Zn10_3 1_555 1_555
O147_5 Zn7_5 1_555 1_555
O149_5 Zn6_5 1_555 1_555
Mo13_5 O55_5 1_555 1_555
Mo15_5 O56_5 1_555 1_555
Mo15_5 O57_5 1_555 1_555
Mo16_5 O55_5 1_555 1_555
Mo16_5 O59_5 1_555 1_555
Mo16_5 O61_5 1_555 1_555
Mo17_5 O62_5 1_555 1_555
Mo18_5 O47_5 1_555 1_555
Mo18_5 O53_5 1_555 1_555
Mo18_5 O56_5 1_555 1_555
Mo18_5 O57_5 1_555 1_555
Mo18_5 O62_5 1_555 1_555
P1_9 O62_5 1_555 1_555
O59_5 Zn11_5 1_555 1_555
Mo20_5 O113_5 1_555 1_555
Mo20_5 O131_5 1_555 1_555
Mo20_5 O135_5 1_555 1_555
Mo21_5 O113_5 1_555 1_555
Mo21_5 O131_5 1_555 1_555
Mo22_5 O107_5 1_555 1_555
Mo23_5 O95_5 1_555 1_555
Mo23_5 O107_5 1_555 1_555
Mo23_5 O112_5 1_555 1_555
Mo24_5 O102_5 1_555 1_555
Mo24_5 O111_5 1_555 1_555
Mo24_5 O136_5 1_555 1_555
Mo25_5 O115_5 1_555 1_555
Mo25_5 O135_5 1_555 1_555
Mo25_5 O139_5 1_555 1_555
Mo25_5 O144_5 1_555 1_555
Mo26_5 O137_5 1_555 1_555
Mo27_5 O106_5 1_555 1_555
Mo27_5 O109_5 1_555 1_555
Mo27_5 O110_5 1_555 1_555
Mo28_5 O106_5 1_555 1_555
Mo28_5 O108_5 1_555 1_555
Mo28_5 O110_5 1_555 1_555
Mo28_5 O136_5 1_555 1_555
Mo29_5 O100_5 1_555 1_555
Mo29_5 O105_5 1_555 1_555
Mo29_5 O112_5 1_555 1_555
Mo29_5 O137_5 1_555 1_555
Mo30_5 O109_5 1_555 1_555
Mo30_5 O114_5 1_555 1_555
Mo30_5 O115_5 1_555 1_555
Mo30_5 O139_5 1_555 1_555
P3_5 O112_5 1_555 1_555
P3_5 O135_5 1_555 1_555
P3_5 O136_5 1_555 1_555
C43_5 O143_5 1_555 1_555
C48_5 C49_5 1_555 1_555
C68_5 C69_5 1_555 1_555
C72_5 C76_5 1_555 1_555
C74_5 C75_5 1_555 1_555
C81_5 C82_5 1_555 1_555
O76_3 C84_5 1_555 1_555
O147_2 C62_5 1_555 1_555
C51_5 C50_5 1_555 1_555
H27_5 C51_5 1_555 1_555
C52_5 C51_5 1_555 1_555
C53_5 C52_5 1_555 1_555
H28_5 C53_5 1_555 1_555
C54_5 C53_5 1_555 1_555
C55_5 C50_5 1_555 1_555
H29_5 C55_5 1_555 1_555
C56_5 C54_5 1_555 1_555
C57_5 C56_5 1_555 1_555
H30_5 C57_5 1_555 1_555
C58_5 C57_5 1_555 1_555
C59_5 C58_5 1_555 1_555
H31_4 C59_5 1_555 1_555
C60_4 C59_5 1_555 1_555
H32_4 C60_4 1_555 1_555
C61_5 C56_5 1_555 1_555
H33_5 C61_5 1_555 1_555
C62_5 C58_5 1_555 1_555
O141_5 C62_5 1_555 1_555
C84_5 C52_5 1_555 1_555
O142_5 C84_5 1_555 1_555
Zn15_3 O76_3 1_555 1_555
C54_5 C55_5 1_555 1_555
C60_4 C61_5 1_555 1_555
Zn13_3 O31_5 1_555 1_555
Zn2_5 O8_5 1_555 1_555
Zn3_5 O19_5 1_555 1_555
Zn4_3 O28_5 1_555 1_555
Zn5_5 O7_5 1_555 1_555
Mo1_5 O14_5 1_555 1_555
Mo2_5 O11_5 1_555 1_555
Mo3_5 O12_5 1_555 1_555
Mo4_5 O21_5 1_555 1_555
Mo5_5 O17_5 1_555 1_555
Mo6_5 O19_5 1_555 1_555
Mo7_5 O13_5 1_555 1_555
Mo8_5 O22_5 1_555 1_555
Mo9_5 O10_5 1_555 1_555
Mo10_5 O23_5 1_555 1_555
Mo11_5 O12_5 1_555 1_555
Mo12_5 O15_5 1_555 1_555
P2_5 O35_5 1_555 1_555
O1_5 C1_5 1_555 1_555
O4_5 C21_5 1_555 1_555
O5_4 C21_5 1_555 1_555
O6_5 C34_5 1_555 1_555
O7_5 C34_5 1_555 1_555
O8_5 C41_5 1_555 1_555
O9_5 C41_5 1_555 1_555
O13_5 Mo2_5 1_555 1_555
O14_5 Mo2_5 1_555 1_555
O15_5 Mo9_5 1_555 1_555
O16_5 Mo1_5 1_555 1_555
O17_5 Mo3_5 1_555 1_555
O18_5 Mo3_5 1_555 1_555
O19_5 Mo1_5 1_555 1_555
O20_5 Mo6_5 1_555 1_555
O21_5 Zn2_5 1_555 1_555
O22_5 Mo9_5 1_555 1_555
O23_5 Mo4_5 1_555 1_555
O24_5 Mo7_5 1_555 1_555
O25_5 Mo8_5 1_555 1_555
O26_5 Mo5_5 1_555 1_555
O27_5 Mo12_5 1_555 1_555
O28_5 Mo1_5 1_555 1_555
O29_5 Mo5_5 1_555 1_555
O30_5 Mo10_5 1_555 1_555
O31_5 Mo8_5 1_555 1_555
O32_5 Zn4_3 1_555 1_555
O33_5 Zn3_5 1_555 1_555
O34_5 Mo6_5 1_555 1_555
O35_5 Mo8_5 1_555 1_555
O36_5 Zn2_5 1_555 1_555
O37_5 Mo4_5 1_555 1_555
O38_5 Mo3_5 1_555 1_555
O39_5 Zn13_3 1_555 1_555
O40_5 Mo8_5 1_555 1_555
O41_5 Zn13_3 1_555 1_555
O58_5 Zn3_5 1_555 1_555
O63_5 Mo1_5 1_555 1_555
O64_5 Mo4_5 1_555 1_555
O65_5 Zn2_5 1_555 1_555
O66_5 Mo4_5 1_555 1_555
O67_5 Zn4_3 1_555 1_555
O68_5 Mo11_5 1_555 1_555
C1_5 C2_5 1_555 1_555
C2_5 C3_5 1_555 1_555
C3_5 H1_5 1_555 1_555
C4_5 C3_5 1_555 1_555
H2_5 C4_5 1_555 1_555
C5_5 C4_5 1_555 1_555
H3_5 C5_5 1_555 1_555
C6_5 C5_5 1_555 1_555
C7_5 C2_5 1_555 1_555
H4_5 C7_5 1_555 1_555
C21_5 C22_5 1_555 1_555
C22_5 C23_5 1_555 1_555
C23_5 H12_5 1_555 1_555
C24_5 C23_5 1_555 1_555
C25_5 C24_5 1_555 1_555
H13_5 C25_5 1_555 1_555
C26_5 C25_5 1_555 1_555
H14_5 C26_5 1_555 1_555
C27_5 C22_5 1_555 1_555
H15_5 C27_5 1_555 1_555
C28_5 C24_5 1_555 1_555
C29_5 C28_5 1_555 1_555
H16_5 C29_5 1_555 1_555
C30_5 C29_5 1_555 1_555
C31_5 C30_5 1_555 1_555
H17_5 C31_5 1_555 1_555
C32_5 C31_5 1_555 1_555
C33_5 C28_5 1_555 1_555
H18_5 C33_5 1_555 1_555
C34_5 C30_5 1_555 1_555
C35_5 C32_5 1_555 1_555
C36_5 C35_5 1_555 1_555
H19_5 C36_5 1_555 1_555
C37_5 C36_5 1_555 1_555
C38_5 C37_5 1_555 1_555
H20_5 C38_5 1_555 1_555
C39_5 C38_5 1_555 1_555
H21_5 C39_5 1_555 1_555
C40_5 C35_5 1_555 1_555
H22_5 C40_5 1_555 1_555
C41_5 C37_5 1_555 1_555
O71_5 Zn3_5 1_555 1_555
O72_5 Mo1_5 1_555 1_555
O74_5 P1_10 1_555 1_555
Zn17_3 O125_5 1_555 1_555
Mo31_5 O74_5 1_555 1_555
Mo34_5 O73_5 1_555 1_555
Mo36_5 O74_5 1_555 1_555
O116_5 Mo34_5 1_555 1_555
O117_5 Mo36_5 1_555 1_555
O118_5 Mo31_5 1_555 1_555
O119_5 Mo31_5 1_555 1_555
O120_5 Mo31_5 1_555 1_555
O121_5 Mo35_5 1_555 1_555
O123_5 Zn5_5 1_555 1_555
O126_5 Mo35_5 1_555 1_555
O127_5 Mo32_5 1_555 1_555
O128_5 Zn17_3 1_555 1_555
O130_5 Zn17_3 1_555 1_555
O132_5 Zn5_5 1_555 1_555
O133_5 Mo33_5 1_555 1_555
O134_5 Mo32_5 1_555 1_555
Zn17_4 O5_4 1_555 1_555
O146_3 Zn4_3 1_555 1_555
Mo2_5 O39_5 1_555 1_555
Mo2_5 O58_5 1_555 1_555
Mo2_5 O63_5 1_555 1_555
Mo3_5 O39_5 1_555 1_555
Mo3_5 O58_5 1_555 1_555
Mo4_5 O33_5 1_555 1_555
Mo5_5 O21_5 1_555 1_555
Mo5_5 O33_5 1_555 1_555
Mo5_5 O38_5 1_555 1_555
Mo6_5 O28_5 1_555 1_555
Mo6_5 O37_5 1_555 1_555
Mo6_5 O64_5 1_555 1_555
Mo7_5 O41_5 1_555 1_555
Mo7_5 O63_5 1_555 1_555
Mo7_5 O67_5 1_555 1_555
Mo7_5 O72_5 1_555 1_555
Mo8_5 O65_5 1_555 1_555
Mo9_5 O32_5 1_555 1_555
Mo9_5 O35_5 1_555 1_555
Mo9_5 O36_5 1_555 1_555
Mo10_5 O32_5 1_555 1_555
Mo10_5 O34_5 1_555 1_555
Mo10_5 O36_5 1_555 1_555
Mo10_5 O64_5 1_555 1_555
Mo11_5 O26_5 1_555 1_555
Mo11_5 O31_5 1_555 1_555
Mo11_5 O38_5 1_555 1_555
Mo11_5 O65_5 1_555 1_555
Mo12_5 O35_5 1_555 1_555
Mo12_5 O40_5 1_555 1_555
Mo12_5 O41_5 1_555 1_555
Mo12_5 O67_5 1_555 1_555
P1_10 O73_5 1_555 1_555
P2_5 O38_5 1_555 1_555
P2_5 O63_5 1_555 1_555
P2_5 O64_5 1_555 1_555
C1_5 O71_5 1_555 1_555
C6_5 C7_5 1_555 1_555
C26_5 C27_5 1_555 1_555
C32_5 C33_5 1_555 1_555
C39_5 C40_5 1_555 1_555
O73_5 Mo32_5 1_555 1_555
O74_5 Mo35_5 1_555 1_555
Mo31_5 O128_5 1_555 1_555
Mo31_5 O132_5 1_555 1_555
Mo32_5 O125_5 1_555 1_555
Mo33_5 O124_5 1_555 1_555
Mo33_5 O129_5 1_555 1_555
Mo33_5 O130_5 1_555 1_555
Mo34_5 O122_5 1_555 1_555
Mo34_5 O128_5 1_555 1_555
Mo34_5 O132_5 1_555 1_555
Mo34_5 O134_5 1_555 1_555
Mo35_5 O119_5 1_555 1_555
Mo35_5 O123_5 1_555 1_555
Mo36_5 O120_5 1_555 1_555
Mo36_5 O126_5 1_555 1_555
Mo36_5 O129_5 1_555 1_555
Mo36_5 O130_5 1_555 1_555
O2_3 C42_5 1_555 1_555
O3_4 C20_5 1_555 1_555
C9_5 C8_5 1_555 1_555
H5_5 C9_5 1_555 1_555
C10_5 C9_5 1_555 1_555
C11_5 C10_5 1_555 1_555
H6_5 C11_5 1_555 1_555
C12_5 C11_5 1_555 1_555
C13_5 C8_5 1_555 1_555
H7_5 C13_5 1_555 1_555
C14_5 C12_5 1_555 1_555
C15_5 C14_5 1_555 1_555
H8_5 C15_5 1_555 1_555
C16_5 C15_5 1_555 1_555
C17_5 C16_5 1_555 1_555
H9_4 C17_5 1_555 1_555
C18_4 C17_5 1_555 1_555
H10_4 C18_4 1_555 1_555
C19_5 C14_5 1_555 1_555
H11_5 C19_5 1_555 1_555
C20_5 C16_5 1_555 1_555
O69_5 C20_5 1_555 1_555
C42_5 C10_5 1_555 1_555
O70_5 C42_5 1_555 1_555
Zn13_4 O3_4 1_555 1_555
Zn16_3 O2_3 1_555 1_555
C12_5 C13_5 1_555 1_555
C18_4 C19_5 1_555 1_555
Zn18 O52_6 1_555 1_555
Mo14_6 O43_6 1_555 1_555
Mo15_6 O51_6 1_555 1_555
Mo16_6 O42_6 1_555 1_555
O43_6 Mo16_6 1_555 1_555
O49_6 Mo16_6 1_555 1_555
O51_6 Mo32_6 1_555 1_555
O52_6 Mo14_6 1_555 1_555
O54_6 Mo14_6 1_555 1_555
O55_6 Zn18 1_555 1_555
O57_6 Zn18 1_555 1_555
O60_6 Mo15_6 1_555 1_555
O61_6 Mo14_6 1_555 1_555
O73_6 Mo15_6 1_555 1_555
Zn12_4 O125_6 1_555 1_555
Mo32_6 O52_6 1_555 1_555
Mo33_6 O43_6 1_555 1_555
Mo34_6 O73_6 1_555 1_555
O116_6 Mo34_6 1_555 1_555
O122_6 Mo15_6 1_555 1_555
O124_6 Mo14_6 1_555 1_555
O125_6 Mo14_6 1_555 1_555
O127_6 Mo32_6 1_555 1_555
O128_6 Zn12_4 1_555 1_555
O130_6 Zn12_4 1_555 1_555
O133_6 Mo33_6 1_555 1_555
O134_6 Mo32_6 1_555 1_555
O150_4 Zn12_4 1_555 1_555
Mo15_6 O57_6 1_555 1_555
Mo16_6 O55_6 1_555 1_555
Mo16_6 O61_6 1_555 1_555
O49_6 Mo33_6 1_555 1_555
O73_6 Mo32_6 1_555 1_555
Mo32_6 O125_6 1_555 1_555
Mo33_6 O124_6 1_555 1_555
Mo33_6 O130_6 1_555 1_555
Mo34_6 O122_6 1_555 1_555
Mo34_6 O128_6 1_555 1_555
Mo34_6 O134_6 1_555 1_555
Zn1_4 O31_6 1_555 1_555
Zn2_6 O8_6 1_555 1_555
Zn3_6 O19_6 1_555 1_555
Zn4_4 O28_6 1_555 1_555
Zn5_6 O7_6 1_555 1_555
Mo1_6 O14_6 1_555 1_555
Mo2_6 O11_6 1_555 1_555
Mo3_6 O12_6 1_555 1_555
Mo4_6 O21_6 1_555 1_555
Mo5_6 O17_6 1_555 1_555
Mo6_6 O19_6 1_555 1_555
Mo7_6 O13_6 1_555 1_555
Mo8_6 O22_6 1_555 1_555
Mo9_6 O10_6 1_555 1_555
Mo10_6 O23_6 1_555 1_555
Mo11_6 O12_6 1_555 1_555
Mo12_6 O15_6 1_555 1_555
Mo13_6 O45_6 1_555 1_555
Mo17_6 O46_6 1_555 1_555
Mo18_6 O44_6 1_555 1_555
P2_6 O35_6 1_555 1_555
O1_6 C1_6 1_555 1_555
O2_4 C42_6 1_555 1_555
O148_3 C20_6 1_555 1_555
O4_6 C21_6 1_555 1_555
O150_3 C21_6 1_555 1_555
O6_6 C34_6 1_555 1_555
O7_6 C34_6 1_555 1_555
O8_6 C41_6 1_555 1_555
O9_6 C41_6 1_555 1_555
O13_6 Mo2_6 1_555 1_555
O14_6 Mo2_6 1_555 1_555
O15_6 Mo9_6 1_555 1_555
O16_6 Mo1_6 1_555 1_555
O17_6 Mo3_6 1_555 1_555
O18_6 Mo3_6 1_555 1_555
O19_6 Mo1_6 1_555 1_555
O20_6 Mo6_6 1_555 1_555
O21_6 Zn2_6 1_555 1_555
O22_6 Mo9_6 1_555 1_555
O23_6 Mo4_6 1_555 1_555
O24_6 Mo7_6 1_555 1_555
O25_6 Mo8_6 1_555 1_555
O26_6 Mo5_6 1_555 1_555
O27_6 Mo12_6 1_555 1_555
O28_6 Mo1_6 1_555 1_555
O29_6 Mo5_6 1_555 1_555
O30_6 Mo10_6 1_555 1_555
O31_6 Mo8_6 1_555 1_555
O32_6 Zn4_4 1_555 1_555
O33_6 Zn3_6 1_555 1_555
O34_6 Mo6_6 1_555 1_555
O35_6 Mo8_6 1_555 1_555
O36_6 Zn2_6 1_555 1_555
O37_6 Mo4_6 1_555 1_555
O38_6 Mo3_6 1_555 1_555
O39_6 Zn1_4 1_555 1_555
O40_6 Mo8_6 1_555 1_555
O41_6 Zn1_4 1_555 1_555
O46_6 Mo13_6 1_555 1_555
O47_6 Mo13_6 1_555 1_555
O48_6 Mo17_6 1_555 1_555
O50_6 Mo17_6 1_555 1_555
O53_6 Mo17_6 1_555 1_555
O56_6 Zn5_6 1_555 1_555
O58_6 Zn3_6 1_555 1_555
O59_6 Mo13_6 1_555 1_555
O62_6 Mo13_6 1_555 1_555
O63_6 Mo1_6 1_555 1_555
O64_6 Mo4_6 1_555 1_555
O65_6 Zn2_6 1_555 1_555
O66_6 Mo4_6 1_555 1_555
O67_6 Zn4_4 1_555 1_555
O68_6 Mo11_6 1_555 1_555
C1_6 C2_6 1_555 1_555
C2_6 C3_6 1_555 1_555
C3_6 H1_6 1_555 1_555
C4_6 C3_6 1_555 1_555
H2_6 C4_6 1_555 1_555
C5_6 C4_6 1_555 1_555
H3_6 C5_6 1_555 1_555
C6_6 C5_6 1_555 1_555
C7_6 C2_6 1_555 1_555
H4_6 C7_6 1_555 1_555
C8_6 C6_6 1_555 1_555
C9_6 C8_6 1_555 1_555
H5_6 C9_6 1_555 1_555
C10_6 C9_6 1_555 1_555
C11_6 C10_6 1_555 1_555
H6_6 C11_6 1_555 1_555
C12_6 C11_6 1_555 1_555
C13_6 C8_6 1_555 1_555
H7_6 C13_6 1_555 1_555
C14_6 C12_6 1_555 1_555
C15_6 C14_6 1_555 1_555
H8_6 C15_6 1_555 1_555
C16_6 C15_6 1_555 1_555
C17_6 C16_6 1_555 1_555
C19_6 C14_6 1_555 1_555
H11_6 C19_6 1_555 1_555
C20_6 C16_6 1_555 1_555
C21_6 C22_6 1_555 1_555
C22_6 C23_6 1_555 1_555
C23_6 H12_6 1_555 1_555
C24_6 C23_6 1_555 1_555
C25_6 C24_6 1_555 1_555
H13_6 C25_6 1_555 1_555
C26_6 C25_6 1_555 1_555
C27_6 C22_6 1_555 1_555
H15_6 C27_6 1_555 1_555
C28_6 C24_6 1_555 1_555
C29_6 C28_6 1_555 1_555
H16_6 C29_6 1_555 1_555
C30_6 C29_6 1_555 1_555
C31_6 C30_6 1_555 1_555
H17_6 C31_6 1_555 1_555
C32_6 C31_6 1_555 1_555
C33_6 C28_6 1_555 1_555
H18_6 C33_6 1_555 1_555
C34_6 C30_6 1_555 1_555
C35_6 C32_6 1_555 1_555
C36_6 C35_6 1_555 1_555
H19_6 C36_6 1_555 1_555
C37_6 C36_6 1_555 1_555
C38_6 C37_6 1_555 1_555
H20_6 C38_6 1_555 1_555
C39_6 C38_6 1_555 1_555
H21_6 C39_6 1_555 1_555
C40_6 C35_6 1_555 1_555
H22_6 C40_6 1_555 1_555
C41_6 C37_6 1_555 1_555
O69_6 C20_6 1_555 1_555
C42_6 C10_6 1_555 1_555
O70_6 C42_6 1_555 1_555
O71_6 Zn3_6 1_555 1_555
O72_6 Mo1_6 1_555 1_555
O74_6 P1_11 1_555 1_555
Zn14 O105_6 1_555 1_555
Zn8_6 O82_6 1_555 1_555
Zn9_6 O93_6 1_555 1_555
Zn10_4 O102_6 1_555 1_555
Zn11_6 O50_6 1_555 1_555
Mo19_6 O88_6 1_555 1_555
Mo20_6 O85_6 1_555 1_555
Mo21_6 O86_6 1_555 1_555
Mo22_6 O95_6 1_555 1_555
Mo23_6 O91_6 1_555 1_555
Mo24_6 O93_6 1_555 1_555
Mo25_6 O87_6 1_555 1_555
Mo26_6 O96_6 1_555 1_555
Mo27_6 O84_6 1_555 1_555
Mo28_6 O97_6 1_555 1_555
Mo29_6 O86_6 1_555 1_555
Mo30_6 O89_6 1_555 1_555
Mo31_6 O74_6 1_555 1_555
Mo35_6 O50_6 1_555 1_555
Mo36_6 O74_6 1_555 1_555
P3_6 O109_6 1_555 1_555
O75_6 C43_6 1_555 1_555
O147_5 C62_6 1_555 1_555
O78_6 C63_6 1_555 1_555
O149_5 C63_6 1_555 1_555
O80_6 C76_6 1_555 1_555
O81_6 Zn11_6 1_555 1_555
O82_6 C83_6 1_555 1_555
O83_6 C83_6 1_555 1_555
O87_6 Mo20_6 1_555 1_555
O88_6 Mo20_6 1_555 1_555
O89_6 Mo27_6 1_555 1_555
O90_6 Mo19_6 1_555 1_555
O91_6 Mo21_6 1_555 1_555
O92_6 Mo21_6 1_555 1_555
O93_6 Mo19_6 1_555 1_555
O94_6 Mo24_6 1_555 1_555
O95_6 Zn8_6 1_555 1_555
O96_6 Mo27_6 1_555 1_555
O97_6 Mo22_6 1_555 1_555
O98_6 Mo25_6 1_555 1_555
O99_6 Mo26_6 1_555 1_555
O100_6 Mo23_6 1_555 1_555
O101_6 Mo30_6 1_555 1_555
O102_6 Mo19_6 1_555 1_555
O103_6 Mo23_6 1_555 1_555
O104_6 Mo28_6 1_555 1_555
O105_6 Mo26_6 1_555 1_555
O106_6 Zn10_4 1_555 1_555
O107_6 Zn9_6 1_555 1_555
O108_6 Mo24_6 1_555 1_555
O109_6 Mo26_6 1_555 1_555
O110_6 Zn8_6 1_555 1_555
O111_6 Mo22_6 1_555 1_555
O112_6 Mo21_6 1_555 1_555
O113_6 Zn14 1_555 1_555
O114_6 Mo26_6 1_555 1_555
O115_6 Zn14 1_555 1_555
O117_6 Mo36_6 1_555 1_555
O118_6 Mo31_6 1_555 1_555
O119_6 Mo31_6 1_555 1_555
O120_6 Mo31_6 1_555 1_555
O121_6 Mo35_6 1_555 1_555
O123_6 Zn5_6 1_555 1_555
O126_6 Mo35_6 1_555 1_555
O129_6 Zn11_6 1_555 1_555
O131_6 Zn9_6 1_555 1_555
O132_6 Zn5_6 1_555 1_555
O135_6 Mo19_6 1_555 1_555
O136_6 Mo22_6 1_555 1_555
O137_6 Zn8_6 1_555 1_555
O138_6 Mo22_6 1_555 1_555
O139_6 Zn10_4 1_555 1_555
O140_6 Mo29_6 1_555 1_555
C43_6 C44_6 1_555 1_555
C49_6 C44_6 1_555 1_555
H26_6 C49_6 1_555 1_555
H29_6 C55_6 1_555 1_555
C56_6 C54_6 1_555 1_555
C57_6 C56_6 1_555 1_555
H30_6 C57_6 1_555 1_555
C58_6 C57_6 1_555 1_555
C59_6 C58_6 1_555 1_555
C61_6 C56_6 1_555 1_555
H33_6 C61_6 1_555 1_555
C62_6 C58_6 1_555 1_555
C63_6 C64_6 1_555 1_555
C64_6 C65_6 1_555 1_555
C65_6 H34_6 1_555 1_555
C66_6 C65_6 1_555 1_555
C67_6 C66_6 1_555 1_555
H35_6 C67_6 1_555 1_555
C68_6 C67_6 1_555 1_555
C69_6 C64_6 1_555 1_555
H37_6 C69_6 1_555 1_555
C70_6 C66_6 1_555 1_555
C71_6 C70_6 1_555 1_555
H38_6 C71_6 1_555 1_555
C72_6 C71_6 1_555 1_555
C73_6 C72_6 1_555 1_555
H39_6 C73_6 1_555 1_555
C74_6 C73_6 1_555 1_555
C75_6 C70_6 1_555 1_555
H40_6 C75_6 1_555 1_555
C76_6 O81_6 1_555 1_555
C77_6 C74_6 1_555 1_555
C78_6 C77_6 1_555 1_555
H41_6 C78_6 1_555 1_555
C79_6 C78_6 1_555 1_555
C80_6 C79_6 1_555 1_555
H42_6 C80_6 1_555 1_555
C81_6 C80_6 1_555 1_555
H43_6 C81_6 1_555 1_555
C82_6 C77_6 1_555 1_555
H44_6 C82_6 1_555 1_555
C83_6 C79_6 1_555 1_555
O141_6 C62_6 1_555 1_555
O143_6 Zn9_6 1_555 1_555
O144_6 Mo19_6 1_555 1_555
Zn16_4 O2_4 1_555 1_555
O145_4 Zn10_4 1_555 1_555
O146_4 Zn4_4 1_555 1_555
O148_4 Zn1_4 1_555 1_555
Mo2_6 O39_6 1_555 1_555
Mo2_6 O58_6 1_555 1_555
Mo2_6 O63_6 1_555 1_555
Mo3_6 O39_6 1_555 1_555
Mo3_6 O58_6 1_555 1_555
Mo4_6 O33_6 1_555 1_555
Mo5_6 O21_6 1_555 1_555
Mo5_6 O33_6 1_555 1_555
Mo5_6 O38_6 1_555 1_555
Mo6_6 O28_6 1_555 1_555
Mo6_6 O37_6 1_555 1_555
Mo6_6 O64_6 1_555 1_555
Mo7_6 O41_6 1_555 1_555
Mo7_6 O63_6 1_555 1_555
Mo7_6 O67_6 1_555 1_555
Mo7_6 O72_6 1_555 1_555
Mo8_6 O65_6 1_555 1_555
Mo9_6 O32_6 1_555 1_555
Mo9_6 O35_6 1_555 1_555
Mo9_6 O36_6 1_555 1_555
Mo10_6 O32_6 1_555 1_555
Mo10_6 O34_6 1_555 1_555
Mo10_6 O36_6 1_555 1_555
Mo10_6 O64_6 1_555 1_555
Mo11_6 O26_6 1_555 1_555
Mo11_6 O31_6 1_555 1_555
Mo11_6 O38_6 1_555 1_555
Mo11_6 O65_6 1_555 1_555
Mo12_6 O35_6 1_555 1_555
Mo12_6 O40_6 1_555 1_555
Mo12_6 O41_6 1_555 1_555
Mo12_6 O67_6 1_555 1_555
Mo17_6 O62_6 1_555 1_555
Mo17_6 O123_6 1_555 1_555
Mo18_6 O47_6 1_555 1_555
Mo18_6 O53_6 1_555 1_555
Mo18_6 O56_6 1_555 1_555
Mo18_6 O62_6 1_555 1_555
P1_11 O62_6 1_555 1_555
P2_6 O38_6 1_555 1_555
P2_6 O63_6 1_555 1_555
P2_6 O64_6 1_555 1_555
O59_6 Zn11_6 1_555 1_555
C1_6 O71_6 1_555 1_555
C6_6 C7_6 1_555 1_555
C12_6 C13_6 1_555 1_555
C26_6 C27_6 1_555 1_555
C32_6 C33_6 1_555 1_555
C39_6 C40_6 1_555 1_555
O74_6 Mo35_6 1_555 1_555
Mo20_6 O113_6 1_555 1_555
Mo20_6 O131_6 1_555 1_555
Mo20_6 O135_6 1_555 1_555
Mo21_6 O113_6 1_555 1_555
Mo21_6 O131_6 1_555 1_555
Mo22_6 O107_6 1_555 1_555
Mo23_6 O95_6 1_555 1_555
Mo23_6 O107_6 1_555 1_555
Mo23_6 O112_6 1_555 1_555
Mo24_6 O102_6 1_555 1_555
Mo24_6 O111_6 1_555 1_555
Mo24_6 O136_6 1_555 1_555
Mo25_6 O115_6 1_555 1_555
Mo25_6 O135_6 1_555 1_555
Mo25_6 O139_6 1_555 1_555
Mo25_6 O144_6 1_555 1_555
Mo26_6 O137_6 1_555 1_555
Mo27_6 O106_6 1_555 1_555
Mo27_6 O109_6 1_555 1_555
Mo27_6 O110_6 1_555 1_555
Mo28_6 O106_6 1_555 1_555
Mo28_6 O108_6 1_555 1_555
Mo28_6 O110_6 1_555 1_555
Mo28_6 O136_6 1_555 1_555
Mo29_6 O100_6 1_555 1_555
Mo29_6 O105_6 1_555 1_555
Mo29_6 O112_6 1_555 1_555
Mo29_6 O137_6 1_555 1_555
Mo30_6 O109_6 1_555 1_555
Mo30_6 O114_6 1_555 1_555
Mo30_6 O115_6 1_555 1_555
Mo30_6 O139_6 1_555 1_555
Mo31_6 O132_6 1_555 1_555
Mo35_6 O119_6 1_555 1_555
Mo35_6 O123_6 1_555 1_555
Mo36_6 O120_6 1_555 1_555
Mo36_6 O126_6 1_555 1_555
Mo36_6 O129_6 1_555 1_555
P3_6 O112_6 1_555 1_555
P3_6 O135_6 1_555 1_555
P3_6 O136_6 1_555 1_555
C43_6 O143_6 1_555 1_555
C54_6 C55_6 1_555 1_555
C68_6 C69_6 1_555 1_555
C72_6 C76_6 1_555 1_555
C74_6 C75_6 1_555 1_555
C81_6 C82_6 1_555 1_555
O76_4 C84_6 1_555 1_555
C45_6 H23_6 1_555 1_555
C46_6 C45_6 1_555 1_555
H24_6 C46_6 1_555 1_555
C47_6 C46_6 1_555 1_555
H25_6 C47_6 1_555 1_555
C48_6 C47_6 1_555 1_555
C50_6 C48_6 1_555 1_555
C51_6 C50_6 1_555 1_555
H27_6 C51_6 1_555 1_555
C52_6 C51_6 1_555 1_555
C53_6 C52_6 1_555 1_555
H28_6 C53_6 1_555 1_555
C84_6 C52_6 1_555 1_555
O142_6 C84_6 1_555 1_555
Zn15_4 O76_4 1_555 1_555
Zn5_7 O7_7 1_555 1_555
Zn6_6 O52_7 1_555 1_555
Mo13_7 O45_7 1_555 1_555
Mo14_7 O43_7 1_555 1_555
Mo15_7 O51_7 1_555 1_555
Mo16_7 O42_7 1_555 1_555
Mo17_7 O46_7 1_555 1_555
Mo18_7 O44_7 1_555 1_555
P1_12 O43_7 1_555 1_555
O4_7 C21_7 1_555 1_555
O150_4 C21_7 1_555 1_555
O6_7 C34_7 1_555 1_555
O7_7 C34_7 1_555 1_555
O43_7 Mo16_7 1_555 1_555
O46_7 Mo13_7 1_555 1_555
O47_7 Mo13_7 1_555 1_555
O48_7 Mo17_7 1_555 1_555
O49_7 Mo16_7 1_555 1_555
O50_7 Mo17_7 1_555 1_555
O51_7 Mo32_7 1_555 1_555
O52_7 Mo14_7 1_555 1_555
O53_7 Mo17_7 1_555 1_555
O54_7 Mo14_7 1_555 1_555
O55_7 Zn6_6 1_555 1_555
O56_7 Zn5_7 1_555 1_555
O57_7 Zn6_6 1_555 1_555
O59_7 Mo13_7 1_555 1_555
O60_7 Mo15_7 1_555 1_555
O61_7 Mo14_7 1_555 1_555
O62_7 Mo13_7 1_555 1_555
C21_7 C22_7 1_555 1_555
C22_7 C23_7 1_555 1_555
C23_7 H12_7 1_555 1_555
C24_7 C23_7 1_555 1_555
C25_7 C24_7 1_555 1_555
H13_7 C25_7 1_555 1_555
C26_7 C25_7 1_555 1_555
H14_7 C26_7 1_555 1_555
C27_7 C22_7 1_555 1_555
H15_7 C27_7 1_555 1_555
C28_7 C24_7 1_555 1_555
C29_7 C28_7 1_555 1_555
H16_7 C29_7 1_555 1_555
C30_7 C29_7 1_555 1_555
C31_7 C30_7 1_555 1_555
H17_7 C31_7 1_555 1_555
C32_7 C31_7 1_555 1_555
C33_7 C28_7 1_555 1_555
H18_7 C33_7 1_555 1_555
C34_7 C30_7 1_555 1_555
O73_7 Mo15_7 1_555 1_555
O74_7 P1_12 1_555 1_555
Zn11_7 O50_7 1_555 1_555
Zn17_2 O125_7 1_555 1_555
Mo31_7 O74_7 1_555 1_555
Mo32_7 O52_7 1_555 1_555
Mo33_7 O43_7 1_555 1_555
Mo34_7 O73_7 1_555 1_555
Mo35_7 O50_7 1_555 1_555
Mo36_7 O74_7 1_555 1_555
O78_7 C63_7 1_555 1_555
O149_4 C63_7 1_555 1_555
O80_7 C76_7 1_555 1_555
O81_7 Zn11_7 1_555 1_555
O116_7 Mo34_7 1_555 1_555
O117_7 Mo36_7 1_555 1_555
O118_7 Mo31_7 1_555 1_555
O119_7 Mo31_7 1_555 1_555
O120_7 Mo31_7 1_555 1_555
O121_7 Mo35_7 1_555 1_555
O122_7 Mo15_7 1_555 1_555
O123_7 Zn5_7 1_555 1_555
O124_7 Mo14_7 1_555 1_555
O125_7 Mo14_7 1_555 1_555
O126_7 Mo35_7 1_555 1_555
O127_7 Mo32_7 1_555 1_555
O128_7 Zn17_2 1_555 1_555
O129_7 Zn11_7 1_555 1_555
O130_7 Zn17_2 1_555 1_555
O132_7 Zn5_7 1_555 1_555
O133_7 Mo33_7 1_555 1_555
O134_7 Mo32_7 1_555 1_555
C63_7 C64_7 1_555 1_555
C64_7 C65_7 1_555 1_555
C65_7 H34_7 1_555 1_555
C66_7 C65_7 1_555 1_555
C67_7 C66_7 1_555 1_555
H35_7 C67_7 1_555 1_555
C68_7 C67_7 1_555 1_555
H36_7 C68_7 1_555 1_555
C69_7 C64_7 1_555 1_555
H37_7 C69_7 1_555 1_555
C70_7 C66_7 1_555 1_555
C71_7 C70_7 1_555 1_555
H38_7 C71_7 1_555 1_555
C72_7 C71_7 1_555 1_555
C73_7 C72_7 1_555 1_555
H39_7 C73_7 1_555 1_555
C74_7 C73_7 1_555 1_555
C75_7 C70_7 1_555 1_555
H40_7 C75_7 1_555 1_555
C76_7 O81_7 1_555 1_555
O149_6 Zn6_6 1_555 1_555
Mo13_7 O55_7 1_555 1_555
Mo15_7 O56_7 1_555 1_555
Mo15_7 O57_7 1_555 1_555
Mo16_7 O55_7 1_555 1_555
Mo16_7 O59_7 1_555 1_555
Mo16_7 O61_7 1_555 1_555
Mo17_7 O62_7 1_555 1_555
Mo17_7 O123_7 1_555 1_555
Mo18_7 O47_7 1_555 1_555
Mo18_7 O53_7 1_555 1_555
Mo18_7 O56_7 1_555 1_555
Mo18_7 O57_7 1_555 1_555
Mo18_7 O62_7 1_555 1_555
P1_12 O62_7 1_555 1_555
P1_12 O73_7 1_555 1_555
O49_7 Mo33_7 1_555 1_555
O59_7 Zn11_7 1_555 1_555
C26_7 C27_7 1_555 1_555
C32_7 C33_7 1_555 1_555
O73_7 Mo32_7 1_555 1_555
O74_7 Mo35_7 1_555 1_555
Mo31_7 O128_7 1_555 1_555
Mo31_7 O132_7 1_555 1_555
Mo32_7 O125_7 1_555 1_555
Mo33_7 O124_7 1_555 1_555
Mo33_7 O129_7 1_555 1_555
Mo33_7 O130_7 1_555 1_555
Mo34_7 O122_7 1_555 1_555
Mo34_7 O128_7 1_555 1_555
Mo34_7 O132_7 1_555 1_555
Mo34_7 O134_7 1_555 1_555
Mo35_7 O119_7 1_555 1_555
Mo35_7 O123_7 1_555 1_555
Mo36_7 O120_7 1_555 1_555
Mo36_7 O126_7 1_555 1_555
Mo36_7 O129_7 1_555 1_555
Mo36_7 O130_7 1_555 1_555
C68_7 C69_7 1_555 1_555
C72_7 C76_7 1_555 1_555
C74_7 C75_7 1_555 1_555
Zn13_2 O31_7 1_555 1_555
Zn2_7 O8_7 1_555 1_555
Zn3_7 O19_7 1_555 1_555
Zn15_3 O28_7 1_555 1_555
Mo1_7 O14_7 1_555 1_555
Mo2_7 O11_7 1_555 1_555
Mo3_7 O12_7 1_555 1_555
Mo4_7 O21_7 1_555 1_555
Mo5_7 O17_7 1_555 1_555
Mo6_7 O19_7 1_555 1_555
Mo7_7 O13_7 1_555 1_555
Mo8_7 O22_7 1_555 1_555
Mo9_7 O10_7 1_555 1_555
Mo10_7 O23_7 1_555 1_555
Mo11_7 O12_7 1_555 1_555
Mo12_7 O15_7 1_555 1_555
P2_7 O35_7 1_555 1_555
O1_7 C1_7 1_555 1_555
O145_3 C42_7 1_555 1_555
O148_4 C20_7 1_555 1_555
O8_7 C41_7 1_555 1_555
O9_7 C41_7 1_555 1_555
O13_7 Mo2_7 1_555 1_555
O14_7 Mo2_7 1_555 1_555
O15_7 Mo9_7 1_555 1_555
O16_7 Mo1_7 1_555 1_555
O17_7 Mo3_7 1_555 1_555
O18_7 Mo3_7 1_555 1_555
O19_7 Mo1_7 1_555 1_555
O20_7 Mo6_7 1_555 1_555
O21_7 Zn2_7 1_555 1_555
O22_7 Mo9_7 1_555 1_555
O23_7 Mo4_7 1_555 1_555
O24_7 Mo7_7 1_555 1_555
O25_7 Mo8_7 1_555 1_555
O26_7 Mo5_7 1_555 1_555
O27_7 Mo12_7 1_555 1_555
O28_7 Mo1_7 1_555 1_555
O29_7 Mo5_7 1_555 1_555
O30_7 Mo10_7 1_555 1_555
O31_7 Mo8_7 1_555 1_555
O32_7 Zn15_3 1_555 1_555
O33_7 Zn3_7 1_555 1_555
O34_7 Mo6_7 1_555 1_555
O35_7 Mo8_7 1_555 1_555
O36_7 Zn2_7 1_555 1_555
O37_7 Mo4_7 1_555 1_555
O38_7 Mo3_7 1_555 1_555
O39_7 Zn13_2 1_555 1_555
O40_7 Mo8_7 1_555 1_555
O41_7 Zn13_2 1_555 1_555
O58_7 Zn3_7 1_555 1_555
O63_7 Mo1_7 1_555 1_555
O64_7 Mo4_7 1_555 1_555
O65_7 Zn2_7 1_555 1_555
O66_7 Mo4_7 1_555 1_555
O67_7 Zn15_3 1_555 1_555
O68_7 Mo11_7 1_555 1_555
C1_7 C2_7 1_555 1_555
C2_7 C3_7 1_555 1_555
C3_7 H1_7 1_555 1_555
C4_7 C3_7 1_555 1_555
H2_7 C4_7 1_555 1_555
C5_7 C4_7 1_555 1_555
H3_7 C5_7 1_555 1_555
C6_7 C5_7 1_555 1_555
C7_7 C2_7 1_555 1_555
H4_7 C7_7 1_555 1_555
C8_7 C6_7 1_555 1_555
C9_7 C8_7 1_555 1_555
H5_7 C9_7 1_555 1_555
C10_7 C9_7 1_555 1_555
C11_7 C10_7 1_555 1_555
H6_7 C11_7 1_555 1_555
C12_7 C11_7 1_555 1_555
C13_7 C8_7 1_555 1_555
H7_7 C13_7 1_555 1_555
C14_7 C12_7 1_555 1_555
C15_7 C14_7 1_555 1_555
H8_7 C15_7 1_555 1_555
C16_7 C15_7 1_555 1_555
C17_7 C16_7 1_555 1_555
H9_5 C17_7 1_555 1_555
C18_5 C17_7 1_555 1_555
H10_5 C18_5 1_555 1_555
C19_7 C14_7 1_555 1_555
H11_7 C19_7 1_555 1_555
C20_7 C16_7 1_555 1_555
C36_7 C35_7 1_555 1_555
H19_7 C36_7 1_555 1_555
C37_7 C36_7 1_555 1_555
C38_7 C37_7 1_555 1_555
H20_7 C38_7 1_555 1_555
C39_7 C38_7 1_555 1_555
H21_7 C39_7 1_555 1_555
C40_7 C35_7 1_555 1_555
H22_7 C40_7 1_555 1_555
C41_7 C37_7 1_555 1_555
O69_7 C20_7 1_555 1_555
C42_7 C10_7 1_555 1_555
O70_7 C42_7 1_555 1_555
O71_7 Zn3_7 1_555 1_555
O72_7 Mo1_7 1_555 1_555
Zn7_6 O105_7 1_555 1_555
Zn8_7 O82_7 1_555 1_555
Zn9_7 O93_7 1_555 1_555
Zn16_3 O102_7 1_555 1_555
Mo19_7 O88_7 1_555 1_555
Mo20_7 O85_7 1_555 1_555
Mo21_7 O86_7 1_555 1_555
Mo22_7 O95_7 1_555 1_555
Mo23_7 O91_7 1_555 1_555
Mo24_7 O93_7 1_555 1_555
Mo25_7 O87_7 1_555 1_555
Mo26_7 O96_7 1_555 1_555
Mo27_7 O84_7 1_555 1_555
Mo28_7 O97_7 1_555 1_555
Mo29_7 O86_7 1_555 1_555
Mo30_7 O89_7 1_555 1_555
P3_7 O109_7 1_555 1_555
O75_7 C43_7 1_555 1_555
O146_3 C84_7 1_555 1_555
O147_4 C62_7 1_555 1_555
O82_7 C83_7 1_555 1_555
O83_7 C83_7 1_555 1_555
O87_7 Mo20_7 1_555 1_555
O88_7 Mo20_7 1_555 1_555
O89_7 Mo27_7 1_555 1_555
O90_7 Mo19_7 1_555 1_555
O91_7 Mo21_7 1_555 1_555
O92_7 Mo21_7 1_555 1_555
O93_7 Mo19_7 1_555 1_555
O94_7 Mo24_7 1_555 1_555
O95_7 Zn8_7 1_555 1_555
O96_7 Mo27_7 1_555 1_555
O97_7 Mo22_7 1_555 1_555
O98_7 Mo25_7 1_555 1_555
O99_7 Mo26_7 1_555 1_555
O100_7 Mo23_7 1_555 1_555
O101_7 Mo30_7 1_555 1_555
O102_7 Mo19_7 1_555 1_555
O103_7 Mo23_7 1_555 1_555
O104_7 Mo28_7 1_555 1_555
O105_7 Mo26_7 1_555 1_555
O106_7 Zn16_3 1_555 1_555
O107_7 Zn9_7 1_555 1_555
O108_7 Mo24_7 1_555 1_555
O109_7 Mo26_7 1_555 1_555
O110_7 Zn8_7 1_555 1_555
O111_7 Mo22_7 1_555 1_555
O112_7 Mo21_7 1_555 1_555
O113_7 Zn7_6 1_555 1_555
O114_7 Mo26_7 1_555 1_555
O115_7 Zn7_6 1_555 1_555
O131_7 Zn9_7 1_555 1_555
O135_7 Mo19_7 1_555 1_555
O136_7 Mo22_7 1_555 1_555
O137_7 Zn8_7 1_555 1_555
O138_7 Mo22_7 1_555 1_555
O139_7 Zn16_3 1_555 1_555
O140_7 Mo29_7 1_555 1_555
C43_7 C44_7 1_555 1_555
C44_7 C45_7 1_555 1_555
C45_7 H23_7 1_555 1_555
C46_7 C45_7 1_555 1_555
H24_7 C46_7 1_555 1_555
C47_7 C46_7 1_555 1_555
H25_7 C47_7 1_555 1_555
C48_7 C47_7 1_555 1_555
C49_7 C44_7 1_555 1_555
H26_7 C49_7 1_555 1_555
C50_7 C48_7 1_555 1_555
C51_7 C50_7 1_555 1_555
H27_7 C51_7 1_555 1_555
C52_7 C51_7 1_555 1_555
C53_7 C52_7 1_555 1_555
H28_7 C53_7 1_555 1_555
C54_7 C53_7 1_555 1_555
C55_7 C50_7 1_555 1_555
H29_7 C55_7 1_555 1_555
C56_7 C54_7 1_555 1_555
C57_7 C56_7 1_555 1_555
H30_7 C57_7 1_555 1_555
C58_7 C57_7 1_555 1_555
C59_7 C58_7 1_555 1_555
H31_5 C59_7 1_555 1_555
C60_5 C59_7 1_555 1_555
H32_5 C60_5 1_555 1_555
C61_7 C56_7 1_555 1_555
H33_7 C61_7 1_555 1_555
C62_7 C58_7 1_555 1_555
C78_7 C77_7 1_555 1_555
H41_7 C78_7 1_555 1_555
C79_7 C78_7 1_555 1_555
C80_7 C79_7 1_555 1_555
H42_7 C80_7 1_555 1_555
C81_7 C80_7 1_555 1_555
H43_7 C81_7 1_555 1_555
C82_7 C77_7 1_555 1_555
H44_7 C82_7 1_555 1_555
C83_7 C79_7 1_555 1_555
O141_7 C62_7 1_555 1_555
C84_7 C52_7 1_555 1_555
O142_7 C84_7 1_555 1_555
O143_7 Zn9_7 1_555 1_555
O144_7 Mo19_7 1_555 1_555
O147_6 Zn7_6 1_555 1_555
Mo2_7 O39_7 1_555 1_555
Mo2_7 O58_7 1_555 1_555
Mo2_7 O63_7 1_555 1_555
Mo3_7 O39_7 1_555 1_555
Mo3_7 O58_7 1_555 1_555
Mo4_7 O33_7 1_555 1_555
Mo5_7 O21_7 1_555 1_555
Mo5_7 O33_7 1_555 1_555
Mo5_7 O38_7 1_555 1_555
Mo6_7 O28_7 1_555 1_555
Mo6_7 O37_7 1_555 1_555
Mo6_7 O64_7 1_555 1_555
Mo7_7 O41_7 1_555 1_555
Mo7_7 O63_7 1_555 1_555
Mo7_7 O67_7 1_555 1_555
Mo7_7 O72_7 1_555 1_555
Mo8_7 O65_7 1_555 1_555
Mo9_7 O32_7 1_555 1_555
Mo9_7 O35_7 1_555 1_555
Mo9_7 O36_7 1_555 1_555
Mo10_7 O32_7 1_555 1_555
Mo10_7 O34_7 1_555 1_555
Mo10_7 O36_7 1_555 1_555
Mo10_7 O64_7 1_555 1_555
Mo11_7 O26_7 1_555 1_555
Mo11_7 O31_7 1_555 1_555
Mo11_7 O38_7 1_555 1_555
Mo11_7 O65_7 1_555 1_555
Mo12_7 O35_7 1_555 1_555
Mo12_7 O40_7 1_555 1_555
Mo12_7 O41_7 1_555 1_555
Mo12_7 O67_7 1_555 1_555
P2_7 O38_7 1_555 1_555
P2_7 O63_7 1_555 1_555
P2_7 O64_7 1_555 1_555
C1_7 O71_7 1_555 1_555
C6_7 C7_7 1_555 1_555
C12_7 C13_7 1_555 1_555
C18_5 C19_7 1_555 1_555
C39_7 C40_7 1_555 1_555
Mo20_7 O113_7 1_555 1_555
Mo20_7 O131_7 1_555 1_555
Mo20_7 O135_7 1_555 1_555
Mo21_7 O113_7 1_555 1_555
Mo21_7 O131_7 1_555 1_555
Mo22_7 O107_7 1_555 1_555
Mo23_7 O95_7 1_555 1_555
Mo23_7 O107_7 1_555 1_555
Mo23_7 O112_7 1_555 1_555
Mo24_7 O102_7 1_555 1_555
Mo24_7 O111_7 1_555 1_555
Mo24_7 O136_7 1_555 1_555
Mo25_7 O115_7 1_555 1_555
Mo25_7 O135_7 1_555 1_555
Mo25_7 O139_7 1_555 1_555
Mo25_7 O144_7 1_555 1_555
Mo26_7 O137_7 1_555 1_555
Mo27_7 O106_7 1_555 1_555
Mo27_7 O109_7 1_555 1_555
Mo27_7 O110_7 1_555 1_555
Mo28_7 O106_7 1_555 1_555
Mo28_7 O108_7 1_555 1_555
Mo28_7 O110_7 1_555 1_555
Mo28_7 O136_7 1_555 1_555
Mo29_7 O100_7 1_555 1_555
Mo29_7 O105_7 1_555 1_555
Mo29_7 O112_7 1_555 1_555
Mo29_7 O137_7 1_555 1_555
Mo30_7 O109_7 1_555 1_555
Mo30_7 O114_7 1_555 1_555
Mo30_7 O115_7 1_555 1_555
Mo30_7 O139_7 1_555 1_555
P3_7 O112_7 1_555 1_555
P3_7 O135_7 1_555 1_555
P3_7 O136_7 1_555 1_555
C43_7 O143_7 1_555 1_555
C48_7 C49_7 1_555 1_555
C54_7 C55_7 1_555 1_555
C60_5 C61_7 1_555 1_555
C81_7 C82_7 1_555 1_555
O145_4 C42_8 1_555 1_555
C3_8 H1_8 1_555 1_555
C4_8 C3_8 1_555 1_555
H2_8 C4_8 1_555 1_555
C5_8 C4_8 1_555 1_555
H3_8 C5_8 1_555 1_555
C6_8 C5_8 1_555 1_555
C8_8 C6_8 1_555 1_555
C9_8 C8_8 1_555 1_555
H5_8 C9_8 1_555 1_555
C10_8 C9_8 1_555 1_555
C11_8 C10_8 1_555 1_555
H6_8 C11_8 1_555 1_555
C42_8 C10_8 1_555 1_555
O70_8 C42_8 1_555 1_555
Zn2_8 O8_8 1_555 1_555
Zn15_4 O28_8 1_555 1_555
Zn5_8 O7_8 1_555 1_555
Zn18_2 O52_8 1_555 1_555
Mo4_8 O21_8 1_555 1_555
Mo8_8 O22_8 1_555 1_555
Mo9_8 O10_8 1_555 1_555
Mo10_8 O23_8 1_555 1_555
Mo12_8 O15_8 1_555 1_555
Mo13_8 O45_8 1_555 1_555
Mo14_8 O43_8 1_555 1_555
Mo15_8 O51_8 1_555 1_555
Mo16_8 O42_8 1_555 1_555
Mo17_8 O46_8 1_555 1_555
Mo18_8 O44_8 1_555 1_555
P1_13 O43_8 1_555 1_555
O4_8 C21_8 1_555 1_555
O150 C21_8 1_555 1_555
O6_8 C34_8 1_555 1_555
O7_8 C34_8 1_555 1_555
O8_8 C41_8 1_555 1_555
O9_8 C41_8 1_555 1_555
O15_8 Mo9_8 1_555 1_555
O20_8 Mo6_8 1_555 1_555
O21_8 Zn2_8 1_555 1_555
O22_8 Mo9_8 1_555 1_555
O23_8 Mo4_8 1_555 1_555
O25_8 Mo8_8 1_555 1_555
O27_8 Mo12_8 1_555 1_555
O30_8 Mo10_8 1_555 1_555
O32_8 Zn15_4 1_555 1_555
O34_8 Mo6_8 1_555 1_555
O35_8 Mo8_8 1_555 1_555
O36_8 Zn2_8 1_555 1_555
O37_8 Mo4_8 1_555 1_555
O40_8 Mo8_8 1_555 1_555
O43_8 Mo16_8 1_555 1_555
O46_8 Mo13_8 1_555 1_555
O47_8 Mo13_8 1_555 1_555
O48_8 Mo17_8 1_555 1_555
O49_8 Mo16_8 1_555 1_555
O50_8 Mo17_8 1_555 1_555
O51_8 Mo32_8 1_555 1_555
O52_8 Mo14_8 1_555 1_555
O53_8 Mo17_8 1_555 1_555
O54_8 Mo14_8 1_555 1_555
O55_8 Zn18_2 1_555 1_555
O56_8 Zn5_8 1_555 1_555
O57_8 Zn18_2 1_555 1_555
O59_8 Mo13_8 1_555 1_555
O60_8 Mo15_8 1_555 1_555
O61_8 Mo14_8 1_555 1_555
O62_8 Mo13_8 1_555 1_555
O64_8 Mo4_8 1_555 1_555
O65_8 Zn2_8 1_555 1_555
O66_8 Mo4_8 1_555 1_555
O67_8 Zn15_4 1_555 1_555
C21_8 C22_8 1_555 1_555
C22_8 C23_8 1_555 1_555
C23_8 H12_8 1_555 1_555
C24_8 C23_8 1_555 1_555
C25_8 C24_8 1_555 1_555
H13_8 C25_8 1_555 1_555
C26_8 C25_8 1_555 1_555
H14_8 C26_8 1_555 1_555
C27_8 C22_8 1_555 1_555
H15_8 C27_8 1_555 1_555
C28_8 C24_8 1_555 1_555
C29_8 C28_8 1_555 1_555
H16_8 C29_8 1_555 1_555
C30_8 C29_8 1_555 1_555
C31_8 C30_8 1_555 1_555
H17_8 C31_8 1_555 1_555
C32_8 C31_8 1_555 1_555
C33_8 C28_8 1_555 1_555
H18_8 C33_8 1_555 1_555
C34_8 C30_8 1_555 1_555
C35_8 C32_8 1_555 1_555
C36_8 C35_8 1_555 1_555
H19_8 C36_8 1_555 1_555
C37_8 C36_8 1_555 1_555
C38_8 C37_8 1_555 1_555
H20_8 C38_8 1_555 1_555
C39_8 C38_8 1_555 1_555
H21_8 C39_8 1_555 1_555
C40_8 C35_8 1_555 1_555
H22_8 C40_8 1_555 1_555
C41_8 C37_8 1_555 1_555
O73_8 Mo15_8 1_555 1_555
O74_8 P1_13 1_555 1_555
Zn8_8 O82_8 1_555 1_555
Zn16_4 O102_8 1_555 1_555
Zn11_8 O50_8 1_555 1_555
Zn17_4 O125_8 1_555 1_555
Mo22_8 O95_8 1_555 1_555
Mo26_8 O96_8 1_555 1_555
Mo27_8 O84_8 1_555 1_555
Mo28_8 O97_8 1_555 1_555
Mo30_8 O89_8 1_555 1_555
Mo31_8 O74_8 1_555 1_555
Mo32_8 O52_8 1_555 1_555
Mo33_8 O43_8 1_555 1_555
Mo34_8 O73_8 1_555 1_555
Mo35_8 O50_8 1_555 1_555
Mo36_8 O74_8 1_555 1_555
O78_8 C63_8 1_555 1_555
O149_6 C63_8 1_555 1_555
O80_8 C76_8 1_555 1_555
O81_8 Zn11_8 1_555 1_555
O82_8 C83_8 1_555 1_555
O83_8 C83_8 1_555 1_555
O89_8 Mo27_8 1_555 1_555
O94_8 Mo24_8 1_555 1_555
O95_8 Zn8_8 1_555 1_555
O96_8 Mo27_8 1_555 1_555
O97_8 Mo22_8 1_555 1_555
O99_8 Mo26_8 1_555 1_555
O101_8 Mo30_8 1_555 1_555
O104_8 Mo28_8 1_555 1_555
O106_8 Zn16_4 1_555 1_555
O108_8 Mo24_8 1_555 1_555
O109_8 Mo26_8 1_555 1_555
O110_8 Zn8_8 1_555 1_555
O111_8 Mo22_8 1_555 1_555
O114_8 Mo26_8 1_555 1_555
O116_8 Mo34_8 1_555 1_555
O117_8 Mo36_8 1_555 1_555
O118_8 Mo31_8 1_555 1_555
O119_8 Mo31_8 1_555 1_555
O120_8 Mo31_8 1_555 1_555
O121_8 Mo35_8 1_555 1_555
O122_8 Mo15_8 1_555 1_555
O123_8 Zn5_8 1_555 1_555
O124_8 Mo14_8 1_555 1_555
O125_8 Mo14_8 1_555 1_555
O126_8 Mo35_8 1_555 1_555
O127_8 Mo32_8 1_555 1_555
O128_8 Zn17_4 1_555 1_555
O129_8 Zn11_8 1_555 1_555
O130_8 Zn17_4 1_555 1_555
O132_8 Zn5_8 1_555 1_555
O133_8 Mo33_8 1_555 1_555
O134_8 Mo32_8 1_555 1_555
O136_8 Mo22_8 1_555 1_555
O137_8 Zn8_8 1_555 1_555
O138_8 Mo22_8 1_555 1_555
O139_8 Zn16_4 1_555 1_555
C63_8 C64_8 1_555 1_555
C64_8 C65_8 1_555 1_555
C65_8 H34_8 1_555 1_555
C66_8 C65_8 1_555 1_555
C67_8 C66_8 1_555 1_555
H35_8 C67_8 1_555 1_555
C68_8 C67_8 1_555 1_555
H36_8 C68_8 1_555 1_555
C69_8 C64_8 1_555 1_555
H37_8 C69_8 1_555 1_555
C70_8 C66_8 1_555 1_555
C71_8 C70_8 1_555 1_555
H38_8 C71_8 1_555 1_555
C72_8 C71_8 1_555 1_555
C73_8 C72_8 1_555 1_555
H39_8 C73_8 1_555 1_555
C74_8 C73_8 1_555 1_555
C75_8 C70_8 1_555 1_555
H40_8 C75_8 1_555 1_555
C76_8 O81_8 1_555 1_555
C77_8 C74_8 1_555 1_555
C78_8 C77_8 1_555 1_555
H41_8 C78_8 1_555 1_555
C79_8 C78_8 1_555 1_555
C80_8 C79_8 1_555 1_555
H42_8 C80_8 1_555 1_555
C81_8 C80_8 1_555 1_555
H43_8 C81_8 1_555 1_555
C82_8 C77_8 1_555 1_555
H44_8 C82_8 1_555 1_555
C83_8 C79_8 1_555 1_555
Mo6_8 O28_8 1_555 1_555
Mo6_8 O37_8 1_555 1_555
Mo6_8 O64_8 1_555 1_555
Mo8_8 O65_8 1_555 1_555
Mo9_8 O32_8 1_555 1_555
Mo9_8 O35_8 1_555 1_555
Mo9_8 O36_8 1_555 1_555
Mo10_8 O32_8 1_555 1_555
Mo10_8 O34_8 1_555 1_555
Mo10_8 O36_8 1_555 1_555
Mo10_8 O64_8 1_555 1_555
Mo12_8 O35_8 1_555 1_555
Mo12_8 O40_8 1_555 1_555
Mo12_8 O67_8 1_555 1_555
Mo13_8 O55_8 1_555 1_555
Mo15_8 O56_8 1_555 1_555
Mo15_8 O57_8 1_555 1_555
Mo16_8 O55_8 1_555 1_555
Mo16_8 O59_8 1_555 1_555
Mo16_8 O61_8 1_555 1_555
Mo17_8 O62_8 1_555 1_555
Mo17_8 O123_8 1_555 1_555
Mo18_8 O47_8 1_555 1_555
Mo18_8 O53_8 1_555 1_555
Mo18_8 O56_8 1_555 1_555
Mo18_8 O57_8 1_555 1_555
Mo18_8 O62_8 1_555 1_555
P1_13 O62_8 1_555 1_555
P1_13 O73_8 1_555 1_555
O49_8 Mo33_8 1_555 1_555
O59_8 Zn11_8 1_555 1_555
C26_8 C27_8 1_555 1_555
C32_8 C33_8 1_555 1_555
C39_8 C40_8 1_555 1_555
O73_8 Mo32_8 1_555 1_555
O74_8 Mo35_8 1_555 1_555
Mo24_8 O102_8 1_555 1_555
Mo24_8 O111_8 1_555 1_555
Mo24_8 O136_8 1_555 1_555
Mo26_8 O137_8 1_555 1_555
Mo27_8 O106_8 1_555 1_555
Mo27_8 O109_8 1_555 1_555
Mo27_8 O110_8 1_555 1_555
Mo28_8 O106_8 1_555 1_555
Mo28_8 O108_8 1_555 1_555
Mo28_8 O110_8 1_555 1_555
Mo28_8 O136_8 1_555 1_555
Mo30_8 O109_8 1_555 1_555
Mo30_8 O114_8 1_555 1_555
Mo30_8 O139_8 1_555 1_555
Mo31_8 O128_8 1_555 1_555
Mo31_8 O132_8 1_555 1_555
Mo32_8 O125_8 1_555 1_555
Mo33_8 O124_8 1_555 1_555
Mo33_8 O129_8 1_555 1_555
Mo33_8 O130_8 1_555 1_555
Mo34_8 O122_8 1_555 1_555
Mo34_8 O128_8 1_555 1_555
Mo34_8 O132_8 1_555 1_555
Mo34_8 O134_8 1_555 1_555
Mo35_8 O119_8 1_555 1_555
Mo35_8 O123_8 1_555 1_555
Mo36_8 O120_8 1_555 1_555
Mo36_8 O126_8 1_555 1_555
Mo36_8 O129_8 1_555 1_555
Mo36_8 O130_8 1_555 1_555
C68_8 C69_8 1_555 1_555
C72_8 C76_8 1_555 1_555
C74_8 C75_8 1_555 1_555
C81_8 C82_8 1_555 1_555
Zn13_4 O31_8 1_555 1_555
Zn3_8 O19_8 1_555 1_555
Mo1_8 O14_8 1_555 1_555
Mo2_8 O11_8 1_555 1_555
Mo3_8 O12_8 1_555 1_555
Mo5_8 O17_8 1_555 1_555
Mo7_8 O13_8 1_555 1_555
Mo11_8 O12_8 1_555 1_555
O1_8 C1_8 1_555 1_555
O148 C20_8 1_555 1_555
O13_8 Mo2_8 1_555 1_555
O14_8 Mo2_8 1_555 1_555
O16_8 Mo1_8 1_555 1_555
O17_8 Mo3_8 1_555 1_555
O18_8 Mo3_8 1_555 1_555
O19_8 Mo1_8 1_555 1_555
O24_8 Mo7_8 1_555 1_555
O26_8 Mo5_8 1_555 1_555
O29_8 Mo5_8 1_555 1_555
O33_8 Zn3_8 1_555 1_555
O38_8 Mo3_8 1_555 1_555
O39_8 Zn13_4 1_555 1_555
O41_8 Zn13_4 1_555 1_555
O58_8 Zn3_8 1_555 1_555
O63_8 Mo1_8 1_555 1_555
O68_8 Mo11_8 1_555 1_555
C1_8 C2_8 1_555 1_555
C7_8 C2_8 1_555 1_555
H4_8 C7_8 1_555 1_555
H7_8 C13_8 1_555 1_555
C14_8 C12_8 1_555 1_555
C15_8 C14_8 1_555 1_555
H8_8 C15_8 1_555 1_555
C16_8 C15_8 1_555 1_555
C17_8 C16_8 1_555 1_555
H9_6 C17_8 1_555 1_555
C18_6 C17_8 1_555 1_555
H10_6 C18_6 1_555 1_555
C19_8 C14_8 1_555 1_555
H11_8 C19_8 1_555 1_555
C20_8 C16_8 1_555 1_555
O69_8 C20_8 1_555 1_555
O71_8 Zn3_8 1_555 1_555
O72_8 Mo1_8 1_555 1_555
Zn14_2 O105_8 1_555 1_555
Zn9_8 O93_8 1_555 1_555
Mo19_8 O88_8 1_555 1_555
Mo20_8 O85_8 1_555 1_555
Mo21_8 O86_8 1_555 1_555
Mo23_8 O91_8 1_555 1_555
Mo25_8 O87_8 1_555 1_555
Mo29_8 O86_8 1_555 1_555
O75_8 C43_8 1_555 1_555
O146_4 C84_8 1_555 1_555
O147_6 C62_8 1_555 1_555
O87_8 Mo20_8 1_555 1_555
O88_8 Mo20_8 1_555 1_555
O90_8 Mo19_8 1_555 1_555
O91_8 Mo21_8 1_555 1_555
O92_8 Mo21_8 1_555 1_555
O93_8 Mo19_8 1_555 1_555
O98_8 Mo25_8 1_555 1_555
O100_8 Mo23_8 1_555 1_555
O103_8 Mo23_8 1_555 1_555
O107_8 Zn9_8 1_555 1_555
O112_8 Mo21_8 1_555 1_555
O113_8 Zn14_2 1_555 1_555
O115_8 Zn14_2 1_555 1_555
O131_8 Zn9_8 1_555 1_555
O135_8 Mo19_8 1_555 1_555
O140_8 Mo29_8 1_555 1_555
C43_8 C44_8 1_555 1_555
C44_8 C45_8 1_555 1_555
C45_8 H23_8 1_555 1_555
C46_8 C45_8 1_555 1_555
H24_8 C46_8 1_555 1_555
C47_8 C46_8 1_555 1_555
H25_8 C47_8 1_555 1_555
C48_8 C47_8 1_555 1_555
C49_8 C44_8 1_555 1_555
H26_8 C49_8 1_555 1_555
C50_8 C48_8 1_555 1_555
C51_8 C50_8 1_555 1_555
H27_8 C51_8 1_555 1_555
C52_8 C51_8 1_555 1_555
C53_8 C52_8 1_555 1_555
H28_8 C53_8 1_555 1_555
C54_8 C53_8 1_555 1_555
C55_8 C50_8 1_555 1_555
H29_8 C55_8 1_555 1_555
C56_8 C54_8 1_555 1_555
C57_8 C56_8 1_555 1_555
H30_8 C57_8 1_555 1_555
C58_8 C57_8 1_555 1_555
C59_8 C58_8 1_555 1_555
H31_6 C59_8 1_555 1_555
C60_6 C59_8 1_555 1_555
H32_6 C60_6 1_555 1_555
C61_8 C56_8 1_555 1_555
H33_8 C61_8 1_555 1_555
C62_8 C58_8 1_555 1_555
O141_8 C62_8 1_555 1_555
C84_8 C52_8 1_555 1_555
O142_8 C84_8 1_555 1_555
O143_8 Zn9_8 1_555 1_555
O144_8 Mo19_8 1_555 1_555
Mo2_8 O39_8 1_555 1_555
Mo2_8 O58_8 1_555 1_555
Mo2_8 O63_8 1_555 1_555
Mo3_8 O39_8 1_555 1_555
Mo3_8 O58_8 1_555 1_555
Mo5_8 O33_8 1_555 1_555
Mo5_8 O38_8 1_555 1_555
Mo7_8 O41_8 1_555 1_555
Mo7_8 O63_8 1_555 1_555
Mo7_8 O72_8 1_555 1_555
Mo11_8 O26_8 1_555 1_555
Mo11_8 O31_8 1_555 1_555
Mo11_8 O38_8 1_555 1_555
P2_8 O38_8 1_555 1_555
P2_8 O63_8 1_555 1_555
C1_8 O71_8 1_555 1_555
C12_8 C13_8 1_555 1_555
C18_6 C19_8 1_555 1_555
Mo20_8 O113_8 1_555 1_555
Mo20_8 O131_8 1_555 1_555
Mo20_8 O135_8 1_555 1_555
Mo21_8 O113_8 1_555 1_555
Mo21_8 O131_8 1_555 1_555
Mo23_8 O107_8 1_555 1_555
Mo23_8 O112_8 1_555 1_555
Mo25_8 O115_8 1_555 1_555
Mo25_8 O135_8 1_555 1_555
Mo25_8 O144_8 1_555 1_555
Mo29_8 O100_8 1_555 1_555
Mo29_8 O105_8 1_555 1_555
Mo29_8 O112_8 1_555 1_555
P3_8 O112_8 1_555 1_555
P3_8 O135_8 1_555 1_555
C43_8 O143_8 1_555 1_555
C48_8 C49_8 1_555 1_555
C54_8 C55_8 1_555 1_555
C60_6 C61_8 1_555 1_555
H10_7 C18_7 1_555 1_555
H32_7 C60_7 1_555 1_555
H10_8 C18_8 1_555 1_555
H32_8 C60_8 1_555 1_555

#END
