
###############################################################################
#
# This file contains modified crystal structure data generated from the
# MOF subset of the Cambridge Structural Database (CSD) v543 
# hosted by the Cambridge Crystallographic Data Centre (CCDC).
#
# This work is licensed under the Creative Commons
# Attribution-NonCommercial-ShareAlike 4.0 International License.
# To view a copy of this license, visit
# http://creativecommons.org/licenses/by-nc-sa/4.0/
# or send a letter to
# Creative Commons, PO Box 1866, Mountain View, CA 94042, USA.
#
# CIF created using the CSD Python API on 29 September 2022
# The structure has been converted into the P1 space group
# The structure has a 3D framework
# The original CSD entry QEDHOA is in the monoclinic crystal system
# The framework has been calculated to contain at least 10.0% void space
# The void calculation uses a probe of radius 1.32A, grid spacing 0.4
#
###############################################################################

data_QEDHOA
_chemical_formula_moiety         '(C288 H192 I48 N92 Zn24)n'
_symmetry_cell_setting           triclinic
_symmetry_space_group_name_H-M   'P 1'
_symmetry_Int_Tables_number      1
_space_group_name_Hall           'P 1'
loop_
_symmetry_equiv_pos_site_id
_symmetry_equiv_pos_as_xyz
1 x,y,z
_cell_length_a                   35.2568(6)
_cell_length_b                   14.81340(10)
_cell_length_c                   31.5010(5)
_cell_angle_alpha                90
_cell_angle_beta                 102.363(2)
_cell_angle_gamma                90
_cell_volume                     16070.6
loop_
_atom_site_label
_atom_site_type_symbol
_atom_site_fract_x
_atom_site_fract_y
_atom_site_fract_z
I5 I 0.53107(13) 0.16071(19) 0.61805(14)
I6 I 0.62822(18) 0.22988(19) 0.54908(11)
Zn3 Zn 0.5896(2) 0.1245(4) 0.58640(19)
N5 N 0.83238(14) 0.0299(3) 0.89142(16)
N8 N 0.57459(18) 0.0131(3) 0.54655(18)
N10 N 0.62466(17) 0.0567(3) 0.63900(18)
C5 C 0.67670(18) 0.0504(4) 0.70048(19)
H1 H 0.697690 0.080567 0.719003
C13 C 0.65491(19) 0.0943(4) 0.6652(2)
H3 H 0.661850 0.154232 0.659300
C14 C 0.7789(2) 0.0335(4) 0.8312(2)
H4 H 0.762821 0.067826 0.808943
C18 C 0.8084(2) 0.0751(4) 0.8602(2)
H7 H 0.811793 0.138366 0.857940
H21 H 0.624270 0.018602 0.528070
Zn4 Zn 0.8780(2) 0.0945(5) 0.9344(2)
I1 I 0.89268(15) 0.2362(3) 0.89607(18)
H17 H 0.922491 0.024602 0.878135
N12 N 0.9212(5) 0.0054(11) 0.9408(5)
I1_2 I 0.39268(15) 0.2638(3) 0.39607(18)
I2 I 0.35605(14) 0.4063(4) 0.50679(16)
I3 I 0.73053(13) 0.7375(3) 0.29282(14)
I4 I 0.62219(13) 0.6684(3) 0.19634(14)
Zn1 Zn 0.3780(2) 0.4055(5) 0.4344(2)
Zn2 Zn 0.67037(16) 0.6474(4) 0.2666(2)
N1 N 0.52735(14) 0.7225(3) 0.47138(15)
N2 N 0.73461(14) 0.8092(3) 0.80744(15)
N3 N 0.68189(15) 0.8224(3) 0.74713(16)
N4 N 0.72087(14) 0.9500(3) 0.77107(15)
N6 N 0.57793(15) 0.7711(3) 0.43773(18)
N7 N 0.54066(15) 0.6424(3) 0.41101(18)
N9 N 0.68435(16) 0.4922(3) 0.77293(17)
C1 C 0.77269(17) 0.9423(4) 0.83422(19)
N11 N 0.63954(18) 0.6584(3) 0.31779(18)
C2 C 0.55597(18) 0.7800(4) 0.4661(2)
C3 C 0.74066(17) 0.8983(3) 0.80300(18)
C4 C 0.56257(19) 0.8608(4) 0.49469(19)
C6 C 0.66805(18) 0.9630(4) 0.7089(2)
C7 C 0.70556(17) 0.7760(4) 0.77799(19)
C8 C 0.52087(18) 0.6569(4) 0.4414(2)
C9 C 0.69172(18) 0.9088(3) 0.74472(19)
C10 C 0.5348(2) 0.8883(4) 0.5172(2)
H2 H 0.511428 0.855015 0.515319
C11 C 0.56941(18) 0.6998(4) 0.4113(2)
C12 C 0.69774(18) 0.6766(4) 0.7777(2)
C15 C 0.59379(19) 0.6859(4) 0.3786(2)
C16 C 0.72110(19) 0.6185(4) 0.8061(2)
H5 H 0.741997 0.641029 0.827682
C17 C 0.7977(2) 0.8956(4) 0.8667(2)
H6 H 0.794945 0.832318 0.869930
C19 C 0.6619(2) 0.5476(4) 0.7460(2)
H8 H 0.640843 0.523570 0.725099
C20 C 0.8269(2) 0.9425(4) 0.8943(2)
H9 H 0.843803 0.909831 0.916527
C21 C 0.7135(2) 0.5262(4) 0.8025(2)
H10 H 0.729731 0.486134 0.821925
C22 C 0.6683(2) 0.6410(4) 0.7472(2)
H11 H 0.652110 0.679380 0.726843
C23 C 0.5419(2) 0.9663(4) 0.5428(2)
H12 H 0.522783 0.986304 0.557863
C24 C 0.6297(2) 0.7244(5) 0.3843(2)
H13 H 0.639329 0.760863 0.409051
C25 C 0.6357(2) 0.9238(4) 0.6823(3)
H14 H 0.628280 0.863776 0.687527
C26 C 0.4699(5) 0.5904(11) 0.4780(6)
H15 H 0.482284 0.620308 0.504016
C27 C 0.4836(4) 0.6011(11) 0.4414(5)
C28 C 0.4660(5) 0.5586(12) 0.4044(4)
H16 H 0.475623 0.566072 0.378657
C29 C 0.4348(5) 0.5053(11) 0.4041(4)
H17_2 H 0.422491 0.475398 0.378135
N12_2 N 0.4212(5) 0.4946(11) 0.4408(5)
C30 C 0.4388(5) 0.5371(13) 0.4777(5)
H18 H 0.429170 0.529582 0.503495
C31 C 0.6050(2) 0.6215(5) 0.3127(3)
H19 H 0.595627 0.586227 0.287432
C32 C 0.6516(2) 0.7100(5) 0.3540(3)
H20 H 0.676456 0.737381 0.358388
C33 C 0.6009(3) 0.9852(5) 0.5253(3)
C34 C 0.5816(2) 0.6317(6) 0.3427(3)
H22 H 0.557260 0.601560 0.338443
C35 C 0.6147(2) 0.9727(4) 0.6488(3)
H23 H 0.591942 0.946393 0.631528
C36 C 0.5957(2) 0.9101(5) 0.4994(2)
H24 H 0.615304 0.892376 0.484607
Zn5 Zn 0.67037(16) 0.3526(4) 0.7666(2)
N13 N 0.33238(14) 0.4701(3) 0.39142(16)
N14 N 0.68435(16) 0.5078(3) 0.27293(17)
I3_2 I 0.23053(13) 0.2375(3) 0.29282(14)
I4_2 I 0.12219(13) 0.1684(3) 0.19634(14)
I5_2 I 0.03107(13) 0.66071(19) 0.61805(14)
I6_2 I 0.12822(18) 0.72988(19) 0.54908(11)
Zn2_2 Zn 0.17037(16) 0.1474(4) 0.2666(2)
Zn3_2 Zn 0.0896(2) 0.6245(4) 0.58640(19)
N1_2 N 0.02735(14) 0.2225(3) 0.47138(15)
N2_2 N 0.23461(14) 0.3092(3) 0.80744(15)
N3_2 N 0.18189(15) 0.3224(3) 0.74713(16)
N4_2 N 0.22087(14) 0.4500(3) 0.77107(15)
N5_2 N 0.33238(14) 0.5299(3) 0.89142(16)
N6_2 N 0.07793(15) 0.2711(3) 0.43773(18)
N7_2 N 0.04066(15) 0.1424(3) 0.41101(18)
N8_2 N 0.07459(18) 0.5131(3) 0.54655(18)
N10_2 N 0.12466(17) 0.5567(3) 0.63900(18)
C1_2 C 0.27269(17) 0.4423(4) 0.83422(19)
N11_2 N 0.13954(18) 0.1584(3) 0.31779(18)
C2_2 C 0.05597(18) 0.2800(4) 0.4661(2)
C3_2 C 0.24066(17) 0.3983(3) 0.80300(18)
C4_2 C 0.06257(19) 0.3608(4) 0.49469(19)
C5_2 C 0.17670(18) 0.5504(4) 0.70048(19)
H1_2 H 0.197690 0.580567 0.719003
C6_2 C 0.16805(18) 0.4630(4) 0.7089(2)
C7_2 C 0.20556(17) 0.2760(4) 0.77799(19)
C8_2 C 0.02087(18) 0.1569(4) 0.4414(2)
C9_2 C 0.19172(18) 0.4088(3) 0.74472(19)
C10_2 C 0.0348(2) 0.3883(4) 0.5172(2)
H2_2 H 0.011428 0.355015 0.515319
C11_2 C 0.06941(18) 0.1998(4) 0.4113(2)
C12_2 C 0.19774(18) 0.1766(4) 0.7777(2)
C13_2 C 0.15491(19) 0.5943(4) 0.6652(2)
H3_2 H 0.161850 0.654232 0.659300
C14_2 C 0.2789(2) 0.5335(4) 0.8312(2)
H4_2 H 0.262821 0.567826 0.808943
C15_2 C 0.09379(19) 0.1859(4) 0.3786(2)
C16_2 C 0.22110(19) 0.1185(4) 0.8061(2)
H5_2 H 0.241997 0.141029 0.827682
C17_2 C 0.2977(2) 0.3956(4) 0.8667(2)
H6_2 H 0.294945 0.332318 0.869930
C18_2 C 0.3084(2) 0.5751(4) 0.8602(2)
H7_2 H 0.311793 0.638366 0.857940
C19_2 C 0.1619(2) 0.0476(4) 0.7460(2)
H8_2 H 0.140843 0.023570 0.725099
C20_2 C 0.3269(2) 0.4425(4) 0.8943(2)
H9_2 H 0.343803 0.409831 0.916527
C21_2 C 0.2135(2) 0.0262(4) 0.8025(2)
C22_2 C 0.1683(2) 0.1410(4) 0.7472(2)
H11_2 H 0.152110 0.179380 0.726843
C23_2 C 0.0419(2) 0.4663(4) 0.5428(2)
H12_2 H 0.022783 0.486304 0.557863
C24_2 C 0.1297(2) 0.2244(5) 0.3843(2)
H13_2 H 0.139329 0.260863 0.409051
C25_2 C 0.1357(2) 0.4238(4) 0.6823(3)
H14_2 H 0.128280 0.363776 0.687527
C31_2 C 0.1050(2) 0.1215(5) 0.3127(3)
H19_2 H 0.095627 0.086227 0.287432
C32_2 C 0.1516(2) 0.2100(5) 0.3540(3)
H20_2 H 0.176456 0.237381 0.358388
C33_2 C 0.1009(3) 0.4852(5) 0.5253(3)
H21_2 H 0.124270 0.518602 0.528070
C34_2 C 0.0816(2) 0.1317(6) 0.3427(3)
H22_2 H 0.057260 0.101560 0.338443
C35_2 C 0.1147(2) 0.4727(4) 0.6488(3)
H23_2 H 0.091942 0.446393 0.631528
C36_2 C 0.0957(2) 0.4101(5) 0.4994(2)
H24_2 H 0.115304 0.392376 0.484607
Zn4_2 Zn 0.3780(2) 0.5945(5) 0.9344(2)
N14_2 N 0.18435(16) 0.0078(3) 0.27293(17)
I2_2 I 0.35605(14) 0.5937(4) 0.00679(16)
N2_3 N 0.73461(14) 0.1908(3) 0.30744(15)
N3_3 N 0.68189(15) 0.1776(3) 0.24713(16)
N4_3 N 0.72087(14) 0.0500(3) 0.27107(15)
C1_3 C 0.77269(17) 0.0577(4) 0.33422(19)
C3_3 C 0.74066(17) 0.1017(3) 0.30300(18)
C6_3 C 0.66805(18) 0.0370(4) 0.2089(2)
C7_3 C 0.70556(17) 0.2240(4) 0.27799(19)
C9_3 C 0.69172(18) 0.0912(3) 0.24472(19)
C10_3 C 0.5348(2) 0.1117(4) 0.0172(2)
H2_3 H 0.511428 0.144985 0.015319
C12_3 C 0.69774(18) 0.3234(4) 0.2777(2)
C16_3 C 0.72110(19) 0.3815(4) 0.3061(2)
H5_3 H 0.741997 0.358971 0.327682
C17_3 C 0.7977(2) 0.1044(4) 0.3667(2)
H6_3 H 0.794945 0.167682 0.369930
C19_3 C 0.6619(2) 0.4524(4) 0.2460(2)
H8_3 H 0.640843 0.476430 0.225099
C20_3 C 0.8269(2) 0.0575(4) 0.3943(2)
H9_3 H 0.843803 0.090169 0.416527
C21_3 C 0.7135(2) 0.4738(4) 0.3025(2)
H10_2 H 0.729731 0.513866 0.321925
C22_3 C 0.6683(2) 0.3590(4) 0.2472(2)
H11_3 H 0.652110 0.320620 0.226843
C23_3 C 0.5419(2) 0.0337(4) 0.0428(2)
H12_3 H 0.522783 0.013696 0.057863
C25_3 C 0.6357(2) 0.0762(4) 0.1823(3)
H14_3 H 0.628280 0.136224 0.187527
H15_2 H 0.482284 0.379692 0.004016
H18_2 H 0.429170 0.470418 0.003495
C33_3 C 0.6009(3) 0.0148(5) 0.0253(3)
C35_3 C 0.6147(2) 0.0273(4) 0.1488(3)
H23_3 H 0.591942 0.053607 0.131528
I1_3 I 0.39268(15) 0.7362(3) 0.89607(18)
I3_3 I 0.73053(13) 0.2625(3) 0.79282(14)
I4_3 I 0.62219(13) 0.3316(3) 0.69634(14)
N1_3 N 0.52735(14) 0.2775(3) 0.97138(15)
N6_3 N 0.57793(15) 0.2289(3) 0.93773(18)
N7_3 N 0.54066(15) 0.3576(3) 0.91101(18)
N11_3 N 0.63954(18) 0.3416(3) 0.81779(18)
C2_3 C 0.55597(18) 0.2200(4) 0.9661(2)
C4_3 C 0.56257(19) 0.1392(4) 0.99469(19)
C8_3 C 0.52087(18) 0.3431(4) 0.9414(2)
C11_3 C 0.56941(18) 0.3002(4) 0.9113(2)
C15_3 C 0.59379(19) 0.3141(4) 0.8786(2)
C24_3 C 0.6297(2) 0.2756(5) 0.8843(2)
H13_3 H 0.639329 0.239137 0.909051
C26_2 C 0.4699(5) 0.4096(11) 0.9780(6)
C27_2 C 0.4836(4) 0.3989(11) 0.9414(5)
C28_2 C 0.4660(5) 0.4414(12) 0.9044(4)
H16_2 H 0.475623 0.433928 0.878657
C29_2 C 0.4348(5) 0.4947(11) 0.9041(4)
H17_3 H 0.422491 0.524602 0.878135
N12_3 N 0.4212(5) 0.5054(11) 0.9408(5)
C30_2 C 0.4388(5) 0.4629(13) 0.9777(5)
C31_3 C 0.6050(2) 0.3785(5) 0.8127(3)
H19_3 H 0.595627 0.413773 0.787432
C32_3 C 0.6516(2) 0.2900(5) 0.8540(3)
H20_3 H 0.676456 0.262619 0.858388
C34_3 C 0.5816(2) 0.3683(6) 0.8427(3)
H22_3 H 0.557260 0.398440 0.838443
C36_3 C 0.5957(2) 0.0899(5) 0.9994(2)
H24_3 H 0.615304 0.107624 0.984607
H10_3 H 0.229731 0.013866 0.321925
I5_3 I 0.03107(13) 0.33929(19) 0.11805(14)
I6_3 I 0.12822(18) 0.27012(19) 0.04908(11)
Zn3_3 Zn 0.0896(2) 0.3755(4) 0.08640(19)
N2_4 N 0.23461(14) 0.6908(3) 0.30744(15)
N3_4 N 0.18189(15) 0.6776(3) 0.24713(16)
N4_4 N 0.22087(14) 0.5500(3) 0.27107(15)
N8_3 N 0.07459(18) 0.4869(3) 0.04655(18)
N10_3 N 0.12466(17) 0.4433(3) 0.13900(18)
C1_4 C 0.27269(17) 0.5577(4) 0.33422(19)
C3_4 C 0.24066(17) 0.6017(3) 0.30300(18)
C5_3 C 0.17670(18) 0.4496(4) 0.20048(19)
H1_3 H 0.197690 0.419433 0.219003
C6_4 C 0.16805(18) 0.5370(4) 0.2089(2)
C7_4 C 0.20556(17) 0.7240(4) 0.27799(19)
C9_4 C 0.19172(18) 0.5912(3) 0.24472(19)
C10_4 C 0.0348(2) 0.6117(4) 0.0172(2)
H2_4 H 0.011428 0.644985 0.015319
C12_4 C 0.19774(18) 0.8234(4) 0.2777(2)
C13_3 C 0.15491(19) 0.4057(4) 0.1652(2)
H3_3 H 0.161850 0.345768 0.159300
C14_3 C 0.2789(2) 0.4665(4) 0.3312(2)
H4_3 H 0.262821 0.432174 0.308943
C16_4 C 0.22110(19) 0.8815(4) 0.3061(2)
H5_4 H 0.241997 0.858971 0.327682
C17_4 C 0.2977(2) 0.6044(4) 0.3667(2)
H6_4 H 0.294945 0.667682 0.369930
C18_3 C 0.3084(2) 0.4249(4) 0.3602(2)
H7_3 H 0.311793 0.361634 0.357940
C19_4 C 0.1619(2) 0.9524(4) 0.2460(2)
H8_4 H 0.140843 0.976430 0.225099
C20_4 C 0.3269(2) 0.5575(4) 0.3943(2)
H9_4 H 0.343803 0.590169 0.416527
C21_4 C 0.2135(2) 0.9738(4) 0.3025(2)
C22_4 C 0.1683(2) 0.8590(4) 0.2472(2)
H11_4 H 0.152110 0.820620 0.226843
C23_4 C 0.0419(2) 0.5337(4) 0.0428(2)
H12_4 H 0.022783 0.513696 0.057863
C25_4 C 0.1357(2) 0.5762(4) 0.1823(3)
H14_4 H 0.128280 0.636224 0.187527
C33_4 C 0.1009(3) 0.5148(5) 0.0253(3)
H21_3 H 0.124270 0.481398 0.028070
C35_4 C 0.1147(2) 0.5273(4) 0.1488(3)
H23_4 H 0.091942 0.553607 0.131528
I5_4 I 0.46893(13) 0.16071(19) 0.88195(14)
I6_4 I 0.37178(18) 0.22988(19) 0.95092(11)
Zn3_4 Zn 0.4104(2) 0.1245(4) 0.91360(19)
N5_3 N 0.16762(14) 0.0299(3) 0.60858(16)
N8_4 N 0.42541(18) 0.0131(3) 0.95345(18)
N10_4 N 0.37534(17) 0.0567(3) 0.86100(18)
C5_4 C 0.32330(18) 0.0504(4) 0.79952(19)
H1_4 H 0.302310 0.080567 0.780997
C13_4 C 0.34509(19) 0.0943(4) 0.8348(2)
H3_4 H 0.338150 0.154232 0.840700
C14_4 C 0.2211(2) 0.0335(4) 0.6688(2)
H4_4 H 0.237179 0.067826 0.691057
C18_4 C 0.1916(2) 0.0751(4) 0.6398(2)
H7_4 H 0.188207 0.138366 0.642060
H21_4 H 0.375730 0.018602 0.971930
Zn4_3 Zn 0.1220(2) 0.0945(5) 0.5656(2)
I1_4 I 0.10732(15) 0.2362(3) 0.60393(18)
I2_3 I 0.14395(14) 0.0937(4) 0.49321(16)
H17_4 H 0.077509 0.024602 0.621865
N12_4 N 0.0788(5) 0.0054(11) 0.5592(5)
I1_5 I 0.60732(15) 0.2638(3) 0.10393(18)
I3_4 I 0.26947(13) 0.7375(3) 0.20718(14)
I4_4 I 0.37781(13) 0.6684(3) 0.30366(14)
Zn1_2 Zn 0.6220(2) 0.4055(5) 0.0656(2)
Zn2_3 Zn 0.32963(16) 0.6474(4) 0.2334(2)
N1_4 N 0.47265(14) 0.7225(3) 0.02862(15)
N6_4 N 0.42207(15) 0.7711(3) 0.06227(18)
N7_4 N 0.45934(15) 0.6424(3) 0.08899(18)
N11_4 N 0.36046(18) 0.6584(3) 0.18221(18)
C2_4 C 0.44403(18) 0.7800(4) 0.0339(2)
C4_4 C 0.43743(19) 0.8608(4) 0.00531(19)
C8_4 C 0.47913(18) 0.6569(4) 0.0586(2)
C11_4 C 0.43059(18) 0.6998(4) 0.0887(2)
C15_4 C 0.40621(19) 0.6859(4) 0.1214(2)
C24_4 C 0.3703(2) 0.7244(5) 0.1157(2)
H13_4 H 0.360671 0.760863 0.090949
C26_3 C 0.5301(5) 0.5904(11) 0.0220(6)
C27_3 C 0.5164(4) 0.6011(11) 0.0586(5)
C28_3 C 0.5340(5) 0.5586(12) 0.0956(4)
H16_3 H 0.524377 0.566072 0.121343
C29_3 C 0.5652(5) 0.5053(11) 0.0959(4)
H17_5 H 0.577509 0.475398 0.121865
N12_5 N 0.5788(5) 0.4946(11) 0.0592(5)
C30_3 C 0.5612(5) 0.5371(13) 0.0223(5)
C31_4 C 0.3950(2) 0.6215(5) 0.1873(3)
H19_4 H 0.404373 0.586227 0.212568
C32_4 C 0.3484(2) 0.7100(5) 0.1460(3)
H20_4 H 0.323544 0.737381 0.141612
C34_4 C 0.4184(2) 0.6317(6) 0.1573(3)
H22_4 H 0.442740 0.601560 0.161557
C36_4 C 0.4043(2) 0.9101(5) 0.0006(2)
H24_4 H 0.384696 0.892376 0.015393
N13_2 N 0.66762(14) 0.4701(3) 0.10858(16)
N14_3 N 0.31565(16) 0.5078(3) 0.22707(17)
I2_4 I 0.64395(14) 0.4063(4) 0.99321(16)
N2_5 N 0.26539(14) 0.8092(3) 0.69256(15)
N3_5 N 0.31811(15) 0.8224(3) 0.75287(16)
N4_5 N 0.27913(14) 0.9500(3) 0.72893(15)
N9_2 N 0.31565(16) 0.4922(3) 0.72707(17)
C1_5 C 0.22731(17) 0.9423(4) 0.66578(19)
C3_5 C 0.25934(17) 0.8983(3) 0.69700(18)
C6_5 C 0.33195(18) 0.9630(4) 0.7911(2)
C7_5 C 0.29444(17) 0.7760(4) 0.72201(19)
C9_5 C 0.30828(18) 0.9088(3) 0.75528(19)
C10_5 C 0.4652(2) 0.8883(4) 0.9828(2)
H2_5 H 0.488572 0.855015 0.984681
C12_5 C 0.30226(18) 0.6766(4) 0.7223(2)
C16_5 C 0.27890(19) 0.6185(4) 0.6939(2)
H5_5 H 0.258003 0.641029 0.672318
C17_5 C 0.2023(2) 0.8956(4) 0.6333(2)
H6_5 H 0.205055 0.832318 0.630070
C19_5 C 0.3381(2) 0.5476(4) 0.7540(2)
H8_5 H 0.359157 0.523570 0.774901
C20_5 C 0.1731(2) 0.9425(4) 0.6057(2)
H9_5 H 0.156197 0.909831 0.583473
C21_5 C 0.2865(2) 0.5262(4) 0.6975(2)
H10_4 H 0.270269 0.486134 0.678075
C22_5 C 0.3317(2) 0.6410(4) 0.7528(2)
H11_5 H 0.347890 0.679380 0.773157
C23_5 C 0.4581(2) 0.9663(4) 0.9572(2)
H12_5 H 0.477217 0.986304 0.942137
C25_5 C 0.3643(2) 0.9238(4) 0.8177(3)
H14_5 H 0.371720 0.863776 0.812473
H15_3 H 0.517716 0.620308 0.995984
H18_3 H 0.570830 0.529582 0.996505
C33_5 C 0.3991(3) 0.9852(5) 0.9747(3)
C35_5 C 0.3853(2) 0.9727(4) 0.8512(3)
H23_5 H 0.408058 0.946393 0.868472
Zn5_2 Zn 0.32963(16) 0.3526(4) 0.7334(2)
I5_5 I 0.96893(13) 0.66071(19) 0.88195(14)
I6_5 I 0.87178(18) 0.72988(19) 0.95092(11)
Zn3_5 Zn 0.9104(2) 0.6245(4) 0.91360(19)
N2_6 N 0.76539(14) 0.3092(3) 0.69256(15)
N3_6 N 0.81811(15) 0.3224(3) 0.75287(16)
N4_6 N 0.77913(14) 0.4500(3) 0.72893(15)
N5_4 N 0.66762(14) 0.5299(3) 0.60858(16)
N8_5 N 0.92541(18) 0.5131(3) 0.95345(18)
N10_5 N 0.87534(17) 0.5567(3) 0.86100(18)
C1_6 C 0.72731(17) 0.4423(4) 0.66578(19)
C3_6 C 0.75934(17) 0.3983(3) 0.69700(18)
C5_5 C 0.82330(18) 0.5504(4) 0.79952(19)
H1_5 H 0.802310 0.580567 0.780997
C6_6 C 0.83195(18) 0.4630(4) 0.7911(2)
C7_6 C 0.79444(17) 0.2760(4) 0.72201(19)
C9_6 C 0.80828(18) 0.4088(3) 0.75528(19)
C10_6 C 0.9652(2) 0.3883(4) 0.9828(2)
H2_6 H 0.988572 0.355015 0.984681
C12_6 C 0.80226(18) 0.1766(4) 0.7223(2)
C13_5 C 0.84509(19) 0.5943(4) 0.8348(2)
H3_5 H 0.838150 0.654232 0.840700
C14_5 C 0.7211(2) 0.5335(4) 0.6688(2)
H4_5 H 0.737179 0.567826 0.691057
C16_6 C 0.77890(19) 0.1185(4) 0.6939(2)
H5_6 H 0.758003 0.141029 0.672318
C17_6 C 0.7023(2) 0.3956(4) 0.6333(2)
H6_6 H 0.705055 0.332318 0.630070
C18_5 C 0.6916(2) 0.5751(4) 0.6398(2)
H7_5 H 0.688207 0.638366 0.642060
C19_6 C 0.8381(2) 0.0476(4) 0.7540(2)
H8_6 H 0.859157 0.023570 0.774901
C20_6 C 0.6731(2) 0.4425(4) 0.6057(2)
H9_6 H 0.656197 0.409831 0.583473
C21_6 C 0.7865(2) 0.0262(4) 0.6975(2)
C22_6 C 0.8317(2) 0.1410(4) 0.7528(2)
H11_6 H 0.847890 0.179380 0.773157
C23_6 C 0.9581(2) 0.4663(4) 0.9572(2)
H12_6 H 0.977217 0.486304 0.942137
C25_6 C 0.8643(2) 0.4238(4) 0.8177(3)
H14_6 H 0.871720 0.363776 0.812473
C33_6 C 0.8991(3) 0.4852(5) 0.9747(3)
H21_5 H 0.875730 0.518602 0.971930
C35_6 C 0.8853(2) 0.4727(4) 0.8512(3)
H23_6 H 0.908058 0.446393 0.868472
Zn4_4 Zn 0.6220(2) 0.5945(5) 0.5656(2)
N9_3 N 0.81565(16) 0.9922(3) 0.72707(17)
H10_5 H 0.770269 0.986134 0.678075
Zn5_3 Zn 0.82963(16) 0.8526(4) 0.7334(2)
I1_6 I 0.60732(15) 0.7362(3) 0.60393(18)
I2_5 I 0.64395(14) 0.5937(4) 0.49321(16)
I3_5 I 0.26947(13) 0.2625(3) 0.70718(14)
I4_5 I 0.37781(13) 0.3316(3) 0.80366(14)
N1_5 N 0.47265(14) 0.2775(3) 0.52862(15)
N2_7 N 0.26539(14) 0.1908(3) 0.19256(15)
N3_7 N 0.31811(15) 0.1776(3) 0.25287(16)
N4_7 N 0.27913(14) 0.0500(3) 0.22893(15)
N6_5 N 0.42207(15) 0.2289(3) 0.56227(18)
N7_5 N 0.45934(15) 0.3576(3) 0.58899(18)
C1_7 C 0.22731(17) 0.0577(4) 0.16578(19)
N11_5 N 0.36046(18) 0.3416(3) 0.68221(18)
C2_5 C 0.44403(18) 0.2200(4) 0.5339(2)
C3_7 C 0.25934(17) 0.1017(3) 0.19700(18)
C4_5 C 0.43743(19) 0.1392(4) 0.50531(19)
C6_7 C 0.33195(18) 0.0370(4) 0.2911(2)
C7_7 C 0.29444(17) 0.2240(4) 0.22201(19)
C8_5 C 0.47913(18) 0.3431(4) 0.5586(2)
C9_7 C 0.30828(18) 0.0912(3) 0.25528(19)
C10_7 C 0.4652(2) 0.1117(4) 0.4828(2)
H2_7 H 0.488572 0.144985 0.484681
C11_5 C 0.43059(18) 0.3002(4) 0.5887(2)
C12_7 C 0.30226(18) 0.3234(4) 0.2223(2)
C15_5 C 0.40621(19) 0.3141(4) 0.6214(2)
C16_7 C 0.27890(19) 0.3815(4) 0.1939(2)
H5_7 H 0.258003 0.358971 0.172318
C17_7 C 0.2023(2) 0.1044(4) 0.1333(2)
H6_7 H 0.205055 0.167682 0.130070
C19_7 C 0.3381(2) 0.4524(4) 0.2540(2)
H8_7 H 0.359157 0.476430 0.274901
C20_7 C 0.1731(2) 0.0575(4) 0.1057(2)
H9_7 H 0.156197 0.090169 0.083473
C21_7 C 0.2865(2) 0.4738(4) 0.1975(2)
H10_6 H 0.270269 0.513866 0.178075
C22_7 C 0.3317(2) 0.3590(4) 0.2528(2)
H11_7 H 0.347890 0.320620 0.273157
C23_7 C 0.4581(2) 0.0337(4) 0.4572(2)
H12_7 H 0.477217 0.013696 0.442137
C24_5 C 0.3703(2) 0.2756(5) 0.6157(2)
H13_5 H 0.360671 0.239137 0.590949
C25_7 C 0.3643(2) 0.0762(4) 0.3177(3)
H14_7 H 0.371720 0.136224 0.312473
C26_4 C 0.5301(5) 0.4096(11) 0.5220(6)
H15_4 H 0.517716 0.379692 0.495984
C27_4 C 0.5164(4) 0.3989(11) 0.5586(5)
C28_4 C 0.5340(5) 0.4414(12) 0.5956(4)
H16_4 H 0.524377 0.433928 0.621343
C29_4 C 0.5652(5) 0.4947(11) 0.5959(4)
H17_6 H 0.577509 0.524602 0.621865
N12_6 N 0.5788(5) 0.5054(11) 0.5592(5)
C30_4 C 0.5612(5) 0.4629(13) 0.5223(5)
H18_4 H 0.570830 0.470418 0.496505
C31_5 C 0.3950(2) 0.3785(5) 0.6873(3)
H19_5 H 0.404373 0.413773 0.712568
C32_5 C 0.3484(2) 0.2900(5) 0.6460(3)
H20_5 H 0.323544 0.262619 0.641612
C33_7 C 0.3991(3) 0.0148(5) 0.4747(3)
C34_5 C 0.4184(2) 0.3683(6) 0.6573(3)
H22_5 H 0.442740 0.398440 0.661557
C35_7 C 0.3853(2) 0.0273(4) 0.3512(3)
H23_7 H 0.408058 0.053607 0.368472
C36_5 C 0.4043(2) 0.0899(5) 0.5006(2)
H24_5 H 0.384696 0.107624 0.515393
I3_6 I 0.76947(13) 0.7625(3) 0.70718(14)
I4_6 I 0.87781(13) 0.8316(3) 0.80366(14)
I5_6 I 0.96893(13) 0.33929(19) 0.38195(14)
I6_6 I 0.87178(18) 0.27012(19) 0.45092(11)
Zn3_6 Zn 0.9104(2) 0.3755(4) 0.41360(19)
N1_6 N 0.97265(14) 0.7775(3) 0.52862(15)
N2_8 N 0.76539(14) 0.6908(3) 0.19256(15)
N3_8 N 0.81811(15) 0.6776(3) 0.25287(16)
N4_8 N 0.77913(14) 0.5500(3) 0.22893(15)
N6_6 N 0.92207(15) 0.7289(3) 0.56227(18)
N7_6 N 0.95934(15) 0.8576(3) 0.58899(18)
N8_6 N 0.92541(18) 0.4869(3) 0.45345(18)
N10_6 N 0.87534(17) 0.4433(3) 0.36100(18)
C1_8 C 0.72731(17) 0.5577(4) 0.16578(19)
N11_6 N 0.86046(18) 0.8416(3) 0.68221(18)
C2_6 C 0.94403(18) 0.7200(4) 0.5339(2)
C3_8 C 0.75934(17) 0.6017(3) 0.19700(18)
C4_6 C 0.93743(19) 0.6392(4) 0.50531(19)
C5_6 C 0.82330(18) 0.4496(4) 0.29952(19)
H1_6 H 0.802310 0.419433 0.280997
C6_8 C 0.83195(18) 0.5370(4) 0.2911(2)
C7_8 C 0.79444(17) 0.7240(4) 0.22201(19)
C8_6 C 0.97913(18) 0.8431(4) 0.5586(2)
C9_8 C 0.80828(18) 0.5912(3) 0.25528(19)
C10_8 C 0.9652(2) 0.6117(4) 0.4828(2)
H2_8 H 0.988572 0.644985 0.484681
C11_6 C 0.93059(18) 0.8002(4) 0.5887(2)
C12_8 C 0.80226(18) 0.8234(4) 0.2223(2)
C13_6 C 0.84509(19) 0.4057(4) 0.3348(2)
H3_6 H 0.838150 0.345768 0.340700
C14_6 C 0.7211(2) 0.4665(4) 0.1688(2)
H4_6 H 0.737179 0.432174 0.191057
C15_6 C 0.90621(19) 0.8141(4) 0.6214(2)
C16_8 C 0.77890(19) 0.8815(4) 0.1939(2)
H5_8 H 0.758003 0.858971 0.172318
C17_8 C 0.7023(2) 0.6044(4) 0.1333(2)
H6_8 H 0.705055 0.667682 0.130070
C18_6 C 0.6916(2) 0.4249(4) 0.1398(2)
H7_6 H 0.688207 0.361634 0.142060
C19_8 C 0.8381(2) 0.9524(4) 0.2540(2)
H8_8 H 0.859157 0.976430 0.274901
C20_8 C 0.6731(2) 0.5575(4) 0.1057(2)
H9_8 H 0.656197 0.590169 0.083473
C21_8 C 0.7865(2) 0.9738(4) 0.1975(2)
C22_8 C 0.8317(2) 0.8590(4) 0.2528(2)
H11_8 H 0.847890 0.820620 0.273157
C23_8 C 0.9581(2) 0.5337(4) 0.4572(2)
H12_8 H 0.977217 0.513696 0.442137
C24_6 C 0.8703(2) 0.7756(5) 0.6157(2)
H13_6 H 0.860671 0.739137 0.590949
C25_8 C 0.8643(2) 0.5762(4) 0.3177(3)
H14_8 H 0.871720 0.636224 0.312473
C31_6 C 0.8950(2) 0.8785(5) 0.6873(3)
H19_6 H 0.904373 0.913773 0.712568
C32_6 C 0.8484(2) 0.7900(5) 0.6460(3)
H20_6 H 0.823544 0.762619 0.641612
C33_8 C 0.8991(3) 0.5148(5) 0.4747(3)
H21_6 H 0.875730 0.481398 0.471930
C34_6 C 0.9184(2) 0.8683(6) 0.6573(3)
H22_6 H 0.942740 0.898440 0.661557
C35_8 C 0.8853(2) 0.5273(4) 0.3512(3)
H23_8 H 0.908058 0.553607 0.368472
C36_6 C 0.9043(2) 0.5899(5) 0.5006(2)
H24_6 H 0.884696 0.607624 0.515393
N9_4 N 0.18435(16) 0.9922(3) 0.77293(17)
H10_7 H 0.229731 0.986134 0.821925
Zn5_4 Zn 0.17037(16) 0.8526(4) 0.7666(2)
I3_7 I 0.23053(13) 0.7625(3) 0.79282(14)
I4_7 I 0.12219(13) 0.8316(3) 0.69634(14)
N1_7 N 0.02735(14) 0.7775(3) 0.97138(15)
N6_7 N 0.07793(15) 0.7289(3) 0.93773(18)
N7_7 N 0.04066(15) 0.8576(3) 0.91101(18)
N11_7 N 0.13954(18) 0.8416(3) 0.81779(18)
C2_7 C 0.05597(18) 0.7200(4) 0.9661(2)
C4_7 C 0.06257(19) 0.6392(4) 0.99469(19)
C8_7 C 0.02087(18) 0.8431(4) 0.9414(2)
C11_7 C 0.06941(18) 0.8002(4) 0.9113(2)
C15_7 C 0.09379(19) 0.8141(4) 0.8786(2)
C24_7 C 0.1297(2) 0.7756(5) 0.8843(2)
H13_7 H 0.139329 0.739137 0.909051
C31_7 C 0.1050(2) 0.8785(5) 0.8127(3)
H19_7 H 0.095627 0.913773 0.787432
C32_7 C 0.1516(2) 0.7900(5) 0.8540(3)
H20_7 H 0.176456 0.762619 0.858388
C34_7 C 0.0816(2) 0.8683(6) 0.8427(3)
H22_7 H 0.057260 0.898440 0.838443
C36_7 C 0.0957(2) 0.5899(5) 0.9994(2)
H24_7 H 0.115304 0.607624 0.984607
C26_5 C 0.9699(5) 0.0904(11) 0.4780(6)
H15_5 H 0.982284 0.120308 0.504016
C27_5 C 0.9836(4) 0.1011(11) 0.4414(5)
C28_5 C 0.9660(5) 0.0586(12) 0.4044(4)
H16_5 H 0.975623 0.066072 0.378657
C29_5 C 0.9348(5) 0.0053(11) 0.4041(4)
C30_5 C 0.9388(5) 0.0371(13) 0.4777(5)
H18_5 H 0.929170 0.029582 0.503495
I1_7 I 0.89268(15) 0.7638(3) 0.39607(18)
I2_6 I 0.85605(14) 0.9063(4) 0.50679(16)
Zn1_3 Zn 0.8780(2) 0.9055(5) 0.4344(2)
H17_7 H 0.922491 0.975398 0.378135
N12_7 N 0.9212(5) 0.9946(11) 0.4408(5)
N13_3 N 0.83238(14) 0.9701(3) 0.39142(16)
I5_7 I 0.53107(13) 0.83929(19) 0.11805(14)
I6_7 I 0.62822(18) 0.77012(19) 0.04908(11)
Zn3_7 Zn 0.5896(2) 0.8755(4) 0.08640(19)
N8_7 N 0.57459(18) 0.9869(3) 0.04655(18)
N10_7 N 0.62466(17) 0.9433(3) 0.13900(18)
C5_7 C 0.67670(18) 0.9496(4) 0.20048(19)
H1_7 H 0.697690 0.919433 0.219003
C13_7 C 0.65491(19) 0.9057(4) 0.1652(2)
H3_7 H 0.661850 0.845768 0.159300
C14_7 C 0.7789(2) 0.9665(4) 0.3312(2)
H4_7 H 0.762821 0.932174 0.308943
C18_7 C 0.8084(2) 0.9249(4) 0.3602(2)
H7_7 H 0.811793 0.861634 0.357940
H21_7 H 0.624270 0.981398 0.028070
C26_6 C 0.0301(5) 0.0904(11) 0.0220(6)
C27_6 C 0.0164(4) 0.1011(11) 0.0586(5)
C28_6 C 0.0340(5) 0.0586(12) 0.0956(4)
H16_6 H 0.024377 0.066072 0.121343
C29_6 C 0.0652(5) 0.0053(11) 0.0959(4)
C30_6 C 0.0612(5) 0.0371(13) 0.0223(5)
H15_6 H 0.017716 0.120308 0.995984
H18_6 H 0.070830 0.029582 0.996505
I1_8 I 0.10732(15) 0.7638(3) 0.10393(18)
Zn1_4 Zn 0.1220(2) 0.9055(5) 0.0656(2)
H17_8 H 0.077509 0.975398 0.121865
N12_8 N 0.0788(5) 0.9946(11) 0.0592(5)
N13_4 N 0.16762(14) 0.9701(3) 0.10858(16)
I5_8 I 0.46893(13) 0.83929(19) 0.38195(14)
I6_8 I 0.37178(18) 0.77012(19) 0.45092(11)
Zn3_8 Zn 0.4104(2) 0.8755(4) 0.41360(19)
N8_8 N 0.42541(18) 0.9869(3) 0.45345(18)
N10_8 N 0.37534(17) 0.9433(3) 0.36100(18)
C5_8 C 0.32330(18) 0.9496(4) 0.29952(19)
H1_8 H 0.302310 0.919433 0.280997
C13_8 C 0.34509(19) 0.9057(4) 0.3348(2)
H3_8 H 0.338150 0.845768 0.340700
C14_8 C 0.2211(2) 0.9665(4) 0.1688(2)
H4_8 H 0.237179 0.932174 0.191057
C18_8 C 0.1916(2) 0.9249(4) 0.1398(2)
H7_8 H 0.188207 0.861634 0.142060
H21_8 H 0.375730 0.981398 0.471930
I2_7 I 0.14395(14) 0.9063(4) 0.99321(16)
I3_8 I 0.76947(13) 0.2375(3) 0.20718(14)
I4_8 I 0.87781(13) 0.1684(3) 0.30366(14)
Zn2_4 Zn 0.82963(16) 0.1474(4) 0.2334(2)
N1_8 N 0.97265(14) 0.2225(3) 0.02862(15)
N6_8 N 0.92207(15) 0.2711(3) 0.06227(18)
N7_8 N 0.95934(15) 0.1424(3) 0.08899(18)
N11_8 N 0.86046(18) 0.1584(3) 0.18221(18)
C2_8 C 0.94403(18) 0.2800(4) 0.0339(2)
C4_8 C 0.93743(19) 0.3608(4) 0.00531(19)
C8_8 C 0.97913(18) 0.1569(4) 0.0586(2)
C11_8 C 0.93059(18) 0.1998(4) 0.0887(2)
C15_8 C 0.90621(19) 0.1859(4) 0.1214(2)
C24_8 C 0.8703(2) 0.2244(5) 0.1157(2)
H13_8 H 0.860671 0.260863 0.090949
C31_8 C 0.8950(2) 0.1215(5) 0.1873(3)
H19_8 H 0.904373 0.086227 0.212568
C32_8 C 0.8484(2) 0.2100(5) 0.1460(3)
H20_8 H 0.823544 0.237381 0.141612
C34_8 C 0.9184(2) 0.1317(6) 0.1573(3)
H22_8 H 0.942740 0.101560 0.161557
C36_8 C 0.9043(2) 0.4101(5) 0.0006(2)
H24_8 H 0.884696 0.392376 0.015393
N14_4 N 0.81565(16) 0.0078(3) 0.22707(17)
H10_8 H 0.770269 0.013866 0.178075
C26_7 C 0.0301(5) 0.9096(11) 0.5220(6)
H15_7 H 0.017716 0.879692 0.495984
C27_7 C 0.0164(4) 0.8989(11) 0.5586(5)
C28_7 C 0.0340(5) 0.9414(12) 0.5956(4)
H16_7 H 0.024377 0.933928 0.621343
C29_7 C 0.0652(5) 0.9947(11) 0.5959(4)
C30_7 C 0.0612(5) 0.9629(13) 0.5223(5)
H18_7 H 0.070830 0.970418 0.496505
I2_8 I 0.85605(14) 0.0937(4) 0.00679(16)
H15_8 H 0.982284 0.879692 0.004016
H18_8 H 0.929170 0.970418 0.003495
C26_8 C 0.9699(5) 0.9096(11) 0.9780(6)
C27_8 C 0.9836(4) 0.8989(11) 0.9414(5)
C28_8 C 0.9660(5) 0.9414(12) 0.9044(4)
H16_8 H 0.975623 0.933928 0.878657
C29_8 C 0.9348(5) 0.9947(11) 0.9041(4)
C30_8 C 0.9388(5) 0.9629(13) 0.9777(5)
loop_
_geom_bond_atom_site_label_1
_geom_bond_atom_site_label_2
_geom_bond_site_symmetry_1
_geom_bond_site_symmetry_2
I5 Zn3 1_555 1_555
I6 Zn3 1_555 1_555
Zn3 N8 1_555 1_555
N5 C18 1_555 1_555
N10 Zn3 1_555 1_555
C5 H1 1_555 1_555
C13 N10 1_555 1_555
H3 C13 1_555 1_555
H4 C14 1_555 1_555
C18 C14 1_555 1_555
H7 C18 1_555 1_555
Zn4 N5 1_555 1_555
C5 C13 1_555 1_555
I1 Zn4 1_555 1_555
Zn4 N12 1_555 1_555
I1_2 Zn1 1_555 1_555
I2 Zn1 1_555 1_555
I3 Zn2 1_555 1_555
I4 Zn2 1_555 1_555
Zn1 N12_2 1_555 1_555
Zn2 N11 1_555 1_555
N1 C2 1_555 1_555
N2 C3 1_555 1_555
N3 C7 1_555 1_555
N4 C3 1_555 1_555
N6 C2 1_555 1_555
N7 C8 1_555 1_555
N9 C19 1_555 1_555
C1 C3 1_555 1_555
N11 C31 1_555 1_555
C2 C4 1_555 1_555
C4 C10 1_555 1_555
C7 N2 1_555 1_555
C8 N1 1_555 1_555
C9 N3 1_555 1_555
C10 H2 1_555 1_555
C11 N6 1_555 1_555
C12 C7 1_555 1_555
C15 C11 1_555 1_555
C16 C12 1_555 1_555
H5 C16 1_555 1_555
C17 C1 1_555 1_555
H6 C17 1_555 1_555
C19 H8 1_555 1_555
H9 C20 1_555 1_555
C21 N9 1_555 1_555
H10 C21 1_555 1_555
C22 C12 1_555 1_555
H11 C22 1_555 1_555
C23 C10 1_555 1_555
H12 C23 1_555 1_555
C24 C15 1_555 1_555
H13 C24 1_555 1_555
C25 C6 1_555 1_555
H14 C25 1_555 1_555
C26 H15 1_555 1_555
C27 C8 1_555 1_555
C28 C27 1_555 1_555
H16 C28 1_555 1_555
C29 C28 1_555 1_555
H17_2 C29 1_555 1_555
N12_2 C29 1_555 1_555
C30 C26 1_555 1_555
H18 C30 1_555 1_555
C31 H19 1_555 1_555
C32 N11 1_555 1_555
H20 C32 1_555 1_555
C34 C15 1_555 1_555
H22 C34 1_555 1_555
H23 C35 1_555 1_555
C36 C4 1_555 1_555
H24 C36 1_555 1_555
Zn5 N9 1_555 1_555
N13 Zn1 1_555 1_555
N14 Zn2 1_555 1_555
N4 C9 1_555 1_555
N7 C11 1_555 1_555
C6 C9 1_555 1_555
C16 C21 1_555 1_555
C17 C20 1_555 1_555
C19 C22 1_555 1_555
C24 C32 1_555 1_555
C25 C35 1_555 1_555
C26 C27 1_555 1_555
N12_2 C30 1_555 1_555
C31 C34 1_555 1_555
C33 C36 1_555 1_555
I3_2 Zn2_2 1_555 1_555
I4_2 Zn2_2 1_555 1_555
I5_2 Zn3_2 1_555 1_555
I6_2 Zn3_2 1_555 1_555
Zn2_2 N11_2 1_555 1_555
Zn3_2 N8_2 1_555 1_555
N1_2 C2_2 1_555 1_555
N2_2 C3_2 1_555 1_555
N3_2 C7_2 1_555 1_555
N4_2 C3_2 1_555 1_555
N5_2 C18_2 1_555 1_555
N6_2 C2_2 1_555 1_555
N7_2 C8_2 1_555 1_555
N8_2 C23_2 1_555 1_555
N10_2 Zn3_2 1_555 1_555
C1_2 C3_2 1_555 1_555
N11_2 C31_2 1_555 1_555
C2_2 C4_2 1_555 1_555
C4_2 C10_2 1_555 1_555
C5_2 H1_2 1_555 1_555
C6_2 C5_2 1_555 1_555
C7_2 N2_2 1_555 1_555
C8_2 N1_2 1_555 1_555
C9_2 N3_2 1_555 1_555
C10_2 H2_2 1_555 1_555
C11_2 N6_2 1_555 1_555
C12_2 C7_2 1_555 1_555
C13_2 N10_2 1_555 1_555
H3_2 C13_2 1_555 1_555
C14_2 C1_2 1_555 1_555
H4_2 C14_2 1_555 1_555
C15_2 C11_2 1_555 1_555
C16_2 C12_2 1_555 1_555
H5_2 C16_2 1_555 1_555
C17_2 C1_2 1_555 1_555
H6_2 C17_2 1_555 1_555
C18_2 C14_2 1_555 1_555
H7_2 C18_2 1_555 1_555
C19_2 H8_2 1_555 1_555
C20_2 N5_2 1_555 1_555
H9_2 C20_2 1_555 1_555
C22_2 C12_2 1_555 1_555
H11_2 C22_2 1_555 1_555
C23_2 C10_2 1_555 1_555
H12_2 C23_2 1_555 1_555
C24_2 C15_2 1_555 1_555
H13_2 C24_2 1_555 1_555
C25_2 C6_2 1_555 1_555
H14_2 C25_2 1_555 1_555
C31_2 H19_2 1_555 1_555
C32_2 N11_2 1_555 1_555
H20_2 C32_2 1_555 1_555
C33_2 N8_2 1_555 1_555
H21_2 C33_2 1_555 1_555
C34_2 C15_2 1_555 1_555
H22_2 C34_2 1_555 1_555
C35_2 N10_2 1_555 1_555
H23_2 C35_2 1_555 1_555
C36_2 C4_2 1_555 1_555
H24_2 C36_2 1_555 1_555
Zn4_2 N5_2 1_555 1_555
N14_2 Zn2_2 1_555 1_555
N4_2 C9_2 1_555 1_555
N7_2 C11_2 1_555 1_555
C5_2 C13_2 1_555 1_555
C6_2 C9_2 1_555 1_555
C16_2 C21_2 1_555 1_555
C17_2 C20_2 1_555 1_555
C19_2 C22_2 1_555 1_555
C24_2 C32_2 1_555 1_555
C25_2 C35_2 1_555 1_555
C31_2 C34_2 1_555 1_555
C33_2 C36_2 1_555 1_555
N2_3 C3_3 1_555 1_555
N3_3 C7_3 1_555 1_555
N4_3 C3_3 1_555 1_555
N14 C19_3 1_555 1_555
C1_3 C3_3 1_555 1_555
C7_3 N2_3 1_555 1_555
C9_3 N3_3 1_555 1_555
C10_3 H2_3 1_555 1_555
C12_3 C7_3 1_555 1_555
C16_3 C12_3 1_555 1_555
H5_3 C16_3 1_555 1_555
C17_3 C1_3 1_555 1_555
H6_3 C17_3 1_555 1_555
C19_3 H8_3 1_555 1_555
H9_3 C20_3 1_555 1_555
C21_3 N14 1_555 1_555
H10_2 C21_3 1_555 1_555
C22_3 C12_3 1_555 1_555
H11_3 C22_3 1_555 1_555
C23_3 C10_3 1_555 1_555
H12_3 C23_3 1_555 1_555
C25_3 C6_3 1_555 1_555
H14_3 C25_3 1_555 1_555
H23_3 C35_3 1_555 1_555
N4_3 C9_3 1_555 1_555
C6_3 C9_3 1_555 1_555
C16_3 C21_3 1_555 1_555
C17_3 C20_3 1_555 1_555
C19_3 C22_3 1_555 1_555
C25_3 C35_3 1_555 1_555
I1_3 Zn4_2 1_555 1_555
I3_3 Zn5 1_555 1_555
I4_3 Zn5 1_555 1_555
Zn4_2 N12_3 1_555 1_555
Zn5 N11_3 1_555 1_555
N1_3 C2_3 1_555 1_555
N6_3 C2_3 1_555 1_555
N7_3 C8_3 1_555 1_555
N11_3 C31_3 1_555 1_555
C2_3 C4_3 1_555 1_555
C8_3 N1_3 1_555 1_555
C11_3 N6_3 1_555 1_555
C15_3 C11_3 1_555 1_555
C24_3 C15_3 1_555 1_555
H13_3 C24_3 1_555 1_555
C27_2 C8_3 1_555 1_555
C28_2 C27_2 1_555 1_555
H16_2 C28_2 1_555 1_555
C29_2 C28_2 1_555 1_555
H17_3 C29_2 1_555 1_555
N12_3 C29_2 1_555 1_555
C30_2 C26_2 1_555 1_555
C31_3 H19_3 1_555 1_555
C32_3 N11_3 1_555 1_555
H20_3 C32_3 1_555 1_555
C34_3 C15_3 1_555 1_555
H22_3 C34_3 1_555 1_555
C36_3 C4_3 1_555 1_555
H24_3 C36_3 1_555 1_555
N7_3 C11_3 1_555 1_555
C24_3 C32_3 1_555 1_555
C26_2 C27_2 1_555 1_555
N12_3 C30_2 1_555 1_555
C31_3 C34_3 1_555 1_555
I5_3 Zn3_3 1_555 1_555
I6_3 Zn3_3 1_555 1_555
Zn3_3 N8_3 1_555 1_555
N2_4 C3_4 1_555 1_555
N3_4 C7_4 1_555 1_555
N4_4 C3_4 1_555 1_555
N13 C18_3 1_555 1_555
N8_3 C23_4 1_555 1_555
N10_3 Zn3_3 1_555 1_555
C1_4 C3_4 1_555 1_555
C5_3 H1_3 1_555 1_555
C6_4 C5_3 1_555 1_555
C7_4 N2_4 1_555 1_555
C9_4 N3_4 1_555 1_555
C10_4 H2_4 1_555 1_555
C12_4 C7_4 1_555 1_555
C13_3 N10_3 1_555 1_555
H3_3 C13_3 1_555 1_555
C14_3 C1_4 1_555 1_555
H4_3 C14_3 1_555 1_555
C16_4 C12_4 1_555 1_555
H5_4 C16_4 1_555 1_555
C17_4 C1_4 1_555 1_555
H6_4 C17_4 1_555 1_555
C18_3 C14_3 1_555 1_555
H7_3 C18_3 1_555 1_555
C19_4 H8_4 1_555 1_555
C20_4 N13 1_555 1_555
H9_4 C20_4 1_555 1_555
C22_4 C12_4 1_555 1_555
H11_4 C22_4 1_555 1_555
C23_4 C10_4 1_555 1_555
H12_4 C23_4 1_555 1_555
C25_4 C6_4 1_555 1_555
H14_4 C25_4 1_555 1_555
C33_4 N8_3 1_555 1_555
H21_3 C33_4 1_555 1_555
C35_4 N10_3 1_555 1_555
H23_4 C35_4 1_555 1_555
N4_4 C9_4 1_555 1_555
C5_3 C13_3 1_555 1_555
C6_4 C9_4 1_555 1_555
C16_4 C21_4 1_555 1_555
C17_4 C20_4 1_555 1_555
C19_4 C22_4 1_555 1_555
C25_4 C35_4 1_555 1_555
I5_4 Zn3_4 1_555 1_555
I6_4 Zn3_4 1_555 1_555
Zn3_4 N8_4 1_555 1_555
N5_3 C18_4 1_555 1_555
N10_4 Zn3_4 1_555 1_555
C5_4 H1_4 1_555 1_555
C13_4 N10_4 1_555 1_555
H3_4 C13_4 1_555 1_555
H4_4 C14_4 1_555 1_555
C18_4 C14_4 1_555 1_555
H7_4 C18_4 1_555 1_555
Zn4_3 N5_3 1_555 1_555
C5_4 C13_4 1_555 1_555
I1_4 Zn4_3 1_555 1_555
I2_3 Zn4_3 1_555 1_555
Zn4_3 N12_4 1_555 1_555
I1_5 Zn1_2 1_555 1_555
I3_4 Zn2_3 1_555 1_555
I4_4 Zn2_3 1_555 1_555
Zn1_2 N12_5 1_555 1_555
Zn2_3 N11_4 1_555 1_555
N1_4 C2_4 1_555 1_555
N6_4 C2_4 1_555 1_555
N7_4 C8_4 1_555 1_555
N11_4 C31_4 1_555 1_555
C2_4 C4_4 1_555 1_555
C8_4 N1_4 1_555 1_555
C11_4 N6_4 1_555 1_555
C15_4 C11_4 1_555 1_555
C24_4 C15_4 1_555 1_555
H13_4 C24_4 1_555 1_555
C27_3 C8_4 1_555 1_555
C28_3 C27_3 1_555 1_555
H16_3 C28_3 1_555 1_555
C29_3 C28_3 1_555 1_555
H17_5 C29_3 1_555 1_555
N12_5 C29_3 1_555 1_555
C30_3 C26_3 1_555 1_555
C31_4 H19_4 1_555 1_555
C32_4 N11_4 1_555 1_555
H20_4 C32_4 1_555 1_555
C34_4 C15_4 1_555 1_555
H22_4 C34_4 1_555 1_555
C36_4 C4_4 1_555 1_555
H24_4 C36_4 1_555 1_555
N13_2 Zn1_2 1_555 1_555
N14_3 Zn2_3 1_555 1_555
N7_4 C11_4 1_555 1_555
C24_4 C32_4 1_555 1_555
C26_3 C27_3 1_555 1_555
N12_5 C30_3 1_555 1_555
C31_4 C34_4 1_555 1_555
N2_5 C3_5 1_555 1_555
N3_5 C7_5 1_555 1_555
N4_5 C3_5 1_555 1_555
N9_2 C19_5 1_555 1_555
C1_5 C3_5 1_555 1_555
C7_5 N2_5 1_555 1_555
C9_5 N3_5 1_555 1_555
C10_5 H2_5 1_555 1_555
C12_5 C7_5 1_555 1_555
C16_5 C12_5 1_555 1_555
H5_5 C16_5 1_555 1_555
C17_5 C1_5 1_555 1_555
H6_5 C17_5 1_555 1_555
C19_5 H8_5 1_555 1_555
H9_5 C20_5 1_555 1_555
C21_5 N9_2 1_555 1_555
H10_4 C21_5 1_555 1_555
C22_5 C12_5 1_555 1_555
H11_5 C22_5 1_555 1_555
C23_5 C10_5 1_555 1_555
H12_5 C23_5 1_555 1_555
C25_5 C6_5 1_555 1_555
H14_5 C25_5 1_555 1_555
H23_5 C35_5 1_555 1_555
Zn5_2 N9_2 1_555 1_555
N4_5 C9_5 1_555 1_555
C6_5 C9_5 1_555 1_555
C16_5 C21_5 1_555 1_555
C17_5 C20_5 1_555 1_555
C19_5 C22_5 1_555 1_555
C25_5 C35_5 1_555 1_555
I5_5 Zn3_5 1_555 1_555
I6_5 Zn3_5 1_555 1_555
Zn3_5 N8_5 1_555 1_555
N2_6 C3_6 1_555 1_555
N3_6 C7_6 1_555 1_555
N4_6 C3_6 1_555 1_555
N5_4 C18_5 1_555 1_555
N8_5 C23_6 1_555 1_555
N10_5 Zn3_5 1_555 1_555
C1_6 C3_6 1_555 1_555
C5_5 H1_5 1_555 1_555
C6_6 C5_5 1_555 1_555
C7_6 N2_6 1_555 1_555
C9_6 N3_6 1_555 1_555
C10_6 H2_6 1_555 1_555
C12_6 C7_6 1_555 1_555
C13_5 N10_5 1_555 1_555
H3_5 C13_5 1_555 1_555
C14_5 C1_6 1_555 1_555
H4_5 C14_5 1_555 1_555
C16_6 C12_6 1_555 1_555
H5_6 C16_6 1_555 1_555
C17_6 C1_6 1_555 1_555
H6_6 C17_6 1_555 1_555
C18_5 C14_5 1_555 1_555
H7_5 C18_5 1_555 1_555
C19_6 H8_6 1_555 1_555
C20_6 N5_4 1_555 1_555
H9_6 C20_6 1_555 1_555
C22_6 C12_6 1_555 1_555
H11_6 C22_6 1_555 1_555
C23_6 C10_6 1_555 1_555
H12_6 C23_6 1_555 1_555
C25_6 C6_6 1_555 1_555
H14_6 C25_6 1_555 1_555
C33_6 N8_5 1_555 1_555
H21_5 C33_6 1_555 1_555
C35_6 N10_5 1_555 1_555
H23_6 C35_6 1_555 1_555
Zn4_4 N5_4 1_555 1_555
N4_6 C9_6 1_555 1_555
C5_5 C13_5 1_555 1_555
C6_6 C9_6 1_555 1_555
C16_6 C21_6 1_555 1_555
C17_6 C20_6 1_555 1_555
C19_6 C22_6 1_555 1_555
C25_6 C35_6 1_555 1_555
Zn5_3 N9_3 1_555 1_555
I1_6 Zn4_4 1_555 1_555
I2_5 Zn4_4 1_555 1_555
I3_5 Zn5_2 1_555 1_555
I4_5 Zn5_2 1_555 1_555
Zn4_4 N12_6 1_555 1_555
Zn5_2 N11_5 1_555 1_555
N1_5 C2_5 1_555 1_555
N2_7 C3_7 1_555 1_555
N3_7 C7_7 1_555 1_555
N4_7 C3_7 1_555 1_555
N6_5 C2_5 1_555 1_555
N7_5 C8_5 1_555 1_555
N14_3 C19_7 1_555 1_555
C1_7 C3_7 1_555 1_555
N11_5 C31_5 1_555 1_555
C2_5 C4_5 1_555 1_555
C4_5 C10_7 1_555 1_555
C7_7 N2_7 1_555 1_555
C8_5 N1_5 1_555 1_555
C9_7 N3_7 1_555 1_555
C10_7 H2_7 1_555 1_555
C11_5 N6_5 1_555 1_555
C12_7 C7_7 1_555 1_555
C15_5 C11_5 1_555 1_555
C16_7 C12_7 1_555 1_555
H5_7 C16_7 1_555 1_555
C17_7 C1_7 1_555 1_555
H6_7 C17_7 1_555 1_555
C19_7 H8_7 1_555 1_555
H9_7 C20_7 1_555 1_555
C21_7 N14_3 1_555 1_555
H10_6 C21_7 1_555 1_555
C22_7 C12_7 1_555 1_555
H11_7 C22_7 1_555 1_555
C23_7 C10_7 1_555 1_555
H12_7 C23_7 1_555 1_555
C24_5 C15_5 1_555 1_555
H13_5 C24_5 1_555 1_555
C25_7 C6_7 1_555 1_555
H14_7 C25_7 1_555 1_555
C26_4 H15_4 1_555 1_555
C27_4 C8_5 1_555 1_555
C28_4 C27_4 1_555 1_555
H16_4 C28_4 1_555 1_555
C29_4 C28_4 1_555 1_555
H17_6 C29_4 1_555 1_555
N12_6 C29_4 1_555 1_555
C30_4 C26_4 1_555 1_555
H18_4 C30_4 1_555 1_555
C31_5 H19_5 1_555 1_555
C32_5 N11_5 1_555 1_555
H20_5 C32_5 1_555 1_555
C34_5 C15_5 1_555 1_555
H22_5 C34_5 1_555 1_555
H23_7 C35_7 1_555 1_555
C36_5 C4_5 1_555 1_555
H24_5 C36_5 1_555 1_555
N4_7 C9_7 1_555 1_555
N7_5 C11_5 1_555 1_555
C6_7 C9_7 1_555 1_555
C16_7 C21_7 1_555 1_555
C17_7 C20_7 1_555 1_555
C19_7 C22_7 1_555 1_555
C24_5 C32_5 1_555 1_555
C25_7 C35_7 1_555 1_555
C26_4 C27_4 1_555 1_555
N12_6 C30_4 1_555 1_555
C31_5 C34_5 1_555 1_555
C33_7 C36_5 1_555 1_555
I3_6 Zn5_3 1_555 1_555
I4_6 Zn5_3 1_555 1_555
I5_6 Zn3_6 1_555 1_555
I6_6 Zn3_6 1_555 1_555
Zn5_3 N11_6 1_555 1_555
Zn3_6 N8_6 1_555 1_555
N1_6 C2_6 1_555 1_555
N2_8 C3_8 1_555 1_555
N3_8 C7_8 1_555 1_555
N4_8 C3_8 1_555 1_555
N13_2 C18_6 1_555 1_555
N6_6 C2_6 1_555 1_555
N7_6 C8_6 1_555 1_555
N8_6 C23_8 1_555 1_555
N10_6 Zn3_6 1_555 1_555
C1_8 C3_8 1_555 1_555
N11_6 C31_6 1_555 1_555
C2_6 C4_6 1_555 1_555
C4_6 C10_8 1_555 1_555
C5_6 H1_6 1_555 1_555
C6_8 C5_6 1_555 1_555
C7_8 N2_8 1_555 1_555
C8_6 N1_6 1_555 1_555
C9_8 N3_8 1_555 1_555
C10_8 H2_8 1_555 1_555
C11_6 N6_6 1_555 1_555
C12_8 C7_8 1_555 1_555
C13_6 N10_6 1_555 1_555
H3_6 C13_6 1_555 1_555
C14_6 C1_8 1_555 1_555
H4_6 C14_6 1_555 1_555
C15_6 C11_6 1_555 1_555
C16_8 C12_8 1_555 1_555
H5_8 C16_8 1_555 1_555
C17_8 C1_8 1_555 1_555
H6_8 C17_8 1_555 1_555
C18_6 C14_6 1_555 1_555
H7_6 C18_6 1_555 1_555
C19_8 H8_8 1_555 1_555
C20_8 N13_2 1_555 1_555
H9_8 C20_8 1_555 1_555
C22_8 C12_8 1_555 1_555
H11_8 C22_8 1_555 1_555
C23_8 C10_8 1_555 1_555
H12_8 C23_8 1_555 1_555
C24_6 C15_6 1_555 1_555
H13_6 C24_6 1_555 1_555
C25_8 C6_8 1_555 1_555
H14_8 C25_8 1_555 1_555
C31_6 H19_6 1_555 1_555
C32_6 N11_6 1_555 1_555
H20_6 C32_6 1_555 1_555
C33_8 N8_6 1_555 1_555
H21_6 C33_8 1_555 1_555
C34_6 C15_6 1_555 1_555
H22_6 C34_6 1_555 1_555
C35_8 N10_6 1_555 1_555
H23_8 C35_8 1_555 1_555
C36_6 C4_6 1_555 1_555
H24_6 C36_6 1_555 1_555
N4_8 C9_8 1_555 1_555
N7_6 C11_6 1_555 1_555
C5_6 C13_6 1_555 1_555
C6_8 C9_8 1_555 1_555
C16_8 C21_8 1_555 1_555
C17_8 C20_8 1_555 1_555
C19_8 C22_8 1_555 1_555
C24_6 C32_6 1_555 1_555
C25_8 C35_8 1_555 1_555
C31_6 C34_6 1_555 1_555
C33_8 C36_6 1_555 1_555
Zn5_4 N9_4 1_555 1_555
I3_7 Zn5_4 1_555 1_555
I4_7 Zn5_4 1_555 1_555
Zn5_4 N11_7 1_555 1_555
N1_7 C2_7 1_555 1_555
N6_7 C2_7 1_555 1_555
N7_7 C8_7 1_555 1_555
N11_7 C31_7 1_555 1_555
C2_7 C4_7 1_555 1_555
C8_7 N1_7 1_555 1_555
C11_7 N6_7 1_555 1_555
C15_7 C11_7 1_555 1_555
C24_7 C15_7 1_555 1_555
H13_7 C24_7 1_555 1_555
C31_7 H19_7 1_555 1_555
C32_7 N11_7 1_555 1_555
H20_7 C32_7 1_555 1_555
C34_7 C15_7 1_555 1_555
H22_7 C34_7 1_555 1_555
C36_7 C4_7 1_555 1_555
H24_7 C36_7 1_555 1_555
N7_7 C11_7 1_555 1_555
C24_7 C32_7 1_555 1_555
C31_7 C34_7 1_555 1_555
C26_5 H15_5 1_555 1_555
C28_5 C27_5 1_555 1_555
H16_5 C28_5 1_555 1_555
C29_5 C28_5 1_555 1_555
C30_5 C26_5 1_555 1_555
H18_5 C30_5 1_555 1_555
C26_5 C27_5 1_555 1_555
I1_7 Zn1_3 1_555 1_555
I2_6 Zn1_3 1_555 1_555
Zn1_3 N12_7 1_555 1_555
N13_3 Zn1_3 1_555 1_555
I5_7 Zn3_7 1_555 1_555
I6_7 Zn3_7 1_555 1_555
Zn3_7 N8_7 1_555 1_555
N13_3 C18_7 1_555 1_555
N10_7 Zn3_7 1_555 1_555
C5_7 H1_7 1_555 1_555
C13_7 N10_7 1_555 1_555
H3_7 C13_7 1_555 1_555
H4_7 C14_7 1_555 1_555
C18_7 C14_7 1_555 1_555
H7_7 C18_7 1_555 1_555
C5_7 C13_7 1_555 1_555
C28_6 C27_6 1_555 1_555
H16_6 C28_6 1_555 1_555
C29_6 C28_6 1_555 1_555
C30_6 C26_6 1_555 1_555
C26_6 C27_6 1_555 1_555
I1_8 Zn1_4 1_555 1_555
Zn1_4 N12_8 1_555 1_555
N13_4 Zn1_4 1_555 1_555
I5_8 Zn3_8 1_555 1_555
I6_8 Zn3_8 1_555 1_555
Zn3_8 N8_8 1_555 1_555
N13_4 C18_8 1_555 1_555
N10_8 Zn3_8 1_555 1_555
C5_8 H1_8 1_555 1_555
C13_8 N10_8 1_555 1_555
H3_8 C13_8 1_555 1_555
H4_8 C14_8 1_555 1_555
C18_8 C14_8 1_555 1_555
H7_8 C18_8 1_555 1_555
C5_8 C13_8 1_555 1_555
I3_8 Zn2_4 1_555 1_555
I4_8 Zn2_4 1_555 1_555
Zn2_4 N11_8 1_555 1_555
N1_8 C2_8 1_555 1_555
N6_8 C2_8 1_555 1_555
N7_8 C8_8 1_555 1_555
N11_8 C31_8 1_555 1_555
C2_8 C4_8 1_555 1_555
C8_8 N1_8 1_555 1_555
C11_8 N6_8 1_555 1_555
C15_8 C11_8 1_555 1_555
C24_8 C15_8 1_555 1_555
H13_8 C24_8 1_555 1_555
C31_8 H19_8 1_555 1_555
C32_8 N11_8 1_555 1_555
H20_8 C32_8 1_555 1_555
C34_8 C15_8 1_555 1_555
H22_8 C34_8 1_555 1_555
C36_8 C4_8 1_555 1_555
H24_8 C36_8 1_555 1_555
N14_4 Zn2_4 1_555 1_555
N7_8 C11_8 1_555 1_555
C24_8 C32_8 1_555 1_555
C31_8 C34_8 1_555 1_555
C26_7 H15_7 1_555 1_555
C28_7 C27_7 1_555 1_555
H16_7 C28_7 1_555 1_555
C29_7 C28_7 1_555 1_555
C30_7 C26_7 1_555 1_555
H18_7 C30_7 1_555 1_555
C26_7 C27_7 1_555 1_555
C28_8 C27_8 1_555 1_555
H16_8 C28_8 1_555 1_555
C29_8 C28_8 1_555 1_555
C30_8 C26_8 1_555 1_555
C26_8 C27_8 1_555 1_555

#END
