
###############################################################################
#
# This file contains modified crystal structure data generated from the
# MOF subset of the Cambridge Structural Database (CSD) v543 
# hosted by the Cambridge Crystallographic Data Centre (CCDC).
#
# This work is licensed under the Creative Commons
# Attribution-NonCommercial-ShareAlike 4.0 International License.
# To view a copy of this license, visit
# http://creativecommons.org/licenses/by-nc-sa/4.0/
# or send a letter to
# Creative Commons, PO Box 1866, Mountain View, CA 94042, USA.
#
# CIF created using the CSD Python API on 29 September 2022
# The structure has been converted into the P1 space group
# The structure has a 3D framework
# The original CSD entry QEDHUG is in the monoclinic crystal system
# The original CSD entry QEDHUG is in a Sohncke space group
# The framework has been calculated to contain at least 10.0% void space
# The void calculation uses a probe of radius 1.32A, grid spacing 0.4
#
###############################################################################

data_QEDHUG
_chemical_formula_moiety         '(C288 H192 I48 N96 Zn24)n'
_symmetry_cell_setting           triclinic
_symmetry_space_group_name_H-M   'P 1'
_symmetry_Int_Tables_number      1
_space_group_name_Hall           'P 1'
loop_
_symmetry_equiv_pos_site_id
_symmetry_equiv_pos_as_xyz
1 x,y,z
_cell_length_a                   35.3768(5)
_cell_length_b                   14.8096(2)
_cell_length_c                   31.5802(3)
_cell_angle_alpha                90
_cell_angle_beta                 102.5220(10)
_cell_angle_gamma                90
_cell_volume                     16151.8
loop_
_atom_site_label
_atom_site_type_symbol
_atom_site_fract_x
_atom_site_fract_y
_atom_site_fract_z
C12 C 0.5955(4) 0.0322(11) 0.7486(5)
H5 H 0.614909 0.016297 0.733307
C14 C 0.5349(4) 0.0101(9) 0.7675(4)
C17 C 0.5414(4) 0.0844(9) 0.7931(4)
H9 H 0.522491 0.100801 0.809003
N17 N 0.5732(4) 0.1362(8) 0.7971(4)
C48 C 0.5997(6) 0.1101(11) 0.7769(5)
H31 H 0.623015 0.143952 0.781042
Zn9 Zn 0.5874(4) 0.2416(7) 0.8393(4)
N6 N 0.6243(3) 0.1744(8) 0.8891(4)
C15 C 0.6379(4) 0.0392(10) 0.9306(5)
C22 C 0.6774(4) 0.1695(11) 0.9508(4)
H13 H 0.698321 0.199551 0.969415
C27 C 0.6927(4) 0.0255(10) 0.9941(4)
C49 C 0.6690(4) 0.0804(10) 0.9577(4)
C50 C 0.6548(4) 0.2131(10) 0.9162(4)
H32 H 0.660785 0.274063 0.910984
C54 C 0.6158(5) 0.0914(11) 0.8971(5)
H34 H 0.593442 0.064812 0.879323
I11 I 0.6250(3) 0.3526(4) 0.8021(3)
I12 I 0.5293(2) 0.2789(5) 0.8706(3)
I1 I 0.7280(4) 0.3803(7) 0.0450(3)
I2 I 0.85940(3) 0.02823(11) 0.75701(4)
I5 I 0.7335(2) 0.8517(5) 0.5470(2)
I6 I 0.62743(16) 0.7821(5) 0.44838(18)
I9 I 0.3554(3) 0.6985(8) 0.2595(3)
I10 I 0.3880(3) 0.8575(6) 0.1529(4)
Zn1 Zn 0.3713(5) 0.7182(11) 0.1870(6)
Zn2 Zn 0.6686(7) 0.4718(12) 0.0196(7)
Zn3 Zn 0.87790(5) 0.02267(14) 0.68389(6)
Zn4 Zn 0.6722(4) 0.7630(9) 0.5225(3)
N1 N 0.7362(3) 0.3069(7) 0.5600(3)
N2 N 0.5388(3) 0.4738(9) 0.1614(4)
N3 N 0.6853(4) 0.6237(8) 0.5287(4)
N4 N 0.7218(3) 0.1675(8) 0.5228(3)
N5 N 0.6825(3) 0.2942(8) 0.5000(4)
C1 C 0.7138(5) 0.5888(12) 0.5558(6)
H1 H 0.729946 0.628246 0.575599
C2 C 0.8273(5) 0.1756(11) 0.6460(5)
H2 H 0.842670 0.207432 0.669715
N7 N 0.5763(3) 0.3440(8) 0.1881(3)
N8 N 0.8356(3) 0.0860(7) 0.6401(4)
C3 C 0.7054(4) 0.3419(9) 0.5308(5)
N9 N 0.5254(3) 0.3954(8) 0.2221(3)
C4 C 0.2217(4) 0.2353(10) 0.0560(5)
H3 H 0.242276 0.257855 0.077904
C5 C 0.6500(5) 0.4065(12) 0.1077(5)
H4 H 0.675408 0.381766 0.113738
C6 C 0.2438(4) 0.5171(9) 0.0523(4)
C7 C 0.6677(4) 0.1562(9) 0.4613(5)
C8 C 0.5547(4) 0.3366(10) 0.2170(4)
N10 N 0.6409(4) 0.7808(9) 0.5694(4)
C9 C 0.4885(9) 0.726(2) 0.6902(9)
C10 C 0.5628(4) 0.9832(10) 0.7450(4)
C11 C 0.5924(4) 0.4278(9) 0.1314(4)
C13 C 0.6278(4) 0.3903(12) 0.1345(5)
H6 H 0.636978 0.349684 0.157753
N11 N 0.5716(5) 0.1079(10) 0.3007(4)
N12 N 0.5787(3) 0.8938(9) 0.6877(4)
N13 N 0.4230(8) 0.6090(19) 0.6871(9)
H7 H 0.511641 0.976596 0.765034
N14 N 0.5280(3) 0.8472(8) 0.7192(3)
N15 N 0.3318(3) 0.6484(9) 0.1409(4)
C16 C 0.5208(4) 0.7786(10) 0.6901(4)
C18 C 0.4725(7) 0.7137(17) 0.7264(8)
H10 H 0.483389 0.743421 0.752927
C19 C 0.6526(5) 0.0250(11) 0.4165(5)
C20 C 0.6919(4) 0.2078(9) 0.4967(4)
C21 C 0.5777(6) 0.4819(15) 0.0923(6)
H12 H 0.552334 0.506466 0.086300
N16 N 0.6382(4) 0.4591(8) 0.0699(4)
C23 C 0.1982(4) 0.2960(10) 0.0267(5)
C25 C 0.5697(5) 0.8222(11) 0.6612(5)
C26 C 0.5687(4) 0.4141(10) 0.1606(4)
C28 C 0.6995(4) 0.4421(9) 0.5323(4)
C29 C 0.2991(4) 0.5137(10) 0.1140(5)
H15 H 0.296753 0.450178 0.116898
N18 N 0.2217(3) 0.5675(7) 0.0196(3)
C30 C 0.7738(4) 0.1727(9) 0.5844(4)
C31 C 0.3083(5) 0.6944(11) 0.1092(6)
H16 H 0.312348 0.757344 0.106312
C32 C 0.6138(7) 0.1483(14) 0.4023(7)
H17 H 0.592930 0.177620 0.383219
C33 C 0.7978(4) 0.2202(10) 0.6188(4)
H18 H 0.793488 0.282583 0.623055
C34 C 0.6669(5) 0.4775(10) 0.5017(6)
H19 H 0.649962 0.439142 0.482236
C35 C 0.6758(5) 0.0694(10) 0.4512(5)
H20 H 0.697617 0.039328 0.468126
C36 C 0.5186(4) 0.4586(10) 0.1917(5)
C37 C 0.6034(5) 0.4956(12) 0.0640(6)
H21 H 0.595026 0.533220 0.039357
C38 C 0.5329(5) 0.2315(11) 0.2693(5)
H22 H 0.510372 0.267147 0.268021
C39 C 0.5994(7) 0.1318(18) 0.2752(8)
H23 H 0.622654 0.098140 0.277561
C41 C 0.5558(4) 0.9030(10) 0.7154(4)
C42 C 0.6612(6) 0.5705(13) 0.5017(6)
H25 H 0.639752 0.596220 0.482091
C43 C 0.7828(4) 0.0858(11) 0.5788(5)
H26 H 0.768088 0.052485 0.555172
C44 C 0.4386(8) 0.6543(17) 0.7237(8)
H27 H 0.427491 0.647786 0.748406
N20 N 0.6224(5) 0.0622(9) 0.3924(4)
N21 N 0.2358(3) 0.4271(7) 0.0564(4)
C45 C 0.6057(5) 0.7483(14) 0.5619(5)
H28 H 0.595845 0.717216 0.535498
C46 C 0.8127(4) 0.0450(11) 0.6068(5)
C47 C 0.5391(5) 0.1534(12) 0.2949(5)
H30 H 0.519210 0.132961 0.308519
C51 C 0.7405(4) 0.2210(9) 0.5544(4)
N22 N 0.1845(4) 0.1080(9) 0.0237(4)
N23 N 0.5415(3) 0.7662(8) 0.6592(3)
C52 C 0.5946(4) 0.8086(11) 0.6268(4)
C53 C 0.4369(8) 0.630(2) 0.6506(8)
H33 H 0.424203 0.604097 0.623770
C55 C 0.2076(3) 0.3925(9) 0.0279(4)
C56 C 0.4670(7) 0.684(2) 0.6503(7)
H35 H 0.474465 0.696135 0.623733
C57 C 0.6335(5) 0.8433(13) 0.6354(6)
H36 H 0.644331 0.875687 0.661151
C58 C 0.5824(4) 0.7583(12) 0.5918(4)
H37 H 0.557894 0.729278 0.587233
C59 C 0.5920(7) 0.201(2) 0.2487(7)
H38 H 0.609610 0.214429 0.230759
C60 C 0.7226(5) 0.4985(9) 0.5583(5)
H39 H 0.744846 0.476867 0.578304
C61 C 0.6331(6) 0.1955(13) 0.4377(7)
H40 H 0.623760 0.251513 0.445868
C62 C 0.6538(5) 0.8265(14) 0.6042(5)
H41 H 0.679246 0.850255 0.608421
C63 C 0.2145(5) 0.1428(11) 0.0525(5)
H42 H 0.231476 0.103012 0.071236
C64 C 0.5603(4) 0.2559(10) 0.2456(4)
C65 C 0.3282(5) 0.5635(10) 0.1423(5)
H43 H 0.346086 0.531101 0.163754
C66 C 0.2747(4) 0.5601(9) 0.0826(4)
C67 C 0.2788(4) 0.6533(10) 0.0810(5)
H44 H 0.261123 0.687942 0.060349
N24 N 0.4202(7) 0.6231(15) 0.1905(7)
C68 C 0.4394(8) 0.5858(19) 0.2285(8)
H45 H 0.431140 0.597707 0.254628
C69 C 0.4705(8) 0.5313(19) 0.2290(8)
H46 H 0.483961 0.505280 0.255546
C70 C 0.4824(7) 0.5141(17) 0.1916(7)
C71 C 0.4631(8) 0.552(2) 0.1536(7)
H47 H 0.471426 0.539566 0.127468
C72 C 0.4320(8) 0.6060(18) 0.1530(7)
H48 H 0.418587 0.632039 0.126541
Zn8 Zn 0.37790(5) 0.52267(14) 0.68389(6)
N25 N 0.9230(8) 0.1090(19) 0.6871(9)
N27 N 0.6845(4) 0.6080(9) 0.0237(4)
I4 I 0.6193(4) 0.4488(7) 0.9482(4)
N6_2 N 0.1243(3) 0.6744(8) 0.8891(4)
C15_2 C 0.1379(4) 0.5392(10) 0.9306(5)
H8 H 0.131779 0.477734 0.934456
C22_2 C 0.1774(4) 0.6695(11) 0.9508(4)
H13_2 H 0.198321 0.699551 0.969415
C24 C 0.1617(4) 0.1675(10) 0.9966(5)
H14 H 0.139843 0.144721 0.976521
C27_2 C 0.1927(4) 0.5255(10) 0.9941(4)
N19 N 0.1835(3) 0.4396(8) 0.9957(4)
C40 C 0.1687(5) 0.2566(12) 0.9967(6)
H24 H 0.152827 0.293662 0.975484
C49_2 C 0.1690(4) 0.5804(10) 0.9577(4)
C50_2 C 0.1548(4) 0.7131(10) 0.9162(4)
H32_2 H 0.160785 0.774063 0.910984
C54_2 C 0.1158(5) 0.5914(11) 0.8971(5)
H34_2 H 0.093442 0.564812 0.879323
I11_2 I 0.1250(3) 0.8526(4) 0.8021(3)
Zn6 Zn 0.0874(4) 0.7416(7) 0.8393(4)
I12_2 I 0.0293(2) 0.7789(5) 0.8706(3)
N26 N 0.0732(4) 0.6362(8) 0.7971(4)
I3 I 0.89403(4) 0.88027(10) 0.64647(5)
I7 I 0.61442(19) 0.8803(3) 0.31077(17)
I8 I 0.52227(16) 0.9741(4) 0.37921(16)
Zn5 Zn 0.5797(3) 0.9984(4) 0.3461(2)
H11 H 0.659078 0.965038 0.410099
H29 H 0.817454 0.983039 0.602215
Zn7 Zn 0.1686(7) 0.9718(12) 0.0196(7)
I5_2 I 0.2335(2) 0.3517(5) 0.5470(2)
I6_2 I 0.12743(16) 0.2821(5) 0.44838(18)
Zn4_2 Zn 0.1722(4) 0.2630(9) 0.5225(3)
N3_2 N 0.1853(4) 0.1237(8) 0.5287(4)
C1_2 C 0.2138(5) 0.0888(12) 0.5558(6)
H1_2 H 0.229946 0.128246 0.575599
N10_2 N 0.1409(4) 0.2808(9) 0.5694(4)
C10_2 C 0.0628(4) 0.4832(10) 0.7450(4)
C12_2 C 0.0955(4) 0.5322(11) 0.7486(5)
H5_2 H 0.114909 0.516297 0.733307
N12_2 N 0.0787(3) 0.3938(9) 0.6877(4)
C14_2 C 0.0349(4) 0.5101(9) 0.7675(4)
H7_2 H 0.011641 0.476596 0.765034
N14_2 N 0.0280(3) 0.3472(8) 0.7192(3)
C16_2 C 0.0208(4) 0.2786(10) 0.6901(4)
C17_2 C 0.0414(4) 0.5844(9) 0.7931(4)
H9_2 H 0.022491 0.600801 0.809003
H12_2 H 0.052334 0.006466 0.086300
C25_2 C 0.0697(5) 0.3222(11) 0.6612(5)
H21_2 H 0.095026 0.033220 0.039357
C41_2 C 0.0558(4) 0.4030(10) 0.7154(4)
C42_2 C 0.1612(6) 0.0705(13) 0.5017(6)
H25_2 H 0.139752 0.096220 0.482091
C45_2 C 0.1057(5) 0.2483(14) 0.5619(5)
H28_2 H 0.095845 0.217216 0.535498
C48_2 C 0.0997(6) 0.6101(11) 0.7769(5)
H31_2 H 0.123015 0.643952 0.781042
N23_2 N 0.0415(3) 0.2662(8) 0.6592(3)
C52_2 C 0.0946(4) 0.3086(11) 0.6268(4)
C57_2 C 0.1335(5) 0.3433(13) 0.6354(6)
H36_2 H 0.144331 0.375687 0.661151
C58_2 C 0.0824(4) 0.2583(12) 0.5918(4)
H37_2 H 0.057894 0.229278 0.587233
C62_2 C 0.1538(5) 0.3265(14) 0.6042(5)
H41_2 H 0.179246 0.350255 0.608421
I1_2 I 0.2280(4) 0.8803(7) 0.0450(3)
I2_2 I 0.35940(3) 0.52823(11) 0.75701(4)
I3_2 I 0.39403(4) 0.38027(10) 0.64647(5)
I7_2 I 0.11442(19) 0.3803(3) 0.31077(17)
I8_2 I 0.02227(16) 0.4741(4) 0.37921(16)
Zn5_2 Zn 0.0797(3) 0.4984(4) 0.3461(2)
N1_2 N 0.2362(3) 0.8069(7) 0.5600(3)
N2_2 N 0.0388(3) 0.9738(9) 0.1614(4)
N4_2 N 0.2218(3) 0.6675(8) 0.5228(3)
N5_2 N 0.1825(3) 0.7942(8) 0.5000(4)
C2_2 C 0.3273(5) 0.6756(11) 0.6460(5)
H2_2 H 0.342670 0.707432 0.669715
N7_2 N 0.0763(3) 0.8440(8) 0.1881(3)
N8_2 N 0.3356(3) 0.5860(7) 0.6401(4)
C3_2 C 0.2054(4) 0.8419(9) 0.5308(5)
N9_2 N 0.0254(3) 0.8954(8) 0.2221(3)
C5_2 C 0.1500(5) 0.9065(12) 0.1077(5)
H4_2 H 0.175408 0.881766 0.113738
C7_2 C 0.1677(4) 0.6562(9) 0.4613(5)
C8_2 C 0.0547(4) 0.8366(10) 0.2170(4)
C11_2 C 0.0924(4) 0.9278(9) 0.1314(4)
C13_2 C 0.1278(4) 0.8903(12) 0.1345(5)
H6_2 H 0.136978 0.849684 0.157753
N11_2 N 0.0716(5) 0.6079(10) 0.3007(4)
C19_2 C 0.1526(5) 0.5250(11) 0.4165(5)
H11_2 H 0.159078 0.465038 0.410099
C20_2 C 0.1919(4) 0.7078(9) 0.4967(4)
C21_2 C 0.0777(6) 0.9819(15) 0.0923(6)
N16_2 N 0.1382(4) 0.9591(8) 0.0699(4)
C26_2 C 0.0687(4) 0.9141(10) 0.1606(4)
C28_2 C 0.1995(4) 0.9421(9) 0.5323(4)
C30_2 C 0.2738(4) 0.6727(9) 0.5844(4)
C32_2 C 0.1138(7) 0.6483(14) 0.4023(7)
H17_2 H 0.092930 0.677620 0.383219
C33_2 C 0.2978(4) 0.7202(10) 0.6188(4)
H18_2 H 0.293488 0.782583 0.623055
C34_2 C 0.1669(5) 0.9775(10) 0.5017(6)
H19_2 H 0.149962 0.939142 0.482236
C35_2 C 0.1758(5) 0.5694(10) 0.4512(5)
H20_2 H 0.197617 0.539328 0.468126
C36_2 C 0.0186(4) 0.9586(10) 0.1917(5)
C37_2 C 0.1034(5) 0.9956(12) 0.0640(6)
C38_2 C 0.0329(5) 0.7315(11) 0.2693(5)
H22_2 H 0.010372 0.767147 0.268021
C39_2 C 0.0994(7) 0.6318(18) 0.2752(8)
H23_2 H 0.122654 0.598140 0.277561
C43_2 C 0.2828(4) 0.5858(11) 0.5788(5)
H26_2 H 0.268088 0.552485 0.555172
N20_2 N 0.1224(5) 0.5622(9) 0.3924(4)
C46_2 C 0.3127(4) 0.5450(11) 0.6068(5)
H29_2 H 0.317454 0.483039 0.602215
C47_2 C 0.0391(5) 0.6534(12) 0.2949(5)
H30_2 H 0.019210 0.632961 0.308519
C51_2 C 0.2405(4) 0.7210(9) 0.5544(4)
C59_2 C 0.0920(7) 0.701(2) 0.2487(7)
H38_2 H 0.109610 0.714429 0.230759
C60_2 C 0.2226(5) 0.9985(9) 0.5583(5)
H39_2 H 0.244846 0.976867 0.578304
C61_2 C 0.1331(6) 0.6955(13) 0.4377(7)
H40_2 H 0.123760 0.751513 0.445868
C64_2 C 0.0603(4) 0.7559(10) 0.2456(4)
I9_2 I 0.8554(3) 0.1985(8) 0.2595(3)
I10_2 I 0.8880(3) 0.3575(6) 0.1529(4)
Zn1_2 Zn 0.8713(5) 0.2182(11) 0.1870(6)
C6_2 C 0.7438(4) 0.0171(9) 0.0523(4)
C9_2 C 0.9885(9) 0.226(2) 0.6902(9)
N15_2 N 0.8318(3) 0.1484(9) 0.1409(4)
C18_2 C 0.9725(7) 0.2137(17) 0.7264(8)
H10_2 H 0.983389 0.243421 0.752927
C29_2 C 0.7991(4) 0.0137(10) 0.1140(5)
N18_2 N 0.7217(3) 0.0675(7) 0.0196(3)
C31_2 C 0.8083(5) 0.1944(11) 0.1092(6)
H16_2 H 0.812348 0.257344 0.106312
C44_2 C 0.9386(8) 0.1543(17) 0.7237(8)
H27_2 H 0.927491 0.147786 0.748406
C53_2 C 0.9369(8) 0.130(2) 0.6506(8)
H33_2 H 0.924203 0.104097 0.623770
C56_2 C 0.9670(7) 0.184(2) 0.6503(7)
H35_2 H 0.974465 0.196135 0.623733
C65_2 C 0.8282(5) 0.0635(10) 0.1423(5)
H43_2 H 0.846086 0.031101 0.163754
C66_2 C 0.7747(4) 0.0601(9) 0.0826(4)
C67_2 C 0.7788(4) 0.1533(10) 0.0810(5)
H44_2 H 0.761123 0.187942 0.060349
N24_2 N 0.9202(7) 0.1231(15) 0.1905(7)
C68_2 C 0.9394(8) 0.0858(19) 0.2285(8)
H45_2 H 0.931140 0.097707 0.254628
C69_2 C 0.9705(8) 0.0313(19) 0.2290(8)
H46_2 H 0.983961 0.005280 0.255546
C70_2 C 0.9824(7) 0.0141(17) 0.1916(7)
C71_2 C 0.9631(8) 0.052(2) 0.1536(7)
H47_2 H 0.971426 0.039566 0.127468
C72_2 C 0.9320(8) 0.1060(18) 0.1530(7)
H48_2 H 0.918587 0.132039 0.126541
C4_2 C 0.7217(4) 0.7353(10) 0.0560(5)
H3_2 H 0.742276 0.757855 0.077904
C23_2 C 0.6982(4) 0.7960(10) 0.0267(5)
H15_2 H 0.796753 0.950178 0.116898
N21_2 N 0.7358(3) 0.9271(7) 0.0564(4)
C55_2 C 0.7076(3) 0.8925(9) 0.0279(4)
C63_2 C 0.7145(5) 0.6428(11) 0.0525(5)
H42_2 H 0.731476 0.603012 0.071236
C12_3 C 0.4045(4) 0.0322(11) 0.2514(5)
H5_3 H 0.385091 0.016297 0.266693
C14_3 C 0.4651(4) 0.0101(9) 0.2325(4)
C17_3 C 0.4586(4) 0.0844(9) 0.2069(4)
H9_3 H 0.477509 0.100801 0.190997
N17_2 N 0.4268(4) 0.1362(8) 0.2029(4)
C48_3 C 0.4003(6) 0.1101(11) 0.2231(5)
H31_3 H 0.376985 0.143952 0.218958
Zn9_2 Zn 0.4126(4) 0.2416(7) 0.1607(4)
N6_3 N 0.3757(3) 0.1744(8) 0.1109(4)
C15_3 C 0.3621(4) 0.0392(10) 0.0694(5)
C22_3 C 0.3226(4) 0.1695(11) 0.0492(4)
H13_3 H 0.301679 0.199551 0.030585
C27_3 C 0.3073(4) 0.0255(10) 0.0059(4)
C49_3 C 0.3310(4) 0.0804(10) 0.0423(4)
C50_3 C 0.3452(4) 0.2131(10) 0.0838(4)
H32_3 H 0.339215 0.274063 0.089016
C54_3 C 0.3842(5) 0.0914(11) 0.1029(5)
H34_3 H 0.406558 0.064812 0.120677
I11_3 I 0.3750(3) 0.3526(4) 0.1979(3)
I12_3 I 0.4707(2) 0.2789(5) 0.1294(3)
I4_2 I 0.3807(4) 0.4488(7) 0.0518(4)
N6_4 N 0.8757(3) 0.6744(8) 0.1109(4)
C15_4 C 0.8621(4) 0.5392(10) 0.0694(5)
H8_2 H 0.868221 0.477734 0.065544
C22_4 C 0.8226(4) 0.6695(11) 0.0492(4)
H13_4 H 0.801679 0.699551 0.030585
C24_2 C 0.8383(4) 0.1675(10) 0.0034(5)
H14_2 H 0.860157 0.144721 0.023479
C27_4 C 0.8073(4) 0.5255(10) 0.0059(4)
N19_2 N 0.8165(3) 0.4396(8) 0.0043(4)
C40_2 C 0.8313(5) 0.2566(12) 0.0033(6)
H24_2 H 0.847173 0.293662 0.024516
C49_4 C 0.8310(4) 0.5804(10) 0.0423(4)
C50_4 C 0.8452(4) 0.7131(10) 0.0838(4)
H32_4 H 0.839215 0.774063 0.089016
C54_4 C 0.8842(5) 0.5914(11) 0.1029(5)
H34_4 H 0.906558 0.564812 0.120677
I11_4 I 0.8750(3) 0.8526(4) 0.1979(3)
Zn6_2 Zn 0.9126(4) 0.7416(7) 0.1607(4)
I12_4 I 0.9707(2) 0.7789(5) 0.1294(3)
N26_2 N 0.9268(4) 0.6362(8) 0.2029(4)
I1_3 I 0.2720(4) 0.3803(7) 0.9550(3)
I2_3 I 0.14060(3) 0.02823(11) 0.24299(4)
I5_3 I 0.2665(2) 0.8517(5) 0.4530(2)
I6_3 I 0.37257(16) 0.7821(5) 0.55162(18)
I9_3 I 0.6446(3) 0.6985(8) 0.7405(3)
I10_3 I 0.6120(3) 0.8575(6) 0.8471(4)
Zn1_3 Zn 0.6287(5) 0.7182(11) 0.8130(6)
Zn2_2 Zn 0.3314(7) 0.4718(12) 0.9804(7)
Zn3_2 Zn 0.12210(5) 0.02267(14) 0.31611(6)
Zn4_3 Zn 0.3278(4) 0.7630(9) 0.4775(3)
N1_3 N 0.2638(3) 0.3069(7) 0.4400(3)
N2_3 N 0.4612(3) 0.4738(9) 0.8386(4)
N3_3 N 0.3147(4) 0.6237(8) 0.4713(4)
N4_3 N 0.2782(3) 0.1675(8) 0.4772(3)
N5_3 N 0.3175(3) 0.2942(8) 0.5000(4)
C1_3 C 0.2862(5) 0.5888(12) 0.4442(6)
H1_3 H 0.270054 0.628246 0.424401
C2_3 C 0.1727(5) 0.1756(11) 0.3540(5)
H2_3 H 0.157330 0.207432 0.330285
N7_3 N 0.4237(3) 0.3440(8) 0.8119(3)
N8_3 N 0.1644(3) 0.0860(7) 0.3599(4)
C3_3 C 0.2946(4) 0.3419(9) 0.4692(5)
N9_3 N 0.4746(3) 0.3954(8) 0.7779(3)
C4_3 C 0.7783(4) 0.2353(10) 0.9440(5)
H3_3 H 0.757724 0.257855 0.922096
C5_3 C 0.3500(5) 0.4065(12) 0.8923(5)
H4_3 H 0.324592 0.381766 0.886262
C6_3 C 0.7562(4) 0.5171(9) 0.9477(4)
C7_3 C 0.3323(4) 0.1562(9) 0.5387(5)
C8_3 C 0.4453(4) 0.3366(10) 0.7830(4)
N10_3 N 0.3591(4) 0.7808(9) 0.4306(4)
C9_3 C 0.5115(9) 0.726(2) 0.3098(9)
C10_3 C 0.4372(4) 0.9832(10) 0.2550(4)
C11_3 C 0.4076(4) 0.4278(9) 0.8686(4)
C13_3 C 0.3722(4) 0.3903(12) 0.8655(5)
H6_3 H 0.363022 0.349684 0.842247
N11_3 N 0.4284(5) 0.1079(10) 0.6993(4)
N12_3 N 0.4213(3) 0.8938(9) 0.3123(4)
N13_2 N 0.5770(8) 0.6090(19) 0.3129(9)
H7_3 H 0.488359 0.976596 0.234966
N14_3 N 0.4720(3) 0.8472(8) 0.2808(3)
N15_3 N 0.6682(3) 0.6484(9) 0.8591(4)
C16_3 C 0.4792(4) 0.7786(10) 0.3099(4)
C18_3 C 0.5275(7) 0.7137(17) 0.2736(8)
H10_3 H 0.516611 0.743421 0.247073
C19_3 C 0.3474(5) 0.0250(11) 0.5835(5)
C20_3 C 0.3081(4) 0.2078(9) 0.5033(4)
C21_3 C 0.4223(6) 0.4819(15) 0.9077(6)
H12_3 H 0.447666 0.506466 0.913700
N16_3 N 0.3618(4) 0.4591(8) 0.9301(4)
C23_3 C 0.8018(4) 0.2960(10) 0.9733(5)
C25_3 C 0.4303(5) 0.8222(11) 0.3388(5)
C26_3 C 0.4313(4) 0.4141(10) 0.8394(4)
C28_3 C 0.3005(4) 0.4421(9) 0.4677(4)
C29_3 C 0.7009(4) 0.5137(10) 0.8860(5)
H15_3 H 0.703247 0.450178 0.883102
N18_3 N 0.7783(3) 0.5675(7) 0.9804(3)
C30_3 C 0.2262(4) 0.1727(9) 0.4156(4)
C31_3 C 0.6917(5) 0.6944(11) 0.8908(6)
H16_3 H 0.687652 0.757344 0.893688
C32_3 C 0.3862(7) 0.1483(14) 0.5977(7)
H17_3 H 0.407070 0.177620 0.616781
C33_3 C 0.2022(4) 0.2202(10) 0.3812(4)
H18_3 H 0.206512 0.282583 0.376945
C34_3 C 0.3331(5) 0.4775(10) 0.4983(6)
H19_3 H 0.350038 0.439142 0.517764
C35_3 C 0.3242(5) 0.0694(10) 0.5488(5)
H20_3 H 0.302383 0.039328 0.531874
C36_3 C 0.4814(4) 0.4586(10) 0.8083(5)
C37_3 C 0.3966(5) 0.4956(12) 0.9360(6)
H21_3 H 0.404974 0.533220 0.960643
C38_3 C 0.4671(5) 0.2315(11) 0.7307(5)
H22_3 H 0.489628 0.267147 0.731979
C39_3 C 0.4006(7) 0.1318(18) 0.7248(8)
H23_3 H 0.377346 0.098140 0.722439
C41_3 C 0.4442(4) 0.9030(10) 0.2846(4)
C42_3 C 0.3388(6) 0.5705(13) 0.4983(6)
H25_3 H 0.360248 0.596220 0.517909
C43_3 C 0.2172(4) 0.0858(11) 0.4212(5)
H26_3 H 0.231912 0.052485 0.444828
C44_3 C 0.5614(8) 0.6543(17) 0.2763(8)
H27_3 H 0.572509 0.647786 0.251594
N20_3 N 0.3776(5) 0.0622(9) 0.6076(4)
N21_3 N 0.7642(3) 0.4271(7) 0.9436(4)
C45_3 C 0.3943(5) 0.7483(14) 0.4381(5)
H28_3 H 0.404155 0.717216 0.464502
C46_3 C 0.1873(4) 0.0450(11) 0.3932(5)
C47_3 C 0.4609(5) 0.1534(12) 0.7051(5)
H30_3 H 0.480790 0.132961 0.691481
C51_3 C 0.2595(4) 0.2210(9) 0.4456(4)
N22_2 N 0.8155(4) 0.1080(9) 0.9763(4)
N23_3 N 0.4585(3) 0.7662(8) 0.3408(3)
C52_3 C 0.4054(4) 0.8086(11) 0.3732(4)
C53_3 C 0.5631(8) 0.630(2) 0.3494(8)
H33_3 H 0.575797 0.604097 0.376230
C55_3 C 0.7924(3) 0.3925(9) 0.9721(4)
C56_3 C 0.5330(7) 0.684(2) 0.3497(7)
H35_3 H 0.525535 0.696135 0.376267
C57_3 C 0.3665(5) 0.8433(13) 0.3646(6)
H36_3 H 0.355669 0.875687 0.338849
C58_3 C 0.4176(4) 0.7583(12) 0.4082(4)
H37_3 H 0.442106 0.729278 0.412767
C59_3 C 0.4080(7) 0.201(2) 0.7513(7)
H38_3 H 0.390390 0.214429 0.769241
C60_3 C 0.2774(5) 0.4985(9) 0.4417(5)
H39_3 H 0.255154 0.476867 0.421696
C61_3 C 0.3669(6) 0.1955(13) 0.5623(7)
H40_3 H 0.376240 0.251513 0.554132
C62_3 C 0.3462(5) 0.8265(14) 0.3958(5)
H41_3 H 0.320754 0.850255 0.391579
C63_3 C 0.7855(5) 0.1428(11) 0.9475(5)
H42_3 H 0.768524 0.103012 0.928764
C64_3 C 0.4397(4) 0.2559(10) 0.7544(4)
C65_3 C 0.6718(5) 0.5635(10) 0.8577(5)
H43_3 H 0.653914 0.531101 0.836246
C66_3 C 0.7253(4) 0.5601(9) 0.9174(4)
C67_3 C 0.7212(4) 0.6533(10) 0.9190(5)
H44_3 H 0.738877 0.687942 0.939651
N24_3 N 0.5798(7) 0.6231(15) 0.8095(7)
C68_3 C 0.5606(8) 0.5858(19) 0.7715(8)
H45_3 H 0.568860 0.597707 0.745372
C69_3 C 0.5295(8) 0.5313(19) 0.7710(8)
H46_3 H 0.516039 0.505280 0.744454
C70_3 C 0.5176(7) 0.5141(17) 0.8084(7)
C71_3 C 0.5369(8) 0.552(2) 0.8464(7)
H47_3 H 0.528574 0.539566 0.872532
C72_3 C 0.5680(8) 0.6060(18) 0.8470(7)
H48_3 H 0.581413 0.632039 0.873459
Zn8_2 Zn 0.62210(5) 0.52267(14) 0.31611(6)
N25_2 N 0.0770(8) 0.1090(19) 0.3129(9)
N27_2 N 0.3155(4) 0.6080(9) 0.9763(4)
I3_3 I 0.10597(4) 0.88027(10) 0.35353(5)
I7_3 I 0.38558(19) 0.8803(3) 0.68923(17)
I8_3 I 0.47773(16) 0.9741(4) 0.62079(16)
Zn5_3 Zn 0.4203(3) 0.9984(4) 0.6539(2)
H11_3 H 0.340922 0.965038 0.589901
H29_3 H 0.182546 0.983039 0.397785
Zn7_2 Zn 0.8314(7) 0.9718(12) 0.9804(7)
I9_4 I 0.1446(3) 0.1985(8) 0.7405(3)
I10_4 I 0.1120(3) 0.3575(6) 0.8471(4)
Zn1_4 Zn 0.1287(5) 0.2182(11) 0.8130(6)
C6_4 C 0.2562(4) 0.0171(9) 0.9477(4)
C9_4 C 0.0115(9) 0.226(2) 0.3098(9)
N15_4 N 0.1682(3) 0.1484(9) 0.8591(4)
C18_4 C 0.0275(7) 0.2137(17) 0.2736(8)
H10_4 H 0.016611 0.243421 0.247073
C29_4 C 0.2009(4) 0.0137(10) 0.8860(5)
N18_4 N 0.2783(3) 0.0675(7) 0.9804(3)
C31_4 C 0.1917(5) 0.1944(11) 0.8908(6)
H16_4 H 0.187652 0.257344 0.893688
C44_4 C 0.0614(8) 0.1543(17) 0.2763(8)
H27_4 H 0.072509 0.147786 0.251594
C53_4 C 0.0631(8) 0.130(2) 0.3494(8)
H33_4 H 0.075797 0.104097 0.376230
C56_4 C 0.0330(7) 0.184(2) 0.3497(7)
H35_4 H 0.025535 0.196135 0.376267
C65_4 C 0.1718(5) 0.0635(10) 0.8577(5)
H43_4 H 0.153914 0.031101 0.836246
C66_4 C 0.2253(4) 0.0601(9) 0.9174(4)
C67_4 C 0.2212(4) 0.1533(10) 0.9190(5)
H44_4 H 0.238877 0.187942 0.939651
N24_4 N 0.0798(7) 0.1231(15) 0.8095(7)
C68_4 C 0.0606(8) 0.0858(19) 0.7715(8)
H45_4 H 0.068860 0.097707 0.745372
C69_4 C 0.0295(8) 0.0313(19) 0.7710(8)
H46_4 H 0.016039 0.005280 0.744454
C70_4 C 0.0176(7) 0.0141(17) 0.8084(7)
C71_4 C 0.0369(8) 0.052(2) 0.8464(7)
H47_4 H 0.028574 0.039566 0.872532
C72_4 C 0.0680(8) 0.1060(18) 0.8470(7)
H48_4 H 0.081413 0.132039 0.873459
C4_4 C 0.2783(4) 0.7353(10) 0.9440(5)
H3_4 H 0.257724 0.757855 0.922096
C23_4 C 0.3018(4) 0.7960(10) 0.9733(5)
H15_4 H 0.203247 0.950178 0.883102
N21_4 N 0.2642(3) 0.9271(7) 0.9436(4)
C55_4 C 0.2924(3) 0.8925(9) 0.9721(4)
C63_4 C 0.2855(5) 0.6428(11) 0.9475(5)
H42_4 H 0.268524 0.603012 0.928764
I5_4 I 0.7665(2) 0.3517(5) 0.4530(2)
I6_4 I 0.87257(16) 0.2821(5) 0.55162(18)
Zn4_4 Zn 0.8278(4) 0.2630(9) 0.4775(3)
N3_4 N 0.8147(4) 0.1237(8) 0.4713(4)
C1_4 C 0.7862(5) 0.0888(12) 0.4442(6)
H1_4 H 0.770054 0.128246 0.424401
N10_4 N 0.8591(4) 0.2808(9) 0.4306(4)
C10_4 C 0.9372(4) 0.4832(10) 0.2550(4)
C12_4 C 0.9045(4) 0.5322(11) 0.2514(5)
H5_4 H 0.885091 0.516297 0.266693
N12_4 N 0.9213(3) 0.3938(9) 0.3123(4)
C14_4 C 0.9651(4) 0.5101(9) 0.2325(4)
H7_4 H 0.988359 0.476596 0.234966
N14_4 N 0.9720(3) 0.3472(8) 0.2808(3)
C16_4 C 0.9792(4) 0.2786(10) 0.3099(4)
C17_4 C 0.9586(4) 0.5844(9) 0.2069(4)
H9_4 H 0.977509 0.600801 0.190997
H12_4 H 0.947666 0.006466 0.913700
C25_4 C 0.9303(5) 0.3222(11) 0.3388(5)
H21_4 H 0.904974 0.033220 0.960643
C41_4 C 0.9442(4) 0.4030(10) 0.2846(4)
C42_4 C 0.8388(6) 0.0705(13) 0.4983(6)
H25_4 H 0.860248 0.096220 0.517909
C45_4 C 0.8943(5) 0.2483(14) 0.4381(5)
H28_4 H 0.904155 0.217216 0.464502
C48_4 C 0.9003(6) 0.6101(11) 0.2231(5)
H31_4 H 0.876985 0.643952 0.218958
N23_4 N 0.9585(3) 0.2662(8) 0.3408(3)
C52_4 C 0.9054(4) 0.3086(11) 0.3732(4)
C57_4 C 0.8665(5) 0.3433(13) 0.3646(6)
H36_4 H 0.855669 0.375687 0.338849
C58_4 C 0.9176(4) 0.2583(12) 0.4082(4)
H37_4 H 0.942106 0.229278 0.412767
C62_4 C 0.8462(5) 0.3265(14) 0.3958(5)
H41_4 H 0.820754 0.350255 0.391579
I1_4 I 0.7720(4) 0.8803(7) 0.9550(3)
I2_4 I 0.64060(3) 0.52823(11) 0.24299(4)
I3_4 I 0.60597(4) 0.38027(10) 0.35353(5)
I7_4 I 0.88558(19) 0.3803(3) 0.68923(17)
I8_4 I 0.97773(16) 0.4741(4) 0.62079(16)
Zn5_4 Zn 0.9203(3) 0.4984(4) 0.6539(2)
N1_4 N 0.7638(3) 0.8069(7) 0.4400(3)
N2_4 N 0.9612(3) 0.9738(9) 0.8386(4)
N4_4 N 0.7782(3) 0.6675(8) 0.4772(3)
N5_4 N 0.8175(3) 0.7942(8) 0.5000(4)
C2_4 C 0.6727(5) 0.6756(11) 0.3540(5)
H2_4 H 0.657330 0.707432 0.330285
N7_4 N 0.9237(3) 0.8440(8) 0.8119(3)
N8_4 N 0.6644(3) 0.5860(7) 0.3599(4)
C3_4 C 0.7946(4) 0.8419(9) 0.4692(5)
N9_4 N 0.9746(3) 0.8954(8) 0.7779(3)
C5_4 C 0.8500(5) 0.9065(12) 0.8923(5)
H4_4 H 0.824592 0.881766 0.886262
C7_4 C 0.8323(4) 0.6562(9) 0.5387(5)
C8_4 C 0.9453(4) 0.8366(10) 0.7830(4)
C11_4 C 0.9076(4) 0.9278(9) 0.8686(4)
C13_4 C 0.8722(4) 0.8903(12) 0.8655(5)
H6_4 H 0.863022 0.849684 0.842247
N11_4 N 0.9284(5) 0.6079(10) 0.6993(4)
C19_4 C 0.8474(5) 0.5250(11) 0.5835(5)
H11_4 H 0.840922 0.465038 0.589901
C20_4 C 0.8081(4) 0.7078(9) 0.5033(4)
C21_4 C 0.9223(6) 0.9819(15) 0.9077(6)
N16_4 N 0.8618(4) 0.9591(8) 0.9301(4)
C26_4 C 0.9313(4) 0.9141(10) 0.8394(4)
C28_4 C 0.8005(4) 0.9421(9) 0.4677(4)
C30_4 C 0.7262(4) 0.6727(9) 0.4156(4)
C32_4 C 0.8862(7) 0.6483(14) 0.5977(7)
H17_4 H 0.907070 0.677620 0.616781
C33_4 C 0.7022(4) 0.7202(10) 0.3812(4)
H18_4 H 0.706512 0.782583 0.376945
C34_4 C 0.8331(5) 0.9775(10) 0.4983(6)
H19_4 H 0.850038 0.939142 0.517764
C35_4 C 0.8242(5) 0.5694(10) 0.5488(5)
H20_4 H 0.802383 0.539328 0.531874
C36_4 C 0.9814(4) 0.9586(10) 0.8083(5)
C37_4 C 0.8966(5) 0.9956(12) 0.9360(6)
C38_4 C 0.9671(5) 0.7315(11) 0.7307(5)
H22_4 H 0.989628 0.767147 0.731979
C39_4 C 0.9006(7) 0.6318(18) 0.7248(8)
H23_4 H 0.877346 0.598140 0.722439
C43_4 C 0.7172(4) 0.5858(11) 0.4212(5)
H26_4 H 0.731912 0.552485 0.444828
N20_4 N 0.8776(5) 0.5622(9) 0.6076(4)
C46_4 C 0.6873(4) 0.5450(11) 0.3932(5)
H29_4 H 0.682546 0.483039 0.397785
C47_4 C 0.9609(5) 0.6534(12) 0.7051(5)
H30_4 H 0.980790 0.632961 0.691481
C51_4 C 0.7595(4) 0.7210(9) 0.4456(4)
C59_4 C 0.9080(7) 0.701(2) 0.7513(7)
H38_4 H 0.890390 0.714429 0.769241
C60_4 C 0.7774(5) 0.9985(9) 0.4417(5)
H39_4 H 0.755154 0.976867 0.421696
C61_4 C 0.8669(6) 0.6955(13) 0.5623(7)
H40_4 H 0.876240 0.751513 0.554132
C64_4 C 0.9397(4) 0.7559(10) 0.7544(4)
I4_3 I 0.1193(4) 0.9488(7) 0.9482(4)
H8_3 H 0.631779 0.977734 0.934456
C24_3 C 0.6617(4) 0.6675(10) 0.9966(5)
H14_3 H 0.639843 0.644721 0.976521
N19_3 N 0.6835(3) 0.9396(8) 0.9957(4)
C40_3 C 0.6687(5) 0.7566(12) 0.9967(6)
H24_3 H 0.652827 0.793662 0.975484
H8_4 H 0.368221 0.977734 0.065544
C24_4 C 0.3383(4) 0.6675(10) 0.0034(5)
H14_4 H 0.360157 0.644721 0.023479
N19_4 N 0.3165(3) 0.9396(8) 0.0043(4)
C40_4 C 0.3313(5) 0.7566(12) 0.0033(6)
H24_4 H 0.347173 0.793662 0.024516
I4_4 I 0.8807(4) 0.9488(7) 0.0518(4)
loop_
_geom_bond_atom_site_label_1
_geom_bond_atom_site_label_2
_geom_bond_site_symmetry_1
_geom_bond_site_symmetry_2
C12 H5 1_555 1_555
C17 C14 1_555 1_555
H9 C17 1_555 1_555
N17 C17 1_555 1_555
C48 C12 1_555 1_555
H31 C48 1_555 1_555
Zn9 N17 1_555 1_555
N17 C48 1_555 1_555
N6 C50 1_555 1_555
C22 H13 1_555 1_555
C49 C15 1_555 1_555
C50 C22 1_555 1_555
H32 C50 1_555 1_555
C54 N6 1_555 1_555
H34 C54 1_555 1_555
I11 Zn9 1_555 1_555
Zn9 N6 1_555 1_555
I12 Zn9 1_555 1_555
C15 C54 1_555 1_555
C22 C49 1_555 1_555
C27 C49 1_555 1_555
I1 Zn2 1_555 1_555
I2 Zn3 1_555 1_555
I5 Zn4 1_555 1_555
I6 Zn4 1_555 1_555
I9 Zn1 1_555 1_555
I10 Zn1 1_555 1_555
Zn1 N15 1_555 1_555
Zn2 N16 1_555 1_555
Zn3 N8 1_555 1_555
Zn4 N3 1_555 1_555
N1 C3 1_555 1_555
N2 C26 1_555 1_555
N3 C1 1_555 1_555
N4 C20 1_555 1_555
N5 C3 1_555 1_555
C1 H1 1_555 1_555
C2 H2 1_555 1_555
N7 C8 1_555 1_555
N8 C2 1_555 1_555
C3 C28 1_555 1_555
N9 C8 1_555 1_555
C4 H3 1_555 1_555
C5 H4 1_555 1_555
C6 N18 1_555 1_555
C7 C20 1_555 1_555
C8 C64 1_555 1_555
N10 Zn4 1_555 1_555
C9 C16 1_555 1_555
C11 C13 1_555 1_555
C13 C5 1_555 1_555
H6 C13 1_555 1_555
N11 C39 1_555 1_555
N12 C25 1_555 1_555
N13 C44 1_555 1_555
N14 C16 1_555 1_555
N15 C31 1_555 1_555
C16 N23 1_555 1_555
C18 C9 1_555 1_555
H10 C18 1_555 1_555
C20 N5 1_555 1_555
C21 C11 1_555 1_555
H12 C21 1_555 1_555
N16 C5 1_555 1_555
C23 C4 1_555 1_555
C25 N23 1_555 1_555
C26 N7 1_555 1_555
C28 C34 1_555 1_555
C29 H15 1_555 1_555
C30 C33 1_555 1_555
C31 H16 1_555 1_555
C32 H17 1_555 1_555
C33 C2 1_555 1_555
H18 C33 1_555 1_555
C34 H19 1_555 1_555
C35 C7 1_555 1_555
H20 C35 1_555 1_555
C36 N2 1_555 1_555
C37 C21 1_555 1_555
H21 C37 1_555 1_555
C38 H22 1_555 1_555
C39 H23 1_555 1_555
C41 C10 1_555 1_555
C42 N3 1_555 1_555
H25 C42 1_555 1_555
C43 C30 1_555 1_555
H26 C43 1_555 1_555
C44 C18 1_555 1_555
H27 C44 1_555 1_555
N21 C6 1_555 1_555
C45 N10 1_555 1_555
H28 C45 1_555 1_555
C46 N8 1_555 1_555
C47 N11 1_555 1_555
H30 C47 1_555 1_555
C51 N1 1_555 1_555
C52 C25 1_555 1_555
C53 N13 1_555 1_555
H33 C53 1_555 1_555
C55 C23 1_555 1_555
C56 C9 1_555 1_555
H35 C56 1_555 1_555
C57 C52 1_555 1_555
H36 C57 1_555 1_555
C58 C45 1_555 1_555
H37 C58 1_555 1_555
C59 C39 1_555 1_555
H38 C59 1_555 1_555
C60 C1 1_555 1_555
H39 C60 1_555 1_555
C61 C7 1_555 1_555
H40 C61 1_555 1_555
C62 N10 1_555 1_555
H41 C62 1_555 1_555
C63 C4 1_555 1_555
H42 C63 1_555 1_555
C64 C38 1_555 1_555
C65 N15 1_555 1_555
H43 C65 1_555 1_555
C66 C6 1_555 1_555
C67 C31 1_555 1_555
H44 C67 1_555 1_555
N24 Zn1 1_555 1_555
C68 N24 1_555 1_555
H45 C68 1_555 1_555
C69 C68 1_555 1_555
H46 C69 1_555 1_555
C70 C36 1_555 1_555
C71 C70 1_555 1_555
H47 C71 1_555 1_555
C72 N24 1_555 1_555
H48 C72 1_555 1_555
Zn8 N13 1_555 1_555
N25 Zn3 1_555 1_555
N27 Zn2 1_555 1_555
N4 C51 1_555 1_555
N9 C36 1_555 1_555
C11 C26 1_555 1_555
N12 C41 1_555 1_555
N14 C41 1_555 1_555
C19 C35 1_555 1_555
C19 N20 1_555 1_555
N16 C37 1_555 1_555
C28 C60 1_555 1_555
C29 C65 1_555 1_555
C29 C66 1_555 1_555
C30 C51 1_555 1_555
C32 N20 1_555 1_555
C32 C61 1_555 1_555
C34 C42 1_555 1_555
C38 C47 1_555 1_555
C43 C46 1_555 1_555
N21 C55 1_555 1_555
N22 C63 1_555 1_555
C52 C58 1_555 1_555
C53 C56 1_555 1_555
C57 C62 1_555 1_555
C59 C64 1_555 1_555
C66 C67 1_555 1_555
C69 C70 1_555 1_555
C71 C72 1_555 1_555
N6_2 C50_2 1_555 1_555
C15_2 H8 1_555 1_555
C22_2 H13_2 1_555 1_555
C24 H14 1_555 1_555
N19 C27_2 1_555 1_555
H24 C40 1_555 1_555
C49_2 C15_2 1_555 1_555
C50_2 C22_2 1_555 1_555
H32_2 C50_2 1_555 1_555
C54_2 N6_2 1_555 1_555
H34_2 C54_2 1_555 1_555
I11_2 Zn6 1_555 1_555
Zn6 N6_2 1_555 1_555
I12_2 Zn6 1_555 1_555
N26 Zn6 1_555 1_555
C15_2 C54_2 1_555 1_555
C22_2 C49_2 1_555 1_555
C24 C40 1_555 1_555
C27_2 C49_2 1_555 1_555
I7 Zn5 1_555 1_555
I8 Zn5 1_555 1_555
I5_2 Zn4_2 1_555 1_555
I6_2 Zn4_2 1_555 1_555
Zn4_2 N3_2 1_555 1_555
N3_2 C1_2 1_555 1_555
C1_2 H1_2 1_555 1_555
N10_2 Zn4_2 1_555 1_555
C10_2 C12_2 1_555 1_555
C12_2 H5_2 1_555 1_555
N12_2 C25_2 1_555 1_555
C14_2 C10_2 1_555 1_555
H7_2 C14_2 1_555 1_555
N14_2 C16_2 1_555 1_555
C16_2 N23_2 1_555 1_555
C17_2 C14_2 1_555 1_555
H9_2 C17_2 1_555 1_555
N26 C17_2 1_555 1_555
C25_2 N23_2 1_555 1_555
C41_2 C10_2 1_555 1_555
C42_2 N3_2 1_555 1_555
H25_2 C42_2 1_555 1_555
C45_2 N10_2 1_555 1_555
H28_2 C45_2 1_555 1_555
C48_2 C12_2 1_555 1_555
H31_2 C48_2 1_555 1_555
C52_2 C25_2 1_555 1_555
C57_2 C52_2 1_555 1_555
H36_2 C57_2 1_555 1_555
C58_2 C45_2 1_555 1_555
H37_2 C58_2 1_555 1_555
C62_2 N10_2 1_555 1_555
H41_2 C62_2 1_555 1_555
N12_2 C41_2 1_555 1_555
N14_2 C41_2 1_555 1_555
N26 C48_2 1_555 1_555
C52_2 C58_2 1_555 1_555
C57_2 C62_2 1_555 1_555
I1_2 Zn7 1_555 1_555
I2_2 Zn8 1_555 1_555
I3_2 Zn8 1_555 1_555
I7_2 Zn5_2 1_555 1_555
I8_2 Zn5_2 1_555 1_555
Zn7 N16_2 1_555 1_555
Zn8 N8_2 1_555 1_555
Zn5_2 N11_2 1_555 1_555
N1_2 C3_2 1_555 1_555
N2_2 C26_2 1_555 1_555
N4_2 C20_2 1_555 1_555
N5_2 C3_2 1_555 1_555
C2_2 H2_2 1_555 1_555
N7_2 C8_2 1_555 1_555
N8_2 C2_2 1_555 1_555
C3_2 C28_2 1_555 1_555
N9_2 C8_2 1_555 1_555
C5_2 H4_2 1_555 1_555
C7_2 C20_2 1_555 1_555
C8_2 C64_2 1_555 1_555
C11_2 C13_2 1_555 1_555
C13_2 C5_2 1_555 1_555
H6_2 C13_2 1_555 1_555
N11_2 C39_2 1_555 1_555
C19_2 H11_2 1_555 1_555
C20_2 N5_2 1_555 1_555
C21_2 C11_2 1_555 1_555
N16_2 C5_2 1_555 1_555
C26_2 N7_2 1_555 1_555
C28_2 C34_2 1_555 1_555
C30_2 C33_2 1_555 1_555
C32_2 H17_2 1_555 1_555
C33_2 C2_2 1_555 1_555
H18_2 C33_2 1_555 1_555
C34_2 H19_2 1_555 1_555
C35_2 C7_2 1_555 1_555
H20_2 C35_2 1_555 1_555
C36_2 N2_2 1_555 1_555
C37_2 C21_2 1_555 1_555
C38_2 H22_2 1_555 1_555
C39_2 H23_2 1_555 1_555
C43_2 C30_2 1_555 1_555
H26_2 C43_2 1_555 1_555
N20_2 Zn5_2 1_555 1_555
C46_2 N8_2 1_555 1_555
H29_2 C46_2 1_555 1_555
C47_2 N11_2 1_555 1_555
H30_2 C47_2 1_555 1_555
C51_2 N1_2 1_555 1_555
C59_2 C39_2 1_555 1_555
H38_2 C59_2 1_555 1_555
H39_2 C60_2 1_555 1_555
C61_2 C7_2 1_555 1_555
H40_2 C61_2 1_555 1_555
C64_2 C38_2 1_555 1_555
N4_2 C51_2 1_555 1_555
N9_2 C36_2 1_555 1_555
C11_2 C26_2 1_555 1_555
C19_2 C35_2 1_555 1_555
C19_2 N20_2 1_555 1_555
N16_2 C37_2 1_555 1_555
C28_2 C60_2 1_555 1_555
C30_2 C51_2 1_555 1_555
C32_2 N20_2 1_555 1_555
C32_2 C61_2 1_555 1_555
C38_2 C47_2 1_555 1_555
C43_2 C46_2 1_555 1_555
C59_2 C64_2 1_555 1_555
I9_2 Zn1_2 1_555 1_555
I10_2 Zn1_2 1_555 1_555
Zn1_2 N15_2 1_555 1_555
C6_2 N18_2 1_555 1_555
N25 C44_2 1_555 1_555
N15_2 C31_2 1_555 1_555
C18_2 C9_2 1_555 1_555
H10_2 C18_2 1_555 1_555
C31_2 H16_2 1_555 1_555
C44_2 C18_2 1_555 1_555
H27_2 C44_2 1_555 1_555
C53_2 N25 1_555 1_555
H33_2 C53_2 1_555 1_555
C56_2 C9_2 1_555 1_555
H35_2 C56_2 1_555 1_555
C65_2 N15_2 1_555 1_555
H43_2 C65_2 1_555 1_555
C66_2 C6_2 1_555 1_555
C67_2 C31_2 1_555 1_555
H44_2 C67_2 1_555 1_555
N24_2 Zn1_2 1_555 1_555
C68_2 N24_2 1_555 1_555
H45_2 C68_2 1_555 1_555
C69_2 C68_2 1_555 1_555
H46_2 C69_2 1_555 1_555
C71_2 C70_2 1_555 1_555
H47_2 C71_2 1_555 1_555
C72_2 N24_2 1_555 1_555
H48_2 C72_2 1_555 1_555
C29_2 C65_2 1_555 1_555
C29_2 C66_2 1_555 1_555
C53_2 C56_2 1_555 1_555
C66_2 C67_2 1_555 1_555
C69_2 C70_2 1_555 1_555
C71_2 C72_2 1_555 1_555
C4_2 H3_2 1_555 1_555
C23_2 C4_2 1_555 1_555
C55_2 C23_2 1_555 1_555
C63_2 C4_2 1_555 1_555
H42_2 C63_2 1_555 1_555
N21_2 C55_2 1_555 1_555
N27 C63_2 1_555 1_555
C12_3 H5_3 1_555 1_555
C17_3 C14_3 1_555 1_555
H9_3 C17_3 1_555 1_555
N17_2 C17_3 1_555 1_555
C48_3 C12_3 1_555 1_555
H31_3 C48_3 1_555 1_555
Zn9_2 N17_2 1_555 1_555
N17_2 C48_3 1_555 1_555
N6_3 C50_3 1_555 1_555
C22_3 H13_3 1_555 1_555
C49_3 C15_3 1_555 1_555
C50_3 C22_3 1_555 1_555
H32_3 C50_3 1_555 1_555
C54_3 N6_3 1_555 1_555
H34_3 C54_3 1_555 1_555
I11_3 Zn9_2 1_555 1_555
Zn9_2 N6_3 1_555 1_555
I12_3 Zn9_2 1_555 1_555
C15_3 C54_3 1_555 1_555
C22_3 C49_3 1_555 1_555
C27_3 C49_3 1_555 1_555
N6_4 C50_4 1_555 1_555
C15_4 H8_2 1_555 1_555
C22_4 H13_4 1_555 1_555
C24_2 H14_2 1_555 1_555
N19_2 C27_4 1_555 1_555
H24_2 C40_2 1_555 1_555
C49_4 C15_4 1_555 1_555
C50_4 C22_4 1_555 1_555
H32_4 C50_4 1_555 1_555
C54_4 N6_4 1_555 1_555
H34_4 C54_4 1_555 1_555
I11_4 Zn6_2 1_555 1_555
Zn6_2 N6_4 1_555 1_555
I12_4 Zn6_2 1_555 1_555
N26_2 Zn6_2 1_555 1_555
C15_4 C54_4 1_555 1_555
C22_4 C49_4 1_555 1_555
C24_2 C40_2 1_555 1_555
C27_4 C49_4 1_555 1_555
I1_3 Zn2_2 1_555 1_555
I2_3 Zn3_2 1_555 1_555
I5_3 Zn4_3 1_555 1_555
I6_3 Zn4_3 1_555 1_555
I9_3 Zn1_3 1_555 1_555
I10_3 Zn1_3 1_555 1_555
Zn1_3 N15_3 1_555 1_555
Zn2_2 N16_3 1_555 1_555
Zn3_2 N8_3 1_555 1_555
Zn4_3 N3_3 1_555 1_555
N1_3 C3_3 1_555 1_555
N2_3 C26_3 1_555 1_555
N3_3 C1_3 1_555 1_555
N4_3 C20_3 1_555 1_555
N5_3 C3_3 1_555 1_555
C1_3 H1_3 1_555 1_555
C2_3 H2_3 1_555 1_555
N7_3 C8_3 1_555 1_555
N8_3 C2_3 1_555 1_555
C3_3 C28_3 1_555 1_555
N9_3 C8_3 1_555 1_555
C4_3 H3_3 1_555 1_555
C5_3 H4_3 1_555 1_555
C6_3 N18_3 1_555 1_555
C7_3 C20_3 1_555 1_555
C8_3 C64_3 1_555 1_555
N10_3 Zn4_3 1_555 1_555
C9_3 C16_3 1_555 1_555
C11_3 C13_3 1_555 1_555
C13_3 C5_3 1_555 1_555
H6_3 C13_3 1_555 1_555
N11_3 C39_3 1_555 1_555
N12_3 C25_3 1_555 1_555
N13_2 C44_3 1_555 1_555
N14_3 C16_3 1_555 1_555
N15_3 C31_3 1_555 1_555
C16_3 N23_3 1_555 1_555
C18_3 C9_3 1_555 1_555
H10_3 C18_3 1_555 1_555
C20_3 N5_3 1_555 1_555
C21_3 C11_3 1_555 1_555
H12_3 C21_3 1_555 1_555
N16_3 C5_3 1_555 1_555
C23_3 C4_3 1_555 1_555
C25_3 N23_3 1_555 1_555
C26_3 N7_3 1_555 1_555
C28_3 C34_3 1_555 1_555
C29_3 H15_3 1_555 1_555
C30_3 C33_3 1_555 1_555
C31_3 H16_3 1_555 1_555
C32_3 H17_3 1_555 1_555
C33_3 C2_3 1_555 1_555
H18_3 C33_3 1_555 1_555
C34_3 H19_3 1_555 1_555
C35_3 C7_3 1_555 1_555
H20_3 C35_3 1_555 1_555
C36_3 N2_3 1_555 1_555
C37_3 C21_3 1_555 1_555
H21_3 C37_3 1_555 1_555
C38_3 H22_3 1_555 1_555
C39_3 H23_3 1_555 1_555
C41_3 C10_3 1_555 1_555
C42_3 N3_3 1_555 1_555
H25_3 C42_3 1_555 1_555
C43_3 C30_3 1_555 1_555
H26_3 C43_3 1_555 1_555
C44_3 C18_3 1_555 1_555
H27_3 C44_3 1_555 1_555
N21_3 C6_3 1_555 1_555
C45_3 N10_3 1_555 1_555
H28_3 C45_3 1_555 1_555
C46_3 N8_3 1_555 1_555
C47_3 N11_3 1_555 1_555
H30_3 C47_3 1_555 1_555
C51_3 N1_3 1_555 1_555
C52_3 C25_3 1_555 1_555
C53_3 N13_2 1_555 1_555
H33_3 C53_3 1_555 1_555
C55_3 C23_3 1_555 1_555
C56_3 C9_3 1_555 1_555
H35_3 C56_3 1_555 1_555
C57_3 C52_3 1_555 1_555
H36_3 C57_3 1_555 1_555
C58_3 C45_3 1_555 1_555
H37_3 C58_3 1_555 1_555
C59_3 C39_3 1_555 1_555
H38_3 C59_3 1_555 1_555
C60_3 C1_3 1_555 1_555
H39_3 C60_3 1_555 1_555
C61_3 C7_3 1_555 1_555
H40_3 C61_3 1_555 1_555
C62_3 N10_3 1_555 1_555
H41_3 C62_3 1_555 1_555
C63_3 C4_3 1_555 1_555
H42_3 C63_3 1_555 1_555
C64_3 C38_3 1_555 1_555
C65_3 N15_3 1_555 1_555
H43_3 C65_3 1_555 1_555
C66_3 C6_3 1_555 1_555
C67_3 C31_3 1_555 1_555
H44_3 C67_3 1_555 1_555
N24_3 Zn1_3 1_555 1_555
C68_3 N24_3 1_555 1_555
H45_3 C68_3 1_555 1_555
C69_3 C68_3 1_555 1_555
H46_3 C69_3 1_555 1_555
C70_3 C36_3 1_555 1_555
C71_3 C70_3 1_555 1_555
H47_3 C71_3 1_555 1_555
C72_3 N24_3 1_555 1_555
H48_3 C72_3 1_555 1_555
Zn8_2 N13_2 1_555 1_555
N25_2 Zn3_2 1_555 1_555
N27_2 Zn2_2 1_555 1_555
N4_3 C51_3 1_555 1_555
N9_3 C36_3 1_555 1_555
C11_3 C26_3 1_555 1_555
N12_3 C41_3 1_555 1_555
N14_3 C41_3 1_555 1_555
C19_3 C35_3 1_555 1_555
C19_3 N20_3 1_555 1_555
N16_3 C37_3 1_555 1_555
C28_3 C60_3 1_555 1_555
C29_3 C65_3 1_555 1_555
C29_3 C66_3 1_555 1_555
C30_3 C51_3 1_555 1_555
C32_3 N20_3 1_555 1_555
C32_3 C61_3 1_555 1_555
C34_3 C42_3 1_555 1_555
C38_3 C47_3 1_555 1_555
C43_3 C46_3 1_555 1_555
N21_3 C55_3 1_555 1_555
N22_2 C63_3 1_555 1_555
C52_3 C58_3 1_555 1_555
C53_3 C56_3 1_555 1_555
C57_3 C62_3 1_555 1_555
C59_3 C64_3 1_555 1_555
C66_3 C67_3 1_555 1_555
C69_3 C70_3 1_555 1_555
C71_3 C72_3 1_555 1_555
I7_3 Zn5_3 1_555 1_555
I8_3 Zn5_3 1_555 1_555
I9_4 Zn1_4 1_555 1_555
I10_4 Zn1_4 1_555 1_555
Zn1_4 N15_4 1_555 1_555
C6_4 N18_4 1_555 1_555
N25_2 C44_4 1_555 1_555
N15_4 C31_4 1_555 1_555
C18_4 C9_4 1_555 1_555
H10_4 C18_4 1_555 1_555
C31_4 H16_4 1_555 1_555
C44_4 C18_4 1_555 1_555
H27_4 C44_4 1_555 1_555
C53_4 N25_2 1_555 1_555
H33_4 C53_4 1_555 1_555
C56_4 C9_4 1_555 1_555
H35_4 C56_4 1_555 1_555
C65_4 N15_4 1_555 1_555
H43_4 C65_4 1_555 1_555
C66_4 C6_4 1_555 1_555
C67_4 C31_4 1_555 1_555
H44_4 C67_4 1_555 1_555
N24_4 Zn1_4 1_555 1_555
C68_4 N24_4 1_555 1_555
H45_4 C68_4 1_555 1_555
C69_4 C68_4 1_555 1_555
H46_4 C69_4 1_555 1_555
C71_4 C70_4 1_555 1_555
H47_4 C71_4 1_555 1_555
C72_4 N24_4 1_555 1_555
H48_4 C72_4 1_555 1_555
C29_4 C65_4 1_555 1_555
C29_4 C66_4 1_555 1_555
C53_4 C56_4 1_555 1_555
C66_4 C67_4 1_555 1_555
C69_4 C70_4 1_555 1_555
C71_4 C72_4 1_555 1_555
C4_4 H3_4 1_555 1_555
C23_4 C4_4 1_555 1_555
C55_4 C23_4 1_555 1_555
C63_4 C4_4 1_555 1_555
H42_4 C63_4 1_555 1_555
N21_4 C55_4 1_555 1_555
N27_2 C63_4 1_555 1_555
I5_4 Zn4_4 1_555 1_555
I6_4 Zn4_4 1_555 1_555
Zn4_4 N3_4 1_555 1_555
N3_4 C1_4 1_555 1_555
C1_4 H1_4 1_555 1_555
N10_4 Zn4_4 1_555 1_555
C10_4 C12_4 1_555 1_555
C12_4 H5_4 1_555 1_555
N12_4 C25_4 1_555 1_555
C14_4 C10_4 1_555 1_555
H7_4 C14_4 1_555 1_555
N14_4 C16_4 1_555 1_555
C16_4 N23_4 1_555 1_555
C17_4 C14_4 1_555 1_555
H9_4 C17_4 1_555 1_555
N26_2 C17_4 1_555 1_555
C25_4 N23_4 1_555 1_555
C41_4 C10_4 1_555 1_555
C42_4 N3_4 1_555 1_555
H25_4 C42_4 1_555 1_555
C45_4 N10_4 1_555 1_555
H28_4 C45_4 1_555 1_555
C48_4 C12_4 1_555 1_555
H31_4 C48_4 1_555 1_555
C52_4 C25_4 1_555 1_555
C57_4 C52_4 1_555 1_555
H36_4 C57_4 1_555 1_555
C58_4 C45_4 1_555 1_555
H37_4 C58_4 1_555 1_555
C62_4 N10_4 1_555 1_555
H41_4 C62_4 1_555 1_555
N12_4 C41_4 1_555 1_555
N14_4 C41_4 1_555 1_555
N26_2 C48_4 1_555 1_555
C52_4 C58_4 1_555 1_555
C57_4 C62_4 1_555 1_555
I1_4 Zn7_2 1_555 1_555
I2_4 Zn8_2 1_555 1_555
I3_4 Zn8_2 1_555 1_555
I7_4 Zn5_4 1_555 1_555
I8_4 Zn5_4 1_555 1_555
Zn7_2 N16_4 1_555 1_555
Zn8_2 N8_4 1_555 1_555
Zn5_4 N11_4 1_555 1_555
N1_4 C3_4 1_555 1_555
N2_4 C26_4 1_555 1_555
N4_4 C20_4 1_555 1_555
N5_4 C3_4 1_555 1_555
C2_4 H2_4 1_555 1_555
N7_4 C8_4 1_555 1_555
N8_4 C2_4 1_555 1_555
C3_4 C28_4 1_555 1_555
N9_4 C8_4 1_555 1_555
C5_4 H4_4 1_555 1_555
C7_4 C20_4 1_555 1_555
C8_4 C64_4 1_555 1_555
C11_4 C13_4 1_555 1_555
C13_4 C5_4 1_555 1_555
H6_4 C13_4 1_555 1_555
N11_4 C39_4 1_555 1_555
C19_4 H11_4 1_555 1_555
C20_4 N5_4 1_555 1_555
C21_4 C11_4 1_555 1_555
N16_4 C5_4 1_555 1_555
C26_4 N7_4 1_555 1_555
C28_4 C34_4 1_555 1_555
C30_4 C33_4 1_555 1_555
C32_4 H17_4 1_555 1_555
C33_4 C2_4 1_555 1_555
H18_4 C33_4 1_555 1_555
C34_4 H19_4 1_555 1_555
C35_4 C7_4 1_555 1_555
H20_4 C35_4 1_555 1_555
C36_4 N2_4 1_555 1_555
C37_4 C21_4 1_555 1_555
C38_4 H22_4 1_555 1_555
C39_4 H23_4 1_555 1_555
C43_4 C30_4 1_555 1_555
H26_4 C43_4 1_555 1_555
N20_4 Zn5_4 1_555 1_555
C46_4 N8_4 1_555 1_555
H29_4 C46_4 1_555 1_555
C47_4 N11_4 1_555 1_555
H30_4 C47_4 1_555 1_555
C51_4 N1_4 1_555 1_555
C59_4 C39_4 1_555 1_555
H38_4 C59_4 1_555 1_555
H39_4 C60_4 1_555 1_555
C61_4 C7_4 1_555 1_555
H40_4 C61_4 1_555 1_555
C64_4 C38_4 1_555 1_555
N4_4 C51_4 1_555 1_555
N9_4 C36_4 1_555 1_555
C11_4 C26_4 1_555 1_555
C19_4 C35_4 1_555 1_555
C19_4 N20_4 1_555 1_555
N16_4 C37_4 1_555 1_555
C28_4 C60_4 1_555 1_555
C30_4 C51_4 1_555 1_555
C32_4 N20_4 1_555 1_555
C32_4 C61_4 1_555 1_555
C38_4 C47_4 1_555 1_555
C43_4 C46_4 1_555 1_555
C59_4 C64_4 1_555 1_555
C24_3 H14_3 1_555 1_555
H24_3 C40_3 1_555 1_555
C24_3 C40_3 1_555 1_555
C24_4 H14_4 1_555 1_555
H24_4 C40_4 1_555 1_555
C24_4 C40_4 1_555 1_555

#END
