
###############################################################################
#
# This file contains modified crystal structure data generated from the
# MOF subset of the Cambridge Structural Database (CSD) v543 
# hosted by the Cambridge Crystallographic Data Centre (CCDC).
#
# This work is licensed under the Creative Commons
# Attribution-NonCommercial-ShareAlike 4.0 International License.
# To view a copy of this license, visit
# http://creativecommons.org/licenses/by-nc-sa/4.0/
# or send a letter to
# Creative Commons, PO Box 1866, Mountain View, CA 94042, USA.
#
# CIF created using the CSD Python API on 29 September 2022
# The structure has been converted into the P1 space group
# The structure has a 3D framework
# The original CSD entry QEDJES is in the monoclinic crystal system
# The original CSD entry QEDJES is in a Sohncke space group
# The framework has been calculated to contain at least 10.0% void space
# The void calculation uses a probe of radius 1.32A, grid spacing 0.4
#
###############################################################################

data_QEDJES
_chemical_formula_moiety         '(C288 H192 I48 N96 Zn24)n'
_symmetry_cell_setting           triclinic
_symmetry_space_group_name_H-M   'P 1'
_symmetry_Int_Tables_number      1
_space_group_name_Hall           'P 1'
loop_
_symmetry_equiv_pos_site_id
_symmetry_equiv_pos_as_xyz
1 x,y,z
_cell_length_a                   35.3722(3)
_cell_length_b                   14.76160(10)
_cell_length_c                   31.6219(3)
_cell_angle_alpha                90
_cell_angle_beta                 102.2900(10)
_cell_angle_gamma                90
_cell_volume                     16133
loop_
_atom_site_label
_atom_site_type_symbol
_atom_site_fract_x
_atom_site_fract_y
_atom_site_fract_z
I1 I 0.22959(19) 0.5552(3) 0.54626(13)
I4 I 0.1218(2) 0.6229(5) 0.44929(18)
Zn2 Zn 0.1695(4) 0.6450(9) 0.5198(5)
N3 N 0.0255(2) 0.5644(7) 0.7212(3)
N5 N 0.0386(2) 0.6451(7) 0.6609(3)
C2 C 0.0612(3) 0.4287(8) 0.7461(3)
C8 C 0.0541(3) 0.5090(8) 0.7169(3)
C11 C 0.0331(3) 0.4014(8) 0.7688(4)
H4 H 0.009604 0.434429 0.765968
C15 C 0.0928(3) 0.5997(8) 0.6298(3)
C16 C 0.1505(3) 0.5789(9) 0.6051(4)
H7 H 0.175642 0.552909 0.609850
N12 N 0.1382(3) 0.6292(7) 0.5695(3)
N16 N 0.0759(2) 0.5164(6) 0.6886(3)
C19 C 0.0186(3) 0.6303(8) 0.6908(3)
C25 C 0.1035(3) 0.6653(10) 0.5647(4)
H12 H 0.094595 0.700703 0.539442
C28 C 0.0679(3) 0.5862(8) 0.6613(3)
C38 C 0.1281(3) 0.5638(9) 0.6347(4)
H23 H 0.137945 0.527025 0.659196
C39 C 0.0952(4) 0.3835(11) 0.7528(4)
H24 H 0.115440 0.403165 0.739436
C40 C 0.0793(4) 0.6562(10) 0.5927(4)
H25 H 0.054914 0.685685 0.587897
C46 C 0.1003(5) 0.3066(11) 0.7800(5)
H30 H 0.123612 0.272845 0.783502
N23 N 0.0724(3) 0.2794(7) 0.8016(3)
C66 C 0.0399(4) 0.3256(9) 0.7954(4)
H43 H 0.020206 0.306304 0.809676
N25 N 0.1847(3) 0.7833(7) 0.5251(3)
Zn9 Zn 0.0871(6) 0.1701(13) 0.8388(6)
I2 I 0.73372(8) 0.5274(3) 0.04476(15)
Zn1 Zn 0.67129(18) 0.4369(5) 0.0205(3)
N1 N 0.7364(2) 0.6015(7) 0.5571(3)
C1 C 0.2064(3) 0.5133(7) 0.0311(3)
N2 N 0.8323(3) 0.8243(7) 0.6419(3)
N4 N 0.5735(3) 0.8081(7) 0.2980(3)
C3 C 0.2139(3) 0.7632(9) 0.0548(4)
H1 H 0.230901 0.803196 0.073246
N7 N 0.7226(2) 0.7420(6) 0.5210(3)
C4 C 0.6627(4) 0.3376(9) 0.4966(4)
H2 H 0.641519 0.312827 0.476284
N9 N 0.5784(2) 0.5695(6) 0.1877(3)
C6 C 0.7428(3) 0.6902(8) 0.5520(3)
C7 C 0.6996(3) 0.4682(7) 0.5275(3)
C9 C 0.7740(3) 0.7361(8) 0.5833(3)
N10 N 0.6847(3) 0.2833(7) 0.5251(3)
C10 C 0.5410(3) 0.7579(9) 0.2942(3)
H3 H 0.522062 0.775156 0.309913
C12 C 0.6770(3) 0.8410(8) 0.4509(3)
H5 H 0.698404 0.870449 0.468844
C13 C 0.8091(3) 0.8690(9) 0.6093(4)
H6 H 0.813013 0.932092 0.606081
C14 C 0.9844(3) 0.6897(8) 0.6908(3)
N11 N 0.9214(3) 0.8002(7) 0.6887(3)
N13 N 0.1841(3) 0.7980(7) 0.0281(3)
N14 N 0.6395(3) 0.4552(7) 0.0684(3)
N15 N 0.4231(2) 0.2808(7) 0.1868(3)
C17 C 0.7220(3) 0.4085(8) 0.5568(4)
H8 H 0.742605 0.430524 0.578762
C18 C 0.9373(3) 0.7563(9) 0.7249(4)
H9 H 0.926654 0.764041 0.749862
C20 C 0.5692(3) 0.4974(8) 0.1604(3)
C21 C 0.6543(3) 0.8875(9) 0.4167(3)
H10 H 0.660579 0.948511 0.411411
C22 C 0.5199(3) 0.4537(8) 0.1908(3)
C23 C 0.6700(4) 0.4304(9) 0.4960(4)
H11 H 0.654970 0.467680 0.474264
N17 N 0.2222(2) 0.3390(6) 0.0222(3)
C26 C 0.6690(3) 0.7537(7) 0.4590(3)
C27 C 0.2832(3) 0.2560(8) 0.0779(3)
H13 H 0.268072 0.222816 0.054491
C29 C 0.7797(3) 0.8262(8) 0.5803(4)
H14 H 0.763386 0.860332 0.558180
C30 C 0.7979(3) 0.6886(9) 0.6161(4)
H15 H 0.794840 0.625126 0.619152
N18 N 0.5406(2) 0.4421(7) 0.1590(3)
C31 C 0.6369(3) 0.7130(9) 0.4326(4)
H16 H 0.630121 0.651976 0.437060
C32 C 0.3262(3) 0.3449(8) 0.1454(4)
H17 H 0.340935 0.375640 0.169882
N19 N 0.6839(2) 0.6142(6) 0.4965(3)
C34 C 0.5810(3) 0.4352(11) 0.0908(3)
H19 H 0.555654 0.410591 0.085254
C35 C 0.2973(3) 0.3920(8) 0.1185(3)
H20 H 0.293044 0.454321 0.123407
C36 C 0.6150(3) 0.7655(9) 0.3992(3)
H21 H 0.592474 0.739348 0.381596
C37 C 0.9692(3) 0.6990(9) 0.7273(3)
H22 H 0.980078 0.667505 0.753266
C41 C 0.5559(3) 0.5767(8) 0.2163(3)
N20 N 0.5271(2) 0.5187(6) 0.2204(2)
C42 C 0.9660(5) 0.7309(14) 0.6519(4)
H26 H 0.974140 0.720780 0.625514
C43 C 0.6312(3) 0.5223(10) 0.1347(4)
H27 H 0.641079 0.559587 0.159019
C44 C 0.5949(3) 0.7094(10) 0.2495(4)
H28 H 0.613671 0.694237 0.233222
C45 C 0.8269(4) 0.7363(9) 0.6448(4)
H29 H 0.843412 0.703692 0.667310
C47 C 0.6005(4) 0.7822(10) 0.2766(4)
H31 H 0.624007 0.815190 0.280370
N21 N 0.6239(2) 0.8483(6) 0.3911(3)
C48 C 0.4700(4) 0.3870(10) 0.2234(4)
H32 H 0.480019 0.420133 0.249143
N22 N 0.3350(2) 0.2587(6) 0.1394(3)
C49 C 0.4385(5) 0.2969(19) 0.1529(5)
H33 H 0.427490 0.266673 0.126669
C50 C 0.2747(3) 0.3472(7) 0.0842(3)
C51 C 0.1660(4) 0.6482(8) 0.0035(4)
C53 C 0.2221(3) 0.6717(8) 0.0578(4)
H36 H 0.244621 0.650341 0.077249
C54 C 0.2419(3) 0.3904(7) 0.0539(3)
C57 C 0.4864(3) 0.3952(8) 0.1891(3)
C58 C 0.5940(3) 0.4833(9) 0.1281(3)
C59 C 0.5346(3) 0.6832(7) 0.2684(3)
H39 H 0.511476 0.649343 0.266211
C60 C 0.6929(3) 0.7005(7) 0.4944(3)
C61 C 0.9347(5) 0.7881(13) 0.6541(5)
H40 H 0.922568 0.819776 0.628680
C62 C 0.5614(3) 0.6570(8) 0.2457(3)
C63 C 0.4383(3) 0.3296(10) 0.2214(4)
H41 H 0.427114 0.325371 0.246113
C64 C 0.1976(3) 0.6119(7) 0.0324(3)
C65 C 0.6525(4) 0.5036(10) 0.1041(4)
H42 H 0.678133 0.526549 0.108717
C67 C 0.3132(3) 0.2156(8) 0.1054(4)
H44 H 0.318956 0.154217 0.100363
C68 C 0.4685(5) 0.3529(16) 0.1528(5)
H45 H 0.477050 0.362504 0.126624
N24 N 0.2358(2) 0.4794(6) 0.0593(3)
C69 C 0.7071(3) 0.5655(7) 0.5279(3)
C70 C 0.7138(4) 0.3175(9) 0.5534(4)
H46 H 0.730054 0.277156 0.572609
C71 C 0.1595(4) 0.7389(9) 0.0028(4)
C72 C 0.6041(3) 0.4216(10) 0.0612(4)
H48 H 0.594475 0.388092 0.035495
Zn4 Zn 0.5892(6) 0.9140(12) 0.3408(5)
I8 I 0.52654(16) 0.9433(4) 0.3699(3)
Zn5 Zn 0.8743(3) 0.8874(6) 0.6855(3)
I10 I 0.85507(13) 0.8834(8) 0.7586(2)
I11 I 0.3970(2) 0.0559(4) 0.14474(17)
Zn6 Zn 0.3787(2) 0.1938(5) 0.18282(16)
I12 I 0.35765(16) 0.1949(4) 0.25641(13)
Zn7 Zn 0.17129(18) 0.9369(5) 0.0205(3)
Zn8 Zn 0.6695(4) 0.1450(9) 0.5198(5)
N26 N 0.6841(3) 0.2980(7) 0.0281(3)
I3 I 0.62582(10) 0.4551(3) 0.94728(17)
N6 N 0.1824(2) 0.4673(6) 0.9999(3)
N8 N 0.1232(4) 0.2332(7) 0.8917(3)
C5 C 0.1924(3) 0.3802(8) 0.9967(3)
C24 C 0.1682(3) 0.3261(8) 0.9614(3)
C33 C 0.1543(4) 0.1940(8) 0.9171(3)
H18 H 0.161269 0.134344 0.910505
H34 H 0.148962 0.609478 0.984338
C52 C 0.1764(3) 0.2377(8) 0.9525(3)
H35 H 0.197278 0.206836 0.970746
C55 C 0.1152(6) 0.3208(10) 0.9018(6)
H37 H 0.093575 0.350103 0.884136
C56 C 0.1360(5) 0.3667(10) 0.9350(5)
H38 H 0.128934 0.426921 0.940640
H47 H 0.137022 0.762004 0.983994
I5 I 0.0302(3) 0.1329(6) 0.8703(4)
I6 I 0.1260(4) 0.0611(4) 0.7999(2)
I1_2 I 0.72959(19) 0.0552(3) 0.54626(13)
I2_2 I 0.23372(8) 0.0274(3) 0.04476(15)
I4_2 I 0.6218(2) 0.1229(5) 0.44929(18)
N1_2 N 0.2364(2) 0.1015(7) 0.5571(3)
N2_2 N 0.3323(3) 0.3243(7) 0.6419(3)
N3_2 N 0.5255(2) 0.0644(7) 0.7212(3)
N4_2 N 0.0735(3) 0.3081(7) 0.2980(3)
N5_2 N 0.5386(2) 0.1451(7) 0.6609(3)
N7_2 N 0.2226(2) 0.2420(6) 0.5210(3)
N9_2 N 0.0784(2) 0.0695(6) 0.1877(3)
C6_2 C 0.2428(3) 0.1902(8) 0.5520(3)
C8_2 C 0.5541(3) 0.0090(8) 0.7169(3)
C9_2 C 0.2740(3) 0.2361(8) 0.5833(3)
C10_2 C 0.0410(3) 0.2579(9) 0.2942(3)
H3_2 H 0.022062 0.275156 0.309913
C12_2 C 0.1770(3) 0.3410(8) 0.4509(3)
H5_2 H 0.198404 0.370449 0.468844
C13_2 C 0.3091(3) 0.3690(9) 0.6093(4)
H6_2 H 0.313013 0.432092 0.606081
C14_2 C 0.4844(3) 0.1897(8) 0.6908(3)
N11_2 N 0.4214(3) 0.3002(7) 0.6887(3)
C15_2 C 0.5928(3) 0.0997(8) 0.6298(3)
C16_2 C 0.6505(3) 0.0789(9) 0.6051(4)
H7_2 H 0.675642 0.052909 0.609850
N12_2 N 0.6382(3) 0.1292(7) 0.5695(3)
C18_2 C 0.4373(3) 0.2563(9) 0.7249(4)
H9_2 H 0.426654 0.264041 0.749862
N16_2 N 0.5759(2) 0.0164(6) 0.6886(3)
C19_2 C 0.5186(3) 0.1303(8) 0.6908(3)
C21_2 C 0.1543(3) 0.3875(9) 0.4167(3)
H10_2 H 0.160579 0.448511 0.411411
C25_2 C 0.6035(3) 0.1653(10) 0.5647(4)
H12_2 H 0.594595 0.200703 0.539442
C26_2 C 0.1690(3) 0.2537(7) 0.4590(3)
C28_2 C 0.5679(3) 0.0862(8) 0.6613(3)
C29_2 C 0.2797(3) 0.3262(8) 0.5803(4)
H14_2 H 0.263386 0.360332 0.558180
C30_2 C 0.2979(3) 0.1886(9) 0.6161(4)
H15_2 H 0.294840 0.125126 0.619152
C31_2 C 0.1369(3) 0.2130(9) 0.4326(4)
H16_2 H 0.130121 0.151976 0.437060
N19_2 N 0.1839(2) 0.1142(6) 0.4965(3)
C36_2 C 0.1150(3) 0.2655(9) 0.3992(3)
H21_2 H 0.092474 0.239348 0.381596
C37_2 C 0.4692(3) 0.1990(9) 0.7273(3)
H22_2 H 0.480078 0.167505 0.753266
C38_2 C 0.6281(3) 0.0638(9) 0.6347(4)
H23_2 H 0.637945 0.027025 0.659196
C40_2 C 0.5793(4) 0.1562(10) 0.5927(4)
H25_2 H 0.554914 0.185685 0.587897
C41_2 C 0.0559(3) 0.0767(8) 0.2163(3)
N20_2 N 0.0271(2) 0.0187(6) 0.2204(2)
C42_2 C 0.4660(5) 0.2309(14) 0.6519(4)
H26_2 H 0.474140 0.220780 0.625514
C43_2 C 0.1312(3) 0.0223(10) 0.1347(4)
H27_2 H 0.141079 0.059587 0.159019
C44_2 C 0.0949(3) 0.2094(10) 0.2495(4)
H28_2 H 0.113671 0.194237 0.233222
C45_2 C 0.3269(4) 0.2363(9) 0.6448(4)
H29_2 H 0.343412 0.203692 0.667310
C47_2 C 0.1005(4) 0.2822(10) 0.2766(4)
H31_2 H 0.124007 0.315190 0.280370
N21_2 N 0.1239(2) 0.3483(6) 0.3911(3)
C59_2 C 0.0346(3) 0.1832(7) 0.2684(3)
H39_2 H 0.011476 0.149343 0.266211
C60_2 C 0.1929(3) 0.2005(7) 0.4944(3)
C61_2 C 0.4347(5) 0.2881(13) 0.6541(5)
H40_2 H 0.422568 0.319776 0.628680
C62_2 C 0.0614(3) 0.1570(8) 0.2457(3)
C65_2 C 0.1525(4) 0.0036(10) 0.1041(4)
H42_2 H 0.178133 0.026549 0.108717
C69_2 C 0.2071(3) 0.0655(7) 0.5279(3)
I7 I 0.1258(4) 0.5237(7) 0.3032(3)
Zn4_2 Zn 0.0892(6) 0.4140(12) 0.3408(5)
I8_2 I 0.02654(16) 0.4433(4) 0.3699(3)
I9 I 0.39236(11) 0.5271(3) 0.64928(18)
Zn5_2 Zn 0.3743(3) 0.3874(6) 0.6855(3)
I10_2 I 0.35507(13) 0.3834(8) 0.7586(2)
C2_2 C 0.5612(3) 0.9287(8) 0.7461(3)
C4_2 C 0.1627(4) 0.8376(9) 0.4966(4)
H2_2 H 0.141519 0.812827 0.476284
C7_2 C 0.1996(3) 0.9682(7) 0.5275(3)
C11_2 C 0.5331(3) 0.9014(8) 0.7688(4)
H4_2 H 0.509604 0.934429 0.765968
N14_2 N 0.1395(3) 0.9552(7) 0.0684(3)
C17_2 C 0.2220(3) 0.9085(8) 0.5568(4)
H8_2 H 0.242605 0.930524 0.578762
C20_2 C 0.0692(3) 0.9974(8) 0.1604(3)
C22_2 C 0.0199(3) 0.9537(8) 0.1908(3)
C23_2 C 0.1700(4) 0.9304(9) 0.4960(4)
H11_2 H 0.154970 0.967680 0.474264
N18_2 N 0.0406(2) 0.9421(7) 0.1590(3)
C34_2 C 0.0810(3) 0.9352(11) 0.0908(3)
H19_2 H 0.055654 0.910591 0.085254
C39_2 C 0.5952(4) 0.8835(11) 0.7528(4)
H24_2 H 0.615440 0.903165 0.739436
C46_2 C 0.6003(5) 0.8066(11) 0.7800(5)
H30_2 H 0.623612 0.772845 0.783502
C58_2 C 0.0940(3) 0.9833(9) 0.1281(3)
N23_2 N 0.5724(3) 0.7794(7) 0.8016(3)
C66_2 C 0.5399(4) 0.8256(9) 0.7954(4)
H43_2 H 0.520206 0.806304 0.809676
C70_2 C 0.2138(4) 0.8175(9) 0.5534(4)
H46_2 H 0.230054 0.777156 0.572609
C72_2 C 0.1041(3) 0.9216(10) 0.0612(4)
H48_2 H 0.094475 0.888092 0.035495
Zn9_2 Zn 0.5871(6) 0.6701(13) 0.8388(6)
C1_2 C 0.7064(3) 0.0133(7) 0.0311(3)
C3_2 C 0.7139(3) 0.2632(9) 0.0548(4)
H1_2 H 0.730901 0.303196 0.073246
C51_2 C 0.6660(4) 0.1482(8) 0.0035(4)
C53_2 C 0.7221(3) 0.1717(8) 0.0578(4)
H36_2 H 0.744621 0.150341 0.077249
C64_2 C 0.6976(3) 0.1119(7) 0.0324(3)
C71_2 C 0.6595(4) 0.2389(9) 0.0028(4)
N6_2 N 0.6824(2) 0.9673(6) 0.9999(3)
N8_2 N 0.6232(4) 0.7332(7) 0.8917(3)
C5_2 C 0.6924(3) 0.8802(8) 0.9967(3)
C24_2 C 0.6682(3) 0.8261(8) 0.9614(3)
C33_2 C 0.6543(4) 0.6940(8) 0.9171(3)
H18_2 H 0.661269 0.634344 0.910505
C52_2 C 0.6764(3) 0.7377(8) 0.9525(3)
H35_2 H 0.697278 0.706836 0.970746
C55_2 C 0.6152(6) 0.8208(10) 0.9018(6)
H37_2 H 0.593575 0.850103 0.884136
C56_2 C 0.6360(5) 0.8667(10) 0.9350(5)
H38_2 H 0.628934 0.926921 0.940640
I5_2 I 0.5302(3) 0.6329(6) 0.8703(4)
I6_2 I 0.6260(4) 0.5611(4) 0.7999(2)
I7_2 I 0.6258(4) 0.0237(7) 0.3032(3)
I9_2 I 0.89236(11) 0.0271(3) 0.64928(18)
I7_3 I 0.3742(4) 0.0237(7) 0.6968(3)
I9_3 I 0.10764(11) 0.0271(3) 0.35072(18)
I3_2 I 0.37418(10) 0.4551(3) 0.05272(17)
N6_3 N 0.8176(2) 0.4673(6) 0.0001(3)
N8_3 N 0.8768(4) 0.2332(7) 0.1083(3)
C5_3 C 0.8076(3) 0.3802(8) 0.0033(3)
C24_3 C 0.8318(3) 0.3261(8) 0.0386(3)
C33_3 C 0.8457(4) 0.1940(8) 0.0829(3)
H18_3 H 0.838731 0.134344 0.089495
H34_2 H 0.851038 0.609478 0.015662
C52_3 C 0.8236(3) 0.2377(8) 0.0475(3)
H35_3 H 0.802722 0.206836 0.029254
C55_3 C 0.8848(6) 0.3208(10) 0.0982(6)
H37_3 H 0.906425 0.350103 0.115864
C56_3 C 0.8640(5) 0.3667(10) 0.0650(5)
H38_3 H 0.871066 0.426921 0.059360
H47_2 H 0.862978 0.762004 0.016006
I5_3 I 0.9698(3) 0.1329(6) 0.1297(4)
Zn3 Zn 0.9129(6) 0.1701(13) 0.1612(6)
I6_3 I 0.8740(4) 0.0611(4) 0.2001(2)
N27 N 0.9276(3) 0.2794(7) 0.1984(3)
I2_3 I 0.26628(8) 0.5274(3) 0.95524(15)
Zn1_2 Zn 0.32871(18) 0.4369(5) 0.9795(3)
N1_3 N 0.2636(2) 0.6015(7) 0.4429(3)
C1_3 C 0.7936(3) 0.5133(7) 0.9689(3)
N2_3 N 0.1677(3) 0.8243(7) 0.3581(3)
N4_3 N 0.4265(3) 0.8081(7) 0.7020(3)
C3_3 C 0.7861(3) 0.7632(9) 0.9452(4)
H1_3 H 0.769099 0.803196 0.926754
N7_3 N 0.2774(2) 0.7420(6) 0.4790(3)
C4_3 C 0.3373(4) 0.3376(9) 0.5034(4)
H2_3 H 0.358481 0.312827 0.523716
N9_3 N 0.4216(2) 0.5695(6) 0.8123(3)
C6_3 C 0.2572(3) 0.6902(8) 0.4480(3)
C7_3 C 0.3004(3) 0.4682(7) 0.4725(3)
C9_3 C 0.2260(3) 0.7361(8) 0.4167(3)
N10_2 N 0.3153(3) 0.2833(7) 0.4749(3)
C10_3 C 0.4590(3) 0.7579(9) 0.7058(3)
H3_3 H 0.477938 0.775156 0.690087
C12_3 C 0.3230(3) 0.8410(8) 0.5491(3)
H5_3 H 0.301596 0.870449 0.531156
C13_3 C 0.1909(3) 0.8690(9) 0.3907(4)
H6_3 H 0.186987 0.932092 0.393919
C14_3 C 0.0156(3) 0.6897(8) 0.3092(3)
N11_3 N 0.0786(3) 0.8002(7) 0.3113(3)
N13_2 N 0.8159(3) 0.7980(7) 0.9719(3)
N14_3 N 0.3605(3) 0.4552(7) 0.9316(3)
N15_2 N 0.5769(2) 0.2808(7) 0.8132(3)
C17_3 C 0.2780(3) 0.4085(8) 0.4432(4)
H8_3 H 0.257395 0.430524 0.421238
C18_3 C 0.0627(3) 0.7563(9) 0.2751(4)
H9_3 H 0.073346 0.764041 0.250138
C20_3 C 0.4308(3) 0.4974(8) 0.8396(3)
C21_3 C 0.3457(3) 0.8875(9) 0.5833(3)
H10_3 H 0.339421 0.948511 0.588589
C22_3 C 0.4801(3) 0.4537(8) 0.8092(3)
C23_3 C 0.3300(4) 0.4304(9) 0.5040(4)
H11_3 H 0.345030 0.467680 0.525736
N17_2 N 0.7778(2) 0.3390(6) 0.9778(3)
C26_3 C 0.3310(3) 0.7537(7) 0.5410(3)
C27_2 C 0.7168(3) 0.2560(8) 0.9221(3)
H13_2 H 0.731928 0.222816 0.945509
C29_3 C 0.2203(3) 0.8262(8) 0.4197(4)
H14_3 H 0.236614 0.860332 0.441820
C30_3 C 0.2021(3) 0.6886(9) 0.3839(4)
H15_3 H 0.205160 0.625126 0.380848
N18_3 N 0.4594(2) 0.4421(7) 0.8410(3)
C31_3 C 0.3631(3) 0.7130(9) 0.5674(4)
H16_3 H 0.369879 0.651976 0.562940
C32_2 C 0.6738(3) 0.3449(8) 0.8546(4)
H17_2 H 0.659065 0.375640 0.830118
N19_3 N 0.3161(2) 0.6142(6) 0.5035(3)
C34_3 C 0.4190(3) 0.4352(11) 0.9092(3)
H19_3 H 0.444346 0.410591 0.914746
C35_2 C 0.7027(3) 0.3920(8) 0.8815(3)
H20_2 H 0.706956 0.454321 0.876593
C36_3 C 0.3850(3) 0.7655(9) 0.6008(3)
H21_3 H 0.407526 0.739348 0.618404
C37_3 C 0.0308(3) 0.6990(9) 0.2727(3)
H22_3 H 0.019922 0.667505 0.246734
C41_3 C 0.4441(3) 0.5767(8) 0.7837(3)
N20_3 N 0.4729(2) 0.5187(6) 0.7796(2)
C42_3 C 0.0340(5) 0.7309(14) 0.3481(4)
H26_3 H 0.025860 0.720780 0.374486
C43_3 C 0.3688(3) 0.5223(10) 0.8653(4)
H27_3 H 0.358921 0.559587 0.840981
C44_3 C 0.4051(3) 0.7094(10) 0.7505(4)
H28_3 H 0.386329 0.694237 0.766778
C45_3 C 0.1731(4) 0.7363(9) 0.3552(4)
H29_3 H 0.156588 0.703692 0.332690
C47_3 C 0.3995(4) 0.7822(10) 0.7234(4)
H31_3 H 0.375993 0.815190 0.719630
N21_3 N 0.3761(2) 0.8483(6) 0.6089(3)
C48_2 C 0.5300(4) 0.3870(10) 0.7766(4)
H32_2 H 0.519981 0.420133 0.750857
N22_2 N 0.6650(2) 0.2587(6) 0.8606(3)
C49_2 C 0.5615(5) 0.2969(19) 0.8471(5)
H33_2 H 0.572510 0.266673 0.873331
C50_2 C 0.7253(3) 0.3472(7) 0.9158(3)
C51_3 C 0.8340(4) 0.6482(8) 0.9965(4)
C53_3 C 0.7779(3) 0.6717(8) 0.9422(4)
H36_3 H 0.755379 0.650341 0.922751
C54_2 C 0.7581(3) 0.3904(7) 0.9461(3)
C57_2 C 0.5136(3) 0.3952(8) 0.8109(3)
C58_3 C 0.4060(3) 0.4833(9) 0.8719(3)
C59_3 C 0.4654(3) 0.6832(7) 0.7316(3)
H39_3 H 0.488524 0.649343 0.733789
C60_3 C 0.3071(3) 0.7005(7) 0.5056(3)
C61_3 C 0.0653(5) 0.7881(13) 0.3459(5)
H40_3 H 0.077432 0.819776 0.371320
C62_3 C 0.4386(3) 0.6570(8) 0.7543(3)
C63_2 C 0.5617(3) 0.3296(10) 0.7786(4)
H41_2 H 0.572886 0.325371 0.753887
C64_3 C 0.8024(3) 0.6119(7) 0.9676(3)
C65_3 C 0.3475(4) 0.5036(10) 0.8959(4)
H42_3 H 0.321867 0.526549 0.891283
C67_2 C 0.6868(3) 0.2156(8) 0.8946(4)
H44_2 H 0.681044 0.154217 0.899637
C68_2 C 0.5315(5) 0.3529(16) 0.8472(5)
H45_2 H 0.522950 0.362504 0.873376
N24_2 N 0.7642(2) 0.4794(6) 0.9407(3)
C69_3 C 0.2929(3) 0.5655(7) 0.4721(3)
C70_3 C 0.2862(4) 0.3175(9) 0.4466(4)
H46_3 H 0.269946 0.277156 0.427391
C71_3 C 0.8405(4) 0.7389(9) 0.9972(4)
C72_3 C 0.3959(3) 0.4216(10) 0.9388(4)
H48_3 H 0.405525 0.388092 0.964505
Zn4_3 Zn 0.4108(6) 0.9140(12) 0.6592(5)
I8_3 I 0.47346(16) 0.9433(4) 0.6301(3)
Zn5_3 Zn 0.1257(3) 0.8874(6) 0.3145(3)
I10_3 I 0.14493(13) 0.8834(8) 0.2414(2)
I11_2 I 0.6030(2) 0.0559(4) 0.85526(17)
Zn6_2 Zn 0.6213(2) 0.1938(5) 0.81718(16)
I12_2 I 0.64235(16) 0.1949(4) 0.74359(13)
Zn7_2 Zn 0.82871(18) 0.9369(5) 0.9795(3)
Zn8_2 Zn 0.3305(4) 0.1450(9) 0.4802(5)
N26_2 N 0.3159(3) 0.2980(7) 0.9719(3)
I1_3 I 0.77041(19) 0.5552(3) 0.45374(13)
I4_3 I 0.8782(2) 0.6229(5) 0.55071(18)
Zn2_2 Zn 0.8305(4) 0.6450(9) 0.4802(5)
N3_3 N 0.9745(2) 0.5644(7) 0.2788(3)
N5_3 N 0.9614(2) 0.6451(7) 0.3391(3)
C2_3 C 0.9388(3) 0.4287(8) 0.2539(3)
C8_3 C 0.9459(3) 0.5090(8) 0.2831(3)
C11_3 C 0.9669(3) 0.4014(8) 0.2312(4)
H4_3 H 0.990396 0.434429 0.234032
C15_3 C 0.9072(3) 0.5997(8) 0.3702(3)
C16_3 C 0.8495(3) 0.5789(9) 0.3949(4)
H7_3 H 0.824358 0.552909 0.390150
N12_3 N 0.8618(3) 0.6292(7) 0.4305(3)
N16_3 N 0.9241(2) 0.5164(6) 0.3114(3)
C19_3 C 0.9814(3) 0.6303(8) 0.3092(3)
C25_3 C 0.8965(3) 0.6653(10) 0.4353(4)
H12_3 H 0.905405 0.700703 0.460558
C28_3 C 0.9321(3) 0.5862(8) 0.3387(3)
C38_3 C 0.8719(3) 0.5638(9) 0.3653(4)
H23_3 H 0.862055 0.527025 0.340804
C39_3 C 0.9048(4) 0.3835(11) 0.2472(4)
H24_3 H 0.884560 0.403165 0.260564
C40_3 C 0.9207(4) 0.6562(10) 0.4073(4)
H25_3 H 0.945086 0.685685 0.412103
C46_3 C 0.8997(5) 0.3066(11) 0.2200(5)
H30_3 H 0.876388 0.272845 0.216498
C66_3 C 0.9601(4) 0.3256(9) 0.2046(4)
H43_3 H 0.979794 0.306304 0.190324
N25_2 N 0.8153(3) 0.7833(7) 0.4749(3)
C1_4 C 0.2936(3) 0.0133(7) 0.9689(3)
C3_4 C 0.2861(3) 0.2632(9) 0.9452(4)
H1_4 H 0.269099 0.303196 0.926754
C51_4 C 0.3340(4) 0.1482(8) 0.9965(4)
C53_4 C 0.2779(3) 0.1717(8) 0.9422(4)
H36_4 H 0.255379 0.150341 0.922751
C64_4 C 0.3024(3) 0.1119(7) 0.9676(3)
C71_4 C 0.3405(4) 0.2389(9) 0.9972(4)
N6_4 N 0.3176(2) 0.9673(6) 0.0001(3)
N8_4 N 0.3768(4) 0.7332(7) 0.1083(3)
C5_4 C 0.3076(3) 0.8802(8) 0.0033(3)
C24_4 C 0.3318(3) 0.8261(8) 0.0386(3)
C33_4 C 0.3457(4) 0.6940(8) 0.0829(3)
H18_4 H 0.338731 0.634344 0.089495
C52_4 C 0.3236(3) 0.7377(8) 0.0475(3)
H35_4 H 0.302722 0.706836 0.029254
C55_4 C 0.3848(6) 0.8208(10) 0.0982(6)
H37_4 H 0.406425 0.850103 0.115864
C56_4 C 0.3640(5) 0.8667(10) 0.0650(5)
H38_4 H 0.371066 0.926921 0.059360
I5_4 I 0.4698(3) 0.6329(6) 0.1297(4)
Zn3_2 Zn 0.4129(6) 0.6701(13) 0.1612(6)
I6_4 I 0.3740(4) 0.5611(4) 0.2001(2)
N27_2 N 0.4276(3) 0.7794(7) 0.1984(3)
I1_4 I 0.27041(19) 0.0552(3) 0.45374(13)
I2_4 I 0.76628(8) 0.0274(3) 0.95524(15)
I4_4 I 0.3782(2) 0.1229(5) 0.55071(18)
N1_4 N 0.7636(2) 0.1015(7) 0.4429(3)
N2_4 N 0.6677(3) 0.3243(7) 0.3581(3)
N3_4 N 0.4745(2) 0.0644(7) 0.2788(3)
N4_4 N 0.9265(3) 0.3081(7) 0.7020(3)
N5_4 N 0.4614(2) 0.1451(7) 0.3391(3)
N7_4 N 0.7774(2) 0.2420(6) 0.4790(3)
N9_4 N 0.9216(2) 0.0695(6) 0.8123(3)
C6_4 C 0.7572(3) 0.1902(8) 0.4480(3)
C8_4 C 0.4459(3) 0.0090(8) 0.2831(3)
C9_4 C 0.7260(3) 0.2361(8) 0.4167(3)
C10_4 C 0.9590(3) 0.2579(9) 0.7058(3)
H3_4 H 0.977938 0.275156 0.690087
C12_4 C 0.8230(3) 0.3410(8) 0.5491(3)
H5_4 H 0.801596 0.370449 0.531156
C13_4 C 0.6909(3) 0.3690(9) 0.3907(4)
H6_4 H 0.686987 0.432092 0.393919
C14_4 C 0.5156(3) 0.1897(8) 0.3092(3)
N11_4 N 0.5786(3) 0.3002(7) 0.3113(3)
C15_4 C 0.4072(3) 0.0997(8) 0.3702(3)
C16_4 C 0.3495(3) 0.0789(9) 0.3949(4)
H7_4 H 0.324358 0.052909 0.390150
N12_4 N 0.3618(3) 0.1292(7) 0.4305(3)
C18_4 C 0.5627(3) 0.2563(9) 0.2751(4)
H9_4 H 0.573346 0.264041 0.250138
N16_4 N 0.4241(2) 0.0164(6) 0.3114(3)
C19_4 C 0.4814(3) 0.1303(8) 0.3092(3)
C21_4 C 0.8457(3) 0.3875(9) 0.5833(3)
H10_4 H 0.839421 0.448511 0.588589
C25_4 C 0.3965(3) 0.1653(10) 0.4353(4)
H12_4 H 0.405405 0.200703 0.460558
C26_4 C 0.8310(3) 0.2537(7) 0.5410(3)
C28_4 C 0.4321(3) 0.0862(8) 0.3387(3)
C29_4 C 0.7203(3) 0.3262(8) 0.4197(4)
H14_4 H 0.736614 0.360332 0.441820
C30_4 C 0.7021(3) 0.1886(9) 0.3839(4)
H15_4 H 0.705160 0.125126 0.380848
C31_4 C 0.8631(3) 0.2130(9) 0.5674(4)
H16_4 H 0.869879 0.151976 0.562940
N19_4 N 0.8161(2) 0.1142(6) 0.5035(3)
C36_4 C 0.8850(3) 0.2655(9) 0.6008(3)
H21_4 H 0.907526 0.239348 0.618404
C37_4 C 0.5308(3) 0.1990(9) 0.2727(3)
H22_4 H 0.519922 0.167505 0.246734
C38_4 C 0.3719(3) 0.0638(9) 0.3653(4)
H23_4 H 0.362055 0.027025 0.340804
C40_4 C 0.4207(4) 0.1562(10) 0.4073(4)
H25_4 H 0.445086 0.185685 0.412103
C41_4 C 0.9441(3) 0.0767(8) 0.7837(3)
N20_4 N 0.9729(2) 0.0187(6) 0.7796(2)
C42_4 C 0.5340(5) 0.2309(14) 0.3481(4)
H26_4 H 0.525860 0.220780 0.374486
C43_4 C 0.8688(3) 0.0223(10) 0.8653(4)
H27_4 H 0.858921 0.059587 0.840981
C44_4 C 0.9051(3) 0.2094(10) 0.7505(4)
H28_4 H 0.886329 0.194237 0.766778
C45_4 C 0.6731(4) 0.2363(9) 0.3552(4)
H29_4 H 0.656588 0.203692 0.332690
C47_4 C 0.8995(4) 0.2822(10) 0.7234(4)
H31_4 H 0.875993 0.315190 0.719630
N21_4 N 0.8761(2) 0.3483(6) 0.6089(3)
C59_4 C 0.9654(3) 0.1832(7) 0.7316(3)
H39_4 H 0.988524 0.149343 0.733789
C60_4 C 0.8071(3) 0.2005(7) 0.5056(3)
C61_4 C 0.5653(5) 0.2881(13) 0.3459(5)
H40_4 H 0.577432 0.319776 0.371320
C62_4 C 0.9386(3) 0.1570(8) 0.7543(3)
C65_4 C 0.8475(4) 0.0036(10) 0.8959(4)
H42_4 H 0.821867 0.026549 0.891283
C69_4 C 0.7929(3) 0.0655(7) 0.4721(3)
I7_4 I 0.8742(4) 0.5237(7) 0.6968(3)
Zn4_4 Zn 0.9108(6) 0.4140(12) 0.6592(5)
I8_4 I 0.97346(16) 0.4433(4) 0.6301(3)
I9_4 I 0.60764(11) 0.5271(3) 0.35072(18)
Zn5_4 Zn 0.6257(3) 0.3874(6) 0.3145(3)
I10_4 I 0.64493(13) 0.3834(8) 0.2414(2)
C2_4 C 0.4388(3) 0.9287(8) 0.2539(3)
C4_4 C 0.8373(4) 0.8376(9) 0.5034(4)
H2_4 H 0.858481 0.812827 0.523716
C7_4 C 0.8004(3) 0.9682(7) 0.4725(3)
C11_4 C 0.4669(3) 0.9014(8) 0.2312(4)
H4_4 H 0.490396 0.934429 0.234032
N14_4 N 0.8605(3) 0.9552(7) 0.9316(3)
C17_4 C 0.7780(3) 0.9085(8) 0.4432(4)
H8_4 H 0.757395 0.930524 0.421238
C20_4 C 0.9308(3) 0.9974(8) 0.8396(3)
C22_4 C 0.9801(3) 0.9537(8) 0.8092(3)
C23_4 C 0.8300(4) 0.9304(9) 0.5040(4)
H11_4 H 0.845030 0.967680 0.525736
N18_4 N 0.9594(2) 0.9421(7) 0.8410(3)
C34_4 C 0.9190(3) 0.9352(11) 0.9092(3)
H19_4 H 0.944346 0.910591 0.914746
C39_4 C 0.4048(4) 0.8835(11) 0.2472(4)
H24_4 H 0.384560 0.903165 0.260564
C46_4 C 0.3997(5) 0.8066(11) 0.2200(5)
H30_4 H 0.376388 0.772845 0.216498
C58_4 C 0.9060(3) 0.9833(9) 0.8719(3)
C66_4 C 0.4601(4) 0.8256(9) 0.2046(4)
H43_4 H 0.479794 0.806304 0.190324
C70_4 C 0.7862(4) 0.8175(9) 0.4466(4)
H46_4 H 0.769946 0.777156 0.427391
C72_4 C 0.8959(3) 0.9216(10) 0.9388(4)
H48_4 H 0.905525 0.888092 0.964505
I3_3 I 0.12582(10) 0.9551(3) 0.94728(17)
H34_3 H 0.648962 0.109478 0.984338
H47_3 H 0.637022 0.262004 0.983994
N15_3 N 0.9231(2) 0.7808(7) 0.1868(3)
N17_3 N 0.7222(2) 0.8390(6) 0.0222(3)
C27_3 C 0.7832(3) 0.7560(8) 0.0779(3)
H13_3 H 0.768072 0.722816 0.054491
C32_3 C 0.8262(3) 0.8449(8) 0.1454(4)
H17_3 H 0.840935 0.875640 0.169882
C35_3 C 0.7973(3) 0.8920(8) 0.1185(3)
H20_3 H 0.793044 0.954321 0.123407
C48_3 C 0.9700(4) 0.8870(10) 0.2234(4)
H32_3 H 0.980019 0.920133 0.249143
N22_3 N 0.8350(2) 0.7587(6) 0.1394(3)
C49_3 C 0.9385(5) 0.7969(19) 0.1529(5)
H33_3 H 0.927490 0.766673 0.126669
C50_3 C 0.7747(3) 0.8472(7) 0.0842(3)
C54_3 C 0.7419(3) 0.8904(7) 0.0539(3)
C57_3 C 0.9864(3) 0.8952(8) 0.1891(3)
C63_3 C 0.9383(3) 0.8296(10) 0.2214(4)
H41_3 H 0.927114 0.825371 0.246113
C67_3 C 0.8132(3) 0.7156(8) 0.1054(4)
H44_3 H 0.818956 0.654217 0.100363
C68_3 C 0.9685(5) 0.8529(16) 0.1528(5)
H45_3 H 0.977050 0.862504 0.126624
N24_3 N 0.7358(2) 0.9794(6) 0.0593(3)
I11_3 I 0.8970(2) 0.5559(4) 0.14474(17)
Zn6_3 Zn 0.8787(2) 0.6938(5) 0.18282(16)
I12_3 I 0.85765(16) 0.6949(4) 0.25641(13)
H34_4 H 0.351038 0.109478 0.015662
H47_4 H 0.362978 0.262004 0.016006
N15_4 N 0.0769(2) 0.7808(7) 0.8132(3)
N17_4 N 0.2778(2) 0.8390(6) 0.9778(3)
C27_4 C 0.2168(3) 0.7560(8) 0.9221(3)
H13_4 H 0.231928 0.722816 0.945509
C32_4 C 0.1738(3) 0.8449(8) 0.8546(4)
H17_4 H 0.159065 0.875640 0.830118
C35_4 C 0.2027(3) 0.8920(8) 0.8815(3)
H20_4 H 0.206956 0.954321 0.876593
C48_4 C 0.0300(4) 0.8870(10) 0.7766(4)
H32_4 H 0.019981 0.920133 0.750857
N22_4 N 0.1650(2) 0.7587(6) 0.8606(3)
C49_4 C 0.0615(5) 0.7969(19) 0.8471(5)
H33_4 H 0.072510 0.766673 0.873331
C50_4 C 0.2253(3) 0.8472(7) 0.9158(3)
C54_4 C 0.2581(3) 0.8904(7) 0.9461(3)
C57_4 C 0.0136(3) 0.8952(8) 0.8109(3)
C63_4 C 0.0617(3) 0.8296(10) 0.7786(4)
H41_4 H 0.072886 0.825371 0.753887
C67_4 C 0.1868(3) 0.7156(8) 0.8946(4)
H44_4 H 0.181044 0.654217 0.899637
C68_4 C 0.0315(5) 0.8529(16) 0.8472(5)
H45_4 H 0.022950 0.862504 0.873376
N24_4 N 0.2642(2) 0.9794(6) 0.9407(3)
I11_4 I 0.1030(2) 0.5559(4) 0.85526(17)
Zn6_4 Zn 0.1213(2) 0.6938(5) 0.81718(16)
I12_4 I 0.14235(16) 0.6949(4) 0.74359(13)
I3_4 I 0.87418(10) 0.9551(3) 0.05272(17)
loop_
_geom_bond_atom_site_label_1
_geom_bond_atom_site_label_2
_geom_bond_site_symmetry_1
_geom_bond_site_symmetry_2
I1 Zn2 1_555 1_555
I4 Zn2 1_555 1_555
Zn2 N12 1_555 1_555
N3 C8 1_555 1_555
N5 C19 1_555 1_555
C2 C8 1_555 1_555
C8 N16 1_555 1_555
C11 C2 1_555 1_555
H4 C11 1_555 1_555
C15 C28 1_555 1_555
C16 H7 1_555 1_555
N12 C16 1_555 1_555
N16 C28 1_555 1_555
C19 N3 1_555 1_555
C25 N12 1_555 1_555
H12 C25 1_555 1_555
C28 N5 1_555 1_555
C38 C15 1_555 1_555
H23 C38 1_555 1_555
C39 C2 1_555 1_555
H24 C39 1_555 1_555
C40 C15 1_555 1_555
H25 C40 1_555 1_555
C46 C39 1_555 1_555
H30 C46 1_555 1_555
N23 C46 1_555 1_555
C66 C11 1_555 1_555
H43 C66 1_555 1_555
N25 Zn2 1_555 1_555
Zn9 N23 1_555 1_555
C16 C38 1_555 1_555
C25 C40 1_555 1_555
N23 C66 1_555 1_555
I2 Zn1 1_555 1_555
Zn1 N14 1_555 1_555
N1 C6 1_555 1_555
N2 C13 1_555 1_555
N4 C10 1_555 1_555
C3 H1 1_555 1_555
N7 C6 1_555 1_555
C4 H2 1_555 1_555
N9 C20 1_555 1_555
C6 C9 1_555 1_555
C7 C17 1_555 1_555
C9 C29 1_555 1_555
N10 C4 1_555 1_555
C10 H3 1_555 1_555
C12 H5 1_555 1_555
C13 H6 1_555 1_555
N11 C18 1_555 1_555
N13 C3 1_555 1_555
N14 C65 1_555 1_555
N15 C49 1_555 1_555
C17 H8 1_555 1_555
C18 H9 1_555 1_555
C20 N18 1_555 1_555
C21 C12 1_555 1_555
H10 C21 1_555 1_555
C22 N18 1_555 1_555
C23 C4 1_555 1_555
H11 C23 1_555 1_555
C26 C12 1_555 1_555
C27 H13 1_555 1_555
C29 C13 1_555 1_555
H14 C29 1_555 1_555
C30 C9 1_555 1_555
H15 C30 1_555 1_555
C31 C26 1_555 1_555
H16 C31 1_555 1_555
C32 H17 1_555 1_555
N19 C60 1_555 1_555
C34 H19 1_555 1_555
C35 C32 1_555 1_555
H20 C35 1_555 1_555
C36 C31 1_555 1_555
H21 C36 1_555 1_555
C37 C14 1_555 1_555
H22 C37 1_555 1_555
C41 N9 1_555 1_555
N20 C22 1_555 1_555
C42 C14 1_555 1_555
H26 C42 1_555 1_555
C43 H27 1_555 1_555
C44 H28 1_555 1_555
C45 N2 1_555 1_555
H29 C45 1_555 1_555
C47 N4 1_555 1_555
H31 C47 1_555 1_555
N21 C21 1_555 1_555
C48 H32 1_555 1_555
N22 C32 1_555 1_555
C49 H33 1_555 1_555
C50 C27 1_555 1_555
C53 C3 1_555 1_555
H36 C53 1_555 1_555
C54 N17 1_555 1_555
C57 C22 1_555 1_555
C58 C20 1_555 1_555
C59 C10 1_555 1_555
H39 C59 1_555 1_555
C60 N7 1_555 1_555
C61 N11 1_555 1_555
H40 C61 1_555 1_555
C62 C41 1_555 1_555
C63 N15 1_555 1_555
H41 C63 1_555 1_555
C64 C1 1_555 1_555
C65 C43 1_555 1_555
H42 C65 1_555 1_555
C67 C27 1_555 1_555
H44 C67 1_555 1_555
C68 C49 1_555 1_555
H45 C68 1_555 1_555
N24 C1 1_555 1_555
C69 N1 1_555 1_555
C70 N10 1_555 1_555
H46 C70 1_555 1_555
C71 N13 1_555 1_555
C72 N14 1_555 1_555
H48 C72 1_555 1_555
Zn4 N4 1_555 1_555
I8 Zn4 1_555 1_555
Zn5 N2 1_555 1_555
I10 Zn5 1_555 1_555
I11 Zn6 1_555 1_555
Zn6 N15 1_555 1_555
I12 Zn6 1_555 1_555
Zn7 N13 1_555 1_555
Zn8 N10 1_555 1_555
N26 Zn1 1_555 1_555
C7 C23 1_555 1_555
C7 C69 1_555 1_555
N11 Zn5 1_555 1_555
C17 C70 1_555 1_555
C18 C37 1_555 1_555
C26 C60 1_555 1_555
C30 C45 1_555 1_555
N19 C69 1_555 1_555
C34 C58 1_555 1_555
C34 C72 1_555 1_555
C35 C50 1_555 1_555
C36 N21 1_555 1_555
C41 N20 1_555 1_555
C42 C61 1_555 1_555
C43 C58 1_555 1_555
C44 C47 1_555 1_555
C44 C62 1_555 1_555
N21 Zn4 1_555 1_555
C48 C57 1_555 1_555
C48 C63 1_555 1_555
N22 C67 1_555 1_555
N22 Zn6 1_555 1_555
C50 C54 1_555 1_555
C51 C64 1_555 1_555
C51 C71 1_555 1_555
C53 C64 1_555 1_555
C54 N24 1_555 1_555
C57 C68 1_555 1_555
C59 C62 1_555 1_555
N6 C5 1_555 1_555
N8 C33 1_555 1_555
C5 C24 1_555 1_555
C24 C52 1_555 1_555
C33 H18 1_555 1_555
C52 C33 1_555 1_555
H35 C52 1_555 1_555
C55 N8 1_555 1_555
H37 C55 1_555 1_555
C56 C24 1_555 1_555
H38 C56 1_555 1_555
I5 Zn9 1_555 1_555
Zn9 N8 1_555 1_555
I6 Zn9 1_555 1_555
C55 C56 1_555 1_555
I1_2 Zn8 1_555 1_555
I4_2 Zn8 1_555 1_555
Zn8 N12_2 1_555 1_555
N1_2 C6_2 1_555 1_555
N2_2 C13_2 1_555 1_555
N3_2 C8_2 1_555 1_555
N4_2 C10_2 1_555 1_555
N5_2 C19_2 1_555 1_555
N7_2 C6_2 1_555 1_555
C6_2 C9_2 1_555 1_555
C8_2 N16_2 1_555 1_555
C9_2 C29_2 1_555 1_555
C10_2 H3_2 1_555 1_555
C12_2 H5_2 1_555 1_555
C13_2 H6_2 1_555 1_555
C14_2 C19_2 1_555 1_555
N11_2 C18_2 1_555 1_555
C15_2 C28_2 1_555 1_555
C16_2 H7_2 1_555 1_555
N12_2 C16_2 1_555 1_555
C18_2 H9_2 1_555 1_555
N16_2 C28_2 1_555 1_555
C19_2 N3_2 1_555 1_555
C21_2 C12_2 1_555 1_555
H10_2 C21_2 1_555 1_555
C25_2 N12_2 1_555 1_555
H12_2 C25_2 1_555 1_555
C26_2 C12_2 1_555 1_555
C28_2 N5_2 1_555 1_555
C29_2 C13_2 1_555 1_555
H14_2 C29_2 1_555 1_555
C30_2 C9_2 1_555 1_555
H15_2 C30_2 1_555 1_555
C31_2 C26_2 1_555 1_555
H16_2 C31_2 1_555 1_555
N19_2 C60_2 1_555 1_555
C36_2 C31_2 1_555 1_555
H21_2 C36_2 1_555 1_555
C37_2 C14_2 1_555 1_555
H22_2 C37_2 1_555 1_555
C38_2 C15_2 1_555 1_555
H23_2 C38_2 1_555 1_555
C40_2 C15_2 1_555 1_555
H25_2 C40_2 1_555 1_555
C41_2 N9_2 1_555 1_555
C42_2 C14_2 1_555 1_555
H26_2 C42_2 1_555 1_555
C43_2 H27_2 1_555 1_555
C44_2 H28_2 1_555 1_555
C45_2 N2_2 1_555 1_555
H29_2 C45_2 1_555 1_555
C47_2 N4_2 1_555 1_555
H31_2 C47_2 1_555 1_555
N21_2 C21_2 1_555 1_555
C59_2 C10_2 1_555 1_555
H39_2 C59_2 1_555 1_555
C60_2 N7_2 1_555 1_555
C61_2 N11_2 1_555 1_555
H40_2 C61_2 1_555 1_555
C62_2 C41_2 1_555 1_555
C65_2 C43_2 1_555 1_555
H42_2 C65_2 1_555 1_555
C69_2 N1_2 1_555 1_555
I7 Zn4_2 1_555 1_555
Zn4_2 N4_2 1_555 1_555
I8_2 Zn4_2 1_555 1_555
I9 Zn5_2 1_555 1_555
Zn5_2 N2_2 1_555 1_555
I10_2 Zn5_2 1_555 1_555
N11_2 Zn5_2 1_555 1_555
C16_2 C38_2 1_555 1_555
C18_2 C37_2 1_555 1_555
C25_2 C40_2 1_555 1_555
C26_2 C60_2 1_555 1_555
C30_2 C45_2 1_555 1_555
N19_2 C69_2 1_555 1_555
C36_2 N21_2 1_555 1_555
C41_2 N20_2 1_555 1_555
C42_2 C61_2 1_555 1_555
C44_2 C47_2 1_555 1_555
C44_2 C62_2 1_555 1_555
N21_2 Zn4_2 1_555 1_555
C59_2 C62_2 1_555 1_555
Zn7 N14_2 1_555 1_555
C4_2 H2_2 1_555 1_555
C7_2 C17_2 1_555 1_555
N25 C4_2 1_555 1_555
C11_2 C2_2 1_555 1_555
H4_2 C11_2 1_555 1_555
C17_2 H8_2 1_555 1_555
C20_2 N18_2 1_555 1_555
C22_2 N18_2 1_555 1_555
C23_2 C4_2 1_555 1_555
H11_2 C23_2 1_555 1_555
C34_2 H19_2 1_555 1_555
C39_2 C2_2 1_555 1_555
H24_2 C39_2 1_555 1_555
C46_2 C39_2 1_555 1_555
H30_2 C46_2 1_555 1_555
C58_2 C20_2 1_555 1_555
N23_2 C46_2 1_555 1_555
C66_2 C11_2 1_555 1_555
H43_2 C66_2 1_555 1_555
C70_2 N25 1_555 1_555
H46_2 C70_2 1_555 1_555
C72_2 N14_2 1_555 1_555
H48_2 C72_2 1_555 1_555
Zn9_2 N23_2 1_555 1_555
C7_2 C23_2 1_555 1_555
C17_2 C70_2 1_555 1_555
C34_2 C58_2 1_555 1_555
C34_2 C72_2 1_555 1_555
N23_2 C66_2 1_555 1_555
C3_2 H1_2 1_555 1_555
N26 C3_2 1_555 1_555
C53_2 C3_2 1_555 1_555
H36_2 C53_2 1_555 1_555
C64_2 C1_2 1_555 1_555
C71_2 N26 1_555 1_555
C51_2 C64_2 1_555 1_555
C51_2 C71_2 1_555 1_555
C53_2 C64_2 1_555 1_555
N6_2 C5_2 1_555 1_555
N8_2 C33_2 1_555 1_555
C5_2 C24_2 1_555 1_555
C24_2 C52_2 1_555 1_555
C33_2 H18_2 1_555 1_555
C52_2 C33_2 1_555 1_555
H35_2 C52_2 1_555 1_555
C55_2 N8_2 1_555 1_555
H37_2 C55_2 1_555 1_555
C56_2 C24_2 1_555 1_555
H38_2 C56_2 1_555 1_555
I5_2 Zn9_2 1_555 1_555
Zn9_2 N8_2 1_555 1_555
I6_2 Zn9_2 1_555 1_555
C55_2 C56_2 1_555 1_555
N6_3 C5_3 1_555 1_555
N8_3 C33_3 1_555 1_555
C5_3 C24_3 1_555 1_555
C24_3 C52_3 1_555 1_555
C33_3 H18_3 1_555 1_555
C52_3 C33_3 1_555 1_555
H35_3 C52_3 1_555 1_555
C55_3 N8_3 1_555 1_555
H37_3 C55_3 1_555 1_555
C56_3 C24_3 1_555 1_555
H38_3 C56_3 1_555 1_555
I5_3 Zn3 1_555 1_555
Zn3 N8_3 1_555 1_555
I6_3 Zn3 1_555 1_555
N27 Zn3 1_555 1_555
C55_3 C56_3 1_555 1_555
I2_3 Zn1_2 1_555 1_555
Zn1_2 N14_3 1_555 1_555
N1_3 C6_3 1_555 1_555
N2_3 C13_3 1_555 1_555
N4_3 C10_3 1_555 1_555
C3_3 H1_3 1_555 1_555
N7_3 C6_3 1_555 1_555
C4_3 H2_3 1_555 1_555
N9_3 C20_3 1_555 1_555
C6_3 C9_3 1_555 1_555
C7_3 C17_3 1_555 1_555
C9_3 C29_3 1_555 1_555
N10_2 C4_3 1_555 1_555
C10_3 H3_3 1_555 1_555
C12_3 H5_3 1_555 1_555
C13_3 H6_3 1_555 1_555
N11_3 C18_3 1_555 1_555
N13_2 C3_3 1_555 1_555
N14_3 C65_3 1_555 1_555
N15_2 C49_2 1_555 1_555
C17_3 H8_3 1_555 1_555
C18_3 H9_3 1_555 1_555
C20_3 N18_3 1_555 1_555
C21_3 C12_3 1_555 1_555
H10_3 C21_3 1_555 1_555
C22_3 N18_3 1_555 1_555
C23_3 C4_3 1_555 1_555
H11_3 C23_3 1_555 1_555
C26_3 C12_3 1_555 1_555
C27_2 H13_2 1_555 1_555
C29_3 C13_3 1_555 1_555
H14_3 C29_3 1_555 1_555
C30_3 C9_3 1_555 1_555
H15_3 C30_3 1_555 1_555
C31_3 C26_3 1_555 1_555
H16_3 C31_3 1_555 1_555
C32_2 H17_2 1_555 1_555
N19_3 C60_3 1_555 1_555
C34_3 H19_3 1_555 1_555
C35_2 C32_2 1_555 1_555
H20_2 C35_2 1_555 1_555
C36_3 C31_3 1_555 1_555
H21_3 C36_3 1_555 1_555
C37_3 C14_3 1_555 1_555
H22_3 C37_3 1_555 1_555
C41_3 N9_3 1_555 1_555
N20_3 C22_3 1_555 1_555
C42_3 C14_3 1_555 1_555
H26_3 C42_3 1_555 1_555
C43_3 H27_3 1_555 1_555
C44_3 H28_3 1_555 1_555
C45_3 N2_3 1_555 1_555
H29_3 C45_3 1_555 1_555
C47_3 N4_3 1_555 1_555
H31_3 C47_3 1_555 1_555
N21_3 C21_3 1_555 1_555
C48_2 H32_2 1_555 1_555
N22_2 C32_2 1_555 1_555
C49_2 H33_2 1_555 1_555
C50_2 C27_2 1_555 1_555
C53_3 C3_3 1_555 1_555
H36_3 C53_3 1_555 1_555
C54_2 N17_2 1_555 1_555
C57_2 C22_3 1_555 1_555
C58_3 C20_3 1_555 1_555
C59_3 C10_3 1_555 1_555
H39_3 C59_3 1_555 1_555
C60_3 N7_3 1_555 1_555
C61_3 N11_3 1_555 1_555
H40_3 C61_3 1_555 1_555
C62_3 C41_3 1_555 1_555
C63_2 N15_2 1_555 1_555
H41_2 C63_2 1_555 1_555
C64_3 C1_3 1_555 1_555
C65_3 C43_3 1_555 1_555
H42_3 C65_3 1_555 1_555
C67_2 C27_2 1_555 1_555
H44_2 C67_2 1_555 1_555
C68_2 C49_2 1_555 1_555
H45_2 C68_2 1_555 1_555
N24_2 C1_3 1_555 1_555
C69_3 N1_3 1_555 1_555
C70_3 N10_2 1_555 1_555
H46_3 C70_3 1_555 1_555
C71_3 N13_2 1_555 1_555
C72_3 N14_3 1_555 1_555
H48_3 C72_3 1_555 1_555
Zn4_3 N4_3 1_555 1_555
I8_3 Zn4_3 1_555 1_555
Zn5_3 N2_3 1_555 1_555
I10_3 Zn5_3 1_555 1_555
I11_2 Zn6_2 1_555 1_555
Zn6_2 N15_2 1_555 1_555
I12_2 Zn6_2 1_555 1_555
Zn7_2 N13_2 1_555 1_555
Zn8_2 N10_2 1_555 1_555
N26_2 Zn1_2 1_555 1_555
C7_3 C23_3 1_555 1_555
C7_3 C69_3 1_555 1_555
N11_3 Zn5_3 1_555 1_555
C17_3 C70_3 1_555 1_555
C18_3 C37_3 1_555 1_555
C26_3 C60_3 1_555 1_555
C30_3 C45_3 1_555 1_555
N19_3 C69_3 1_555 1_555
C34_3 C58_3 1_555 1_555
C34_3 C72_3 1_555 1_555
C35_2 C50_2 1_555 1_555
C36_3 N21_3 1_555 1_555
C41_3 N20_3 1_555 1_555
C42_3 C61_3 1_555 1_555
C43_3 C58_3 1_555 1_555
C44_3 C47_3 1_555 1_555
C44_3 C62_3 1_555 1_555
N21_3 Zn4_3 1_555 1_555
C48_2 C57_2 1_555 1_555
C48_2 C63_2 1_555 1_555
N22_2 C67_2 1_555 1_555
N22_2 Zn6_2 1_555 1_555
C50_2 C54_2 1_555 1_555
C51_3 C64_3 1_555 1_555
C51_3 C71_3 1_555 1_555
C53_3 C64_3 1_555 1_555
C54_2 N24_2 1_555 1_555
C57_2 C68_2 1_555 1_555
C59_3 C62_3 1_555 1_555
I1_3 Zn2_2 1_555 1_555
I4_3 Zn2_2 1_555 1_555
Zn2_2 N12_3 1_555 1_555
N3_3 C8_3 1_555 1_555
N5_3 C19_3 1_555 1_555
C2_3 C8_3 1_555 1_555
C8_3 N16_3 1_555 1_555
C11_3 C2_3 1_555 1_555
H4_3 C11_3 1_555 1_555
C15_3 C28_3 1_555 1_555
C16_3 H7_3 1_555 1_555
N12_3 C16_3 1_555 1_555
N16_3 C28_3 1_555 1_555
C19_3 N3_3 1_555 1_555
C25_3 N12_3 1_555 1_555
H12_3 C25_3 1_555 1_555
C28_3 N5_3 1_555 1_555
C38_3 C15_3 1_555 1_555
H23_3 C38_3 1_555 1_555
C39_3 C2_3 1_555 1_555
H24_3 C39_3 1_555 1_555
C40_3 C15_3 1_555 1_555
H25_3 C40_3 1_555 1_555
C46_3 C39_3 1_555 1_555
H30_3 C46_3 1_555 1_555
N27 C46_3 1_555 1_555
C66_3 C11_3 1_555 1_555
H43_3 C66_3 1_555 1_555
N25_2 Zn2_2 1_555 1_555
C16_3 C38_3 1_555 1_555
C25_3 C40_3 1_555 1_555
N27 C66_3 1_555 1_555
C3_4 H1_4 1_555 1_555
N26_2 C3_4 1_555 1_555
C53_4 C3_4 1_555 1_555
H36_4 C53_4 1_555 1_555
C64_4 C1_4 1_555 1_555
C71_4 N26_2 1_555 1_555
C51_4 C64_4 1_555 1_555
C51_4 C71_4 1_555 1_555
C53_4 C64_4 1_555 1_555
N6_4 C5_4 1_555 1_555
N8_4 C33_4 1_555 1_555
C5_4 C24_4 1_555 1_555
C24_4 C52_4 1_555 1_555
C33_4 H18_4 1_555 1_555
C52_4 C33_4 1_555 1_555
H35_4 C52_4 1_555 1_555
C55_4 N8_4 1_555 1_555
H37_4 C55_4 1_555 1_555
C56_4 C24_4 1_555 1_555
H38_4 C56_4 1_555 1_555
I5_4 Zn3_2 1_555 1_555
Zn3_2 N8_4 1_555 1_555
I6_4 Zn3_2 1_555 1_555
N27_2 Zn3_2 1_555 1_555
C55_4 C56_4 1_555 1_555
I1_4 Zn8_2 1_555 1_555
I4_4 Zn8_2 1_555 1_555
Zn8_2 N12_4 1_555 1_555
N1_4 C6_4 1_555 1_555
N2_4 C13_4 1_555 1_555
N3_4 C8_4 1_555 1_555
N4_4 C10_4 1_555 1_555
N5_4 C19_4 1_555 1_555
N7_4 C6_4 1_555 1_555
C6_4 C9_4 1_555 1_555
C8_4 N16_4 1_555 1_555
C9_4 C29_4 1_555 1_555
C10_4 H3_4 1_555 1_555
C12_4 H5_4 1_555 1_555
C13_4 H6_4 1_555 1_555
C14_4 C19_4 1_555 1_555
N11_4 C18_4 1_555 1_555
C15_4 C28_4 1_555 1_555
C16_4 H7_4 1_555 1_555
N12_4 C16_4 1_555 1_555
C18_4 H9_4 1_555 1_555
N16_4 C28_4 1_555 1_555
C19_4 N3_4 1_555 1_555
C21_4 C12_4 1_555 1_555
H10_4 C21_4 1_555 1_555
C25_4 N12_4 1_555 1_555
H12_4 C25_4 1_555 1_555
C26_4 C12_4 1_555 1_555
C28_4 N5_4 1_555 1_555
C29_4 C13_4 1_555 1_555
H14_4 C29_4 1_555 1_555
C30_4 C9_4 1_555 1_555
H15_4 C30_4 1_555 1_555
C31_4 C26_4 1_555 1_555
H16_4 C31_4 1_555 1_555
N19_4 C60_4 1_555 1_555
C36_4 C31_4 1_555 1_555
H21_4 C36_4 1_555 1_555
C37_4 C14_4 1_555 1_555
H22_4 C37_4 1_555 1_555
C38_4 C15_4 1_555 1_555
H23_4 C38_4 1_555 1_555
C40_4 C15_4 1_555 1_555
H25_4 C40_4 1_555 1_555
C41_4 N9_4 1_555 1_555
C42_4 C14_4 1_555 1_555
H26_4 C42_4 1_555 1_555
C43_4 H27_4 1_555 1_555
C44_4 H28_4 1_555 1_555
C45_4 N2_4 1_555 1_555
H29_4 C45_4 1_555 1_555
C47_4 N4_4 1_555 1_555
H31_4 C47_4 1_555 1_555
N21_4 C21_4 1_555 1_555
C59_4 C10_4 1_555 1_555
H39_4 C59_4 1_555 1_555
C60_4 N7_4 1_555 1_555
C61_4 N11_4 1_555 1_555
H40_4 C61_4 1_555 1_555
C62_4 C41_4 1_555 1_555
C65_4 C43_4 1_555 1_555
H42_4 C65_4 1_555 1_555
C69_4 N1_4 1_555 1_555
I7_4 Zn4_4 1_555 1_555
Zn4_4 N4_4 1_555 1_555
I8_4 Zn4_4 1_555 1_555
I9_4 Zn5_4 1_555 1_555
Zn5_4 N2_4 1_555 1_555
I10_4 Zn5_4 1_555 1_555
N11_4 Zn5_4 1_555 1_555
C16_4 C38_4 1_555 1_555
C18_4 C37_4 1_555 1_555
C25_4 C40_4 1_555 1_555
C26_4 C60_4 1_555 1_555
C30_4 C45_4 1_555 1_555
N19_4 C69_4 1_555 1_555
C36_4 N21_4 1_555 1_555
C41_4 N20_4 1_555 1_555
C42_4 C61_4 1_555 1_555
C44_4 C47_4 1_555 1_555
C44_4 C62_4 1_555 1_555
N21_4 Zn4_4 1_555 1_555
C59_4 C62_4 1_555 1_555
Zn7_2 N14_4 1_555 1_555
C4_4 H2_4 1_555 1_555
C7_4 C17_4 1_555 1_555
N25_2 C4_4 1_555 1_555
C11_4 C2_4 1_555 1_555
H4_4 C11_4 1_555 1_555
C17_4 H8_4 1_555 1_555
C20_4 N18_4 1_555 1_555
C22_4 N18_4 1_555 1_555
C23_4 C4_4 1_555 1_555
H11_4 C23_4 1_555 1_555
C34_4 H19_4 1_555 1_555
C39_4 C2_4 1_555 1_555
H24_4 C39_4 1_555 1_555
C46_4 C39_4 1_555 1_555
H30_4 C46_4 1_555 1_555
C58_4 C20_4 1_555 1_555
N27_2 C46_4 1_555 1_555
C66_4 C11_4 1_555 1_555
H43_4 C66_4 1_555 1_555
C70_4 N25_2 1_555 1_555
H46_4 C70_4 1_555 1_555
C72_4 N14_4 1_555 1_555
H48_4 C72_4 1_555 1_555
C7_4 C23_4 1_555 1_555
C17_4 C70_4 1_555 1_555
C34_4 C58_4 1_555 1_555
C34_4 C72_4 1_555 1_555
N27_2 C66_4 1_555 1_555
N15_3 C49_3 1_555 1_555
C27_3 H13_3 1_555 1_555
C32_3 H17_3 1_555 1_555
C35_3 C32_3 1_555 1_555
H20_3 C35_3 1_555 1_555
C48_3 H32_3 1_555 1_555
N22_3 C32_3 1_555 1_555
C49_3 H33_3 1_555 1_555
C50_3 C27_3 1_555 1_555
C54_3 N17_3 1_555 1_555
C63_3 N15_3 1_555 1_555
H41_3 C63_3 1_555 1_555
C67_3 C27_3 1_555 1_555
H44_3 C67_3 1_555 1_555
C68_3 C49_3 1_555 1_555
H45_3 C68_3 1_555 1_555
I11_3 Zn6_3 1_555 1_555
Zn6_3 N15_3 1_555 1_555
I12_3 Zn6_3 1_555 1_555
C35_3 C50_3 1_555 1_555
C48_3 C57_3 1_555 1_555
C48_3 C63_3 1_555 1_555
N22_3 C67_3 1_555 1_555
N22_3 Zn6_3 1_555 1_555
C50_3 C54_3 1_555 1_555
C54_3 N24_3 1_555 1_555
C57_3 C68_3 1_555 1_555
N15_4 C49_4 1_555 1_555
C27_4 H13_4 1_555 1_555
C32_4 H17_4 1_555 1_555
C35_4 C32_4 1_555 1_555
H20_4 C35_4 1_555 1_555
C48_4 H32_4 1_555 1_555
N22_4 C32_4 1_555 1_555
C49_4 H33_4 1_555 1_555
C50_4 C27_4 1_555 1_555
C54_4 N17_4 1_555 1_555
C63_4 N15_4 1_555 1_555
H41_4 C63_4 1_555 1_555
C67_4 C27_4 1_555 1_555
H44_4 C67_4 1_555 1_555
C68_4 C49_4 1_555 1_555
H45_4 C68_4 1_555 1_555
I11_4 Zn6_4 1_555 1_555
Zn6_4 N15_4 1_555 1_555
I12_4 Zn6_4 1_555 1_555
C35_4 C50_4 1_555 1_555
C48_4 C57_4 1_555 1_555
C48_4 C63_4 1_555 1_555
N22_4 C67_4 1_555 1_555
N22_4 Zn6_4 1_555 1_555
C50_4 C54_4 1_555 1_555
C54_4 N24_4 1_555 1_555
C57_4 C68_4 1_555 1_555

#END
