
###############################################################################
#
# This file contains modified crystal structure data generated from the
# MOF subset of the Cambridge Structural Database (CSD) v543 
# hosted by the Cambridge Crystallographic Data Centre (CCDC).
#
# This work is licensed under the Creative Commons
# Attribution-NonCommercial-ShareAlike 4.0 International License.
# To view a copy of this license, visit
# http://creativecommons.org/licenses/by-nc-sa/4.0/
# or send a letter to
# Creative Commons, PO Box 1866, Mountain View, CA 94042, USA.
#
# CIF created using the CSD Python API on 29 September 2022
# The structure has been converted into the P1 space group
# The structure has a 3D framework
# The original CSD entry QEDJOC is in the monoclinic crystal system
# The original CSD entry QEDJOC is in a Sohncke space group
# The framework has been calculated to contain at least 10.0% void space
# The void calculation uses a probe of radius 1.32A, grid spacing 0.4
#
###############################################################################

data_QEDJOC
_chemical_formula_moiety         '(C288 H192 I48 N96 Zn24)n'
_symmetry_cell_setting           triclinic
_symmetry_space_group_name_H-M   'P 1'
_symmetry_Int_Tables_number      1
_space_group_name_Hall           'P 1'
loop_
_symmetry_equiv_pos_site_id
_symmetry_equiv_pos_as_xyz
1 x,y,z
_cell_length_a                   35.3385(3)
_cell_length_b                   14.77200(10)
_cell_length_c                   31.6152(2)
_cell_angle_alpha                90
_cell_angle_beta                 102.3500(10)
_cell_angle_gamma                90
_cell_volume                     16121.9
loop_
_atom_site_label
_atom_site_type_symbol
_atom_site_fract_x
_atom_site_fract_y
_atom_site_fract_z
N1 N 0.7220(2) 0.3008(6) 0.0207(3)
C1 C 0.7426(3) 0.3517(8) 0.0524(3)
N12 N 0.7358(2) 0.4409(6) 0.0578(3)
C13 C 0.7737(3) 0.3062(7) 0.0837(3)
N17 N 0.8321(2) 0.2185(7) 0.1419(3)
N19 N 0.6836(3) 0.7592(7) 0.0248(3)
C26 C 0.7133(4) 0.7233(9) 0.0542(4)
H15 H 0.729319 0.762769 0.074066
C28 C 0.6989(3) 0.5738(8) 0.0269(3)
C33 C 0.8082(3) 0.1716(8) 0.1097(4)
H16 H 0.811483 0.108212 0.106792
C37 C 0.7978(3) 0.3543(8) 0.1151(4)
H20 H 0.794831 0.417804 0.117757
C47 C 0.7791(3) 0.2171(8) 0.0811(4)
H27 H 0.762502 0.183658 0.058939
C49 C 0.7211(3) 0.6335(8) 0.0565(4)
H29 H 0.741794 0.610930 0.078301
C56 C 0.7066(3) 0.4765(7) 0.0276(3)
C64 C 0.8271(4) 0.3073(8) 0.1436(4)
H41 H 0.844351 0.340740 0.165129
Zn7 Zn 0.6682(4) 0.8913(11) 0.0206(4)
Zn8 Zn 0.8756(3) 0.1580(8) 0.1855(3)
I1 I 0.23317(15) 0.0165(4) 0.54538(15)
I2 I 0.12527(16) 0.0856(3) 0.44767(16)
I3 I 0.2290(2) 0.4863(4) 0.04566(14)
I7 I 0.02111(16) 0.8932(4) 0.38010(15)
I8 I 0.11340(10) 0.9917(3) 0.3138(3)
Zn1 Zn 0.1682(4) 0.3913(11) 0.0206(4)
Zn3 Zn 0.0801(3) 0.8714(9) 0.3478(3)
Zn4 Zn 0.1714(2) 0.1052(4) 0.5209(2)
N2 N 0.5405(2) 0.6011(7) 0.6590(3)
N3 N 0.6235(2) 0.1931(6) 0.8900(3)
C2 C 0.5952(3) 0.3335(10) 0.7495(3)
H1 H 0.614610 0.348464 0.733987
N4 N 0.0757(2) 0.5256(6) 0.1885(2)
N5 N 0.2363(2) 0.5628(5) 0.5592(2)
N6 N 0.6396(3) 0.5875(7) 0.5692(3)
C3 C 0.1028(3) 0.3761(10) 0.0635(4)
H2 H 0.093573 0.341376 0.038078
N7 N 0.3348(2) 0.7836(6) 0.6405(3)
N8 N 0.1849(3) 0.2451(6) 0.5283(3)
N9 N 0.0250(2) 0.4748(7) 0.2216(2)
C4 C 0.5941(3) 0.5582(8) 0.6280(3)
C5 C 0.3264(3) 0.6978(8) 0.6466(4)
H3 H 0.341298 0.667205 0.670961
C6 C 0.6926(3) 0.3395(8) 0.9940(3)
N10 N 0.1824(2) 0.5746(6) 0.5002(3)
C7 C 0.2063(3) 0.5293(7) 0.5312(3)
C8 C 0.6313(3) 0.5252(10) 0.6344(4)
H4 H 0.641731 0.490941 0.659635
C9 C 0.1597(4) 0.3020(9) 0.5027(5)
H5 H 0.137351 0.277731 0.483932
C10 C 0.6546(3) 0.1549(9) 0.9167(3)
H6 H 0.660769 0.094029 0.911221
C11 C 0.6775(3) 0.1981(8) 0.9509(3)
H7 H 0.698692 0.167870 0.968955
C12 C 0.0178(3) 0.4108(7) 0.1914(3)
N13 N 0.5275(2) 0.5219(6) 0.7198(2)
N14 N 0.5735(3) 0.2333(6) 0.7980(3)
N15 N 0.6833(2) 0.4274(6) 0.9961(3)
N16 N 0.5784(2) 0.4733(7) 0.6870(3)
C14 C 0.5618(3) 0.3870(7) 0.7451(3)
C15 C 0.5409(3) 0.2857(8) 0.7932(3)
H8 H 0.521964 0.269694 0.809076
C16 C 0.0542(3) 0.5333(8) 0.2164(3)
C17 C 0.0784(4) 0.3862(10) 0.0928(4)
H9 H 0.053601 0.358167 0.087824
C18 C 0.6145(3) 0.2754(9) 0.8985(4)
H10 H 0.591905 0.301804 0.881079
C19 C 0.2831(3) 0.7875(8) 0.5782(3)
H11 H 0.268188 0.821747 0.555055
C20 C 0.0677(3) 0.4558(8) 0.1617(3)
N18 N 0.0709(4) 0.7616(7) 0.3013(3)
C21 C 0.4865(3) 0.6494(8) 0.6896(3)
C22 C 0.5693(3) 0.5451(8) 0.6601(3)
C23 C 0.0331(3) 0.6386(8) 0.2693(4)
H12 H 0.010591 0.602680 0.267852
C24 C 0.2230(3) 0.3704(8) 0.5577(4)
H13 H 0.245153 0.391731 0.577874
C25 C 0.1658(4) 0.3948(8) 0.5035(4)
H14 H 0.148263 0.434172 0.485195
N20 N 0.4235(2) 0.7606(7) 0.6877(3)
C27 C 0.1985(3) 0.4288(7) 0.5320(3)
C29 C 0.6691(3) 0.2875(7) 0.9585(3)
C30 C 0.5559(3) 0.4658(8) 0.7162(3)
C31 C 0.1677(3) 0.7148(8) 0.4613(3)
C32 C 0.2746(3) 0.6952(7) 0.5841(3)
C34 C 0.5344(3) 0.3574(8) 0.7677(3)
H17 H 0.510647 0.389272 0.764687
C35 C 0.4707(3) 0.6561(10) 0.7248(4)
H18 H 0.481399 0.624702 0.750835
N21 N 0.1381(3) 0.4119(7) 0.0689(3)
C36 C 0.1506(3) 0.4627(10) 0.1046(4)
H19 H 0.175921 0.487455 0.109267
N22 N 0.2221(2) 0.7039(6) 0.5224(3)
C38 C 0.2971(3) 0.6499(8) 0.6194(3)
H21 H 0.292562 0.588002 0.624625
C40 C 0.0602(3) 0.6142(8) 0.2458(3)
C41 C 0.5997(4) 0.2590(10) 0.7764(4)
H22 H 0.622886 0.224568 0.779604
N23 N 0.0384(2) 0.3966(7) 0.1609(3)
C43 C 0.3130(3) 0.8251(8) 0.6062(3)
H24 H 0.319090 0.886265 0.601297
C44 C 0.5206(3) 0.5883(8) 0.6902(3)
C45 C 0.4383(4) 0.7106(10) 0.7213(4)
H25 H 0.425856 0.711660 0.745078
C46 C 0.6695(3) 0.6117(9) 0.9960(4)
H26 H 0.654353 0.574379 0.974297
C48 C 0.4696(5) 0.6947(17) 0.6524(5)
H28 H 0.478786 0.686967 0.626464
C50 C 0.1364(5) 0.6730(10) 0.4346(5)
H30 H 0.129941 0.612157 0.439673
C51 C 0.6368(3) 0.3276(9) 0.9325(4)
H31 H 0.629895 0.388307 0.937325
C52 C 0.1923(3) 0.6609(7) 0.4969(3)
C55 C 0.0995(5) 0.7376(11) 0.2780(5)
H34 H 0.122758 0.771898 0.281654
C57 C 0.4398(6) 0.7505(18) 0.6537(6)
H35 H 0.429554 0.785105 0.628574
C58 C 0.0391(3) 0.7185(9) 0.2958(4)
H36 H 0.019160 0.739096 0.309392
N24 N 0.1223(4) 0.8077(7) 0.3922(3)
C59 C 0.1529(4) 0.8480(8) 0.4170(3)
H37 H 0.159389 0.908178 0.410682
C60 C 0.0922(3) 0.4404(7) 0.1303(3)
C61 C 0.5815(3) 0.6085(11) 0.5913(3)
H38 H 0.556402 0.635028 0.585942
C62 C 0.6620(4) 0.7029(9) 0.9964(4)
H39 H 0.640764 0.726783 0.975789
C63 C 0.1155(6) 0.7198(10) 0.4015(6)
H40 H 0.094432 0.689678 0.383230
C65 C 0.2421(3) 0.6508(7) 0.5542(3)
C66 C 0.6047(3) 0.6207(11) 0.5624(4)
H42 H 0.595240 0.654216 0.536645
C67 C 0.1284(3) 0.4806(9) 0.1349(3)
H43 H 0.137844 0.520043 0.158559
C68 C 0.2145(3) 0.2784(8) 0.5535(4)
H44 H 0.232163 0.237540 0.570626
C69 C 0.1754(3) 0.8027(8) 0.4523(3)
H45 H 0.196454 0.833340 0.470302
C71 C 0.6523(3) 0.5411(10) 0.6056(4)
H47 H 0.678054 0.518249 0.611031
C72 C 0.0938(5) 0.6632(12) 0.2496(5)
H48 H 0.112554 0.647312 0.233399
I9 I 0.52852(15) 0.0894(6) 0.8718(2)
Zn5 Zn 0.5868(4) 0.1319(11) 0.8400(5)
I10 I 0.6247(3) 0.0164(5) 0.8029(3)
I11 I 0.3967(2) 0.9839(5) 0.6486(2)
Zn6 Zn 0.3772(2) 0.8480(7) 0.6839(3)
I12 I 0.35890(17) 0.8382(5) 0.7594(3)
Zn9 Zn 0.6714(2) 0.6052(4) 0.5209(2)
N25 N 0.1396(3) 0.0875(7) 0.5692(3)
N27 N 0.1836(3) 0.2592(7) 0.0248(3)
I5 I 0.89344(11) 0.01121(19) 0.14612(18)
I6 I 0.85594(11) 0.1526(3) 0.25892(12)
N11 N 0.9208(3) 0.2412(6) 0.1892(3)
C39 C 0.9850(3) 0.3523(8) 0.1903(3)
C42 C 0.9364(3) 0.2850(9) 0.2251(3)
H23 H 0.926159 0.277249 0.250286
C53 C 0.9347(4) 0.2546(13) 0.1545(4)
H32 H 0.922762 0.224129 0.128610
C54 C 0.9687(3) 0.3438(9) 0.2263(4)
H33 H 0.979001 0.377253 0.251844
C70 C 0.9659(5) 0.3110(14) 0.1537(4)
H46 H 0.973873 0.320839 0.127231
C26_2 C 0.2133(4) 0.2233(9) 0.0542(4)
H15_2 H 0.229319 0.262769 0.074066
C28_2 C 0.1989(3) 0.0738(8) 0.0269(3)
C49_2 C 0.2211(3) 0.1335(8) 0.0565(4)
H29_2 H 0.241794 0.110930 0.078301
N2_2 N 0.0405(2) 0.1011(7) 0.6590(3)
C4_2 C 0.0941(3) 0.0582(8) 0.6280(3)
C8_2 C 0.1313(3) 0.0252(10) 0.6344(4)
N13_2 N 0.0275(2) 0.0219(6) 0.7198(2)
C22_2 C 0.0693(3) 0.0451(8) 0.6601(3)
C44_2 C 0.0206(3) 0.0883(8) 0.6902(3)
C46_2 C 0.1695(3) 0.1117(9) 0.9960(4)
H26_2 H 0.154353 0.074379 0.974297
C61_2 C 0.0815(3) 0.1085(11) 0.5913(3)
H38_2 H 0.056402 0.135028 0.585942
C62_2 C 0.1620(4) 0.2029(9) 0.9964(4)
H39_2 H 0.140764 0.226783 0.975789
C66_2 C 0.1047(3) 0.1207(11) 0.5624(4)
H42_2 H 0.095240 0.154216 0.536645
C71_2 C 0.1523(3) 0.0411(10) 0.6056(4)
H47_2 H 0.178054 0.018249 0.611031
N1_2 N 0.2220(2) 0.8008(6) 0.0207(3)
C1_2 C 0.2426(3) 0.8517(8) 0.0524(3)
N12_2 N 0.2358(2) 0.9409(6) 0.0578(3)
C13_2 C 0.2737(3) 0.8062(7) 0.0837(3)
N17_2 N 0.3321(2) 0.7185(7) 0.1419(3)
C33_2 C 0.3082(3) 0.6716(8) 0.1097(4)
H16_2 H 0.311483 0.608212 0.106792
C37_2 C 0.2978(3) 0.8543(8) 0.1151(4)
H20_2 H 0.294831 0.917804 0.117757
C47_2 C 0.2791(3) 0.7171(8) 0.0811(4)
H27_2 H 0.262502 0.683658 0.058939
C56_2 C 0.2066(3) 0.9765(7) 0.0276(3)
C64_2 C 0.3271(4) 0.8073(8) 0.1436(4)
H41_2 H 0.344351 0.840740 0.165129
Zn8_2 Zn 0.3756(3) 0.6580(8) 0.1855(3)
I1_2 I 0.73317(15) 0.5165(4) 0.54538(15)
I2_2 I 0.62527(16) 0.5856(3) 0.44767(16)
I3_2 I 0.7290(2) 0.9863(4) 0.04566(14)
I5_2 I 0.39344(11) 0.51121(19) 0.14612(18)
I6_2 I 0.35594(11) 0.6526(3) 0.25892(12)
C3_2 C 0.6028(3) 0.8761(10) 0.0635(4)
H2_2 H 0.593573 0.841376 0.038078
N8_2 N 0.6849(3) 0.7451(6) 0.5283(3)
N9_2 N 0.5250(2) 0.9748(7) 0.2216(2)
C9_2 C 0.6597(4) 0.8020(9) 0.5027(5)
H5_2 H 0.637351 0.777731 0.483932
N11_2 N 0.4208(3) 0.7412(6) 0.1892(3)
C12_2 C 0.5178(3) 0.9108(7) 0.1914(3)
C17_2 C 0.5784(4) 0.8862(10) 0.0928(4)
H9_2 H 0.553601 0.858167 0.087824
C20_2 C 0.5677(3) 0.9558(8) 0.1617(3)
C24_2 C 0.7230(3) 0.8704(8) 0.5577(4)
H13_2 H 0.745153 0.891731 0.577874
C25_2 C 0.6658(4) 0.8948(8) 0.5035(4)
H14_2 H 0.648263 0.934172 0.485195
C27_2 C 0.6985(3) 0.9288(7) 0.5320(3)
N21_2 N 0.6381(3) 0.9119(7) 0.0689(3)
C36_2 C 0.6506(3) 0.9627(10) 0.1046(4)
H19_2 H 0.675921 0.987455 0.109267
C39_2 C 0.4850(3) 0.8523(8) 0.1903(3)
C42_2 C 0.4364(3) 0.7850(9) 0.2251(3)
H23_2 H 0.426159 0.777249 0.250286
N23_2 N 0.5384(2) 0.8966(7) 0.1609(3)
C53_2 C 0.4347(4) 0.7546(13) 0.1545(4)
H32_2 H 0.422762 0.724129 0.128610
C54_2 C 0.4687(3) 0.8438(9) 0.2263(4)
H33_2 H 0.479001 0.877253 0.251844
C60_2 C 0.5922(3) 0.9404(7) 0.1303(3)
C67_2 C 0.6284(3) 0.9806(9) 0.1349(3)
C68_2 C 0.7145(3) 0.7784(8) 0.5535(4)
H44_2 H 0.732163 0.737540 0.570626
C70_2 C 0.4659(5) 0.8110(14) 0.1537(4)
H46_2 H 0.473873 0.820839 0.127231
I4 I 0.1207(3) 0.4166(6) 0.94919(19)
I5_3 I 0.10656(11) 0.01121(19) 0.85388(18)
I6_3 I 0.14406(11) 0.1526(3) 0.74108(12)
Zn2 Zn 0.1244(3) 0.1580(8) 0.8145(3)
N11_3 N 0.0792(3) 0.2412(6) 0.8108(3)
C39_3 C 0.0150(3) 0.3523(8) 0.8097(3)
C42_3 C 0.0636(3) 0.2850(9) 0.7749(3)
H23_3 H 0.073841 0.277249 0.749714
C53_3 C 0.0653(4) 0.2546(13) 0.8455(4)
H32_3 H 0.077238 0.224129 0.871390
C54_3 C 0.0313(3) 0.3438(9) 0.7737(4)
H33_3 H 0.020999 0.377253 0.748156
C70_3 C 0.0341(5) 0.3110(14) 0.8463(4)
H46_3 H 0.026127 0.320839 0.872769
N26 N 0.1679(2) 0.2185(7) 0.8581(3)
I1_3 I 0.76683(15) 0.0165(4) 0.45462(15)
I2_3 I 0.87473(16) 0.0856(3) 0.55233(16)
I3_3 I 0.7710(2) 0.4863(4) 0.95434(14)
I7_2 I 0.97889(16) 0.8932(4) 0.61990(15)
I8_2 I 0.88660(10) 0.9917(3) 0.6862(3)
Zn1_2 Zn 0.8318(4) 0.3913(11) 0.9794(4)
Zn3_2 Zn 0.9199(3) 0.8714(9) 0.6522(3)
Zn4_2 Zn 0.8286(2) 0.1052(4) 0.4791(2)
N2_3 N 0.4595(2) 0.6011(7) 0.3410(3)
N3_2 N 0.3765(2) 0.1931(6) 0.1100(3)
C2_2 C 0.4048(3) 0.3335(10) 0.2505(3)
H1_2 H 0.385390 0.348464 0.266013
N4_2 N 0.9243(2) 0.5256(6) 0.8115(2)
N5_2 N 0.7637(2) 0.5628(5) 0.4408(2)
N6_2 N 0.3604(3) 0.5875(7) 0.4308(3)
C3_3 C 0.8972(3) 0.3761(10) 0.9365(4)
H2_3 H 0.906427 0.341376 0.961922
N7_2 N 0.6652(2) 0.7836(6) 0.3595(3)
N8_3 N 0.8151(3) 0.2451(6) 0.4717(3)
N9_3 N 0.9750(2) 0.4748(7) 0.7784(2)
C4_3 C 0.4059(3) 0.5582(8) 0.3720(3)
C5_2 C 0.6736(3) 0.6978(8) 0.3534(4)
H3_2 H 0.658702 0.667205 0.329039
C6_2 C 0.3074(3) 0.3395(8) 0.0060(3)
N10_2 N 0.8176(2) 0.5746(6) 0.4998(3)
C7_2 C 0.7937(3) 0.5293(7) 0.4688(3)
C8_3 C 0.3687(3) 0.5252(10) 0.3656(4)
H4_2 H 0.358269 0.490941 0.340365
C9_3 C 0.8403(4) 0.3020(9) 0.4973(5)
H5_3 H 0.862649 0.277731 0.516068
C10_2 C 0.3454(3) 0.1549(9) 0.0833(3)
H6_2 H 0.339231 0.094029 0.088779
C11_2 C 0.3225(3) 0.1981(8) 0.0491(3)
H7_2 H 0.301308 0.167870 0.031045
C12_3 C 0.9822(3) 0.4108(7) 0.8086(3)
N13_3 N 0.4725(2) 0.5219(6) 0.2802(2)
N14_2 N 0.4265(3) 0.2333(6) 0.2020(3)
N15_2 N 0.3167(2) 0.4274(6) 0.0039(3)
N16_2 N 0.4216(2) 0.4733(7) 0.3130(3)
C14_2 C 0.4382(3) 0.3870(7) 0.2549(3)
C15_2 C 0.4591(3) 0.2857(8) 0.2068(3)
H8_2 H 0.478036 0.269694 0.190924
C16_2 C 0.9458(3) 0.5333(8) 0.7836(3)
C17_3 C 0.9216(4) 0.3862(10) 0.9072(4)
H9_3 H 0.946399 0.358167 0.912176
C18_2 C 0.3855(3) 0.2754(9) 0.1015(4)
H10_2 H 0.408095 0.301804 0.118921
C19_2 C 0.7169(3) 0.7875(8) 0.4218(3)
H11_2 H 0.731812 0.821747 0.444945
C20_3 C 0.9323(3) 0.4558(8) 0.8383(3)
N18_2 N 0.9291(4) 0.7616(7) 0.6987(3)
C21_2 C 0.5135(3) 0.6494(8) 0.3104(3)
C22_3 C 0.4307(3) 0.5451(8) 0.3399(3)
C23_2 C 0.9669(3) 0.6386(8) 0.7307(4)
H12_2 H 0.989409 0.602680 0.732148
C24_3 C 0.7770(3) 0.3704(8) 0.4423(4)
H13_3 H 0.754847 0.391731 0.422126
C25_3 C 0.8342(4) 0.3948(8) 0.4965(4)
H14_3 H 0.851737 0.434172 0.514805
N20_2 N 0.5765(2) 0.7606(7) 0.3123(3)
C27_3 C 0.8015(3) 0.4288(7) 0.4680(3)
C29_2 C 0.3309(3) 0.2875(7) 0.0415(3)
C30_2 C 0.4441(3) 0.4658(8) 0.2838(3)
C31_2 C 0.8323(3) 0.7148(8) 0.5387(3)
C32_2 C 0.7254(3) 0.6952(7) 0.4159(3)
C34_2 C 0.4656(3) 0.3574(8) 0.2323(3)
H17_2 H 0.489353 0.389272 0.235313
C35_2 C 0.5293(3) 0.6561(10) 0.2752(4)
H18_2 H 0.518601 0.624702 0.249165
N21_3 N 0.8619(3) 0.4119(7) 0.9311(3)
C36_3 C 0.8494(3) 0.4627(10) 0.8954(4)
H19_3 H 0.824079 0.487455 0.890733
N22_2 N 0.7779(2) 0.7039(6) 0.4776(3)
C38_2 C 0.7029(3) 0.6499(8) 0.3806(3)
H21_2 H 0.707438 0.588002 0.375375
C40_2 C 0.9398(3) 0.6142(8) 0.7542(3)
C41_2 C 0.4003(4) 0.2590(10) 0.2236(4)
H22_2 H 0.377114 0.224568 0.220396
N23_3 N 0.9616(2) 0.3966(7) 0.8391(3)
C43_2 C 0.6870(3) 0.8251(8) 0.3938(3)
H24_2 H 0.680910 0.886265 0.398703
C44_3 C 0.4794(3) 0.5883(8) 0.3098(3)
C45_2 C 0.5617(4) 0.7106(10) 0.2787(4)
H25_2 H 0.574144 0.711660 0.254922
C46_3 C 0.3305(3) 0.6117(9) 0.0040(4)
H26_3 H 0.345647 0.574379 0.025703
C48_2 C 0.5304(5) 0.6947(17) 0.3476(5)
H28_2 H 0.521214 0.686967 0.373536
C50_2 C 0.8636(5) 0.6730(10) 0.5654(5)
H30_2 H 0.870059 0.612157 0.560327
C51_2 C 0.3632(3) 0.3276(9) 0.0675(4)
H31_2 H 0.370105 0.388307 0.062675
C52_2 C 0.8077(3) 0.6609(7) 0.5031(3)
C55_2 C 0.9005(5) 0.7376(11) 0.7220(5)
H34_2 H 0.877242 0.771898 0.718346
C57_2 C 0.5602(6) 0.7505(18) 0.3463(6)
H35_2 H 0.570446 0.785105 0.371426
C58_2 C 0.9609(3) 0.7185(9) 0.7042(4)
H36_2 H 0.980840 0.739096 0.690608
N24_2 N 0.8777(4) 0.8077(7) 0.6078(3)
C59_2 C 0.8471(4) 0.8480(8) 0.5830(3)
H37_2 H 0.840611 0.908178 0.589318
C60_3 C 0.9078(3) 0.4404(7) 0.8697(3)
C61_3 C 0.4185(3) 0.6085(11) 0.4087(3)
H38_3 H 0.443598 0.635028 0.414058
C62_3 C 0.3380(4) 0.7029(9) 0.0036(4)
H39_3 H 0.359236 0.726783 0.024211
C63_2 C 0.8845(6) 0.7198(10) 0.5985(6)
H40_2 H 0.905568 0.689678 0.616770
C65_2 C 0.7579(3) 0.6508(7) 0.4458(3)
C66_3 C 0.3953(3) 0.6207(11) 0.4376(4)
H42_3 H 0.404760 0.654216 0.463355
C67_3 C 0.8716(3) 0.4806(9) 0.8651(3)
H43_2 H 0.862156 0.520043 0.841441
C68_3 C 0.7855(3) 0.2784(8) 0.4465(4)
H44_3 H 0.767837 0.237540 0.429374
C69_2 C 0.8246(3) 0.8027(8) 0.5477(3)
H45_2 H 0.803546 0.833340 0.529698
C71_3 C 0.3477(3) 0.5411(10) 0.3944(4)
H47_3 H 0.321946 0.518249 0.388969
C72_2 C 0.9062(5) 0.6632(12) 0.7504(5)
H48_2 H 0.887446 0.647312 0.766601
I9_2 I 0.47148(15) 0.0894(6) 0.1282(2)
Zn5_2 Zn 0.4132(4) 0.1319(11) 0.1600(5)
I10_2 I 0.3753(3) 0.0164(5) 0.1971(3)
I11_2 I 0.6033(2) 0.9839(5) 0.3514(2)
Zn6_2 Zn 0.6228(2) 0.8480(7) 0.3161(3)
I12_2 I 0.64110(17) 0.8382(5) 0.2406(3)
Zn9_2 Zn 0.3286(2) 0.6052(4) 0.4791(2)
N25_2 N 0.8604(3) 0.0875(7) 0.4308(3)
N27_2 N 0.8164(3) 0.2592(7) 0.9752(3)
N1_3 N 0.2780(2) 0.3008(6) 0.9793(3)
C1_3 C 0.2574(3) 0.3517(8) 0.9476(3)
N12_3 N 0.2642(2) 0.4409(6) 0.9422(3)
C13_3 C 0.2263(3) 0.3062(7) 0.9163(3)
N19_2 N 0.3164(3) 0.7592(7) 0.9752(3)
C26_3 C 0.2867(4) 0.7233(9) 0.9458(4)
H15_3 H 0.270681 0.762769 0.925934
C28_3 C 0.3011(3) 0.5738(8) 0.9731(3)
C33_3 C 0.1918(3) 0.1716(8) 0.8903(4)
H16_3 H 0.188517 0.108212 0.893208
C37_3 C 0.2022(3) 0.3543(8) 0.8849(4)
H20_3 H 0.205169 0.417804 0.882243
C47_3 C 0.2209(3) 0.2171(8) 0.9189(4)
H27_3 H 0.237498 0.183658 0.941061
C49_3 C 0.2789(3) 0.6335(8) 0.9435(4)
H29_3 H 0.258206 0.610930 0.921699
C56_3 C 0.2934(3) 0.4765(7) 0.9724(3)
C64_3 C 0.1729(4) 0.3073(8) 0.8564(4)
H41_3 H 0.155649 0.340740 0.834871
Zn7_2 Zn 0.3318(4) 0.8913(11) 0.9794(4)
I1_4 I 0.26683(15) 0.5165(4) 0.45462(15)
I2_4 I 0.37473(16) 0.5856(3) 0.55233(16)
I3_4 I 0.2710(2) 0.9863(4) 0.95434(14)
I5_4 I 0.60656(11) 0.51121(19) 0.85388(18)
I6_4 I 0.64406(11) 0.6526(3) 0.74108(12)
Zn2_2 Zn 0.6244(3) 0.6580(8) 0.8145(3)
C3_4 C 0.3972(3) 0.8761(10) 0.9365(4)
H2_4 H 0.406427 0.841376 0.961922
N8_4 N 0.3151(3) 0.7451(6) 0.4717(3)
N9_4 N 0.4750(2) 0.9748(7) 0.7784(2)
C9_4 C 0.3403(4) 0.8020(9) 0.4973(5)
H5_4 H 0.362649 0.777731 0.516068
N11_4 N 0.5792(3) 0.7412(6) 0.8108(3)
C12_4 C 0.4822(3) 0.9108(7) 0.8086(3)
C17_4 C 0.4216(4) 0.8862(10) 0.9072(4)
H9_4 H 0.446399 0.858167 0.912176
C20_4 C 0.4323(3) 0.9558(8) 0.8383(3)
C24_4 C 0.2770(3) 0.8704(8) 0.4423(4)
H13_4 H 0.254847 0.891731 0.422126
C25_4 C 0.3342(4) 0.8948(8) 0.4965(4)
H14_4 H 0.351737 0.934172 0.514805
C27_4 C 0.3015(3) 0.9288(7) 0.4680(3)
N21_4 N 0.3619(3) 0.9119(7) 0.9311(3)
C36_4 C 0.3494(3) 0.9627(10) 0.8954(4)
H19_4 H 0.324079 0.987455 0.890733
C39_4 C 0.5150(3) 0.8523(8) 0.8097(3)
C42_4 C 0.5636(3) 0.7850(9) 0.7749(3)
H23_4 H 0.573841 0.777249 0.749714
N23_4 N 0.4616(2) 0.8966(7) 0.8391(3)
C53_4 C 0.5653(4) 0.7546(13) 0.8455(4)
H32_4 H 0.577238 0.724129 0.871390
C54_4 C 0.5313(3) 0.8438(9) 0.7737(4)
H33_4 H 0.520999 0.877253 0.748156
C60_4 C 0.4078(3) 0.9404(7) 0.8697(3)
C67_4 C 0.3716(3) 0.9806(9) 0.8651(3)
C68_4 C 0.2855(3) 0.7784(8) 0.4465(4)
H44_4 H 0.267837 0.737540 0.429374
C70_4 C 0.5341(5) 0.8110(14) 0.8463(4)
H46_4 H 0.526127 0.820839 0.872769
N26_2 N 0.6679(2) 0.7185(7) 0.8581(3)
N2_4 N 0.9595(2) 0.1011(7) 0.3410(3)
C4_4 C 0.9059(3) 0.0582(8) 0.3720(3)
C8_4 C 0.8687(3) 0.0252(10) 0.3656(4)
N13_4 N 0.9725(2) 0.0219(6) 0.2802(2)
C22_4 C 0.9307(3) 0.0451(8) 0.3399(3)
C44_4 C 0.9794(3) 0.0883(8) 0.3098(3)
C46_4 C 0.8305(3) 0.1117(9) 0.0040(4)
H26_4 H 0.845647 0.074379 0.025703
C61_4 C 0.9185(3) 0.1085(11) 0.4087(3)
H38_4 H 0.943598 0.135028 0.414058
C62_4 C 0.8380(4) 0.2029(9) 0.0036(4)
H39_4 H 0.859236 0.226783 0.024211
C66_4 C 0.8953(3) 0.1207(11) 0.4376(4)
H42_4 H 0.904760 0.154216 0.463355
C71_4 C 0.8477(3) 0.0411(10) 0.3944(4)
H47_4 H 0.821946 0.018249 0.388969
C26_4 C 0.7867(4) 0.2233(9) 0.9458(4)
H15_4 H 0.770681 0.262769 0.925934
C28_4 C 0.8011(3) 0.0738(8) 0.9731(3)
C49_4 C 0.7789(3) 0.1335(8) 0.9435(4)
H29_4 H 0.758206 0.110930 0.921699
N1_4 N 0.7780(2) 0.8008(6) 0.9793(3)
C1_4 C 0.7574(3) 0.8517(8) 0.9476(3)
N12_4 N 0.7642(2) 0.9409(6) 0.9422(3)
C13_4 C 0.7263(3) 0.8062(7) 0.9163(3)
C33_4 C 0.6918(3) 0.6716(8) 0.8903(4)
H16_4 H 0.688517 0.608212 0.893208
C37_4 C 0.7022(3) 0.8543(8) 0.8849(4)
H20_4 H 0.705169 0.917804 0.882243
C47_4 C 0.7209(3) 0.7171(8) 0.9189(4)
H27_4 H 0.737498 0.683658 0.941061
C56_4 C 0.7934(3) 0.9765(7) 0.9724(3)
C64_4 C 0.6729(4) 0.8073(8) 0.8564(4)
H41_4 H 0.655649 0.840740 0.834871
I4_2 I 0.8793(3) 0.4166(6) 0.05081(19)
N3_3 N 0.1235(2) 0.6931(6) 0.8900(3)
C2_3 C 0.0952(3) 0.8335(10) 0.7495(3)
H1_3 H 0.114610 0.848464 0.733987
C6_3 C 0.1926(3) 0.8395(8) 0.9940(3)
H4_3 H 0.141731 0.990941 0.659635
C10_3 C 0.1546(3) 0.6549(9) 0.9167(3)
H6_3 H 0.160769 0.594029 0.911221
C11_3 C 0.1775(3) 0.6981(8) 0.9509(3)
H7_3 H 0.198692 0.667870 0.968955
N14_3 N 0.0735(3) 0.7333(6) 0.7980(3)
N15_3 N 0.1833(2) 0.9274(6) 0.9961(3)
N16_3 N 0.0784(2) 0.9733(7) 0.6870(3)
C14_3 C 0.0618(3) 0.8870(7) 0.7451(3)
C15_3 C 0.0409(3) 0.7857(8) 0.7932(3)
H8_3 H 0.021964 0.769694 0.809076
C18_3 C 0.1145(3) 0.7754(9) 0.8985(4)
H10_3 H 0.091905 0.801804 0.881079
C29_3 C 0.1691(3) 0.7875(7) 0.9585(3)
C30_3 C 0.0559(3) 0.9658(8) 0.7162(3)
C34_3 C 0.0344(3) 0.8574(8) 0.7677(3)
H17_3 H 0.010647 0.889272 0.764687
C41_3 C 0.0997(4) 0.7590(10) 0.7764(4)
H22_3 H 0.122886 0.724568 0.779604
C51_3 C 0.1368(3) 0.8276(9) 0.9325(4)
H31_3 H 0.129895 0.888307 0.937325
I9_3 I 0.02852(15) 0.5894(6) 0.8718(2)
Zn5_3 Zn 0.0868(4) 0.6319(11) 0.8400(5)
I10_3 I 0.1247(3) 0.5164(5) 0.8029(3)
I7_3 I 0.52111(16) 0.3932(4) 0.38010(15)
I8_3 I 0.61340(10) 0.4917(3) 0.3138(3)
Zn3_3 Zn 0.5801(3) 0.3714(9) 0.3478(3)
N4_3 N 0.5757(2) 0.0256(6) 0.1885(2)
N5_3 N 0.7363(2) 0.0628(5) 0.5592(2)
N7_3 N 0.8348(2) 0.2836(6) 0.6405(3)
C5_3 C 0.8264(3) 0.1978(8) 0.6466(4)
H3_3 H 0.841298 0.167205 0.670961
N10_3 N 0.6824(2) 0.0746(6) 0.5002(3)
C7_3 C 0.7063(3) 0.0293(7) 0.5312(3)
C16_3 C 0.5542(3) 0.0333(8) 0.2164(3)
C19_3 C 0.7831(3) 0.2875(8) 0.5782(3)
H11_3 H 0.768188 0.321747 0.555055
N18_3 N 0.5709(4) 0.2616(7) 0.3013(3)
C21_3 C 0.9865(3) 0.1494(8) 0.6896(3)
C23_3 C 0.5331(3) 0.1386(8) 0.2693(4)
H12_3 H 0.510591 0.102680 0.267852
N20_3 N 0.9235(2) 0.2606(7) 0.6877(3)
C31_3 C 0.6677(3) 0.2148(8) 0.4613(3)
C32_3 C 0.7746(3) 0.1952(7) 0.5841(3)
C35_3 C 0.9707(3) 0.1561(10) 0.7248(4)
H18_3 H 0.981399 0.124702 0.750835
N22_3 N 0.7221(2) 0.2039(6) 0.5224(3)
C38_3 C 0.7971(3) 0.1499(8) 0.6194(3)
H21_3 H 0.792562 0.088002 0.624625
C40_3 C 0.5602(3) 0.1142(8) 0.2458(3)
C43_3 C 0.8130(3) 0.3251(8) 0.6062(3)
H24_3 H 0.819090 0.386265 0.601297
C45_3 C 0.9383(4) 0.2106(10) 0.7213(4)
H25_3 H 0.925856 0.211660 0.745078
C48_3 C 0.9696(5) 0.1947(17) 0.6524(5)
H28_3 H 0.978786 0.186967 0.626464
C50_3 C 0.6364(5) 0.1730(10) 0.4346(5)
H30_3 H 0.629941 0.112157 0.439673
C52_3 C 0.6923(3) 0.1609(7) 0.4969(3)
C55_3 C 0.5995(5) 0.2376(11) 0.2780(5)
H34_3 H 0.622758 0.271898 0.281654
C57_3 C 0.9398(6) 0.2505(18) 0.6537(6)
H35_3 H 0.929554 0.285105 0.628574
C58_3 C 0.5391(3) 0.2185(9) 0.2958(4)
H36_3 H 0.519160 0.239096 0.309392
N24_3 N 0.6223(4) 0.3077(7) 0.3922(3)
C59_3 C 0.6529(4) 0.3480(8) 0.4170(3)
H37_3 H 0.659389 0.408178 0.410682
C63_3 C 0.6155(6) 0.2198(10) 0.4015(6)
H40_3 H 0.594432 0.189678 0.383230
C65_3 C 0.7421(3) 0.1508(7) 0.5542(3)
H43_3 H 0.637844 0.020043 0.158559
C69_3 C 0.6754(3) 0.3027(8) 0.4523(3)
H45_3 H 0.696454 0.333340 0.470302
C72_3 C 0.5938(5) 0.1632(12) 0.2496(5)
H48_3 H 0.612554 0.147312 0.233399
I11_3 I 0.8967(2) 0.4839(5) 0.6486(2)
Zn6_3 Zn 0.8772(2) 0.3480(7) 0.6839(3)
I12_3 I 0.85890(17) 0.3382(5) 0.7594(3)
I4_3 I 0.6207(3) 0.9166(6) 0.94919(19)
I7_4 I 0.47889(16) 0.3932(4) 0.61990(15)
I8_4 I 0.38660(10) 0.4917(3) 0.6862(3)
Zn3_4 Zn 0.4199(3) 0.3714(9) 0.6522(3)
N4_4 N 0.4243(2) 0.0256(6) 0.8115(2)
N5_4 N 0.2637(2) 0.0628(5) 0.4408(2)
N7_4 N 0.1652(2) 0.2836(6) 0.3595(3)
C5_4 C 0.1736(3) 0.1978(8) 0.3534(4)
H3_4 H 0.158702 0.167205 0.329039
N10_4 N 0.3176(2) 0.0746(6) 0.4998(3)
C7_4 C 0.2937(3) 0.0293(7) 0.4688(3)
C16_4 C 0.4458(3) 0.0333(8) 0.7836(3)
C19_4 C 0.2169(3) 0.2875(8) 0.4218(3)
H11_4 H 0.231812 0.321747 0.444945
N18_4 N 0.4291(4) 0.2616(7) 0.6987(3)
C21_4 C 0.0135(3) 0.1494(8) 0.3104(3)
C23_4 C 0.4669(3) 0.1386(8) 0.7307(4)
H12_4 H 0.489409 0.102680 0.732148
N20_4 N 0.0765(2) 0.2606(7) 0.3123(3)
C31_4 C 0.3323(3) 0.2148(8) 0.5387(3)
C32_4 C 0.2254(3) 0.1952(7) 0.4159(3)
C35_4 C 0.0293(3) 0.1561(10) 0.2752(4)
H18_4 H 0.018601 0.124702 0.249165
N22_4 N 0.2779(2) 0.2039(6) 0.4776(3)
C38_4 C 0.2029(3) 0.1499(8) 0.3806(3)
H21_4 H 0.207438 0.088002 0.375375
C40_4 C 0.4398(3) 0.1142(8) 0.7542(3)
C43_4 C 0.1870(3) 0.3251(8) 0.3938(3)
H24_4 H 0.180910 0.386265 0.398703
C45_4 C 0.0617(4) 0.2106(10) 0.2787(4)
H25_4 H 0.074144 0.211660 0.254922
C48_4 C 0.0304(5) 0.1947(17) 0.3476(5)
H28_4 H 0.021214 0.186967 0.373536
C50_4 C 0.3636(5) 0.1730(10) 0.5654(5)
H30_4 H 0.370059 0.112157 0.560327
C52_4 C 0.3077(3) 0.1609(7) 0.5031(3)
C55_4 C 0.4005(5) 0.2376(11) 0.7220(5)
H34_4 H 0.377242 0.271898 0.718346
C57_4 C 0.0602(6) 0.2505(18) 0.3463(6)
H35_4 H 0.070446 0.285105 0.371426
C58_4 C 0.4609(3) 0.2185(9) 0.7042(4)
H36_4 H 0.480840 0.239096 0.690608
N24_4 N 0.3777(4) 0.3077(7) 0.6078(3)
C59_4 C 0.3471(4) 0.3480(8) 0.5830(3)
H37_4 H 0.340611 0.408178 0.589318
C63_4 C 0.3845(6) 0.2198(10) 0.5985(6)
H40_4 H 0.405568 0.189678 0.616770
C65_4 C 0.2579(3) 0.1508(7) 0.4458(3)
H43_4 H 0.362156 0.020043 0.841441
C69_4 C 0.3246(3) 0.3027(8) 0.5477(3)
H45_4 H 0.303546 0.333340 0.529698
C72_4 C 0.4062(5) 0.1632(12) 0.7504(5)
H48_4 H 0.387446 0.147312 0.766601
I11_4 I 0.1033(2) 0.4839(5) 0.3514(2)
Zn6_4 Zn 0.1228(2) 0.3480(7) 0.3161(3)
I12_4 I 0.14110(17) 0.3382(5) 0.2406(3)
I4_4 I 0.3793(3) 0.9166(6) 0.05081(19)
N3_4 N 0.8765(2) 0.6931(6) 0.1100(3)
C2_4 C 0.9048(3) 0.8335(10) 0.2505(3)
H1_4 H 0.885390 0.848464 0.266013
C6_4 C 0.8074(3) 0.8395(8) 0.0060(3)
H4_4 H 0.858269 0.990941 0.340365
C10_4 C 0.8454(3) 0.6549(9) 0.0833(3)
H6_4 H 0.839231 0.594029 0.088779
C11_4 C 0.8225(3) 0.6981(8) 0.0491(3)
H7_4 H 0.801308 0.667870 0.031045
N14_4 N 0.9265(3) 0.7333(6) 0.2020(3)
N15_4 N 0.8167(2) 0.9274(6) 0.0039(3)
N16_4 N 0.9216(2) 0.9733(7) 0.3130(3)
C14_4 C 0.9382(3) 0.8870(7) 0.2549(3)
C15_4 C 0.9591(3) 0.7857(8) 0.2068(3)
H8_4 H 0.978036 0.769694 0.190924
C18_4 C 0.8855(3) 0.7754(9) 0.1015(4)
H10_4 H 0.908095 0.801804 0.118921
C29_4 C 0.8309(3) 0.7875(7) 0.0415(3)
C30_4 C 0.9441(3) 0.9658(8) 0.2838(3)
C34_4 C 0.9656(3) 0.8574(8) 0.2323(3)
H17_4 H 0.989353 0.889272 0.235313
C41_4 C 0.9003(4) 0.7590(10) 0.2236(4)
H22_4 H 0.877114 0.724568 0.220396
C51_4 C 0.8632(3) 0.8276(9) 0.0675(4)
H31_4 H 0.870105 0.888307 0.062675
I9_4 I 0.97148(15) 0.5894(6) 0.1282(2)
Zn5_4 Zn 0.9132(4) 0.6319(11) 0.1600(5)
I10_4 I 0.8753(3) 0.5164(5) 0.1971(3)
loop_
_geom_bond_atom_site_label_1
_geom_bond_atom_site_label_2
_geom_bond_site_symmetry_1
_geom_bond_site_symmetry_2
N1 C1 1_555 1_555
C1 N12 1_555 1_555
N12 C56 1_555 1_555
C13 C1 1_555 1_555
N17 C33 1_555 1_555
N19 C26 1_555 1_555
C26 H15 1_555 1_555
C33 H16 1_555 1_555
C37 C13 1_555 1_555
H20 C37 1_555 1_555
C47 C13 1_555 1_555
H27 C47 1_555 1_555
C49 C26 1_555 1_555
H29 C49 1_555 1_555
C64 N17 1_555 1_555
H41 C64 1_555 1_555
Zn7 N19 1_555 1_555
Zn8 N17 1_555 1_555
C28 C49 1_555 1_555
C28 C56 1_555 1_555
C33 C47 1_555 1_555
C37 C64 1_555 1_555
I1 Zn4 1_555 1_555
I2 Zn4 1_555 1_555
I3 Zn1 1_555 1_555
I7 Zn3 1_555 1_555
I8 Zn3 1_555 1_555
Zn1 N21 1_555 1_555
Zn3 N18 1_555 1_555
Zn4 N8 1_555 1_555
N2 C22 1_555 1_555
N3 C10 1_555 1_555
C2 H1 1_555 1_555
N4 C16 1_555 1_555
N5 C7 1_555 1_555
N6 C66 1_555 1_555
C3 H2 1_555 1_555
N7 C5 1_555 1_555
N8 C9 1_555 1_555
N9 C12 1_555 1_555
C4 C8 1_555 1_555
C5 H3 1_555 1_555
N10 C7 1_555 1_555
C7 C27 1_555 1_555
C8 H4 1_555 1_555
C9 H5 1_555 1_555
C10 H6 1_555 1_555
C11 C10 1_555 1_555
H7 C11 1_555 1_555
N13 C30 1_555 1_555
N14 C15 1_555 1_555
N15 C6 1_555 1_555
N16 C22 1_555 1_555
C14 C2 1_555 1_555
C15 H8 1_555 1_555
C16 N9 1_555 1_555
C17 C3 1_555 1_555
H9 C17 1_555 1_555
C18 N3 1_555 1_555
H10 C18 1_555 1_555
C19 H11 1_555 1_555
C20 N4 1_555 1_555
N18 C55 1_555 1_555
C21 C35 1_555 1_555
C22 C4 1_555 1_555
C23 H12 1_555 1_555
C24 H13 1_555 1_555
C25 C9 1_555 1_555
H14 C25 1_555 1_555
N20 C45 1_555 1_555
C27 C24 1_555 1_555
C29 C6 1_555 1_555
C30 N16 1_555 1_555
C31 C50 1_555 1_555
C32 C19 1_555 1_555
C34 C14 1_555 1_555
H17 C34 1_555 1_555
C35 H18 1_555 1_555
N21 C3 1_555 1_555
C36 N21 1_555 1_555
H19 C36 1_555 1_555
N22 C52 1_555 1_555
C38 C5 1_555 1_555
H21 C38 1_555 1_555
C40 C16 1_555 1_555
C41 C2 1_555 1_555
H22 C41 1_555 1_555
N23 C12 1_555 1_555
C43 N7 1_555 1_555
H24 C43 1_555 1_555
C44 N2 1_555 1_555
C45 C35 1_555 1_555
H25 C45 1_555 1_555
C46 H26 1_555 1_555
C48 C21 1_555 1_555
H28 C48 1_555 1_555
C50 H30 1_555 1_555
C51 C18 1_555 1_555
H31 C51 1_555 1_555
C52 N10 1_555 1_555
C55 H34 1_555 1_555
C57 N20 1_555 1_555
H35 C57 1_555 1_555
C58 N18 1_555 1_555
H36 C58 1_555 1_555
N24 Zn3 1_555 1_555
C59 N24 1_555 1_555
H37 C59 1_555 1_555
C60 C17 1_555 1_555
C61 C4 1_555 1_555
H38 C61 1_555 1_555
H39 C62 1_555 1_555
C63 C50 1_555 1_555
H40 C63 1_555 1_555
C65 N5 1_555 1_555
C66 C61 1_555 1_555
H42 C66 1_555 1_555
C67 C36 1_555 1_555
H43 C67 1_555 1_555
C68 N8 1_555 1_555
H44 C68 1_555 1_555
C69 C31 1_555 1_555
H45 C69 1_555 1_555
C71 N6 1_555 1_555
H47 C71 1_555 1_555
C72 C40 1_555 1_555
H48 C72 1_555 1_555
I9 Zn5 1_555 1_555
Zn5 N3 1_555 1_555
I10 Zn5 1_555 1_555
I11 Zn6 1_555 1_555
Zn6 N7 1_555 1_555
I12 Zn6 1_555 1_555
Zn9 N6 1_555 1_555
N25 Zn4 1_555 1_555
N27 Zn1 1_555 1_555
C8 C71 1_555 1_555
C11 C29 1_555 1_555
N13 C44 1_555 1_555
N14 C41 1_555 1_555
N14 Zn5 1_555 1_555
C14 C30 1_555 1_555
C15 C34 1_555 1_555
C19 C43 1_555 1_555
C20 N23 1_555 1_555
C20 C60 1_555 1_555
C21 C44 1_555 1_555
C23 C40 1_555 1_555
C23 C58 1_555 1_555
C24 C68 1_555 1_555
C25 C27 1_555 1_555
N20 Zn6 1_555 1_555
C29 C51 1_555 1_555
C31 C52 1_555 1_555
C32 C38 1_555 1_555
C32 C65 1_555 1_555
N22 C65 1_555 1_555
C46 C62 1_555 1_555
C48 C57 1_555 1_555
C55 C72 1_555 1_555
N24 C63 1_555 1_555
C59 C69 1_555 1_555
C60 C67 1_555 1_555
I5 Zn8 1_555 1_555
I6 Zn8 1_555 1_555
Zn8 N11 1_555 1_555
N11 C42 1_555 1_555
C39 C54 1_555 1_555
C42 H23 1_555 1_555
C53 N11 1_555 1_555
H32 C53 1_555 1_555
C54 C42 1_555 1_555
H33 C54 1_555 1_555
C70 C39 1_555 1_555
H46 C70 1_555 1_555
C53 C70 1_555 1_555
N27 C26_2 1_555 1_555
C26_2 H15_2 1_555 1_555
C49_2 C26_2 1_555 1_555
H29_2 C49_2 1_555 1_555
C28_2 C49_2 1_555 1_555
N2_2 C22_2 1_555 1_555
N25 C66_2 1_555 1_555
C4_2 C8_2 1_555 1_555
C22_2 C4_2 1_555 1_555
C44_2 N2_2 1_555 1_555
C46_2 H26_2 1_555 1_555
C61_2 C4_2 1_555 1_555
H38_2 C61_2 1_555 1_555
H39_2 C62_2 1_555 1_555
C66_2 C61_2 1_555 1_555
H42_2 C66_2 1_555 1_555
C71_2 N25 1_555 1_555
H47_2 C71_2 1_555 1_555
C8_2 C71_2 1_555 1_555
N13_2 C44_2 1_555 1_555
C46_2 C62_2 1_555 1_555
N1_2 C1_2 1_555 1_555
C1_2 N12_2 1_555 1_555
N12_2 C56_2 1_555 1_555
C13_2 C1_2 1_555 1_555
N17_2 C33_2 1_555 1_555
C33_2 H16_2 1_555 1_555
C37_2 C13_2 1_555 1_555
H20_2 C37_2 1_555 1_555
C47_2 C13_2 1_555 1_555
H27_2 C47_2 1_555 1_555
C64_2 N17_2 1_555 1_555
H41_2 C64_2 1_555 1_555
Zn8_2 N17_2 1_555 1_555
C33_2 C47_2 1_555 1_555
C37_2 C64_2 1_555 1_555
I1_2 Zn9 1_555 1_555
I2_2 Zn9 1_555 1_555
I3_2 Zn7 1_555 1_555
I5_2 Zn8_2 1_555 1_555
I6_2 Zn8_2 1_555 1_555
Zn7 N21_2 1_555 1_555
Zn8_2 N11_2 1_555 1_555
Zn9 N8_2 1_555 1_555
C3_2 H2_2 1_555 1_555
N8_2 C9_2 1_555 1_555
N9_2 C12_2 1_555 1_555
C9_2 H5_2 1_555 1_555
N11_2 C42_2 1_555 1_555
C12_2 C39_2 1_555 1_555
C17_2 C3_2 1_555 1_555
H9_2 C17_2 1_555 1_555
C24_2 H13_2 1_555 1_555
C25_2 C9_2 1_555 1_555
H14_2 C25_2 1_555 1_555
C27_2 C24_2 1_555 1_555
N21_2 C3_2 1_555 1_555
C36_2 N21_2 1_555 1_555
H19_2 C36_2 1_555 1_555
C39_2 C54_2 1_555 1_555
C42_2 H23_2 1_555 1_555
N23_2 C12_2 1_555 1_555
C53_2 N11_2 1_555 1_555
H32_2 C53_2 1_555 1_555
C54_2 C42_2 1_555 1_555
H33_2 C54_2 1_555 1_555
C60_2 C17_2 1_555 1_555
C67_2 C36_2 1_555 1_555
C68_2 N8_2 1_555 1_555
H44_2 C68_2 1_555 1_555
C70_2 C39_2 1_555 1_555
H46_2 C70_2 1_555 1_555
C20_2 N23_2 1_555 1_555
C20_2 C60_2 1_555 1_555
C24_2 C68_2 1_555 1_555
C25_2 C27_2 1_555 1_555
C53_2 C70_2 1_555 1_555
C60_2 C67_2 1_555 1_555
I5_3 Zn2 1_555 1_555
I6_3 Zn2 1_555 1_555
Zn2 N11_3 1_555 1_555
N11_3 C42_3 1_555 1_555
C39_3 C54_3 1_555 1_555
C42_3 H23_3 1_555 1_555
C53_3 N11_3 1_555 1_555
H32_3 C53_3 1_555 1_555
C54_3 C42_3 1_555 1_555
H33_3 C54_3 1_555 1_555
C70_3 C39_3 1_555 1_555
H46_3 C70_3 1_555 1_555
N26 Zn2 1_555 1_555
C53_3 C70_3 1_555 1_555
I1_3 Zn4_2 1_555 1_555
I2_3 Zn4_2 1_555 1_555
I3_3 Zn1_2 1_555 1_555
I7_2 Zn3_2 1_555 1_555
I8_2 Zn3_2 1_555 1_555
Zn1_2 N21_3 1_555 1_555
Zn3_2 N18_2 1_555 1_555
Zn4_2 N8_3 1_555 1_555
N2_3 C22_3 1_555 1_555
N3_2 C10_2 1_555 1_555
C2_2 H1_2 1_555 1_555
N4_2 C16_2 1_555 1_555
N5_2 C7_2 1_555 1_555
N6_2 C66_3 1_555 1_555
C3_3 H2_3 1_555 1_555
N7_2 C5_2 1_555 1_555
N8_3 C9_3 1_555 1_555
N9_3 C12_3 1_555 1_555
C4_3 C8_3 1_555 1_555
C5_2 H3_2 1_555 1_555
N10_2 C7_2 1_555 1_555
C7_2 C27_3 1_555 1_555
C8_3 H4_2 1_555 1_555
C9_3 H5_3 1_555 1_555
C10_2 H6_2 1_555 1_555
C11_2 C10_2 1_555 1_555
H7_2 C11_2 1_555 1_555
N13_3 C30_2 1_555 1_555
N14_2 C15_2 1_555 1_555
N15_2 C6_2 1_555 1_555
N16_2 C22_3 1_555 1_555
C14_2 C2_2 1_555 1_555
C15_2 H8_2 1_555 1_555
C16_2 N9_3 1_555 1_555
C17_3 C3_3 1_555 1_555
H9_3 C17_3 1_555 1_555
C18_2 N3_2 1_555 1_555
H10_2 C18_2 1_555 1_555
C19_2 H11_2 1_555 1_555
C20_3 N4_2 1_555 1_555
N18_2 C55_2 1_555 1_555
C21_2 C35_2 1_555 1_555
C22_3 C4_3 1_555 1_555
C23_2 H12_2 1_555 1_555
C24_3 H13_3 1_555 1_555
C25_3 C9_3 1_555 1_555
H14_3 C25_3 1_555 1_555
N20_2 C45_2 1_555 1_555
C27_3 C24_3 1_555 1_555
C29_2 C6_2 1_555 1_555
C30_2 N16_2 1_555 1_555
C31_2 C50_2 1_555 1_555
C32_2 C19_2 1_555 1_555
C34_2 C14_2 1_555 1_555
H17_2 C34_2 1_555 1_555
C35_2 H18_2 1_555 1_555
N21_3 C3_3 1_555 1_555
C36_3 N21_3 1_555 1_555
H19_3 C36_3 1_555 1_555
N22_2 C52_2 1_555 1_555
C38_2 C5_2 1_555 1_555
H21_2 C38_2 1_555 1_555
C40_2 C16_2 1_555 1_555
C41_2 C2_2 1_555 1_555
H22_2 C41_2 1_555 1_555
N23_3 C12_3 1_555 1_555
C43_2 N7_2 1_555 1_555
H24_2 C43_2 1_555 1_555
C44_3 N2_3 1_555 1_555
C45_2 C35_2 1_555 1_555
H25_2 C45_2 1_555 1_555
C46_3 H26_3 1_555 1_555
C48_2 C21_2 1_555 1_555
H28_2 C48_2 1_555 1_555
C50_2 H30_2 1_555 1_555
C51_2 C18_2 1_555 1_555
H31_2 C51_2 1_555 1_555
C52_2 N10_2 1_555 1_555
C55_2 H34_2 1_555 1_555
C57_2 N20_2 1_555 1_555
H35_2 C57_2 1_555 1_555
C58_2 N18_2 1_555 1_555
H36_2 C58_2 1_555 1_555
N24_2 Zn3_2 1_555 1_555
C59_2 N24_2 1_555 1_555
H37_2 C59_2 1_555 1_555
C60_3 C17_3 1_555 1_555
C61_3 C4_3 1_555 1_555
H38_3 C61_3 1_555 1_555
H39_3 C62_3 1_555 1_555
C63_2 C50_2 1_555 1_555
H40_2 C63_2 1_555 1_555
C65_2 N5_2 1_555 1_555
C66_3 C61_3 1_555 1_555
H42_3 C66_3 1_555 1_555
C67_3 C36_3 1_555 1_555
H43_2 C67_3 1_555 1_555
C68_3 N8_3 1_555 1_555
H44_3 C68_3 1_555 1_555
C69_2 C31_2 1_555 1_555
H45_2 C69_2 1_555 1_555
C71_3 N6_2 1_555 1_555
H47_3 C71_3 1_555 1_555
C72_2 C40_2 1_555 1_555
H48_2 C72_2 1_555 1_555
I9_2 Zn5_2 1_555 1_555
Zn5_2 N3_2 1_555 1_555
I10_2 Zn5_2 1_555 1_555
I11_2 Zn6_2 1_555 1_555
Zn6_2 N7_2 1_555 1_555
I12_2 Zn6_2 1_555 1_555
Zn9_2 N6_2 1_555 1_555
N25_2 Zn4_2 1_555 1_555
N27_2 Zn1_2 1_555 1_555
C8_3 C71_3 1_555 1_555
C11_2 C29_2 1_555 1_555
N13_3 C44_3 1_555 1_555
N14_2 C41_2 1_555 1_555
N14_2 Zn5_2 1_555 1_555
C14_2 C30_2 1_555 1_555
C15_2 C34_2 1_555 1_555
C19_2 C43_2 1_555 1_555
C20_3 N23_3 1_555 1_555
C20_3 C60_3 1_555 1_555
C21_2 C44_3 1_555 1_555
C23_2 C40_2 1_555 1_555
C23_2 C58_2 1_555 1_555
C24_3 C68_3 1_555 1_555
C25_3 C27_3 1_555 1_555
N20_2 Zn6_2 1_555 1_555
C29_2 C51_2 1_555 1_555
C31_2 C52_2 1_555 1_555
C32_2 C38_2 1_555 1_555
C32_2 C65_2 1_555 1_555
N22_2 C65_2 1_555 1_555
C46_3 C62_3 1_555 1_555
C48_2 C57_2 1_555 1_555
C55_2 C72_2 1_555 1_555
N24_2 C63_2 1_555 1_555
C59_2 C69_2 1_555 1_555
C60_3 C67_3 1_555 1_555
N1_3 C1_3 1_555 1_555
C1_3 N12_3 1_555 1_555
N12_3 C56_3 1_555 1_555
C13_3 C1_3 1_555 1_555
N26 C33_3 1_555 1_555
N19_2 C26_3 1_555 1_555
C26_3 H15_3 1_555 1_555
C33_3 H16_3 1_555 1_555
C37_3 C13_3 1_555 1_555
H20_3 C37_3 1_555 1_555
C47_3 C13_3 1_555 1_555
H27_3 C47_3 1_555 1_555
C49_3 C26_3 1_555 1_555
H29_3 C49_3 1_555 1_555
C64_3 N26 1_555 1_555
H41_3 C64_3 1_555 1_555
Zn7_2 N19_2 1_555 1_555
C28_3 C49_3 1_555 1_555
C28_3 C56_3 1_555 1_555
C33_3 C47_3 1_555 1_555
C37_3 C64_3 1_555 1_555
I1_4 Zn9_2 1_555 1_555
I2_4 Zn9_2 1_555 1_555
I3_4 Zn7_2 1_555 1_555
I5_4 Zn2_2 1_555 1_555
I6_4 Zn2_2 1_555 1_555
Zn7_2 N21_4 1_555 1_555
Zn2_2 N11_4 1_555 1_555
Zn9_2 N8_4 1_555 1_555
C3_4 H2_4 1_555 1_555
N8_4 C9_4 1_555 1_555
N9_4 C12_4 1_555 1_555
C9_4 H5_4 1_555 1_555
N11_4 C42_4 1_555 1_555
C12_4 C39_4 1_555 1_555
C17_4 C3_4 1_555 1_555
H9_4 C17_4 1_555 1_555
C24_4 H13_4 1_555 1_555
C25_4 C9_4 1_555 1_555
H14_4 C25_4 1_555 1_555
C27_4 C24_4 1_555 1_555
N21_4 C3_4 1_555 1_555
C36_4 N21_4 1_555 1_555
H19_4 C36_4 1_555 1_555
C39_4 C54_4 1_555 1_555
C42_4 H23_4 1_555 1_555
N23_4 C12_4 1_555 1_555
C53_4 N11_4 1_555 1_555
H32_4 C53_4 1_555 1_555
C54_4 C42_4 1_555 1_555
H33_4 C54_4 1_555 1_555
C60_4 C17_4 1_555 1_555
C67_4 C36_4 1_555 1_555
C68_4 N8_4 1_555 1_555
H44_4 C68_4 1_555 1_555
C70_4 C39_4 1_555 1_555
H46_4 C70_4 1_555 1_555
N26_2 Zn2_2 1_555 1_555
C20_4 N23_4 1_555 1_555
C20_4 C60_4 1_555 1_555
C24_4 C68_4 1_555 1_555
C25_4 C27_4 1_555 1_555
C53_4 C70_4 1_555 1_555
C60_4 C67_4 1_555 1_555
N2_4 C22_4 1_555 1_555
N25_2 C66_4 1_555 1_555
C4_4 C8_4 1_555 1_555
C22_4 C4_4 1_555 1_555
C44_4 N2_4 1_555 1_555
C46_4 H26_4 1_555 1_555
C61_4 C4_4 1_555 1_555
H38_4 C61_4 1_555 1_555
H39_4 C62_4 1_555 1_555
C66_4 C61_4 1_555 1_555
H42_4 C66_4 1_555 1_555
C71_4 N25_2 1_555 1_555
H47_4 C71_4 1_555 1_555
C8_4 C71_4 1_555 1_555
N13_4 C44_4 1_555 1_555
C46_4 C62_4 1_555 1_555
N27_2 C26_4 1_555 1_555
C26_4 H15_4 1_555 1_555
C49_4 C26_4 1_555 1_555
H29_4 C49_4 1_555 1_555
C28_4 C49_4 1_555 1_555
N1_4 C1_4 1_555 1_555
C1_4 N12_4 1_555 1_555
N12_4 C56_4 1_555 1_555
C13_4 C1_4 1_555 1_555
N26_2 C33_4 1_555 1_555
C33_4 H16_4 1_555 1_555
C37_4 C13_4 1_555 1_555
H20_4 C37_4 1_555 1_555
C47_4 C13_4 1_555 1_555
H27_4 C47_4 1_555 1_555
C64_4 N26_2 1_555 1_555
H41_4 C64_4 1_555 1_555
C33_4 C47_4 1_555 1_555
C37_4 C64_4 1_555 1_555
N3_3 C10_3 1_555 1_555
C2_3 H1_3 1_555 1_555
C10_3 H6_3 1_555 1_555
C11_3 C10_3 1_555 1_555
H7_3 C11_3 1_555 1_555
N14_3 C15_3 1_555 1_555
N15_3 C6_3 1_555 1_555
C14_3 C2_3 1_555 1_555
C15_3 H8_3 1_555 1_555
C18_3 N3_3 1_555 1_555
H10_3 C18_3 1_555 1_555
C29_3 C6_3 1_555 1_555
C30_3 N16_3 1_555 1_555
C34_3 C14_3 1_555 1_555
H17_3 C34_3 1_555 1_555
C41_3 C2_3 1_555 1_555
H22_3 C41_3 1_555 1_555
C51_3 C18_3 1_555 1_555
H31_3 C51_3 1_555 1_555
I9_3 Zn5_3 1_555 1_555
Zn5_3 N3_3 1_555 1_555
I10_3 Zn5_3 1_555 1_555
C11_3 C29_3 1_555 1_555
N14_3 C41_3 1_555 1_555
N14_3 Zn5_3 1_555 1_555
C14_3 C30_3 1_555 1_555
C15_3 C34_3 1_555 1_555
C29_3 C51_3 1_555 1_555
I7_3 Zn3_3 1_555 1_555
I8_3 Zn3_3 1_555 1_555
Zn3_3 N18_3 1_555 1_555
N4_3 C16_3 1_555 1_555
N5_3 C7_3 1_555 1_555
N7_3 C5_3 1_555 1_555
C5_3 H3_3 1_555 1_555
N10_3 C7_3 1_555 1_555
C19_3 H11_3 1_555 1_555
N18_3 C55_3 1_555 1_555
C21_3 C35_3 1_555 1_555
C23_3 H12_3 1_555 1_555
N20_3 C45_3 1_555 1_555
C31_3 C50_3 1_555 1_555
C32_3 C19_3 1_555 1_555
C35_3 H18_3 1_555 1_555
N22_3 C52_3 1_555 1_555
C38_3 C5_3 1_555 1_555
H21_3 C38_3 1_555 1_555
C40_3 C16_3 1_555 1_555
C43_3 N7_3 1_555 1_555
H24_3 C43_3 1_555 1_555
C45_3 C35_3 1_555 1_555
H25_3 C45_3 1_555 1_555
C48_3 C21_3 1_555 1_555
H28_3 C48_3 1_555 1_555
C50_3 H30_3 1_555 1_555
C52_3 N10_3 1_555 1_555
C55_3 H34_3 1_555 1_555
C57_3 N20_3 1_555 1_555
H35_3 C57_3 1_555 1_555
C58_3 N18_3 1_555 1_555
H36_3 C58_3 1_555 1_555
N24_3 Zn3_3 1_555 1_555
C59_3 N24_3 1_555 1_555
H37_3 C59_3 1_555 1_555
C63_3 C50_3 1_555 1_555
H40_3 C63_3 1_555 1_555
C65_3 N5_3 1_555 1_555
C69_3 C31_3 1_555 1_555
H45_3 C69_3 1_555 1_555
C72_3 C40_3 1_555 1_555
H48_3 C72_3 1_555 1_555
I11_3 Zn6_3 1_555 1_555
Zn6_3 N7_3 1_555 1_555
I12_3 Zn6_3 1_555 1_555
C19_3 C43_3 1_555 1_555
C23_3 C40_3 1_555 1_555
C23_3 C58_3 1_555 1_555
N20_3 Zn6_3 1_555 1_555
C31_3 C52_3 1_555 1_555
C32_3 C38_3 1_555 1_555
C32_3 C65_3 1_555 1_555
N22_3 C65_3 1_555 1_555
C48_3 C57_3 1_555 1_555
C55_3 C72_3 1_555 1_555
N24_3 C63_3 1_555 1_555
C59_3 C69_3 1_555 1_555
I7_4 Zn3_4 1_555 1_555
I8_4 Zn3_4 1_555 1_555
Zn3_4 N18_4 1_555 1_555
N4_4 C16_4 1_555 1_555
N5_4 C7_4 1_555 1_555
N7_4 C5_4 1_555 1_555
C5_4 H3_4 1_555 1_555
N10_4 C7_4 1_555 1_555
C19_4 H11_4 1_555 1_555
N18_4 C55_4 1_555 1_555
C21_4 C35_4 1_555 1_555
C23_4 H12_4 1_555 1_555
N20_4 C45_4 1_555 1_555
C31_4 C50_4 1_555 1_555
C32_4 C19_4 1_555 1_555
C35_4 H18_4 1_555 1_555
N22_4 C52_4 1_555 1_555
C38_4 C5_4 1_555 1_555
H21_4 C38_4 1_555 1_555
C40_4 C16_4 1_555 1_555
C43_4 N7_4 1_555 1_555
H24_4 C43_4 1_555 1_555
C45_4 C35_4 1_555 1_555
H25_4 C45_4 1_555 1_555
C48_4 C21_4 1_555 1_555
H28_4 C48_4 1_555 1_555
C50_4 H30_4 1_555 1_555
C52_4 N10_4 1_555 1_555
C55_4 H34_4 1_555 1_555
C57_4 N20_4 1_555 1_555
H35_4 C57_4 1_555 1_555
C58_4 N18_4 1_555 1_555
H36_4 C58_4 1_555 1_555
N24_4 Zn3_4 1_555 1_555
C59_4 N24_4 1_555 1_555
H37_4 C59_4 1_555 1_555
C63_4 C50_4 1_555 1_555
H40_4 C63_4 1_555 1_555
C65_4 N5_4 1_555 1_555
C69_4 C31_4 1_555 1_555
H45_4 C69_4 1_555 1_555
C72_4 C40_4 1_555 1_555
H48_4 C72_4 1_555 1_555
I11_4 Zn6_4 1_555 1_555
Zn6_4 N7_4 1_555 1_555
I12_4 Zn6_4 1_555 1_555
C19_4 C43_4 1_555 1_555
C23_4 C40_4 1_555 1_555
C23_4 C58_4 1_555 1_555
N20_4 Zn6_4 1_555 1_555
C31_4 C52_4 1_555 1_555
C32_4 C38_4 1_555 1_555
C32_4 C65_4 1_555 1_555
N22_4 C65_4 1_555 1_555
C48_4 C57_4 1_555 1_555
C55_4 C72_4 1_555 1_555
N24_4 C63_4 1_555 1_555
C59_4 C69_4 1_555 1_555
N3_4 C10_4 1_555 1_555
C2_4 H1_4 1_555 1_555
C10_4 H6_4 1_555 1_555
C11_4 C10_4 1_555 1_555
H7_4 C11_4 1_555 1_555
N14_4 C15_4 1_555 1_555
N15_4 C6_4 1_555 1_555
C14_4 C2_4 1_555 1_555
C15_4 H8_4 1_555 1_555
C18_4 N3_4 1_555 1_555
H10_4 C18_4 1_555 1_555
C29_4 C6_4 1_555 1_555
C30_4 N16_4 1_555 1_555
C34_4 C14_4 1_555 1_555
H17_4 C34_4 1_555 1_555
C41_4 C2_4 1_555 1_555
H22_4 C41_4 1_555 1_555
C51_4 C18_4 1_555 1_555
H31_4 C51_4 1_555 1_555
I9_4 Zn5_4 1_555 1_555
Zn5_4 N3_4 1_555 1_555
I10_4 Zn5_4 1_555 1_555
C11_4 C29_4 1_555 1_555
N14_4 C41_4 1_555 1_555
N14_4 Zn5_4 1_555 1_555
C14_4 C30_4 1_555 1_555
C15_4 C34_4 1_555 1_555
C29_4 C51_4 1_555 1_555

#END
