
###############################################################################
#
# This file contains modified crystal structure data generated from the
# MOF subset of the Cambridge Structural Database (CSD) v543 
# hosted by the Cambridge Crystallographic Data Centre (CCDC).
#
# This work is licensed under the Creative Commons
# Attribution-NonCommercial-ShareAlike 4.0 International License.
# To view a copy of this license, visit
# http://creativecommons.org/licenses/by-nc-sa/4.0/
# or send a letter to
# Creative Commons, PO Box 1866, Mountain View, CA 94042, USA.
#
# CIF created using the CSD Python API on 29 September 2022
# The structure has been converted into the P1 space group
# The structure has a 3D framework
# The original CSD entry QEDJIW is in the monoclinic crystal system
# The original CSD entry QEDJIW is in a Sohncke space group
# The framework has been calculated to contain at least 10.0% void space
# The void calculation uses a probe of radius 1.32A, grid spacing 0.4
#
###############################################################################

data_QEDJIW
_chemical_formula_moiety         '(C288 H192 I48 N90 Zn24)n'
_symmetry_cell_setting           triclinic
_symmetry_space_group_name_H-M   'P 1'
_symmetry_Int_Tables_number      1
_space_group_name_Hall           'P 1'
loop_
_symmetry_equiv_pos_site_id
_symmetry_equiv_pos_as_xyz
1 x,y,z
_cell_length_a                   35.1922(7)
_cell_length_b                   14.8271(2)
_cell_length_c                   31.5323(6)
_cell_angle_alpha                90
_cell_angle_beta                 102.310(2)
_cell_angle_gamma                90
_cell_volume                     16075.2
loop_
_atom_site_label
_atom_site_type_symbol
_atom_site_fract_x
_atom_site_fract_y
_atom_site_fract_z
N10 N 0.0787(4) 0.4908(10) 0.8100(4)
C44 C 0.0152(4) 0.6001(10) 0.8075(5)
C49 C 0.0634(4) 0.5406(12) 0.7749(5)
H26 H 0.074889 0.536436 0.750326
C64 C 0.0327(4) 0.5961(13) 0.7725(6)
H40 H 0.023365 0.631504 0.747284
C70 C 0.0664(7) 0.5020(18) 0.8445(6)
H46 H 0.079633 0.475481 0.871000
C72 C 0.0333(8) 0.554(2) 0.8430(7)
H48 H 0.022732 0.557139 0.868282
Zn7 Zn 0.12640(6) 0.40633(15) 0.81286(7)
I2 I 0.76806(4) 0.73450(8) 0.95252(5)
I6 I 0.2673(3) 0.7644(6) 0.4560(2)
I10 I 0.3749(3) 0.8349(6) 0.5533(3)
Zn3 Zn 0.83024(7) 0.64544(14) 0.97855(8)
Zn5 Zn 0.32567(8) 0.85596(15) 0.47804(8)
N1 N 0.8189(3) 0.8252(8) 0.5002(4)
N3 N 0.9745(3) 0.7228(8) 0.7767(4)
N4 N 0.7660(3) 0.8113(8) 0.4401(4)
N5 N 0.7787(4) 0.0511(8) 0.9797(4)
N6 N 0.8157(4) 0.5096(9) 0.9762(5)
N7 N 0.4580(4) 0.8538(8) 0.3401(4)
N8 N 0.4211(4) 0.7271(9) 0.3132(4)
C1 C 0.7858(5) 0.4757(11) 0.9463(6)
H1 H 0.769536 0.515835 0.927014
N11 N 0.3587(4) 0.8381(9) 0.4316(5)
C2 C 0.7578(4) 0.1033(10) 0.9479(5)
C3 C 0.7271(4) 0.9438(10) 0.4144(4)
C4 C 0.9811(4) 0.6600(10) 0.8062(5)
N13 N 0.9231(3) 0.7731(8) 0.8110(4)
C6 C 0.7956(4) 0.7777(10) 0.4688(5)
N14 N 0.7646(4) 0.1912(8) 0.9432(4)
C8 C 0.4368(4) 0.6355(11) 0.2560(4)
C9 C 0.8327(6) 0.6404(11) 0.4980(6)
H3 H 0.850536 0.678452 0.516592
N15 N 0.9618(4) 0.6420(10) 0.8376(4)
C10 C 0.8320(4) 0.9623(9) 0.5387(5)
C11 C 0.7016(5) 0.1029(10) 0.8856(6)
H4 H 0.703283 0.166603 0.883287
C12 C 0.9454(5) 0.7806(10) 0.7829(5)
C13 C 0.4428(5) 0.7178(10) 0.2846(5)
C14 C 0.3460(6) 0.7922(14) 0.3955(6)
H5 H 0.320537 0.767607 0.390771
C15 C 0.4168(4) 0.8611(14) 0.4095(5)
H6 H 0.441907 0.887866 0.414270
N19 N 0.7790(3) 0.9500(8) 0.4775(4)
N20 N 0.4714(3) 0.7741(9) 0.2803(4)
C16 C 0.4649(4) 0.6087(9) 0.2327(4)
H7 H 0.488196 0.642259 0.234686
N21 N 0.8615(4) 0.6585(9) 0.9305(4)
C17 C 0.7273(5) 0.0583(10) 0.9168(5)
C18 C 0.5118(4) 0.9006(11) 0.3099(5)
C19 C 0.9668(5) 0.8871(11) 0.7292(6)
H8 H 0.989209 0.851081 0.729492
C21 C 0.9311(4) 0.7033(11) 0.8385(5)
C22 C 0.6742(5) 0.9432(11) 0.3534(5)
H10 H 0.659284 0.912458 0.329041
C24 C 0.4294(5) 0.8001(11) 0.3391(6)
C25 C 0.5299(6) 0.9028(13) 0.2767(7)
H12 H 0.519689 0.869603 0.251051
C27 C 0.8027(4) 0.3240(10) 0.9722(5)
C28 C 0.9065(9) 0.915(2) 0.7522(8)
H14 H 0.888968 0.904531 0.770655
C31 C 0.7790(5) 0.6212(11) 0.4411(6)
H17 H 0.758971 0.644492 0.418630
C32 C 0.8086(4) 0.9115(10) 0.5017(5)
C35 C 0.8017(4) 0.6768(10) 0.4691(5)
C36 C 0.9609(5) 0.9666(12) 0.7041(6)
H20 H 0.980750 0.988205 0.690450
C37 C 0.9082(4) 0.6872(9) 0.8694(5)
C38 C 0.9006(7) 0.9853(13) 0.7227(6)
C39 C 0.4040(5) 0.8114(12) 0.3722(5)
C40 C 0.8670(7) 0.9221(13) 0.5625(7)
H22 H 0.875415 0.864304 0.555246
C41 C 0.9396(4) 0.8607(10) 0.7538(5)
C42 C 0.3670(5) 0.7780(14) 0.3650(6)
H23 H 0.356307 0.745639 0.339225
C43 C 0.8734(5) 0.7296(13) 0.8654(5)
H24 H 0.865384 0.771760 0.842533
C45 C 0.7933(4) 0.2250(9) 0.9732(5)
C47 C 0.8376(5) 0.5482(12) 0.4997(6)
H25 H 0.858117 0.523149 0.521039
C48 C 0.7606(4) 0.8994(9) 0.4457(4)
N23 N 0.8150(4) 0.4943(9) 0.4729(5)
C50 C 0.8972(6) 0.6237(13) 0.9352(6)
H27 H 0.906525 0.588090 0.960351
C51 C 0.4780(4) 0.8427(12) 0.3106(5)
C52 C 0.5292(8) 0.946(2) 0.3478(7)
H28 H 0.522859 0.933370 0.374980
C53 C 0.4581(5) 0.5350(10) 0.2077(5)
H29 H 0.476997 0.517864 0.191852
C54 C 0.7783(4) 0.3833(11) 0.9429(5)
H30 H 0.757344 0.360455 0.921477
C55 C 0.6723(6) 0.0553(11) 0.8566(6)
H31 H 0.654576 0.087648 0.834946
C56 C 0.3945(6) 0.8734(17) 0.4401(6)
H32 H 0.404109 0.905751 0.466199
C58 C 0.5656(6) 0.9566(15) 0.2799(7)
H34 H 0.580719 0.951241 0.258406
C60 C 0.8488(6) 0.7121(12) 0.8946(7)
H36 H 0.823471 0.737383 0.889394
C63 C 0.7031(4) 0.8954(11) 0.3804(5)
H39 H 0.706665 0.832743 0.376364
C66 C 0.9218(6) 0.6350(13) 0.9065(7)
H42 H 0.946959 0.608381 0.911865
N24 N 0.4258(4) 0.4835(9) 0.2038(4)
C67 C 0.4038(5) 0.5870(11) 0.2521(5)
H43 H 0.384280 0.605577 0.266926
C68 C 0.3982(6) 0.5079(14) 0.2258(6)
H44 H 0.375330 0.472649 0.223709
C69 C 0.8881(7) 0.9720(12) 0.5969(8)
H45 H 0.911036 0.945905 0.613701
C71 C 0.7852(5) 0.5296(11) 0.4455(6)
H47 H 0.767187 0.490113 0.428004
Zn8 Zn 0.82567(8) 0.35596(15) 0.47804(8)
Zn9 Zn 0.41288(7) 0.37648(15) 0.16091(8)
N26 N 0.3150(4) 0.9943(9) 0.4729(5)
I3 I 0.64740(4) 0.91157(16) 0.74132(5)
I8 I 0.60986(4) 0.76317(8) 0.84880(5)
Zn2 Zn 0.62640(6) 0.90633(15) 0.81286(7)
N17 N 0.6690(3) 0.9696(9) 0.8588(4)
C26 C 0.6923(4) 0.9252(10) 0.8906(5)
H13 H 0.688235 0.862598 0.894152
C33 C 0.7221(5) 0.9680(12) 0.9184(6)
H18 H 0.739497 0.933373 0.939281
N25 N 0.5787(4) 0.9908(10) 0.8100(4)
I4 I 0.37579(6) 0.26528(9) 0.19702(5)
I5 I 0.47153(5) 0.34382(11) 0.12899(5)
C5 C 0.3447(4) 0.4049(11) 0.0846(5)
H2 H 0.337901 0.344698 0.090099
C7 C 0.3087(4) 0.5932(9) 0.0067(4)
N18 N 0.3752(4) 0.4435(9) 0.1115(4)
C20 C 0.3385(5) 0.9521(11) 0.0053(6)
H9 H 0.359292 0.976797 0.026375
C23 C 0.3234(4) 0.4491(11) 0.0498(5)
H11 H 0.302536 0.419447 0.030909
C30 C 0.3839(6) 0.5291(13) 0.1046(6)
H16 H 0.405011 0.557509 0.123732
N22 N 0.3172(3) 0.6805(8) 0.0038(4)
C46 C 0.3325(4) 0.5391(10) 0.0421(5)
C59 C 0.3323(5) 0.8594(12) 0.0052(6)
H35 H 0.347437 0.821489 0.026566
C62 C 0.3626(5) 0.5770(11) 0.0698(5)
H38 H 0.369320 0.637833 0.065474
I3_2 I 0.14740(4) 0.41157(16) 0.74132(5)
I8_2 I 0.10986(4) 0.26317(8) 0.84880(5)
N5_2 N 0.2787(4) 0.5511(8) 0.9797(4)
C1_2 C 0.2858(5) 0.9757(11) 0.9463(6)
C2_2 C 0.2578(4) 0.6033(10) 0.9479(5)
N14_2 N 0.2646(4) 0.6912(8) 0.9432(4)
C11_2 C 0.2016(5) 0.6029(10) 0.8856(6)
H4_2 H 0.203283 0.666603 0.883287
N17_2 N 0.1690(3) 0.4696(9) 0.8588(4)
C17_2 C 0.2273(5) 0.5583(10) 0.9168(5)
C26_2 C 0.1923(4) 0.4252(10) 0.8906(5)
H13_2 H 0.188235 0.362598 0.894152
C27_2 C 0.3027(4) 0.8240(10) 0.9722(5)
C33_2 C 0.2221(5) 0.4680(12) 0.9184(6)
H18_2 H 0.239497 0.433373 0.939281
C45_2 C 0.2933(4) 0.7250(9) 0.9732(5)
C54_2 C 0.2783(4) 0.8833(11) 0.9429(5)
H30_2 H 0.257344 0.860455 0.921477
C55_2 C 0.1723(6) 0.5553(11) 0.8566(6)
H31_2 H 0.154576 0.587648 0.834946
H46_2 H 0.579633 0.975481 0.871000
H47_2 H 0.267187 0.990113 0.428004
I6_2 I 0.7673(3) 0.2644(6) 0.4560(2)
I10_2 I 0.8749(3) 0.3349(6) 0.5533(3)
N7_2 N 0.9580(4) 0.3538(8) 0.3401(4)
N8_2 N 0.9211(4) 0.2271(9) 0.3132(4)
N11_2 N 0.8587(4) 0.3381(9) 0.4316(5)
C8_2 C 0.9368(4) 0.1355(11) 0.2560(4)
C13_2 C 0.9428(5) 0.2178(10) 0.2846(5)
C14_2 C 0.8460(6) 0.2922(14) 0.3955(6)
H5_2 H 0.820537 0.267607 0.390771
C15_2 C 0.9168(4) 0.3611(14) 0.4095(5)
H6_2 H 0.941907 0.387866 0.414270
N20_2 N 0.9714(3) 0.2741(9) 0.2803(4)
C16_2 C 0.9649(4) 0.1087(9) 0.2327(4)
H7_2 H 0.988196 0.142259 0.234686
C24_2 C 0.9294(5) 0.3001(11) 0.3391(6)
C39_2 C 0.9040(5) 0.3114(12) 0.3722(5)
C42_2 C 0.8670(5) 0.2780(14) 0.3650(6)
H23_2 H 0.856307 0.245639 0.339225
C51_2 C 0.9780(4) 0.3427(12) 0.3106(5)
C53_2 C 0.9581(5) 0.0350(10) 0.2077(5)
H29_2 H 0.976997 0.017864 0.191852
C56_2 C 0.8945(6) 0.3734(17) 0.4401(6)
H32_2 H 0.904109 0.405751 0.466199
C67_2 C 0.9038(5) 0.0870(11) 0.2521(5)
H43_2 H 0.884280 0.105577 0.266926
C68_2 C 0.8982(6) 0.0079(14) 0.2258(6)
I1 I 0.60744(4) 0.23923(9) 0.35351(5)
I9 I 0.9709(3) 0.1618(5) 0.6296(4)
I11 I 0.64171(4) 0.09018(10) 0.24240(4)
I12 I 0.8713(5) 0.2259(5) 0.6987(2)
Zn1 Zn 0.62280(6) 0.09661(14) 0.31578(7)
Zn4 Zn 0.91571(9) 0.12067(15) 0.65741(8)
N2 N 0.9278(5) 0.0107(10) 0.6997(5)
N9 N 0.6653(4) 0.0309(9) 0.3589(4)
N12 N 0.8779(5) 0.0558(8) 0.6080(4)
N16 N 0.5763(4) 0.0112(10) 0.3123(4)
C29 C 0.8232(5) 0.0493(11) 0.5487(5)
H15 H 0.801170 0.079312 0.531900
C34 C 0.7179(5) 0.0358(10) 0.4207(5)
H19 H 0.732363 0.069207 0.444470
H21 H 0.876708 0.017202 0.718142
C57 C 0.5557(9) 0.011(3) 0.3436(10)
H33 H 0.559940 0.058407 0.364139
C61 C 0.6880(5) 0.0747(11) 0.3920(5)
H37 H 0.682955 0.136867 0.395617
C65 C 0.8467(5) 0.0918(11) 0.5833(5)
H41 H 0.839898 0.151390 0.589904
I7 I 0.87707(5) 0.67267(11) 0.05086(5)
C7_2 C 0.8087(4) 0.0932(9) 0.0067(4)
C20_2 C 0.8385(5) 0.4521(11) 0.0053(6)
H9_2 H 0.859292 0.476797 0.026375
C30_2 C 0.8839(6) 0.0291(13) 0.1046(6)
H16_2 H 0.905011 0.057509 0.123732
N22_2 N 0.8172(3) 0.1805(8) 0.0038(4)
C46_2 C 0.8325(4) 0.0391(10) 0.0421(5)
C59_2 C 0.8323(5) 0.3594(12) 0.0052(6)
H35_2 H 0.847437 0.321489 0.026566
C62_2 C 0.8626(5) 0.0770(11) 0.0698(5)
H38_2 H 0.869320 0.137833 0.065474
I4_2 I 0.87579(6) 0.76528(9) 0.19702(5)
I5_2 I 0.97153(5) 0.84382(11) 0.12899(5)
Zn6 Zn 0.91288(7) 0.87648(15) 0.16091(8)
C5_2 C 0.8447(4) 0.9049(11) 0.0846(5)
H2_2 H 0.837901 0.844698 0.090099
N18_2 N 0.8752(4) 0.9435(9) 0.1115(4)
C23_2 C 0.8234(4) 0.9491(11) 0.0498(5)
H11_2 H 0.802536 0.919447 0.030909
N27 N 0.9258(4) 0.9835(9) 0.2038(4)
H44_2 H 0.875330 0.972649 0.223709
I1_2 I 0.39256(4) 0.23923(9) 0.64649(5)
I9_2 I 0.0291(3) 0.1618(5) 0.3704(4)
I11_2 I 0.35829(4) 0.09018(10) 0.75760(4)
I12_2 I 0.1287(5) 0.2259(5) 0.3013(2)
Zn1_2 Zn 0.37720(6) 0.09661(14) 0.68422(7)
Zn4_2 Zn 0.08429(9) 0.12067(15) 0.34259(8)
N2_2 N 0.0722(5) 0.0107(10) 0.3003(5)
N9_2 N 0.3347(4) 0.0309(9) 0.6411(4)
N12_2 N 0.1221(5) 0.0558(8) 0.3920(4)
N16_2 N 0.4237(4) 0.0112(10) 0.6877(4)
C29_2 C 0.1768(5) 0.0493(11) 0.4513(5)
H15_2 H 0.198830 0.079312 0.468100
C34_2 C 0.2821(5) 0.0358(10) 0.5793(5)
H19_2 H 0.267637 0.069207 0.555530
H21_2 H 0.123292 0.017202 0.281858
C57_2 C 0.4443(9) 0.011(3) 0.6564(10)
H33_2 H 0.440060 0.058407 0.635861
C61_2 C 0.3120(5) 0.0747(11) 0.6080(5)
H37_2 H 0.317045 0.136867 0.604383
C65_2 C 0.1533(5) 0.0918(11) 0.4167(5)
H41_2 H 0.160102 0.151390 0.410096
I2_2 I 0.23194(4) 0.73450(8) 0.04748(5)
I6_3 I 0.7327(3) 0.7644(6) 0.5440(2)
I10_3 I 0.6251(3) 0.8349(6) 0.4467(3)
Zn3_2 Zn 0.16976(7) 0.64544(14) 0.02145(8)
Zn5_2 Zn 0.67433(8) 0.85596(15) 0.52196(8)
N1_2 N 0.1811(3) 0.8252(8) 0.4998(4)
N3_2 N 0.0255(3) 0.7228(8) 0.2233(4)
N4_2 N 0.2340(3) 0.8113(8) 0.5599(4)
N5_3 N 0.2213(4) 0.0511(8) 0.0203(4)
N6_2 N 0.1843(4) 0.5096(9) 0.0238(5)
N7_3 N 0.5420(4) 0.8538(8) 0.6599(4)
N8_3 N 0.5789(4) 0.7271(9) 0.6868(4)
C1_3 C 0.2142(5) 0.4757(11) 0.0537(6)
H1_2 H 0.230464 0.515835 0.072986
N11_3 N 0.6413(4) 0.8381(9) 0.5684(5)
C2_3 C 0.2422(4) 0.1033(10) 0.0521(5)
C3_2 C 0.2729(4) 0.9438(10) 0.5856(4)
C4_2 C 0.0189(4) 0.6600(10) 0.1938(5)
N13_2 N 0.0769(3) 0.7731(8) 0.1890(4)
C6_2 C 0.2044(4) 0.7777(10) 0.5312(5)
N14_3 N 0.2354(4) 0.1912(8) 0.0568(4)
C8_3 C 0.5632(4) 0.6355(11) 0.7440(4)
C9_2 C 0.1673(6) 0.6404(11) 0.5020(6)
H3_2 H 0.149464 0.678452 0.483408
N15_2 N 0.0382(4) 0.6420(10) 0.1624(4)
C10_2 C 0.1680(4) 0.9623(9) 0.4613(5)
C11_3 C 0.2984(5) 0.1029(10) 0.1144(6)
H4_3 H 0.296717 0.166603 0.116713
C12_2 C 0.0546(5) 0.7806(10) 0.2171(5)
C13_3 C 0.5572(5) 0.7178(10) 0.7154(5)
C14_3 C 0.6540(6) 0.7922(14) 0.6045(6)
H5_3 H 0.679463 0.767607 0.609229
C15_3 C 0.5832(4) 0.8611(14) 0.5905(5)
H6_3 H 0.558093 0.887866 0.585730
N19_2 N 0.2210(3) 0.9500(8) 0.5225(4)
N20_3 N 0.5286(3) 0.7741(9) 0.7197(4)
C16_3 C 0.5351(4) 0.6087(9) 0.7673(4)
H7_3 H 0.511804 0.642259 0.765314
N21_2 N 0.1385(4) 0.6585(9) 0.0695(4)
C17_3 C 0.2727(5) 0.0583(10) 0.0832(5)
C18_2 C 0.4882(4) 0.9006(11) 0.6901(5)
C19_2 C 0.0332(5) 0.8871(11) 0.2708(6)
H8_2 H 0.010791 0.851081 0.270508
C21_2 C 0.0689(4) 0.7033(11) 0.1615(5)
C22_2 C 0.3258(5) 0.9432(11) 0.6466(5)
H10_2 H 0.340716 0.912458 0.670959
C24_3 C 0.5706(5) 0.8001(11) 0.6609(6)
C25_2 C 0.4701(6) 0.9028(13) 0.7233(7)
H12_2 H 0.480311 0.869603 0.748949
C27_3 C 0.1973(4) 0.3240(10) 0.0278(5)
C28_2 C 0.0935(9) 0.915(2) 0.2478(8)
H14_2 H 0.111032 0.904531 0.229345
C31_2 C 0.2210(5) 0.6212(11) 0.5589(6)
H17_2 H 0.241029 0.644492 0.581370
C32_2 C 0.1914(4) 0.9115(10) 0.4983(5)
C35_2 C 0.1983(4) 0.6768(10) 0.5309(5)
C36_2 C 0.0391(5) 0.9666(12) 0.2959(6)
H20_2 H 0.019250 0.988205 0.309550
C37_2 C 0.0918(4) 0.6872(9) 0.1306(5)
C38_2 C 0.0994(7) 0.9853(13) 0.2773(6)
C39_3 C 0.5960(5) 0.8114(12) 0.6278(5)
C40_2 C 0.1330(7) 0.9221(13) 0.4375(7)
H22_2 H 0.124585 0.864304 0.444754
C41_2 C 0.0604(4) 0.8607(10) 0.2462(5)
C42_3 C 0.6330(5) 0.7780(14) 0.6350(6)
H23_3 H 0.643693 0.745639 0.660775
C43_2 C 0.1266(5) 0.7296(13) 0.1346(5)
H24_2 H 0.134616 0.771760 0.157467
C45_3 C 0.2067(4) 0.2250(9) 0.0268(5)
C47_2 C 0.1624(5) 0.5482(12) 0.5003(6)
H25_2 H 0.141883 0.523149 0.478961
C48_2 C 0.2394(4) 0.8994(9) 0.5543(4)
N23_2 N 0.1850(4) 0.4943(9) 0.5271(5)
C50_2 C 0.1028(6) 0.6237(13) 0.0648(6)
H27_2 H 0.093475 0.588090 0.039649
C51_3 C 0.5220(4) 0.8427(12) 0.6894(5)
C52_2 C 0.4708(8) 0.946(2) 0.6522(7)
H28_2 H 0.477141 0.933370 0.625020
C53_3 C 0.5419(5) 0.5350(10) 0.7923(5)
H29_3 H 0.523003 0.517864 0.808148
C54_3 C 0.2217(4) 0.3833(11) 0.0571(5)
H30_3 H 0.242656 0.360455 0.078523
C55_3 C 0.3277(6) 0.0553(11) 0.1434(6)
H31_3 H 0.345424 0.087648 0.165054
C56_3 C 0.6055(6) 0.8734(17) 0.5599(6)
H32_3 H 0.595891 0.905751 0.533801
C58_2 C 0.4344(6) 0.9566(15) 0.7201(7)
H34_2 H 0.419281 0.951241 0.741594
C60_2 C 0.1512(6) 0.7121(12) 0.1054(7)
H36_2 H 0.176529 0.737383 0.110606
C63_2 C 0.2969(4) 0.8954(11) 0.6196(5)
H39_2 H 0.293335 0.832743 0.623636
C66_2 C 0.0782(6) 0.6350(13) 0.0935(7)
H42_2 H 0.053041 0.608381 0.088135
N24_2 N 0.5742(4) 0.4835(9) 0.7962(4)
C67_3 C 0.5962(5) 0.5870(11) 0.7479(5)
H43_3 H 0.615720 0.605577 0.733074
C68_3 C 0.6018(6) 0.5079(14) 0.7742(6)
H44_3 H 0.624670 0.472649 0.776291
C69_2 C 0.1119(7) 0.9720(12) 0.4031(8)
H45_2 H 0.088964 0.945905 0.386299
C71_2 C 0.2148(5) 0.5296(11) 0.5545(6)
H47_3 H 0.232813 0.490113 0.571996
Zn8_2 Zn 0.17433(8) 0.35596(15) 0.52196(8)
Zn9_2 Zn 0.58712(7) 0.37648(15) 0.83909(8)
N26_2 N 0.6850(4) 0.9943(9) 0.5271(5)
I3_3 I 0.35260(4) 0.91157(16) 0.25868(5)
I8_3 I 0.39014(4) 0.76317(8) 0.15120(5)
Zn2_2 Zn 0.37360(6) 0.90633(15) 0.18714(7)
N17_3 N 0.3310(3) 0.9696(9) 0.1412(4)
C26_3 C 0.3077(4) 0.9252(10) 0.1094(5)
H13_3 H 0.311765 0.862598 0.105848
C33_3 C 0.2779(5) 0.9680(12) 0.0816(6)
H18_3 H 0.260503 0.933373 0.060719
N25_2 N 0.4213(4) 0.9908(10) 0.1900(4)
N10_2 N 0.9213(4) 0.4908(10) 0.1900(4)
C44_2 C 0.9848(4) 0.6001(10) 0.1925(5)
C49_2 C 0.9366(4) 0.5406(12) 0.2251(5)
H26_2 H 0.925111 0.536436 0.249674
C64_2 C 0.9673(4) 0.5961(13) 0.2275(6)
H40_2 H 0.976635 0.631504 0.252716
C70_2 C 0.9336(7) 0.5020(18) 0.1555(6)
H46_3 H 0.920367 0.475481 0.129000
C72_2 C 0.9667(8) 0.554(2) 0.1570(7)
H48_2 H 0.977268 0.557139 0.131718
Zn7_2 Zn 0.87360(6) 0.40633(15) 0.18714(7)
I6_4 I 0.2327(3) 0.2644(6) 0.5440(2)
I10_4 I 0.1251(3) 0.3349(6) 0.4467(3)
N7_4 N 0.0420(4) 0.3538(8) 0.6599(4)
N8_4 N 0.0789(4) 0.2271(9) 0.6868(4)
N11_4 N 0.1413(4) 0.3381(9) 0.5684(5)
C8_4 C 0.0632(4) 0.1355(11) 0.7440(4)
C13_4 C 0.0572(5) 0.2178(10) 0.7154(5)
C14_4 C 0.1540(6) 0.2922(14) 0.6045(6)
H5_4 H 0.179463 0.267607 0.609229
C15_4 C 0.0832(4) 0.3611(14) 0.5905(5)
H6_4 H 0.058093 0.387866 0.585730
N20_4 N 0.0286(3) 0.2741(9) 0.7197(4)
C16_4 C 0.0351(4) 0.1087(9) 0.7673(4)
H7_4 H 0.011804 0.142259 0.765314
C24_4 C 0.0706(5) 0.3001(11) 0.6609(6)
C39_4 C 0.0960(5) 0.3114(12) 0.6278(5)
C42_4 C 0.1330(5) 0.2780(14) 0.6350(6)
H23_4 H 0.143693 0.245639 0.660775
C51_4 C 0.0220(4) 0.3427(12) 0.6894(5)
C53_4 C 0.0419(5) 0.0350(10) 0.7923(5)
H29_4 H 0.023003 0.017864 0.808148
C56_4 C 0.1055(6) 0.3734(17) 0.5599(6)
H32_4 H 0.095891 0.405751 0.533801
C67_4 C 0.0962(5) 0.0870(11) 0.7479(5)
H43_4 H 0.115720 0.105577 0.733074
C68_4 C 0.1018(6) 0.0079(14) 0.7742(6)
I3_4 I 0.85260(4) 0.41157(16) 0.25868(5)
I8_4 I 0.89014(4) 0.26317(8) 0.15120(5)
N5_4 N 0.7213(4) 0.5511(8) 0.0203(4)
C1_4 C 0.7142(5) 0.9757(11) 0.0537(6)
C2_4 C 0.7422(4) 0.6033(10) 0.0521(5)
N14_4 N 0.7354(4) 0.6912(8) 0.0568(4)
C11_4 C 0.7984(5) 0.6029(10) 0.1144(6)
H4_4 H 0.796717 0.666603 0.116713
N17_4 N 0.8310(3) 0.4696(9) 0.1412(4)
C17_4 C 0.7727(5) 0.5583(10) 0.0832(5)
C26_4 C 0.8077(4) 0.4252(10) 0.1094(5)
H13_4 H 0.811765 0.362598 0.105848
C27_4 C 0.6973(4) 0.8240(10) 0.0278(5)
C33_4 C 0.7779(5) 0.4680(12) 0.0816(6)
H18_4 H 0.760503 0.433373 0.060719
C45_4 C 0.7067(4) 0.7250(9) 0.0268(5)
C54_4 C 0.7217(4) 0.8833(11) 0.0571(5)
H30_4 H 0.742656 0.860455 0.078523
C55_4 C 0.8277(6) 0.5553(11) 0.1434(6)
H31_4 H 0.845424 0.587648 0.165054
H46_4 H 0.420367 0.975481 0.129000
H47_4 H 0.732813 0.990113 0.571996
I4_3 I 0.62421(6) 0.26528(9) 0.80298(5)
I5_3 I 0.52847(5) 0.34382(11) 0.87101(5)
C5_3 C 0.6553(4) 0.4049(11) 0.9154(5)
H2_3 H 0.662099 0.344698 0.909901
C7_3 C 0.6913(4) 0.5932(9) 0.9933(4)
N18_3 N 0.6248(4) 0.4435(9) 0.8885(4)
C20_3 C 0.6615(5) 0.9521(11) 0.9947(6)
H9_3 H 0.640708 0.976797 0.973625
C23_3 C 0.6766(4) 0.4491(11) 0.9502(5)
H11_3 H 0.697464 0.419447 0.969091
C30_3 C 0.6161(6) 0.5291(13) 0.8954(6)
H16_3 H 0.594989 0.557509 0.876268
N22_3 N 0.6828(3) 0.6805(8) 0.9962(4)
C46_3 C 0.6675(4) 0.5391(10) 0.9579(5)
C59_3 C 0.6677(5) 0.8594(12) 0.9948(6)
H35_3 H 0.652563 0.821489 0.973434
C62_3 C 0.6374(5) 0.5770(11) 0.9302(5)
H38_3 H 0.630680 0.637833 0.934526
I7_2 I 0.12293(5) 0.67267(11) 0.94914(5)
C7_4 C 0.1913(4) 0.0932(9) 0.9933(4)
C20_4 C 0.1615(5) 0.4521(11) 0.9947(6)
H9_4 H 0.140708 0.476797 0.973625
C30_4 C 0.1161(6) 0.0291(13) 0.8954(6)
H16_4 H 0.094989 0.057509 0.876268
N22_4 N 0.1828(3) 0.1805(8) 0.9962(4)
C46_4 C 0.1675(4) 0.0391(10) 0.9579(5)
C59_4 C 0.1677(5) 0.3594(12) 0.9948(6)
H35_4 H 0.152563 0.321489 0.973434
C62_4 C 0.1374(5) 0.0770(11) 0.9302(5)
H38_4 H 0.130680 0.137833 0.934526
I4_4 I 0.12421(6) 0.76528(9) 0.80298(5)
I5_4 I 0.02847(5) 0.84382(11) 0.87101(5)
Zn6_2 Zn 0.08712(7) 0.87648(15) 0.83909(8)
C5_4 C 0.1553(4) 0.9049(11) 0.9154(5)
H2_4 H 0.162099 0.844698 0.909901
N18_4 N 0.1248(4) 0.9435(9) 0.8885(4)
C23_4 C 0.1766(4) 0.9491(11) 0.9502(5)
H11_4 H 0.197464 0.919447 0.969091
N27_2 N 0.0742(4) 0.9835(9) 0.7962(4)
H44_4 H 0.124670 0.972649 0.776291
I7_3 I 0.37707(5) 0.17267(11) 0.05086(5)
I1_3 I 0.10744(4) 0.73923(9) 0.35351(5)
I2_3 I 0.26806(4) 0.23450(8) 0.95252(5)
I9_3 I 0.4709(3) 0.6618(5) 0.6296(4)
I11_3 I 0.14171(4) 0.59018(10) 0.24240(4)
I12_3 I 0.3713(5) 0.7259(5) 0.6987(2)
Zn1_3 Zn 0.12280(6) 0.59661(14) 0.31578(7)
Zn3_3 Zn 0.33024(7) 0.14544(14) 0.97855(8)
Zn4_3 Zn 0.41571(9) 0.62067(15) 0.65741(8)
N1_3 N 0.3189(3) 0.3252(8) 0.5002(4)
N2_3 N 0.4278(5) 0.5107(10) 0.6997(5)
N3_3 N 0.4745(3) 0.2228(8) 0.7767(4)
N4_3 N 0.2660(3) 0.3113(8) 0.4401(4)
N6_3 N 0.3157(4) 0.0096(9) 0.9762(5)
H1_3 H 0.269536 0.015835 0.927014
N9_3 N 0.1653(4) 0.5309(9) 0.3589(4)
N12_3 N 0.3779(5) 0.5558(8) 0.6080(4)
C3_3 C 0.2271(4) 0.4438(10) 0.4144(4)
C4_3 C 0.4811(4) 0.1600(10) 0.8062(5)
N13_3 N 0.4231(3) 0.2731(8) 0.8110(4)
C6_3 C 0.2956(4) 0.2777(10) 0.4688(5)
C9_3 C 0.3327(6) 0.1404(11) 0.4980(6)
H3_3 H 0.350536 0.178452 0.516592
N15_3 N 0.4618(4) 0.1420(10) 0.8376(4)
C10_3 C 0.3320(4) 0.4623(9) 0.5387(5)
C12_3 C 0.4454(5) 0.2806(10) 0.7829(5)
N16_3 N 0.0763(4) 0.5112(10) 0.3123(4)
N19_3 N 0.2790(3) 0.4500(8) 0.4775(4)
N21_3 N 0.3615(4) 0.1585(9) 0.9305(4)
C18_3 C 0.0118(4) 0.4006(11) 0.3099(5)
C19_3 C 0.4668(5) 0.3871(11) 0.7292(6)
H8_3 H 0.489209 0.351081 0.729492
C21_3 C 0.4311(4) 0.2033(11) 0.8385(5)
C22_3 C 0.1742(5) 0.4432(11) 0.3534(5)
H10_3 H 0.159284 0.412458 0.329041
C25_3 C 0.0299(6) 0.4028(13) 0.2767(7)
H12_3 H 0.019689 0.369603 0.251051
C28_3 C 0.4065(9) 0.415(2) 0.7522(8)
H14_3 H 0.388968 0.404531 0.770655
C29_3 C 0.3232(5) 0.5493(11) 0.5487(5)
H15_3 H 0.301170 0.579312 0.531900
C31_3 C 0.2790(5) 0.1212(11) 0.4411(6)
H17_3 H 0.258971 0.144492 0.418630
C32_3 C 0.3086(4) 0.4115(10) 0.5017(5)
C34_3 C 0.2179(5) 0.5358(10) 0.4207(5)
H19_3 H 0.232363 0.569207 0.444470
C35_3 C 0.3017(4) 0.1768(10) 0.4691(5)
C36_3 C 0.4609(5) 0.4666(12) 0.7041(6)
H20_3 H 0.480750 0.488205 0.690450
C37_3 C 0.4082(4) 0.1872(9) 0.8694(5)
C38_3 C 0.4006(7) 0.4853(13) 0.7227(6)
H21_3 H 0.376708 0.517202 0.718142
C40_3 C 0.3670(7) 0.4221(13) 0.5625(7)
H22_3 H 0.375415 0.364304 0.555246
C41_3 C 0.4396(4) 0.3607(10) 0.7538(5)
C43_3 C 0.3734(5) 0.2296(13) 0.8654(5)
H24_3 H 0.365384 0.271760 0.842533
C44_3 C 0.5152(4) 0.1001(10) 0.8075(5)
C47_3 C 0.3376(5) 0.0482(12) 0.4997(6)
H25_3 H 0.358117 0.023149 0.521039
C48_3 C 0.2606(4) 0.3994(9) 0.4457(4)
C49_3 C 0.5634(4) 0.0406(12) 0.7749(5)
H26_3 H 0.574889 0.036436 0.750326
C50_3 C 0.3972(6) 0.1237(13) 0.9352(6)
H27_3 H 0.406525 0.088090 0.960351
C52_3 C 0.0292(8) 0.446(2) 0.3478(7)
H28_3 H 0.022859 0.433370 0.374980
C57_3 C 0.0557(9) 0.511(3) 0.3436(10)
H33_3 H 0.059940 0.558407 0.364139
C58_3 C 0.0656(6) 0.4566(15) 0.2799(7)
H34_3 H 0.080719 0.451241 0.258406
C60_3 C 0.3488(6) 0.2121(12) 0.8946(7)
H36_3 H 0.323471 0.237383 0.889394
C61_3 C 0.1880(5) 0.5747(11) 0.3920(5)
H37_3 H 0.182955 0.636867 0.395617
C63_3 C 0.2031(4) 0.3954(11) 0.3804(5)
H39_3 H 0.206665 0.332743 0.376364
C64_3 C 0.5327(4) 0.0961(13) 0.7725(6)
H40_3 H 0.523365 0.131504 0.747284
C65_3 C 0.3467(5) 0.5918(11) 0.5833(5)
H41_3 H 0.339898 0.651390 0.589904
C66_3 C 0.4218(6) 0.1350(13) 0.9065(7)
H42_3 H 0.446959 0.108381 0.911865
C69_3 C 0.3881(7) 0.4720(12) 0.5969(8)
H45_3 H 0.411036 0.445905 0.613701
C70_3 C 0.5664(7) 0.0020(18) 0.8445(6)
C71_3 C 0.2852(5) 0.0296(11) 0.4455(6)
C72_3 C 0.5333(8) 0.054(2) 0.8430(7)
H48_3 H 0.522732 0.057139 0.868282
I1_4 I 0.89256(4) 0.73923(9) 0.64649(5)
I2_4 I 0.73194(4) 0.23450(8) 0.04748(5)
I9_4 I 0.5291(3) 0.6618(5) 0.3704(4)
I11_4 I 0.85829(4) 0.59018(10) 0.75760(4)
I12_4 I 0.6287(5) 0.7259(5) 0.3013(2)
Zn1_4 Zn 0.87720(6) 0.59661(14) 0.68422(7)
Zn3_4 Zn 0.66976(7) 0.14544(14) 0.02145(8)
Zn4_4 Zn 0.58429(9) 0.62067(15) 0.34259(8)
N1_4 N 0.6811(3) 0.3252(8) 0.4998(4)
N2_4 N 0.5722(5) 0.5107(10) 0.3003(5)
N3_4 N 0.5255(3) 0.2228(8) 0.2233(4)
N4_4 N 0.7340(3) 0.3113(8) 0.5599(4)
N6_4 N 0.6843(4) 0.0096(9) 0.0238(5)
H1_4 H 0.730464 0.015835 0.072986
N9_4 N 0.8347(4) 0.5309(9) 0.6411(4)
N12_4 N 0.6221(5) 0.5558(8) 0.3920(4)
C3_4 C 0.7729(4) 0.4438(10) 0.5856(4)
C4_4 C 0.5189(4) 0.1600(10) 0.1938(5)
N13_4 N 0.5769(3) 0.2731(8) 0.1890(4)
C6_4 C 0.7044(4) 0.2777(10) 0.5312(5)
C9_4 C 0.6673(6) 0.1404(11) 0.5020(6)
H3_4 H 0.649464 0.178452 0.483408
N15_4 N 0.5382(4) 0.1420(10) 0.1624(4)
C10_4 C 0.6680(4) 0.4623(9) 0.4613(5)
C12_4 C 0.5546(5) 0.2806(10) 0.2171(5)
N16_4 N 0.9237(4) 0.5112(10) 0.6877(4)
N19_4 N 0.7210(3) 0.4500(8) 0.5225(4)
N21_4 N 0.6385(4) 0.1585(9) 0.0695(4)
C18_4 C 0.9882(4) 0.4006(11) 0.6901(5)
C19_4 C 0.5332(5) 0.3871(11) 0.2708(6)
H8_4 H 0.510791 0.351081 0.270508
C21_4 C 0.5689(4) 0.2033(11) 0.1615(5)
C22_4 C 0.8258(5) 0.4432(11) 0.6466(5)
H10_4 H 0.840716 0.412458 0.670959
C25_4 C 0.9701(6) 0.4028(13) 0.7233(7)
H12_4 H 0.980311 0.369603 0.748949
C28_4 C 0.5935(9) 0.415(2) 0.2478(8)
H14_4 H 0.611032 0.404531 0.229345
C29_4 C 0.6768(5) 0.5493(11) 0.4513(5)
H15_4 H 0.698830 0.579312 0.468100
C31_4 C 0.7210(5) 0.1212(11) 0.5589(6)
H17_4 H 0.741029 0.144492 0.581370
C32_4 C 0.6914(4) 0.4115(10) 0.4983(5)
C34_4 C 0.7821(5) 0.5358(10) 0.5793(5)
H19_4 H 0.767637 0.569207 0.555530
C35_4 C 0.6983(4) 0.1768(10) 0.5309(5)
C36_4 C 0.5391(5) 0.4666(12) 0.2959(6)
H20_4 H 0.519250 0.488205 0.309550
C37_4 C 0.5918(4) 0.1872(9) 0.1306(5)
C38_4 C 0.5994(7) 0.4853(13) 0.2773(6)
H21_4 H 0.623292 0.517202 0.281858
C40_4 C 0.6330(7) 0.4221(13) 0.4375(7)
H22_4 H 0.624585 0.364304 0.444754
C41_4 C 0.5604(4) 0.3607(10) 0.2462(5)
C43_4 C 0.6266(5) 0.2296(13) 0.1346(5)
H24_4 H 0.634616 0.271760 0.157467
C44_4 C 0.4848(4) 0.1001(10) 0.1925(5)
C47_4 C 0.6624(5) 0.0482(12) 0.5003(6)
H25_4 H 0.641883 0.023149 0.478961
C48_4 C 0.7394(4) 0.3994(9) 0.5543(4)
C49_4 C 0.4366(4) 0.0406(12) 0.2251(5)
H26_4 H 0.425111 0.036436 0.249674
C50_4 C 0.6028(6) 0.1237(13) 0.0648(6)
H27_4 H 0.593475 0.088090 0.039649
C52_4 C 0.9708(8) 0.446(2) 0.6522(7)
H28_4 H 0.977141 0.433370 0.625020
C57_4 C 0.9443(9) 0.511(3) 0.6564(10)
H33_4 H 0.940060 0.558407 0.635861
C58_4 C 0.9344(6) 0.4566(15) 0.7201(7)
H34_4 H 0.919281 0.451241 0.741594
C60_4 C 0.6512(6) 0.2121(12) 0.1054(7)
H36_4 H 0.676529 0.237383 0.110606
C61_4 C 0.8120(5) 0.5747(11) 0.6080(5)
H37_4 H 0.817045 0.636867 0.604383
C63_4 C 0.7969(4) 0.3954(11) 0.6196(5)
H39_4 H 0.793335 0.332743 0.623636
C64_4 C 0.4673(4) 0.0961(13) 0.2275(6)
H40_4 H 0.476635 0.131504 0.252716
C65_4 C 0.6533(5) 0.5918(11) 0.4167(5)
H41_4 H 0.660102 0.651390 0.410096
C66_4 C 0.5782(6) 0.1350(13) 0.0935(7)
H42_4 H 0.553041 0.108381 0.088135
C69_4 C 0.6119(7) 0.4720(12) 0.4031(8)
H45_4 H 0.588964 0.445905 0.386299
C70_4 C 0.4336(7) 0.0020(18) 0.1555(6)
C71_4 C 0.7148(5) 0.0296(11) 0.5545(6)
C72_4 C 0.4667(8) 0.054(2) 0.1570(7)
H48_4 H 0.477268 0.057139 0.131718
I7_4 I 0.62293(5) 0.17267(11) 0.94914(5)
loop_
_geom_bond_atom_site_label_1
_geom_bond_atom_site_label_2
_geom_bond_site_symmetry_1
_geom_bond_site_symmetry_2
N10 C49 1_555 1_555
C49 H26 1_555 1_555
C64 C44 1_555 1_555
H40 C64 1_555 1_555
C70 N10 1_555 1_555
H46 C70 1_555 1_555
C72 C44 1_555 1_555
H48 C72 1_555 1_555
Zn7 N10 1_555 1_555
C49 C64 1_555 1_555
C70 C72 1_555 1_555
I2 Zn3 1_555 1_555
I6 Zn5 1_555 1_555
I10 Zn5 1_555 1_555
Zn3 N6 1_555 1_555
Zn5 N11 1_555 1_555
N1 C6 1_555 1_555
N3 C4 1_555 1_555
N4 C6 1_555 1_555
N5 C2 1_555 1_555
N6 C1 1_555 1_555
N7 C24 1_555 1_555
N8 C13 1_555 1_555
C1 H1 1_555 1_555
N11 C14 1_555 1_555
C2 N14 1_555 1_555
C4 N15 1_555 1_555
N13 C12 1_555 1_555
C6 C35 1_555 1_555
N14 C45 1_555 1_555
C8 C13 1_555 1_555
C9 H3 1_555 1_555
N15 C21 1_555 1_555
C11 H4 1_555 1_555
C12 N3 1_555 1_555
C13 N20 1_555 1_555
C14 H5 1_555 1_555
C15 H6 1_555 1_555
N19 C32 1_555 1_555
N20 C51 1_555 1_555
C16 C8 1_555 1_555
H7 C16 1_555 1_555
N21 Zn3 1_555 1_555
C17 C2 1_555 1_555
C18 C25 1_555 1_555
C19 H8 1_555 1_555
C21 N13 1_555 1_555
C22 H10 1_555 1_555
C24 N8 1_555 1_555
C25 H12 1_555 1_555
C27 C45 1_555 1_555
C28 H14 1_555 1_555
C31 H17 1_555 1_555
C32 N1 1_555 1_555
C35 C9 1_555 1_555
C36 C19 1_555 1_555
H20 C36 1_555 1_555
C37 C21 1_555 1_555
C39 C15 1_555 1_555
C40 C10 1_555 1_555
H22 C40 1_555 1_555
C41 C12 1_555 1_555
C42 C14 1_555 1_555
H23 C42 1_555 1_555
C43 C37 1_555 1_555
H24 C43 1_555 1_555
C47 C9 1_555 1_555
H25 C47 1_555 1_555
C48 N4 1_555 1_555
N23 C47 1_555 1_555
C50 N21 1_555 1_555
H27 C50 1_555 1_555
C51 N7 1_555 1_555
C52 C18 1_555 1_555
H28 C52 1_555 1_555
C53 C16 1_555 1_555
H29 C53 1_555 1_555
C54 C1 1_555 1_555
H30 C54 1_555 1_555
C55 C11 1_555 1_555
H31 C55 1_555 1_555
C56 N11 1_555 1_555
H32 C56 1_555 1_555
H34 C58 1_555 1_555
C60 N21 1_555 1_555
H36 C60 1_555 1_555
C63 C3 1_555 1_555
H39 C63 1_555 1_555
C66 C37 1_555 1_555
H42 C66 1_555 1_555
N24 C53 1_555 1_555
C67 C8 1_555 1_555
H43 C67 1_555 1_555
C68 N24 1_555 1_555
H44 C68 1_555 1_555
H45 C69 1_555 1_555
C71 C31 1_555 1_555
H47 C71 1_555 1_555
Zn8 N23 1_555 1_555
Zn9 N24 1_555 1_555
N26 Zn5 1_555 1_555
C3 C48 1_555 1_555
C10 C32 1_555 1_555
C11 C17 1_555 1_555
C15 C56 1_555 1_555
N19 C48 1_555 1_555
C18 C51 1_555 1_555
C19 C41 1_555 1_555
C22 C63 1_555 1_555
C24 C39 1_555 1_555
C25 C58 1_555 1_555
C27 C54 1_555 1_555
C28 C38 1_555 1_555
C28 C41 1_555 1_555
C31 C35 1_555 1_555
C39 C42 1_555 1_555
C40 C69 1_555 1_555
C43 C60 1_555 1_555
N23 C71 1_555 1_555
C50 C66 1_555 1_555
C67 C68 1_555 1_555
I3 Zn2 1_555 1_555
I8 Zn2 1_555 1_555
Zn2 N17 1_555 1_555
N17 C26 1_555 1_555
C26 H13 1_555 1_555
H18 C33 1_555 1_555
N25 Zn2 1_555 1_555
C26 C33 1_555 1_555
I4 Zn9 1_555 1_555
I5 Zn9 1_555 1_555
Zn9 N18 1_555 1_555
C5 H2 1_555 1_555
N18 C5 1_555 1_555
H9 C20 1_555 1_555
C23 C5 1_555 1_555
H11 C23 1_555 1_555
C30 N18 1_555 1_555
H16 C30 1_555 1_555
N22 C7 1_555 1_555
C46 C7 1_555 1_555
C59 C20 1_555 1_555
H35 C59 1_555 1_555
C62 C30 1_555 1_555
H38 C62 1_555 1_555
C23 C46 1_555 1_555
C46 C62 1_555 1_555
I3_2 Zn7 1_555 1_555
I8_2 Zn7 1_555 1_555
Zn7 N17_2 1_555 1_555
N5_2 C2_2 1_555 1_555
C2_2 N14_2 1_555 1_555
N14_2 C45_2 1_555 1_555
C11_2 H4_2 1_555 1_555
N17_2 C26_2 1_555 1_555
C17_2 C2_2 1_555 1_555
C26_2 H13_2 1_555 1_555
C27_2 C45_2 1_555 1_555
C33_2 C17_2 1_555 1_555
H18_2 C33_2 1_555 1_555
C54_2 C1_2 1_555 1_555
H30_2 C54_2 1_555 1_555
C55_2 C11_2 1_555 1_555
H31_2 C55_2 1_555 1_555
C11_2 C17_2 1_555 1_555
N17_2 C55_2 1_555 1_555
C26_2 C33_2 1_555 1_555
C27_2 C54_2 1_555 1_555
I6_2 Zn8 1_555 1_555
I10_2 Zn8 1_555 1_555
Zn8 N11_2 1_555 1_555
N7_2 C24_2 1_555 1_555
N8_2 C13_2 1_555 1_555
N11_2 C14_2 1_555 1_555
C8_2 C13_2 1_555 1_555
C13_2 N20_2 1_555 1_555
C14_2 H5_2 1_555 1_555
C15_2 H6_2 1_555 1_555
N20_2 C51_2 1_555 1_555
C16_2 C8_2 1_555 1_555
H7_2 C16_2 1_555 1_555
C24_2 N8_2 1_555 1_555
C39_2 C15_2 1_555 1_555
C42_2 C14_2 1_555 1_555
H23_2 C42_2 1_555 1_555
C51_2 N7_2 1_555 1_555
C53_2 C16_2 1_555 1_555
H29_2 C53_2 1_555 1_555
C56_2 N11_2 1_555 1_555
H32_2 C56_2 1_555 1_555
C67_2 C8_2 1_555 1_555
H43_2 C67_2 1_555 1_555
C15_2 C56_2 1_555 1_555
C24_2 C39_2 1_555 1_555
C39_2 C42_2 1_555 1_555
C67_2 C68_2 1_555 1_555
I1 Zn1 1_555 1_555
I9 Zn4 1_555 1_555
I11 Zn1 1_555 1_555
I12 Zn4 1_555 1_555
Zn1 N9 1_555 1_555
Zn4 N2 1_555 1_555
N12 Zn4 1_555 1_555
N16 Zn1 1_555 1_555
C29 H15 1_555 1_555
C34 H19 1_555 1_555
C57 N16 1_555 1_555
H33 C57 1_555 1_555
C61 N9 1_555 1_555
H37 C61 1_555 1_555
C65 N12 1_555 1_555
H41 C65 1_555 1_555
C29 C65 1_555 1_555
C34 C61 1_555 1_555
H9_2 C20_2 1_555 1_555
H16_2 C30_2 1_555 1_555
N22_2 C7_2 1_555 1_555
C46_2 C7_2 1_555 1_555
C59_2 C20_2 1_555 1_555
H35_2 C59_2 1_555 1_555
C62_2 C30_2 1_555 1_555
H38_2 C62_2 1_555 1_555
C46_2 C62_2 1_555 1_555
I4_2 Zn6 1_555 1_555
I5_2 Zn6 1_555 1_555
Zn6 N18_2 1_555 1_555
C5_2 H2_2 1_555 1_555
N18_2 C5_2 1_555 1_555
C23_2 C5_2 1_555 1_555
H11_2 C23_2 1_555 1_555
N27 Zn6 1_555 1_555
I1_2 Zn1_2 1_555 1_555
I9_2 Zn4_2 1_555 1_555
I11_2 Zn1_2 1_555 1_555
I12_2 Zn4_2 1_555 1_555
Zn1_2 N9_2 1_555 1_555
Zn4_2 N2_2 1_555 1_555
N12_2 Zn4_2 1_555 1_555
N16_2 Zn1_2 1_555 1_555
C29_2 H15_2 1_555 1_555
C34_2 H19_2 1_555 1_555
C57_2 N16_2 1_555 1_555
H33_2 C57_2 1_555 1_555
C61_2 N9_2 1_555 1_555
H37_2 C61_2 1_555 1_555
C65_2 N12_2 1_555 1_555
H41_2 C65_2 1_555 1_555
C29_2 C65_2 1_555 1_555
C34_2 C61_2 1_555 1_555
I2_2 Zn3_2 1_555 1_555
I6_3 Zn5_2 1_555 1_555
I10_3 Zn5_2 1_555 1_555
Zn3_2 N6_2 1_555 1_555
Zn5_2 N11_3 1_555 1_555
N1_2 C6_2 1_555 1_555
N3_2 C4_2 1_555 1_555
N4_2 C6_2 1_555 1_555
N5_3 C2_3 1_555 1_555
N6_2 C1_3 1_555 1_555
N7_3 C24_3 1_555 1_555
N8_3 C13_3 1_555 1_555
C1_3 H1_2 1_555 1_555
N11_3 C14_3 1_555 1_555
C2_3 N14_3 1_555 1_555
C4_2 N15_2 1_555 1_555
N13_2 C12_2 1_555 1_555
C6_2 C35_2 1_555 1_555
N14_3 C45_3 1_555 1_555
C8_3 C13_3 1_555 1_555
C9_2 H3_2 1_555 1_555
N15_2 C21_2 1_555 1_555
C11_3 H4_3 1_555 1_555
C12_2 N3_2 1_555 1_555
C13_3 N20_3 1_555 1_555
C14_3 H5_3 1_555 1_555
C15_3 H6_3 1_555 1_555
N19_2 C32_2 1_555 1_555
N20_3 C51_3 1_555 1_555
C16_3 C8_3 1_555 1_555
H7_3 C16_3 1_555 1_555
N21_2 Zn3_2 1_555 1_555
C17_3 C2_3 1_555 1_555
C18_2 C25_2 1_555 1_555
C19_2 H8_2 1_555 1_555
C21_2 N13_2 1_555 1_555
C22_2 H10_2 1_555 1_555
C24_3 N8_3 1_555 1_555
C25_2 H12_2 1_555 1_555
C27_3 C45_3 1_555 1_555
C28_2 H14_2 1_555 1_555
C31_2 H17_2 1_555 1_555
C32_2 N1_2 1_555 1_555
C35_2 C9_2 1_555 1_555
C36_2 C19_2 1_555 1_555
H20_2 C36_2 1_555 1_555
C37_2 C21_2 1_555 1_555
C39_3 C15_3 1_555 1_555
C40_2 C10_2 1_555 1_555
H22_2 C40_2 1_555 1_555
C41_2 C12_2 1_555 1_555
C42_3 C14_3 1_555 1_555
H23_3 C42_3 1_555 1_555
C43_2 C37_2 1_555 1_555
H24_2 C43_2 1_555 1_555
C47_2 C9_2 1_555 1_555
H25_2 C47_2 1_555 1_555
C48_2 N4_2 1_555 1_555
N23_2 C47_2 1_555 1_555
C50_2 N21_2 1_555 1_555
H27_2 C50_2 1_555 1_555
C51_3 N7_3 1_555 1_555
C52_2 C18_2 1_555 1_555
H28_2 C52_2 1_555 1_555
C53_3 C16_3 1_555 1_555
H29_3 C53_3 1_555 1_555
C54_3 C1_3 1_555 1_555
H30_3 C54_3 1_555 1_555
C55_3 C11_3 1_555 1_555
H31_3 C55_3 1_555 1_555
C56_3 N11_3 1_555 1_555
H32_3 C56_3 1_555 1_555
H34_2 C58_2 1_555 1_555
C60_2 N21_2 1_555 1_555
H36_2 C60_2 1_555 1_555
C63_2 C3_2 1_555 1_555
H39_2 C63_2 1_555 1_555
C66_2 C37_2 1_555 1_555
H42_2 C66_2 1_555 1_555
N24_2 C53_3 1_555 1_555
C67_3 C8_3 1_555 1_555
H43_3 C67_3 1_555 1_555
C68_3 N24_2 1_555 1_555
H44_3 C68_3 1_555 1_555
H45_2 C69_2 1_555 1_555
C71_2 C31_2 1_555 1_555
H47_3 C71_2 1_555 1_555
Zn8_2 N23_2 1_555 1_555
Zn9_2 N24_2 1_555 1_555
N26_2 Zn5_2 1_555 1_555
C3_2 C48_2 1_555 1_555
C10_2 C32_2 1_555 1_555
C11_3 C17_3 1_555 1_555
C15_3 C56_3 1_555 1_555
N19_2 C48_2 1_555 1_555
C18_2 C51_3 1_555 1_555
C19_2 C41_2 1_555 1_555
C22_2 C63_2 1_555 1_555
C24_3 C39_3 1_555 1_555
C25_2 C58_2 1_555 1_555
C27_3 C54_3 1_555 1_555
C28_2 C38_2 1_555 1_555
C28_2 C41_2 1_555 1_555
C31_2 C35_2 1_555 1_555
C39_3 C42_3 1_555 1_555
C40_2 C69_2 1_555 1_555
C43_2 C60_2 1_555 1_555
N23_2 C71_2 1_555 1_555
C50_2 C66_2 1_555 1_555
C67_3 C68_3 1_555 1_555
I3_3 Zn2_2 1_555 1_555
I8_3 Zn2_2 1_555 1_555
Zn2_2 N17_3 1_555 1_555
N17_3 C26_3 1_555 1_555
C26_3 H13_3 1_555 1_555
H18_3 C33_3 1_555 1_555
N25_2 Zn2_2 1_555 1_555
C26_3 C33_3 1_555 1_555
N10_2 C49_2 1_555 1_555
C49_2 H26_2 1_555 1_555
C64_2 C44_2 1_555 1_555
H40_2 C64_2 1_555 1_555
C70_2 N10_2 1_555 1_555
H46_3 C70_2 1_555 1_555
C72_2 C44_2 1_555 1_555
H48_2 C72_2 1_555 1_555
Zn7_2 N10_2 1_555 1_555
C49_2 C64_2 1_555 1_555
C70_2 C72_2 1_555 1_555
I6_4 Zn8_2 1_555 1_555
I10_4 Zn8_2 1_555 1_555
Zn8_2 N11_4 1_555 1_555
N7_4 C24_4 1_555 1_555
N8_4 C13_4 1_555 1_555
N11_4 C14_4 1_555 1_555
C8_4 C13_4 1_555 1_555
C13_4 N20_4 1_555 1_555
C14_4 H5_4 1_555 1_555
C15_4 H6_4 1_555 1_555
N20_4 C51_4 1_555 1_555
C16_4 C8_4 1_555 1_555
H7_4 C16_4 1_555 1_555
C24_4 N8_4 1_555 1_555
C39_4 C15_4 1_555 1_555
C42_4 C14_4 1_555 1_555
H23_4 C42_4 1_555 1_555
C51_4 N7_4 1_555 1_555
C53_4 C16_4 1_555 1_555
H29_4 C53_4 1_555 1_555
C56_4 N11_4 1_555 1_555
H32_4 C56_4 1_555 1_555
C67_4 C8_4 1_555 1_555
H43_4 C67_4 1_555 1_555
C15_4 C56_4 1_555 1_555
C24_4 C39_4 1_555 1_555
C39_4 C42_4 1_555 1_555
C67_4 C68_4 1_555 1_555
I3_4 Zn7_2 1_555 1_555
I8_4 Zn7_2 1_555 1_555
Zn7_2 N17_4 1_555 1_555
N5_4 C2_4 1_555 1_555
C2_4 N14_4 1_555 1_555
N14_4 C45_4 1_555 1_555
C11_4 H4_4 1_555 1_555
N17_4 C26_4 1_555 1_555
C17_4 C2_4 1_555 1_555
C26_4 H13_4 1_555 1_555
C27_4 C45_4 1_555 1_555
C33_4 C17_4 1_555 1_555
H18_4 C33_4 1_555 1_555
C54_4 C1_4 1_555 1_555
H30_4 C54_4 1_555 1_555
C55_4 C11_4 1_555 1_555
H31_4 C55_4 1_555 1_555
C11_4 C17_4 1_555 1_555
N17_4 C55_4 1_555 1_555
C26_4 C33_4 1_555 1_555
C27_4 C54_4 1_555 1_555
I4_3 Zn9_2 1_555 1_555
I5_3 Zn9_2 1_555 1_555
Zn9_2 N18_3 1_555 1_555
C5_3 H2_3 1_555 1_555
N18_3 C5_3 1_555 1_555
H9_3 C20_3 1_555 1_555
C23_3 C5_3 1_555 1_555
H11_3 C23_3 1_555 1_555
C30_3 N18_3 1_555 1_555
H16_3 C30_3 1_555 1_555
N22_3 C7_3 1_555 1_555
C46_3 C7_3 1_555 1_555
C59_3 C20_3 1_555 1_555
H35_3 C59_3 1_555 1_555
C62_3 C30_3 1_555 1_555
H38_3 C62_3 1_555 1_555
C23_3 C46_3 1_555 1_555
C46_3 C62_3 1_555 1_555
H9_4 C20_4 1_555 1_555
H16_4 C30_4 1_555 1_555
N22_4 C7_4 1_555 1_555
C46_4 C7_4 1_555 1_555
C59_4 C20_4 1_555 1_555
H35_4 C59_4 1_555 1_555
C62_4 C30_4 1_555 1_555
H38_4 C62_4 1_555 1_555
C46_4 C62_4 1_555 1_555
I4_4 Zn6_2 1_555 1_555
I5_4 Zn6_2 1_555 1_555
Zn6_2 N18_4 1_555 1_555
C5_4 H2_4 1_555 1_555
N18_4 C5_4 1_555 1_555
C23_4 C5_4 1_555 1_555
H11_4 C23_4 1_555 1_555
N27_2 Zn6_2 1_555 1_555
I1_3 Zn1_3 1_555 1_555
I2_3 Zn3_3 1_555 1_555
I9_3 Zn4_3 1_555 1_555
I11_3 Zn1_3 1_555 1_555
I12_3 Zn4_3 1_555 1_555
Zn1_3 N9_3 1_555 1_555
Zn3_3 N6_3 1_555 1_555
Zn4_3 N2_3 1_555 1_555
N1_3 C6_3 1_555 1_555
N2_3 C36_3 1_555 1_555
N3_3 C4_3 1_555 1_555
N4_3 C6_3 1_555 1_555
N9_3 C22_3 1_555 1_555
N12_3 Zn4_3 1_555 1_555
C3_3 C34_3 1_555 1_555
C4_3 N15_3 1_555 1_555
N13_3 C12_3 1_555 1_555
C6_3 C35_3 1_555 1_555
C9_3 H3_3 1_555 1_555
N15_3 C21_3 1_555 1_555
C10_3 C29_3 1_555 1_555
C12_3 N3_3 1_555 1_555
N16_3 Zn1_3 1_555 1_555
N19_3 C32_3 1_555 1_555
N21_3 Zn3_3 1_555 1_555
C18_3 C25_3 1_555 1_555
C19_3 H8_3 1_555 1_555
C21_3 N13_3 1_555 1_555
C22_3 H10_3 1_555 1_555
C25_3 H12_3 1_555 1_555
C28_3 H14_3 1_555 1_555
C29_3 H15_3 1_555 1_555
C31_3 H17_3 1_555 1_555
C32_3 N1_3 1_555 1_555
C34_3 H19_3 1_555 1_555
C35_3 C9_3 1_555 1_555
C36_3 C19_3 1_555 1_555
H20_3 C36_3 1_555 1_555
C37_3 C21_3 1_555 1_555
C38_3 N2_3 1_555 1_555
H21_3 C38_3 1_555 1_555
C40_3 C10_3 1_555 1_555
H22_3 C40_3 1_555 1_555
C41_3 C12_3 1_555 1_555
C43_3 C37_3 1_555 1_555
H24_3 C43_3 1_555 1_555
C44_3 C4_3 1_555 1_555
C47_3 C9_3 1_555 1_555
H25_3 C47_3 1_555 1_555
C48_3 N4_3 1_555 1_555
C49_3 H26_3 1_555 1_555
C50_3 N21_3 1_555 1_555
H27_3 C50_3 1_555 1_555
C52_3 C18_3 1_555 1_555
H28_3 C52_3 1_555 1_555
C57_3 N16_3 1_555 1_555
H33_3 C57_3 1_555 1_555
C58_3 N16_3 1_555 1_555
H34_3 C58_3 1_555 1_555
C60_3 N21_3 1_555 1_555
H36_3 C60_3 1_555 1_555
C61_3 N9_3 1_555 1_555
H37_3 C61_3 1_555 1_555
C63_3 C3_3 1_555 1_555
H39_3 C63_3 1_555 1_555
C64_3 C44_3 1_555 1_555
H40_3 C64_3 1_555 1_555
C65_3 N12_3 1_555 1_555
H41_3 C65_3 1_555 1_555
C66_3 C37_3 1_555 1_555
H42_3 C66_3 1_555 1_555
C69_3 N12_3 1_555 1_555
H45_3 C69_3 1_555 1_555
C71_3 C31_3 1_555 1_555
C72_3 C44_3 1_555 1_555
H48_3 C72_3 1_555 1_555
C3_3 C48_3 1_555 1_555
C10_3 C32_3 1_555 1_555
N19_3 C48_3 1_555 1_555
C19_3 C41_3 1_555 1_555
C22_3 C63_3 1_555 1_555
C25_3 C58_3 1_555 1_555
C28_3 C38_3 1_555 1_555
C28_3 C41_3 1_555 1_555
C29_3 C65_3 1_555 1_555
C31_3 C35_3 1_555 1_555
C34_3 C61_3 1_555 1_555
C40_3 C69_3 1_555 1_555
C43_3 C60_3 1_555 1_555
C49_3 C64_3 1_555 1_555
C50_3 C66_3 1_555 1_555
C52_3 C57_3 1_555 1_555
C70_3 C72_3 1_555 1_555
I1_4 Zn1_4 1_555 1_555
I2_4 Zn3_4 1_555 1_555
I9_4 Zn4_4 1_555 1_555
I11_4 Zn1_4 1_555 1_555
I12_4 Zn4_4 1_555 1_555
Zn1_4 N9_4 1_555 1_555
Zn3_4 N6_4 1_555 1_555
Zn4_4 N2_4 1_555 1_555
N1_4 C6_4 1_555 1_555
N2_4 C36_4 1_555 1_555
N3_4 C4_4 1_555 1_555
N4_4 C6_4 1_555 1_555
N9_4 C22_4 1_555 1_555
N12_4 Zn4_4 1_555 1_555
C3_4 C34_4 1_555 1_555
C4_4 N15_4 1_555 1_555
N13_4 C12_4 1_555 1_555
C6_4 C35_4 1_555 1_555
C9_4 H3_4 1_555 1_555
N15_4 C21_4 1_555 1_555
C10_4 C29_4 1_555 1_555
C12_4 N3_4 1_555 1_555
N16_4 Zn1_4 1_555 1_555
N19_4 C32_4 1_555 1_555
N21_4 Zn3_4 1_555 1_555
C18_4 C25_4 1_555 1_555
C19_4 H8_4 1_555 1_555
C21_4 N13_4 1_555 1_555
C22_4 H10_4 1_555 1_555
C25_4 H12_4 1_555 1_555
C28_4 H14_4 1_555 1_555
C29_4 H15_4 1_555 1_555
C31_4 H17_4 1_555 1_555
C32_4 N1_4 1_555 1_555
C34_4 H19_4 1_555 1_555
C35_4 C9_4 1_555 1_555
C36_4 C19_4 1_555 1_555
H20_4 C36_4 1_555 1_555
C37_4 C21_4 1_555 1_555
C38_4 N2_4 1_555 1_555
H21_4 C38_4 1_555 1_555
C40_4 C10_4 1_555 1_555
H22_4 C40_4 1_555 1_555
C41_4 C12_4 1_555 1_555
C43_4 C37_4 1_555 1_555
H24_4 C43_4 1_555 1_555
C44_4 C4_4 1_555 1_555
C47_4 C9_4 1_555 1_555
H25_4 C47_4 1_555 1_555
C48_4 N4_4 1_555 1_555
C49_4 H26_4 1_555 1_555
C50_4 N21_4 1_555 1_555
H27_4 C50_4 1_555 1_555
C52_4 C18_4 1_555 1_555
H28_4 C52_4 1_555 1_555
C57_4 N16_4 1_555 1_555
H33_4 C57_4 1_555 1_555
C58_4 N16_4 1_555 1_555
H34_4 C58_4 1_555 1_555
C60_4 N21_4 1_555 1_555
H36_4 C60_4 1_555 1_555
C61_4 N9_4 1_555 1_555
H37_4 C61_4 1_555 1_555
C63_4 C3_4 1_555 1_555
H39_4 C63_4 1_555 1_555
C64_4 C44_4 1_555 1_555
H40_4 C64_4 1_555 1_555
C65_4 N12_4 1_555 1_555
H41_4 C65_4 1_555 1_555
C66_4 C37_4 1_555 1_555
H42_4 C66_4 1_555 1_555
C69_4 N12_4 1_555 1_555
H45_4 C69_4 1_555 1_555
C71_4 C31_4 1_555 1_555
C72_4 C44_4 1_555 1_555
H48_4 C72_4 1_555 1_555
C3_4 C48_4 1_555 1_555
C10_4 C32_4 1_555 1_555
N19_4 C48_4 1_555 1_555
C19_4 C41_4 1_555 1_555
C22_4 C63_4 1_555 1_555
C25_4 C58_4 1_555 1_555
C28_4 C38_4 1_555 1_555
C28_4 C41_4 1_555 1_555
C29_4 C65_4 1_555 1_555
C31_4 C35_4 1_555 1_555
C34_4 C61_4 1_555 1_555
C40_4 C69_4 1_555 1_555
C43_4 C60_4 1_555 1_555
C49_4 C64_4 1_555 1_555
C50_4 C66_4 1_555 1_555
C52_4 C57_4 1_555 1_555
C70_4 C72_4 1_555 1_555

#END
