
###############################################################################
#
# This file contains modified crystal structure data generated from the
# MOF subset of the Cambridge Structural Database (CSD) v543 
# hosted by the Cambridge Crystallographic Data Centre (CCDC).
#
# This work is licensed under the Creative Commons
# Attribution-NonCommercial-ShareAlike 4.0 International License.
# To view a copy of this license, visit
# http://creativecommons.org/licenses/by-nc-sa/4.0/
# or send a letter to
# Creative Commons, PO Box 1866, Mountain View, CA 94042, USA.
#
# CIF created using the CSD Python API on 29 September 2022
# The structure has been converted into the P1 space group
# The structure has a 3D framework
# The original CSD entry QEDJUI is in the monoclinic crystal system
# The original CSD entry QEDJUI is in a Sohncke space group
# The framework has been calculated to contain at least 10.0% void space
# The void calculation uses a probe of radius 1.32A, grid spacing 0.4
#
###############################################################################

data_QEDJUI
_chemical_formula_moiety         '(C288 H192 I48 N94 Zn24)n'
_symmetry_cell_setting           triclinic
_symmetry_space_group_name_H-M   'P 1'
_symmetry_Int_Tables_number      1
_space_group_name_Hall           'P 1'
loop_
_symmetry_equiv_pos_site_id
_symmetry_equiv_pos_as_xyz
1 x,y,z
_cell_length_a                   35.3690(4)
_cell_length_b                   14.81820(10)
_cell_length_c                   31.5125(3)
_cell_angle_alpha                90
_cell_angle_beta                 102.4430(10)
_cell_angle_gamma                90
_cell_volume                     16127.9
loop_
_atom_site_label
_atom_site_type_symbol
_atom_site_fract_x
_atom_site_fract_y
_atom_site_fract_z
I1 I 0.85878(3) 0.08652(10) 0.75682(4)
I3 I 0.89321(4) 0.23582(9) 0.64639(4)
I4 I 0.52231(9) 0.13993(17) 0.37770(9)
I8 I 0.61429(9) 0.23632(16) 0.30763(8)
Zn1 Zn 0.58109(18) 0.1180(5) 0.3440(3)
Zn2 Zn 0.87788(5) 0.09337(13) 0.68374(6)
N3 N 0.8346(3) 0.0288(8) 0.6410(4)
N10 N 0.5721(5) 0.0078(9) 0.2993(4)
C13 C 0.8123(4) 0.0701(10) 0.6067(5)
H5 H 0.818131 0.131128 0.601376
N14 N 0.6231(4) 0.0534(8) 0.3918(4)
C20 C 0.6537(4) 0.0889(10) 0.4169(5)
H11 H 0.660546 0.148772 0.410861
C24 C 0.7827(4) 0.0319(9) 0.5797(5)
H14 H 0.767564 0.066870 0.557003
H34 H 0.623037 0.015600 0.280064
C67 C 0.6762(4) 0.0459(11) 0.4507(5)
H44 H 0.698136 0.076140 0.467324
N27 N 0.9247(4) 0.0032(13) 0.6860(5)
H24 H 0.926613 0.019938 0.622991
C68 C 0.9778(10) 0.028(2) 0.1604(9)
H45 H 0.993820 0.021194 0.140040
C70 C 0.9320(10) 0.047(2) 0.2186(12)
H47 H 0.915941 0.053471 0.239039
C71 C 0.9635(9) 0.100(3) 0.2214(11)
H48 H 0.969595 0.144263 0.243701
C72 C 0.9864(8) 0.091(2) 0.1923(9)
I2 I 0.7348(3) 0.2642(4) 0.5468(2)
I5 I 0.62810(18) 0.3322(6) 0.44803(17)
Zn3 Zn 0.6735(3) 0.3541(6) 0.5221(2)
C1 C 0.6912(4) 0.9077(9) 0.4980(4)
N1 N 0.5263(3) 0.7196(7) 0.2233(3)
N2 N 0.5422(3) 0.3524(8) 0.6598(4)
N4 N 0.6853(4) 0.4907(8) 0.5273(4)
C2 C 0.5324(4) 0.8844(10) 0.2695(5)
H1 H 0.509377 0.850191 0.267654
C3 C 0.7066(3) 0.2235(8) 0.0260(4)
N6 N 0.7360(3) 0.1895(7) 0.0559(4)
C4 C 0.7974(4) 0.8955(8) 0.6188(5)
H2 H 0.793028 0.833412 0.623586
N7 N 0.5765(3) 0.7692(8) 0.1886(4)
C5 C 0.7738(4) 0.0552(9) 0.0834(5)
N8 N 0.7215(3) 0.9482(7) 0.5226(4)
C6 C 0.5706(4) 0.2953(10) 0.6599(5)
C7 C 0.7433(3) 0.1003(7) 0.0512(4)
C8 C 0.6981(3) 0.3203(9) 0.0258(4)
C9 C 0.7219(4) 0.3810(9) 0.0552(5)
H3 H 0.743279 0.359258 0.076327
C11 C 0.5545(4) 0.7773(10) 0.2172(5)
C12 C 0.5966(4) 0.0841(12) 0.7480(4)
H4 H 0.615773 0.100672 0.732547
N11 N 0.6384(4) 0.6556(9) 0.0704(4)
N12 N 0.6418(3) 0.3369(9) 0.5689(4)
N13 N 0.7217(3) 0.0497(7) 0.0194(4)
C14 C 0.6503(5) 0.7098(10) 0.1055(6)
H6 H 0.674822 0.738540 0.109613
C15 C 0.6616(5) 0.5457(10) 0.5015(5)
H7 H 0.640108 0.521093 0.481431
C16 C 0.6125(5) 0.9678(11) 0.4034(6)
H8 H 0.589072 0.942672 0.387364
C18 C 0.5782(5) 0.6298(13) 0.0947(6)
H10 H 0.553536 0.601605 0.090039
N15 N 0.5793(3) 0.2230(8) 0.6867(4)
C19 C 0.5924(4) 0.6852(8) 0.1313(4)
N17 N 0.7351(3) 0.8088(7) 0.5599(3)
C21 C 0.5631(4) 0.1344(10) 0.7444(4)
C23 C 0.7134(4) 0.4706(10) 0.0523(5)
H13 H 0.729177 0.510354 0.072233
C25 C 0.8289(5) 0.0545(10) 0.1423(6)
H15 H 0.846920 0.086637 0.163759
C26 C 0.5608(4) 0.8594(9) 0.2459(4)
N18 N 0.6819(3) 0.8208(7) 0.5003(4)
C27 C 0.5427(4) 0.0297(9) 0.7923(4)
H16 H 0.523569 0.011711 0.807586
C28 C 0.5196(4) 0.6561(9) 0.1931(4)
C29 C 0.6275(5) 0.7238(12) 0.1351(5)
H17 H 0.636785 0.762284 0.159232
C30 C 0.7156(4) 0.5259(10) 0.5551(6)
H18 H 0.733167 0.486275 0.573112
C31 C 0.5398(4) 0.9611(10) 0.2954(5)
H19 H 0.520932 0.980562 0.310763
C32 C 0.5571(4) 0.2139(9) 0.7157(4)
C34 C 0.6036(5) 0.6190(14) 0.0648(5)
H21 H 0.594783 0.583392 0.039554
C35 C 0.4729(6) 0.4052(12) 0.7246(6)
H22 H 0.484872 0.375527 0.750771
C36 C 0.4868(5) 0.3923(13) 0.6877(6)
C37 C 0.4696(5) 0.4349(16) 0.6500(5)
H23 H 0.479184 0.425888 0.624432
C38 C 0.4386(5) 0.4903(16) 0.6492(5)
H24_2 H 0.426613 0.519938 0.622991
N20 N 0.4247(4) 0.5032(13) 0.6860(5)
C39 C 0.4419(5) 0.4606(13) 0.7237(6)
H25 H 0.432318 0.469636 0.749340
C40 C 0.6015(6) 0.0069(12) 0.7755(6)
C41 C 0.6061(5) 0.3710(13) 0.5615(6)
H27 H 0.596714 0.405048 0.535839
C43 C 0.6670(5) 0.6382(10) 0.5027(5)
H29 H 0.649363 0.676618 0.484026
C44 C 0.5958(4) 0.3095(11) 0.6278(5)
C45 C 0.8273(4) 0.9402(10) 0.6457(5)
H30 H 0.843442 0.907560 0.668538
C47 C 0.6683(4) 0.9603(10) 0.4617(5)
C48 C 0.7731(4) 0.9415(9) 0.5839(4)
C49 C 0.5827(4) 0.3576(12) 0.5905(4)
H32 H 0.557280 0.382023 0.584650
C50 C 0.6334(4) 0.2732(12) 0.6351(6)
H33 H 0.643494 0.237802 0.660148
C51 C 0.5997(6) 0.9820(13) 0.2768(6)
N21 N 0.6843(3) 0.5059(8) 0.0230(4)
C52 C 0.6335(6) 0.9185(12) 0.4360(6)
H35 H 0.625978 0.859149 0.441976
N22 N 0.5286(3) 0.2718(8) 0.7186(3)
C53 C 0.7402(4) 0.8957(10) 0.5549(5)
C55 C 0.6990(4) 0.6742(9) 0.5321(4)
C56 C 0.6542(5) 0.2906(12) 0.6055(5)
H37 H 0.679999 0.268276 0.610958
N23 N 0.5392(3) 0.6404(9) 0.1620(4)
C58 C 0.7223(4) 0.6171(9) 0.5587(5)
H39 H 0.743407 0.639694 0.579922
C59 C 0.5694(4) 0.6995(10) 0.1623(5)
C61 C 0.7058(4) 0.7755(9) 0.5320(5)
C62 C 0.5940(6) 0.9091(14) 0.2500(7)
H41 H 0.612983 0.892829 0.234155
C63 C 0.5364(4) 0.1065(9) 0.7668(4)
H42 H 0.513204 0.140061 0.764828
C65 C 0.7999(4) 0.1035(10) 0.1139(5)
H43 H 0.798321 0.167378 0.115627
C66 C 0.5218(4) 0.3391(10) 0.6897(4)
I9 I 0.3531(3) 0.4006(8) 0.2568(3)
Zn5 Zn 0.3748(5) 0.4028(11) 0.1886(4)
I10 I 0.3928(2) 0.2651(5) 0.1510(2)
Zn6 Zn 0.6697(6) 0.6371(12) 0.0251(7)
I12 I 0.7340(4) 0.7296(7) 0.0524(7)
C68_2 C 0.4778(10) 0.528(2) 0.1604(9)
H45_2 H 0.493820 0.521194 0.140040
C69 C 0.4462(10) 0.474(2) 0.1577(9)
H46 H 0.440148 0.430395 0.135399
N24 N 0.4234(9) 0.4839(18) 0.1868(10)
C70_2 C 0.4320(10) 0.547(2) 0.2186(12)
H47_2 H 0.415941 0.553471 0.239039
C71_2 C 0.4635(9) 0.600(3) 0.2214(11)
H48_2 H 0.469595 0.644263 0.243701
C72_2 C 0.4864(8) 0.591(2) 0.1923(9)
Zn7 Zn 0.37788(5) 0.59337(13) 0.68374(6)
N26 N 0.3321(3) 0.4687(7) 0.1406(4)
I1_2 I 0.35878(3) 0.58652(10) 0.75682(4)
I3_2 I 0.39321(4) 0.73582(9) 0.64639(4)
I4_2 I 0.02231(9) 0.63993(17) 0.37770(9)
I8_2 I 0.11429(9) 0.73632(16) 0.30763(8)
Zn1_2 Zn 0.08109(18) 0.6180(5) 0.3440(3)
C1_2 C 0.1912(4) 0.4077(9) 0.4980(4)
N1_2 N 0.0263(3) 0.2196(7) 0.2233(3)
N3_2 N 0.3346(3) 0.5288(8) 0.6410(4)
C2_2 C 0.0324(4) 0.3844(10) 0.2695(5)
H1_2 H 0.009377 0.350191 0.267654
C4_2 C 0.2974(4) 0.3955(8) 0.6188(5)
H2_2 H 0.293028 0.333412 0.623586
N7_2 N 0.0765(3) 0.2692(8) 0.1886(4)
N8_2 N 0.2215(3) 0.4482(7) 0.5226(4)
C11_2 C 0.0545(4) 0.2773(10) 0.2172(5)
N10_2 N 0.0721(5) 0.5078(9) 0.2993(4)
N11_2 N 0.1384(4) 0.1556(9) 0.0704(4)
C13_2 C 0.3123(4) 0.5701(10) 0.6067(5)
H5_2 H 0.318131 0.631128 0.601376
C14_2 C 0.1503(5) 0.2098(10) 0.1055(6)
H6_2 H 0.174822 0.238540 0.109613
N14_2 N 0.1231(4) 0.5534(8) 0.3918(4)
C15_2 C 0.1616(5) 0.0457(10) 0.5015(5)
H7_2 H 0.140108 0.021093 0.481431
C16_2 C 0.1125(5) 0.4678(11) 0.4034(6)
H8_2 H 0.089072 0.442672 0.387364
C18_2 C 0.0782(5) 0.1298(13) 0.0947(6)
H10_2 H 0.053536 0.101605 0.090039
C19_2 C 0.0924(4) 0.1852(8) 0.1313(4)
N17_2 N 0.2351(3) 0.3088(7) 0.5599(3)
C20_2 C 0.1537(4) 0.5889(10) 0.4169(5)
H11_2 H 0.160546 0.648772 0.410861
H13_2 H 0.229177 0.010354 0.072233
C24_2 C 0.2827(4) 0.5319(9) 0.5797(5)
H14_2 H 0.267564 0.566870 0.557003
C26_2 C 0.0608(4) 0.3594(9) 0.2459(4)
N18_2 N 0.1819(3) 0.3208(7) 0.5003(4)
C28_2 C 0.0196(4) 0.1561(9) 0.1931(4)
C29_2 C 0.1275(5) 0.2238(12) 0.1351(5)
H17_2 H 0.136785 0.262284 0.159232
C30_2 C 0.2156(4) 0.0259(10) 0.5551(6)
C31_2 C 0.0398(4) 0.4611(10) 0.2954(5)
H19_2 H 0.020932 0.480562 0.310763
C34_2 C 0.1036(5) 0.1190(14) 0.0648(5)
H21_2 H 0.094783 0.083392 0.039554
C43_2 C 0.1670(5) 0.1382(10) 0.5027(5)
H29_2 H 0.149363 0.176618 0.484026
C45_2 C 0.3273(4) 0.4402(10) 0.6457(5)
H30_2 H 0.343442 0.407560 0.668538
C47_2 C 0.1683(4) 0.4603(10) 0.4617(5)
C48_2 C 0.2731(4) 0.4415(9) 0.5839(4)
C51_2 C 0.0997(6) 0.4820(13) 0.2768(6)
H34_2 H 0.123037 0.515600 0.280064
N21_2 N 0.1843(3) 0.0059(8) 0.0230(4)
C52_2 C 0.1335(6) 0.4185(12) 0.4360(6)
H35_2 H 0.125978 0.359149 0.441976
C53_2 C 0.2402(4) 0.3957(10) 0.5549(5)
C55_2 C 0.1990(4) 0.1742(9) 0.5321(4)
N23_2 N 0.0392(3) 0.1404(9) 0.1620(4)
C58_2 C 0.2223(4) 0.1171(9) 0.5587(5)
H39_2 H 0.243407 0.139694 0.579922
C59_2 C 0.0694(4) 0.1995(10) 0.1623(5)
C61_2 C 0.2058(4) 0.2755(9) 0.5320(5)
C62_2 C 0.0940(6) 0.4091(14) 0.2500(7)
H41_2 H 0.112983 0.392829 0.234155
C67_2 C 0.1762(4) 0.5459(11) 0.4507(5)
H44_2 H 0.198136 0.576140 0.467324
Zn6_2 Zn 0.1697(6) 0.1371(12) 0.0251(7)
I12_2 I 0.2340(4) 0.2296(7) 0.0524(7)
I2_2 I 0.2348(3) 0.7642(4) 0.5468(2)
I5_2 I 0.12810(18) 0.8322(6) 0.44803(17)
I6 I 0.03080(14) 0.3341(3) 0.8680(2)
I7 I 0.1273(2) 0.2653(3) 0.7992(2)
Zn3_2 Zn 0.1735(3) 0.8541(6) 0.5221(2)
Zn4 Zn 0.0898(2) 0.3705(4) 0.8371(2)
N2_2 N 0.0422(3) 0.8524(8) 0.6598(4)
N4_2 N 0.1853(4) 0.9907(8) 0.5273(4)
C3_2 C 0.2066(3) 0.7235(8) 0.0260(4)
N6_2 N 0.2360(3) 0.6895(7) 0.0559(4)
C5_2 C 0.2738(4) 0.5552(9) 0.0834(5)
C6_2 C 0.0706(4) 0.7953(10) 0.6599(5)
C7_2 C 0.2433(3) 0.6003(7) 0.0512(4)
C8_2 C 0.1981(3) 0.8203(9) 0.0258(4)
C9_2 C 0.2219(4) 0.8810(9) 0.0552(5)
H3_2 H 0.243279 0.859258 0.076327
C12_2 C 0.0966(4) 0.5841(12) 0.7480(4)
H4_2 H 0.115773 0.600672 0.732547
N12_2 N 0.1418(3) 0.8369(9) 0.5689(4)
N13_2 N 0.2217(3) 0.5497(7) 0.0194(4)
N15_2 N 0.0793(3) 0.7230(8) 0.6867(4)
N16 N 0.0747(3) 0.4801(8) 0.7962(4)
C21_2 C 0.0631(4) 0.6344(10) 0.7444(4)
C23_2 C 0.2134(4) 0.9706(10) 0.0523(5)
C25_2 C 0.3289(5) 0.5545(10) 0.1423(6)
H15_2 H 0.346920 0.586637 0.163759
C27_2 C 0.0427(4) 0.5297(9) 0.7923(4)
H16_2 H 0.023569 0.511711 0.807586
H18_2 H 0.233167 0.986275 0.573112
C32_2 C 0.0571(4) 0.7139(9) 0.7157(4)
C33 C 0.2772(4) 0.4639(10) 0.0803(5)
H20 H 0.259841 0.430305 0.058823
C40_2 C 0.1015(6) 0.5069(12) 0.7755(6)
H26 H 0.124846 0.473465 0.779123
C41_2 C 0.1061(5) 0.8710(13) 0.5615(6)
H27_2 H 0.096714 0.905048 0.535839
C44_2 C 0.0958(4) 0.8095(11) 0.6278(5)
C49_2 C 0.0827(4) 0.8576(12) 0.5905(4)
H32_2 H 0.057280 0.882023 0.584650
C50_2 C 0.1334(4) 0.7732(12) 0.6351(6)
H33_2 H 0.143494 0.737802 0.660148
N22_2 N 0.0286(3) 0.7718(8) 0.7186(3)
C54 C 0.3072(4) 0.4212(10) 0.1098(5)
H36 H 0.310167 0.357616 0.108196
C56_2 C 0.1542(5) 0.7906(12) 0.6055(5)
H37_2 H 0.179999 0.768276 0.610958
C63_2 C 0.0364(4) 0.6065(9) 0.7668(4)
H42_2 H 0.013204 0.640061 0.764828
C65_2 C 0.2999(4) 0.6035(10) 0.1139(5)
H43_2 H 0.298321 0.667378 0.115627
C66_2 C 0.0218(4) 0.8391(10) 0.6897(4)
N25 N 0.1246(3) 0.4402(7) 0.8880(4)
N5 N 0.1834(3) 0.6757(8) 0.9945(4)
C10 C 0.1681(4) 0.5363(8) 0.9572(4)
C17 C 0.1688(4) 0.8586(10) 0.9947(5)
H9 H 0.152977 0.820862 0.973690
C22 C 0.1371(4) 0.5727(9) 0.9308(5)
H12 H 0.129145 0.632024 0.936373
C42 C 0.1554(4) 0.4008(9) 0.9143(4)
H28 H 0.162374 0.341029 0.908136
C46 C 0.1622(4) 0.9485(10) 0.9935(5)
H31 H 0.141862 0.972602 0.971796
C57 C 0.1773(4) 0.4460(9) 0.9505(5)
H38 H 0.197850 0.416297 0.969861
C60 C 0.1160(5) 0.5241(11) 0.8947(6)
H40 H 0.095251 0.552774 0.875160
C64 C 0.1927(4) 0.5901(9) 0.9924(4)
N5_2 N 0.6834(3) 0.1757(8) 0.9945(4)
C10_2 C 0.6681(4) 0.0363(8) 0.9572(4)
C17_2 C 0.6688(4) 0.3586(10) 0.9947(5)
H9_2 H 0.652977 0.320862 0.973690
C22_2 C 0.6371(4) 0.0727(9) 0.9308(5)
H12_2 H 0.629145 0.132024 0.936373
C46_2 C 0.6622(4) 0.4485(10) 0.9935(5)
H31_2 H 0.641862 0.472602 0.971796
C60_2 C 0.6160(5) 0.0241(11) 0.8947(6)
H40_2 H 0.595251 0.052774 0.875160
C64_2 C 0.6927(4) 0.0901(9) 0.9924(4)
I11 I 0.6267(6) 0.6739(7) 0.9513(3)
I6_2 I 0.53080(14) 0.8341(3) 0.8680(2)
I7_2 I 0.6273(2) 0.7653(3) 0.7992(2)
Zn4_2 Zn 0.5898(2) 0.8705(4) 0.8371(2)
N16_2 N 0.5747(3) 0.9801(8) 0.7962(4)
N19 N 0.8321(3) 0.9687(7) 0.1406(4)
C33_2 C 0.7772(4) 0.9639(10) 0.0803(5)
H20_2 H 0.759841 0.930305 0.058823
H26_2 H 0.624846 0.973465 0.779123
C54_2 C 0.8072(4) 0.9212(10) 0.1098(5)
H36_2 H 0.810167 0.857616 0.108196
N25_2 N 0.6246(3) 0.9402(7) 0.8880(4)
Zn9 Zn 0.8748(5) 0.9028(11) 0.1886(4)
C42_2 C 0.6554(4) 0.9008(9) 0.9143(4)
H28_2 H 0.662374 0.841029 0.908136
C57_2 C 0.6773(4) 0.9460(9) 0.9505(5)
H38_2 H 0.697850 0.916297 0.969861
C35_2 C 0.9729(6) 0.9052(12) 0.7246(6)
H22_2 H 0.984872 0.875527 0.750771
C36_2 C 0.9868(5) 0.8923(13) 0.6877(6)
C37_2 C 0.9696(5) 0.9349(16) 0.6500(5)
H23_2 H 0.979184 0.925888 0.624432
C38_2 C 0.9386(5) 0.9903(16) 0.6492(5)
C39_2 C 0.9419(5) 0.9606(13) 0.7237(6)
H25_2 H 0.932318 0.969636 0.749340
I9_2 I 0.8531(3) 0.9006(8) 0.2568(3)
I10_2 I 0.8928(2) 0.7651(5) 0.1510(2)
C69_2 C 0.9462(10) 0.974(2) 0.1577(9)
H46_2 H 0.940148 0.930395 0.135399
N24_2 N 0.9234(9) 0.9839(18) 0.1868(10)
I1_3 I 0.14122(3) 0.08652(10) 0.24318(4)
I3_3 I 0.10679(4) 0.23582(9) 0.35361(4)
I4_3 I 0.47769(9) 0.13993(17) 0.62230(9)
I8_3 I 0.38571(9) 0.23632(16) 0.69237(8)
Zn1_3 Zn 0.41891(18) 0.1180(5) 0.6560(3)
Zn2_2 Zn 0.12212(5) 0.09337(13) 0.31626(6)
N3_3 N 0.1654(3) 0.0288(8) 0.3590(4)
N10_3 N 0.4279(5) 0.0078(9) 0.7007(4)
C13_3 C 0.1877(4) 0.0701(10) 0.3933(5)
H5_3 H 0.181869 0.131128 0.398624
N14_3 N 0.3769(4) 0.0534(8) 0.6082(4)
C20_3 C 0.3463(4) 0.0889(10) 0.5831(5)
H11_3 H 0.339454 0.148772 0.589139
C24_3 C 0.2173(4) 0.0319(9) 0.4203(5)
H14_3 H 0.232436 0.066870 0.442997
H34_3 H 0.376963 0.015600 0.719936
C67_3 C 0.3238(4) 0.0459(11) 0.5493(5)
H44_3 H 0.301864 0.076140 0.532676
N27_2 N 0.0753(4) 0.0032(13) 0.3140(5)
H24_3 H 0.073387 0.019938 0.377009
C68_3 C 0.0222(10) 0.028(2) 0.8396(9)
H45_3 H 0.006180 0.021194 0.859960
C70_3 C 0.0680(10) 0.047(2) 0.7814(12)
H47_3 H 0.084059 0.053471 0.760961
C71_3 C 0.0365(9) 0.100(3) 0.7786(11)
H48_3 H 0.030405 0.144263 0.756299
C72_3 C 0.0136(8) 0.091(2) 0.8077(9)
N5_3 N 0.3166(3) 0.1757(8) 0.0055(4)
C10_3 C 0.3319(4) 0.0363(8) 0.0428(4)
C17_3 C 0.3312(4) 0.3586(10) 0.0053(5)
H9_3 H 0.347023 0.320862 0.026310
C22_3 C 0.3629(4) 0.0727(9) 0.0692(5)
H12_3 H 0.370855 0.132024 0.063627
C46_3 C 0.3378(4) 0.4485(10) 0.0065(5)
H31_3 H 0.358138 0.472602 0.028204
C60_3 C 0.3840(5) 0.0241(11) 0.1053(6)
H40_3 H 0.404749 0.052774 0.124840
C64_3 C 0.3073(4) 0.0901(9) 0.0076(4)
I11_2 I 0.3733(6) 0.6739(7) 0.0487(3)
I2_3 I 0.2652(3) 0.2642(4) 0.4532(2)
I5_3 I 0.37190(18) 0.3322(6) 0.55197(17)
Zn3_3 Zn 0.3265(3) 0.3541(6) 0.4779(2)
C1_3 C 0.3088(4) 0.9077(9) 0.5020(4)
N1_3 N 0.4737(3) 0.7196(7) 0.7767(3)
N2_3 N 0.4578(3) 0.3524(8) 0.3402(4)
N4_3 N 0.3147(4) 0.4907(8) 0.4727(4)
C2_3 C 0.4676(4) 0.8844(10) 0.7305(5)
H1_3 H 0.490623 0.850191 0.732346
C3_3 C 0.2934(3) 0.2235(8) 0.9740(4)
N6_3 N 0.2640(3) 0.1895(7) 0.9441(4)
C4_3 C 0.2026(4) 0.8955(8) 0.3812(5)
H2_3 H 0.206972 0.833412 0.376414
N7_3 N 0.4235(3) 0.7692(8) 0.8114(4)
C5_3 C 0.2262(4) 0.0552(9) 0.9166(5)
N8_3 N 0.2785(3) 0.9482(7) 0.4774(4)
C6_3 C 0.4294(4) 0.2953(10) 0.3401(5)
C7_3 C 0.2567(3) 0.1003(7) 0.9488(4)
C8_3 C 0.3019(3) 0.3203(9) 0.9742(4)
C9_3 C 0.2781(4) 0.3810(9) 0.9448(5)
H3_3 H 0.256721 0.359258 0.923673
C11_3 C 0.4455(4) 0.7773(10) 0.7828(5)
C12_3 C 0.4034(4) 0.0841(12) 0.2520(4)
H4_3 H 0.384227 0.100672 0.267453
N11_3 N 0.3616(4) 0.6556(9) 0.9296(4)
N12_3 N 0.3582(3) 0.3369(9) 0.4311(4)
N13_3 N 0.2783(3) 0.0497(7) 0.9806(4)
C14_3 C 0.3497(5) 0.7098(10) 0.8945(6)
H6_3 H 0.325178 0.738540 0.890387
C15_3 C 0.3384(5) 0.5457(10) 0.4985(5)
H7_3 H 0.359892 0.521093 0.518569
C16_3 C 0.3875(5) 0.9678(11) 0.5966(6)
H8_3 H 0.410928 0.942672 0.612636
C18_3 C 0.4218(5) 0.6298(13) 0.9053(6)
H10_3 H 0.446464 0.601605 0.909961
N15_3 N 0.4207(3) 0.2230(8) 0.3133(4)
C19_3 C 0.4076(4) 0.6852(8) 0.8687(4)
N17_3 N 0.2649(3) 0.8088(7) 0.4401(3)
C21_3 C 0.4369(4) 0.1344(10) 0.2556(4)
C23_3 C 0.2866(4) 0.4706(10) 0.9477(5)
H13_3 H 0.270823 0.510354 0.927767
C25_3 C 0.1711(5) 0.0545(10) 0.8577(6)
H15_3 H 0.153080 0.086637 0.836241
C26_3 C 0.4392(4) 0.8594(9) 0.7541(4)
N18_3 N 0.3181(3) 0.8208(7) 0.4997(4)
C27_3 C 0.4573(4) 0.0297(9) 0.2077(4)
H16_3 H 0.476431 0.011711 0.192414
C28_3 C 0.4804(4) 0.6561(9) 0.8069(4)
C29_3 C 0.3725(5) 0.7238(12) 0.8649(5)
H17_3 H 0.363215 0.762284 0.840768
C30_3 C 0.2844(4) 0.5259(10) 0.4449(6)
H18_3 H 0.266833 0.486275 0.426888
C31_3 C 0.4602(4) 0.9611(10) 0.7046(5)
H19_3 H 0.479068 0.980562 0.689237
C32_3 C 0.4429(4) 0.2139(9) 0.2843(4)
C34_3 C 0.3964(5) 0.6190(14) 0.9352(5)
H21_3 H 0.405217 0.583392 0.960446
C35_3 C 0.5271(6) 0.4052(12) 0.2754(6)
H22_3 H 0.515128 0.375527 0.249229
C36_3 C 0.5132(5) 0.3923(13) 0.3123(6)
C37_3 C 0.5304(5) 0.4349(16) 0.3500(5)
H23_3 H 0.520816 0.425888 0.375568
C38_3 C 0.5614(5) 0.4903(16) 0.3508(5)
H24_4 H 0.573387 0.519938 0.377009
N20_2 N 0.5753(4) 0.5032(13) 0.3140(5)
C39_3 C 0.5581(5) 0.4606(13) 0.2763(6)
H25_3 H 0.567682 0.469636 0.250660
C40_3 C 0.3985(6) 0.0069(12) 0.2245(6)
C41_3 C 0.3939(5) 0.3710(13) 0.4385(6)
H27_3 H 0.403286 0.405048 0.464161
C43_3 C 0.3330(5) 0.6382(10) 0.4973(5)
H29_3 H 0.350637 0.676618 0.515974
C44_3 C 0.4042(4) 0.3095(11) 0.3722(5)
C45_3 C 0.1727(4) 0.9402(10) 0.3543(5)
H30_3 H 0.156558 0.907560 0.331462
C47_3 C 0.3317(4) 0.9603(10) 0.5383(5)
C48_3 C 0.2269(4) 0.9415(9) 0.4161(4)
C49_3 C 0.4173(4) 0.3576(12) 0.4095(4)
H32_3 H 0.442720 0.382023 0.415350
C50_3 C 0.3666(4) 0.2732(12) 0.3649(6)
H33_3 H 0.356506 0.237802 0.339852
C51_3 C 0.4003(6) 0.9820(13) 0.7232(6)
N21_3 N 0.3157(3) 0.5059(8) 0.9770(4)
C52_3 C 0.3665(6) 0.9185(12) 0.5640(6)
H35_3 H 0.374022 0.859149 0.558024
N22_3 N 0.4714(3) 0.2718(8) 0.2814(3)
C53_3 C 0.2598(4) 0.8957(10) 0.4451(5)
C55_3 C 0.3010(4) 0.6742(9) 0.4679(4)
C56_3 C 0.3458(5) 0.2906(12) 0.3945(5)
H37_3 H 0.320001 0.268276 0.389042
N23_3 N 0.4608(3) 0.6404(9) 0.8380(4)
C58_3 C 0.2777(4) 0.6171(9) 0.4413(5)
H39_3 H 0.256593 0.639694 0.420078
C59_3 C 0.4306(4) 0.6995(10) 0.8377(5)
C61_3 C 0.2942(4) 0.7755(9) 0.4680(5)
C62_3 C 0.4060(6) 0.9091(14) 0.7500(7)
H41_3 H 0.387017 0.892829 0.765845
C63_3 C 0.4636(4) 0.1065(9) 0.2332(4)
H42_3 H 0.486796 0.140061 0.235172
C65_3 C 0.2001(4) 0.1035(10) 0.8861(5)
H43_3 H 0.201679 0.167378 0.884373
C66_3 C 0.4782(4) 0.3391(10) 0.3103(4)
I9_3 I 0.6469(3) 0.4006(8) 0.7432(3)
Zn5_2 Zn 0.6252(5) 0.4028(11) 0.8114(4)
I10_3 I 0.6072(2) 0.2651(5) 0.8490(2)
Zn6_3 Zn 0.3303(6) 0.6371(12) 0.9749(7)
I12_3 I 0.2660(4) 0.7296(7) 0.9476(7)
C68_4 C 0.5222(10) 0.528(2) 0.8396(9)
H45_4 H 0.506180 0.521194 0.859960
C69_3 C 0.5538(10) 0.474(2) 0.8423(9)
H46_3 H 0.559852 0.430395 0.864601
N24_3 N 0.5766(9) 0.4839(18) 0.8132(10)
C70_4 C 0.5680(10) 0.547(2) 0.7814(12)
H47_4 H 0.584059 0.553471 0.760961
C71_4 C 0.5365(9) 0.600(3) 0.7786(11)
H48_4 H 0.530405 0.644263 0.756299
C72_4 C 0.5136(8) 0.591(2) 0.8077(9)
Zn7_2 Zn 0.62212(5) 0.59337(13) 0.31626(6)
N26_2 N 0.6679(3) 0.4687(7) 0.8594(4)
I1_4 I 0.64122(3) 0.58652(10) 0.24318(4)
I3_4 I 0.60679(4) 0.73582(9) 0.35361(4)
I4_4 I 0.97769(9) 0.63993(17) 0.62230(9)
I8_4 I 0.88571(9) 0.73632(16) 0.69237(8)
Zn1_4 Zn 0.91891(18) 0.6180(5) 0.6560(3)
C1_4 C 0.8088(4) 0.4077(9) 0.5020(4)
N1_4 N 0.9737(3) 0.2196(7) 0.7767(3)
N3_4 N 0.6654(3) 0.5288(8) 0.3590(4)
C2_4 C 0.9676(4) 0.3844(10) 0.7305(5)
H1_4 H 0.990623 0.350191 0.732346
C4_4 C 0.7026(4) 0.3955(8) 0.3812(5)
H2_4 H 0.706972 0.333412 0.376414
N7_4 N 0.9235(3) 0.2692(8) 0.8114(4)
N8_4 N 0.7785(3) 0.4482(7) 0.4774(4)
C11_4 C 0.9455(4) 0.2773(10) 0.7828(5)
N10_4 N 0.9279(5) 0.5078(9) 0.7007(4)
N11_4 N 0.8616(4) 0.1556(9) 0.9296(4)
C13_4 C 0.6877(4) 0.5701(10) 0.3933(5)
H5_4 H 0.681869 0.631128 0.398624
C14_4 C 0.8497(5) 0.2098(10) 0.8945(6)
H6_4 H 0.825178 0.238540 0.890387
N14_4 N 0.8769(4) 0.5534(8) 0.6082(4)
C15_4 C 0.8384(5) 0.0457(10) 0.4985(5)
H7_4 H 0.859892 0.021093 0.518569
C16_4 C 0.8875(5) 0.4678(11) 0.5966(6)
H8_4 H 0.910928 0.442672 0.612636
C18_4 C 0.9218(5) 0.1298(13) 0.9053(6)
H10_4 H 0.946464 0.101605 0.909961
C19_4 C 0.9076(4) 0.1852(8) 0.8687(4)
N17_4 N 0.7649(3) 0.3088(7) 0.4401(3)
C20_4 C 0.8463(4) 0.5889(10) 0.5831(5)
H11_4 H 0.839454 0.648772 0.589139
H13_4 H 0.770823 0.010354 0.927767
C24_4 C 0.7173(4) 0.5319(9) 0.4203(5)
H14_4 H 0.732436 0.566870 0.442997
C26_4 C 0.9392(4) 0.3594(9) 0.7541(4)
N18_4 N 0.8181(3) 0.3208(7) 0.4997(4)
C28_4 C 0.9804(4) 0.1561(9) 0.8069(4)
C29_4 C 0.8725(5) 0.2238(12) 0.8649(5)
H17_4 H 0.863215 0.262284 0.840768
C30_4 C 0.7844(4) 0.0259(10) 0.4449(6)
C31_4 C 0.9602(4) 0.4611(10) 0.7046(5)
H19_4 H 0.979068 0.480562 0.689237
C34_4 C 0.8964(5) 0.1190(14) 0.9352(5)
H21_4 H 0.905217 0.083392 0.960446
C43_4 C 0.8330(5) 0.1382(10) 0.4973(5)
H29_4 H 0.850637 0.176618 0.515974
C45_4 C 0.6727(4) 0.4402(10) 0.3543(5)
H30_4 H 0.656558 0.407560 0.331462
C47_4 C 0.8317(4) 0.4603(10) 0.5383(5)
C48_4 C 0.7269(4) 0.4415(9) 0.4161(4)
C51_4 C 0.9003(6) 0.4820(13) 0.7232(6)
H34_4 H 0.876963 0.515600 0.719936
N21_4 N 0.8157(3) 0.0059(8) 0.9770(4)
C52_4 C 0.8665(6) 0.4185(12) 0.5640(6)
H35_4 H 0.874022 0.359149 0.558024
C53_4 C 0.7598(4) 0.3957(10) 0.4451(5)
C55_4 C 0.8010(4) 0.1742(9) 0.4679(4)
N23_4 N 0.9608(3) 0.1404(9) 0.8380(4)
C58_4 C 0.7777(4) 0.1171(9) 0.4413(5)
H39_4 H 0.756593 0.139694 0.420078
C59_4 C 0.9306(4) 0.1995(10) 0.8377(5)
C61_4 C 0.7942(4) 0.2755(9) 0.4680(5)
C62_4 C 0.9060(6) 0.4091(14) 0.7500(7)
H41_4 H 0.887017 0.392829 0.765845
C67_4 C 0.8238(4) 0.5459(11) 0.5493(5)
H44_4 H 0.801864 0.576140 0.532676
Zn6_4 Zn 0.8303(6) 0.1371(12) 0.9749(7)
I12_4 I 0.7660(4) 0.2296(7) 0.9476(7)
N5_4 N 0.8166(3) 0.6757(8) 0.0055(4)
C10_4 C 0.8319(4) 0.5363(8) 0.0428(4)
N9 N 0.8754(3) 0.4402(7) 0.1120(4)
C17_4 C 0.8312(4) 0.8586(10) 0.0053(5)
H9_4 H 0.847023 0.820862 0.026310
C22_4 C 0.8629(4) 0.5727(9) 0.0692(5)
H12_4 H 0.870855 0.632024 0.063627
C42_3 C 0.8446(4) 0.4008(9) 0.0857(4)
H28_3 H 0.837626 0.341029 0.091864
C46_4 C 0.8378(4) 0.9485(10) 0.0065(5)
H31_4 H 0.858138 0.972602 0.028204
C57_3 C 0.8227(4) 0.4460(9) 0.0495(5)
H38_3 H 0.802150 0.416297 0.030139
C60_4 C 0.8840(5) 0.5241(11) 0.1053(6)
H40_4 H 0.904749 0.552774 0.124840
C64_4 C 0.8073(4) 0.5901(9) 0.0076(4)
Zn8 Zn 0.9102(2) 0.3705(4) 0.1629(2)
I2_4 I 0.7652(3) 0.7642(4) 0.4532(2)
I5_4 I 0.87190(18) 0.8322(6) 0.55197(17)
I6_3 I 0.96920(14) 0.3341(3) 0.1320(2)
I7_3 I 0.8727(2) 0.2653(3) 0.2008(2)
Zn3_4 Zn 0.8265(3) 0.8541(6) 0.4779(2)
N2_4 N 0.9578(3) 0.8524(8) 0.3402(4)
N4_4 N 0.8147(4) 0.9907(8) 0.4727(4)
C3_4 C 0.7934(3) 0.7235(8) 0.9740(4)
N6_4 N 0.7640(3) 0.6895(7) 0.9441(4)
C5_4 C 0.7262(4) 0.5552(9) 0.9166(5)
C6_4 C 0.9294(4) 0.7953(10) 0.3401(5)
C7_4 C 0.7567(3) 0.6003(7) 0.9488(4)
C8_4 C 0.8019(3) 0.8203(9) 0.9742(4)
C9_4 C 0.7781(4) 0.8810(9) 0.9448(5)
H3_4 H 0.756721 0.859258 0.923673
C12_4 C 0.9034(4) 0.5841(12) 0.2520(4)
H4_4 H 0.884227 0.600672 0.267453
N12_4 N 0.8582(3) 0.8369(9) 0.4311(4)
N13_4 N 0.7783(3) 0.5497(7) 0.9806(4)
N15_4 N 0.9207(3) 0.7230(8) 0.3133(4)
N16_3 N 0.9253(3) 0.4801(8) 0.2038(4)
C21_4 C 0.9369(4) 0.6344(10) 0.2556(4)
C23_4 C 0.7866(4) 0.9706(10) 0.9477(5)
C25_4 C 0.6711(5) 0.5545(10) 0.8577(6)
H15_4 H 0.653080 0.586637 0.836241
C27_4 C 0.9573(4) 0.5297(9) 0.2077(4)
H16_4 H 0.976431 0.511711 0.192414
H18_4 H 0.766833 0.986275 0.426888
C32_4 C 0.9429(4) 0.7139(9) 0.2843(4)
C33_3 C 0.7228(4) 0.4639(10) 0.9197(5)
H20_3 H 0.740159 0.430305 0.941177
C40_4 C 0.8985(6) 0.5069(12) 0.2245(6)
H26_3 H 0.875154 0.473465 0.220877
C41_4 C 0.8939(5) 0.8710(13) 0.4385(6)
H27_4 H 0.903286 0.905048 0.464161
C44_4 C 0.9042(4) 0.8095(11) 0.3722(5)
C49_4 C 0.9173(4) 0.8576(12) 0.4095(4)
H32_4 H 0.942720 0.882023 0.415350
C50_4 C 0.8666(4) 0.7732(12) 0.3649(6)
H33_4 H 0.856506 0.737802 0.339852
N22_4 N 0.9714(3) 0.7718(8) 0.2814(3)
C54_3 C 0.6928(4) 0.4212(10) 0.8902(5)
H36_3 H 0.689833 0.357616 0.891804
C56_4 C 0.8458(5) 0.7906(12) 0.3945(5)
H37_4 H 0.820001 0.768276 0.389042
C63_4 C 0.9636(4) 0.6065(9) 0.2332(4)
H42_4 H 0.986796 0.640061 0.235172
C65_4 C 0.7001(4) 0.6035(10) 0.8861(5)
H43_4 H 0.701679 0.667378 0.884373
C66_4 C 0.9782(4) 0.8391(10) 0.3103(4)
N9_2 N 0.3754(3) 0.9402(7) 0.1120(4)
C42_4 C 0.3446(4) 0.9008(9) 0.0857(4)
H28_4 H 0.337626 0.841029 0.091864
C57_4 C 0.3227(4) 0.9460(9) 0.0495(5)
H38_4 H 0.302150 0.916297 0.030139
Zn8_2 Zn 0.4102(2) 0.8705(4) 0.1629(2)
I6_4 I 0.46920(14) 0.8341(3) 0.1320(2)
I7_4 I 0.3727(2) 0.7653(3) 0.2008(2)
N16_4 N 0.4253(3) 0.9801(8) 0.2038(4)
N19_2 N 0.1679(3) 0.9687(7) 0.8594(4)
C33_4 C 0.2228(4) 0.9639(10) 0.9197(5)
H20_4 H 0.240159 0.930305 0.941177
H26_4 H 0.375154 0.973465 0.220877
C54_4 C 0.1928(4) 0.9212(10) 0.8902(5)
H36_4 H 0.189833 0.857616 0.891804
Zn9_2 Zn 0.1252(5) 0.9028(11) 0.8114(4)
C35_4 C 0.0271(6) 0.9052(12) 0.2754(6)
H22_4 H 0.015128 0.875527 0.249229
C36_4 C 0.0132(5) 0.8923(13) 0.3123(6)
C37_4 C 0.0304(5) 0.9349(16) 0.3500(5)
H23_4 H 0.020816 0.925888 0.375568
C38_4 C 0.0614(5) 0.9903(16) 0.3508(5)
C39_4 C 0.0581(5) 0.9606(13) 0.2763(6)
H25_4 H 0.067682 0.969636 0.250660
I9_4 I 0.1469(3) 0.9006(8) 0.7432(3)
I10_4 I 0.1072(2) 0.7651(5) 0.8490(2)
C69_4 C 0.0538(10) 0.974(2) 0.8423(9)
H46_4 H 0.059852 0.930395 0.864601
N24_4 N 0.0766(9) 0.9839(18) 0.8132(10)
I11_3 I 0.1267(6) 0.1739(7) 0.9513(3)
I11_4 I 0.8733(6) 0.1739(7) 0.0487(3)
loop_
_geom_bond_atom_site_label_1
_geom_bond_atom_site_label_2
_geom_bond_site_symmetry_1
_geom_bond_site_symmetry_2
I1 Zn2 1_555 1_555
I3 Zn2 1_555 1_555
I4 Zn1 1_555 1_555
I8 Zn1 1_555 1_555
Zn1 N10 1_555 1_555
Zn2 N3 1_555 1_555
N3 C13 1_555 1_555
C13 H5 1_555 1_555
N14 Zn1 1_555 1_555
C20 N14 1_555 1_555
H11 C20 1_555 1_555
C24 C13 1_555 1_555
H14 C24 1_555 1_555
C67 C20 1_555 1_555
H44 C67 1_555 1_555
N27 Zn2 1_555 1_555
C68 H45 1_555 1_555
H47 C70 1_555 1_555
C71 C70 1_555 1_555
H48 C71 1_555 1_555
C68 C72 1_555 1_555
C71 C72 1_555 1_555
I2 Zn3 1_555 1_555
I5 Zn3 1_555 1_555
Zn3 N4 1_555 1_555
C1 N8 1_555 1_555
N1 C11 1_555 1_555
N2 C6 1_555 1_555
N4 C15 1_555 1_555
C2 H1 1_555 1_555
C3 N6 1_555 1_555
N6 C7 1_555 1_555
C4 H2 1_555 1_555
N7 C11 1_555 1_555
C5 C7 1_555 1_555
N8 C53 1_555 1_555
C6 N15 1_555 1_555
C7 N13 1_555 1_555
C8 C3 1_555 1_555
C9 C8 1_555 1_555
H3 C9 1_555 1_555
C11 C26 1_555 1_555
C12 H4 1_555 1_555
N11 C14 1_555 1_555
N12 Zn3 1_555 1_555
C14 H6 1_555 1_555
C15 H7 1_555 1_555
H8 C16 1_555 1_555
C18 H10 1_555 1_555
N15 C32 1_555 1_555
C19 C18 1_555 1_555
N17 C53 1_555 1_555
C21 C12 1_555 1_555
C23 C9 1_555 1_555
H13 C23 1_555 1_555
C25 H15 1_555 1_555
C26 C2 1_555 1_555
N18 C1 1_555 1_555
C27 H16 1_555 1_555
C28 N1 1_555 1_555
C29 C14 1_555 1_555
H17 C29 1_555 1_555
C30 N4 1_555 1_555
H18 C30 1_555 1_555
C31 C2 1_555 1_555
H19 C31 1_555 1_555
C32 C21 1_555 1_555
C34 N11 1_555 1_555
H21 C34 1_555 1_555
C35 H22 1_555 1_555
C36 C35 1_555 1_555
C37 C36 1_555 1_555
H23 C37 1_555 1_555
C38 C37 1_555 1_555
H24_2 C38 1_555 1_555
N20 C38 1_555 1_555
C39 C35 1_555 1_555
H25 C39 1_555 1_555
C40 C12 1_555 1_555
C41 N12 1_555 1_555
H27 C41 1_555 1_555
C43 C15 1_555 1_555
H29 C43 1_555 1_555
C44 C6 1_555 1_555
H30 C45 1_555 1_555
C47 C1 1_555 1_555
C48 C4 1_555 1_555
C49 C41 1_555 1_555
H32 C49 1_555 1_555
C50 C44 1_555 1_555
H33 C50 1_555 1_555
N21 C23 1_555 1_555
C52 C16 1_555 1_555
H35 C52 1_555 1_555
N22 C32 1_555 1_555
C53 C48 1_555 1_555
C55 C43 1_555 1_555
C56 N12 1_555 1_555
H37 C56 1_555 1_555
N23 C28 1_555 1_555
C58 C30 1_555 1_555
H39 C58 1_555 1_555
C59 N7 1_555 1_555
C61 N17 1_555 1_555
C62 C26 1_555 1_555
H41 C62 1_555 1_555
C63 C21 1_555 1_555
H42 C63 1_555 1_555
C65 C5 1_555 1_555
H43 C65 1_555 1_555
C66 N2 1_555 1_555
I9 Zn5 1_555 1_555
Zn5 I10 1_555 1_555
Zn6 N11 1_555 1_555
I12 Zn6 1_555 1_555
C68_2 H45_2 1_555 1_555
C69 C68_2 1_555 1_555
H46 C69 1_555 1_555
N24 Zn5 1_555 1_555
C70_2 N24 1_555 1_555
H47_2 C70_2 1_555 1_555
C71_2 C70_2 1_555 1_555
H48_2 C71_2 1_555 1_555
C72_2 C28 1_555 1_555
Zn7 N20 1_555 1_555
N26 Zn5 1_555 1_555
C4 C45 1_555 1_555
C18 C34 1_555 1_555
C19 C29 1_555 1_555
C19 C59 1_555 1_555
C25 C65 1_555 1_555
N18 C61 1_555 1_555
C27 C63 1_555 1_555
C36 C66 1_555 1_555
N20 C39 1_555 1_555
C44 C49 1_555 1_555
C47 C52 1_555 1_555
C50 C56 1_555 1_555
C51 C62 1_555 1_555
N21 Zn6 1_555 1_555
N22 C66 1_555 1_555
C55 C58 1_555 1_555
C55 C61 1_555 1_555
N23 C59 1_555 1_555
C68_2 C72_2 1_555 1_555
C69 N24 1_555 1_555
C71_2 C72_2 1_555 1_555
I1_2 Zn7 1_555 1_555
I3_2 Zn7 1_555 1_555
I4_2 Zn1_2 1_555 1_555
I8_2 Zn1_2 1_555 1_555
Zn1_2 N10_2 1_555 1_555
Zn7 N3_2 1_555 1_555
C1_2 N8_2 1_555 1_555
N1_2 C11_2 1_555 1_555
N3_2 C13_2 1_555 1_555
C2_2 H1_2 1_555 1_555
C4_2 H2_2 1_555 1_555
N7_2 C11_2 1_555 1_555
N8_2 C53_2 1_555 1_555
C11_2 C26_2 1_555 1_555
N10_2 C31_2 1_555 1_555
N11_2 C14_2 1_555 1_555
C13_2 H5_2 1_555 1_555
C14_2 H6_2 1_555 1_555
N14_2 Zn1_2 1_555 1_555
C15_2 H7_2 1_555 1_555
C16_2 N14_2 1_555 1_555
H8_2 C16_2 1_555 1_555
C18_2 H10_2 1_555 1_555
C19_2 C18_2 1_555 1_555
N17_2 C53_2 1_555 1_555
C20_2 N14_2 1_555 1_555
H11_2 C20_2 1_555 1_555
C24_2 C13_2 1_555 1_555
H14_2 C24_2 1_555 1_555
C26_2 C2_2 1_555 1_555
N18_2 C1_2 1_555 1_555
C28_2 N1_2 1_555 1_555
C29_2 C14_2 1_555 1_555
H17_2 C29_2 1_555 1_555
C31_2 C2_2 1_555 1_555
H19_2 C31_2 1_555 1_555
C34_2 N11_2 1_555 1_555
H21_2 C34_2 1_555 1_555
C43_2 C15_2 1_555 1_555
H29_2 C43_2 1_555 1_555
C45_2 N3_2 1_555 1_555
H30_2 C45_2 1_555 1_555
C47_2 C1_2 1_555 1_555
C48_2 C4_2 1_555 1_555
C51_2 N10_2 1_555 1_555
H34_2 C51_2 1_555 1_555
C52_2 C16_2 1_555 1_555
H35_2 C52_2 1_555 1_555
C53_2 C48_2 1_555 1_555
C55_2 C43_2 1_555 1_555
N23_2 C28_2 1_555 1_555
C58_2 C30_2 1_555 1_555
H39_2 C58_2 1_555 1_555
C59_2 N7_2 1_555 1_555
C61_2 N17_2 1_555 1_555
C62_2 C26_2 1_555 1_555
H41_2 C62_2 1_555 1_555
C67_2 C20_2 1_555 1_555
H44_2 C67_2 1_555 1_555
Zn6_2 N11_2 1_555 1_555
I12_2 Zn6_2 1_555 1_555
C4_2 C45_2 1_555 1_555
C18_2 C34_2 1_555 1_555
C19_2 C29_2 1_555 1_555
C19_2 C59_2 1_555 1_555
C24_2 C48_2 1_555 1_555
N18_2 C61_2 1_555 1_555
C47_2 C52_2 1_555 1_555
C47_2 C67_2 1_555 1_555
C51_2 C62_2 1_555 1_555
N21_2 Zn6_2 1_555 1_555
C55_2 C58_2 1_555 1_555
C55_2 C61_2 1_555 1_555
N23_2 C59_2 1_555 1_555
I2_2 Zn3_2 1_555 1_555
I5_2 Zn3_2 1_555 1_555
I6 Zn4 1_555 1_555
I7 Zn4 1_555 1_555
Zn3_2 N4_2 1_555 1_555
Zn4 N16 1_555 1_555
N2_2 C6_2 1_555 1_555
C3_2 N6_2 1_555 1_555
N6_2 C7_2 1_555 1_555
C5_2 C7_2 1_555 1_555
C6_2 N15_2 1_555 1_555
C7_2 N13_2 1_555 1_555
C8_2 C3_2 1_555 1_555
C9_2 C8_2 1_555 1_555
H3_2 C9_2 1_555 1_555
C12_2 H4_2 1_555 1_555
N12_2 Zn3_2 1_555 1_555
N15_2 C32_2 1_555 1_555
N16 C27_2 1_555 1_555
C21_2 C12_2 1_555 1_555
C23_2 C9_2 1_555 1_555
C25_2 H15_2 1_555 1_555
C27_2 H16_2 1_555 1_555
N26 C25_2 1_555 1_555
C32_2 C21_2 1_555 1_555
C33 C5_2 1_555 1_555
H20 C33 1_555 1_555
C40_2 C12_2 1_555 1_555
H26 C40_2 1_555 1_555
C41_2 N12_2 1_555 1_555
H27_2 C41_2 1_555 1_555
C44_2 C6_2 1_555 1_555
C49_2 C41_2 1_555 1_555
H32_2 C49_2 1_555 1_555
C50_2 C44_2 1_555 1_555
H33_2 C50_2 1_555 1_555
N22_2 C32_2 1_555 1_555
C54 N26 1_555 1_555
H36 C54 1_555 1_555
C56_2 N12_2 1_555 1_555
H37_2 C56_2 1_555 1_555
C63_2 C21_2 1_555 1_555
H42_2 C63_2 1_555 1_555
C65_2 C5_2 1_555 1_555
H43_2 C65_2 1_555 1_555
C66_2 N2_2 1_555 1_555
N25 Zn4 1_555 1_555
N16 C40_2 1_555 1_555
C25_2 C65_2 1_555 1_555
C27_2 C63_2 1_555 1_555
C33 C54 1_555 1_555
C44_2 C49_2 1_555 1_555
C50_2 C56_2 1_555 1_555
N22_2 C66_2 1_555 1_555
C10 C22 1_555 1_555
N25 C42 1_555 1_555
H9 C17 1_555 1_555
C22 H12 1_555 1_555
C42 H28 1_555 1_555
C46 C17 1_555 1_555
H31 C46 1_555 1_555
C57 C10 1_555 1_555
H38 C57 1_555 1_555
C60 N25 1_555 1_555
H40 C60 1_555 1_555
C64 N5 1_555 1_555
C10 C64 1_555 1_555
C22 C60 1_555 1_555
C42 C57 1_555 1_555
C10_2 C22_2 1_555 1_555
H9_2 C17_2 1_555 1_555
C22_2 H12_2 1_555 1_555
C46_2 C17_2 1_555 1_555
H31_2 C46_2 1_555 1_555
H40_2 C60_2 1_555 1_555
C64_2 N5_2 1_555 1_555
C10_2 C64_2 1_555 1_555
C22_2 C60_2 1_555 1_555
I6_2 Zn4_2 1_555 1_555
I7_2 Zn4_2 1_555 1_555
Zn4_2 N16_2 1_555 1_555
H20_2 C33_2 1_555 1_555
C54_2 N19 1_555 1_555
H36_2 C54_2 1_555 1_555
N25_2 Zn4_2 1_555 1_555
Zn9 N19 1_555 1_555
C33_2 C54_2 1_555 1_555
N25_2 C42_2 1_555 1_555
C42_2 H28_2 1_555 1_555
H38_2 C57_2 1_555 1_555
C42_2 C57_2 1_555 1_555
C35_2 H22_2 1_555 1_555
C36_2 C35_2 1_555 1_555
C37_2 C36_2 1_555 1_555
H23_2 C37_2 1_555 1_555
C38_2 C37_2 1_555 1_555
C39_2 C35_2 1_555 1_555
H25_2 C39_2 1_555 1_555
I9_2 Zn9 1_555 1_555
Zn9 I10_2 1_555 1_555
H46_2 C69_2 1_555 1_555
N24_2 Zn9 1_555 1_555
C69_2 N24_2 1_555 1_555
I1_3 Zn2_2 1_555 1_555
I3_3 Zn2_2 1_555 1_555
I4_3 Zn1_3 1_555 1_555
I8_3 Zn1_3 1_555 1_555
Zn1_3 N10_3 1_555 1_555
Zn2_2 N3_3 1_555 1_555
N3_3 C13_3 1_555 1_555
C13_3 H5_3 1_555 1_555
N14_3 Zn1_3 1_555 1_555
C20_3 N14_3 1_555 1_555
H11_3 C20_3 1_555 1_555
C24_3 C13_3 1_555 1_555
H14_3 C24_3 1_555 1_555
C67_3 C20_3 1_555 1_555
H44_3 C67_3 1_555 1_555
N27_2 Zn2_2 1_555 1_555
C68_3 H45_3 1_555 1_555
H47_3 C70_3 1_555 1_555
C71_3 C70_3 1_555 1_555
H48_3 C71_3 1_555 1_555
C68_3 C72_3 1_555 1_555
C71_3 C72_3 1_555 1_555
C10_3 C22_3 1_555 1_555
H9_3 C17_3 1_555 1_555
C22_3 H12_3 1_555 1_555
C46_3 C17_3 1_555 1_555
H31_3 C46_3 1_555 1_555
H40_3 C60_3 1_555 1_555
C64_3 N5_3 1_555 1_555
C10_3 C64_3 1_555 1_555
C22_3 C60_3 1_555 1_555
I2_3 Zn3_3 1_555 1_555
I5_3 Zn3_3 1_555 1_555
Zn3_3 N4_3 1_555 1_555
C1_3 N8_3 1_555 1_555
N1_3 C11_3 1_555 1_555
N2_3 C6_3 1_555 1_555
N4_3 C15_3 1_555 1_555
C2_3 H1_3 1_555 1_555
C3_3 N6_3 1_555 1_555
N6_3 C7_3 1_555 1_555
C4_3 H2_3 1_555 1_555
N7_3 C11_3 1_555 1_555
C5_3 C7_3 1_555 1_555
N8_3 C53_3 1_555 1_555
C6_3 N15_3 1_555 1_555
C7_3 N13_3 1_555 1_555
C8_3 C3_3 1_555 1_555
C9_3 C8_3 1_555 1_555
H3_3 C9_3 1_555 1_555
C11_3 C26_3 1_555 1_555
C12_3 H4_3 1_555 1_555
N11_3 C14_3 1_555 1_555
N12_3 Zn3_3 1_555 1_555
C14_3 H6_3 1_555 1_555
C15_3 H7_3 1_555 1_555
H8_3 C16_3 1_555 1_555
C18_3 H10_3 1_555 1_555
N15_3 C32_3 1_555 1_555
C19_3 C18_3 1_555 1_555
N17_3 C53_3 1_555 1_555
C21_3 C12_3 1_555 1_555
C23_3 C9_3 1_555 1_555
H13_3 C23_3 1_555 1_555
C25_3 H15_3 1_555 1_555
C26_3 C2_3 1_555 1_555
N18_3 C1_3 1_555 1_555
C27_3 H16_3 1_555 1_555
C28_3 N1_3 1_555 1_555
C29_3 C14_3 1_555 1_555
H17_3 C29_3 1_555 1_555
C30_3 N4_3 1_555 1_555
H18_3 C30_3 1_555 1_555
C31_3 C2_3 1_555 1_555
H19_3 C31_3 1_555 1_555
C32_3 C21_3 1_555 1_555
C34_3 N11_3 1_555 1_555
H21_3 C34_3 1_555 1_555
C35_3 H22_3 1_555 1_555
C36_3 C35_3 1_555 1_555
C37_3 C36_3 1_555 1_555
H23_3 C37_3 1_555 1_555
C38_3 C37_3 1_555 1_555
H24_4 C38_3 1_555 1_555
N20_2 C38_3 1_555 1_555
C39_3 C35_3 1_555 1_555
H25_3 C39_3 1_555 1_555
C40_3 C12_3 1_555 1_555
C41_3 N12_3 1_555 1_555
H27_3 C41_3 1_555 1_555
C43_3 C15_3 1_555 1_555
H29_3 C43_3 1_555 1_555
C44_3 C6_3 1_555 1_555
H30_3 C45_3 1_555 1_555
C47_3 C1_3 1_555 1_555
C48_3 C4_3 1_555 1_555
C49_3 C41_3 1_555 1_555
H32_3 C49_3 1_555 1_555
C50_3 C44_3 1_555 1_555
H33_3 C50_3 1_555 1_555
N21_3 C23_3 1_555 1_555
C52_3 C16_3 1_555 1_555
H35_3 C52_3 1_555 1_555
N22_3 C32_3 1_555 1_555
C53_3 C48_3 1_555 1_555
C55_3 C43_3 1_555 1_555
C56_3 N12_3 1_555 1_555
H37_3 C56_3 1_555 1_555
N23_3 C28_3 1_555 1_555
C58_3 C30_3 1_555 1_555
H39_3 C58_3 1_555 1_555
C59_3 N7_3 1_555 1_555
C61_3 N17_3 1_555 1_555
C62_3 C26_3 1_555 1_555
H41_3 C62_3 1_555 1_555
C63_3 C21_3 1_555 1_555
H42_3 C63_3 1_555 1_555
C65_3 C5_3 1_555 1_555
H43_3 C65_3 1_555 1_555
C66_3 N2_3 1_555 1_555
I9_3 Zn5_2 1_555 1_555
Zn5_2 I10_3 1_555 1_555
Zn6_3 N11_3 1_555 1_555
I12_3 Zn6_3 1_555 1_555
C68_4 H45_4 1_555 1_555
C69_3 C68_4 1_555 1_555
H46_3 C69_3 1_555 1_555
N24_3 Zn5_2 1_555 1_555
C70_4 N24_3 1_555 1_555
H47_4 C70_4 1_555 1_555
C71_4 C70_4 1_555 1_555
H48_4 C71_4 1_555 1_555
C72_4 C28_3 1_555 1_555
Zn7_2 N20_2 1_555 1_555
N26_2 Zn5_2 1_555 1_555
C4_3 C45_3 1_555 1_555
C18_3 C34_3 1_555 1_555
C19_3 C29_3 1_555 1_555
C19_3 C59_3 1_555 1_555
C25_3 C65_3 1_555 1_555
N18_3 C61_3 1_555 1_555
C27_3 C63_3 1_555 1_555
C36_3 C66_3 1_555 1_555
N20_2 C39_3 1_555 1_555
C44_3 C49_3 1_555 1_555
C47_3 C52_3 1_555 1_555
C50_3 C56_3 1_555 1_555
C51_3 C62_3 1_555 1_555
N21_3 Zn6_3 1_555 1_555
N22_3 C66_3 1_555 1_555
C55_3 C58_3 1_555 1_555
C55_3 C61_3 1_555 1_555
N23_3 C59_3 1_555 1_555
C68_4 C72_4 1_555 1_555
C69_3 N24_3 1_555 1_555
C71_4 C72_4 1_555 1_555
I1_4 Zn7_2 1_555 1_555
I3_4 Zn7_2 1_555 1_555
I4_4 Zn1_4 1_555 1_555
I8_4 Zn1_4 1_555 1_555
Zn1_4 N10_4 1_555 1_555
Zn7_2 N3_4 1_555 1_555
C1_4 N8_4 1_555 1_555
N1_4 C11_4 1_555 1_555
N3_4 C13_4 1_555 1_555
C2_4 H1_4 1_555 1_555
C4_4 H2_4 1_555 1_555
N7_4 C11_4 1_555 1_555
N8_4 C53_4 1_555 1_555
C11_4 C26_4 1_555 1_555
N10_4 C31_4 1_555 1_555
N11_4 C14_4 1_555 1_555
C13_4 H5_4 1_555 1_555
C14_4 H6_4 1_555 1_555
N14_4 Zn1_4 1_555 1_555
C15_4 H7_4 1_555 1_555
C16_4 N14_4 1_555 1_555
H8_4 C16_4 1_555 1_555
C18_4 H10_4 1_555 1_555
C19_4 C18_4 1_555 1_555
N17_4 C53_4 1_555 1_555
C20_4 N14_4 1_555 1_555
H11_4 C20_4 1_555 1_555
C24_4 C13_4 1_555 1_555
H14_4 C24_4 1_555 1_555
C26_4 C2_4 1_555 1_555
N18_4 C1_4 1_555 1_555
C28_4 N1_4 1_555 1_555
C29_4 C14_4 1_555 1_555
H17_4 C29_4 1_555 1_555
C31_4 C2_4 1_555 1_555
H19_4 C31_4 1_555 1_555
C34_4 N11_4 1_555 1_555
H21_4 C34_4 1_555 1_555
C43_4 C15_4 1_555 1_555
H29_4 C43_4 1_555 1_555
C45_4 N3_4 1_555 1_555
H30_4 C45_4 1_555 1_555
C47_4 C1_4 1_555 1_555
C48_4 C4_4 1_555 1_555
C51_4 N10_4 1_555 1_555
H34_4 C51_4 1_555 1_555
C52_4 C16_4 1_555 1_555
H35_4 C52_4 1_555 1_555
C53_4 C48_4 1_555 1_555
C55_4 C43_4 1_555 1_555
N23_4 C28_4 1_555 1_555
C58_4 C30_4 1_555 1_555
H39_4 C58_4 1_555 1_555
C59_4 N7_4 1_555 1_555
C61_4 N17_4 1_555 1_555
C62_4 C26_4 1_555 1_555
H41_4 C62_4 1_555 1_555
C67_4 C20_4 1_555 1_555
H44_4 C67_4 1_555 1_555
Zn6_4 N11_4 1_555 1_555
I12_4 Zn6_4 1_555 1_555
C4_4 C45_4 1_555 1_555
C18_4 C34_4 1_555 1_555
C19_4 C29_4 1_555 1_555
C19_4 C59_4 1_555 1_555
C24_4 C48_4 1_555 1_555
N18_4 C61_4 1_555 1_555
C47_4 C52_4 1_555 1_555
C47_4 C67_4 1_555 1_555
C51_4 C62_4 1_555 1_555
N21_4 Zn6_4 1_555 1_555
C55_4 C58_4 1_555 1_555
C55_4 C61_4 1_555 1_555
N23_4 C59_4 1_555 1_555
C10_4 C22_4 1_555 1_555
N9 C42_3 1_555 1_555
H9_4 C17_4 1_555 1_555
C22_4 H12_4 1_555 1_555
C42_3 H28_3 1_555 1_555
C46_4 C17_4 1_555 1_555
H31_4 C46_4 1_555 1_555
C57_3 C10_4 1_555 1_555
H38_3 C57_3 1_555 1_555
C60_4 N9 1_555 1_555
H40_4 C60_4 1_555 1_555
C64_4 N5_4 1_555 1_555
Zn8 N9 1_555 1_555
C10_4 C64_4 1_555 1_555
C22_4 C60_4 1_555 1_555
C42_3 C57_3 1_555 1_555
I2_4 Zn3_4 1_555 1_555
I5_4 Zn3_4 1_555 1_555
I6_3 Zn8 1_555 1_555
I7_3 Zn8 1_555 1_555
Zn3_4 N4_4 1_555 1_555
Zn8 N16_3 1_555 1_555
N2_4 C6_4 1_555 1_555
C3_4 N6_4 1_555 1_555
N6_4 C7_4 1_555 1_555
C5_4 C7_4 1_555 1_555
C6_4 N15_4 1_555 1_555
C7_4 N13_4 1_555 1_555
C8_4 C3_4 1_555 1_555
C9_4 C8_4 1_555 1_555
H3_4 C9_4 1_555 1_555
C12_4 H4_4 1_555 1_555
N12_4 Zn3_4 1_555 1_555
N15_4 C32_4 1_555 1_555
N16_3 C27_4 1_555 1_555
C21_4 C12_4 1_555 1_555
C23_4 C9_4 1_555 1_555
C25_4 H15_4 1_555 1_555
C27_4 H16_4 1_555 1_555
N26_2 C25_4 1_555 1_555
C32_4 C21_4 1_555 1_555
C33_3 C5_4 1_555 1_555
H20_3 C33_3 1_555 1_555
C40_4 C12_4 1_555 1_555
H26_3 C40_4 1_555 1_555
C41_4 N12_4 1_555 1_555
H27_4 C41_4 1_555 1_555
C44_4 C6_4 1_555 1_555
C49_4 C41_4 1_555 1_555
H32_4 C49_4 1_555 1_555
C50_4 C44_4 1_555 1_555
H33_4 C50_4 1_555 1_555
N22_4 C32_4 1_555 1_555
C54_3 N26_2 1_555 1_555
H36_3 C54_3 1_555 1_555
C56_4 N12_4 1_555 1_555
H37_4 C56_4 1_555 1_555
C63_4 C21_4 1_555 1_555
H42_4 C63_4 1_555 1_555
C65_4 C5_4 1_555 1_555
H43_4 C65_4 1_555 1_555
C66_4 N2_4 1_555 1_555
N16_3 C40_4 1_555 1_555
C25_4 C65_4 1_555 1_555
C27_4 C63_4 1_555 1_555
C33_3 C54_3 1_555 1_555
C44_4 C49_4 1_555 1_555
C50_4 C56_4 1_555 1_555
N22_4 C66_4 1_555 1_555
N9_2 C42_4 1_555 1_555
C42_4 H28_4 1_555 1_555
H38_4 C57_4 1_555 1_555
Zn8_2 N9_2 1_555 1_555
C42_4 C57_4 1_555 1_555
I6_4 Zn8_2 1_555 1_555
I7_4 Zn8_2 1_555 1_555
Zn8_2 N16_4 1_555 1_555
H20_4 C33_4 1_555 1_555
C54_4 N19_2 1_555 1_555
H36_4 C54_4 1_555 1_555
Zn9_2 N19_2 1_555 1_555
C33_4 C54_4 1_555 1_555
C35_4 H22_4 1_555 1_555
C36_4 C35_4 1_555 1_555
C37_4 C36_4 1_555 1_555
H23_4 C37_4 1_555 1_555
C38_4 C37_4 1_555 1_555
C39_4 C35_4 1_555 1_555
H25_4 C39_4 1_555 1_555
I9_4 Zn9_2 1_555 1_555
Zn9_2 I10_4 1_555 1_555
H46_4 C69_4 1_555 1_555
N24_4 Zn9_2 1_555 1_555
C69_4 N24_4 1_555 1_555

#END
