
###############################################################################
#
# This file contains modified crystal structure data generated from the
# MOF subset of the Cambridge Structural Database (CSD) v543 
# hosted by the Cambridge Crystallographic Data Centre (CCDC).
#
# This work is licensed under the Creative Commons
# Attribution-NonCommercial-ShareAlike 4.0 International License.
# To view a copy of this license, visit
# http://creativecommons.org/licenses/by-nc-sa/4.0/
# or send a letter to
# Creative Commons, PO Box 1866, Mountain View, CA 94042, USA.
#
# CIF created using the CSD Python API on 29 September 2022
# The structure has been converted into the P1 space group
# The structure has a 3D framework
# The original CSD entry QEDZEG is in the monoclinic crystal system
# The framework has been calculated to contain at least 10.0% void space
# The void calculation uses a probe of radius 1.32A, grid spacing 0.4
#
###############################################################################

data_QEDZEG
_chemical_formula_moiety         '(C136 H72 O22 Zn2)n'
_symmetry_cell_setting           triclinic
_symmetry_space_group_name_H-M   'P 1'
_symmetry_Int_Tables_number      1
_space_group_name_Hall           'P 1'
loop_
_symmetry_equiv_pos_site_id
_symmetry_equiv_pos_as_xyz
1 x,y,z
_cell_length_a                   31.97(4)
_cell_length_b                   6.334(9)
_cell_length_c                   20.49(3)
_cell_angle_alpha                90
_cell_angle_beta                 120.078(13)
_cell_angle_gamma                90
_cell_volume                     3590.47
loop_
_atom_site_label
_atom_site_type_symbol
_atom_site_fract_x
_atom_site_fract_y
_atom_site_fract_z
O4 O 0.0703(3) 0.0568(15) 0.5143(5)
Zn5 Zn 0.02347(5) 0.2488(3) 0.51248(9)
O1 O 0.0220(3) 0.2817(14) 0.0926(5)
O2 O 0.0183(3) 0.8033(17) 0.4462(5)
O3 O 0.0667(4) 0.5489(15) 0.0837(6)
C1 C 0.1316(5) 0.519(2) 0.2385(9)
H1 H 0.1302 0.6465 0.2130
C2 C 0.1662(5) 0.499(3) 0.3115(8)
H2 H 0.1874 0.6137 0.3369
C3 C 0.1377(6) 0.143(3) 0.3082(10)
H3 H 0.1395 0.0096 0.3306
C4 C 0.1010(6) 0.178(3) 0.2320(9)
H4 H 0.0786 0.0688 0.2047
C5 C 0.2089(5) 0.272(2) 0.4258(8)
C6 C 0.0879(6) 0.564(3) 0.4385(9)
H5 H 0.0563 0.5054 0.4148
C7 C 0.0595(5) 0.401(2) 0.1195(9)
C8 C 0.0979(5) 0.363(3) 0.1987(8)
C9 C 0.0604(5) 0.887(2) 0.4773(7)
C10 C 0.1708(4) 0.527(3) 0.4778(7)
C11 C 0.1263(5) 0.460(2) 0.4441(8)
H6 H 0.1203 0.3241 0.4213
C12 C 0.0984(5) 0.768(3) 0.4709(9)
C13 C 0.1711(4) 0.301(3) 0.3513(8)
C14 C 0.2468(6) 0.139(3) 0.4409(8)
H7 H 0.2458 0.0636 0.4002
C15 C 0.2134(5) 0.390(2) 0.4868(7)
C16 C 0.1450(5) 0.853(3) 0.5063(8)
H8 H 0.1509 0.9914 0.5272
C17 C 0.1807(5) 0.738(2) 0.5102(8)
H9 H 0.2127 0.7921 0.5342
Zn4 Zn 0.02347(5) 0.7512(3) 0.01248(9)
O5 O 0.4780(3) 0.2183(14) 0.9074(5)
C19 C 0.3338(5) 0.001(3) 0.6885(8)
C20 C 0.3623(6) 0.357(3) 0.6918(10)
H12 H 0.3605 0.4904 0.6694
C21 C 0.3990(6) 0.322(3) 0.7680(9)
H13 H 0.4214 0.4312 0.7953
C22 C 0.2911(5) 0.228(2) 0.5742(8)
C24 C 0.4405(5) 0.099(2) 0.8805(9)
C25 C 0.4021(5) 0.137(3) 0.8013(8)
C28 C 0.3737(5) 0.040(2) 0.5559(8)
H15 H 0.3797 0.1759 0.5787
C30 C 0.3289(4) 0.199(3) 0.6487(8)
C31 C 0.2532(6) 0.361(3) 0.5591(8)
H16 H 0.2542 0.4364 0.5998
C32 C 0.2866(5) 0.110(2) 0.5132(7)
O7 O 0.0183(3) 0.1967(17) 0.9462(5)
O14 O 0.0703(3) 0.9432(15) 0.0143(5)
O10 O 0.0667(4) 0.4511(15) 0.5837(6)
O5_2 O 0.0220(3) 0.7183(14) 0.5926(5)
C18 C 0.1316(5) 0.481(2) 0.7385(9)
H10 H 0.1302 0.3535 0.7130
C19_2 C 0.1662(5) 0.501(3) 0.8115(8)
H11 H 0.1874 0.3863 0.8369
C20_2 C 0.1377(6) 0.857(3) 0.8082(10)
H12_2 H 0.1395 0.9904 0.8306
C21_2 C 0.1010(6) 0.822(3) 0.7320(9)
H13_2 H 0.0786 0.9312 0.7047
C22_2 C 0.2089(5) 0.728(2) 0.9258(8)
C23 C 0.0879(6) 0.436(3) 0.9385(9)
H14 H 0.0563 0.4946 0.9148
C24_2 C 0.0595(5) 0.599(2) 0.6195(9)
C25_2 C 0.0979(5) 0.637(3) 0.6987(8)
C26 C 0.0604(5) 0.113(2) 0.9773(7)
C27 C 0.1708(4) 0.473(3) 0.9778(7)
C28_2 C 0.1263(5) 0.540(2) 0.9441(8)
H15_2 H 0.1203 0.6759 0.9213
C29 C 0.0984(5) 0.232(3) 0.9709(9)
C30_2 C 0.1711(4) 0.699(3) 0.8513(8)
C31_2 C 0.2468(6) 0.861(3) 0.9409(8)
H16_2 H 0.2458 0.9364 0.9002
C32_2 C 0.2134(5) 0.610(2) 0.9868(7)
Zn2 Zn 0.52347(5) 0.2512(3) 0.01248(9)
O8 O 0.4817(3) 0.3033(17) 0.0538(5)
O11 O 0.5667(4) 0.0489(15) 0.0837(6)
O14_2 O 0.5703(3) 0.4432(15) 0.0143(5)
Zn6 Zn 0.47653(5) 0.7488(3) 0.98752(9)
Zn7 Zn 0.52347(5) 0.7488(3) 0.51248(9)
Zn8 Zn 0.47653(5) 0.2512(3) 0.48752(9)
O6 O 0.4817(3) 0.6967(17) 0.5538(5)
O9 O 0.4333(4) 0.9511(15) 0.9163(6)
O12 O 0.4297(3) 0.4432(15) 0.4857(5)
C18_2 C 0.3684(5) 0.981(2) 0.7615(9)
H10_2 H 0.3698 0.8535 0.7870
H11_2 H 0.3126 0.8863 0.6631
C23_2 C 0.4121(6) 0.936(3) 0.5615(9)
H14_2 H 0.4437 0.9946 0.5852
C26_2 C 0.4396(5) 0.613(2) 0.5227(7)
C27_2 C 0.3292(4) 0.973(3) 0.5222(7)
C29_2 C 0.4016(5) 0.732(3) 0.5291(9)
C33 C 0.3550(5) 0.647(3) 0.4937(8)
H17 H 0.3491 0.5086 0.4728
C34 C 0.3193(5) 0.762(2) 0.4898(8)
H18 H 0.2873 0.7079 0.4658
O2_2 O 0.5183(3) 0.3033(17) 0.4462(5)
O4_2 O 0.5703(3) 0.5568(15) 0.5143(5)
C1_2 C 0.6316(5) 0.019(2) 0.2385(9)
H1_2 H 0.6302 0.1465 0.2130
H2_2 H 0.6874 0.1137 0.3369
C6_2 C 0.5879(6) 0.064(3) 0.4385(9)
H5_2 H 0.5563 0.0054 0.4148
C9_2 C 0.5604(5) 0.387(2) 0.4773(7)
C10_2 C 0.6708(4) 0.027(3) 0.4778(7)
C12_2 C 0.5984(5) 0.268(3) 0.4709(9)
C16_2 C 0.6450(5) 0.353(3) 0.5063(8)
H8_2 H 0.6509 0.4914 0.5272
C17_2 C 0.6807(5) 0.238(2) 0.5102(8)
H9_2 H 0.7127 0.2921 0.5342
O7_2 O 0.5183(3) 0.6967(17) 0.9462(5)
O13 O 0.4297(3) 0.5568(15) 0.9857(5)
C16_3 C 0.8550(5) 0.853(3) 0.9937(8)
H8_3 H 0.8491 0.9914 0.9728
C17_3 C 0.8193(5) 0.738(2) 0.9898(8)
H9_3 H 0.7873 0.7921 0.9658
O5_3 O 0.5220(3) 0.2183(14) 0.5926(5)
O11_2 O 0.4333(4) 0.0489(15) 0.4163(6)
C19_3 C 0.6662(5) 0.001(3) 0.8115(8)
C20_3 C 0.6377(6) 0.357(3) 0.8082(10)
H12_3 H 0.6395 0.4904 0.8306
C21_3 C 0.6010(6) 0.322(3) 0.7320(9)
H13_3 H 0.5786 0.4312 0.7047
C22_3 C 0.7089(5) 0.228(2) 0.9258(8)
C24_3 C 0.5595(5) 0.099(2) 0.6195(9)
C25_3 C 0.5979(5) 0.137(3) 0.6987(8)
C28_3 C 0.6263(5) 0.040(2) 0.9441(8)
H15_3 H 0.6203 0.1759 0.9213
C30_3 C 0.6711(4) 0.199(3) 0.8513(8)
C31_3 C 0.7468(6) 0.361(3) 0.9409(8)
H16_3 H 0.7458 0.4364 0.9002
C32_3 C 0.7134(5) 0.110(2) 0.9868(7)
C33_2 C 0.6450(5) 0.647(3) 0.0063(8)
H17_2 H 0.6509 0.5086 0.0272
C34_2 C 0.6807(5) 0.762(2) 0.0102(8)
H18_2 H 0.7127 0.7079 0.0342
O9_2 O 0.5667(4) 0.9511(15) 0.5837(6)
C18_3 C 0.6316(5) 0.981(2) 0.7385(9)
H10_3 H 0.6302 0.8535 0.7130
H11_3 H 0.6874 0.8863 0.8369
C23_3 C 0.5879(6) 0.936(3) 0.9385(9)
H14_3 H 0.5563 0.9946 0.9148
C26_3 C 0.5604(5) 0.613(2) 0.9773(7)
C27_3 C 0.6708(4) 0.973(3) 0.9778(7)
C29_3 C 0.5984(5) 0.732(3) 0.9709(9)
C1_3 C 0.3684(5) 0.019(2) 0.2615(9)
H1_3 H 0.3698 0.1465 0.2870
H2_3 H 0.3126 0.1137 0.1631
C6_3 C 0.4121(6) 0.064(3) 0.0615(9)
H5_3 H 0.4437 0.0054 0.0852
C9_3 C 0.4396(5) 0.387(2) 0.0227(7)
C10_3 C 0.3292(4) 0.027(3) 0.0222(7)
C12_3 C 0.4016(5) 0.268(3) 0.0291(9)
C16_4 C 0.3550(5) 0.353(3) 0.9937(8)
H8_4 H 0.3491 0.4914 0.9728
C17_4 C 0.3193(5) 0.238(2) 0.9898(8)
H9_4 H 0.2873 0.2921 0.9658
O1_2 O 0.4780(3) 0.7817(14) 0.4074(5)
C2_2 C 0.3338(5) 0.999(3) 0.1885(8)
C3_2 C 0.3623(6) 0.643(3) 0.1918(10)
H3_2 H 0.3605 0.5096 0.1694
C4_2 C 0.3990(6) 0.678(3) 0.2680(9)
H4_2 H 0.4214 0.5688 0.2953
C5_2 C 0.2911(5) 0.772(2) 0.0742(8)
C7_2 C 0.4405(5) 0.901(2) 0.3805(9)
C8_2 C 0.4021(5) 0.863(3) 0.3013(8)
C11_2 C 0.3737(5) 0.960(2) 0.0559(8)
H6_2 H 0.3797 0.8241 0.0787
C13_2 C 0.3289(4) 0.801(3) 0.1487(8)
C14_2 C 0.2532(6) 0.639(3) 0.0591(8)
H7_2 H 0.2542 0.5636 0.0998
C15_2 C 0.2866(5) 0.890(2) 0.0132(7)
C33_3 C 0.1450(5) 0.147(3) 0.0063(8)
H17_3 H 0.1509 0.0086 0.0272
C34_3 C 0.1807(5) 0.262(2) 0.0102(8)
H18_3 H 0.2127 0.2079 0.0342
Zn3 Zn 0.97653(5) 0.7512(3) 0.48752(9)
Zn1 Zn 0.97653(5) 0.2488(3) 0.98752(9)
O10_2 O 0.9333(4) 0.4511(15) 0.9163(6)
O13_2 O 0.9297(3) 0.0568(15) 0.9857(5)
O8_2 O 0.9817(3) 0.8033(17) 0.0538(5)
O1_3 O 0.5220(3) 0.7817(14) 0.0926(5)
C2_3 C 0.6662(5) 0.999(3) 0.3115(8)
C3_3 C 0.6377(6) 0.643(3) 0.3082(10)
H3_3 H 0.6395 0.5096 0.3306
C4_3 C 0.6010(6) 0.678(3) 0.2320(9)
H4_3 H 0.5786 0.5688 0.2047
C5_3 C 0.7089(5) 0.772(2) 0.4258(8)
C7_3 C 0.5595(5) 0.901(2) 0.1195(9)
C8_3 C 0.5979(5) 0.863(3) 0.1987(8)
C11_3 C 0.6263(5) 0.960(2) 0.4441(8)
H6_3 H 0.6203 0.8241 0.4213
C13_3 C 0.6711(4) 0.801(3) 0.3513(8)
C14_3 C 0.7468(6) 0.639(3) 0.4409(8)
H7_3 H 0.7458 0.5636 0.4002
C15_3 C 0.7134(5) 0.890(2) 0.4868(7)
O5_4 O 0.9780(3) 0.7183(14) 0.9074(5)
O6_2 O 0.9817(3) 0.1967(17) 0.5538(5)
C18_4 C 0.8684(5) 0.481(2) 0.7615(9)
H10_4 H 0.8698 0.3535 0.7870
C19_4 C 0.8338(5) 0.501(3) 0.6885(8)
H11_4 H 0.8126 0.3863 0.6631
C20_4 C 0.8623(6) 0.857(3) 0.6918(10)
H12_4 H 0.8605 0.9904 0.6694
C21_4 C 0.8990(6) 0.822(3) 0.7680(9)
H13_4 H 0.9214 0.9312 0.7953
C22_4 C 0.7911(5) 0.728(2) 0.5742(8)
C23_4 C 0.9121(6) 0.436(3) 0.5615(9)
H14_4 H 0.9437 0.4946 0.5852
C24_4 C 0.9405(5) 0.599(2) 0.8805(9)
C25_4 C 0.9021(5) 0.637(3) 0.8013(8)
C26_4 C 0.9396(5) 0.113(2) 0.5227(7)
C27_4 C 0.8292(4) 0.473(3) 0.5222(7)
C28_4 C 0.8737(5) 0.540(2) 0.5559(8)
H15_4 H 0.8797 0.6759 0.5787
C29_4 C 0.9016(5) 0.232(3) 0.5291(9)
C30_4 C 0.8289(4) 0.699(3) 0.6487(8)
C31_4 C 0.7532(6) 0.861(3) 0.5591(8)
H16_4 H 0.7542 0.9364 0.5998
C32_4 C 0.7866(5) 0.610(2) 0.5132(7)
C33_4 C 0.8550(5) 0.147(3) 0.4937(8)
H17_4 H 0.8491 0.0086 0.4728
C34_4 C 0.8193(5) 0.262(2) 0.4898(8)
H18_4 H 0.7873 0.2079 0.4658
O12_2 O 0.9297(3) 0.9432(15) 0.4857(5)
O1_4 O 0.9780(3) 0.2817(14) 0.4074(5)
O3_2 O 0.9333(4) 0.5489(15) 0.4163(6)
C1_4 C 0.8684(5) 0.519(2) 0.2615(9)
H1_4 H 0.8698 0.6465 0.2870
C2_4 C 0.8338(5) 0.499(3) 0.1885(8)
H2_4 H 0.8126 0.6137 0.1631
C3_4 C 0.8623(6) 0.143(3) 0.1918(10)
H3_4 H 0.8605 0.0096 0.1694
C4_4 C 0.8990(6) 0.178(3) 0.2680(9)
H4_4 H 0.9214 0.0688 0.2953
C5_4 C 0.7911(5) 0.272(2) 0.0742(8)
C6_4 C 0.9121(6) 0.564(3) 0.0615(9)
H5_4 H 0.9437 0.5054 0.0852
C7_4 C 0.9405(5) 0.401(2) 0.3805(9)
C8_4 C 0.9021(5) 0.363(3) 0.3013(8)
C9_4 C 0.9396(5) 0.887(2) 0.0227(7)
C10_4 C 0.8292(4) 0.527(3) 0.0222(7)
C11_4 C 0.8737(5) 0.460(2) 0.0559(8)
H6_4 H 0.8797 0.3241 0.0787
C12_4 C 0.9016(5) 0.768(3) 0.0291(9)
C13_4 C 0.8289(4) 0.301(3) 0.1487(8)
C14_4 C 0.7532(6) 0.139(3) 0.0591(8)
H7_4 H 0.7542 0.0636 0.0998
C15_4 C 0.7866(5) 0.390(2) 0.0132(7)
loop_
_geom_bond_atom_site_label_1
_geom_bond_atom_site_label_2
_geom_bond_site_symmetry_1
_geom_bond_site_symmetry_2
Zn5 O4 1_555 1_555
O1 C7 1_555 1_555
O2 C9 1_555 1_555
O3 C7 1_555 1_555
C1 H1 1_555 1_555
C2 C1 1_555 1_555
H2 C2 1_555 1_555
C3 H3 1_555 1_555
C4 C3 1_555 1_555
H4 C4 1_555 1_555
C5 C13 1_555 1_555
C6 H5 1_555 1_555
C7 C8 1_555 1_555
C8 C1 1_555 1_555
C9 C12 1_555 1_555
C10 C11 1_555 1_555
C11 C6 1_555 1_555
H6 C11 1_555 1_555
C12 C6 1_555 1_555
C13 C2 1_555 1_555
C14 C5 1_555 1_555
H7 C14 1_555 1_555
C15 C5 1_555 1_555
C16 C12 1_555 1_555
H8 C16 1_555 1_555
C17 C10 1_555 1_555
H9 C17 1_555 1_555
Zn4 O3 1_555 1_555
O5 C24 1_555 1_555
C20 H12 1_555 1_555
C21 C20 1_555 1_555
H13 C21 1_555 1_555
C22 C30 1_555 1_555
C24 C25 1_555 1_555
H15 C28 1_555 1_555
C30 C19 1_555 1_555
C31 C15 1_555 1_555
H16 C31 1_555 1_555
C32 C14 1_555 1_555
C3 C13 1_555 1_555
C4 C8 1_555 1_555
C10 C15 1_555 1_555
C16 C17 1_555 1_555
C20 C30 1_555 1_555
C21 C25 1_555 1_555
C22 C31 1_555 1_555
C22 C32 1_555 1_555
O14 Zn4 1_555 1_555
O10 Zn5 1_555 1_555
O5_2 C24_2 1_555 1_555
O7 C26 1_555 1_555
O10 C24_2 1_555 1_555
C18 H10 1_555 1_555
C19_2 C18 1_555 1_555
H11 C19_2 1_555 1_555
C20_2 H12_2 1_555 1_555
C21_2 C20_2 1_555 1_555
H13_2 C21_2 1_555 1_555
C22_2 C30_2 1_555 1_555
C23 H14 1_555 1_555
C24_2 C25_2 1_555 1_555
C25_2 C18 1_555 1_555
C26 C29 1_555 1_555
C27 C28_2 1_555 1_555
C28_2 C23 1_555 1_555
H15_2 C28_2 1_555 1_555
C29 C23 1_555 1_555
C30_2 C19_2 1_555 1_555
H16_2 C31_2 1_555 1_555
C20_2 C30_2 1_555 1_555
C21_2 C25_2 1_555 1_555
C22_2 C31_2 1_555 1_555
C22_2 C32_2 1_555 1_555
C27 C32_2 1_555 1_555
O8 Zn2 1_555 1_555
O11 Zn2 1_555 1_555
O14_2 Zn2 1_555 1_555
Zn6 O9 1_555 1_555
Zn7 O6 1_555 1_555
Zn8 O12 1_555 1_555
O6 C26_2 1_555 1_555
O12 C26_2 1_555 1_555
C18_2 H10_2 1_555 1_555
C23_2 H14_2 1_555 1_555
C26_2 C29_2 1_555 1_555
C29_2 C23_2 1_555 1_555
C33 C29_2 1_555 1_555
H17 C33 1_555 1_555
C34 C27_2 1_555 1_555
H18 C34 1_555 1_555
C33 C34 1_555 1_555
O2_2 C9_2 1_555 1_555
O4_2 C9_2 1_555 1_555
C1_2 H1_2 1_555 1_555
C6_2 H5_2 1_555 1_555
C9_2 C12_2 1_555 1_555
C12_2 C6_2 1_555 1_555
C16_2 C12_2 1_555 1_555
H8_2 C16_2 1_555 1_555
C17_2 C10_2 1_555 1_555
H9_2 C17_2 1_555 1_555
Zn8 O2_2 1_555 1_555
Zn7 O4_2 1_555 1_555
C16_2 C17_2 1_555 1_555
O7_2 Zn6 1_555 1_555
O13 Zn6 1_555 1_555
H8_3 C16_3 1_555 1_555
H9_3 C17_3 1_555 1_555
Zn8 O5_3 1_555 1_555
O5_3 C24_3 1_555 1_555
O11_2 Zn8 1_555 1_555
C20_3 H12_3 1_555 1_555
C21_3 C20_3 1_555 1_555
H13_3 C21_3 1_555 1_555
C22_3 C30_3 1_555 1_555
C24_3 C25_3 1_555 1_555
H15_3 C28_3 1_555 1_555
C30_3 C19_3 1_555 1_555
H16_3 C31_3 1_555 1_555
C16_3 C17_3 1_555 1_555
C20_3 C30_3 1_555 1_555
C21_3 C25_3 1_555 1_555
C22_3 C31_3 1_555 1_555
C22_3 C32_3 1_555 1_555
H17_2 C33_2 1_555 1_555
H18_2 C34_2 1_555 1_555
C33_2 C34_2 1_555 1_555
Zn7 O9_2 1_555 1_555
O7_2 C26_3 1_555 1_555
C18_3 H10_3 1_555 1_555
C23_3 H14_3 1_555 1_555
C26_3 C29_3 1_555 1_555
C29_3 C23_3 1_555 1_555
O8 C9_3 1_555 1_555
C1_3 H1_3 1_555 1_555
C6_3 H5_3 1_555 1_555
C9_3 C12_3 1_555 1_555
C12_3 C6_3 1_555 1_555
H8_4 C16_4 1_555 1_555
H9_4 C17_4 1_555 1_555
C16_4 C17_4 1_555 1_555
Zn7 O1_2 1_555 1_555
O1_2 C7_2 1_555 1_555
C3_2 H3_2 1_555 1_555
C4_2 C3_2 1_555 1_555
H4_2 C4_2 1_555 1_555
C5_2 C13_2 1_555 1_555
C7_2 C8_2 1_555 1_555
H6_2 C11_2 1_555 1_555
C13_2 C2_2 1_555 1_555
C14_2 C5_2 1_555 1_555
H7_2 C14_2 1_555 1_555
C15_2 C5_2 1_555 1_555
H17_3 C33_3 1_555 1_555
H18_3 C34_3 1_555 1_555
C3_2 C13_2 1_555 1_555
C4_2 C8_2 1_555 1_555
C33_3 C34_3 1_555 1_555
O10_2 Zn1 1_555 1_555
O13_2 Zn1 1_555 1_555
O1_3 C7_3 1_555 1_555
C3_3 H3_3 1_555 1_555
C4_3 C3_3 1_555 1_555
H4_3 C4_3 1_555 1_555
C5_3 C13_3 1_555 1_555
C7_3 C8_3 1_555 1_555
H6_3 C11_3 1_555 1_555
C13_3 C2_3 1_555 1_555
C14_3 C5_3 1_555 1_555
H7_3 C14_3 1_555 1_555
C15_3 C5_3 1_555 1_555
O5_4 C24_4 1_555 1_555
O6_2 C26_4 1_555 1_555
O10_2 C24_4 1_555 1_555
C18_4 H10_4 1_555 1_555
C19_4 C18_4 1_555 1_555
H11_4 C19_4 1_555 1_555
C20_4 H12_4 1_555 1_555
C21_4 C20_4 1_555 1_555
H13_4 C21_4 1_555 1_555
C22_4 C30_4 1_555 1_555
C23_4 H14_4 1_555 1_555
C24_4 C25_4 1_555 1_555
C25_4 C18_4 1_555 1_555
C26_4 C29_4 1_555 1_555
C27_4 C28_4 1_555 1_555
C28_4 C23_4 1_555 1_555
H15_4 C28_4 1_555 1_555
C29_4 C23_4 1_555 1_555
C30_4 C19_4 1_555 1_555
C31_4 C15_3 1_555 1_555
H16_4 C31_4 1_555 1_555
C32_4 C14_3 1_555 1_555
C33_4 C29_4 1_555 1_555
H17_4 C33_4 1_555 1_555
C34_4 C27_4 1_555 1_555
H18_4 C34_4 1_555 1_555
C3_3 C13_3 1_555 1_555
C4_3 C8_3 1_555 1_555
C20_4 C30_4 1_555 1_555
C21_4 C25_4 1_555 1_555
C22_4 C31_4 1_555 1_555
C22_4 C32_4 1_555 1_555
C27_4 C32_4 1_555 1_555
C33_4 C34_4 1_555 1_555
Zn3 O12_2 1_555 1_555
O1_4 C7_4 1_555 1_555
O8_2 C9_4 1_555 1_555
O3_2 C7_4 1_555 1_555
C1_4 H1_4 1_555 1_555
C2_4 C1_4 1_555 1_555
H2_4 C2_4 1_555 1_555
C3_4 H3_4 1_555 1_555
C4_4 C3_4 1_555 1_555
H4_4 C4_4 1_555 1_555
C5_4 C13_4 1_555 1_555
C6_4 H5_4 1_555 1_555
C7_4 C8_4 1_555 1_555
C8_4 C1_4 1_555 1_555
C9_4 C12_4 1_555 1_555
C10_4 C11_4 1_555 1_555
C11_4 C6_4 1_555 1_555
H6_4 C11_4 1_555 1_555
C12_4 C6_4 1_555 1_555
C13_4 C2_4 1_555 1_555
C14_4 C5_4 1_555 1_555
H7_4 C14_4 1_555 1_555
C15_4 C5_4 1_555 1_555
Zn3 O3_2 1_555 1_555
C3_4 C13_4 1_555 1_555
C4_4 C8_4 1_555 1_555
C10_4 C15_4 1_555 1_555

#END
