
###############################################################################
#
# This file contains modified crystal structure data generated from the
# MOF subset of the Cambridge Structural Database (CSD) v543 
# hosted by the Cambridge Crystallographic Data Centre (CCDC).
#
# This work is licensed under the Creative Commons
# Attribution-NonCommercial-ShareAlike 4.0 International License.
# To view a copy of this license, visit
# http://creativecommons.org/licenses/by-nc-sa/4.0/
# or send a letter to
# Creative Commons, PO Box 1866, Mountain View, CA 94042, USA.
#
# CIF created using the CSD Python API on 29 September 2022
# The structure has been converted into the P1 space group
# The structure has a 3D framework
# The original CSD entry QEFLIA is in the hexagonal crystal system
# The framework has been calculated to contain at least 10.0% void space
# The void calculation uses a probe of radius 1.32A, grid spacing 0.4
# The framework is charged, counterions have been retained in the structure
# H atom positions have been added when not included in the experimental data
# Generated hydrogen atom positions removed from atoms on special positions
#
###############################################################################

data_QEFLIA
_chemical_formula_moiety         '(C288 H274 B16 N126 O52 Zn19 3-)n'
_symmetry_cell_setting           triclinic
_symmetry_space_group_name_H-M   'P 1'
_symmetry_Int_Tables_number      1
_space_group_name_Hall           'P 1'
loop_
_symmetry_equiv_pos_site_id
_symmetry_equiv_pos_as_xyz
1 x,y,z
_cell_length_a                   17.4502(2)
_cell_length_b                   17.4502(2)
_cell_length_c                   48.0883(9)
_cell_angle_alpha                90
_cell_angle_beta                 90
_cell_angle_gamma                120
_cell_volume                     12681.5
loop_
_atom_site_label
_atom_site_type_symbol
_atom_site_fract_x
_atom_site_fract_y
_atom_site_fract_z
Zn1 Zn 0.29079(6) 0.03249(6) 0.750000
Zn2 Zn 0.30737(6) 0.12446(5) 0.59693(2)
O1 O 0.8356(4) 0.0730(4) 0.750000
O2 O 0.8395(3) 0.2017(4) 0.750000
O3 O 0.2763(5) 0.0787(4) 0.54505(11)
N7 N 0.5773(4) 0.2577(4) 0.58679(13)
O4 O 0.2533(4) 0.1681(4) 0.57048(10)
O5 O 0.3907(5) 0.0111(6) 0.750000
H4 H 0.214972 0.002499 0.647183
C5 C 0.5159(5) 0.0024(6) 0.750000
C6 C 0.7986(6) 0.1163(8) 0.750000
C7 C 0.6987(4) 0.0735(5) 0.750000
H5 H 0.130499 0.032035 0.716912
C9 C 0.5720(6) 0.0943(7) 0.750000
H6 H 0.548734 0.133300 0.750000
N10 N 0.4355(4) 0.1739(4) 0.59323(13)
C15 C 0.2500(5) 0.1312(6) 0.54655(17)
C18 C 0.6624(5) 0.1266(6) 0.750000
H12 H 0.700888 0.188898 0.750000
C19 C 0.2172(6) 0.1584(5) 0.52255(16)
C20 C 0.4978(5) 0.2361(5) 0.57850(16)
C22 C 0.1734(8) 0.2039(9) 0.52631(19)
H14 H 0.162922 0.215794 0.544776
B2 B 0.666667 0.333333 0.5744(3)
H19 H 0.666668 0.333336 0.553557
C25 C 0.4807(7) 0.2821(11) 0.5547(3)
H20 H 0.469944 0.328207 0.562030
H21 H 0.428802 0.238878 0.544204
H22 H 0.532420 0.308930 0.542384
C26 C 0.1430(7) 0.2340(9) 0.50433(16)
H23 H 0.112399 0.265314 0.507798
C27 C 0.5675(9) 0.2114(12) 0.6100(2)
H24 H 0.615065 0.218600 0.621400
C28 C 0.4822(10) 0.1536(14) 0.6150(5)
H25 H 0.457613 0.109864 0.629126
O8 O 0.0787(4) 0.2763(5) 0.45495(11)
O9 O 0.1681(4) 0.2533(4) 0.42952(10)
C29 C 0.1312(6) 0.2500(5) 0.45345(17)
C30 C 0.1584(5) 0.2172(6) 0.47745(16)
C31 C 0.2039(9) 0.1734(8) 0.47369(19)
H26 H 0.215794 0.162922 0.455224
C32 C 0.2340(9) 0.1430(7) 0.49567(16)
H27 H 0.265314 0.112399 0.492202
N12 N 0.7423(4) 0.3196(6) 0.58679(13)
N13 N 0.8261(4) 0.2616(6) 0.59323(13)
C33 C 0.7639(5) 0.2617(7) 0.57850(16)
C34 C 0.7179(11) 0.1986(13) 0.5547(3)
H28 H 0.671793 0.141737 0.562030
H29 H 0.761122 0.189924 0.544204
H30 H 0.691070 0.223490 0.542384
C35 C 0.7886(12) 0.3561(15) 0.6100(2)
H31 H 0.781400 0.396465 0.621400
C36 C 0.8464(14) 0.3286(17) 0.6150(5)
H32 H 0.890136 0.347749 0.629126
N14 N 0.6804(6) 0.4227(4) 0.58679(13)
N15 N 0.7384(6) 0.5645(4) 0.59323(13)
C37 C 0.7383(7) 0.5022(5) 0.57850(16)
C38 C 0.8014(13) 0.5193(7) 0.5547(3)
H33 H 0.858263 0.530056 0.562030
H34 H 0.810076 0.571198 0.544204
H35 H 0.776510 0.467580 0.542384
C39 C 0.6439(15) 0.4325(9) 0.6100(2)
H36 H 0.603535 0.384935 0.621400
C40 C 0.6714(17) 0.5178(10) 0.6150(5)
H37 H 0.652251 0.542387 0.629126
Zn8 Zn 0.30737(6) 0.12446(5) 0.90307(2)
N40 N 0.5773(4) 0.2577(4) 0.91321(13)
H83 H 0.214972 0.002499 0.852817
H84 H 0.130499 0.032035 0.783088
N43 N 0.4355(4) 0.1739(4) 0.90677(13)
C106 C 0.4978(5) 0.2361(5) 0.92150(16)
B6 B 0.666667 0.333333 0.9256(3)
H92 H 0.666668 0.333336 0.946443
C110 C 0.4807(7) 0.2821(11) 0.9453(3)
H93 H 0.469944 0.328207 0.937970
H94 H 0.428802 0.238878 0.955796
H95 H 0.532420 0.308930 0.957616
C111 C 0.5675(9) 0.2114(12) 0.8900(2)
H96 H 0.615065 0.218600 0.878600
C112 C 0.4822(10) 0.1536(14) 0.8850(5)
H97 H 0.457613 0.109864 0.870874
N44 N 0.7423(4) 0.3196(6) 0.91321(13)
N45 N 0.8261(4) 0.2616(6) 0.90677(13)
C113 C 0.7639(5) 0.2617(7) 0.92150(16)
C114 C 0.7179(11) 0.1986(13) 0.9453(3)
H98 H 0.671793 0.141737 0.937970
H99 H 0.761122 0.189924 0.955796
H100 H 0.691070 0.223490 0.957616
C115 C 0.7886(12) 0.3561(15) 0.8900(2)
H101 H 0.781400 0.396465 0.878600
C116 C 0.8464(14) 0.3286(17) 0.8850(5)
H102 H 0.890136 0.347749 0.870874
N46 N 0.6804(6) 0.4227(4) 0.91321(13)
N47 N 0.7384(6) 0.5645(4) 0.90677(13)
C117 C 0.7383(7) 0.5022(5) 0.92150(16)
C118 C 0.8014(13) 0.5193(7) 0.9453(3)
H103 H 0.858263 0.530056 0.937970
H104 H 0.810076 0.571198 0.955796
H105 H 0.776510 0.467580 0.957616
C119 C 0.6439(15) 0.4325(9) 0.8900(2)
H106 H 0.603535 0.384935 0.878600
C120 C 0.6714(17) 0.5178(10) 0.8850(5)
H107 H 0.652251 0.542387 0.870874
Zn13 Zn 0.96751(6) 0.25830(8) 0.750000
Zn16 Zn 0.87554(5) 0.18291(8) 0.59693(2)
Zn17 Zn 0.81709(8) 0.69263(6) 0.59693(2)
Zn20 Zn 0.87554(5) 0.18291(8) 0.90307(2)
Zn21 Zn 0.81709(8) 0.69263(6) 0.90307(2)
Zn22 Zn 0.12446(5) 0.30737(6) 0.40307(2)
O28 O 0.3622(5) 0.1605(3) 0.750000
O29 O 0.2533(4) 0.1681(4) 0.92952(10)
N64 N 0.2868(4) 0.1814(5) 0.63097(11)
N66 N 0.2868(4) 0.1814(5) 0.86903(11)
Zn3 Zn 0.333333 0.666667 0.65460(4)
N1 N 0.1405(3) 0.8837(3) 0.68314(9)
N2 N 0.2123(3) 0.9778(3) 0.71742(10)
N3 N 0.0226(3) 0.7708(3) 0.65348(9)
N4 N 0.1720(3) 0.8766(3) 0.63322(9)
N5 N 0.2438(4) 0.9962(3) 0.60611(11)
N6 N 0.1572(3) 0.7569(3) 0.66572(10)
C1 C 0.0990(3) 0.9338(3) 0.68831(12)
H1 H 0.048844 0.928877 0.678897
N9 N 0.2410(3) 0.6967(3) 0.66672(12)
C2 C 0.2318(3) 0.7604(3) 0.65628(14)
H2 H 0.272137 0.803630 0.643660
C3 C 0.2073(3) 0.9135(3) 0.70160(12)
H3 H 0.246558 0.890777 0.703096
C4 C 0.2110(4) 0.9659(4) 0.63200(14)
C8 C 0.1440(3) 0.9901(4) 0.70913(11)
C10 C 0.1846(4) 0.8511(3) 0.60709(12)
H7 H 0.164986 0.792079 0.601336
C11 C 0.6428(5) 0.9810(6) 0.750000
C12 C 0.4198(5) 0.9661(6) 0.750000
H8 H 0.013692 0.778102 0.611589
C16 C 0.2288(4) 0.9234(4) 0.59135(13)
H10 H 0.246966 0.923892 0.572697
C17 C 0.5514(6) 0.9492(7) 0.750000
H11 H 0.512478 0.887032 0.750000
B1 B 0.1247(4) 0.8219(4) 0.65876(14)
O6 O 0.333333 0.666667 0.6136(4)
C23 C 0.1165(7) 0.6837(5) 0.6825(2)
H15 H 0.060529 0.660583 0.691322
N11 N 0.6753(6) 0.9253(6) 0.750000
H16 H 0.638889 0.867701 0.750000
H17 H 0.732822 0.946475 0.750000
C24 C 0.1736(6) 0.6500(6) 0.6841(2)
H18 H 0.166033 0.602265 0.695468
O7 O 0.3715(8) 0.8992(11) 0.750000
N16 N 0.1163(3) 0.2568(4) 0.68314(9)
N17 N 0.0222(3) 0.2345(4) 0.71742(10)
N18 N 0.2292(3) 0.2518(4) 0.65348(9)
N19 N 0.1234(3) 0.2954(4) 0.63322(9)
N20 N 0.0038(3) 0.2476(5) 0.60611(11)
N21 N 0.2431(3) 0.4003(4) 0.66572(10)
C41 C 0.0662(3) 0.1652(4) 0.68831(12)
H38 H 0.071123 0.119967 0.678897
N23 N 0.3033(3) 0.5443(4) 0.66672(12)
C42 C 0.2396(3) 0.4714(4) 0.65628(14)
H39 H 0.196370 0.468507 0.643660
C43 C 0.0865(3) 0.2938(4) 0.70160(12)
H40 H 0.109223 0.355781 0.703096
C44 C 0.0341(4) 0.2451(6) 0.63200(14)
C48 C 0.0099(4) 0.1539(5) 0.70913(11)
C50 C 0.1489(3) 0.3335(5) 0.60709(12)
H44 H 0.207921 0.372907 0.601336
C51 C 0.0190(6) 0.6618(8) 0.750000
C52 C 0.0339(6) 0.4537(8) 0.750000
C53 C 0.2421(4) 0.2250(6) 0.62872(13)
H45 H 0.221898 0.235590 0.611589
C54 C 0.2682(4) 0.2246(6) 0.67294(13)
H46 H 0.270146 0.233985 0.692450
C56 C 0.0766(4) 0.3054(6) 0.59135(13)
H47 H 0.076108 0.323074 0.572697
C57 C 0.0508(7) 0.6022(9) 0.750000
H48 H 0.112968 0.625446 0.750000
B3 B 0.1781(4) 0.3028(6) 0.65876(14)
C60 C 0.3031(4) 0.1820(6) 0.65911(14)
H50 H 0.334162 0.156145 0.667462
C62 C 0.3163(5) 0.4328(9) 0.6825(2)
H52 H 0.339417 0.399946 0.691322
N24 N 0.0747(6) 0.7500(8) 0.750000
H53 H 0.132299 0.771188 0.750000
H54 H 0.053525 0.786347 0.750000
C63 C 0.3500(6) 0.5236(8) 0.6841(2)
H55 H 0.397735 0.563768 0.695468
O15 O 0.1008(11) 0.4723(14) 0.750000
C89 C 0.0305(12) 0.8266(8) 0.52631(19)
H72 H 0.052872 0.837078 0.544776
C92 C 0.0910(11) 0.8570(7) 0.50433(16)
H77 H 0.152915 0.887601 0.507798
O24 O 0.1976(6) 0.9213(4) 0.45495(11)
O25 O 0.0852(6) 0.8319(4) 0.42952(10)
C93 C 0.1188(8) 0.8688(6) 0.45345(17)
C94 C 0.0588(8) 0.8416(5) 0.47745(16)
Zn9 Zn 0.333333 0.666667 0.84540(4)
N34 N 0.1405(3) 0.8837(3) 0.81686(9)
N35 N 0.2123(3) 0.9778(3) 0.78258(10)
N36 N 0.0226(3) 0.7708(3) 0.84652(9)
N37 N 0.1720(3) 0.8766(3) 0.86678(9)
N38 N 0.2438(4) 0.9962(3) 0.89389(11)
N39 N 0.1572(3) 0.7569(3) 0.83428(10)
C97 C 0.0990(3) 0.9338(3) 0.81169(12)
H80 H 0.048844 0.928877 0.821103
N42 N 0.2410(3) 0.6967(3) 0.83328(12)
C98 C 0.2318(3) 0.7604(3) 0.84372(14)
H81 H 0.272137 0.803630 0.856340
C99 C 0.2073(3) 0.9135(3) 0.79840(12)
H82 H 0.246558 0.890777 0.796904
C100 C 0.2110(4) 0.9659(4) 0.86800(14)
C101 C 0.1440(3) 0.9901(4) 0.79087(11)
C102 C 0.1846(4) 0.8511(3) 0.89291(12)
H85 H 0.164986 0.792079 0.898664
H86 H 0.013692 0.778102 0.888411
C105 C 0.2288(4) 0.9234(4) 0.90865(13)
H88 H 0.246966 0.923892 0.927303
B5 B 0.1247(4) 0.8219(4) 0.84124(14)
O26 O 0.333333 0.666667 0.8864(4)
C108 C 0.1165(7) 0.6837(5) 0.8175(2)
H90 H 0.060529 0.660583 0.808678
C109 C 0.1736(6) 0.6500(6) 0.8159(2)
H91 H 0.166033 0.602265 0.804532
N48 N 0.1163(3) 0.2568(4) 0.81686(9)
N49 N 0.0222(3) 0.2345(4) 0.78258(10)
N50 N 0.2292(3) 0.2518(4) 0.84652(9)
N51 N 0.1234(3) 0.2954(4) 0.86678(9)
N52 N 0.0038(3) 0.2476(5) 0.89389(11)
N53 N 0.2431(3) 0.4003(4) 0.83428(10)
C121 C 0.0662(3) 0.1652(4) 0.81169(12)
H108 H 0.071123 0.119967 0.821103
N55 N 0.3033(3) 0.5443(4) 0.83328(12)
C122 C 0.2396(3) 0.4714(4) 0.84372(14)
H109 H 0.196370 0.468507 0.856340
C123 C 0.0865(3) 0.2938(4) 0.79840(12)
H110 H 0.109223 0.355781 0.796904
C124 C 0.0341(4) 0.2451(6) 0.86800(14)
C125 C 0.0099(4) 0.1539(5) 0.79087(11)
C126 C 0.1489(3) 0.3335(5) 0.89291(12)
H113 H 0.207921 0.372907 0.898664
C127 C 0.2421(4) 0.2250(6) 0.87128(13)
H114 H 0.221898 0.235590 0.888411
C128 C 0.2682(4) 0.2246(6) 0.82706(13)
H115 H 0.270146 0.233985 0.807550
C129 C 0.0766(4) 0.3054(6) 0.90865(13)
H116 H 0.076108 0.323074 0.927303
B7 B 0.1781(4) 0.3028(6) 0.84124(14)
C130 C 0.3031(4) 0.1820(6) 0.84089(14)
H117 H 0.334162 0.156145 0.832538
C131 C 0.3163(5) 0.4328(9) 0.8175(2)
H118 H 0.339417 0.399946 0.808678
C132 C 0.3500(6) 0.5236(8) 0.8159(2)
H119 H 0.397735 0.563768 0.804532
Zn23 Zn 0.18291(8) 0.87554(5) 0.40307(2)
N68 N 0.4557(4) 0.7590(3) 0.66672(12)
N69 N 0.4557(4) 0.7590(3) 0.83328(12)
N31 N 0.8186(5) 0.1054(3) 0.63097(11)
C81 C 0.7750(6) 0.0171(4) 0.62872(13)
C82 C 0.7754(6) 0.0436(4) 0.67294(13)
H67 H 0.766015 0.036161 0.692450
C88 C 0.8180(6) 0.1211(4) 0.65911(14)
H71 H 0.843855 0.178017 0.667462
N62 N 0.8186(5) 0.1054(3) 0.86903(11)
C139 C 0.7750(6) 0.0171(4) 0.87128(13)
C140 C 0.7754(6) 0.0436(4) 0.82706(13)
H127 H 0.766015 0.036161 0.807550
C142 C 0.8180(6) 0.1211(4) 0.84089(14)
H129 H 0.843855 0.178017 0.832538
N8 N 0.8946(3) 0.7132(4) 0.63097(11)
C13 C 0.9829(4) 0.7579(4) 0.62872(13)
C14 C 0.9564(4) 0.7318(4) 0.67294(13)
H9 H 0.963839 0.729854 0.692450
C21 C 0.8789(4) 0.6969(4) 0.65911(14)
H13 H 0.821983 0.665838 0.667462
O10 O 0.9270(4) 0.7626(6) 0.750000
O11 O 0.7983(4) 0.6378(5) 0.750000
O12 O 0.9213(4) 0.1976(6) 0.54505(11)
O13 O 0.8319(4) 0.0852(6) 0.57048(10)
O14 O 0.9889(6) 0.3796(8) 0.750000
H41 H 0.997501 0.212473 0.647183
C45 C 0.9976(6) 0.5135(8) 0.750000
C46 C 0.8837(8) 0.6823(10) 0.750000
C47 C 0.9265(5) 0.6252(6) 0.750000
H42 H 0.967965 0.098464 0.716912
C49 C 0.9057(7) 0.4777(9) 0.750000
H43 H 0.866700 0.415434 0.750000
C55 C 0.8688(6) 0.1188(8) 0.54655(17)
C58 C 0.8734(6) 0.5358(8) 0.750000
H49 H 0.811102 0.511990 0.750000
C59 C 0.8416(5) 0.0588(8) 0.52255(16)
C67 C 0.8266(8) 0.0305(12) 0.47369(19)
H57 H 0.837078 0.052872 0.455224
C68 C 0.8570(7) 0.0910(11) 0.49567(16)
H58 H 0.887601 0.152915 0.492202
Zn6 Zn 0.74170(8) 0.70921(6) 0.750000
N25 N 0.7432(4) 0.8595(3) 0.68314(9)
N26 N 0.7655(4) 0.7877(3) 0.71742(10)
O18 O 0.2374(6) 0.1644(4) 0.750000
N27 N 0.7482(4) 0.9774(3) 0.65348(9)
N28 N 0.7046(4) 0.8280(3) 0.63322(9)
N29 N 0.7524(5) 0.7562(4) 0.60611(11)
N30 N 0.5997(4) 0.8428(3) 0.66572(10)
O20 O 0.8024(6) 0.7237(5) 0.54505(11)
C69 C 0.8348(4) 0.9010(3) 0.68831(12)
H59 H 0.880033 0.951156 0.678897
O21 O 0.9148(6) 0.7467(4) 0.57048(10)
C70 C 0.5286(4) 0.7682(3) 0.65628(14)
H60 H 0.531493 0.727863 0.643660
C71 C 0.7062(4) 0.7927(3) 0.70160(12)
H61 H 0.644219 0.753442 0.703096
O22 O 0.6204(8) 0.6093(5) 0.750000
C72 C 0.7549(6) 0.7890(4) 0.63200(14)
H62 H 0.787527 0.785028 0.647183
C73 C 0.4865(8) 0.4841(5) 0.750000
C74 C 0.3177(10) 0.2014(6) 0.750000
C75 C 0.3748(6) 0.3013(4) 0.750000
C76 C 0.8461(5) 0.8560(3) 0.70913(11)
H63 H 0.901536 0.869501 0.716912
C77 C 0.5223(9) 0.4280(6) 0.750000
H64 H 0.584566 0.451266 0.750000
C78 C 0.6665(5) 0.8154(4) 0.60709(12)
H65 H 0.627093 0.835014 0.601336
C79 C 0.3382(8) 0.3572(5) 0.750000
C80 C 0.5463(8) 0.5802(5) 0.750000
H66 H 0.764410 0.986308 0.611589
C83 C 0.8812(8) 0.7500(5) 0.54655(17)
C84 C 0.6946(6) 0.7712(4) 0.59135(13)
H68 H 0.676926 0.753034 0.572697
C85 C 0.3978(9) 0.4486(6) 0.750000
H69 H 0.374554 0.487522 0.750000
C86 C 0.4642(8) 0.3376(5) 0.750000
H70 H 0.488010 0.299112 0.750000
C87 C 0.9412(8) 0.7828(6) 0.52255(16)
B4 B 0.6972(6) 0.8753(4) 0.65876(14)
C90 C 0.5672(9) 0.8835(7) 0.6825(2)
H73 H 0.600054 0.939471 0.691322
N33 N 0.2500(8) 0.3247(6) 0.750000
H74 H 0.228812 0.361111 0.750000
H75 H 0.213653 0.267178 0.750000
C91 C 0.4764(8) 0.8264(6) 0.6841(2)
H76 H 0.436232 0.833967 0.695468
O23 O 0.5277(14) 0.6285(8) 0.750000
C95 C 0.9695(12) 0.7961(9) 0.47369(19)
H78 H 0.947128 0.784206 0.455224
C96 C 0.9090(11) 0.7660(9) 0.49567(16)
H79 H 0.847085 0.734686 0.492202
N41 N 0.8946(3) 0.7132(4) 0.86903(11)
C103 C 0.9829(4) 0.7579(4) 0.87128(13)
C104 C 0.9564(4) 0.7318(4) 0.82706(13)
H87 H 0.963839 0.729854 0.807550
C107 C 0.8789(4) 0.6969(4) 0.84089(14)
H89 H 0.821983 0.665838 0.832538
H111 H 0.997501 0.212473 0.852817
H112 H 0.967965 0.098464 0.783088
N56 N 0.7432(4) 0.8595(3) 0.81686(9)
N57 N 0.7655(4) 0.7877(3) 0.78258(10)
N58 N 0.7482(4) 0.9774(3) 0.84652(9)
N59 N 0.7046(4) 0.8280(3) 0.86678(9)
N60 N 0.7524(5) 0.7562(4) 0.89389(11)
N61 N 0.5997(4) 0.8428(3) 0.83428(10)
C133 C 0.8348(4) 0.9010(3) 0.81169(12)
H120 H 0.880033 0.951156 0.821103
C134 C 0.5286(4) 0.7682(3) 0.84372(14)
H121 H 0.531493 0.727863 0.856340
C135 C 0.7062(4) 0.7927(3) 0.79840(12)
H122 H 0.644219 0.753442 0.796904
C136 C 0.7549(6) 0.7890(4) 0.86800(14)
H123 H 0.787527 0.785028 0.852817
C137 C 0.8461(5) 0.8560(3) 0.79087(11)
H124 H 0.901536 0.869501 0.783088
C138 C 0.6665(5) 0.8154(4) 0.89291(12)
H125 H 0.627093 0.835014 0.898664
H126 H 0.764410 0.986308 0.888411
C141 C 0.6946(6) 0.7712(4) 0.90865(13)
H128 H 0.676926 0.753034 0.927303
B8 B 0.6972(6) 0.8753(4) 0.84124(14)
C143 C 0.5672(9) 0.8835(7) 0.8175(2)
H130 H 0.600054 0.939471 0.808678
C144 C 0.4764(8) 0.8264(6) 0.8159(2)
H131 H 0.436232 0.833967 0.804532
O30 O 0.8319(4) 0.0852(6) 0.92952(10)
O31 O 0.9148(6) 0.7467(4) 0.92952(10)
C61 C 0.7961(9) 0.9695(12) 0.52631(19)
H51 H 0.784206 0.947128 0.544776
C64 C 0.7660(9) 0.9090(11) 0.50433(16)
H56 H 0.734686 0.847085 0.507798
O16 O 0.7237(5) 0.8024(6) 0.45495(11)
O17 O 0.7467(4) 0.9148(6) 0.42952(10)
C65 C 0.7500(5) 0.8812(8) 0.45345(17)
C66 C 0.7828(6) 0.9412(8) 0.47745(16)
Zn24 Zn 0.69263(6) 0.81709(8) 0.40307(2)
O8_2 O 0.0787(4) 0.2763(5) 0.04505(11)
O9_2 O 0.1681(4) 0.2533(4) 0.07048(10)
C29_2 C 0.1312(6) 0.2500(5) 0.04655(17)
C30_2 C 0.1584(5) 0.2172(6) 0.02255(16)
C31_2 C 0.2039(9) 0.1734(8) 0.02631(19)
H26_2 H 0.215794 0.162922 0.044776
C32_2 C 0.2340(9) 0.1430(7) 0.00433(16)
H27_2 H 0.265314 0.112399 0.007798
Zn22_2 Zn 0.12446(5) 0.30737(6) 0.09693(2)
O3_2 O 0.2763(5) 0.0787(4) 0.95495(11)
C15_2 C 0.2500(5) 0.1312(6) 0.95345(17)
C19_2 C 0.2172(6) 0.1584(5) 0.97745(16)
C22_2 C 0.1734(8) 0.2039(9) 0.97369(19)
H14_2 H 0.162922 0.215794 0.955224
C26_2 C 0.1430(7) 0.2340(9) 0.99567(16)
H23_2 H 0.112399 0.265314 0.992202
O24_2 O 0.1976(6) 0.9213(4) 0.04505(11)
O25_2 O 0.0852(6) 0.8319(4) 0.07048(10)
C93_2 C 0.1188(8) 0.8688(6) 0.04655(17)
C94_2 C 0.0588(8) 0.8416(5) 0.02255(16)
Zn23_2 Zn 0.18291(8) 0.87554(5) 0.09693(2)
C89_2 C 0.0305(12) 0.8266(8) 0.97369(19)
H72_2 H 0.052872 0.837078 0.955224
C92_2 C 0.0910(11) 0.8570(7) 0.99567(16)
H77_2 H 0.152915 0.887601 0.992202
C67_2 C 0.8266(8) 0.0305(12) 0.02631(19)
H57_2 H 0.837078 0.052872 0.044776
C68_2 C 0.8570(7) 0.0910(11) 0.00433(16)
H58_2 H 0.887601 0.152915 0.007798
C95_2 C 0.9695(12) 0.7961(9) 0.02631(19)
H78_2 H 0.947128 0.784206 0.044776
C96_2 C 0.9090(11) 0.7660(9) 0.00433(16)
H79_2 H 0.847085 0.734686 0.007798
O12_2 O 0.9213(4) 0.1976(6) 0.95495(11)
C55_2 C 0.8688(6) 0.1188(8) 0.95345(17)
C59_2 C 0.8416(5) 0.0588(8) 0.97745(16)
O20_2 O 0.8024(6) 0.7237(5) 0.95495(11)
C83_2 C 0.8812(8) 0.7500(5) 0.95345(17)
C87_2 C 0.9412(8) 0.7828(6) 0.97745(16)
O16_2 O 0.7237(5) 0.8024(6) 0.04505(11)
O17_2 O 0.7467(4) 0.9148(6) 0.07048(10)
C65_2 C 0.7500(5) 0.8812(8) 0.04655(17)
C66_2 C 0.7828(6) 0.9412(8) 0.02255(16)
Zn24_2 Zn 0.69263(6) 0.81709(8) 0.09693(2)
C61_2 C 0.7961(9) 0.9695(12) 0.97369(19)
H51_2 H 0.784206 0.947128 0.955224
C64_2 C 0.7660(9) 0.9090(11) 0.99567(16)
H56_2 H 0.734686 0.847085 0.992202
Zn1_2 Zn 0.03249(6) 0.29079(6) 0.250000
O1_2 O 0.0730(4) 0.8356(4) 0.250000
O2_2 O 0.2017(4) 0.8395(3) 0.250000
N7_2 N 0.2577(4) 0.5773(4) 0.41321(13)
O5_2 O 0.0111(6) 0.3907(5) 0.250000
H4_2 H 0.002499 0.214972 0.352817
C5_2 C 0.0024(6) 0.5159(5) 0.250000
C6_2 C 0.1163(8) 0.7986(6) 0.250000
C7_2 C 0.0735(5) 0.6987(4) 0.250000
H5_2 H 0.032035 0.130499 0.283088
C9_2 C 0.0943(7) 0.5720(6) 0.250000
H6_2 H 0.133300 0.548734 0.250000
N10_2 N 0.1739(4) 0.4355(4) 0.40677(13)
C18_2 C 0.1266(6) 0.6624(5) 0.250000
H12_2 H 0.188898 0.700888 0.250000
C20_2 C 0.2361(5) 0.4978(5) 0.42150(16)
B2_2 B 0.333333 0.666667 0.4256(3)
H19_2 H 0.333336 0.666668 0.446443
C25_2 C 0.2821(11) 0.4807(7) 0.4453(3)
H20_2 H 0.328207 0.469944 0.437970
H21_2 H 0.238878 0.428802 0.455796
H22_2 H 0.308930 0.532420 0.457616
C27_2 C 0.2114(12) 0.5675(9) 0.3900(2)
H24_2 H 0.218600 0.615065 0.378600
C28_2 C 0.1536(14) 0.4822(10) 0.3850(5)
H25_2 H 0.109864 0.457613 0.370874
N12_2 N 0.3196(6) 0.7423(4) 0.41321(13)
N13_2 N 0.2616(6) 0.8261(4) 0.40677(13)
C33_2 C 0.2617(7) 0.7639(5) 0.42150(16)
C34_2 C 0.1986(13) 0.7179(11) 0.4453(3)
H28_2 H 0.141737 0.671793 0.437970
H29_2 H 0.189924 0.761122 0.455796
H30_2 H 0.223490 0.691070 0.457616
C35_2 C 0.3561(15) 0.7886(12) 0.3900(2)
H31_2 H 0.396465 0.781400 0.378600
C36_2 C 0.3286(17) 0.8464(14) 0.3850(5)
H32_2 H 0.347749 0.890136 0.370874
N14_2 N 0.4227(4) 0.6804(6) 0.41321(13)
N15_2 N 0.5645(4) 0.7384(6) 0.40677(13)
C37_2 C 0.5022(5) 0.7383(7) 0.42150(16)
C38_2 C 0.5193(7) 0.8014(13) 0.4453(3)
H33_2 H 0.530056 0.858263 0.437970
H34_2 H 0.571198 0.810076 0.455796
H35_2 H 0.467580 0.776510 0.457616
C39_2 C 0.4325(9) 0.6439(15) 0.3900(2)
H36_2 H 0.384935 0.603535 0.378600
C40_2 C 0.5178(10) 0.6714(17) 0.3850(5)
H37_2 H 0.542387 0.652251 0.370874
N40_2 N 0.2577(4) 0.5773(4) 0.08679(13)
H83_2 H 0.002499 0.214972 0.147183
H84_2 H 0.032035 0.130499 0.216912
N43_2 N 0.1739(4) 0.4355(4) 0.09323(13)
C106_2 C 0.2361(5) 0.4978(5) 0.07850(16)
B6_2 B 0.333333 0.666667 0.0744(3)
H92_2 H 0.333336 0.666668 0.053557
C110_2 C 0.2821(11) 0.4807(7) 0.0547(3)
H93_2 H 0.328207 0.469944 0.062030
H94_2 H 0.238878 0.428802 0.044204
H95_2 H 0.308930 0.532420 0.042384
C111_2 C 0.2114(12) 0.5675(9) 0.1100(2)
H96_2 H 0.218600 0.615065 0.121400
C112_2 C 0.1536(14) 0.4822(10) 0.1150(5)
H97_2 H 0.109864 0.457613 0.129126
N44_2 N 0.3196(6) 0.7423(4) 0.08679(13)
N45_2 N 0.2616(6) 0.8261(4) 0.09323(13)
C113_2 C 0.2617(7) 0.7639(5) 0.07850(16)
C114_2 C 0.1986(13) 0.7179(11) 0.0547(3)
H98_2 H 0.141737 0.671793 0.062030
H99_2 H 0.189924 0.761122 0.044204
H100_2 H 0.223490 0.691070 0.042384
C115_2 C 0.3561(15) 0.7886(12) 0.1100(2)
H101_2 H 0.396465 0.781400 0.121400
C116_2 C 0.3286(17) 0.8464(14) 0.1150(5)
H102_2 H 0.347749 0.890136 0.129126
N46_2 N 0.4227(4) 0.6804(6) 0.08679(13)
N47_2 N 0.5645(4) 0.7384(6) 0.09323(13)
C117_2 C 0.5022(5) 0.7383(7) 0.07850(16)
C118_2 C 0.5193(7) 0.8014(13) 0.0547(3)
H103_2 H 0.530056 0.858263 0.062030
H104_2 H 0.571198 0.810076 0.044204
H105_2 H 0.467580 0.776510 0.042384
C119_2 C 0.4325(9) 0.6439(15) 0.1100(2)
H106_2 H 0.384935 0.603535 0.121400
C120_2 C 0.5178(10) 0.6714(17) 0.1150(5)
H107_2 H 0.542387 0.652251 0.129126
Zn13_2 Zn 0.25830(8) 0.96751(6) 0.250000
O28_2 O 0.1605(3) 0.3622(5) 0.250000
N64_2 N 0.1814(5) 0.2868(4) 0.36903(11)
N66_2 N 0.1814(5) 0.2868(4) 0.13097(11)
N31_2 N 0.1054(3) 0.8186(5) 0.36903(11)
C81_2 C 0.0171(4) 0.7750(6) 0.37128(13)
C82_2 C 0.0436(4) 0.7754(6) 0.32706(13)
H67_2 H 0.036161 0.766015 0.307550
C88_2 C 0.1211(4) 0.8180(6) 0.34089(14)
H71_2 H 0.178017 0.843855 0.332538
N62_2 N 0.1054(3) 0.8186(5) 0.13097(11)
C139_2 C 0.0171(4) 0.7750(6) 0.12872(13)
C140_2 C 0.0436(4) 0.7754(6) 0.17294(13)
H127_2 H 0.036161 0.766015 0.192450
C142_2 C 0.1211(4) 0.8180(6) 0.15911(14)
H129_2 H 0.178017 0.843855 0.167462
Zn3_2 Zn 0.666667 0.333333 0.34540(4)
N1_2 N 0.8837(3) 0.1405(3) 0.31686(9)
N2_2 N 0.9778(3) 0.2123(3) 0.28258(10)
N3_2 N 0.7708(3) 0.0226(3) 0.34652(9)
N4_2 N 0.8766(3) 0.1720(3) 0.36678(9)
N5_2 N 0.9962(3) 0.2438(4) 0.39389(11)
N6_2 N 0.7569(3) 0.1572(3) 0.33428(10)
C1_2 C 0.9338(3) 0.0990(3) 0.31169(12)
H1_2 H 0.928877 0.048844 0.321103
N9_2 N 0.6967(3) 0.2410(3) 0.33328(12)
C2_2 C 0.7604(3) 0.2318(3) 0.34372(14)
H2_2 H 0.803630 0.272137 0.356340
C3_2 C 0.9135(3) 0.2073(3) 0.29840(12)
H3_2 H 0.890777 0.246558 0.296904
C4_2 C 0.9659(4) 0.2110(4) 0.36800(14)
C8_2 C 0.9901(4) 0.1440(3) 0.29087(11)
C10_2 C 0.8511(3) 0.1846(4) 0.39291(12)
H7_2 H 0.792079 0.164986 0.398664
C11_2 C 0.9810(6) 0.6428(5) 0.250000
C12_2 C 0.9661(6) 0.4198(5) 0.250000
H8_2 H 0.778102 0.013692 0.388411
C16_2 C 0.9234(4) 0.2288(4) 0.40865(13)
H10_2 H 0.923892 0.246966 0.427303
C17_2 C 0.9492(7) 0.5514(6) 0.250000
H11_2 H 0.887032 0.512478 0.250000
B1_2 B 0.8219(4) 0.1247(4) 0.34124(14)
O6_2 O 0.666667 0.333333 0.3864(4)
C23_2 C 0.6837(5) 0.1165(7) 0.3175(2)
H15_2 H 0.660583 0.060529 0.308678
N11_2 N 0.9253(6) 0.6753(6) 0.250000
H16_2 H 0.867701 0.638889 0.250000
H17_2 H 0.946475 0.732822 0.250000
C24_2 C 0.6500(6) 0.1736(6) 0.3159(2)
H18_2 H 0.602265 0.166033 0.304532
O7_2 O 0.8992(11) 0.3715(8) 0.250000
N16_2 N 0.2568(4) 0.1163(3) 0.31686(9)
N17_2 N 0.2345(4) 0.0222(3) 0.28258(10)
N18_2 N 0.2518(4) 0.2292(3) 0.34652(9)
N19_2 N 0.2954(4) 0.1234(3) 0.36678(9)
N20_2 N 0.2476(5) 0.0038(3) 0.39389(11)
N21_2 N 0.4003(4) 0.2431(3) 0.33428(10)
C41_2 C 0.1652(4) 0.0662(3) 0.31169(12)
H38_2 H 0.119967 0.071123 0.321103
N23_2 N 0.5443(4) 0.3033(3) 0.33328(12)
C42_2 C 0.4714(4) 0.2396(3) 0.34372(14)
H39_2 H 0.468507 0.196370 0.356340
C43_2 C 0.2938(4) 0.0865(3) 0.29840(12)
H40_2 H 0.355781 0.109223 0.296904
C44_2 C 0.2451(6) 0.0341(4) 0.36800(14)
C48_2 C 0.1539(5) 0.0099(4) 0.29087(11)
C50_2 C 0.3335(5) 0.1489(3) 0.39291(12)
H44_2 H 0.372907 0.207921 0.398664
C51_2 C 0.6618(8) 0.0190(6) 0.250000
C52_2 C 0.4537(8) 0.0339(6) 0.250000
C53_2 C 0.2250(6) 0.2421(4) 0.37128(13)
H45_2 H 0.235590 0.221898 0.388411
C54_2 C 0.2246(6) 0.2682(4) 0.32706(13)
H46_2 H 0.233985 0.270146 0.307550
C56_2 C 0.3054(6) 0.0766(4) 0.40865(13)
H47_2 H 0.323074 0.076108 0.427303
C57_2 C 0.6022(9) 0.0508(7) 0.250000
H48_2 H 0.625446 0.112968 0.250000
B3_2 B 0.3028(6) 0.1781(4) 0.34124(14)
C60_2 C 0.1820(6) 0.3031(4) 0.34089(14)
H50_2 H 0.156145 0.334162 0.332538
C62_2 C 0.4328(9) 0.3163(5) 0.3175(2)
H52_2 H 0.399946 0.339417 0.308678
N24_2 N 0.7500(8) 0.0747(6) 0.250000
H53_2 H 0.771188 0.132299 0.250000
H54_2 H 0.786347 0.053525 0.250000
C63_2 C 0.5236(8) 0.3500(6) 0.3159(2)
H55_2 H 0.563768 0.397735 0.304532
O15_2 O 0.4723(14) 0.1008(11) 0.250000
Zn9_2 Zn 0.666667 0.333333 0.15460(4)
N34_2 N 0.8837(3) 0.1405(3) 0.18314(9)
N35_2 N 0.9778(3) 0.2123(3) 0.21742(10)
N36_2 N 0.7708(3) 0.0226(3) 0.15348(9)
N37_2 N 0.8766(3) 0.1720(3) 0.13322(9)
N38_2 N 0.9962(3) 0.2438(4) 0.10611(11)
N39_2 N 0.7569(3) 0.1572(3) 0.16572(10)
C97_2 C 0.9338(3) 0.0990(3) 0.18831(12)
H80_2 H 0.928877 0.048844 0.178897
N42_2 N 0.6967(3) 0.2410(3) 0.16672(12)
C98_2 C 0.7604(3) 0.2318(3) 0.15628(14)
H81_2 H 0.803630 0.272137 0.143660
C99_2 C 0.9135(3) 0.2073(3) 0.20160(12)
H82_2 H 0.890777 0.246558 0.203096
C100_2 C 0.9659(4) 0.2110(4) 0.13200(14)
C101_2 C 0.9901(4) 0.1440(3) 0.20913(11)
C102_2 C 0.8511(3) 0.1846(4) 0.10709(12)
H85_2 H 0.792079 0.164986 0.101336
H86_2 H 0.778102 0.013692 0.111589
C105_2 C 0.9234(4) 0.2288(4) 0.09135(13)
H88_2 H 0.923892 0.246966 0.072697
B5_2 B 0.8219(4) 0.1247(4) 0.15876(14)
O26_2 O 0.666667 0.333333 0.1136(4)
C108_2 C 0.6837(5) 0.1165(7) 0.1825(2)
H90_2 H 0.660583 0.060529 0.191322
C109_2 C 0.6500(6) 0.1736(6) 0.1841(2)
H91_2 H 0.602265 0.166033 0.195468
N48_2 N 0.2568(4) 0.1163(3) 0.18314(9)
N49_2 N 0.2345(4) 0.0222(3) 0.21742(10)
N50_2 N 0.2518(4) 0.2292(3) 0.15348(9)
N51_2 N 0.2954(4) 0.1234(3) 0.13322(9)
N52_2 N 0.2476(5) 0.0038(3) 0.10611(11)
N53_2 N 0.4003(4) 0.2431(3) 0.16572(10)
C121_2 C 0.1652(4) 0.0662(3) 0.18831(12)
H108_2 H 0.119967 0.071123 0.178897
N55_2 N 0.5443(4) 0.3033(3) 0.16672(12)
C122_2 C 0.4714(4) 0.2396(3) 0.15628(14)
H109_2 H 0.468507 0.196370 0.143660
C123_2 C 0.2938(4) 0.0865(3) 0.20160(12)
H110_2 H 0.355781 0.109223 0.203096
C124_2 C 0.2451(6) 0.0341(4) 0.13200(14)
C125_2 C 0.1539(5) 0.0099(4) 0.20913(11)
C126_2 C 0.3335(5) 0.1489(3) 0.10709(12)
H113_2 H 0.372907 0.207921 0.101336
C127_2 C 0.2250(6) 0.2421(4) 0.12872(13)
H114_2 H 0.235590 0.221898 0.111589
C128_2 C 0.2246(6) 0.2682(4) 0.17294(13)
H115_2 H 0.233985 0.270146 0.192450
C129_2 C 0.3054(6) 0.0766(4) 0.09135(13)
H116_2 H 0.323074 0.076108 0.072697
B7_2 B 0.3028(6) 0.1781(4) 0.15876(14)
C130_2 C 0.1820(6) 0.3031(4) 0.15911(14)
H117_2 H 0.156145 0.334162 0.167462
C131_2 C 0.4328(9) 0.3163(5) 0.1825(2)
H118_2 H 0.399946 0.339417 0.191322
C132_2 C 0.5236(8) 0.3500(6) 0.1841(2)
H119_2 H 0.563768 0.397735 0.195468
N68_2 N 0.7590(3) 0.4557(4) 0.33328(12)
N69_2 N 0.7590(3) 0.4557(4) 0.16672(12)
N8_2 N 0.7132(4) 0.8946(3) 0.36903(11)
C13_2 C 0.7579(4) 0.9829(4) 0.37128(13)
C14_2 C 0.7318(4) 0.9564(4) 0.32706(13)
H9_2 H 0.729854 0.963839 0.307550
C21_2 C 0.6969(4) 0.8789(4) 0.34089(14)
H13_2 H 0.665838 0.821983 0.332538
O10_2 O 0.7626(6) 0.9270(4) 0.250000
O11_2 O 0.6378(5) 0.7983(4) 0.250000
O14_2 O 0.3796(8) 0.9889(6) 0.250000
H41_2 H 0.212473 0.997501 0.352817
C45_2 C 0.5135(8) 0.9976(6) 0.250000
C46_2 C 0.6823(10) 0.8837(8) 0.250000
C47_2 C 0.6252(6) 0.9265(5) 0.250000
H42_2 H 0.098464 0.967965 0.283088
C49_2 C 0.4777(9) 0.9057(7) 0.250000
H43_2 H 0.415434 0.866700 0.250000
C58_2 C 0.5358(8) 0.8734(6) 0.250000
H49_2 H 0.511990 0.811102 0.250000
Zn6_2 Zn 0.70921(6) 0.74170(8) 0.250000
N25_2 N 0.8595(3) 0.7432(4) 0.31686(9)
N26_2 N 0.7877(3) 0.7655(4) 0.28258(10)
O18_2 O 0.1644(4) 0.2374(6) 0.250000
N27_2 N 0.9774(3) 0.7482(4) 0.34652(9)
N28_2 N 0.8280(3) 0.7046(4) 0.36678(9)
N29_2 N 0.7562(4) 0.7524(5) 0.39389(11)
N30_2 N 0.8428(3) 0.5997(4) 0.33428(10)
C69_2 C 0.9010(3) 0.8348(4) 0.31169(12)
H59_2 H 0.951156 0.880033 0.321103
C70_2 C 0.7682(3) 0.5286(4) 0.34372(14)
H60_2 H 0.727863 0.531493 0.356340
C71_2 C 0.7927(3) 0.7062(4) 0.29840(12)
H61_2 H 0.753442 0.644219 0.296904
O22_2 O 0.6093(5) 0.6204(8) 0.250000
C72_2 C 0.7890(4) 0.7549(6) 0.36800(14)
H62_2 H 0.785028 0.787527 0.352817
C73_2 C 0.4841(5) 0.4865(8) 0.250000
C74_2 C 0.2014(6) 0.3177(10) 0.250000
C75_2 C 0.3013(4) 0.3748(6) 0.250000
C76_2 C 0.8560(3) 0.8461(5) 0.29087(11)
H63_2 H 0.869501 0.901536 0.283088
C77_2 C 0.4280(6) 0.5223(9) 0.250000
H64_2 H 0.451266 0.584566 0.250000
C78_2 C 0.8154(4) 0.6665(5) 0.39291(12)
H65_2 H 0.835014 0.627093 0.398664
C79_2 C 0.3572(5) 0.3382(8) 0.250000
C80_2 C 0.5802(5) 0.5463(8) 0.250000
H66_2 H 0.986308 0.764410 0.388411
C84_2 C 0.7712(4) 0.6946(6) 0.40865(13)
H68_2 H 0.753034 0.676926 0.427303
C85_2 C 0.4486(6) 0.3978(9) 0.250000
H69_2 H 0.487522 0.374554 0.250000
C86_2 C 0.3376(5) 0.4642(8) 0.250000
H70_2 H 0.299112 0.488010 0.250000
B4_2 B 0.8753(4) 0.6972(6) 0.34124(14)
C90_2 C 0.8835(7) 0.5672(9) 0.3175(2)
H73_2 H 0.939471 0.600054 0.308678
N33_2 N 0.3247(6) 0.2500(8) 0.250000
H74_2 H 0.361111 0.228812 0.250000
H75_2 H 0.267178 0.213653 0.250000
C91_2 C 0.8264(6) 0.4764(8) 0.3159(2)
H76_2 H 0.833967 0.436232 0.304532
O23_2 O 0.6285(8) 0.5277(14) 0.250000
N41_2 N 0.7132(4) 0.8946(3) 0.13097(11)
C103_2 C 0.7579(4) 0.9829(4) 0.12872(13)
C104_2 C 0.7318(4) 0.9564(4) 0.17294(13)
H87_2 H 0.729854 0.963839 0.192450
C107_2 C 0.6969(4) 0.8789(4) 0.15911(14)
H89_2 H 0.665838 0.821983 0.167462
H111_2 H 0.212473 0.997501 0.147183
H112_2 H 0.098464 0.967965 0.216912
N56_2 N 0.8595(3) 0.7432(4) 0.18314(9)
N57_2 N 0.7877(3) 0.7655(4) 0.21742(10)
N58_2 N 0.9774(3) 0.7482(4) 0.15348(9)
N59_2 N 0.8280(3) 0.7046(4) 0.13322(9)
N60_2 N 0.7562(4) 0.7524(5) 0.10611(11)
N61_2 N 0.8428(3) 0.5997(4) 0.16572(10)
C133_2 C 0.9010(3) 0.8348(4) 0.18831(12)
H120_2 H 0.951156 0.880033 0.178897
C134_2 C 0.7682(3) 0.5286(4) 0.15628(14)
H121_2 H 0.727863 0.531493 0.143660
C135_2 C 0.7927(3) 0.7062(4) 0.20160(12)
H122_2 H 0.753442 0.644219 0.203096
C136_2 C 0.7890(4) 0.7549(6) 0.13200(14)
H123_2 H 0.785028 0.787527 0.147183
C137_2 C 0.8560(3) 0.8461(5) 0.20913(11)
H124_2 H 0.869501 0.901536 0.216912
C138_2 C 0.8154(4) 0.6665(5) 0.10709(12)
H125_2 H 0.835014 0.627093 0.101336
H126_2 H 0.986308 0.764410 0.111589
C141_2 C 0.7712(4) 0.6946(6) 0.09135(13)
H128_2 H 0.753034 0.676926 0.072697
B8_2 B 0.8753(4) 0.6972(6) 0.15876(14)
C143_2 C 0.8835(7) 0.5672(9) 0.1825(2)
H130_2 H 0.939471 0.600054 0.191322
C144_2 C 0.8264(6) 0.4764(8) 0.1841(2)
H131_2 H 0.833967 0.436232 0.195468
loop_
_geom_bond_atom_site_label_1
_geom_bond_atom_site_label_2
_geom_bond_site_symmetry_1
_geom_bond_site_symmetry_2
O1 C6 1_555 1_555
O2 C6 1_555 1_555
O3 C15 1_555 1_555
N7 C20 1_555 1_555
O4 Zn2 1_555 1_555
O5 Zn1 1_555 1_555
C5 C9 1_555 1_555
C6 C7 1_555 1_555
C9 H6 1_555 1_555
N10 Zn2 1_555 1_555
C15 O4 1_555 1_555
C18 C7 1_555 1_555
H12 C18 1_555 1_555
C19 C15 1_555 1_555
C20 N10 1_555 1_555
C22 C19 1_555 1_555
H14 C22 1_555 1_555
B2 N7 1_555 1_555
H19 B2 1_555 1_555
C25 C20 1_555 1_555
H20 C25 1_555 1_555
H21 C25 1_555 1_555
H22 C25 1_555 1_555
C26 C22 1_555 1_555
H23 C26 1_555 1_555
C27 N7 1_555 1_555
H24 C27 1_555 1_555
C28 N10 1_555 1_555
H25 C28 1_555 1_555
O8 C29 1_555 1_555
O9 C29 1_555 1_555
C29 C30 1_555 1_555
C30 C26 1_555 1_555
C31 C30 1_555 1_555
H26 C31 1_555 1_555
C32 C19 1_555 1_555
H27 C32 1_555 1_555
N12 B2 1_555 1_555
N13 C33 1_555 1_555
C33 N12 1_555 1_555
C34 C33 1_555 1_555
H28 C34 1_555 1_555
H29 C34 1_555 1_555
H30 C34 1_555 1_555
C35 N12 1_555 1_555
H31 C35 1_555 1_555
C36 N13 1_555 1_555
H32 C36 1_555 1_555
N14 B2 1_555 1_555
N15 C37 1_555 1_555
C37 N14 1_555 1_555
C38 C37 1_555 1_555
H33 C38 1_555 1_555
H34 C38 1_555 1_555
H35 C38 1_555 1_555
C39 N14 1_555 1_555
H36 C39 1_555 1_555
C40 N15 1_555 1_555
H37 C40 1_555 1_555
N40 C106 1_555 1_555
N43 Zn8 1_555 1_555
C106 N43 1_555 1_555
B6 N40 1_555 1_555
H92 B6 1_555 1_555
C110 C106 1_555 1_555
H93 C110 1_555 1_555
H94 C110 1_555 1_555
H95 C110 1_555 1_555
C111 N40 1_555 1_555
H96 C111 1_555 1_555
C112 N43 1_555 1_555
H97 C112 1_555 1_555
N44 B6 1_555 1_555
N45 C113 1_555 1_555
C113 N44 1_555 1_555
C114 C113 1_555 1_555
H98 C114 1_555 1_555
H99 C114 1_555 1_555
H100 C114 1_555 1_555
C115 N44 1_555 1_555
H101 C115 1_555 1_555
C116 N45 1_555 1_555
H102 C116 1_555 1_555
N46 B6 1_555 1_555
N47 C117 1_555 1_555
C117 N46 1_555 1_555
C118 C117 1_555 1_555
H103 C118 1_555 1_555
H104 C118 1_555 1_555
H105 C118 1_555 1_555
C119 N46 1_555 1_555
H106 C119 1_555 1_555
C120 N47 1_555 1_555
H107 C120 1_555 1_555
Zn13 O2 1_555 1_555
Zn16 N13 1_555 1_555
Zn17 N15 1_555 1_555
Zn20 N45 1_555 1_555
Zn21 N47 1_555 1_555
Zn22 O9 1_555 1_555
O28 Zn1 1_555 1_555
O29 Zn8 1_555 1_555
N64 Zn2 1_555 1_555
N66 Zn8 1_555 1_555
C9 C18 1_555 1_555
C27 C28 1_555 1_555
C31 C32 1_555 1_555
C35 C36 1_555 1_555
C39 C40 1_555 1_555
C111 C112 1_555 1_555
C115 C116 1_555 1_555
C119 C120 1_555 1_555
Zn3 N9 1_555 1_555
N1 C1 1_555 1_555
N2 C3 1_555 1_555
N4 C4 1_555 1_555
N5 C4 1_555 1_555
N6 C2 1_555 1_555
C1 H1 1_555 1_555
N9 C2 1_555 1_555
C2 H2 1_555 1_555
C3 N1 1_555 1_555
H3 C3 1_555 1_555
C8 N2 1_555 1_555
C10 N4 1_555 1_555
H7 C10 1_555 1_555
C11 C17 1_555 1_555
C16 N5 1_555 1_555
H10 C16 1_555 1_555
H11 C17 1_555 1_555
B1 N1 1_555 1_555
O6 Zn3 1_555 1_555
C23 N6 1_555 1_555
H15 C23 1_555 1_555
N11 C11 1_555 1_555
H16 N11 1_555 1_555
H17 N11 1_555 1_555
C24 N9 1_555 1_555
H18 C24 1_555 1_555
O7 C12 1_555 1_555
N16 C41 1_555 1_555
N17 C43 1_555 1_555
N18 C53 1_555 1_555
N19 C44 1_555 1_555
N20 C44 1_555 1_555
N21 C42 1_555 1_555
C41 H38 1_555 1_555
N64 C53 1_555 1_555
N23 Zn3 1_555 1_555
C42 N23 1_555 1_555
H39 C42 1_555 1_555
C43 N16 1_555 1_555
H40 C43 1_555 1_555
C48 N17 1_555 1_555
C50 N19 1_555 1_555
H44 C50 1_555 1_555
C51 C57 1_555 1_555
C53 H45 1_555 1_555
C54 N18 1_555 1_555
H46 C54 1_555 1_555
C56 N20 1_555 1_555
H47 C56 1_555 1_555
H48 C57 1_555 1_555
B3 N16 1_555 1_555
C60 N64 1_555 1_555
H50 C60 1_555 1_555
C62 N21 1_555 1_555
H52 C62 1_555 1_555
N24 C51 1_555 1_555
H53 N24 1_555 1_555
H54 N24 1_555 1_555
C63 N23 1_555 1_555
H55 C63 1_555 1_555
O15 C52 1_555 1_555
H72 C89 1_555 1_555
C92 C89 1_555 1_555
H77 C92 1_555 1_555
O24 C93 1_555 1_555
O25 C93 1_555 1_555
C93 C94 1_555 1_555
C94 C92 1_555 1_555
Zn9 N42 1_555 1_555
N34 C97 1_555 1_555
N37 C100 1_555 1_555
N38 C100 1_555 1_555
N39 C98 1_555 1_555
C97 H80 1_555 1_555
N42 C98 1_555 1_555
C98 H81 1_555 1_555
C99 N34 1_555 1_555
H82 C99 1_555 1_555
C101 N35 1_555 1_555
C102 N37 1_555 1_555
H85 C102 1_555 1_555
C105 N38 1_555 1_555
H88 C105 1_555 1_555
B5 N34 1_555 1_555
O26 Zn9 1_555 1_555
C108 N39 1_555 1_555
H90 C108 1_555 1_555
C109 N42 1_555 1_555
H91 C109 1_555 1_555
N48 C121 1_555 1_555
N50 C127 1_555 1_555
N51 C124 1_555 1_555
N52 C124 1_555 1_555
N53 C122 1_555 1_555
C121 H108 1_555 1_555
N66 C127 1_555 1_555
N55 Zn9 1_555 1_555
C122 N55 1_555 1_555
H109 C122 1_555 1_555
C123 N48 1_555 1_555
H110 C123 1_555 1_555
C125 N49 1_555 1_555
C126 N51 1_555 1_555
H113 C126 1_555 1_555
C127 H114 1_555 1_555
C128 N50 1_555 1_555
H115 C128 1_555 1_555
C129 N52 1_555 1_555
H116 C129 1_555 1_555
B7 N48 1_555 1_555
C130 N66 1_555 1_555
H117 C130 1_555 1_555
C131 N53 1_555 1_555
H118 C131 1_555 1_555
C132 N55 1_555 1_555
H119 C132 1_555 1_555
Zn23 O25 1_555 1_555
N68 Zn3 1_555 1_555
N69 Zn9 1_555 1_555
N3 B1 1_555 1_555
N4 B1 1_555 1_555
N6 B1 1_555 1_555
C1 C8 1_555 1_555
C10 C16 1_555 1_555
C23 C24 1_555 1_555
N18 B3 1_555 1_555
N19 B3 1_555 1_555
N21 B3 1_555 1_555
C41 C48 1_555 1_555
C50 C56 1_555 1_555
C54 C60 1_555 1_555
C62 C63 1_555 1_555
N35 C99 1_555 1_555
N36 B5 1_555 1_555
N37 B5 1_555 1_555
N39 B5 1_555 1_555
C97 C101 1_555 1_555
C102 C105 1_555 1_555
C108 C109 1_555 1_555
N49 C123 1_555 1_555
N50 B7 1_555 1_555
N51 B7 1_555 1_555
N53 B7 1_555 1_555
C121 C125 1_555 1_555
C126 C129 1_555 1_555
C128 C130 1_555 1_555
C131 C132 1_555 1_555
N31 C81 1_555 1_555
H67 C82 1_555 1_555
C88 N31 1_555 1_555
H71 C88 1_555 1_555
N62 C139 1_555 1_555
H127 C140 1_555 1_555
C142 N62 1_555 1_555
H129 C142 1_555 1_555
Zn16 N31 1_555 1_555
Zn20 N62 1_555 1_555
C82 C88 1_555 1_555
C140 C142 1_555 1_555
N8 C13 1_555 1_555
H9 C14 1_555 1_555
C21 N8 1_555 1_555
H13 C21 1_555 1_555
O10 C46 1_555 1_555
O11 C46 1_555 1_555
O12 C55 1_555 1_555
O13 Zn16 1_555 1_555
O14 Zn13 1_555 1_555
C45 C49 1_555 1_555
C46 C47 1_555 1_555
C49 H43 1_555 1_555
C55 O13 1_555 1_555
C58 C47 1_555 1_555
H49 C58 1_555 1_555
C59 C55 1_555 1_555
H57 C67 1_555 1_555
C68 C59 1_555 1_555
H58 C68 1_555 1_555
Zn6 O11 1_555 1_555
Zn17 N8 1_555 1_555
N25 C69 1_555 1_555
N26 Zn6 1_555 1_555
O18 C74 1_555 1_555
N28 C72 1_555 1_555
O28 C74 1_555 1_555
N29 Zn17 1_555 1_555
N30 C70 1_555 1_555
O20 C83 1_555 1_555
C69 H59 1_555 1_555
O21 Zn17 1_555 1_555
N68 C70 1_555 1_555
C70 H60 1_555 1_555
C71 N25 1_555 1_555
H61 C71 1_555 1_555
O22 Zn6 1_555 1_555
C72 N29 1_555 1_555
H62 C72 1_555 1_555
C73 C77 1_555 1_555
C74 C75 1_555 1_555
C75 C79 1_555 1_555
C76 N26 1_555 1_555
H63 C76 1_555 1_555
C77 H64 1_555 1_555
C78 N28 1_555 1_555
H65 C78 1_555 1_555
C79 C85 1_555 1_555
C80 O22 1_555 1_555
C83 O21 1_555 1_555
C84 N29 1_555 1_555
H68 C84 1_555 1_555
C85 C73 1_555 1_555
H69 C85 1_555 1_555
C86 C75 1_555 1_555
H70 C86 1_555 1_555
C87 C83 1_555 1_555
B4 N25 1_555 1_555
C90 N30 1_555 1_555
H73 C90 1_555 1_555
N33 C79 1_555 1_555
H74 N33 1_555 1_555
H75 N33 1_555 1_555
C91 N68 1_555 1_555
H76 C91 1_555 1_555
O23 C80 1_555 1_555
H78 C95 1_555 1_555
C96 C87 1_555 1_555
H79 C96 1_555 1_555
N41 C103 1_555 1_555
H87 C104 1_555 1_555
C107 N41 1_555 1_555
H89 C107 1_555 1_555
Zn21 N41 1_555 1_555
N56 C133 1_555 1_555
N57 Zn6 1_555 1_555
N59 C136 1_555 1_555
N60 Zn21 1_555 1_555
N61 C134 1_555 1_555
C133 H120 1_555 1_555
N69 C134 1_555 1_555
C134 H121 1_555 1_555
C135 N56 1_555 1_555
H122 C135 1_555 1_555
C136 N60 1_555 1_555
H123 C136 1_555 1_555
C137 N57 1_555 1_555
H124 C137 1_555 1_555
C138 N59 1_555 1_555
H125 C138 1_555 1_555
C141 N60 1_555 1_555
H128 C141 1_555 1_555
B8 N56 1_555 1_555
C143 N61 1_555 1_555
H130 C143 1_555 1_555
C144 N69 1_555 1_555
H131 C144 1_555 1_555
O30 Zn20 1_555 1_555
O31 Zn21 1_555 1_555
C14 C21 1_555 1_555
C49 C58 1_555 1_555
C67 C68 1_555 1_555
N26 C71 1_555 1_555
N27 B4 1_555 1_555
N28 B4 1_555 1_555
N30 B4 1_555 1_555
C69 C76 1_555 1_555
C73 C80 1_555 1_555
C77 C86 1_555 1_555
C78 C84 1_555 1_555
C90 C91 1_555 1_555
C95 C96 1_555 1_555
C104 C107 1_555 1_555
N57 C135 1_555 1_555
N58 B8 1_555 1_555
N59 B8 1_555 1_555
N61 B8 1_555 1_555
C133 C137 1_555 1_555
C138 C141 1_555 1_555
C143 C144 1_555 1_555
H51 C61 1_555 1_555
C64 C61 1_555 1_555
H56 C64 1_555 1_555
O16 C65 1_555 1_555
O17 C65 1_555 1_555
C65 C66 1_555 1_555
C66 C64 1_555 1_555
Zn24 O17 1_555 1_555
O8_2 C29_2 1_555 1_555
O9_2 C29_2 1_555 1_555
C29_2 C30_2 1_555 1_555
C31_2 C30_2 1_555 1_555
H26_2 C31_2 1_555 1_555
H27_2 C32_2 1_555 1_555
Zn22_2 O9_2 1_555 1_555
C31_2 C32_2 1_555 1_555
O3_2 C15_2 1_555 1_555
C15_2 O29 1_555 1_555
C19_2 C15_2 1_555 1_555
C22_2 C19_2 1_555 1_555
H14_2 C22_2 1_555 1_555
C26_2 C22_2 1_555 1_555
H23_2 C26_2 1_555 1_555
O24_2 C93_2 1_555 1_555
O25_2 C93_2 1_555 1_555
C93_2 C94_2 1_555 1_555
Zn23_2 O25_2 1_555 1_555
H72_2 C89_2 1_555 1_555
C92_2 C89_2 1_555 1_555
H77_2 C92_2 1_555 1_555
H57_2 C67_2 1_555 1_555
H58_2 C68_2 1_555 1_555
H78_2 C95_2 1_555 1_555
H79_2 C96_2 1_555 1_555
C67_2 C68_2 1_555 1_555
C95_2 C96_2 1_555 1_555
O12_2 C55_2 1_555 1_555
C55_2 O30 1_555 1_555
C59_2 C55_2 1_555 1_555
O20_2 C83_2 1_555 1_555
C83_2 O31 1_555 1_555
C87_2 C83_2 1_555 1_555
O16_2 C65_2 1_555 1_555
O17_2 C65_2 1_555 1_555
C65_2 C66_2 1_555 1_555
Zn24_2 O17_2 1_555 1_555
H51_2 C61_2 1_555 1_555
C64_2 C61_2 1_555 1_555
H56_2 C64_2 1_555 1_555
O1_2 C6_2 1_555 1_555
O2_2 C6_2 1_555 1_555
N7_2 C20_2 1_555 1_555
O5_2 Zn1_2 1_555 1_555
C5_2 C9_2 1_555 1_555
C6_2 C7_2 1_555 1_555
C9_2 H6_2 1_555 1_555
N10_2 Zn22 1_555 1_555
C18_2 C7_2 1_555 1_555
H12_2 C18_2 1_555 1_555
C20_2 N10_2 1_555 1_555
B2_2 N7_2 1_555 1_555
H19_2 B2_2 1_555 1_555
C25_2 C20_2 1_555 1_555
H20_2 C25_2 1_555 1_555
H21_2 C25_2 1_555 1_555
H22_2 C25_2 1_555 1_555
C27_2 N7_2 1_555 1_555
H24_2 C27_2 1_555 1_555
C28_2 N10_2 1_555 1_555
H25_2 C28_2 1_555 1_555
N12_2 B2_2 1_555 1_555
N13_2 C33_2 1_555 1_555
C33_2 N12_2 1_555 1_555
C34_2 C33_2 1_555 1_555
H28_2 C34_2 1_555 1_555
H29_2 C34_2 1_555 1_555
H30_2 C34_2 1_555 1_555
C35_2 N12_2 1_555 1_555
H31_2 C35_2 1_555 1_555
C36_2 N13_2 1_555 1_555
H32_2 C36_2 1_555 1_555
N14_2 B2_2 1_555 1_555
N15_2 C37_2 1_555 1_555
C37_2 N14_2 1_555 1_555
C38_2 C37_2 1_555 1_555
H33_2 C38_2 1_555 1_555
H34_2 C38_2 1_555 1_555
H35_2 C38_2 1_555 1_555
C39_2 N14_2 1_555 1_555
H36_2 C39_2 1_555 1_555
C40_2 N15_2 1_555 1_555
H37_2 C40_2 1_555 1_555
N40_2 C106_2 1_555 1_555
N43_2 Zn22_2 1_555 1_555
C106_2 N43_2 1_555 1_555
B6_2 N40_2 1_555 1_555
H92_2 B6_2 1_555 1_555
C110_2 C106_2 1_555 1_555
H93_2 C110_2 1_555 1_555
H94_2 C110_2 1_555 1_555
H95_2 C110_2 1_555 1_555
C111_2 N40_2 1_555 1_555
H96_2 C111_2 1_555 1_555
C112_2 N43_2 1_555 1_555
H97_2 C112_2 1_555 1_555
N44_2 B6_2 1_555 1_555
N45_2 C113_2 1_555 1_555
C113_2 N44_2 1_555 1_555
C114_2 C113_2 1_555 1_555
H98_2 C114_2 1_555 1_555
H99_2 C114_2 1_555 1_555
H100_2 C114_2 1_555 1_555
C115_2 N44_2 1_555 1_555
H101_2 C115_2 1_555 1_555
C116_2 N45_2 1_555 1_555
H102_2 C116_2 1_555 1_555
N46_2 B6_2 1_555 1_555
N47_2 C117_2 1_555 1_555
C117_2 N46_2 1_555 1_555
C118_2 C117_2 1_555 1_555
H103_2 C118_2 1_555 1_555
H104_2 C118_2 1_555 1_555
H105_2 C118_2 1_555 1_555
C119_2 N46_2 1_555 1_555
H106_2 C119_2 1_555 1_555
C120_2 N47_2 1_555 1_555
H107_2 C120_2 1_555 1_555
Zn13_2 O2_2 1_555 1_555
Zn23 N13_2 1_555 1_555
Zn24 N15_2 1_555 1_555
Zn23_2 N45_2 1_555 1_555
Zn24_2 N47_2 1_555 1_555
O28_2 Zn1_2 1_555 1_555
N64_2 Zn22 1_555 1_555
N66_2 Zn22_2 1_555 1_555
C9_2 C18_2 1_555 1_555
C27_2 C28_2 1_555 1_555
C35_2 C36_2 1_555 1_555
C39_2 C40_2 1_555 1_555
C111_2 C112_2 1_555 1_555
C115_2 C116_2 1_555 1_555
C119_2 C120_2 1_555 1_555
N31_2 C81_2 1_555 1_555
H67_2 C82_2 1_555 1_555
C88_2 N31_2 1_555 1_555
H71_2 C88_2 1_555 1_555
N62_2 C139_2 1_555 1_555
H127_2 C140_2 1_555 1_555
C142_2 N62_2 1_555 1_555
H129_2 C142_2 1_555 1_555
Zn23 N31_2 1_555 1_555
Zn23_2 N62_2 1_555 1_555
C82_2 C88_2 1_555 1_555
C140_2 C142_2 1_555 1_555
Zn3_2 N9_2 1_555 1_555
N1_2 C1_2 1_555 1_555
N2_2 C3_2 1_555 1_555
N4_2 C4_2 1_555 1_555
N5_2 C4_2 1_555 1_555
N6_2 C2_2 1_555 1_555
C1_2 H1_2 1_555 1_555
N9_2 C2_2 1_555 1_555
C2_2 H2_2 1_555 1_555
C3_2 N1_2 1_555 1_555
H3_2 C3_2 1_555 1_555
C8_2 N2_2 1_555 1_555
C10_2 N4_2 1_555 1_555
H7_2 C10_2 1_555 1_555
C11_2 C17_2 1_555 1_555
C16_2 N5_2 1_555 1_555
H10_2 C16_2 1_555 1_555
H11_2 C17_2 1_555 1_555
B1_2 N1_2 1_555 1_555
O6_2 Zn3_2 1_555 1_555
C23_2 N6_2 1_555 1_555
H15_2 C23_2 1_555 1_555
N11_2 C11_2 1_555 1_555
H16_2 N11_2 1_555 1_555
H17_2 N11_2 1_555 1_555
C24_2 N9_2 1_555 1_555
H18_2 C24_2 1_555 1_555
O7_2 C12_2 1_555 1_555
N16_2 C41_2 1_555 1_555
N17_2 C43_2 1_555 1_555
N18_2 C53_2 1_555 1_555
N19_2 C44_2 1_555 1_555
N20_2 C44_2 1_555 1_555
N21_2 C42_2 1_555 1_555
C41_2 H38_2 1_555 1_555
N64_2 C53_2 1_555 1_555
N23_2 Zn3_2 1_555 1_555
C42_2 N23_2 1_555 1_555
H39_2 C42_2 1_555 1_555
C43_2 N16_2 1_555 1_555
H40_2 C43_2 1_555 1_555
C48_2 N17_2 1_555 1_555
C50_2 N19_2 1_555 1_555
H44_2 C50_2 1_555 1_555
C51_2 C57_2 1_555 1_555
C53_2 H45_2 1_555 1_555
C54_2 N18_2 1_555 1_555
H46_2 C54_2 1_555 1_555
C56_2 N20_2 1_555 1_555
H47_2 C56_2 1_555 1_555
H48_2 C57_2 1_555 1_555
B3_2 N16_2 1_555 1_555
C60_2 N64_2 1_555 1_555
H50_2 C60_2 1_555 1_555
C62_2 N21_2 1_555 1_555
H52_2 C62_2 1_555 1_555
N24_2 C51_2 1_555 1_555
H53_2 N24_2 1_555 1_555
H54_2 N24_2 1_555 1_555
C63_2 N23_2 1_555 1_555
H55_2 C63_2 1_555 1_555
O15_2 C52_2 1_555 1_555
Zn9_2 N42_2 1_555 1_555
N34_2 C97_2 1_555 1_555
N37_2 C100_2 1_555 1_555
N38_2 C100_2 1_555 1_555
N39_2 C98_2 1_555 1_555
C97_2 H80_2 1_555 1_555
N42_2 C98_2 1_555 1_555
C98_2 H81_2 1_555 1_555
C99_2 N34_2 1_555 1_555
H82_2 C99_2 1_555 1_555
C101_2 N35_2 1_555 1_555
C102_2 N37_2 1_555 1_555
H85_2 C102_2 1_555 1_555
C105_2 N38_2 1_555 1_555
H88_2 C105_2 1_555 1_555
B5_2 N34_2 1_555 1_555
O26_2 Zn9_2 1_555 1_555
C108_2 N39_2 1_555 1_555
H90_2 C108_2 1_555 1_555
C109_2 N42_2 1_555 1_555
H91_2 C109_2 1_555 1_555
N48_2 C121_2 1_555 1_555
N50_2 C127_2 1_555 1_555
N51_2 C124_2 1_555 1_555
N52_2 C124_2 1_555 1_555
N53_2 C122_2 1_555 1_555
C121_2 H108_2 1_555 1_555
N66_2 C127_2 1_555 1_555
N55_2 Zn9_2 1_555 1_555
C122_2 N55_2 1_555 1_555
H109_2 C122_2 1_555 1_555
C123_2 N48_2 1_555 1_555
H110_2 C123_2 1_555 1_555
C125_2 N49_2 1_555 1_555
C126_2 N51_2 1_555 1_555
H113_2 C126_2 1_555 1_555
C127_2 H114_2 1_555 1_555
C128_2 N50_2 1_555 1_555
H115_2 C128_2 1_555 1_555
C129_2 N52_2 1_555 1_555
H116_2 C129_2 1_555 1_555
B7_2 N48_2 1_555 1_555
C130_2 N66_2 1_555 1_555
H117_2 C130_2 1_555 1_555
C131_2 N53_2 1_555 1_555
H118_2 C131_2 1_555 1_555
C132_2 N55_2 1_555 1_555
H119_2 C132_2 1_555 1_555
N68_2 Zn3_2 1_555 1_555
N69_2 Zn9_2 1_555 1_555
N3_2 B1_2 1_555 1_555
N4_2 B1_2 1_555 1_555
N6_2 B1_2 1_555 1_555
C1_2 C8_2 1_555 1_555
C10_2 C16_2 1_555 1_555
C23_2 C24_2 1_555 1_555
N18_2 B3_2 1_555 1_555
N19_2 B3_2 1_555 1_555
N21_2 B3_2 1_555 1_555
C41_2 C48_2 1_555 1_555
C50_2 C56_2 1_555 1_555
C54_2 C60_2 1_555 1_555
C62_2 C63_2 1_555 1_555
N35_2 C99_2 1_555 1_555
N36_2 B5_2 1_555 1_555
N37_2 B5_2 1_555 1_555
N39_2 B5_2 1_555 1_555
C97_2 C101_2 1_555 1_555
C102_2 C105_2 1_555 1_555
C108_2 C109_2 1_555 1_555
N49_2 C123_2 1_555 1_555
N50_2 B7_2 1_555 1_555
N51_2 B7_2 1_555 1_555
N53_2 B7_2 1_555 1_555
C121_2 C125_2 1_555 1_555
C126_2 C129_2 1_555 1_555
C128_2 C130_2 1_555 1_555
C131_2 C132_2 1_555 1_555
N8_2 C13_2 1_555 1_555
H9_2 C14_2 1_555 1_555
C21_2 N8_2 1_555 1_555
H13_2 C21_2 1_555 1_555
O10_2 C46_2 1_555 1_555
O11_2 C46_2 1_555 1_555
O14_2 Zn13_2 1_555 1_555
C45_2 C49_2 1_555 1_555
C46_2 C47_2 1_555 1_555
C49_2 H43_2 1_555 1_555
C58_2 C47_2 1_555 1_555
H49_2 C58_2 1_555 1_555
Zn6_2 O11_2 1_555 1_555
Zn24 N8_2 1_555 1_555
N25_2 C69_2 1_555 1_555
N26_2 Zn6_2 1_555 1_555
O18_2 C74_2 1_555 1_555
N28_2 C72_2 1_555 1_555
O28_2 C74_2 1_555 1_555
N29_2 Zn24 1_555 1_555
N30_2 C70_2 1_555 1_555
C69_2 H59_2 1_555 1_555
N68_2 C70_2 1_555 1_555
C70_2 H60_2 1_555 1_555
C71_2 N25_2 1_555 1_555
H61_2 C71_2 1_555 1_555
O22_2 Zn6_2 1_555 1_555
C72_2 N29_2 1_555 1_555
H62_2 C72_2 1_555 1_555
C73_2 C77_2 1_555 1_555
C74_2 C75_2 1_555 1_555
C75_2 C79_2 1_555 1_555
C76_2 N26_2 1_555 1_555
H63_2 C76_2 1_555 1_555
C77_2 H64_2 1_555 1_555
C78_2 N28_2 1_555 1_555
H65_2 C78_2 1_555 1_555
C79_2 C85_2 1_555 1_555
C80_2 O22_2 1_555 1_555
C84_2 N29_2 1_555 1_555
H68_2 C84_2 1_555 1_555
C85_2 C73_2 1_555 1_555
H69_2 C85_2 1_555 1_555
C86_2 C75_2 1_555 1_555
H70_2 C86_2 1_555 1_555
B4_2 N25_2 1_555 1_555
C90_2 N30_2 1_555 1_555
H73_2 C90_2 1_555 1_555
N33_2 C79_2 1_555 1_555
H74_2 N33_2 1_555 1_555
H75_2 N33_2 1_555 1_555
C91_2 N68_2 1_555 1_555
H76_2 C91_2 1_555 1_555
O23_2 C80_2 1_555 1_555
N41_2 C103_2 1_555 1_555
H87_2 C104_2 1_555 1_555
C107_2 N41_2 1_555 1_555
H89_2 C107_2 1_555 1_555
Zn24_2 N41_2 1_555 1_555
N56_2 C133_2 1_555 1_555
N57_2 Zn6_2 1_555 1_555
N59_2 C136_2 1_555 1_555
N60_2 Zn24_2 1_555 1_555
N61_2 C134_2 1_555 1_555
C133_2 H120_2 1_555 1_555
N69_2 C134_2 1_555 1_555
C134_2 H121_2 1_555 1_555
C135_2 N56_2 1_555 1_555
H122_2 C135_2 1_555 1_555
C136_2 N60_2 1_555 1_555
H123_2 C136_2 1_555 1_555
C137_2 N57_2 1_555 1_555
H124_2 C137_2 1_555 1_555
C138_2 N59_2 1_555 1_555
H125_2 C138_2 1_555 1_555
C141_2 N60_2 1_555 1_555
H128_2 C141_2 1_555 1_555
B8_2 N56_2 1_555 1_555
C143_2 N61_2 1_555 1_555
H130_2 C143_2 1_555 1_555
C144_2 N69_2 1_555 1_555
H131_2 C144_2 1_555 1_555
C14_2 C21_2 1_555 1_555
C49_2 C58_2 1_555 1_555
N26_2 C71_2 1_555 1_555
N27_2 B4_2 1_555 1_555
N28_2 B4_2 1_555 1_555
N30_2 B4_2 1_555 1_555
C69_2 C76_2 1_555 1_555
C73_2 C80_2 1_555 1_555
C77_2 C86_2 1_555 1_555
C78_2 C84_2 1_555 1_555
C90_2 C91_2 1_555 1_555
C104_2 C107_2 1_555 1_555
N57_2 C135_2 1_555 1_555
N58_2 B8_2 1_555 1_555
N59_2 B8_2 1_555 1_555
N61_2 B8_2 1_555 1_555
C133_2 C137_2 1_555 1_555
C138_2 C141_2 1_555 1_555
C143_2 C144_2 1_555 1_555

#END
