
###############################################################################
#
# This file contains modified crystal structure data generated from the
# MOF subset of the Cambridge Structural Database (CSD) v543 
# hosted by the Cambridge Crystallographic Data Centre (CCDC).
#
# This work is licensed under the Creative Commons
# Attribution-NonCommercial-ShareAlike 4.0 International License.
# To view a copy of this license, visit
# http://creativecommons.org/licenses/by-nc-sa/4.0/
# or send a letter to
# Creative Commons, PO Box 1866, Mountain View, CA 94042, USA.
#
# CIF created using the CSD Python API on 29 September 2022
# The structure has been converted into the P1 space group
# The structure has a 3D framework
# The original CSD entry QEFPAW is in the orthorhombic crystal system
# The framework has been calculated to contain at least 10.0% void space
# The void calculation uses a probe of radius 1.32A, grid spacing 0.4
#
###############################################################################

data_QEFPAW
_chemical_formula_moiety         '(C104 H128 Cu24 Mo6 N80 O32)n'
_symmetry_cell_setting           triclinic
_symmetry_space_group_name_H-M   'P 1'
_symmetry_Int_Tables_number      1
_space_group_name_Hall           'P 1'
loop_
_symmetry_equiv_pos_site_id
_symmetry_equiv_pos_as_xyz
1 x,y,z
_cell_length_a                   19.919(5)
_cell_length_b                   14.988(4)
_cell_length_c                   15.696(4)
_cell_angle_alpha                90
_cell_angle_beta                 90
_cell_angle_gamma                90
_cell_volume                     4685.98
loop_
_atom_site_label
_atom_site_type_symbol
_atom_site_fract_x
_atom_site_fract_y
_atom_site_fract_z
Mo1 Mo 0.500 0.20911(9) 0.250
O1 O 0.6559(4) 0.6291(5) 0.1381(5)
H1 H 0.638943 0.669439 0.184064
N1 N 0.5830(5) 0.3886(7) 0.1925(6)
Cu1 Cu 0.61840(7) 0.51074(10) 0.17062(9)
C1 C 0.5562(5) 0.3264(8) 0.2106(7)
O2 O 0.7202(8) 0.4473(9) 0.0766(9)
H2 H 0.71201 0.391723 0.088907
H3 H 0.761506 0.447349 0.058685
N2 N 0.6495(6) 0.1495(7) 0.1801(7)
Cu2 Cu 0.75453(7) 0.63268(10) 0.15437(9)
C2 C 0.5964(7) 0.1696(8) 0.2037(8)
Cu3 Cu 0.61729(7) 0.68185(9) 0.03333(9)
N3 N 0.4233(5) 0.2742(7) 0.0757(6)
C3 C 0.4492(6) 0.2525(8) 0.1361(7)
N4 N 0.4655(6) 0.0341(8) 0.1294(7)
C4 C 0.4795(6) 0.0942(9) 0.1699(8)
C5 C 0.6948(6) 0.4456(8) 0.3237(8)
H4 H 0.663194 0.40172 0.340958
N5 N 0.6873(4) 0.5006(6) 0.2566(6)
O3 O 0.6009(5) 0.8175(6) 0.1032(6)
H5 H 0.606256 0.814801 0.164494
H6 H 0.555329 0.838819 0.100021
N6 N 0.7433(5) 0.5538(6) 0.2523(6)
C6 C 0.7564(6) 0.4628(8) 0.3648(7)
H7 H 0.774529 0.434591 0.413849
N7 N 0.7633(5) 0.6916(7) 0.0441(6)
C7 C 0.7844(6) 0.5307(8) 0.3165(8)
H8 H 0.82681 0.557303 0.327242
C8 C 0.8168(7) 0.7248(9) 0.0035(9)
H9 H 0.861869 0.719297 0.022578
N9 N 0.5346(5) 0.6212(6) 0.0634(6)
N10 N 0.5362(5) 0.5468(7) 0.1138(6)
C11 C 0.4721(6) 0.6321(8) 0.0360(8)
C12 C 0.4294(6) 0.5644(8) 0.0683(8)
H13 H 0.382663 0.556242 0.059372
C13 C 0.4737(6) 0.5130(8) 0.1165(8)
H14 H 0.461316 0.460883 0.147215
O4 O 0.7218(6) 0.8084(8) 0.2013(7)
H15 H 0.682117 0.827184 0.175557
H16 H 0.752872 0.849524 0.180355
O5 O 0.3441(4) 0.6291(5) 0.3619(5)
H17 H 0.361057 0.669439 0.315936
N11 N 0.4170(5) 0.3886(7) 0.3075(6)
Cu4 Cu 0.38160(7) 0.51074(10) 0.32938(9)
C14 C 0.4438(5) 0.3264(8) 0.2894(7)
O6 O 0.2798(8) 0.4473(9) 0.4234(9)
H18 H 0.28799 0.391723 0.411093
H19 H 0.238494 0.447349 0.441315
N12 N 0.3505(6) 0.1495(7) 0.3199(7)
Cu5 Cu 0.24547(7) 0.63268(10) 0.34563(9)
C15 C 0.4036(7) 0.1696(8) 0.2963(8)
Cu6 Cu 0.38271(7) 0.68185(9) 0.46667(9)
N13 N 0.5767(5) 0.2742(7) 0.4243(6)
C16 C 0.5508(6) 0.2525(8) 0.3639(7)
N14 N 0.5345(6) 0.0341(8) 0.3706(7)
C17 C 0.5205(6) 0.0942(9) 0.3301(8)
C18 C 0.3052(6) 0.4456(8) 0.1763(8)
H20 H 0.336806 0.40172 0.159042
N15 N 0.3127(4) 0.5006(6) 0.2434(6)
O7 O 0.3991(5) 0.8175(6) 0.3968(6)
H21 H 0.393744 0.814801 0.335506
H22 H 0.444671 0.838819 0.399979
N16 N 0.2567(5) 0.5538(6) 0.2477(6)
C19 C 0.2436(6) 0.4628(8) 0.1352(7)
H23 H 0.225471 0.434591 0.086151
N17 N 0.2367(5) 0.6916(7) 0.4559(6)
C20 C 0.2156(6) 0.5307(8) 0.1835(8)
H24 H 0.17319 0.557303 0.172758
C21 C 0.1832(7) 0.7248(9) 0.4965(9)
H25 H 0.138131 0.719297 0.477422
N18 N 0.2929(5) 0.7142(7) 0.5028(6)
N19 N 0.4654(5) 0.6212(6) 0.4366(6)
C22 C 0.2028(6) 0.7684(10) 0.5701(9)
H26 H 0.175336 0.797994 0.610727
C23 C 0.2708(6) 0.7587(8) 0.5706(8)
H27 H 0.29914 0.781218 0.614257
N20 N 0.4638(5) 0.5468(7) 0.3862(6)
C24 C 0.5279(6) 0.6321(8) 0.4640(8)
H28 H 0.542131 0.679071 0.500491
C25 C 0.5706(6) 0.5644(8) 0.4317(8)
H29 H 0.617337 0.556242 0.440628
C26 C 0.5263(6) 0.5130(8) 0.3835(8)
H30 H 0.538684 0.460883 0.352785
O8 O 0.2782(6) 0.8084(8) 0.2987(7)
H31 H 0.317883 0.827184 0.324443
H32 H 0.247128 0.849524 0.319645
N21 N 0.8505(6) 0.6495(7) 0.1801(7)
N22 N 0.1495(6) 0.6495(7) 0.3199(7)
Cu7 Cu 0.74547(7) 0.13268(10) 0.15437(9)
Cu8 Cu 0.25453(7) 0.13268(10) 0.34563(9)
Cu10 Cu 0.61729(7) 0.31815(9) 0.53333(9)
N24 N 0.4233(5) 0.7258(7) 0.5757(6)
N8 N 0.7071(5) 0.7142(7) 0.9972(6)
C9 C 0.7972(6) 0.7684(10) 0.9299(9)
H10 H 0.824664 0.797994 0.889273
C10 C 0.7292(6) 0.7587(8) 0.9294(8)
H11 H 0.70086 0.781218 0.885743
H12 H 0.457869 0.679071 0.999509
Cu9 Cu 0.38271(7) 0.31815(9) 0.96667(9)
N23 N 0.5767(5) 0.7258(7) 0.9243(6)
Mo1_2 Mo -0.000 0.29089(9) 0.750
N1_2 N 0.0830(5) 0.1114(7) 0.8075(6)
C1_2 C 0.0562(5) 0.1736(8) 0.7894(7)
O2_2 O 0.2202(8) 0.0527(9) 0.9234(9)
H2_2 H 0.21201 0.108277 0.911093
H3_2 H 0.261506 0.052651 0.941315
N2_2 N 0.1495(6) 0.3505(7) 0.8199(7)
C2_2 C 0.0964(7) 0.3304(8) 0.7963(8)
C5_2 C 0.1948(6) 0.0544(8) 0.6763(8)
H4_2 H 0.163194 0.09828 0.659042
C6_2 C 0.2564(6) 0.0372(8) 0.6352(7)
H7_2 H 0.274529 0.065409 0.586151
N13_2 N 0.0767(5) 0.2258(7) 0.5757(6)
C16_2 C 0.0508(6) 0.2475(8) 0.6361(7)
N14_2 N 0.0345(6) 0.4659(8) 0.6294(7)
C17_2 C 0.0205(6) 0.4058(9) 0.6699(8)
H30_2 H 0.038684 0.039117 0.647215
Cu7_2 Cu 0.24547(7) 0.36732(10) 0.84563(9)
Cu10_2 Cu 0.11729(7) 0.18185(9) 0.46667(9)
N8_2 N 0.2071(5) 0.7858(7) 0.0028(6)
C9_2 C 0.2972(6) 0.7316(10) 0.0701(9)
H10_2 H 0.324664 0.702006 0.110727
C10_2 C 0.2292(6) 0.7413(8) 0.0706(8)
H11_2 H 0.20086 0.718782 0.114257
N23_2 N 0.0767(5) 0.7742(7) 0.0757(6)
O1_2 O 0.1559(4) 0.8709(5) 0.8619(5)
H1_2 H 0.138943 0.830561 0.815936
Cu1_2 Cu 0.11840(7) 0.98926(10) 0.82938(9)
Cu2_2 Cu 0.25453(7) 0.86732(10) 0.84563(9)
Cu3_2 Cu 0.11729(7) 0.81815(9) 0.96667(9)
N5_2 N 0.1873(4) 0.9994(6) 0.7434(6)
O3_2 O 0.1009(5) 0.6825(6) 0.8968(6)
H5_2 H 0.106256 0.685199 0.835506
H6_2 H 0.055329 0.661181 0.899979
N6_2 N 0.2433(5) 0.9462(6) 0.7477(6)
N7_2 N 0.2633(5) 0.8084(7) 0.9559(6)
C7_2 C 0.2844(6) 0.9693(8) 0.6835(8)
H8_2 H 0.32681 0.942697 0.672758
C8_2 C 0.3168(7) 0.7752(9) 0.9965(9)
H9_2 H 0.361869 0.780703 0.977422
N9_2 N 0.0346(5) 0.8788(6) 0.9366(6)
N10_2 N 0.0362(5) 0.9532(7) 0.8862(6)
O4_2 O 0.2218(6) 0.6916(8) 0.7987(7)
H15_2 H 0.182117 0.672816 0.824443
H16_2 H 0.252872 0.650476 0.819645
C24_2 C 0.0279(6) 0.8679(8) 0.5360(8)
H28_2 H 0.042131 0.820929 0.499509
C25_2 C 0.0706(6) 0.9356(8) 0.5683(8)
H29_2 H 0.117337 0.943758 0.559372
C26_2 C 0.0263(6) 0.9870(8) 0.6165(8)
N21_2 N 0.3505(6) 0.8505(7) 0.8199(7)
Cu9_2 Cu 0.88271(7) 0.18185(9) 0.03333(9)
Mo1_3 Mo 1.000 0.29089(9) 0.750
N3_2 N 0.9233(5) 0.2258(7) 0.9243(6)
C3_2 C 0.9492(6) 0.2475(8) 0.8639(7)
N4_2 N 0.9655(6) 0.4659(8) 0.8706(7)
C4_2 C 0.9795(6) 0.4058(9) 0.8301(8)
H14_2 H 0.961316 0.039117 0.852785
N11_2 N 0.9170(5) 0.1114(7) 0.6925(6)
C14_2 C 0.9438(5) 0.1736(8) 0.7106(7)
O6_2 O 0.7798(8) 0.0527(9) 0.5766(9)
H18_2 H 0.78799 0.108277 0.588907
H19_2 H 0.738494 0.052651 0.558685
N12_2 N 0.8505(6) 0.3505(7) 0.6801(7)
C15_2 C 0.9036(7) 0.3304(8) 0.7037(8)
C18_2 C 0.8052(6) 0.0544(8) 0.8237(8)
H20_2 H 0.836806 0.09828 0.840958
C19_2 C 0.7436(6) 0.0372(8) 0.8648(7)
H23_2 H 0.725471 0.065409 0.913849
Cu8_2 Cu 0.75453(7) 0.36732(10) 0.65437(9)
C11_2 C 0.9721(6) 0.8679(8) 0.9640(8)
C12_2 C 0.9294(6) 0.9356(8) 0.9317(8)
H13_2 H 0.882663 0.943758 0.940628
C13_2 C 0.9737(6) 0.9870(8) 0.8835(8)
O5_2 O 0.8441(4) 0.8709(5) 0.6381(5)
H17_2 H 0.861057 0.830561 0.684064
Cu4_2 Cu 0.88160(7) 0.98926(10) 0.67062(9)
Cu5_2 Cu 0.74547(7) 0.86732(10) 0.65437(9)
Cu6_2 Cu 0.88271(7) 0.81815(9) 0.53333(9)
N15_2 N 0.8127(4) 0.9994(6) 0.7566(6)
O7_2 O 0.8991(5) 0.6825(6) 0.6032(6)
H21_2 H 0.893744 0.685199 0.664494
H22_2 H 0.944671 0.661181 0.600021
N16_2 N 0.7567(5) 0.9462(6) 0.7523(6)
N17_2 N 0.7367(5) 0.8084(7) 0.5441(6)
C20_2 C 0.7156(6) 0.9693(8) 0.8165(8)
H24_2 H 0.67319 0.942697 0.827242
C21_2 C 0.6832(7) 0.7752(9) 0.5035(9)
H25_2 H 0.638131 0.780703 0.522578
N18_2 N 0.7929(5) 0.7858(7) 0.4972(6)
N19_2 N 0.9654(5) 0.8788(6) 0.5634(6)
C22_2 C 0.7028(6) 0.7316(10) 0.4299(9)
H26_2 H 0.675336 0.702006 0.389273
C23_2 C 0.7708(6) 0.7413(8) 0.4294(8)
H27_2 H 0.79914 0.718782 0.385743
N20_2 N 0.9638(5) 0.9532(7) 0.6138(6)
O8_2 O 0.7782(6) 0.6916(8) 0.7013(7)
H31_2 H 0.817883 0.672816 0.675557
H32_2 H 0.747128 0.650476 0.680355
N22_2 N 0.6495(6) 0.8505(7) 0.6801(7)
N24_2 N 0.9233(5) 0.7742(7) 0.4243(6)
N8_3 N 0.2929(5) 0.2858(7) 0.0028(6)
C9_3 C 0.2028(6) 0.2316(10) 0.0701(9)
H10_3 H 0.175336 0.202006 0.110727
C10_3 C 0.2708(6) 0.2413(8) 0.0706(8)
H11_3 H 0.29914 0.218782 0.114257
H12_2 H 0.542131 0.320929 0.000491
Mo1_4 Mo 0.500 0.79089(9) 0.750
O1_3 O 0.3441(4) 0.3709(5) 0.8619(5)
H1_3 H 0.361057 0.330561 0.815936
N1_3 N 0.4170(5) 0.6114(7) 0.8075(6)
Cu1_3 Cu 0.38160(7) 0.48926(10) 0.82938(9)
C1_3 C 0.4438(5) 0.6736(8) 0.7894(7)
O2_3 O 0.2798(8) 0.5527(9) 0.9234(9)
H2_3 H 0.28799 0.608277 0.911093
H3_3 H 0.238494 0.552651 0.941315
C2_3 C 0.4036(7) 0.8304(8) 0.7963(8)
C3_3 C 0.5508(6) 0.7475(8) 0.8639(7)
N4_3 N 0.5345(6) 0.9659(8) 0.8706(7)
C4_3 C 0.5205(6) 0.9058(9) 0.8301(8)
C5_3 C 0.3052(6) 0.5544(8) 0.6763(8)
H4_3 H 0.336806 0.59828 0.659042
N5_3 N 0.3127(4) 0.4994(6) 0.7434(6)
O3_3 O 0.3991(5) 0.1825(6) 0.8968(6)
H5_3 H 0.393744 0.185199 0.835506
H6_3 H 0.444671 0.161181 0.899979
N6_3 N 0.2567(5) 0.4462(6) 0.7477(6)
C6_3 C 0.2436(6) 0.5372(8) 0.6352(7)
H7_3 H 0.225471 0.565409 0.586151
N7_3 N 0.2367(5) 0.3084(7) 0.9559(6)
C7_3 C 0.2156(6) 0.4693(8) 0.6835(8)
H8_3 H 0.17319 0.442697 0.672758
C8_3 C 0.1832(7) 0.2752(9) 0.9965(9)
H9_3 H 0.138131 0.280703 0.977422
N9_3 N 0.4654(5) 0.3788(6) 0.9366(6)
N10_3 N 0.4638(5) 0.4532(7) 0.8862(6)
C11_3 C 0.5279(6) 0.3679(8) 0.9640(8)
C12_3 C 0.5706(6) 0.4356(8) 0.9317(8)
H13_3 H 0.617337 0.443758 0.940628
C13_3 C 0.5263(6) 0.4870(8) 0.8835(8)
H14_3 H 0.538684 0.539117 0.852785
O4_3 O 0.2782(6) 0.1916(8) 0.7987(7)
H15_3 H 0.317883 0.172816 0.824443
H16_3 H 0.247128 0.150476 0.819645
O5_3 O 0.6559(4) 0.3709(5) 0.6381(5)
H17_3 H 0.638943 0.330561 0.684064
N11_3 N 0.5830(5) 0.6114(7) 0.6925(6)
Cu4_3 Cu 0.61840(7) 0.48926(10) 0.67062(9)
C14_3 C 0.5562(5) 0.6736(8) 0.7106(7)
O6_3 O 0.7202(8) 0.5527(9) 0.5766(9)
H18_3 H 0.71201 0.608277 0.588907
H19_3 H 0.761506 0.552651 0.558685
C15_3 C 0.5964(7) 0.8304(8) 0.7037(8)
C16_3 C 0.4492(6) 0.7475(8) 0.6361(7)
N14_3 N 0.4655(6) 0.9659(8) 0.6294(7)
C17_3 C 0.4795(6) 0.9058(9) 0.6699(8)
C18_3 C 0.6948(6) 0.5544(8) 0.8237(8)
H20_3 H 0.663194 0.59828 0.840958
N15_3 N 0.6873(4) 0.4994(6) 0.7566(6)
O7_3 O 0.6009(5) 0.1825(6) 0.6032(6)
H21_3 H 0.606256 0.185199 0.664494
H22_3 H 0.555329 0.161181 0.600021
N16_3 N 0.7433(5) 0.4462(6) 0.7523(6)
C19_3 C 0.7564(6) 0.5372(8) 0.8648(7)
H23_3 H 0.774529 0.565409 0.913849
N17_3 N 0.7633(5) 0.3084(7) 0.5441(6)
C20_3 C 0.7844(6) 0.4693(8) 0.8165(8)
H24_3 H 0.82681 0.442697 0.827242
C21_3 C 0.8168(7) 0.2752(9) 0.5035(9)
H25_3 H 0.861869 0.280703 0.522578
N18_3 N 0.7071(5) 0.2858(7) 0.4972(6)
N19_3 N 0.5346(5) 0.3788(6) 0.5634(6)
C22_3 C 0.7972(6) 0.2316(10) 0.4299(9)
H26_3 H 0.824664 0.202006 0.389273
C23_3 C 0.7292(6) 0.2413(8) 0.4294(8)
H27_3 H 0.70086 0.218782 0.385743
N20_3 N 0.5362(5) 0.4532(7) 0.6138(6)
C24_3 C 0.4721(6) 0.3679(8) 0.5360(8)
H28_3 H 0.457869 0.320929 0.499509
C25_3 C 0.4294(6) 0.4356(8) 0.5683(8)
H29_3 H 0.382663 0.443758 0.559372
C26_3 C 0.4737(6) 0.4870(8) 0.6165(8)
H30_3 H 0.461316 0.539117 0.647215
O8_3 O 0.7218(6) 0.1916(8) 0.7013(7)
H31_3 H 0.682117 0.172816 0.675557
H32_3 H 0.752872 0.150476 0.680355
C11_4 C 0.0279(6) 0.1321(8) 0.0360(8)
C12_4 C 0.0706(6) 0.0644(8) 0.0683(8)
H13_4 H 0.117337 0.056242 0.059372
C13_4 C 0.0263(6) 0.0130(8) 0.1165(8)
O5_4 O 0.1559(4) 0.1291(5) 0.3619(5)
H17_4 H 0.138943 0.169439 0.315936
Cu4_4 Cu 0.11840(7) 0.01074(10) 0.32938(9)
N15_4 N 0.1873(4) 0.0006(6) 0.2434(6)
O7_4 O 0.1009(5) 0.3175(6) 0.3968(6)
H21_4 H 0.106256 0.314801 0.335506
H22_4 H 0.055329 0.338819 0.399979
N16_4 N 0.2433(5) 0.0538(6) 0.2477(6)
N17_4 N 0.2633(5) 0.1916(7) 0.4559(6)
C20_4 C 0.2844(6) 0.0307(8) 0.1835(8)
H24_4 H 0.32681 0.057303 0.172758
C21_4 C 0.3168(7) 0.2248(9) 0.4965(9)
H25_4 H 0.361869 0.219297 0.477422
N18_4 N 0.2071(5) 0.2142(7) 0.5028(6)
N19_4 N 0.0346(5) 0.1212(6) 0.4366(6)
C22_4 C 0.2972(6) 0.2684(10) 0.5701(9)
H26_4 H 0.324664 0.297994 0.610727
C23_4 C 0.2292(6) 0.2587(8) 0.5706(8)
H27_4 H 0.20086 0.281218 0.614257
N20_4 N 0.0362(5) 0.0468(7) 0.3862(6)
O8_4 O 0.2218(6) 0.3084(8) 0.2987(7)
H31_4 H 0.182117 0.327184 0.324443
H32_4 H 0.252872 0.349524 0.319645
Mo1_5 Mo 0.000 0.70911(9) 0.250
C3_4 C 0.0508(6) 0.7525(8) 0.1361(7)
N4_4 N 0.0345(6) 0.5341(8) 0.1294(7)
C4_4 C 0.0205(6) 0.5942(9) 0.1699(8)
H14_4 H 0.038684 0.960883 0.147215
N11_4 N 0.0830(5) 0.8886(7) 0.3075(6)
C14_4 C 0.0562(5) 0.8264(8) 0.2894(7)
O6_4 O 0.2202(8) 0.9473(9) 0.4234(9)
H18_4 H 0.21201 0.891723 0.411093
H19_4 H 0.261506 0.947349 0.441315
C15_4 C 0.0964(7) 0.6696(8) 0.2963(8)
C18_4 C 0.1948(6) 0.9456(8) 0.1763(8)
H20_4 H 0.163194 0.90172 0.159042
C19_4 C 0.2564(6) 0.9628(8) 0.1352(7)
H23_4 H 0.274529 0.934591 0.086151
O1_4 O 0.8441(4) 0.1291(5) 0.1381(5)
H1_4 H 0.861057 0.169439 0.184064
Cu1_4 Cu 0.88160(7) 0.01074(10) 0.17062(9)
N5_4 N 0.8127(4) 0.0006(6) 0.2566(6)
O3_4 O 0.8991(5) 0.3175(6) 0.1032(6)
H5_4 H 0.893744 0.314801 0.164494
H6_4 H 0.944671 0.338819 0.100021
N6_4 N 0.7567(5) 0.0538(6) 0.2523(6)
N7_4 N 0.7367(5) 0.1916(7) 0.0441(6)
C7_4 C 0.7156(6) 0.0307(8) 0.3165(8)
H8_4 H 0.67319 0.057303 0.327242
C8_4 C 0.6832(7) 0.2248(9) 0.0035(9)
H9_4 H 0.638131 0.219297 0.022578
N9_4 N 0.9654(5) 0.1212(6) 0.0634(6)
N10_4 N 0.9638(5) 0.0468(7) 0.1138(6)
O4_4 O 0.7782(6) 0.3084(8) 0.2013(7)
H15_4 H 0.817883 0.327184 0.175557
H16_4 H 0.747128 0.349524 0.180355
C24_4 C 0.9721(6) 0.1321(8) 0.4640(8)
H28_4 H 0.957869 0.179071 0.500491
C25_4 C 0.9294(6) 0.0644(8) 0.4317(8)
H29_4 H 0.882663 0.056242 0.440628
C26_4 C 0.9737(6) 0.0130(8) 0.3835(8)
N8_4 N 0.7929(5) 0.2142(7) 0.9972(6)
C9_4 C 0.7028(6) 0.2684(10) 0.9299(9)
H10_4 H 0.675336 0.297994 0.889273
C10_4 C 0.7708(6) 0.2587(8) 0.9294(8)
H11_4 H 0.79914 0.281218 0.885743
Mo1_6 Mo 1.000 0.70911(9) 0.250
N1_4 N 0.9170(5) 0.8886(7) 0.1925(6)
C1_4 C 0.9438(5) 0.8264(8) 0.2106(7)
O2_4 O 0.7798(8) 0.9473(9) 0.0766(9)
H2_4 H 0.78799 0.891723 0.088907
H3_4 H 0.738494 0.947349 0.058685
C2_4 C 0.9036(7) 0.6696(8) 0.2037(8)
C5_4 C 0.8052(6) 0.9456(8) 0.3237(8)
H4_4 H 0.836806 0.90172 0.340958
C6_4 C 0.7436(6) 0.9628(8) 0.3648(7)
H7_4 H 0.725471 0.934591 0.413849
C16_4 C 0.9492(6) 0.7525(8) 0.3639(7)
N14_4 N 0.9655(6) 0.5341(8) 0.3706(7)
C17_4 C 0.9795(6) 0.5942(9) 0.3301(8)
H30_4 H 0.961316 0.960883 0.352785
H12_3 H 0.957869 0.820929 0.000491
H12_4 H 0.042131 0.179071 0.999509
loop_
_geom_bond_atom_site_label_1
_geom_bond_atom_site_label_2
_geom_bond_site_symmetry_1
_geom_bond_site_symmetry_2
Mo1 C1 1_555 1_555
O1 H1 1_555 1_555
N1 Cu1 1_555 1_555
Cu1 O1 1_555 1_555
C1 N1 1_555 1_555
O2 Cu1 1_555 1_555
H2 O2 1_555 1_555
H3 O2 1_555 1_555
N2 C2 1_555 1_555
Cu2 O1 1_555 1_555
C2 Mo1 1_555 1_555
Cu3 O1 1_555 1_555
N3 C3 1_555 1_555
C3 Mo1 1_555 1_555
N4 C4 1_555 1_555
C4 Mo1 1_555 1_555
C5 H4 1_555 1_555
N5 Cu1 1_555 1_555
O3 Cu3 1_555 1_555
H5 O3 1_555 1_555
H6 O3 1_555 1_555
N6 Cu2 1_555 1_555
C6 C5 1_555 1_555
H7 C6 1_555 1_555
N7 Cu2 1_555 1_555
C7 N6 1_555 1_555
H8 C7 1_555 1_555
C8 N7 1_555 1_555
H9 C8 1_555 1_555
N9 Cu3 1_555 1_555
N10 Cu1 1_555 1_555
C11 N9 1_555 1_555
C12 C11 1_555 1_555
H13 C12 1_555 1_555
C13 N10 1_555 1_555
H14 C13 1_555 1_555
O4 Cu2 1_555 1_555
H15 O4 1_555 1_555
H16 O4 1_555 1_555
O5 H17 1_555 1_555
N11 Cu4 1_555 1_555
Cu4 O5 1_555 1_555
C14 Mo1 1_555 1_555
O6 Cu4 1_555 1_555
H18 O6 1_555 1_555
H19 O6 1_555 1_555
N12 C15 1_555 1_555
Cu5 O5 1_555 1_555
C15 Mo1 1_555 1_555
Cu6 O5 1_555 1_555
N13 C16 1_555 1_555
C16 Mo1 1_555 1_555
N14 C17 1_555 1_555
C17 Mo1 1_555 1_555
C18 H20 1_555 1_555
N15 Cu4 1_555 1_555
O7 Cu6 1_555 1_555
H21 O7 1_555 1_555
H22 O7 1_555 1_555
N16 Cu5 1_555 1_555
C19 C18 1_555 1_555
H23 C19 1_555 1_555
N17 Cu5 1_555 1_555
C20 N16 1_555 1_555
H24 C20 1_555 1_555
C21 N17 1_555 1_555
H25 C21 1_555 1_555
N18 Cu6 1_555 1_555
N19 Cu6 1_555 1_555
C22 C21 1_555 1_555
H26 C22 1_555 1_555
C23 N18 1_555 1_555
H27 C23 1_555 1_555
N20 Cu4 1_555 1_555
C24 N19 1_555 1_555
H28 C24 1_555 1_555
C25 C24 1_555 1_555
H29 C25 1_555 1_555
C26 N20 1_555 1_555
H30 C26 1_555 1_555
O8 Cu5 1_555 1_555
H31 O8 1_555 1_555
H32 O8 1_555 1_555
N21 Cu2 1_555 1_555
N22 Cu5 1_555 1_555
Cu7 N2 1_555 1_555
Cu8 N12 1_555 1_555
Cu10 N13 1_555 1_555
N24 Cu6 1_555 1_555
C5 N5 1_555 1_555
N5 N6 1_555 1_555
C6 C7 1_555 1_555
N9 N10 1_555 1_555
C12 C13 1_555 1_555
N11 C14 1_555 1_555
C18 N15 1_555 1_555
N15 N16 1_555 1_555
C19 C20 1_555 1_555
N17 N18 1_555 1_555
N19 N20 1_555 1_555
C22 C23 1_555 1_555
C25 C26 1_555 1_555
H10 C9 1_555 1_555
C10 N8 1_555 1_555
H11 C10 1_555 1_555
C9 C10 1_555 1_555
Mo1_2 C1_2 1_555 1_555
C1_2 N1_2 1_555 1_555
H2_2 O2_2 1_555 1_555
H3_2 O2_2 1_555 1_555
N2_2 C2_2 1_555 1_555
C2_2 Mo1_2 1_555 1_555
C5_2 H4_2 1_555 1_555
C6_2 C5_2 1_555 1_555
H7_2 C6_2 1_555 1_555
N13_2 C16_2 1_555 1_555
C16_2 Mo1_2 1_555 1_555
N14_2 C17_2 1_555 1_555
C17_2 Mo1_2 1_555 1_555
Cu7_2 N2_2 1_555 1_555
Cu10_2 N13_2 1_555 1_555
H10_2 C9_2 1_555 1_555
C10_2 N8_2 1_555 1_555
H11_2 C10_2 1_555 1_555
C9_2 C10_2 1_555 1_555
O1_2 H1_2 1_555 1_555
Cu1_2 O1_2 1_555 1_555
Cu2_2 O1_2 1_555 1_555
Cu3_2 O1_2 1_555 1_555
N5_2 Cu1_2 1_555 1_555
O3_2 Cu3_2 1_555 1_555
H5_2 O3_2 1_555 1_555
H6_2 O3_2 1_555 1_555
N6_2 Cu2_2 1_555 1_555
N7_2 Cu2_2 1_555 1_555
C7_2 N6_2 1_555 1_555
H8_2 C7_2 1_555 1_555
C8_2 N7_2 1_555 1_555
H9_2 C8_2 1_555 1_555
N9_2 Cu3_2 1_555 1_555
N10_2 Cu1_2 1_555 1_555
O4_2 Cu2_2 1_555 1_555
H15_2 O4_2 1_555 1_555
H16_2 O4_2 1_555 1_555
H28_2 C24_2 1_555 1_555
C25_2 C24_2 1_555 1_555
H29_2 C25_2 1_555 1_555
N21_2 Cu2_2 1_555 1_555
N5_2 N6_2 1_555 1_555
N9_2 N10_2 1_555 1_555
C25_2 C26_2 1_555 1_555
N3_2 C3_2 1_555 1_555
C3_2 Mo1_3 1_555 1_555
N4_2 C4_2 1_555 1_555
C4_2 Mo1_3 1_555 1_555
C14_2 Mo1_3 1_555 1_555
H18_2 O6_2 1_555 1_555
H19_2 O6_2 1_555 1_555
N12_2 C15_2 1_555 1_555
C15_2 Mo1_3 1_555 1_555
C18_2 H20_2 1_555 1_555
C19_2 C18_2 1_555 1_555
H23_2 C19_2 1_555 1_555
Cu8_2 N12_2 1_555 1_555
N11_2 C14_2 1_555 1_555
C12_2 C11_2 1_555 1_555
H13_2 C12_2 1_555 1_555
O5_2 H17_2 1_555 1_555
Cu4_2 O5_2 1_555 1_555
Cu5_2 O5_2 1_555 1_555
Cu6_2 O5_2 1_555 1_555
N15_2 Cu4_2 1_555 1_555
O7_2 Cu6_2 1_555 1_555
H21_2 O7_2 1_555 1_555
H22_2 O7_2 1_555 1_555
N16_2 Cu5_2 1_555 1_555
N17_2 Cu5_2 1_555 1_555
C20_2 N16_2 1_555 1_555
H24_2 C20_2 1_555 1_555
C21_2 N17_2 1_555 1_555
H25_2 C21_2 1_555 1_555
N18_2 Cu6_2 1_555 1_555
N19_2 Cu6_2 1_555 1_555
C22_2 C21_2 1_555 1_555
H26_2 C22_2 1_555 1_555
C23_2 N18_2 1_555 1_555
H27_2 C23_2 1_555 1_555
N20_2 Cu4_2 1_555 1_555
O8_2 Cu5_2 1_555 1_555
H31_2 O8_2 1_555 1_555
H32_2 O8_2 1_555 1_555
N22_2 Cu5_2 1_555 1_555
N24_2 Cu6_2 1_555 1_555
C12_2 C13_2 1_555 1_555
N15_2 N16_2 1_555 1_555
N17_2 N18_2 1_555 1_555
N19_2 N20_2 1_555 1_555
C22_2 C23_2 1_555 1_555
H10_3 C9_3 1_555 1_555
C10_3 N8_3 1_555 1_555
H11_3 C10_3 1_555 1_555
C9_3 C10_3 1_555 1_555
Mo1_4 C1_3 1_555 1_555
O1_3 H1_3 1_555 1_555
N1_3 Cu1_3 1_555 1_555
Cu1_3 O1_3 1_555 1_555
C1_3 N1_3 1_555 1_555
O2_3 Cu1_3 1_555 1_555
H2_3 O2_3 1_555 1_555
H3_3 O2_3 1_555 1_555
N21_2 C2_3 1_555 1_555
Cu7_2 O1_3 1_555 1_555
C2_3 Mo1_4 1_555 1_555
Cu9 O1_3 1_555 1_555
N23 C3_3 1_555 1_555
C3_3 Mo1_4 1_555 1_555
N4_3 C4_3 1_555 1_555
C4_3 Mo1_4 1_555 1_555
C5_3 H4_3 1_555 1_555
N5_3 Cu1_3 1_555 1_555
O3_3 Cu9 1_555 1_555
H5_3 O3_3 1_555 1_555
H6_3 O3_3 1_555 1_555
N6_3 Cu7_2 1_555 1_555
C6_3 C5_3 1_555 1_555
H7_3 C6_3 1_555 1_555
N7_3 Cu7_2 1_555 1_555
C7_3 N6_3 1_555 1_555
H8_3 C7_3 1_555 1_555
C8_3 N7_3 1_555 1_555
H9_3 C8_3 1_555 1_555
N9_3 Cu9 1_555 1_555
N10_3 Cu1_3 1_555 1_555
C11_3 N9_3 1_555 1_555
C12_3 C11_3 1_555 1_555
H13_3 C12_3 1_555 1_555
C13_3 N10_3 1_555 1_555
H14_3 C13_3 1_555 1_555
O4_3 Cu7_2 1_555 1_555
H15_3 O4_3 1_555 1_555
H16_3 O4_3 1_555 1_555
O5_3 H17_3 1_555 1_555
N11_3 Cu4_3 1_555 1_555
Cu4_3 O5_3 1_555 1_555
C14_3 Mo1_4 1_555 1_555
O6_3 Cu4_3 1_555 1_555
H18_3 O6_3 1_555 1_555
H19_3 O6_3 1_555 1_555
N22_2 C15_3 1_555 1_555
Cu8_2 O5_3 1_555 1_555
C15_3 Mo1_4 1_555 1_555
Cu10 O5_3 1_555 1_555
N24 C16_3 1_555 1_555
C16_3 Mo1_4 1_555 1_555
N14_3 C17_3 1_555 1_555
C17_3 Mo1_4 1_555 1_555
C18_3 H20_3 1_555 1_555
N15_3 Cu4_3 1_555 1_555
O7_3 Cu10 1_555 1_555
H21_3 O7_3 1_555 1_555
H22_3 O7_3 1_555 1_555
N16_3 Cu8_2 1_555 1_555
C19_3 C18_3 1_555 1_555
H23_3 C19_3 1_555 1_555
N17_3 Cu8_2 1_555 1_555
C20_3 N16_3 1_555 1_555
H24_3 C20_3 1_555 1_555
C21_3 N17_3 1_555 1_555
H25_3 C21_3 1_555 1_555
N18_3 Cu10 1_555 1_555
N19_3 Cu10 1_555 1_555
C22_3 C21_3 1_555 1_555
H26_3 C22_3 1_555 1_555
C23_3 N18_3 1_555 1_555
H27_3 C23_3 1_555 1_555
N20_3 Cu4_3 1_555 1_555
C24_3 N19_3 1_555 1_555
H28_3 C24_3 1_555 1_555
C25_3 C24_3 1_555 1_555
H29_3 C25_3 1_555 1_555
C26_3 N20_3 1_555 1_555
H30_3 C26_3 1_555 1_555
O8_3 Cu8_2 1_555 1_555
H31_3 O8_3 1_555 1_555
H32_3 O8_3 1_555 1_555
C5_3 N5_3 1_555 1_555
N5_3 N6_3 1_555 1_555
C6_3 C7_3 1_555 1_555
N9_3 N10_3 1_555 1_555
C12_3 C13_3 1_555 1_555
N11_3 C14_3 1_555 1_555
C18_3 N15_3 1_555 1_555
N15_3 N16_3 1_555 1_555
C19_3 C20_3 1_555 1_555
N17_3 N18_3 1_555 1_555
N19_3 N20_3 1_555 1_555
C22_3 C23_3 1_555 1_555
C25_3 C26_3 1_555 1_555
C12_4 C11_4 1_555 1_555
H13_4 C12_4 1_555 1_555
O5_4 H17_4 1_555 1_555
Cu4_4 O5_4 1_555 1_555
Cu8 O5_4 1_555 1_555
Cu10_2 O5_4 1_555 1_555
N15_4 Cu4_4 1_555 1_555
O7_4 Cu10_2 1_555 1_555
H21_4 O7_4 1_555 1_555
H22_4 O7_4 1_555 1_555
N16_4 Cu8 1_555 1_555
N17_4 Cu8 1_555 1_555
C20_4 N16_4 1_555 1_555
H24_4 C20_4 1_555 1_555
C21_4 N17_4 1_555 1_555
H25_4 C21_4 1_555 1_555
N18_4 Cu10_2 1_555 1_555
N19_4 Cu10_2 1_555 1_555
C22_4 C21_4 1_555 1_555
H26_4 C22_4 1_555 1_555
C23_4 N18_4 1_555 1_555
H27_4 C23_4 1_555 1_555
N20_4 Cu4_4 1_555 1_555
O8_4 Cu8 1_555 1_555
H31_4 O8_4 1_555 1_555
H32_4 O8_4 1_555 1_555
C12_4 C13_4 1_555 1_555
N15_4 N16_4 1_555 1_555
N17_4 N18_4 1_555 1_555
N19_4 N20_4 1_555 1_555
C22_4 C23_4 1_555 1_555
N23_2 C3_4 1_555 1_555
C3_4 Mo1_5 1_555 1_555
N4_4 C4_4 1_555 1_555
C4_4 Mo1_5 1_555 1_555
C14_4 Mo1_5 1_555 1_555
H18_4 O6_4 1_555 1_555
H19_4 O6_4 1_555 1_555
N22 C15_4 1_555 1_555
C15_4 Mo1_5 1_555 1_555
C18_4 H20_4 1_555 1_555
C19_4 C18_4 1_555 1_555
H23_4 C19_4 1_555 1_555
N11_4 C14_4 1_555 1_555
O1_4 H1_4 1_555 1_555
Cu1_4 O1_4 1_555 1_555
Cu7 O1_4 1_555 1_555
Cu9_2 O1_4 1_555 1_555
N5_4 Cu1_4 1_555 1_555
O3_4 Cu9_2 1_555 1_555
H5_4 O3_4 1_555 1_555
H6_4 O3_4 1_555 1_555
N6_4 Cu7 1_555 1_555
N7_4 Cu7 1_555 1_555
C7_4 N6_4 1_555 1_555
H8_4 C7_4 1_555 1_555
C8_4 N7_4 1_555 1_555
H9_4 C8_4 1_555 1_555
N9_4 Cu9_2 1_555 1_555
N10_4 Cu1_4 1_555 1_555
O4_4 Cu7 1_555 1_555
H15_4 O4_4 1_555 1_555
H16_4 O4_4 1_555 1_555
H28_4 C24_4 1_555 1_555
C25_4 C24_4 1_555 1_555
H29_4 C25_4 1_555 1_555
N5_4 N6_4 1_555 1_555
N9_4 N10_4 1_555 1_555
C25_4 C26_4 1_555 1_555
H10_4 C9_4 1_555 1_555
C10_4 N8_4 1_555 1_555
H11_4 C10_4 1_555 1_555
C9_4 C10_4 1_555 1_555
Mo1_6 C1_4 1_555 1_555
C1_4 N1_4 1_555 1_555
H2_4 O2_4 1_555 1_555
H3_4 O2_4 1_555 1_555
N21 C2_4 1_555 1_555
C2_4 Mo1_6 1_555 1_555
C5_4 H4_4 1_555 1_555
C6_4 C5_4 1_555 1_555
H7_4 C6_4 1_555 1_555
N24_2 C16_4 1_555 1_555
C16_4 Mo1_6 1_555 1_555
N14_4 C17_4 1_555 1_555
C17_4 Mo1_6 1_555 1_555

#END
