
###############################################################################
#
# This file contains modified crystal structure data generated from the
# MOF subset of the Cambridge Structural Database (CSD) v543 
# hosted by the Cambridge Crystallographic Data Centre (CCDC).
#
# This work is licensed under the Creative Commons
# Attribution-NonCommercial-ShareAlike 4.0 International License.
# To view a copy of this license, visit
# http://creativecommons.org/licenses/by-nc-sa/4.0/
# or send a letter to
# Creative Commons, PO Box 1866, Mountain View, CA 94042, USA.
#
# CIF created using the CSD Python API on 29 September 2022
# The structure has been converted into the P1 space group
# The structure has a 3D framework
# The original CSD entry QEFWUV is in the hexagonal crystal system
# The framework has been calculated to contain at least 10.0% void space
# The void calculation uses a probe of radius 1.32A, grid spacing 0.4
# H atom positions have been added when not included in the experimental data
#
###############################################################################

data_QEFWUV
_chemical_formula_moiety         '(C288 H216 Cl12 Fe12 N36 O112 Zr26)n'
_symmetry_cell_setting           triclinic
_symmetry_space_group_name_H-M   'P 1'
_symmetry_Int_Tables_number      1
_space_group_name_Hall           'P 1'
loop_
_symmetry_equiv_pos_site_id
_symmetry_equiv_pos_as_xyz
1 x,y,z
_cell_length_a                   42.680(6)
_cell_length_b                   42.680(6)
_cell_length_c                   16.660(3)
_cell_angle_alpha                90
_cell_angle_beta                 90
_cell_angle_gamma                120
_cell_volume                     26281.8
loop_
_atom_site_label
_atom_site_type_symbol
_atom_site_fract_x
_atom_site_fract_y
_atom_site_fract_z
Zr8 Zr 0.45878(2) 0.0000 0.39436(5)
Zr6 Zr 0.45878(2) 0.0000 0.60564(5)
Cl1 Cl 0.2774(4) 0.7226(2) 0.0000
Fe1 Fe 0.24760(12) 0.75240(5) 0.0000
N2 N 0.1997(5) 0.7062(4) 0.0000
C13 C 0.1488(5) 0.6531(4) 0.0391(4)
C15 C 0.3469(4) 0.8512(5) 0.0391(4)
H9 H 0.1313 0.6353 0.0722
H11 H 0.3647 0.8687 0.0722
C17 C 0.2580(4) 0.7736(6) 0.2534(5)
C18 C 0.2264(6) 0.7420(4) 0.2534(5)
H13 H 0.2122 0.7304 0.2979
H14 H 0.2696 0.7878 0.2979
C20 C 0.27031(36) 0.78101(47) 0.1713(5)
C21 C 0.21899(47) 0.72969(36) 0.1713(5)
C23 C 0.08625(33) 0.59325(26) 0.3671(5)
C24 C 0.40675(26) 0.91375(33) 0.3671(5)
N3 N 0.24655(15) 0.75345(34) 0.1212(5)
O15 O 0.05392(18) 0.58510(13) 0.3528(3)
O16 O 0.41490(13) 0.94608(18) 0.3528(3)
O22 O 0.09719(16) 0.57946(13) 0.4194(3)
O23 O 0.42054(13) 0.90281(16) 0.4194(3)
Zr7 Zr 0.0000 0.54122(2) 0.39436(5)
Zr8_2 Zr 0.45878(2) 1.0000 0.39436(5)
Zr10 Zr 0.066480(23) 0.533240(11) 0.5000
Zr11 Zr 0.466760(25) 0.933520(23) 0.5000
N4 N 0.2938(4) 0.8003(5) 0.0000
C26 C 0.14944(34) 0.62884(28) 0.3119(5)
C27 C 0.37116(28) 0.85056(34) 0.3119(5)
H19 H 0.1559 0.6157 0.3457
H20 H 0.3843 0.8441 0.3457
C29 C 0.1147(5) 0.6228(4) 0.3148(5)
C30 C 0.3772(4) 0.8853(5) 0.3148(5)
C32 C 0.1649(5) 0.6715(4) 0.2091(5)
C33 C 0.3285(4) 0.8351(5) 0.2091(5)
C35 C 0.17477(47) 0.65347(36) 0.2611(5)
C36 C 0.34653(36) 0.82523(47) 0.2611(5)
H22 H 0.1984 0.6579 0.2620
H23 H 0.3421 0.8016 0.2620
C38 C 0.1044(5) 0.6417(4) 0.2676(6)
C39 C 0.3583(4) 0.8956(5) 0.2676(6)
H25 H 0.0811 0.6381 0.2708
H26 H 0.3619 0.9189 0.2708
C40 C 0.1812(5) 0.6859(4) 0.0653(5)
C42 C 0.3141(4) 0.8188(5) 0.0653(5)
C44 C 0.3039(4) 0.8101(5) 0.1445(5)
C45 C 0.1899(5) 0.6961(4) 0.1445(5)
C47 C 0.1303(5) 0.6677(4) 0.2125(5)
C48 C 0.3323(4) 0.8697(5) 0.2125(5)
H28 H 0.1242 0.6815 0.1799
H29 H 0.3185 0.8758 0.1799
H34 H 0.316609 0.793469 0.14768
H36 H 0.206531 0.683391 0.14768
Cl1_2 Cl 0.2774(4) 0.7226(2) 1.0000
O1 O 0.03176(15) 0.47496(25) 0.5000
C1 C 0.1488(5) 0.6531(4) 0.9609(4)
H1 H 0.1313 0.6353 0.9278
C2 C 0.2264(6) 0.7420(4) 0.7466(5)
H2 H 0.2122 0.7304 0.7021
C3 C 0.21899(47) 0.72969(36) 0.8287(5)
C4 C 0.08625(33) 0.59325(26) 0.6329(5)
N1 N 0.24655(34) 0.75345(15) 0.8788(5)
O2 O 0.03303(17) 0.51651(19) 0.3932(4)
O3 O 0.0000(2) 0.4616 0.7381(4)
H3 H 0.0162 0.4586 0.7561
O4 O 0.05392(18) 0.58510(13) 0.6472(3)
O5 O 0.09719(16) 0.57946(13) 0.5806(3)
Zr1 Zr -0.0000 0.45878(2) 0.60564(5)
Fe1_2 Fe 0.24760(12) 0.75240(5) 1.0000
N2_2 N 0.1997(5) 0.7062(4) 1.0000
C5 C 0.14944(34) 0.62884(28) 0.6881(5)
H4 H 0.1559 0.6157 0.6543
C6 C 0.1147(5) 0.6228(4) 0.6852(5)
C7 C 0.1649(5) 0.6715(4) 0.7909(5)
C8 C 0.17477(47) 0.65347(36) 0.7389(5)
H5 H 0.1984 0.6579 0.7380
C9 C 0.1044(5) 0.6417(4) 0.7324(6)
H6 H 0.0811 0.6381 0.7292
C10 C 0.1812(5) 0.6859(4) 0.9347(5)
C11 C 0.1899(5) 0.6961(4) 0.8555(5)
C12 C 0.1303(5) 0.6677(4) 0.7875(5)
H7 H 0.1242 0.6815 0.8201
O6 O -0.00000(15) 0.4059 0.5976(5)
O7 O 0.03176(15) 0.55680(29) 0.5000
C14 C 0.3469(4) 0.8512(5) 0.9609(4)
H10 H 0.3647 0.8687 0.9278
C16 C 0.2580(4) 0.7736(6) 0.7466(5)
H12 H 0.2696 0.7878 0.7021
C19 C 0.27031(36) 0.78101(47) 0.8287(5)
C22 C 0.40675(26) 0.91375(33) 0.6329(5)
O10 O 0.03303(17) 0.51652(25) 0.6068(4)
O13 O 0.0000(2) 0.5384(2) 0.2619(4)
H16 H 0.0162 0.5576 0.2439
O14 O 0.41490(13) 0.94608(18) 0.6472(3)
O18 O 0.05392(18) 0.46882(22) 0.6472(3)
O21 O 0.42054(13) 0.90281(16) 0.5806(3)
O24 O 0.09719(16) 0.51773(21) 0.4194(3)
O26 O 0.09719(16) 0.51773(21) 0.5806(3)
Zr4 Zr 0.0000 0.45878(2) 0.39436(5)
Zr5 Zr 0.0000 0.54122(2) 0.60564(5)
Zr6_2 Zr 0.45878(2) 1.0000 0.60564(5)
N4_2 N 0.2938(4) 0.8003(5) 1.0000
C25 C 0.37116(28) 0.85056(34) 0.6881(5)
H18 H 0.3843 0.8441 0.6543
C28 C 0.3772(4) 0.8853(5) 0.6852(5)
C31 C 0.3285(4) 0.8351(5) 0.7909(5)
C34 C 0.34653(36) 0.82523(47) 0.7389(5)
H21 H 0.3421 0.8016 0.7380
C37 C 0.3583(4) 0.8956(5) 0.7324(6)
H24 H 0.3619 0.9189 0.7292
C41 C 0.3141(4) 0.8188(5) 0.9347(5)
C43 C 0.3039(4) 0.8101(5) 0.8555(5)
C46 C 0.3323(4) 0.8697(5) 0.7875(5)
H27 H 0.3185 0.8758 0.8201
O27 O 0.00000(15) 0.59410(15) 0.4024(5)
H30 H 0.0195 0.4089 0.6132
H32 H 0.0195 0.6106 0.3868
H33 H 0.206531 0.683391 0.85232
H35 H 0.316609 0.793469 0.85232
Zr7_2 Zr 1.0000 0.54122(2) 0.39436(5)
O3_2 O 1.0000(2) 0.4616 0.7381(4)
Zr1_2 Zr 1.0000 0.45878(2) 0.60564(5)
O6_2 O 1.00000(15) 0.4059 0.5976(5)
H8 H 0.9805 0.3894 0.6132
O8 O 0.96824(15) 0.44320(29) 0.5000
O9 O 0.96824(15) 0.52504(25) 0.5000
O11 O 0.96697(17) 0.48348(25) 0.6068(4)
O12 O 0.96697(17) 0.48349(19) 0.3932(4)
O13_2 O 1.0000(2) 0.5384(2) 0.2619(4)
H15 H 0.9838 0.4424 0.7561
H17 H 0.9838 0.5414 0.2439
O17 O 0.94608(18) 0.41490(13) 0.6472(3)
O19 O 0.94608(18) 0.53118(22) 0.3528(3)
Zr4_2 Zr 1.0000 0.45878(2) 0.39436(5)
Zr5_2 Zr 1.0000 0.54122(2) 0.60564(5)
O27_2 O 1.00000(15) 0.59410(15) 0.4024(5)
H31 H 0.9805 0.5911 0.3868
Cl1_3 Cl 0.2774(2) 0.5548(4) 0.0000
Fe1_3 Fe 0.24760(5) 0.49520(13) 0.0000
N2_3 N 0.2938(4) 0.4935(6) 0.0000
C13_2 C 0.3469(4) 0.4957(6) 0.0391(4)
C15_2 C 0.1488(5) 0.4957(6) 0.0391(4)
H9_2 H 0.3647 0.4960 0.0722
H11_2 H 0.1313 0.4960 0.0722
C17_2 C 0.2264(6) 0.4844(7) 0.2534(5)
C18_2 C 0.2580(4) 0.4844(7) 0.2534(5)
H13_2 H 0.2696 0.4818 0.2979
H14_2 H 0.2122 0.4818 0.2979
C20_2 C 0.21899(47) 0.48930(59) 0.1713(5)
C21_2 C 0.27031(36) 0.48930(59) 0.1713(5)
C23_2 C 0.40675(26) 0.49300(42) 0.3671(5)
C24_2 C 0.08625(33) 0.49300(42) 0.3671(5)
N3_2 N 0.24655(34) 0.49310(37) 0.1212(5)
O15_2 O 0.41490(13) 0.46882(22) 0.3528(3)
O16_2 O 0.05392(18) 0.46882(22) 0.3528(3)
O22_2 O 0.42054(13) 0.51773(21) 0.4194(3)
Zr7_3 Zr 0.45878(2) 0.45878(2) 0.39436(5)
Zr10_2 Zr 0.466760(11) 0.533240(25) 0.5000
N4_3 N 0.1997(5) 0.4935(6) 0.0000
C26_2 C 0.37116(28) 0.52060(44) 0.3119(5)
C27_2 C 0.14944(34) 0.52060(44) 0.3119(5)
H19_2 H 0.3843 0.5402 0.3457
H20_2 H 0.1559 0.5402 0.3457
C29_2 C 0.3772(4) 0.4919(6) 0.3148(5)
C30_2 C 0.1147(5) 0.4919(6) 0.3148(5)
C32_2 C 0.3285(4) 0.4934(6) 0.2091(5)
C33_2 C 0.1649(5) 0.4934(6) 0.2091(5)
C35_2 C 0.34653(36) 0.52130(59) 0.2611(5)
C36_2 C 0.17477(47) 0.52130(59) 0.2611(5)
H22_2 H 0.3421 0.5405 0.2620
H23_2 H 0.1984 0.5405 0.2620
C38_2 C 0.3583(4) 0.4627(6) 0.2676(6)
C39_2 C 0.1044(5) 0.4627(6) 0.2676(6)
H25_2 H 0.3619 0.4430 0.2708
H26_2 H 0.0811 0.4430 0.2708
C40_2 C 0.3141(4) 0.4953(6) 0.0653(5)
C42_2 C 0.1812(5) 0.4953(6) 0.0653(5)
C44_2 C 0.1899(5) 0.4938(6) 0.1445(5)
C45_2 C 0.3039(4) 0.4938(6) 0.1445(5)
C47_2 C 0.3323(4) 0.4626(6) 0.2125(5)
C48_2 C 0.1303(5) 0.4626(6) 0.2125(5)
H28_2 H 0.3185 0.4427 0.1799
H29_2 H 0.1242 0.4427 0.1799
H34_2 H 0.206531 0.523141 0.14768
H36_2 H 0.316609 0.523141 0.14768
Cl1_4 Cl 0.2774(2) 0.5548(4) 1.0000
O1_2 O 0.52504(25) 0.55680(29) 0.5000
C1_2 C 0.3469(4) 0.4957(6) 0.9609(4)
H1_2 H 0.3647 0.4960 0.9278
C2_2 C 0.2580(4) 0.4844(7) 0.7466(5)
H2_2 H 0.2696 0.4818 0.7021
C3_2 C 0.27031(36) 0.48930(59) 0.8287(5)
C4_2 C 0.40675(26) 0.49300(42) 0.6329(5)
N1_2 N 0.24655(15) 0.49310(37) 0.8788(5)
O2_2 O 0.48349(19) 0.51652(25) 0.3932(4)
O3_3 O 0.5384 0.5384(2) 0.7381(4)
H3_2 H 0.5414 0.5576 0.7561
O4_2 O 0.41490(13) 0.46882(22) 0.6472(3)
O5_2 O 0.42054(13) 0.51773(21) 0.5806(3)
Zr1_3 Zr 0.54122(2) 0.54122(2) 0.60564(5)
Fe1_4 Fe 0.24760(5) 0.49520(13) 1.0000
N2_4 N 0.2938(4) 0.4935(6) 1.0000
C5_2 C 0.37116(28) 0.52060(44) 0.6881(5)
H4_2 H 0.3843 0.5402 0.6543
C6_2 C 0.3772(4) 0.4919(6) 0.6852(5)
C7_2 C 0.3285(4) 0.4934(6) 0.7909(5)
C8_2 C 0.34653(36) 0.52130(59) 0.7389(5)
H5_2 H 0.3421 0.5405 0.7380
C9_2 C 0.3583(4) 0.4627(6) 0.7324(6)
H6_2 H 0.3619 0.4430 0.7292
C10_2 C 0.3141(4) 0.4953(6) 0.9347(5)
C11_2 C 0.3039(4) 0.4938(6) 0.8555(5)
C12_2 C 0.3323(4) 0.4626(6) 0.7875(5)
H7_2 H 0.3185 0.4427 0.8201
O6_3 O 0.5941 0.59410(15) 0.5976(5)
H8_2 H 0.6106 0.5911 0.6132
O7_2 O 0.44320(29) 0.47496(33) 0.5000
O8_2 O 0.55680(29) 0.52504(33) 0.5000
O9_2 O 0.47496(25) 0.44320(29) 0.5000
C14_2 C 0.1488(5) 0.4957(6) 0.9609(4)
H10_2 H 0.1313 0.4960 0.9278
C16_2 C 0.2264(6) 0.4844(7) 0.7466(5)
H12_2 H 0.2122 0.4818 0.7021
C19_2 C 0.21899(47) 0.48930(59) 0.8287(5)
C22_2 C 0.08625(33) 0.49300(42) 0.6329(5)
O10_2 O 0.48348(25) 0.51651(30) 0.6068(4)
O11_2 O 0.51652(25) 0.48349(30) 0.6068(4)
O12_2 O 0.51651(19) 0.48348(25) 0.3932(4)
O13_3 O 0.4616(2) 0.4616(3) 0.2619(4)
H15_2 H 0.5576 0.5414 0.7561
H16_2 H 0.4424 0.4586 0.2439
H17_2 H 0.4586 0.4424 0.2439
O17_2 O 0.58510(13) 0.53118(22) 0.6472(3)
O18_2 O 0.53118(22) 0.58510(28) 0.6472(3)
O19_2 O 0.46882(22) 0.41490(28) 0.3528(3)
O24_2 O 0.48227(21) 0.57946(26) 0.4194(3)
O26_2 O 0.48227(21) 0.57946(26) 0.5806(3)
Zr4_3 Zr 0.54122(2) 0.54122(2) 0.39436(5)
Zr5_3 Zr 0.45878(2) 0.45878(2) 0.60564(5)
N4_4 N 0.1997(5) 0.4935(6) 1.0000
C25_2 C 0.14944(34) 0.52060(44) 0.6881(5)
H18_2 H 0.1559 0.5402 0.6543
C28_2 C 0.1147(5) 0.4919(6) 0.6852(5)
C31_2 C 0.1649(5) 0.4934(6) 0.7909(5)
C34_2 C 0.17477(47) 0.52130(59) 0.7389(5)
H21_2 H 0.1984 0.5405 0.7380
C37_2 C 0.1044(5) 0.4627(6) 0.7324(6)
H24_2 H 0.0811 0.4430 0.7292
C41_2 C 0.1812(5) 0.4953(6) 0.9347(5)
C43_2 C 0.1899(5) 0.4938(6) 0.8555(5)
C46_2 C 0.1303(5) 0.4626(6) 0.7875(5)
H27_2 H 0.1242 0.4427 0.8201
O27_3 O 0.40590(15) 0.40590(21) 0.4024(5)
H30_2 H 0.5911 0.6106 0.6132
H31_2 H 0.4089 0.3894 0.3868
H32_2 H 0.3894 0.4089 0.3868
H33_2 H 0.316609 0.523141 0.85232
H35_2 H 0.206531 0.523141 0.85232
Zr7_4 Zr 0.54122(2) -0.0000 0.39436(5)
O3_4 O 0.4616(2) -0.0000(2) 0.7381(4)
O6_4 O 0.40590(15) 0.00000(15) 0.5976(5)
H8_3 H 0.4089 0.0195 0.6132
O8_3 O 0.47496(33) 0.03176(15) 0.5000
O9_3 O 0.55680(29) 0.03176(15) 0.5000
O11_3 O 0.51651(30) 0.03303(17) 0.6068(4)
O12_3 O 0.51652(25) 0.03303(17) 0.3932(4)
O13_4 O 0.5384(3) -0.0000(2) 0.2619(4)
H15_3 H 0.4586 0.0162 0.7561
H17_3 H 0.5576 0.0162 0.2439
O17_3 O 0.46882(22) 0.05392(18) 0.6472(3)
O19_3 O 0.58510(28) 0.05392(18) 0.3528(3)
Zr5_4 Zr 0.54122(2) -0.0000 0.60564(5)
O27_4 O 0.59410(21) 0.00000(15) 0.4024(5)
H31_3 H 0.6106 0.0195 0.3868
Cl1_5 Cl 0.4452(4) 0.7226(4) 0.0000
Fe1_5 Fe 0.50480(13) 0.75240(12) 0.0000
N2_5 N 0.5065(6) 0.8003(5) 0.0000
C13_3 C 0.5043(6) 0.8512(5) 0.0391(4)
C15_3 C 0.5043(6) 0.6531(4) 0.0391(4)
H9_3 H 0.5040 0.8687 0.0722
H11_3 H 0.5040 0.6353 0.0722
C17_3 C 0.5156(7) 0.7420(4) 0.2534(5)
C18_3 C 0.5156(7) 0.7736(6) 0.2534(5)
H13_3 H 0.5182 0.7878 0.2979
H14_3 H 0.5182 0.7304 0.2979
C20_3 C 0.51070(59) 0.72969(36) 0.1713(5)
C21_3 C 0.51070(59) 0.78101(47) 0.1713(5)
C23_3 C 0.50700(42) 0.91375(33) 0.3671(5)
C24_3 C 0.50700(42) 0.59325(26) 0.3671(5)
N3_3 N 0.50690(37) 0.75345(15) 0.1212(5)
O15_3 O 0.53118(22) 0.94608(18) 0.3528(3)
O16_3 O 0.53118(22) 0.58510(13) 0.3528(3)
O22_3 O 0.48227(21) 0.90281(16) 0.4194(3)
Zr7_5 Zr 0.54122(2) 1.0000 0.39436(5)
N4_5 N 0.5065(6) 0.7062(4) 0.0000
C26_3 C 0.47940(44) 0.85056(34) 0.3119(5)
C27_3 C 0.47940(44) 0.62884(28) 0.3119(5)
H19_3 H 0.4598 0.8441 0.3457
H20_3 H 0.4598 0.6157 0.3457
C29_3 C 0.5081(6) 0.8853(5) 0.3148(5)
C30_3 C 0.5081(6) 0.6228(4) 0.3148(5)
C32_3 C 0.5066(6) 0.8351(5) 0.2091(5)
C33_3 C 0.5066(6) 0.6715(4) 0.2091(5)
C35_3 C 0.47870(59) 0.82523(47) 0.2611(5)
C36_3 C 0.47870(59) 0.65347(36) 0.2611(5)
H22_3 H 0.4595 0.8016 0.2620
H23_3 H 0.4595 0.6579 0.2620
C38_3 C 0.5373(6) 0.8956(5) 0.2676(6)
C39_3 C 0.5373(6) 0.6417(4) 0.2676(6)
H25_3 H 0.5570 0.9189 0.2708
H26_3 H 0.5570 0.6381 0.2708
C40_3 C 0.5047(6) 0.8188(5) 0.0653(5)
C42_3 C 0.5047(6) 0.6859(4) 0.0653(5)
C44_3 C 0.5062(6) 0.6961(4) 0.1445(5)
C45_3 C 0.5062(6) 0.8101(5) 0.1445(5)
C47_3 C 0.5374(6) 0.8697(5) 0.2125(5)
C48_3 C 0.5374(6) 0.6677(4) 0.2125(5)
H28_3 H 0.5573 0.8758 0.1799
H29_3 H 0.5573 0.6815 0.1799
H34_3 H 0.476859 0.683391 0.14768
H36_3 H 0.476859 0.793469 0.14768
Cl1_6 Cl 0.4452(4) 0.7226(4) 1.0000
O1_3 O 0.44320(29) 0.96824(15) 0.5000
C1_3 C 0.5043(6) 0.8512(5) 0.9609(4)
H1_3 H 0.5040 0.8687 0.9278
C2_3 C 0.5156(7) 0.7736(6) 0.7466(5)
H2_3 H 0.5182 0.7878 0.7021
C3_3 C 0.51070(59) 0.78101(47) 0.8287(5)
C4_3 C 0.50700(42) 0.91375(33) 0.6329(5)
N1_3 N 0.50690(37) 0.75345(34) 0.8788(5)
O2_3 O 0.48348(25) 0.96697(17) 0.3932(4)
O3_5 O 0.4616(2) 1.0000(2) 0.7381(4)
H3_3 H 0.4424 0.9838 0.7561
O4_3 O 0.53118(22) 0.94608(18) 0.6472(3)
O5_3 O 0.48227(21) 0.90281(16) 0.5806(3)
Fe1_6 Fe 0.50480(13) 0.75240(12) 1.0000
N2_6 N 0.5065(6) 0.8003(5) 1.0000
C5_3 C 0.47940(44) 0.85056(34) 0.6881(5)
H4_3 H 0.4598 0.8441 0.6543
C6_3 C 0.5081(6) 0.8853(5) 0.6852(5)
C7_3 C 0.5066(6) 0.8351(5) 0.7909(5)
C8_3 C 0.47870(59) 0.82523(47) 0.7389(5)
H5_3 H 0.4595 0.8016 0.7380
C9_3 C 0.5373(6) 0.8956(5) 0.7324(6)
H6_3 H 0.5570 0.9189 0.7292
C10_3 C 0.5047(6) 0.8188(5) 0.9347(5)
C11_3 C 0.5062(6) 0.8101(5) 0.8555(5)
C12_3 C 0.5374(6) 0.8697(5) 0.7875(5)
H7_3 H 0.5573 0.8758 0.8201
O6_5 O 0.40590(15) 1.00000(15) 0.5976(5)
O7_3 O 0.52504(33) 0.96824(15) 0.5000
C14_3 C 0.5043(6) 0.6531(4) 0.9609(4)
H10_3 H 0.5040 0.6353 0.9278
C16_3 C 0.5156(7) 0.7420(4) 0.7466(5)
H12_3 H 0.5182 0.7304 0.7021
C19_3 C 0.51070(59) 0.72969(36) 0.8287(5)
C22_3 C 0.50700(42) 0.59325(26) 0.6329(5)
O10_3 O 0.48349(30) 0.96697(17) 0.6068(4)
O13_5 O 0.5384(3) 1.0000(2) 0.2619(4)
H16_3 H 0.5414 0.9838 0.2439
Zr5_5 Zr 0.54122(2) 1.0000 0.60564(5)
N4_6 N 0.5065(6) 0.7062(4) 1.0000
C25_3 C 0.47940(44) 0.62884(28) 0.6881(5)
H18_3 H 0.4598 0.6157 0.6543
C28_3 C 0.5081(6) 0.6228(4) 0.6852(5)
C31_3 C 0.5066(6) 0.6715(4) 0.7909(5)
C34_3 C 0.47870(59) 0.65347(36) 0.7389(5)
H21_3 H 0.4595 0.6579 0.7380
C37_3 C 0.5373(6) 0.6417(4) 0.7324(6)
H24_3 H 0.5570 0.6381 0.7292
C41_3 C 0.5047(6) 0.6859(4) 0.9347(5)
C43_3 C 0.5062(6) 0.6961(4) 0.8555(5)
C46_3 C 0.5374(6) 0.6677(4) 0.7875(5)
H27_3 H 0.5573 0.6815 0.8201
O27_5 O 0.59410(21) 1.00000(15) 0.4024(5)
H30_3 H 0.3894 0.9805 0.6132
H32_3 H 0.5911 0.9805 0.3868
H33_3 H 0.476859 0.793469 0.85232
H35_3 H 0.476859 0.683391 0.85232
O3_6 O -0.0000(2) 0.5384 0.7381(4)
O6_6 O 0.00000(15) 0.5941 0.5976(5)
H8_4 H 0.0195 0.6106 0.6132
O13_6 O -0.0000(2) 0.4616(2) 0.2619(4)
H15_4 H 0.0162 0.5576 0.7561
H17_4 H 0.0162 0.4586 0.2439
O27_6 O -0.00000(15) 0.40590(15) 0.4024(5)
H31_4 H 0.0195 0.4089 0.3868
Cl1_7 Cl 0.7226(4) 0.2774(2) 0.0000
Fe1_7 Fe 0.75240(12) 0.24760(5) 0.0000
N2_7 N 0.8003(5) 0.2938(4) 0.0000
C13_4 C 0.8512(5) 0.3469(4) 0.0391(4)
C15_4 C 0.6531(4) 0.1488(5) 0.0391(4)
H9_4 H 0.8687 0.3647 0.0722
H11_4 H 0.6353 0.1313 0.0722
C17_4 C 0.7420(4) 0.2264(6) 0.2534(5)
C18_4 C 0.7736(6) 0.2580(4) 0.2534(5)
H13_4 H 0.7878 0.2696 0.2979
H14_4 H 0.7304 0.2122 0.2979
C20_4 C 0.72969(36) 0.21899(47) 0.1713(5)
C21_4 C 0.78101(47) 0.27031(36) 0.1713(5)
C23_4 C 0.91375(33) 0.40675(26) 0.3671(5)
C24_4 C 0.59325(26) 0.08625(33) 0.3671(5)
N3_4 N 0.75345(15) 0.24655(34) 0.1212(5)
O15_4 O 0.94608(18) 0.41490(13) 0.3528(3)
O22_4 O 0.90281(16) 0.42054(13) 0.4194(3)
O23_2 O 0.57946(13) 0.09719(16) 0.4194(3)
Zr10_3 Zr 0.933520(23) 0.466760(11) 0.5000
Zr11_2 Zr 0.533240(25) 0.066480(23) 0.5000
N4_7 N 0.7062(4) 0.1997(5) 0.0000
C26_4 C 0.85056(34) 0.37116(28) 0.3119(5)
C27_4 C 0.62884(28) 0.14944(34) 0.3119(5)
H19_4 H 0.8441 0.3843 0.3457
H20_4 H 0.6157 0.1559 0.3457
C29_4 C 0.8853(5) 0.3772(4) 0.3148(5)
C30_4 C 0.6228(4) 0.1147(5) 0.3148(5)
C32_4 C 0.8351(5) 0.3285(4) 0.2091(5)
C33_4 C 0.6715(4) 0.1649(5) 0.2091(5)
C35_4 C 0.82523(47) 0.34653(36) 0.2611(5)
C36_4 C 0.65347(36) 0.17477(47) 0.2611(5)
H22_4 H 0.8016 0.3421 0.2620
H23_4 H 0.6579 0.1984 0.2620
C38_4 C 0.8956(5) 0.3583(4) 0.2676(6)
C39_4 C 0.6417(4) 0.1044(5) 0.2676(6)
H25_4 H 0.9189 0.3619 0.2708
H26_4 H 0.6381 0.0811 0.2708
C40_4 C 0.8188(5) 0.3141(4) 0.0653(5)
C42_4 C 0.6859(4) 0.1812(5) 0.0653(5)
C44_4 C 0.6961(4) 0.1899(5) 0.1445(5)
C45_4 C 0.8101(5) 0.3039(4) 0.1445(5)
C47_4 C 0.8697(5) 0.3323(4) 0.2125(5)
C48_4 C 0.6677(4) 0.1303(5) 0.2125(5)
H28_4 H 0.8758 0.3185 0.1799
H29_4 H 0.6815 0.1242 0.1799
H34_4 H 0.683391 0.206531 0.14768
H36_4 H 0.793469 0.316609 0.14768
Cl1_8 Cl 0.7226(4) 0.2774(2) 1.0000
C1_4 C 0.8512(5) 0.3469(4) 0.9609(4)
H1_4 H 0.8687 0.3647 0.9278
C2_4 C 0.7736(6) 0.2580(4) 0.7466(5)
H2_4 H 0.7878 0.2696 0.7021
C3_4 C 0.78101(47) 0.27031(36) 0.8287(5)
C4_4 C 0.91375(33) 0.40675(26) 0.6329(5)
N1_4 N 0.75345(34) 0.24655(15) 0.8788(5)
O3_7 O 1.0000(2) 0.5384 0.7381(4)
H3_4 H 0.9838 0.5414 0.7561
O5_4 O 0.90281(16) 0.42054(13) 0.5806(3)
Fe1_8 Fe 0.75240(12) 0.24760(5) 1.0000
N2_8 N 0.8003(5) 0.2938(4) 1.0000
C5_4 C 0.85056(34) 0.37116(28) 0.6881(5)
H4_4 H 0.8441 0.3843 0.6543
C6_4 C 0.8853(5) 0.3772(4) 0.6852(5)
C7_4 C 0.8351(5) 0.3285(4) 0.7909(5)
C8_4 C 0.82523(47) 0.34653(36) 0.7389(5)
H5_4 H 0.8016 0.3421 0.7380
C9_4 C 0.8956(5) 0.3583(4) 0.7324(6)
H6_4 H 0.9189 0.3619 0.7292
C10_4 C 0.8188(5) 0.3141(4) 0.9347(5)
C11_4 C 0.8101(5) 0.3039(4) 0.8555(5)
C12_4 C 0.8697(5) 0.3323(4) 0.7875(5)
H7_4 H 0.8758 0.3185 0.8201
O6_7 O 1.00000(15) 0.5941 0.5976(5)
C14_4 C 0.6531(4) 0.1488(5) 0.9609(4)
H10_4 H 0.6353 0.1313 0.9278
C16_4 C 0.7420(4) 0.2264(6) 0.7466(5)
H12_4 H 0.7304 0.2122 0.7021
C19_4 C 0.72969(36) 0.21899(47) 0.8287(5)
C22_4 C 0.59325(26) 0.08625(33) 0.6329(5)
O13_7 O 1.0000(2) 0.4616(2) 0.2619(4)
H16_4 H 0.9838 0.4424 0.2439
O14_2 O 0.58510(13) 0.05392(18) 0.6472(3)
O18_3 O 0.94608(18) 0.53118(22) 0.6472(3)
O21_2 O 0.57946(13) 0.09719(16) 0.5806(3)
O24_3 O 0.90281(16) 0.48227(21) 0.4194(3)
O26_3 O 0.90281(16) 0.48227(21) 0.5806(3)
N4_8 N 0.7062(4) 0.1997(5) 1.0000
C25_4 C 0.62884(28) 0.14944(34) 0.6881(5)
H18_4 H 0.6157 0.1559 0.6543
C28_4 C 0.6228(4) 0.1147(5) 0.6852(5)
C31_4 C 0.6715(4) 0.1649(5) 0.7909(5)
C34_4 C 0.65347(36) 0.17477(47) 0.7389(5)
H21_4 H 0.6579 0.1984 0.7380
C37_4 C 0.6417(4) 0.1044(5) 0.7324(6)
H24_4 H 0.6381 0.0811 0.7292
C41_4 C 0.6859(4) 0.1812(5) 0.9347(5)
C43_4 C 0.6961(4) 0.1899(5) 0.8555(5)
C46_4 C 0.6677(4) 0.1303(5) 0.7875(5)
H27_4 H 0.6815 0.1242 0.8201
O27_7 O 1.00000(15) 0.40590(15) 0.4024(5)
H30_4 H 0.9805 0.5911 0.6132
H32_4 H 0.9805 0.3894 0.3868
H33_4 H 0.793469 0.316609 0.85232
H35_4 H 0.683391 0.206531 0.85232
Cl1_9 Cl 0.7226(2) 0.4452(4) 0.0000
Fe1_9 Fe 0.75240(5) 0.50480(13) 0.0000
N2_9 N 0.7062(4) 0.5065(6) 0.0000
C13_5 C 0.6531(4) 0.5043(6) 0.0391(4)
C15_5 C 0.8512(5) 0.5043(6) 0.0391(4)
H9_5 H 0.6353 0.5040 0.0722
H11_5 H 0.8687 0.5040 0.0722
C17_5 C 0.7736(6) 0.5156(7) 0.2534(5)
C18_5 C 0.7420(4) 0.5156(7) 0.2534(5)
H13_5 H 0.7304 0.5182 0.2979
H14_5 H 0.7878 0.5182 0.2979
C20_5 C 0.78101(47) 0.51070(59) 0.1713(5)
C21_5 C 0.72969(36) 0.51070(59) 0.1713(5)
C23_5 C 0.59325(26) 0.50700(42) 0.3671(5)
C24_5 C 0.91375(33) 0.50700(42) 0.3671(5)
N3_5 N 0.75345(34) 0.50690(37) 0.1212(5)
O15_5 O 0.58510(13) 0.53118(22) 0.3528(3)
O22_5 O 0.57946(13) 0.48227(21) 0.4194(3)
Zr10_4 Zr 0.533240(11) 0.466760(25) 0.5000
N4_9 N 0.8003(5) 0.5065(6) 0.0000
C26_5 C 0.62884(28) 0.47940(44) 0.3119(5)
C27_5 C 0.85056(34) 0.47940(44) 0.3119(5)
H19_5 H 0.6157 0.4598 0.3457
H20_5 H 0.8441 0.4598 0.3457
C29_5 C 0.6228(4) 0.5081(6) 0.3148(5)
C30_5 C 0.8853(5) 0.5081(6) 0.3148(5)
C32_5 C 0.6715(4) 0.5066(6) 0.2091(5)
C33_5 C 0.8351(5) 0.5066(6) 0.2091(5)
C35_5 C 0.65347(36) 0.47870(59) 0.2611(5)
C36_5 C 0.82523(47) 0.47870(59) 0.2611(5)
H22_5 H 0.6579 0.4595 0.2620
H23_5 H 0.8016 0.4595 0.2620
C38_5 C 0.6417(4) 0.5373(6) 0.2676(6)
C39_5 C 0.8956(5) 0.5373(6) 0.2676(6)
H25_5 H 0.6381 0.5570 0.2708
H26_5 H 0.9189 0.5570 0.2708
C40_5 C 0.6859(4) 0.5047(6) 0.0653(5)
C42_5 C 0.8188(5) 0.5047(6) 0.0653(5)
C44_5 C 0.8101(5) 0.5062(6) 0.1445(5)
C45_5 C 0.6961(4) 0.5062(6) 0.1445(5)
C47_5 C 0.6677(4) 0.5374(6) 0.2125(5)
C48_5 C 0.8697(5) 0.5374(6) 0.2125(5)
H28_5 H 0.6815 0.5573 0.1799
H29_5 H 0.8758 0.5573 0.1799
H34_5 H 0.793469 0.476859 0.14768
H36_5 H 0.683391 0.476859 0.14768
Cl1_10 Cl 0.7226(2) 0.4452(4) 1.0000
C1_5 C 0.6531(4) 0.5043(6) 0.9609(4)
H1_5 H 0.6353 0.5040 0.9278
C2_5 C 0.7420(4) 0.5156(7) 0.7466(5)
H2_5 H 0.7304 0.5182 0.7021
C3_5 C 0.72969(36) 0.51070(59) 0.8287(5)
C4_5 C 0.59325(26) 0.50700(42) 0.6329(5)
N1_5 N 0.75345(15) 0.50690(37) 0.8788(5)
O3_8 O 0.4616 0.4616(2) 0.7381(4)
H3_5 H 0.4586 0.4424 0.7561
O5_5 O 0.57946(13) 0.48227(21) 0.5806(3)
Fe1_10 Fe 0.75240(5) 0.50480(13) 1.0000
N2_10 N 0.7062(4) 0.5065(6) 1.0000
C5_5 C 0.62884(28) 0.47940(44) 0.6881(5)
H4_5 H 0.6157 0.4598 0.6543
C6_5 C 0.6228(4) 0.5081(6) 0.6852(5)
C7_5 C 0.6715(4) 0.5066(6) 0.7909(5)
C8_5 C 0.65347(36) 0.47870(59) 0.7389(5)
H5_5 H 0.6579 0.4595 0.7380
C9_5 C 0.6417(4) 0.5373(6) 0.7324(6)
H6_5 H 0.6381 0.5570 0.7292
C10_5 C 0.6859(4) 0.5047(6) 0.9347(5)
C11_5 C 0.6961(4) 0.5062(6) 0.8555(5)
C12_5 C 0.6677(4) 0.5374(6) 0.7875(5)
H7_5 H 0.6815 0.5573 0.8201
O6_8 O 0.4059 0.40590(15) 0.5976(5)
H8_5 H 0.3894 0.4089 0.6132
C14_5 C 0.8512(5) 0.5043(6) 0.9609(4)
H10_5 H 0.8687 0.5040 0.9278
C16_5 C 0.7736(6) 0.5156(7) 0.7466(5)
H12_5 H 0.7878 0.5182 0.7021
C19_5 C 0.78101(47) 0.51070(59) 0.8287(5)
C22_5 C 0.91375(33) 0.50700(42) 0.6329(5)
O13_8 O 0.5384(2) 0.5384(3) 0.2619(4)
H15_5 H 0.4424 0.4586 0.7561
H16_5 H 0.5576 0.5414 0.2439
H17_5 H 0.5414 0.5576 0.2439
O18_4 O 0.46882(22) 0.41490(28) 0.6472(3)
O24_4 O 0.51773(21) 0.42054(26) 0.4194(3)
O26_4 O 0.51773(21) 0.42054(26) 0.5806(3)
N4_10 N 0.8003(5) 0.5065(6) 1.0000
C25_5 C 0.85056(34) 0.47940(44) 0.6881(5)
H18_5 H 0.8441 0.4598 0.6543
C28_5 C 0.8853(5) 0.5081(6) 0.6852(5)
C31_5 C 0.8351(5) 0.5066(6) 0.7909(5)
C34_5 C 0.82523(47) 0.47870(59) 0.7389(5)
H21_5 H 0.8016 0.4595 0.7380
C37_5 C 0.8956(5) 0.5373(6) 0.7324(6)
H24_5 H 0.9189 0.5570 0.7292
C41_5 C 0.8188(5) 0.5047(6) 0.9347(5)
C43_5 C 0.8101(5) 0.5062(6) 0.8555(5)
C46_5 C 0.8697(5) 0.5374(6) 0.7875(5)
H27_5 H 0.8758 0.5573 0.8201
O27_8 O 0.59410(15) 0.59410(21) 0.4024(5)
H30_5 H 0.4089 0.3894 0.6132
H31_5 H 0.5911 0.6106 0.3868
H32_5 H 0.6106 0.5911 0.3868
H33_5 H 0.683391 0.476859 0.85232
H35_5 H 0.793469 0.476859 0.85232
Cl1_11 Cl 0.5548(4) 0.2774(4) 0.0000
Fe1_11 Fe 0.49520(13) 0.24760(12) 0.0000
N2_11 N 0.4935(6) 0.1997(5) 0.0000
C13_6 C 0.4957(6) 0.1488(5) 0.0391(4)
C15_6 C 0.4957(6) 0.3469(4) 0.0391(4)
H9_6 H 0.4960 0.1313 0.0722
H11_6 H 0.4960 0.3647 0.0722
C17_6 C 0.4844(7) 0.2580(4) 0.2534(5)
C18_6 C 0.4844(7) 0.2264(6) 0.2534(5)
H13_6 H 0.4818 0.2122 0.2979
H14_6 H 0.4818 0.2696 0.2979
C20_6 C 0.48930(59) 0.27031(36) 0.1713(5)
C21_6 C 0.48930(59) 0.21899(47) 0.1713(5)
C23_6 C 0.49300(42) 0.08625(33) 0.3671(5)
C24_6 C 0.49300(42) 0.40675(26) 0.3671(5)
N3_6 N 0.49310(37) 0.24655(15) 0.1212(5)
O15_6 O 0.46882(22) 0.05392(18) 0.3528(3)
O22_6 O 0.51773(21) 0.09719(16) 0.4194(3)
N4_11 N 0.4935(6) 0.2938(4) 0.0000
C26_6 C 0.52060(44) 0.14944(34) 0.3119(5)
C27_6 C 0.52060(44) 0.37116(28) 0.3119(5)
H19_6 H 0.5402 0.1559 0.3457
H20_6 H 0.5402 0.3843 0.3457
C29_6 C 0.4919(6) 0.1147(5) 0.3148(5)
C30_6 C 0.4919(6) 0.3772(4) 0.3148(5)
C32_6 C 0.4934(6) 0.1649(5) 0.2091(5)
C33_6 C 0.4934(6) 0.3285(4) 0.2091(5)
C35_6 C 0.52130(59) 0.17477(47) 0.2611(5)
C36_6 C 0.52130(59) 0.34653(36) 0.2611(5)
H22_6 H 0.5405 0.1984 0.2620
H23_6 H 0.5405 0.3421 0.2620
C38_6 C 0.4627(6) 0.1044(5) 0.2676(6)
C39_6 C 0.4627(6) 0.3583(4) 0.2676(6)
H25_6 H 0.4430 0.0811 0.2708
H26_6 H 0.4430 0.3619 0.2708
C40_6 C 0.4953(6) 0.1812(5) 0.0653(5)
C42_6 C 0.4953(6) 0.3141(4) 0.0653(5)
C44_6 C 0.4938(6) 0.3039(4) 0.1445(5)
C45_6 C 0.4938(6) 0.1899(5) 0.1445(5)
C47_6 C 0.4626(6) 0.1303(5) 0.2125(5)
C48_6 C 0.4626(6) 0.3323(4) 0.2125(5)
H28_6 H 0.4427 0.1242 0.1799
H29_6 H 0.4427 0.3185 0.1799
H34_6 H 0.523141 0.316609 0.14768
H36_6 H 0.523141 0.206531 0.14768
Cl1_12 Cl 0.5548(4) 0.2774(4) 1.0000
C1_6 C 0.4957(6) 0.1488(5) 0.9609(4)
H1_6 H 0.4960 0.1313 0.9278
C2_6 C 0.4844(7) 0.2264(6) 0.7466(5)
H2_6 H 0.4818 0.2122 0.7021
C3_6 C 0.48930(59) 0.21899(47) 0.8287(5)
C4_6 C 0.49300(42) 0.08625(33) 0.6329(5)
N1_6 N 0.49310(37) 0.24655(34) 0.8788(5)
O3_9 O 0.5384(2) 0.0000(2) 0.7381(4)
H3_6 H 0.5576 0.0162 0.7561
O5_6 O 0.51773(21) 0.09719(16) 0.5806(3)
Fe1_12 Fe 0.49520(13) 0.24760(12) 1.0000
N2_12 N 0.4935(6) 0.1997(5) 1.0000
C5_6 C 0.52060(44) 0.14944(34) 0.6881(5)
H4_6 H 0.5402 0.1559 0.6543
C6_6 C 0.4919(6) 0.1147(5) 0.6852(5)
C7_6 C 0.4934(6) 0.1649(5) 0.7909(5)
C8_6 C 0.52130(59) 0.17477(47) 0.7389(5)
H5_6 H 0.5405 0.1984 0.7380
C9_6 C 0.4627(6) 0.1044(5) 0.7324(6)
H6_6 H 0.4430 0.0811 0.7292
C10_6 C 0.4953(6) 0.1812(5) 0.9347(5)
C11_6 C 0.4938(6) 0.1899(5) 0.8555(5)
C12_6 C 0.4626(6) 0.1303(5) 0.7875(5)
H7_6 H 0.4427 0.1242 0.8201
O6_9 O 0.59410(15) 0.00000(15) 0.5976(5)
C14_6 C 0.4957(6) 0.3469(4) 0.9609(4)
H10_6 H 0.4960 0.3647 0.9278
C16_6 C 0.4844(7) 0.2580(4) 0.7466(5)
H12_6 H 0.4818 0.2696 0.7021
C19_6 C 0.48930(59) 0.27031(36) 0.8287(5)
C22_6 C 0.49300(42) 0.40675(26) 0.6329(5)
O13_9 O 0.4616(3) 0.0000(2) 0.2619(4)
H16_6 H 0.4586 0.0162 0.2439
N4_12 N 0.4935(6) 0.2938(4) 1.0000
C25_6 C 0.52060(44) 0.37116(28) 0.6881(5)
H18_6 H 0.5402 0.3843 0.6543
C28_6 C 0.4919(6) 0.3772(4) 0.6852(5)
C31_6 C 0.4934(6) 0.3285(4) 0.7909(5)
C34_6 C 0.52130(59) 0.34653(36) 0.7389(5)
H21_6 H 0.5405 0.3421 0.7380
C37_6 C 0.4627(6) 0.3583(4) 0.7324(6)
H24_6 H 0.4430 0.3619 0.7292
C41_6 C 0.4953(6) 0.3141(4) 0.9347(5)
C43_6 C 0.4938(6) 0.3039(4) 0.8555(5)
C46_6 C 0.4626(6) 0.3323(4) 0.7875(5)
H27_6 H 0.4427 0.3185 0.8201
O27_9 O 0.40590(21) 0.00000(15) 0.4024(5)
H30_6 H 0.6106 0.0195 0.6132
H32_6 H 0.4089 0.0195 0.3868
H33_6 H 0.523141 0.206531 0.85232
H35_6 H 0.523141 0.316609 0.85232
O3_10 O 0.5384(2) 1.0000(2) 0.7381(4)
O6_10 O 0.59410(15) 1.00000(15) 0.5976(5)
H8_6 H 0.5911 0.9805 0.6132
O13_10 O 0.4616(3) 1.0000(2) 0.2619(4)
H15_6 H 0.5414 0.9838 0.7561
H17_6 H 0.4424 0.9838 0.2439
O27_10 O 0.40590(21) 1.00000(15) 0.4024(5)
H31_6 H 0.3894 0.9805 0.3868
loop_
_geom_bond_atom_site_label_1
_geom_bond_atom_site_label_2
_geom_bond_site_symmetry_1
_geom_bond_site_symmetry_2
Cl1 Fe1 1_555 1_555
N2 Fe1 1_555 1_555
C15 H11 1_555 1_555
H9 C13 1_555 1_555
C17 C18 1_555 1_555
C18 H13 1_555 1_555
H14 C17 1_555 1_555
C20 C17 1_555 1_555
C21 C18 1_555 1_555
C23 O15 1_555 1_555
C24 O16 1_555 1_555
N3 Fe1 1_555 1_555
O15 Zr7 1_555 1_555
O16 Zr8_2 1_555 1_555
O22 C23 1_555 1_555
O23 C24 1_555 1_555
Zr10 O22 1_555 1_555
Zr11 O23 1_555 1_555
N4 Fe1 1_555 1_555
C26 H19 1_555 1_555
C27 H20 1_555 1_555
C29 C23 1_555 1_555
C30 C24 1_555 1_555
C32 C35 1_555 1_555
C33 C36 1_555 1_555
C35 C26 1_555 1_555
C36 C27 1_555 1_555
H22 C35 1_555 1_555
H23 C36 1_555 1_555
C38 C29 1_555 1_555
C39 C30 1_555 1_555
H25 C38 1_555 1_555
H26 C39 1_555 1_555
C40 N2 1_555 1_555
C42 C15 1_555 1_555
C44 C20 1_555 1_555
C45 C21 1_555 1_555
C47 C32 1_555 1_555
C48 C33 1_555 1_555
H28 C47 1_555 1_555
H29 C48 1_555 1_555
C13 C40 1_555 1_555
C20 N3 1_555 1_555
C21 N3 1_555 1_555
N4 C42 1_555 1_555
C26 C29 1_555 1_555
C27 C30 1_555 1_555
C32 C45 1_555 1_555
C33 C44 1_555 1_555
C38 C47 1_555 1_555
C39 C48 1_555 1_555
C40 C45 1_555 1_555
C42 C44 1_555 1_555
C44 H34 1_555 1_555
C45 H36 1_555 1_555
Cl1_2 Fe1_2 1_555 1_555
O1 Zr1 1_555 1_555
C1 H1 1_555 1_555
C2 H2 1_555 1_555
C3 C2 1_555 1_555
C4 O4 1_555 1_555
N1 C3 1_555 1_555
O2 Zr10 1_555 1_555
O3 H3 1_555 1_555
O4 Zr5 1_555 1_555
O5 C4 1_555 1_555
Zr1 O3 1_555 1_555
Zr10 O1 1_555 1_555
Fe1_2 N1 1_555 1_555
N2_2 Fe1_2 1_555 1_555
C5 H4 1_555 1_555
C6 C4 1_555 1_555
C7 C8 1_555 1_555
C8 C5 1_555 1_555
H5 C8 1_555 1_555
C9 C6 1_555 1_555
H6 C9 1_555 1_555
C10 C1 1_555 1_555
C11 C3 1_555 1_555
C12 C7 1_555 1_555
H7 C12 1_555 1_555
O6 Zr1 1_555 1_555
O7 Zr10 1_555 1_555
H10 C14 1_555 1_555
C16 C2 1_555 1_555
H12 C16 1_555 1_555
C19 N1 1_555 1_555
C22 O14 1_555 1_555
O10 Zr1 1_555 1_555
O13 H16 1_555 1_555
O14 Zr6_2 1_555 1_555
O18 Zr1 1_555 1_555
O21 C22 1_555 1_555
O24 Zr10 1_555 1_555
O26 Zr10 1_555 1_555
Zr7 O2 1_555 1_555
Zr4 O1 1_555 1_555
Zr5 O7 1_555 1_555
Zr11 O21 1_555 1_555
N4_2 Fe1_2 1_555 1_555
C25 H18 1_555 1_555
C28 C22 1_555 1_555
C31 C34 1_555 1_555
C34 C25 1_555 1_555
H21 C34 1_555 1_555
C37 C28 1_555 1_555
H24 C37 1_555 1_555
C41 C14 1_555 1_555
C43 C19 1_555 1_555
C46 C31 1_555 1_555
H27 C46 1_555 1_555
O27 Zr7 1_555 1_555
H30 O6 1_555 1_555
H32 O27 1_555 1_555
O2 Zr4 1_555 1_555
O5 Zr10 1_555 1_555
Zr10 O10 1_555 1_555
N2_2 C10 1_555 1_555
C5 C6 1_555 1_555
C7 C11 1_555 1_555
C9 C12 1_555 1_555
C10 C11 1_555 1_555
O7 Zr7 1_555 1_555
C16 C19 1_555 1_555
O10 Zr5 1_555 1_555
O13 Zr7 1_555 1_555
N4_2 C41 1_555 1_555
C25 C28 1_555 1_555
C31 C43 1_555 1_555
C37 C46 1_555 1_555
C41 C43 1_555 1_555
C11 H33 1_555 1_555
C43 H35 1_555 1_555
Zr1_2 O3_2 1_555 1_555
O6_2 Zr1_2 1_555 1_555
H8 O6_2 1_555 1_555
O8 Zr1_2 1_555 1_555
O9 Zr7_2 1_555 1_555
O11 Zr1_2 1_555 1_555
O12 Zr7_2 1_555 1_555
H15 O3_2 1_555 1_555
H17 O13_2 1_555 1_555
O17 Zr1_2 1_555 1_555
O19 Zr7_2 1_555 1_555
O27_2 Zr7_2 1_555 1_555
H31 O27_2 1_555 1_555
O8 Zr4_2 1_555 1_555
O9 Zr5_2 1_555 1_555
O11 Zr5_2 1_555 1_555
O12 Zr4_2 1_555 1_555
O13_2 Zr7_2 1_555 1_555
Cl1_3 Fe1_3 1_555 1_555
N2_3 Fe1_3 1_555 1_555
C15_2 H11_2 1_555 1_555
H9_2 C13_2 1_555 1_555
C17_2 C18_2 1_555 1_555
C18_2 H13_2 1_555 1_555
H14_2 C17_2 1_555 1_555
C20_2 C17_2 1_555 1_555
C21_2 C18_2 1_555 1_555
C23_2 O15_2 1_555 1_555
C24_2 O16_2 1_555 1_555
N3_2 Fe1_3 1_555 1_555
O15_2 Zr7_3 1_555 1_555
O16_2 Zr4 1_555 1_555
O22_2 C23_2 1_555 1_555
O24 C24_2 1_555 1_555
Zr10_2 O22_2 1_555 1_555
N4_3 Fe1_3 1_555 1_555
C26_2 H19_2 1_555 1_555
C27_2 H20_2 1_555 1_555
C29_2 C23_2 1_555 1_555
C30_2 C24_2 1_555 1_555
C32_2 C35_2 1_555 1_555
C33_2 C36_2 1_555 1_555
C35_2 C26_2 1_555 1_555
C36_2 C27_2 1_555 1_555
H22_2 C35_2 1_555 1_555
H23_2 C36_2 1_555 1_555
C38_2 C29_2 1_555 1_555
C39_2 C30_2 1_555 1_555
H25_2 C38_2 1_555 1_555
H26_2 C39_2 1_555 1_555
C40_2 N2_3 1_555 1_555
C42_2 C15_2 1_555 1_555
C44_2 C20_2 1_555 1_555
C45_2 C21_2 1_555 1_555
C47_2 C32_2 1_555 1_555
C48_2 C33_2 1_555 1_555
H28_2 C47_2 1_555 1_555
H29_2 C48_2 1_555 1_555
C13_2 C40_2 1_555 1_555
C20_2 N3_2 1_555 1_555
C21_2 N3_2 1_555 1_555
N4_3 C42_2 1_555 1_555
C26_2 C29_2 1_555 1_555
C27_2 C30_2 1_555 1_555
C32_2 C45_2 1_555 1_555
C33_2 C44_2 1_555 1_555
C38_2 C47_2 1_555 1_555
C39_2 C48_2 1_555 1_555
C40_2 C45_2 1_555 1_555
C42_2 C44_2 1_555 1_555
C44_2 H34_2 1_555 1_555
C45_2 H36_2 1_555 1_555
Cl1_4 Fe1_4 1_555 1_555
O1_2 Zr1_3 1_555 1_555
C1_2 H1_2 1_555 1_555
C2_2 H2_2 1_555 1_555
C3_2 C2_2 1_555 1_555
C4_2 O4_2 1_555 1_555
N1_2 C3_2 1_555 1_555
O2_2 Zr10_2 1_555 1_555
O3_3 H3_2 1_555 1_555
O4_2 Zr5_3 1_555 1_555
O5_2 C4_2 1_555 1_555
Zr1_3 O3_3 1_555 1_555
Zr10_2 O1_2 1_555 1_555
Fe1_4 N1_2 1_555 1_555
N2_4 Fe1_4 1_555 1_555
C5_2 H4_2 1_555 1_555
C6_2 C4_2 1_555 1_555
C7_2 C8_2 1_555 1_555
C8_2 C5_2 1_555 1_555
H5_2 C8_2 1_555 1_555
C9_2 C6_2 1_555 1_555
H6_2 C9_2 1_555 1_555
C10_2 C1_2 1_555 1_555
C11_2 C3_2 1_555 1_555
C12_2 C7_2 1_555 1_555
H7_2 C12_2 1_555 1_555
O6_3 Zr1_3 1_555 1_555
H8_2 O6_3 1_555 1_555
O7_2 Zr10_2 1_555 1_555
O8_2 Zr1_3 1_555 1_555
O9_2 Zr7_3 1_555 1_555
H10_2 C14_2 1_555 1_555
C16_2 C2_2 1_555 1_555
H12_2 C16_2 1_555 1_555
C19_2 N1_2 1_555 1_555
C22_2 O18 1_555 1_555
O10_2 Zr1_3 1_555 1_555
O11_2 Zr1_3 1_555 1_555
O12_2 Zr7_3 1_555 1_555
O13_3 H16_2 1_555 1_555
H15_2 O3_3 1_555 1_555
H17_2 O13_3 1_555 1_555
O17_2 Zr1_3 1_555 1_555
O18_2 Zr1_3 1_555 1_555
O19_2 Zr7_3 1_555 1_555
O26 C22_2 1_555 1_555
O24_2 Zr10_2 1_555 1_555
O26_2 Zr10_2 1_555 1_555
Zr7_3 O2_2 1_555 1_555
Zr4_3 O1_2 1_555 1_555
Zr5_3 O7_2 1_555 1_555
N4_4 Fe1_4 1_555 1_555
C25_2 H18_2 1_555 1_555
C28_2 C22_2 1_555 1_555
C31_2 C34_2 1_555 1_555
C34_2 C25_2 1_555 1_555
H21_2 C34_2 1_555 1_555
C37_2 C28_2 1_555 1_555
H24_2 C37_2 1_555 1_555
C41_2 C14_2 1_555 1_555
C43_2 C19_2 1_555 1_555
C46_2 C31_2 1_555 1_555
H27_2 C46_2 1_555 1_555
O27_3 Zr7_3 1_555 1_555
H30_2 O6_3 1_555 1_555
H31_2 O27_3 1_555 1_555
H32_2 O27_3 1_555 1_555
O2_2 Zr4_3 1_555 1_555
O5_2 Zr10_2 1_555 1_555
Zr10_2 O10_2 1_555 1_555
N2_4 C10_2 1_555 1_555
C5_2 C6_2 1_555 1_555
C7_2 C11_2 1_555 1_555
C9_2 C12_2 1_555 1_555
C10_2 C11_2 1_555 1_555
O7_2 Zr7_3 1_555 1_555
O8_2 Zr4_3 1_555 1_555
O9_2 Zr5_3 1_555 1_555
C16_2 C19_2 1_555 1_555
O10_2 Zr5_3 1_555 1_555
O11_2 Zr5_3 1_555 1_555
O12_2 Zr4_3 1_555 1_555
O13_3 Zr7_3 1_555 1_555
N4_4 C41_2 1_555 1_555
C25_2 C28_2 1_555 1_555
C31_2 C43_2 1_555 1_555
C37_2 C46_2 1_555 1_555
C41_2 C43_2 1_555 1_555
C11_2 H33_2 1_555 1_555
C43_2 H35_2 1_555 1_555
Zr6 O3_4 1_555 1_555
O6_4 Zr6 1_555 1_555
H8_3 O6_4 1_555 1_555
O8_3 Zr6 1_555 1_555
O9_3 Zr7_4 1_555 1_555
O11_3 Zr6 1_555 1_555
O12_3 Zr7_4 1_555 1_555
H15_3 O3_4 1_555 1_555
H17_3 O13_4 1_555 1_555
O17_3 Zr6 1_555 1_555
O19_3 Zr7_4 1_555 1_555
O27_4 Zr7_4 1_555 1_555
H31_3 O27_4 1_555 1_555
O8_3 Zr8 1_555 1_555
O9_3 Zr5_4 1_555 1_555
O11_3 Zr5_4 1_555 1_555
O12_3 Zr8 1_555 1_555
O13_4 Zr7_4 1_555 1_555
Cl1_5 Fe1_5 1_555 1_555
N2_5 Fe1_5 1_555 1_555
C15_3 H11_3 1_555 1_555
H9_3 C13_3 1_555 1_555
C17_3 C18_3 1_555 1_555
C18_3 H13_3 1_555 1_555
H14_3 C17_3 1_555 1_555
C20_3 C17_3 1_555 1_555
C21_3 C18_3 1_555 1_555
C23_3 O15_3 1_555 1_555
C24_3 O16_3 1_555 1_555
N3_3 Fe1_5 1_555 1_555
O15_3 Zr7_5 1_555 1_555
O16_3 Zr4_3 1_555 1_555
O22_3 C23_3 1_555 1_555
O24_2 C24_3 1_555 1_555
Zr11 O22_3 1_555 1_555
N4_5 Fe1_5 1_555 1_555
C26_3 H19_3 1_555 1_555
C27_3 H20_3 1_555 1_555
C29_3 C23_3 1_555 1_555
C30_3 C24_3 1_555 1_555
C32_3 C35_3 1_555 1_555
C33_3 C36_3 1_555 1_555
C35_3 C26_3 1_555 1_555
C36_3 C27_3 1_555 1_555
H22_3 C35_3 1_555 1_555
H23_3 C36_3 1_555 1_555
C38_3 C29_3 1_555 1_555
C39_3 C30_3 1_555 1_555
H25_3 C38_3 1_555 1_555
H26_3 C39_3 1_555 1_555
C40_3 N2_5 1_555 1_555
C42_3 C15_3 1_555 1_555
C44_3 C20_3 1_555 1_555
C45_3 C21_3 1_555 1_555
C47_3 C32_3 1_555 1_555
C48_3 C33_3 1_555 1_555
H28_3 C47_3 1_555 1_555
H29_3 C48_3 1_555 1_555
C13_3 C40_3 1_555 1_555
C20_3 N3_3 1_555 1_555
C21_3 N3_3 1_555 1_555
N4_5 C42_3 1_555 1_555
C26_3 C29_3 1_555 1_555
C27_3 C30_3 1_555 1_555
C32_3 C45_3 1_555 1_555
C33_3 C44_3 1_555 1_555
C38_3 C47_3 1_555 1_555
C39_3 C48_3 1_555 1_555
C40_3 C45_3 1_555 1_555
C42_3 C44_3 1_555 1_555
C44_3 H34_3 1_555 1_555
C45_3 H36_3 1_555 1_555
Cl1_6 Fe1_6 1_555 1_555
O1_3 Zr6_2 1_555 1_555
C1_3 H1_3 1_555 1_555
C2_3 H2_3 1_555 1_555
C3_3 C2_3 1_555 1_555
C4_3 O4_3 1_555 1_555
N1_3 C3_3 1_555 1_555
O2_3 Zr11 1_555 1_555
O3_5 H3_3 1_555 1_555
O4_3 Zr5_5 1_555 1_555
O5_3 C4_3 1_555 1_555
Zr6_2 O3_5 1_555 1_555
Zr11 O1_3 1_555 1_555
Fe1_6 N1_3 1_555 1_555
N2_6 Fe1_6 1_555 1_555
C5_3 H4_3 1_555 1_555
C6_3 C4_3 1_555 1_555
C7_3 C8_3 1_555 1_555
C8_3 C5_3 1_555 1_555
H5_3 C8_3 1_555 1_555
C9_3 C6_3 1_555 1_555
H6_3 C9_3 1_555 1_555
C10_3 C1_3 1_555 1_555
C11_3 C3_3 1_555 1_555
C12_3 C7_3 1_555 1_555
H7_3 C12_3 1_555 1_555
O6_5 Zr6_2 1_555 1_555
O7_3 Zr11 1_555 1_555
H10_3 C14_3 1_555 1_555
C16_3 C2_3 1_555 1_555
H12_3 C16_3 1_555 1_555
C19_3 N1_3 1_555 1_555
C22_3 O18_2 1_555 1_555
O10_3 Zr6_2 1_555 1_555
O13_5 H16_3 1_555 1_555
O26_2 C22_3 1_555 1_555
Zr7_5 O2_3 1_555 1_555
Zr8_2 O1_3 1_555 1_555
Zr5_5 O7_3 1_555 1_555
N4_6 Fe1_6 1_555 1_555
C25_3 H18_3 1_555 1_555
C28_3 C22_3 1_555 1_555
C31_3 C34_3 1_555 1_555
C34_3 C25_3 1_555 1_555
H21_3 C34_3 1_555 1_555
C37_3 C28_3 1_555 1_555
H24_3 C37_3 1_555 1_555
C41_3 C14_3 1_555 1_555
C43_3 C19_3 1_555 1_555
C46_3 C31_3 1_555 1_555
H27_3 C46_3 1_555 1_555
O27_5 Zr7_5 1_555 1_555
H30_3 O6_5 1_555 1_555
H32_3 O27_5 1_555 1_555
O2_3 Zr8_2 1_555 1_555
O5_3 Zr11 1_555 1_555
Zr11 O10_3 1_555 1_555
N2_6 C10_3 1_555 1_555
C5_3 C6_3 1_555 1_555
C7_3 C11_3 1_555 1_555
C9_3 C12_3 1_555 1_555
C10_3 C11_3 1_555 1_555
O7_3 Zr7_5 1_555 1_555
C16_3 C19_3 1_555 1_555
O10_3 Zr5_5 1_555 1_555
O13_5 Zr7_5 1_555 1_555
N4_6 C41_3 1_555 1_555
C25_3 C28_3 1_555 1_555
C31_3 C43_3 1_555 1_555
C37_3 C46_3 1_555 1_555
C41_3 C43_3 1_555 1_555
C11_3 H33_3 1_555 1_555
C43_3 H35_3 1_555 1_555
Zr5 O3_6 1_555 1_555
O6_6 Zr5 1_555 1_555
H8_4 O6_6 1_555 1_555
H15_4 O3_6 1_555 1_555
H17_4 O13_6 1_555 1_555
O27_6 Zr4 1_555 1_555
H31_4 O27_6 1_555 1_555
O13_6 Zr4 1_555 1_555
Cl1_7 Fe1_7 1_555 1_555
N2_7 Fe1_7 1_555 1_555
C15_4 H11_4 1_555 1_555
H9_4 C13_4 1_555 1_555
C17_4 C18_4 1_555 1_555
C18_4 H13_4 1_555 1_555
H14_4 C17_4 1_555 1_555
C20_4 C17_4 1_555 1_555
C21_4 C18_4 1_555 1_555
C23_4 O15_4 1_555 1_555
C24_4 O19_3 1_555 1_555
N3_4 Fe1_7 1_555 1_555
O15_4 Zr4_2 1_555 1_555
O22_4 C23_4 1_555 1_555
O23_2 C24_4 1_555 1_555
Zr10_3 O22_4 1_555 1_555
Zr11_2 O23_2 1_555 1_555
N4_7 Fe1_7 1_555 1_555
C26_4 H19_4 1_555 1_555
C27_4 H20_4 1_555 1_555
C29_4 C23_4 1_555 1_555
C30_4 C24_4 1_555 1_555
C32_4 C35_4 1_555 1_555
C33_4 C36_4 1_555 1_555
C35_4 C26_4 1_555 1_555
C36_4 C27_4 1_555 1_555
H22_4 C35_4 1_555 1_555
H23_4 C36_4 1_555 1_555
C38_4 C29_4 1_555 1_555
C39_4 C30_4 1_555 1_555
H25_4 C38_4 1_555 1_555
H26_4 C39_4 1_555 1_555
C40_4 N2_7 1_555 1_555
C42_4 C15_4 1_555 1_555
C44_4 C20_4 1_555 1_555
C45_4 C21_4 1_555 1_555
C47_4 C32_4 1_555 1_555
C48_4 C33_4 1_555 1_555
H28_4 C47_4 1_555 1_555
H29_4 C48_4 1_555 1_555
C13_4 C40_4 1_555 1_555
C20_4 N3_4 1_555 1_555
C21_4 N3_4 1_555 1_555
N4_7 C42_4 1_555 1_555
C26_4 C29_4 1_555 1_555
C27_4 C30_4 1_555 1_555
C32_4 C45_4 1_555 1_555
C33_4 C44_4 1_555 1_555
C38_4 C47_4 1_555 1_555
C39_4 C48_4 1_555 1_555
C40_4 C45_4 1_555 1_555
C42_4 C44_4 1_555 1_555
C44_4 H34_4 1_555 1_555
C45_4 H36_4 1_555 1_555
Cl1_8 Fe1_8 1_555 1_555
C1_4 H1_4 1_555 1_555
C2_4 H2_4 1_555 1_555
C3_4 C2_4 1_555 1_555
C4_4 O17 1_555 1_555
N1_4 C3_4 1_555 1_555
O12 Zr10_3 1_555 1_555
O3_7 H3_4 1_555 1_555
O5_4 C4_4 1_555 1_555
Zr5_2 O3_7 1_555 1_555
Zr10_3 O9 1_555 1_555
Fe1_8 N1_4 1_555 1_555
N2_8 Fe1_8 1_555 1_555
C5_4 H4_4 1_555 1_555
C6_4 C4_4 1_555 1_555
C7_4 C8_4 1_555 1_555
C8_4 C5_4 1_555 1_555
H5_4 C8_4 1_555 1_555
C9_4 C6_4 1_555 1_555
H6_4 C9_4 1_555 1_555
C10_4 C1_4 1_555 1_555
C11_4 C3_4 1_555 1_555
C12_4 C7_4 1_555 1_555
H7_4 C12_4 1_555 1_555
O6_7 Zr5_2 1_555 1_555
O8 Zr10_3 1_555 1_555
H10_4 C14_4 1_555 1_555
C16_4 C2_4 1_555 1_555
H12_4 C16_4 1_555 1_555
C19_4 N1_4 1_555 1_555
C22_4 O14_2 1_555 1_555
O13_7 H16_4 1_555 1_555
O14_2 Zr5_4 1_555 1_555
O18_3 Zr5_2 1_555 1_555
O21_2 C22_4 1_555 1_555
O24_3 Zr10_3 1_555 1_555
O26_3 Zr10_3 1_555 1_555
Zr11_2 O21_2 1_555 1_555
N4_8 Fe1_8 1_555 1_555
C25_4 H18_4 1_555 1_555
C28_4 C22_4 1_555 1_555
C31_4 C34_4 1_555 1_555
C34_4 C25_4 1_555 1_555
H21_4 C34_4 1_555 1_555
C37_4 C28_4 1_555 1_555
H24_4 C37_4 1_555 1_555
C41_4 C14_4 1_555 1_555
C43_4 C19_4 1_555 1_555
C46_4 C31_4 1_555 1_555
H27_4 C46_4 1_555 1_555
O27_7 Zr4_2 1_555 1_555
H30_4 O6_7 1_555 1_555
H32_4 O27_7 1_555 1_555
O5_4 Zr10_3 1_555 1_555
Zr10_3 O11 1_555 1_555
N2_8 C10_4 1_555 1_555
C5_4 C6_4 1_555 1_555
C7_4 C11_4 1_555 1_555
C9_4 C12_4 1_555 1_555
C10_4 C11_4 1_555 1_555
C16_4 C19_4 1_555 1_555
O13_7 Zr4_2 1_555 1_555
N4_8 C41_4 1_555 1_555
C25_4 C28_4 1_555 1_555
C31_4 C43_4 1_555 1_555
C37_4 C46_4 1_555 1_555
C41_4 C43_4 1_555 1_555
C11_4 H33_4 1_555 1_555
C43_4 H35_4 1_555 1_555
Cl1_9 Fe1_9 1_555 1_555
N2_9 Fe1_9 1_555 1_555
C15_5 H11_5 1_555 1_555
H9_5 C13_5 1_555 1_555
C17_5 C18_5 1_555 1_555
C18_5 H13_5 1_555 1_555
H14_5 C17_5 1_555 1_555
C20_5 C17_5 1_555 1_555
C21_5 C18_5 1_555 1_555
C23_5 O15_5 1_555 1_555
C24_5 O19 1_555 1_555
N3_5 Fe1_9 1_555 1_555
O15_5 Zr4_3 1_555 1_555
O22_5 C23_5 1_555 1_555
O24_3 C24_5 1_555 1_555
Zr10_4 O22_5 1_555 1_555
N4_9 Fe1_9 1_555 1_555
C26_5 H19_5 1_555 1_555
C27_5 H20_5 1_555 1_555
C29_5 C23_5 1_555 1_555
C30_5 C24_5 1_555 1_555
C32_5 C35_5 1_555 1_555
C33_5 C36_5 1_555 1_555
C35_5 C26_5 1_555 1_555
C36_5 C27_5 1_555 1_555
H22_5 C35_5 1_555 1_555
H23_5 C36_5 1_555 1_555
C38_5 C29_5 1_555 1_555
C39_5 C30_5 1_555 1_555
H25_5 C38_5 1_555 1_555
H26_5 C39_5 1_555 1_555
C40_5 N2_9 1_555 1_555
C42_5 C15_5 1_555 1_555
C44_5 C20_5 1_555 1_555
C45_5 C21_5 1_555 1_555
C47_5 C32_5 1_555 1_555
C48_5 C33_5 1_555 1_555
H28_5 C47_5 1_555 1_555
H29_5 C48_5 1_555 1_555
C13_5 C40_5 1_555 1_555
C20_5 N3_5 1_555 1_555
C21_5 N3_5 1_555 1_555
N4_9 C42_5 1_555 1_555
C26_5 C29_5 1_555 1_555
C27_5 C30_5 1_555 1_555
C32_5 C45_5 1_555 1_555
C33_5 C44_5 1_555 1_555
C38_5 C47_5 1_555 1_555
C39_5 C48_5 1_555 1_555
C40_5 C45_5 1_555 1_555
C42_5 C44_5 1_555 1_555
C44_5 H34_5 1_555 1_555
C45_5 H36_5 1_555 1_555
Cl1_10 Fe1_10 1_555 1_555
C1_5 H1_5 1_555 1_555
C2_5 H2_5 1_555 1_555
C3_5 C2_5 1_555 1_555
C4_5 O17_2 1_555 1_555
N1_5 C3_5 1_555 1_555
O12_2 Zr10_4 1_555 1_555
O3_8 H3_5 1_555 1_555
O5_5 C4_5 1_555 1_555
Zr5_3 O3_8 1_555 1_555
Zr10_4 O9_2 1_555 1_555
Fe1_10 N1_5 1_555 1_555
N2_10 Fe1_10 1_555 1_555
C5_5 H4_5 1_555 1_555
C6_5 C4_5 1_555 1_555
C7_5 C8_5 1_555 1_555
C8_5 C5_5 1_555 1_555
H5_5 C8_5 1_555 1_555
C9_5 C6_5 1_555 1_555
H6_5 C9_5 1_555 1_555
C10_5 C1_5 1_555 1_555
C11_5 C3_5 1_555 1_555
C12_5 C7_5 1_555 1_555
H7_5 C12_5 1_555 1_555
O6_8 Zr5_3 1_555 1_555
H8_5 O6_8 1_555 1_555
O8_2 Zr10_4 1_555 1_555
H10_5 C14_5 1_555 1_555
C16_5 C2_5 1_555 1_555
H12_5 C16_5 1_555 1_555
C19_5 N1_5 1_555 1_555
C22_5 O18_3 1_555 1_555
O13_8 H16_5 1_555 1_555
H15_5 O3_8 1_555 1_555
H17_5 O13_8 1_555 1_555
O18_4 Zr5_3 1_555 1_555
O26_3 C22_5 1_555 1_555
O24_4 Zr10_4 1_555 1_555
O26_4 Zr10_4 1_555 1_555
N4_10 Fe1_10 1_555 1_555
C25_5 H18_5 1_555 1_555
C28_5 C22_5 1_555 1_555
C31_5 C34_5 1_555 1_555
C34_5 C25_5 1_555 1_555
H21_5 C34_5 1_555 1_555
C37_5 C28_5 1_555 1_555
H24_5 C37_5 1_555 1_555
C41_5 C14_5 1_555 1_555
C43_5 C19_5 1_555 1_555
C46_5 C31_5 1_555 1_555
H27_5 C46_5 1_555 1_555
O27_8 Zr4_3 1_555 1_555
H30_5 O6_8 1_555 1_555
H31_5 O27_8 1_555 1_555
H32_5 O27_8 1_555 1_555
O5_5 Zr10_4 1_555 1_555
Zr10_4 O11_2 1_555 1_555
N2_10 C10_5 1_555 1_555
C5_5 C6_5 1_555 1_555
C7_5 C11_5 1_555 1_555
C9_5 C12_5 1_555 1_555
C10_5 C11_5 1_555 1_555
C16_5 C19_5 1_555 1_555
O13_8 Zr4_3 1_555 1_555
N4_10 C41_5 1_555 1_555
C25_5 C28_5 1_555 1_555
C31_5 C43_5 1_555 1_555
C37_5 C46_5 1_555 1_555
C41_5 C43_5 1_555 1_555
C11_5 H33_5 1_555 1_555
C43_5 H35_5 1_555 1_555
Cl1_11 Fe1_11 1_555 1_555
N2_11 Fe1_11 1_555 1_555
C15_6 H11_6 1_555 1_555
H9_6 C13_6 1_555 1_555
C17_6 C18_6 1_555 1_555
C18_6 H13_6 1_555 1_555
H14_6 C17_6 1_555 1_555
C20_6 C17_6 1_555 1_555
C21_6 C18_6 1_555 1_555
C23_6 O15_6 1_555 1_555
C24_6 O19_2 1_555 1_555
N3_6 Fe1_11 1_555 1_555
O15_6 Zr8 1_555 1_555
O22_6 C23_6 1_555 1_555
O24_4 C24_6 1_555 1_555
Zr11_2 O22_6 1_555 1_555
N4_11 Fe1_11 1_555 1_555
C26_6 H19_6 1_555 1_555
C27_6 H20_6 1_555 1_555
C29_6 C23_6 1_555 1_555
C30_6 C24_6 1_555 1_555
C32_6 C35_6 1_555 1_555
C33_6 C36_6 1_555 1_555
C35_6 C26_6 1_555 1_555
C36_6 C27_6 1_555 1_555
H22_6 C35_6 1_555 1_555
H23_6 C36_6 1_555 1_555
C38_6 C29_6 1_555 1_555
C39_6 C30_6 1_555 1_555
H25_6 C38_6 1_555 1_555
H26_6 C39_6 1_555 1_555
C40_6 N2_11 1_555 1_555
C42_6 C15_6 1_555 1_555
C44_6 C20_6 1_555 1_555
C45_6 C21_6 1_555 1_555
C47_6 C32_6 1_555 1_555
C48_6 C33_6 1_555 1_555
H28_6 C47_6 1_555 1_555
H29_6 C48_6 1_555 1_555
C13_6 C40_6 1_555 1_555
C20_6 N3_6 1_555 1_555
C21_6 N3_6 1_555 1_555
N4_11 C42_6 1_555 1_555
C26_6 C29_6 1_555 1_555
C27_6 C30_6 1_555 1_555
C32_6 C45_6 1_555 1_555
C33_6 C44_6 1_555 1_555
C38_6 C47_6 1_555 1_555
C39_6 C48_6 1_555 1_555
C40_6 C45_6 1_555 1_555
C42_6 C44_6 1_555 1_555
C44_6 H34_6 1_555 1_555
C45_6 H36_6 1_555 1_555
Cl1_12 Fe1_12 1_555 1_555
C1_6 H1_6 1_555 1_555
C2_6 H2_6 1_555 1_555
C3_6 C2_6 1_555 1_555
C4_6 O17_3 1_555 1_555
N1_6 C3_6 1_555 1_555
O12_3 Zr11_2 1_555 1_555
O3_9 H3_6 1_555 1_555
O5_6 C4_6 1_555 1_555
Zr5_4 O3_9 1_555 1_555
Zr11_2 O9_3 1_555 1_555
Fe1_12 N1_6 1_555 1_555
N2_12 Fe1_12 1_555 1_555
C5_6 H4_6 1_555 1_555
C6_6 C4_6 1_555 1_555
C7_6 C8_6 1_555 1_555
C8_6 C5_6 1_555 1_555
H5_6 C8_6 1_555 1_555
C9_6 C6_6 1_555 1_555
H6_6 C9_6 1_555 1_555
C10_6 C1_6 1_555 1_555
C11_6 C3_6 1_555 1_555
C12_6 C7_6 1_555 1_555
H7_6 C12_6 1_555 1_555
O6_9 Zr5_4 1_555 1_555
O8_3 Zr11_2 1_555 1_555
H10_6 C14_6 1_555 1_555
C16_6 C2_6 1_555 1_555
H12_6 C16_6 1_555 1_555
C19_6 N1_6 1_555 1_555
C22_6 O18_4 1_555 1_555
O13_9 H16_6 1_555 1_555
O26_4 C22_6 1_555 1_555
N4_12 Fe1_12 1_555 1_555
C25_6 H18_6 1_555 1_555
C28_6 C22_6 1_555 1_555
C31_6 C34_6 1_555 1_555
C34_6 C25_6 1_555 1_555
H21_6 C34_6 1_555 1_555
C37_6 C28_6 1_555 1_555
H24_6 C37_6 1_555 1_555
C41_6 C14_6 1_555 1_555
C43_6 C19_6 1_555 1_555
C46_6 C31_6 1_555 1_555
H27_6 C46_6 1_555 1_555
O27_9 Zr8 1_555 1_555
H30_6 O6_9 1_555 1_555
H32_6 O27_9 1_555 1_555
O5_6 Zr11_2 1_555 1_555
Zr11_2 O11_3 1_555 1_555
N2_12 C10_6 1_555 1_555
C5_6 C6_6 1_555 1_555
C7_6 C11_6 1_555 1_555
C9_6 C12_6 1_555 1_555
C10_6 C11_6 1_555 1_555
C16_6 C19_6 1_555 1_555
O13_9 Zr8 1_555 1_555
N4_12 C41_6 1_555 1_555
C25_6 C28_6 1_555 1_555
C31_6 C43_6 1_555 1_555
C37_6 C46_6 1_555 1_555
C41_6 C43_6 1_555 1_555
C11_6 H33_6 1_555 1_555
C43_6 H35_6 1_555 1_555
Zr5_5 O3_10 1_555 1_555
O6_10 Zr5_5 1_555 1_555
H8_6 O6_10 1_555 1_555
H15_6 O3_10 1_555 1_555
H17_6 O13_10 1_555 1_555
O27_10 Zr8_2 1_555 1_555
H31_6 O27_10 1_555 1_555
O13_10 Zr8_2 1_555 1_555

#END
