
###############################################################################
#
# This file contains modified crystal structure data generated from the
# MOF subset of the Cambridge Structural Database (CSD) v543 
# hosted by the Cambridge Crystallographic Data Centre (CCDC).
#
# This work is licensed under the Creative Commons
# Attribution-NonCommercial-ShareAlike 4.0 International License.
# To view a copy of this license, visit
# http://creativecommons.org/licenses/by-nc-sa/4.0/
# or send a letter to
# Creative Commons, PO Box 1866, Mountain View, CA 94042, USA.
#
# CIF created using the CSD Python API on 29 September 2022
# The structure has been converted into the P1 space group
# The structure has a 3D framework
# The original CSD entry QEGGUE is in the tetragonal crystal system
# The framework has been calculated to contain at least 10.0% void space
# The void calculation uses a probe of radius 1.32A, grid spacing 0.4
# The framework is charged, counterions have been retained in the structure
#
###############################################################################

data_QEGGUE
_chemical_formula_moiety         '(C960 H960 Ag32 F192 N64 P32)n'
_symmetry_cell_setting           triclinic
_symmetry_space_group_name_H-M   'P 1'
_symmetry_Int_Tables_number      1
_space_group_name_Hall           'P 1'
loop_
_symmetry_equiv_pos_site_id
_symmetry_equiv_pos_as_xyz
1 x,y,z
_cell_length_a                   24.4478(4)
_cell_length_b                   24.4478(4)
_cell_length_c                   68.740(1)
_cell_angle_alpha                90
_cell_angle_beta                 90
_cell_angle_gamma                90
_cell_volume                     41085.5
loop_
_atom_site_label
_atom_site_type_symbol
_atom_site_fract_x
_atom_site_fract_y
_atom_site_fract_z
Ag1 Ag 0.31293(8) 0.8297(1) 0.00171(2)
N1 N 0.3129(9) 0.793(1) 0.0305(2)
C1 C 0.300(1) 0.740(1) 0.0338(3)
C2 C 0.304(1) 0.719(1) 0.0521(3)
C3 C 0.3184(9) 0.7479(9) 0.0678(2)
C4 C 0.333(1) 0.801(1) 0.0643(3)
C5 C 0.328(1) 0.825(1) 0.0456(3)
N2 N 0.1137(9) 0.5631(9) 0.2230(2)
C6 C 0.084(1) 0.5800(9) 0.2077(3)
C7 C 0.106(1) 0.581(1) 0.1888(3)
C8 C 0.1610(9) 0.568(1) 0.1859(2)
C9 C 0.194(1) 0.553(1) 0.2019(3)
C10 C 0.170(1) 0.553(1) 0.2206(3)
C11 C 0.3229(9) 0.726(1) 0.0880(3)
C12 C 0.2727(9) 0.716(1) 0.0980(3)
C13 C 0.274(1) 0.692(1) 0.1168(3)
C14 C 0.3262(9) 0.6824(8) 0.1255(2)
C15 C 0.3762(9) 0.692(1) 0.1152(3)
C16 C 0.3743(9) 0.713(1) 0.0962(3)
C17 C 0.218(1) 0.730(1) 0.0888(3)
C18 C 0.328(1) 0.664(1) 0.1470(2)
C19 C 0.4257(9) 0.726(1) 0.0850(3)
C20 C 0.430(1) 0.6803 0.1250
C21 C 0.2218(9) 0.6806(9) 0.1279(3)
C22 C 0.2207(8) 0.5776(9) 0.1274(2)
C23 C 0.2133(9) 0.5282(9) 0.1359(3)
C24 C 0.1945(9) 0.5240(8) 0.1557(2)
C25 C 0.1860(9) 0.570(1) 0.1653(2)
C26 C 0.197(1) 0.6233(9) 0.1572(3)
C27 C 0.2140(9) 0.6248(9) 0.1374(2)
C28 C 0.225(1) 0.4750 0.1250
C29 C 0.181(1) 0.470(1) 0.1652(3)
C30 C 0.185(1) 0.6771(9) 0.1689(3)
C31 C 0.2330(8) 0.579(1) 0.1058(3)
H1 H 0.2885 0.7178 0.0234
H2 H 0.2959 0.6810 0.0538
H3 H 0.3472 0.8225 0.0747
H4 H 0.3359 0.8630 0.0436
H5 H 0.0466 0.5905 0.2096
H6 H 0.0835 0.5905 0.1780
H7 H 0.2308 0.5436 0.2001
H8 H 0.1927 0.5452 0.2316
H9 H 0.1891 0.7203 0.0976
H10 H 0.2159 0.7675 0.0859
H11 H 0.2133 0.7091 0.0772
H12 H 0.2918 0.6600 0.1517
H13 H 0.3471 0.6306 0.1480
H14 H 0.3465 0.6914 0.1545
H15 H 0.4567 0.7157 0.0924
H16 H 0.4254 0.7071 0.0730
H17 H 0.4273 0.7646 0.0825
H18 H 0.4347 0.7077 0.1347
H19 H 0.1925 0.6853 0.1189
H20 H 0.2191 0.7072 0.1379
H21 H 0.1900 0.4409 0.1565
H22 H 0.1436 0.4686 0.1683
H23 H 0.2024 0.4662 0.1767
H24 H 0.1952 0.7078 0.1612
H25 H 0.2061 0.6770 0.1805
H26 H 0.1474 0.6791 0.1720
H27 H 0.2372 0.6160 0.1018
H28 H 0.2036 0.5627 0.0989
H29 H 0.2658 0.5595 0.1033
H30 H 0.2216 0.4466 0.1344
C32 C 0.442(1) 0.6262(9) 0.1348(3)
C33 C 0.4324(8) 0.5762(9) 0.1245(2)
C34 C 0.442(1) 0.524(1) 0.1332(3)
C35 C 0.466(1) 0.5227(9) 0.1520(3)
C36 C 0.476(1) 0.5729(9) 0.1620(3)
C37 C 0.4979(9) 0.5684(9) 0.1822(2)
C38 C 0.469(1) 0.554(1) 0.1979(3)
C39 C 0.490(1) 0.550(1) 0.2162(3)
N3 N 0.543(1) 0.5629(9) 0.2195(2)
C40 C 0.575(1) 0.578(1) 0.2044(3)
C41 C 0.551(1) 0.583(1) 0.1857(3)
H31 H 0.5725 0.5972 0.1753
H32 H 0.6130 0.5859 0.2064
H33 H 0.4678 0.5385 0.2266
H34 H 0.4310 0.5459 0.1962
C42 C 0.463(1) 0.6243(9) 0.1538(3)
C43 C 0.476(1) 0.6757(9) 0.1650(3)
H35 H 0.4657 0.7067 0.1576
H36 H 0.4571 0.6754 0.1770
H37 H 0.5146 0.6773 0.1675
C44 C 0.480(1) 0.468(1) 0.1612(3)
H38 H 0.4703 0.4391 0.1524
H39 H 0.5175 0.4659 0.1641
H40 H 0.4591 0.4633 0.1728
C45 C 0.4306(9) 0.4718(9) 0.1221(3)
C46 C 0.3748(9) 0.4640(9) 0.1126(2)
C47 C 0.3276(9) 0.4707(8) 0.1226(2)
C48 C 0.2782(9) 0.4633(9) 0.1141(3)
C49 C 0.2740(8) 0.4445(9) 0.0943(2)
C50 C 0.320(1) 0.4360(9) 0.0847(2)
C51 C 0.318(1) 0.4110(9) 0.0641(2)
C52 C 0.331(1) 0.356(1) 0.0612(3)
C53 C 0.3300(9) 0.334(1) 0.0423(3)
N4 N 0.3131(9) 0.3637(9) 0.0270(2)
C54 C 0.303(1) 0.420(1) 0.0294(3)
C55 C 0.303(1) 0.444(1) 0.0481(3)
H41 H 0.2936 0.4808 0.0499
H42 H 0.2952 0.4427 0.0184
H43 H 0.3405 0.2966 0.0404
H44 H 0.3405 0.3335 0.0720
C56 C 0.3733(9) 0.447(1) 0.0928(3)
C57 C 0.4271(9) 0.435(1) 0.0811(3)
H45 H 0.4578 0.4452 0.0888
H46 H 0.4270 0.4561 0.0695
H47 H 0.4291 0.3974 0.0780
C58 C 0.220(1) 0.431(1) 0.0848(3)
H48 H 0.1909 0.4400 0.0935
H49 H 0.2186 0.3936 0.0817
H50 H 0.2162 0.4524 0.0733
H51 H 0.1966 0.4716 0.1156
C59 C 0.329(1) 0.4830(8) 0.1442(3)
H52 H 0.3660 0.4872 0.1482
H53 H 0.3127 0.4536 0.1511
H54 H 0.3095 0.5158 0.1467
H55 H 0.4353 0.4425 0.1311
H56 H 0.4572 0.4691 0.1121
C60 C 0.414(1) 0.578(1) 0.1030(2)
H57 H 0.4100 0.5418 0.0983
H58 H 0.3806 0.5971 0.1020
H59 H 0.4414 0.5965 0.0955
H60 H 0.4577 0.6847 0.1153
Ag2 Ag 0.5797(1) 0.56293(8) 0.24829(2)
Ag3 Ag 0.0797(1) 0.56293(8) 0.25171(2)
N6 N 0.6137(9) 0.5631(9) 0.2770(2)
N5 N 0.3131(9) 0.8637(9) 0.9730(2)
Ag4 Ag 0.31293(8) 0.3297(1) 0.99829(2)
Ag1_2 Ag 0.0797(1) 0.06293(8) 0.74829(2)
N1_2 N 0.043(1) 0.0629(9) 0.7195(2)
C4_2 C 0.051(1) 0.083(1) 0.6857(3)
C5_2 C 0.075(1) 0.078(1) 0.7044(3)
H3_2 H 0.0725 0.0972 0.6753
H4_2 H 0.1130 0.0859 0.7064
H17_2 H 0.0146 0.1773 0.6675
N5_2 N 0.1137(9) 0.0631(9) 0.7770(2)
C1_2 C 0.990(1) 0.050(1) 0.7162(3)
C2_2 C 0.969(1) 0.054(1) 0.6979(3)
C3_2 C 0.9979(9) 0.0684(9) 0.6822(2)
C11_2 C 0.976(1) 0.0729(9) 0.6620(3)
C12_2 C 0.966(1) 0.0227(9) 0.6520(3)
C13_2 C 0.942(1) 0.024(1) 0.6332(3)
C14_2 C 0.9324(8) 0.0762(9) 0.6245(2)
C15_2 C 0.942(1) 0.1262(9) 0.6348(3)
C16_2 C 0.963(1) 0.1243(9) 0.6538(3)
C18_2 C 0.914(1) 0.078(1) 0.6030(2)
C19_2 C 0.976(1) 0.1757(9) 0.6650(3)
C20_2 C 0.9303 0.180(1) 0.6250
H1_2 H 0.9678 0.0385 0.7266
H2_2 H 0.9310 0.0459 0.6962
H12_2 H 0.9100 0.0418 0.5983
H13_2 H 0.8806 0.0971 0.6020
H14_2 H 0.9414 0.0965 0.5955
H15_2 H 0.9657 0.2067 0.6576
H16_2 H 0.9571 0.1754 0.6770
H18_2 H 0.9577 0.1847 0.6153
H29_2 H 0.8095 0.0158 0.6467
C32_2 C 0.8762(9) 0.192(1) 0.6152(3)
C33_2 C 0.8262(9) 0.1824(8) 0.6255(2)
C34_2 C 0.774(1) 0.192(1) 0.6168(3)
C35_2 C 0.7727(9) 0.216(1) 0.5980(3)
C36_2 C 0.8229(9) 0.226(1) 0.5880(3)
C37_2 C 0.8184(9) 0.2479(9) 0.5678(2)
C38_2 C 0.804(1) 0.219(1) 0.5521(3)
C39_2 C 0.800(1) 0.240(1) 0.5338(3)
N3_2 N 0.8129(9) 0.293(1) 0.5305(2)
C40_2 C 0.828(1) 0.325(1) 0.5456(3)
C41_2 C 0.833(1) 0.301(1) 0.5643(3)
H31_2 H 0.8472 0.3225 0.5747
H32_2 H 0.8359 0.3630 0.5436
H33_2 H 0.7885 0.2178 0.5234
H34_2 H 0.7959 0.1810 0.5538
C42_2 C 0.8743(9) 0.213(1) 0.5962(3)
C43_2 C 0.9257(9) 0.226(1) 0.5850(3)
H35_2 H 0.9567 0.2157 0.5924
H36_2 H 0.9254 0.2071 0.5730
H37_2 H 0.9273 0.2646 0.5825
C44_2 C 0.718(1) 0.230(1) 0.5888(3)
H38_2 H 0.6891 0.2203 0.5976
H39_2 H 0.7159 0.2675 0.5859
H40_2 H 0.7133 0.2091 0.5772
C45_2 C 0.7218(9) 0.1806(9) 0.6279(3)
C46_2 C 0.7140(9) 0.1248(9) 0.6374(2)
C47_2 C 0.7207(8) 0.0776(9) 0.6274(2)
C48_2 C 0.7133(9) 0.0282(9) 0.6359(3)
C49_2 C 0.6945(9) 0.0240(8) 0.6557(2)
C50_2 C 0.6860(9) 0.070(1) 0.6653(2)
C51_2 C 0.6610(9) 0.068(1) 0.6859(2)
C52_2 C 0.606(1) 0.081(1) 0.6888(3)
C53_2 C 0.584(1) 0.0800(9) 0.7077(3)
N4_2 N 0.6137(9) 0.0631(9) 0.7230(2)
C54_2 C 0.670(1) 0.053(1) 0.7206(3)
C55_2 C 0.694(1) 0.053(1) 0.7019(3)
H41_2 H 0.7308 0.0436 0.7001
H42_2 H 0.6927 0.0452 0.7316
H43_2 H 0.5466 0.0905 0.7096
H44_2 H 0.5835 0.0905 0.6780
C56_2 C 0.697(1) 0.1233(9) 0.6572(3)
C57_2 C 0.685(1) 0.1771(9) 0.6689(3)
H45_2 H 0.6952 0.2078 0.6612
H46_2 H 0.7061 0.1770 0.6805
H47_2 H 0.6474 0.1791 0.6720
C59_2 C 0.7330(8) 0.079(1) 0.6058(3)
H52_2 H 0.7372 0.1160 0.6018
H53_2 H 0.7036 0.0627 0.5989
H54_2 H 0.7658 0.0595 0.6033
H55_2 H 0.6925 0.1853 0.6189
H56_2 H 0.7191 0.2072 0.6379
C60_2 C 0.828(1) 0.164(1) 0.6470(2)
H57_2 H 0.7918 0.1600 0.6517
H58_2 H 0.8471 0.1306 0.6480
H59_2 H 0.8465 0.1914 0.6545
H60_2 H 0.9347 0.2077 0.6347
Ag2_2 Ag 0.81293(8) 0.3297(1) 0.50171(2)
Ag4_2 Ag 0.5797(1) 0.06293(8) 0.75171(2)
N6_2 N 0.8131(9) 0.3637(9) 0.4730(2)
N2_2 N 0.8131(9) 0.8637(9) 0.5270(2)
C6_2 C 0.8300(9) 0.834(1) 0.5423(3)
C7_2 C 0.831(1) 0.856(1) 0.5612(3)
C8_2 C 0.818(1) 0.9110(9) 0.5641(2)
C9_2 C 0.803(1) 0.944(1) 0.5481(3)
C10_2 C 0.803(1) 0.920(1) 0.5294(3)
C17_2 C 0.980(1) 0.968(1) 0.6612(3)
C21_2 C 0.9306(9) 0.9718(9) 0.6221(3)
C22_2 C 0.8276(9) 0.9707(8) 0.6226(2)
C23_2 C 0.7782(9) 0.9633(9) 0.6141(3)
C24_2 C 0.7740(8) 0.9445(9) 0.5943(2)
C25_2 C 0.820(1) 0.9360(9) 0.5847(2)
C26_2 C 0.8733(9) 0.947(1) 0.5928(3)
C27_2 C 0.8748(9) 0.9640(9) 0.6126(2)
C28_2 C 0.7250 0.975(1) 0.6250
C29_2 C 0.720(1) 0.931(1) 0.5848(3)
C30_2 C 0.9271(9) 0.935(1) 0.5811(3)
C31_2 C 0.829(1) 0.9830(8) 0.6442(3)
H5_2 H 0.8405 0.7966 0.5404
H6_2 H 0.8405 0.8335 0.5720
H7_2 H 0.7936 0.9808 0.5499
H8_2 H 0.7952 0.9427 0.5184
H9_2 H 0.9703 0.9391 0.6524
H11_2 H 0.9591 0.9633 0.6728
H19_2 H 0.9353 0.9425 0.6311
H20_2 H 0.9572 0.9691 0.6121
H21_2 H 0.6909 0.9400 0.5935
H22_2 H 0.7186 0.8936 0.5817
H23_2 H 0.7162 0.9524 0.5733
H24_2 H 0.9578 0.9452 0.5888
H25_2 H 0.9270 0.9561 0.5695
H26_2 H 0.9291 0.8974 0.5780
H27_2 H 0.8660 0.9872 0.6482
H28_2 H 0.8127 0.9536 0.6511
H30_2 H 0.6966 0.9716 0.6156
C58_2 C 0.681(1) 0.970(1) 0.6652(3)
H48_2 H 0.6900 0.9409 0.6565
H49_2 H 0.6436 0.9686 0.6683
H50_2 H 0.7024 0.9662 0.6767
H51_2 H 0.7216 0.9466 0.6344
Ag3_2 Ag 0.81293(8) 0.8297(1) 0.49829(2)
N3_3 N 0.043(1) 0.5629(9) 0.2805(2)
C40_3 C 0.075(1) 0.578(1) 0.2956(3)
C41_3 C 0.051(1) 0.583(1) 0.3143(3)
H31_3 H 0.0725 0.5972 0.3247
H32_3 H 0.1130 0.5859 0.2936
H37_3 H 0.0146 0.6773 0.3325
H39_3 H 0.0175 0.4659 0.3359
N1_3 N 0.8129(9) 0.793(1) 0.4695(2)
C1_3 C 0.800(1) 0.740(1) 0.4662(3)
C2_3 C 0.804(1) 0.719(1) 0.4479(3)
C3_3 C 0.8184(9) 0.7479(9) 0.4322(2)
C4_3 C 0.833(1) 0.801(1) 0.4357(3)
C5_3 C 0.828(1) 0.825(1) 0.4544(3)
C6_3 C 0.584(1) 0.5800(9) 0.2923(3)
C7_3 C 0.606(1) 0.581(1) 0.3112(3)
C8_3 C 0.6610(9) 0.568(1) 0.3141(2)
C9_3 C 0.694(1) 0.553(1) 0.2981(3)
C10_3 C 0.670(1) 0.553(1) 0.2794(3)
C11_3 C 0.8229(9) 0.726(1) 0.4120(3)
C12_3 C 0.7727(9) 0.716(1) 0.4020(3)
C13_3 C 0.774(1) 0.692(1) 0.3832(3)
C14_3 C 0.8262(9) 0.6824(8) 0.3745(2)
C15_3 C 0.8762(9) 0.692(1) 0.3848(3)
C16_3 C 0.8743(9) 0.713(1) 0.4038(3)
C17_3 C 0.718(1) 0.730(1) 0.4112(3)
C18_3 C 0.828(1) 0.664(1) 0.3530(2)
C19_3 C 0.9257(9) 0.726(1) 0.4150(3)
C20_3 C 0.930(1) 0.6803 0.3750
C21_3 C 0.7218(9) 0.6806(9) 0.3721(3)
C22_3 C 0.7207(8) 0.5776(9) 0.3726(2)
C23_3 C 0.7133(9) 0.5282(9) 0.3641(3)
C24_3 C 0.6945(9) 0.5240(8) 0.3443(2)
C25_3 C 0.6860(9) 0.570(1) 0.3347(2)
C26_3 C 0.697(1) 0.6233(9) 0.3428(3)
C27_3 C 0.7140(9) 0.6248(9) 0.3626(2)
C28_3 C 0.725(1) 0.4750 0.3750
C29_3 C 0.681(1) 0.470(1) 0.3348(3)
C30_3 C 0.685(1) 0.6771(9) 0.3311(3)
C31_3 C 0.7330(8) 0.579(1) 0.3942(3)
H1_3 H 0.7885 0.7178 0.4766
H2_3 H 0.7959 0.6810 0.4462
H3_3 H 0.8472 0.8225 0.4253
H4_3 H 0.8359 0.8630 0.4564
H5_3 H 0.5466 0.5905 0.2904
H6_3 H 0.5835 0.5905 0.3220
H7_3 H 0.7308 0.5436 0.2999
H8_3 H 0.6927 0.5452 0.2684
H9_3 H 0.6891 0.7203 0.4024
H10_2 H 0.7159 0.7675 0.4141
H11_3 H 0.7133 0.7091 0.4228
H12_3 H 0.7918 0.6600 0.3483
H13_3 H 0.8471 0.6306 0.3520
H14_3 H 0.8465 0.6914 0.3455
H15_3 H 0.9567 0.7157 0.4076
H16_3 H 0.9254 0.7071 0.4270
H17_3 H 0.9273 0.7646 0.4175
H18_3 H 0.9347 0.7077 0.3653
H19_3 H 0.6925 0.6853 0.3811
H20_3 H 0.7191 0.7072 0.3621
H21_3 H 0.6900 0.4409 0.3435
H22_3 H 0.6436 0.4686 0.3317
H23_3 H 0.7024 0.4662 0.3233
H24_3 H 0.6952 0.7078 0.3388
H25_3 H 0.7061 0.6770 0.3195
H26_3 H 0.6474 0.6791 0.3280
H27_3 H 0.7372 0.6160 0.3982
H28_3 H 0.7036 0.5627 0.4011
H29_3 H 0.7658 0.5595 0.3967
H30_3 H 0.7216 0.4466 0.3656
C32_3 C 0.942(1) 0.6262(9) 0.3652(3)
C33_3 C 0.9324(8) 0.5762(9) 0.3755(2)
C34_3 C 0.942(1) 0.524(1) 0.3668(3)
C35_3 C 0.966(1) 0.5227(9) 0.3480(3)
C36_3 C 0.976(1) 0.5729(9) 0.3380(3)
C37_3 C 0.9979(9) 0.5684(9) 0.3178(2)
C38_3 C 0.969(1) 0.554(1) 0.3021(3)
C39_3 C 0.990(1) 0.550(1) 0.2838(3)
H33_3 H 0.9678 0.5385 0.2734
H34_3 H 0.9310 0.5459 0.3038
C42_3 C 0.963(1) 0.6243(9) 0.3462(3)
C43_3 C 0.976(1) 0.6757(9) 0.3350(3)
H35_3 H 0.9657 0.7067 0.3424
H36_3 H 0.9571 0.6754 0.3230
C44_3 C 0.980(1) 0.468(1) 0.3388(3)
H38_3 H 0.9703 0.4391 0.3476
H40_3 H 0.9591 0.4633 0.3272
C45_3 C 0.9306(9) 0.4718(9) 0.3779(3)
C46_3 C 0.8748(9) 0.4640(9) 0.3874(2)
C47_3 C 0.8276(9) 0.4707(8) 0.3774(2)
C48_3 C 0.7782(9) 0.4633(9) 0.3859(3)
C49_3 C 0.7740(8) 0.4445(9) 0.4057(2)
C50_3 C 0.820(1) 0.4360(9) 0.4153(2)
C51_3 C 0.818(1) 0.4110(9) 0.4359(2)
C52_3 C 0.831(1) 0.356(1) 0.4388(3)
C53_3 C 0.8300(9) 0.334(1) 0.4577(3)
C54_3 C 0.803(1) 0.420(1) 0.4706(3)
C55_3 C 0.803(1) 0.444(1) 0.4519(3)
H41_3 H 0.7936 0.4808 0.4501
H42_3 H 0.7952 0.4427 0.4816
H43_3 H 0.8405 0.2966 0.4596
H44_3 H 0.8405 0.3335 0.4280
C56_3 C 0.8733(9) 0.447(1) 0.4072(3)
C57_3 C 0.9271(9) 0.435(1) 0.4189(3)
H45_3 H 0.9578 0.4452 0.4112
H46_3 H 0.9270 0.4561 0.4305
H47_3 H 0.9291 0.3974 0.4220
C58_3 C 0.720(1) 0.431(1) 0.4152(3)
H48_3 H 0.6909 0.4400 0.4065
H49_3 H 0.7186 0.3936 0.4183
H50_3 H 0.7162 0.4524 0.4267
H51_3 H 0.6966 0.4716 0.3844
C59_3 C 0.829(1) 0.4830(8) 0.3558(3)
H52_3 H 0.8660 0.4872 0.3518
H53_3 H 0.8127 0.4536 0.3489
H54_3 H 0.8095 0.5158 0.3533
H55_3 H 0.9353 0.4425 0.3689
H56_3 H 0.9572 0.4691 0.3879
C60_3 C 0.914(1) 0.578(1) 0.3970(2)
H57_3 H 0.9100 0.5418 0.4017
H58_3 H 0.8806 0.5971 0.3980
H59_3 H 0.9414 0.5965 0.4045
H60_3 H 0.9577 0.6847 0.3847
N1_4 N 0.543(1) 0.0629(9) 0.7805(2)
C1_4 C 0.490(1) 0.050(1) 0.7838(3)
C2_4 C 0.469(1) 0.054(1) 0.8021(3)
C3_4 C 0.4979(9) 0.0684(9) 0.8178(2)
C4_4 C 0.551(1) 0.083(1) 0.8143(3)
C5_4 C 0.575(1) 0.078(1) 0.7956(3)
C11_4 C 0.476(1) 0.0729(9) 0.8380(3)
C12_4 C 0.466(1) 0.0227(9) 0.8480(3)
C13_4 C 0.442(1) 0.024(1) 0.8668(3)
C14_4 C 0.4324(8) 0.0762(9) 0.8755(2)
C15_4 C 0.442(1) 0.1262(9) 0.8652(3)
C16_4 C 0.463(1) 0.1243(9) 0.8462(3)
C18_4 C 0.414(1) 0.078(1) 0.8970(2)
C19_4 C 0.476(1) 0.1757(9) 0.8350(3)
C20_4 C 0.4303 0.180(1) 0.8750
H1_4 H 0.4678 0.0385 0.7734
H2_4 H 0.4310 0.0459 0.8038
H3_4 H 0.5725 0.0972 0.8247
H4_4 H 0.6130 0.0859 0.7936
H12_4 H 0.4100 0.0418 0.9017
H13_4 H 0.3806 0.0971 0.8980
H14_4 H 0.4414 0.0965 0.9045
H15_4 H 0.4657 0.2067 0.8424
H16_4 H 0.4571 0.1754 0.8230
H17_4 H 0.5146 0.1773 0.8325
H18_4 H 0.4577 0.1847 0.8847
H29_4 H 0.3095 0.0158 0.8533
C32_4 C 0.3762(9) 0.192(1) 0.8848(3)
C33_4 C 0.3262(9) 0.1824(8) 0.8745(2)
C34_4 C 0.274(1) 0.192(1) 0.8832(3)
C35_4 C 0.2727(9) 0.216(1) 0.9020(3)
C36_4 C 0.3229(9) 0.226(1) 0.9120(3)
C37_4 C 0.3184(9) 0.2479(9) 0.9322(2)
C38_4 C 0.304(1) 0.219(1) 0.9479(3)
C39_4 C 0.300(1) 0.240(1) 0.9662(3)
N3_4 N 0.3129(9) 0.293(1) 0.9695(2)
C40_4 C 0.328(1) 0.325(1) 0.9544(3)
C41_4 C 0.333(1) 0.301(1) 0.9357(3)
H31_4 H 0.3472 0.3225 0.9253
H32_4 H 0.3359 0.3630 0.9564
H33_4 H 0.2885 0.2178 0.9766
H34_4 H 0.2959 0.1810 0.9462
C42_4 C 0.3743(9) 0.213(1) 0.9038(3)
C43_4 C 0.4257(9) 0.226(1) 0.9150(3)
H35_4 H 0.4567 0.2157 0.9076
H36_4 H 0.4254 0.2071 0.9270
H37_4 H 0.4273 0.2646 0.9175
C44_4 C 0.218(1) 0.230(1) 0.9112(3)
H38_4 H 0.1891 0.2203 0.9024
H39_4 H 0.2159 0.2675 0.9141
H40_4 H 0.2133 0.2091 0.9228
C45_4 C 0.2218(9) 0.1806(9) 0.8721(3)
C46_4 C 0.2140(9) 0.1248(9) 0.8626(2)
C47_4 C 0.2207(8) 0.0776(9) 0.8726(2)
C48_4 C 0.2133(9) 0.0282(9) 0.8641(3)
C49_4 C 0.1945(9) 0.0240(8) 0.8443(2)
C50_4 C 0.1860(9) 0.070(1) 0.8347(2)
C51_4 C 0.1610(9) 0.068(1) 0.8141(2)
C52_4 C 0.106(1) 0.081(1) 0.8112(3)
C53_4 C 0.084(1) 0.0800(9) 0.7923(3)
C54_4 C 0.170(1) 0.053(1) 0.7794(3)
C55_4 C 0.194(1) 0.053(1) 0.7981(3)
H41_4 H 0.2308 0.0436 0.7999
H42_4 H 0.1927 0.0452 0.7684
H43_4 H 0.0466 0.0905 0.7904
H44_4 H 0.0835 0.0905 0.8220
C56_4 C 0.197(1) 0.1233(9) 0.8428(3)
C57_4 C 0.185(1) 0.1771(9) 0.8311(3)
H45_4 H 0.1952 0.2078 0.8388
H46_4 H 0.2061 0.1770 0.8195
H47_4 H 0.1474 0.1791 0.8280
C59_4 C 0.2330(8) 0.079(1) 0.8942(3)
H52_4 H 0.2372 0.1160 0.8982
H53_4 H 0.2036 0.0627 0.9011
H54_4 H 0.2658 0.0595 0.8967
H55_4 H 0.1925 0.1853 0.8811
H56_4 H 0.2191 0.2072 0.8621
C60_4 C 0.328(1) 0.164(1) 0.8530(2)
H57_4 H 0.2918 0.1600 0.8483
H58_4 H 0.3471 0.1306 0.8520
H59_4 H 0.3465 0.1914 0.8455
H60_4 H 0.4347 0.2077 0.8653
C6_4 C 0.3300(9) 0.834(1) 0.9577(3)
C7_4 C 0.331(1) 0.856(1) 0.9388(3)
C8_4 C 0.318(1) 0.9110(9) 0.9359(2)
C9_4 C 0.303(1) 0.944(1) 0.9519(3)
C10_4 C 0.303(1) 0.920(1) 0.9706(3)
C17_4 C 0.480(1) 0.968(1) 0.8388(3)
C21_4 C 0.4306(9) 0.9718(9) 0.8779(3)
C22_4 C 0.3276(9) 0.9707(8) 0.8774(2)
C23_4 C 0.2782(9) 0.9633(9) 0.8859(3)
C24_4 C 0.2740(8) 0.9445(9) 0.9057(2)
C25_4 C 0.320(1) 0.9360(9) 0.9153(2)
C26_4 C 0.3733(9) 0.947(1) 0.9072(3)
C27_4 C 0.3748(9) 0.9640(9) 0.8874(2)
C28_4 C 0.2250 0.975(1) 0.8750
C29_4 C 0.220(1) 0.931(1) 0.9152(3)
C30_4 C 0.4271(9) 0.935(1) 0.9189(3)
C31_4 C 0.329(1) 0.9830(8) 0.8558(3)
H5_4 H 0.3405 0.7966 0.9596
H6_4 H 0.3405 0.8335 0.9280
H7_4 H 0.2936 0.9808 0.9501
H8_4 H 0.2952 0.9427 0.9816
H9_4 H 0.4703 0.9391 0.8476
H10_3 H 0.5175 0.9659 0.8359
H11_4 H 0.4591 0.9633 0.8272
H19_4 H 0.4353 0.9425 0.8689
H20_4 H 0.4572 0.9691 0.8879
H21_4 H 0.1909 0.9400 0.9065
H22_4 H 0.2186 0.8936 0.9183
H23_4 H 0.2162 0.9524 0.9267
H24_4 H 0.4578 0.9452 0.9112
H25_4 H 0.4270 0.9561 0.9305
H26_4 H 0.4291 0.8974 0.9220
H27_4 H 0.3660 0.9872 0.8518
H28_4 H 0.3127 0.9536 0.8489
H30_4 H 0.1966 0.9716 0.8844
C58_4 C 0.181(1) 0.970(1) 0.8348(3)
H48_4 H 0.1900 0.9409 0.8435
H49_4 H 0.1436 0.9686 0.8317
H50_4 H 0.2024 0.9662 0.8233
H51_4 H 0.2216 0.9466 0.8656
Ag1_3 Ag 0.4203(1) 0.06293(8) 0.25171(2)
N1_5 N 0.457(1) 0.0629(9) 0.2805(2)
C1_5 C 0.510(1) 0.050(1) 0.2838(3)
C2_5 C 0.531(1) 0.054(1) 0.3021(3)
C3_5 C 0.5021(9) 0.0684(9) 0.3178(2)
C4_5 C 0.449(1) 0.083(1) 0.3143(3)
C5_5 C 0.425(1) 0.078(1) 0.2956(3)
C11_5 C 0.524(1) 0.0729(9) 0.3380(3)
C12_5 C 0.534(1) 0.0227(9) 0.3480(3)
C13_5 C 0.558(1) 0.024(1) 0.3668(3)
C14_5 C 0.5676(8) 0.0762(9) 0.3755(2)
C15_5 C 0.558(1) 0.1262(9) 0.3652(3)
C16_5 C 0.537(1) 0.1243(9) 0.3462(3)
C18_5 C 0.586(1) 0.078(1) 0.3970(2)
C19_5 C 0.524(1) 0.1757(9) 0.3350(3)
C20_5 C 0.5697 0.180(1) 0.3750
H1_5 H 0.5322 0.0385 0.2734
H2_5 H 0.5690 0.0459 0.3038
H3_5 H 0.4275 0.0972 0.3247
H4_5 H 0.3870 0.0859 0.2936
H12_5 H 0.5900 0.0418 0.4017
H13_5 H 0.6194 0.0971 0.3980
H14_5 H 0.5586 0.0965 0.4045
H15_5 H 0.5343 0.2067 0.3424
H16_5 H 0.5429 0.1754 0.3230
H17_5 H 0.4854 0.1773 0.3325
H18_5 H 0.5423 0.1847 0.3847
H29_5 H 0.6905 0.0158 0.3533
C32_5 C 0.6238(9) 0.192(1) 0.3848(3)
C33_5 C 0.6738(9) 0.1824(8) 0.3745(2)
C34_5 C 0.726(1) 0.192(1) 0.3832(3)
C35_5 C 0.7273(9) 0.216(1) 0.4020(3)
C36_5 C 0.6771(9) 0.226(1) 0.4120(3)
C37_5 C 0.6816(9) 0.2479(9) 0.4322(2)
C38_5 C 0.696(1) 0.219(1) 0.4479(3)
C39_5 C 0.700(1) 0.240(1) 0.4662(3)
N3_5 N 0.6871(9) 0.293(1) 0.4695(2)
C40_5 C 0.672(1) 0.325(1) 0.4544(3)
C41_5 C 0.667(1) 0.301(1) 0.4357(3)
H31_5 H 0.6528 0.3225 0.4253
H32_5 H 0.6641 0.3630 0.4564
H33_5 H 0.7115 0.2178 0.4766
H34_5 H 0.7041 0.1810 0.4462
C42_5 C 0.6257(9) 0.213(1) 0.4038(3)
C43_5 C 0.5743(9) 0.226(1) 0.4150(3)
H35_5 H 0.5433 0.2157 0.4076
H36_5 H 0.5746 0.2071 0.4270
H37_5 H 0.5727 0.2646 0.4175
C44_5 C 0.782(1) 0.230(1) 0.4112(3)
H38_5 H 0.8109 0.2203 0.4024
H39_5 H 0.7841 0.2675 0.4141
H40_5 H 0.7867 0.2091 0.4228
C45_5 C 0.7782(9) 0.1806(9) 0.3721(3)
C46_5 C 0.7860(9) 0.1248(9) 0.3626(2)
C47_5 C 0.7793(8) 0.0776(9) 0.3726(2)
C48_5 C 0.7867(9) 0.0282(9) 0.3641(3)
C49_5 C 0.8055(9) 0.0240(8) 0.3443(2)
C50_5 C 0.8140(9) 0.070(1) 0.3347(2)
C51_5 C 0.8390(9) 0.068(1) 0.3141(2)
C52_5 C 0.894(1) 0.081(1) 0.3112(3)
C53_5 C 0.916(1) 0.0800(9) 0.2923(3)
N4_3 N 0.8863(9) 0.0631(9) 0.2770(2)
C54_5 C 0.830(1) 0.053(1) 0.2794(3)
C55_5 C 0.806(1) 0.053(1) 0.2981(3)
H41_5 H 0.7692 0.0436 0.2999
H42_5 H 0.8073 0.0452 0.2684
H43_5 H 0.9534 0.0905 0.2904
H44_5 H 0.9165 0.0905 0.3220
C56_5 C 0.803(1) 0.1233(9) 0.3428(3)
C57_5 C 0.815(1) 0.1771(9) 0.3311(3)
H45_5 H 0.8048 0.2078 0.3388
H46_5 H 0.7939 0.1770 0.3195
H47_5 H 0.8526 0.1791 0.3280
C59_5 C 0.7670(8) 0.079(1) 0.3942(3)
H52_5 H 0.7628 0.1160 0.3982
H53_5 H 0.7964 0.0627 0.4011
H54_5 H 0.7342 0.0595 0.3967
H55_5 H 0.8075 0.1853 0.3811
H56_5 H 0.7809 0.2072 0.3621
C60_5 C 0.672(1) 0.164(1) 0.3530(2)
H57_5 H 0.7082 0.1600 0.3483
H58_5 H 0.6529 0.1306 0.3520
H59_5 H 0.6535 0.1914 0.3455
H60_5 H 0.5653 0.2077 0.3653
Ag2_3 Ag 0.68707(8) 0.3297(1) 0.49829(2)
N5_3 N 0.3863(9) 0.0631(9) 0.2230(2)
Ag4_3 Ag 0.9203(1) 0.06293(8) 0.24829(2)
N6_3 N 0.6869(9) 0.3637(9) 0.5270(2)
N2_3 N 0.6869(9) 0.8637(9) 0.4730(2)
C6_5 C 0.6700(9) 0.834(1) 0.4577(3)
C7_5 C 0.669(1) 0.856(1) 0.4388(3)
C8_5 C 0.682(1) 0.9110(9) 0.4359(2)
C9_5 C 0.697(1) 0.944(1) 0.4519(3)
C10_5 C 0.697(1) 0.920(1) 0.4706(3)
C17_5 C 0.520(1) 0.968(1) 0.3388(3)
C21_5 C 0.5694(9) 0.9718(9) 0.3779(3)
C22_5 C 0.6724(9) 0.9707(8) 0.3774(2)
C23_5 C 0.7218(9) 0.9633(9) 0.3859(3)
C24_5 C 0.7260(8) 0.9445(9) 0.4057(2)
C25_5 C 0.680(1) 0.9360(9) 0.4153(2)
C26_5 C 0.6267(9) 0.947(1) 0.4072(3)
C27_5 C 0.6252(9) 0.9640(9) 0.3874(2)
C28_5 C 0.7750 0.975(1) 0.3750
C29_5 C 0.780(1) 0.931(1) 0.4152(3)
C30_5 C 0.5729(9) 0.935(1) 0.4189(3)
C31_5 C 0.671(1) 0.9830(8) 0.3558(3)
H5_5 H 0.6595 0.7966 0.4596
H6_5 H 0.6595 0.8335 0.4280
H7_5 H 0.7064 0.9808 0.4501
H8_5 H 0.7048 0.9427 0.4816
H9_5 H 0.5297 0.9391 0.3476
H10_4 H 0.4825 0.9659 0.3359
H11_5 H 0.5409 0.9633 0.3272
H19_5 H 0.5647 0.9425 0.3689
H20_5 H 0.5428 0.9691 0.3879
H21_5 H 0.8091 0.9400 0.4065
H22_5 H 0.7814 0.8936 0.4183
H23_5 H 0.7838 0.9524 0.4267
H24_5 H 0.5422 0.9452 0.4112
H25_5 H 0.5730 0.9561 0.4305
H26_5 H 0.5709 0.8974 0.4220
H27_5 H 0.6340 0.9872 0.3518
H28_5 H 0.6873 0.9536 0.3489
H30_5 H 0.8034 0.9716 0.3844
C58_5 C 0.819(1) 0.970(1) 0.3348(3)
H48_5 H 0.8100 0.9409 0.3435
H49_5 H 0.8564 0.9686 0.3317
H50_5 H 0.7976 0.9662 0.3233
H51_5 H 0.7784 0.9466 0.3656
Ag3_3 Ag 0.68707(8) 0.8297(1) 0.50171(2)
N5_4 N 0.1869(9) 0.8637(9) 0.0270(2)
Ag4_4 Ag 0.18707(8) 0.3297(1) 0.00171(2)
Ag1_4 Ag 0.18707(8) 0.8297(1) 0.99829(2)
N1_6 N 0.1871(9) 0.793(1) 0.9695(2)
C1_6 C 0.200(1) 0.740(1) 0.9662(3)
C2_6 C 0.196(1) 0.719(1) 0.9479(3)
C3_6 C 0.1816(9) 0.7479(9) 0.9322(2)
C4_6 C 0.167(1) 0.801(1) 0.9357(3)
C5_6 C 0.172(1) 0.825(1) 0.9544(3)
N2_4 N 0.3863(9) 0.5631(9) 0.7770(2)
C6_6 C 0.416(1) 0.5800(9) 0.7923(3)
C7_6 C 0.394(1) 0.581(1) 0.8112(3)
C8_6 C 0.3390(9) 0.568(1) 0.8141(2)
C9_6 C 0.306(1) 0.553(1) 0.7981(3)
C10_6 C 0.330(1) 0.553(1) 0.7794(3)
C11_6 C 0.1771(9) 0.726(1) 0.9120(3)
C12_6 C 0.2273(9) 0.716(1) 0.9020(3)
C13_6 C 0.226(1) 0.692(1) 0.8832(3)
C14_6 C 0.1738(9) 0.6824(8) 0.8745(2)
C15_6 C 0.1238(9) 0.692(1) 0.8848(3)
C16_6 C 0.1257(9) 0.713(1) 0.9038(3)
C17_6 C 0.282(1) 0.730(1) 0.9112(3)
C18_6 C 0.172(1) 0.664(1) 0.8530(2)
C19_6 C 0.0743(9) 0.726(1) 0.9150(3)
C20_6 C 0.070(1) 0.6803 0.8750
C21_6 C 0.2782(9) 0.6806(9) 0.8721(3)
C22_6 C 0.2793(8) 0.5776(9) 0.8726(2)
C23_6 C 0.2867(9) 0.5282(9) 0.8641(3)
C24_6 C 0.3055(9) 0.5240(8) 0.8443(2)
C25_6 C 0.3140(9) 0.570(1) 0.8347(2)
C26_6 C 0.303(1) 0.6233(9) 0.8428(3)
C27_6 C 0.2860(9) 0.6248(9) 0.8626(2)
C28_6 C 0.275(1) 0.4750 0.8750
C29_6 C 0.319(1) 0.470(1) 0.8348(3)
C30_6 C 0.315(1) 0.6771(9) 0.8311(3)
C31_6 C 0.2670(8) 0.579(1) 0.8942(3)
H1_6 H 0.2115 0.7178 0.9766
H2_6 H 0.2041 0.6810 0.9462
H3_6 H 0.1528 0.8225 0.9253
H4_6 H 0.1641 0.8630 0.9564
H5_6 H 0.4534 0.5905 0.7904
H6_6 H 0.4165 0.5905 0.8220
H7_6 H 0.2692 0.5436 0.7999
H8_6 H 0.3073 0.5452 0.7684
H9_6 H 0.3109 0.7203 0.9024
H10_5 H 0.2841 0.7675 0.9141
H11_6 H 0.2867 0.7091 0.9228
H12_6 H 0.2082 0.6600 0.8483
H13_6 H 0.1529 0.6306 0.8520
H14_6 H 0.1535 0.6914 0.8455
H15_6 H 0.0433 0.7157 0.9076
H16_6 H 0.0746 0.7071 0.9270
H17_6 H 0.0727 0.7646 0.9175
H18_6 H 0.0653 0.7077 0.8653
H19_6 H 0.3075 0.6853 0.8811
H20_6 H 0.2809 0.7072 0.8621
H21_6 H 0.3100 0.4409 0.8435
H22_6 H 0.3564 0.4686 0.8317
H23_6 H 0.2976 0.4662 0.8233
H24_6 H 0.3048 0.7078 0.8388
H25_6 H 0.2939 0.6770 0.8195
H26_6 H 0.3526 0.6791 0.8280
H27_6 H 0.2628 0.6160 0.8982
H28_6 H 0.2964 0.5627 0.9011
H29_6 H 0.2342 0.5595 0.8967
H30_6 H 0.2784 0.4466 0.8656
C32_6 C 0.058(1) 0.6262(9) 0.8652(3)
C33_6 C 0.0676(8) 0.5762(9) 0.8755(2)
C34_6 C 0.058(1) 0.524(1) 0.8668(3)
C35_6 C 0.034(1) 0.5227(9) 0.8480(3)
C36_6 C 0.024(1) 0.5729(9) 0.8380(3)
C37_6 C 0.0021(9) 0.5684(9) 0.8178(2)
C38_6 C 0.031(1) 0.554(1) 0.8021(3)
C39_6 C 0.010(1) 0.550(1) 0.7838(3)
H33_6 H 0.0322 0.5385 0.7734
H34_6 H 0.0690 0.5459 0.8038
C42_6 C 0.037(1) 0.6243(9) 0.8462(3)
C43_6 C 0.024(1) 0.6757(9) 0.8350(3)
H35_6 H 0.0343 0.7067 0.8424
H36_6 H 0.0429 0.6754 0.8230
C44_6 C 0.020(1) 0.468(1) 0.8388(3)
H38_6 H 0.0297 0.4391 0.8476
H40_6 H 0.0409 0.4633 0.8272
C45_6 C 0.0694(9) 0.4718(9) 0.8779(3)
C46_6 C 0.1252(9) 0.4640(9) 0.8874(2)
C47_6 C 0.1724(9) 0.4707(8) 0.8774(2)
C48_6 C 0.2218(9) 0.4633(9) 0.8859(3)
C49_6 C 0.2260(8) 0.4445(9) 0.9057(2)
C50_6 C 0.180(1) 0.4360(9) 0.9153(2)
C51_6 C 0.182(1) 0.4110(9) 0.9359(2)
C52_6 C 0.169(1) 0.356(1) 0.9388(3)
C53_6 C 0.1700(9) 0.334(1) 0.9577(3)
N4_4 N 0.1869(9) 0.3637(9) 0.9730(2)
C54_6 C 0.197(1) 0.420(1) 0.9706(3)
C55_6 C 0.197(1) 0.444(1) 0.9519(3)
H41_6 H 0.2064 0.4808 0.9501
H42_6 H 0.2048 0.4427 0.9816
H43_6 H 0.1595 0.2966 0.9596
H44_6 H 0.1595 0.3335 0.9280
C56_6 C 0.1267(9) 0.447(1) 0.9072(3)
C57_6 C 0.0729(9) 0.435(1) 0.9189(3)
H45_6 H 0.0422 0.4452 0.9112
H46_6 H 0.0730 0.4561 0.9305
H47_6 H 0.0709 0.3974 0.9220
C58_6 C 0.280(1) 0.431(1) 0.9152(3)
H48_6 H 0.3091 0.4400 0.9065
H49_6 H 0.2814 0.3936 0.9183
H50_6 H 0.2838 0.4524 0.9267
H51_6 H 0.3034 0.4716 0.8844
C59_6 C 0.171(1) 0.4830(8) 0.8558(3)
H52_6 H 0.1340 0.4872 0.8518
H53_6 H 0.1873 0.4536 0.8489
H54_6 H 0.1905 0.5158 0.8533
H55_6 H 0.0647 0.4425 0.8689
H56_6 H 0.0428 0.4691 0.8879
C60_6 C 0.086(1) 0.578(1) 0.8970(2)
H57_6 H 0.0900 0.5418 0.9017
H58_6 H 0.1194 0.5971 0.8980
H59_6 H 0.0586 0.5965 0.9045
H60_6 H 0.0423 0.6847 0.8847
Ag3_4 Ag 0.4203(1) 0.56293(8) 0.74829(2)
N3_6 N 0.957(1) 0.5629(9) 0.7805(2)
C40_6 C 0.925(1) 0.578(1) 0.7956(3)
C41_6 C 0.949(1) 0.583(1) 0.8143(3)
H31_6 H 0.9275 0.5972 0.8247
H32_6 H 0.8870 0.5859 0.7936
H37_6 H 0.9854 0.6773 0.8325
H39_6 H 0.9825 0.4659 0.8359
Ag2_4 Ag 0.9203(1) 0.56293(8) 0.75171(2)
N6_4 N 0.8863(9) 0.5631(9) 0.7230(2)
N1_7 N 0.6871(9) 0.793(1) 0.5305(2)
C1_7 C 0.700(1) 0.740(1) 0.5338(3)
C2_7 C 0.696(1) 0.719(1) 0.5521(3)
C3_7 C 0.6816(9) 0.7479(9) 0.5678(2)
C4_7 C 0.667(1) 0.801(1) 0.5643(3)
C5_7 C 0.672(1) 0.825(1) 0.5456(3)
C6_7 C 0.916(1) 0.5800(9) 0.7077(3)
C7_7 C 0.894(1) 0.581(1) 0.6888(3)
C8_7 C 0.8390(9) 0.568(1) 0.6859(2)
C9_7 C 0.806(1) 0.553(1) 0.7019(3)
C10_7 C 0.830(1) 0.553(1) 0.7206(3)
C11_7 C 0.6771(9) 0.726(1) 0.5880(3)
C12_7 C 0.7273(9) 0.716(1) 0.5980(3)
C13_7 C 0.726(1) 0.692(1) 0.6168(3)
C14_7 C 0.6738(9) 0.6824(8) 0.6255(2)
C15_7 C 0.6238(9) 0.692(1) 0.6152(3)
C16_7 C 0.6257(9) 0.713(1) 0.5962(3)
C17_7 C 0.782(1) 0.730(1) 0.5888(3)
C18_7 C 0.672(1) 0.664(1) 0.6470(2)
C19_7 C 0.5743(9) 0.726(1) 0.5850(3)
C20_7 C 0.570(1) 0.6803 0.6250
C21_7 C 0.7782(9) 0.6806(9) 0.6279(3)
C22_7 C 0.7793(8) 0.5776(9) 0.6274(2)
C23_7 C 0.7867(9) 0.5282(9) 0.6359(3)
C24_7 C 0.8055(9) 0.5240(8) 0.6557(2)
C25_7 C 0.8140(9) 0.570(1) 0.6653(2)
C26_7 C 0.803(1) 0.6233(9) 0.6572(3)
C27_7 C 0.7860(9) 0.6248(9) 0.6374(2)
C28_7 C 0.775(1) 0.4750 0.6250
C29_7 C 0.819(1) 0.470(1) 0.6652(3)
C30_7 C 0.815(1) 0.6771(9) 0.6689(3)
C31_7 C 0.7670(8) 0.579(1) 0.6058(3)
H1_7 H 0.7115 0.7178 0.5234
H2_7 H 0.7041 0.6810 0.5538
H3_7 H 0.6528 0.8225 0.5747
H4_7 H 0.6641 0.8630 0.5436
H5_7 H 0.9534 0.5905 0.7096
H6_7 H 0.9165 0.5905 0.6780
H7_7 H 0.7692 0.5436 0.7001
H8_7 H 0.8073 0.5452 0.7316
H9_7 H 0.8109 0.7203 0.5976
H10_6 H 0.7841 0.7675 0.5859
H11_7 H 0.7867 0.7091 0.5772
H12_7 H 0.7082 0.6600 0.6517
H13_7 H 0.6529 0.6306 0.6480
H14_7 H 0.6535 0.6914 0.6545
H15_7 H 0.5433 0.7157 0.5924
H16_7 H 0.5746 0.7071 0.5730
H17_7 H 0.5727 0.7646 0.5825
H18_7 H 0.5653 0.7077 0.6347
H19_7 H 0.8075 0.6853 0.6189
H20_7 H 0.7809 0.7072 0.6379
H21_7 H 0.8100 0.4409 0.6565
H22_7 H 0.8564 0.4686 0.6683
H23_7 H 0.7976 0.4662 0.6767
H24_7 H 0.8048 0.7078 0.6612
H25_7 H 0.7939 0.6770 0.6805
H26_7 H 0.8526 0.6791 0.6720
H27_7 H 0.7628 0.6160 0.6018
H28_7 H 0.7964 0.5627 0.5989
H29_7 H 0.7342 0.5595 0.6033
H30_7 H 0.7784 0.4466 0.6344
C32_7 C 0.558(1) 0.6262(9) 0.6348(3)
C33_7 C 0.5676(8) 0.5762(9) 0.6245(2)
C34_7 C 0.558(1) 0.524(1) 0.6332(3)
C35_7 C 0.534(1) 0.5227(9) 0.6520(3)
C36_7 C 0.524(1) 0.5729(9) 0.6620(3)
C37_7 C 0.5021(9) 0.5684(9) 0.6822(2)
C38_7 C 0.531(1) 0.554(1) 0.6979(3)
C39_7 C 0.510(1) 0.550(1) 0.7162(3)
N3_7 N 0.457(1) 0.5629(9) 0.7195(2)
C40_7 C 0.425(1) 0.578(1) 0.7044(3)
C41_7 C 0.449(1) 0.583(1) 0.6857(3)
H31_7 H 0.4275 0.5972 0.6753
H32_7 H 0.3870 0.5859 0.7064
H33_7 H 0.5322 0.5385 0.7266
H34_7 H 0.5690 0.5459 0.6962
C42_7 C 0.537(1) 0.6243(9) 0.6538(3)
C43_7 C 0.524(1) 0.6757(9) 0.6650(3)
H35_7 H 0.5343 0.7067 0.6576
H36_7 H 0.5429 0.6754 0.6770
H37_7 H 0.4854 0.6773 0.6675
C44_7 C 0.520(1) 0.468(1) 0.6612(3)
H38_7 H 0.5297 0.4391 0.6524
H39_7 H 0.4825 0.4659 0.6641
H40_7 H 0.5409 0.4633 0.6728
C45_7 C 0.5694(9) 0.4718(9) 0.6221(3)
C46_7 C 0.6252(9) 0.4640(9) 0.6126(2)
C47_7 C 0.6724(9) 0.4707(8) 0.6226(2)
C48_7 C 0.7218(9) 0.4633(9) 0.6141(3)
C49_7 C 0.7260(8) 0.4445(9) 0.5943(2)
C50_7 C 0.680(1) 0.4360(9) 0.5847(2)
C51_7 C 0.682(1) 0.4110(9) 0.5641(2)
C52_7 C 0.669(1) 0.356(1) 0.5612(3)
C53_7 C 0.6700(9) 0.334(1) 0.5423(3)
C54_7 C 0.697(1) 0.420(1) 0.5294(3)
C55_7 C 0.697(1) 0.444(1) 0.5481(3)
H41_7 H 0.7064 0.4808 0.5499
H42_7 H 0.7048 0.4427 0.5184
H43_7 H 0.6595 0.2966 0.5404
H44_7 H 0.6595 0.3335 0.5720
C56_7 C 0.6267(9) 0.447(1) 0.5928(3)
C57_7 C 0.5729(9) 0.435(1) 0.5811(3)
H45_7 H 0.5422 0.4452 0.5888
H46_7 H 0.5730 0.4561 0.5695
H47_7 H 0.5709 0.3974 0.5780
C58_7 C 0.780(1) 0.431(1) 0.5848(3)
H48_7 H 0.8091 0.4400 0.5935
H49_7 H 0.7814 0.3936 0.5817
H50_7 H 0.7838 0.4524 0.5733
H51_7 H 0.8034 0.4716 0.6156
C59_7 C 0.671(1) 0.4830(8) 0.6442(3)
H52_7 H 0.6340 0.4872 0.6482
H53_7 H 0.6873 0.4536 0.6511
H54_7 H 0.6905 0.5158 0.6467
H55_7 H 0.5647 0.4425 0.6311
H56_7 H 0.5428 0.4691 0.6121
C60_7 C 0.586(1) 0.578(1) 0.6030(2)
H57_7 H 0.5900 0.5418 0.5983
H58_7 H 0.6194 0.5971 0.6020
H59_7 H 0.5586 0.5965 0.5955
H60_7 H 0.5423 0.6847 0.6153
C1_8 C 0.010(1) 0.050(1) 0.2162(3)
C2_8 C 0.031(1) 0.054(1) 0.1979(3)
C3_8 C 0.0021(9) 0.0684(9) 0.1822(2)
C11_8 C 0.024(1) 0.0729(9) 0.1620(3)
C12_8 C 0.034(1) 0.0227(9) 0.1520(3)
C13_8 C 0.058(1) 0.024(1) 0.1332(3)
C14_8 C 0.0676(8) 0.0762(9) 0.1245(2)
C15_8 C 0.058(1) 0.1262(9) 0.1348(3)
C16_8 C 0.037(1) 0.1243(9) 0.1538(3)
C18_8 C 0.086(1) 0.078(1) 0.1030(2)
C19_8 C 0.024(1) 0.1757(9) 0.1650(3)
C20_8 C 0.0697 0.180(1) 0.1250
H1_8 H 0.0322 0.0385 0.2266
H2_8 H 0.0690 0.0459 0.1962
H12_8 H 0.0900 0.0418 0.0983
H13_8 H 0.1194 0.0971 0.1020
H14_8 H 0.0586 0.0965 0.0955
H15_8 H 0.0343 0.2067 0.1576
H16_8 H 0.0429 0.1754 0.1770
H18_8 H 0.0423 0.1847 0.1153
H29_8 H 0.1905 0.0158 0.1467
C32_8 C 0.1238(9) 0.192(1) 0.1152(3)
C33_8 C 0.1738(9) 0.1824(8) 0.1255(2)
C34_8 C 0.226(1) 0.192(1) 0.1168(3)
C35_8 C 0.2273(9) 0.216(1) 0.0980(3)
C36_8 C 0.1771(9) 0.226(1) 0.0880(3)
C37_8 C 0.1816(9) 0.2479(9) 0.0678(2)
C38_8 C 0.196(1) 0.219(1) 0.0521(3)
C39_8 C 0.200(1) 0.240(1) 0.0338(3)
N3_8 N 0.1871(9) 0.293(1) 0.0305(2)
C40_8 C 0.172(1) 0.325(1) 0.0456(3)
C41_8 C 0.167(1) 0.301(1) 0.0643(3)
H31_8 H 0.1528 0.3225 0.0747
H32_8 H 0.1641 0.3630 0.0436
H33_8 H 0.2115 0.2178 0.0234
H34_8 H 0.2041 0.1810 0.0538
C42_8 C 0.1257(9) 0.213(1) 0.0962(3)
C43_8 C 0.0743(9) 0.226(1) 0.0850(3)
H35_8 H 0.0433 0.2157 0.0924
H36_8 H 0.0746 0.2071 0.0730
H37_8 H 0.0727 0.2646 0.0825
C44_8 C 0.282(1) 0.230(1) 0.0888(3)
H38_8 H 0.3109 0.2203 0.0976
H39_8 H 0.2841 0.2675 0.0859
H40_8 H 0.2867 0.2091 0.0772
C45_8 C 0.2782(9) 0.1806(9) 0.1279(3)
C46_8 C 0.2860(9) 0.1248(9) 0.1374(2)
C47_8 C 0.2793(8) 0.0776(9) 0.1274(2)
C48_8 C 0.2867(9) 0.0282(9) 0.1359(3)
C49_8 C 0.3055(9) 0.0240(8) 0.1557(2)
C50_8 C 0.3140(9) 0.070(1) 0.1653(2)
C51_8 C 0.3390(9) 0.068(1) 0.1859(2)
C52_8 C 0.394(1) 0.081(1) 0.1888(3)
C53_8 C 0.416(1) 0.0800(9) 0.2077(3)
C54_8 C 0.330(1) 0.053(1) 0.2206(3)
C55_8 C 0.306(1) 0.053(1) 0.2019(3)
H41_8 H 0.2692 0.0436 0.2001
H42_8 H 0.3073 0.0452 0.2316
H43_8 H 0.4534 0.0905 0.2096
H44_8 H 0.4165 0.0905 0.1780
C56_8 C 0.303(1) 0.1233(9) 0.1572(3)
C57_8 C 0.315(1) 0.1771(9) 0.1689(3)
H45_8 H 0.3048 0.2078 0.1612
H46_8 H 0.2939 0.1770 0.1805
H47_8 H 0.3526 0.1791 0.1720
C59_8 C 0.2670(8) 0.079(1) 0.1058(3)
H52_8 H 0.2628 0.1160 0.1018
H53_8 H 0.2964 0.0627 0.0989
H54_8 H 0.2342 0.0595 0.1033
H55_8 H 0.3075 0.1853 0.1189
H56_8 H 0.2809 0.2072 0.1379
C60_8 C 0.172(1) 0.164(1) 0.1470(2)
H57_8 H 0.2082 0.1600 0.1517
H58_8 H 0.1529 0.1306 0.1480
H59_8 H 0.1535 0.1914 0.1545
H60_8 H 0.0653 0.2077 0.1347
C6_8 C 0.1700(9) 0.834(1) 0.0423(3)
C7_8 C 0.169(1) 0.856(1) 0.0612(3)
C8_8 C 0.182(1) 0.9110(9) 0.0641(2)
C9_8 C 0.197(1) 0.944(1) 0.0481(3)
C10_8 C 0.197(1) 0.920(1) 0.0294(3)
C17_8 C 0.020(1) 0.968(1) 0.1612(3)
C21_8 C 0.0694(9) 0.9718(9) 0.1221(3)
C22_8 C 0.1724(9) 0.9707(8) 0.1226(2)
C23_8 C 0.2218(9) 0.9633(9) 0.1141(3)
C24_8 C 0.2260(8) 0.9445(9) 0.0943(2)
C25_8 C 0.180(1) 0.9360(9) 0.0847(2)
C26_8 C 0.1267(9) 0.947(1) 0.0928(3)
C27_8 C 0.1252(9) 0.9640(9) 0.1126(2)
C28_8 C 0.2750 0.975(1) 0.1250
C29_8 C 0.280(1) 0.931(1) 0.0848(3)
C30_8 C 0.0729(9) 0.935(1) 0.0811(3)
C31_8 C 0.171(1) 0.9830(8) 0.1442(3)
H5_8 H 0.1595 0.7966 0.0404
H6_8 H 0.1595 0.8335 0.0720
H7_8 H 0.2064 0.9808 0.0499
H8_8 H 0.2048 0.9427 0.0184
H9_8 H 0.0297 0.9391 0.1524
H11_8 H 0.0409 0.9633 0.1728
H19_8 H 0.0647 0.9425 0.1311
H20_8 H 0.0428 0.9691 0.1121
H21_8 H 0.3091 0.9400 0.0935
H22_8 H 0.2814 0.8936 0.0817
H23_8 H 0.2838 0.9524 0.0733
H24_8 H 0.0422 0.9452 0.0888
H25_8 H 0.0730 0.9561 0.0695
H26_8 H 0.0709 0.8974 0.0780
H27_8 H 0.1340 0.9872 0.1482
H28_8 H 0.1873 0.9536 0.1511
H30_8 H 0.3034 0.9716 0.1156
C58_8 C 0.319(1) 0.970(1) 0.1652(3)
H48_8 H 0.3100 0.9409 0.1565
H49_8 H 0.3564 0.9686 0.1683
H50_8 H 0.2976 0.9662 0.1767
H51_8 H 0.2784 0.9466 0.1344
N1_8 N 0.957(1) 0.0629(9) 0.2195(2)
C4_8 C 0.949(1) 0.083(1) 0.1857(3)
C5_8 C 0.925(1) 0.078(1) 0.2044(3)
H3_8 H 0.9275 0.0972 0.1753
H4_8 H 0.8870 0.0859 0.2064
H17_8 H 0.9854 0.1773 0.1675
Ag1_5 Ag 0.31293(8) 0.1703(1) 0.49829(2)
N1_9 N 0.3129(9) 0.207(1) 0.4695(2)
C1_9 C 0.300(1) 0.260(1) 0.4662(3)
C2_9 C 0.304(1) 0.281(1) 0.4479(3)
C3_9 C 0.3184(9) 0.2521(9) 0.4322(2)
C4_9 C 0.333(1) 0.199(1) 0.4357(3)
C5_9 C 0.328(1) 0.175(1) 0.4544(3)
N2_5 N 0.1137(9) 0.4369(9) 0.2770(2)
C6_9 C 0.084(1) 0.4200(9) 0.2923(3)
C7_9 C 0.106(1) 0.419(1) 0.3112(3)
C8_9 C 0.1610(9) 0.432(1) 0.3141(2)
C9_9 C 0.194(1) 0.447(1) 0.2981(3)
C10_9 C 0.170(1) 0.447(1) 0.2794(3)
C11_9 C 0.3229(9) 0.274(1) 0.4120(3)
C12_9 C 0.2727(9) 0.284(1) 0.4020(3)
C13_9 C 0.274(1) 0.308(1) 0.3832(3)
C14_9 C 0.3262(9) 0.3176(8) 0.3745(2)
C15_9 C 0.3762(9) 0.308(1) 0.3848(3)
C16_9 C 0.3743(9) 0.287(1) 0.4038(3)
C17_9 C 0.218(1) 0.270(1) 0.4112(3)
C18_9 C 0.328(1) 0.336(1) 0.3530(2)
C19_9 C 0.4257(9) 0.274(1) 0.4150(3)
C20_9 C 0.430(1) 0.3197 0.3750
C21_9 C 0.2218(9) 0.3194(9) 0.3721(3)
C22_9 C 0.2207(8) 0.4224(9) 0.3726(2)
C23_9 C 0.2133(9) 0.4718(9) 0.3641(3)
C24_9 C 0.1945(9) 0.4760(8) 0.3443(2)
C25_9 C 0.1860(9) 0.430(1) 0.3347(2)
C26_9 C 0.197(1) 0.3767(9) 0.3428(3)
C27_9 C 0.2140(9) 0.3752(9) 0.3626(2)
C28_9 C 0.225(1) 0.5250 0.3750
C29_9 C 0.181(1) 0.530(1) 0.3348(3)
C30_9 C 0.185(1) 0.3229(9) 0.3311(3)
C31_9 C 0.2330(8) 0.421(1) 0.3942(3)
H1_9 H 0.2885 0.2822 0.4766
H2_9 H 0.2959 0.3190 0.4462
H3_9 H 0.3472 0.1775 0.4253
H4_9 H 0.3359 0.1370 0.4564
H5_9 H 0.0466 0.4095 0.2904
H6_9 H 0.0835 0.4095 0.3220
H7_9 H 0.2308 0.4564 0.2999
H8_9 H 0.1927 0.4548 0.2684
H9_9 H 0.1891 0.2797 0.4024
H10_7 H 0.2159 0.2325 0.4141
H11_9 H 0.2133 0.2909 0.4228
H12_9 H 0.2918 0.3400 0.3483
H13_9 H 0.3471 0.3694 0.3520
H14_9 H 0.3465 0.3086 0.3455
H15_9 H 0.4567 0.2843 0.4076
H16_9 H 0.4254 0.2929 0.4270
H17_9 H 0.4273 0.2354 0.4175
H18_9 H 0.4347 0.2923 0.3653
H19_9 H 0.1925 0.3147 0.3811
H20_9 H 0.2191 0.2928 0.3621
H21_9 H 0.1900 0.5591 0.3435
H22_9 H 0.1436 0.5314 0.3317
H23_9 H 0.2024 0.5338 0.3233
H24_9 H 0.1952 0.2922 0.3388
H25_9 H 0.2061 0.3230 0.3195
H26_9 H 0.1474 0.3209 0.3280
H27_9 H 0.2372 0.3840 0.3982
H28_9 H 0.2036 0.4373 0.4011
H29_9 H 0.2658 0.4405 0.3967
H30_9 H 0.2216 0.5534 0.3656
C32_9 C 0.442(1) 0.3738(9) 0.3652(3)
C33_9 C 0.4324(8) 0.4238(9) 0.3755(2)
C34_9 C 0.442(1) 0.476(1) 0.3668(3)
C35_9 C 0.466(1) 0.4773(9) 0.3480(3)
C36_9 C 0.476(1) 0.4271(9) 0.3380(3)
C37_9 C 0.4979(9) 0.4316(9) 0.3178(2)
C38_9 C 0.469(1) 0.446(1) 0.3021(3)
C39_9 C 0.490(1) 0.450(1) 0.2838(3)
N3_9 N 0.543(1) 0.4371(9) 0.2805(2)
C40_9 C 0.575(1) 0.422(1) 0.2956(3)
C41_9 C 0.551(1) 0.417(1) 0.3143(3)
H31_9 H 0.5725 0.4028 0.3247
H32_9 H 0.6130 0.4141 0.2936
H33_9 H 0.4678 0.4615 0.2734
H34_9 H 0.4310 0.4541 0.3038
C42_9 C 0.463(1) 0.3757(9) 0.3462(3)
C43_9 C 0.476(1) 0.3243(9) 0.3350(3)
H35_9 H 0.4657 0.2933 0.3424
H36_9 H 0.4571 0.3246 0.3230
H37_9 H 0.5146 0.3227 0.3325
C44_9 C 0.480(1) 0.532(1) 0.3388(3)
H38_9 H 0.4703 0.5609 0.3476
H39_9 H 0.5175 0.5341 0.3359
H40_9 H 0.4591 0.5367 0.3272
C45_9 C 0.4306(9) 0.5282(9) 0.3779(3)
C46_9 C 0.3748(9) 0.5360(9) 0.3874(2)
C47_9 C 0.3276(9) 0.5293(8) 0.3774(2)
C48_9 C 0.2782(9) 0.5367(9) 0.3859(3)
C49_9 C 0.2740(8) 0.5555(9) 0.4057(2)
C50_9 C 0.320(1) 0.5640(9) 0.4153(2)
C51_9 C 0.318(1) 0.5890(9) 0.4359(2)
C52_9 C 0.331(1) 0.644(1) 0.4388(3)
C53_9 C 0.3300(9) 0.666(1) 0.4577(3)
N4_5 N 0.3131(9) 0.6363(9) 0.4730(2)
C54_9 C 0.303(1) 0.580(1) 0.4706(3)
C55_9 C 0.303(1) 0.556(1) 0.4519(3)
H41_9 H 0.2936 0.5192 0.4501
H42_9 H 0.2952 0.5573 0.4816
H43_9 H 0.3405 0.7034 0.4596
H44_9 H 0.3405 0.6665 0.4280
C56_9 C 0.3733(9) 0.553(1) 0.4072(3)
C57_9 C 0.4271(9) 0.565(1) 0.4189(3)
H45_9 H 0.4578 0.5548 0.4112
H46_9 H 0.4270 0.5439 0.4305
H47_9 H 0.4291 0.6026 0.4220
C58_9 C 0.220(1) 0.569(1) 0.4152(3)
H48_9 H 0.1909 0.5600 0.4065
H49_9 H 0.2186 0.6064 0.4183
H50_9 H 0.2162 0.5476 0.4267
H51_9 H 0.1966 0.5284 0.3844
C59_9 C 0.329(1) 0.5170(8) 0.3558(3)
H52_9 H 0.3660 0.5128 0.3518
H53_9 H 0.3127 0.5464 0.3489
H54_9 H 0.3095 0.4842 0.3533
H55_9 H 0.4353 0.5575 0.3689
H56_9 H 0.4572 0.5309 0.3879
C60_9 C 0.414(1) 0.422(1) 0.3970(2)
H57_9 H 0.4100 0.4582 0.4017
H58_9 H 0.3806 0.4029 0.3980
H59_9 H 0.4414 0.4035 0.4045
H60_9 H 0.4577 0.3153 0.3847
Ag2_5 Ag 0.5797(1) 0.43707(8) 0.25171(2)
N5_5 N 0.3131(9) 0.1363(9) 0.5270(2)
Ag3_5 Ag 0.0797(1) 0.43707(8) 0.24829(2)
Ag4_5 Ag 0.31293(8) 0.6703(1) 0.50171(2)
N6_5 N 0.6137(9) 0.4369(9) 0.2230(2)
Ag1_6 Ag 0.0797(1) 0.93707(8) 0.75171(2)
N1_10 N 0.043(1) 0.9371(9) 0.7805(2)
C4_10 C 0.051(1) 0.917(1) 0.8143(3)
C5_10 C 0.075(1) 0.922(1) 0.7956(3)
H3_10 H 0.0725 0.9028 0.8247
H4_10 H 0.1130 0.9141 0.7936
H17_10 H 0.0146 0.8227 0.8325
N5_6 N 0.1137(9) 0.9369(9) 0.7230(2)
Ag3_6 Ag 0.81293(8) 0.1703(1) 0.00171(2)
N2_6 N 0.8131(9) 0.1363(9) 0.9730(2)
C6_10 C 0.8300(9) 0.166(1) 0.9577(3)
C7_10 C 0.831(1) 0.144(1) 0.9388(3)
C8_10 C 0.818(1) 0.0890(9) 0.9359(2)
C9_10 C 0.803(1) 0.056(1) 0.9519(3)
C10_10 C 0.803(1) 0.080(1) 0.9706(3)
C17_10 C 0.980(1) 0.032(1) 0.8388(3)
C21_10 C 0.9306(9) 0.0282(9) 0.8779(3)
C22_10 C 0.8276(9) 0.0293(8) 0.8774(2)
C23_10 C 0.7782(9) 0.0367(9) 0.8859(3)
C24_10 C 0.7740(8) 0.0555(9) 0.9057(2)
C25_10 C 0.820(1) 0.0640(9) 0.9153(2)
C26_10 C 0.8733(9) 0.053(1) 0.9072(3)
C27_10 C 0.8748(9) 0.0360(9) 0.8874(2)
C28_10 C 0.7250 0.025(1) 0.8750
C29_10 C 0.720(1) 0.069(1) 0.9152(3)
C30_10 C 0.9271(9) 0.065(1) 0.9189(3)
C31_10 C 0.829(1) 0.0170(8) 0.8558(3)
H5_10 H 0.8405 0.2034 0.9596
H6_10 H 0.8405 0.1665 0.9280
H7_10 H 0.7936 0.0192 0.9501
H8_10 H 0.7952 0.0573 0.9816
H9_10 H 0.9703 0.0609 0.8476
H11_10 H 0.9591 0.0367 0.8272
H19_10 H 0.9353 0.0575 0.8689
H20_10 H 0.9572 0.0309 0.8879
H21_10 H 0.6909 0.0600 0.9065
H22_10 H 0.7186 0.1064 0.9183
H23_10 H 0.7162 0.0476 0.9267
H24_10 H 0.9578 0.0548 0.9112
H25_10 H 0.9270 0.0439 0.9305
H26_10 H 0.9291 0.1026 0.9220
H27_10 H 0.8660 0.0128 0.8518
H28_10 H 0.8127 0.0464 0.8489
H30_10 H 0.6966 0.0284 0.8844
C58_10 C 0.681(1) 0.030(1) 0.8348(3)
H48_10 H 0.6900 0.0591 0.8435
H49_10 H 0.6436 0.0314 0.8317
H50_10 H 0.7024 0.0338 0.8233
H51_10 H 0.7216 0.0534 0.8656
N6_6 N 0.8131(9) 0.6363(9) 0.0270(2)
C1_10 C 0.990(1) 0.950(1) 0.7838(3)
C2_10 C 0.969(1) 0.946(1) 0.8021(3)
C3_10 C 0.9979(9) 0.9316(9) 0.8178(2)
C11_10 C 0.976(1) 0.9271(9) 0.8380(3)
C12_10 C 0.966(1) 0.9773(9) 0.8480(3)
C13_10 C 0.942(1) 0.976(1) 0.8668(3)
C14_10 C 0.9324(8) 0.9238(9) 0.8755(2)
C15_10 C 0.942(1) 0.8738(9) 0.8652(3)
C16_10 C 0.963(1) 0.8757(9) 0.8462(3)
C18_10 C 0.914(1) 0.922(1) 0.8970(2)
C19_10 C 0.976(1) 0.8243(9) 0.8350(3)
C20_10 C 0.9303 0.820(1) 0.8750
H1_10 H 0.9678 0.9615 0.7734
H2_10 H 0.9310 0.9541 0.8038
H12_10 H 0.9100 0.9582 0.9017
H13_10 H 0.8806 0.9029 0.8980
H14_10 H 0.9414 0.9035 0.9045
H15_10 H 0.9657 0.7933 0.8424
H16_10 H 0.9571 0.8246 0.8230
H18_10 H 0.9577 0.8153 0.8847
H29_10 H 0.8095 0.9842 0.8533
C32_10 C 0.8762(9) 0.808(1) 0.8848(3)
C33_10 C 0.8262(9) 0.8176(8) 0.8745(2)
C34_10 C 0.774(1) 0.808(1) 0.8832(3)
C35_10 C 0.7727(9) 0.784(1) 0.9020(3)
C36_10 C 0.8229(9) 0.774(1) 0.9120(3)
C37_10 C 0.8184(9) 0.7521(9) 0.9322(2)
C38_10 C 0.804(1) 0.781(1) 0.9479(3)
C39_10 C 0.800(1) 0.760(1) 0.9662(3)
N3_10 N 0.8129(9) 0.707(1) 0.9695(2)
C40_10 C 0.828(1) 0.675(1) 0.9544(3)
C41_10 C 0.833(1) 0.699(1) 0.9357(3)
H31_10 H 0.8472 0.6775 0.9253
H32_10 H 0.8359 0.6370 0.9564
H33_10 H 0.7885 0.7822 0.9766
H34_10 H 0.7959 0.8190 0.9462
C42_10 C 0.8743(9) 0.787(1) 0.9038(3)
C43_10 C 0.9257(9) 0.774(1) 0.9150(3)
H35_10 H 0.9567 0.7843 0.9076
H36_10 H 0.9254 0.7929 0.9270
H37_10 H 0.9273 0.7354 0.9175
C44_10 C 0.718(1) 0.770(1) 0.9112(3)
H38_10 H 0.6891 0.7797 0.9024
H39_10 H 0.7159 0.7325 0.9141
H40_10 H 0.7133 0.7909 0.9228
C45_10 C 0.7218(9) 0.8194(9) 0.8721(3)
C46_10 C 0.7140(9) 0.8752(9) 0.8626(2)
C47_10 C 0.7207(8) 0.9224(9) 0.8726(2)
C48_10 C 0.7133(9) 0.9718(9) 0.8641(3)
C49_10 C 0.6945(9) 0.9760(8) 0.8443(2)
C50_10 C 0.6860(9) 0.930(1) 0.8347(2)
C51_10 C 0.6610(9) 0.932(1) 0.8141(2)
C52_10 C 0.606(1) 0.919(1) 0.8112(3)
C53_10 C 0.584(1) 0.9200(9) 0.7923(3)
N4_6 N 0.6137(9) 0.9369(9) 0.7770(2)
C54_10 C 0.670(1) 0.947(1) 0.7794(3)
C55_10 C 0.694(1) 0.947(1) 0.7981(3)
H41_10 H 0.7308 0.9564 0.7999
H42_10 H 0.6927 0.9548 0.7684
H43_10 H 0.5466 0.9095 0.7904
H44_10 H 0.5835 0.9095 0.8220
C56_10 C 0.697(1) 0.8767(9) 0.8428(3)
C57_10 C 0.685(1) 0.8229(9) 0.8311(3)
H45_10 H 0.6952 0.7922 0.8388
H46_10 H 0.7061 0.8230 0.8195
H47_10 H 0.6474 0.8209 0.8280
C59_10 C 0.7330(8) 0.921(1) 0.8942(3)
H52_10 H 0.7372 0.8840 0.8982
H53_10 H 0.7036 0.9373 0.9011
H54_10 H 0.7658 0.9405 0.8967
H55_10 H 0.6925 0.8147 0.8811
H56_10 H 0.7191 0.7928 0.8621
C60_10 C 0.828(1) 0.836(1) 0.8530(2)
H57_10 H 0.7918 0.8400 0.8483
H58_10 H 0.8471 0.8694 0.8520
H59_10 H 0.8465 0.8086 0.8455
H60_10 H 0.9347 0.7923 0.8653
Ag2_6 Ag 0.81293(8) 0.6703(1) 0.99829(2)
Ag4_6 Ag 0.5797(1) 0.93707(8) 0.74829(2)
C6_11 C 0.3300(9) 0.166(1) 0.5423(3)
C7_11 C 0.331(1) 0.144(1) 0.5612(3)
C8_11 C 0.318(1) 0.0890(9) 0.5641(2)
C9_11 C 0.303(1) 0.056(1) 0.5481(3)
C10_11 C 0.303(1) 0.080(1) 0.5294(3)
C17_11 C 0.480(1) 0.032(1) 0.6612(3)
C21_11 C 0.4306(9) 0.0282(9) 0.6221(3)
C22_11 C 0.3276(9) 0.0293(8) 0.6226(2)
C23_11 C 0.2782(9) 0.0367(9) 0.6141(3)
C24_11 C 0.2740(8) 0.0555(9) 0.5943(2)
C25_11 C 0.320(1) 0.0640(9) 0.5847(2)
C26_11 C 0.3733(9) 0.053(1) 0.5928(3)
C27_11 C 0.3748(9) 0.0360(9) 0.6126(2)
C28_11 C 0.2250 0.025(1) 0.6250
C29_11 C 0.220(1) 0.069(1) 0.5848(3)
C30_11 C 0.4271(9) 0.065(1) 0.5811(3)
C31_11 C 0.329(1) 0.0170(8) 0.6442(3)
H5_11 H 0.3405 0.2034 0.5404
H6_11 H 0.3405 0.1665 0.5720
H7_11 H 0.2936 0.0192 0.5499
H8_11 H 0.2952 0.0573 0.5184
H9_11 H 0.4703 0.0609 0.6524
H10_8 H 0.5175 0.0341 0.6641
H11_11 H 0.4591 0.0367 0.6728
H19_11 H 0.4353 0.0575 0.6311
H20_11 H 0.4572 0.0309 0.6121
H21_11 H 0.1909 0.0600 0.5935
H22_11 H 0.2186 0.1064 0.5817
H23_11 H 0.2162 0.0476 0.5733
H24_11 H 0.4578 0.0548 0.5888
H25_11 H 0.4270 0.0439 0.5695
H26_11 H 0.4291 0.1026 0.5780
H27_11 H 0.3660 0.0128 0.6482
H28_11 H 0.3127 0.0464 0.6511
H30_11 H 0.1966 0.0284 0.6156
C58_11 C 0.181(1) 0.030(1) 0.6652(3)
H48_11 H 0.1900 0.0591 0.6565
H49_11 H 0.1436 0.0314 0.6683
H50_11 H 0.2024 0.0338 0.6767
H51_11 H 0.2216 0.0534 0.6344
N1_11 N 0.543(1) 0.9371(9) 0.7195(2)
C1_11 C 0.490(1) 0.950(1) 0.7162(3)
C2_11 C 0.469(1) 0.946(1) 0.6979(3)
C3_11 C 0.4979(9) 0.9316(9) 0.6822(2)
C4_11 C 0.551(1) 0.917(1) 0.6857(3)
C5_11 C 0.575(1) 0.922(1) 0.7044(3)
C11_11 C 0.476(1) 0.9271(9) 0.6620(3)
C12_11 C 0.466(1) 0.9773(9) 0.6520(3)
C13_11 C 0.442(1) 0.976(1) 0.6332(3)
C14_11 C 0.4324(8) 0.9238(9) 0.6245(2)
C15_11 C 0.442(1) 0.8738(9) 0.6348(3)
C16_11 C 0.463(1) 0.8757(9) 0.6538(3)
C18_11 C 0.414(1) 0.922(1) 0.6030(2)
C19_11 C 0.476(1) 0.8243(9) 0.6650(3)
C20_11 C 0.4303 0.820(1) 0.6250
H1_11 H 0.4678 0.9615 0.7266
H2_11 H 0.4310 0.9541 0.6962
H3_11 H 0.5725 0.9028 0.6753
H4_11 H 0.6130 0.9141 0.7064
H12_11 H 0.4100 0.9582 0.5983
H13_11 H 0.3806 0.9029 0.6020
H14_11 H 0.4414 0.9035 0.5955
H15_11 H 0.4657 0.7933 0.6576
H16_11 H 0.4571 0.8246 0.6770
H17_11 H 0.5146 0.8227 0.6675
H18_11 H 0.4577 0.8153 0.6153
H29_11 H 0.3095 0.9842 0.6467
C32_11 C 0.3762(9) 0.808(1) 0.6152(3)
C33_11 C 0.3262(9) 0.8176(8) 0.6255(2)
C34_11 C 0.274(1) 0.808(1) 0.6168(3)
C35_11 C 0.2727(9) 0.784(1) 0.5980(3)
C36_11 C 0.3229(9) 0.774(1) 0.5880(3)
C37_11 C 0.3184(9) 0.7521(9) 0.5678(2)
C38_11 C 0.304(1) 0.781(1) 0.5521(3)
C39_11 C 0.300(1) 0.760(1) 0.5338(3)
N3_11 N 0.3129(9) 0.707(1) 0.5305(2)
C40_11 C 0.328(1) 0.675(1) 0.5456(3)
C41_11 C 0.333(1) 0.699(1) 0.5643(3)
H31_11 H 0.3472 0.6775 0.5747
H32_11 H 0.3359 0.6370 0.5436
H33_11 H 0.2885 0.7822 0.5234
H34_11 H 0.2959 0.8190 0.5538
C42_11 C 0.3743(9) 0.787(1) 0.5962(3)
C43_11 C 0.4257(9) 0.774(1) 0.5850(3)
H35_11 H 0.4567 0.7843 0.5924
H36_11 H 0.4254 0.7929 0.5730
H37_11 H 0.4273 0.7354 0.5825
C44_11 C 0.218(1) 0.770(1) 0.5888(3)
H38_11 H 0.1891 0.7797 0.5976
H39_11 H 0.2159 0.7325 0.5859
H40_11 H 0.2133 0.7909 0.5772
C45_11 C 0.2218(9) 0.8194(9) 0.6279(3)
C46_11 C 0.2140(9) 0.8752(9) 0.6374(2)
C47_11 C 0.2207(8) 0.9224(9) 0.6274(2)
C48_11 C 0.2133(9) 0.9718(9) 0.6359(3)
C49_11 C 0.1945(9) 0.9760(8) 0.6557(2)
C50_11 C 0.1860(9) 0.930(1) 0.6653(2)
C51_11 C 0.1610(9) 0.932(1) 0.6859(2)
C52_11 C 0.106(1) 0.919(1) 0.6888(3)
C53_11 C 0.084(1) 0.9200(9) 0.7077(3)
C54_11 C 0.170(1) 0.947(1) 0.7206(3)
C55_11 C 0.194(1) 0.947(1) 0.7019(3)
H41_11 H 0.2308 0.9564 0.7001
H42_11 H 0.1927 0.9548 0.7316
H43_11 H 0.0466 0.9095 0.7096
H44_11 H 0.0835 0.9095 0.6780
C56_11 C 0.197(1) 0.8767(9) 0.6572(3)
C57_11 C 0.185(1) 0.8229(9) 0.6689(3)
H45_11 H 0.1952 0.7922 0.6612
H46_11 H 0.2061 0.8230 0.6805
H47_11 H 0.1474 0.8209 0.6720
C59_11 C 0.2330(8) 0.921(1) 0.6058(3)
H52_11 H 0.2372 0.8840 0.6018
H53_11 H 0.2036 0.9373 0.5989
H54_11 H 0.2658 0.9405 0.6033
H55_11 H 0.1925 0.8147 0.6189
H56_11 H 0.2191 0.7928 0.6379
C60_11 C 0.328(1) 0.836(1) 0.6470(2)
H57_11 H 0.2918 0.8400 0.6517
H58_11 H 0.3471 0.8694 0.6480
H59_11 H 0.3465 0.8086 0.6545
H60_11 H 0.4347 0.7923 0.6347
N3_12 N 0.043(1) 0.4371(9) 0.2195(2)
C40_12 C 0.075(1) 0.422(1) 0.2044(3)
C41_12 C 0.051(1) 0.417(1) 0.1857(3)
H31_12 H 0.0725 0.4028 0.1753
H32_12 H 0.1130 0.4141 0.2064
H37_12 H 0.0146 0.3227 0.1675
H39_12 H 0.0175 0.5341 0.1641
N1_12 N 0.8129(9) 0.207(1) 0.0305(2)
C1_12 C 0.800(1) 0.260(1) 0.0338(3)
C2_12 C 0.804(1) 0.281(1) 0.0521(3)
C3_12 C 0.8184(9) 0.2521(9) 0.0678(2)
C4_12 C 0.833(1) 0.199(1) 0.0643(3)
C5_12 C 0.828(1) 0.175(1) 0.0456(3)
C6_12 C 0.584(1) 0.4200(9) 0.2077(3)
C7_12 C 0.606(1) 0.419(1) 0.1888(3)
C8_12 C 0.6610(9) 0.432(1) 0.1859(2)
C9_12 C 0.694(1) 0.447(1) 0.2019(3)
C10_12 C 0.670(1) 0.447(1) 0.2206(3)
C11_12 C 0.8229(9) 0.274(1) 0.0880(3)
C12_12 C 0.7727(9) 0.284(1) 0.0980(3)
C13_12 C 0.774(1) 0.308(1) 0.1168(3)
C14_12 C 0.8262(9) 0.3176(8) 0.1255(2)
C15_12 C 0.8762(9) 0.308(1) 0.1152(3)
C16_12 C 0.8743(9) 0.287(1) 0.0962(3)
C17_12 C 0.718(1) 0.270(1) 0.0888(3)
C18_12 C 0.828(1) 0.336(1) 0.1470(2)
C19_12 C 0.9257(9) 0.274(1) 0.0850(3)
C20_12 C 0.930(1) 0.3197 0.1250
C21_12 C 0.7218(9) 0.3194(9) 0.1279(3)
C22_12 C 0.7207(8) 0.4224(9) 0.1274(2)
C23_12 C 0.7133(9) 0.4718(9) 0.1359(3)
C24_12 C 0.6945(9) 0.4760(8) 0.1557(2)
C25_12 C 0.6860(9) 0.430(1) 0.1653(2)
C26_12 C 0.697(1) 0.3767(9) 0.1572(3)
C27_12 C 0.7140(9) 0.3752(9) 0.1374(2)
C28_12 C 0.725(1) 0.5250 0.1250
C29_12 C 0.681(1) 0.530(1) 0.1652(3)
C30_12 C 0.685(1) 0.3229(9) 0.1689(3)
C31_12 C 0.7330(8) 0.421(1) 0.1058(3)
H1_12 H 0.7885 0.2822 0.0234
H2_12 H 0.7959 0.3190 0.0538
H3_12 H 0.8472 0.1775 0.0747
H4_12 H 0.8359 0.1370 0.0436
H5_12 H 0.5466 0.4095 0.2096
H6_12 H 0.5835 0.4095 0.1780
H7_12 H 0.7308 0.4564 0.2001
H8_12 H 0.6927 0.4548 0.2316
H9_12 H 0.6891 0.2797 0.0976
H10_9 H 0.7159 0.2325 0.0859
H11_12 H 0.7133 0.2909 0.0772
H12_12 H 0.7918 0.3400 0.1517
H13_12 H 0.8471 0.3694 0.1480
H14_12 H 0.8465 0.3086 0.1545
H15_12 H 0.9567 0.2843 0.0924
H16_12 H 0.9254 0.2929 0.0730
H17_12 H 0.9273 0.2354 0.0825
H18_12 H 0.9347 0.2923 0.1347
H19_12 H 0.6925 0.3147 0.1189
H20_12 H 0.7191 0.2928 0.1379
H21_12 H 0.6900 0.5591 0.1565
H22_12 H 0.6436 0.5314 0.1683
H23_12 H 0.7024 0.5338 0.1767
H24_12 H 0.6952 0.2922 0.1612
H25_12 H 0.7061 0.3230 0.1805
H26_12 H 0.6474 0.3209 0.1720
H27_12 H 0.7372 0.3840 0.1018
H28_12 H 0.7036 0.4373 0.0989
H29_12 H 0.7658 0.4405 0.1033
H30_12 H 0.7216 0.5534 0.1344
C32_12 C 0.942(1) 0.3738(9) 0.1348(3)
C33_12 C 0.9324(8) 0.4238(9) 0.1245(2)
C34_12 C 0.942(1) 0.476(1) 0.1332(3)
C35_12 C 0.966(1) 0.4773(9) 0.1520(3)
C36_12 C 0.976(1) 0.4271(9) 0.1620(3)
C37_12 C 0.9979(9) 0.4316(9) 0.1822(2)
C38_12 C 0.969(1) 0.446(1) 0.1979(3)
C39_12 C 0.990(1) 0.450(1) 0.2162(3)
H33_12 H 0.9678 0.4615 0.2266
H34_12 H 0.9310 0.4541 0.1962
C42_12 C 0.963(1) 0.3757(9) 0.1538(3)
C43_12 C 0.976(1) 0.3243(9) 0.1650(3)
H35_12 H 0.9657 0.2933 0.1576
H36_12 H 0.9571 0.3246 0.1770
C44_12 C 0.980(1) 0.532(1) 0.1612(3)
H38_12 H 0.9703 0.5609 0.1524
H40_12 H 0.9591 0.5367 0.1728
C45_12 C 0.9306(9) 0.5282(9) 0.1221(3)
C46_12 C 0.8748(9) 0.5360(9) 0.1126(2)
C47_12 C 0.8276(9) 0.5293(8) 0.1226(2)
C48_12 C 0.7782(9) 0.5367(9) 0.1141(3)
C49_12 C 0.7740(8) 0.5555(9) 0.0943(2)
C50_12 C 0.820(1) 0.5640(9) 0.0847(2)
C51_12 C 0.818(1) 0.5890(9) 0.0641(2)
C52_12 C 0.831(1) 0.644(1) 0.0612(3)
C53_12 C 0.8300(9) 0.666(1) 0.0423(3)
C54_12 C 0.803(1) 0.580(1) 0.0294(3)
C55_12 C 0.803(1) 0.556(1) 0.0481(3)
H41_12 H 0.7936 0.5192 0.0499
H42_12 H 0.7952 0.5573 0.0184
H43_12 H 0.8405 0.7034 0.0404
H44_12 H 0.8405 0.6665 0.0720
C56_12 C 0.8733(9) 0.553(1) 0.0928(3)
C57_12 C 0.9271(9) 0.565(1) 0.0811(3)
H45_12 H 0.9578 0.5548 0.0888
H46_12 H 0.9270 0.5439 0.0695
H47_12 H 0.9291 0.6026 0.0780
C58_12 C 0.720(1) 0.569(1) 0.0848(3)
H48_12 H 0.6909 0.5600 0.0935
H49_12 H 0.7186 0.6064 0.0817
H50_12 H 0.7162 0.5476 0.0733
H51_12 H 0.6966 0.5284 0.1156
C59_12 C 0.829(1) 0.5170(8) 0.1442(3)
H52_12 H 0.8660 0.5128 0.1482
H53_12 H 0.8127 0.5464 0.1511
H54_12 H 0.8095 0.4842 0.1467
H55_12 H 0.9353 0.5575 0.1311
H56_12 H 0.9572 0.5309 0.1121
C60_12 C 0.914(1) 0.422(1) 0.1030(2)
H57_12 H 0.9100 0.4582 0.0983
H58_12 H 0.8806 0.4029 0.1020
H59_12 H 0.9414 0.4035 0.0955
H60_12 H 0.9577 0.3153 0.1153
Ag1_7 Ag 0.18707(8) 0.1703(1) 0.50171(2)
N1_13 N 0.1871(9) 0.207(1) 0.5305(2)
C1_13 C 0.200(1) 0.260(1) 0.5338(3)
C2_13 C 0.196(1) 0.281(1) 0.5521(3)
C3_13 C 0.1816(9) 0.2521(9) 0.5678(2)
C4_13 C 0.167(1) 0.199(1) 0.5643(3)
C5_13 C 0.172(1) 0.175(1) 0.5456(3)
N2_7 N 0.3863(9) 0.4369(9) 0.7230(2)
C6_13 C 0.416(1) 0.4200(9) 0.7077(3)
C7_13 C 0.394(1) 0.419(1) 0.6888(3)
C8_13 C 0.3390(9) 0.432(1) 0.6859(2)
C9_13 C 0.306(1) 0.447(1) 0.7019(3)
C10_13 C 0.330(1) 0.447(1) 0.7206(3)
C11_13 C 0.1771(9) 0.274(1) 0.5880(3)
C12_13 C 0.2273(9) 0.284(1) 0.5980(3)
C13_13 C 0.226(1) 0.308(1) 0.6168(3)
C14_13 C 0.1738(9) 0.3176(8) 0.6255(2)
C15_13 C 0.1238(9) 0.308(1) 0.6152(3)
C16_13 C 0.1257(9) 0.287(1) 0.5962(3)
C17_13 C 0.282(1) 0.270(1) 0.5888(3)
C18_13 C 0.172(1) 0.336(1) 0.6470(2)
C19_13 C 0.0743(9) 0.274(1) 0.5850(3)
C20_13 C 0.070(1) 0.3197 0.6250
C21_13 C 0.2782(9) 0.3194(9) 0.6279(3)
C22_13 C 0.2793(8) 0.4224(9) 0.6274(2)
C23_13 C 0.2867(9) 0.4718(9) 0.6359(3)
C24_13 C 0.3055(9) 0.4760(8) 0.6557(2)
C25_13 C 0.3140(9) 0.430(1) 0.6653(2)
C26_13 C 0.303(1) 0.3767(9) 0.6572(3)
C27_13 C 0.2860(9) 0.3752(9) 0.6374(2)
C28_13 C 0.275(1) 0.5250 0.6250
C29_13 C 0.319(1) 0.530(1) 0.6652(3)
C30_13 C 0.315(1) 0.3229(9) 0.6689(3)
C31_13 C 0.2670(8) 0.421(1) 0.6058(3)
H1_13 H 0.2115 0.2822 0.5234
H2_13 H 0.2041 0.3190 0.5538
H3_13 H 0.1528 0.1775 0.5747
H4_13 H 0.1641 0.1370 0.5436
H5_13 H 0.4534 0.4095 0.7096
H6_13 H 0.4165 0.4095 0.6780
H7_13 H 0.2692 0.4564 0.7001
H8_13 H 0.3073 0.4548 0.7316
H9_13 H 0.3109 0.2797 0.5976
H10_10 H 0.2841 0.2325 0.5859
H11_13 H 0.2867 0.2909 0.5772
H12_13 H 0.2082 0.3400 0.6517
H13_13 H 0.1529 0.3694 0.6480
H14_13 H 0.1535 0.3086 0.6545
H15_13 H 0.0433 0.2843 0.5924
H16_13 H 0.0746 0.2929 0.5730
H17_13 H 0.0727 0.2354 0.5825
H18_13 H 0.0653 0.2923 0.6347
H19_13 H 0.3075 0.3147 0.6189
H20_13 H 0.2809 0.2928 0.6379
H21_13 H 0.3100 0.5591 0.6565
H22_13 H 0.3564 0.5314 0.6683
H23_13 H 0.2976 0.5338 0.6767
H24_13 H 0.3048 0.2922 0.6612
H25_13 H 0.2939 0.3230 0.6805
H26_13 H 0.3526 0.3209 0.6720
H27_13 H 0.2628 0.3840 0.6018
H28_13 H 0.2964 0.4373 0.5989
H29_13 H 0.2342 0.4405 0.6033
H30_13 H 0.2784 0.5534 0.6344
C32_13 C 0.058(1) 0.3738(9) 0.6348(3)
C33_13 C 0.0676(8) 0.4238(9) 0.6245(2)
C34_13 C 0.058(1) 0.476(1) 0.6332(3)
C35_13 C 0.034(1) 0.4773(9) 0.6520(3)
C36_13 C 0.024(1) 0.4271(9) 0.6620(3)
C37_13 C 0.0021(9) 0.4316(9) 0.6822(2)
C38_13 C 0.031(1) 0.446(1) 0.6979(3)
C39_13 C 0.010(1) 0.450(1) 0.7162(3)
H33_13 H 0.0322 0.4615 0.7266
H34_13 H 0.0690 0.4541 0.6962
C42_13 C 0.037(1) 0.3757(9) 0.6538(3)
C43_13 C 0.024(1) 0.3243(9) 0.6650(3)
H35_13 H 0.0343 0.2933 0.6576
H36_13 H 0.0429 0.3246 0.6770
C44_13 C 0.020(1) 0.532(1) 0.6612(3)
H38_13 H 0.0297 0.5609 0.6524
H40_13 H 0.0409 0.5367 0.6728
C45_13 C 0.0694(9) 0.5282(9) 0.6221(3)
C46_13 C 0.1252(9) 0.5360(9) 0.6126(2)
C47_13 C 0.1724(9) 0.5293(8) 0.6226(2)
C48_13 C 0.2218(9) 0.5367(9) 0.6141(3)
C49_13 C 0.2260(8) 0.5555(9) 0.5943(2)
C50_13 C 0.180(1) 0.5640(9) 0.5847(2)
C51_13 C 0.182(1) 0.5890(9) 0.5641(2)
C52_13 C 0.169(1) 0.644(1) 0.5612(3)
C53_13 C 0.1700(9) 0.666(1) 0.5423(3)
N4_7 N 0.1869(9) 0.6363(9) 0.5270(2)
C54_13 C 0.197(1) 0.580(1) 0.5294(3)
C55_13 C 0.197(1) 0.556(1) 0.5481(3)
H41_13 H 0.2064 0.5192 0.5499
H42_13 H 0.2048 0.5573 0.5184
H43_13 H 0.1595 0.7034 0.5404
H44_13 H 0.1595 0.6665 0.5720
C56_13 C 0.1267(9) 0.553(1) 0.5928(3)
C57_13 C 0.0729(9) 0.565(1) 0.5811(3)
H45_13 H 0.0422 0.5548 0.5888
H46_13 H 0.0730 0.5439 0.5695
H47_13 H 0.0709 0.6026 0.5780
C58_13 C 0.280(1) 0.569(1) 0.5848(3)
H48_13 H 0.3091 0.5600 0.5935
H49_13 H 0.2814 0.6064 0.5817
H50_13 H 0.2838 0.5476 0.5733
H51_13 H 0.3034 0.5284 0.6156
C59_13 C 0.171(1) 0.5170(8) 0.6442(3)
H52_13 H 0.1340 0.5128 0.6482
H53_13 H 0.1873 0.5464 0.6511
H54_13 H 0.1905 0.4842 0.6467
H55_13 H 0.0647 0.5575 0.6311
H56_13 H 0.0428 0.5309 0.6121
C60_13 C 0.086(1) 0.422(1) 0.6030(2)
H57_13 H 0.0900 0.4582 0.5983
H58_13 H 0.1194 0.4029 0.6020
H59_13 H 0.0586 0.4035 0.5955
H60_13 H 0.0423 0.3153 0.6153
N5_7 N 0.1869(9) 0.1363(9) 0.4730(2)
Ag3_7 Ag 0.4203(1) 0.43707(8) 0.75171(2)
Ag4_7 Ag 0.18707(8) 0.6703(1) 0.49829(2)
N3_13 N 0.957(1) 0.4371(9) 0.7195(2)
C40_13 C 0.925(1) 0.422(1) 0.7044(3)
C41_13 C 0.949(1) 0.417(1) 0.6857(3)
H31_13 H 0.9275 0.4028 0.6753
H32_13 H 0.8870 0.4141 0.7064
H37_13 H 0.9854 0.3227 0.6675
H39_13 H 0.9825 0.5341 0.6641
Ag2_7 Ag 0.9203(1) 0.43707(8) 0.74829(2)
N6_7 N 0.8863(9) 0.4369(9) 0.7770(2)
N2_8 N 0.6869(9) 0.1363(9) 0.0270(2)
C6_14 C 0.6700(9) 0.166(1) 0.0423(3)
C7_14 C 0.669(1) 0.144(1) 0.0612(3)
C8_14 C 0.682(1) 0.0890(9) 0.0641(2)
C9_14 C 0.697(1) 0.056(1) 0.0481(3)
C10_14 C 0.697(1) 0.080(1) 0.0294(3)
C17_14 C 0.520(1) 0.032(1) 0.1612(3)
C21_14 C 0.5694(9) 0.0282(9) 0.1221(3)
C22_14 C 0.6724(9) 0.0293(8) 0.1226(2)
C23_14 C 0.7218(9) 0.0367(9) 0.1141(3)
C24_14 C 0.7260(8) 0.0555(9) 0.0943(2)
C25_14 C 0.680(1) 0.0640(9) 0.0847(2)
C26_14 C 0.6267(9) 0.053(1) 0.0928(3)
C27_14 C 0.6252(9) 0.0360(9) 0.1126(2)
C28_14 C 0.7750 0.025(1) 0.1250
C29_14 C 0.780(1) 0.069(1) 0.0848(3)
C30_14 C 0.5729(9) 0.065(1) 0.0811(3)
C31_14 C 0.671(1) 0.0170(8) 0.1442(3)
H5_14 H 0.6595 0.2034 0.0404
H6_14 H 0.6595 0.1665 0.0720
H7_14 H 0.7064 0.0192 0.0499
H8_14 H 0.7048 0.0573 0.0184
H9_14 H 0.5297 0.0609 0.1524
H10_11 H 0.4825 0.0341 0.1641
H11_14 H 0.5409 0.0367 0.1728
H19_14 H 0.5647 0.0575 0.1311
H20_14 H 0.5428 0.0309 0.1121
H21_14 H 0.8091 0.0600 0.0935
H22_14 H 0.7814 0.1064 0.0817
H23_14 H 0.7838 0.0476 0.0733
H24_14 H 0.5422 0.0548 0.0888
H25_14 H 0.5730 0.0439 0.0695
H26_14 H 0.5709 0.1026 0.0780
H27_14 H 0.6340 0.0128 0.1482
H28_14 H 0.6873 0.0464 0.1511
H30_14 H 0.8034 0.0284 0.1156
C58_14 C 0.819(1) 0.030(1) 0.1652(3)
H48_14 H 0.8100 0.0591 0.1565
H49_14 H 0.8564 0.0314 0.1683
H50_14 H 0.7976 0.0338 0.1767
H51_14 H 0.7784 0.0534 0.1344
Ag3_8 Ag 0.68707(8) 0.1703(1) 0.99829(2)
Ag1_8 Ag 0.4203(1) 0.93707(8) 0.24829(2)
N1_14 N 0.457(1) 0.9371(9) 0.2195(2)
C1_14 C 0.510(1) 0.950(1) 0.2162(3)
C2_14 C 0.531(1) 0.946(1) 0.1979(3)
C3_14 C 0.5021(9) 0.9316(9) 0.1822(2)
C4_14 C 0.449(1) 0.917(1) 0.1857(3)
C5_14 C 0.425(1) 0.922(1) 0.2044(3)
C11_14 C 0.524(1) 0.9271(9) 0.1620(3)
C12_14 C 0.534(1) 0.9773(9) 0.1520(3)
C13_14 C 0.558(1) 0.976(1) 0.1332(3)
C14_14 C 0.5676(8) 0.9238(9) 0.1245(2)
C15_14 C 0.558(1) 0.8738(9) 0.1348(3)
C16_14 C 0.537(1) 0.8757(9) 0.1538(3)
C18_14 C 0.586(1) 0.922(1) 0.1030(2)
C19_14 C 0.524(1) 0.8243(9) 0.1650(3)
C20_14 C 0.5697 0.820(1) 0.1250
H1_14 H 0.5322 0.9615 0.2266
H2_14 H 0.5690 0.9541 0.1962
H3_14 H 0.4275 0.9028 0.1753
H4_14 H 0.3870 0.9141 0.2064
H12_14 H 0.5900 0.9582 0.0983
H13_14 H 0.6194 0.9029 0.1020
H14_14 H 0.5586 0.9035 0.0955
H15_14 H 0.5343 0.7933 0.1576
H16_14 H 0.5429 0.8246 0.1770
H17_14 H 0.4854 0.8227 0.1675
H18_14 H 0.5423 0.8153 0.1153
H29_14 H 0.6905 0.9842 0.1467
C32_14 C 0.6238(9) 0.808(1) 0.1152(3)
C33_14 C 0.6738(9) 0.8176(8) 0.1255(2)
C34_14 C 0.726(1) 0.808(1) 0.1168(3)
C35_14 C 0.7273(9) 0.784(1) 0.0980(3)
C36_14 C 0.6771(9) 0.774(1) 0.0880(3)
C37_14 C 0.6816(9) 0.7521(9) 0.0678(2)
C38_14 C 0.696(1) 0.781(1) 0.0521(3)
C39_14 C 0.700(1) 0.760(1) 0.0338(3)
N3_14 N 0.6871(9) 0.707(1) 0.0305(2)
C40_14 C 0.672(1) 0.675(1) 0.0456(3)
C41_14 C 0.667(1) 0.699(1) 0.0643(3)
H31_14 H 0.6528 0.6775 0.0747
H32_14 H 0.6641 0.6370 0.0436
H33_14 H 0.7115 0.7822 0.0234
H34_14 H 0.7041 0.8190 0.0538
C42_14 C 0.6257(9) 0.787(1) 0.0962(3)
C43_14 C 0.5743(9) 0.774(1) 0.0850(3)
H35_14 H 0.5433 0.7843 0.0924
H36_14 H 0.5746 0.7929 0.0730
H37_14 H 0.5727 0.7354 0.0825
C44_14 C 0.782(1) 0.770(1) 0.0888(3)
H38_14 H 0.8109 0.7797 0.0976
H39_14 H 0.7841 0.7325 0.0859
H40_14 H 0.7867 0.7909 0.0772
C45_14 C 0.7782(9) 0.8194(9) 0.1279(3)
C46_14 C 0.7860(9) 0.8752(9) 0.1374(2)
C47_14 C 0.7793(8) 0.9224(9) 0.1274(2)
C48_14 C 0.7867(9) 0.9718(9) 0.1359(3)
C49_14 C 0.8055(9) 0.9760(8) 0.1557(2)
C50_14 C 0.8140(9) 0.930(1) 0.1653(2)
C51_14 C 0.8390(9) 0.932(1) 0.1859(2)
C52_14 C 0.894(1) 0.919(1) 0.1888(3)
C53_14 C 0.916(1) 0.9200(9) 0.2077(3)
N4_8 N 0.8863(9) 0.9369(9) 0.2230(2)
C54_14 C 0.830(1) 0.947(1) 0.2206(3)
C55_14 C 0.806(1) 0.947(1) 0.2019(3)
H41_14 H 0.7692 0.9564 0.2001
H42_14 H 0.8073 0.9548 0.2316
H43_14 H 0.9534 0.9095 0.2096
H44_14 H 0.9165 0.9095 0.1780
C56_14 C 0.803(1) 0.8767(9) 0.1572(3)
C57_14 C 0.815(1) 0.8229(9) 0.1689(3)
H45_14 H 0.8048 0.7922 0.1612
H46_14 H 0.7939 0.8230 0.1805
H47_14 H 0.8526 0.8209 0.1720
C59_14 C 0.7670(8) 0.921(1) 0.1058(3)
H52_14 H 0.7628 0.8840 0.1018
H53_14 H 0.7964 0.9373 0.0989
H54_14 H 0.7342 0.9405 0.1033
H55_14 H 0.8075 0.8147 0.1189
H56_14 H 0.7809 0.7928 0.1379
C60_14 C 0.672(1) 0.836(1) 0.1470(2)
H57_14 H 0.7082 0.8400 0.1517
H58_14 H 0.6529 0.8694 0.1480
H59_14 H 0.6535 0.8086 0.1545
H60_14 H 0.5653 0.7923 0.1347
Ag2_8 Ag 0.68707(8) 0.6703(1) 0.00171(2)
N5_8 N 0.3863(9) 0.9369(9) 0.2770(2)
Ag4_8 Ag 0.9203(1) 0.93707(8) 0.25171(2)
N6_8 N 0.6869(9) 0.6363(9) 0.9730(2)
N1_15 N 0.6871(9) 0.207(1) 0.9695(2)
C1_15 C 0.700(1) 0.260(1) 0.9662(3)
C2_15 C 0.696(1) 0.281(1) 0.9479(3)
C3_15 C 0.6816(9) 0.2521(9) 0.9322(2)
C4_15 C 0.667(1) 0.199(1) 0.9357(3)
C5_15 C 0.672(1) 0.175(1) 0.9544(3)
C6_15 C 0.916(1) 0.4200(9) 0.7923(3)
C7_15 C 0.894(1) 0.419(1) 0.8112(3)
C8_15 C 0.8390(9) 0.432(1) 0.8141(2)
C9_15 C 0.806(1) 0.447(1) 0.7981(3)
C10_15 C 0.830(1) 0.447(1) 0.7794(3)
C11_15 C 0.6771(9) 0.274(1) 0.9120(3)
C12_15 C 0.7273(9) 0.284(1) 0.9020(3)
C13_15 C 0.726(1) 0.308(1) 0.8832(3)
C14_15 C 0.6738(9) 0.3176(8) 0.8745(2)
C15_15 C 0.6238(9) 0.308(1) 0.8848(3)
C16_15 C 0.6257(9) 0.287(1) 0.9038(3)
C17_15 C 0.782(1) 0.270(1) 0.9112(3)
C18_15 C 0.672(1) 0.336(1) 0.8530(2)
C19_15 C 0.5743(9) 0.274(1) 0.9150(3)
C20_15 C 0.570(1) 0.3197 0.8750
C21_15 C 0.7782(9) 0.3194(9) 0.8721(3)
C22_15 C 0.7793(8) 0.4224(9) 0.8726(2)
C23_15 C 0.7867(9) 0.4718(9) 0.8641(3)
C24_15 C 0.8055(9) 0.4760(8) 0.8443(2)
C25_15 C 0.8140(9) 0.430(1) 0.8347(2)
C26_15 C 0.803(1) 0.3767(9) 0.8428(3)
C27_15 C 0.7860(9) 0.3752(9) 0.8626(2)
C28_15 C 0.775(1) 0.5250 0.8750
C29_15 C 0.819(1) 0.530(1) 0.8348(3)
C30_15 C 0.815(1) 0.3229(9) 0.8311(3)
C31_15 C 0.7670(8) 0.421(1) 0.8942(3)
H1_15 H 0.7115 0.2822 0.9766
H2_15 H 0.7041 0.3190 0.9462
H3_15 H 0.6528 0.1775 0.9253
H4_15 H 0.6641 0.1370 0.9564
H5_15 H 0.9534 0.4095 0.7904
H6_15 H 0.9165 0.4095 0.8220
H7_15 H 0.7692 0.4564 0.7999
H8_15 H 0.8073 0.4548 0.7684
H9_15 H 0.8109 0.2797 0.9024
H10_12 H 0.7841 0.2325 0.9141
H11_15 H 0.7867 0.2909 0.9228
H12_15 H 0.7082 0.3400 0.8483
H13_15 H 0.6529 0.3694 0.8520
H14_15 H 0.6535 0.3086 0.8455
H15_15 H 0.5433 0.2843 0.9076
H16_15 H 0.5746 0.2929 0.9270
H17_15 H 0.5727 0.2354 0.9175
H18_15 H 0.5653 0.2923 0.8653
H19_15 H 0.8075 0.3147 0.8811
H20_15 H 0.7809 0.2928 0.8621
H21_15 H 0.8100 0.5591 0.8435
H22_15 H 0.8564 0.5314 0.8317
H23_15 H 0.7976 0.5338 0.8233
H24_15 H 0.8048 0.2922 0.8388
H25_15 H 0.7939 0.3230 0.8195
H26_15 H 0.8526 0.3209 0.8280
H27_15 H 0.7628 0.3840 0.8982
H28_15 H 0.7964 0.4373 0.9011
H29_15 H 0.7342 0.4405 0.8967
H30_15 H 0.7784 0.5534 0.8656
C32_15 C 0.558(1) 0.3738(9) 0.8652(3)
C33_15 C 0.5676(8) 0.4238(9) 0.8755(2)
C34_15 C 0.558(1) 0.476(1) 0.8668(3)
C35_15 C 0.534(1) 0.4773(9) 0.8480(3)
C36_15 C 0.524(1) 0.4271(9) 0.8380(3)
C37_15 C 0.5021(9) 0.4316(9) 0.8178(2)
C38_15 C 0.531(1) 0.446(1) 0.8021(3)
C39_15 C 0.510(1) 0.450(1) 0.7838(3)
N3_15 N 0.457(1) 0.4371(9) 0.7805(2)
C40_15 C 0.425(1) 0.422(1) 0.7956(3)
C41_15 C 0.449(1) 0.417(1) 0.8143(3)
H31_15 H 0.4275 0.4028 0.8247
H32_15 H 0.3870 0.4141 0.7936
H33_15 H 0.5322 0.4615 0.7734
H34_15 H 0.5690 0.4541 0.8038
C42_15 C 0.537(1) 0.3757(9) 0.8462(3)
C43_15 C 0.524(1) 0.3243(9) 0.8350(3)
H35_15 H 0.5343 0.2933 0.8424
H36_15 H 0.5429 0.3246 0.8230
H37_15 H 0.4854 0.3227 0.8325
C44_15 C 0.520(1) 0.532(1) 0.8388(3)
H38_15 H 0.5297 0.5609 0.8476
H39_15 H 0.4825 0.5341 0.8359
H40_15 H 0.5409 0.5367 0.8272
C45_15 C 0.5694(9) 0.5282(9) 0.8779(3)
C46_15 C 0.6252(9) 0.5360(9) 0.8874(2)
C47_15 C 0.6724(9) 0.5293(8) 0.8774(2)
C48_15 C 0.7218(9) 0.5367(9) 0.8859(3)
C49_15 C 0.7260(8) 0.5555(9) 0.9057(2)
C50_15 C 0.680(1) 0.5640(9) 0.9153(2)
C51_15 C 0.682(1) 0.5890(9) 0.9359(2)
C52_15 C 0.669(1) 0.644(1) 0.9388(3)
C53_15 C 0.6700(9) 0.666(1) 0.9577(3)
C54_15 C 0.697(1) 0.580(1) 0.9706(3)
C55_15 C 0.697(1) 0.556(1) 0.9519(3)
H41_15 H 0.7064 0.5192 0.9501
H42_15 H 0.7048 0.5573 0.9816
H43_15 H 0.6595 0.7034 0.9596
H44_15 H 0.6595 0.6665 0.9280
C56_15 C 0.6267(9) 0.553(1) 0.9072(3)
C57_15 C 0.5729(9) 0.565(1) 0.9189(3)
H45_15 H 0.5422 0.5548 0.9112
H46_15 H 0.5730 0.5439 0.9305
H47_15 H 0.5709 0.6026 0.9220
C58_15 C 0.780(1) 0.569(1) 0.9152(3)
H48_15 H 0.8091 0.5600 0.9065
H49_15 H 0.7814 0.6064 0.9183
H50_15 H 0.7838 0.5476 0.9267
H51_15 H 0.8034 0.5284 0.8844
C59_15 C 0.671(1) 0.5170(8) 0.8558(3)
H52_15 H 0.6340 0.5128 0.8518
H53_15 H 0.6873 0.5464 0.8489
H54_15 H 0.6905 0.4842 0.8533
H55_15 H 0.5647 0.5575 0.8689
H56_15 H 0.5428 0.5309 0.8879
C60_15 C 0.586(1) 0.422(1) 0.8970(2)
H57_15 H 0.5900 0.4582 0.9017
H58_15 H 0.6194 0.4029 0.8980
H59_15 H 0.5586 0.4035 0.9045
H60_15 H 0.5423 0.3153 0.8847
C6_16 C 0.1700(9) 0.166(1) 0.4577(3)
C7_16 C 0.169(1) 0.144(1) 0.4388(3)
C8_16 C 0.182(1) 0.0890(9) 0.4359(2)
C9_16 C 0.197(1) 0.056(1) 0.4519(3)
C10_16 C 0.197(1) 0.080(1) 0.4706(3)
C17_16 C 0.020(1) 0.032(1) 0.3388(3)
C21_16 C 0.0694(9) 0.0282(9) 0.3779(3)
C22_16 C 0.1724(9) 0.0293(8) 0.3774(2)
C23_16 C 0.2218(9) 0.0367(9) 0.3859(3)
C24_16 C 0.2260(8) 0.0555(9) 0.4057(2)
C25_16 C 0.180(1) 0.0640(9) 0.4153(2)
C26_16 C 0.1267(9) 0.053(1) 0.4072(3)
C27_16 C 0.1252(9) 0.0360(9) 0.3874(2)
C28_16 C 0.2750 0.025(1) 0.3750
C29_16 C 0.280(1) 0.069(1) 0.4152(3)
C30_16 C 0.0729(9) 0.065(1) 0.4189(3)
C31_16 C 0.171(1) 0.0170(8) 0.3558(3)
H5_16 H 0.1595 0.2034 0.4596
H6_16 H 0.1595 0.1665 0.4280
H7_16 H 0.2064 0.0192 0.4501
H8_16 H 0.2048 0.0573 0.4816
H9_16 H 0.0297 0.0609 0.3476
H11_16 H 0.0409 0.0367 0.3272
H19_16 H 0.0647 0.0575 0.3689
H20_16 H 0.0428 0.0309 0.3879
H21_16 H 0.3091 0.0600 0.4065
H22_16 H 0.2814 0.1064 0.4183
H23_16 H 0.2838 0.0476 0.4267
H24_16 H 0.0422 0.0548 0.4112
H25_16 H 0.0730 0.0439 0.4305
H26_16 H 0.0709 0.1026 0.4220
H27_16 H 0.1340 0.0128 0.3518
H28_16 H 0.1873 0.0464 0.3489
H30_16 H 0.3034 0.0284 0.3844
C58_16 C 0.319(1) 0.030(1) 0.3348(3)
H48_16 H 0.3100 0.0591 0.3435
H49_16 H 0.3564 0.0314 0.3317
H50_16 H 0.2976 0.0338 0.3233
H51_16 H 0.2784 0.0534 0.3656
C1_16 C 0.010(1) 0.950(1) 0.2838(3)
C2_16 C 0.031(1) 0.946(1) 0.3021(3)
C3_16 C 0.0021(9) 0.9316(9) 0.3178(2)
C11_16 C 0.024(1) 0.9271(9) 0.3380(3)
C12_16 C 0.034(1) 0.9773(9) 0.3480(3)
C13_16 C 0.058(1) 0.976(1) 0.3668(3)
C14_16 C 0.0676(8) 0.9238(9) 0.3755(2)
C15_16 C 0.058(1) 0.8738(9) 0.3652(3)
C16_16 C 0.037(1) 0.8757(9) 0.3462(3)
C18_16 C 0.086(1) 0.922(1) 0.3970(2)
C19_16 C 0.024(1) 0.8243(9) 0.3350(3)
C20_16 C 0.0697 0.820(1) 0.3750
H1_16 H 0.0322 0.9615 0.2734
H2_16 H 0.0690 0.9541 0.3038
H12_16 H 0.0900 0.9582 0.4017
H13_16 H 0.1194 0.9029 0.3980
H14_16 H 0.0586 0.9035 0.4045
H15_16 H 0.0343 0.7933 0.3424
H16_16 H 0.0429 0.8246 0.3230
H18_16 H 0.0423 0.8153 0.3847
H29_16 H 0.1905 0.9842 0.3533
C32_16 C 0.1238(9) 0.808(1) 0.3848(3)
C33_16 C 0.1738(9) 0.8176(8) 0.3745(2)
C34_16 C 0.226(1) 0.808(1) 0.3832(3)
C35_16 C 0.2273(9) 0.784(1) 0.4020(3)
C36_16 C 0.1771(9) 0.774(1) 0.4120(3)
C37_16 C 0.1816(9) 0.7521(9) 0.4322(2)
C38_16 C 0.196(1) 0.781(1) 0.4479(3)
C39_16 C 0.200(1) 0.760(1) 0.4662(3)
N3_16 N 0.1871(9) 0.707(1) 0.4695(2)
C40_16 C 0.172(1) 0.675(1) 0.4544(3)
C41_16 C 0.167(1) 0.699(1) 0.4357(3)
H31_16 H 0.1528 0.6775 0.4253
H32_16 H 0.1641 0.6370 0.4564
H33_16 H 0.2115 0.7822 0.4766
H34_16 H 0.2041 0.8190 0.4462
C42_16 C 0.1257(9) 0.787(1) 0.4038(3)
C43_16 C 0.0743(9) 0.774(1) 0.4150(3)
H35_16 H 0.0433 0.7843 0.4076
H36_16 H 0.0746 0.7929 0.4270
H37_16 H 0.0727 0.7354 0.4175
C44_16 C 0.282(1) 0.770(1) 0.4112(3)
H38_16 H 0.3109 0.7797 0.4024
H39_16 H 0.2841 0.7325 0.4141
H40_16 H 0.2867 0.7909 0.4228
C45_16 C 0.2782(9) 0.8194(9) 0.3721(3)
C46_16 C 0.2860(9) 0.8752(9) 0.3626(2)
C47_16 C 0.2793(8) 0.9224(9) 0.3726(2)
C48_16 C 0.2867(9) 0.9718(9) 0.3641(3)
C49_16 C 0.3055(9) 0.9760(8) 0.3443(2)
C50_16 C 0.3140(9) 0.930(1) 0.3347(2)
C51_16 C 0.3390(9) 0.932(1) 0.3141(2)
C52_16 C 0.394(1) 0.919(1) 0.3112(3)
C53_16 C 0.416(1) 0.9200(9) 0.2923(3)
C54_16 C 0.330(1) 0.947(1) 0.2794(3)
C55_16 C 0.306(1) 0.947(1) 0.2981(3)
H41_16 H 0.2692 0.9564 0.2999
H42_16 H 0.3073 0.9548 0.2684
H43_16 H 0.4534 0.9095 0.2904
H44_16 H 0.4165 0.9095 0.3220
C56_16 C 0.303(1) 0.8767(9) 0.3428(3)
C57_16 C 0.315(1) 0.8229(9) 0.3311(3)
H45_16 H 0.3048 0.7922 0.3388
H46_16 H 0.2939 0.8230 0.3195
H47_16 H 0.3526 0.8209 0.3280
C59_16 C 0.2670(8) 0.921(1) 0.3942(3)
H52_16 H 0.2628 0.8840 0.3982
H53_16 H 0.2964 0.9373 0.4011
H54_16 H 0.2342 0.9405 0.3967
H55_16 H 0.3075 0.8147 0.3811
H56_16 H 0.2809 0.7928 0.3621
C60_16 C 0.172(1) 0.836(1) 0.3530(2)
H57_16 H 0.2082 0.8400 0.3483
H58_16 H 0.1529 0.8694 0.3520
H59_16 H 0.1535 0.8086 0.3455
H60_16 H 0.0653 0.7923 0.3653
N1_16 N 0.957(1) 0.9371(9) 0.2805(2)
C4_16 C 0.949(1) 0.917(1) 0.3143(3)
C5_16 C 0.925(1) 0.922(1) 0.2956(3)
H3_16 H 0.9275 0.9028 0.3247
H4_16 H 0.8870 0.9141 0.2936
H17_16 H 0.9854 0.8227 0.3325
H10_13 H 0.0175 0.9659 0.6641
H10_14 H 0.0175 0.0341 0.8359
H10_15 H 0.9825 0.0341 0.3359
H10_16 H 0.9825 0.9659 0.1641
P1 P 0.2079 0.5922 0.0425
F1 F 0.2672 0.5768 0.0483
F2 F 0.2303 0.6310 0.0265
F3 F 0.1486 0.6076 0.0367
F4 F 0.1855 0.5534 0.0584
F5 F 0.2088 0.6399 0.0573
F6 F 0.2070 0.5445 0.0276
F1_2 F 0.6732 0.0172 0.2983
P1_2 P 0.6578 0.9579 0.2925
F2_2 F 0.6190 0.9803 0.2765
F3_2 F 0.6424 0.8986 0.2867
F4_2 F 0.6966 0.9355 0.3084
F5_2 F 0.6101 0.9588 0.3073
F6_2 F 0.7055 0.9570 0.2776
P1_3 P 0.2079 0.4078 0.4575
F1_3 F 0.2672 0.4232 0.4517
F2_3 F 0.2303 0.3690 0.4735
F3_3 F 0.1486 0.3924 0.4633
F4_3 F 0.1855 0.4466 0.4416
F5_3 F 0.2088 0.3601 0.4427
F6_3 F 0.2070 0.4555 0.4724
P1_4 P 0.2921 0.4078 0.5425
F1_4 F 0.2328 0.4232 0.5483
F2_4 F 0.2697 0.3690 0.5265
F3_4 F 0.3514 0.3924 0.5367
F4_4 F 0.3145 0.4466 0.5584
F5_4 F 0.2912 0.3601 0.5573
F6_4 F 0.2930 0.4555 0.5276
F1_5 F 0.8268 0.0172 0.7017
P1_5 P 0.8422 0.9579 0.7075
F2_5 F 0.8810 0.9803 0.7235
F3_5 F 0.8576 0.8986 0.7133
F4_5 F 0.8034 0.9355 0.6916
F5_5 F 0.8899 0.9588 0.6927
F6_5 F 0.7945 0.9570 0.7224
P1_6 P 0.8422 0.0421 0.7925
F2_6 F 0.8810 0.0197 0.7765
F3_6 F 0.8576 0.1014 0.7867
F4_6 F 0.8034 0.0645 0.8084
F5_6 F 0.8899 0.0412 0.8073
F6_6 F 0.7945 0.0430 0.7776
F1_6 F 0.8268 0.9828 0.7983
P1_7 P 0.2921 0.5922 0.9575
F1_7 F 0.2328 0.5768 0.9517
F2_7 F 0.2697 0.6310 0.9735
F3_7 F 0.3514 0.6076 0.9633
F4_7 F 0.3145 0.5534 0.9416
F5_7 F 0.2912 0.6399 0.9427
F6_7 F 0.2930 0.5445 0.9724
P1_8 P 0.6578 0.0421 0.2075
F2_8 F 0.6190 0.0197 0.2235
F3_8 F 0.6424 0.1014 0.2133
F4_8 F 0.6966 0.0645 0.1916
F5_8 F 0.6101 0.0412 0.1927
F6_8 F 0.7055 0.0430 0.2224
F1_8 F 0.6732 0.9828 0.2017
P1_9 P 0.7079 0.0922 0.5425
F1_9 F 0.7672 0.0768 0.5483
F2_9 F 0.7303 0.1310 0.5265
F3_9 F 0.6486 0.1076 0.5367
F4_9 F 0.6855 0.0534 0.5584
F5_9 F 0.7088 0.1399 0.5573
F6_9 F 0.7070 0.0445 0.5276
P1_10 P 0.1578 0.4579 0.7925
F1_10 F 0.1732 0.5172 0.7983
F2_10 F 0.1190 0.4803 0.7765
F3_10 F 0.1424 0.3986 0.7867
F4_10 F 0.1966 0.4355 0.8084
F5_10 F 0.1101 0.4588 0.8073
F6_10 F 0.2055 0.4570 0.7776
P1_11 P 0.7079 0.9078 0.9575
F1_11 F 0.7672 0.9232 0.9517
F2_11 F 0.7303 0.8690 0.9735
F3_11 F 0.6486 0.8924 0.9633
F4_11 F 0.6855 0.9466 0.9416
F5_11 F 0.7088 0.8601 0.9427
F6_11 F 0.7070 0.9555 0.9724
P1_12 P 0.7921 0.9078 0.0425
F1_12 F 0.7328 0.9232 0.0483
F2_12 F 0.7697 0.8690 0.0265
F3_12 F 0.8514 0.8924 0.0367
F4_12 F 0.8145 0.9466 0.0584
F5_12 F 0.7912 0.8601 0.0573
F6_12 F 0.7930 0.9555 0.0276
P1_13 P 0.3422 0.4579 0.2075
F1_13 F 0.3268 0.5172 0.2017
F2_13 F 0.3810 0.4803 0.2235
F3_13 F 0.3576 0.3986 0.2133
F4_13 F 0.3034 0.4355 0.1916
F5_13 F 0.3899 0.4588 0.1927
F6_13 F 0.2945 0.4570 0.2224
P1_14 P 0.3422 0.5421 0.2925
F1_14 F 0.3268 0.4828 0.2983
F2_14 F 0.3810 0.5197 0.2765
F3_14 F 0.3576 0.6014 0.2867
F4_14 F 0.3034 0.5645 0.3084
F5_14 F 0.3899 0.5412 0.3073
F6_14 F 0.2945 0.5430 0.2776
P1_15 P 0.7921 0.0922 0.4575
F1_15 F 0.7328 0.0768 0.4517
F2_15 F 0.7697 0.1310 0.4735
F3_15 F 0.8514 0.1076 0.4633
F4_15 F 0.8145 0.0534 0.4416
F5_15 F 0.7912 0.1399 0.4427
F6_15 F 0.7930 0.0445 0.4724
P1_16 P 0.1578 0.5421 0.7075
F1_16 F 0.1732 0.4828 0.7017
F2_16 F 0.1190 0.5197 0.7235
F3_16 F 0.1424 0.6014 0.7133
F4_16 F 0.1966 0.5645 0.6916
F5_16 F 0.1101 0.5412 0.6927
F6_16 F 0.2055 0.5430 0.7224
P1_17 P 0.7921 0.4078 0.9575
F1_17 F 0.7328 0.4232 0.9517
F2_17 F 0.7697 0.3690 0.9735
F3_17 F 0.8514 0.3924 0.9633
F4_17 F 0.8145 0.4466 0.9416
F5_17 F 0.7912 0.3601 0.9427
F6_17 F 0.7930 0.4555 0.9724
P1_18 P 0.3422 0.0421 0.7075
F2_18 F 0.3810 0.0197 0.7235
F3_18 F 0.3576 0.1014 0.7133
F4_18 F 0.3034 0.0645 0.6916
F5_18 F 0.3899 0.0412 0.6927
F6_18 F 0.2945 0.0430 0.7224
F1_18 F 0.3268 0.9828 0.7017
P1_19 P 0.7921 0.5922 0.5425
F1_19 F 0.7328 0.5768 0.5483
F2_19 F 0.7697 0.6310 0.5265
F3_19 F 0.8514 0.6076 0.5367
F4_19 F 0.8145 0.5534 0.5584
F5_19 F 0.7912 0.6399 0.5573
F6_19 F 0.7930 0.5445 0.5276
P1_20 P 0.7079 0.5922 0.4575
F1_20 F 0.7672 0.5768 0.4517
F2_20 F 0.7303 0.6310 0.4735
F3_20 F 0.6486 0.6076 0.4633
F4_20 F 0.6855 0.5534 0.4416
F5_20 F 0.7088 0.6399 0.4427
F6_20 F 0.7070 0.5445 0.4724
P1_21 P 0.1578 0.0421 0.2925
F2_21 F 0.1190 0.0197 0.2765
F3_21 F 0.1424 0.1014 0.2867
F4_21 F 0.1966 0.0645 0.3084
F5_21 F 0.1101 0.0412 0.3073
F6_21 F 0.2055 0.0430 0.2776
F1_21 F 0.1732 0.9828 0.2983
F1_22 F 0.1732 0.0172 0.2017
P1_22 P 0.1578 0.9579 0.2075
F2_22 F 0.1190 0.9803 0.2235
F3_22 F 0.1424 0.8986 0.2133
F4_22 F 0.1966 0.9355 0.1916
F5_22 F 0.1101 0.9588 0.1927
F6_22 F 0.2055 0.9570 0.2224
P1_23 P 0.7079 0.4078 0.0425
F1_23 F 0.7672 0.4232 0.0483
F2_23 F 0.7303 0.3690 0.0265
F3_23 F 0.6486 0.3924 0.0367
F4_23 F 0.6855 0.4466 0.0584
F5_23 F 0.7088 0.3601 0.0573
F6_23 F 0.7070 0.4555 0.0276
F1_24 F 0.3268 0.0172 0.7983
P1_24 P 0.3422 0.9579 0.7925
F2_24 F 0.3810 0.9803 0.7765
F3_24 F 0.3576 0.8986 0.7867
F4_24 F 0.3034 0.9355 0.8084
F5_24 F 0.3899 0.9588 0.8073
F6_24 F 0.2945 0.9570 0.7776
P1_25 P 0.2921 0.9078 0.4575
F1_25 F 0.2328 0.9232 0.4517
F2_25 F 0.2697 0.8690 0.4735
F3_25 F 0.3514 0.8924 0.4633
F4_25 F 0.3145 0.9466 0.4416
F5_25 F 0.2912 0.8601 0.4427
F6_25 F 0.2930 0.9555 0.4724
P1_26 P 0.8422 0.5421 0.2075
F1_26 F 0.8268 0.4828 0.2017
F2_26 F 0.8810 0.5197 0.2235
F3_26 F 0.8576 0.6014 0.2133
F4_26 F 0.8034 0.5645 0.1916
F5_26 F 0.8899 0.5412 0.1927
F6_26 F 0.7945 0.5430 0.2224
P1_27 P 0.2921 0.0922 0.0425
F1_27 F 0.2328 0.0768 0.0483
F2_27 F 0.2697 0.1310 0.0265
F3_27 F 0.3514 0.1076 0.0367
F4_27 F 0.3145 0.0534 0.0584
F5_27 F 0.2912 0.1399 0.0573
F6_27 F 0.2930 0.0445 0.0276
P1_28 P 0.2079 0.0922 0.9575
F1_28 F 0.2672 0.0768 0.9517
F2_28 F 0.2303 0.1310 0.9735
F3_28 F 0.1486 0.1076 0.9633
F4_28 F 0.1855 0.0534 0.9416
F5_28 F 0.2088 0.1399 0.9427
F6_28 F 0.2070 0.0445 0.9724
P1_29 P 0.6578 0.5421 0.7925
F1_29 F 0.6732 0.4828 0.7983
F2_29 F 0.6190 0.5197 0.7765
F3_29 F 0.6424 0.6014 0.7867
F4_29 F 0.6966 0.5645 0.8084
F5_29 F 0.6101 0.5412 0.8073
F6_29 F 0.7055 0.5430 0.7776
P1_30 P 0.6578 0.4579 0.7075
F1_30 F 0.6732 0.5172 0.7017
F2_30 F 0.6190 0.4803 0.7235
F3_30 F 0.6424 0.3986 0.7133
F4_30 F 0.6966 0.4355 0.6916
F5_30 F 0.6101 0.4588 0.6927
F6_30 F 0.7055 0.4570 0.7224
P1_31 P 0.2079 0.9078 0.5425
F1_31 F 0.2672 0.9232 0.5483
F2_31 F 0.2303 0.8690 0.5265
F3_31 F 0.1486 0.8924 0.5367
F4_31 F 0.1855 0.9466 0.5584
F5_31 F 0.2088 0.8601 0.5573
F6_31 F 0.2070 0.9555 0.5276
P1_32 P 0.8422 0.4579 0.2925
F1_32 F 0.8268 0.5172 0.2983
F2_32 F 0.8810 0.4803 0.2765
F3_32 F 0.8576 0.3986 0.2867
F4_32 F 0.8034 0.4355 0.3084
F5_32 F 0.8899 0.4588 0.3073
F6_32 F 0.7945 0.4570 0.2776
loop_
_geom_bond_atom_site_label_1
_geom_bond_atom_site_label_2
_geom_bond_site_symmetry_1
_geom_bond_site_symmetry_2
Ag1 N1 1_555 1_555
N1 C1 1_555 1_555
C1 C2 1_555 1_555
C2 C3 1_555 1_555
C3 C4 1_555 1_555
C4 C5 1_555 1_555
C5 N1 1_555 1_555
N2 C6 1_555 1_555
C6 C7 1_555 1_555
C7 C8 1_555 1_555
C8 C9 1_555 1_555
C9 C10 1_555 1_555
C10 N2 1_555 1_555
C11 C3 1_555 1_555
C12 C11 1_555 1_555
C13 C12 1_555 1_555
C14 C13 1_555 1_555
C15 C14 1_555 1_555
C16 C11 1_555 1_555
C17 C12 1_555 1_555
C18 C14 1_555 1_555
C19 C16 1_555 1_555
C20 C15 1_555 1_555
C21 C13 1_555 1_555
C22 C23 1_555 1_555
C23 C24 1_555 1_555
C24 C25 1_555 1_555
C25 C8 1_555 1_555
C26 C25 1_555 1_555
C27 C21 1_555 1_555
C28 C23 1_555 1_555
C29 C24 1_555 1_555
C30 C26 1_555 1_555
C31 C22 1_555 1_555
H1 C1 1_555 1_555
H2 C2 1_555 1_555
H3 C4 1_555 1_555
H4 C5 1_555 1_555
H5 C6 1_555 1_555
H6 C7 1_555 1_555
H7 C9 1_555 1_555
H8 C10 1_555 1_555
H9 C17 1_555 1_555
H10 C17 1_555 1_555
H11 C17 1_555 1_555
H12 C18 1_555 1_555
H13 C18 1_555 1_555
H14 C18 1_555 1_555
H15 C19 1_555 1_555
H16 C19 1_555 1_555
H17 C19 1_555 1_555
H18 C20 1_555 1_555
H19 C21 1_555 1_555
H20 C21 1_555 1_555
H21 C29 1_555 1_555
H22 C29 1_555 1_555
H23 C29 1_555 1_555
H24 C30 1_555 1_555
H25 C30 1_555 1_555
H26 C30 1_555 1_555
H27 C31 1_555 1_555
H28 C31 1_555 1_555
H29 C31 1_555 1_555
H30 C28 1_555 1_555
C32 C20 1_555 1_555
C33 C32 1_555 1_555
C34 C33 1_555 1_555
C35 C34 1_555 1_555
C36 C35 1_555 1_555
C37 C36 1_555 1_555
C38 C37 1_555 1_555
C39 C38 1_555 1_555
N3 C39 1_555 1_555
C40 N3 1_555 1_555
C41 C37 1_555 1_555
H31 C41 1_555 1_555
H32 C40 1_555 1_555
H33 C39 1_555 1_555
H34 C38 1_555 1_555
C42 C32 1_555 1_555
C43 C42 1_555 1_555
H35 C43 1_555 1_555
H36 C43 1_555 1_555
H37 C43 1_555 1_555
C44 C35 1_555 1_555
H38 C44 1_555 1_555
H39 C44 1_555 1_555
H40 C44 1_555 1_555
C45 C34 1_555 1_555
C46 C45 1_555 1_555
C47 C46 1_555 1_555
C48 C28 1_555 1_555
C49 C48 1_555 1_555
C50 C49 1_555 1_555
C51 C50 1_555 1_555
C52 C51 1_555 1_555
C53 C52 1_555 1_555
N4 C53 1_555 1_555
C54 N4 1_555 1_555
C55 C51 1_555 1_555
H41 C55 1_555 1_555
H42 C54 1_555 1_555
H43 C53 1_555 1_555
H44 C52 1_555 1_555
C56 C46 1_555 1_555
C57 C56 1_555 1_555
H45 C57 1_555 1_555
H46 C57 1_555 1_555
H47 C57 1_555 1_555
C58 C49 1_555 1_555
H48 C58 1_555 1_555
H49 C58 1_555 1_555
H50 C58 1_555 1_555
H51 C28 1_555 1_555
C59 C47 1_555 1_555
H52 C59 1_555 1_555
H53 C59 1_555 1_555
H54 C59 1_555 1_555
H55 C45 1_555 1_555
H56 C45 1_555 1_555
C60 C33 1_555 1_555
H57 C60 1_555 1_555
H58 C60 1_555 1_555
H59 C60 1_555 1_555
H60 C20 1_555 1_555
Ag2 N3 1_555 1_555
Ag3 N2 1_555 1_555
N6 Ag2 1_555 1_555
C15 C16 1_555 1_555
C22 C27 1_555 1_555
C26 C27 1_555 1_555
C36 C42 1_555 1_555
C40 C41 1_555 1_555
C47 C48 1_555 1_555
C50 C56 1_555 1_555
C54 C55 1_555 1_555
Ag1_2 N1_2 1_555 1_555
C4_2 C5_2 1_555 1_555
C5_2 N1_2 1_555 1_555
H3_2 C4_2 1_555 1_555
H4_2 C5_2 1_555 1_555
N5_2 Ag1_2 1_555 1_555
C1_2 C2_2 1_555 1_555
C2_2 C3_2 1_555 1_555
C11_2 C3_2 1_555 1_555
C12_2 C11_2 1_555 1_555
C13_2 C12_2 1_555 1_555
C14_2 C13_2 1_555 1_555
C15_2 C14_2 1_555 1_555
C16_2 C11_2 1_555 1_555
C18_2 C14_2 1_555 1_555
C19_2 C16_2 1_555 1_555
C20_2 C15_2 1_555 1_555
H1_2 C1_2 1_555 1_555
H2_2 C2_2 1_555 1_555
H12_2 C18_2 1_555 1_555
H13_2 C18_2 1_555 1_555
H14_2 C18_2 1_555 1_555
H15_2 C19_2 1_555 1_555
H16_2 C19_2 1_555 1_555
H18_2 C20_2 1_555 1_555
C32_2 C20_2 1_555 1_555
C33_2 C32_2 1_555 1_555
C34_2 C33_2 1_555 1_555
C35_2 C34_2 1_555 1_555
C36_2 C35_2 1_555 1_555
C37_2 C36_2 1_555 1_555
C38_2 C37_2 1_555 1_555
C39_2 C38_2 1_555 1_555
N3_2 C39_2 1_555 1_555
C40_2 N3_2 1_555 1_555
C41_2 C37_2 1_555 1_555
H31_2 C41_2 1_555 1_555
H32_2 C40_2 1_555 1_555
H33_2 C39_2 1_555 1_555
H34_2 C38_2 1_555 1_555
C42_2 C32_2 1_555 1_555
C43_2 C42_2 1_555 1_555
H35_2 C43_2 1_555 1_555
H36_2 C43_2 1_555 1_555
H37_2 C43_2 1_555 1_555
C44_2 C35_2 1_555 1_555
H38_2 C44_2 1_555 1_555
H39_2 C44_2 1_555 1_555
H40_2 C44_2 1_555 1_555
C45_2 C34_2 1_555 1_555
C46_2 C45_2 1_555 1_555
C47_2 C46_2 1_555 1_555
C49_2 C48_2 1_555 1_555
C50_2 C49_2 1_555 1_555
C51_2 C50_2 1_555 1_555
C52_2 C51_2 1_555 1_555
C53_2 C52_2 1_555 1_555
N4_2 C53_2 1_555 1_555
C54_2 N4_2 1_555 1_555
C55_2 C51_2 1_555 1_555
H41_2 C55_2 1_555 1_555
H42_2 C54_2 1_555 1_555
H43_2 C53_2 1_555 1_555
H44_2 C52_2 1_555 1_555
C56_2 C46_2 1_555 1_555
C57_2 C56_2 1_555 1_555
H45_2 C57_2 1_555 1_555
H46_2 C57_2 1_555 1_555
H47_2 C57_2 1_555 1_555
C59_2 C47_2 1_555 1_555
H52_2 C59_2 1_555 1_555
H53_2 C59_2 1_555 1_555
H54_2 C59_2 1_555 1_555
H55_2 C45_2 1_555 1_555
H56_2 C45_2 1_555 1_555
C60_2 C33_2 1_555 1_555
H57_2 C60_2 1_555 1_555
H58_2 C60_2 1_555 1_555
H59_2 C60_2 1_555 1_555
H60_2 C20_2 1_555 1_555
Ag2_2 N3_2 1_555 1_555
Ag4_2 N4_2 1_555 1_555
N6_2 Ag2_2 1_555 1_555
C15_2 C16_2 1_555 1_555
C36_2 C42_2 1_555 1_555
C40_2 C41_2 1_555 1_555
C47_2 C48_2 1_555 1_555
C50_2 C56_2 1_555 1_555
C54_2 C55_2 1_555 1_555
N2_2 C6_2 1_555 1_555
C6_2 C7_2 1_555 1_555
C7_2 C8_2 1_555 1_555
C8_2 C9_2 1_555 1_555
C9_2 C10_2 1_555 1_555
C10_2 N2_2 1_555 1_555
C22_2 C23_2 1_555 1_555
C23_2 C24_2 1_555 1_555
C24_2 C25_2 1_555 1_555
C25_2 C8_2 1_555 1_555
C26_2 C25_2 1_555 1_555
C27_2 C21_2 1_555 1_555
C28_2 C23_2 1_555 1_555
C29_2 C24_2 1_555 1_555
C30_2 C26_2 1_555 1_555
C31_2 C22_2 1_555 1_555
H5_2 C6_2 1_555 1_555
H6_2 C7_2 1_555 1_555
H7_2 C9_2 1_555 1_555
H8_2 C10_2 1_555 1_555
H9_2 C17_2 1_555 1_555
H11_2 C17_2 1_555 1_555
H19_2 C21_2 1_555 1_555
H20_2 C21_2 1_555 1_555
H21_2 C29_2 1_555 1_555
H22_2 C29_2 1_555 1_555
H23_2 C29_2 1_555 1_555
H24_2 C30_2 1_555 1_555
H25_2 C30_2 1_555 1_555
H26_2 C30_2 1_555 1_555
H27_2 C31_2 1_555 1_555
H28_2 C31_2 1_555 1_555
H30_2 C28_2 1_555 1_555
H48_2 C58_2 1_555 1_555
H49_2 C58_2 1_555 1_555
H50_2 C58_2 1_555 1_555
H51_2 C28_2 1_555 1_555
Ag3_2 N2_2 1_555 1_555
C22_2 C27_2 1_555 1_555
C26_2 C27_2 1_555 1_555
C40_3 N3_3 1_555 1_555
H31_3 C41_3 1_555 1_555
H32_3 C40_3 1_555 1_555
Ag3 N3_3 1_555 1_555
C40_3 C41_3 1_555 1_555
Ag3_2 N1_3 1_555 1_555
N1_3 C1_3 1_555 1_555
C1_3 C2_3 1_555 1_555
C2_3 C3_3 1_555 1_555
C3_3 C4_3 1_555 1_555
C4_3 C5_3 1_555 1_555
C5_3 N1_3 1_555 1_555
N6 C6_3 1_555 1_555
C6_3 C7_3 1_555 1_555
C7_3 C8_3 1_555 1_555
C8_3 C9_3 1_555 1_555
C9_3 C10_3 1_555 1_555
C10_3 N6 1_555 1_555
C11_3 C3_3 1_555 1_555
C12_3 C11_3 1_555 1_555
C13_3 C12_3 1_555 1_555
C14_3 C13_3 1_555 1_555
C15_3 C14_3 1_555 1_555
C16_3 C11_3 1_555 1_555
C17_3 C12_3 1_555 1_555
C18_3 C14_3 1_555 1_555
C19_3 C16_3 1_555 1_555
C20_3 C15_3 1_555 1_555
C21_3 C13_3 1_555 1_555
C22_3 C23_3 1_555 1_555
C23_3 C24_3 1_555 1_555
C24_3 C25_3 1_555 1_555
C25_3 C8_3 1_555 1_555
C26_3 C25_3 1_555 1_555
C27_3 C21_3 1_555 1_555
C28_3 C23_3 1_555 1_555
C29_3 C24_3 1_555 1_555
C30_3 C26_3 1_555 1_555
C31_3 C22_3 1_555 1_555
H1_3 C1_3 1_555 1_555
H2_3 C2_3 1_555 1_555
H3_3 C4_3 1_555 1_555
H4_3 C5_3 1_555 1_555
H5_3 C6_3 1_555 1_555
H6_3 C7_3 1_555 1_555
H7_3 C9_3 1_555 1_555
H8_3 C10_3 1_555 1_555
H9_3 C17_3 1_555 1_555
H10_2 C17_3 1_555 1_555
H11_3 C17_3 1_555 1_555
H12_3 C18_3 1_555 1_555
H13_3 C18_3 1_555 1_555
H14_3 C18_3 1_555 1_555
H15_3 C19_3 1_555 1_555
H16_3 C19_3 1_555 1_555
H17_3 C19_3 1_555 1_555
H18_3 C20_3 1_555 1_555
H19_3 C21_3 1_555 1_555
H20_3 C21_3 1_555 1_555
H21_3 C29_3 1_555 1_555
H22_3 C29_3 1_555 1_555
H23_3 C29_3 1_555 1_555
H24_3 C30_3 1_555 1_555
H25_3 C30_3 1_555 1_555
H26_3 C30_3 1_555 1_555
H27_3 C31_3 1_555 1_555
H28_3 C31_3 1_555 1_555
H29_3 C31_3 1_555 1_555
H30_3 C28_3 1_555 1_555
C32_3 C20_3 1_555 1_555
C33_3 C32_3 1_555 1_555
C34_3 C33_3 1_555 1_555
C35_3 C34_3 1_555 1_555
C36_3 C35_3 1_555 1_555
C37_3 C36_3 1_555 1_555
C38_3 C37_3 1_555 1_555
C39_3 C38_3 1_555 1_555
H33_3 C39_3 1_555 1_555
H34_3 C38_3 1_555 1_555
C42_3 C32_3 1_555 1_555
C43_3 C42_3 1_555 1_555
H35_3 C43_3 1_555 1_555
H36_3 C43_3 1_555 1_555
C44_3 C35_3 1_555 1_555
H38_3 C44_3 1_555 1_555
H40_3 C44_3 1_555 1_555
C45_3 C34_3 1_555 1_555
C46_3 C45_3 1_555 1_555
C47_3 C46_3 1_555 1_555
C48_3 C28_3 1_555 1_555
C49_3 C48_3 1_555 1_555
C50_3 C49_3 1_555 1_555
C51_3 C50_3 1_555 1_555
C52_3 C51_3 1_555 1_555
C53_3 C52_3 1_555 1_555
N6_2 C53_3 1_555 1_555
C54_3 N6_2 1_555 1_555
C55_3 C51_3 1_555 1_555
H41_3 C55_3 1_555 1_555
H42_3 C54_3 1_555 1_555
H43_3 C53_3 1_555 1_555
H44_3 C52_3 1_555 1_555
C56_3 C46_3 1_555 1_555
C57_3 C56_3 1_555 1_555
H45_3 C57_3 1_555 1_555
H46_3 C57_3 1_555 1_555
H47_3 C57_3 1_555 1_555
C58_3 C49_3 1_555 1_555
H48_3 C58_3 1_555 1_555
H49_3 C58_3 1_555 1_555
H50_3 C58_3 1_555 1_555
H51_3 C28_3 1_555 1_555
C59_3 C47_3 1_555 1_555
H52_3 C59_3 1_555 1_555
H53_3 C59_3 1_555 1_555
H54_3 C59_3 1_555 1_555
H55_3 C45_3 1_555 1_555
H56_3 C45_3 1_555 1_555
C60_3 C33_3 1_555 1_555
H57_3 C60_3 1_555 1_555
H58_3 C60_3 1_555 1_555
H59_3 C60_3 1_555 1_555
H60_3 C20_3 1_555 1_555
C15_3 C16_3 1_555 1_555
C22_3 C27_3 1_555 1_555
C26_3 C27_3 1_555 1_555
C36_3 C42_3 1_555 1_555
C47_3 C48_3 1_555 1_555
C50_3 C56_3 1_555 1_555
C54_3 C55_3 1_555 1_555
Ag4_2 N1_4 1_555 1_555
N1_4 C1_4 1_555 1_555
C1_4 C2_4 1_555 1_555
C2_4 C3_4 1_555 1_555
C3_4 C4_4 1_555 1_555
C4_4 C5_4 1_555 1_555
C5_4 N1_4 1_555 1_555
C11_4 C3_4 1_555 1_555
C12_4 C11_4 1_555 1_555
C13_4 C12_4 1_555 1_555
C14_4 C13_4 1_555 1_555
C15_4 C14_4 1_555 1_555
C16_4 C11_4 1_555 1_555
C18_4 C14_4 1_555 1_555
C19_4 C16_4 1_555 1_555
C20_4 C15_4 1_555 1_555
H1_4 C1_4 1_555 1_555
H2_4 C2_4 1_555 1_555
H3_4 C4_4 1_555 1_555
H4_4 C5_4 1_555 1_555
H12_4 C18_4 1_555 1_555
H13_4 C18_4 1_555 1_555
H14_4 C18_4 1_555 1_555
H15_4 C19_4 1_555 1_555
H16_4 C19_4 1_555 1_555
H17_4 C19_4 1_555 1_555
H18_4 C20_4 1_555 1_555
C32_4 C20_4 1_555 1_555
C33_4 C32_4 1_555 1_555
C34_4 C33_4 1_555 1_555
C35_4 C34_4 1_555 1_555
C36_4 C35_4 1_555 1_555
C37_4 C36_4 1_555 1_555
C38_4 C37_4 1_555 1_555
C39_4 C38_4 1_555 1_555
N3_4 C39_4 1_555 1_555
C40_4 N3_4 1_555 1_555
C41_4 C37_4 1_555 1_555
H31_4 C41_4 1_555 1_555
H32_4 C40_4 1_555 1_555
H33_4 C39_4 1_555 1_555
H34_4 C38_4 1_555 1_555
C42_4 C32_4 1_555 1_555
C43_4 C42_4 1_555 1_555
H35_4 C43_4 1_555 1_555
H36_4 C43_4 1_555 1_555
H37_4 C43_4 1_555 1_555
C44_4 C35_4 1_555 1_555
H38_4 C44_4 1_555 1_555
H39_4 C44_4 1_555 1_555
H40_4 C44_4 1_555 1_555
C45_4 C34_4 1_555 1_555
C46_4 C45_4 1_555 1_555
C47_4 C46_4 1_555 1_555
C49_4 C48_4 1_555 1_555
C50_4 C49_4 1_555 1_555
C51_4 C50_4 1_555 1_555
C52_4 C51_4 1_555 1_555
C53_4 C52_4 1_555 1_555
N5_2 C53_4 1_555 1_555
C54_4 N5_2 1_555 1_555
C55_4 C51_4 1_555 1_555
H41_4 C55_4 1_555 1_555
H42_4 C54_4 1_555 1_555
H43_4 C53_4 1_555 1_555
H44_4 C52_4 1_555 1_555
C56_4 C46_4 1_555 1_555
C57_4 C56_4 1_555 1_555
H45_4 C57_4 1_555 1_555
H46_4 C57_4 1_555 1_555
H47_4 C57_4 1_555 1_555
C59_4 C47_4 1_555 1_555
H52_4 C59_4 1_555 1_555
H53_4 C59_4 1_555 1_555
H54_4 C59_4 1_555 1_555
H55_4 C45_4 1_555 1_555
H56_4 C45_4 1_555 1_555
C60_4 C33_4 1_555 1_555
H57_4 C60_4 1_555 1_555
H58_4 C60_4 1_555 1_555
H59_4 C60_4 1_555 1_555
H60_4 C20_4 1_555 1_555
Ag4 N3_4 1_555 1_555
C15_4 C16_4 1_555 1_555
C36_4 C42_4 1_555 1_555
C40_4 C41_4 1_555 1_555
C47_4 C48_4 1_555 1_555
C50_4 C56_4 1_555 1_555
C54_4 C55_4 1_555 1_555
N5 C6_4 1_555 1_555
C6_4 C7_4 1_555 1_555
C7_4 C8_4 1_555 1_555
C8_4 C9_4 1_555 1_555
C9_4 C10_4 1_555 1_555
C10_4 N5 1_555 1_555
C22_4 C23_4 1_555 1_555
C23_4 C24_4 1_555 1_555
C24_4 C25_4 1_555 1_555
C25_4 C8_4 1_555 1_555
C26_4 C25_4 1_555 1_555
C27_4 C21_4 1_555 1_555
C28_4 C23_4 1_555 1_555
C29_4 C24_4 1_555 1_555
C30_4 C26_4 1_555 1_555
C31_4 C22_4 1_555 1_555
H5_4 C6_4 1_555 1_555
H6_4 C7_4 1_555 1_555
H7_4 C9_4 1_555 1_555
H8_4 C10_4 1_555 1_555
H9_4 C17_4 1_555 1_555
H10_3 C17_4 1_555 1_555
H11_4 C17_4 1_555 1_555
H19_4 C21_4 1_555 1_555
H20_4 C21_4 1_555 1_555
H21_4 C29_4 1_555 1_555
H22_4 C29_4 1_555 1_555
H23_4 C29_4 1_555 1_555
H24_4 C30_4 1_555 1_555
H25_4 C30_4 1_555 1_555
H26_4 C30_4 1_555 1_555
H27_4 C31_4 1_555 1_555
H28_4 C31_4 1_555 1_555
H30_4 C28_4 1_555 1_555
H48_4 C58_4 1_555 1_555
H49_4 C58_4 1_555 1_555
H50_4 C58_4 1_555 1_555
H51_4 C28_4 1_555 1_555
C22_4 C27_4 1_555 1_555
C26_4 C27_4 1_555 1_555
Ag1_3 N1_5 1_555 1_555
N1_5 C1_5 1_555 1_555
C1_5 C2_5 1_555 1_555
C2_5 C3_5 1_555 1_555
C3_5 C4_5 1_555 1_555
C4_5 C5_5 1_555 1_555
C5_5 N1_5 1_555 1_555
C11_5 C3_5 1_555 1_555
C12_5 C11_5 1_555 1_555
C13_5 C12_5 1_555 1_555
C14_5 C13_5 1_555 1_555
C15_5 C14_5 1_555 1_555
C16_5 C11_5 1_555 1_555
C18_5 C14_5 1_555 1_555
C19_5 C16_5 1_555 1_555
C20_5 C15_5 1_555 1_555
H1_5 C1_5 1_555 1_555
H2_5 C2_5 1_555 1_555
H3_5 C4_5 1_555 1_555
H4_5 C5_5 1_555 1_555
H12_5 C18_5 1_555 1_555
H13_5 C18_5 1_555 1_555
H14_5 C18_5 1_555 1_555
H15_5 C19_5 1_555 1_555
H16_5 C19_5 1_555 1_555
H17_5 C19_5 1_555 1_555
H18_5 C20_5 1_555 1_555
C32_5 C20_5 1_555 1_555
C33_5 C32_5 1_555 1_555
C34_5 C33_5 1_555 1_555
C35_5 C34_5 1_555 1_555
C36_5 C35_5 1_555 1_555
C37_5 C36_5 1_555 1_555
C38_5 C37_5 1_555 1_555
C39_5 C38_5 1_555 1_555
N3_5 C39_5 1_555 1_555
C40_5 N3_5 1_555 1_555
C41_5 C37_5 1_555 1_555
H31_5 C41_5 1_555 1_555
H32_5 C40_5 1_555 1_555
H33_5 C39_5 1_555 1_555
H34_5 C38_5 1_555 1_555
C42_5 C32_5 1_555 1_555
C43_5 C42_5 1_555 1_555
H35_5 C43_5 1_555 1_555
H36_5 C43_5 1_555 1_555
H37_5 C43_5 1_555 1_555
C44_5 C35_5 1_555 1_555
H38_5 C44_5 1_555 1_555
H39_5 C44_5 1_555 1_555
H40_5 C44_5 1_555 1_555
C45_5 C34_5 1_555 1_555
C46_5 C45_5 1_555 1_555
C47_5 C46_5 1_555 1_555
C49_5 C48_5 1_555 1_555
C50_5 C49_5 1_555 1_555
C51_5 C50_5 1_555 1_555
C52_5 C51_5 1_555 1_555
C53_5 C52_5 1_555 1_555
N4_3 C53_5 1_555 1_555
C54_5 N4_3 1_555 1_555
C55_5 C51_5 1_555 1_555
H41_5 C55_5 1_555 1_555
H42_5 C54_5 1_555 1_555
H43_5 C53_5 1_555 1_555
H44_5 C52_5 1_555 1_555
C56_5 C46_5 1_555 1_555
C57_5 C56_5 1_555 1_555
H45_5 C57_5 1_555 1_555
H46_5 C57_5 1_555 1_555
H47_5 C57_5 1_555 1_555
C59_5 C47_5 1_555 1_555
H52_5 C59_5 1_555 1_555
H53_5 C59_5 1_555 1_555
H54_5 C59_5 1_555 1_555
H55_5 C45_5 1_555 1_555
H56_5 C45_5 1_555 1_555
C60_5 C33_5 1_555 1_555
H57_5 C60_5 1_555 1_555
H58_5 C60_5 1_555 1_555
H59_5 C60_5 1_555 1_555
H60_5 C20_5 1_555 1_555
Ag2_3 N3_5 1_555 1_555
N5_3 Ag1_3 1_555 1_555
Ag4_3 N4_3 1_555 1_555
N6_3 Ag2_3 1_555 1_555
C15_5 C16_5 1_555 1_555
C36_5 C42_5 1_555 1_555
C40_5 C41_5 1_555 1_555
C47_5 C48_5 1_555 1_555
C50_5 C56_5 1_555 1_555
C54_5 C55_5 1_555 1_555
N2_3 C6_5 1_555 1_555
C6_5 C7_5 1_555 1_555
C7_5 C8_5 1_555 1_555
C8_5 C9_5 1_555 1_555
C9_5 C10_5 1_555 1_555
C10_5 N2_3 1_555 1_555
C22_5 C23_5 1_555 1_555
C23_5 C24_5 1_555 1_555
C24_5 C25_5 1_555 1_555
C25_5 C8_5 1_555 1_555
C26_5 C25_5 1_555 1_555
C27_5 C21_5 1_555 1_555
C28_5 C23_5 1_555 1_555
C29_5 C24_5 1_555 1_555
C30_5 C26_5 1_555 1_555
C31_5 C22_5 1_555 1_555
H5_5 C6_5 1_555 1_555
H6_5 C7_5 1_555 1_555
H7_5 C9_5 1_555 1_555
H8_5 C10_5 1_555 1_555
H9_5 C17_5 1_555 1_555
H10_4 C17_5 1_555 1_555
H11_5 C17_5 1_555 1_555
H19_5 C21_5 1_555 1_555
H20_5 C21_5 1_555 1_555
H21_5 C29_5 1_555 1_555
H22_5 C29_5 1_555 1_555
H23_5 C29_5 1_555 1_555
H24_5 C30_5 1_555 1_555
H25_5 C30_5 1_555 1_555
H26_5 C30_5 1_555 1_555
H27_5 C31_5 1_555 1_555
H28_5 C31_5 1_555 1_555
H30_5 C28_5 1_555 1_555
H48_5 C58_5 1_555 1_555
H49_5 C58_5 1_555 1_555
H50_5 C58_5 1_555 1_555
H51_5 C28_5 1_555 1_555
Ag3_3 N2_3 1_555 1_555
C22_5 C27_5 1_555 1_555
C26_5 C27_5 1_555 1_555
Ag1_4 N1_6 1_555 1_555
N1_6 C1_6 1_555 1_555
C1_6 C2_6 1_555 1_555
C2_6 C3_6 1_555 1_555
C3_6 C4_6 1_555 1_555
C4_6 C5_6 1_555 1_555
C5_6 N1_6 1_555 1_555
N2_4 C6_6 1_555 1_555
C6_6 C7_6 1_555 1_555
C7_6 C8_6 1_555 1_555
C8_6 C9_6 1_555 1_555
C9_6 C10_6 1_555 1_555
C10_6 N2_4 1_555 1_555
C11_6 C3_6 1_555 1_555
C12_6 C11_6 1_555 1_555
C13_6 C12_6 1_555 1_555
C14_6 C13_6 1_555 1_555
C15_6 C14_6 1_555 1_555
C16_6 C11_6 1_555 1_555
C17_6 C12_6 1_555 1_555
C18_6 C14_6 1_555 1_555
C19_6 C16_6 1_555 1_555
C20_6 C15_6 1_555 1_555
C21_6 C13_6 1_555 1_555
C22_6 C23_6 1_555 1_555
C23_6 C24_6 1_555 1_555
C24_6 C25_6 1_555 1_555
C25_6 C8_6 1_555 1_555
C26_6 C25_6 1_555 1_555
C27_6 C21_6 1_555 1_555
C28_6 C23_6 1_555 1_555
C29_6 C24_6 1_555 1_555
C30_6 C26_6 1_555 1_555
C31_6 C22_6 1_555 1_555
H1_6 C1_6 1_555 1_555
H2_6 C2_6 1_555 1_555
H3_6 C4_6 1_555 1_555
H4_6 C5_6 1_555 1_555
H5_6 C6_6 1_555 1_555
H6_6 C7_6 1_555 1_555
H7_6 C9_6 1_555 1_555
H8_6 C10_6 1_555 1_555
H9_6 C17_6 1_555 1_555
H10_5 C17_6 1_555 1_555
H11_6 C17_6 1_555 1_555
H12_6 C18_6 1_555 1_555
H13_6 C18_6 1_555 1_555
H14_6 C18_6 1_555 1_555
H15_6 C19_6 1_555 1_555
H16_6 C19_6 1_555 1_555
H17_6 C19_6 1_555 1_555
H18_6 C20_6 1_555 1_555
H19_6 C21_6 1_555 1_555
H20_6 C21_6 1_555 1_555
H21_6 C29_6 1_555 1_555
H22_6 C29_6 1_555 1_555
H23_6 C29_6 1_555 1_555
H24_6 C30_6 1_555 1_555
H25_6 C30_6 1_555 1_555
H26_6 C30_6 1_555 1_555
H27_6 C31_6 1_555 1_555
H28_6 C31_6 1_555 1_555
H29_6 C31_6 1_555 1_555
H30_6 C28_6 1_555 1_555
C32_6 C20_6 1_555 1_555
C33_6 C32_6 1_555 1_555
C34_6 C33_6 1_555 1_555
C35_6 C34_6 1_555 1_555
C36_6 C35_6 1_555 1_555
C37_6 C36_6 1_555 1_555
C38_6 C37_6 1_555 1_555
C39_6 C38_6 1_555 1_555
H33_6 C39_6 1_555 1_555
H34_6 C38_6 1_555 1_555
C42_6 C32_6 1_555 1_555
C43_6 C42_6 1_555 1_555
H35_6 C43_6 1_555 1_555
H36_6 C43_6 1_555 1_555
C44_6 C35_6 1_555 1_555
H38_6 C44_6 1_555 1_555
H40_6 C44_6 1_555 1_555
C45_6 C34_6 1_555 1_555
C46_6 C45_6 1_555 1_555
C47_6 C46_6 1_555 1_555
C48_6 C28_6 1_555 1_555
C49_6 C48_6 1_555 1_555
C50_6 C49_6 1_555 1_555
C51_6 C50_6 1_555 1_555
C52_6 C51_6 1_555 1_555
C53_6 C52_6 1_555 1_555
N4_4 C53_6 1_555 1_555
C54_6 N4_4 1_555 1_555
C55_6 C51_6 1_555 1_555
H41_6 C55_6 1_555 1_555
H42_6 C54_6 1_555 1_555
H43_6 C53_6 1_555 1_555
H44_6 C52_6 1_555 1_555
C56_6 C46_6 1_555 1_555
C57_6 C56_6 1_555 1_555
H45_6 C57_6 1_555 1_555
H46_6 C57_6 1_555 1_555
H47_6 C57_6 1_555 1_555
C58_6 C49_6 1_555 1_555
H48_6 C58_6 1_555 1_555
H49_6 C58_6 1_555 1_555
H50_6 C58_6 1_555 1_555
H51_6 C28_6 1_555 1_555
C59_6 C47_6 1_555 1_555
H52_6 C59_6 1_555 1_555
H53_6 C59_6 1_555 1_555
H54_6 C59_6 1_555 1_555
H55_6 C45_6 1_555 1_555
H56_6 C45_6 1_555 1_555
C60_6 C33_6 1_555 1_555
H57_6 C60_6 1_555 1_555
H58_6 C60_6 1_555 1_555
H59_6 C60_6 1_555 1_555
H60_6 C20_6 1_555 1_555
Ag3_4 N2_4 1_555 1_555
C15_6 C16_6 1_555 1_555
C22_6 C27_6 1_555 1_555
C26_6 C27_6 1_555 1_555
C36_6 C42_6 1_555 1_555
C47_6 C48_6 1_555 1_555
C50_6 C56_6 1_555 1_555
C54_6 C55_6 1_555 1_555
C40_6 N3_6 1_555 1_555
H31_6 C41_6 1_555 1_555
H32_6 C40_6 1_555 1_555
Ag2_4 N3_6 1_555 1_555
N6_4 Ag2_4 1_555 1_555
C40_6 C41_6 1_555 1_555
Ag3_3 N1_7 1_555 1_555
N1_7 C1_7 1_555 1_555
C1_7 C2_7 1_555 1_555
C2_7 C3_7 1_555 1_555
C3_7 C4_7 1_555 1_555
C4_7 C5_7 1_555 1_555
C5_7 N1_7 1_555 1_555
N6_4 C6_7 1_555 1_555
C6_7 C7_7 1_555 1_555
C7_7 C8_7 1_555 1_555
C8_7 C9_7 1_555 1_555
C9_7 C10_7 1_555 1_555
C10_7 N6_4 1_555 1_555
C11_7 C3_7 1_555 1_555
C12_7 C11_7 1_555 1_555
C13_7 C12_7 1_555 1_555
C14_7 C13_7 1_555 1_555
C15_7 C14_7 1_555 1_555
C16_7 C11_7 1_555 1_555
C17_7 C12_7 1_555 1_555
C18_7 C14_7 1_555 1_555
C19_7 C16_7 1_555 1_555
C20_7 C15_7 1_555 1_555
C21_7 C13_7 1_555 1_555
C22_7 C23_7 1_555 1_555
C23_7 C24_7 1_555 1_555
C24_7 C25_7 1_555 1_555
C25_7 C8_7 1_555 1_555
C26_7 C25_7 1_555 1_555
C27_7 C21_7 1_555 1_555
C28_7 C23_7 1_555 1_555
C29_7 C24_7 1_555 1_555
C30_7 C26_7 1_555 1_555
C31_7 C22_7 1_555 1_555
H1_7 C1_7 1_555 1_555
H2_7 C2_7 1_555 1_555
H3_7 C4_7 1_555 1_555
H4_7 C5_7 1_555 1_555
H5_7 C6_7 1_555 1_555
H6_7 C7_7 1_555 1_555
H7_7 C9_7 1_555 1_555
H8_7 C10_7 1_555 1_555
H9_7 C17_7 1_555 1_555
H10_6 C17_7 1_555 1_555
H11_7 C17_7 1_555 1_555
H12_7 C18_7 1_555 1_555
H13_7 C18_7 1_555 1_555
H14_7 C18_7 1_555 1_555
H15_7 C19_7 1_555 1_555
H16_7 C19_7 1_555 1_555
H17_7 C19_7 1_555 1_555
H18_7 C20_7 1_555 1_555
H19_7 C21_7 1_555 1_555
H20_7 C21_7 1_555 1_555
H21_7 C29_7 1_555 1_555
H22_7 C29_7 1_555 1_555
H23_7 C29_7 1_555 1_555
H24_7 C30_7 1_555 1_555
H25_7 C30_7 1_555 1_555
H26_7 C30_7 1_555 1_555
H27_7 C31_7 1_555 1_555
H28_7 C31_7 1_555 1_555
H29_7 C31_7 1_555 1_555
H30_7 C28_7 1_555 1_555
C32_7 C20_7 1_555 1_555
C33_7 C32_7 1_555 1_555
C34_7 C33_7 1_555 1_555
C35_7 C34_7 1_555 1_555
C36_7 C35_7 1_555 1_555
C37_7 C36_7 1_555 1_555
C38_7 C37_7 1_555 1_555
C39_7 C38_7 1_555 1_555
N3_7 C39_7 1_555 1_555
C40_7 N3_7 1_555 1_555
C41_7 C37_7 1_555 1_555
H31_7 C41_7 1_555 1_555
H32_7 C40_7 1_555 1_555
H33_7 C39_7 1_555 1_555
H34_7 C38_7 1_555 1_555
C42_7 C32_7 1_555 1_555
C43_7 C42_7 1_555 1_555
H35_7 C43_7 1_555 1_555
H36_7 C43_7 1_555 1_555
H37_7 C43_7 1_555 1_555
C44_7 C35_7 1_555 1_555
H38_7 C44_7 1_555 1_555
H39_7 C44_7 1_555 1_555
H40_7 C44_7 1_555 1_555
C45_7 C34_7 1_555 1_555
C46_7 C45_7 1_555 1_555
C47_7 C46_7 1_555 1_555
C48_7 C28_7 1_555 1_555
C49_7 C48_7 1_555 1_555
C50_7 C49_7 1_555 1_555
C51_7 C50_7 1_555 1_555
C52_7 C51_7 1_555 1_555
C53_7 C52_7 1_555 1_555
N6_3 C53_7 1_555 1_555
C54_7 N6_3 1_555 1_555
C55_7 C51_7 1_555 1_555
H41_7 C55_7 1_555 1_555
H42_7 C54_7 1_555 1_555
H43_7 C53_7 1_555 1_555
H44_7 C52_7 1_555 1_555
C56_7 C46_7 1_555 1_555
C57_7 C56_7 1_555 1_555
H45_7 C57_7 1_555 1_555
H46_7 C57_7 1_555 1_555
H47_7 C57_7 1_555 1_555
C58_7 C49_7 1_555 1_555
H48_7 C58_7 1_555 1_555
H49_7 C58_7 1_555 1_555
H50_7 C58_7 1_555 1_555
H51_7 C28_7 1_555 1_555
C59_7 C47_7 1_555 1_555
H52_7 C59_7 1_555 1_555
H53_7 C59_7 1_555 1_555
H54_7 C59_7 1_555 1_555
H55_7 C45_7 1_555 1_555
H56_7 C45_7 1_555 1_555
C60_7 C33_7 1_555 1_555
H57_7 C60_7 1_555 1_555
H58_7 C60_7 1_555 1_555
H59_7 C60_7 1_555 1_555
H60_7 C20_7 1_555 1_555
Ag3_4 N3_7 1_555 1_555
C15_7 C16_7 1_555 1_555
C22_7 C27_7 1_555 1_555
C26_7 C27_7 1_555 1_555
C36_7 C42_7 1_555 1_555
C40_7 C41_7 1_555 1_555
C47_7 C48_7 1_555 1_555
C50_7 C56_7 1_555 1_555
C54_7 C55_7 1_555 1_555
C1_8 C2_8 1_555 1_555
C2_8 C3_8 1_555 1_555
C11_8 C3_8 1_555 1_555
C12_8 C11_8 1_555 1_555
C13_8 C12_8 1_555 1_555
C14_8 C13_8 1_555 1_555
C15_8 C14_8 1_555 1_555
C16_8 C11_8 1_555 1_555
C18_8 C14_8 1_555 1_555
C19_8 C16_8 1_555 1_555
C20_8 C15_8 1_555 1_555
H1_8 C1_8 1_555 1_555
H2_8 C2_8 1_555 1_555
H12_8 C18_8 1_555 1_555
H13_8 C18_8 1_555 1_555
H14_8 C18_8 1_555 1_555
H15_8 C19_8 1_555 1_555
H16_8 C19_8 1_555 1_555
H18_8 C20_8 1_555 1_555
C32_8 C20_8 1_555 1_555
C33_8 C32_8 1_555 1_555
C34_8 C33_8 1_555 1_555
C35_8 C34_8 1_555 1_555
C36_8 C35_8 1_555 1_555
C37_8 C36_8 1_555 1_555
C38_8 C37_8 1_555 1_555
C39_8 C38_8 1_555 1_555
N3_8 C39_8 1_555 1_555
C40_8 N3_8 1_555 1_555
C41_8 C37_8 1_555 1_555
H31_8 C41_8 1_555 1_555
H32_8 C40_8 1_555 1_555
H33_8 C39_8 1_555 1_555
H34_8 C38_8 1_555 1_555
C42_8 C32_8 1_555 1_555
C43_8 C42_8 1_555 1_555
H35_8 C43_8 1_555 1_555
H36_8 C43_8 1_555 1_555
H37_8 C43_8 1_555 1_555
C44_8 C35_8 1_555 1_555
H38_8 C44_8 1_555 1_555
H39_8 C44_8 1_555 1_555
H40_8 C44_8 1_555 1_555
C45_8 C34_8 1_555 1_555
C46_8 C45_8 1_555 1_555
C47_8 C46_8 1_555 1_555
C49_8 C48_8 1_555 1_555
C50_8 C49_8 1_555 1_555
C51_8 C50_8 1_555 1_555
C52_8 C51_8 1_555 1_555
C53_8 C52_8 1_555 1_555
N5_3 C53_8 1_555 1_555
C54_8 N5_3 1_555 1_555
C55_8 C51_8 1_555 1_555
H41_8 C55_8 1_555 1_555
H42_8 C54_8 1_555 1_555
H43_8 C53_8 1_555 1_555
H44_8 C52_8 1_555 1_555
C56_8 C46_8 1_555 1_555
C57_8 C56_8 1_555 1_555
H45_8 C57_8 1_555 1_555
H46_8 C57_8 1_555 1_555
H47_8 C57_8 1_555 1_555
C59_8 C47_8 1_555 1_555
H52_8 C59_8 1_555 1_555
H53_8 C59_8 1_555 1_555
H54_8 C59_8 1_555 1_555
H55_8 C45_8 1_555 1_555
H56_8 C45_8 1_555 1_555
C60_8 C33_8 1_555 1_555
H57_8 C60_8 1_555 1_555
H58_8 C60_8 1_555 1_555
H59_8 C60_8 1_555 1_555
H60_8 C20_8 1_555 1_555
Ag4_4 N3_8 1_555 1_555
C15_8 C16_8 1_555 1_555
C36_8 C42_8 1_555 1_555
C40_8 C41_8 1_555 1_555
C47_8 C48_8 1_555 1_555
C50_8 C56_8 1_555 1_555
C54_8 C55_8 1_555 1_555
N5_4 C6_8 1_555 1_555
C6_8 C7_8 1_555 1_555
C7_8 C8_8 1_555 1_555
C8_8 C9_8 1_555 1_555
C9_8 C10_8 1_555 1_555
C10_8 N5_4 1_555 1_555
C22_8 C23_8 1_555 1_555
C23_8 C24_8 1_555 1_555
C24_8 C25_8 1_555 1_555
C25_8 C8_8 1_555 1_555
C26_8 C25_8 1_555 1_555
C27_8 C21_8 1_555 1_555
C28_8 C23_8 1_555 1_555
C29_8 C24_8 1_555 1_555
C30_8 C26_8 1_555 1_555
C31_8 C22_8 1_555 1_555
H5_8 C6_8 1_555 1_555
H6_8 C7_8 1_555 1_555
H7_8 C9_8 1_555 1_555
H8_8 C10_8 1_555 1_555
H9_8 C17_8 1_555 1_555
H11_8 C17_8 1_555 1_555
H19_8 C21_8 1_555 1_555
H20_8 C21_8 1_555 1_555
H21_8 C29_8 1_555 1_555
H22_8 C29_8 1_555 1_555
H23_8 C29_8 1_555 1_555
H24_8 C30_8 1_555 1_555
H25_8 C30_8 1_555 1_555
H26_8 C30_8 1_555 1_555
H27_8 C31_8 1_555 1_555
H28_8 C31_8 1_555 1_555
H30_8 C28_8 1_555 1_555
H48_8 C58_8 1_555 1_555
H49_8 C58_8 1_555 1_555
H50_8 C58_8 1_555 1_555
H51_8 C28_8 1_555 1_555
C22_8 C27_8 1_555 1_555
C26_8 C27_8 1_555 1_555
Ag4_3 N1_8 1_555 1_555
C4_8 C5_8 1_555 1_555
C5_8 N1_8 1_555 1_555
H3_8 C4_8 1_555 1_555
H4_8 C5_8 1_555 1_555
Ag1_5 N1_9 1_555 1_555
N1_9 C1_9 1_555 1_555
C1_9 C2_9 1_555 1_555
C2_9 C3_9 1_555 1_555
C3_9 C4_9 1_555 1_555
C4_9 C5_9 1_555 1_555
C5_9 N1_9 1_555 1_555
N2_5 C6_9 1_555 1_555
C6_9 C7_9 1_555 1_555
C7_9 C8_9 1_555 1_555
C8_9 C9_9 1_555 1_555
C9_9 C10_9 1_555 1_555
C10_9 N2_5 1_555 1_555
C11_9 C3_9 1_555 1_555
C12_9 C11_9 1_555 1_555
C13_9 C12_9 1_555 1_555
C14_9 C13_9 1_555 1_555
C15_9 C14_9 1_555 1_555
C16_9 C11_9 1_555 1_555
C17_9 C12_9 1_555 1_555
C18_9 C14_9 1_555 1_555
C19_9 C16_9 1_555 1_555
C20_9 C15_9 1_555 1_555
C21_9 C13_9 1_555 1_555
C22_9 C23_9 1_555 1_555
C23_9 C24_9 1_555 1_555
C24_9 C25_9 1_555 1_555
C25_9 C8_9 1_555 1_555
C26_9 C25_9 1_555 1_555
C27_9 C21_9 1_555 1_555
C28_9 C23_9 1_555 1_555
C29_9 C24_9 1_555 1_555
C30_9 C26_9 1_555 1_555
C31_9 C22_9 1_555 1_555
H1_9 C1_9 1_555 1_555
H2_9 C2_9 1_555 1_555
H3_9 C4_9 1_555 1_555
H4_9 C5_9 1_555 1_555
H5_9 C6_9 1_555 1_555
H6_9 C7_9 1_555 1_555
H7_9 C9_9 1_555 1_555
H8_9 C10_9 1_555 1_555
H9_9 C17_9 1_555 1_555
H10_7 C17_9 1_555 1_555
H11_9 C17_9 1_555 1_555
H12_9 C18_9 1_555 1_555
H13_9 C18_9 1_555 1_555
H14_9 C18_9 1_555 1_555
H15_9 C19_9 1_555 1_555
H16_9 C19_9 1_555 1_555
H17_9 C19_9 1_555 1_555
H18_9 C20_9 1_555 1_555
H19_9 C21_9 1_555 1_555
H20_9 C21_9 1_555 1_555
H21_9 C29_9 1_555 1_555
H22_9 C29_9 1_555 1_555
H23_9 C29_9 1_555 1_555
H24_9 C30_9 1_555 1_555
H25_9 C30_9 1_555 1_555
H26_9 C30_9 1_555 1_555
H27_9 C31_9 1_555 1_555
H28_9 C31_9 1_555 1_555
H29_9 C31_9 1_555 1_555
H30_9 C28_9 1_555 1_555
C32_9 C20_9 1_555 1_555
C33_9 C32_9 1_555 1_555
C34_9 C33_9 1_555 1_555
C35_9 C34_9 1_555 1_555
C36_9 C35_9 1_555 1_555
C37_9 C36_9 1_555 1_555
C38_9 C37_9 1_555 1_555
C39_9 C38_9 1_555 1_555
N3_9 C39_9 1_555 1_555
C40_9 N3_9 1_555 1_555
C41_9 C37_9 1_555 1_555
H31_9 C41_9 1_555 1_555
H32_9 C40_9 1_555 1_555
H33_9 C39_9 1_555 1_555
H34_9 C38_9 1_555 1_555
C42_9 C32_9 1_555 1_555
C43_9 C42_9 1_555 1_555
H35_9 C43_9 1_555 1_555
H36_9 C43_9 1_555 1_555
H37_9 C43_9 1_555 1_555
C44_9 C35_9 1_555 1_555
H38_9 C44_9 1_555 1_555
H39_9 C44_9 1_555 1_555
H40_9 C44_9 1_555 1_555
C45_9 C34_9 1_555 1_555
C46_9 C45_9 1_555 1_555
C47_9 C46_9 1_555 1_555
C48_9 C28_9 1_555 1_555
C49_9 C48_9 1_555 1_555
C50_9 C49_9 1_555 1_555
C51_9 C50_9 1_555 1_555
C52_9 C51_9 1_555 1_555
C53_9 C52_9 1_555 1_555
N4_5 C53_9 1_555 1_555
C54_9 N4_5 1_555 1_555
C55_9 C51_9 1_555 1_555
H41_9 C55_9 1_555 1_555
H42_9 C54_9 1_555 1_555
H43_9 C53_9 1_555 1_555
H44_9 C52_9 1_555 1_555
C56_9 C46_9 1_555 1_555
C57_9 C56_9 1_555 1_555
H45_9 C57_9 1_555 1_555
H46_9 C57_9 1_555 1_555
H47_9 C57_9 1_555 1_555
C58_9 C49_9 1_555 1_555
H48_9 C58_9 1_555 1_555
H49_9 C58_9 1_555 1_555
H50_9 C58_9 1_555 1_555
H51_9 C28_9 1_555 1_555
C59_9 C47_9 1_555 1_555
H52_9 C59_9 1_555 1_555
H53_9 C59_9 1_555 1_555
H54_9 C59_9 1_555 1_555
H55_9 C45_9 1_555 1_555
H56_9 C45_9 1_555 1_555
C60_9 C33_9 1_555 1_555
H57_9 C60_9 1_555 1_555
H58_9 C60_9 1_555 1_555
H59_9 C60_9 1_555 1_555
H60_9 C20_9 1_555 1_555
Ag2_5 N3_9 1_555 1_555
N5_5 Ag1_5 1_555 1_555
Ag3_5 N2_5 1_555 1_555
Ag4_5 N4_5 1_555 1_555
N6_5 Ag2_5 1_555 1_555
C15_9 C16_9 1_555 1_555
C22_9 C27_9 1_555 1_555
C26_9 C27_9 1_555 1_555
C36_9 C42_9 1_555 1_555
C40_9 C41_9 1_555 1_555
C47_9 C48_9 1_555 1_555
C50_9 C56_9 1_555 1_555
C54_9 C55_9 1_555 1_555
Ag1_6 N1_10 1_555 1_555
C4_10 C5_10 1_555 1_555
C5_10 N1_10 1_555 1_555
H3_10 C4_10 1_555 1_555
H4_10 C5_10 1_555 1_555
N5_6 Ag1_6 1_555 1_555
N2_6 C6_10 1_555 1_555
C6_10 C7_10 1_555 1_555
C7_10 C8_10 1_555 1_555
C8_10 C9_10 1_555 1_555
C9_10 C10_10 1_555 1_555
C10_10 N2_6 1_555 1_555
C22_10 C23_10 1_555 1_555
C23_10 C24_10 1_555 1_555
C24_10 C25_10 1_555 1_555
C25_10 C8_10 1_555 1_555
C26_10 C25_10 1_555 1_555
C27_10 C21_10 1_555 1_555
C28_10 C23_10 1_555 1_555
C29_10 C24_10 1_555 1_555
C30_10 C26_10 1_555 1_555
C31_10 C22_10 1_555 1_555
H5_10 C6_10 1_555 1_555
H6_10 C7_10 1_555 1_555
H7_10 C9_10 1_555 1_555
H8_10 C10_10 1_555 1_555
H9_10 C17_10 1_555 1_555
H11_10 C17_10 1_555 1_555
H19_10 C21_10 1_555 1_555
H20_10 C21_10 1_555 1_555
H21_10 C29_10 1_555 1_555
H22_10 C29_10 1_555 1_555
H23_10 C29_10 1_555 1_555
H24_10 C30_10 1_555 1_555
H25_10 C30_10 1_555 1_555
H26_10 C30_10 1_555 1_555
H27_10 C31_10 1_555 1_555
H28_10 C31_10 1_555 1_555
H30_10 C28_10 1_555 1_555
H48_10 C58_10 1_555 1_555
H49_10 C58_10 1_555 1_555
H50_10 C58_10 1_555 1_555
H51_10 C28_10 1_555 1_555
C22_10 C27_10 1_555 1_555
C26_10 C27_10 1_555 1_555
C1_10 C2_10 1_555 1_555
C2_10 C3_10 1_555 1_555
C11_10 C3_10 1_555 1_555
C12_10 C11_10 1_555 1_555
C13_10 C12_10 1_555 1_555
C14_10 C13_10 1_555 1_555
C15_10 C14_10 1_555 1_555
C16_10 C11_10 1_555 1_555
C18_10 C14_10 1_555 1_555
C19_10 C16_10 1_555 1_555
C20_10 C15_10 1_555 1_555
H1_10 C1_10 1_555 1_555
H2_10 C2_10 1_555 1_555
H12_10 C18_10 1_555 1_555
H13_10 C18_10 1_555 1_555
H14_10 C18_10 1_555 1_555
H15_10 C19_10 1_555 1_555
H16_10 C19_10 1_555 1_555
H18_10 C20_10 1_555 1_555
C32_10 C20_10 1_555 1_555
C33_10 C32_10 1_555 1_555
C34_10 C33_10 1_555 1_555
C35_10 C34_10 1_555 1_555
C36_10 C35_10 1_555 1_555
C37_10 C36_10 1_555 1_555
C38_10 C37_10 1_555 1_555
C39_10 C38_10 1_555 1_555
N3_10 C39_10 1_555 1_555
C40_10 N3_10 1_555 1_555
C41_10 C37_10 1_555 1_555
H31_10 C41_10 1_555 1_555
H32_10 C40_10 1_555 1_555
H33_10 C39_10 1_555 1_555
H34_10 C38_10 1_555 1_555
C42_10 C32_10 1_555 1_555
C43_10 C42_10 1_555 1_555
H35_10 C43_10 1_555 1_555
H36_10 C43_10 1_555 1_555
H37_10 C43_10 1_555 1_555
C44_10 C35_10 1_555 1_555
H38_10 C44_10 1_555 1_555
H39_10 C44_10 1_555 1_555
H40_10 C44_10 1_555 1_555
C45_10 C34_10 1_555 1_555
C46_10 C45_10 1_555 1_555
C47_10 C46_10 1_555 1_555
C49_10 C48_10 1_555 1_555
C50_10 C49_10 1_555 1_555
C51_10 C50_10 1_555 1_555
C52_10 C51_10 1_555 1_555
C53_10 C52_10 1_555 1_555
N4_6 C53_10 1_555 1_555
C54_10 N4_6 1_555 1_555
C55_10 C51_10 1_555 1_555
H41_10 C55_10 1_555 1_555
H42_10 C54_10 1_555 1_555
H43_10 C53_10 1_555 1_555
H44_10 C52_10 1_555 1_555
C56_10 C46_10 1_555 1_555
C57_10 C56_10 1_555 1_555
H45_10 C57_10 1_555 1_555
H46_10 C57_10 1_555 1_555
H47_10 C57_10 1_555 1_555
C59_10 C47_10 1_555 1_555
H52_10 C59_10 1_555 1_555
H53_10 C59_10 1_555 1_555
H54_10 C59_10 1_555 1_555
H55_10 C45_10 1_555 1_555
H56_10 C45_10 1_555 1_555
C60_10 C33_10 1_555 1_555
H57_10 C60_10 1_555 1_555
H58_10 C60_10 1_555 1_555
H59_10 C60_10 1_555 1_555
H60_10 C20_10 1_555 1_555
Ag2_6 N3_10 1_555 1_555
Ag4_6 N4_6 1_555 1_555
C15_10 C16_10 1_555 1_555
C36_10 C42_10 1_555 1_555
C40_10 C41_10 1_555 1_555
C47_10 C48_10 1_555 1_555
C50_10 C56_10 1_555 1_555
C54_10 C55_10 1_555 1_555
N5_5 C6_11 1_555 1_555
C6_11 C7_11 1_555 1_555
C7_11 C8_11 1_555 1_555
C8_11 C9_11 1_555 1_555
C9_11 C10_11 1_555 1_555
C10_11 N5_5 1_555 1_555
C22_11 C23_11 1_555 1_555
C23_11 C24_11 1_555 1_555
C24_11 C25_11 1_555 1_555
C25_11 C8_11 1_555 1_555
C26_11 C25_11 1_555 1_555
C27_11 C21_11 1_555 1_555
C28_11 C23_11 1_555 1_555
C29_11 C24_11 1_555 1_555
C30_11 C26_11 1_555 1_555
C31_11 C22_11 1_555 1_555
H5_11 C6_11 1_555 1_555
H6_11 C7_11 1_555 1_555
H7_11 C9_11 1_555 1_555
H8_11 C10_11 1_555 1_555
H9_11 C17_11 1_555 1_555
H10_8 C17_11 1_555 1_555
H11_11 C17_11 1_555 1_555
H19_11 C21_11 1_555 1_555
H20_11 C21_11 1_555 1_555
H21_11 C29_11 1_555 1_555
H22_11 C29_11 1_555 1_555
H23_11 C29_11 1_555 1_555
H24_11 C30_11 1_555 1_555
H25_11 C30_11 1_555 1_555
H26_11 C30_11 1_555 1_555
H27_11 C31_11 1_555 1_555
H28_11 C31_11 1_555 1_555
H30_11 C28_11 1_555 1_555
H48_11 C58_11 1_555 1_555
H49_11 C58_11 1_555 1_555
H50_11 C58_11 1_555 1_555
H51_11 C28_11 1_555 1_555
C22_11 C27_11 1_555 1_555
C26_11 C27_11 1_555 1_555
Ag4_6 N1_11 1_555 1_555
N1_11 C1_11 1_555 1_555
C1_11 C2_11 1_555 1_555
C2_11 C3_11 1_555 1_555
C3_11 C4_11 1_555 1_555
C4_11 C5_11 1_555 1_555
C5_11 N1_11 1_555 1_555
C11_11 C3_11 1_555 1_555
C12_11 C11_11 1_555 1_555
C13_11 C12_11 1_555 1_555
C14_11 C13_11 1_555 1_555
C15_11 C14_11 1_555 1_555
C16_11 C11_11 1_555 1_555
C18_11 C14_11 1_555 1_555
C19_11 C16_11 1_555 1_555
C20_11 C15_11 1_555 1_555
H1_11 C1_11 1_555 1_555
H2_11 C2_11 1_555 1_555
H3_11 C4_11 1_555 1_555
H4_11 C5_11 1_555 1_555
H12_11 C18_11 1_555 1_555
H13_11 C18_11 1_555 1_555
H14_11 C18_11 1_555 1_555
H15_11 C19_11 1_555 1_555
H16_11 C19_11 1_555 1_555
H17_11 C19_11 1_555 1_555
H18_11 C20_11 1_555 1_555
C32_11 C20_11 1_555 1_555
C33_11 C32_11 1_555 1_555
C34_11 C33_11 1_555 1_555
C35_11 C34_11 1_555 1_555
C36_11 C35_11 1_555 1_555
C37_11 C36_11 1_555 1_555
C38_11 C37_11 1_555 1_555
C39_11 C38_11 1_555 1_555
N3_11 C39_11 1_555 1_555
C40_11 N3_11 1_555 1_555
C41_11 C37_11 1_555 1_555
H31_11 C41_11 1_555 1_555
H32_11 C40_11 1_555 1_555
H33_11 C39_11 1_555 1_555
H34_11 C38_11 1_555 1_555
C42_11 C32_11 1_555 1_555
C43_11 C42_11 1_555 1_555
H35_11 C43_11 1_555 1_555
H36_11 C43_11 1_555 1_555
H37_11 C43_11 1_555 1_555
C44_11 C35_11 1_555 1_555
H38_11 C44_11 1_555 1_555
H39_11 C44_11 1_555 1_555
H40_11 C44_11 1_555 1_555
C45_11 C34_11 1_555 1_555
C46_11 C45_11 1_555 1_555
C47_11 C46_11 1_555 1_555
C49_11 C48_11 1_555 1_555
C50_11 C49_11 1_555 1_555
C51_11 C50_11 1_555 1_555
C52_11 C51_11 1_555 1_555
C53_11 C52_11 1_555 1_555
N5_6 C53_11 1_555 1_555
C54_11 N5_6 1_555 1_555
C55_11 C51_11 1_555 1_555
H41_11 C55_11 1_555 1_555
H42_11 C54_11 1_555 1_555
H43_11 C53_11 1_555 1_555
H44_11 C52_11 1_555 1_555
C56_11 C46_11 1_555 1_555
C57_11 C56_11 1_555 1_555
H45_11 C57_11 1_555 1_555
H46_11 C57_11 1_555 1_555
H47_11 C57_11 1_555 1_555
C59_11 C47_11 1_555 1_555
H52_11 C59_11 1_555 1_555
H53_11 C59_11 1_555 1_555
H54_11 C59_11 1_555 1_555
H55_11 C45_11 1_555 1_555
H56_11 C45_11 1_555 1_555
C60_11 C33_11 1_555 1_555
H57_11 C60_11 1_555 1_555
H58_11 C60_11 1_555 1_555
H59_11 C60_11 1_555 1_555
H60_11 C20_11 1_555 1_555
Ag4_5 N3_11 1_555 1_555
C15_11 C16_11 1_555 1_555
C36_11 C42_11 1_555 1_555
C40_11 C41_11 1_555 1_555
C47_11 C48_11 1_555 1_555
C50_11 C56_11 1_555 1_555
C54_11 C55_11 1_555 1_555
C40_12 N3_12 1_555 1_555
H31_12 C41_12 1_555 1_555
H32_12 C40_12 1_555 1_555
Ag3_5 N3_12 1_555 1_555
C40_12 C41_12 1_555 1_555
Ag3_6 N1_12 1_555 1_555
N1_12 C1_12 1_555 1_555
C1_12 C2_12 1_555 1_555
C2_12 C3_12 1_555 1_555
C3_12 C4_12 1_555 1_555
C4_12 C5_12 1_555 1_555
C5_12 N1_12 1_555 1_555
N6_5 C6_12 1_555 1_555
C6_12 C7_12 1_555 1_555
C7_12 C8_12 1_555 1_555
C8_12 C9_12 1_555 1_555
C9_12 C10_12 1_555 1_555
C10_12 N6_5 1_555 1_555
C11_12 C3_12 1_555 1_555
C12_12 C11_12 1_555 1_555
C13_12 C12_12 1_555 1_555
C14_12 C13_12 1_555 1_555
C15_12 C14_12 1_555 1_555
C16_12 C11_12 1_555 1_555
C17_12 C12_12 1_555 1_555
C18_12 C14_12 1_555 1_555
C19_12 C16_12 1_555 1_555
C20_12 C15_12 1_555 1_555
C21_12 C13_12 1_555 1_555
C22_12 C23_12 1_555 1_555
C23_12 C24_12 1_555 1_555
C24_12 C25_12 1_555 1_555
C25_12 C8_12 1_555 1_555
C26_12 C25_12 1_555 1_555
C27_12 C21_12 1_555 1_555
C28_12 C23_12 1_555 1_555
C29_12 C24_12 1_555 1_555
C30_12 C26_12 1_555 1_555
C31_12 C22_12 1_555 1_555
H1_12 C1_12 1_555 1_555
H2_12 C2_12 1_555 1_555
H3_12 C4_12 1_555 1_555
H4_12 C5_12 1_555 1_555
H5_12 C6_12 1_555 1_555
H6_12 C7_12 1_555 1_555
H7_12 C9_12 1_555 1_555
H8_12 C10_12 1_555 1_555
H9_12 C17_12 1_555 1_555
H10_9 C17_12 1_555 1_555
H11_12 C17_12 1_555 1_555
H12_12 C18_12 1_555 1_555
H13_12 C18_12 1_555 1_555
H14_12 C18_12 1_555 1_555
H15_12 C19_12 1_555 1_555
H16_12 C19_12 1_555 1_555
H17_12 C19_12 1_555 1_555
H18_12 C20_12 1_555 1_555
H19_12 C21_12 1_555 1_555
H20_12 C21_12 1_555 1_555
H21_12 C29_12 1_555 1_555
H22_12 C29_12 1_555 1_555
H23_12 C29_12 1_555 1_555
H24_12 C30_12 1_555 1_555
H25_12 C30_12 1_555 1_555
H26_12 C30_12 1_555 1_555
H27_12 C31_12 1_555 1_555
H28_12 C31_12 1_555 1_555
H29_12 C31_12 1_555 1_555
H30_12 C28_12 1_555 1_555
C32_12 C20_12 1_555 1_555
C33_12 C32_12 1_555 1_555
C34_12 C33_12 1_555 1_555
C35_12 C34_12 1_555 1_555
C36_12 C35_12 1_555 1_555
C37_12 C36_12 1_555 1_555
C38_12 C37_12 1_555 1_555
C39_12 C38_12 1_555 1_555
H33_12 C39_12 1_555 1_555
H34_12 C38_12 1_555 1_555
C42_12 C32_12 1_555 1_555
C43_12 C42_12 1_555 1_555
H35_12 C43_12 1_555 1_555
H36_12 C43_12 1_555 1_555
C44_12 C35_12 1_555 1_555
H38_12 C44_12 1_555 1_555
H40_12 C44_12 1_555 1_555
C45_12 C34_12 1_555 1_555
C46_12 C45_12 1_555 1_555
C47_12 C46_12 1_555 1_555
C48_12 C28_12 1_555 1_555
C49_12 C48_12 1_555 1_555
C50_12 C49_12 1_555 1_555
C51_12 C50_12 1_555 1_555
C52_12 C51_12 1_555 1_555
C53_12 C52_12 1_555 1_555
N6_6 C53_12 1_555 1_555
C54_12 N6_6 1_555 1_555
C55_12 C51_12 1_555 1_555
H41_12 C55_12 1_555 1_555
H42_12 C54_12 1_555 1_555
H43_12 C53_12 1_555 1_555
H44_12 C52_12 1_555 1_555
C56_12 C46_12 1_555 1_555
C57_12 C56_12 1_555 1_555
H45_12 C57_12 1_555 1_555
H46_12 C57_12 1_555 1_555
H47_12 C57_12 1_555 1_555
C58_12 C49_12 1_555 1_555
H48_12 C58_12 1_555 1_555
H49_12 C58_12 1_555 1_555
H50_12 C58_12 1_555 1_555
H51_12 C28_12 1_555 1_555
C59_12 C47_12 1_555 1_555
H52_12 C59_12 1_555 1_555
H53_12 C59_12 1_555 1_555
H54_12 C59_12 1_555 1_555
H55_12 C45_12 1_555 1_555
H56_12 C45_12 1_555 1_555
C60_12 C33_12 1_555 1_555
H57_12 C60_12 1_555 1_555
H58_12 C60_12 1_555 1_555
H59_12 C60_12 1_555 1_555
H60_12 C20_12 1_555 1_555
C15_12 C16_12 1_555 1_555
C22_12 C27_12 1_555 1_555
C26_12 C27_12 1_555 1_555
C36_12 C42_12 1_555 1_555
C47_12 C48_12 1_555 1_555
C50_12 C56_12 1_555 1_555
C54_12 C55_12 1_555 1_555
Ag1_7 N1_13 1_555 1_555
N1_13 C1_13 1_555 1_555
C1_13 C2_13 1_555 1_555
C2_13 C3_13 1_555 1_555
C3_13 C4_13 1_555 1_555
C4_13 C5_13 1_555 1_555
C5_13 N1_13 1_555 1_555
N2_7 C6_13 1_555 1_555
C6_13 C7_13 1_555 1_555
C7_13 C8_13 1_555 1_555
C8_13 C9_13 1_555 1_555
C9_13 C10_13 1_555 1_555
C10_13 N2_7 1_555 1_555
C11_13 C3_13 1_555 1_555
C12_13 C11_13 1_555 1_555
C13_13 C12_13 1_555 1_555
C14_13 C13_13 1_555 1_555
C15_13 C14_13 1_555 1_555
C16_13 C11_13 1_555 1_555
C17_13 C12_13 1_555 1_555
C18_13 C14_13 1_555 1_555
C19_13 C16_13 1_555 1_555
C20_13 C15_13 1_555 1_555
C21_13 C13_13 1_555 1_555
C22_13 C23_13 1_555 1_555
C23_13 C24_13 1_555 1_555
C24_13 C25_13 1_555 1_555
C25_13 C8_13 1_555 1_555
C26_13 C25_13 1_555 1_555
C27_13 C21_13 1_555 1_555
C28_13 C23_13 1_555 1_555
C29_13 C24_13 1_555 1_555
C30_13 C26_13 1_555 1_555
C31_13 C22_13 1_555 1_555
H1_13 C1_13 1_555 1_555
H2_13 C2_13 1_555 1_555
H3_13 C4_13 1_555 1_555
H4_13 C5_13 1_555 1_555
H5_13 C6_13 1_555 1_555
H6_13 C7_13 1_555 1_555
H7_13 C9_13 1_555 1_555
H8_13 C10_13 1_555 1_555
H9_13 C17_13 1_555 1_555
H10_10 C17_13 1_555 1_555
H11_13 C17_13 1_555 1_555
H12_13 C18_13 1_555 1_555
H13_13 C18_13 1_555 1_555
H14_13 C18_13 1_555 1_555
H15_13 C19_13 1_555 1_555
H16_13 C19_13 1_555 1_555
H17_13 C19_13 1_555 1_555
H18_13 C20_13 1_555 1_555
H19_13 C21_13 1_555 1_555
H20_13 C21_13 1_555 1_555
H21_13 C29_13 1_555 1_555
H22_13 C29_13 1_555 1_555
H23_13 C29_13 1_555 1_555
H24_13 C30_13 1_555 1_555
H25_13 C30_13 1_555 1_555
H26_13 C30_13 1_555 1_555
H27_13 C31_13 1_555 1_555
H28_13 C31_13 1_555 1_555
H29_13 C31_13 1_555 1_555
H30_13 C28_13 1_555 1_555
C32_13 C20_13 1_555 1_555
C33_13 C32_13 1_555 1_555
C34_13 C33_13 1_555 1_555
C35_13 C34_13 1_555 1_555
C36_13 C35_13 1_555 1_555
C37_13 C36_13 1_555 1_555
C38_13 C37_13 1_555 1_555
C39_13 C38_13 1_555 1_555
H33_13 C39_13 1_555 1_555
H34_13 C38_13 1_555 1_555
C42_13 C32_13 1_555 1_555
C43_13 C42_13 1_555 1_555
H35_13 C43_13 1_555 1_555
H36_13 C43_13 1_555 1_555
C44_13 C35_13 1_555 1_555
H38_13 C44_13 1_555 1_555
H40_13 C44_13 1_555 1_555
C45_13 C34_13 1_555 1_555
C46_13 C45_13 1_555 1_555
C47_13 C46_13 1_555 1_555
C48_13 C28_13 1_555 1_555
C49_13 C48_13 1_555 1_555
C50_13 C49_13 1_555 1_555
C51_13 C50_13 1_555 1_555
C52_13 C51_13 1_555 1_555
C53_13 C52_13 1_555 1_555
N4_7 C53_13 1_555 1_555
C54_13 N4_7 1_555 1_555
C55_13 C51_13 1_555 1_555
H41_13 C55_13 1_555 1_555
H42_13 C54_13 1_555 1_555
H43_13 C53_13 1_555 1_555
H44_13 C52_13 1_555 1_555
C56_13 C46_13 1_555 1_555
C57_13 C56_13 1_555 1_555
H45_13 C57_13 1_555 1_555
H46_13 C57_13 1_555 1_555
H47_13 C57_13 1_555 1_555
C58_13 C49_13 1_555 1_555
H48_13 C58_13 1_555 1_555
H49_13 C58_13 1_555 1_555
H50_13 C58_13 1_555 1_555
H51_13 C28_13 1_555 1_555
C59_13 C47_13 1_555 1_555
H52_13 C59_13 1_555 1_555
H53_13 C59_13 1_555 1_555
H54_13 C59_13 1_555 1_555
H55_13 C45_13 1_555 1_555
H56_13 C45_13 1_555 1_555
C60_13 C33_13 1_555 1_555
H57_13 C60_13 1_555 1_555
H58_13 C60_13 1_555 1_555
H59_13 C60_13 1_555 1_555
H60_13 C20_13 1_555 1_555
N5_7 Ag1_7 1_555 1_555
Ag3_7 N2_7 1_555 1_555
Ag4_7 N4_7 1_555 1_555
C15_13 C16_13 1_555 1_555
C22_13 C27_13 1_555 1_555
C26_13 C27_13 1_555 1_555
C36_13 C42_13 1_555 1_555
C47_13 C48_13 1_555 1_555
C50_13 C56_13 1_555 1_555
C54_13 C55_13 1_555 1_555
C40_13 N3_13 1_555 1_555
H31_13 C41_13 1_555 1_555
H32_13 C40_13 1_555 1_555
Ag2_7 N3_13 1_555 1_555
N6_7 Ag2_7 1_555 1_555
C40_13 C41_13 1_555 1_555
N2_8 C6_14 1_555 1_555
C6_14 C7_14 1_555 1_555
C7_14 C8_14 1_555 1_555
C8_14 C9_14 1_555 1_555
C9_14 C10_14 1_555 1_555
C10_14 N2_8 1_555 1_555
C22_14 C23_14 1_555 1_555
C23_14 C24_14 1_555 1_555
C24_14 C25_14 1_555 1_555
C25_14 C8_14 1_555 1_555
C26_14 C25_14 1_555 1_555
C27_14 C21_14 1_555 1_555
C28_14 C23_14 1_555 1_555
C29_14 C24_14 1_555 1_555
C30_14 C26_14 1_555 1_555
C31_14 C22_14 1_555 1_555
H5_14 C6_14 1_555 1_555
H6_14 C7_14 1_555 1_555
H7_14 C9_14 1_555 1_555
H8_14 C10_14 1_555 1_555
H9_14 C17_14 1_555 1_555
H10_11 C17_14 1_555 1_555
H11_14 C17_14 1_555 1_555
H19_14 C21_14 1_555 1_555
H20_14 C21_14 1_555 1_555
H21_14 C29_14 1_555 1_555
H22_14 C29_14 1_555 1_555
H23_14 C29_14 1_555 1_555
H24_14 C30_14 1_555 1_555
H25_14 C30_14 1_555 1_555
H26_14 C30_14 1_555 1_555
H27_14 C31_14 1_555 1_555
H28_14 C31_14 1_555 1_555
H30_14 C28_14 1_555 1_555
H48_14 C58_14 1_555 1_555
H49_14 C58_14 1_555 1_555
H50_14 C58_14 1_555 1_555
H51_14 C28_14 1_555 1_555
C22_14 C27_14 1_555 1_555
C26_14 C27_14 1_555 1_555
Ag1_8 N1_14 1_555 1_555
N1_14 C1_14 1_555 1_555
C1_14 C2_14 1_555 1_555
C2_14 C3_14 1_555 1_555
C3_14 C4_14 1_555 1_555
C4_14 C5_14 1_555 1_555
C5_14 N1_14 1_555 1_555
C11_14 C3_14 1_555 1_555
C12_14 C11_14 1_555 1_555
C13_14 C12_14 1_555 1_555
C14_14 C13_14 1_555 1_555
C15_14 C14_14 1_555 1_555
C16_14 C11_14 1_555 1_555
C18_14 C14_14 1_555 1_555
C19_14 C16_14 1_555 1_555
C20_14 C15_14 1_555 1_555
H1_14 C1_14 1_555 1_555
H2_14 C2_14 1_555 1_555
H3_14 C4_14 1_555 1_555
H4_14 C5_14 1_555 1_555
H12_14 C18_14 1_555 1_555
H13_14 C18_14 1_555 1_555
H14_14 C18_14 1_555 1_555
H15_14 C19_14 1_555 1_555
H16_14 C19_14 1_555 1_555
H17_14 C19_14 1_555 1_555
H18_14 C20_14 1_555 1_555
C32_14 C20_14 1_555 1_555
C33_14 C32_14 1_555 1_555
C34_14 C33_14 1_555 1_555
C35_14 C34_14 1_555 1_555
C36_14 C35_14 1_555 1_555
C37_14 C36_14 1_555 1_555
C38_14 C37_14 1_555 1_555
C39_14 C38_14 1_555 1_555
N3_14 C39_14 1_555 1_555
C40_14 N3_14 1_555 1_555
C41_14 C37_14 1_555 1_555
H31_14 C41_14 1_555 1_555
H32_14 C40_14 1_555 1_555
H33_14 C39_14 1_555 1_555
H34_14 C38_14 1_555 1_555
C42_14 C32_14 1_555 1_555
C43_14 C42_14 1_555 1_555
H35_14 C43_14 1_555 1_555
H36_14 C43_14 1_555 1_555
H37_14 C43_14 1_555 1_555
C44_14 C35_14 1_555 1_555
H38_14 C44_14 1_555 1_555
H39_14 C44_14 1_555 1_555
H40_14 C44_14 1_555 1_555
C45_14 C34_14 1_555 1_555
C46_14 C45_14 1_555 1_555
C47_14 C46_14 1_555 1_555
C49_14 C48_14 1_555 1_555
C50_14 C49_14 1_555 1_555
C51_14 C50_14 1_555 1_555
C52_14 C51_14 1_555 1_555
C53_14 C52_14 1_555 1_555
N4_8 C53_14 1_555 1_555
C54_14 N4_8 1_555 1_555
C55_14 C51_14 1_555 1_555
H41_14 C55_14 1_555 1_555
H42_14 C54_14 1_555 1_555
H43_14 C53_14 1_555 1_555
H44_14 C52_14 1_555 1_555
C56_14 C46_14 1_555 1_555
C57_14 C56_14 1_555 1_555
H45_14 C57_14 1_555 1_555
H46_14 C57_14 1_555 1_555
H47_14 C57_14 1_555 1_555
C59_14 C47_14 1_555 1_555
H52_14 C59_14 1_555 1_555
H53_14 C59_14 1_555 1_555
H54_14 C59_14 1_555 1_555
H55_14 C45_14 1_555 1_555
H56_14 C45_14 1_555 1_555
C60_14 C33_14 1_555 1_555
H57_14 C60_14 1_555 1_555
H58_14 C60_14 1_555 1_555
H59_14 C60_14 1_555 1_555
H60_14 C20_14 1_555 1_555
Ag2_8 N3_14 1_555 1_555
N5_8 Ag1_8 1_555 1_555
Ag4_8 N4_8 1_555 1_555
C15_14 C16_14 1_555 1_555
C36_14 C42_14 1_555 1_555
C40_14 C41_14 1_555 1_555
C47_14 C48_14 1_555 1_555
C50_14 C56_14 1_555 1_555
C54_14 C55_14 1_555 1_555
Ag3_8 N1_15 1_555 1_555
N1_15 C1_15 1_555 1_555
C1_15 C2_15 1_555 1_555
C2_15 C3_15 1_555 1_555
C3_15 C4_15 1_555 1_555
C4_15 C5_15 1_555 1_555
C5_15 N1_15 1_555 1_555
N6_7 C6_15 1_555 1_555
C6_15 C7_15 1_555 1_555
C7_15 C8_15 1_555 1_555
C8_15 C9_15 1_555 1_555
C9_15 C10_15 1_555 1_555
C10_15 N6_7 1_555 1_555
C11_15 C3_15 1_555 1_555
C12_15 C11_15 1_555 1_555
C13_15 C12_15 1_555 1_555
C14_15 C13_15 1_555 1_555
C15_15 C14_15 1_555 1_555
C16_15 C11_15 1_555 1_555
C17_15 C12_15 1_555 1_555
C18_15 C14_15 1_555 1_555
C19_15 C16_15 1_555 1_555
C20_15 C15_15 1_555 1_555
C21_15 C13_15 1_555 1_555
C22_15 C23_15 1_555 1_555
C23_15 C24_15 1_555 1_555
C24_15 C25_15 1_555 1_555
C25_15 C8_15 1_555 1_555
C26_15 C25_15 1_555 1_555
C27_15 C21_15 1_555 1_555
C28_15 C23_15 1_555 1_555
C29_15 C24_15 1_555 1_555
C30_15 C26_15 1_555 1_555
C31_15 C22_15 1_555 1_555
H1_15 C1_15 1_555 1_555
H2_15 C2_15 1_555 1_555
H3_15 C4_15 1_555 1_555
H4_15 C5_15 1_555 1_555
H5_15 C6_15 1_555 1_555
H6_15 C7_15 1_555 1_555
H7_15 C9_15 1_555 1_555
H8_15 C10_15 1_555 1_555
H9_15 C17_15 1_555 1_555
H10_12 C17_15 1_555 1_555
H11_15 C17_15 1_555 1_555
H12_15 C18_15 1_555 1_555
H13_15 C18_15 1_555 1_555
H14_15 C18_15 1_555 1_555
H15_15 C19_15 1_555 1_555
H16_15 C19_15 1_555 1_555
H17_15 C19_15 1_555 1_555
H18_15 C20_15 1_555 1_555
H19_15 C21_15 1_555 1_555
H20_15 C21_15 1_555 1_555
H21_15 C29_15 1_555 1_555
H22_15 C29_15 1_555 1_555
H23_15 C29_15 1_555 1_555
H24_15 C30_15 1_555 1_555
H25_15 C30_15 1_555 1_555
H26_15 C30_15 1_555 1_555
H27_15 C31_15 1_555 1_555
H28_15 C31_15 1_555 1_555
H29_15 C31_15 1_555 1_555
H30_15 C28_15 1_555 1_555
C32_15 C20_15 1_555 1_555
C33_15 C32_15 1_555 1_555
C34_15 C33_15 1_555 1_555
C35_15 C34_15 1_555 1_555
C36_15 C35_15 1_555 1_555
C37_15 C36_15 1_555 1_555
C38_15 C37_15 1_555 1_555
C39_15 C38_15 1_555 1_555
N3_15 C39_15 1_555 1_555
C40_15 N3_15 1_555 1_555
C41_15 C37_15 1_555 1_555
H31_15 C41_15 1_555 1_555
H32_15 C40_15 1_555 1_555
H33_15 C39_15 1_555 1_555
H34_15 C38_15 1_555 1_555
C42_15 C32_15 1_555 1_555
C43_15 C42_15 1_555 1_555
H35_15 C43_15 1_555 1_555
H36_15 C43_15 1_555 1_555
H37_15 C43_15 1_555 1_555
C44_15 C35_15 1_555 1_555
H38_15 C44_15 1_555 1_555
H39_15 C44_15 1_555 1_555
H40_15 C44_15 1_555 1_555
C45_15 C34_15 1_555 1_555
C46_15 C45_15 1_555 1_555
C47_15 C46_15 1_555 1_555
C48_15 C28_15 1_555 1_555
C49_15 C48_15 1_555 1_555
C50_15 C49_15 1_555 1_555
C51_15 C50_15 1_555 1_555
C52_15 C51_15 1_555 1_555
C53_15 C52_15 1_555 1_555
N6_8 C53_15 1_555 1_555
C54_15 N6_8 1_555 1_555
C55_15 C51_15 1_555 1_555
H41_15 C55_15 1_555 1_555
H42_15 C54_15 1_555 1_555
H43_15 C53_15 1_555 1_555
H44_15 C52_15 1_555 1_555
C56_15 C46_15 1_555 1_555
C57_15 C56_15 1_555 1_555
H45_15 C57_15 1_555 1_555
H46_15 C57_15 1_555 1_555
H47_15 C57_15 1_555 1_555
C58_15 C49_15 1_555 1_555
H48_15 C58_15 1_555 1_555
H49_15 C58_15 1_555 1_555
H50_15 C58_15 1_555 1_555
H51_15 C28_15 1_555 1_555
C59_15 C47_15 1_555 1_555
H52_15 C59_15 1_555 1_555
H53_15 C59_15 1_555 1_555
H54_15 C59_15 1_555 1_555
H55_15 C45_15 1_555 1_555
H56_15 C45_15 1_555 1_555
C60_15 C33_15 1_555 1_555
H57_15 C60_15 1_555 1_555
H58_15 C60_15 1_555 1_555
H59_15 C60_15 1_555 1_555
H60_15 C20_15 1_555 1_555
Ag3_7 N3_15 1_555 1_555
C15_15 C16_15 1_555 1_555
C22_15 C27_15 1_555 1_555
C26_15 C27_15 1_555 1_555
C36_15 C42_15 1_555 1_555
C40_15 C41_15 1_555 1_555
C47_15 C48_15 1_555 1_555
C50_15 C56_15 1_555 1_555
C54_15 C55_15 1_555 1_555
N5_7 C6_16 1_555 1_555
C6_16 C7_16 1_555 1_555
C7_16 C8_16 1_555 1_555
C8_16 C9_16 1_555 1_555
C9_16 C10_16 1_555 1_555
C10_16 N5_7 1_555 1_555
C22_16 C23_16 1_555 1_555
C23_16 C24_16 1_555 1_555
C24_16 C25_16 1_555 1_555
C25_16 C8_16 1_555 1_555
C26_16 C25_16 1_555 1_555
C27_16 C21_16 1_555 1_555
C28_16 C23_16 1_555 1_555
C29_16 C24_16 1_555 1_555
C30_16 C26_16 1_555 1_555
C31_16 C22_16 1_555 1_555
H5_16 C6_16 1_555 1_555
H6_16 C7_16 1_555 1_555
H7_16 C9_16 1_555 1_555
H8_16 C10_16 1_555 1_555
H9_16 C17_16 1_555 1_555
H11_16 C17_16 1_555 1_555
H19_16 C21_16 1_555 1_555
H20_16 C21_16 1_555 1_555
H21_16 C29_16 1_555 1_555
H22_16 C29_16 1_555 1_555
H23_16 C29_16 1_555 1_555
H24_16 C30_16 1_555 1_555
H25_16 C30_16 1_555 1_555
H26_16 C30_16 1_555 1_555
H27_16 C31_16 1_555 1_555
H28_16 C31_16 1_555 1_555
H30_16 C28_16 1_555 1_555
H48_16 C58_16 1_555 1_555
H49_16 C58_16 1_555 1_555
H50_16 C58_16 1_555 1_555
H51_16 C28_16 1_555 1_555
C22_16 C27_16 1_555 1_555
C26_16 C27_16 1_555 1_555
C1_16 C2_16 1_555 1_555
C2_16 C3_16 1_555 1_555
C11_16 C3_16 1_555 1_555
C12_16 C11_16 1_555 1_555
C13_16 C12_16 1_555 1_555
C14_16 C13_16 1_555 1_555
C15_16 C14_16 1_555 1_555
C16_16 C11_16 1_555 1_555
C18_16 C14_16 1_555 1_555
C19_16 C16_16 1_555 1_555
C20_16 C15_16 1_555 1_555
H1_16 C1_16 1_555 1_555
H2_16 C2_16 1_555 1_555
H12_16 C18_16 1_555 1_555
H13_16 C18_16 1_555 1_555
H14_16 C18_16 1_555 1_555
H15_16 C19_16 1_555 1_555
H16_16 C19_16 1_555 1_555
H18_16 C20_16 1_555 1_555
C32_16 C20_16 1_555 1_555
C33_16 C32_16 1_555 1_555
C34_16 C33_16 1_555 1_555
C35_16 C34_16 1_555 1_555
C36_16 C35_16 1_555 1_555
C37_16 C36_16 1_555 1_555
C38_16 C37_16 1_555 1_555
C39_16 C38_16 1_555 1_555
N3_16 C39_16 1_555 1_555
C40_16 N3_16 1_555 1_555
C41_16 C37_16 1_555 1_555
H31_16 C41_16 1_555 1_555
H32_16 C40_16 1_555 1_555
H33_16 C39_16 1_555 1_555
H34_16 C38_16 1_555 1_555
C42_16 C32_16 1_555 1_555
C43_16 C42_16 1_555 1_555
H35_16 C43_16 1_555 1_555
H36_16 C43_16 1_555 1_555
H37_16 C43_16 1_555 1_555
C44_16 C35_16 1_555 1_555
H38_16 C44_16 1_555 1_555
H39_16 C44_16 1_555 1_555
H40_16 C44_16 1_555 1_555
C45_16 C34_16 1_555 1_555
C46_16 C45_16 1_555 1_555
C47_16 C46_16 1_555 1_555
C49_16 C48_16 1_555 1_555
C50_16 C49_16 1_555 1_555
C51_16 C50_16 1_555 1_555
C52_16 C51_16 1_555 1_555
C53_16 C52_16 1_555 1_555
N5_8 C53_16 1_555 1_555
C54_16 N5_8 1_555 1_555
C55_16 C51_16 1_555 1_555
H41_16 C55_16 1_555 1_555
H42_16 C54_16 1_555 1_555
H43_16 C53_16 1_555 1_555
H44_16 C52_16 1_555 1_555
C56_16 C46_16 1_555 1_555
C57_16 C56_16 1_555 1_555
H45_16 C57_16 1_555 1_555
H46_16 C57_16 1_555 1_555
H47_16 C57_16 1_555 1_555
C59_16 C47_16 1_555 1_555
H52_16 C59_16 1_555 1_555
H53_16 C59_16 1_555 1_555
H54_16 C59_16 1_555 1_555
H55_16 C45_16 1_555 1_555
H56_16 C45_16 1_555 1_555
C60_16 C33_16 1_555 1_555
H57_16 C60_16 1_555 1_555
H58_16 C60_16 1_555 1_555
H59_16 C60_16 1_555 1_555
H60_16 C20_16 1_555 1_555
Ag4_7 N3_16 1_555 1_555
C15_16 C16_16 1_555 1_555
C36_16 C42_16 1_555 1_555
C40_16 C41_16 1_555 1_555
C47_16 C48_16 1_555 1_555
C50_16 C56_16 1_555 1_555
C54_16 C55_16 1_555 1_555
Ag4_8 N1_16 1_555 1_555
C4_16 C5_16 1_555 1_555
C5_16 N1_16 1_555 1_555
H3_16 C4_16 1_555 1_555
H4_16 C5_16 1_555 1_555
P1 F1 1_555 1_555
F2 P1 1_555 1_555
F3 P1 1_555 1_555
F4 P1 1_555 1_555
F5 P1 1_555 1_555
F6 P1 1_555 1_555
F2_2 P1_2 1_555 1_555
F3_2 P1_2 1_555 1_555
F4_2 P1_2 1_555 1_555
F5_2 P1_2 1_555 1_555
F6_2 P1_2 1_555 1_555
P1_3 F1_3 1_555 1_555
F2_3 P1_3 1_555 1_555
F3_3 P1_3 1_555 1_555
F4_3 P1_3 1_555 1_555
F5_3 P1_3 1_555 1_555
F6_3 P1_3 1_555 1_555
P1_4 F1_4 1_555 1_555
F2_4 P1_4 1_555 1_555
F3_4 P1_4 1_555 1_555
F4_4 P1_4 1_555 1_555
F5_4 P1_4 1_555 1_555
F6_4 P1_4 1_555 1_555
F2_5 P1_5 1_555 1_555
F3_5 P1_5 1_555 1_555
F4_5 P1_5 1_555 1_555
F5_5 P1_5 1_555 1_555
F6_5 P1_5 1_555 1_555
F2_6 P1_6 1_555 1_555
F3_6 P1_6 1_555 1_555
F4_6 P1_6 1_555 1_555
F5_6 P1_6 1_555 1_555
F6_6 P1_6 1_555 1_555
P1_7 F1_7 1_555 1_555
F2_7 P1_7 1_555 1_555
F3_7 P1_7 1_555 1_555
F4_7 P1_7 1_555 1_555
F5_7 P1_7 1_555 1_555
F6_7 P1_7 1_555 1_555
F2_8 P1_8 1_555 1_555
F3_8 P1_8 1_555 1_555
F4_8 P1_8 1_555 1_555
F5_8 P1_8 1_555 1_555
F6_8 P1_8 1_555 1_555
P1_9 F1_9 1_555 1_555
F2_9 P1_9 1_555 1_555
F3_9 P1_9 1_555 1_555
F4_9 P1_9 1_555 1_555
F5_9 P1_9 1_555 1_555
F6_9 P1_9 1_555 1_555
P1_10 F1_10 1_555 1_555
F2_10 P1_10 1_555 1_555
F3_10 P1_10 1_555 1_555
F4_10 P1_10 1_555 1_555
F5_10 P1_10 1_555 1_555
F6_10 P1_10 1_555 1_555
P1_11 F1_11 1_555 1_555
F2_11 P1_11 1_555 1_555
F3_11 P1_11 1_555 1_555
F4_11 P1_11 1_555 1_555
F5_11 P1_11 1_555 1_555
F6_11 P1_11 1_555 1_555
P1_12 F1_12 1_555 1_555
F2_12 P1_12 1_555 1_555
F3_12 P1_12 1_555 1_555
F4_12 P1_12 1_555 1_555
F5_12 P1_12 1_555 1_555
F6_12 P1_12 1_555 1_555
P1_13 F1_13 1_555 1_555
F2_13 P1_13 1_555 1_555
F3_13 P1_13 1_555 1_555
F4_13 P1_13 1_555 1_555
F5_13 P1_13 1_555 1_555
F6_13 P1_13 1_555 1_555
P1_14 F1_14 1_555 1_555
F2_14 P1_14 1_555 1_555
F3_14 P1_14 1_555 1_555
F4_14 P1_14 1_555 1_555
F5_14 P1_14 1_555 1_555
F6_14 P1_14 1_555 1_555
P1_15 F1_15 1_555 1_555
F2_15 P1_15 1_555 1_555
F3_15 P1_15 1_555 1_555
F4_15 P1_15 1_555 1_555
F5_15 P1_15 1_555 1_555
F6_15 P1_15 1_555 1_555
P1_16 F1_16 1_555 1_555
F2_16 P1_16 1_555 1_555
F3_16 P1_16 1_555 1_555
F4_16 P1_16 1_555 1_555
F5_16 P1_16 1_555 1_555
F6_16 P1_16 1_555 1_555
P1_17 F1_17 1_555 1_555
F2_17 P1_17 1_555 1_555
F3_17 P1_17 1_555 1_555
F4_17 P1_17 1_555 1_555
F5_17 P1_17 1_555 1_555
F6_17 P1_17 1_555 1_555
F2_18 P1_18 1_555 1_555
F3_18 P1_18 1_555 1_555
F4_18 P1_18 1_555 1_555
F5_18 P1_18 1_555 1_555
F6_18 P1_18 1_555 1_555
P1_19 F1_19 1_555 1_555
F2_19 P1_19 1_555 1_555
F3_19 P1_19 1_555 1_555
F4_19 P1_19 1_555 1_555
F5_19 P1_19 1_555 1_555
F6_19 P1_19 1_555 1_555
P1_20 F1_20 1_555 1_555
F2_20 P1_20 1_555 1_555
F3_20 P1_20 1_555 1_555
F4_20 P1_20 1_555 1_555
F5_20 P1_20 1_555 1_555
F6_20 P1_20 1_555 1_555
F2_21 P1_21 1_555 1_555
F3_21 P1_21 1_555 1_555
F4_21 P1_21 1_555 1_555
F5_21 P1_21 1_555 1_555
F6_21 P1_21 1_555 1_555
F2_22 P1_22 1_555 1_555
F3_22 P1_22 1_555 1_555
F4_22 P1_22 1_555 1_555
F5_22 P1_22 1_555 1_555
F6_22 P1_22 1_555 1_555
P1_23 F1_23 1_555 1_555
F2_23 P1_23 1_555 1_555
F3_23 P1_23 1_555 1_555
F4_23 P1_23 1_555 1_555
F5_23 P1_23 1_555 1_555
F6_23 P1_23 1_555 1_555
F2_24 P1_24 1_555 1_555
F3_24 P1_24 1_555 1_555
F4_24 P1_24 1_555 1_555
F5_24 P1_24 1_555 1_555
F6_24 P1_24 1_555 1_555
P1_25 F1_25 1_555 1_555
F2_25 P1_25 1_555 1_555
F3_25 P1_25 1_555 1_555
F4_25 P1_25 1_555 1_555
F5_25 P1_25 1_555 1_555
F6_25 P1_25 1_555 1_555
P1_26 F1_26 1_555 1_555
F2_26 P1_26 1_555 1_555
F3_26 P1_26 1_555 1_555
F4_26 P1_26 1_555 1_555
F5_26 P1_26 1_555 1_555
F6_26 P1_26 1_555 1_555
P1_27 F1_27 1_555 1_555
F2_27 P1_27 1_555 1_555
F3_27 P1_27 1_555 1_555
F4_27 P1_27 1_555 1_555
F5_27 P1_27 1_555 1_555
F6_27 P1_27 1_555 1_555
P1_28 F1_28 1_555 1_555
F2_28 P1_28 1_555 1_555
F3_28 P1_28 1_555 1_555
F4_28 P1_28 1_555 1_555
F5_28 P1_28 1_555 1_555
F6_28 P1_28 1_555 1_555
P1_29 F1_29 1_555 1_555
F2_29 P1_29 1_555 1_555
F3_29 P1_29 1_555 1_555
F4_29 P1_29 1_555 1_555
F5_29 P1_29 1_555 1_555
F6_29 P1_29 1_555 1_555
P1_30 F1_30 1_555 1_555
F2_30 P1_30 1_555 1_555
F3_30 P1_30 1_555 1_555
F4_30 P1_30 1_555 1_555
F5_30 P1_30 1_555 1_555
F6_30 P1_30 1_555 1_555
P1_31 F1_31 1_555 1_555
F2_31 P1_31 1_555 1_555
F3_31 P1_31 1_555 1_555
F4_31 P1_31 1_555 1_555
F5_31 P1_31 1_555 1_555
F6_31 P1_31 1_555 1_555
P1_32 F1_32 1_555 1_555
F2_32 P1_32 1_555 1_555
F3_32 P1_32 1_555 1_555
F4_32 P1_32 1_555 1_555
F5_32 P1_32 1_555 1_555
F6_32 P1_32 1_555 1_555

#END
