
###############################################################################
#
# This file contains modified crystal structure data generated from the
# MOF subset of the Cambridge Structural Database (CSD) v543 
# hosted by the Cambridge Crystallographic Data Centre (CCDC).
#
# This work is licensed under the Creative Commons
# Attribution-NonCommercial-ShareAlike 4.0 International License.
# To view a copy of this license, visit
# http://creativecommons.org/licenses/by-nc-sa/4.0/
# or send a letter to
# Creative Commons, PO Box 1866, Mountain View, CA 94042, USA.
#
# CIF created using the CSD Python API on 29 September 2022
# The structure has been converted into the P1 space group
# The structure has a 3D framework
# The original CSD entry QEJLID is in the trigonal crystal system
# The original CSD entry QEJLID is in a Sohncke space group
# The framework has been calculated to contain at least 10.0% void space
# The void calculation uses a probe of radius 1.32A, grid spacing 0.4
# H atom positions have been added when not included in the experimental data
#
###############################################################################

data_QEJLID
_chemical_formula_moiety         '(C24 H36 Cu17 N36)n'
_symmetry_cell_setting           triclinic
_symmetry_space_group_name_H-M   'P 1'
_symmetry_Int_Tables_number      1
_space_group_name_Hall           'P 1'
loop_
_symmetry_equiv_pos_site_id
_symmetry_equiv_pos_as_xyz
1 x,y,z
_cell_length_a                   8.9677(2)
_cell_length_b                   8.9677(2)
_cell_length_c                   20.0386(8)
_cell_angle_alpha                90
_cell_angle_beta                 90
_cell_angle_gamma                120
_cell_volume                     1395.6
loop_
_atom_site_label
_atom_site_type_symbol
_atom_site_fract_x
_atom_site_fract_y
_atom_site_fract_z
H9 H 0.116752 0.0349872 0.0879567
H10 H 0.207945 0.0263582 0.01722
H11 H 0.0349872 0.116752 0.912043
H12 H 0.0263582 0.207945 0.98278
Cu1 Cu -0.0000 0.40381(6) 0.1667
N2 N 0.1084(4) 0.9587(4) 0.04905(17)
C2 C 0.2384(7) 0.7785(7) 0.0311(3)
H1 H 0.2463 0.6825 0.0479
H3 H 0.3507 0.8793 0.0307
C3 C 0.1206(4) 0.8096(5) 0.07524(18)
H4 H 0.1664 0.8345 0.1208
N12 N 0.2585(4) 0.3928(6) 0.06854(15)
C8 C 0.1625(4) 0.3853(6) 0.10652(15)
Cu5 Cu 0.43011(7) 0.43011(7) 0.0000
N15 N 0.1241(4) 0.6302(6) 0.22603(12)
H2 H 0.1931 0.7540 0.9865
Cu5_2 Cu 0.43011(7) 0.43011(7) 1.0000
H6 H 0.7540 0.1931 0.0135
N7 N 0.9587(4) 0.1084(4) 0.95095(17)
C5 C 0.7785(7) 0.2384(7) 0.9689(3)
H5 H 0.6825 0.2463 0.9521
H7 H 0.8793 0.3507 0.9693
C6 C 0.8096(5) 0.1206(4) 0.92476(18)
H8 H 0.8345 0.1664 0.8792
Cu4 Cu 0.40381(6) 0.0000 0.8334
Cu1_2 Cu 1.0000 0.40381(6) 0.1667
Cu3 Cu 0.88538(6) 0.88538(6) 0.0000
N1 N 0.7415(4) 0.1343(4) 0.26479(15)
N3 N 0.8181(4) 0.6631(3) 0.04042(13)
N4 N 0.6720(4) 0.5120(3) 0.05051(13)
N5 N 0.7073(4) 0.4188(4) 0.09060(13)
N6 N 0.8759(4) 0.5061(4) 0.10730(12)
C1 C 0.8375(4) 0.2228(4) 0.22681(15)
C4 C 0.9405(4) 0.6564(4) 0.07591(15)
Cu6 Cu 0.56989(7) 0.00000(10) 0.3333
Cu3_2 Cu 0.88538(6) 0.88538(6) 1.0000
N8 N 0.6631(3) 0.8181(4) 0.95958(13)
N9 N 0.5120(3) 0.6720(4) 0.94949(13)
N10 N 0.4188(4) 0.7073(4) 0.90940(13)
N11 N 0.5061(4) 0.8759(4) 0.89270(12)
C7 C 0.6564(4) 0.9405(4) 0.92409(15)
Cu4_2 Cu 0.40381(6) 1.0000 0.8334
N13 N 0.3928(6) 0.2585(4) 0.93146(15)
Cu6_2 Cu 0.56989(7) 1.00000(10) 0.3333
Cu6_3 Cu -0.00000(10) 0.56989(12) 0.6667
Cu1_3 Cu 0.59619(6) 0.59619(6) 0.5000
Cu3_3 Cu 0.11462(6) 0.00000(8) 0.3333
N1_2 N 0.8657(4) 0.6072(6) 0.59812(15)
N2_2 N 0.0413(4) 0.1497(6) 0.38238(17)
N3_2 N 0.3369(3) 0.1550(5) 0.37375(13)
N4_2 N 0.4880(3) 0.1600(5) 0.38384(13)
N5_2 N 0.5812(4) 0.2885(6) 0.42393(13)
N6_2 N 0.4939(4) 0.3698(6) 0.44063(12)
C1_2 C 0.7772(4) 0.6147(6) 0.56014(15)
C2_2 C 0.2215(7) 0.4599(10) 0.3644(3)
H1_2 H 0.3175 0.5638 0.3812
H2_2 H 0.2460 0.4391 0.3198
H3_2 H 0.1207 0.4714 0.3640
C3_2 C 0.1904(5) 0.3110(6) 0.40857(18)
H4_2 H 0.1655 0.3319 0.4541
C4_2 C 0.3436(4) 0.2841(6) 0.40924(15)
N12_2 N 0.6072(6) 0.8657(7) 0.40188(15)
C8_2 C 0.6147(6) 0.7772(7) 0.43986(15)
Cu6_4 Cu 1.00000(10) 0.56989(12) 0.6667
N15_2 N 0.3698(6) 0.4939(7) 0.55937(12)
Cu3_4 Cu 0.11462(6) 1.00000(8) 0.3333
N8_2 N 0.1819(4) 0.8450(5) 0.29291(13)
N9_2 N 0.3280(4) 0.8400(5) 0.28282(13)
N10_2 N 0.2927(4) 0.7115(6) 0.24273(13)
C7_2 C 0.0595(4) 0.7159(6) 0.25742(15)
N7_2 N 0.8916(4) 0.8503(6) 0.28428(17)
C5_2 C 0.7616(7) 0.5401(10) 0.3022(3)
H5_2 H 0.7537 0.4362 0.2854
H6_2 H 0.8069 0.5609 0.3468
H7_2 H 0.6493 0.5286 0.3026
C6_2 C 0.8794(4) 0.6890(6) 0.25809(18)
H8_2 H 0.8336 0.6681 0.2125
H11_2 H 0.883248 0.918235 0.245377
H12_2 H 0.792055 0.818413 0.316113
Cu3_5 Cu -0.00000(8) 0.11462(6) 0.6667
N7_3 N 0.1497(6) 0.0413(4) 0.61762(17)
N8_3 N 0.1550(5) 0.3369(3) 0.62625(13)
N9_3 N 0.1600(5) 0.4880(3) 0.61616(13)
N10_3 N 0.2885(6) 0.5812(4) 0.57607(13)
C5_3 C 0.4599(10) 0.2215(7) 0.6356(3)
H5_3 H 0.5638 0.3175 0.6188
H6_3 H 0.4391 0.2460 0.6802
H7_3 H 0.4714 0.1207 0.6360
C6_3 C 0.3110(6) 0.1904(5) 0.59143(18)
H8_3 H 0.3319 0.1655 0.5459
C7_3 C 0.2841(6) 0.3436(4) 0.59076(15)
N14 N 0.1343(7) 0.7415(4) 0.73521(15)
Cu3_6 Cu 1.00000(8) 0.11462(6) 0.6667
N3_3 N 0.8450(5) 0.1819(4) 0.70709(13)
N4_3 N 0.8400(5) 0.3280(4) 0.71718(13)
N5_3 N 0.7115(6) 0.2927(4) 0.75727(13)
N6_3 N 0.6302(6) 0.1241(4) 0.77397(12)
C1_3 C 0.3853(6) 0.1625(4) 0.89348(15)
C4_3 C 0.7159(6) 0.0595(4) 0.74258(15)
N2_3 N 0.8503(6) 0.8916(4) 0.71572(17)
C2_3 C 0.5401(10) 0.7616(7) 0.6978(3)
H1_3 H 0.4362 0.7537 0.7146
H2_3 H 0.5609 0.8069 0.6532
H3_3 H 0.5286 0.6493 0.6974
C3_3 C 0.6890(6) 0.8794(4) 0.74191(18)
H4_3 H 0.6681 0.8336 0.7875
C8_3 C 0.2228(7) 0.8375(4) 0.77319(15)
H9_2 H 0.918235 0.883248 0.754623
H10_2 H 0.818413 0.792055 0.683887
H9_3 H 0.965013 0.0817646 0.42129
H10_3 H 0.973642 0.181587 0.350553
H11_3 H 0.0817646 0.965013 0.57871
H12_3 H 0.181587 0.973642 0.649447
loop_
_geom_bond_atom_site_label_1
_geom_bond_atom_site_label_2
_geom_bond_site_symmetry_1
_geom_bond_site_symmetry_2
N2 C3 1_555 1_555
C2 H1 1_555 1_555
H3 C2 1_555 1_555
C3 C2 1_555 1_555
H4 C3 1_555 1_555
N12 C8 1_555 1_555
C8 Cu1 1_555 1_555
Cu5 N12 1_555 1_555
N15 Cu1 1_555 1_555
C5 H5 1_555 1_555
H7 C5 1_555 1_555
C6 N7 1_555 1_555
H8 C6 1_555 1_555
C5 C6 1_555 1_555
Cu1_2 N6 1_555 1_555
Cu5 N4 1_555 1_555
N1 C1 1_555 1_555
N3 Cu3 1_555 1_555
N4 N3 1_555 1_555
N5 N4 1_555 1_555
N6 N5 1_555 1_555
C1 Cu1_2 1_555 1_555
C4 N3 1_555 1_555
Cu6 N1 1_555 1_555
N6 C4 1_555 1_555
N8 Cu3_2 1_555 1_555
N9 Cu5_2 1_555 1_555
N10 N9 1_555 1_555
N11 N10 1_555 1_555
C7 N8 1_555 1_555
Cu4_2 N11 1_555 1_555
N13 Cu5_2 1_555 1_555
N8 N9 1_555 1_555
N11 C7 1_555 1_555
Cu1_3 N6_2 1_555 1_555
Cu6 N4_2 1_555 1_555
Cu3_3 N2_2 1_555 1_555
N1_2 C1_2 1_555 1_555
N2_2 C3_2 1_555 1_555
N3_2 Cu3_3 1_555 1_555
N4_2 N3_2 1_555 1_555
N5_2 N4_2 1_555 1_555
N6_2 N5_2 1_555 1_555
C1_2 Cu1_3 1_555 1_555
C2_2 H1_2 1_555 1_555
H2_2 C2_2 1_555 1_555
H3_2 C2_2 1_555 1_555
C3_2 C2_2 1_555 1_555
H4_2 C3_2 1_555 1_555
C4_2 N3_2 1_555 1_555
N12_2 C8_2 1_555 1_555
C8_2 Cu1_3 1_555 1_555
Cu6_2 N12_2 1_555 1_555
Cu6_4 N1_2 1_555 1_555
N15_2 Cu1_3 1_555 1_555
N6_2 C4_2 1_555 1_555
C3_2 C4_2 1_555 1_555
N8_2 Cu3_4 1_555 1_555
N9_2 Cu6_2 1_555 1_555
N10_2 N9_2 1_555 1_555
N15 N10_2 1_555 1_555
C7_2 N8_2 1_555 1_555
N8_2 N9_2 1_555 1_555
N15 C7_2 1_555 1_555
C5_2 H5_2 1_555 1_555
H6_2 C5_2 1_555 1_555
H7_2 C5_2 1_555 1_555
C6_2 N7_2 1_555 1_555
H8_2 C6_2 1_555 1_555
C5_2 C6_2 1_555 1_555
N7_2 H11_2 1_555 1_555
N7_2 H12_2 1_555 1_555
N7_3 Cu3_5 1_555 1_555
N8_3 Cu3_5 1_555 1_555
N9_3 Cu6_3 1_555 1_555
N10_3 N9_3 1_555 1_555
N15_2 N10_3 1_555 1_555
C5_3 H5_3 1_555 1_555
H6_3 C5_3 1_555 1_555
H7_3 C5_3 1_555 1_555
C6_3 N7_3 1_555 1_555
H8_3 C6_3 1_555 1_555
C7_3 N8_3 1_555 1_555
N14 Cu6_3 1_555 1_555
N8_3 N9_3 1_555 1_555
N15_2 C7_3 1_555 1_555
C5_3 C6_3 1_555 1_555
C6_3 C7_3 1_555 1_555
Cu4 N6_3 1_555 1_555
Cu6_4 N4_3 1_555 1_555
N13 C1_3 1_555 1_555
N3_3 Cu3_6 1_555 1_555
N4_3 N3_3 1_555 1_555
N5_3 N4_3 1_555 1_555
N6_3 N5_3 1_555 1_555
C1_3 Cu4 1_555 1_555
C4_3 N3_3 1_555 1_555
N6_3 C4_3 1_555 1_555
N2_3 C3_3 1_555 1_555
C2_3 H1_3 1_555 1_555
H2_3 C2_3 1_555 1_555
H3_3 C2_3 1_555 1_555
C3_3 C2_3 1_555 1_555
H4_3 C3_3 1_555 1_555
N14 C8_3 1_555 1_555
C8_3 Cu4_2 1_555 1_555
N2_3 H9_2 1_555 1_555
N2_3 H10_2 1_555 1_555

#END
