
###############################################################################
#
# This file contains modified crystal structure data generated from the
# MOF subset of the Cambridge Structural Database (CSD) v543 
# hosted by the Cambridge Crystallographic Data Centre (CCDC).
#
# This work is licensed under the Creative Commons
# Attribution-NonCommercial-ShareAlike 4.0 International License.
# To view a copy of this license, visit
# http://creativecommons.org/licenses/by-nc-sa/4.0/
# or send a letter to
# Creative Commons, PO Box 1866, Mountain View, CA 94042, USA.
#
# CIF created using the CSD Python API on 29 September 2022
# The structure has been converted into the P1 space group
# The structure has a 3D framework
# The original CSD entry QEJYIP is in the monoclinic crystal system
# The framework has been calculated to contain at least 10.0% void space
# The void calculation uses a probe of radius 1.32A, grid spacing 0.4
# H atom positions have been added when not included in the experimental data
#
###############################################################################

data_QEJYIP
_chemical_formula_moiety         '(C80 H48 Cd8 N24 O32)n'
_symmetry_cell_setting           triclinic
_symmetry_space_group_name_H-M   'P 1'
_symmetry_Int_Tables_number      1
_space_group_name_Hall           'P 1'
loop_
_symmetry_equiv_pos_site_id
_symmetry_equiv_pos_as_xyz
1 x,y,z
_cell_length_a                   22.382(3)
_cell_length_b                   10.7731(15)
_cell_length_c                   13.5326(18)
_cell_angle_alpha                90
_cell_angle_beta                 100.108(6)
_cell_angle_gamma                90
_cell_volume                     3212.38
loop_
_atom_site_label
_atom_site_type_symbol
_atom_site_fract_x
_atom_site_fract_y
_atom_site_fract_z
C1 C 0.4354(3) 0.1820(8) 0.1181(8)
H1 H 0.4433 0.2481 0.1627
C2 C 0.4838(3) 0.1267(7) 0.0845(7)
H2 H 0.5229 0.1564 0.1063
C3 C 0.3707(3) 0.0498(10) 0.0306(8)
H3 H 0.3316 0.0185 0.0130
C5 C 0.4749(2) 0.0303(6) 0.0204(4)
C6 C 0.2405(3) 0.4903(6) 0.2264(5)
H5 H 0.2137 0.5096 0.1679
C7 C 0.2897(3) 0.5010(5) 0.3753(4)
C8 C 0.3083(3) 0.5529(7) 0.4770(5)
C9 C 0.3091(3) 0.3978(6) 0.3301(5)
C10 C 0.3548(4) 0.3037(8) 0.3647(6)
N1 N 0.3792(2) 0.1465(5) 0.0905(4)
N2 N 0.2767(2) 0.3912(4) 0.2348(3)
N3 N 0.2464(2) 0.5591(4) 0.3091(3)
O1 O 0.3643(3) 0.2190(5) 0.3082(4)
O2 O 0.3853(4) 0.3159(8) 0.4534(5)
O3 O 0.3510(3) 0.5039(7) 0.5345(5)
O4 O 0.2803(2) 0.6482(4) 0.4967(3)
Cd1 Cd 0.296951(16) 0.23212(3) 0.14135(3)
C14 C 0.5835(3) 0.0075(10) 0.0075(8)
H9 H 0.5926 0.0726 0.0528
H10 H 0.2863 0.0096 0.3321
C17 C 0.2103(3) 0.0010(5) 0.1247(4)
C18 C 0.1917(3) 0.0529(7) 0.0230(5)
N7 N 0.2536(2) 0.0591(4) 0.1909(3)
O9 O 0.2197(2) 0.1482(4) 0.0033(3)
Cd3 Cd 0.203049(16) 0.73212(3) 0.35865(3)
Cd4 Cd 0.296951(16) 0.76788(3) 0.64135(3)
H11 H 0.357272 0.314761 0.502717
O8 O 0.1490(3) 0.0039(7) 0.9655(5)
O10 O 0.2803(2) 0.3518(4) 0.9967(3)
Cd6 Cd 0.203049(16) 0.26788(3) 0.85865(3)
C16 C 0.2595(3) 0.9903(6) 0.2736(5)
C19 C 0.1909(3) 0.8978(6) 0.1699(5)
C20 C 0.1452(4) 0.8037(8) 0.1353(6)
N5 N 0.2233(2) 0.8912(4) 0.2652(3)
O5 O 0.1357(3) 0.7190(5) 0.1918(4)
O7 O 0.1147(4) 0.8159(8) 0.0466(5)
O12 O 0.7197(2) 0.6482(4) 0.0033(3)
C4 C 0.4165(3) 0.9925(10) 0.9925(8)
H4 H 0.4074 0.9274 0.9472
C11 C 0.5646(3) 0.8180(8) 0.8819(8)
H6 H 0.5567 0.7519 0.8373
C12 C 0.5162(3) 0.8733(7) 0.9155(7)
H7 H 0.4771 0.8436 0.8937
C13 C 0.6293(3) 0.9502(10) 0.9694(8)
H8 H 0.6684 0.9815 0.9870
C15 C 0.5251(2) 0.9697(6) 0.9796(4)
N4 N 0.6208(2) 0.8535(5) 0.9095(4)
N6 N 0.7233(2) 0.6088(4) 0.7652(3)
N8 N 0.7464(2) 0.9409(4) 0.8091(3)
O6 O 0.6357(3) 0.7810(5) 0.6918(4)
O11 O 0.7803(2) 0.8518(4) 0.9967(3)
Cd2 Cd 0.703049(16) 0.76788(3) 0.85865(3)
H12 H 0.142728 0.814761 0.997283
C1_2 C 0.5646(3) 0.1820(8) 0.3819(8)
H1_2 H 0.5567 0.2481 0.3373
C2_2 C 0.5162(3) 0.1267(7) 0.4155(7)
H2_2 H 0.4771 0.1564 0.3937
C3_2 C 0.6293(3) 0.0498(10) 0.4694(8)
H3_2 H 0.6684 0.0185 0.4870
C5_2 C 0.5251(2) 0.0303(6) 0.4796(4)
C6_2 C 0.7595(3) 0.4903(6) 0.2736(5)
H5_2 H 0.7863 0.5096 0.3321
C7_2 C 0.7103(3) 0.5010(5) 0.1247(4)
C8_2 C 0.6917(3) 0.5529(7) 0.0230(5)
C9_2 C 0.6909(3) 0.3978(6) 0.1699(5)
C10_2 C 0.6452(4) 0.3037(8) 0.1353(6)
N1_2 N 0.6208(2) 0.1465(5) 0.4095(4)
N2_2 N 0.7233(2) 0.3912(4) 0.2652(3)
N3_2 N 0.7536(2) 0.5591(4) 0.1909(3)
O1_2 O 0.6357(3) 0.2190(5) 0.1918(4)
O2_2 O 0.6147(4) 0.3159(8) 0.0466(5)
Cd1_2 Cd 0.703049(16) 0.23212(3) 0.35865(3)
C14_2 C 0.4165(3) 0.0075(10) 0.4925(8)
H9_2 H 0.4074 0.0726 0.4472
H10_2 H 0.7137 0.0096 0.1679
C17_2 C 0.7897(3) 0.0010(5) 0.3753(4)
C18_2 C 0.8083(3) 0.0529(7) 0.4770(5)
N7_2 N 0.7464(2) 0.0591(4) 0.3091(3)
O8_2 O 0.8510(3) 0.0039(7) 0.5345(5)
O9_2 O 0.7803(2) 0.1482(4) 0.4967(3)
O10_2 O 0.7197(2) 0.3518(4) 0.5033(3)
Cd3_2 Cd 0.796951(16) 0.73212(3) 0.14135(3)
Cd6_2 Cd 0.796951(16) 0.26788(3) 0.64135(3)
O3_2 O 0.6490(3) 0.5039(7) 0.9655(5)
H11_2 H 0.642728 0.314761 0.997283
C4_2 C 0.5835(3) 0.9925(10) 0.5075(8)
H4_2 H 0.5926 0.9274 0.5528
C11_2 C 0.4354(3) 0.8180(8) 0.6181(8)
H6_2 H 0.4433 0.7519 0.6627
C12_2 C 0.4838(3) 0.8733(7) 0.5845(7)
H7_2 H 0.5229 0.8436 0.6063
C13_2 C 0.3707(3) 0.9502(10) 0.5306(8)
H8_2 H 0.3316 0.9815 0.5130
C15_2 C 0.4749(2) 0.9697(6) 0.5204(4)
C16_2 C 0.7405(3) 0.9903(6) 0.2264(5)
C19_2 C 0.8091(3) 0.8978(6) 0.3301(5)
C20_2 C 0.8548(4) 0.8037(8) 0.3647(6)
N4_2 N 0.3792(2) 0.8535(5) 0.5905(4)
N5_2 N 0.7767(2) 0.8912(4) 0.2348(3)
N6_2 N 0.2767(2) 0.6088(4) 0.7348(3)
N8_2 N 0.2536(2) 0.9409(4) 0.6909(3)
O5_2 O 0.8643(3) 0.7190(5) 0.3082(4)
O6_2 O 0.3643(3) 0.7810(5) 0.8082(4)
O7_2 O 0.8853(4) 0.8159(8) 0.4534(5)
O11_2 O 0.2197(2) 0.8518(4) 0.5033(3)
H12_2 H 0.857272 0.814761 0.502717
H2_3 H 0.0229 0.6564 0.1063
C14_3 C 0.0835(3) 0.5075(10) 0.0075(8)
H9_3 H 0.0926 0.5726 0.0528
C11_3 C 0.0646(3) 0.3180(8) 0.8819(8)
H6_3 H 0.0567 0.2519 0.8373
C12_3 C 0.0162(3) 0.3733(7) 0.9155(7)
C13_3 C 0.1293(3) 0.4502(10) 0.9694(8)
H8_3 H 0.1684 0.4815 0.9870
C15_3 C 0.0251(2) 0.4697(6) 0.9796(4)
N4_3 N 0.1208(2) 0.3535(5) 0.9095(4)
N6_3 N 0.2233(2) 0.1088(4) 0.7652(3)
N8_3 N 0.2464(2) 0.4409(4) 0.8091(3)
O6_3 O 0.1357(3) 0.2810(5) 0.6918(4)
C1_3 C 0.9354(3) 0.6820(8) 0.1181(8)
H1_3 H 0.9433 0.7481 0.1627
C2_3 C 0.9838(3) 0.6267(7) 0.0845(7)
C3_3 C 0.8707(3) 0.5498(10) 0.0306(8)
H3_3 H 0.8316 0.5185 0.0130
C5_3 C 0.9749(2) 0.5303(6) 0.0204(4)
N1_3 N 0.8792(2) 0.6465(5) 0.0905(4)
C4_3 C 0.9165(3) 0.4925(10) 0.9925(8)
H4_3 H 0.9074 0.4274 0.9472
H7_3 H 0.9771 0.3436 0.8937
C1_4 C 0.0646(3) 0.6820(8) 0.3819(8)
H1_4 H 0.0567 0.7481 0.3373
C2_4 C 0.0162(3) 0.6267(7) 0.4155(7)
C3_4 C 0.1293(3) 0.5498(10) 0.4694(8)
H3_4 H 0.1684 0.5185 0.4870
C4_4 C 0.0835(3) 0.4925(10) 0.5075(8)
H4_4 H 0.0926 0.4274 0.5528
C5_4 C 0.0251(2) 0.5303(6) 0.4796(4)
N1_4 N 0.1208(2) 0.6465(5) 0.4095(4)
H7_4 H 0.0229 0.3436 0.6063
H2_4 H 0.9771 0.6564 0.3937
C11_4 C 0.9354(3) 0.3180(8) 0.6181(8)
H6_4 H 0.9433 0.2519 0.6627
C12_4 C 0.9838(3) 0.3733(7) 0.5845(7)
C13_4 C 0.8707(3) 0.4502(10) 0.5306(8)
H8_4 H 0.8316 0.4815 0.5130
C14_4 C 0.9165(3) 0.5075(10) 0.4925(8)
H9_4 H 0.9074 0.5726 0.4472
C15_4 C 0.9749(2) 0.4697(6) 0.5204(4)
N4_4 N 0.8792(2) 0.3535(5) 0.5905(4)
N6_4 N 0.7767(2) 0.1088(4) 0.7348(3)
N8_4 N 0.7536(2) 0.4409(4) 0.6909(3)
O6_4 O 0.8643(3) 0.2810(5) 0.8082(4)
H12_3 H 0.857272 0.185239 0.00271695
C16_3 C 0.7405(3) 0.0097(6) 0.7264(5)
C19_3 C 0.8091(3) 0.1022(6) 0.8301(5)
C20_3 C 0.8548(4) 0.1963(8) 0.8647(6)
O7_3 O 0.8853(4) 0.1841(8) 0.9534(5)
O8_3 O 0.8510(3) 0.9961(7) 0.0345(5)
C6_3 C 0.7595(3) 0.5097(6) 0.7736(5)
H5_3 H 0.7863 0.4904 0.8321
C7_3 C 0.7103(3) 0.4990(5) 0.6247(4)
C8_3 C 0.6917(3) 0.4471(7) 0.5230(5)
C9_3 C 0.6909(3) 0.6022(6) 0.6699(5)
C10_3 C 0.6452(4) 0.6963(8) 0.6353(6)
O2_3 O 0.6147(4) 0.6841(8) 0.5466(5)
O3_3 O 0.6490(3) 0.4961(7) 0.4655(5)
H10_3 H 0.7137 0.9904 0.6679
C17_3 C 0.7897(3) 0.9990(5) 0.8753(4)
C18_3 C 0.8083(3) 0.9471(7) 0.9770(5)
H11_3 H 0.642728 0.685239 0.497283
C16_4 C 0.2595(3) 0.0097(6) 0.7736(5)
C19_4 C 0.1909(3) 0.1022(6) 0.6699(5)
C20_4 C 0.1452(4) 0.1963(8) 0.6353(6)
O7_4 O 0.1147(4) 0.1841(8) 0.5466(5)
H12_4 H 0.142728 0.185239 0.497283
O3_4 O 0.3510(3) 0.4961(7) 0.0345(5)
H11_4 H 0.357272 0.685239 0.00271695
C6_4 C 0.2405(3) 0.5097(6) 0.7264(5)
H5_4 H 0.2137 0.4904 0.6679
C7_4 C 0.2897(3) 0.4990(5) 0.8753(4)
C8_4 C 0.3083(3) 0.4471(7) 0.9770(5)
C9_4 C 0.3091(3) 0.6022(6) 0.8301(5)
C10_4 C 0.3548(4) 0.6963(8) 0.8647(6)
O2_4 O 0.3853(4) 0.6841(8) 0.9534(5)
H10_4 H 0.2863 0.9904 0.8321
C17_4 C 0.2103(3) 0.9990(5) 0.6247(4)
C18_4 C 0.1917(3) 0.9471(7) 0.5230(5)
O8_4 O 0.1490(3) 0.9961(7) 0.4655(5)
loop_
_geom_bond_atom_site_label_1
_geom_bond_atom_site_label_2
_geom_bond_site_symmetry_1
_geom_bond_site_symmetry_2
C1 H1 1_555 1_555
C2 C1 1_555 1_555
H2 C2 1_555 1_555
C3 H3 1_555 1_555
C5 C2 1_555 1_555
C6 H5 1_555 1_555
C7 C8 1_555 1_555
C8 O3 1_555 1_555
C9 C7 1_555 1_555
C10 C9 1_555 1_555
N1 C1 1_555 1_555
N2 C6 1_555 1_555
N3 C6 1_555 1_555
O1 C10 1_555 1_555
O2 C10 1_555 1_555
O4 C8 1_555 1_555
Cd1 N1 1_555 1_555
H9 C14 1_555 1_555
C17 C18 1_555 1_555
N7 Cd1 1_555 1_555
O9 Cd1 1_555 1_555
Cd3 N3 1_555 1_555
Cd4 O4 1_555 1_555
C3 N1 1_555 1_555
C7 N3 1_555 1_555
C9 N2 1_555 1_555
N2 Cd1 1_555 1_555
O1 Cd1 1_555 1_555
O4 Cd3 1_555 1_555
C17 N7 1_555 1_555
C18 O9 1_555 1_555
O2 H11 1_555 1_555
O10 Cd6 1_555 1_555
C20 C19 1_555 1_555
N5 C16 1_555 1_555
O5 C20 1_555 1_555
O7 C20 1_555 1_555
Cd3 N5 1_555 1_555
C19 N5 1_555 1_555
O5 Cd3 1_555 1_555
H4 C4 1_555 1_555
C11 H6 1_555 1_555
C12 C11 1_555 1_555
H7 C12 1_555 1_555
C13 H8 1_555 1_555
N4 C11 1_555 1_555
N6 Cd2 1_555 1_555
N8 Cd2 1_555 1_555
O6 Cd2 1_555 1_555
O11 Cd2 1_555 1_555
Cd2 N4 1_555 1_555
C12 C15 1_555 1_555
C13 N4 1_555 1_555
C1_2 H1_2 1_555 1_555
C2_2 C1_2 1_555 1_555
H2_2 C2_2 1_555 1_555
C3_2 H3_2 1_555 1_555
C5_2 C2_2 1_555 1_555
C6_2 H5_2 1_555 1_555
C7_2 C8_2 1_555 1_555
C9_2 C7_2 1_555 1_555
C10_2 C9_2 1_555 1_555
N1_2 C1_2 1_555 1_555
N2_2 C6_2 1_555 1_555
N3_2 C6_2 1_555 1_555
O1_2 C10_2 1_555 1_555
O2_2 C10_2 1_555 1_555
O12 C8_2 1_555 1_555
Cd1_2 N1_2 1_555 1_555
H9_2 C14_2 1_555 1_555
C17_2 C18_2 1_555 1_555
C18_2 O8_2 1_555 1_555
N7_2 Cd1_2 1_555 1_555
O9_2 Cd1_2 1_555 1_555
O10_2 Cd1_2 1_555 1_555
Cd3_2 N3_2 1_555 1_555
Cd6_2 O9_2 1_555 1_555
C3_2 N1_2 1_555 1_555
C7_2 N3_2 1_555 1_555
C9_2 N2_2 1_555 1_555
N2_2 Cd1_2 1_555 1_555
O1_2 Cd1_2 1_555 1_555
O12 Cd3_2 1_555 1_555
C17_2 N7_2 1_555 1_555
C18_2 O9_2 1_555 1_555
O10_2 Cd6_2 1_555 1_555
H4_2 C4_2 1_555 1_555
C11_2 H6_2 1_555 1_555
C12_2 C11_2 1_555 1_555
H7_2 C12_2 1_555 1_555
C13_2 H8_2 1_555 1_555
C20_2 C19_2 1_555 1_555
N4_2 C11_2 1_555 1_555
N5_2 C16_2 1_555 1_555
N6_2 Cd4 1_555 1_555
N8_2 Cd4 1_555 1_555
O5_2 C20_2 1_555 1_555
O6_2 Cd4 1_555 1_555
O7_2 C20_2 1_555 1_555
O11_2 Cd4 1_555 1_555
Cd4 N4_2 1_555 1_555
Cd3_2 N5_2 1_555 1_555
C12_2 C15_2 1_555 1_555
C13_2 N4_2 1_555 1_555
C19_2 N5_2 1_555 1_555
O5_2 Cd3_2 1_555 1_555
O7_2 H12_2 1_555 1_555
H9_3 C14_3 1_555 1_555
C11_3 H6_3 1_555 1_555
C12_3 C11_3 1_555 1_555
C13_3 H8_3 1_555 1_555
N4_3 C11_3 1_555 1_555
N6_3 Cd6 1_555 1_555
N8_3 Cd6 1_555 1_555
O6_3 Cd6 1_555 1_555
Cd6 N4_3 1_555 1_555
C12_3 C15_3 1_555 1_555
C13_3 N4_3 1_555 1_555
C1_3 H1_3 1_555 1_555
C2_3 C1_3 1_555 1_555
C3_3 H3_3 1_555 1_555
C5_3 C2_3 1_555 1_555
N1_3 C1_3 1_555 1_555
Cd3_2 N1_3 1_555 1_555
C3_3 N1_3 1_555 1_555
H4_3 C4_3 1_555 1_555
C1_4 H1_4 1_555 1_555
C2_4 C1_4 1_555 1_555
C3_4 H3_4 1_555 1_555
C4_4 C3_4 1_555 1_555
H4_4 C4_4 1_555 1_555
C5_4 C2_4 1_555 1_555
N1_4 C1_4 1_555 1_555
Cd3 N1_4 1_555 1_555
O11_2 Cd3 1_555 1_555
C3_4 N1_4 1_555 1_555
C4_4 C5_4 1_555 1_555
C11_4 H6_4 1_555 1_555
C12_4 C11_4 1_555 1_555
C13_4 H8_4 1_555 1_555
C14_4 C13_4 1_555 1_555
H9_4 C14_4 1_555 1_555
N4_4 C11_4 1_555 1_555
N6_4 Cd6_2 1_555 1_555
N8_4 Cd6_2 1_555 1_555
O6_4 Cd6_2 1_555 1_555
Cd6_2 N4_4 1_555 1_555
C12_4 C15_4 1_555 1_555
C13_4 N4_4 1_555 1_555
C14_4 C15_4 1_555 1_555
C20_3 C19_3 1_555 1_555
N6_4 C16_3 1_555 1_555
O6_4 C20_3 1_555 1_555
O7_3 C20_3 1_555 1_555
C19_3 N6_4 1_555 1_555
C6_3 H5_3 1_555 1_555
C7_3 C8_3 1_555 1_555
C8_3 O3_3 1_555 1_555
C9_3 C7_3 1_555 1_555
C10_3 C9_3 1_555 1_555
N6 C6_3 1_555 1_555
N8_4 C6_3 1_555 1_555
O6 C10_3 1_555 1_555
O2_3 C10_3 1_555 1_555
O10_2 C8_3 1_555 1_555
C17_3 C18_3 1_555 1_555
C7_3 N8_4 1_555 1_555
C9_3 N6 1_555 1_555
C17_3 N8 1_555 1_555
C18_3 O11 1_555 1_555
O2_3 H11_3 1_555 1_555
C20_4 C19_4 1_555 1_555
N6_3 C16_4 1_555 1_555
O6_3 C20_4 1_555 1_555
O7_4 C20_4 1_555 1_555
C19_4 N6_3 1_555 1_555
O7_4 H12_4 1_555 1_555
C6_4 H5_4 1_555 1_555
C7_4 C8_4 1_555 1_555
C9_4 C7_4 1_555 1_555
C10_4 C9_4 1_555 1_555
N6_2 C6_4 1_555 1_555
N8_3 C6_4 1_555 1_555
O6_2 C10_4 1_555 1_555
O2_4 C10_4 1_555 1_555
O10 C8_4 1_555 1_555
C17_4 C18_4 1_555 1_555
C18_4 O8_4 1_555 1_555
C7_4 N8_3 1_555 1_555
C9_4 N6_2 1_555 1_555
C17_4 N8_2 1_555 1_555
C18_4 O11_2 1_555 1_555

#END
