
###############################################################################
#
# This file contains modified crystal structure data generated from the
# MOF subset of the Cambridge Structural Database (CSD) v543 
# hosted by the Cambridge Crystallographic Data Centre (CCDC).
#
# This work is licensed under the Creative Commons
# Attribution-NonCommercial-ShareAlike 4.0 International License.
# To view a copy of this license, visit
# http://creativecommons.org/licenses/by-nc-sa/4.0/
# or send a letter to
# Creative Commons, PO Box 1866, Mountain View, CA 94042, USA.
#
# CIF created using the CSD Python API on 29 September 2022
# The structure has been converted into the P1 space group
# The structure has a 3D framework
# The original CSD entry QEKCUH is in the orthorhombic crystal system
# The framework has been calculated to contain at least 10.0% void space
# The void calculation uses a probe of radius 1.32A, grid spacing 0.4
# The framework is charged, counterions have been retained in the structure
#
###############################################################################

data_QEKCUH
_chemical_formula_moiety         '(C484 H768 Ca16 Co16 Mo125 N160 O621 P48)n'
_symmetry_cell_setting           triclinic
_symmetry_space_group_name_H-M   'P 1'
_symmetry_Int_Tables_number      1
_space_group_name_Hall           'P 1'
loop_
_symmetry_equiv_pos_site_id
_symmetry_equiv_pos_as_xyz
1 x,y,z
_cell_length_a                   60.289(3)
_cell_length_b                   34.7893(15)
_cell_length_c                   13.9080(4)
_cell_angle_alpha                90
_cell_angle_beta                 90
_cell_angle_gamma                90
_cell_volume                     29170.8
loop_
_atom_site_label
_atom_site_type_symbol
_atom_site_fract_x
_atom_site_fract_y
_atom_site_fract_z
Co1 Co 0.51003(3) 0.32504(5) 0.13276(12)
N1 N 0.53655(16) 0.3417(3) 0.0674(7)
N2 N 0.49633(17) 0.3316(3) 0.0070(7)
N3 N 0.51189(18) 0.2721(3) 0.0969(7)
N4 N 0.48237(18) 0.3081(3) 0.1935(7)
N5 N 0.52482(18) 0.3180(3) 0.2546(8)
N6 N 0.50645(18) 0.3766(3) 0.1772(7)
C1 C 0.5559(2) 0.3508(4) 0.1057(9)
H1 H 0.558026 0.345962 0.172276
C2 C 0.5731(2) 0.3667(4) 0.0558(9)
H2 H 0.586454 0.374027 0.087299
H8 H 0.464502 0.320088 0.032490
C11 C 0.5282(2) 0.2560(4) 0.0434(9)
H9 H 0.540753 0.270918 0.025810
C12 C 0.5269(3) 0.2185(4) 0.0144(10)
C13 C 0.5086(2) 0.1955(4) 0.0415(9)
H11 H 0.507457 0.169530 0.020674
C14 C 0.4927(2) 0.2112(4) 0.0976(9)
H12 H 0.480503 0.196014 0.118598
C15 C 0.4941(2) 0.2500(4) 0.1247(8)
C16 C 0.4778(2) 0.2705(4) 0.1828(9)
C17 C 0.4589(3) 0.2549(5) 0.2183(11)
H13 H 0.455821 0.228358 0.209625
C18 C 0.4441(3) 0.2786(5) 0.2679(12)
H14 H 0.430700 0.268206 0.292421
C19 C 0.4488(3) 0.3161(5) 0.2812(11)
H15 H 0.439020 0.332253 0.316248
C20 C 0.4685(2) 0.3307(5) 0.2420(10)
H16 H 0.471988 0.357084 0.250216
C21 C 0.5352(2) 0.2863(4) 0.2838(9)
H17 H 0.535514 0.264493 0.242758
C22 C 0.5456(2) 0.2843(4) 0.3719(9)
H18 H 0.552814 0.261333 0.391535
C23 C 0.5453(2) 0.3151(4) 0.4294(9)
H19 H 0.552305 0.314073 0.490530
C24 C 0.5347(2) 0.3492(4) 0.3998(9)
H20 H 0.534603 0.371404 0.439429
C25 C 0.5243(2) 0.3492(4) 0.3115(9)
C26 C 0.5131(2) 0.3824(4) 0.2688(10)
C27 C 0.5086(2) 0.4165(4) 0.3154(10)
H21 H 0.513402 0.420613 0.379666
C28 C 0.4970(3) 0.4450(4) 0.2657(11)
H22 H 0.492784 0.468060 0.297566
C29 C 0.4916(3) 0.4396(4) 0.1712(11)
H23 H 0.484701 0.459559 0.135335
C30 C 0.4964(2) 0.4049(4) 0.1288(10)
H24 H 0.492363 0.400846 0.063461
C3 C 0.5705(2) 0.3719(4) 0.9574(10)
H3 H 0.582184 0.381952 0.919395
C4 C 0.5503(2) 0.3619(4) 0.9159(10)
H4 H 0.547933 0.365979 0.849101
C5 C 0.5341(2) 0.3466(4) 0.9705(9)
C6 C 0.5118(2) 0.3376(4) 0.9362(8)
C7 C 0.5060(2) 0.3351(4) 0.8396(8)
H5 H 0.516592 0.339815 0.790600
C8 C 0.4846(2) 0.3258(4) 0.8168(9)
H6 H 0.480432 0.322646 0.751356
C9 C 0.4691(2) 0.3210(4) 0.8880(9)
H7 H 0.454101 0.315809 0.871634
C10 C 0.4753(2) 0.3238(4) 0.9834(9)
H10 H 0.538318 0.207784 0.975734
Co1_2 Co 0.48997(3) 0.67496(5) 0.13276(12)
N1_2 N 0.46345(16) 0.6583(3) 0.0674(7)
N2_2 N 0.50367(17) 0.6684(3) 0.0070(7)
N3_2 N 0.48811(18) 0.7279(3) 0.0969(7)
N4_2 N 0.51763(18) 0.6919(3) 0.1935(7)
N5_2 N 0.47518(18) 0.6820(3) 0.2546(8)
N6_2 N 0.49355(18) 0.6234(3) 0.1772(7)
C1_2 C 0.4441(2) 0.6492(4) 0.1057(9)
H1_2 H 0.441974 0.654038 0.172276
C2_2 C 0.4269(2) 0.6333(4) 0.0558(9)
H2_2 H 0.413546 0.625973 0.087299
H8_2 H 0.535498 0.679912 0.032490
C11_2 C 0.4718(2) 0.7440(4) 0.0434(9)
H9_2 H 0.459247 0.729082 0.025810
C12_2 C 0.4731(3) 0.7815(4) 0.0144(10)
C13_2 C 0.4914(2) 0.8045(4) 0.0415(9)
H11_2 H 0.492543 0.830470 0.020674
C14_2 C 0.5073(2) 0.7888(4) 0.0976(9)
H12_2 H 0.519497 0.803986 0.118598
C15_2 C 0.5059(2) 0.7500(4) 0.1247(8)
C16_2 C 0.5222(2) 0.7295(4) 0.1828(9)
C17_2 C 0.5411(3) 0.7451(5) 0.2183(11)
H13_2 H 0.544179 0.771642 0.209625
C18_2 C 0.5559(3) 0.7214(5) 0.2679(12)
H14_2 H 0.569300 0.731794 0.292421
C19_2 C 0.5512(3) 0.6839(5) 0.2812(11)
H15_2 H 0.560980 0.667747 0.316248
C20_2 C 0.5315(2) 0.6693(5) 0.2420(10)
H16_2 H 0.528012 0.642916 0.250216
C21_2 C 0.4648(2) 0.7137(4) 0.2838(9)
H17_2 H 0.464486 0.735507 0.242758
C22_2 C 0.4544(2) 0.7157(4) 0.3719(9)
H18_2 H 0.447186 0.738667 0.391535
C23_2 C 0.4547(2) 0.6849(4) 0.4294(9)
H19_2 H 0.447695 0.685927 0.490530
C24_2 C 0.4653(2) 0.6508(4) 0.3998(9)
H20_2 H 0.465397 0.628596 0.439429
C25_2 C 0.4757(2) 0.6508(4) 0.3115(9)
C26_2 C 0.4869(2) 0.6176(4) 0.2688(10)
C27_2 C 0.4914(2) 0.5835(4) 0.3154(10)
H21_2 H 0.486598 0.579387 0.379666
C28_2 C 0.5030(3) 0.5550(4) 0.2657(11)
H22_2 H 0.507216 0.531940 0.297566
C29_2 C 0.5084(3) 0.5604(4) 0.1712(11)
H23_2 H 0.515299 0.540441 0.135335
C30_2 C 0.5036(2) 0.5951(4) 0.1288(10)
H24_2 H 0.507637 0.599154 0.063461
C3_2 C 0.4295(2) 0.6281(4) 0.9574(10)
H3_2 H 0.417816 0.618048 0.919395
C4_2 C 0.4497(2) 0.6381(4) 0.9159(10)
H4_2 H 0.452067 0.634021 0.849101
C5_2 C 0.4659(2) 0.6534(4) 0.9705(9)
C6_2 C 0.4882(2) 0.6624(4) 0.9362(8)
C7_2 C 0.4940(2) 0.6649(4) 0.8396(8)
H5_2 H 0.483408 0.660185 0.790600
C8_2 C 0.5154(2) 0.6742(4) 0.8168(9)
H6_2 H 0.519568 0.677354 0.751356
C9_2 C 0.5309(2) 0.6790(4) 0.8880(9)
H7_2 H 0.545899 0.684191 0.871634
C10_2 C 0.5247(2) 0.6762(4) 0.9834(9)
H10_2 H 0.461682 0.792216 0.975734
Co1_3 Co 0.73997(3) 0.57504(5) 0.38276(12)
N1_3 N 0.71345(16) 0.5917(3) 0.3174(7)
N2_3 N 0.75367(17) 0.5816(3) 0.2570(7)
N3_3 N 0.73811(18) 0.5221(3) 0.3469(7)
N4_3 N 0.76763(18) 0.5581(3) 0.4435(7)
N5_3 N 0.72518(18) 0.5680(3) 0.5046(8)
N6_3 N 0.74355(18) 0.6266(3) 0.4272(7)
C1_3 C 0.6941(2) 0.6008(4) 0.3557(9)
H1_3 H 0.691974 0.595962 0.422276
C2_3 C 0.6769(2) 0.6167(4) 0.3058(9)
H2_3 H 0.663546 0.624027 0.337299
C3_3 C 0.6795(2) 0.6219(4) 0.2074(10)
H3_3 H 0.667816 0.631952 0.169395
C4_3 C 0.6997(2) 0.6119(4) 0.1659(10)
H4_3 H 0.702067 0.615979 0.099101
C5_3 C 0.7159(2) 0.5966(4) 0.2205(9)
C6_3 C 0.7382(2) 0.5876(4) 0.1862(8)
C7_3 C 0.7440(2) 0.5851(4) 0.0896(8)
H5_3 H 0.733408 0.589815 0.040600
C8_3 C 0.7654(2) 0.5758(4) 0.0668(9)
H6_3 H 0.769568 0.572646 0.001356
C9_3 C 0.7809(2) 0.5710(4) 0.1380(9)
H7_3 H 0.795899 0.565809 0.121634
C10_3 C 0.7747(2) 0.5738(4) 0.2334(9)
H8_3 H 0.785498 0.570088 0.282490
C11_3 C 0.7218(2) 0.5060(4) 0.2934(9)
H9_3 H 0.709247 0.520918 0.275810
C12_3 C 0.7231(3) 0.4685(4) 0.2644(10)
H10_3 H 0.711682 0.457784 0.225734
C13_3 C 0.7414(2) 0.4455(4) 0.2915(9)
H11_3 H 0.742543 0.419530 0.270674
C14_3 C 0.7573(2) 0.4612(4) 0.3476(9)
H12_3 H 0.769497 0.446014 0.368598
C15_3 C 0.7559(2) 0.5000(4) 0.3747(8)
C16_3 C 0.7722(2) 0.5205(4) 0.4328(9)
C17_3 C 0.7911(3) 0.5049(5) 0.4683(11)
H13_3 H 0.794179 0.478358 0.459625
C18_3 C 0.8059(3) 0.5286(5) 0.5179(12)
H14_3 H 0.819300 0.518206 0.542421
C19_3 C 0.8012(3) 0.5661(5) 0.5312(11)
H15_3 H 0.810980 0.582253 0.566248
C20_3 C 0.7815(2) 0.5807(5) 0.4920(10)
H16_3 H 0.778012 0.607084 0.500216
C21_3 C 0.7148(2) 0.5363(4) 0.5338(9)
H17_3 H 0.714486 0.514493 0.492758
C22_3 C 0.7044(2) 0.5343(4) 0.6219(9)
H18_3 H 0.697186 0.511333 0.641535
C23_3 C 0.7047(2) 0.5651(4) 0.6794(9)
H19_3 H 0.697695 0.564073 0.740530
C24_3 C 0.7153(2) 0.5992(4) 0.6498(9)
H20_3 H 0.715397 0.621404 0.689429
C25_3 C 0.7257(2) 0.5992(4) 0.5615(9)
C26_3 C 0.7369(2) 0.6324(4) 0.5188(10)
C27_3 C 0.7414(2) 0.6665(4) 0.5654(10)
H21_3 H 0.736598 0.670613 0.629666
C28_3 C 0.7530(3) 0.6950(4) 0.5157(11)
H22_3 H 0.757216 0.718060 0.547566
C29_3 C 0.7584(3) 0.6896(4) 0.4212(11)
H23_3 H 0.765299 0.709559 0.385335
C30_3 C 0.7536(2) 0.6549(4) 0.3788(10)
H24_3 H 0.757637 0.650846 0.313461
C12_4 C 0.7769(3) 0.0315(4) 0.2644(10)
H10_4 H 0.788318 0.042216 0.225734
C13_4 C 0.7586(2) 0.0545(4) 0.2915(9)
H11_4 H 0.757457 0.080470 0.270674
C14_4 C 0.7427(2) 0.0388(4) 0.3476(9)
H12_4 H 0.730503 0.053986 0.368598
C15_4 C 0.7441(2) 0.0000(4) 0.3747(8)
H13_4 H 0.705821 0.021642 0.459625
Co1_4 Co 0.76003(3) 0.92496(5) 0.38276(12)
N1_4 N 0.78655(16) 0.9083(3) 0.3174(7)
N2_4 N 0.74633(17) 0.9184(3) 0.2570(7)
N3_4 N 0.76189(18) 0.9779(3) 0.3469(7)
N4_4 N 0.73237(18) 0.9419(3) 0.4435(7)
N5_4 N 0.77482(18) 0.9320(3) 0.5046(8)
N6_4 N 0.75645(18) 0.8734(3) 0.4272(7)
C1_4 C 0.8059(2) 0.8992(4) 0.3557(9)
H1_4 H 0.808026 0.904038 0.422276
C2_4 C 0.8231(2) 0.8833(4) 0.3058(9)
H2_4 H 0.836454 0.875973 0.337299
C3_4 C 0.8205(2) 0.8781(4) 0.2074(10)
H3_4 H 0.832184 0.868048 0.169395
C4_4 C 0.8003(2) 0.8881(4) 0.1659(10)
H4_4 H 0.797933 0.884021 0.099101
C5_4 C 0.7841(2) 0.9034(4) 0.2205(9)
C6_4 C 0.7618(2) 0.9124(4) 0.1862(8)
C7_4 C 0.7560(2) 0.9149(4) 0.0896(8)
H5_4 H 0.766592 0.910185 0.040600
C8_4 C 0.7346(2) 0.9242(4) 0.0668(9)
H6_4 H 0.730432 0.927354 0.001356
C9_4 C 0.7191(2) 0.9290(4) 0.1380(9)
H7_4 H 0.704101 0.934191 0.121634
C10_4 C 0.7253(2) 0.9262(4) 0.2334(9)
H8_4 H 0.714502 0.929912 0.282490
C11_4 C 0.7782(2) 0.9940(4) 0.2934(9)
H9_4 H 0.790753 0.979082 0.275810
C15_5 C 0.7441(2) 1.0000(4) 0.3747(8)
C16_4 C 0.7278(2) 0.9795(4) 0.4328(9)
C17_4 C 0.7089(3) 0.9951(5) 0.4683(11)
C18_4 C 0.6941(3) 0.9714(5) 0.5179(12)
H14_4 H 0.680700 0.981794 0.542421
C19_4 C 0.6988(3) 0.9339(5) 0.5312(11)
H15_4 H 0.689020 0.917747 0.566248
C20_4 C 0.7185(2) 0.9193(5) 0.4920(10)
H16_4 H 0.721988 0.892916 0.500216
C21_4 C 0.7852(2) 0.9637(4) 0.5338(9)
H17_4 H 0.785514 0.985507 0.492758
C22_4 C 0.7956(2) 0.9657(4) 0.6219(9)
H18_4 H 0.802814 0.988667 0.641535
C23_4 C 0.7953(2) 0.9349(4) 0.6794(9)
H19_4 H 0.802305 0.935927 0.740530
C24_4 C 0.7847(2) 0.9008(4) 0.6498(9)
H20_4 H 0.784603 0.878596 0.689429
C25_4 C 0.7743(2) 0.9008(4) 0.5615(9)
C26_4 C 0.7631(2) 0.8676(4) 0.5188(10)
C27_4 C 0.7586(2) 0.8335(4) 0.5654(10)
H21_4 H 0.763402 0.829387 0.629666
C28_4 C 0.7470(3) 0.8050(4) 0.5157(11)
H22_4 H 0.742784 0.781940 0.547566
C29_4 C 0.7416(3) 0.8104(4) 0.4212(11)
H23_4 H 0.734701 0.790441 0.385335
C30_4 C 0.7464(2) 0.8451(4) 0.3788(10)
H24_4 H 0.742363 0.849154 0.313461
Co1_5 Co 0.51003(3) 0.82504(5) 0.63276(12)
N1_5 N 0.53655(16) 0.8417(3) 0.5674(7)
N2_5 N 0.49633(17) 0.8316(3) 0.5070(7)
N3_5 N 0.51189(18) 0.7721(3) 0.5969(7)
N4_5 N 0.48237(18) 0.8081(3) 0.6935(7)
N5_5 N 0.52482(18) 0.8180(3) 0.7546(8)
N6_5 N 0.50645(18) 0.8766(3) 0.6772(7)
C1_5 C 0.5559(2) 0.8508(4) 0.6057(9)
H1_5 H 0.558026 0.845962 0.672276
C2_5 C 0.5731(2) 0.8667(4) 0.5558(9)
H2_5 H 0.586454 0.874027 0.587299
C3_5 C 0.5705(2) 0.8719(4) 0.4574(10)
H3_5 H 0.582184 0.881952 0.419395
C4_5 C 0.5503(2) 0.8619(4) 0.4159(10)
H4_5 H 0.547933 0.865979 0.349101
C5_5 C 0.5341(2) 0.8466(4) 0.4705(9)
C6_5 C 0.5118(2) 0.8376(4) 0.4362(8)
C7_5 C 0.5060(2) 0.8351(4) 0.3396(8)
H5_5 H 0.516592 0.839815 0.290600
C8_5 C 0.4846(2) 0.8258(4) 0.3168(9)
H6_5 H 0.480432 0.822646 0.251356
C9_5 C 0.4691(2) 0.8210(4) 0.3880(9)
H7_5 H 0.454101 0.815809 0.371634
C10_5 C 0.4753(2) 0.8238(4) 0.4834(9)
H8_5 H 0.464502 0.820088 0.532490
C11_5 C 0.5282(2) 0.7560(4) 0.5434(9)
H9_5 H 0.540753 0.770918 0.525810
C12_5 C 0.5269(3) 0.7185(4) 0.5144(10)
H10_5 H 0.538318 0.707784 0.475734
C13_5 C 0.5086(2) 0.6955(4) 0.5415(9)
H11_5 H 0.507457 0.669530 0.520674
C14_5 C 0.4927(2) 0.7112(4) 0.5976(9)
H12_5 H 0.480503 0.696014 0.618598
C15_6 C 0.4941(2) 0.7500(4) 0.6247(8)
C16_5 C 0.4778(2) 0.7705(4) 0.6828(9)
C17_5 C 0.4589(3) 0.7549(5) 0.7183(11)
H13_5 H 0.455821 0.728358 0.709625
C18_5 C 0.4441(3) 0.7786(5) 0.7679(12)
H14_5 H 0.430700 0.768206 0.792421
C19_5 C 0.4488(3) 0.8161(5) 0.7812(11)
H15_5 H 0.439020 0.832253 0.816248
C20_5 C 0.4685(2) 0.8307(5) 0.7420(10)
H16_5 H 0.471988 0.857084 0.750216
C21_5 C 0.5352(2) 0.7863(4) 0.7838(9)
H17_5 H 0.535514 0.764493 0.742758
C22_5 C 0.5456(2) 0.7843(4) 0.8719(9)
H18_5 H 0.552814 0.761333 0.891535
C23_5 C 0.5453(2) 0.8151(4) 0.9294(9)
H19_5 H 0.552305 0.814073 0.990530
C24_5 C 0.5347(2) 0.8492(4) 0.8998(9)
H20_5 H 0.534603 0.871404 0.939429
C25_5 C 0.5243(2) 0.8492(4) 0.8115(9)
C26_5 C 0.5131(2) 0.8824(4) 0.7688(10)
C27_5 C 0.5086(2) 0.9165(4) 0.8154(10)
H21_5 H 0.513402 0.920613 0.879666
C28_5 C 0.4970(3) 0.9450(4) 0.7657(11)
H22_5 H 0.492784 0.968060 0.797566
C29_5 C 0.4916(3) 0.9396(4) 0.6712(11)
H23_5 H 0.484701 0.959559 0.635335
C30_5 C 0.4964(2) 0.9049(4) 0.6288(10)
H24_5 H 0.492363 0.900846 0.563461
Co1_6 Co 0.48997(3) 0.17496(5) 0.63276(12)
N1_6 N 0.46345(16) 0.1583(3) 0.5674(7)
N2_6 N 0.50367(17) 0.1684(3) 0.5070(7)
N3_6 N 0.48811(18) 0.2279(3) 0.5969(7)
N4_6 N 0.51763(18) 0.1919(3) 0.6935(7)
N5_6 N 0.47518(18) 0.1820(3) 0.7546(8)
N6_6 N 0.49355(18) 0.1234(3) 0.6772(7)
C1_6 C 0.4441(2) 0.1492(4) 0.6057(9)
H1_6 H 0.441974 0.154038 0.672276
C2_6 C 0.4269(2) 0.1333(4) 0.5558(9)
H2_6 H 0.413546 0.125973 0.587299
C3_6 C 0.4295(2) 0.1281(4) 0.4574(10)
H3_6 H 0.417816 0.118048 0.419395
C4_6 C 0.4497(2) 0.1381(4) 0.4159(10)
H4_6 H 0.452067 0.134021 0.349101
C5_6 C 0.4659(2) 0.1534(4) 0.4705(9)
C6_6 C 0.4882(2) 0.1624(4) 0.4362(8)
C7_6 C 0.4940(2) 0.1649(4) 0.3396(8)
H5_6 H 0.483408 0.160185 0.290600
C8_6 C 0.5154(2) 0.1742(4) 0.3168(9)
H6_6 H 0.519568 0.177354 0.251356
C9_6 C 0.5309(2) 0.1790(4) 0.3880(9)
H7_6 H 0.545899 0.184191 0.371634
C10_6 C 0.5247(2) 0.1762(4) 0.4834(9)
H8_6 H 0.535498 0.179912 0.532490
C11_6 C 0.4718(2) 0.2440(4) 0.5434(9)
H9_6 H 0.459247 0.229082 0.525810
C12_6 C 0.4731(3) 0.2815(4) 0.5144(10)
H10_6 H 0.461682 0.292216 0.475734
C13_6 C 0.4914(2) 0.3045(4) 0.5415(9)
H11_6 H 0.492543 0.330470 0.520674
C14_6 C 0.5073(2) 0.2888(4) 0.5976(9)
H12_6 H 0.519497 0.303986 0.618598
C15_7 C 0.5059(2) 0.2500(4) 0.6247(8)
C16_6 C 0.5222(2) 0.2295(4) 0.6828(9)
C17_6 C 0.5411(3) 0.2451(5) 0.7183(11)
H13_6 H 0.544179 0.271642 0.709625
C18_6 C 0.5559(3) 0.2214(5) 0.7679(12)
H14_6 H 0.569300 0.231794 0.792421
C19_6 C 0.5512(3) 0.1839(5) 0.7812(11)
H15_6 H 0.560980 0.167747 0.816248
C20_6 C 0.5315(2) 0.1693(5) 0.7420(10)
H16_6 H 0.528012 0.142916 0.750216
C21_6 C 0.4648(2) 0.2137(4) 0.7838(9)
H17_6 H 0.464486 0.235507 0.742758
C22_6 C 0.4544(2) 0.2157(4) 0.8719(9)
H18_6 H 0.447186 0.238667 0.891535
C23_6 C 0.4547(2) 0.1849(4) 0.9294(9)
H19_6 H 0.447695 0.185927 0.990530
C24_6 C 0.4653(2) 0.1508(4) 0.8998(9)
H20_6 H 0.465397 0.128596 0.939429
C25_6 C 0.4757(2) 0.1508(4) 0.8115(9)
C26_6 C 0.4869(2) 0.1176(4) 0.7688(10)
C27_6 C 0.4914(2) 0.0835(4) 0.8154(10)
H21_6 H 0.486598 0.079387 0.879666
C28_6 C 0.5030(3) 0.0550(4) 0.7657(11)
H22_6 H 0.507216 0.031940 0.797566
C29_6 C 0.5084(3) 0.0604(4) 0.6712(11)
H23_6 H 0.515299 0.040441 0.635335
C30_6 C 0.5036(2) 0.0951(4) 0.6288(10)
H24_6 H 0.507637 0.099154 0.563461
N5_7 N 0.72518(18) 0.0680(3) 0.0046(8)
C18_7 C 0.8059(3) 0.0286(5) 0.0179(12)
H14_7 H 0.819300 0.018206 0.042421
C19_7 C 0.8012(3) 0.0661(5) 0.0312(11)
H15_7 H 0.810980 0.082253 0.066248
H16_7 H 0.778012 0.107084 0.000216
C21_7 C 0.7148(2) 0.0363(4) 0.0338(9)
C22_7 C 0.7044(2) 0.0343(4) 0.1219(9)
H18_7 H 0.697186 0.011333 0.141535
C23_7 C 0.7047(2) 0.0651(4) 0.1794(9)
H19_7 H 0.697695 0.064073 0.240530
C24_7 C 0.7153(2) 0.0992(4) 0.1498(9)
H20_7 H 0.715397 0.121404 0.189429
C25_7 C 0.7257(2) 0.0992(4) 0.0615(9)
C26_7 C 0.7369(2) 0.1324(4) 0.0188(10)
C27_7 C 0.7414(2) 0.1665(4) 0.0654(10)
H21_7 H 0.736598 0.170613 0.129666
C28_7 C 0.7530(3) 0.1950(4) 0.0157(11)
H22_7 H 0.757216 0.218060 0.047566
Co1_7 Co 0.73997(3) 0.07504(5) 0.88276(12)
N1_7 N 0.71345(16) 0.0917(3) 0.8174(7)
N2_7 N 0.75367(17) 0.0816(3) 0.7570(7)
N3_7 N 0.73811(18) 0.0221(3) 0.8469(7)
N4_7 N 0.76763(18) 0.0581(3) 0.9435(7)
N6_7 N 0.74355(18) 0.1266(3) 0.9272(7)
C1_7 C 0.6941(2) 0.1008(4) 0.8557(9)
H1_7 H 0.691974 0.095962 0.922276
C2_7 C 0.6769(2) 0.1167(4) 0.8058(9)
H2_7 H 0.663546 0.124027 0.837299
C3_7 C 0.6795(2) 0.1219(4) 0.7074(10)
H3_7 H 0.667816 0.131952 0.669395
C4_7 C 0.6997(2) 0.1119(4) 0.6659(10)
H4_7 H 0.702067 0.115979 0.599101
C5_7 C 0.7159(2) 0.0966(4) 0.7205(9)
C6_7 C 0.7382(2) 0.0876(4) 0.6862(8)
C7_7 C 0.7440(2) 0.0851(4) 0.5896(8)
H5_7 H 0.733408 0.089815 0.540600
C8_7 C 0.7654(2) 0.0758(4) 0.5668(9)
H6_7 H 0.769568 0.072646 0.501356
C9_7 C 0.7809(2) 0.0710(4) 0.6380(9)
H7_7 H 0.795899 0.065809 0.621634
C10_7 C 0.7747(2) 0.0738(4) 0.7334(9)
H8_7 H 0.785498 0.070088 0.782490
C11_7 C 0.7218(2) 0.0060(4) 0.7934(9)
H9_7 H 0.709247 0.020918 0.775810
C15_8 C 0.7559(2) 0.0000(4) 0.8747(8)
C16_7 C 0.7722(2) 0.0205(4) 0.9328(9)
C17_7 C 0.7911(3) 0.0049(5) 0.9683(11)
C20_7 C 0.7815(2) 0.0807(5) 0.9920(10)
H17_7 H 0.714486 0.014493 0.992758
C29_7 C 0.7584(3) 0.1896(4) 0.9212(11)
H23_7 H 0.765299 0.209559 0.885335
C30_7 C 0.7536(2) 0.1549(4) 0.8788(10)
H24_7 H 0.757637 0.150846 0.813461
C12_7 C 0.7231(3) 0.9685(4) 0.7644(10)
H10_7 H 0.711682 0.957784 0.725734
C13_7 C 0.7414(2) 0.9455(4) 0.7915(9)
H11_7 H 0.742543 0.919530 0.770674
C14_7 C 0.7573(2) 0.9612(4) 0.8476(9)
H12_7 H 0.769497 0.946014 0.868598
C15_9 C 0.7559(2) 1.0000(4) 0.8747(8)
H13_7 H 0.794179 0.978358 0.959625
N5_8 N 0.77482(18) 0.4320(3) 0.0046(8)
C18_8 C 0.6941(3) 0.4714(5) 0.0179(12)
H14_8 H 0.680700 0.481794 0.042421
C19_8 C 0.6988(3) 0.4339(5) 0.0312(11)
H15_8 H 0.689020 0.417747 0.066248
H16_8 H 0.721988 0.392916 0.000216
C21_8 C 0.7852(2) 0.4637(4) 0.0338(9)
C22_8 C 0.7956(2) 0.4657(4) 0.1219(9)
H18_8 H 0.802814 0.488667 0.141535
C23_8 C 0.7953(2) 0.4349(4) 0.1794(9)
H19_8 H 0.802305 0.435927 0.240530
C24_8 C 0.7847(2) 0.4008(4) 0.1498(9)
H20_8 H 0.784603 0.378596 0.189429
C25_8 C 0.7743(2) 0.4008(4) 0.0615(9)
C26_8 C 0.7631(2) 0.3676(4) 0.0188(10)
C27_8 C 0.7586(2) 0.3335(4) 0.0654(10)
H21_8 H 0.763402 0.329387 0.129666
C28_8 C 0.7470(3) 0.3050(4) 0.0157(11)
H22_8 H 0.742784 0.281940 0.047566
Co1_8 Co 0.76003(3) 0.42496(5) 0.88276(12)
N1_8 N 0.78655(16) 0.4083(3) 0.8174(7)
N2_8 N 0.74633(17) 0.4184(3) 0.7570(7)
N3_8 N 0.76189(18) 0.4779(3) 0.8469(7)
N4_8 N 0.73237(18) 0.4419(3) 0.9435(7)
N6_8 N 0.75645(18) 0.3734(3) 0.9272(7)
C1_8 C 0.8059(2) 0.3992(4) 0.8557(9)
H1_8 H 0.808026 0.404038 0.922276
C2_8 C 0.8231(2) 0.3833(4) 0.8058(9)
H2_8 H 0.836454 0.375973 0.837299
C3_8 C 0.8205(2) 0.3781(4) 0.7074(10)
H3_8 H 0.832184 0.368048 0.669395
C4_8 C 0.8003(2) 0.3881(4) 0.6659(10)
H4_8 H 0.797933 0.384021 0.599101
C5_8 C 0.7841(2) 0.4034(4) 0.7205(9)
C6_8 C 0.7618(2) 0.4124(4) 0.6862(8)
C7_8 C 0.7560(2) 0.4149(4) 0.5896(8)
H5_8 H 0.766592 0.410185 0.540600
C8_8 C 0.7346(2) 0.4242(4) 0.5668(9)
H6_8 H 0.730432 0.427354 0.501356
C9_8 C 0.7191(2) 0.4290(4) 0.6380(9)
H7_8 H 0.704101 0.434191 0.621634
C10_8 C 0.7253(2) 0.4262(4) 0.7334(9)
H8_8 H 0.714502 0.429912 0.782490
C11_8 C 0.7782(2) 0.4940(4) 0.7934(9)
H9_8 H 0.790753 0.479082 0.775810
C12_8 C 0.7769(3) 0.5315(4) 0.7644(10)
H10_8 H 0.788318 0.542216 0.725734
C13_8 C 0.7586(2) 0.5545(4) 0.7915(9)
H11_8 H 0.757457 0.580470 0.770674
C14_8 C 0.7427(2) 0.5388(4) 0.8476(9)
H12_8 H 0.730503 0.553986 0.868598
C15_10 C 0.7441(2) 0.5000(4) 0.8747(8)
C16_8 C 0.7278(2) 0.4795(4) 0.9328(9)
C17_8 C 0.7089(3) 0.4951(5) 0.9683(11)
H13_8 H 0.705821 0.521642 0.959625
C20_8 C 0.7185(2) 0.4193(5) 0.9920(10)
H17_8 H 0.785514 0.485507 0.992758
C29_8 C 0.7416(3) 0.3104(4) 0.9212(11)
H23_8 H 0.734701 0.290441 0.885335
C30_8 C 0.7464(2) 0.3451(4) 0.8788(10)
H24_8 H 0.742363 0.349154 0.813461
Co1_9 Co 0.01003(3) 0.32504(5) 0.63276(12)
N1_9 N 0.03655(16) 0.3417(3) 0.5674(7)
N3_9 N 0.01189(18) 0.2721(3) 0.5969(7)
N5_9 N 0.02482(18) 0.3180(3) 0.7546(8)
N6_9 N 0.00645(18) 0.3766(3) 0.6772(7)
C1_9 C 0.0559(2) 0.3508(4) 0.6057(9)
H1_9 H 0.058026 0.345962 0.672276
C2_9 C 0.0731(2) 0.3667(4) 0.5558(9)
H2_9 H 0.086454 0.374027 0.587299
C3_9 C 0.0705(2) 0.3719(4) 0.4574(10)
H3_9 H 0.082184 0.381952 0.419395
C4_9 C 0.0503(2) 0.3619(4) 0.4159(10)
H4_9 H 0.047933 0.365979 0.349101
C5_9 C 0.0341(2) 0.3466(4) 0.4705(9)
C6_9 C 0.0118(2) 0.3376(4) 0.4362(8)
C7_9 C 0.0060(2) 0.3351(4) 0.3396(8)
H5_9 H 0.016592 0.339815 0.290600
C11_9 C 0.0282(2) 0.2560(4) 0.5434(9)
H9_9 H 0.040753 0.270918 0.525810
C12_9 C 0.0269(3) 0.2185(4) 0.5144(10)
H10_9 H 0.038318 0.207784 0.475734
C13_9 C 0.0086(2) 0.1955(4) 0.5415(9)
H11_9 H 0.007457 0.169530 0.520674
C21_9 C 0.0352(2) 0.2863(4) 0.7838(9)
H17_9 H 0.035514 0.264493 0.742758
C22_9 C 0.0456(2) 0.2843(4) 0.8719(9)
H18_9 H 0.052814 0.261333 0.891535
C23_9 C 0.0453(2) 0.3151(4) 0.9294(9)
H19_9 H 0.052305 0.314073 0.990530
C24_9 C 0.0347(2) 0.3492(4) 0.8998(9)
H20_9 H 0.034603 0.371404 0.939429
C25_9 C 0.0243(2) 0.3492(4) 0.8115(9)
C26_9 C 0.0131(2) 0.3824(4) 0.7688(10)
C27_9 C 0.0086(2) 0.4165(4) 0.8154(10)
H21_9 H 0.013402 0.420613 0.879666
N2_9 N 0.99633(17) 0.3316(3) 0.5070(7)
N4_9 N 0.98237(18) 0.3081(3) 0.6935(7)
C8_9 C 0.9846(2) 0.3258(4) 0.3168(9)
H6_9 H 0.980432 0.322646 0.251356
C9_9 C 0.9691(2) 0.3210(4) 0.3880(9)
H7_9 H 0.954101 0.315809 0.371634
C10_9 C 0.9753(2) 0.3238(4) 0.4834(9)
H8_9 H 0.964502 0.320088 0.532490
C14_9 C 0.9927(2) 0.2112(4) 0.5976(9)
H12_9 H 0.980503 0.196014 0.618598
C15_11 C 0.9941(2) 0.2500(4) 0.6247(8)
C16_9 C 0.9778(2) 0.2705(4) 0.6828(9)
C17_9 C 0.9589(3) 0.2549(5) 0.7183(11)
H13_9 H 0.955821 0.228358 0.709625
C18_9 C 0.9441(3) 0.2786(5) 0.7679(12)
H14_9 H 0.930700 0.268206 0.792421
C19_9 C 0.9488(3) 0.3161(5) 0.7812(11)
H15_9 H 0.939020 0.332253 0.816248
C20_9 C 0.9685(2) 0.3307(5) 0.7420(10)
H16_9 H 0.971988 0.357084 0.750216
C28_9 C 0.9970(3) 0.4450(4) 0.7657(11)
H22_9 H 0.992784 0.468060 0.797566
C29_9 C 0.9916(3) 0.4396(4) 0.6712(11)
H23_9 H 0.984701 0.459559 0.635335
C30_9 C 0.9964(2) 0.4049(4) 0.6288(10)
H24_9 H 0.992363 0.400846 0.563461
N2_10 N 0.00367(17) 0.6684(3) 0.5070(7)
N4_10 N 0.01763(18) 0.6919(3) 0.6935(7)
C8_10 C 0.0154(2) 0.6742(4) 0.3168(9)
H6_10 H 0.019568 0.677354 0.251356
C9_10 C 0.0309(2) 0.6790(4) 0.3880(9)
H7_10 H 0.045899 0.684191 0.371634
C10_10 C 0.0247(2) 0.6762(4) 0.4834(9)
H8_10 H 0.035498 0.679912 0.532490
C14_10 C 0.0073(2) 0.7888(4) 0.5976(9)
H12_10 H 0.019497 0.803986 0.618598
C15_12 C 0.0059(2) 0.7500(4) 0.6247(8)
C16_10 C 0.0222(2) 0.7295(4) 0.6828(9)
C17_10 C 0.0411(3) 0.7451(5) 0.7183(11)
H13_10 H 0.044179 0.771642 0.709625
C18_10 C 0.0559(3) 0.7214(5) 0.7679(12)
H14_10 H 0.069300 0.731794 0.792421
C19_10 C 0.0512(3) 0.6839(5) 0.7812(11)
H15_10 H 0.060980 0.667747 0.816248
C20_10 C 0.0315(2) 0.6693(5) 0.7420(10)
H16_10 H 0.028012 0.642916 0.750216
C28_10 C 0.0030(3) 0.5550(4) 0.7657(11)
H22_10 H 0.007216 0.531940 0.797566
C29_10 C 0.0084(3) 0.5604(4) 0.6712(11)
H23_10 H 0.015299 0.540441 0.635335
C30_10 C 0.0036(2) 0.5951(4) 0.6288(10)
H24_10 H 0.007637 0.599154 0.563461
Co1_10 Co 0.98997(3) 0.67496(5) 0.63276(12)
N1_10 N 0.96345(16) 0.6583(3) 0.5674(7)
N3_10 N 0.98811(18) 0.7279(3) 0.5969(7)
N5_10 N 0.97518(18) 0.6820(3) 0.7546(8)
N6_10 N 0.99355(18) 0.6234(3) 0.6772(7)
C1_10 C 0.9441(2) 0.6492(4) 0.6057(9)
H1_10 H 0.941974 0.654038 0.672276
C2_10 C 0.9269(2) 0.6333(4) 0.5558(9)
H2_10 H 0.913546 0.625973 0.587299
C3_10 C 0.9295(2) 0.6281(4) 0.4574(10)
H3_10 H 0.917816 0.618048 0.419395
C4_10 C 0.9497(2) 0.6381(4) 0.4159(10)
H4_10 H 0.952067 0.634021 0.349101
C5_10 C 0.9659(2) 0.6534(4) 0.4705(9)
C6_10 C 0.9882(2) 0.6624(4) 0.4362(8)
C7_10 C 0.9940(2) 0.6649(4) 0.3396(8)
H5_10 H 0.983408 0.660185 0.290600
C11_10 C 0.9718(2) 0.7440(4) 0.5434(9)
H9_10 H 0.959247 0.729082 0.525810
C12_10 C 0.9731(3) 0.7815(4) 0.5144(10)
H10_10 H 0.961682 0.792216 0.475734
C13_10 C 0.9914(2) 0.8045(4) 0.5415(9)
H11_10 H 0.992543 0.830470 0.520674
C21_10 C 0.9648(2) 0.7137(4) 0.7838(9)
H17_10 H 0.964486 0.735507 0.742758
C22_10 C 0.9544(2) 0.7157(4) 0.8719(9)
H18_10 H 0.947186 0.738667 0.891535
C23_10 C 0.9547(2) 0.6849(4) 0.9294(9)
H19_10 H 0.947695 0.685927 0.990530
C24_10 C 0.9653(2) 0.6508(4) 0.8998(9)
H20_10 H 0.965397 0.628596 0.939429
C25_10 C 0.9757(2) 0.6508(4) 0.8115(9)
C26_10 C 0.9869(2) 0.6176(4) 0.7688(10)
C27_10 C 0.9914(2) 0.5835(4) 0.8154(10)
H21_10 H 0.986598 0.579387 0.879666
N5_11 N 0.22518(18) 0.5680(3) 0.0046(8)
C18_11 C 0.3059(3) 0.5286(5) 0.0179(12)
H14_11 H 0.319300 0.518206 0.042421
C19_11 C 0.3012(3) 0.5661(5) 0.0312(11)
H15_11 H 0.310980 0.582253 0.066248
H16_11 H 0.278012 0.607084 0.000216
C21_11 C 0.2148(2) 0.5363(4) 0.0338(9)
C22_11 C 0.2044(2) 0.5343(4) 0.1219(9)
H18_11 H 0.197186 0.511333 0.141535
C23_11 C 0.2047(2) 0.5651(4) 0.1794(9)
H19_11 H 0.197695 0.564073 0.240530
C24_11 C 0.2153(2) 0.5992(4) 0.1498(9)
H20_11 H 0.215397 0.621404 0.189429
C25_11 C 0.2257(2) 0.5992(4) 0.0615(9)
C26_11 C 0.2369(2) 0.6324(4) 0.0188(10)
C27_11 C 0.2414(2) 0.6665(4) 0.0654(10)
H21_11 H 0.236598 0.670613 0.129666
C28_11 C 0.2530(3) 0.6950(4) 0.0157(11)
H22_11 H 0.257216 0.718060 0.047566
Co1_11 Co 0.23997(3) 0.57504(5) 0.88276(12)
N1_11 N 0.21345(16) 0.5917(3) 0.8174(7)
N2_11 N 0.25367(17) 0.5816(3) 0.7570(7)
N3_11 N 0.23811(18) 0.5221(3) 0.8469(7)
N4_11 N 0.26763(18) 0.5581(3) 0.9435(7)
N6_11 N 0.24355(18) 0.6266(3) 0.9272(7)
C1_11 C 0.1941(2) 0.6008(4) 0.8557(9)
H1_11 H 0.191974 0.595962 0.922276
C2_11 C 0.1769(2) 0.6167(4) 0.8058(9)
H2_11 H 0.163546 0.624027 0.837299
C3_11 C 0.1795(2) 0.6219(4) 0.7074(10)
H3_11 H 0.167816 0.631952 0.669395
C4_11 C 0.1997(2) 0.6119(4) 0.6659(10)
H4_11 H 0.202067 0.615979 0.599101
C5_11 C 0.2159(2) 0.5966(4) 0.7205(9)
C6_11 C 0.2382(2) 0.5876(4) 0.6862(8)
C7_11 C 0.2440(2) 0.5851(4) 0.5896(8)
H5_11 H 0.233408 0.589815 0.540600
C8_11 C 0.2654(2) 0.5758(4) 0.5668(9)
H6_11 H 0.269568 0.572646 0.501356
C9_11 C 0.2809(2) 0.5710(4) 0.6380(9)
H7_11 H 0.295899 0.565809 0.621634
C10_11 C 0.2747(2) 0.5738(4) 0.7334(9)
H8_11 H 0.285498 0.570088 0.782490
C11_11 C 0.2218(2) 0.5060(4) 0.7934(9)
H9_11 H 0.209247 0.520918 0.775810
C12_11 C 0.2231(3) 0.4685(4) 0.7644(10)
H10_11 H 0.211682 0.457784 0.725734
C13_11 C 0.2414(2) 0.4455(4) 0.7915(9)
H11_11 H 0.242543 0.419530 0.770674
C14_11 C 0.2573(2) 0.4612(4) 0.8476(9)
H12_11 H 0.269497 0.446014 0.868598
C15_13 C 0.2559(2) 0.5000(4) 0.8747(8)
C16_11 C 0.2722(2) 0.5205(4) 0.9328(9)
C17_11 C 0.2911(3) 0.5049(5) 0.9683(11)
H13_11 H 0.294179 0.478358 0.959625
C20_11 C 0.2815(2) 0.5807(5) 0.9920(10)
H17_11 H 0.214486 0.514493 0.992758
C29_11 C 0.2584(3) 0.6896(4) 0.9212(11)
H23_11 H 0.265299 0.709559 0.885335
C30_11 C 0.2536(2) 0.6549(4) 0.8788(10)
H24_11 H 0.257637 0.650846 0.813461
C12_12 C 0.2769(3) 0.0315(4) 0.7644(10)
H10_12 H 0.288318 0.042216 0.725734
C13_12 C 0.2586(2) 0.0545(4) 0.7915(9)
H11_12 H 0.257457 0.080470 0.770674
C14_12 C 0.2427(2) 0.0388(4) 0.8476(9)
H12_12 H 0.230503 0.053986 0.868598
C15_14 C 0.2441(2) 0.0000(4) 0.8747(8)
H13_12 H 0.205821 0.021642 0.959625
N5_12 N 0.27482(18) 0.9320(3) 0.0046(8)
C18_12 C 0.1941(3) 0.9714(5) 0.0179(12)
H14_12 H 0.180700 0.981794 0.042421
C19_12 C 0.1988(3) 0.9339(5) 0.0312(11)
H15_12 H 0.189020 0.917747 0.066248
H16_12 H 0.221988 0.892916 0.000216
C21_12 C 0.2852(2) 0.9637(4) 0.0338(9)
C22_12 C 0.2956(2) 0.9657(4) 0.1219(9)
H18_12 H 0.302814 0.988667 0.141535
C23_12 C 0.2953(2) 0.9349(4) 0.1794(9)
H19_12 H 0.302305 0.935927 0.240530
C24_12 C 0.2847(2) 0.9008(4) 0.1498(9)
H20_12 H 0.284603 0.878596 0.189429
C25_12 C 0.2743(2) 0.9008(4) 0.0615(9)
C26_12 C 0.2631(2) 0.8676(4) 0.0188(10)
C27_12 C 0.2586(2) 0.8335(4) 0.0654(10)
H21_12 H 0.263402 0.829387 0.129666
C28_12 C 0.2470(3) 0.8050(4) 0.0157(11)
H22_12 H 0.242784 0.781940 0.047566
Co1_12 Co 0.26003(3) 0.92496(5) 0.88276(12)
N1_12 N 0.28655(16) 0.9083(3) 0.8174(7)
N2_12 N 0.24633(17) 0.9184(3) 0.7570(7)
N3_12 N 0.26189(18) 0.9779(3) 0.8469(7)
N4_12 N 0.23237(18) 0.9419(3) 0.9435(7)
N6_12 N 0.25645(18) 0.8734(3) 0.9272(7)
C1_12 C 0.3059(2) 0.8992(4) 0.8557(9)
H1_12 H 0.308026 0.904038 0.922276
C2_12 C 0.3231(2) 0.8833(4) 0.8058(9)
H2_12 H 0.336454 0.875973 0.837299
C3_12 C 0.3205(2) 0.8781(4) 0.7074(10)
H3_12 H 0.332184 0.868048 0.669395
C4_12 C 0.3003(2) 0.8881(4) 0.6659(10)
H4_12 H 0.297933 0.884021 0.599101
C5_12 C 0.2841(2) 0.9034(4) 0.7205(9)
C6_12 C 0.2618(2) 0.9124(4) 0.6862(8)
C7_12 C 0.2560(2) 0.9149(4) 0.5896(8)
H5_12 H 0.266592 0.910185 0.540600
C8_12 C 0.2346(2) 0.9242(4) 0.5668(9)
H6_12 H 0.230432 0.927354 0.501356
C9_12 C 0.2191(2) 0.9290(4) 0.6380(9)
H7_12 H 0.204101 0.934191 0.621634
C10_12 C 0.2253(2) 0.9262(4) 0.7334(9)
H8_12 H 0.214502 0.929912 0.782490
C11_12 C 0.2782(2) 0.9940(4) 0.7934(9)
H9_12 H 0.290753 0.979082 0.775810
C15_15 C 0.2441(2) 1.0000(4) 0.8747(8)
C16_12 C 0.2278(2) 0.9795(4) 0.9328(9)
C17_12 C 0.2089(3) 0.9951(5) 0.9683(11)
C20_12 C 0.2185(2) 0.9193(5) 0.9920(10)
H17_12 H 0.285514 0.985507 0.992758
C29_12 C 0.2416(3) 0.8104(4) 0.9212(11)
H23_12 H 0.234701 0.790441 0.885335
C30_12 C 0.2464(2) 0.8451(4) 0.8788(10)
H24_12 H 0.242363 0.849154 0.813461
Co1_13 Co 0.01003(3) 0.82504(5) 0.13276(12)
N1_13 N 0.03655(16) 0.8417(3) 0.0674(7)
N3_13 N 0.01189(18) 0.7721(3) 0.0969(7)
N5_13 N 0.02482(18) 0.8180(3) 0.2546(8)
N6_13 N 0.00645(18) 0.8766(3) 0.1772(7)
C1_13 C 0.0559(2) 0.8508(4) 0.1057(9)
H1_13 H 0.058026 0.845962 0.172276
C2_13 C 0.0731(2) 0.8667(4) 0.0558(9)
H2_13 H 0.086454 0.874027 0.087299
C11_13 C 0.0282(2) 0.7560(4) 0.0434(9)
H9_13 H 0.040753 0.770918 0.025810
C12_13 C 0.0269(3) 0.7185(4) 0.0144(10)
C13_13 C 0.0086(2) 0.6955(4) 0.0415(9)
H11_13 H 0.007457 0.669530 0.020674
C21_13 C 0.0352(2) 0.7863(4) 0.2838(9)
H17_13 H 0.035514 0.764493 0.242758
C22_13 C 0.0456(2) 0.7843(4) 0.3719(9)
H18_13 H 0.052814 0.761333 0.391535
C23_13 C 0.0453(2) 0.8151(4) 0.4294(9)
H19_13 H 0.052305 0.814073 0.490530
C24_13 C 0.0347(2) 0.8492(4) 0.3998(9)
H20_13 H 0.034603 0.871404 0.439429
C25_13 C 0.0243(2) 0.8492(4) 0.3115(9)
C26_13 C 0.0131(2) 0.8824(4) 0.2688(10)
C27_13 C 0.0086(2) 0.9165(4) 0.3154(10)
H21_13 H 0.013402 0.920613 0.379666
C3_13 C 0.0705(2) 0.8719(4) 0.9574(10)
H3_13 H 0.082184 0.881952 0.919395
C4_13 C 0.0503(2) 0.8619(4) 0.9159(10)
H4_13 H 0.047933 0.865979 0.849101
C5_13 C 0.0341(2) 0.8466(4) 0.9705(9)
C6_13 C 0.0118(2) 0.8376(4) 0.9362(8)
C7_13 C 0.0060(2) 0.8351(4) 0.8396(8)
H5_13 H 0.016592 0.839815 0.790600
H10_13 H 0.038318 0.707784 0.975734
N2_13 N 0.99633(17) 0.8316(3) 0.0070(7)
N4_13 N 0.98237(18) 0.8081(3) 0.1935(7)
H8_13 H 0.964502 0.820088 0.032490
C14_13 C 0.9927(2) 0.7112(4) 0.0976(9)
H12_13 H 0.980503 0.696014 0.118598
C15_16 C 0.9941(2) 0.7500(4) 0.1247(8)
C16_13 C 0.9778(2) 0.7705(4) 0.1828(9)
C17_13 C 0.9589(3) 0.7549(5) 0.2183(11)
H13_13 H 0.955821 0.728358 0.209625
C18_13 C 0.9441(3) 0.7786(5) 0.2679(12)
H14_13 H 0.930700 0.768206 0.292421
C19_13 C 0.9488(3) 0.8161(5) 0.2812(11)
H15_13 H 0.939020 0.832253 0.316248
C20_13 C 0.9685(2) 0.8307(5) 0.2420(10)
H16_13 H 0.971988 0.857084 0.250216
C28_13 C 0.9970(3) 0.9450(4) 0.2657(11)
H22_13 H 0.992784 0.968060 0.297566
C29_13 C 0.9916(3) 0.9396(4) 0.1712(11)
H23_13 H 0.984701 0.959559 0.135335
C30_13 C 0.9964(2) 0.9049(4) 0.1288(10)
H24_13 H 0.992363 0.900846 0.063461
C8_13 C 0.9846(2) 0.8258(4) 0.8168(9)
H6_13 H 0.980432 0.822646 0.751356
C9_13 C 0.9691(2) 0.8210(4) 0.8880(9)
H7_13 H 0.954101 0.815809 0.871634
C10_13 C 0.9753(2) 0.8238(4) 0.9834(9)
N2_14 N 0.00367(17) 0.1684(3) 0.0070(7)
N4_14 N 0.01763(18) 0.1919(3) 0.1935(7)
H8_14 H 0.035498 0.179912 0.032490
C14_14 C 0.0073(2) 0.2888(4) 0.0976(9)
H12_14 H 0.019497 0.303986 0.118598
C15_17 C 0.0059(2) 0.2500(4) 0.1247(8)
C16_14 C 0.0222(2) 0.2295(4) 0.1828(9)
C17_14 C 0.0411(3) 0.2451(5) 0.2183(11)
H13_14 H 0.044179 0.271642 0.209625
C18_14 C 0.0559(3) 0.2214(5) 0.2679(12)
H14_14 H 0.069300 0.231794 0.292421
C19_14 C 0.0512(3) 0.1839(5) 0.2812(11)
H15_14 H 0.060980 0.167747 0.316248
C20_14 C 0.0315(2) 0.1693(5) 0.2420(10)
H16_14 H 0.028012 0.142916 0.250216
C28_14 C 0.0030(3) 0.0550(4) 0.2657(11)
H22_14 H 0.007216 0.031940 0.297566
C29_14 C 0.0084(3) 0.0604(4) 0.1712(11)
H23_14 H 0.015299 0.040441 0.135335
C30_14 C 0.0036(2) 0.0951(4) 0.1288(10)
H24_14 H 0.007637 0.099154 0.063461
C8_14 C 0.0154(2) 0.1742(4) 0.8168(9)
H6_14 H 0.019568 0.177354 0.751356
C9_14 C 0.0309(2) 0.1790(4) 0.8880(9)
H7_14 H 0.045899 0.184191 0.871634
C10_14 C 0.0247(2) 0.1762(4) 0.9834(9)
Co1_14 Co 0.98997(3) 0.17496(5) 0.13276(12)
N1_14 N 0.96345(16) 0.1583(3) 0.0674(7)
N3_14 N 0.98811(18) 0.2279(3) 0.0969(7)
N5_14 N 0.97518(18) 0.1820(3) 0.2546(8)
N6_14 N 0.99355(18) 0.1234(3) 0.1772(7)
C1_14 C 0.9441(2) 0.1492(4) 0.1057(9)
H1_14 H 0.941974 0.154038 0.172276
C2_14 C 0.9269(2) 0.1333(4) 0.0558(9)
H2_14 H 0.913546 0.125973 0.087299
C11_14 C 0.9718(2) 0.2440(4) 0.0434(9)
H9_14 H 0.959247 0.229082 0.025810
C12_14 C 0.9731(3) 0.2815(4) 0.0144(10)
C13_14 C 0.9914(2) 0.3045(4) 0.0415(9)
H11_14 H 0.992543 0.330470 0.020674
C21_14 C 0.9648(2) 0.2137(4) 0.2838(9)
H17_14 H 0.964486 0.235507 0.242758
C22_14 C 0.9544(2) 0.2157(4) 0.3719(9)
H18_14 H 0.947186 0.238667 0.391535
C23_14 C 0.9547(2) 0.1849(4) 0.4294(9)
H19_14 H 0.947695 0.185927 0.490530
C24_14 C 0.9653(2) 0.1508(4) 0.3998(9)
H20_14 H 0.965397 0.128596 0.439429
C25_14 C 0.9757(2) 0.1508(4) 0.3115(9)
C26_14 C 0.9869(2) 0.1176(4) 0.2688(10)
C27_14 C 0.9914(2) 0.0835(4) 0.3154(10)
H21_14 H 0.986598 0.079387 0.379666
C3_14 C 0.9295(2) 0.1281(4) 0.9574(10)
H3_14 H 0.917816 0.118048 0.919395
C4_14 C 0.9497(2) 0.1381(4) 0.9159(10)
H4_14 H 0.952067 0.134021 0.849101
C5_14 C 0.9659(2) 0.1534(4) 0.9705(9)
C6_14 C 0.9882(2) 0.1624(4) 0.9362(8)
C7_14 C 0.9940(2) 0.1649(4) 0.8396(8)
H5_14 H 0.983408 0.160185 0.790600
H10_14 H 0.961682 0.292216 0.975734
Co1_15 Co 0.23997(3) 0.07504(5) 0.38276(12)
N1_15 N 0.21345(16) 0.0917(3) 0.3174(7)
N2_15 N 0.25367(17) 0.0816(3) 0.2570(7)
N3_15 N 0.23811(18) 0.0221(3) 0.3469(7)
N4_15 N 0.26763(18) 0.0581(3) 0.4435(7)
N5_15 N 0.22518(18) 0.0680(3) 0.5046(8)
N6_15 N 0.24355(18) 0.1266(3) 0.4272(7)
C1_15 C 0.1941(2) 0.1008(4) 0.3557(9)
H1_15 H 0.191974 0.095962 0.422276
C2_15 C 0.1769(2) 0.1167(4) 0.3058(9)
H2_15 H 0.163546 0.124027 0.337299
C3_15 C 0.1795(2) 0.1219(4) 0.2074(10)
H3_15 H 0.167816 0.131952 0.169395
C4_15 C 0.1997(2) 0.1119(4) 0.1659(10)
H4_15 H 0.202067 0.115979 0.099101
C5_15 C 0.2159(2) 0.0966(4) 0.2205(9)
C6_15 C 0.2382(2) 0.0876(4) 0.1862(8)
C7_15 C 0.2440(2) 0.0851(4) 0.0896(8)
H5_15 H 0.233408 0.089815 0.040600
C8_15 C 0.2654(2) 0.0758(4) 0.0668(9)
H6_15 H 0.269568 0.072646 0.001356
C9_15 C 0.2809(2) 0.0710(4) 0.1380(9)
H7_15 H 0.295899 0.065809 0.121634
C10_15 C 0.2747(2) 0.0738(4) 0.2334(9)
H8_15 H 0.285498 0.070088 0.282490
C11_15 C 0.2218(2) 0.0060(4) 0.2934(9)
H9_15 H 0.209247 0.020918 0.275810
C15_18 C 0.2559(2) 0.0000(4) 0.3747(8)
C16_15 C 0.2722(2) 0.0205(4) 0.4328(9)
C17_15 C 0.2911(3) 0.0049(5) 0.4683(11)
C18_15 C 0.3059(3) 0.0286(5) 0.5179(12)
H14_15 H 0.319300 0.018206 0.542421
C19_15 C 0.3012(3) 0.0661(5) 0.5312(11)
H15_15 H 0.310980 0.082253 0.566248
C20_15 C 0.2815(2) 0.0807(5) 0.4920(10)
H16_15 H 0.278012 0.107084 0.500216
C21_15 C 0.2148(2) 0.0363(4) 0.5338(9)
H17_15 H 0.214486 0.014493 0.492758
C22_15 C 0.2044(2) 0.0343(4) 0.6219(9)
H18_15 H 0.197186 0.011333 0.641535
C23_15 C 0.2047(2) 0.0651(4) 0.6794(9)
H19_15 H 0.197695 0.064073 0.740530
C24_15 C 0.2153(2) 0.0992(4) 0.6498(9)
H20_15 H 0.215397 0.121404 0.689429
C25_15 C 0.2257(2) 0.0992(4) 0.5615(9)
C26_15 C 0.2369(2) 0.1324(4) 0.5188(10)
C27_15 C 0.2414(2) 0.1665(4) 0.5654(10)
H21_15 H 0.236598 0.170613 0.629666
C28_15 C 0.2530(3) 0.1950(4) 0.5157(11)
H22_15 H 0.257216 0.218060 0.547566
C29_15 C 0.2584(3) 0.1896(4) 0.4212(11)
H23_15 H 0.265299 0.209559 0.385335
C30_15 C 0.2536(2) 0.1549(4) 0.3788(10)
H24_15 H 0.257637 0.150846 0.313461
C12_15 C 0.2231(3) 0.9685(4) 0.2644(10)
H10_15 H 0.211682 0.957784 0.225734
C13_15 C 0.2414(2) 0.9455(4) 0.2915(9)
H11_15 H 0.242543 0.919530 0.270674
C14_15 C 0.2573(2) 0.9612(4) 0.3476(9)
H12_15 H 0.269497 0.946014 0.368598
C15_19 C 0.2559(2) 1.0000(4) 0.3747(8)
H13_15 H 0.294179 0.978358 0.459625
Co1_16 Co 0.26003(3) 0.42496(5) 0.38276(12)
N1_16 N 0.28655(16) 0.4083(3) 0.3174(7)
N2_16 N 0.24633(17) 0.4184(3) 0.2570(7)
N3_16 N 0.26189(18) 0.4779(3) 0.3469(7)
N4_16 N 0.23237(18) 0.4419(3) 0.4435(7)
N5_16 N 0.27482(18) 0.4320(3) 0.5046(8)
N6_16 N 0.25645(18) 0.3734(3) 0.4272(7)
C1_16 C 0.3059(2) 0.3992(4) 0.3557(9)
H1_16 H 0.308026 0.404038 0.422276
C2_16 C 0.3231(2) 0.3833(4) 0.3058(9)
H2_16 H 0.336454 0.375973 0.337299
C3_16 C 0.3205(2) 0.3781(4) 0.2074(10)
H3_16 H 0.332184 0.368048 0.169395
C4_16 C 0.3003(2) 0.3881(4) 0.1659(10)
H4_16 H 0.297933 0.384021 0.099101
C5_16 C 0.2841(2) 0.4034(4) 0.2205(9)
C6_16 C 0.2618(2) 0.4124(4) 0.1862(8)
C7_16 C 0.2560(2) 0.4149(4) 0.0896(8)
H5_16 H 0.266592 0.410185 0.040600
C8_16 C 0.2346(2) 0.4242(4) 0.0668(9)
H6_16 H 0.230432 0.427354 0.001356
C9_16 C 0.2191(2) 0.4290(4) 0.1380(9)
H7_16 H 0.204101 0.434191 0.121634
C10_16 C 0.2253(2) 0.4262(4) 0.2334(9)
H8_16 H 0.214502 0.429912 0.282490
C11_16 C 0.2782(2) 0.4940(4) 0.2934(9)
H9_16 H 0.290753 0.479082 0.275810
C12_16 C 0.2769(3) 0.5315(4) 0.2644(10)
H10_16 H 0.288318 0.542216 0.225734
C13_16 C 0.2586(2) 0.5545(4) 0.2915(9)
H11_16 H 0.257457 0.580470 0.270674
C14_16 C 0.2427(2) 0.5388(4) 0.3476(9)
H12_16 H 0.230503 0.553986 0.368598
C15_20 C 0.2441(2) 0.5000(4) 0.3747(8)
C16_16 C 0.2278(2) 0.4795(4) 0.4328(9)
C17_16 C 0.2089(3) 0.4951(5) 0.4683(11)
H13_16 H 0.205821 0.521642 0.459625
C18_16 C 0.1941(3) 0.4714(5) 0.5179(12)
H14_16 H 0.180700 0.481794 0.542421
C19_16 C 0.1988(3) 0.4339(5) 0.5312(11)
H15_16 H 0.189020 0.417747 0.566248
C20_16 C 0.2185(2) 0.4193(5) 0.4920(10)
H16_16 H 0.221988 0.392916 0.500216
C21_16 C 0.2852(2) 0.4637(4) 0.5338(9)
H17_16 H 0.285514 0.485507 0.492758
C22_16 C 0.2956(2) 0.4657(4) 0.6219(9)
H18_16 H 0.302814 0.488667 0.641535
C23_16 C 0.2953(2) 0.4349(4) 0.6794(9)
H19_16 H 0.302305 0.435927 0.740530
C24_16 C 0.2847(2) 0.4008(4) 0.6498(9)
H20_16 H 0.284603 0.378596 0.689429
C25_16 C 0.2743(2) 0.4008(4) 0.5615(9)
C26_16 C 0.2631(2) 0.3676(4) 0.5188(10)
C27_16 C 0.2586(2) 0.3335(4) 0.5654(10)
H21_16 H 0.263402 0.329387 0.629666
C28_16 C 0.2470(3) 0.3050(4) 0.5157(11)
H22_16 H 0.242784 0.281940 0.547566
C29_16 C 0.2416(3) 0.3104(4) 0.4212(11)
H23_16 H 0.234701 0.290441 0.385335
C30_16 C 0.2464(2) 0.3451(4) 0.3788(10)
H24_16 H 0.242363 0.349154 0.313461
Mo1 Mo 0.64716(2) 0.41374(4) 0.61144(8)
Mo2 Mo 0.59911(2) 0.37303(4) 0.54953(8)
Mo3 Mo 0.58874(2) 0.39409(4) 0.31855(9)
Mo4 Mo 0.64045(2) 0.43171(6) 0.22227(9)
Mo5 Mo 0.67064(2) 0.45570(6) 0.41695(9)
Mo6 Mo 0.50795(2) 0.44932(4) 0.87716(8)
Mo7 Mo 0.50510(2) 0.42139(3) 0.64769(8)
Mo8 Mo 0.500000 0.500000 0.50866(11)
Ca1 Ca 0.58209(5) 0.52490(12) 0.5735(3)
P1 P 0.64327(6) 0.36519(14) 0.3955(3)
P2 P 0.61504(6) 0.46070(12) 0.4457(3)
P3 P 0.53146(6) 0.50784(10) 0.7151(3)
O1 O 0.57907(15) 0.3889(3) 0.4496(7)
O2 O 0.5552(2) 0.5552(4) 0.4770(9)
H25 H 0.560371 0.560012 0.418632
H26 H 0.540451 0.545882 0.493652
O3 O 0.58685(16) 0.3469(3) 0.2813(7)
O4 O 0.6490(2) 0.4125(5) 0.1182(9)
O5 O 0.56374(16) 0.4657(3) 0.5348(8)
H27 H 0.561456 0.463410 0.471499
H28 H 0.550497 0.464359 0.563371
O6 O 0.63681(16) 0.4376(3) 0.7088(6)
O7 O 0.5962(3) 0.5725(6) 0.4239(13)
H29 H 0.600853 0.558641 0.367764
H30 H 0.608665 0.588210 0.441054
O8 O 0.62850(15) 0.3697(3) 0.6092(7)
O9 O 0.59982(19) 0.4899(3) 0.7007(10)
H31 H 0.610955 0.476266 0.678595
H32 H 0.590406 0.474123 0.727915
O10 O 0.67027(14) 0.3923(3) 0.6561(7)
O11 O 0.65673(15) 0.3928(3) 0.4619(7)
O12 O 0.65919(15) 0.4580(3) 0.5472(6)
O13 O 0.58480(15) 0.3909(3) 0.6443(7)
O14 O 0.59360(18) 0.3251(3) 0.5533(8)
O15 O 0.61822(15) 0.3716(3) 0.4140(7)
O16 O 0.59484(14) 0.4512(3) 0.3821(6)
O17 O 0.56540(15) 0.4128(3) 0.2696(7)
O18 O 0.61089(16) 0.4138(3) 0.2334(7)
O19 O 0.64774(19) 0.3790(4) 0.2904(8)
O20 O 0.61650(14) 0.4307(3) 0.5295(6)
O21 O 0.6343(2) 0.4776(4) 0.1865(8)
O22 O 0.66832(17) 0.4437(4) 0.2833(7)
O23 O 0.63553(15) 0.4566(3) 0.3812(7)
O24 O 0.69584(18) 0.4367(4) 0.4363(7)
O25 O 0.67574(19) 0.5037(4) 0.4099(8)
O26 O 0.65009(18) 0.3244(4) 0.4057(9)
O27 O 0.61290(17) 0.5011(3) 0.4859(7)
O28 O 0.500000 0.500000 0.9159(9)
O29 O 0.48509(16) 0.4238(3) 0.9139(6)
O30 O 0.52631(16) 0.4373(3) 0.9644(7)
O31 O 0.53482(14) 0.4835(3) 0.8061(6)
O32 O 0.51741(14) 0.4168(3) 0.7728(6)
O33 O 0.51341(14) 0.5383(2) 0.7400(6)
O34 O 0.48592(15) 0.3855(2) 0.6491(6)
O35 O 0.52666(15) 0.4036(3) 0.5822(6)
O36 O 0.52286(14) 0.4815(2) 0.6333(6)
O37 O 0.49034(15) 0.4507(3) 0.5461(6)
O38 O 0.55285(15) 0.5269(3) 0.6865(7)
O39 O 0.47890(15) 0.5103(3) 0.4314(6)
Mo9 Mo 0.35284(2) 0.58626(4) 0.61144(8)
Mo10 Mo 0.40089(2) 0.62697(4) 0.54953(8)
Mo11 Mo 0.41126(2) 0.60591(4) 0.31855(9)
Mo12 Mo 0.35955(2) 0.56829(6) 0.22227(9)
Mo13 Mo 0.32936(2) 0.54430(6) 0.41695(9)
Mo14 Mo 0.49205(2) 0.55068(4) 0.87716(8)
Mo15 Mo 0.49490(2) 0.57861(3) 0.64769(8)
Ca2 Ca 0.41791(5) 0.47510(12) 0.5735(3)
P4 P 0.35673(6) 0.63481(14) 0.3955(3)
P5 P 0.38496(6) 0.53930(12) 0.4457(3)
P6 P 0.46854(6) 0.49216(10) 0.7151(3)
O40 O 0.42093(15) 0.6111(3) 0.4496(7)
O41 O 0.4448(2) 0.4448(4) 0.4770(9)
H33 H 0.439629 0.439988 0.418632
H34 H 0.459549 0.454118 0.493652
O42 O 0.41315(16) 0.6531(3) 0.2813(7)
O43 O 0.3510(2) 0.5875(5) 0.1182(9)
O44 O 0.43626(16) 0.5343(3) 0.5348(8)
H35 H 0.438544 0.536590 0.471499
H36 H 0.449503 0.535641 0.563371
O45 O 0.36319(16) 0.5624(3) 0.7088(6)
O46 O 0.4038(3) 0.4275(6) 0.4239(13)
H37 H 0.399147 0.441359 0.367764
H38 H 0.391335 0.411790 0.441054
O47 O 0.37150(15) 0.6303(3) 0.6092(7)
O48 O 0.40018(19) 0.5101(3) 0.7007(10)
H39 H 0.389045 0.523734 0.678595
H40 H 0.409594 0.525877 0.727915
O49 O 0.32973(14) 0.6077(3) 0.6561(7)
O50 O 0.34327(15) 0.6072(3) 0.4619(7)
O51 O 0.34081(15) 0.5420(3) 0.5472(6)
O52 O 0.41520(15) 0.6091(3) 0.6443(7)
O53 O 0.40640(18) 0.6749(3) 0.5533(8)
O54 O 0.38178(15) 0.6284(3) 0.4140(7)
O55 O 0.40516(14) 0.5488(3) 0.3821(6)
O56 O 0.43460(15) 0.5872(3) 0.2696(7)
O57 O 0.38911(16) 0.5862(3) 0.2334(7)
O58 O 0.35226(19) 0.6210(4) 0.2904(8)
O59 O 0.38350(14) 0.5693(3) 0.5295(6)
O60 O 0.3657(2) 0.5224(4) 0.1865(8)
O61 O 0.33168(17) 0.5563(4) 0.2833(7)
O62 O 0.36447(15) 0.5434(3) 0.3812(7)
O63 O 0.30416(18) 0.5633(4) 0.4363(7)
O64 O 0.32426(19) 0.4963(4) 0.4099(8)
O65 O 0.34991(18) 0.6756(4) 0.4057(9)
O66 O 0.38710(17) 0.4989(3) 0.4859(7)
O67 O 0.51491(16) 0.5762(3) 0.9139(6)
O68 O 0.47369(16) 0.5627(3) 0.9644(7)
O69 O 0.46518(14) 0.5165(3) 0.8061(6)
O70 O 0.48259(14) 0.5832(3) 0.7728(6)
O71 O 0.48659(14) 0.4617(2) 0.7400(6)
O72 O 0.51408(15) 0.6145(2) 0.6491(6)
O73 O 0.47334(15) 0.5964(3) 0.5822(6)
O74 O 0.47714(14) 0.5185(2) 0.6333(6)
O75 O 0.50966(15) 0.5493(3) 0.5461(6)
O76 O 0.44715(15) 0.4731(3) 0.6865(7)
O77 O 0.52110(15) 0.4897(3) 0.4314(6)
Ca3 Ca 0.66791(5) 0.27490(12) 0.3235(3)
Ca4 Ca 0.33209(5) 0.72510(12) 0.3235(3)
O78 O 0.59991(18) 0.5744(4) 0.6557(9)
O79 O 0.40009(18) 0.4256(4) 0.6557(9)
Mo1_2 Mo 0.60284(2) 0.66374(4) 0.86144(8)
Mo2_2 Mo 0.65089(2) 0.62303(4) 0.79953(8)
Mo3_2 Mo 0.66126(2) 0.64409(4) 0.56855(9)
Mo4_2 Mo 0.60955(2) 0.68171(6) 0.47227(9)
Mo5_2 Mo 0.57936(2) 0.70570(6) 0.66695(9)
Mo7_2 Mo 0.74490(2) 0.67139(3) 0.89769(8)
Mo8_2 Mo 0.750000 0.750000 0.75866(11)
Ca1_2 Ca 0.66791(5) 0.77490(12) 0.8235(3)
P1_2 P 0.60673(6) 0.61519(14) 0.6455(3)
P2_2 P 0.63496(6) 0.71070(12) 0.6957(3)
P3_2 P 0.71854(6) 0.75784(10) 0.9651(3)
O1_2 O 0.67093(15) 0.6389(3) 0.6996(7)
O2_2 O 0.6948(2) 0.8052(4) 0.7270(9)
H25_2 H 0.689629 0.810012 0.668632
H26_2 H 0.709549 0.795882 0.743652
O3_2 O 0.66315(16) 0.5969(3) 0.5313(7)
O4_2 O 0.6010(2) 0.6625(5) 0.3682(9)
O5_2 O 0.68626(16) 0.7157(3) 0.7848(8)
H27_2 H 0.688544 0.713410 0.721499
H28_2 H 0.699503 0.714359 0.813371
O6_2 O 0.61319(16) 0.6876(3) 0.9588(6)
O7_2 O 0.6538(3) 0.8225(6) 0.6739(13)
H29_2 H 0.649147 0.808641 0.617764
H30_2 H 0.641335 0.838210 0.691054
O8_2 O 0.62150(15) 0.6197(3) 0.8592(7)
O9_2 O 0.65018(19) 0.7399(3) 0.9507(10)
H31_2 H 0.639045 0.726266 0.928595
H32_2 H 0.659594 0.724123 0.977915
O10_2 O 0.57973(14) 0.6423(3) 0.9061(7)
O11_2 O 0.59327(15) 0.6428(3) 0.7119(7)
O12_2 O 0.59081(15) 0.7080(3) 0.7972(6)
O13_2 O 0.66520(15) 0.6409(3) 0.8943(7)
O14_2 O 0.65640(18) 0.5751(3) 0.8033(8)
O15_2 O 0.63178(15) 0.6216(3) 0.6640(7)
O16_2 O 0.65516(14) 0.7012(3) 0.6321(6)
O17_2 O 0.68460(15) 0.6628(3) 0.5196(7)
O18_2 O 0.63911(16) 0.6638(3) 0.4834(7)
O19_2 O 0.60226(19) 0.6290(4) 0.5404(8)
O20_2 O 0.63350(14) 0.6807(3) 0.7795(6)
O21_2 O 0.6157(2) 0.7276(4) 0.4365(8)
O22_2 O 0.58168(17) 0.6937(4) 0.5333(7)
O23_2 O 0.61447(15) 0.7066(3) 0.6312(7)
O24_2 O 0.55416(18) 0.6867(4) 0.6863(7)
O25_2 O 0.57426(19) 0.7537(4) 0.6599(8)
O27_2 O 0.63710(17) 0.7511(3) 0.7359(7)
O33_2 O 0.73659(14) 0.7883(2) 0.9900(6)
O34_2 O 0.76408(15) 0.6355(2) 0.8991(6)
O35_2 O 0.72334(15) 0.6536(3) 0.8322(6)
O36_2 O 0.72714(14) 0.7315(2) 0.8833(6)
O37_2 O 0.75966(15) 0.7007(3) 0.7961(6)
O38_2 O 0.69715(15) 0.7769(3) 0.9365(7)
O39_2 O 0.77110(15) 0.7603(3) 0.6814(6)
Mo9_2 Mo 0.89716(2) 0.83626(4) 0.86144(8)
Mo10_2 Mo 0.84911(2) 0.87697(4) 0.79953(8)
Mo11_2 Mo 0.83874(2) 0.85591(4) 0.56855(9)
Mo12_2 Mo 0.89045(2) 0.81829(6) 0.47227(9)
Mo13_2 Mo 0.92064(2) 0.79430(6) 0.66695(9)
Mo15_2 Mo 0.75510(2) 0.82861(3) 0.89769(8)
Ca2_2 Ca 0.83209(5) 0.72510(12) 0.8235(3)
P4_2 P 0.89327(6) 0.88481(14) 0.6455(3)
P5_2 P 0.86504(6) 0.78930(12) 0.6957(3)
P6_2 P 0.78146(6) 0.74216(10) 0.9651(3)
O40_2 O 0.82907(15) 0.8611(3) 0.6996(7)
O41_2 O 0.8052(2) 0.6948(4) 0.7270(9)
H33_2 H 0.810371 0.689988 0.668632
H34_2 H 0.790451 0.704118 0.743652
O42_2 O 0.83685(16) 0.9031(3) 0.5313(7)
O43_2 O 0.8990(2) 0.8375(5) 0.3682(9)
O44_2 O 0.81374(16) 0.7843(3) 0.7848(8)
H35_2 H 0.811456 0.786590 0.721499
H36_2 H 0.800497 0.785641 0.813371
O45_2 O 0.88681(16) 0.8124(3) 0.9588(6)
O46_2 O 0.8462(3) 0.6775(6) 0.6739(13)
H37_2 H 0.850853 0.691359 0.617764
H38_2 H 0.858665 0.661790 0.691054
O47_2 O 0.87850(15) 0.8803(3) 0.8592(7)
O48_2 O 0.84982(19) 0.7601(3) 0.9507(10)
H39_2 H 0.860955 0.773734 0.928595
H40_2 H 0.840406 0.775877 0.977915
O49_2 O 0.92027(14) 0.8577(3) 0.9061(7)
O50_2 O 0.90673(15) 0.8572(3) 0.7119(7)
O51_2 O 0.90919(15) 0.7920(3) 0.7972(6)
O52_2 O 0.83480(15) 0.8591(3) 0.8943(7)
O53_2 O 0.84360(18) 0.9249(3) 0.8033(8)
O54_2 O 0.86822(15) 0.8784(3) 0.6640(7)
O55_2 O 0.84484(14) 0.7988(3) 0.6321(6)
O56_2 O 0.81540(15) 0.8372(3) 0.5196(7)
O57_2 O 0.86089(16) 0.8362(3) 0.4834(7)
O58_2 O 0.89774(19) 0.8710(4) 0.5404(8)
O59_2 O 0.86650(14) 0.8193(3) 0.7795(6)
O60_2 O 0.8843(2) 0.7724(4) 0.4365(8)
O61_2 O 0.91832(17) 0.8063(4) 0.5333(7)
O62_2 O 0.88553(15) 0.7934(3) 0.6312(7)
O63_2 O 0.94584(18) 0.8133(4) 0.6863(7)
O64_2 O 0.92574(19) 0.7463(4) 0.6599(8)
O65_2 O 0.90009(18) 0.9256(4) 0.6557(9)
O66_2 O 0.86290(17) 0.7489(3) 0.7359(7)
O71_2 O 0.76341(14) 0.7117(2) 0.9900(6)
O72_2 O 0.73592(15) 0.8645(2) 0.8991(6)
O73_2 O 0.77666(15) 0.8464(3) 0.8322(6)
O74_2 O 0.77286(14) 0.7685(2) 0.8833(6)
O75_2 O 0.74034(15) 0.7993(3) 0.7961(6)
O76_2 O 0.80285(15) 0.7231(3) 0.9365(7)
O77_2 O 0.72890(15) 0.7397(3) 0.6814(6)
Ca4_2 Ca 0.91791(5) 0.97510(12) 0.5735(3)
O78_2 O 0.65009(18) 0.8244(4) 0.9057(9)
O79_2 O 0.84991(18) 0.6756(4) 0.9057(9)
Mo8_3 Mo 0.500000 0.000000 0.00866(11)
Ca1_3 Ca 0.58209(5) 0.02490(12) 0.0735(3)
P3_3 P 0.53146(6) 0.00784(10) 0.2151(3)
O28_2 O 0.500000 0.000000 0.4159(9)
O33_3 O 0.51341(14) 0.0383(2) 0.2400(6)
O38_3 O 0.55285(15) 0.0269(3) 0.1865(7)
Mo9_3 Mo 0.35284(2) 0.08626(4) 0.11144(8)
Mo10_3 Mo 0.40089(2) 0.12697(4) 0.04953(8)
Mo14_2 Mo 0.49205(2) 0.05068(4) 0.37716(8)
Mo15_3 Mo 0.49490(2) 0.07861(3) 0.14769(8)
O44_3 O 0.43626(16) 0.0343(3) 0.0348(8)
H36_3 H 0.449503 0.035641 0.063371
O45_3 O 0.36319(16) 0.0624(3) 0.2088(6)
O47_3 O 0.37150(15) 0.1303(3) 0.1092(7)
O48_3 O 0.40018(19) 0.0101(3) 0.2007(10)
H39_3 H 0.389045 0.023734 0.178595
H40_3 H 0.409594 0.025877 0.227915
O49_3 O 0.32973(14) 0.1077(3) 0.1561(7)
O51_3 O 0.34081(15) 0.0420(3) 0.0472(6)
O52_3 O 0.41520(15) 0.1091(3) 0.1443(7)
O53_3 O 0.40640(18) 0.1749(3) 0.0533(8)
O59_3 O 0.38350(14) 0.0693(3) 0.0295(6)
O67_2 O 0.51491(16) 0.0762(3) 0.4139(6)
O68_2 O 0.47369(16) 0.0627(3) 0.4644(7)
O69_2 O 0.46518(14) 0.0165(3) 0.3061(6)
O70_2 O 0.48259(14) 0.0832(3) 0.2728(6)
O72_3 O 0.51408(15) 0.1145(2) 0.1491(6)
O73_3 O 0.47334(15) 0.0964(3) 0.0822(6)
O74_3 O 0.47714(14) 0.0185(2) 0.1333(6)
O75_3 O 0.50966(15) 0.0493(3) 0.0461(6)
O78_3 O 0.59991(18) 0.0744(4) 0.1557(9)
O2_3 O 0.5552(2) 0.0552(4) 0.9770(9)
H25_3 H 0.560371 0.060012 0.918632
H26_3 H 0.540451 0.045882 0.993652
O7_3 O 0.5962(3) 0.0725(6) 0.9239(13)
H29_3 H 0.600853 0.058641 0.867764
H30_3 H 0.608665 0.088210 0.941054
O25_3 O 0.67574(19) 0.0037(4) 0.9099(8)
O27_3 O 0.61290(17) 0.0011(3) 0.9859(7)
O39_3 O 0.47890(15) 0.0103(3) 0.9314(6)
Mo11_3 Mo 0.41126(2) 0.10591(4) 0.81855(9)
Mo12_3 Mo 0.35955(2) 0.06829(6) 0.72227(9)
Mo13_3 Mo 0.32936(2) 0.04430(6) 0.91695(9)
P4_3 P 0.35673(6) 0.13481(14) 0.8955(3)
P5_3 P 0.38496(6) 0.03930(12) 0.9457(3)
O40_3 O 0.42093(15) 0.1111(3) 0.9496(7)
O42_3 O 0.41315(16) 0.1531(3) 0.7813(7)
O43_3 O 0.3510(2) 0.0875(5) 0.6182(9)
H35_3 H 0.438544 0.036590 0.971499
O50_3 O 0.34327(15) 0.1072(3) 0.9619(7)
O54_3 O 0.38178(15) 0.1284(3) 0.9140(7)
O55_3 O 0.40516(14) 0.0488(3) 0.8821(6)
O56_3 O 0.43460(15) 0.0872(3) 0.7696(7)
O57_3 O 0.38911(16) 0.0862(3) 0.7334(7)
O58_3 O 0.35226(19) 0.1210(4) 0.7904(8)
O60_3 O 0.3657(2) 0.0224(4) 0.6865(8)
O61_3 O 0.33168(17) 0.0563(4) 0.7833(7)
O62_3 O 0.36447(15) 0.0434(3) 0.8812(7)
O63_3 O 0.30416(18) 0.0633(4) 0.9363(7)
O65_3 O 0.34991(18) 0.1756(4) 0.9057(9)
Ca4_3 Ca 0.33209(5) 0.22510(12) 0.8235(3)
Mo1_3 Mo 0.64716(2) 0.91374(4) 0.11144(8)
Mo2_3 Mo 0.59911(2) 0.87303(4) 0.04953(8)
Mo6_2 Mo 0.50795(2) 0.94932(4) 0.37716(8)
Mo7_3 Mo 0.50510(2) 0.92139(3) 0.14769(8)
Mo8_4 Mo 0.500000 1.000000 0.00866(11)
O5_3 O 0.56374(16) 0.9657(3) 0.0348(8)
H28_3 H 0.550497 0.964359 0.063371
O6_3 O 0.63681(16) 0.9376(3) 0.2088(6)
O8_3 O 0.62850(15) 0.8697(3) 0.1092(7)
O9_3 O 0.59982(19) 0.9899(3) 0.2007(10)
H31_3 H 0.610955 0.976266 0.178595
H32_3 H 0.590406 0.974123 0.227915
O10_3 O 0.67027(14) 0.8923(3) 0.1561(7)
O12_3 O 0.65919(15) 0.9580(3) 0.0472(6)
O13_3 O 0.58480(15) 0.8909(3) 0.1443(7)
O14_3 O 0.59360(18) 0.8251(3) 0.0533(8)
O20_3 O 0.61650(14) 0.9307(3) 0.0295(6)
O28_3 O 0.500000 1.000000 0.4159(9)
O29_2 O 0.48509(16) 0.9238(3) 0.4139(6)
O30_2 O 0.52631(16) 0.9373(3) 0.4644(7)
O31_2 O 0.53482(14) 0.9835(3) 0.3061(6)
O32_2 O 0.51741(14) 0.9168(3) 0.2728(6)
O34_3 O 0.48592(15) 0.8855(2) 0.1491(6)
O35_3 O 0.52666(15) 0.9036(3) 0.0822(6)
O36_3 O 0.52286(14) 0.9815(2) 0.1333(6)
O37_3 O 0.49034(15) 0.9507(3) 0.0461(6)
Ca2_3 Ca 0.41791(5) 0.97510(12) 0.0735(3)
P6_3 P 0.46854(6) 0.99216(10) 0.2151(3)
O71_3 O 0.48659(14) 0.9617(2) 0.2400(6)
O76_3 O 0.44715(15) 0.9731(3) 0.1865(7)
O79_3 O 0.40009(18) 0.9256(4) 0.1557(9)
Mo3_3 Mo 0.58874(2) 0.89409(4) 0.81855(9)
Mo4_3 Mo 0.64045(2) 0.93171(6) 0.72227(9)
Mo5_3 Mo 0.67064(2) 0.95570(6) 0.91695(9)
P1_3 P 0.64327(6) 0.86519(14) 0.8955(3)
P2_3 P 0.61504(6) 0.96070(12) 0.9457(3)
O1_3 O 0.57907(15) 0.8889(3) 0.9496(7)
O3_3 O 0.58685(16) 0.8469(3) 0.7813(7)
O4_3 O 0.6490(2) 0.9125(5) 0.6182(9)
H27_3 H 0.561456 0.963410 0.971499
O11_3 O 0.65673(15) 0.8928(3) 0.9619(7)
O15_3 O 0.61822(15) 0.8716(3) 0.9140(7)
O16_3 O 0.59484(14) 0.9512(3) 0.8821(6)
O17_3 O 0.56540(15) 0.9128(3) 0.7696(7)
O18_3 O 0.61089(16) 0.9138(3) 0.7334(7)
O19_3 O 0.64774(19) 0.8790(4) 0.7904(8)
O21_3 O 0.6343(2) 0.9776(4) 0.6865(8)
O22_3 O 0.66832(17) 0.9437(4) 0.7833(7)
O23_3 O 0.63553(15) 0.9566(3) 0.8812(7)
O24_3 O 0.69584(18) 0.9367(4) 0.9363(7)
O41_3 O 0.4448(2) 0.9448(4) 0.9770(9)
H33_3 H 0.439629 0.939988 0.918632
H34_3 H 0.459549 0.954118 0.993652
O46_3 O 0.4038(3) 0.9275(6) 0.9239(13)
H37_3 H 0.399147 0.941359 0.867764
H38_3 H 0.391335 0.911790 0.941054
O64_3 O 0.32426(19) 0.9963(4) 0.9099(8)
O66_3 O 0.38710(17) 0.9989(3) 0.9859(7)
O77_3 O 0.52110(15) 0.9897(3) 0.9314(6)
Mo1_4 Mo 0.60284(2) 0.16374(4) 0.36144(8)
Mo2_4 Mo 0.65089(2) 0.12303(4) 0.29953(8)
Mo3_4 Mo 0.66126(2) 0.14409(4) 0.06855(9)
Mo5_4 Mo 0.57936(2) 0.20570(6) 0.16695(9)
Mo6_3 Mo 0.74205(2) 0.19932(4) 0.62716(8)
Mo7_4 Mo 0.74490(2) 0.17139(3) 0.39769(8)
Mo8_5 Mo 0.750000 0.250000 0.25866(11)
P1_4 P 0.60673(6) 0.11519(14) 0.1455(3)
P2_4 P 0.63496(6) 0.21070(12) 0.1957(3)
P3_4 P 0.71854(6) 0.25784(10) 0.4651(3)
O1_4 O 0.67093(15) 0.1389(3) 0.1996(7)
O2_4 O 0.6948(2) 0.3052(4) 0.2270(9)
H25_4 H 0.689629 0.310012 0.168632
H26_4 H 0.709549 0.295882 0.243652
O3_4 O 0.66315(16) 0.0969(3) 0.0313(7)
O5_4 O 0.68626(16) 0.2157(3) 0.2848(8)
H27_4 H 0.688544 0.213410 0.221499
H28_4 H 0.699503 0.214359 0.313371
O6_4 O 0.61319(16) 0.1876(3) 0.4588(6)
O7_4 O 0.6538(3) 0.3225(6) 0.1739(13)
H29_4 H 0.649147 0.308641 0.117764
H30_4 H 0.641335 0.338210 0.191054
O8_4 O 0.62150(15) 0.1197(3) 0.3592(7)
O9_4 O 0.65018(19) 0.2399(3) 0.4507(10)
H31_4 H 0.639045 0.226266 0.428595
H32_4 H 0.659594 0.224123 0.477915
O10_4 O 0.57973(14) 0.1423(3) 0.4061(7)
O11_4 O 0.59327(15) 0.1428(3) 0.2119(7)
O12_4 O 0.59081(15) 0.2080(3) 0.2972(6)
O13_4 O 0.66520(15) 0.1409(3) 0.3943(7)
O14_4 O 0.65640(18) 0.0751(3) 0.3033(8)
O15_4 O 0.63178(15) 0.1216(3) 0.1640(7)
O16_4 O 0.65516(14) 0.2012(3) 0.1321(6)
O17_4 O 0.68460(15) 0.1628(3) 0.0196(7)
O19_4 O 0.60226(19) 0.1290(4) 0.0404(8)
O20_4 O 0.63350(14) 0.1807(3) 0.2795(6)
O22_4 O 0.58168(17) 0.1937(4) 0.0333(7)
O23_4 O 0.61447(15) 0.2066(3) 0.1312(7)
O24_4 O 0.55416(18) 0.1867(4) 0.1863(7)
O25_4 O 0.57426(19) 0.2537(4) 0.1599(8)
O27_4 O 0.63710(17) 0.2511(3) 0.2359(7)
O28_4 O 0.750000 0.250000 0.6659(9)
O29_3 O 0.76491(16) 0.1738(3) 0.6639(6)
O30_3 O 0.72369(16) 0.1873(3) 0.7144(7)
O31_3 O 0.71518(14) 0.2335(3) 0.5561(6)
O32_3 O 0.73259(14) 0.1668(3) 0.5228(6)
O33_4 O 0.73659(14) 0.2883(2) 0.4900(6)
O34_4 O 0.76408(15) 0.1355(2) 0.3991(6)
O35_4 O 0.72334(15) 0.1536(3) 0.3322(6)
O36_4 O 0.72714(14) 0.2315(2) 0.3833(6)
O37_4 O 0.75966(15) 0.2007(3) 0.2961(6)
O38_4 O 0.69715(15) 0.2769(3) 0.4365(7)
O39_4 O 0.77110(15) 0.2603(3) 0.1814(6)
Mo9_4 Mo 0.89716(2) 0.33626(4) 0.36144(8)
Mo10_4 Mo 0.84911(2) 0.37697(4) 0.29953(8)
Mo11_4 Mo 0.83874(2) 0.35591(4) 0.06855(9)
Mo13_4 Mo 0.92064(2) 0.29430(6) 0.16695(9)
Mo14_3 Mo 0.75795(2) 0.30068(4) 0.62716(8)
Mo15_4 Mo 0.75510(2) 0.32861(3) 0.39769(8)
Ca2_4 Ca 0.83209(5) 0.22510(12) 0.3235(3)
P4_4 P 0.89327(6) 0.38481(14) 0.1455(3)
P5_4 P 0.86504(6) 0.28930(12) 0.1957(3)
P6_4 P 0.78146(6) 0.24216(10) 0.4651(3)
O40_4 O 0.82907(15) 0.3611(3) 0.1996(7)
O41_4 O 0.8052(2) 0.1948(4) 0.2270(9)
H33_4 H 0.810371 0.189988 0.168632
H34_4 H 0.790451 0.204118 0.243652
O42_4 O 0.83685(16) 0.4031(3) 0.0313(7)
O44_4 O 0.81374(16) 0.2843(3) 0.2848(8)
H35_4 H 0.811456 0.286590 0.221499
H36_4 H 0.800497 0.285641 0.313371
O45_4 O 0.88681(16) 0.3124(3) 0.4588(6)
O46_4 O 0.8462(3) 0.1775(6) 0.1739(13)
H37_4 H 0.850853 0.191359 0.117764
H38_4 H 0.858665 0.161790 0.191054
O47_4 O 0.87850(15) 0.3803(3) 0.3592(7)
O48_4 O 0.84982(19) 0.2601(3) 0.4507(10)
H39_4 H 0.860955 0.273734 0.428595
H40_4 H 0.840406 0.275877 0.477915
O49_4 O 0.92027(14) 0.3577(3) 0.4061(7)
O50_4 O 0.90673(15) 0.3572(3) 0.2119(7)
O51_4 O 0.90919(15) 0.2920(3) 0.2972(6)
O52_4 O 0.83480(15) 0.3591(3) 0.3943(7)
O53_4 O 0.84360(18) 0.4249(3) 0.3033(8)
O54_4 O 0.86822(15) 0.3784(3) 0.1640(7)
O55_4 O 0.84484(14) 0.2988(3) 0.1321(6)
O56_4 O 0.81540(15) 0.3372(3) 0.0196(7)
O58_4 O 0.89774(19) 0.3710(4) 0.0404(8)
O59_4 O 0.86650(14) 0.3193(3) 0.2795(6)
O61_4 O 0.91832(17) 0.3063(4) 0.0333(7)
O62_4 O 0.88553(15) 0.2934(3) 0.1312(7)
O63_4 O 0.94584(18) 0.3133(4) 0.1863(7)
O64_4 O 0.92574(19) 0.2463(4) 0.1599(8)
O65_4 O 0.90009(18) 0.4256(4) 0.1557(9)
O66_4 O 0.86290(17) 0.2489(3) 0.2359(7)
O67_3 O 0.73509(16) 0.3262(3) 0.6639(6)
O68_3 O 0.77631(16) 0.3127(3) 0.7144(7)
O69_3 O 0.78482(14) 0.2665(3) 0.5561(6)
O70_3 O 0.76741(14) 0.3332(3) 0.5228(6)
O71_4 O 0.76341(14) 0.2117(2) 0.4900(6)
O72_4 O 0.73592(15) 0.3645(2) 0.3991(6)
O73_4 O 0.77666(15) 0.3464(3) 0.3322(6)
O74_4 O 0.77286(14) 0.2685(2) 0.3833(6)
O75_4 O 0.74034(15) 0.2993(3) 0.2961(6)
O76_4 O 0.80285(15) 0.2231(3) 0.4365(7)
O77_4 O 0.72890(15) 0.2397(3) 0.1814(6)
Ca4_4 Ca 0.91791(5) 0.47510(12) 0.0735(3)
O79_4 O 0.84991(18) 0.1756(4) 0.4057(9)
Mo1_5 Mo 0.14716(2) 0.41374(4) 0.11144(8)
Mo2_5 Mo 0.09911(2) 0.37303(4) 0.04953(8)
Mo6_4 Mo 0.00795(2) 0.44932(4) 0.37716(8)
Mo7_5 Mo 0.00510(2) 0.42139(3) 0.14769(8)
Mo8_6 Mo -0.000000 0.500000 0.00866(11)
Ca1_4 Ca 0.08209(5) 0.52490(12) 0.0735(3)
P3_5 P 0.03146(6) 0.50784(10) 0.2151(3)
O5_5 O 0.06374(16) 0.4657(3) 0.0348(8)
H28_5 H 0.050497 0.464359 0.063371
O6_5 O 0.13681(16) 0.4376(3) 0.2088(6)
O8_5 O 0.12850(15) 0.3697(3) 0.1092(7)
O9_5 O 0.09982(19) 0.4899(3) 0.2007(10)
H31_5 H 0.110955 0.476266 0.178595
H32_5 H 0.090406 0.474123 0.227915
O10_5 O 0.17027(14) 0.3923(3) 0.1561(7)
O12_5 O 0.15919(15) 0.4580(3) 0.0472(6)
O13_5 O 0.08480(15) 0.3909(3) 0.1443(7)
O14_5 O 0.09360(18) 0.3251(3) 0.0533(8)
O20_5 O 0.11650(14) 0.4307(3) 0.0295(6)
O28_5 O 0.000000 0.500000 0.4159(9)
O30_4 O 0.02631(16) 0.4373(3) 0.4644(7)
O31_4 O 0.03482(14) 0.4835(3) 0.3061(6)
O32_4 O 0.01741(14) 0.4168(3) 0.2728(6)
O33_5 O 0.01341(14) 0.5383(2) 0.2400(6)
O35_5 O 0.02666(15) 0.4036(3) 0.0822(6)
O36_5 O 0.02286(14) 0.4815(2) 0.1333(6)
O38_5 O 0.05285(15) 0.5269(3) 0.1865(7)
O67_4 O 0.01491(16) 0.5762(3) 0.4139(6)
O72_5 O 0.01408(15) 0.6145(2) 0.1491(6)
O75_5 O 0.00966(15) 0.5493(3) 0.0461(6)
O78_4 O 0.09991(18) 0.5744(4) 0.1557(9)
Mo3_5 Mo 0.08874(2) 0.39409(4) 0.81855(9)
Mo4_4 Mo 0.14045(2) 0.43171(6) 0.72227(9)
Mo5_5 Mo 0.17064(2) 0.45570(6) 0.91695(9)
P1_5 P 0.14327(6) 0.36519(14) 0.8955(3)
P2_5 P 0.11504(6) 0.46070(12) 0.9457(3)
O1_5 O 0.07907(15) 0.3889(3) 0.9496(7)
O2_5 O 0.0552(2) 0.5552(4) 0.9770(9)
H25_5 H 0.060371 0.560012 0.918632
H26_5 H 0.040451 0.545882 0.993652
O3_5 O 0.08685(16) 0.3469(3) 0.7813(7)
O4_4 O 0.1490(2) 0.4125(5) 0.6182(9)
H27_5 H 0.061456 0.463410 0.971499
O7_5 O 0.0962(3) 0.5725(6) 0.9239(13)
H29_5 H 0.100853 0.558641 0.867764
H30_5 H 0.108665 0.588210 0.941054
O11_5 O 0.15673(15) 0.3928(3) 0.9619(7)
O15_5 O 0.11822(15) 0.3716(3) 0.9140(7)
O16_5 O 0.09484(14) 0.4512(3) 0.8821(6)
O17_5 O 0.06540(15) 0.4128(3) 0.7696(7)
O18_4 O 0.11089(16) 0.4138(3) 0.7334(7)
O19_5 O 0.14774(19) 0.3790(4) 0.7904(8)
O21_4 O 0.1343(2) 0.4776(4) 0.6865(8)
O22_5 O 0.16832(17) 0.4437(4) 0.7833(7)
O23_5 O 0.13553(15) 0.4566(3) 0.8812(7)
O24_5 O 0.19584(18) 0.4367(4) 0.9363(7)
O25_5 O 0.17574(19) 0.5037(4) 0.9099(8)
O26_2 O 0.15009(18) 0.3244(4) 0.9057(9)
O27_5 O 0.11290(17) 0.5011(3) 0.9859(7)
O77_5 O 0.02110(15) 0.4897(3) 0.9314(6)
Ca3_2 Ca 0.16791(5) 0.27490(12) 0.8235(3)
Mo8_7 Mo 1.000000 0.500000 0.00866(11)
O28_6 O 1.000000 0.500000 0.4159(9)
O29_4 O 0.98509(16) 0.4238(3) 0.4139(6)
O34_5 O 0.98592(15) 0.3855(2) 0.1491(6)
O37_5 O 0.99034(15) 0.4507(3) 0.0461(6)
Mo9_5 Mo 0.85284(2) 0.58626(4) 0.11144(8)
Mo10_5 Mo 0.90089(2) 0.62697(4) 0.04953(8)
Mo14_4 Mo 0.99205(2) 0.55068(4) 0.37716(8)
Mo15_5 Mo 0.99490(2) 0.57861(3) 0.14769(8)
P6_5 P 0.96854(6) 0.49216(10) 0.2151(3)
O44_5 O 0.93626(16) 0.5343(3) 0.0348(8)
H36_5 H 0.949503 0.535641 0.063371
O45_5 O 0.86319(16) 0.5624(3) 0.2088(6)
O47_5 O 0.87150(15) 0.6303(3) 0.1092(7)
O48_5 O 0.90018(19) 0.5101(3) 0.2007(10)
H39_5 H 0.889045 0.523734 0.178595
H40_5 H 0.909594 0.525877 0.227915
O49_5 O 0.82973(14) 0.6077(3) 0.1561(7)
O51_5 O 0.84081(15) 0.5420(3) 0.0472(6)
O52_5 O 0.91520(15) 0.6091(3) 0.1443(7)
O53_5 O 0.90640(18) 0.6749(3) 0.0533(8)
O59_5 O 0.88350(14) 0.5693(3) 0.0295(6)
O68_4 O 0.97369(16) 0.5627(3) 0.4644(7)
O69_4 O 0.96518(14) 0.5165(3) 0.3061(6)
O70_4 O 0.98259(14) 0.5832(3) 0.2728(6)
O71_5 O 0.98659(14) 0.4617(2) 0.2400(6)
O73_5 O 0.97334(15) 0.5964(3) 0.0822(6)
O74_5 O 0.97714(14) 0.5185(2) 0.1333(6)
O76_5 O 0.94715(15) 0.4731(3) 0.1865(7)
O39_5 O 0.97890(15) 0.5103(3) 0.9314(6)
Mo11_5 Mo 0.91126(2) 0.60591(4) 0.81855(9)
Mo12_4 Mo 0.85955(2) 0.56829(6) 0.72227(9)
Mo13_5 Mo 0.82936(2) 0.54430(6) 0.91695(9)
P4_5 P 0.85673(6) 0.63481(14) 0.8955(3)
P5_5 P 0.88496(6) 0.53930(12) 0.9457(3)
O40_5 O 0.92093(15) 0.6111(3) 0.9496(7)
O41_5 O 0.9448(2) 0.4448(4) 0.9770(9)
H33_5 H 0.939629 0.439988 0.918632
H34_5 H 0.959549 0.454118 0.993652
O42_5 O 0.91315(16) 0.6531(3) 0.7813(7)
O43_4 O 0.8510(2) 0.5875(5) 0.6182(9)
H35_5 H 0.938544 0.536590 0.971499
O46_5 O 0.9038(3) 0.4275(6) 0.9239(13)
H37_5 H 0.899147 0.441359 0.867764
H38_5 H 0.891335 0.411790 0.941054
O50_5 O 0.84327(15) 0.6072(3) 0.9619(7)
O54_5 O 0.88178(15) 0.6284(3) 0.9140(7)
O55_5 O 0.90516(14) 0.5488(3) 0.8821(6)
O56_5 O 0.93460(15) 0.5872(3) 0.7696(7)
O57_4 O 0.88911(16) 0.5862(3) 0.7334(7)
O58_5 O 0.85226(19) 0.6210(4) 0.7904(8)
O60_4 O 0.8657(2) 0.5224(4) 0.6865(8)
O61_5 O 0.83168(17) 0.5563(4) 0.7833(7)
O62_5 O 0.86447(15) 0.5434(3) 0.8812(7)
O63_5 O 0.80416(18) 0.5633(4) 0.9363(7)
O64_5 O 0.82426(19) 0.4963(4) 0.9099(8)
O66_5 O 0.88710(17) 0.4989(3) 0.9859(7)
Mo1_6 Mo 0.10284(2) 0.66374(4) 0.36144(8)
Mo2_6 Mo 0.15089(2) 0.62303(4) 0.29953(8)
Mo3_6 Mo 0.16126(2) 0.64409(4) 0.06855(9)
Mo5_6 Mo 0.07936(2) 0.70570(6) 0.16695(9)
Mo6_5 Mo 0.24205(2) 0.69932(4) 0.62716(8)
Mo7_6 Mo 0.24490(2) 0.67139(3) 0.39769(8)
Mo8_8 Mo 0.250000 0.750000 0.25866(11)
Ca1_5 Ca 0.16791(5) 0.77490(12) 0.3235(3)
P1_6 P 0.10673(6) 0.61519(14) 0.1455(3)
P2_6 P 0.13496(6) 0.71070(12) 0.1957(3)
P3_6 P 0.21854(6) 0.75784(10) 0.4651(3)
O1_6 O 0.17093(15) 0.6389(3) 0.1996(7)
O2_6 O 0.1948(2) 0.8052(4) 0.2270(9)
H25_6 H 0.189629 0.810012 0.168632
H26_6 H 0.209549 0.795882 0.243652
O3_6 O 0.16315(16) 0.5969(3) 0.0313(7)
O5_6 O 0.18626(16) 0.7157(3) 0.2848(8)
H27_6 H 0.188544 0.713410 0.221499
H28_6 H 0.199503 0.714359 0.313371
O6_6 O 0.11319(16) 0.6876(3) 0.4588(6)
O7_6 O 0.1538(3) 0.8225(6) 0.1739(13)
H29_6 H 0.149147 0.808641 0.117764
H30_6 H 0.141335 0.838210 0.191054
O8_6 O 0.12150(15) 0.6197(3) 0.3592(7)
O9_6 O 0.15018(19) 0.7399(3) 0.4507(10)
H31_6 H 0.139045 0.726266 0.428595
H32_6 H 0.159594 0.724123 0.477915
O10_6 O 0.07973(14) 0.6423(3) 0.4061(7)
O11_6 O 0.09327(15) 0.6428(3) 0.2119(7)
O12_6 O 0.09081(15) 0.7080(3) 0.2972(6)
O13_6 O 0.16520(15) 0.6409(3) 0.3943(7)
O14_6 O 0.15640(18) 0.5751(3) 0.3033(8)
O15_6 O 0.13178(15) 0.6216(3) 0.1640(7)
O16_6 O 0.15516(14) 0.7012(3) 0.1321(6)
O17_6 O 0.18460(15) 0.6628(3) 0.0196(7)
O19_6 O 0.10226(19) 0.6290(4) 0.0404(8)
O20_6 O 0.13350(14) 0.6807(3) 0.2795(6)
O22_6 O 0.08168(17) 0.6937(4) 0.0333(7)
O23_6 O 0.11447(15) 0.7066(3) 0.1312(7)
O24_6 O 0.05416(18) 0.6867(4) 0.1863(7)
O25_6 O 0.07426(19) 0.7537(4) 0.1599(8)
O27_6 O 0.13710(17) 0.7511(3) 0.2359(7)
O28_7 O 0.250000 0.750000 0.6659(9)
O29_5 O 0.26491(16) 0.6738(3) 0.6639(6)
O30_5 O 0.22369(16) 0.6873(3) 0.7144(7)
O31_5 O 0.21518(14) 0.7335(3) 0.5561(6)
O32_5 O 0.23259(14) 0.6668(3) 0.5228(6)
O33_6 O 0.23659(14) 0.7883(2) 0.4900(6)
O34_6 O 0.26408(15) 0.6355(2) 0.3991(6)
O35_6 O 0.22334(15) 0.6536(3) 0.3322(6)
O36_6 O 0.22714(14) 0.7315(2) 0.3833(6)
O37_6 O 0.25966(15) 0.7007(3) 0.2961(6)
O38_6 O 0.19715(15) 0.7769(3) 0.4365(7)
O39_6 O 0.27110(15) 0.7603(3) 0.1814(6)
Mo9_6 Mo 0.39716(2) 0.83626(4) 0.36144(8)
Mo10_6 Mo 0.34911(2) 0.87697(4) 0.29953(8)
Mo11_6 Mo 0.33874(2) 0.85591(4) 0.06855(9)
Mo13_6 Mo 0.42064(2) 0.79430(6) 0.16695(9)
Mo14_5 Mo 0.25795(2) 0.80068(4) 0.62716(8)
Mo15_6 Mo 0.25510(2) 0.82861(3) 0.39769(8)
P4_6 P 0.39327(6) 0.88481(14) 0.1455(3)
P5_6 P 0.36504(6) 0.78930(12) 0.1957(3)
P6_6 P 0.28146(6) 0.74216(10) 0.4651(3)
O40_6 O 0.32907(15) 0.8611(3) 0.1996(7)
O41_6 O 0.3052(2) 0.6948(4) 0.2270(9)
H33_6 H 0.310371 0.689988 0.168632
H34_6 H 0.290451 0.704118 0.243652
O42_6 O 0.33685(16) 0.9031(3) 0.0313(7)
O44_6 O 0.31374(16) 0.7843(3) 0.2848(8)
H35_6 H 0.311456 0.786590 0.221499
H36_6 H 0.300497 0.785641 0.313371
O45_6 O 0.38681(16) 0.8124(3) 0.4588(6)
O46_6 O 0.3462(3) 0.6775(6) 0.1739(13)
H37_6 H 0.350853 0.691359 0.117764
H38_6 H 0.358665 0.661790 0.191054
O47_6 O 0.37850(15) 0.8803(3) 0.3592(7)
O48_6 O 0.34982(19) 0.7601(3) 0.4507(10)
H39_6 H 0.360955 0.773734 0.428595
H40_6 H 0.340406 0.775877 0.477915
O49_6 O 0.42027(14) 0.8577(3) 0.4061(7)
O50_6 O 0.40673(15) 0.8572(3) 0.2119(7)
O51_6 O 0.40919(15) 0.7920(3) 0.2972(6)
O52_6 O 0.33480(15) 0.8591(3) 0.3943(7)
O53_6 O 0.34360(18) 0.9249(3) 0.3033(8)
O54_6 O 0.36822(15) 0.8784(3) 0.1640(7)
O55_6 O 0.34484(14) 0.7988(3) 0.1321(6)
O56_6 O 0.31540(15) 0.8372(3) 0.0196(7)
O58_6 O 0.39774(19) 0.8710(4) 0.0404(8)
O59_6 O 0.36650(14) 0.8193(3) 0.2795(6)
O61_6 O 0.41832(17) 0.8063(4) 0.0333(7)
O62_6 O 0.38553(15) 0.7934(3) 0.1312(7)
O63_6 O 0.44584(18) 0.8133(4) 0.1863(7)
O64_6 O 0.42574(19) 0.7463(4) 0.1599(8)
O66_6 O 0.36290(17) 0.7489(3) 0.2359(7)
O67_5 O 0.23509(16) 0.8262(3) 0.6639(6)
O68_5 O 0.27631(16) 0.8127(3) 0.7144(7)
O69_5 O 0.28482(14) 0.7665(3) 0.5561(6)
O70_5 O 0.26741(14) 0.8332(3) 0.5228(6)
O71_6 O 0.26341(14) 0.7117(2) 0.4900(6)
O72_6 O 0.23592(15) 0.8645(2) 0.3991(6)
O73_6 O 0.27666(15) 0.8464(3) 0.3322(6)
O74_6 O 0.27286(14) 0.7685(2) 0.3833(6)
O75_6 O 0.24034(15) 0.7993(3) 0.2961(6)
O76_6 O 0.30285(15) 0.7231(3) 0.4365(7)
O77_6 O 0.22890(15) 0.7397(3) 0.1814(6)
O78_5 O 0.15009(18) 0.8244(4) 0.4057(9)
Mo8_9 Mo 0.000000 0.000000 0.50866(11)
Ca1_6 Ca 0.08209(5) 0.02490(12) 0.5735(3)
P3_7 P 0.03146(6) 0.00784(10) 0.7151(3)
O2_7 O 0.0552(2) 0.0552(4) 0.4770(9)
H25_7 H 0.060371 0.060012 0.418632
H26_7 H 0.040451 0.045882 0.493652
O7_7 O 0.0962(3) 0.0725(6) 0.4239(13)
H29_7 H 0.100853 0.058641 0.367764
H30_7 H 0.108665 0.088210 0.441054
O25_7 O 0.17574(19) 0.0037(4) 0.4099(8)
O27_7 O 0.11290(17) 0.0011(3) 0.4859(7)
O28_8 O -0.000000 0.000000 0.9159(9)
O33_7 O 0.01341(14) 0.0383(2) 0.7400(6)
O38_7 O 0.05285(15) 0.0269(3) 0.6865(7)
O67_6 O 0.01491(16) 0.0762(3) 0.9139(6)
O72_7 O 0.01408(15) 0.1145(2) 0.6491(6)
O75_7 O 0.00966(15) 0.0493(3) 0.5461(6)
O78_6 O 0.09991(18) 0.0744(4) 0.6557(9)
Mo1_7 Mo 0.14716(2) 0.91374(4) 0.61144(8)
Mo2_7 Mo 0.09911(2) 0.87303(4) 0.54953(8)
Mo3_7 Mo 0.08874(2) 0.89409(4) 0.31855(9)
Mo4_5 Mo 0.14045(2) 0.93171(6) 0.22227(9)
Mo5_7 Mo 0.17064(2) 0.95570(6) 0.41695(9)
Mo6_6 Mo 0.00795(2) 0.94932(4) 0.87716(8)
Mo7_7 Mo 0.00510(2) 0.92139(3) 0.64769(8)
Mo8_10 Mo 0.000000 1.000000 0.50866(11)
P1_7 P 0.14327(6) 0.86519(14) 0.3955(3)
P2_7 P 0.11504(6) 0.96070(12) 0.4457(3)
O1_7 O 0.07907(15) 0.8889(3) 0.4496(7)
O3_7 O 0.08685(16) 0.8469(3) 0.2813(7)
O4_5 O 0.1490(2) 0.9125(5) 0.1182(9)
O5_7 O 0.06374(16) 0.9657(3) 0.5348(8)
H27_7 H 0.061456 0.963410 0.471499
H28_7 H 0.050497 0.964359 0.563371
O6_7 O 0.13681(16) 0.9376(3) 0.7088(6)
O8_7 O 0.12850(15) 0.8697(3) 0.6092(7)
O9_7 O 0.09982(19) 0.9899(3) 0.7007(10)
H31_7 H 0.110955 0.976266 0.678595
H32_7 H 0.090406 0.974123 0.727915
O10_7 O 0.17027(14) 0.8923(3) 0.6561(7)
O11_7 O 0.15673(15) 0.8928(3) 0.4619(7)
O12_7 O 0.15919(15) 0.9580(3) 0.5472(6)
O13_7 O 0.08480(15) 0.8909(3) 0.6443(7)
O14_7 O 0.09360(18) 0.8251(3) 0.5533(8)
O15_7 O 0.11822(15) 0.8716(3) 0.4140(7)
O16_7 O 0.09484(14) 0.9512(3) 0.3821(6)
O17_7 O 0.06540(15) 0.9128(3) 0.2696(7)
O18_5 O 0.11089(16) 0.9138(3) 0.2334(7)
O19_7 O 0.14774(19) 0.8790(4) 0.2904(8)
O20_7 O 0.11650(14) 0.9307(3) 0.5295(6)
O21_5 O 0.1343(2) 0.9776(4) 0.1865(8)
O22_7 O 0.16832(17) 0.9437(4) 0.2833(7)
O23_7 O 0.13553(15) 0.9566(3) 0.3812(7)
O24_7 O 0.19584(18) 0.9367(4) 0.4363(7)
O28_9 O -0.000000 1.000000 0.9159(9)
O30_6 O 0.02631(16) 0.9373(3) 0.9644(7)
O31_6 O 0.03482(14) 0.9835(3) 0.8061(6)
O32_6 O 0.01741(14) 0.9168(3) 0.7728(6)
O35_7 O 0.02666(15) 0.9036(3) 0.5822(6)
O36_7 O 0.02286(14) 0.9815(2) 0.6333(6)
O77_7 O 0.02110(15) 0.9897(3) 0.4314(6)
Mo8_11 Mo 1.000000 0.000000 0.50866(11)
O28_10 O 1.000000 0.000000 0.9159(9)
O39_7 O 0.97890(15) 0.0103(3) 0.4314(6)
Mo9_7 Mo 0.85284(2) 0.08626(4) 0.61144(8)
Mo10_7 Mo 0.90089(2) 0.12697(4) 0.54953(8)
Mo11_7 Mo 0.91126(2) 0.10591(4) 0.31855(9)
Mo12_5 Mo 0.85955(2) 0.06829(6) 0.22227(9)
Mo13_7 Mo 0.82936(2) 0.04430(6) 0.41695(9)
Mo14_6 Mo 0.99205(2) 0.05068(4) 0.87716(8)
Mo15_7 Mo 0.99490(2) 0.07861(3) 0.64769(8)
P4_7 P 0.85673(6) 0.13481(14) 0.3955(3)
P5_7 P 0.88496(6) 0.03930(12) 0.4457(3)
O40_7 O 0.92093(15) 0.1111(3) 0.4496(7)
O42_7 O 0.91315(16) 0.1531(3) 0.2813(7)
O43_5 O 0.8510(2) 0.0875(5) 0.1182(9)
O44_7 O 0.93626(16) 0.0343(3) 0.5348(8)
H35_7 H 0.938544 0.036590 0.471499
H36_7 H 0.949503 0.035641 0.563371
O45_7 O 0.86319(16) 0.0624(3) 0.7088(6)
O47_7 O 0.87150(15) 0.1303(3) 0.6092(7)
O48_7 O 0.90018(19) 0.0101(3) 0.7007(10)
H39_7 H 0.889045 0.023734 0.678595
H40_7 H 0.909594 0.025877 0.727915
O49_7 O 0.82973(14) 0.1077(3) 0.6561(7)
O50_7 O 0.84327(15) 0.1072(3) 0.4619(7)
O51_7 O 0.84081(15) 0.0420(3) 0.5472(6)
O52_7 O 0.91520(15) 0.1091(3) 0.6443(7)
O53_7 O 0.90640(18) 0.1749(3) 0.5533(8)
O54_7 O 0.88178(15) 0.1284(3) 0.4140(7)
O55_7 O 0.90516(14) 0.0488(3) 0.3821(6)
O56_7 O 0.93460(15) 0.0872(3) 0.2696(7)
O57_5 O 0.88911(16) 0.0862(3) 0.2334(7)
O58_7 O 0.85226(19) 0.1210(4) 0.2904(8)
O59_7 O 0.88350(14) 0.0693(3) 0.5295(6)
O60_5 O 0.8657(2) 0.0224(4) 0.1865(8)
O61_7 O 0.83168(17) 0.0563(4) 0.2833(7)
O62_7 O 0.86447(15) 0.0434(3) 0.3812(7)
O63_7 O 0.80416(18) 0.0633(4) 0.4363(7)
O68_6 O 0.97369(16) 0.0627(3) 0.9644(7)
O69_6 O 0.96518(14) 0.0165(3) 0.8061(6)
O70_6 O 0.98259(14) 0.0832(3) 0.7728(6)
O73_7 O 0.97334(15) 0.0964(3) 0.5822(6)
O74_7 O 0.97714(14) 0.0185(2) 0.6333(6)
Mo8_12 Mo 1.000000 1.000000 0.50866(11)
O28_11 O 1.000000 1.000000 0.9159(9)
O29_6 O 0.98509(16) 0.9238(3) 0.9139(6)
O34_7 O 0.98592(15) 0.8855(2) 0.6491(6)
O37_7 O 0.99034(15) 0.9507(3) 0.5461(6)
P6_7 P 0.96854(6) 0.99216(10) 0.7151(3)
O41_7 O 0.9448(2) 0.9448(4) 0.4770(9)
H33_7 H 0.939629 0.939988 0.418632
H34_7 H 0.959549 0.954118 0.493652
O46_7 O 0.9038(3) 0.9275(6) 0.4239(13)
H37_7 H 0.899147 0.941359 0.367764
H38_7 H 0.891335 0.911790 0.441054
O64_7 O 0.82426(19) 0.9963(4) 0.4099(8)
O66_7 O 0.88710(17) 0.9989(3) 0.4859(7)
O71_7 O 0.98659(14) 0.9617(2) 0.7400(6)
O76_7 O 0.94715(15) 0.9731(3) 0.6865(7)
Mo1_8 Mo 0.10284(2) 0.16374(4) 0.86144(8)
Mo2_8 Mo 0.15089(2) 0.12303(4) 0.79953(8)
Mo3_8 Mo 0.16126(2) 0.14409(4) 0.56855(9)
Mo4_6 Mo 0.10955(2) 0.18171(6) 0.47227(9)
Mo5_8 Mo 0.07936(2) 0.20570(6) 0.66695(9)
Mo7_8 Mo 0.24490(2) 0.17139(3) 0.89769(8)
Mo8_13 Mo 0.250000 0.250000 0.75866(11)
P1_8 P 0.10673(6) 0.11519(14) 0.6455(3)
P2_8 P 0.13496(6) 0.21070(12) 0.6957(3)
P3_8 P 0.21854(6) 0.25784(10) 0.9651(3)
O1_8 O 0.17093(15) 0.1389(3) 0.6996(7)
O2_8 O 0.1948(2) 0.3052(4) 0.7270(9)
H25_8 H 0.189629 0.310012 0.668632
H26_8 H 0.209549 0.295882 0.743652
O3_8 O 0.16315(16) 0.0969(3) 0.5313(7)
O4_6 O 0.1010(2) 0.1625(5) 0.3682(9)
O5_8 O 0.18626(16) 0.2157(3) 0.7848(8)
H27_8 H 0.188544 0.213410 0.721499
H28_8 H 0.199503 0.214359 0.813371
O6_8 O 0.11319(16) 0.1876(3) 0.9588(6)
O7_8 O 0.1538(3) 0.3225(6) 0.6739(13)
H29_8 H 0.149147 0.308641 0.617764
H30_8 H 0.141335 0.338210 0.691054
O8_8 O 0.12150(15) 0.1197(3) 0.8592(7)
O9_8 O 0.15018(19) 0.2399(3) 0.9507(10)
H31_8 H 0.139045 0.226266 0.928595
H32_8 H 0.159594 0.224123 0.977915
O10_8 O 0.07973(14) 0.1423(3) 0.9061(7)
O11_8 O 0.09327(15) 0.1428(3) 0.7119(7)
O12_8 O 0.09081(15) 0.2080(3) 0.7972(6)
O13_8 O 0.16520(15) 0.1409(3) 0.8943(7)
O14_8 O 0.15640(18) 0.0751(3) 0.8033(8)
O15_8 O 0.13178(15) 0.1216(3) 0.6640(7)
O16_8 O 0.15516(14) 0.2012(3) 0.6321(6)
O17_8 O 0.18460(15) 0.1628(3) 0.5196(7)
O18_6 O 0.13911(16) 0.1638(3) 0.4834(7)
O19_8 O 0.10226(19) 0.1290(4) 0.5404(8)
O20_8 O 0.13350(14) 0.1807(3) 0.7795(6)
O21_6 O 0.1157(2) 0.2276(4) 0.4365(8)
O22_8 O 0.08168(17) 0.1937(4) 0.5333(7)
O23_8 O 0.11447(15) 0.2066(3) 0.6312(7)
O24_8 O 0.05416(18) 0.1867(4) 0.6863(7)
O25_8 O 0.07426(19) 0.2537(4) 0.6599(8)
O27_8 O 0.13710(17) 0.2511(3) 0.7359(7)
O33_8 O 0.23659(14) 0.2883(2) 0.9900(6)
O34_8 O 0.26408(15) 0.1355(2) 0.8991(6)
O35_8 O 0.22334(15) 0.1536(3) 0.8322(6)
O36_8 O 0.22714(14) 0.2315(2) 0.8833(6)
O37_8 O 0.25966(15) 0.2007(3) 0.7961(6)
O38_8 O 0.19715(15) 0.2769(3) 0.9365(7)
O39_8 O 0.27110(15) 0.2603(3) 0.6814(6)
Mo9_8 Mo 0.39716(2) 0.33626(4) 0.86144(8)
Mo10_8 Mo 0.34911(2) 0.37697(4) 0.79953(8)
Mo11_8 Mo 0.33874(2) 0.35591(4) 0.56855(9)
Mo12_6 Mo 0.39045(2) 0.31829(6) 0.47227(9)
Mo13_8 Mo 0.42064(2) 0.29430(6) 0.66695(9)
Mo15_8 Mo 0.25510(2) 0.32861(3) 0.89769(8)
P4_8 P 0.39327(6) 0.38481(14) 0.6455(3)
P5_8 P 0.36504(6) 0.28930(12) 0.6957(3)
P6_8 P 0.28146(6) 0.24216(10) 0.9651(3)
O40_8 O 0.32907(15) 0.3611(3) 0.6996(7)
O41_8 O 0.3052(2) 0.1948(4) 0.7270(9)
H33_8 H 0.310371 0.189988 0.668632
H34_8 H 0.290451 0.204118 0.743652
O42_8 O 0.33685(16) 0.4031(3) 0.5313(7)
O43_6 O 0.3990(2) 0.3375(5) 0.3682(9)
O44_8 O 0.31374(16) 0.2843(3) 0.7848(8)
H35_8 H 0.311456 0.286590 0.721499
H36_8 H 0.300497 0.285641 0.813371
O45_8 O 0.38681(16) 0.3124(3) 0.9588(6)
O46_8 O 0.3462(3) 0.1775(6) 0.6739(13)
H37_8 H 0.350853 0.191359 0.617764
H38_8 H 0.358665 0.161790 0.691054
O47_8 O 0.37850(15) 0.3803(3) 0.8592(7)
O48_8 O 0.34982(19) 0.2601(3) 0.9507(10)
H39_8 H 0.360955 0.273734 0.928595
H40_8 H 0.340406 0.275877 0.977915
O49_8 O 0.42027(14) 0.3577(3) 0.9061(7)
O50_8 O 0.40673(15) 0.3572(3) 0.7119(7)
O51_8 O 0.40919(15) 0.2920(3) 0.7972(6)
O52_8 O 0.33480(15) 0.3591(3) 0.8943(7)
O53_8 O 0.34360(18) 0.4249(3) 0.8033(8)
O54_8 O 0.36822(15) 0.3784(3) 0.6640(7)
O55_8 O 0.34484(14) 0.2988(3) 0.6321(6)
O56_8 O 0.31540(15) 0.3372(3) 0.5196(7)
O57_6 O 0.36089(16) 0.3362(3) 0.4834(7)
O58_8 O 0.39774(19) 0.3710(4) 0.5404(8)
O59_8 O 0.36650(14) 0.3193(3) 0.7795(6)
O60_6 O 0.3843(2) 0.2724(4) 0.4365(8)
O61_8 O 0.41832(17) 0.3063(4) 0.5333(7)
O62_8 O 0.38553(15) 0.2934(3) 0.6312(7)
O63_8 O 0.44584(18) 0.3133(4) 0.6863(7)
O64_8 O 0.42574(19) 0.2463(4) 0.6599(8)
O66_8 O 0.36290(17) 0.2489(3) 0.7359(7)
O71_8 O 0.26341(14) 0.2117(2) 0.9900(6)
O72_8 O 0.23592(15) 0.3645(2) 0.8991(6)
O73_8 O 0.27666(15) 0.3464(3) 0.8322(6)
O74_8 O 0.27286(14) 0.2685(2) 0.8833(6)
O75_8 O 0.24034(15) 0.2993(3) 0.7961(6)
O76_8 O 0.30285(15) 0.2231(3) 0.9365(7)
O77_8 O 0.22890(15) 0.2397(3) 0.6814(6)
Mo6_7 Mo 0.74205(2) 0.69932(4) 0.12716(8)
O28_12 O 0.750000 0.750000 0.1659(9)
O29_7 O 0.76491(16) 0.6738(3) 0.1639(6)
O30_7 O 0.72369(16) 0.6873(3) 0.2144(7)
O31_7 O 0.71518(14) 0.7335(3) 0.0561(6)
O32_7 O 0.73259(14) 0.6668(3) 0.0228(6)
Mo14_7 Mo 0.75795(2) 0.80068(4) 0.12716(8)
O67_7 O 0.73509(16) 0.8262(3) 0.1639(6)
O68_7 O 0.77631(16) 0.8127(3) 0.2144(7)
O69_7 O 0.78482(14) 0.7665(3) 0.0561(6)
O70_7 O 0.76741(14) 0.8332(3) 0.0228(6)
Mo4_7 Mo 0.60955(2) 0.18171(6) 0.97227(9)
O4_7 O 0.6010(2) 0.1625(5) 0.8682(9)
O18_7 O 0.63911(16) 0.1638(3) 0.9834(7)
O21_7 O 0.6157(2) 0.2276(4) 0.9365(8)
Mo12_7 Mo 0.89045(2) 0.31829(6) 0.97227(9)
O43_7 O 0.8990(2) 0.3375(5) 0.8682(9)
O57_7 O 0.86089(16) 0.3362(3) 0.9834(7)
O60_7 O 0.8843(2) 0.2724(4) 0.9365(8)
Mo4_8 Mo 0.10955(2) 0.68171(6) 0.97227(9)
O4_8 O 0.1010(2) 0.6625(5) 0.8682(9)
O18_8 O 0.13911(16) 0.6638(3) 0.9834(7)
O21_8 O 0.1157(2) 0.7276(4) 0.9365(8)
Mo12_8 Mo 0.39045(2) 0.81829(6) 0.97227(9)
O43_8 O 0.3990(2) 0.8375(5) 0.8682(9)
O57_8 O 0.36089(16) 0.8362(3) 0.9834(7)
O60_8 O 0.3843(2) 0.7724(4) 0.9365(8)
Mo6_8 Mo 0.24205(2) 0.19932(4) 0.12716(8)
O28_13 O 0.250000 0.250000 0.1659(9)
O29_8 O 0.26491(16) 0.1738(3) 0.1639(6)
O30_8 O 0.22369(16) 0.1873(3) 0.2144(7)
O31_8 O 0.21518(14) 0.2335(3) 0.0561(6)
O32_8 O 0.23259(14) 0.1668(3) 0.0228(6)
Mo14_8 Mo 0.25795(2) 0.30068(4) 0.12716(8)
O67_8 O 0.23509(16) 0.3262(3) 0.1639(6)
O68_8 O 0.27631(16) 0.3127(3) 0.2144(7)
O69_8 O 0.28482(14) 0.2665(3) 0.0561(6)
O70_8 O 0.26741(14) 0.3332(3) 0.0228(6)
N7 N 0.5464(2) 0.4844(4) 0.1076(9)
H41 H 0.551935 0.483826 0.168263
H42 H 0.535315 0.473446 0.103483
H43 H 0.546105 0.507576 0.098593
H44 H 0.557955 0.476866 0.076383
N7_2 N 0.4536(2) 0.5156(4) 0.1076(9)
H41_2 H 0.448065 0.516174 0.168263
H42_2 H 0.464685 0.526554 0.103483
H43_2 H 0.453895 0.492424 0.098593
H44_2 H 0.442045 0.523134 0.076383
N7_3 N 0.7036(2) 0.7344(4) 0.3576(9)
H41_3 H 0.698065 0.733826 0.418263
H42_3 H 0.714685 0.723446 0.353483
H43_3 H 0.703895 0.757576 0.348593
H44_3 H 0.692045 0.726866 0.326383
N7_4 N 0.7964(2) 0.7656(4) 0.3576(9)
H41_4 H 0.801935 0.766174 0.418263
H42_4 H 0.785315 0.776554 0.353483
H43_4 H 0.796105 0.742424 0.348593
H44_4 H 0.807955 0.773134 0.326383
H43_5 H 0.546105 0.007576 0.598593
N7_5 N 0.5464(2) 0.9844(4) 0.6076(9)
H41_5 H 0.551935 0.983826 0.668263
H42_5 H 0.535315 0.973446 0.603483
H44_5 H 0.557955 0.976866 0.576383
N7_6 N 0.4536(2) 0.0156(4) 0.6076(9)
H41_6 H 0.448065 0.016174 0.668263
H42_6 H 0.464685 0.026554 0.603483
H44_6 H 0.442045 0.023134 0.576383
H43_6 H 0.453895 0.992424 0.598593
N7_7 N 0.7036(2) 0.2344(4) 0.8576(9)
H41_7 H 0.698065 0.233826 0.918263
H42_7 H 0.714685 0.223446 0.853483
H43_7 H 0.703895 0.257576 0.848593
H44_7 H 0.692045 0.226866 0.826383
N7_8 N 0.7964(2) 0.2656(4) 0.8576(9)
H41_8 H 0.801935 0.266174 0.918263
H42_8 H 0.785315 0.276554 0.853483
H43_8 H 0.796105 0.242424 0.848593
H44_8 H 0.807955 0.273134 0.826383
N7_9 N 0.0464(2) 0.4844(4) 0.6076(9)
H41_9 H 0.051935 0.483826 0.668263
H42_9 H 0.035315 0.473446 0.603483
H43_9 H 0.046105 0.507576 0.598593
H44_9 H 0.057955 0.476866 0.576383
N7_10 N 0.9536(2) 0.5156(4) 0.6076(9)
H41_10 H 0.948065 0.516174 0.668263
H42_10 H 0.964685 0.526554 0.603483
H43_10 H 0.953895 0.492424 0.598593
H44_10 H 0.942045 0.523134 0.576383
N7_11 N 0.2036(2) 0.7344(4) 0.8576(9)
H41_11 H 0.198065 0.733826 0.918263
H42_11 H 0.214685 0.723446 0.853483
H43_11 H 0.203895 0.757576 0.848593
H44_11 H 0.192045 0.726866 0.826383
N7_12 N 0.2964(2) 0.7656(4) 0.8576(9)
H41_12 H 0.301935 0.766174 0.918263
H42_12 H 0.285315 0.776554 0.853483
H43_12 H 0.296105 0.742424 0.848593
H44_12 H 0.307955 0.773134 0.826383
H43_13 H 0.046105 0.007576 0.098593
N7_13 N 0.0464(2) 0.9844(4) 0.1076(9)
H41_13 H 0.051935 0.983826 0.168263
H42_13 H 0.035315 0.973446 0.103483
H44_13 H 0.057955 0.976866 0.076383
N7_14 N 0.9536(2) 0.0156(4) 0.1076(9)
H41_14 H 0.948065 0.016174 0.168263
H42_14 H 0.964685 0.026554 0.103483
H44_14 H 0.942045 0.023134 0.076383
H43_14 H 0.953895 0.992424 0.098593
N7_15 N 0.2036(2) 0.2344(4) 0.3576(9)
H41_15 H 0.198065 0.233826 0.418263
H42_15 H 0.214685 0.223446 0.353483
H43_15 H 0.203895 0.257576 0.348593
H44_15 H 0.192045 0.226866 0.326383
N7_16 N 0.2964(2) 0.2656(4) 0.3576(9)
H41_16 H 0.301935 0.266174 0.418263
H42_16 H 0.285315 0.276554 0.353483
H43_16 H 0.296105 0.242424 0.348593
H44_16 H 0.307955 0.273134 0.326383
N8 N 0.5496(2) 0.6322(4) 0.4959(10)
H45 H 0.554543 0.650852 0.528903
H46 H 0.557813 0.628652 0.447163
H47 H 0.547523 0.609422 0.528753
H48 H 0.536423 0.638162 0.485693
N8_2 N 0.4504(2) 0.3678(4) 0.4959(10)
H45_2 H 0.445457 0.349148 0.528903
H46_2 H 0.442187 0.371348 0.447163
H47_2 H 0.452477 0.390578 0.528753
H48_2 H 0.463577 0.361838 0.485693
N8_3 N 0.7004(2) 0.8822(4) 0.7459(10)
H45_3 H 0.695457 0.900852 0.778903
H46_3 H 0.692187 0.878652 0.697163
H47_3 H 0.702477 0.859422 0.778753
H48_3 H 0.713577 0.888162 0.735693
N8_4 N 0.7996(2) 0.6178(4) 0.7459(10)
H45_4 H 0.804543 0.599148 0.778903
H46_4 H 0.807813 0.621348 0.697163
H47_4 H 0.797523 0.640578 0.778753
H48_4 H 0.786423 0.611838 0.735693
H45_5 H 0.554543 0.150852 0.028903
H47_5 H 0.547523 0.109422 0.028753
N8_5 N 0.5496(2) 0.1322(4) 0.9959(10)
H46_5 H 0.557813 0.128652 0.947163
H48_5 H 0.536423 0.138162 0.985693
H45_6 H 0.445457 0.849148 0.028903
H47_6 H 0.452477 0.890578 0.028753
N8_6 N 0.4504(2) 0.8678(4) 0.9959(10)
H46_6 H 0.442187 0.871348 0.947163
H48_6 H 0.463577 0.861838 0.985693
N8_7 N 0.7004(2) 0.3822(4) 0.2459(10)
H45_7 H 0.695457 0.400852 0.278903
H46_7 H 0.692187 0.378652 0.197163
H47_7 H 0.702477 0.359422 0.278753
H48_7 H 0.713577 0.388162 0.235693
N8_8 N 0.7996(2) 0.1178(4) 0.2459(10)
H45_8 H 0.804543 0.099148 0.278903
H46_8 H 0.807813 0.121348 0.197163
H47_8 H 0.797523 0.140578 0.278753
H48_8 H 0.786423 0.111838 0.235693
H45_9 H 0.054543 0.650852 0.028903
H47_9 H 0.047523 0.609422 0.028753
N8_9 N 0.0496(2) 0.6322(4) 0.9959(10)
H46_9 H 0.057813 0.628652 0.947163
H48_9 H 0.036423 0.638162 0.985693
H45_10 H 0.945457 0.349148 0.028903
H47_10 H 0.952477 0.390578 0.028753
N8_10 N 0.9504(2) 0.3678(4) 0.9959(10)
H46_10 H 0.942187 0.371348 0.947163
H48_10 H 0.963577 0.361838 0.985693
N8_11 N 0.2004(2) 0.8822(4) 0.2459(10)
H45_11 H 0.195457 0.900852 0.278903
H46_11 H 0.192187 0.878652 0.197163
H47_11 H 0.202477 0.859422 0.278753
H48_11 H 0.213577 0.888162 0.235693
N8_12 N 0.2996(2) 0.6178(4) 0.2459(10)
H45_12 H 0.304543 0.599148 0.278903
H46_12 H 0.307813 0.621348 0.197163
H47_12 H 0.297523 0.640578 0.278753
H48_12 H 0.286423 0.611838 0.235693
N8_13 N 0.0496(2) 0.1322(4) 0.4959(10)
H45_13 H 0.054543 0.150852 0.528903
H46_13 H 0.057813 0.128652 0.447163
H47_13 H 0.047523 0.109422 0.528753
H48_13 H 0.036423 0.138162 0.485693
N8_14 N 0.9504(2) 0.8678(4) 0.4959(10)
H45_14 H 0.945457 0.849148 0.528903
H46_14 H 0.942187 0.871348 0.447163
H47_14 H 0.952477 0.890578 0.528753
H48_14 H 0.963577 0.861838 0.485693
N8_15 N 0.2004(2) 0.3822(4) 0.7459(10)
H45_15 H 0.195457 0.400852 0.778903
H46_15 H 0.192187 0.378652 0.697163
H47_15 H 0.202477 0.359422 0.778753
H48_15 H 0.213577 0.388162 0.735693
N8_16 N 0.2996(2) 0.1178(4) 0.7459(10)
H45_16 H 0.304543 0.099148 0.778903
H46_16 H 0.307813 0.121348 0.697163
H47_16 H 0.297523 0.140578 0.778753
H48_16 H 0.286423 0.111838 0.735693
N9 N 0.55160(18) 0.5985(3) 0.7769(9)
H49 H 0.564427 0.603936 0.819595
H50 H 0.544547 0.617786 0.755605
H51 H 0.541917 0.581856 0.777195
H52 H 0.556817 0.586726 0.726895
N9_2 N 0.44840(18) 0.4015(3) 0.7769(9)
H49_2 H 0.435573 0.396064 0.819595
H50_2 H 0.455453 0.382214 0.755605
H51_2 H 0.458083 0.418144 0.777195
H52_2 H 0.443183 0.413274 0.726895
N9_3 N 0.69840(18) 0.8485(3) 0.0269(9)
H49_3 H 0.685573 0.853936 0.069595
H50_3 H 0.705453 0.867786 0.005605
H51_3 H 0.708083 0.831856 0.027195
H52_3 H 0.693183 0.836726 0.976895
N9_4 N 0.80160(18) 0.6515(3) 0.0269(9)
H49_4 H 0.814427 0.646064 0.069595
H50_4 H 0.794547 0.632214 0.005605
H51_4 H 0.791917 0.668144 0.027195
H52_4 H 0.806817 0.663274 0.976895
N9_5 N 0.55160(18) 0.0985(3) 0.2769(9)
H49_5 H 0.564427 0.103936 0.319595
H50_5 H 0.544547 0.117786 0.255605
H51_5 H 0.541917 0.081856 0.277195
H52_5 H 0.556817 0.086726 0.226895
N9_6 N 0.44840(18) 0.9015(3) 0.2769(9)
H49_6 H 0.435573 0.896064 0.319595
H50_6 H 0.455453 0.882214 0.255605
H51_6 H 0.458083 0.918144 0.277195
H52_6 H 0.443183 0.913274 0.226895
N9_7 N 0.69840(18) 0.3485(3) 0.5269(9)
H49_7 H 0.685573 0.353936 0.569595
H50_7 H 0.705453 0.367786 0.505605
H51_7 H 0.708083 0.331856 0.527195
H52_7 H 0.693183 0.336726 0.476895
N9_8 N 0.80160(18) 0.1515(3) 0.5269(9)
H49_8 H 0.814427 0.146064 0.569595
H50_8 H 0.794547 0.132214 0.505605
H51_8 H 0.791917 0.168144 0.527195
H52_8 H 0.806817 0.163274 0.476895
N9_9 N 0.05160(18) 0.5985(3) 0.2769(9)
H49_9 H 0.064427 0.603936 0.319595
H50_9 H 0.044547 0.617786 0.255605
H51_9 H 0.041917 0.581856 0.277195
H52_9 H 0.056817 0.586726 0.226895
N9_10 N 0.94840(18) 0.4015(3) 0.2769(9)
H49_10 H 0.935573 0.396064 0.319595
H50_10 H 0.955453 0.382214 0.255605
H51_10 H 0.958083 0.418144 0.277195
H52_10 H 0.943183 0.413274 0.226895
N9_11 N 0.19840(18) 0.8485(3) 0.5269(9)
H49_11 H 0.185573 0.853936 0.569595
H50_11 H 0.205453 0.867786 0.505605
H51_11 H 0.208083 0.831856 0.527195
H52_11 H 0.193183 0.836726 0.476895
N9_12 N 0.30160(18) 0.6515(3) 0.5269(9)
H49_12 H 0.314427 0.646064 0.569595
H50_12 H 0.294547 0.632214 0.505605
H51_12 H 0.291917 0.668144 0.527195
H52_12 H 0.306817 0.663274 0.476895
N9_13 N 0.05160(18) 0.0985(3) 0.7769(9)
H49_13 H 0.064427 0.103936 0.819595
H50_13 H 0.044547 0.117786 0.755605
H51_13 H 0.041917 0.081856 0.777195
H52_13 H 0.056817 0.086726 0.726895
N9_14 N 0.94840(18) 0.9015(3) 0.7769(9)
H49_14 H 0.935573 0.896064 0.819595
H50_14 H 0.955453 0.882214 0.755605
H51_14 H 0.958083 0.918144 0.777195
H52_14 H 0.943183 0.913274 0.726895
N9_15 N 0.19840(18) 0.3485(3) 0.0269(9)
H49_15 H 0.185573 0.353936 0.069595
H50_15 H 0.205453 0.367786 0.005605
H51_15 H 0.208083 0.331856 0.027195
H52_15 H 0.193183 0.336726 0.976895
N9_16 N 0.30160(18) 0.1515(3) 0.0269(9)
H49_16 H 0.314427 0.146064 0.069595
H50_16 H 0.294547 0.132214 0.005605
H51_16 H 0.291917 0.168144 0.027195
H52_16 H 0.306817 0.163274 0.976895
N10 N 0.6445(2) 0.5314(3) 0.6301(10)
H53 H 0.634451 0.516351 0.609208
H54 H 0.647601 0.547862 0.587078
H55 H 0.653871 0.512791 0.639098
H56 H 0.643111 0.545591 0.684558
N10_2 N 0.3555(2) 0.4686(3) 0.6301(10)
H53_2 H 0.365549 0.483649 0.609208
H54_2 H 0.352399 0.452138 0.587078
H55_2 H 0.346129 0.487209 0.639098
H56_2 H 0.356889 0.454409 0.684558
N10_3 N 0.6055(2) 0.7814(3) 0.8801(10)
H53_3 H 0.615549 0.766351 0.859208
H54_3 H 0.602399 0.797862 0.837078
H55_3 H 0.596129 0.762791 0.889098
H56_3 H 0.606889 0.795591 0.934558
N10_4 N 0.8945(2) 0.7186(3) 0.8801(10)
H53_4 H 0.884451 0.733649 0.859208
H54_4 H 0.897601 0.702138 0.837078
H55_4 H 0.903871 0.737209 0.889098
H56_4 H 0.893111 0.704409 0.934558
N10_5 N 0.6445(2) 0.0314(3) 0.1301(10)
H53_5 H 0.634451 0.016351 0.109208
H54_5 H 0.647601 0.047862 0.087078
H55_5 H 0.653871 0.012791 0.139098
H56_5 H 0.643111 0.045591 0.184558
N10_6 N 0.3555(2) 0.9686(3) 0.1301(10)
H53_6 H 0.365549 0.983649 0.109208
H54_6 H 0.352399 0.952138 0.087078
H55_6 H 0.346129 0.987209 0.139098
H56_6 H 0.356889 0.954409 0.184558
N10_7 N 0.6055(2) 0.2814(3) 0.3801(10)
H53_7 H 0.615549 0.266351 0.359208
H54_7 H 0.602399 0.297862 0.337078
H55_7 H 0.596129 0.262791 0.389098
H56_7 H 0.606889 0.295591 0.434558
N10_8 N 0.8945(2) 0.2186(3) 0.3801(10)
H53_8 H 0.884451 0.233649 0.359208
H54_8 H 0.897601 0.202138 0.337078
H55_8 H 0.903871 0.237209 0.389098
H56_8 H 0.893111 0.204409 0.434558
N10_9 N 0.1445(2) 0.5314(3) 0.1301(10)
H53_9 H 0.134451 0.516351 0.109208
H54_9 H 0.147601 0.547862 0.087078
H55_9 H 0.153871 0.512791 0.139098
H56_9 H 0.143111 0.545591 0.184558
N10_10 N 0.8555(2) 0.4686(3) 0.1301(10)
H53_10 H 0.865549 0.483649 0.109208
H54_10 H 0.852399 0.452138 0.087078
H55_10 H 0.846129 0.487209 0.139098
H56_10 H 0.856889 0.454409 0.184558
N10_11 N 0.1055(2) 0.7814(3) 0.3801(10)
H53_11 H 0.115549 0.766351 0.359208
H54_11 H 0.102399 0.797862 0.337078
H55_11 H 0.096129 0.762791 0.389098
H56_11 H 0.106889 0.795591 0.434558
N10_12 N 0.3945(2) 0.7186(3) 0.3801(10)
H53_12 H 0.384451 0.733649 0.359208
H54_12 H 0.397601 0.702138 0.337078
H55_12 H 0.403871 0.737209 0.389098
H56_12 H 0.393111 0.704409 0.434558
N10_13 N 0.1445(2) 0.0314(3) 0.6301(10)
H53_13 H 0.134451 0.016351 0.609208
H54_13 H 0.147601 0.047862 0.587078
H55_13 H 0.153871 0.012791 0.639098
H56_13 H 0.143111 0.045591 0.684558
N10_14 N 0.8555(2) 0.9686(3) 0.6301(10)
H53_14 H 0.865549 0.983649 0.609208
H54_14 H 0.852399 0.952138 0.587078
H55_14 H 0.846129 0.987209 0.639098
H56_14 H 0.856889 0.954409 0.684558
N10_15 N 0.1055(2) 0.2814(3) 0.8801(10)
H53_15 H 0.115549 0.266351 0.859208
H54_15 H 0.102399 0.297862 0.837078
H55_15 H 0.096129 0.262791 0.889098
H56_15 H 0.106889 0.295591 0.934558
N10_16 N 0.3945(2) 0.2186(3) 0.8801(10)
H53_16 H 0.384451 0.233649 0.859208
H54_16 H 0.397601 0.202138 0.837078
H55_16 H 0.403871 0.237209 0.889098
H56_16 H 0.393111 0.204409 0.934558
loop_
_geom_bond_atom_site_label_1
_geom_bond_atom_site_label_2
_geom_bond_site_symmetry_1
_geom_bond_site_symmetry_2
Co1 N1 1_555 1_555
N1 C1 1_555 1_555
N2 Co1 1_555 1_555
N3 Co1 1_555 1_555
N4 Co1 1_555 1_555
N5 Co1 1_555 1_555
N6 Co1 1_555 1_555
C1 H1 1_555 1_555
C2 C1 1_555 1_555
H2 C2 1_555 1_555
C11 N3 1_555 1_555
H9 C11 1_555 1_555
C12 C11 1_555 1_555
C13 C12 1_555 1_555
H11 C13 1_555 1_555
C14 C13 1_555 1_555
H12 C14 1_555 1_555
C15 N3 1_555 1_555
C16 N4 1_555 1_555
C17 C16 1_555 1_555
H13 C17 1_555 1_555
C18 C17 1_555 1_555
H14 C18 1_555 1_555
C19 C18 1_555 1_555
H15 C19 1_555 1_555
C20 N4 1_555 1_555
H16 C20 1_555 1_555
C21 N5 1_555 1_555
H17 C21 1_555 1_555
C22 C21 1_555 1_555
H18 C22 1_555 1_555
C23 C22 1_555 1_555
H19 C23 1_555 1_555
C24 C23 1_555 1_555
H20 C24 1_555 1_555
C25 N5 1_555 1_555
C26 N6 1_555 1_555
C27 C26 1_555 1_555
H21 C27 1_555 1_555
C28 C27 1_555 1_555
H22 C28 1_555 1_555
C29 C28 1_555 1_555
H23 C29 1_555 1_555
C30 N6 1_555 1_555
H24 C30 1_555 1_555
C14 C15 1_555 1_555
C15 C16 1_555 1_555
C19 C20 1_555 1_555
C24 C25 1_555 1_555
C25 C26 1_555 1_555
C29 C30 1_555 1_555
H3 C3 1_555 1_555
C4 C3 1_555 1_555
H4 C4 1_555 1_555
C7 C6 1_555 1_555
H5 C7 1_555 1_555
C8 C7 1_555 1_555
H6 C8 1_555 1_555
C9 C8 1_555 1_555
H7 C9 1_555 1_555
C4 C5 1_555 1_555
C5 C6 1_555 1_555
C9 C10 1_555 1_555
Co1_2 N1_2 1_555 1_555
N1_2 C1_2 1_555 1_555
N2_2 Co1_2 1_555 1_555
N3_2 Co1_2 1_555 1_555
N4_2 Co1_2 1_555 1_555
N5_2 Co1_2 1_555 1_555
N6_2 Co1_2 1_555 1_555
C1_2 H1_2 1_555 1_555
C2_2 C1_2 1_555 1_555
H2_2 C2_2 1_555 1_555
C11_2 N3_2 1_555 1_555
H9_2 C11_2 1_555 1_555
C12_2 C11_2 1_555 1_555
C13_2 C12_2 1_555 1_555
H11_2 C13_2 1_555 1_555
C14_2 C13_2 1_555 1_555
H12_2 C14_2 1_555 1_555
C15_2 N3_2 1_555 1_555
C16_2 N4_2 1_555 1_555
C17_2 C16_2 1_555 1_555
H13_2 C17_2 1_555 1_555
C18_2 C17_2 1_555 1_555
H14_2 C18_2 1_555 1_555
C19_2 C18_2 1_555 1_555
H15_2 C19_2 1_555 1_555
C20_2 N4_2 1_555 1_555
H16_2 C20_2 1_555 1_555
C21_2 N5_2 1_555 1_555
H17_2 C21_2 1_555 1_555
C22_2 C21_2 1_555 1_555
H18_2 C22_2 1_555 1_555
C23_2 C22_2 1_555 1_555
H19_2 C23_2 1_555 1_555
C24_2 C23_2 1_555 1_555
H20_2 C24_2 1_555 1_555
C25_2 N5_2 1_555 1_555
C26_2 N6_2 1_555 1_555
C27_2 C26_2 1_555 1_555
H21_2 C27_2 1_555 1_555
C28_2 C27_2 1_555 1_555
H22_2 C28_2 1_555 1_555
C29_2 C28_2 1_555 1_555
H23_2 C29_2 1_555 1_555
C30_2 N6_2 1_555 1_555
H24_2 C30_2 1_555 1_555
C14_2 C15_2 1_555 1_555
C15_2 C16_2 1_555 1_555
C19_2 C20_2 1_555 1_555
C24_2 C25_2 1_555 1_555
C25_2 C26_2 1_555 1_555
C29_2 C30_2 1_555 1_555
H3_2 C3_2 1_555 1_555
C4_2 C3_2 1_555 1_555
H4_2 C4_2 1_555 1_555
C7_2 C6_2 1_555 1_555
H5_2 C7_2 1_555 1_555
C8_2 C7_2 1_555 1_555
H6_2 C8_2 1_555 1_555
C9_2 C8_2 1_555 1_555
H7_2 C9_2 1_555 1_555
C4_2 C5_2 1_555 1_555
C5_2 C6_2 1_555 1_555
C9_2 C10_2 1_555 1_555
Co1_3 N1_3 1_555 1_555
N1_3 C1_3 1_555 1_555
N2_3 Co1_3 1_555 1_555
N3_3 Co1_3 1_555 1_555
N4_3 Co1_3 1_555 1_555
N5_3 Co1_3 1_555 1_555
N6_3 Co1_3 1_555 1_555
C1_3 H1_3 1_555 1_555
C2_3 C1_3 1_555 1_555
H2_3 C2_3 1_555 1_555
C3_3 C2_3 1_555 1_555
H3_3 C3_3 1_555 1_555
C4_3 C3_3 1_555 1_555
H4_3 C4_3 1_555 1_555
C5_3 N1_3 1_555 1_555
C6_3 N2_3 1_555 1_555
C7_3 C6_3 1_555 1_555
H5_3 C7_3 1_555 1_555
C8_3 C7_3 1_555 1_555
H6_3 C8_3 1_555 1_555
C9_3 C8_3 1_555 1_555
H7_3 C9_3 1_555 1_555
C10_3 N2_3 1_555 1_555
H8_3 C10_3 1_555 1_555
C11_3 N3_3 1_555 1_555
H9_3 C11_3 1_555 1_555
C12_3 C11_3 1_555 1_555
H10_3 C12_3 1_555 1_555
C13_3 C12_3 1_555 1_555
H11_3 C13_3 1_555 1_555
C14_3 C13_3 1_555 1_555
H12_3 C14_3 1_555 1_555
C15_3 N3_3 1_555 1_555
C16_3 N4_3 1_555 1_555
C17_3 C16_3 1_555 1_555
H13_3 C17_3 1_555 1_555
C18_3 C17_3 1_555 1_555
H14_3 C18_3 1_555 1_555
C19_3 C18_3 1_555 1_555
H15_3 C19_3 1_555 1_555
C20_3 N4_3 1_555 1_555
H16_3 C20_3 1_555 1_555
C21_3 N5_3 1_555 1_555
H17_3 C21_3 1_555 1_555
C22_3 C21_3 1_555 1_555
H18_3 C22_3 1_555 1_555
C23_3 C22_3 1_555 1_555
H19_3 C23_3 1_555 1_555
C24_3 C23_3 1_555 1_555
H20_3 C24_3 1_555 1_555
C25_3 N5_3 1_555 1_555
C26_3 N6_3 1_555 1_555
C27_3 C26_3 1_555 1_555
H21_3 C27_3 1_555 1_555
C28_3 C27_3 1_555 1_555
H22_3 C28_3 1_555 1_555
C29_3 C28_3 1_555 1_555
H23_3 C29_3 1_555 1_555
C30_3 N6_3 1_555 1_555
H24_3 C30_3 1_555 1_555
C4_3 C5_3 1_555 1_555
C5_3 C6_3 1_555 1_555
C9_3 C10_3 1_555 1_555
C14_3 C15_3 1_555 1_555
C15_3 C16_3 1_555 1_555
C19_3 C20_3 1_555 1_555
C24_3 C25_3 1_555 1_555
C25_3 C26_3 1_555 1_555
C29_3 C30_3 1_555 1_555
H10_4 C12_4 1_555 1_555
C13_4 C12_4 1_555 1_555
H11_4 C13_4 1_555 1_555
C14_4 C13_4 1_555 1_555
H12_4 C14_4 1_555 1_555
C14_4 C15_4 1_555 1_555
Co1_4 N1_4 1_555 1_555
N1_4 C1_4 1_555 1_555
N2_4 Co1_4 1_555 1_555
N3_4 Co1_4 1_555 1_555
N4_4 Co1_4 1_555 1_555
N5_4 Co1_4 1_555 1_555
N6_4 Co1_4 1_555 1_555
C1_4 H1_4 1_555 1_555
C2_4 C1_4 1_555 1_555
H2_4 C2_4 1_555 1_555
C3_4 C2_4 1_555 1_555
H3_4 C3_4 1_555 1_555
C4_4 C3_4 1_555 1_555
H4_4 C4_4 1_555 1_555
C5_4 N1_4 1_555 1_555
C6_4 N2_4 1_555 1_555
C7_4 C6_4 1_555 1_555
H5_4 C7_4 1_555 1_555
C8_4 C7_4 1_555 1_555
H6_4 C8_4 1_555 1_555
C9_4 C8_4 1_555 1_555
H7_4 C9_4 1_555 1_555
C10_4 N2_4 1_555 1_555
H8_4 C10_4 1_555 1_555
C11_4 N3_4 1_555 1_555
H9_4 C11_4 1_555 1_555
C15_5 N3_4 1_555 1_555
C16_4 N4_4 1_555 1_555
C17_4 C16_4 1_555 1_555
C18_4 C17_4 1_555 1_555
H14_4 C18_4 1_555 1_555
C19_4 C18_4 1_555 1_555
H15_4 C19_4 1_555 1_555
C20_4 N4_4 1_555 1_555
H16_4 C20_4 1_555 1_555
C21_4 N5_4 1_555 1_555
H17_4 C21_4 1_555 1_555
C22_4 C21_4 1_555 1_555
H18_4 C22_4 1_555 1_555
C23_4 C22_4 1_555 1_555
H19_4 C23_4 1_555 1_555
C24_4 C23_4 1_555 1_555
H20_4 C24_4 1_555 1_555
C25_4 N5_4 1_555 1_555
C26_4 N6_4 1_555 1_555
C27_4 C26_4 1_555 1_555
H21_4 C27_4 1_555 1_555
C28_4 C27_4 1_555 1_555
H22_4 C28_4 1_555 1_555
C29_4 C28_4 1_555 1_555
H23_4 C29_4 1_555 1_555
C30_4 N6_4 1_555 1_555
H24_4 C30_4 1_555 1_555
C4_4 C5_4 1_555 1_555
C5_4 C6_4 1_555 1_555
C9_4 C10_4 1_555 1_555
C15_5 C16_4 1_555 1_555
C19_4 C20_4 1_555 1_555
C24_4 C25_4 1_555 1_555
C25_4 C26_4 1_555 1_555
C29_4 C30_4 1_555 1_555
Co1_5 N1_5 1_555 1_555
N1_5 C1_5 1_555 1_555
N2_5 Co1_5 1_555 1_555
N3_5 Co1_5 1_555 1_555
N4_5 Co1_5 1_555 1_555
N5_5 Co1_5 1_555 1_555
N6_5 Co1_5 1_555 1_555
C1_5 H1_5 1_555 1_555
C2_5 C1_5 1_555 1_555
H2_5 C2_5 1_555 1_555
C3_5 C2_5 1_555 1_555
H3_5 C3_5 1_555 1_555
C4_5 C3_5 1_555 1_555
H4_5 C4_5 1_555 1_555
C5_5 N1_5 1_555 1_555
C6_5 N2_5 1_555 1_555
C7_5 C6_5 1_555 1_555
H5_5 C7_5 1_555 1_555
C8_5 C7_5 1_555 1_555
H6_5 C8_5 1_555 1_555
C9_5 C8_5 1_555 1_555
H7_5 C9_5 1_555 1_555
C10_5 N2_5 1_555 1_555
H8_5 C10_5 1_555 1_555
C11_5 N3_5 1_555 1_555
H9_5 C11_5 1_555 1_555
C12_5 C11_5 1_555 1_555
H10_5 C12_5 1_555 1_555
C13_5 C12_5 1_555 1_555
H11_5 C13_5 1_555 1_555
C14_5 C13_5 1_555 1_555
H12_5 C14_5 1_555 1_555
C15_6 N3_5 1_555 1_555
C16_5 N4_5 1_555 1_555
C17_5 C16_5 1_555 1_555
H13_5 C17_5 1_555 1_555
C18_5 C17_5 1_555 1_555
H14_5 C18_5 1_555 1_555
C19_5 C18_5 1_555 1_555
H15_5 C19_5 1_555 1_555
C20_5 N4_5 1_555 1_555
H16_5 C20_5 1_555 1_555
C21_5 N5_5 1_555 1_555
H17_5 C21_5 1_555 1_555
C22_5 C21_5 1_555 1_555
H18_5 C22_5 1_555 1_555
C23_5 C22_5 1_555 1_555
H19_5 C23_5 1_555 1_555
C24_5 C23_5 1_555 1_555
H20_5 C24_5 1_555 1_555
C25_5 N5_5 1_555 1_555
C26_5 N6_5 1_555 1_555
C27_5 C26_5 1_555 1_555
H21_5 C27_5 1_555 1_555
C28_5 C27_5 1_555 1_555
H22_5 C28_5 1_555 1_555
C29_5 C28_5 1_555 1_555
H23_5 C29_5 1_555 1_555
C30_5 N6_5 1_555 1_555
H24_5 C30_5 1_555 1_555
C4_5 C5_5 1_555 1_555
C5_5 C6_5 1_555 1_555
C9_5 C10_5 1_555 1_555
C14_5 C15_6 1_555 1_555
C15_6 C16_5 1_555 1_555
C19_5 C20_5 1_555 1_555
C24_5 C25_5 1_555 1_555
C25_5 C26_5 1_555 1_555
C29_5 C30_5 1_555 1_555
Co1_6 N1_6 1_555 1_555
N1_6 C1_6 1_555 1_555
N2_6 Co1_6 1_555 1_555
N3_6 Co1_6 1_555 1_555
N4_6 Co1_6 1_555 1_555
N5_6 Co1_6 1_555 1_555
N6_6 Co1_6 1_555 1_555
C1_6 H1_6 1_555 1_555
C2_6 C1_6 1_555 1_555
H2_6 C2_6 1_555 1_555
C3_6 C2_6 1_555 1_555
H3_6 C3_6 1_555 1_555
C4_6 C3_6 1_555 1_555
H4_6 C4_6 1_555 1_555
C5_6 N1_6 1_555 1_555
C6_6 N2_6 1_555 1_555
C7_6 C6_6 1_555 1_555
H5_6 C7_6 1_555 1_555
C8_6 C7_6 1_555 1_555
H6_6 C8_6 1_555 1_555
C9_6 C8_6 1_555 1_555
H7_6 C9_6 1_555 1_555
C10_6 N2_6 1_555 1_555
H8_6 C10_6 1_555 1_555
C11_6 N3_6 1_555 1_555
H9_6 C11_6 1_555 1_555
C12_6 C11_6 1_555 1_555
H10_6 C12_6 1_555 1_555
C13_6 C12_6 1_555 1_555
H11_6 C13_6 1_555 1_555
C14_6 C13_6 1_555 1_555
H12_6 C14_6 1_555 1_555
C15_7 N3_6 1_555 1_555
C16_6 N4_6 1_555 1_555
C17_6 C16_6 1_555 1_555
H13_6 C17_6 1_555 1_555
C18_6 C17_6 1_555 1_555
H14_6 C18_6 1_555 1_555
C19_6 C18_6 1_555 1_555
H15_6 C19_6 1_555 1_555
C20_6 N4_6 1_555 1_555
H16_6 C20_6 1_555 1_555
C21_6 N5_6 1_555 1_555
H17_6 C21_6 1_555 1_555
C22_6 C21_6 1_555 1_555
H18_6 C22_6 1_555 1_555
C23_6 C22_6 1_555 1_555
H19_6 C23_6 1_555 1_555
C24_6 C23_6 1_555 1_555
H20_6 C24_6 1_555 1_555
C25_6 N5_6 1_555 1_555
C26_6 N6_6 1_555 1_555
C27_6 C26_6 1_555 1_555
H21_6 C27_6 1_555 1_555
C28_6 C27_6 1_555 1_555
H22_6 C28_6 1_555 1_555
C29_6 C28_6 1_555 1_555
H23_6 C29_6 1_555 1_555
C30_6 N6_6 1_555 1_555
H24_6 C30_6 1_555 1_555
C4_6 C5_6 1_555 1_555
C5_6 C6_6 1_555 1_555
C9_6 C10_6 1_555 1_555
C14_6 C15_7 1_555 1_555
C15_7 C16_6 1_555 1_555
C19_6 C20_6 1_555 1_555
C24_6 C25_6 1_555 1_555
C25_6 C26_6 1_555 1_555
C29_6 C30_6 1_555 1_555
H14_7 C18_7 1_555 1_555
C19_7 C18_7 1_555 1_555
H15_7 C19_7 1_555 1_555
C21_7 N5_7 1_555 1_555
C22_7 C21_7 1_555 1_555
H18_7 C22_7 1_555 1_555
C23_7 C22_7 1_555 1_555
H19_7 C23_7 1_555 1_555
C24_7 C23_7 1_555 1_555
H20_7 C24_7 1_555 1_555
C25_7 N5_7 1_555 1_555
C27_7 C26_7 1_555 1_555
H21_7 C27_7 1_555 1_555
C28_7 C27_7 1_555 1_555
H22_7 C28_7 1_555 1_555
C24_7 C25_7 1_555 1_555
C25_7 C26_7 1_555 1_555
Co1_7 N1_7 1_555 1_555
N1_7 C1_7 1_555 1_555
N2_7 Co1_7 1_555 1_555
N3_7 Co1_7 1_555 1_555
N4_7 Co1_7 1_555 1_555
N6_7 Co1_7 1_555 1_555
C1_7 H1_7 1_555 1_555
C2_7 C1_7 1_555 1_555
H2_7 C2_7 1_555 1_555
C3_7 C2_7 1_555 1_555
H3_7 C3_7 1_555 1_555
C4_7 C3_7 1_555 1_555
H4_7 C4_7 1_555 1_555
C5_7 N1_7 1_555 1_555
C6_7 N2_7 1_555 1_555
C7_7 C6_7 1_555 1_555
H5_7 C7_7 1_555 1_555
C8_7 C7_7 1_555 1_555
H6_7 C8_7 1_555 1_555
C9_7 C8_7 1_555 1_555
H7_7 C9_7 1_555 1_555
C10_7 N2_7 1_555 1_555
H8_7 C10_7 1_555 1_555
C11_7 N3_7 1_555 1_555
H9_7 C11_7 1_555 1_555
C15_8 N3_7 1_555 1_555
C16_7 N4_7 1_555 1_555
C17_7 C16_7 1_555 1_555
C20_7 N4_7 1_555 1_555
H23_7 C29_7 1_555 1_555
C30_7 N6_7 1_555 1_555
H24_7 C30_7 1_555 1_555
C4_7 C5_7 1_555 1_555
C5_7 C6_7 1_555 1_555
C9_7 C10_7 1_555 1_555
C15_8 C16_7 1_555 1_555
C29_7 C30_7 1_555 1_555
H10_7 C12_7 1_555 1_555
C13_7 C12_7 1_555 1_555
H11_7 C13_7 1_555 1_555
C14_7 C13_7 1_555 1_555
H12_7 C14_7 1_555 1_555
C14_7 C15_9 1_555 1_555
H14_8 C18_8 1_555 1_555
C19_8 C18_8 1_555 1_555
H15_8 C19_8 1_555 1_555
C21_8 N5_8 1_555 1_555
C22_8 C21_8 1_555 1_555
H18_8 C22_8 1_555 1_555
C23_8 C22_8 1_555 1_555
H19_8 C23_8 1_555 1_555
C24_8 C23_8 1_555 1_555
H20_8 C24_8 1_555 1_555
C25_8 N5_8 1_555 1_555
C27_8 C26_8 1_555 1_555
H21_8 C27_8 1_555 1_555
C28_8 C27_8 1_555 1_555
H22_8 C28_8 1_555 1_555
C24_8 C25_8 1_555 1_555
C25_8 C26_8 1_555 1_555
Co1_8 N1_8 1_555 1_555
N1_8 C1_8 1_555 1_555
N2_8 Co1_8 1_555 1_555
N3_8 Co1_8 1_555 1_555
N4_8 Co1_8 1_555 1_555
N6_8 Co1_8 1_555 1_555
C1_8 H1_8 1_555 1_555
C2_8 C1_8 1_555 1_555
H2_8 C2_8 1_555 1_555
C3_8 C2_8 1_555 1_555
H3_8 C3_8 1_555 1_555
C4_8 C3_8 1_555 1_555
H4_8 C4_8 1_555 1_555
C5_8 N1_8 1_555 1_555
C6_8 N2_8 1_555 1_555
C7_8 C6_8 1_555 1_555
H5_8 C7_8 1_555 1_555
C8_8 C7_8 1_555 1_555
H6_8 C8_8 1_555 1_555
C9_8 C8_8 1_555 1_555
H7_8 C9_8 1_555 1_555
C10_8 N2_8 1_555 1_555
H8_8 C10_8 1_555 1_555
C11_8 N3_8 1_555 1_555
H9_8 C11_8 1_555 1_555
C12_8 C11_8 1_555 1_555
H10_8 C12_8 1_555 1_555
C13_8 C12_8 1_555 1_555
H11_8 C13_8 1_555 1_555
C14_8 C13_8 1_555 1_555
H12_8 C14_8 1_555 1_555
C15_10 N3_8 1_555 1_555
C16_8 N4_8 1_555 1_555
C17_8 C16_8 1_555 1_555
H13_8 C17_8 1_555 1_555
C20_8 N4_8 1_555 1_555
H23_8 C29_8 1_555 1_555
C30_8 N6_8 1_555 1_555
H24_8 C30_8 1_555 1_555
C4_8 C5_8 1_555 1_555
C5_8 C6_8 1_555 1_555
C9_8 C10_8 1_555 1_555
C14_8 C15_10 1_555 1_555
C15_10 C16_8 1_555 1_555
C29_8 C30_8 1_555 1_555
Co1_9 N1_9 1_555 1_555
N1_9 C1_9 1_555 1_555
N3_9 Co1_9 1_555 1_555
N5_9 Co1_9 1_555 1_555
N6_9 Co1_9 1_555 1_555
C1_9 H1_9 1_555 1_555
C2_9 C1_9 1_555 1_555
H2_9 C2_9 1_555 1_555
C3_9 C2_9 1_555 1_555
H3_9 C3_9 1_555 1_555
C4_9 C3_9 1_555 1_555
H4_9 C4_9 1_555 1_555
C5_9 N1_9 1_555 1_555
C7_9 C6_9 1_555 1_555
H5_9 C7_9 1_555 1_555
C11_9 N3_9 1_555 1_555
H9_9 C11_9 1_555 1_555
C12_9 C11_9 1_555 1_555
H10_9 C12_9 1_555 1_555
C13_9 C12_9 1_555 1_555
H11_9 C13_9 1_555 1_555
C21_9 N5_9 1_555 1_555
H17_9 C21_9 1_555 1_555
C22_9 C21_9 1_555 1_555
H18_9 C22_9 1_555 1_555
C23_9 C22_9 1_555 1_555
H19_9 C23_9 1_555 1_555
C24_9 C23_9 1_555 1_555
H20_9 C24_9 1_555 1_555
C25_9 N5_9 1_555 1_555
C26_9 N6_9 1_555 1_555
C27_9 C26_9 1_555 1_555
H21_9 C27_9 1_555 1_555
C4_9 C5_9 1_555 1_555
C5_9 C6_9 1_555 1_555
C24_9 C25_9 1_555 1_555
C25_9 C26_9 1_555 1_555
H6_9 C8_9 1_555 1_555
C9_9 C8_9 1_555 1_555
H7_9 C9_9 1_555 1_555
C10_9 N2_9 1_555 1_555
H8_9 C10_9 1_555 1_555
H12_9 C14_9 1_555 1_555
C16_9 N4_9 1_555 1_555
C17_9 C16_9 1_555 1_555
H13_9 C17_9 1_555 1_555
C18_9 C17_9 1_555 1_555
H14_9 C18_9 1_555 1_555
C19_9 C18_9 1_555 1_555
H15_9 C19_9 1_555 1_555
C20_9 N4_9 1_555 1_555
H16_9 C20_9 1_555 1_555
H22_9 C28_9 1_555 1_555
C29_9 C28_9 1_555 1_555
H23_9 C29_9 1_555 1_555
H24_9 C30_9 1_555 1_555
C9_9 C10_9 1_555 1_555
C14_9 C15_11 1_555 1_555
C15_11 C16_9 1_555 1_555
C19_9 C20_9 1_555 1_555
C29_9 C30_9 1_555 1_555
H6_10 C8_10 1_555 1_555
C9_10 C8_10 1_555 1_555
H7_10 C9_10 1_555 1_555
C10_10 N2_10 1_555 1_555
H8_10 C10_10 1_555 1_555
H12_10 C14_10 1_555 1_555
C16_10 N4_10 1_555 1_555
C17_10 C16_10 1_555 1_555
H13_10 C17_10 1_555 1_555
C18_10 C17_10 1_555 1_555
H14_10 C18_10 1_555 1_555
C19_10 C18_10 1_555 1_555
H15_10 C19_10 1_555 1_555
C20_10 N4_10 1_555 1_555
H16_10 C20_10 1_555 1_555
H22_10 C28_10 1_555 1_555
C29_10 C28_10 1_555 1_555
H23_10 C29_10 1_555 1_555
H24_10 C30_10 1_555 1_555
C9_10 C10_10 1_555 1_555
C14_10 C15_12 1_555 1_555
C15_12 C16_10 1_555 1_555
C19_10 C20_10 1_555 1_555
C29_10 C30_10 1_555 1_555
Co1_10 N1_10 1_555 1_555
N1_10 C1_10 1_555 1_555
N3_10 Co1_10 1_555 1_555
N5_10 Co1_10 1_555 1_555
N6_10 Co1_10 1_555 1_555
C1_10 H1_10 1_555 1_555
C2_10 C1_10 1_555 1_555
H2_10 C2_10 1_555 1_555
C3_10 C2_10 1_555 1_555
H3_10 C3_10 1_555 1_555
C4_10 C3_10 1_555 1_555
H4_10 C4_10 1_555 1_555
C5_10 N1_10 1_555 1_555
C7_10 C6_10 1_555 1_555
H5_10 C7_10 1_555 1_555
C11_10 N3_10 1_555 1_555
H9_10 C11_10 1_555 1_555
C12_10 C11_10 1_555 1_555
H10_10 C12_10 1_555 1_555
C13_10 C12_10 1_555 1_555
H11_10 C13_10 1_555 1_555
C21_10 N5_10 1_555 1_555
H17_10 C21_10 1_555 1_555
C22_10 C21_10 1_555 1_555
H18_10 C22_10 1_555 1_555
C23_10 C22_10 1_555 1_555
H19_10 C23_10 1_555 1_555
C24_10 C23_10 1_555 1_555
H20_10 C24_10 1_555 1_555
C25_10 N5_10 1_555 1_555
C26_10 N6_10 1_555 1_555
C27_10 C26_10 1_555 1_555
H21_10 C27_10 1_555 1_555
C4_10 C5_10 1_555 1_555
C5_10 C6_10 1_555 1_555
C24_10 C25_10 1_555 1_555
C25_10 C26_10 1_555 1_555
H14_11 C18_11 1_555 1_555
C19_11 C18_11 1_555 1_555
H15_11 C19_11 1_555 1_555
C21_11 N5_11 1_555 1_555
C22_11 C21_11 1_555 1_555
H18_11 C22_11 1_555 1_555
C23_11 C22_11 1_555 1_555
H19_11 C23_11 1_555 1_555
C24_11 C23_11 1_555 1_555
H20_11 C24_11 1_555 1_555
C25_11 N5_11 1_555 1_555
C27_11 C26_11 1_555 1_555
H21_11 C27_11 1_555 1_555
C28_11 C27_11 1_555 1_555
H22_11 C28_11 1_555 1_555
C24_11 C25_11 1_555 1_555
C25_11 C26_11 1_555 1_555
Co1_11 N1_11 1_555 1_555
N1_11 C1_11 1_555 1_555
N2_11 Co1_11 1_555 1_555
N3_11 Co1_11 1_555 1_555
N4_11 Co1_11 1_555 1_555
N6_11 Co1_11 1_555 1_555
C1_11 H1_11 1_555 1_555
C2_11 C1_11 1_555 1_555
H2_11 C2_11 1_555 1_555
C3_11 C2_11 1_555 1_555
H3_11 C3_11 1_555 1_555
C4_11 C3_11 1_555 1_555
H4_11 C4_11 1_555 1_555
C5_11 N1_11 1_555 1_555
C6_11 N2_11 1_555 1_555
C7_11 C6_11 1_555 1_555
H5_11 C7_11 1_555 1_555
C8_11 C7_11 1_555 1_555
H6_11 C8_11 1_555 1_555
C9_11 C8_11 1_555 1_555
H7_11 C9_11 1_555 1_555
C10_11 N2_11 1_555 1_555
H8_11 C10_11 1_555 1_555
C11_11 N3_11 1_555 1_555
H9_11 C11_11 1_555 1_555
C12_11 C11_11 1_555 1_555
H10_11 C12_11 1_555 1_555
C13_11 C12_11 1_555 1_555
H11_11 C13_11 1_555 1_555
C14_11 C13_11 1_555 1_555
H12_11 C14_11 1_555 1_555
C15_13 N3_11 1_555 1_555
C16_11 N4_11 1_555 1_555
C17_11 C16_11 1_555 1_555
H13_11 C17_11 1_555 1_555
C20_11 N4_11 1_555 1_555
H23_11 C29_11 1_555 1_555
C30_11 N6_11 1_555 1_555
H24_11 C30_11 1_555 1_555
C4_11 C5_11 1_555 1_555
C5_11 C6_11 1_555 1_555
C9_11 C10_11 1_555 1_555
C14_11 C15_13 1_555 1_555
C15_13 C16_11 1_555 1_555
C29_11 C30_11 1_555 1_555
H10_12 C12_12 1_555 1_555
C13_12 C12_12 1_555 1_555
H11_12 C13_12 1_555 1_555
C14_12 C13_12 1_555 1_555
H12_12 C14_12 1_555 1_555
C14_12 C15_14 1_555 1_555
H14_12 C18_12 1_555 1_555
C19_12 C18_12 1_555 1_555
H15_12 C19_12 1_555 1_555
C21_12 N5_12 1_555 1_555
C22_12 C21_12 1_555 1_555
H18_12 C22_12 1_555 1_555
C23_12 C22_12 1_555 1_555
H19_12 C23_12 1_555 1_555
C24_12 C23_12 1_555 1_555
H20_12 C24_12 1_555 1_555
C25_12 N5_12 1_555 1_555
C27_12 C26_12 1_555 1_555
H21_12 C27_12 1_555 1_555
C28_12 C27_12 1_555 1_555
H22_12 C28_12 1_555 1_555
C24_12 C25_12 1_555 1_555
C25_12 C26_12 1_555 1_555
Co1_12 N1_12 1_555 1_555
N1_12 C1_12 1_555 1_555
N2_12 Co1_12 1_555 1_555
N3_12 Co1_12 1_555 1_555
N4_12 Co1_12 1_555 1_555
N6_12 Co1_12 1_555 1_555
C1_12 H1_12 1_555 1_555
C2_12 C1_12 1_555 1_555
H2_12 C2_12 1_555 1_555
C3_12 C2_12 1_555 1_555
H3_12 C3_12 1_555 1_555
C4_12 C3_12 1_555 1_555
H4_12 C4_12 1_555 1_555
C5_12 N1_12 1_555 1_555
C6_12 N2_12 1_555 1_555
C7_12 C6_12 1_555 1_555
H5_12 C7_12 1_555 1_555
C8_12 C7_12 1_555 1_555
H6_12 C8_12 1_555 1_555
C9_12 C8_12 1_555 1_555
H7_12 C9_12 1_555 1_555
C10_12 N2_12 1_555 1_555
H8_12 C10_12 1_555 1_555
C11_12 N3_12 1_555 1_555
H9_12 C11_12 1_555 1_555
C15_15 N3_12 1_555 1_555
C16_12 N4_12 1_555 1_555
C17_12 C16_12 1_555 1_555
C20_12 N4_12 1_555 1_555
H23_12 C29_12 1_555 1_555
C30_12 N6_12 1_555 1_555
H24_12 C30_12 1_555 1_555
C4_12 C5_12 1_555 1_555
C5_12 C6_12 1_555 1_555
C9_12 C10_12 1_555 1_555
C15_15 C16_12 1_555 1_555
C29_12 C30_12 1_555 1_555
Co1_13 N1_13 1_555 1_555
N1_13 C1_13 1_555 1_555
N3_13 Co1_13 1_555 1_555
N5_13 Co1_13 1_555 1_555
N6_13 Co1_13 1_555 1_555
C1_13 H1_13 1_555 1_555
C2_13 C1_13 1_555 1_555
H2_13 C2_13 1_555 1_555
C11_13 N3_13 1_555 1_555
H9_13 C11_13 1_555 1_555
C12_13 C11_13 1_555 1_555
C13_13 C12_13 1_555 1_555
H11_13 C13_13 1_555 1_555
C21_13 N5_13 1_555 1_555
H17_13 C21_13 1_555 1_555
C22_13 C21_13 1_555 1_555
H18_13 C22_13 1_555 1_555
C23_13 C22_13 1_555 1_555
H19_13 C23_13 1_555 1_555
C24_13 C23_13 1_555 1_555
H20_13 C24_13 1_555 1_555
C25_13 N5_13 1_555 1_555
C26_13 N6_13 1_555 1_555
C27_13 C26_13 1_555 1_555
H21_13 C27_13 1_555 1_555
C24_13 C25_13 1_555 1_555
C25_13 C26_13 1_555 1_555
H3_13 C3_13 1_555 1_555
C4_13 C3_13 1_555 1_555
H4_13 C4_13 1_555 1_555
C7_13 C6_13 1_555 1_555
H5_13 C7_13 1_555 1_555
C4_13 C5_13 1_555 1_555
C5_13 C6_13 1_555 1_555
H12_13 C14_13 1_555 1_555
C16_13 N4_13 1_555 1_555
C17_13 C16_13 1_555 1_555
H13_13 C17_13 1_555 1_555
C18_13 C17_13 1_555 1_555
H14_13 C18_13 1_555 1_555
C19_13 C18_13 1_555 1_555
H15_13 C19_13 1_555 1_555
C20_13 N4_13 1_555 1_555
H16_13 C20_13 1_555 1_555
H22_13 C28_13 1_555 1_555
C29_13 C28_13 1_555 1_555
H23_13 C29_13 1_555 1_555
H24_13 C30_13 1_555 1_555
C14_13 C15_16 1_555 1_555
C15_16 C16_13 1_555 1_555
C19_13 C20_13 1_555 1_555
C29_13 C30_13 1_555 1_555
H6_13 C8_13 1_555 1_555
C9_13 C8_13 1_555 1_555
H7_13 C9_13 1_555 1_555
C9_13 C10_13 1_555 1_555
H12_14 C14_14 1_555 1_555
C16_14 N4_14 1_555 1_555
C17_14 C16_14 1_555 1_555
H13_14 C17_14 1_555 1_555
C18_14 C17_14 1_555 1_555
H14_14 C18_14 1_555 1_555
C19_14 C18_14 1_555 1_555
H15_14 C19_14 1_555 1_555
C20_14 N4_14 1_555 1_555
H16_14 C20_14 1_555 1_555
H22_14 C28_14 1_555 1_555
C29_14 C28_14 1_555 1_555
H23_14 C29_14 1_555 1_555
H24_14 C30_14 1_555 1_555
C14_14 C15_17 1_555 1_555
C15_17 C16_14 1_555 1_555
C19_14 C20_14 1_555 1_555
C29_14 C30_14 1_555 1_555
H6_14 C8_14 1_555 1_555
C9_14 C8_14 1_555 1_555
H7_14 C9_14 1_555 1_555
C9_14 C10_14 1_555 1_555
Co1_14 N1_14 1_555 1_555
N1_14 C1_14 1_555 1_555
N3_14 Co1_14 1_555 1_555
N5_14 Co1_14 1_555 1_555
N6_14 Co1_14 1_555 1_555
C1_14 H1_14 1_555 1_555
C2_14 C1_14 1_555 1_555
H2_14 C2_14 1_555 1_555
C11_14 N3_14 1_555 1_555
H9_14 C11_14 1_555 1_555
C12_14 C11_14 1_555 1_555
C13_14 C12_14 1_555 1_555
H11_14 C13_14 1_555 1_555
C21_14 N5_14 1_555 1_555
H17_14 C21_14 1_555 1_555
C22_14 C21_14 1_555 1_555
H18_14 C22_14 1_555 1_555
C23_14 C22_14 1_555 1_555
H19_14 C23_14 1_555 1_555
C24_14 C23_14 1_555 1_555
H20_14 C24_14 1_555 1_555
C25_14 N5_14 1_555 1_555
C26_14 N6_14 1_555 1_555
C27_14 C26_14 1_555 1_555
H21_14 C27_14 1_555 1_555
C24_14 C25_14 1_555 1_555
C25_14 C26_14 1_555 1_555
H3_14 C3_14 1_555 1_555
C4_14 C3_14 1_555 1_555
H4_14 C4_14 1_555 1_555
C7_14 C6_14 1_555 1_555
H5_14 C7_14 1_555 1_555
C4_14 C5_14 1_555 1_555
C5_14 C6_14 1_555 1_555
Co1_15 N1_15 1_555 1_555
N1_15 C1_15 1_555 1_555
N2_15 Co1_15 1_555 1_555
N3_15 Co1_15 1_555 1_555
N4_15 Co1_15 1_555 1_555
N5_15 Co1_15 1_555 1_555
N6_15 Co1_15 1_555 1_555
C1_15 H1_15 1_555 1_555
C2_15 C1_15 1_555 1_555
H2_15 C2_15 1_555 1_555
C3_15 C2_15 1_555 1_555
H3_15 C3_15 1_555 1_555
C4_15 C3_15 1_555 1_555
H4_15 C4_15 1_555 1_555
C5_15 N1_15 1_555 1_555
C6_15 N2_15 1_555 1_555
C7_15 C6_15 1_555 1_555
H5_15 C7_15 1_555 1_555
C8_15 C7_15 1_555 1_555
H6_15 C8_15 1_555 1_555
C9_15 C8_15 1_555 1_555
H7_15 C9_15 1_555 1_555
C10_15 N2_15 1_555 1_555
H8_15 C10_15 1_555 1_555
C11_15 N3_15 1_555 1_555
H9_15 C11_15 1_555 1_555
C15_18 N3_15 1_555 1_555
C16_15 N4_15 1_555 1_555
C17_15 C16_15 1_555 1_555
C18_15 C17_15 1_555 1_555
H14_15 C18_15 1_555 1_555
C19_15 C18_15 1_555 1_555
H15_15 C19_15 1_555 1_555
C20_15 N4_15 1_555 1_555
H16_15 C20_15 1_555 1_555
C21_15 N5_15 1_555 1_555
H17_15 C21_15 1_555 1_555
C22_15 C21_15 1_555 1_555
H18_15 C22_15 1_555 1_555
C23_15 C22_15 1_555 1_555
H19_15 C23_15 1_555 1_555
C24_15 C23_15 1_555 1_555
H20_15 C24_15 1_555 1_555
C25_15 N5_15 1_555 1_555
C26_15 N6_15 1_555 1_555
C27_15 C26_15 1_555 1_555
H21_15 C27_15 1_555 1_555
C28_15 C27_15 1_555 1_555
H22_15 C28_15 1_555 1_555
C29_15 C28_15 1_555 1_555
H23_15 C29_15 1_555 1_555
C30_15 N6_15 1_555 1_555
H24_15 C30_15 1_555 1_555
C4_15 C5_15 1_555 1_555
C5_15 C6_15 1_555 1_555
C9_15 C10_15 1_555 1_555
C15_18 C16_15 1_555 1_555
C19_15 C20_15 1_555 1_555
C24_15 C25_15 1_555 1_555
C25_15 C26_15 1_555 1_555
C29_15 C30_15 1_555 1_555
H10_15 C12_15 1_555 1_555
C13_15 C12_15 1_555 1_555
H11_15 C13_15 1_555 1_555
C14_15 C13_15 1_555 1_555
H12_15 C14_15 1_555 1_555
C14_15 C15_19 1_555 1_555
Co1_16 N1_16 1_555 1_555
N1_16 C1_16 1_555 1_555
N2_16 Co1_16 1_555 1_555
N3_16 Co1_16 1_555 1_555
N4_16 Co1_16 1_555 1_555
N5_16 Co1_16 1_555 1_555
N6_16 Co1_16 1_555 1_555
C1_16 H1_16 1_555 1_555
C2_16 C1_16 1_555 1_555
H2_16 C2_16 1_555 1_555
C3_16 C2_16 1_555 1_555
H3_16 C3_16 1_555 1_555
C4_16 C3_16 1_555 1_555
H4_16 C4_16 1_555 1_555
C5_16 N1_16 1_555 1_555
C6_16 N2_16 1_555 1_555
C7_16 C6_16 1_555 1_555
H5_16 C7_16 1_555 1_555
C8_16 C7_16 1_555 1_555
H6_16 C8_16 1_555 1_555
C9_16 C8_16 1_555 1_555
H7_16 C9_16 1_555 1_555
C10_16 N2_16 1_555 1_555
H8_16 C10_16 1_555 1_555
C11_16 N3_16 1_555 1_555
H9_16 C11_16 1_555 1_555
C12_16 C11_16 1_555 1_555
H10_16 C12_16 1_555 1_555
C13_16 C12_16 1_555 1_555
H11_16 C13_16 1_555 1_555
C14_16 C13_16 1_555 1_555
H12_16 C14_16 1_555 1_555
C15_20 N3_16 1_555 1_555
C16_16 N4_16 1_555 1_555
C17_16 C16_16 1_555 1_555
H13_16 C17_16 1_555 1_555
C18_16 C17_16 1_555 1_555
H14_16 C18_16 1_555 1_555
C19_16 C18_16 1_555 1_555
H15_16 C19_16 1_555 1_555
C20_16 N4_16 1_555 1_555
H16_16 C20_16 1_555 1_555
C21_16 N5_16 1_555 1_555
H17_16 C21_16 1_555 1_555
C22_16 C21_16 1_555 1_555
H18_16 C22_16 1_555 1_555
C23_16 C22_16 1_555 1_555
H19_16 C23_16 1_555 1_555
C24_16 C23_16 1_555 1_555
H20_16 C24_16 1_555 1_555
C25_16 N5_16 1_555 1_555
C26_16 N6_16 1_555 1_555
C27_16 C26_16 1_555 1_555
H21_16 C27_16 1_555 1_555
C28_16 C27_16 1_555 1_555
H22_16 C28_16 1_555 1_555
C29_16 C28_16 1_555 1_555
H23_16 C29_16 1_555 1_555
C30_16 N6_16 1_555 1_555
H24_16 C30_16 1_555 1_555
C4_16 C5_16 1_555 1_555
C5_16 C6_16 1_555 1_555
C9_16 C10_16 1_555 1_555
C14_16 C15_20 1_555 1_555
C15_20 C16_16 1_555 1_555
C19_16 C20_16 1_555 1_555
C24_16 C25_16 1_555 1_555
C25_16 C26_16 1_555 1_555
C29_16 C30_16 1_555 1_555
Mo1 O6 1_555 1_555
Mo2 O1 1_555 1_555
Mo3 O1 1_555 1_555
Mo4 O4 1_555 1_555
Mo5 O11 1_555 1_555
Mo6 O28 1_555 1_555
Mo7 O32 1_555 1_555
Mo8 O36 1_555 1_555
Ca1 O2 1_555 1_555
P1 O11 1_555 1_555
P2 O16 1_555 1_555
P3 O31 1_555 1_555
O2 H25 1_555 1_555
H26 O2 1_555 1_555
O3 Mo3 1_555 1_555
O5 Ca1 1_555 1_555
H27 O5 1_555 1_555
H28 O5 1_555 1_555
O7 Ca1 1_555 1_555
H29 O7 1_555 1_555
H30 O7 1_555 1_555
O8 Mo1 1_555 1_555
O9 Ca1 1_555 1_555
H31 O9 1_555 1_555
H32 O9 1_555 1_555
O10 Mo1 1_555 1_555
O11 Mo1 1_555 1_555
O12 Mo1 1_555 1_555
O13 Mo2 1_555 1_555
O14 Mo2 1_555 1_555
O15 Mo2 1_555 1_555
O16 Mo3 1_555 1_555
O17 Mo3 1_555 1_555
O18 Mo3 1_555 1_555
O19 Mo4 1_555 1_555
O20 Mo1 1_555 1_555
O21 Mo4 1_555 1_555
O22 Mo4 1_555 1_555
O23 Mo4 1_555 1_555
O24 Mo5 1_555 1_555
O25 Mo5 1_555 1_555
O26 P1 1_555 1_555
O27 Ca1 1_555 1_555
O28 Mo14 1_555 1_555
O29 Mo6 1_555 1_555
O30 Mo6 1_555 1_555
O31 Mo6 1_555 1_555
O32 Mo6 1_555 1_555
O33 P3 1_555 1_555
O34 Mo7 1_555 1_555
O35 Mo7 1_555 1_555
O36 Mo7 1_555 1_555
O37 Mo7 1_555 1_555
O38 Ca1 1_555 1_555
O39 Mo8 1_555 1_555
Mo9 O45 1_555 1_555
Mo10 O40 1_555 1_555
Mo11 O40 1_555 1_555
Mo12 O43 1_555 1_555
Mo13 O50 1_555 1_555
Mo14 O33 1_555 1_555
Mo15 O33 1_555 1_555
Ca2 O41 1_555 1_555
P4 O50 1_555 1_555
P5 O55 1_555 1_555
P6 O69 1_555 1_555
O41 H33 1_555 1_555
H34 O41 1_555 1_555
O42 Mo11 1_555 1_555
O44 Ca2 1_555 1_555
H35 O44 1_555 1_555
H36 O44 1_555 1_555
O46 Ca2 1_555 1_555
H37 O46 1_555 1_555
H38 O46 1_555 1_555
O47 Mo9 1_555 1_555
O48 Ca2 1_555 1_555
H39 O48 1_555 1_555
H40 O48 1_555 1_555
O49 Mo9 1_555 1_555
O50 Mo9 1_555 1_555
O51 Mo9 1_555 1_555
O52 Mo10 1_555 1_555
O53 Mo10 1_555 1_555
O54 Mo10 1_555 1_555
O55 Mo11 1_555 1_555
O56 Mo11 1_555 1_555
O57 Mo11 1_555 1_555
O58 Mo12 1_555 1_555
O59 Mo9 1_555 1_555
O60 Mo12 1_555 1_555
O61 Mo12 1_555 1_555
O62 Mo12 1_555 1_555
O63 Mo13 1_555 1_555
O64 Mo13 1_555 1_555
O65 P4 1_555 1_555
O66 Ca2 1_555 1_555
O67 Mo14 1_555 1_555
O68 Mo14 1_555 1_555
O69 Mo14 1_555 1_555
O70 Mo14 1_555 1_555
O71 Mo6 1_555 1_555
O72 Mo15 1_555 1_555
O73 Mo15 1_555 1_555
O74 Mo8 1_555 1_555
O75 Mo8 1_555 1_555
O76 Ca2 1_555 1_555
O77 Mo8 1_555 1_555
Ca3 O26 1_555 1_555
Ca4 O65 1_555 1_555
O78 Ca1 1_555 1_555
O79 Ca2 1_555 1_555
Mo2 O8 1_555 1_555
Mo2 O20 1_555 1_555
Mo3 O15 1_555 1_555
Mo4 O18 1_555 1_555
Mo5 O12 1_555 1_555
Mo5 O22 1_555 1_555
Mo5 O23 1_555 1_555
Mo7 O71 1_555 1_555
Mo8 O37 1_555 1_555
P1 O15 1_555 1_555
P1 O19 1_555 1_555
P2 O20 1_555 1_555
P2 O23 1_555 1_555
P2 O27 1_555 1_555
P3 O36 1_555 1_555
P3 O38 1_555 1_555
Mo10 O47 1_555 1_555
Mo10 O59 1_555 1_555
Mo11 O54 1_555 1_555
Mo12 O57 1_555 1_555
Mo13 O51 1_555 1_555
Mo13 O61 1_555 1_555
Mo13 O62 1_555 1_555
Mo15 O70 1_555 1_555
Mo15 O74 1_555 1_555
Mo15 O75 1_555 1_555
P4 O54 1_555 1_555
P4 O58 1_555 1_555
P5 O59 1_555 1_555
P5 O62 1_555 1_555
P5 O66 1_555 1_555
P6 O71 1_555 1_555
P6 O74 1_555 1_555
P6 O76 1_555 1_555
Mo1_2 O6_2 1_555 1_555
Mo2_2 O1_2 1_555 1_555
Mo3_2 O1_2 1_555 1_555
Mo4_2 O4_2 1_555 1_555
Mo5_2 O11_2 1_555 1_555
Mo8_2 O36_2 1_555 1_555
Ca1_2 O2_2 1_555 1_555
P1_2 O11_2 1_555 1_555
P2_2 O16_2 1_555 1_555
O2_2 H25_2 1_555 1_555
H26_2 O2_2 1_555 1_555
O3_2 Mo3_2 1_555 1_555
O5_2 Ca1_2 1_555 1_555
H27_2 O5_2 1_555 1_555
H28_2 O5_2 1_555 1_555
O7_2 Ca1_2 1_555 1_555
H29_2 O7_2 1_555 1_555
H30_2 O7_2 1_555 1_555
O8_2 Mo1_2 1_555 1_555
O9_2 Ca1_2 1_555 1_555
H31_2 O9_2 1_555 1_555
H32_2 O9_2 1_555 1_555
O10_2 Mo1_2 1_555 1_555
O11_2 Mo1_2 1_555 1_555
O12_2 Mo1_2 1_555 1_555
O13_2 Mo2_2 1_555 1_555
O14_2 Mo2_2 1_555 1_555
O15_2 Mo2_2 1_555 1_555
O16_2 Mo3_2 1_555 1_555
O17_2 Mo3_2 1_555 1_555
O18_2 Mo3_2 1_555 1_555
O19_2 Mo4_2 1_555 1_555
O20_2 Mo1_2 1_555 1_555
O21_2 Mo4_2 1_555 1_555
O22_2 Mo4_2 1_555 1_555
O23_2 Mo4_2 1_555 1_555
O24_2 Mo5_2 1_555 1_555
O25_2 Mo5_2 1_555 1_555
O78 P1_2 1_555 1_555
O27_2 Ca1_2 1_555 1_555
O33_2 P3_2 1_555 1_555
O34_2 Mo7_2 1_555 1_555
O35_2 Mo7_2 1_555 1_555
O36_2 Mo7_2 1_555 1_555
O37_2 Mo7_2 1_555 1_555
O38_2 Ca1_2 1_555 1_555
O39_2 Mo8_2 1_555 1_555
Mo9_2 O45_2 1_555 1_555
Mo10_2 O40_2 1_555 1_555
Mo11_2 O40_2 1_555 1_555
Mo12_2 O43_2 1_555 1_555
Mo13_2 O50_2 1_555 1_555
Mo15_2 O33_2 1_555 1_555
Ca2_2 O41_2 1_555 1_555
P4_2 O50_2 1_555 1_555
P5_2 O55_2 1_555 1_555
O41_2 H33_2 1_555 1_555
H34_2 O41_2 1_555 1_555
O42_2 Mo11_2 1_555 1_555
O44_2 Ca2_2 1_555 1_555
H35_2 O44_2 1_555 1_555
H36_2 O44_2 1_555 1_555
O46_2 Ca2_2 1_555 1_555
H37_2 O46_2 1_555 1_555
H38_2 O46_2 1_555 1_555
O47_2 Mo9_2 1_555 1_555
O48_2 Ca2_2 1_555 1_555
H39_2 O48_2 1_555 1_555
H40_2 O48_2 1_555 1_555
O49_2 Mo9_2 1_555 1_555
O50_2 Mo9_2 1_555 1_555
O51_2 Mo9_2 1_555 1_555
O52_2 Mo10_2 1_555 1_555
O53_2 Mo10_2 1_555 1_555
O54_2 Mo10_2 1_555 1_555
O55_2 Mo11_2 1_555 1_555
O56_2 Mo11_2 1_555 1_555
O57_2 Mo11_2 1_555 1_555
O58_2 Mo12_2 1_555 1_555
O59_2 Mo9_2 1_555 1_555
O60_2 Mo12_2 1_555 1_555
O61_2 Mo12_2 1_555 1_555
O62_2 Mo12_2 1_555 1_555
O63_2 Mo13_2 1_555 1_555
O64_2 Mo13_2 1_555 1_555
O65_2 P4_2 1_555 1_555
O66_2 Ca2_2 1_555 1_555
O72_2 Mo15_2 1_555 1_555
O73_2 Mo15_2 1_555 1_555
O74_2 Mo8_2 1_555 1_555
O75_2 Mo8_2 1_555 1_555
O76_2 Ca2_2 1_555 1_555
O77_2 Mo8_2 1_555 1_555
Ca4_2 O65_2 1_555 1_555
O78_2 Ca1_2 1_555 1_555
O79_2 Ca2_2 1_555 1_555
Mo2_2 O8_2 1_555 1_555
Mo2_2 O20_2 1_555 1_555
Mo3_2 O15_2 1_555 1_555
Mo4_2 O18_2 1_555 1_555
Mo5_2 O12_2 1_555 1_555
Mo5_2 O22_2 1_555 1_555
Mo5_2 O23_2 1_555 1_555
Mo7_2 O71_2 1_555 1_555
Mo8_2 O37_2 1_555 1_555
P1_2 O15_2 1_555 1_555
P1_2 O19_2 1_555 1_555
P2_2 O20_2 1_555 1_555
P2_2 O23_2 1_555 1_555
P2_2 O27_2 1_555 1_555
P3_2 O36_2 1_555 1_555
P3_2 O38_2 1_555 1_555
Mo10_2 O47_2 1_555 1_555
Mo10_2 O59_2 1_555 1_555
Mo11_2 O54_2 1_555 1_555
Mo12_2 O57_2 1_555 1_555
Mo13_2 O51_2 1_555 1_555
Mo13_2 O61_2 1_555 1_555
Mo13_2 O62_2 1_555 1_555
Mo15_2 O74_2 1_555 1_555
Mo15_2 O75_2 1_555 1_555
P4_2 O54_2 1_555 1_555
P4_2 O58_2 1_555 1_555
P5_2 O59_2 1_555 1_555
P5_2 O62_2 1_555 1_555
P5_2 O66_2 1_555 1_555
P6_2 O71_2 1_555 1_555
P6_2 O74_2 1_555 1_555
P6_2 O76_2 1_555 1_555
O28_2 Mo14_2 1_555 1_555
O33_3 P3_3 1_555 1_555
O38_3 Ca1_3 1_555 1_555
Mo9_3 O45_3 1_555 1_555
Mo14_2 O33_3 1_555 1_555
Mo15_3 O33_3 1_555 1_555
H36_3 O44_3 1_555 1_555
O47_3 Mo9_3 1_555 1_555
H39_3 O48_3 1_555 1_555
H40_3 O48_3 1_555 1_555
O49_3 Mo9_3 1_555 1_555
O51_3 Mo9_3 1_555 1_555
O52_3 Mo10_3 1_555 1_555
O53_3 Mo10_3 1_555 1_555
O59_3 Mo9_3 1_555 1_555
O67_2 Mo14_2 1_555 1_555
O68_2 Mo14_2 1_555 1_555
O69_2 Mo14_2 1_555 1_555
O70_2 Mo14_2 1_555 1_555
O72_3 Mo15_3 1_555 1_555
O73_3 Mo15_3 1_555 1_555
O74_3 Mo8_3 1_555 1_555
O75_3 Mo8_3 1_555 1_555
O78_3 Ca1_3 1_555 1_555
P3_3 O38_3 1_555 1_555
Mo10_3 O47_3 1_555 1_555
Mo10_3 O59_3 1_555 1_555
Mo15_3 O70_2 1_555 1_555
Mo15_3 O74_3 1_555 1_555
Mo15_3 O75_3 1_555 1_555
O2_3 H25_3 1_555 1_555
H26_3 O2_3 1_555 1_555
H29_3 O7_3 1_555 1_555
H30_3 O7_3 1_555 1_555
Mo11_3 O40_3 1_555 1_555
Mo12_3 O43_3 1_555 1_555
Mo13_3 O50_3 1_555 1_555
P4_3 O50_3 1_555 1_555
P5_3 O55_3 1_555 1_555
O42_3 Mo11_3 1_555 1_555
O55_3 Mo11_3 1_555 1_555
O56_3 Mo11_3 1_555 1_555
O57_3 Mo11_3 1_555 1_555
O58_3 Mo12_3 1_555 1_555
O60_3 Mo12_3 1_555 1_555
O61_3 Mo12_3 1_555 1_555
O62_3 Mo12_3 1_555 1_555
O63_3 Mo13_3 1_555 1_555
O65_3 P4_3 1_555 1_555
Ca4_3 O65_3 1_555 1_555
Mo11_3 O54_3 1_555 1_555
Mo12_3 O57_3 1_555 1_555
Mo13_3 O61_3 1_555 1_555
Mo13_3 O62_3 1_555 1_555
P4_3 O54_3 1_555 1_555
P4_3 O58_3 1_555 1_555
P5_3 O62_3 1_555 1_555
Mo1_3 O6_3 1_555 1_555
Mo6_2 O28_3 1_555 1_555
Mo7_3 O32_2 1_555 1_555
Mo8_4 O36_3 1_555 1_555
H28_3 O5_3 1_555 1_555
O8_3 Mo1_3 1_555 1_555
H31_3 O9_3 1_555 1_555
H32_3 O9_3 1_555 1_555
O10_3 Mo1_3 1_555 1_555
O12_3 Mo1_3 1_555 1_555
O13_3 Mo2_3 1_555 1_555
O14_3 Mo2_3 1_555 1_555
O20_3 Mo1_3 1_555 1_555
O29_2 Mo6_2 1_555 1_555
O30_2 Mo6_2 1_555 1_555
O31_2 Mo6_2 1_555 1_555
O32_2 Mo6_2 1_555 1_555
O34_3 Mo7_3 1_555 1_555
O35_3 Mo7_3 1_555 1_555
O36_3 Mo7_3 1_555 1_555
O37_3 Mo7_3 1_555 1_555
O71_3 Mo6_2 1_555 1_555
O76_3 Ca2_3 1_555 1_555
O79_3 Ca2_3 1_555 1_555
Mo2_3 O8_3 1_555 1_555
Mo2_3 O20_3 1_555 1_555
Mo7_3 O71_3 1_555 1_555
Mo8_4 O37_3 1_555 1_555
P6_3 O71_3 1_555 1_555
P6_3 O76_3 1_555 1_555
Mo3_3 O1_3 1_555 1_555
Mo4_3 O4_3 1_555 1_555
Mo5_3 O11_3 1_555 1_555
P1_3 O11_3 1_555 1_555
P2_3 O16_3 1_555 1_555
O3_3 Mo3_3 1_555 1_555
O16_3 Mo3_3 1_555 1_555
O17_3 Mo3_3 1_555 1_555
O18_3 Mo3_3 1_555 1_555
O19_3 Mo4_3 1_555 1_555
O21_3 Mo4_3 1_555 1_555
O22_3 Mo4_3 1_555 1_555
O23_3 Mo4_3 1_555 1_555
O24_3 Mo5_3 1_555 1_555
O78_2 P1_3 1_555 1_555
O41_3 H33_3 1_555 1_555
H34_3 O41_3 1_555 1_555
H37_3 O46_3 1_555 1_555
H38_3 O46_3 1_555 1_555
Mo3_3 O15_3 1_555 1_555
Mo4_3 O18_3 1_555 1_555
Mo5_3 O22_3 1_555 1_555
Mo5_3 O23_3 1_555 1_555
P1_3 O15_3 1_555 1_555
P1_3 O19_3 1_555 1_555
P2_3 O23_3 1_555 1_555
Mo1_4 O6_4 1_555 1_555
Mo2_4 O1_4 1_555 1_555
Mo3_4 O1_4 1_555 1_555
Mo5_4 O11_4 1_555 1_555
Mo6_3 O28_4 1_555 1_555
Mo7_4 O32_3 1_555 1_555
Mo8_5 O36_4 1_555 1_555
Ca3 O2_4 1_555 1_555
P1_4 O11_4 1_555 1_555
P2_4 O16_4 1_555 1_555
P3_4 O31_3 1_555 1_555
O2_4 H25_4 1_555 1_555
H26_4 O2_4 1_555 1_555
O3_4 Mo3_4 1_555 1_555
O5_4 Ca3 1_555 1_555
H27_4 O5_4 1_555 1_555
H28_4 O5_4 1_555 1_555
O7_4 Ca3 1_555 1_555
H29_4 O7_4 1_555 1_555
H30_4 O7_4 1_555 1_555
O8_4 Mo1_4 1_555 1_555
O9_4 Ca3 1_555 1_555
H31_4 O9_4 1_555 1_555
H32_4 O9_4 1_555 1_555
O10_4 Mo1_4 1_555 1_555
O11_4 Mo1_4 1_555 1_555
O12_4 Mo1_4 1_555 1_555
O13_4 Mo2_4 1_555 1_555
O14_4 Mo2_4 1_555 1_555
O15_4 Mo2_4 1_555 1_555
O16_4 Mo3_4 1_555 1_555
O17_4 Mo3_4 1_555 1_555
O20_4 Mo1_4 1_555 1_555
O24_4 Mo5_4 1_555 1_555
O25_4 Mo5_4 1_555 1_555
O78_3 P1_4 1_555 1_555
O27_4 Ca3 1_555 1_555
O28_4 Mo14_3 1_555 1_555
O29_3 Mo6_3 1_555 1_555
O30_3 Mo6_3 1_555 1_555
O31_3 Mo6_3 1_555 1_555
O32_3 Mo6_3 1_555 1_555
O33_4 P3_4 1_555 1_555
O34_4 Mo7_4 1_555 1_555
O35_4 Mo7_4 1_555 1_555
O36_4 Mo7_4 1_555 1_555
O37_4 Mo7_4 1_555 1_555
O38_4 Ca3 1_555 1_555
O39_4 Mo8_5 1_555 1_555
Mo9_4 O45_4 1_555 1_555
Mo10_4 O40_4 1_555 1_555
Mo11_4 O40_4 1_555 1_555
Mo13_4 O50_4 1_555 1_555
Mo14_3 O33_4 1_555 1_555
Mo15_4 O33_4 1_555 1_555
Ca2_4 O41_4 1_555 1_555
P4_4 O50_4 1_555 1_555
P5_4 O55_4 1_555 1_555
P6_4 O69_3 1_555 1_555
O41_4 H33_4 1_555 1_555
H34_4 O41_4 1_555 1_555
O42_4 Mo11_4 1_555 1_555
O44_4 Ca2_4 1_555 1_555
H35_4 O44_4 1_555 1_555
H36_4 O44_4 1_555 1_555
O46_4 Ca2_4 1_555 1_555
H37_4 O46_4 1_555 1_555
H38_4 O46_4 1_555 1_555
O47_4 Mo9_4 1_555 1_555
O48_4 Ca2_4 1_555 1_555
H39_4 O48_4 1_555 1_555
H40_4 O48_4 1_555 1_555
O49_4 Mo9_4 1_555 1_555
O50_4 Mo9_4 1_555 1_555
O51_4 Mo9_4 1_555 1_555
O52_4 Mo10_4 1_555 1_555
O53_4 Mo10_4 1_555 1_555
O54_4 Mo10_4 1_555 1_555
O55_4 Mo11_4 1_555 1_555
O56_4 Mo11_4 1_555 1_555
O59_4 Mo9_4 1_555 1_555
O63_4 Mo13_4 1_555 1_555
O64_4 Mo13_4 1_555 1_555
O65_4 P4_4 1_555 1_555
O66_4 Ca2_4 1_555 1_555
O67_3 Mo14_3 1_555 1_555
O68_3 Mo14_3 1_555 1_555
O69_3 Mo14_3 1_555 1_555
O70_3 Mo14_3 1_555 1_555
O71_4 Mo6_3 1_555 1_555
O72_4 Mo15_4 1_555 1_555
O73_4 Mo15_4 1_555 1_555
O74_4 Mo8_5 1_555 1_555
O75_4 Mo8_5 1_555 1_555
O76_4 Ca2_4 1_555 1_555
O77_4 Mo8_5 1_555 1_555
Ca4_4 O65_4 1_555 1_555
O79_4 Ca2_4 1_555 1_555
Mo2_4 O8_4 1_555 1_555
Mo2_4 O20_4 1_555 1_555
Mo3_4 O15_4 1_555 1_555
Mo5_4 O12_4 1_555 1_555
Mo5_4 O22_4 1_555 1_555
Mo5_4 O23_4 1_555 1_555
Mo7_4 O71_4 1_555 1_555
Mo8_5 O37_4 1_555 1_555
P1_4 O15_4 1_555 1_555
P1_4 O19_4 1_555 1_555
P2_4 O20_4 1_555 1_555
P2_4 O23_4 1_555 1_555
P2_4 O27_4 1_555 1_555
P3_4 O36_4 1_555 1_555
P3_4 O38_4 1_555 1_555
Mo10_4 O47_4 1_555 1_555
Mo10_4 O59_4 1_555 1_555
Mo11_4 O54_4 1_555 1_555
Mo13_4 O51_4 1_555 1_555
Mo13_4 O61_4 1_555 1_555
Mo13_4 O62_4 1_555 1_555
Mo15_4 O70_3 1_555 1_555
Mo15_4 O74_4 1_555 1_555
Mo15_4 O75_4 1_555 1_555
P4_4 O54_4 1_555 1_555
P4_4 O58_4 1_555 1_555
P5_4 O59_4 1_555 1_555
P5_4 O62_4 1_555 1_555
P5_4 O66_4 1_555 1_555
P6_4 O71_4 1_555 1_555
P6_4 O74_4 1_555 1_555
P6_4 O76_4 1_555 1_555
Mo1_5 O6_5 1_555 1_555
Mo6_4 O28_5 1_555 1_555
Mo7_5 O32_4 1_555 1_555
Mo8_6 O36_5 1_555 1_555
P3_5 O31_4 1_555 1_555
O5_5 Ca1_4 1_555 1_555
H28_5 O5_5 1_555 1_555
O8_5 Mo1_5 1_555 1_555
O9_5 Ca1_4 1_555 1_555
H31_5 O9_5 1_555 1_555
H32_5 O9_5 1_555 1_555
O10_5 Mo1_5 1_555 1_555
O12_5 Mo1_5 1_555 1_555
O13_5 Mo2_5 1_555 1_555
O14_5 Mo2_5 1_555 1_555
O20_5 Mo1_5 1_555 1_555
O30_4 Mo6_4 1_555 1_555
O31_4 Mo6_4 1_555 1_555
O32_4 Mo6_4 1_555 1_555
O33_5 P3_5 1_555 1_555
O35_5 Mo7_5 1_555 1_555
O36_5 Mo7_5 1_555 1_555
O38_5 Ca1_4 1_555 1_555
O75_5 Mo8_6 1_555 1_555
O78_4 Ca1_4 1_555 1_555
Mo2_5 O8_5 1_555 1_555
Mo2_5 O20_5 1_555 1_555
P3_5 O36_5 1_555 1_555
P3_5 O38_5 1_555 1_555
Mo3_5 O1_5 1_555 1_555
Mo4_4 O4_4 1_555 1_555
Mo5_5 O11_5 1_555 1_555
P1_5 O11_5 1_555 1_555
P2_5 O16_5 1_555 1_555
O2_5 H25_5 1_555 1_555
H26_5 O2_5 1_555 1_555
O3_5 Mo3_5 1_555 1_555
H29_5 O7_5 1_555 1_555
H30_5 O7_5 1_555 1_555
O16_5 Mo3_5 1_555 1_555
O17_5 Mo3_5 1_555 1_555
O18_4 Mo3_5 1_555 1_555
O19_5 Mo4_4 1_555 1_555
O21_4 Mo4_4 1_555 1_555
O22_5 Mo4_4 1_555 1_555
O23_5 Mo4_4 1_555 1_555
O24_5 Mo5_5 1_555 1_555
O25_5 Mo5_5 1_555 1_555
O26_2 P1_5 1_555 1_555
Ca3_2 O26_2 1_555 1_555
Mo3_5 O15_5 1_555 1_555
Mo4_4 O18_4 1_555 1_555
Mo5_5 O22_5 1_555 1_555
Mo5_5 O23_5 1_555 1_555
P1_5 O15_5 1_555 1_555
P1_5 O19_5 1_555 1_555
P2_5 O23_5 1_555 1_555
P2_5 O27_5 1_555 1_555
O28_6 Mo14_4 1_555 1_555
Mo9_5 O45_5 1_555 1_555
P6_5 O69_4 1_555 1_555
O44_5 Ca4_4 1_555 1_555
H36_5 O44_5 1_555 1_555
O47_5 Mo9_5 1_555 1_555
O48_5 Ca4_4 1_555 1_555
H39_5 O48_5 1_555 1_555
H40_5 O48_5 1_555 1_555
O49_5 Mo9_5 1_555 1_555
O51_5 Mo9_5 1_555 1_555
O52_5 Mo10_5 1_555 1_555
O53_5 Mo10_5 1_555 1_555
O59_5 Mo9_5 1_555 1_555
O68_4 Mo14_4 1_555 1_555
O69_4 Mo14_4 1_555 1_555
O70_4 Mo14_4 1_555 1_555
O73_5 Mo15_5 1_555 1_555
O74_5 Mo8_7 1_555 1_555
O76_5 Ca4_4 1_555 1_555
Mo8_7 O37_5 1_555 1_555
Mo10_5 O47_5 1_555 1_555
Mo10_5 O59_5 1_555 1_555
Mo15_5 O70_4 1_555 1_555
Mo15_5 O74_5 1_555 1_555
P6_5 O71_5 1_555 1_555
P6_5 O74_5 1_555 1_555
P6_5 O76_5 1_555 1_555
Mo11_5 O40_5 1_555 1_555
Mo12_4 O43_4 1_555 1_555
Mo13_5 O50_5 1_555 1_555
P4_5 O50_5 1_555 1_555
P5_5 O55_5 1_555 1_555
O41_5 H33_5 1_555 1_555
H34_5 O41_5 1_555 1_555
O42_5 Mo11_5 1_555 1_555
H37_5 O46_5 1_555 1_555
H38_5 O46_5 1_555 1_555
O55_5 Mo11_5 1_555 1_555
O56_5 Mo11_5 1_555 1_555
O57_4 Mo11_5 1_555 1_555
O58_5 Mo12_4 1_555 1_555
O60_4 Mo12_4 1_555 1_555
O61_5 Mo12_4 1_555 1_555
O62_5 Mo12_4 1_555 1_555
O63_5 Mo13_5 1_555 1_555
O64_5 Mo13_5 1_555 1_555
O79_2 P4_5 1_555 1_555
Mo11_5 O54_5 1_555 1_555
Mo12_4 O57_4 1_555 1_555
Mo13_5 O61_5 1_555 1_555
Mo13_5 O62_5 1_555 1_555
P4_5 O54_5 1_555 1_555
P4_5 O58_5 1_555 1_555
P5_5 O62_5 1_555 1_555
P5_5 O66_5 1_555 1_555
Mo1_6 O6_6 1_555 1_555
Mo2_6 O1_6 1_555 1_555
Mo3_6 O1_6 1_555 1_555
Mo5_6 O11_6 1_555 1_555
Mo6_5 O28_7 1_555 1_555
Mo7_6 O32_5 1_555 1_555
Mo8_8 O36_6 1_555 1_555
Ca1_5 O2_6 1_555 1_555
P1_6 O11_6 1_555 1_555
P2_6 O16_6 1_555 1_555
P3_6 O31_5 1_555 1_555
O2_6 H25_6 1_555 1_555
H26_6 O2_6 1_555 1_555
O3_6 Mo3_6 1_555 1_555
O5_6 Ca1_5 1_555 1_555
H27_6 O5_6 1_555 1_555
H28_6 O5_6 1_555 1_555
O7_6 Ca1_5 1_555 1_555
H29_6 O7_6 1_555 1_555
H30_6 O7_6 1_555 1_555
O8_6 Mo1_6 1_555 1_555
O9_6 Ca1_5 1_555 1_555
H31_6 O9_6 1_555 1_555
H32_6 O9_6 1_555 1_555
O10_6 Mo1_6 1_555 1_555
O11_6 Mo1_6 1_555 1_555
O12_6 Mo1_6 1_555 1_555
O13_6 Mo2_6 1_555 1_555
O14_6 Mo2_6 1_555 1_555
O15_6 Mo2_6 1_555 1_555
O16_6 Mo3_6 1_555 1_555
O17_6 Mo3_6 1_555 1_555
O20_6 Mo1_6 1_555 1_555
O24_6 Mo5_6 1_555 1_555
O25_6 Mo5_6 1_555 1_555
O78_4 P1_6 1_555 1_555
O27_6 Ca1_5 1_555 1_555
O28_7 Mo14_5 1_555 1_555
O29_5 Mo6_5 1_555 1_555
O30_5 Mo6_5 1_555 1_555
O31_5 Mo6_5 1_555 1_555
O32_5 Mo6_5 1_555 1_555
O33_6 P3_6 1_555 1_555
O34_6 Mo7_6 1_555 1_555
O35_6 Mo7_6 1_555 1_555
O36_6 Mo7_6 1_555 1_555
O37_6 Mo7_6 1_555 1_555
O38_6 Ca1_5 1_555 1_555
O39_6 Mo8_8 1_555 1_555
Mo9_6 O45_6 1_555 1_555
Mo10_6 O40_6 1_555 1_555
Mo11_6 O40_6 1_555 1_555
Mo13_6 O50_6 1_555 1_555
Mo14_5 O33_6 1_555 1_555
Mo15_6 O33_6 1_555 1_555
Ca4 O41_6 1_555 1_555
P4_6 O50_6 1_555 1_555
P5_6 O55_6 1_555 1_555
P6_6 O69_5 1_555 1_555
O41_6 H33_6 1_555 1_555
H34_6 O41_6 1_555 1_555
O42_6 Mo11_6 1_555 1_555
O44_6 Ca4 1_555 1_555
H35_6 O44_6 1_555 1_555
H36_6 O44_6 1_555 1_555
O46_6 Ca4 1_555 1_555
H37_6 O46_6 1_555 1_555
H38_6 O46_6 1_555 1_555
O47_6 Mo9_6 1_555 1_555
O48_6 Ca4 1_555 1_555
H39_6 O48_6 1_555 1_555
H40_6 O48_6 1_555 1_555
O49_6 Mo9_6 1_555 1_555
O50_6 Mo9_6 1_555 1_555
O51_6 Mo9_6 1_555 1_555
O52_6 Mo10_6 1_555 1_555
O53_6 Mo10_6 1_555 1_555
O54_6 Mo10_6 1_555 1_555
O55_6 Mo11_6 1_555 1_555
O56_6 Mo11_6 1_555 1_555
O59_6 Mo9_6 1_555 1_555
O63_6 Mo13_6 1_555 1_555
O64_6 Mo13_6 1_555 1_555
O79_3 P4_6 1_555 1_555
O66_6 Ca4 1_555 1_555
O67_5 Mo14_5 1_555 1_555
O68_5 Mo14_5 1_555 1_555
O69_5 Mo14_5 1_555 1_555
O70_5 Mo14_5 1_555 1_555
O71_6 Mo6_5 1_555 1_555
O72_6 Mo15_6 1_555 1_555
O73_6 Mo15_6 1_555 1_555
O74_6 Mo8_8 1_555 1_555
O75_6 Mo8_8 1_555 1_555
O76_6 Ca4 1_555 1_555
O77_6 Mo8_8 1_555 1_555
O78_5 Ca1_5 1_555 1_555
Mo2_6 O8_6 1_555 1_555
Mo2_6 O20_6 1_555 1_555
Mo3_6 O15_6 1_555 1_555
Mo5_6 O12_6 1_555 1_555
Mo5_6 O22_6 1_555 1_555
Mo5_6 O23_6 1_555 1_555
Mo7_6 O71_6 1_555 1_555
Mo8_8 O37_6 1_555 1_555
P1_6 O15_6 1_555 1_555
P1_6 O19_6 1_555 1_555
P2_6 O20_6 1_555 1_555
P2_6 O23_6 1_555 1_555
P2_6 O27_6 1_555 1_555
P3_6 O36_6 1_555 1_555
P3_6 O38_6 1_555 1_555
Mo10_6 O47_6 1_555 1_555
Mo10_6 O59_6 1_555 1_555
Mo11_6 O54_6 1_555 1_555
Mo13_6 O51_6 1_555 1_555
Mo13_6 O61_6 1_555 1_555
Mo13_6 O62_6 1_555 1_555
Mo15_6 O70_5 1_555 1_555
Mo15_6 O74_6 1_555 1_555
Mo15_6 O75_6 1_555 1_555
P4_6 O54_6 1_555 1_555
P4_6 O58_6 1_555 1_555
P5_6 O59_6 1_555 1_555
P5_6 O62_6 1_555 1_555
P5_6 O66_6 1_555 1_555
P6_6 O71_6 1_555 1_555
P6_6 O74_6 1_555 1_555
P6_6 O76_6 1_555 1_555
Ca1_6 O2_7 1_555 1_555
O2_7 H25_7 1_555 1_555
H26_7 O2_7 1_555 1_555
O7_7 Ca1_6 1_555 1_555
H29_7 O7_7 1_555 1_555
H30_7 O7_7 1_555 1_555
O27_7 Ca1_6 1_555 1_555
O33_7 P3_7 1_555 1_555
O38_7 Ca1_6 1_555 1_555
O75_7 Mo8_9 1_555 1_555
O78_6 Ca1_6 1_555 1_555
P3_7 O38_7 1_555 1_555
Mo1_7 O6_7 1_555 1_555
Mo2_7 O1_7 1_555 1_555
Mo3_7 O1_7 1_555 1_555
Mo4_5 O4_5 1_555 1_555
Mo5_7 O11_7 1_555 1_555
Mo6_6 O28_9 1_555 1_555
Mo7_7 O32_6 1_555 1_555
Mo8_10 O36_7 1_555 1_555
P1_7 O11_7 1_555 1_555
P2_7 O16_7 1_555 1_555
O3_7 Mo3_7 1_555 1_555
H27_7 O5_7 1_555 1_555
H28_7 O5_7 1_555 1_555
O8_7 Mo1_7 1_555 1_555
H31_7 O9_7 1_555 1_555
H32_7 O9_7 1_555 1_555
O10_7 Mo1_7 1_555 1_555
O11_7 Mo1_7 1_555 1_555
O12_7 Mo1_7 1_555 1_555
O13_7 Mo2_7 1_555 1_555
O14_7 Mo2_7 1_555 1_555
O15_7 Mo2_7 1_555 1_555
O16_7 Mo3_7 1_555 1_555
O17_7 Mo3_7 1_555 1_555
O18_5 Mo3_7 1_555 1_555
O19_7 Mo4_5 1_555 1_555
O20_7 Mo1_7 1_555 1_555
O21_5 Mo4_5 1_555 1_555
O22_7 Mo4_5 1_555 1_555
O23_7 Mo4_5 1_555 1_555
O24_7 Mo5_7 1_555 1_555
O78_5 P1_7 1_555 1_555
O30_6 Mo6_6 1_555 1_555
O31_6 Mo6_6 1_555 1_555
O32_6 Mo6_6 1_555 1_555
O35_7 Mo7_7 1_555 1_555
O36_7 Mo7_7 1_555 1_555
O77_7 Mo8_10 1_555 1_555
Mo2_7 O8_7 1_555 1_555
Mo2_7 O20_7 1_555 1_555
Mo3_7 O15_7 1_555 1_555
Mo4_5 O18_5 1_555 1_555
Mo5_7 O12_7 1_555 1_555
Mo5_7 O22_7 1_555 1_555
Mo5_7 O23_7 1_555 1_555
P1_7 O15_7 1_555 1_555
P1_7 O19_7 1_555 1_555
P2_7 O20_7 1_555 1_555
P2_7 O23_7 1_555 1_555
O28_10 Mo14_6 1_555 1_555
O39_7 Mo8_11 1_555 1_555
Mo9_7 O45_7 1_555 1_555
Mo10_7 O40_7 1_555 1_555
Mo11_7 O40_7 1_555 1_555
Mo12_5 O43_5 1_555 1_555
Mo13_7 O50_7 1_555 1_555
P4_7 O50_7 1_555 1_555
P5_7 O55_7 1_555 1_555
O42_7 Mo11_7 1_555 1_555
H35_7 O44_7 1_555 1_555
H36_7 O44_7 1_555 1_555
O47_7 Mo9_7 1_555 1_555
H39_7 O48_7 1_555 1_555
H40_7 O48_7 1_555 1_555
O49_7 Mo9_7 1_555 1_555
O50_7 Mo9_7 1_555 1_555
O51_7 Mo9_7 1_555 1_555
O52_7 Mo10_7 1_555 1_555
O53_7 Mo10_7 1_555 1_555
O54_7 Mo10_7 1_555 1_555
O55_7 Mo11_7 1_555 1_555
O56_7 Mo11_7 1_555 1_555
O57_5 Mo11_7 1_555 1_555
O58_7 Mo12_5 1_555 1_555
O59_7 Mo9_7 1_555 1_555
O60_5 Mo12_5 1_555 1_555
O61_7 Mo12_5 1_555 1_555
O62_7 Mo12_5 1_555 1_555
O63_7 Mo13_7 1_555 1_555
O79_4 P4_7 1_555 1_555
O68_6 Mo14_6 1_555 1_555
O69_6 Mo14_6 1_555 1_555
O70_6 Mo14_6 1_555 1_555
O73_7 Mo15_7 1_555 1_555
O74_7 Mo8_11 1_555 1_555
Mo10_7 O47_7 1_555 1_555
Mo10_7 O59_7 1_555 1_555
Mo11_7 O54_7 1_555 1_555
Mo12_5 O57_5 1_555 1_555
Mo13_7 O51_7 1_555 1_555
Mo13_7 O61_7 1_555 1_555
Mo13_7 O62_7 1_555 1_555
Mo15_7 O70_6 1_555 1_555
Mo15_7 O74_7 1_555 1_555
P4_7 O54_7 1_555 1_555
P4_7 O58_7 1_555 1_555
P5_7 O59_7 1_555 1_555
P5_7 O62_7 1_555 1_555
Ca4_2 O41_7 1_555 1_555
O41_7 H33_7 1_555 1_555
H34_7 O41_7 1_555 1_555
O46_7 Ca4_2 1_555 1_555
H37_7 O46_7 1_555 1_555
H38_7 O46_7 1_555 1_555
O66_7 Ca4_2 1_555 1_555
O76_7 Ca4_2 1_555 1_555
Mo8_12 O37_7 1_555 1_555
P6_7 O71_7 1_555 1_555
P6_7 O76_7 1_555 1_555
Mo1_8 O6_8 1_555 1_555
Mo2_8 O1_8 1_555 1_555
Mo3_8 O1_8 1_555 1_555
Mo4_6 O4_6 1_555 1_555
Mo5_8 O11_8 1_555 1_555
Mo8_13 O36_8 1_555 1_555
Ca3_2 O2_8 1_555 1_555
P1_8 O11_8 1_555 1_555
P2_8 O16_8 1_555 1_555
O2_8 H25_8 1_555 1_555
H26_8 O2_8 1_555 1_555
O3_8 Mo3_8 1_555 1_555
O5_8 Ca3_2 1_555 1_555
H27_8 O5_8 1_555 1_555
H28_8 O5_8 1_555 1_555
O7_8 Ca3_2 1_555 1_555
H29_8 O7_8 1_555 1_555
H30_8 O7_8 1_555 1_555
O8_8 Mo1_8 1_555 1_555
O9_8 Ca3_2 1_555 1_555
H31_8 O9_8 1_555 1_555
H32_8 O9_8 1_555 1_555
O10_8 Mo1_8 1_555 1_555
O11_8 Mo1_8 1_555 1_555
O12_8 Mo1_8 1_555 1_555
O13_8 Mo2_8 1_555 1_555
O14_8 Mo2_8 1_555 1_555
O15_8 Mo2_8 1_555 1_555
O16_8 Mo3_8 1_555 1_555
O17_8 Mo3_8 1_555 1_555
O18_6 Mo3_8 1_555 1_555
O19_8 Mo4_6 1_555 1_555
O20_8 Mo1_8 1_555 1_555
O21_6 Mo4_6 1_555 1_555
O22_8 Mo4_6 1_555 1_555
O23_8 Mo4_6 1_555 1_555
O24_8 Mo5_8 1_555 1_555
O25_8 Mo5_8 1_555 1_555
O78_6 P1_8 1_555 1_555
O27_8 Ca3_2 1_555 1_555
O33_8 P3_8 1_555 1_555
O34_8 Mo7_8 1_555 1_555
O35_8 Mo7_8 1_555 1_555
O36_8 Mo7_8 1_555 1_555
O37_8 Mo7_8 1_555 1_555
O38_8 Ca3_2 1_555 1_555
O39_8 Mo8_13 1_555 1_555
Mo9_8 O45_8 1_555 1_555
Mo10_8 O40_8 1_555 1_555
Mo11_8 O40_8 1_555 1_555
Mo12_6 O43_6 1_555 1_555
Mo13_8 O50_8 1_555 1_555
Mo15_8 O33_8 1_555 1_555
Ca4_3 O41_8 1_555 1_555
P4_8 O50_8 1_555 1_555
P5_8 O55_8 1_555 1_555
O41_8 H33_8 1_555 1_555
H34_8 O41_8 1_555 1_555
O42_8 Mo11_8 1_555 1_555
O44_8 Ca4_3 1_555 1_555
H35_8 O44_8 1_555 1_555
H36_8 O44_8 1_555 1_555
O46_8 Ca4_3 1_555 1_555
H37_8 O46_8 1_555 1_555
H38_8 O46_8 1_555 1_555
O47_8 Mo9_8 1_555 1_555
O48_8 Ca4_3 1_555 1_555
H39_8 O48_8 1_555 1_555
H40_8 O48_8 1_555 1_555
O49_8 Mo9_8 1_555 1_555
O50_8 Mo9_8 1_555 1_555
O51_8 Mo9_8 1_555 1_555
O52_8 Mo10_8 1_555 1_555
O53_8 Mo10_8 1_555 1_555
O54_8 Mo10_8 1_555 1_555
O55_8 Mo11_8 1_555 1_555
O56_8 Mo11_8 1_555 1_555
O57_6 Mo11_8 1_555 1_555
O58_8 Mo12_6 1_555 1_555
O59_8 Mo9_8 1_555 1_555
O60_6 Mo12_6 1_555 1_555
O61_8 Mo12_6 1_555 1_555
O62_8 Mo12_6 1_555 1_555
O63_8 Mo13_8 1_555 1_555
O64_8 Mo13_8 1_555 1_555
O79 P4_8 1_555 1_555
O66_8 Ca4_3 1_555 1_555
O72_8 Mo15_8 1_555 1_555
O73_8 Mo15_8 1_555 1_555
O74_8 Mo8_13 1_555 1_555
O75_8 Mo8_13 1_555 1_555
O76_8 Ca4_3 1_555 1_555
O77_8 Mo8_13 1_555 1_555
Mo2_8 O8_8 1_555 1_555
Mo2_8 O20_8 1_555 1_555
Mo3_8 O15_8 1_555 1_555
Mo4_6 O18_6 1_555 1_555
Mo5_8 O12_8 1_555 1_555
Mo5_8 O22_8 1_555 1_555
Mo5_8 O23_8 1_555 1_555
Mo7_8 O71_8 1_555 1_555
Mo8_13 O37_8 1_555 1_555
P1_8 O15_8 1_555 1_555
P1_8 O19_8 1_555 1_555
P2_8 O20_8 1_555 1_555
P2_8 O23_8 1_555 1_555
P2_8 O27_8 1_555 1_555
P3_8 O36_8 1_555 1_555
P3_8 O38_8 1_555 1_555
Mo10_8 O47_8 1_555 1_555
Mo10_8 O59_8 1_555 1_555
Mo11_8 O54_8 1_555 1_555
Mo12_6 O57_6 1_555 1_555
Mo13_8 O51_8 1_555 1_555
Mo13_8 O61_8 1_555 1_555
Mo13_8 O62_8 1_555 1_555
Mo15_8 O74_8 1_555 1_555
Mo15_8 O75_8 1_555 1_555
P4_8 O54_8 1_555 1_555
P4_8 O58_8 1_555 1_555
P5_8 O59_8 1_555 1_555
P5_8 O62_8 1_555 1_555
P5_8 O66_8 1_555 1_555
P6_8 O71_8 1_555 1_555
P6_8 O74_8 1_555 1_555
P6_8 O76_8 1_555 1_555
Mo6_7 O28_12 1_555 1_555
O28_12 Mo14_7 1_555 1_555
O29_7 Mo6_7 1_555 1_555
O30_7 Mo6_7 1_555 1_555
O31_7 Mo6_7 1_555 1_555
O32_7 Mo6_7 1_555 1_555
O67_7 Mo14_7 1_555 1_555
O68_7 Mo14_7 1_555 1_555
O69_7 Mo14_7 1_555 1_555
O70_7 Mo14_7 1_555 1_555
Mo4_7 O4_7 1_555 1_555
O21_7 Mo4_7 1_555 1_555
Mo12_7 O43_7 1_555 1_555
O60_7 Mo12_7 1_555 1_555
Mo4_7 O18_7 1_555 1_555
Mo12_7 O57_7 1_555 1_555
Mo4_8 O4_8 1_555 1_555
O21_8 Mo4_8 1_555 1_555
Mo12_8 O43_8 1_555 1_555
O60_8 Mo12_8 1_555 1_555
Mo4_8 O18_8 1_555 1_555
Mo12_8 O57_8 1_555 1_555
Mo6_8 O28_13 1_555 1_555
O28_13 Mo14_8 1_555 1_555
O29_8 Mo6_8 1_555 1_555
O30_8 Mo6_8 1_555 1_555
O31_8 Mo6_8 1_555 1_555
O32_8 Mo6_8 1_555 1_555
O67_8 Mo14_8 1_555 1_555
O68_8 Mo14_8 1_555 1_555
O69_8 Mo14_8 1_555 1_555
O70_8 Mo14_8 1_555 1_555
N7 H41 1_555 1_555
H42 N7 1_555 1_555
H43 N7 1_555 1_555
H44 N7 1_555 1_555
N7_2 H41_2 1_555 1_555
H42_2 N7_2 1_555 1_555
H43_2 N7_2 1_555 1_555
H44_2 N7_2 1_555 1_555
N7_3 H41_3 1_555 1_555
H42_3 N7_3 1_555 1_555
H43_3 N7_3 1_555 1_555
H44_3 N7_3 1_555 1_555
N7_4 H41_4 1_555 1_555
H42_4 N7_4 1_555 1_555
H43_4 N7_4 1_555 1_555
H44_4 N7_4 1_555 1_555
N7_5 H41_5 1_555 1_555
H42_5 N7_5 1_555 1_555
H44_5 N7_5 1_555 1_555
N7_6 H41_6 1_555 1_555
H42_6 N7_6 1_555 1_555
H44_6 N7_6 1_555 1_555
N7_7 H41_7 1_555 1_555
H42_7 N7_7 1_555 1_555
H43_7 N7_7 1_555 1_555
H44_7 N7_7 1_555 1_555
N7_8 H41_8 1_555 1_555
H42_8 N7_8 1_555 1_555
H43_8 N7_8 1_555 1_555
H44_8 N7_8 1_555 1_555
N7_9 H41_9 1_555 1_555
H42_9 N7_9 1_555 1_555
H43_9 N7_9 1_555 1_555
H44_9 N7_9 1_555 1_555
N7_10 H41_10 1_555 1_555
H42_10 N7_10 1_555 1_555
H43_10 N7_10 1_555 1_555
H44_10 N7_10 1_555 1_555
N7_11 H41_11 1_555 1_555
H42_11 N7_11 1_555 1_555
H43_11 N7_11 1_555 1_555
H44_11 N7_11 1_555 1_555
N7_12 H41_12 1_555 1_555
H42_12 N7_12 1_555 1_555
H43_12 N7_12 1_555 1_555
H44_12 N7_12 1_555 1_555
N7_13 H41_13 1_555 1_555
H42_13 N7_13 1_555 1_555
H44_13 N7_13 1_555 1_555
N7_14 H41_14 1_555 1_555
H42_14 N7_14 1_555 1_555
H44_14 N7_14 1_555 1_555
N7_15 H41_15 1_555 1_555
H42_15 N7_15 1_555 1_555
H43_15 N7_15 1_555 1_555
H44_15 N7_15 1_555 1_555
N7_16 H41_16 1_555 1_555
H42_16 N7_16 1_555 1_555
H43_16 N7_16 1_555 1_555
H44_16 N7_16 1_555 1_555
N8 H45 1_555 1_555
H46 N8 1_555 1_555
H47 N8 1_555 1_555
H48 N8 1_555 1_555
N8_2 H45_2 1_555 1_555
H46_2 N8_2 1_555 1_555
H47_2 N8_2 1_555 1_555
H48_2 N8_2 1_555 1_555
N8_3 H45_3 1_555 1_555
H46_3 N8_3 1_555 1_555
H47_3 N8_3 1_555 1_555
H48_3 N8_3 1_555 1_555
N8_4 H45_4 1_555 1_555
H46_4 N8_4 1_555 1_555
H47_4 N8_4 1_555 1_555
H48_4 N8_4 1_555 1_555
H46_5 N8_5 1_555 1_555
H48_5 N8_5 1_555 1_555
H46_6 N8_6 1_555 1_555
H48_6 N8_6 1_555 1_555
N8_7 H45_7 1_555 1_555
H46_7 N8_7 1_555 1_555
H47_7 N8_7 1_555 1_555
H48_7 N8_7 1_555 1_555
N8_8 H45_8 1_555 1_555
H46_8 N8_8 1_555 1_555
H47_8 N8_8 1_555 1_555
H48_8 N8_8 1_555 1_555
H46_9 N8_9 1_555 1_555
H48_9 N8_9 1_555 1_555
H46_10 N8_10 1_555 1_555
H48_10 N8_10 1_555 1_555
N8_11 H45_11 1_555 1_555
H46_11 N8_11 1_555 1_555
H47_11 N8_11 1_555 1_555
H48_11 N8_11 1_555 1_555
N8_12 H45_12 1_555 1_555
H46_12 N8_12 1_555 1_555
H47_12 N8_12 1_555 1_555
H48_12 N8_12 1_555 1_555
N8_13 H45_13 1_555 1_555
H46_13 N8_13 1_555 1_555
H47_13 N8_13 1_555 1_555
H48_13 N8_13 1_555 1_555
N8_14 H45_14 1_555 1_555
H46_14 N8_14 1_555 1_555
H47_14 N8_14 1_555 1_555
H48_14 N8_14 1_555 1_555
N8_15 H45_15 1_555 1_555
H46_15 N8_15 1_555 1_555
H47_15 N8_15 1_555 1_555
H48_15 N8_15 1_555 1_555
N8_16 H45_16 1_555 1_555
H46_16 N8_16 1_555 1_555
H47_16 N8_16 1_555 1_555
H48_16 N8_16 1_555 1_555
N9 H49 1_555 1_555
H50 N9 1_555 1_555
H51 N9 1_555 1_555
H52 N9 1_555 1_555
N9_2 H49_2 1_555 1_555
H50_2 N9_2 1_555 1_555
H51_2 N9_2 1_555 1_555
H52_2 N9_2 1_555 1_555
N9_3 H49_3 1_555 1_555
H50_3 N9_3 1_555 1_555
H51_3 N9_3 1_555 1_555
N9_4 H49_4 1_555 1_555
H50_4 N9_4 1_555 1_555
H51_4 N9_4 1_555 1_555
N9_5 H49_5 1_555 1_555
H50_5 N9_5 1_555 1_555
H51_5 N9_5 1_555 1_555
H52_5 N9_5 1_555 1_555
N9_6 H49_6 1_555 1_555
H50_6 N9_6 1_555 1_555
H51_6 N9_6 1_555 1_555
H52_6 N9_6 1_555 1_555
N9_7 H49_7 1_555 1_555
H50_7 N9_7 1_555 1_555
H51_7 N9_7 1_555 1_555
H52_7 N9_7 1_555 1_555
N9_8 H49_8 1_555 1_555
H50_8 N9_8 1_555 1_555
H51_8 N9_8 1_555 1_555
H52_8 N9_8 1_555 1_555
N9_9 H49_9 1_555 1_555
H50_9 N9_9 1_555 1_555
H51_9 N9_9 1_555 1_555
H52_9 N9_9 1_555 1_555
N9_10 H49_10 1_555 1_555
H50_10 N9_10 1_555 1_555
H51_10 N9_10 1_555 1_555
H52_10 N9_10 1_555 1_555
N9_11 H49_11 1_555 1_555
H50_11 N9_11 1_555 1_555
H51_11 N9_11 1_555 1_555
H52_11 N9_11 1_555 1_555
N9_12 H49_12 1_555 1_555
H50_12 N9_12 1_555 1_555
H51_12 N9_12 1_555 1_555
H52_12 N9_12 1_555 1_555
N9_13 H49_13 1_555 1_555
H50_13 N9_13 1_555 1_555
H51_13 N9_13 1_555 1_555
H52_13 N9_13 1_555 1_555
N9_14 H49_14 1_555 1_555
H50_14 N9_14 1_555 1_555
H51_14 N9_14 1_555 1_555
H52_14 N9_14 1_555 1_555
N9_15 H49_15 1_555 1_555
H50_15 N9_15 1_555 1_555
H51_15 N9_15 1_555 1_555
N9_16 H49_16 1_555 1_555
H50_16 N9_16 1_555 1_555
H51_16 N9_16 1_555 1_555
N10 H53 1_555 1_555
H54 N10 1_555 1_555
H55 N10 1_555 1_555
H56 N10 1_555 1_555
N10_2 H53_2 1_555 1_555
H54_2 N10_2 1_555 1_555
H55_2 N10_2 1_555 1_555
H56_2 N10_2 1_555 1_555
N10_3 H53_3 1_555 1_555
H54_3 N10_3 1_555 1_555
H55_3 N10_3 1_555 1_555
H56_3 N10_3 1_555 1_555
N10_4 H53_4 1_555 1_555
H54_4 N10_4 1_555 1_555
H55_4 N10_4 1_555 1_555
H56_4 N10_4 1_555 1_555
N10_5 H53_5 1_555 1_555
H54_5 N10_5 1_555 1_555
H55_5 N10_5 1_555 1_555
H56_5 N10_5 1_555 1_555
N10_6 H53_6 1_555 1_555
H54_6 N10_6 1_555 1_555
H55_6 N10_6 1_555 1_555
H56_6 N10_6 1_555 1_555
N10_7 H53_7 1_555 1_555
H54_7 N10_7 1_555 1_555
H55_7 N10_7 1_555 1_555
H56_7 N10_7 1_555 1_555
N10_8 H53_8 1_555 1_555
H54_8 N10_8 1_555 1_555
H55_8 N10_8 1_555 1_555
H56_8 N10_8 1_555 1_555
N10_9 H53_9 1_555 1_555
H54_9 N10_9 1_555 1_555
H55_9 N10_9 1_555 1_555
H56_9 N10_9 1_555 1_555
N10_10 H53_10 1_555 1_555
H54_10 N10_10 1_555 1_555
H55_10 N10_10 1_555 1_555
H56_10 N10_10 1_555 1_555
N10_11 H53_11 1_555 1_555
H54_11 N10_11 1_555 1_555
H55_11 N10_11 1_555 1_555
H56_11 N10_11 1_555 1_555
N10_12 H53_12 1_555 1_555
H54_12 N10_12 1_555 1_555
H55_12 N10_12 1_555 1_555
H56_12 N10_12 1_555 1_555
N10_13 H53_13 1_555 1_555
H54_13 N10_13 1_555 1_555
H55_13 N10_13 1_555 1_555
H56_13 N10_13 1_555 1_555
N10_14 H53_14 1_555 1_555
H54_14 N10_14 1_555 1_555
H55_14 N10_14 1_555 1_555
H56_14 N10_14 1_555 1_555
N10_15 H53_15 1_555 1_555
H54_15 N10_15 1_555 1_555
H55_15 N10_15 1_555 1_555
H56_15 N10_15 1_555 1_555
N10_16 H53_16 1_555 1_555
H54_16 N10_16 1_555 1_555
H55_16 N10_16 1_555 1_555
H56_16 N10_16 1_555 1_555

#END
