
###############################################################################
#
# This file contains modified crystal structure data generated from the
# MOF subset of the Cambridge Structural Database (CSD) v543 
# hosted by the Cambridge Crystallographic Data Centre (CCDC).
#
# This work is licensed under the Creative Commons
# Attribution-NonCommercial-ShareAlike 4.0 International License.
# To view a copy of this license, visit
# http://creativecommons.org/licenses/by-nc-sa/4.0/
# or send a letter to
# Creative Commons, PO Box 1866, Mountain View, CA 94042, USA.
#
# CIF created using the CSD Python API on 29 September 2022
# The structure has been converted into the P1 space group
# The structure has a 3D framework
# The original CSD entry QEPBEV is in the tetragonal crystal system
# The framework has been calculated to contain at least 10.0% void space
# The void calculation uses a probe of radius 1.32A, grid spacing 0.4
#
###############################################################################

data_QEPBEV
_chemical_formula_moiety         '(C224 H336 Cu12 I10 O28 S16 Si16)n'
_symmetry_cell_setting           triclinic
_symmetry_space_group_name_H-M   'P 1'
_symmetry_Int_Tables_number      1
_space_group_name_Hall           'P 1'
loop_
_symmetry_equiv_pos_site_id
_symmetry_equiv_pos_as_xyz
1 x,y,z
_cell_length_a                   16.910(3)
_cell_length_b                   16.910(3)
_cell_length_c                   29.350(5)
_cell_angle_alpha                90
_cell_angle_beta                 90
_cell_angle_gamma                90
_cell_volume                     8392.58
loop_
_atom_site_label
_atom_site_type_symbol
_atom_site_fract_x
_atom_site_fract_y
_atom_site_fract_z
C29 C 0.0125(6) 0.3387(6) 0.3799(3)
H43 H 0.0665 0.3580 0.3794
C30 C 0.0051(7) 0.2761(5) 0.4160(3)
H46 H 0.0132 0.3003 0.4456
C31 C 0.0664(5) 0.2050(5) 0.4101(3)
H47 H 0.1194 0.2233 0.4170
H48 H 0.0658 0.1868 0.3787
O5 O 0.0505(5) 0.1517(4) 0.5000
Si3 Si 0.04072(11) 0.12413(11) 0.44760(6)
C57 C 0.0125(6) 0.3387(6) 0.6201(3)
H85 H 0.0665 0.3580 0.6206
C58 C 0.0051(7) 0.2761(5) 0.5840(3)
H88 H 0.0132 0.3003 0.5544
C59 C 0.0664(5) 0.2050(5) 0.5899(3)
H89 H 0.1194 0.2233 0.5830
H90 H 0.0658 0.1868 0.6213
Si5 Si 0.04072(11) 0.12413(11) 0.55240(6)
H128 H 0.3827 0.0217 0.3876
H129 H 0.2549 0.0482 0.4154
C88 C 0.2745(5) 0.1143(6) 0.3288(3)
C89 C 0.3132(6) 0.1671(6) 0.3561(4)
H133 H 0.3545 0.1486 0.3740
C90 C 0.2944(7) 0.2463(6) 0.3584(4)
C91 C 0.2334(8) 0.2705(9) 0.3284(5)
H134 H 0.2177 0.3232 0.3283
C92 C 0.1972(8) 0.2185(11) 0.2999(4)
H135 H 0.1589 0.2370 0.2798
C93 C 0.2153(7) 0.1415(8) 0.2998(3)
C94 C 0.1712(7) 0.0884(10) 0.2694(4)
H136 H 0.1390 0.1191 0.2491
H137 H 0.1381 0.0541 0.2872
H138 H 0.2077 0.0571 0.2520
C95 C 0.3359(8) 0.3011(8) 0.3910(5)
C96 C 0.3869(17) 0.2601(16) 0.4285(9)
H139 H 0.3585 0.2157 0.4407
H140 H 0.3979 0.2970 0.4525
H141 H 0.4358 0.2422 0.4154
C97 C 0.2819(14) 0.3505(15) 0.4226(9)
H142 H 0.2283 0.3476 0.4118
H143 H 0.2991 0.4046 0.4225
H144 H 0.2847 0.3299 0.4530
C98 C 0.3881(16) 0.3610(16) 0.3645(9)
H145 H 0.4154 0.3340 0.3404
H146 H 0.4258 0.3844 0.3849
H147 H 0.3552 0.4016 0.3517
O11 O 0.0990(3) 0.0498(3) 0.43940(17)
S7 S 0.30405(13) 0.01270(16) 0.32476(8)
H149 H 0.3827 0.0217 0.6124
H150 H 0.2549 0.0482 0.5846
C102 C 0.2745(5) 0.1143(6) 0.6712(3)
C103 C 0.3132(6) 0.1671(6) 0.6439(4)
H154 H 0.3545 0.1486 0.6260
C104 C 0.2944(7) 0.2463(6) 0.6416(4)
C105 C 0.2334(8) 0.2705(9) 0.6716(5)
H155 H 0.2177 0.3232 0.6717
C106 C 0.1972(8) 0.2185(11) 0.7001(4)
H156 H 0.1589 0.2370 0.7202
C107 C 0.2153(7) 0.1415(8) 0.7002(3)
C108 C 0.1712(7) 0.0884(10) 0.7306(4)
H157 H 0.1390 0.1191 0.7509
H158 H 0.1381 0.0541 0.7128
H159 H 0.2077 0.0571 0.7480
C109 C 0.3359(8) 0.3011(8) 0.6090(5)
C110 C 0.3869(17) 0.2601(16) 0.5715(9)
H160 H 0.3585 0.2157 0.5593
H161 H 0.3979 0.2970 0.5475
H162 H 0.4358 0.2422 0.5846
C111 C 0.2819(14) 0.3505(15) 0.5774(9)
H163 H 0.2283 0.3476 0.5882
H164 H 0.2991 0.4046 0.5775
H165 H 0.2847 0.3299 0.5470
C112 C 0.3881(16) 0.3610(16) 0.6355(9)
H166 H 0.4154 0.3340 0.6596
H167 H 0.4258 0.3844 0.6151
H168 H 0.3552 0.4016 0.6483
O12 O 0.0990(3) 0.0498(3) 0.56060(17)
S8 S 0.30405(13) 0.01270(16) 0.67524(8)
Cu9 Cu 0.41779(6) 0.00726(7) 0.28140(4)
Cu13 Cu 0.41779(6) 0.00726(7) 0.71860(4)
H23 H 0.0217 0.6173 0.3876
H24 H 0.0482 0.7451 0.4154
C18 C 0.1143(6) 0.7255(5) 0.3288(3)
C19 C 0.1671(6) 0.6868(6) 0.3561(4)
H28 H 0.1486 0.6455 0.3740
C20 C 0.2463(6) 0.7056(7) 0.3584(4)
C21 C 0.2705(9) 0.7666(8) 0.3284(5)
H29 H 0.3232 0.7823 0.3283
C22 C 0.2185(11) 0.8028(8) 0.2999(4)
H30 H 0.2370 0.8411 0.2798
C23 C 0.1415(8) 0.7847(7) 0.2998(3)
C24 C 0.0884(10) 0.8288(7) 0.2694(4)
H31 H 0.1191 0.8610 0.2491
H32 H 0.0541 0.8619 0.2872
H33 H 0.0571 0.7923 0.2520
C25 C 0.3011(8) 0.6641(8) 0.3910(5)
C26 C 0.2601(16) 0.6131(17) 0.4285(9)
H34 H 0.2157 0.6415 0.4407
H35 H 0.2970 0.6021 0.4525
H36 H 0.2422 0.5642 0.4154
C27 C 0.3505(15) 0.7181(14) 0.4226(9)
H37 H 0.3476 0.7717 0.4118
H38 H 0.4046 0.7009 0.4225
H39 H 0.3299 0.7153 0.4530
C28 C 0.3610(16) 0.6119(16) 0.3645(9)
H40 H 0.3340 0.5846 0.3404
H41 H 0.3844 0.5742 0.3849
H42 H 0.4016 0.6448 0.3517
O4 O 0.0498(3) 0.9010(3) 0.43940(17)
S2 S 0.01270(16) 0.69595(13) 0.32476(8)
H107 H 0.0217 0.6173 0.6124
H108 H 0.0482 0.7451 0.5846
C74 C 0.1143(6) 0.7255(5) 0.6712(3)
C75 C 0.1671(6) 0.6868(6) 0.6439(4)
H112 H 0.1486 0.6455 0.6260
C76 C 0.2463(6) 0.7056(7) 0.6416(4)
C77 C 0.2705(9) 0.7666(8) 0.6716(5)
H113 H 0.3232 0.7823 0.6717
C78 C 0.2185(11) 0.8028(8) 0.7001(4)
H114 H 0.2370 0.8411 0.7202
C79 C 0.1415(8) 0.7847(7) 0.7002(3)
C80 C 0.0884(10) 0.8288(7) 0.7306(4)
H115 H 0.1191 0.8610 0.7509
H116 H 0.0541 0.8619 0.7128
H117 H 0.0571 0.7923 0.7480
C81 C 0.3011(8) 0.6641(8) 0.6090(5)
C82 C 0.2601(16) 0.6131(17) 0.5715(9)
H118 H 0.2157 0.6415 0.5593
H119 H 0.2970 0.6021 0.5475
H120 H 0.2422 0.5642 0.5846
C83 C 0.3505(15) 0.7181(14) 0.5774(9)
H121 H 0.3476 0.7717 0.5882
H122 H 0.4046 0.7009 0.5775
H123 H 0.3299 0.7153 0.5470
C84 C 0.3610(16) 0.6119(16) 0.6355(9)
H124 H 0.3340 0.5846 0.6596
H125 H 0.3844 0.5742 0.6151
H126 H 0.4016 0.6448 0.6483
O9 O 0.0498(3) 0.9010(3) 0.56060(17)
S6 S 0.01270(16) 0.69595(13) 0.67524(8)
C85 C 0.3387(6) 0.9875(6) 0.3799(3)
H127 H 0.3580 0.9335 0.3794
C86 C 0.2761(5) 0.9949(7) 0.4160(3)
H130 H 0.3003 0.9868 0.4456
C87 C 0.2050(5) 0.9336(5) 0.4101(3)
H131 H 0.2233 0.8806 0.4170
H132 H 0.1868 0.9342 0.3787
O10 O 0.1517(4) 0.9495(5) 0.5000
Si7 Si 0.12413(11) 0.95928(11) 0.44760(6)
C99 C 0.3387(6) 0.9875(6) 0.6201(3)
H148 H 0.3580 0.9335 0.6206
C100 C 0.2761(5) 0.9949(7) 0.5840(3)
H151 H 0.3003 0.9868 0.5544
C101 C 0.2050(5) 0.9336(5) 0.5899(3)
H152 H 0.2233 0.8806 0.5830
H153 H 0.1868 0.9342 0.6213
Si8 Si 0.12413(11) 0.95928(11) 0.55240(6)
Cu7 Cu 0.00726(7) 0.58221(6) 0.28140(4)
I7 I 0.01152(4) 0.62895(3) 0.19502(2)
Cu15 Cu 0.00726(7) 0.58221(6) 0.71860(4)
Cu17 Cu 0.08221(6) 0.49274(7) 0.21860(4)
I12 I 0.12895(3) 0.48848(4) 0.30498(2)
C1 C 0.6613(6) 0.0125(6) 0.3799(3)
H1 H 0.6420 0.0665 0.3794
C2 C 0.7239(5) 0.0051(7) 0.4160(3)
H4 H 0.6997 0.0132 0.4456
C3 C 0.7950(5) 0.0664(5) 0.4101(3)
H5 H 0.7767 0.1194 0.4170
H6 H 0.8132 0.0658 0.3787
O1 O 0.8483(4) 0.0505(5) 0.5000
Si1 Si 0.87587(11) 0.04072(11) 0.44760(6)
H44 H 0.9783 0.3827 0.3876
H45 H 0.9518 0.2549 0.4154
C32 C 0.8857(6) 0.2745(5) 0.3288(3)
C33 C 0.8329(6) 0.3132(6) 0.3561(4)
H49 H 0.8514 0.3545 0.3740
C34 C 0.7537(6) 0.2944(7) 0.3584(4)
C35 C 0.7295(9) 0.2334(8) 0.3284(5)
H50 H 0.6768 0.2177 0.3283
C36 C 0.7815(11) 0.1972(8) 0.2999(4)
H51 H 0.7630 0.1589 0.2798
C37 C 0.8585(8) 0.2153(7) 0.2998(3)
C38 C 0.9116(10) 0.1712(7) 0.2694(4)
H52 H 0.8809 0.1390 0.2491
H53 H 0.9459 0.1381 0.2872
H54 H 0.9429 0.2077 0.2520
C39 C 0.6989(8) 0.3359(8) 0.3910(5)
C40 C 0.7399(16) 0.3869(17) 0.4285(9)
H55 H 0.7843 0.3585 0.4407
H56 H 0.7030 0.3979 0.4525
H57 H 0.7578 0.4358 0.4154
C41 C 0.6495(15) 0.2819(14) 0.4226(9)
H58 H 0.6524 0.2283 0.4118
H59 H 0.5954 0.2991 0.4225
H60 H 0.6701 0.2847 0.4530
C42 C 0.6390(16) 0.3881(16) 0.3645(9)
H61 H 0.6660 0.4154 0.3404
H62 H 0.6156 0.4258 0.3849
H63 H 0.5984 0.3552 0.3517
O6 O 0.9502(3) 0.0990(3) 0.43940(17)
S3 S 0.98730(16) 0.30405(13) 0.32476(8)
C43 C 0.6613(6) 0.0125(6) 0.6201(3)
H64 H 0.6420 0.0665 0.6206
C44 C 0.7239(5) 0.0051(7) 0.5840(3)
H67 H 0.6997 0.0132 0.5544
C45 C 0.7950(5) 0.0664(5) 0.5899(3)
H68 H 0.7767 0.1194 0.5830
H69 H 0.8132 0.0658 0.6213
Si4 Si 0.87587(11) 0.04072(11) 0.55240(6)
H86 H 0.9783 0.3827 0.6124
H87 H 0.9518 0.2549 0.5846
C60 C 0.8857(6) 0.2745(5) 0.6712(3)
C61 C 0.8329(6) 0.3132(6) 0.6439(4)
H91 H 0.8514 0.3545 0.6260
C62 C 0.7537(6) 0.2944(7) 0.6416(4)
C63 C 0.7295(9) 0.2334(8) 0.6716(5)
H92 H 0.6768 0.2177 0.6717
C64 C 0.7815(11) 0.1972(8) 0.7001(4)
H93 H 0.7630 0.1589 0.7202
C65 C 0.8585(8) 0.2153(7) 0.7002(3)
C66 C 0.9116(10) 0.1712(7) 0.7306(4)
H94 H 0.8809 0.1390 0.7509
H95 H 0.9459 0.1381 0.7128
H96 H 0.9429 0.2077 0.7480
C67 C 0.6989(8) 0.3359(8) 0.6090(5)
C68 C 0.7399(16) 0.3869(17) 0.5715(9)
H97 H 0.7843 0.3585 0.5593
H98 H 0.7030 0.3979 0.5475
H99 H 0.7578 0.4358 0.5846
C69 C 0.6495(15) 0.2819(14) 0.5774(9)
H100 H 0.6524 0.2283 0.5882
H101 H 0.5954 0.2991 0.5775
H102 H 0.6701 0.2847 0.5470
C70 C 0.6390(16) 0.3881(16) 0.6355(9)
H103 H 0.6660 0.4154 0.6596
H104 H 0.6156 0.4258 0.6151
H105 H 0.5984 0.3552 0.6483
O8 O 0.9502(3) 0.0990(3) 0.56060(17)
S5 S 0.98730(16) 0.30405(13) 0.67524(8)
I2 I 0.37105(3) 0.01152(4) 0.19502(2)
I3 I 0.37105(3) 0.01152(4) 0.80498(2)
Cu6 Cu 0.50726(7) 0.08221(6) 0.21860(4)
I6 I 0.51152(4) 0.12895(3) 0.30498(2)
Cu10 Cu 0.99274(7) 0.41779(6) 0.28140(4)
Cu11 Cu 0.50726(7) 0.08221(6) 0.78140(4)
Cu14 Cu 0.99274(7) 0.41779(6) 0.71860(4)
I9 I 0.51152(4) 0.12895(3) 0.69502(2)
S13 S 0.51270(16) 0.19595(13) 0.17524(8)
H2 H 0.6173 0.9783 0.3876
H3 H 0.7451 0.9518 0.4154
C4 C 0.7255(5) 0.8857(6) 0.3288(3)
C5 C 0.6868(6) 0.8329(6) 0.3561(4)
H7 H 0.6455 0.8514 0.3740
C6 C 0.7056(7) 0.7537(6) 0.3584(4)
C7 C 0.7666(8) 0.7295(9) 0.3284(5)
H8 H 0.7823 0.6768 0.3283
C8 C 0.8028(8) 0.7815(11) 0.2999(4)
H9 H 0.8411 0.7630 0.2798
C9 C 0.7847(7) 0.8585(8) 0.2998(3)
C10 C 0.8288(7) 0.9116(10) 0.2694(4)
H10 H 0.8610 0.8809 0.2491
H11 H 0.8619 0.9459 0.2872
H12 H 0.7923 0.9429 0.2520
C11 C 0.6641(8) 0.6989(8) 0.3910(5)
C12 C 0.6131(17) 0.7399(16) 0.4285(9)
H13 H 0.6415 0.7843 0.4407
H14 H 0.6021 0.7030 0.4525
H15 H 0.5642 0.7578 0.4154
C13 C 0.7181(14) 0.6495(15) 0.4226(9)
H16 H 0.7717 0.6524 0.4118
H17 H 0.7009 0.5954 0.4225
H18 H 0.7153 0.6701 0.4530
C14 C 0.6119(16) 0.6390(16) 0.3645(9)
H19 H 0.5846 0.6660 0.3404
H20 H 0.5742 0.6156 0.3849
H21 H 0.6448 0.5984 0.3517
Cu1 Cu 0.58221(6) 0.99274(7) 0.28140(4)
I1 I 0.62895(3) 0.98848(4) 0.19502(2)
O2 O 0.9010(3) 0.9502(3) 0.43940(17)
S1 S 0.69595(13) 0.98730(16) 0.32476(8)
C15 C 0.9875(6) 0.6613(6) 0.3799(3)
H22 H 0.9335 0.6420 0.3794
C16 C 0.9949(7) 0.7239(5) 0.4160(3)
H25 H 0.9868 0.6997 0.4456
C17 C 0.9336(5) 0.7950(5) 0.4101(3)
H26 H 0.8806 0.7767 0.4170
H27 H 0.9342 0.8132 0.3787
O3 O 0.9495(5) 0.8483(4) 0.5000
Si2 Si 0.95928(11) 0.87587(11) 0.44760(6)
H65 H 0.6173 0.9783 0.6124
H66 H 0.7451 0.9518 0.5846
C46 C 0.7255(5) 0.8857(6) 0.6712(3)
C47 C 0.6868(6) 0.8329(6) 0.6439(4)
H70 H 0.6455 0.8514 0.6260
C48 C 0.7056(7) 0.7537(6) 0.6416(4)
C49 C 0.7666(8) 0.7295(9) 0.6716(5)
H71 H 0.7823 0.6768 0.6717
C50 C 0.8028(8) 0.7815(11) 0.7001(4)
H72 H 0.8411 0.7630 0.7202
C51 C 0.7847(7) 0.8585(8) 0.7002(3)
C52 C 0.8288(7) 0.9116(10) 0.7306(4)
H73 H 0.8610 0.8809 0.7509
H74 H 0.8619 0.9459 0.7128
H75 H 0.7923 0.9429 0.7480
C53 C 0.6641(8) 0.6989(8) 0.6090(5)
C54 C 0.6131(17) 0.7399(16) 0.5715(9)
H76 H 0.6415 0.7843 0.5593
H77 H 0.6021 0.7030 0.5475
H78 H 0.5642 0.7578 0.5846
C55 C 0.7181(14) 0.6495(15) 0.5774(9)
H79 H 0.7717 0.6524 0.5882
H80 H 0.7009 0.5954 0.5775
H81 H 0.7153 0.6701 0.5470
C56 C 0.6119(16) 0.6390(16) 0.6355(9)
H82 H 0.5846 0.6660 0.6596
H83 H 0.5742 0.6156 0.6151
H84 H 0.6448 0.5984 0.6483
O7 O 0.9010(3) 0.9502(3) 0.56060(17)
S4 S 0.69595(13) 0.98730(16) 0.67524(8)
C71 C 0.9875(6) 0.6613(6) 0.6201(3)
H106 H 0.9335 0.6420 0.6206
C72 C 0.9949(7) 0.7239(5) 0.5840(3)
H109 H 0.9868 0.6997 0.5544
C73 C 0.9336(5) 0.7950(5) 0.5899(3)
H110 H 0.8806 0.7767 0.5830
H111 H 0.9342 0.8132 0.6213
Si6 Si 0.95928(11) 0.87587(11) 0.55240(6)
Cu4 Cu 0.58221(6) 0.99274(7) 0.71860(4)
I4 I 0.62895(3) 0.98848(4) 0.80498(2)
Cu5 Cu 0.49274(7) 0.91779(6) 0.21860(4)
I5 I 0.48848(4) 0.87105(3) 0.30498(2)
I8 I 0.98848(4) 0.37105(3) 0.19502(2)
Cu12 Cu 0.49274(7) 0.91779(6) 0.78140(4)
Cu16 Cu 0.91779(6) 0.50726(7) 0.21860(4)
I10 I 0.48848(4) 0.87105(3) 0.69502(2)
I11 I 0.87105(3) 0.51152(4) 0.30498(2)
S12 S 0.48730(16) 0.80405(13) 0.17524(8)
I4_2 I 0.01152(4) 0.62895(3) 0.80498(2)
Cu12_2 Cu 0.08221(6) 0.49274(7) 0.78140(4)
I10_2 I 0.12895(3) 0.48848(4) 0.69502(2)
S12_2 S 0.19595(13) 0.48730(16) 0.17524(8)
I3_2 I 0.98848(4) 0.37105(3) 0.80498(2)
Cu11_2 Cu 0.91779(6) 0.50726(7) 0.78140(4)
I9_2 I 0.87105(3) 0.51152(4) 0.69502(2)
S13_2 S 0.80405(13) 0.51270(16) 0.17524(8)
O1_2 O 0.3483(4) 0.5505(5) 0.0000
O3_2 O 0.4495(5) 0.3483(4) 0.0000
O5_2 O 0.5505(5) 0.6517(4) 0.0000
C43_2 C 0.1613(6) 0.5125(6) 0.1201(3)
H64_2 H 0.1420 0.5665 0.1206
H65_2 H 0.1173 0.4783 0.1124
C44_2 C 0.2239(5) 0.5051(7) 0.0840(3)
H66_2 H 0.2451 0.4518 0.0846
H67_2 H 0.1997 0.5132 0.0544
C45_2 C 0.2950(5) 0.5664(5) 0.0899(3)
H68_2 H 0.2767 0.6194 0.0830
H69_2 H 0.3132 0.5658 0.1213
C46_2 C 0.2255(5) 0.3857(6) 0.1712(3)
C47_2 C 0.1868(6) 0.3329(6) 0.1439(4)
H70_2 H 0.1455 0.3514 0.1260
C48_2 C 0.2056(7) 0.2537(6) 0.1416(4)
C49_2 C 0.2666(8) 0.2295(9) 0.1716(5)
H71_2 H 0.2823 0.1768 0.1717
C50_2 C 0.3028(8) 0.2815(11) 0.2001(4)
H72_2 H 0.3411 0.2630 0.2202
C51_2 C 0.2847(7) 0.3585(8) 0.2002(3)
C52_2 C 0.3288(7) 0.4116(10) 0.2306(4)
H73_2 H 0.3610 0.3809 0.2509
H74_2 H 0.3619 0.4459 0.2128
H75_2 H 0.2923 0.4429 0.2480
C53_2 C 0.1641(8) 0.1989(8) 0.1090(5)
C54_2 C 0.1131(17) 0.2399(16) 0.0715(9)
H76_2 H 0.1415 0.2843 0.0593
H77_2 H 0.1021 0.2030 0.0475
H78_2 H 0.0642 0.2578 0.0846
C55_2 C 0.2181(14) 0.1495(15) 0.0774(9)
H79_2 H 0.2717 0.1524 0.0882
H80_2 H 0.2009 0.0954 0.0775
H81_2 H 0.2153 0.1701 0.0470
C56_2 C 0.1119(16) 0.1390(16) 0.1355(9)
H82_2 H 0.0846 0.1660 0.1596
H83_2 H 0.0742 0.1156 0.1151
H84_2 H 0.1448 0.0984 0.1483
O7_2 O 0.4010(3) 0.4502(3) 0.06060(17)
Si4_2 Si 0.37587(11) 0.54072(11) 0.05240(6)
C57_2 C 0.5125(6) 0.8387(6) 0.1201(3)
H85_2 H 0.5665 0.8580 0.1206
H86_2 H 0.4783 0.8827 0.1124
C58_2 C 0.5051(7) 0.7761(5) 0.0840(3)
H87_2 H 0.4518 0.7549 0.0846
H88_2 H 0.5132 0.8003 0.0544
C59_2 C 0.5664(5) 0.7050(5) 0.0899(3)
H89_2 H 0.6194 0.7233 0.0830
H90_2 H 0.5658 0.6868 0.1213
C60_2 C 0.3857(6) 0.7745(5) 0.1712(3)
C61_2 C 0.3329(6) 0.8132(6) 0.1439(4)
H91_2 H 0.3514 0.8545 0.1260
C62_2 C 0.2537(6) 0.7944(7) 0.1416(4)
C63_2 C 0.2295(9) 0.7334(8) 0.1716(5)
H92_2 H 0.1768 0.7177 0.1717
C64_2 C 0.2815(11) 0.6972(8) 0.2001(4)
H93_2 H 0.2630 0.6589 0.2202
C65_2 C 0.3585(8) 0.7153(7) 0.2002(3)
C66_2 C 0.4116(10) 0.6712(7) 0.2306(4)
H94_2 H 0.3809 0.6390 0.2509
H95_2 H 0.4459 0.6381 0.2128
H96_2 H 0.4429 0.7077 0.2480
C67_2 C 0.1989(8) 0.8359(8) 0.1090(5)
C68_2 C 0.2399(16) 0.8869(17) 0.0715(9)
H97_2 H 0.2843 0.8585 0.0593
H98_2 H 0.2030 0.8979 0.0475
H99_2 H 0.2578 0.9358 0.0846
C69_2 C 0.1495(15) 0.7819(14) 0.0774(9)
H100_2 H 0.1524 0.7283 0.0882
H101_2 H 0.0954 0.7991 0.0775
H102_2 H 0.1701 0.7847 0.0470
C70_2 C 0.1390(16) 0.8881(16) 0.1355(9)
H103_2 H 0.1660 0.9154 0.1596
H104_2 H 0.1156 0.9258 0.1151
H105_2 H 0.0984 0.8552 0.1483
O8_2 O 0.4502(3) 0.5990(3) 0.06060(17)
Si5_2 Si 0.54072(11) 0.62413(11) 0.05240(6)
C71_2 C 0.4875(6) 0.1613(6) 0.1201(3)
H106_2 H 0.4335 0.1420 0.1206
H107_2 H 0.5217 0.1173 0.1124
C72_2 C 0.4949(7) 0.2239(5) 0.0840(3)
H108_2 H 0.5482 0.2451 0.0846
H109_2 H 0.4868 0.1997 0.0544
C73_2 C 0.4336(5) 0.2950(5) 0.0899(3)
H110_2 H 0.3806 0.2767 0.0830
H111_2 H 0.4342 0.3132 0.1213
C74_2 C 0.6143(6) 0.2255(5) 0.1712(3)
C75_2 C 0.6671(6) 0.1868(6) 0.1439(4)
H112_2 H 0.6486 0.1455 0.1260
C76_2 C 0.7463(6) 0.2056(7) 0.1416(4)
C77_2 C 0.7705(9) 0.2666(8) 0.1716(5)
H113_2 H 0.8232 0.2823 0.1717
C78_2 C 0.7185(11) 0.3028(8) 0.2001(4)
H114_2 H 0.7370 0.3411 0.2202
C79_2 C 0.6415(8) 0.2847(7) 0.2002(3)
C80_2 C 0.5884(10) 0.3288(7) 0.2306(4)
H115_2 H 0.6191 0.3610 0.2509
H116_2 H 0.5541 0.3619 0.2128
H117_2 H 0.5571 0.2923 0.2480
C81_2 C 0.8011(8) 0.1641(8) 0.1090(5)
C82_2 C 0.7601(16) 0.1131(17) 0.0715(9)
H118_2 H 0.7157 0.1415 0.0593
H119_2 H 0.7970 0.1021 0.0475
H120_2 H 0.7422 0.0642 0.0846
C83_2 C 0.8505(15) 0.2181(14) 0.0774(9)
H121_2 H 0.8476 0.2717 0.0882
H122_2 H 0.9046 0.2009 0.0775
H123_2 H 0.8299 0.2153 0.0470
C84_2 C 0.8610(16) 0.1119(16) 0.1355(9)
H124_2 H 0.8340 0.0846 0.1596
H125_2 H 0.8844 0.0742 0.1151
H126_2 H 0.9016 0.1448 0.1483
O9_2 O 0.5498(3) 0.4010(3) 0.06060(17)
Si6_2 Si 0.45928(11) 0.37587(11) 0.05240(6)
O10_2 O 0.6517(4) 0.4495(5) 0.0000
C99_2 C 0.8387(6) 0.4875(6) 0.1201(3)
H148_2 H 0.8580 0.4335 0.1206
H149_2 H 0.8827 0.5217 0.1124
C100_2 C 0.7761(5) 0.4949(7) 0.0840(3)
H150_2 H 0.7549 0.5482 0.0846
H151_2 H 0.8003 0.4868 0.0544
C101_2 C 0.7050(5) 0.4336(5) 0.0899(3)
H152_2 H 0.7233 0.3806 0.0830
H153_2 H 0.6868 0.4342 0.1213
C102_2 C 0.7745(5) 0.6143(6) 0.1712(3)
C103_2 C 0.8132(6) 0.6671(6) 0.1439(4)
H154_2 H 0.8545 0.6486 0.1260
C104_2 C 0.7944(7) 0.7463(6) 0.1416(4)
C105_2 C 0.7334(8) 0.7705(9) 0.1716(5)
H155_2 H 0.7177 0.8232 0.1717
C106_2 C 0.6972(8) 0.7185(11) 0.2001(4)
H156_2 H 0.6589 0.7370 0.2202
C107_2 C 0.7153(7) 0.6415(8) 0.2002(3)
C108_2 C 0.6712(7) 0.5884(10) 0.2306(4)
H157_2 H 0.6390 0.6191 0.2509
H158_2 H 0.6381 0.5541 0.2128
H159_2 H 0.7077 0.5571 0.2480
C109_2 C 0.8359(8) 0.8011(8) 0.1090(5)
C110_2 C 0.8869(17) 0.7601(16) 0.0715(9)
H160_2 H 0.8585 0.7157 0.0593
H161_2 H 0.8979 0.7970 0.0475
H162_2 H 0.9358 0.7422 0.0846
C111_2 C 0.7819(14) 0.8505(15) 0.0774(9)
H163_2 H 0.7283 0.8476 0.0882
H164_2 H 0.7991 0.9046 0.0775
H165_2 H 0.7847 0.8299 0.0470
C112_2 C 0.8881(16) 0.8610(16) 0.1355(9)
H166_2 H 0.9154 0.8340 0.1596
H167_2 H 0.9258 0.8844 0.1151
H168_2 H 0.8552 0.9016 0.1483
O12_2 O 0.5990(3) 0.5498(3) 0.06060(17)
Si8_2 Si 0.62413(11) 0.45928(11) 0.05240(6)
C1_2 C 0.1613(6) 0.5125(6) 0.8799(3)
H1_2 H 0.1420 0.5665 0.8794
H2_2 H 0.1173 0.4783 0.8876
C2_2 C 0.2239(5) 0.5051(7) 0.9160(3)
H3_2 H 0.2451 0.4518 0.9154
H4_2 H 0.1997 0.5132 0.9456
C3_2 C 0.2950(5) 0.5664(5) 0.9101(3)
H5_2 H 0.2767 0.6194 0.9170
H6_2 H 0.3132 0.5658 0.8787
C4_2 C 0.2255(5) 0.3857(6) 0.8288(3)
C5_2 C 0.1868(6) 0.3329(6) 0.8561(4)
H7_2 H 0.1455 0.3514 0.8740
C6_2 C 0.2056(7) 0.2537(6) 0.8584(4)
C7_2 C 0.2666(8) 0.2295(9) 0.8284(5)
H8_2 H 0.2823 0.1768 0.8283
C8_2 C 0.3028(8) 0.2815(11) 0.7999(4)
H9_2 H 0.3411 0.2630 0.7798
C9_2 C 0.2847(7) 0.3585(8) 0.7998(3)
C10_2 C 0.3288(7) 0.4116(10) 0.7694(4)
H10_2 H 0.3610 0.3809 0.7491
H11_2 H 0.3619 0.4459 0.7872
H12_2 H 0.2923 0.4429 0.7520
C11_2 C 0.1641(8) 0.1989(8) 0.8910(5)
C12_2 C 0.1131(17) 0.2399(16) 0.9285(9)
H13_2 H 0.1415 0.2843 0.9407
H14_2 H 0.1021 0.2030 0.9525
H15_2 H 0.0642 0.2578 0.9154
C13_2 C 0.2181(14) 0.1495(15) 0.9226(9)
H16_2 H 0.2717 0.1524 0.9118
H17_2 H 0.2009 0.0954 0.9225
H18_2 H 0.2153 0.1701 0.9530
C14_2 C 0.1119(16) 0.1390(16) 0.8645(9)
H19_2 H 0.0846 0.1660 0.8404
H20_2 H 0.0742 0.1156 0.8849
H21_2 H 0.1448 0.0984 0.8517
O1_3 O 0.3483(4) 0.5505(5) 1.0000
O2_2 O 0.4010(3) 0.4502(3) 0.93940(17)
S1_2 S 0.19595(13) 0.48730(16) 0.82476(8)
Si1_2 Si 0.37587(11) 0.54072(11) 0.94760(6)
C15_2 C 0.4875(6) 0.1613(6) 0.8799(3)
H22_2 H 0.4335 0.1420 0.8794
H23_2 H 0.5217 0.1173 0.8876
C16_2 C 0.4949(7) 0.2239(5) 0.9160(3)
H24_2 H 0.5482 0.2451 0.9154
H25_2 H 0.4868 0.1997 0.9456
C17_2 C 0.4336(5) 0.2950(5) 0.9101(3)
H26_2 H 0.3806 0.2767 0.9170
H27_2 H 0.4342 0.3132 0.8787
C18_2 C 0.6143(6) 0.2255(5) 0.8288(3)
C19_2 C 0.6671(6) 0.1868(6) 0.8561(4)
H28_2 H 0.6486 0.1455 0.8740
C20_2 C 0.7463(6) 0.2056(7) 0.8584(4)
C21_2 C 0.7705(9) 0.2666(8) 0.8284(5)
H29_2 H 0.8232 0.2823 0.8283
C22_2 C 0.7185(11) 0.3028(8) 0.7999(4)
H30_2 H 0.7370 0.3411 0.7798
C23_2 C 0.6415(8) 0.2847(7) 0.7998(3)
C24_2 C 0.5884(10) 0.3288(7) 0.7694(4)
H31_2 H 0.6191 0.3610 0.7491
H32_2 H 0.5541 0.3619 0.7872
H33_2 H 0.5571 0.2923 0.7520
C25_2 C 0.8011(8) 0.1641(8) 0.8910(5)
C26_2 C 0.7601(16) 0.1131(17) 0.9285(9)
H34_2 H 0.7157 0.1415 0.9407
H35_2 H 0.7970 0.1021 0.9525
H36_2 H 0.7422 0.0642 0.9154
C27_2 C 0.8505(15) 0.2181(14) 0.9226(9)
H37_2 H 0.8476 0.2717 0.9118
H38_2 H 0.9046 0.2009 0.9225
H39_2 H 0.8299 0.2153 0.9530
C28_2 C 0.8610(16) 0.1119(16) 0.8645(9)
H40_2 H 0.8340 0.0846 0.8404
H41_2 H 0.8844 0.0742 0.8849
H42_2 H 0.9016 0.1448 0.8517
O3_3 O 0.4495(5) 0.3483(4) 1.0000
O4_2 O 0.5498(3) 0.4010(3) 0.93940(17)
S2_2 S 0.51270(16) 0.19595(13) 0.82476(8)
Si2_2 Si 0.45928(11) 0.37587(11) 0.94760(6)
C29_2 C 0.5125(6) 0.8387(6) 0.8799(3)
H43_2 H 0.5665 0.8580 0.8794
H44_2 H 0.4783 0.8827 0.8876
C30_2 C 0.5051(7) 0.7761(5) 0.9160(3)
H45_2 H 0.4518 0.7549 0.9154
H46_2 H 0.5132 0.8003 0.9456
C31_2 C 0.5664(5) 0.7050(5) 0.9101(3)
H47_2 H 0.6194 0.7233 0.9170
H48_2 H 0.5658 0.6868 0.8787
C32_2 C 0.3857(6) 0.7745(5) 0.8288(3)
C33_2 C 0.3329(6) 0.8132(6) 0.8561(4)
H49_2 H 0.3514 0.8545 0.8740
C34_2 C 0.2537(6) 0.7944(7) 0.8584(4)
C35_2 C 0.2295(9) 0.7334(8) 0.8284(5)
H50_2 H 0.1768 0.7177 0.8283
C36_2 C 0.2815(11) 0.6972(8) 0.7999(4)
H51_2 H 0.2630 0.6589 0.7798
C37_2 C 0.3585(8) 0.7153(7) 0.7998(3)
C38_2 C 0.4116(10) 0.6712(7) 0.7694(4)
H52_2 H 0.3809 0.6390 0.7491
H53_2 H 0.4459 0.6381 0.7872
H54_2 H 0.4429 0.7077 0.7520
C39_2 C 0.1989(8) 0.8359(8) 0.8910(5)
C40_2 C 0.2399(16) 0.8869(17) 0.9285(9)
H55_2 H 0.2843 0.8585 0.9407
H56_2 H 0.2030 0.8979 0.9525
H57_2 H 0.2578 0.9358 0.9154
C41_2 C 0.1495(15) 0.7819(14) 0.9226(9)
H58_2 H 0.1524 0.7283 0.9118
H59_2 H 0.0954 0.7991 0.9225
H60_2 H 0.1701 0.7847 0.9530
C42_2 C 0.1390(16) 0.8881(16) 0.8645(9)
H61_2 H 0.1660 0.9154 0.8404
H62_2 H 0.1156 0.9258 0.8849
H63_2 H 0.0984 0.8552 0.8517
O5_3 O 0.5505(5) 0.6517(4) 1.0000
O6_2 O 0.4502(3) 0.5990(3) 0.93940(17)
S3_2 S 0.48730(16) 0.80405(13) 0.82476(8)
Si3_2 Si 0.54072(11) 0.62413(11) 0.94760(6)
C85_2 C 0.8387(6) 0.4875(6) 0.8799(3)
H127_2 H 0.8580 0.4335 0.8794
H128_2 H 0.8827 0.5217 0.8876
C86_2 C 0.7761(5) 0.4949(7) 0.9160(3)
H129_2 H 0.7549 0.5482 0.9154
H130_2 H 0.8003 0.4868 0.9456
C87_2 C 0.7050(5) 0.4336(5) 0.9101(3)
H131_2 H 0.7233 0.3806 0.9170
H132_2 H 0.6868 0.4342 0.8787
C88_2 C 0.7745(5) 0.6143(6) 0.8288(3)
C89_2 C 0.8132(6) 0.6671(6) 0.8561(4)
H133_2 H 0.8545 0.6486 0.8740
C90_2 C 0.7944(7) 0.7463(6) 0.8584(4)
C91_2 C 0.7334(8) 0.7705(9) 0.8284(5)
H134_2 H 0.7177 0.8232 0.8283
C92_2 C 0.6972(8) 0.7185(11) 0.7999(4)
H135_2 H 0.6589 0.7370 0.7798
C93_2 C 0.7153(7) 0.6415(8) 0.7998(3)
C94_2 C 0.6712(7) 0.5884(10) 0.7694(4)
H136_2 H 0.6390 0.6191 0.7491
H137_2 H 0.6381 0.5541 0.7872
H138_2 H 0.7077 0.5571 0.7520
C95_2 C 0.8359(8) 0.8011(8) 0.8910(5)
C96_2 C 0.8869(17) 0.7601(16) 0.9285(9)
H139_2 H 0.8585 0.7157 0.9407
H140_2 H 0.8979 0.7970 0.9525
H141_2 H 0.9358 0.7422 0.9154
C97_2 C 0.7819(14) 0.8505(15) 0.9226(9)
H142_2 H 0.7283 0.8476 0.9118
H143_2 H 0.7991 0.9046 0.9225
H144_2 H 0.7847 0.8299 0.9530
C98_2 C 0.8881(16) 0.8610(16) 0.8645(9)
H145_2 H 0.9154 0.8340 0.8404
H146_2 H 0.9258 0.8844 0.8849
H147_2 H 0.8552 0.9016 0.8517
O10_3 O 0.6517(4) 0.4495(5) 1.0000
O11_2 O 0.5990(3) 0.5498(3) 0.93940(17)
S7_2 S 0.80405(13) 0.51270(16) 0.82476(8)
Si7_2 Si 0.62413(11) 0.45928(11) 0.94760(6)
loop_
_geom_bond_atom_site_label_1
_geom_bond_atom_site_label_2
_geom_bond_site_symmetry_1
_geom_bond_site_symmetry_2
C29 H43 1_555 1_555
C30 C29 1_555 1_555
H46 C30 1_555 1_555
C31 C30 1_555 1_555
H47 C31 1_555 1_555
H48 C31 1_555 1_555
O5 Si3 1_555 1_555
Si3 C31 1_555 1_555
C57 H85 1_555 1_555
C58 C57 1_555 1_555
H88 C58 1_555 1_555
C59 C58 1_555 1_555
H89 C59 1_555 1_555
H90 C59 1_555 1_555
Si5 O5 1_555 1_555
C88 C89 1_555 1_555
C89 H133 1_555 1_555
C90 C89 1_555 1_555
C91 C90 1_555 1_555
H134 C91 1_555 1_555
C92 C91 1_555 1_555
H135 C92 1_555 1_555
C93 C88 1_555 1_555
C94 C93 1_555 1_555
H136 C94 1_555 1_555
H137 C94 1_555 1_555
H138 C94 1_555 1_555
C95 C90 1_555 1_555
C96 C95 1_555 1_555
H139 C96 1_555 1_555
H140 C96 1_555 1_555
H141 C96 1_555 1_555
C97 C95 1_555 1_555
H142 C97 1_555 1_555
H143 C97 1_555 1_555
H144 C97 1_555 1_555
C98 C95 1_555 1_555
H145 C98 1_555 1_555
H146 C98 1_555 1_555
H147 C98 1_555 1_555
O11 Si3 1_555 1_555
C102 C103 1_555 1_555
C103 H154 1_555 1_555
C104 C103 1_555 1_555
C105 C104 1_555 1_555
H155 C105 1_555 1_555
C106 C105 1_555 1_555
H156 C106 1_555 1_555
C107 C102 1_555 1_555
C108 C107 1_555 1_555
H157 C108 1_555 1_555
H158 C108 1_555 1_555
H159 C108 1_555 1_555
C109 C104 1_555 1_555
C110 C109 1_555 1_555
H160 C110 1_555 1_555
H161 C110 1_555 1_555
H162 C110 1_555 1_555
C111 C109 1_555 1_555
H163 C111 1_555 1_555
H164 C111 1_555 1_555
H165 C111 1_555 1_555
C112 C109 1_555 1_555
H166 C112 1_555 1_555
H167 C112 1_555 1_555
H168 C112 1_555 1_555
O12 Si5 1_555 1_555
Cu9 S7 1_555 1_555
Cu13 S8 1_555 1_555
C59 Si5 1_555 1_555
C88 S7 1_555 1_555
C92 C93 1_555 1_555
C102 S8 1_555 1_555
C106 C107 1_555 1_555
C18 C19 1_555 1_555
C19 H28 1_555 1_555
C20 C19 1_555 1_555
C21 C20 1_555 1_555
H29 C21 1_555 1_555
C22 C21 1_555 1_555
H30 C22 1_555 1_555
C23 C18 1_555 1_555
C24 C23 1_555 1_555
H31 C24 1_555 1_555
H32 C24 1_555 1_555
H33 C24 1_555 1_555
C25 C20 1_555 1_555
C26 C25 1_555 1_555
H34 C26 1_555 1_555
H35 C26 1_555 1_555
H36 C26 1_555 1_555
C27 C25 1_555 1_555
H37 C27 1_555 1_555
H38 C27 1_555 1_555
H39 C27 1_555 1_555
C28 C25 1_555 1_555
H40 C28 1_555 1_555
H41 C28 1_555 1_555
H42 C28 1_555 1_555
C74 C75 1_555 1_555
C75 H112 1_555 1_555
C76 C75 1_555 1_555
C77 C76 1_555 1_555
H113 C77 1_555 1_555
C78 C77 1_555 1_555
H114 C78 1_555 1_555
C79 C74 1_555 1_555
C80 C79 1_555 1_555
H115 C80 1_555 1_555
H116 C80 1_555 1_555
H117 C80 1_555 1_555
C81 C76 1_555 1_555
C82 C81 1_555 1_555
H118 C82 1_555 1_555
H119 C82 1_555 1_555
H120 C82 1_555 1_555
C83 C81 1_555 1_555
H121 C83 1_555 1_555
H122 C83 1_555 1_555
H123 C83 1_555 1_555
C84 C81 1_555 1_555
H124 C84 1_555 1_555
H125 C84 1_555 1_555
H126 C84 1_555 1_555
C85 H127 1_555 1_555
C86 C85 1_555 1_555
H130 C86 1_555 1_555
C87 C86 1_555 1_555
H131 C87 1_555 1_555
H132 C87 1_555 1_555
O10 Si7 1_555 1_555
Si7 O4 1_555 1_555
C99 H148 1_555 1_555
C100 C99 1_555 1_555
H151 C100 1_555 1_555
C101 C100 1_555 1_555
H152 C101 1_555 1_555
H153 C101 1_555 1_555
Si8 O9 1_555 1_555
Cu7 S2 1_555 1_555
I7 Cu7 1_555 1_555
Cu15 S6 1_555 1_555
Cu17 I7 1_555 1_555
I12 Cu7 1_555 1_555
C18 S2 1_555 1_555
C22 C23 1_555 1_555
C74 S6 1_555 1_555
C78 C79 1_555 1_555
C87 Si7 1_555 1_555
O10 Si8 1_555 1_555
C101 Si8 1_555 1_555
Cu17 I12 1_555 1_555
C1 H1 1_555 1_555
C2 C1 1_555 1_555
H4 C2 1_555 1_555
C3 C2 1_555 1_555
H5 C3 1_555 1_555
H6 C3 1_555 1_555
O1 Si1 1_555 1_555
Si1 C3 1_555 1_555
C32 C33 1_555 1_555
C33 H49 1_555 1_555
C34 C33 1_555 1_555
C35 C34 1_555 1_555
H50 C35 1_555 1_555
C36 C35 1_555 1_555
H51 C36 1_555 1_555
C37 C32 1_555 1_555
C38 C37 1_555 1_555
H52 C38 1_555 1_555
H53 C38 1_555 1_555
H54 C38 1_555 1_555
C39 C34 1_555 1_555
C40 C39 1_555 1_555
H55 C40 1_555 1_555
H56 C40 1_555 1_555
H57 C40 1_555 1_555
C41 C39 1_555 1_555
H58 C41 1_555 1_555
H59 C41 1_555 1_555
H60 C41 1_555 1_555
C42 C39 1_555 1_555
H61 C42 1_555 1_555
H62 C42 1_555 1_555
H63 C42 1_555 1_555
O6 Si1 1_555 1_555
C43 H64 1_555 1_555
C44 C43 1_555 1_555
H67 C44 1_555 1_555
C45 C44 1_555 1_555
H68 C45 1_555 1_555
H69 C45 1_555 1_555
Si4 O1 1_555 1_555
C60 C61 1_555 1_555
C61 H91 1_555 1_555
C62 C61 1_555 1_555
C63 C62 1_555 1_555
H92 C63 1_555 1_555
C64 C63 1_555 1_555
H93 C64 1_555 1_555
C65 C60 1_555 1_555
C66 C65 1_555 1_555
H94 C66 1_555 1_555
H95 C66 1_555 1_555
H96 C66 1_555 1_555
C67 C62 1_555 1_555
C68 C67 1_555 1_555
H97 C68 1_555 1_555
H98 C68 1_555 1_555
H99 C68 1_555 1_555
C69 C67 1_555 1_555
H100 C69 1_555 1_555
H101 C69 1_555 1_555
H102 C69 1_555 1_555
C70 C67 1_555 1_555
H103 C70 1_555 1_555
H104 C70 1_555 1_555
H105 C70 1_555 1_555
O8 Si4 1_555 1_555
Cu9 I2 1_555 1_555
Cu13 I3 1_555 1_555
I3 Cu11 1_555 1_555
Cu10 S3 1_555 1_555
Cu14 S5 1_555 1_555
I9 Cu13 1_555 1_555
S13 Cu6 1_555 1_555
C32 S3 1_555 1_555
C36 C37 1_555 1_555
C45 Si4 1_555 1_555
C60 S5 1_555 1_555
C64 C65 1_555 1_555
Cu9 I6 1_555 1_555
I2 Cu6 1_555 1_555
Cu6 I6 1_555 1_555
Cu11 I9 1_555 1_555
C4 C5 1_555 1_555
C5 H7 1_555 1_555
C6 C5 1_555 1_555
C7 C6 1_555 1_555
H8 C7 1_555 1_555
C8 C7 1_555 1_555
H9 C8 1_555 1_555
C9 C4 1_555 1_555
C10 C9 1_555 1_555
H10 C10 1_555 1_555
H11 C10 1_555 1_555
H12 C10 1_555 1_555
C11 C6 1_555 1_555
C12 C11 1_555 1_555
H13 C12 1_555 1_555
H14 C12 1_555 1_555
H15 C12 1_555 1_555
C13 C11 1_555 1_555
H16 C13 1_555 1_555
H17 C13 1_555 1_555
H18 C13 1_555 1_555
C14 C11 1_555 1_555
H19 C14 1_555 1_555
H20 C14 1_555 1_555
H21 C14 1_555 1_555
Cu1 I1 1_555 1_555
I1 Cu5 1_555 1_555
C15 H22 1_555 1_555
C16 C15 1_555 1_555
H25 C16 1_555 1_555
C17 C16 1_555 1_555
H26 C17 1_555 1_555
H27 C17 1_555 1_555
O3 Si2 1_555 1_555
Si2 O2 1_555 1_555
C46 C47 1_555 1_555
C47 H70 1_555 1_555
C48 C47 1_555 1_555
C49 C48 1_555 1_555
H71 C49 1_555 1_555
C50 C49 1_555 1_555
H72 C50 1_555 1_555
C51 C46 1_555 1_555
C52 C51 1_555 1_555
H73 C52 1_555 1_555
H74 C52 1_555 1_555
H75 C52 1_555 1_555
C53 C48 1_555 1_555
C54 C53 1_555 1_555
H76 C54 1_555 1_555
H77 C54 1_555 1_555
H78 C54 1_555 1_555
C55 C53 1_555 1_555
H79 C55 1_555 1_555
H80 C55 1_555 1_555
H81 C55 1_555 1_555
C56 C53 1_555 1_555
H82 C56 1_555 1_555
H83 C56 1_555 1_555
H84 C56 1_555 1_555
C71 H106 1_555 1_555
C72 C71 1_555 1_555
H109 C72 1_555 1_555
C73 C72 1_555 1_555
H110 C73 1_555 1_555
H111 C73 1_555 1_555
Si6 O3 1_555 1_555
Cu4 S4 1_555 1_555
I4 Cu4 1_555 1_555
Cu5 I5 1_555 1_555
I5 Cu1 1_555 1_555
Cu10 I8 1_555 1_555
I8 Cu16 1_555 1_555
S12 Cu5 1_555 1_555
C4 S1 1_555 1_555
C8 C9 1_555 1_555
Cu1 S1 1_555 1_555
C17 Si2 1_555 1_555
C46 S4 1_555 1_555
C50 C51 1_555 1_555
O7 Si6 1_555 1_555
C73 Si6 1_555 1_555
Cu4 I10 1_555 1_555
I4 Cu12 1_555 1_555
Cu10 I11 1_555 1_555
Cu12 I10 1_555 1_555
Cu16 I11 1_555 1_555
I4_2 Cu15 1_555 1_555
S12_2 Cu17 1_555 1_555
Cu15 I10_2 1_555 1_555
I4_2 Cu12_2 1_555 1_555
Cu12_2 I10_2 1_555 1_555
Cu14 I3_2 1_555 1_555
I3_2 Cu11_2 1_555 1_555
I9_2 Cu14 1_555 1_555
S13_2 Cu16 1_555 1_555
Cu11_2 I9_2 1_555 1_555
C43_2 H64_2 1_555 1_555
H65_2 C43_2 1_555 1_555
C44_2 C43_2 1_555 1_555
H66_2 C44_2 1_555 1_555
H67_2 C44_2 1_555 1_555
C45_2 C44_2 1_555 1_555
H68_2 C45_2 1_555 1_555
H69_2 C45_2 1_555 1_555
C46_2 C47_2 1_555 1_555
C47_2 H70_2 1_555 1_555
C48_2 C47_2 1_555 1_555
C49_2 C48_2 1_555 1_555
H71_2 C49_2 1_555 1_555
C50_2 C49_2 1_555 1_555
H72_2 C50_2 1_555 1_555
C51_2 C46_2 1_555 1_555
C52_2 C51_2 1_555 1_555
H73_2 C52_2 1_555 1_555
H74_2 C52_2 1_555 1_555
H75_2 C52_2 1_555 1_555
C53_2 C48_2 1_555 1_555
C54_2 C53_2 1_555 1_555
H76_2 C54_2 1_555 1_555
H77_2 C54_2 1_555 1_555
H78_2 C54_2 1_555 1_555
C55_2 C53_2 1_555 1_555
H79_2 C55_2 1_555 1_555
H80_2 C55_2 1_555 1_555
H81_2 C55_2 1_555 1_555
C56_2 C53_2 1_555 1_555
H82_2 C56_2 1_555 1_555
H83_2 C56_2 1_555 1_555
H84_2 C56_2 1_555 1_555
O7_2 Si4_2 1_555 1_555
S12_2 C43_2 1_555 1_555
Si4_2 O1_2 1_555 1_555
C57_2 H85_2 1_555 1_555
H86_2 C57_2 1_555 1_555
C58_2 C57_2 1_555 1_555
H87_2 C58_2 1_555 1_555
H88_2 C58_2 1_555 1_555
C59_2 C58_2 1_555 1_555
H89_2 C59_2 1_555 1_555
H90_2 C59_2 1_555 1_555
C60_2 C61_2 1_555 1_555
C61_2 H91_2 1_555 1_555
C62_2 C61_2 1_555 1_555
C63_2 C62_2 1_555 1_555
H92_2 C63_2 1_555 1_555
C64_2 C63_2 1_555 1_555
H93_2 C64_2 1_555 1_555
C65_2 C60_2 1_555 1_555
C66_2 C65_2 1_555 1_555
H94_2 C66_2 1_555 1_555
H95_2 C66_2 1_555 1_555
H96_2 C66_2 1_555 1_555
C67_2 C62_2 1_555 1_555
C68_2 C67_2 1_555 1_555
H97_2 C68_2 1_555 1_555
H98_2 C68_2 1_555 1_555
H99_2 C68_2 1_555 1_555
C69_2 C67_2 1_555 1_555
H100_2 C69_2 1_555 1_555
H101_2 C69_2 1_555 1_555
H102_2 C69_2 1_555 1_555
C70_2 C67_2 1_555 1_555
H103_2 C70_2 1_555 1_555
H104_2 C70_2 1_555 1_555
H105_2 C70_2 1_555 1_555
O8_2 Si4_2 1_555 1_555
S12 C57_2 1_555 1_555
Si5_2 O5_2 1_555 1_555
C71_2 H106_2 1_555 1_555
H107_2 C71_2 1_555 1_555
C72_2 C71_2 1_555 1_555
H108_2 C72_2 1_555 1_555
H109_2 C72_2 1_555 1_555
C73_2 C72_2 1_555 1_555
H110_2 C73_2 1_555 1_555
H111_2 C73_2 1_555 1_555
C74_2 C75_2 1_555 1_555
C75_2 H112_2 1_555 1_555
C76_2 C75_2 1_555 1_555
C77_2 C76_2 1_555 1_555
H113_2 C77_2 1_555 1_555
C78_2 C77_2 1_555 1_555
H114_2 C78_2 1_555 1_555
C79_2 C74_2 1_555 1_555
C80_2 C79_2 1_555 1_555
H115_2 C80_2 1_555 1_555
H116_2 C80_2 1_555 1_555
H117_2 C80_2 1_555 1_555
C81_2 C76_2 1_555 1_555
C82_2 C81_2 1_555 1_555
H118_2 C82_2 1_555 1_555
H119_2 C82_2 1_555 1_555
H120_2 C82_2 1_555 1_555
C83_2 C81_2 1_555 1_555
H121_2 C83_2 1_555 1_555
H122_2 C83_2 1_555 1_555
H123_2 C83_2 1_555 1_555
C84_2 C81_2 1_555 1_555
H124_2 C84_2 1_555 1_555
H125_2 C84_2 1_555 1_555
H126_2 C84_2 1_555 1_555
O9_2 Si6_2 1_555 1_555
S13 C71_2 1_555 1_555
Si6_2 O3_2 1_555 1_555
C99_2 H148_2 1_555 1_555
H149_2 C99_2 1_555 1_555
C100_2 C99_2 1_555 1_555
H150_2 C100_2 1_555 1_555
H151_2 C100_2 1_555 1_555
C101_2 C100_2 1_555 1_555
H152_2 C101_2 1_555 1_555
H153_2 C101_2 1_555 1_555
C102_2 C103_2 1_555 1_555
C103_2 H154_2 1_555 1_555
C104_2 C103_2 1_555 1_555
C105_2 C104_2 1_555 1_555
H155_2 C105_2 1_555 1_555
C106_2 C105_2 1_555 1_555
H156_2 C106_2 1_555 1_555
C107_2 C102_2 1_555 1_555
C108_2 C107_2 1_555 1_555
H157_2 C108_2 1_555 1_555
H158_2 C108_2 1_555 1_555
H159_2 C108_2 1_555 1_555
C109_2 C104_2 1_555 1_555
C110_2 C109_2 1_555 1_555
H160_2 C110_2 1_555 1_555
H161_2 C110_2 1_555 1_555
H162_2 C110_2 1_555 1_555
C111_2 C109_2 1_555 1_555
H163_2 C111_2 1_555 1_555
H164_2 C111_2 1_555 1_555
H165_2 C111_2 1_555 1_555
C112_2 C109_2 1_555 1_555
H166_2 C112_2 1_555 1_555
H167_2 C112_2 1_555 1_555
H168_2 C112_2 1_555 1_555
O12_2 Si5_2 1_555 1_555
S13_2 C99_2 1_555 1_555
Si8_2 O9_2 1_555 1_555
C45_2 Si4_2 1_555 1_555
C46_2 S12_2 1_555 1_555
C50_2 C51_2 1_555 1_555
O7_2 Si6_2 1_555 1_555
C59_2 Si5_2 1_555 1_555
C60_2 S12 1_555 1_555
C64_2 C65_2 1_555 1_555
O8_2 Si5_2 1_555 1_555
C73_2 Si6_2 1_555 1_555
C74_2 S13 1_555 1_555
C78_2 C79_2 1_555 1_555
O10_2 Si8_2 1_555 1_555
C101_2 Si8_2 1_555 1_555
C102_2 S13_2 1_555 1_555
C106_2 C107_2 1_555 1_555
O12_2 Si8_2 1_555 1_555
C1_2 H1_2 1_555 1_555
H2_2 C1_2 1_555 1_555
C2_2 C1_2 1_555 1_555
H3_2 C2_2 1_555 1_555
H4_2 C2_2 1_555 1_555
C3_2 C2_2 1_555 1_555
H5_2 C3_2 1_555 1_555
H6_2 C3_2 1_555 1_555
C4_2 C5_2 1_555 1_555
C5_2 H7_2 1_555 1_555
C6_2 C5_2 1_555 1_555
C7_2 C6_2 1_555 1_555
H8_2 C7_2 1_555 1_555
C8_2 C7_2 1_555 1_555
H9_2 C8_2 1_555 1_555
C9_2 C4_2 1_555 1_555
C10_2 C9_2 1_555 1_555
H10_2 C10_2 1_555 1_555
H11_2 C10_2 1_555 1_555
H12_2 C10_2 1_555 1_555
C11_2 C6_2 1_555 1_555
C12_2 C11_2 1_555 1_555
H13_2 C12_2 1_555 1_555
H14_2 C12_2 1_555 1_555
H15_2 C12_2 1_555 1_555
C13_2 C11_2 1_555 1_555
H16_2 C13_2 1_555 1_555
H17_2 C13_2 1_555 1_555
H18_2 C13_2 1_555 1_555
C14_2 C11_2 1_555 1_555
H19_2 C14_2 1_555 1_555
H20_2 C14_2 1_555 1_555
H21_2 C14_2 1_555 1_555
O1_3 Si1_2 1_555 1_555
O2_2 Si1_2 1_555 1_555
S1_2 C1_2 1_555 1_555
Si1_2 C3_2 1_555 1_555
C15_2 H22_2 1_555 1_555
H23_2 C15_2 1_555 1_555
C16_2 C15_2 1_555 1_555
H24_2 C16_2 1_555 1_555
H25_2 C16_2 1_555 1_555
C17_2 C16_2 1_555 1_555
H26_2 C17_2 1_555 1_555
H27_2 C17_2 1_555 1_555
C18_2 C19_2 1_555 1_555
C19_2 H28_2 1_555 1_555
C20_2 C19_2 1_555 1_555
C21_2 C20_2 1_555 1_555
H29_2 C21_2 1_555 1_555
C22_2 C21_2 1_555 1_555
H30_2 C22_2 1_555 1_555
C23_2 C18_2 1_555 1_555
C24_2 C23_2 1_555 1_555
H31_2 C24_2 1_555 1_555
H32_2 C24_2 1_555 1_555
H33_2 C24_2 1_555 1_555
C25_2 C20_2 1_555 1_555
C26_2 C25_2 1_555 1_555
H34_2 C26_2 1_555 1_555
H35_2 C26_2 1_555 1_555
H36_2 C26_2 1_555 1_555
C27_2 C25_2 1_555 1_555
H37_2 C27_2 1_555 1_555
H38_2 C27_2 1_555 1_555
H39_2 C27_2 1_555 1_555
C28_2 C25_2 1_555 1_555
H40_2 C28_2 1_555 1_555
H41_2 C28_2 1_555 1_555
H42_2 C28_2 1_555 1_555
O3_3 Si2_2 1_555 1_555
O4_2 Si2_2 1_555 1_555
S2_2 C15_2 1_555 1_555
Si2_2 O2_2 1_555 1_555
C29_2 H43_2 1_555 1_555
H44_2 C29_2 1_555 1_555
C30_2 C29_2 1_555 1_555
H45_2 C30_2 1_555 1_555
H46_2 C30_2 1_555 1_555
C31_2 C30_2 1_555 1_555
H47_2 C31_2 1_555 1_555
H48_2 C31_2 1_555 1_555
C32_2 C33_2 1_555 1_555
C33_2 H49_2 1_555 1_555
C34_2 C33_2 1_555 1_555
C35_2 C34_2 1_555 1_555
H50_2 C35_2 1_555 1_555
C36_2 C35_2 1_555 1_555
H51_2 C36_2 1_555 1_555
C37_2 C32_2 1_555 1_555
C38_2 C37_2 1_555 1_555
H52_2 C38_2 1_555 1_555
H53_2 C38_2 1_555 1_555
H54_2 C38_2 1_555 1_555
C39_2 C34_2 1_555 1_555
C40_2 C39_2 1_555 1_555
H55_2 C40_2 1_555 1_555
H56_2 C40_2 1_555 1_555
H57_2 C40_2 1_555 1_555
C41_2 C39_2 1_555 1_555
H58_2 C41_2 1_555 1_555
H59_2 C41_2 1_555 1_555
H60_2 C41_2 1_555 1_555
C42_2 C39_2 1_555 1_555
H61_2 C42_2 1_555 1_555
H62_2 C42_2 1_555 1_555
H63_2 C42_2 1_555 1_555
O5_3 Si3_2 1_555 1_555
O6_2 Si1_2 1_555 1_555
S3_2 C29_2 1_555 1_555
Si3_2 C31_2 1_555 1_555
C85_2 H127_2 1_555 1_555
H128_2 C85_2 1_555 1_555
C86_2 C85_2 1_555 1_555
H129_2 C86_2 1_555 1_555
H130_2 C86_2 1_555 1_555
C87_2 C86_2 1_555 1_555
H131_2 C87_2 1_555 1_555
H132_2 C87_2 1_555 1_555
C88_2 C89_2 1_555 1_555
C89_2 H133_2 1_555 1_555
C90_2 C89_2 1_555 1_555
C91_2 C90_2 1_555 1_555
H134_2 C91_2 1_555 1_555
C92_2 C91_2 1_555 1_555
H135_2 C92_2 1_555 1_555
C93_2 C88_2 1_555 1_555
C94_2 C93_2 1_555 1_555
H136_2 C94_2 1_555 1_555
H137_2 C94_2 1_555 1_555
H138_2 C94_2 1_555 1_555
C95_2 C90_2 1_555 1_555
C96_2 C95_2 1_555 1_555
H139_2 C96_2 1_555 1_555
H140_2 C96_2 1_555 1_555
H141_2 C96_2 1_555 1_555
C97_2 C95_2 1_555 1_555
H142_2 C97_2 1_555 1_555
H143_2 C97_2 1_555 1_555
H144_2 C97_2 1_555 1_555
C98_2 C95_2 1_555 1_555
H145_2 C98_2 1_555 1_555
H146_2 C98_2 1_555 1_555
H147_2 C98_2 1_555 1_555
O10_3 Si7_2 1_555 1_555
O11_2 Si3_2 1_555 1_555
S7_2 C85_2 1_555 1_555
Si7_2 O4_2 1_555 1_555
Cu11 S2_2 1_555 1_555
Cu11_2 S7_2 1_555 1_555
Cu12 S3_2 1_555 1_555
C4_2 S1_2 1_555 1_555
C8_2 C9_2 1_555 1_555
Cu12_2 S1_2 1_555 1_555
C17_2 Si2_2 1_555 1_555
C18_2 S2_2 1_555 1_555
C22_2 C23_2 1_555 1_555
C32_2 S3_2 1_555 1_555
C36_2 C37_2 1_555 1_555
O6_2 Si3_2 1_555 1_555
C87_2 Si7_2 1_555 1_555
C88_2 S7_2 1_555 1_555
C92_2 C93_2 1_555 1_555
O11_2 Si7_2 1_555 1_555

#END
