
###############################################################################
#
# This file contains modified crystal structure data generated from the
# MOF subset of the Cambridge Structural Database (CSD) v543 
# hosted by the Cambridge Crystallographic Data Centre (CCDC).
#
# This work is licensed under the Creative Commons
# Attribution-NonCommercial-ShareAlike 4.0 International License.
# To view a copy of this license, visit
# http://creativecommons.org/licenses/by-nc-sa/4.0/
# or send a letter to
# Creative Commons, PO Box 1866, Mountain View, CA 94042, USA.
#
# CIF created using the CSD Python API on 29 September 2022
# The structure has been converted into the P1 space group
# The structure has a 3D framework
# The original CSD entry QEPZOB is in the monoclinic crystal system
# The framework has been calculated to contain at least 10.0% void space
# The void calculation uses a probe of radius 1.32A, grid spacing 0.4
#
###############################################################################

data_QEPZOB
_chemical_formula_moiety         '(C188 H196 Cu12 N16 O40)n'
_symmetry_cell_setting           triclinic
_symmetry_space_group_name_H-M   'P 1'
_symmetry_Int_Tables_number      1
_space_group_name_Hall           'P 1'
loop_
_symmetry_equiv_pos_site_id
_symmetry_equiv_pos_as_xyz
1 x,y,z
_cell_length_a                   12.770(3)
_cell_length_b                   30.195(7)
_cell_length_c                   16.428(4)
_cell_angle_alpha                90
_cell_angle_beta                 108.083(4)
_cell_angle_gamma                90
_cell_volume                     6021.6
loop_
_atom_site_label
_atom_site_type_symbol
_atom_site_fract_x
_atom_site_fract_y
_atom_site_fract_z
N4 N 0.4403(6) 0.1455(2) 0.0883(3)
C34 C 0.4398(6) 0.1041(2) 0.0511(4)
H31 H 0.4822 0.0812 0.0827
C38 C 0.3770(7) 0.1797(2) 0.0412(5)
H34 H 0.3773 0.2074 0.0661
Cu4 Cu 0.51410(13) 0.15542(5) 0.23053(9)
H5 H 0.0390 0.2014 0.7263
C20 C 0.2168(6) 0.1210(3) 0.6769(4)
C21 C 0.2855(4) 0.1224(3) 0.7611(5)
C22 C 0.2405(6) 0.1250(3) 0.8279(3)
C23 C 0.1268(6) 0.1263(3) 0.8105(4)
C24 C 0.0581(4) 0.1249(3) 0.7262(5)
C25 C 0.1032(6) 0.1223(3) 0.6594(3)
C26 C 0.4111(12) 0.1192(5) 0.7852(10)
H18 H 0.4427 0.1210 0.8463
H19 H 0.4383 0.1432 0.7590
H20 H 0.4310 0.0915 0.7654
C27 C 0.0758(10) 0.1275(5) 0.8832(8)
H21 H 0.1333 0.1285 0.9372
H22 H 0.0317 0.1015 0.8807
H23 H 0.0304 0.1534 0.8774
C28 C 0.0256(11) 0.1240(5) 0.5676(8)
H24 H 0.0676 0.1217 0.5284
N3 N 0.3406(7) 0.1162(2) 0.4622(4)
C29 C 0.3144(7) 0.0769(2) 0.4954(5)
H27 H 0.3223 0.0500 0.4703
C30 C 0.2764(7) 0.0778(2) 0.5660(5)
H28 H 0.2589 0.0515 0.5882
C31 C 0.2647(8) 0.1180(3) 0.6034(4)
C32 C 0.2909(7) 0.1573(2) 0.5702(5)
H29 H 0.2830 0.1842 0.5953
C33 C 0.3289(7) 0.1564(2) 0.4996(5)
H30 H 0.3464 0.1827 0.4774
C35 C 0.3760(7) 0.0970(2) 0.9667(5)
H32 H 0.3757 0.0693 0.9418
C36 C 0.3127(7) 0.1312(3) 0.9195(4)
C37 C 0.3132(7) 0.1725(2) 0.9568(5)
H33 H 0.2708 0.1954 0.9252
C41 C 0.0693(15) 0.0632(6) 0.1910(12)
H38 H 0.0429 0.0626 0.1296
H39 H 0.0622 0.0343 0.2130
H40 H 0.0267 0.0841 0.2117
C42 C 0.1925(14) 0.0774(6) 0.2214(12)
C46 C 0.7178(11) 0.1449(4) 0.4708(8)
H47 H 0.7048 0.1763 0.4692
H48 H 0.7528 0.1358 0.5290
H49 H 0.7648 0.1379 0.4369
C47 C 0.6110(12) 0.1212(5) 0.4359(8)
Cu2 Cu 0.38046(13) 0.11563(5) 0.35399(10)
O5 O 0.5211(9) 0.1450(3) 0.4123(6)
O6 O 0.6098(7) 0.0797(3) 0.4322(5)
O7 O 0.2438(8) 0.0811(3) 0.3011(6)
O9 O 0.2356(8) 0.0836(3) 0.1576(6)
Cu7 Cu 0.55345(13) 0.05925(5) 0.28040(9)
O11 O 0.3010(8) 0.1788(3) 0.3078(6)
O13 O 0.4348(7) 0.1043(3) 0.2566(5)
N3_2 N 0.6594(7) 0.6162(2) 0.0378(4)
C29_2 C 0.6856(7) 0.5769(2) 0.0046(5)
H27_2 H 0.6777 0.5500 0.0297
C33_2 C 0.6711(7) 0.6564(2) 0.0004(5)
H30_2 H 0.6536 0.6827 0.0226
C41_2 C 0.9307(15) 0.5632(6) 0.3090(12)
H38_2 H 0.9571 0.5626 0.3704
H39_2 H 0.9378 0.5343 0.2870
H40_2 H 0.9733 0.5841 0.2883
C42_2 C 0.8075(14) 0.5774(6) 0.2786(12)
C46_2 C 0.2822(11) 0.6449(4) 0.0292(8)
H47_2 H 0.2952 0.6763 0.0308
H49_2 H 0.2352 0.6379 0.0631
C47_2 C 0.3890(12) 0.6212(5) 0.0641(8)
Cu2_2 Cu 0.61954(13) 0.61563(5) 0.14601(10)
O5_2 O 0.4789(9) 0.6450(3) 0.0877(6)
O6_2 O 0.3902(7) 0.5797(3) 0.0678(5)
O7_2 O 0.7562(8) 0.5811(3) 0.1989(6)
O9_2 O 0.7644(8) 0.5836(3) 0.3424(6)
Cu7_2 Cu 0.44655(13) 0.55925(5) 0.21960(9)
O11_2 O 0.6990(8) 0.6788(3) 0.1922(6)
O13_2 O 0.5652(7) 0.6043(3) 0.2434(5)
H5_2 H 0.9610 0.7014 0.7737
C20_2 C 0.7832(6) 0.6210(3) 0.8231(4)
C21_2 C 0.7145(4) 0.6224(3) 0.7389(5)
C22_2 C 0.7595(6) 0.6250(3) 0.6721(3)
C23_2 C 0.8732(6) 0.6263(3) 0.6895(4)
C24_2 C 0.9419(4) 0.6249(3) 0.7738(5)
C25_2 C 0.8968(6) 0.6223(3) 0.8406(3)
C26_2 C 0.5889(12) 0.6192(5) 0.7148(10)
H18_2 H 0.5573 0.6210 0.6537
H19_2 H 0.5617 0.6432 0.7410
H20_2 H 0.5690 0.5915 0.7346
C27_2 C 0.9242(10) 0.6275(5) 0.6168(8)
H21_2 H 0.8667 0.6285 0.5628
H22_2 H 0.9683 0.6015 0.6193
H23_2 H 0.9696 0.6534 0.6226
C28_2 C 0.9744(11) 0.6240(5) 0.9324(8)
H24_2 H 0.9324 0.6217 0.9716
C30_2 C 0.7236(7) 0.5778(2) 0.9340(5)
H28_2 H 0.7411 0.5515 0.9118
C31_2 C 0.7353(8) 0.6180(3) 0.8966(4)
C32_2 C 0.7091(7) 0.6573(2) 0.9298(5)
H29_2 H 0.7170 0.6842 0.9047
N4_2 N 0.5597(6) 0.6455(2) 0.4117(3)
C34_2 C 0.5602(6) 0.6041(2) 0.4489(4)
H31_2 H 0.5178 0.5812 0.4173
C35_2 C 0.6240(7) 0.5970(2) 0.5333(5)
H32_2 H 0.6243 0.5693 0.5582
C36_2 C 0.6873(7) 0.6312(3) 0.5805(4)
C37_2 C 0.6868(7) 0.6725(2) 0.5432(5)
H33_2 H 0.7292 0.6954 0.5748
C38_2 C 0.6230(7) 0.6797(2) 0.4588(5)
H34_2 H 0.6227 0.7074 0.4339
H48_2 H 0.2472 0.6358 0.9710
Cu4_2 Cu 0.48590(13) 0.65542(5) 0.26947(9)
H14 H 0.4974 0.0115 0.4231
N2 N 0.4555(6) 0.0109(2) 0.2939(4)
H37 H 0.8210 0.0069 0.1743
C40 C 0.6820(12) 0.0097(4) 0.2122(11)
O8 O 0.6744(7) 0.0193(3) 0.2860(6)
O10 O 0.6040(8) 0.0145(3) 0.1447(6)
O12 O 0.6269(7) 0.1107(3) 0.2558(5)
N1 N 0.3830(6) 0.7036(2) 0.2762(5)
C1 C 0.3504(7) 0.7098(2) 0.3486(4)
H1 H 0.3662 0.6884 0.3914
C2 C 0.2943(8) 0.7481(3) 0.3572(5)
H2 H 0.2725 0.7522 0.4057
C3 C 0.2707(7) 0.7801(2) 0.2934(5)
C4 C 0.3032(8) 0.7739(2) 0.2209(5)
H3 H 0.2874 0.7954 0.1781
C5 C 0.3593(8) 0.7356(3) 0.2123(4)
H4 H 0.3811 0.7315 0.1638
C6 C 0.0348(11) 0.7888(4) 0.2807(9)
H6 H 0.0364 0.7729 0.2305
H7 H 0.0590 0.7697 0.3297
C7 C 0.2223(6) 0.82407(19) 0.3051(6)
C8 C 0.1102(6) 0.8284(2) 0.2935(6)
C9 C 0.0639(5) 0.8702(3) 0.2913(6)
C10 C 0.1297(6) 0.90772(19) 0.3007(6)
C11 C 0.2418(6) 0.9034(2) 0.3123(6)
C12 C 0.2881(5) 0.8616(3) 0.3145(6)
C13 C 0.0805(12) 0.9545(4) 0.2947(9)
H8 H 0.1381 0.9761 0.3029
H9 H 0.0272 0.9586 0.2393
H10 H 0.0454 0.9582 0.3382
C14 C 0.4121(11) 0.8562(4) 0.3399(10)
H11 H 0.4299 0.8254 0.3380
H12 H 0.4400 0.8724 0.3008
H13 H 0.4450 0.8673 0.3969
C15 C 0.4522(6) 0.9977(3) 0.3742(4)
C16 C 0.3878(7) 0.9904(3) 0.2207(3)
H15 H 0.3901 0.9991 0.1670
C17 C 0.3168(6) 0.9568(3) 0.2277(4)
H16 H 0.2715 0.9430 0.1787
C18 C 0.3134(6) 0.9436(2) 0.3079(5)
C19 C 0.3811(7) 0.9641(3) 0.3812(4)
H17 H 0.3788 0.9553 0.4349
H25 H 0.0140 0.8485 0.4416
H26 H 0.0257 0.9002 0.4418
C39 C 0.7905(13) 0.9893(5) 0.2101(10)
H35 H 0.8413 0.9884 0.2671
H36 H 0.7775 0.9598 0.1877
C43 C 0.7327(13) 0.7485(4) 0.2550(9)
H41 H 0.7027 0.7665 0.2907
H42 H 0.8093 0.7430 0.2839
H43 H 0.7249 0.7637 0.2021
C44 C 0.6730(13) 0.7061(5) 0.2371(10)
C45 C 0.2608(15) 0.6124(6) 0.2499(12)
H44 H 0.2444 0.6421 0.2628
H45 H 0.2095 0.6035 0.1962
H46 H 0.2550 0.5929 0.2943
O1 O 0.5965(8) 0.7016(3) 0.2697(6)
O3 O 0.3731(7) 0.6107(3) 0.2442(5)
N1_2 N 0.6170(6) 0.2036(2) 0.2238(5)
C1_2 C 0.6496(7) 0.2098(2) 0.1514(4)
H1_2 H 0.6338 0.1884 0.1086
C2_2 C 0.7057(8) 0.2481(3) 0.1428(5)
H2_2 H 0.7275 0.2522 0.0943
C3_2 C 0.7293(7) 0.2801(2) 0.2066(5)
C4_2 C 0.6968(8) 0.2739(2) 0.2791(5)
H3_2 H 0.7126 0.2954 0.3219
C5_2 C 0.6407(8) 0.2356(3) 0.2877(4)
H4_2 H 0.6189 0.2315 0.3362
C6_2 C 0.9652(11) 0.2888(4) 0.2193(9)
H6_2 H 0.9636 0.2729 0.2695
H7_2 H 0.9410 0.2697 0.1703
C7_2 C 0.7777(6) 0.32407(19) 0.1949(6)
C8_2 C 0.8898(6) 0.3284(2) 0.2065(6)
C9_2 C 0.9361(5) 0.3702(3) 0.2087(6)
C10_2 C 0.8703(6) 0.40772(19) 0.1993(6)
C11_2 C 0.7582(6) 0.4034(2) 0.1877(6)
C12_2 C 0.7119(5) 0.3616(3) 0.1855(6)
C13_2 C 0.9195(12) 0.4545(4) 0.2053(9)
H8_2 H 0.8619 0.4761 0.1971
H9_2 H 0.9728 0.4586 0.2607
H10_2 H 0.9546 0.4582 0.1618
C14_2 C 0.5879(11) 0.3562(4) 0.1601(10)
H11_2 H 0.5701 0.3254 0.1620
H12_2 H 0.5600 0.3724 0.1992
H13_2 H 0.5550 0.3673 0.1031
C15_2 C 0.5478(6) 0.4977(3) 0.1258(4)
H14_2 H 0.5026 0.5115 0.0769
N2_2 N 0.5445(6) 0.5109(2) 0.2061(4)
C16_2 C 0.6122(7) 0.4904(3) 0.2793(3)
H15_2 H 0.6099 0.4991 0.3330
C17_2 C 0.6832(6) 0.4568(3) 0.2723(4)
H16_2 H 0.7285 0.4430 0.3213
C18_2 C 0.6866(6) 0.4436(2) 0.1921(5)
C19_2 C 0.6189(7) 0.4641(3) 0.1188(4)
H17_2 H 0.6212 0.4553 0.0651
H25_2 H 0.9860 0.3485 0.0584
H26_2 H 0.9743 0.4002 0.0582
C39_2 C 0.2095(13) 0.4893(5) 0.2899(10)
H35_2 H 0.1587 0.4884 0.2329
H36_2 H 0.2225 0.4598 0.3123
H37_2 H 0.1790 0.5069 0.3257
C40_2 C 0.3180(12) 0.5097(4) 0.2878(11)
C43_2 C 0.2673(13) 0.2485(4) 0.2450(9)
H41_2 H 0.2973 0.2665 0.2093
H42_2 H 0.1907 0.2430 0.2161
H43_2 H 0.2751 0.2637 0.2979
C44_2 C 0.3270(13) 0.2061(5) 0.2629(10)
C45_2 C 0.7392(15) 0.1124(6) 0.2501(12)
H44_2 H 0.7556 0.1421 0.2372
H45_2 H 0.7905 0.1035 0.3038
H46_2 H 0.7450 0.0929 0.2057
O1_2 O 0.4035(8) 0.2016(3) 0.2303(6)
O8_2 O 0.3256(7) 0.5193(3) 0.2140(6)
O10_2 O 0.3960(8) 0.5145(3) 0.3553(6)
N1_3 N 0.6170(6) 0.2964(2) 0.7238(5)
C1_3 C 0.6496(7) 0.2902(2) 0.6514(4)
H1_3 H 0.6338 0.3116 0.6086
C2_3 C 0.7057(8) 0.2519(3) 0.6428(5)
H2_3 H 0.7275 0.2478 0.5943
C3_3 C 0.7293(7) 0.2199(2) 0.7066(5)
C4_3 C 0.6968(8) 0.2261(2) 0.7791(5)
H3_3 H 0.7126 0.2046 0.8219
C5_3 C 0.6407(8) 0.2644(3) 0.7877(4)
H4_3 H 0.6189 0.2685 0.8362
C6_3 C 0.9652(11) 0.2112(4) 0.7193(9)
H6_3 H 0.9636 0.2271 0.7695
H7_3 H 0.9410 0.2303 0.6703
C7_3 C 0.7777(6) 0.17593(19) 0.6949(6)
C8_3 C 0.8898(6) 0.1716(2) 0.7065(6)
C9_3 C 0.9361(5) 0.1298(3) 0.7087(6)
C10_3 C 0.8703(6) 0.09228(19) 0.6993(6)
C11_3 C 0.7582(6) 0.0966(2) 0.6877(6)
C12_3 C 0.7119(5) 0.1384(3) 0.6855(6)
C13_3 C 0.9195(12) 0.0455(4) 0.7053(9)
H8_3 H 0.8619 0.0239 0.6971
H9_3 H 0.9728 0.0414 0.7607
H10_3 H 0.9546 0.0418 0.6618
C14_3 C 0.5879(11) 0.1438(4) 0.6601(10)
H11_3 H 0.5701 0.1746 0.6620
H12_3 H 0.5600 0.1276 0.6992
H13_3 H 0.5550 0.1327 0.6031
C15_3 C 0.5478(6) 0.0023(3) 0.6258(4)
C16_3 C 0.6122(7) 0.0096(3) 0.7793(3)
H15_3 H 0.6099 0.0009 0.8330
C17_3 C 0.6832(6) 0.0432(3) 0.7723(4)
H16_3 H 0.7285 0.0570 0.8213
C18_3 C 0.6866(6) 0.0564(2) 0.6921(5)
C19_3 C 0.6189(7) 0.0359(3) 0.6188(4)
H17_3 H 0.6212 0.0447 0.5651
H25_3 H 0.9860 0.1515 0.5584
H26_3 H 0.9743 0.0998 0.5582
C39_3 C 0.2095(13) 0.0107(5) 0.7899(10)
H35_3 H 0.1587 0.0116 0.7329
H36_3 H 0.2225 0.0402 0.8123
C43_3 C 0.2673(13) 0.2515(4) 0.7450(9)
H41_3 H 0.2973 0.2335 0.7093
H42_3 H 0.1907 0.2570 0.7161
H43_3 H 0.2751 0.2363 0.7979
C44_3 C 0.3270(13) 0.2939(5) 0.7629(10)
C45_3 C 0.7392(15) 0.3876(6) 0.7501(12)
H44_3 H 0.7556 0.3579 0.7372
H45_3 H 0.7905 0.3965 0.8038
H46_3 H 0.7450 0.4071 0.7057
Cu1 Cu 0.51410(13) 0.34458(5) 0.73053(9)
O1_3 O 0.4035(8) 0.2984(3) 0.7303(6)
O2 O 0.3010(8) 0.3212(3) 0.8078(6)
O3_2 O 0.6269(7) 0.3893(3) 0.7558(5)
O4 O 0.4348(7) 0.3957(3) 0.7566(5)
N5 N 0.4403(6) 0.3545(2) 0.5883(3)
Cu5 Cu 0.38046(13) 0.38437(5) 0.85399(10)
Cu6 Cu 0.55345(13) 0.44075(5) 0.78040(9)
H14_3 H 0.5026 0.9885 0.5769
N2_3 N 0.5445(6) 0.9891(2) 0.7061(4)
H37_3 H 0.1790 0.9931 0.8257
C40_3 C 0.3180(12) 0.9903(4) 0.7878(11)
Cu3 Cu 0.44655(13) 0.94075(5) 0.71960(9)
O8_3 O 0.3256(7) 0.9807(3) 0.7140(6)
O10_3 O 0.3960(8) 0.9855(3) 0.8553(6)
O12_2 O 0.3731(7) 0.8893(3) 0.7442(5)
O14 O 0.5652(7) 0.8957(3) 0.7434(5)
O15 O 0.3902(7) 0.9203(3) 0.5678(5)
N1_4 N 0.3830(6) 0.7964(2) 0.7762(5)
C1_4 C 0.3504(7) 0.7902(2) 0.8486(4)
H1_4 H 0.3662 0.8116 0.8914
C2_4 C 0.2943(8) 0.7519(3) 0.8572(5)
H2_4 H 0.2725 0.7478 0.9057
C3_4 C 0.2707(7) 0.7199(2) 0.7934(5)
C4_4 C 0.3032(8) 0.7261(2) 0.7209(5)
H3_4 H 0.2874 0.7046 0.6781
C5_4 C 0.3593(8) 0.7644(3) 0.7123(4)
H4_4 H 0.3811 0.7685 0.6638
C6_4 C 0.0348(11) 0.7112(4) 0.7807(9)
H6_4 H 0.0364 0.7271 0.7305
H7_4 H 0.0590 0.7303 0.8297
C7_4 C 0.2223(6) 0.67593(19) 0.8051(6)
C8_4 C 0.1102(6) 0.6716(2) 0.7935(6)
C9_4 C 0.0639(5) 0.6298(3) 0.7913(6)
C10_4 C 0.1297(6) 0.59228(19) 0.8007(6)
C11_4 C 0.2418(6) 0.5966(2) 0.8123(6)
C12_4 C 0.2881(5) 0.6384(3) 0.8145(6)
C13_4 C 0.0805(12) 0.5455(4) 0.7947(9)
H8_4 H 0.1381 0.5239 0.8029
H9_4 H 0.0272 0.5414 0.7393
H10_4 H 0.0454 0.5418 0.8382
C14_4 C 0.4121(11) 0.6438(4) 0.8399(10)
H11_4 H 0.4299 0.6746 0.8380
H12_4 H 0.4400 0.6276 0.8008
H13_4 H 0.4450 0.6327 0.8969
C15_4 C 0.4522(6) 0.5023(3) 0.8742(4)
H14_4 H 0.4974 0.4885 0.9231
N2_4 N 0.4555(6) 0.4891(2) 0.7939(4)
C16_4 C 0.3878(7) 0.5096(3) 0.7207(3)
H15_4 H 0.3901 0.5009 0.6670
C17_4 C 0.3168(6) 0.5432(3) 0.7277(4)
H16_4 H 0.2715 0.5570 0.6787
C18_4 C 0.3134(6) 0.5564(2) 0.8079(5)
C19_4 C 0.3811(7) 0.5359(3) 0.8812(4)
H17_4 H 0.3788 0.5447 0.9349
H25_4 H 0.0140 0.6515 0.9416
H26_4 H 0.0257 0.5998 0.9418
C39_4 C 0.7905(13) 0.5107(5) 0.7101(10)
H35_4 H 0.8413 0.5116 0.7671
H36_4 H 0.7775 0.5402 0.6877
H37_4 H 0.8210 0.4931 0.6743
C40_4 C 0.6820(12) 0.4903(4) 0.7122(11)
C43_4 C 0.7327(13) 0.7515(4) 0.7550(9)
H41_4 H 0.7027 0.7335 0.7907
H42_4 H 0.8093 0.7570 0.7839
H43_4 H 0.7249 0.7363 0.7021
C44_4 C 0.6730(13) 0.7939(5) 0.7371(10)
C45_4 C 0.2608(15) 0.8876(6) 0.7499(12)
H44_4 H 0.2444 0.8579 0.7628
H45_4 H 0.2095 0.8965 0.6962
H46_4 H 0.2550 0.9071 0.7943
Cu1_2 Cu 0.48590(13) 0.84458(5) 0.76947(9)
O1_4 O 0.5965(8) 0.7984(3) 0.7697(6)
O2_2 O 0.6990(8) 0.8212(3) 0.6922(6)
O8_4 O 0.6744(7) 0.4807(3) 0.7860(6)
O10_4 O 0.6040(8) 0.4855(3) 0.6447(6)
N5_2 N 0.5597(6) 0.8545(2) 0.9117(3)
Cu5_2 Cu 0.61954(13) 0.88437(5) 0.64601(10)
O15_2 O 0.6098(7) 0.4203(3) 0.9322(5)
H5_3 H 0.9610 0.7986 0.2737
C20_3 C 0.7832(6) 0.8790(3) 0.3231(4)
C21_3 C 0.7145(4) 0.8776(3) 0.2389(5)
C22_3 C 0.7595(6) 0.8750(3) 0.1721(3)
C23_3 C 0.8732(6) 0.8737(3) 0.1895(4)
C24_3 C 0.9419(4) 0.8751(3) 0.2738(5)
C25_3 C 0.8968(6) 0.8777(3) 0.3406(3)
C26_3 C 0.5889(12) 0.8808(5) 0.2148(10)
H18_3 H 0.5573 0.8790 0.1537
H19_3 H 0.5617 0.8568 0.2410
H20_3 H 0.5690 0.9085 0.2346
C27_3 C 0.9242(10) 0.8725(5) 0.1168(8)
H21_3 H 0.8667 0.8715 0.0628
H22_3 H 0.9683 0.8985 0.1193
H23_3 H 0.9696 0.8466 0.1226
C28_3 C 0.9744(11) 0.8760(5) 0.4324(8)
H24_3 H 0.9324 0.8783 0.4716
N3_3 N 0.6594(7) 0.8838(2) 0.5378(4)
C29_3 C 0.6856(7) 0.9231(2) 0.5046(5)
H27_3 H 0.6777 0.9500 0.5297
C30_3 C 0.7236(7) 0.9222(2) 0.4340(5)
H28_3 H 0.7411 0.9485 0.4118
C31_3 C 0.7353(8) 0.8820(3) 0.3966(4)
C32_3 C 0.7091(7) 0.8427(2) 0.4298(5)
H29_3 H 0.7170 0.8158 0.4047
C33_3 C 0.6711(7) 0.8436(2) 0.5004(5)
H30_3 H 0.6536 0.8173 0.5226
C35_3 C 0.6240(7) 0.9030(2) 0.0333(5)
H32_3 H 0.6243 0.9307 0.0582
C36_3 C 0.6873(7) 0.8688(3) 0.0805(4)
C37_3 C 0.6868(7) 0.8275(2) 0.0432(5)
H33_3 H 0.7292 0.8046 0.0748
C41_3 C 0.9307(15) 0.9368(6) 0.8090(12)
H38_3 H 0.9571 0.9374 0.8704
H39_3 H 0.9378 0.9657 0.7870
H40_3 H 0.9733 0.9159 0.7883
C42_3 C 0.8075(14) 0.9226(6) 0.7786(12)
C46_3 C 0.2822(11) 0.8551(4) 0.5292(8)
H47_3 H 0.2952 0.8237 0.5308
H48_3 H 0.2472 0.8642 0.4710
H49_3 H 0.2352 0.8621 0.5631
C47_3 C 0.3890(12) 0.8788(5) 0.5641(8)
O5_3 O 0.4789(9) 0.8550(3) 0.5877(6)
O7_3 O 0.7562(8) 0.9189(3) 0.6989(6)
O9_3 O 0.7644(8) 0.9164(3) 0.8424(6)
C34_3 C 0.5602(6) 0.8959(2) 0.9489(4)
H31_3 H 0.5178 0.9188 0.9173
C38_3 C 0.6230(7) 0.8203(2) 0.9588(5)
H34_3 H 0.6227 0.7926 0.9339
H5_4 H 0.0390 0.2986 0.2263
C20_4 C 0.2168(6) 0.3790(3) 0.1769(4)
C21_4 C 0.2855(4) 0.3776(3) 0.2611(5)
C22_4 C 0.2405(6) 0.3750(3) 0.3279(3)
C23_4 C 0.1268(6) 0.3737(3) 0.3105(4)
C24_4 C 0.0581(4) 0.3751(3) 0.2262(5)
C25_4 C 0.1032(6) 0.3777(3) 0.1594(3)
C26_4 C 0.4111(12) 0.3808(5) 0.2852(10)
H18_4 H 0.4427 0.3790 0.3463
H19_4 H 0.4383 0.3568 0.2590
H20_4 H 0.4310 0.4085 0.2654
C27_4 C 0.0758(10) 0.3725(5) 0.3832(8)
H21_4 H 0.1333 0.3715 0.4372
H22_4 H 0.0317 0.3985 0.3807
H23_4 H 0.0304 0.3466 0.3774
C28_4 C 0.0256(11) 0.3760(5) 0.0676(8)
H24_4 H 0.0676 0.3783 0.0284
C30_4 C 0.2764(7) 0.4222(2) 0.0660(5)
H28_4 H 0.2589 0.4485 0.0882
C31_4 C 0.2647(8) 0.3820(3) 0.1034(4)
C32_4 C 0.2909(7) 0.3427(2) 0.0702(5)
H29_4 H 0.2830 0.3158 0.0953
C34_4 C 0.4398(6) 0.3959(2) 0.5511(4)
H31_4 H 0.4822 0.4188 0.5827
C35_4 C 0.3760(7) 0.4030(2) 0.4667(5)
H32_4 H 0.3757 0.4307 0.4418
C36_4 C 0.3127(7) 0.3688(3) 0.4195(4)
C37_4 C 0.3132(7) 0.3275(2) 0.4568(5)
H33_4 H 0.2708 0.3046 0.4252
C38_4 C 0.3770(7) 0.3203(2) 0.5412(5)
H34_4 H 0.3773 0.2926 0.5661
H48_4 H 0.7528 0.3642 0.0290
N3_4 N 0.3406(7) 0.3838(2) 0.9622(4)
C29_4 C 0.3144(7) 0.4231(2) 0.9954(5)
H27_4 H 0.3223 0.4500 0.9703
C33_4 C 0.3289(7) 0.3436(2) 0.9996(5)
H30_4 H 0.3464 0.3173 0.9774
C41_4 C 0.0693(15) 0.4368(6) 0.6910(12)
H38_4 H 0.0429 0.4374 0.6296
H39_4 H 0.0622 0.4657 0.7130
H40_4 H 0.0267 0.4159 0.7117
C42_4 C 0.1925(14) 0.4226(6) 0.7214(12)
C46_4 C 0.7178(11) 0.3551(4) 0.9708(8)
H47_4 H 0.7048 0.3237 0.9692
H49_4 H 0.7648 0.3621 0.9369
C47_4 C 0.6110(12) 0.3788(5) 0.9359(8)
O5_4 O 0.5211(9) 0.3550(3) 0.9123(6)
O7_4 O 0.2438(8) 0.4189(3) 0.8011(6)
O9_4 O 0.2356(8) 0.4164(3) 0.6576(6)
loop_
_geom_bond_atom_site_label_1
_geom_bond_atom_site_label_2
_geom_bond_site_symmetry_1
_geom_bond_site_symmetry_2
N4 C34 1_555 1_555
C34 H31 1_555 1_555
C38 N4 1_555 1_555
H34 C38 1_555 1_555
Cu4 N4 1_555 1_555
C20 C21 1_555 1_555
C21 C22 1_555 1_555
C22 C23 1_555 1_555
C23 C24 1_555 1_555
C25 C20 1_555 1_555
C26 C21 1_555 1_555
H18 C26 1_555 1_555
H19 C26 1_555 1_555
H20 C26 1_555 1_555
C27 C23 1_555 1_555
H21 C27 1_555 1_555
H22 C27 1_555 1_555
H23 C27 1_555 1_555
C28 C25 1_555 1_555
H24 C28 1_555 1_555
N3 C29 1_555 1_555
C29 H27 1_555 1_555
C30 C29 1_555 1_555
H28 C30 1_555 1_555
C31 C20 1_555 1_555
C32 C31 1_555 1_555
H29 C32 1_555 1_555
C33 N3 1_555 1_555
H30 C33 1_555 1_555
H32 C35 1_555 1_555
C36 C22 1_555 1_555
C37 C36 1_555 1_555
H33 C37 1_555 1_555
C41 H38 1_555 1_555
H39 C41 1_555 1_555
H40 C41 1_555 1_555
C42 C41 1_555 1_555
C46 H47 1_555 1_555
H48 C46 1_555 1_555
H49 C46 1_555 1_555
C47 C46 1_555 1_555
Cu2 N3 1_555 1_555
O5 C47 1_555 1_555
O6 C47 1_555 1_555
O7 C42 1_555 1_555
O9 C42 1_555 1_555
Cu7 O6 1_555 1_555
O11 Cu2 1_555 1_555
O13 Cu2 1_555 1_555
C24 C25 1_555 1_555
C30 C31 1_555 1_555
C32 C33 1_555 1_555
C35 C36 1_555 1_555
Cu2 O5 1_555 1_555
Cu2 O7 1_555 1_555
Cu7 O13 1_555 1_555
N3_2 C29_2 1_555 1_555
C29_2 H27_2 1_555 1_555
C33_2 N3_2 1_555 1_555
H30_2 C33_2 1_555 1_555
C41_2 H38_2 1_555 1_555
H39_2 C41_2 1_555 1_555
H40_2 C41_2 1_555 1_555
C42_2 C41_2 1_555 1_555
C46_2 H47_2 1_555 1_555
H49_2 C46_2 1_555 1_555
C47_2 C46_2 1_555 1_555
Cu2_2 N3_2 1_555 1_555
O5_2 C47_2 1_555 1_555
O6_2 C47_2 1_555 1_555
O7_2 C42_2 1_555 1_555
O9_2 C42_2 1_555 1_555
Cu7_2 O6_2 1_555 1_555
O11_2 Cu2_2 1_555 1_555
O13_2 Cu2_2 1_555 1_555
Cu2_2 O5_2 1_555 1_555
Cu2_2 O7_2 1_555 1_555
Cu7_2 O13_2 1_555 1_555
C20_2 C21_2 1_555 1_555
C21_2 C22_2 1_555 1_555
C22_2 C23_2 1_555 1_555
C23_2 C24_2 1_555 1_555
C25_2 C20_2 1_555 1_555
C26_2 C21_2 1_555 1_555
H18_2 C26_2 1_555 1_555
H19_2 C26_2 1_555 1_555
H20_2 C26_2 1_555 1_555
C27_2 C23_2 1_555 1_555
H21_2 C27_2 1_555 1_555
H22_2 C27_2 1_555 1_555
H23_2 C27_2 1_555 1_555
C28_2 C25_2 1_555 1_555
H24_2 C28_2 1_555 1_555
H28_2 C30_2 1_555 1_555
C31_2 C20_2 1_555 1_555
C32_2 C31_2 1_555 1_555
H29_2 C32_2 1_555 1_555
N4_2 C34_2 1_555 1_555
C34_2 H31_2 1_555 1_555
C35_2 C34_2 1_555 1_555
H32_2 C35_2 1_555 1_555
C36_2 C22_2 1_555 1_555
C37_2 C36_2 1_555 1_555
H33_2 C37_2 1_555 1_555
C38_2 N4_2 1_555 1_555
H34_2 C38_2 1_555 1_555
Cu4_2 N4_2 1_555 1_555
C24_2 C25_2 1_555 1_555
C30_2 C31_2 1_555 1_555
C35_2 C36_2 1_555 1_555
C37_2 C38_2 1_555 1_555
Cu7 N2 1_555 1_555
O8 C40 1_555 1_555
O10 C40 1_555 1_555
O12 Cu7 1_555 1_555
Cu7 O8 1_555 1_555
N1 C1 1_555 1_555
C1 H1 1_555 1_555
C2 C1 1_555 1_555
H2 C2 1_555 1_555
C3 C2 1_555 1_555
C4 C3 1_555 1_555
H3 C4 1_555 1_555
C5 N1 1_555 1_555
H4 C5 1_555 1_555
H6 C6 1_555 1_555
H7 C6 1_555 1_555
C7 C3 1_555 1_555
C8 C6 1_555 1_555
C9 C8 1_555 1_555
C10 C9 1_555 1_555
C11 C10 1_555 1_555
C12 C7 1_555 1_555
C13 C10 1_555 1_555
H8 C13 1_555 1_555
H9 C13 1_555 1_555
H10 C13 1_555 1_555
C14 C12 1_555 1_555
H11 C14 1_555 1_555
H12 C14 1_555 1_555
H13 C14 1_555 1_555
H15 C16 1_555 1_555
C17 C16 1_555 1_555
H16 C17 1_555 1_555
C18 C11 1_555 1_555
C19 C15 1_555 1_555
H17 C19 1_555 1_555
C39 H35 1_555 1_555
H36 C39 1_555 1_555
C43 H41 1_555 1_555
H42 C43 1_555 1_555
H43 C43 1_555 1_555
C44 C43 1_555 1_555
C45 H44 1_555 1_555
H45 C45 1_555 1_555
H46 C45 1_555 1_555
Cu4_2 N1 1_555 1_555
O1 C44 1_555 1_555
O11_2 C44 1_555 1_555
O3 C45 1_555 1_555
O13_2 Cu4_2 1_555 1_555
Cu7_2 O3 1_555 1_555
C4 C5 1_555 1_555
C7 C8 1_555 1_555
C11 C12 1_555 1_555
C17 C18 1_555 1_555
C18 C19 1_555 1_555
Cu4_2 O1 1_555 1_555
Cu4_2 O3 1_555 1_555
N1_2 C1_2 1_555 1_555
C1_2 H1_2 1_555 1_555
C2_2 C1_2 1_555 1_555
H2_2 C2_2 1_555 1_555
C3_2 C2_2 1_555 1_555
C4_2 C3_2 1_555 1_555
H3_2 C4_2 1_555 1_555
C5_2 N1_2 1_555 1_555
H4_2 C5_2 1_555 1_555
H6_2 C6_2 1_555 1_555
H7_2 C6_2 1_555 1_555
C7_2 C3_2 1_555 1_555
C8_2 C6_2 1_555 1_555
C9_2 C8_2 1_555 1_555
C10_2 C9_2 1_555 1_555
C11_2 C10_2 1_555 1_555
C12_2 C7_2 1_555 1_555
C13_2 C10_2 1_555 1_555
H8_2 C13_2 1_555 1_555
H9_2 C13_2 1_555 1_555
H10_2 C13_2 1_555 1_555
C14_2 C12_2 1_555 1_555
H11_2 C14_2 1_555 1_555
H12_2 C14_2 1_555 1_555
H13_2 C14_2 1_555 1_555
C15_2 H14_2 1_555 1_555
N2_2 C15_2 1_555 1_555
C16_2 N2_2 1_555 1_555
H15_2 C16_2 1_555 1_555
C17_2 C16_2 1_555 1_555
H16_2 C17_2 1_555 1_555
C18_2 C11_2 1_555 1_555
C19_2 C15_2 1_555 1_555
H17_2 C19_2 1_555 1_555
C39_2 H35_2 1_555 1_555
H36_2 C39_2 1_555 1_555
H37_2 C39_2 1_555 1_555
C40_2 C39_2 1_555 1_555
C43_2 H41_2 1_555 1_555
H42_2 C43_2 1_555 1_555
H43_2 C43_2 1_555 1_555
C44_2 C43_2 1_555 1_555
C45_2 H44_2 1_555 1_555
H45_2 C45_2 1_555 1_555
H46_2 C45_2 1_555 1_555
Cu4 N1_2 1_555 1_555
Cu7_2 N2_2 1_555 1_555
O1_2 C44_2 1_555 1_555
O11 C44_2 1_555 1_555
O12 C45_2 1_555 1_555
O13 Cu4 1_555 1_555
O8_2 C40_2 1_555 1_555
O10_2 C40_2 1_555 1_555
C4_2 C5_2 1_555 1_555
C7_2 C8_2 1_555 1_555
C11_2 C12_2 1_555 1_555
C17_2 C18_2 1_555 1_555
C18_2 C19_2 1_555 1_555
Cu4 O1_2 1_555 1_555
Cu4 O12 1_555 1_555
Cu7_2 O8_2 1_555 1_555
N1_3 C1_3 1_555 1_555
C1_3 H1_3 1_555 1_555
C2_3 C1_3 1_555 1_555
H2_3 C2_3 1_555 1_555
C3_3 C2_3 1_555 1_555
C4_3 C3_3 1_555 1_555
H3_3 C4_3 1_555 1_555
C5_3 N1_3 1_555 1_555
H4_3 C5_3 1_555 1_555
H6_3 C6_3 1_555 1_555
H7_3 C6_3 1_555 1_555
C7_3 C3_3 1_555 1_555
C8_3 C6_3 1_555 1_555
C9_3 C8_3 1_555 1_555
C10_3 C9_3 1_555 1_555
C11_3 C10_3 1_555 1_555
C12_3 C7_3 1_555 1_555
C13_3 C10_3 1_555 1_555
H8_3 C13_3 1_555 1_555
H9_3 C13_3 1_555 1_555
H10_3 C13_3 1_555 1_555
C14_3 C12_3 1_555 1_555
H11_3 C14_3 1_555 1_555
H12_3 C14_3 1_555 1_555
H13_3 C14_3 1_555 1_555
H15_3 C16_3 1_555 1_555
C17_3 C16_3 1_555 1_555
H16_3 C17_3 1_555 1_555
C18_3 C11_3 1_555 1_555
C19_3 C15_3 1_555 1_555
H17_3 C19_3 1_555 1_555
C39_3 H35_3 1_555 1_555
H36_3 C39_3 1_555 1_555
C43_3 H41_3 1_555 1_555
H42_3 C43_3 1_555 1_555
H43_3 C43_3 1_555 1_555
C44_3 C43_3 1_555 1_555
C45_3 H44_3 1_555 1_555
H45_3 C45_3 1_555 1_555
H46_3 C45_3 1_555 1_555
Cu1 N1_3 1_555 1_555
O1_3 C44_3 1_555 1_555
O2 C44_3 1_555 1_555
O3_2 C45_3 1_555 1_555
O4 Cu1 1_555 1_555
N5 Cu1 1_555 1_555
Cu5 O2 1_555 1_555
Cu6 O3_2 1_555 1_555
C4_3 C5_3 1_555 1_555
C7_3 C8_3 1_555 1_555
C11_3 C12_3 1_555 1_555
C17_3 C18_3 1_555 1_555
C18_3 C19_3 1_555 1_555
Cu1 O1_3 1_555 1_555
Cu1 O3_2 1_555 1_555
O4 Cu5 1_555 1_555
O4 Cu6 1_555 1_555
Cu3 N2_3 1_555 1_555
O8_3 C40_3 1_555 1_555
O10_3 C40_3 1_555 1_555
O12_2 Cu3 1_555 1_555
O14 Cu3 1_555 1_555
O15 Cu3 1_555 1_555
Cu3 O8_3 1_555 1_555
N1_4 C1_4 1_555 1_555
C1_4 H1_4 1_555 1_555
C2_4 C1_4 1_555 1_555
H2_4 C2_4 1_555 1_555
C3_4 C2_4 1_555 1_555
C4_4 C3_4 1_555 1_555
H3_4 C4_4 1_555 1_555
C5_4 N1_4 1_555 1_555
H4_4 C5_4 1_555 1_555
H6_4 C6_4 1_555 1_555
H7_4 C6_4 1_555 1_555
C7_4 C3_4 1_555 1_555
C8_4 C6_4 1_555 1_555
C9_4 C8_4 1_555 1_555
C10_4 C9_4 1_555 1_555
C11_4 C10_4 1_555 1_555
C12_4 C7_4 1_555 1_555
C13_4 C10_4 1_555 1_555
H8_4 C13_4 1_555 1_555
H9_4 C13_4 1_555 1_555
H10_4 C13_4 1_555 1_555
C14_4 C12_4 1_555 1_555
H11_4 C14_4 1_555 1_555
H12_4 C14_4 1_555 1_555
H13_4 C14_4 1_555 1_555
C15_4 H14_4 1_555 1_555
N2_4 C15_4 1_555 1_555
C16_4 N2_4 1_555 1_555
H15_4 C16_4 1_555 1_555
C17_4 C16_4 1_555 1_555
H16_4 C17_4 1_555 1_555
C18_4 C11_4 1_555 1_555
C19_4 C15_4 1_555 1_555
H17_4 C19_4 1_555 1_555
C39_4 H35_4 1_555 1_555
H36_4 C39_4 1_555 1_555
H37_4 C39_4 1_555 1_555
C40_4 C39_4 1_555 1_555
C43_4 H41_4 1_555 1_555
H42_4 C43_4 1_555 1_555
H43_4 C43_4 1_555 1_555
C44_4 C43_4 1_555 1_555
C45_4 H44_4 1_555 1_555
H45_4 C45_4 1_555 1_555
H46_4 C45_4 1_555 1_555
Cu1_2 N1_4 1_555 1_555
Cu6 N2_4 1_555 1_555
O1_4 C44_4 1_555 1_555
O2_2 C44_4 1_555 1_555
O12_2 C45_4 1_555 1_555
O14 Cu1_2 1_555 1_555
O8_4 C40_4 1_555 1_555
O10_4 C40_4 1_555 1_555
N5_2 Cu1_2 1_555 1_555
Cu5_2 O2_2 1_555 1_555
O15_2 Cu6 1_555 1_555
C4_4 C5_4 1_555 1_555
C7_4 C8_4 1_555 1_555
C11_4 C12_4 1_555 1_555
C17_4 C18_4 1_555 1_555
C18_4 C19_4 1_555 1_555
Cu1_2 O1_4 1_555 1_555
Cu1_2 O12_2 1_555 1_555
Cu6 O8_4 1_555 1_555
O14 Cu5_2 1_555 1_555
C20_3 C21_3 1_555 1_555
C21_3 C22_3 1_555 1_555
C22_3 C23_3 1_555 1_555
C23_3 C24_3 1_555 1_555
C25_3 C20_3 1_555 1_555
C26_3 C21_3 1_555 1_555
H18_3 C26_3 1_555 1_555
H19_3 C26_3 1_555 1_555
H20_3 C26_3 1_555 1_555
C27_3 C23_3 1_555 1_555
H21_3 C27_3 1_555 1_555
H22_3 C27_3 1_555 1_555
H23_3 C27_3 1_555 1_555
C28_3 C25_3 1_555 1_555
H24_3 C28_3 1_555 1_555
N3_3 C29_3 1_555 1_555
C29_3 H27_3 1_555 1_555
C30_3 C29_3 1_555 1_555
H28_3 C30_3 1_555 1_555
C31_3 C20_3 1_555 1_555
C32_3 C31_3 1_555 1_555
H29_3 C32_3 1_555 1_555
C33_3 N3_3 1_555 1_555
H30_3 C33_3 1_555 1_555
H32_3 C35_3 1_555 1_555
C36_3 C22_3 1_555 1_555
C37_3 C36_3 1_555 1_555
H33_3 C37_3 1_555 1_555
C41_3 H38_3 1_555 1_555
H39_3 C41_3 1_555 1_555
H40_3 C41_3 1_555 1_555
C42_3 C41_3 1_555 1_555
C46_3 H47_3 1_555 1_555
H48_3 C46_3 1_555 1_555
H49_3 C46_3 1_555 1_555
C47_3 C46_3 1_555 1_555
Cu5_2 N3_3 1_555 1_555
O5_3 C47_3 1_555 1_555
O15 C47_3 1_555 1_555
O7_3 C42_3 1_555 1_555
O9_3 C42_3 1_555 1_555
C24_3 C25_3 1_555 1_555
C30_3 C31_3 1_555 1_555
C32_3 C33_3 1_555 1_555
C35_3 C36_3 1_555 1_555
Cu5_2 O5_3 1_555 1_555
Cu5_2 O7_3 1_555 1_555
N5_2 C34_3 1_555 1_555
C34_3 H31_3 1_555 1_555
C38_3 N5_2 1_555 1_555
H34_3 C38_3 1_555 1_555
C20_4 C21_4 1_555 1_555
C21_4 C22_4 1_555 1_555
C22_4 C23_4 1_555 1_555
C23_4 C24_4 1_555 1_555
C25_4 C20_4 1_555 1_555
C26_4 C21_4 1_555 1_555
H18_4 C26_4 1_555 1_555
H19_4 C26_4 1_555 1_555
H20_4 C26_4 1_555 1_555
C27_4 C23_4 1_555 1_555
H21_4 C27_4 1_555 1_555
H22_4 C27_4 1_555 1_555
H23_4 C27_4 1_555 1_555
C28_4 C25_4 1_555 1_555
H24_4 C28_4 1_555 1_555
H28_4 C30_4 1_555 1_555
C31_4 C20_4 1_555 1_555
C32_4 C31_4 1_555 1_555
H29_4 C32_4 1_555 1_555
N5 C34_4 1_555 1_555
C34_4 H31_4 1_555 1_555
C35_4 C34_4 1_555 1_555
H32_4 C35_4 1_555 1_555
C36_4 C22_4 1_555 1_555
C37_4 C36_4 1_555 1_555
H33_4 C37_4 1_555 1_555
C38_4 N5 1_555 1_555
H34_4 C38_4 1_555 1_555
C24_4 C25_4 1_555 1_555
C30_4 C31_4 1_555 1_555
C35_4 C36_4 1_555 1_555
C37_4 C38_4 1_555 1_555
N3_4 C29_4 1_555 1_555
C29_4 H27_4 1_555 1_555
C33_4 N3_4 1_555 1_555
H30_4 C33_4 1_555 1_555
C41_4 H38_4 1_555 1_555
H39_4 C41_4 1_555 1_555
H40_4 C41_4 1_555 1_555
C42_4 C41_4 1_555 1_555
C46_4 H47_4 1_555 1_555
H49_4 C46_4 1_555 1_555
C47_4 C46_4 1_555 1_555
Cu5 N3_4 1_555 1_555
O5_4 C47_4 1_555 1_555
O15_2 C47_4 1_555 1_555
O7_4 C42_4 1_555 1_555
O9_4 C42_4 1_555 1_555
Cu5 O5_4 1_555 1_555
Cu5 O7_4 1_555 1_555

#END
