
###############################################################################
#
# This file contains modified crystal structure data generated from the
# MOF subset of the Cambridge Structural Database (CSD) v543 
# hosted by the Cambridge Crystallographic Data Centre (CCDC).
#
# This work is licensed under the Creative Commons
# Attribution-NonCommercial-ShareAlike 4.0 International License.
# To view a copy of this license, visit
# http://creativecommons.org/licenses/by-nc-sa/4.0/
# or send a letter to
# Creative Commons, PO Box 1866, Mountain View, CA 94042, USA.
#
# CIF created using the CSD Python API on 29 September 2022
# The structure has been converted into the P1 space group
# The structure has a 3D framework
# The original CSD entry QEQWER is in the monoclinic crystal system
# The framework has been calculated to contain at least 10.0% void space
# The void calculation uses a probe of radius 1.32A, grid spacing 0.4
#
###############################################################################

data_QEQWER
_chemical_formula_moiety         '(C192 H120 N16 O40 S4 Zn8)n'
_symmetry_cell_setting           triclinic
_symmetry_space_group_name_H-M   'P 1'
_symmetry_Int_Tables_number      1
_space_group_name_Hall           'P 1'
loop_
_symmetry_equiv_pos_site_id
_symmetry_equiv_pos_as_xyz
1 x,y,z
_cell_length_a                   14.8009(3)
_cell_length_b                   24.9586(4)
_cell_length_c                   15.8871(3)
_cell_angle_alpha                90
_cell_angle_beta                 109.8973(19)
_cell_angle_gamma                90
_cell_volume                     5518.5
loop_
_atom_site_label
_atom_site_type_symbol
_atom_site_fract_x
_atom_site_fract_y
_atom_site_fract_z
C38 C 0.0399(4) 0.3547(2) 0.0493(4)
H24 H 0.0939 0.3473 0.0989
O8 O 0.1101(3) 0.30659(14) 0.9573(3)
O9 O 0.0279(3) 0.05619(14) 0.9382(3)
O10 O 0.1755(2) 0.05563(14) 0.9366(3)
C39 C 0.0324(3) 0.33456(19) 0.9665(4)
C42 C 0.1045(3) 0.25110(19) 0.9541(3)
C43 C 0.0305(3) 0.2228(2) 0.9689(3)
C44 C 0.0322(3) 0.1678(2) 0.9649(3)
C45 C 0.1054(3) 0.14053(19) 0.9478(3)
C46 C 0.1793(3) 0.1699(2) 0.9343(3)
H29 H 0.2293 0.1520 0.9232
C47 C 0.1794(3) 0.2253(2) 0.9372(3)
H30 H 0.2288 0.2448 0.9280
C48 C 0.1008(4) 0.0807(2) 0.9407(3)
Zn3 Zn 0.11931(4) 0.98192(2) 0.92305(4)
Zn1 Zn 0.61931(4) 0.48192(2) 0.92305(4)
S1 S 0.13973(10) 0.63035(6) 0.29990(9)
O1 O 0.5630(3) 0.44008(15) 0.9969(2)
O6 O 0.7312(3) 0.43657(15) 0.9273(2)
N1 N 0.5326(3) 0.46831(17) 0.7955(3)
N2 N 0.1970(3) 0.5882(2) 0.3768(3)
N3 N 0.1159(3) 0.5931(2) 0.2121(3)
C1 C 0.4182(4) 0.4606(2) 0.6146(3)
C2 C 0.3840(4) 0.4834(3) 0.6774(4)
H1 H 0.3216 0.4966 0.6597
C3 C 0.4414(4) 0.4866(2) 0.7654(4)
H2 H 0.4164 0.5021 0.8061
C4 C 0.5662(4) 0.4455(2) 0.7354(3)
H3 H 0.6288 0.4325 0.7550
C5 C 0.5123(3) 0.4405(2) 0.6464(3)
H4 H 0.5381 0.4239 0.6073
C6 C 0.3644(4) 0.4588(3) 0.5177(4)
H5 H 0.3803 0.4323 0.4841
C7 C 0.2944(4) 0.4928(2) 0.4752(4)
H6 H 0.2752 0.5176 0.5095
C8 C 0.2457(4) 0.4937(2) 0.3783(4)
C9 C 0.2002(3) 0.5419(2) 0.3355(3)
C10 C 0.1514(3) 0.5443(2) 0.2399(3)
C11 C 0.1477(4) 0.4984(2) 0.1860(4)
C12 C 0.1946(4) 0.4534(2) 0.2290(4)
H7 H 0.1953 0.4232 0.1949
C13 C 0.2418(4) 0.4508(2) 0.3226(4)
H8 H 0.2714 0.4189 0.3476
C14 C 0.0965(4) 0.4972(2) 0.0894(4)
H9 H 0.1167 0.4723 0.0561
C15 C 0.0224(4) 0.5293(2) 0.0446(4)
H10 H 0.0051 0.5559 0.0771
H15 H 0.4092 0.3983 0.9865
C35 C 0.8073(3) 0.43167(18) 0.9947(3)
C36 C 0.8850(3) 0.39635(18) 0.9842(3)
C40 C 0.9510(4) 0.3433(2) 0.8920(4)
H25 H 0.9459 0.3285 0.8369
C41 C 0.8777(4) 0.3744(2) 0.9013(3)
H26 H 0.8230 0.3808 0.8519
H27 H 0.9812 0.2406 0.9812
H28 H 0.9826 0.1484 0.9740
O13 O 0.5279(3) 0.55619(14) 0.9382(3)
O14 O 0.6755(2) 0.55563(14) 0.9366(3)
O1_2 O 0.0630(3) 0.94008(15) 0.9969(2)
O6_2 O 0.2312(3) 0.93657(15) 0.9273(2)
O8_2 O 0.6101(3) 0.80659(14) 0.9573(3)
N1_2 N 0.0326(3) 0.96831(17) 0.7955(3)
C4_2 C 0.0662(4) 0.9455(2) 0.7354(3)
H3_2 H 0.1288 0.9325 0.7550
C5_2 C 0.0123(3) 0.9405(2) 0.6464(3)
H4_2 H 0.0381 0.9239 0.6073
C35_2 C 0.3073(3) 0.93167(18) 0.9947(3)
C36_2 C 0.3850(3) 0.89635(18) 0.9842(3)
C39_2 C 0.5324(3) 0.83456(19) 0.9665(4)
C40_2 C 0.4510(4) 0.8433(2) 0.8920(4)
H25_2 H 0.4459 0.8285 0.8369
C41_2 C 0.3777(4) 0.8744(2) 0.9013(3)
H26_2 H 0.3230 0.8808 0.8519
C42_2 C 0.6045(3) 0.75110(19) 0.9541(3)
C43_2 C 0.5305(3) 0.7228(2) 0.9689(3)
H27_2 H 0.4812 0.7406 0.9812
C44_2 C 0.5322(3) 0.6678(2) 0.9649(3)
H28_2 H 0.4826 0.6484 0.9740
C45_2 C 0.6054(3) 0.64053(19) 0.9478(3)
C46_2 C 0.6793(3) 0.6699(2) 0.9343(3)
H29_2 H 0.7293 0.6520 0.9232
C47_2 C 0.6794(3) 0.7253(2) 0.9372(3)
H30_2 H 0.7288 0.7448 0.9280
C48_2 C 0.6008(4) 0.5807(2) 0.9407(3)
Zn2 Zn 0.76767(4) 0.49863(2) 0.13911(4)
O2 O 0.6530(3) 0.45589(15) 0.1395(2)
O3 O 0.3101(3) 0.32194(14) 0.1881(3)
O4 O 0.2208(2) 0.07327(14) 0.1477(2)
O5 O 0.3606(3) 0.07202(14) 0.1284(2)
O7 O 0.8235(3) 0.45348(15) 0.0682(2)
C21 C 0.5810(3) 0.43660(17) 0.0800(3)
C22 C 0.5088(3) 0.40691(18) 0.1094(3)
C23 C 0.4223(4) 0.3904(2) 0.0467(3)
C24 C 0.3563(4) 0.3628(2) 0.0723(4)
H16 H 0.2984 0.3521 0.0300
C25 C 0.3767(4) 0.35082(19) 0.1624(3)
C26 C 0.4603(4) 0.3672(3) 0.2251(4)
H17 H 0.4725 0.3594 0.2852
C27 C 0.5277(4) 0.3957(2) 0.1995(4)
H18 H 0.5848 0.4071 0.2423
C28 C 0.3107(3) 0.2670(2) 0.1771(3)
C29 C 0.2331(3) 0.2395(2) 0.1855(3)
H19 H 0.1849 0.2577 0.1990
C30 C 0.2282(3) 0.18430(19) 0.1737(3)
H20 H 0.1758 0.1656 0.1784
C31 C 0.3006(3) 0.15669(19) 0.1548(3)
C32 C 0.3791(3) 0.1847(2) 0.1485(3)
H21 H 0.4281 0.1663 0.1367
C33 C 0.3848(3) 0.2400(2) 0.1596(4)
H22 H 0.4375 0.2587 0.1555
C34 C 0.2948(3) 0.09755(19) 0.1420(3)
C37 C 0.9667(4) 0.3859(2) 0.0580(3)
H23 H 0.9720 0.4002 0.1136
O11 O 0.7208(2) 0.57327(14) 0.1477(2)
O12 O 0.8606(3) 0.57202(14) 0.1284(2)
N5 N 0.8544(3) 0.48350(17) 0.2682(3)
C16 C 0.9674(4) 0.4744(2) 0.4498(4)
C17 C 0.8771(4) 0.4523(2) 0.4168(4)
H11 H 0.8526 0.4333 0.4545
C18 C 0.8225(4) 0.4585(2) 0.3270(3)
H12 H 0.7606 0.4444 0.3068
C19 C 0.9443(4) 0.5040(2) 0.3001(4)
H13 H 0.9688 0.5209 0.2604
O3_2 O 0.8101(3) 0.82194(14) 0.1881(3)
C23_2 C 0.9223(4) 0.8904(2) 0.0467(3)
C24_2 C 0.8563(4) 0.8628(2) 0.0723(4)
H16_2 H 0.7984 0.8521 0.0300
C25_2 C 0.8767(4) 0.85082(19) 0.1624(3)
C26_2 C 0.9603(4) 0.8672(3) 0.2251(4)
H17_2 H 0.9725 0.8594 0.2852
C28_2 C 0.8107(3) 0.7670(2) 0.1771(3)
C29_2 C 0.7331(3) 0.7395(2) 0.1855(3)
H19_2 H 0.6849 0.7577 0.1990
C30_2 C 0.7282(3) 0.68430(19) 0.1737(3)
H20_2 H 0.6758 0.6656 0.1784
C31_2 C 0.8006(3) 0.65669(19) 0.1548(3)
C32_2 C 0.8791(3) 0.6847(2) 0.1485(3)
H21_2 H 0.9281 0.6663 0.1367
C33_2 C 0.8848(3) 0.7400(2) 0.1596(4)
H22_2 H 0.9375 0.7587 0.1555
C34_2 C 0.7948(3) 0.59755(19) 0.1420(3)
C20 C 0.0010(4) 0.4992(3) 0.8887(4)
H14 H 0.0618 0.4837 0.9080
Zn5 Zn 0.26767(4) 0.99863(2) 0.13911(4)
O2_2 O 0.1530(3) 0.95589(15) 0.1395(2)
O7_2 O 0.3235(3) 0.95348(15) 0.0682(2)
C21_2 C 0.0810(3) 0.93660(17) 0.0800(3)
C22_2 C 0.0088(3) 0.90691(18) 0.1094(3)
C27_2 C 0.0277(4) 0.8957(2) 0.1995(4)
H18_2 H 0.0848 0.9071 0.2423
C37_2 C 0.4667(4) 0.8859(2) 0.0580(3)
H23_2 H 0.4720 0.9002 0.1136
C38_2 C 0.5399(4) 0.8547(2) 0.0493(4)
H24_2 H 0.5939 0.8473 0.0989
N5_2 N 0.3544(3) 0.98350(17) 0.2682(3)
S1_2 S 0.63973(10) 0.86965(6) 0.79990(9)
N2_2 N 0.6970(3) 0.9118(2) 0.8768(3)
N3_2 N 0.6159(3) 0.9069(2) 0.7121(3)
C9_2 C 0.7002(3) 0.9581(2) 0.8355(3)
C10_2 C 0.6514(3) 0.9557(2) 0.7399(3)
C15_2 C 0.5224(4) 0.9707(2) 0.5446(4)
H10_2 H 0.5051 0.9441 0.5771
C16_2 C 0.4674(4) 0.9744(2) 0.4498(4)
C17_2 C 0.3771(4) 0.9523(2) 0.4168(4)
H11_2 H 0.3526 0.9333 0.4545
C18_2 C 0.3225(4) 0.9585(2) 0.3270(3)
H12_2 H 0.2606 0.9444 0.3068
N4 N 0.8544(3) 0.51650(17) 0.7682(3)
C16_3 C 0.9674(4) 0.5256(2) 0.9498(4)
C17_3 C 0.8771(4) 0.5477(2) 0.9168(4)
H11_3 H 0.8526 0.5667 0.9545
C18_3 C 0.8225(4) 0.5415(2) 0.8270(3)
H12_3 H 0.7606 0.5556 0.8068
C19_2 C 0.9443(4) 0.4960(2) 0.8001(4)
H13_2 H 0.9688 0.4791 0.7604
Zn4 Zn 0.76767(4) 0.50137(2) 0.63911(4)
Zn3_2 Zn 0.11931(4) 0.01808(2) 0.42305(4)
O8_3 O 0.1101(3) 0.69341(14) 0.4573(3)
O9_2 O 0.0279(3) 0.94381(14) 0.4382(3)
O10_2 O 0.1755(2) 0.94437(14) 0.4366(3)
C38_3 C 0.0399(4) 0.6453(2) 0.5493(4)
H24_3 H 0.0939 0.6527 0.5989
C39_3 C 0.0324(3) 0.66544(19) 0.4665(4)
C42_3 C 0.1045(3) 0.74890(19) 0.4541(3)
C43_3 C 0.0305(3) 0.7772(2) 0.4689(3)
C44_3 C 0.0322(3) 0.8322(2) 0.4649(3)
C45_3 C 0.1054(3) 0.85947(19) 0.4478(3)
C46_3 C 0.1793(3) 0.8301(2) 0.4343(3)
H29_3 H 0.2293 0.8480 0.4232
C47_3 C 0.1794(3) 0.7747(2) 0.4372(3)
H30_3 H 0.2288 0.7552 0.4280
C48_3 C 0.1008(4) 0.9193(2) 0.4407(3)
Zn5_2 Zn 0.26767(4) 0.00137(2) 0.63911(4)
Zn1_2 Zn 0.61931(4) 0.51808(2) 0.42305(4)
O1_3 O 0.5630(3) 0.55992(15) 0.4969(2)
O2_3 O 0.6530(3) 0.54411(15) 0.6395(2)
O3_3 O 0.3101(3) 0.67806(14) 0.6881(3)
O4_2 O 0.2208(2) 0.92673(14) 0.6477(2)
O5_2 O 0.3606(3) 0.92798(14) 0.6284(2)
O6_3 O 0.7312(3) 0.56343(15) 0.4273(2)
O7_3 O 0.8235(3) 0.54652(15) 0.5682(2)
N1_3 N 0.5326(3) 0.53169(17) 0.2955(3)
C1_2 C 0.4182(4) 0.5394(2) 0.1146(3)
C2_2 C 0.3840(4) 0.5166(3) 0.1774(4)
H1_2 H 0.3216 0.5034 0.1597
C3_2 C 0.4414(4) 0.5134(2) 0.2654(4)
H2_2 H 0.4164 0.4979 0.3061
C4_3 C 0.5662(4) 0.5545(2) 0.2354(3)
H3_3 H 0.6288 0.5675 0.2550
C5_3 C 0.5123(3) 0.5595(2) 0.1464(3)
H4_3 H 0.5381 0.5761 0.1073
C6_2 C 0.3644(4) 0.5412(3) 0.0177(4)
H6_2 H 0.2752 0.4824 0.0095
C21_3 C 0.5810(3) 0.56340(17) 0.5800(3)
C22_3 C 0.5088(3) 0.59309(18) 0.6094(3)
C23_3 C 0.4223(4) 0.6096(2) 0.5467(3)
H15_2 H 0.4092 0.6017 0.4865
C24_3 C 0.3563(4) 0.6372(2) 0.5723(4)
H16_3 H 0.2984 0.6479 0.5300
C25_3 C 0.3767(4) 0.64918(19) 0.6624(3)
C26_3 C 0.4603(4) 0.6328(3) 0.7251(4)
H17_3 H 0.4725 0.6406 0.7852
C27_3 C 0.5277(4) 0.6043(2) 0.6995(4)
H18_3 H 0.5848 0.5929 0.7423
C28_3 C 0.3107(3) 0.7330(2) 0.6771(3)
C29_3 C 0.2331(3) 0.7605(2) 0.6855(3)
H19_3 H 0.1849 0.7423 0.6990
C30_3 C 0.2282(3) 0.81570(19) 0.6737(3)
H20_3 H 0.1758 0.8344 0.6784
C31_3 C 0.3006(3) 0.84331(19) 0.6548(3)
C32_3 C 0.3791(3) 0.8153(2) 0.6485(3)
H21_3 H 0.4281 0.8337 0.6367
C33_3 C 0.3848(3) 0.7600(2) 0.6596(4)
H22_3 H 0.4375 0.7413 0.6555
C34_3 C 0.2948(3) 0.90245(19) 0.6420(3)
C35_3 C 0.8073(3) 0.56833(18) 0.4947(3)
C36_3 C 0.8850(3) 0.60365(18) 0.4842(3)
C37_3 C 0.9667(4) 0.6141(2) 0.5580(3)
H23_3 H 0.9720 0.5998 0.6136
C40_3 C 0.9510(4) 0.6567(2) 0.3920(4)
H25_3 H 0.9459 0.6715 0.3369
C41_3 C 0.8777(4) 0.6256(2) 0.4013(3)
H26_3 H 0.8230 0.6192 0.3519
H27_3 H 0.9812 0.7594 0.4812
H28_3 H 0.9826 0.8516 0.4740
O11_2 O 0.7208(2) 0.42673(14) 0.6477(2)
O12_2 O 0.8606(3) 0.42798(14) 0.6284(2)
O13_2 O 0.5279(3) 0.44381(14) 0.4382(3)
O14_2 O 0.6755(2) 0.44437(14) 0.4366(3)
N4_2 N 0.3544(3) 0.01650(17) 0.7682(3)
C16_4 C 0.4674(4) 0.0256(2) 0.9498(4)
C17_4 C 0.3771(4) 0.0477(2) 0.9168(4)
H11_4 H 0.3526 0.0667 0.9545
C18_4 C 0.3225(4) 0.0415(2) 0.8270(3)
H12_4 H 0.2606 0.0556 0.8068
O1_4 O 0.0630(3) 0.05992(15) 0.4969(2)
O2_4 O 0.1530(3) 0.04411(15) 0.6395(2)
O6_4 O 0.2312(3) 0.06343(15) 0.4273(2)
O7_4 O 0.3235(3) 0.04652(15) 0.5682(2)
O8_4 O 0.6101(3) 0.19341(14) 0.4573(3)
N1_4 N 0.0326(3) 0.03169(17) 0.2955(3)
C4_4 C 0.0662(4) 0.0545(2) 0.2354(3)
H3_4 H 0.1288 0.0675 0.2550
C5_4 C 0.0123(3) 0.0595(2) 0.1464(3)
H4_4 H 0.0381 0.0761 0.1073
C21_4 C 0.0810(3) 0.06340(17) 0.5800(3)
C22_4 C 0.0088(3) 0.09309(18) 0.6094(3)
C27_4 C 0.0277(4) 0.1043(2) 0.6995(4)
H18_4 H 0.0848 0.0929 0.7423
C35_4 C 0.3073(3) 0.06833(18) 0.4947(3)
C36_4 C 0.3850(3) 0.10365(18) 0.4842(3)
C37_4 C 0.4667(4) 0.1141(2) 0.5580(3)
H23_4 H 0.4720 0.0998 0.6136
C38_4 C 0.5399(4) 0.1453(2) 0.5493(4)
H24_4 H 0.5939 0.1527 0.5989
C39_4 C 0.5324(3) 0.16544(19) 0.4665(4)
C40_4 C 0.4510(4) 0.1567(2) 0.3920(4)
H25_4 H 0.4459 0.1715 0.3369
C41_4 C 0.3777(4) 0.1256(2) 0.4013(3)
H26_4 H 0.3230 0.1192 0.3519
C42_4 C 0.6045(3) 0.24890(19) 0.4541(3)
C43_4 C 0.5305(3) 0.2772(2) 0.4689(3)
H27_4 H 0.4812 0.2594 0.4812
C44_4 C 0.5322(3) 0.3322(2) 0.4649(3)
H28_4 H 0.4826 0.3516 0.4740
C45_4 C 0.6054(3) 0.35947(19) 0.4478(3)
C46_4 C 0.6793(3) 0.3301(2) 0.4343(3)
H29_4 H 0.7293 0.3480 0.4232
C47_4 C 0.6794(3) 0.2747(2) 0.4372(3)
H30_4 H 0.7288 0.2552 0.4280
C48_4 C 0.6008(4) 0.4193(2) 0.4407(3)
O3_4 O 0.8101(3) 0.17806(14) 0.6881(3)
C1_3 C 0.9182(4) 0.0394(2) 0.1146(3)
C2_3 C 0.8840(4) 0.0166(3) 0.1774(4)
H1_3 H 0.8216 0.0034 0.1597
C3_3 C 0.9414(4) 0.0134(2) 0.2654(4)
C6_3 C 0.8644(4) 0.0412(3) 0.0177(4)
C23_4 C 0.9223(4) 0.1096(2) 0.5467(3)
H15_3 H 0.9092 0.1017 0.4865
C24_4 C 0.8563(4) 0.1372(2) 0.5723(4)
H16_4 H 0.7984 0.1479 0.5300
C25_4 C 0.8767(4) 0.14918(19) 0.6624(3)
C26_4 C 0.9603(4) 0.1328(3) 0.7251(4)
H17_4 H 0.9725 0.1406 0.7852
C28_4 C 0.8107(3) 0.2330(2) 0.6771(3)
C29_4 C 0.7331(3) 0.2605(2) 0.6855(3)
H19_4 H 0.6849 0.2423 0.6990
C30_4 C 0.7282(3) 0.31570(19) 0.6737(3)
H20_4 H 0.6758 0.3344 0.6784
C31_4 C 0.8006(3) 0.34331(19) 0.6548(3)
C32_4 C 0.8791(3) 0.3153(2) 0.6485(3)
H21_4 H 0.9281 0.3337 0.6367
C33_4 C 0.8848(3) 0.2600(2) 0.6596(4)
H22_4 H 0.9375 0.2413 0.6555
C34_4 C 0.7948(3) 0.40245(19) 0.6420(3)
S1_3 S 0.13973(10) 0.36965(6) 0.79990(9)
N2_3 N 0.1970(3) 0.4118(2) 0.8768(3)
N3_3 N 0.1159(3) 0.4069(2) 0.7121(3)
H5_2 H 0.3803 0.5677 0.9841
C7_2 C 0.2944(4) 0.5072(2) 0.9752(4)
C8_2 C 0.2457(4) 0.5063(2) 0.8783(4)
C9_3 C 0.2002(3) 0.4581(2) 0.8355(3)
C10_3 C 0.1514(3) 0.4557(2) 0.7399(3)
C11_2 C 0.1477(4) 0.5016(2) 0.6860(4)
C12_2 C 0.1946(4) 0.5466(2) 0.7290(4)
H7_2 H 0.1953 0.5768 0.6949
C13_2 C 0.2418(4) 0.5492(2) 0.8226(4)
H8_2 H 0.2714 0.5811 0.8476
C14_2 C 0.0965(4) 0.5028(2) 0.5894(4)
H9_2 H 0.1167 0.5277 0.5561
C15_3 C 0.0224(4) 0.4707(2) 0.5446(4)
H10_3 H 0.0051 0.4441 0.5771
C20_2 C 0.0010(4) 0.5008(3) 0.3887(4)
H14_2 H 0.0618 0.5163 0.4080
S1_4 S 0.63973(10) 0.13035(6) 0.29990(9)
N2_4 N 0.6970(3) 0.0882(2) 0.3768(3)
N3_4 N 0.6159(3) 0.0931(2) 0.2121(3)
H2_3 H 0.9164 0.0021 0.8061
H6_3 H 0.7752 0.0176 0.5095
C9_4 C 0.7002(3) 0.0419(2) 0.3355(3)
C10_4 C 0.6514(3) 0.0443(2) 0.2399(3)
C15_4 C 0.5224(4) 0.0293(2) 0.0446(4)
H10_4 H 0.5051 0.0559 0.0771
C1_4 C 0.9182(4) 0.9606(2) 0.6146(3)
C2_4 C 0.8840(4) 0.9834(3) 0.6774(4)
H1_4 H 0.8216 0.9966 0.6597
C3_4 C 0.9414(4) 0.9866(2) 0.7654(4)
C6_4 C 0.8644(4) 0.9588(3) 0.5177(4)
H5_3 H 0.8803 0.9323 0.4841
C7_3 C 0.7944(4) 0.9928(2) 0.4752(4)
C8_3 C 0.7457(4) 0.9937(2) 0.3783(4)
C11_3 C 0.6477(4) 0.9984(2) 0.1860(4)
C12_3 C 0.6946(4) 0.9534(2) 0.2290(4)
H7_3 H 0.6953 0.9232 0.1949
C13_3 C 0.7418(4) 0.9508(2) 0.3226(4)
H8_3 H 0.7714 0.9189 0.3476
C14_3 C 0.5965(4) 0.9972(2) 0.0894(4)
H9_3 H 0.6167 0.9723 0.0561
H15_4 H 0.9092 0.8983 0.9865
C19_3 C 0.4443(4) 0.9960(2) 0.8001(4)
H13_3 H 0.4688 0.9791 0.7604
C20_3 C 0.5010(4) 0.9992(3) 0.8887(4)
H14_3 H 0.5618 0.9837 0.9080
H5_4 H 0.8803 0.0677 0.9841
C7_4 C 0.7944(4) 0.0072(2) 0.9752(4)
C8_4 C 0.7457(4) 0.0063(2) 0.8783(4)
C11_4 C 0.6477(4) 0.0016(2) 0.6860(4)
C12_4 C 0.6946(4) 0.0466(2) 0.7290(4)
H7_4 H 0.6953 0.0768 0.6949
C13_4 C 0.7418(4) 0.0492(2) 0.8226(4)
H8_4 H 0.7714 0.0811 0.8476
C14_4 C 0.5965(4) 0.0028(2) 0.5894(4)
H9_4 H 0.6167 0.0277 0.5561
C19_4 C 0.4443(4) 0.0040(2) 0.3001(4)
H13_4 H 0.4688 0.0209 0.2604
C20_4 C 0.5010(4) 0.0008(3) 0.3887(4)
H14_4 H 0.5618 0.0163 0.4080
H2_4 H 0.9164 0.9979 0.3061
H6_4 H 0.7752 0.9824 0.0095
loop_
_geom_bond_atom_site_label_1
_geom_bond_atom_site_label_2
_geom_bond_site_symmetry_1
_geom_bond_site_symmetry_2
H24 C38 1_555 1_555
O8 C39 1_555 1_555
O9 C48 1_555 1_555
O10 C48 1_555 1_555
C42 O8 1_555 1_555
C43 C42 1_555 1_555
C44 C43 1_555 1_555
C45 C44 1_555 1_555
C46 C45 1_555 1_555
H29 C46 1_555 1_555
C47 C42 1_555 1_555
H30 C47 1_555 1_555
C48 C45 1_555 1_555
C46 C47 1_555 1_555
Zn1 O1 1_555 1_555
S1 N2 1_555 1_555
O6 Zn1 1_555 1_555
N1 Zn1 1_555 1_555
N2 C9 1_555 1_555
N3 S1 1_555 1_555
C1 C2 1_555 1_555
C2 H1 1_555 1_555
C3 N1 1_555 1_555
H2 C3 1_555 1_555
C4 N1 1_555 1_555
H3 C4 1_555 1_555
C5 C1 1_555 1_555
H4 C5 1_555 1_555
C6 C1 1_555 1_555
H5 C6 1_555 1_555
C7 C6 1_555 1_555
H6 C7 1_555 1_555
C8 C7 1_555 1_555
C9 C8 1_555 1_555
C10 N3 1_555 1_555
C11 C10 1_555 1_555
C12 C11 1_555 1_555
H7 C12 1_555 1_555
C13 C8 1_555 1_555
H8 C13 1_555 1_555
C14 C11 1_555 1_555
H9 C14 1_555 1_555
C15 C14 1_555 1_555
H10 C15 1_555 1_555
C35 O6 1_555 1_555
C36 C35 1_555 1_555
H25 C40 1_555 1_555
C41 C36 1_555 1_555
H26 C41 1_555 1_555
O13 Zn1 1_555 1_555
O14 Zn1 1_555 1_555
C2 C3 1_555 1_555
C4 C5 1_555 1_555
C9 C10 1_555 1_555
C12 C13 1_555 1_555
C40 C41 1_555 1_555
Zn3 O1_2 1_555 1_555
O6_2 Zn3 1_555 1_555
O8_2 C39_2 1_555 1_555
O13 C48_2 1_555 1_555
O14 C48_2 1_555 1_555
N1_2 Zn3 1_555 1_555
C4_2 N1_2 1_555 1_555
H3_2 C4_2 1_555 1_555
H4_2 C5_2 1_555 1_555
C35_2 O6_2 1_555 1_555
C36_2 C35_2 1_555 1_555
C40_2 C39_2 1_555 1_555
H25_2 C40_2 1_555 1_555
C41_2 C36_2 1_555 1_555
H26_2 C41_2 1_555 1_555
C42_2 O8_2 1_555 1_555
C43_2 C42_2 1_555 1_555
H27_2 C43_2 1_555 1_555
C44_2 C43_2 1_555 1_555
H28_2 C44_2 1_555 1_555
C45_2 C44_2 1_555 1_555
C46_2 C45_2 1_555 1_555
H29_2 C46_2 1_555 1_555
C47_2 C42_2 1_555 1_555
H30_2 C47_2 1_555 1_555
C48_2 C45_2 1_555 1_555
C4_2 C5_2 1_555 1_555
C40_2 C41_2 1_555 1_555
C46_2 C47_2 1_555 1_555
Zn2 O2 1_555 1_555
O2 C21 1_555 1_555
O3 C25 1_555 1_555
O4 C34 1_555 1_555
O5 C34 1_555 1_555
O7 Zn2 1_555 1_555
C21 C22 1_555 1_555
C22 C23 1_555 1_555
C24 C23 1_555 1_555
H16 C24 1_555 1_555
C25 C24 1_555 1_555
C26 C25 1_555 1_555
H17 C26 1_555 1_555
C27 C22 1_555 1_555
H18 C27 1_555 1_555
C28 O3 1_555 1_555
C29 C28 1_555 1_555
H19 C29 1_555 1_555
C30 C29 1_555 1_555
H20 C30 1_555 1_555
C31 C30 1_555 1_555
C32 C31 1_555 1_555
H21 C32 1_555 1_555
C33 C28 1_555 1_555
H22 C33 1_555 1_555
C34 C31 1_555 1_555
H23 C37 1_555 1_555
O11 Zn2 1_555 1_555
O12 Zn2 1_555 1_555
N5 Zn2 1_555 1_555
C26 C27 1_555 1_555
C32 C33 1_555 1_555
N5 C18 1_555 1_555
C17 C16 1_555 1_555
H11 C17 1_555 1_555
C18 C17 1_555 1_555
H12 C18 1_555 1_555
C19 N5 1_555 1_555
H13 C19 1_555 1_555
O3_2 C25_2 1_555 1_555
O11 C34_2 1_555 1_555
O12 C34_2 1_555 1_555
C24_2 C23_2 1_555 1_555
H16_2 C24_2 1_555 1_555
C25_2 C24_2 1_555 1_555
C26_2 C25_2 1_555 1_555
H17_2 C26_2 1_555 1_555
C28_2 O3_2 1_555 1_555
C29_2 C28_2 1_555 1_555
H19_2 C29_2 1_555 1_555
C30_2 C29_2 1_555 1_555
H20_2 C30_2 1_555 1_555
C31_2 C30_2 1_555 1_555
C32_2 C31_2 1_555 1_555
H21_2 C32_2 1_555 1_555
C33_2 C28_2 1_555 1_555
H22_2 C33_2 1_555 1_555
C34_2 C31_2 1_555 1_555
C32_2 C33_2 1_555 1_555
H14 C20 1_555 1_555
Zn5 O2_2 1_555 1_555
O2_2 C21_2 1_555 1_555
O7_2 Zn5 1_555 1_555
C21_2 C22_2 1_555 1_555
C27_2 C22_2 1_555 1_555
H18_2 C27_2 1_555 1_555
H23_2 C37_2 1_555 1_555
C38_2 C37_2 1_555 1_555
H24_2 C38_2 1_555 1_555
N5_2 Zn5 1_555 1_555
S1_2 N2_2 1_555 1_555
N2_2 C9_2 1_555 1_555
N3_2 S1_2 1_555 1_555
N5_2 C18_2 1_555 1_555
C10_2 N3_2 1_555 1_555
H10_2 C15_2 1_555 1_555
C16_2 C15_2 1_555 1_555
C17_2 C16_2 1_555 1_555
H11_2 C17_2 1_555 1_555
C18_2 C17_2 1_555 1_555
H12_2 C18_2 1_555 1_555
C9_2 C10_2 1_555 1_555
N4 C18_3 1_555 1_555
C17_3 C16_3 1_555 1_555
H11_3 C17_3 1_555 1_555
C18_3 C17_3 1_555 1_555
H12_3 C18_3 1_555 1_555
C19_2 N4 1_555 1_555
H13_2 C19_2 1_555 1_555
Zn4 N4 1_555 1_555
O8_3 C39_3 1_555 1_555
O9_2 C48_3 1_555 1_555
O10_2 C48_3 1_555 1_555
H24_3 C38_3 1_555 1_555
C39_3 C38_3 1_555 1_555
C42_3 O8_3 1_555 1_555
C43_3 C42_3 1_555 1_555
C44_3 C43_3 1_555 1_555
C45_3 C44_3 1_555 1_555
C46_3 C45_3 1_555 1_555
H29_3 C46_3 1_555 1_555
C47_3 C42_3 1_555 1_555
H30_3 C47_3 1_555 1_555
C48_3 C45_3 1_555 1_555
C46_3 C47_3 1_555 1_555
Zn1_2 O1_3 1_555 1_555
Zn4 O2_3 1_555 1_555
O1_3 C21_3 1_555 1_555
O2_3 C21_3 1_555 1_555
O3_3 C25_3 1_555 1_555
O4_2 C34_3 1_555 1_555
O5_2 C34_3 1_555 1_555
O6_3 Zn1_2 1_555 1_555
O7_3 Zn4 1_555 1_555
N1_3 Zn1_2 1_555 1_555
C1_2 C2_2 1_555 1_555
C2_2 H1_2 1_555 1_555
C3_2 N1_3 1_555 1_555
H2_2 C3_2 1_555 1_555
C4_3 N1_3 1_555 1_555
H3_3 C4_3 1_555 1_555
C5_3 C1_2 1_555 1_555
H4_3 C5_3 1_555 1_555
C6_2 C1_2 1_555 1_555
C21_3 C22_3 1_555 1_555
C22_3 C23_3 1_555 1_555
C23_3 H15_2 1_555 1_555
C24_3 C23_3 1_555 1_555
H16_3 C24_3 1_555 1_555
C25_3 C24_3 1_555 1_555
C26_3 C25_3 1_555 1_555
H17_3 C26_3 1_555 1_555
C27_3 C22_3 1_555 1_555
H18_3 C27_3 1_555 1_555
C28_3 O3_3 1_555 1_555
C29_3 C28_3 1_555 1_555
H19_3 C29_3 1_555 1_555
C30_3 C29_3 1_555 1_555
H20_3 C30_3 1_555 1_555
C31_3 C30_3 1_555 1_555
C32_3 C31_3 1_555 1_555
H21_3 C32_3 1_555 1_555
C33_3 C28_3 1_555 1_555
H22_3 C33_3 1_555 1_555
C34_3 C31_3 1_555 1_555
C35_3 O6_3 1_555 1_555
C36_3 C35_3 1_555 1_555
C37_3 C36_3 1_555 1_555
H23_3 C37_3 1_555 1_555
H25_3 C40_3 1_555 1_555
C41_3 C36_3 1_555 1_555
H26_3 C41_3 1_555 1_555
O11_2 Zn4 1_555 1_555
O12_2 Zn4 1_555 1_555
O13_2 Zn1_2 1_555 1_555
O14_2 Zn1_2 1_555 1_555
O7_3 C35_3 1_555 1_555
C2_2 C3_2 1_555 1_555
C4_3 C5_3 1_555 1_555
C26_3 C27_3 1_555 1_555
C32_3 C33_3 1_555 1_555
C40_3 C41_3 1_555 1_555
N4_2 C18_4 1_555 1_555
C17_4 C16_4 1_555 1_555
H11_4 C17_4 1_555 1_555
C18_4 C17_4 1_555 1_555
H12_4 C18_4 1_555 1_555
Zn5_2 N4_2 1_555 1_555
Zn3_2 O1_4 1_555 1_555
Zn5_2 O2_4 1_555 1_555
O1_4 C21_4 1_555 1_555
O2_4 C21_4 1_555 1_555
O6_4 Zn3_2 1_555 1_555
O7_4 Zn5_2 1_555 1_555
O8_4 C39_4 1_555 1_555
O13_2 C48_4 1_555 1_555
O14_2 C48_4 1_555 1_555
N1_4 Zn3_2 1_555 1_555
C4_4 N1_4 1_555 1_555
H3_4 C4_4 1_555 1_555
H4_4 C5_4 1_555 1_555
C21_4 C22_4 1_555 1_555
C27_4 C22_4 1_555 1_555
H18_4 C27_4 1_555 1_555
C35_4 O6_4 1_555 1_555
C36_4 C35_4 1_555 1_555
C37_4 C36_4 1_555 1_555
H23_4 C37_4 1_555 1_555
C38_4 C37_4 1_555 1_555
H24_4 C38_4 1_555 1_555
C39_4 C38_4 1_555 1_555
C40_4 C39_4 1_555 1_555
H25_4 C40_4 1_555 1_555
C41_4 C36_4 1_555 1_555
H26_4 C41_4 1_555 1_555
C42_4 O8_4 1_555 1_555
C43_4 C42_4 1_555 1_555
H27_4 C43_4 1_555 1_555
C44_4 C43_4 1_555 1_555
H28_4 C44_4 1_555 1_555
C45_4 C44_4 1_555 1_555
C46_4 C45_4 1_555 1_555
H29_4 C46_4 1_555 1_555
C47_4 C42_4 1_555 1_555
H30_4 C47_4 1_555 1_555
C48_4 C45_4 1_555 1_555
O7_4 C35_4 1_555 1_555
C4_4 C5_4 1_555 1_555
C40_4 C41_4 1_555 1_555
C46_4 C47_4 1_555 1_555
O3_4 C25_4 1_555 1_555
O11_2 C34_4 1_555 1_555
O12_2 C34_4 1_555 1_555
C1_3 C2_3 1_555 1_555
C2_3 H1_3 1_555 1_555
C6_3 C1_3 1_555 1_555
C23_4 H15_3 1_555 1_555
C24_4 C23_4 1_555 1_555
H16_4 C24_4 1_555 1_555
C25_4 C24_4 1_555 1_555
C26_4 C25_4 1_555 1_555
H17_4 C26_4 1_555 1_555
C28_4 O3_4 1_555 1_555
C29_4 C28_4 1_555 1_555
H19_4 C29_4 1_555 1_555
C30_4 C29_4 1_555 1_555
H20_4 C30_4 1_555 1_555
C31_4 C30_4 1_555 1_555
C32_4 C31_4 1_555 1_555
H21_4 C32_4 1_555 1_555
C33_4 C28_4 1_555 1_555
H22_4 C33_4 1_555 1_555
C34_4 C31_4 1_555 1_555
C2_3 C3_3 1_555 1_555
C32_4 C33_4 1_555 1_555
S1_3 N2_3 1_555 1_555
N2_3 C9_3 1_555 1_555
N3_3 S1_3 1_555 1_555
C8_2 C7_2 1_555 1_555
C9_3 C8_2 1_555 1_555
C10_3 N3_3 1_555 1_555
C11_2 C10_3 1_555 1_555
C12_2 C11_2 1_555 1_555
H7_2 C12_2 1_555 1_555
C13_2 C8_2 1_555 1_555
H8_2 C13_2 1_555 1_555
C14_2 C11_2 1_555 1_555
H9_2 C14_2 1_555 1_555
C15_3 C14_2 1_555 1_555
H10_3 C15_3 1_555 1_555
H14_2 C20_2 1_555 1_555
C9_3 C10_3 1_555 1_555
C12_2 C13_2 1_555 1_555
S1_4 N2_4 1_555 1_555
N2_4 C9_4 1_555 1_555
N3_4 S1_4 1_555 1_555
C10_4 N3_4 1_555 1_555
H10_4 C15_4 1_555 1_555
C9_4 C10_4 1_555 1_555
C1_4 C2_4 1_555 1_555
C2_4 H1_4 1_555 1_555
C6_4 C1_4 1_555 1_555
H5_3 C6_4 1_555 1_555
C7_3 C6_4 1_555 1_555
C8_3 C7_3 1_555 1_555
C12_3 C11_3 1_555 1_555
H7_3 C12_3 1_555 1_555
C13_3 C8_3 1_555 1_555
H8_3 C13_3 1_555 1_555
C14_3 C11_3 1_555 1_555
H9_3 C14_3 1_555 1_555
C2_4 C3_4 1_555 1_555
C12_3 C13_3 1_555 1_555
H13_3 C19_3 1_555 1_555
H14_3 C20_3 1_555 1_555
C19_3 C20_3 1_555 1_555
C8_4 C7_4 1_555 1_555
C12_4 C11_4 1_555 1_555
H7_4 C12_4 1_555 1_555
C13_4 C8_4 1_555 1_555
H8_4 C13_4 1_555 1_555
C14_4 C11_4 1_555 1_555
H9_4 C14_4 1_555 1_555
H13_4 C19_4 1_555 1_555
H14_4 C20_4 1_555 1_555
C12_4 C13_4 1_555 1_555
C19_4 C20_4 1_555 1_555

#END
