
###############################################################################
#
# This file contains modified crystal structure data generated from the
# MOF subset of the Cambridge Structural Database (CSD) v543 
# hosted by the Cambridge Crystallographic Data Centre (CCDC).
#
# This work is licensed under the Creative Commons
# Attribution-NonCommercial-ShareAlike 4.0 International License.
# To view a copy of this license, visit
# http://creativecommons.org/licenses/by-nc-sa/4.0/
# or send a letter to
# Creative Commons, PO Box 1866, Mountain View, CA 94042, USA.
#
# CIF created using the CSD Python API on 29 September 2022
# The structure has been converted into the P1 space group
# The structure has a 3D framework
# The original CSD entry QERWAL is in the monoclinic crystal system
# The framework has been calculated to contain at least 10.0% void space
# The void calculation uses a probe of radius 1.32A, grid spacing 0.4
#
###############################################################################

data_QERWAL
_chemical_formula_moiety         '(C96 H84 N24 Ni10 O24)n'
_symmetry_cell_setting           triclinic
_symmetry_space_group_name_H-M   'P 1'
_symmetry_Int_Tables_number      1
_space_group_name_Hall           'P 1'
loop_
_symmetry_equiv_pos_site_id
_symmetry_equiv_pos_as_xyz
1 x,y,z
_cell_length_a                   13.1698(9)
_cell_length_b                   19.1965(12)
_cell_length_c                   16.6969(11)
_cell_angle_alpha                90
_cell_angle_beta                 108.9670(10)
_cell_angle_gamma                90
_cell_volume                     3992.02
loop_
_atom_site_label
_atom_site_type_symbol
_atom_site_fract_x
_atom_site_fract_y
_atom_site_fract_z
C1 C 0.0073(3) 0.0722(2) 0.3381(3)
C2 C 0.0746(3) 0.1209(2) 0.3059(2)
C3 C 0.1787(3) 0.1359(3) 0.3585(3)
H1 H 0.2059 0.1149 0.4129
C4 C 0.2429(3) 0.1817(2) 0.3312(2)
C5 C 0.3553(3) 0.1950(3) 0.3856(3)
C6 C 0.2026(3) 0.2138(3) 0.2529(3)
H2 H 0.2454 0.2463 0.2352
C7 C 0.0993(3) 0.1983(2) 0.2002(2)
C8 C 0.0631(3) 0.2311(3) 0.1147(3)
C9 C 0.0368(3) 0.1506(2) 0.2255(3)
C13 C 0.0230(4) 0.2133(3) 0.5943(3)
H6 H 0.0569 0.2543 0.5835
C14 C 0.0227(3) 0.1533(3) 0.5492(3)
H7 H 0.0575 0.1547 0.5074
H17 H 0.002(5) 0.306(3) 0.690(4)
O1 O 0.0458(2) 0.05709(17) 0.41593(18)
O3 O 0.3944(2) 0.16533(18) 0.45664(18)
O4 O 0.4120(2) 0.23778(17) 0.36005(19)
O5 O 0.1135(2) 0.28293(19) 0.10061(19)
Ni2 Ni 0.0000 0.0000 0.5000
H30 H 0.3109 0.0118 0.5075
N10 N 0.1684(3) 0.0066(2) 0.5868(2)
H32 H 0.157(5) 0.004(3) 0.638(4)
H33 H 0.198(5) 0.049(4) 0.585(4)
Ni4 Ni 0.53753(4) 0.22617(3) 0.47213(3)
Ni5 Ni 0.03753(4) 0.27383(3) 0.97213(3)
Ni2_2 Ni 0.0000 1.0000 0.5000
C25 C 0.0753(4) 0.9056(3) 0.3828(3)
H22 H 0.1115 0.9466 0.3751
C26 C 0.0792(4) 0.8485(3) 0.3350(3)
H23 H 0.1174 0.8508 0.2956
C27 C 0.0276(4) 0.7868(3) 0.3435(3)
N7 N 0.0228(3) 0.9074(2) 0.4406(2)
N8 N 0.0269(4) 0.7299(3) 0.2957(3)
H26 H 0.051(5) 0.731(3) 0.253(3)
C30 C 0.3181(3) 0.8425(3) 0.6099(3)
H28 H 0.3216 0.7991 0.6379
C31 C 0.2474(3) 0.8918(3) 0.6198(3)
H29 H 0.2026 0.8818 0.6529
C32 C 0.2421(3) 0.9559(3) 0.5814(3)
C33 C 0.3109(3) 0.9681(3) 0.5342(3)
C34 C 0.3786(3) 0.9154(3) 0.5271(3)
H31 H 0.4249 0.9243 0.4949
N9 N 0.3831(3) 0.8525(2) 0.5626(2)
H36 H 0.0320 0.8619 0.8121
O8 O 0.0802(2) 0.9508(2) 0.7115(2)
O12 O 0.0140(2) 0.79546(19) 0.94478(19)
Ni3 Ni 0.46247(4) 0.77383(3) 0.52787(3)
C44 C 0.3886(4) 0.6473(3) 0.5992(3)
H37 H 0.4594 0.6477 0.6385
C45 C 0.3221(4) 0.5948(3) 0.6048(3)
H38 H 0.3465 0.5598 0.6468
C46 C 0.2168(4) 0.5929(3) 0.5476(3)
C47 C 0.1867(4) 0.6462(3) 0.4884(3)
H39 H 0.1163 0.6471 0.4486
C48 C 0.2587(3) 0.6972(3) 0.4876(3)
H40 H 0.2359 0.7335 0.4469
N11 N 0.3604(3) 0.6988(2) 0.5414(2)
N12 N 0.1464(4) 0.5423(3) 0.5497(4)
H41 H 0.178(7) 0.508(4) 0.581(5)
H42 H 0.085(5) 0.544(5) 0.510(5)
O17 O 0.6056(2) 0.83467(18) 0.54336(18)
O18 O 0.5880(2) 0.76222(17) 0.63995(19)
O19 O 0.3865(2) 0.78293(19) 0.39939(19)
O20 O 0.5140(2) 0.70454(19) 0.44478(19)
H3 H 0.9680 0.1381 0.1879
C10 C 0.9247(4) 0.0944(3) 0.6172(3)
H4 H 0.8885 0.0534 0.6249
C11 C 0.9208(4) 0.1515(3) 0.6650(3)
H5 H 0.8826 0.1492 0.7044
C12 C 0.9724(4) 0.2132(3) 0.6565(3)
C15 C 0.6114(4) 0.3527(3) 0.4008(3)
H8 H 0.5406 0.3523 0.3615
C16 C 0.6779(4) 0.4052(3) 0.3952(3)
H9 H 0.6535 0.4402 0.3532
C17 C 0.7832(4) 0.4071(3) 0.4524(3)
C18 C 0.8133(4) 0.3538(3) 0.5116(3)
H10 H 0.8837 0.3529 0.5514
C19 C 0.7413(3) 0.3028(3) 0.5124(3)
H11 H 0.7641 0.2665 0.5531
C20 C 0.6819(3) 0.1575(3) 0.3901(3)
H12 H 0.6784 0.2009 0.3621
C21 C 0.7526(3) 0.1082(3) 0.3802(3)
H13 H 0.7974 0.1182 0.3471
C22 C 0.7579(3) 0.0441(3) 0.4186(3)
C23 C 0.6891(3) 0.0319(3) 0.4658(3)
C24 C 0.6214(3) 0.0846(3) 0.4729(3)
H15 H 0.5751 0.0757 0.5051
N1 N 0.9772(3) 0.0926(2) 0.5594(2)
N2 N 0.9731(4) 0.2701(3) 0.7043(3)
H16 H 0.949(5) 0.269(3) 0.747(3)
N3 N 0.6396(3) 0.3012(2) 0.4586(2)
N4 N 0.8536(4) 0.4577(3) 0.4503(4)
H18 H 0.822(7) 0.492(4) 0.419(5)
H19 H 0.915(5) 0.456(5) 0.490(5)
N5 N 0.6169(3) 0.1475(2) 0.4374(2)
O2 O 0.9198(2) 0.0492(2) 0.2885(2)
O6 O 0.9860(2) 0.20454(19) 0.05522(19)
Ni2_3 Ni 1.0000 0.0000 0.5000
O15 O 0.6135(2) 0.21707(19) 0.60061(19)
O16 O 0.4860(2) 0.29546(19) 0.55522(19)
Ni7 Ni 0.96247(4) 0.72617(3) 0.02787(3)
H14 H 0.6891 0.9882 0.4925
N6 N 0.8316(3) 0.9934(2) 0.4132(2)
H20 H 0.843(5) 0.996(3) 0.362(4)
H21 H 0.802(5) 0.951(4) 0.415(4)
Ni2_4 Ni 1.0000 1.0000 0.5000
C28 C 0.9770(4) 0.7867(3) 0.4057(3)
H24 H 0.9431 0.7457 0.4165
C29 C 0.9773(3) 0.8467(3) 0.4508(3)
H25 H 0.9425 0.8453 0.4926
H27 H 0.998(5) 0.694(3) 0.310(4)
C35 C 0.9927(3) 0.9278(2) 0.6619(3)
C36 C 0.9254(3) 0.8791(2) 0.6941(2)
C37 C 0.8213(3) 0.8641(3) 0.6415(3)
H34 H 0.7941 0.8851 0.5871
C38 C 0.7571(3) 0.8183(2) 0.6688(2)
C39 C 0.6447(3) 0.8050(3) 0.6144(3)
C40 C 0.7974(3) 0.7862(3) 0.7471(3)
H35 H 0.7546 0.7537 0.7648
C41 C 0.9007(3) 0.8017(2) 0.7998(2)
C42 C 0.9369(3) 0.7689(3) 0.8853(3)
C43 C 0.9632(3) 0.8494(2) 0.7745(3)
O7 O 0.9542(2) 0.94291(17) 0.58407(18)
O11 O 0.8865(2) 0.71707(19) 0.89939(19)
O13 O 0.1056(2) 0.66533(18) 0.04336(18)
O14 O 0.0880(2) 0.73778(17) 0.13995(19)
C1_2 C 0.4927(3) 0.5722(2) 0.1619(3)
C2_2 C 0.4254(3) 0.6209(2) 0.1941(2)
C3_2 C 0.3213(3) 0.6359(3) 0.1415(3)
H1_2 H 0.2941 0.6149 0.0871
C4_2 C 0.2571(3) 0.6817(2) 0.1688(2)
C5_2 C 0.1447(3) 0.6950(3) 0.1144(3)
C6_2 C 0.2974(3) 0.7138(3) 0.2471(3)
H2_2 H 0.2546 0.7463 0.2648
C7_2 C 0.4007(3) 0.6983(2) 0.2998(2)
C8_2 C 0.4369(3) 0.7311(3) 0.3853(3)
C9_2 C 0.4632(3) 0.6506(2) 0.2745(3)
H3_2 H 0.5320 0.6381 0.3121
C15_2 C 0.8886(4) 0.8527(3) 0.0992(3)
H8_2 H 0.9594 0.8523 0.1385
C16_2 C 0.8221(4) 0.9052(3) 0.1048(3)
H9_2 H 0.8465 0.9402 0.1468
C17_2 C 0.7168(4) 0.9071(3) 0.0476(3)
C20_2 C 0.8181(3) 0.6575(3) 0.1099(3)
H12_2 H 0.8216 0.7009 0.1379
C21_2 C 0.7474(3) 0.6082(3) 0.1198(3)
H13_2 H 0.7026 0.6182 0.1529
C22_2 C 0.7421(3) 0.5441(3) 0.0814(3)
C23_2 C 0.8109(3) 0.5319(3) 0.0342(3)
H14_2 H 0.8109 0.4882 0.0075
C24_2 C 0.8786(3) 0.5846(3) 0.0271(3)
N3_2 N 0.8604(3) 0.8012(2) 0.0414(2)
N4_2 N 0.6464(4) 0.9577(3) 0.0497(4)
H18_2 H 0.678(7) 0.992(4) 0.081(5)
H19_2 H 0.585(5) 0.956(5) 0.010(5)
N5_2 N 0.8831(3) 0.6475(2) 0.0626(2)
N6_2 N 0.6684(3) 0.4934(2) 0.0868(2)
H20_2 H 0.657(5) 0.496(3) 0.138(4)
H21_2 H 0.698(5) 0.451(4) 0.085(4)
O1_2 O 0.4542(2) 0.55709(17) 0.08407(18)
O2_2 O 0.5802(2) 0.5492(2) 0.2115(2)
Ni2_5 Ni 0.5000 0.5000 0.0000
C25_2 C 0.4247(4) 0.4056(3) 0.1172(3)
H22_2 H 0.3885 0.4466 0.1249
C26_2 C 0.4208(4) 0.3485(3) 0.1650(3)
H23_2 H 0.3826 0.3508 0.2044
C27_2 C 0.4724(4) 0.2868(3) 0.1565(3)
C28_2 C 0.5230(4) 0.2867(3) 0.0943(3)
H24_2 H 0.5569 0.2457 0.0835
C29_2 C 0.5227(3) 0.3467(3) 0.0492(3)
H25_2 H 0.5575 0.3453 0.0074
N7_2 N 0.4772(3) 0.4074(2) 0.0594(2)
N8_2 N 0.4731(4) 0.2299(3) 0.2043(3)
H26_2 H 0.449(5) 0.231(3) 0.247(3)
H27_2 H 0.502(5) 0.194(3) 0.190(4)
H31_2 H 0.0751 0.4243 0.0051
C47_2 C 0.3133(4) 0.1462(3) 0.0116(3)
H39_2 H 0.3837 0.1471 0.0514
C48_2 C 0.2413(3) 0.1972(3) 0.0124(3)
H40_2 H 0.2641 0.2335 0.0531
C10_2 C 0.5753(4) 0.5944(3) 0.8828(3)
H4_2 H 0.6115 0.5534 0.8751
C11_2 C 0.5792(4) 0.6515(3) 0.8350(3)
H5_2 H 0.6174 0.6492 0.7956
C12_2 C 0.5276(4) 0.7132(3) 0.8435(3)
C13_2 C 0.4770(4) 0.7133(3) 0.9057(3)
H6_2 H 0.4431 0.7543 0.9165
C14_2 C 0.4773(3) 0.6533(3) 0.9508(3)
H7_2 H 0.4425 0.6547 0.9926
C18_2 C 0.6867(4) 0.8538(3) 0.9884(3)
H10_2 H 0.6163 0.8529 0.9486
C19_2 C 0.7587(3) 0.8028(3) 0.9876(3)
H11_2 H 0.7359 0.7665 0.9469
H15_2 H 0.9249 0.5757 0.9949
N1_2 N 0.5228(3) 0.5926(2) 0.9406(2)
N2_2 N 0.5269(4) 0.7701(3) 0.7957(3)
H16_2 H 0.551(5) 0.769(3) 0.753(3)
H17_2 H 0.498(5) 0.806(3) 0.810(4)
Ni2_6 Ni 0.5000 0.5000 1.0000
C30_2 C 0.1819(3) 0.3425(3) 0.8901(3)
H28_2 H 0.1784 0.2991 0.8621
C31_2 C 0.2526(3) 0.3918(3) 0.8802(3)
H29_2 H 0.2974 0.3818 0.8471
C32_2 C 0.2579(3) 0.4559(3) 0.9186(3)
C33_2 C 0.1891(3) 0.4681(3) 0.9658(3)
H30_2 H 0.1891 0.5118 0.9925
C34_2 C 0.1214(3) 0.4154(3) 0.9729(3)
N9_2 N 0.1169(3) 0.3525(2) 0.9374(2)
N10_2 N 0.3316(3) 0.5066(2) 0.9132(2)
H32_2 H 0.343(5) 0.504(3) 0.862(4)
H33_2 H 0.302(5) 0.549(4) 0.915(4)
C35_2 C 0.5073(3) 0.4278(2) 0.8381(3)
C36_2 C 0.5746(3) 0.3791(2) 0.8059(2)
C37_2 C 0.6787(3) 0.3641(3) 0.8585(3)
H34_2 H 0.7059 0.3851 0.9129
C38_2 C 0.7429(3) 0.3183(2) 0.8312(2)
C39_2 C 0.8553(3) 0.3050(3) 0.8856(3)
C40_2 C 0.7026(3) 0.2862(3) 0.7529(3)
H35_2 H 0.7454 0.2537 0.7352
C41_2 C 0.5993(3) 0.3017(2) 0.7002(2)
C42_2 C 0.5631(3) 0.2689(3) 0.6147(3)
C43_2 C 0.5368(3) 0.3494(2) 0.7255(3)
H36_2 H 0.4680 0.3619 0.6879
O7_2 O 0.5458(2) 0.44291(17) 0.91593(18)
O8_2 O 0.4198(2) 0.4508(2) 0.7885(2)
O9 O 0.8944(2) 0.33467(18) 0.95664(18)
O10 O 0.9120(2) 0.26222(17) 0.86005(19)
C44_2 C 0.1114(4) 0.1473(3) 0.9008(3)
H37_2 H 0.0406 0.1477 0.8615
C45_2 C 0.1779(4) 0.0948(3) 0.8952(3)
H38_2 H 0.1535 0.0598 0.8532
C46_2 C 0.2832(4) 0.0929(3) 0.9524(3)
N11_2 N 0.1396(3) 0.1988(2) 0.9586(2)
N12_2 N 0.3536(4) 0.0423(3) 0.9503(4)
H41_2 H 0.322(7) 0.008(4) 0.919(5)
H42_2 H 0.415(5) 0.044(5) 0.990(5)
loop_
_geom_bond_atom_site_label_1
_geom_bond_atom_site_label_2
_geom_bond_site_symmetry_1
_geom_bond_site_symmetry_2
C1 C2 1_555 1_555
C2 C3 1_555 1_555
C3 H1 1_555 1_555
C4 C3 1_555 1_555
C5 C4 1_555 1_555
C6 C4 1_555 1_555
H2 C6 1_555 1_555
C7 C6 1_555 1_555
C8 C7 1_555 1_555
C9 C2 1_555 1_555
H6 C13 1_555 1_555
C14 C13 1_555 1_555
H7 C14 1_555 1_555
O1 C1 1_555 1_555
O3 C5 1_555 1_555
O4 C5 1_555 1_555
O5 C8 1_555 1_555
N10 Ni2 1_555 1_555
H32 N10 1_555 1_555
H33 N10 1_555 1_555
Ni4 O3 1_555 1_555
C7 C9 1_555 1_555
O1 Ni2 1_555 1_555
O4 Ni4 1_555 1_555
C25 H22 1_555 1_555
C26 C25 1_555 1_555
H23 C26 1_555 1_555
C27 C26 1_555 1_555
N7 Ni2_2 1_555 1_555
N8 C27 1_555 1_555
H26 N8 1_555 1_555
C30 H28 1_555 1_555
C31 C30 1_555 1_555
H29 C31 1_555 1_555
C32 C31 1_555 1_555
C33 C32 1_555 1_555
C34 C33 1_555 1_555
H31 C34 1_555 1_555
N9 C30 1_555 1_555
Ni3 N9 1_555 1_555
C44 H37 1_555 1_555
C45 C44 1_555 1_555
H38 C45 1_555 1_555
C46 C45 1_555 1_555
C47 C46 1_555 1_555
H39 C47 1_555 1_555
C48 C47 1_555 1_555
H40 C48 1_555 1_555
N11 Ni3 1_555 1_555
N12 C46 1_555 1_555
H41 N12 1_555 1_555
H42 N12 1_555 1_555
O17 Ni3 1_555 1_555
O18 Ni3 1_555 1_555
O19 Ni3 1_555 1_555
O20 Ni3 1_555 1_555
C25 N7 1_555 1_555
C34 N9 1_555 1_555
C44 N11 1_555 1_555
C48 N11 1_555 1_555
C10 H4 1_555 1_555
C11 C10 1_555 1_555
H5 C11 1_555 1_555
C12 C11 1_555 1_555
C15 H8 1_555 1_555
C16 C15 1_555 1_555
H9 C16 1_555 1_555
C17 C16 1_555 1_555
C18 C17 1_555 1_555
H10 C18 1_555 1_555
C19 C18 1_555 1_555
H11 C19 1_555 1_555
C20 H12 1_555 1_555
C21 C20 1_555 1_555
H13 C21 1_555 1_555
C22 C21 1_555 1_555
C23 C22 1_555 1_555
C24 C23 1_555 1_555
H15 C24 1_555 1_555
N1 C10 1_555 1_555
N2 C12 1_555 1_555
H16 N2 1_555 1_555
N3 C15 1_555 1_555
N4 C17 1_555 1_555
H18 N4 1_555 1_555
H19 N4 1_555 1_555
N5 C20 1_555 1_555
Ni4 N3 1_555 1_555
Ni2_3 N1 1_555 1_555
O15 Ni4 1_555 1_555
O16 Ni4 1_555 1_555
C19 N3 1_555 1_555
C24 N5 1_555 1_555
N5 Ni4 1_555 1_555
H20 N6 1_555 1_555
H21 N6 1_555 1_555
H24 C28 1_555 1_555
C29 C28 1_555 1_555
H25 C29 1_555 1_555
C35 C36 1_555 1_555
C36 C37 1_555 1_555
C37 H34 1_555 1_555
C38 C37 1_555 1_555
C39 C38 1_555 1_555
C40 C38 1_555 1_555
H35 C40 1_555 1_555
C41 C40 1_555 1_555
C42 C41 1_555 1_555
C43 C36 1_555 1_555
O7 Ni2_4 1_555 1_555
O17 C39 1_555 1_555
O18 C39 1_555 1_555
O11 C42 1_555 1_555
N6 Ni2_4 1_555 1_555
C35 O7 1_555 1_555
C41 C43 1_555 1_555
C1_2 C2_2 1_555 1_555
C2_2 C3_2 1_555 1_555
C3_2 H1_2 1_555 1_555
C4_2 C3_2 1_555 1_555
C5_2 C4_2 1_555 1_555
C6_2 C4_2 1_555 1_555
H2_2 C6_2 1_555 1_555
C7_2 C6_2 1_555 1_555
C8_2 C7_2 1_555 1_555
C9_2 C2_2 1_555 1_555
H3_2 C9_2 1_555 1_555
C15_2 H8_2 1_555 1_555
C16_2 C15_2 1_555 1_555
H9_2 C16_2 1_555 1_555
C17_2 C16_2 1_555 1_555
C20_2 H12_2 1_555 1_555
C21_2 C20_2 1_555 1_555
H13_2 C21_2 1_555 1_555
C22_2 C21_2 1_555 1_555
C23_2 C22_2 1_555 1_555
H14_2 C23_2 1_555 1_555
C24_2 C23_2 1_555 1_555
N3_2 C15_2 1_555 1_555
N4_2 C17_2 1_555 1_555
H18_2 N4_2 1_555 1_555
H19_2 N4_2 1_555 1_555
N5_2 C20_2 1_555 1_555
N6_2 C22_2 1_555 1_555
H20_2 N6_2 1_555 1_555
H21_2 N6_2 1_555 1_555
O1_2 C1_2 1_555 1_555
O2_2 C1_2 1_555 1_555
O13 C5_2 1_555 1_555
O14 C5_2 1_555 1_555
O19 C8_2 1_555 1_555
O20 C8_2 1_555 1_555
Ni7 N3_2 1_555 1_555
C25_2 H22_2 1_555 1_555
C26_2 C25_2 1_555 1_555
H23_2 C26_2 1_555 1_555
C27_2 C26_2 1_555 1_555
C28_2 C27_2 1_555 1_555
H24_2 C28_2 1_555 1_555
C29_2 C28_2 1_555 1_555
H25_2 C29_2 1_555 1_555
N7_2 Ni2_5 1_555 1_555
N8_2 C27_2 1_555 1_555
H26_2 N8_2 1_555 1_555
H27_2 N8_2 1_555 1_555
H39_2 C47_2 1_555 1_555
C48_2 C47_2 1_555 1_555
H40_2 C48_2 1_555 1_555
C7_2 C9_2 1_555 1_555
C24_2 N5_2 1_555 1_555
N5_2 Ni7 1_555 1_555
N6_2 Ni2_5 1_555 1_555
O1_2 Ni2_5 1_555 1_555
C25_2 N7_2 1_555 1_555
C29_2 N7_2 1_555 1_555
C10_2 H4_2 1_555 1_555
C11_2 C10_2 1_555 1_555
H5_2 C11_2 1_555 1_555
C12_2 C11_2 1_555 1_555
C13_2 C12_2 1_555 1_555
H6_2 C13_2 1_555 1_555
C14_2 C13_2 1_555 1_555
H7_2 C14_2 1_555 1_555
H10_2 C18_2 1_555 1_555
C19_2 C18_2 1_555 1_555
H11_2 C19_2 1_555 1_555
N1_2 C10_2 1_555 1_555
N2_2 C12_2 1_555 1_555
H16_2 N2_2 1_555 1_555
H17_2 N2_2 1_555 1_555
Ni2_6 N1_2 1_555 1_555
C30_2 H28_2 1_555 1_555
C31_2 C30_2 1_555 1_555
H29_2 C31_2 1_555 1_555
C32_2 C31_2 1_555 1_555
C33_2 C32_2 1_555 1_555
H30_2 C33_2 1_555 1_555
C34_2 C33_2 1_555 1_555
N9_2 C30_2 1_555 1_555
N10_2 Ni2_6 1_555 1_555
H32_2 N10_2 1_555 1_555
H33_2 N10_2 1_555 1_555
C35_2 C36_2 1_555 1_555
C36_2 C37_2 1_555 1_555
C37_2 H34_2 1_555 1_555
C38_2 C37_2 1_555 1_555
C39_2 C38_2 1_555 1_555
C40_2 C38_2 1_555 1_555
H35_2 C40_2 1_555 1_555
C41_2 C40_2 1_555 1_555
C42_2 C41_2 1_555 1_555
C43_2 C36_2 1_555 1_555
H36_2 C43_2 1_555 1_555
O7_2 Ni2_6 1_555 1_555
O8_2 C35_2 1_555 1_555
O9 C39_2 1_555 1_555
O10 C39_2 1_555 1_555
O15 C42_2 1_555 1_555
O16 C42_2 1_555 1_555
Ni5 N9_2 1_555 1_555
C44_2 H37_2 1_555 1_555
C45_2 C44_2 1_555 1_555
H38_2 C45_2 1_555 1_555
C46_2 C45_2 1_555 1_555
N11_2 Ni5 1_555 1_555
N12_2 C46_2 1_555 1_555
H41_2 N12_2 1_555 1_555
H42_2 N12_2 1_555 1_555
C14_2 N1_2 1_555 1_555
C32_2 N10_2 1_555 1_555
C34_2 N9_2 1_555 1_555
C35_2 O7_2 1_555 1_555
C41_2 C43_2 1_555 1_555
C44_2 N11_2 1_555 1_555

#END
