
###############################################################################
#
# This file contains modified crystal structure data generated from the
# MOF subset of the Cambridge Structural Database (CSD) v543 
# hosted by the Cambridge Crystallographic Data Centre (CCDC).
#
# This work is licensed under the Creative Commons
# Attribution-NonCommercial-ShareAlike 4.0 International License.
# To view a copy of this license, visit
# http://creativecommons.org/licenses/by-nc-sa/4.0/
# or send a letter to
# Creative Commons, PO Box 1866, Mountain View, CA 94042, USA.
#
# CIF created using the CSD Python API on 29 September 2022
# The structure has been converted into the P1 space group
# The structure has a 3D framework
# The original CSD entry QESYOD is in the rhombohedral crystal system
# The framework has been calculated to contain at least 10.0% void space
# The void calculation uses a probe of radius 1.32A, grid spacing 0.4
#
###############################################################################

data_QESYOD
_chemical_formula_moiety         '(C288 H360 Cu27 I45 N72)n'
_symmetry_cell_setting           triclinic
_symmetry_space_group_name_H-M   'P 1'
_symmetry_Int_Tables_number      1
_space_group_name_Hall           'P 1'
loop_
_symmetry_equiv_pos_site_id
_symmetry_equiv_pos_as_xyz
1 x,y,z
_cell_length_a                   26.064(2)
_cell_length_b                   26.064(2)
_cell_length_c                   19.398(2)
_cell_angle_alpha                90
_cell_angle_beta                 90
_cell_angle_gamma                120.00
_cell_volume                     11412.2
loop_
_atom_site_label
_atom_site_type_symbol
_atom_site_fract_x
_atom_site_fract_y
_atom_site_fract_z
Cu1 Cu 0.34842(2) 0.01542(2) 0.08246(2)
I1 I 0.261390(11) -0.000006(11) 0.000004(13)
N1 N 0.35038(13) 0.08373(13) 0.13695(14)
N2 N 0.31632(13) 0.06667(12) 0.19606(15)
N4 N 0.41755(13) 0.01748(13) 0.02943(15)
C1 C 0.36792(15) 0.13620(15) 0.10863(17)
C2 C 0.35085(15) 0.17544(15) 0.13725(18)
C3 C 0.29892(15) 0.10160(15) 0.22441(17)
C4 C 0.26231(17) 0.08298(16) 0.28933(19)
H1 H 0.2376 0.0406 0.2900
H2 H 0.2886 0.0943 0.3282
C5 C 0.22323(17) 0.11169(16) 0.29580(19)
C6 C 0.40429(16) 0.15409(15) 0.04412(19)
H3 H 0.3778 0.1393 0.0054
H4 H 0.4289 0.1363 0.0430
C7 C 0.17472(19) 0.08722(19) 0.2407(2)
H5 H 0.1507 0.1054 0.2453
H6 H 0.1926 0.0953 0.1958
H7 H 0.1506 0.0450 0.2457
C8 C 0.19586(19) 0.09792(19) 0.3679(2)
H8 H 0.1718 0.0558 0.3734
H9 H 0.2265 0.1132 0.4023
H10 H 0.1719 0.1159 0.3741
C11 C 0.47077(15) 0.03732(15) 0.05612(18)
C12 C 0.49015(16) 0.07802(17) 0.11652(19)
H11 H 0.5069 0.1180 0.1000
H12 H 0.4561 0.0694 0.1440
C13 C 0.53734(16) 0.07424(18) 0.16224(18)
C15 C 0.50822(19) 0.0164(2) 0.2028(2)
H15 H 0.4744 0.0126 0.2271
H17 H 0.5356 0.0156 0.2353
C16 C 0.56336(19) 0.1268(2) 0.2117(2)
H18 H 0.5817 0.1625 0.1848
H19 H 0.5330 0.1267 0.2398
H20 H 0.5927 0.1263 0.2411
Cu3 Cu 0.31825(2) 0.31791(2) 0.25087(2)
Cu5 Cu 0.318265(28) 0.000331(19) 0.25086(2)
Cu6 Cu 0.348402(28) 0.333002(19) 0.08247(2)
Cu7 Cu 0.666998(19) 0.01540(2) 0.08247(2)
Cu8 Cu 0.333665(19) 0.34873(2) 0.41580(2)
I3 I 0.405277(11) 0.333339(11) 0.333329(13)
I4 I 0.405271(16) 0.071943(11) 0.333337(13)
I6 I 0.333327(11) 0.404713(11) 0.166683(14)
N5 N 0.31629(13) 0.24960(13) 0.19638(14)
N6 N 0.35035(13) 0.26666(12) 0.13727(15)
N8 N 0.59999(12) 0.01760(13) 0.02940(15)
N11 N 0.24912(13) 0.31585(13) 0.30390(15)
C17 C 0.29875(15) 0.19713(15) 0.22470(17)
C18 C 0.31582(15) 0.15789(15) 0.19608(18)
C19 C 0.36775(15) 0.23173(15) 0.10892(17)
C20 C 0.40436(17) 0.25035(16) 0.04400(19)
H21 H 0.4291 0.2927 0.0433
H22 H 0.3781 0.2390 0.0051
C21 C 0.44344(17) 0.22164(16) 0.03753(19)
C22 C 0.26238(16) 0.17924(15) 0.28921(19)
H23 H 0.2889 0.1940 0.3279
H24 H 0.2378 0.1970 0.2903
C23 C 0.49195(19) 0.24611(19) 0.0926(2)
H25 H 0.5160 0.2279 0.0880
H26 H 0.4741 0.2380 0.1375
H27 H 0.5161 0.2883 0.0876
C25 C 0.56638(15) 0.03719(15) 0.05623(18)
C26 C 0.50977(15) 0.01927(15) 0.02816(17)
C30 C 0.58769(16) 0.07790(16) 0.11672(19)
H33 H 0.6133 0.0695 0.1441
H34 H 0.6106 0.1178 0.1000
I1_2 I 0.261390(11) -0.000006(11) 1.000004(13)
I5 I 0.404713(11) 0.071387(16) 0.833317(14)
C24 C 0.47081(19) 0.23541(19) 0.9654(2)
H28 H 0.4949 0.2775 0.9599
H29 H 0.4402 0.2201 0.9310
H30 H 0.4948 0.2174 0.9592
H36 H 0.5045 0.0166 0.8281
I1_3 I 0.261390(11) 0.999994(11) 0.000004(13)
I2 I 0.333340(11) 0.928620(11) 0.166650(14)
H16 H 0.4955 0.9834 0.1719
N9 N 0.24906(18) 0.93332(12) 0.30393(15)
Cu2 Cu 0.333002(19) 0.98460(2) 0.91753(2)
I1_4 I 0.261390(11) 0.999994(11) 1.000004(13)
N3 N 0.40001(12) 0.98240(13) 0.97060(15)
C9 C 0.43362(15) 0.96281(15) 0.94377(18)
C10 C 0.49023(15) 0.98073(15) 0.97184(17)
C14 C 0.41231(16) 0.92210(16) 0.88328(19)
H13 H 0.3867 0.9305 0.8559
H14 H 0.3894 0.8822 0.9000
Cu4 Cu 0.65158(2) 0.98458(2) 0.91754(2)
N7 N 0.26666(12) 0.91632(18) 0.86273(15)
N10 N 0.58245(13) 0.98252(13) 0.97057(15)
C27 C 0.52923(15) 0.96268(15) 0.94388(18)
C28 C 0.50985(16) 0.92198(17) 0.88348(19)
H31 H 0.4931 0.8820 0.9000
H32 H 0.5439 0.9306 0.8560
C29 C 0.46266(16) 0.92576(18) 0.83776(18)
C31 C 0.49178(19) 0.9836(2) 0.7972(2)
H35 H 0.5256 0.9874 0.7729
H37 H 0.4644 0.9844 0.7647
C32 C 0.43664(19) 0.8732(2) 0.7883(2)
H38 H 0.4183 0.8375 0.8152
H39 H 0.4670 0.8733 0.7602
H40 H 0.4073 0.8737 0.7589
I1_5 I 0.000006(11) 0.261396(16) 0.000004(13)
I2_2 I 0.071380(11) 0.404720(16) 0.166650(14)
H16_2 H 0.0166 0.5121 0.1719
N9_2 N 0.06668(12) 0.31573(22) 0.30393(15)
Cu2_2 Cu 0.01540(2) 0.348402(28) 0.91753(2)
I1_6 I 0.000006(11) 0.261396(16) 1.000004(13)
N3_2 N 0.01760(13) 0.41761(18) 0.97060(15)
C9_2 C 0.03719(15) 0.47081(21) 0.94377(18)
C10_2 C 0.01927(15) 0.50950(21) 0.97184(17)
C14_2 C 0.07790(16) 0.49021(23) 0.88328(19)
H13_2 H 0.0695 0.4562 0.8559
H14_2 H 0.1178 0.5072 0.9000
Cu4_2 Cu 0.01542(2) 0.66700(3) 0.91754(2)
N7_2 N 0.08368(18) 0.35035(22) 0.86273(15)
N10_2 N 0.01748(13) 0.59993(18) 0.97057(15)
C27_2 C 0.03732(15) 0.56655(21) 0.94388(18)
C28_2 C 0.07802(17) 0.58787(23) 0.88348(19)
H31_2 H 0.1180 0.6111 0.9000
H32_2 H 0.0694 0.6133 0.8560
C29_2 C 0.07424(18) 0.53690(24) 0.83776(18)
C31_2 C 0.0164(2) 0.50818(28) 0.7972(2)
H35_2 H 0.0126 0.5382 0.7729
H37_2 H 0.0156 0.4800 0.7647
C32_2 C 0.1268(2) 0.56344(28) 0.7883(2)
H38_2 H 0.1625 0.5808 0.8152
H39_2 H 0.1267 0.5937 0.7602
H40_2 H 0.1263 0.5336 0.7589
Cu1_2 Cu 0.98458(2) 0.33300(3) 0.08246(2)
I1_7 I 1.000006(11) 0.261396(16) 0.000004(13)
N1_2 N 0.91627(13) 0.26665(18) 0.13695(14)
N2_2 N 0.93333(12) 0.24965(18) 0.19606(15)
N4_2 N 0.98252(13) 0.40007(18) 0.02943(15)
C1_2 C 0.86380(15) 0.23172(21) 0.10863(17)
C2_2 C 0.82456(15) 0.17541(21) 0.13725(18)
C3_2 C 0.89840(15) 0.19732(21) 0.22441(17)
C4_2 C 0.91702(16) 0.17933(23) 0.28933(19)
H1_2 H 0.9594 0.1970 0.2900
H2_2 H 0.9057 0.1943 0.3282
C5_2 C 0.88831(16) 0.11154(23) 0.29580(19)
C6_2 C 0.84591(15) 0.25020(22) 0.04412(19)
H3_2 H 0.8607 0.2385 0.0054
H4_2 H 0.8637 0.2926 0.0430
C7_2 C 0.91278(19) 0.08750(27) 0.2407(2)
H5_2 H 0.8946 0.0453 0.2453
H6_2 H 0.9047 0.0973 0.1958
H7_2 H 0.9550 0.1056 0.2457
C8_2 C 0.90208(19) 0.09794(27) 0.3679(2)
H8_2 H 0.9442 0.1160 0.3734
H9_2 H 0.8868 0.1133 0.4023
H10_2 H 0.8841 0.0560 0.3741
C11_2 C 0.96268(15) 0.43345(21) 0.05612(18)
C12_2 C 0.92198(17) 0.41213(23) 0.11652(19)
H11_2 H 0.8820 0.3889 0.1000
H12_2 H 0.9306 0.3867 0.1440
C13_2 C 0.92576(18) 0.46310(24) 0.16224(18)
C15_2 C 0.9836(2) 0.49182(28) 0.2028(2)
H15_2 H 0.9874 0.4618 0.2271
H17_2 H 0.9844 0.5200 0.2353
C16_2 C 0.8732(2) 0.43656(28) 0.2117(2)
H18_2 H 0.8375 0.4192 0.1848
H19_2 H 0.8733 0.4063 0.2398
H20_2 H 0.8737 0.4664 0.2411
Cu3_2 Cu 0.68209(2) 0.00033(3) 0.25087(2)
Cu5_2 Cu 0.999669(19) 0.317933(34) 0.25086(2)
Cu7_2 Cu 0.98460(2) 0.651598(28) 0.08247(2)
I3_2 I 0.666661(11) 0.071937(16) 0.333329(13)
I4_2 I 0.928057(11) 0.333327(19) 0.333337(13)
N5_2 N 0.75040(13) 0.06668(18) 0.19638(14)
N6_2 N 0.73334(12) 0.08368(18) 0.13727(15)
N8_2 N 0.98240(13) 0.58239(18) 0.02940(15)
C17_2 C 0.80287(15) 0.10161(21) 0.22470(17)
C18_2 C 0.84211(15) 0.15792(21) 0.19608(18)
C19_2 C 0.76827(15) 0.13601(21) 0.10892(17)
C20_2 C 0.74965(16) 0.15400(23) 0.04400(19)
H21_2 H 0.7073 0.1363 0.0433
H22_2 H 0.7610 0.1390 0.0051
C21_2 C 0.77836(16) 0.22179(23) 0.03753(19)
C22_2 C 0.82076(15) 0.08313(22) 0.28921(19)
H23_2 H 0.8060 0.0948 0.3279
H24_2 H 0.8030 0.0407 0.2903
C23_2 C 0.75389(19) 0.24583(27) 0.0926(2)
H25_2 H 0.7721 0.2880 0.0880
H26_2 H 0.7620 0.2360 0.1375
H27_2 H 0.7117 0.2277 0.0876
C25_2 C 0.96281(15) 0.52919(21) 0.05623(18)
C26_2 C 0.98073(15) 0.49050(21) 0.02816(17)
C30_2 C 0.92210(16) 0.50979(23) 0.11672(19)
H33_2 H 0.9305 0.5438 0.1441
H34_2 H 0.8822 0.4928 0.1000
I1_8 I 1.000006(11) 0.261396(16) 1.000004(13)
I5_2 I 0.928613(16) 0.333327(19) 0.833317(14)
C24_2 C 0.76459(19) 0.23539(27) 0.9654(2)
H28_2 H 0.7225 0.2173 0.9599
H29_2 H 0.7799 0.2200 0.9310
H30_2 H 0.7826 0.2773 0.9592
H36_2 H 0.9834 0.4879 0.8281
Cu8_2 Cu 0.65127(2) 0.984931(28) 0.41580(2)
I6_2 I 0.595287(11) 0.928613(16) 0.166683(14)
N11_2 N 0.68415(13) 0.93326(18) 0.30390(15)
Cu8_3 Cu 0.015069(28) 0.666335(19) 0.41580(2)
I6_3 I 0.071387(16) 0.666673(11) 0.166683(14)
N11_3 N 0.06674(18) 0.75088(13) 0.30390(15)
Cu1_3 Cu 0.66700(3) 0.65158(2) 0.08246(2)
I1_9 I 0.738604(16) 0.738610(11) 0.000004(13)
I2_3 I 0.595280(16) 0.666660(11) 0.166650(14)
N1_3 N 0.73335(18) 0.64962(13) 0.13695(14)
N2_3 N 0.75035(18) 0.68368(13) 0.19606(15)
N4_3 N 0.59993(18) 0.58245(13) 0.02943(15)
C1_3 C 0.76828(21) 0.63208(15) 0.10863(17)
C2_3 C 0.82459(21) 0.64915(15) 0.13725(18)
C3_3 C 0.80268(21) 0.70108(15) 0.22441(17)
C4_3 C 0.82067(23) 0.73769(17) 0.28933(19)
H1_3 H 0.8030 0.7624 0.2900
H2_3 H 0.8057 0.7114 0.3282
C5_3 C 0.88846(23) 0.77677(17) 0.29580(19)
C6_3 C 0.74980(22) 0.59571(16) 0.04412(19)
H3_3 H 0.7615 0.6222 0.0054
H4_3 H 0.7074 0.5711 0.0430
C7_3 C 0.91250(27) 0.82528(19) 0.2407(2)
H5_3 H 0.9547 0.8493 0.2453
H6_3 H 0.9027 0.8074 0.1958
H7_3 H 0.8944 0.8494 0.2457
C8_3 C 0.90206(27) 0.80414(19) 0.3679(2)
H8_3 H 0.8840 0.8282 0.3734
H9_3 H 0.8867 0.7735 0.4023
H10_3 H 0.9440 0.8281 0.3741
C11_3 C 0.56655(21) 0.52923(15) 0.05612(18)
C12_3 C 0.58787(23) 0.50985(16) 0.11652(19)
H11_3 H 0.6111 0.4931 0.1000
H12_3 H 0.6133 0.5439 0.1440
C13_3 C 0.53690(24) 0.46266(16) 0.16224(18)
C15_3 C 0.50818(28) 0.49178(19) 0.2028(2)
H15_3 H 0.5382 0.5256 0.2271
H16_3 H 0.4879 0.5045 0.1719
H17_3 H 0.4800 0.4644 0.2353
C16_3 C 0.56344(28) 0.43664(19) 0.2117(2)
H18_3 H 0.5808 0.4183 0.1848
H19_3 H 0.5937 0.4670 0.2398
H20_3 H 0.5336 0.4073 0.2411
Cu3_3 Cu 0.99967(3) 0.68175(2) 0.25087(2)
Cu5_3 Cu 0.682067(34) 0.681735(28) 0.25086(2)
I3_3 I 0.928063(16) 0.594723(11) 0.333329(13)
I4_3 I 0.666673(19) 0.594729(16) 0.333337(13)
N5_3 N 0.93332(18) 0.68371(13) 0.19638(14)
N6_3 N 0.91632(18) 0.64965(13) 0.13727(15)
N8_3 N 0.41761(18) 0.40001(12) 0.02940(15)
N9_3 N 0.68427(22) 0.75094(18) 0.30393(15)
C17_3 C 0.89839(21) 0.70125(15) 0.22470(17)
C18_3 C 0.84208(21) 0.68418(15) 0.19608(18)
C19_3 C 0.86399(21) 0.63225(15) 0.10892(17)
C20_3 C 0.84600(23) 0.59564(17) 0.04400(19)
H21_3 H 0.8637 0.5709 0.0433
H22_3 H 0.8610 0.6219 0.0051
C21_3 C 0.77821(23) 0.55656(17) 0.03753(19)
C22_3 C 0.91687(22) 0.73762(16) 0.28921(19)
H23_3 H 0.9052 0.7111 0.3279
H24_3 H 0.9593 0.7622 0.2903
C23_3 C 0.75417(27) 0.50805(19) 0.0926(2)
H25_3 H 0.7120 0.4840 0.0880
H26_3 H 0.7640 0.5259 0.1375
H27_3 H 0.7723 0.4839 0.0876
C25_3 C 0.47081(21) 0.43362(15) 0.05623(18)
C26_3 C 0.50950(21) 0.49023(15) 0.02816(17)
C30_3 C 0.49021(23) 0.41231(16) 0.11672(19)
H33_3 H 0.4562 0.3867 0.1441
H34_3 H 0.5072 0.3894 0.1000
Cu2_3 Cu 0.651598(28) 0.666998(19) 0.91753(2)
I1_10 I 0.738604(16) 0.738610(11) 1.000004(13)
N3_3 N 0.58239(18) 0.59999(12) 0.97060(15)
C9_3 C 0.52919(21) 0.56638(15) 0.94377(18)
C10_3 C 0.49050(21) 0.50977(15) 0.97184(17)
C14_3 C 0.50979(23) 0.58769(16) 0.88328(19)
H13_3 H 0.5438 0.6133 0.8559
H14_3 H 0.4928 0.6106 0.9000
Cu4_3 Cu 0.33300(3) 0.34842(2) 0.91754(2)
I5_3 I 0.666673(19) 0.595287(11) 0.833317(14)
N7_3 N 0.64965(22) 0.73334(12) 0.86273(15)
N10_3 N 0.40007(18) 0.41755(13) 0.97057(15)
C24_3 C 0.76461(27) 0.52919(19) 0.9654(2)
H28_3 H 0.7827 0.5051 0.9599
H29_3 H 0.7800 0.5598 0.9310
H30_3 H 0.7227 0.5052 0.9592
C27_3 C 0.43345(21) 0.47077(15) 0.94388(18)
C28_3 C 0.41213(23) 0.49015(16) 0.88348(19)
H31_3 H 0.3889 0.5069 0.9000
H32_3 H 0.3867 0.4561 0.8560
C29_3 C 0.46310(24) 0.53734(16) 0.83776(18)
C31_3 C 0.49182(28) 0.50822(19) 0.7972(2)
H35_3 H 0.4618 0.4744 0.7729
H36_3 H 0.5121 0.4955 0.8281
H37_3 H 0.5200 0.5356 0.7647
C32_3 C 0.43656(28) 0.56336(19) 0.7883(2)
H38_3 H 0.4192 0.5817 0.8152
H39_3 H 0.4063 0.5330 0.7602
H40_3 H 0.4664 0.5927 0.7589
Cu1_4 Cu 0.01509(2) 0.34875(2) 0.41579(2)
I2_4 I 0.000007(11) 0.261953(11) 0.499983(14)
N1_4 N 0.01705(13) 0.41706(13) 0.47028(14)
N4_4 N 0.08422(13) 0.35081(13) 0.36276(15)
C1_4 C 0.03459(15) 0.46953(15) 0.44196(17)
C2_4 C 0.01752(15) 0.50877(15) 0.47058(18)
C6_4 C 0.07096(16) 0.48742(15) 0.37745(19)
H3_4 H 0.0445 0.4726 0.3387
H4_4 H 0.0956 0.4696 0.3763
C9_4 C 0.10029(15) 0.29614(15) 0.27710(18)
C10_4 C 0.15690(15) 0.31406(15) 0.30517(17)
C11_4 C 0.13744(15) 0.37065(15) 0.38945(18)
C12_4 C 0.15682(16) 0.41135(17) 0.44985(19)
H11_4 H 0.1736 0.4513 0.4333
H12_4 H 0.1228 0.4027 0.4773
C13_4 C 0.20401(16) 0.40757(18) 0.49557(18)
C14_4 C 0.07898(16) 0.25543(16) 0.21661(19)
H13_4 H 0.0534 0.2638 0.1892
H14_4 H 0.0561 0.2155 0.2333
C15_4 C 0.17489(19) 0.3497(2) 0.5361(2)
H15_4 H 0.1411 0.3459 0.5604
H16_4 H 0.1622 0.3167 0.5052
H17_4 H 0.2023 0.3489 0.5686
C16_4 C 0.23003(19) 0.4601(2) 0.5450(2)
H18_4 H 0.2484 0.4958 0.5181
H19_4 H 0.1997 0.4600 0.5731
H20_4 H 0.2594 0.4596 0.5744
Cu8_4 Cu 0.000331(19) 0.68207(2) 0.74914(2)
I3_4 I 0.071943(11) 0.666673(11) 0.666663(13)
I4_4 I 0.071937(16) 0.405277(11) 0.666671(13)
I6_4 I -0.000007(11) 0.738047(11) 0.500017(14)
N6_4 N 0.01701(13) 0.60000(12) 0.47061(15)
N8_4 N 0.26666(12) 0.35093(13) 0.36273(15)
C19_4 C 0.03441(15) 0.56507(15) 0.44226(17)
C20_4 C 0.07102(17) 0.58369(16) 0.37734(19)
H21_4 H 0.0957 0.6261 0.3767
H22_4 H 0.0447 0.5724 0.3385
C21_4 C 0.11010(17) 0.55498(16) 0.37087(19)
C23_4 C 0.15861(19) 0.57945(19) 0.4260(2)
H25_4 H 0.1826 0.5613 0.4214
H26_4 H 0.1407 0.5714 0.4709
H27_4 H 0.1827 0.6217 0.4210
C24_4 C 0.13747(19) 0.56875(19) 0.2988(2)
H28_4 H 0.1615 0.6109 0.2933
H29_4 H 0.1068 0.5535 0.2644
H30_4 H 0.1614 0.5508 0.2926
C25_4 C 0.23305(15) 0.37052(15) 0.38956(18)
C26_4 C 0.17644(15) 0.35260(15) 0.36149(17)
C27_4 C 0.19590(15) 0.29601(15) 0.27721(18)
C28_4 C 0.17652(16) 0.25531(17) 0.21681(19)
H31_4 H 0.1598 0.2153 0.2333
H32_4 H 0.2106 0.2639 0.1893
C29_4 C 0.12933(16) 0.25909(18) 0.17109(18)
C30_4 C 0.25436(16) 0.41123(16) 0.45005(19)
H33_4 H 0.2800 0.4028 0.4774
H34_4 H 0.2773 0.4511 0.4333
C31_4 C 0.15845(19) 0.3169(2) 0.1305(2)
H35_4 H 0.1923 0.3207 0.1062
H36_4 H 0.1712 0.3499 0.1614
H37_4 H 0.1311 0.3177 0.0980
C32_4 C 0.10331(19) 0.2065(2) 0.1216(2)
H38_4 H 0.0850 0.1708 0.1485
H39_4 H 0.1337 0.2066 0.0935
H40_4 H 0.0740 0.2070 0.0922
I2_5 I 1.000007(11) 0.261953(11) 0.499983(14)
N2_4 N 0.98299(13) 0.40000(12) 0.52939(15)
C3_4 C 0.96559(15) 0.43493(15) 0.55774(17)
C4_4 C 0.92898(17) 0.41631(16) 0.62266(19)
H1_4 H 0.9043 0.3739 0.6233
H2_4 H 0.9553 0.4276 0.6615
C5_4 C 0.88990(17) 0.44502(16) 0.62913(19)
C7_4 C 0.84139(19) 0.42055(19) 0.5740(2)
H5_4 H 0.8174 0.4387 0.5786
H6_4 H 0.8593 0.4286 0.5291
H7_4 H 0.8173 0.3783 0.5790
C8_4 C 0.86253(19) 0.43125(19) 0.7012(2)
H8_4 H 0.8385 0.3891 0.7067
H9_4 H 0.8932 0.4465 0.7356
H10_4 H 0.8386 0.4492 0.7074
Cu3_4 Cu 0.98491(2) 0.65125(2) 0.58421(2)
Cu5_4 Cu 0.984931(28) 0.333665(19) 0.58420(2)
I6_5 I 0.999993(11) 0.738047(11) 0.500017(14)
N5_4 N 0.98295(13) 0.58294(13) 0.52972(14)
N9_4 N 0.91572(18) 0.26666(12) 0.63727(15)
N11_4 N 0.91578(13) 0.64919(13) 0.63724(15)
C17_4 C 0.96541(15) 0.53047(15) 0.55804(17)
C18_4 C 0.98248(15) 0.49123(15) 0.52942(18)
C22_4 C 0.92904(16) 0.51258(15) 0.62255(19)
H23_4 H 0.9555 0.5274 0.6613
H24_4 H 0.9044 0.5304 0.6237
Cu1_5 Cu 0.65125(2) 0.66633(3) 0.41579(2)
I2_6 I 0.738047(11) 0.738053(16) 0.499983(14)
N1_5 N 0.58294(13) 0.59998(18) 0.47028(14)
N2_5 N 0.60000(12) 0.58298(18) 0.52939(15)
N4_5 N 0.64919(13) 0.73340(18) 0.36276(15)
C1_5 C 0.53047(15) 0.56505(21) 0.44196(17)
C2_5 C 0.49123(15) 0.50874(21) 0.47058(18)
C3_5 C 0.56507(15) 0.53065(21) 0.55774(17)
C4_5 C 0.58369(16) 0.51266(23) 0.62266(19)
H1_5 H 0.6261 0.5303 0.6233
H2_5 H 0.5724 0.5276 0.6615
C5_5 C 0.55498(16) 0.44487(23) 0.62913(19)
C6_5 C 0.51258(15) 0.58353(22) 0.37745(19)
H3_5 H 0.5274 0.5718 0.3387
H4_5 H 0.5304 0.6259 0.3763
C7_5 C 0.57945(19) 0.42083(27) 0.5740(2)
H5_5 H 0.5613 0.3786 0.5786
H6_5 H 0.5714 0.4306 0.5291
H7_5 H 0.6217 0.4389 0.5790
C8_5 C 0.56875(19) 0.43127(27) 0.7012(2)
H8_5 H 0.6109 0.4493 0.7067
H9_5 H 0.5535 0.4466 0.7356
H10_5 H 0.5508 0.3893 0.7074
C9_5 C 0.70386(15) 0.80414(21) 0.27710(18)
C10_5 C 0.68594(15) 0.84283(21) 0.30517(17)
C11_5 C 0.62935(15) 0.76678(21) 0.38945(18)
C12_5 C 0.58865(17) 0.74546(23) 0.44985(19)
H11_5 H 0.5487 0.7222 0.4333
H12_5 H 0.5973 0.7200 0.4773
C13_5 C 0.59243(18) 0.79643(24) 0.49557(18)
C14_5 C 0.74457(16) 0.82354(23) 0.21661(19)
H13_5 H 0.7362 0.7895 0.1892
H14_5 H 0.7845 0.8405 0.2333
C15_5 C 0.6503(2) 0.82515(28) 0.5361(2)
H15_5 H 0.6541 0.7951 0.5604
H16_5 H 0.6833 0.8454 0.5052
H17_5 H 0.6511 0.8533 0.5686
C16_5 C 0.5399(2) 0.76989(28) 0.5450(2)
H18_5 H 0.5042 0.7525 0.5181
H19_5 H 0.5400 0.7396 0.5731
H20_5 H 0.5404 0.7997 0.5744
Cu3_5 Cu 0.34875(2) 0.33367(3) 0.58421(2)
Cu5_5 Cu 0.666335(19) 0.651267(34) 0.58420(2)
Cu8_5 Cu 0.31793(2) 0.318265(28) 0.74914(2)
I3_5 I 0.333327(11) 0.405271(16) 0.666663(13)
I4_5 I 0.594723(11) 0.666661(19) 0.666671(13)
I6_6 I 0.261953(11) 0.261947(16) 0.500017(14)
N5_5 N 0.41706(13) 0.40002(18) 0.52972(14)
N6_5 N 0.40000(12) 0.41702(18) 0.47061(15)
N8_5 N 0.64907(13) 0.91572(18) 0.36273(15)
N9_5 N 0.73334(12) 0.64907(22) 0.63727(15)
N11_5 N 0.35081(13) 0.26660(18) 0.63724(15)
C17_5 C 0.46953(15) 0.43495(21) 0.55804(17)
C18_5 C 0.50877(15) 0.49126(21) 0.52942(18)
C19_5 C 0.43493(15) 0.46935(21) 0.44226(17)
C20_5 C 0.41631(16) 0.48734(23) 0.37734(19)
H21_5 H 0.3739 0.4697 0.3767
H22_5 H 0.4276 0.4724 0.3385
C21_5 C 0.44502(16) 0.55513(23) 0.37087(19)
C22_5 C 0.48742(15) 0.41647(22) 0.62255(19)
H23_5 H 0.4726 0.4282 0.6613
H24_5 H 0.4696 0.3741 0.6237
C23_5 C 0.42055(19) 0.57917(27) 0.4260(2)
H25_5 H 0.4387 0.6214 0.4214
H26_5 H 0.4286 0.5694 0.4709
H27_5 H 0.3783 0.5611 0.4210
C24_5 C 0.43125(19) 0.56873(27) 0.2988(2)
H28_5 H 0.3891 0.5507 0.2933
H29_5 H 0.4465 0.5534 0.2644
H30_5 H 0.4492 0.6107 0.2926
C25_5 C 0.62948(15) 0.86252(21) 0.38956(18)
C26_5 C 0.64740(15) 0.82383(21) 0.36149(17)
C27_5 C 0.70399(15) 0.89988(21) 0.27721(18)
C28_5 C 0.74469(17) 0.92120(23) 0.21681(19)
H31_5 H 0.7847 0.9444 0.2333
H32_5 H 0.7361 0.9466 0.1893
C29_5 C 0.74091(18) 0.87023(24) 0.17109(18)
C30_5 C 0.58877(16) 0.84312(23) 0.45005(19)
H33_5 H 0.5972 0.8771 0.4774
H34_5 H 0.5489 0.8261 0.4333
C31_5 C 0.6831(2) 0.84151(28) 0.1305(2)
H35_5 H 0.6793 0.8715 0.1062
H36_5 H 0.6501 0.8212 0.1614
H37_5 H 0.6823 0.8133 0.0980
C32_5 C 0.7935(2) 0.89677(28) 0.1216(2)
H38_5 H 0.8292 0.9141 0.1485
H39_5 H 0.7934 0.9270 0.0935
H40_5 H 0.7930 0.8669 0.0922
I2_7 I 0.261947(16) -0.000007(11) 0.499983(14)
N2_6 N 0.41702(18) 0.01701(13) 0.52939(15)
C3_6 C 0.46935(21) 0.03441(15) 0.55774(17)
C4_6 C 0.48734(23) 0.07102(17) 0.62266(19)
H1_6 H 0.4697 0.0957 0.6233
H2_6 H 0.4724 0.0447 0.6615
C5_6 C 0.55513(23) 0.11010(17) 0.62913(19)
C7_6 C 0.57917(27) 0.15861(19) 0.5740(2)
H5_6 H 0.6214 0.1826 0.5786
H6_6 H 0.5694 0.1407 0.5291
H7_6 H 0.5611 0.1827 0.5790
C8_6 C 0.56873(27) 0.13747(19) 0.7012(2)
H8_6 H 0.5507 0.1615 0.7067
H9_6 H 0.5534 0.1068 0.7356
H10_6 H 0.6107 0.1614 0.7074
Cu3_6 Cu 0.66633(3) 0.01509(2) 0.58421(2)
Cu5_6 Cu 0.348733(34) 0.015069(28) 0.58420(2)
I6_7 I 0.738053(16) 0.000007(11) 0.500017(14)
N5_6 N 0.59998(18) 0.01705(13) 0.52972(14)
N9_6 N 0.35093(22) 0.08428(18) 0.63727(15)
N11_6 N 0.73340(18) 0.08422(13) 0.63724(15)
C17_6 C 0.56505(21) 0.03459(15) 0.55804(17)
C18_6 C 0.50874(21) 0.01752(15) 0.52942(18)
C22_6 C 0.58353(22) 0.07096(16) 0.62255(19)
H23_6 H 0.5718 0.0445 0.6613
H24_6 H 0.6259 0.0956 0.6237
Cu1_6 Cu 0.33367(3) 0.98491(2) 0.41579(2)
I2_8 I 0.261947(16) 0.999993(11) 0.499983(14)
N1_6 N 0.40002(18) 0.98295(13) 0.47028(14)
N4_6 N 0.26660(18) 0.91578(13) 0.36276(15)
C1_6 C 0.43495(21) 0.96541(15) 0.44196(17)
C2_6 C 0.49126(21) 0.98248(15) 0.47058(18)
C6_6 C 0.41647(22) 0.92904(16) 0.37745(19)
H3_6 H 0.4282 0.9555 0.3387
H4_6 H 0.3741 0.9044 0.3763
C9_6 C 0.19586(21) 0.89971(15) 0.27710(18)
C10_6 C 0.15717(21) 0.84310(15) 0.30517(17)
C11_6 C 0.23322(21) 0.86256(15) 0.38945(18)
C12_6 C 0.25454(23) 0.84318(16) 0.44985(19)
H11_6 H 0.2778 0.8264 0.4333
H12_6 H 0.2800 0.8772 0.4773
C13_6 C 0.20357(24) 0.79599(16) 0.49557(18)
C14_6 C 0.17646(23) 0.92102(16) 0.21661(19)
H13_6 H 0.2105 0.9466 0.1892
H14_6 H 0.1595 0.9439 0.2333
C15_6 C 0.17485(28) 0.82511(19) 0.5361(2)
H15_6 H 0.2049 0.8589 0.5604
H16_6 H 0.1546 0.8378 0.5052
H17_6 H 0.1467 0.7977 0.5686
C16_6 C 0.23011(28) 0.76997(19) 0.5450(2)
H18_6 H 0.2475 0.7516 0.5181
H19_6 H 0.2604 0.8003 0.5731
H20_6 H 0.2003 0.7406 0.5744
Cu8_6 Cu 0.681735(28) 0.999669(19) 0.74914(2)
I3_6 I 0.594729(16) 0.928057(11) 0.666663(13)
I4_6 I 0.333339(19) 0.928063(16) 0.666671(13)
I6_8 I 0.738053(16) 1.000007(11) 0.500017(14)
N6_6 N 0.58298(18) 0.98299(13) 0.47061(15)
N8_6 N 0.08428(18) 0.73334(12) 0.36273(15)
C19_6 C 0.53065(21) 0.96559(15) 0.44226(17)
C20_6 C 0.51266(23) 0.92898(17) 0.37734(19)
H21_6 H 0.5303 0.9043 0.3767
H22_6 H 0.5276 0.9553 0.3385
C21_6 C 0.44487(23) 0.88990(17) 0.37087(19)
C23_6 C 0.42083(27) 0.84139(19) 0.4260(2)
H25_6 H 0.3786 0.8174 0.4214
H26_6 H 0.4306 0.8593 0.4709
H27_6 H 0.4389 0.8173 0.4210
C24_6 C 0.43127(27) 0.86253(19) 0.2988(2)
H28_6 H 0.4493 0.8385 0.2933
H29_6 H 0.4466 0.8932 0.2644
H30_6 H 0.3893 0.8386 0.2926
C25_6 C 0.13748(21) 0.76695(15) 0.38956(18)
C26_6 C 0.17617(21) 0.82356(15) 0.36149(17)
C27_6 C 0.10012(21) 0.80410(15) 0.27721(18)
C28_6 C 0.07880(23) 0.82348(16) 0.21681(19)
H31_6 H 0.0556 0.8402 0.2333
H32_6 H 0.0534 0.7894 0.1893
C29_6 C 0.12977(24) 0.87067(16) 0.17109(18)
C30_6 C 0.15688(23) 0.74564(16) 0.45005(19)
H33_6 H 0.1229 0.7200 0.4774
H34_6 H 0.1739 0.7227 0.4333
C31_6 C 0.15849(28) 0.84155(19) 0.1305(2)
H35_6 H 0.1285 0.8077 0.1062
H36_6 H 0.1788 0.8288 0.1614
H37_6 H 0.1867 0.8689 0.0980
C32_6 C 0.10323(28) 0.89669(19) 0.1216(2)
H38_6 H 0.0859 0.9150 0.1485
H39_6 H 0.0730 0.8663 0.0935
H40_6 H 0.1331 0.9260 0.0922
I3_7 I 0.738610(11) 0.000006(11) -0.000004(13)
I3_8 I 0.738610(11) 0.000006(11) 0.999996(13)
I6_9 I 0.666660(11) 0.071380(11) 0.833350(14)
C8_7 C 0.52919(19) 0.76459(19) 0.0346(2)
H8_7 H 0.5051 0.7225 0.0401
H9_7 H 0.5598 0.7799 0.0690
H10_7 H 0.5052 0.7826 0.0408
I3_9 I 0.738610(11) 1.000006(11) -0.000004(13)
Cu1_7 Cu 0.68175(2) 0.68209(2) 0.74913(2)
N1_7 N 0.68371(13) 0.75040(13) 0.80362(14)
N4_7 N 0.75088(13) 0.68415(13) 0.69610(15)
C1_7 C 0.70125(15) 0.80287(15) 0.77530(17)
C2_7 C 0.68418(15) 0.84211(15) 0.80392(18)
C3_7 C 0.63225(15) 0.76827(15) 0.89108(17)
C4_7 C 0.59564(17) 0.74965(16) 0.95600(19)
H1_7 H 0.5709 0.7073 0.9567
H2_7 H 0.6219 0.7610 0.9949
C5_7 C 0.55656(17) 0.77836(16) 0.96247(19)
C6_7 C 0.73762(16) 0.82076(15) 0.71079(19)
H3_7 H 0.7111 0.8060 0.6721
H4_7 H 0.7622 0.8030 0.7097
C7_7 C 0.50805(19) 0.75389(19) 0.9074(2)
H5_7 H 0.4840 0.7721 0.9120
H6_7 H 0.5259 0.7620 0.8625
H7_7 H 0.4839 0.7117 0.9124
C9_7 C 0.76695(15) 0.62948(15) 0.61044(18)
C10_7 C 0.82356(15) 0.64740(15) 0.63851(17)
C11_7 C 0.80410(15) 0.70399(15) 0.72279(18)
C12_7 C 0.82348(16) 0.74469(17) 0.78319(19)
H11_7 H 0.8402 0.7847 0.7667
H12_7 H 0.7894 0.7361 0.8107
C13_7 C 0.87067(16) 0.74091(18) 0.82891(18)
C14_7 C 0.74564(16) 0.58877(16) 0.54995(19)
H13_7 H 0.7200 0.5972 0.5226
H14_7 H 0.7227 0.5489 0.5667
C15_7 C 0.84155(19) 0.6831(2) 0.8695(2)
H15_7 H 0.8077 0.6793 0.8938
H16_7 H 0.8288 0.6501 0.8386
H17_7 H 0.8689 0.6823 0.9020
C16_7 C 0.89669(19) 0.7935(2) 0.8784(2)
H18_7 H 0.9150 0.8292 0.8515
H19_7 H 0.8663 0.7934 0.9065
H20_7 H 0.9260 0.7930 0.9078
I3_10 I 0.738610(11) 1.000006(11) 0.999996(13)
N5_7 N 0.64962(13) 0.91627(13) 0.86305(14)
N6_7 N 0.68368(13) 0.93333(12) 0.80394(15)
N8_7 N 0.93332(12) 0.68427(13) 0.69607(15)
C17_7 C 0.63208(15) 0.86380(15) 0.89137(17)
C18_7 C 0.64915(15) 0.82456(15) 0.86275(18)
C19_7 C 0.70108(15) 0.89840(15) 0.77559(17)
C20_7 C 0.73769(17) 0.91702(16) 0.71067(19)
H21_7 H 0.7624 0.9594 0.7100
H22_7 H 0.7114 0.9057 0.6718
C21_7 C 0.77677(17) 0.88831(16) 0.70420(19)
C22_7 C 0.59571(16) 0.84591(15) 0.95588(19)
H23_7 H 0.6222 0.8607 0.9946
H24_7 H 0.5711 0.8637 0.9570
C23_7 C 0.82528(19) 0.91278(19) 0.7593(2)
H25_7 H 0.8493 0.8946 0.7547
H26_7 H 0.8074 0.9047 0.8042
H27_7 H 0.8494 0.9550 0.7543
C24_7 C 0.80414(19) 0.90208(19) 0.6321(2)
H28_7 H 0.8282 0.9442 0.6266
H29_7 H 0.7735 0.8868 0.5977
H30_7 H 0.8281 0.8841 0.6259
C25_7 C 0.89971(15) 0.70386(15) 0.72290(18)
C26_7 C 0.84310(15) 0.68594(15) 0.69483(17)
C27_7 C 0.86256(15) 0.62935(15) 0.61055(18)
C28_7 C 0.84318(16) 0.58865(17) 0.55015(19)
H31_7 H 0.8264 0.5487 0.5667
H32_7 H 0.8772 0.5973 0.5227
C29_7 C 0.79599(16) 0.59243(18) 0.50443(18)
C30_7 C 0.92102(16) 0.74457(16) 0.78339(19)
H33_7 H 0.9466 0.7362 0.8108
H34_7 H 0.9439 0.7845 0.7667
C31_7 C 0.82511(19) 0.6503(2) 0.4639(2)
H35_7 H 0.8589 0.6541 0.4396
H36_7 H 0.8378 0.6833 0.4948
H37_7 H 0.7977 0.6511 0.4314
C32_7 C 0.76997(19) 0.5399(2) 0.4550(2)
H38_7 H 0.7516 0.5042 0.4819
H39_7 H 0.8003 0.5400 0.4269
H40_7 H 0.7406 0.5404 0.4256
N4_8 N 0.31585(13) 0.06674(18) 0.69610(15)
C9_8 C 0.37052(15) 0.13748(21) 0.61044(18)
C10_8 C 0.35260(15) 0.17617(21) 0.63851(17)
C11_8 C 0.29601(15) 0.10012(21) 0.72279(18)
C12_8 C 0.25531(17) 0.07880(23) 0.78319(19)
H11_8 H 0.2153 0.0556 0.7667
H12_8 H 0.2639 0.0534 0.8107
C13_8 C 0.25909(18) 0.12977(24) 0.82891(18)
C14_8 C 0.41123(16) 0.15688(23) 0.54995(19)
H13_8 H 0.4028 0.1229 0.5226
H14_8 H 0.4511 0.1739 0.5667
C15_8 C 0.3169(2) 0.15849(28) 0.8695(2)
H15_8 H 0.3207 0.1285 0.8938
H16_8 H 0.3499 0.1788 0.8386
H17_8 H 0.3177 0.1867 0.9020
C16_8 C 0.2065(2) 0.10323(28) 0.8784(2)
H18_8 H 0.1708 0.0859 0.8515
H19_8 H 0.2066 0.0730 0.9065
H20_8 H 0.2070 0.1331 0.9078
N8_8 N 0.31573(13) 0.24906(18) 0.69607(15)
C25_8 C 0.29614(15) 0.19586(21) 0.72290(18)
C26_8 C 0.31406(15) 0.15717(21) 0.69483(17)
C27_8 C 0.37065(15) 0.23322(21) 0.61055(18)
C28_8 C 0.41135(17) 0.25454(23) 0.55015(19)
H31_8 H 0.4513 0.2778 0.5667
H32_8 H 0.4027 0.2800 0.5227
C29_8 C 0.40757(18) 0.20357(24) 0.50443(18)
C30_8 C 0.25543(16) 0.17646(23) 0.78339(19)
H33_8 H 0.2638 0.2105 0.8108
H34_8 H 0.2155 0.1595 0.7667
C31_8 C 0.3497(2) 0.17485(28) 0.4639(2)
H35_8 H 0.3459 0.2049 0.4396
H36_8 H 0.3167 0.1546 0.4948
H37_8 H 0.3489 0.1467 0.4314
C32_8 C 0.4601(2) 0.23011(28) 0.4550(2)
H38_8 H 0.4958 0.2475 0.4819
H39_8 H 0.4600 0.2604 0.4269
H40_8 H 0.4596 0.2003 0.4256
C8_8 C 0.23541(19) 0.76461(27) 0.0346(2)
H8_8 H 0.2775 0.7827 0.0401
H9_8 H 0.2201 0.7800 0.0690
H10_8 H 0.2174 0.7227 0.0408
I3_11 I -0.000006(11) 0.738604(16) -0.000004(13)
Cu1_8 Cu 0.31791(2) 0.99967(3) 0.74913(2)
N1_8 N 0.24960(13) 0.93332(18) 0.80362(14)
C1_8 C 0.19713(15) 0.89839(21) 0.77530(17)
C2_8 C 0.15789(15) 0.84208(21) 0.80392(18)
C3_8 C 0.23173(15) 0.86399(21) 0.89108(17)
C4_8 C 0.25035(16) 0.84600(23) 0.95600(19)
H1_8 H 0.2927 0.8637 0.9567
H2_8 H 0.2390 0.8610 0.9949
C5_8 C 0.22164(16) 0.77821(23) 0.96247(19)
C6_8 C 0.17924(15) 0.91687(22) 0.71079(19)
H3_8 H 0.1940 0.9052 0.6721
H4_8 H 0.1970 0.9593 0.7097
C7_8 C 0.24611(19) 0.75417(27) 0.9074(2)
H5_8 H 0.2279 0.7120 0.9120
H6_8 H 0.2380 0.7640 0.8625
H7_8 H 0.2883 0.7723 0.9124
I3_12 I -0.000006(11) 0.738604(16) 0.999996(13)
N5_8 N 0.08373(13) 0.73335(18) 0.86305(14)
N6_8 N 0.06667(12) 0.75035(18) 0.80394(15)
C17_8 C 0.13620(15) 0.76828(21) 0.89137(17)
C18_8 C 0.17544(15) 0.82459(21) 0.86275(18)
C19_8 C 0.10160(15) 0.80268(21) 0.77559(17)
C20_8 C 0.08298(16) 0.82067(23) 0.71067(19)
H21_8 H 0.0406 0.8030 0.7100
H22_8 H 0.0943 0.8057 0.6718
C21_8 C 0.11169(16) 0.88846(23) 0.70420(19)
C22_8 C 0.15409(15) 0.74980(22) 0.95588(19)
H23_8 H 0.1393 0.7615 0.9946
H24_8 H 0.1363 0.7074 0.9570
C23_8 C 0.08722(19) 0.91250(27) 0.7593(2)
H25_8 H 0.1054 0.9547 0.7547
H26_8 H 0.0953 0.9027 0.8042
H27_8 H 0.0450 0.8944 0.7543
C24_8 C 0.09792(19) 0.90206(27) 0.6321(2)
H28_8 H 0.0558 0.8840 0.6266
H29_8 H 0.1132 0.8867 0.5977
H30_8 H 0.1159 0.9440 0.6259
I3_13 I 0.999994(11) 0.738604(16) -0.000004(13)
I3_14 I 0.999994(11) 0.738604(16) 0.999996(13)
I6_10 I 0.928620(11) 0.595280(16) 0.833350(14)
C8_9 C 0.23539(27) 0.47081(19) 0.0346(2)
H8_9 H 0.2173 0.4949 0.0401
H9_9 H 0.2200 0.4402 0.0690
H10_9 H 0.2773 0.4948 0.0408
I3_15 I 0.261396(16) 0.261390(11) -0.000004(13)
Cu1_9 Cu 0.00033(3) 0.31825(2) 0.74913(2)
N1_9 N 0.06668(18) 0.31629(13) 0.80362(14)
C1_9 C 0.10161(21) 0.29875(15) 0.77530(17)
C2_9 C 0.15792(21) 0.31582(15) 0.80392(18)
C3_9 C 0.13601(21) 0.36775(15) 0.89108(17)
C4_9 C 0.15400(23) 0.40436(17) 0.95600(19)
H1_9 H 0.1363 0.4291 0.9567
H2_9 H 0.1390 0.3781 0.9949
C5_9 C 0.22179(23) 0.44344(17) 0.96247(19)
C6_9 C 0.08313(22) 0.26238(16) 0.71079(19)
H3_9 H 0.0948 0.2889 0.6721
H4_9 H 0.0407 0.2378 0.7097
C7_9 C 0.24583(27) 0.49195(19) 0.9074(2)
H5_9 H 0.2880 0.5160 0.9120
H6_9 H 0.2360 0.4741 0.8625
H7_9 H 0.2277 0.5161 0.9124
I3_16 I 0.261396(16) 0.261390(11) 0.999996(13)
I6_11 I 0.404720(16) 0.333340(11) 0.833350(14)
N5_9 N 0.26665(18) 0.35038(13) 0.86305(14)
N6_9 N 0.24965(18) 0.31632(13) 0.80394(15)
C17_9 C 0.23172(21) 0.36792(15) 0.89137(17)
C18_9 C 0.17541(21) 0.35085(15) 0.86275(18)
C19_9 C 0.19732(21) 0.29892(15) 0.77559(17)
C20_9 C 0.17933(23) 0.26231(17) 0.71067(19)
H21_9 H 0.1970 0.2376 0.7100
H22_9 H 0.1943 0.2886 0.6718
C21_9 C 0.11154(23) 0.22323(17) 0.70420(19)
C22_9 C 0.25020(22) 0.40429(16) 0.95588(19)
H23_9 H 0.2385 0.3778 0.9946
H24_9 H 0.2926 0.4289 0.9570
C23_9 C 0.08750(27) 0.17472(19) 0.7593(2)
H25_9 H 0.0453 0.1507 0.7547
H26_9 H 0.0973 0.1926 0.8042
H27_9 H 0.1056 0.1506 0.7543
C24_9 C 0.09794(27) 0.19586(19) 0.6321(2)
H28_9 H 0.1160 0.1718 0.6266
H29_9 H 0.1133 0.2265 0.5977
H30_9 H 0.0560 0.1719 0.6259
N4_9 N 0.93326(18) 0.24912(13) 0.69610(15)
C9_9 C 0.86252(21) 0.23305(15) 0.61044(18)
C10_9 C 0.82383(21) 0.17644(15) 0.63851(17)
C11_9 C 0.89988(21) 0.19590(15) 0.72279(18)
C12_9 C 0.92120(23) 0.17652(16) 0.78319(19)
H11_9 H 0.9444 0.1598 0.7667
H12_9 H 0.9466 0.2106 0.8107
C13_9 C 0.87023(24) 0.12933(16) 0.82891(18)
C14_9 C 0.84312(23) 0.25436(16) 0.54995(19)
H13_9 H 0.8771 0.2800 0.5226
H14_9 H 0.8261 0.2773 0.5667
C15_9 C 0.84151(28) 0.15845(19) 0.8695(2)
H15_9 H 0.8715 0.1923 0.8938
H16_9 H 0.8212 0.1712 0.8386
H17_9 H 0.8133 0.1311 0.9020
C16_9 C 0.89677(28) 0.10331(19) 0.8784(2)
H18_9 H 0.9141 0.0850 0.8515
H19_9 H 0.9270 0.1337 0.9065
H20_9 H 0.8669 0.0740 0.9078
N8_9 N 0.75094(18) 0.06668(12) 0.69607(15)
C25_9 C 0.80414(21) 0.10029(15) 0.72290(18)
C26_9 C 0.84283(21) 0.15690(15) 0.69483(17)
C27_9 C 0.76678(21) 0.13744(15) 0.61055(18)
C28_9 C 0.74546(23) 0.15682(16) 0.55015(19)
H31_9 H 0.7222 0.1736 0.5667
H32_9 H 0.7200 0.1228 0.5227
C29_9 C 0.79643(24) 0.20401(16) 0.50443(18)
C30_9 C 0.82354(23) 0.07898(16) 0.78339(19)
H33_9 H 0.7895 0.0534 0.8108
H34_9 H 0.8405 0.0561 0.7667
C31_9 C 0.82515(28) 0.17489(19) 0.4639(2)
H35_9 H 0.7951 0.1411 0.4396
H36_9 H 0.8454 0.1622 0.4948
H37_9 H 0.8533 0.2023 0.4314
C32_9 C 0.76989(28) 0.23003(19) 0.4550(2)
H38_9 H 0.7525 0.2484 0.4819
H39_9 H 0.7396 0.1997 0.4269
H40_9 H 0.7997 0.2594 0.4256
loop_
_geom_bond_atom_site_label_1
_geom_bond_atom_site_label_2
_geom_bond_site_symmetry_1
_geom_bond_site_symmetry_2
Cu1 I1 1_555 1_555
N1 Cu1 1_555 1_555
N2 N1 1_555 1_555
N4 Cu1 1_555 1_555
C1 N1 1_555 1_555
C2 C1 1_555 1_555
C3 N2 1_555 1_555
C4 C3 1_555 1_555
H1 C4 1_555 1_555
H2 C4 1_555 1_555
C5 C4 1_555 1_555
C6 C1 1_555 1_555
H3 C6 1_555 1_555
H4 C6 1_555 1_555
C7 C5 1_555 1_555
H5 C7 1_555 1_555
H6 C7 1_555 1_555
H7 C7 1_555 1_555
C8 C5 1_555 1_555
H8 C8 1_555 1_555
H9 C8 1_555 1_555
H10 C8 1_555 1_555
C11 N4 1_555 1_555
C12 C11 1_555 1_555
H11 C12 1_555 1_555
H12 C12 1_555 1_555
C13 C12 1_555 1_555
C15 C13 1_555 1_555
H15 C15 1_555 1_555
H17 C15 1_555 1_555
C16 C13 1_555 1_555
H18 C16 1_555 1_555
H19 C16 1_555 1_555
H20 C16 1_555 1_555
Cu3 I3 1_555 1_555
Cu6 I6 1_555 1_555
Cu7 N8 1_555 1_555
Cu8 I3 1_555 1_555
I4 Cu5 1_555 1_555
I6 Cu3 1_555 1_555
N5 Cu3 1_555 1_555
N6 Cu6 1_555 1_555
N11 Cu3 1_555 1_555
C17 N5 1_555 1_555
C18 C2 1_555 1_555
C19 C2 1_555 1_555
C20 C19 1_555 1_555
H21 C20 1_555 1_555
H22 C20 1_555 1_555
C21 C6 1_555 1_555
C22 C5 1_555 1_555
H23 C22 1_555 1_555
H24 C22 1_555 1_555
C23 C21 1_555 1_555
H25 C23 1_555 1_555
H26 C23 1_555 1_555
H27 C23 1_555 1_555
C25 N8 1_555 1_555
C30 C13 1_555 1_555
H33 C30 1_555 1_555
H34 C30 1_555 1_555
N2 Cu5 1_555 1_555
C3 C18 1_555 1_555
C11 C26 1_555 1_555
N5 N6 1_555 1_555
N6 C19 1_555 1_555
C17 C18 1_555 1_555
C17 C22 1_555 1_555
C20 C21 1_555 1_555
C25 C26 1_555 1_555
C25 C30 1_555 1_555
H28 C24 1_555 1_555
H29 C24 1_555 1_555
H30 C24 1_555 1_555
Cu2 I1_4 1_555 1_555
N3 Cu2 1_555 1_555
C9 N3 1_555 1_555
C10 C9 1_555 1_555
C14 C9 1_555 1_555
H13 C14 1_555 1_555
H14 C14 1_555 1_555
Cu4 N10 1_555 1_555
N7 Cu2 1_555 1_555
N10 C27 1_555 1_555
C27 C10 1_555 1_555
C28 C27 1_555 1_555
H31 C28 1_555 1_555
H32 C28 1_555 1_555
C29 C14 1_555 1_555
C31 C29 1_555 1_555
H35 C31 1_555 1_555
H37 C31 1_555 1_555
C32 C29 1_555 1_555
H38 C32 1_555 1_555
H39 C32 1_555 1_555
H40 C32 1_555 1_555
C28 C29 1_555 1_555
Cu2_2 I1_6 1_555 1_555
N3_2 Cu2_2 1_555 1_555
C9_2 N3_2 1_555 1_555
C10_2 C9_2 1_555 1_555
C14_2 C9_2 1_555 1_555
H13_2 C14_2 1_555 1_555
H14_2 C14_2 1_555 1_555
Cu4_2 N10_2 1_555 1_555
N7_2 Cu2_2 1_555 1_555
N10_2 C27_2 1_555 1_555
C27_2 C10_2 1_555 1_555
C28_2 C27_2 1_555 1_555
H31_2 C28_2 1_555 1_555
H32_2 C28_2 1_555 1_555
C29_2 C14_2 1_555 1_555
C31_2 C29_2 1_555 1_555
H35_2 C31_2 1_555 1_555
H37_2 C31_2 1_555 1_555
C32_2 C29_2 1_555 1_555
H38_2 C32_2 1_555 1_555
H39_2 C32_2 1_555 1_555
H40_2 C32_2 1_555 1_555
C28_2 C29_2 1_555 1_555
Cu1_2 I1_7 1_555 1_555
N1_2 Cu1_2 1_555 1_555
N2_2 N1_2 1_555 1_555
N4_2 Cu1_2 1_555 1_555
C1_2 N1_2 1_555 1_555
C2_2 C1_2 1_555 1_555
C3_2 N2_2 1_555 1_555
C4_2 C3_2 1_555 1_555
H1_2 C4_2 1_555 1_555
H2_2 C4_2 1_555 1_555
C5_2 C4_2 1_555 1_555
C6_2 C1_2 1_555 1_555
H3_2 C6_2 1_555 1_555
H4_2 C6_2 1_555 1_555
C7_2 C5_2 1_555 1_555
H5_2 C7_2 1_555 1_555
H6_2 C7_2 1_555 1_555
H7_2 C7_2 1_555 1_555
C8_2 C5_2 1_555 1_555
H8_2 C8_2 1_555 1_555
H9_2 C8_2 1_555 1_555
H10_2 C8_2 1_555 1_555
C11_2 N4_2 1_555 1_555
C12_2 C11_2 1_555 1_555
H11_2 C12_2 1_555 1_555
H12_2 C12_2 1_555 1_555
C13_2 C12_2 1_555 1_555
C15_2 C13_2 1_555 1_555
H15_2 C15_2 1_555 1_555
H17_2 C15_2 1_555 1_555
C16_2 C13_2 1_555 1_555
H18_2 C16_2 1_555 1_555
H19_2 C16_2 1_555 1_555
H20_2 C16_2 1_555 1_555
Cu3_2 I3_2 1_555 1_555
Cu7_2 N8_2 1_555 1_555
I4_2 Cu5_2 1_555 1_555
N5_2 Cu3_2 1_555 1_555
N6_2 Cu7 1_555 1_555
C17_2 N5_2 1_555 1_555
C18_2 C2_2 1_555 1_555
C19_2 C2_2 1_555 1_555
C20_2 C19_2 1_555 1_555
H21_2 C20_2 1_555 1_555
H22_2 C20_2 1_555 1_555
C21_2 C6_2 1_555 1_555
C22_2 C5_2 1_555 1_555
H23_2 C22_2 1_555 1_555
H24_2 C22_2 1_555 1_555
C23_2 C21_2 1_555 1_555
H25_2 C23_2 1_555 1_555
H26_2 C23_2 1_555 1_555
H27_2 C23_2 1_555 1_555
C25_2 N8_2 1_555 1_555
C30_2 C13_2 1_555 1_555
H33_2 C30_2 1_555 1_555
H34_2 C30_2 1_555 1_555
N2_2 Cu5_2 1_555 1_555
C3_2 C18_2 1_555 1_555
C11_2 C26_2 1_555 1_555
N5_2 N6_2 1_555 1_555
N6_2 C19_2 1_555 1_555
C17_2 C18_2 1_555 1_555
C17_2 C22_2 1_555 1_555
C20_2 C21_2 1_555 1_555
C25_2 C26_2 1_555 1_555
C25_2 C30_2 1_555 1_555
H28_2 C24_2 1_555 1_555
H29_2 C24_2 1_555 1_555
H30_2 C24_2 1_555 1_555
Cu1_3 I1_9 1_555 1_555
I2_3 Cu1_3 1_555 1_555
N1_3 Cu1_3 1_555 1_555
N2_3 N1_3 1_555 1_555
N4_3 Cu1_3 1_555 1_555
C1_3 N1_3 1_555 1_555
C2_3 C1_3 1_555 1_555
C3_3 N2_3 1_555 1_555
C4_3 C3_3 1_555 1_555
H1_3 C4_3 1_555 1_555
H2_3 C4_3 1_555 1_555
C5_3 C4_3 1_555 1_555
C6_3 C1_3 1_555 1_555
H3_3 C6_3 1_555 1_555
H4_3 C6_3 1_555 1_555
C7_3 C5_3 1_555 1_555
H5_3 C7_3 1_555 1_555
H6_3 C7_3 1_555 1_555
H7_3 C7_3 1_555 1_555
C8_3 C5_3 1_555 1_555
H8_3 C8_3 1_555 1_555
H9_3 C8_3 1_555 1_555
H10_3 C8_3 1_555 1_555
C11_3 N4_3 1_555 1_555
C12_3 C11_3 1_555 1_555
H11_3 C12_3 1_555 1_555
H12_3 C12_3 1_555 1_555
C13_3 C12_3 1_555 1_555
C15_3 C13_3 1_555 1_555
H15_3 C15_3 1_555 1_555
H16_3 C15_3 1_555 1_555
H17_3 C15_3 1_555 1_555
C16_3 C13_3 1_555 1_555
H18_3 C16_3 1_555 1_555
H19_3 C16_3 1_555 1_555
H20_3 C16_3 1_555 1_555
Cu3_3 I3_3 1_555 1_555
Cu5_3 I2_3 1_555 1_555
Cu6 N8_3 1_555 1_555
I4_3 Cu5_3 1_555 1_555
N5_3 Cu3_3 1_555 1_555
N6_3 Cu7_2 1_555 1_555
N9_3 Cu5_3 1_555 1_555
C17_3 N5_3 1_555 1_555
C18_3 C2_3 1_555 1_555
C19_3 C2_3 1_555 1_555
C20_3 C19_3 1_555 1_555
H21_3 C20_3 1_555 1_555
H22_3 C20_3 1_555 1_555
C21_3 C6_3 1_555 1_555
C22_3 C5_3 1_555 1_555
H23_3 C22_3 1_555 1_555
H24_3 C22_3 1_555 1_555
C23_3 C21_3 1_555 1_555
H25_3 C23_3 1_555 1_555
H26_3 C23_3 1_555 1_555
H27_3 C23_3 1_555 1_555
C25_3 N8_3 1_555 1_555
C30_3 C13_3 1_555 1_555
H33_3 C30_3 1_555 1_555
H34_3 C30_3 1_555 1_555
N2_3 Cu5_3 1_555 1_555
C3_3 C18_3 1_555 1_555
C11_3 C26_3 1_555 1_555
N5_3 N6_3 1_555 1_555
N6_3 C19_3 1_555 1_555
C17_3 C18_3 1_555 1_555
C17_3 C22_3 1_555 1_555
C20_3 C21_3 1_555 1_555
C25_3 C26_3 1_555 1_555
C25_3 C30_3 1_555 1_555
Cu2_3 I1_10 1_555 1_555
N3_3 Cu2_3 1_555 1_555
C9_3 N3_3 1_555 1_555
C10_3 C9_3 1_555 1_555
C14_3 C9_3 1_555 1_555
H13_3 C14_3 1_555 1_555
H14_3 C14_3 1_555 1_555
Cu4_3 N10_3 1_555 1_555
I5_3 Cu2_3 1_555 1_555
N7_3 Cu2_3 1_555 1_555
N10_3 C27_3 1_555 1_555
H28_3 C24_3 1_555 1_555
H29_3 C24_3 1_555 1_555
H30_3 C24_3 1_555 1_555
C27_3 C10_3 1_555 1_555
C28_3 C27_3 1_555 1_555
H31_3 C28_3 1_555 1_555
H32_3 C28_3 1_555 1_555
C29_3 C14_3 1_555 1_555
C31_3 C29_3 1_555 1_555
H35_3 C31_3 1_555 1_555
H36_3 C31_3 1_555 1_555
H37_3 C31_3 1_555 1_555
C32_3 C29_3 1_555 1_555
H38_3 C32_3 1_555 1_555
H39_3 C32_3 1_555 1_555
H40_3 C32_3 1_555 1_555
C28_3 C29_3 1_555 1_555
I2_4 Cu1_4 1_555 1_555
N1_4 Cu1_4 1_555 1_555
N4_4 Cu1_4 1_555 1_555
C1_4 N1_4 1_555 1_555
C2_4 C1_4 1_555 1_555
C6_4 C1_4 1_555 1_555
H3_4 C6_4 1_555 1_555
H4_4 C6_4 1_555 1_555
C9_4 N9_2 1_555 1_555
C10_4 C9_4 1_555 1_555
C11_4 N4_4 1_555 1_555
C12_4 C11_4 1_555 1_555
H11_4 C12_4 1_555 1_555
H12_4 C12_4 1_555 1_555
C13_4 C12_4 1_555 1_555
C14_4 C9_4 1_555 1_555
H13_4 C14_4 1_555 1_555
H14_4 C14_4 1_555 1_555
C15_4 C13_4 1_555 1_555
H15_4 C15_4 1_555 1_555
H16_4 C15_4 1_555 1_555
H17_4 C15_4 1_555 1_555
C16_4 C13_4 1_555 1_555
H18_4 C16_4 1_555 1_555
H19_4 C16_4 1_555 1_555
H20_4 C16_4 1_555 1_555
Cu8_3 I6_4 1_555 1_555
Cu8 N8_4 1_555 1_555
Cu8_4 I3_4 1_555 1_555
N6_4 Cu8_3 1_555 1_555
N8_4 N11 1_555 1_555
N11 C27_4 1_555 1_555
C19_4 C2_4 1_555 1_555
C20_4 C19_4 1_555 1_555
H21_4 C20_4 1_555 1_555
H22_4 C20_4 1_555 1_555
C21_4 C6_4 1_555 1_555
C23_4 C21_4 1_555 1_555
H25_4 C23_4 1_555 1_555
H26_4 C23_4 1_555 1_555
H27_4 C23_4 1_555 1_555
C24_4 C21_4 1_555 1_555
H28_4 C24_4 1_555 1_555
H29_4 C24_4 1_555 1_555
H30_4 C24_4 1_555 1_555
C25_4 N8_4 1_555 1_555
C26_4 C10_4 1_555 1_555
C27_4 C10_4 1_555 1_555
C28_4 C27_4 1_555 1_555
H31_4 C28_4 1_555 1_555
H32_4 C28_4 1_555 1_555
C29_4 C14_4 1_555 1_555
C30_4 C13_4 1_555 1_555
H33_4 C30_4 1_555 1_555
H34_4 C30_4 1_555 1_555
C31_4 C29_4 1_555 1_555
H35_4 C31_4 1_555 1_555
H36_4 C31_4 1_555 1_555
H37_4 C31_4 1_555 1_555
C32_4 C29_4 1_555 1_555
H38_4 C32_4 1_555 1_555
H39_4 C32_4 1_555 1_555
H40_4 C32_4 1_555 1_555
N9_2 N4_4 1_555 1_555
C11_4 C26_4 1_555 1_555
N6_4 C19_4 1_555 1_555
C20_4 C21_4 1_555 1_555
C25_4 C26_4 1_555 1_555
C25_4 C30_4 1_555 1_555
C28_4 C29_4 1_555 1_555
C3_4 N2_4 1_555 1_555
C4_4 C3_4 1_555 1_555
H1_4 C4_4 1_555 1_555
H2_4 C4_4 1_555 1_555
C5_4 C4_4 1_555 1_555
C7_4 C5_4 1_555 1_555
H5_4 C7_4 1_555 1_555
H6_4 C7_4 1_555 1_555
H7_4 C7_4 1_555 1_555
C8_4 C5_4 1_555 1_555
H8_4 C8_4 1_555 1_555
H9_4 C8_4 1_555 1_555
H10_4 C8_4 1_555 1_555
Cu5_4 I2_5 1_555 1_555
I6_5 Cu3_4 1_555 1_555
N5_4 Cu3_4 1_555 1_555
N9_4 Cu5_4 1_555 1_555
N11_4 Cu3_4 1_555 1_555
C17_4 N5_4 1_555 1_555
C22_4 C5_4 1_555 1_555
H23_4 C22_4 1_555 1_555
H24_4 C22_4 1_555 1_555
N2_4 Cu5_4 1_555 1_555
C3_4 C18_4 1_555 1_555
C17_4 C18_4 1_555 1_555
C17_4 C22_4 1_555 1_555
Cu1_5 I4_3 1_555 1_555
I2_6 Cu1_5 1_555 1_555
N1_5 Cu1_5 1_555 1_555
N2_5 N1_5 1_555 1_555
N4_5 Cu1_5 1_555 1_555
C1_5 N1_5 1_555 1_555
C2_5 C1_5 1_555 1_555
C3_5 N2_5 1_555 1_555
C4_5 C3_5 1_555 1_555
H1_5 C4_5 1_555 1_555
H2_5 C4_5 1_555 1_555
C5_5 C4_5 1_555 1_555
C6_5 C1_5 1_555 1_555
H3_5 C6_5 1_555 1_555
H4_5 C6_5 1_555 1_555
C7_5 C5_5 1_555 1_555
H5_5 C7_5 1_555 1_555
H6_5 C7_5 1_555 1_555
H7_5 C7_5 1_555 1_555
C8_5 C5_5 1_555 1_555
H8_5 C8_5 1_555 1_555
H9_5 C8_5 1_555 1_555
H10_5 C8_5 1_555 1_555
C9_5 N9_3 1_555 1_555
C10_5 C9_5 1_555 1_555
C11_5 N4_5 1_555 1_555
C12_5 C11_5 1_555 1_555
H11_5 C12_5 1_555 1_555
H12_5 C12_5 1_555 1_555
C13_5 C12_5 1_555 1_555
C14_5 C9_5 1_555 1_555
H13_5 C14_5 1_555 1_555
H14_5 C14_5 1_555 1_555
C15_5 C13_5 1_555 1_555
H15_5 C15_5 1_555 1_555
H16_5 C15_5 1_555 1_555
H17_5 C15_5 1_555 1_555
C16_5 C13_5 1_555 1_555
H18_5 C16_5 1_555 1_555
H19_5 C16_5 1_555 1_555
H20_5 C16_5 1_555 1_555
Cu3_5 I3_5 1_555 1_555
Cu5_5 I2_6 1_555 1_555
Cu8 I6_6 1_555 1_555
Cu8_2 N8_5 1_555 1_555
Cu8_5 I3_5 1_555 1_555
I4_5 Cu5_5 1_555 1_555
I6_6 Cu3_5 1_555 1_555
N5_5 Cu3_5 1_555 1_555
N6_5 Cu8 1_555 1_555
N8_5 N11_2 1_555 1_555
N9_5 Cu5_5 1_555 1_555
N11_2 C27_5 1_555 1_555
N11_5 Cu3_5 1_555 1_555
C17_5 N5_5 1_555 1_555
C18_5 C2_5 1_555 1_555
C19_5 C2_5 1_555 1_555
C20_5 C19_5 1_555 1_555
H21_5 C20_5 1_555 1_555
H22_5 C20_5 1_555 1_555
C21_5 C6_5 1_555 1_555
C22_5 C5_5 1_555 1_555
H23_5 C22_5 1_555 1_555
H24_5 C22_5 1_555 1_555
C23_5 C21_5 1_555 1_555
H25_5 C23_5 1_555 1_555
H26_5 C23_5 1_555 1_555
H27_5 C23_5 1_555 1_555
C24_5 C21_5 1_555 1_555
H28_5 C24_5 1_555 1_555
H29_5 C24_5 1_555 1_555
H30_5 C24_5 1_555 1_555
C25_5 N8_5 1_555 1_555
C26_5 C10_5 1_555 1_555
C27_5 C10_5 1_555 1_555
C28_5 C27_5 1_555 1_555
H31_5 C28_5 1_555 1_555
H32_5 C28_5 1_555 1_555
C29_5 C14_5 1_555 1_555
C30_5 C13_5 1_555 1_555
H33_5 C30_5 1_555 1_555
H34_5 C30_5 1_555 1_555
C31_5 C29_5 1_555 1_555
H35_5 C31_5 1_555 1_555
H36_5 C31_5 1_555 1_555
H37_5 C31_5 1_555 1_555
C32_5 C29_5 1_555 1_555
H38_5 C32_5 1_555 1_555
H39_5 C32_5 1_555 1_555
H40_5 C32_5 1_555 1_555
N2_5 Cu5_5 1_555 1_555
N9_3 N4_5 1_555 1_555
C3_5 C18_5 1_555 1_555
C11_5 C26_5 1_555 1_555
N5_5 N6_5 1_555 1_555
N6_5 C19_5 1_555 1_555
C17_5 C18_5 1_555 1_555
C17_5 C22_5 1_555 1_555
C20_5 C21_5 1_555 1_555
C25_5 C26_5 1_555 1_555
C25_5 C30_5 1_555 1_555
C28_5 C29_5 1_555 1_555
C3_6 N2_6 1_555 1_555
C4_6 C3_6 1_555 1_555
H1_6 C4_6 1_555 1_555
H2_6 C4_6 1_555 1_555
C5_6 C4_6 1_555 1_555
C7_6 C5_6 1_555 1_555
H5_6 C7_6 1_555 1_555
H6_6 C7_6 1_555 1_555
H7_6 C7_6 1_555 1_555
C8_6 C5_6 1_555 1_555
H8_6 C8_6 1_555 1_555
H9_6 C8_6 1_555 1_555
H10_6 C8_6 1_555 1_555
Cu5_6 I2_7 1_555 1_555
I6_7 Cu3_6 1_555 1_555
N5_6 Cu3_6 1_555 1_555
N9_6 Cu5_6 1_555 1_555
N11_6 Cu3_6 1_555 1_555
C17_6 N5_6 1_555 1_555
C22_6 C5_6 1_555 1_555
H23_6 C22_6 1_555 1_555
H24_6 C22_6 1_555 1_555
N2_6 Cu5_6 1_555 1_555
C3_6 C18_6 1_555 1_555
C17_6 C18_6 1_555 1_555
C17_6 C22_6 1_555 1_555
I2_8 Cu1_6 1_555 1_555
N1_6 Cu1_6 1_555 1_555
N4_6 Cu1_6 1_555 1_555
C1_6 N1_6 1_555 1_555
C2_6 C1_6 1_555 1_555
C6_6 C1_6 1_555 1_555
H3_6 C6_6 1_555 1_555
H4_6 C6_6 1_555 1_555
C9_6 N9 1_555 1_555
C10_6 C9_6 1_555 1_555
C11_6 N4_6 1_555 1_555
C12_6 C11_6 1_555 1_555
H11_6 C12_6 1_555 1_555
H12_6 C12_6 1_555 1_555
C13_6 C12_6 1_555 1_555
C14_6 C9_6 1_555 1_555
H13_6 C14_6 1_555 1_555
H14_6 C14_6 1_555 1_555
C15_6 C13_6 1_555 1_555
H15_6 C15_6 1_555 1_555
H16_6 C15_6 1_555 1_555
H17_6 C15_6 1_555 1_555
C16_6 C13_6 1_555 1_555
H18_6 C16_6 1_555 1_555
H19_6 C16_6 1_555 1_555
H20_6 C16_6 1_555 1_555
Cu8_2 I6_8 1_555 1_555
Cu8_3 N8_6 1_555 1_555
Cu8_6 I3_6 1_555 1_555
N6_6 Cu8_2 1_555 1_555
N8_6 N11_3 1_555 1_555
N11_3 C27_6 1_555 1_555
C19_6 C2_6 1_555 1_555
C20_6 C19_6 1_555 1_555
H21_6 C20_6 1_555 1_555
H22_6 C20_6 1_555 1_555
C21_6 C6_6 1_555 1_555
C23_6 C21_6 1_555 1_555
H25_6 C23_6 1_555 1_555
H26_6 C23_6 1_555 1_555
H27_6 C23_6 1_555 1_555
C24_6 C21_6 1_555 1_555
H28_6 C24_6 1_555 1_555
H29_6 C24_6 1_555 1_555
H30_6 C24_6 1_555 1_555
C25_6 N8_6 1_555 1_555
C26_6 C10_6 1_555 1_555
C27_6 C10_6 1_555 1_555
C28_6 C27_6 1_555 1_555
H31_6 C28_6 1_555 1_555
H32_6 C28_6 1_555 1_555
C29_6 C14_6 1_555 1_555
C30_6 C13_6 1_555 1_555
H33_6 C30_6 1_555 1_555
H34_6 C30_6 1_555 1_555
C31_6 C29_6 1_555 1_555
H35_6 C31_6 1_555 1_555
H36_6 C31_6 1_555 1_555
H37_6 C31_6 1_555 1_555
C32_6 C29_6 1_555 1_555
H38_6 C32_6 1_555 1_555
H39_6 C32_6 1_555 1_555
H40_6 C32_6 1_555 1_555
N9 N4_6 1_555 1_555
C11_6 C26_6 1_555 1_555
N6_6 C19_6 1_555 1_555
C20_6 C21_6 1_555 1_555
C25_6 C26_6 1_555 1_555
C25_6 C30_6 1_555 1_555
C28_6 C29_6 1_555 1_555
Cu7 I3_7 1_555 1_555
H8_7 C8_7 1_555 1_555
H9_7 C8_7 1_555 1_555
H10_7 C8_7 1_555 1_555
Cu1_7 I4_5 1_555 1_555
I5_3 Cu1_7 1_555 1_555
N1_7 Cu1_7 1_555 1_555
N7_3 N1_7 1_555 1_555
N4_7 Cu1_7 1_555 1_555
C1_7 N1_7 1_555 1_555
C2_7 C1_7 1_555 1_555
C3_7 N7_3 1_555 1_555
C4_7 C3_7 1_555 1_555
H1_7 C4_7 1_555 1_555
H2_7 C4_7 1_555 1_555
C5_7 C4_7 1_555 1_555
C6_7 C1_7 1_555 1_555
H3_7 C6_7 1_555 1_555
H4_7 C6_7 1_555 1_555
C7_7 C5_7 1_555 1_555
H5_7 C7_7 1_555 1_555
H6_7 C7_7 1_555 1_555
H7_7 C7_7 1_555 1_555
C9_7 N9_5 1_555 1_555
C10_7 C9_7 1_555 1_555
C11_7 N4_7 1_555 1_555
C12_7 C11_7 1_555 1_555
H11_7 C12_7 1_555 1_555
H12_7 C12_7 1_555 1_555
C13_7 C12_7 1_555 1_555
C14_7 C9_7 1_555 1_555
H13_7 C14_7 1_555 1_555
H14_7 C14_7 1_555 1_555
C15_7 C13_7 1_555 1_555
H15_7 C15_7 1_555 1_555
H16_7 C15_7 1_555 1_555
H17_7 C15_7 1_555 1_555
C16_7 C13_7 1_555 1_555
H18_7 C16_7 1_555 1_555
H19_7 C16_7 1_555 1_555
H20_7 C16_7 1_555 1_555
Cu4 I3_10 1_555 1_555
N5_7 Cu4 1_555 1_555
N6_7 Cu8_6 1_555 1_555
N8_7 N11_4 1_555 1_555
N11_4 C27_7 1_555 1_555
C17_7 N5_7 1_555 1_555
C18_7 C2_7 1_555 1_555
C19_7 C2_7 1_555 1_555
C20_7 C19_7 1_555 1_555
H21_7 C20_7 1_555 1_555
H22_7 C20_7 1_555 1_555
C21_7 C6_7 1_555 1_555
C22_7 C5_7 1_555 1_555
H23_7 C22_7 1_555 1_555
H24_7 C22_7 1_555 1_555
C23_7 C21_7 1_555 1_555
H25_7 C23_7 1_555 1_555
H26_7 C23_7 1_555 1_555
H27_7 C23_7 1_555 1_555
C24_7 C21_7 1_555 1_555
H28_7 C24_7 1_555 1_555
H29_7 C24_7 1_555 1_555
H30_7 C24_7 1_555 1_555
C25_7 N8_7 1_555 1_555
C26_7 C10_7 1_555 1_555
C27_7 C10_7 1_555 1_555
C28_7 C27_7 1_555 1_555
H31_7 C28_7 1_555 1_555
H32_7 C28_7 1_555 1_555
C29_7 C14_7 1_555 1_555
C30_7 C13_7 1_555 1_555
H33_7 C30_7 1_555 1_555
H34_7 C30_7 1_555 1_555
C31_7 C29_7 1_555 1_555
H35_7 C31_7 1_555 1_555
H36_7 C31_7 1_555 1_555
H37_7 C31_7 1_555 1_555
C32_7 C29_7 1_555 1_555
H38_7 C32_7 1_555 1_555
H39_7 C32_7 1_555 1_555
H40_7 C32_7 1_555 1_555
N9_5 N4_7 1_555 1_555
C3_7 C18_7 1_555 1_555
C11_7 C26_7 1_555 1_555
N5_7 N6_7 1_555 1_555
N6_7 C19_7 1_555 1_555
C17_7 C18_7 1_555 1_555
C17_7 C22_7 1_555 1_555
C20_7 C21_7 1_555 1_555
C25_7 C26_7 1_555 1_555
C25_7 C30_7 1_555 1_555
C28_7 C29_7 1_555 1_555
C9_8 N9_6 1_555 1_555
C10_8 C9_8 1_555 1_555
C11_8 N4_8 1_555 1_555
C12_8 C11_8 1_555 1_555
H11_8 C12_8 1_555 1_555
H12_8 C12_8 1_555 1_555
C13_8 C12_8 1_555 1_555
C14_8 C9_8 1_555 1_555
H13_8 C14_8 1_555 1_555
H14_8 C14_8 1_555 1_555
C15_8 C13_8 1_555 1_555
H15_8 C15_8 1_555 1_555
H16_8 C15_8 1_555 1_555
H17_8 C15_8 1_555 1_555
C16_8 C13_8 1_555 1_555
H18_8 C16_8 1_555 1_555
H19_8 C16_8 1_555 1_555
H20_8 C16_8 1_555 1_555
Cu8_5 N8_8 1_555 1_555
N8_8 N11_5 1_555 1_555
N11_5 C27_8 1_555 1_555
C25_8 N8_8 1_555 1_555
C26_8 C10_8 1_555 1_555
C27_8 C10_8 1_555 1_555
C28_8 C27_8 1_555 1_555
H31_8 C28_8 1_555 1_555
H32_8 C28_8 1_555 1_555
C29_8 C14_8 1_555 1_555
C30_8 C13_8 1_555 1_555
H33_8 C30_8 1_555 1_555
H34_8 C30_8 1_555 1_555
C31_8 C29_8 1_555 1_555
H35_8 C31_8 1_555 1_555
H36_8 C31_8 1_555 1_555
H37_8 C31_8 1_555 1_555
C32_8 C29_8 1_555 1_555
H38_8 C32_8 1_555 1_555
H39_8 C32_8 1_555 1_555
H40_8 C32_8 1_555 1_555
N9_6 N4_8 1_555 1_555
C11_8 C26_8 1_555 1_555
C25_8 C26_8 1_555 1_555
C25_8 C30_8 1_555 1_555
C28_8 C29_8 1_555 1_555
H8_8 C8_8 1_555 1_555
H9_8 C8_8 1_555 1_555
H10_8 C8_8 1_555 1_555
Cu1_8 I4_6 1_555 1_555
N1_8 Cu1_8 1_555 1_555
N7 N1_8 1_555 1_555
C1_8 N1_8 1_555 1_555
C2_8 C1_8 1_555 1_555
C3_8 N7 1_555 1_555
C4_8 C3_8 1_555 1_555
H1_8 C4_8 1_555 1_555
H2_8 C4_8 1_555 1_555
C5_8 C4_8 1_555 1_555
C6_8 C1_8 1_555 1_555
H3_8 C6_8 1_555 1_555
H4_8 C6_8 1_555 1_555
C7_8 C5_8 1_555 1_555
H5_8 C7_8 1_555 1_555
H6_8 C7_8 1_555 1_555
H7_8 C7_8 1_555 1_555
Cu4_2 I3_12 1_555 1_555
N5_8 Cu4_2 1_555 1_555
N6_8 Cu8_4 1_555 1_555
C17_8 N5_8 1_555 1_555
C18_8 C2_8 1_555 1_555
C19_8 C2_8 1_555 1_555
C20_8 C19_8 1_555 1_555
H21_8 C20_8 1_555 1_555
H22_8 C20_8 1_555 1_555
C21_8 C6_8 1_555 1_555
C22_8 C5_8 1_555 1_555
H23_8 C22_8 1_555 1_555
H24_8 C22_8 1_555 1_555
C23_8 C21_8 1_555 1_555
H25_8 C23_8 1_555 1_555
H26_8 C23_8 1_555 1_555
H27_8 C23_8 1_555 1_555
C24_8 C21_8 1_555 1_555
H28_8 C24_8 1_555 1_555
H29_8 C24_8 1_555 1_555
H30_8 C24_8 1_555 1_555
C3_8 C18_8 1_555 1_555
N5_8 N6_8 1_555 1_555
N6_8 C19_8 1_555 1_555
C17_8 C18_8 1_555 1_555
C17_8 C22_8 1_555 1_555
C20_8 C21_8 1_555 1_555
Cu7_2 I3_13 1_555 1_555
H8_9 C8_9 1_555 1_555
H9_9 C8_9 1_555 1_555
H10_9 C8_9 1_555 1_555
Cu6 I3_15 1_555 1_555
Cu1_9 I4_4 1_555 1_555
N1_9 Cu1_9 1_555 1_555
N7_2 N1_9 1_555 1_555
C1_9 N1_9 1_555 1_555
C2_9 C1_9 1_555 1_555
C3_9 N7_2 1_555 1_555
C4_9 C3_9 1_555 1_555
H1_9 C4_9 1_555 1_555
H2_9 C4_9 1_555 1_555
C5_9 C4_9 1_555 1_555
C6_9 C1_9 1_555 1_555
H3_9 C6_9 1_555 1_555
H4_9 C6_9 1_555 1_555
C7_9 C5_9 1_555 1_555
H5_9 C7_9 1_555 1_555
H6_9 C7_9 1_555 1_555
H7_9 C7_9 1_555 1_555
Cu4_3 I3_16 1_555 1_555
Cu8_5 I6_11 1_555 1_555
I6_11 Cu4_3 1_555 1_555
N5_9 Cu4_3 1_555 1_555
N6_9 Cu8_5 1_555 1_555
C17_9 N5_9 1_555 1_555
C18_9 C2_9 1_555 1_555
C19_9 C2_9 1_555 1_555
C20_9 C19_9 1_555 1_555
H21_9 C20_9 1_555 1_555
H22_9 C20_9 1_555 1_555
C21_9 C6_9 1_555 1_555
C22_9 C5_9 1_555 1_555
H23_9 C22_9 1_555 1_555
H24_9 C22_9 1_555 1_555
C23_9 C21_9 1_555 1_555
H25_9 C23_9 1_555 1_555
H26_9 C23_9 1_555 1_555
H27_9 C23_9 1_555 1_555
C24_9 C21_9 1_555 1_555
H28_9 C24_9 1_555 1_555
H29_9 C24_9 1_555 1_555
H30_9 C24_9 1_555 1_555
C3_9 C18_9 1_555 1_555
N5_9 N6_9 1_555 1_555
N6_9 C19_9 1_555 1_555
C17_9 C18_9 1_555 1_555
C17_9 C22_9 1_555 1_555
C20_9 C21_9 1_555 1_555
C9_9 N9_4 1_555 1_555
C10_9 C9_9 1_555 1_555
C11_9 N4_9 1_555 1_555
C12_9 C11_9 1_555 1_555
H11_9 C12_9 1_555 1_555
H12_9 C12_9 1_555 1_555
C13_9 C12_9 1_555 1_555
C14_9 C9_9 1_555 1_555
H13_9 C14_9 1_555 1_555
H14_9 C14_9 1_555 1_555
C15_9 C13_9 1_555 1_555
H15_9 C15_9 1_555 1_555
H16_9 C15_9 1_555 1_555
H17_9 C15_9 1_555 1_555
C16_9 C13_9 1_555 1_555
H18_9 C16_9 1_555 1_555
H19_9 C16_9 1_555 1_555
H20_9 C16_9 1_555 1_555
N8_9 N11_6 1_555 1_555
N11_6 C27_9 1_555 1_555
C25_9 N8_9 1_555 1_555
C26_9 C10_9 1_555 1_555
C27_9 C10_9 1_555 1_555
C28_9 C27_9 1_555 1_555
H31_9 C28_9 1_555 1_555
H32_9 C28_9 1_555 1_555
C29_9 C14_9 1_555 1_555
C30_9 C13_9 1_555 1_555
H33_9 C30_9 1_555 1_555
H34_9 C30_9 1_555 1_555
C31_9 C29_9 1_555 1_555
H35_9 C31_9 1_555 1_555
H36_9 C31_9 1_555 1_555
H37_9 C31_9 1_555 1_555
C32_9 C29_9 1_555 1_555
H38_9 C32_9 1_555 1_555
H39_9 C32_9 1_555 1_555
H40_9 C32_9 1_555 1_555
N9_4 N4_9 1_555 1_555
C11_9 C26_9 1_555 1_555
C25_9 C26_9 1_555 1_555
C25_9 C30_9 1_555 1_555
C28_9 C29_9 1_555 1_555

#END
