
###############################################################################
#
# This file contains modified crystal structure data generated from the
# MOF subset of the Cambridge Structural Database (CSD) v543 
# hosted by the Cambridge Crystallographic Data Centre (CCDC).
#
# This work is licensed under the Creative Commons
# Attribution-NonCommercial-ShareAlike 4.0 International License.
# To view a copy of this license, visit
# http://creativecommons.org/licenses/by-nc-sa/4.0/
# or send a letter to
# Creative Commons, PO Box 1866, Mountain View, CA 94042, USA.
#
# CIF created using the CSD Python API on 29 September 2022
# The structure has been converted into the P1 space group
# The structure has a 3D framework
# The original CSD entry QETCUO is in the triclinic crystal system
# The framework has been calculated to contain at least 10.0% void space
# The void calculation uses a probe of radius 1.32A, grid spacing 0.4
#
###############################################################################

data_QETCUO
_chemical_formula_moiety         '(C42 H40 Gd2 N8 O16)n'
_symmetry_cell_setting           triclinic
_symmetry_space_group_name_H-M   'P 1'
_symmetry_Int_Tables_number      1
_space_group_name_Hall           'P 1'
loop_
_symmetry_equiv_pos_site_id
_symmetry_equiv_pos_as_xyz
1 x,y,z
_cell_length_a                   9.938(2)
_cell_length_b                   11.713(2)
_cell_length_c                   13.498(3)
_cell_angle_alpha                66.88(3)
_cell_angle_beta                 86.94(3)
_cell_angle_gamma                76.45(3)
_cell_volume                     1403.49
loop_
_atom_site_label
_atom_site_type_symbol
_atom_site_fract_x
_atom_site_fract_y
_atom_site_fract_z
_atom_site_U_iso_or_equiv
_atom_site_thermal_displace_type
Gd6 Gd 0.236410(10) 0.526172(10) 0.004825(8) 0.0153 Uani
O6 O 0.10438(17) 0.52693(17) 0.15775(13) 0.0260 Uani
C18 C 0.0090(3) 0.5074(3) 0.3585(2) 0.0275 Uani
H9 H 0.0912 0.5338 0.3386 0.0330 Uiso
H17 H 0.020(4) 0.292(3) 0.080(3) 0.0450 Uiso
O17 O 0.08885(17) 0.50624(17) 0.88935(13) 0.0256 Uani
N7 N 0.1562(3) 0.5503(4) 0.5065(2) 0.0585 Uani
C34 C 0.0132(2) 0.4958(2) 0.82367(18) 0.0196 Uani
C35 C 0.0659(3) 0.5132(3) 0.71344(19) 0.0264 Uani
C36 C 0.1867(3) 0.5535(4) 0.6803(2) 0.0518 Uani
H27 H 0.2398 0.5688 0.7264 0.0620 Uiso
C37 C 0.2265(4) 0.5705(5) 0.5768(3) 0.0715 Uani
H28 H 0.3078 0.5979 0.5548 0.0860 Uiso
C38 C 0.0390(3) 0.5113(3) 0.5394(2) 0.0336 Uani
O3 O 0.65617(17) 0.35088(16) 0.15036(13) 0.0256 Uani
O4 O 0.43161(17) 0.44123(17) 0.12166(13) 0.0283 Uani
N2 N 0.4608(3) 0.1768(2) 0.51570(18) 0.0402 Uani
C5 C 0.6843(3) 0.0309(2) 0.5526(2) 0.0290 Uani
C7 C 0.5817(3) 0.1404(2) 0.4751(2) 0.0272 Uani
C8 C 0.3660(3) 0.2718(3) 0.4483(2) 0.0462 Uani
H4 H 0.2820 0.2978 0.4758 0.0550 Uiso
C9 C 0.3844(3) 0.3347(3) 0.3394(2) 0.0340 Uani
H5 H 0.3139 0.3996 0.2951 0.0410 Uiso
C10 C 0.5102(2) 0.2986(2) 0.29839(18) 0.0218 Uani
C11 C 0.6108(3) 0.1999(2) 0.36743(19) 0.0249 Uani
H6 H 0.6965 0.1738 0.3422 0.0300 Uiso
C12 C 0.5349(2) 0.3673(2) 0.18092(18) 0.0197 Uani
Gd3 Gd 0.763590(10) 0.473828(10) 0.995175(8) 0.0153 Uani
O5 O 0.91115(17) 0.49376(17) 0.11065(13) 0.0256 Uani
O7 O 0.6070(2) 0.62621(19) 0.06050(16) 0.0283 Uani
O8 O 0.9499(2) 0.28236(19) 0.06116(17) 0.0305 Uani
N3 N 0.8438(3) 0.4497(4) 0.4935(2) 0.0585 Uani
C13 C 0.9868(2) 0.5042(2) 0.17633(18) 0.0196 Uani
C14 C 0.9341(3) 0.4868(3) 0.28656(19) 0.0264 Uani
C15 C 0.8133(3) 0.4465(4) 0.3197(2) 0.0518 Uani
H7 H 0.7602 0.4312 0.2736 0.0620 Uiso
C16 C 0.7735(4) 0.4295(5) 0.4232(3) 0.0715 Uani
H8 H 0.6922 0.4021 0.4452 0.0860 Uiso
C17 C 0.9610(3) 0.4887(3) 0.4606(2) 0.0336 Uani
H18 H 0.600(3) 0.699(3) 0.011(3) 0.0380 Uiso
H19 H 0.536(4) 0.618(3) 0.061(3) 0.0400 Uiso
H20 H 0.974(4) 0.246(4) 0.020(4) 0.0700 Uiso
O19 O 0.89562(17) 0.47307(17) 0.84225(13) 0.0260 Uani
C39 C 0.9910(3) 0.4926(3) 0.6415(2) 0.0275 Uani
H29 H 0.9088 0.4662 0.6614 0.0330 Uiso
O1 O 0.6035(2) 0.83589(19) 0.87648(16) 0.0424 Uani
O2 O 0.79559(17) 0.68575(15) 0.89300(13) 0.0257 Uani
O9 O 0.70790(19) 0.30624(18) 0.94714(16) 0.0337 Uani
N1 N 0.8086(3) 0.9987(3) 0.5149(2) 0.0471 Uani
N4 N 0.6937(4) 0.2036(4) 0.8394(3) 0.0735 Uani
C1 C 0.7111(3) 0.7913(2) 0.84124(19) 0.0243 Uani
C2 C 0.7475(3) 0.8652(2) 0.72745(19) 0.0258 Uani
C3 C 0.8764(3) 0.8322(3) 0.6896(2) 0.0400 Uani
H1 H 0.9448 0.7652 0.7345 0.0480 Uiso
C4 C 0.9015(3) 0.9009(3) 0.5836(3) 0.0540 Uani
H2 H 0.9884 0.8778 0.5585 0.0650 Uiso
C6 C 0.6499(3) 0.9665(2) 0.65749(19) 0.0251 Uani
H3 H 0.5621 0.9911 0.6807 0.0300 Uiso
C19 C 0.7272(4) 0.2909(4) 0.8635(3) 0.0557 Uani
H10 H 0.7706 0.3476 0.8107 0.0670 Uiso
C20 C 0.6300(7) 0.1079(5) 0.9179(5) 0.1168 Uani
H11 H 0.6247 0.1188 0.9850 0.1750 Uiso
H12 H 0.6847 0.0243 0.9288 0.1750 Uiso
H13 H 0.5384 0.1172 0.8918 0.1750 Uiso
C21 C 0.7168(10) 0.1994(8) 0.7332(6) 0.1782 Uani
H14 H 0.7553 0.2697 0.6883 0.2670 Uiso
H15 H 0.6302 0.2053 0.7010 0.2670 Uiso
H16 H 0.7799 0.1206 0.7402 0.2670 Uiso
O15 O 0.56839(17) 0.55877(17) 0.87834(13) 0.0283 Uani
O10 O 0.3965(2) 0.16411(19) 0.12352(16) 0.0424 Uani
O11 O 0.20441(17) 0.31425(15) 0.10700(13) 0.0257 Uani
O24 O 0.29210(19) 0.69376(18) 0.05286(16) 0.0337 Uani
N5 N 0.1914(3) 0.0013(3) 0.4851(2) 0.0471 Uani
N8 N 0.3063(4) 0.7964(4) 0.1606(3) 0.0735 Uani
C22 C 0.2889(3) 0.2087(2) 0.15876(19) 0.0243 Uani
C23 C 0.2525(3) 0.1348(2) 0.27255(19) 0.0258 Uani
C24 C 0.1236(3) 0.1678(3) 0.3104(2) 0.0400 Uani
H21 H 0.0552 0.2348 0.2655 0.0480 Uiso
C25 C 0.0985(3) 0.0991(3) 0.4164(3) 0.0540 Uani
H22 H 0.0116 0.1222 0.4415 0.0650 Uiso
C27 C 0.3501(3) 0.0335(2) 0.34251(19) 0.0251 Uani
H23 H 0.4379 0.0089 0.3193 0.0300 Uiso
C40 C 0.2728(4) 0.7091(4) 0.1365(3) 0.0557 Uani
H30 H 0.2294 0.6524 0.1893 0.0670 Uiso
C41 C 0.3700(7) 0.8921(5) 0.0821(5) 0.1168 Uani
H31 H 0.3753 0.8812 0.0150 0.1750 Uiso
H32 H 0.3153 0.9757 0.0712 0.1750 Uiso
H33 H 0.4616 0.8828 0.1082 0.1750 Uiso
C42 C 0.2832(10) 0.8006(8) 0.2668(6) 0.1782 Uani
H34 H 0.2447 0.7303 0.3117 0.2670 Uiso
H35 H 0.3698 0.7947 0.2990 0.2670 Uiso
H36 H 0.2201 0.8794 0.2598 0.2670 Uiso
O13 O 0.34383(17) 0.64912(16) 0.84964(13) 0.0256 Uani
O22 O 0.3930(2) 0.37379(19) 0.93950(16) 0.0283 Uani
O23 O 0.0501(2) 0.71764(19) 0.93884(17) 0.0305 Uani
H38 H 0.400(3) 0.301(3) 0.989(3) 0.0380 Uiso
H39 H 0.464(4) 0.382(3) 0.939(3) 0.0400 Uiso
H40 H 0.026(4) 0.754(4) 0.980(4) 0.0700 Uiso
N6 N 0.5392(3) 0.8232(2) 0.48430(18) 0.0402 Uani
C26 C 0.3157(3) 0.9691(2) 0.4474(2) 0.0290 Uani
C28 C 0.4183(3) 0.8596(2) 0.5249(2) 0.0272 Uani
C29 C 0.6340(3) 0.7282(3) 0.5517(2) 0.0462 Uani
H24 H 0.7180 0.7022 0.5242 0.0550 Uiso
C30 C 0.6156(3) 0.6653(3) 0.6606(2) 0.0340 Uani
H25 H 0.6861 0.6004 0.7049 0.0410 Uiso
C31 C 0.4898(2) 0.7014(2) 0.70161(18) 0.0218 Uani
C32 C 0.3892(3) 0.8001(2) 0.63257(19) 0.0249 Uani
H26 H 0.3035 0.8262 0.6578 0.0300 Uiso
C33 C 0.4651(2) 0.6327(2) 0.81908(18) 0.0197 Uani
H37 H 0.980(4) 0.708(3) 0.920(3) 0.0450 Uiso
loop_
_atom_site_aniso_label
_atom_site_aniso_U_11
_atom_site_aniso_U_22
_atom_site_aniso_U_33
_atom_site_aniso_U_23
_atom_site_aniso_U_13
_atom_site_aniso_U_12
Gd6 0.01532 0.01921 0.01015 -0.0041 -0.00052 -0.00434
O6 0.026 0.0389 0.0174 -0.0137 0.0049 -0.0114
C18 0.0247 0.0435 0.0215 -0.0176 0.0051 -0.0133
O17 0.0261 0.0379 0.0165 -0.014 -0.0018 -0.0075
N7 0.0541 0.122 0.0305 -0.0449 0.0219 -0.0561
C34 0.0203 0.023 0.0153 -0.0084 -0.0002 -0.0028
C35 0.0256 0.0399 0.0177 -0.0142 0.0024 -0.0101
C36 0.0464 0.105 0.0325 -0.0412 0.0144 -0.048
C37 0.059 0.157 0.0421 -0.06 0.0306 -0.075
C38 0.0326 0.0573 0.0212 -0.0217 0.0073 -0.0198
O3 0.0234 0.0282 0.0192 -0.003 0.0035 -0.0066
O4 0.0232 0.0354 0.0179 -0.0001 -0.0069 -0.0079
N2 0.0371 0.0432 0.0202 0.0002 0.0054 0.0045
C5 0.026 0.0285 0.0229 -0.0004 0.0005 -0.0056
C7 0.0263 0.0273 0.0206 -0.0024 -0.0009 -0.0044
C8 0.0341 0.053 0.0251 -0.0002 0.0088 0.0105
C9 0.0284 0.0364 0.0214 -0.0009 0.0015 0.0033
C10 0.0224 0.0237 0.016 -0.0033 0.0003 -0.007
C11 0.0218 0.0266 0.0204 -0.0038 0.0008 -0.0045
C12 0.0223 0.0215 0.0157 -0.0056 -0.0008 -0.0082
Gd3 0.01532 0.01921 0.01015 -0.0041 -0.00052 -0.00434
O5 0.0261 0.0379 0.0165 -0.014 -0.0018 -0.0075
O7 0.0261 0.0271 0.0288 -0.008 0.0048 -0.0066
O8 0.0244 0.0301 0.0363 -0.013 -0.0049 -0.0036
N3 0.0541 0.122 0.0305 -0.0449 0.0219 -0.0561
C13 0.0203 0.023 0.0153 -0.0084 -0.0002 -0.0028
C14 0.0256 0.0399 0.0177 -0.0142 0.0024 -0.0101
C15 0.0464 0.105 0.0325 -0.0412 0.0144 -0.048
C16 0.059 0.157 0.0421 -0.06 0.0306 -0.075
C17 0.0326 0.0573 0.0212 -0.0217 0.0073 -0.0198
O19 0.026 0.0389 0.0174 -0.0137 0.0049 -0.0114
C39 0.0247 0.0435 0.0215 -0.0176 0.0051 -0.0133
O1 0.0448 0.0313 0.0304 0.0006 0.0097 0.0055
O2 0.0229 0.0204 0.0228 0.0033 -0.0021 -0.0046
O9 0.0326 0.0384 0.0395 -0.0236 0.0029 -0.0113
N1 0.0299 0.0509 0.0284 0.0112 0.0057 0.0017
N4 0.092 0.084 0.09 -0.069 0.023 -0.047
C1 0.0258 0.0221 0.0209 -0.0028 -0.0009 -0.0074
C2 0.0277 0.0231 0.021 -0.002 -0.0006 -0.0068
C3 0.0268 0.0375 0.032 0.0072 -0.0015 0.0003
C4 0.0272 0.058 0.0404 0.0114 0.0083 0.0019
C6 0.0238 0.0233 0.0223 -0.0032 0.0013 -0.0048
C19 0.068 0.068 0.06 -0.0435 0.0213 -0.041
C20 0.175 0.079 0.132 -0.056 0.022 -0.073
C21 0.289 0.244 0.138 -0.158 0.101 -0.188
O15 0.0232 0.0354 0.0179 -0.0001 -0.0069 -0.0079
O10 0.0448 0.0313 0.0304 0.0006 0.0097 0.0055
O11 0.0229 0.0204 0.0228 0.0033 -0.0021 -0.0046
O24 0.0326 0.0384 0.0395 -0.0236 0.0029 -0.0113
N5 0.0299 0.0509 0.0284 0.0112 0.0057 0.0017
N8 0.092 0.084 0.09 -0.069 0.023 -0.047
C22 0.0258 0.0221 0.0209 -0.0028 -0.0009 -0.0074
C23 0.0277 0.0231 0.021 -0.002 -0.0006 -0.0068
C24 0.0268 0.0375 0.032 0.0072 -0.0015 0.0003
C25 0.0272 0.058 0.0404 0.0114 0.0083 0.0019
C27 0.0238 0.0233 0.0223 -0.0032 0.0013 -0.0048
C40 0.068 0.068 0.06 -0.0435 0.0213 -0.041
C41 0.175 0.079 0.132 -0.056 0.022 -0.073
C42 0.289 0.244 0.138 -0.158 0.101 -0.188
O13 0.0234 0.0282 0.0192 -0.003 0.0035 -0.0066
O22 0.0261 0.0271 0.0288 -0.008 0.0048 -0.0066
O23 0.0244 0.0301 0.0363 -0.013 -0.0049 -0.0036
N6 0.0371 0.0432 0.0202 0.0002 0.0054 0.0045
C26 0.026 0.0285 0.0229 -0.0004 0.0005 -0.0056
C28 0.0263 0.0273 0.0206 -0.0024 -0.0009 -0.0044
C29 0.0341 0.053 0.0251 -0.0002 0.0088 0.0105
C30 0.0284 0.0364 0.0214 -0.0009 0.0015 0.0033
C31 0.0224 0.0237 0.016 -0.0033 0.0003 -0.007
C32 0.0218 0.0266 0.0204 -0.0038 0.0008 -0.0045
C33 0.0223 0.0215 0.0157 -0.0056 -0.0008 -0.0082
loop_
_geom_bond_atom_site_label_1
_geom_bond_atom_site_label_2
_geom_bond_site_symmetry_1
_geom_bond_site_symmetry_2
H9 C18 1_555 1_555
Gd6 O6 1_555 1_555
O17 C34 1_555 1_555
N7 C37 1_555 1_555
C34 C35 1_555 1_555
C35 C36 1_555 1_555
C36 H27 1_555 1_555
C37 C36 1_555 1_555
H28 C37 1_555 1_555
N7 C38 1_555 1_555
O3 C12 1_555 1_555
O4 C12 1_555 1_555
N2 C7 1_555 1_555
C7 C5 1_555 1_555
C8 N2 1_555 1_555
H4 C8 1_555 1_555
C9 C8 1_555 1_555
H5 C9 1_555 1_555
C10 C9 1_555 1_555
C11 C7 1_555 1_555
H6 C11 1_555 1_555
C12 C10 1_555 1_555
Gd6 O4 1_555 1_555
C10 C11 1_555 1_555
N3 C16 1_555 1_555
C13 O5 1_555 1_555
C14 C13 1_555 1_555
C15 C14 1_555 1_555
H7 C15 1_555 1_555
C16 C15 1_555 1_555
H8 C16 1_555 1_555
C17 N3 1_555 1_555
H18 O7 1_555 1_555
H19 O7 1_555 1_555
H20 O8 1_555 1_555
Gd3 O19 1_555 1_555
H29 C39 1_555 1_555
Gd3 O2 1_555 1_555
O1 C1 1_555 1_555
O2 C1 1_555 1_555
O9 Gd3 1_555 1_555
N1 C4 1_555 1_555
N4 C19 1_555 1_555
C1 C2 1_555 1_555
C2 C3 1_555 1_555
C3 H1 1_555 1_555
C4 C3 1_555 1_555
H2 C4 1_555 1_555
C6 C2 1_555 1_555
H3 C6 1_555 1_555
C19 O9 1_555 1_555
H10 C19 1_555 1_555
C20 N4 1_555 1_555
H11 C20 1_555 1_555
H12 C20 1_555 1_555
H13 C20 1_555 1_555
C21 N4 1_555 1_555
H14 C21 1_555 1_555
H15 C21 1_555 1_555
H16 C21 1_555 1_555
O15 Gd3 1_555 1_555
Gd6 O11 1_555 1_555
O10 C22 1_555 1_555
O11 C22 1_555 1_555
O24 Gd6 1_555 1_555
N5 C25 1_555 1_555
N8 C40 1_555 1_555
C22 C23 1_555 1_555
C23 C24 1_555 1_555
C24 H21 1_555 1_555
C25 C24 1_555 1_555
H22 C25 1_555 1_555
C27 C23 1_555 1_555
H23 C27 1_555 1_555
C40 O24 1_555 1_555
H30 C40 1_555 1_555
C41 N8 1_555 1_555
H31 C41 1_555 1_555
H32 C41 1_555 1_555
H33 C41 1_555 1_555
C42 N8 1_555 1_555
H34 C42 1_555 1_555
H35 C42 1_555 1_555
H36 C42 1_555 1_555
H38 O22 1_555 1_555
H39 O22 1_555 1_555
H40 O23 1_555 1_555
O15 C33 1_555 1_555
N6 C28 1_555 1_555
C28 C26 1_555 1_555
C29 N6 1_555 1_555
H24 C29 1_555 1_555
C30 C29 1_555 1_555
H25 C30 1_555 1_555
C31 C30 1_555 1_555
C32 C28 1_555 1_555
H26 C32 1_555 1_555
C33 O13 1_555 1_555
C31 C32 1_555 1_555
C31 C33 1_555 1_555

#END
