
###############################################################################
#
# This file contains modified crystal structure data generated from the
# MOF subset of the Cambridge Structural Database (CSD) v543 
# hosted by the Cambridge Crystallographic Data Centre (CCDC).
#
# This work is licensed under the Creative Commons
# Attribution-NonCommercial-ShareAlike 4.0 International License.
# To view a copy of this license, visit
# http://creativecommons.org/licenses/by-nc-sa/4.0/
# or send a letter to
# Creative Commons, PO Box 1866, Mountain View, CA 94042, USA.
#
# CIF created using the CSD Python API on 29 September 2022
# The structure has been converted into the P1 space group
# The structure has a 3D framework
# The original CSD entry QEVKOS is in the monoclinic crystal system
# The framework has been calculated to contain at least 10.0% void space
# The void calculation uses a probe of radius 1.32A, grid spacing 0.4
#
###############################################################################

data_QEVKOS
_chemical_formula_moiety         '(C112 H112 Cu14 N32 S32 W6)n'
_symmetry_cell_setting           triclinic
_symmetry_space_group_name_H-M   'P 1'
_symmetry_Int_Tables_number      1
_space_group_name_Hall           'P 1'
loop_
_symmetry_equiv_pos_site_id
_symmetry_equiv_pos_as_xyz
1 x,y,z
_cell_length_a                   25.503(2)
_cell_length_b                   11.0317(6)
_cell_length_c                   19.6110(16)
_cell_angle_alpha                90
_cell_angle_beta                 119.076(2)
_cell_angle_gamma                90
_cell_volume                     4822.06
loop_
_atom_site_label
_atom_site_type_symbol
_atom_site_fract_x
_atom_site_fract_y
_atom_site_fract_z
W3 W 0.243360(9) 0.087740(17) 0.244740(11)
Cu3 Cu 0.32900(3) 0.07865(6) 0.39501(4)
S6 S 0.16958(6) 0.21826(12) 0.20079(9)
S9 S 0.33023(6) 0.19110(12) 0.29716(9)
W1 W 0.256640(9) 0.587740(17) 0.255260(11)
Cu2 Cu 0.25611(3) 0.33722(5) 0.25314(4)
S2 S 0.25940(6) 0.47221(11) 0.16321(8)
S4 S 0.23627(8) 0.96907(13) 0.15078(9)
N1 N 0.1640(2) 0.6692(4) 0.0117(3)
N3 N 0.0991(2) 0.4659(4) 0.0668(3)
H1 H 0.1233 0.8244 0.0124
C8 C 0.0794(3) 0.3928(5) 0.0062(4)
C9 C 0.0634(3) 0.4464(5) 0.0993(4)
H9 H 0.0669 0.4864 0.1442
C10 C 0.0221(3) 0.3612(6) 0.0577(5)
C13 C 0.0518(2) 0.0665(5) 0.0297(4)
H13 H 0.0879 0.1122 0.0504
Cu4 Cu 0.17100(3) 0.57865(6) 0.10499(4)
Cu7 Cu 0.24389(3) 0.83722(5) 0.24686(4)
S5 S 0.33042(6) 0.71826(12) 0.29921(9)
S8 S 0.24060(6) 0.97221(11) 0.33679(8)
S10 S 0.16977(6) 0.69110(12) 0.20284(9)
S11 S 0.26373(8) 0.46907(13) 0.34922(9)
N5 N 0.3360(2) 0.1692(4) 0.4883(3)
N2 N 0.1431(2) 0.8138(5) 0.9240(3)
N4 N 0.0325(2) 0.3276(4) 0.9988(3)
C1 C 0.1404(2) 0.7773(5) 0.9876(3)
C2 C 0.1838(4) 0.6364(8) 0.9601(5)
H2 H 0.2038 0.5628 0.9622
C3 C 0.1706(4) 0.7235(9) 0.9067(5)
H3 H 0.1789 0.7221 0.8644
C4 C 0.1207(3) 0.9291(6) 0.8833(4)
H4 H 0.1483 0.9579 0.8645
H5 H 0.1212 0.9898 0.9207
C5 C 0.0576(3) 0.9214(5) 0.8142(4)
C6 C 0.0488(3) 0.9205(7) 0.7384(4)
H6 H 0.0824 0.9201 0.7298
C7 C 0.0083(3) 0.9202(7) 0.8240(4)
H7 H 0.0135 0.9191 0.8754
H8 H 0.0961 0.3871 0.9724
H11 H 0.0177 0.2325 0.9030
N8 N 0.4009(2) 0.9659(4) 0.4332(3)
C25 C 0.0006(3) 0.7614(6) 0.0627(4)
H26 H 0.0426 0.7337 0.0949
C26 C 0.0003(3) 0.8849(5) 0.0291(4)
C28 C 0.0525(2) 0.9529(5) 0.0588(4)
H28 H 0.0889 0.9208 0.0994
C11 C 0.9994(3) 0.2386(6) 0.9373(4)
H12 H 0.9574 0.2663 0.9051
C12 C 0.9997(3) 0.1151(5) 0.9709(4)
C14 C 0.9475(2) 0.0471(5) 0.9412(4)
H14 H 0.9111 0.0792 0.9006
Cu5 Cu 0.82900(3) 0.57865(6) 0.39501(4)
N6 N 0.8360(2) 0.6692(4) 0.4883(3)
N7 N 0.8569(2) 0.8138(5) 0.5760(3)
C15 C 0.8596(2) 0.7773(5) 0.5124(3)
H15 H 0.8767 0.8244 0.4876
C16 C 0.8162(4) 0.6364(8) 0.5399(5)
H16 H 0.7962 0.5628 0.5378
C17 C 0.8294(4) 0.7235(9) 0.5933(5)
H17 H 0.8211 0.7221 0.6356
C18 C 0.8793(3) 0.9291(6) 0.6167(4)
H18 H 0.8517 0.9579 0.6355
H19 H 0.8788 0.9898 0.5793
C19 C 0.9424(3) 0.9214(5) 0.6858(4)
C20 C 0.9512(3) 0.9205(7) 0.7616(4)
H20 H 0.9176 0.9201 0.7702
C21 C 0.9917(3) 0.9202(7) 0.6760(4)
H21 H 0.9865 0.9191 0.6246
N10 N 0.9675(2) 0.6724(4) 0.0012(3)
H22 H 0.9039 0.6129 0.0276
H25 H 0.9823 0.7675 0.0970
Cu6 Cu 0.82900(3) 0.42135(6) 0.89501(4)
N9 N 0.9009(2) 0.5341(4) 0.9332(3)
C22 C 0.9206(3) 0.6072(5) 0.9938(4)
C23 C 0.9366(3) 0.5536(5) 0.9007(4)
H23 H 0.9331 0.5136 0.8558
C24 C 0.9779(3) 0.6388(6) 0.9423(5)
C27 C 0.9482(2) 0.9335(5) 0.9703(4)
H27 H 0.9121 0.8878 0.9496
W1_2 W 0.756640(9) 0.087740(17) 0.255260(11)
S4_2 S 0.73627(8) 0.46907(13) 0.15078(9)
N1_2 N 0.6640(2) 0.1692(4) 0.0117(3)
H1_2 H 0.6233 0.3244 0.0124
W3_2 W 0.743360(9) 0.587740(17) 0.244740(11)
Cu4_2 Cu 0.67100(3) 0.07865(6) 0.10499(4)
Cu7_2 Cu 0.74389(3) 0.33722(5) 0.24686(4)
S5_2 S 0.83042(6) 0.21826(12) 0.29921(9)
S6_2 S 0.66958(6) 0.71826(12) 0.20079(9)
S8_2 S 0.74060(6) 0.47221(11) 0.33679(8)
S9_2 S 0.83023(6) 0.69110(12) 0.29716(9)
S10_2 S 0.66977(6) 0.19110(12) 0.20284(9)
N2_2 N 0.6431(2) 0.3138(5) 0.9240(3)
C1_2 C 0.6404(2) 0.2773(5) 0.9876(3)
C2_2 C 0.6838(4) 0.1364(8) 0.9601(5)
H2_2 H 0.7038 0.0628 0.9622
C3_2 C 0.6706(4) 0.2235(9) 0.9067(5)
H3_2 H 0.6789 0.2221 0.8644
C4_2 C 0.6207(3) 0.4291(6) 0.8833(4)
H4_2 H 0.6483 0.4579 0.8645
H5_2 H 0.6212 0.4898 0.9207
C5_2 C 0.5576(3) 0.4214(5) 0.8142(4)
C6_2 C 0.5488(3) 0.4205(7) 0.7384(4)
H6_2 H 0.5824 0.4201 0.7298
C7_2 C 0.5083(3) 0.4202(7) 0.8240(4)
H7_2 H 0.5135 0.4191 0.8754
N7_2 N 0.3569(2) 0.3138(5) 0.5760(3)
C15_2 C 0.3596(2) 0.2773(5) 0.5124(3)
H15_2 H 0.3767 0.3244 0.4876
C16_2 C 0.3162(4) 0.1364(8) 0.5399(5)
H16_2 H 0.2962 0.0628 0.5378
C17_2 C 0.3294(4) 0.2235(9) 0.5933(5)
H17_2 H 0.3211 0.2221 0.6356
C18_2 C 0.3793(3) 0.4291(6) 0.6167(4)
H18_2 H 0.3517 0.4579 0.6355
H19_2 H 0.3788 0.4898 0.5793
C19_2 C 0.4424(3) 0.4214(5) 0.6858(4)
C20_2 C 0.4512(3) 0.4205(7) 0.7616(4)
H20_2 H 0.4176 0.4201 0.7702
C21_2 C 0.4917(3) 0.4202(7) 0.6760(4)
H21_2 H 0.4865 0.4191 0.6246
Cu2_2 Cu 0.75611(3) 0.83722(5) 0.25314(4)
S2_2 S 0.75940(6) 0.97221(11) 0.16321(8)
N3_2 N 0.5991(2) 0.9659(4) 0.0668(3)
C8_2 C 0.5794(3) 0.8928(5) 0.0062(4)
C9_2 C 0.5634(3) 0.9464(5) 0.0993(4)
H9_2 H 0.5669 0.9864 0.1442
C10_2 C 0.5221(3) 0.8612(6) 0.0577(5)
H10 H 0.4916 0.8308 0.0677
C13_2 C 0.5518(2) 0.5665(5) 0.0297(4)
H13_2 H 0.5879 0.6122 0.0504
S11_2 S 0.76373(8) 0.96907(13) 0.34922(9)
N8_2 N 0.9009(2) 0.4659(4) 0.4332(3)
N10_2 N 0.4675(2) 0.1724(4) 0.0012(3)
H22_2 H 0.4039 0.1129 0.0276
C25_2 C 0.5006(3) 0.2614(6) 0.0627(4)
H25_2 H 0.4823 0.2675 0.0970
H26_2 H 0.5426 0.2337 0.0949
C26_2 C 0.5003(3) 0.3849(5) 0.0291(4)
C28_2 C 0.5525(2) 0.4529(5) 0.0588(4)
H28_2 H 0.5889 0.4208 0.0994
N4_2 N 0.5325(2) 0.8276(4) 0.9988(3)
H8_2 H 0.5961 0.8871 0.9724
C11_2 C 0.4994(3) 0.7386(6) 0.9373(4)
H11_2 H 0.5177 0.7325 0.9030
H12_2 H 0.4574 0.7663 0.9051
C12_2 C 0.4997(3) 0.6151(5) 0.9709(4)
C14_2 C 0.4475(2) 0.5471(5) 0.9412(4)
H14_2 H 0.4111 0.5792 0.9006
N9_2 N 0.4009(2) 0.0341(4) 0.9332(3)
C22_2 C 0.4206(3) 0.1072(5) 0.9938(4)
C23_2 C 0.4366(3) 0.0536(5) 0.9007(4)
H23_2 H 0.4331 0.0136 0.8558
C24_2 C 0.4779(3) 0.1388(6) 0.9423(5)
H24 H 0.5084 0.1692 0.9323
C27_2 C 0.4482(2) 0.4335(5) 0.9703(4)
H27_2 H 0.4121 0.3878 0.9496
Cu6_2 Cu 0.32900(3) 0.92135(6) 0.89501(4)
H10_2 H 0.0084 0.3308 0.4323
C11_3 C 0.0006(3) 0.2386(6) 0.5627(4)
H12_3 H 0.0426 0.2663 0.5949
C12_3 C 0.0003(3) 0.1151(5) 0.5291(4)
C14_3 C 0.0525(2) 0.0471(5) 0.5588(4)
H14_3 H 0.0889 0.0792 0.5994
Cu6_3 Cu 0.17100(3) 0.42135(6) 0.60499(4)
N9_3 N 0.0991(2) 0.5341(4) 0.5668(3)
N10_3 N 0.0325(2) 0.6724(4) 0.4988(3)
C22_3 C 0.0794(3) 0.6072(5) 0.5062(4)
H22_3 H 0.0961 0.6129 0.4724
C23_3 C 0.0634(3) 0.5536(5) 0.5993(4)
H23_3 H 0.0669 0.5136 0.6442
C24_3 C 0.0221(3) 0.6388(6) 0.5577(5)
H25_3 H 0.0177 0.7675 0.4030
C27_3 C 0.0518(2) 0.9335(5) 0.5297(4)
H27_3 H 0.0879 0.8878 0.5504
N4_3 N 0.9675(2) 0.3276(4) 0.5012(3)
C8_3 C 0.9206(3) 0.3928(5) 0.4938(4)
H8_3 H 0.9039 0.3871 0.5276
C9_3 C 0.9366(3) 0.4464(5) 0.4007(4)
H9_3 H 0.9331 0.4864 0.3558
C10_3 C 0.9779(3) 0.3612(6) 0.4423(5)
H11_3 H 0.9823 0.2325 0.5970
C13_3 C 0.9482(2) 0.0665(5) 0.4703(4)
H13_3 H 0.9121 0.1122 0.4496
H24_2 H 0.9916 0.6692 0.5677
C25_3 C 0.9994(3) 0.7614(6) 0.4373(4)
H26_3 H 0.9574 0.7337 0.4051
C26_3 C 0.9997(3) 0.8849(5) 0.4709(4)
C28_3 C 0.9475(2) 0.9529(5) 0.4412(4)
H28_3 H 0.9111 0.9208 0.4006
N4_4 N 0.4675(2) 0.8276(4) 0.5012(3)
C8_4 C 0.4206(3) 0.8928(5) 0.4938(4)
H8_4 H 0.4039 0.8871 0.5276
C9_4 C 0.4366(3) 0.9464(5) 0.4007(4)
H9_4 H 0.4331 0.9864 0.3558
C10_4 C 0.4779(3) 0.8612(6) 0.4423(5)
H10_3 H 0.5084 0.8308 0.4323
C11_4 C 0.5006(3) 0.7386(6) 0.5627(4)
H11_4 H 0.4823 0.7325 0.5970
H12_4 H 0.5426 0.7663 0.5949
C12_4 C 0.5003(3) 0.6151(5) 0.5291(4)
C13_4 C 0.4482(2) 0.5665(5) 0.4703(4)
H13_4 H 0.4121 0.6122 0.4496
C14_4 C 0.5525(2) 0.5471(5) 0.5588(4)
H14_4 H 0.5889 0.5792 0.5994
N9_4 N 0.5991(2) 0.0341(4) 0.5668(3)
N10_4 N 0.5325(2) 0.1724(4) 0.4988(3)
C22_4 C 0.5794(3) 0.1072(5) 0.5062(4)
H22_4 H 0.5961 0.1129 0.4724
C23_4 C 0.5634(3) 0.0536(5) 0.5993(4)
H23_4 H 0.5669 0.0136 0.6442
C24_4 C 0.5221(3) 0.1388(6) 0.5577(5)
H24_3 H 0.4916 0.1692 0.5677
C25_4 C 0.4994(3) 0.2614(6) 0.4373(4)
H25_4 H 0.5177 0.2675 0.4030
H26_4 H 0.4574 0.2337 0.4051
C26_4 C 0.4997(3) 0.3849(5) 0.4709(4)
C27_4 C 0.5518(2) 0.4335(5) 0.5297(4)
H27_4 H 0.5879 0.3878 0.5504
C28_4 C 0.4475(2) 0.4529(5) 0.4412(4)
H28_4 H 0.4111 0.4208 0.4006
Cu6_4 Cu 0.67100(3) 0.92135(6) 0.60499(4)
N6_2 N 0.1640(2) 0.3308(4) 0.5117(3)
N7_3 N 0.1431(2) 0.1862(5) 0.4240(3)
C15_3 C 0.1404(2) 0.2227(5) 0.4876(3)
H15_3 H 0.1233 0.1756 0.5124
C16_3 C 0.1838(4) 0.3636(8) 0.4601(5)
H16_3 H 0.2038 0.4372 0.4622
C17_3 C 0.1706(4) 0.2765(9) 0.4067(5)
H17_3 H 0.1789 0.2779 0.3644
C18_3 C 0.1207(3) 0.0709(6) 0.3833(4)
H18_3 H 0.1483 0.0421 0.3645
H19_3 H 0.1212 0.0102 0.4207
C19_3 C 0.0576(3) 0.0786(5) 0.3142(4)
C20_3 C 0.0488(3) 0.0795(7) 0.2384(4)
H20_3 H 0.0824 0.0799 0.2298
C21_3 C 0.0083(3) 0.0798(7) 0.3240(4)
H21_3 H 0.0135 0.0809 0.3754
S7 S 0.75940(6) 0.02779(11) 0.66321(8)
N2_3 N 0.8569(2) 0.1862(5) 0.0760(3)
C1_3 C 0.8596(2) 0.2227(5) 0.0124(3)
C2_3 C 0.8162(4) 0.3636(8) 0.0399(5)
H2_3 H 0.7962 0.4372 0.0378
C3_3 C 0.8294(4) 0.2765(9) 0.0933(5)
H3_3 H 0.8211 0.2779 0.1356
C4_3 C 0.8793(3) 0.0709(6) 0.1167(4)
H4_3 H 0.8517 0.0421 0.1355
H5_3 H 0.8788 0.0102 0.0793
C5_3 C 0.9424(3) 0.0786(5) 0.1858(4)
C6_3 C 0.9512(3) 0.0795(7) 0.2616(4)
H6_3 H 0.9176 0.0799 0.2702
C7_3 C 0.9917(3) 0.0798(7) 0.1760(4)
H7_3 H 0.9865 0.0809 0.1246
W1_3 W 0.743360(9) 0.412260(17) 0.744740(11)
Cu2_3 Cu 0.74389(3) 0.66278(5) 0.74686(4)
S1 S 0.83042(6) 0.78174(12) 0.79921(9)
S2_3 S 0.74060(6) 0.52779(11) 0.83679(8)
S3 S 0.66977(6) 0.80890(12) 0.70284(9)
S4_3 S 0.76373(8) 0.03093(13) 0.84922(9)
N1_3 N 0.8360(2) 0.3308(4) 0.9883(3)
H1_3 H 0.8767 0.1756 0.9876
W2 W 0.756640(9) 0.912260(17) 0.755260(11)
Cu7_3 Cu 0.75611(3) 0.16278(5) 0.75314(4)
S5_3 S 0.66958(6) 0.28174(12) 0.70079(9)
S10_3 S 0.83023(6) 0.30890(12) 0.79716(9)
S11_3 S 0.73627(8) 0.53093(13) 0.65078(9)
N5_2 N 0.6640(2) 0.8308(4) 0.5117(3)
Cu2_4 Cu 0.24389(3) 0.16278(5) 0.74686(4)
S1_2 S 0.33042(6) 0.28174(12) 0.79921(9)
S2_4 S 0.24060(6) 0.02779(11) 0.83679(8)
S3_2 S 0.16977(6) 0.30890(12) 0.70284(9)
W2_2 W 0.256640(9) 0.412260(17) 0.755260(11)
S7_2 S 0.25940(6) 0.52779(11) 0.66321(8)
S11_4 S 0.23627(8) 0.03093(13) 0.65078(9)
N2_4 N 0.3569(2) 0.6862(5) 0.0760(3)
C1_4 C 0.3596(2) 0.7227(5) 0.0124(3)
C2_4 C 0.3162(4) 0.8636(8) 0.0399(5)
H2_4 H 0.2962 0.9372 0.0378
C3_4 C 0.3294(4) 0.7765(9) 0.0933(5)
H3_4 H 0.3211 0.7779 0.1356
C4_4 C 0.3793(3) 0.5709(6) 0.1167(4)
H4_4 H 0.3517 0.5421 0.1355
H5_4 H 0.3788 0.5102 0.0793
C5_4 C 0.4424(3) 0.5786(5) 0.1858(4)
C6_4 C 0.4512(3) 0.5795(7) 0.2616(4)
H6_4 H 0.4176 0.5799 0.2702
C7_4 C 0.4917(3) 0.5798(7) 0.1760(4)
H7_4 H 0.4865 0.5809 0.1246
N7_4 N 0.6431(2) 0.6862(5) 0.4240(3)
C15_4 C 0.6404(2) 0.7227(5) 0.4876(3)
H15_4 H 0.6233 0.6756 0.5124
C16_4 C 0.6838(4) 0.8636(8) 0.4601(5)
H16_4 H 0.7038 0.9372 0.4622
C17_4 C 0.6706(4) 0.7765(9) 0.4067(5)
H17_4 H 0.6789 0.7779 0.3644
C18_4 C 0.6207(3) 0.5709(6) 0.3833(4)
H18_4 H 0.6483 0.5421 0.3645
H19_4 H 0.6212 0.5102 0.4207
C19_4 C 0.5576(3) 0.5786(5) 0.3142(4)
C20_4 C 0.5488(3) 0.5795(7) 0.2384(4)
H20_4 H 0.5824 0.5799 0.2298
C21_4 C 0.5083(3) 0.5798(7) 0.3240(4)
H21_4 H 0.5135 0.5809 0.3754
W1_4 W 0.243360(9) 0.912260(17) 0.744740(11)
S4_4 S 0.26373(8) 0.53093(13) 0.84922(9)
N1_4 N 0.3360(2) 0.8308(4) 0.9883(3)
H1_4 H 0.3767 0.6756 0.9876
Cu7_4 Cu 0.25611(3) 0.66278(5) 0.75314(4)
S5_4 S 0.16958(6) 0.78174(12) 0.70079(9)
S10_4 S 0.33023(6) 0.80890(12) 0.79716(9)
H24_4 H 0.0084 0.6692 0.9323
H10_4 H 0.9916 0.3308 0.0677
loop_
_geom_bond_atom_site_label_1
_geom_bond_atom_site_label_2
_geom_bond_site_symmetry_1
_geom_bond_site_symmetry_2
W3 S6 1_555 1_555
S9 W3 1_555 1_555
Cu3 S9 1_555 1_555
W1 S2 1_555 1_555
Cu2 S6 1_555 1_555
S2 Cu2 1_555 1_555
S9 Cu2 1_555 1_555
N3 C8 1_555 1_555
C9 N3 1_555 1_555
H9 C9 1_555 1_555
H13 C13 1_555 1_555
Cu4 S2 1_555 1_555
Cu7 S4 1_555 1_555
S5 W1 1_555 1_555
S10 W1 1_555 1_555
S11 W1 1_555 1_555
N5 Cu3 1_555 1_555
Cu2 S11 1_555 1_555
N1 Cu4 1_555 1_555
N3 Cu4 1_555 1_555
C9 C10 1_555 1_555
Cu4 S10 1_555 1_555
Cu7 S5 1_555 1_555
Cu7 S8 1_555 1_555
Cu7 S10 1_555 1_555
N2 C1 1_555 1_555
H2 C2 1_555 1_555
C3 N2 1_555 1_555
H3 C3 1_555 1_555
C4 N2 1_555 1_555
H4 C4 1_555 1_555
H5 C4 1_555 1_555
C5 C4 1_555 1_555
C6 C5 1_555 1_555
H6 C6 1_555 1_555
C7 C5 1_555 1_555
H7 C7 1_555 1_555
C2 C3 1_555 1_555
H26 C25 1_555 1_555
C26 C25 1_555 1_555
H28 C28 1_555 1_555
C26 C28 1_555 1_555
H12 C11 1_555 1_555
C12 C11 1_555 1_555
C14 C12 1_555 1_555
H14 C14 1_555 1_555
Cu5 N6 1_555 1_555
N6 C15 1_555 1_555
N7 C15 1_555 1_555
C15 H15 1_555 1_555
C16 N6 1_555 1_555
H16 C16 1_555 1_555
C17 N7 1_555 1_555
H17 C17 1_555 1_555
C18 N7 1_555 1_555
H18 C18 1_555 1_555
H19 C18 1_555 1_555
C19 C18 1_555 1_555
H20 C20 1_555 1_555
H21 C21 1_555 1_555
C16 C17 1_555 1_555
C19 C20 1_555 1_555
C19 C21 1_555 1_555
Cu6 N9 1_555 1_555
N9 C22 1_555 1_555
C23 N9 1_555 1_555
H23 C23 1_555 1_555
H27 C27 1_555 1_555
C23 C24 1_555 1_555
S4_2 W3_2 1_555 1_555
W3_2 S6_2 1_555 1_555
Cu5 S8_2 1_555 1_555
Cu7_2 S4_2 1_555 1_555
S5_2 W1_2 1_555 1_555
S8_2 W3_2 1_555 1_555
S9_2 W3_2 1_555 1_555
S10_2 W1_2 1_555 1_555
N1_2 Cu4_2 1_555 1_555
Cu5 S9_2 1_555 1_555
Cu4_2 S10_2 1_555 1_555
Cu7_2 S5_2 1_555 1_555
Cu7_2 S8_2 1_555 1_555
Cu7_2 S10_2 1_555 1_555
N2_2 C1_2 1_555 1_555
H2_2 C2_2 1_555 1_555
C3_2 N2_2 1_555 1_555
H3_2 C3_2 1_555 1_555
C4_2 N2_2 1_555 1_555
H4_2 C4_2 1_555 1_555
H5_2 C4_2 1_555 1_555
C5_2 C4_2 1_555 1_555
C6_2 C5_2 1_555 1_555
H6_2 C6_2 1_555 1_555
C7_2 C5_2 1_555 1_555
H7_2 C7_2 1_555 1_555
N5 C15_2 1_555 1_555
N7_2 C15_2 1_555 1_555
C15_2 H15_2 1_555 1_555
C16_2 N5 1_555 1_555
H16_2 C16_2 1_555 1_555
C17_2 N7_2 1_555 1_555
H17_2 C17_2 1_555 1_555
C18_2 N7_2 1_555 1_555
H18_2 C18_2 1_555 1_555
H19_2 C18_2 1_555 1_555
C19_2 C18_2 1_555 1_555
C20_2 C7_2 1_555 1_555
H20_2 C20_2 1_555 1_555
C21_2 C6_2 1_555 1_555
H21_2 C21_2 1_555 1_555
C2_2 C3_2 1_555 1_555
C16_2 C17_2 1_555 1_555
C19_2 C20_2 1_555 1_555
C19_2 C21_2 1_555 1_555
Cu2_2 S6_2 1_555 1_555
S2_2 Cu2_2 1_555 1_555
S9_2 Cu2_2 1_555 1_555
N3_2 C8_2 1_555 1_555
C9_2 N3_2 1_555 1_555
H9_2 C9_2 1_555 1_555
H10 C10_2 1_555 1_555
H13_2 C13_2 1_555 1_555
N8_2 Cu5 1_555 1_555
C25_2 N10_2 1_555 1_555
H25_2 C25_2 1_555 1_555
H26_2 C25_2 1_555 1_555
C26_2 C25_2 1_555 1_555
C28_2 C13_2 1_555 1_555
H28_2 C28_2 1_555 1_555
Cu2_2 S11_2 1_555 1_555
C9_2 C10_2 1_555 1_555
C26_2 C28_2 1_555 1_555
C11_2 N4_2 1_555 1_555
H11_2 C11_2 1_555 1_555
H12_2 C11_2 1_555 1_555
C12_2 C11_2 1_555 1_555
C14_2 C12_2 1_555 1_555
H14_2 C14_2 1_555 1_555
N9_2 C22_2 1_555 1_555
C23_2 N9_2 1_555 1_555
H23_2 C23_2 1_555 1_555
H24 C24_2 1_555 1_555
C27_2 C14_2 1_555 1_555
H27_2 C27_2 1_555 1_555
C23_2 C24_2 1_555 1_555
H12_3 C11_3 1_555 1_555
C12_3 C11_3 1_555 1_555
C14_3 C12_3 1_555 1_555
H14_3 C14_3 1_555 1_555
Cu6_3 N9_3 1_555 1_555
N9_3 C22_3 1_555 1_555
N10_3 C22_3 1_555 1_555
C22_3 H22_3 1_555 1_555
C23_3 N9_3 1_555 1_555
H23_3 C23_3 1_555 1_555
C24_3 N10_3 1_555 1_555
H27_3 C27_3 1_555 1_555
C23_3 C24_3 1_555 1_555
N8_2 C8_3 1_555 1_555
N4_3 C8_3 1_555 1_555
C8_3 H8_3 1_555 1_555
C9_3 N8_2 1_555 1_555
H9_3 C9_3 1_555 1_555
C10_3 N4_3 1_555 1_555
H13_3 C13_3 1_555 1_555
C9_3 C10_3 1_555 1_555
H26_3 C25_3 1_555 1_555
C26_3 C25_3 1_555 1_555
H28_3 C28_3 1_555 1_555
C26_3 C28_3 1_555 1_555
N8 C8_4 1_555 1_555
N4_4 C8_4 1_555 1_555
C8_4 H8_4 1_555 1_555
C9_4 N8 1_555 1_555
H9_4 C9_4 1_555 1_555
C10_4 N4_4 1_555 1_555
H10_3 C10_4 1_555 1_555
C11_4 N4_4 1_555 1_555
H11_4 C11_4 1_555 1_555
H12_4 C11_4 1_555 1_555
C12_4 C11_4 1_555 1_555
C13_4 C12_4 1_555 1_555
H13_4 C13_4 1_555 1_555
C14_4 C12_4 1_555 1_555
H14_4 C14_4 1_555 1_555
N9_4 C22_4 1_555 1_555
N10_4 C22_4 1_555 1_555
C22_4 H22_4 1_555 1_555
C23_4 N9_4 1_555 1_555
H23_4 C23_4 1_555 1_555
C24_4 N10_4 1_555 1_555
H24_3 C24_4 1_555 1_555
C25_4 N10_4 1_555 1_555
H25_4 C25_4 1_555 1_555
H26_4 C25_4 1_555 1_555
C26_4 C25_4 1_555 1_555
C27_4 C14_4 1_555 1_555
H27_4 C27_4 1_555 1_555
C28_4 C13_4 1_555 1_555
H28_4 C28_4 1_555 1_555
C9_4 C10_4 1_555 1_555
C23_4 C24_4 1_555 1_555
C26_4 C27_4 1_555 1_555
C26_4 C28_4 1_555 1_555
Cu6_3 N6_2 1_555 1_555
N6_2 C15_3 1_555 1_555
N7_3 C15_3 1_555 1_555
C15_3 H15_3 1_555 1_555
C16_3 N6_2 1_555 1_555
H16_3 C16_3 1_555 1_555
C17_3 N7_3 1_555 1_555
H17_3 C17_3 1_555 1_555
C18_3 N7_3 1_555 1_555
H18_3 C18_3 1_555 1_555
H19_3 C18_3 1_555 1_555
C19_3 C18_3 1_555 1_555
H20_3 C20_3 1_555 1_555
H21_3 C21_3 1_555 1_555
C16_3 C17_3 1_555 1_555
C19_3 C20_3 1_555 1_555
C19_3 C21_3 1_555 1_555
N2_3 C1_3 1_555 1_555
H2_3 C2_3 1_555 1_555
C3_3 N2_3 1_555 1_555
H3_3 C3_3 1_555 1_555
C4_3 N2_3 1_555 1_555
H4_3 C4_3 1_555 1_555
H5_3 C4_3 1_555 1_555
C5_3 C4_3 1_555 1_555
C6_3 C5_3 1_555 1_555
H6_3 C6_3 1_555 1_555
C7_3 C5_3 1_555 1_555
H7_3 C7_3 1_555 1_555
C2_3 C3_3 1_555 1_555
W1_3 S2_3 1_555 1_555
Cu6_4 S3 1_555 1_555
Cu2_3 S1 1_555 1_555
S1 W2 1_555 1_555
S2_3 Cu2_3 1_555 1_555
S3 Cu2_3 1_555 1_555
W2 S3 1_555 1_555
Cu6 S2_3 1_555 1_555
Cu7_3 S4_3 1_555 1_555
S5_3 W1_3 1_555 1_555
S10_3 W1_3 1_555 1_555
S11_3 W1_3 1_555 1_555
N5_2 Cu6_4 1_555 1_555
Cu2_3 S11_3 1_555 1_555
N1_3 Cu6 1_555 1_555
Cu6 S10_3 1_555 1_555
Cu7_3 S5_3 1_555 1_555
Cu7_3 S7 1_555 1_555
Cu7_3 S10_3 1_555 1_555
Cu6_3 S3_2 1_555 1_555
Cu2_4 S1_2 1_555 1_555
S1_2 W2_2 1_555 1_555
S2_4 Cu2_4 1_555 1_555
S3_2 Cu2_4 1_555 1_555
W2_2 S3_2 1_555 1_555
S7_2 Cu6_3 1_555 1_555
Cu2_4 S11_4 1_555 1_555
W2_2 S7_2 1_555 1_555
N2_4 C1_4 1_555 1_555
H2_4 C2_4 1_555 1_555
C3_4 N2_4 1_555 1_555
H3_4 C3_4 1_555 1_555
C4_4 N2_4 1_555 1_555
H4_4 C4_4 1_555 1_555
H5_4 C4_4 1_555 1_555
C5_4 C4_4 1_555 1_555
C6_4 C5_4 1_555 1_555
H6_4 C6_4 1_555 1_555
C7_4 C5_4 1_555 1_555
H7_4 C7_4 1_555 1_555
N5_2 C15_4 1_555 1_555
N7_4 C15_4 1_555 1_555
C15_4 H15_4 1_555 1_555
C16_4 N5_2 1_555 1_555
H16_4 C16_4 1_555 1_555
C17_4 N7_4 1_555 1_555
H17_4 C17_4 1_555 1_555
C18_4 N7_4 1_555 1_555
H18_4 C18_4 1_555 1_555
H19_4 C18_4 1_555 1_555
C19_4 C18_4 1_555 1_555
C20_4 C7_4 1_555 1_555
H20_4 C20_4 1_555 1_555
C21_4 C6_4 1_555 1_555
H21_4 C21_4 1_555 1_555
C2_4 C3_4 1_555 1_555
C16_4 C17_4 1_555 1_555
C19_4 C20_4 1_555 1_555
C19_4 C21_4 1_555 1_555
S4_4 W2_2 1_555 1_555
Cu7_4 S4_4 1_555 1_555
S5_4 W1_4 1_555 1_555
S10_4 W1_4 1_555 1_555
N1_4 Cu6_2 1_555 1_555
Cu6_2 S10_4 1_555 1_555
Cu7_4 S5_4 1_555 1_555
Cu7_4 S7_2 1_555 1_555
Cu7_4 S10_4 1_555 1_555

#END
