
###############################################################################
#
# This file contains modified crystal structure data generated from the
# MOF subset of the Cambridge Structural Database (CSD) v543 
# hosted by the Cambridge Crystallographic Data Centre (CCDC).
#
# This work is licensed under the Creative Commons
# Attribution-NonCommercial-ShareAlike 4.0 International License.
# To view a copy of this license, visit
# http://creativecommons.org/licenses/by-nc-sa/4.0/
# or send a letter to
# Creative Commons, PO Box 1866, Mountain View, CA 94042, USA.
#
# CIF created using the CSD Python API on 29 September 2022
# The structure has been converted into the P1 space group
# The structure has a 3D framework
# The original CSD entry QEWDON is in the tetragonal crystal system
# The framework has been calculated to contain at least 10.0% void space
# The void calculation uses a probe of radius 1.32A, grid spacing 0.4
#
###############################################################################

data_QEWDON
_chemical_formula_moiety         '(C320 H192 N16 O112 Zn32)n'
_symmetry_cell_setting           triclinic
_symmetry_space_group_name_H-M   'P 1'
_symmetry_Int_Tables_number      1
_space_group_name_Hall           'P 1'
loop_
_symmetry_equiv_pos_site_id
_symmetry_equiv_pos_as_xyz
1 x,y,z
_cell_length_a                   16.2782(3)
_cell_length_b                   16.2782(3)
_cell_length_c                   30.4992(12)
_cell_angle_alpha                90
_cell_angle_beta                 90
_cell_angle_gamma                90
_cell_volume                     8081.67
loop_
_atom_site_label
_atom_site_type_symbol
_atom_site_fract_x
_atom_site_fract_y
_atom_site_fract_z
C1 C 0.5919(3) 0.0062(3) 0.15390(16)
C2 C 0.6377(3) 0.0058(3) 0.11526(16)
H1 H 0.6124 0.0215 0.0885
C12 C 0.8955(3) 0.0224(4) 0.03725(18)
H6 H 0.9504 0.0420 0.0385
C13 C 0.8504(3) 0.0160(4) 0.07521(18)
H7 H 0.8745 0.0311 0.1024
O5 O 0.32258(19) 0.14940(19) 0.15299(10)
H12 H 0.2714(13) 0.151(4) 0.1566(17)
C20 C 0.5060(3) 0.0394(3) 0.15408(16)
O6 O 0.47562(19) 0.0563(2) 0.19043(11)
O7 O 0.4714(2) 0.0477(2) 0.11728(11)
Zn1 Zn 0.36117(3) 0.09004(4) 0.20387(2)
Zn2 Zn 0.37532(3) 0.11400(4) 0.100303(19)
O15 O 0.4098(2) 0.2084(2) 0.23184(12)
O18 O 0.3268(2) 0.0585(2) 0.26293(11)
O19 O 0.3337(2) 0.0611(2) 0.04762(11)
O21 O 0.4330(3) 0.2141(2) 0.07984(12)
C3 C 0.7200(3) 0.9828(3) 0.11537(17)
C4 C 0.7544(3) 0.9575(3) 0.15474(15)
H2 H 0.8103 0.9406 0.1553
C5 C 0.7086(3) 0.9564(3) 0.19395(15)
C6 C 0.6278(3) 0.9816(3) 0.19312(16)
H3 H 0.5965 0.9821 0.2194
C7 C 0.7489(3) 0.9332(3) 0.23584(16)
C8 C 0.7690(3) 0.9876(3) 0.07415(17)
C9 C 0.7353(3) 0.9664(3) 0.03414(17)
H4 H 0.6801 0.9478 0.0329
C15 C 0.3709(3) 0.8915(4) 0.1938(2)
H8 H 0.4255 0.9018 0.2033
C16 C 0.3452(3) 0.8122(4) 0.1924(2)
H9 H 0.3815 0.7695 0.2010
C17 C 0.2663(3) 0.7932(3) 0.1784(2)
C18 C 0.2189(4) 0.8592(4) 0.1666(3)
H10 H 0.1640 0.8505 0.1570
C19 C 0.2497(4) 0.9381(4) 0.1684(2)
H11 H 0.2155 0.9819 0.1588
N1 N 0.3245(3) 0.9560(3) 0.18266(15)
O1 O 0.7084(2) 0.9098(2) 0.26816(12)
O2 O 0.8268(2) 0.9415(2) 0.23707(11)
C21 C 0.1291(3) 0.6085(4) 0.1938(2)
H13 H 0.0745 0.5982 0.2033
C22 C 0.1548(3) 0.6878(4) 0.1924(2)
H14 H 0.1185 0.7305 0.2010
C23 C 0.2337(3) 0.7068(3) 0.1784(2)
C24 C 0.2811(4) 0.6408(4) 0.1666(3)
H15 H 0.3360 0.6495 0.1570
C25 C 0.2503(4) 0.5619(4) 0.1684(2)
H16 H 0.2845 0.5181 0.1588
N2 N 0.1755(3) 0.5440(3) 0.18266(15)
O12 O 0.17742(19) 0.35060(19) 0.15299(10)
H24 H 0.2286(13) 0.349(4) 0.1566(17)
O13 O 0.02438(19) 0.4437(2) 0.19043(11)
O14 O 0.0286(2) 0.4523(2) 0.11728(11)
Zn3 Zn 0.13883(3) 0.40996(4) 0.20387(2)
Zn4 Zn 0.12468(3) 0.38600(4) 0.100303(19)
O16 O 0.0902(2) 0.2916(2) 0.23184(12)
O17 O 0.1732(2) 0.4415(2) 0.26293(11)
O20 O 0.1663(2) 0.4389(2) 0.04762(11)
O22 O 0.0670(3) 0.2859(2) 0.07984(12)
Zn6 Zn 0.86117(3) 0.90996(4) 0.29613(2)
Zn7 Zn 0.59004(4) 0.86117(3) 0.29613(2)
C10 C 0.7807(3) 0.9719(3) 0.99567(17)
C14 C 0.7435(3) 0.9460(3) 0.95340(17)
O3 O 0.6663(2) 0.9389(2) 0.95238(11)
O4 O 0.7859(2) 0.9330(3) 0.92016(12)
Zn9 Zn 0.62468(3) 0.88600(4) 0.899697(19)
Zn12 Zn 0.88600(4) 0.87532(3) 0.899697(19)
C26 C 0.9081(3) 0.4938(3) 0.15390(16)
C27 C 0.8623(3) 0.4942(3) 0.11526(16)
H17 H 0.8876 0.4785 0.0885
C28 C 0.7800(3) 0.5172(3) 0.11537(17)
C29 C 0.7456(3) 0.5425(3) 0.15474(15)
H18 H 0.6897 0.5594 0.1553
C30 C 0.7914(3) 0.5436(3) 0.19395(15)
C31 C 0.8722(3) 0.5184(3) 0.19312(16)
H19 H 0.9035 0.5179 0.2194
C32 C 0.7511(3) 0.5668(3) 0.23584(16)
C33 C 0.7310(3) 0.5124(3) 0.07415(17)
C34 C 0.7647(3) 0.5336(3) 0.03414(17)
H20 H 0.8199 0.5522 0.0329
C37 C 0.6045(3) 0.4776(4) 0.03725(18)
H22 H 0.5496 0.4580 0.0385
C38 C 0.6496(3) 0.4840(4) 0.07521(18)
H23 H 0.6255 0.4689 0.1024
O8 O 0.7916(2) 0.5902(2) 0.26816(12)
O9 O 0.6732(2) 0.5585(2) 0.23707(11)
C40 C 0.9940(3) 0.4606(3) 0.15408(16)
Zn5 Zn 0.63883(3) 0.59004(4) 0.29613(2)
Zn8 Zn 0.90996(4) 0.63883(3) 0.29613(2)
C35 C 0.7193(3) 0.5281(3) 0.99567(17)
C36 C 0.6383(3) 0.4995(4) 0.99735(18)
H21 H 0.6067 0.4953 0.9712
C39 C 0.7565(3) 0.5540(3) 0.95340(17)
O10 O 0.8337(2) 0.5611(2) 0.95238(11)
O11 O 0.7141(2) 0.5670(3) 0.92016(12)
Zn10 Zn 0.87532(3) 0.61400(4) 0.899697(19)
Zn11 Zn 0.61400(4) 0.62468(3) 0.899697(19)
O12_2 O 0.14940(19) 0.17742(19) 0.15299(10)
H24_2 H 0.151(4) 0.2286(13) 0.1566(17)
O13_2 O 0.0563(2) 0.02438(19) 0.19043(11)
O14_2 O 0.0477(2) 0.0286(2) 0.11728(11)
Zn3_2 Zn 0.09004(4) 0.13883(3) 0.20387(2)
Zn4_2 Zn 0.11400(4) 0.12468(3) 0.100303(19)
O16_2 O 0.2084(2) 0.0902(2) 0.23184(12)
O17_2 O 0.0585(2) 0.1732(2) 0.26293(11)
O20_2 O 0.0611(2) 0.1663(2) 0.04762(11)
O22_2 O 0.2141(2) 0.0670(3) 0.07984(12)
C1_2 C 0.4938(3) 0.5919(3) 0.15390(16)
C2_2 C 0.4942(3) 0.6377(3) 0.11526(16)
H1_2 H 0.4785 0.6124 0.0885
C3_2 C 0.5172(3) 0.7200(3) 0.11537(17)
C4_2 C 0.5425(3) 0.7544(3) 0.15474(15)
H2_2 H 0.5594 0.8103 0.1553
C5_2 C 0.5436(3) 0.7086(3) 0.19395(15)
C6_2 C 0.5184(3) 0.6278(3) 0.19312(16)
H3_2 H 0.5179 0.5965 0.2194
C7_2 C 0.5668(3) 0.7489(3) 0.23584(16)
C8_2 C 0.5124(3) 0.7690(3) 0.07415(17)
C9_2 C 0.5336(3) 0.7353(3) 0.03414(17)
H4_2 H 0.5522 0.6801 0.0329
C12_2 C 0.4776(4) 0.8955(3) 0.03725(18)
H6_2 H 0.4580 0.9504 0.0385
C13_2 C 0.4840(4) 0.8504(3) 0.07521(18)
H7_2 H 0.4689 0.8745 0.1024
C15_2 C 0.6085(4) 0.3709(3) 0.1938(2)
H8_2 H 0.5982 0.4255 0.2033
C16_2 C 0.6878(4) 0.3452(3) 0.1924(2)
H9_2 H 0.7305 0.3815 0.2010
C17_2 C 0.7068(3) 0.2663(3) 0.1784(2)
C18_2 C 0.6408(4) 0.2189(4) 0.1666(3)
H10_2 H 0.6495 0.1640 0.1570
C19_2 C 0.5619(4) 0.2497(4) 0.1684(2)
H11_2 H 0.5181 0.2155 0.1588
N1_2 N 0.5440(3) 0.3245(3) 0.18266(15)
O1_2 O 0.5902(2) 0.7084(2) 0.26816(12)
O2_2 O 0.5585(2) 0.8268(2) 0.23707(11)
O5_2 O 0.35060(19) 0.32258(19) 0.15299(10)
H12_2 H 0.349(4) 0.2714(13) 0.1566(17)
C20_2 C 0.4606(3) 0.5060(3) 0.15408(16)
O6_2 O 0.4437(2) 0.47562(19) 0.19043(11)
O7_2 O 0.4523(2) 0.4714(2) 0.11728(11)
Zn1_2 Zn 0.40996(4) 0.36117(3) 0.20387(2)
Zn2_2 Zn 0.38600(4) 0.37532(3) 0.100303(19)
C21_2 C 0.8915(4) 0.1291(3) 0.1938(2)
H13_2 H 0.9018 0.0745 0.2033
C22_2 C 0.8122(4) 0.1548(3) 0.1924(2)
H14_2 H 0.7695 0.1185 0.2010
C23_2 C 0.7932(3) 0.2337(3) 0.1784(2)
C24_2 C 0.8592(4) 0.2811(4) 0.1666(3)
H15_2 H 0.8505 0.3360 0.1570
C25_2 C 0.9381(4) 0.2503(4) 0.1684(2)
H16_2 H 0.9819 0.2845 0.1588
N2_2 N 0.9560(3) 0.1755(3) 0.18266(15)
O15_2 O 0.2916(2) 0.4098(2) 0.23184(12)
O18_2 O 0.4415(2) 0.3268(2) 0.26293(11)
O19_2 O 0.4389(2) 0.3337(2) 0.04762(11)
O21_2 O 0.2859(2) 0.4330(3) 0.07984(12)
C10_2 C 0.5281(3) 0.7807(3) 0.99567(17)
C11 C 0.4995(4) 0.8617(3) 0.99735(18)
H5 H 0.4953 0.8933 0.9712
C14_2 C 0.5540(3) 0.7435(3) 0.95340(17)
O3_2 O 0.5611(2) 0.6663(2) 0.95238(11)
O4_2 O 0.5670(3) 0.7859(2) 0.92016(12)
C28_2 C 0.9828(3) 0.7800(3) 0.11537(17)
C29_2 C 0.9575(3) 0.7456(3) 0.15474(15)
H18_2 H 0.9406 0.6897 0.1553
C30_2 C 0.9564(3) 0.7914(3) 0.19395(15)
C31_2 C 0.9816(3) 0.8722(3) 0.19312(16)
H19_2 H 0.9821 0.9035 0.2194
C32_2 C 0.9332(3) 0.7511(3) 0.23584(16)
C33_2 C 0.9876(3) 0.7310(3) 0.07415(17)
C34_2 C 0.9664(3) 0.7647(3) 0.03414(17)
H20_2 H 0.9478 0.8199 0.0329
O8_2 O 0.9098(2) 0.7916(2) 0.26816(12)
O9_2 O 0.9415(2) 0.6732(2) 0.23707(11)
C35_2 C 0.9719(3) 0.7193(3) 0.99567(17)
C39_2 C 0.9460(3) 0.7565(3) 0.95340(17)
O10_2 O 0.9389(2) 0.8337(2) 0.95238(11)
O11_2 O 0.9330(3) 0.7141(2) 0.92016(12)
C28_3 C 0.2200(3) 0.0172(3) 0.38463(17)
C29_3 C 0.2544(3) 0.0425(3) 0.34526(15)
H18_3 H 0.3103 0.0594 0.3447
C30_3 C 0.2086(3) 0.0436(3) 0.30605(15)
C31_3 C 0.1278(3) 0.0184(3) 0.30688(16)
H19_3 H 0.0965 0.0179 0.2806
C32_3 C 0.2489(3) 0.0668(3) 0.26416(16)
C33_3 C 0.2690(3) 0.0124(3) 0.42585(17)
C34_3 C 0.2353(3) 0.0336(3) 0.46586(17)
H20_3 H 0.1801 0.0522 0.4671
C35_3 C 0.2807(3) 0.0281(3) 0.50433(17)
C39_3 C 0.2435(3) 0.0540(3) 0.54660(17)
O10_3 O 0.1663(2) 0.0611(2) 0.54762(11)
O11_3 O 0.2859(2) 0.0670(3) 0.57984(12)
Zn10_2 Zn 0.12468(3) 0.11400(4) 0.600303(19)
Zn11_2 Zn 0.38600(4) 0.12468(3) 0.600303(19)
C1_3 C 0.4081(3) 0.5062(3) 0.34610(16)
C2_3 C 0.3623(3) 0.5058(3) 0.38474(16)
H1_3 H 0.3876 0.5215 0.4115
C3_3 C 0.2800(3) 0.4828(3) 0.38463(17)
C4_3 C 0.2456(3) 0.4575(3) 0.34526(15)
H2_3 H 0.1897 0.4406 0.3447
C5_3 C 0.2914(3) 0.4564(3) 0.30605(15)
C6_3 C 0.3722(3) 0.4816(3) 0.30688(16)
H3_3 H 0.4035 0.4821 0.2806
C7_3 C 0.2511(3) 0.4332(3) 0.26416(16)
C8_3 C 0.2310(3) 0.4876(3) 0.42585(17)
C9_3 C 0.2647(3) 0.4664(3) 0.46586(17)
H4_3 H 0.3199 0.4478 0.4671
C10_3 C 0.2193(3) 0.4719(3) 0.50433(17)
C11_2 C 0.1383(3) 0.5005(4) 0.50265(18)
H5_2 H 0.1067 0.5047 0.5288
C12_3 C 0.1045(3) 0.5224(4) 0.46275(18)
H6_3 H 0.0496 0.5420 0.4615
C13_3 C 0.1496(3) 0.5160(4) 0.42479(18)
H7_3 H 0.1255 0.5311 0.3976
C14_3 C 0.2565(3) 0.4460(3) 0.54660(17)
C15_3 C 0.6291(3) 0.3915(4) 0.3062(2)
H8_3 H 0.5745 0.4018 0.2967
C16_3 C 0.6548(3) 0.3122(4) 0.3076(2)
H9_3 H 0.6185 0.2695 0.2990
C17_3 C 0.7337(3) 0.2932(3) 0.3216(2)
C18_3 C 0.7811(4) 0.3592(4) 0.3334(3)
H10_3 H 0.8360 0.3505 0.3430
C19_3 C 0.7503(4) 0.4381(4) 0.3316(2)
H11_3 H 0.7845 0.4819 0.3412
N1_3 N 0.6755(3) 0.4560(3) 0.31734(15)
O3_3 O 0.3337(2) 0.4389(2) 0.54762(11)
O4_3 O 0.2141(2) 0.4330(3) 0.57984(12)
O5_3 O 0.67742(19) 0.64940(19) 0.34701(10)
H12_3 H 0.7286(13) 0.651(4) 0.3434(17)
C20_3 C 0.4940(3) 0.5394(3) 0.34592(16)
O6_3 O 0.52438(19) 0.5563(2) 0.30957(11)
O7_3 O 0.5286(2) 0.5477(2) 0.38272(11)
Zn2_3 Zn 0.62468(3) 0.61400(4) 0.399697(19)
C21_3 C 0.8709(3) 0.1085(4) 0.3062(2)
H13_3 H 0.9255 0.0982 0.2967
C22_3 C 0.8452(3) 0.1878(4) 0.3076(2)
H14_3 H 0.8815 0.2305 0.2990
C23_3 C 0.7663(3) 0.2068(3) 0.3216(2)
C24_3 C 0.7189(4) 0.1408(4) 0.3334(3)
H15_3 H 0.6640 0.1495 0.3430
C25_3 C 0.7497(4) 0.0619(4) 0.3316(2)
H16_3 H 0.7155 0.0181 0.3412
N2_3 N 0.8245(3) 0.0440(3) 0.31734(15)
O19_3 O 0.6663(2) 0.5611(2) 0.45238(11)
O21_3 O 0.5670(3) 0.7141(2) 0.42016(12)
Zn9_2 Zn 0.37532(3) 0.38600(4) 0.600303(19)
Zn12_2 Zn 0.11400(4) 0.37532(3) 0.600303(19)
O12_3 O 0.82258(19) 0.85060(19) 0.34701(10)
H24_3 H 0.7714(13) 0.849(4) 0.3434(17)
O13_3 O 0.97562(19) 0.9437(2) 0.30957(11)
O14_3 O 0.9714(2) 0.9523(2) 0.38272(11)
Zn4_3 Zn 0.87532(3) 0.88600(4) 0.399697(19)
O20_3 O 0.8337(2) 0.9389(2) 0.45238(11)
O22_3 O 0.9330(3) 0.7859(2) 0.42016(12)
C1_4 C 0.5062(3) 0.0919(3) 0.34610(16)
C2_4 C 0.5058(3) 0.1377(3) 0.38474(16)
H1_4 H 0.5215 0.1124 0.4115
C3_4 C 0.4828(3) 0.2200(3) 0.38463(17)
C4_4 C 0.4575(3) 0.2544(3) 0.34526(15)
H2_4 H 0.4406 0.3103 0.3447
C5_4 C 0.4564(3) 0.2086(3) 0.30605(15)
C6_4 C 0.4816(3) 0.1278(3) 0.30688(16)
H3_4 H 0.4821 0.0965 0.2806
C7_4 C 0.4332(3) 0.2489(3) 0.26416(16)
C8_4 C 0.4876(3) 0.2690(3) 0.42585(17)
C9_4 C 0.4664(3) 0.2353(3) 0.46586(17)
H4_4 H 0.4478 0.1801 0.4671
C10_4 C 0.4719(3) 0.2807(3) 0.50433(17)
C11_3 C 0.5005(4) 0.3617(3) 0.50265(18)
H5_3 H 0.5047 0.3933 0.5288
C12_4 C 0.5224(4) 0.3955(3) 0.46275(18)
H6_4 H 0.5420 0.4504 0.4615
C13_4 C 0.5160(4) 0.3504(3) 0.42479(18)
H7_4 H 0.5311 0.3745 0.3976
C14_4 C 0.4460(3) 0.2435(3) 0.54660(17)
O3_4 O 0.4389(2) 0.1663(2) 0.54762(11)
O4_4 O 0.4330(3) 0.2859(2) 0.57984(12)
C20_4 C 0.5394(3) 0.0060(3) 0.34592(16)
C15_4 C 0.3915(4) 0.8709(3) 0.3062(2)
H8_4 H 0.4018 0.9255 0.2967
C16_4 C 0.3122(4) 0.8452(3) 0.3076(2)
H9_4 H 0.2695 0.8815 0.2990
C17_4 C 0.2932(3) 0.7663(3) 0.3216(2)
C18_4 C 0.3592(4) 0.7189(4) 0.3334(3)
H10_4 H 0.3505 0.6640 0.3430
C19_4 C 0.4381(4) 0.7497(4) 0.3316(2)
H11_4 H 0.4819 0.7155 0.3412
N1_4 N 0.4560(3) 0.8245(3) 0.31734(15)
O5_4 O 0.64940(19) 0.82258(19) 0.34701(10)
H12_4 H 0.651(4) 0.7714(13) 0.3434(17)
O6_4 O 0.5563(2) 0.97562(19) 0.30957(11)
O7_4 O 0.5477(2) 0.9714(2) 0.38272(11)
Zn2_4 Zn 0.61400(4) 0.87532(3) 0.399697(19)
C21_4 C 0.1085(4) 0.6291(3) 0.3062(2)
H13_4 H 0.0982 0.5745 0.2967
C22_4 C 0.1878(4) 0.6548(3) 0.3076(2)
H14_4 H 0.2305 0.6185 0.2990
C23_4 C 0.2068(3) 0.7337(3) 0.3216(2)
C24_4 C 0.1408(4) 0.7811(4) 0.3334(3)
H15_4 H 0.1495 0.8360 0.3430
C25_4 C 0.0619(4) 0.7503(4) 0.3316(2)
H16_4 H 0.0181 0.7845 0.3412
N2_4 N 0.0440(3) 0.6755(3) 0.31734(15)
C28_4 C 0.0172(3) 0.2800(3) 0.38463(17)
C29_4 C 0.0425(3) 0.2456(3) 0.34526(15)
H18_4 H 0.0594 0.1897 0.3447
C30_4 C 0.0436(3) 0.2914(3) 0.30605(15)
C31_4 C 0.0184(3) 0.3722(3) 0.30688(16)
H19_4 H 0.0179 0.4035 0.2806
C32_4 C 0.0668(3) 0.2511(3) 0.26416(16)
C33_4 C 0.0124(3) 0.2310(3) 0.42585(17)
C34_4 C 0.0336(3) 0.2647(3) 0.46586(17)
H20_4 H 0.0522 0.3199 0.4671
C35_4 C 0.0281(3) 0.2193(3) 0.50433(17)
C39_4 C 0.0540(3) 0.2565(3) 0.54660(17)
O10_4 O 0.0611(2) 0.3337(2) 0.54762(11)
O11_4 O 0.0670(3) 0.2141(2) 0.57984(12)
O19_4 O 0.5611(2) 0.8337(2) 0.45238(11)
O21_4 O 0.7141(2) 0.9330(3) 0.42016(12)
C26_2 C 0.9938(3) 0.4081(3) 0.34610(16)
C27_2 C 0.9942(3) 0.3623(3) 0.38474(16)
H17_2 H 0.9785 0.3876 0.4115
C36_2 C 0.9995(4) 0.1383(3) 0.50265(18)
H21_2 H 0.9953 0.1067 0.5288
C37_2 C 0.9776(4) 0.1045(3) 0.46275(18)
H22_2 H 0.9580 0.0496 0.4615
C38_2 C 0.9840(4) 0.1496(3) 0.42479(18)
H23_2 H 0.9689 0.1255 0.3976
O12_4 O 0.85060(19) 0.67742(19) 0.34701(10)
H24_4 H 0.849(4) 0.7286(13) 0.3434(17)
C40_2 C 0.9606(3) 0.4940(3) 0.34592(16)
O13_4 O 0.9437(2) 0.52438(19) 0.30957(11)
O14_4 O 0.9523(2) 0.5286(2) 0.38272(11)
Zn4_4 Zn 0.88600(4) 0.62468(3) 0.399697(19)
O20_4 O 0.9389(2) 0.6663(2) 0.45238(11)
O22_4 O 0.7859(2) 0.5670(3) 0.42016(12)
C35_5 C 0.2807(3) 0.4719(3) 0.00433(17)
C36_3 C 0.3617(3) 0.5005(4) 0.00265(18)
H21_3 H 0.3933 0.5047 0.0288
C39_5 C 0.2435(3) 0.4460(3) 0.04660(17)
C26_3 C 0.0919(3) 0.5062(3) 0.84610(16)
C27_3 C 0.1377(3) 0.5058(3) 0.88474(16)
H17_3 H 0.1124 0.5215 0.9115
C28_5 C 0.2200(3) 0.4828(3) 0.88463(17)
C29_5 C 0.2544(3) 0.4575(3) 0.84526(15)
H18_5 H 0.3103 0.4406 0.8447
C30_5 C 0.2086(3) 0.4564(3) 0.80605(15)
C31_5 C 0.1278(3) 0.4816(3) 0.80688(16)
H19_5 H 0.0965 0.4821 0.7806
C32_5 C 0.2489(3) 0.4332(3) 0.76416(16)
C33_5 C 0.2690(3) 0.4876(3) 0.92585(17)
C34_5 C 0.2353(3) 0.4664(3) 0.96586(17)
H20_5 H 0.1801 0.4478 0.9671
C37_3 C 0.3955(3) 0.5224(4) 0.96275(18)
H22_3 H 0.4504 0.5420 0.9615
C38_3 C 0.3504(3) 0.5160(4) 0.92479(18)
H23_3 H 0.3745 0.5311 0.8976
O8_3 O 0.2084(2) 0.4098(2) 0.73184(12)
O9_3 O 0.3268(2) 0.4415(2) 0.76293(11)
C40_3 C 0.0060(3) 0.5394(3) 0.84592(16)
Zn5_2 Zn 0.36117(3) 0.40996(4) 0.70387(2)
Zn8_2 Zn 0.09004(4) 0.36117(3) 0.70387(2)
C10_5 C 0.2193(3) 0.0281(3) 0.00433(17)
C14_5 C 0.2565(3) 0.0540(3) 0.04660(17)
C3_5 C 0.2800(3) 0.0172(3) 0.88463(17)
C4_5 C 0.2456(3) 0.0425(3) 0.84526(15)
H2_5 H 0.1897 0.0594 0.8447
C5_5 C 0.2914(3) 0.0436(3) 0.80605(15)
C6_5 C 0.3722(3) 0.0184(3) 0.80688(16)
H3_5 H 0.4035 0.0179 0.7806
C7_5 C 0.2511(3) 0.0668(3) 0.76416(16)
C8_5 C 0.2310(3) 0.0124(3) 0.92585(17)
C9_5 C 0.2647(3) 0.0336(3) 0.96586(17)
H4_5 H 0.3199 0.0522 0.9671
C15_5 C 0.6291(3) 0.1085(4) 0.8062(2)
H8_5 H 0.5745 0.0982 0.7967
C16_5 C 0.6548(3) 0.1878(4) 0.8076(2)
H9_5 H 0.6185 0.2305 0.7990
C17_5 C 0.7337(3) 0.2068(3) 0.8216(2)
C18_5 C 0.7811(4) 0.1408(4) 0.8334(3)
H10_5 H 0.8360 0.1495 0.8430
C19_5 C 0.7503(4) 0.0619(4) 0.8316(2)
H11_5 H 0.7845 0.0181 0.8412
N1_5 N 0.6755(3) 0.0440(3) 0.81734(15)
O1_3 O 0.2916(2) 0.0902(2) 0.73184(12)
O2_3 O 0.1732(2) 0.0585(2) 0.76293(11)
C21_5 C 0.8709(3) 0.3915(4) 0.8062(2)
H13_5 H 0.9255 0.4018 0.7967
C22_5 C 0.8452(3) 0.3122(4) 0.8076(2)
H14_5 H 0.8815 0.2695 0.7990
C23_5 C 0.7663(3) 0.2932(3) 0.8216(2)
C24_5 C 0.7189(4) 0.3592(4) 0.8334(3)
H15_5 H 0.6640 0.3505 0.8430
C25_5 C 0.7497(4) 0.4381(4) 0.8316(2)
H16_5 H 0.7155 0.4819 0.8412
N2_5 N 0.8245(3) 0.4560(3) 0.81734(15)
O12_5 O 0.82258(19) 0.64940(19) 0.84701(10)
H24_5 H 0.7714(13) 0.651(4) 0.8434(17)
O13_5 O 0.97562(19) 0.5563(2) 0.80957(11)
O14_5 O 0.9714(2) 0.5477(2) 0.88272(11)
Zn3_3 Zn 0.86117(3) 0.59004(4) 0.79613(2)
O16_3 O 0.9098(2) 0.7084(2) 0.76816(12)
O17_3 O 0.8268(2) 0.5585(2) 0.73707(11)
Zn6_2 Zn 0.13883(3) 0.09004(4) 0.70387(2)
Zn7_2 Zn 0.40996(4) 0.13883(3) 0.70387(2)
C1_5 C 0.4081(3) 0.9938(3) 0.84610(16)
C2_5 C 0.3623(3) 0.9942(3) 0.88474(16)
H1_5 H 0.3876 0.9785 0.9115
C12_5 C 0.1045(3) 0.9776(4) 0.96275(18)
H6_5 H 0.0496 0.9580 0.9615
C13_5 C 0.1496(3) 0.9840(4) 0.92479(18)
H7_5 H 0.1255 0.9689 0.8976
O5_5 O 0.67742(19) 0.85060(19) 0.84701(10)
H12_5 H 0.7286(13) 0.849(4) 0.8434(17)
C20_5 C 0.4940(3) 0.9606(3) 0.84592(16)
O6_5 O 0.52438(19) 0.9437(2) 0.80957(11)
O7_5 O 0.5286(2) 0.9523(2) 0.88272(11)
Zn1_3 Zn 0.63883(3) 0.90996(4) 0.79613(2)
O15_3 O 0.5902(2) 0.7916(2) 0.76816(12)
O18_3 O 0.6732(2) 0.9415(2) 0.73707(11)
C35_6 C 0.0281(3) 0.2807(3) 0.00433(17)
C39_6 C 0.0540(3) 0.2435(3) 0.04660(17)
C28_6 C 0.0172(3) 0.2200(3) 0.88463(17)
C29_6 C 0.0425(3) 0.2544(3) 0.84526(15)
H18_6 H 0.0594 0.3103 0.8447
C30_6 C 0.0436(3) 0.2086(3) 0.80605(15)
C31_6 C 0.0184(3) 0.1278(3) 0.80688(16)
H19_6 H 0.0179 0.0965 0.7806
C32_6 C 0.0668(3) 0.2489(3) 0.76416(16)
C33_6 C 0.0124(3) 0.2690(3) 0.92585(17)
C34_6 C 0.0336(3) 0.2353(3) 0.96586(17)
H20_6 H 0.0522 0.1801 0.9671
O8_4 O 0.0902(2) 0.2084(2) 0.73184(12)
O9_4 O 0.0585(2) 0.3268(2) 0.76293(11)
C10_6 C 0.4719(3) 0.2193(3) 0.00433(17)
C11_4 C 0.5005(4) 0.1383(3) 0.00265(18)
H5_4 H 0.5047 0.1067 0.0288
C14_6 C 0.4460(3) 0.2565(3) 0.04660(17)
C1_6 C 0.5062(3) 0.4081(3) 0.84610(16)
C2_6 C 0.5058(3) 0.3623(3) 0.88474(16)
H1_6 H 0.5215 0.3876 0.9115
C3_6 C 0.4828(3) 0.2800(3) 0.88463(17)
C4_6 C 0.4575(3) 0.2456(3) 0.84526(15)
H2_6 H 0.4406 0.1897 0.8447
C5_6 C 0.4564(3) 0.2914(3) 0.80605(15)
C6_6 C 0.4816(3) 0.3722(3) 0.80688(16)
H3_6 H 0.4821 0.4035 0.7806
C7_6 C 0.4332(3) 0.2511(3) 0.76416(16)
C8_6 C 0.4876(3) 0.2310(3) 0.92585(17)
C9_6 C 0.4664(3) 0.2647(3) 0.96586(17)
H4_6 H 0.4478 0.3199 0.9671
C12_6 C 0.5224(4) 0.1045(3) 0.96275(18)
H6_6 H 0.5420 0.0496 0.9615
C13_6 C 0.5160(4) 0.1496(3) 0.92479(18)
H7_6 H 0.5311 0.1255 0.8976
C15_6 C 0.3915(4) 0.6291(3) 0.8062(2)
H8_6 H 0.4018 0.5745 0.7967
C16_6 C 0.3122(4) 0.6548(3) 0.8076(2)
H9_6 H 0.2695 0.6185 0.7990
C17_6 C 0.2932(3) 0.7337(3) 0.8216(2)
C18_6 C 0.3592(4) 0.7811(4) 0.8334(3)
H10_6 H 0.3505 0.8360 0.8430
C19_6 C 0.4381(4) 0.7503(4) 0.8316(2)
H11_6 H 0.4819 0.7845 0.8412
N1_6 N 0.4560(3) 0.6755(3) 0.81734(15)
O1_4 O 0.4098(2) 0.2916(2) 0.73184(12)
O2_4 O 0.4415(2) 0.1732(2) 0.76293(11)
O5_6 O 0.64940(19) 0.67742(19) 0.84701(10)
H12_6 H 0.651(4) 0.7286(13) 0.8434(17)
C20_6 C 0.5394(3) 0.4940(3) 0.84592(16)
O6_6 O 0.5563(2) 0.52438(19) 0.80957(11)
O7_6 O 0.5477(2) 0.5286(2) 0.88272(11)
Zn1_4 Zn 0.59004(4) 0.63883(3) 0.79613(2)
C21_6 C 0.1085(4) 0.8709(3) 0.8062(2)
H13_6 H 0.0982 0.9255 0.7967
C22_6 C 0.1878(4) 0.8452(3) 0.8076(2)
H14_6 H 0.2305 0.8815 0.7990
C23_6 C 0.2068(3) 0.7663(3) 0.8216(2)
C24_6 C 0.1408(4) 0.7189(4) 0.8334(3)
H15_6 H 0.1495 0.6640 0.8430
C25_6 C 0.0619(4) 0.7497(4) 0.8316(2)
H16_6 H 0.0181 0.7155 0.8412
N2_6 N 0.0440(3) 0.8245(3) 0.81734(15)
O15_4 O 0.7084(2) 0.5902(2) 0.76816(12)
O18_4 O 0.5585(2) 0.6732(2) 0.73707(11)
O12_6 O 0.85060(19) 0.82258(19) 0.84701(10)
H24_6 H 0.849(4) 0.7714(13) 0.8434(17)
O13_6 O 0.9437(2) 0.97562(19) 0.80957(11)
O14_6 O 0.9523(2) 0.9714(2) 0.88272(11)
Zn3_4 Zn 0.90996(4) 0.86117(3) 0.79613(2)
O16_4 O 0.7916(2) 0.9098(2) 0.76816(12)
O17_4 O 0.9415(2) 0.8268(2) 0.73707(11)
O12_7 O 0.17742(19) 0.14940(19) 0.65299(10)
H24_7 H 0.2286(13) 0.151(4) 0.6566(17)
O13_7 O 0.02438(19) 0.0563(2) 0.69043(11)
O14_7 O 0.0286(2) 0.0477(2) 0.61728(11)
C1_7 C 0.5919(3) 0.4938(3) 0.65390(16)
C2_7 C 0.6377(3) 0.4942(3) 0.61526(16)
H1_7 H 0.6124 0.4785 0.5885
C3_7 C 0.7200(3) 0.5172(3) 0.61537(17)
C4_7 C 0.7544(3) 0.5425(3) 0.65474(15)
H2_7 H 0.8103 0.5594 0.6553
C5_7 C 0.7086(3) 0.5436(3) 0.69395(15)
C6_7 C 0.6278(3) 0.5184(3) 0.69312(16)
H3_7 H 0.5965 0.5179 0.7194
C7_7 C 0.7489(3) 0.5668(3) 0.73584(16)
C8_7 C 0.7690(3) 0.5124(3) 0.57415(17)
C9_7 C 0.7353(3) 0.5336(3) 0.53414(17)
H4_7 H 0.6801 0.5522 0.5329
C10_7 C 0.7807(3) 0.5281(3) 0.49567(17)
C11_5 C 0.8617(3) 0.4995(4) 0.49735(18)
H5_5 H 0.8933 0.4953 0.4712
C12_7 C 0.8955(3) 0.4776(4) 0.53725(18)
H6_7 H 0.9504 0.4580 0.5385
C13_7 C 0.8504(3) 0.4840(4) 0.57521(18)
H7_7 H 0.8745 0.4689 0.6024
C14_7 C 0.7435(3) 0.5540(3) 0.45340(17)
C15_7 C 0.3709(3) 0.6085(4) 0.6938(2)
H8_7 H 0.4255 0.5982 0.7033
C16_7 C 0.3452(3) 0.6878(4) 0.6924(2)
H9_7 H 0.3815 0.7305 0.7010
C17_7 C 0.2663(3) 0.7068(3) 0.6784(2)
C18_7 C 0.2189(4) 0.6408(4) 0.6666(3)
H10_7 H 0.1640 0.6495 0.6570
C19_7 C 0.2497(4) 0.5619(4) 0.6684(2)
H11_7 H 0.2155 0.5181 0.6588
N1_7 N 0.3245(3) 0.5440(3) 0.68266(15)
O5_7 O 0.32258(19) 0.35060(19) 0.65299(10)
H12_7 H 0.2714(13) 0.349(4) 0.6566(17)
C20_7 C 0.5060(3) 0.4606(3) 0.65408(16)
O6_7 O 0.47562(19) 0.4437(2) 0.69043(11)
O7_7 O 0.4714(2) 0.4523(2) 0.61728(11)
C21_7 C 0.1291(3) 0.8915(4) 0.6938(2)
H13_7 H 0.0745 0.9018 0.7033
C22_7 C 0.1548(3) 0.8122(4) 0.6924(2)
H14_7 H 0.1185 0.7695 0.7010
C23_7 C 0.2337(3) 0.7932(3) 0.6784(2)
C24_7 C 0.2811(4) 0.8592(4) 0.6666(3)
H15_7 H 0.3360 0.8505 0.6570
C25_7 C 0.2503(4) 0.9381(4) 0.6684(2)
H16_7 H 0.2845 0.9819 0.6588
N2_7 N 0.1755(3) 0.9560(3) 0.68266(15)
C28_7 C 0.7800(3) 0.9828(3) 0.61537(17)
C29_7 C 0.7456(3) 0.9575(3) 0.65474(15)
H18_7 H 0.6897 0.9406 0.6553
C30_7 C 0.7914(3) 0.9564(3) 0.69395(15)
C31_7 C 0.8722(3) 0.9816(3) 0.69312(16)
H19_7 H 0.9035 0.9821 0.7194
C32_7 C 0.7511(3) 0.9332(3) 0.73584(16)
C33_7 C 0.7310(3) 0.9876(3) 0.57415(17)
C34_7 C 0.7647(3) 0.9664(3) 0.53414(17)
H20_7 H 0.8199 0.9478 0.5329
C35_7 C 0.7193(3) 0.9719(3) 0.49567(17)
C39_7 C 0.7565(3) 0.9460(3) 0.45340(17)
C26_4 C 0.0062(3) 0.5919(3) 0.65390(16)
C27_4 C 0.0058(3) 0.6377(3) 0.61526(16)
H17_4 H 0.0215 0.6124 0.5885
C36_4 C 0.0005(4) 0.8617(3) 0.49735(18)
H21_4 H 0.0047 0.8933 0.4712
C37_4 C 0.0224(4) 0.8955(3) 0.53725(18)
H22_4 H 0.0420 0.9504 0.5385
C38_4 C 0.0160(4) 0.8504(3) 0.57521(18)
H23_4 H 0.0311 0.8745 0.6024
O12_8 O 0.14940(19) 0.32258(19) 0.65299(10)
H24_8 H 0.151(4) 0.2714(13) 0.6566(17)
C40_4 C 0.0394(3) 0.5060(3) 0.65408(16)
O13_8 O 0.0563(2) 0.47562(19) 0.69043(11)
O14_8 O 0.0477(2) 0.4714(2) 0.61728(11)
C15_8 C 0.6085(4) 0.1291(3) 0.6938(2)
H8_8 H 0.5982 0.0745 0.7033
C16_8 C 0.6878(4) 0.1548(3) 0.6924(2)
H9_8 H 0.7305 0.1185 0.7010
C17_8 C 0.7068(3) 0.2337(3) 0.6784(2)
C18_8 C 0.6408(4) 0.2811(4) 0.6666(3)
H10_8 H 0.6495 0.3360 0.6570
C19_8 C 0.5619(4) 0.2503(4) 0.6684(2)
H11_8 H 0.5181 0.2845 0.6588
N1_8 N 0.5440(3) 0.1755(3) 0.68266(15)
O5_8 O 0.35060(19) 0.17742(19) 0.65299(10)
H12_8 H 0.349(4) 0.2286(13) 0.6566(17)
O6_8 O 0.4437(2) 0.02438(19) 0.69043(11)
O7_8 O 0.4523(2) 0.0286(2) 0.61728(11)
C21_8 C 0.8915(4) 0.3709(3) 0.6938(2)
H13_8 H 0.9018 0.4255 0.7033
C22_8 C 0.8122(4) 0.3452(3) 0.6924(2)
H14_8 H 0.7695 0.3815 0.7010
C23_8 C 0.7932(3) 0.2663(3) 0.6784(2)
C24_8 C 0.8592(4) 0.2189(4) 0.6666(3)
H15_8 H 0.8505 0.1640 0.6570
C25_8 C 0.9381(4) 0.2497(4) 0.6684(2)
H16_8 H 0.9819 0.2155 0.6588
N2_8 N 0.9560(3) 0.3245(3) 0.68266(15)
C28_8 C 0.9828(3) 0.7200(3) 0.61537(17)
C29_8 C 0.9575(3) 0.7544(3) 0.65474(15)
H18_8 H 0.9406 0.8103 0.6553
C30_8 C 0.9564(3) 0.7086(3) 0.69395(15)
C31_8 C 0.9816(3) 0.6278(3) 0.69312(16)
H19_8 H 0.9821 0.5965 0.7194
C32_8 C 0.9332(3) 0.7489(3) 0.73584(16)
C33_8 C 0.9876(3) 0.7690(3) 0.57415(17)
C34_8 C 0.9664(3) 0.7353(3) 0.53414(17)
H20_8 H 0.9478 0.6801 0.5329
C35_8 C 0.9719(3) 0.7807(3) 0.49567(17)
C39_8 C 0.9460(3) 0.7435(3) 0.45340(17)
C1_8 C 0.4938(3) 0.9081(3) 0.65390(16)
C2_8 C 0.4942(3) 0.8623(3) 0.61526(16)
H1_8 H 0.4785 0.8876 0.5885
C3_8 C 0.5172(3) 0.7800(3) 0.61537(17)
C4_8 C 0.5425(3) 0.7456(3) 0.65474(15)
H2_8 H 0.5594 0.6897 0.6553
C5_8 C 0.5436(3) 0.7914(3) 0.69395(15)
C6_8 C 0.5184(3) 0.8722(3) 0.69312(16)
H3_8 H 0.5179 0.9035 0.7194
C7_8 C 0.5668(3) 0.7511(3) 0.73584(16)
C8_8 C 0.5124(3) 0.7310(3) 0.57415(17)
C9_8 C 0.5336(3) 0.7647(3) 0.53414(17)
H4_8 H 0.5522 0.8199 0.5329
C10_8 C 0.5281(3) 0.7193(3) 0.49567(17)
C11_6 C 0.4995(4) 0.6383(3) 0.49735(18)
H5_6 H 0.4953 0.6067 0.4712
C12_8 C 0.4776(4) 0.6045(3) 0.53725(18)
H6_8 H 0.4580 0.5496 0.5385
C13_8 C 0.4840(4) 0.6496(3) 0.57521(18)
H7_8 H 0.4689 0.6255 0.6024
C14_8 C 0.5540(3) 0.7565(3) 0.45340(17)
C20_8 C 0.4606(3) 0.9940(3) 0.65408(16)
C11_7 C 0.8617(3) 0.0005(4) 0.99735(18)
H5_7 H 0.8933 0.0047 0.9712
C26_5 C 0.0062(3) 0.9081(3) 0.15390(16)
C27_5 C 0.0058(3) 0.8623(3) 0.11526(16)
H17_5 H 0.0215 0.8876 0.0885
C37_5 C 0.0224(4) 0.6045(3) 0.03725(18)
H22_5 H 0.0420 0.5496 0.0385
C38_5 C 0.0160(4) 0.6496(3) 0.07521(18)
H23_5 H 0.0311 0.6255 0.1024
C40_5 C 0.0394(3) 0.9940(3) 0.15408(16)
C36_5 C 0.0005(4) 0.6383(3) 0.99735(18)
H21_5 H 0.0047 0.6067 0.9712
C26_6 C 0.0919(3) 0.9938(3) 0.34610(16)
C27_6 C 0.1377(3) 0.9942(3) 0.38474(16)
H17_6 H 0.1124 0.9785 0.4115
C36_6 C 0.3617(3) 0.9995(4) 0.50265(18)
H21_6 H 0.3933 0.9953 0.5288
C37_6 C 0.3955(3) 0.9776(4) 0.46275(18)
H22_6 H 0.4504 0.9580 0.4615
C38_6 C 0.3504(3) 0.9840(4) 0.42479(18)
H23_6 H 0.3745 0.9689 0.3976
C40_6 C 0.0060(3) 0.9606(3) 0.34592(16)
C11_8 C 0.1383(3) 0.9995(4) 0.00265(18)
H5_8 H 0.1067 0.9953 0.0288
C36_7 C 0.9995(4) 0.3617(3) 0.00265(18)
H21_7 H 0.9953 0.3933 0.0288
C26_7 C 0.9938(3) 0.0919(3) 0.84610(16)
C27_7 C 0.9942(3) 0.1377(3) 0.88474(16)
H17_7 H 0.9785 0.1124 0.9115
C37_7 C 0.9776(4) 0.3955(3) 0.96275(18)
H22_7 H 0.9580 0.4504 0.9615
C38_7 C 0.9840(4) 0.3504(3) 0.92479(18)
H23_7 H 0.9689 0.3745 0.8976
C40_7 C 0.9606(3) 0.0060(3) 0.84592(16)
C26_8 C 0.9081(3) 0.0062(3) 0.65390(16)
C27_8 C 0.8623(3) 0.0058(3) 0.61526(16)
H17_8 H 0.8876 0.0215 0.5885
C36_8 C 0.6383(3) 0.0005(4) 0.49735(18)
H21_8 H 0.6067 0.0047 0.4712
C37_8 C 0.6045(3) 0.0224(4) 0.53725(18)
H22_8 H 0.5496 0.0420 0.5385
C38_8 C 0.6496(3) 0.0160(4) 0.57521(18)
H23_8 H 0.6255 0.0311 0.6024
C40_8 C 0.9940(3) 0.0394(3) 0.65408(16)
loop_
_geom_bond_atom_site_label_1
_geom_bond_atom_site_label_2
_geom_bond_site_symmetry_1
_geom_bond_site_symmetry_2
C1 C2 1_555 1_555
C2 H1 1_555 1_555
H6 C12 1_555 1_555
H7 C13 1_555 1_555
O5 H12 1_555 1_555
C20 C1 1_555 1_555
O6 C20 1_555 1_555
O7 C20 1_555 1_555
Zn2 O5 1_555 1_555
O15 Zn1 1_555 1_555
O18 Zn1 1_555 1_555
O19 Zn2 1_555 1_555
O21 Zn2 1_555 1_555
C12 C13 1_555 1_555
O5 Zn1 1_555 1_555
O6 Zn1 1_555 1_555
O7 Zn2 1_555 1_555
C4 C3 1_555 1_555
H2 C4 1_555 1_555
C5 C4 1_555 1_555
H3 C6 1_555 1_555
C7 C5 1_555 1_555
C8 C3 1_555 1_555
C9 C8 1_555 1_555
H4 C9 1_555 1_555
C15 H8 1_555 1_555
C16 C15 1_555 1_555
H9 C16 1_555 1_555
C17 C16 1_555 1_555
C18 C17 1_555 1_555
H10 C18 1_555 1_555
C19 C18 1_555 1_555
H11 C19 1_555 1_555
N1 C15 1_555 1_555
O1 C7 1_555 1_555
O2 C7 1_555 1_555
C21 H13 1_555 1_555
C22 C21 1_555 1_555
H14 C22 1_555 1_555
C23 C17 1_555 1_555
C24 C23 1_555 1_555
H15 C24 1_555 1_555
C25 C24 1_555 1_555
H16 C25 1_555 1_555
N2 C21 1_555 1_555
O12 H24 1_555 1_555
Zn3 N2 1_555 1_555
Zn4 O12 1_555 1_555
O16 Zn3 1_555 1_555
O17 Zn3 1_555 1_555
O20 Zn4 1_555 1_555
O22 Zn4 1_555 1_555
Zn6 O2 1_555 1_555
Zn7 O1 1_555 1_555
C5 C6 1_555 1_555
C19 N1 1_555 1_555
C22 C23 1_555 1_555
C25 N2 1_555 1_555
O12 Zn3 1_555 1_555
O13 Zn3 1_555 1_555
O14 Zn4 1_555 1_555
C14 C10 1_555 1_555
O3 C14 1_555 1_555
O4 C14 1_555 1_555
Zn9 O3 1_555 1_555
Zn12 O4 1_555 1_555
C26 C27 1_555 1_555
C27 H17 1_555 1_555
C28 C27 1_555 1_555
C29 C28 1_555 1_555
H18 C29 1_555 1_555
C30 C29 1_555 1_555
C31 C26 1_555 1_555
H19 C31 1_555 1_555
C32 C30 1_555 1_555
C33 C28 1_555 1_555
C34 C33 1_555 1_555
H20 C34 1_555 1_555
H22 C37 1_555 1_555
C38 C33 1_555 1_555
H23 C38 1_555 1_555
O8 C32 1_555 1_555
O9 C32 1_555 1_555
C40 C26 1_555 1_555
Zn5 O9 1_555 1_555
Zn8 O8 1_555 1_555
C30 C31 1_555 1_555
C37 C38 1_555 1_555
C36 C35 1_555 1_555
H21 C36 1_555 1_555
C39 C35 1_555 1_555
O10 C39 1_555 1_555
O11 C39 1_555 1_555
Zn10 O10 1_555 1_555
Zn11 O11 1_555 1_555
O12_2 H24_2 1_555 1_555
Zn4_2 O12_2 1_555 1_555
O16_2 Zn3_2 1_555 1_555
O17_2 Zn3_2 1_555 1_555
O20_2 Zn4_2 1_555 1_555
O22_2 Zn4_2 1_555 1_555
O12_2 Zn3_2 1_555 1_555
O13_2 Zn3_2 1_555 1_555
O14_2 Zn4_2 1_555 1_555
C1_2 C2_2 1_555 1_555
C2_2 H1_2 1_555 1_555
C3_2 C2_2 1_555 1_555
C4_2 C3_2 1_555 1_555
H2_2 C4_2 1_555 1_555
C5_2 C4_2 1_555 1_555
C6_2 C1_2 1_555 1_555
H3_2 C6_2 1_555 1_555
C7_2 C5_2 1_555 1_555
C8_2 C3_2 1_555 1_555
C9_2 C8_2 1_555 1_555
H4_2 C9_2 1_555 1_555
H6_2 C12_2 1_555 1_555
C13_2 C8_2 1_555 1_555
H7_2 C13_2 1_555 1_555
C15_2 H8_2 1_555 1_555
C16_2 C15_2 1_555 1_555
H9_2 C16_2 1_555 1_555
C17_2 C16_2 1_555 1_555
C18_2 C17_2 1_555 1_555
H10_2 C18_2 1_555 1_555
C19_2 C18_2 1_555 1_555
H11_2 C19_2 1_555 1_555
N1_2 C15_2 1_555 1_555
O1_2 C7_2 1_555 1_555
O2_2 C7_2 1_555 1_555
O5_2 H12_2 1_555 1_555
C20_2 C1_2 1_555 1_555
O6_2 C20_2 1_555 1_555
O7_2 C20_2 1_555 1_555
Zn1_2 N1_2 1_555 1_555
Zn2_2 O5_2 1_555 1_555
C21_2 H13_2 1_555 1_555
C22_2 C21_2 1_555 1_555
H14_2 C22_2 1_555 1_555
C23_2 C17_2 1_555 1_555
C24_2 C23_2 1_555 1_555
H15_2 C24_2 1_555 1_555
C25_2 C24_2 1_555 1_555
H16_2 C25_2 1_555 1_555
N2_2 C21_2 1_555 1_555
O15_2 Zn1_2 1_555 1_555
O18_2 Zn1_2 1_555 1_555
O19_2 Zn2_2 1_555 1_555
O21_2 Zn2_2 1_555 1_555
Zn7 O2_2 1_555 1_555
Zn5 O1_2 1_555 1_555
C5_2 C6_2 1_555 1_555
C12_2 C13_2 1_555 1_555
C19_2 N1_2 1_555 1_555
O5_2 Zn1_2 1_555 1_555
O6_2 Zn1_2 1_555 1_555
O7_2 Zn2_2 1_555 1_555
C22_2 C23_2 1_555 1_555
C25_2 N2_2 1_555 1_555
C11 C10_2 1_555 1_555
H5 C11 1_555 1_555
C14_2 C10_2 1_555 1_555
O3_2 C14_2 1_555 1_555
O4_2 C14_2 1_555 1_555
Zn11 O3_2 1_555 1_555
Zn9 O4_2 1_555 1_555
C29_2 C28_2 1_555 1_555
H18_2 C29_2 1_555 1_555
C30_2 C29_2 1_555 1_555
H19_2 C31_2 1_555 1_555
C32_2 C30_2 1_555 1_555
C33_2 C28_2 1_555 1_555
C34_2 C33_2 1_555 1_555
H20_2 C34_2 1_555 1_555
O8_2 C32_2 1_555 1_555
O9_2 C32_2 1_555 1_555
Zn8 O9_2 1_555 1_555
Zn6 O8_2 1_555 1_555
C30_2 C31_2 1_555 1_555
C39_2 C35_2 1_555 1_555
O10_2 C39_2 1_555 1_555
O11_2 C39_2 1_555 1_555
Zn12 O10_2 1_555 1_555
Zn10 O11_2 1_555 1_555
C29_3 C28_3 1_555 1_555
H18_3 C29_3 1_555 1_555
C30_3 C29_3 1_555 1_555
H19_3 C31_3 1_555 1_555
C32_3 C30_3 1_555 1_555
C33_3 C28_3 1_555 1_555
C34_3 C33_3 1_555 1_555
H20_3 C34_3 1_555 1_555
C35_3 C34_3 1_555 1_555
C39_3 C35_3 1_555 1_555
O16_2 C32_3 1_555 1_555
O18 C32_3 1_555 1_555
O10_3 C39_3 1_555 1_555
O11_3 C39_3 1_555 1_555
Zn10_2 O10_3 1_555 1_555
Zn11_2 O11_3 1_555 1_555
C30_3 C31_3 1_555 1_555
C1_3 C2_3 1_555 1_555
C2_3 H1_3 1_555 1_555
C3_3 C2_3 1_555 1_555
C4_3 C3_3 1_555 1_555
H2_3 C4_3 1_555 1_555
C5_3 C4_3 1_555 1_555
C6_3 C1_3 1_555 1_555
H3_3 C6_3 1_555 1_555
C7_3 C5_3 1_555 1_555
C8_3 C3_3 1_555 1_555
C9_3 C8_3 1_555 1_555
H4_3 C9_3 1_555 1_555
C10_3 C9_3 1_555 1_555
C11_2 C10_3 1_555 1_555
H5_2 C11_2 1_555 1_555
C12_3 C11_2 1_555 1_555
H6_3 C12_3 1_555 1_555
C13_3 C8_3 1_555 1_555
H7_3 C13_3 1_555 1_555
C14_3 C10_3 1_555 1_555
C15_3 H8_3 1_555 1_555
C16_3 C15_3 1_555 1_555
H9_3 C16_3 1_555 1_555
C17_3 C16_3 1_555 1_555
C18_3 C17_3 1_555 1_555
H10_3 C18_3 1_555 1_555
C19_3 C18_3 1_555 1_555
H11_3 C19_3 1_555 1_555
N1_3 C15_3 1_555 1_555
O15_2 C7_3 1_555 1_555
O17 C7_3 1_555 1_555
O3_3 C14_3 1_555 1_555
O4_3 C14_3 1_555 1_555
O5_3 H12_3 1_555 1_555
C20_3 C1_3 1_555 1_555
O6_3 C20_3 1_555 1_555
O7_3 C20_3 1_555 1_555
Zn5 N1_3 1_555 1_555
Zn2_3 O5_3 1_555 1_555
C21_3 H13_3 1_555 1_555
C22_3 C21_3 1_555 1_555
H14_3 C22_3 1_555 1_555
C23_3 C17_3 1_555 1_555
C24_3 C23_3 1_555 1_555
H15_3 C24_3 1_555 1_555
C25_3 C24_3 1_555 1_555
H16_3 C25_3 1_555 1_555
N2_3 C21_3 1_555 1_555
O19_3 Zn2_3 1_555 1_555
O21_3 Zn2_3 1_555 1_555
Zn9_2 O3_3 1_555 1_555
Zn12_2 O4_3 1_555 1_555
C5_3 C6_3 1_555 1_555
C12_3 C13_3 1_555 1_555
C19_3 N1_3 1_555 1_555
O5_3 Zn5 1_555 1_555
O6_3 Zn5 1_555 1_555
O7_3 Zn2_3 1_555 1_555
C22_3 C23_3 1_555 1_555
C25_3 N2_3 1_555 1_555
O12_3 H24_3 1_555 1_555
Zn4_3 O12_3 1_555 1_555
O20_3 Zn4_3 1_555 1_555
O22_3 Zn4_3 1_555 1_555
O12_3 Zn6 1_555 1_555
O13_3 Zn6 1_555 1_555
O14_3 Zn4_3 1_555 1_555
C1_4 C2_4 1_555 1_555
C2_4 H1_4 1_555 1_555
C3_4 C2_4 1_555 1_555
C4_4 C3_4 1_555 1_555
H2_4 C4_4 1_555 1_555
C5_4 C4_4 1_555 1_555
C6_4 C1_4 1_555 1_555
H3_4 C6_4 1_555 1_555
C7_4 C5_4 1_555 1_555
C8_4 C3_4 1_555 1_555
C9_4 C8_4 1_555 1_555
H4_4 C9_4 1_555 1_555
C10_4 C9_4 1_555 1_555
C11_3 C10_4 1_555 1_555
H5_3 C11_3 1_555 1_555
C12_4 C11_3 1_555 1_555
H6_4 C12_4 1_555 1_555
C13_4 C8_4 1_555 1_555
H7_4 C13_4 1_555 1_555
C14_4 C10_4 1_555 1_555
O15 C7_4 1_555 1_555
O18_2 C7_4 1_555 1_555
O3_4 C14_4 1_555 1_555
O4_4 C14_4 1_555 1_555
C20_4 C1_4 1_555 1_555
Zn11_2 O3_4 1_555 1_555
Zn9_2 O4_4 1_555 1_555
C5_4 C6_4 1_555 1_555
C12_4 C13_4 1_555 1_555
C15_4 H8_4 1_555 1_555
C16_4 C15_4 1_555 1_555
H9_4 C16_4 1_555 1_555
C17_4 C16_4 1_555 1_555
C18_4 C17_4 1_555 1_555
H10_4 C18_4 1_555 1_555
C19_4 C18_4 1_555 1_555
H11_4 C19_4 1_555 1_555
N1_4 C15_4 1_555 1_555
O5_4 H12_4 1_555 1_555
Zn7 N1_4 1_555 1_555
Zn2_4 O5_4 1_555 1_555
C21_4 H13_4 1_555 1_555
C22_4 C21_4 1_555 1_555
H14_4 C22_4 1_555 1_555
C23_4 C17_4 1_555 1_555
C24_4 C23_4 1_555 1_555
H15_4 C24_4 1_555 1_555
C25_4 C24_4 1_555 1_555
H16_4 C25_4 1_555 1_555
N2_4 C21_4 1_555 1_555
C29_4 C28_4 1_555 1_555
H18_4 C29_4 1_555 1_555
C30_4 C29_4 1_555 1_555
H19_4 C31_4 1_555 1_555
C32_4 C30_4 1_555 1_555
C33_4 C28_4 1_555 1_555
C34_4 C33_4 1_555 1_555
H20_4 C34_4 1_555 1_555
C35_4 C34_4 1_555 1_555
C39_4 C35_4 1_555 1_555
O16 C32_4 1_555 1_555
O17_2 C32_4 1_555 1_555
O10_4 C39_4 1_555 1_555
O11_4 C39_4 1_555 1_555
O19_4 Zn2_4 1_555 1_555
O21_4 Zn2_4 1_555 1_555
Zn12_2 O10_4 1_555 1_555
Zn10_2 O11_4 1_555 1_555
C19_4 N1_4 1_555 1_555
O5_4 Zn7 1_555 1_555
O6_4 Zn7 1_555 1_555
O7_4 Zn2_4 1_555 1_555
C22_4 C23_4 1_555 1_555
C25_4 N2_4 1_555 1_555
C30_4 C31_4 1_555 1_555
C26_2 C27_2 1_555 1_555
C27_2 H17_2 1_555 1_555
H21_2 C36_2 1_555 1_555
C37_2 C36_2 1_555 1_555
H22_2 C37_2 1_555 1_555
H23_2 C38_2 1_555 1_555
O12_4 H24_4 1_555 1_555
C40_2 C26_2 1_555 1_555
O13_4 C40_2 1_555 1_555
O14_4 C40_2 1_555 1_555
Zn4_4 O12_4 1_555 1_555
O20_4 Zn4_4 1_555 1_555
O22_4 Zn4_4 1_555 1_555
C37_2 C38_2 1_555 1_555
O12_4 Zn8 1_555 1_555
O13_4 Zn8 1_555 1_555
O14_4 Zn4_4 1_555 1_555
C36_3 C35_5 1_555 1_555
H21_3 C36_3 1_555 1_555
C39_5 C35_5 1_555 1_555
O20 C39_5 1_555 1_555
O21_2 C39_5 1_555 1_555
C26_3 C27_3 1_555 1_555
C27_3 H17_3 1_555 1_555
C28_5 C27_3 1_555 1_555
C29_5 C28_5 1_555 1_555
H18_5 C29_5 1_555 1_555
C30_5 C29_5 1_555 1_555
C31_5 C26_3 1_555 1_555
H19_5 C31_5 1_555 1_555
C32_5 C30_5 1_555 1_555
C33_5 C28_5 1_555 1_555
C34_5 C33_5 1_555 1_555
H20_5 C34_5 1_555 1_555
H22_3 C37_3 1_555 1_555
C38_3 C33_5 1_555 1_555
H23_3 C38_3 1_555 1_555
O8_3 C32_5 1_555 1_555
O9_3 C32_5 1_555 1_555
C40_3 C26_3 1_555 1_555
Zn5_2 O9_3 1_555 1_555
Zn8_2 O8_3 1_555 1_555
C30_5 C31_5 1_555 1_555
C37_3 C38_3 1_555 1_555
C14_5 C10_5 1_555 1_555
O19 C14_5 1_555 1_555
O22_2 C14_5 1_555 1_555
C4_5 C3_5 1_555 1_555
H2_5 C4_5 1_555 1_555
C5_5 C4_5 1_555 1_555
H3_5 C6_5 1_555 1_555
C7_5 C5_5 1_555 1_555
C8_5 C3_5 1_555 1_555
C9_5 C8_5 1_555 1_555
H4_5 C9_5 1_555 1_555
C15_5 H8_5 1_555 1_555
C16_5 C15_5 1_555 1_555
H9_5 C16_5 1_555 1_555
C17_5 C16_5 1_555 1_555
C18_5 C17_5 1_555 1_555
H10_5 C18_5 1_555 1_555
C19_5 C18_5 1_555 1_555
H11_5 C19_5 1_555 1_555
N1_5 C15_5 1_555 1_555
O1_3 C7_5 1_555 1_555
O2_3 C7_5 1_555 1_555
C21_5 H13_5 1_555 1_555
C22_5 C21_5 1_555 1_555
H14_5 C22_5 1_555 1_555
C23_5 C17_5 1_555 1_555
C24_5 C23_5 1_555 1_555
H15_5 C24_5 1_555 1_555
C25_5 C24_5 1_555 1_555
H16_5 C25_5 1_555 1_555
N2_5 C21_5 1_555 1_555
O12_5 H24_5 1_555 1_555
Zn3_3 N2_5 1_555 1_555
Zn10 O12_5 1_555 1_555
O16_3 Zn3_3 1_555 1_555
O17_3 Zn3_3 1_555 1_555
Zn6_2 O2_3 1_555 1_555
Zn7_2 O1_3 1_555 1_555
C5_5 C6_5 1_555 1_555
C19_5 N1_5 1_555 1_555
C22_5 C23_5 1_555 1_555
C25_5 N2_5 1_555 1_555
O12_5 Zn3_3 1_555 1_555
O13_5 Zn3_3 1_555 1_555
O14_5 Zn10 1_555 1_555
C1_5 C2_5 1_555 1_555
C2_5 H1_5 1_555 1_555
H6_5 C12_5 1_555 1_555
H7_5 C13_5 1_555 1_555
O5_5 H12_5 1_555 1_555
C20_5 C1_5 1_555 1_555
O6_5 C20_5 1_555 1_555
O7_5 C20_5 1_555 1_555
Zn9 O5_5 1_555 1_555
O15_3 Zn1_3 1_555 1_555
O18_3 Zn1_3 1_555 1_555
C12_5 C13_5 1_555 1_555
O5_5 Zn1_3 1_555 1_555
O6_5 Zn1_3 1_555 1_555
O7_5 Zn9 1_555 1_555
C39_6 C35_6 1_555 1_555
O20_2 C39_6 1_555 1_555
O22 C39_6 1_555 1_555
C29_6 C28_6 1_555 1_555
H18_6 C29_6 1_555 1_555
C30_6 C29_6 1_555 1_555
H19_6 C31_6 1_555 1_555
C32_6 C30_6 1_555 1_555
C33_6 C28_6 1_555 1_555
C34_6 C33_6 1_555 1_555
H20_6 C34_6 1_555 1_555
O8_4 C32_6 1_555 1_555
O9_4 C32_6 1_555 1_555
Zn8_2 O9_4 1_555 1_555
Zn6_2 O8_4 1_555 1_555
C30_6 C31_6 1_555 1_555
C11_4 C10_6 1_555 1_555
H5_4 C11_4 1_555 1_555
C14_6 C10_6 1_555 1_555
O19_2 C14_6 1_555 1_555
O21 C14_6 1_555 1_555
C1_6 C2_6 1_555 1_555
C2_6 H1_6 1_555 1_555
C3_6 C2_6 1_555 1_555
C4_6 C3_6 1_555 1_555
H2_6 C4_6 1_555 1_555
C5_6 C4_6 1_555 1_555
C6_6 C1_6 1_555 1_555
H3_6 C6_6 1_555 1_555
C7_6 C5_6 1_555 1_555
C8_6 C3_6 1_555 1_555
C9_6 C8_6 1_555 1_555
H4_6 C9_6 1_555 1_555
H6_6 C12_6 1_555 1_555
C13_6 C8_6 1_555 1_555
H7_6 C13_6 1_555 1_555
C15_6 H8_6 1_555 1_555
C16_6 C15_6 1_555 1_555
H9_6 C16_6 1_555 1_555
C17_6 C16_6 1_555 1_555
C18_6 C17_6 1_555 1_555
H10_6 C18_6 1_555 1_555
C19_6 C18_6 1_555 1_555
H11_6 C19_6 1_555 1_555
N1_6 C15_6 1_555 1_555
O1_4 C7_6 1_555 1_555
O2_4 C7_6 1_555 1_555
O5_6 H12_6 1_555 1_555
C20_6 C1_6 1_555 1_555
O6_6 C20_6 1_555 1_555
O7_6 C20_6 1_555 1_555
Zn1_4 N1_6 1_555 1_555
Zn11 O5_6 1_555 1_555
C21_6 H13_6 1_555 1_555
C22_6 C21_6 1_555 1_555
H14_6 C22_6 1_555 1_555
C23_6 C17_6 1_555 1_555
C24_6 C23_6 1_555 1_555
H15_6 C24_6 1_555 1_555
C25_6 C24_6 1_555 1_555
H16_6 C25_6 1_555 1_555
N2_6 C21_6 1_555 1_555
O15_4 Zn1_4 1_555 1_555
O18_4 Zn1_4 1_555 1_555
Zn7_2 O2_4 1_555 1_555
Zn5_2 O1_4 1_555 1_555
C5_6 C6_6 1_555 1_555
C12_6 C13_6 1_555 1_555
C19_6 N1_6 1_555 1_555
O5_6 Zn1_4 1_555 1_555
O6_6 Zn1_4 1_555 1_555
O7_6 Zn11 1_555 1_555
C22_6 C23_6 1_555 1_555
C25_6 N2_6 1_555 1_555
O12_6 H24_6 1_555 1_555
Zn12 O12_6 1_555 1_555
O16_4 Zn3_4 1_555 1_555
O17_4 Zn3_4 1_555 1_555
O12_6 Zn3_4 1_555 1_555
O13_6 Zn3_4 1_555 1_555
O14_6 Zn12 1_555 1_555
O12_7 H24_7 1_555 1_555
Zn10_2 O12_7 1_555 1_555
O12_7 Zn6_2 1_555 1_555
O13_7 Zn6_2 1_555 1_555
O14_7 Zn10_2 1_555 1_555
C1_7 C2_7 1_555 1_555
C2_7 H1_7 1_555 1_555
C3_7 C2_7 1_555 1_555
C4_7 C3_7 1_555 1_555
H2_7 C4_7 1_555 1_555
C5_7 C4_7 1_555 1_555
C6_7 C1_7 1_555 1_555
H3_7 C6_7 1_555 1_555
C7_7 C5_7 1_555 1_555
C8_7 C3_7 1_555 1_555
C9_7 C8_7 1_555 1_555
H4_7 C9_7 1_555 1_555
C10_7 C9_7 1_555 1_555
C11_5 C10_7 1_555 1_555
H5_5 C11_5 1_555 1_555
C12_7 C11_5 1_555 1_555
H6_7 C12_7 1_555 1_555
C13_7 C8_7 1_555 1_555
H7_7 C13_7 1_555 1_555
C14_7 C10_7 1_555 1_555
C15_7 H8_7 1_555 1_555
C16_7 C15_7 1_555 1_555
H9_7 C16_7 1_555 1_555
C17_7 C16_7 1_555 1_555
C18_7 C17_7 1_555 1_555
H10_7 C18_7 1_555 1_555
C19_7 C18_7 1_555 1_555
H11_7 C19_7 1_555 1_555
N1_7 C15_7 1_555 1_555
O15_4 C7_7 1_555 1_555
O17_3 C7_7 1_555 1_555
O19_3 C14_7 1_555 1_555
O22_4 C14_7 1_555 1_555
O5_7 H12_7 1_555 1_555
C20_7 C1_7 1_555 1_555
O6_7 C20_7 1_555 1_555
O7_7 C20_7 1_555 1_555
Zn5_2 N1_7 1_555 1_555
Zn9_2 O5_7 1_555 1_555
C21_7 H13_7 1_555 1_555
C22_7 C21_7 1_555 1_555
H14_7 C22_7 1_555 1_555
C23_7 C17_7 1_555 1_555
C24_7 C23_7 1_555 1_555
H15_7 C24_7 1_555 1_555
C25_7 C24_7 1_555 1_555
H16_7 C25_7 1_555 1_555
N2_7 C21_7 1_555 1_555
C5_7 C6_7 1_555 1_555
C12_7 C13_7 1_555 1_555
C19_7 N1_7 1_555 1_555
O5_7 Zn5_2 1_555 1_555
O6_7 Zn5_2 1_555 1_555
O7_7 Zn9_2 1_555 1_555
C22_7 C23_7 1_555 1_555
C25_7 N2_7 1_555 1_555
C29_7 C28_7 1_555 1_555
H18_7 C29_7 1_555 1_555
C30_7 C29_7 1_555 1_555
H19_7 C31_7 1_555 1_555
C32_7 C30_7 1_555 1_555
C33_7 C28_7 1_555 1_555
C34_7 C33_7 1_555 1_555
H20_7 C34_7 1_555 1_555
C35_7 C34_7 1_555 1_555
C39_7 C35_7 1_555 1_555
O16_4 C32_7 1_555 1_555
O18_3 C32_7 1_555 1_555
O20_3 C39_7 1_555 1_555
O21_4 C39_7 1_555 1_555
C30_7 C31_7 1_555 1_555
C26_4 C27_4 1_555 1_555
C27_4 H17_4 1_555 1_555
H21_4 C36_4 1_555 1_555
C37_4 C36_4 1_555 1_555
H22_4 C37_4 1_555 1_555
H23_4 C38_4 1_555 1_555
O12_8 H24_8 1_555 1_555
C40_4 C26_4 1_555 1_555
O13_8 C40_4 1_555 1_555
O14_8 C40_4 1_555 1_555
Zn12_2 O12_8 1_555 1_555
C37_4 C38_4 1_555 1_555
O12_8 Zn8_2 1_555 1_555
O13_8 Zn8_2 1_555 1_555
O14_8 Zn12_2 1_555 1_555
C15_8 H8_8 1_555 1_555
C16_8 C15_8 1_555 1_555
H9_8 C16_8 1_555 1_555
C17_8 C16_8 1_555 1_555
C18_8 C17_8 1_555 1_555
H10_8 C18_8 1_555 1_555
C19_8 C18_8 1_555 1_555
H11_8 C19_8 1_555 1_555
N1_8 C15_8 1_555 1_555
O5_8 H12_8 1_555 1_555
Zn7_2 N1_8 1_555 1_555
Zn11_2 O5_8 1_555 1_555
C21_8 H13_8 1_555 1_555
C22_8 C21_8 1_555 1_555
H14_8 C22_8 1_555 1_555
C23_8 C17_8 1_555 1_555
C24_8 C23_8 1_555 1_555
H15_8 C24_8 1_555 1_555
C25_8 C24_8 1_555 1_555
H16_8 C25_8 1_555 1_555
N2_8 C21_8 1_555 1_555
C29_8 C28_8 1_555 1_555
H18_8 C29_8 1_555 1_555
C30_8 C29_8 1_555 1_555
H19_8 C31_8 1_555 1_555
C32_8 C30_8 1_555 1_555
C33_8 C28_8 1_555 1_555
C34_8 C33_8 1_555 1_555
H20_8 C34_8 1_555 1_555
C35_8 C34_8 1_555 1_555
C39_8 C35_8 1_555 1_555
O16_3 C32_8 1_555 1_555
O17_4 C32_8 1_555 1_555
O20_4 C39_8 1_555 1_555
O22_3 C39_8 1_555 1_555
C19_8 N1_8 1_555 1_555
O5_8 Zn7_2 1_555 1_555
O6_8 Zn7_2 1_555 1_555
O7_8 Zn11_2 1_555 1_555
C22_8 C23_8 1_555 1_555
C25_8 N2_8 1_555 1_555
C30_8 C31_8 1_555 1_555
C1_8 C2_8 1_555 1_555
C2_8 H1_8 1_555 1_555
C3_8 C2_8 1_555 1_555
C4_8 C3_8 1_555 1_555
H2_8 C4_8 1_555 1_555
C5_8 C4_8 1_555 1_555
C6_8 C1_8 1_555 1_555
H3_8 C6_8 1_555 1_555
C7_8 C5_8 1_555 1_555
C8_8 C3_8 1_555 1_555
C9_8 C8_8 1_555 1_555
H4_8 C9_8 1_555 1_555
C10_8 C9_8 1_555 1_555
C11_6 C10_8 1_555 1_555
H5_6 C11_6 1_555 1_555
C12_8 C11_6 1_555 1_555
H6_8 C12_8 1_555 1_555
C13_8 C8_8 1_555 1_555
H7_8 C13_8 1_555 1_555
C14_8 C10_8 1_555 1_555
O15_3 C7_8 1_555 1_555
O18_4 C7_8 1_555 1_555
O19_4 C14_8 1_555 1_555
O21_3 C14_8 1_555 1_555
C20_8 C1_8 1_555 1_555
C5_8 C6_8 1_555 1_555
C12_8 C13_8 1_555 1_555
H5_7 C11_7 1_555 1_555
C26_5 C27_5 1_555 1_555
C27_5 H17_5 1_555 1_555
H22_5 C37_5 1_555 1_555
H23_5 C38_5 1_555 1_555
C40_5 C26_5 1_555 1_555
C37_5 C38_5 1_555 1_555
H21_5 C36_5 1_555 1_555
C26_6 C27_6 1_555 1_555
C27_6 H17_6 1_555 1_555
H21_6 C36_6 1_555 1_555
C37_6 C36_6 1_555 1_555
H22_6 C37_6 1_555 1_555
H23_6 C38_6 1_555 1_555
C40_6 C26_6 1_555 1_555
C37_6 C38_6 1_555 1_555
H5_8 C11_8 1_555 1_555
H21_7 C36_7 1_555 1_555
C26_7 C27_7 1_555 1_555
C27_7 H17_7 1_555 1_555
H22_7 C37_7 1_555 1_555
H23_7 C38_7 1_555 1_555
C40_7 C26_7 1_555 1_555
C37_7 C38_7 1_555 1_555
C26_8 C27_8 1_555 1_555
C27_8 H17_8 1_555 1_555
H21_8 C36_8 1_555 1_555
C37_8 C36_8 1_555 1_555
H22_8 C37_8 1_555 1_555
H23_8 C38_8 1_555 1_555
C40_8 C26_8 1_555 1_555
C37_8 C38_8 1_555 1_555

#END
