
###############################################################################
#
# This file contains modified crystal structure data generated from the
# MOF subset of the Cambridge Structural Database (CSD) v543 
# hosted by the Cambridge Crystallographic Data Centre (CCDC).
#
# This work is licensed under the Creative Commons
# Attribution-NonCommercial-ShareAlike 4.0 International License.
# To view a copy of this license, visit
# http://creativecommons.org/licenses/by-nc-sa/4.0/
# or send a letter to
# Creative Commons, PO Box 1866, Mountain View, CA 94042, USA.
#
# CIF created using the CSD Python API on 29 September 2022
# The structure has been converted into the P1 space group
# The structure has a 3D framework
# The original CSD entry QEWYID is in the tetragonal crystal system
# The framework has been calculated to contain at least 10.0% void space
# The void calculation uses a probe of radius 1.32A, grid spacing 0.4
#
###############################################################################

data_QEWYID
_chemical_formula_moiety         '(C80 H48 N160 O24 Zn28)n'
_symmetry_cell_setting           triclinic
_symmetry_space_group_name_H-M   'P 1'
_symmetry_Int_Tables_number      1
_space_group_name_Hall           'P 1'
loop_
_symmetry_equiv_pos_site_id
_symmetry_equiv_pos_as_xyz
1 x,y,z
_cell_length_a                   14.3715(11)
_cell_length_b                   14.3715(11)
_cell_length_c                   19.721(2)
_cell_angle_alpha                90
_cell_angle_beta                 90
_cell_angle_gamma                90
_cell_volume                     4073.18
loop_
_atom_site_label
_atom_site_type_symbol
_atom_site_fract_x
_atom_site_fract_y
_atom_site_fract_z
C1 C 0.3170(3) 0.2897(3) 0.4038(2)
H1 H 0.3397 0.2484 0.4361
C2 C 0.2960(3) 0.3598(2) 0.3089(2)
C3 C 0.2389(3) 0.3989(3) 0.3563(2)
C4 C 0.3138(3) 0.3743(2) 0.23759(19)
C5 C 0.1734(2) 0.4757(2) 0.35621(19)
N1 N 0.2531(2) 0.3549(2) 0.41765(17)
N2 N 0.3452(2) 0.2896(2) 0.33910(17)
N3 N 0.3730(3) 0.3195(2) 0.20606(17)
N4 N 0.3734(3) 0.3487(3) 0.14080(19)
N5 N 0.3173(3) 0.4193(3) 0.13386(17)
N6 N 0.2779(2) 0.4375(2) 0.19529(16)
N7 N 0.1474(2) 0.5302(2) 0.30578(15)
N8 N 0.0890(2) 0.5928(2) 0.33487(16)
N9 N 0.0802(2) 0.5755(2) 0.39968(17)
N10 N 0.1328(2) 0.5010(2) 0.41458(15)
O1 O 0.0661(4) 0.3251(4) 0.5000
H2 H 0.054(4) 0.293(4) 0.463(2)
O2 O 0.3009(5) 0.5308(5) 0.5000
H3 H 0.326(5) 0.550(5) 0.537(2)
Zn1 Zn 0.21814(3) 0.55904(3) 0.21569(2)
Zn2 Zn 0.18293(5) 0.41230(5) 0.5000
H4 H 0.054(4) 0.293(4) 0.537(2)
H5 H 0.326(5) 0.550(5) 0.463(2)
N17 N 0.0302(2) 0.6474(2) 0.19422(15)
N18 N 0.0928(2) 0.5890(2) 0.16513(16)
N19 N 0.0755(2) 0.5802(2) 0.10032(17)
N20 N 0.0010(2) 0.6328(2) 0.08542(15)
Zn3 Zn 0.05904(3) 0.71814(3) 0.28431(2)
N21 N 0.2531(2) 0.3549(2) 0.58235(17)
N22 N 0.2896(2) 0.6548(2) 0.16090(17)
N23 N 0.1548(2) 0.7896(2) 0.33910(17)
N24 N 0.3195(2) 0.6270(3) 0.29394(17)
N25 N 0.1270(3) 0.8195(2) 0.20606(17)
N26 N 0.1328(2) 0.5010(2) 0.58542(15)
Zn4 Zn 0.44096(3) 0.21814(3) 0.28431(2)
C6 C 0.7897(3) 0.8170(3) 0.0962(2)
H6 H 0.7484 0.8397 0.0639
C7 C 0.8598(2) 0.7960(3) 0.1911(2)
C8 C 0.8989(3) 0.7389(3) 0.1437(2)
C9 C 0.8743(2) 0.8138(3) 0.26241(19)
C10 C 0.9757(2) 0.6734(2) 0.14379(19)
N11 N 0.8549(2) 0.7531(2) 0.08235(17)
N12 N 0.7896(2) 0.8452(2) 0.16090(17)
N13 N 0.8195(2) 0.8730(3) 0.29394(17)
N14 N 0.8487(3) 0.8734(3) 0.35920(19)
N15 N 0.9193(3) 0.8173(3) 0.36614(17)
N16 N 0.9375(2) 0.7779(2) 0.30471(16)
Zn5 Zn 0.71814(3) 0.94096(3) 0.21569(2)
Zn6 Zn 0.91230(5) 0.68293(5) 0.0000
Zn6_2 Zn 0.91230(5) 0.68293(5) 1.0000
C6_2 C 0.2103(3) 0.1830(3) 0.0962(2)
H6_2 H 0.2516 0.1603 0.0639
C7_2 C 0.1402(2) 0.2040(3) 0.1911(2)
C8_2 C 0.1011(3) 0.2611(3) 0.1437(2)
C9_2 C 0.1257(2) 0.1862(3) 0.26241(19)
C10_2 C 0.0243(2) 0.3266(2) 0.14379(19)
N11_2 N 0.1451(2) 0.2469(2) 0.08235(17)
N12_2 N 0.2104(2) 0.1548(2) 0.16090(17)
N13_2 N 0.1805(2) 0.1270(3) 0.29394(17)
N14_2 N 0.1513(3) 0.1266(3) 0.35920(19)
N15_2 N 0.0807(3) 0.1827(3) 0.36614(17)
N16_2 N 0.0625(2) 0.2221(2) 0.30471(16)
Zn5_2 Zn 0.28186(3) 0.05904(3) 0.21569(2)
Zn6_3 Zn 0.08770(5) 0.31707(5) 0.0000
Zn6_4 Zn 0.08770(5) 0.31707(5) 1.0000
C1_2 C 0.6830(3) 0.7103(3) 0.4038(2)
H1_2 H 0.6603 0.7516 0.4361
C2_2 C 0.7040(3) 0.6402(2) 0.3089(2)
C3_2 C 0.7611(3) 0.6011(3) 0.3563(2)
C4_2 C 0.6862(3) 0.6257(2) 0.23759(19)
C5_2 C 0.8266(2) 0.5243(2) 0.35621(19)
N1_2 N 0.7469(2) 0.6451(2) 0.41765(17)
N2_2 N 0.6548(2) 0.7104(2) 0.33910(17)
N3_2 N 0.6270(3) 0.6805(2) 0.20606(17)
N4_2 N 0.6266(3) 0.6513(3) 0.14080(19)
N5_2 N 0.6827(3) 0.5807(3) 0.13386(17)
N6_2 N 0.7221(2) 0.5625(2) 0.19529(16)
N7_2 N 0.8526(2) 0.4698(2) 0.30578(15)
N8_2 N 0.9110(2) 0.4072(2) 0.33487(16)
N9_2 N 0.9198(2) 0.4245(2) 0.39968(17)
N10_2 N 0.8672(2) 0.4990(2) 0.41458(15)
O1_2 O 0.9339(4) 0.6749(4) 0.5000
H2_2 H 0.946(4) 0.707(4) 0.463(2)
O2_2 O 0.6991(5) 0.4692(5) 0.5000
H3_2 H 0.674(5) 0.450(5) 0.537(2)
Zn1_2 Zn 0.78186(3) 0.44096(3) 0.21569(2)
Zn2_2 Zn 0.81707(5) 0.58770(5) 0.5000
H4_2 H 0.946(4) 0.707(4) 0.537(2)
H5_2 H 0.674(5) 0.450(5) 0.463(2)
N17_2 N 0.9698(2) 0.3526(2) 0.19422(15)
N18_2 N 0.9072(2) 0.4110(2) 0.16513(16)
N19_2 N 0.9245(2) 0.4198(2) 0.10032(17)
N20_2 N 0.9990(2) 0.3672(2) 0.08542(15)
Zn3_2 Zn 0.94096(3) 0.28186(3) 0.28431(2)
N21_2 N 0.7469(2) 0.6451(2) 0.58235(17)
N22_2 N 0.7104(2) 0.3452(2) 0.16090(17)
N23_2 N 0.8452(2) 0.2104(2) 0.33910(17)
N24_2 N 0.6805(2) 0.3730(3) 0.29394(17)
N25_2 N 0.8730(3) 0.1805(2) 0.20606(17)
N26_2 N 0.8672(2) 0.4990(2) 0.58542(15)
Zn4_2 Zn 0.55904(3) 0.78186(3) 0.28431(2)
O1_3 O 0.6749(4) 0.0661(4) -0.0000
O2_3 O 0.4692(5) 0.3009(5) -0.0000
H3_3 H 0.450(5) 0.326(5) 0.037(2)
Zn2_3 Zn 0.58770(5) 0.18293(5) -0.0000
H4_3 H 0.707(4) 0.054(4) 0.037(2)
N21_3 N 0.6451(2) 0.2531(2) 0.08235(17)
N26_3 N 0.4990(2) 0.1328(2) 0.08542(15)
C1_3 C 0.7103(3) 0.3170(3) 0.9038(2)
H1_3 H 0.7516 0.3397 0.9361
C2_3 C 0.6402(2) 0.2960(3) 0.8089(2)
C3_3 C 0.6011(3) 0.2389(3) 0.8563(2)
C4_3 C 0.6257(2) 0.3138(3) 0.73759(19)
C5_3 C 0.5243(2) 0.1734(2) 0.85621(19)
N1_3 N 0.6451(2) 0.2531(2) 0.91765(17)
N2_3 N 0.7104(2) 0.3452(2) 0.83910(17)
N3_3 N 0.6805(2) 0.3730(3) 0.70606(17)
N4_3 N 0.6513(3) 0.3734(3) 0.64080(19)
N5_3 N 0.5807(3) 0.3173(3) 0.63386(17)
N6_3 N 0.5625(2) 0.2779(2) 0.69529(16)
N7_3 N 0.4698(2) 0.1474(2) 0.80578(15)
N8_3 N 0.4072(2) 0.0890(2) 0.83487(16)
N9_3 N 0.4245(2) 0.0802(2) 0.89968(17)
N10_3 N 0.4990(2) 0.1328(2) 0.91458(15)
O1_4 O 0.6749(4) 0.0661(4) 1.0000
H2_3 H 0.707(4) 0.054(4) 0.963(2)
O2_4 O 0.4692(5) 0.3009(5) 1.0000
Zn1_3 Zn 0.44096(3) 0.21814(3) 0.71569(2)
Zn2_4 Zn 0.58770(5) 0.18293(5) 1.0000
H5_3 H 0.450(5) 0.326(5) 0.963(2)
N17_3 N 0.3526(2) 0.0302(2) 0.69422(15)
N18_3 N 0.4110(2) 0.0928(2) 0.66513(16)
N19_3 N 0.4198(2) 0.0755(2) 0.60032(17)
N20_3 N 0.3672(2) 0.0010(2) 0.58542(15)
Zn3_3 Zn 0.28186(3) 0.05904(3) 0.78431(2)
N22_3 N 0.3452(2) 0.2896(2) 0.66090(17)
N23_3 N 0.2104(2) 0.1548(2) 0.83910(17)
N24_3 N 0.3730(3) 0.3195(2) 0.79394(17)
N25_3 N 0.1805(2) 0.1270(3) 0.70606(17)
Zn4_3 Zn 0.78186(3) 0.44096(3) 0.78431(2)
C6_3 C 0.1830(3) 0.7897(3) 0.5962(2)
H6_3 H 0.1603 0.7484 0.5639
C7_3 C 0.2040(3) 0.8598(2) 0.6911(2)
C8_3 C 0.2611(3) 0.8989(3) 0.6437(2)
C9_3 C 0.1862(3) 0.8743(2) 0.76241(19)
C10_3 C 0.3266(2) 0.9757(2) 0.64379(19)
N11_3 N 0.2469(2) 0.8549(2) 0.58235(17)
N12_3 N 0.1548(2) 0.7896(2) 0.66090(17)
N13_3 N 0.1270(3) 0.8195(2) 0.79394(17)
N14_3 N 0.1266(3) 0.8487(3) 0.85920(19)
N15_3 N 0.1827(3) 0.9193(3) 0.86614(17)
N16_3 N 0.2221(2) 0.9375(2) 0.80471(16)
Zn5_3 Zn 0.05904(3) 0.71814(3) 0.71569(2)
Zn6_5 Zn 0.31707(5) 0.91230(5) 0.5000
C6_4 C 0.8170(3) 0.2103(3) 0.5962(2)
H6_4 H 0.8397 0.2516 0.5639
C7_4 C 0.7960(3) 0.1402(2) 0.6911(2)
C8_4 C 0.7389(3) 0.1011(3) 0.6437(2)
C9_4 C 0.8138(3) 0.1257(2) 0.76241(19)
C10_4 C 0.6734(2) 0.0243(2) 0.64379(19)
N11_4 N 0.7531(2) 0.1451(2) 0.58235(17)
N12_4 N 0.8452(2) 0.2104(2) 0.66090(17)
N13_4 N 0.8730(3) 0.1805(2) 0.79394(17)
N14_4 N 0.8734(3) 0.1513(3) 0.85920(19)
N15_4 N 0.8173(3) 0.0807(3) 0.86614(17)
N16_4 N 0.7779(2) 0.0625(2) 0.80471(16)
Zn5_4 Zn 0.94096(3) 0.28186(3) 0.71569(2)
Zn6_6 Zn 0.68293(5) 0.08770(5) 0.5000
O1_5 O 0.3251(4) 0.9339(4) -0.0000
O2_5 O 0.5308(5) 0.6991(5) -0.0000
H3_4 H 0.550(5) 0.674(5) 0.037(2)
Zn2_5 Zn 0.41230(5) 0.81707(5) -0.0000
H4_4 H 0.293(4) 0.946(4) 0.037(2)
N21_4 N 0.3549(2) 0.7469(2) 0.08235(17)
N26_4 N 0.5010(2) 0.8672(2) 0.08542(15)
C1_4 C 0.2897(3) 0.6830(3) 0.9038(2)
H1_4 H 0.2484 0.6603 0.9361
C2_4 C 0.3598(2) 0.7040(3) 0.8089(2)
C3_4 C 0.3989(3) 0.7611(3) 0.8563(2)
C4_4 C 0.3743(2) 0.6862(3) 0.73759(19)
C5_4 C 0.4757(2) 0.8266(2) 0.85621(19)
N1_4 N 0.3549(2) 0.7469(2) 0.91765(17)
N2_4 N 0.2896(2) 0.6548(2) 0.83910(17)
N3_4 N 0.3195(2) 0.6270(3) 0.70606(17)
N4_4 N 0.3487(3) 0.6266(3) 0.64080(19)
N5_4 N 0.4193(3) 0.6827(3) 0.63386(17)
N6_4 N 0.4375(2) 0.7221(2) 0.69529(16)
N7_4 N 0.5302(2) 0.8526(2) 0.80578(15)
N8_4 N 0.5928(2) 0.9110(2) 0.83487(16)
N9_4 N 0.5755(2) 0.9198(2) 0.89968(17)
N10_4 N 0.5010(2) 0.8672(2) 0.91458(15)
O1_6 O 0.3251(4) 0.9339(4) 1.0000
H2_4 H 0.293(4) 0.946(4) 0.963(2)
O2_6 O 0.5308(5) 0.6991(5) 1.0000
Zn1_4 Zn 0.55904(3) 0.78186(3) 0.71569(2)
Zn2_6 Zn 0.41230(5) 0.81707(5) 1.0000
H5_4 H 0.550(5) 0.674(5) 0.963(2)
N17_4 N 0.6474(2) 0.9698(2) 0.69422(15)
N18_4 N 0.5890(2) 0.9072(2) 0.66513(16)
N19_4 N 0.5802(2) 0.9245(2) 0.60032(17)
N20_4 N 0.6328(2) 0.9990(2) 0.58542(15)
Zn3_4 Zn 0.71814(3) 0.94096(3) 0.78431(2)
N22_4 N 0.6548(2) 0.7104(2) 0.66090(17)
N23_4 N 0.7896(2) 0.8452(2) 0.83910(17)
N24_4 N 0.6270(3) 0.6805(2) 0.79394(17)
N25_4 N 0.8195(2) 0.8730(3) 0.70606(17)
Zn4_4 Zn 0.21814(3) 0.55904(3) 0.78431(2)
O2_7 O 0.1991(5) 0.0308(5) 0.5000
H3_5 H 0.174(5) 0.050(5) 0.463(2)
H5_5 H 0.174(5) 0.050(5) 0.537(2)
N26_5 N 0.3672(2) 0.0010(2) 0.41458(15)
O1_7 O 0.4339(4) 0.8251(4) 0.5000
H2_5 H 0.446(4) 0.793(4) 0.537(2)
H4_5 H 0.446(4) 0.793(4) 0.463(2)
N21_5 N 0.2469(2) 0.8549(2) 0.41765(17)
O1_8 O 0.5661(4) 0.1749(4) 0.5000
H2_6 H 0.554(4) 0.207(4) 0.537(2)
H4_6 H 0.554(4) 0.207(4) 0.463(2)
N21_6 N 0.7531(2) 0.1451(2) 0.41765(17)
O2_8 O 0.8009(5) 0.9692(5) 0.5000
H3_6 H 0.826(5) 0.950(5) 0.463(2)
H5_6 H 0.826(5) 0.950(5) 0.537(2)
N26_6 N 0.6328(2) 0.9990(2) 0.41458(15)
O2_9 O 0.0308(5) 0.8009(5) 0.0000
H5_7 H 0.050(5) 0.826(5) 0.037(2)
O2_10 O 0.0308(5) 0.8009(5) 1.0000
H3_7 H 0.050(5) 0.826(5) 0.963(2)
N26_7 N 0.0010(2) 0.6328(2) 0.91458(15)
O1_9 O 0.8251(4) 0.5661(4) 0.0000
H2_7 H 0.793(4) 0.554(4) 0.037(2)
O1_10 O 0.8251(4) 0.5661(4) 1.0000
H4_7 H 0.793(4) 0.554(4) 0.963(2)
N21_7 N 0.8549(2) 0.7531(2) 0.91765(17)
O1_11 O 0.1749(4) 0.4339(4) 0.0000
H2_8 H 0.207(4) 0.446(4) 0.037(2)
O1_12 O 0.1749(4) 0.4339(4) 1.0000
H4_8 H 0.207(4) 0.446(4) 0.963(2)
N21_8 N 0.1451(2) 0.2469(2) 0.91765(17)
O2_11 O 0.9692(5) 0.1991(5) 0.0000
H5_8 H 0.950(5) 0.174(5) 0.037(2)
O2_12 O 0.9692(5) 0.1991(5) 1.0000
H3_8 H 0.950(5) 0.174(5) 0.963(2)
N26_8 N 0.9990(2) 0.3672(2) 0.91458(15)
C6_5 C 0.2103(3) 0.1830(3) 0.9038(2)
H6_5 H 0.2516 0.1603 0.9361
C7_5 C 0.1402(2) 0.2040(3) 0.8089(2)
C8_5 C 0.1011(3) 0.2611(3) 0.8563(2)
C9_5 C 0.1257(2) 0.1862(3) 0.73759(19)
C10_5 C 0.0243(2) 0.3266(2) 0.85621(19)
N14_5 N 0.1513(3) 0.1266(3) 0.64080(19)
N15_5 N 0.0807(3) 0.1827(3) 0.63386(17)
N16_5 N 0.0625(2) 0.2221(2) 0.69529(16)
C1_5 C 0.6830(3) 0.7103(3) 0.5962(2)
H1_5 H 0.6603 0.7516 0.5639
C2_5 C 0.7040(3) 0.6402(2) 0.6911(2)
C3_5 C 0.7611(3) 0.6011(3) 0.6437(2)
C4_5 C 0.6862(3) 0.6257(2) 0.76241(19)
C5_5 C 0.8266(2) 0.5243(2) 0.64379(19)
N4_5 N 0.6266(3) 0.6513(3) 0.85920(19)
N5_5 N 0.6827(3) 0.5807(3) 0.86614(17)
N6_5 N 0.7221(2) 0.5625(2) 0.80471(16)
N7_5 N 0.8526(2) 0.4698(2) 0.69422(15)
N8_5 N 0.9110(2) 0.4072(2) 0.66513(16)
N9_5 N 0.9198(2) 0.4245(2) 0.60032(17)
N17_5 N 0.9698(2) 0.3526(2) 0.80578(15)
N18_5 N 0.9072(2) 0.4110(2) 0.83487(16)
N19_5 N 0.9245(2) 0.4198(2) 0.89968(17)
C1_6 C 0.3170(3) 0.2897(3) 0.5962(2)
H1_6 H 0.3397 0.2484 0.5639
C2_6 C 0.2960(3) 0.3598(2) 0.6911(2)
C3_6 C 0.2389(3) 0.3989(3) 0.6437(2)
C4_6 C 0.3138(3) 0.3743(2) 0.76241(19)
C5_6 C 0.1734(2) 0.4757(2) 0.64379(19)
N4_6 N 0.3734(3) 0.3487(3) 0.85920(19)
N5_6 N 0.3173(3) 0.4193(3) 0.86614(17)
N6_6 N 0.2779(2) 0.4375(2) 0.80471(16)
N7_6 N 0.1474(2) 0.5302(2) 0.69422(15)
N8_6 N 0.0890(2) 0.5928(2) 0.66513(16)
N9_6 N 0.0802(2) 0.5755(2) 0.60032(17)
N17_6 N 0.0302(2) 0.6474(2) 0.80578(15)
N18_6 N 0.0928(2) 0.5890(2) 0.83487(16)
N19_6 N 0.0755(2) 0.5802(2) 0.89968(17)
C6_6 C 0.7897(3) 0.8170(3) 0.9038(2)
H6_6 H 0.7484 0.8397 0.9361
C7_6 C 0.8598(2) 0.7960(3) 0.8089(2)
C8_6 C 0.8989(3) 0.7389(3) 0.8563(2)
C9_6 C 0.8743(2) 0.8138(3) 0.73759(19)
C10_6 C 0.9757(2) 0.6734(2) 0.85621(19)
N14_6 N 0.8487(3) 0.8734(3) 0.64080(19)
N15_6 N 0.9193(3) 0.8173(3) 0.63386(17)
N16_6 N 0.9375(2) 0.7779(2) 0.69529(16)
C6_7 C 0.8170(3) 0.2103(3) 0.4038(2)
H6_7 H 0.8397 0.2516 0.4361
C7_7 C 0.7960(3) 0.1402(2) 0.3089(2)
C8_7 C 0.7389(3) 0.1011(3) 0.3563(2)
C9_7 C 0.8138(3) 0.1257(2) 0.23759(19)
C10_7 C 0.6734(2) 0.0243(2) 0.35621(19)
N14_7 N 0.8734(3) 0.1513(3) 0.14080(19)
N15_7 N 0.8173(3) 0.0807(3) 0.13386(17)
N16_7 N 0.7779(2) 0.0625(2) 0.19529(16)
C1_7 C 0.2897(3) 0.6830(3) 0.0962(2)
H1_7 H 0.2484 0.6603 0.0639
C2_7 C 0.3598(2) 0.7040(3) 0.1911(2)
C3_7 C 0.3989(3) 0.7611(3) 0.1437(2)
C4_7 C 0.3743(2) 0.6862(3) 0.26241(19)
C5_7 C 0.4757(2) 0.8266(2) 0.14379(19)
N4_7 N 0.3487(3) 0.6266(3) 0.35920(19)
N5_7 N 0.4193(3) 0.6827(3) 0.36614(17)
N6_7 N 0.4375(2) 0.7221(2) 0.30471(16)
N7_7 N 0.5302(2) 0.8526(2) 0.19422(15)
N8_7 N 0.5928(2) 0.9110(2) 0.16513(16)
N9_7 N 0.5755(2) 0.9198(2) 0.10032(17)
N17_7 N 0.6474(2) 0.9698(2) 0.30578(15)
N18_7 N 0.5890(2) 0.9072(2) 0.33487(16)
N19_7 N 0.5802(2) 0.9245(2) 0.39968(17)
C1_8 C 0.7103(3) 0.3170(3) 0.0962(2)
H1_8 H 0.7516 0.3397 0.0639
C2_8 C 0.6402(2) 0.2960(3) 0.1911(2)
C3_8 C 0.6011(3) 0.2389(3) 0.1437(2)
C4_8 C 0.6257(2) 0.3138(3) 0.26241(19)
C5_8 C 0.5243(2) 0.1734(2) 0.14379(19)
N4_8 N 0.6513(3) 0.3734(3) 0.35920(19)
N5_8 N 0.5807(3) 0.3173(3) 0.36614(17)
N6_8 N 0.5625(2) 0.2779(2) 0.30471(16)
N7_8 N 0.4698(2) 0.1474(2) 0.19422(15)
N8_8 N 0.4072(2) 0.0890(2) 0.16513(16)
N9_8 N 0.4245(2) 0.0802(2) 0.10032(17)
N17_8 N 0.3526(2) 0.0302(2) 0.30578(15)
N18_8 N 0.4110(2) 0.0928(2) 0.33487(16)
N19_8 N 0.4198(2) 0.0755(2) 0.39968(17)
C6_8 C 0.1830(3) 0.7897(3) 0.4038(2)
H6_8 H 0.1603 0.7484 0.4361
C7_8 C 0.2040(3) 0.8598(2) 0.3089(2)
C8_8 C 0.2611(3) 0.8989(3) 0.3563(2)
C9_8 C 0.1862(3) 0.8743(2) 0.23759(19)
C10_8 C 0.3266(2) 0.9757(2) 0.35621(19)
N14_8 N 0.1266(3) 0.8487(3) 0.14080(19)
N15_8 N 0.1827(3) 0.9193(3) 0.13386(17)
N16_8 N 0.2221(2) 0.9375(2) 0.19529(16)
loop_
_geom_bond_atom_site_label_1
_geom_bond_atom_site_label_2
_geom_bond_site_symmetry_1
_geom_bond_site_symmetry_2
C1 H1 1_555 1_555
C2 C3 1_555 1_555
C3 C5 1_555 1_555
C4 C2 1_555 1_555
C5 N7 1_555 1_555
N1 C1 1_555 1_555
N2 C1 1_555 1_555
N3 C4 1_555 1_555
N4 N3 1_555 1_555
N5 N4 1_555 1_555
N6 C4 1_555 1_555
N7 N8 1_555 1_555
N8 N9 1_555 1_555
N9 N10 1_555 1_555
N10 C5 1_555 1_555
O1 H2 1_555 1_555
O2 H3 1_555 1_555
Zn1 N6 1_555 1_555
Zn2 N1 1_555 1_555
H4 O1 1_555 1_555
H5 O2 1_555 1_555
N17 N18 1_555 1_555
N18 Zn1 1_555 1_555
N19 N18 1_555 1_555
Zn3 N8 1_555 1_555
N21 Zn2 1_555 1_555
N22 Zn1 1_555 1_555
N23 Zn3 1_555 1_555
N24 Zn1 1_555 1_555
N25 Zn3 1_555 1_555
N26 Zn2 1_555 1_555
Zn4 N2 1_555 1_555
C2 N2 1_555 1_555
C3 N1 1_555 1_555
N3 Zn4 1_555 1_555
N5 N6 1_555 1_555
N7 Zn1 1_555 1_555
N10 Zn2 1_555 1_555
O1 Zn2 1_555 1_555
O2 Zn2 1_555 1_555
N17 Zn3 1_555 1_555
N19 N20 1_555 1_555
C6 H6 1_555 1_555
C7 C8 1_555 1_555
C8 C10 1_555 1_555
C9 C7 1_555 1_555
N11 C6 1_555 1_555
N12 C6 1_555 1_555
N13 C9 1_555 1_555
N14 N13 1_555 1_555
N15 N14 1_555 1_555
N16 C9 1_555 1_555
Zn5 N12 1_555 1_555
Zn6 N11 1_555 1_555
C7 N12 1_555 1_555
C8 N11 1_555 1_555
N13 Zn5 1_555 1_555
N15 N16 1_555 1_555
C6_2 H6_2 1_555 1_555
C7_2 C8_2 1_555 1_555
C8_2 C10_2 1_555 1_555
C9_2 C7_2 1_555 1_555
N11_2 C6_2 1_555 1_555
N12_2 C6_2 1_555 1_555
N13_2 C9_2 1_555 1_555
N14_2 N13_2 1_555 1_555
N15_2 N14_2 1_555 1_555
N16_2 C9_2 1_555 1_555
Zn5_2 N12_2 1_555 1_555
Zn6_3 N11_2 1_555 1_555
C7_2 N12_2 1_555 1_555
C8_2 N11_2 1_555 1_555
N13_2 Zn5_2 1_555 1_555
N15_2 N16_2 1_555 1_555
C1_2 H1_2 1_555 1_555
C2_2 C3_2 1_555 1_555
C3_2 C5_2 1_555 1_555
C4_2 C2_2 1_555 1_555
C5_2 N7_2 1_555 1_555
N1_2 C1_2 1_555 1_555
N2_2 C1_2 1_555 1_555
N3_2 C4_2 1_555 1_555
N4_2 N3_2 1_555 1_555
N5_2 N4_2 1_555 1_555
N6_2 C4_2 1_555 1_555
N7_2 N8_2 1_555 1_555
N8_2 N9_2 1_555 1_555
N9_2 N10_2 1_555 1_555
N10_2 C5_2 1_555 1_555
O1_2 H2_2 1_555 1_555
O2_2 H3_2 1_555 1_555
Zn1_2 N6_2 1_555 1_555
Zn2_2 N1_2 1_555 1_555
H4_2 O1_2 1_555 1_555
H5_2 O2_2 1_555 1_555
N17_2 N18_2 1_555 1_555
N18_2 Zn1_2 1_555 1_555
N19_2 N18_2 1_555 1_555
Zn3_2 N8_2 1_555 1_555
N21_2 Zn2_2 1_555 1_555
N22_2 Zn1_2 1_555 1_555
N23_2 Zn3_2 1_555 1_555
N24_2 Zn1_2 1_555 1_555
N25_2 Zn3_2 1_555 1_555
N26_2 Zn2_2 1_555 1_555
Zn4_2 N2_2 1_555 1_555
C2_2 N2_2 1_555 1_555
C3_2 N1_2 1_555 1_555
N3_2 Zn4_2 1_555 1_555
N5_2 N6_2 1_555 1_555
N7_2 Zn1_2 1_555 1_555
N10_2 Zn2_2 1_555 1_555
O1_2 Zn2_2 1_555 1_555
O2_2 Zn2_2 1_555 1_555
N17_2 Zn3_2 1_555 1_555
N19_2 N20_2 1_555 1_555
O2_3 H3_3 1_555 1_555
H4_3 O1_3 1_555 1_555
N21_3 Zn2_3 1_555 1_555
N26_3 Zn2_3 1_555 1_555
O1_3 Zn2_3 1_555 1_555
O2_3 Zn2_3 1_555 1_555
C1_3 H1_3 1_555 1_555
C2_3 C3_3 1_555 1_555
C3_3 C5_3 1_555 1_555
C4_3 C2_3 1_555 1_555
C5_3 N7_3 1_555 1_555
N1_3 C1_3 1_555 1_555
N2_3 C1_3 1_555 1_555
N3_3 C4_3 1_555 1_555
N4_3 N3_3 1_555 1_555
N5_3 N4_3 1_555 1_555
N6_3 C4_3 1_555 1_555
N7_3 N8_3 1_555 1_555
N8_3 N9_3 1_555 1_555
N9_3 N10_3 1_555 1_555
N10_3 C5_3 1_555 1_555
O1_4 H2_3 1_555 1_555
Zn1_3 N6_3 1_555 1_555
Zn2_4 N1_3 1_555 1_555
H5_3 O2_4 1_555 1_555
N17_3 N18_3 1_555 1_555
N18_3 Zn1_3 1_555 1_555
N19_3 N18_3 1_555 1_555
Zn3_3 N8_3 1_555 1_555
N22_3 Zn1_3 1_555 1_555
N23_3 Zn3_3 1_555 1_555
N24_3 Zn1_3 1_555 1_555
N25_3 Zn3_3 1_555 1_555
Zn4_3 N2_3 1_555 1_555
C2_3 N2_3 1_555 1_555
C3_3 N1_3 1_555 1_555
N3_3 Zn4_3 1_555 1_555
N5_3 N6_3 1_555 1_555
N7_3 Zn1_3 1_555 1_555
N10_3 Zn2_4 1_555 1_555
O1_4 Zn2_4 1_555 1_555
O2_4 Zn2_4 1_555 1_555
N17_3 Zn3_3 1_555 1_555
N19_3 N20_3 1_555 1_555
C6_3 H6_3 1_555 1_555
C7_3 C8_3 1_555 1_555
C8_3 C10_3 1_555 1_555
C9_3 C7_3 1_555 1_555
N11_3 C6_3 1_555 1_555
N12_3 C6_3 1_555 1_555
N13_3 C9_3 1_555 1_555
N14_3 N13_3 1_555 1_555
N15_3 N14_3 1_555 1_555
N16_3 C9_3 1_555 1_555
Zn5_3 N12_3 1_555 1_555
Zn6_5 N11_3 1_555 1_555
C7_3 N12_3 1_555 1_555
C8_3 N11_3 1_555 1_555
N13_3 Zn5_3 1_555 1_555
N15_3 N16_3 1_555 1_555
C6_4 H6_4 1_555 1_555
C7_4 C8_4 1_555 1_555
C8_4 C10_4 1_555 1_555
C9_4 C7_4 1_555 1_555
N11_4 C6_4 1_555 1_555
N12_4 C6_4 1_555 1_555
N13_4 C9_4 1_555 1_555
N14_4 N13_4 1_555 1_555
N15_4 N14_4 1_555 1_555
N16_4 C9_4 1_555 1_555
Zn5_4 N12_4 1_555 1_555
Zn6_6 N11_4 1_555 1_555
C7_4 N12_4 1_555 1_555
C8_4 N11_4 1_555 1_555
N13_4 Zn5_4 1_555 1_555
N15_4 N16_4 1_555 1_555
O2_5 H3_4 1_555 1_555
H4_4 O1_5 1_555 1_555
N21_4 Zn2_5 1_555 1_555
N26_4 Zn2_5 1_555 1_555
O1_5 Zn2_5 1_555 1_555
O2_5 Zn2_5 1_555 1_555
C1_4 H1_4 1_555 1_555
C2_4 C3_4 1_555 1_555
C3_4 C5_4 1_555 1_555
C4_4 C2_4 1_555 1_555
C5_4 N7_4 1_555 1_555
N1_4 C1_4 1_555 1_555
N2_4 C1_4 1_555 1_555
N3_4 C4_4 1_555 1_555
N4_4 N3_4 1_555 1_555
N5_4 N4_4 1_555 1_555
N6_4 C4_4 1_555 1_555
N7_4 N8_4 1_555 1_555
N8_4 N9_4 1_555 1_555
N9_4 N10_4 1_555 1_555
N10_4 C5_4 1_555 1_555
O1_6 H2_4 1_555 1_555
Zn1_4 N6_4 1_555 1_555
Zn2_6 N1_4 1_555 1_555
H5_4 O2_6 1_555 1_555
N17_4 N18_4 1_555 1_555
N18_4 Zn1_4 1_555 1_555
N19_4 N18_4 1_555 1_555
Zn3_4 N8_4 1_555 1_555
N22_4 Zn1_4 1_555 1_555
N23_4 Zn3_4 1_555 1_555
N24_4 Zn1_4 1_555 1_555
N25_4 Zn3_4 1_555 1_555
Zn4_4 N2_4 1_555 1_555
C2_4 N2_4 1_555 1_555
C3_4 N1_4 1_555 1_555
N3_4 Zn4_4 1_555 1_555
N5_4 N6_4 1_555 1_555
N7_4 Zn1_4 1_555 1_555
N10_4 Zn2_6 1_555 1_555
O1_6 Zn2_6 1_555 1_555
O2_6 Zn2_6 1_555 1_555
N17_4 Zn3_4 1_555 1_555
N19_4 N20_4 1_555 1_555
O2_7 H3_5 1_555 1_555
H5_5 O2_7 1_555 1_555
O1_7 H2_5 1_555 1_555
H4_5 O1_7 1_555 1_555
N21_5 Zn6_5 1_555 1_555
O1_7 Zn6_5 1_555 1_555
O1_8 H2_6 1_555 1_555
H4_6 O1_8 1_555 1_555
N21_6 Zn6_6 1_555 1_555
O1_8 Zn6_6 1_555 1_555
O2_8 H3_6 1_555 1_555
H5_6 O2_8 1_555 1_555
H5_7 O2_9 1_555 1_555
O2_10 H3_7 1_555 1_555
O1_9 H2_7 1_555 1_555
O1_9 Zn6 1_555 1_555
H4_7 O1_10 1_555 1_555
N21_7 Zn6_2 1_555 1_555
O1_10 Zn6_2 1_555 1_555
O1_11 H2_8 1_555 1_555
O1_11 Zn6_3 1_555 1_555
H4_8 O1_12 1_555 1_555
N21_8 Zn6_4 1_555 1_555
O1_12 Zn6_4 1_555 1_555
H5_8 O2_11 1_555 1_555
O2_12 H3_8 1_555 1_555
C6_5 H6_5 1_555 1_555
C7_5 C8_5 1_555 1_555
C8_5 C10_5 1_555 1_555
C9_5 C7_5 1_555 1_555
N21_8 C6_5 1_555 1_555
N23_3 C6_5 1_555 1_555
N25_3 C9_5 1_555 1_555
N14_5 N25_3 1_555 1_555
N15_5 N14_5 1_555 1_555
N16_5 C9_5 1_555 1_555
C7_5 N23_3 1_555 1_555
C8_5 N21_8 1_555 1_555
N15_5 N16_5 1_555 1_555
C1_5 H1_5 1_555 1_555
C2_5 C3_5 1_555 1_555
C3_5 C5_5 1_555 1_555
C4_5 C2_5 1_555 1_555
C5_5 N7_5 1_555 1_555
N21_2 C1_5 1_555 1_555
N22_4 C1_5 1_555 1_555
N24_4 C4_5 1_555 1_555
N4_5 N24_4 1_555 1_555
N5_5 N4_5 1_555 1_555
N6_5 C4_5 1_555 1_555
N7_5 N8_5 1_555 1_555
N8_5 N9_5 1_555 1_555
N9_5 N26_2 1_555 1_555
N26_2 C5_5 1_555 1_555
Zn4_3 N6_5 1_555 1_555
N17_5 N18_5 1_555 1_555
N18_5 Zn4_3 1_555 1_555
N19_5 N18_5 1_555 1_555
Zn5_4 N8_5 1_555 1_555
C2_5 N22_4 1_555 1_555
C3_5 N21_2 1_555 1_555
N5_5 N6_5 1_555 1_555
N7_5 Zn4_3 1_555 1_555
N17_5 Zn5_4 1_555 1_555
N19_5 N26_8 1_555 1_555
C1_6 H1_6 1_555 1_555
C2_6 C3_6 1_555 1_555
C3_6 C5_6 1_555 1_555
C4_6 C2_6 1_555 1_555
C5_6 N7_6 1_555 1_555
N21 C1_6 1_555 1_555
N22_3 C1_6 1_555 1_555
N24_3 C4_6 1_555 1_555
N4_6 N24_3 1_555 1_555
N5_6 N4_6 1_555 1_555
N6_6 C4_6 1_555 1_555
N7_6 N8_6 1_555 1_555
N8_6 N9_6 1_555 1_555
N9_6 N26 1_555 1_555
N26 C5_6 1_555 1_555
Zn4_4 N6_6 1_555 1_555
N17_6 N18_6 1_555 1_555
N18_6 Zn4_4 1_555 1_555
N19_6 N18_6 1_555 1_555
Zn5_3 N8_6 1_555 1_555
C2_6 N22_3 1_555 1_555
C3_6 N21 1_555 1_555
N5_6 N6_6 1_555 1_555
N7_6 Zn4_4 1_555 1_555
N17_6 Zn5_3 1_555 1_555
N19_6 N26_7 1_555 1_555
C6_6 H6_6 1_555 1_555
C7_6 C8_6 1_555 1_555
C8_6 C10_6 1_555 1_555
C9_6 C7_6 1_555 1_555
N21_7 C6_6 1_555 1_555
N23_4 C6_6 1_555 1_555
N25_4 C9_6 1_555 1_555
N14_6 N25_4 1_555 1_555
N15_6 N14_6 1_555 1_555
N16_6 C9_6 1_555 1_555
C7_6 N23_4 1_555 1_555
C8_6 N21_7 1_555 1_555
N15_6 N16_6 1_555 1_555
C6_7 H6_7 1_555 1_555
C7_7 C8_7 1_555 1_555
C8_7 C10_7 1_555 1_555
C9_7 C7_7 1_555 1_555
N21_6 C6_7 1_555 1_555
N23_2 C6_7 1_555 1_555
N25_2 C9_7 1_555 1_555
N14_7 N25_2 1_555 1_555
N15_7 N14_7 1_555 1_555
N16_7 C9_7 1_555 1_555
C7_7 N23_2 1_555 1_555
C8_7 N21_6 1_555 1_555
N15_7 N16_7 1_555 1_555
C1_7 H1_7 1_555 1_555
C2_7 C3_7 1_555 1_555
C3_7 C5_7 1_555 1_555
C4_7 C2_7 1_555 1_555
C5_7 N7_7 1_555 1_555
N21_4 C1_7 1_555 1_555
N22 C1_7 1_555 1_555
N24 C4_7 1_555 1_555
N4_7 N24 1_555 1_555
N5_7 N4_7 1_555 1_555
N6_7 C4_7 1_555 1_555
N7_7 N8_7 1_555 1_555
N8_7 N9_7 1_555 1_555
N9_7 N26_4 1_555 1_555
N26_4 C5_7 1_555 1_555
Zn4_2 N6_7 1_555 1_555
N17_7 N18_7 1_555 1_555
N18_7 Zn4_2 1_555 1_555
N19_7 N18_7 1_555 1_555
Zn5 N8_7 1_555 1_555
C2_7 N22 1_555 1_555
C3_7 N21_4 1_555 1_555
N5_7 N6_7 1_555 1_555
N7_7 Zn4_2 1_555 1_555
N17_7 Zn5 1_555 1_555
N19_7 N26_6 1_555 1_555
C1_8 H1_8 1_555 1_555
C2_8 C3_8 1_555 1_555
C3_8 C5_8 1_555 1_555
C4_8 C2_8 1_555 1_555
C5_8 N7_8 1_555 1_555
N21_3 C1_8 1_555 1_555
N22_2 C1_8 1_555 1_555
N24_2 C4_8 1_555 1_555
N4_8 N24_2 1_555 1_555
N5_8 N4_8 1_555 1_555
N6_8 C4_8 1_555 1_555
N7_8 N8_8 1_555 1_555
N8_8 N9_8 1_555 1_555
N9_8 N26_3 1_555 1_555
N26_3 C5_8 1_555 1_555
Zn4 N6_8 1_555 1_555
N17_8 N18_8 1_555 1_555
N18_8 Zn4 1_555 1_555
N19_8 N18_8 1_555 1_555
Zn5_2 N8_8 1_555 1_555
C2_8 N22_2 1_555 1_555
C3_8 N21_3 1_555 1_555
N5_8 N6_8 1_555 1_555
N7_8 Zn4 1_555 1_555
N17_8 Zn5_2 1_555 1_555
N19_8 N26_5 1_555 1_555
C6_8 H6_8 1_555 1_555
C7_8 C8_8 1_555 1_555
C8_8 C10_8 1_555 1_555
C9_8 C7_8 1_555 1_555
N21_5 C6_8 1_555 1_555
N23 C6_8 1_555 1_555
N25 C9_8 1_555 1_555
N14_8 N25 1_555 1_555
N15_8 N14_8 1_555 1_555
N16_8 C9_8 1_555 1_555
C7_8 N23 1_555 1_555
C8_8 N21_5 1_555 1_555
N15_8 N16_8 1_555 1_555

#END
