
###############################################################################
#
# This file contains modified crystal structure data generated from the
# MOF subset of the Cambridge Structural Database (CSD) v543 
# hosted by the Cambridge Crystallographic Data Centre (CCDC).
#
# This work is licensed under the Creative Commons
# Attribution-NonCommercial-ShareAlike 4.0 International License.
# To view a copy of this license, visit
# http://creativecommons.org/licenses/by-nc-sa/4.0/
# or send a letter to
# Creative Commons, PO Box 1866, Mountain View, CA 94042, USA.
#
# CIF created using the CSD Python API on 29 September 2022
# The structure has been converted into the P1 space group
# The structure has a 3D framework
# The original CSD entry QEYWUN is in the orthorhombic crystal system
# The framework has been calculated to contain at least 10.0% void space
# The void calculation uses a probe of radius 1.32A, grid spacing 0.4
#
###############################################################################

data_QEYWUN
_chemical_formula_moiety         '(C48 H40 Cd7 N48 O16)n'
_symmetry_cell_setting           triclinic
_symmetry_space_group_name_H-M   'P 1'
_symmetry_Int_Tables_number      1
_space_group_name_Hall           'P 1'
loop_
_symmetry_equiv_pos_site_id
_symmetry_equiv_pos_as_xyz
1 x,y,z
_cell_length_a                   10.0936(11)
_cell_length_b                   12.5108(13)
_cell_length_c                   15.1721(16)
_cell_angle_alpha                90
_cell_angle_beta                 90
_cell_angle_gamma                90
_cell_volume                     1915.92
loop_
_atom_site_label
_atom_site_type_symbol
_atom_site_fract_x
_atom_site_fract_y
_atom_site_fract_z
Cd1 Cd 0.0000 0.5000 0.0000
O1 O 0.2224(2) 0.44711(17) 0.03088(16)
O2 O 0.2407(2) 0.56712(18) 0.13873(15)
N1 N 0.4589(2) 0.34956(19) 0.07968(17)
N2 N 0.5513(4) 0.3588(2) 0.01464(19)
N3 N 0.4877(2) 0.1882(2) 0.0310(2)
N4 N 0.4115(2) 0.43017(18) 0.21923(16)
N5 N 0.3126(3) 0.3712(2) 0.25654(17)
N6 N 0.4392(3) 0.4490(2) 0.35944(17)
C2 C 0.4237(3) 0.2489(2) 0.0884(2)
H2 H 0.3625 0.2238 0.1293
C3 C 0.4152(3) 0.4465(2) 0.12448(19)
H3 H 0.4813 0.5020 0.1126
C4 C 0.2790(3) 0.4904(2) 0.0945(2)
C5 C 0.4839(3) 0.4760(3) 0.2811(3)
H4 H 0.5558 0.5208 0.2708
C6 C 0.3350(3) 0.3839(3) 0.3406(2)
H5 H 0.2841 0.3511 0.3840
Cd2 Cd 0.5000 0.0000 0.0000
Cd3 Cd 0.5000 0.5000 0.5000
N10 N 0.0123(2) 0.6882(2) 0.0310(2)
Cd1_2 Cd -0.0000 0.5000 1.0000
C1 C 0.5641(4) 0.2601(3) 0.9876(2)
H1 H 0.6211 0.2407 0.9421
Cd2_2 Cd 0.5000 0.0000 1.0000
N16 N 0.0608(3) 0.5510(2) 0.85944(17)
Cd2_3 Cd 0.5000 1.0000 0.0000
Cd2_4 Cd 0.5000 1.0000 1.0000
Cd1_3 Cd 1.0000 0.5000 0.0000
N15 N 0.9392(3) 0.4490(2) 0.14056(17)
C7 C 0.4359(4) 0.7399(3) 0.0124(2)
H6 H 0.3789 0.7593 0.0579
Cd1_4 Cd 1.0000 0.5000 1.0000
O3 O 0.7776(2) 0.55289(17) 0.96912(16)
O4 O 0.7593(2) 0.43288(18) 0.86127(15)
N7 N 0.5411(2) 0.65044(19) 0.92032(17)
N8 N 0.4487(4) 0.6412(2) 0.98536(19)
N9 N 0.5123(2) 0.8118(2) 0.9690(2)
N11 N 0.9877(2) 0.3118(2) 0.9690(2)
N12 N 0.5885(2) 0.56983(18) 0.78077(16)
N13 N 0.6874(3) 0.6288(2) 0.74346(17)
N14 N 0.5608(3) 0.5510(2) 0.64056(17)
C8 C 0.5763(3) 0.7511(2) 0.9116(2)
H7 H 0.6375 0.7762 0.8707
C9 C 0.5848(3) 0.5535(2) 0.87552(19)
H8 H 0.5187 0.4980 0.8874
C10 C 0.7210(3) 0.5096(2) 0.9055(2)
C11 C 0.5161(3) 0.5240(3) 0.7189(3)
H9 H 0.4442 0.4792 0.7292
C12 C 0.6650(3) 0.6161(3) 0.6594(2)
H10 H 0.7159 0.6489 0.6160
Cd4 Cd 0.0000 0.0000 0.5000
N8_2 N 0.0513(4) 0.3588(2) 0.48536(19)
C7_2 C 0.0641(4) 0.2601(3) 0.5124(2)
H6_2 H 0.1211 0.2407 0.5579
H9_2 H 0.0558 0.5208 0.2292
Cd4_2 Cd 0.0000 1.0000 0.5000
O1_2 O 0.2776(2) 0.55289(17) 0.53088(16)
O2_2 O 0.2593(2) 0.43288(18) 0.63873(15)
N1_2 N 0.0411(2) 0.65044(19) 0.57968(17)
N3_2 N 0.0123(2) 0.8118(2) 0.5310(2)
N4_2 N 0.0885(2) 0.56983(18) 0.71923(16)
N5_2 N 0.1874(3) 0.6288(2) 0.75654(17)
C2_2 C 0.0763(3) 0.7511(2) 0.5884(2)
H2_2 H 0.1375 0.7762 0.6293
C3_2 C 0.0848(3) 0.5535(2) 0.62448(19)
H3_2 H 0.0187 0.4980 0.6126
C4_2 C 0.2210(3) 0.5096(2) 0.5945(2)
C5_2 C 0.0161(3) 0.5240(3) 0.7811(3)
C6_2 C 0.1650(3) 0.6161(3) 0.8406(2)
H5_2 H 0.2159 0.6489 0.8840
Cd4_3 Cd 1.0000 0.0000 0.5000
O3_2 O 0.7224(2) 0.44711(17) 0.46912(16)
O4_2 O 0.7407(2) 0.56712(18) 0.36127(15)
N7_2 N 0.9589(2) 0.34956(19) 0.42032(17)
N9_2 N 0.9877(2) 0.1882(2) 0.4690(2)
N10_2 N 0.4877(2) 0.3118(2) 0.5310(2)
N11_2 N 0.5123(2) 0.6882(2) 0.4690(2)
N12_2 N 0.9115(2) 0.43017(18) 0.28077(16)
N13_2 N 0.8126(3) 0.3712(2) 0.24346(17)
C8_2 C 0.9237(3) 0.2489(2) 0.4116(2)
H7_2 H 0.8625 0.2238 0.3707
C9_2 C 0.9152(3) 0.4465(2) 0.37552(19)
H8_2 H 0.9813 0.5020 0.3874
C10_2 C 0.7790(3) 0.4904(2) 0.4055(2)
C11_2 C 0.9839(3) 0.4760(3) 0.2189(3)
C12_2 C 0.8350(3) 0.3839(3) 0.1594(2)
H10_2 H 0.7841 0.3511 0.1160
Cd4_4 Cd 1.0000 1.0000 0.5000
N2_2 N 0.9487(4) 0.6412(2) 0.51464(19)
C1_2 C 0.9359(4) 0.7399(3) 0.4876(2)
H1_2 H 0.8789 0.7593 0.4421
H4_2 H 0.9442 0.4792 0.7708
O3_3 O 0.2224(2) 0.05289(17) 0.53088(16)
N7_3 N 0.4589(2) 0.15044(19) 0.57968(17)
N8_3 N 0.5513(4) 0.1412(2) 0.51464(19)
N12_3 N 0.4115(2) 0.06983(18) 0.71923(16)
N13_3 N 0.3126(3) 0.1288(2) 0.75654(17)
N14_2 N 0.4392(3) 0.0510(2) 0.85944(17)
C7_3 C 0.5641(4) 0.2399(3) 0.4876(2)
H6_3 H 0.6211 0.2593 0.4421
C8_3 C 0.4237(3) 0.2511(2) 0.5884(2)
H7_3 H 0.3625 0.2762 0.6293
C9_3 C 0.4152(3) 0.0535(2) 0.62448(19)
C10_3 C 0.2790(3) 0.0096(2) 0.5945(2)
C11_3 C 0.4839(3) 0.0240(3) 0.7811(3)
C12_3 C 0.3350(3) 0.1161(3) 0.8406(2)
H10_3 H 0.2841 0.1489 0.8840
O4_3 O 0.2407(2) 0.93288(18) 0.63873(15)
N15_2 N 0.0608(3) 0.9490(2) 0.35944(17)
H8_3 H 0.4813 0.9980 0.6126
H9_3 H 0.5558 0.9792 0.7708
O2_3 O 0.7593(2) 0.06712(18) 0.36127(15)
H3_3 H 0.5187 0.0020 0.3874
H4_3 H 0.4442 0.0208 0.2292
N16_2 N 0.9392(3) 0.0510(2) 0.64056(17)
O1_3 O 0.7776(2) 0.94711(17) 0.46912(16)
N1_3 N 0.5411(2) 0.84956(19) 0.42032(17)
N2_3 N 0.4487(4) 0.8588(2) 0.48536(19)
N4_3 N 0.5885(2) 0.93017(18) 0.28077(16)
N5_3 N 0.6874(3) 0.8712(2) 0.24346(17)
N6_2 N 0.5608(3) 0.9490(2) 0.14056(17)
C1_3 C 0.4359(4) 0.7601(3) 0.5124(2)
H1_3 H 0.3789 0.7407 0.5579
C2_3 C 0.5763(3) 0.7489(2) 0.4116(2)
H2_3 H 0.6375 0.7238 0.3707
C3_3 C 0.5848(3) 0.9465(2) 0.37552(19)
C4_3 C 0.7210(3) 0.9904(2) 0.4055(2)
C5_3 C 0.5161(3) 0.9760(3) 0.2189(3)
C6_3 C 0.6650(3) 0.8839(3) 0.1594(2)
H5_3 H 0.7159 0.8511 0.1160
C1_4 C 0.0641(4) 0.2399(3) 0.0124(2)
H1_4 H 0.1211 0.2593 0.0579
N2_4 N 0.0513(4) 0.1412(2) 0.98536(19)
H4_4 H 0.0558 0.9792 0.7292
O4_4 O 0.2593(2) 0.06712(18) 0.13873(15)
H8_4 H 0.0187 0.0020 0.1126
O1_4 O 0.7224(2) 0.05289(17) 0.96912(16)
N1_4 N 0.9589(2) 0.15044(19) 0.92032(17)
N4_4 N 0.9115(2) 0.06983(18) 0.78077(16)
N5_4 N 0.8126(3) 0.1288(2) 0.74346(17)
C2_4 C 0.9237(3) 0.2511(2) 0.9116(2)
H2_4 H 0.8625 0.2762 0.8707
C3_4 C 0.9152(3) 0.0535(2) 0.87552(19)
C4_4 C 0.7790(3) 0.0096(2) 0.9055(2)
C5_4 C 0.9839(3) 0.0240(3) 0.7189(3)
C6_4 C 0.8350(3) 0.1161(3) 0.6594(2)
H5_4 H 0.7841 0.1489 0.6160
O3_4 O 0.2776(2) 0.94711(17) 0.03088(16)
N7_4 N 0.0411(2) 0.84956(19) 0.07968(17)
N12_4 N 0.0885(2) 0.93017(18) 0.21923(16)
N13_4 N 0.1874(3) 0.8712(2) 0.25654(17)
C8_4 C 0.0763(3) 0.7489(2) 0.0884(2)
H7_4 H 0.1375 0.7238 0.1293
C9_4 C 0.0848(3) 0.9465(2) 0.12448(19)
C10_4 C 0.2210(3) 0.9904(2) 0.0945(2)
C11_4 C 0.0161(3) 0.9760(3) 0.2811(3)
C12_4 C 0.1650(3) 0.8839(3) 0.3406(2)
H10_4 H 0.2159 0.8511 0.3840
O2_4 O 0.7407(2) 0.93288(18) 0.86127(15)
H3_4 H 0.9813 0.9980 0.8874
H9_4 H 0.9442 0.0208 0.2708
N8_4 N 0.9487(4) 0.8588(2) 0.01464(19)
C7_4 C 0.9359(4) 0.7601(3) 0.9876(2)
H6_4 H 0.8789 0.7407 0.9421
loop_
_geom_bond_atom_site_label_1
_geom_bond_atom_site_label_2
_geom_bond_site_symmetry_1
_geom_bond_site_symmetry_2
Cd1 O1 1_555 1_555
O1 C4 1_555 1_555
O2 C4 1_555 1_555
N1 N2 1_555 1_555
N4 N5 1_555 1_555
N5 C6 1_555 1_555
N6 C5 1_555 1_555
C2 N1 1_555 1_555
H2 C2 1_555 1_555
C3 N1 1_555 1_555
H3 C3 1_555 1_555
C4 C3 1_555 1_555
C5 N4 1_555 1_555
H4 C5 1_555 1_555
C6 N6 1_555 1_555
H5 C6 1_555 1_555
Cd2 N3 1_555 1_555
Cd3 N6 1_555 1_555
N10 Cd1 1_555 1_555
N3 C2 1_555 1_555
N4 C3 1_555 1_555
C1 H1 1_555 1_555
N16 Cd1_2 1_555 1_555
N15 Cd1_3 1_555 1_555
C7 H6 1_555 1_555
Cd2_4 N9 1_555 1_555
Cd3 N14 1_555 1_555
O3 Cd1_4 1_555 1_555
O4 C10 1_555 1_555
N7 N8 1_555 1_555
N11 Cd1_4 1_555 1_555
N12 N13 1_555 1_555
N13 C12 1_555 1_555
N14 C11 1_555 1_555
C8 N7 1_555 1_555
H7 C8 1_555 1_555
C9 N7 1_555 1_555
H8 C9 1_555 1_555
C10 O3 1_555 1_555
C11 N12 1_555 1_555
H9 C11 1_555 1_555
C12 N14 1_555 1_555
H10 C12 1_555 1_555
N9 C8 1_555 1_555
N12 C9 1_555 1_555
C9 C10 1_555 1_555
N8_2 C7_2 1_555 1_555
C7_2 H6_2 1_555 1_555
Cd3 O1_2 1_555 1_555
O1_2 C4_2 1_555 1_555
O2_2 C4_2 1_555 1_555
N4_2 N5_2 1_555 1_555
N5_2 C6_2 1_555 1_555
N16 C5_2 1_555 1_555
C2_2 N1_2 1_555 1_555
H2_2 C2_2 1_555 1_555
C3_2 N1_2 1_555 1_555
H3_2 C3_2 1_555 1_555
C4_2 C3_2 1_555 1_555
C5_2 N4_2 1_555 1_555
C6_2 N16 1_555 1_555
H5_2 C6_2 1_555 1_555
Cd4_2 N3_2 1_555 1_555
Cd4_3 N9_2 1_555 1_555
O3_2 Cd3 1_555 1_555
O4_2 C10_2 1_555 1_555
N10_2 Cd3 1_555 1_555
N11_2 Cd3 1_555 1_555
N12_2 N13_2 1_555 1_555
N13_2 C12_2 1_555 1_555
N15 C11_2 1_555 1_555
C8_2 N7_2 1_555 1_555
H7_2 C8_2 1_555 1_555
C9_2 N7_2 1_555 1_555
H8_2 C9_2 1_555 1_555
C10_2 O3_2 1_555 1_555
C11_2 N12_2 1_555 1_555
C12_2 N15 1_555 1_555
H10_2 C12_2 1_555 1_555
N3_2 C2_2 1_555 1_555
N4_2 C3_2 1_555 1_555
N9_2 C8_2 1_555 1_555
N12_2 C9_2 1_555 1_555
C9_2 C10_2 1_555 1_555
N2_2 C1_2 1_555 1_555
C1_2 H1_2 1_555 1_555
Cd2_2 N14_2 1_555 1_555
O3_3 Cd4 1_555 1_555
N7_3 N8_3 1_555 1_555
N8_3 C7_3 1_555 1_555
N10_2 C7_3 1_555 1_555
N12_3 N13_3 1_555 1_555
N13_3 C12_3 1_555 1_555
N14_2 C11_3 1_555 1_555
C7_3 H6_3 1_555 1_555
C8_3 N7_3 1_555 1_555
H7_3 C8_3 1_555 1_555
C9_3 N7_3 1_555 1_555
C10_3 O3_3 1_555 1_555
C11_3 N12_3 1_555 1_555
C12_3 N14_2 1_555 1_555
H10_3 C12_3 1_555 1_555
N10_2 C8_3 1_555 1_555
N12_3 C9_3 1_555 1_555
C9_3 C10_3 1_555 1_555
N15_2 Cd4_2 1_555 1_555
N16_2 Cd4_3 1_555 1_555
Cd4_4 O1_3 1_555 1_555
O1_3 C4_3 1_555 1_555
N1_3 N2_3 1_555 1_555
N2_3 C1_3 1_555 1_555
N11_2 C1_3 1_555 1_555
N4_3 N5_3 1_555 1_555
N5_3 C6_3 1_555 1_555
N6_2 C5_3 1_555 1_555
C1_3 H1_3 1_555 1_555
C2_3 N1_3 1_555 1_555
H2_3 C2_3 1_555 1_555
C3_3 N1_3 1_555 1_555
C4_3 C3_3 1_555 1_555
C5_3 N4_3 1_555 1_555
C6_3 N6_2 1_555 1_555
H5_3 C6_3 1_555 1_555
Cd2_3 N6_2 1_555 1_555
N11_2 C2_3 1_555 1_555
N4_3 C3_3 1_555 1_555
C1_4 H1_4 1_555 1_555
Cd2_2 O1_4 1_555 1_555
O1_4 C4_4 1_555 1_555
N4_4 N5_4 1_555 1_555
N5_4 C6_4 1_555 1_555
N16_2 C5_4 1_555 1_555
C2_4 N1_4 1_555 1_555
H2_4 C2_4 1_555 1_555
C3_4 N1_4 1_555 1_555
C4_4 C3_4 1_555 1_555
C5_4 N4_4 1_555 1_555
C6_4 N16_2 1_555 1_555
H5_4 C6_4 1_555 1_555
N11 C2_4 1_555 1_555
N4_4 C3_4 1_555 1_555
O3_4 Cd2_3 1_555 1_555
N12_4 N13_4 1_555 1_555
N13_4 C12_4 1_555 1_555
N15_2 C11_4 1_555 1_555
C8_4 N7_4 1_555 1_555
H7_4 C8_4 1_555 1_555
C9_4 N7_4 1_555 1_555
C10_4 O3_4 1_555 1_555
C11_4 N12_4 1_555 1_555
C12_4 N15_2 1_555 1_555
H10_4 C12_4 1_555 1_555
N10 C8_4 1_555 1_555
N12_4 C9_4 1_555 1_555
C9_4 C10_4 1_555 1_555
C7_4 H6_4 1_555 1_555

#END
