
###############################################################################
#
# This file contains modified crystal structure data generated from the
# MOF subset of the Cambridge Structural Database (CSD) v543 
# hosted by the Cambridge Crystallographic Data Centre (CCDC).
#
# This work is licensed under the Creative Commons
# Attribution-NonCommercial-ShareAlike 4.0 International License.
# To view a copy of this license, visit
# http://creativecommons.org/licenses/by-nc-sa/4.0/
# or send a letter to
# Creative Commons, PO Box 1866, Mountain View, CA 94042, USA.
#
# CIF created using the CSD Python API on 29 September 2022
# The structure has been converted into the P1 space group
# The structure has a 3D framework
# The original CSD entry QEZZIF is in the orthorhombic crystal system
# The framework has been calculated to contain at least 10.0% void space
# The void calculation uses a probe of radius 1.32A, grid spacing 0.4
# H atom positions have been added when not included in the experimental data
# Generated hydrogen atom positions removed from atoms on special positions
#
###############################################################################

data_QEZZIF
_chemical_formula_moiety         '(C200 H128 Cu36 N168 O16 W24)n'
_symmetry_cell_setting           triclinic
_symmetry_space_group_name_H-M   'P 1'
_symmetry_Int_Tables_number      1
_space_group_name_Hall           'P 1'
loop_
_symmetry_equiv_pos_site_id
_symmetry_equiv_pos_as_xyz
1 x,y,z
_cell_length_a                   11.419(2)
_cell_length_b                   24.830(4)
_cell_length_c                   30.005(4)
_cell_angle_alpha                90
_cell_angle_beta                 90
_cell_angle_gamma                90
_cell_volume                     8507.43
loop_
_atom_site_label
_atom_site_type_symbol
_atom_site_fract_x
_atom_site_fract_y
_atom_site_fract_z
W1 W 0.06351(2) 0.158180(10) 0.0000
W2 W 0.5000 0.369710(10) 0.2500
Cu1 Cu 0.28393(4) 0.24852(2) 0.131960(10)
Cu2 Cu 0.0000 0.0000 0.11350(2)
N1 N 0.2138(2) 0.20166(12) 0.08611(10)
N3 N 0.0175(3) 0.05606(12) 0.06784(10)
N4 N 0.3075(5) 0.0877(2) 0.0000
N5 N 0.0658(6) 0.2908(2) 0.0000
N6 N 0.3561(2) 0.29565(12) 0.17714(10)
N7 N 0.1928(2) 0.19531(13) 0.18789(11)
N8 N 0.0210(3) 0.05362(12) 0.16097(11)
N9 N 0.7505(4) 0.4332(2) 0.26444(17)
N10 N 0.1377(2) 0.29605(12) 0.13046(10)
C1 C 0.1638(2) 0.18469(12) 0.05650(11)
C3 C 0.0313(3) 0.09121(13) 0.04401(11)
C4 C 0.2238(5) 0.1121(2) 0.0000
C5 C 0.0635(5) 0.2454(2) 0.0000
C6 C 0.4049(2) 0.32045(13) 0.20317(11)
C7 C 0.1273(3) 0.17346(13) 0.21012(11)
C8 C 0.0158(3) 0.08034(14) 0.19172(12)
C9 C 0.6623(3) 0.41204(16) 0.25862(12)
C11 C 0.0384(4) 0.37851(19) 0.1293(2)
C12 C 0.1395(4) 0.34977(17) 0.12931(17)
C13 C 0.0346(2) 0.27237(13) 0.13112(11)
H2 H 0.0399 0.4168 0.1285
H3 H 0.2125 0.3681 0.1285
H4 H 0.0335 0.2341 0.1314
W3 W 0.0000 0.130290(10) 0.2500
Cu6 Cu 0.78393(4) 0.25148(2) 0.131960(10)
N14 N 0.3624(3) 0.30493(13) 0.07270(11)
N21 N 0.2495(4) 0.4332(2) 0.23556(17)
N22 N 0.6377(2) 0.20395(12) 0.13046(10)
N24 N 0.4322(2) 0.20253(12) 0.13141(10)
C18 C 0.5951(2) 0.32045(13) 0.29683(11)
C20 C 0.6273(3) 0.32654(13) 0.21012(11)
C21 C 0.3727(3) 0.32654(13) 0.28988(11)
C23 C 0.5158(3) 0.41966(14) 0.19172(12)
C24 C 0.4842(3) 0.41966(14) 0.30828(12)
C25 C 0.3377(3) 0.41204(16) 0.24138(12)
C26 C 0.4340(4) 0.14889(17) 0.13067(19)
C27 C 0.5384(4) 0.12149(19) 0.1293(2)
C28 C 0.6395(4) 0.15023(17) 0.12931(17)
C29 C 0.5346(2) 0.22763(13) 0.13112(11)
H5 H 0.3623 0.1294 0.1311
H6 H 0.5399 0.0832 0.1285
H7 H 0.7125 0.1319 0.1285
H8 H 0.5335 0.2659 0.1314
H9 H 0.254454 0.0126539 0.124233
W1_2 W 0.06351(2) 0.158180(10) 1.0000
N4_2 N 0.3075(5) 0.0877(2) 1.0000
N5_2 N 0.0658(6) 0.2908(2) 1.0000
C4_2 C 0.2238(5) 0.1121(2) 1.0000
C5_2 C 0.0635(5) 0.2454(2) 1.0000
W5 W 0.5000 0.369710(10) 0.7500
W6 W 0.0000 0.130290(10) 0.7500
Cu3 Cu 0.28393(4) 0.24852(2) 0.868040(10)
Cu7 Cu 0.0000 0.0000 0.88650(2)
N12 N 0.2138(2) 0.20166(12) 0.91389(10)
N15 N 0.3624(3) 0.30493(13) 0.92730(11)
N16 N 0.0175(3) 0.05606(12) 0.93216(10)
N18 N 0.3561(2) 0.29565(12) 0.82286(10)
N19 N 0.1928(2) 0.19531(13) 0.81211(11)
N23 N 0.1377(2) 0.29605(12) 0.86954(10)
N25 N 0.4322(2) 0.20253(12) 0.86859(10)
C14 C 0.1638(2) 0.18469(12) 0.94350(11)
C16 C 0.0313(3) 0.09121(13) 0.95599(11)
C17 C 0.4049(2) 0.32045(13) 0.79683(11)
C19 C 0.1273(3) 0.17346(13) 0.78988(11)
Cu2_2 Cu 0.0000 1.0000 0.11350(2)
O1 O 0.2105(4) 0.9798(2) 0.1155(2)
W4 W 0.0000 0.869710(10) 0.2500
Cu7_2 Cu 0.0000 1.0000 0.88650(2)
Cu2_3 Cu 1.0000 0.0000 0.11350(2)
N2 N 0.8624(3) 0.19507(13) 0.07270(11)
N11 N 0.9322(2) 0.29747(12) 0.13141(10)
C2 C 0.9268(3) 0.18128(14) 0.04572(11)
C10 C 0.9340(4) 0.35111(17) 0.13067(19)
H1 H 0.8623 0.3706 0.1311
W3_2 W 1.0000 0.130290(10) 0.2500
O2 O 0.7895(4) 0.0202(2) 0.1155(2)
W6_2 W 1.0000 0.130290(10) 0.7500
Cu5 Cu 0.78393(4) 0.25148(2) 0.868040(10)
Cu7_3 Cu 1.0000 0.0000 0.88650(2)
N13 N 0.8624(3) 0.19507(13) 0.92730(11)
C15 C 0.9268(3) 0.18128(14) 0.95428(11)
Cu2_4 Cu 1.0000 1.0000 0.11350(2)
W4_2 W 1.0000 0.869710(10) 0.2500
N17 N 0.9825(3) 0.94394(12) 0.06784(10)
N20 N 0.9790(3) 0.94638(12) 0.16097(11)
C22 C 0.9842(3) 0.91966(14) 0.19172(12)
Cu7_4 Cu 1.0000 1.0000 0.88650(2)
W2_2 W 0.0000 0.869710(10) 0.7500
N9_2 N 0.2505(4) 0.9332(2) 0.76444(17)
C9_2 C 0.1623(3) 0.91204(16) 0.75862(12)
Cu6_2 Cu 0.28393(4) 0.75148(2) 0.631960(10)
N22_2 N 0.1377(2) 0.70395(12) 0.63046(10)
C18_2 C 0.0951(2) 0.82045(13) 0.79683(11)
C20_2 C 0.1273(3) 0.82654(13) 0.71012(11)
C23_2 C 0.0158(3) 0.91966(14) 0.69172(12)
C27_2 C 0.0384(4) 0.62149(19) 0.6293(2)
C28_2 C 0.1395(4) 0.65023(17) 0.62931(17)
C29_2 C 0.0346(2) 0.72763(13) 0.63112(11)
H6_2 H 0.0399 0.5832 0.6285
H7_2 H 0.2125 0.6319 0.6285
H8_2 H 0.0335 0.7659 0.6314
W1_3 W 0.56351(2) 0.658180(10) 0.5000
W2_3 W 1.0000 0.869710(10) 0.7500
Cu1_2 Cu 0.78393(4) 0.74852(2) 0.631960(10)
Cu2_5 Cu 0.5000 0.5000 0.61350(2)
O1_2 O 0.7105(4) 0.4798(2) 0.6155(2)
N1_2 N 0.7138(2) 0.70166(12) 0.58611(10)
N2_2 N 0.3624(3) 0.69507(13) 0.57270(11)
N3_2 N 0.5175(3) 0.55606(12) 0.56784(10)
N4_3 N 0.8075(5) 0.5877(2) 0.5000
N5_3 N 0.5658(6) 0.7908(2) 0.5000
N6_2 N 0.8561(2) 0.79565(12) 0.67714(10)
N7_2 N 0.6928(2) 0.69531(13) 0.68789(11)
N8_2 N 0.5210(3) 0.55362(12) 0.66097(11)
N10_2 N 0.6377(2) 0.79605(12) 0.63046(10)
N11_2 N 0.4322(2) 0.79747(12) 0.63141(10)
C1_2 C 0.6638(2) 0.68469(12) 0.55650(11)
C2_2 C 0.4268(3) 0.68128(14) 0.54572(11)
C3_2 C 0.5313(3) 0.59121(13) 0.54401(11)
C4_3 C 0.7238(5) 0.6121(2) 0.5000
C5_3 C 0.5635(5) 0.7454(2) 0.5000
C6_2 C 0.9049(2) 0.82045(13) 0.70317(11)
C7_2 C 0.6273(3) 0.67346(13) 0.71012(11)
C8_2 C 0.5158(3) 0.58034(14) 0.69172(12)
C10_2 C 0.4340(4) 0.85111(17) 0.63067(19)
C11_2 C 0.5384(4) 0.87851(19) 0.6293(2)
C12_2 C 0.6395(4) 0.84977(17) 0.62931(17)
C13_2 C 0.5346(2) 0.77237(13) 0.63112(11)
H1_2 H 0.3623 0.8706 0.6311
H2_2 H 0.5399 0.9168 0.6285
H3_2 H 0.7125 0.8681 0.6285
H4_2 H 0.5335 0.7341 0.6314
W3_3 W 0.5000 0.630290(10) 0.7500
W6_3 W 0.5000 0.630290(10) 0.2500
Cu3_2 Cu 0.78393(4) 0.74852(2) 0.368040(10)
Cu5_2 Cu 0.28393(4) 0.75148(2) 0.368040(10)
Cu7_5 Cu 0.5000 0.5000 0.38650(2)
O2_2 O 0.2895(4) 0.5202(2) 0.6155(2)
N12_2 N 0.7138(2) 0.70166(12) 0.41389(10)
N13_2 N 0.3624(3) 0.69507(13) 0.42730(11)
N14_2 N 0.8624(3) 0.80493(13) 0.57270(11)
N15_2 N 0.8624(3) 0.80493(13) 0.42730(11)
N16_2 N 0.5175(3) 0.55606(12) 0.43216(10)
N17_2 N 0.4825(3) 0.44394(12) 0.56784(10)
N18_2 N 0.8561(2) 0.79565(12) 0.32286(10)
N19_2 N 0.6928(2) 0.69531(13) 0.31211(11)
N20_2 N 0.4790(3) 0.44638(12) 0.66097(11)
N21_2 N 0.7495(4) 0.9332(2) 0.73556(17)
N23_2 N 0.6377(2) 0.79605(12) 0.36954(10)
N24_2 N 0.9322(2) 0.70253(12) 0.63141(10)
N25_2 N 0.9322(2) 0.70253(12) 0.36859(10)
C14_2 C 0.6638(2) 0.68469(12) 0.44350(11)
C15_2 C 0.4268(3) 0.68128(14) 0.45428(11)
C16_2 C 0.5313(3) 0.59121(13) 0.45599(11)
C17_2 C 0.9049(2) 0.82045(13) 0.29683(11)
C19_2 C 0.6273(3) 0.67346(13) 0.28988(11)
C21_2 C 0.8727(3) 0.82654(13) 0.78988(11)
C22_2 C 0.4842(3) 0.41966(14) 0.69172(12)
C24_2 C 0.9842(3) 0.91966(14) 0.80828(12)
C25_2 C 0.8377(3) 0.91204(16) 0.74138(12)
C26_2 C 0.9340(4) 0.64889(17) 0.63067(19)
H5_2 H 0.8623 0.6294 0.6311
N9_3 N 0.2505(4) 0.0668(2) 0.73556(17)
C9_3 C 0.1623(3) 0.08796(16) 0.74138(12)
C18_3 C 0.0951(2) 0.17955(13) 0.70317(11)
C23_3 C 0.0158(3) 0.08034(14) 0.80828(12)
C27_3 C 0.0384(4) 0.37851(19) 0.8707(2)
C28_3 C 0.1395(4) 0.34977(17) 0.87069(17)
C29_3 C 0.0346(2) 0.27237(13) 0.86888(11)
H6_3 H 0.0399 0.4168 0.8715
H7_3 H 0.2125 0.3681 0.8715
H8_3 H 0.0335 0.2341 0.8686
W1_4 W 0.56351(2) 0.341820(10) 0.0000
N4_4 N 0.8075(5) 0.4123(2) 0.0000
N5_4 N 0.5658(6) 0.2092(2) 0.0000
C4_4 C 0.7238(5) 0.3879(2) 0.0000
C5_4 C 0.5635(5) 0.2546(2) 0.0000
Cu7_6 Cu 0.5000 0.5000 0.11350(2)
N12_3 N 0.7138(2) 0.29834(12) 0.08611(10)
N16_3 N 0.5175(3) 0.44394(12) 0.06784(10)
N18_3 N 0.8561(2) 0.20435(12) 0.17714(10)
N19_3 N 0.6928(2) 0.30469(13) 0.18789(11)
C14_3 C 0.6638(2) 0.31531(12) 0.05650(11)
C15_3 C 0.4268(3) 0.31872(14) 0.04572(11)
C16_3 C 0.5313(3) 0.40879(13) 0.04401(11)
C17_3 C 0.9049(2) 0.17955(13) 0.20317(11)
W1_5 W 0.56351(2) 0.341820(10) 1.0000
Cu2_6 Cu 0.5000 0.5000 0.88650(2)
O1_3 O 0.7105(4) 0.5202(2) 0.8845(2)
N1_3 N 0.7138(2) 0.29834(12) 0.91389(10)
N3_3 N 0.5175(3) 0.44394(12) 0.93216(10)
N4_5 N 0.8075(5) 0.4123(2) 1.0000
N5_5 N 0.5658(6) 0.2092(2) 1.0000
N6_3 N 0.8561(2) 0.20435(12) 0.82286(10)
N7_3 N 0.6928(2) 0.30469(13) 0.81211(11)
N8_3 N 0.5210(3) 0.44638(12) 0.83903(11)
N10_3 N 0.6377(2) 0.20395(12) 0.86954(10)
C1_3 C 0.6638(2) 0.31531(12) 0.94350(11)
C2_3 C 0.4268(3) 0.31872(14) 0.95428(11)
C3_3 C 0.5313(3) 0.40879(13) 0.95599(11)
C4_5 C 0.7238(5) 0.3879(2) 1.0000
C5_5 C 0.5635(5) 0.2546(2) 1.0000
C6_3 C 0.9049(2) 0.17955(13) 0.79683(11)
C7_3 C 0.6273(3) 0.32654(13) 0.78988(11)
C8_3 C 0.5158(3) 0.41966(14) 0.80828(12)
C10_3 C 0.4340(4) 0.14889(17) 0.86933(19)
C11_3 C 0.5384(4) 0.12149(19) 0.8707(2)
C12_3 C 0.6395(4) 0.15023(17) 0.87069(17)
C13_3 C 0.5346(2) 0.22763(13) 0.86888(11)
H1_3 H 0.3623 0.1294 0.8689
H2_3 H 0.5399 0.0832 0.8715
H3_3 H 0.7125 0.1319 0.8715
H4_3 H 0.5335 0.2659 0.8686
O2_3 O 0.2895(4) 0.4798(2) 0.8845(2)
N17_3 N 0.4825(3) 0.55606(12) 0.93216(10)
N20_3 N 0.4790(3) 0.55362(12) 0.83903(11)
N21_3 N 0.7495(4) 0.0668(2) 0.76444(17)
N24_3 N 0.9322(2) 0.29747(12) 0.86859(10)
C21_3 C 0.8727(3) 0.17346(13) 0.71012(11)
C22_3 C 0.4842(3) 0.58034(14) 0.80828(12)
C24_3 C 0.9842(3) 0.08034(14) 0.69172(12)
C25_3 C 0.8377(3) 0.08796(16) 0.75862(12)
C26_3 C 0.9340(4) 0.35111(17) 0.86933(19)
H5_3 H 0.8623 0.3706 0.8689
W1_6 W 0.43649(2) 0.658180(10) 0.0000
N4_6 N 0.1925(5) 0.5877(2) 0.0000
N5_6 N 0.4342(6) 0.7908(2) 0.0000
C4_6 C 0.2762(5) 0.6121(2) 0.0000
C5_6 C 0.4365(5) 0.7454(2) 0.0000
Cu3_3 Cu 0.21607(4) 0.74852(2) 0.131960(10)
Cu5_3 Cu 0.71607(4) 0.75148(2) 0.131960(10)
N12_4 N 0.2862(2) 0.70166(12) 0.08611(10)
N13_3 N 0.6376(3) 0.69507(13) 0.07270(11)
N15_3 N 0.1376(3) 0.80493(13) 0.07270(11)
N16_4 N 0.4825(3) 0.55606(12) 0.06784(10)
N18_4 N 0.1439(2) 0.79565(12) 0.17714(10)
N19_4 N 0.3072(2) 0.69531(13) 0.18789(11)
N23_3 N 0.3623(2) 0.79605(12) 0.13046(10)
N25_3 N 0.0678(2) 0.70253(12) 0.13141(10)
C14_4 C 0.3362(2) 0.68469(12) 0.05650(11)
C15_4 C 0.5732(3) 0.68128(14) 0.04572(11)
C16_4 C 0.4687(3) 0.59121(13) 0.04401(11)
C17_4 C 0.0951(2) 0.82045(13) 0.20317(11)
C19_3 C 0.3727(3) 0.67346(13) 0.21012(11)
W1_7 W 0.43649(2) 0.658180(10) 1.0000
Cu1_3 Cu 0.21607(4) 0.74852(2) 0.868040(10)
N1_4 N 0.2862(2) 0.70166(12) 0.91389(10)
N2_3 N 0.6376(3) 0.69507(13) 0.92730(11)
N4_7 N 0.1925(5) 0.5877(2) 1.0000
N5_7 N 0.4342(6) 0.7908(2) 1.0000
N6_4 N 0.1439(2) 0.79565(12) 0.82286(10)
N7_4 N 0.3072(2) 0.69531(13) 0.81211(11)
N10_4 N 0.3623(2) 0.79605(12) 0.86954(10)
N11_3 N 0.5678(2) 0.79747(12) 0.86859(10)
C1_4 C 0.3362(2) 0.68469(12) 0.94350(11)
C2_4 C 0.5732(3) 0.68128(14) 0.95428(11)
C3_4 C 0.4687(3) 0.59121(13) 0.95599(11)
C4_7 C 0.2762(5) 0.6121(2) 1.0000
C5_7 C 0.4365(5) 0.7454(2) 1.0000
C7_4 C 0.3727(3) 0.67346(13) 0.78988(11)
C10_4 C 0.5660(4) 0.85111(17) 0.86933(19)
C11_4 C 0.4616(4) 0.87851(19) 0.8707(2)
C12_4 C 0.3605(4) 0.84977(17) 0.87069(17)
C13_4 C 0.4654(2) 0.77237(13) 0.86888(11)
H1_4 H 0.6377 0.8706 0.8689
H2_4 H 0.4601 0.9168 0.8715
H3_4 H 0.2875 0.8681 0.8715
H4_4 H 0.4665 0.7341 0.8686
Cu4 Cu 0.71607(4) 0.75148(2) 0.868040(10)
N14_3 N 0.1376(3) 0.80493(13) 0.92730(11)
N24_4 N 0.0678(2) 0.70253(12) 0.86859(10)
C26_4 C 0.0660(4) 0.64889(17) 0.86933(19)
H5_4 H 0.1377 0.6294 0.8689
N22_3 N 0.8623(2) 0.70395(12) 0.86954(10)
C27_4 C 0.9616(4) 0.62149(19) 0.8707(2)
C28_4 C 0.8605(4) 0.65023(17) 0.87069(17)
C29_4 C 0.9654(2) 0.72763(13) 0.86888(11)
H6_4 H 0.9601 0.5832 0.8715
H7_4 H 0.7875 0.6319 0.8715
H8_4 H 0.9665 0.7659 0.8686
C2_5 C 0.0732(3) 0.81872(14) 0.04572(11)
C10_5 C 0.0660(4) 0.64889(17) 0.13067(19)
H1_5 H 0.1377 0.6294 0.1311
C15_5 C 0.0732(3) 0.81872(14) 0.95428(11)
W1_8 W 0.93649(2) 0.841820(10) 0.0000
N1_5 N 0.7862(2) 0.79834(12) 0.08611(10)
N4_8 N 0.6925(5) 0.9123(2) 0.0000
N5_8 N 0.9342(6) 0.7092(2) 0.0000
N6_5 N 0.6439(2) 0.70435(12) 0.17714(10)
N7_5 N 0.8072(2) 0.80469(13) 0.18789(11)
N9_4 N 0.2495(4) 0.5668(2) 0.26444(17)
N10_5 N 0.8623(2) 0.70395(12) 0.13046(10)
C1_5 C 0.8362(2) 0.81531(12) 0.05650(11)
C3_5 C 0.9687(3) 0.90879(13) 0.04401(11)
C4_8 C 0.7762(5) 0.8879(2) 0.0000
C5_8 C 0.9365(5) 0.7546(2) 0.0000
C6_4 C 0.5951(2) 0.67955(13) 0.20317(11)
C7_5 C 0.8727(3) 0.82654(13) 0.21012(11)
C9_4 C 0.3377(3) 0.58796(16) 0.25862(12)
C11_5 C 0.9616(4) 0.62149(19) 0.1293(2)
C12_5 C 0.8605(4) 0.65023(17) 0.12931(17)
C13_5 C 0.9654(2) 0.72763(13) 0.13112(11)
H2_5 H 0.9601 0.5832 0.1285
H3_5 H 0.7875 0.6319 0.1285
H4_5 H 0.9665 0.7659 0.1314
N21_4 N 0.7505(4) 0.5668(2) 0.23556(17)
N24_5 N 0.5678(2) 0.79747(12) 0.13141(10)
C18_4 C 0.4049(2) 0.67955(13) 0.29683(11)
C23_4 C 0.4842(3) 0.58034(14) 0.19172(12)
C24_4 C 0.5158(3) 0.58034(14) 0.30828(12)
C25_4 C 0.6623(3) 0.58796(16) 0.24138(12)
C26_5 C 0.5660(4) 0.85111(17) 0.13067(19)
C27_5 C 0.4616(4) 0.87851(19) 0.1293(2)
C28_5 C 0.3605(4) 0.84977(17) 0.12931(17)
C29_5 C 0.4654(2) 0.77237(13) 0.13112(11)
H5_5 H 0.6377 0.8706 0.1311
H6_5 H 0.4601 0.9168 0.1285
H7_5 H 0.2875 0.8681 0.1285
H8_5 H 0.4665 0.7341 0.1314
H9_2 H 0.745546 0.987346 0.124233
W1_9 W 0.93649(2) 0.841820(10) 1.0000
N4_9 N 0.6925(5) 0.9123(2) 1.0000
N5_9 N 0.9342(6) 0.7092(2) 1.0000
C4_9 C 0.7762(5) 0.8879(2) 1.0000
C5_9 C 0.9365(5) 0.7546(2) 1.0000
N12_5 N 0.7862(2) 0.79834(12) 0.91389(10)
N16_5 N 0.9825(3) 0.94394(12) 0.93216(10)
N18_5 N 0.6439(2) 0.70435(12) 0.82286(10)
N19_5 N 0.8072(2) 0.80469(13) 0.81211(11)
C14_5 C 0.8362(2) 0.81531(12) 0.94350(11)
C16_5 C 0.9687(3) 0.90879(13) 0.95599(11)
C17_5 C 0.5951(2) 0.67955(13) 0.79683(11)
Cu2_7 Cu 0.0000 0.0000 0.38650(2)
O1_4 O 0.2105(4) 0.0202(2) 0.3845(2)
Cu7_7 Cu 0.0000 0.0000 0.61350(2)
W1_10 W 0.06351(2) 0.841820(10) 0.5000
Cu2_8 Cu 0.0000 1.0000 0.38650(2)
N1_6 N 0.2138(2) 0.79834(12) 0.41389(10)
N3_4 N 0.0175(3) 0.94394(12) 0.43216(10)
N4_10 N 0.3075(5) 0.9123(2) 0.5000
N5_10 N 0.0658(6) 0.7092(2) 0.5000
N6_6 N 0.3561(2) 0.70435(12) 0.32286(10)
N7_6 N 0.1928(2) 0.80469(13) 0.31211(11)
N8_4 N 0.0210(3) 0.94638(12) 0.33903(11)
N10_6 N 0.1377(2) 0.70395(12) 0.36954(10)
C1_6 C 0.1638(2) 0.81531(12) 0.44350(11)
C3_6 C 0.0313(3) 0.90879(13) 0.45599(11)
C4_10 C 0.2238(5) 0.8879(2) 0.5000
C5_10 C 0.0635(5) 0.7546(2) 0.5000
C7_6 C 0.1273(3) 0.82654(13) 0.28988(11)
C8_4 C 0.0158(3) 0.91966(14) 0.30828(12)
C11_6 C 0.0384(4) 0.62149(19) 0.3707(2)
C12_6 C 0.1395(4) 0.65023(17) 0.37069(17)
C13_6 C 0.0346(2) 0.72763(13) 0.36888(11)
H2_6 H 0.0399 0.5832 0.3715
H3_6 H 0.2125 0.6319 0.3715
H4_6 H 0.0335 0.7659 0.3686
Cu7_8 Cu 0.0000 1.0000 0.61350(2)
N12_6 N 0.2138(2) 0.79834(12) 0.58611(10)
N16_6 N 0.0175(3) 0.94394(12) 0.56784(10)
N18_6 N 0.3561(2) 0.70435(12) 0.67714(10)
N19_6 N 0.1928(2) 0.80469(13) 0.68789(11)
N24_6 N 0.4322(2) 0.79747(12) 0.36859(10)
C14_6 C 0.1638(2) 0.81531(12) 0.55650(11)
C16_6 C 0.0313(3) 0.90879(13) 0.54401(11)
C17_6 C 0.4049(2) 0.67955(13) 0.70317(11)
C26_6 C 0.4340(4) 0.85111(17) 0.36933(19)
C27_6 C 0.5384(4) 0.87851(19) 0.3707(2)
C28_6 C 0.6395(4) 0.84977(17) 0.37069(17)
C29_6 C 0.5346(2) 0.77237(13) 0.36888(11)
H5_6 H 0.3623 0.8706 0.3689
H6_6 H 0.5399 0.9168 0.3715
H7_6 H 0.7125 0.8681 0.3715
H8_6 H 0.5335 0.7341 0.3686
H9_3 H 0.254454 0.987346 0.375767
Cu2_9 Cu 1.0000 0.0000 0.38650(2)
Cu7_9 Cu 1.0000 0.0000 0.61350(2)
N17_4 N 0.9825(3) 0.05606(12) 0.43216(10)
N20_4 N 0.9790(3) 0.05362(12) 0.33903(11)
C22_4 C 0.9842(3) 0.08034(14) 0.30828(12)
Cu2_10 Cu 1.0000 1.0000 0.38650(2)
C2_6 C 0.9268(3) 0.81872(14) 0.45428(11)
C10_6 C 0.9340(4) 0.64889(17) 0.36933(19)
H1_6 H 0.8623 0.6294 0.3689
Cu7_10 Cu 1.0000 1.0000 0.61350(2)
O2_4 O 0.7895(4) 0.9798(2) 0.3845(2)
C15_6 C 0.9268(3) 0.81872(14) 0.54572(11)
N2_4 N 0.1376(3) 0.19507(13) 0.42730(11)
N11_4 N 0.0678(2) 0.29747(12) 0.36859(10)
C2_7 C 0.0732(3) 0.18128(14) 0.45428(11)
C10_7 C 0.0660(4) 0.35111(17) 0.36933(19)
H1_7 H 0.1377 0.3706 0.3689
Cu4_2 Cu 0.21607(4) 0.25148(2) 0.368040(10)
Cu5_4 Cu 0.21607(4) 0.25148(2) 0.631960(10)
N13_4 N 0.1376(3) 0.19507(13) 0.57270(11)
C15_7 C 0.0732(3) 0.18128(14) 0.54572(11)
W1_11 W 0.93649(2) 0.158180(10) 0.5000
Cu1_4 Cu 0.71607(4) 0.24852(2) 0.368040(10)
N1_7 N 0.7862(2) 0.20166(12) 0.41389(10)
N4_11 N 0.6925(5) 0.0877(2) 0.5000
N5_11 N 0.9342(6) 0.2908(2) 0.5000
N6_7 N 0.6439(2) 0.29565(12) 0.32286(10)
N7_7 N 0.8072(2) 0.19531(13) 0.31211(11)
N10_7 N 0.8623(2) 0.29605(12) 0.36954(10)
C1_7 C 0.8362(2) 0.18469(12) 0.44350(11)
C3_7 C 0.9687(3) 0.09121(13) 0.45599(11)
C4_11 C 0.7762(5) 0.1121(2) 0.5000
C5_11 C 0.9365(5) 0.2454(2) 0.5000
C7_7 C 0.8727(3) 0.17346(13) 0.28988(11)
C11_7 C 0.9616(4) 0.37851(19) 0.3707(2)
C12_7 C 0.8605(4) 0.34977(17) 0.37069(17)
C13_7 C 0.9654(2) 0.27237(13) 0.36888(11)
H2_7 H 0.9601 0.4168 0.3715
H3_7 H 0.7875 0.3681 0.3715
H4_7 H 0.9665 0.2341 0.3686
Cu3_4 Cu 0.71607(4) 0.24852(2) 0.631960(10)
N12_7 N 0.7862(2) 0.20166(12) 0.58611(10)
N14_4 N 0.6376(3) 0.30493(13) 0.42730(11)
N15_4 N 0.6376(3) 0.30493(13) 0.57270(11)
N16_7 N 0.9825(3) 0.05606(12) 0.56784(10)
N18_7 N 0.6439(2) 0.29565(12) 0.67714(10)
N19_7 N 0.8072(2) 0.19531(13) 0.68789(11)
N22_4 N 0.3623(2) 0.20395(12) 0.36954(10)
N23_4 N 0.8623(2) 0.29605(12) 0.63046(10)
N24_7 N 0.5678(2) 0.20253(12) 0.36859(10)
N25_4 N 0.5678(2) 0.20253(12) 0.63141(10)
C14_7 C 0.8362(2) 0.18469(12) 0.55650(11)
C16_7 C 0.9687(3) 0.09121(13) 0.54401(11)
C17_7 C 0.5951(2) 0.32045(13) 0.70317(11)
C26_7 C 0.5660(4) 0.14889(17) 0.36933(19)
C27_7 C 0.4616(4) 0.12149(19) 0.3707(2)
C28_7 C 0.3605(4) 0.15023(17) 0.37069(17)
C29_7 C 0.4654(2) 0.22763(13) 0.36888(11)
H5_7 H 0.6377 0.1294 0.3689
H6_7 H 0.4601 0.0832 0.3715
H7_7 H 0.2875 0.1319 0.3715
H8_7 H 0.4665 0.2659 0.3686
H9_4 H 0.745546 0.0126539 0.375767
W1_12 W 0.43649(2) 0.341820(10) 0.5000
N1_8 N 0.2862(2) 0.29834(12) 0.58611(10)
N4_12 N 0.1925(5) 0.4123(2) 0.5000
N5_12 N 0.4342(6) 0.2092(2) 0.5000
N6_8 N 0.1439(2) 0.20435(12) 0.67714(10)
N7_8 N 0.3072(2) 0.30469(13) 0.68789(11)
N10_8 N 0.3623(2) 0.20395(12) 0.63046(10)
C1_8 C 0.3362(2) 0.31531(12) 0.55650(11)
C2_8 C 0.5732(3) 0.31872(14) 0.54572(11)
C3_8 C 0.4687(3) 0.40879(13) 0.54401(11)
C4_12 C 0.2762(5) 0.3879(2) 0.5000
C5_12 C 0.4365(5) 0.2546(2) 0.5000
C7_8 C 0.3727(3) 0.32654(13) 0.71012(11)
C10_8 C 0.5660(4) 0.14889(17) 0.63067(19)
C11_8 C 0.4616(4) 0.12149(19) 0.6293(2)
C12_8 C 0.3605(4) 0.15023(17) 0.62931(17)
C13_8 C 0.4654(2) 0.22763(13) 0.63112(11)
H1_8 H 0.6377 0.1294 0.6311
H2_8 H 0.4601 0.0832 0.6285
H3_8 H 0.2875 0.1319 0.6285
H4_8 H 0.4665 0.2659 0.6314
N12_8 N 0.2862(2) 0.29834(12) 0.41389(10)
N16_8 N 0.4825(3) 0.44394(12) 0.43216(10)
N18_8 N 0.1439(2) 0.20435(12) 0.32286(10)
N19_8 N 0.3072(2) 0.30469(13) 0.31211(11)
N24_8 N 0.0678(2) 0.29747(12) 0.63141(10)
C14_8 C 0.3362(2) 0.31531(12) 0.44350(11)
C15_8 C 0.5732(3) 0.31872(14) 0.45428(11)
C16_8 C 0.4687(3) 0.40879(13) 0.45599(11)
C17_8 C 0.0951(2) 0.17955(13) 0.29683(11)
C26_8 C 0.0660(4) 0.35111(17) 0.63067(19)
H5_8 H 0.1377 0.3706 0.6311
C27_8 C 0.9616(4) 0.37851(19) 0.6293(2)
C28_8 C 0.8605(4) 0.34977(17) 0.62931(17)
C29_8 C 0.9654(2) 0.27237(13) 0.63112(11)
H6_8 H 0.9601 0.4168 0.6285
H7_8 H 0.7875 0.3681 0.6285
H8_8 H 0.9665 0.2341 0.6314
N20_5 N 0.0210(3) 0.05362(12) 0.83903(11)
O2_5 O 0.2105(4) 0.9798(2) 0.8845(2)
O1_5 O 0.7895(4) 0.0202(2) 0.8845(2)
N8_5 N 0.9790(3) 0.94638(12) 0.83903(11)
N9_5 N 0.2495(4) 0.5668(2) 0.73556(17)
C9_5 C 0.3377(3) 0.58796(16) 0.74138(12)
N21_5 N 0.7505(4) 0.5668(2) 0.76444(17)
C25_5 C 0.6623(3) 0.58796(16) 0.75862(12)
H9_5 H 0.745546 0.987346 0.875767
O1_6 O 0.2895(4) 0.5202(2) 0.3845(2)
N8_6 N 0.4790(3) 0.44638(12) 0.33903(11)
O2_6 O 0.7105(4) 0.4798(2) 0.3845(2)
N20_6 N 0.5210(3) 0.55362(12) 0.33903(11)
N21_6 N 0.2505(4) 0.0668(2) 0.26444(17)
C25_6 C 0.1623(3) 0.08796(16) 0.25862(12)
N9_6 N 0.7495(4) 0.0668(2) 0.23556(17)
C9_6 C 0.8377(3) 0.08796(16) 0.24138(12)
O1_7 O 0.2895(4) 0.4798(2) 0.1155(2)
N8_7 N 0.4790(3) 0.55362(12) 0.16097(11)
O2_7 O 0.7105(4) 0.5202(2) 0.1155(2)
N20_7 N 0.5210(3) 0.44638(12) 0.16097(11)
N21_7 N 0.2505(4) 0.9332(2) 0.23556(17)
C25_7 C 0.1623(3) 0.91204(16) 0.24138(12)
N9_7 N 0.7495(4) 0.9332(2) 0.26444(17)
C9_7 C 0.8377(3) 0.91204(16) 0.25862(12)
N9_8 N 0.7505(4) 0.4332(2) 0.73556(17)
C9_8 C 0.6623(3) 0.41204(16) 0.74138(12)
N21_8 N 0.2495(4) 0.4332(2) 0.76444(17)
C25_8 C 0.3377(3) 0.41204(16) 0.75862(12)
H9_6 H 0.254454 0.0126539 0.875767
O2_8 O 0.2105(4) 0.0202(2) 0.6155(2)
N20_8 N 0.0210(3) 0.94638(12) 0.66097(11)
N8_8 N 0.9790(3) 0.05362(12) 0.66097(11)
H9_7 H 0.745546 0.0126539 0.624233
O1_8 O 0.7895(4) 0.9798(2) 0.6155(2)
H9_8 H 0.254454 0.987346 0.624233
loop_
_geom_bond_atom_site_label_1
_geom_bond_atom_site_label_2
_geom_bond_site_symmetry_1
_geom_bond_site_symmetry_2
W1 C1 1_555 1_555
W2 C6 1_555 1_555
Cu1 N1 1_555 1_555
N1 C1 1_555 1_555
N3 Cu2 1_555 1_555
N4 C4 1_555 1_555
N5 C5 1_555 1_555
N6 Cu1 1_555 1_555
N7 Cu1 1_555 1_555
N8 Cu2 1_555 1_555
N9 C9 1_555 1_555
N10 Cu1 1_555 1_555
C3 W1 1_555 1_555
C4 W1 1_555 1_555
C5 W1 1_555 1_555
C6 N6 1_555 1_555
C7 N7 1_555 1_555
C8 N8 1_555 1_555
C9 W2 1_555 1_555
C11 C12 1_555 1_555
C12 N10 1_555 1_555
C13 N10 1_555 1_555
H2 C11 1_555 1_555
H3 C12 1_555 1_555
H4 C13 1_555 1_555
W3 C7 1_555 1_555
Cu6 N22 1_555 1_555
N14 Cu1 1_555 1_555
N21 C25 1_555 1_555
N22 C28 1_555 1_555
N24 Cu1 1_555 1_555
C18 W2 1_555 1_555
C20 W2 1_555 1_555
C21 W2 1_555 1_555
C23 W2 1_555 1_555
C24 W2 1_555 1_555
C25 W2 1_555 1_555
C26 N24 1_555 1_555
C27 C26 1_555 1_555
C28 C27 1_555 1_555
C29 N22 1_555 1_555
H5 C26 1_555 1_555
H6 C27 1_555 1_555
H7 C28 1_555 1_555
H8 C29 1_555 1_555
N3 C3 1_555 1_555
C8 W3 1_555 1_555
N24 C29 1_555 1_555
N4_2 C4_2 1_555 1_555
N5_2 C5_2 1_555 1_555
C4_2 W1_2 1_555 1_555
C5_2 W1_2 1_555 1_555
W5 C17 1_555 1_555
W6 C19 1_555 1_555
Cu3 N12 1_555 1_555
Cu7 N16 1_555 1_555
N12 C14 1_555 1_555
N15 Cu3 1_555 1_555
N16 C16 1_555 1_555
N18 Cu3 1_555 1_555
N19 Cu3 1_555 1_555
N23 Cu3 1_555 1_555
N25 Cu3 1_555 1_555
C14 W1_2 1_555 1_555
C16 W1_2 1_555 1_555
C17 N18 1_555 1_555
C19 N19 1_555 1_555
Cu2_2 O1 1_555 1_555
N2 C2 1_555 1_555
N11 C10 1_555 1_555
H1 C10 1_555 1_555
Cu6 N2 1_555 1_555
O2 Cu2_3 1_555 1_555
N11 Cu6 1_555 1_555
Cu5 N13 1_555 1_555
N13 C15 1_555 1_555
W4_2 C22 1_555 1_555
N17 Cu2_4 1_555 1_555
N20 Cu2_4 1_555 1_555
C22 N20 1_555 1_555
N9_2 C9_2 1_555 1_555
C9_2 W2_2 1_555 1_555
Cu6_2 N22_2 1_555 1_555
N22_2 C28_2 1_555 1_555
C18_2 W2_2 1_555 1_555
C20_2 W2_2 1_555 1_555
C23_2 W2_2 1_555 1_555
C28_2 C27_2 1_555 1_555
C29_2 N22_2 1_555 1_555
H6_2 C27_2 1_555 1_555
H7_2 C28_2 1_555 1_555
H8_2 C29_2 1_555 1_555
W1_3 C1_2 1_555 1_555
W2_3 C6_2 1_555 1_555
Cu1_2 N1_2 1_555 1_555
Cu2_5 O1_2 1_555 1_555
N1_2 C1_2 1_555 1_555
N2_2 C2_2 1_555 1_555
N3_2 Cu2_5 1_555 1_555
N4_3 C4_3 1_555 1_555
N5_3 C5_3 1_555 1_555
N6_2 Cu1_2 1_555 1_555
N7_2 Cu1_2 1_555 1_555
N8_2 Cu2_5 1_555 1_555
N10_2 Cu1_2 1_555 1_555
N11_2 C10_2 1_555 1_555
C2_2 W1_3 1_555 1_555
C3_2 W1_3 1_555 1_555
C4_3 W1_3 1_555 1_555
C5_3 W1_3 1_555 1_555
C6_2 N6_2 1_555 1_555
C7_2 N7_2 1_555 1_555
C8_2 N8_2 1_555 1_555
C10_2 C11_2 1_555 1_555
C11_2 C12_2 1_555 1_555
C12_2 N10_2 1_555 1_555
C13_2 N10_2 1_555 1_555
H1_2 C10_2 1_555 1_555
H2_2 C11_2 1_555 1_555
H3_2 C12_2 1_555 1_555
H4_2 C13_2 1_555 1_555
W3_3 C7_2 1_555 1_555
W5 C22_2 1_555 1_555
W4_2 C17_2 1_555 1_555
W6_3 C19_2 1_555 1_555
Cu3_2 N12_2 1_555 1_555
Cu6_2 N2_2 1_555 1_555
Cu5_2 N13_2 1_555 1_555
Cu7_5 N16_2 1_555 1_555
O2_2 Cu2_5 1_555 1_555
N12_2 C14_2 1_555 1_555
N13_2 C15_2 1_555 1_555
N14_2 Cu1_2 1_555 1_555
N15_2 Cu3_2 1_555 1_555
N16_2 C16_2 1_555 1_555
N17_2 Cu2_5 1_555 1_555
N18_2 Cu3_2 1_555 1_555
N19_2 Cu3_2 1_555 1_555
N20_2 Cu2_5 1_555 1_555
N21_2 C25_2 1_555 1_555
N23_2 Cu3_2 1_555 1_555
N24_2 Cu1_2 1_555 1_555
N25_2 Cu3_2 1_555 1_555
C14_2 W1_3 1_555 1_555
C15_2 W1_3 1_555 1_555
C16_2 W1_3 1_555 1_555
C17_2 N18_2 1_555 1_555
C19_2 N19_2 1_555 1_555
C21_2 W2_3 1_555 1_555
C22_2 N20_2 1_555 1_555
C24_2 W2_3 1_555 1_555
C25_2 W2_3 1_555 1_555
C26_2 N24_2 1_555 1_555
H5_2 C26_2 1_555 1_555
N3_2 C3_2 1_555 1_555
N11_2 C13_2 1_555 1_555
N11_2 Cu6_2 1_555 1_555
C8_2 W3_3 1_555 1_555
N9_3 C9_3 1_555 1_555
C9_3 W6 1_555 1_555
N23 C28_3 1_555 1_555
C18_3 W6 1_555 1_555
C23_3 W6 1_555 1_555
C28_3 C27_3 1_555 1_555
C29_3 N23 1_555 1_555
H6_3 C27_3 1_555 1_555
H7_3 C28_3 1_555 1_555
H8_3 C29_3 1_555 1_555
N4_4 C4_4 1_555 1_555
N5_4 C5_4 1_555 1_555
C4_4 W1_4 1_555 1_555
C5_4 W1_4 1_555 1_555
W3_2 C17_3 1_555 1_555
Cu6 N12_3 1_555 1_555
Cu7_6 N16_3 1_555 1_555
N12_3 C14_3 1_555 1_555
N14 C15_3 1_555 1_555
N16_3 C16_3 1_555 1_555
N18_3 Cu6 1_555 1_555
N19_3 Cu6 1_555 1_555
C14_3 W1_4 1_555 1_555
C15_3 W1_4 1_555 1_555
C16_3 W1_4 1_555 1_555
C17_3 N18_3 1_555 1_555
C20 N19_3 1_555 1_555
W1_5 C1_3 1_555 1_555
W6_2 C6_3 1_555 1_555
Cu5 N1_3 1_555 1_555
Cu2_6 O1_3 1_555 1_555
N1_3 C1_3 1_555 1_555
N15 C2_3 1_555 1_555
N3_3 Cu2_6 1_555 1_555
N4_5 C4_5 1_555 1_555
N5_5 C5_5 1_555 1_555
N6_3 Cu5 1_555 1_555
N7_3 Cu5 1_555 1_555
N8_3 Cu2_6 1_555 1_555
N10_3 Cu5 1_555 1_555
N25 C10_3 1_555 1_555
C2_3 W1_5 1_555 1_555
C3_3 W1_5 1_555 1_555
C4_5 W1_5 1_555 1_555
C5_5 W1_5 1_555 1_555
C6_3 N6_3 1_555 1_555
C7_3 N7_3 1_555 1_555
C8_3 N8_3 1_555 1_555
C10_3 C11_3 1_555 1_555
C11_3 C12_3 1_555 1_555
C12_3 N10_3 1_555 1_555
C13_3 N10_3 1_555 1_555
H1_3 C10_3 1_555 1_555
H2_3 C11_3 1_555 1_555
H3_3 C12_3 1_555 1_555
H4_3 C13_3 1_555 1_555
W5 C7_3 1_555 1_555
W3_3 C22_3 1_555 1_555
O2_3 Cu2_6 1_555 1_555
N17_3 Cu2_6 1_555 1_555
N20_3 Cu2_6 1_555 1_555
N21_3 C25_3 1_555 1_555
N24_3 Cu5 1_555 1_555
C21_3 W6_2 1_555 1_555
C22_3 N20_3 1_555 1_555
C24_3 W6_2 1_555 1_555
C25_3 W6_2 1_555 1_555
C26_3 N24_3 1_555 1_555
H5_3 C26_3 1_555 1_555
N3_3 C3_3 1_555 1_555
N25 C13_3 1_555 1_555
C8_3 W5 1_555 1_555
N4_6 C4_6 1_555 1_555
N5_6 C5_6 1_555 1_555
C4_6 W1_6 1_555 1_555
C5_6 W1_6 1_555 1_555
W4 C17_4 1_555 1_555
W6_3 C19_3 1_555 1_555
Cu3_3 N12_4 1_555 1_555
Cu5_3 N13_3 1_555 1_555
Cu7_6 N16_4 1_555 1_555
N12_4 C14_4 1_555 1_555
N13_3 C15_4 1_555 1_555
N15_3 Cu3_3 1_555 1_555
N16_4 C16_4 1_555 1_555
N18_4 Cu3_3 1_555 1_555
N19_4 Cu3_3 1_555 1_555
N23_3 Cu3_3 1_555 1_555
N25_3 Cu3_3 1_555 1_555
C14_4 W1_6 1_555 1_555
C15_4 W1_6 1_555 1_555
C16_4 W1_6 1_555 1_555
C17_4 N18_4 1_555 1_555
C19_3 N19_4 1_555 1_555
W1_7 C1_4 1_555 1_555
Cu1_3 N1_4 1_555 1_555
N1_4 C1_4 1_555 1_555
N2_3 C2_4 1_555 1_555
N4_7 C4_7 1_555 1_555
N5_7 C5_7 1_555 1_555
N6_4 Cu1_3 1_555 1_555
N7_4 Cu1_3 1_555 1_555
N10_4 Cu1_3 1_555 1_555
N11_3 C10_4 1_555 1_555
C2_4 W1_7 1_555 1_555
C3_4 W1_7 1_555 1_555
C4_7 W1_7 1_555 1_555
C5_7 W1_7 1_555 1_555
C18_2 N6_4 1_555 1_555
C7_4 N7_4 1_555 1_555
C10_4 C11_4 1_555 1_555
C11_4 C12_4 1_555 1_555
C12_4 N10_4 1_555 1_555
C13_4 N10_4 1_555 1_555
H1_4 C10_4 1_555 1_555
H2_4 C11_4 1_555 1_555
H3_4 C12_4 1_555 1_555
H4_4 C13_4 1_555 1_555
W3_3 C7_4 1_555 1_555
Cu4 N2_3 1_555 1_555
N14_3 Cu1_3 1_555 1_555
N24_4 Cu1_3 1_555 1_555
C26_4 N24_4 1_555 1_555
H5_4 C26_4 1_555 1_555
N17_3 C3_4 1_555 1_555
N11_3 C13_4 1_555 1_555
N11_3 Cu4 1_555 1_555
Cu4 N22_3 1_555 1_555
N22_3 C28_4 1_555 1_555
C28_4 C27_4 1_555 1_555
C29_4 N22_3 1_555 1_555
H6_4 C27_4 1_555 1_555
H7_4 C28_4 1_555 1_555
H8_4 C29_4 1_555 1_555
N15_3 C2_5 1_555 1_555
N25_3 C10_5 1_555 1_555
H1_5 C10_5 1_555 1_555
N14_3 C15_5 1_555 1_555
W1_8 C1_5 1_555 1_555
W6_3 C6_4 1_555 1_555
Cu5_3 N1_5 1_555 1_555
N1_5 C1_5 1_555 1_555
N4_8 C4_8 1_555 1_555
N5_8 C5_8 1_555 1_555
N6_5 Cu5_3 1_555 1_555
N7_5 Cu5_3 1_555 1_555
N9_4 C9_4 1_555 1_555
N10_5 Cu5_3 1_555 1_555
C3_5 W1_8 1_555 1_555
C4_8 W1_8 1_555 1_555
C5_8 W1_8 1_555 1_555
C6_4 N6_5 1_555 1_555
C7_5 N7_5 1_555 1_555
C9_4 W6_3 1_555 1_555
C11_5 C12_5 1_555 1_555
C12_5 N10_5 1_555 1_555
C13_5 N10_5 1_555 1_555
H2_5 C11_5 1_555 1_555
H3_5 C12_5 1_555 1_555
H4_5 C13_5 1_555 1_555
W4_2 C7_5 1_555 1_555
N21_4 C25_4 1_555 1_555
N23_3 C28_5 1_555 1_555
N24_5 Cu5_3 1_555 1_555
C18_4 W6_3 1_555 1_555
C23_4 W6_3 1_555 1_555
C24_4 W6_3 1_555 1_555
C25_4 W6_3 1_555 1_555
C26_5 N24_5 1_555 1_555
C27_5 C26_5 1_555 1_555
C28_5 C27_5 1_555 1_555
C29_5 N23_3 1_555 1_555
H5_5 C26_5 1_555 1_555
H6_5 C27_5 1_555 1_555
H7_5 C28_5 1_555 1_555
H8_5 C29_5 1_555 1_555
N17 C3_5 1_555 1_555
N24_5 C29_5 1_555 1_555
N4_9 C4_9 1_555 1_555
N5_9 C5_9 1_555 1_555
C4_9 W1_9 1_555 1_555
C5_9 W1_9 1_555 1_555
W3_3 C17_5 1_555 1_555
Cu4 N12_5 1_555 1_555
Cu7_4 N16_5 1_555 1_555
N12_5 C14_5 1_555 1_555
N16_5 C16_5 1_555 1_555
N18_5 Cu4 1_555 1_555
N19_5 Cu4 1_555 1_555
C14_5 W1_9 1_555 1_555
C16_5 W1_9 1_555 1_555
C17_5 N18_5 1_555 1_555
C21_2 N19_5 1_555 1_555
Cu2_7 O1_4 1_555 1_555
W1_10 C1_6 1_555 1_555
Cu5_2 N1_6 1_555 1_555
N1_6 C1_6 1_555 1_555
N3_4 Cu2_8 1_555 1_555
N4_10 C4_10 1_555 1_555
N5_10 C5_10 1_555 1_555
N6_6 Cu5_2 1_555 1_555
N7_6 Cu5_2 1_555 1_555
N8_4 Cu2_8 1_555 1_555
N10_6 Cu5_2 1_555 1_555
C3_6 W1_10 1_555 1_555
C4_10 W1_10 1_555 1_555
C5_10 W1_10 1_555 1_555
C18_4 N6_6 1_555 1_555
C7_6 N7_6 1_555 1_555
C8_4 N8_4 1_555 1_555
C11_6 C12_6 1_555 1_555
C12_6 N10_6 1_555 1_555
C13_6 N10_6 1_555 1_555
H2_6 C11_6 1_555 1_555
H3_6 C12_6 1_555 1_555
H4_6 C13_6 1_555 1_555
W4 C7_6 1_555 1_555
W3_3 C17_6 1_555 1_555
Cu6_2 N12_6 1_555 1_555
Cu7_8 N16_6 1_555 1_555
N12_6 C14_6 1_555 1_555
N16_6 C16_6 1_555 1_555
N18_6 Cu6_2 1_555 1_555
N19_6 Cu6_2 1_555 1_555
N23_2 C28_6 1_555 1_555
N24_6 Cu5_2 1_555 1_555
C14_6 W1_10 1_555 1_555
C16_6 W1_10 1_555 1_555
C17_6 N18_6 1_555 1_555
C20_2 N19_6 1_555 1_555
C26_6 N24_6 1_555 1_555
C27_6 C26_6 1_555 1_555
C28_6 C27_6 1_555 1_555
C29_6 N23_2 1_555 1_555
H5_6 C26_6 1_555 1_555
H6_6 C27_6 1_555 1_555
H7_6 C28_6 1_555 1_555
H8_6 C29_6 1_555 1_555
N3_4 C3_6 1_555 1_555
C8_4 W4 1_555 1_555
N24_6 C29_6 1_555 1_555
W3_2 C22_4 1_555 1_555
N17_4 Cu2_9 1_555 1_555
N20_4 Cu2_9 1_555 1_555
C22_4 N20_4 1_555 1_555
N15_2 C2_6 1_555 1_555
N25_2 C10_6 1_555 1_555
H1_6 C10_6 1_555 1_555
O2_4 Cu2_10 1_555 1_555
N14_2 C15_6 1_555 1_555
N2_4 C2_7 1_555 1_555
N11_4 C10_7 1_555 1_555
H1_7 C10_7 1_555 1_555
Cu4_2 N2_4 1_555 1_555
Cu5_4 N13_4 1_555 1_555
N13_4 C15_7 1_555 1_555
N11_4 Cu4_2 1_555 1_555
W1_11 C1_7 1_555 1_555
Cu1_4 N1_7 1_555 1_555
N1_7 C1_7 1_555 1_555
N4_11 C4_11 1_555 1_555
N5_11 C5_11 1_555 1_555
N6_7 Cu1_4 1_555 1_555
N7_7 Cu1_4 1_555 1_555
N10_7 Cu1_4 1_555 1_555
C3_7 W1_11 1_555 1_555
C4_11 W1_11 1_555 1_555
C5_11 W1_11 1_555 1_555
C18 N6_7 1_555 1_555
C7_7 N7_7 1_555 1_555
C11_7 C12_7 1_555 1_555
C12_7 N10_7 1_555 1_555
C13_7 N10_7 1_555 1_555
H2_7 C11_7 1_555 1_555
H3_7 C12_7 1_555 1_555
H4_7 C13_7 1_555 1_555
W3_2 C7_7 1_555 1_555
W5 C17_7 1_555 1_555
Cu3_4 N12_7 1_555 1_555
Cu4_2 N22_4 1_555 1_555
Cu7_9 N16_7 1_555 1_555
N12_7 C14_7 1_555 1_555
N14_4 Cu1_4 1_555 1_555
N15_4 Cu3_4 1_555 1_555
N16_7 C16_7 1_555 1_555
N18_7 Cu3_4 1_555 1_555
N19_7 Cu3_4 1_555 1_555
N22_4 C28_7 1_555 1_555
N23_4 Cu3_4 1_555 1_555
N24_7 Cu1_4 1_555 1_555
N25_4 Cu3_4 1_555 1_555
C14_7 W1_11 1_555 1_555
C16_7 W1_11 1_555 1_555
C17_7 N18_7 1_555 1_555
C21_3 N19_7 1_555 1_555
C26_7 N24_7 1_555 1_555
C27_7 C26_7 1_555 1_555
C28_7 C27_7 1_555 1_555
C29_7 N22_4 1_555 1_555
H5_7 C26_7 1_555 1_555
H6_7 C27_7 1_555 1_555
H7_7 C28_7 1_555 1_555
H8_7 C29_7 1_555 1_555
N17_4 C3_7 1_555 1_555
N24_7 C29_7 1_555 1_555
W1_12 C1_8 1_555 1_555
Cu5_4 N1_8 1_555 1_555
N1_8 C1_8 1_555 1_555
N15_4 C2_8 1_555 1_555
N4_12 C4_12 1_555 1_555
N5_12 C5_12 1_555 1_555
N6_8 Cu5_4 1_555 1_555
N7_8 Cu5_4 1_555 1_555
N10_8 Cu5_4 1_555 1_555
N25_4 C10_8 1_555 1_555
C2_8 W1_12 1_555 1_555
C3_8 W1_12 1_555 1_555
C4_12 W1_12 1_555 1_555
C5_12 W1_12 1_555 1_555
C18_3 N6_8 1_555 1_555
C7_8 N7_8 1_555 1_555
C10_8 C11_8 1_555 1_555
C11_8 C12_8 1_555 1_555
C12_8 N10_8 1_555 1_555
C13_8 N10_8 1_555 1_555
H1_8 C10_8 1_555 1_555
H2_8 C11_8 1_555 1_555
H3_8 C12_8 1_555 1_555
H4_8 C13_8 1_555 1_555
W5 C7_8 1_555 1_555
W3 C17_8 1_555 1_555
Cu4_2 N12_8 1_555 1_555
Cu7_5 N16_8 1_555 1_555
N12_8 C14_8 1_555 1_555
N14_4 C15_8 1_555 1_555
N16_8 C16_8 1_555 1_555
N18_8 Cu4_2 1_555 1_555
N19_8 Cu4_2 1_555 1_555
N24_8 Cu5_4 1_555 1_555
C14_8 W1_12 1_555 1_555
C15_8 W1_12 1_555 1_555
C16_8 W1_12 1_555 1_555
C17_8 N18_8 1_555 1_555
C21 N19_8 1_555 1_555
C26_8 N24_8 1_555 1_555
H5_8 C26_8 1_555 1_555
N17_2 C3_8 1_555 1_555
N25_4 C13_8 1_555 1_555
N23_4 C28_8 1_555 1_555
C28_8 C27_8 1_555 1_555
C29_8 N23_4 1_555 1_555
H6_8 C27_8 1_555 1_555
H7_8 C28_8 1_555 1_555
H8_8 C29_8 1_555 1_555
N20_5 Cu7 1_555 1_555
C23_3 N20_5 1_555 1_555
O2_5 Cu7_2 1_555 1_555
Cu7_3 O1_5 1_555 1_555
N8_5 Cu7_4 1_555 1_555
N9_5 C9_5 1_555 1_555
C24_2 N8_5 1_555 1_555
C9_5 W3_3 1_555 1_555
N21_5 C25_5 1_555 1_555
C25_5 W3_3 1_555 1_555
Cu7_5 O1_6 1_555 1_555
N8_6 Cu7_5 1_555 1_555
C24 N8_6 1_555 1_555
O2_6 Cu7_5 1_555 1_555
N20_6 Cu7_5 1_555 1_555
N21_6 C25_6 1_555 1_555
C24_4 N20_6 1_555 1_555
C25_6 W3 1_555 1_555
N9_6 C9_6 1_555 1_555
C9_6 W3_2 1_555 1_555
Cu7_6 O1_7 1_555 1_555
N8_7 Cu7_6 1_555 1_555
C23_4 N8_7 1_555 1_555
O2_7 Cu7_6 1_555 1_555
N20_7 Cu7_6 1_555 1_555
N21_7 C25_7 1_555 1_555
C23 N20_7 1_555 1_555
C25_7 W4 1_555 1_555
N9_7 C9_7 1_555 1_555
C9_7 W4_2 1_555 1_555
N9_8 C9_8 1_555 1_555
C9_8 W5 1_555 1_555
N21_8 C25_8 1_555 1_555
C25_8 W5 1_555 1_555
O2_8 Cu7_7 1_555 1_555
N20_8 Cu7_8 1_555 1_555
C23_2 N20_8 1_555 1_555
N8_8 Cu7_9 1_555 1_555
C24_3 N8_8 1_555 1_555
Cu7_10 O1_8 1_555 1_555

#END
