
###############################################################################
#
# This file contains modified crystal structure data generated from the
# MOF subset of the Cambridge Structural Database (CSD) v543 
# hosted by the Cambridge Crystallographic Data Centre (CCDC).
#
# This work is licensed under the Creative Commons
# Attribution-NonCommercial-ShareAlike 4.0 International License.
# To view a copy of this license, visit
# http://creativecommons.org/licenses/by-nc-sa/4.0/
# or send a letter to
# Creative Commons, PO Box 1866, Mountain View, CA 94042, USA.
#
# CIF created using the CSD Python API on 29 September 2022
# The structure has been converted into the P1 space group
# The structure has a 3D framework
# The original CSD entry QIBQOK is in the tetragonal crystal system
# The framework has been calculated to contain at least 10.0% void space
# The void calculation uses a probe of radius 1.32A, grid spacing 0.4
#
###############################################################################

data_QIBQOK
_chemical_formula_moiety         '(C432 H384 Co24 N96 O64 S32)n'
_symmetry_cell_setting           triclinic
_symmetry_space_group_name_H-M   'P 1'
_symmetry_Int_Tables_number      1
_space_group_name_Hall           'P 1'
loop_
_symmetry_equiv_pos_site_id
_symmetry_equiv_pos_as_xyz
1 x,y,z
_cell_length_a                   18.096(3)
_cell_length_b                   18.096(3)
_cell_length_c                   44.219(9)
_cell_angle_alpha                90
_cell_angle_beta                 90
_cell_angle_gamma                90
_cell_volume                     14480.2
loop_
_atom_site_label
_atom_site_type_symbol
_atom_site_fract_x
_atom_site_fract_y
_atom_site_fract_z
Co2 Co -0.0000 0.7500 0.47055(2)
H22 H 0.0337 0.3338 0.6608
H23 H 0.0084 0.6622 0.5297
S4 S 0.14378(8) 0.53575(7) 0.49527(4)
N12 N 0.0687(2) 0.6550(2) 0.47064(7)
C54 C 0.0990(2) 0.6053(2) 0.48075(9)
Co7 Co 0.0000 0.2500 0.72055(2)
N15 N 0.06626(17) 0.80304(17) 0.43677(6)
N17 N 0.06942(17) 0.79680(18) 0.50438(6)
Co1 Co 0.5000 0.2500 0.47382(2)
Co2_2 Co 1.0000 0.7500 0.47055(2)
S1 S 0.64939(8) 0.05059(7) 0.50118(3)
S2 S 0.85622(8) 0.96425(7) 0.49527(4)
O1 O 0.70744(12) 0.61091(13) 0.62585(5)
O2 O 0.66121(12) 0.42772(13) 0.57579(4)
O3 O 0.84318(12) 0.43439(13) 0.61963(4)
O4 O 0.78887(12) 0.60935(13) 0.56605(5)
N1 N 0.59441(16) 0.17620(16) 0.47426(6)
N2 N 0.56858(14) 0.70143(15) 0.68946(5)
N3 N 0.55498(14) 0.31448(14) 0.50783(5)
N4 N 0.94696(17) 0.31626(17) 0.68677(6)
N5 N 0.93058(17) 0.70320(18) 0.50438(6)
C1 C 0.58252(17) 0.63273(18) 0.64381(7)
H1 H 0.5603 0.6076 0.6279
N6 N 0.9313(2) 0.8450(2) 0.47064(7)
C2 C 0.65926(16) 0.63941(17) 0.64565(7)
C3 C 0.75009(15) 0.50951(17) 0.59672(6)
C4 C 0.55508(17) 0.37333(18) 0.55625(7)
H2 H 0.5296 0.3866 0.5737
C5 C 0.68888(17) 0.67876(18) 0.66946(7)
H3 H 0.7397 0.6851 0.6711
C6 C 0.62906(17) 0.39062(17) 0.55286(7)
C7 C 0.87407(18) 0.39670(17) 0.64225(6)
C8 C 0.68284(17) 0.55683(18) 0.60436(6)
H4 H 0.6640 0.5808 0.5863
H5 H 0.6439 0.5266 0.6130
C9 C 0.81644(17) 0.55775(18) 0.58788(7)
H6 H 0.8358 0.5835 0.6054
H7 H 0.8555 0.5277 0.5792
C10 C 0.62571(18) 0.33075(17) 0.50537(7)
H8 H 0.6502 0.3155 0.4880
C11 C 0.77026(17) 0.46424(19) 0.62445(6)
H9 H 0.7698 0.4952 0.6424
H10 H 0.7349 0.4245 0.6273
C12 C 0.66585(18) 0.36867(19) 0.52673(7)
H11 H 0.7156 0.3792 0.5238
C13 C 0.73243(17) 0.46001(19) 0.57009(7)
H12 H 0.7314 0.4886 0.5515
H13 H 0.7696 0.4217 0.5681
C14 C 0.54086(17) 0.66435(18) 0.66626(7)
H14 H 0.4898 0.6594 0.6651
C15 C 0.94946(18) 0.38133(18) 0.63977(7)
H15 H 0.9762 0.3972 0.6230
C16 C 0.8364(2) 0.37169(19) 0.66743(7)
H16 H 0.7863 0.3814 0.6699
C17 C 0.64265(17) 0.70814(19) 0.69056(7)
H17 H 0.6633 0.7342 0.7066
C18 C 0.52046(18) 0.33638(18) 0.53351(7)
H18 H 0.4705 0.3256 0.5357
C19 C 0.83824(19) 0.64020(19) 0.54724(7)
C20 C 0.91483(19) 0.6345(2) 0.55012(7)
H19 H 0.9362 0.6100 0.5664
C21 C 0.8090(2) 0.6799(2) 0.52311(7)
H20 H 0.7582 0.6858 0.5210
C22 C 0.8752(2) 0.3320(2) 0.68875(7)
H21 H 0.8497 0.3150 0.7056
C23 C 0.9832(2) 0.3426(2) 0.66233(7)
C24 C 0.9010(2) 0.8947(2) 0.48075(9)
C25 C 0.9574(2) 0.6665(2) 0.52805(7)
C26 C 0.6158(2) 0.1258(2) 0.48571(9)
C27 C 0.8566(2) 0.7101(2) 0.50261(7)
H24 H 0.8369 0.7369 0.4866
S3 S 0.35061(8) 0.44941(7) 0.50118(3)
O6 O 0.33879(12) 0.07228(13) 0.57579(4)
O7 O 0.15682(12) 0.06561(13) 0.61963(4)
N7 N 0.40559(16) 0.32380(16) 0.47426(6)
N9 N 0.44502(14) 0.18552(14) 0.50783(5)
N10 N 0.05304(17) 0.18374(17) 0.68677(6)
C31 C 0.44492(17) 0.12667(18) 0.55625(7)
H26 H 0.4704 0.1134 0.5737
C33 C 0.37094(17) 0.10938(17) 0.55286(7)
C34 C 0.12593(18) 0.10330(17) 0.64225(6)
C37 C 0.37429(18) 0.16925(17) 0.50537(7)
H32 H 0.3498 0.1845 0.4880
C38 C 0.22974(17) 0.03576(19) 0.62445(6)
H33 H 0.2302 0.0048 0.6424
H34 H 0.2651 0.0755 0.6273
C39 C 0.33415(18) 0.13133(19) 0.52673(7)
H35 H 0.2844 0.1208 0.5238
C40 C 0.26757(17) 0.03999(19) 0.57009(7)
H36 H 0.2686 0.0114 0.5515
H37 H 0.2304 0.0783 0.5681
C42 C 0.05054(18) 0.11867(18) 0.63977(7)
H39 H 0.0238 0.1028 0.6230
C43 C 0.1636(2) 0.12831(19) 0.66743(7)
H40 H 0.2137 0.1186 0.6699
C45 C 0.47954(18) 0.16362(18) 0.53351(7)
H42 H 0.5295 0.1744 0.5357
C49 C 0.1248(2) 0.1680(2) 0.68875(7)
H45 H 0.1503 0.1850 0.7056
C50 C 0.0168(2) 0.1574(2) 0.66233(7)
C52 C 0.3842(2) 0.3742(2) 0.48571(9)
Co4 Co 0.5000 0.7500 0.72382(2)
Co7_2 Co 1.0000 0.2500 0.72055(2)
N13 N 0.45143(15) 0.18142(14) 0.43946(5)
N14 N 0.54857(15) 0.31858(14) 0.43946(5)
N16 N 0.93374(17) 0.69696(17) 0.43677(6)
O5 O 0.29256(12) 0.88909(13) 0.62585(5)
O8 O 0.21113(12) 0.89065(13) 0.56605(5)
N8 N 0.43142(14) 0.79857(15) 0.68946(5)
C28 C 0.41748(17) 0.86727(18) 0.64381(7)
H25 H 0.4397 0.8924 0.6279
C29 C 0.34074(16) 0.86059(17) 0.64565(7)
C30 C 0.24991(15) 0.99049(17) 0.59672(6)
C32 C 0.31112(17) 0.82124(18) 0.66946(7)
H27 H 0.2603 0.8149 0.6711
C35 C 0.31716(17) 0.94317(18) 0.60436(6)
H28 H 0.3360 0.9192 0.5863
H29 H 0.3561 0.9734 0.6130
C36 C 0.18356(17) 0.94225(18) 0.58788(7)
H30 H 0.1642 0.9165 0.6054
H31 H 0.1445 0.9723 0.5792
C41 C 0.45914(17) 0.83565(18) 0.66626(7)
H38 H 0.5102 0.8406 0.6651
C44 C 0.35735(17) 0.79186(19) 0.69056(7)
H41 H 0.3367 0.7658 0.7066
C46 C 0.16176(19) 0.85980(19) 0.54724(7)
C47 C 0.08517(19) 0.8655(2) 0.55012(7)
H43 H 0.0638 0.8900 0.5664
C48 C 0.1910(2) 0.8201(2) 0.52311(7)
H44 H 0.2418 0.8142 0.5210
C51 C 0.0426(2) 0.8335(2) 0.52805(7)
C53 C 0.1434(2) 0.7899(2) 0.50261(7)
H48 H 0.1631 0.7631 0.4866
H46 H 0.9663 0.1662 0.6608
H47 H 0.9916 0.8378 0.5297
O5_2 O 0.20744(12) 0.11091(13) 0.12585(5)
O8_2 O 0.28887(12) 0.10935(13) 0.06605(5)
N8_2 N 0.06858(14) 0.20143(15) 0.18946(5)
N11 N 0.43058(17) 0.20320(18) 0.00438(6)
C28_2 C 0.08252(17) 0.13273(18) 0.14381(7)
H25_2 H 0.0603 0.1076 0.1279
C29_2 C 0.15926(16) 0.13941(17) 0.14565(7)
C30_2 C 0.25009(15) 0.00951(17) 0.09672(6)
C32_2 C 0.18888(17) 0.17876(18) 0.16946(7)
H27_2 H 0.2397 0.1851 0.1711
C35_2 C 0.18284(17) 0.05683(18) 0.10436(6)
H28_2 H 0.1640 0.0808 0.0863
H29_2 H 0.1439 0.0266 0.1130
C36_2 C 0.31644(17) 0.05775(18) 0.08788(7)
H30_2 H 0.3358 0.0835 0.1054
H31_2 H 0.3555 0.0277 0.0792
C41_2 C 0.04086(17) 0.16435(18) 0.16626(7)
C44_2 C 0.14265(17) 0.20814(19) 0.19056(7)
H41_2 H 0.1633 0.2342 0.2066
C46_2 C 0.33824(19) 0.14020(19) 0.04724(7)
C47_2 C 0.41483(19) 0.1345(2) 0.05012(7)
H43_2 H 0.4362 0.1100 0.0664
C48_2 C 0.3090(2) 0.1799(2) 0.02311(7)
H44_2 H 0.2582 0.1858 0.0210
C51_2 C 0.4574(2) 0.1665(2) 0.02805(7)
H47_2 H 0.5084 0.1622 0.0297
C53_2 C 0.3566(2) 0.2101(2) 0.00261(7)
Co3 Co 0.0000 0.2500 0.22382(2)
H48_2 H 0.3369 0.2369 0.9866
Co5 Co 0.5000 0.2500 0.97055(2)
H14_2 H 0.0102 0.3406 0.1651
H18_2 H 0.0295 0.6744 0.0357
S3_2 S 0.14939(8) 0.55059(7) 0.00118(3)
O6_2 O 0.16121(12) 0.92772(13) 0.07579(4)
O7_2 O 0.34318(12) 0.93439(13) 0.11963(4)
N9_2 N 0.05498(14) 0.81448(14) 0.00783(5)
N10_2 N 0.44696(17) 0.81626(17) 0.18677(6)
C31_2 C 0.05508(17) 0.87333(18) 0.05625(7)
H26_2 H 0.0296 0.8866 0.0737
C33_2 C 0.12906(17) 0.89062(17) 0.05286(7)
C34_2 C 0.37407(18) 0.89670(17) 0.14225(6)
C37_2 C 0.12571(18) 0.83075(17) 0.00537(7)
C38_2 C 0.27026(17) 0.96424(19) 0.12445(6)
H33_2 H 0.2698 0.9952 0.1424
H34_2 H 0.2349 0.9245 0.1273
C39_2 C 0.16585(18) 0.86867(19) 0.02673(7)
H35_2 H 0.2156 0.8792 0.0238
C40_2 C 0.23243(17) 0.96001(19) 0.07009(7)
H36_2 H 0.2314 0.9886 0.0515
H37_2 H 0.2696 0.9217 0.0681
C42_2 C 0.44946(18) 0.88133(18) 0.13977(7)
H39_2 H 0.4762 0.8972 0.1230
C43_2 C 0.3364(2) 0.87169(19) 0.16743(7)
H40_2 H 0.2863 0.8814 0.1699
C45_2 C 0.02046(18) 0.83638(18) 0.03351(7)
C49_2 C 0.3752(2) 0.8320(2) 0.18875(7)
H45_2 H 0.3497 0.8150 0.2056
C50_2 C 0.4832(2) 0.8426(2) 0.16233(7)
H46_2 H 0.5337 0.8338 0.1608
Co6 Co 0.5000 0.7500 0.22055(2)
Co1_2 Co 0.0000 0.7500 0.97382(2)
N7_2 N 0.09441(16) 0.67620(16) 0.97426(6)
H32_2 H 0.1502 0.8155 0.9880
C52_2 C 0.1158(2) 0.6258(2) 0.98571(9)
N13_2 N 0.04857(15) 0.81858(14) 0.93946(5)
H38_2 H 0.9898 0.1594 0.1651
Co3_2 Co 1.0000 0.2500 0.22382(2)
S1_2 S 0.85061(8) 0.94941(7) 0.00118(3)
O1_2 O 0.79256(12) 0.38909(13) 0.12585(5)
O2_2 O 0.83879(12) 0.57228(13) 0.07579(4)
O3_2 O 0.65682(12) 0.56561(13) 0.11963(4)
O4_2 O 0.71113(12) 0.39065(13) 0.06605(5)
N2_2 N 0.93142(14) 0.29857(15) 0.18946(5)
N3_2 N 0.94502(14) 0.68552(14) 0.00783(5)
N4_2 N 0.55304(17) 0.68374(17) 0.18677(6)
N5_2 N 0.56942(17) 0.29680(18) 0.00438(6)
C1_2 C 0.91748(17) 0.36727(18) 0.14381(7)
H1_2 H 0.9397 0.3924 0.1279
C2_2 C 0.84074(16) 0.36059(17) 0.14565(7)
C3_2 C 0.74991(15) 0.49049(17) 0.09672(6)
C4_2 C 0.94492(17) 0.62667(18) 0.05625(7)
H2_2 H 0.9704 0.6134 0.0737
C5_2 C 0.81112(17) 0.32124(18) 0.16946(7)
H3_2 H 0.7603 0.3149 0.1711
C6_2 C 0.87094(17) 0.60938(17) 0.05286(7)
C7_2 C 0.62593(18) 0.60330(17) 0.14225(6)
C8_2 C 0.81716(17) 0.44317(18) 0.10436(6)
H4_2 H 0.8360 0.4192 0.0863
H5_2 H 0.8561 0.4734 0.1130
C9_2 C 0.68356(17) 0.44225(18) 0.08788(7)
H6_2 H 0.6642 0.4165 0.1054
H7_2 H 0.6445 0.4723 0.0792
C10_2 C 0.87429(18) 0.66925(17) 0.00537(7)
C11_2 C 0.72974(17) 0.53576(19) 0.12445(6)
H9_2 H 0.7302 0.5048 0.1424
H10_2 H 0.7651 0.5755 0.1273
C12_2 C 0.83415(18) 0.63133(19) 0.02673(7)
H11_2 H 0.7844 0.6208 0.0238
C13_2 C 0.76757(17) 0.53999(19) 0.07009(7)
H12_2 H 0.7686 0.5114 0.0515
H13_2 H 0.7304 0.5783 0.0681
C14_2 C 0.95914(17) 0.33565(18) 0.16626(7)
C15_2 C 0.55054(18) 0.61867(18) 0.13977(7)
H15_2 H 0.5238 0.6028 0.1230
C16_2 C 0.6636(2) 0.62831(19) 0.16743(7)
H16_2 H 0.7137 0.6186 0.1699
C17_2 C 0.85735(17) 0.29186(19) 0.19056(7)
H17_2 H 0.8367 0.2658 0.2066
C18_2 C 0.97954(18) 0.66362(18) 0.03351(7)
C19_2 C 0.66176(19) 0.35980(19) 0.04724(7)
C20_2 C 0.58517(19) 0.3655(2) 0.05012(7)
H19_2 H 0.5638 0.3900 0.0664
C21_2 C 0.6910(2) 0.3201(2) 0.02311(7)
H20_2 H 0.7418 0.3142 0.0210
C22_2 C 0.6248(2) 0.6680(2) 0.18875(7)
H21_2 H 0.6503 0.6850 0.2056
C23_2 C 0.5168(2) 0.6574(2) 0.16233(7)
H22_2 H 0.4663 0.6662 0.1608
C25_2 C 0.5426(2) 0.3335(2) 0.02805(7)
H23_2 H 0.4916 0.3378 0.0297
C27_2 C 0.6434(2) 0.2899(2) 0.00261(7)
H42_2 H 0.9705 0.8256 0.0357
Co1_3 Co 1.0000 0.7500 0.97382(2)
S2_2 S 0.64378(8) 0.03575(7) 0.99527(4)
N1_2 N 0.90559(16) 0.82380(16) 0.97426(6)
N6_2 N 0.5687(2) 0.1550(2) 0.97064(7)
H8_2 H 0.8498 0.6845 0.9880
C24_2 C 0.5990(2) 0.1053(2) 0.98075(9)
C26_2 C 0.8842(2) 0.8742(2) 0.98571(9)
H24_2 H 0.6631 0.2631 0.9866
S4_2 S 0.35622(8) 0.46425(7) 0.99527(4)
N12_2 N 0.4313(2) 0.3450(2) 0.97064(7)
C54_2 C 0.4010(2) 0.3947(2) 0.98075(9)
N14_2 N 0.95143(15) 0.68142(14) 0.93946(5)
N15_2 N 0.43374(17) 0.19696(17) 0.93677(6)
N16_2 N 0.56626(17) 0.30304(17) 0.93677(6)
O3_3 O 0.31561(13) 0.09318(12) 0.86963(4)
O4_3 O 0.14065(13) 0.03887(12) 0.81605(5)
N5_3 N 0.04680(18) 0.18058(17) 0.75438(6)
C3_3 C 0.24049(17) 0.00009(15) 0.84672(6)
C7_3 C 0.35330(17) 0.12407(18) 0.89225(6)
C9_3 C 0.19225(18) 0.06644(17) 0.83788(7)
H6_3 H 0.1665 0.0858 0.8554
H7_3 H 0.2223 0.1055 0.8292
C11_3 C 0.28576(19) 0.02026(17) 0.87445(6)
H9_3 H 0.2548 0.0198 0.8924
H13_3 H 0.3283 0.0196 0.8181
C15_3 C 0.36867(18) 0.19946(18) 0.88977(7)
H15_3 H 0.3528 0.2262 0.8730
C16_3 C 0.37831(19) 0.0864(2) 0.91743(7)
H16_3 H 0.3686 0.0363 0.9199
C19_3 C 0.10980(19) 0.08824(19) 0.79724(7)
C20_3 C 0.1155(2) 0.16483(19) 0.80012(7)
H19_3 H 0.1400 0.1862 0.8164
C21_3 C 0.0701(2) 0.0590(2) 0.77311(7)
H20_3 H 0.0642 0.0082 0.7710
C22_3 C 0.4180(2) 0.1252(2) 0.93875(7)
H21_3 H 0.4350 0.0997 0.9556
C23_3 C 0.4074(2) 0.2332(2) 0.91233(7)
H22_3 H 0.4162 0.2837 0.9108
C25_3 C 0.0835(2) 0.2074(2) 0.77805(7)
H23_3 H 0.0878 0.2584 0.7797
C27_3 C 0.0399(2) 0.1066(2) 0.75261(7)
H24_3 H 0.0131 0.0869 0.7366
S4_3 S 0.21425(7) 0.39378(8) 0.74527(4)
N12_3 N 0.0950(2) 0.3187(2) 0.72064(7)
C54_3 C 0.1447(2) 0.3490(2) 0.73075(9)
S1_3 S 0.69941(7) 0.89939(8) 0.75118(3)
O1_3 O 0.13909(13) 0.95744(12) 0.87585(5)
O2_3 O 0.32228(13) 0.91121(12) 0.82579(4)
N1_3 N 0.57380(16) 0.84441(16) 0.72426(6)
N3_3 N 0.43552(14) 0.80498(14) 0.75783(5)
C1_3 C 0.11727(18) 0.83252(17) 0.89381(7)
H1_3 H 0.1424 0.8103 0.8779
C2_3 C 0.11059(17) 0.90926(16) 0.89565(7)
C4_3 C 0.37667(18) 0.80508(17) 0.80625(7)
H2_3 H 0.3634 0.7796 0.8237
C5_3 C 0.07124(18) 0.93888(17) 0.91946(7)
H3_3 H 0.0649 0.9897 0.9211
C6_3 C 0.35938(17) 0.87906(17) 0.80286(7)
C8_3 C 0.19317(18) 0.93284(17) 0.85436(6)
H4_3 H 0.1692 0.9140 0.8363
H5_3 H 0.2234 0.8939 0.8630
C10_3 C 0.41925(17) 0.87571(18) 0.75537(7)
H8_3 H 0.4345 0.9002 0.7380
H10_3 H 0.3255 0.9849 0.8773
C12_3 C 0.38133(19) 0.91585(18) 0.77673(7)
H11_3 H 0.3708 0.9656 0.7738
C13_3 C 0.28999(19) 0.98243(17) 0.82009(7)
H12_3 H 0.2614 0.9814 0.8015
C14_3 C 0.08565(18) 0.79086(17) 0.91626(7)
H14_3 H 0.0906 0.7398 0.9151
C17_3 C 0.04186(19) 0.89265(17) 0.94056(7)
H17_3 H 0.0158 0.9133 0.9566
C18_3 C 0.41362(18) 0.77046(18) 0.78351(7)
H18_3 H 0.4244 0.7205 0.7857
C26_3 C 0.6242(2) 0.8658(2) 0.73571(9)
S3_3 S 0.30059(7) 0.60061(8) 0.75118(3)
O5_3 O 0.86091(13) 0.54256(12) 0.87585(5)
O6_3 O 0.67772(13) 0.58879(12) 0.82579(4)
O7_3 O 0.68439(13) 0.40682(12) 0.86963(4)
O8_3 O 0.85935(13) 0.46113(12) 0.81605(5)
N7_3 N 0.42620(16) 0.65559(16) 0.72426(6)
N9_3 N 0.56448(14) 0.69502(14) 0.75783(5)
N11_2 N 0.95320(18) 0.31942(17) 0.75438(6)
C28_3 C 0.88273(18) 0.66748(17) 0.89381(7)
H25_3 H 0.8576 0.6897 0.8779
C29_3 C 0.88941(17) 0.59074(16) 0.89565(7)
C30_3 C 0.75951(17) 0.49991(15) 0.84672(6)
C31_3 C 0.62333(18) 0.69492(17) 0.80625(7)
H26_3 H 0.6366 0.7204 0.8237
C32_3 C 0.92876(18) 0.56112(17) 0.91946(7)
H27_3 H 0.9351 0.5103 0.9211
C33_3 C 0.64062(17) 0.62094(17) 0.80286(7)
C34_3 C 0.64670(17) 0.37593(18) 0.89225(6)
C35_3 C 0.80683(18) 0.56716(17) 0.85436(6)
H28_3 H 0.8308 0.5860 0.8363
H29_3 H 0.7766 0.6061 0.8630
C36_3 C 0.80775(18) 0.43356(17) 0.83788(7)
H30_3 H 0.8335 0.4142 0.8554
H31_3 H 0.7777 0.3945 0.8292
C37_3 C 0.58075(17) 0.62429(18) 0.75537(7)
H32_3 H 0.5655 0.5998 0.7380
C38_3 C 0.71424(19) 0.47974(17) 0.87445(6)
H33_3 H 0.7452 0.4802 0.8924
H34_3 H 0.6745 0.5151 0.8773
C39_3 C 0.61867(19) 0.58415(18) 0.77673(7)
H35_3 H 0.6292 0.5344 0.7738
C40_3 C 0.71001(19) 0.51757(17) 0.82009(7)
H36_3 H 0.7386 0.5186 0.8015
H37_3 H 0.6717 0.4804 0.8181
C41_3 C 0.91435(18) 0.70914(17) 0.91626(7)
H38_3 H 0.9094 0.7602 0.9151
C42_3 C 0.63133(18) 0.30054(18) 0.88977(7)
H39_3 H 0.6472 0.2738 0.8730
C43_3 C 0.62169(19) 0.4136(2) 0.91743(7)
H40_3 H 0.6314 0.4637 0.9199
C44_3 C 0.95814(19) 0.60735(17) 0.94056(7)
H41_3 H 0.9842 0.5867 0.9566
C45_3 C 0.58638(18) 0.72954(18) 0.78351(7)
H42_3 H 0.5756 0.7795 0.7857
C46_3 C 0.89020(19) 0.41176(19) 0.79724(7)
C47_3 C 0.8845(2) 0.33517(19) 0.80012(7)
H43_3 H 0.8600 0.3138 0.8164
C48_3 C 0.9299(2) 0.4410(2) 0.77311(7)
H44_3 H 0.9358 0.4918 0.7710
C49_3 C 0.5820(2) 0.3748(2) 0.93875(7)
H45_3 H 0.5650 0.4003 0.9556
C50_3 C 0.5926(2) 0.2668(2) 0.91233(7)
H46_3 H 0.5838 0.2163 0.9108
C51_3 C 0.9165(2) 0.2926(2) 0.77805(7)
H47_3 H 0.9122 0.2416 0.7797
C52_3 C 0.3758(2) 0.6342(2) 0.73571(9)
C53_3 C 0.9601(2) 0.3934(2) 0.75261(7)
H48_3 H 0.9869 0.4131 0.7366
S2_3 S 0.78575(7) 0.10622(8) 0.74527(4)
N6_3 N 0.9050(2) 0.1813(2) 0.72064(7)
C24_3 C 0.8553(2) 0.1510(2) 0.73075(9)
O1_4 O 0.36091(13) 0.04256(12) 0.37585(5)
O2_4 O 0.17772(13) 0.08879(12) 0.32579(4)
N3_4 N 0.06448(14) 0.19502(14) 0.25783(5)
C1_4 C 0.38273(18) 0.16748(17) 0.39381(7)
H1_4 H 0.3576 0.1897 0.3779
C2_4 C 0.38941(17) 0.09074(16) 0.39565(7)
C4_4 C 0.12333(18) 0.19492(17) 0.30625(7)
H2_4 H 0.1366 0.2204 0.3237
C5_4 C 0.42876(18) 0.06112(17) 0.41946(7)
H3_4 H 0.4351 0.0103 0.4211
C6_4 C 0.14062(17) 0.12094(17) 0.30286(7)
C8_4 C 0.30683(18) 0.06716(17) 0.35436(6)
H4_4 H 0.3308 0.0860 0.3363
H5_4 H 0.2766 0.1061 0.3630
C10_4 C 0.08075(17) 0.12429(18) 0.25537(7)
H8_4 H 0.0655 0.0998 0.2380
H10_4 H 0.1745 0.0151 0.3773
C12_4 C 0.11867(19) 0.08415(18) 0.27673(7)
H11_4 H 0.1292 0.0344 0.2738
C13_4 C 0.21001(19) 0.01757(17) 0.32009(7)
H12_4 H 0.2386 0.0186 0.3015
C14_4 C 0.41435(18) 0.20914(17) 0.41626(7)
H14_4 H 0.4094 0.2602 0.4151
C17_4 C 0.45814(19) 0.10735(17) 0.44056(7)
H17_4 H 0.4842 0.0867 0.4566
C18_4 C 0.08638(18) 0.22954(18) 0.28351(7)
H18_4 H 0.0756 0.2795 0.2857
S3_4 S 0.19941(7) 0.39939(8) 0.25118(3)
N7_4 N 0.07380(16) 0.34441(16) 0.22426(6)
C52_4 C 0.1242(2) 0.3658(2) 0.23571(9)
S2_4 S 0.71425(7) 0.89378(8) 0.24527(4)
O3_4 O 0.18439(13) 0.90682(12) 0.36963(4)
O4_4 O 0.35935(13) 0.96113(12) 0.31605(5)
N5_4 N 0.45320(18) 0.81942(17) 0.25438(6)
N6_4 N 0.5950(2) 0.8187(2) 0.22064(7)
C3_4 C 0.25951(17) 0.99991(15) 0.34672(6)
C7_4 C 0.14670(17) 0.87593(18) 0.39225(6)
C9_4 C 0.30775(18) 0.93356(17) 0.33788(7)
H6_4 H 0.3335 0.9142 0.3554
H7_4 H 0.2777 0.8945 0.3292
C11_4 C 0.21424(19) 0.97974(17) 0.37445(6)
H9_4 H 0.2452 0.9802 0.3924
H13_4 H 0.1717 0.9804 0.3181
C15_4 C 0.13133(18) 0.80054(18) 0.38977(7)
H15_4 H 0.1472 0.7738 0.3730
C16_4 C 0.12169(19) 0.9136(2) 0.41743(7)
H16_4 H 0.1314 0.9637 0.4199
C19_4 C 0.39020(19) 0.91176(19) 0.29724(7)
C20_4 C 0.3845(2) 0.83517(19) 0.30012(7)
H19_4 H 0.3600 0.8138 0.3164
C21_4 C 0.4299(2) 0.9410(2) 0.27311(7)
H20_4 H 0.4358 0.9918 0.2710
C22_4 C 0.0820(2) 0.8748(2) 0.43875(7)
H21_4 H 0.0650 0.9003 0.4556
C23_4 C 0.0926(2) 0.7668(2) 0.41233(7)
H22_4 H 0.0838 0.7163 0.4108
C24_4 C 0.6447(2) 0.8490(2) 0.23075(9)
C25_4 C 0.4165(2) 0.7926(2) 0.27805(7)
H23_4 H 0.4122 0.7416 0.2797
C27_4 C 0.4601(2) 0.8934(2) 0.25261(7)
H24_4 H 0.4869 0.9131 0.2366
S4_4 S 0.28575(7) 0.60622(8) 0.24527(4)
N12_4 N 0.4050(2) 0.6813(2) 0.22064(7)
C54_4 C 0.3553(2) 0.6510(2) 0.23075(9)
N17_2 N 0.54680(18) 0.68058(17) 0.25438(6)
S1_4 S 0.80059(7) 0.10061(8) 0.25118(3)
N1_4 N 0.92620(16) 0.15559(16) 0.22426(6)
C26_4 C 0.8758(2) 0.1342(2) 0.23571(9)
O5_4 O 0.63909(13) 0.45744(12) 0.37585(5)
O6_4 O 0.82228(13) 0.41121(12) 0.32579(4)
O7_4 O 0.81561(13) 0.59318(12) 0.36963(4)
O8_4 O 0.64065(13) 0.53887(12) 0.31605(5)
N9_4 N 0.93552(14) 0.30498(14) 0.25783(5)
C28_4 C 0.61727(18) 0.33252(17) 0.39381(7)
H25_4 H 0.6424 0.3103 0.3779
C29_4 C 0.61059(17) 0.40926(16) 0.39565(7)
C30_4 C 0.74049(17) 0.50009(15) 0.34672(6)
C31_4 C 0.87667(18) 0.30508(17) 0.30625(7)
H26_4 H 0.8634 0.2796 0.3237
C32_4 C 0.57124(18) 0.43888(17) 0.41946(7)
H27_4 H 0.5649 0.4897 0.4211
C33_4 C 0.85938(17) 0.37906(17) 0.30286(7)
C34_4 C 0.85330(17) 0.62407(18) 0.39225(6)
C35_4 C 0.69317(18) 0.43284(17) 0.35436(6)
H28_4 H 0.6692 0.4140 0.3363
H29_4 H 0.7234 0.3939 0.3630
C36_4 C 0.69225(18) 0.56644(17) 0.33788(7)
H30_4 H 0.6665 0.5858 0.3554
H31_4 H 0.7223 0.6055 0.3292
C37_4 C 0.91925(17) 0.37571(18) 0.25537(7)
H32_4 H 0.9345 0.4002 0.2380
C38_4 C 0.78576(19) 0.52026(17) 0.37445(6)
H33_4 H 0.7548 0.5198 0.3924
H34_4 H 0.8255 0.4849 0.3773
C39_4 C 0.88133(19) 0.41585(18) 0.27673(7)
H35_4 H 0.8708 0.4656 0.2738
C40_4 C 0.78999(19) 0.48243(17) 0.32009(7)
H36_4 H 0.7614 0.4814 0.3015
H37_4 H 0.8283 0.5196 0.3181
C41_4 C 0.58565(18) 0.29086(17) 0.41626(7)
H38_4 H 0.5906 0.2398 0.4151
C42_4 C 0.86867(18) 0.69946(18) 0.38977(7)
H39_4 H 0.8528 0.7262 0.3730
C43_4 C 0.87831(19) 0.5864(2) 0.41743(7)
H40_4 H 0.8686 0.5363 0.4199
C44_4 C 0.54186(19) 0.39265(17) 0.44056(7)
H41_4 H 0.5158 0.4133 0.4566
C45_4 C 0.91362(18) 0.27046(18) 0.28351(7)
H42_4 H 0.9244 0.2205 0.2857
C46_4 C 0.60980(19) 0.58824(19) 0.29724(7)
C47_4 C 0.6155(2) 0.66483(19) 0.30012(7)
H43_4 H 0.6400 0.6862 0.3164
C48_4 C 0.5701(2) 0.5590(2) 0.27311(7)
H44_4 H 0.5642 0.5082 0.2710
C49_4 C 0.9180(2) 0.6252(2) 0.43875(7)
H45_4 H 0.9350 0.5997 0.4556
C50_4 C 0.9074(2) 0.7332(2) 0.41233(7)
H46_4 H 0.9162 0.7837 0.4108
C51_4 C 0.5835(2) 0.7074(2) 0.27805(7)
H47_4 H 0.5878 0.7584 0.2797
C53_4 C 0.5399(2) 0.6066(2) 0.25261(7)
H48_4 H 0.5131 0.5869 0.2366
H47_5 H 0.0084 0.1622 0.4703
Co5_2 Co 0.0000 0.2500 0.52945(2)
H46_5 H 0.0337 0.8338 0.3392
Co6_2 Co 0.0000 0.7500 0.27945(2)
O5_5 O 0.70744(12) 0.11091(13) 0.37415(5)
O8_5 O 0.78887(12) 0.10935(13) 0.43395(5)
N8_3 N 0.56858(14) 0.20143(15) 0.31054(5)
N11_3 N 0.93058(17) 0.20320(18) 0.49562(6)
C28_5 C 0.58252(17) 0.13273(18) 0.35619(7)
H25_5 H 0.5603 0.1076 0.3721
C29_5 C 0.65926(16) 0.13941(17) 0.35435(7)
C30_5 C 0.75009(15) 0.00951(17) 0.40328(6)
C32_5 C 0.68888(17) 0.17876(18) 0.33054(7)
H27_5 H 0.7397 0.1851 0.3289
C35_5 C 0.68284(17) 0.05683(18) 0.39564(6)
H28_5 H 0.6640 0.0808 0.4137
H29_5 H 0.6439 0.0266 0.3870
C36_5 C 0.81644(17) 0.05775(18) 0.41212(7)
H30_5 H 0.8358 0.0835 0.3946
H31_5 H 0.8555 0.0277 0.4208
C41_5 C 0.54086(17) 0.16435(18) 0.33374(7)
H38_5 H 0.4898 0.1594 0.3349
C44_5 C 0.64265(17) 0.20814(19) 0.30944(7)
H41_5 H 0.6633 0.2342 0.2934
C46_5 C 0.83824(19) 0.14020(19) 0.45276(7)
C47_5 C 0.91483(19) 0.1345(2) 0.44988(7)
H43_5 H 0.9362 0.1100 0.4336
C48_5 C 0.8090(2) 0.1799(2) 0.47689(7)
H44_5 H 0.7582 0.1858 0.4790
C51_5 C 0.9574(2) 0.1665(2) 0.47195(7)
C53_5 C 0.8566(2) 0.2101(2) 0.49739(7)
H48_5 H 0.8369 0.2369 0.5134
Co3_3 Co 0.5000 0.2500 0.27618(2)
Co5_3 Co 1.0000 0.2500 0.52945(2)
Co1_4 Co 0.5000 0.7500 0.52618(2)
S1_5 S 0.35061(8) 0.94941(7) 0.49882(3)
S2_5 S 0.14378(8) 0.03575(7) 0.50473(4)
O1_5 O 0.29256(12) 0.38909(13) 0.37415(5)
O2_5 O 0.33879(12) 0.57228(13) 0.42421(4)
O3_5 O 0.15682(12) 0.56561(13) 0.38037(4)
O4_5 O 0.21113(12) 0.39065(13) 0.43395(5)
N1_5 N 0.40559(16) 0.82380(16) 0.52574(6)
N2_3 N 0.43142(14) 0.29857(15) 0.31054(5)
N3_5 N 0.44502(14) 0.68552(14) 0.49217(5)
N4_3 N 0.05304(17) 0.68374(17) 0.31323(6)
N5_5 N 0.06942(17) 0.29680(18) 0.49562(6)
C1_5 C 0.41748(17) 0.36727(18) 0.35619(7)
H1_5 H 0.4397 0.3924 0.3721
N6_5 N 0.0687(2) 0.1550(2) 0.52936(7)
C2_5 C 0.34074(16) 0.36059(17) 0.35435(7)
C3_5 C 0.24991(15) 0.49049(17) 0.40328(6)
C4_5 C 0.44492(17) 0.62667(18) 0.44375(7)
H2_5 H 0.4704 0.6134 0.4263
C5_5 C 0.31112(17) 0.32124(18) 0.33054(7)
H3_5 H 0.2603 0.3149 0.3289
C6_5 C 0.37094(17) 0.60938(17) 0.44714(7)
C7_5 C 0.12593(18) 0.60330(17) 0.35775(6)
C8_5 C 0.31716(17) 0.44317(18) 0.39564(6)
H4_5 H 0.3360 0.4192 0.4137
H5_5 H 0.3561 0.4734 0.3870
C9_5 C 0.18356(17) 0.44225(18) 0.41212(7)
H6_5 H 0.1642 0.4165 0.3946
H7_5 H 0.1445 0.4723 0.4208
C10_5 C 0.37429(18) 0.66925(17) 0.49463(7)
H8_5 H 0.3498 0.6845 0.5120
C11_5 C 0.22974(17) 0.53576(19) 0.37555(6)
H9_5 H 0.2302 0.5048 0.3576
H10_5 H 0.2651 0.5755 0.3727
C12_5 C 0.33415(18) 0.63133(19) 0.47327(7)
H11_5 H 0.2844 0.6208 0.4762
C13_5 C 0.26757(17) 0.53999(19) 0.42991(7)
H12_5 H 0.2686 0.5114 0.4485
H13_5 H 0.2304 0.5783 0.4319
C14_5 C 0.45914(17) 0.33565(18) 0.33374(7)
H14_5 H 0.5102 0.3406 0.3349
C15_5 C 0.05054(18) 0.61867(18) 0.36023(7)
H15_5 H 0.0238 0.6028 0.3770
C16_5 C 0.1636(2) 0.62831(19) 0.33257(7)
H16_5 H 0.2137 0.6186 0.3301
C17_5 C 0.35735(17) 0.29186(19) 0.30944(7)
H17_5 H 0.3367 0.2658 0.2934
C18_5 C 0.47954(18) 0.66362(18) 0.46649(7)
H18_5 H 0.5295 0.6744 0.4643
C19_5 C 0.16176(19) 0.35980(19) 0.45276(7)
C20_5 C 0.08517(19) 0.3655(2) 0.44988(7)
H19_5 H 0.0638 0.3900 0.4336
C21_5 C 0.1910(2) 0.3201(2) 0.47689(7)
H20_5 H 0.2418 0.3142 0.4790
C22_5 C 0.1248(2) 0.6680(2) 0.31125(7)
H21_5 H 0.1503 0.6850 0.2944
C23_5 C 0.0168(2) 0.6574(2) 0.33767(7)
C24_5 C 0.0990(2) 0.1053(2) 0.51925(9)
C25_5 C 0.0426(2) 0.3335(2) 0.47195(7)
C26_5 C 0.3842(2) 0.8742(2) 0.51429(9)
C27_5 C 0.1434(2) 0.2899(2) 0.49739(7)
H24_5 H 0.1631 0.2631 0.5134
S3_5 S 0.64939(8) 0.55059(7) 0.49882(3)
O6_5 O 0.66121(12) 0.92772(13) 0.42421(4)
O7_5 O 0.84318(12) 0.93439(13) 0.38037(4)
N7_5 N 0.59441(16) 0.67620(16) 0.52574(6)
N9_5 N 0.55498(14) 0.81448(14) 0.49217(5)
N10_3 N 0.94696(17) 0.81626(17) 0.31323(6)
C31_5 C 0.55508(17) 0.87333(18) 0.44375(7)
H26_5 H 0.5296 0.8866 0.4263
C33_5 C 0.62906(17) 0.89062(17) 0.44714(7)
C34_5 C 0.87407(18) 0.89670(17) 0.35775(6)
C37_5 C 0.62571(18) 0.83075(17) 0.49463(7)
H32_5 H 0.6502 0.8155 0.5120
C38_5 C 0.77026(17) 0.96424(19) 0.37555(6)
H33_5 H 0.7698 0.9952 0.3576
H34_5 H 0.7349 0.9245 0.3727
C39_5 C 0.66585(18) 0.86867(19) 0.47327(7)
H35_5 H 0.7156 0.8792 0.4762
C40_5 C 0.73243(17) 0.96001(19) 0.42991(7)
H36_5 H 0.7314 0.9886 0.4485
H37_5 H 0.7696 0.9217 0.4319
C42_5 C 0.94946(18) 0.88133(18) 0.36023(7)
H39_5 H 0.9762 0.8972 0.3770
C43_5 C 0.8364(2) 0.87169(19) 0.33257(7)
H40_5 H 0.7863 0.8814 0.3301
C45_5 C 0.52046(18) 0.83638(18) 0.46649(7)
H42_5 H 0.4705 0.8256 0.4643
C49_5 C 0.8752(2) 0.8320(2) 0.31125(7)
H45_5 H 0.8497 0.8150 0.2944
C50_5 C 0.9832(2) 0.8426(2) 0.33767(7)
C52_5 C 0.6158(2) 0.6258(2) 0.51429(9)
Co6_3 Co 1.0000 0.7500 0.27945(2)
N13_3 N 0.54857(15) 0.81858(14) 0.56054(5)
N14_3 N 0.45143(15) 0.68142(14) 0.56054(5)
N16_3 N 0.06626(17) 0.30304(17) 0.56323(6)
H22_5 H 0.9663 0.6662 0.3392
H23_5 H 0.9916 0.3378 0.4703
S4_5 S 0.85622(8) 0.46425(7) 0.50473(4)
N12_5 N 0.9313(2) 0.3450(2) 0.52936(7)
C54_5 C 0.9010(2) 0.3947(2) 0.51925(9)
N15_3 N 0.93374(17) 0.19696(17) 0.56323(6)
Co1_5 Co 0.0000 0.2500 0.02618(2)
Co2_3 Co 0.5000 0.7500 0.02945(2)
S2_6 S 0.35622(8) 0.96425(7) 0.00473(4)
N1_6 N 0.09441(16) 0.17620(16) 0.02574(6)
N6_6 N 0.4313(2) 0.8450(2) 0.02936(7)
H8_6 H 0.1502 0.3155 0.0120
C24_6 C 0.4010(2) 0.8947(2) 0.01925(9)
C26_6 C 0.1158(2) 0.1258(2) 0.01429(9)
H24_6 H 0.3369 0.7369 0.0134
S4_6 S 0.64378(8) 0.53575(7) 0.00473(4)
N12_6 N 0.5687(2) 0.6550(2) 0.02936(7)
C54_6 C 0.5990(2) 0.6053(2) 0.01925(9)
N14_4 N 0.04857(15) 0.31858(14) 0.06054(5)
N15_4 N 0.56626(17) 0.80304(17) 0.06323(6)
N16_4 N 0.43374(17) 0.69696(17) 0.06323(6)
S1_6 S 0.14939(8) 0.05059(7) 0.99882(3)
O1_6 O 0.20744(12) 0.61091(13) 0.87415(5)
O2_6 O 0.16121(12) 0.42772(13) 0.92421(4)
O3_6 O 0.34318(12) 0.43439(13) 0.88037(4)
O4_6 O 0.28887(12) 0.60935(13) 0.93395(5)
N2_4 N 0.06858(14) 0.70143(15) 0.81054(5)
N3_6 N 0.05498(14) 0.31448(14) 0.99217(5)
N4_4 N 0.44696(17) 0.31626(17) 0.81323(6)
N5_6 N 0.43058(17) 0.70320(18) 0.99562(6)
C1_6 C 0.08252(17) 0.63273(18) 0.85619(7)
H1_6 H 0.0603 0.6076 0.8721
C2_6 C 0.15926(16) 0.63941(17) 0.85435(7)
C3_6 C 0.25009(15) 0.50951(17) 0.90328(6)
C4_6 C 0.05508(17) 0.37333(18) 0.94375(7)
H2_6 H 0.0296 0.3866 0.9263
C5_6 C 0.18888(17) 0.67876(18) 0.83054(7)
H3_6 H 0.2397 0.6851 0.8289
C6_6 C 0.12906(17) 0.39062(17) 0.94714(7)
C7_6 C 0.37407(18) 0.39670(17) 0.85775(6)
C8_6 C 0.18284(17) 0.55683(18) 0.89564(6)
H4_6 H 0.1640 0.5808 0.9137
H5_6 H 0.1439 0.5266 0.8870
C9_6 C 0.31644(17) 0.55775(18) 0.91212(7)
H6_6 H 0.3358 0.5835 0.8946
H7_6 H 0.3555 0.5277 0.9208
C10_6 C 0.12571(18) 0.33075(17) 0.99463(7)
C11_6 C 0.27026(17) 0.46424(19) 0.87555(6)
H9_6 H 0.2698 0.4952 0.8576
H10_6 H 0.2349 0.4245 0.8727
C12_6 C 0.16585(18) 0.36867(19) 0.97327(7)
H11_6 H 0.2156 0.3792 0.9762
C13_6 C 0.23243(17) 0.46001(19) 0.92991(7)
H12_6 H 0.2314 0.4886 0.9485
H13_6 H 0.2696 0.4217 0.9319
C14_6 C 0.04086(17) 0.66435(18) 0.83374(7)
C15_6 C 0.44946(18) 0.38133(18) 0.86023(7)
H15_6 H 0.4762 0.3972 0.8770
C16_6 C 0.3364(2) 0.37169(19) 0.83257(7)
H16_6 H 0.2863 0.3814 0.8301
C17_6 C 0.14265(17) 0.70814(19) 0.80944(7)
H17_6 H 0.1633 0.7342 0.7934
C18_6 C 0.02046(18) 0.33638(18) 0.96649(7)
C19_6 C 0.33824(19) 0.64020(19) 0.95276(7)
C20_6 C 0.41483(19) 0.6345(2) 0.94988(7)
H19_6 H 0.4362 0.6100 0.9336
C21_6 C 0.3090(2) 0.6799(2) 0.97689(7)
H20_6 H 0.2582 0.6858 0.9790
C22_6 C 0.3752(2) 0.3320(2) 0.81125(7)
H21_6 H 0.3497 0.3150 0.7944
C23_6 C 0.4832(2) 0.3426(2) 0.83767(7)
H22_6 H 0.5337 0.3338 0.8392
C25_6 C 0.4574(2) 0.6665(2) 0.97195(7)
H23_6 H 0.5084 0.6622 0.9703
C27_6 C 0.3566(2) 0.7101(2) 0.99739(7)
H42_6 H 0.0295 0.1744 0.9643
Co4_2 Co 0.0000 0.7500 0.77618(2)
Co7_3 Co 0.5000 0.2500 0.77945(2)
N17_3 N 0.56942(17) 0.79680(18) 0.99562(6)
H38_6 H 0.0102 0.8406 0.8349
Co1_6 Co 1.0000 0.2500 0.02618(2)
N7_6 N 0.90559(16) 0.32380(16) 0.02574(6)
H32_6 H 0.8498 0.1845 0.0120
C52_6 C 0.8842(2) 0.3742(2) 0.01429(9)
N13_4 N 0.95143(15) 0.18142(14) 0.06054(5)
H14_6 H 0.9898 0.6594 0.8349
H18_6 H 0.9705 0.3256 0.9643
S3_6 S 0.85061(8) 0.44941(7) 0.99882(3)
O6_6 O 0.83879(12) 0.07228(13) 0.92421(4)
O7_6 O 0.65682(12) 0.06561(13) 0.88037(4)
N9_6 N 0.94502(14) 0.18552(14) 0.99217(5)
N10_4 N 0.55304(17) 0.18374(17) 0.81323(6)
C31_6 C 0.94492(17) 0.12667(18) 0.94375(7)
H26_6 H 0.9704 0.1134 0.9263
C33_6 C 0.87094(17) 0.10938(17) 0.94714(7)
C34_6 C 0.62593(18) 0.10330(17) 0.85775(6)
C37_6 C 0.87429(18) 0.16925(17) 0.99463(7)
C38_6 C 0.72974(17) 0.03576(19) 0.87555(6)
H33_6 H 0.7302 0.0048 0.8576
H34_6 H 0.7651 0.0755 0.8727
C39_6 C 0.83415(18) 0.13133(19) 0.97327(7)
H35_6 H 0.7844 0.1208 0.9762
C40_6 C 0.76757(17) 0.03999(19) 0.92991(7)
H36_6 H 0.7686 0.0114 0.9485
H37_6 H 0.7304 0.0783 0.9319
C42_6 C 0.55054(18) 0.11867(18) 0.86023(7)
H39_6 H 0.5238 0.1028 0.8770
C43_6 C 0.6636(2) 0.12831(19) 0.83257(7)
H40_6 H 0.7137 0.1186 0.8301
C45_6 C 0.97954(18) 0.16362(18) 0.96649(7)
C49_6 C 0.6248(2) 0.1680(2) 0.81125(7)
H45_6 H 0.6503 0.1850 0.7944
C50_6 C 0.5168(2) 0.1574(2) 0.83767(7)
H46_6 H 0.4663 0.1662 0.8392
Co4_3 Co 1.0000 0.7500 0.77618(2)
H48_6 H 0.6631 0.7631 0.0134
O5_6 O 0.79256(12) 0.88909(13) 0.87415(5)
O8_6 O 0.71113(12) 0.89065(13) 0.93395(5)
N8_4 N 0.93142(14) 0.79857(15) 0.81054(5)
C28_6 C 0.91748(17) 0.86727(18) 0.85619(7)
H25_6 H 0.9397 0.8924 0.8721
C29_6 C 0.84074(16) 0.86059(17) 0.85435(7)
C30_6 C 0.74991(15) 0.99049(17) 0.90328(6)
C32_6 C 0.81112(17) 0.82124(18) 0.83054(7)
H27_6 H 0.7603 0.8149 0.8289
C35_6 C 0.81716(17) 0.94317(18) 0.89564(6)
H28_6 H 0.8360 0.9192 0.9137
H29_6 H 0.8561 0.9734 0.8870
C36_6 C 0.68356(17) 0.94225(18) 0.91212(7)
H30_6 H 0.6642 0.9165 0.8946
H31_6 H 0.6445 0.9723 0.9208
C41_6 C 0.95914(17) 0.83565(18) 0.83374(7)
C44_6 C 0.85735(17) 0.79186(19) 0.80944(7)
H41_6 H 0.8367 0.7658 0.7934
C46_6 C 0.66176(19) 0.85980(19) 0.95276(7)
C47_6 C 0.58517(19) 0.8655(2) 0.94988(7)
H43_6 H 0.5638 0.8900 0.9336
C48_6 C 0.6910(2) 0.8201(2) 0.97689(7)
H44_6 H 0.7418 0.8142 0.9790
C51_6 C 0.5426(2) 0.8335(2) 0.97195(7)
H47_6 H 0.4916 0.8378 0.9703
C53_6 C 0.6434(2) 0.7899(2) 0.99739(7)
S2_7 S 0.21425(7) 0.89378(8) 0.25473(4)
N6_7 N 0.0950(2) 0.8187(2) 0.27936(7)
C24_7 C 0.1447(2) 0.8490(2) 0.26925(9)
N17_4 N 0.04680(18) 0.68058(17) 0.24562(6)
S1_7 S 0.30059(7) 0.10061(8) 0.24882(3)
O1_7 O 0.86091(13) 0.04256(12) 0.12415(5)
O2_7 O 0.67772(13) 0.08879(12) 0.17421(4)
N1_7 N 0.42620(16) 0.15559(16) 0.27574(6)
N3_7 N 0.56448(14) 0.19502(14) 0.24217(5)
C1_7 C 0.88273(18) 0.16748(17) 0.10619(7)
H1_7 H 0.8576 0.1897 0.1221
C2_7 C 0.88941(17) 0.09074(16) 0.10435(7)
C4_7 C 0.62333(18) 0.19492(17) 0.19375(7)
H2_7 H 0.6366 0.2204 0.1763
C5_7 C 0.92876(18) 0.06112(17) 0.08054(7)
H3_7 H 0.9351 0.0103 0.0789
C6_7 C 0.64062(17) 0.12094(17) 0.19714(7)
C8_7 C 0.80683(18) 0.06716(17) 0.14564(6)
H4_7 H 0.8308 0.0860 0.1637
H5_7 H 0.7766 0.1061 0.1370
C10_7 C 0.58075(17) 0.12429(18) 0.24463(7)
H8_7 H 0.5655 0.0998 0.2620
H10_7 H 0.6745 0.0151 0.1227
C12_7 C 0.61867(19) 0.08415(18) 0.22327(7)
H11_7 H 0.6292 0.0344 0.2262
C13_7 C 0.71001(19) 0.01757(17) 0.17991(7)
H12_7 H 0.7386 0.0186 0.1985
C14_7 C 0.91435(18) 0.20914(17) 0.08374(7)
H14_7 H 0.9094 0.2602 0.0849
C17_7 C 0.95814(19) 0.10735(17) 0.05944(7)
H17_7 H 0.9842 0.0867 0.0434
C18_7 C 0.58638(18) 0.22954(18) 0.21649(7)
H18_7 H 0.5756 0.2795 0.2143
C26_7 C 0.3758(2) 0.1342(2) 0.26429(9)
S3_7 S 0.69941(7) 0.39939(8) 0.24882(3)
O5_7 O 0.13909(13) 0.45744(12) 0.12415(5)
O6_7 O 0.32228(13) 0.41121(12) 0.17421(4)
O7_7 O 0.31561(13) 0.59318(12) 0.13037(4)
O8_7 O 0.14065(13) 0.53887(12) 0.18395(5)
N7_7 N 0.57380(16) 0.34441(16) 0.27574(6)
N9_7 N 0.43552(14) 0.30498(14) 0.24217(5)
C28_7 C 0.11727(18) 0.33252(17) 0.10619(7)
H25_7 H 0.1424 0.3103 0.1221
C29_7 C 0.11059(17) 0.40926(16) 0.10435(7)
C30_7 C 0.24049(17) 0.50009(15) 0.15328(6)
C31_7 C 0.37667(18) 0.30508(17) 0.19375(7)
H26_7 H 0.3634 0.2796 0.1763
C32_7 C 0.07124(18) 0.43888(17) 0.08054(7)
H27_7 H 0.0649 0.4897 0.0789
C33_7 C 0.35938(17) 0.37906(17) 0.19714(7)
C34_7 C 0.35330(17) 0.62407(18) 0.10775(6)
C35_7 C 0.19317(18) 0.43284(17) 0.14564(6)
H28_7 H 0.1692 0.4140 0.1637
H29_7 H 0.2234 0.3939 0.1370
C36_7 C 0.19225(18) 0.56644(17) 0.16212(7)
H30_7 H 0.1665 0.5858 0.1446
H31_7 H 0.2223 0.6055 0.1708
C37_7 C 0.41925(17) 0.37571(18) 0.24463(7)
H32_7 H 0.4345 0.4002 0.2620
C38_7 C 0.28576(19) 0.52026(17) 0.12555(6)
H33_7 H 0.2548 0.5198 0.1076
H34_7 H 0.3255 0.4849 0.1227
C39_7 C 0.38133(19) 0.41585(18) 0.22327(7)
H35_7 H 0.3708 0.4656 0.2262
C40_7 C 0.28999(19) 0.48243(17) 0.17991(7)
H36_7 H 0.2614 0.4814 0.1985
H37_7 H 0.3283 0.5196 0.1819
C41_7 C 0.08565(18) 0.29086(17) 0.08374(7)
H38_7 H 0.0906 0.2398 0.0849
C42_7 C 0.36867(18) 0.69946(18) 0.11023(7)
H39_7 H 0.3528 0.7262 0.1270
C43_7 C 0.37831(19) 0.5864(2) 0.08257(7)
H40_7 H 0.3686 0.5363 0.0801
C44_7 C 0.04186(19) 0.39265(17) 0.05944(7)
H41_7 H 0.0158 0.4133 0.0434
C45_7 C 0.41362(18) 0.27046(18) 0.21649(7)
H42_7 H 0.4244 0.2205 0.2143
C46_7 C 0.10980(19) 0.58824(19) 0.20276(7)
C47_7 C 0.1155(2) 0.66483(19) 0.19988(7)
H43_7 H 0.1400 0.6862 0.1836
C48_7 C 0.0701(2) 0.5590(2) 0.22689(7)
H44_7 H 0.0642 0.5082 0.2290
C49_7 C 0.4180(2) 0.6252(2) 0.06125(7)
H45_7 H 0.4350 0.5997 0.0444
C50_7 C 0.4074(2) 0.7332(2) 0.08767(7)
H46_7 H 0.4162 0.7837 0.0892
C51_7 C 0.0835(2) 0.7074(2) 0.22195(7)
H47_7 H 0.0878 0.7584 0.2203
C52_7 C 0.6242(2) 0.3658(2) 0.26429(9)
C53_7 C 0.0399(2) 0.6066(2) 0.24739(7)
H48_7 H 0.0131 0.5869 0.2634
O3_7 O 0.68439(13) 0.90682(12) 0.13037(4)
O4_7 O 0.85935(13) 0.96113(12) 0.18395(5)
N5_7 N 0.95320(18) 0.81942(17) 0.24562(6)
C3_7 C 0.75951(17) 0.99991(15) 0.15328(6)
C7_7 C 0.64670(17) 0.87593(18) 0.10775(6)
C9_7 C 0.80775(18) 0.93356(17) 0.16212(7)
H6_7 H 0.8335 0.9142 0.1446
H7_7 H 0.7777 0.8945 0.1708
C11_7 C 0.71424(19) 0.97974(17) 0.12555(6)
H9_7 H 0.7452 0.9802 0.1076
H13_7 H 0.6717 0.9804 0.1819
C15_7 C 0.63133(18) 0.80054(18) 0.11023(7)
H15_7 H 0.6472 0.7738 0.1270
C16_7 C 0.62169(19) 0.9136(2) 0.08257(7)
H16_7 H 0.6314 0.9637 0.0801
C19_7 C 0.89020(19) 0.91176(19) 0.20276(7)
C20_7 C 0.8845(2) 0.83517(19) 0.19988(7)
H19_7 H 0.8600 0.8138 0.1836
C21_7 C 0.9299(2) 0.9410(2) 0.22689(7)
H20_7 H 0.9358 0.9918 0.2290
C22_7 C 0.5820(2) 0.8748(2) 0.06125(7)
H21_7 H 0.5650 0.9003 0.0444
C23_7 C 0.5926(2) 0.7668(2) 0.08767(7)
H22_7 H 0.5838 0.7163 0.0892
C25_7 C 0.9165(2) 0.7926(2) 0.22195(7)
H23_7 H 0.9122 0.7416 0.2203
C27_7 C 0.9601(2) 0.8934(2) 0.24739(7)
H24_7 H 0.9869 0.9131 0.2634
S4_7 S 0.78575(7) 0.60622(8) 0.25473(4)
N12_7 N 0.9050(2) 0.6813(2) 0.27936(7)
C54_7 C 0.8553(2) 0.6510(2) 0.26925(9)
S1_8 S 0.19941(7) 0.89939(8) 0.74882(3)
N1_8 N 0.07380(16) 0.84441(16) 0.77574(6)
C26_8 C 0.1242(2) 0.8658(2) 0.76429(9)
O5_8 O 0.36091(13) 0.54256(12) 0.62415(5)
O6_8 O 0.17772(13) 0.58879(12) 0.67421(4)
O7_8 O 0.18439(13) 0.40682(12) 0.63037(4)
O8_8 O 0.35935(13) 0.46113(12) 0.68395(5)
N9_8 N 0.06448(14) 0.69502(14) 0.74217(5)
N11_4 N 0.45320(18) 0.31942(17) 0.74562(6)
C28_8 C 0.38273(18) 0.66748(17) 0.60619(7)
H25_8 H 0.3576 0.6897 0.6221
C29_8 C 0.38941(17) 0.59074(16) 0.60435(7)
C30_8 C 0.25951(17) 0.49991(15) 0.65328(6)
C31_8 C 0.12333(18) 0.69492(17) 0.69375(7)
H26_8 H 0.1366 0.7204 0.6763
C32_8 C 0.42876(18) 0.56112(17) 0.58054(7)
H27_8 H 0.4351 0.5103 0.5789
C33_8 C 0.14062(17) 0.62094(17) 0.69714(7)
C34_8 C 0.14670(17) 0.37593(18) 0.60775(6)
C35_8 C 0.30683(18) 0.56716(17) 0.64564(6)
H28_8 H 0.3308 0.5860 0.6637
H29_8 H 0.2766 0.6061 0.6370
C36_8 C 0.30775(18) 0.43356(17) 0.66212(7)
H30_8 H 0.3335 0.4142 0.6446
H31_8 H 0.2777 0.3945 0.6708
C37_8 C 0.08075(17) 0.62429(18) 0.74463(7)
H32_8 H 0.0655 0.5998 0.7620
C38_8 C 0.21424(19) 0.47974(17) 0.62555(6)
H33_8 H 0.2452 0.4802 0.6076
H34_8 H 0.1745 0.5151 0.6227
C39_8 C 0.11867(19) 0.58415(18) 0.72327(7)
H35_8 H 0.1292 0.5344 0.7262
C40_8 C 0.21001(19) 0.51757(17) 0.67991(7)
H36_8 H 0.2386 0.5186 0.6985
H37_8 H 0.1717 0.4804 0.6819
C41_8 C 0.41435(18) 0.70914(17) 0.58374(7)
H38_8 H 0.4094 0.7602 0.5849
C42_8 C 0.13133(18) 0.30054(18) 0.61023(7)
H39_8 H 0.1472 0.2738 0.6270
C43_8 C 0.12169(19) 0.4136(2) 0.58257(7)
H40_8 H 0.1314 0.4637 0.5801
C44_8 C 0.45814(19) 0.60735(17) 0.55944(7)
H41_8 H 0.4842 0.5867 0.5434
C45_8 C 0.08638(18) 0.72954(18) 0.71649(7)
H42_8 H 0.0756 0.7795 0.7143
C46_8 C 0.39020(19) 0.41176(19) 0.70276(7)
C47_8 C 0.3845(2) 0.33517(19) 0.69988(7)
H43_8 H 0.3600 0.3138 0.6836
C48_8 C 0.4299(2) 0.4410(2) 0.72689(7)
H44_8 H 0.4358 0.4918 0.7290
C49_8 C 0.0820(2) 0.3748(2) 0.56125(7)
H45_8 H 0.0650 0.4003 0.5444
C50_8 C 0.0926(2) 0.2668(2) 0.58767(7)
H46_8 H 0.0838 0.2163 0.5892
C51_8 C 0.4165(2) 0.2926(2) 0.72195(7)
H47_8 H 0.4122 0.2416 0.7203
C53_8 C 0.4601(2) 0.3934(2) 0.74739(7)
H48_8 H 0.4869 0.4131 0.7634
S2_8 S 0.28575(7) 0.10622(8) 0.75473(4)
O3_8 O 0.81561(13) 0.09318(12) 0.63037(4)
O4_8 O 0.64065(13) 0.03887(12) 0.68395(5)
N5_8 N 0.54680(18) 0.18058(17) 0.74562(6)
N6_8 N 0.4050(2) 0.1813(2) 0.77936(7)
C3_8 C 0.74049(17) 0.00009(15) 0.65328(6)
C7_8 C 0.85330(17) 0.12407(18) 0.60775(6)
C9_8 C 0.69225(18) 0.06644(17) 0.66212(7)
H6_8 H 0.6665 0.0858 0.6446
H7_8 H 0.7223 0.1055 0.6708
C11_8 C 0.78576(19) 0.02026(17) 0.62555(6)
H9_8 H 0.7548 0.0198 0.6076
H13_8 H 0.8283 0.0196 0.6819
C15_8 C 0.86867(18) 0.19946(18) 0.61023(7)
H15_8 H 0.8528 0.2262 0.6270
C16_8 C 0.87831(19) 0.0864(2) 0.58257(7)
H16_8 H 0.8686 0.0363 0.5801
C19_8 C 0.60980(19) 0.08824(19) 0.70276(7)
C20_8 C 0.6155(2) 0.16483(19) 0.69988(7)
H19_8 H 0.6400 0.1862 0.6836
C21_8 C 0.5701(2) 0.0590(2) 0.72689(7)
H20_8 H 0.5642 0.0082 0.7290
C22_8 C 0.9180(2) 0.1252(2) 0.56125(7)
H21_8 H 0.9350 0.0997 0.5444
C23_8 C 0.9074(2) 0.2332(2) 0.58767(7)
H22_8 H 0.9162 0.2837 0.5892
C24_8 C 0.3553(2) 0.1510(2) 0.76925(9)
C25_8 C 0.5835(2) 0.2074(2) 0.72195(7)
H23_8 H 0.5878 0.2584 0.7203
C27_8 C 0.5399(2) 0.1066(2) 0.74739(7)
H24_8 H 0.5131 0.0869 0.7634
S4_8 S 0.71425(7) 0.39378(8) 0.75473(4)
N12_8 N 0.5950(2) 0.3187(2) 0.77936(7)
C54_8 C 0.6447(2) 0.3490(2) 0.76925(9)
O1_8 O 0.63909(13) 0.95744(12) 0.62415(5)
O2_8 O 0.82228(13) 0.91121(12) 0.67421(4)
N3_8 N 0.93552(14) 0.80498(14) 0.74217(5)
C1_8 C 0.61727(18) 0.83252(17) 0.60619(7)
H1_8 H 0.6424 0.8103 0.6221
C2_8 C 0.61059(17) 0.90926(16) 0.60435(7)
C4_8 C 0.87667(18) 0.80508(17) 0.69375(7)
H2_8 H 0.8634 0.7796 0.6763
C5_8 C 0.57124(18) 0.93888(17) 0.58054(7)
H3_8 H 0.5649 0.9897 0.5789
C6_8 C 0.85938(17) 0.87906(17) 0.69714(7)
C8_8 C 0.69317(18) 0.93284(17) 0.64564(6)
H4_8 H 0.6692 0.9140 0.6637
H5_8 H 0.7234 0.8939 0.6370
C10_8 C 0.91925(17) 0.87571(18) 0.74463(7)
H8_8 H 0.9345 0.9002 0.7620
H10_8 H 0.8255 0.9849 0.6227
C12_8 C 0.88133(19) 0.91585(18) 0.72327(7)
H11_8 H 0.8708 0.9656 0.7262
C13_8 C 0.78999(19) 0.98243(17) 0.67991(7)
H12_8 H 0.7614 0.9814 0.6985
C14_8 C 0.58565(18) 0.79086(17) 0.58374(7)
H14_8 H 0.5906 0.7398 0.5849
C17_8 C 0.54186(19) 0.89265(17) 0.55944(7)
H17_8 H 0.5158 0.9133 0.5434
C18_8 C 0.91362(18) 0.77046(18) 0.71649(7)
H18_8 H 0.9244 0.7205 0.7143
S3_8 S 0.80059(7) 0.60061(8) 0.74882(3)
N7_8 N 0.92620(16) 0.65559(16) 0.77574(6)
C52_8 C 0.8758(2) 0.6342(2) 0.76429(9)
loop_
_geom_bond_atom_site_label_1
_geom_bond_atom_site_label_2
_geom_bond_site_symmetry_1
_geom_bond_site_symmetry_2
S4 C54 1_555 1_555
N12 Co2 1_555 1_555
C54 N12 1_555 1_555
N15 Co2 1_555 1_555
N17 Co2 1_555 1_555
Co1 N1 1_555 1_555
Co2_2 N5 1_555 1_555
S1 C26 1_555 1_555
S2 C24 1_555 1_555
O1 C2 1_555 1_555
O2 C6 1_555 1_555
O3 C7 1_555 1_555
O4 C9 1_555 1_555
N1 C26 1_555 1_555
N2 C14 1_555 1_555
N3 Co1 1_555 1_555
N4 C22 1_555 1_555
N5 C25 1_555 1_555
C1 H1 1_555 1_555
N6 Co2_2 1_555 1_555
C2 C1 1_555 1_555
C3 C8 1_555 1_555
C4 H2 1_555 1_555
C5 C2 1_555 1_555
H3 C5 1_555 1_555
C6 C4 1_555 1_555
C7 C15 1_555 1_555
C8 O1 1_555 1_555
H4 C8 1_555 1_555
H5 C8 1_555 1_555
C9 C3 1_555 1_555
H6 C9 1_555 1_555
H7 C9 1_555 1_555
C10 N3 1_555 1_555
H8 C10 1_555 1_555
C11 O3 1_555 1_555
H9 C11 1_555 1_555
H10 C11 1_555 1_555
C12 C6 1_555 1_555
H11 C12 1_555 1_555
C13 O2 1_555 1_555
H12 C13 1_555 1_555
H13 C13 1_555 1_555
C14 C1 1_555 1_555
H14 C14 1_555 1_555
C15 H15 1_555 1_555
C16 C7 1_555 1_555
H16 C16 1_555 1_555
C17 N2 1_555 1_555
H17 C17 1_555 1_555
C18 N3 1_555 1_555
H18 C18 1_555 1_555
C19 O4 1_555 1_555
C20 C19 1_555 1_555
H19 C20 1_555 1_555
C21 C19 1_555 1_555
H20 C21 1_555 1_555
C22 C16 1_555 1_555
H21 C22 1_555 1_555
C23 N4 1_555 1_555
C24 N6 1_555 1_555
C25 C20 1_555 1_555
C27 N5 1_555 1_555
H24 C27 1_555 1_555
S3 C52 1_555 1_555
O6 C33 1_555 1_555
O7 C34 1_555 1_555
N7 Co1 1_555 1_555
N9 Co1 1_555 1_555
N10 C49 1_555 1_555
C31 H26 1_555 1_555
C33 C31 1_555 1_555
C34 C42 1_555 1_555
C37 N9 1_555 1_555
H32 C37 1_555 1_555
C38 O7 1_555 1_555
H33 C38 1_555 1_555
H34 C38 1_555 1_555
C39 C33 1_555 1_555
H35 C39 1_555 1_555
C40 O6 1_555 1_555
H36 C40 1_555 1_555
H37 C40 1_555 1_555
C42 H39 1_555 1_555
C43 C34 1_555 1_555
H40 C43 1_555 1_555
C45 N9 1_555 1_555
H42 C45 1_555 1_555
C49 C43 1_555 1_555
H45 C49 1_555 1_555
C50 N10 1_555 1_555
C52 N7 1_555 1_555
Co4 N2 1_555 1_555
Co7 N10 1_555 1_555
Co7_2 N4 1_555 1_555
N13 Co1 1_555 1_555
N14 Co1 1_555 1_555
N16 Co2_2 1_555 1_555
C3 C11 1_555 1_555
C3 C13 1_555 1_555
C4 C18 1_555 1_555
C5 C17 1_555 1_555
C10 C12 1_555 1_555
C15 C23 1_555 1_555
C21 C27 1_555 1_555
C31 C45 1_555 1_555
C37 C39 1_555 1_555
C42 C50 1_555 1_555
O5 C29 1_555 1_555
O8 C36 1_555 1_555
N8 C41 1_555 1_555
N17 C51 1_555 1_555
C28 H25 1_555 1_555
C29 C28 1_555 1_555
C30 C35 1_555 1_555
C32 C29 1_555 1_555
H27 C32 1_555 1_555
C35 O5 1_555 1_555
H28 C35 1_555 1_555
H29 C35 1_555 1_555
C36 C30 1_555 1_555
H30 C36 1_555 1_555
H31 C36 1_555 1_555
C41 C28 1_555 1_555
H38 C41 1_555 1_555
C44 N8 1_555 1_555
H41 C44 1_555 1_555
C46 O8 1_555 1_555
C47 C46 1_555 1_555
H43 C47 1_555 1_555
C48 C46 1_555 1_555
H44 C48 1_555 1_555
C51 C47 1_555 1_555
C53 N17 1_555 1_555
H48 C53 1_555 1_555
Co4 N8 1_555 1_555
C32 C44 1_555 1_555
C48 C53 1_555 1_555
O5_2 C29_2 1_555 1_555
O8_2 C36_2 1_555 1_555
N8_2 C41_2 1_555 1_555
N11 C51_2 1_555 1_555
C28_2 H25_2 1_555 1_555
C29_2 C28_2 1_555 1_555
C30_2 C35_2 1_555 1_555
C32_2 C29_2 1_555 1_555
H27_2 C32_2 1_555 1_555
C35_2 O5_2 1_555 1_555
H28_2 C35_2 1_555 1_555
H29_2 C35_2 1_555 1_555
C36_2 C30_2 1_555 1_555
H30_2 C36_2 1_555 1_555
H31_2 C36_2 1_555 1_555
C41_2 C28_2 1_555 1_555
C44_2 N8_2 1_555 1_555
H41_2 C44_2 1_555 1_555
C46_2 O8_2 1_555 1_555
C47_2 C46_2 1_555 1_555
H43_2 C47_2 1_555 1_555
C48_2 C46_2 1_555 1_555
H44_2 C48_2 1_555 1_555
C51_2 C47_2 1_555 1_555
H47_2 C51_2 1_555 1_555
C53_2 N11 1_555 1_555
Co3 N8_2 1_555 1_555
C32_2 C44_2 1_555 1_555
C48_2 C53_2 1_555 1_555
O6_2 C33_2 1_555 1_555
O7_2 C34_2 1_555 1_555
N10_2 C49_2 1_555 1_555
C31_2 H26_2 1_555 1_555
C33_2 C31_2 1_555 1_555
C34_2 C42_2 1_555 1_555
C37_2 N9_2 1_555 1_555
C38_2 O7_2 1_555 1_555
H33_2 C38_2 1_555 1_555
H34_2 C38_2 1_555 1_555
C39_2 C33_2 1_555 1_555
H35_2 C39_2 1_555 1_555
C40_2 O6_2 1_555 1_555
H36_2 C40_2 1_555 1_555
H37_2 C40_2 1_555 1_555
C42_2 H39_2 1_555 1_555
C43_2 C34_2 1_555 1_555
H40_2 C43_2 1_555 1_555
C45_2 N9_2 1_555 1_555
C49_2 C43_2 1_555 1_555
H45_2 C49_2 1_555 1_555
C50_2 N10_2 1_555 1_555
H46_2 C50_2 1_555 1_555
Co6 N10_2 1_555 1_555
C31_2 C45_2 1_555 1_555
C37_2 C39_2 1_555 1_555
C42_2 C50_2 1_555 1_555
N7_2 Co1_2 1_555 1_555
C52_2 N7_2 1_555 1_555
N13_2 Co1_2 1_555 1_555
O1_2 C2_2 1_555 1_555
O2_2 C6_2 1_555 1_555
O3_2 C7_2 1_555 1_555
O4_2 C9_2 1_555 1_555
N2_2 C14_2 1_555 1_555
N4_2 C22_2 1_555 1_555
N5_2 C25_2 1_555 1_555
C1_2 H1_2 1_555 1_555
C2_2 C1_2 1_555 1_555
C3_2 C8_2 1_555 1_555
C4_2 H2_2 1_555 1_555
C5_2 C2_2 1_555 1_555
H3_2 C5_2 1_555 1_555
C6_2 C4_2 1_555 1_555
C7_2 C15_2 1_555 1_555
C8_2 O1_2 1_555 1_555
H4_2 C8_2 1_555 1_555
H5_2 C8_2 1_555 1_555
C9_2 C3_2 1_555 1_555
H6_2 C9_2 1_555 1_555
H7_2 C9_2 1_555 1_555
C10_2 N3_2 1_555 1_555
C11_2 O3_2 1_555 1_555
H9_2 C11_2 1_555 1_555
H10_2 C11_2 1_555 1_555
C12_2 C6_2 1_555 1_555
H11_2 C12_2 1_555 1_555
C13_2 O2_2 1_555 1_555
H12_2 C13_2 1_555 1_555
H13_2 C13_2 1_555 1_555
C14_2 C1_2 1_555 1_555
C15_2 H15_2 1_555 1_555
C16_2 C7_2 1_555 1_555
H16_2 C16_2 1_555 1_555
C17_2 N2_2 1_555 1_555
H17_2 C17_2 1_555 1_555
C18_2 N3_2 1_555 1_555
C19_2 O4_2 1_555 1_555
C20_2 C19_2 1_555 1_555
H19_2 C20_2 1_555 1_555
C21_2 C19_2 1_555 1_555
H20_2 C21_2 1_555 1_555
C22_2 C16_2 1_555 1_555
H21_2 C22_2 1_555 1_555
C23_2 N4_2 1_555 1_555
H22_2 C23_2 1_555 1_555
C25_2 C20_2 1_555 1_555
H23_2 C25_2 1_555 1_555
C27_2 N5_2 1_555 1_555
Co3_2 N2_2 1_555 1_555
Co6 N4_2 1_555 1_555
C3_2 C11_2 1_555 1_555
C3_2 C13_2 1_555 1_555
C4_2 C18_2 1_555 1_555
C5_2 C17_2 1_555 1_555
C10_2 C12_2 1_555 1_555
C15_2 C23_2 1_555 1_555
C21_2 C27_2 1_555 1_555
Co1_3 N1_2 1_555 1_555
S2_2 C24_2 1_555 1_555
N1_2 C26_2 1_555 1_555
N6_2 Co5 1_555 1_555
C24_2 N6_2 1_555 1_555
S4_2 C54_2 1_555 1_555
N12_2 Co5 1_555 1_555
C54_2 N12_2 1_555 1_555
N14_2 Co1_3 1_555 1_555
N15_2 Co5 1_555 1_555
N16_2 Co5 1_555 1_555
Co7 N5_3 1_555 1_555
O3_3 C7_3 1_555 1_555
O4_3 C9_3 1_555 1_555
N15_2 C22_3 1_555 1_555
N5_3 C25_3 1_555 1_555
C7_3 C15_3 1_555 1_555
C9_3 C3_3 1_555 1_555
H6_3 C9_3 1_555 1_555
H7_3 C9_3 1_555 1_555
C11_3 O3_3 1_555 1_555
H9_3 C11_3 1_555 1_555
C15_3 H15_3 1_555 1_555
C16_3 C7_3 1_555 1_555
H16_3 C16_3 1_555 1_555
C19_3 O4_3 1_555 1_555
C20_3 C19_3 1_555 1_555
H19_3 C20_3 1_555 1_555
C21_3 C19_3 1_555 1_555
H20_3 C21_3 1_555 1_555
C22_3 C16_3 1_555 1_555
H21_3 C22_3 1_555 1_555
C23_3 N15_2 1_555 1_555
H22_3 C23_3 1_555 1_555
C25_3 C20_3 1_555 1_555
H23_3 C25_3 1_555 1_555
C27_3 N5_3 1_555 1_555
H24_3 C27_3 1_555 1_555
S4_3 C54_3 1_555 1_555
N12_3 Co7 1_555 1_555
C54_3 N12_3 1_555 1_555
C3_3 C11_3 1_555 1_555
C15_3 C23_3 1_555 1_555
C21_3 C27_3 1_555 1_555
Co4 N1_3 1_555 1_555
S1_3 C26_3 1_555 1_555
O1_3 C2_3 1_555 1_555
O2_3 C6_3 1_555 1_555
N1_3 C26_3 1_555 1_555
N13_2 C14_3 1_555 1_555
N3_3 Co4 1_555 1_555
C1_3 H1_3 1_555 1_555
C2_3 C1_3 1_555 1_555
C4_3 H2_3 1_555 1_555
C5_3 C2_3 1_555 1_555
H3_3 C5_3 1_555 1_555
C6_3 C4_3 1_555 1_555
C8_3 O1_3 1_555 1_555
H4_3 C8_3 1_555 1_555
H5_3 C8_3 1_555 1_555
C10_3 N3_3 1_555 1_555
H8_3 C10_3 1_555 1_555
C12_3 C6_3 1_555 1_555
H11_3 C12_3 1_555 1_555
C13_3 O2_3 1_555 1_555
H12_3 C13_3 1_555 1_555
C14_3 C1_3 1_555 1_555
H14_3 C14_3 1_555 1_555
C17_3 N13_2 1_555 1_555
H17_3 C17_3 1_555 1_555
C18_3 N3_3 1_555 1_555
H18_3 C18_3 1_555 1_555
S3_3 C52_3 1_555 1_555
O5_3 C29_3 1_555 1_555
O6_3 C33_3 1_555 1_555
O7_3 C34_3 1_555 1_555
O8_3 C36_3 1_555 1_555
N7_3 Co4 1_555 1_555
N14_2 C41_3 1_555 1_555
N9_3 Co4 1_555 1_555
N16_2 C49_3 1_555 1_555
N11_2 C51_3 1_555 1_555
C28_3 H25_3 1_555 1_555
C29_3 C28_3 1_555 1_555
C30_3 C35_3 1_555 1_555
C31_3 H26_3 1_555 1_555
C32_3 C29_3 1_555 1_555
H27_3 C32_3 1_555 1_555
C33_3 C31_3 1_555 1_555
C34_3 C42_3 1_555 1_555
C35_3 O5_3 1_555 1_555
H28_3 C35_3 1_555 1_555
H29_3 C35_3 1_555 1_555
C36_3 C30_3 1_555 1_555
H30_3 C36_3 1_555 1_555
H31_3 C36_3 1_555 1_555
C37_3 N9_3 1_555 1_555
H32_3 C37_3 1_555 1_555
C38_3 O7_3 1_555 1_555
H33_3 C38_3 1_555 1_555
H34_3 C38_3 1_555 1_555
C39_3 C33_3 1_555 1_555
H35_3 C39_3 1_555 1_555
C40_3 O6_3 1_555 1_555
H36_3 C40_3 1_555 1_555
H37_3 C40_3 1_555 1_555
C41_3 C28_3 1_555 1_555
H38_3 C41_3 1_555 1_555
C42_3 H39_3 1_555 1_555
C43_3 C34_3 1_555 1_555
H40_3 C43_3 1_555 1_555
C44_3 N14_2 1_555 1_555
H41_3 C44_3 1_555 1_555
C45_3 N9_3 1_555 1_555
H42_3 C45_3 1_555 1_555
C46_3 O8_3 1_555 1_555
C47_3 C46_3 1_555 1_555
H43_3 C47_3 1_555 1_555
C48_3 C46_3 1_555 1_555
H44_3 C48_3 1_555 1_555
C49_3 C43_3 1_555 1_555
H45_3 C49_3 1_555 1_555
C50_3 N16_2 1_555 1_555
H46_3 C50_3 1_555 1_555
C51_3 C47_3 1_555 1_555
H47_3 C51_3 1_555 1_555
C52_3 N7_3 1_555 1_555
C53_3 N11_2 1_555 1_555
H48_3 C53_3 1_555 1_555
Co7_2 N11_2 1_555 1_555
C4_3 C18_3 1_555 1_555
C5_3 C17_3 1_555 1_555
C10_3 C12_3 1_555 1_555
C30_3 C38_3 1_555 1_555
C30_3 C40_3 1_555 1_555
C31_3 C45_3 1_555 1_555
C32_3 C44_3 1_555 1_555
C37_3 C39_3 1_555 1_555
C42_3 C50_3 1_555 1_555
C48_3 C53_3 1_555 1_555
S2_3 C24_3 1_555 1_555
N6_3 Co7_2 1_555 1_555
C24_3 N6_3 1_555 1_555
O1_4 C2_4 1_555 1_555
O2_4 C6_4 1_555 1_555
N13 C14_4 1_555 1_555
N3_4 Co3 1_555 1_555
C1_4 H1_4 1_555 1_555
C2_4 C1_4 1_555 1_555
C4_4 H2_4 1_555 1_555
C5_4 C2_4 1_555 1_555
H3_4 C5_4 1_555 1_555
C6_4 C4_4 1_555 1_555
C8_4 O1_4 1_555 1_555
H4_4 C8_4 1_555 1_555
H5_4 C8_4 1_555 1_555
C10_4 N3_4 1_555 1_555
H8_4 C10_4 1_555 1_555
C12_4 C6_4 1_555 1_555
H11_4 C12_4 1_555 1_555
C13_4 O2_4 1_555 1_555
H12_4 C13_4 1_555 1_555
C14_4 C1_4 1_555 1_555
H14_4 C14_4 1_555 1_555
C17_4 N13 1_555 1_555
H17_4 C17_4 1_555 1_555
C18_4 N3_4 1_555 1_555
H18_4 C18_4 1_555 1_555
S3_4 C52_4 1_555 1_555
N7_4 Co3 1_555 1_555
C52_4 N7_4 1_555 1_555
C4_4 C18_4 1_555 1_555
C5_4 C17_4 1_555 1_555
C10_4 C12_4 1_555 1_555
Co6 N5_4 1_555 1_555
S2_4 C24_4 1_555 1_555
O3_4 C7_4 1_555 1_555
O4_4 C9_4 1_555 1_555
N15 C22_4 1_555 1_555
N5_4 C25_4 1_555 1_555
N6_4 Co6 1_555 1_555
C7_4 C15_4 1_555 1_555
C9_4 C3_4 1_555 1_555
H6_4 C9_4 1_555 1_555
H7_4 C9_4 1_555 1_555
C11_4 O3_4 1_555 1_555
H9_4 C11_4 1_555 1_555
C15_4 H15_4 1_555 1_555
C16_4 C7_4 1_555 1_555
H16_4 C16_4 1_555 1_555
C19_4 O4_4 1_555 1_555
C20_4 C19_4 1_555 1_555
H19_4 C20_4 1_555 1_555
C21_4 C19_4 1_555 1_555
H20_4 C21_4 1_555 1_555
C22_4 C16_4 1_555 1_555
H21_4 C22_4 1_555 1_555
C23_4 N15 1_555 1_555
H22_4 C23_4 1_555 1_555
C24_4 N6_4 1_555 1_555
C25_4 C20_4 1_555 1_555
H23_4 C25_4 1_555 1_555
C27_4 N5_4 1_555 1_555
H24_4 C27_4 1_555 1_555
S4_4 C54_4 1_555 1_555
N12_4 Co6 1_555 1_555
C54_4 N12_4 1_555 1_555
N17_2 Co6 1_555 1_555
C3_4 C11_4 1_555 1_555
C15_4 C23_4 1_555 1_555
C21_4 C27_4 1_555 1_555
Co3_2 N1_4 1_555 1_555
S1_4 C26_4 1_555 1_555
N1_4 C26_4 1_555 1_555
O5_4 C29_4 1_555 1_555
O6_4 C33_4 1_555 1_555
O7_4 C34_4 1_555 1_555
O8_4 C36_4 1_555 1_555
N14 C41_4 1_555 1_555
N9_4 Co3_2 1_555 1_555
N16 C49_4 1_555 1_555
N17_2 C51_4 1_555 1_555
C28_4 H25_4 1_555 1_555
C29_4 C28_4 1_555 1_555
C30_4 C35_4 1_555 1_555
C31_4 H26_4 1_555 1_555
C32_4 C29_4 1_555 1_555
H27_4 C32_4 1_555 1_555
C33_4 C31_4 1_555 1_555
C34_4 C42_4 1_555 1_555
C35_4 O5_4 1_555 1_555
H28_4 C35_4 1_555 1_555
H29_4 C35_4 1_555 1_555
C36_4 C30_4 1_555 1_555
H30_4 C36_4 1_555 1_555
H31_4 C36_4 1_555 1_555
C37_4 N9_4 1_555 1_555
H32_4 C37_4 1_555 1_555
C38_4 O7_4 1_555 1_555
H33_4 C38_4 1_555 1_555
H34_4 C38_4 1_555 1_555
C39_4 C33_4 1_555 1_555
H35_4 C39_4 1_555 1_555
C40_4 O6_4 1_555 1_555
H36_4 C40_4 1_555 1_555
H37_4 C40_4 1_555 1_555
C41_4 C28_4 1_555 1_555
H38_4 C41_4 1_555 1_555
C42_4 H39_4 1_555 1_555
C43_4 C34_4 1_555 1_555
H40_4 C43_4 1_555 1_555
C44_4 N14 1_555 1_555
H41_4 C44_4 1_555 1_555
C45_4 N9_4 1_555 1_555
H42_4 C45_4 1_555 1_555
C46_4 O8_4 1_555 1_555
C47_4 C46_4 1_555 1_555
H43_4 C47_4 1_555 1_555
C48_4 C46_4 1_555 1_555
H44_4 C48_4 1_555 1_555
C49_4 C43_4 1_555 1_555
H45_4 C49_4 1_555 1_555
C50_4 N16 1_555 1_555
H46_4 C50_4 1_555 1_555
C51_4 C47_4 1_555 1_555
H47_4 C51_4 1_555 1_555
C53_4 N17_2 1_555 1_555
H48_4 C53_4 1_555 1_555
C30_4 C38_4 1_555 1_555
C30_4 C40_4 1_555 1_555
C31_4 C45_4 1_555 1_555
C32_4 C44_4 1_555 1_555
C37_4 C39_4 1_555 1_555
C42_4 C50_4 1_555 1_555
C48_4 C53_4 1_555 1_555
O5_5 C29_5 1_555 1_555
O8_5 C36_5 1_555 1_555
N8_3 C41_5 1_555 1_555
N11_3 C51_5 1_555 1_555
C28_5 H25_5 1_555 1_555
C29_5 C28_5 1_555 1_555
C30_5 C35_5 1_555 1_555
C32_5 C29_5 1_555 1_555
H27_5 C32_5 1_555 1_555
C35_5 O5_5 1_555 1_555
H28_5 C35_5 1_555 1_555
H29_5 C35_5 1_555 1_555
C36_5 C30_5 1_555 1_555
H30_5 C36_5 1_555 1_555
H31_5 C36_5 1_555 1_555
C41_5 C28_5 1_555 1_555
H38_5 C41_5 1_555 1_555
C44_5 N8_3 1_555 1_555
H41_5 C44_5 1_555 1_555
C46_5 O8_5 1_555 1_555
C47_5 C46_5 1_555 1_555
H43_5 C47_5 1_555 1_555
C48_5 C46_5 1_555 1_555
H44_5 C48_5 1_555 1_555
C51_5 C47_5 1_555 1_555
C53_5 N11_3 1_555 1_555
H48_5 C53_5 1_555 1_555
Co3_3 N8_3 1_555 1_555
Co5_3 N11_3 1_555 1_555
C32_5 C44_5 1_555 1_555
C48_5 C53_5 1_555 1_555
Co1_4 N1_5 1_555 1_555
Co5_2 N5_5 1_555 1_555
S1_5 C26_5 1_555 1_555
S2_5 C24_5 1_555 1_555
O1_5 C2_5 1_555 1_555
O2_5 C6_5 1_555 1_555
O3_5 C7_5 1_555 1_555
O4_5 C9_5 1_555 1_555
N1_5 C26_5 1_555 1_555
N2_3 C14_5 1_555 1_555
N3_5 Co1_4 1_555 1_555
N4_3 C22_5 1_555 1_555
N5_5 C25_5 1_555 1_555
C1_5 H1_5 1_555 1_555
N6_5 Co5_2 1_555 1_555
C2_5 C1_5 1_555 1_555
C3_5 C8_5 1_555 1_555
C4_5 H2_5 1_555 1_555
C5_5 C2_5 1_555 1_555
H3_5 C5_5 1_555 1_555
C6_5 C4_5 1_555 1_555
C7_5 C15_5 1_555 1_555
C8_5 O1_5 1_555 1_555
H4_5 C8_5 1_555 1_555
H5_5 C8_5 1_555 1_555
C9_5 C3_5 1_555 1_555
H6_5 C9_5 1_555 1_555
H7_5 C9_5 1_555 1_555
C10_5 N3_5 1_555 1_555
H8_5 C10_5 1_555 1_555
C11_5 O3_5 1_555 1_555
H9_5 C11_5 1_555 1_555
H10_5 C11_5 1_555 1_555
C12_5 C6_5 1_555 1_555
H11_5 C12_5 1_555 1_555
C13_5 O2_5 1_555 1_555
H12_5 C13_5 1_555 1_555
H13_5 C13_5 1_555 1_555
C14_5 C1_5 1_555 1_555
H14_5 C14_5 1_555 1_555
C15_5 H15_5 1_555 1_555
C16_5 C7_5 1_555 1_555
H16_5 C16_5 1_555 1_555
C17_5 N2_3 1_555 1_555
H17_5 C17_5 1_555 1_555
C18_5 N3_5 1_555 1_555
H18_5 C18_5 1_555 1_555
C19_5 O4_5 1_555 1_555
C20_5 C19_5 1_555 1_555
H19_5 C20_5 1_555 1_555
C21_5 C19_5 1_555 1_555
H20_5 C21_5 1_555 1_555
C22_5 C16_5 1_555 1_555
H21_5 C22_5 1_555 1_555
C23_5 N4_3 1_555 1_555
C24_5 N6_5 1_555 1_555
C25_5 C20_5 1_555 1_555
C27_5 N5_5 1_555 1_555
H24_5 C27_5 1_555 1_555
S3_5 C52_5 1_555 1_555
O6_5 C33_5 1_555 1_555
O7_5 C34_5 1_555 1_555
N7_5 Co1_4 1_555 1_555
N9_5 Co1_4 1_555 1_555
N10_3 C49_5 1_555 1_555
C31_5 H26_5 1_555 1_555
C33_5 C31_5 1_555 1_555
C34_5 C42_5 1_555 1_555
C37_5 N9_5 1_555 1_555
H32_5 C37_5 1_555 1_555
C38_5 O7_5 1_555 1_555
H33_5 C38_5 1_555 1_555
H34_5 C38_5 1_555 1_555
C39_5 C33_5 1_555 1_555
H35_5 C39_5 1_555 1_555
C40_5 O6_5 1_555 1_555
H36_5 C40_5 1_555 1_555
H37_5 C40_5 1_555 1_555
C42_5 H39_5 1_555 1_555
C43_5 C34_5 1_555 1_555
H40_5 C43_5 1_555 1_555
C45_5 N9_5 1_555 1_555
H42_5 C45_5 1_555 1_555
C49_5 C43_5 1_555 1_555
H45_5 C49_5 1_555 1_555
C50_5 N10_3 1_555 1_555
C52_5 N7_5 1_555 1_555
Co3_3 N2_3 1_555 1_555
Co6_3 N10_3 1_555 1_555
Co6_2 N4_3 1_555 1_555
N13_3 Co1_4 1_555 1_555
N14_3 Co1_4 1_555 1_555
N16_3 Co5_2 1_555 1_555
C3_5 C11_5 1_555 1_555
C3_5 C13_5 1_555 1_555
C4_5 C18_5 1_555 1_555
C5_5 C17_5 1_555 1_555
C10_5 C12_5 1_555 1_555
C15_5 C23_5 1_555 1_555
C21_5 C27_5 1_555 1_555
C31_5 C45_5 1_555 1_555
C37_5 C39_5 1_555 1_555
C42_5 C50_5 1_555 1_555
S4_5 C54_5 1_555 1_555
N12_5 Co5_3 1_555 1_555
C54_5 N12_5 1_555 1_555
N15_3 Co5_3 1_555 1_555
Co1_5 N1_6 1_555 1_555
S2_6 C24_6 1_555 1_555
N1_6 C26_6 1_555 1_555
N6_6 Co2_3 1_555 1_555
C24_6 N6_6 1_555 1_555
S4_6 C54_6 1_555 1_555
N12_6 Co2_3 1_555 1_555
C54_6 N12_6 1_555 1_555
N14_4 Co1_5 1_555 1_555
N15_4 Co2_3 1_555 1_555
N16_4 Co2_3 1_555 1_555
O1_6 C2_6 1_555 1_555
O2_6 C6_6 1_555 1_555
O3_6 C7_6 1_555 1_555
O4_6 C9_6 1_555 1_555
N2_4 C14_6 1_555 1_555
N4_4 C22_6 1_555 1_555
N5_6 C25_6 1_555 1_555
C1_6 H1_6 1_555 1_555
C2_6 C1_6 1_555 1_555
C3_6 C8_6 1_555 1_555
C4_6 H2_6 1_555 1_555
C5_6 C2_6 1_555 1_555
H3_6 C5_6 1_555 1_555
C6_6 C4_6 1_555 1_555
C7_6 C15_6 1_555 1_555
C8_6 O1_6 1_555 1_555
H4_6 C8_6 1_555 1_555
H5_6 C8_6 1_555 1_555
C9_6 C3_6 1_555 1_555
H6_6 C9_6 1_555 1_555
H7_6 C9_6 1_555 1_555
C10_6 N3_6 1_555 1_555
C11_6 O3_6 1_555 1_555
H9_6 C11_6 1_555 1_555
H10_6 C11_6 1_555 1_555
C12_6 C6_6 1_555 1_555
H11_6 C12_6 1_555 1_555
C13_6 O2_6 1_555 1_555
H12_6 C13_6 1_555 1_555
H13_6 C13_6 1_555 1_555
C14_6 C1_6 1_555 1_555
C15_6 H15_6 1_555 1_555
C16_6 C7_6 1_555 1_555
H16_6 C16_6 1_555 1_555
C17_6 N2_4 1_555 1_555
H17_6 C17_6 1_555 1_555
C18_6 N3_6 1_555 1_555
C19_6 O4_6 1_555 1_555
C20_6 C19_6 1_555 1_555
H19_6 C20_6 1_555 1_555
C21_6 C19_6 1_555 1_555
H20_6 C21_6 1_555 1_555
C22_6 C16_6 1_555 1_555
H21_6 C22_6 1_555 1_555
C23_6 N4_4 1_555 1_555
H22_6 C23_6 1_555 1_555
C25_6 C20_6 1_555 1_555
H23_6 C25_6 1_555 1_555
C27_6 N5_6 1_555 1_555
Co4_2 N2_4 1_555 1_555
Co7_3 N4_4 1_555 1_555
C3_6 C11_6 1_555 1_555
C3_6 C13_6 1_555 1_555
C4_6 C18_6 1_555 1_555
C5_6 C17_6 1_555 1_555
C10_6 C12_6 1_555 1_555
C15_6 C23_6 1_555 1_555
C21_6 C27_6 1_555 1_555
N7_6 Co1_6 1_555 1_555
C52_6 N7_6 1_555 1_555
N13_4 Co1_6 1_555 1_555
O6_6 C33_6 1_555 1_555
O7_6 C34_6 1_555 1_555
N10_4 C49_6 1_555 1_555
C31_6 H26_6 1_555 1_555
C33_6 C31_6 1_555 1_555
C34_6 C42_6 1_555 1_555
C37_6 N9_6 1_555 1_555
C38_6 O7_6 1_555 1_555
H33_6 C38_6 1_555 1_555
H34_6 C38_6 1_555 1_555
C39_6 C33_6 1_555 1_555
H35_6 C39_6 1_555 1_555
C40_6 O6_6 1_555 1_555
H36_6 C40_6 1_555 1_555
H37_6 C40_6 1_555 1_555
C42_6 H39_6 1_555 1_555
C43_6 C34_6 1_555 1_555
H40_6 C43_6 1_555 1_555
C45_6 N9_6 1_555 1_555
C49_6 C43_6 1_555 1_555
H45_6 C49_6 1_555 1_555
C50_6 N10_4 1_555 1_555
H46_6 C50_6 1_555 1_555
Co7_3 N10_4 1_555 1_555
C31_6 C45_6 1_555 1_555
C37_6 C39_6 1_555 1_555
C42_6 C50_6 1_555 1_555
O5_6 C29_6 1_555 1_555
O8_6 C36_6 1_555 1_555
N8_4 C41_6 1_555 1_555
N17_3 C51_6 1_555 1_555
C28_6 H25_6 1_555 1_555
C29_6 C28_6 1_555 1_555
C30_6 C35_6 1_555 1_555
C32_6 C29_6 1_555 1_555
H27_6 C32_6 1_555 1_555
C35_6 O5_6 1_555 1_555
H28_6 C35_6 1_555 1_555
H29_6 C35_6 1_555 1_555
C36_6 C30_6 1_555 1_555
H30_6 C36_6 1_555 1_555
H31_6 C36_6 1_555 1_555
C41_6 C28_6 1_555 1_555
C44_6 N8_4 1_555 1_555
H41_6 C44_6 1_555 1_555
C46_6 O8_6 1_555 1_555
C47_6 C46_6 1_555 1_555
H43_6 C47_6 1_555 1_555
C48_6 C46_6 1_555 1_555
H44_6 C48_6 1_555 1_555
C51_6 C47_6 1_555 1_555
H47_6 C51_6 1_555 1_555
C53_6 N17_3 1_555 1_555
Co4_3 N8_4 1_555 1_555
C32_6 C44_6 1_555 1_555
C48_6 C53_6 1_555 1_555
S2_7 C24_7 1_555 1_555
N6_7 Co6_2 1_555 1_555
C24_7 N6_7 1_555 1_555
N17_4 Co6_2 1_555 1_555
Co3_3 N1_7 1_555 1_555
S1_7 C26_7 1_555 1_555
O1_7 C2_7 1_555 1_555
O2_7 C6_7 1_555 1_555
N1_7 C26_7 1_555 1_555
N13_4 C14_7 1_555 1_555
N3_7 Co3_3 1_555 1_555
C1_7 H1_7 1_555 1_555
C2_7 C1_7 1_555 1_555
C4_7 H2_7 1_555 1_555
C5_7 C2_7 1_555 1_555
H3_7 C5_7 1_555 1_555
C6_7 C4_7 1_555 1_555
C8_7 O1_7 1_555 1_555
H4_7 C8_7 1_555 1_555
H5_7 C8_7 1_555 1_555
C10_7 N3_7 1_555 1_555
H8_7 C10_7 1_555 1_555
C12_7 C6_7 1_555 1_555
H11_7 C12_7 1_555 1_555
C13_7 O2_7 1_555 1_555
H12_7 C13_7 1_555 1_555
C14_7 C1_7 1_555 1_555
H14_7 C14_7 1_555 1_555
C17_7 N13_4 1_555 1_555
H17_7 C17_7 1_555 1_555
C18_7 N3_7 1_555 1_555
H18_7 C18_7 1_555 1_555
S3_7 C52_7 1_555 1_555
O5_7 C29_7 1_555 1_555
O6_7 C33_7 1_555 1_555
O7_7 C34_7 1_555 1_555
O8_7 C36_7 1_555 1_555
N7_7 Co3_3 1_555 1_555
N14_4 C41_7 1_555 1_555
N9_7 Co3_3 1_555 1_555
N16_4 C49_7 1_555 1_555
N17_4 C51_7 1_555 1_555
C28_7 H25_7 1_555 1_555
C29_7 C28_7 1_555 1_555
C30_7 C35_7 1_555 1_555
C31_7 H26_7 1_555 1_555
C32_7 C29_7 1_555 1_555
H27_7 C32_7 1_555 1_555
C33_7 C31_7 1_555 1_555
C34_7 C42_7 1_555 1_555
C35_7 O5_7 1_555 1_555
H28_7 C35_7 1_555 1_555
H29_7 C35_7 1_555 1_555
C36_7 C30_7 1_555 1_555
H30_7 C36_7 1_555 1_555
H31_7 C36_7 1_555 1_555
C37_7 N9_7 1_555 1_555
H32_7 C37_7 1_555 1_555
C38_7 O7_7 1_555 1_555
H33_7 C38_7 1_555 1_555
H34_7 C38_7 1_555 1_555
C39_7 C33_7 1_555 1_555
H35_7 C39_7 1_555 1_555
C40_7 O6_7 1_555 1_555
H36_7 C40_7 1_555 1_555
H37_7 C40_7 1_555 1_555
C41_7 C28_7 1_555 1_555
H38_7 C41_7 1_555 1_555
C42_7 H39_7 1_555 1_555
C43_7 C34_7 1_555 1_555
H40_7 C43_7 1_555 1_555
C44_7 N14_4 1_555 1_555
H41_7 C44_7 1_555 1_555
C45_7 N9_7 1_555 1_555
H42_7 C45_7 1_555 1_555
C46_7 O8_7 1_555 1_555
C47_7 C46_7 1_555 1_555
H43_7 C47_7 1_555 1_555
C48_7 C46_7 1_555 1_555
H44_7 C48_7 1_555 1_555
C49_7 C43_7 1_555 1_555
H45_7 C49_7 1_555 1_555
C50_7 N16_4 1_555 1_555
H46_7 C50_7 1_555 1_555
C51_7 C47_7 1_555 1_555
H47_7 C51_7 1_555 1_555
C52_7 N7_7 1_555 1_555
C53_7 N17_4 1_555 1_555
H48_7 C53_7 1_555 1_555
C4_7 C18_7 1_555 1_555
C5_7 C17_7 1_555 1_555
C10_7 C12_7 1_555 1_555
C30_7 C38_7 1_555 1_555
C30_7 C40_7 1_555 1_555
C31_7 C45_7 1_555 1_555
C32_7 C44_7 1_555 1_555
C37_7 C39_7 1_555 1_555
C42_7 C50_7 1_555 1_555
C48_7 C53_7 1_555 1_555
Co6_3 N5_7 1_555 1_555
O3_7 C7_7 1_555 1_555
O4_7 C9_7 1_555 1_555
N15_4 C22_7 1_555 1_555
N5_7 C25_7 1_555 1_555
C7_7 C15_7 1_555 1_555
C9_7 C3_7 1_555 1_555
H6_7 C9_7 1_555 1_555
H7_7 C9_7 1_555 1_555
C11_7 O3_7 1_555 1_555
H9_7 C11_7 1_555 1_555
C15_7 H15_7 1_555 1_555
C16_7 C7_7 1_555 1_555
H16_7 C16_7 1_555 1_555
C19_7 O4_7 1_555 1_555
C20_7 C19_7 1_555 1_555
H19_7 C20_7 1_555 1_555
C21_7 C19_7 1_555 1_555
H20_7 C21_7 1_555 1_555
C22_7 C16_7 1_555 1_555
H21_7 C22_7 1_555 1_555
C23_7 N15_4 1_555 1_555
H22_7 C23_7 1_555 1_555
C25_7 C20_7 1_555 1_555
H23_7 C25_7 1_555 1_555
C27_7 N5_7 1_555 1_555
H24_7 C27_7 1_555 1_555
S4_7 C54_7 1_555 1_555
N12_7 Co6_3 1_555 1_555
C54_7 N12_7 1_555 1_555
C3_7 C11_7 1_555 1_555
C15_7 C23_7 1_555 1_555
C21_7 C27_7 1_555 1_555
Co4_2 N1_8 1_555 1_555
S1_8 C26_8 1_555 1_555
N1_8 C26_8 1_555 1_555
O5_8 C29_8 1_555 1_555
O6_8 C33_8 1_555 1_555
O7_8 C34_8 1_555 1_555
O8_8 C36_8 1_555 1_555
N14_3 C41_8 1_555 1_555
N9_8 Co4_2 1_555 1_555
N16_3 C49_8 1_555 1_555
N11_4 C51_8 1_555 1_555
C28_8 H25_8 1_555 1_555
C29_8 C28_8 1_555 1_555
C30_8 C35_8 1_555 1_555
C31_8 H26_8 1_555 1_555
C32_8 C29_8 1_555 1_555
H27_8 C32_8 1_555 1_555
C33_8 C31_8 1_555 1_555
C34_8 C42_8 1_555 1_555
C35_8 O5_8 1_555 1_555
H28_8 C35_8 1_555 1_555
H29_8 C35_8 1_555 1_555
C36_8 C30_8 1_555 1_555
H30_8 C36_8 1_555 1_555
H31_8 C36_8 1_555 1_555
C37_8 N9_8 1_555 1_555
H32_8 C37_8 1_555 1_555
C38_8 O7_8 1_555 1_555
H33_8 C38_8 1_555 1_555
H34_8 C38_8 1_555 1_555
C39_8 C33_8 1_555 1_555
H35_8 C39_8 1_555 1_555
C40_8 O6_8 1_555 1_555
H36_8 C40_8 1_555 1_555
H37_8 C40_8 1_555 1_555
C41_8 C28_8 1_555 1_555
H38_8 C41_8 1_555 1_555
C42_8 H39_8 1_555 1_555
C43_8 C34_8 1_555 1_555
H40_8 C43_8 1_555 1_555
C44_8 N14_3 1_555 1_555
H41_8 C44_8 1_555 1_555
C45_8 N9_8 1_555 1_555
H42_8 C45_8 1_555 1_555
C46_8 O8_8 1_555 1_555
C47_8 C46_8 1_555 1_555
H43_8 C47_8 1_555 1_555
C48_8 C46_8 1_555 1_555
H44_8 C48_8 1_555 1_555
C49_8 C43_8 1_555 1_555
H45_8 C49_8 1_555 1_555
C50_8 N16_3 1_555 1_555
H46_8 C50_8 1_555 1_555
C51_8 C47_8 1_555 1_555
H47_8 C51_8 1_555 1_555
C53_8 N11_4 1_555 1_555
H48_8 C53_8 1_555 1_555
Co7_3 N11_4 1_555 1_555
C30_8 C38_8 1_555 1_555
C30_8 C40_8 1_555 1_555
C31_8 C45_8 1_555 1_555
C32_8 C44_8 1_555 1_555
C37_8 C39_8 1_555 1_555
C42_8 C50_8 1_555 1_555
C48_8 C53_8 1_555 1_555
Co7_3 N5_8 1_555 1_555
S2_8 C24_8 1_555 1_555
O3_8 C7_8 1_555 1_555
O4_8 C9_8 1_555 1_555
N15_3 C22_8 1_555 1_555
N5_8 C25_8 1_555 1_555
N6_8 Co7_3 1_555 1_555
C7_8 C15_8 1_555 1_555
C9_8 C3_8 1_555 1_555
H6_8 C9_8 1_555 1_555
H7_8 C9_8 1_555 1_555
C11_8 O3_8 1_555 1_555
H9_8 C11_8 1_555 1_555
C15_8 H15_8 1_555 1_555
C16_8 C7_8 1_555 1_555
H16_8 C16_8 1_555 1_555
C19_8 O4_8 1_555 1_555
C20_8 C19_8 1_555 1_555
H19_8 C20_8 1_555 1_555
C21_8 C19_8 1_555 1_555
H20_8 C21_8 1_555 1_555
C22_8 C16_8 1_555 1_555
H21_8 C22_8 1_555 1_555
C23_8 N15_3 1_555 1_555
H22_8 C23_8 1_555 1_555
C24_8 N6_8 1_555 1_555
C25_8 C20_8 1_555 1_555
H23_8 C25_8 1_555 1_555
C27_8 N5_8 1_555 1_555
H24_8 C27_8 1_555 1_555
S4_8 C54_8 1_555 1_555
N12_8 Co7_3 1_555 1_555
C54_8 N12_8 1_555 1_555
C3_8 C11_8 1_555 1_555
C15_8 C23_8 1_555 1_555
C21_8 C27_8 1_555 1_555
O1_8 C2_8 1_555 1_555
O2_8 C6_8 1_555 1_555
N13_3 C14_8 1_555 1_555
N3_8 Co4_3 1_555 1_555
C1_8 H1_8 1_555 1_555
C2_8 C1_8 1_555 1_555
C4_8 H2_8 1_555 1_555
C5_8 C2_8 1_555 1_555
H3_8 C5_8 1_555 1_555
C6_8 C4_8 1_555 1_555
C8_8 O1_8 1_555 1_555
H4_8 C8_8 1_555 1_555
H5_8 C8_8 1_555 1_555
C10_8 N3_8 1_555 1_555
H8_8 C10_8 1_555 1_555
C12_8 C6_8 1_555 1_555
H11_8 C12_8 1_555 1_555
C13_8 O2_8 1_555 1_555
H12_8 C13_8 1_555 1_555
C14_8 C1_8 1_555 1_555
H14_8 C14_8 1_555 1_555
C17_8 N13_3 1_555 1_555
H17_8 C17_8 1_555 1_555
C18_8 N3_8 1_555 1_555
H18_8 C18_8 1_555 1_555
S3_8 C52_8 1_555 1_555
N7_8 Co4_3 1_555 1_555
C52_8 N7_8 1_555 1_555
C4_8 C18_8 1_555 1_555
C5_8 C17_8 1_555 1_555
C10_8 C12_8 1_555 1_555

#END
