
###############################################################################
#
# This file contains modified crystal structure data generated from the
# MOF subset of the Cambridge Structural Database (CSD) v543 
# hosted by the Cambridge Crystallographic Data Centre (CCDC).
#
# This work is licensed under the Creative Commons
# Attribution-NonCommercial-ShareAlike 4.0 International License.
# To view a copy of this license, visit
# http://creativecommons.org/licenses/by-nc-sa/4.0/
# or send a letter to
# Creative Commons, PO Box 1866, Mountain View, CA 94042, USA.
#
# CIF created using the CSD Python API on 29 September 2022
# The structure has been converted into the P1 space group
# The structure has a 3D framework
# The original CSD entry QIBQIE is in the tetragonal crystal system
# The framework has been calculated to contain at least 10.0% void space
# The void calculation uses a probe of radius 1.32A, grid spacing 0.4
#
###############################################################################

data_QIBQIE
_chemical_formula_moiety         '(C432 H384 Co24 N96 O64 S32)n'
_symmetry_cell_setting           triclinic
_symmetry_space_group_name_H-M   'P 1'
_symmetry_Int_Tables_number      1
_space_group_name_Hall           'P 1'
loop_
_symmetry_equiv_pos_site_id
_symmetry_equiv_pos_as_xyz
1 x,y,z
_cell_length_a                   18.142(3)
_cell_length_b                   18.142(3)
_cell_length_c                   43.988(9)
_cell_angle_alpha                90
_cell_angle_beta                 90
_cell_angle_gamma                90
_cell_volume                     14477.9
loop_
_atom_site_label
_atom_site_type_symbol
_atom_site_fract_x
_atom_site_fract_y
_atom_site_fract_z
Co2 Co -0.0000 0.2500 0.52963(2)
S2 S 0.14832(9) 0.45765(9) 0.49898(4)
N5 N 0.0683(2) 0.3452(3) 0.52923(7)
H22 H 0.0337 0.6653 0.3393
H24 H 0.0083 0.3384 0.4703
C27 C 0.1004(3) 0.3919(3) 0.51746(10)
Co7 Co 0.0000 0.7500 0.27963(2)
N15 N 0.0695(2) 0.2037(3) 0.49554(6)
N16 N 0.0669(2) 0.1970(2) 0.56324(6)
Co1 Co 0.5000 0.2500 0.27657(2)
Co2_2 Co 1.0000 0.2500 0.52963(2)
S1 S 0.69510(6) 0.09822(7) 0.24693(3)
O1 O 0.66189(12) 0.57103(13) 0.42493(4)
O2 O 0.70799(12) 0.38878(13) 0.37472(5)
O3 O 0.84334(12) 0.56541(13) 0.38084(4)
O4 O 0.78910(12) 0.38847(13) 0.43310(5)
N1 N 0.55428(13) 0.68507(13) 0.49262(5)
N2 N 0.56910(13) 0.29711(15) 0.31107(5)
N3 N 0.57155(14) 0.15745(15) 0.27542(5)
C1 C 0.52099(16) 0.66406(16) 0.46677(6)
H1 H 0.4714 0.6755 0.4642
C2 C 0.66552(17) 0.62876(17) 0.47471(6)
H2 H 0.7146 0.6165 0.4781
C3 C 0.65954(15) 0.35978(16) 0.35498(6)
C4 C 0.62541(16) 0.66765(16) 0.49602(6)
H3 H 0.6492 0.6826 0.5137
C5 C 0.63006(16) 0.60840(16) 0.44791(6)
C6 C 0.68942(16) 0.31916(17) 0.33121(6)
H4 H 0.7401 0.3127 0.3297
C7 C 0.75104(15) 0.49078(16) 0.40364(5)
C8 C 0.73300(16) 0.53902(17) 0.43091(6)
H5 H 0.7315 0.5097 0.4493
H6 H 0.7699 0.5773 0.4333
C9 C 0.55648(16) 0.62657(16) 0.44389(6)
H7 H 0.5317 0.6137 0.4261
N4 N 0.9305(2) 0.2963(3) 0.49554(6)
C10 C 0.54108(16) 0.33605(18) 0.33414(6)
H8 H 0.4902 0.3419 0.3351
C11 C 0.64316(15) 0.28875(18) 0.31009(6)
H9 H 0.6635 0.2611 0.2944
C12 C 0.58338(15) 0.36812(17) 0.35662(6)
H10 H 0.5617 0.3945 0.3724
C13 C 0.77029(17) 0.53680(18) 0.37569(6)
H11 H 0.7693 0.5065 0.3575
H12 H 0.7353 0.5768 0.3732
C14 C 0.68283(16) 0.44416(16) 0.39545(6)
H13 H 0.6621 0.4216 0.4135
H14 H 0.6454 0.4746 0.3860
N6 N 0.9470(2) 0.6831(2) 0.31324(6)
C15 C 0.81651(16) 0.44266(17) 0.41221(6)
H15 H 0.8369 0.4191 0.3943
H16 H 0.8548 0.4721 0.4217
C16 C 0.8742(2) 0.60349(19) 0.35796(6)
C17 C 0.62267(18) 0.13208(19) 0.26355(7)
C18 C 0.83817(19) 0.3580(2) 0.45241(7)
C19 C 0.8357(2) 0.6282(2) 0.33235(7)
H17 H 0.7859 0.6180 0.3297
C20 C 0.9491(2) 0.6186(2) 0.36043(7)
H18 H 0.9755 0.6028 0.3773
C21 C 0.8091(2) 0.3178(2) 0.47617(8)
H19 H 0.7585 0.3109 0.4779
C22 C 0.91440(19) 0.3652(2) 0.44971(7)
H20 H 0.9354 0.3904 0.4335
C23 C 0.8566(2) 0.2881(3) 0.49730(8)
H21 H 0.8371 0.2613 0.5134
C24 C 0.9832(3) 0.6569(3) 0.33777(8)
C25 C 0.8748(3) 0.6685(2) 0.31106(8)
H23 H 0.8494 0.6865 0.2942
C26 C 0.9574(2) 0.3335(3) 0.47189(7)
S3 S 0.30490(6) 0.40178(7) 0.24693(3)
O6 O 0.29201(12) 0.11122(13) 0.37472(5)
O8 O 0.21090(12) 0.11153(13) 0.43310(5)
N8 N 0.43090(13) 0.20289(15) 0.31107(5)
N9 N 0.42845(14) 0.34255(15) 0.27542(5)
C30 C 0.34046(15) 0.14022(16) 0.35498(6)
C33 C 0.31058(16) 0.18084(17) 0.33121(6)
H28 H 0.2599 0.1873 0.3297
C34 C 0.24896(15) 0.00922(16) 0.40364(5)
C37 C 0.45892(16) 0.16395(18) 0.33414(6)
H32 H 0.5098 0.1581 0.3351
C38 C 0.35684(15) 0.21125(18) 0.31009(6)
H33 H 0.3365 0.2389 0.2944
C39 C 0.41662(15) 0.13188(17) 0.35662(6)
H34 H 0.4383 0.1055 0.3724
C41 C 0.31717(16) 0.05584(16) 0.39545(6)
H37 H 0.3379 0.0784 0.4135
H38 H 0.3546 0.0254 0.3860
C42 C 0.18349(16) 0.05734(17) 0.41221(6)
H39 H 0.1631 0.0809 0.3943
H40 H 0.1452 0.0279 0.4217
C44 C 0.37733(18) 0.36792(19) 0.26355(7)
C45 C 0.16183(19) 0.1420(2) 0.45241(7)
C48 C 0.1909(2) 0.1822(2) 0.47617(8)
H43 H 0.2415 0.1891 0.4779
C49 C 0.08560(19) 0.1348(2) 0.44971(7)
H44 H 0.0646 0.1096 0.4335
C50 C 0.1434(2) 0.2119(3) 0.49730(8)
H45 H 0.1629 0.2387 0.5134
C53 C 0.0426(2) 0.1665(3) 0.47189(7)
S4 S 0.85168(9) 0.04235(9) 0.49898(4)
N12 N 0.9317(2) 0.1548(3) 0.52923(7)
C54 C 0.8996(3) 0.1081(3) 0.51746(10)
Co4 Co 0.5000 0.7500 0.52657(2)
Co7_2 Co 1.0000 0.7500 0.27963(2)
N13 N 0.43507(13) 0.19572(13) 0.24262(5)
N14 N 0.56493(13) 0.30428(13) 0.24262(5)
N17 N 0.9331(2) 0.3030(2) 0.56324(6)
O5 O 0.33811(12) 0.92897(13) 0.42493(4)
O7 O 0.15666(12) 0.93459(13) 0.38084(4)
N7 N 0.44572(13) 0.81493(13) 0.49262(5)
C28 C 0.47901(16) 0.83594(16) 0.46677(6)
H25 H 0.5286 0.8245 0.4642
C29 C 0.33448(17) 0.87124(17) 0.47471(6)
H26 H 0.2854 0.8835 0.4781
C31 C 0.37459(16) 0.83235(16) 0.49602(6)
H27 H 0.3508 0.8174 0.5137
C32 C 0.36994(16) 0.89160(16) 0.44791(6)
C35 C 0.26700(16) 0.96098(17) 0.43091(6)
H29 H 0.2685 0.9903 0.4493
H30 H 0.2301 0.9227 0.4333
C36 C 0.44352(16) 0.87343(16) 0.44389(6)
H31 H 0.4683 0.8863 0.4261
C40 C 0.22971(17) 0.96320(18) 0.37569(6)
H35 H 0.2307 0.9935 0.3575
H36 H 0.2647 0.9232 0.3732
N11 N 0.0530(2) 0.8169(2) 0.31324(6)
C43 C 0.1258(2) 0.89651(19) 0.35796(6)
C46 C 0.1643(2) 0.8718(2) 0.33235(7)
H41 H 0.2141 0.8820 0.3297
C47 C 0.0509(2) 0.8814(2) 0.36043(7)
H42 H 0.0245 0.8972 0.3773
C51 C 0.0168(3) 0.8431(3) 0.33777(8)
C52 C 0.1252(3) 0.8315(2) 0.31106(8)
H47 H 0.1506 0.8135 0.2942
H48 H 0.9917 0.1616 0.4703
H46 H 0.9663 0.8347 0.3393
H27_2 H 0.1492 0.1826 0.0137
Co3 Co 0.0000 0.2500 0.02657(2)
O5_2 O 0.16189(12) 0.07103(13) 0.92493(4)
O7_2 O 0.34334(12) 0.06541(13) 0.88084(4)
N7_2 N 0.05428(13) 0.18507(13) 0.99262(5)
C28_2 C 0.02099(16) 0.16406(16) 0.96677(6)
C29_2 C 0.16552(17) 0.12876(17) 0.97471(6)
H26_2 H 0.2146 0.1165 0.9781
C31_2 C 0.12541(16) 0.16765(16) 0.99602(6)
C32_2 C 0.13006(16) 0.10840(16) 0.94791(6)
C35_2 C 0.23300(16) 0.03902(17) 0.93091(6)
H29_2 H 0.2315 0.0097 0.9493
H30_2 H 0.2699 0.0773 0.9333
C36_2 C 0.05648(16) 0.12657(16) 0.94389(6)
H31_2 H 0.0317 0.1137 0.9261
C40_2 C 0.27029(17) 0.03680(18) 0.87569(6)
H35_2 H 0.2693 0.0065 0.8575
H36_2 H 0.2353 0.0768 0.8732
N11_2 N 0.4470(2) 0.1831(2) 0.81324(6)
C43_2 C 0.3742(2) 0.10349(19) 0.85796(6)
C46_2 C 0.3357(2) 0.1282(2) 0.83235(7)
H41_2 H 0.2859 0.1180 0.8297
C47_2 C 0.4491(2) 0.1186(2) 0.86043(7)
H42_2 H 0.4755 0.1028 0.8773
C51_2 C 0.4832(3) 0.1569(3) 0.83777(8)
H46_2 H 0.5337 0.1653 0.8393
C52_2 C 0.3748(3) 0.1685(2) 0.81106(8)
H47_2 H 0.3494 0.1865 0.7942
Co6 Co 0.5000 0.2500 0.77963(2)
H45_2 H 0.3371 0.7613 0.0134
Co5 Co 0.5000 0.7500 0.02963(2)
Co1_2 Co 0.0000 0.7500 0.77657(2)
H1_2 H 0.0286 0.3245 0.9642
H8_2 H 0.0098 0.6581 0.8351
S3_2 S 0.19510(6) 0.59822(7) 0.74693(3)
O6_2 O 0.20799(12) 0.88878(13) 0.87472(5)
O8_2 O 0.28910(12) 0.88847(13) 0.93310(5)
N8_2 N 0.06910(13) 0.79711(15) 0.81107(5)
N9_2 N 0.07155(14) 0.65745(15) 0.77542(5)
C30_2 C 0.15954(15) 0.85978(16) 0.85498(6)
C33_2 C 0.18942(16) 0.81916(17) 0.83121(6)
H28_2 H 0.2401 0.8127 0.8297
C34_2 C 0.25104(15) 0.99078(16) 0.90364(5)
N10 N 0.4305(2) 0.7963(3) 0.99554(6)
C37_2 C 0.04108(16) 0.83605(18) 0.83414(6)
C38_2 C 0.14316(15) 0.78875(18) 0.81009(6)
H33_2 H 0.1635 0.7611 0.7944
C39_2 C 0.08338(15) 0.86812(17) 0.85662(6)
H34_2 H 0.0617 0.8945 0.8724
C41_2 C 0.18283(16) 0.94416(16) 0.89545(6)
H37_2 H 0.1621 0.9216 0.9135
H38_2 H 0.1454 0.9746 0.8860
C42_2 C 0.31651(16) 0.94266(17) 0.91221(6)
H39_2 H 0.3369 0.9191 0.8943
H40_2 H 0.3548 0.9721 0.9217
C44_2 C 0.12267(18) 0.63208(19) 0.76355(7)
C45_2 C 0.33817(19) 0.8580(2) 0.95241(7)
C48_2 C 0.3091(2) 0.8178(2) 0.97617(8)
H43_2 H 0.2585 0.8109 0.9779
C49_2 C 0.41440(19) 0.8652(2) 0.94971(7)
H44_2 H 0.4354 0.8904 0.9335
C50_2 C 0.3566(2) 0.7881(3) 0.99730(8)
C53_2 C 0.4574(2) 0.8335(3) 0.97189(7)
H48_2 H 0.5083 0.8384 0.9703
N13_2 N 0.06493(13) 0.80428(13) 0.74262(5)
Co3_2 Co 1.0000 0.2500 0.02657(2)
H3_2 H 0.8508 0.3174 0.0137
N5_2 N 0.4317(2) 0.6548(3) 0.02923(7)
H21_2 H 0.6629 0.7387 0.0134
C27_2 C 0.3996(3) 0.6081(3) 0.01746(10)
N12_2 N 0.5683(2) 0.8452(3) 0.02923(7)
C54_2 C 0.6004(3) 0.8919(3) 0.01746(10)
N16_2 N 0.4331(2) 0.8030(2) 0.06324(6)
N17_2 N 0.5669(2) 0.6970(2) 0.06324(6)
Co1_3 Co 1.0000 0.7500 0.77657(2)
S1_2 S 0.80490(6) 0.90178(7) 0.74693(3)
S2_2 S 0.35168(9) 0.54235(9) 0.99898(4)
O1_2 O 0.83811(12) 0.42897(13) 0.92493(4)
O2_2 O 0.79201(12) 0.61122(13) 0.87472(5)
O3_2 O 0.65666(12) 0.43459(13) 0.88084(4)
O4_2 O 0.71090(12) 0.61153(13) 0.93310(5)
N1_2 N 0.94572(13) 0.31493(13) 0.99262(5)
N2_2 N 0.93090(13) 0.70289(15) 0.81107(5)
N3_2 N 0.92845(14) 0.84255(15) 0.77542(5)
C1_2 C 0.97901(16) 0.33594(16) 0.96677(6)
C2_2 C 0.83448(17) 0.37124(17) 0.97471(6)
H2_2 H 0.7854 0.3835 0.9781
C3_2 C 0.84046(15) 0.64022(16) 0.85498(6)
C4_2 C 0.87459(16) 0.33235(16) 0.99602(6)
C5_2 C 0.86994(16) 0.39160(16) 0.94791(6)
C6_2 C 0.81058(16) 0.68084(17) 0.83121(6)
H4_2 H 0.7599 0.6873 0.8297
C7_2 C 0.74896(15) 0.50922(16) 0.90364(5)
C8_2 C 0.76700(16) 0.46098(17) 0.93091(6)
H5_2 H 0.7685 0.4903 0.9493
H6_2 H 0.7301 0.4227 0.9333
C9_2 C 0.94352(16) 0.37343(16) 0.94389(6)
H7_2 H 0.9683 0.3863 0.9261
N4_2 N 0.5695(2) 0.7037(3) 0.99554(6)
C10_2 C 0.95892(16) 0.66395(18) 0.83414(6)
C11_2 C 0.85684(15) 0.71125(18) 0.81009(6)
H9_2 H 0.8365 0.7389 0.7944
C12_2 C 0.91662(15) 0.63188(17) 0.85662(6)
H10_2 H 0.9383 0.6055 0.8724
C13_2 C 0.72971(17) 0.46320(18) 0.87569(6)
H11_2 H 0.7307 0.4935 0.8575
H12_2 H 0.7647 0.4232 0.8732
C14_2 C 0.81717(16) 0.55584(16) 0.89545(6)
H13_2 H 0.8379 0.5784 0.9135
H14_2 H 0.8546 0.5254 0.8860
N6_2 N 0.5530(2) 0.3169(2) 0.81324(6)
C15_2 C 0.68349(16) 0.55734(17) 0.91221(6)
H15_2 H 0.6631 0.5809 0.8943
H16_2 H 0.6452 0.5279 0.9217
C16_2 C 0.6258(2) 0.39651(19) 0.85796(6)
C17_2 C 0.87733(18) 0.86792(19) 0.76355(7)
C18_2 C 0.66183(19) 0.6420(2) 0.95241(7)
C19_2 C 0.6643(2) 0.3718(2) 0.83235(7)
H17_2 H 0.7141 0.3820 0.8297
C20_2 C 0.5509(2) 0.3814(2) 0.86043(7)
H18_2 H 0.5245 0.3972 0.8773
C21_2 C 0.6909(2) 0.6822(2) 0.97617(8)
H19_2 H 0.7415 0.6891 0.9779
C22_2 C 0.58560(19) 0.6348(2) 0.94971(7)
H20_2 H 0.5646 0.6096 0.9335
C23_2 C 0.6434(2) 0.7119(3) 0.99730(8)
C24_2 C 0.5168(3) 0.3431(3) 0.83777(8)
H22_2 H 0.4663 0.3347 0.8393
C25_2 C 0.6252(3) 0.3315(2) 0.81106(8)
H23_2 H 0.6506 0.3135 0.7942
C26_2 C 0.5426(2) 0.6665(3) 0.97189(7)
H24_2 H 0.4917 0.6616 0.9703
H32_2 H 0.9902 0.8419 0.8351
S4_2 S 0.64832(9) 0.95765(9) 0.99898(4)
N14_2 N 0.93507(13) 0.69572(13) 0.74262(5)
S2_3 S 0.29235(9) 0.39832(9) 0.74898(4)
O3_3 O 0.18459(13) 0.09334(12) 0.63084(4)
O4_3 O 0.36153(13) 0.03910(12) 0.68310(5)
C7_3 C 0.25922(16) 0.00104(15) 0.65364(5)
H6_3 H 0.1727 0.0199 0.6833
N4_3 N 0.4537(3) 0.1805(2) 0.74554(6)
C13_3 C 0.21320(18) 0.02029(17) 0.62569(6)
H11_3 H 0.2435 0.0193 0.6075
N5_3 N 0.4048(3) 0.3183(2) 0.77923(7)
C15_3 C 0.30734(17) 0.06651(16) 0.66221(6)
H15_3 H 0.3309 0.0869 0.6443
H16_3 H 0.2779 0.1048 0.6717
C16_3 C 0.14651(19) 0.1242(2) 0.60796(6)
C18_3 C 0.3920(2) 0.08817(19) 0.70241(7)
C19_3 C 0.1218(2) 0.0857(2) 0.58235(7)
H17_3 H 0.1320 0.0359 0.5797
C20_3 C 0.1314(2) 0.1991(2) 0.61043(7)
H18_3 H 0.1472 0.2255 0.6273
C21_3 C 0.4322(2) 0.0591(2) 0.72617(8)
H19_3 H 0.4391 0.0085 0.7279
C22_3 C 0.3848(2) 0.16440(19) 0.69971(7)
H20_3 H 0.3596 0.1854 0.6835
C23_3 C 0.4619(3) 0.1066(2) 0.74730(8)
H21_3 H 0.4887 0.0871 0.7634
C24_3 C 0.0931(3) 0.2332(3) 0.58777(8)
H22_3 H 0.0847 0.2837 0.5893
C25_3 C 0.0815(2) 0.1248(3) 0.56106(8)
H23_3 H 0.0635 0.0994 0.5442
C26_3 C 0.4165(3) 0.2074(2) 0.72189(7)
H24_3 H 0.4116 0.2583 0.7203
C27_3 C 0.3581(3) 0.3504(3) 0.76746(10)
S4_3 S 0.70765(9) 0.10168(9) 0.74898(4)
N12_3 N 0.5952(3) 0.1817(2) 0.77923(7)
C54_3 C 0.6419(3) 0.1496(3) 0.76746(10)
N15_2 N 0.5463(3) 0.3195(2) 0.74554(6)
S1_3 S 0.65178(7) 0.94510(6) 0.49693(3)
O1_3 O 0.17897(13) 0.91189(12) 0.67493(4)
O2_3 O 0.36122(13) 0.95799(12) 0.62472(5)
N2_3 N 0.45289(15) 0.81910(13) 0.56107(5)
N3_3 N 0.59255(15) 0.82155(14) 0.52542(5)
C1_3 C 0.08594(16) 0.77099(16) 0.71677(6)
H1_3 H 0.0745 0.7214 0.7142
C2_3 C 0.12124(17) 0.91552(17) 0.72471(6)
H2_3 H 0.1335 0.9646 0.7281
C3_3 C 0.39022(16) 0.90954(15) 0.60498(6)
C4_3 C 0.08235(16) 0.87541(16) 0.74602(6)
H3_3 H 0.0674 0.8992 0.7637
C5_3 C 0.14160(16) 0.88006(16) 0.69791(6)
C6_3 C 0.43084(17) 0.93942(16) 0.58121(6)
H4_3 H 0.4373 0.9901 0.5797
C8_3 C 0.21098(17) 0.98300(16) 0.68091(6)
H5_3 H 0.2403 0.9815 0.6993
C9_3 C 0.12343(16) 0.80648(16) 0.69389(6)
H7_3 H 0.1363 0.7817 0.6761
C10_3 C 0.41395(18) 0.79108(16) 0.58414(6)
H8_3 H 0.4081 0.7402 0.5851
C11_3 C 0.46125(18) 0.89316(15) 0.56009(6)
H9_3 H 0.4889 0.9135 0.5444
C12_3 C 0.38188(17) 0.83338(15) 0.60662(6)
H10_3 H 0.3555 0.8117 0.6224
H12_3 H 0.1732 0.9853 0.6232
C14_3 C 0.30584(16) 0.93283(16) 0.64545(6)
H13_3 H 0.3284 0.9121 0.6635
H14_3 H 0.2754 0.8954 0.6360
C17_3 C 0.61792(19) 0.87267(18) 0.51355(7)
S3_3 S 0.34822(7) 0.55490(6) 0.49693(3)
O5_3 O 0.82103(13) 0.58811(12) 0.67493(4)
O6_3 O 0.63878(13) 0.54201(12) 0.62472(5)
O7_3 O 0.81541(13) 0.40666(12) 0.63084(4)
O8_3 O 0.63847(13) 0.46090(12) 0.68310(5)
N8_3 N 0.54711(15) 0.68090(13) 0.56107(5)
N9_3 N 0.40745(15) 0.67845(14) 0.52542(5)
C28_3 C 0.91406(16) 0.72901(16) 0.71677(6)
H25_2 H 0.9255 0.7786 0.7142
C29_3 C 0.87876(17) 0.58448(17) 0.72471(6)
H26_3 H 0.8665 0.5354 0.7281
C30_3 C 0.60978(16) 0.59046(15) 0.60498(6)
C31_3 C 0.91765(16) 0.62459(16) 0.74602(6)
H27_3 H 0.9326 0.6008 0.7637
C32_3 C 0.85840(16) 0.61994(16) 0.69791(6)
C33_3 C 0.56916(17) 0.56058(16) 0.58121(6)
H28_3 H 0.5627 0.5099 0.5797
C34_3 C 0.74078(16) 0.49896(15) 0.65364(5)
C35_3 C 0.78902(17) 0.51700(16) 0.68091(6)
H29_3 H 0.7597 0.5185 0.6993
H30_3 H 0.8273 0.4801 0.6833
C36_3 C 0.87657(16) 0.69352(16) 0.69389(6)
H31_3 H 0.8637 0.7183 0.6761
C37_3 C 0.58605(18) 0.70892(16) 0.58414(6)
H32_3 H 0.5919 0.7598 0.5851
C38_3 C 0.53875(18) 0.60684(15) 0.56009(6)
H33_3 H 0.5111 0.5865 0.5444
C39_3 C 0.61812(17) 0.66662(15) 0.60662(6)
H34_3 H 0.6445 0.6883 0.6224
C40_3 C 0.78680(18) 0.47971(17) 0.62569(6)
H35_3 H 0.7565 0.4807 0.6075
H36_3 H 0.8268 0.5147 0.6232
C41_3 C 0.69416(16) 0.56717(16) 0.64545(6)
H37_3 H 0.6716 0.5879 0.6635
H38_3 H 0.7246 0.6046 0.6360
C42_3 C 0.69266(17) 0.43349(16) 0.66221(6)
H39_3 H 0.6691 0.4131 0.6443
H40_3 H 0.7221 0.3952 0.6717
C43_3 C 0.85349(19) 0.3758(2) 0.60796(6)
C44_3 C 0.38208(19) 0.62733(18) 0.51355(7)
C45_3 C 0.6080(2) 0.41183(19) 0.70241(7)
C46_3 C 0.8782(2) 0.4143(2) 0.58235(7)
H41_3 H 0.8680 0.4641 0.5797
C47_3 C 0.8686(2) 0.3009(2) 0.61043(7)
H42_3 H 0.8528 0.2745 0.6273
C48_3 C 0.5678(2) 0.4409(2) 0.72617(8)
H43_3 H 0.5609 0.4915 0.7279
C49_3 C 0.6152(2) 0.33560(19) 0.69971(7)
H44_3 H 0.6404 0.3146 0.6835
C50_3 C 0.5381(3) 0.3934(2) 0.74730(8)
H45_3 H 0.5113 0.4129 0.7634
C51_3 C 0.9069(3) 0.2668(3) 0.58777(8)
H46_3 H 0.9153 0.2163 0.5893
C52_3 C 0.9185(2) 0.3752(3) 0.56106(8)
H47_3 H 0.9365 0.4006 0.5442
C53_3 C 0.5835(3) 0.2926(2) 0.72189(7)
H48_3 H 0.5884 0.2417 0.7203
O1_4 O 0.32103(13) 0.08811(12) 0.17493(4)
O2_4 O 0.13878(13) 0.04201(12) 0.12472(5)
N2_4 N 0.04711(15) 0.18090(13) 0.06107(5)
C1_4 C 0.41406(16) 0.22901(16) 0.21677(6)
H1_4 H 0.4255 0.2786 0.2142
C2_4 C 0.37876(17) 0.08448(17) 0.22471(6)
H2_4 H 0.3665 0.0354 0.2281
C3_4 C 0.10978(16) 0.09046(15) 0.10498(6)
C4_4 C 0.41765(16) 0.12459(16) 0.24602(6)
H3_4 H 0.4326 0.1008 0.2637
C5_4 C 0.35840(16) 0.11994(16) 0.19791(6)
C6_4 C 0.06916(17) 0.06058(16) 0.08121(6)
H4_4 H 0.0627 0.0099 0.0797
C8_4 C 0.28902(17) 0.01700(16) 0.18091(6)
H5_4 H 0.2597 0.0185 0.1993
C9_4 C 0.37657(16) 0.19352(16) 0.19389(6)
H7_4 H 0.3637 0.2183 0.1761
C10_4 C 0.08605(18) 0.20892(16) 0.08414(6)
H8_4 H 0.0919 0.2598 0.0851
C11_4 C 0.03875(18) 0.10684(15) 0.06009(6)
H9_4 H 0.0111 0.0865 0.0444
C12_4 C 0.11812(17) 0.16662(15) 0.10662(6)
H10_4 H 0.1445 0.1883 0.1224
H12_4 H 0.3268 0.0147 0.1232
C14_4 C 0.19416(16) 0.06717(16) 0.14545(6)
H13_4 H 0.1716 0.0879 0.1635
H14_4 H 0.2246 0.1046 0.1360
N9_4 N 0.09255(15) 0.32155(14) 0.02542(5)
C44_4 C 0.11792(19) 0.37267(18) 0.01355(7)
S3_4 S 0.15178(7) 0.44510(6) 0.99693(3)
S2_4 S 0.20765(9) 0.60168(9) 0.24898(4)
O3_4 O 0.31541(13) 0.90666(12) 0.13084(4)
O4_4 O 0.13847(13) 0.96090(12) 0.18310(5)
C7_4 C 0.24078(16) 0.99896(15) 0.15364(5)
H6_4 H 0.3273 0.9801 0.1833
N4_4 N 0.0463(3) 0.8195(2) 0.24554(6)
C13_4 C 0.28680(18) 0.97971(17) 0.12569(6)
H11_4 H 0.2565 0.9807 0.1075
N5_4 N 0.0952(3) 0.6817(2) 0.27923(7)
C15_4 C 0.19266(17) 0.93349(16) 0.16221(6)
H15_4 H 0.1691 0.9131 0.1443
H16_4 H 0.2221 0.8952 0.1717
C16_4 C 0.35349(19) 0.8758(2) 0.10796(6)
C18_4 C 0.1080(2) 0.91183(19) 0.20241(7)
C19_4 C 0.3782(2) 0.9143(2) 0.08235(7)
H17_4 H 0.3680 0.9641 0.0797
C20_4 C 0.3686(2) 0.8009(2) 0.11043(7)
H18_4 H 0.3528 0.7745 0.1273
C21_4 C 0.0678(2) 0.9409(2) 0.22617(8)
H19_4 H 0.0609 0.9915 0.2279
C22_4 C 0.1152(2) 0.83560(19) 0.19971(7)
H20_4 H 0.1404 0.8146 0.1835
C23_4 C 0.0381(3) 0.8934(2) 0.24730(8)
H21_4 H 0.0113 0.9129 0.2634
C24_4 C 0.4069(3) 0.7668(3) 0.08777(8)
H22_4 H 0.4153 0.7163 0.0893
C25_4 C 0.4185(2) 0.8752(3) 0.06106(8)
H23_4 H 0.4365 0.9006 0.0442
C26_4 C 0.0835(3) 0.7926(2) 0.22189(7)
H24_4 H 0.0884 0.7417 0.2203
C27_4 C 0.1419(3) 0.6496(3) 0.26746(10)
N3_4 N 0.90745(15) 0.17845(14) 0.02542(5)
C17_4 C 0.88208(19) 0.12733(18) 0.01355(7)
O5_4 O 0.67897(13) 0.41189(12) 0.17493(4)
O6_4 O 0.86122(13) 0.45799(12) 0.12472(5)
O7_4 O 0.68459(13) 0.59334(12) 0.13084(4)
O8_4 O 0.86153(13) 0.53910(12) 0.18310(5)
N8_4 N 0.95289(15) 0.31910(13) 0.06107(5)
C28_4 C 0.58594(16) 0.27099(16) 0.21677(6)
H25_3 H 0.5745 0.2214 0.2142
C29_4 C 0.62124(17) 0.41552(17) 0.22471(6)
H26_4 H 0.6335 0.4646 0.2281
C30_4 C 0.89022(16) 0.40954(15) 0.10498(6)
C31_4 C 0.58235(16) 0.37541(16) 0.24602(6)
H27_4 H 0.5674 0.3992 0.2637
C32_4 C 0.64160(16) 0.38006(16) 0.19791(6)
C33_4 C 0.93084(17) 0.43942(16) 0.08121(6)
H28_4 H 0.9373 0.4901 0.0797
C34_4 C 0.75922(16) 0.50104(15) 0.15364(5)
C35_4 C 0.71098(17) 0.48300(16) 0.18091(6)
H29_4 H 0.7403 0.4815 0.1993
H30_4 H 0.6727 0.5199 0.1833
C36_4 C 0.62343(16) 0.30648(16) 0.19389(6)
H31_4 H 0.6363 0.2817 0.1761
N10_2 N 0.9537(3) 0.6805(2) 0.24554(6)
C37_4 C 0.91395(18) 0.29108(16) 0.08414(6)
H32_4 H 0.9081 0.2402 0.0851
C38_4 C 0.96125(18) 0.39316(15) 0.06009(6)
H33_4 H 0.9889 0.4135 0.0444
C39_4 C 0.88188(17) 0.33338(15) 0.10662(6)
H34_4 H 0.8555 0.3117 0.1224
C40_4 C 0.71320(18) 0.52029(17) 0.12569(6)
H35_4 H 0.7435 0.5193 0.1075
H36_4 H 0.6732 0.4853 0.1232
C41_4 C 0.80584(16) 0.43283(16) 0.14545(6)
H37_4 H 0.8284 0.4121 0.1635
H38_4 H 0.7754 0.3954 0.1360
C42_4 C 0.80734(17) 0.56651(16) 0.16221(6)
H39_4 H 0.8309 0.5869 0.1443
H40_4 H 0.7779 0.6048 0.1717
C43_4 C 0.64651(19) 0.6242(2) 0.10796(6)
C45_4 C 0.8920(2) 0.58817(19) 0.20241(7)
C46_4 C 0.6218(2) 0.5857(2) 0.08235(7)
H41_4 H 0.6320 0.5359 0.0797
C47_4 C 0.6314(2) 0.6991(2) 0.11043(7)
H42_4 H 0.6472 0.7255 0.1273
C48_4 C 0.9322(2) 0.5591(2) 0.22617(8)
H43_4 H 0.9391 0.5085 0.2279
C49_4 C 0.8848(2) 0.66440(19) 0.19971(7)
H44_4 H 0.8596 0.6854 0.1835
C50_4 C 0.9619(3) 0.6066(2) 0.24730(8)
H45_4 H 0.9887 0.5871 0.2634
C51_4 C 0.5931(3) 0.7332(3) 0.08777(8)
H46_4 H 0.5847 0.7837 0.0893
C52_4 C 0.5815(2) 0.6248(3) 0.06106(8)
H47_4 H 0.5635 0.5994 0.0442
C53_4 C 0.9165(3) 0.7074(2) 0.22189(7)
H48_4 H 0.9116 0.7583 0.2203
S1_4 S 0.84822(7) 0.05490(6) 0.99693(3)
S4_4 S 0.79235(9) 0.89832(9) 0.24898(4)
N12_4 N 0.9048(3) 0.8183(2) 0.27923(7)
C54_4 C 0.8581(3) 0.8504(3) 0.26746(10)
H25_4 H 0.9714 0.1755 0.9642
H46_5 H 0.0337 0.1653 0.6607
Co6_2 Co 0.0000 0.2500 0.72037(2)
H48_5 H 0.0083 0.8384 0.5297
Co5_2 Co 0.0000 0.7500 0.47037(2)
O5_5 O 0.66189(12) 0.07103(13) 0.57507(4)
O7_5 O 0.84334(12) 0.06541(13) 0.61916(4)
N7_3 N 0.55428(13) 0.18507(13) 0.50738(5)
C28_5 C 0.52099(16) 0.16406(16) 0.53323(6)
H25_5 H 0.4714 0.1755 0.5358
C29_5 C 0.66552(17) 0.12876(17) 0.52529(6)
H26_5 H 0.7146 0.1165 0.5219
C31_5 C 0.62541(16) 0.16765(16) 0.50398(6)
H27_5 H 0.6492 0.1826 0.4863
C32_5 C 0.63006(16) 0.10840(16) 0.55209(6)
C35_5 C 0.73300(16) 0.03902(17) 0.56909(6)
H29_5 H 0.7315 0.0097 0.5507
H30_5 H 0.7699 0.0773 0.5667
C36_5 C 0.55648(16) 0.12657(16) 0.55611(6)
H31_5 H 0.5317 0.1137 0.5739
C40_5 C 0.77029(17) 0.03680(18) 0.62431(6)
H35_5 H 0.7693 0.0065 0.6425
H36_5 H 0.7353 0.0768 0.6268
N11_3 N 0.9470(2) 0.1831(2) 0.68676(6)
C43_5 C 0.8742(2) 0.10349(19) 0.64204(6)
C46_5 C 0.8357(2) 0.1282(2) 0.66765(7)
H41_5 H 0.7859 0.1180 0.6703
C47_5 C 0.9491(2) 0.1186(2) 0.63957(7)
H42_5 H 0.9755 0.1028 0.6227
C51_5 C 0.9832(3) 0.1569(3) 0.66223(8)
C52_5 C 0.8748(3) 0.1685(2) 0.68894(8)
H47_5 H 0.8494 0.1865 0.7058
Co3_3 Co 0.5000 0.2500 0.47343(2)
Co6_3 Co 1.0000 0.2500 0.72037(2)
Co1_4 Co 0.5000 0.7500 0.72343(2)
S1_5 S 0.30490(6) 0.90178(7) 0.75307(3)
O1_5 O 0.33811(12) 0.42897(13) 0.57507(4)
O2_5 O 0.29201(12) 0.61122(13) 0.62528(5)
O3_5 O 0.15666(12) 0.43459(13) 0.61916(4)
O4_5 O 0.21090(12) 0.61153(13) 0.56690(5)
N1_3 N 0.44572(13) 0.31493(13) 0.50738(5)
N2_5 N 0.43090(13) 0.70289(15) 0.68893(5)
N3_5 N 0.42845(14) 0.84255(15) 0.72458(5)
C1_5 C 0.47901(16) 0.33594(16) 0.53323(6)
H1_5 H 0.5286 0.3245 0.5358
C2_5 C 0.33448(17) 0.37124(17) 0.52529(6)
H2_5 H 0.2854 0.3835 0.5219
C3_5 C 0.34046(15) 0.64022(16) 0.64502(6)
C4_5 C 0.37459(16) 0.33235(16) 0.50398(6)
H3_5 H 0.3508 0.3174 0.4863
C5_5 C 0.36994(16) 0.39160(16) 0.55209(6)
C6_5 C 0.31058(16) 0.68084(17) 0.66879(6)
H4_5 H 0.2599 0.6873 0.6703
C7_5 C 0.24896(15) 0.50922(16) 0.59636(5)
C8_5 C 0.26700(16) 0.46098(17) 0.56909(6)
H5_5 H 0.2685 0.4903 0.5507
H6_5 H 0.2301 0.4227 0.5667
C9_5 C 0.44352(16) 0.37343(16) 0.55611(6)
H7_5 H 0.4683 0.3863 0.5739
N4_5 N 0.0695(2) 0.7037(3) 0.50446(6)
C10_5 C 0.45892(16) 0.66395(18) 0.66586(6)
H8_5 H 0.5098 0.6581 0.6649
C11_5 C 0.35684(15) 0.71125(18) 0.68991(6)
H9_5 H 0.3365 0.7389 0.7056
C12_5 C 0.41662(15) 0.63188(17) 0.64338(6)
H10_5 H 0.4383 0.6055 0.6276
C13_5 C 0.22971(17) 0.46320(18) 0.62431(6)
H11_5 H 0.2307 0.4935 0.6425
H12_5 H 0.2647 0.4232 0.6268
C14_5 C 0.31717(16) 0.55584(16) 0.60455(6)
H13_5 H 0.3379 0.5784 0.5865
H14_5 H 0.3546 0.5254 0.6140
N6_3 N 0.0530(2) 0.3169(2) 0.68676(6)
C15_5 C 0.18349(16) 0.55734(17) 0.58779(6)
H15_5 H 0.1631 0.5809 0.6057
H16_5 H 0.1452 0.5279 0.5783
C16_5 C 0.1258(2) 0.39651(19) 0.64204(6)
C17_5 C 0.37733(18) 0.86792(19) 0.73645(7)
C18_5 C 0.16183(19) 0.6420(2) 0.54759(7)
C19_5 C 0.1643(2) 0.3718(2) 0.66765(7)
H17_5 H 0.2141 0.3820 0.6703
C20_5 C 0.0509(2) 0.3814(2) 0.63957(7)
H18_5 H 0.0245 0.3972 0.6227
C21_5 C 0.1909(2) 0.6822(2) 0.52383(8)
H19_5 H 0.2415 0.6891 0.5221
C22_5 C 0.08560(19) 0.6348(2) 0.55029(7)
H20_5 H 0.0646 0.6096 0.5665
C23_5 C 0.1434(2) 0.7119(3) 0.50270(8)
H21_5 H 0.1629 0.7387 0.4866
C24_5 C 0.0168(3) 0.3431(3) 0.66223(8)
C25_5 C 0.1252(3) 0.3315(2) 0.68894(8)
H23_5 H 0.1506 0.3135 0.7058
C26_5 C 0.0426(2) 0.6665(3) 0.52811(7)
S3_5 S 0.69510(6) 0.59822(7) 0.75307(3)
O6_5 O 0.70799(12) 0.88878(13) 0.62528(5)
O8_5 O 0.78910(12) 0.88847(13) 0.56690(5)
N8_5 N 0.56910(13) 0.79711(15) 0.68893(5)
N9_5 N 0.57155(14) 0.65745(15) 0.72458(5)
C30_5 C 0.65954(15) 0.85978(16) 0.64502(6)
C33_5 C 0.68942(16) 0.81916(17) 0.66879(6)
H28_5 H 0.7401 0.8127 0.6703
C34_5 C 0.75104(15) 0.99078(16) 0.59636(5)
N10_3 N 0.9305(2) 0.7963(3) 0.50446(6)
C37_5 C 0.54108(16) 0.83605(18) 0.66586(6)
H32_5 H 0.4902 0.8419 0.6649
C38_5 C 0.64316(15) 0.78875(18) 0.68991(6)
H33_5 H 0.6635 0.7611 0.7056
C39_5 C 0.58338(15) 0.86812(17) 0.64338(6)
H34_5 H 0.5617 0.8945 0.6276
C41_5 C 0.68283(16) 0.94416(16) 0.60455(6)
H37_5 H 0.6621 0.9216 0.5865
H38_5 H 0.6454 0.9746 0.6140
C42_5 C 0.81651(16) 0.94266(17) 0.58779(6)
H39_5 H 0.8369 0.9191 0.6057
H40_5 H 0.8548 0.9721 0.5783
C44_5 C 0.62267(18) 0.63208(19) 0.73645(7)
C45_5 C 0.83817(19) 0.8580(2) 0.54759(7)
C48_5 C 0.8091(2) 0.8178(2) 0.52383(8)
H43_5 H 0.7585 0.8109 0.5221
C49_5 C 0.91440(19) 0.8652(2) 0.55029(7)
H44_5 H 0.9354 0.8904 0.5665
C50_5 C 0.8566(2) 0.7881(3) 0.50270(8)
H45_5 H 0.8371 0.7613 0.4866
C53_5 C 0.9574(2) 0.8335(3) 0.52811(7)
S4_5 S 0.14832(9) 0.95765(9) 0.50102(4)
N12_5 N 0.0683(2) 0.8452(3) 0.47077(7)
C54_5 C 0.1004(3) 0.8919(3) 0.48254(10)
Co5_3 Co 1.0000 0.7500 0.47037(2)
N13_3 N 0.56493(13) 0.80428(13) 0.75738(5)
N14_3 N 0.43507(13) 0.69572(13) 0.75738(5)
N17_3 N 0.0669(2) 0.6970(2) 0.43676(6)
S2_5 S 0.85168(9) 0.54235(9) 0.50102(4)
N5_5 N 0.9317(2) 0.6548(3) 0.47077(7)
H22_5 H 0.9663 0.3347 0.6607
H24_5 H 0.9917 0.6616 0.5297
C27_5 C 0.8996(3) 0.6081(3) 0.48254(10)
N16_3 N 0.9331(2) 0.8030(2) 0.43676(6)
Co1_5 Co -0.0000 0.2500 0.22343(2)
S1_6 S 0.19510(6) 0.09822(7) 0.25307(3)
S2_6 S 0.64832(9) 0.45765(9) 0.00102(4)
O1_6 O 0.16189(12) 0.57103(13) 0.07507(4)
O2_6 O 0.20799(12) 0.38878(13) 0.12528(5)
O3_6 O 0.34334(12) 0.56541(13) 0.11916(4)
O4_6 O 0.28910(12) 0.38847(13) 0.06690(5)
N1_4 N 0.05428(13) 0.68507(13) 0.00738(5)
N2_6 N 0.06910(13) 0.29711(15) 0.18893(5)
N3_6 N 0.07155(14) 0.15745(15) 0.22458(5)
C1_6 C 0.02099(16) 0.66406(16) 0.03323(6)
C2_6 C 0.16552(17) 0.62876(17) 0.02529(6)
H2_6 H 0.2146 0.6165 0.0219
C3_6 C 0.15954(15) 0.35978(16) 0.14502(6)
C4_6 C 0.12541(16) 0.66765(16) 0.00398(6)
C5_6 C 0.13006(16) 0.60840(16) 0.05209(6)
C6_6 C 0.18942(16) 0.31916(17) 0.16879(6)
H4_6 H 0.2401 0.3127 0.1703
C7_6 C 0.25104(15) 0.49078(16) 0.09636(5)
C8_6 C 0.23300(16) 0.53902(17) 0.06909(6)
H5_6 H 0.2315 0.5097 0.0507
H6_6 H 0.2699 0.5773 0.0667
C9_6 C 0.05648(16) 0.62657(16) 0.05611(6)
H7_6 H 0.0317 0.6137 0.0739
N4_6 N 0.4305(2) 0.2963(3) 0.00446(6)
C10_6 C 0.04108(16) 0.33605(18) 0.16586(6)
C11_6 C 0.14316(15) 0.28875(18) 0.18991(6)
H9_6 H 0.1635 0.2611 0.2056
C12_6 C 0.08338(15) 0.36812(17) 0.14338(6)
H10_6 H 0.0617 0.3945 0.1276
C13_6 C 0.27029(17) 0.53680(18) 0.12431(6)
H11_6 H 0.2693 0.5065 0.1425
H12_6 H 0.2353 0.5768 0.1268
C14_6 C 0.18283(16) 0.44416(16) 0.10455(6)
H13_6 H 0.1621 0.4216 0.0865
H14_6 H 0.1454 0.4746 0.1140
N6_4 N 0.4470(2) 0.6831(2) 0.18676(6)
C15_6 C 0.31651(16) 0.44266(17) 0.08779(6)
H15_6 H 0.3369 0.4191 0.1057
H16_6 H 0.3548 0.4721 0.0783
C16_6 C 0.3742(2) 0.60349(19) 0.14204(6)
C17_6 C 0.12267(18) 0.13208(19) 0.23645(7)
C18_6 C 0.33817(19) 0.3580(2) 0.04759(7)
C19_6 C 0.3357(2) 0.6282(2) 0.16765(7)
H17_6 H 0.2859 0.6180 0.1703
C20_6 C 0.4491(2) 0.6186(2) 0.13957(7)
H18_6 H 0.4755 0.6028 0.1227
C21_6 C 0.3091(2) 0.3178(2) 0.02383(8)
H19_6 H 0.2585 0.3109 0.0221
C22_6 C 0.41440(19) 0.3652(2) 0.05029(7)
H20_6 H 0.4354 0.3904 0.0665
C23_6 C 0.3566(2) 0.2881(3) 0.00270(8)
C24_6 C 0.4832(3) 0.6569(3) 0.16223(8)
H22_6 H 0.5337 0.6653 0.1607
C25_6 C 0.3748(3) 0.6685(2) 0.18894(8)
H23_6 H 0.3494 0.6865 0.2058
C26_6 C 0.4574(2) 0.3335(3) 0.02811(7)
H24_6 H 0.5083 0.3384 0.0297
H32_6 H 0.0098 0.1581 0.1649
S4_6 S 0.35168(9) 0.04235(9) 0.00102(4)
Co7_3 Co 0.5000 0.7500 0.22037(2)
N14_4 N 0.06493(13) 0.30428(13) 0.25738(5)
N15_3 N 0.5695(2) 0.2037(3) 0.00446(6)
Co2_3 Co 0.5000 0.2500 0.97037(2)
H3_6 H 0.1492 0.6826 0.9863
N5_6 N 0.5683(2) 0.3452(3) 0.97077(7)
H21_6 H 0.3371 0.2613 0.9866
C27_6 C 0.6004(3) 0.3919(3) 0.98254(10)
N12_6 N 0.4317(2) 0.1548(3) 0.97077(7)
C54_6 C 0.3996(3) 0.1081(3) 0.98254(10)
Co4_2 Co 0.0000 0.7500 0.97343(2)
N16_4 N 0.5669(2) 0.1970(2) 0.93676(6)
N17_4 N 0.4331(2) 0.3030(2) 0.93676(6)
Co1_6 Co 1.0000 0.2500 0.22343(2)
H1_6 H 0.9714 0.6755 0.0358
H8_6 H 0.9902 0.3419 0.1649
S3_6 S 0.80490(6) 0.40178(7) 0.25307(3)
O6_6 O 0.79201(12) 0.11122(13) 0.12528(5)
O8_6 O 0.71090(12) 0.11153(13) 0.06690(5)
N8_6 N 0.93090(13) 0.20289(15) 0.18893(5)
N9_6 N 0.92845(14) 0.34255(15) 0.22458(5)
C30_6 C 0.84046(15) 0.14022(16) 0.14502(6)
C33_6 C 0.81058(16) 0.18084(17) 0.16879(6)
H28_6 H 0.7599 0.1873 0.1703
C34_6 C 0.74896(15) 0.00922(16) 0.09636(5)
C37_6 C 0.95892(16) 0.16395(18) 0.16586(6)
C38_6 C 0.85684(15) 0.21125(18) 0.18991(6)
H33_6 H 0.8365 0.2389 0.2056
C39_6 C 0.91662(15) 0.13188(17) 0.14338(6)
H34_6 H 0.9383 0.1055 0.1276
C41_6 C 0.81717(16) 0.05584(16) 0.10455(6)
H37_6 H 0.8379 0.0784 0.0865
H38_6 H 0.8546 0.0254 0.1140
C42_6 C 0.68349(16) 0.05734(17) 0.08779(6)
H39_6 H 0.6631 0.0809 0.1057
H40_6 H 0.6452 0.0279 0.0783
C44_6 C 0.87733(18) 0.36792(19) 0.23645(7)
C45_6 C 0.66183(19) 0.1420(2) 0.04759(7)
C48_6 C 0.6909(2) 0.1822(2) 0.02383(8)
H43_6 H 0.7415 0.1891 0.0221
C49_6 C 0.58560(19) 0.1348(2) 0.05029(7)
H44_6 H 0.5646 0.1096 0.0665
C50_6 C 0.6434(2) 0.2119(3) 0.00270(8)
C53_6 C 0.5426(2) 0.1665(3) 0.02811(7)
H48_6 H 0.4917 0.1616 0.0297
N13_4 N 0.93507(13) 0.19572(13) 0.25738(5)
H45_6 H 0.6629 0.2387 0.9866
Co4_3 Co 1.0000 0.7500 0.97343(2)
O5_6 O 0.83811(12) 0.92897(13) 0.07507(4)
O7_6 O 0.65666(12) 0.93459(13) 0.11916(4)
N7_4 N 0.94572(13) 0.81493(13) 0.00738(5)
C28_6 C 0.97901(16) 0.83594(16) 0.03323(6)
C29_6 C 0.83448(17) 0.87124(17) 0.02529(6)
H26_6 H 0.7854 0.8835 0.0219
C31_6 C 0.87459(16) 0.83235(16) 0.00398(6)
C32_6 C 0.86994(16) 0.89160(16) 0.05209(6)
C35_6 C 0.76700(16) 0.96098(17) 0.06909(6)
H29_6 H 0.7685 0.9903 0.0507
H30_6 H 0.7301 0.9227 0.0667
C36_6 C 0.94352(16) 0.87343(16) 0.05611(6)
H31_6 H 0.9683 0.8863 0.0739
C40_6 C 0.72971(17) 0.96320(18) 0.12431(6)
H35_6 H 0.7307 0.9935 0.1425
H36_6 H 0.7647 0.9232 0.1268
N11_4 N 0.5530(2) 0.8169(2) 0.18676(6)
C43_6 C 0.6258(2) 0.89651(19) 0.14204(6)
C46_6 C 0.6643(2) 0.8718(2) 0.16765(7)
H41_6 H 0.7141 0.8820 0.1703
C47_6 C 0.5509(2) 0.8814(2) 0.13957(7)
H42_6 H 0.5245 0.8972 0.1227
C51_6 C 0.5168(3) 0.8431(3) 0.16223(8)
H46_6 H 0.4663 0.8347 0.1607
C52_6 C 0.6252(3) 0.8315(2) 0.18894(8)
H47_6 H 0.6506 0.8135 0.2058
H27_6 H 0.8508 0.8174 0.9863
S1_7 S 0.34822(7) 0.05490(6) 0.50307(3)
O1_7 O 0.82103(13) 0.08811(12) 0.32507(4)
O2_7 O 0.63878(13) 0.04201(12) 0.37528(5)
N2_7 N 0.54711(15) 0.18090(13) 0.43893(5)
N3_7 N 0.40745(15) 0.17845(14) 0.47458(5)
C1_7 C 0.91406(16) 0.22901(16) 0.28323(6)
H1_7 H 0.9255 0.2786 0.2858
C2_7 C 0.87876(17) 0.08448(17) 0.27529(6)
H2_7 H 0.8665 0.0354 0.2719
C3_7 C 0.60978(16) 0.09046(15) 0.39502(6)
C4_7 C 0.91765(16) 0.12459(16) 0.25398(6)
H3_7 H 0.9326 0.1008 0.2363
C5_7 C 0.85840(16) 0.11994(16) 0.30209(6)
C6_7 C 0.56916(17) 0.06058(16) 0.41879(6)
H4_7 H 0.5627 0.0099 0.4203
C8_7 C 0.78902(17) 0.01700(16) 0.31909(6)
H5_7 H 0.7597 0.0185 0.3007
C9_7 C 0.87657(16) 0.19352(16) 0.30611(6)
H7_7 H 0.8637 0.2183 0.3239
C10_7 C 0.58605(18) 0.20892(16) 0.41586(6)
H8_7 H 0.5919 0.2598 0.4149
C11_7 C 0.53875(18) 0.10684(15) 0.43991(6)
H9_7 H 0.5111 0.0865 0.4556
C12_7 C 0.61812(17) 0.16662(15) 0.39338(6)
H10_7 H 0.6445 0.1883 0.3776
H12_7 H 0.8268 0.0147 0.3768
C14_7 C 0.69416(16) 0.06717(16) 0.35455(6)
H13_7 H 0.6716 0.0879 0.3365
H14_7 H 0.7246 0.1046 0.3640
C17_7 C 0.38208(19) 0.12733(18) 0.48645(7)
S3_7 S 0.65178(7) 0.44510(6) 0.50307(3)
O5_7 O 0.17897(13) 0.41189(12) 0.32507(4)
O6_7 O 0.36122(13) 0.45799(12) 0.37528(5)
O7_7 O 0.18459(13) 0.59334(12) 0.36916(4)
O8_7 O 0.36153(13) 0.53910(12) 0.31690(5)
N8_7 N 0.45289(15) 0.31910(13) 0.43893(5)
N9_7 N 0.59255(15) 0.32155(14) 0.47458(5)
C28_7 C 0.08594(16) 0.27099(16) 0.28323(6)
H25_6 H 0.0745 0.2214 0.2858
C29_7 C 0.12124(17) 0.41552(17) 0.27529(6)
H26_7 H 0.1335 0.4646 0.2719
C30_7 C 0.39022(16) 0.40954(15) 0.39502(6)
C31_7 C 0.08235(16) 0.37541(16) 0.25398(6)
H27_7 H 0.0674 0.3992 0.2363
C32_7 C 0.14160(16) 0.38006(16) 0.30209(6)
C33_7 C 0.43084(17) 0.43942(16) 0.41879(6)
H28_7 H 0.4373 0.4901 0.4203
C34_7 C 0.25922(16) 0.50104(15) 0.34636(5)
C35_7 C 0.21098(17) 0.48300(16) 0.31909(6)
H29_7 H 0.2403 0.4815 0.3007
H30_7 H 0.1727 0.5199 0.3167
C36_7 C 0.12343(16) 0.30648(16) 0.30611(6)
H31_7 H 0.1363 0.2817 0.3239
N10_4 N 0.4537(3) 0.6805(2) 0.25446(6)
C37_7 C 0.41395(18) 0.29108(16) 0.41586(6)
H32_7 H 0.4081 0.2402 0.4149
C38_7 C 0.46125(18) 0.39316(15) 0.43991(6)
H33_7 H 0.4889 0.4135 0.4556
C39_7 C 0.38188(17) 0.33338(15) 0.39338(6)
H34_7 H 0.3555 0.3117 0.3776
C40_7 C 0.21320(18) 0.52029(17) 0.37431(6)
H35_7 H 0.2435 0.5193 0.3925
H36_7 H 0.1732 0.4853 0.3768
C41_7 C 0.30584(16) 0.43283(16) 0.35455(6)
H37_7 H 0.3284 0.4121 0.3365
H38_7 H 0.2754 0.3954 0.3640
C42_7 C 0.30734(17) 0.56651(16) 0.33779(6)
H39_7 H 0.3309 0.5869 0.3557
H40_7 H 0.2779 0.6048 0.3283
C43_7 C 0.14651(19) 0.6242(2) 0.39204(6)
C44_7 C 0.61792(19) 0.37267(18) 0.48645(7)
C45_7 C 0.3920(2) 0.58817(19) 0.29759(7)
C46_7 C 0.1218(2) 0.5857(2) 0.41765(7)
H41_7 H 0.1320 0.5359 0.4203
C47_7 C 0.1314(2) 0.6991(2) 0.38957(7)
H42_7 H 0.1472 0.7255 0.3727
C48_7 C 0.4322(2) 0.5591(2) 0.27383(8)
H43_7 H 0.4391 0.5085 0.2721
C49_7 C 0.3848(2) 0.66440(19) 0.30029(7)
H44_7 H 0.3596 0.6854 0.3165
C50_7 C 0.4619(3) 0.6066(2) 0.25270(8)
H45_7 H 0.4887 0.5871 0.2366
C51_7 C 0.0931(3) 0.7332(3) 0.41223(8)
H46_7 H 0.0847 0.7837 0.4107
C52_7 C 0.0815(2) 0.6248(3) 0.43894(8)
H47_7 H 0.0635 0.5994 0.4558
C53_7 C 0.4165(3) 0.7074(2) 0.27811(7)
H48_7 H 0.4116 0.7583 0.2797
S2_7 S 0.70765(9) 0.60168(9) 0.25102(4)
O3_7 O 0.81541(13) 0.90666(12) 0.36916(4)
O4_7 O 0.63847(13) 0.96090(12) 0.31690(5)
C7_7 C 0.74078(16) 0.99896(15) 0.34636(5)
H6_7 H 0.8273 0.9801 0.3167
N4_7 N 0.5463(3) 0.8195(2) 0.25446(6)
C13_7 C 0.78680(18) 0.97971(17) 0.37431(6)
H11_7 H 0.7565 0.9807 0.3925
N5_7 N 0.5952(3) 0.6817(2) 0.22077(7)
C15_7 C 0.69266(17) 0.93349(16) 0.33779(6)
H15_7 H 0.6691 0.9131 0.3557
H16_7 H 0.7221 0.8952 0.3283
C16_7 C 0.85349(19) 0.8758(2) 0.39204(6)
C18_7 C 0.6080(2) 0.91183(19) 0.29759(7)
C19_7 C 0.8782(2) 0.9143(2) 0.41765(7)
H17_7 H 0.8680 0.9641 0.4203
C20_7 C 0.8686(2) 0.8009(2) 0.38957(7)
H18_7 H 0.8528 0.7745 0.3727
C21_7 C 0.5678(2) 0.9409(2) 0.27383(8)
H19_7 H 0.5609 0.9915 0.2721
C22_7 C 0.6152(2) 0.83560(19) 0.30029(7)
H20_7 H 0.6404 0.8146 0.3165
C23_7 C 0.5381(3) 0.8934(2) 0.25270(8)
H21_7 H 0.5113 0.9129 0.2366
C24_7 C 0.9069(3) 0.7668(3) 0.41223(8)
H22_7 H 0.9153 0.7163 0.4107
C25_7 C 0.9185(2) 0.8752(3) 0.43894(8)
H23_7 H 0.9365 0.9006 0.4558
C26_7 C 0.5835(3) 0.7926(2) 0.27811(7)
H24_7 H 0.5884 0.7417 0.2797
C27_7 C 0.6419(3) 0.6496(3) 0.23254(10)
S4_7 S 0.29235(9) 0.89832(9) 0.25102(4)
N12_7 N 0.4048(3) 0.8183(2) 0.22077(7)
C54_7 C 0.3581(3) 0.8504(3) 0.23254(10)
S4_8 S 0.20765(9) 0.10168(9) 0.75102(4)
N12_8 N 0.0952(3) 0.1817(2) 0.72077(7)
C54_8 C 0.1419(3) 0.1496(3) 0.73254(10)
N15_4 N 0.0463(3) 0.3195(2) 0.75446(6)
S1_8 S 0.15178(7) 0.94510(6) 0.00307(3)
N3_8 N 0.09255(15) 0.82155(14) 0.97458(5)
C17_8 C 0.11792(19) 0.87267(18) 0.98645(7)
O5_8 O 0.32103(13) 0.58811(12) 0.82507(4)
O6_8 O 0.13878(13) 0.54201(12) 0.87528(5)
O7_8 O 0.31541(13) 0.40666(12) 0.86916(4)
O8_8 O 0.13847(13) 0.46090(12) 0.81690(5)
N8_8 N 0.04711(15) 0.68090(13) 0.93893(5)
C28_8 C 0.41406(16) 0.72901(16) 0.78323(6)
H25_7 H 0.4255 0.7786 0.7858
C29_8 C 0.37876(17) 0.58448(17) 0.77529(6)
H26_8 H 0.3665 0.5354 0.7719
C30_8 C 0.10978(16) 0.59046(15) 0.89502(6)
C31_8 C 0.41765(16) 0.62459(16) 0.75398(6)
H27_8 H 0.4326 0.6008 0.7363
C32_8 C 0.35840(16) 0.61994(16) 0.80209(6)
C33_8 C 0.06916(17) 0.56058(16) 0.91879(6)
H28_8 H 0.0627 0.5099 0.9203
C34_8 C 0.24078(16) 0.49896(15) 0.84636(5)
C35_8 C 0.28902(17) 0.51700(16) 0.81909(6)
H29_8 H 0.2597 0.5185 0.8007
H30_8 H 0.3273 0.4801 0.8167
C36_8 C 0.37657(16) 0.69352(16) 0.80611(6)
H31_8 H 0.3637 0.7183 0.8239
C37_8 C 0.08605(18) 0.70892(16) 0.91586(6)
H32_8 H 0.0919 0.7598 0.9149
C38_8 C 0.03875(18) 0.60684(15) 0.93991(6)
H33_8 H 0.0111 0.5865 0.9556
C39_8 C 0.11812(17) 0.66662(15) 0.89338(6)
H34_8 H 0.1445 0.6883 0.8776
C40_8 C 0.28680(18) 0.47971(17) 0.87431(6)
H35_8 H 0.2565 0.4807 0.8925
H36_8 H 0.3268 0.5147 0.8768
C41_8 C 0.19416(16) 0.56717(16) 0.85455(6)
H37_8 H 0.1716 0.5879 0.8365
H38_8 H 0.2246 0.6046 0.8640
C42_8 C 0.19266(17) 0.43349(16) 0.83779(6)
H39_8 H 0.1691 0.4131 0.8557
H40_8 H 0.2221 0.3952 0.8283
C43_8 C 0.35349(19) 0.3758(2) 0.89204(6)
C45_8 C 0.1080(2) 0.41183(19) 0.79759(7)
C46_8 C 0.3782(2) 0.4143(2) 0.91765(7)
H41_8 H 0.3680 0.4641 0.9203
C47_8 C 0.3686(2) 0.3009(2) 0.88957(7)
H42_8 H 0.3528 0.2745 0.8727
C48_8 C 0.0678(2) 0.4409(2) 0.77383(8)
H43_8 H 0.0609 0.4915 0.7721
C49_8 C 0.1152(2) 0.33560(19) 0.80029(7)
H44_8 H 0.1404 0.3146 0.8165
C50_8 C 0.0381(3) 0.3934(2) 0.75270(8)
H45_8 H 0.0113 0.4129 0.7366
C51_8 C 0.4069(3) 0.2668(3) 0.91223(8)
H46_8 H 0.4153 0.2163 0.9107
C52_8 C 0.4185(2) 0.3752(3) 0.93894(8)
H47_8 H 0.4365 0.4006 0.9558
C53_8 C 0.0835(3) 0.2926(2) 0.77811(7)
H48_8 H 0.0884 0.2417 0.7797
S2_8 S 0.79235(9) 0.39832(9) 0.75102(4)
O3_8 O 0.68459(13) 0.09334(12) 0.86916(4)
O4_8 O 0.86153(13) 0.03910(12) 0.81690(5)
C7_8 C 0.75922(16) 0.00104(15) 0.84636(5)
H6_8 H 0.6727 0.0199 0.8167
N4_8 N 0.9537(3) 0.1805(2) 0.75446(6)
C13_8 C 0.71320(18) 0.02029(17) 0.87431(6)
H11_8 H 0.7435 0.0193 0.8925
N5_8 N 0.9048(3) 0.3183(2) 0.72077(7)
C15_8 C 0.80734(17) 0.06651(16) 0.83779(6)
H15_8 H 0.8309 0.0869 0.8557
H16_8 H 0.7779 0.1048 0.8283
C16_8 C 0.64651(19) 0.1242(2) 0.89204(6)
C18_8 C 0.8920(2) 0.08817(19) 0.79759(7)
C19_8 C 0.6218(2) 0.0857(2) 0.91765(7)
H17_8 H 0.6320 0.0359 0.9203
C20_8 C 0.6314(2) 0.1991(2) 0.88957(7)
H18_8 H 0.6472 0.2255 0.8727
C21_8 C 0.9322(2) 0.0591(2) 0.77383(8)
H19_8 H 0.9391 0.0085 0.7721
C22_8 C 0.8848(2) 0.16440(19) 0.80029(7)
H20_8 H 0.8596 0.1854 0.8165
C23_8 C 0.9619(3) 0.1066(2) 0.75270(8)
H21_8 H 0.9887 0.0871 0.7366
C24_8 C 0.5931(3) 0.2332(3) 0.91223(8)
H22_8 H 0.5847 0.2837 0.9107
C25_8 C 0.5815(2) 0.1248(3) 0.93894(8)
H23_8 H 0.5635 0.0994 0.9558
C26_8 C 0.9165(3) 0.2074(2) 0.77811(7)
H24_8 H 0.9116 0.2583 0.7797
C27_8 C 0.8581(3) 0.3504(3) 0.73254(10)
S3_8 S 0.84822(7) 0.55490(6) 0.00307(3)
O1_8 O 0.67897(13) 0.91189(12) 0.82507(4)
O2_8 O 0.86122(13) 0.95799(12) 0.87528(5)
N2_8 N 0.95289(15) 0.81910(13) 0.93893(5)
C1_8 C 0.58594(16) 0.77099(16) 0.78323(6)
H1_8 H 0.5745 0.7214 0.7858
C2_8 C 0.62124(17) 0.91552(17) 0.77529(6)
H2_8 H 0.6335 0.9646 0.7719
C3_8 C 0.89022(16) 0.90954(15) 0.89502(6)
C4_8 C 0.58235(16) 0.87541(16) 0.75398(6)
H3_8 H 0.5674 0.8992 0.7363
C5_8 C 0.64160(16) 0.88006(16) 0.80209(6)
C6_8 C 0.93084(17) 0.93942(16) 0.91879(6)
H4_8 H 0.9373 0.9901 0.9203
C8_8 C 0.71098(17) 0.98300(16) 0.81909(6)
H5_8 H 0.7403 0.9815 0.8007
C9_8 C 0.62343(16) 0.80648(16) 0.80611(6)
H7_8 H 0.6363 0.7817 0.8239
C10_8 C 0.91395(18) 0.79108(16) 0.91586(6)
H8_8 H 0.9081 0.7402 0.9149
C11_8 C 0.96125(18) 0.89316(15) 0.93991(6)
H9_8 H 0.9889 0.9135 0.9556
C12_8 C 0.88188(17) 0.83338(15) 0.89338(6)
H10_8 H 0.8555 0.8117 0.8776
H12_8 H 0.6732 0.9853 0.8768
C14_8 C 0.80584(16) 0.93283(16) 0.85455(6)
H13_8 H 0.8284 0.9121 0.8365
H14_8 H 0.7754 0.8954 0.8640
N9_8 N 0.90745(15) 0.67845(14) 0.97458(5)
C44_8 C 0.88208(19) 0.62733(18) 0.98645(7)
H25_8 H 0.0286 0.8245 0.0358
loop_
_geom_bond_atom_site_label_1
_geom_bond_atom_site_label_2
_geom_bond_site_symmetry_1
_geom_bond_site_symmetry_2
S2 C27 1_555 1_555
N5 Co2 1_555 1_555
C27 N5 1_555 1_555
N15 Co2 1_555 1_555
N16 Co2 1_555 1_555
Co1 N2 1_555 1_555
Co2_2 N4 1_555 1_555
S1 C17 1_555 1_555
O1 C5 1_555 1_555
O2 C3 1_555 1_555
O3 C13 1_555 1_555
O4 C15 1_555 1_555
N1 C1 1_555 1_555
N2 C10 1_555 1_555
N3 Co1 1_555 1_555
C1 H1 1_555 1_555
C2 H2 1_555 1_555
C3 C6 1_555 1_555
C4 N1 1_555 1_555
H3 C4 1_555 1_555
C5 C2 1_555 1_555
C6 H4 1_555 1_555
C7 C8 1_555 1_555
C8 O1 1_555 1_555
H5 C8 1_555 1_555
H6 C8 1_555 1_555
C9 C1 1_555 1_555
H7 C9 1_555 1_555
N4 C23 1_555 1_555
C10 H8 1_555 1_555
C11 N2 1_555 1_555
H9 C11 1_555 1_555
C12 C3 1_555 1_555
H10 C12 1_555 1_555
C13 C7 1_555 1_555
H11 C13 1_555 1_555
H12 C13 1_555 1_555
C14 O2 1_555 1_555
H13 C14 1_555 1_555
H14 C14 1_555 1_555
N6 C24 1_555 1_555
C15 C7 1_555 1_555
H15 C15 1_555 1_555
H16 C15 1_555 1_555
C16 O3 1_555 1_555
C17 N3 1_555 1_555
C18 O4 1_555 1_555
C19 C16 1_555 1_555
H17 C19 1_555 1_555
C20 C16 1_555 1_555
H18 C20 1_555 1_555
C21 C18 1_555 1_555
H19 C21 1_555 1_555
C22 C18 1_555 1_555
H20 C22 1_555 1_555
C23 C21 1_555 1_555
H21 C23 1_555 1_555
C24 C20 1_555 1_555
C25 N6 1_555 1_555
H23 C25 1_555 1_555
C26 N4 1_555 1_555
S3 C44 1_555 1_555
O6 C30 1_555 1_555
O8 C42 1_555 1_555
N8 Co1 1_555 1_555
N9 Co1 1_555 1_555
C30 C33 1_555 1_555
C33 H28 1_555 1_555
N15 C50 1_555 1_555
C37 N8 1_555 1_555
H32 C37 1_555 1_555
C38 N8 1_555 1_555
H33 C38 1_555 1_555
C39 C30 1_555 1_555
H34 C39 1_555 1_555
C41 O6 1_555 1_555
H37 C41 1_555 1_555
H38 C41 1_555 1_555
C42 C34 1_555 1_555
H39 C42 1_555 1_555
H40 C42 1_555 1_555
C44 N9 1_555 1_555
C45 O8 1_555 1_555
C48 C45 1_555 1_555
H43 C48 1_555 1_555
C49 C45 1_555 1_555
H44 C49 1_555 1_555
C50 C48 1_555 1_555
H45 C50 1_555 1_555
C53 N15 1_555 1_555
S4 C54 1_555 1_555
N12 Co2_2 1_555 1_555
C54 N12 1_555 1_555
Co4 N1 1_555 1_555
Co7_2 N6 1_555 1_555
N13 Co1 1_555 1_555
N14 Co1 1_555 1_555
N17 Co2_2 1_555 1_555
C2 C4 1_555 1_555
C5 C9 1_555 1_555
C6 C11 1_555 1_555
C7 C14 1_555 1_555
C10 C12 1_555 1_555
C19 C25 1_555 1_555
C22 C26 1_555 1_555
C33 C38 1_555 1_555
C34 C41 1_555 1_555
C37 C39 1_555 1_555
C49 C53 1_555 1_555
O5 C32 1_555 1_555
O7 C40 1_555 1_555
N7 C28 1_555 1_555
C28 H25 1_555 1_555
C29 H26 1_555 1_555
C31 N7 1_555 1_555
H27 C31 1_555 1_555
C32 C29 1_555 1_555
C35 O5 1_555 1_555
H29 C35 1_555 1_555
H30 C35 1_555 1_555
C36 C28 1_555 1_555
H31 C36 1_555 1_555
H35 C40 1_555 1_555
H36 C40 1_555 1_555
N11 C51 1_555 1_555
C43 O7 1_555 1_555
C46 C43 1_555 1_555
H41 C46 1_555 1_555
C47 C43 1_555 1_555
H42 C47 1_555 1_555
C51 C47 1_555 1_555
C52 N11 1_555 1_555
H47 C52 1_555 1_555
Co4 N7 1_555 1_555
Co7 N11 1_555 1_555
C29 C31 1_555 1_555
C32 C36 1_555 1_555
C46 C52 1_555 1_555
O5_2 C32_2 1_555 1_555
O7_2 C40_2 1_555 1_555
N7_2 C28_2 1_555 1_555
C29_2 H26_2 1_555 1_555
C31_2 N7_2 1_555 1_555
C32_2 C29_2 1_555 1_555
C35_2 O5_2 1_555 1_555
H29_2 C35_2 1_555 1_555
H30_2 C35_2 1_555 1_555
C36_2 C28_2 1_555 1_555
H31_2 C36_2 1_555 1_555
H35_2 C40_2 1_555 1_555
H36_2 C40_2 1_555 1_555
N11_2 C51_2 1_555 1_555
C43_2 O7_2 1_555 1_555
C46_2 C43_2 1_555 1_555
H41_2 C46_2 1_555 1_555
C47_2 C43_2 1_555 1_555
H42_2 C47_2 1_555 1_555
C51_2 C47_2 1_555 1_555
H46_2 C51_2 1_555 1_555
C52_2 N11_2 1_555 1_555
H47_2 C52_2 1_555 1_555
Co6 N11_2 1_555 1_555
C29_2 C31_2 1_555 1_555
C32_2 C36_2 1_555 1_555
C46_2 C52_2 1_555 1_555
S3_2 C44_2 1_555 1_555
O6_2 C30_2 1_555 1_555
O8_2 C42_2 1_555 1_555
N8_2 Co1_2 1_555 1_555
N9_2 Co1_2 1_555 1_555
C30_2 C33_2 1_555 1_555
C33_2 H28_2 1_555 1_555
N10 C50_2 1_555 1_555
C37_2 N8_2 1_555 1_555
C38_2 N8_2 1_555 1_555
H33_2 C38_2 1_555 1_555
C39_2 C30_2 1_555 1_555
H34_2 C39_2 1_555 1_555
C41_2 O6_2 1_555 1_555
H37_2 C41_2 1_555 1_555
H38_2 C41_2 1_555 1_555
C42_2 C34_2 1_555 1_555
H39_2 C42_2 1_555 1_555
H40_2 C42_2 1_555 1_555
C44_2 N9_2 1_555 1_555
C45_2 O8_2 1_555 1_555
C48_2 C45_2 1_555 1_555
H43_2 C48_2 1_555 1_555
C49_2 C45_2 1_555 1_555
H44_2 C49_2 1_555 1_555
C50_2 C48_2 1_555 1_555
C53_2 N10 1_555 1_555
H48_2 C53_2 1_555 1_555
N13_2 Co1_2 1_555 1_555
C33_2 C38_2 1_555 1_555
C34_2 C41_2 1_555 1_555
C37_2 C39_2 1_555 1_555
C49_2 C53_2 1_555 1_555
N5_2 Co5 1_555 1_555
C27_2 N5_2 1_555 1_555
N12_2 Co5 1_555 1_555
C54_2 N12_2 1_555 1_555
N16_2 Co5 1_555 1_555
N17_2 Co5 1_555 1_555
Co1_3 N2_2 1_555 1_555
S1_2 C17_2 1_555 1_555
O1_2 C5_2 1_555 1_555
O2_2 C3_2 1_555 1_555
O3_2 C13_2 1_555 1_555
O4_2 C15_2 1_555 1_555
N1_2 C1_2 1_555 1_555
N2_2 C10_2 1_555 1_555
N3_2 Co1_3 1_555 1_555
C2_2 H2_2 1_555 1_555
C3_2 C6_2 1_555 1_555
C4_2 N1_2 1_555 1_555
C5_2 C2_2 1_555 1_555
C6_2 H4_2 1_555 1_555
C7_2 C8_2 1_555 1_555
C8_2 O1_2 1_555 1_555
H5_2 C8_2 1_555 1_555
H6_2 C8_2 1_555 1_555
C9_2 C1_2 1_555 1_555
H7_2 C9_2 1_555 1_555
N4_2 C23_2 1_555 1_555
C11_2 N2_2 1_555 1_555
H9_2 C11_2 1_555 1_555
C12_2 C3_2 1_555 1_555
H10_2 C12_2 1_555 1_555
C13_2 C7_2 1_555 1_555
H11_2 C13_2 1_555 1_555
H12_2 C13_2 1_555 1_555
C14_2 O2_2 1_555 1_555
H13_2 C14_2 1_555 1_555
H14_2 C14_2 1_555 1_555
N6_2 C24_2 1_555 1_555
C15_2 C7_2 1_555 1_555
H15_2 C15_2 1_555 1_555
H16_2 C15_2 1_555 1_555
C16_2 O3_2 1_555 1_555
C17_2 N3_2 1_555 1_555
C18_2 O4_2 1_555 1_555
C19_2 C16_2 1_555 1_555
H17_2 C19_2 1_555 1_555
C20_2 C16_2 1_555 1_555
H18_2 C20_2 1_555 1_555
C21_2 C18_2 1_555 1_555
H19_2 C21_2 1_555 1_555
C22_2 C18_2 1_555 1_555
H20_2 C22_2 1_555 1_555
C23_2 C21_2 1_555 1_555
C24_2 C20_2 1_555 1_555
H22_2 C24_2 1_555 1_555
C25_2 N6_2 1_555 1_555
H23_2 C25_2 1_555 1_555
C26_2 N4_2 1_555 1_555
H24_2 C26_2 1_555 1_555
Co6 N6_2 1_555 1_555
N14_2 Co1_3 1_555 1_555
C2_2 C4_2 1_555 1_555
C5_2 C9_2 1_555 1_555
C6_2 C11_2 1_555 1_555
C7_2 C14_2 1_555 1_555
C10_2 C12_2 1_555 1_555
C19_2 C25_2 1_555 1_555
C22_2 C26_2 1_555 1_555
Co6 N4_3 1_555 1_555
S2_3 C27_3 1_555 1_555
O3_3 C13_3 1_555 1_555
O4_3 C15_3 1_555 1_555
N4_3 C23_3 1_555 1_555
C13_3 C7_3 1_555 1_555
H11_3 C13_3 1_555 1_555
N5_3 Co6 1_555 1_555
N16 C24_3 1_555 1_555
C15_3 C7_3 1_555 1_555
H15_3 C15_3 1_555 1_555
H16_3 C15_3 1_555 1_555
C16_3 O3_3 1_555 1_555
C18_3 O4_3 1_555 1_555
C19_3 C16_3 1_555 1_555
H17_3 C19_3 1_555 1_555
C20_3 C16_3 1_555 1_555
H18_3 C20_3 1_555 1_555
C21_3 C18_3 1_555 1_555
H19_3 C21_3 1_555 1_555
C22_3 C18_3 1_555 1_555
H20_3 C22_3 1_555 1_555
C23_3 C21_3 1_555 1_555
H21_3 C23_3 1_555 1_555
C24_3 C20_3 1_555 1_555
H22_3 C24_3 1_555 1_555
C25_3 N16 1_555 1_555
H23_3 C25_3 1_555 1_555
C26_3 N4_3 1_555 1_555
H24_3 C26_3 1_555 1_555
C27_3 N5_3 1_555 1_555
S4_3 C54_3 1_555 1_555
N12_3 Co6 1_555 1_555
C54_3 N12_3 1_555 1_555
N15_2 Co6 1_555 1_555
C19_3 C25_3 1_555 1_555
C22_3 C26_3 1_555 1_555
Co4 N2_3 1_555 1_555
S1_3 C17_3 1_555 1_555
O1_3 C5_3 1_555 1_555
O2_3 C3_3 1_555 1_555
N13_2 C1_3 1_555 1_555
N2_3 C10_3 1_555 1_555
N3_3 Co4 1_555 1_555
C1_3 H1_3 1_555 1_555
C2_3 H2_3 1_555 1_555
C3_3 C6_3 1_555 1_555
C4_3 N13_2 1_555 1_555
H3_3 C4_3 1_555 1_555
C5_3 C2_3 1_555 1_555
C6_3 H4_3 1_555 1_555
C8_3 O1_3 1_555 1_555
H5_3 C8_3 1_555 1_555
C9_3 C1_3 1_555 1_555
H7_3 C9_3 1_555 1_555
C10_3 H8_3 1_555 1_555
C11_3 N2_3 1_555 1_555
H9_3 C11_3 1_555 1_555
C12_3 C3_3 1_555 1_555
H10_3 C12_3 1_555 1_555
C14_3 O2_3 1_555 1_555
H13_3 C14_3 1_555 1_555
H14_3 C14_3 1_555 1_555
C17_3 N3_3 1_555 1_555
S3_3 C44_3 1_555 1_555
O5_3 C32_3 1_555 1_555
O6_3 C30_3 1_555 1_555
O7_3 C40_3 1_555 1_555
O8_3 C42_3 1_555 1_555
N14_2 C28_3 1_555 1_555
N8_3 Co4 1_555 1_555
N9_3 Co4 1_555 1_555
C28_3 H25_2 1_555 1_555
C29_3 H26_3 1_555 1_555
C30_3 C33_3 1_555 1_555
C31_3 N14_2 1_555 1_555
H27_3 C31_3 1_555 1_555
C32_3 C29_3 1_555 1_555
C33_3 H28_3 1_555 1_555
C34_3 C35_3 1_555 1_555
C35_3 O5_3 1_555 1_555
H29_3 C35_3 1_555 1_555
H30_3 C35_3 1_555 1_555
C36_3 C28_3 1_555 1_555
H31_3 C36_3 1_555 1_555
N15_2 C50_3 1_555 1_555
C37_3 N8_3 1_555 1_555
H32_3 C37_3 1_555 1_555
C38_3 N8_3 1_555 1_555
H33_3 C38_3 1_555 1_555
C39_3 C30_3 1_555 1_555
H34_3 C39_3 1_555 1_555
C40_3 C34_3 1_555 1_555
H35_3 C40_3 1_555 1_555
H36_3 C40_3 1_555 1_555
C41_3 O6_3 1_555 1_555
H37_3 C41_3 1_555 1_555
H38_3 C41_3 1_555 1_555
N17 C51_3 1_555 1_555
C42_3 C34_3 1_555 1_555
H39_3 C42_3 1_555 1_555
H40_3 C42_3 1_555 1_555
C43_3 O7_3 1_555 1_555
C44_3 N9_3 1_555 1_555
C45_3 O8_3 1_555 1_555
C46_3 C43_3 1_555 1_555
H41_3 C46_3 1_555 1_555
C47_3 C43_3 1_555 1_555
H42_3 C47_3 1_555 1_555
C48_3 C45_3 1_555 1_555
H43_3 C48_3 1_555 1_555
C49_3 C45_3 1_555 1_555
H44_3 C49_3 1_555 1_555
C50_3 C48_3 1_555 1_555
H45_3 C50_3 1_555 1_555
C51_3 C47_3 1_555 1_555
H46_3 C51_3 1_555 1_555
C52_3 N17 1_555 1_555
H47_3 C52_3 1_555 1_555
C53_3 N15_2 1_555 1_555
H48_3 C53_3 1_555 1_555
C2_3 C4_3 1_555 1_555
C5_3 C9_3 1_555 1_555
C6_3 C11_3 1_555 1_555
C10_3 C12_3 1_555 1_555
C29_3 C31_3 1_555 1_555
C32_3 C36_3 1_555 1_555
C33_3 C38_3 1_555 1_555
C34_3 C41_3 1_555 1_555
C37_3 C39_3 1_555 1_555
C46_3 C52_3 1_555 1_555
C49_3 C53_3 1_555 1_555
Co3 N2_4 1_555 1_555
O1_4 C5_4 1_555 1_555
O2_4 C3_4 1_555 1_555
N13 C1_4 1_555 1_555
N2_4 C10_4 1_555 1_555
C1_4 H1_4 1_555 1_555
C2_4 H2_4 1_555 1_555
C3_4 C6_4 1_555 1_555
C4_4 N13 1_555 1_555
H3_4 C4_4 1_555 1_555
C5_4 C2_4 1_555 1_555
C6_4 H4_4 1_555 1_555
C8_4 O1_4 1_555 1_555
H5_4 C8_4 1_555 1_555
C9_4 C1_4 1_555 1_555
H7_4 C9_4 1_555 1_555
C10_4 H8_4 1_555 1_555
C11_4 N2_4 1_555 1_555
H9_4 C11_4 1_555 1_555
C12_4 C3_4 1_555 1_555
H10_4 C12_4 1_555 1_555
C14_4 O2_4 1_555 1_555
H13_4 C14_4 1_555 1_555
H14_4 C14_4 1_555 1_555
N9_4 Co3 1_555 1_555
C44_4 N9_4 1_555 1_555
C2_4 C4_4 1_555 1_555
C5_4 C9_4 1_555 1_555
C6_4 C11_4 1_555 1_555
C10_4 C12_4 1_555 1_555
Co7 N4_4 1_555 1_555
S2_4 C27_4 1_555 1_555
O3_4 C13_4 1_555 1_555
O4_4 C15_4 1_555 1_555
N4_4 C23_4 1_555 1_555
C13_4 C7_4 1_555 1_555
H11_4 C13_4 1_555 1_555
N5_4 Co7 1_555 1_555
N16_2 C24_4 1_555 1_555
C15_4 C7_4 1_555 1_555
H15_4 C15_4 1_555 1_555
H16_4 C15_4 1_555 1_555
C16_4 O3_4 1_555 1_555
C18_4 O4_4 1_555 1_555
C19_4 C16_4 1_555 1_555
H17_4 C19_4 1_555 1_555
C20_4 C16_4 1_555 1_555
H18_4 C20_4 1_555 1_555
C21_4 C18_4 1_555 1_555
H19_4 C21_4 1_555 1_555
C22_4 C18_4 1_555 1_555
H20_4 C22_4 1_555 1_555
C23_4 C21_4 1_555 1_555
H21_4 C23_4 1_555 1_555
C24_4 C20_4 1_555 1_555
H22_4 C24_4 1_555 1_555
C25_4 N16_2 1_555 1_555
H23_4 C25_4 1_555 1_555
C26_4 N4_4 1_555 1_555
H24_4 C26_4 1_555 1_555
C27_4 N5_4 1_555 1_555
C19_4 C25_4 1_555 1_555
C22_4 C26_4 1_555 1_555
N3_4 Co3_2 1_555 1_555
C17_4 N3_4 1_555 1_555
O5_4 C32_4 1_555 1_555
O6_4 C30_4 1_555 1_555
O7_4 C40_4 1_555 1_555
O8_4 C42_4 1_555 1_555
N14 C28_4 1_555 1_555
N8_4 Co3_2 1_555 1_555
C28_4 H25_3 1_555 1_555
C29_4 H26_4 1_555 1_555
C30_4 C33_4 1_555 1_555
C31_4 N14 1_555 1_555
H27_4 C31_4 1_555 1_555
C32_4 C29_4 1_555 1_555
C33_4 H28_4 1_555 1_555
C34_4 C35_4 1_555 1_555
C35_4 O5_4 1_555 1_555
H29_4 C35_4 1_555 1_555
H30_4 C35_4 1_555 1_555
C36_4 C28_4 1_555 1_555
H31_4 C36_4 1_555 1_555
N10_2 C50_4 1_555 1_555
C37_4 N8_4 1_555 1_555
H32_4 C37_4 1_555 1_555
C38_4 N8_4 1_555 1_555
H33_4 C38_4 1_555 1_555
C39_4 C30_4 1_555 1_555
H34_4 C39_4 1_555 1_555
C40_4 C34_4 1_555 1_555
H35_4 C40_4 1_555 1_555
H36_4 C40_4 1_555 1_555
C41_4 O6_4 1_555 1_555
H37_4 C41_4 1_555 1_555
H38_4 C41_4 1_555 1_555
N17_2 C51_4 1_555 1_555
C42_4 C34_4 1_555 1_555
H39_4 C42_4 1_555 1_555
H40_4 C42_4 1_555 1_555
C43_4 O7_4 1_555 1_555
C45_4 O8_4 1_555 1_555
C46_4 C43_4 1_555 1_555
H41_4 C46_4 1_555 1_555
C47_4 C43_4 1_555 1_555
H42_4 C47_4 1_555 1_555
C48_4 C45_4 1_555 1_555
H43_4 C48_4 1_555 1_555
C49_4 C45_4 1_555 1_555
H44_4 C49_4 1_555 1_555
C50_4 C48_4 1_555 1_555
H45_4 C50_4 1_555 1_555
C51_4 C47_4 1_555 1_555
H46_4 C51_4 1_555 1_555
C52_4 N17_2 1_555 1_555
H47_4 C52_4 1_555 1_555
C53_4 N10_2 1_555 1_555
H48_4 C53_4 1_555 1_555
Co7_2 N10_2 1_555 1_555
C29_4 C31_4 1_555 1_555
C32_4 C36_4 1_555 1_555
C33_4 C38_4 1_555 1_555
C34_4 C41_4 1_555 1_555
C37_4 C39_4 1_555 1_555
C46_4 C52_4 1_555 1_555
C49_4 C53_4 1_555 1_555
S4_4 C54_4 1_555 1_555
N12_4 Co7_2 1_555 1_555
C54_4 N12_4 1_555 1_555
O5_5 C32_5 1_555 1_555
O7_5 C40_5 1_555 1_555
N7_3 C28_5 1_555 1_555
C28_5 H25_5 1_555 1_555
C29_5 H26_5 1_555 1_555
C31_5 N7_3 1_555 1_555
H27_5 C31_5 1_555 1_555
C32_5 C29_5 1_555 1_555
C35_5 O5_5 1_555 1_555
H29_5 C35_5 1_555 1_555
H30_5 C35_5 1_555 1_555
C36_5 C28_5 1_555 1_555
H31_5 C36_5 1_555 1_555
H35_5 C40_5 1_555 1_555
H36_5 C40_5 1_555 1_555
N11_3 C51_5 1_555 1_555
C43_5 O7_5 1_555 1_555
C46_5 C43_5 1_555 1_555
H41_5 C46_5 1_555 1_555
C47_5 C43_5 1_555 1_555
H42_5 C47_5 1_555 1_555
C51_5 C47_5 1_555 1_555
C52_5 N11_3 1_555 1_555
H47_5 C52_5 1_555 1_555
Co3_3 N7_3 1_555 1_555
Co6_3 N11_3 1_555 1_555
C29_5 C31_5 1_555 1_555
C32_5 C36_5 1_555 1_555
C46_5 C52_5 1_555 1_555
Co1_4 N2_5 1_555 1_555
Co5_2 N4_5 1_555 1_555
S1_5 C17_5 1_555 1_555
O1_5 C5_5 1_555 1_555
O2_5 C3_5 1_555 1_555
O3_5 C13_5 1_555 1_555
O4_5 C15_5 1_555 1_555
N1_3 C1_5 1_555 1_555
N2_5 C10_5 1_555 1_555
N3_5 Co1_4 1_555 1_555
C1_5 H1_5 1_555 1_555
C2_5 H2_5 1_555 1_555
C3_5 C6_5 1_555 1_555
C4_5 N1_3 1_555 1_555
H3_5 C4_5 1_555 1_555
C5_5 C2_5 1_555 1_555
C6_5 H4_5 1_555 1_555
C7_5 C8_5 1_555 1_555
C8_5 O1_5 1_555 1_555
H5_5 C8_5 1_555 1_555
H6_5 C8_5 1_555 1_555
C9_5 C1_5 1_555 1_555
H7_5 C9_5 1_555 1_555
N4_5 C23_5 1_555 1_555
C10_5 H8_5 1_555 1_555
C11_5 N2_5 1_555 1_555
H9_5 C11_5 1_555 1_555
C12_5 C3_5 1_555 1_555
H10_5 C12_5 1_555 1_555
C13_5 C7_5 1_555 1_555
H11_5 C13_5 1_555 1_555
H12_5 C13_5 1_555 1_555
C14_5 O2_5 1_555 1_555
H13_5 C14_5 1_555 1_555
H14_5 C14_5 1_555 1_555
N6_3 C24_5 1_555 1_555
C15_5 C7_5 1_555 1_555
H15_5 C15_5 1_555 1_555
H16_5 C15_5 1_555 1_555
C16_5 O3_5 1_555 1_555
C17_5 N3_5 1_555 1_555
C18_5 O4_5 1_555 1_555
C19_5 C16_5 1_555 1_555
H17_5 C19_5 1_555 1_555
C20_5 C16_5 1_555 1_555
H18_5 C20_5 1_555 1_555
C21_5 C18_5 1_555 1_555
H19_5 C21_5 1_555 1_555
C22_5 C18_5 1_555 1_555
H20_5 C22_5 1_555 1_555
C23_5 C21_5 1_555 1_555
H21_5 C23_5 1_555 1_555
C24_5 C20_5 1_555 1_555
C25_5 N6_3 1_555 1_555
H23_5 C25_5 1_555 1_555
C26_5 N4_5 1_555 1_555
S3_5 C44_5 1_555 1_555
O6_5 C30_5 1_555 1_555
O8_5 C42_5 1_555 1_555
N8_5 Co1_4 1_555 1_555
N9_5 Co1_4 1_555 1_555
C30_5 C33_5 1_555 1_555
C33_5 H28_5 1_555 1_555
N10_3 C50_5 1_555 1_555
C37_5 N8_5 1_555 1_555
H32_5 C37_5 1_555 1_555
C38_5 N8_5 1_555 1_555
H33_5 C38_5 1_555 1_555
C39_5 C30_5 1_555 1_555
H34_5 C39_5 1_555 1_555
C41_5 O6_5 1_555 1_555
H37_5 C41_5 1_555 1_555
H38_5 C41_5 1_555 1_555
C42_5 C34_5 1_555 1_555
H39_5 C42_5 1_555 1_555
H40_5 C42_5 1_555 1_555
C44_5 N9_5 1_555 1_555
C45_5 O8_5 1_555 1_555
C48_5 C45_5 1_555 1_555
H43_5 C48_5 1_555 1_555
C49_5 C45_5 1_555 1_555
H44_5 C49_5 1_555 1_555
C50_5 C48_5 1_555 1_555
H45_5 C50_5 1_555 1_555
C53_5 N10_3 1_555 1_555
S4_5 C54_5 1_555 1_555
N12_5 Co5_2 1_555 1_555
C54_5 N12_5 1_555 1_555
Co3_3 N1_3 1_555 1_555
Co5_3 N10_3 1_555 1_555
Co6_2 N6_3 1_555 1_555
N13_3 Co1_4 1_555 1_555
N14_3 Co1_4 1_555 1_555
N17_3 Co5_2 1_555 1_555
C2_5 C4_5 1_555 1_555
C5_5 C9_5 1_555 1_555
C6_5 C11_5 1_555 1_555
C7_5 C14_5 1_555 1_555
C10_5 C12_5 1_555 1_555
C19_5 C25_5 1_555 1_555
C22_5 C26_5 1_555 1_555
C33_5 C38_5 1_555 1_555
C34_5 C41_5 1_555 1_555
C37_5 C39_5 1_555 1_555
C49_5 C53_5 1_555 1_555
S2_5 C27_5 1_555 1_555
N5_5 Co5_3 1_555 1_555
C27_5 N5_5 1_555 1_555
N16_3 Co5_3 1_555 1_555
Co1_5 N2_6 1_555 1_555
S1_6 C17_6 1_555 1_555
O1_6 C5_6 1_555 1_555
O2_6 C3_6 1_555 1_555
O3_6 C13_6 1_555 1_555
O4_6 C15_6 1_555 1_555
N1_4 C1_6 1_555 1_555
N2_6 C10_6 1_555 1_555
N3_6 Co1_5 1_555 1_555
C2_6 H2_6 1_555 1_555
C3_6 C6_6 1_555 1_555
C4_6 N1_4 1_555 1_555
C5_6 C2_6 1_555 1_555
C6_6 H4_6 1_555 1_555
C7_6 C8_6 1_555 1_555
C8_6 O1_6 1_555 1_555
H5_6 C8_6 1_555 1_555
H6_6 C8_6 1_555 1_555
C9_6 C1_6 1_555 1_555
H7_6 C9_6 1_555 1_555
N4_6 C23_6 1_555 1_555
C11_6 N2_6 1_555 1_555
H9_6 C11_6 1_555 1_555
C12_6 C3_6 1_555 1_555
H10_6 C12_6 1_555 1_555
C13_6 C7_6 1_555 1_555
H11_6 C13_6 1_555 1_555
H12_6 C13_6 1_555 1_555
C14_6 O2_6 1_555 1_555
H13_6 C14_6 1_555 1_555
H14_6 C14_6 1_555 1_555
N6_4 C24_6 1_555 1_555
C15_6 C7_6 1_555 1_555
H15_6 C15_6 1_555 1_555
H16_6 C15_6 1_555 1_555
C16_6 O3_6 1_555 1_555
C17_6 N3_6 1_555 1_555
C18_6 O4_6 1_555 1_555
C19_6 C16_6 1_555 1_555
H17_6 C19_6 1_555 1_555
C20_6 C16_6 1_555 1_555
H18_6 C20_6 1_555 1_555
C21_6 C18_6 1_555 1_555
H19_6 C21_6 1_555 1_555
C22_6 C18_6 1_555 1_555
H20_6 C22_6 1_555 1_555
C23_6 C21_6 1_555 1_555
C24_6 C20_6 1_555 1_555
H22_6 C24_6 1_555 1_555
C25_6 N6_4 1_555 1_555
H23_6 C25_6 1_555 1_555
C26_6 N4_6 1_555 1_555
H24_6 C26_6 1_555 1_555
Co7_3 N6_4 1_555 1_555
N14_4 Co1_5 1_555 1_555
C2_6 C4_6 1_555 1_555
C5_6 C9_6 1_555 1_555
C6_6 C11_6 1_555 1_555
C7_6 C14_6 1_555 1_555
C10_6 C12_6 1_555 1_555
C19_6 C25_6 1_555 1_555
C22_6 C26_6 1_555 1_555
N5_6 Co2_3 1_555 1_555
C27_6 N5_6 1_555 1_555
N12_6 Co2_3 1_555 1_555
C54_6 N12_6 1_555 1_555
N16_4 Co2_3 1_555 1_555
N17_4 Co2_3 1_555 1_555
S3_6 C44_6 1_555 1_555
O6_6 C30_6 1_555 1_555
O8_6 C42_6 1_555 1_555
N8_6 Co1_6 1_555 1_555
N9_6 Co1_6 1_555 1_555
C30_6 C33_6 1_555 1_555
C33_6 H28_6 1_555 1_555
N15_3 C50_6 1_555 1_555
C37_6 N8_6 1_555 1_555
C38_6 N8_6 1_555 1_555
H33_6 C38_6 1_555 1_555
C39_6 C30_6 1_555 1_555
H34_6 C39_6 1_555 1_555
C41_6 O6_6 1_555 1_555
H37_6 C41_6 1_555 1_555
H38_6 C41_6 1_555 1_555
C42_6 C34_6 1_555 1_555
H39_6 C42_6 1_555 1_555
H40_6 C42_6 1_555 1_555
C44_6 N9_6 1_555 1_555
C45_6 O8_6 1_555 1_555
C48_6 C45_6 1_555 1_555
H43_6 C48_6 1_555 1_555
C49_6 C45_6 1_555 1_555
H44_6 C49_6 1_555 1_555
C50_6 C48_6 1_555 1_555
C53_6 N15_3 1_555 1_555
H48_6 C53_6 1_555 1_555
N13_4 Co1_6 1_555 1_555
C33_6 C38_6 1_555 1_555
C34_6 C41_6 1_555 1_555
C37_6 C39_6 1_555 1_555
C49_6 C53_6 1_555 1_555
O5_6 C32_6 1_555 1_555
O7_6 C40_6 1_555 1_555
N7_4 C28_6 1_555 1_555
C29_6 H26_6 1_555 1_555
C31_6 N7_4 1_555 1_555
C32_6 C29_6 1_555 1_555
C35_6 O5_6 1_555 1_555
H29_6 C35_6 1_555 1_555
H30_6 C35_6 1_555 1_555
C36_6 C28_6 1_555 1_555
H31_6 C36_6 1_555 1_555
H35_6 C40_6 1_555 1_555
H36_6 C40_6 1_555 1_555
N11_4 C51_6 1_555 1_555
C43_6 O7_6 1_555 1_555
C46_6 C43_6 1_555 1_555
H41_6 C46_6 1_555 1_555
C47_6 C43_6 1_555 1_555
H42_6 C47_6 1_555 1_555
C51_6 C47_6 1_555 1_555
H46_6 C51_6 1_555 1_555
C52_6 N11_4 1_555 1_555
H47_6 C52_6 1_555 1_555
Co7_3 N11_4 1_555 1_555
C29_6 C31_6 1_555 1_555
C32_6 C36_6 1_555 1_555
C46_6 C52_6 1_555 1_555
Co3_3 N2_7 1_555 1_555
S1_7 C17_7 1_555 1_555
O1_7 C5_7 1_555 1_555
O2_7 C3_7 1_555 1_555
N13_4 C1_7 1_555 1_555
N2_7 C10_7 1_555 1_555
N3_7 Co3_3 1_555 1_555
C1_7 H1_7 1_555 1_555
C2_7 H2_7 1_555 1_555
C3_7 C6_7 1_555 1_555
C4_7 N13_4 1_555 1_555
H3_7 C4_7 1_555 1_555
C5_7 C2_7 1_555 1_555
C6_7 H4_7 1_555 1_555
C8_7 O1_7 1_555 1_555
H5_7 C8_7 1_555 1_555
C9_7 C1_7 1_555 1_555
H7_7 C9_7 1_555 1_555
C10_7 H8_7 1_555 1_555
C11_7 N2_7 1_555 1_555
H9_7 C11_7 1_555 1_555
C12_7 C3_7 1_555 1_555
H10_7 C12_7 1_555 1_555
C14_7 O2_7 1_555 1_555
H13_7 C14_7 1_555 1_555
H14_7 C14_7 1_555 1_555
C17_7 N3_7 1_555 1_555
S3_7 C44_7 1_555 1_555
O5_7 C32_7 1_555 1_555
O6_7 C30_7 1_555 1_555
O7_7 C40_7 1_555 1_555
O8_7 C42_7 1_555 1_555
N14_4 C28_7 1_555 1_555
N8_7 Co3_3 1_555 1_555
N9_7 Co3_3 1_555 1_555
C28_7 H25_6 1_555 1_555
C29_7 H26_7 1_555 1_555
C30_7 C33_7 1_555 1_555
C31_7 N14_4 1_555 1_555
H27_7 C31_7 1_555 1_555
C32_7 C29_7 1_555 1_555
C33_7 H28_7 1_555 1_555
C34_7 C35_7 1_555 1_555
C35_7 O5_7 1_555 1_555
H29_7 C35_7 1_555 1_555
H30_7 C35_7 1_555 1_555
C36_7 C28_7 1_555 1_555
H31_7 C36_7 1_555 1_555
N10_4 C50_7 1_555 1_555
C37_7 N8_7 1_555 1_555
H32_7 C37_7 1_555 1_555
C38_7 N8_7 1_555 1_555
H33_7 C38_7 1_555 1_555
C39_7 C30_7 1_555 1_555
H34_7 C39_7 1_555 1_555
C40_7 C34_7 1_555 1_555
H35_7 C40_7 1_555 1_555
H36_7 C40_7 1_555 1_555
C41_7 O6_7 1_555 1_555
H37_7 C41_7 1_555 1_555
H38_7 C41_7 1_555 1_555
N17_3 C51_7 1_555 1_555
C42_7 C34_7 1_555 1_555
H39_7 C42_7 1_555 1_555
H40_7 C42_7 1_555 1_555
C43_7 O7_7 1_555 1_555
C44_7 N9_7 1_555 1_555
C45_7 O8_7 1_555 1_555
C46_7 C43_7 1_555 1_555
H41_7 C46_7 1_555 1_555
C47_7 C43_7 1_555 1_555
H42_7 C47_7 1_555 1_555
C48_7 C45_7 1_555 1_555
H43_7 C48_7 1_555 1_555
C49_7 C45_7 1_555 1_555
H44_7 C49_7 1_555 1_555
C50_7 C48_7 1_555 1_555
H45_7 C50_7 1_555 1_555
C51_7 C47_7 1_555 1_555
H46_7 C51_7 1_555 1_555
C52_7 N17_3 1_555 1_555
H47_7 C52_7 1_555 1_555
C53_7 N10_4 1_555 1_555
H48_7 C53_7 1_555 1_555
Co7_3 N10_4 1_555 1_555
C2_7 C4_7 1_555 1_555
C5_7 C9_7 1_555 1_555
C6_7 C11_7 1_555 1_555
C10_7 C12_7 1_555 1_555
C29_7 C31_7 1_555 1_555
C32_7 C36_7 1_555 1_555
C33_7 C38_7 1_555 1_555
C34_7 C41_7 1_555 1_555
C37_7 C39_7 1_555 1_555
C46_7 C52_7 1_555 1_555
C49_7 C53_7 1_555 1_555
Co7_3 N4_7 1_555 1_555
S2_7 C27_7 1_555 1_555
O3_7 C13_7 1_555 1_555
O4_7 C15_7 1_555 1_555
N4_7 C23_7 1_555 1_555
C13_7 C7_7 1_555 1_555
H11_7 C13_7 1_555 1_555
N5_7 Co7_3 1_555 1_555
N16_3 C24_7 1_555 1_555
C15_7 C7_7 1_555 1_555
H15_7 C15_7 1_555 1_555
H16_7 C15_7 1_555 1_555
C16_7 O3_7 1_555 1_555
C18_7 O4_7 1_555 1_555
C19_7 C16_7 1_555 1_555
H17_7 C19_7 1_555 1_555
C20_7 C16_7 1_555 1_555
H18_7 C20_7 1_555 1_555
C21_7 C18_7 1_555 1_555
H19_7 C21_7 1_555 1_555
C22_7 C18_7 1_555 1_555
H20_7 C22_7 1_555 1_555
C23_7 C21_7 1_555 1_555
H21_7 C23_7 1_555 1_555
C24_7 C20_7 1_555 1_555
H22_7 C24_7 1_555 1_555
C25_7 N16_3 1_555 1_555
H23_7 C25_7 1_555 1_555
C26_7 N4_7 1_555 1_555
H24_7 C26_7 1_555 1_555
C27_7 N5_7 1_555 1_555
S4_7 C54_7 1_555 1_555
N12_7 Co7_3 1_555 1_555
C54_7 N12_7 1_555 1_555
C19_7 C25_7 1_555 1_555
C22_7 C26_7 1_555 1_555
S4_8 C54_8 1_555 1_555
N12_8 Co6_2 1_555 1_555
C54_8 N12_8 1_555 1_555
N15_4 Co6_2 1_555 1_555
N3_8 Co4_2 1_555 1_555
C17_8 N3_8 1_555 1_555
O5_8 C32_8 1_555 1_555
O6_8 C30_8 1_555 1_555
O7_8 C40_8 1_555 1_555
O8_8 C42_8 1_555 1_555
N14_3 C28_8 1_555 1_555
N8_8 Co4_2 1_555 1_555
C28_8 H25_7 1_555 1_555
C29_8 H26_8 1_555 1_555
C30_8 C33_8 1_555 1_555
C31_8 N14_3 1_555 1_555
H27_8 C31_8 1_555 1_555
C32_8 C29_8 1_555 1_555
C33_8 H28_8 1_555 1_555
C34_8 C35_8 1_555 1_555
C35_8 O5_8 1_555 1_555
H29_8 C35_8 1_555 1_555
H30_8 C35_8 1_555 1_555
C36_8 C28_8 1_555 1_555
H31_8 C36_8 1_555 1_555
N15_4 C50_8 1_555 1_555
C37_8 N8_8 1_555 1_555
H32_8 C37_8 1_555 1_555
C38_8 N8_8 1_555 1_555
H33_8 C38_8 1_555 1_555
C39_8 C30_8 1_555 1_555
H34_8 C39_8 1_555 1_555
C40_8 C34_8 1_555 1_555
H35_8 C40_8 1_555 1_555
H36_8 C40_8 1_555 1_555
C41_8 O6_8 1_555 1_555
H37_8 C41_8 1_555 1_555
H38_8 C41_8 1_555 1_555
N17_4 C51_8 1_555 1_555
C42_8 C34_8 1_555 1_555
H39_8 C42_8 1_555 1_555
H40_8 C42_8 1_555 1_555
C43_8 O7_8 1_555 1_555
C45_8 O8_8 1_555 1_555
C46_8 C43_8 1_555 1_555
H41_8 C46_8 1_555 1_555
C47_8 C43_8 1_555 1_555
H42_8 C47_8 1_555 1_555
C48_8 C45_8 1_555 1_555
H43_8 C48_8 1_555 1_555
C49_8 C45_8 1_555 1_555
H44_8 C49_8 1_555 1_555
C50_8 C48_8 1_555 1_555
H45_8 C50_8 1_555 1_555
C51_8 C47_8 1_555 1_555
H46_8 C51_8 1_555 1_555
C52_8 N17_4 1_555 1_555
H47_8 C52_8 1_555 1_555
C53_8 N15_4 1_555 1_555
H48_8 C53_8 1_555 1_555
C29_8 C31_8 1_555 1_555
C32_8 C36_8 1_555 1_555
C33_8 C38_8 1_555 1_555
C34_8 C41_8 1_555 1_555
C37_8 C39_8 1_555 1_555
C46_8 C52_8 1_555 1_555
C49_8 C53_8 1_555 1_555
Co6_3 N4_8 1_555 1_555
S2_8 C27_8 1_555 1_555
O3_8 C13_8 1_555 1_555
O4_8 C15_8 1_555 1_555
N4_8 C23_8 1_555 1_555
C13_8 C7_8 1_555 1_555
H11_8 C13_8 1_555 1_555
N5_8 Co6_3 1_555 1_555
N16_4 C24_8 1_555 1_555
C15_8 C7_8 1_555 1_555
H15_8 C15_8 1_555 1_555
H16_8 C15_8 1_555 1_555
C16_8 O3_8 1_555 1_555
C18_8 O4_8 1_555 1_555
C19_8 C16_8 1_555 1_555
H17_8 C19_8 1_555 1_555
C20_8 C16_8 1_555 1_555
H18_8 C20_8 1_555 1_555
C21_8 C18_8 1_555 1_555
H19_8 C21_8 1_555 1_555
C22_8 C18_8 1_555 1_555
H20_8 C22_8 1_555 1_555
C23_8 C21_8 1_555 1_555
H21_8 C23_8 1_555 1_555
C24_8 C20_8 1_555 1_555
H22_8 C24_8 1_555 1_555
C25_8 N16_4 1_555 1_555
H23_8 C25_8 1_555 1_555
C26_8 N4_8 1_555 1_555
H24_8 C26_8 1_555 1_555
C27_8 N5_8 1_555 1_555
C19_8 C25_8 1_555 1_555
C22_8 C26_8 1_555 1_555
Co4_3 N2_8 1_555 1_555
O1_8 C5_8 1_555 1_555
O2_8 C3_8 1_555 1_555
N13_3 C1_8 1_555 1_555
N2_8 C10_8 1_555 1_555
C1_8 H1_8 1_555 1_555
C2_8 H2_8 1_555 1_555
C3_8 C6_8 1_555 1_555
C4_8 N13_3 1_555 1_555
H3_8 C4_8 1_555 1_555
C5_8 C2_8 1_555 1_555
C6_8 H4_8 1_555 1_555
C8_8 O1_8 1_555 1_555
H5_8 C8_8 1_555 1_555
C9_8 C1_8 1_555 1_555
H7_8 C9_8 1_555 1_555
C10_8 H8_8 1_555 1_555
C11_8 N2_8 1_555 1_555
H9_8 C11_8 1_555 1_555
C12_8 C3_8 1_555 1_555
H10_8 C12_8 1_555 1_555
C14_8 O2_8 1_555 1_555
H13_8 C14_8 1_555 1_555
H14_8 C14_8 1_555 1_555
N9_8 Co4_3 1_555 1_555
C44_8 N9_8 1_555 1_555
C2_8 C4_8 1_555 1_555
C5_8 C9_8 1_555 1_555
C6_8 C11_8 1_555 1_555
C10_8 C12_8 1_555 1_555

#END
