
###############################################################################
#
# This file contains modified crystal structure data generated from the
# MOF subset of the Cambridge Structural Database (CSD) v543 
# hosted by the Cambridge Crystallographic Data Centre (CCDC).
#
# This work is licensed under the Creative Commons
# Attribution-NonCommercial-ShareAlike 4.0 International License.
# To view a copy of this license, visit
# http://creativecommons.org/licenses/by-nc-sa/4.0/
# or send a letter to
# Creative Commons, PO Box 1866, Mountain View, CA 94042, USA.
#
# CIF created using the CSD Python API on 29 September 2022
# The structure has been converted into the P1 space group
# The structure has a 3D framework
# The original CSD entry QIBTEA is in the orthorhombic crystal system
# The framework has been calculated to contain at least 10.0% void space
# The void calculation uses a probe of radius 1.32A, grid spacing 0.4
# The framework is charged, counterions have been retained in the structure
#
###############################################################################

data_QIBTEA
_chemical_formula_moiety         '(C704 H640 B24 La8 N40 O64)n'
_symmetry_cell_setting           triclinic
_symmetry_space_group_name_H-M   'P 1'
_symmetry_Int_Tables_number      1
_space_group_name_Hall           'P 1'
loop_
_symmetry_equiv_pos_site_id
_symmetry_equiv_pos_as_xyz
1 x,y,z
_cell_length_a                   48.422(7)
_cell_length_b                   21.958(3)
_cell_length_c                   15.814(2)
_cell_angle_alpha                90
_cell_angle_beta                 90
_cell_angle_gamma                90
_cell_volume                     16814.2
loop_
_atom_site_label
_atom_site_type_symbol
_atom_site_fract_x
_atom_site_fract_y
_atom_site_fract_z
C1 C 0.07137(19) 0.2745(4) 0.0153(7)
H3 H 0.0727 0.2758 0.0758
H4 H 0.1300 0.0805 0.0297
B1 B 0.0986(2) 0.1759(5) 0.0259(8)
O8 O 0.33477(12) 0.1887(3) 0.3015(5)
C19 C 0.2049(3) 0.1511(4) 0.0229(9)
H23 H 0.1957 0.1156 0.0076
C20 C 0.2251(2) 0.1491(4) 0.0838(8)
H24 H 0.2288 0.1126 0.1113
C21 C 0.23994(18) 0.2009(3) 0.1047(7)
C22 C 0.23074(16) 0.2550(3) 0.0693(6)
H25 H 0.2389 0.2915 0.0856
C23 C 0.20985(17) 0.2557(4) 0.0106(6)
N5 N 0.31131(14) 0.1935(3) 0.2580(5)
C24 C 0.30869(15) 0.2369(3) 0.1988(5)
H27 H 0.3227 0.2654 0.1912
C25 C 0.28539(15) 0.2393(3) 0.1497(5)
H28 H 0.2840 0.2688 0.1077
C26 C 0.26392(15) 0.1985(3) 0.1618(6)
C27 C 0.26703(17) 0.1562(4) 0.2265(6)
H29 H 0.2528 0.1291 0.2381
C28 C 0.29088(16) 0.1539(4) 0.2734(6)
H30 H 0.2928 0.1249 0.3158
C29 C 0.10822(17) 0.1848(3) 0.1211(5)
C30 C 0.09014(18) 0.1969(3) 0.1880(6)
H31 H 0.0712 0.1947 0.1784
C31 C 0.0995(2) 0.2119(4) 0.2682(6)
H32 H 0.0867 0.2196 0.3108
C32 C 0.1273(2) 0.2156(4) 0.2861(6)
H33 H 0.1335 0.2256 0.3400
C33 C 0.14584(19) 0.2040(4) 0.2212(6)
H34 H 0.1647 0.2064 0.2312
C34 C 0.13615(17) 0.1890(3) 0.1413(5)
H35 H 0.1490 0.1812 0.0990
C35 C 0.0733(2) 0.1296(4) 0.0089(6)
C36 C 0.0647(2) 0.0832(4) 0.0637(7)
H36 H 0.0712 0.0837 0.1190
C37 C 0.0470(3) 0.0364(5) 0.0395(9)
H37 H 0.0417 0.0067 0.0782
O10 O 0.11196(11) 0.6459(2) 0.3796(4)
O11 O 0.15100(13) 0.3073(3) 0.0096(4)
N7 N 0.11491(14) 0.6002(3) 0.3246(4)
C46 C 0.11407(18) 0.5427(3) 0.3534(5)
H45 H 0.1110 0.5353 0.4105
C47 C 0.11769(18) 0.4950(3) 0.2985(5)
H46 H 0.1171 0.4553 0.3193
C48 C 0.12220(18) 0.5043(3) 0.2131(5)
C49 C 0.12195(18) 0.5644(3) 0.1855(5)
H47 H 0.1244 0.5729 0.1284
C50 C 0.11818(17) 0.6115(3) 0.2418(5)
H48 H 0.1179 0.6515 0.2223
C51 C 0.15180(18) 0.4105(3) 0.0352(5)
C52 C 0.14493(17) 0.4594(3) 0.0851(5)
H50 H 0.1515 0.4979 0.0714
C53 C 0.12824(16) 0.4521(3) 0.1558(5)
C54 C 0.11812(18) 0.3938(3) 0.1716(6)
H51 H 0.1062 0.3874 0.2168
C55 C 0.12566(17) 0.3459(3) 0.1210(6)
H52 H 0.1191 0.3070 0.1327
N8 N 0.14238(15) 0.3547(3) 0.0554(5)
La3 La 0.134189(9) 0.75055(2) 0.38936(3)
La6 La 0.365811(9) 0.25055(2) 0.38936(3)
La1 La 0.134189(9) 0.24945(2) 0.88936(3)
O1 O 0.09306(11) 0.2388(2) 0.9826(4)
H1 H 0.0540 0.2570 0.9992
H2 H 0.0727 0.3151 0.9930
O2 O 0.12237(13) 0.1577(3) 0.9702(4)
C2 C 0.1311(2) 0.0953(4) 0.9727(7)
H5 H 0.1498 0.0924 0.9530
H6 H 0.1193 0.0714 0.9369
O3 O 0.14511(12) 0.1633(3) 0.7815(4)
H7 H 0.1318 0.1528 0.7530
C3 C 0.1658(2) 0.1157(5) 0.7800(8)
H8 H 0.1735 0.1125 0.7241
H9 H 0.1575 0.0776 0.7955
H10 H 0.1803 0.1254 0.8194
O4 O 0.09960(11) 0.2401(2) 0.7737(4)
O5 O 0.11196(11) 0.3541(2) 0.8796(4)
O6 O 0.17951(13) 0.2048(3) 0.9234(5)
O7 O 0.15100(13) 0.6927(3) 0.5096(4)
N1 N 0.07210(12) 0.2423(3) 0.7667(4)
C4 C 0.05947(14) 0.1999(3) 0.7196(4)
H11 H 0.0698 0.1702 0.6920
C5 C 0.03123(14) 0.2006(3) 0.7123(5)
H12 H 0.0226 0.1712 0.6793
C6 C 0.01526(13) 0.2440(3) 0.7529(4)
C7 C 0.02928(14) 0.2871(3) 0.8005(5)
H13 H 0.0194 0.3174 0.8285
C8 C 0.05759(14) 0.2855(3) 0.8067(5)
H14 H 0.0667 0.3147 0.8389
N2 N 0.11491(14) 0.3998(3) 0.8246(4)
C9 C 0.11407(18) 0.4573(3) 0.8534(5)
H15 H 0.1110 0.4647 0.9105
C10 C 0.11769(18) 0.5050(3) 0.7985(5)
H16 H 0.1171 0.5447 0.8193
C11 C 0.12220(18) 0.4957(3) 0.7131(5)
C12 C 0.12195(18) 0.4356(3) 0.6855(5)
H17 H 0.1244 0.4271 0.6284
C13 C 0.11818(17) 0.3885(3) 0.7418(5)
H18 H 0.1179 0.3485 0.7223
N3 N 0.19838(15) 0.2043(3) 0.9852(6)
C14 C 0.15180(18) 0.5895(3) 0.5352(5)
H19 H 0.1629 0.5841 0.4878
C15 C 0.14493(17) 0.5406(3) 0.5851(5)
H20 H 0.1515 0.5021 0.5714
C16 C 0.12824(16) 0.5479(3) 0.6558(5)
C17 C 0.11812(18) 0.6062(3) 0.6716(6)
H21 H 0.1062 0.6126 0.7168
C18 C 0.12566(17) 0.6541(3) 0.6210(6)
H22 H 0.1191 0.6930 0.6327
N4 N 0.14238(15) 0.6453(3) 0.5554(5)
H26 H 0.2037 0.2926 0.9886
C38 C 0.0374(3) 0.0345(5) 0.9571(9)
H38 H 0.0253 0.0039 0.9401
C39 C 0.0458(3) 0.0786(5) 0.9001(7)
H39 H 0.0397 0.0774 0.8443
C40 C 0.0635(2) 0.1246(4) 0.9265(6)
H40 H 0.0690 0.1536 0.8871
H49 H 0.1629 0.4159 0.9878
O12 O 0.32049(13) 0.2952(3) 0.4234(5)
O13 O 0.16523(12) 0.3113(3) 0.8015(5)
N9 N 0.30162(15) 0.2957(3) 0.4852(6)
C56 C 0.2951(3) 0.3489(4) 0.5229(9)
H53 H 0.3043 0.3844 0.5076
C57 C 0.2749(2) 0.3509(4) 0.5838(8)
H54 H 0.2712 0.3874 0.6113
C58 C 0.26006(18) 0.2991(3) 0.6047(7)
C59 C 0.26926(16) 0.2450(3) 0.5693(6)
H55 H 0.2611 0.2085 0.5856
C60 C 0.29015(17) 0.2443(4) 0.5106(6)
H56 H 0.2963 0.2074 0.4886
N10 N 0.18869(14) 0.3065(3) 0.7580(5)
C61 C 0.19131(15) 0.2631(3) 0.6988(5)
H57 H 0.1773 0.2346 0.6912
C62 C 0.21461(15) 0.2607(3) 0.6497(5)
H58 H 0.2160 0.2312 0.6077
C63 C 0.23608(15) 0.3015(3) 0.6618(6)
C64 C 0.23297(17) 0.3438(4) 0.7265(6)
H59 H 0.2472 0.3709 0.7381
C65 C 0.20912(16) 0.3461(4) 0.7734(6)
H60 H 0.2072 0.3751 0.8158
C41 C 0.98474(13) 0.2440(3) 0.7471(4)
C42 C 0.96877(14) 0.2006(3) 0.7877(5)
C43 C 0.94053(14) 0.1999(3) 0.7804(4)
N6 N 0.92790(12) 0.2423(3) 0.7333(4)
O9 O 0.90040(11) 0.2401(2) 0.7263(4)
C44 C 0.94241(14) 0.2855(3) 0.6933(5)
C45 C 0.97072(14) 0.2871(3) 0.6995(5)
H41 H 0.9806 0.3174 0.6715
H42 H 0.9333 0.3147 0.6611
H43 H 0.9302 0.1702 0.8080
H44 H 0.9774 0.1712 0.8207
La2 La 0.865811(9) 0.24945(2) 0.61064(3)
O14 O 0.90694(11) 0.2388(2) 0.5174(4)
C66 C 0.92863(19) 0.2745(4) 0.4847(7)
H61 H 0.9460 0.2570 0.5008
H62 H 0.9273 0.3151 0.5070
H63 H 0.9273 0.2758 0.4242
O15 O 0.87763(13) 0.1577(3) 0.5298(4)
C67 C 0.8689(2) 0.0953(4) 0.5273(7)
H64 H 0.8700 0.0805 0.4703
H65 H 0.8502 0.0924 0.5470
H66 H 0.8807 0.0714 0.5631
B2 B 0.9014(2) 0.1759(5) 0.4741(8)
C68 C 0.89178(17) 0.1848(3) 0.3789(5)
C69 C 0.90986(18) 0.1969(3) 0.3120(6)
H67 H 0.9288 0.1947 0.3216
C70 C 0.9005(2) 0.2119(4) 0.2318(6)
H68 H 0.9133 0.2196 0.1892
C71 C 0.8727(2) 0.2156(4) 0.2139(6)
H69 H 0.8665 0.2256 0.1600
C72 C 0.85416(19) 0.2040(4) 0.2788(6)
H70 H 0.8353 0.2064 0.2688
C73 C 0.86385(17) 0.1890(3) 0.3587(5)
H71 H 0.8510 0.1812 0.4010
C74 C 0.9267(2) 0.1296(4) 0.4911(6)
C75 C 0.9353(2) 0.0832(4) 0.4363(7)
H72 H 0.9288 0.0837 0.3810
C76 C 0.9530(3) 0.0364(5) 0.4605(9)
H73 H 0.9583 0.0067 0.4218
C77 C 0.9626(3) 0.0345(5) 0.5429(9)
H74 H 0.9747 0.0039 0.5599
C78 C 0.9542(3) 0.0786(5) 0.5999(7)
H75 H 0.9603 0.0774 0.6557
C79 C 0.9365(2) 0.1246(4) 0.5735(6)
H76 H 0.9310 0.1536 0.6129
O16 O 0.85489(12) 0.1633(3) 0.7185(4)
H77 H 0.8682 0.1528 0.7470
C80 C 0.8342(2) 0.1157(5) 0.7200(8)
H78 H 0.8265 0.1125 0.7759
H79 H 0.8425 0.0776 0.7045
H80 H 0.8197 0.1254 0.6806
O17 O 0.88804(11) 0.3541(2) 0.6204(4)
O18 O 0.82049(13) 0.2048(3) 0.5766(5)
O19 O 0.84900(13) 0.3073(3) 0.4904(4)
O20 O 0.83477(12) 0.3113(3) 0.6985(5)
O1_2 O 0.40694(11) 0.2612(2) 0.4826(4)
C1_2 C 0.42863(19) 0.2255(4) 0.5153(7)
H1_2 H 0.4460 0.2430 0.4992
H2_2 H 0.4273 0.1849 0.4930
H3_2 H 0.4273 0.2242 0.5758
O2_2 O 0.37763(13) 0.3423(3) 0.4702(4)
C2_2 C 0.3689(2) 0.4047(4) 0.4727(7)
H4_2 H 0.3700 0.4195 0.5297
H5_2 H 0.3502 0.4076 0.4530
H6_2 H 0.3807 0.4286 0.4369
O3_2 O 0.35489(12) 0.3367(3) 0.2815(4)
H7_2 H 0.3682 0.3472 0.2530
C3_2 C 0.3342(2) 0.3843(5) 0.2800(8)
H8_2 H 0.3265 0.3875 0.2241
H9_2 H 0.3425 0.4224 0.2955
H10_2 H 0.3197 0.3746 0.3194
B1_2 B 0.4014(2) 0.3241(5) 0.5259(8)
O4_2 O 0.40040(11) 0.2599(2) 0.2737(4)
O5_2 O 0.38804(11) 0.1459(2) 0.3796(4)
N1_2 N 0.42790(12) 0.2577(3) 0.2667(4)
C4_2 C 0.44053(14) 0.3001(3) 0.2196(4)
H11_2 H 0.4302 0.3298 0.1920
C5_2 C 0.46877(14) 0.2994(3) 0.2123(5)
H12_2 H 0.4774 0.3288 0.1793
C6_2 C 0.48474(13) 0.2560(3) 0.2529(4)
C7_2 C 0.47072(14) 0.2129(3) 0.3005(5)
H13_2 H 0.4806 0.1826 0.3285
C8_2 C 0.44241(14) 0.2145(3) 0.3067(5)
H14_2 H 0.4333 0.1853 0.3389
N2_2 N 0.38509(14) 0.1002(3) 0.3246(4)
C9_2 C 0.38593(18) 0.0427(3) 0.3534(5)
H15_2 H 0.3890 0.0353 0.4105
C11_2 C 0.37780(18) 0.0043(3) 0.2131(5)
C12_2 C 0.37805(18) 0.0644(3) 0.1855(5)
H17_2 H 0.3756 0.0729 0.1284
C13_2 C 0.38182(17) 0.1115(3) 0.2418(5)
H18_2 H 0.3821 0.1515 0.2223
C29_2 C 0.39178(17) 0.3152(3) 0.6211(5)
C30_2 C 0.40986(18) 0.3031(3) 0.6880(6)
H31_2 H 0.4288 0.3053 0.6784
C31_2 C 0.4005(2) 0.2881(4) 0.7682(6)
H32_2 H 0.4133 0.2804 0.8108
C32_2 C 0.3727(2) 0.2844(4) 0.7861(6)
H33_2 H 0.3665 0.2744 0.8400
C33_2 C 0.35416(19) 0.2960(4) 0.7212(6)
H34_2 H 0.3353 0.2936 0.7312
C34_2 C 0.36385(17) 0.3110(3) 0.6413(5)
H35_2 H 0.3510 0.3188 0.5990
C35_2 C 0.4267(2) 0.3704(4) 0.5089(6)
C36_2 C 0.4353(2) 0.4168(4) 0.5637(7)
H36_2 H 0.4288 0.4163 0.6190
C37_2 C 0.4530(3) 0.4636(5) 0.5395(9)
H37_2 H 0.4583 0.4933 0.5782
C38_2 C 0.4626(3) 0.4655(5) 0.4571(9)
H38_2 H 0.4747 0.4961 0.4401
C39_2 C 0.4542(3) 0.4214(5) 0.4001(7)
H39_2 H 0.4603 0.4226 0.3443
C40_2 C 0.4365(2) 0.3754(4) 0.4265(6)
H40_2 H 0.4310 0.3464 0.3871
C41_2 C 0.51526(13) 0.2560(3) 0.2471(4)
C42_2 C 0.53123(14) 0.2994(3) 0.2877(5)
C43_2 C 0.55947(14) 0.3001(3) 0.2804(4)
N6_2 N 0.57210(12) 0.2577(3) 0.2333(4)
O9_2 O 0.59960(11) 0.2599(2) 0.2263(4)
C44_2 C 0.55759(14) 0.2145(3) 0.1933(5)
C45_2 C 0.52928(14) 0.2129(3) 0.1995(5)
H41_2 H 0.5194 0.1826 0.1715
H42_2 H 0.5667 0.1853 0.1611
H43_2 H 0.5698 0.3298 0.3080
H44_2 H 0.5226 0.3288 0.3207
O11_2 O 0.34900(13) 0.1927(3) 0.5096(4)
C47_2 C 0.38231(18) 0.0050(3) 0.7985(5)
H46_2 H 0.3829 0.0447 0.8193
C51_2 C 0.34820(18) 0.0895(3) 0.5352(5)
H49_2 H 0.3371 0.0841 0.4878
C52_2 C 0.35507(17) 0.0406(3) 0.5851(5)
H50_2 H 0.3485 0.0021 0.5714
C53_2 C 0.37176(16) 0.0479(3) 0.6558(5)
C54_2 C 0.38188(18) 0.1062(3) 0.6716(6)
H51_2 H 0.3938 0.1126 0.7168
C55_2 C 0.37434(17) 0.1541(3) 0.6210(6)
H52_2 H 0.3809 0.1930 0.6327
N8_2 N 0.35762(15) 0.1453(3) 0.5554(5)
La2_2 La 0.634189(9) 0.25055(2) 0.11064(3)
O14_2 O 0.59306(11) 0.2612(2) 0.0174(4)
H61_2 H 0.5540 0.2430 0.0008
H62_2 H 0.5727 0.1849 0.0070
O15_2 O 0.62237(13) 0.3423(3) 0.0298(4)
C67_2 C 0.6311(2) 0.4047(4) 0.0273(7)
H65_2 H 0.6498 0.4076 0.0470
H66_2 H 0.6193 0.4286 0.0631
C77_2 C 0.5374(3) 0.4655(5) 0.0429(9)
H74_2 H 0.5253 0.4961 0.0599
C78_2 C 0.5458(3) 0.4214(5) 0.0999(7)
H75_2 H 0.5397 0.4226 0.1557
C79_2 C 0.5635(2) 0.3754(4) 0.0735(6)
H76_2 H 0.5690 0.3464 0.1129
O16_2 O 0.64511(12) 0.3367(3) 0.2185(4)
H77_2 H 0.6318 0.3472 0.2470
C80_2 C 0.6658(2) 0.3843(5) 0.2200(8)
H78_2 H 0.6735 0.3875 0.2759
H79_2 H 0.6575 0.4224 0.2045
H80_2 H 0.6803 0.3746 0.1806
O17_2 O 0.61196(11) 0.1459(2) 0.1204(4)
O18_2 O 0.67951(13) 0.2952(3) 0.0766(5)
O20_2 O 0.66523(12) 0.1887(3) 0.1985(5)
C66_2 C 0.57137(19) 0.2255(4) 0.9847(7)
H63_2 H 0.5727 0.2242 0.9242
H64_2 H 0.6300 0.4195 0.9703
B2_2 B 0.5986(2) 0.3241(5) 0.9741(8)
C68_2 C 0.60822(17) 0.3152(3) 0.8789(5)
C69_2 C 0.59014(18) 0.3031(3) 0.8120(6)
H67_2 H 0.5712 0.3053 0.8216
C70_2 C 0.5995(2) 0.2881(4) 0.7318(6)
H68_2 H 0.5867 0.2804 0.6892
C71_2 C 0.6273(2) 0.2844(4) 0.7139(6)
H69_2 H 0.6335 0.2744 0.6600
C72_2 C 0.64584(19) 0.2960(4) 0.7788(6)
H70_2 H 0.6647 0.2936 0.7688
C73_2 C 0.63615(17) 0.3110(3) 0.8587(5)
H71_2 H 0.6490 0.3188 0.9010
C74_2 C 0.5733(2) 0.3704(4) 0.9911(6)
C75_2 C 0.5647(2) 0.4168(4) 0.9363(7)
H72_2 H 0.5712 0.4163 0.8810
C76_2 C 0.5470(3) 0.4636(5) 0.9605(9)
H73_2 H 0.5417 0.4933 0.9218
O19_2 O 0.65100(13) 0.1927(3) 0.9904(4)
O7_2 O 0.34900(13) 0.8073(3) 0.0096(4)
C10_2 C 0.38231(18) 0.9950(3) 0.2985(5)
H16_2 H 0.3829 0.9553 0.3193
C14_2 C 0.34820(18) 0.9105(3) 0.0352(5)
C15_2 C 0.35507(17) 0.9594(3) 0.0851(5)
H20_2 H 0.3485 0.9979 0.0714
C16_2 C 0.37176(16) 0.9521(3) 0.1558(5)
C17_2 C 0.38188(18) 0.8938(3) 0.1716(6)
H21_2 H 0.3938 0.8874 0.2168
C18_2 C 0.37434(17) 0.8459(3) 0.1210(6)
H22_2 H 0.3809 0.8070 0.1327
N4_2 N 0.35762(15) 0.8547(3) 0.0554(5)
O10_2 O 0.38804(11) 0.8541(2) 0.8796(4)
N7_2 N 0.38509(14) 0.8998(3) 0.8246(4)
C46_2 C 0.38593(18) 0.9573(3) 0.8534(5)
H45_2 H 0.3890 0.9647 0.9105
C48_2 C 0.37780(18) 0.9957(3) 0.7131(5)
C49_2 C 0.37805(18) 0.9356(3) 0.6855(5)
H47_2 H 0.3756 0.9271 0.6284
C50_2 C 0.38182(17) 0.8885(3) 0.7418(5)
H48_2 H 0.3821 0.8485 0.7223
La3_2 La 0.365811(9) 0.74945(2) 0.88936(3)
H19_2 H 0.3371 0.9159 0.9878
H19_3 H 0.8371 0.5841 0.0122
N9_2 N 0.69838(15) 0.2957(3) 0.0148(6)
H56_2 H 0.7037 0.2074 0.0114
La5 La 0.865811(9) 0.75055(2) 0.11064(3)
O7_3 O 0.84900(13) 0.6927(3) 0.9904(4)
N2_3 N 0.88509(14) 0.3998(3) 0.6754(4)
C9_3 C 0.88593(18) 0.4573(3) 0.6466(5)
H15_3 H 0.8890 0.4647 0.5895
C10_3 C 0.88231(18) 0.5050(3) 0.7015(5)
H16_3 H 0.8829 0.5447 0.6807
C11_3 C 0.87780(18) 0.4957(3) 0.7869(5)
C12_3 C 0.87805(18) 0.4356(3) 0.8145(5)
H17_3 H 0.8756 0.4271 0.8716
C13_3 C 0.88182(17) 0.3885(3) 0.7582(5)
H18_3 H 0.8821 0.3485 0.7777
N3_2 N 0.80162(15) 0.2043(3) 0.5148(6)
C14_3 C 0.84820(18) 0.5895(3) 0.9648(5)
C15_3 C 0.85507(17) 0.5406(3) 0.9149(5)
H20_3 H 0.8485 0.5021 0.9286
C16_3 C 0.87176(16) 0.5479(3) 0.8442(5)
C17_3 C 0.88188(18) 0.6062(3) 0.8284(6)
H21_3 H 0.8938 0.6126 0.7832
C18_3 C 0.87434(17) 0.6541(3) 0.8790(6)
H22_3 H 0.8809 0.6930 0.8673
N4_3 N 0.85762(15) 0.6453(3) 0.9446(5)
C19_2 C 0.7951(3) 0.1511(4) 0.4771(9)
H23_2 H 0.8043 0.1156 0.4924
C20_2 C 0.7749(2) 0.1491(4) 0.4162(8)
H24_2 H 0.7712 0.1126 0.3887
C21_2 C 0.76006(18) 0.2009(3) 0.3953(7)
C22_2 C 0.76926(16) 0.2550(3) 0.4307(6)
H25_2 H 0.7611 0.2915 0.4144
C23_2 C 0.79015(17) 0.2557(4) 0.4894(6)
H26_2 H 0.7963 0.2926 0.5114
N5_2 N 0.68869(14) 0.1935(3) 0.2420(5)
C24_2 C 0.69131(15) 0.2369(3) 0.3012(5)
H27_2 H 0.6773 0.2654 0.3088
C25_2 C 0.71461(15) 0.2393(3) 0.3503(5)
H28_2 H 0.7160 0.2688 0.3923
C26_2 C 0.73608(15) 0.1985(3) 0.3382(6)
C27_2 C 0.73297(17) 0.1562(4) 0.2735(6)
H29_2 H 0.7472 0.1291 0.2619
C28_2 C 0.70912(16) 0.1539(4) 0.2266(6)
H30_2 H 0.7072 0.1249 0.1842
O10_3 O 0.88804(11) 0.6459(2) 0.1204(4)
N7_3 N 0.88509(14) 0.6002(3) 0.1754(4)
C46_3 C 0.88593(18) 0.5427(3) 0.1466(5)
H45_3 H 0.8890 0.5353 0.0895
C47_3 C 0.88231(18) 0.4950(3) 0.2015(5)
H46_3 H 0.8829 0.4553 0.1807
C48_3 C 0.87780(18) 0.5043(3) 0.2869(5)
C49_3 C 0.87805(18) 0.5644(3) 0.3145(5)
H47_3 H 0.8756 0.5729 0.3716
C50_3 C 0.88182(17) 0.6115(3) 0.2582(5)
H48_3 H 0.8821 0.6515 0.2777
C51_3 C 0.84820(18) 0.4105(3) 0.4648(5)
H49_3 H 0.8371 0.4159 0.5122
C52_3 C 0.85507(17) 0.4594(3) 0.4149(5)
H50_3 H 0.8485 0.4979 0.4286
C53_3 C 0.87176(16) 0.4521(3) 0.3442(5)
C54_3 C 0.88188(18) 0.3938(3) 0.3284(6)
H51_3 H 0.8938 0.3874 0.2832
C55_3 C 0.87434(17) 0.3459(3) 0.3790(6)
H52_3 H 0.8809 0.3070 0.3673
N8_3 N 0.85762(15) 0.3547(3) 0.4446(5)
C56_2 C 0.7049(3) 0.3489(4) 0.9771(9)
H53_2 H 0.6957 0.3844 0.9924
C57_2 C 0.7251(2) 0.3509(4) 0.9162(8)
H54_2 H 0.7288 0.3874 0.8887
C58_2 C 0.73994(18) 0.2991(3) 0.8953(7)
C59_2 C 0.73074(16) 0.2450(3) 0.9307(6)
H55_2 H 0.7389 0.2085 0.9144
C60_2 C 0.70985(17) 0.2443(4) 0.9894(6)
N10_2 N 0.81131(14) 0.3065(3) 0.7420(5)
C61_2 C 0.80869(15) 0.2631(3) 0.8012(5)
H57_2 H 0.8227 0.2346 0.8088
C62_2 C 0.78539(15) 0.2607(3) 0.8503(5)
H58_2 H 0.7840 0.2312 0.8923
C63_2 C 0.76392(15) 0.3015(3) 0.8382(6)
C64_2 C 0.76703(17) 0.3438(4) 0.7735(6)
H59_2 H 0.7528 0.3709 0.7619
C65_2 C 0.79088(16) 0.3461(4) 0.7266(6)
H60_2 H 0.7928 0.3751 0.6842
N2_4 N 0.61491(14) 0.1002(3) 0.1754(4)
C9_4 C 0.61407(18) 0.0427(3) 0.1466(5)
H15_4 H 0.6110 0.0353 0.0895
C11_4 C 0.62220(18) 0.0043(3) 0.2869(5)
C12_4 C 0.62195(18) 0.0644(3) 0.3145(5)
H17_4 H 0.6244 0.0729 0.3716
C13_4 C 0.61818(17) 0.1115(3) 0.2582(5)
H18_4 H 0.6179 0.1515 0.2777
H49_4 H 0.6629 0.0841 0.0122
C47_4 C 0.61769(18) 0.0050(3) 0.7015(5)
H46_4 H 0.6171 0.0447 0.6807
C51_4 C 0.65180(18) 0.0895(3) 0.9648(5)
C52_4 C 0.64493(17) 0.0406(3) 0.9149(5)
H50_4 H 0.6515 0.0021 0.9286
C53_4 C 0.62824(16) 0.0479(3) 0.8442(5)
C54_4 C 0.61812(18) 0.1062(3) 0.8284(6)
H51_4 H 0.6062 0.1126 0.7832
C55_4 C 0.62566(17) 0.1541(3) 0.8790(6)
H52_4 H 0.6191 0.1930 0.8673
N8_4 N 0.64238(15) 0.1453(3) 0.9446(5)
O7_4 O 0.65100(13) 0.8073(3) 0.4904(4)
C10_4 C 0.61769(18) 0.9950(3) 0.2015(5)
H16_4 H 0.6171 0.9553 0.1807
C14_4 C 0.65180(18) 0.9105(3) 0.4648(5)
H19_4 H 0.6629 0.9159 0.5122
C15_4 C 0.64493(17) 0.9594(3) 0.4149(5)
H20_4 H 0.6515 0.9979 0.4286
C16_4 C 0.62824(16) 0.9521(3) 0.3442(5)
C17_4 C 0.61812(18) 0.8938(3) 0.3284(6)
H21_4 H 0.6062 0.8874 0.2832
C18_4 C 0.62566(17) 0.8459(3) 0.3790(6)
H22_4 H 0.6191 0.8070 0.3673
N4_4 N 0.64238(15) 0.8547(3) 0.4446(5)
La5_2 La 0.634189(9) 0.74945(2) 0.61064(3)
O10_4 O 0.61196(11) 0.8541(2) 0.6204(4)
N7_4 N 0.61491(14) 0.8998(3) 0.6754(4)
C46_4 C 0.61407(18) 0.9573(3) 0.6466(5)
H45_4 H 0.6110 0.9647 0.5895
C48_4 C 0.62220(18) 0.9957(3) 0.7869(5)
C49_4 C 0.62195(18) 0.9356(3) 0.8145(5)
H47_4 H 0.6244 0.9271 0.8716
C50_4 C 0.61818(17) 0.8885(3) 0.7582(5)
H48_4 H 0.6179 0.8485 0.7777
C41_3 C 0.01526(13) 0.7560(3) 0.2529(4)
C42_3 C 0.03123(14) 0.7994(3) 0.2123(5)
C43_3 C 0.05947(14) 0.8001(3) 0.2196(4)
N6_3 N 0.07210(12) 0.7577(3) 0.2667(4)
O9_3 O 0.09960(11) 0.7599(2) 0.2737(4)
C44_3 C 0.05759(14) 0.7145(3) 0.3067(5)
C45_3 C 0.02928(14) 0.7129(3) 0.3005(5)
H41_3 H 0.0194 0.6826 0.3285
H42_3 H 0.0667 0.6853 0.3389
H43_3 H 0.0698 0.8298 0.1920
H44_3 H 0.0226 0.8288 0.1793
O14_3 O 0.09306(11) 0.7612(2) 0.4826(4)
C66_3 C 0.07137(19) 0.7255(4) 0.5153(7)
H61_3 H 0.0540 0.7430 0.4992
H62_3 H 0.0727 0.6849 0.4930
H63_3 H 0.0727 0.7242 0.5758
O15_3 O 0.12237(13) 0.8423(3) 0.4702(4)
C67_3 C 0.1311(2) 0.9047(4) 0.4727(7)
H64_3 H 0.1300 0.9195 0.5297
H65_3 H 0.1498 0.9076 0.4530
H66_3 H 0.1193 0.9286 0.4369
B2_3 B 0.0986(2) 0.8241(5) 0.5259(8)
C68_3 C 0.10822(17) 0.8152(3) 0.6211(5)
C69_3 C 0.09014(18) 0.8031(3) 0.6880(6)
H67_3 H 0.0712 0.8053 0.6784
C70_3 C 0.0995(2) 0.7881(4) 0.7682(6)
H68_3 H 0.0867 0.7804 0.8108
C71_3 C 0.1273(2) 0.7844(4) 0.7861(6)
H69_3 H 0.1335 0.7744 0.8400
C72_3 C 0.14584(19) 0.7960(4) 0.7212(6)
H70_3 H 0.1647 0.7936 0.7312
C73_3 C 0.13615(17) 0.8110(3) 0.6413(5)
H71_3 H 0.1490 0.8188 0.5990
C74_3 C 0.0733(2) 0.8704(4) 0.5089(6)
C75_3 C 0.0647(2) 0.9168(4) 0.5637(7)
H72_3 H 0.0712 0.9163 0.6190
C76_3 C 0.0470(3) 0.9636(5) 0.5395(9)
H73_3 H 0.0417 0.9933 0.5782
C77_3 C 0.0374(3) 0.9655(5) 0.4571(9)
H74_3 H 0.0253 0.9961 0.4401
C78_3 C 0.0458(3) 0.9214(5) 0.4001(7)
H75_3 H 0.0397 0.9226 0.3443
C79_3 C 0.0635(2) 0.8754(4) 0.4265(6)
H76_3 H 0.0690 0.8464 0.3871
O16_3 O 0.14511(12) 0.8367(3) 0.2815(4)
H77_3 H 0.1318 0.8472 0.2530
C80_3 C 0.1658(2) 0.8843(5) 0.2800(8)
H78_3 H 0.1735 0.8875 0.2241
H79_3 H 0.1575 0.9224 0.2955
H80_3 H 0.1803 0.8746 0.3194
O18_3 O 0.17951(13) 0.7952(3) 0.4234(5)
O20_3 O 0.16523(12) 0.6887(3) 0.3015(5)
O1_3 O 0.90694(11) 0.7612(2) 0.0174(4)
H1_3 H 0.9460 0.7430 0.0008
H2_3 H 0.9273 0.6849 0.0070
O2_3 O 0.87763(13) 0.8423(3) 0.0298(4)
C2_3 C 0.8689(2) 0.9047(4) 0.0273(7)
H5_3 H 0.8502 0.9076 0.0470
H6_3 H 0.8807 0.9286 0.0631
O3_3 O 0.85489(12) 0.8367(3) 0.2185(4)
H7_3 H 0.8682 0.8472 0.2470
C3_3 C 0.8342(2) 0.8843(5) 0.2200(8)
H8_3 H 0.8265 0.8875 0.2759
H9_3 H 0.8425 0.9224 0.2045
H10_3 H 0.8197 0.8746 0.1806
O4_3 O 0.90040(11) 0.7599(2) 0.2263(4)
O6_2 O 0.82049(13) 0.7952(3) 0.0766(5)
N1_3 N 0.92790(12) 0.7577(3) 0.2333(4)
C4_3 C 0.94053(14) 0.8001(3) 0.2804(4)
H11_3 H 0.9302 0.8298 0.3080
C5_3 C 0.96877(14) 0.7994(3) 0.2877(5)
H12_3 H 0.9774 0.8288 0.3207
C6_3 C 0.98474(13) 0.7560(3) 0.2471(4)
C7_3 C 0.97072(14) 0.7129(3) 0.1995(5)
H13_3 H 0.9806 0.6826 0.1715
C8_3 C 0.94241(14) 0.7145(3) 0.1933(5)
H14_3 H 0.9333 0.6853 0.1611
N3_3 N 0.80162(15) 0.7957(3) 0.0148(6)
H26_3 H 0.7963 0.7074 0.0114
C38_3 C 0.9626(3) 0.9655(5) 0.0429(9)
H38_3 H 0.9747 0.9961 0.0599
C39_3 C 0.9542(3) 0.9214(5) 0.0999(7)
H39_3 H 0.9603 0.9226 0.1557
C40_3 C 0.9365(2) 0.8754(4) 0.0735(6)
H40_3 H 0.9310 0.8464 0.1129
O12_2 O 0.67951(13) 0.7048(3) 0.5766(5)
O13_2 O 0.83477(12) 0.6887(3) 0.1985(5)
N9_3 N 0.69838(15) 0.7043(3) 0.5148(6)
C56_3 C 0.7049(3) 0.6511(4) 0.4771(9)
H53_3 H 0.6957 0.6156 0.4924
C57_3 C 0.7251(2) 0.6491(4) 0.4162(8)
H54_3 H 0.7288 0.6126 0.3887
C58_3 C 0.73994(18) 0.7009(3) 0.3953(7)
C59_3 C 0.73074(16) 0.7550(3) 0.4307(6)
H55_3 H 0.7389 0.7915 0.4144
C60_3 C 0.70985(17) 0.7557(4) 0.4894(6)
H56_3 H 0.7037 0.7926 0.5114
N10_3 N 0.81131(14) 0.6935(3) 0.2420(5)
C61_3 C 0.80869(15) 0.7369(3) 0.3012(5)
H57_3 H 0.8227 0.7654 0.3088
C62_3 C 0.78539(15) 0.7393(3) 0.3503(5)
H58_3 H 0.7840 0.7688 0.3923
C63_3 C 0.76392(15) 0.6985(3) 0.3382(6)
C64_3 C 0.76703(17) 0.6562(4) 0.2735(6)
H59_3 H 0.7528 0.6291 0.2619
C65_3 C 0.79088(16) 0.6539(4) 0.2266(6)
H60_3 H 0.7928 0.6249 0.1842
C1_3 C 0.92863(19) 0.7255(4) 0.9847(7)
H3_3 H 0.9273 0.7242 0.9242
H4_3 H 0.8700 0.9195 0.9703
B1_3 B 0.9014(2) 0.8241(5) 0.9741(8)
O8_2 O 0.66523(12) 0.8113(3) 0.6985(5)
C19_3 C 0.7951(3) 0.8489(4) 0.9771(9)
H23_3 H 0.8043 0.8844 0.9924
C20_3 C 0.7749(2) 0.8509(4) 0.9162(8)
H24_3 H 0.7712 0.8874 0.8887
C21_3 C 0.76006(18) 0.7991(3) 0.8953(7)
C22_3 C 0.76926(16) 0.7450(3) 0.9307(6)
H25_3 H 0.7611 0.7085 0.9144
C23_3 C 0.79015(17) 0.7443(4) 0.9894(6)
N5_3 N 0.68869(14) 0.8065(3) 0.7420(5)
C24_3 C 0.69131(15) 0.7631(3) 0.8012(5)
H27_3 H 0.6773 0.7346 0.8088
C25_3 C 0.71461(15) 0.7607(3) 0.8503(5)
H28_3 H 0.7160 0.7312 0.8923
C26_3 C 0.73608(15) 0.8015(3) 0.8382(6)
C27_3 C 0.73297(17) 0.8438(4) 0.7735(6)
H29_3 H 0.7472 0.8709 0.7619
C28_3 C 0.70912(16) 0.8461(4) 0.7266(6)
H30_3 H 0.7072 0.8751 0.6842
C29_3 C 0.89178(17) 0.8152(3) 0.8789(5)
C30_3 C 0.90986(18) 0.8031(3) 0.8120(6)
H31_3 H 0.9288 0.8053 0.8216
C31_3 C 0.9005(2) 0.7881(4) 0.7318(6)
H32_3 H 0.9133 0.7804 0.6892
C32_3 C 0.8727(2) 0.7844(4) 0.7139(6)
H33_3 H 0.8665 0.7744 0.6600
C33_3 C 0.85416(19) 0.7960(4) 0.7788(6)
H34_3 H 0.8353 0.7936 0.7688
C34_3 C 0.86385(17) 0.8110(3) 0.8587(5)
H35_3 H 0.8510 0.8188 0.9010
C35_3 C 0.9267(2) 0.8704(4) 0.9911(6)
C36_3 C 0.9353(2) 0.9168(4) 0.9363(7)
H36_3 H 0.9288 0.9163 0.8810
C37_3 C 0.9530(3) 0.9636(5) 0.9605(9)
H37_3 H 0.9583 0.9933 0.9218
C66_4 C 0.42863(19) 0.7745(4) 0.0153(7)
H63_4 H 0.4273 0.7758 0.0758
H64_4 H 0.3700 0.5805 0.0297
B2_4 B 0.4014(2) 0.6759(5) 0.0259(8)
C68_4 C 0.39178(17) 0.6848(3) 0.1211(5)
C69_4 C 0.40986(18) 0.6969(3) 0.1880(6)
H67_4 H 0.4288 0.6947 0.1784
C70_4 C 0.4005(2) 0.7119(4) 0.2682(6)
H68_4 H 0.4133 0.7196 0.3108
C71_4 C 0.3727(2) 0.7156(4) 0.2861(6)
H69_4 H 0.3665 0.7256 0.3400
C72_4 C 0.35416(19) 0.7040(4) 0.2212(6)
H70_4 H 0.3353 0.7064 0.2312
C73_4 C 0.36385(17) 0.6890(3) 0.1413(5)
H71_4 H 0.3510 0.6812 0.0990
C74_4 C 0.4267(2) 0.6296(4) 0.0089(6)
C75_4 C 0.4353(2) 0.5832(4) 0.0637(7)
H72_4 H 0.4288 0.5837 0.1190
C76_4 C 0.4530(3) 0.5364(5) 0.0395(9)
H73_4 H 0.4583 0.5067 0.0782
O1_4 O 0.59306(11) 0.7388(2) 0.5174(4)
C1_4 C 0.57137(19) 0.7745(4) 0.4847(7)
H1_4 H 0.5540 0.7570 0.5008
H2_4 H 0.5727 0.8151 0.5070
H3_4 H 0.5727 0.7758 0.4242
O2_4 O 0.62237(13) 0.6577(3) 0.5298(4)
C2_4 C 0.6311(2) 0.5953(4) 0.5273(7)
H4_4 H 0.6300 0.5805 0.4703
H5_4 H 0.6498 0.5924 0.5470
H6_4 H 0.6193 0.5714 0.5631
O3_4 O 0.64511(12) 0.6633(3) 0.7185(4)
H7_4 H 0.6318 0.6528 0.7470
C3_4 C 0.6658(2) 0.6157(5) 0.7200(8)
H8_4 H 0.6735 0.6125 0.7759
H9_4 H 0.6575 0.5776 0.7045
H10_4 H 0.6803 0.6254 0.6806
B1_4 B 0.5986(2) 0.6759(5) 0.4741(8)
O4_4 O 0.59960(11) 0.7401(2) 0.7263(4)
N1_4 N 0.57210(12) 0.7423(3) 0.7333(4)
C4_4 C 0.55947(14) 0.6999(3) 0.7804(4)
H11_4 H 0.5698 0.6702 0.8080
C5_4 C 0.53123(14) 0.7006(3) 0.7877(5)
H12_4 H 0.5226 0.6712 0.8207
C6_4 C 0.51526(13) 0.7440(3) 0.7471(4)
C7_4 C 0.52928(14) 0.7871(3) 0.6995(5)
H13_4 H 0.5194 0.8174 0.6715
C8_4 C 0.55759(14) 0.7855(3) 0.6933(5)
H14_4 H 0.5667 0.8147 0.6611
C29_4 C 0.60822(17) 0.6848(3) 0.3789(5)
C30_4 C 0.59014(18) 0.6969(3) 0.3120(6)
H31_4 H 0.5712 0.6947 0.3216
C31_4 C 0.5995(2) 0.7119(4) 0.2318(6)
H32_4 H 0.5867 0.7196 0.1892
C32_4 C 0.6273(2) 0.7156(4) 0.2139(6)
H33_4 H 0.6335 0.7256 0.1600
C33_4 C 0.64584(19) 0.7040(4) 0.2788(6)
H34_4 H 0.6647 0.7064 0.2688
C34_4 C 0.63615(17) 0.6890(3) 0.3587(5)
H35_4 H 0.6490 0.6812 0.4010
C35_4 C 0.5733(2) 0.6296(4) 0.4911(6)
C36_4 C 0.5647(2) 0.5832(4) 0.4363(7)
H36_4 H 0.5712 0.5837 0.3810
C37_4 C 0.5470(3) 0.5364(5) 0.4605(9)
H37_4 H 0.5417 0.5067 0.4218
C38_4 C 0.5374(3) 0.5345(5) 0.5429(9)
H38_4 H 0.5253 0.5039 0.5599
C39_4 C 0.5458(3) 0.5786(5) 0.5999(7)
H39_4 H 0.5397 0.5774 0.6557
C40_4 C 0.5635(2) 0.6246(4) 0.5735(6)
H40_4 H 0.5690 0.6536 0.6129
C41_4 C 0.48474(13) 0.7440(3) 0.7529(4)
C42_4 C 0.46877(14) 0.7006(3) 0.7123(5)
C43_4 C 0.44053(14) 0.6999(3) 0.7196(4)
N6_4 N 0.42790(12) 0.7423(3) 0.7667(4)
O9_4 O 0.40040(11) 0.7401(2) 0.7737(4)
C44_4 C 0.44241(14) 0.7855(3) 0.8067(5)
C45_4 C 0.47072(14) 0.7871(3) 0.8005(5)
H41_4 H 0.4806 0.8174 0.8285
H42_4 H 0.4333 0.8147 0.8389
H43_4 H 0.4302 0.6702 0.6920
H44_4 H 0.4774 0.6712 0.6793
O14_4 O 0.40694(11) 0.7388(2) 0.9826(4)
H61_4 H 0.4460 0.7570 0.9992
H62_4 H 0.4273 0.8151 0.9930
O15_4 O 0.37763(13) 0.6577(3) 0.9702(4)
C67_4 C 0.3689(2) 0.5953(4) 0.9727(7)
H65_4 H 0.3502 0.5924 0.9530
H66_4 H 0.3807 0.5714 0.9369
C77_4 C 0.4626(3) 0.5345(5) 0.9571(9)
H74_4 H 0.4747 0.5039 0.9401
C78_4 C 0.4542(3) 0.5786(5) 0.9001(7)
H75_4 H 0.4603 0.5774 0.8443
C79_4 C 0.4365(2) 0.6246(4) 0.9265(6)
H76_4 H 0.4310 0.6536 0.8871
O16_4 O 0.35489(12) 0.6633(3) 0.7815(4)
H77_4 H 0.3682 0.6528 0.7530
C80_4 C 0.3342(2) 0.6157(5) 0.7800(8)
H78_4 H 0.3265 0.6125 0.7241
H79_4 H 0.3425 0.5776 0.7955
H80_4 H 0.3197 0.6254 0.8194
O18_4 O 0.32049(13) 0.7048(3) 0.9234(5)
O20_4 O 0.33477(12) 0.8113(3) 0.8015(5)
N3_4 N 0.19838(15) 0.7957(3) 0.4852(6)
C19_4 C 0.2049(3) 0.8489(4) 0.5229(9)
H23_4 H 0.1957 0.8844 0.5076
C20_4 C 0.2251(2) 0.8509(4) 0.5838(8)
H24_4 H 0.2288 0.8874 0.6113
C21_4 C 0.23994(18) 0.7991(3) 0.6047(7)
C22_4 C 0.23074(16) 0.7450(3) 0.5693(6)
H25_4 H 0.2389 0.7085 0.5856
C23_4 C 0.20985(17) 0.7443(4) 0.5106(6)
H26_4 H 0.2037 0.7074 0.4886
N5_4 N 0.31131(14) 0.8065(3) 0.7580(5)
C24_4 C 0.30869(15) 0.7631(3) 0.6988(5)
H27_4 H 0.3227 0.7346 0.6912
C25_4 C 0.28539(15) 0.7607(3) 0.6497(5)
H28_4 H 0.2840 0.7312 0.6077
C26_4 C 0.26392(15) 0.8015(3) 0.6618(6)
C27_4 C 0.26703(17) 0.8438(4) 0.7265(6)
H29_4 H 0.2528 0.8709 0.7381
C28_4 C 0.29088(16) 0.8461(4) 0.7734(6)
H30_4 H 0.2928 0.8751 0.8158
C56_4 C 0.2951(3) 0.6511(4) 0.0229(9)
H53_4 H 0.3043 0.6156 0.0076
C57_4 C 0.2749(2) 0.6491(4) 0.0838(8)
H54_4 H 0.2712 0.6126 0.1113
C58_4 C 0.26006(18) 0.7009(3) 0.1047(7)
C59_4 C 0.26926(16) 0.7550(3) 0.0693(6)
H55_4 H 0.2611 0.7915 0.0856
C60_4 C 0.29015(17) 0.7557(4) 0.0106(6)
N10_4 N 0.18869(14) 0.6935(3) 0.2580(5)
C61_4 C 0.19131(15) 0.7369(3) 0.1988(5)
H57_4 H 0.1773 0.7654 0.1912
C62_4 C 0.21461(15) 0.7393(3) 0.1497(5)
H58_4 H 0.2160 0.7688 0.1077
C63_4 C 0.23608(15) 0.6985(3) 0.1618(6)
C64_4 C 0.23297(17) 0.6562(4) 0.2265(6)
H59_4 H 0.2472 0.6291 0.2381
C65_4 C 0.20912(16) 0.6539(4) 0.2734(6)
H60_4 H 0.2072 0.6249 0.3158
N9_4 N 0.30162(15) 0.7043(3) 0.9852(6)
H56_4 H 0.2963 0.7926 0.9886
B3 B 0.0566(2) 0.3186(5) 0.4622(8)
C81 C 0.04990(19) 0.3411(4) 0.3654(5)
C82 C 0.0537(2) 0.4015(4) 0.3406(6)
H81 H 0.0605 0.4289 0.3803
C83 C 0.0480(2) 0.4228(4) 0.2600(6)
H82 H 0.0505 0.4639 0.2476
C84 C 0.0387(2) 0.3836(5) 0.1983(6)
H83 H 0.0352 0.3973 0.1437
C85 C 0.0348(2) 0.3232(5) 0.2196(6)
H84 H 0.0284 0.2958 0.1792
C86 C 0.0405(2) 0.3030(4) 0.3009(6)
H85 H 0.0379 0.2620 0.3130
C87 C 0.04333(14) 0.2490(3) 0.4767(6)
C88 C 0.05898(16) 0.1958(3) 0.4727(7)
H86 H 0.0778 0.1991 0.4618
C89 C 0.04788(18) 0.1381(3) 0.4843(9)
H87 H 0.0593 0.1041 0.4842
C90 C 0.01972(17) 0.1312(4) 0.4960(9)
H88 H 0.0120 0.0927 0.5024
C91 C 0.00343(17) 0.1826(3) 0.4980(9)
C92 C 0.01512(15) 0.2398(3) 0.4884(8)
H90 H 0.0036 0.2737 0.4897
C93 C 0.04032(16) 0.3647(4) 0.5285(5)
C94 C 0.04845(17) 0.3756(4) 0.6115(5)
H91 H 0.0644 0.3568 0.6311
C95 C 0.0339(2) 0.4129(4) 0.6665(6)
H92 H 0.0404 0.4188 0.7213
C96 C 0.00999(19) 0.4414(4) 0.6401(6)
H93 H 0.0003 0.4670 0.6762
C97 C 0.00082(19) 0.4307(5) 0.5590(7)
C98 C 0.01564(17) 0.3930(4) 0.5052(6)
H95 H 0.0088 0.3863 0.4511
C99 C 0.08962(14) 0.3166(4) 0.4809(5)
C100 C 0.10065(14) 0.2892(4) 0.5533(5)
H96 H 0.0885 0.2724 0.5923
C101 C 0.12854(14) 0.2858(4) 0.5699(6)
H97 H 0.1347 0.2650 0.6176
C102 C 0.14748(16) 0.3130(4) 0.5163(6)
H98 H 0.1663 0.3131 0.5287
C103 C 0.13751(16) 0.3400(4) 0.4438(6)
H99 H 0.1498 0.3571 0.4052
C104 C 0.10940(15) 0.3420(4) 0.4276(5)
H100 H 0.1034 0.3614 0.3786
H89 H 0.9845 0.1789 0.5060
H94 H 0.9846 0.4489 0.5401
H88_2 H 0.4880 0.4073 0.0024
H89_2 H 0.5155 0.3211 0.0060
C93_2 C 0.45968(16) 0.1353(4) 0.0285(5)
C94_2 C 0.45155(17) 0.1244(4) 0.1115(5)
H91_2 H 0.4356 0.1432 0.1311
C95_2 C 0.4661(2) 0.0871(4) 0.1665(6)
H92_2 H 0.4596 0.0812 0.2213
C96_2 C 0.49001(19) 0.0586(4) 0.1401(6)
H93_2 H 0.4997 0.0330 0.1762
C97_2 C 0.49918(19) 0.0693(5) 0.0590(7)
H94_2 H 0.5154 0.0511 0.0401
C98_2 C 0.48436(17) 0.1070(4) 0.0052(6)
C100_2 C 0.39935(14) 0.2108(4) 0.0533(5)
H96_2 H 0.4115 0.2276 0.0923
C101_2 C 0.37146(14) 0.2142(4) 0.0699(6)
H97_2 H 0.3653 0.2350 0.1176
C102_2 C 0.35252(16) 0.1870(4) 0.0163(6)
H98_2 H 0.3337 0.1869 0.0287
B3_2 B 0.4434(2) 0.1814(5) 0.9622(8)
C81_2 C 0.45010(19) 0.1589(4) 0.8654(5)
C82_2 C 0.4463(2) 0.0985(4) 0.8406(6)
H81_2 H 0.4395 0.0711 0.8803
C83_2 C 0.4520(2) 0.0772(4) 0.7600(6)
H82_2 H 0.4495 0.0361 0.7476
C84_2 C 0.4613(2) 0.1164(5) 0.6983(6)
H83_2 H 0.4648 0.1027 0.6437
C85_2 C 0.4652(2) 0.1768(5) 0.7196(6)
H84_2 H 0.4716 0.2042 0.6792
C86_2 C 0.4595(2) 0.1970(4) 0.8009(6)
H85_2 H 0.4621 0.2380 0.8130
C87_2 C 0.45667(14) 0.2510(3) 0.9767(6)
C88_2 C 0.44102(16) 0.3042(3) 0.9727(7)
H86_2 H 0.4222 0.3009 0.9618
C89_2 C 0.45212(18) 0.3619(3) 0.9843(9)
H87_2 H 0.4407 0.3959 0.9842
C90_2 C 0.48028(17) 0.3688(4) 0.9960(9)
C91_2 C 0.49657(17) 0.3174(3) 0.9980(9)
C92_2 C 0.48488(15) 0.2602(3) 0.9884(8)
H90_2 H 0.4964 0.2263 0.9897
H95_2 H 0.4912 0.1137 0.9511
C99_2 C 0.41038(14) 0.1834(4) 0.9809(5)
C103_2 C 0.36249(16) 0.1600(4) 0.9438(6)
H99_2 H 0.3502 0.1429 0.9052
C104_2 C 0.39060(15) 0.1580(4) 0.9276(5)
H100_2 H 0.3966 0.1386 0.8786
H89_3 H 0.0155 0.1789 0.9940
H94_3 H 0.0154 0.4489 0.9599
B3_3 B 0.9434(2) 0.3186(5) 0.0378(8)
C81_3 C 0.95010(19) 0.3411(4) 0.1346(5)
C82_3 C 0.9463(2) 0.4015(4) 0.1594(6)
H81_3 H 0.9395 0.4289 0.1197
C83_3 C 0.9520(2) 0.4228(4) 0.2400(6)
H82_3 H 0.9495 0.4639 0.2524
C84_3 C 0.9613(2) 0.3836(5) 0.3017(6)
H83_3 H 0.9648 0.3973 0.3563
C85_3 C 0.9652(2) 0.3232(5) 0.2804(6)
H84_3 H 0.9716 0.2958 0.3208
C86_3 C 0.9595(2) 0.3030(4) 0.1991(6)
H85_3 H 0.9621 0.2620 0.1870
C87_3 C 0.95667(14) 0.2490(3) 0.0233(6)
C88_3 C 0.94102(16) 0.1958(3) 0.0273(7)
H86_3 H 0.9222 0.1991 0.0382
C89_3 C 0.95212(18) 0.1381(3) 0.0157(9)
H87_3 H 0.9407 0.1041 0.0158
C90_3 C 0.98028(17) 0.1312(4) 0.0040(9)
C91_3 C 0.99657(17) 0.1826(3) 0.0020(9)
C92_3 C 0.98488(15) 0.2398(3) 0.0116(8)
H90_3 H 0.9964 0.2737 0.0103
H95_3 H 0.9912 0.3863 0.0489
C99_3 C 0.91038(14) 0.3166(4) 0.0191(5)
C103_3 C 0.86249(16) 0.3400(4) 0.0562(6)
H99_3 H 0.8502 0.3571 0.0948
C104_3 C 0.89060(15) 0.3420(4) 0.0724(5)
H100_3 H 0.8966 0.3614 0.1214
H88_3 H 0.9880 0.0927 0.9976
C93_3 C 0.95968(16) 0.3647(4) 0.9715(5)
C94_3 C 0.95155(17) 0.3756(4) 0.8885(5)
H91_3 H 0.9356 0.3568 0.8689
C95_3 C 0.9661(2) 0.4129(4) 0.8335(6)
H92_3 H 0.9596 0.4188 0.7787
C96_3 C 0.99001(19) 0.4414(4) 0.8599(6)
H93_3 H 0.9997 0.4670 0.8238
C97_3 C 0.99918(19) 0.4307(5) 0.9410(7)
C98_3 C 0.98436(17) 0.3930(4) 0.9948(6)
C100_3 C 0.89935(14) 0.2892(4) 0.9467(5)
H96_3 H 0.9115 0.2724 0.9077
C101_3 C 0.87146(14) 0.2858(4) 0.9301(6)
H97_3 H 0.8653 0.2650 0.8824
C102_3 C 0.85252(16) 0.3130(4) 0.9837(6)
H98_3 H 0.8337 0.3131 0.9713
B3_4 B 0.5566(2) 0.1814(5) 0.5378(8)
C81_4 C 0.54990(19) 0.1589(4) 0.6346(5)
C82_4 C 0.5537(2) 0.0985(4) 0.6594(6)
H81_4 H 0.5605 0.0711 0.6197
C83_4 C 0.5480(2) 0.0772(4) 0.7400(6)
H82_4 H 0.5505 0.0361 0.7524
C84_4 C 0.5387(2) 0.1164(5) 0.8017(6)
H83_4 H 0.5352 0.1027 0.8563
C85_4 C 0.5348(2) 0.1768(5) 0.7804(6)
H84_4 H 0.5284 0.2042 0.8208
C86_4 C 0.5405(2) 0.1970(4) 0.6991(6)
H85_4 H 0.5379 0.2380 0.6870
C87_4 C 0.54333(14) 0.2510(3) 0.5233(6)
C88_4 C 0.55898(16) 0.3042(3) 0.5273(7)
H86_4 H 0.5778 0.3009 0.5382
C89_4 C 0.54788(18) 0.3619(3) 0.5157(9)
H87_4 H 0.5593 0.3959 0.5158
C90_4 C 0.51972(17) 0.3688(4) 0.5040(9)
H88_4 H 0.5120 0.4073 0.4976
C91_4 C 0.50343(17) 0.3174(3) 0.5020(9)
H89_4 H 0.4845 0.3211 0.4940
C92_4 C 0.51512(15) 0.2602(3) 0.5116(8)
H90_4 H 0.5036 0.2263 0.5103
C93_4 C 0.54032(16) 0.1353(4) 0.4715(5)
C94_4 C 0.54845(17) 0.1244(4) 0.3885(5)
H91_4 H 0.5644 0.1432 0.3689
C95_4 C 0.5339(2) 0.0871(4) 0.3335(6)
H92_4 H 0.5404 0.0812 0.2787
C96_4 C 0.50999(19) 0.0586(4) 0.3599(6)
H93_4 H 0.5003 0.0330 0.3238
C97_4 C 0.50082(19) 0.0693(5) 0.4410(7)
H94_4 H 0.4846 0.0511 0.4599
C98_4 C 0.51564(17) 0.1070(4) 0.4948(6)
H95_4 H 0.5088 0.1137 0.5489
C99_4 C 0.58962(14) 0.1834(4) 0.5191(5)
C100_4 C 0.60065(14) 0.2108(4) 0.4467(5)
H96_4 H 0.5885 0.2276 0.4077
C101_4 C 0.62854(14) 0.2142(4) 0.4301(6)
H97_4 H 0.6347 0.2350 0.3824
C102_4 C 0.64748(16) 0.1870(4) 0.4837(6)
H98_4 H 0.6663 0.1869 0.4713
C103_4 C 0.63751(16) 0.1600(4) 0.5562(6)
H99_4 H 0.6498 0.1429 0.5948
C104_4 C 0.60940(15) 0.1580(4) 0.5724(5)
H100_4 H 0.6034 0.1386 0.6214
H89_5 H 0.0155 0.8211 0.4940
H94_5 H 0.0154 0.5511 0.4599
B3_5 B 0.9434(2) 0.6814(5) 0.5378(8)
C81_5 C 0.95010(19) 0.6589(4) 0.6346(5)
C82_5 C 0.9463(2) 0.5985(4) 0.6594(6)
H81_5 H 0.9395 0.5711 0.6197
C83_5 C 0.9520(2) 0.5772(4) 0.7400(6)
H82_5 H 0.9495 0.5361 0.7524
C84_5 C 0.9613(2) 0.6164(5) 0.8017(6)
H83_5 H 0.9648 0.6027 0.8563
C85_5 C 0.9652(2) 0.6768(5) 0.7804(6)
H84_5 H 0.9716 0.7042 0.8208
C86_5 C 0.9595(2) 0.6970(4) 0.6991(6)
H85_5 H 0.9621 0.7380 0.6870
C87_5 C 0.95667(14) 0.7510(3) 0.5233(6)
C88_5 C 0.94102(16) 0.8042(3) 0.5273(7)
H86_5 H 0.9222 0.8009 0.5382
C89_5 C 0.95212(18) 0.8619(3) 0.5157(9)
H87_5 H 0.9407 0.8959 0.5158
C90_5 C 0.98028(17) 0.8688(4) 0.5040(9)
H88_5 H 0.9880 0.9073 0.4976
C91_5 C 0.99657(17) 0.8174(3) 0.5020(9)
C92_5 C 0.98488(15) 0.7602(3) 0.5116(8)
H90_5 H 0.9964 0.7263 0.5103
C93_5 C 0.95968(16) 0.6353(4) 0.4715(5)
C94_5 C 0.95155(17) 0.6244(4) 0.3885(5)
H91_5 H 0.9356 0.6432 0.3689
C95_5 C 0.9661(2) 0.5871(4) 0.3335(6)
H92_5 H 0.9596 0.5812 0.2787
C96_5 C 0.99001(19) 0.5586(4) 0.3599(6)
H93_5 H 0.9997 0.5330 0.3238
C97_5 C 0.99918(19) 0.5693(5) 0.4410(7)
C98_5 C 0.98436(17) 0.6070(4) 0.4948(6)
H95_5 H 0.9912 0.6137 0.5489
C99_5 C 0.91038(14) 0.6834(4) 0.5191(5)
C100_5 C 0.89935(14) 0.7108(4) 0.4467(5)
H96_5 H 0.9115 0.7276 0.4077
C101_5 C 0.87146(14) 0.7142(4) 0.4301(6)
H97_5 H 0.8653 0.7350 0.3824
C102_5 C 0.85252(16) 0.6870(4) 0.4837(6)
H98_5 H 0.8337 0.6869 0.4713
C103_5 C 0.86249(16) 0.6600(4) 0.5562(6)
H99_5 H 0.8502 0.6429 0.5948
C104_5 C 0.89060(15) 0.6580(4) 0.5724(5)
H100_5 H 0.8966 0.6386 0.6214
B3_6 B 0.5566(2) 0.8186(5) 0.0378(8)
C81_6 C 0.54990(19) 0.8411(4) 0.1346(5)
C82_6 C 0.5537(2) 0.9015(4) 0.1594(6)
H81_6 H 0.5605 0.9289 0.1197
C83_6 C 0.5480(2) 0.9228(4) 0.2400(6)
H82_6 H 0.5505 0.9639 0.2524
C84_6 C 0.5387(2) 0.8836(5) 0.3017(6)
H83_6 H 0.5352 0.8973 0.3563
C85_6 C 0.5348(2) 0.8232(5) 0.2804(6)
H84_6 H 0.5284 0.7958 0.3208
C86_6 C 0.5405(2) 0.8030(4) 0.1991(6)
H85_6 H 0.5379 0.7620 0.1870
C87_6 C 0.54333(14) 0.7490(3) 0.0233(6)
C88_6 C 0.55898(16) 0.6958(3) 0.0273(7)
H86_6 H 0.5778 0.6991 0.0382
C89_6 C 0.54788(18) 0.6381(3) 0.0157(9)
H87_6 H 0.5593 0.6041 0.0158
C90_6 C 0.51972(17) 0.6312(4) 0.0040(9)
C91_6 C 0.50343(17) 0.6826(3) 0.0020(9)
C92_6 C 0.51512(15) 0.7398(3) 0.0116(8)
H90_6 H 0.5036 0.7737 0.0103
H95_6 H 0.5088 0.8863 0.0489
C99_6 C 0.58962(14) 0.8166(4) 0.0191(5)
C103_6 C 0.63751(16) 0.8400(4) 0.0562(6)
H99_6 H 0.6498 0.8571 0.0948
C104_6 C 0.60940(15) 0.8420(4) 0.0724(5)
H100_6 H 0.6034 0.8614 0.1214
H88_6 H 0.5120 0.5927 0.9976
H89_6 H 0.4845 0.6789 0.9940
C93_6 C 0.54032(16) 0.8647(4) 0.9715(5)
C94_6 C 0.54845(17) 0.8756(4) 0.8885(5)
H91_6 H 0.5644 0.8568 0.8689
C95_6 C 0.5339(2) 0.9129(4) 0.8335(6)
H92_6 H 0.5404 0.9188 0.7787
C96_6 C 0.50999(19) 0.9414(4) 0.8599(6)
H93_6 H 0.5003 0.9670 0.8238
C97_6 C 0.50082(19) 0.9307(5) 0.9410(7)
H94_6 H 0.4846 0.9489 0.9599
C98_6 C 0.51564(17) 0.8930(4) 0.9948(6)
C100_6 C 0.60065(14) 0.7892(4) 0.9467(5)
H96_6 H 0.5885 0.7724 0.9077
C101_6 C 0.62854(14) 0.7858(4) 0.9301(6)
H97_6 H 0.6347 0.7650 0.8824
C102_6 C 0.64748(16) 0.8130(4) 0.9837(6)
H98_6 H 0.6663 0.8131 0.9713
H88_7 H 0.0120 0.9073 0.0024
C93_7 C 0.04032(16) 0.6353(4) 0.0285(5)
C94_7 C 0.04845(17) 0.6244(4) 0.1115(5)
H91_7 H 0.0644 0.6432 0.1311
C95_7 C 0.0339(2) 0.5871(4) 0.1665(6)
H92_7 H 0.0404 0.5812 0.2213
C96_7 C 0.00999(19) 0.5586(4) 0.1401(6)
H93_7 H 0.0003 0.5330 0.1762
C97_7 C 0.00082(19) 0.5693(5) 0.0590(7)
C98_7 C 0.01564(17) 0.6070(4) 0.0052(6)
C100_7 C 0.10065(14) 0.7108(4) 0.0533(5)
H96_7 H 0.0885 0.7276 0.0923
C101_7 C 0.12854(14) 0.7142(4) 0.0699(6)
H97_7 H 0.1347 0.7350 0.1176
C102_7 C 0.14748(16) 0.6870(4) 0.0163(6)
H98_7 H 0.1663 0.6869 0.0287
B3_7 B 0.0566(2) 0.6814(5) 0.9622(8)
C81_7 C 0.04990(19) 0.6589(4) 0.8654(5)
C82_7 C 0.0537(2) 0.5985(4) 0.8406(6)
H81_7 H 0.0605 0.5711 0.8803
C83_7 C 0.0480(2) 0.5772(4) 0.7600(6)
H82_7 H 0.0505 0.5361 0.7476
C84_7 C 0.0387(2) 0.6164(5) 0.6983(6)
H83_7 H 0.0352 0.6027 0.6437
C85_7 C 0.0348(2) 0.6768(5) 0.7196(6)
H84_7 H 0.0284 0.7042 0.6792
C86_7 C 0.0405(2) 0.6970(4) 0.8009(6)
H85_7 H 0.0379 0.7380 0.8130
C87_7 C 0.04333(14) 0.7510(3) 0.9767(6)
C88_7 C 0.05898(16) 0.8042(3) 0.9727(7)
H86_7 H 0.0778 0.8009 0.9618
C89_7 C 0.04788(18) 0.8619(3) 0.9843(9)
H87_7 H 0.0593 0.8959 0.9842
C90_7 C 0.01972(17) 0.8688(4) 0.9960(9)
C91_7 C 0.00343(17) 0.8174(3) 0.9980(9)
C92_7 C 0.01512(15) 0.7602(3) 0.9884(8)
H90_7 H 0.0036 0.7263 0.9897
H95_7 H 0.0088 0.6137 0.9511
C99_7 C 0.08962(14) 0.6834(4) 0.9809(5)
C103_7 C 0.13751(16) 0.6600(4) 0.9438(6)
H99_7 H 0.1498 0.6429 0.9052
C104_7 C 0.10940(15) 0.6580(4) 0.9276(5)
H100_7 H 0.1034 0.6386 0.8786
H89_7 H 0.9845 0.8211 0.0060
H94_7 H 0.9846 0.5511 0.0401
B3_8 B 0.4434(2) 0.8186(5) 0.4622(8)
C81_8 C 0.45010(19) 0.8411(4) 0.3654(5)
C82_8 C 0.4463(2) 0.9015(4) 0.3406(6)
H81_8 H 0.4395 0.9289 0.3803
C83_8 C 0.4520(2) 0.9228(4) 0.2600(6)
H82_8 H 0.4495 0.9639 0.2476
C84_8 C 0.4613(2) 0.8836(5) 0.1983(6)
H83_8 H 0.4648 0.8973 0.1437
C85_8 C 0.4652(2) 0.8232(5) 0.2196(6)
H84_8 H 0.4716 0.7958 0.1792
C86_8 C 0.4595(2) 0.8030(4) 0.3009(6)
H85_8 H 0.4621 0.7620 0.3130
C87_8 C 0.45667(14) 0.7490(3) 0.4767(6)
C88_8 C 0.44102(16) 0.6958(3) 0.4727(7)
H86_8 H 0.4222 0.6991 0.4618
C89_8 C 0.45212(18) 0.6381(3) 0.4843(9)
H87_8 H 0.4407 0.6041 0.4842
C90_8 C 0.48028(17) 0.6312(4) 0.4960(9)
H88_8 H 0.4880 0.5927 0.5024
C91_8 C 0.49657(17) 0.6826(3) 0.4980(9)
H89_8 H 0.5155 0.6789 0.5060
C92_8 C 0.48488(15) 0.7398(3) 0.4884(8)
H90_8 H 0.4964 0.7737 0.4897
C93_8 C 0.45968(16) 0.8647(4) 0.5285(5)
C94_8 C 0.45155(17) 0.8756(4) 0.6115(5)
H91_8 H 0.4356 0.8568 0.6311
C95_8 C 0.4661(2) 0.9129(4) 0.6665(6)
H92_8 H 0.4596 0.9188 0.7213
C96_8 C 0.49001(19) 0.9414(4) 0.6401(6)
H93_8 H 0.4997 0.9670 0.6762
C97_8 C 0.49918(19) 0.9307(5) 0.5590(7)
H94_8 H 0.5154 0.9489 0.5401
C98_8 C 0.48436(17) 0.8930(4) 0.5052(6)
H95_8 H 0.4912 0.8863 0.4511
C99_8 C 0.41038(14) 0.8166(4) 0.4809(5)
C100_8 C 0.39935(14) 0.7892(4) 0.5533(5)
H96_8 H 0.4115 0.7724 0.5923
C101_8 C 0.37146(14) 0.7858(4) 0.5699(6)
H97_8 H 0.3653 0.7650 0.6176
C102_8 C 0.35252(16) 0.8130(4) 0.5163(6)
H98_8 H 0.3337 0.8131 0.5287
C103_8 C 0.36249(16) 0.8400(4) 0.4438(6)
H99_8 H 0.3502 0.8571 0.4052
C104_8 C 0.39060(15) 0.8420(4) 0.4276(5)
H100_8 H 0.3966 0.8614 0.3786
B4 B 0.2611(2) 0.4464(5) 0.1068(8)
C105 C 0.2428(2) 0.4980(4) 0.0574(6)
C109 C 0.2068(2) 0.5757(5) 0.0571(6)
H104 H 0.1912 0.5924 0.0827
C110 C 0.22108(19) 0.5288(4) 0.0962(6)
H105 H 0.2159 0.5174 0.1506
C111 C 0.28299(17) 0.4873(3) 0.1646(5)
C112 C 0.30680(19) 0.5138(4) 0.1309(6)
H106 H 0.3109 0.5067 0.0743
C113 C 0.3246(2) 0.5502(5) 0.1774(6)
H107 H 0.3406 0.5654 0.1524
C114 C 0.3188(2) 0.5639(5) 0.2607(6)
H108 H 0.3306 0.5882 0.2925
C115 C 0.29491(19) 0.5403(4) 0.2953(6)
H109 H 0.2903 0.5498 0.3509
C116 C 0.27777(18) 0.5028(4) 0.2486(5)
H110 H 0.2620 0.4871 0.2744
C117 C 0.27756(16) 0.4007(3) 0.0411(5)
C118 C 0.30512(16) 0.3834(4) 0.0483(6)
H111 H 0.3157 0.4012 0.0908
H112 H 0.3363 0.3321 0.0029
C123 C 0.24237(15) 0.4016(4) 0.1667(6)
C124 C 0.25474(16) 0.3654(4) 0.2289(6)
H116 H 0.2737 0.3689 0.2373
C125 C 0.24015(17) 0.3245(4) 0.2785(6)
H117 H 0.2493 0.3017 0.3194
C126 C 0.21207(17) 0.3177(4) 0.2673(6)
H118 H 0.2021 0.2903 0.3002
C127 C 0.19908(16) 0.3522(4) 0.2064(7)
H119 H 0.1801 0.3485 0.1984
C128 C 0.21404(15) 0.3923(4) 0.1570(6)
H120 H 0.2048 0.4141 0.1153
C106 C 0.2509(2) 0.5203(5) 0.9790(6)
H101 H 0.2656 0.5016 0.9512
C107 C 0.2380(2) 0.5696(5) 0.9408(7)
H102 H 0.2443 0.5839 0.8889
C108 C 0.2158(2) 0.5976(5) 0.9799(7)
H103 H 0.2071 0.6306 0.9546
C119 C 0.31770(17) 0.3414(4) 0.9958(6)
C120 C 0.30261(18) 0.3134(4) 0.9329(6)
H113 H 0.3109 0.2852 0.8970
C121 C 0.27508(19) 0.3279(4) 0.9243(6)
H114 H 0.2645 0.3088 0.8831
C122 C 0.26312(16) 0.3710(4) 0.9769(6)
H115 H 0.2446 0.3805 0.9690
B4_2 B 0.2389(2) 0.0536(5) 0.6068(8)
C105_2 C 0.2572(2) 0.0020(4) 0.5574(6)
C111_2 C 0.21701(17) 0.0127(3) 0.6646(5)
H110_2 H 0.2380 0.0129 0.7744
C117_2 C 0.22244(16) 0.0993(3) 0.5411(5)
C118_2 C 0.19488(16) 0.1166(4) 0.5483(6)
H111_2 H 0.1843 0.0988 0.5908
C119_2 C 0.18230(17) 0.1586(4) 0.4958(6)
H112_2 H 0.1637 0.1679 0.5029
C120_2 C 0.19739(18) 0.1866(4) 0.4329(6)
H113_2 H 0.1891 0.2148 0.3970
C121_2 C 0.22492(19) 0.1721(4) 0.4243(6)
H114_2 H 0.2355 0.1912 0.3831
C122_2 C 0.23688(16) 0.1290(4) 0.4769(6)
H115_2 H 0.2554 0.1195 0.4690
C123_2 C 0.25763(15) 0.0984(4) 0.6667(6)
C124_2 C 0.24526(16) 0.1346(4) 0.7289(6)
H116_2 H 0.2263 0.1311 0.7373
C125_2 C 0.25985(17) 0.1755(4) 0.7785(6)
H117_2 H 0.2507 0.1983 0.8194
C126_2 C 0.28793(17) 0.1823(4) 0.7673(6)
H118_2 H 0.2979 0.2097 0.8002
C127_2 C 0.30092(16) 0.1478(4) 0.7064(7)
H119_2 H 0.3199 0.1515 0.6984
C128_2 C 0.28596(15) 0.1077(4) 0.6570(6)
H120_2 H 0.2952 0.0859 0.6153
C106_2 C 0.2491(2) 0.9797(5) 0.4790(6)
H101_2 H 0.2344 0.9984 0.4512
C107_2 C 0.2620(2) 0.9304(5) 0.4408(7)
H102_2 H 0.2557 0.9161 0.3889
C108_2 C 0.2842(2) 0.9024(5) 0.4799(7)
H103_2 H 0.2929 0.8694 0.4546
C109_2 C 0.2932(2) 0.9243(5) 0.5571(6)
H104_2 H 0.3088 0.9076 0.5827
C110_2 C 0.27892(19) 0.9712(4) 0.5962(6)
H105_2 H 0.2841 0.9826 0.6506
C112_2 C 0.19320(19) 0.9862(4) 0.6309(6)
H106_2 H 0.1891 0.9933 0.5743
C113_2 C 0.1754(2) 0.9498(5) 0.6774(6)
H107_2 H 0.1594 0.9346 0.6524
C114_2 C 0.1812(2) 0.9361(5) 0.7607(6)
H108_2 H 0.1694 0.9118 0.7925
C115_2 C 0.20509(19) 0.9597(4) 0.7953(6)
H109_2 H 0.2097 0.9502 0.8509
C116_2 C 0.22223(18) 0.9972(4) 0.7486(5)
B4_3 B 0.7389(2) 0.4464(5) 0.3932(8)
C105_3 C 0.7572(2) 0.4980(4) 0.4426(6)
C106_3 C 0.7491(2) 0.5203(5) 0.5210(6)
H101_3 H 0.7344 0.5016 0.5488
C107_3 C 0.7620(2) 0.5696(5) 0.5592(7)
H102_3 H 0.7557 0.5839 0.6111
C108_3 C 0.7842(2) 0.5976(5) 0.5201(7)
H103_3 H 0.7929 0.6306 0.5454
C109_3 C 0.7932(2) 0.5757(5) 0.4429(6)
H104_3 H 0.8088 0.5924 0.4173
C110_3 C 0.77892(19) 0.5288(4) 0.4038(6)
H105_3 H 0.7841 0.5174 0.3494
C111_3 C 0.71701(17) 0.4873(3) 0.3354(5)
C112_3 C 0.69320(19) 0.5138(4) 0.3691(6)
H106_3 H 0.6891 0.5067 0.4257
C113_3 C 0.6754(2) 0.5502(5) 0.3226(6)
H107_3 H 0.6594 0.5654 0.3476
C114_3 C 0.6812(2) 0.5639(5) 0.2393(6)
H108_3 H 0.6694 0.5882 0.2075
C115_3 C 0.70509(19) 0.5403(4) 0.2047(6)
H109_3 H 0.7097 0.5498 0.1491
C116_3 C 0.72223(18) 0.5028(4) 0.2514(5)
H110_3 H 0.7380 0.4871 0.2256
C117_3 C 0.72244(16) 0.4007(3) 0.4589(5)
C118_3 C 0.69488(16) 0.3834(4) 0.4517(6)
H111_3 H 0.6843 0.4012 0.4092
C119_3 C 0.68230(17) 0.3414(4) 0.5042(6)
H112_3 H 0.6637 0.3321 0.4971
C120_3 C 0.69739(18) 0.3134(4) 0.5671(6)
H113_3 H 0.6891 0.2852 0.6030
C121_3 C 0.72492(19) 0.3279(4) 0.5757(6)
H114_3 H 0.7355 0.3088 0.6169
C122_3 C 0.73688(16) 0.3710(4) 0.5231(6)
H115_3 H 0.7554 0.3805 0.5310
C123_3 C 0.75763(15) 0.4016(4) 0.3333(6)
C124_3 C 0.74526(16) 0.3654(4) 0.2711(6)
H116_3 H 0.7263 0.3689 0.2627
C125_3 C 0.75985(17) 0.3245(4) 0.2215(6)
H117_3 H 0.7507 0.3017 0.1806
C126_3 C 0.78793(17) 0.3177(4) 0.2327(6)
H118_3 H 0.7979 0.2903 0.1998
C127_3 C 0.80092(16) 0.3522(4) 0.2936(7)
H119_3 H 0.8199 0.3485 0.3016
C128_3 C 0.78596(15) 0.3923(4) 0.3430(6)
H120_3 H 0.7952 0.4141 0.3847
C119_4 C 0.81770(17) 0.1586(4) 0.0042(6)
C120_4 C 0.80261(18) 0.1866(4) 0.0671(6)
H113_4 H 0.8109 0.2148 0.1030
C121_4 C 0.77508(19) 0.1721(4) 0.0757(6)
H114_4 H 0.7645 0.1912 0.1169
C122_4 C 0.76312(16) 0.1290(4) 0.0231(6)
H115_4 H 0.7446 0.1195 0.0310
B4_4 B 0.7611(2) 0.0536(5) 0.8932(8)
C105_4 C 0.7428(2) 0.0020(4) 0.9426(6)
C111_4 C 0.78299(17) 0.0127(3) 0.8354(5)
H110_4 H 0.7620 0.0129 0.7256
C117_4 C 0.77756(16) 0.0993(3) 0.9589(5)
C118_4 C 0.80512(16) 0.1166(4) 0.9517(6)
H111_4 H 0.8157 0.0988 0.9092
H112_4 H 0.8363 0.1679 0.9971
C123_4 C 0.74237(15) 0.0984(4) 0.8333(6)
C124_4 C 0.75474(16) 0.1346(4) 0.7711(6)
H116_4 H 0.7737 0.1311 0.7627
C125_4 C 0.74015(17) 0.1755(4) 0.7215(6)
H117_4 H 0.7493 0.1983 0.6806
C126_4 C 0.71207(17) 0.1823(4) 0.7327(6)
H118_4 H 0.7021 0.2097 0.6998
C127_4 C 0.69908(16) 0.1478(4) 0.7936(7)
H119_4 H 0.6801 0.1515 0.8016
C128_4 C 0.71404(15) 0.1077(4) 0.8430(6)
H120_4 H 0.7048 0.0859 0.8847
C106_4 C 0.7509(2) 0.9797(5) 0.0210(6)
H101_4 H 0.7656 0.9984 0.0488
C107_4 C 0.7380(2) 0.9304(5) 0.0592(7)
H102_4 H 0.7443 0.9161 0.1111
C108_4 C 0.7158(2) 0.9024(5) 0.0201(7)
H103_4 H 0.7071 0.8694 0.0454
C109_4 C 0.7068(2) 0.9243(5) 0.9429(6)
H104_4 H 0.6912 0.9076 0.9173
C110_4 C 0.72108(19) 0.9712(4) 0.9038(6)
H105_4 H 0.7159 0.9826 0.8494
C112_4 C 0.80680(19) 0.9862(4) 0.8691(6)
H106_4 H 0.8109 0.9933 0.9257
C113_4 C 0.8246(2) 0.9498(5) 0.8226(6)
H107_4 H 0.8406 0.9346 0.8476
C114_4 C 0.8188(2) 0.9361(5) 0.7393(6)
H108_4 H 0.8306 0.9118 0.7075
C115_4 C 0.79491(19) 0.9597(4) 0.7047(6)
H109_4 H 0.7903 0.9502 0.6491
C116_4 C 0.77777(18) 0.9972(4) 0.7514(5)
C106_5 C 0.7491(2) 0.4797(5) 0.0210(6)
H101_5 H 0.7344 0.4984 0.0488
C107_5 C 0.7620(2) 0.4304(5) 0.0592(7)
H102_5 H 0.7557 0.4161 0.1111
C108_5 C 0.7842(2) 0.4024(5) 0.0201(7)
H103_5 H 0.7929 0.3694 0.0454
C119_5 C 0.68230(17) 0.6586(4) 0.0042(6)
C120_5 C 0.69739(18) 0.6866(4) 0.0671(6)
H113_5 H 0.6891 0.7148 0.1030
C121_5 C 0.72492(19) 0.6721(4) 0.0757(6)
H114_5 H 0.7355 0.6912 0.1169
C122_5 C 0.73688(16) 0.6290(4) 0.0231(6)
H115_5 H 0.7554 0.6195 0.0310
B4_5 B 0.7389(2) 0.5536(5) 0.8932(8)
C105_5 C 0.7572(2) 0.5020(4) 0.9426(6)
C109_5 C 0.7932(2) 0.4243(5) 0.9429(6)
H104_5 H 0.8088 0.4076 0.9173
C110_5 C 0.77892(19) 0.4712(4) 0.9038(6)
H105_5 H 0.7841 0.4826 0.8494
C111_5 C 0.71701(17) 0.5127(3) 0.8354(5)
C112_5 C 0.69320(19) 0.4862(4) 0.8691(6)
H106_5 H 0.6891 0.4933 0.9257
C113_5 C 0.6754(2) 0.4498(5) 0.8226(6)
H107_5 H 0.6594 0.4346 0.8476
C114_5 C 0.6812(2) 0.4361(5) 0.7393(6)
H108_5 H 0.6694 0.4118 0.7075
C115_5 C 0.70509(19) 0.4597(4) 0.7047(6)
H109_5 H 0.7097 0.4502 0.6491
C116_5 C 0.72223(18) 0.4972(4) 0.7514(5)
H110_5 H 0.7380 0.5129 0.7256
C117_5 C 0.72244(16) 0.5993(3) 0.9589(5)
C118_5 C 0.69488(16) 0.6166(4) 0.9517(6)
H111_5 H 0.6843 0.5988 0.9092
H112_5 H 0.6637 0.6679 0.9971
C123_5 C 0.75763(15) 0.5984(4) 0.8333(6)
C124_5 C 0.74526(16) 0.6346(4) 0.7711(6)
H116_5 H 0.7263 0.6311 0.7627
C125_5 C 0.75985(17) 0.6755(4) 0.7215(6)
H117_5 H 0.7507 0.6983 0.6806
C126_5 C 0.78793(17) 0.6823(4) 0.7327(6)
H118_5 H 0.7979 0.7097 0.6998
C127_5 C 0.80092(16) 0.6478(4) 0.7936(7)
H119_5 H 0.8199 0.6515 0.8016
C128_5 C 0.78596(15) 0.6077(4) 0.8430(6)
H120_5 H 0.7952 0.5859 0.8847
C106_6 C 0.7509(2) 0.0203(5) 0.5210(6)
H101_6 H 0.7656 0.0016 0.5488
C107_6 C 0.7380(2) 0.0696(5) 0.5592(7)
H102_6 H 0.7443 0.0839 0.6111
C108_6 C 0.7158(2) 0.0976(5) 0.5201(7)
H103_6 H 0.7071 0.1306 0.5454
C109_6 C 0.7068(2) 0.0757(5) 0.4429(6)
H104_6 H 0.6912 0.0924 0.4173
C110_6 C 0.72108(19) 0.0288(4) 0.4038(6)
H105_6 H 0.7159 0.0174 0.3494
C112_6 C 0.80680(19) 0.0138(4) 0.3691(6)
H106_6 H 0.8109 0.0067 0.4257
C113_6 C 0.8246(2) 0.0502(5) 0.3226(6)
H107_6 H 0.8406 0.0654 0.3476
C114_6 C 0.8188(2) 0.0639(5) 0.2393(6)
H108_6 H 0.8306 0.0882 0.2075
C115_6 C 0.79491(19) 0.0403(4) 0.2047(6)
H109_6 H 0.7903 0.0498 0.1491
C116_6 C 0.77777(18) 0.0028(4) 0.2514(5)
B4_6 B 0.7611(2) 0.9464(5) 0.3932(8)
C105_6 C 0.7428(2) 0.9980(4) 0.4426(6)
C111_6 C 0.78299(17) 0.9873(3) 0.3354(5)
H110_6 H 0.7620 0.9871 0.2256
C117_6 C 0.77756(16) 0.9007(3) 0.4589(5)
C118_6 C 0.80512(16) 0.8834(4) 0.4517(6)
H111_6 H 0.8157 0.9012 0.4092
C119_6 C 0.81770(17) 0.8414(4) 0.5042(6)
H112_6 H 0.8363 0.8321 0.4971
C120_6 C 0.80261(18) 0.8134(4) 0.5671(6)
H113_6 H 0.8109 0.7852 0.6030
C121_6 C 0.77508(19) 0.8279(4) 0.5757(6)
H114_6 H 0.7645 0.8088 0.6169
C122_6 C 0.76312(16) 0.8710(4) 0.5231(6)
H115_6 H 0.7446 0.8805 0.5310
C123_6 C 0.74237(15) 0.9016(4) 0.3333(6)
C124_6 C 0.75474(16) 0.8654(4) 0.2711(6)
H116_6 H 0.7737 0.8689 0.2627
C125_6 C 0.74015(17) 0.8245(4) 0.2215(6)
H117_6 H 0.7493 0.8017 0.1806
C126_6 C 0.71207(17) 0.8177(4) 0.2327(6)
H118_6 H 0.7021 0.7903 0.1998
C127_6 C 0.69908(16) 0.8522(4) 0.2936(7)
H119_6 H 0.6801 0.8485 0.3016
C128_6 C 0.71404(15) 0.8923(4) 0.3430(6)
H120_6 H 0.7048 0.9141 0.3847
B4_7 B 0.2611(2) 0.5536(5) 0.6068(8)
C105_7 C 0.2428(2) 0.5020(4) 0.5574(6)
C106_7 C 0.2509(2) 0.4797(5) 0.4790(6)
H101_7 H 0.2656 0.4984 0.4512
C107_7 C 0.2380(2) 0.4304(5) 0.4408(7)
H102_7 H 0.2443 0.4161 0.3889
C108_7 C 0.2158(2) 0.4024(5) 0.4799(7)
H103_7 H 0.2071 0.3694 0.4546
C109_7 C 0.2068(2) 0.4243(5) 0.5571(6)
H104_7 H 0.1912 0.4076 0.5827
C110_7 C 0.22108(19) 0.4712(4) 0.5962(6)
H105_7 H 0.2159 0.4826 0.6506
C111_7 C 0.28299(17) 0.5127(3) 0.6646(5)
C112_7 C 0.30680(19) 0.4862(4) 0.6309(6)
H106_7 H 0.3109 0.4933 0.5743
C113_7 C 0.3246(2) 0.4498(5) 0.6774(6)
H107_7 H 0.3406 0.4346 0.6524
C114_7 C 0.3188(2) 0.4361(5) 0.7607(6)
H108_7 H 0.3306 0.4118 0.7925
C115_7 C 0.29491(19) 0.4597(4) 0.7953(6)
H109_7 H 0.2903 0.4502 0.8509
C116_7 C 0.27777(18) 0.4972(4) 0.7486(5)
H110_7 H 0.2620 0.5129 0.7744
C117_7 C 0.27756(16) 0.5993(3) 0.5411(5)
C118_7 C 0.30512(16) 0.6166(4) 0.5483(6)
H111_7 H 0.3157 0.5988 0.5908
C119_7 C 0.31770(17) 0.6586(4) 0.4958(6)
H112_7 H 0.3363 0.6679 0.5029
C120_7 C 0.30261(18) 0.6866(4) 0.4329(6)
H113_7 H 0.3109 0.7148 0.3970
C121_7 C 0.27508(19) 0.6721(4) 0.4243(6)
H114_7 H 0.2645 0.6912 0.3831
C122_7 C 0.26312(16) 0.6290(4) 0.4769(6)
H115_7 H 0.2446 0.6195 0.4690
C123_7 C 0.24237(15) 0.5984(4) 0.6667(6)
C124_7 C 0.25474(16) 0.6346(4) 0.7289(6)
H116_7 H 0.2737 0.6311 0.7373
C125_7 C 0.24015(17) 0.6755(4) 0.7785(6)
H117_7 H 0.2493 0.6983 0.8194
C126_7 C 0.21207(17) 0.6823(4) 0.7673(6)
H118_7 H 0.2021 0.7097 0.8002
C127_7 C 0.19908(16) 0.6478(4) 0.7064(7)
H119_7 H 0.1801 0.6515 0.6984
C128_7 C 0.21404(15) 0.6077(4) 0.6570(6)
H120_7 H 0.2048 0.5859 0.6153
C109_8 C 0.2932(2) 0.0757(5) 0.0571(6)
H104_8 H 0.3088 0.0924 0.0827
C110_8 C 0.27892(19) 0.0288(4) 0.0962(6)
H105_8 H 0.2841 0.0174 0.1506
C112_8 C 0.19320(19) 0.0138(4) 0.1309(6)
H106_8 H 0.1891 0.0067 0.0743
C113_8 C 0.1754(2) 0.0502(5) 0.1774(6)
H107_8 H 0.1594 0.0654 0.1524
C114_8 C 0.1812(2) 0.0639(5) 0.2607(6)
H108_8 H 0.1694 0.0882 0.2925
C115_8 C 0.20509(19) 0.0403(4) 0.2953(6)
H109_8 H 0.2097 0.0498 0.3509
C116_8 C 0.22223(18) 0.0028(4) 0.2486(5)
C106_8 C 0.2491(2) 0.0203(5) 0.9790(6)
H101_8 H 0.2344 0.0016 0.9512
C107_8 C 0.2620(2) 0.0696(5) 0.9408(7)
H102_8 H 0.2557 0.0839 0.8889
C108_8 C 0.2842(2) 0.0976(5) 0.9799(7)
H103_8 H 0.2929 0.1306 0.9546
B4_8 B 0.2389(2) 0.9464(5) 0.1068(8)
C105_8 C 0.2572(2) 0.9980(4) 0.0574(6)
C111_8 C 0.21701(17) 0.9873(3) 0.1646(5)
H110_8 H 0.2380 0.9871 0.2744
C117_8 C 0.22244(16) 0.9007(3) 0.0411(5)
C118_8 C 0.19488(16) 0.8834(4) 0.0483(6)
H111_8 H 0.1843 0.9012 0.0908
H112_8 H 0.1637 0.8321 0.0029
C123_8 C 0.25763(15) 0.9016(4) 0.1667(6)
C124_8 C 0.24526(16) 0.8654(4) 0.2289(6)
H116_8 H 0.2263 0.8689 0.2373
C125_8 C 0.25985(17) 0.8245(4) 0.2785(6)
H117_8 H 0.2507 0.8017 0.3194
C126_8 C 0.28793(17) 0.8177(4) 0.2673(6)
H118_8 H 0.2979 0.7903 0.3002
C127_8 C 0.30092(16) 0.8522(4) 0.2064(7)
H119_8 H 0.3199 0.8485 0.1984
C128_8 C 0.28596(15) 0.8923(4) 0.1570(6)
H120_8 H 0.2952 0.9141 0.1153
C119_8 C 0.18230(17) 0.8414(4) 0.9958(6)
C120_8 C 0.19739(18) 0.8134(4) 0.9329(6)
H113_8 H 0.1891 0.7852 0.8970
C121_8 C 0.22492(19) 0.8279(4) 0.9243(6)
H114_8 H 0.2355 0.8088 0.8831
C122_8 C 0.23688(16) 0.8710(4) 0.9769(6)
H115_8 H 0.2554 0.8805 0.9690
loop_
_geom_bond_atom_site_label_1
_geom_bond_atom_site_label_2
_geom_bond_site_symmetry_1
_geom_bond_site_symmetry_2
H3 C1 1_555 1_555
O8 N5 1_555 1_555
H23 C19 1_555 1_555
C20 C19 1_555 1_555
H24 C20 1_555 1_555
C21 C20 1_555 1_555
C22 C21 1_555 1_555
H25 C22 1_555 1_555
N5 C24 1_555 1_555
C24 H27 1_555 1_555
C25 C24 1_555 1_555
H28 C25 1_555 1_555
C26 C21 1_555 1_555
C27 C26 1_555 1_555
H29 C27 1_555 1_555
C28 N5 1_555 1_555
H30 C28 1_555 1_555
C29 B1 1_555 1_555
C30 C29 1_555 1_555
H31 C30 1_555 1_555
C31 C30 1_555 1_555
H32 C31 1_555 1_555
C32 C31 1_555 1_555
H33 C32 1_555 1_555
C33 C32 1_555 1_555
H34 C33 1_555 1_555
C34 C29 1_555 1_555
H35 C34 1_555 1_555
C35 B1 1_555 1_555
C36 C35 1_555 1_555
H36 C36 1_555 1_555
C37 C36 1_555 1_555
H37 C37 1_555 1_555
O10 N7 1_555 1_555
N7 C46 1_555 1_555
C46 H45 1_555 1_555
C47 C46 1_555 1_555
H46 C47 1_555 1_555
C48 C47 1_555 1_555
C49 C48 1_555 1_555
H47 C49 1_555 1_555
C50 N7 1_555 1_555
H48 C50 1_555 1_555
C52 C51 1_555 1_555
H50 C52 1_555 1_555
C53 C48 1_555 1_555
C54 C53 1_555 1_555
H51 C54 1_555 1_555
C55 C54 1_555 1_555
H52 C55 1_555 1_555
N8 O11 1_555 1_555
La3 O10 1_555 1_555
La6 O8 1_555 1_555
C22 C23 1_555 1_555
C25 C26 1_555 1_555
C27 C28 1_555 1_555
C33 C34 1_555 1_555
C49 C50 1_555 1_555
C51 N8 1_555 1_555
C52 C53 1_555 1_555
C55 N8 1_555 1_555
La1 O1 1_555 1_555
O2 La1 1_555 1_555
C2 O2 1_555 1_555
H5 C2 1_555 1_555
H6 C2 1_555 1_555
O3 La1 1_555 1_555
H7 O3 1_555 1_555
C3 O3 1_555 1_555
H8 C3 1_555 1_555
H9 C3 1_555 1_555
H10 C3 1_555 1_555
O4 La1 1_555 1_555
O5 La1 1_555 1_555
O6 La1 1_555 1_555
O7 N4 1_555 1_555
N1 O4 1_555 1_555
C4 N1 1_555 1_555
H11 C4 1_555 1_555
C5 C4 1_555 1_555
H12 C5 1_555 1_555
C6 C5 1_555 1_555
C7 C6 1_555 1_555
H13 C7 1_555 1_555
C8 N1 1_555 1_555
H14 C8 1_555 1_555
N2 O5 1_555 1_555
C9 N2 1_555 1_555
H15 C9 1_555 1_555
C10 C9 1_555 1_555
H16 C10 1_555 1_555
C11 C10 1_555 1_555
C12 C11 1_555 1_555
H17 C12 1_555 1_555
C13 N2 1_555 1_555
H18 C13 1_555 1_555
N3 O6 1_555 1_555
C14 H19 1_555 1_555
C15 C14 1_555 1_555
H20 C15 1_555 1_555
C16 C11 1_555 1_555
C17 C16 1_555 1_555
H21 C17 1_555 1_555
C18 C17 1_555 1_555
H22 C18 1_555 1_555
N4 C14 1_555 1_555
H38 C38 1_555 1_555
C39 C38 1_555 1_555
H39 C39 1_555 1_555
H40 C40 1_555 1_555
O12 N9 1_555 1_555
O13 La1 1_555 1_555
N9 C56 1_555 1_555
C56 H53 1_555 1_555
C57 C56 1_555 1_555
H54 C57 1_555 1_555
C58 C57 1_555 1_555
C59 C58 1_555 1_555
H55 C59 1_555 1_555
C60 N9 1_555 1_555
H56 C60 1_555 1_555
N10 O13 1_555 1_555
C61 N10 1_555 1_555
H57 C61 1_555 1_555
C62 C61 1_555 1_555
H58 C62 1_555 1_555
C63 C58 1_555 1_555
C64 C63 1_555 1_555
H59 C64 1_555 1_555
C65 N10 1_555 1_555
H60 C65 1_555 1_555
La6 O12 1_555 1_555
La3 O7 1_555 1_555
C7 C8 1_555 1_555
C12 C13 1_555 1_555
C15 C16 1_555 1_555
C18 N4 1_555 1_555
C39 C40 1_555 1_555
C59 C60 1_555 1_555
C62 C63 1_555 1_555
C64 C65 1_555 1_555
C42 C41 1_555 1_555
C43 C42 1_555 1_555
N6 C43 1_555 1_555
O9 N6 1_555 1_555
C44 N6 1_555 1_555
C45 C41 1_555 1_555
H41 C45 1_555 1_555
H42 C44 1_555 1_555
H43 C43 1_555 1_555
H44 C42 1_555 1_555
La2 O9 1_555 1_555
O14 La2 1_555 1_555
C66 O14 1_555 1_555
H61 C66 1_555 1_555
H62 C66 1_555 1_555
H63 C66 1_555 1_555
O15 La2 1_555 1_555
C67 O15 1_555 1_555
H64 C67 1_555 1_555
H65 C67 1_555 1_555
H66 C67 1_555 1_555
B2 O14 1_555 1_555
C68 B2 1_555 1_555
C69 C68 1_555 1_555
H67 C69 1_555 1_555
C70 C69 1_555 1_555
H68 C70 1_555 1_555
C71 C70 1_555 1_555
H69 C71 1_555 1_555
C72 C71 1_555 1_555
H70 C72 1_555 1_555
C73 C68 1_555 1_555
H71 C73 1_555 1_555
C74 B2 1_555 1_555
C75 C74 1_555 1_555
H72 C75 1_555 1_555
C76 C75 1_555 1_555
H73 C76 1_555 1_555
C77 C76 1_555 1_555
H74 C77 1_555 1_555
C78 C77 1_555 1_555
H75 C78 1_555 1_555
C79 C74 1_555 1_555
H76 C79 1_555 1_555
O16 La2 1_555 1_555
H77 O16 1_555 1_555
C80 O16 1_555 1_555
H78 C80 1_555 1_555
H79 C80 1_555 1_555
H80 C80 1_555 1_555
O17 La2 1_555 1_555
O18 La2 1_555 1_555
O19 La2 1_555 1_555
O20 La2 1_555 1_555
C44 C45 1_555 1_555
O15 B2 1_555 1_555
C72 C73 1_555 1_555
C78 C79 1_555 1_555
La6 O1_2 1_555 1_555
O1_2 C1_2 1_555 1_555
C1_2 H1_2 1_555 1_555
H2_2 C1_2 1_555 1_555
H3_2 C1_2 1_555 1_555
O2_2 La6 1_555 1_555
C2_2 O2_2 1_555 1_555
H4_2 C2_2 1_555 1_555
H5_2 C2_2 1_555 1_555
H6_2 C2_2 1_555 1_555
O3_2 La6 1_555 1_555
H7_2 O3_2 1_555 1_555
C3_2 O3_2 1_555 1_555
H8_2 C3_2 1_555 1_555
H9_2 C3_2 1_555 1_555
H10_2 C3_2 1_555 1_555
B1_2 O1_2 1_555 1_555
O4_2 La6 1_555 1_555
O5_2 La6 1_555 1_555
N1_2 O4_2 1_555 1_555
C4_2 N1_2 1_555 1_555
H11_2 C4_2 1_555 1_555
C5_2 C4_2 1_555 1_555
H12_2 C5_2 1_555 1_555
C6_2 C5_2 1_555 1_555
C7_2 C6_2 1_555 1_555
H13_2 C7_2 1_555 1_555
C8_2 N1_2 1_555 1_555
H14_2 C8_2 1_555 1_555
N2_2 O5_2 1_555 1_555
C9_2 N2_2 1_555 1_555
H15_2 C9_2 1_555 1_555
C12_2 C11_2 1_555 1_555
H17_2 C12_2 1_555 1_555
C13_2 N2_2 1_555 1_555
H18_2 C13_2 1_555 1_555
C29_2 B1_2 1_555 1_555
C30_2 C29_2 1_555 1_555
H31_2 C30_2 1_555 1_555
C31_2 C30_2 1_555 1_555
H32_2 C31_2 1_555 1_555
C32_2 C31_2 1_555 1_555
H33_2 C32_2 1_555 1_555
C33_2 C32_2 1_555 1_555
H34_2 C33_2 1_555 1_555
C34_2 C29_2 1_555 1_555
H35_2 C34_2 1_555 1_555
C35_2 B1_2 1_555 1_555
C36_2 C35_2 1_555 1_555
H36_2 C36_2 1_555 1_555
C37_2 C36_2 1_555 1_555
H37_2 C37_2 1_555 1_555
C38_2 C37_2 1_555 1_555
H38_2 C38_2 1_555 1_555
C39_2 C38_2 1_555 1_555
H39_2 C39_2 1_555 1_555
C40_2 C35_2 1_555 1_555
H40_2 C40_2 1_555 1_555
C41_2 C6_2 1_555 1_555
C42_2 C41_2 1_555 1_555
C43_2 C42_2 1_555 1_555
N6_2 C43_2 1_555 1_555
O9_2 N6_2 1_555 1_555
C44_2 N6_2 1_555 1_555
C45_2 C41_2 1_555 1_555
H41_2 C45_2 1_555 1_555
H42_2 C44_2 1_555 1_555
H43_2 C43_2 1_555 1_555
H44_2 C42_2 1_555 1_555
O11_2 La6 1_555 1_555
H46_2 C47_2 1_555 1_555
C51_2 H49_2 1_555 1_555
C52_2 C51_2 1_555 1_555
H50_2 C52_2 1_555 1_555
C54_2 C53_2 1_555 1_555
H51_2 C54_2 1_555 1_555
C55_2 C54_2 1_555 1_555
H52_2 C55_2 1_555 1_555
N8_2 O11_2 1_555 1_555
La2_2 O9_2 1_555 1_555
O14_2 La2_2 1_555 1_555
O15_2 La2_2 1_555 1_555
C67_2 O15_2 1_555 1_555
H65_2 C67_2 1_555 1_555
H66_2 C67_2 1_555 1_555
H74_2 C77_2 1_555 1_555
C78_2 C77_2 1_555 1_555
H75_2 C78_2 1_555 1_555
H76_2 C79_2 1_555 1_555
O16_2 La2_2 1_555 1_555
H77_2 O16_2 1_555 1_555
C80_2 O16_2 1_555 1_555
H78_2 C80_2 1_555 1_555
H79_2 C80_2 1_555 1_555
H80_2 C80_2 1_555 1_555
O17_2 La2_2 1_555 1_555
O18_2 La2_2 1_555 1_555
O20_2 La2_2 1_555 1_555
O2_2 B1_2 1_555 1_555
C7_2 C8_2 1_555 1_555
C12_2 C13_2 1_555 1_555
C33_2 C34_2 1_555 1_555
C39_2 C40_2 1_555 1_555
C44_2 C45_2 1_555 1_555
C51_2 N8_2 1_555 1_555
C52_2 C53_2 1_555 1_555
C55_2 N8_2 1_555 1_555
C78_2 C79_2 1_555 1_555
H63_2 C66_2 1_555 1_555
C68_2 B2_2 1_555 1_555
C69_2 C68_2 1_555 1_555
H67_2 C69_2 1_555 1_555
C70_2 C69_2 1_555 1_555
H68_2 C70_2 1_555 1_555
C71_2 C70_2 1_555 1_555
H69_2 C71_2 1_555 1_555
C72_2 C71_2 1_555 1_555
H70_2 C72_2 1_555 1_555
C73_2 C68_2 1_555 1_555
H71_2 C73_2 1_555 1_555
C74_2 B2_2 1_555 1_555
C75_2 C74_2 1_555 1_555
H72_2 C75_2 1_555 1_555
C76_2 C75_2 1_555 1_555
H73_2 C76_2 1_555 1_555
C72_2 C73_2 1_555 1_555
O7_2 N4_2 1_555 1_555
H16_2 C10_2 1_555 1_555
C15_2 C14_2 1_555 1_555
H20_2 C15_2 1_555 1_555
C17_2 C16_2 1_555 1_555
H21_2 C17_2 1_555 1_555
C18_2 C17_2 1_555 1_555
H22_2 C18_2 1_555 1_555
N4_2 C14_2 1_555 1_555
O10_2 N7_2 1_555 1_555
N7_2 C46_2 1_555 1_555
C46_2 H45_2 1_555 1_555
C49_2 C48_2 1_555 1_555
H47_2 C49_2 1_555 1_555
C50_2 N7_2 1_555 1_555
H48_2 C50_2 1_555 1_555
La3_2 O10_2 1_555 1_555
C15_2 C16_2 1_555 1_555
C18_2 N4_2 1_555 1_555
C49_2 C50_2 1_555 1_555
O18_2 N9_2 1_555 1_555
O7_3 N4_3 1_555 1_555
O20_2 N5_2 1_555 1_555
N2_3 O17 1_555 1_555
C9_3 N2_3 1_555 1_555
H15_3 C9_3 1_555 1_555
C10_3 C9_3 1_555 1_555
H16_3 C10_3 1_555 1_555
C11_3 C10_3 1_555 1_555
C12_3 C11_3 1_555 1_555
H17_3 C12_3 1_555 1_555
C13_3 N2_3 1_555 1_555
H18_3 C13_3 1_555 1_555
N3_2 O18 1_555 1_555
C15_3 C14_3 1_555 1_555
H20_3 C15_3 1_555 1_555
C16_3 C11_3 1_555 1_555
C17_3 C16_3 1_555 1_555
H21_3 C17_3 1_555 1_555
C18_3 C17_3 1_555 1_555
H22_3 C18_3 1_555 1_555
N4_3 C14_3 1_555 1_555
C19_2 N3_2 1_555 1_555
H23_2 C19_2 1_555 1_555
C20_2 C19_2 1_555 1_555
H24_2 C20_2 1_555 1_555
C21_2 C20_2 1_555 1_555
C22_2 C21_2 1_555 1_555
H25_2 C22_2 1_555 1_555
C23_2 N3_2 1_555 1_555
H26_2 C23_2 1_555 1_555
N5_2 C24_2 1_555 1_555
C24_2 H27_2 1_555 1_555
C25_2 C24_2 1_555 1_555
H28_2 C25_2 1_555 1_555
C26_2 C21_2 1_555 1_555
C27_2 C26_2 1_555 1_555
H29_2 C27_2 1_555 1_555
C28_2 N5_2 1_555 1_555
H30_2 C28_2 1_555 1_555
O10_3 N7_3 1_555 1_555
N7_3 C46_3 1_555 1_555
C46_3 H45_3 1_555 1_555
C47_3 C46_3 1_555 1_555
H46_3 C47_3 1_555 1_555
C48_3 C47_3 1_555 1_555
C49_3 C48_3 1_555 1_555
H47_3 C49_3 1_555 1_555
C50_3 N7_3 1_555 1_555
H48_3 C50_3 1_555 1_555
C51_3 H49_3 1_555 1_555
C52_3 C51_3 1_555 1_555
H50_3 C52_3 1_555 1_555
C53_3 C48_3 1_555 1_555
C54_3 C53_3 1_555 1_555
H51_3 C54_3 1_555 1_555
C55_3 C54_3 1_555 1_555
H52_3 C55_3 1_555 1_555
N8_3 O19 1_555 1_555
C56_2 H53_2 1_555 1_555
C57_2 C56_2 1_555 1_555
H54_2 C57_2 1_555 1_555
C58_2 C57_2 1_555 1_555
C59_2 C58_2 1_555 1_555
H55_2 C59_2 1_555 1_555
N10_2 O20 1_555 1_555
C61_2 N10_2 1_555 1_555
H57_2 C61_2 1_555 1_555
C62_2 C61_2 1_555 1_555
H58_2 C62_2 1_555 1_555
C63_2 C58_2 1_555 1_555
C64_2 C63_2 1_555 1_555
H59_2 C64_2 1_555 1_555
C65_2 N10_2 1_555 1_555
H60_2 C65_2 1_555 1_555
La5 O10_3 1_555 1_555
C12_3 C13_3 1_555 1_555
C15_3 C16_3 1_555 1_555
C18_3 N4_3 1_555 1_555
C22_2 C23_2 1_555 1_555
C25_2 C26_2 1_555 1_555
C27_2 C28_2 1_555 1_555
C49_3 C50_3 1_555 1_555
C51_3 N8_3 1_555 1_555
C52_3 C53_3 1_555 1_555
C55_3 N8_3 1_555 1_555
C59_2 C60_2 1_555 1_555
C62_2 C63_2 1_555 1_555
C64_2 C65_2 1_555 1_555
N2_4 O17_2 1_555 1_555
C9_4 N2_4 1_555 1_555
H15_4 C9_4 1_555 1_555
C12_4 C11_4 1_555 1_555
H17_4 C12_4 1_555 1_555
C13_4 N2_4 1_555 1_555
H18_4 C13_4 1_555 1_555
C12_4 C13_4 1_555 1_555
H46_4 C47_4 1_555 1_555
C52_4 C51_4 1_555 1_555
H50_4 C52_4 1_555 1_555
C54_4 C53_4 1_555 1_555
H51_4 C54_4 1_555 1_555
C55_4 C54_4 1_555 1_555
H52_4 C55_4 1_555 1_555
N8_4 O19_2 1_555 1_555
C51_4 N8_4 1_555 1_555
C52_4 C53_4 1_555 1_555
C55_4 N8_4 1_555 1_555
O7_4 N4_4 1_555 1_555
H16_4 C10_4 1_555 1_555
C14_4 H19_4 1_555 1_555
C15_4 C14_4 1_555 1_555
H20_4 C15_4 1_555 1_555
C17_4 C16_4 1_555 1_555
H21_4 C17_4 1_555 1_555
C18_4 C17_4 1_555 1_555
H22_4 C18_4 1_555 1_555
N4_4 C14_4 1_555 1_555
La5_2 O7_4 1_555 1_555
C15_4 C16_4 1_555 1_555
C18_4 N4_4 1_555 1_555
O10_4 N7_4 1_555 1_555
N7_4 C46_4 1_555 1_555
C46_4 H45_4 1_555 1_555
C49_4 C48_4 1_555 1_555
H47_4 C49_4 1_555 1_555
C50_4 N7_4 1_555 1_555
H48_4 C50_4 1_555 1_555
La5_2 O10_4 1_555 1_555
C49_4 C50_4 1_555 1_555
C42_3 C41_3 1_555 1_555
C43_3 C42_3 1_555 1_555
N6_3 C43_3 1_555 1_555
O9_3 N6_3 1_555 1_555
C44_3 N6_3 1_555 1_555
C45_3 C41_3 1_555 1_555
H41_3 C45_3 1_555 1_555
H42_3 C44_3 1_555 1_555
H43_3 C43_3 1_555 1_555
H44_3 C42_3 1_555 1_555
La3 O9_3 1_555 1_555
O14_3 La3 1_555 1_555
C66_3 O14_3 1_555 1_555
H61_3 C66_3 1_555 1_555
H62_3 C66_3 1_555 1_555
H63_3 C66_3 1_555 1_555
O15_3 La3 1_555 1_555
C67_3 O15_3 1_555 1_555
H64_3 C67_3 1_555 1_555
H65_3 C67_3 1_555 1_555
H66_3 C67_3 1_555 1_555
B2_3 O14_3 1_555 1_555
C68_3 B2_3 1_555 1_555
C69_3 C68_3 1_555 1_555
H67_3 C69_3 1_555 1_555
C70_3 C69_3 1_555 1_555
H68_3 C70_3 1_555 1_555
C71_3 C70_3 1_555 1_555
H69_3 C71_3 1_555 1_555
C72_3 C71_3 1_555 1_555
H70_3 C72_3 1_555 1_555
C73_3 C68_3 1_555 1_555
H71_3 C73_3 1_555 1_555
C74_3 B2_3 1_555 1_555
C75_3 C74_3 1_555 1_555
H72_3 C75_3 1_555 1_555
C76_3 C75_3 1_555 1_555
H73_3 C76_3 1_555 1_555
C77_3 C76_3 1_555 1_555
H74_3 C77_3 1_555 1_555
C78_3 C77_3 1_555 1_555
H75_3 C78_3 1_555 1_555
C79_3 C74_3 1_555 1_555
H76_3 C79_3 1_555 1_555
O16_3 La3 1_555 1_555
H77_3 O16_3 1_555 1_555
C80_3 O16_3 1_555 1_555
H78_3 C80_3 1_555 1_555
H79_3 C80_3 1_555 1_555
H80_3 C80_3 1_555 1_555
O18_3 La3 1_555 1_555
O20_3 La3 1_555 1_555
C44_3 C45_3 1_555 1_555
O15_3 B2_3 1_555 1_555
C72_3 C73_3 1_555 1_555
C78_3 C79_3 1_555 1_555
La5 O1_3 1_555 1_555
O2_3 La5 1_555 1_555
C2_3 O2_3 1_555 1_555
H5_3 C2_3 1_555 1_555
H6_3 C2_3 1_555 1_555
O3_3 La5 1_555 1_555
H7_3 O3_3 1_555 1_555
C3_3 O3_3 1_555 1_555
H8_3 C3_3 1_555 1_555
H9_3 C3_3 1_555 1_555
H10_3 C3_3 1_555 1_555
O4_3 La5 1_555 1_555
O6_2 La5 1_555 1_555
N1_3 O4_3 1_555 1_555
C4_3 N1_3 1_555 1_555
H11_3 C4_3 1_555 1_555
C5_3 C4_3 1_555 1_555
H12_3 C5_3 1_555 1_555
C6_3 C5_3 1_555 1_555
C7_3 C6_3 1_555 1_555
H13_3 C7_3 1_555 1_555
C8_3 N1_3 1_555 1_555
H14_3 C8_3 1_555 1_555
N3_3 O6_2 1_555 1_555
H38_3 C38_3 1_555 1_555
C39_3 C38_3 1_555 1_555
H39_3 C39_3 1_555 1_555
H40_3 C40_3 1_555 1_555
O12_2 N9_3 1_555 1_555
O13_2 La5 1_555 1_555
N9_3 C56_3 1_555 1_555
C56_3 H53_3 1_555 1_555
C57_3 C56_3 1_555 1_555
H54_3 C57_3 1_555 1_555
C58_3 C57_3 1_555 1_555
C59_3 C58_3 1_555 1_555
H55_3 C59_3 1_555 1_555
C60_3 N9_3 1_555 1_555
H56_3 C60_3 1_555 1_555
N10_3 O13_2 1_555 1_555
C61_3 N10_3 1_555 1_555
H57_3 C61_3 1_555 1_555
C62_3 C61_3 1_555 1_555
H58_3 C62_3 1_555 1_555
C63_3 C58_3 1_555 1_555
C64_3 C63_3 1_555 1_555
H59_3 C64_3 1_555 1_555
C65_3 N10_3 1_555 1_555
H60_3 C65_3 1_555 1_555
La5_2 O12_2 1_555 1_555
C7_3 C8_3 1_555 1_555
C39_3 C40_3 1_555 1_555
C59_3 C60_3 1_555 1_555
C62_3 C63_3 1_555 1_555
C64_3 C65_3 1_555 1_555
H3_3 C1_3 1_555 1_555
O8_2 N5_3 1_555 1_555
H23_3 C19_3 1_555 1_555
C20_3 C19_3 1_555 1_555
H24_3 C20_3 1_555 1_555
C21_3 C20_3 1_555 1_555
C22_3 C21_3 1_555 1_555
H25_3 C22_3 1_555 1_555
N5_3 C24_3 1_555 1_555
C24_3 H27_3 1_555 1_555
C25_3 C24_3 1_555 1_555
H28_3 C25_3 1_555 1_555
C26_3 C21_3 1_555 1_555
C27_3 C26_3 1_555 1_555
H29_3 C27_3 1_555 1_555
C28_3 N5_3 1_555 1_555
H30_3 C28_3 1_555 1_555
C29_3 B1_3 1_555 1_555
C30_3 C29_3 1_555 1_555
H31_3 C30_3 1_555 1_555
C31_3 C30_3 1_555 1_555
H32_3 C31_3 1_555 1_555
C32_3 C31_3 1_555 1_555
H33_3 C32_3 1_555 1_555
C33_3 C32_3 1_555 1_555
H34_3 C33_3 1_555 1_555
C34_3 C29_3 1_555 1_555
H35_3 C34_3 1_555 1_555
C35_3 B1_3 1_555 1_555
C36_3 C35_3 1_555 1_555
H36_3 C36_3 1_555 1_555
C37_3 C36_3 1_555 1_555
H37_3 C37_3 1_555 1_555
La5_2 O8_2 1_555 1_555
C22_3 C23_3 1_555 1_555
C25_3 C26_3 1_555 1_555
C27_3 C28_3 1_555 1_555
C33_3 C34_3 1_555 1_555
H63_4 C66_4 1_555 1_555
C68_4 B2_4 1_555 1_555
C69_4 C68_4 1_555 1_555
H67_4 C69_4 1_555 1_555
C70_4 C69_4 1_555 1_555
H68_4 C70_4 1_555 1_555
C71_4 C70_4 1_555 1_555
H69_4 C71_4 1_555 1_555
C72_4 C71_4 1_555 1_555
H70_4 C72_4 1_555 1_555
C73_4 C68_4 1_555 1_555
H71_4 C73_4 1_555 1_555
C74_4 B2_4 1_555 1_555
C75_4 C74_4 1_555 1_555
H72_4 C75_4 1_555 1_555
C76_4 C75_4 1_555 1_555
H73_4 C76_4 1_555 1_555
C72_4 C73_4 1_555 1_555
La5_2 O1_4 1_555 1_555
O1_4 C1_4 1_555 1_555
C1_4 H1_4 1_555 1_555
H2_4 C1_4 1_555 1_555
H3_4 C1_4 1_555 1_555
O2_4 La5_2 1_555 1_555
C2_4 O2_4 1_555 1_555
H4_4 C2_4 1_555 1_555
H5_4 C2_4 1_555 1_555
H6_4 C2_4 1_555 1_555
O3_4 La5_2 1_555 1_555
H7_4 O3_4 1_555 1_555
C3_4 O3_4 1_555 1_555
H8_4 C3_4 1_555 1_555
H9_4 C3_4 1_555 1_555
H10_4 C3_4 1_555 1_555
B1_4 O1_4 1_555 1_555
O4_4 La5_2 1_555 1_555
N1_4 O4_4 1_555 1_555
C4_4 N1_4 1_555 1_555
H11_4 C4_4 1_555 1_555
C5_4 C4_4 1_555 1_555
H12_4 C5_4 1_555 1_555
C6_4 C5_4 1_555 1_555
C7_4 C6_4 1_555 1_555
H13_4 C7_4 1_555 1_555
C8_4 N1_4 1_555 1_555
H14_4 C8_4 1_555 1_555
C29_4 B1_4 1_555 1_555
C30_4 C29_4 1_555 1_555
H31_4 C30_4 1_555 1_555
C31_4 C30_4 1_555 1_555
H32_4 C31_4 1_555 1_555
C32_4 C31_4 1_555 1_555
H33_4 C32_4 1_555 1_555
C33_4 C32_4 1_555 1_555
H34_4 C33_4 1_555 1_555
C34_4 C29_4 1_555 1_555
H35_4 C34_4 1_555 1_555
C35_4 B1_4 1_555 1_555
C36_4 C35_4 1_555 1_555
H36_4 C36_4 1_555 1_555
C37_4 C36_4 1_555 1_555
H37_4 C37_4 1_555 1_555
C38_4 C37_4 1_555 1_555
H38_4 C38_4 1_555 1_555
C39_4 C38_4 1_555 1_555
H39_4 C39_4 1_555 1_555
C40_4 C35_4 1_555 1_555
H40_4 C40_4 1_555 1_555
C41_4 C6_4 1_555 1_555
C42_4 C41_4 1_555 1_555
C43_4 C42_4 1_555 1_555
N6_4 C43_4 1_555 1_555
O9_4 N6_4 1_555 1_555
C44_4 N6_4 1_555 1_555
C45_4 C41_4 1_555 1_555
H41_4 C45_4 1_555 1_555
H42_4 C44_4 1_555 1_555
H43_4 C43_4 1_555 1_555
H44_4 C42_4 1_555 1_555
La3_2 O9_4 1_555 1_555
O14_4 La3_2 1_555 1_555
O15_4 La3_2 1_555 1_555
C67_4 O15_4 1_555 1_555
H65_4 C67_4 1_555 1_555
H66_4 C67_4 1_555 1_555
H74_4 C77_4 1_555 1_555
C78_4 C77_4 1_555 1_555
H75_4 C78_4 1_555 1_555
H76_4 C79_4 1_555 1_555
O16_4 La3_2 1_555 1_555
H77_4 O16_4 1_555 1_555
C80_4 O16_4 1_555 1_555
H78_4 C80_4 1_555 1_555
H79_4 C80_4 1_555 1_555
H80_4 C80_4 1_555 1_555
O18_4 La3_2 1_555 1_555
O20_4 La3_2 1_555 1_555
O2_4 B1_4 1_555 1_555
C7_4 C8_4 1_555 1_555
C33_4 C34_4 1_555 1_555
C39_4 C40_4 1_555 1_555
C44_4 C45_4 1_555 1_555
C78_4 C79_4 1_555 1_555
O20_4 N5_4 1_555 1_555
N3_4 O18_3 1_555 1_555
C19_4 N3_4 1_555 1_555
H23_4 C19_4 1_555 1_555
C20_4 C19_4 1_555 1_555
H24_4 C20_4 1_555 1_555
C21_4 C20_4 1_555 1_555
C22_4 C21_4 1_555 1_555
H25_4 C22_4 1_555 1_555
C23_4 N3_4 1_555 1_555
H26_4 C23_4 1_555 1_555
N5_4 C24_4 1_555 1_555
C24_4 H27_4 1_555 1_555
C25_4 C24_4 1_555 1_555
H28_4 C25_4 1_555 1_555
C26_4 C21_4 1_555 1_555
C27_4 C26_4 1_555 1_555
H29_4 C27_4 1_555 1_555
C28_4 N5_4 1_555 1_555
H30_4 C28_4 1_555 1_555
C56_4 H53_4 1_555 1_555
C57_4 C56_4 1_555 1_555
H54_4 C57_4 1_555 1_555
C58_4 C57_4 1_555 1_555
C59_4 C58_4 1_555 1_555
H55_4 C59_4 1_555 1_555
N10_4 O20_3 1_555 1_555
C61_4 N10_4 1_555 1_555
H57_4 C61_4 1_555 1_555
C62_4 C61_4 1_555 1_555
H58_4 C62_4 1_555 1_555
C63_4 C58_4 1_555 1_555
C64_4 C63_4 1_555 1_555
H59_4 C64_4 1_555 1_555
C65_4 N10_4 1_555 1_555
H60_4 C65_4 1_555 1_555
C22_4 C23_4 1_555 1_555
C25_4 C26_4 1_555 1_555
C27_4 C28_4 1_555 1_555
C59_4 C60_4 1_555 1_555
C62_4 C63_4 1_555 1_555
C64_4 C65_4 1_555 1_555
O18_4 N9_4 1_555 1_555
B3 C81 1_555 1_555
C81 C82 1_555 1_555
C82 H81 1_555 1_555
C83 C82 1_555 1_555
H82 C83 1_555 1_555
C84 C83 1_555 1_555
H83 C84 1_555 1_555
C85 C84 1_555 1_555
H84 C85 1_555 1_555
C86 C81 1_555 1_555
H85 C86 1_555 1_555
C87 B3 1_555 1_555
C88 C87 1_555 1_555
H86 C88 1_555 1_555
C89 C88 1_555 1_555
H87 C89 1_555 1_555
C90 C89 1_555 1_555
H88 C90 1_555 1_555
C91 C90 1_555 1_555
C92 C87 1_555 1_555
H90 C92 1_555 1_555
C93 B3 1_555 1_555
C94 C93 1_555 1_555
H91 C94 1_555 1_555
C95 C94 1_555 1_555
H92 C95 1_555 1_555
C96 C95 1_555 1_555
H93 C96 1_555 1_555
C97 C96 1_555 1_555
C98 C93 1_555 1_555
H95 C98 1_555 1_555
C99 B3 1_555 1_555
C100 C99 1_555 1_555
H96 C100 1_555 1_555
C101 C100 1_555 1_555
H97 C101 1_555 1_555
C102 C101 1_555 1_555
H98 C102 1_555 1_555
C103 C102 1_555 1_555
H99 C103 1_555 1_555
C104 C99 1_555 1_555
H100 C104 1_555 1_555
C85 C86 1_555 1_555
C91 C92 1_555 1_555
C97 C98 1_555 1_555
C103 C104 1_555 1_555
C94_2 C93_2 1_555 1_555
H91_2 C94_2 1_555 1_555
C95_2 C94_2 1_555 1_555
H92_2 C95_2 1_555 1_555
C96_2 C95_2 1_555 1_555
H93_2 C96_2 1_555 1_555
C97_2 C96_2 1_555 1_555
H94_2 C97_2 1_555 1_555
C98_2 C93_2 1_555 1_555
H96_2 C100_2 1_555 1_555
C101_2 C100_2 1_555 1_555
H97_2 C101_2 1_555 1_555
C102_2 C101_2 1_555 1_555
H98_2 C102_2 1_555 1_555
C97_2 C98_2 1_555 1_555
B3_2 C81_2 1_555 1_555
C81_2 C82_2 1_555 1_555
C82_2 H81_2 1_555 1_555
C83_2 C82_2 1_555 1_555
H82_2 C83_2 1_555 1_555
C84_2 C83_2 1_555 1_555
H83_2 C84_2 1_555 1_555
C85_2 C84_2 1_555 1_555
H84_2 C85_2 1_555 1_555
C86_2 C81_2 1_555 1_555
H85_2 C86_2 1_555 1_555
C87_2 B3_2 1_555 1_555
C88_2 C87_2 1_555 1_555
H86_2 C88_2 1_555 1_555
C89_2 C88_2 1_555 1_555
H87_2 C89_2 1_555 1_555
C90_2 C89_2 1_555 1_555
C91_2 C90_2 1_555 1_555
C92_2 C87_2 1_555 1_555
H90_2 C92_2 1_555 1_555
C99_2 B3_2 1_555 1_555
H99_2 C103_2 1_555 1_555
C104_2 C99_2 1_555 1_555
H100_2 C104_2 1_555 1_555
C85_2 C86_2 1_555 1_555
C91_2 C92_2 1_555 1_555
C103_2 C104_2 1_555 1_555
B3_3 C81_3 1_555 1_555
C81_3 C82_3 1_555 1_555
C82_3 H81_3 1_555 1_555
C83_3 C82_3 1_555 1_555
H82_3 C83_3 1_555 1_555
C84_3 C83_3 1_555 1_555
H83_3 C84_3 1_555 1_555
C85_3 C84_3 1_555 1_555
H84_3 C85_3 1_555 1_555
C86_3 C81_3 1_555 1_555
H85_3 C86_3 1_555 1_555
C87_3 B3_3 1_555 1_555
C88_3 C87_3 1_555 1_555
H86_3 C88_3 1_555 1_555
C89_3 C88_3 1_555 1_555
H87_3 C89_3 1_555 1_555
C90_3 C89_3 1_555 1_555
C91_3 C90_3 1_555 1_555
C92_3 C87_3 1_555 1_555
H90_3 C92_3 1_555 1_555
C99_3 B3_3 1_555 1_555
H99_3 C103_3 1_555 1_555
C104_3 C99_3 1_555 1_555
H100_3 C104_3 1_555 1_555
C85_3 C86_3 1_555 1_555
C91_3 C92_3 1_555 1_555
C103_3 C104_3 1_555 1_555
C94_3 C93_3 1_555 1_555
H91_3 C94_3 1_555 1_555
C95_3 C94_3 1_555 1_555
H92_3 C95_3 1_555 1_555
C96_3 C95_3 1_555 1_555
H93_3 C96_3 1_555 1_555
C97_3 C96_3 1_555 1_555
C98_3 C93_3 1_555 1_555
H96_3 C100_3 1_555 1_555
C101_3 C100_3 1_555 1_555
H97_3 C101_3 1_555 1_555
C102_3 C101_3 1_555 1_555
H98_3 C102_3 1_555 1_555
C97_3 C98_3 1_555 1_555
B3_4 C81_4 1_555 1_555
C81_4 C82_4 1_555 1_555
C82_4 H81_4 1_555 1_555
C83_4 C82_4 1_555 1_555
H82_4 C83_4 1_555 1_555
C84_4 C83_4 1_555 1_555
H83_4 C84_4 1_555 1_555
C85_4 C84_4 1_555 1_555
H84_4 C85_4 1_555 1_555
C86_4 C81_4 1_555 1_555
H85_4 C86_4 1_555 1_555
C87_4 B3_4 1_555 1_555
C88_4 C87_4 1_555 1_555
H86_4 C88_4 1_555 1_555
C89_4 C88_4 1_555 1_555
H87_4 C89_4 1_555 1_555
C90_4 C89_4 1_555 1_555
H88_4 C90_4 1_555 1_555
C91_4 C90_4 1_555 1_555
H89_4 C91_4 1_555 1_555
C92_4 C87_4 1_555 1_555
H90_4 C92_4 1_555 1_555
C93_4 B3_4 1_555 1_555
C94_4 C93_4 1_555 1_555
H91_4 C94_4 1_555 1_555
C95_4 C94_4 1_555 1_555
H92_4 C95_4 1_555 1_555
C96_4 C95_4 1_555 1_555
H93_4 C96_4 1_555 1_555
C97_4 C96_4 1_555 1_555
H94_4 C97_4 1_555 1_555
C98_4 C93_4 1_555 1_555
H95_4 C98_4 1_555 1_555
C99_4 B3_4 1_555 1_555
C100_4 C99_4 1_555 1_555
H96_4 C100_4 1_555 1_555
C101_4 C100_4 1_555 1_555
H97_4 C101_4 1_555 1_555
C102_4 C101_4 1_555 1_555
H98_4 C102_4 1_555 1_555
C103_4 C102_4 1_555 1_555
H99_4 C103_4 1_555 1_555
C104_4 C99_4 1_555 1_555
H100_4 C104_4 1_555 1_555
C85_4 C86_4 1_555 1_555
C91_4 C92_4 1_555 1_555
C97_4 C98_4 1_555 1_555
C103_4 C104_4 1_555 1_555
B3_5 C81_5 1_555 1_555
C81_5 C82_5 1_555 1_555
C82_5 H81_5 1_555 1_555
C83_5 C82_5 1_555 1_555
H82_5 C83_5 1_555 1_555
C84_5 C83_5 1_555 1_555
H83_5 C84_5 1_555 1_555
C85_5 C84_5 1_555 1_555
H84_5 C85_5 1_555 1_555
C86_5 C81_5 1_555 1_555
H85_5 C86_5 1_555 1_555
C87_5 B3_5 1_555 1_555
C88_5 C87_5 1_555 1_555
H86_5 C88_5 1_555 1_555
C89_5 C88_5 1_555 1_555
H87_5 C89_5 1_555 1_555
C90_5 C89_5 1_555 1_555
H88_5 C90_5 1_555 1_555
C91_5 C90_5 1_555 1_555
C92_5 C87_5 1_555 1_555
H90_5 C92_5 1_555 1_555
C93_5 B3_5 1_555 1_555
C94_5 C93_5 1_555 1_555
H91_5 C94_5 1_555 1_555
C95_5 C94_5 1_555 1_555
H92_5 C95_5 1_555 1_555
C96_5 C95_5 1_555 1_555
H93_5 C96_5 1_555 1_555
C97_5 C96_5 1_555 1_555
C98_5 C93_5 1_555 1_555
H95_5 C98_5 1_555 1_555
C99_5 B3_5 1_555 1_555
C100_5 C99_5 1_555 1_555
H96_5 C100_5 1_555 1_555
C101_5 C100_5 1_555 1_555
H97_5 C101_5 1_555 1_555
C102_5 C101_5 1_555 1_555
H98_5 C102_5 1_555 1_555
C103_5 C102_5 1_555 1_555
H99_5 C103_5 1_555 1_555
C104_5 C99_5 1_555 1_555
H100_5 C104_5 1_555 1_555
C85_5 C86_5 1_555 1_555
C91_5 C92_5 1_555 1_555
C97_5 C98_5 1_555 1_555
C103_5 C104_5 1_555 1_555
B3_6 C81_6 1_555 1_555
C81_6 C82_6 1_555 1_555
C82_6 H81_6 1_555 1_555
C83_6 C82_6 1_555 1_555
H82_6 C83_6 1_555 1_555
C84_6 C83_6 1_555 1_555
H83_6 C84_6 1_555 1_555
C85_6 C84_6 1_555 1_555
H84_6 C85_6 1_555 1_555
C86_6 C81_6 1_555 1_555
H85_6 C86_6 1_555 1_555
C87_6 B3_6 1_555 1_555
C88_6 C87_6 1_555 1_555
H86_6 C88_6 1_555 1_555
C89_6 C88_6 1_555 1_555
H87_6 C89_6 1_555 1_555
C90_6 C89_6 1_555 1_555
C91_6 C90_6 1_555 1_555
C92_6 C87_6 1_555 1_555
H90_6 C92_6 1_555 1_555
C99_6 B3_6 1_555 1_555
H99_6 C103_6 1_555 1_555
C104_6 C99_6 1_555 1_555
H100_6 C104_6 1_555 1_555
C85_6 C86_6 1_555 1_555
C91_6 C92_6 1_555 1_555
C103_6 C104_6 1_555 1_555
C94_6 C93_6 1_555 1_555
H91_6 C94_6 1_555 1_555
C95_6 C94_6 1_555 1_555
H92_6 C95_6 1_555 1_555
C96_6 C95_6 1_555 1_555
H93_6 C96_6 1_555 1_555
C97_6 C96_6 1_555 1_555
H94_6 C97_6 1_555 1_555
C98_6 C93_6 1_555 1_555
H96_6 C100_6 1_555 1_555
C101_6 C100_6 1_555 1_555
H97_6 C101_6 1_555 1_555
C102_6 C101_6 1_555 1_555
H98_6 C102_6 1_555 1_555
C97_6 C98_6 1_555 1_555
C94_7 C93_7 1_555 1_555
H91_7 C94_7 1_555 1_555
C95_7 C94_7 1_555 1_555
H92_7 C95_7 1_555 1_555
C96_7 C95_7 1_555 1_555
H93_7 C96_7 1_555 1_555
C97_7 C96_7 1_555 1_555
C98_7 C93_7 1_555 1_555
H96_7 C100_7 1_555 1_555
C101_7 C100_7 1_555 1_555
H97_7 C101_7 1_555 1_555
C102_7 C101_7 1_555 1_555
H98_7 C102_7 1_555 1_555
C97_7 C98_7 1_555 1_555
B3_7 C81_7 1_555 1_555
C81_7 C82_7 1_555 1_555
C82_7 H81_7 1_555 1_555
C83_7 C82_7 1_555 1_555
H82_7 C83_7 1_555 1_555
C84_7 C83_7 1_555 1_555
H83_7 C84_7 1_555 1_555
C85_7 C84_7 1_555 1_555
H84_7 C85_7 1_555 1_555
C86_7 C81_7 1_555 1_555
H85_7 C86_7 1_555 1_555
C87_7 B3_7 1_555 1_555
C88_7 C87_7 1_555 1_555
H86_7 C88_7 1_555 1_555
C89_7 C88_7 1_555 1_555
H87_7 C89_7 1_555 1_555
C90_7 C89_7 1_555 1_555
C91_7 C90_7 1_555 1_555
C92_7 C87_7 1_555 1_555
H90_7 C92_7 1_555 1_555
C99_7 B3_7 1_555 1_555
H99_7 C103_7 1_555 1_555
C104_7 C99_7 1_555 1_555
H100_7 C104_7 1_555 1_555
C85_7 C86_7 1_555 1_555
C91_7 C92_7 1_555 1_555
C103_7 C104_7 1_555 1_555
B3_8 C81_8 1_555 1_555
C81_8 C82_8 1_555 1_555
C82_8 H81_8 1_555 1_555
C83_8 C82_8 1_555 1_555
H82_8 C83_8 1_555 1_555
C84_8 C83_8 1_555 1_555
H83_8 C84_8 1_555 1_555
C85_8 C84_8 1_555 1_555
H84_8 C85_8 1_555 1_555
C86_8 C81_8 1_555 1_555
H85_8 C86_8 1_555 1_555
C87_8 B3_8 1_555 1_555
C88_8 C87_8 1_555 1_555
H86_8 C88_8 1_555 1_555
C89_8 C88_8 1_555 1_555
H87_8 C89_8 1_555 1_555
C90_8 C89_8 1_555 1_555
H88_8 C90_8 1_555 1_555
C91_8 C90_8 1_555 1_555
H89_8 C91_8 1_555 1_555
C92_8 C87_8 1_555 1_555
H90_8 C92_8 1_555 1_555
C93_8 B3_8 1_555 1_555
C94_8 C93_8 1_555 1_555
H91_8 C94_8 1_555 1_555
C95_8 C94_8 1_555 1_555
H92_8 C95_8 1_555 1_555
C96_8 C95_8 1_555 1_555
H93_8 C96_8 1_555 1_555
C97_8 C96_8 1_555 1_555
H94_8 C97_8 1_555 1_555
C98_8 C93_8 1_555 1_555
H95_8 C98_8 1_555 1_555
C99_8 B3_8 1_555 1_555
C100_8 C99_8 1_555 1_555
H96_8 C100_8 1_555 1_555
C101_8 C100_8 1_555 1_555
H97_8 C101_8 1_555 1_555
C102_8 C101_8 1_555 1_555
H98_8 C102_8 1_555 1_555
C103_8 C102_8 1_555 1_555
H99_8 C103_8 1_555 1_555
C104_8 C99_8 1_555 1_555
H100_8 C104_8 1_555 1_555
C85_8 C86_8 1_555 1_555
C91_8 C92_8 1_555 1_555
C97_8 C98_8 1_555 1_555
C103_8 C104_8 1_555 1_555
B4 C105 1_555 1_555
H104 C109 1_555 1_555
C110 C105 1_555 1_555
H105 C110 1_555 1_555
C111 B4 1_555 1_555
C112 C111 1_555 1_555
H106 C112 1_555 1_555
C113 C112 1_555 1_555
H107 C113 1_555 1_555
C114 C113 1_555 1_555
H108 C114 1_555 1_555
C115 C114 1_555 1_555
H109 C115 1_555 1_555
C116 C111 1_555 1_555
H110 C116 1_555 1_555
C117 B4 1_555 1_555
C118 C117 1_555 1_555
H111 C118 1_555 1_555
C123 B4 1_555 1_555
C124 C123 1_555 1_555
H116 C124 1_555 1_555
C125 C124 1_555 1_555
H117 C125 1_555 1_555
C126 C125 1_555 1_555
H118 C126 1_555 1_555
C127 C126 1_555 1_555
H119 C127 1_555 1_555
C128 C123 1_555 1_555
H120 C128 1_555 1_555
C109 C110 1_555 1_555
C115 C116 1_555 1_555
C127 C128 1_555 1_555
C106 H101 1_555 1_555
C107 C106 1_555 1_555
H102 C107 1_555 1_555
C108 C107 1_555 1_555
H103 C108 1_555 1_555
C120 C119 1_555 1_555
H113 C120 1_555 1_555
C121 C120 1_555 1_555
H114 C121 1_555 1_555
H115 C122 1_555 1_555
C121 C122 1_555 1_555
B4_2 C105_2 1_555 1_555
C111_2 B4_2 1_555 1_555
C117_2 B4_2 1_555 1_555
C118_2 C117_2 1_555 1_555
H111_2 C118_2 1_555 1_555
C119_2 C118_2 1_555 1_555
H112_2 C119_2 1_555 1_555
C120_2 C119_2 1_555 1_555
H113_2 C120_2 1_555 1_555
C121_2 C120_2 1_555 1_555
H114_2 C121_2 1_555 1_555
C122_2 C117_2 1_555 1_555
H115_2 C122_2 1_555 1_555
C123_2 B4_2 1_555 1_555
C124_2 C123_2 1_555 1_555
H116_2 C124_2 1_555 1_555
C125_2 C124_2 1_555 1_555
H117_2 C125_2 1_555 1_555
C126_2 C125_2 1_555 1_555
H118_2 C126_2 1_555 1_555
C127_2 C126_2 1_555 1_555
H119_2 C127_2 1_555 1_555
C128_2 C123_2 1_555 1_555
H120_2 C128_2 1_555 1_555
C121_2 C122_2 1_555 1_555
C127_2 C128_2 1_555 1_555
C106_2 H101_2 1_555 1_555
C107_2 C106_2 1_555 1_555
H102_2 C107_2 1_555 1_555
C108_2 C107_2 1_555 1_555
H103_2 C108_2 1_555 1_555
C109_2 C108_2 1_555 1_555
H104_2 C109_2 1_555 1_555
H105_2 C110_2 1_555 1_555
H106_2 C112_2 1_555 1_555
C113_2 C112_2 1_555 1_555
H107_2 C113_2 1_555 1_555
C114_2 C113_2 1_555 1_555
H108_2 C114_2 1_555 1_555
C115_2 C114_2 1_555 1_555
H109_2 C115_2 1_555 1_555
C109_2 C110_2 1_555 1_555
C115_2 C116_2 1_555 1_555
B4_3 C105_3 1_555 1_555
C105_3 C106_3 1_555 1_555
C106_3 H101_3 1_555 1_555
C107_3 C106_3 1_555 1_555
H102_3 C107_3 1_555 1_555
C108_3 C107_3 1_555 1_555
H103_3 C108_3 1_555 1_555
C109_3 C108_3 1_555 1_555
H104_3 C109_3 1_555 1_555
C110_3 C105_3 1_555 1_555
H105_3 C110_3 1_555 1_555
C111_3 B4_3 1_555 1_555
C112_3 C111_3 1_555 1_555
H106_3 C112_3 1_555 1_555
C113_3 C112_3 1_555 1_555
H107_3 C113_3 1_555 1_555
C114_3 C113_3 1_555 1_555
H108_3 C114_3 1_555 1_555
C115_3 C114_3 1_555 1_555
H109_3 C115_3 1_555 1_555
C116_3 C111_3 1_555 1_555
H110_3 C116_3 1_555 1_555
C117_3 B4_3 1_555 1_555
C118_3 C117_3 1_555 1_555
H111_3 C118_3 1_555 1_555
C119_3 C118_3 1_555 1_555
H112_3 C119_3 1_555 1_555
C120_3 C119_3 1_555 1_555
H113_3 C120_3 1_555 1_555
C121_3 C120_3 1_555 1_555
H114_3 C121_3 1_555 1_555
C122_3 C117_3 1_555 1_555
H115_3 C122_3 1_555 1_555
C123_3 B4_3 1_555 1_555
C124_3 C123_3 1_555 1_555
H116_3 C124_3 1_555 1_555
C125_3 C124_3 1_555 1_555
H117_3 C125_3 1_555 1_555
C126_3 C125_3 1_555 1_555
H118_3 C126_3 1_555 1_555
C127_3 C126_3 1_555 1_555
H119_3 C127_3 1_555 1_555
C128_3 C123_3 1_555 1_555
H120_3 C128_3 1_555 1_555
C109_3 C110_3 1_555 1_555
C115_3 C116_3 1_555 1_555
C121_3 C122_3 1_555 1_555
C127_3 C128_3 1_555 1_555
C120_4 C119_4 1_555 1_555
H113_4 C120_4 1_555 1_555
C121_4 C120_4 1_555 1_555
H114_4 C121_4 1_555 1_555
H115_4 C122_4 1_555 1_555
C121_4 C122_4 1_555 1_555
B4_4 C105_4 1_555 1_555
C111_4 B4_4 1_555 1_555
C117_4 B4_4 1_555 1_555
C118_4 C117_4 1_555 1_555
H111_4 C118_4 1_555 1_555
C123_4 B4_4 1_555 1_555
C124_4 C123_4 1_555 1_555
H116_4 C124_4 1_555 1_555
C125_4 C124_4 1_555 1_555
H117_4 C125_4 1_555 1_555
C126_4 C125_4 1_555 1_555
H118_4 C126_4 1_555 1_555
C127_4 C126_4 1_555 1_555
H119_4 C127_4 1_555 1_555
C128_4 C123_4 1_555 1_555
H120_4 C128_4 1_555 1_555
C127_4 C128_4 1_555 1_555
C106_4 H101_4 1_555 1_555
C107_4 C106_4 1_555 1_555
H102_4 C107_4 1_555 1_555
C108_4 C107_4 1_555 1_555
H103_4 C108_4 1_555 1_555
H104_4 C109_4 1_555 1_555
H105_4 C110_4 1_555 1_555
H106_4 C112_4 1_555 1_555
C113_4 C112_4 1_555 1_555
H107_4 C113_4 1_555 1_555
C114_4 C113_4 1_555 1_555
H108_4 C114_4 1_555 1_555
C115_4 C114_4 1_555 1_555
H109_4 C115_4 1_555 1_555
C109_4 C110_4 1_555 1_555
C115_4 C116_4 1_555 1_555
C106_5 H101_5 1_555 1_555
C107_5 C106_5 1_555 1_555
H102_5 C107_5 1_555 1_555
C108_5 C107_5 1_555 1_555
H103_5 C108_5 1_555 1_555
C120_5 C119_5 1_555 1_555
H113_5 C120_5 1_555 1_555
C121_5 C120_5 1_555 1_555
H114_5 C121_5 1_555 1_555
H115_5 C122_5 1_555 1_555
C121_5 C122_5 1_555 1_555
B4_5 C105_5 1_555 1_555
H104_5 C109_5 1_555 1_555
C110_5 C105_5 1_555 1_555
H105_5 C110_5 1_555 1_555
C111_5 B4_5 1_555 1_555
C112_5 C111_5 1_555 1_555
H106_5 C112_5 1_555 1_555
C113_5 C112_5 1_555 1_555
H107_5 C113_5 1_555 1_555
C114_5 C113_5 1_555 1_555
H108_5 C114_5 1_555 1_555
C115_5 C114_5 1_555 1_555
H109_5 C115_5 1_555 1_555
C116_5 C111_5 1_555 1_555
H110_5 C116_5 1_555 1_555
C117_5 B4_5 1_555 1_555
C118_5 C117_5 1_555 1_555
H111_5 C118_5 1_555 1_555
C123_5 B4_5 1_555 1_555
C124_5 C123_5 1_555 1_555
H116_5 C124_5 1_555 1_555
C125_5 C124_5 1_555 1_555
H117_5 C125_5 1_555 1_555
C126_5 C125_5 1_555 1_555
H118_5 C126_5 1_555 1_555
C127_5 C126_5 1_555 1_555
H119_5 C127_5 1_555 1_555
C128_5 C123_5 1_555 1_555
H120_5 C128_5 1_555 1_555
C109_5 C110_5 1_555 1_555
C115_5 C116_5 1_555 1_555
C127_5 C128_5 1_555 1_555
C106_6 H101_6 1_555 1_555
C107_6 C106_6 1_555 1_555
H102_6 C107_6 1_555 1_555
C108_6 C107_6 1_555 1_555
H103_6 C108_6 1_555 1_555
C109_6 C108_6 1_555 1_555
H104_6 C109_6 1_555 1_555
H105_6 C110_6 1_555 1_555
H106_6 C112_6 1_555 1_555
C113_6 C112_6 1_555 1_555
H107_6 C113_6 1_555 1_555
C114_6 C113_6 1_555 1_555
H108_6 C114_6 1_555 1_555
C115_6 C114_6 1_555 1_555
H109_6 C115_6 1_555 1_555
C109_6 C110_6 1_555 1_555
C115_6 C116_6 1_555 1_555
B4_6 C105_6 1_555 1_555
C111_6 B4_6 1_555 1_555
C117_6 B4_6 1_555 1_555
C118_6 C117_6 1_555 1_555
H111_6 C118_6 1_555 1_555
C119_6 C118_6 1_555 1_555
H112_6 C119_6 1_555 1_555
C120_6 C119_6 1_555 1_555
H113_6 C120_6 1_555 1_555
C121_6 C120_6 1_555 1_555
H114_6 C121_6 1_555 1_555
C122_6 C117_6 1_555 1_555
H115_6 C122_6 1_555 1_555
C123_6 B4_6 1_555 1_555
C124_6 C123_6 1_555 1_555
H116_6 C124_6 1_555 1_555
C125_6 C124_6 1_555 1_555
H117_6 C125_6 1_555 1_555
C126_6 C125_6 1_555 1_555
H118_6 C126_6 1_555 1_555
C127_6 C126_6 1_555 1_555
H119_6 C127_6 1_555 1_555
C128_6 C123_6 1_555 1_555
H120_6 C128_6 1_555 1_555
C121_6 C122_6 1_555 1_555
C127_6 C128_6 1_555 1_555
B4_7 C105_7 1_555 1_555
C105_7 C106_7 1_555 1_555
C106_7 H101_7 1_555 1_555
C107_7 C106_7 1_555 1_555
H102_7 C107_7 1_555 1_555
C108_7 C107_7 1_555 1_555
H103_7 C108_7 1_555 1_555
C109_7 C108_7 1_555 1_555
H104_7 C109_7 1_555 1_555
C110_7 C105_7 1_555 1_555
H105_7 C110_7 1_555 1_555
C111_7 B4_7 1_555 1_555
C112_7 C111_7 1_555 1_555
H106_7 C112_7 1_555 1_555
C113_7 C112_7 1_555 1_555
H107_7 C113_7 1_555 1_555
C114_7 C113_7 1_555 1_555
H108_7 C114_7 1_555 1_555
C115_7 C114_7 1_555 1_555
H109_7 C115_7 1_555 1_555
C116_7 C111_7 1_555 1_555
H110_7 C116_7 1_555 1_555
C117_7 B4_7 1_555 1_555
C118_7 C117_7 1_555 1_555
H111_7 C118_7 1_555 1_555
C119_7 C118_7 1_555 1_555
H112_7 C119_7 1_555 1_555
C120_7 C119_7 1_555 1_555
H113_7 C120_7 1_555 1_555
C121_7 C120_7 1_555 1_555
H114_7 C121_7 1_555 1_555
C122_7 C117_7 1_555 1_555
H115_7 C122_7 1_555 1_555
C123_7 B4_7 1_555 1_555
C124_7 C123_7 1_555 1_555
H116_7 C124_7 1_555 1_555
C125_7 C124_7 1_555 1_555
H117_7 C125_7 1_555 1_555
C126_7 C125_7 1_555 1_555
H118_7 C126_7 1_555 1_555
C127_7 C126_7 1_555 1_555
H119_7 C127_7 1_555 1_555
C128_7 C123_7 1_555 1_555
H120_7 C128_7 1_555 1_555
C109_7 C110_7 1_555 1_555
C115_7 C116_7 1_555 1_555
C121_7 C122_7 1_555 1_555
C127_7 C128_7 1_555 1_555
H104_8 C109_8 1_555 1_555
H105_8 C110_8 1_555 1_555
H106_8 C112_8 1_555 1_555
C113_8 C112_8 1_555 1_555
H107_8 C113_8 1_555 1_555
C114_8 C113_8 1_555 1_555
H108_8 C114_8 1_555 1_555
C115_8 C114_8 1_555 1_555
H109_8 C115_8 1_555 1_555
C109_8 C110_8 1_555 1_555
C115_8 C116_8 1_555 1_555
C106_8 H101_8 1_555 1_555
C107_8 C106_8 1_555 1_555
H102_8 C107_8 1_555 1_555
C108_8 C107_8 1_555 1_555
H103_8 C108_8 1_555 1_555
B4_8 C105_8 1_555 1_555
C111_8 B4_8 1_555 1_555
C117_8 B4_8 1_555 1_555
C118_8 C117_8 1_555 1_555
H111_8 C118_8 1_555 1_555
C123_8 B4_8 1_555 1_555
C124_8 C123_8 1_555 1_555
H116_8 C124_8 1_555 1_555
C125_8 C124_8 1_555 1_555
H117_8 C125_8 1_555 1_555
C126_8 C125_8 1_555 1_555
H118_8 C126_8 1_555 1_555
C127_8 C126_8 1_555 1_555
H119_8 C127_8 1_555 1_555
C128_8 C123_8 1_555 1_555
H120_8 C128_8 1_555 1_555
C127_8 C128_8 1_555 1_555
C120_8 C119_8 1_555 1_555
H113_8 C120_8 1_555 1_555
C121_8 C120_8 1_555 1_555
H114_8 C121_8 1_555 1_555
H115_8 C122_8 1_555 1_555
C121_8 C122_8 1_555 1_555

#END
