
###############################################################################
#
# This file contains modified crystal structure data generated from the
# MOF subset of the Cambridge Structural Database (CSD) v543 
# hosted by the Cambridge Crystallographic Data Centre (CCDC).
#
# This work is licensed under the Creative Commons
# Attribution-NonCommercial-ShareAlike 4.0 International License.
# To view a copy of this license, visit
# http://creativecommons.org/licenses/by-nc-sa/4.0/
# or send a letter to
# Creative Commons, PO Box 1866, Mountain View, CA 94042, USA.
#
# CIF created using the CSD Python API on 29 September 2022
# The structure has been converted into the P1 space group
# The structure has a 3D framework
# The original CSD entry QIBTAW is in the monoclinic crystal system
# The framework has been calculated to contain at least 10.0% void space
# The void calculation uses a probe of radius 1.32A, grid spacing 0.4
# The framework is charged, counterions have been retained in the structure
# H atom positions have been added when not included in the experimental data
#
###############################################################################

data_QIBTAW
_chemical_formula_moiety         '(C604 H554 B16 Cl8 La8 N40 O60)n'
_symmetry_cell_setting           triclinic
_symmetry_space_group_name_H-M   'P 1'
_symmetry_Int_Tables_number      1
_space_group_name_Hall           'P 1'
loop_
_symmetry_equiv_pos_site_id
_symmetry_equiv_pos_as_xyz
1 x,y,z
_cell_length_a                   15.134(3)
_cell_length_b                   47.621(8)
_cell_length_c                   22.431(4)
_cell_angle_alpha                90
_cell_angle_beta                 91.947(2)
_cell_angle_gamma                90
_cell_volume                     16156.6
loop_
_atom_site_label
_atom_site_type_symbol
_atom_site_fract_x
_atom_site_fract_y
_atom_site_fract_z
O10 O 0.5592(6) 0.62048(17) 0.0171(4)
H7 H 0.5362 0.6365 0.0148
H25 H 0.2092 0.3353 0.0332
H32 H 0.8254 0.6509 0.0162
H33 H 0.7251 0.6587 0.0295
C10 C 0.4995(10) 0.6017(3) 0.0422(7)
H35 H 0.4834 0.6085 0.0816
H36 H 0.5271 0.5831 0.0462
H37 H 0.4462 0.6003 0.0163
O22 O 0.0663(5) 0.36874(15) 0.0012(3)
O28 O 0.5857(5) 0.35874(15) 0.3014(3)
N12 N 0.0161(6) 0.37245(13) 0.0495(4)
C66 C 0.0030(7) 0.39864(15) 0.0709(4)
H81 H 0.0289 0.4143 0.0520
H85 H 0.0674 0.4698 0.0208
C77 C 0.4052(6) 0.3698(2) 0.0372(3)
H90 H 0.4544 0.3576 0.0348
C78 C 0.3832(6) 0.38122(18) 0.0922(3)
C79 C 0.3106(6) 0.39904(18) 0.0936(3)
H91 H 0.2937 0.4068 0.1305
C80 C 0.2626(6) 0.40563(18) 0.0422(3)
H92 H 0.2133 0.4180 0.0436
N18 N 0.5351(4) 0.36431(17) 0.2523(3)
C96 C 0.4475(5) 0.3697(2) 0.2553(3)
H105 H 0.4206 0.3694 0.2930
C97 C 0.3969(5) 0.3756(2) 0.2049(3)
H106 H 0.3360 0.3799 0.2081
C98 C 0.4347(5) 0.3752(2) 0.1488(3)
C99 C 0.5248(5) 0.3693(2) 0.1472(3)
H107 H 0.5529 0.3692 0.1099
C100 C 0.5736(5) 0.3638(2) 0.1986(3)
H108 H 0.6348 0.3596 0.1965
La10 La 0.59360(4) 0.381020(12) 0.40401(3)
Cl1 Cl 0.3865(2) 0.13707(7) 0.41255(15)
Cl3 Cl 0.4131(2) 0.63323(6) 0.90898(12)
O1 O 0.2390(7) 0.12495(19) 0.3059(4)
H1 H 0.1855 0.1282 0.2973
O2 O 0.0638(7) 0.13861(19) 0.3584(4)
O5 O 0.0305(5) 0.37955(14) 0.7903(3)
H3 H 0.0318 0.3629 0.7783
O6 O 0.2063(5) 0.34048(15) 0.9437(3)
O8 O 0.2259(5) 0.36518(15) 0.8303(3)
H5 H 0.2702 0.3757 0.8338
O9 O 0.7372(6) 0.63034(19) 0.9653(4)
H6 H 0.7683 0.6164 0.9755
C1 C 0.2946(13) 0.1422(4) 0.2683(9)
H8 H 0.3139 0.1310 0.2345
H9 H 0.3464 0.1487 0.2918
H10 H 0.2607 0.1584 0.2535
C2 C 0.0505(11) 0.1563(3) 0.3053(7)
H11 H 0.0069 0.1709 0.3133
H12 H 0.0290 0.1447 0.2718
H13 H 0.1067 0.1650 0.2954
C5 C 0.0242(10) 0.3984(3) 0.7395(7)
H21 H 0.0674 0.3928 0.7102
H22 H 0.0363 0.4176 0.7527
C6 C 0.2083(8) 0.3231(2) 0.9980(5)
H23 H 0.2615 0.3113 0.9989
H24 H 0.1557 0.3111 0.9980
C8 C 0.2222(9) 0.3531(3) 0.7723(6)
H29 H 0.2697 0.3393 0.7690
H30 H 0.2295 0.3679 0.7425
H31 H 0.1650 0.3439 0.7653
C9 C 0.7666(12) 0.6546(3) 0.9981(8)
H34 H 0.7697 0.6707 0.9711
O11 O 0.2527(5) 0.08859(15) 0.4951(3)
O12 O 0.1720(5) 0.08096(16) 0.3725(4)
O13 O 0.1907(5) 0.17752(16) 0.4003(4)
O14 O 0.2252(5) 0.14784(15) 0.5206(3)
O15 O 0.0672(6) 0.11604(17) 0.4706(4)
O17 O 0.5580(5) 0.09604(16) 0.8824(4)
O21 O 0.0500(5) 0.33383(15) 0.8662(3)
O23 O 0.0638(5) 0.42649(14) 0.9572(3)
O24 O 0.2404(5) 0.40064(14) 0.9394(3)
O25 O 0.1361(5) 0.42355(14) 0.8373(3)
O26 O 0.5328(5) 0.58270(14) 0.8263(3)
O30 O 0.6128(5) 0.33109(15) 0.4214(3)
N1 N 0.3030(5) 0.06538(14) 0.4922(3)
C11 C 0.3724(5) 0.06493(16) 0.4553(3)
H38 H 0.3843 0.0806 0.4307
C12 C 0.4252(5) 0.04153(15) 0.4539(3)
H39 H 0.4736 0.0412 0.4280
C13 C 0.4096(5) 0.01815(15) 0.4894(3)
C14 C 0.3377(5) 0.01952(15) 0.5267(3)
H40 H 0.3250 0.0041 0.5520
C15 C 0.2854(5) 0.04309(15) 0.5270(3)
H41 H 0.2361 0.0437 0.5521
N2 N 0.1028(6) 0.06316(17) 0.3753(3)
C16 C 0.0751(7) 0.0535(2) 0.4284(4)
H42 H 0.1024 0.0603 0.4643
C17 C 0.0080(6) 0.0341(2) 0.4308(3)
C20 C 0.0619(7) 0.0548(2) 0.3236(4)
H45 H 0.0792 0.0625 0.2867
N3 N 0.2526(6) 0.19837(17) 0.4030(4)
C21 C 0.2541(7) 0.2171(2) 0.3573(4)
H46 H 0.2136 0.2152 0.3243
C22 C 0.3141(7) 0.2387(2) 0.3588(4)
H47 H 0.3145 0.2516 0.3266
C23 C 0.3747(6) 0.24199(19) 0.4068(4)
C24 C 0.3710(6) 0.22235(19) 0.4530(4)
H48 H 0.4095 0.2242 0.4871
C25 C 0.3121(7) 0.20044(19) 0.4495(4)
H49 H 0.3131 0.1866 0.4800
N4 N 0.2730(5) 0.14038(17) 0.5698(3)
C26 C 0.3569(5) 0.1311(2) 0.5666(4)
H50 H 0.3837 0.1300 0.5290
C27 C 0.4037(6) 0.1233(2) 0.6174(4)
H51 H 0.4629 0.1169 0.6147
C28 C 0.3650(6) 0.1247(2) 0.6732(4)
C29 C 0.2794(6) 0.1355(2) 0.6744(4)
H52 H 0.2518 0.1376 0.7116
C30 C 0.2342(6) 0.1434(2) 0.6230(4)
H53 H 0.1761 0.1508 0.6247
N5 N 0.0231(6) 0.11935(18) 0.5220(3)
C31 C 0.0464(6) 0.1028(2) 0.5689(4)
H54 H 0.0965 0.0908 0.5670
H55 H 0.0105 0.0907 0.6511
N7 N 0.5105(5) 0.10214(17) 0.8329(3)
C41 C 0.5379(6) 0.0928(2) 0.7793(3)
H62 H 0.5888 0.0812 0.7779
C42 C 0.4929(6) 0.0999(2) 0.7271(4)
H63 H 0.5147 0.0940 0.6900
C43 C 0.4156(6) 0.11582(19) 0.7283(3)
C44 C 0.3867(6) 0.1238(2) 0.7844(4)
H64 H 0.3332 0.1341 0.7871
C45 C 0.4347(7) 0.1170(3) 0.8357(4)
H65 H 0.4143 0.1227 0.8733
N11 N 0.0102(4) 0.30877(14) 0.8743(4)
C64 C 0.0141(5) 0.26036(15) 0.8989(5)
H79 H 0.0475 0.2442 0.9102
C65 C 0.0569(5) 0.28555(15) 0.8902(5)
H80 H 0.1193 0.2866 0.8953
N13 N 0.0151(5) 0.44961(13) 0.9498(3)
C71 C 0.0233(6) 0.47081(16) 0.9897(4)
N14 N 0.2864(5) 0.39433(17) 0.9895(3)
C76 C 0.3552(5) 0.37647(17) 0.9865(3)
H89 H 0.3694 0.3684 0.9493
N15 N 0.1927(5) 0.44467(14) 0.8362(3)
C81 C 0.2205(6) 0.45370(18) 0.7825(3)
H93 H 0.2000 0.4445 0.7471
C82 C 0.2778(6) 0.47594(17) 0.7785(3)
H94 H 0.2971 0.4818 0.7407
C83 C 0.3076(6) 0.48995(17) 0.8299(3)
C84 C 0.2776(6) 0.48009(16) 0.8845(3)
H95 H 0.2972 0.4890 0.9205
C85 C 0.2201(6) 0.45766(16) 0.8868(3)
H96 H 0.1998 0.4514 0.9241
N16 N 0.4803(5) 0.56071(13) 0.8277(3)
C86 C 0.4102(5) 0.56045(16) 0.8639(4)
H97 H 0.3989 0.5762 0.8885
C87 C 0.3557(6) 0.53742(16) 0.8651(4)
H98 H 0.3078 0.5373 0.8914
C88 C 0.3692(5) 0.51428(15) 0.8286(4)
C89 C 0.4415(5) 0.51534(16) 0.7916(4)
H99 H 0.4535 0.4999 0.7662
C90 C 0.4956(6) 0.53853(15) 0.7917(4)
H100 H 0.5444 0.5390 0.7661
N20 N 0.5565(5) 0.30986(16) 0.4170(3)
C106 C 0.5199(7) 0.3022(2) 0.3635(3)
H113 H 0.5349 0.3122 0.3285
C107 C 0.4615(7) 0.2802(2) 0.3592(4)
H114 H 0.4370 0.2750 0.3212
C108 C 0.4374(7) 0.26529(19) 0.4100(4)
C109 C 0.4740(7) 0.27434(19) 0.4645(4)
H115 H 0.4584 0.2652 0.5002
C110 C 0.5325(7) 0.29639(19) 0.4671(3)
H116 H 0.5565 0.3023 0.5047
La1 La 0.20196(5) 0.126370(12) 0.41953(3)
La3 La 0.10153(4) 0.380650(11) 0.89740(3)
La4 La 0.59360(4) 0.618980(12) 0.90401(3)
La5 La 0.70659(5) 0.108470(12) 0.92146(3)
O34 O 0.6240(6) 0.57237(16) 0.9463(4)
O35 O 0.5857(5) 0.64126(15) 0.8014(3)
O36 O 0.7256(5) 0.60224(15) 0.8542(3)
O37 O 0.6128(5) 0.66891(15) 0.9214(3)
O19 O 0.6570(5) 0.93063(15) 0.4867(3)
N9 N 0.5948(5) 0.95062(16) 0.4862(3)
C51 C 0.5646(7) 0.9594(2) 0.5394(3)
H69 H 0.5860 0.9509 0.5754
C52 C 0.5031(7) 0.9806(2) 0.5411(4)
H70 H 0.4810 0.9861 0.5785
C53 C 0.4724(6) 0.99424(19) 0.4895(3)
C54 C 0.5037(6) 0.98398(18) 0.4354(3)
H71 H 0.4819 0.9917 0.3988
C55 C 0.5655(6) 0.96294(17) 0.4351(3)
H72 H 0.5881 0.9569 0.3982
La7 La 0.70659(5) 0.891530(12) 0.42146(3)
O4 O 0.7871(6) 0.10997(18) 0.0237(4)
C3 C 0.5840(14) 0.1547(4) 0.0241(9)
H14 H 0.5488 0.1497 0.0584
H15 H 0.5560 0.1704 0.0027
H16 H 0.6437 0.1601 0.0380
C4 C 0.7571(9) 0.1028(3) 0.0840(6)
H17 H 0.7747 0.1177 0.1120
H18 H 0.7843 0.0850 0.0969
H19 H 0.6926 0.1008 0.0828
O29 O 0.7256(5) 0.39776(15) 0.3542(3)
C67 C 0.9520(7) 0.40255(15) 0.1198(4)
H82 H 0.9424 0.4210 0.1344
C68 C 0.9141(6) 0.37963(14) 0.1483(4)
C69 C 0.9317(7) 0.35295(15) 0.1262(4)
H83 H 0.9088 0.3369 0.1454
C70 C 0.9821(7) 0.34976(15) 0.0766(4)
H84 H 0.9930 0.3315 0.0615
H86 H 0.9761 0.5085 0.0143
H103 H 0.8561 0.5324 0.0266
H104 H 0.7381 0.5630 0.0280
N19 N 0.7676(5) 0.39211(14) 0.3037(3)
C101 C 0.8241(6) 0.37043(17) 0.3025(3)
H109 H 0.8319 0.3586 0.3364
C102 C 0.8710(6) 0.36544(18) 0.2518(3)
H110 H 0.9109 0.3501 0.2506
C103 C 0.8595(6) 0.38310(17) 0.2023(3)
C104 C 0.7967(6) 0.40440(18) 0.2045(3)
H111 H 0.7857 0.4160 0.1707
C105 C 0.7504(6) 0.40869(18) 0.2557(3)
H112 H 0.7071 0.4231 0.2571
Cl2 Cl 0.8897(2) 0.10694(6) 0.89235(14)
O3 O 0.5892(6) 0.13119(17) 0.9851(4)
H2 H 0.5431 0.1304 0.9632
O7 O 0.9317(5) 0.38482(16) 0.8938(4)
H4 H 0.9063 0.3855 0.8600
H20 H 0.9645 0.3973 0.7212
C7 C 0.8651(9) 0.3856(3) 0.9403(6)
H26 H 0.8066 0.3892 0.9218
H27 H 0.8799 0.4006 0.9688
H28 H 0.8646 0.3675 0.9612
O16 O 0.7030(5) 0.12497(15) 0.8151(3)
O20 O 0.7357(6) 0.15885(17) 0.9310(4)
H43 H 0.9906 0.0271 0.4683
C18 C 0.9655(6) 0.02479(19) 0.3782(3)
C19 C 0.9956(6) 0.0352(2) 0.3246(4)
H44 H 0.9697 0.0286 0.2880
C32 C 0.9971(6) 0.10334(19) 0.6194(4)
C33 C 0.9279(6) 0.12238(19) 0.6243(4)
C34 C 0.9106(6) 0.1404(2) 0.5764(4)
H56 H 0.8664 0.1544 0.5794
C35 C 0.9568(6) 0.1381(2) 0.5250(4)
H57 H 0.9420 0.1497 0.4916
N6 N 0.7598(5) 0.12452(13) 0.7721(3)
C36 C 0.7908(7) 0.09960(16) 0.7531(5)
H58 H 0.7739 0.0827 0.7720
C37 C 0.8471(7) 0.09886(15) 0.7060(4)
H59 H 0.8691 0.0814 0.6926
C38 C 0.8718(7) 0.12362(15) 0.6780(4)
C39 C 0.8398(6) 0.14888(15) 0.6997(4)
H60 H 0.8546 0.1661 0.6809
C40 C 0.7865(7) 0.14905(15) 0.7484(4)
H61 H 0.7687 0.1664 0.7652
C47 C 0.8313(6) 0.00134(17) 0.3304(4)
H67 H 0.8278 0.0155 0.3005
C48 C 0.8954(6) 0.00339(18) 0.3765(4)
N10 N 0.7822(5) 0.18238(14) 0.9205(4)
C56 C 0.8652(5) 0.18131(16) 0.9006(5)
H73 H 0.8922 0.1636 0.8940
C57 C 0.9112(6) 0.20558(16) 0.8897(5)
H74 H 0.9683 0.2045 0.8734
C58 C 0.8750(5) 0.23177(15) 0.9022(4)
C59 C 0.7916(6) 0.23184(17) 0.9269(5)
H75 H 0.7659 0.2492 0.9380
C60 C 0.7458(6) 0.20726(15) 0.9355(5)
H76 H 0.6888 0.2078 0.9519
C61 C 0.9210(5) 0.30764(16) 0.8690(5)
H77 H 0.8886 0.3243 0.8605
C62 C 0.8765(5) 0.28269(16) 0.8758(5)
H78 H 0.8141 0.2821 0.8698
C63 C 0.9224(5) 0.25829(15) 0.8913(4)
C72 C 0.9685(6) 0.49376(16) 0.9859(4)
C73 C 0.9025(6) 0.49607(16) 0.9418(4)
C74 C 0.8982(6) 0.47428(16) 0.9002(4)
H87 H 0.8562 0.4753 0.8678
C75 C 0.9532(6) 0.45134(17) 0.9046(4)
H88 H 0.9480 0.4367 0.8761
N17 N 0.6948(5) 0.55582(17) 0.9442(3)
C91 C 0.7132(6) 0.54258(19) 0.8927(3)
H101 H 0.6780 0.5462 0.8577
C92 C 0.7822(6) 0.52396(19) 0.8908(3)
H102 H 0.7932 0.5145 0.8545
C93 C 0.8367(6) 0.51870(19) 0.9410(3)
C94 C 0.8189(6) 0.53438(19) 0.9920(4)
C95 C 0.7488(6) 0.55258(19) 0.9929(3)
O32 O 0.7222(5) 0.06299(15) 0.8615(3)
O33 O 0.6570(5) 0.06937(15) 0.9867(3)
O18 O 0.7222(5) 0.93701(15) 0.3615(3)
N8 N 0.7768(5) 0.95897(15) 0.3699(3)
C46 C 0.7736(6) 0.97918(16) 0.3275(4)
H66 H 0.7310 0.9780 0.2955
C49 C 0.8948(7) 0.98249(19) 0.4201(4)
C50 C 0.8350(6) 0.96080(17) 0.4169(4)
H68 H 0.8344 0.9471 0.4477
H277 H 0.942692 0.983396 0.457397
N9_2 N 0.5948(5) 0.04938(16) 0.9862(3)
C53_2 C 0.4724(6) 0.00576(19) 0.9895(3)
C54_2 C 0.5037(6) 0.01602(18) 0.9354(3)
H71_2 H 0.4819 0.0083 0.8988
C55_2 C 0.5655(6) 0.03706(17) 0.9351(3)
H72_2 H 0.5881 0.0431 0.8982
Cl3_2 Cl 0.4131(2) 0.36677(6) 0.40898(12)
O5_2 O 0.0305(5) 0.62045(14) 0.2903(3)
H3_2 H 0.0318 0.6371 0.2783
O6_2 O 0.2063(5) 0.65952(15) 0.4437(3)
O8_2 O 0.2259(5) 0.63482(15) 0.3303(3)
H5_2 H 0.2702 0.6243 0.3338
O9_2 O 0.7372(6) 0.36966(19) 0.4653(4)
H6_2 H 0.7683 0.3836 0.4755
O10_2 O 0.5592(6) 0.37952(17) 0.5171(4)
H7_2 H 0.5362 0.3635 0.5148
C5_2 C 0.0242(10) 0.6016(3) 0.2395(7)
H21_2 H 0.0674 0.6072 0.2102
H22_2 H 0.0363 0.5824 0.2527
C6_2 C 0.2083(8) 0.6769(2) 0.4980(5)
H23_2 H 0.2615 0.6887 0.4989
H24_2 H 0.1557 0.6889 0.4980
H25_2 H 0.2092 0.6647 0.5332
C8_2 C 0.2222(9) 0.6469(3) 0.2723(6)
H29_2 H 0.2697 0.6607 0.2690
H30_2 H 0.2295 0.6321 0.2425
H31_2 H 0.1650 0.6561 0.2653
C9_2 C 0.7666(12) 0.3454(3) 0.4981(8)
H32_2 H 0.8254 0.3491 0.5162
H33_2 H 0.7251 0.3413 0.5295
H34_2 H 0.7697 0.3293 0.4711
C10_2 C 0.4995(10) 0.3983(3) 0.5422(7)
H35_2 H 0.4834 0.3915 0.5816
H36_2 H 0.5271 0.4169 0.5462
H37_2 H 0.4462 0.3997 0.5163
O14_2 O 0.2252(5) 0.85216(15) 0.0206(3)
O17_2 O 0.5580(5) 0.90396(16) 0.3824(4)
O21_2 O 0.0500(5) 0.66617(15) 0.3662(3)
O22_2 O 0.0663(5) 0.63126(15) 0.5012(3)
O23_2 O 0.0638(5) 0.57351(14) 0.4572(3)
O24_2 O 0.2404(5) 0.59936(14) 0.4394(3)
O25_2 O 0.1361(5) 0.57645(14) 0.3373(3)
O26_2 O 0.5328(5) 0.41730(14) 0.3263(3)
C14_2 C 0.3377(5) 0.98048(15) 0.0267(3)
H40_2 H 0.3250 0.9959 0.0520
C15_2 C 0.2854(5) 0.95691(15) 0.0270(3)
H41_2 H 0.2361 0.9563 0.0521
N4_2 N 0.2730(5) 0.85962(17) 0.0698(3)
C26_2 C 0.3569(5) 0.8689(2) 0.0666(4)
H50_2 H 0.3837 0.8700 0.0290
C27_2 C 0.4037(6) 0.8767(2) 0.1174(4)
H51_2 H 0.4629 0.8831 0.1147
C28_2 C 0.3650(6) 0.8753(2) 0.1732(4)
C29_2 C 0.2794(6) 0.8645(2) 0.1744(4)
H52_2 H 0.2518 0.8624 0.2116
C30_2 C 0.2342(6) 0.8566(2) 0.1230(4)
H53_2 H 0.1761 0.8492 0.1247
N5_2 N 0.0231(6) 0.88065(18) 0.0220(3)
C31_2 C 0.0464(6) 0.8972(2) 0.0689(4)
H54_2 H 0.0965 0.9092 0.0670
H55_2 H 0.0105 0.9093 0.1511
N7_2 N 0.5105(5) 0.89786(17) 0.3329(3)
C41_2 C 0.5379(6) 0.9072(2) 0.2793(3)
H62_2 H 0.5888 0.9188 0.2779
C42_2 C 0.4929(6) 0.9001(2) 0.2271(4)
H63_2 H 0.5147 0.9060 0.1900
C43_2 C 0.4156(6) 0.88418(19) 0.2283(3)
C44_2 C 0.3867(6) 0.8762(2) 0.2844(4)
H64_2 H 0.3332 0.8659 0.2871
C45_2 C 0.4347(7) 0.8830(3) 0.3357(4)
H65_2 H 0.4143 0.8773 0.3733
N11_2 N 0.0102(4) 0.69123(14) 0.3743(4)
C64_2 C 0.0141(5) 0.73964(15) 0.3989(5)
H79_2 H 0.0475 0.7558 0.4102
C65_2 C 0.0569(5) 0.71445(15) 0.3902(5)
H80_2 H 0.1193 0.7134 0.3953
N12_2 N 0.0161(6) 0.62755(13) 0.5495(4)
C66_2 C 0.0030(7) 0.60136(15) 0.5709(4)
H81_2 H 0.0289 0.5857 0.5520
N13_2 N 0.0151(5) 0.55039(13) 0.4498(3)
C71_2 C 0.0233(6) 0.52919(16) 0.4897(4)
H85_2 H 0.0674 0.5302 0.5208
N14_2 N 0.2864(5) 0.60567(17) 0.4895(3)
C76_2 C 0.3552(5) 0.62353(17) 0.4865(3)
H89_2 H 0.3694 0.6316 0.4493
C77_2 C 0.4052(6) 0.6302(2) 0.5372(3)
H90_2 H 0.4544 0.6424 0.5348
C78_2 C 0.3832(6) 0.61878(18) 0.5922(3)
C79_2 C 0.3106(6) 0.60096(18) 0.5936(3)
H91_2 H 0.2937 0.5932 0.6305
C80_2 C 0.2626(6) 0.59437(18) 0.5422(3)
H92_2 H 0.2133 0.5820 0.5436
N15_2 N 0.1927(5) 0.55533(14) 0.3362(3)
C81_2 C 0.2205(6) 0.54630(18) 0.2825(3)
H93_2 H 0.2000 0.5555 0.2471
C82_2 C 0.2778(6) 0.52406(17) 0.2785(3)
H94_2 H 0.2971 0.5182 0.2407
C83_2 C 0.3076(6) 0.51005(17) 0.3299(3)
C84_2 C 0.2776(6) 0.51991(16) 0.3845(3)
H95_2 H 0.2972 0.5110 0.4205
C85_2 C 0.2201(6) 0.54234(16) 0.3868(3)
H96_2 H 0.1998 0.5486 0.4241
N16_2 N 0.4803(5) 0.43929(13) 0.3277(3)
C86_2 C 0.4102(5) 0.43955(16) 0.3639(4)
H97_2 H 0.3989 0.4238 0.3885
C87_2 C 0.3557(6) 0.46258(16) 0.3651(4)
H98_2 H 0.3078 0.4627 0.3914
C88_2 C 0.3692(5) 0.48572(15) 0.3286(4)
C89_2 C 0.4415(5) 0.48466(16) 0.2916(4)
H99_2 H 0.4535 0.5001 0.2662
C90_2 C 0.4956(6) 0.46147(15) 0.2917(4)
H100_2 H 0.5444 0.4610 0.2661
N18_2 N 0.5351(4) 0.63569(17) 0.7523(3)
C96_2 C 0.4475(5) 0.6303(2) 0.7553(3)
H105_2 H 0.4206 0.6306 0.7930
C97_2 C 0.3969(5) 0.6244(2) 0.7049(3)
H106_2 H 0.3360 0.6201 0.7081
C98_2 C 0.4347(5) 0.6248(2) 0.6488(3)
C99_2 C 0.5248(5) 0.6307(2) 0.6472(3)
H107_2 H 0.5529 0.6308 0.6099
C100_2 C 0.5736(5) 0.6362(2) 0.6986(3)
H108_2 H 0.6348 0.6404 0.6965
H115_2 H 0.4584 0.7348 0.0002
H116_2 H 0.5565 0.6977 0.0047
La3_2 La 0.10153(4) 0.619350(11) 0.39740(3)
O34_2 O 0.6240(6) 0.42763(16) 0.4463(4)
Cl1_2 Cl 0.3865(2) 0.86293(7) 0.91255(15)
O1_2 O 0.2390(7) 0.87505(19) 0.8059(4)
H1_2 H 0.1855 0.8718 0.7973
O2_2 O 0.0638(7) 0.86139(19) 0.8584(4)
C1_2 C 0.2946(13) 0.8578(4) 0.7683(9)
H8_2 H 0.3139 0.8690 0.7345
H9_2 H 0.3464 0.8513 0.7918
H10_2 H 0.2607 0.8416 0.7535
C2_2 C 0.0505(11) 0.8437(3) 0.8053(7)
H11_2 H 0.0069 0.8291 0.8133
H12_2 H 0.0290 0.8553 0.7718
H13_2 H 0.1067 0.8350 0.7954
O11_2 O 0.2527(5) 0.91141(15) 0.9951(3)
O12_2 O 0.1720(5) 0.91904(16) 0.8725(4)
O13_2 O 0.1907(5) 0.82248(16) 0.9003(4)
O15_2 O 0.0672(6) 0.88396(17) 0.9706(4)
N1_2 N 0.3030(5) 0.93462(14) 0.9922(3)
C11_2 C 0.3724(5) 0.93507(16) 0.9553(3)
H38_2 H 0.3843 0.9194 0.9307
C12_2 C 0.4252(5) 0.95847(15) 0.9539(3)
H39_2 H 0.4736 0.9588 0.9280
C13_2 C 0.4096(5) 0.98185(15) 0.9894(3)
N2_2 N 0.1028(6) 0.93684(17) 0.8753(3)
C16_2 C 0.0751(7) 0.9465(2) 0.9284(4)
H42_2 H 0.1024 0.9397 0.9643
C17_2 C 0.0080(6) 0.9659(2) 0.9308(3)
C20_2 C 0.0619(7) 0.9452(2) 0.8236(4)
H45_2 H 0.0792 0.9375 0.7867
N3_2 N 0.2526(6) 0.80163(17) 0.9030(4)
C21_2 C 0.2541(7) 0.7829(2) 0.8573(4)
H46_2 H 0.2136 0.7848 0.8243
C22_2 C 0.3141(7) 0.7613(2) 0.8588(4)
H47_2 H 0.3145 0.7484 0.8266
C23_2 C 0.3747(6) 0.75801(19) 0.9068(4)
C24_2 C 0.3710(6) 0.77765(19) 0.9530(4)
H48_2 H 0.4095 0.7758 0.9871
C25_2 C 0.3121(7) 0.79956(19) 0.9495(4)
H49_2 H 0.3131 0.8134 0.9800
N20_2 N 0.5565(5) 0.69014(16) 0.9170(3)
C106_2 C 0.5199(7) 0.6978(2) 0.8635(3)
H113_2 H 0.5349 0.6878 0.8285
C107_2 C 0.4615(7) 0.7198(2) 0.8592(4)
H114_2 H 0.4370 0.7250 0.8212
C108_2 C 0.4374(7) 0.73471(19) 0.9100(4)
C109_2 C 0.4740(7) 0.72566(19) 0.9645(4)
C110_2 C 0.5325(7) 0.70361(19) 0.9671(3)
La1_2 La 0.20196(5) 0.873630(12) 0.91953(3)
N8_2 N 0.7768(5) 0.04103(15) 0.8699(3)
C46_2 C 0.7736(6) 0.02082(16) 0.8275(4)
H66_2 H 0.7310 0.0220 0.7955
C49_2 C 0.8948(7) 0.01751(19) 0.9201(4)
C50_2 C 0.8350(6) 0.03920(17) 0.9169(4)
H68_2 H 0.8344 0.0529 0.9477
H277_2 H 0.942692 0.0166039 0.957397
Cl2_2 Cl 0.8897(2) 0.89306(6) 0.39235(14)
O3_2 O 0.5892(6) 0.86881(17) 0.4851(4)
H2_2 H 0.5431 0.8696 0.4632
O4_2 O 0.7871(6) 0.89003(18) 0.5237(4)
O7_2 O 0.9317(5) 0.61518(16) 0.3938(4)
H4_2 H 0.9063 0.6145 0.3600
C3_2 C 0.5840(14) 0.8453(4) 0.5241(9)
H14_2 H 0.5488 0.8503 0.5584
H15_2 H 0.5560 0.8296 0.5027
H16_2 H 0.6437 0.8399 0.5380
C4_2 C 0.7571(9) 0.8972(3) 0.5840(6)
H17_2 H 0.7747 0.8823 0.6120
H18_2 H 0.7843 0.9150 0.5969
H19_2 H 0.6926 0.8992 0.5828
H20_2 H 0.9645 0.6027 0.2212
C7_2 C 0.8651(9) 0.6144(3) 0.4403(6)
H26_2 H 0.8066 0.6108 0.4218
H27_2 H 0.8799 0.5994 0.4688
H28_2 H 0.8646 0.6325 0.4612
O16_2 O 0.7030(5) 0.87503(15) 0.3151(3)
O20_2 O 0.7357(6) 0.84115(17) 0.4310(4)
C32_2 C 0.9971(6) 0.89666(19) 0.1194(4)
C33_2 C 0.9279(6) 0.87762(19) 0.1243(4)
C34_2 C 0.9106(6) 0.8596(2) 0.0764(4)
H56_2 H 0.8664 0.8456 0.0794
C35_2 C 0.9568(6) 0.8619(2) 0.0250(4)
N6_2 N 0.7598(5) 0.87548(13) 0.2721(3)
C36_2 C 0.7908(7) 0.90040(16) 0.2531(5)
H58_2 H 0.7739 0.9173 0.2720
C37_2 C 0.8471(7) 0.90114(15) 0.2060(4)
H59_2 H 0.8691 0.9186 0.1926
C38_2 C 0.8718(7) 0.87638(15) 0.1780(4)
C39_2 C 0.8398(6) 0.85112(15) 0.1997(4)
H60_2 H 0.8546 0.8339 0.1809
C40_2 C 0.7865(7) 0.85095(15) 0.2484(4)
H61_2 H 0.7687 0.8336 0.2652
N10_2 N 0.7822(5) 0.81762(14) 0.4205(4)
C56_2 C 0.8652(5) 0.81869(16) 0.4006(5)
H73_2 H 0.8922 0.8364 0.3940
C57_2 C 0.9112(6) 0.79442(16) 0.3897(5)
H74_2 H 0.9683 0.7955 0.3734
C58_2 C 0.8750(5) 0.76823(15) 0.4022(4)
C59_2 C 0.7916(6) 0.76816(17) 0.4269(5)
H75_2 H 0.7659 0.7508 0.4380
C60_2 C 0.7458(6) 0.79274(15) 0.4355(5)
H76_2 H 0.6888 0.7922 0.4519
C61_2 C 0.9210(5) 0.69236(16) 0.3690(5)
H77_2 H 0.8886 0.6757 0.3605
C62_2 C 0.8765(5) 0.71731(16) 0.3758(5)
H78_2 H 0.8141 0.7179 0.3698
C63_2 C 0.9224(5) 0.74171(15) 0.3913(4)
C67_2 C 0.9520(7) 0.59745(15) 0.6198(4)
H82_2 H 0.9424 0.5790 0.6344
C68_2 C 0.9141(6) 0.62037(14) 0.6483(4)
C69_2 C 0.9317(7) 0.64705(15) 0.6262(4)
H83_2 H 0.9088 0.6631 0.6454
C70_2 C 0.9821(7) 0.65024(15) 0.5766(4)
H84_2 H 0.9930 0.6685 0.5615
C72_2 C 0.9685(6) 0.50624(16) 0.4859(4)
H86_2 H 0.9761 0.4915 0.5143
C73_2 C 0.9025(6) 0.50393(16) 0.4418(4)
C74_2 C 0.8982(6) 0.52572(16) 0.4002(4)
H87_2 H 0.8562 0.5247 0.3678
C75_2 C 0.9532(6) 0.54866(17) 0.4046(4)
H88_2 H 0.9480 0.5633 0.3761
N17_2 N 0.6948(5) 0.44418(17) 0.4442(3)
C91_2 C 0.7132(6) 0.45742(19) 0.3927(3)
H101_2 H 0.6780 0.4538 0.3577
C92_2 C 0.7822(6) 0.47604(19) 0.3908(3)
H102_2 H 0.7932 0.4855 0.3545
C93_2 C 0.8367(6) 0.48130(19) 0.4410(3)
C94_2 C 0.8189(6) 0.46562(19) 0.4920(4)
H103_2 H 0.8561 0.4676 0.5266
C95_2 C 0.7488(6) 0.44742(19) 0.4929(3)
H104_2 H 0.7381 0.4370 0.5280
N19_2 N 0.7676(5) 0.60789(14) 0.8037(3)
C101_2 C 0.8241(6) 0.62957(17) 0.8025(3)
H109_2 H 0.8319 0.6414 0.8364
C102_2 C 0.8710(6) 0.63456(18) 0.7518(3)
H110_2 H 0.9109 0.6499 0.7506
C103_2 C 0.8595(6) 0.61690(17) 0.7023(3)
C104_2 C 0.7967(6) 0.59560(18) 0.7045(3)
H111_2 H 0.7857 0.5840 0.6707
C105_2 C 0.7504(6) 0.59131(18) 0.7557(3)
H112_2 H 0.7071 0.5769 0.7571
C51_2 C 0.5646(7) 0.0406(2) 0.0394(3)
H69_2 H 0.5860 0.0491 0.0754
C52_2 C 0.5031(7) 0.0194(2) 0.0411(4)
H70_2 H 0.4810 0.0139 0.0785
H43_2 H 0.9906 0.9729 0.9683
C18_2 C 0.9655(6) 0.97521(19) 0.8782(3)
C19_2 C 0.9956(6) 0.9648(2) 0.8246(4)
H44_2 H 0.9697 0.9714 0.7880
H57_2 H 0.9420 0.8503 0.9916
C47_2 C 0.8313(6) 0.99866(17) 0.8304(4)
H67_2 H 0.8278 0.9845 0.8005
C48_2 C 0.8954(6) 0.99661(18) 0.8765(4)
B1 B 0.3274(8) 0.5162(2) 0.0758(6)
C111 C 0.2724(5) 0.49349(15) 0.1180(3)
C112 C 0.1809(5) 0.49203(15) 0.1226(3)
H117 H 0.1451 0.5042 0.0983
C113 C 0.1390(5) 0.47351(15) 0.1613(3)
H118 H 0.0764 0.4732 0.1630
C114 C 0.1899(5) 0.45583(16) 0.1968(4)
H119 H 0.1622 0.4433 0.2233
C115 C 0.2804(5) 0.45623(16) 0.1941(4)
H120 H 0.3154 0.4439 0.2184
C116 C 0.3206(5) 0.47502(15) 0.1552(3)
H121 H 0.3833 0.4752 0.1541
C117 C 0.2649(6) 0.53453(15) 0.0278(4)
C122 C 0.2826(6) 0.56274(15) 0.0157(4)
H126 H 0.3298 0.5717 0.0374
C123 C 0.3818(5) 0.53670(17) 0.1223(4)
C124 C 0.3403(5) 0.55915(17) 0.1502(5)
H127 H 0.2789 0.5620 0.1422
C125 C 0.3850(6) 0.57754(19) 0.1894(5)
H128 H 0.3552 0.5933 0.2050
C126 C 0.4720(5) 0.57266(18) 0.2051(4)
H129 H 0.5030 0.5853 0.2311
C127 C 0.5143(6) 0.54947(19) 0.1830(5)
H130 H 0.5733 0.5452 0.1958
C128 C 0.4695(5) 0.53218(19) 0.1413(4)
H131 H 0.5002 0.5167 0.1253
C129 C 0.3958(6) 0.49835(14) 0.0320(4)
C134 C 0.3972(6) 0.46920(15) 0.0257(4)
H136 H 0.3599 0.4581 0.0495
C118 C 0.1966(6) 0.52263(16) 0.9932(4)
H122 H 0.1840 0.5032 0.9982
C119 C 0.1456(6) 0.53805(16) 0.9511(4)
H123 H 0.0976 0.5294 0.9297
C120 C 0.1660(6) 0.56584(16) 0.9413(4)
H124 H 0.1328 0.5763 0.9123
C121 C 0.2342(6) 0.57849(16) 0.9732(4)
H125 H 0.2483 0.5976 0.9665
C130 C 0.4524(6) 0.51318(16) 0.9953(4)
H132 H 0.4552 0.5330 0.9991
C131 C 0.5052(6) 0.50018(16) 0.9532(4)
H133 H 0.5402 0.5111 0.9275
C132 C 0.5054(7) 0.47140(16) 0.9498(5)
H134 H 0.5426 0.4623 0.9226
C133 C 0.4522(6) 0.45565(16) 0.9853(4)
H135 H 0.4524 0.4357 0.9826
B1_2 B 0.3274(8) 0.4838(2) 0.5758(6)
C111_2 C 0.2724(5) 0.50651(15) 0.6180(3)
C112_2 C 0.1809(5) 0.50797(15) 0.6226(3)
H117_2 H 0.1451 0.4958 0.5983
C113_2 C 0.1390(5) 0.52649(15) 0.6613(3)
H118_2 H 0.0764 0.5268 0.6630
C114_2 C 0.1899(5) 0.54417(16) 0.6968(4)
H119_2 H 0.1622 0.5567 0.7233
C115_2 C 0.2804(5) 0.54377(16) 0.6941(4)
H120_2 H 0.3154 0.5561 0.7184
C116_2 C 0.3206(5) 0.52498(15) 0.6552(3)
H121_2 H 0.3833 0.5248 0.6541
C117_2 C 0.2649(6) 0.46547(15) 0.5278(4)
C118_2 C 0.1966(6) 0.47737(16) 0.4932(4)
H122_2 H 0.1840 0.4968 0.4982
C119_2 C 0.1456(6) 0.46195(16) 0.4511(4)
H123_2 H 0.0976 0.4706 0.4297
C120_2 C 0.1660(6) 0.43416(16) 0.4413(4)
H124_2 H 0.1328 0.4237 0.4123
C121_2 C 0.2342(6) 0.42151(16) 0.4732(4)
H125_2 H 0.2483 0.4024 0.4665
C122_2 C 0.2826(6) 0.43726(15) 0.5157(4)
H126_2 H 0.3298 0.4283 0.5374
C123_2 C 0.3818(5) 0.46330(17) 0.6223(4)
C124_2 C 0.3403(5) 0.44085(17) 0.6502(5)
H127_2 H 0.2789 0.4380 0.6422
C125_2 C 0.3850(6) 0.42246(19) 0.6894(5)
H128_2 H 0.3552 0.4067 0.7050
C126_2 C 0.4720(5) 0.42734(18) 0.7051(4)
H129_2 H 0.5030 0.4147 0.7311
C127_2 C 0.5143(6) 0.45053(19) 0.6830(5)
H130_2 H 0.5733 0.4548 0.6958
C128_2 C 0.4695(5) 0.46782(19) 0.6413(4)
H131_2 H 0.5002 0.4833 0.6253
C129_2 C 0.3958(6) 0.50165(14) 0.5320(4)
C130_2 C 0.4524(6) 0.48682(16) 0.4953(4)
H132_2 H 0.4552 0.4670 0.4991
C131_2 C 0.5052(6) 0.49982(16) 0.4532(4)
H133_2 H 0.5402 0.4889 0.4275
C132_2 C 0.5054(7) 0.52860(16) 0.4498(5)
H134_2 H 0.5426 0.5377 0.4226
C133_2 C 0.4522(6) 0.54435(16) 0.4853(4)
H135_2 H 0.4524 0.5643 0.4826
C134_2 C 0.3972(6) 0.53080(15) 0.5257(4)
H136_2 H 0.3599 0.5419 0.5495
C150 C 0.0242(6) 0.53628(15) 0.8083(4)
H149 H 0.0616 0.5480 0.8325
C151 C 0.0436(6) 0.50831(16) 0.8025(4)
H150 H 0.0937 0.5005 0.8232
H151 H 0.0030 0.4719 0.7628
H152 H 0.0239 0.4760 0.6529
C155 C 0.0332(6) 0.44144(19) 0.5997(5)
H153 H 0.0926 0.4444 0.5889
H154 H 0.0140 0.4058 0.5525
B2 B 0.8502(8) 0.4811(2) 0.6928(5)
C135 C 0.7827(6) 0.46702(15) 0.7419(4)
C136 C 0.7140(6) 0.48270(16) 0.7650(4)
H137 H 0.7029 0.5011 0.7501
C137 C 0.6606(6) 0.47193(17) 0.8099(4)
H138 H 0.6136 0.4829 0.8247
C138 C 0.6770(6) 0.44559(17) 0.8320(4)
H139 H 0.6404 0.4382 0.8618
C139 C 0.7453(6) 0.42961(17) 0.8118(4)
H140 H 0.7570 0.4115 0.8280
C140 C 0.7976(6) 0.44061(16) 0.7668(4)
H141 H 0.8450 0.4296 0.7528
C141 C 0.7970(5) 0.49959(18) 0.6388(4)
C142 C 0.7126(5) 0.49191(19) 0.6178(4)
H142 H 0.6823 0.4774 0.6379
C143 C 0.6706(6) 0.5048(2) 0.5681(4)
H143 H 0.6133 0.4990 0.5546
C144 C 0.7135(6) 0.5260(2) 0.5393(4)
H144 H 0.6858 0.5347 0.5055
C145 C 0.7959(6) 0.5347(2) 0.5588(4)
H145 H 0.8242 0.5499 0.5397
C146 C 0.8379(5) 0.52096(18) 0.6073(4)
H146 H 0.8963 0.5264 0.6191
C147 C 0.9160(6) 0.50182(15) 0.7337(4)
C148 C 0.8982(6) 0.53027(15) 0.7423(4)
H147 H 0.8482 0.5383 0.7221
C149 C 0.9511(6) 0.54743(16) 0.7795(5)
H148 H 0.9365 0.5667 0.7847
C152 C 0.9894(6) 0.49130(16) 0.7659(4)
C153 C 0.9035(5) 0.45745(17) 0.6537(4)
C154 C 0.9910(5) 0.46040(18) 0.6376(4)
C156 C 0.9867(5) 0.41862(18) 0.5787(5)
C157 C 0.9014(6) 0.41393(18) 0.5948(5)
H155 H 0.8708 0.3976 0.5816
C158 C 0.8598(5) 0.43358(17) 0.6312(4)
H156 H 0.7999 0.4306 0.6410
C150_2 C 0.0242(6) 0.46372(15) 0.3083(4)
H149_2 H 0.0616 0.4520 0.3325
C151_2 C 0.0436(6) 0.49169(16) 0.3025(4)
H150_2 H 0.0937 0.4995 0.3232
H151_2 H 0.0030 0.5281 0.2628
H152_2 H 0.0239 0.5240 0.1529
C155_2 C 0.0332(6) 0.55856(19) 0.0997(5)
H153_2 H 0.0926 0.5556 0.0889
H154_2 H 0.0140 0.5942 0.0525
B2_2 B 0.8502(8) 0.5189(2) 0.1928(5)
C135_2 C 0.7827(6) 0.53298(15) 0.2419(4)
C136_2 C 0.7140(6) 0.51730(16) 0.2650(4)
H137_2 H 0.7029 0.4989 0.2501
C137_2 C 0.6606(6) 0.52807(17) 0.3099(4)
H138_2 H 0.6136 0.5171 0.3247
C138_2 C 0.6770(6) 0.55441(17) 0.3320(4)
H139_2 H 0.6404 0.5618 0.3618
C139_2 C 0.7453(6) 0.57039(17) 0.3118(4)
H140_2 H 0.7570 0.5885 0.3280
C140_2 C 0.7976(6) 0.55939(16) 0.2668(4)
H141_2 H 0.8450 0.5704 0.2528
C141_2 C 0.7970(5) 0.50041(18) 0.1388(4)
C142_2 C 0.7126(5) 0.50809(19) 0.1178(4)
H142_2 H 0.6823 0.5226 0.1379
C143_2 C 0.6706(6) 0.4952(2) 0.0681(4)
H143_2 H 0.6133 0.5010 0.0546
C144_2 C 0.7135(6) 0.4740(2) 0.0393(4)
H144_2 H 0.6858 0.4653 0.0055
C145_2 C 0.7959(6) 0.4653(2) 0.0588(4)
H145_2 H 0.8242 0.4501 0.0397
C146_2 C 0.8379(5) 0.47904(18) 0.1073(4)
H146_2 H 0.8963 0.4736 0.1191
C147_2 C 0.9160(6) 0.49818(15) 0.2337(4)
C148_2 C 0.8982(6) 0.46973(15) 0.2423(4)
H147_2 H 0.8482 0.4617 0.2221
C149_2 C 0.9511(6) 0.45257(16) 0.2795(5)
H148_2 H 0.9365 0.4333 0.2847
C152_2 C 0.9894(6) 0.50870(16) 0.2659(4)
C153_2 C 0.9035(5) 0.54255(17) 0.1537(4)
C154_2 C 0.9910(5) 0.53960(18) 0.1376(4)
C156_2 C 0.9867(5) 0.58138(18) 0.0787(5)
C157_2 C 0.9014(6) 0.58607(18) 0.0948(5)
H155_2 H 0.8708 0.6024 0.0816
C158_2 C 0.8598(5) 0.56642(17) 0.1312(4)
H156_2 H 0.7999 0.5694 0.1410
H169 H 0.2405 0.7205 0.0017
B3 B 0.0918(10) 0.7062(3) 0.7777(6)
C159 C 0.1326(6) 0.73336(18) 0.7432(5)
C160 C 0.2208(6) 0.7336(2) 0.7263(6)
H157 H 0.2553 0.7172 0.7329
C161 C 0.2610(6) 0.7568(2) 0.7001(6)
H158 H 0.3214 0.7561 0.6898
C162 C 0.2118(7) 0.7806(2) 0.6895(6)
H159 H 0.2377 0.7964 0.6711
C163 C 0.1250(7) 0.7816(2) 0.7054(6)
H160 H 0.0907 0.7980 0.6973
C164 C 0.0872(6) 0.75854(19) 0.7335(5)
H161 H 0.0282 0.7601 0.7465
C165 C 0.1166(8) 0.67616(16) 0.7486(4)
C166 C 0.1475(7) 0.67261(16) 0.6909(4)
H162 H 0.1599 0.6889 0.6681
C167 C 0.1608(8) 0.64626(16) 0.6654(4)
H163 H 0.1814 0.6450 0.6259
C168 C 0.1443(8) 0.62222(17) 0.6969(4)
H164 H 0.1522 0.6043 0.6792
C169 C 0.1161(8) 0.62439(17) 0.7546(4)
H165 H 0.1074 0.6080 0.7779
C170 C 0.1007(8) 0.65103(16) 0.7781(4)
H166 H 0.0778 0.6521 0.8170
C171 C 0.1360(6) 0.7094(2) 0.8481(4)
C172 C 0.2085(7) 0.6937(2) 0.8690(4)
H167 H 0.2317 0.6796 0.8440
C173 C 0.2485(7) 0.6980(2) 0.9257(4)
H168 H 0.2986 0.6872 0.9382
C174 C 0.2145(7) 0.7179(2) 0.9629(4)
C175 C 0.1434(7) 0.7340(2) 0.9446(4)
H170 H 0.1204 0.7479 0.9702
C176 C 0.1053(7) 0.7296(2) 0.8875(4)
H171 H 0.0564 0.7409 0.8750
C177 C 0.9844(5) 0.7066(2) 0.7784(4)
C178 C 0.9328(6) 0.7001(2) 0.8270(4)
H172 H 0.9617 0.6970 0.8647
C179 C 0.8406(6) 0.6977(3) 0.8228(4)
H173 H 0.8083 0.6931 0.8570
C180 C 0.7973(6) 0.7022(3) 0.7688(4)
H174 H 0.7347 0.7008 0.7656
C181 C 0.8447(6) 0.7088(3) 0.7193(4)
H175 H 0.8151 0.7119 0.6819
C182 C 0.9366(6) 0.7108(2) 0.7247(4)
H176 H 0.9683 0.7153 0.6901
B3_2 B 0.0918(10) 0.2938(3) 0.2777(6)
C159_2 C 0.1326(6) 0.26664(18) 0.2432(5)
C160_2 C 0.2208(6) 0.2664(2) 0.2263(6)
H157_2 H 0.2553 0.2828 0.2329
C161_2 C 0.2610(6) 0.2432(2) 0.2001(6)
H158_2 H 0.3214 0.2439 0.1898
C162_2 C 0.2118(7) 0.2194(2) 0.1895(6)
H159_2 H 0.2377 0.2036 0.1711
C163_2 C 0.1250(7) 0.2184(2) 0.2054(6)
H160_2 H 0.0907 0.2020 0.1973
C164_2 C 0.0872(6) 0.24146(19) 0.2335(5)
H161_2 H 0.0282 0.2399 0.2465
C165_2 C 0.1166(8) 0.32384(16) 0.2486(4)
C166_2 C 0.1475(7) 0.32739(16) 0.1909(4)
H162_2 H 0.1599 0.3111 0.1681
C167_2 C 0.1608(8) 0.35374(16) 0.1654(4)
H163_2 H 0.1814 0.3550 0.1259
C168_2 C 0.1443(8) 0.37778(17) 0.1969(4)
H164_2 H 0.1522 0.3957 0.1792
C169_2 C 0.1161(8) 0.37561(17) 0.2546(4)
H165_2 H 0.1074 0.3920 0.2779
C170_2 C 0.1007(8) 0.34897(16) 0.2781(4)
H166_2 H 0.0778 0.3479 0.3170
C171_2 C 0.1360(6) 0.2906(2) 0.3481(4)
C172_2 C 0.2085(7) 0.3063(2) 0.3690(4)
H167_2 H 0.2317 0.3204 0.3440
C173_2 C 0.2485(7) 0.3020(2) 0.4257(4)
H168_2 H 0.2986 0.3128 0.4382
C174_2 C 0.2145(7) 0.2821(2) 0.4629(4)
H169_2 H 0.2405 0.2795 0.5017
C175_2 C 0.1434(7) 0.2660(2) 0.4446(4)
H170_2 H 0.1204 0.2521 0.4702
C176_2 C 0.1053(7) 0.2704(2) 0.3875(4)
H171_2 H 0.0564 0.2591 0.3750
C177_2 C 0.9844(5) 0.2934(2) 0.2784(4)
C178_2 C 0.9328(6) 0.2999(2) 0.3270(4)
H172_2 H 0.9617 0.3030 0.3647
C179_2 C 0.8406(6) 0.3023(3) 0.3228(4)
H173_2 H 0.8083 0.3069 0.3570
C180_2 C 0.7973(6) 0.2978(3) 0.2688(4)
H174_2 H 0.7347 0.2992 0.2656
C181_2 C 0.8447(6) 0.2912(3) 0.2193(4)
H175_2 H 0.8151 0.2881 0.1819
C182_2 C 0.9366(6) 0.2892(2) 0.2247(4)
H176_2 H 0.9683 0.2847 0.1901
C185 C 0.1121(6) 0.0125(2) 0.7490(4)
H178 H 0.1709 0.0078 0.7612
C186 C 0.0667(6) 0.0329(2) 0.7789(5)
H179 H 0.0948 0.0425 0.8113
H182 H 0.0750 0.0058 0.5673
C184 C 0.0705(6) 0.9988(2) 0.7005(4)
H177 H 0.1027 0.9849 0.6801
C190 C 0.0626(6) 0.98733(17) 0.5532(4)
C191 C 0.1133(6) 0.97659(18) 0.5075(4)
H183 H 0.1613 0.9871 0.4928
C192 C 0.0925(7) 0.95064(19) 0.4840(5)
H184 H 0.1248 0.9435 0.4518
C193 C 0.0252(7) 0.93499(19) 0.5070(5)
H185 H 0.0120 0.9168 0.4916
C183 C 0.9840(5) 0.00462(19) 0.6805(4)
C187 C 0.9810(6) 0.0393(2) 0.7620(4)
H180 H 0.9494 0.0532 0.7830
C188 C 0.9407(6) 0.0252(2) 0.7134(4)
H181 H 0.8813 0.0297 0.7023
C201 C 0.8640(6) 0.00686(15) 0.5875(4)
C203 C 0.7413(6) 0.01396(17) 0.5150(4)
H193 H 0.6914 0.0065 0.4937
C204 C 0.7630(7) 0.04170(17) 0.5088(5)
H194 H 0.7292 0.0532 0.4821
C205 C 0.8335(7) 0.05298(17) 0.5410(5)
H195 H 0.8479 0.0723 0.5378
C206 C 0.8832(6) 0.03515(15) 0.5787(4)
H196 H 0.9332 0.0428 0.5996
B4 B 0.9284(9) 0.9867(3) 0.6285(6)
C189 C 0.9947(6) 0.97225(16) 0.5791(4)
C194 C 0.9765(6) 0.94608(17) 0.5533(4)
H186 H 0.9290 0.9353 0.5679
C195 C 0.8763(5) 0.96199(18) 0.6647(4)
C196 C 0.9218(6) 0.93891(19) 0.6897(5)
H187 H 0.9828 0.9367 0.6821
C197 C 0.8809(6) 0.9190(2) 0.7254(5)
H188 H 0.9144 0.9039 0.7422
C198 C 0.7924(6) 0.9213(2) 0.7363(5)
H189 H 0.7640 0.9073 0.7588
C199 C 0.7452(6) 0.94390(19) 0.7144(5)
H190 H 0.6845 0.9460 0.7229
C200 C 0.7877(5) 0.96385(19) 0.6795(5)
H191 H 0.7543 0.9795 0.6652
C202 C 0.7926(6) 0.99653(16) 0.5529(4)
H192 H 0.7784 0.9771 0.5550
C184_2 C 0.0705(6) 0.0012(2) 0.2005(4)
H177_2 H 0.1027 0.0151 0.1801
C190_2 C 0.0626(6) 0.01267(17) 0.0532(4)
C191_2 C 0.1133(6) 0.02341(18) 0.0075(4)
C193_2 C 0.0252(7) 0.06501(19) 0.0070(5)
H183_2 H 0.1613 0.0129 0.9928
C192_2 C 0.0925(7) 0.04936(19) 0.9840(5)
H184_2 H 0.1248 0.0565 0.9518
H185_2 H 0.0120 0.0832 0.9916
C185_2 C 0.1121(6) 0.9875(2) 0.2490(4)
H178_2 H 0.1709 0.9922 0.2612
C186_2 C 0.0667(6) 0.9671(2) 0.2789(5)
H179_2 H 0.0948 0.9575 0.3113
H182_2 H 0.0750 0.9942 0.0673
B4_2 B 0.9284(9) 0.0133(3) 0.1285(6)
C189_2 C 0.9947(6) 0.02775(16) 0.0791(4)
C194_2 C 0.9765(6) 0.05392(17) 0.0533(4)
H186_2 H 0.9290 0.0647 0.0679
C195_2 C 0.8763(5) 0.03801(18) 0.1647(4)
C196_2 C 0.9218(6) 0.06109(19) 0.1897(5)
H187_2 H 0.9828 0.0633 0.1821
C197_2 C 0.8809(6) 0.0810(2) 0.2254(5)
H188_2 H 0.9144 0.0961 0.2422
C198_2 C 0.7924(6) 0.0787(2) 0.2363(5)
H189_2 H 0.7640 0.0927 0.2588
C199_2 C 0.7452(6) 0.05610(19) 0.2144(5)
H190_2 H 0.6845 0.0540 0.2229
C200_2 C 0.7877(5) 0.03615(19) 0.1795(5)
H191_2 H 0.7543 0.0205 0.1652
C202_2 C 0.7926(6) 0.00347(16) 0.0529(4)
H192_2 H 0.7784 0.0229 0.0550
C183_2 C 0.9840(5) 0.99538(19) 0.1805(4)
C187_2 C 0.9810(6) 0.9607(2) 0.2620(4)
H180_2 H 0.9494 0.9468 0.2830
C188_2 C 0.9407(6) 0.9748(2) 0.2134(4)
H181_2 H 0.8813 0.9703 0.2023
C201_2 C 0.8640(6) 0.99314(15) 0.0875(4)
C203_2 C 0.7413(6) 0.98604(17) 0.0150(4)
C204_2 C 0.7630(7) 0.95830(17) 0.0088(5)
C205_2 C 0.8335(7) 0.94702(17) 0.0410(5)
H195_2 H 0.8479 0.9277 0.0378
C206_2 C 0.8832(6) 0.96485(15) 0.0787(4)
H196_2 H 0.9332 0.9572 0.0996
H193_2 H 0.6914 0.9935 0.9937
H194_2 H 0.7292 0.9468 0.9821
B5 B 0.4473(9) 0.0165(3) 0.2435(6)
C207 C 0.5101(6) 0.03582(15) 0.2878(4)
C208 C 0.5812(6) 0.02465(16) 0.3213(4)
H197 H 0.5954 0.0054 0.3161
C209 C 0.6328(6) 0.04042(16) 0.3622(4)
H198 H 0.6809 0.0320 0.3839
C210 C 0.6126(7) 0.06822(17) 0.3702(5)
H199 H 0.6480 0.0793 0.3969
C211 C 0.5416(7) 0.08021(17) 0.3401(5)
H200 H 0.5269 0.0993 0.3467
C212 C 0.4911(6) 0.06400(16) 0.2994(4)
H201 H 0.4421 0.0725 0.2788
H202 H 0.6269 0.0052 0.2164
C223 C 0.2695(7) 0.00358(17) 0.3670(5)
H210 H 0.2323 0.0150 0.3903
C224 C 0.3226(7) 0.01589(16) 0.3241(4)
H211 H 0.3209 0.0357 0.3187
C225 C 0.3914(6) 0.03558(19) 0.1936(4)
C226 C 0.3035(6) 0.0309(2) 0.1758(5)
H212 H 0.2721 0.0163 0.1947
C227 C 0.2593(7) 0.0466(2) 0.1313(6)
H213 H 0.1997 0.0425 0.1200
C228 C 0.3029(7) 0.0683(2) 0.1042(5)
H214 H 0.2736 0.0791 0.0739
C229 C 0.3890(6) 0.0742(2) 0.1211(5)
H215 H 0.4186 0.0895 0.1036
C230 C 0.4332(6) 0.0575(2) 0.1640(5)
H216 H 0.4938 0.0613 0.1735
C213 C 0.4990(5) 0.9935(2) 0.2018(4)
C214 C 0.5903(5) 0.9923(2) 0.1947(5)
C215 C 0.6306(5) 0.9729(2) 0.1571(5)
H203 H 0.6931 0.9723 0.1547
C216 C 0.5783(5) 0.9547(2) 0.1237(5)
H204 H 0.6049 0.9415 0.0982
C217 C 0.4879(5) 0.9556(2) 0.1273(4)
H205 H 0.4517 0.9433 0.1037
C218 C 0.4496(5) 0.9748(2) 0.1661(5)
H206 H 0.3870 0.9752 0.1683
C219 C 0.3780(7) 0.99979(16) 0.2890(4)
C220 C 0.3773(7) 0.97090(16) 0.2987(4)
H207 H 0.4151 0.9593 0.2763
C221 C 0.3227(8) 0.95836(18) 0.3405(5)
H208 H 0.3211 0.9385 0.3445
C222 C 0.2715(7) 0.97504(17) 0.3754(5)
H209 H 0.2373 0.9668 0.4055
C213_2 C 0.4990(5) 0.0065(2) 0.7018(4)
C214_2 C 0.5903(5) 0.0077(2) 0.6947(5)
C215_2 C 0.6306(5) 0.0271(2) 0.6571(5)
H203_2 H 0.6931 0.0277 0.6547
C216_2 C 0.5783(5) 0.0453(2) 0.6237(5)
H204_2 H 0.6049 0.0585 0.5982
C217_2 C 0.4879(5) 0.0444(2) 0.6273(4)
H205_2 H 0.4517 0.0567 0.6037
C218_2 C 0.4496(5) 0.0252(2) 0.6661(5)
H206_2 H 0.3870 0.0248 0.6683
C219_2 C 0.3780(7) 0.00021(16) 0.7890(4)
C220_2 C 0.3773(7) 0.02910(16) 0.7987(4)
H207_2 H 0.4151 0.0407 0.7763
C221_2 C 0.3227(8) 0.04164(18) 0.8405(5)
H208_2 H 0.3211 0.0615 0.8445
C222_2 C 0.2715(7) 0.02496(17) 0.8754(5)
H209_2 H 0.2373 0.0332 0.9055
B5_2 B 0.4473(9) 0.9835(3) 0.7435(6)
C207_2 C 0.5101(6) 0.96418(15) 0.7878(4)
C208_2 C 0.5812(6) 0.97535(16) 0.8213(4)
H197_2 H 0.5954 0.9946 0.8161
C209_2 C 0.6328(6) 0.95958(16) 0.8622(4)
H198_2 H 0.6809 0.9680 0.8839
C210_2 C 0.6126(7) 0.93178(17) 0.8702(5)
H199_2 H 0.6480 0.9207 0.8969
C211_2 C 0.5416(7) 0.91979(17) 0.8401(5)
H200_2 H 0.5269 0.9007 0.8467
C212_2 C 0.4911(6) 0.93600(16) 0.7994(4)
H201_2 H 0.4421 0.9275 0.7788
H202_2 H 0.6269 0.9948 0.7164
C223_2 C 0.2695(7) 0.99642(17) 0.8670(5)
H210_2 H 0.2323 0.9850 0.8903
C224_2 C 0.3226(7) 0.98411(16) 0.8241(4)
H211_2 H 0.3209 0.9643 0.8187
C225_2 C 0.3914(6) 0.96442(19) 0.6936(4)
C226_2 C 0.3035(6) 0.9691(2) 0.6758(5)
H212_2 H 0.2721 0.9837 0.6947
C227_2 C 0.2593(7) 0.9534(2) 0.6313(6)
H213_2 H 0.1997 0.9575 0.6200
C228_2 C 0.3029(7) 0.9317(2) 0.6042(5)
H214_2 H 0.2736 0.9209 0.5739
C229_2 C 0.3890(6) 0.9258(2) 0.6211(5)
H215_2 H 0.4186 0.9105 0.6036
C230_2 C 0.4332(6) 0.9425(2) 0.6640(5)
H216_2 H 0.4938 0.9387 0.6735
H223 H 0.0906 0.2047 0.0121
C240 C 0.1924(8) 0.2323(3) 0.0173(5)
H224 H 0.1786 0.2397 0.0553
H225 H 0.3034 0.2555 0.0075
B6 B 0.2463(9) 0.2030(3) 0.8302(6)
C231 C 0.1858(8) 0.17598(19) 0.8096(5)
C232 C 0.1915(9) 0.1508(2) 0.8408(5)
H217 H 0.2321 0.1496 0.8740
C233 C 0.1410(9) 0.1270(2) 0.8263(6)
H218 H 0.1470 0.1103 0.8494
C234 C 0.0826(10) 0.1281(2) 0.7782(6)
H219 H 0.0446 0.1127 0.7696
C235 C 0.0791(9) 0.1515(2) 0.7426(5)
H220 H 0.0429 0.1517 0.7072
C236 C 0.1293(8) 0.1752(2) 0.7588(5)
H221 H 0.1249 0.1914 0.7342
C237 C 0.2283(7) 0.2122(2) 0.9021(4)
C238 C 0.1590(7) 0.2015(2) 0.9350(4)
H222 H 0.1239 0.1868 0.9184
C239 C 0.1397(8) 0.2118(3) 0.9916(5)
C241 C 0.2648(8) 0.2423(3) 0.9886(5)
C242 C 0.2809(7) 0.2326(2) 0.9307(4)
H226 H 0.3292 0.2403 0.9102
C243 C 0.3505(5) 0.1937(2) 0.8231(4)
C244 C 0.4091(6) 0.1854(3) 0.8695(4)
H227 H 0.3885 0.1855 0.9091
C245 C 0.4965(6) 0.1771(2) 0.8608(4)
H228 H 0.5327 0.1708 0.8936
C246 C 0.5294(6) 0.1782(3) 0.8044(4)
H229 H 0.5897 0.1739 0.7982
C247 C 0.4744(6) 0.1856(3) 0.7572(4)
H230 H 0.4960 0.1855 0.7179
C248 C 0.3868(6) 0.1932(2) 0.7664(4)
H231 H 0.3502 0.1983 0.7328
C249 C 0.2210(6) 0.23154(19) 0.7917(5)
C250 C 0.2831(6) 0.2501(2) 0.7690(5)
H232 H 0.3441 0.2457 0.7749
C251 C 0.2600(6) 0.2747(2) 0.7382(5)
H233 H 0.3046 0.2868 0.7242
C252 C 0.1722(6) 0.2811(2) 0.7283(5)
H234 H 0.1558 0.2974 0.7060
C253 C 0.1080(6) 0.2640(2) 0.7506(6)
H235 H 0.0473 0.2686 0.7448
C254 C 0.1330(6) 0.2397(2) 0.7819(5)
H236 H 0.0878 0.2281 0.7972
B6_2 B 0.2463(9) 0.7970(3) 0.3302(6)
C231_2 C 0.1858(8) 0.82402(19) 0.3096(5)
C232_2 C 0.1915(9) 0.8492(2) 0.3408(5)
H217_2 H 0.2321 0.8504 0.3740
C233_2 C 0.1410(9) 0.8730(2) 0.3263(6)
H218_2 H 0.1470 0.8897 0.3494
C234_2 C 0.0826(10) 0.8719(2) 0.2782(6)
H219_2 H 0.0446 0.8873 0.2696
C235_2 C 0.0791(9) 0.8485(2) 0.2426(5)
H220_2 H 0.0429 0.8483 0.2072
C236_2 C 0.1293(8) 0.8248(2) 0.2588(5)
H221_2 H 0.1249 0.8086 0.2342
C237_2 C 0.2283(7) 0.7878(2) 0.4021(4)
C238_2 C 0.1590(7) 0.7985(2) 0.4350(4)
H222_2 H 0.1239 0.8132 0.4184
C239_2 C 0.1397(8) 0.7882(3) 0.4916(5)
H223_2 H 0.0906 0.7953 0.5121
C240_2 C 0.1924(8) 0.7677(3) 0.5173(5)
H224_2 H 0.1786 0.7603 0.5553
C241_2 C 0.2648(8) 0.7577(3) 0.4886(5)
H225_2 H 0.3034 0.7445 0.5075
C242_2 C 0.2809(7) 0.7674(2) 0.4307(4)
H226_2 H 0.3292 0.7597 0.4102
C243_2 C 0.3505(5) 0.8063(2) 0.3231(4)
C244_2 C 0.4091(6) 0.8146(3) 0.3695(4)
H227_2 H 0.3885 0.8145 0.4091
C245_2 C 0.4965(6) 0.8229(2) 0.3608(4)
H228_2 H 0.5327 0.8292 0.3936
C246_2 C 0.5294(6) 0.8218(3) 0.3044(4)
H229_2 H 0.5897 0.8261 0.2982
C247_2 C 0.4744(6) 0.8144(3) 0.2572(4)
H230_2 H 0.4960 0.8145 0.2179
C248_2 C 0.3868(6) 0.8068(2) 0.2664(4)
H231_2 H 0.3502 0.8017 0.2328
C249_2 C 0.2210(6) 0.76846(19) 0.2917(5)
C250_2 C 0.2831(6) 0.7499(2) 0.2690(5)
H232_2 H 0.3441 0.7543 0.2749
C251_2 C 0.2600(6) 0.7253(2) 0.2382(5)
H233_2 H 0.3046 0.7132 0.2242
C252_2 C 0.1722(6) 0.7189(2) 0.2283(5)
H234_2 H 0.1558 0.7026 0.2060
C253_2 C 0.1080(6) 0.7360(2) 0.2506(6)
H235_2 H 0.0473 0.7314 0.2448
C254_2 C 0.1330(6) 0.7603(2) 0.2819(5)
H236_2 H 0.0878 0.7719 0.2972
B7 B 0.6577(10) 0.7922(3) 0.0773(7)
C255 C 0.6678(9) 0.82573(18) 0.0697(4)
C256 C 0.6963(9) 0.8389(2) 0.0179(4)
C257 C 0.7039(11) 0.8680(2) 0.0123(5)
C258 C 0.6824(13) 0.8852(2) 0.0589(6)
H239 H 0.6862 0.9050 0.0548
C259 C 0.6555(10) 0.87358(19) 0.1113(5)
H240 H 0.6424 0.8852 0.1442
C260 C 0.6475(8) 0.84437(18) 0.1154(4)
H241 H 0.6271 0.8367 0.1516
C261 C 0.6784(7) 0.7747(2) 0.0170(4)
C266 C 0.7338(8) 0.7516(2) 0.0103(4)
H246 H 0.7657 0.7449 0.0446
C267 C 0.7329(5) 0.7841(2) 0.1330(4)
C268 C 0.8234(6) 0.7834(2) 0.1233(4)
H247 H 0.8427 0.7873 0.0843
C269 C 0.8875(6) 0.7773(3) 0.1680(4)
H248 H 0.9482 0.7764 0.1589
C270 C 0.8612(6) 0.7726(3) 0.2254(4)
H249 H 0.9039 0.7687 0.2563
C271 C 0.7731(6) 0.7737(3) 0.2376(4)
H250 H 0.7549 0.7706 0.2771
C272 C 0.7096(6) 0.7794(3) 0.1922(4)
H251 H 0.6490 0.7800 0.2019
C273 C 0.5580(5) 0.78311(18) 0.0966(5)
C274 C 0.5395(6) 0.75622(19) 0.1173(6)
H252 H 0.5867 0.7431 0.1213
C275 C 0.4546(6) 0.74752(19) 0.1324(6)
H253 H 0.4454 0.7293 0.1482
C276 C 0.3850(6) 0.76583(19) 0.1240(6)
H254 H 0.3267 0.7599 0.1321
C277 C 0.3993(6) 0.79260(19) 0.1040(5)
H255 H 0.3512 0.8053 0.0988
C278 C 0.4853(6) 0.80116(17) 0.0914(5)
H256 H 0.4945 0.8199 0.0788
H237 H 0.7112 0.8274 0.9850
H238 H 0.7238 0.8759 0.9763
C262 C 0.6270(8) 0.7815(2) 0.9659(4)
H242 H 0.5846 0.7962 0.9682
C263 C 0.6358(9) 0.7675(3) 0.9113(4)
H243 H 0.6015 0.7732 0.8772
C264 C 0.6940(8) 0.7456(2) 0.9074(4)
H244 H 0.6985 0.7358 0.8707
C265 C 0.7456(8) 0.7377(2) 0.9559(4)
H245 H 0.7883 0.7232 0.9528
B7_2 B 0.6577(10) 0.2078(3) 0.5773(7)
C255_2 C 0.6678(9) 0.17427(18) 0.5697(4)
C256_2 C 0.6963(9) 0.1611(2) 0.5179(4)
H237_2 H 0.7112 0.1726 0.4850
C257_2 C 0.7039(11) 0.1320(2) 0.5123(5)
H238_2 H 0.7238 0.1241 0.4763
C258_2 C 0.6824(13) 0.1148(2) 0.5589(6)
H239_2 H 0.6862 0.0950 0.5548
C259_2 C 0.6555(10) 0.12642(19) 0.6113(5)
H240_2 H 0.6424 0.1148 0.6442
C260_2 C 0.6475(8) 0.15563(18) 0.6154(4)
H241_2 H 0.6271 0.1633 0.6516
C261_2 C 0.6784(7) 0.2253(2) 0.5170(4)
C262_2 C 0.6270(8) 0.2185(2) 0.4659(4)
H242_2 H 0.5846 0.2038 0.4682
C263_2 C 0.6358(9) 0.2325(3) 0.4113(4)
H243_2 H 0.6015 0.2268 0.3772
C264_2 C 0.6940(8) 0.2544(2) 0.4074(4)
H244_2 H 0.6985 0.2642 0.3707
C265_2 C 0.7456(8) 0.2623(2) 0.4559(4)
H245_2 H 0.7883 0.2768 0.4528
C266_2 C 0.7338(8) 0.2484(2) 0.5103(4)
H246_2 H 0.7657 0.2551 0.5446
C267_2 C 0.7329(5) 0.2159(2) 0.6330(4)
C268_2 C 0.8234(6) 0.2166(2) 0.6233(4)
H247_2 H 0.8427 0.2127 0.5843
C269_2 C 0.8875(6) 0.2227(3) 0.6680(4)
H248_2 H 0.9482 0.2236 0.6589
C270_2 C 0.8612(6) 0.2274(3) 0.7254(4)
H249_2 H 0.9039 0.2313 0.7563
C271_2 C 0.7731(6) 0.2263(3) 0.7376(4)
H250_2 H 0.7549 0.2294 0.7771
C272_2 C 0.7096(6) 0.2206(3) 0.6922(4)
H251_2 H 0.6490 0.2200 0.7019
C273_2 C 0.5580(5) 0.21689(18) 0.5966(5)
C274_2 C 0.5395(6) 0.24378(19) 0.6173(6)
H252_2 H 0.5867 0.2569 0.6213
C275_2 C 0.4546(6) 0.25248(19) 0.6324(6)
H253_2 H 0.4454 0.2707 0.6482
C276_2 C 0.3850(6) 0.23417(19) 0.6240(6)
H254_2 H 0.3267 0.2401 0.6321
C277_2 C 0.3993(6) 0.20740(19) 0.6040(5)
H255_2 H 0.3512 0.1947 0.5988
C278_2 C 0.4853(6) 0.19884(17) 0.5914(5)
H256_2 H 0.4945 0.1801 0.5788
B8 B 0.6433(9) 0.3016(3) 0.0241(6)
C279 C 0.7396(6) 0.28597(19) 0.0433(5)
C280 C 0.8222(6) 0.2957(2) 0.0262(5)
H257 H 0.8254 0.3131 0.0059
C281 C 0.9005(6) 0.2806(2) 0.0378(6)
H258 H 0.9552 0.2877 0.0248
C282 C 0.8979(7) 0.2556(2) 0.0678(7)
H259 H 0.9513 0.2460 0.0776
C283 C 0.8183(7) 0.2445(2) 0.0840(7)
H260 H 0.8157 0.2266 0.1025
C284 C 0.7412(6) 0.2602(2) 0.0726(6)
H261 H 0.6868 0.2527 0.0856
C285 C 0.6533(6) 0.33580(15) 0.0145(4)
C286 C 0.7079(6) 0.35285(16) 0.0509(4)
H262 H 0.7448 0.3440 0.0805
C287 C 0.7111(7) 0.38203(16) 0.0463(5)
H263 H 0.7488 0.3927 0.0724
C288 C 0.6589(7) 0.39520(17) 0.0032(5)
H271 H 0.5368 0.2549 0.0033
C297 C 0.5728(5) 0.2985(2) 0.0798(3)
C298 C 0.4816(5) 0.3002(2) 0.0682(4)
H272 H 0.4606 0.3014 0.0279
C299 C 0.4199(5) 0.3001(2) 0.1133(4)
H273 H 0.3585 0.3014 0.1037
C300 C 0.4495(6) 0.2981(3) 0.1719(4)
H274 H 0.4082 0.2977 0.2028
C301 C 0.5382(6) 0.2969(3) 0.1859(4)
H275 H 0.5584 0.2962 0.2265
C302 C 0.5992(6) 0.2966(2) 0.1402(4)
H276 H 0.6604 0.2951 0.1505
H264 H 0.6603 0.4151 0.9996
C289 C 0.6049(7) 0.37957(16) 0.9657(4)
H265 H 0.5681 0.3886 0.9364
C290 C 0.6039(7) 0.35023(16) 0.9705(4)
H266 H 0.5682 0.3397 0.9429
C291 C 0.6094(7) 0.2849(2) 0.9639(4)
C292 C 0.6392(7) 0.2923(2) 0.9076(4)
H267 H 0.6741 0.3087 0.9037
C293 C 0.6190(8) 0.2761(2) 0.8567(4)
H268 H 0.6401 0.2816 0.8190
C294 C 0.5688(9) 0.2522(2) 0.8614(4)
H269 H 0.5558 0.2412 0.8269
C295 C 0.5373(9) 0.2443(2) 0.9154(5)
H270 H 0.5018 0.2279 0.9187
C296 C 0.5584(8) 0.2607(2) 0.9660(4)
B8_2 B 0.6433(9) 0.6984(3) 0.5241(6)
C279_2 C 0.7396(6) 0.71403(19) 0.5433(5)
C280_2 C 0.8222(6) 0.7043(2) 0.5262(5)
H257_2 H 0.8254 0.6869 0.5059
C281_2 C 0.9005(6) 0.7194(2) 0.5378(6)
H258_2 H 0.9552 0.7123 0.5248
C282_2 C 0.8979(7) 0.7444(2) 0.5678(7)
H259_2 H 0.9513 0.7540 0.5776
C283_2 C 0.8183(7) 0.7555(2) 0.5840(7)
H260_2 H 0.8157 0.7734 0.6025
C284_2 C 0.7412(6) 0.7398(2) 0.5726(6)
H261_2 H 0.6868 0.7473 0.5856
C285_2 C 0.6533(6) 0.66420(15) 0.5145(4)
C286_2 C 0.7079(6) 0.64715(16) 0.5509(4)
H262_2 H 0.7448 0.6560 0.5805
C287_2 C 0.7111(7) 0.61797(16) 0.5463(5)
H263_2 H 0.7488 0.6073 0.5724
C288_2 C 0.6589(7) 0.60480(17) 0.5032(5)
H264_2 H 0.6603 0.5849 0.4996
C289_2 C 0.6049(7) 0.62043(16) 0.4657(4)
H265_2 H 0.5681 0.6114 0.4364
C290_2 C 0.6039(7) 0.64977(16) 0.4705(4)
H266_2 H 0.5682 0.6603 0.4429
C291_2 C 0.6094(7) 0.7151(2) 0.4639(4)
C292_2 C 0.6392(7) 0.7077(2) 0.4076(4)
H267_2 H 0.6741 0.6913 0.4037
C293_2 C 0.6190(8) 0.7239(2) 0.3567(4)
H268_2 H 0.6401 0.7184 0.3190
C294_2 C 0.5688(9) 0.7478(2) 0.3614(4)
H269_2 H 0.5558 0.7588 0.3269
C295_2 C 0.5373(9) 0.7557(2) 0.4154(5)
H270_2 H 0.5018 0.7721 0.4187
C296_2 C 0.5584(8) 0.7393(2) 0.4660(4)
H271_2 H 0.5368 0.7451 0.5033
C297_2 C 0.5728(5) 0.7015(2) 0.5798(3)
C298_2 C 0.4816(5) 0.6998(2) 0.5682(4)
H272_2 H 0.4606 0.6986 0.5279
C299_2 C 0.4199(5) 0.6999(2) 0.6133(4)
H273_2 H 0.3585 0.6986 0.6037
C300_2 C 0.4495(6) 0.7019(3) 0.6719(4)
H274_2 H 0.4082 0.7023 0.7028
C301_2 C 0.5382(6) 0.7031(3) 0.6859(4)
H275_2 H 0.5584 0.7038 0.7265
C302_2 C 0.5992(6) 0.7034(2) 0.6402(4)
H276_2 H 0.6604 0.7049 0.6505
Cl4 Cl 0.94318(13) 0.32826(4) 0.72075(8)
Cl4_2 Cl 0.94318(13) 0.67174(4) 0.22075(8)
loop_
_geom_bond_atom_site_label_1
_geom_bond_atom_site_label_2
_geom_bond_site_symmetry_1
_geom_bond_site_symmetry_2
O10 H7 1_555 1_555
C10 O10 1_555 1_555
H35 C10 1_555 1_555
H36 C10 1_555 1_555
H37 C10 1_555 1_555
O22 N12 1_555 1_555
O28 N18 1_555 1_555
N12 C66 1_555 1_555
C66 H81 1_555 1_555
H90 C77 1_555 1_555
C78 C77 1_555 1_555
C79 C78 1_555 1_555
H91 C79 1_555 1_555
H92 C80 1_555 1_555
N18 C96 1_555 1_555
C96 H105 1_555 1_555
C97 C96 1_555 1_555
H106 C97 1_555 1_555
C98 C78 1_555 1_555
C99 C98 1_555 1_555
H107 C99 1_555 1_555
C100 N18 1_555 1_555
H108 C100 1_555 1_555
La10 O28 1_555 1_555
C79 C80 1_555 1_555
C97 C98 1_555 1_555
C99 C100 1_555 1_555
Cl1 La1 1_555 1_555
Cl3 La4 1_555 1_555
O1 H1 1_555 1_555
O2 C2 1_555 1_555
O5 H3 1_555 1_555
O6 C6 1_555 1_555
O8 H5 1_555 1_555
O9 H6 1_555 1_555
C1 O1 1_555 1_555
H8 C1 1_555 1_555
H9 C1 1_555 1_555
H10 C1 1_555 1_555
C2 H11 1_555 1_555
H12 C2 1_555 1_555
H13 C2 1_555 1_555
C5 O5 1_555 1_555
H21 C5 1_555 1_555
H22 C5 1_555 1_555
C6 H23 1_555 1_555
H24 C6 1_555 1_555
C8 O8 1_555 1_555
H29 C8 1_555 1_555
H30 C8 1_555 1_555
H31 C8 1_555 1_555
C9 O9 1_555 1_555
H34 C9 1_555 1_555
O11 N1 1_555 1_555
O12 N2 1_555 1_555
O13 N3 1_555 1_555
O14 N4 1_555 1_555
O15 N5 1_555 1_555
O17 N7 1_555 1_555
O21 N11 1_555 1_555
O23 N13 1_555 1_555
O24 N14 1_555 1_555
O25 N15 1_555 1_555
O26 N16 1_555 1_555
O30 N20 1_555 1_555
N1 C11 1_555 1_555
C11 H38 1_555 1_555
C12 C11 1_555 1_555
H39 C12 1_555 1_555
C13 C12 1_555 1_555
C14 C13 1_555 1_555
H40 C14 1_555 1_555
C15 N1 1_555 1_555
H41 C15 1_555 1_555
N2 C16 1_555 1_555
C16 H42 1_555 1_555
C17 C16 1_555 1_555
C20 N2 1_555 1_555
H45 C20 1_555 1_555
N3 C21 1_555 1_555
C21 H46 1_555 1_555
C22 C21 1_555 1_555
H47 C22 1_555 1_555
C23 C22 1_555 1_555
C24 C23 1_555 1_555
H48 C24 1_555 1_555
C25 N3 1_555 1_555
H49 C25 1_555 1_555
N4 C26 1_555 1_555
C26 H50 1_555 1_555
C27 C26 1_555 1_555
H51 C27 1_555 1_555
C28 C27 1_555 1_555
C29 C28 1_555 1_555
H52 C29 1_555 1_555
C30 N4 1_555 1_555
H53 C30 1_555 1_555
N5 C31 1_555 1_555
C31 H54 1_555 1_555
N7 C41 1_555 1_555
C41 H62 1_555 1_555
C42 C41 1_555 1_555
H63 C42 1_555 1_555
C43 C28 1_555 1_555
C44 C43 1_555 1_555
H64 C44 1_555 1_555
C45 N7 1_555 1_555
H65 C45 1_555 1_555
H79 C64 1_555 1_555
C65 N11 1_555 1_555
H80 C65 1_555 1_555
N13 C71 1_555 1_555
N14 C76 1_555 1_555
C76 H89 1_555 1_555
N15 C81 1_555 1_555
C81 H93 1_555 1_555
C82 C81 1_555 1_555
H94 C82 1_555 1_555
C83 C82 1_555 1_555
C84 C83 1_555 1_555
H95 C84 1_555 1_555
C85 N15 1_555 1_555
H96 C85 1_555 1_555
N16 C86 1_555 1_555
C86 H97 1_555 1_555
C87 C86 1_555 1_555
H98 C87 1_555 1_555
C88 C83 1_555 1_555
C89 C88 1_555 1_555
H99 C89 1_555 1_555
C90 N16 1_555 1_555
H100 C90 1_555 1_555
N20 C106 1_555 1_555
C106 H113 1_555 1_555
C107 C106 1_555 1_555
H114 C107 1_555 1_555
C108 C23 1_555 1_555
C109 C108 1_555 1_555
H115 C109 1_555 1_555
C110 N20 1_555 1_555
H116 C110 1_555 1_555
La1 O1 1_555 1_555
La3 O5 1_555 1_555
La4 O9 1_555 1_555
La5 O17 1_555 1_555
La10 O30 1_555 1_555
O34 La4 1_555 1_555
O35 La4 1_555 1_555
O36 La4 1_555 1_555
O37 La4 1_555 1_555
O2 La1 1_555 1_555
O6 La3 1_555 1_555
O8 La3 1_555 1_555
O11 La1 1_555 1_555
O12 La1 1_555 1_555
O13 La1 1_555 1_555
O14 La1 1_555 1_555
O15 La1 1_555 1_555
O21 La3 1_555 1_555
O23 La3 1_555 1_555
O24 La3 1_555 1_555
O25 La3 1_555 1_555
O26 La4 1_555 1_555
C14 C15 1_555 1_555
C24 C25 1_555 1_555
C29 C30 1_555 1_555
C42 C43 1_555 1_555
C44 C45 1_555 1_555
C64 C65 1_555 1_555
C84 C85 1_555 1_555
C87 C88 1_555 1_555
C89 C90 1_555 1_555
C107 C108 1_555 1_555
C109 C110 1_555 1_555
O19 N9 1_555 1_555
N9 C51 1_555 1_555
C51 H69 1_555 1_555
C52 C51 1_555 1_555
H70 C52 1_555 1_555
C54 C53 1_555 1_555
H71 C54 1_555 1_555
C55 N9 1_555 1_555
H72 C55 1_555 1_555
La7 O19 1_555 1_555
C52 C53 1_555 1_555
C54 C55 1_555 1_555
O4 C4 1_555 1_555
H14 C3 1_555 1_555
H15 C3 1_555 1_555
H16 C3 1_555 1_555
C4 H17 1_555 1_555
H18 C4 1_555 1_555
H19 C4 1_555 1_555
O29 N19 1_555 1_555
H82 C67 1_555 1_555
C68 C67 1_555 1_555
C69 C68 1_555 1_555
H83 C69 1_555 1_555
H84 C70 1_555 1_555
N19 C101 1_555 1_555
C101 H109 1_555 1_555
C102 C101 1_555 1_555
H110 C102 1_555 1_555
C103 C68 1_555 1_555
C104 C103 1_555 1_555
H111 C104 1_555 1_555
C105 N19 1_555 1_555
H112 C105 1_555 1_555
La10 O29 1_555 1_555
C69 C70 1_555 1_555
C102 C103 1_555 1_555
C104 C105 1_555 1_555
Cl2 La5 1_555 1_555
O3 H2 1_555 1_555
O7 H4 1_555 1_555
C7 O7 1_555 1_555
H26 C7 1_555 1_555
H27 C7 1_555 1_555
H28 C7 1_555 1_555
O16 N6 1_555 1_555
O20 N10 1_555 1_555
O34 N17 1_555 1_555
C19 C18 1_555 1_555
H44 C19 1_555 1_555
C33 C32 1_555 1_555
C34 C33 1_555 1_555
H56 C34 1_555 1_555
H57 C35 1_555 1_555
N6 C36 1_555 1_555
C36 H58 1_555 1_555
C37 C36 1_555 1_555
H59 C37 1_555 1_555
C38 C33 1_555 1_555
C39 C38 1_555 1_555
H60 C39 1_555 1_555
C40 N6 1_555 1_555
H61 C40 1_555 1_555
H67 C47 1_555 1_555
C48 C18 1_555 1_555
N10 C56 1_555 1_555
C56 H73 1_555 1_555
C57 C56 1_555 1_555
H74 C57 1_555 1_555
C58 C57 1_555 1_555
C59 C58 1_555 1_555
H75 C59 1_555 1_555
C60 N10 1_555 1_555
H76 C60 1_555 1_555
C61 H77 1_555 1_555
C62 C61 1_555 1_555
H78 C62 1_555 1_555
C63 C58 1_555 1_555
C73 C72 1_555 1_555
C74 C73 1_555 1_555
H87 C74 1_555 1_555
H88 C75 1_555 1_555
N17 C91 1_555 1_555
C91 H101 1_555 1_555
C92 C91 1_555 1_555
H102 C92 1_555 1_555
C93 C73 1_555 1_555
C94 C93 1_555 1_555
C95 N17 1_555 1_555
La5 O3 1_555 1_555
O32 La5 1_555 1_555
O33 La5 1_555 1_555
O16 La5 1_555 1_555
O20 La5 1_555 1_555
C34 C35 1_555 1_555
C37 C38 1_555 1_555
C39 C40 1_555 1_555
C47 C48 1_555 1_555
C59 C60 1_555 1_555
C62 C63 1_555 1_555
C74 C75 1_555 1_555
C92 C93 1_555 1_555
C94 C95 1_555 1_555
O18 N8 1_555 1_555
N8 C46 1_555 1_555
C46 H66 1_555 1_555
C50 N8 1_555 1_555
H68 C50 1_555 1_555
La7 O18 1_555 1_555
C49 C50 1_555 1_555
C49 H277 1_555 1_555
O33 N9_2 1_555 1_555
C54_2 C53_2 1_555 1_555
H71_2 C54_2 1_555 1_555
C55_2 N9_2 1_555 1_555
H72_2 C55_2 1_555 1_555
C54_2 C55_2 1_555 1_555
Cl3_2 La10 1_555 1_555
O5_2 H3_2 1_555 1_555
O6_2 C6_2 1_555 1_555
O8_2 H5_2 1_555 1_555
O9_2 H6_2 1_555 1_555
O10_2 H7_2 1_555 1_555
C5_2 O5_2 1_555 1_555
H21_2 C5_2 1_555 1_555
H22_2 C5_2 1_555 1_555
C6_2 H23_2 1_555 1_555
H24_2 C6_2 1_555 1_555
H25_2 C6_2 1_555 1_555
C8_2 O8_2 1_555 1_555
H29_2 C8_2 1_555 1_555
H30_2 C8_2 1_555 1_555
H31_2 C8_2 1_555 1_555
C9_2 O9_2 1_555 1_555
H32_2 C9_2 1_555 1_555
H33_2 C9_2 1_555 1_555
H34_2 C9_2 1_555 1_555
C10_2 O10_2 1_555 1_555
H35_2 C10_2 1_555 1_555
H36_2 C10_2 1_555 1_555
H37_2 C10_2 1_555 1_555
O14_2 N4_2 1_555 1_555
O17_2 N7_2 1_555 1_555
O21_2 N11_2 1_555 1_555
O22_2 N12_2 1_555 1_555
O23_2 N13_2 1_555 1_555
O24_2 N14_2 1_555 1_555
O25_2 N15_2 1_555 1_555
O26_2 N16_2 1_555 1_555
O35 N18_2 1_555 1_555
H40_2 C14_2 1_555 1_555
H41_2 C15_2 1_555 1_555
N4_2 C26_2 1_555 1_555
C26_2 H50_2 1_555 1_555
C27_2 C26_2 1_555 1_555
H51_2 C27_2 1_555 1_555
C28_2 C27_2 1_555 1_555
C29_2 C28_2 1_555 1_555
H52_2 C29_2 1_555 1_555
C30_2 N4_2 1_555 1_555
H53_2 C30_2 1_555 1_555
N5_2 C31_2 1_555 1_555
C31_2 H54_2 1_555 1_555
N7_2 C41_2 1_555 1_555
C41_2 H62_2 1_555 1_555
C42_2 C41_2 1_555 1_555
H63_2 C42_2 1_555 1_555
C43_2 C28_2 1_555 1_555
C44_2 C43_2 1_555 1_555
H64_2 C44_2 1_555 1_555
C45_2 N7_2 1_555 1_555
H65_2 C45_2 1_555 1_555
H79_2 C64_2 1_555 1_555
C65_2 N11_2 1_555 1_555
H80_2 C65_2 1_555 1_555
N12_2 C66_2 1_555 1_555
C66_2 H81_2 1_555 1_555
N13_2 C71_2 1_555 1_555
C71_2 H85_2 1_555 1_555
N14_2 C76_2 1_555 1_555
C76_2 H89_2 1_555 1_555
C77_2 C76_2 1_555 1_555
H90_2 C77_2 1_555 1_555
C78_2 C77_2 1_555 1_555
C79_2 C78_2 1_555 1_555
H91_2 C79_2 1_555 1_555
C80_2 N14_2 1_555 1_555
H92_2 C80_2 1_555 1_555
N15_2 C81_2 1_555 1_555
C81_2 H93_2 1_555 1_555
C82_2 C81_2 1_555 1_555
H94_2 C82_2 1_555 1_555
C83_2 C82_2 1_555 1_555
C84_2 C83_2 1_555 1_555
H95_2 C84_2 1_555 1_555
C85_2 N15_2 1_555 1_555
H96_2 C85_2 1_555 1_555
N16_2 C86_2 1_555 1_555
C86_2 H97_2 1_555 1_555
C87_2 C86_2 1_555 1_555
H98_2 C87_2 1_555 1_555
C88_2 C83_2 1_555 1_555
C89_2 C88_2 1_555 1_555
H99_2 C89_2 1_555 1_555
C90_2 N16_2 1_555 1_555
H100_2 C90_2 1_555 1_555
N18_2 C96_2 1_555 1_555
C96_2 H105_2 1_555 1_555
C97_2 C96_2 1_555 1_555
H106_2 C97_2 1_555 1_555
C98_2 C78_2 1_555 1_555
C99_2 C98_2 1_555 1_555
H107_2 C99_2 1_555 1_555
C100_2 N18_2 1_555 1_555
H108_2 C100_2 1_555 1_555
La3_2 O5_2 1_555 1_555
La10 O9_2 1_555 1_555
La7 O17_2 1_555 1_555
O34_2 La10 1_555 1_555
O6_2 La3_2 1_555 1_555
O8_2 La3_2 1_555 1_555
O10_2 La10 1_555 1_555
O21_2 La3_2 1_555 1_555
O22_2 La3_2 1_555 1_555
O23_2 La3_2 1_555 1_555
O24_2 La3_2 1_555 1_555
O25_2 La3_2 1_555 1_555
O26_2 La10 1_555 1_555
C14_2 C15_2 1_555 1_555
C29_2 C30_2 1_555 1_555
C42_2 C43_2 1_555 1_555
C44_2 C45_2 1_555 1_555
C64_2 C65_2 1_555 1_555
C79_2 C80_2 1_555 1_555
C84_2 C85_2 1_555 1_555
C87_2 C88_2 1_555 1_555
C89_2 C90_2 1_555 1_555
C97_2 C98_2 1_555 1_555
C99_2 C100_2 1_555 1_555
Cl1_2 La1_2 1_555 1_555
O1_2 H1_2 1_555 1_555
O2_2 C2_2 1_555 1_555
C1_2 O1_2 1_555 1_555
H8_2 C1_2 1_555 1_555
H9_2 C1_2 1_555 1_555
H10_2 C1_2 1_555 1_555
C2_2 H11_2 1_555 1_555
H12_2 C2_2 1_555 1_555
H13_2 C2_2 1_555 1_555
O11_2 N1_2 1_555 1_555
O12_2 N2_2 1_555 1_555
O13_2 N3_2 1_555 1_555
O37 N20_2 1_555 1_555
N1_2 C11_2 1_555 1_555
C11_2 H38_2 1_555 1_555
C12_2 C11_2 1_555 1_555
H39_2 C12_2 1_555 1_555
C13_2 C12_2 1_555 1_555
N2_2 C16_2 1_555 1_555
C16_2 H42_2 1_555 1_555
C17_2 C16_2 1_555 1_555
C20_2 N2_2 1_555 1_555
H45_2 C20_2 1_555 1_555
N3_2 C21_2 1_555 1_555
C21_2 H46_2 1_555 1_555
C22_2 C21_2 1_555 1_555
H47_2 C22_2 1_555 1_555
C23_2 C22_2 1_555 1_555
C24_2 C23_2 1_555 1_555
H48_2 C24_2 1_555 1_555
C25_2 N3_2 1_555 1_555
H49_2 C25_2 1_555 1_555
N20_2 C106_2 1_555 1_555
C106_2 H113_2 1_555 1_555
C107_2 C106_2 1_555 1_555
H114_2 C107_2 1_555 1_555
C108_2 C23_2 1_555 1_555
C109_2 C108_2 1_555 1_555
C110_2 N20_2 1_555 1_555
La1_2 O1_2 1_555 1_555
O2_2 La1_2 1_555 1_555
O11_2 La1_2 1_555 1_555
O12_2 La1_2 1_555 1_555
O13_2 La1_2 1_555 1_555
O15_2 La1_2 1_555 1_555
C24_2 C25_2 1_555 1_555
C107_2 C108_2 1_555 1_555
C109_2 C110_2 1_555 1_555
O32 N8_2 1_555 1_555
N8_2 C46_2 1_555 1_555
C46_2 H66_2 1_555 1_555
C50_2 N8_2 1_555 1_555
H68_2 C50_2 1_555 1_555
C49_2 C50_2 1_555 1_555
C49_2 H277_2 1_555 1_555
Cl2_2 La7 1_555 1_555
O3_2 H2_2 1_555 1_555
O4_2 C4_2 1_555 1_555
O7_2 H4_2 1_555 1_555
C3_2 O3_2 1_555 1_555
H14_2 C3_2 1_555 1_555
H15_2 C3_2 1_555 1_555
H16_2 C3_2 1_555 1_555
C4_2 H17_2 1_555 1_555
H18_2 C4_2 1_555 1_555
H19_2 C4_2 1_555 1_555
C7_2 O7_2 1_555 1_555
H26_2 C7_2 1_555 1_555
H27_2 C7_2 1_555 1_555
H28_2 C7_2 1_555 1_555
O16_2 N6_2 1_555 1_555
O20_2 N10_2 1_555 1_555
O34_2 N17_2 1_555 1_555
O36 N19_2 1_555 1_555
C33_2 C32_2 1_555 1_555
C34_2 C33_2 1_555 1_555
H56_2 C34_2 1_555 1_555
N6_2 C36_2 1_555 1_555
C36_2 H58_2 1_555 1_555
C37_2 C36_2 1_555 1_555
H59_2 C37_2 1_555 1_555
C38_2 C33_2 1_555 1_555
C39_2 C38_2 1_555 1_555
H60_2 C39_2 1_555 1_555
C40_2 N6_2 1_555 1_555
H61_2 C40_2 1_555 1_555
N10_2 C56_2 1_555 1_555
C56_2 H73_2 1_555 1_555
C57_2 C56_2 1_555 1_555
H74_2 C57_2 1_555 1_555
C58_2 C57_2 1_555 1_555
C59_2 C58_2 1_555 1_555
H75_2 C59_2 1_555 1_555
C60_2 N10_2 1_555 1_555
H76_2 C60_2 1_555 1_555
C61_2 H77_2 1_555 1_555
C62_2 C61_2 1_555 1_555
H78_2 C62_2 1_555 1_555
C63_2 C58_2 1_555 1_555
H82_2 C67_2 1_555 1_555
C68_2 C67_2 1_555 1_555
C69_2 C68_2 1_555 1_555
H83_2 C69_2 1_555 1_555
H84_2 C70_2 1_555 1_555
H86_2 C72_2 1_555 1_555
C73_2 C72_2 1_555 1_555
C74_2 C73_2 1_555 1_555
H87_2 C74_2 1_555 1_555
H88_2 C75_2 1_555 1_555
N17_2 C91_2 1_555 1_555
C91_2 H101_2 1_555 1_555
C92_2 C91_2 1_555 1_555
H102_2 C92_2 1_555 1_555
C93_2 C73_2 1_555 1_555
C94_2 C93_2 1_555 1_555
H103_2 C94_2 1_555 1_555
C95_2 N17_2 1_555 1_555
H104_2 C95_2 1_555 1_555
N19_2 C101_2 1_555 1_555
C101_2 H109_2 1_555 1_555
C102_2 C101_2 1_555 1_555
H110_2 C102_2 1_555 1_555
C103_2 C68_2 1_555 1_555
C104_2 C103_2 1_555 1_555
H111_2 C104_2 1_555 1_555
C105_2 N19_2 1_555 1_555
H112_2 C105_2 1_555 1_555
La7 O3_2 1_555 1_555
O4_2 La7 1_555 1_555
O16_2 La7 1_555 1_555
O20_2 La7 1_555 1_555
C34_2 C35_2 1_555 1_555
C37_2 C38_2 1_555 1_555
C39_2 C40_2 1_555 1_555
C59_2 C60_2 1_555 1_555
C62_2 C63_2 1_555 1_555
C69_2 C70_2 1_555 1_555
C74_2 C75_2 1_555 1_555
C92_2 C93_2 1_555 1_555
C94_2 C95_2 1_555 1_555
C102_2 C103_2 1_555 1_555
C104_2 C105_2 1_555 1_555
C51_2 H69_2 1_555 1_555
C52_2 C51_2 1_555 1_555
H70_2 C52_2 1_555 1_555
C19_2 C18_2 1_555 1_555
H44_2 C19_2 1_555 1_555
H67_2 C47_2 1_555 1_555
C48_2 C18_2 1_555 1_555
C47_2 C48_2 1_555 1_555
B1 C111 1_555 1_555
C111 C112 1_555 1_555
C112 H117 1_555 1_555
C113 C112 1_555 1_555
H118 C113 1_555 1_555
C114 C113 1_555 1_555
H119 C114 1_555 1_555
C115 C114 1_555 1_555
H120 C115 1_555 1_555
C116 C111 1_555 1_555
H121 C116 1_555 1_555
C117 B1 1_555 1_555
C122 C117 1_555 1_555
H126 C122 1_555 1_555
C123 B1 1_555 1_555
C124 C123 1_555 1_555
H127 C124 1_555 1_555
C125 C124 1_555 1_555
H128 C125 1_555 1_555
C126 C125 1_555 1_555
H129 C126 1_555 1_555
C127 C126 1_555 1_555
H130 C127 1_555 1_555
C128 C123 1_555 1_555
H131 C128 1_555 1_555
C129 B1 1_555 1_555
C134 C129 1_555 1_555
H136 C134 1_555 1_555
C115 C116 1_555 1_555
C127 C128 1_555 1_555
H122 C118 1_555 1_555
C119 C118 1_555 1_555
H123 C119 1_555 1_555
C120 C119 1_555 1_555
H124 C120 1_555 1_555
C121 C120 1_555 1_555
H125 C121 1_555 1_555
H132 C130 1_555 1_555
C131 C130 1_555 1_555
H133 C131 1_555 1_555
C132 C131 1_555 1_555
H134 C132 1_555 1_555
C133 C132 1_555 1_555
H135 C133 1_555 1_555
B1_2 C111_2 1_555 1_555
C111_2 C112_2 1_555 1_555
C112_2 H117_2 1_555 1_555
C113_2 C112_2 1_555 1_555
H118_2 C113_2 1_555 1_555
C114_2 C113_2 1_555 1_555
H119_2 C114_2 1_555 1_555
C115_2 C114_2 1_555 1_555
H120_2 C115_2 1_555 1_555
C116_2 C111_2 1_555 1_555
H121_2 C116_2 1_555 1_555
C117_2 B1_2 1_555 1_555
C118_2 C117_2 1_555 1_555
H122_2 C118_2 1_555 1_555
C119_2 C118_2 1_555 1_555
H123_2 C119_2 1_555 1_555
C120_2 C119_2 1_555 1_555
H124_2 C120_2 1_555 1_555
C121_2 C120_2 1_555 1_555
H125_2 C121_2 1_555 1_555
C122_2 C117_2 1_555 1_555
H126_2 C122_2 1_555 1_555
C123_2 B1_2 1_555 1_555
C124_2 C123_2 1_555 1_555
H127_2 C124_2 1_555 1_555
C125_2 C124_2 1_555 1_555
H128_2 C125_2 1_555 1_555
C126_2 C125_2 1_555 1_555
H129_2 C126_2 1_555 1_555
C127_2 C126_2 1_555 1_555
H130_2 C127_2 1_555 1_555
C128_2 C123_2 1_555 1_555
H131_2 C128_2 1_555 1_555
C129_2 B1_2 1_555 1_555
C130_2 C129_2 1_555 1_555
H132_2 C130_2 1_555 1_555
C131_2 C130_2 1_555 1_555
H133_2 C131_2 1_555 1_555
C132_2 C131_2 1_555 1_555
H134_2 C132_2 1_555 1_555
C133_2 C132_2 1_555 1_555
H135_2 C133_2 1_555 1_555
C134_2 C129_2 1_555 1_555
H136_2 C134_2 1_555 1_555
C115_2 C116_2 1_555 1_555
C121_2 C122_2 1_555 1_555
C127_2 C128_2 1_555 1_555
C133_2 C134_2 1_555 1_555
H149 C150 1_555 1_555
C151 C150 1_555 1_555
H150 C151 1_555 1_555
H153 C155 1_555 1_555
B2 C135 1_555 1_555
C135 C136 1_555 1_555
C136 H137 1_555 1_555
C137 C136 1_555 1_555
H138 C137 1_555 1_555
C138 C137 1_555 1_555
H139 C138 1_555 1_555
C139 C138 1_555 1_555
H140 C139 1_555 1_555
C140 C135 1_555 1_555
H141 C140 1_555 1_555
C141 B2 1_555 1_555
C142 C141 1_555 1_555
H142 C142 1_555 1_555
C143 C142 1_555 1_555
H143 C143 1_555 1_555
C144 C143 1_555 1_555
H144 C144 1_555 1_555
C145 C144 1_555 1_555
H145 C145 1_555 1_555
C146 C141 1_555 1_555
H146 C146 1_555 1_555
C147 B2 1_555 1_555
C148 C147 1_555 1_555
H147 C148 1_555 1_555
C149 C148 1_555 1_555
H148 C149 1_555 1_555
C152 C147 1_555 1_555
C153 B2 1_555 1_555
C154 C153 1_555 1_555
C157 C156 1_555 1_555
H155 C157 1_555 1_555
C158 C153 1_555 1_555
H156 C158 1_555 1_555
C139 C140 1_555 1_555
C145 C146 1_555 1_555
C157 C158 1_555 1_555
H149_2 C150_2 1_555 1_555
C151_2 C150_2 1_555 1_555
H150_2 C151_2 1_555 1_555
H153_2 C155_2 1_555 1_555
B2_2 C135_2 1_555 1_555
C135_2 C136_2 1_555 1_555
C136_2 H137_2 1_555 1_555
C137_2 C136_2 1_555 1_555
H138_2 C137_2 1_555 1_555
C138_2 C137_2 1_555 1_555
H139_2 C138_2 1_555 1_555
C139_2 C138_2 1_555 1_555
H140_2 C139_2 1_555 1_555
C140_2 C135_2 1_555 1_555
H141_2 C140_2 1_555 1_555
C141_2 B2_2 1_555 1_555
C142_2 C141_2 1_555 1_555
H142_2 C142_2 1_555 1_555
C143_2 C142_2 1_555 1_555
H143_2 C143_2 1_555 1_555
C144_2 C143_2 1_555 1_555
H144_2 C144_2 1_555 1_555
C145_2 C144_2 1_555 1_555
H145_2 C145_2 1_555 1_555
C146_2 C141_2 1_555 1_555
H146_2 C146_2 1_555 1_555
C147_2 B2_2 1_555 1_555
C148_2 C147_2 1_555 1_555
H147_2 C148_2 1_555 1_555
C149_2 C148_2 1_555 1_555
H148_2 C149_2 1_555 1_555
C152_2 C147_2 1_555 1_555
C153_2 B2_2 1_555 1_555
C154_2 C153_2 1_555 1_555
C157_2 C156_2 1_555 1_555
H155_2 C157_2 1_555 1_555
C158_2 C153_2 1_555 1_555
H156_2 C158_2 1_555 1_555
C139_2 C140_2 1_555 1_555
C145_2 C146_2 1_555 1_555
C157_2 C158_2 1_555 1_555
B3 C159 1_555 1_555
C159 C160 1_555 1_555
C160 H157 1_555 1_555
C161 C160 1_555 1_555
H158 C161 1_555 1_555
C162 C161 1_555 1_555
H159 C162 1_555 1_555
C163 C162 1_555 1_555
H160 C163 1_555 1_555
C164 C159 1_555 1_555
H161 C164 1_555 1_555
C165 B3 1_555 1_555
C166 C165 1_555 1_555
H162 C166 1_555 1_555
C167 C166 1_555 1_555
H163 C167 1_555 1_555
C168 C167 1_555 1_555
H164 C168 1_555 1_555
C169 C168 1_555 1_555
H165 C169 1_555 1_555
C170 C165 1_555 1_555
H166 C170 1_555 1_555
C171 B3 1_555 1_555
C172 C171 1_555 1_555
H167 C172 1_555 1_555
C173 C172 1_555 1_555
H168 C173 1_555 1_555
C174 C173 1_555 1_555
C175 C174 1_555 1_555
H170 C175 1_555 1_555
C176 C171 1_555 1_555
H171 C176 1_555 1_555
C163 C164 1_555 1_555
C169 C170 1_555 1_555
C175 C176 1_555 1_555
C178 C177 1_555 1_555
H172 C178 1_555 1_555
C179 C178 1_555 1_555
H173 C179 1_555 1_555
C180 C179 1_555 1_555
H174 C180 1_555 1_555
C181 C180 1_555 1_555
H175 C181 1_555 1_555
C182 C177 1_555 1_555
H176 C182 1_555 1_555
C181 C182 1_555 1_555
B3_2 C159_2 1_555 1_555
C159_2 C160_2 1_555 1_555
C160_2 H157_2 1_555 1_555
C161_2 C160_2 1_555 1_555
H158_2 C161_2 1_555 1_555
C162_2 C161_2 1_555 1_555
H159_2 C162_2 1_555 1_555
C163_2 C162_2 1_555 1_555
H160_2 C163_2 1_555 1_555
C164_2 C159_2 1_555 1_555
H161_2 C164_2 1_555 1_555
C165_2 B3_2 1_555 1_555
C166_2 C165_2 1_555 1_555
H162_2 C166_2 1_555 1_555
C167_2 C166_2 1_555 1_555
H163_2 C167_2 1_555 1_555
C168_2 C167_2 1_555 1_555
H164_2 C168_2 1_555 1_555
C169_2 C168_2 1_555 1_555
H165_2 C169_2 1_555 1_555
C170_2 C165_2 1_555 1_555
H166_2 C170_2 1_555 1_555
C171_2 B3_2 1_555 1_555
C172_2 C171_2 1_555 1_555
H167_2 C172_2 1_555 1_555
C173_2 C172_2 1_555 1_555
H168_2 C173_2 1_555 1_555
C174_2 C173_2 1_555 1_555
H169_2 C174_2 1_555 1_555
C175_2 C174_2 1_555 1_555
H170_2 C175_2 1_555 1_555
C176_2 C171_2 1_555 1_555
H171_2 C176_2 1_555 1_555
C163_2 C164_2 1_555 1_555
C169_2 C170_2 1_555 1_555
C175_2 C176_2 1_555 1_555
C178_2 C177_2 1_555 1_555
H172_2 C178_2 1_555 1_555
C179_2 C178_2 1_555 1_555
H173_2 C179_2 1_555 1_555
C180_2 C179_2 1_555 1_555
H174_2 C180_2 1_555 1_555
C181_2 C180_2 1_555 1_555
H175_2 C181_2 1_555 1_555
C182_2 C177_2 1_555 1_555
H176_2 C182_2 1_555 1_555
C181_2 C182_2 1_555 1_555
H178 C185 1_555 1_555
C186 C185 1_555 1_555
H179 C186 1_555 1_555
C184 H177 1_555 1_555
C191 C190 1_555 1_555
H183 C191 1_555 1_555
C192 C191 1_555 1_555
H184 C192 1_555 1_555
C193 C192 1_555 1_555
H185 C193 1_555 1_555
H180 C187 1_555 1_555
C188 C183 1_555 1_555
H181 C188 1_555 1_555
H193 C203 1_555 1_555
C204 C203 1_555 1_555
H194 C204 1_555 1_555
C205 C204 1_555 1_555
H195 C205 1_555 1_555
C206 C201 1_555 1_555
H196 C206 1_555 1_555
C187 C188 1_555 1_555
C205 C206 1_555 1_555
C189 B4 1_555 1_555
C194 C189 1_555 1_555
H186 C194 1_555 1_555
C195 B4 1_555 1_555
C196 C195 1_555 1_555
H187 C196 1_555 1_555
C197 C196 1_555 1_555
H188 C197 1_555 1_555
C198 C197 1_555 1_555
H189 C198 1_555 1_555
C199 C198 1_555 1_555
H190 C199 1_555 1_555
C200 C195 1_555 1_555
H191 C200 1_555 1_555
H192 C202 1_555 1_555
C199 C200 1_555 1_555
C184_2 H177_2 1_555 1_555
C191_2 C190_2 1_555 1_555
H184_2 C192_2 1_555 1_555
H178_2 C185_2 1_555 1_555
C186_2 C185_2 1_555 1_555
H179_2 C186_2 1_555 1_555
C189_2 B4_2 1_555 1_555
C194_2 C189_2 1_555 1_555
H186_2 C194_2 1_555 1_555
C195_2 B4_2 1_555 1_555
C196_2 C195_2 1_555 1_555
H187_2 C196_2 1_555 1_555
C197_2 C196_2 1_555 1_555
H188_2 C197_2 1_555 1_555
C198_2 C197_2 1_555 1_555
H189_2 C198_2 1_555 1_555
C199_2 C198_2 1_555 1_555
H190_2 C199_2 1_555 1_555
C200_2 C195_2 1_555 1_555
H191_2 C200_2 1_555 1_555
H192_2 C202_2 1_555 1_555
C199_2 C200_2 1_555 1_555
H180_2 C187_2 1_555 1_555
C188_2 C183_2 1_555 1_555
H181_2 C188_2 1_555 1_555
C204_2 C203_2 1_555 1_555
C205_2 C204_2 1_555 1_555
H195_2 C205_2 1_555 1_555
C206_2 C201_2 1_555 1_555
H196_2 C206_2 1_555 1_555
C187_2 C188_2 1_555 1_555
C205_2 C206_2 1_555 1_555
B5 C207 1_555 1_555
C207 C208 1_555 1_555
C208 H197 1_555 1_555
C209 C208 1_555 1_555
H198 C209 1_555 1_555
C210 C209 1_555 1_555
H199 C210 1_555 1_555
C211 C210 1_555 1_555
H200 C211 1_555 1_555
C212 C207 1_555 1_555
H201 C212 1_555 1_555
H210 C223 1_555 1_555
H211 C224 1_555 1_555
C225 B5 1_555 1_555
C226 C225 1_555 1_555
H212 C226 1_555 1_555
C227 C226 1_555 1_555
H213 C227 1_555 1_555
C228 C227 1_555 1_555
H214 C228 1_555 1_555
C229 C228 1_555 1_555
H215 C229 1_555 1_555
C230 C225 1_555 1_555
H216 C230 1_555 1_555
C211 C212 1_555 1_555
C223 C224 1_555 1_555
C229 C230 1_555 1_555
C214 C213 1_555 1_555
C215 C214 1_555 1_555
H203 C215 1_555 1_555
C216 C215 1_555 1_555
H204 C216 1_555 1_555
C217 C216 1_555 1_555
H205 C217 1_555 1_555
C218 C213 1_555 1_555
H206 C218 1_555 1_555
C220 C219 1_555 1_555
H207 C220 1_555 1_555
C221 C220 1_555 1_555
H208 C221 1_555 1_555
C222 C221 1_555 1_555
H209 C222 1_555 1_555
C217 C218 1_555 1_555
C214_2 C213_2 1_555 1_555
C215_2 C214_2 1_555 1_555
H203_2 C215_2 1_555 1_555
C216_2 C215_2 1_555 1_555
H204_2 C216_2 1_555 1_555
C217_2 C216_2 1_555 1_555
H205_2 C217_2 1_555 1_555
C218_2 C213_2 1_555 1_555
H206_2 C218_2 1_555 1_555
C220_2 C219_2 1_555 1_555
H207_2 C220_2 1_555 1_555
C221_2 C220_2 1_555 1_555
H208_2 C221_2 1_555 1_555
C222_2 C221_2 1_555 1_555
H209_2 C222_2 1_555 1_555
C217_2 C218_2 1_555 1_555
B5_2 C207_2 1_555 1_555
C207_2 C208_2 1_555 1_555
C208_2 H197_2 1_555 1_555
C209_2 C208_2 1_555 1_555
H198_2 C209_2 1_555 1_555
C210_2 C209_2 1_555 1_555
H199_2 C210_2 1_555 1_555
C211_2 C210_2 1_555 1_555
H200_2 C211_2 1_555 1_555
C212_2 C207_2 1_555 1_555
H201_2 C212_2 1_555 1_555
H210_2 C223_2 1_555 1_555
H211_2 C224_2 1_555 1_555
C225_2 B5_2 1_555 1_555
C226_2 C225_2 1_555 1_555
H212_2 C226_2 1_555 1_555
C227_2 C226_2 1_555 1_555
H213_2 C227_2 1_555 1_555
C228_2 C227_2 1_555 1_555
H214_2 C228_2 1_555 1_555
C229_2 C228_2 1_555 1_555
H215_2 C229_2 1_555 1_555
C230_2 C225_2 1_555 1_555
H216_2 C230_2 1_555 1_555
C211_2 C212_2 1_555 1_555
C223_2 C224_2 1_555 1_555
C229_2 C230_2 1_555 1_555
H224 C240 1_555 1_555
B6 C231 1_555 1_555
C231 C232 1_555 1_555
C232 H217 1_555 1_555
C233 C232 1_555 1_555
H218 C233 1_555 1_555
C234 C233 1_555 1_555
H219 C234 1_555 1_555
C235 C234 1_555 1_555
H220 C235 1_555 1_555
C236 C231 1_555 1_555
H221 C236 1_555 1_555
C237 B6 1_555 1_555
C238 C237 1_555 1_555
H222 C238 1_555 1_555
C239 C238 1_555 1_555
C242 C237 1_555 1_555
H226 C242 1_555 1_555
C243 B6 1_555 1_555
C244 C243 1_555 1_555
H227 C244 1_555 1_555
C245 C244 1_555 1_555
H228 C245 1_555 1_555
C246 C245 1_555 1_555
H229 C246 1_555 1_555
C247 C246 1_555 1_555
H230 C247 1_555 1_555
C248 C243 1_555 1_555
H231 C248 1_555 1_555
C249 B6 1_555 1_555
C250 C249 1_555 1_555
H232 C250 1_555 1_555
C251 C250 1_555 1_555
H233 C251 1_555 1_555
C252 C251 1_555 1_555
H234 C252 1_555 1_555
C253 C252 1_555 1_555
H235 C253 1_555 1_555
C254 C249 1_555 1_555
H236 C254 1_555 1_555
C235 C236 1_555 1_555
C241 C242 1_555 1_555
C247 C248 1_555 1_555
C253 C254 1_555 1_555
B6_2 C231_2 1_555 1_555
C231_2 C232_2 1_555 1_555
C232_2 H217_2 1_555 1_555
C233_2 C232_2 1_555 1_555
H218_2 C233_2 1_555 1_555
C234_2 C233_2 1_555 1_555
H219_2 C234_2 1_555 1_555
C235_2 C234_2 1_555 1_555
H220_2 C235_2 1_555 1_555
C236_2 C231_2 1_555 1_555
H221_2 C236_2 1_555 1_555
C237_2 B6_2 1_555 1_555
C238_2 C237_2 1_555 1_555
H222_2 C238_2 1_555 1_555
C239_2 C238_2 1_555 1_555
H223_2 C239_2 1_555 1_555
C240_2 C239_2 1_555 1_555
H224_2 C240_2 1_555 1_555
C241_2 C240_2 1_555 1_555
H225_2 C241_2 1_555 1_555
C242_2 C237_2 1_555 1_555
H226_2 C242_2 1_555 1_555
C243_2 B6_2 1_555 1_555
C244_2 C243_2 1_555 1_555
H227_2 C244_2 1_555 1_555
C245_2 C244_2 1_555 1_555
H228_2 C245_2 1_555 1_555
C246_2 C245_2 1_555 1_555
H229_2 C246_2 1_555 1_555
C247_2 C246_2 1_555 1_555
H230_2 C247_2 1_555 1_555
C248_2 C243_2 1_555 1_555
H231_2 C248_2 1_555 1_555
C249_2 B6_2 1_555 1_555
C250_2 C249_2 1_555 1_555
H232_2 C250_2 1_555 1_555
C251_2 C250_2 1_555 1_555
H233_2 C251_2 1_555 1_555
C252_2 C251_2 1_555 1_555
H234_2 C252_2 1_555 1_555
C253_2 C252_2 1_555 1_555
H235_2 C253_2 1_555 1_555
C254_2 C249_2 1_555 1_555
H236_2 C254_2 1_555 1_555
C235_2 C236_2 1_555 1_555
C241_2 C242_2 1_555 1_555
C247_2 C248_2 1_555 1_555
C253_2 C254_2 1_555 1_555
B7 C255 1_555 1_555
C255 C256 1_555 1_555
C257 C256 1_555 1_555
C258 C257 1_555 1_555
H239 C258 1_555 1_555
C259 C258 1_555 1_555
H240 C259 1_555 1_555
C260 C255 1_555 1_555
H241 C260 1_555 1_555
C261 B7 1_555 1_555
C266 C261 1_555 1_555
H246 C266 1_555 1_555
C267 B7 1_555 1_555
C268 C267 1_555 1_555
H247 C268 1_555 1_555
C269 C268 1_555 1_555
H248 C269 1_555 1_555
C270 C269 1_555 1_555
H249 C270 1_555 1_555
C271 C270 1_555 1_555
H250 C271 1_555 1_555
C272 C267 1_555 1_555
H251 C272 1_555 1_555
C273 B7 1_555 1_555
C274 C273 1_555 1_555
H252 C274 1_555 1_555
C275 C274 1_555 1_555
H253 C275 1_555 1_555
C276 C275 1_555 1_555
H254 C276 1_555 1_555
C277 C276 1_555 1_555
H255 C277 1_555 1_555
C278 C273 1_555 1_555
H256 C278 1_555 1_555
C259 C260 1_555 1_555
C271 C272 1_555 1_555
C277 C278 1_555 1_555
H242 C262 1_555 1_555
C263 C262 1_555 1_555
H243 C263 1_555 1_555
C264 C263 1_555 1_555
H244 C264 1_555 1_555
C265 C264 1_555 1_555
H245 C265 1_555 1_555
B7_2 C255_2 1_555 1_555
C255_2 C256_2 1_555 1_555
C256_2 H237_2 1_555 1_555
C257_2 C256_2 1_555 1_555
H238_2 C257_2 1_555 1_555
C258_2 C257_2 1_555 1_555
H239_2 C258_2 1_555 1_555
C259_2 C258_2 1_555 1_555
H240_2 C259_2 1_555 1_555
C260_2 C255_2 1_555 1_555
H241_2 C260_2 1_555 1_555
C261_2 B7_2 1_555 1_555
C262_2 C261_2 1_555 1_555
H242_2 C262_2 1_555 1_555
C263_2 C262_2 1_555 1_555
H243_2 C263_2 1_555 1_555
C264_2 C263_2 1_555 1_555
H244_2 C264_2 1_555 1_555
C265_2 C264_2 1_555 1_555
H245_2 C265_2 1_555 1_555
C266_2 C261_2 1_555 1_555
H246_2 C266_2 1_555 1_555
C267_2 B7_2 1_555 1_555
C268_2 C267_2 1_555 1_555
H247_2 C268_2 1_555 1_555
C269_2 C268_2 1_555 1_555
H248_2 C269_2 1_555 1_555
C270_2 C269_2 1_555 1_555
H249_2 C270_2 1_555 1_555
C271_2 C270_2 1_555 1_555
H250_2 C271_2 1_555 1_555
C272_2 C267_2 1_555 1_555
H251_2 C272_2 1_555 1_555
C273_2 B7_2 1_555 1_555
C274_2 C273_2 1_555 1_555
H252_2 C274_2 1_555 1_555
C275_2 C274_2 1_555 1_555
H253_2 C275_2 1_555 1_555
C276_2 C275_2 1_555 1_555
H254_2 C276_2 1_555 1_555
C277_2 C276_2 1_555 1_555
H255_2 C277_2 1_555 1_555
C278_2 C273_2 1_555 1_555
H256_2 C278_2 1_555 1_555
C259_2 C260_2 1_555 1_555
C265_2 C266_2 1_555 1_555
C271_2 C272_2 1_555 1_555
C277_2 C278_2 1_555 1_555
B8 C279 1_555 1_555
C279 C280 1_555 1_555
C280 H257 1_555 1_555
C281 C280 1_555 1_555
H258 C281 1_555 1_555
C282 C281 1_555 1_555
H259 C282 1_555 1_555
C283 C282 1_555 1_555
H260 C283 1_555 1_555
C284 C279 1_555 1_555
H261 C284 1_555 1_555
C285 B8 1_555 1_555
C286 C285 1_555 1_555
H262 C286 1_555 1_555
C287 C286 1_555 1_555
H263 C287 1_555 1_555
C288 C287 1_555 1_555
C297 B8 1_555 1_555
C298 C297 1_555 1_555
H272 C298 1_555 1_555
C299 C298 1_555 1_555
H273 C299 1_555 1_555
C300 C299 1_555 1_555
H274 C300 1_555 1_555
C301 C300 1_555 1_555
H275 C301 1_555 1_555
C302 C297 1_555 1_555
H276 C302 1_555 1_555
C283 C284 1_555 1_555
C301 C302 1_555 1_555
H265 C289 1_555 1_555
H266 C290 1_555 1_555
C292 C291 1_555 1_555
H267 C292 1_555 1_555
C293 C292 1_555 1_555
H268 C293 1_555 1_555
C294 C293 1_555 1_555
H269 C294 1_555 1_555
C295 C294 1_555 1_555
H270 C295 1_555 1_555
C296 C291 1_555 1_555
C289 C290 1_555 1_555
C295 C296 1_555 1_555
B8_2 C279_2 1_555 1_555
C279_2 C280_2 1_555 1_555
C280_2 H257_2 1_555 1_555
C281_2 C280_2 1_555 1_555
H258_2 C281_2 1_555 1_555
C282_2 C281_2 1_555 1_555
H259_2 C282_2 1_555 1_555
C283_2 C282_2 1_555 1_555
H260_2 C283_2 1_555 1_555
C284_2 C279_2 1_555 1_555
H261_2 C284_2 1_555 1_555
C285_2 B8_2 1_555 1_555
C286_2 C285_2 1_555 1_555
H262_2 C286_2 1_555 1_555
C287_2 C286_2 1_555 1_555
H263_2 C287_2 1_555 1_555
C288_2 C287_2 1_555 1_555
H264_2 C288_2 1_555 1_555
C289_2 C288_2 1_555 1_555
H265_2 C289_2 1_555 1_555
C290_2 C285_2 1_555 1_555
H266_2 C290_2 1_555 1_555
C291_2 B8_2 1_555 1_555
C292_2 C291_2 1_555 1_555
H267_2 C292_2 1_555 1_555
C293_2 C292_2 1_555 1_555
H268_2 C293_2 1_555 1_555
C294_2 C293_2 1_555 1_555
H269_2 C294_2 1_555 1_555
C295_2 C294_2 1_555 1_555
H270_2 C295_2 1_555 1_555
C296_2 C291_2 1_555 1_555
H271_2 C296_2 1_555 1_555
C297_2 B8_2 1_555 1_555
C298_2 C297_2 1_555 1_555
H272_2 C298_2 1_555 1_555
C299_2 C298_2 1_555 1_555
H273_2 C299_2 1_555 1_555
C300_2 C299_2 1_555 1_555
H274_2 C300_2 1_555 1_555
C301_2 C300_2 1_555 1_555
H275_2 C301_2 1_555 1_555
C302_2 C297_2 1_555 1_555
H276_2 C302_2 1_555 1_555
C283_2 C284_2 1_555 1_555
C289_2 C290_2 1_555 1_555
C295_2 C296_2 1_555 1_555
C301_2 C302_2 1_555 1_555

#END
