
###############################################################################
#
# This file contains modified crystal structure data generated from the
# MOF subset of the Cambridge Structural Database (CSD) v543 
# hosted by the Cambridge Crystallographic Data Centre (CCDC).
#
# This work is licensed under the Creative Commons
# Attribution-NonCommercial-ShareAlike 4.0 International License.
# To view a copy of this license, visit
# http://creativecommons.org/licenses/by-nc-sa/4.0/
# or send a letter to
# Creative Commons, PO Box 1866, Mountain View, CA 94042, USA.
#
# CIF created using the CSD Python API on 29 September 2022
# The structure has been converted into the P1 space group
# The structure has a 3D framework
# The original CSD entry QICQEB is in the monoclinic crystal system
# The framework has been calculated to contain at least 10.0% void space
# The void calculation uses a probe of radius 1.32A, grid spacing 0.4
# The framework is charged, counterions have been retained in the structure
#
###############################################################################

data_QICQEB
_chemical_formula_moiety         '(C96 H72 Cu4 N40 O46 W12)n'
_symmetry_cell_setting           triclinic
_symmetry_space_group_name_H-M   'P 1'
_symmetry_Int_Tables_number      1
_space_group_name_Hall           'P 1'
loop_
_symmetry_equiv_pos_site_id
_symmetry_equiv_pos_as_xyz
1 x,y,z
_cell_length_a                   16.4114(5)
_cell_length_b                   8.7003(3)
_cell_length_c                   25.2295(10)
_cell_angle_alpha                90
_cell_angle_beta                 108.016(4)
_cell_angle_gamma                90
_cell_volume                     3425.75
loop_
_atom_site_label
_atom_site_type_symbol
_atom_site_fract_x
_atom_site_fract_y
_atom_site_fract_z
W1 W 0.09883(3) 0.33376(5) 0.482113(18)
O1 O 0.0000 0.5000 0.5000
O2 O 0.0155(5) 0.3589(9) 0.4105(3)
O4 O 0.0191(4) 0.1977(8) 0.5006(3)
O5 O 0.1444(4) 0.3734(9) 0.5605(3)
O7 O 0.0039(5) 0.3385(10) 0.5898(3)
O8 O 0.1745(5) 0.2155(10) 0.4700(3)
W5 W 0.07565(3) 0.71031(6) 0.48212(2)
W6 W 0.08093(3) 0.50861(6) 0.593625(18)
O12 O 0.1409(4) 0.5344(9) 0.4721(3)
O15 O 0.1242(4) 0.6772(9) 0.5604(3)
O18 O 0.1333(6) 0.8606(11) 0.4689(4)
O19 O 0.1412(6) 0.5155(12) 0.6622(3)
W2 W 0.92435(3) 0.28969(6) 0.51788(2)
W3 W 0.91907(3) 0.49139(6) 0.406375(18)
O1_2 O 1.0000 0.5000 0.5000
O3 O 0.8591(4) 0.4656(9) 0.5279(3)
O6 O 0.8758(4) 0.3228(9) 0.4396(3)
O9 O 0.8667(6) 0.1394(11) 0.5311(4)
O10 O 0.8588(6) 0.4845(12) 0.3378(3)
W4 W 0.90117(3) 0.66624(5) 0.517887(18)
O11 O 0.9845(5) 0.6411(9) 0.5895(3)
O13 O 0.9809(4) 0.8023(8) 0.4994(3)
O14 O 0.8556(4) 0.6266(9) 0.4395(3)
O16 O 0.9961(5) 0.6615(10) 0.4102(3)
O17 O 0.8255(5) 0.7845(10) 0.5300(3)
O1_3 O 0.0000 0.0000 0.0000
O13_2 O 0.0191(4) 0.3023(8) 0.0006(3)
O14_2 O 0.1444(4) 0.1266(9) 0.0605(3)
O16_2 O 0.0039(5) 0.1615(10) 0.0898(3)
O1_4 O 0.0000 0.0000 1.0000
W4_2 W 0.09883(3) 0.16624(5) 0.982113(18)
O11_2 O 0.0155(5) 0.1411(9) 0.9105(3)
O17_2 O 0.1745(5) 0.2845(10) 0.9700(3)
W3_2 W 0.08093(3) 0.99139(6) 0.093625(18)
O1_5 O 0.0000 1.0000 0.0000
O6_2 O 0.1242(4) 0.8228(9) 0.0604(3)
O10_2 O 0.1412(6) 0.9845(12) 0.1622(3)
W2_2 W 0.07565(3) 0.78969(6) 0.98212(2)
O1_6 O 0.0000 1.0000 1.0000
O3_2 O 0.1409(4) 0.9656(9) 0.9721(3)
O9_2 O 0.1333(6) 0.6394(11) 0.9689(4)
O1_7 O 1.0000 0.0000 0.0000
W5_2 W 0.92435(3) 0.21031(6) 0.01788(2)
O12_2 O 0.8591(4) 0.0344(9) 0.0279(3)
O18_2 O 0.8667(6) 0.3606(11) 0.0311(4)
O1_8 O 1.0000 0.0000 1.0000
W6_2 W 0.91907(3) 0.00861(6) 0.906375(18)
O15_2 O 0.8758(4) 0.1772(9) 0.9396(3)
O19_2 O 0.8588(6) 0.0155(12) 0.8378(3)
W1_2 W 0.90117(3) 0.83376(5) 0.017887(18)
O1_9 O 1.0000 1.0000 0.0000
O2_2 O 0.9845(5) 0.8589(9) 0.0895(3)
O8_2 O 0.8255(5) 0.7155(10) 0.0300(3)
O1_10 O 1.0000 1.0000 1.0000
O4_2 O 0.9809(4) 0.6977(8) 0.9994(3)
O5_2 O 0.8556(4) 0.8734(9) 0.9395(3)
O7_2 O 0.9961(5) 0.8385(10) 0.9102(3)
N3 N 0.4930(6) 0.2009(12) 0.0252(4)
N4 N 0.4301(6) 0.1652(13) 0.0489(4)
C8 C 0.3639(6) 0.1203(15) 0.0081(4)
H6 H 0.3123 0.0886 0.0125
Cu4 Cu 0.57667(8) 0.3861(2) 0.05458(6)
N1 N 0.1670(5) 0.0076(11) 0.7402(3)
N2 N 0.3797(5) 0.1255(10) 0.9586(3)
C1 C 0.2172(6) 0.0420(12) 0.7966(4)
C2 C 0.2786(6) 0.1578(13) 0.8069(4)
H1 H 0.2839 0.2176 0.7776
C3 C 0.3316(7) 0.1843(13) 0.8604(4)
H2 H 0.3732 0.2608 0.8672
C4 C 0.3224(5) 0.0969(12) 0.9036(4)
C7 C 0.4624(6) 0.1745(13) 0.9718(4)
H5 H 0.4927 0.1873 0.9465
C9 C 0.0765(5) 0.0188(11) 0.7243(4)
C14 C 0.0367(5) 0.1020(13) 0.7559(4)
H10 H 0.0693 0.1513 0.7882
C21 C 0.2314(6) 0.0507(14) 0.6123(4)
H15 H 0.2122 0.0955 0.5772
C22 C 0.1826(6) 0.0624(14) 0.6485(4)
H16 H 0.1310 0.1159 0.6378
H17 H 0.4829 0.0134 0.6434
Cu2 Cu 0.57667(8) 0.1139(2) 0.55458(6)
N5 N 0.8079(5) 0.0513(10) 0.6738(3)
N6 N 0.6775(5) 0.0905(11) 0.6205(3)
N7 N 0.6770(5) 0.0912(13) 0.6752(3)
C12 C 0.9003(5) 0.0366(12) 0.6919(4)
C13 C 0.9472(6) 0.1116(12) 0.7391(4)
H9 H 0.9199 0.1685 0.7599
C15 C 0.7565(6) 0.0655(13) 0.6212(4)
H11 H 0.7743 0.0586 0.5897
C16 C 0.7556(6) 0.0679(14) 0.7057(4)
H12 H 0.7737 0.0633 0.7445
N11 N 0.4930(6) 0.2991(12) 0.5252(4)
N13 N 0.5973(5) 0.0492(12) 0.4813(3)
N13_2 N 0.4027(5) 0.5492(12) 0.0187(3)
C11 C 0.0621(6) 0.0483(13) 0.3399(4)
H8 H 0.0954 0.0979 0.3720
N12 N 0.5267(5) 0.0172(11) 0.4358(3)
N8 N 0.6390(5) 0.0294(11) 0.4072(3)
C5 C 0.7392(6) 0.0143(13) 0.1052(4)
H3 H 0.7445 0.0725 0.0756
C6 C 0.7938(6) 0.0398(13) 0.1588(4)
H4 H 0.8377 0.1116 0.1648
C10 C 0.9723(6) 0.0588(12) 0.3231(4)
H7 H 0.9455 0.1177 0.3436
C17 C 0.7886(5) 0.0061(12) 0.2992(4)
C18 C 0.7102(6) 0.0868(13) 0.2841(4)
H13 H 0.6905 0.1344 0.2494
C19 C 0.6629(6) 0.0954(14) 0.3201(4)
H14 H 0.6109 0.1477 0.3097
C20 C 0.6919(6) 0.0274(13) 0.3713(4)
C23 C 0.5524(6) 0.0067(12) 0.3926(4)
C24 C 0.6633(6) 0.0556(14) 0.4627(4)
H18 H 0.7192 0.0755 0.4846
N1_2 N 0.1670(5) 0.4924(11) 0.2402(3)
N2_2 N 0.3797(5) 0.3745(10) 0.4586(3)
N4_2 N 0.4301(6) 0.3348(13) 0.5489(4)
N8_2 N 0.3610(5) 0.5294(11) 0.0928(3)
N9 N 0.4733(5) 0.5172(11) 0.0642(3)
C1_2 C 0.2172(6) 0.4580(12) 0.2966(4)
C2_2 C 0.2786(6) 0.3422(13) 0.3069(4)
H1_2 H 0.2839 0.2824 0.2776
C3_2 C 0.3316(7) 0.3157(13) 0.3604(4)
H2_2 H 0.3732 0.2392 0.3672
C4_2 C 0.3224(5) 0.4031(12) 0.4036(4)
C5_2 C 0.2608(6) 0.5143(13) 0.3948(4)
H3_2 H 0.2555 0.5725 0.4244
C6_2 C 0.2062(6) 0.5398(13) 0.3412(4)
H4_2 H 0.1623 0.6116 0.3352
C7_2 C 0.4624(6) 0.3255(13) 0.4718(4)
H5_2 H 0.4927 0.3127 0.4465
C8_2 C 0.3639(6) 0.3797(15) 0.5081(4)
H6_2 H 0.3123 0.4114 0.5125
C9_2 C 0.0765(5) 0.4812(11) 0.2243(4)
C10_2 C 0.0277(6) 0.5588(12) 0.1769(4)
H7_2 H 0.0545 0.6177 0.1564
C14_2 C 0.0367(5) 0.3980(13) 0.2559(4)
H10_2 H 0.0693 0.3487 0.2882
C17_2 C 0.2114(5) 0.5061(12) 0.2008(4)
C18_2 C 0.2898(6) 0.5868(13) 0.2159(4)
H13_2 H 0.3095 0.6344 0.2506
C19_2 C 0.3371(6) 0.5954(14) 0.1799(4)
H14_2 H 0.3891 0.6477 0.1903
C20_2 C 0.3081(6) 0.5274(13) 0.1287(4)
C21_2 C 0.2314(6) 0.4493(14) 0.1123(4)
H15_2 H 0.2122 0.4045 0.0772
C22_2 C 0.1826(6) 0.4376(14) 0.1485(4)
H16_2 H 0.1310 0.3841 0.1378
C23_2 C 0.4476(6) 0.5067(12) 0.1074(4)
H17_2 H 0.4829 0.4866 0.1434
C24_2 C 0.3367(6) 0.5556(14) 0.0373(4)
H18_2 H 0.2808 0.5755 0.0154
N5_2 N 0.8079(5) 0.4487(10) 0.1738(3)
N6_2 N 0.6775(5) 0.4095(11) 0.1205(3)
N7_2 N 0.6770(5) 0.4088(13) 0.1752(3)
C11_2 C 0.9379(6) 0.5483(13) 0.1601(4)
H8_2 H 0.9046 0.5979 0.1280
C12_2 C 0.9003(5) 0.4634(12) 0.1919(4)
C13_2 C 0.9472(6) 0.3884(12) 0.2391(4)
H9_2 H 0.9199 0.3315 0.2599
C15_2 C 0.7565(6) 0.4345(13) 0.1212(4)
H11_2 H 0.7743 0.4414 0.0897
C16_2 C 0.7556(6) 0.4321(14) 0.2057(4)
H12_2 H 0.7737 0.4367 0.2445
N8_3 N 0.3610(5) 0.9706(11) 0.5928(3)
N9_2 N 0.4733(5) 0.9828(11) 0.5642(3)
N10 N 0.4027(5) 0.9508(12) 0.5187(3)
C5_3 C 0.2608(6) 0.9857(13) 0.8948(4)
H3_3 H 0.2555 0.9275 0.9244
C6_3 C 0.2062(6) 0.9602(13) 0.8412(4)
H4_3 H 0.1623 0.8884 0.8352
C10_3 C 0.0277(6) 0.9412(12) 0.6769(4)
H7_3 H 0.0545 0.8823 0.6564
C17_3 C 0.2114(5) 0.9939(12) 0.7008(4)
C18_3 C 0.2898(6) 0.9132(13) 0.7159(4)
H13_3 H 0.3095 0.8656 0.7506
C19_3 C 0.3371(6) 0.9046(14) 0.6799(4)
H14_3 H 0.3891 0.8523 0.6903
C20_3 C 0.3081(6) 0.9726(13) 0.6287(4)
C23_3 C 0.4476(6) 0.9933(12) 0.6074(4)
C24_3 C 0.3367(6) 0.9444(14) 0.5373(4)
H18_3 H 0.2808 0.9245 0.5154
Cu3 Cu 0.42333(8) 0.8861(2) 0.44542(6)
C11_3 C 0.9379(6) 0.9517(13) 0.6601(4)
H8_3 H 0.9046 0.9021 0.6280
Cu1 Cu 0.42333(8) 0.6139(2) 0.94542(6)
N5_3 N 0.1921(5) 0.5513(10) 0.8262(3)
N6_3 N 0.3225(5) 0.5905(11) 0.8795(3)
N7_3 N 0.3230(5) 0.5912(13) 0.8248(3)
C11_4 C 0.0621(6) 0.4517(13) 0.8399(4)
H8_4 H 0.0954 0.4021 0.8720
C12_3 C 0.0997(5) 0.5366(12) 0.8081(4)
C13_3 C 0.0528(6) 0.6116(12) 0.7609(4)
H9_3 H 0.0801 0.6685 0.7401
C15_3 C 0.2435(6) 0.5655(13) 0.8788(4)
H11_3 H 0.2257 0.5586 0.9103
C16_3 C 0.2444(6) 0.5679(14) 0.7943(4)
H12_3 H 0.2263 0.5633 0.7555
N11_2 N 0.5070(6) 0.7991(12) 0.9748(4)
N12_2 N 0.5267(5) 0.4828(11) 0.9358(3)
N1_3 N 0.8330(5) 0.5076(11) 0.7598(3)
N2_3 N 0.6203(5) 0.6255(10) 0.5414(3)
N3_2 N 0.5070(6) 0.7009(12) 0.4748(4)
N4_3 N 0.5699(6) 0.6652(13) 0.4511(4)
N8_4 N 0.6390(5) 0.4706(11) 0.9072(3)
N10_2 N 0.5973(5) 0.4508(12) 0.9813(3)
C1_3 C 0.7828(6) 0.5420(12) 0.7034(4)
C2_3 C 0.7214(6) 0.6578(13) 0.6931(4)
H1_3 H 0.7161 0.7176 0.7224
C3_3 C 0.6684(7) 0.6843(13) 0.6396(4)
H2_3 H 0.6268 0.7608 0.6328
C4_3 C 0.6776(5) 0.5969(12) 0.5964(4)
C5_4 C 0.7392(6) 0.4857(13) 0.6052(4)
H3_4 H 0.7445 0.4275 0.5756
C6_4 C 0.7938(6) 0.4602(13) 0.6588(4)
H4_4 H 0.8377 0.3884 0.6648
C7_3 C 0.5376(6) 0.6745(13) 0.5282(4)
H5_3 H 0.5073 0.6873 0.5535
C8_3 C 0.6361(6) 0.6203(15) 0.4919(4)
H6_3 H 0.6877 0.5886 0.4875
C9_3 C 0.9235(5) 0.5188(11) 0.7757(4)
C10_4 C 0.9723(6) 0.4412(12) 0.8231(4)
H7_4 H 0.9455 0.3823 0.8436
C14_3 C 0.9633(5) 0.6020(13) 0.7441(4)
H10_3 H 0.9307 0.6513 0.7118
C17_4 C 0.7886(5) 0.4939(12) 0.7992(4)
C18_4 C 0.7102(6) 0.4132(13) 0.7841(4)
H13_4 H 0.6905 0.3656 0.7494
C19_4 C 0.6629(6) 0.4046(14) 0.8201(4)
H14_4 H 0.6109 0.3523 0.8097
C20_4 C 0.6919(6) 0.4726(13) 0.8713(4)
C21_3 C 0.7686(6) 0.5507(14) 0.8877(4)
H15_3 H 0.7878 0.5955 0.9228
C22_3 C 0.8174(6) 0.5624(14) 0.8515(4)
H16_3 H 0.8690 0.6159 0.8622
C23_4 C 0.5524(6) 0.4933(12) 0.8926(4)
H17_3 H 0.5171 0.5134 0.8566
C24_4 C 0.6633(6) 0.4444(14) 0.9627(4)
H18_4 H 0.7192 0.4245 0.9846
N5_4 N 0.1921(5) 0.9487(10) 0.3262(3)
N6_4 N 0.3225(5) 0.9095(11) 0.3795(3)
N7_4 N 0.3230(5) 0.9088(13) 0.3248(3)
C12_4 C 0.0997(5) 0.9634(12) 0.3081(4)
C13_4 C 0.0528(6) 0.8884(12) 0.2609(4)
H9_4 H 0.0801 0.8315 0.2401
C15_4 C 0.2435(6) 0.9345(13) 0.3788(4)
H11_4 H 0.2257 0.9414 0.4103
C16_4 C 0.2444(6) 0.9321(14) 0.2943(4)
H12_4 H 0.2263 0.9367 0.2555
N1_4 N 0.8330(5) 0.9924(11) 0.2598(3)
N2_4 N 0.6203(5) 0.8745(10) 0.0414(3)
C1_4 C 0.7828(6) 0.9580(12) 0.2034(4)
C2_4 C 0.7214(6) 0.8422(13) 0.1931(4)
H1_4 H 0.7161 0.7824 0.2224
C3_4 C 0.6684(7) 0.8157(13) 0.1396(4)
H2_4 H 0.6268 0.7392 0.1328
C4_4 C 0.6776(5) 0.9031(12) 0.0964(4)
C7_4 C 0.5376(6) 0.8255(13) 0.0282(4)
H5_4 H 0.5073 0.8127 0.0535
C9_4 C 0.9235(5) 0.9812(11) 0.2757(4)
C14_4 C 0.9633(5) 0.8980(13) 0.2441(4)
H10_4 H 0.9307 0.8487 0.2118
C21_4 C 0.7686(6) 0.9493(14) 0.3877(4)
H15_4 H 0.7878 0.9045 0.4228
C22_4 C 0.8174(6) 0.9376(14) 0.3515(4)
H16_4 H 0.8690 0.8841 0.3622
H17_4 H 0.5171 0.9866 0.3566
N4_4 N 0.5699(6) 0.8348(13) 0.9511(4)
C8_4 C 0.6361(6) 0.8797(15) 0.9919(4)
H6_4 H 0.6877 0.9114 0.9875
loop_
_geom_bond_atom_site_label_1
_geom_bond_atom_site_label_2
_geom_bond_site_symmetry_1
_geom_bond_site_symmetry_2
W1 O1 1_555 1_555
O2 W1 1_555 1_555
O4 W1 1_555 1_555
O5 W1 1_555 1_555
O8 W1 1_555 1_555
W5 O1 1_555 1_555
W6 O1 1_555 1_555
O12 W1 1_555 1_555
O15 W5 1_555 1_555
O18 W5 1_555 1_555
O19 W6 1_555 1_555
O5 W6 1_555 1_555
O7 W6 1_555 1_555
W5 O12 1_555 1_555
W6 O15 1_555 1_555
W2 O1_2 1_555 1_555
W3 O1_2 1_555 1_555
O1_2 W4 1_555 1_555
O3 W2 1_555 1_555
O6 W2 1_555 1_555
O9 W2 1_555 1_555
O10 W3 1_555 1_555
W4 O3 1_555 1_555
O11 W4 1_555 1_555
O13 W4 1_555 1_555
O14 W3 1_555 1_555
O16 W3 1_555 1_555
O17 W4 1_555 1_555
W3 O6 1_555 1_555
W4 O14 1_555 1_555
O1_4 W4_2 1_555 1_555
O11_2 W4_2 1_555 1_555
O17_2 W4_2 1_555 1_555
W3_2 O1_5 1_555 1_555
O10_2 W3_2 1_555 1_555
W3_2 O6_2 1_555 1_555
W2_2 O1_6 1_555 1_555
O3_2 W2_2 1_555 1_555
O9_2 W2_2 1_555 1_555
W5_2 O1_7 1_555 1_555
O18_2 W5_2 1_555 1_555
W5_2 O12_2 1_555 1_555
W6_2 O1_8 1_555 1_555
O19_2 W6_2 1_555 1_555
W6_2 O15_2 1_555 1_555
W1_2 O1_9 1_555 1_555
O2_2 W1_2 1_555 1_555
O8_2 W1_2 1_555 1_555
N3 N4 1_555 1_555
N4 C8 1_555 1_555
H6 C8 1_555 1_555
Cu4 N3 1_555 1_555
N1 C1 1_555 1_555
N2 C4 1_555 1_555
C1 C2 1_555 1_555
C2 H1 1_555 1_555
C3 C2 1_555 1_555
H2 C3 1_555 1_555
C4 C3 1_555 1_555
C7 N2 1_555 1_555
H5 C7 1_555 1_555
C9 N1 1_555 1_555
C14 C9 1_555 1_555
H10 C14 1_555 1_555
H15 C21 1_555 1_555
H16 C22 1_555 1_555
C21 C22 1_555 1_555
Cu2 N6 1_555 1_555
N5 C12 1_555 1_555
N6 N7 1_555 1_555
N7 C16 1_555 1_555
C13 C12 1_555 1_555
H9 C13 1_555 1_555
C15 N5 1_555 1_555
H11 C15 1_555 1_555
C16 N5 1_555 1_555
H12 C16 1_555 1_555
N11 Cu2 1_555 1_555
N13 Cu2 1_555 1_555
N6 C15 1_555 1_555
H8 C11 1_555 1_555
N8 C20 1_555 1_555
N12 N13 1_555 1_555
N13 C24 1_555 1_555
H3 C5 1_555 1_555
H4 C6 1_555 1_555
H7 C10 1_555 1_555
C18 C17 1_555 1_555
H13 C18 1_555 1_555
C19 C18 1_555 1_555
H14 C19 1_555 1_555
C20 C19 1_555 1_555
C23 N8 1_555 1_555
C24 N8 1_555 1_555
H18 C24 1_555 1_555
N12 C23 1_555 1_555
C5 C6 1_555 1_555
N1_2 C1_2 1_555 1_555
N2_2 C4_2 1_555 1_555
N11 N4_2 1_555 1_555
N4_2 C8_2 1_555 1_555
N8_2 C20_2 1_555 1_555
N9 N13_2 1_555 1_555
N13_2 C24_2 1_555 1_555
C1_2 C2_2 1_555 1_555
C2_2 H1_2 1_555 1_555
C3_2 C2_2 1_555 1_555
H2_2 C3_2 1_555 1_555
C4_2 C3_2 1_555 1_555
C5_2 C4_2 1_555 1_555
H3_2 C5_2 1_555 1_555
C6_2 C1_2 1_555 1_555
H4_2 C6_2 1_555 1_555
C7_2 N2_2 1_555 1_555
H5_2 C7_2 1_555 1_555
C8_2 N2_2 1_555 1_555
H6_2 C8_2 1_555 1_555
C9_2 N1_2 1_555 1_555
C10_2 C9_2 1_555 1_555
H7_2 C10_2 1_555 1_555
C14_2 C9_2 1_555 1_555
H10_2 C14_2 1_555 1_555
C17_2 N1_2 1_555 1_555
C18_2 C17_2 1_555 1_555
H13_2 C18_2 1_555 1_555
C19_2 C18_2 1_555 1_555
H14_2 C19_2 1_555 1_555
C20_2 C19_2 1_555 1_555
C21_2 C20_2 1_555 1_555
H15_2 C21_2 1_555 1_555
C22_2 C17_2 1_555 1_555
H16_2 C22_2 1_555 1_555
C23_2 N8_2 1_555 1_555
H17_2 C23_2 1_555 1_555
C24_2 N8_2 1_555 1_555
H18_2 C24_2 1_555 1_555
Cu4 N9 1_555 1_555
N11 C7_2 1_555 1_555
N9 C23_2 1_555 1_555
C5_2 C6_2 1_555 1_555
C21_2 C22_2 1_555 1_555
Cu4 N6_2 1_555 1_555
N5_2 C12_2 1_555 1_555
N6_2 N7_2 1_555 1_555
N7_2 C16_2 1_555 1_555
H8_2 C11_2 1_555 1_555
C12_2 C11_2 1_555 1_555
C13_2 C12_2 1_555 1_555
H9_2 C13_2 1_555 1_555
C15_2 N5_2 1_555 1_555
H11_2 C15_2 1_555 1_555
C16_2 N5_2 1_555 1_555
H12_2 C16_2 1_555 1_555
N6_2 C15_2 1_555 1_555
N8_3 C20_3 1_555 1_555
N9_2 N10 1_555 1_555
N10 C24_3 1_555 1_555
H3_3 C5_3 1_555 1_555
H4_3 C6_3 1_555 1_555
H7_3 C10_3 1_555 1_555
C18_3 C17_3 1_555 1_555
H13_3 C18_3 1_555 1_555
C19_3 C18_3 1_555 1_555
H14_3 C19_3 1_555 1_555
C20_3 C19_3 1_555 1_555
C23_3 N8_3 1_555 1_555
C24_3 N8_3 1_555 1_555
H18_3 C24_3 1_555 1_555
Cu3 N10 1_555 1_555
N9_2 C23_3 1_555 1_555
C5_3 C6_3 1_555 1_555
H8_3 C11_3 1_555 1_555
Cu1 N6_3 1_555 1_555
N5_3 C12_3 1_555 1_555
N6_3 N7_3 1_555 1_555
N7_3 C16_3 1_555 1_555
H8_4 C11_4 1_555 1_555
C12_3 C11_4 1_555 1_555
C13_3 C12_3 1_555 1_555
H9_3 C13_3 1_555 1_555
C15_3 N5_3 1_555 1_555
H11_3 C15_3 1_555 1_555
C16_3 N5_3 1_555 1_555
H12_3 C16_3 1_555 1_555
N11_2 Cu1 1_555 1_555
N12_2 Cu1 1_555 1_555
N6_3 C15_3 1_555 1_555
N1_3 C1_3 1_555 1_555
N2_3 C4_3 1_555 1_555
N3_2 N4_3 1_555 1_555
N4_3 C8_3 1_555 1_555
N8_4 C20_4 1_555 1_555
N12_2 N10_2 1_555 1_555
N10_2 C24_4 1_555 1_555
C1_3 C2_3 1_555 1_555
C2_3 H1_3 1_555 1_555
C3_3 C2_3 1_555 1_555
H2_3 C3_3 1_555 1_555
C4_3 C3_3 1_555 1_555
C5_4 C4_3 1_555 1_555
H3_4 C5_4 1_555 1_555
C6_4 C1_3 1_555 1_555
H4_4 C6_4 1_555 1_555
C7_3 N2_3 1_555 1_555
H5_3 C7_3 1_555 1_555
C8_3 N2_3 1_555 1_555
H6_3 C8_3 1_555 1_555
C9_3 N1_3 1_555 1_555
C10_4 C9_3 1_555 1_555
H7_4 C10_4 1_555 1_555
C14_3 C9_3 1_555 1_555
H10_3 C14_3 1_555 1_555
C17_4 N1_3 1_555 1_555
C18_4 C17_4 1_555 1_555
H13_4 C18_4 1_555 1_555
C19_4 C18_4 1_555 1_555
H14_4 C19_4 1_555 1_555
C20_4 C19_4 1_555 1_555
C21_3 C20_4 1_555 1_555
H15_3 C21_3 1_555 1_555
C22_3 C17_4 1_555 1_555
H16_3 C22_3 1_555 1_555
C23_4 N8_4 1_555 1_555
H17_3 C23_4 1_555 1_555
C24_4 N8_4 1_555 1_555
H18_4 C24_4 1_555 1_555
Cu3 N3_2 1_555 1_555
N3_2 C7_3 1_555 1_555
N12_2 C23_4 1_555 1_555
C5_4 C6_4 1_555 1_555
C21_3 C22_3 1_555 1_555
Cu3 N6_4 1_555 1_555
N5_4 C12_4 1_555 1_555
N6_4 N7_4 1_555 1_555
N7_4 C16_4 1_555 1_555
C13_4 C12_4 1_555 1_555
H9_4 C13_4 1_555 1_555
C15_4 N5_4 1_555 1_555
H11_4 C15_4 1_555 1_555
C16_4 N5_4 1_555 1_555
H12_4 C16_4 1_555 1_555
N6_4 C15_4 1_555 1_555
N1_4 C1_4 1_555 1_555
N2_4 C4_4 1_555 1_555
C1_4 C2_4 1_555 1_555
C2_4 H1_4 1_555 1_555
C3_4 C2_4 1_555 1_555
H2_4 C3_4 1_555 1_555
C4_4 C3_4 1_555 1_555
C7_4 N2_4 1_555 1_555
H5_4 C7_4 1_555 1_555
C9_4 N1_4 1_555 1_555
C14_4 C9_4 1_555 1_555
H10_4 C14_4 1_555 1_555
H15_4 C21_4 1_555 1_555
H16_4 C22_4 1_555 1_555
C21_4 C22_4 1_555 1_555
N11_2 N4_4 1_555 1_555
N4_4 C8_4 1_555 1_555
H6_4 C8_4 1_555 1_555

#END
