
###############################################################################
#
# This file contains modified crystal structure data generated from the
# MOF subset of the Cambridge Structural Database (CSD) v543 
# hosted by the Cambridge Crystallographic Data Centre (CCDC).
#
# This work is licensed under the Creative Commons
# Attribution-NonCommercial-ShareAlike 4.0 International License.
# To view a copy of this license, visit
# http://creativecommons.org/licenses/by-nc-sa/4.0/
# or send a letter to
# Creative Commons, PO Box 1866, Mountain View, CA 94042, USA.
#
# CIF created using the CSD Python API on 29 September 2022
# The structure has been converted into the P1 space group
# The structure has a 3D framework
# The original CSD entry QIDDAI02 is in the monoclinic crystal system
# The framework has been calculated to contain at least 10.0% void space
# The void calculation uses a probe of radius 1.32A, grid spacing 0.4
#
###############################################################################

data_QIDDAI02
_chemical_formula_moiety         '(C144 H96 Cd6 F32 N24 O24)n'
_symmetry_cell_setting           triclinic
_symmetry_space_group_name_H-M   'P 1'
_symmetry_Int_Tables_number      1
_space_group_name_Hall           'P 1'
loop_
_symmetry_equiv_pos_site_id
_symmetry_equiv_pos_as_xyz
1 x,y,z
_cell_length_a                   17.902(5)
_cell_length_b                   18.977(5)
_cell_length_c                   16.758(5)
_cell_angle_alpha                90
_cell_angle_beta                 119.512(5)
_cell_angle_gamma                90
_cell_volume                     4954.46
loop_
_atom_site_label
_atom_site_type_symbol
_atom_site_fract_x
_atom_site_fract_y
_atom_site_fract_z
F1 F 0.16242(6) 0.45444(5) 0.05880(8)
C4 C 0.09701(11) 0.25245(9) 0.01354(11)
H4 H 0.1461 0.2491 0.0728
C6 C 0.04800(10) 0.35590(8) 0.06946(11)
H5 H 0.0122 0.3402 0.0961
H6 H 0.1087 0.3551 0.1188
C7 C 0.02360(9) 0.43026(8) 0.03480(10)
C8 C 0.08147(9) 0.47612(8) 0.02978(11)
Cd2 Cd 0.0000 0.877595(7) 0.2500
C19 C 0.03936(10) 0.74127(8) 0.15800(11)
H13 H 0.0870 0.7382 0.2183
C21 C 0.03321(10) 0.69251(8) 0.09373(11)
H15 H 0.0763 0.6576 0.1098
Cd1 Cd 0.0000 0.122405(7) 0.7500
F2 F 0.11778(6) 0.58535(5) 0.99277(8)
N1 N 0.01818(9) 0.20741(7) 0.86012(9)
C2 C 0.08545(11) 0.20507(9) 0.94561(11)
H2 H 0.1271 0.1691 0.9602
C5 C 0.03657(9) 0.30496(7) 0.99461(10)
C9 C 0.05851(9) 0.54359(8) 0.99605(11)
H8 H 0.0481 0.0066 0.6395
O4 O 0.13045(8) 0.10104(7) 0.73153(9)
O5 O 0.17600(13) 0.17592(8) 0.84104(11)
O6 O 0.24794(8) 0.15760(10) 0.77162(9)
N7 N 0.05960(8) 0.03156(6) 0.86214(9)
N8 N 0.18639(8) 0.14495(7) 0.78191(9)
N6 N 0.05960(8) 0.96844(6) 0.36214(9)
C28 C 0.14142(12) 0.98767(11) 0.40037(16)
H19 H 0.1782 0.9614 0.3857
C1 C 0.03936(10) 0.25873(8) 0.65800(11)
H1 H 0.0870 0.2618 0.7183
C3 C 0.03321(10) 0.30749(8) 0.59373(11)
H3 H 0.0763 0.3424 0.6098
C10 C 0.14142(12) 0.01233(11) 0.90037(16)
H7 H 0.1782 0.0386 0.8857
F5 F 0.16242(6) 0.54556(5) 0.55880(8)
F6 F 0.11778(6) 0.41465(5) 0.49277(8)
N4 N 0.01818(9) 0.79259(7) 0.36012(9)
C20 C 0.08545(11) 0.79493(9) 0.44561(11)
H14 H 0.1271 0.8309 0.4602
C22 C 0.09701(11) 0.74755(9) 0.51354(11)
H16 H 0.1461 0.7509 0.5728
C23 C 0.03657(9) 0.69504(7) 0.49461(10)
C24 C 0.04800(10) 0.64410(8) 0.56946(11)
H17 H 0.0122 0.6598 0.5961
H18 H 0.1087 0.6449 0.6188
C25 C 0.02360(9) 0.56974(8) 0.53480(10)
C26 C 0.08147(9) 0.52388(8) 0.52978(11)
C27 C 0.05851(9) 0.45641(8) 0.49605(11)
H20 H 0.0481 0.9934 0.1395
O1 O 0.13045(8) 0.89896(7) 0.23153(9)
O2 O 0.17600(13) 0.82408(8) 0.34104(11)
O3 O 0.24794(8) 0.84240(10) 0.27162(9)
N3 N 0.18639(8) 0.85505(7) 0.28191(9)
Cd2_2 Cd 1.0000 0.877595(7) 0.2500
F6_2 F 0.88222(6) 0.41465(5) 0.00723(8)
N4_2 N 0.98182(9) 0.79259(7) 0.13988(9)
C20_2 C 0.91455(11) 0.79493(9) 0.05439(11)
H14_2 H 0.8729 0.8309 0.0398
C23_2 C 0.96343(9) 0.69504(7) 0.00539(10)
C27_2 C 0.94149(9) 0.45641(8) 0.00395(11)
Cd1_2 Cd 1.0000 0.122405(7) 0.7500
O1_2 O 0.86955(8) 0.10104(7) 0.76847(9)
O2_2 O 0.82400(13) 0.17592(8) 0.65896(11)
O3_2 O 0.75206(8) 0.15760(10) 0.72838(9)
N2 N 0.94040(8) 0.03156(6) 0.63786(9)
N3_2 N 0.81361(8) 0.14495(7) 0.71809(9)
C1_2 C 0.96064(10) 0.25873(8) 0.84200(11)
H1_2 H 0.9130 0.2618 0.7817
C3_2 C 0.96679(10) 0.30749(8) 0.90627(11)
H3_2 H 0.9237 0.3424 0.8902
C10_2 C 0.85858(12) 0.01233(11) 0.59963(16)
H7_2 H 0.8218 0.0386 0.6143
F5_2 F 0.83758(6) 0.54556(5) 0.94120(8)
N5 N 0.98182(9) 0.20741(7) 0.63988(9)
C22_2 C 0.90299(11) 0.74755(9) 0.98646(11)
H16_2 H 0.8539 0.7509 0.9272
C24_2 C 0.95200(10) 0.64410(8) 0.93054(11)
H17_2 H 0.9878 0.6598 0.9039
H18_2 H 0.8913 0.6449 0.8812
C25_2 C 0.97640(9) 0.56974(8) 0.96520(10)
C26_2 C 0.91853(9) 0.52388(8) 0.97022(11)
H20_2 H 0.9519 0.9934 0.3605
F1_2 F 0.83758(6) 0.45444(5) 0.44120(8)
F2_2 F 0.88222(6) 0.58535(5) 0.50723(8)
C2_2 C 0.91455(11) 0.20507(9) 0.55439(11)
H2_2 H 0.8729 0.1691 0.5398
C4_2 C 0.90299(11) 0.25245(9) 0.48646(11)
H4_2 H 0.8539 0.2491 0.4272
C5_2 C 0.96343(9) 0.30496(7) 0.50539(10)
C6_2 C 0.95200(10) 0.35590(8) 0.43054(11)
H5_2 H 0.9878 0.3402 0.4039
H6_2 H 0.8913 0.3551 0.3812
C7_2 C 0.97640(9) 0.43026(8) 0.46520(10)
C8_2 C 0.91853(9) 0.47612(8) 0.47022(11)
C9_2 C 0.94149(9) 0.54359(8) 0.50395(11)
H8_2 H 0.9519 0.0066 0.8605
C19_2 C 0.96064(10) 0.74127(8) 0.34200(11)
H13_2 H 0.9130 0.7382 0.2817
C21_2 C 0.96679(10) 0.69251(8) 0.40627(11)
H15_2 H 0.9237 0.6576 0.3902
N6_2 N 0.94040(8) 0.96844(6) 0.13786(9)
C28_2 C 0.85858(12) 0.98767(11) 0.09963(16)
H19_2 H 0.8218 0.9614 0.1143
O4_2 O 0.86955(8) 0.89896(7) 0.26847(9)
O5_2 O 0.82400(13) 0.82408(8) 0.15896(11)
O6_2 O 0.75206(8) 0.84240(10) 0.22838(9)
N8_2 N 0.81361(8) 0.85505(7) 0.21809(9)
F3 F 0.92328(6) 0.75652(6) 0.59060(8)
F4 F 0.84534(7) 0.65932(6) 0.63798(8)
C11 C 0.98944(11) 0.99383(10) 0.61411(14)
C12 C 0.82383(12) 0.95615(12) 0.53945(17)
H9 H 0.7648 0.9447 0.5144
C13 C 0.95944(12) 0.93714(10) 0.55451(14)
H10 H 0.9972 0.9121 0.5401
C14 C 0.87468(10) 0.91710(8) 0.51602(10)
C15 C 0.83920(12) 0.85615(9) 0.44909(12)
H11 H 0.7992 0.8748 0.3873
H12 H 0.8871 0.8327 0.4460
C16 C 0.79250(10) 0.80212(8) 0.47488(11)
C17 C 0.83637(10) 0.75380(8) 0.54393(11)
C18 C 0.79609(11) 0.70340(8) 0.56878(11)
Cd3 Cd 0.5000 0.377595(7) 0.2500
F7 F 0.57672(6) 0.74348(6) 0.40940(8)
F8 F 0.65466(7) 0.84068(6) 0.36202(8)
N6_3 N 0.55960(8) 0.46844(6) 0.36214(9)
C28_3 C 0.64142(12) 0.48767(11) 0.40037(16)
H19_3 H 0.6782 0.4614 0.3857
C29 C 0.51056(11) 0.50617(10) 0.38589(14)
H20_3 H 0.4519 0.4934 0.3605
C30 C 0.67617(12) 0.54385(12) 0.46055(17)
H21 H 0.7352 0.5553 0.4856
C31 C 0.54056(12) 0.56286(10) 0.44549(14)
H22 H 0.5028 0.5879 0.4599
C32 C 0.62532(10) 0.58290(8) 0.48398(10)
C33 C 0.66080(12) 0.64385(9) 0.55091(12)
H23 H 0.7008 0.6252 0.6127
H24 H 0.6129 0.6673 0.5540
C34 C 0.70750(10) 0.69788(8) 0.52512(11)
C35 C 0.66363(10) 0.74620(8) 0.45607(11)
C36 C 0.70391(11) 0.79660(8) 0.43122(11)
N4_3 N 0.48182(9) 0.29259(7) 0.13988(9)
C19_3 C 0.53936(10) 0.24127(8) 0.15800(11)
H13_3 H 0.5870 0.2382 0.2183
C20_3 C 0.41455(11) 0.29493(9) 0.05439(11)
H14_3 H 0.3729 0.3309 0.0398
C21_3 C 0.53321(10) 0.19251(8) 0.09373(11)
H15_3 H 0.5763 0.1576 0.1098
C23_3 C 0.46343(9) 0.19504(7) 0.00539(10)
C15_2 C 0.16080(12) 0.85615(9) 0.05091(12)
H11_2 H 0.2008 0.8748 0.1127
H12_2 H 0.1129 0.8327 0.0540
C16_2 C 0.20750(10) 0.80212(8) 0.02512(11)
F7_2 F 0.42328(6) 0.74348(6) 0.09060(8)
F8_2 F 0.34534(7) 0.84068(6) 0.13798(8)
N6_4 N 0.44040(8) 0.46844(6) 0.13786(9)
C28_4 C 0.35858(12) 0.48767(11) 0.09963(16)
H19_4 H 0.3218 0.4614 0.1143
C29_2 C 0.48944(11) 0.50617(10) 0.11411(14)
H20_4 H 0.5481 0.4934 0.1395
C30_2 C 0.32383(12) 0.54385(12) 0.03945(17)
H21_2 H 0.2648 0.5553 0.0144
C31_2 C 0.45944(12) 0.56286(10) 0.05451(14)
H22_2 H 0.4972 0.5879 0.0401
C32_2 C 0.37468(10) 0.58290(8) 0.01602(10)
C35_2 C 0.33637(10) 0.74620(8) 0.04393(11)
C36_2 C 0.29609(11) 0.79660(8) 0.06878(11)
F2_3 F 0.38222(6) 0.08535(5) 0.50723(8)
C9_3 C 0.44149(9) 0.04359(8) 0.50395(11)
F5_3 F 0.66242(6) 0.04556(5) 0.55880(8)
N4_4 N 0.51818(9) 0.29259(7) 0.36012(9)
C19_4 C 0.46064(10) 0.24127(8) 0.34200(11)
H13_4 H 0.4130 0.2382 0.2817
C20_4 C 0.58545(11) 0.29493(9) 0.44561(11)
H14_4 H 0.6271 0.3309 0.4602
C21_4 C 0.46679(10) 0.19251(8) 0.40627(11)
H15_4 H 0.4237 0.1576 0.3902
C22_3 C 0.59701(11) 0.24755(9) 0.51354(11)
H16_3 H 0.6461 0.2509 0.5728
C23_4 C 0.53657(9) 0.19504(7) 0.49461(10)
C24_3 C 0.54800(10) 0.14410(8) 0.56946(11)
H17_3 H 0.5122 0.1598 0.5961
H18_3 H 0.6087 0.1449 0.6188
C25_3 C 0.52360(9) 0.06974(8) 0.53480(10)
C26_3 C 0.58147(9) 0.02388(8) 0.52978(11)
O1_3 O 0.63045(8) 0.39896(7) 0.23153(9)
O2_3 O 0.67600(13) 0.32408(8) 0.34104(11)
O3_3 O 0.74794(8) 0.34240(10) 0.27162(9)
N3_3 N 0.68639(8) 0.35505(7) 0.28191(9)
O4_3 O 0.36955(8) 0.39896(7) 0.26847(9)
O5_3 O 0.32400(13) 0.32408(8) 0.15896(11)
O6_3 O 0.25206(8) 0.34240(10) 0.22838(9)
N8_3 N 0.31361(8) 0.35505(7) 0.21809(9)
F2_4 F 0.61778(6) 0.08535(5) 0.99277(8)
C9_4 C 0.55851(9) 0.04359(8) 0.99605(11)
F5_4 F 0.33758(6) 0.04556(5) 0.94120(8)
C22_4 C 0.40299(11) 0.24755(9) 0.98646(11)
H16_4 H 0.3539 0.2509 0.9272
C24_4 C 0.45200(10) 0.14410(8) 0.93054(11)
H17_4 H 0.4878 0.1598 0.9039
H18_4 H 0.3913 0.1449 0.8812
C25_4 C 0.47640(9) 0.06974(8) 0.96520(10)
C26_4 C 0.41853(9) 0.02388(8) 0.97022(11)
F1_3 F 0.66242(6) 0.95444(5) 0.05880(8)
C4_3 C 0.59701(11) 0.75245(9) 0.01354(11)
H4_3 H 0.6461 0.7491 0.0728
C6_3 C 0.54800(10) 0.85590(8) 0.06946(11)
H5_3 H 0.5122 0.8402 0.0961
H6_3 H 0.6087 0.8551 0.1188
C7_3 C 0.52360(9) 0.93026(8) 0.03480(10)
C8_3 C 0.58147(9) 0.97612(8) 0.02978(11)
F6_3 F 0.38222(6) 0.91465(5) 0.00723(8)
C27_3 C 0.44149(9) 0.95641(8) 0.00395(11)
Cd1_3 Cd 0.5000 0.622405(7) 0.7500
F3_2 F 0.42328(6) 0.25652(6) 0.59060(8)
F4_2 F 0.34534(7) 0.15932(6) 0.63798(8)
O1_4 O 0.36955(8) 0.60104(7) 0.76847(9)
O2_4 O 0.32400(13) 0.67592(8) 0.65896(11)
O3_4 O 0.25206(8) 0.65760(10) 0.72838(9)
N1_2 N 0.51818(9) 0.70741(7) 0.86012(9)
N2_2 N 0.44040(8) 0.53156(6) 0.63786(9)
N3_4 N 0.31361(8) 0.64495(7) 0.71809(9)
C1_3 C 0.46064(10) 0.75873(8) 0.84200(11)
H1_3 H 0.4130 0.7618 0.7817
C2_3 C 0.58545(11) 0.70507(9) 0.94561(11)
H2_3 H 0.6271 0.6691 0.9602
C3_3 C 0.46679(10) 0.80749(8) 0.90627(11)
H3_3 H 0.4237 0.8424 0.8902
C5_3 C 0.53657(9) 0.80496(7) 0.99461(10)
C10_3 C 0.35858(12) 0.51233(11) 0.59963(16)
H7_3 H 0.3218 0.5386 0.6143
C11_2 C 0.48944(11) 0.49383(10) 0.61411(14)
H8_3 H 0.5481 0.5066 0.6395
C12_2 C 0.32383(12) 0.45615(12) 0.53945(17)
H9_2 H 0.2648 0.4447 0.5144
C13_2 C 0.45944(12) 0.43714(10) 0.55451(14)
H10_2 H 0.4972 0.4121 0.5401
C14_2 C 0.37468(10) 0.41710(8) 0.51602(10)
C15_3 C 0.33920(12) 0.35615(9) 0.44909(12)
H11_3 H 0.2992 0.3748 0.3873
H12_3 H 0.3871 0.3327 0.4460
C16_3 C 0.29250(10) 0.30212(8) 0.47488(11)
C17_2 C 0.33637(10) 0.25380(8) 0.54393(11)
C18_2 C 0.29609(11) 0.20340(8) 0.56878(11)
F7_3 F 0.07672(6) 0.24348(6) 0.40940(8)
F8_3 F 0.15466(7) 0.34068(6) 0.36202(8)
O4_4 O 0.63045(8) 0.60104(7) 0.73153(9)
O5_4 O 0.67600(13) 0.67592(8) 0.84104(11)
O6_4 O 0.74794(8) 0.65760(10) 0.77162(9)
N5_2 N 0.48182(9) 0.70741(7) 0.63988(9)
N7_2 N 0.55960(8) 0.53156(6) 0.86214(9)
N8_4 N 0.68639(8) 0.64495(7) 0.78191(9)
C29_3 C 0.01056(11) 0.00617(10) 0.38589(14)
C30_3 C 0.17617(12) 0.04385(12) 0.46055(17)
H21_3 H 0.2352 0.0553 0.4856
C31_3 C 0.04056(12) 0.06286(10) 0.44549(14)
H22_3 H 0.0028 0.0879 0.4599
C32_3 C 0.12532(10) 0.08290(8) 0.48398(10)
C33_2 C 0.16080(12) 0.14385(9) 0.55091(12)
H23_2 H 0.2008 0.1252 0.6127
H24_2 H 0.1129 0.1673 0.5540
C34_2 C 0.20750(10) 0.19788(8) 0.52512(11)
C35_3 C 0.16363(10) 0.24620(8) 0.45607(11)
C36_3 C 0.20391(11) 0.29660(8) 0.43122(11)
F1_4 F 0.33758(6) 0.95444(5) 0.44120(8)
F3_3 F 0.57672(6) 0.25652(6) 0.90940(8)
F4_3 F 0.65466(7) 0.15932(6) 0.86202(8)
C1_4 C 0.53936(10) 0.75873(8) 0.65800(11)
H1_4 H 0.5870 0.7618 0.7183
C2_4 C 0.41455(11) 0.70507(9) 0.55439(11)
H2_4 H 0.3729 0.6691 0.5398
C3_4 C 0.53321(10) 0.80749(8) 0.59373(11)
H3_4 H 0.5763 0.8424 0.6098
C4_4 C 0.40299(11) 0.75245(9) 0.48646(11)
H4_4 H 0.3539 0.7491 0.4272
C5_4 C 0.46343(9) 0.80496(7) 0.50539(10)
C6_4 C 0.45200(10) 0.85590(8) 0.43054(11)
H5_4 H 0.4878 0.8402 0.4039
H6_4 H 0.3913 0.8551 0.3812
C7_4 C 0.47640(9) 0.93026(8) 0.46520(10)
C8_4 C 0.41853(9) 0.97612(8) 0.47022(11)
C10_4 C 0.64142(12) 0.51233(11) 0.90037(16)
H7_4 H 0.6782 0.5386 0.8857
C11_3 C 0.51056(11) 0.49383(10) 0.88589(14)
H8_4 H 0.4519 0.5066 0.8605
C12_3 C 0.67617(12) 0.45615(12) 0.96055(17)
H9_3 H 0.7352 0.4447 0.9856
C13_3 C 0.54056(12) 0.43714(10) 0.94549(14)
H10_3 H 0.5028 0.4121 0.9599
C14_3 C 0.62532(10) 0.41710(8) 0.98398(10)
C17_3 C 0.66363(10) 0.25380(8) 0.95607(11)
C18_3 C 0.70391(11) 0.20340(8) 0.93122(11)
F6_4 F 0.61778(6) 0.91465(5) 0.49277(8)
C27_4 C 0.55851(9) 0.95641(8) 0.49605(11)
C33_3 C 0.83920(12) 0.14385(9) 0.94909(12)
H23_3 H 0.7992 0.1252 0.8873
H24_3 H 0.8871 0.1673 0.9460
C34_3 C 0.79250(10) 0.19788(8) 0.97488(11)
F3_4 F 0.07672(6) 0.75652(6) 0.90940(8)
F4_4 F 0.15466(7) 0.65932(6) 0.86202(8)
C11_4 C 0.01056(11) 0.99383(10) 0.88589(14)
C12_4 C 0.17617(12) 0.95615(12) 0.96055(17)
H9_4 H 0.2352 0.9447 0.9856
C13_4 C 0.04056(12) 0.93714(10) 0.94549(14)
H10_4 H 0.0028 0.9121 0.9599
C14_4 C 0.12532(10) 0.91710(8) 0.98398(10)
C17_4 C 0.16363(10) 0.75380(8) 0.95607(11)
C18_4 C 0.20391(11) 0.70340(8) 0.93122(11)
C33_4 C 0.33920(12) 0.64385(9) 0.94909(12)
H23_4 H 0.2992 0.6252 0.8873
H24_4 H 0.3871 0.6673 0.9460
C34_4 C 0.29250(10) 0.69788(8) 0.97488(11)
C15_4 C 0.66080(12) 0.35615(9) 0.05091(12)
H11_4 H 0.7008 0.3748 0.1127
H12_4 H 0.6129 0.3327 0.0540
C16_4 C 0.70750(10) 0.30212(8) 0.02512(11)
F7_4 F 0.92328(6) 0.24348(6) 0.09060(8)
F8_4 F 0.84534(7) 0.34068(6) 0.13798(8)
C29_4 C 0.98944(11) 0.00617(10) 0.11411(14)
C30_4 C 0.82383(12) 0.04385(12) 0.03945(17)
H21_4 H 0.7648 0.0553 0.0144
C31_4 C 0.95944(12) 0.06286(10) 0.05451(14)
H22_4 H 0.9972 0.0879 0.0401
C32_4 C 0.87468(10) 0.08290(8) 0.01602(10)
C35_4 C 0.83637(10) 0.24620(8) 0.04393(11)
C36_4 C 0.79609(11) 0.29660(8) 0.06878(11)
loop_
_geom_bond_atom_site_label_1
_geom_bond_atom_site_label_2
_geom_bond_site_symmetry_1
_geom_bond_site_symmetry_2
F1 C8 1_555 1_555
H4 C4 1_555 1_555
H5 C6 1_555 1_555
H6 C6 1_555 1_555
C7 C6 1_555 1_555
C8 C7 1_555 1_555
C19 H13 1_555 1_555
C21 C19 1_555 1_555
H15 C21 1_555 1_555
F2 C9 1_555 1_555
N1 Cd1 1_555 1_555
C2 N1 1_555 1_555
H2 C2 1_555 1_555
O4 Cd1 1_555 1_555
O5 N8 1_555 1_555
O6 N8 1_555 1_555
N7 Cd1 1_555 1_555
N8 O4 1_555 1_555
Cd2 N6 1_555 1_555
N6 C28 1_555 1_555
C28 H19 1_555 1_555
H1 C1 1_555 1_555
C3 C1 1_555 1_555
H3 C3 1_555 1_555
C10 N7 1_555 1_555
H7 C10 1_555 1_555
Cd2 N4 1_555 1_555
F5 C26 1_555 1_555
F6 C27 1_555 1_555
C20 N4 1_555 1_555
H14 C20 1_555 1_555
C22 C20 1_555 1_555
H16 C22 1_555 1_555
C24 C23 1_555 1_555
H17 C24 1_555 1_555
H18 C24 1_555 1_555
C26 C25 1_555 1_555
C22 C23 1_555 1_555
C24 C25 1_555 1_555
C26 C27 1_555 1_555
Cd2 O1 1_555 1_555
O1 N3 1_555 1_555
O2 N3 1_555 1_555
O3 N3 1_555 1_555
Cd2_2 N4_2 1_555 1_555
F6_2 C27_2 1_555 1_555
C20_2 N4_2 1_555 1_555
H14_2 C20_2 1_555 1_555
Cd1_2 O1_2 1_555 1_555
O1_2 N3_2 1_555 1_555
O2_2 N3_2 1_555 1_555
O3_2 N3_2 1_555 1_555
N2 Cd1_2 1_555 1_555
H1_2 C1_2 1_555 1_555
C3_2 C1_2 1_555 1_555
H3_2 C3_2 1_555 1_555
C10_2 N2 1_555 1_555
H7_2 C10_2 1_555 1_555
F5_2 C26_2 1_555 1_555
N5 Cd1_2 1_555 1_555
H16_2 C22_2 1_555 1_555
H17_2 C24_2 1_555 1_555
H18_2 C24_2 1_555 1_555
C26_2 C25_2 1_555 1_555
C24_2 C25_2 1_555 1_555
F1_2 C8_2 1_555 1_555
F2_2 C9_2 1_555 1_555
C2_2 N5 1_555 1_555
H2_2 C2_2 1_555 1_555
C4_2 C2_2 1_555 1_555
H4_2 C4_2 1_555 1_555
C6_2 C5_2 1_555 1_555
H5_2 C6_2 1_555 1_555
H6_2 C6_2 1_555 1_555
C7_2 C6_2 1_555 1_555
C8_2 C7_2 1_555 1_555
C9_2 C8_2 1_555 1_555
C19_2 H13_2 1_555 1_555
C21_2 C19_2 1_555 1_555
H15_2 C21_2 1_555 1_555
C4_2 C5_2 1_555 1_555
Cd2_2 N6_2 1_555 1_555
N6_2 C28_2 1_555 1_555
C28_2 H19_2 1_555 1_555
O4_2 Cd2_2 1_555 1_555
O5_2 N8_2 1_555 1_555
O6_2 N8_2 1_555 1_555
N8_2 O4_2 1_555 1_555
F3 C17 1_555 1_555
F4 C18 1_555 1_555
H9 C12 1_555 1_555
C13 C11 1_555 1_555
H10 C13 1_555 1_555
C14 C12 1_555 1_555
C15 C14 1_555 1_555
H11 C15 1_555 1_555
H12 C15 1_555 1_555
C16 C15 1_555 1_555
C17 C16 1_555 1_555
C18 C17 1_555 1_555
Cd3 N6_3 1_555 1_555
F7 C35 1_555 1_555
F8 C36 1_555 1_555
N6_3 C28_3 1_555 1_555
C28_3 H19_3 1_555 1_555
C29 N6_3 1_555 1_555
H20_3 C29 1_555 1_555
C30 C28_3 1_555 1_555
H21 C30 1_555 1_555
C31 C29 1_555 1_555
H22 C31 1_555 1_555
C32 C30 1_555 1_555
C33 C32 1_555 1_555
H23 C33 1_555 1_555
H24 C33 1_555 1_555
C34 C18 1_555 1_555
C35 C34 1_555 1_555
C36 C16 1_555 1_555
C13 C14 1_555 1_555
C31 C32 1_555 1_555
C33 C34 1_555 1_555
C35 C36 1_555 1_555
Cd3 N4_3 1_555 1_555
N4_3 C19_3 1_555 1_555
C19_3 H13_3 1_555 1_555
C20_3 N4_3 1_555 1_555
H14_3 C20_3 1_555 1_555
C21_3 C19_3 1_555 1_555
H15_3 C21_3 1_555 1_555
C23_3 C21_3 1_555 1_555
H11_2 C15_2 1_555 1_555
H12_2 C15_2 1_555 1_555
C16_2 C15_2 1_555 1_555
Cd3 N6_4 1_555 1_555
F7_2 C35_2 1_555 1_555
F8_2 C36_2 1_555 1_555
N6_4 C28_4 1_555 1_555
C28_4 H19_4 1_555 1_555
C29_2 N6_4 1_555 1_555
H20_4 C29_2 1_555 1_555
C30_2 C28_4 1_555 1_555
H21_2 C30_2 1_555 1_555
C31_2 C29_2 1_555 1_555
H22_2 C31_2 1_555 1_555
C32_2 C30_2 1_555 1_555
C36_2 C16_2 1_555 1_555
C31_2 C32_2 1_555 1_555
C35_2 C36_2 1_555 1_555
F2_3 C9_3 1_555 1_555
Cd3 N4_4 1_555 1_555
F5_3 C26_3 1_555 1_555
N4_4 C19_4 1_555 1_555
C19_4 H13_4 1_555 1_555
C20_4 N4_4 1_555 1_555
H14_4 C20_4 1_555 1_555
C21_4 C19_4 1_555 1_555
H15_4 C21_4 1_555 1_555
C22_3 C20_4 1_555 1_555
H16_3 C22_3 1_555 1_555
C23_4 C21_4 1_555 1_555
C24_3 C23_4 1_555 1_555
H17_3 C24_3 1_555 1_555
H18_3 C24_3 1_555 1_555
C25_3 C9_3 1_555 1_555
C26_3 C25_3 1_555 1_555
C22_3 C23_4 1_555 1_555
C24_3 C25_3 1_555 1_555
Cd3 O1_3 1_555 1_555
O1_3 N3_3 1_555 1_555
O2_3 N3_3 1_555 1_555
O3_3 N3_3 1_555 1_555
O4_3 Cd3 1_555 1_555
O5_3 N8_3 1_555 1_555
O6_3 N8_3 1_555 1_555
N8_3 O4_3 1_555 1_555
F2_4 C9_4 1_555 1_555
F5_4 C26_4 1_555 1_555
H16_4 C22_4 1_555 1_555
H17_4 C24_4 1_555 1_555
H18_4 C24_4 1_555 1_555
C25_4 C9_4 1_555 1_555
C26_4 C25_4 1_555 1_555
C24_4 C25_4 1_555 1_555
F1_3 C8_3 1_555 1_555
H4_3 C4_3 1_555 1_555
H5_3 C6_3 1_555 1_555
H6_3 C6_3 1_555 1_555
C7_3 C6_3 1_555 1_555
C8_3 C7_3 1_555 1_555
F6_3 C27_3 1_555 1_555
C27_3 C7_3 1_555 1_555
Cd1_3 O1_4 1_555 1_555
F3_2 C17_2 1_555 1_555
F4_2 C18_2 1_555 1_555
O1_4 N3_4 1_555 1_555
O2_4 N3_4 1_555 1_555
O3_4 N3_4 1_555 1_555
N1_2 Cd1_3 1_555 1_555
N2_2 Cd1_3 1_555 1_555
C1_3 N1_2 1_555 1_555
H1_3 C1_3 1_555 1_555
C2_3 N1_2 1_555 1_555
H2_3 C2_3 1_555 1_555
C3_3 C1_3 1_555 1_555
H3_3 C3_3 1_555 1_555
C5_3 C3_3 1_555 1_555
C10_3 N2_2 1_555 1_555
H7_3 C10_3 1_555 1_555
C11_2 N2_2 1_555 1_555
H8_3 C11_2 1_555 1_555
C12_2 C10_3 1_555 1_555
H9_2 C12_2 1_555 1_555
C13_2 C11_2 1_555 1_555
H10_2 C13_2 1_555 1_555
C14_2 C12_2 1_555 1_555
C15_3 C14_2 1_555 1_555
H11_3 C15_3 1_555 1_555
H12_3 C15_3 1_555 1_555
C16_3 C15_3 1_555 1_555
C17_2 C16_3 1_555 1_555
C18_2 C17_2 1_555 1_555
F7_3 C35_3 1_555 1_555
F8_3 C36_3 1_555 1_555
O4_4 Cd1_3 1_555 1_555
O5_4 N8_4 1_555 1_555
O6_4 N8_4 1_555 1_555
N5_2 Cd1_3 1_555 1_555
N7_2 Cd1_3 1_555 1_555
N8_4 O4_4 1_555 1_555
H21_3 C30_3 1_555 1_555
C31_3 C29_3 1_555 1_555
H22_3 C31_3 1_555 1_555
C32_3 C30_3 1_555 1_555
C33_2 C32_3 1_555 1_555
H23_2 C33_2 1_555 1_555
H24_2 C33_2 1_555 1_555
C34_2 C18_2 1_555 1_555
C35_3 C34_2 1_555 1_555
C36_3 C16_3 1_555 1_555
C13_2 C14_2 1_555 1_555
C31_3 C32_3 1_555 1_555
C33_2 C34_2 1_555 1_555
C35_3 C36_3 1_555 1_555
F1_4 C8_4 1_555 1_555
F3_3 C17_3 1_555 1_555
F4_3 C18_3 1_555 1_555
C1_4 N5_2 1_555 1_555
H1_4 C1_4 1_555 1_555
C2_4 N5_2 1_555 1_555
H2_4 C2_4 1_555 1_555
C3_4 C1_4 1_555 1_555
H3_4 C3_4 1_555 1_555
C4_4 C2_4 1_555 1_555
H4_4 C4_4 1_555 1_555
C5_4 C3_4 1_555 1_555
C6_4 C5_4 1_555 1_555
H5_4 C6_4 1_555 1_555
H6_4 C6_4 1_555 1_555
C7_4 C6_4 1_555 1_555
C8_4 C7_4 1_555 1_555
C10_4 N7_2 1_555 1_555
H7_4 C10_4 1_555 1_555
C11_3 N7_2 1_555 1_555
H8_4 C11_3 1_555 1_555
C12_3 C10_4 1_555 1_555
H9_3 C12_3 1_555 1_555
C13_3 C11_3 1_555 1_555
H10_3 C13_3 1_555 1_555
C14_3 C12_3 1_555 1_555
C18_3 C17_3 1_555 1_555
F6_4 C27_4 1_555 1_555
C27_4 C7_4 1_555 1_555
H23_3 C33_3 1_555 1_555
H24_3 C33_3 1_555 1_555
C34_3 C18_3 1_555 1_555
C4_4 C5_4 1_555 1_555
C13_3 C14_3 1_555 1_555
C33_3 C34_3 1_555 1_555
F3_4 C17_4 1_555 1_555
F4_4 C18_4 1_555 1_555
H9_4 C12_4 1_555 1_555
C13_4 C11_4 1_555 1_555
H10_4 C13_4 1_555 1_555
C14_4 C12_4 1_555 1_555
C18_4 C17_4 1_555 1_555
H23_4 C33_4 1_555 1_555
H24_4 C33_4 1_555 1_555
C34_4 C18_4 1_555 1_555
C13_4 C14_4 1_555 1_555
C33_4 C34_4 1_555 1_555
H11_4 C15_4 1_555 1_555
H12_4 C15_4 1_555 1_555
C16_4 C15_4 1_555 1_555
F7_4 C35_4 1_555 1_555
F8_4 C36_4 1_555 1_555
H21_4 C30_4 1_555 1_555
C31_4 C29_4 1_555 1_555
H22_4 C31_4 1_555 1_555
C32_4 C30_4 1_555 1_555
C36_4 C16_4 1_555 1_555
C31_4 C32_4 1_555 1_555
C35_4 C36_4 1_555 1_555

#END
