
###############################################################################
#
# This file contains modified crystal structure data generated from the
# MOF subset of the Cambridge Structural Database (CSD) v543 
# hosted by the Cambridge Crystallographic Data Centre (CCDC).
#
# This work is licensed under the Creative Commons
# Attribution-NonCommercial-ShareAlike 4.0 International License.
# To view a copy of this license, visit
# http://creativecommons.org/licenses/by-nc-sa/4.0/
# or send a letter to
# Creative Commons, PO Box 1866, Mountain View, CA 94042, USA.
#
# CIF created using the CSD Python API on 29 September 2022
# The structure has been converted into the P1 space group
# The structure has a 3D framework
# The original CSD entry QIDTEF is in the rhombohedral crystal system
# The original CSD entry QIDTEF is in a Sohncke space group
# The framework has been calculated to contain at least 10.0% void space
# The void calculation uses a probe of radius 1.32A, grid spacing 0.4
#
###############################################################################

data_QIDTEF
_chemical_formula_moiety         '(C189 H117 Gd18 N27 O124)n'
_symmetry_cell_setting           triclinic
_symmetry_space_group_name_H-M   'P 1'
_symmetry_Int_Tables_number      1
_space_group_name_Hall           'P 1'
loop_
_symmetry_equiv_pos_site_id
_symmetry_equiv_pos_as_xyz
1 x,y,z
_cell_length_a                   19.5746(2)
_cell_length_b                   19.5746(2)
_cell_length_c                   21.7740(3)
_cell_angle_alpha                90
_cell_angle_beta                 90
_cell_angle_gamma                120
_cell_volume                     7225.28
loop_
_atom_site_label
_atom_site_type_symbol
_atom_site_fract_x
_atom_site_fract_y
_atom_site_fract_z
O1 O 0.2147(6) 0.0328(8) 0.5349(5)
O3 O 0.2808(6) 0.0749(9) 0.4479(6)
C4 C 0.2287(8) 0.0232(11) 0.4798(8)
Gd4 Gd 0.26998(3) 0.13631(4) 0.60476(2)
Gd8 Gd 0.39008(3) 0.19446(4) 0.423672(19)
N1 N 0.1589(9) 0.8486(6) 0.3738(6)
C5 C 0.0602(8) 0.8166(7) 0.4515(7)
C6 C 0.1778(8) 0.9422(11) 0.4528(6)
C8 C 0.1057(7) 0.8886(7) 0.4788(6)
H3 H 0.0885 0.9015 0.5144
C10 C 0.0898(8) 0.8010(8) 0.4001(6)
H5 H 0.0584 0.7523 0.3816
C13 C 0.2014(7) 0.9194(11) 0.3986(6)
H8 H 0.2484 0.9556 0.3798
Gd6 Gd 0.19702(4) 0.80034(3) 0.27143(2)
Gd1 Gd 0.86633(3) 0.73002(3) 0.60476(2)
Gd2 Gd 0.80438(3) 0.60992(3) 0.423672(19)
O2 O 0.9586(6) 0.7729(6) 0.5240(5)
O4 O 0.7044(6) 0.5611(7) 0.4962(6)
O5 O 0.9379(6) 0.7026(6) 0.4395(6)
O6 O 0.7355(5) 0.6295(6) 0.5853(6)
O7 O 0.4566(7) 0.2940(10) 0.4989(6)
O8 O 0.3827(7) 0.2601(11) 0.5833(6)
O9 O 0.3188(5) 0.4275(6) 0.3236(6)
C1 C 0.9802(7) 0.7599(7) 0.4739(7)
C2 C 0.6922(7) 0.5741(8) 0.5516(7)
O10 O 0.6866(7) 0.5859(6) 0.3694(7)
C3 C 0.6106(7) 0.5134(7) 0.5758(6)
N2 N 0.5129(11) 0.4826(7) 0.6532(6)
C7 C 0.4925(8) 0.3886(8) 0.5769(7)
O11 O 0.8029(7) 0.7793(7) 0.6696(5)
H1 H 0.7741 0.8142 0.6493
H2 H 0.8376 0.8241 0.7083
C9 C 0.5829(13) 0.5344(9) 0.6282(8)
H4 H 0.6130 0.5842 0.6455
C11 C 0.4713(9) 0.4129(8) 0.6268(8)
H6 H 0.4231 0.3777 0.6445
C12 C 0.5625(8) 0.4408(9) 0.5483(7)
H7 H 0.5770 0.4277 0.5114
O12 O 0.7010(6) 0.4819(6) 0.3820(6)
C14 C 0.5240(8) 0.4914(8) 0.3430(6)
H9 H 0.5474 0.5445 0.3325
C15 C 0.5706(8) 0.4590(8) 0.3600(6)
C16 C 0.4455(8) 0.4458(7) 0.3418(7)
C17 C 0.5350(8) 0.3833(9) 0.3735(7)
H10 H 0.5661 0.3620 0.3855
C18 C 0.6589(8) 0.5150(9) 0.3699(6)
C19 C 0.3916(8) 0.4767(8) 0.3221(7)
C20 C 0.4158(9) 0.3687(9) 0.3557(8)
H11 H 0.3613 0.3369 0.3540
N3 N 0.4550(8) 0.3342(6) 0.3710(7)
O13 O 0.4194(7) 0.5479(6) 0.3102(7)
C21 C 0.4406(8) 0.3083(11) 0.5496(7)
O14 O 0.9467(6) 0.8760(6) 0.6113(5)
H12 H 0.9181 0.9016 0.6254
H13 H 0.9697 0.9017 0.5726
Gd5 Gd 0.19966(3) 0.39669(3) 0.27143(2)
Gd9 Gd 0.47221(4) 0.52895(3) 0.757005(19)
O15 O 0.8181(10) 0.7853(6) 0.5349(5)
O16 O 0.7941(11) 0.7192(6) 0.4479(6)
O17 O 0.8374(12) 0.5434(7) 0.4989(6)
O18 O 0.8774(13) 0.6173(7) 0.5833(6)
O19 O 0.9855(5) 0.7608(6) 0.6569(6)
N4 N 0.8181(6) 0.6436(11) 0.7071(6)
N5 N 0.8507(7) 0.6970(13) 0.3199(6)
N6 N 0.8792(10) 0.5450(8) 0.3710(7)
O2_2 O 0.2271(6) 0.1857(8) 0.5240(5)
O4_2 O 0.4389(7) 0.1433(9) 0.4962(6)
O5_2 O 0.2974(6) 0.2353(8) 0.4395(6)
O6_2 O 0.3705(6) 0.1060(8) 0.5853(6)
O7_2 O 0.7060(10) 0.1626(12) 0.4989(6)
O8_2 O 0.7399(11) 0.1226(13) 0.5833(6)
C1_2 C 0.2401(7) 0.2203(10) 0.4739(7)
C2_2 C 0.4259(8) 0.1181(11) 0.5516(7)
O10_2 O 0.4141(6) 0.1007(9) 0.3694(7)
C3_2 C 0.4866(7) 0.0972(10) 0.5758(6)
N1_2 N 0.1514(6) 0.3103(11) 0.3738(6)
N2_2 N 0.5174(7) 0.0303(13) 0.6532(6)
C5_2 C 0.1834(7) 0.2436(11) 0.4515(7)
C6_2 C 0.0578(11) 0.2356(14) 0.4528(6)
C7_2 C 0.6114(8) 0.1039(11) 0.5769(7)
O11_2 O 0.2207(7) 0.0236(10) 0.6696(5)
H2_2 H 0.1759 0.0135 0.7083
C8_2 C 0.1114(7) 0.2171(10) 0.4788(6)
H3_2 H 0.0985 0.1870 0.5144
C9_2 C 0.4656(9) 0.0485(16) 0.6282(8)
H4_2 H 0.4158 0.0288 0.6455
C10_2 C 0.1990(8) 0.2888(11) 0.4001(6)
H5_2 H 0.2477 0.3061 0.3816
C11_2 C 0.5871(8) 0.0584(12) 0.6268(8)
H6_2 H 0.6223 0.0454 0.6445
C12_2 C 0.5592(9) 0.1217(12) 0.5483(7)
H7_2 H 0.5723 0.1493 0.5114
C13_2 C 0.0806(11) 0.2820(13) 0.3986(6)
H8_2 H 0.0444 0.2928 0.3798
O12_2 O 0.5181(6) 0.2191(8) 0.3820(6)
C14_2 C 0.5086(8) 0.0326(11) 0.3430(6)
H9_2 H 0.4555 0.0029 0.3325
C15_2 C 0.5410(8) 0.1116(11) 0.3600(6)
C17_2 C 0.6167(9) 0.1517(12) 0.3735(7)
H10_2 H 0.6380 0.2041 0.3855
C18_2 C 0.4850(9) 0.1439(12) 0.3699(6)
C20_2 C 0.6313(9) 0.0471(13) 0.3557(8)
H11_2 H 0.6631 0.0244 0.3540
N3_2 N 0.6658(6) 0.1208(10) 0.3710(7)
C21_2 C 0.6917(11) 0.1323(14) 0.5496(7)
O14_2 O 0.1240(6) 0.0707(8) 0.6113(5)
H12_2 H 0.0984 0.0165 0.6254
H13_2 H 0.0983 0.0680 0.5726
Gd3 Gd 0.86369(4) 0.13367(5) 0.60476(2)
Gd7 Gd 0.80554(4) 0.19562(5) 0.423672(19)
O19_2 O 0.2392(6) 0.2246(8) 0.6569(6)
N4_2 N 0.3564(11) 0.1744(13) 0.7071(6)
N5_2 N 0.3030(13) 0.1538(15) 0.3199(6)
O9_2 O 0.5725(6) 0.8913(8) 0.3236(6)
H1_2 H 0.1858 0.9599 0.6493
C16_2 C 0.5542(7) 0.9997(11) 0.3418(7)
C19_2 C 0.5233(8) 0.9149(11) 0.3221(7)
O13_2 O 0.4521(6) 0.8715(9) 0.3102(7)
Gd5_2 Gd 0.60331(3) 0.80298(4) 0.27143(2)
Gd9_2 Gd 0.47105(3) 0.94325(5) 0.757005(19)
O1_2 O 0.9672(8) 0.1819(10) 0.5349(5)
O3_2 O 0.9251(9) 0.2059(11) 0.4479(6)
C4_2 C 0.9768(11) 0.2055(14) 0.4798(8)
O9_3 O 0.1087(8) 0.6812(5) 0.3236(6)
H1_3 H 0.0401 0.2259 0.6493
C16_3 C 0.0003(11) 0.5545(8) 0.3418(7)
C19_3 C 0.0851(11) 0.6084(8) 0.3221(7)
O13_3 O 0.1285(9) 0.5806(7) 0.3102(7)
Gd9_3 Gd 0.05675(5) 0.52779(4) 0.757005(19)
O2_3 O 0.8143(8) 0.0414(6) 0.5240(5)
O4_3 O 0.8567(9) 0.2956(6) 0.4962(6)
O5_3 O 0.7647(8) 0.0621(6) 0.4395(6)
O6_3 O 0.8940(8) 0.2645(5) 0.5853(6)
C1_3 C 0.7797(10) 0.0198(7) 0.4739(7)
C2_3 C 0.8819(11) 0.3078(7) 0.5516(7)
O10_3 O 0.8993(9) 0.3134(7) 0.3694(7)
C3_3 C 0.9028(10) 0.3894(7) 0.5758(6)
N2_3 N 0.9697(13) 0.4871(11) 0.6532(6)
C7_3 C 0.8961(11) 0.5075(8) 0.5769(7)
O11_3 O 0.9764(10) 0.1971(7) 0.6696(5)
H2_3 H 0.9865 0.1624 0.7083
C9_3 C 0.9515(16) 0.4171(13) 0.6282(8)
H4_3 H 0.9712 0.3870 0.6455
C11_3 C 0.9416(12) 0.5287(9) 0.6268(8)
H6_3 H 0.9546 0.5769 0.6445
C12_3 C 0.8783(12) 0.4375(8) 0.5483(7)
H7_3 H 0.8507 0.4230 0.5114
O12_3 O 0.7809(8) 0.2990(6) 0.3820(6)
C14_3 C 0.9674(11) 0.4760(8) 0.3430(6)
H9_3 H 0.9971 0.4526 0.3325
C15_3 C 0.8884(11) 0.4294(8) 0.3600(6)
C17_3 C 0.8483(12) 0.4650(8) 0.3735(7)
H10_3 H 0.7959 0.4339 0.3855
C18_3 C 0.8561(12) 0.3411(8) 0.3699(6)
C20_3 C 0.9529(13) 0.5842(9) 0.3557(8)
H11_3 H 0.9756 0.6387 0.3540
C21_3 C 0.8677(14) 0.5594(8) 0.5496(7)
O14_3 O 0.9293(8) 0.0533(6) 0.6113(5)
H12_3 H 0.9835 0.0819 0.6254
H13_3 H 0.9320 0.0303 0.5726
O19_3 O 0.7754(8) 0.0145(5) 0.6569(6)
N4_3 N 0.8256(13) 0.1819(6) 0.7071(6)
N5_3 N 0.8462(15) 0.1493(7) 0.3199(6)
N1_3 N 0.6897(11) 0.8411(9) 0.3738(6)
C4_3 C 0.7945(14) 0.7713(8) 0.4798(8)
C5_3 C 0.7564(11) 0.9398(8) 0.4515(7)
C6_3 C 0.7644(14) 0.8222(8) 0.4528(6)
C8_3 C 0.7829(10) 0.8943(7) 0.4788(6)
H3_3 H 0.8130 0.9115 0.5144
C10_3 C 0.7112(11) 0.9102(8) 0.4001(6)
H5_3 H 0.6939 0.9416 0.3816
C13_3 C 0.7180(13) 0.7986(7) 0.3986(6)
H8_3 H 0.7072 0.7516 0.3798
Gd1_2 Gd 0.53300(3) 0.06335(3) 0.93809(2)
O1_3 O 0.8814(6) 0.3661(8) 0.8682(5)
O2_4 O 0.6253(6) 0.1062(6) 0.8573(5)
O3_3 O 0.9475(6) 0.4082(9) 0.7812(6)
O5_4 O 0.6046(6) 0.0359(6) 0.7728(6)
C1_4 C 0.6469(7) 0.0932(7) 0.8072(7)
C4_4 C 0.8954(8) 0.3565(11) 0.8131(8)
C5_4 C 0.7269(8) 0.1499(7) 0.7848(7)
C6_4 C 0.8445(8) 0.2755(11) 0.7861(6)
H1_4 H 0.4408 0.1475 0.9826
C8_4 C 0.7724(7) 0.2219(7) 0.8121(6)
H3_4 H 0.7552 0.2348 0.8477
C10_4 C 0.7565(8) 0.1343(8) 0.7334(6)
H5_4 H 0.7251 0.0856 0.7149
C13_4 C 0.8681(7) 0.2527(11) 0.7319(6)
H8_4 H 0.9151 0.2889 0.7131
O14_4 O 0.6134(6) 0.2093(6) 0.9446(5)
H12_4 H 0.5848 0.2349 0.9587
H13_4 H 0.6364 0.2350 0.9059
Gd4_2 Gd 0.93665(3) 0.46964(4) 0.93809(2)
O15_2 O 0.4848(10) 0.1186(6) 0.8682(5)
O16_2 O 0.4608(11) 0.0525(6) 0.7812(6)
O19_4 O 0.6521(5) 0.0942(6) 0.9903(6)
Gd9_4 Gd 0.13887(4) 0.86229(3) 0.090339(19)
N4_4 N 0.4847(6) 0.9770(11) 0.0405(6)
O4_4 O 0.3711(6) 0.8944(7) 0.8295(6)
O6_4 O 0.4022(5) 0.9628(6) 0.9186(6)
O7_3 O 0.1233(7) 0.6273(10) 0.8322(6)
O8_3 O 0.0494(7) 0.5934(11) 0.9166(6)
C2_4 C 0.3589(7) 0.9074(8) 0.8849(7)
O10_4 O 0.3533(7) 0.9192(6) 0.7027(7)
C3_4 C 0.2773(7) 0.8467(7) 0.9091(6)
N2_4 N 0.1796(11) 0.8159(7) 0.9865(6)
C7_4 C 0.1592(8) 0.7219(8) 0.9102(7)
C9_4 C 0.2496(13) 0.8677(9) 0.9615(8)
H4_4 H 0.2797 0.9175 0.9788
C11_4 C 0.1380(9) 0.7462(8) 0.9601(8)
H6_4 H 0.0898 0.7110 0.9778
C12_4 C 0.2292(8) 0.7741(9) 0.8816(7)
H7_4 H 0.2437 0.7610 0.8447
O12_4 O 0.3677(6) 0.8152(6) 0.7153(6)
C14_4 C 0.1907(8) 0.8247(8) 0.6763(6)
H9_4 H 0.2141 0.8778 0.6658
C15_4 C 0.2373(8) 0.7923(8) 0.6933(6)
C16_4 C 0.1122(8) 0.7791(7) 0.6751(7)
C17_4 C 0.2017(8) 0.7166(9) 0.7068(7)
H10_4 H 0.2328 0.6953 0.7188
C18_4 C 0.3256(8) 0.8483(9) 0.7032(6)
C19_4 C 0.0583(8) 0.8100(8) 0.6554(7)
C20_4 C 0.0825(9) 0.7020(9) 0.6890(8)
H11_4 H 0.0280 0.6702 0.6873
N3_3 N 0.1217(8) 0.6675(6) 0.7043(7)
O13_4 O 0.0861(7) 0.8812(6) 0.6435(7)
C21_4 C 0.1073(8) 0.6416(11) 0.8829(7)
O17_2 O 0.5041(12) 0.8767(7) 0.8322(6)
O18_2 O 0.5441(13) 0.9506(7) 0.9166(6)
N6_2 N 0.5459(10) 0.8783(8) 0.7043(7)
Gd9_5 Gd 0.13771(3) 0.27659(5) 0.090339(19)
N4_5 N 0.0230(11) 0.5078(13) 0.0405(6)
O4_5 O 0.1056(7) 0.4766(9) 0.8295(6)
O6_5 O 0.0372(6) 0.4393(8) 0.9186(6)
O7_4 O 0.3727(10) 0.4959(12) 0.8322(6)
O8_4 O 0.4066(11) 0.4559(13) 0.9166(6)
C2_5 C 0.0926(8) 0.4514(11) 0.8849(7)
O10_5 O 0.0808(6) 0.4340(9) 0.7027(7)
C3_5 C 0.1533(7) 0.4305(10) 0.9091(6)
N2_5 N 0.1841(7) 0.3636(13) 0.9865(6)
C7_5 C 0.2781(8) 0.4372(11) 0.9102(7)
C9_5 C 0.1323(9) 0.3818(16) 0.9615(8)
H4_5 H 0.0825 0.3621 0.9788
C11_5 C 0.2538(8) 0.3917(12) 0.9601(8)
H6_5 H 0.2890 0.3787 0.9778
C12_5 C 0.2259(9) 0.4550(12) 0.8816(7)
H7_5 H 0.2390 0.4826 0.8447
O12_5 O 0.1848(6) 0.5524(8) 0.7153(6)
C14_5 C 0.1753(8) 0.3659(11) 0.6763(6)
H9_5 H 0.1222 0.3362 0.6658
C15_5 C 0.2077(8) 0.4449(11) 0.6933(6)
C16_5 C 0.2209(7) 0.3330(11) 0.6751(7)
C17_5 C 0.2834(9) 0.4850(12) 0.7068(7)
H10_5 H 0.3047 0.5374 0.7188
C18_5 C 0.1517(9) 0.4772(12) 0.7032(6)
C19_5 C 0.1900(8) 0.2482(11) 0.6554(7)
C20_5 C 0.2980(9) 0.3804(13) 0.6890(8)
H11_5 H 0.3298 0.3577 0.6873
N3_4 N 0.3325(6) 0.4541(10) 0.7043(7)
O13_5 O 0.1188(6) 0.2048(9) 0.6435(7)
C21_5 C 0.3584(11) 0.4656(14) 0.8829(7)
Gd3_2 Gd 0.53036(4) 0.46700(5) 0.93809(2)
O1_4 O 0.6339(8) 0.5152(10) 0.8682(5)
O2_5 O 0.8938(6) 0.5190(8) 0.8573(5)
O3_4 O 0.5918(9) 0.5392(11) 0.7812(6)
O5_5 O 0.9641(6) 0.5686(8) 0.7728(6)
C1_5 C 0.9068(7) 0.5536(10) 0.8072(7)
C4_5 C 0.6435(11) 0.5388(14) 0.8131(8)
C5_5 C 0.8501(7) 0.5769(11) 0.7848(7)
C6_5 C 0.7245(11) 0.5689(14) 0.7861(6)
H1_5 H 0.8525 0.2932 0.9826
C8_5 C 0.7781(7) 0.5504(10) 0.8121(6)
H3_5 H 0.7652 0.5203 0.8477
C10_5 C 0.8657(8) 0.6221(11) 0.7334(6)
H5_5 H 0.9144 0.6394 0.7149
C13_5 C 0.7473(11) 0.6153(13) 0.7319(6)
H8_5 H 0.7111 0.6261 0.7131
O14_5 O 0.7907(6) 0.4040(8) 0.9446(5)
H12_5 H 0.7651 0.3498 0.9587
H13_5 H 0.7650 0.4013 0.9059
O19_5 O 0.9058(6) 0.5580(8) 0.9903(6)
O11_4 O 0.6431(10) 0.5304(7) 0.0029(5)
H2_4 H 0.6532 0.4957 0.0416
Gd9_6 Gd 0.72341(5) 0.86113(4) 0.090339(19)
N4_6 N 0.4922(13) 0.5153(6) 0.0405(6)
O2_6 O 0.4810(8) 0.3747(6) 0.8573(5)
O4_6 O 0.5234(9) 0.6289(6) 0.8295(6)
O5_6 O 0.4314(8) 0.3954(6) 0.7728(6)
O6_6 O 0.5607(8) 0.5978(5) 0.9186(6)
C1_6 C 0.4464(10) 0.3531(7) 0.8072(7)
C2_6 C 0.5486(11) 0.6411(7) 0.8849(7)
O10_6 O 0.5660(9) 0.6467(7) 0.7027(7)
C3_6 C 0.5695(10) 0.7227(7) 0.9091(6)
C4_6 C 0.4612(14) 0.1046(8) 0.8131(8)
N2_6 N 0.6364(13) 0.8204(11) 0.9865(6)
C5_6 C 0.4231(11) 0.2731(8) 0.7848(7)
C6_6 C 0.4311(14) 0.1555(8) 0.7861(6)
C7_6 C 0.5628(11) 0.8408(8) 0.9102(7)
H1_6 H 0.7068 0.5592 0.9826
C8_6 C 0.4496(10) 0.2276(7) 0.8121(6)
H3_6 H 0.4797 0.2448 0.8477
C9_6 C 0.6182(16) 0.7504(13) 0.9615(8)
H4_6 H 0.6379 0.7203 0.9788
C10_6 C 0.3779(11) 0.2435(8) 0.7334(6)
H5_6 H 0.3606 0.2749 0.7149
C11_6 C 0.6083(12) 0.8620(9) 0.9601(8)
H6_6 H 0.6213 0.9102 0.9778
C12_6 C 0.5450(12) 0.7708(8) 0.8816(7)
H7_6 H 0.5174 0.7563 0.8447
C13_6 C 0.3847(13) 0.1319(7) 0.7319(6)
H8_6 H 0.3739 0.0849 0.7131
O12_6 O 0.4476(8) 0.6323(6) 0.7153(6)
C14_6 C 0.6341(11) 0.8093(8) 0.6763(6)
H9_6 H 0.6638 0.7859 0.6658
C15_6 C 0.5551(11) 0.7627(8) 0.6933(6)
C16_6 C 0.6670(11) 0.8878(8) 0.6751(7)
C17_6 C 0.5150(12) 0.7983(8) 0.7068(7)
H10_6 H 0.4626 0.7672 0.7188
C18_6 C 0.5228(12) 0.6744(8) 0.7032(6)
C19_6 C 0.7518(11) 0.9417(8) 0.6554(7)
C20_6 C 0.6196(13) 0.9175(9) 0.6890(8)
H11_6 H 0.6423 0.9720 0.6873
O13_6 O 0.7952(9) 0.9139(7) 0.6435(7)
C21_6 C 0.5344(14) 0.8927(8) 0.8829(7)
O14_6 O 0.5960(8) 0.3866(6) 0.9446(5)
H12_6 H 0.6502 0.4152 0.9587
H13_6 H 0.5987 0.3636 0.9059
O19_6 O 0.4420(8) 0.3479(5) 0.9903(6)
O1_5 O 0.5480(6) 0.6995(8) 0.2016(5)
O2_7 O 0.2919(6) 0.4396(6) 0.1907(5)
O3_5 O 0.6141(6) 0.7416(9) 0.1146(6)
O4_7 O 0.0377(6) 0.2278(7) 0.1629(6)
O5_7 O 0.2712(6) 0.3693(6) 0.1062(6)
O6_7 O 0.0688(5) 0.2962(6) 0.2520(6)
C1_7 C 0.3135(7) 0.4266(7) 0.1406(7)
C2_7 C 0.0255(7) 0.2408(8) 0.2183(7)
O10_7 O 0.0199(7) 0.2526(6) 0.0361(7)
C4_7 C 0.5620(8) 0.6899(11) 0.1465(8)
C5_7 C 0.3935(8) 0.4833(7) 0.1182(7)
C6_7 C 0.5111(8) 0.6089(11) 0.1195(6)
O11_5 O 0.1362(7) 0.4460(7) 0.3363(5)
H1_7 H 0.1074 0.4809 0.3160
H2_5 H 0.1709 0.4908 0.3750
C8_7 C 0.4390(7) 0.5553(7) 0.1455(6)
H3_7 H 0.4218 0.5682 0.1811
C10_7 C 0.4231(8) 0.4677(8) 0.0668(6)
H5_7 H 0.3917 0.4190 0.0483
C13_7 C 0.5347(7) 0.5861(11) 0.0653(6)
H8_7 H 0.5817 0.6223 0.0465
O12_7 O 0.0343(6) 0.1486(6) 0.0487(6)
O14_7 O 0.2800(6) 0.5427(6) 0.2780(5)
H12_7 H 0.2514 0.5683 0.2921
H13_7 H 0.3030 0.5684 0.2393
O15_3 O 0.1514(10) 0.4520(6) 0.2016(5)
O16_3 O 0.1274(11) 0.3859(6) 0.1146(6)
O17_3 O 0.1707(12) 0.2101(7) 0.1656(6)
O18_3 O 0.2107(13) 0.2840(7) 0.2500(6)
N6_3 N 0.2125(10) 0.2117(8) 0.0377(7)
C3_7 C 0.9439(7) 0.1801(7) 0.2425(6)
C7_7 C 0.8258(8) 0.0553(8) 0.2436(7)
C9_7 C 0.9162(13) 0.2011(9) 0.2949(8)
H4_7 H 0.9463 0.2509 0.3122
C11_7 C 0.8046(9) 0.0796(8) 0.2935(8)
H6_7 H 0.7564 0.0444 0.3112
C12_7 C 0.8958(8) 0.1075(9) 0.2150(7)
H7_7 H 0.9103 0.0944 0.1781
C14_7 C 0.8573(8) 0.1581(8) 0.0097(6)
C15_7 C 0.9039(8) 0.1257(8) 0.0267(6)
C16_7 C 0.7788(8) 0.1125(7) 0.0085(7)
C17_7 C 0.8683(8) 0.0500(9) 0.0402(7)
H10_7 H 0.8994 0.0287 0.0522
C18_7 C 0.9922(8) 0.1817(9) 0.0366(6)
C20_7 C 0.7491(9) 0.0354(9) 0.0224(8)
H11_7 H 0.6946 0.0036 0.0207
N3_5 N 0.7883(8) 0.0009(6) 0.0377(7)
H9_7 H 0.8807 0.2112 0.9992
C19_7 C 0.7249(8) 0.1434(8) 0.9888(7)
O13_7 O 0.7527(7) 0.2146(6) 0.9769(7)
O7_5 O 0.7899(7) 0.9607(10) 0.1656(6)
O8_5 O 0.7160(7) 0.9268(11) 0.2500(6)
C21_7 C 0.7739(8) 0.9750(11) 0.2163(7)
O7_6 O 0.0393(10) 0.8293(12) 0.1656(6)
O8_6 O 0.0732(11) 0.7893(13) 0.2500(6)
C21_8 C 0.0250(11) 0.7990(14) 0.2163(7)
O1_6 O 0.3005(8) 0.8486(10) 0.2016(5)
O2_8 O 0.5604(6) 0.8524(8) 0.1907(5)
O3_6 O 0.2584(9) 0.8726(11) 0.1146(6)
O4_8 O 0.7722(7) 0.8100(9) 0.1629(6)
O5_8 O 0.6307(6) 0.9020(8) 0.1062(6)
O6_8 O 0.7038(6) 0.7727(8) 0.2520(6)
C1_8 C 0.5734(7) 0.8870(10) 0.1406(7)
C2_8 C 0.7592(8) 0.7848(11) 0.2183(7)
O10_8 O 0.7474(6) 0.7674(9) 0.0361(7)
C3_8 C 0.8199(7) 0.7639(10) 0.2425(6)
C4_8 C 0.3101(11) 0.8722(14) 0.1465(8)
C5_8 C 0.5167(7) 0.9103(11) 0.1182(7)
C6_8 C 0.3911(11) 0.9023(14) 0.1195(6)
C7_8 C 0.9447(8) 0.7706(11) 0.2436(7)
O11_6 O 0.5540(7) 0.6903(10) 0.3363(5)
H1_8 H 0.5191 0.6266 0.3160
H2_6 H 0.5092 0.6802 0.3750
C8_8 C 0.4447(7) 0.8838(10) 0.1455(6)
H3_8 H 0.4318 0.8537 0.1811
C9_8 C 0.7989(9) 0.7152(16) 0.2949(8)
H4_8 H 0.7491 0.6955 0.3122
C10_8 C 0.5323(8) 0.9555(11) 0.0668(6)
H5_8 H 0.5810 0.9728 0.0483
C11_8 C 0.9204(8) 0.7251(12) 0.2935(8)
H6_8 H 0.9556 0.7121 0.3112
C12_8 C 0.8925(9) 0.7884(12) 0.2150(7)
H7_8 H 0.9056 0.8160 0.1781
C13_8 C 0.4139(11) 0.9487(13) 0.0653(6)
H8_8 H 0.3777 0.9595 0.0465
O12_8 O 0.8514(6) 0.8858(8) 0.0487(6)
C14_8 C 0.8419(8) 0.6993(11) 0.0097(6)
C15_8 C 0.8743(8) 0.7783(11) 0.0267(6)
C16_8 C 0.8875(7) 0.6664(11) 0.0085(7)
C17_8 C 0.9500(9) 0.8184(12) 0.0402(7)
H10_8 H 0.9713 0.8708 0.0522
C18_8 C 0.8183(9) 0.8106(12) 0.0366(6)
C20_8 C 0.9646(9) 0.7138(13) 0.0224(8)
H11_8 H 0.9964 0.6911 0.0207
N3_6 N 0.9991(6) 0.7875(10) 0.0377(7)
O14_8 O 0.4573(6) 0.7374(8) 0.2780(5)
H12_8 H 0.4317 0.6832 0.2921
H13_8 H 0.4316 0.7347 0.2393
H9_8 H 0.7888 0.6696 0.9992
C19_8 C 0.8566(8) 0.5816(11) 0.9888(7)
O13_8 O 0.7854(6) 0.5382(9) 0.9769(7)
C3_9 C 0.2361(10) 0.0561(7) 0.2425(6)
C7_9 C 0.2294(11) 0.1742(8) 0.2436(7)
C9_9 C 0.2848(16) 0.0838(13) 0.2949(8)
H4_9 H 0.3045 0.0537 0.3122
C11_9 C 0.2749(12) 0.1954(9) 0.2935(8)
H6_9 H 0.2879 0.2436 0.3112
C12_9 C 0.2116(12) 0.1042(8) 0.2150(7)
H7_9 H 0.1840 0.0897 0.1781
C14_9 C 0.3007(11) 0.1427(8) 0.0097(6)
C15_9 C 0.2217(11) 0.0961(8) 0.0267(6)
C16_9 C 0.3336(11) 0.2212(8) 0.0085(7)
C17_9 C 0.1816(12) 0.1317(8) 0.0402(7)
H10_9 H 0.1292 0.1006 0.0522
C18_9 C 0.1894(12) 0.0078(8) 0.0366(6)
C20_9 C 0.2862(13) 0.2509(9) 0.0224(8)
H11_9 H 0.3089 0.3054 0.0207
C21_9 C 0.2010(14) 0.2261(8) 0.2163(7)
H9_9 H 0.3304 0.1193 0.9992
C19_9 C 0.4184(11) 0.2751(8) 0.9888(7)
O13_9 O 0.4618(9) 0.2473(7) 0.9769(7)
O2_9 O 0.1476(8) 0.7081(6) 0.1907(5)
O4_9 O 0.1900(9) 0.9623(6) 0.1629(6)
O5_9 O 0.0980(8) 0.7288(6) 0.1062(6)
O6_9 O 0.2273(8) 0.9312(5) 0.2520(6)
C1_9 C 0.1130(10) 0.6865(7) 0.1406(7)
C2_9 C 0.2152(11) 0.9745(7) 0.2183(7)
O10_9 O 0.2326(9) 0.9801(7) 0.0361(7)
C4_9 C 0.1278(14) 0.4380(8) 0.1465(8)
C5_9 C 0.0897(11) 0.6065(8) 0.1182(7)
C6_9 C 0.0977(14) 0.4889(8) 0.1195(6)
O11_7 O 0.3097(10) 0.8638(7) 0.3363(5)
H1_9 H 0.3734 0.8926 0.3160
H2_7 H 0.3198 0.8291 0.3750
C8_9 C 0.1162(10) 0.5610(7) 0.1455(6)
H3_9 H 0.1463 0.5782 0.1811
C10_9 C 0.0445(11) 0.5769(8) 0.0668(6)
H5_9 H 0.0272 0.6083 0.0483
C13_9 C 0.0513(13) 0.4653(7) 0.0653(6)
H8_9 H 0.0405 0.4183 0.0465
O12_9 O 0.1142(8) 0.9657(6) 0.0487(6)
O14_9 O 0.2626(8) 0.7200(6) 0.2780(5)
H12_9 H 0.3168 0.7486 0.2921
H13_9 H 0.2653 0.6970 0.2393
O11_8 O 0.4696(7) 0.1126(7) 0.0029(5)
H2_8 H 0.5043 0.1574 0.0416
O11_9 O 0.8874(7) 0.3569(10) 0.0029(5)
H2_9 H 0.8426 0.3468 0.0416
loop_
_geom_bond_atom_site_label_1
_geom_bond_atom_site_label_2
_geom_bond_site_symmetry_1
_geom_bond_site_symmetry_2
O1 C4 1_555 1_555
O3 C4 1_555 1_555
Gd4 O1 1_555 1_555
Gd8 O3 1_555 1_555
N1 C10 1_555 1_555
C6 C8 1_555 1_555
C8 C5 1_555 1_555
H3 C8 1_555 1_555
C10 C5 1_555 1_555
H5 C10 1_555 1_555
C13 N1 1_555 1_555
H8 C13 1_555 1_555
Gd6 N1 1_555 1_555
C6 C13 1_555 1_555
Gd1 O2 1_555 1_555
Gd2 O4 1_555 1_555
O2 C1 1_555 1_555
O4 C2 1_555 1_555
O5 Gd2 1_555 1_555
O6 Gd1 1_555 1_555
O7 C21 1_555 1_555
O8 C21 1_555 1_555
O9 C19 1_555 1_555
C1 O5 1_555 1_555
C2 O6 1_555 1_555
O10 Gd2 1_555 1_555
C3 C2 1_555 1_555
N2 C9 1_555 1_555
C7 C11 1_555 1_555
O11 Gd1 1_555 1_555
H1 O11 1_555 1_555
H2 O11 1_555 1_555
C9 C3 1_555 1_555
H4 C9 1_555 1_555
C11 N2 1_555 1_555
H6 C11 1_555 1_555
C12 C3 1_555 1_555
H7 C12 1_555 1_555
O12 Gd2 1_555 1_555
C14 H9 1_555 1_555
C15 C14 1_555 1_555
C16 C14 1_555 1_555
C17 C15 1_555 1_555
H10 C17 1_555 1_555
C18 O10 1_555 1_555
C19 C16 1_555 1_555
C20 C16 1_555 1_555
H11 C20 1_555 1_555
N3 C17 1_555 1_555
O13 C19 1_555 1_555
C21 C7 1_555 1_555
O14 Gd1 1_555 1_555
H12 O14 1_555 1_555
H13 O14 1_555 1_555
Gd4 O8 1_555 1_555
Gd5 O9 1_555 1_555
Gd8 O7 1_555 1_555
Gd9 N2 1_555 1_555
O15 Gd1 1_555 1_555
O16 Gd2 1_555 1_555
O17 Gd2 1_555 1_555
O18 Gd1 1_555 1_555
O19 Gd1 1_555 1_555
N4 Gd1 1_555 1_555
N5 Gd2 1_555 1_555
N6 Gd2 1_555 1_555
C7 C12 1_555 1_555
O12 C18 1_555 1_555
C15 C18 1_555 1_555
C20 N3 1_555 1_555
N3 Gd8 1_555 1_555
Gd4 O2_2 1_555 1_555
Gd8 O4_2 1_555 1_555
O2_2 C1_2 1_555 1_555
O4_2 C2_2 1_555 1_555
O5_2 Gd8 1_555 1_555
O6_2 Gd4 1_555 1_555
O7_2 C21_2 1_555 1_555
O8_2 C21_2 1_555 1_555
C1_2 O5_2 1_555 1_555
C2_2 O6_2 1_555 1_555
O10_2 Gd8 1_555 1_555
C3_2 C2_2 1_555 1_555
N1_2 C10_2 1_555 1_555
N2_2 C9_2 1_555 1_555
C5_2 C1_2 1_555 1_555
C6_2 C8_2 1_555 1_555
C7_2 C11_2 1_555 1_555
O11_2 Gd4 1_555 1_555
H2_2 O11_2 1_555 1_555
C8_2 C5_2 1_555 1_555
H3_2 C8_2 1_555 1_555
C9_2 C3_2 1_555 1_555
H4_2 C9_2 1_555 1_555
C10_2 C5_2 1_555 1_555
H5_2 C10_2 1_555 1_555
C11_2 N2_2 1_555 1_555
H6_2 C11_2 1_555 1_555
C12_2 C3_2 1_555 1_555
H7_2 C12_2 1_555 1_555
C13_2 N1_2 1_555 1_555
H8_2 C13_2 1_555 1_555
O12_2 Gd8 1_555 1_555
C14_2 H9_2 1_555 1_555
C15_2 C14_2 1_555 1_555
C17_2 C15_2 1_555 1_555
H10_2 C17_2 1_555 1_555
C18_2 O10_2 1_555 1_555
H11_2 C20_2 1_555 1_555
N3_2 C17_2 1_555 1_555
C21_2 C7_2 1_555 1_555
O14_2 Gd4 1_555 1_555
H12_2 O14_2 1_555 1_555
H13_2 O14_2 1_555 1_555
Gd3 O8_2 1_555 1_555
Gd5 N1_2 1_555 1_555
Gd7 O7_2 1_555 1_555
O19_2 Gd4 1_555 1_555
N4_2 Gd4 1_555 1_555
N5_2 Gd8 1_555 1_555
C6_2 C13_2 1_555 1_555
C7_2 C12_2 1_555 1_555
O12_2 C18_2 1_555 1_555
C15_2 C18_2 1_555 1_555
C20_2 N3_2 1_555 1_555
N3_2 Gd7 1_555 1_555
O9_2 C19_2 1_555 1_555
C19_2 C16_2 1_555 1_555
O13_2 C19_2 1_555 1_555
Gd5_2 O9_2 1_555 1_555
O1_2 C4_2 1_555 1_555
O3_2 C4_2 1_555 1_555
Gd3 O1_2 1_555 1_555
Gd7 O3_2 1_555 1_555
O9_3 C19_3 1_555 1_555
C19_3 C16_3 1_555 1_555
O13_3 C19_3 1_555 1_555
Gd6 O9_3 1_555 1_555
Gd3 O2_3 1_555 1_555
Gd7 O4_3 1_555 1_555
O2_3 C1_3 1_555 1_555
O4_3 C2_3 1_555 1_555
O5_3 Gd7 1_555 1_555
O6_3 Gd3 1_555 1_555
O17 C21_3 1_555 1_555
O18 C21_3 1_555 1_555
C1_3 O5_3 1_555 1_555
C2_3 O6_3 1_555 1_555
O10_3 Gd7 1_555 1_555
C3_3 C2_3 1_555 1_555
N2_3 C9_3 1_555 1_555
C7_3 C11_3 1_555 1_555
O11_3 Gd3 1_555 1_555
H2_3 O11_3 1_555 1_555
C9_3 C3_3 1_555 1_555
H4_3 C9_3 1_555 1_555
C11_3 N2_3 1_555 1_555
H6_3 C11_3 1_555 1_555
C12_3 C3_3 1_555 1_555
H7_3 C12_3 1_555 1_555
O12_3 Gd7 1_555 1_555
C14_3 H9_3 1_555 1_555
C15_3 C14_3 1_555 1_555
C17_3 C15_3 1_555 1_555
H10_3 C17_3 1_555 1_555
C18_3 O10_3 1_555 1_555
H11_3 C20_3 1_555 1_555
N6 C17_3 1_555 1_555
C21_3 C7_3 1_555 1_555
O14_3 Gd3 1_555 1_555
H12_3 O14_3 1_555 1_555
H13_3 O14_3 1_555 1_555
O19_3 Gd3 1_555 1_555
N4_3 Gd3 1_555 1_555
N5_3 Gd7 1_555 1_555
C7_3 C12_3 1_555 1_555
O12_3 C18_3 1_555 1_555
C15_3 C18_3 1_555 1_555
C20_3 N6 1_555 1_555
O15 C4_3 1_555 1_555
O16 C4_3 1_555 1_555
N1_3 C10_3 1_555 1_555
C4_3 C6_3 1_555 1_555
C6_3 C8_3 1_555 1_555
C8_3 C5_3 1_555 1_555
H3_3 C8_3 1_555 1_555
C10_3 C5_3 1_555 1_555
H5_3 C10_3 1_555 1_555
C13_3 N1_3 1_555 1_555
H8_3 C13_3 1_555 1_555
Gd5_2 N1_3 1_555 1_555
C6_3 C13_3 1_555 1_555
Gd1_2 O2_4 1_555 1_555
O1_3 C4_4 1_555 1_555
O2_4 C1_4 1_555 1_555
O3_3 C4_4 1_555 1_555
C1_4 O5_4 1_555 1_555
N4_3 C10_4 1_555 1_555
C4_4 C6_4 1_555 1_555
C5_4 C1_4 1_555 1_555
C6_4 C8_4 1_555 1_555
C8_4 C5_4 1_555 1_555
H3_4 C8_4 1_555 1_555
C10_4 C5_4 1_555 1_555
H5_4 C10_4 1_555 1_555
C13_4 N4_3 1_555 1_555
H8_4 C13_4 1_555 1_555
O14_4 Gd1_2 1_555 1_555
H12_4 O14_4 1_555 1_555
H13_4 O14_4 1_555 1_555
Gd4_2 O1_3 1_555 1_555
O15_2 Gd1_2 1_555 1_555
O19_4 Gd1_2 1_555 1_555
C6_4 C13_4 1_555 1_555
Gd9_2 O4_4 1_555 1_555
O4_4 C2_4 1_555 1_555
O7_3 C21_4 1_555 1_555
O8_3 C21_4 1_555 1_555
C2_4 O6_4 1_555 1_555
O10_4 Gd9_2 1_555 1_555
C3_4 C2_4 1_555 1_555
N2_4 C9_4 1_555 1_555
C7_4 C11_4 1_555 1_555
C9_4 C3_4 1_555 1_555
H4_4 C9_4 1_555 1_555
C11_4 N2_4 1_555 1_555
H6_4 C11_4 1_555 1_555
C12_4 C3_4 1_555 1_555
H7_4 C12_4 1_555 1_555
O12_4 Gd9_2 1_555 1_555
C14_4 H9_4 1_555 1_555
C15_4 C14_4 1_555 1_555
C16_4 C14_4 1_555 1_555
C17_4 C15_4 1_555 1_555
H10_4 C17_4 1_555 1_555
C18_4 O10_4 1_555 1_555
C19_4 C16_4 1_555 1_555
C20_4 C16_4 1_555 1_555
H11_4 C20_4 1_555 1_555
N3_3 C17_4 1_555 1_555
O13_4 C19_4 1_555 1_555
C21_4 C7_4 1_555 1_555
Gd9_3 O7_3 1_555 1_555
O17_2 Gd9_2 1_555 1_555
N6_2 Gd9_2 1_555 1_555
C7_4 C12_4 1_555 1_555
O12_4 C18_4 1_555 1_555
C15_4 C18_4 1_555 1_555
C20_4 N3_3 1_555 1_555
N3_3 Gd9_3 1_555 1_555
Gd9_3 O4_5 1_555 1_555
O4_5 C2_5 1_555 1_555
O7_4 C21_5 1_555 1_555
O8_4 C21_5 1_555 1_555
O19_2 C19_5 1_555 1_555
C2_5 O6_5 1_555 1_555
O10_5 Gd9_3 1_555 1_555
C3_5 C2_5 1_555 1_555
N2_5 C9_5 1_555 1_555
C7_5 C11_5 1_555 1_555
C9_5 C3_5 1_555 1_555
H4_5 C9_5 1_555 1_555
C11_5 N2_5 1_555 1_555
H6_5 C11_5 1_555 1_555
C12_5 C3_5 1_555 1_555
H7_5 C12_5 1_555 1_555
O12_5 Gd9_3 1_555 1_555
C14_5 H9_5 1_555 1_555
C15_5 C14_5 1_555 1_555
C16_5 C14_5 1_555 1_555
C17_5 C15_5 1_555 1_555
H10_5 C17_5 1_555 1_555
C18_5 O10_5 1_555 1_555
C19_5 C16_5 1_555 1_555
C20_5 C16_5 1_555 1_555
H11_5 C20_5 1_555 1_555
N3_4 C17_5 1_555 1_555
O13_5 C19_5 1_555 1_555
C21_5 C7_5 1_555 1_555
Gd3_2 O8_4 1_555 1_555
Gd9 O7_4 1_555 1_555
C7_5 C12_5 1_555 1_555
O12_5 C18_5 1_555 1_555
C15_5 C18_5 1_555 1_555
C20_5 N3_4 1_555 1_555
N3_4 Gd9 1_555 1_555
Gd4_2 O2_5 1_555 1_555
O1_4 C4_5 1_555 1_555
O2_5 C1_5 1_555 1_555
O3_4 C4_5 1_555 1_555
C1_5 O5_5 1_555 1_555
N4 C10_5 1_555 1_555
C4_5 C6_5 1_555 1_555
C5_5 C1_5 1_555 1_555
C6_5 C8_5 1_555 1_555
C8_5 C5_5 1_555 1_555
H3_5 C8_5 1_555 1_555
C10_5 C5_5 1_555 1_555
H5_5 C10_5 1_555 1_555
C13_5 N4 1_555 1_555
H8_5 C13_5 1_555 1_555
O14_5 Gd4_2 1_555 1_555
H12_5 O14_5 1_555 1_555
H13_5 O14_5 1_555 1_555
Gd3_2 O1_4 1_555 1_555
Gd9 O3_4 1_555 1_555
O19_5 Gd4_2 1_555 1_555
C6_5 C13_5 1_555 1_555
H2_4 O11_4 1_555 1_555
Gd3_2 O2_6 1_555 1_555
Gd9 O4_6 1_555 1_555
O15_2 C4_6 1_555 1_555
O2_6 C1_6 1_555 1_555
O16_2 C4_6 1_555 1_555
O4_6 C2_6 1_555 1_555
O5_6 Gd9 1_555 1_555
O6_6 Gd3_2 1_555 1_555
O17_2 C21_6 1_555 1_555
O18_2 C21_6 1_555 1_555
C1_6 O5_6 1_555 1_555
C2_6 O6_6 1_555 1_555
O10_6 Gd9 1_555 1_555
C3_6 C2_6 1_555 1_555
N4_2 C10_6 1_555 1_555
C4_6 C6_6 1_555 1_555
N2_6 C9_6 1_555 1_555
C5_6 C1_6 1_555 1_555
C6_6 C8_6 1_555 1_555
C7_6 C11_6 1_555 1_555
C8_6 C5_6 1_555 1_555
H3_6 C8_6 1_555 1_555
C9_6 C3_6 1_555 1_555
H4_6 C9_6 1_555 1_555
C10_6 C5_6 1_555 1_555
H5_6 C10_6 1_555 1_555
C11_6 N2_6 1_555 1_555
H6_6 C11_6 1_555 1_555
C12_6 C3_6 1_555 1_555
H7_6 C12_6 1_555 1_555
C13_6 N4_2 1_555 1_555
H8_6 C13_6 1_555 1_555
O12_6 Gd9 1_555 1_555
C14_6 H9_6 1_555 1_555
C15_6 C14_6 1_555 1_555
C16_6 C14_6 1_555 1_555
C17_6 C15_6 1_555 1_555
H10_6 C17_6 1_555 1_555
C18_6 O10_6 1_555 1_555
C19_6 C16_6 1_555 1_555
C20_6 C16_6 1_555 1_555
H11_6 C20_6 1_555 1_555
N6_2 C17_6 1_555 1_555
O13_6 C19_6 1_555 1_555
C21_6 C7_6 1_555 1_555
O14_6 Gd3_2 1_555 1_555
H12_6 O14_6 1_555 1_555
H13_6 O14_6 1_555 1_555
O19_6 Gd3_2 1_555 1_555
C6_6 C13_6 1_555 1_555
C7_6 C12_6 1_555 1_555
O12_6 C18_6 1_555 1_555
C15_6 C18_6 1_555 1_555
C20_6 N6_2 1_555 1_555
Gd5 O2_7 1_555 1_555
Gd9_5 O4_7 1_555 1_555
O1_5 C4_7 1_555 1_555
O2_7 C1_7 1_555 1_555
O3_5 C4_7 1_555 1_555
O4_7 C2_7 1_555 1_555
O5_7 Gd9_5 1_555 1_555
O6_7 Gd5 1_555 1_555
C1_7 O5_7 1_555 1_555
C2_7 O6_7 1_555 1_555
O10_7 Gd9_5 1_555 1_555
N4_6 C10_7 1_555 1_555
C4_7 C6_7 1_555 1_555
C5_7 C1_7 1_555 1_555
C6_7 C8_7 1_555 1_555
O11_5 Gd5 1_555 1_555
H1_7 O11_5 1_555 1_555
H2_5 O11_5 1_555 1_555
C8_7 C5_7 1_555 1_555
H3_7 C8_7 1_555 1_555
C10_7 C5_7 1_555 1_555
H5_7 C10_7 1_555 1_555
C13_7 N4_6 1_555 1_555
H8_7 C13_7 1_555 1_555
O12_7 Gd9_5 1_555 1_555
O14_7 Gd5 1_555 1_555
H12_7 O14_7 1_555 1_555
H13_7 O14_7 1_555 1_555
Gd5_2 O1_5 1_555 1_555
Gd9_6 O3_5 1_555 1_555
O15_3 Gd5 1_555 1_555
O16_3 Gd9_5 1_555 1_555
O17_3 Gd9_5 1_555 1_555
O18_3 Gd5 1_555 1_555
N6_3 Gd9_5 1_555 1_555
C6_7 C13_7 1_555 1_555
N5_3 C9_7 1_555 1_555
C7_7 C11_7 1_555 1_555
C9_7 C3_7 1_555 1_555
H4_7 C9_7 1_555 1_555
C11_7 N5_3 1_555 1_555
H6_7 C11_7 1_555 1_555
C12_7 C3_7 1_555 1_555
H7_7 C12_7 1_555 1_555
C15_7 C14_7 1_555 1_555
C16_7 C14_7 1_555 1_555
C17_7 C15_7 1_555 1_555
H10_7 C17_7 1_555 1_555
C20_7 C16_7 1_555 1_555
H11_7 C20_7 1_555 1_555
N3_5 C17_7 1_555 1_555
C7_7 C12_7 1_555 1_555
C15_7 C18_7 1_555 1_555
C20_7 N3_5 1_555 1_555
O19_4 C19_7 1_555 1_555
O13_7 C19_7 1_555 1_555
O7_5 C21_7 1_555 1_555
O8_5 C21_7 1_555 1_555
Gd5_2 O8_5 1_555 1_555
Gd9_6 O7_5 1_555 1_555
O7_6 C21_8 1_555 1_555
O8_6 C21_8 1_555 1_555
Gd6 O8_6 1_555 1_555
Gd9_4 O7_6 1_555 1_555
Gd5_2 O2_8 1_555 1_555
Gd9_6 O4_8 1_555 1_555
O1_6 C4_8 1_555 1_555
O2_8 C1_8 1_555 1_555
O3_6 C4_8 1_555 1_555
O4_8 C2_8 1_555 1_555
O5_8 Gd9_6 1_555 1_555
O6_8 Gd5_2 1_555 1_555
C1_8 O5_8 1_555 1_555
C2_8 O6_8 1_555 1_555
O10_8 Gd9_6 1_555 1_555
C3_8 C2_8 1_555 1_555
N4_4 C10_8 1_555 1_555
C4_8 C6_8 1_555 1_555
N5 C9_8 1_555 1_555
C5_8 C1_8 1_555 1_555
C6_8 C8_8 1_555 1_555
C7_8 C11_8 1_555 1_555
O11_6 Gd5_2 1_555 1_555
H1_8 O11_6 1_555 1_555
H2_6 O11_6 1_555 1_555
C8_8 C5_8 1_555 1_555
H3_8 C8_8 1_555 1_555
C9_8 C3_8 1_555 1_555
H4_8 C9_8 1_555 1_555
C10_8 C5_8 1_555 1_555
H5_8 C10_8 1_555 1_555
C11_8 N5 1_555 1_555
H6_8 C11_8 1_555 1_555
C12_8 C3_8 1_555 1_555
H7_8 C12_8 1_555 1_555
C13_8 N4_4 1_555 1_555
H8_8 C13_8 1_555 1_555
O12_8 Gd9_6 1_555 1_555
C15_8 C14_8 1_555 1_555
C16_8 C14_8 1_555 1_555
C17_8 C15_8 1_555 1_555
H10_8 C17_8 1_555 1_555
C18_8 O10_8 1_555 1_555
C20_8 C16_8 1_555 1_555
H11_8 C20_8 1_555 1_555
N3_6 C17_8 1_555 1_555
O14_8 Gd5_2 1_555 1_555
H12_8 O14_8 1_555 1_555
H13_8 O14_8 1_555 1_555
Gd6 O1_6 1_555 1_555
Gd9_4 O3_6 1_555 1_555
C6_8 C13_8 1_555 1_555
C7_8 C12_8 1_555 1_555
O12_8 C18_8 1_555 1_555
C15_8 C18_8 1_555 1_555
C20_8 N3_6 1_555 1_555
O19_5 C19_8 1_555 1_555
O13_8 C19_8 1_555 1_555
O17_3 C21_9 1_555 1_555
O18_3 C21_9 1_555 1_555
N5_2 C9_9 1_555 1_555
C7_9 C11_9 1_555 1_555
C9_9 C3_9 1_555 1_555
H4_9 C9_9 1_555 1_555
C11_9 N5_2 1_555 1_555
H6_9 C11_9 1_555 1_555
C12_9 C3_9 1_555 1_555
H7_9 C12_9 1_555 1_555
C15_9 C14_9 1_555 1_555
C16_9 C14_9 1_555 1_555
C17_9 C15_9 1_555 1_555
H10_9 C17_9 1_555 1_555
C20_9 C16_9 1_555 1_555
H11_9 C20_9 1_555 1_555
N6_3 C17_9 1_555 1_555
C21_9 C7_9 1_555 1_555
C7_9 C12_9 1_555 1_555
C15_9 C18_9 1_555 1_555
C20_9 N6_3 1_555 1_555
O19_6 C19_9 1_555 1_555
O13_9 C19_9 1_555 1_555
Gd6 O2_9 1_555 1_555
Gd9_4 O4_9 1_555 1_555
O15_3 C4_9 1_555 1_555
O2_9 C1_9 1_555 1_555
O16_3 C4_9 1_555 1_555
O4_9 C2_9 1_555 1_555
O5_9 Gd9_4 1_555 1_555
O6_9 Gd6 1_555 1_555
C1_9 O5_9 1_555 1_555
C2_9 O6_9 1_555 1_555
O10_9 Gd9_4 1_555 1_555
N4_5 C10_9 1_555 1_555
C4_9 C6_9 1_555 1_555
C5_9 C1_9 1_555 1_555
C6_9 C8_9 1_555 1_555
O11_7 Gd6 1_555 1_555
H1_9 O11_7 1_555 1_555
H2_7 O11_7 1_555 1_555
C8_9 C5_9 1_555 1_555
H3_9 C8_9 1_555 1_555
C10_9 C5_9 1_555 1_555
H5_9 C10_9 1_555 1_555
C13_9 N4_5 1_555 1_555
H8_9 C13_9 1_555 1_555
O12_9 Gd9_4 1_555 1_555
O14_9 Gd6 1_555 1_555
H12_9 O14_9 1_555 1_555
H13_9 O14_9 1_555 1_555
C6_9 C13_9 1_555 1_555
H2_8 O11_8 1_555 1_555
H2_9 O11_9 1_555 1_555

#END
