
###############################################################################
#
# This file contains modified crystal structure data generated from the
# MOF subset of the Cambridge Structural Database (CSD) v543 
# hosted by the Cambridge Crystallographic Data Centre (CCDC).
#
# This work is licensed under the Creative Commons
# Attribution-NonCommercial-ShareAlike 4.0 International License.
# To view a copy of this license, visit
# http://creativecommons.org/licenses/by-nc-sa/4.0/
# or send a letter to
# Creative Commons, PO Box 1866, Mountain View, CA 94042, USA.
#
# CIF created using the CSD Python API on 29 September 2022
# The structure has been converted into the P1 space group
# The structure has a 3D framework
# The original CSD entry QIFKIB is in the monoclinic crystal system
# The framework has been calculated to contain at least 10.0% void space
# The void calculation uses a probe of radius 1.32A, grid spacing 0.4
#
###############################################################################

data_QIFKIB
_chemical_formula_moiety         '(C480 H320 N32 O112 S16 Zn16)n'
_symmetry_cell_setting           triclinic
_symmetry_space_group_name_H-M   'P 1'
_symmetry_Int_Tables_number      1
_space_group_name_Hall           'P 1'
loop_
_symmetry_equiv_pos_site_id
_symmetry_equiv_pos_as_xyz
1 x,y,z
_cell_length_a                   23.6644(17)
_cell_length_b                   14.9473(13)
_cell_length_c                   32.9534(16)
_cell_angle_alpha                90
_cell_angle_beta                 93.185(3)
_cell_angle_gamma                90
_cell_volume                     11638.2
loop_
_atom_site_label
_atom_site_type_symbol
_atom_site_fract_x
_atom_site_fract_y
_atom_site_fract_z
C33 C 0.0491(2) 0.1435(4) 0.04033(17)
H23 H 0.0805 0.1113 0.0329
C34 C 0.0096(2) 0.1039(4) 0.06533(16)
H24 H 0.0158 0.0464 0.0754
C93 C 0.1900(2) 0.1891(3) 0.01247(17)
C94 C 0.2297(2) 0.1175(3) 0.00689(17)
C95 C 0.2723(2) 0.1024(4) 0.03706(16)
H61 H 0.2748 0.1379 0.0603
C96 C 0.3110(2) 0.0339(3) 0.03215(17)
H62 H 0.3400 0.0251 0.0520
C114 C 0.0944(2) 0.8863(3) 0.02529(16)
C115 C 0.1490(2) 0.9206(4) 0.03615(17)
H73 H 0.1744 0.9326 0.0163
C116 C 0.1641(2) 0.9362(4) 0.07737(17)
H74 H 0.1996 0.9593 0.0851
C117 C 0.1262(2) 0.9170(4) 0.10619(17)
C118 C 0.0732(2) 0.8847(3) 0.09579(17)
H75 H 0.0480 0.8733 0.1159
C119 C 0.0570(2) 0.8689(4) 0.05511(18)
H76 H 0.0211 0.8467 0.0480
C120 C 0.1425(3) 0.9248(4) 0.15098(17)
N5 N 0.04096(17) 0.2297(3) 0.02692(13)
O16 O 0.19054(14) 0.2331(2) 0.04535(11)
O25 O 0.11790(16) 0.8867(3) 0.17867(12)
O26 O 0.18213(16) 0.9762(2) 0.16283(12)
Zn6 Zn 0.17601(3) 0.92170(4) 0.22850(3)
C35 C 0.9614(2) 0.1509(3) 0.07491(15)
C36 C 0.9527(2) 0.2365(3) 0.06115(16)
H25 H 0.9209 0.2684 0.0681
C37 C 0.9930(2) 0.2759(3) 0.03609(16)
H26 H 0.9869 0.3332 0.0259
C38 C 0.9177(2) 0.1089(4) 0.09975(16)
C39 C 0.9130(2) 0.0171(4) 0.10547(18)
C41 C 0.8397(2) 0.0418(4) 0.15202(17)
H28 H 0.8136 0.0193 0.1695
C42 C 0.8443(2) 0.1336(3) 0.14631(15)
C43 C 0.8833(2) 0.1671(4) 0.12018(16)
H29 H 0.8864 0.2285 0.1163
C44 C 0.80602(19) 0.1937(3) 0.16983(15)
C45 C 0.8170(2) 0.2887(4) 0.17231(18)
H30 H 0.8487 0.3092 0.1597
C46 C 0.7826(2) 0.3441(4) 0.18827(16)
H31 H 0.7896 0.4052 0.1870
C47 C 0.7236(2) 0.2246(3) 0.20784(16)
H32 H 0.6921 0.2043 0.2208
C48 C 0.7591(2) 0.1629(4) 0.18880(17)
H33 H 0.7510 0.1021 0.1891
N6 N 0.73580(18) 0.3138(3) 0.20706(14)
Zn5 Zn 0.67601(3) 0.42170(4) 0.22850(3)
C1 C 0.7904(2) 0.5235(4) 0.76673(15)
H1 H 0.7904 0.5808 0.7777
C2 C 0.8393(2) 0.4726(3) 0.77304(16)
H2 H 0.8709 0.4956 0.7875
C3 C 0.8395(2) 0.3855(3) 0.75693(16)
C4 C 0.7912(2) 0.3554(4) 0.73427(16)
H3 H 0.7910 0.2990 0.7223
C5 C 0.7435(2) 0.4104(3) 0.72966(17)
H4 H 0.7112 0.3893 0.7154
C6 C 0.8875(2) 0.3221(3) 0.76481(17)
C7 C 0.91542(19) 0.3257(3) 0.80119(16)
H5 H 0.9047 0.3665 0.8206
C8 C 0.9603(2) 0.2669(3) 0.81275(15)
C9 C 0.9772(2) 0.2052(3) 0.78374(16)
C10 C 0.9477(2) 0.2038(3) 0.74551(15)
C11 C 0.9033(2) 0.2617(3) 0.73634(16)
H7 H 0.8841 0.2596 0.7109
C12 C 0.9907(2) 0.2657(3) 0.85410(16)
C13 C 0.9702(2) 0.3165(3) 0.88671(16)
H8 H 0.9365 0.3475 0.8818
C14 C 0.9979(2) 0.3210(4) 0.92273(16)
H9 H 0.9836 0.3555 0.9433
C17 C 0.9583(2) 0.0565(3) 0.72126(15)
C18 C 0.9918(2) 0.0020(4) 0.69830(16)
C22 C 0.9196(2) 0.0186(3) 0.74643(16)
H14 H 0.8972 0.0551 0.7618
H22 H 0.8390 0.0010 0.7946
C65 C 0.5904(2) 0.4788(3) 0.78193(16)
C66 C 0.5644(2) 0.3953(3) 0.79629(17)
C67 C 0.5720(2) 0.3170(4) 0.77724(16)
H45 H 0.5942 0.3155 0.7548
C68 C 0.5474(2) 0.2380(4) 0.79036(17)
H46 H 0.5525 0.1848 0.7764
C69 C 0.5148(2) 0.2392(3) 0.82489(17)
C70 C 0.5076(2) 0.3201(4) 0.84437(17)
H47 H 0.4857 0.3226 0.8669
C71 C 0.5329(2) 0.3985(4) 0.83051(17)
H48 H 0.5287 0.4523 0.8442
C72 C 0.5265(2) 0.0595(3) 0.83897(17)
C73 C 0.5638(2) 0.0473(4) 0.87308(17)
H49 H 0.5617 0.0852 0.8953
C77 C 0.5303(2) 0.0040(3) 0.80666(18)
H52 H 0.5051 0.0110 0.7842
N1 N 0.74352(18) 0.4940(3) 0.74565(14)
O1 O 0.96570(14) 0.1476(2) 0.71540(11)
O3 O 0.62304(15) 0.4750(2) 0.75209(11)
O4 O 0.57796(15) 0.5520(2) 0.79864(11)
O5 O 0.45989(15) 0.1639(2) 0.88316(11)
O6 O 0.43514(15) 0.1240(2) 0.80767(13)
O27 O 0.66056(15) 0.6477(2) 0.77740(11)
H77 H 0.6225 0.6368 0.7848
H78 H 0.6652 0.7102 0.7718
S3 S 0.47732(6) 0.14677(9) 0.84017(5)
Zn1 Zn 0.67601(3) 0.57830(4) 0.72850(3)
N9 N 0.73580(18) 0.6862(3) 0.70706(14)
O31 O 0.61790(16) 0.6133(3) 0.67867(12)
O32 O 0.68213(16) 0.5238(2) 0.66283(12)
C1_2 C 0.7904(2) 0.4765(4) 0.26673(15)
H1_2 H 0.7904 0.4192 0.2777
C2_2 C 0.8393(2) 0.5274(3) 0.27304(16)
H2_2 H 0.8709 0.5044 0.2875
C3_2 C 0.8395(2) 0.6145(3) 0.25693(16)
C4_2 C 0.7912(2) 0.6446(4) 0.23427(16)
H3_2 H 0.7910 0.7010 0.2223
C5_2 C 0.7435(2) 0.5896(3) 0.22966(17)
H4_2 H 0.7112 0.6107 0.2154
C6_2 C 0.8875(2) 0.6779(3) 0.26481(17)
C7_2 C 0.91542(19) 0.6743(3) 0.30119(16)
H5_2 H 0.9047 0.6335 0.3206
C8_2 C 0.9603(2) 0.7331(3) 0.31275(15)
C9_2 C 0.9772(2) 0.7948(3) 0.28374(16)
C10_2 C 0.9477(2) 0.7962(3) 0.24551(15)
C11_2 C 0.9033(2) 0.7383(3) 0.23634(16)
H7_2 H 0.8841 0.7404 0.2109
C12_2 C 0.9907(2) 0.7343(3) 0.35410(16)
C13_2 C 0.9702(2) 0.6835(3) 0.38671(16)
H8_2 H 0.9365 0.6525 0.3818
C14_2 C 0.9979(2) 0.6790(4) 0.42273(16)
H9_2 H 0.9836 0.6445 0.4433
C17_2 C 0.9583(2) 0.9435(3) 0.22126(15)
C18_2 C 0.9918(2) 0.9980(4) 0.19830(16)
C22_2 C 0.9196(2) 0.9814(3) 0.24643(16)
H14_2 H 0.8972 0.9449 0.2618
H22_2 H 0.8390 0.9990 0.2946
C35_2 C 0.9614(2) 0.8491(3) 0.57491(15)
C36_2 C 0.9527(2) 0.7635(3) 0.56115(16)
H25_2 H 0.9209 0.7316 0.5681
C37_2 C 0.9930(2) 0.7241(3) 0.53609(16)
H26_2 H 0.9869 0.6668 0.5259
C38_2 C 0.9177(2) 0.8911(4) 0.59975(16)
C39_2 C 0.9130(2) 0.9829(4) 0.60547(18)
C41_2 C 0.8397(2) 0.9582(4) 0.65202(17)
H28_2 H 0.8136 0.9807 0.6695
C42_2 C 0.8443(2) 0.8664(3) 0.64631(15)
C43_2 C 0.8833(2) 0.8329(4) 0.62018(16)
H29_2 H 0.8864 0.7715 0.6163
C44_2 C 0.80602(19) 0.8063(3) 0.66983(15)
C45_2 C 0.8170(2) 0.7113(4) 0.67231(18)
H30_2 H 0.8487 0.6908 0.6597
C46_2 C 0.7826(2) 0.6559(4) 0.68827(16)
H31_2 H 0.7896 0.5948 0.6870
C47_2 C 0.7236(2) 0.7754(3) 0.70784(16)
H32_2 H 0.6921 0.7957 0.7208
C48_2 C 0.7591(2) 0.8371(4) 0.68880(17)
H33_2 H 0.7510 0.8979 0.6891
C65_2 C 0.5904(2) 0.5212(3) 0.28193(16)
C66_2 C 0.5644(2) 0.6047(3) 0.29629(17)
C67_2 C 0.5720(2) 0.6830(4) 0.27724(16)
H45_2 H 0.5942 0.6845 0.2548
C68_2 C 0.5474(2) 0.7620(4) 0.29036(17)
H46_2 H 0.5525 0.8152 0.2764
C69_2 C 0.5148(2) 0.7608(3) 0.32489(17)
C70_2 C 0.5076(2) 0.6799(4) 0.34437(17)
H47_2 H 0.4857 0.6774 0.3669
C71_2 C 0.5329(2) 0.6015(4) 0.33051(17)
H48_2 H 0.5287 0.5477 0.3442
C72_2 C 0.5265(2) 0.9405(3) 0.33897(17)
C73_2 C 0.5638(2) 0.9527(4) 0.37308(17)
H49_2 H 0.5617 0.9148 0.3953
C77_2 C 0.5303(2) 0.9960(3) 0.30666(18)
H52_2 H 0.5051 0.9890 0.2842
N1_2 N 0.74352(18) 0.5060(3) 0.24565(14)
O1_2 O 0.96570(14) 0.8524(2) 0.21540(11)
O3_2 O 0.62304(15) 0.5250(2) 0.25209(11)
O4_2 O 0.57796(15) 0.4480(2) 0.29864(11)
O5_2 O 0.45989(15) 0.8361(2) 0.38316(11)
O6_2 O 0.43514(15) 0.8760(2) 0.30767(13)
O27_2 O 0.66056(15) 0.3523(2) 0.27740(11)
H77_2 H 0.6225 0.3632 0.2848
H78_2 H 0.6652 0.2898 0.2718
S3_2 S 0.47732(6) 0.85323(9) 0.34017(5)
O31_2 O 0.61790(16) 0.3867(3) 0.17867(12)
O32_2 O 0.68213(16) 0.4762(2) 0.16283(12)
C114_2 C 0.5944(2) 0.3863(3) 0.02529(16)
C115_2 C 0.6490(2) 0.4206(4) 0.03615(17)
H73_2 H 0.6744 0.4326 0.0163
C116_2 C 0.6641(2) 0.4362(4) 0.07737(17)
H74_2 H 0.6996 0.4593 0.0851
C117_2 C 0.6262(2) 0.4170(4) 0.10619(17)
C118_2 C 0.5732(2) 0.3847(3) 0.09579(17)
H75_2 H 0.5480 0.3733 0.1159
C119_2 C 0.5570(2) 0.3689(4) 0.05511(18)
H76_2 H 0.5211 0.3467 0.0480
C120_2 C 0.6425(3) 0.4248(4) 0.15098(17)
C33_2 C 0.5491(2) 0.6435(4) 0.04033(17)
H23_2 H 0.5805 0.6113 0.0329
C34_2 C 0.5096(2) 0.6039(4) 0.06533(16)
H24_2 H 0.5158 0.5464 0.0754
C35_3 C 0.4614(2) 0.6509(3) 0.07491(15)
C36_3 C 0.4527(2) 0.7365(3) 0.06115(16)
H25_3 H 0.4209 0.7684 0.0681
C37_3 C 0.4930(2) 0.7759(3) 0.03609(16)
H26_3 H 0.4869 0.8332 0.0259
C38_3 C 0.4177(2) 0.6089(4) 0.09975(16)
C39_3 C 0.4130(2) 0.5171(4) 0.10547(18)
H27 H 0.4360 0.4781 0.0918
C40 C 0.3741(2) 0.4835(3) 0.13160(16)
C41_3 C 0.3397(2) 0.5418(4) 0.15202(17)
H28_3 H 0.3136 0.5193 0.1695
C42_3 C 0.3443(2) 0.6336(3) 0.14631(15)
C43_3 C 0.3833(2) 0.6671(4) 0.12018(16)
H29_3 H 0.3864 0.7285 0.1163
C44_3 C 0.30602(19) 0.6937(3) 0.16983(15)
C45_3 C 0.3170(2) 0.7887(4) 0.17231(18)
H30_3 H 0.3487 0.8092 0.1597
C46_3 C 0.2826(2) 0.8441(4) 0.18827(16)
H31_3 H 0.2896 0.9052 0.1870
C47_3 C 0.2236(2) 0.7246(3) 0.20784(16)
H32_3 H 0.1921 0.7043 0.2208
C48_3 C 0.2591(2) 0.6629(4) 0.18880(17)
H33_3 H 0.2510 0.6021 0.1891
C49 C 0.3846(2) 0.3355(4) 0.10853(16)
C50 C 0.4265(2) 0.2741(3) 0.11844(16)
H34 H 0.4446 0.2747 0.1442
C51 C 0.4417(2) 0.2111(3) 0.08999(17)
C52 C 0.4156(2) 0.2111(3) 0.05253(16)
H35 H 0.4257 0.1696 0.0332
C53 C 0.3722(2) 0.2742(3) 0.04112(16)
C54 C 0.3578(2) 0.3357(3) 0.07017(15)
H36 H 0.3298 0.3778 0.0638
C55 C 0.3426(2) 0.2737(3) 0.00008(17)
H40 H 0.2798 0.3613 0.0114
C60 C 0.4920(2) 0.1503(4) 0.09912(16)
C61 C 0.5351(2) 0.1782(4) 0.12647(16)
H41 H 0.5318 0.2317 0.1406
C62 C 0.5831(2) 0.1254(3) 0.13266(16)
H42 H 0.6117 0.1429 0.1515
C63 C 0.5459(2) 0.0201(3) 0.08336(15)
C64 C 0.4984(2) 0.0728(3) 0.07747(15)
H44 H 0.4700 0.0555 0.0584
C93_2 C 0.6900(2) 0.6891(3) 0.01247(17)
C94_2 C 0.7297(2) 0.6175(3) 0.00689(17)
C95_2 C 0.7723(2) 0.6024(4) 0.03706(16)
H61_2 H 0.7748 0.6379 0.0603
C96_2 C 0.8110(2) 0.5339(3) 0.03215(17)
H62_2 H 0.8400 0.5251 0.0520
C100 C 0.8183(2) 0.2942(3) 0.01476(18)
C101 C 0.7903(2) 0.3012(3) 0.05058(16)
H65 H 0.7879 0.3562 0.0636
C102 C 0.7658(2) 0.2254(3) 0.06693(16)
H66 H 0.7484 0.2294 0.0915
C103 C 0.7673(2) 0.1446(3) 0.04700(16)
C104 C 0.7960(2) 0.1376(3) 0.01149(16)
C106 C 0.7422(2) 0.0649(4) 0.06528(17)
N5_2 N 0.54096(17) 0.7297(3) 0.02692(13)
N6_2 N 0.23580(18) 0.8138(3) 0.20706(14)
N8 N 0.58880(18) 0.0475(3) 0.11107(14)
O2 O 0.36870(14) 0.3917(2) 0.13869(11)
O16_2 O 0.69054(14) 0.7331(2) 0.04535(11)
O17 O 0.90293(14) 0.4069(2) 0.02493(11)
O19 O 0.71375(15) 0.0784(2) 0.09577(11)
C1_3 C 0.2904(2) 0.9765(4) 0.26673(15)
H1_3 H 0.2904 0.9192 0.2777
C108 C 0.5987(2) 0.9457(4) 0.48100(16)
C109 C 0.6469(2) 0.8917(4) 0.47715(16)
H69 H 0.6826 0.9177 0.4772
C110 C 0.6411(2) 0.7991(3) 0.47323(17)
H70 H 0.6727 0.7633 0.4702
C111 C 0.5879(2) 0.7615(4) 0.47393(17)
C112 C 0.5406(2) 0.8149(4) 0.47863(16)
H71 H 0.5050 0.7887 0.4789
C113 C 0.5459(2) 0.9050(4) 0.48291(16)
H72 H 0.5142 0.9398 0.4871
C114_3 C 0.5944(2) 0.6137(3) 0.52529(16)
C115_3 C 0.6490(2) 0.5794(4) 0.53615(17)
H73_3 H 0.6744 0.5674 0.5163
C116_3 C 0.6641(2) 0.5638(4) 0.57737(17)
H74_3 H 0.6996 0.5407 0.5851
C117_3 C 0.6262(2) 0.5830(4) 0.60619(17)
C118_3 C 0.5732(2) 0.6153(3) 0.59579(17)
H75_3 H 0.5480 0.6267 0.6159
C119_3 C 0.5570(2) 0.6311(4) 0.55511(18)
H76_3 H 0.5211 0.6533 0.5480
C120_3 C 0.6425(3) 0.5752(4) 0.65098(17)
O4_3 O 0.07796(15) 0.9480(2) 0.29864(11)
O23 O 0.51816(15) 0.6259(2) 0.46754(11)
O24 O 0.63152(16) 0.6108(2) 0.45131(11)
O27_3 O 0.16056(15) 0.8523(2) 0.27740(11)
H77_3 H 0.1225 0.8632 0.2848
H78_3 H 0.1652 0.7898 0.2718
S1 S 0.57857(7) 0.64355(10) 0.47444(5)
H6 H 0.0072 0.1662 0.7896
C15 C 0.0701(2) 0.2241(3) 0.89899(16)
H10 H 0.1042 0.1939 0.9036
C16 C 0.0420(2) 0.2190(3) 0.86227(17)
H11 H 0.0567 0.1841 0.8420
H12 H 0.0177 0.0273 0.6815
C99 C 0.2258(2) 0.0609(3) 0.97327(16)
H64 H 0.1966 0.0692 0.9536
C107 C 0.1031(2) 0.4581(4) 0.98502(16)
C108_2 C 0.0987(2) 0.5543(4) 0.98100(16)
C109_2 C 0.1469(2) 0.6083(4) 0.97715(16)
H69_2 H 0.1826 0.5823 0.9772
C110_2 C 0.1411(2) 0.7009(3) 0.97323(17)
H70_2 H 0.1727 0.7367 0.9702
C111_2 C 0.0879(2) 0.7385(4) 0.97393(17)
C112_2 C 0.0406(2) 0.6851(4) 0.97863(16)
H71_2 H 0.0050 0.7113 0.9789
C113_2 C 0.0459(2) 0.5950(4) 0.98291(16)
H72_2 H 0.0142 0.5602 0.9871
N2 N 0.04792(18) 0.2746(3) 0.92997(14)
O15 O 0.15475(14) 0.1990(2) 0.98285(11)
O21 O 0.05983(15) 0.4194(2) 0.99616(11)
O22 O 0.14573(15) 0.4160(2) 0.97414(12)
O23_2 O 0.01816(15) 0.8741(2) 0.96754(11)
O24_2 O 0.13152(16) 0.8892(2) 0.95131(11)
S1_2 S 0.07857(7) 0.85645(10) 0.97444(5)
Zn2 Zn 0.09271(3) 0.28880(4) 0.98595(3)
C61_2 C 0.0351(2) 0.6782(4) 0.12647(16)
H41_2 H 0.0318 0.7317 0.1406
C62_2 C 0.0831(2) 0.6254(3) 0.13266(16)
H42_2 H 0.1117 0.6429 0.1515
C63_2 C 0.0459(2) 0.5201(3) 0.08336(15)
H43 H 0.0492 0.4670 0.0690
C100_2 C 0.3183(2) 0.7942(3) 0.01476(18)
C101_2 C 0.2903(2) 0.8012(3) 0.05058(16)
H65_2 H 0.2879 0.8562 0.0636
C102_2 C 0.2658(2) 0.7254(3) 0.06693(16)
H66_2 H 0.2484 0.7294 0.0915
C103_2 C 0.2673(2) 0.6446(3) 0.04700(16)
C104_2 C 0.2960(2) 0.6376(3) 0.01149(16)
C106_2 C 0.2422(2) 0.5649(4) 0.06528(17)
N8_2 N 0.08880(18) 0.5475(3) 0.11107(14)
O17_2 O 0.40293(14) 0.9069(2) 0.02493(11)
O19_2 O 0.21375(15) 0.5784(2) 0.09577(11)
O20 O 0.24715(14) 0.4897(2) 0.05054(11)
O28 O 0.14611(15) 0.3742(2) 0.08634(11)
H79 H 0.1232 0.3376 0.1029
H80 H 0.1797 0.3420 0.0802
Zn3 Zn 0.16757(3) 0.48219(4) 0.11548(3)
O29 O 0.21848(17) 0.3787(3) 0.16010(12)
O30 O 0.16090(16) 0.4797(3) 0.18020(12)
C19 C 0.9866(2) 0.9095(4) 0.70050(16)
C20 C 0.9479(2) 0.8716(3) 0.72566(16)
H13 H 0.9444 0.8097 0.7271
C21 C 0.9144(2) 0.9261(3) 0.74863(17)
H18 H 0.9752 0.7382 0.6812
C28 C 0.8726(2) 0.8853(4) 0.77691(15)
C29 C 0.8654(2) 0.7916(4) 0.78285(17)
H19 H 0.8880 0.7549 0.7678
C30 C 0.8313(2) 0.7583(4) 0.80663(17)
H20 H 0.8288 0.6965 0.8090
C31 C 0.8018(2) 0.9018(3) 0.82569(18)
H21 H 0.7809 0.9387 0.8419
C32 C 0.8382(2) 0.9394(4) 0.79826(18)
C56 C 0.8616(2) 0.7202(3) 0.96795(16)
H37 H 0.8940 0.6860 0.9733
C57 C 0.8337(2) 0.7170(3) 0.93121(17)
H38 H 0.8469 0.6807 0.9109
C58 C 0.76677(19) 0.8217(3) 0.95317(15)
H39 H 0.7350 0.8570 0.9474
C59 C 0.7939(2) 0.8250(4) 0.99145(17)
C74 C 0.6036(2) 0.9793(3) 0.87404(16)
H50 H 0.6274 0.9701 0.8971
C75 C 0.6076(2) 0.9244(3) 0.83980(17)
C76 C 0.5715(2) 0.9361(4) 0.80631(17)
H51 H 0.5741 0.8996 0.7836
C78 C 0.6536(2) 0.8543(3) 0.83805(16)
C79 C 0.7270(2) 0.5843(3) 0.86499(16)
C80 C 0.7300(2) 0.4835(3) 0.86322(15)
C81 C 0.7819(2) 0.4429(4) 0.86278(16)
H53 H 0.8142 0.4783 0.8620
C82 C 0.7878(2) 0.3502(3) 0.86354(16)
H54 H 0.8233 0.3238 0.8627
C83 C 0.7394(2) 0.2981(3) 0.86554(16)
C84 C 0.6854(2) 0.3383(3) 0.86643(16)
H55 H 0.6532 0.3033 0.8679
C85 C 0.6814(2) 0.4306(3) 0.86501(16)
H56 H 0.6460 0.4577 0.8653
C86 C 0.7306(2) 0.1502(3) 0.81283(16)
C87 C 0.7729(2) 0.1611(4) 0.78582(16)
H57 H 0.8078 0.1849 0.7944
C88 C 0.7617(2) 0.1353(3) 0.74483(17)
H58 H 0.7897 0.1417 0.7263
C89 C 0.7099(2) 0.1008(3) 0.73205(16)
C90 C 0.6683(2) 0.0899(4) 0.75977(17)
H59 H 0.6334 0.0659 0.7512
C91 C 0.6783(2) 0.1144(4) 0.80007(17)
H60 H 0.6502 0.1070 0.8185
C92 C 0.6954(2) 0.0789(4) 0.68779(17)
N4 N 0.79701(18) 0.8124(3) 0.82865(13)
N7 N 0.78605(17) 0.7672(3) 0.92397(13)
O7 O 0.68136(15) 0.8414(2) 0.87102(11)
O8 O 0.65777(14) 0.8153(2) 0.80555(11)
O9 O 0.76850(15) 0.6258(2) 0.85346(12)
O10 O 0.68388(14) 0.6245(2) 0.87481(11)
O11 O 0.80564(15) 0.1627(2) 0.87340(11)
O12 O 0.69651(16) 0.1436(2) 0.88579(11)
O13 O 0.71848(17) 0.1213(3) 0.66010(12)
O14 O 0.66090(16) 0.0203(3) 0.68020(12)
S4 S 0.74432(7) 0.18069(9) 0.86451(5)
Zn4 Zn 0.74122(4) 0.75137(4) 0.86752(3)
Zn7 Zn 0.66757(3) 0.01781(4) 0.61548(3)
H43_2 H 0.5492 0.0330 0.5690
C80_2 C 0.2300(2) 0.0165(3) 0.36322(15)
C81_2 C 0.2819(2) 0.0571(4) 0.36278(16)
H53_2 H 0.3142 0.0217 0.3620
C82_2 C 0.2878(2) 0.1498(3) 0.36354(16)
H54_2 H 0.3233 0.1762 0.3627
C83_2 C 0.2394(2) 0.2019(3) 0.36554(16)
C84_2 C 0.1854(2) 0.1617(3) 0.36643(16)
H55_2 H 0.1532 0.1967 0.3679
C85_2 C 0.1814(2) 0.0694(3) 0.36501(16)
H56_2 H 0.1460 0.0423 0.3653
C86_2 C 0.2306(2) 0.3498(3) 0.31283(16)
C87_2 C 0.2729(2) 0.3389(4) 0.28582(16)
H57_2 H 0.3078 0.3151 0.2944
C88_2 C 0.2617(2) 0.3647(3) 0.24483(17)
H58_2 H 0.2897 0.3583 0.2263
C89_2 C 0.2099(2) 0.3992(3) 0.23205(16)
C90_2 C 0.1683(2) 0.4101(4) 0.25977(17)
H59_2 H 0.1334 0.4341 0.2512
C91_2 C 0.1783(2) 0.3856(4) 0.30007(17)
H60_2 H 0.1502 0.3930 0.3185
C92_2 C 0.1954(2) 0.4211(4) 0.18779(17)
O11_2 O 0.30564(15) 0.3373(2) 0.37340(11)
O12_2 O 0.19651(16) 0.3564(2) 0.38579(11)
O20_2 O 0.74715(14) 0.0103(2) 0.55054(11)
O28_2 O 0.64611(15) 0.1258(2) 0.58634(11)
H79_2 H 0.6232 0.1624 0.6029
H80_2 H 0.6797 0.1580 0.5802
S4_2 S 0.24432(7) 0.31931(9) 0.36451(5)
C23 C 0.0234(2) 0.8497(4) 0.67810(16)
C24 C 0.0754(2) 0.8796(4) 0.66416(16)
H15 H 0.0870 0.9379 0.6699
C25 C 0.1090(2) 0.8258(4) 0.64258(16)
H16 H 0.1427 0.8479 0.6333
C26 C 0.0422(2) 0.7080(4) 0.64688(18)
H17 H 0.0302 0.6508 0.6394
C27 C 0.0078(2) 0.7615(4) 0.67067(17)
C97 C 0.3075(2) 0.9787(3) 0.99864(15)
C98 C 0.2646(2) 0.9922(4) 0.96835(17)
H63 H 0.2619 0.9559 0.9454
H67 H 0.2995 0.5822 0.9990
C105 C 0.3194(2) 0.7126(4) 0.99475(17)
H68 H 0.3361 0.7085 0.9699
N3 N 0.09350(18) 0.7389(3) 0.63448(14)
O18 O 0.36176(15) 0.8726(2) 0.95179(11)
S2 S 0.35429(6) 0.88821(9) 0.99453(5)
H27_2 H 0.9360 0.9781 0.0918
C40_2 C 0.8741(2) 0.9835(3) 0.13160(16)
C49_2 C 0.8846(2) 0.8355(4) 0.10853(16)
C50_2 C 0.9265(2) 0.7741(3) 0.11844(16)
H34_2 H 0.9446 0.7747 0.1442
C51_2 C 0.9417(2) 0.7111(3) 0.08999(17)
C52_2 C 0.9156(2) 0.7111(3) 0.05253(16)
H35_2 H 0.9257 0.6696 0.0332
C53_2 C 0.8722(2) 0.7742(3) 0.04112(16)
C54_2 C 0.8578(2) 0.8357(3) 0.07017(15)
H36_2 H 0.8298 0.8778 0.0638
C55_2 C 0.8426(2) 0.7737(3) 0.00008(17)
H40_2 H 0.7798 0.8613 0.0114
C60_2 C 0.9920(2) 0.6503(4) 0.09912(16)
C64_2 C 0.9984(2) 0.5728(3) 0.07747(15)
H44_2 H 0.9700 0.5555 0.0584
O2_2 O 0.86870(14) 0.8917(2) 0.13869(11)
C23_2 C 0.0234(2) 0.1503(4) 0.17810(16)
C24_2 C 0.0754(2) 0.1204(4) 0.16416(16)
H15_2 H 0.0870 0.0621 0.1699
C25_2 C 0.1090(2) 0.1742(4) 0.14258(16)
H16_2 H 0.1427 0.1521 0.1333
C26_2 C 0.0422(2) 0.2920(4) 0.14688(18)
H17_2 H 0.0302 0.3492 0.1394
C27_2 C 0.0078(2) 0.2385(4) 0.17067(17)
C61_3 C 0.0351(2) 0.3218(4) 0.62647(16)
H41_3 H 0.0318 0.2683 0.6406
C62_3 C 0.0831(2) 0.3746(3) 0.63266(16)
H42_3 H 0.1117 0.3571 0.6515
C63_3 C 0.0459(2) 0.4799(3) 0.58336(15)
H43_3 H 0.0492 0.5330 0.5690
C97_2 C 0.3075(2) 0.0213(3) 0.49864(15)
C98_2 C 0.2646(2) 0.0078(4) 0.46835(17)
H63_2 H 0.2619 0.0441 0.4454
C100_3 C 0.3183(2) 0.2058(3) 0.51476(18)
C101_3 C 0.2903(2) 0.1988(3) 0.55058(16)
H65_3 H 0.2879 0.1438 0.5636
C102_3 C 0.2658(2) 0.2746(3) 0.56693(16)
H66_3 H 0.2484 0.2706 0.5915
C103_3 C 0.2673(2) 0.3554(3) 0.54700(16)
C104_3 C 0.2960(2) 0.3624(3) 0.51149(16)
H67_2 H 0.2995 0.4178 0.4990
C105_2 C 0.3194(2) 0.2874(4) 0.49475(17)
H68_2 H 0.3361 0.2915 0.4699
C106_3 C 0.2422(2) 0.4351(4) 0.56528(17)
N3_2 N 0.09350(18) 0.2611(3) 0.13448(14)
N8_3 N 0.08880(18) 0.4525(3) 0.61107(14)
O17_3 O 0.40293(14) 0.0931(2) 0.52493(11)
O18_2 O 0.36176(15) 0.1274(2) 0.45179(11)
O19_3 O 0.21375(15) 0.4216(2) 0.59577(11)
O20_3 O 0.24715(14) 0.5103(2) 0.55054(11)
O28_3 O 0.14611(15) 0.6258(2) 0.58634(11)
H79_3 H 0.1232 0.6624 0.6029
H80_3 H 0.1797 0.6580 0.5802
S2_2 S 0.35429(6) 0.11179(9) 0.49453(5)
Zn3_2 Zn 0.16757(3) 0.51781(4) 0.61548(3)
O29_2 O 0.21848(17) 0.6213(3) 0.66010(12)
O30_2 O 0.16090(16) 0.5203(3) 0.68020(12)
C80_3 C 0.2300(2) 0.9835(3) 0.86322(15)
C81_3 C 0.2819(2) 0.9429(4) 0.86278(16)
H53_3 H 0.3142 0.9783 0.8620
C82_3 C 0.2878(2) 0.8502(3) 0.86354(16)
H54_3 H 0.3233 0.8238 0.8627
C83_3 C 0.2394(2) 0.7981(3) 0.86554(16)
C84_3 C 0.1854(2) 0.8383(3) 0.86643(16)
H55_3 H 0.1532 0.8033 0.8679
C85_3 C 0.1814(2) 0.9306(3) 0.86501(16)
H56_3 H 0.1460 0.9577 0.8653
C86_3 C 0.2306(2) 0.6502(3) 0.81283(16)
C87_3 C 0.2729(2) 0.6611(4) 0.78582(16)
H57_3 H 0.3078 0.6849 0.7944
C88_3 C 0.2617(2) 0.6353(3) 0.74483(17)
H58_3 H 0.2897 0.6417 0.7263
C89_3 C 0.2099(2) 0.6008(3) 0.73205(16)
C90_3 C 0.1683(2) 0.5899(4) 0.75977(17)
H59_3 H 0.1334 0.5659 0.7512
C91_3 C 0.1783(2) 0.6144(4) 0.80007(17)
H60_3 H 0.1502 0.6070 0.8185
C92_3 C 0.1954(2) 0.5789(4) 0.68779(17)
O11_3 O 0.30564(15) 0.6627(2) 0.87340(11)
O12_3 O 0.19651(16) 0.6436(2) 0.88579(11)
S4_3 S 0.24432(7) 0.68069(9) 0.86451(5)
H6_2 H 0.0072 0.8338 0.2896
C15_2 C 0.0701(2) 0.7759(3) 0.39899(16)
H10_2 H 0.1042 0.8061 0.4036
C16_2 C 0.0420(2) 0.7810(3) 0.36227(17)
H11_2 H 0.0567 0.8159 0.3420
H12_2 H 0.0177 0.9727 0.1815
C33_3 C 0.0491(2) 0.8565(4) 0.54033(17)
H23_3 H 0.0805 0.8887 0.5329
C34_3 C 0.0096(2) 0.8961(4) 0.56533(16)
H24_3 H 0.0158 0.9536 0.5754
C93_3 C 0.1900(2) 0.8109(3) 0.51247(17)
C94_3 C 0.2297(2) 0.8825(3) 0.50689(17)
C95_3 C 0.2723(2) 0.8976(4) 0.53706(16)
H61_3 H 0.2748 0.8621 0.5603
C96_3 C 0.3110(2) 0.9661(3) 0.53215(17)
H62_3 H 0.3400 0.9749 0.5520
C99_2 C 0.2258(2) 0.9391(3) 0.47327(16)
H64_2 H 0.1966 0.9308 0.4536
C107_2 C 0.1031(2) 0.5419(4) 0.48502(16)
C108_3 C 0.0987(2) 0.4457(4) 0.48100(16)
C109_3 C 0.1469(2) 0.3917(4) 0.47715(16)
H69_3 H 0.1826 0.4177 0.4772
C110_3 C 0.1411(2) 0.2991(3) 0.47323(17)
H70_3 H 0.1727 0.2633 0.4702
C111_3 C 0.0879(2) 0.2615(4) 0.47393(17)
C112_3 C 0.0406(2) 0.3149(4) 0.47863(16)
H71_3 H 0.0050 0.2887 0.4789
C113_3 C 0.0459(2) 0.4050(4) 0.48291(16)
H72_3 H 0.0142 0.4398 0.4871
C114_4 C 0.0944(2) 0.1137(3) 0.52529(16)
C115_4 C 0.1490(2) 0.0794(4) 0.53615(17)
H73_4 H 0.1744 0.0674 0.5163
C116_4 C 0.1641(2) 0.0638(4) 0.57737(17)
H74_4 H 0.1996 0.0407 0.5851
C117_4 C 0.1262(2) 0.0830(4) 0.60619(17)
C118_4 C 0.0732(2) 0.1153(3) 0.59579(17)
H75_4 H 0.0480 0.1267 0.6159
C119_4 C 0.0570(2) 0.1311(4) 0.55511(18)
H76_4 H 0.0211 0.1533 0.5480
C120_4 C 0.1425(3) 0.0752(4) 0.65098(17)
N2_2 N 0.04792(18) 0.7254(3) 0.42997(14)
N5_3 N 0.04096(17) 0.7703(3) 0.52692(13)
O15_2 O 0.15475(14) 0.8010(2) 0.48285(11)
O16_3 O 0.19054(14) 0.7669(2) 0.54535(11)
O21_2 O 0.05983(15) 0.5806(2) 0.49616(11)
O22_2 O 0.14573(15) 0.5840(2) 0.47414(12)
O23_3 O 0.01816(15) 0.1259(2) 0.46754(11)
O24_3 O 0.13152(16) 0.1108(2) 0.45131(11)
O25_2 O 0.11790(16) 0.1133(3) 0.67867(12)
O26_2 O 0.18213(16) 0.0238(2) 0.66283(12)
S1_3 S 0.07857(7) 0.14355(10) 0.47444(5)
Zn2_2 Zn 0.09271(3) 0.71120(4) 0.48595(3)
Zn6_2 Zn 0.17601(3) 0.07830(4) 0.72850(3)
C1_4 C 0.2904(2) 0.0235(4) 0.76673(15)
H1_4 H 0.2904 0.0808 0.7777
C108_4 C 0.5987(2) 0.0543(4) 0.98100(16)
C109_4 C 0.6469(2) 0.1083(4) 0.97715(16)
H69_4 H 0.6826 0.0823 0.9772
C110_4 C 0.6411(2) 0.2009(3) 0.97323(17)
H70_4 H 0.6727 0.2367 0.9702
C111_4 C 0.5879(2) 0.2385(4) 0.97393(17)
C112_4 C 0.5406(2) 0.1851(4) 0.97863(16)
H71_4 H 0.5050 0.2113 0.9789
C113_4 C 0.5459(2) 0.0950(4) 0.98291(16)
H72_4 H 0.5142 0.0602 0.9871
O4_4 O 0.07796(15) 0.0520(2) 0.79864(11)
O23_4 O 0.51816(15) 0.3741(2) 0.96754(11)
O24_4 O 0.63152(16) 0.3892(2) 0.95131(11)
O27_4 O 0.16056(15) 0.1477(2) 0.77740(11)
H77_4 H 0.1225 0.1368 0.7848
H78_4 H 0.1652 0.2102 0.7718
S1_4 S 0.57857(7) 0.35645(10) 0.97444(5)
N9_2 N 0.23580(18) 0.1862(3) 0.70706(14)
C2_3 C 0.3393(2) 0.0274(3) 0.27304(16)
H2_3 H 0.3709 0.0044 0.2875
C3_3 C 0.3395(2) 0.1145(3) 0.25693(16)
C4_3 C 0.2912(2) 0.1446(4) 0.23427(16)
H3_3 H 0.2910 0.2010 0.2223
C5_3 C 0.2435(2) 0.0896(3) 0.22966(17)
H4_3 H 0.2112 0.1107 0.2154
C6_3 C 0.3875(2) 0.1779(3) 0.26481(17)
C7_3 C 0.41542(19) 0.1743(3) 0.30119(16)
H5_3 H 0.4047 0.1335 0.3206
C8_3 C 0.4603(2) 0.2331(3) 0.31275(15)
C9_3 C 0.4772(2) 0.2948(3) 0.28374(16)
H6_3 H 0.5072 0.3338 0.2896
C10_3 C 0.4477(2) 0.2962(3) 0.24551(15)
C11_3 C 0.4033(2) 0.2383(3) 0.23634(16)
H7_3 H 0.3841 0.2404 0.2109
C12_3 C 0.4907(2) 0.2343(3) 0.35410(16)
C13_3 C 0.4702(2) 0.1835(3) 0.38671(16)
H8_3 H 0.4365 0.1525 0.3818
C14_3 C 0.4979(2) 0.1790(4) 0.42273(16)
H9_3 H 0.4836 0.1445 0.4433
C15_3 C 0.5701(2) 0.2759(3) 0.39899(16)
H10_3 H 0.6042 0.3061 0.4036
C16_3 C 0.5420(2) 0.2810(3) 0.36227(17)
H11_3 H 0.5567 0.3159 0.3420
C17_3 C 0.4583(2) 0.4435(3) 0.22126(15)
C18_3 C 0.4918(2) 0.4980(4) 0.19830(16)
H12_3 H 0.5177 0.4727 0.1815
C19_2 C 0.4866(2) 0.5905(4) 0.20050(16)
C20_2 C 0.4479(2) 0.6284(3) 0.22566(16)
H13_2 H 0.4444 0.6903 0.2271
C21_2 C 0.4144(2) 0.5739(3) 0.24863(17)
C22_3 C 0.4196(2) 0.4814(3) 0.24643(16)
H14_3 H 0.3972 0.4449 0.2618
C23_3 C 0.5234(2) 0.6503(4) 0.17810(16)
C24_3 C 0.5754(2) 0.6204(4) 0.16416(16)
H15_3 H 0.5870 0.5621 0.1699
C25_3 C 0.6090(2) 0.6742(4) 0.14258(16)
H16_3 H 0.6427 0.6521 0.1333
C26_3 C 0.5422(2) 0.7920(4) 0.14688(18)
H17_3 H 0.5302 0.8492 0.1394
C27_3 C 0.5078(2) 0.7385(4) 0.17067(17)
H18_2 H 0.4752 0.7618 0.1812
C28_2 C 0.3726(2) 0.6147(4) 0.27691(15)
C29_2 C 0.3654(2) 0.7084(4) 0.28285(17)
H19_2 H 0.3880 0.7451 0.2678
C30_2 C 0.3313(2) 0.7417(4) 0.30663(17)
H20_2 H 0.3288 0.8035 0.3090
C31_2 C 0.3018(2) 0.5982(3) 0.32569(18)
H21_2 H 0.2809 0.5613 0.3419
C32_2 C 0.3382(2) 0.5606(4) 0.29826(18)
H22_3 H 0.3390 0.4990 0.2946
C33_4 C 0.5491(2) 0.3565(4) 0.54033(17)
H23_4 H 0.5805 0.3887 0.5329
C34_4 C 0.5096(2) 0.3961(4) 0.56533(16)
H24_4 H 0.5158 0.4536 0.5754
C35_4 C 0.4614(2) 0.3491(3) 0.57491(15)
C36_4 C 0.4527(2) 0.2635(3) 0.56115(16)
H25_4 H 0.4209 0.2316 0.5681
C37_4 C 0.4930(2) 0.2241(3) 0.53609(16)
H26_4 H 0.4869 0.1668 0.5259
C38_4 C 0.4177(2) 0.3911(4) 0.59975(16)
C39_4 C 0.4130(2) 0.4829(4) 0.60547(18)
H27_3 H 0.4360 0.5219 0.5918
C40_3 C 0.3741(2) 0.5165(3) 0.63160(16)
C41_4 C 0.3397(2) 0.4582(4) 0.65202(17)
H28_4 H 0.3136 0.4807 0.6695
C42_4 C 0.3443(2) 0.3664(3) 0.64631(15)
C43_4 C 0.3833(2) 0.3329(4) 0.62018(16)
H29_4 H 0.3864 0.2715 0.6163
C44_4 C 0.30602(19) 0.3063(3) 0.66983(15)
C45_4 C 0.3170(2) 0.2113(4) 0.67231(18)
H30_4 H 0.3487 0.1908 0.6597
C46_4 C 0.2826(2) 0.1559(4) 0.68827(16)
H31_4 H 0.2896 0.0948 0.6870
C47_4 C 0.2236(2) 0.2754(3) 0.70784(16)
H32_4 H 0.1921 0.2957 0.7208
C48_4 C 0.2591(2) 0.3371(4) 0.68880(17)
H33_4 H 0.2510 0.3979 0.6891
C49_3 C 0.3846(2) 0.6645(4) 0.60853(16)
C50_3 C 0.4265(2) 0.7259(3) 0.61844(16)
H34_3 H 0.4446 0.7253 0.6442
C51_3 C 0.4417(2) 0.7889(3) 0.58999(17)
C52_3 C 0.4156(2) 0.7889(3) 0.55253(16)
H35_3 H 0.4257 0.8304 0.5332
C53_3 C 0.3722(2) 0.7258(3) 0.54112(16)
C54_3 C 0.3578(2) 0.6643(3) 0.57017(15)
H36_3 H 0.3298 0.6222 0.5638
C55_3 C 0.3426(2) 0.7263(3) 0.50008(17)
C56_2 C 0.3616(2) 0.7798(3) 0.46795(16)
H37_2 H 0.3940 0.8140 0.4733
C57_2 C 0.3337(2) 0.7830(3) 0.43121(17)
H38_2 H 0.3469 0.8193 0.4109
C58_2 C 0.26677(19) 0.6783(3) 0.45317(15)
H39_2 H 0.2350 0.6430 0.4474
C59_2 C 0.2939(2) 0.6750(4) 0.49145(17)
H40_3 H 0.2798 0.6387 0.5114
C60_3 C 0.4920(2) 0.8497(4) 0.59912(16)
C61_4 C 0.5351(2) 0.8218(4) 0.62647(16)
H41_4 H 0.5318 0.7683 0.6406
C62_4 C 0.5831(2) 0.8746(3) 0.63266(16)
H42_4 H 0.6117 0.8571 0.6515
C63_4 C 0.5459(2) 0.9799(3) 0.58336(15)
C64_3 C 0.4984(2) 0.9272(3) 0.57747(15)
H44_3 H 0.4700 0.9445 0.5584
C65_3 C 0.0904(2) 0.0212(3) 0.28193(16)
C66_3 C 0.0644(2) 0.1047(3) 0.29629(17)
C67_3 C 0.0720(2) 0.1830(4) 0.27724(16)
H45_3 H 0.0942 0.1845 0.2548
C68_3 C 0.0474(2) 0.2620(4) 0.29036(17)
H46_3 H 0.0525 0.3152 0.2764
C69_3 C 0.0148(2) 0.2608(3) 0.32489(17)
C70_3 C 0.0076(2) 0.1799(4) 0.34437(17)
C71_3 C 0.0329(2) 0.1015(4) 0.33051(17)
H48_3 H 0.0287 0.0477 0.3442
C72_3 C 0.0265(2) 0.4405(3) 0.33897(17)
C73_3 C 0.0638(2) 0.4527(4) 0.37308(17)
H49_3 H 0.0617 0.4148 0.3953
C74_2 C 0.1036(2) 0.5207(3) 0.37404(16)
H50_2 H 0.1274 0.5299 0.3971
C75_2 C 0.1076(2) 0.5756(3) 0.33980(17)
C76_2 C 0.0715(2) 0.5639(4) 0.30631(17)
H51_2 H 0.0741 0.6004 0.2836
C77_3 C 0.0303(2) 0.4960(3) 0.30666(18)
H52_3 H 0.0051 0.4890 0.2842
C78_2 C 0.1536(2) 0.6457(3) 0.33805(16)
C79_2 C 0.2270(2) 0.9157(3) 0.36499(16)
C93_4 C 0.6900(2) 0.3109(3) 0.51247(17)
C94_4 C 0.7297(2) 0.3825(3) 0.50689(17)
C95_4 C 0.7723(2) 0.3976(4) 0.53706(16)
H61_4 H 0.7748 0.3621 0.5603
C96_4 C 0.8110(2) 0.4661(3) 0.53215(17)
H62_4 H 0.8400 0.4749 0.5520
C97_3 C 0.8075(2) 0.5213(3) 0.49864(15)
C98_3 C 0.7646(2) 0.5078(4) 0.46835(17)
H63_3 H 0.7619 0.5441 0.4454
C99_3 C 0.7258(2) 0.4391(3) 0.47327(16)
H64_3 H 0.6966 0.4308 0.4536
C100_4 C 0.8183(2) 0.7058(3) 0.51476(18)
C101_4 C 0.7903(2) 0.6988(3) 0.55058(16)
H65_4 H 0.7879 0.6438 0.5636
C102_4 C 0.7658(2) 0.7746(3) 0.56693(16)
H66_4 H 0.7484 0.7706 0.5915
C103_4 C 0.7673(2) 0.8554(3) 0.54700(16)
C104_4 C 0.7960(2) 0.8624(3) 0.51149(16)
H67_3 H 0.7995 0.9178 0.4990
C105_3 C 0.8194(2) 0.7874(4) 0.49475(17)
H68_3 H 0.8361 0.7915 0.4699
C106_4 C 0.7422(2) 0.9351(4) 0.56528(17)
C107_3 C 0.6031(2) 0.0419(4) 0.48502(16)
N1_3 N 0.24352(18) 0.0060(3) 0.24565(14)
N2_3 N 0.54792(18) 0.2254(3) 0.42997(14)
N3_3 N 0.59350(18) 0.7611(3) 0.13448(14)
N4_2 N 0.29701(18) 0.6876(3) 0.32865(13)
N5_4 N 0.54096(17) 0.2703(3) 0.52692(13)
N7_2 N 0.28605(17) 0.7328(3) 0.42397(13)
N8_4 N 0.58880(18) 0.9525(3) 0.61107(14)
O1_3 O 0.46570(14) 0.3524(2) 0.21540(11)
O2_3 O 0.36870(14) 0.6083(2) 0.63869(11)
O3_3 O 0.12304(15) 0.0250(2) 0.25209(11)
O7_2 O 0.18136(15) 0.6586(2) 0.37102(11)
O8_2 O 0.15777(14) 0.6847(2) 0.30555(11)
O9_2 O 0.26850(15) 0.8742(2) 0.35346(12)
O10_2 O 0.18388(14) 0.8755(2) 0.37481(11)
O15_3 O 0.65475(14) 0.3010(2) 0.48285(11)
O16_4 O 0.69054(14) 0.2669(2) 0.54535(11)
O17_4 O 0.90293(14) 0.5931(2) 0.52493(11)
O18_3 O 0.86176(15) 0.6274(2) 0.45179(11)
O19_4 O 0.71375(15) 0.9216(2) 0.59577(11)
O21_3 O 0.55983(15) 0.0806(2) 0.49616(11)
O22_3 O 0.64573(15) 0.0840(2) 0.47414(12)
S2_3 S 0.85429(6) 0.61179(9) 0.49453(5)
Zn2_3 Zn 0.59271(3) 0.21120(4) 0.48595(3)
Zn4_2 Zn 0.24122(4) 0.74863(4) 0.36752(3)
C19_3 C 0.9866(2) 0.0905(4) 0.20050(16)
C20_3 C 0.9479(2) 0.1284(3) 0.22566(16)
H13_3 H 0.9444 0.1903 0.2271
C21_3 C 0.9144(2) 0.0739(3) 0.24863(17)
H18_3 H 0.9752 0.2618 0.1812
C28_3 C 0.8726(2) 0.1147(4) 0.27691(15)
C29_3 C 0.8654(2) 0.2084(4) 0.28285(17)
H19_3 H 0.8880 0.2451 0.2678
C30_3 C 0.8313(2) 0.2417(4) 0.30663(17)
H20_3 H 0.8288 0.3035 0.3090
C31_3 C 0.8018(2) 0.0982(3) 0.32569(18)
H21_3 H 0.7809 0.0613 0.3419
C32_3 C 0.8382(2) 0.0606(4) 0.29826(18)
H27_4 H 0.9360 0.0219 0.5918
C40_4 C 0.8741(2) 0.0165(3) 0.63160(16)
C49_4 C 0.8846(2) 0.1645(4) 0.60853(16)
C50_4 C 0.9265(2) 0.2259(3) 0.61844(16)
H34_4 H 0.9446 0.2253 0.6442
C51_4 C 0.9417(2) 0.2889(3) 0.58999(17)
C52_4 C 0.9156(2) 0.2889(3) 0.55253(16)
H35_4 H 0.9257 0.3304 0.5332
C53_4 C 0.8722(2) 0.2258(3) 0.54112(16)
C54_4 C 0.8578(2) 0.1643(3) 0.57017(15)
H36_4 H 0.8298 0.1222 0.5638
C55_4 C 0.8426(2) 0.2263(3) 0.50008(17)
C56_3 C 0.8616(2) 0.2798(3) 0.46795(16)
H37_3 H 0.8940 0.3140 0.4733
C57_3 C 0.8337(2) 0.2830(3) 0.43121(17)
H38_3 H 0.8469 0.3193 0.4109
C58_3 C 0.76677(19) 0.1783(3) 0.45317(15)
H39_3 H 0.7350 0.1430 0.4474
C59_3 C 0.7939(2) 0.1750(4) 0.49145(17)
H40_4 H 0.7798 0.1387 0.5114
C60_4 C 0.9920(2) 0.3497(4) 0.59912(16)
C64_4 C 0.9984(2) 0.4272(3) 0.57747(15)
H44_4 H 0.9700 0.4445 0.5584
C74_3 C 0.6036(2) 0.0207(3) 0.37404(16)
H50_3 H 0.6274 0.0299 0.3971
C75_3 C 0.6076(2) 0.0756(3) 0.33980(17)
C76_3 C 0.5715(2) 0.0639(4) 0.30631(17)
H51_3 H 0.5741 0.1004 0.2836
C78_3 C 0.6536(2) 0.1457(3) 0.33805(16)
C79_3 C 0.7270(2) 0.4157(3) 0.36499(16)
C80_4 C 0.7300(2) 0.5165(3) 0.36322(15)
C81_4 C 0.7819(2) 0.5571(4) 0.36278(16)
H53_4 H 0.8142 0.5217 0.3620
C82_4 C 0.7878(2) 0.6498(3) 0.36354(16)
H54_4 H 0.8233 0.6762 0.3627
C83_4 C 0.7394(2) 0.7019(3) 0.36554(16)
C84_4 C 0.6854(2) 0.6617(3) 0.36643(16)
H55_4 H 0.6532 0.6967 0.3679
C85_4 C 0.6814(2) 0.5694(3) 0.36501(16)
H56_4 H 0.6460 0.5423 0.3653
C86_4 C 0.7306(2) 0.8498(3) 0.31283(16)
C87_4 C 0.7729(2) 0.8389(4) 0.28582(16)
H57_4 H 0.8078 0.8151 0.2944
C88_4 C 0.7617(2) 0.8647(3) 0.24483(17)
H58_4 H 0.7897 0.8583 0.2263
C89_4 C 0.7099(2) 0.8992(3) 0.23205(16)
C90_4 C 0.6683(2) 0.9101(4) 0.25977(17)
H59_4 H 0.6334 0.9341 0.2512
C91_4 C 0.6783(2) 0.8856(4) 0.30007(17)
H60_4 H 0.6502 0.8930 0.3185
C92_4 C 0.6954(2) 0.9211(4) 0.18779(17)
N4_3 N 0.79701(18) 0.1876(3) 0.32865(13)
N7_3 N 0.78605(17) 0.2328(3) 0.42397(13)
O2_4 O 0.86870(14) 0.1083(2) 0.63869(11)
O7_3 O 0.68136(15) 0.1586(2) 0.37102(11)
O8_3 O 0.65777(14) 0.1847(2) 0.30555(11)
O9_3 O 0.76850(15) 0.3742(2) 0.35346(12)
O10_3 O 0.68388(14) 0.3755(2) 0.37481(11)
O11_4 O 0.80564(15) 0.8373(2) 0.37340(11)
O12_4 O 0.69651(16) 0.8564(2) 0.38579(11)
O13_2 O 0.71848(17) 0.8787(3) 0.16010(12)
O14_2 O 0.66090(16) 0.9797(3) 0.18020(12)
S4_4 S 0.74432(7) 0.81931(9) 0.36451(5)
Zn4_3 Zn 0.74122(4) 0.24863(4) 0.36752(3)
Zn7_2 Zn 0.66757(3) 0.98219(4) 0.11548(3)
H43_4 H 0.5492 0.9670 0.0690
O20_4 O 0.74715(14) 0.9897(2) 0.05054(11)
O28_4 O 0.64611(15) 0.8742(2) 0.08634(11)
H79_4 H 0.6232 0.8376 0.1029
H80_4 H 0.6797 0.8420 0.0802
C2_4 C 0.3393(2) 0.9726(3) 0.77304(16)
H2_4 H 0.3709 0.9956 0.7875
C3_4 C 0.3395(2) 0.8855(3) 0.75693(16)
C4_4 C 0.2912(2) 0.8554(4) 0.73427(16)
H3_4 H 0.2910 0.7990 0.7223
C5_4 C 0.2435(2) 0.9104(3) 0.72966(17)
H4_4 H 0.2112 0.8893 0.7154
C6_4 C 0.3875(2) 0.8221(3) 0.76481(17)
C7_4 C 0.41542(19) 0.8257(3) 0.80119(16)
H5_4 H 0.4047 0.8665 0.8206
C8_4 C 0.4603(2) 0.7669(3) 0.81275(15)
C9_4 C 0.4772(2) 0.7052(3) 0.78374(16)
H6_4 H 0.5072 0.6662 0.7896
C10_4 C 0.4477(2) 0.7038(3) 0.74551(15)
C11_4 C 0.4033(2) 0.7617(3) 0.73634(16)
H7_4 H 0.3841 0.7596 0.7109
C12_4 C 0.4907(2) 0.7657(3) 0.85410(16)
C13_4 C 0.4702(2) 0.8165(3) 0.88671(16)
H8_4 H 0.4365 0.8475 0.8818
C14_4 C 0.4979(2) 0.8210(4) 0.92273(16)
H9_4 H 0.4836 0.8555 0.9433
C15_4 C 0.5701(2) 0.7241(3) 0.89899(16)
H10_4 H 0.6042 0.6939 0.9036
C16_4 C 0.5420(2) 0.7190(3) 0.86227(17)
H11_4 H 0.5567 0.6841 0.8420
C17_4 C 0.4583(2) 0.5565(3) 0.72126(15)
C18_4 C 0.4918(2) 0.5020(4) 0.69830(16)
H12_4 H 0.5177 0.5273 0.6815
C19_4 C 0.4866(2) 0.4095(4) 0.70050(16)
C20_4 C 0.4479(2) 0.3716(3) 0.72566(16)
H13_4 H 0.4444 0.3097 0.7271
C21_4 C 0.4144(2) 0.4261(3) 0.74863(17)
C22_4 C 0.4196(2) 0.5186(3) 0.74643(16)
H14_4 H 0.3972 0.5551 0.7618
C23_4 C 0.5234(2) 0.3497(4) 0.67810(16)
C24_4 C 0.5754(2) 0.3796(4) 0.66416(16)
H15_4 H 0.5870 0.4379 0.6699
C25_4 C 0.6090(2) 0.3258(4) 0.64258(16)
H16_4 H 0.6427 0.3479 0.6333
C26_4 C 0.5422(2) 0.2080(4) 0.64688(18)
H17_4 H 0.5302 0.1508 0.6394
C27_4 C 0.5078(2) 0.2615(4) 0.67067(17)
H18_4 H 0.4752 0.2382 0.6812
C28_4 C 0.3726(2) 0.3853(4) 0.77691(15)
C29_4 C 0.3654(2) 0.2916(4) 0.78285(17)
H19_4 H 0.3880 0.2549 0.7678
C30_4 C 0.3313(2) 0.2583(4) 0.80663(17)
H20_4 H 0.3288 0.1965 0.8090
C31_4 C 0.3018(2) 0.4018(3) 0.82569(18)
H21_4 H 0.2809 0.4387 0.8419
C32_4 C 0.3382(2) 0.4394(4) 0.79826(18)
H22_4 H 0.3390 0.5010 0.7946
C56_4 C 0.3616(2) 0.2202(3) 0.96795(16)
H37_4 H 0.3940 0.1860 0.9733
C57_4 C 0.3337(2) 0.2170(3) 0.93121(17)
H38_4 H 0.3469 0.1807 0.9109
C58_4 C 0.26677(19) 0.3217(3) 0.95317(15)
H39_4 H 0.2350 0.3570 0.9474
C59_4 C 0.2939(2) 0.3250(4) 0.99145(17)
C65_4 C 0.0904(2) 0.9788(3) 0.78193(16)
C66_4 C 0.0644(2) 0.8953(3) 0.79629(17)
C67_4 C 0.0720(2) 0.8170(4) 0.77724(16)
H45_4 H 0.0942 0.8155 0.7548
C68_4 C 0.0474(2) 0.7380(4) 0.79036(17)
H46_4 H 0.0525 0.6848 0.7764
C69_4 C 0.0148(2) 0.7392(3) 0.82489(17)
C70_4 C 0.0076(2) 0.8201(4) 0.84437(17)
C71_4 C 0.0329(2) 0.8985(4) 0.83051(17)
H48_4 H 0.0287 0.9523 0.8442
C72_4 C 0.0265(2) 0.5595(3) 0.83897(17)
C73_4 C 0.0638(2) 0.5473(4) 0.87308(17)
H49_4 H 0.0617 0.5852 0.8953
C74_4 C 0.1036(2) 0.4793(3) 0.87404(16)
H50_4 H 0.1274 0.4701 0.8971
C75_4 C 0.1076(2) 0.4244(3) 0.83980(17)
C76_4 C 0.0715(2) 0.4361(4) 0.80631(17)
H51_4 H 0.0741 0.3996 0.7836
C77_4 C 0.0303(2) 0.5040(3) 0.80666(18)
H52_4 H 0.0051 0.5110 0.7842
C78_4 C 0.1536(2) 0.3543(3) 0.83805(16)
C79_4 C 0.2270(2) 0.0843(3) 0.86499(16)
C97_4 C 0.8075(2) 0.4787(3) 0.99864(15)
C98_4 C 0.7646(2) 0.4922(4) 0.96835(17)
H63_4 H 0.7619 0.4559 0.9454
C99_4 C 0.7258(2) 0.5609(3) 0.97327(16)
H64_4 H 0.6966 0.5692 0.9536
H67_4 H 0.7995 0.0822 0.9990
C105_4 C 0.8194(2) 0.2126(4) 0.99475(17)
H68_4 H 0.8361 0.2085 0.9699
C107_4 C 0.6031(2) 0.9581(4) 0.98502(16)
N1_4 N 0.24352(18) 0.9940(3) 0.74565(14)
N2_4 N 0.54792(18) 0.7746(3) 0.92997(14)
N3_4 N 0.59350(18) 0.2389(3) 0.63448(14)
N4_4 N 0.29701(18) 0.3124(3) 0.82865(13)
N7_4 N 0.28605(17) 0.2672(3) 0.92397(13)
O1_4 O 0.46570(14) 0.6476(2) 0.71540(11)
O3_4 O 0.12304(15) 0.9750(2) 0.75209(11)
O7_4 O 0.18136(15) 0.3414(2) 0.87102(11)
O8_4 O 0.15777(14) 0.3153(2) 0.80555(11)
O9_4 O 0.26850(15) 0.1258(2) 0.85346(12)
O10_4 O 0.18388(14) 0.1245(2) 0.87481(11)
O15_4 O 0.65475(14) 0.6990(2) 0.98285(11)
O18_4 O 0.86176(15) 0.3726(2) 0.95179(11)
O21_4 O 0.55983(15) 0.9194(2) 0.99616(11)
O22_4 O 0.64573(15) 0.9160(2) 0.97414(12)
S2_4 S 0.85429(6) 0.38821(9) 0.99453(5)
Zn2_4 Zn 0.59271(3) 0.78880(4) 0.98595(3)
Zn4_4 Zn 0.24122(4) 0.25137(4) 0.86752(3)
H47_3 H 0.9857 0.8226 0.8669
O5_3 O 0.95989(15) 0.6639(2) 0.88316(11)
O6_3 O 0.93514(15) 0.6240(2) 0.80767(13)
S3_3 S 0.97732(6) 0.64677(9) 0.84017(5)
H47_4 H 0.9857 0.1774 0.3669
O5_4 O 0.95989(15) 0.3361(2) 0.38316(11)
O6_4 O 0.93514(15) 0.3760(2) 0.30767(13)
S3_4 S 0.97732(6) 0.35323(9) 0.34017(5)
loop_
_geom_bond_atom_site_label_1
_geom_bond_atom_site_label_2
_geom_bond_site_symmetry_1
_geom_bond_site_symmetry_2
C33 H23 1_555 1_555
C34 C33 1_555 1_555
H24 C34 1_555 1_555
C93 C94 1_555 1_555
C94 C95 1_555 1_555
C95 H61 1_555 1_555
C96 C95 1_555 1_555
H62 C96 1_555 1_555
C114 C115 1_555 1_555
C115 H73 1_555 1_555
C116 C115 1_555 1_555
H74 C116 1_555 1_555
C117 C116 1_555 1_555
C118 C117 1_555 1_555
H75 C118 1_555 1_555
C119 C114 1_555 1_555
H76 C119 1_555 1_555
C120 C117 1_555 1_555
N5 C33 1_555 1_555
O16 C93 1_555 1_555
O25 C120 1_555 1_555
O26 C120 1_555 1_555
Zn6 O25 1_555 1_555
C118 C119 1_555 1_555
O26 Zn6 1_555 1_555
C36 C35 1_555 1_555
H25 C36 1_555 1_555
C37 C36 1_555 1_555
H26 C37 1_555 1_555
C38 C35 1_555 1_555
C39 C38 1_555 1_555
H28 C41 1_555 1_555
C42 C41 1_555 1_555
C43 C38 1_555 1_555
H29 C43 1_555 1_555
C44 C42 1_555 1_555
C45 C44 1_555 1_555
H30 C45 1_555 1_555
C46 C45 1_555 1_555
H31 C46 1_555 1_555
C47 H32 1_555 1_555
C48 C44 1_555 1_555
H33 C48 1_555 1_555
N6 C46 1_555 1_555
Zn5 N6 1_555 1_555
C42 C43 1_555 1_555
C47 C48 1_555 1_555
C47 N6 1_555 1_555
C1 H1 1_555 1_555
C2 C1 1_555 1_555
H2 C2 1_555 1_555
C3 C2 1_555 1_555
C4 C3 1_555 1_555
H3 C4 1_555 1_555
C5 C4 1_555 1_555
H4 C5 1_555 1_555
C6 C3 1_555 1_555
C7 C6 1_555 1_555
H5 C7 1_555 1_555
C8 C7 1_555 1_555
C9 C8 1_555 1_555
C10 C9 1_555 1_555
C11 C6 1_555 1_555
H7 C11 1_555 1_555
C12 C8 1_555 1_555
C13 C12 1_555 1_555
H8 C13 1_555 1_555
C14 C13 1_555 1_555
H9 C14 1_555 1_555
C17 C18 1_555 1_555
C22 C17 1_555 1_555
H14 C22 1_555 1_555
C65 C66 1_555 1_555
C66 C67 1_555 1_555
C67 H45 1_555 1_555
C68 C67 1_555 1_555
H46 C68 1_555 1_555
C69 C68 1_555 1_555
C70 C69 1_555 1_555
H47 C70 1_555 1_555
C71 C66 1_555 1_555
H48 C71 1_555 1_555
C72 C73 1_555 1_555
C73 H49 1_555 1_555
C77 C72 1_555 1_555
H52 C77 1_555 1_555
N1 C1 1_555 1_555
O1 C10 1_555 1_555
O3 C65 1_555 1_555
O4 C65 1_555 1_555
O5 S3 1_555 1_555
O6 S3 1_555 1_555
O27 H77 1_555 1_555
H78 O27 1_555 1_555
S3 C69 1_555 1_555
Zn1 N1 1_555 1_555
N9 Zn1 1_555 1_555
O31 Zn1 1_555 1_555
O32 Zn1 1_555 1_555
C5 N1 1_555 1_555
C10 C11 1_555 1_555
C17 O1 1_555 1_555
C70 C71 1_555 1_555
C72 S3 1_555 1_555
O3 Zn1 1_555 1_555
O27 Zn1 1_555 1_555
C1_2 H1_2 1_555 1_555
C2_2 C1_2 1_555 1_555
H2_2 C2_2 1_555 1_555
C3_2 C2_2 1_555 1_555
C4_2 C3_2 1_555 1_555
H3_2 C4_2 1_555 1_555
C5_2 C4_2 1_555 1_555
H4_2 C5_2 1_555 1_555
C6_2 C3_2 1_555 1_555
C7_2 C6_2 1_555 1_555
H5_2 C7_2 1_555 1_555
C8_2 C7_2 1_555 1_555
C9_2 C8_2 1_555 1_555
C10_2 C9_2 1_555 1_555
C11_2 C6_2 1_555 1_555
H7_2 C11_2 1_555 1_555
C12_2 C8_2 1_555 1_555
C13_2 C12_2 1_555 1_555
H8_2 C13_2 1_555 1_555
C14_2 C13_2 1_555 1_555
H9_2 C14_2 1_555 1_555
C17_2 C18_2 1_555 1_555
C22_2 C17_2 1_555 1_555
H14_2 C22_2 1_555 1_555
C36_2 C35_2 1_555 1_555
H25_2 C36_2 1_555 1_555
C37_2 C36_2 1_555 1_555
H26_2 C37_2 1_555 1_555
C38_2 C35_2 1_555 1_555
C39_2 C38_2 1_555 1_555
H28_2 C41_2 1_555 1_555
C42_2 C41_2 1_555 1_555
C43_2 C38_2 1_555 1_555
H29_2 C43_2 1_555 1_555
C44_2 C42_2 1_555 1_555
C45_2 C44_2 1_555 1_555
H30_2 C45_2 1_555 1_555
C46_2 C45_2 1_555 1_555
H31_2 C46_2 1_555 1_555
C47_2 H32_2 1_555 1_555
C48_2 C44_2 1_555 1_555
H33_2 C48_2 1_555 1_555
C65_2 C66_2 1_555 1_555
C66_2 C67_2 1_555 1_555
C67_2 H45_2 1_555 1_555
C68_2 C67_2 1_555 1_555
H46_2 C68_2 1_555 1_555
C69_2 C68_2 1_555 1_555
C70_2 C69_2 1_555 1_555
H47_2 C70_2 1_555 1_555
C71_2 C66_2 1_555 1_555
H48_2 C71_2 1_555 1_555
C72_2 C73_2 1_555 1_555
C73_2 H49_2 1_555 1_555
C77_2 C72_2 1_555 1_555
H52_2 C77_2 1_555 1_555
N1_2 C1_2 1_555 1_555
N9 C46_2 1_555 1_555
O1_2 C10_2 1_555 1_555
O3_2 C65_2 1_555 1_555
O4_2 C65_2 1_555 1_555
O5_2 S3_2 1_555 1_555
O6_2 S3_2 1_555 1_555
O27_2 H77_2 1_555 1_555
H78_2 O27_2 1_555 1_555
S3_2 C69_2 1_555 1_555
Zn5 N1_2 1_555 1_555
O31_2 Zn5 1_555 1_555
O32_2 Zn5 1_555 1_555
C5_2 N1_2 1_555 1_555
C10_2 C11_2 1_555 1_555
C17_2 O1_2 1_555 1_555
C42_2 C43_2 1_555 1_555
C47_2 C48_2 1_555 1_555
C47_2 N9 1_555 1_555
C70_2 C71_2 1_555 1_555
C72_2 S3_2 1_555 1_555
O3_2 Zn5 1_555 1_555
O27_2 Zn5 1_555 1_555
C114_2 C115_2 1_555 1_555
C115_2 H73_2 1_555 1_555
C116_2 C115_2 1_555 1_555
H74_2 C116_2 1_555 1_555
C117_2 C116_2 1_555 1_555
C118_2 C117_2 1_555 1_555
H75_2 C118_2 1_555 1_555
C119_2 C114_2 1_555 1_555
H76_2 C119_2 1_555 1_555
C120_2 C117_2 1_555 1_555
O31_2 C120_2 1_555 1_555
O32_2 C120_2 1_555 1_555
C118_2 C119_2 1_555 1_555
C33_2 H23_2 1_555 1_555
C34_2 C33_2 1_555 1_555
H24_2 C34_2 1_555 1_555
C35_3 C34_2 1_555 1_555
C36_3 C35_3 1_555 1_555
H25_3 C36_3 1_555 1_555
C37_3 C36_3 1_555 1_555
H26_3 C37_3 1_555 1_555
C38_3 C35_3 1_555 1_555
C39_3 C38_3 1_555 1_555
H27 C39_3 1_555 1_555
C40 C39_3 1_555 1_555
C41_3 C40 1_555 1_555
H28_3 C41_3 1_555 1_555
C42_3 C41_3 1_555 1_555
C43_3 C38_3 1_555 1_555
H29_3 C43_3 1_555 1_555
C44_3 C42_3 1_555 1_555
C45_3 C44_3 1_555 1_555
H30_3 C45_3 1_555 1_555
C46_3 C45_3 1_555 1_555
H31_3 C46_3 1_555 1_555
C47_3 H32_3 1_555 1_555
C48_3 C44_3 1_555 1_555
H33_3 C48_3 1_555 1_555
C49 C50 1_555 1_555
C50 H34 1_555 1_555
C51 C50 1_555 1_555
C52 C51 1_555 1_555
H35 C52 1_555 1_555
C53 C52 1_555 1_555
C54 C49 1_555 1_555
H36 C54 1_555 1_555
C55 C53 1_555 1_555
C60 C51 1_555 1_555
C61 C60 1_555 1_555
H41 C61 1_555 1_555
C62 C61 1_555 1_555
H42 C62 1_555 1_555
C64 C60 1_555 1_555
H44 C64 1_555 1_555
C93_2 C94_2 1_555 1_555
C94_2 C95_2 1_555 1_555
C95_2 H61_2 1_555 1_555
C96_2 C95_2 1_555 1_555
H62_2 C96_2 1_555 1_555
C100 C101 1_555 1_555
C101 H65 1_555 1_555
C102 C101 1_555 1_555
H66 C102 1_555 1_555
C103 C102 1_555 1_555
C104 C103 1_555 1_555
C106 C103 1_555 1_555
N5_2 C33_2 1_555 1_555
N6_2 C46_3 1_555 1_555
N8 C62 1_555 1_555
O2 C40 1_555 1_555
O16_2 C93_2 1_555 1_555
O19 C106 1_555 1_555
Zn6 N6_2 1_555 1_555
C37_3 N5_2 1_555 1_555
C42_3 C43_3 1_555 1_555
C47_3 C48_3 1_555 1_555
C47_3 N6_2 1_555 1_555
C49 O2 1_555 1_555
C53 C54 1_555 1_555
C63 C64 1_555 1_555
C63 N8 1_555 1_555
C1_3 H1_3 1_555 1_555
C108 C109 1_555 1_555
C109 H69 1_555 1_555
C110 C109 1_555 1_555
H70 C110 1_555 1_555
C111 C110 1_555 1_555
C112 C111 1_555 1_555
H71 C112 1_555 1_555
C113 C108 1_555 1_555
H72 C113 1_555 1_555
C114_3 C115_3 1_555 1_555
C115_3 H73_3 1_555 1_555
C116_3 C115_3 1_555 1_555
H74_3 C116_3 1_555 1_555
C117_3 C116_3 1_555 1_555
C118_3 C117_3 1_555 1_555
H75_3 C118_3 1_555 1_555
C119_3 C114_3 1_555 1_555
H76_3 C119_3 1_555 1_555
C120_3 C117_3 1_555 1_555
O23 S1 1_555 1_555
O24 S1 1_555 1_555
O31 C120_3 1_555 1_555
O32 C120_3 1_555 1_555
O27_3 H77_3 1_555 1_555
H78_3 O27_3 1_555 1_555
S1 C111 1_555 1_555
C112 C113 1_555 1_555
C114_3 S1 1_555 1_555
C118_3 C119_3 1_555 1_555
O27_3 Zn6 1_555 1_555
C15 H10 1_555 1_555
H11 C16 1_555 1_555
H64 C99 1_555 1_555
C107 C108_2 1_555 1_555
C108_2 C109_2 1_555 1_555
C109_2 H69_2 1_555 1_555
C110_2 C109_2 1_555 1_555
H70_2 C110_2 1_555 1_555
C111_2 C110_2 1_555 1_555
C112_2 C111_2 1_555 1_555
H71_2 C112_2 1_555 1_555
C113_2 C108_2 1_555 1_555
H72_2 C113_2 1_555 1_555
O21 C107 1_555 1_555
O22 C107 1_555 1_555
O23_2 S1_2 1_555 1_555
O24_2 S1_2 1_555 1_555
S1_2 C111_2 1_555 1_555
Zn2 N2 1_555 1_555
C15 C16 1_555 1_555
C15 N2 1_555 1_555
C112_2 C113_2 1_555 1_555
O15 Zn2 1_555 1_555
O21 Zn2 1_555 1_555
O22 Zn2 1_555 1_555
H41_2 C61_2 1_555 1_555
C62_2 C61_2 1_555 1_555
H42_2 C62_2 1_555 1_555
C63_2 H43 1_555 1_555
C100_2 C101_2 1_555 1_555
C101_2 H65_2 1_555 1_555
C102_2 C101_2 1_555 1_555
H66_2 C102_2 1_555 1_555
C103_2 C102_2 1_555 1_555
C104_2 C103_2 1_555 1_555
C106_2 C103_2 1_555 1_555
N8_2 C62_2 1_555 1_555
O19_2 C106_2 1_555 1_555
O20 C106_2 1_555 1_555
O28 H79 1_555 1_555
H80 O28 1_555 1_555
Zn3 N8_2 1_555 1_555
O29 Zn3 1_555 1_555
O30 Zn3 1_555 1_555
C63_2 N8_2 1_555 1_555
O19_2 Zn3 1_555 1_555
O28 Zn3 1_555 1_555
C20 C19 1_555 1_555
H13 C20 1_555 1_555
C21 C20 1_555 1_555
C28 C21 1_555 1_555
C29 C28 1_555 1_555
H19 C29 1_555 1_555
C30 C29 1_555 1_555
H20 C30 1_555 1_555
C31 H21 1_555 1_555
C32 C28 1_555 1_555
H37 C56 1_555 1_555
C57 C56 1_555 1_555
H38 C57 1_555 1_555
C58 H39 1_555 1_555
H50 C74 1_555 1_555
C75 C74 1_555 1_555
C76 C75 1_555 1_555
H51 C76 1_555 1_555
C78 C75 1_555 1_555
C79 C80 1_555 1_555
C80 C81 1_555 1_555
C81 H53 1_555 1_555
C82 C81 1_555 1_555
H54 C82 1_555 1_555
C83 C82 1_555 1_555
C84 C83 1_555 1_555
H55 C84 1_555 1_555
C85 C80 1_555 1_555
H56 C85 1_555 1_555
C86 C87 1_555 1_555
C87 H57 1_555 1_555
C88 C87 1_555 1_555
H58 C88 1_555 1_555
C89 C88 1_555 1_555
C90 C89 1_555 1_555
H59 C90 1_555 1_555
C91 C86 1_555 1_555
H60 C91 1_555 1_555
C92 C89 1_555 1_555
N4 C30 1_555 1_555
N7 C57 1_555 1_555
O7 C78 1_555 1_555
O8 C78 1_555 1_555
O9 C79 1_555 1_555
O10 C79 1_555 1_555
O11 S4 1_555 1_555
O12 S4 1_555 1_555
O13 C92 1_555 1_555
O14 C92 1_555 1_555
S4 C83 1_555 1_555
Zn4 N4 1_555 1_555
Zn7 O13 1_555 1_555
C31 C32 1_555 1_555
C31 N4 1_555 1_555
C58 C59 1_555 1_555
C58 N7 1_555 1_555
C84 C85 1_555 1_555
C86 S4 1_555 1_555
C90 C91 1_555 1_555
N7 Zn4 1_555 1_555
O7 Zn4 1_555 1_555
O9 Zn4 1_555 1_555
O10 Zn4 1_555 1_555
O14 Zn7 1_555 1_555
C80_2 C81_2 1_555 1_555
C81_2 H53_2 1_555 1_555
C82_2 C81_2 1_555 1_555
H54_2 C82_2 1_555 1_555
C83_2 C82_2 1_555 1_555
C84_2 C83_2 1_555 1_555
H55_2 C84_2 1_555 1_555
C85_2 C80_2 1_555 1_555
H56_2 C85_2 1_555 1_555
C86_2 C87_2 1_555 1_555
C87_2 H57_2 1_555 1_555
C88_2 C87_2 1_555 1_555
H58_2 C88_2 1_555 1_555
C89_2 C88_2 1_555 1_555
C90_2 C89_2 1_555 1_555
H59_2 C90_2 1_555 1_555
C91_2 C86_2 1_555 1_555
H60_2 C91_2 1_555 1_555
C92_2 C89_2 1_555 1_555
O11_2 S4_2 1_555 1_555
O12_2 S4_2 1_555 1_555
O29 C92_2 1_555 1_555
O30 C92_2 1_555 1_555
O28_2 H79_2 1_555 1_555
H80_2 O28_2 1_555 1_555
S4_2 C83_2 1_555 1_555
C84_2 C85_2 1_555 1_555
C86_2 S4_2 1_555 1_555
C90_2 C91_2 1_555 1_555
O28_2 Zn7 1_555 1_555
C24 C23 1_555 1_555
H15 C24 1_555 1_555
C25 C24 1_555 1_555
H16 C25 1_555 1_555
C26 H17 1_555 1_555
C27 C23 1_555 1_555
C98 C97 1_555 1_555
H63 C98 1_555 1_555
H68 C105 1_555 1_555
N3 C25 1_555 1_555
O18 S2 1_555 1_555
S2 C97 1_555 1_555
C26 C27 1_555 1_555
C26 N3 1_555 1_555
C49_2 C50_2 1_555 1_555
C50_2 H34_2 1_555 1_555
C51_2 C50_2 1_555 1_555
C52_2 C51_2 1_555 1_555
H35_2 C52_2 1_555 1_555
C53_2 C52_2 1_555 1_555
C54_2 C49_2 1_555 1_555
H36_2 C54_2 1_555 1_555
C55_2 C53_2 1_555 1_555
C60_2 C51_2 1_555 1_555
C64_2 C60_2 1_555 1_555
H44_2 C64_2 1_555 1_555
O2_2 C40_2 1_555 1_555
C49_2 O2_2 1_555 1_555
C53_2 C54_2 1_555 1_555
C24_2 C23_2 1_555 1_555
H15_2 C24_2 1_555 1_555
C25_2 C24_2 1_555 1_555
H16_2 C25_2 1_555 1_555
C26_2 H17_2 1_555 1_555
C27_2 C23_2 1_555 1_555
H41_3 C61_3 1_555 1_555
C62_3 C61_3 1_555 1_555
H42_3 C62_3 1_555 1_555
C63_3 H43_3 1_555 1_555
C98_2 C97_2 1_555 1_555
H63_2 C98_2 1_555 1_555
C100_3 C101_3 1_555 1_555
C101_3 H65_3 1_555 1_555
C102_3 C101_3 1_555 1_555
H66_3 C102_3 1_555 1_555
C103_3 C102_3 1_555 1_555
C104_3 C103_3 1_555 1_555
H67_2 C104_3 1_555 1_555
C105_2 C100_3 1_555 1_555
H68_2 C105_2 1_555 1_555
C106_3 C103_3 1_555 1_555
N3_2 C25_2 1_555 1_555
N8_3 C62_3 1_555 1_555
O17_3 S2_2 1_555 1_555
O18_2 S2_2 1_555 1_555
O19_3 C106_3 1_555 1_555
O20_3 C106_3 1_555 1_555
O28_3 H79_3 1_555 1_555
H80_3 O28_3 1_555 1_555
S2_2 C97_2 1_555 1_555
Zn3_2 N8_3 1_555 1_555
O29_2 Zn3_2 1_555 1_555
O30_2 Zn3_2 1_555 1_555
C26_2 C27_2 1_555 1_555
C26_2 N3_2 1_555 1_555
C63_3 N8_3 1_555 1_555
C100_3 S2_2 1_555 1_555
C104_3 C105_2 1_555 1_555
O19_3 Zn3_2 1_555 1_555
O28_3 Zn3_2 1_555 1_555
C80_3 C81_3 1_555 1_555
C81_3 H53_3 1_555 1_555
C82_3 C81_3 1_555 1_555
H54_3 C82_3 1_555 1_555
C83_3 C82_3 1_555 1_555
C84_3 C83_3 1_555 1_555
H55_3 C84_3 1_555 1_555
C85_3 C80_3 1_555 1_555
H56_3 C85_3 1_555 1_555
C86_3 C87_3 1_555 1_555
C87_3 H57_3 1_555 1_555
C88_3 C87_3 1_555 1_555
H58_3 C88_3 1_555 1_555
C89_3 C88_3 1_555 1_555
C90_3 C89_3 1_555 1_555
H59_3 C90_3 1_555 1_555
C91_3 C86_3 1_555 1_555
H60_3 C91_3 1_555 1_555
C92_3 C89_3 1_555 1_555
O11_3 S4_3 1_555 1_555
O12_3 S4_3 1_555 1_555
O29_2 C92_3 1_555 1_555
O30_2 C92_3 1_555 1_555
S4_3 C83_3 1_555 1_555
C84_3 C85_3 1_555 1_555
C86_3 S4_3 1_555 1_555
C90_3 C91_3 1_555 1_555
C15_2 H10_2 1_555 1_555
H11_2 C16_2 1_555 1_555
C33_3 H23_3 1_555 1_555
C34_3 C33_3 1_555 1_555
H24_3 C34_3 1_555 1_555
C93_3 C94_3 1_555 1_555
C94_3 C95_3 1_555 1_555
C95_3 H61_3 1_555 1_555
C96_3 C95_3 1_555 1_555
H62_3 C96_3 1_555 1_555
C99_2 C94_3 1_555 1_555
H64_2 C99_2 1_555 1_555
C107_2 C108_3 1_555 1_555
C108_3 C109_3 1_555 1_555
C109_3 H69_3 1_555 1_555
C110_3 C109_3 1_555 1_555
H70_3 C110_3 1_555 1_555
C111_3 C110_3 1_555 1_555
C112_3 C111_3 1_555 1_555
H71_3 C112_3 1_555 1_555
C113_3 C108_3 1_555 1_555
H72_3 C113_3 1_555 1_555
C114_4 C115_4 1_555 1_555
C115_4 H73_4 1_555 1_555
C116_4 C115_4 1_555 1_555
H74_4 C116_4 1_555 1_555
C117_4 C116_4 1_555 1_555
C118_4 C117_4 1_555 1_555
H75_4 C118_4 1_555 1_555
C119_4 C114_4 1_555 1_555
H76_4 C119_4 1_555 1_555
C120_4 C117_4 1_555 1_555
N5_3 C33_3 1_555 1_555
O15_2 C93_3 1_555 1_555
O16_3 C93_3 1_555 1_555
O21_2 C107_2 1_555 1_555
O22_2 C107_2 1_555 1_555
O23_3 S1_3 1_555 1_555
O24_3 S1_3 1_555 1_555
O25_2 C120_4 1_555 1_555
O26_2 C120_4 1_555 1_555
S1_3 C111_3 1_555 1_555
Zn2_2 N2_2 1_555 1_555
Zn6_2 O25_2 1_555 1_555
C15_2 C16_2 1_555 1_555
C15_2 N2_2 1_555 1_555
C112_3 C113_3 1_555 1_555
C114_4 S1_3 1_555 1_555
C118_4 C119_4 1_555 1_555
N5_3 Zn2_2 1_555 1_555
O15_2 Zn2_2 1_555 1_555
O21_2 Zn2_2 1_555 1_555
O22_2 Zn2_2 1_555 1_555
O26_2 Zn6_2 1_555 1_555
C1_4 H1_4 1_555 1_555
C108_4 C109_4 1_555 1_555
C109_4 H69_4 1_555 1_555
C110_4 C109_4 1_555 1_555
H70_4 C110_4 1_555 1_555
C111_4 C110_4 1_555 1_555
C112_4 C111_4 1_555 1_555
H71_4 C112_4 1_555 1_555
C113_4 C108_4 1_555 1_555
H72_4 C113_4 1_555 1_555
O23_4 S1_4 1_555 1_555
O24_4 S1_4 1_555 1_555
O27_4 H77_4 1_555 1_555
H78_4 O27_4 1_555 1_555
S1_4 C111_4 1_555 1_555
N9_2 Zn6_2 1_555 1_555
C112_4 C113_4 1_555 1_555
O27_4 Zn6_2 1_555 1_555
H2_3 C2_3 1_555 1_555
C3_3 C2_3 1_555 1_555
C4_3 C3_3 1_555 1_555
H3_3 C4_3 1_555 1_555
C5_3 C4_3 1_555 1_555
H4_3 C5_3 1_555 1_555
C6_3 C3_3 1_555 1_555
C7_3 C6_3 1_555 1_555
H5_3 C7_3 1_555 1_555
C8_3 C7_3 1_555 1_555
C9_3 C8_3 1_555 1_555
H6_3 C9_3 1_555 1_555
C10_3 C9_3 1_555 1_555
C11_3 C6_3 1_555 1_555
H7_3 C11_3 1_555 1_555
C12_3 C8_3 1_555 1_555
C13_3 C12_3 1_555 1_555
H8_3 C13_3 1_555 1_555
C14_3 C13_3 1_555 1_555
H9_3 C14_3 1_555 1_555
C15_3 H10_3 1_555 1_555
C16_3 C12_3 1_555 1_555
H11_3 C16_3 1_555 1_555
C17_3 C18_3 1_555 1_555
C18_3 H12_3 1_555 1_555
C19_2 C18_3 1_555 1_555
C20_2 C19_2 1_555 1_555
H13_2 C20_2 1_555 1_555
C21_2 C20_2 1_555 1_555
C22_3 C17_3 1_555 1_555
H14_3 C22_3 1_555 1_555
C23_3 C19_2 1_555 1_555
C24_3 C23_3 1_555 1_555
H15_3 C24_3 1_555 1_555
C25_3 C24_3 1_555 1_555
H16_3 C25_3 1_555 1_555
C26_3 H17_3 1_555 1_555
C27_3 C23_3 1_555 1_555
H18_2 C27_3 1_555 1_555
C28_2 C21_2 1_555 1_555
C29_2 C28_2 1_555 1_555
H19_2 C29_2 1_555 1_555
C30_2 C29_2 1_555 1_555
H20_2 C30_2 1_555 1_555
C31_2 H21_2 1_555 1_555
C32_2 C28_2 1_555 1_555
H22_3 C32_2 1_555 1_555
C33_4 H23_4 1_555 1_555
C34_4 C33_4 1_555 1_555
H24_4 C34_4 1_555 1_555
C35_4 C34_4 1_555 1_555
C36_4 C35_4 1_555 1_555
H25_4 C36_4 1_555 1_555
C37_4 C36_4 1_555 1_555
H26_4 C37_4 1_555 1_555
C38_4 C35_4 1_555 1_555
C39_4 C38_4 1_555 1_555
H27_3 C39_4 1_555 1_555
C40_3 C39_4 1_555 1_555
C41_4 C40_3 1_555 1_555
H28_4 C41_4 1_555 1_555
C42_4 C41_4 1_555 1_555
C43_4 C38_4 1_555 1_555
H29_4 C43_4 1_555 1_555
C44_4 C42_4 1_555 1_555
C45_4 C44_4 1_555 1_555
H30_4 C45_4 1_555 1_555
C46_4 C45_4 1_555 1_555
H31_4 C46_4 1_555 1_555
C47_4 H32_4 1_555 1_555
C48_4 C44_4 1_555 1_555
H33_4 C48_4 1_555 1_555
C49_3 C50_3 1_555 1_555
C50_3 H34_3 1_555 1_555
C51_3 C50_3 1_555 1_555
C52_3 C51_3 1_555 1_555
H35_3 C52_3 1_555 1_555
C53_3 C52_3 1_555 1_555
C54_3 C49_3 1_555 1_555
H36_3 C54_3 1_555 1_555
C55_3 C53_3 1_555 1_555
C56_2 C55_3 1_555 1_555
H37_2 C56_2 1_555 1_555
C57_2 C56_2 1_555 1_555
H38_2 C57_2 1_555 1_555
C58_2 H39_2 1_555 1_555
C59_2 C55_3 1_555 1_555
H40_3 C59_2 1_555 1_555
C60_3 C51_3 1_555 1_555
C61_4 C60_3 1_555 1_555
H41_4 C61_4 1_555 1_555
C62_4 C61_4 1_555 1_555
H42_4 C62_4 1_555 1_555
C64_3 C60_3 1_555 1_555
H44_3 C64_3 1_555 1_555
C65_3 C66_3 1_555 1_555
C66_3 C67_3 1_555 1_555
C67_3 H45_3 1_555 1_555
C68_3 C67_3 1_555 1_555
H46_3 C68_3 1_555 1_555
C69_3 C68_3 1_555 1_555
C70_3 C69_3 1_555 1_555
C71_3 C66_3 1_555 1_555
H48_3 C71_3 1_555 1_555
C72_3 C73_3 1_555 1_555
C73_3 H49_3 1_555 1_555
C74_2 C73_3 1_555 1_555
H50_2 C74_2 1_555 1_555
C75_2 C74_2 1_555 1_555
C76_2 C75_2 1_555 1_555
H51_2 C76_2 1_555 1_555
C77_3 C72_3 1_555 1_555
H52_3 C77_3 1_555 1_555
C78_2 C75_2 1_555 1_555
C93_4 C94_4 1_555 1_555
C94_4 C95_4 1_555 1_555
C95_4 H61_4 1_555 1_555
C96_4 C95_4 1_555 1_555
H62_4 C96_4 1_555 1_555
C97_3 C96_4 1_555 1_555
C98_3 C97_3 1_555 1_555
H63_3 C98_3 1_555 1_555
C99_3 C94_4 1_555 1_555
H64_3 C99_3 1_555 1_555
C100_4 C101_4 1_555 1_555
C101_4 H65_4 1_555 1_555
C102_4 C101_4 1_555 1_555
H66_4 C102_4 1_555 1_555
C103_4 C102_4 1_555 1_555
C104_4 C103_4 1_555 1_555
H67_3 C104_4 1_555 1_555
C105_3 C100_4 1_555 1_555
H68_3 C105_3 1_555 1_555
C106_4 C103_4 1_555 1_555
N2_3 C14_3 1_555 1_555
N3_3 C25_3 1_555 1_555
N4_2 C30_2 1_555 1_555
N5_4 C33_4 1_555 1_555
N9_2 C46_4 1_555 1_555
N7_2 C57_2 1_555 1_555
N8_4 C62_4 1_555 1_555
O1_3 C10_3 1_555 1_555
O2_3 C40_3 1_555 1_555
O3_3 C65_3 1_555 1_555
O7_2 C78_2 1_555 1_555
O8_2 C78_2 1_555 1_555
O9_2 C79_2 1_555 1_555
O10_2 C79_2 1_555 1_555
O15_3 C93_4 1_555 1_555
O16_4 C93_4 1_555 1_555
O17_4 S2_3 1_555 1_555
O18_3 S2_3 1_555 1_555
O19_4 C106_4 1_555 1_555
O21_3 C107_3 1_555 1_555
O22_3 C107_3 1_555 1_555
S2_3 C97_3 1_555 1_555
Zn2_3 N2_3 1_555 1_555
Zn4_2 N4_2 1_555 1_555
C5_3 N1_3 1_555 1_555
C10_3 C11_3 1_555 1_555
C15_3 C16_3 1_555 1_555
C15_3 N2_3 1_555 1_555
C17_3 O1_3 1_555 1_555
C21_2 C22_3 1_555 1_555
C26_3 C27_3 1_555 1_555
C26_3 N3_3 1_555 1_555
C31_2 C32_2 1_555 1_555
C31_2 N4_2 1_555 1_555
C37_4 N5_4 1_555 1_555
C42_4 C43_4 1_555 1_555
C47_4 C48_4 1_555 1_555
C47_4 N9_2 1_555 1_555
C49_3 O2_3 1_555 1_555
C53_3 C54_3 1_555 1_555
C58_2 C59_2 1_555 1_555
C58_2 N7_2 1_555 1_555
C63_4 C64_3 1_555 1_555
C63_4 N8_4 1_555 1_555
C70_3 C71_3 1_555 1_555
C76_2 C77_3 1_555 1_555
C98_3 C99_3 1_555 1_555
C100_4 S2_3 1_555 1_555
C104_4 C105_3 1_555 1_555
N5_4 Zn2_3 1_555 1_555
N7_2 Zn4_2 1_555 1_555
O7_2 Zn4_2 1_555 1_555
O9_2 Zn4_2 1_555 1_555
O10_2 Zn4_2 1_555 1_555
O15_3 Zn2_3 1_555 1_555
O21_3 Zn2_3 1_555 1_555
O22_3 Zn2_3 1_555 1_555
C20_3 C19_3 1_555 1_555
H13_3 C20_3 1_555 1_555
C21_3 C20_3 1_555 1_555
C28_3 C21_3 1_555 1_555
C29_3 C28_3 1_555 1_555
H19_3 C29_3 1_555 1_555
C30_3 C29_3 1_555 1_555
H20_3 C30_3 1_555 1_555
C31_3 H21_3 1_555 1_555
C32_3 C28_3 1_555 1_555
C49_4 C50_4 1_555 1_555
C50_4 H34_4 1_555 1_555
C51_4 C50_4 1_555 1_555
C52_4 C51_4 1_555 1_555
H35_4 C52_4 1_555 1_555
C53_4 C52_4 1_555 1_555
C54_4 C49_4 1_555 1_555
H36_4 C54_4 1_555 1_555
C55_4 C53_4 1_555 1_555
C56_3 C55_4 1_555 1_555
H37_3 C56_3 1_555 1_555
C57_3 C56_3 1_555 1_555
H38_3 C57_3 1_555 1_555
C58_3 H39_3 1_555 1_555
C59_3 C55_4 1_555 1_555
H40_4 C59_3 1_555 1_555
C60_4 C51_4 1_555 1_555
C64_4 C60_4 1_555 1_555
H44_4 C64_4 1_555 1_555
H50_3 C74_3 1_555 1_555
C75_3 C74_3 1_555 1_555
C76_3 C75_3 1_555 1_555
H51_3 C76_3 1_555 1_555
C78_3 C75_3 1_555 1_555
C79_3 C80_4 1_555 1_555
C80_4 C81_4 1_555 1_555
C81_4 H53_4 1_555 1_555
C82_4 C81_4 1_555 1_555
H54_4 C82_4 1_555 1_555
C83_4 C82_4 1_555 1_555
C84_4 C83_4 1_555 1_555
H55_4 C84_4 1_555 1_555
C85_4 C80_4 1_555 1_555
H56_4 C85_4 1_555 1_555
C86_4 C87_4 1_555 1_555
C87_4 H57_4 1_555 1_555
C88_4 C87_4 1_555 1_555
H58_4 C88_4 1_555 1_555
C89_4 C88_4 1_555 1_555
C90_4 C89_4 1_555 1_555
H59_4 C90_4 1_555 1_555
C91_4 C86_4 1_555 1_555
H60_4 C91_4 1_555 1_555
C92_4 C89_4 1_555 1_555
N4_3 C30_3 1_555 1_555
N7_3 C57_3 1_555 1_555
O2_4 C40_4 1_555 1_555
O7_3 C78_3 1_555 1_555
O8_3 C78_3 1_555 1_555
O9_3 C79_3 1_555 1_555
O10_3 C79_3 1_555 1_555
O11_4 S4_4 1_555 1_555
O12_4 S4_4 1_555 1_555
O13_2 C92_4 1_555 1_555
O14_2 C92_4 1_555 1_555
S4_4 C83_4 1_555 1_555
Zn4_3 N4_3 1_555 1_555
Zn7_2 O13_2 1_555 1_555
C31_3 C32_3 1_555 1_555
C31_3 N4_3 1_555 1_555
C49_4 O2_4 1_555 1_555
C53_4 C54_4 1_555 1_555
C58_3 C59_3 1_555 1_555
C58_3 N7_3 1_555 1_555
C84_4 C85_4 1_555 1_555
C86_4 S4_4 1_555 1_555
C90_4 C91_4 1_555 1_555
N7_3 Zn4_3 1_555 1_555
O7_3 Zn4_3 1_555 1_555
O9_3 Zn4_3 1_555 1_555
O10_3 Zn4_3 1_555 1_555
O14_2 Zn7_2 1_555 1_555
O28_4 H79_4 1_555 1_555
H80_4 O28_4 1_555 1_555
O28_4 Zn7_2 1_555 1_555
H2_4 C2_4 1_555 1_555
C3_4 C2_4 1_555 1_555
C4_4 C3_4 1_555 1_555
H3_4 C4_4 1_555 1_555
C5_4 C4_4 1_555 1_555
H4_4 C5_4 1_555 1_555
C6_4 C3_4 1_555 1_555
C7_4 C6_4 1_555 1_555
H5_4 C7_4 1_555 1_555
C8_4 C7_4 1_555 1_555
C9_4 C8_4 1_555 1_555
H6_4 C9_4 1_555 1_555
C10_4 C9_4 1_555 1_555
C11_4 C6_4 1_555 1_555
H7_4 C11_4 1_555 1_555
C12_4 C8_4 1_555 1_555
C13_4 C12_4 1_555 1_555
H8_4 C13_4 1_555 1_555
C14_4 C13_4 1_555 1_555
H9_4 C14_4 1_555 1_555
C15_4 H10_4 1_555 1_555
C16_4 C12_4 1_555 1_555
H11_4 C16_4 1_555 1_555
C17_4 C18_4 1_555 1_555
C18_4 H12_4 1_555 1_555
C19_4 C18_4 1_555 1_555
C20_4 C19_4 1_555 1_555
H13_4 C20_4 1_555 1_555
C21_4 C20_4 1_555 1_555
C22_4 C17_4 1_555 1_555
H14_4 C22_4 1_555 1_555
C23_4 C19_4 1_555 1_555
C24_4 C23_4 1_555 1_555
H15_4 C24_4 1_555 1_555
C25_4 C24_4 1_555 1_555
H16_4 C25_4 1_555 1_555
C26_4 H17_4 1_555 1_555
C27_4 C23_4 1_555 1_555
H18_4 C27_4 1_555 1_555
C28_4 C21_4 1_555 1_555
C29_4 C28_4 1_555 1_555
H19_4 C29_4 1_555 1_555
C30_4 C29_4 1_555 1_555
H20_4 C30_4 1_555 1_555
C31_4 H21_4 1_555 1_555
C32_4 C28_4 1_555 1_555
H22_4 C32_4 1_555 1_555
H37_4 C56_4 1_555 1_555
C57_4 C56_4 1_555 1_555
H38_4 C57_4 1_555 1_555
C58_4 H39_4 1_555 1_555
C65_4 C66_4 1_555 1_555
C66_4 C67_4 1_555 1_555
C67_4 H45_4 1_555 1_555
C68_4 C67_4 1_555 1_555
H46_4 C68_4 1_555 1_555
C69_4 C68_4 1_555 1_555
C70_4 C69_4 1_555 1_555
C71_4 C66_4 1_555 1_555
H48_4 C71_4 1_555 1_555
C72_4 C73_4 1_555 1_555
C73_4 H49_4 1_555 1_555
C74_4 C73_4 1_555 1_555
H50_4 C74_4 1_555 1_555
C75_4 C74_4 1_555 1_555
C76_4 C75_4 1_555 1_555
H51_4 C76_4 1_555 1_555
C77_4 C72_4 1_555 1_555
H52_4 C77_4 1_555 1_555
C78_4 C75_4 1_555 1_555
C98_4 C97_4 1_555 1_555
H63_4 C98_4 1_555 1_555
H64_4 C99_4 1_555 1_555
H68_4 C105_4 1_555 1_555
N2_4 C14_4 1_555 1_555
N3_4 C25_4 1_555 1_555
N4_4 C30_4 1_555 1_555
N7_4 C57_4 1_555 1_555
O1_4 C10_4 1_555 1_555
O3_4 C65_4 1_555 1_555
O7_4 C78_4 1_555 1_555
O8_4 C78_4 1_555 1_555
O9_4 C79_4 1_555 1_555
O10_4 C79_4 1_555 1_555
O18_4 S2_4 1_555 1_555
O21_4 C107_4 1_555 1_555
O22_4 C107_4 1_555 1_555
S2_4 C97_4 1_555 1_555
Zn2_4 N2_4 1_555 1_555
Zn4_4 N4_4 1_555 1_555
C5_4 N1_4 1_555 1_555
C10_4 C11_4 1_555 1_555
C15_4 C16_4 1_555 1_555
C15_4 N2_4 1_555 1_555
C17_4 O1_4 1_555 1_555
C21_4 C22_4 1_555 1_555
C26_4 C27_4 1_555 1_555
C26_4 N3_4 1_555 1_555
C31_4 C32_4 1_555 1_555
C31_4 N4_4 1_555 1_555
C58_4 C59_4 1_555 1_555
C58_4 N7_4 1_555 1_555
C70_4 C71_4 1_555 1_555
C76_4 C77_4 1_555 1_555
C98_4 C99_4 1_555 1_555
N7_4 Zn4_4 1_555 1_555
O7_4 Zn4_4 1_555 1_555
O9_4 Zn4_4 1_555 1_555
O10_4 Zn4_4 1_555 1_555
O15_4 Zn2_4 1_555 1_555
O21_4 Zn2_4 1_555 1_555
O22_4 Zn2_4 1_555 1_555
O5_3 S3_3 1_555 1_555
O6_3 S3_3 1_555 1_555
O5_4 S3_4 1_555 1_555
O6_4 S3_4 1_555 1_555

#END
