
###############################################################################
#
# This file contains modified crystal structure data generated from the
# MOF subset of the Cambridge Structural Database (CSD) v543 
# hosted by the Cambridge Crystallographic Data Centre (CCDC).
#
# This work is licensed under the Creative Commons
# Attribution-NonCommercial-ShareAlike 4.0 International License.
# To view a copy of this license, visit
# http://creativecommons.org/licenses/by-nc-sa/4.0/
# or send a letter to
# Creative Commons, PO Box 1866, Mountain View, CA 94042, USA.
#
# CIF created using the CSD Python API on 29 September 2022
# The structure has been converted into the P1 space group
# The structure has a 3D framework
# The original CSD entry QIFLOI is in the tetragonal crystal system
# The framework has been calculated to contain at least 10.0% void space
# The void calculation uses a probe of radius 1.32A, grid spacing 0.4
#
###############################################################################

data_QIFLOI
_chemical_formula_moiety         '(C104 H104 N80 O32 Zn16)n'
_symmetry_cell_setting           triclinic
_symmetry_space_group_name_H-M   'P 1'
_symmetry_Int_Tables_number      1
_space_group_name_Hall           'P 1'
loop_
_symmetry_equiv_pos_site_id
_symmetry_equiv_pos_as_xyz
1 x,y,z
_cell_length_a                   13.2828(5)
_cell_length_b                   13.2828(5)
_cell_length_c                   26.6491(10)
_cell_angle_alpha                90
_cell_angle_beta                 90
_cell_angle_gamma                90
_cell_volume                     4701.77
loop_
_atom_site_label
_atom_site_type_symbol
_atom_site_fract_x
_atom_site_fract_y
_atom_site_fract_z
H2 H 0.1643 0.0563 0.5000
Zn1 Zn 0.32896(4) 0.77722(4) 0.304855(16)
C1 C 0.3122(4) 0.8107(4) 0.40695(18)
C2 C 0.2814(4) 0.8625(4) 0.45472(18)
C3 C 0.2360(7) 0.9558(5) 0.4548(2)
H1 H 0.2259 0.9898 0.4248
C4 C 0.2049(9) 0.9993(9) 0.5000
C5 C 0.3056(6) 0.8173(6) 0.5000
H3 H 0.3386 0.7556 0.5000
C6 C 0.5237(3) 0.7867(4) 0.24312(16)
C7 C 0.5562(3) 0.7336(4) 0.31723(19)
N1 N 0.6217(3) 0.7716(3) 0.24477(14)
N2 N 0.6430(3) 0.7369(3) 0.29369(14)
N3 N 0.4781(3) 0.7662(3) 0.28804(14)
N4 N 0.4742(4) 0.8183(7) 0.20238(17)
H4 H 0.5064 0.8300 0.1750
H5 H 0.4100 0.8268 0.2035
N5 N 0.5433(4) 0.7057(6) 0.3650(2)
H6 H 0.5944 0.6881 0.3828
H7 H 0.4840 0.7054 0.3779
O1 O 0.2960(3) 0.8563(3) 0.36546(13)
O2 O 0.3498(3) 0.7262(3) 0.40918(13)
C8 C 0.3122(4) 0.8107(4) 0.59305(18)
C9 C 0.2814(4) 0.8625(4) 0.54528(18)
C10 C 0.2360(7) 0.9558(5) 0.5452(2)
H8 H 0.2259 0.9898 0.5752
O3 O 0.2960(3) 0.8563(3) 0.63454(13)
O4 O 0.3498(3) 0.7262(3) 0.59082(13)
Zn2 Zn 0.22278(4) 0.32896(4) 0.304855(16)
C11 C 0.2133(4) 0.5237(3) 0.24312(16)
C12 C 0.2664(4) 0.5562(3) 0.31723(19)
N6 N 0.2284(3) 0.6217(3) 0.24477(14)
N7 N 0.2631(3) 0.6430(3) 0.29369(14)
N8 N 0.2338(3) 0.4781(3) 0.28804(14)
N9 N 0.1817(7) 0.4742(4) 0.20238(17)
H9 H 0.1700 0.5064 0.1750
H10 H 0.1732 0.4100 0.2035
N10 N 0.2943(6) 0.5433(4) 0.3650(2)
H11 H 0.3119 0.5944 0.3828
H12 H 0.2946 0.4840 0.3779
Zn3 Zn 0.77722(4) 0.67104(4) 0.304855(16)
Zn4 Zn 0.32896(4) 0.77722(4) 0.695145(16)
Zn5 Zn 0.17104(4) 0.72278(4) 0.195145(16)
Zn6 Zn 0.72278(4) 0.82896(4) 0.195145(16)
N11 N 0.1217(3) 0.2716(3) 0.25523(14)
N12 N 0.2716(3) 0.8783(3) 0.25523(14)
N13 N 0.3570(3) 0.2631(3) 0.29369(14)
O5 O 0.1437(3) 0.2960(3) 0.36546(13)
Zn1_2 Zn 0.67104(4) 0.22278(4) 0.304855(16)
C1_2 C 0.6878(4) 0.1893(4) 0.40695(18)
C2_2 C 0.7186(4) 0.1375(4) 0.45472(18)
C3_2 C 0.7640(7) 0.0442(5) 0.4548(2)
H1_2 H 0.7741 0.0102 0.4248
C4_2 C 0.7951(9) 0.0007(9) 0.5000
C5_2 C 0.6944(6) 0.1827(6) 0.5000
H3_2 H 0.6614 0.2444 0.5000
C6_2 C 0.4763(3) 0.2133(4) 0.24312(16)
C7_2 C 0.4438(3) 0.2664(4) 0.31723(19)
N1_2 N 0.3783(3) 0.2284(3) 0.24477(14)
N3_2 N 0.5219(3) 0.2338(3) 0.28804(14)
N4_2 N 0.5258(4) 0.1817(7) 0.20238(17)
H4_2 H 0.4936 0.1700 0.1750
H5_2 H 0.5900 0.1732 0.2035
N5_2 N 0.4567(4) 0.2943(6) 0.3650(2)
H6_2 H 0.4056 0.3119 0.3828
H7_2 H 0.5160 0.2946 0.3779
O1_2 O 0.7040(3) 0.1437(3) 0.36546(13)
O2_2 O 0.6502(3) 0.2738(3) 0.40918(13)
C8_2 C 0.6878(4) 0.1893(4) 0.59305(18)
C9_2 C 0.7186(4) 0.1375(4) 0.54528(18)
C10_2 C 0.7640(7) 0.0442(5) 0.5452(2)
H8_2 H 0.7741 0.0102 0.5752
O3_2 O 0.7040(3) 0.1437(3) 0.63454(13)
O4_2 O 0.6502(3) 0.2738(3) 0.59082(13)
C11_2 C 0.7867(4) 0.4763(3) 0.24312(16)
C12_2 C 0.7336(4) 0.4438(3) 0.31723(19)
N6_2 N 0.7716(3) 0.3783(3) 0.24477(14)
N7_2 N 0.7369(3) 0.3570(3) 0.29369(14)
N8_2 N 0.7662(3) 0.5219(3) 0.28804(14)
N9_2 N 0.8183(7) 0.5258(4) 0.20238(17)
H9_2 H 0.8300 0.4936 0.1750
H10_2 H 0.8268 0.5900 0.2035
N10_2 N 0.7057(6) 0.4567(4) 0.3650(2)
H11_2 H 0.6881 0.4056 0.3828
H12_2 H 0.7054 0.5160 0.3779
Zn4_2 Zn 0.67104(4) 0.22278(4) 0.695145(16)
Zn5_2 Zn 0.82896(4) 0.27722(4) 0.195145(16)
Zn6_2 Zn 0.27722(4) 0.17104(4) 0.195145(16)
N11_2 N 0.8783(3) 0.7284(3) 0.25523(14)
N12_2 N 0.7284(3) 0.1217(3) 0.25523(14)
O5_2 O 0.8563(3) 0.7040(3) 0.36546(13)
C1_3 C 0.1893(4) 0.3122(4) 0.40695(18)
C2_3 C 0.1375(4) 0.2814(4) 0.45472(18)
C3_3 C 0.0442(5) 0.2360(7) 0.4548(2)
H1_3 H 0.0102 0.2259 0.4248
C4_3 C 0.0007(9) 0.2049(9) 0.5000
C5_3 C 0.1827(6) 0.3056(6) 0.5000
H3_3 H 0.2444 0.3386 0.5000
O2_3 O 0.2738(3) 0.3498(3) 0.40918(13)
C8_3 C 0.1893(4) 0.3122(4) 0.59305(18)
C9_3 C 0.1375(4) 0.2814(4) 0.54528(18)
C10_3 C 0.0442(5) 0.2360(7) 0.5452(2)
H8_3 H 0.0102 0.2259 0.5752
O3_3 O 0.1437(3) 0.2960(3) 0.63454(13)
O4_3 O 0.2738(3) 0.3498(3) 0.59082(13)
Zn4_3 Zn 0.22278(4) 0.32896(4) 0.695145(16)
C1_4 C 0.8107(4) 0.6878(4) 0.40695(18)
C2_4 C 0.8625(4) 0.7186(4) 0.45472(18)
C3_4 C 0.9558(5) 0.7640(7) 0.4548(2)
H1_4 H 0.9898 0.7741 0.4248
C4_4 C 0.9993(9) 0.7951(9) 0.5000
C5_4 C 0.8173(6) 0.6944(6) 0.5000
H3_4 H 0.7556 0.6614 0.5000
O2_4 O 0.7262(3) 0.6502(3) 0.40918(13)
C8_4 C 0.8107(4) 0.6878(4) 0.59305(18)
C9_4 C 0.8625(4) 0.7186(4) 0.54528(18)
C10_4 C 0.9558(5) 0.7640(7) 0.5452(2)
H8_4 H 0.9898 0.7741 0.5752
O3_4 O 0.8563(3) 0.7040(3) 0.63454(13)
O4_4 O 0.7262(3) 0.6502(3) 0.59082(13)
Zn4_4 Zn 0.77722(4) 0.67104(4) 0.695145(16)
C6_3 C 0.0237(3) 0.2867(4) 0.74312(16)
C7_3 C 0.0562(3) 0.2336(4) 0.81723(19)
N1_3 N 0.1217(3) 0.2716(3) 0.74477(14)
N2_2 N 0.1430(3) 0.2369(3) 0.79369(14)
H4_3 H 0.0064 0.3300 0.6750
N5_3 N 0.0433(4) 0.2057(6) 0.8650(2)
H6_3 H 0.0944 0.1881 0.8828
Zn3_2 Zn 0.27722(4) 0.17104(4) 0.804855(16)
C4_5 C 0.7049(9) 0.4993(9) 0.0000
H2_2 H 0.6643 0.5563 0.0000
C5_5 C 0.8056(6) 0.3173(6) 0.0000
H3_5 H 0.8386 0.2556 0.0000
C8_5 C 0.8122(4) 0.3107(4) 0.09305(18)
C9_5 C 0.7814(4) 0.3625(4) 0.04528(18)
C10_5 C 0.7360(7) 0.4558(5) 0.0452(2)
H8_5 H 0.7259 0.4898 0.0752
O3_5 O 0.7960(3) 0.3563(3) 0.13454(13)
O4_5 O 0.8498(3) 0.2262(3) 0.09082(13)
Zn1_3 Zn 0.82896(4) 0.27722(4) 0.804855(16)
C1_5 C 0.8122(4) 0.3107(4) 0.90695(18)
C2_5 C 0.7814(4) 0.3625(4) 0.95472(18)
C3_5 C 0.7360(7) 0.4558(5) 0.9548(2)
H1_5 H 0.7259 0.4898 0.9248
C4_6 C 0.7049(9) 0.4993(9) 1.0000
H2_3 H 0.6643 0.5563 1.0000
C5_6 C 0.8056(6) 0.3173(6) 1.0000
H3_6 H 0.8386 0.2556 1.0000
N3_3 N 0.9781(3) 0.2662(3) 0.78804(14)
N4_3 N 0.9742(4) 0.3183(7) 0.70238(17)
H5_3 H 0.9100 0.3268 0.7035
H7_3 H 0.9840 0.2054 0.8779
O1_3 O 0.7960(3) 0.3563(3) 0.86546(13)
O2_5 O 0.8498(3) 0.2262(3) 0.90918(13)
C11_3 C 0.7133(4) 0.0237(3) 0.74312(16)
C12_3 C 0.7664(4) 0.0562(3) 0.81723(19)
N6_3 N 0.7284(3) 0.1217(3) 0.74477(14)
N7_3 N 0.7631(3) 0.1430(3) 0.79369(14)
H9_3 H 0.6700 0.0064 0.6750
N10_3 N 0.7943(6) 0.0433(4) 0.8650(2)
H11_3 H 0.8119 0.0944 0.8828
N12_3 N 0.7716(3) 0.3783(3) 0.75523(14)
Zn2_2 Zn 0.72278(4) 0.82896(4) 0.804855(16)
N8_3 N 0.7338(3) 0.9781(3) 0.78804(14)
N9_3 N 0.6817(7) 0.9742(4) 0.70238(17)
H10_3 H 0.6732 0.9100 0.7035
H12_3 H 0.7946 0.9840 0.8779
N11_3 N 0.6217(3) 0.7716(3) 0.75523(14)
N13_2 N 0.8570(3) 0.7631(3) 0.79369(14)
O5_3 O 0.6437(3) 0.7960(3) 0.86546(13)
N8_4 N 0.2662(3) 0.0219(3) 0.78804(14)
N9_4 N 0.3183(7) 0.0258(4) 0.70238(17)
H10_4 H 0.3268 0.0900 0.7035
H12_4 H 0.2054 0.0160 0.8779
N11_4 N 0.3783(3) 0.2284(3) 0.75523(14)
O5_4 O 0.3563(3) 0.2040(3) 0.86546(13)
C4_7 C 0.2951(9) 0.5007(9) 0.0000
H2_4 H 0.3357 0.4437 0.0000
C5_7 C 0.1944(6) 0.6827(6) 0.0000
H3_7 H 0.1614 0.7444 0.0000
C8_6 C 0.1878(4) 0.6893(4) 0.09305(18)
C9_6 C 0.2186(4) 0.6375(4) 0.04528(18)
C10_6 C 0.2640(7) 0.5442(5) 0.0452(2)
H8_6 H 0.2741 0.5102 0.0752
O3_6 O 0.2040(3) 0.6437(3) 0.13454(13)
O4_6 O 0.1502(3) 0.7738(3) 0.09082(13)
Zn1_4 Zn 0.17104(4) 0.72278(4) 0.804855(16)
C1_6 C 0.1878(4) 0.6893(4) 0.90695(18)
C2_6 C 0.2186(4) 0.6375(4) 0.95472(18)
C3_6 C 0.2640(7) 0.5442(5) 0.9548(2)
H1_6 H 0.2741 0.5102 0.9248
C4_8 C 0.2951(9) 0.5007(9) 1.0000
H2_5 H 0.3357 0.4437 1.0000
C5_8 C 0.1944(6) 0.6827(6) 1.0000
H3_8 H 0.1614 0.7444 1.0000
N3_4 N 0.0219(3) 0.7338(3) 0.78804(14)
N4_4 N 0.0258(4) 0.6817(7) 0.70238(17)
H5_4 H 0.0900 0.6732 0.7035
H7_4 H 0.0160 0.7946 0.8779
O1_4 O 0.2040(3) 0.6437(3) 0.86546(13)
O2_6 O 0.1502(3) 0.7738(3) 0.90918(13)
C11_4 C 0.2867(4) 0.9763(3) 0.74312(16)
C12_4 C 0.2336(4) 0.9438(3) 0.81723(19)
N6_4 N 0.2716(3) 0.8783(3) 0.74477(14)
N7_4 N 0.2369(3) 0.8570(3) 0.79369(14)
H9_4 H 0.3300 0.9936 0.6750
N10_4 N 0.2057(6) 0.9567(4) 0.8650(2)
H11_4 H 0.1881 0.9056 0.8828
N12_4 N 0.2284(3) 0.6217(3) 0.75523(14)
C6_4 C 0.9763(3) 0.7133(4) 0.74312(16)
C7_4 C 0.9438(3) 0.7664(4) 0.81723(19)
N1_4 N 0.8783(3) 0.7284(3) 0.74477(14)
H4_4 H 0.9936 0.6700 0.6750
N5_4 N 0.9567(4) 0.7943(6) 0.8650(2)
H6_4 H 0.9056 0.8119 0.8828
C4_9 C 0.5007(9) 0.7049(9) 0.0000
H2_6 H 0.4437 0.6643 0.0000
C5_9 C 0.6827(6) 0.8056(6) 0.0000
H3_9 H 0.7444 0.8386 0.0000
C8_7 C 0.6893(4) 0.8122(4) 0.09305(18)
C9_7 C 0.6375(4) 0.7814(4) 0.04528(18)
C10_7 C 0.5442(5) 0.7360(7) 0.0452(2)
H8_7 H 0.5102 0.7259 0.0752
O3_7 O 0.6437(3) 0.7960(3) 0.13454(13)
O4_7 O 0.7738(3) 0.8498(3) 0.09082(13)
C1_7 C 0.6893(4) 0.8122(4) 0.90695(18)
C2_7 C 0.6375(4) 0.7814(4) 0.95472(18)
C3_7 C 0.5442(5) 0.7360(7) 0.9548(2)
H1_7 H 0.5102 0.7259 0.9248
C4_10 C 0.5007(9) 0.7049(9) 1.0000
H2_7 H 0.4437 0.6643 1.0000
C5_10 C 0.6827(6) 0.8056(6) 1.0000
H3_10 H 0.7444 0.8386 1.0000
O2_7 O 0.7738(3) 0.8498(3) 0.90918(13)
C4_11 C 0.4993(9) 0.2951(9) 0.0000
H2_8 H 0.5563 0.3357 0.0000
C5_11 C 0.3173(6) 0.1944(6) 0.0000
H3_11 H 0.2556 0.1614 0.0000
C8_8 C 0.3107(4) 0.1878(4) 0.09305(18)
C9_8 C 0.3625(4) 0.2186(4) 0.04528(18)
C10_8 C 0.4558(5) 0.2640(7) 0.0452(2)
H8_8 H 0.4898 0.2741 0.0752
O3_8 O 0.3563(3) 0.2040(3) 0.13454(13)
O4_8 O 0.2262(3) 0.1502(3) 0.09082(13)
C1_8 C 0.3107(4) 0.1878(4) 0.90695(18)
C2_8 C 0.3625(4) 0.2186(4) 0.95472(18)
C3_8 C 0.4558(5) 0.2640(7) 0.9548(2)
H1_8 H 0.4898 0.2741 0.9248
C4_12 C 0.4993(9) 0.2951(9) 1.0000
H2_9 H 0.5563 0.3357 1.0000
C5_12 C 0.3173(6) 0.1944(6) 1.0000
H3_12 H 0.2556 0.1614 1.0000
O2_8 O 0.2262(3) 0.1502(3) 0.90918(13)
C6_5 C 0.4763(3) 0.2133(4) 0.75688(16)
C7_5 C 0.4438(3) 0.2664(4) 0.68277(19)
N2_3 N 0.3570(3) 0.2631(3) 0.70631(14)
N3_5 N 0.5219(3) 0.2338(3) 0.71196(14)
N4_5 N 0.5258(4) 0.1817(7) 0.79762(17)
H4_5 H 0.4936 0.1700 0.8250
H5_5 H 0.5900 0.1732 0.7965
N5_5 N 0.4567(4) 0.2943(6) 0.6350(2)
H6_5 H 0.4056 0.3119 0.6172
H7_5 H 0.5160 0.2946 0.6221
C11_5 C 0.7867(4) 0.4763(3) 0.75688(16)
C12_5 C 0.7336(4) 0.4438(3) 0.68277(19)
N7_5 N 0.7369(3) 0.3570(3) 0.70631(14)
N8_5 N 0.7662(3) 0.5219(3) 0.71196(14)
N9_5 N 0.8183(7) 0.5258(4) 0.79762(17)
H9_5 H 0.8300 0.4936 0.8250
H10_5 H 0.8268 0.5900 0.7965
N10_5 N 0.7057(6) 0.4567(4) 0.6350(2)
H11_5 H 0.6881 0.4056 0.6172
H12_5 H 0.7054 0.5160 0.6221
N13_3 N 0.6430(3) 0.7369(3) 0.70631(14)
C6_6 C 0.5237(3) 0.7867(4) 0.75688(16)
C7_6 C 0.5562(3) 0.7336(4) 0.68277(19)
N3_6 N 0.4781(3) 0.7662(3) 0.71196(14)
N4_6 N 0.4742(4) 0.8183(7) 0.79762(17)
H4_6 H 0.5064 0.8300 0.8250
H5_6 H 0.4100 0.8268 0.7965
N5_6 N 0.5433(4) 0.7057(6) 0.6350(2)
H6_6 H 0.5944 0.6881 0.6172
H7_6 H 0.4840 0.7054 0.6221
C11_6 C 0.2133(4) 0.5237(3) 0.75688(16)
C12_6 C 0.2664(4) 0.5562(3) 0.68277(19)
N7_6 N 0.2631(3) 0.6430(3) 0.70631(14)
N8_6 N 0.2338(3) 0.4781(3) 0.71196(14)
N9_6 N 0.1817(7) 0.4742(4) 0.79762(17)
H9_6 H 0.1700 0.5064 0.8250
H10_6 H 0.1732 0.4100 0.7965
N10_6 N 0.2943(6) 0.5433(4) 0.6350(2)
H11_6 H 0.3119 0.5944 0.6172
H12_6 H 0.2946 0.4840 0.6221
N8_7 N 0.2662(3) 0.0219(3) 0.21196(14)
N9_7 N 0.3183(7) 0.0258(4) 0.29762(17)
H10_7 H 0.3268 0.0900 0.2965
H12_7 H 0.2054 0.0160 0.1221
N13_4 N 0.1430(3) 0.2369(3) 0.20631(14)
N3_7 N 0.0219(3) 0.7338(3) 0.21196(14)
N4_7 N 0.0258(4) 0.6817(7) 0.29762(17)
H5_7 H 0.0900 0.6732 0.2965
H7_7 H 0.0160 0.7946 0.1221
C11_7 C 0.2867(4) 0.9763(3) 0.25688(16)
C12_7 C 0.2336(4) 0.9438(3) 0.18277(19)
N7_7 N 0.2369(3) 0.8570(3) 0.20631(14)
H9_7 H 0.3300 0.9936 0.3250
N10_7 N 0.2057(6) 0.9567(4) 0.1350(2)
H11_7 H 0.1881 0.9056 0.1172
C6_7 C 0.9763(3) 0.7133(4) 0.25688(16)
C7_7 C 0.9438(3) 0.7664(4) 0.18277(19)
N2_4 N 0.8570(3) 0.7631(3) 0.20631(14)
H4_7 H 0.9936 0.6700 0.3250
N5_7 N 0.9567(4) 0.7943(6) 0.1350(2)
H6_7 H 0.9056 0.8119 0.1172
C6_8 C 0.0237(3) 0.2867(4) 0.25688(16)
C7_8 C 0.0562(3) 0.2336(4) 0.18277(19)
H4_8 H 0.0064 0.3300 0.3250
N5_8 N 0.0433(4) 0.2057(6) 0.1350(2)
H6_8 H 0.0944 0.1881 0.1172
N3_8 N 0.9781(3) 0.2662(3) 0.21196(14)
N4_8 N 0.9742(4) 0.3183(7) 0.29762(17)
H5_8 H 0.9100 0.3268 0.2965
H7_8 H 0.9840 0.2054 0.1221
C11_8 C 0.7133(4) 0.0237(3) 0.25688(16)
C12_8 C 0.7664(4) 0.0562(3) 0.18277(19)
N7_8 N 0.7631(3) 0.1430(3) 0.20631(14)
H9_8 H 0.6700 0.0064 0.3250
N10_8 N 0.7943(6) 0.0433(4) 0.1350(2)
H11_8 H 0.8119 0.0944 0.1172
N8_8 N 0.7338(3) 0.9781(3) 0.21196(14)
N9_8 N 0.6817(7) 0.9742(4) 0.29762(17)
H10_8 H 0.6732 0.9100 0.2965
H12_8 H 0.7946 0.9840 0.1221
H2_10 H 0.8357 0.9437 0.5000
H2_11 H 0.9437 0.1643 0.5000
H2_12 H 0.0563 0.8357 0.5000
loop_
_geom_bond_atom_site_label_1
_geom_bond_atom_site_label_2
_geom_bond_site_symmetry_1
_geom_bond_site_symmetry_2
Zn1 N3 1_555 1_555
C1 C2 1_555 1_555
C2 C3 1_555 1_555
C3 H1 1_555 1_555
C4 C3 1_555 1_555
C5 C2 1_555 1_555
H3 C5 1_555 1_555
C6 N1 1_555 1_555
C7 N2 1_555 1_555
N1 N2 1_555 1_555
N2 Zn3 1_555 1_555
N3 C6 1_555 1_555
N4 C6 1_555 1_555
H4 N4 1_555 1_555
H5 N4 1_555 1_555
N5 C7 1_555 1_555
H6 N5 1_555 1_555
H7 N5 1_555 1_555
O1 Zn1 1_555 1_555
O2 C1 1_555 1_555
C8 C9 1_555 1_555
C9 C5 1_555 1_555
C10 C4 1_555 1_555
H8 C10 1_555 1_555
O3 C8 1_555 1_555
O4 C8 1_555 1_555
Zn2 N8 1_555 1_555
C11 N6 1_555 1_555
C12 N7 1_555 1_555
N6 N7 1_555 1_555
N7 Zn1 1_555 1_555
N8 C11 1_555 1_555
N9 C11 1_555 1_555
H9 N9 1_555 1_555
H10 N9 1_555 1_555
N10 C12 1_555 1_555
H11 N10 1_555 1_555
H12 N10 1_555 1_555
Zn4 O3 1_555 1_555
Zn5 N6 1_555 1_555
Zn6 N1 1_555 1_555
N11 Zn2 1_555 1_555
N12 Zn1 1_555 1_555
N13 Zn2 1_555 1_555
O5 Zn2 1_555 1_555
C1 O1 1_555 1_555
C7 N3 1_555 1_555
C9 C10 1_555 1_555
C12 N8 1_555 1_555
Zn1_2 N3_2 1_555 1_555
C1_2 C2_2 1_555 1_555
C2_2 C3_2 1_555 1_555
C3_2 H1_2 1_555 1_555
C4_2 C3_2 1_555 1_555
C5_2 C2_2 1_555 1_555
H3_2 C5_2 1_555 1_555
C6_2 N1_2 1_555 1_555
C7_2 N13 1_555 1_555
N1_2 N13 1_555 1_555
N3_2 C6_2 1_555 1_555
N4_2 C6_2 1_555 1_555
H4_2 N4_2 1_555 1_555
H5_2 N4_2 1_555 1_555
N5_2 C7_2 1_555 1_555
H6_2 N5_2 1_555 1_555
H7_2 N5_2 1_555 1_555
O1_2 Zn1_2 1_555 1_555
O2_2 C1_2 1_555 1_555
C8_2 C9_2 1_555 1_555
C9_2 C5_2 1_555 1_555
C10_2 C4_2 1_555 1_555
H8_2 C10_2 1_555 1_555
O3_2 C8_2 1_555 1_555
O4_2 C8_2 1_555 1_555
Zn3 N8_2 1_555 1_555
C11_2 N6_2 1_555 1_555
C12_2 N7_2 1_555 1_555
N6_2 N7_2 1_555 1_555
N7_2 Zn1_2 1_555 1_555
N8_2 C11_2 1_555 1_555
N9_2 C11_2 1_555 1_555
H9_2 N9_2 1_555 1_555
H10_2 N9_2 1_555 1_555
N10_2 C12_2 1_555 1_555
H11_2 N10_2 1_555 1_555
H12_2 N10_2 1_555 1_555
Zn4_2 O3_2 1_555 1_555
Zn5_2 N6_2 1_555 1_555
Zn6_2 N1_2 1_555 1_555
N11_2 Zn3 1_555 1_555
N12_2 Zn1_2 1_555 1_555
O5_2 Zn3 1_555 1_555
C1_2 O1_2 1_555 1_555
C7_2 N3_2 1_555 1_555
C9_2 C10_2 1_555 1_555
C12_2 N8_2 1_555 1_555
C1_3 C2_3 1_555 1_555
C2_3 C3_3 1_555 1_555
C3_3 H1_3 1_555 1_555
C4_3 C3_3 1_555 1_555
C5_3 C2_3 1_555 1_555
H3_3 C5_3 1_555 1_555
O2_3 C1_3 1_555 1_555
C8_3 C9_3 1_555 1_555
C9_3 C5_3 1_555 1_555
C10_3 C4_3 1_555 1_555
H8_3 C10_3 1_555 1_555
O3_3 C8_3 1_555 1_555
O4_3 C8_3 1_555 1_555
Zn4_3 O3_3 1_555 1_555
C1_3 O5 1_555 1_555
C9_3 C10_3 1_555 1_555
C1_4 C2_4 1_555 1_555
C2_4 C3_4 1_555 1_555
C3_4 H1_4 1_555 1_555
C4_4 C3_4 1_555 1_555
C5_4 C2_4 1_555 1_555
H3_4 C5_4 1_555 1_555
O2_4 C1_4 1_555 1_555
C8_4 C9_4 1_555 1_555
C9_4 C5_4 1_555 1_555
C10_4 C4_4 1_555 1_555
H8_4 C10_4 1_555 1_555
O3_4 C8_4 1_555 1_555
O4_4 C8_4 1_555 1_555
Zn4_4 O3_4 1_555 1_555
C1_4 O5_2 1_555 1_555
C9_4 C10_4 1_555 1_555
C6_3 N1_3 1_555 1_555
C7_3 N2_2 1_555 1_555
N1_3 N2_2 1_555 1_555
N2_2 Zn3_2 1_555 1_555
N5_3 C7_3 1_555 1_555
H6_3 N5_3 1_555 1_555
Zn4_3 N1_3 1_555 1_555
H2_2 C4_5 1_555 1_555
H3_5 C5_5 1_555 1_555
C8_5 C9_5 1_555 1_555
C9_5 C5_5 1_555 1_555
C10_5 C4_5 1_555 1_555
H8_5 C10_5 1_555 1_555
O3_5 C8_5 1_555 1_555
O4_5 C8_5 1_555 1_555
Zn5_2 O3_5 1_555 1_555
C9_5 C10_5 1_555 1_555
Zn1_3 N3_3 1_555 1_555
C1_5 C2_5 1_555 1_555
C2_5 C3_5 1_555 1_555
C3_5 H1_5 1_555 1_555
C4_6 C3_5 1_555 1_555
H2_3 C4_6 1_555 1_555
C5_6 C2_5 1_555 1_555
H3_6 C5_6 1_555 1_555
H5_3 N4_3 1_555 1_555
O1_3 Zn1_3 1_555 1_555
O2_5 C1_5 1_555 1_555
C11_3 N6_3 1_555 1_555
C12_3 N7_3 1_555 1_555
N6_3 N7_3 1_555 1_555
N7_3 Zn1_3 1_555 1_555
N10_3 C12_3 1_555 1_555
H11_3 N10_3 1_555 1_555
Zn4_2 N6_3 1_555 1_555
N12_3 Zn1_3 1_555 1_555
C1_5 O1_3 1_555 1_555
Zn2_2 N8_3 1_555 1_555
H10_3 N9_3 1_555 1_555
N11_3 Zn2_2 1_555 1_555
N13_2 Zn2_2 1_555 1_555
O5_3 Zn2_2 1_555 1_555
Zn3_2 N8_4 1_555 1_555
H10_4 N9_4 1_555 1_555
N11_4 Zn3_2 1_555 1_555
O5_4 Zn3_2 1_555 1_555
H2_4 C4_7 1_555 1_555
H3_7 C5_7 1_555 1_555
C8_6 C9_6 1_555 1_555
C9_6 C5_7 1_555 1_555
C10_6 C4_7 1_555 1_555
H8_6 C10_6 1_555 1_555
O3_6 C8_6 1_555 1_555
O4_6 C8_6 1_555 1_555
Zn5 O3_6 1_555 1_555
C9_6 C10_6 1_555 1_555
Zn1_4 N3_4 1_555 1_555
C1_6 C2_6 1_555 1_555
C2_6 C3_6 1_555 1_555
C3_6 H1_6 1_555 1_555
C4_8 C3_6 1_555 1_555
H2_5 C4_8 1_555 1_555
C5_8 C2_6 1_555 1_555
H3_8 C5_8 1_555 1_555
H5_4 N4_4 1_555 1_555
O1_4 Zn1_4 1_555 1_555
O2_6 C1_6 1_555 1_555
C11_4 N6_4 1_555 1_555
C12_4 N7_4 1_555 1_555
N6_4 N7_4 1_555 1_555
N7_4 Zn1_4 1_555 1_555
N10_4 C12_4 1_555 1_555
H11_4 N10_4 1_555 1_555
Zn4 N6_4 1_555 1_555
N12_4 Zn1_4 1_555 1_555
C1_6 O1_4 1_555 1_555
C6_4 N1_4 1_555 1_555
C7_4 N13_2 1_555 1_555
N1_4 N13_2 1_555 1_555
N5_4 C7_4 1_555 1_555
H6_4 N5_4 1_555 1_555
Zn4_4 N1_4 1_555 1_555
H2_6 C4_9 1_555 1_555
H3_9 C5_9 1_555 1_555
C8_7 C9_7 1_555 1_555
C9_7 C5_9 1_555 1_555
C10_7 C4_9 1_555 1_555
H8_7 C10_7 1_555 1_555
O3_7 C8_7 1_555 1_555
O4_7 C8_7 1_555 1_555
Zn6 O3_7 1_555 1_555
C9_7 C10_7 1_555 1_555
C1_7 C2_7 1_555 1_555
C2_7 C3_7 1_555 1_555
C3_7 H1_7 1_555 1_555
C4_10 C3_7 1_555 1_555
H2_7 C4_10 1_555 1_555
C5_10 C2_7 1_555 1_555
H3_10 C5_10 1_555 1_555
O2_7 C1_7 1_555 1_555
C1_7 O5_3 1_555 1_555
H2_8 C4_11 1_555 1_555
H3_11 C5_11 1_555 1_555
C8_8 C9_8 1_555 1_555
C9_8 C5_11 1_555 1_555
C10_8 C4_11 1_555 1_555
H8_8 C10_8 1_555 1_555
O3_8 C8_8 1_555 1_555
O4_8 C8_8 1_555 1_555
Zn6_2 O3_8 1_555 1_555
C9_8 C10_8 1_555 1_555
C1_8 C2_8 1_555 1_555
C2_8 C3_8 1_555 1_555
C3_8 H1_8 1_555 1_555
C4_12 C3_8 1_555 1_555
H2_9 C4_12 1_555 1_555
C5_12 C2_8 1_555 1_555
H3_12 C5_12 1_555 1_555
O2_8 C1_8 1_555 1_555
C1_8 O5_4 1_555 1_555
Zn4_2 N3_5 1_555 1_555
C6_5 N11_4 1_555 1_555
C7_5 N2_3 1_555 1_555
N11_4 N2_3 1_555 1_555
N2_3 Zn4_3 1_555 1_555
N3_5 C6_5 1_555 1_555
N4_5 C6_5 1_555 1_555
H4_5 N4_5 1_555 1_555
H5_5 N4_5 1_555 1_555
N5_5 C7_5 1_555 1_555
H6_5 N5_5 1_555 1_555
H7_5 N5_5 1_555 1_555
Zn4_4 N8_5 1_555 1_555
C11_5 N12_3 1_555 1_555
C12_5 N7_5 1_555 1_555
N12_3 N7_5 1_555 1_555
N7_5 Zn4_2 1_555 1_555
N8_5 C11_5 1_555 1_555
N9_5 C11_5 1_555 1_555
H9_5 N9_5 1_555 1_555
H10_5 N9_5 1_555 1_555
N10_5 C12_5 1_555 1_555
H11_5 N10_5 1_555 1_555
H12_5 N10_5 1_555 1_555
N13_3 Zn4_4 1_555 1_555
C7_5 N3_5 1_555 1_555
C12_5 N8_5 1_555 1_555
Zn4 N3_6 1_555 1_555
C6_6 N11_3 1_555 1_555
C7_6 N13_3 1_555 1_555
N11_3 N13_3 1_555 1_555
N3_6 C6_6 1_555 1_555
N4_6 C6_6 1_555 1_555
H4_6 N4_6 1_555 1_555
H5_6 N4_6 1_555 1_555
N5_6 C7_6 1_555 1_555
H6_6 N5_6 1_555 1_555
H7_6 N5_6 1_555 1_555
Zn4_3 N8_6 1_555 1_555
C11_6 N12_4 1_555 1_555
C12_6 N7_6 1_555 1_555
N12_4 N7_6 1_555 1_555
N7_6 Zn4 1_555 1_555
N8_6 C11_6 1_555 1_555
N9_6 C11_6 1_555 1_555
H9_6 N9_6 1_555 1_555
H10_6 N9_6 1_555 1_555
N10_6 C12_6 1_555 1_555
H11_6 N10_6 1_555 1_555
H12_6 N10_6 1_555 1_555
C7_6 N3_6 1_555 1_555
C12_6 N8_6 1_555 1_555
Zn6_2 N8_7 1_555 1_555
H10_7 N9_7 1_555 1_555
N13_4 Zn6_2 1_555 1_555
Zn5 N3_7 1_555 1_555
H5_7 N4_7 1_555 1_555
C11_7 N12 1_555 1_555
C12_7 N7_7 1_555 1_555
N12 N7_7 1_555 1_555
N7_7 Zn5 1_555 1_555
N10_7 C12_7 1_555 1_555
H11_7 N10_7 1_555 1_555
C6_7 N11_2 1_555 1_555
C7_7 N2_4 1_555 1_555
N11_2 N2_4 1_555 1_555
N2_4 Zn6 1_555 1_555
N5_7 C7_7 1_555 1_555
H6_7 N5_7 1_555 1_555
C6_8 N11 1_555 1_555
C7_8 N13_4 1_555 1_555
N11 N13_4 1_555 1_555
N5_8 C7_8 1_555 1_555
H6_8 N5_8 1_555 1_555
Zn5_2 N3_8 1_555 1_555
H5_8 N4_8 1_555 1_555
C11_8 N12_2 1_555 1_555
C12_8 N7_8 1_555 1_555
N12_2 N7_8 1_555 1_555
N7_8 Zn5_2 1_555 1_555
N10_8 C12_8 1_555 1_555
H11_8 N10_8 1_555 1_555
Zn6 N8_8 1_555 1_555
H10_8 N9_8 1_555 1_555

#END
