
###############################################################################
#
# This file contains modified crystal structure data generated from the
# MOF subset of the Cambridge Structural Database (CSD) v543 
# hosted by the Cambridge Crystallographic Data Centre (CCDC).
#
# This work is licensed under the Creative Commons
# Attribution-NonCommercial-ShareAlike 4.0 International License.
# To view a copy of this license, visit
# http://creativecommons.org/licenses/by-nc-sa/4.0/
# or send a letter to
# Creative Commons, PO Box 1866, Mountain View, CA 94042, USA.
#
# CIF created using the CSD Python API on 29 September 2022
# The structure has been converted into the P1 space group
# The structure has a 3D framework
# The original CSD entry QIFMEA is in the orthorhombic crystal system
# The framework has been calculated to contain at least 10.0% void space
# The void calculation uses a probe of radius 1.32A, grid spacing 0.4
# H atom positions have been added when not included in the experimental data
#
###############################################################################

data_QIFMEA
_chemical_formula_moiety         '(C532 H352 Dy22 N16 O148)n'
_symmetry_cell_setting           triclinic
_symmetry_space_group_name_H-M   'P 1'
_symmetry_Int_Tables_number      1
_space_group_name_Hall           'P 1'
loop_
_symmetry_equiv_pos_site_id
_symmetry_equiv_pos_as_xyz
1 x,y,z
_cell_length_a                   8.4511(5)
_cell_length_b                   34.850(2)
_cell_length_c                   52.287(3)
_cell_angle_alpha                90
_cell_angle_beta                 90
_cell_angle_gamma                90
_cell_volume                     15399.6
loop_
_atom_site_label
_atom_site_type_symbol
_atom_site_fract_x
_atom_site_fract_y
_atom_site_fract_z
Dy7 Dy 0.000000 0.000000 0.44237(2)
Dy7_2 Dy 0.000000 1.000000 0.44237(2)
Dy1 Dy 0.250000 0.250000 0.69237(2)
C1 C 0.375(2) 0.2980(5) 0.4884(4)
H1 H 0.318572 0.319692 0.483461
C2 C 0.385(2) 0.2899(5) 0.5141(4)
C3 C 0.466(2) 0.2572(5) 0.5211(4)
H2 H 0.471763 0.250359 0.538259
C4 C 0.543(2) 0.2335(5) 0.5024(4)
C5 C 0.532(2) 0.2437(5) 0.4763(4)
H3 H 0.583135 0.229065 0.463929
C6 C 0.445(2) 0.2760(5) 0.4695(4)
C7 C 0.423(2) 0.2843(5) 0.4413(4)
C8 C 0.384(2) 0.3248(5) 0.4342(4)
C9 C 0.450(2) 0.3560(5) 0.4464(4)
H4 H 0.525710 0.352517 0.459051
C10 C 0.403(2) 0.3919(5) 0.4397(4)
H5 H 0.446255 0.412824 0.448179
C11 C 0.295(2) 0.3984(5) 0.4210(4)
C12 C 0.227(2) 0.3678(5) 0.4078(4)
H6 H 0.150381 0.372060 0.395280
C13 C 0.277(2) 0.3303(5) 0.4140(4)
H7 H 0.239402 0.309377 0.404682
C14 C 0.225(2) 0.4390(5) 0.4159(4)
C15 C 0.298(2) 0.3113(5) 0.5322(4)
C16 C 0.330(2) 0.3075(5) 0.5605(4)
C17 C 0.484(2) 0.3045(5) 0.5698(4)
H8 H 0.568109 0.305394 0.558383
C18 C 0.513(2) 0.3000(5) 0.5957(4)
H9 H 0.615920 0.299866 0.601880
C19 C 0.387(2) 0.2959(5) 0.6122(4)
C20 C 0.231(2) 0.3005(5) 0.6038(4)
H10 H 0.147618 0.299861 0.615398
C21 C 0.202(2) 0.3063(5) 0.5773(4)
H11 H 0.098942 0.309150 0.571204
C22 C 0.415(2) 0.2879(5) 0.6400(4)
C23 C 0.633(2) 0.2006(5) 0.5115(4)
C24 C 0.648(2) 0.1642(5) 0.4957(4)
C25 C 0.769(2) 0.1396(5) 0.5018(4)
H12 H 0.841883 0.145998 0.514455
C26 C 0.780(2) 0.1046(5) 0.4887(4)
H13 H 0.864659 0.088144 0.491952
C27 C 0.669(2) 0.0946(5) 0.4712(4)
C28 C 0.551(2) 0.1193(5) 0.4658(4)
H14 H 0.475391 0.112539 0.453616
C29 C 0.538(2) 0.1544(5) 0.4778(4)
H15 H 0.455873 0.171054 0.473846
C30 C 0.678(2) 0.0582(5) 0.4575(3)
C31 C 0.413(5) 0.1884(12) 0.7795(8)
C32 C 0.685(5) 0.1963(12) 0.7694(7)
C33 C 0.500(4) 0.2163(13) 0.7390(8)
O1 O 0.434(2) 0.2592(3) 0.4261(3)
O2 O 0.2680(15) 0.4670(3) 0.4303(5)
O3 O 0.1187(15) 0.4428(4) 0.4002(3)
O4 O 0.1899(18) 0.3343(4) 0.5261(3)
O5 O 0.5571(16) 0.2785(4) 0.6448(3)
O6 O 0.308(2) 0.2875(5) 0.6557(3)
O7 O 0.6882(16) 0.2005(4) 0.5329(3)
O8 O 0.5564(19) 0.0419(4) 0.4496(3)
O9 O 0.8172(18) 0.0424(4) 0.4571(3)
O10 O 0.3582(18) 0.2185(4) 0.7302(3)
N1 N 0.527(3) 0.2013(8) 0.7609(5)
Dy2 Dy 0.000000 0.500000 0.41693(2)
C64 C 0.087(5) 0.3116(12) 0.7795(8)
C66 C 0.000(4) 0.2837(13) 0.7390(8)
O20 O 0.1418(18) 0.2815(4) 0.7302(3)
Dy5 Dy 0.500000 0.500000 0.44237(2)
Dy7_3 Dy 1.000000 0.000000 0.44237(2)
O21 O 0.0180(15) 0.2830(3) 0.6803(5)
O22 O 0.4820(15) 0.2170(3) 0.6803(5)
O24 O 0.1929(16) 0.5285(4) 0.3948(3)
O25 O 0.192(2) 0.2125(5) 0.6557(3)
O26 O 0.0564(19) 0.5419(4) 0.4496(3)
O28 O 0.0672(18) 0.2076(4) 0.7071(3)
O29 O 0.4328(18) 0.2924(4) 0.7071(3)
Dy10 Dy 0.500000 -0.000000 0.41693(2)
Dy11 Dy 0.750000 0.250000 0.66693(2)
H31 H 0.59817 0.227326 0.727686
H32 H 0.706709 0.166 0.773091
H33 H 0.766298 0.206442 0.754723
H34 H 0.703331 0.212617 0.786913
H35 H 0.42775 0.204615 0.797143
H36 H 0.293963 0.192836 0.772093
H37 H 0.431127 0.157998 0.783321
H41 H 0.0722503 0.295385 0.797143
H42 H 0.206037 0.307164 0.772093
H43 H 0.0688727 0.342002 0.783321
Dy7_4 Dy 1.000000 1.000000 0.44237(2)
Dy10_2 Dy 0.500000 1.000000 0.41693(2)
Dy2_2 Dy 1.000000 0.500000 0.41693(2)
C34 C 0.625(2) 0.7020(5) 0.4884(4)
H16 H 0.681428 0.680308 0.483461
C35 C 0.615(2) 0.7101(5) 0.5141(4)
C36 C 0.534(2) 0.7428(5) 0.5211(4)
H17 H 0.528237 0.749641 0.538259
C37 C 0.457(2) 0.7665(5) 0.5024(4)
C38 C 0.468(2) 0.7563(5) 0.4763(4)
H18 H 0.416865 0.770935 0.463929
C39 C 0.555(2) 0.7240(5) 0.4695(4)
C40 C 0.577(2) 0.7157(5) 0.4413(4)
C41 C 0.616(2) 0.6752(5) 0.4342(4)
C42 C 0.550(2) 0.6440(5) 0.4464(4)
H19 H 0.474290 0.647483 0.459051
C43 C 0.597(2) 0.6081(5) 0.4397(4)
H20 H 0.553745 0.587176 0.448179
C44 C 0.705(2) 0.6016(5) 0.4210(4)
C45 C 0.773(2) 0.6322(5) 0.4078(4)
H21 H 0.849619 0.627940 0.395280
C46 C 0.723(2) 0.6697(5) 0.4140(4)
H22 H 0.760598 0.690623 0.404682
C47 C 0.775(2) 0.5610(5) 0.4159(4)
C48 C 0.702(2) 0.6887(5) 0.5322(4)
C49 C 0.670(2) 0.6925(5) 0.5605(4)
C50 C 0.516(2) 0.6955(5) 0.5698(4)
H23 H 0.431891 0.694606 0.558383
C51 C 0.487(2) 0.7000(5) 0.5957(4)
H24 H 0.384080 0.700134 0.601880
C52 C 0.613(2) 0.7041(5) 0.6122(4)
C53 C 0.769(2) 0.6995(5) 0.6038(4)
H25 H 0.852382 0.700139 0.615398
C54 C 0.798(2) 0.6937(5) 0.5773(4)
H26 H 0.901058 0.690850 0.571204
C55 C 0.585(2) 0.7121(5) 0.6400(4)
C56 C 0.367(2) 0.7994(5) 0.5115(4)
C57 C 0.352(2) 0.8358(5) 0.4957(4)
C58 C 0.231(2) 0.8604(5) 0.5018(4)
H27 H 0.158117 0.854002 0.514455
C59 C 0.220(2) 0.8954(5) 0.4887(4)
H28 H 0.135341 0.911856 0.491952
C60 C 0.331(2) 0.9054(5) 0.4712(4)
C61 C 0.449(2) 0.8807(5) 0.4658(4)
H29 H 0.524609 0.887461 0.453616
C62 C 0.462(2) 0.8456(5) 0.4778(4)
H30 H 0.544127 0.828946 0.473846
C63 C 0.322(2) 0.9418(5) 0.4575(3)
O11 O 0.566(2) 0.7408(3) 0.4261(3)
O12 O 0.7320(15) 0.5330(3) 0.4303(5)
O13 O 0.8813(15) 0.5572(4) 0.4002(3)
O14 O 0.8101(18) 0.6657(4) 0.5261(3)
O15 O 0.4429(16) 0.7215(4) 0.6448(3)
O16 O 0.692(2) 0.7125(5) 0.6557(3)
O17 O 0.3118(16) 0.7995(4) 0.5329(3)
O18 O 0.4436(19) 0.9581(4) 0.4496(3)
O19 O 0.1828(18) 0.9576(4) 0.4571(3)
C65 C 0.815(5) 0.3037(12) 0.7694(7)
C66_2 C 1.000(4) 0.2837(13) 0.7390(8)
N2 N 0.973(3) 0.2987(8) 0.7609(5)
Dy3 Dy 0.750000 0.750000 0.69237(2)
O23 O 0.8071(16) 0.4715(4) 0.3948(3)
O27 O 0.9436(19) 0.4581(4) 0.4496(3)
Dy8 Dy 0.250000 0.750000 0.66693(2)
H38 H 0.793291 0.334 0.773091
H39 H 0.733702 0.293558 0.754723
H40 H 0.796669 0.287383 0.786913
H44 H 0.90183 0.272674 0.727686
C65_2 C 0.185(5) 0.6963(12) 0.7694(7)
C66_3 C 0.000(4) 0.7163(13) 0.7390(8)
N2_2 N 0.027(3) 0.7013(8) 0.7609(5)
H38_2 H 0.206709 0.666 0.773091
H39_2 H 0.266298 0.706442 0.754723
H40_2 H 0.203331 0.712617 0.786913
H44_2 H 0.0981698 0.727326 0.727686
C31_2 C 0.587(5) 0.8116(12) 0.7795(8)
C32_2 C 0.315(5) 0.8037(12) 0.7694(7)
C33_2 C 0.500(4) 0.7837(13) 0.7390(8)
O10_2 O 0.6418(18) 0.7815(4) 0.7302(3)
N1_2 N 0.473(3) 0.7987(8) 0.7609(5)
C64_2 C 0.913(5) 0.6884(12) 0.7795(8)
C66_4 C 1.000(4) 0.7163(13) 0.7390(8)
O20_2 O 0.8582(18) 0.7185(4) 0.7302(3)
O21_2 O 0.9820(15) 0.7170(3) 0.6803(5)
O22_2 O 0.5180(15) 0.7830(3) 0.6803(5)
O25_2 O 0.808(2) 0.7875(5) 0.6557(3)
O28_2 O 0.9328(18) 0.7924(4) 0.7071(3)
O29_2 O 0.5672(18) 0.7076(4) 0.7071(3)
H31_2 H 0.40183 0.772674 0.727686
H32_2 H 0.293291 0.834 0.773091
H33_2 H 0.233702 0.793558 0.754723
H34_2 H 0.296669 0.787383 0.786913
H35_2 H 0.57225 0.795385 0.797143
H36_2 H 0.706037 0.807164 0.772093
H37_2 H 0.568873 0.842002 0.783321
H41_2 H 0.92775 0.704615 0.797143
H42_2 H 0.793963 0.692836 0.772093
H43_2 H 0.931127 0.657998 0.783321
C25_2 C 0.019(2) 0.1104(5) 0.7518(4)
H12_2 H 0.091883 0.104002 0.764455
C26_2 C 0.030(2) 0.1454(5) 0.7387(4)
H13_2 H 0.114659 0.161856 0.741952
Dy11_2 Dy -0.000000 0.000000 0.91693(2)
Dy11_3 Dy -0.000000 1.000000 0.91693(2)
Dy1_2 Dy 0.500000 0.000000 0.94237(2)
C4_2 C 0.793(2) 0.0165(5) 0.7524(4)
C5_2 C 0.782(2) 0.0063(5) 0.7263(4)
H3_2 H 0.833135 0.020935 0.713929
C23_2 C 0.883(2) 0.0494(5) 0.7615(4)
C24_2 C 0.898(2) 0.0858(5) 0.7457(4)
C27_2 C 0.919(2) 0.1554(5) 0.7212(4)
C28_2 C 0.801(2) 0.1307(5) 0.7158(4)
H14_2 H 0.725391 0.137461 0.703616
C29_2 C 0.788(2) 0.0956(5) 0.7278(4)
H15_2 H 0.705873 0.078946 0.723846
C30_2 C 0.928(2) 0.1918(5) 0.7075(3)
C33_3 C 0.750(4) 0.0337(13) 0.9890(8)
O7_2 O 0.9382(16) 0.0495(4) 0.7829(3)
O8_2 O 0.8064(19) 0.2081(4) 0.6996(3)
O10_3 O 0.6082(18) 0.0315(4) 0.9802(3)
O22_3 O 0.7320(15) 0.0330(3) 0.9303(5)
O25_3 O 0.442(2) 0.0375(5) 0.9057(3)
O28_3 O 0.3172(18) 0.0424(4) 0.9571(3)
Dy11_4 Dy 1.000000 0.000000 0.91693(2)
H31_3 H 0.84817 0.0226738 0.977686
Dy1_3 Dy 0.500000 1.000000 0.94237(2)
C1_2 C 0.625(2) 0.9520(5) 0.7384(4)
H1_2 H 0.568572 0.930308 0.733461
C2_2 C 0.635(2) 0.9601(5) 0.7641(4)
C3_2 C 0.716(2) 0.9928(5) 0.7711(4)
H2_2 H 0.721763 0.999641 0.788259
C6_2 C 0.695(2) 0.9740(5) 0.7195(4)
C7_2 C 0.673(2) 0.9657(5) 0.6913(4)
C8_2 C 0.634(2) 0.9252(5) 0.6842(4)
C9_2 C 0.700(2) 0.8940(5) 0.6964(4)
H4_2 H 0.775710 0.897483 0.709051
C10_2 C 0.653(2) 0.8581(5) 0.6897(4)
H5_2 H 0.696255 0.837176 0.698179
C11_2 C 0.545(2) 0.8516(5) 0.6710(4)
C12_2 C 0.477(2) 0.8822(5) 0.6578(4)
H6_2 H 0.400381 0.877940 0.645280
C13_2 C 0.527(2) 0.9197(5) 0.6640(4)
H7_2 H 0.489402 0.940623 0.654682
C14_2 C 0.475(2) 0.8110(5) 0.6659(4)
C15_2 C 0.548(2) 0.9387(5) 0.7822(4)
C16_2 C 0.580(2) 0.9425(5) 0.8105(4)
C17_2 C 0.734(2) 0.9455(5) 0.8198(4)
H8_2 H 0.818109 0.944606 0.808383
C18_2 C 0.763(2) 0.9500(5) 0.8457(4)
H9_2 H 0.865920 0.950134 0.851880
C19_2 C 0.637(2) 0.9541(5) 0.8622(4)
C20_2 C 0.481(2) 0.9495(5) 0.8538(4)
H10_2 H 0.397618 0.950139 0.865398
C21_2 C 0.452(2) 0.9437(5) 0.8273(4)
H11_2 H 0.348942 0.940850 0.821204
C22_2 C 0.665(2) 0.9621(5) 0.8900(4)
O1_2 O 0.684(2) 0.9908(3) 0.6761(3)
O3_2 O 0.3687(15) 0.8072(4) 0.6502(3)
O4_2 O 0.4399(18) 0.9157(4) 0.7761(3)
O5_2 O 0.8071(16) 0.9715(4) 0.8948(3)
O6_2 O 0.558(2) 0.9625(5) 0.9057(3)
C45_2 C 0.023(2) 0.6178(5) 0.6578(4)
H21_2 H 0.099619 0.622060 0.645280
H22_2 H 0.010598 0.559377 0.654682
C47_2 C 0.025(2) 0.6890(5) 0.6659(4)
C53_2 C 0.019(2) 0.5505(5) 0.8538(4)
H25_2 H 0.102382 0.549861 0.865398
C54_2 C 0.048(2) 0.5563(5) 0.8273(4)
H26_2 H 0.151058 0.559150 0.821204
O13_2 O 0.1313(15) 0.6928(4) 0.6502(3)
O14_2 O 0.0601(18) 0.5843(4) 0.7761(3)
C66_5 C 0.250(4) 0.9663(13) 0.9890(8)
O20_3 O 0.3918(18) 0.9685(4) 0.9802(3)
Dy3_2 Dy 0.000000 0.500000 0.94237(2)
O21_3 O 0.2680(15) 0.9670(3) 0.9303(5)
O23_2 O 0.0571(16) 0.7785(4) 0.6448(3)
O26_2 O 0.3064(19) 0.7081(4) 0.6996(3)
O27_2 O 0.1936(19) 0.7919(4) 0.6996(3)
O29_3 O 0.6828(18) 0.9576(4) 0.9571(3)
Dy11_5 Dy 1.000000 1.000000 0.91693(2)
H44_3 H 0.15183 0.977326 0.977686
C34_2 C 0.875(2) 0.5480(5) 0.7384(4)
H16_2 H 0.931428 0.569692 0.733461
C35_2 C 0.865(2) 0.5399(5) 0.7641(4)
C36_2 C 0.784(2) 0.5072(5) 0.7711(4)
H17_2 H 0.778237 0.500359 0.788259
C37_2 C 0.707(2) 0.4835(5) 0.7524(4)
C38_2 C 0.718(2) 0.4937(5) 0.7263(4)
H18_2 H 0.666865 0.479065 0.713929
C39_2 C 0.805(2) 0.5260(5) 0.7195(4)
C40_2 C 0.827(2) 0.5343(5) 0.6913(4)
C41_2 C 0.866(2) 0.5748(5) 0.6842(4)
C42_2 C 0.800(2) 0.6060(5) 0.6964(4)
H19_2 H 0.724290 0.602517 0.709051
C43_2 C 0.847(2) 0.6419(5) 0.6897(4)
H20_2 H 0.803745 0.662824 0.698179
C44_2 C 0.955(2) 0.6484(5) 0.6710(4)
C46_2 C 0.973(2) 0.5803(5) 0.6640(4)
C48_2 C 0.952(2) 0.5613(5) 0.7822(4)
C49_2 C 0.920(2) 0.5575(5) 0.8105(4)
C50_2 C 0.766(2) 0.5545(5) 0.8198(4)
H23_2 H 0.681891 0.555394 0.808383
C51_2 C 0.737(2) 0.5500(5) 0.8457(4)
H24_2 H 0.634080 0.549866 0.851880
C52_2 C 0.863(2) 0.5459(5) 0.8622(4)
C55_2 C 0.835(2) 0.5379(5) 0.8900(4)
C56_2 C 0.617(2) 0.4506(5) 0.7615(4)
C57_2 C 0.602(2) 0.4142(5) 0.7457(4)
C58_2 C 0.481(2) 0.3896(5) 0.7518(4)
H27_2 H 0.408117 0.395998 0.764455
C59_2 C 0.470(2) 0.3546(5) 0.7387(4)
H28_2 H 0.385341 0.338144 0.741952
C60_2 C 0.581(2) 0.3446(5) 0.7212(4)
C61_2 C 0.699(2) 0.3693(5) 0.7158(4)
H29_2 H 0.774609 0.362539 0.703616
C62_2 C 0.712(2) 0.4044(5) 0.7278(4)
H30_2 H 0.794127 0.421054 0.723846
C63_2 C 0.572(2) 0.3082(5) 0.7075(3)
O11_2 O 0.816(2) 0.5092(3) 0.6761(3)
O15_2 O 0.6929(16) 0.5285(4) 0.8948(3)
O16_2 O 0.942(2) 0.5375(5) 0.9057(3)
O17_2 O 0.5618(16) 0.4505(4) 0.7829(3)
O18_2 O 0.6936(19) 0.2919(4) 0.6996(3)
Dy3_3 Dy 1.000000 0.500000 0.94237(2)
Dy8_2 Dy 0.500000 0.500000 0.91693(2)
C66_6 C 0.250(4) 0.5337(13) 0.9890(8)
O20_4 O 0.1082(18) 0.5315(4) 0.9802(3)
O21_4 O 0.2320(15) 0.5330(3) 0.9303(5)
O25_4 O 0.058(2) 0.4625(5) 0.9057(3)
O28_4 O 0.1828(18) 0.4576(4) 0.9571(3)
H44_4 H 0.34817 0.522674 0.977686
C33_4 C 0.750(4) 0.4663(13) 0.9890(8)
O10_4 O 0.8918(18) 0.4685(4) 0.9802(3)
O22_4 O 0.7680(15) 0.4670(3) 0.9303(5)
O29_4 O 0.8172(18) 0.5424(4) 0.9571(3)
H31_4 H 0.65183 0.477326 0.977686
O24_2 O 0.1929(16) 0.0285(4) 0.8948(3)
O26_3 O 0.0564(19) 0.0419(4) 0.9496(3)
Dy1_4 Dy 0.250000 0.750000 0.19237(2)
C2_3 C 0.385(2) 0.7899(5) 0.0141(4)
C3_3 C 0.466(2) 0.7572(5) 0.0211(4)
H2_3 H 0.471763 0.750359 0.038259
C4_3 C 0.543(2) 0.7335(5) 0.0024(4)
C15_3 C 0.298(2) 0.8113(5) 0.0322(4)
C16_3 C 0.330(2) 0.8075(5) 0.0605(4)
C17_3 C 0.484(2) 0.8045(5) 0.0698(4)
H8_3 H 0.568109 0.805394 0.058383
C18_3 C 0.513(2) 0.8000(5) 0.0957(4)
H9_3 H 0.615920 0.799866 0.101880
C19_3 C 0.387(2) 0.7959(5) 0.1122(4)
C20_3 C 0.231(2) 0.8005(5) 0.1038(4)
H10_3 H 0.147618 0.799861 0.115398
C21_3 C 0.202(2) 0.8063(5) 0.0773(4)
H11_3 H 0.098942 0.809150 0.071204
C22_3 C 0.415(2) 0.7879(5) 0.1400(4)
C23_3 C 0.633(2) 0.7006(5) 0.0115(4)
C25_3 C 0.769(2) 0.6396(5) 0.0018(4)
H12_3 H 0.841883 0.645998 0.014455
C31_3 C 0.413(5) 0.6884(12) 0.2795(8)
C32_3 C 0.685(5) 0.6963(12) 0.2694(7)
C33_5 C 0.500(4) 0.7163(13) 0.2390(8)
O4_3 O 0.1899(18) 0.8343(4) 0.0261(3)
O5_3 O 0.5571(16) 0.7785(4) 0.1448(3)
O6_3 O 0.308(2) 0.7875(5) 0.1557(3)
O7_3 O 0.6882(16) 0.7005(4) 0.0329(3)
O10_5 O 0.3582(18) 0.7185(4) 0.2302(3)
N1_3 N 0.527(3) 0.7013(8) 0.2609(5)
C64_3 C 0.087(5) 0.8116(12) 0.2795(8)
C66_7 C 0.000(4) 0.7837(13) 0.2390(8)
O20_5 O 0.1418(18) 0.7815(4) 0.2302(3)
O21_5 O 0.0180(15) 0.7830(3) 0.1803(5)
O22_5 O 0.4820(15) 0.7170(3) 0.1803(5)
O25_5 O 0.192(2) 0.7125(5) 0.1557(3)
O28_5 O 0.0672(18) 0.7076(4) 0.2071(3)
O29_5 O 0.4328(18) 0.7924(4) 0.2071(3)
Dy11_6 Dy 0.750000 0.750000 0.16693(2)
H31_5 H 0.59817 0.727326 0.227686
H32_3 H 0.706709 0.666 0.273091
H33_3 H 0.766298 0.706442 0.254723
H34_3 H 0.703331 0.712617 0.286913
H35_3 H 0.42775 0.704615 0.297143
H36_3 H 0.293963 0.692836 0.272093
H37_3 H 0.431127 0.657998 0.283321
H41_3 H 0.0722503 0.795385 0.297143
H42_3 H 0.206037 0.807164 0.272093
H43_3 H 0.0688727 0.842002 0.283321
C1_3 C 0.375(2) 0.7980(5) 0.9884(4)
H1_3 H 0.318572 0.819692 0.983461
C5_3 C 0.532(2) 0.7437(5) 0.9763(4)
H3_3 H 0.583135 0.729065 0.963929
C6_3 C 0.445(2) 0.7760(5) 0.9695(4)
C7_3 C 0.423(2) 0.7843(5) 0.9413(4)
C8_3 C 0.384(2) 0.8248(5) 0.9342(4)
C9_3 C 0.450(2) 0.8560(5) 0.9464(4)
H4_3 H 0.525710 0.852517 0.959051
C10_3 C 0.403(2) 0.8919(5) 0.9397(4)
H5_3 H 0.446255 0.912824 0.948179
C11_3 C 0.295(2) 0.8984(5) 0.9210(4)
C12_3 C 0.227(2) 0.8678(5) 0.9078(4)
H6_3 H 0.150381 0.872060 0.895280
C13_3 C 0.277(2) 0.8303(5) 0.9140(4)
H7_3 H 0.239402 0.809377 0.904682
C14_3 C 0.225(2) 0.9390(5) 0.9159(4)
C24_3 C 0.648(2) 0.6642(5) 0.9957(4)
C26_3 C 0.780(2) 0.6046(5) 0.9887(4)
H13_3 H 0.864659 0.588144 0.991952
C27_3 C 0.669(2) 0.5946(5) 0.9712(4)
C28_3 C 0.551(2) 0.6193(5) 0.9658(4)
H14_3 H 0.475391 0.612539 0.953616
C29_3 C 0.538(2) 0.6544(5) 0.9778(4)
H15_3 H 0.455873 0.671054 0.973846
C30_3 C 0.678(2) 0.5582(5) 0.9575(3)
O1_3 O 0.434(2) 0.7592(3) 0.9261(3)
O3_3 O 0.1187(15) 0.9428(4) 0.9002(3)
O8_3 O 0.5564(19) 0.5419(4) 0.9496(3)
C35_3 C 0.615(2) 0.2101(5) 0.0141(4)
C36_3 C 0.534(2) 0.2428(5) 0.0211(4)
H17_3 H 0.528237 0.249641 0.038259
C37_3 C 0.457(2) 0.2665(5) 0.0024(4)
C48_3 C 0.702(2) 0.1887(5) 0.0322(4)
C49_3 C 0.670(2) 0.1925(5) 0.0605(4)
C50_3 C 0.516(2) 0.1955(5) 0.0698(4)
H23_3 H 0.431891 0.194606 0.058383
C51_3 C 0.487(2) 0.2000(5) 0.0957(4)
H24_3 H 0.384080 0.200134 0.101880
C52_3 C 0.613(2) 0.2041(5) 0.1122(4)
C53_3 C 0.769(2) 0.1995(5) 0.1038(4)
H25_3 H 0.852382 0.200139 0.115398
C54_3 C 0.798(2) 0.1937(5) 0.0773(4)
H26_3 H 0.901058 0.190850 0.071204
C55_3 C 0.585(2) 0.2121(5) 0.1400(4)
C56_3 C 0.367(2) 0.2994(5) 0.0115(4)
C58_3 C 0.231(2) 0.3604(5) 0.0018(4)
H27_3 H 0.158117 0.354002 0.014455
O14_3 O 0.8101(18) 0.1657(4) 0.0261(3)
O15_3 O 0.4429(16) 0.2215(4) 0.1448(3)
O16_3 O 0.692(2) 0.2125(5) 0.1557(3)
O17_3 O 0.3118(16) 0.2995(4) 0.0329(3)
Dy3_4 Dy 0.750000 0.250000 0.19237(2)
Dy8_3 Dy 0.250000 0.250000 0.16693(2)
C34_3 C 0.625(2) 0.2020(5) 0.9884(4)
H16_3 H 0.681428 0.180308 0.983461
C38_3 C 0.468(2) 0.2563(5) 0.9763(4)
H18_3 H 0.416865 0.270935 0.963929
C39_3 C 0.555(2) 0.2240(5) 0.9695(4)
C40_3 C 0.577(2) 0.2157(5) 0.9413(4)
C41_3 C 0.616(2) 0.1752(5) 0.9342(4)
C42_3 C 0.550(2) 0.1440(5) 0.9464(4)
H19_3 H 0.474290 0.147483 0.959051
C43_3 C 0.597(2) 0.1081(5) 0.9397(4)
H20_3 H 0.553745 0.087176 0.948179
C44_3 C 0.705(2) 0.1016(5) 0.9210(4)
C45_3 C 0.773(2) 0.1322(5) 0.9078(4)
H21_3 H 0.849619 0.127940 0.895280
C46_3 C 0.723(2) 0.1697(5) 0.9140(4)
H22_3 H 0.760598 0.190623 0.904682
C47_3 C 0.775(2) 0.0610(5) 0.9159(4)
C57_3 C 0.352(2) 0.3358(5) 0.9957(4)
C59_3 C 0.220(2) 0.3954(5) 0.9887(4)
H28_3 H 0.135341 0.411856 0.991952
C60_3 C 0.331(2) 0.4054(5) 0.9712(4)
C61_3 C 0.449(2) 0.3807(5) 0.9658(4)
H29_3 H 0.524609 0.387461 0.953616
C62_3 C 0.462(2) 0.3456(5) 0.9778(4)
H30_3 H 0.544127 0.328946 0.973846
C63_3 C 0.322(2) 0.4418(5) 0.9575(3)
O11_3 O 0.566(2) 0.2408(3) 0.9261(3)
O13_3 O 0.8813(15) 0.0572(4) 0.9002(3)
O18_3 O 0.4436(19) 0.4581(4) 0.9496(3)
C65_3 C 0.815(5) 0.8037(12) 0.2694(7)
C66_8 C 1.000(4) 0.7837(13) 0.2390(8)
N2_3 N 0.973(3) 0.7987(8) 0.2609(5)
H38_3 H 0.793291 0.834 0.273091
H39_3 H 0.733702 0.793558 0.254723
H40_3 H 0.796669 0.787383 0.286913
H44_5 H 0.90183 0.772674 0.227686
O27_3 O 0.9436(19) 0.9581(4) 0.9496(3)
C65_4 C 0.185(5) 0.1963(12) 0.2694(7)
C66_9 C 0.000(4) 0.2163(13) 0.2390(8)
N2_4 N 0.027(3) 0.2013(8) 0.2609(5)
H38_4 H 0.206709 0.166 0.273091
H39_4 H 0.266298 0.206442 0.254723
H40_4 H 0.203331 0.212617 0.286913
H44_6 H 0.0981698 0.227326 0.227686
C31_4 C 0.587(5) 0.3116(12) 0.2795(8)
C32_4 C 0.315(5) 0.3037(12) 0.2694(7)
C33_6 C 0.500(4) 0.2837(13) 0.2390(8)
O10_6 O 0.6418(18) 0.2815(4) 0.2302(3)
N1_4 N 0.473(3) 0.2987(8) 0.2609(5)
C64_4 C 0.913(5) 0.1884(12) 0.2795(8)
C66_10 C 1.000(4) 0.2163(13) 0.2390(8)
O20_6 O 0.8582(18) 0.2185(4) 0.2302(3)
O21_6 O 0.9820(15) 0.2170(3) 0.1803(5)
O22_6 O 0.5180(15) 0.2830(3) 0.1803(5)
O25_6 O 0.808(2) 0.2875(5) 0.1557(3)
O28_6 O 0.9328(18) 0.2924(4) 0.2071(3)
O29_6 O 0.5672(18) 0.2076(4) 0.2071(3)
H31_6 H 0.40183 0.272674 0.227686
H32_4 H 0.293291 0.334 0.273091
H33_4 H 0.233702 0.293558 0.254723
H34_4 H 0.296669 0.287383 0.286913
H35_4 H 0.57225 0.295385 0.297143
H36_4 H 0.706037 0.307164 0.272093
H37_4 H 0.568873 0.342002 0.283321
H41_4 H 0.92775 0.204615 0.297143
H42_4 H 0.793963 0.192836 0.272093
H43_4 H 0.931127 0.157998 0.283321
C25_4 C 0.019(2) 0.6104(5) 0.2518(4)
H12_4 H 0.091883 0.604002 0.264455
C26_4 C 0.030(2) 0.6454(5) 0.2387(4)
H13_4 H 0.114659 0.661856 0.241952
H33_5 H 0.0162982 0.543558 0.504723
C1_4 C 0.625(2) 0.4520(5) 0.2384(4)
H1_4 H 0.568572 0.430308 0.233461
C2_4 C 0.635(2) 0.4601(5) 0.2641(4)
C3_4 C 0.716(2) 0.4928(5) 0.2711(4)
H2_4 H 0.721763 0.499641 0.288259
C4_4 C 0.793(2) 0.5165(5) 0.2524(4)
C5_4 C 0.782(2) 0.5063(5) 0.2263(4)
H3_4 H 0.833135 0.520935 0.213929
C6_4 C 0.695(2) 0.4740(5) 0.2195(4)
C7_4 C 0.673(2) 0.4657(5) 0.1913(4)
C8_4 C 0.634(2) 0.4252(5) 0.1842(4)
C9_4 C 0.700(2) 0.3940(5) 0.1964(4)
H4_4 H 0.775710 0.397483 0.209051
C10_4 C 0.653(2) 0.3581(5) 0.1897(4)
H5_4 H 0.696255 0.337176 0.198179
C11_4 C 0.545(2) 0.3516(5) 0.1710(4)
C12_4 C 0.477(2) 0.3822(5) 0.1578(4)
H6_4 H 0.400381 0.377940 0.145280
C13_4 C 0.527(2) 0.4197(5) 0.1640(4)
H7_4 H 0.489402 0.440623 0.154682
C14_4 C 0.475(2) 0.3110(5) 0.1659(4)
C15_4 C 0.548(2) 0.4387(5) 0.2822(4)
C16_4 C 0.580(2) 0.4425(5) 0.3105(4)
C17_4 C 0.734(2) 0.4455(5) 0.3198(4)
H8_4 H 0.818109 0.444606 0.308383
C18_4 C 0.763(2) 0.4500(5) 0.3457(4)
H9_4 H 0.865920 0.450134 0.351880
C19_4 C 0.637(2) 0.4541(5) 0.3622(4)
C20_4 C 0.481(2) 0.4495(5) 0.3538(4)
H10_4 H 0.397618 0.450139 0.365398
C21_4 C 0.452(2) 0.4437(5) 0.3273(4)
H11_4 H 0.348942 0.440850 0.321204
C22_4 C 0.665(2) 0.4621(5) 0.3900(4)
C23_4 C 0.883(2) 0.5494(5) 0.2615(4)
C24_4 C 0.898(2) 0.5858(5) 0.2457(4)
C27_4 C 0.919(2) 0.6554(5) 0.2212(4)
C28_4 C 0.801(2) 0.6307(5) 0.2158(4)
H14_4 H 0.725391 0.637461 0.203616
C29_4 C 0.788(2) 0.5956(5) 0.2278(4)
H15_4 H 0.705873 0.578946 0.223846
C30_4 C 0.928(2) 0.6918(5) 0.2075(3)
C31_5 C 0.663(5) 0.5616(12) 0.5295(8)
C32_5 C 0.935(5) 0.5537(12) 0.5194(7)
C33_7 C 0.750(4) 0.5337(13) 0.4890(8)
O1_4 O 0.684(2) 0.4908(3) 0.1761(3)
O3_4 O 0.3687(15) 0.3072(4) 0.1502(3)
O4_4 O 0.4399(18) 0.4157(4) 0.2761(3)
O6_4 O 0.558(2) 0.4625(5) 0.4057(3)
O7_4 O 0.9382(16) 0.5495(4) 0.2829(3)
O8_4 O 0.8064(19) 0.7081(4) 0.1996(3)
O10_7 O 0.6082(18) 0.5315(4) 0.4802(3)
N1_5 N 0.777(3) 0.5487(8) 0.5109(5)
C45_4 C 0.023(2) 0.1178(5) 0.1578(4)
H21_4 H 0.099619 0.122060 0.145280
H22_4 H 0.010598 0.059377 0.154682
C47_4 C 0.025(2) 0.1890(5) 0.1659(4)
C53_4 C 0.019(2) 0.0505(5) 0.3538(4)
H25_4 H 0.102382 0.049861 0.365398
C54_4 C 0.048(2) 0.0563(5) 0.3273(4)
H26_4 H 0.151058 0.059150 0.321204
O13_4 O 0.1313(15) 0.1928(4) 0.1502(3)
O14_4 O 0.0601(18) 0.0843(4) 0.2761(3)
C64_5 C 0.337(5) 0.4384(12) 0.5295(8)
C65_5 C 0.065(5) 0.4463(12) 0.5194(7)
C66_11 C 0.250(4) 0.4663(13) 0.4890(8)
O20_7 O 0.3918(18) 0.4685(4) 0.4802(3)
N2_5 N 0.223(3) 0.4513(8) 0.5109(5)
O23_3 O 0.0571(16) 0.2785(4) 0.1448(3)
O25_7 O 0.442(2) 0.5375(5) 0.4057(3)
O26_4 O 0.3064(19) 0.2081(4) 0.1996(3)
O27_4 O 0.1936(19) 0.2919(4) 0.1996(3)
O28_7 O 0.3172(18) 0.5424(4) 0.4571(3)
O29_7 O 0.6828(18) 0.4576(4) 0.4571(3)
H31_7 H 0.84817 0.522674 0.477686
H32_5 H 0.956709 0.584 0.523091
H34_5 H 0.953331 0.537383 0.536913
H35_5 H 0.67775 0.545385 0.547143
H36_5 H 0.543963 0.557164 0.522093
H37_5 H 0.681127 0.592002 0.533321
H38_5 H 0.0432915 0.416 0.523091
H40_5 H 0.0466691 0.462617 0.536913
H41_5 H 0.32225 0.454615 0.547143
H42_5 H 0.456037 0.442836 0.522093
H43_5 H 0.318873 0.407998 0.533321
H44_7 H 0.15183 0.477326 0.477686
C34_4 C 0.875(2) 0.0480(5) 0.2384(4)
H16_4 H 0.931428 0.069692 0.233461
C35_4 C 0.865(2) 0.0399(5) 0.2641(4)
C36_4 C 0.784(2) 0.0072(5) 0.2711(4)
H17_4 H 0.778237 0.000359 0.288259
C39_4 C 0.805(2) 0.0260(5) 0.2195(4)
C40_4 C 0.827(2) 0.0343(5) 0.1913(4)
C41_4 C 0.866(2) 0.0748(5) 0.1842(4)
C42_4 C 0.800(2) 0.1060(5) 0.1964(4)
H19_4 H 0.724290 0.102517 0.209051
C43_4 C 0.847(2) 0.1419(5) 0.1897(4)
H20_4 H 0.803745 0.162824 0.198179
C44_4 C 0.955(2) 0.1484(5) 0.1710(4)
C46_4 C 0.973(2) 0.0803(5) 0.1640(4)
C48_4 C 0.952(2) 0.0613(5) 0.2822(4)
C49_4 C 0.920(2) 0.0575(5) 0.3105(4)
C50_4 C 0.766(2) 0.0545(5) 0.3198(4)
H23_4 H 0.681891 0.055394 0.308383
C51_4 C 0.737(2) 0.0500(5) 0.3457(4)
H24_4 H 0.634080 0.049866 0.351880
C52_4 C 0.863(2) 0.0459(5) 0.3622(4)
C55_4 C 0.835(2) 0.0379(5) 0.3900(4)
O11_4 O 0.816(2) 0.0092(3) 0.1761(3)
O15_4 O 0.6929(16) 0.0285(4) 0.3948(3)
O16_4 O 0.942(2) 0.0375(5) 0.4057(3)
H39_5 H 0.983702 0.456442 0.504723
C37_4 C 0.707(2) 0.9835(5) 0.2524(4)
C38_4 C 0.718(2) 0.9937(5) 0.2263(4)
H18_4 H 0.666865 0.979065 0.213929
C56_4 C 0.617(2) 0.9506(5) 0.2615(4)
C57_4 C 0.602(2) 0.9142(5) 0.2457(4)
C58_4 C 0.481(2) 0.8896(5) 0.2518(4)
H27_4 H 0.408117 0.895998 0.264455
C59_4 C 0.470(2) 0.8546(5) 0.2387(4)
H28_4 H 0.385341 0.838144 0.241952
C60_4 C 0.581(2) 0.8446(5) 0.2212(4)
C61_4 C 0.699(2) 0.8693(5) 0.2158(4)
H29_4 H 0.774609 0.862539 0.203616
C62_4 C 0.712(2) 0.9044(5) 0.2278(4)
H30_4 H 0.794127 0.921054 0.223846
C63_4 C 0.572(2) 0.8082(5) 0.2075(3)
O17_4 O 0.5618(16) 0.9505(4) 0.2829(3)
O18_4 O 0.6936(19) 0.7919(4) 0.1996(3)
C64_6 C 0.163(5) 0.0616(12) 0.5295(8)
C65_6 C 0.435(5) 0.0537(12) 0.5194(7)
C66_12 C 0.250(4) 0.0337(13) 0.4890(8)
O20_8 O 0.1082(18) 0.0315(4) 0.4802(3)
N2_6 N 0.277(3) 0.0487(8) 0.5109(5)
O21_7 O 0.2320(15) 0.0330(3) 0.4303(5)
H38_6 H 0.456709 0.0839996 0.523091
H39_6 H 0.516298 0.0435576 0.504723
H40_6 H 0.453331 0.0373826 0.536913
H41_6 H 0.17775 0.0453846 0.547143
H42_6 H 0.043963 0.0571635 0.522093
H43_6 H 0.181127 0.0920016 0.533321
H44_8 H 0.34817 0.0226738 0.477686
O25_8 O 0.058(2) 0.9625(5) 0.4057(3)
C31_6 C 0.837(5) 0.9384(12) 0.5295(8)
C32_6 C 0.565(5) 0.9463(12) 0.5194(7)
C33_8 C 0.750(4) 0.9663(13) 0.4890(8)
O10_8 O 0.8918(18) 0.9685(4) 0.4802(3)
N1_6 N 0.723(3) 0.9513(8) 0.5109(5)
O22_7 O 0.7680(15) 0.9670(3) 0.4303(5)
H31_8 H 0.65183 0.977326 0.477686
H32_6 H 0.543291 0.916 0.523091
H33_6 H 0.483702 0.956442 0.504723
H34_6 H 0.546669 0.962617 0.536913
H35_6 H 0.82225 0.954615 0.547143
H36_6 H 0.956037 0.942836 0.522093
H37_6 H 0.818873 0.907998 0.533321
C4_5 C 0.043(2) 0.2335(5) 0.0024(4)
H8_5 H 0.068109 0.305394 0.058383
C18_5 C 0.013(2) 0.3000(5) 0.0957(4)
H9_5 H 0.115920 0.299866 0.101880
C23_5 C 0.133(2) 0.2006(5) 0.0115(4)
C25_5 C 0.269(2) 0.1396(5) 0.0018(4)
H12_5 H 0.341883 0.145998 0.014455
O7_5 O 0.1882(16) 0.2005(4) 0.0329(3)
C5_5 C 0.032(2) 0.2437(5) 0.9763(4)
H3_5 H 0.083135 0.229065 0.963929
H4_5 H 0.025710 0.352517 0.959051
C24_5 C 0.148(2) 0.1642(5) 0.9957(4)
C26_5 C 0.280(2) 0.1046(5) 0.9887(4)
H13_5 H 0.364659 0.088144 0.991952
C27_5 C 0.169(2) 0.0946(5) 0.9712(4)
C28_5 C 0.051(2) 0.1193(5) 0.9658(4)
C29_5 C 0.038(2) 0.1544(5) 0.9778(4)
C30_5 C 0.178(2) 0.0582(5) 0.9575(3)
C2_5 C 0.885(2) 0.2899(5) 0.0141(4)
C3_5 C 0.966(2) 0.2572(5) 0.0211(4)
H2_5 H 0.971763 0.250359 0.038259
C15_5 C 0.798(2) 0.3113(5) 0.0322(4)
C16_5 C 0.830(2) 0.3075(5) 0.0605(4)
C17_5 C 0.984(2) 0.3045(5) 0.0698(4)
C19_5 C 0.887(2) 0.2959(5) 0.1122(4)
C20_5 C 0.731(2) 0.3005(5) 0.1038(4)
H10_5 H 0.647618 0.299861 0.115398
C21_5 C 0.702(2) 0.3063(5) 0.0773(4)
H11_5 H 0.598942 0.309150 0.071204
C22_5 C 0.915(2) 0.2879(5) 0.1400(4)
O4_5 O 0.6899(18) 0.3343(4) 0.0261(3)
C35_5 C 0.115(2) 0.7101(5) 0.0141(4)
C36_5 C 0.034(2) 0.7428(5) 0.0211(4)
H17_5 H 0.028237 0.749641 0.038259
C48_5 C 0.202(2) 0.6887(5) 0.0322(4)
C49_5 C 0.170(2) 0.6925(5) 0.0605(4)
C50_5 C 0.016(2) 0.6955(5) 0.0698(4)
C52_5 C 0.113(2) 0.7041(5) 0.1122(4)
C53_5 C 0.269(2) 0.6995(5) 0.1038(4)
H25_5 H 0.352382 0.700139 0.115398
C54_5 C 0.298(2) 0.6937(5) 0.0773(4)
H26_5 H 0.401058 0.690850 0.071204
C55_5 C 0.085(2) 0.7121(5) 0.1400(4)
O14_5 O 0.3101(18) 0.6657(4) 0.0261(3)
C1_5 C 0.875(2) 0.2980(5) 0.9884(4)
H1_5 H 0.818572 0.319692 0.983461
C6_5 C 0.945(2) 0.2760(5) 0.9695(4)
C7_5 C 0.923(2) 0.2843(5) 0.9413(4)
C8_5 C 0.884(2) 0.3248(5) 0.9342(4)
C9_5 C 0.950(2) 0.3560(5) 0.9464(4)
C10_5 C 0.903(2) 0.3919(5) 0.9397(4)
H5_5 H 0.946255 0.412824 0.948179
C11_5 C 0.795(2) 0.3984(5) 0.9210(4)
C12_5 C 0.727(2) 0.3678(5) 0.9078(4)
H6_5 H 0.650381 0.372060 0.895280
C13_5 C 0.777(2) 0.3303(5) 0.9140(4)
H7_5 H 0.739402 0.309377 0.904682
C14_5 C 0.725(2) 0.4390(5) 0.9159(4)
H14_5 H 0.975391 0.112539 0.953616
H15_5 H 0.955873 0.171054 0.973846
O1_5 O 0.934(2) 0.2592(3) 0.9261(3)
O3_5 O 0.6187(15) 0.4428(4) 0.9002(3)
C34_5 C 0.125(2) 0.7020(5) 0.9884(4)
H16_5 H 0.181428 0.680308 0.983461
C39_5 C 0.055(2) 0.7240(5) 0.9695(4)
C40_5 C 0.077(2) 0.7157(5) 0.9413(4)
C41_5 C 0.116(2) 0.6752(5) 0.9342(4)
C42_5 C 0.050(2) 0.6440(5) 0.9464(4)
C43_5 C 0.097(2) 0.6081(5) 0.9397(4)
H20_5 H 0.053745 0.587176 0.948179
C44_5 C 0.205(2) 0.6016(5) 0.9210(4)
C45_5 C 0.273(2) 0.6322(5) 0.9078(4)
H21_5 H 0.349619 0.627940 0.895280
C46_5 C 0.223(2) 0.6697(5) 0.9140(4)
H22_5 H 0.260598 0.690623 0.904682
C47_5 C 0.275(2) 0.5610(5) 0.9159(4)
H29_5 H 0.024609 0.887461 0.953616
H30_5 H 0.044127 0.828946 0.973846
O11_5 O 0.066(2) 0.7408(3) 0.9261(3)
O13_5 O 0.3813(15) 0.5572(4) 0.9002(3)
O23_4 O 0.3071(16) 0.4715(4) 0.8948(3)
C37_5 C 0.957(2) 0.7665(5) 0.0024(4)
H23_5 H 0.931891 0.694606 0.058383
C51_5 C 0.987(2) 0.7000(5) 0.0957(4)
H24_5 H 0.884080 0.700134 0.101880
C56_5 C 0.867(2) 0.7994(5) 0.0115(4)
C58_5 C 0.731(2) 0.8604(5) 0.0018(4)
H27_5 H 0.658117 0.854002 0.014455
O15_5 O 0.9429(16) 0.7215(4) 0.1448(3)
O17_5 O 0.8118(16) 0.7995(4) 0.0329(3)
C38_5 C 0.968(2) 0.7563(5) 0.9763(4)
H18_5 H 0.916865 0.770935 0.963929
H19_5 H 0.974290 0.647483 0.959051
C57_5 C 0.852(2) 0.8358(5) 0.9957(4)
C59_5 C 0.720(2) 0.8954(5) 0.9887(4)
H28_5 H 0.635341 0.911856 0.991952
C60_5 C 0.831(2) 0.9054(5) 0.9712(4)
C61_5 C 0.949(2) 0.8807(5) 0.9658(4)
C62_5 C 0.962(2) 0.8456(5) 0.9778(4)
C63_5 C 0.822(2) 0.9418(5) 0.9575(3)
C4_6 C 0.293(2) 0.0165(5) 0.2524(4)
C5_6 C 0.282(2) 0.0063(5) 0.2263(4)
H3_6 H 0.333135 0.020935 0.213929
C23_6 C 0.383(2) 0.0494(5) 0.2615(4)
C24_6 C 0.398(2) 0.0858(5) 0.2457(4)
C25_6 C 0.519(2) 0.1104(5) 0.2518(4)
H12_6 H 0.591883 0.104002 0.264455
C26_6 C 0.530(2) 0.1454(5) 0.2387(4)
H13_6 H 0.614659 0.161856 0.241952
C27_6 C 0.419(2) 0.1554(5) 0.2212(4)
C28_6 C 0.301(2) 0.1307(5) 0.2158(4)
H14_6 H 0.225391 0.137461 0.203616
C29_6 C 0.288(2) 0.0956(5) 0.2278(4)
H15_6 H 0.205873 0.078946 0.223846
C30_6 C 0.428(2) 0.1918(5) 0.2075(3)
O7_6 O 0.4382(16) 0.0495(4) 0.2829(3)
C1_6 C 0.125(2) 0.9520(5) 0.2384(4)
H1_6 H 0.068572 0.930308 0.233461
C2_6 C 0.135(2) 0.9601(5) 0.2641(4)
C3_6 C 0.216(2) 0.9928(5) 0.2711(4)
H2_6 H 0.221763 0.999641 0.288259
C6_6 C 0.195(2) 0.9740(5) 0.2195(4)
C7_6 C 0.173(2) 0.9657(5) 0.1913(4)
C8_6 C 0.134(2) 0.9252(5) 0.1842(4)
C9_6 C 0.200(2) 0.8940(5) 0.1964(4)
H4_6 H 0.275710 0.897483 0.209051
C10_6 C 0.153(2) 0.8581(5) 0.1897(4)
H5_6 H 0.196255 0.837176 0.198179
C11_6 C 0.045(2) 0.8516(5) 0.1710(4)
C13_6 C 0.027(2) 0.9197(5) 0.1640(4)
C15_6 C 0.048(2) 0.9387(5) 0.2822(4)
C16_6 C 0.080(2) 0.9425(5) 0.3105(4)
C17_6 C 0.234(2) 0.9455(5) 0.3198(4)
H8_6 H 0.318109 0.944606 0.308383
C18_6 C 0.263(2) 0.9500(5) 0.3457(4)
H9_6 H 0.365920 0.950134 0.351880
C19_6 C 0.137(2) 0.9541(5) 0.3622(4)
C22_6 C 0.165(2) 0.9621(5) 0.3900(4)
O1_6 O 0.184(2) 0.9908(3) 0.1761(3)
O5_4 O 0.3071(16) 0.9715(4) 0.3948(3)
C12_6 C 0.977(2) 0.8822(5) 0.1578(4)
H6_6 H 0.900381 0.877940 0.145280
H7_6 H 0.989402 0.940623 0.154682
C14_6 C 0.975(2) 0.8110(5) 0.1659(4)
C20_6 C 0.981(2) 0.9495(5) 0.3538(4)
H10_6 H 0.897618 0.950139 0.365398
C21_6 C 0.952(2) 0.9437(5) 0.3273(4)
H11_6 H 0.848942 0.940850 0.321204
O3_6 O 0.8687(15) 0.8072(4) 0.1502(3)
O4_6 O 0.9399(18) 0.9157(4) 0.2761(3)
C34_6 C 0.375(2) 0.5480(5) 0.2384(4)
H16_6 H 0.431428 0.569692 0.233461
C35_6 C 0.365(2) 0.5399(5) 0.2641(4)
C36_6 C 0.284(2) 0.5072(5) 0.2711(4)
H17_6 H 0.278237 0.500359 0.288259
C37_6 C 0.207(2) 0.4835(5) 0.2524(4)
C38_6 C 0.218(2) 0.4937(5) 0.2263(4)
H18_6 H 0.166865 0.479065 0.213929
C39_6 C 0.305(2) 0.5260(5) 0.2195(4)
C40_6 C 0.327(2) 0.5343(5) 0.1913(4)
C41_6 C 0.366(2) 0.5748(5) 0.1842(4)
C42_6 C 0.300(2) 0.6060(5) 0.1964(4)
H19_6 H 0.224290 0.602517 0.209051
C43_6 C 0.347(2) 0.6419(5) 0.1897(4)
H20_6 H 0.303745 0.662824 0.198179
C44_6 C 0.455(2) 0.6484(5) 0.1710(4)
C45_6 C 0.523(2) 0.6178(5) 0.1578(4)
H21_6 H 0.599619 0.622060 0.145280
C46_6 C 0.473(2) 0.5803(5) 0.1640(4)
H22_6 H 0.510598 0.559377 0.154682
C47_6 C 0.525(2) 0.6890(5) 0.1659(4)
C48_6 C 0.452(2) 0.5613(5) 0.2822(4)
C49_6 C 0.420(2) 0.5575(5) 0.3105(4)
C50_6 C 0.266(2) 0.5545(5) 0.3198(4)
H23_6 H 0.181891 0.555394 0.308383
C51_6 C 0.237(2) 0.5500(5) 0.3457(4)
H24_6 H 0.134080 0.549866 0.351880
C52_6 C 0.363(2) 0.5459(5) 0.3622(4)
C53_6 C 0.519(2) 0.5505(5) 0.3538(4)
H25_6 H 0.602382 0.549861 0.365398
C54_6 C 0.548(2) 0.5563(5) 0.3273(4)
H26_6 H 0.651058 0.559150 0.321204
C55_6 C 0.335(2) 0.5379(5) 0.3900(4)
C56_6 C 0.117(2) 0.4506(5) 0.2615(4)
C57_6 C 0.102(2) 0.4142(5) 0.2457(4)
C60_6 C 0.081(2) 0.3446(5) 0.2212(4)
C61_6 C 0.199(2) 0.3693(5) 0.2158(4)
H29_6 H 0.274609 0.362539 0.203616
C62_6 C 0.212(2) 0.4044(5) 0.2278(4)
H30_6 H 0.294127 0.421054 0.223846
C63_6 C 0.072(2) 0.3082(5) 0.2075(3)
O11_6 O 0.316(2) 0.5092(3) 0.1761(3)
O13_6 O 0.6313(15) 0.6928(4) 0.1502(3)
O14_6 O 0.5601(18) 0.5843(4) 0.2761(3)
O17_6 O 0.0618(16) 0.4505(4) 0.2829(3)
C58_6 C 0.981(2) 0.3896(5) 0.2518(4)
H27_6 H 0.908117 0.395998 0.264455
C59_6 C 0.970(2) 0.3546(5) 0.2387(4)
H28_6 H 0.885341 0.338144 0.241952
C4_7 C 0.043(2) 0.7335(5) 0.5024(4)
C5_7 C 0.032(2) 0.7437(5) 0.4763(4)
H3_7 H 0.083135 0.729065 0.463929
H4_7 H 0.025710 0.852517 0.459051
H8_7 H 0.068109 0.805394 0.558383
C18_7 C 0.013(2) 0.8000(5) 0.5957(4)
H9_7 H 0.115920 0.799866 0.601880
C23_7 C 0.133(2) 0.7006(5) 0.5115(4)
C24_7 C 0.148(2) 0.6642(5) 0.4957(4)
C25_7 C 0.269(2) 0.6396(5) 0.5018(4)
H12_7 H 0.341883 0.645998 0.514455
C26_7 C 0.280(2) 0.6046(5) 0.4887(4)
H13_7 H 0.364659 0.588144 0.491952
C27_7 C 0.169(2) 0.5946(5) 0.4712(4)
C28_7 C 0.051(2) 0.6193(5) 0.4658(4)
C29_7 C 0.038(2) 0.6544(5) 0.4778(4)
C30_7 C 0.178(2) 0.5582(5) 0.4575(3)
O7_7 O 0.1882(16) 0.7005(4) 0.5329(3)
C34_7 C 0.125(2) 0.2020(5) 0.4884(4)
H16_7 H 0.181428 0.180308 0.483461
C35_7 C 0.115(2) 0.2101(5) 0.5141(4)
C36_7 C 0.034(2) 0.2428(5) 0.5211(4)
H17_7 H 0.028237 0.249641 0.538259
C39_7 C 0.055(2) 0.2240(5) 0.4695(4)
C40_7 C 0.077(2) 0.2157(5) 0.4413(4)
C41_7 C 0.116(2) 0.1752(5) 0.4342(4)
C42_7 C 0.050(2) 0.1440(5) 0.4464(4)
C43_7 C 0.097(2) 0.1081(5) 0.4397(4)
H20_7 H 0.053745 0.087176 0.448179
C44_7 C 0.205(2) 0.1016(5) 0.4210(4)
C45_7 C 0.273(2) 0.1322(5) 0.4078(4)
H21_7 H 0.349619 0.127940 0.395280
C46_7 C 0.223(2) 0.1697(5) 0.4140(4)
H22_7 H 0.260598 0.190623 0.404682
C47_7 C 0.275(2) 0.0610(5) 0.4159(4)
C48_7 C 0.202(2) 0.1887(5) 0.5322(4)
C49_7 C 0.170(2) 0.1925(5) 0.5605(4)
C50_7 C 0.016(2) 0.1955(5) 0.5698(4)
C52_7 C 0.113(2) 0.2041(5) 0.6122(4)
C53_7 C 0.269(2) 0.1995(5) 0.6038(4)
H25_7 H 0.352382 0.200139 0.615398
C54_7 C 0.298(2) 0.1937(5) 0.5773(4)
H26_7 H 0.401058 0.190850 0.571204
C55_7 C 0.085(2) 0.2121(5) 0.6400(4)
H29_7 H 0.024609 0.387461 0.453616
H30_7 H 0.044127 0.328946 0.473846
O11_7 O 0.066(2) 0.2408(3) 0.4261(3)
O13_7 O 0.3813(15) 0.0572(4) 0.4002(3)
O14_7 O 0.3101(18) 0.1657(4) 0.5261(3)
C1_7 C 0.875(2) 0.7980(5) 0.4884(4)
H1_7 H 0.818572 0.819692 0.483461
C2_7 C 0.885(2) 0.7899(5) 0.5141(4)
C3_7 C 0.966(2) 0.7572(5) 0.5211(4)
H2_7 H 0.971763 0.750359 0.538259
C6_7 C 0.945(2) 0.7760(5) 0.4695(4)
C7_7 C 0.923(2) 0.7843(5) 0.4413(4)
C8_7 C 0.884(2) 0.8248(5) 0.4342(4)
C9_7 C 0.950(2) 0.8560(5) 0.4464(4)
C10_7 C 0.903(2) 0.8919(5) 0.4397(4)
H5_7 H 0.946255 0.912824 0.448179
C11_7 C 0.795(2) 0.8984(5) 0.4210(4)
C12_7 C 0.727(2) 0.8678(5) 0.4078(4)
H6_7 H 0.650381 0.872060 0.395280
C13_7 C 0.777(2) 0.8303(5) 0.4140(4)
H7_7 H 0.739402 0.809377 0.404682
C14_7 C 0.725(2) 0.9390(5) 0.4159(4)
C15_7 C 0.798(2) 0.8113(5) 0.5322(4)
C16_7 C 0.830(2) 0.8075(5) 0.5605(4)
C17_7 C 0.984(2) 0.8045(5) 0.5698(4)
C19_7 C 0.887(2) 0.7959(5) 0.6122(4)
C20_7 C 0.731(2) 0.8005(5) 0.6038(4)
H10_7 H 0.647618 0.799861 0.615398
C21_7 C 0.702(2) 0.8063(5) 0.5773(4)
H11_7 H 0.598942 0.809150 0.571204
C22_7 C 0.915(2) 0.7879(5) 0.6400(4)
H14_7 H 0.975391 0.612539 0.453616
H15_7 H 0.955873 0.671054 0.473846
O1_7 O 0.934(2) 0.7592(3) 0.4261(3)
O3_7 O 0.6187(15) 0.9428(4) 0.4002(3)
O4_7 O 0.6899(18) 0.8343(4) 0.5261(3)
C37_7 C 0.957(2) 0.2665(5) 0.5024(4)
C38_7 C 0.968(2) 0.2563(5) 0.4763(4)
H18_7 H 0.916865 0.270935 0.463929
H19_7 H 0.974290 0.147483 0.459051
H23_7 H 0.931891 0.194606 0.558383
C51_7 C 0.987(2) 0.2000(5) 0.5957(4)
H24_7 H 0.884080 0.200134 0.601880
C56_7 C 0.867(2) 0.2994(5) 0.5115(4)
C57_7 C 0.852(2) 0.3358(5) 0.4957(4)
C58_7 C 0.731(2) 0.3604(5) 0.5018(4)
H27_7 H 0.658117 0.354002 0.514455
C59_7 C 0.720(2) 0.3954(5) 0.4887(4)
H28_7 H 0.635341 0.411856 0.491952
C60_7 C 0.831(2) 0.4054(5) 0.4712(4)
C61_7 C 0.949(2) 0.3807(5) 0.4658(4)
C62_7 C 0.962(2) 0.3456(5) 0.4778(4)
C63_7 C 0.822(2) 0.4418(5) 0.4575(3)
O15_6 O 0.9429(16) 0.2215(4) 0.6448(3)
O17_7 O 0.8118(16) 0.2995(4) 0.5329(3)
C1_8 C 0.125(2) 0.4520(5) 0.7384(4)
H1_8 H 0.068572 0.430308 0.733461
C2_8 C 0.135(2) 0.4601(5) 0.7641(4)
C3_8 C 0.216(2) 0.4928(5) 0.7711(4)
H2_8 H 0.221763 0.499641 0.788259
C4_8 C 0.293(2) 0.5165(5) 0.7524(4)
C5_8 C 0.282(2) 0.5063(5) 0.7263(4)
H3_8 H 0.333135 0.520935 0.713929
C6_8 C 0.195(2) 0.4740(5) 0.7195(4)
C7_8 C 0.173(2) 0.4657(5) 0.6913(4)
C8_8 C 0.134(2) 0.4252(5) 0.6842(4)
C9_8 C 0.200(2) 0.3940(5) 0.6964(4)
H4_8 H 0.275710 0.397483 0.709051
C10_8 C 0.153(2) 0.3581(5) 0.6897(4)
H5_8 H 0.196255 0.337176 0.698179
C11_8 C 0.045(2) 0.3516(5) 0.6710(4)
C13_8 C 0.027(2) 0.4197(5) 0.6640(4)
C15_8 C 0.048(2) 0.4387(5) 0.7822(4)
C16_8 C 0.080(2) 0.4425(5) 0.8105(4)
C17_8 C 0.234(2) 0.4455(5) 0.8198(4)
H8_8 H 0.318109 0.444606 0.808383
C18_8 C 0.263(2) 0.4500(5) 0.8457(4)
H9_8 H 0.365920 0.450134 0.851880
C19_8 C 0.137(2) 0.4541(5) 0.8622(4)
C22_8 C 0.165(2) 0.4621(5) 0.8900(4)
C23_8 C 0.383(2) 0.5494(5) 0.7615(4)
C24_8 C 0.398(2) 0.5858(5) 0.7457(4)
C25_8 C 0.519(2) 0.6104(5) 0.7518(4)
H12_8 H 0.591883 0.604002 0.764455
C26_8 C 0.530(2) 0.6454(5) 0.7387(4)
H13_8 H 0.614659 0.661856 0.741952
C27_8 C 0.419(2) 0.6554(5) 0.7212(4)
C28_8 C 0.301(2) 0.6307(5) 0.7158(4)
H14_8 H 0.225391 0.637461 0.703616
C29_8 C 0.288(2) 0.5956(5) 0.7278(4)
H15_8 H 0.205873 0.578946 0.723846
C30_8 C 0.428(2) 0.6918(5) 0.7075(3)
O1_8 O 0.184(2) 0.4908(3) 0.6761(3)
O7_8 O 0.4382(16) 0.5495(4) 0.7829(3)
C12_8 C 0.977(2) 0.3822(5) 0.6578(4)
H6_8 H 0.900381 0.377940 0.645280
H7_8 H 0.989402 0.440623 0.654682
C14_8 C 0.975(2) 0.3110(5) 0.6659(4)
C20_8 C 0.981(2) 0.4495(5) 0.8538(4)
H10_8 H 0.897618 0.450139 0.865398
C21_8 C 0.952(2) 0.4437(5) 0.8273(4)
H11_8 H 0.848942 0.440850 0.821204
O3_8 O 0.8687(15) 0.3072(4) 0.6502(3)
O4_8 O 0.9399(18) 0.4157(4) 0.7761(3)
C34_8 C 0.375(2) 0.0480(5) 0.7384(4)
H16_8 H 0.431428 0.069692 0.733461
C35_8 C 0.365(2) 0.0399(5) 0.7641(4)
C36_8 C 0.284(2) 0.0072(5) 0.7711(4)
H17_8 H 0.278237 0.000359 0.788259
C39_8 C 0.305(2) 0.0260(5) 0.7195(4)
C40_8 C 0.327(2) 0.0343(5) 0.6913(4)
C41_8 C 0.366(2) 0.0748(5) 0.6842(4)
C42_8 C 0.300(2) 0.1060(5) 0.6964(4)
H19_8 H 0.224290 0.102517 0.709051
C43_8 C 0.347(2) 0.1419(5) 0.6897(4)
H20_8 H 0.303745 0.162824 0.698179
C44_8 C 0.455(2) 0.1484(5) 0.6710(4)
C45_8 C 0.523(2) 0.1178(5) 0.6578(4)
H21_8 H 0.599619 0.122060 0.645280
C46_8 C 0.473(2) 0.0803(5) 0.6640(4)
H22_8 H 0.510598 0.059377 0.654682
C47_8 C 0.525(2) 0.1890(5) 0.6659(4)
C48_8 C 0.452(2) 0.0613(5) 0.7822(4)
C49_8 C 0.420(2) 0.0575(5) 0.8105(4)
C50_8 C 0.266(2) 0.0545(5) 0.8198(4)
H23_8 H 0.181891 0.055394 0.808383
C51_8 C 0.237(2) 0.0500(5) 0.8457(4)
H24_8 H 0.134080 0.049866 0.851880
C52_8 C 0.363(2) 0.0459(5) 0.8622(4)
C53_8 C 0.519(2) 0.0505(5) 0.8538(4)
H25_8 H 0.602382 0.049861 0.865398
C54_8 C 0.548(2) 0.0563(5) 0.8273(4)
H26_8 H 0.651058 0.059150 0.821204
C55_8 C 0.335(2) 0.0379(5) 0.8900(4)
O11_8 O 0.316(2) 0.0092(3) 0.6761(3)
O13_8 O 0.6313(15) 0.1928(4) 0.6502(3)
O14_8 O 0.5601(18) 0.0843(4) 0.7761(3)
C37_8 C 0.207(2) 0.9835(5) 0.7524(4)
C38_8 C 0.218(2) 0.9937(5) 0.7263(4)
H18_8 H 0.166865 0.979065 0.713929
C56_8 C 0.117(2) 0.9506(5) 0.7615(4)
C57_8 C 0.102(2) 0.9142(5) 0.7457(4)
C60_8 C 0.081(2) 0.8446(5) 0.7212(4)
C61_8 C 0.199(2) 0.8693(5) 0.7158(4)
H29_8 H 0.274609 0.862539 0.703616
C62_8 C 0.212(2) 0.9044(5) 0.7278(4)
H30_8 H 0.294127 0.921054 0.723846
C63_8 C 0.072(2) 0.8082(5) 0.7075(3)
O17_8 O 0.0618(16) 0.9505(4) 0.7829(3)
C58_8 C 0.981(2) 0.8896(5) 0.7518(4)
H27_8 H 0.908117 0.895998 0.764455
C59_8 C 0.970(2) 0.8546(5) 0.7387(4)
H28_8 H 0.885341 0.838144 0.741952
H33_7 H 0.0162982 0.0435576 0.00472291
C31_7 C 0.663(5) 0.0616(12) 0.0295(8)
C32_7 C 0.935(5) 0.0537(12) 0.0194(7)
N1_7 N 0.777(3) 0.0487(8) 0.0109(5)
H32_7 H 0.956709 0.0839996 0.0230914
H34_7 H 0.953331 0.0373826 0.0369134
H35_7 H 0.67775 0.0453846 0.0471433
H36_7 H 0.543963 0.0571635 0.022093
H37_7 H 0.681127 0.0920016 0.0333213
C64_7 C 0.337(5) 0.9384(12) 0.0295(8)
C65_7 C 0.065(5) 0.9463(12) 0.0194(7)
N2_7 N 0.223(3) 0.9513(8) 0.0109(5)
H38_7 H 0.0432915 0.916 0.0230914
H40_7 H 0.0466691 0.962617 0.0369134
H41_7 H 0.32225 0.954615 0.0471433
H42_7 H 0.456037 0.942836 0.022093
H43_7 H 0.318873 0.907998 0.0333213
H39_7 H 0.983702 0.956442 0.00472291
C64_8 C 0.163(5) 0.5616(12) 0.0295(8)
C65_8 C 0.435(5) 0.5537(12) 0.0194(7)
N2_8 N 0.277(3) 0.5487(8) 0.0109(5)
H38_8 H 0.456709 0.584 0.0230914
H39_8 H 0.516298 0.543558 0.00472291
H40_8 H 0.453331 0.537383 0.0369134
H41_8 H 0.17775 0.545385 0.0471433
H42_8 H 0.043963 0.557164 0.022093
H43_8 H 0.181127 0.592002 0.0333213
C31_8 C 0.837(5) 0.4384(12) 0.0295(8)
C32_8 C 0.565(5) 0.4463(12) 0.0194(7)
N1_8 N 0.723(3) 0.4513(8) 0.0109(5)
H32_8 H 0.543291 0.416 0.0230914
H33_8 H 0.483702 0.456442 0.00472291
H34_8 H 0.546669 0.462617 0.0369134
H35_8 H 0.82225 0.454615 0.0471433
H36_8 H 0.956037 0.442836 0.022093
H37_8 H 0.818873 0.407998 0.0333213
loop_
_geom_bond_atom_site_label_1
_geom_bond_atom_site_label_2
_geom_bond_site_symmetry_1
_geom_bond_site_symmetry_2
Dy1 O6 1_555 1_555
C1 H1 1_555 1_555
C2 C1 1_555 1_555
C3 C2 1_555 1_555
H2 C3 1_555 1_555
C4 C3 1_555 1_555
C5 C4 1_555 1_555
H3 C5 1_555 1_555
C6 C1 1_555 1_555
C7 C6 1_555 1_555
C8 C7 1_555 1_555
C9 C8 1_555 1_555
H4 C9 1_555 1_555
C10 C9 1_555 1_555
H5 C10 1_555 1_555
C11 C10 1_555 1_555
C12 C11 1_555 1_555
H6 C12 1_555 1_555
C13 C8 1_555 1_555
H7 C13 1_555 1_555
C14 C11 1_555 1_555
C15 C2 1_555 1_555
C16 C15 1_555 1_555
C17 C16 1_555 1_555
H8 C17 1_555 1_555
C18 C17 1_555 1_555
H9 C18 1_555 1_555
C19 C18 1_555 1_555
C20 C19 1_555 1_555
H10 C20 1_555 1_555
C21 C16 1_555 1_555
H11 C21 1_555 1_555
C22 C19 1_555 1_555
C23 C4 1_555 1_555
C24 C23 1_555 1_555
C25 C24 1_555 1_555
H12 C25 1_555 1_555
C26 C25 1_555 1_555
H13 C26 1_555 1_555
C27 C26 1_555 1_555
C28 C27 1_555 1_555
H14 C28 1_555 1_555
C29 C24 1_555 1_555
H15 C29 1_555 1_555
C30 C27 1_555 1_555
C31 N1 1_555 1_555
C32 N1 1_555 1_555
C33 O10 1_555 1_555
O1 C7 1_555 1_555
O2 C14 1_555 1_555
O3 C14 1_555 1_555
O4 C15 1_555 1_555
O5 C22 1_555 1_555
O6 C22 1_555 1_555
O7 C23 1_555 1_555
O8 C30 1_555 1_555
O9 C30 1_555 1_555
O10 Dy1 1_555 1_555
N1 C33 1_555 1_555
Dy2 O2 1_555 1_555
C66 O20 1_555 1_555
O20 Dy1 1_555 1_555
Dy5 O2 1_555 1_555
Dy7_3 O9 1_555 1_555
O21 Dy1 1_555 1_555
O22 Dy1 1_555 1_555
O24 Dy2 1_555 1_555
O25 Dy1 1_555 1_555
O26 Dy2 1_555 1_555
O28 Dy1 1_555 1_555
O29 Dy1 1_555 1_555
Dy10 O8 1_555 1_555
Dy11 O5 1_555 1_555
C5 C6 1_555 1_555
C12 C13 1_555 1_555
C20 C21 1_555 1_555
C28 C29 1_555 1_555
O3 Dy2 1_555 1_555
O22 Dy11 1_555 1_555
C33 H31 1_555 1_555
C32 H32 1_555 1_555
C32 H33 1_555 1_555
C32 H34 1_555 1_555
C31 H35 1_555 1_555
C31 H36 1_555 1_555
C31 H37 1_555 1_555
C64 H41 1_555 1_555
C64 H42 1_555 1_555
C64 H43 1_555 1_555
C34 H16 1_555 1_555
C35 C34 1_555 1_555
C36 C35 1_555 1_555
H17 C36 1_555 1_555
C37 C36 1_555 1_555
C38 C37 1_555 1_555
H18 C38 1_555 1_555
C39 C34 1_555 1_555
C40 C39 1_555 1_555
C41 C40 1_555 1_555
C42 C41 1_555 1_555
H19 C42 1_555 1_555
C43 C42 1_555 1_555
H20 C43 1_555 1_555
C44 C43 1_555 1_555
C45 C44 1_555 1_555
H21 C45 1_555 1_555
C46 C41 1_555 1_555
H22 C46 1_555 1_555
C47 C44 1_555 1_555
C48 C35 1_555 1_555
C49 C48 1_555 1_555
C50 C49 1_555 1_555
H23 C50 1_555 1_555
C51 C50 1_555 1_555
H24 C51 1_555 1_555
C52 C51 1_555 1_555
C53 C52 1_555 1_555
H25 C53 1_555 1_555
C54 C49 1_555 1_555
H26 C54 1_555 1_555
C55 C52 1_555 1_555
C56 C37 1_555 1_555
C57 C56 1_555 1_555
C58 C57 1_555 1_555
H27 C58 1_555 1_555
C59 C58 1_555 1_555
H28 C59 1_555 1_555
C60 C59 1_555 1_555
C61 C60 1_555 1_555
H29 C61 1_555 1_555
C62 C57 1_555 1_555
H30 C62 1_555 1_555
C63 C60 1_555 1_555
O11 C40 1_555 1_555
O12 Dy2_2 1_555 1_555
O13 Dy2_2 1_555 1_555
O14 C48 1_555 1_555
O15 C55 1_555 1_555
O16 C55 1_555 1_555
O17 C56 1_555 1_555
O18 C63 1_555 1_555
O19 C63 1_555 1_555
C65 N2 1_555 1_555
N2 C66_2 1_555 1_555
Dy3 O16 1_555 1_555
Dy5 O12 1_555 1_555
Dy7_2 O19 1_555 1_555
O23 Dy2_2 1_555 1_555
O27 Dy2_2 1_555 1_555
Dy8 O15 1_555 1_555
Dy10_2 O18 1_555 1_555
C38 C39 1_555 1_555
C45 C46 1_555 1_555
C47 O12 1_555 1_555
C47 O13 1_555 1_555
C53 C54 1_555 1_555
C61 C62 1_555 1_555
C65 H38 1_555 1_555
C65 H39 1_555 1_555
C65 H40 1_555 1_555
C66_2 H44 1_555 1_555
C65_2 N2_2 1_555 1_555
N2_2 C66_3 1_555 1_555
C65_2 H38_2 1_555 1_555
C65_2 H39_2 1_555 1_555
C65_2 H40_2 1_555 1_555
C66_3 H44_2 1_555 1_555
C31_2 N1_2 1_555 1_555
C32_2 N1_2 1_555 1_555
C33_2 O10_2 1_555 1_555
O10_2 Dy3 1_555 1_555
N1_2 C33_2 1_555 1_555
C66_4 O20_2 1_555 1_555
O20_2 Dy3 1_555 1_555
O21_2 Dy3 1_555 1_555
O22_2 Dy3 1_555 1_555
O25_2 Dy3 1_555 1_555
O28_2 Dy3 1_555 1_555
O29_2 Dy3 1_555 1_555
O22_2 Dy8 1_555 1_555
C33_2 H31_2 1_555 1_555
C32_2 H32_2 1_555 1_555
C32_2 H33_2 1_555 1_555
C32_2 H34_2 1_555 1_555
C31_2 H35_2 1_555 1_555
C31_2 H36_2 1_555 1_555
C31_2 H37_2 1_555 1_555
C64_2 H41_2 1_555 1_555
C64_2 H42_2 1_555 1_555
C64_2 H43_2 1_555 1_555
H12_2 C25_2 1_555 1_555
C26_2 C25_2 1_555 1_555
H13_2 C26_2 1_555 1_555
C5_2 C4_2 1_555 1_555
H3_2 C5_2 1_555 1_555
C23_2 C4_2 1_555 1_555
C24_2 C23_2 1_555 1_555
C28_2 C27_2 1_555 1_555
H14_2 C28_2 1_555 1_555
C29_2 C24_2 1_555 1_555
H15_2 C29_2 1_555 1_555
C30_2 C27_2 1_555 1_555
C33_3 O10_3 1_555 1_555
O7_2 C23_2 1_555 1_555
O8_2 C30_2 1_555 1_555
O10_3 Dy1_2 1_555 1_555
O22_3 Dy1_2 1_555 1_555
O25_3 Dy1_2 1_555 1_555
O28_3 Dy1_2 1_555 1_555
Dy11 O8_2 1_555 1_555
C28_2 C29_2 1_555 1_555
O22_3 Dy11_4 1_555 1_555
C33_3 H31_3 1_555 1_555
Dy1_3 O6_2 1_555 1_555
C1_2 H1_2 1_555 1_555
C2_2 C1_2 1_555 1_555
C3_2 C2_2 1_555 1_555
H2_2 C3_2 1_555 1_555
C6_2 C1_2 1_555 1_555
C7_2 C6_2 1_555 1_555
C8_2 C7_2 1_555 1_555
C9_2 C8_2 1_555 1_555
H4_2 C9_2 1_555 1_555
C10_2 C9_2 1_555 1_555
H5_2 C10_2 1_555 1_555
C11_2 C10_2 1_555 1_555
C12_2 C11_2 1_555 1_555
H6_2 C12_2 1_555 1_555
C13_2 C8_2 1_555 1_555
H7_2 C13_2 1_555 1_555
C14_2 C11_2 1_555 1_555
C15_2 C2_2 1_555 1_555
C16_2 C15_2 1_555 1_555
C17_2 C16_2 1_555 1_555
H8_2 C17_2 1_555 1_555
C18_2 C17_2 1_555 1_555
H9_2 C18_2 1_555 1_555
C19_2 C18_2 1_555 1_555
C20_2 C19_2 1_555 1_555
H10_2 C20_2 1_555 1_555
C21_2 C16_2 1_555 1_555
H11_2 C21_2 1_555 1_555
C22_2 C19_2 1_555 1_555
O1_2 C7_2 1_555 1_555
O22_2 C14_2 1_555 1_555
O3_2 C14_2 1_555 1_555
O4_2 C15_2 1_555 1_555
O5_2 C22_2 1_555 1_555
O6_2 C22_2 1_555 1_555
H21_2 C45_2 1_555 1_555
H25_2 C53_2 1_555 1_555
H26_2 C54_2 1_555 1_555
O13_2 Dy8 1_555 1_555
C66_5 O20_3 1_555 1_555
O20_3 Dy1_3 1_555 1_555
O21_3 Dy1_3 1_555 1_555
O23_2 Dy8 1_555 1_555
O26_2 Dy8 1_555 1_555
O27_2 Dy8 1_555 1_555
O29_3 Dy1_3 1_555 1_555
Dy11_5 O5_2 1_555 1_555
C12_2 C13_2 1_555 1_555
C20_2 C21_2 1_555 1_555
O3_2 Dy8 1_555 1_555
C47_2 O13_2 1_555 1_555
C53_2 C54_2 1_555 1_555
C66_5 H44_3 1_555 1_555
C34_2 H16_2 1_555 1_555
C35_2 C34_2 1_555 1_555
C36_2 C35_2 1_555 1_555
H17_2 C36_2 1_555 1_555
C37_2 C36_2 1_555 1_555
C38_2 C37_2 1_555 1_555
H18_2 C38_2 1_555 1_555
C39_2 C34_2 1_555 1_555
C40_2 C39_2 1_555 1_555
C41_2 C40_2 1_555 1_555
C42_2 C41_2 1_555 1_555
H19_2 C42_2 1_555 1_555
C43_2 C42_2 1_555 1_555
H20_2 C43_2 1_555 1_555
C44_2 C43_2 1_555 1_555
C46_2 C41_2 1_555 1_555
C48_2 C35_2 1_555 1_555
C49_2 C48_2 1_555 1_555
C50_2 C49_2 1_555 1_555
H23_2 C50_2 1_555 1_555
C51_2 C50_2 1_555 1_555
H24_2 C51_2 1_555 1_555
C52_2 C51_2 1_555 1_555
C55_2 C52_2 1_555 1_555
C56_2 C37_2 1_555 1_555
C57_2 C56_2 1_555 1_555
C58_2 C57_2 1_555 1_555
H27_2 C58_2 1_555 1_555
C59_2 C58_2 1_555 1_555
H28_2 C59_2 1_555 1_555
C60_2 C59_2 1_555 1_555
C61_2 C60_2 1_555 1_555
H29_2 C61_2 1_555 1_555
C62_2 C57_2 1_555 1_555
H30_2 C62_2 1_555 1_555
C63_2 C60_2 1_555 1_555
O11_2 C40_2 1_555 1_555
O15_2 C55_2 1_555 1_555
O16_2 C55_2 1_555 1_555
O17_2 C56_2 1_555 1_555
O18_2 C63_2 1_555 1_555
O29 C63_2 1_555 1_555
Dy3_3 O16_2 1_555 1_555
Dy8_2 O15_2 1_555 1_555
Dy11 O18_2 1_555 1_555
C38_2 C39_2 1_555 1_555
C61_2 C62_2 1_555 1_555
C66_6 O20_4 1_555 1_555
O20_4 Dy3_2 1_555 1_555
O21_4 Dy3_2 1_555 1_555
O25_4 Dy3_2 1_555 1_555
O28_4 Dy3_2 1_555 1_555
C66_6 H44_4 1_555 1_555
C33_4 O10_4 1_555 1_555
O10_4 Dy3_3 1_555 1_555
O22_4 Dy3_3 1_555 1_555
O29_4 Dy3_3 1_555 1_555
O22_4 Dy8_2 1_555 1_555
C33_4 H31_4 1_555 1_555
O24_2 Dy11_2 1_555 1_555
O26_3 Dy11_2 1_555 1_555
Dy1_4 O6_3 1_555 1_555
C3_3 C2_3 1_555 1_555
H2_3 C3_3 1_555 1_555
C4_3 C3_3 1_555 1_555
C15_3 C2_3 1_555 1_555
C16_3 C15_3 1_555 1_555
C17_3 C16_3 1_555 1_555
H8_3 C17_3 1_555 1_555
C18_3 C17_3 1_555 1_555
H9_3 C18_3 1_555 1_555
C19_3 C18_3 1_555 1_555
C20_3 C19_3 1_555 1_555
H10_3 C20_3 1_555 1_555
C21_3 C16_3 1_555 1_555
H11_3 C21_3 1_555 1_555
C22_3 C19_3 1_555 1_555
C23_3 C4_3 1_555 1_555
H12_3 C25_3 1_555 1_555
C31_3 N1_3 1_555 1_555
C32_3 N1_3 1_555 1_555
C33_5 O10_5 1_555 1_555
O4_3 C15_3 1_555 1_555
O5_3 C22_3 1_555 1_555
O6_3 C22_3 1_555 1_555
O7_3 C23_3 1_555 1_555
O10_5 Dy1_4 1_555 1_555
N1_3 C33_5 1_555 1_555
C66_7 O20_5 1_555 1_555
O20_5 Dy1_4 1_555 1_555
O21_5 Dy1_4 1_555 1_555
O22_5 Dy1_4 1_555 1_555
O25_5 Dy1_4 1_555 1_555
O28_5 Dy1_4 1_555 1_555
O29_5 Dy1_4 1_555 1_555
Dy11_6 O5_3 1_555 1_555
C20_3 C21_3 1_555 1_555
O22_5 Dy11_6 1_555 1_555
C33_5 H31_5 1_555 1_555
C32_3 H32_3 1_555 1_555
C32_3 H33_3 1_555 1_555
C32_3 H34_3 1_555 1_555
C31_3 H35_3 1_555 1_555
C31_3 H36_3 1_555 1_555
C31_3 H37_3 1_555 1_555
C64_3 H41_3 1_555 1_555
C64_3 H42_3 1_555 1_555
C64_3 H43_3 1_555 1_555
C1_3 H1_3 1_555 1_555
H3_3 C5_3 1_555 1_555
C6_3 C1_3 1_555 1_555
C7_3 C6_3 1_555 1_555
C8_3 C7_3 1_555 1_555
C9_3 C8_3 1_555 1_555
H4_3 C9_3 1_555 1_555
C10_3 C9_3 1_555 1_555
H5_3 C10_3 1_555 1_555
C11_3 C10_3 1_555 1_555
C12_3 C11_3 1_555 1_555
H6_3 C12_3 1_555 1_555
C13_3 C8_3 1_555 1_555
H7_3 C13_3 1_555 1_555
C14_3 C11_3 1_555 1_555
H13_3 C26_3 1_555 1_555
C27_3 C26_3 1_555 1_555
C28_3 C27_3 1_555 1_555
H14_3 C28_3 1_555 1_555
C29_3 C24_3 1_555 1_555
H15_3 C29_3 1_555 1_555
C30_3 C27_3 1_555 1_555
O1_3 C7_3 1_555 1_555
O21_3 C14_3 1_555 1_555
O3_3 C14_3 1_555 1_555
O8_3 C30_3 1_555 1_555
O29_4 C30_3 1_555 1_555
Dy11_3 O21_3 1_555 1_555
Dy8_2 O8_3 1_555 1_555
C5_3 C6_3 1_555 1_555
C12_3 C13_3 1_555 1_555
C28_3 C29_3 1_555 1_555
O3_3 Dy11_3 1_555 1_555
C36_3 C35_3 1_555 1_555
H17_3 C36_3 1_555 1_555
C37_3 C36_3 1_555 1_555
C48_3 C35_3 1_555 1_555
C49_3 C48_3 1_555 1_555
C50_3 C49_3 1_555 1_555
H23_3 C50_3 1_555 1_555
C51_3 C50_3 1_555 1_555
H24_3 C51_3 1_555 1_555
C52_3 C51_3 1_555 1_555
C53_3 C52_3 1_555 1_555
H25_3 C53_3 1_555 1_555
C54_3 C49_3 1_555 1_555
H26_3 C54_3 1_555 1_555
C55_3 C52_3 1_555 1_555
C56_3 C37_3 1_555 1_555
H27_3 C58_3 1_555 1_555
O14_3 C48_3 1_555 1_555
O15_3 C55_3 1_555 1_555
O16_3 C55_3 1_555 1_555
O17_3 C56_3 1_555 1_555
Dy3_4 O16_3 1_555 1_555
Dy8_3 O15_3 1_555 1_555
C53_3 C54_3 1_555 1_555
C34_3 H16_3 1_555 1_555
H18_3 C38_3 1_555 1_555
C39_3 C34_3 1_555 1_555
C40_3 C39_3 1_555 1_555
C41_3 C40_3 1_555 1_555
C42_3 C41_3 1_555 1_555
H19_3 C42_3 1_555 1_555
C43_3 C42_3 1_555 1_555
H20_3 C43_3 1_555 1_555
C44_3 C43_3 1_555 1_555
C45_3 C44_3 1_555 1_555
H21_3 C45_3 1_555 1_555
C46_3 C41_3 1_555 1_555
H22_3 C46_3 1_555 1_555
C47_3 C44_3 1_555 1_555
H28_3 C59_3 1_555 1_555
C60_3 C59_3 1_555 1_555
C61_3 C60_3 1_555 1_555
H29_3 C61_3 1_555 1_555
C62_3 C57_3 1_555 1_555
H30_3 C62_3 1_555 1_555
C63_3 C60_3 1_555 1_555
O11_3 C40_3 1_555 1_555
O13_3 Dy11_4 1_555 1_555
O18_3 C63_3 1_555 1_555
O28_4 C63_3 1_555 1_555
Dy8_2 O18_3 1_555 1_555
C38_3 C39_3 1_555 1_555
C45_3 C46_3 1_555 1_555
C47_3 O22_3 1_555 1_555
C47_3 O13_3 1_555 1_555
C61_3 C62_3 1_555 1_555
C65_3 N2_3 1_555 1_555
N2_3 C66_8 1_555 1_555
C65_3 H38_3 1_555 1_555
C65_3 H39_3 1_555 1_555
C65_3 H40_3 1_555 1_555
C66_8 H44_5 1_555 1_555
O27_3 Dy11_5 1_555 1_555
C65_4 N2_4 1_555 1_555
N2_4 C66_9 1_555 1_555
C65_4 H38_4 1_555 1_555
C65_4 H39_4 1_555 1_555
C65_4 H40_4 1_555 1_555
C66_9 H44_6 1_555 1_555
C31_4 N1_4 1_555 1_555
C32_4 N1_4 1_555 1_555
C33_6 O10_6 1_555 1_555
O10_6 Dy3_4 1_555 1_555
N1_4 C33_6 1_555 1_555
C66_10 O20_6 1_555 1_555
O20_6 Dy3_4 1_555 1_555
O21_6 Dy3_4 1_555 1_555
O22_6 Dy3_4 1_555 1_555
O25_6 Dy3_4 1_555 1_555
O28_6 Dy3_4 1_555 1_555
O29_6 Dy3_4 1_555 1_555
O22_6 Dy8_3 1_555 1_555
C33_6 H31_6 1_555 1_555
C32_4 H32_4 1_555 1_555
C32_4 H33_4 1_555 1_555
C32_4 H34_4 1_555 1_555
C31_4 H35_4 1_555 1_555
C31_4 H36_4 1_555 1_555
C31_4 H37_4 1_555 1_555
C64_4 H41_4 1_555 1_555
C64_4 H42_4 1_555 1_555
C64_4 H43_4 1_555 1_555
H12_4 C25_4 1_555 1_555
C26_4 C25_4 1_555 1_555
H13_4 C26_4 1_555 1_555
Dy5 O6_4 1_555 1_555
C1_4 H1_4 1_555 1_555
C2_4 C1_4 1_555 1_555
C3_4 C2_4 1_555 1_555
H2_4 C3_4 1_555 1_555
C4_4 C3_4 1_555 1_555
C5_4 C4_4 1_555 1_555
H3_4 C5_4 1_555 1_555
C6_4 C1_4 1_555 1_555
C7_4 C6_4 1_555 1_555
C8_4 C7_4 1_555 1_555
C9_4 C8_4 1_555 1_555
H4_4 C9_4 1_555 1_555
C10_4 C9_4 1_555 1_555
H5_4 C10_4 1_555 1_555
C11_4 C10_4 1_555 1_555
C12_4 C11_4 1_555 1_555
H6_4 C12_4 1_555 1_555
C13_4 C8_4 1_555 1_555
H7_4 C13_4 1_555 1_555
C14_4 C11_4 1_555 1_555
C15_4 C2_4 1_555 1_555
C16_4 C15_4 1_555 1_555
C17_4 C16_4 1_555 1_555
H8_4 C17_4 1_555 1_555
C18_4 C17_4 1_555 1_555
H9_4 C18_4 1_555 1_555
C19_4 C18_4 1_555 1_555
C20_4 C19_4 1_555 1_555
H10_4 C20_4 1_555 1_555
C21_4 C16_4 1_555 1_555
H11_4 C21_4 1_555 1_555
C22_4 C19_4 1_555 1_555
C23_4 C4_4 1_555 1_555
C24_4 C23_4 1_555 1_555
C28_4 C27_4 1_555 1_555
H14_4 C28_4 1_555 1_555
C29_4 C24_4 1_555 1_555
H15_4 C29_4 1_555 1_555
C30_4 C27_4 1_555 1_555
C31_5 N1_5 1_555 1_555
C32_5 N1_5 1_555 1_555
C33_7 O10_7 1_555 1_555
O1_4 C7_4 1_555 1_555
O22_6 C14_4 1_555 1_555
O3_4 C14_4 1_555 1_555
O4_4 C15_4 1_555 1_555
O23 C22_4 1_555 1_555
O6_4 C22_4 1_555 1_555
O7_4 C23_4 1_555 1_555
O8_4 C30_4 1_555 1_555
O10_7 Dy5 1_555 1_555
N1_5 C33_7 1_555 1_555
H21_4 C45_4 1_555 1_555
H25_4 C53_4 1_555 1_555
H26_4 C54_4 1_555 1_555
O13_4 Dy8_3 1_555 1_555
C64_5 N2_5 1_555 1_555
C65_5 N2_5 1_555 1_555
C66_11 O20_7 1_555 1_555
O20_7 Dy5 1_555 1_555
N2_5 C66_11 1_555 1_555
O23_3 Dy8_3 1_555 1_555
O25_7 Dy5 1_555 1_555
O26_4 Dy8_3 1_555 1_555
O27_4 Dy8_3 1_555 1_555
O28_7 Dy5 1_555 1_555
O29_7 Dy5 1_555 1_555
Dy11_6 O8_4 1_555 1_555
C5_4 C6_4 1_555 1_555
C12_4 C13_4 1_555 1_555
C20_4 C21_4 1_555 1_555
C28_4 C29_4 1_555 1_555
O3_4 Dy8_3 1_555 1_555
C47_4 O13_4 1_555 1_555
C53_4 C54_4 1_555 1_555
C33_7 H31_7 1_555 1_555
C32_5 H32_5 1_555 1_555
C32_5 H34_5 1_555 1_555
C31_5 H35_5 1_555 1_555
C31_5 H36_5 1_555 1_555
C31_5 H37_5 1_555 1_555
C65_5 H38_5 1_555 1_555
C65_5 H40_5 1_555 1_555
C64_5 H41_5 1_555 1_555
C64_5 H42_5 1_555 1_555
C64_5 H43_5 1_555 1_555
C66_11 H44_7 1_555 1_555
C34_4 H16_4 1_555 1_555
C35_4 C34_4 1_555 1_555
C36_4 C35_4 1_555 1_555
H17_4 C36_4 1_555 1_555
C39_4 C34_4 1_555 1_555
C40_4 C39_4 1_555 1_555
C41_4 C40_4 1_555 1_555
C42_4 C41_4 1_555 1_555
H19_4 C42_4 1_555 1_555
C43_4 C42_4 1_555 1_555
H20_4 C43_4 1_555 1_555
C44_4 C43_4 1_555 1_555
C46_4 C41_4 1_555 1_555
C48_4 C35_4 1_555 1_555
C49_4 C48_4 1_555 1_555
C50_4 C49_4 1_555 1_555
H23_4 C50_4 1_555 1_555
C51_4 C50_4 1_555 1_555
H24_4 C51_4 1_555 1_555
C52_4 C51_4 1_555 1_555
C55_4 C52_4 1_555 1_555
O11_4 C40_4 1_555 1_555
O15_4 C55_4 1_555 1_555
O16_4 C55_4 1_555 1_555
Dy7_3 O16_4 1_555 1_555
Dy10 O15_4 1_555 1_555
C38_4 C37_4 1_555 1_555
H18_4 C38_4 1_555 1_555
C56_4 C37_4 1_555 1_555
C57_4 C56_4 1_555 1_555
C58_4 C57_4 1_555 1_555
H27_4 C58_4 1_555 1_555
C59_4 C58_4 1_555 1_555
H28_4 C59_4 1_555 1_555
C60_4 C59_4 1_555 1_555
C61_4 C60_4 1_555 1_555
H29_4 C61_4 1_555 1_555
C62_4 C57_4 1_555 1_555
H30_4 C62_4 1_555 1_555
C63_4 C60_4 1_555 1_555
O17_4 C56_4 1_555 1_555
O18_4 C63_4 1_555 1_555
O29_5 C63_4 1_555 1_555
Dy11_6 O18_4 1_555 1_555
C61_4 C62_4 1_555 1_555
C64_6 N2_6 1_555 1_555
C65_6 N2_6 1_555 1_555
C66_12 O20_8 1_555 1_555
O20_8 Dy7 1_555 1_555
N2_6 C66_12 1_555 1_555
O21_7 Dy7 1_555 1_555
C65_6 H38_6 1_555 1_555
C65_6 H39_6 1_555 1_555
C65_6 H40_6 1_555 1_555
C64_6 H41_6 1_555 1_555
C64_6 H42_6 1_555 1_555
C64_6 H43_6 1_555 1_555
C66_12 H44_8 1_555 1_555
O25_8 Dy7_2 1_555 1_555
C31_6 N1_6 1_555 1_555
C32_6 N1_6 1_555 1_555
C33_8 O10_8 1_555 1_555
O10_8 Dy7_4 1_555 1_555
N1_6 C33_8 1_555 1_555
O22_7 Dy7_4 1_555 1_555
O22_7 Dy10_2 1_555 1_555
C33_8 H31_8 1_555 1_555
C32_6 H32_6 1_555 1_555
C32_6 H33_6 1_555 1_555
C32_6 H34_6 1_555 1_555
C31_6 H35_6 1_555 1_555
C31_6 H36_6 1_555 1_555
C31_6 H37_6 1_555 1_555
H9_5 C18_5 1_555 1_555
C23_5 C4_5 1_555 1_555
H12_5 C25_5 1_555 1_555
O7_5 C23_5 1_555 1_555
H3_5 C5_5 1_555 1_555
H13_5 C26_5 1_555 1_555
C27_5 C26_5 1_555 1_555
C28_5 C27_5 1_555 1_555
C29_5 C24_5 1_555 1_555
C30_5 C27_5 1_555 1_555
O26_3 C30_5 1_555 1_555
O28_3 C30_5 1_555 1_555
C28_5 C29_5 1_555 1_555
C3_5 C2_5 1_555 1_555
H2_5 C3_5 1_555 1_555
C15_5 C2_5 1_555 1_555
C16_5 C15_5 1_555 1_555
C17_5 C16_5 1_555 1_555
C20_5 C19_5 1_555 1_555
H10_5 C20_5 1_555 1_555
C21_5 C16_5 1_555 1_555
H11_5 C21_5 1_555 1_555
C22_5 C19_5 1_555 1_555
O4_5 C15_5 1_555 1_555
O25_6 C22_5 1_555 1_555
C36_5 C35_5 1_555 1_555
H17_5 C36_5 1_555 1_555
C48_5 C35_5 1_555 1_555
C49_5 C48_5 1_555 1_555
C50_5 C49_5 1_555 1_555
C53_5 C52_5 1_555 1_555
H25_5 C53_5 1_555 1_555
C54_5 C49_5 1_555 1_555
H26_5 C54_5 1_555 1_555
C55_5 C52_5 1_555 1_555
O14_5 C48_5 1_555 1_555
O25_5 C55_5 1_555 1_555
C20_5 C21_5 1_555 1_555
C53_5 C54_5 1_555 1_555
C1_5 H1_5 1_555 1_555
C6_5 C1_5 1_555 1_555
C7_5 C6_5 1_555 1_555
C8_5 C7_5 1_555 1_555
C9_5 C8_5 1_555 1_555
C10_5 C9_5 1_555 1_555
H5_5 C10_5 1_555 1_555
C11_5 C10_5 1_555 1_555
C12_5 C11_5 1_555 1_555
H6_5 C12_5 1_555 1_555
C13_5 C8_5 1_555 1_555
H7_5 C13_5 1_555 1_555
C14_5 C11_5 1_555 1_555
O1_5 C7_5 1_555 1_555
O22_4 C14_5 1_555 1_555
O3_5 C14_5 1_555 1_555
C34_5 H16_5 1_555 1_555
C39_5 C34_5 1_555 1_555
C40_5 C39_5 1_555 1_555
C41_5 C40_5 1_555 1_555
C42_5 C41_5 1_555 1_555
C43_5 C42_5 1_555 1_555
H20_5 C43_5 1_555 1_555
C44_5 C43_5 1_555 1_555
C45_5 C44_5 1_555 1_555
H21_5 C45_5 1_555 1_555
C46_5 C41_5 1_555 1_555
H22_5 C46_5 1_555 1_555
C47_5 C44_5 1_555 1_555
O11_5 C40_5 1_555 1_555
O21_4 Dy8_2 1_555 1_555
O13_5 Dy8_2 1_555 1_555
O23_4 Dy8_2 1_555 1_555
C12_5 C13_5 1_555 1_555
O3_5 Dy8_2 1_555 1_555
C45_5 C46_5 1_555 1_555
C47_5 O21_4 1_555 1_555
C47_5 O13_5 1_555 1_555
H24_5 C51_5 1_555 1_555
C56_5 C37_5 1_555 1_555
H27_5 C58_5 1_555 1_555
O17_5 C56_5 1_555 1_555
Dy11_6 O15_5 1_555 1_555
H18_5 C38_5 1_555 1_555
H28_5 C59_5 1_555 1_555
C60_5 C59_5 1_555 1_555
C61_5 C60_5 1_555 1_555
C62_5 C57_5 1_555 1_555
C63_5 C60_5 1_555 1_555
O27_3 C63_5 1_555 1_555
O29_3 C63_5 1_555 1_555
C61_5 C62_5 1_555 1_555
C5_6 C4_6 1_555 1_555
H3_6 C5_6 1_555 1_555
C23_6 C4_6 1_555 1_555
C24_6 C23_6 1_555 1_555
C25_6 C24_6 1_555 1_555
H12_6 C25_6 1_555 1_555
C26_6 C25_6 1_555 1_555
H13_6 C26_6 1_555 1_555
C27_6 C26_6 1_555 1_555
C28_6 C27_6 1_555 1_555
H14_6 C28_6 1_555 1_555
C29_6 C24_6 1_555 1_555
H15_6 C29_6 1_555 1_555
C30_6 C27_6 1_555 1_555
O7_6 C23_6 1_555 1_555
O26_4 C30_6 1_555 1_555
O29_6 C30_6 1_555 1_555
C28_6 C29_6 1_555 1_555
O21_7 Dy10 1_555 1_555
C1_6 H1_6 1_555 1_555
C2_6 C1_6 1_555 1_555
C3_6 C2_6 1_555 1_555
H2_6 C3_6 1_555 1_555
C6_6 C1_6 1_555 1_555
C7_6 C6_6 1_555 1_555
C8_6 C7_6 1_555 1_555
C9_6 C8_6 1_555 1_555
H4_6 C9_6 1_555 1_555
C10_6 C9_6 1_555 1_555
H5_6 C10_6 1_555 1_555
C11_6 C10_6 1_555 1_555
C13_6 C8_6 1_555 1_555
C15_6 C2_6 1_555 1_555
C16_6 C15_6 1_555 1_555
C17_6 C16_6 1_555 1_555
H8_6 C17_6 1_555 1_555
C18_6 C17_6 1_555 1_555
H9_6 C18_6 1_555 1_555
C19_6 C18_6 1_555 1_555
C22_6 C19_6 1_555 1_555
O1_6 C7_6 1_555 1_555
O5_4 C22_6 1_555 1_555
O25_8 C22_6 1_555 1_555
Dy10_2 O5_4 1_555 1_555
H6_6 C12_6 1_555 1_555
H10_6 C20_6 1_555 1_555
H11_6 C21_6 1_555 1_555
O3_6 C14_6 1_555 1_555
C34_6 H16_6 1_555 1_555
C35_6 C34_6 1_555 1_555
C36_6 C35_6 1_555 1_555
H17_6 C36_6 1_555 1_555
C37_6 C36_6 1_555 1_555
C38_6 C37_6 1_555 1_555
H18_6 C38_6 1_555 1_555
C39_6 C34_6 1_555 1_555
C40_6 C39_6 1_555 1_555
C41_6 C40_6 1_555 1_555
C42_6 C41_6 1_555 1_555
H19_6 C42_6 1_555 1_555
C43_6 C42_6 1_555 1_555
H20_6 C43_6 1_555 1_555
C44_6 C43_6 1_555 1_555
C45_6 C44_6 1_555 1_555
H21_6 C45_6 1_555 1_555
C46_6 C41_6 1_555 1_555
H22_6 C46_6 1_555 1_555
C47_6 C44_6 1_555 1_555
C48_6 C35_6 1_555 1_555
C49_6 C48_6 1_555 1_555
C50_6 C49_6 1_555 1_555
H23_6 C50_6 1_555 1_555
C51_6 C50_6 1_555 1_555
H24_6 C51_6 1_555 1_555
C52_6 C51_6 1_555 1_555
C53_6 C52_6 1_555 1_555
H25_6 C53_6 1_555 1_555
C54_6 C49_6 1_555 1_555
H26_6 C54_6 1_555 1_555
C55_6 C52_6 1_555 1_555
C56_6 C37_6 1_555 1_555
C57_6 C56_6 1_555 1_555
C61_6 C60_6 1_555 1_555
H29_6 C61_6 1_555 1_555
C62_6 C57_6 1_555 1_555
H30_6 C62_6 1_555 1_555
C63_6 C60_6 1_555 1_555
O11_6 C40_6 1_555 1_555
O13_6 Dy11_6 1_555 1_555
O14_6 C48_6 1_555 1_555
O24 C55_6 1_555 1_555
O25_7 C55_6 1_555 1_555
O17_6 C56_6 1_555 1_555
O27_4 C63_6 1_555 1_555
C20_6 C21_6 1_555 1_555
O3_6 Dy11_6 1_555 1_555
C38_6 C39_6 1_555 1_555
C45_6 C46_6 1_555 1_555
C47_6 O22_5 1_555 1_555
C47_6 O13_6 1_555 1_555
C53_6 C54_6 1_555 1_555
C61_6 C62_6 1_555 1_555
H27_6 C58_6 1_555 1_555
C59_6 C58_6 1_555 1_555
H28_6 C59_6 1_555 1_555
C5_7 C4_7 1_555 1_555
H3_7 C5_7 1_555 1_555
H9_7 C18_7 1_555 1_555
C23_7 C4_7 1_555 1_555
C24_7 C23_7 1_555 1_555
C25_7 C24_7 1_555 1_555
H12_7 C25_7 1_555 1_555
C26_7 C25_7 1_555 1_555
H13_7 C26_7 1_555 1_555
C27_7 C26_7 1_555 1_555
C28_7 C27_7 1_555 1_555
C29_7 C24_7 1_555 1_555
C30_7 C27_7 1_555 1_555
O7_7 C23_7 1_555 1_555
O26 C30_7 1_555 1_555
O28_7 C30_7 1_555 1_555
C28_7 C29_7 1_555 1_555
C34_7 H16_7 1_555 1_555
C35_7 C34_7 1_555 1_555
C36_7 C35_7 1_555 1_555
H17_7 C36_7 1_555 1_555
C39_7 C34_7 1_555 1_555
C40_7 C39_7 1_555 1_555
C41_7 C40_7 1_555 1_555
C42_7 C41_7 1_555 1_555
C43_7 C42_7 1_555 1_555
H20_7 C43_7 1_555 1_555
C44_7 C43_7 1_555 1_555
C45_7 C44_7 1_555 1_555
H21_7 C45_7 1_555 1_555
C46_7 C41_7 1_555 1_555
H22_7 C46_7 1_555 1_555
C47_7 C44_7 1_555 1_555
C48_7 C35_7 1_555 1_555
C49_7 C48_7 1_555 1_555
C50_7 C49_7 1_555 1_555
C53_7 C52_7 1_555 1_555
H25_7 C53_7 1_555 1_555
C54_7 C49_7 1_555 1_555
H26_7 C54_7 1_555 1_555
C55_7 C52_7 1_555 1_555
O11_7 C40_7 1_555 1_555
O13_7 Dy10 1_555 1_555
O14_7 C48_7 1_555 1_555
O25 C55_7 1_555 1_555
C45_7 C46_7 1_555 1_555
C47_7 O21_7 1_555 1_555
C47_7 O13_7 1_555 1_555
C53_7 C54_7 1_555 1_555
C1_7 H1_7 1_555 1_555
C2_7 C1_7 1_555 1_555
C3_7 C2_7 1_555 1_555
H2_7 C3_7 1_555 1_555
C6_7 C1_7 1_555 1_555
C7_7 C6_7 1_555 1_555
C8_7 C7_7 1_555 1_555
C9_7 C8_7 1_555 1_555
C10_7 C9_7 1_555 1_555
H5_7 C10_7 1_555 1_555
C11_7 C10_7 1_555 1_555
C12_7 C11_7 1_555 1_555
H6_7 C12_7 1_555 1_555
C13_7 C8_7 1_555 1_555
H7_7 C13_7 1_555 1_555
C14_7 C11_7 1_555 1_555
C15_7 C2_7 1_555 1_555
C16_7 C15_7 1_555 1_555
C17_7 C16_7 1_555 1_555
C20_7 C19_7 1_555 1_555
H10_7 C20_7 1_555 1_555
C21_7 C16_7 1_555 1_555
H11_7 C21_7 1_555 1_555
C22_7 C19_7 1_555 1_555
O1_7 C7_7 1_555 1_555
O22_7 C14_7 1_555 1_555
O3_7 C14_7 1_555 1_555
O4_7 C15_7 1_555 1_555
O25_2 C22_7 1_555 1_555
C12_7 C13_7 1_555 1_555
C20_7 C21_7 1_555 1_555
O3_7 Dy10_2 1_555 1_555
C38_7 C37_7 1_555 1_555
H18_7 C38_7 1_555 1_555
H24_7 C51_7 1_555 1_555
C56_7 C37_7 1_555 1_555
C57_7 C56_7 1_555 1_555
C58_7 C57_7 1_555 1_555
H27_7 C58_7 1_555 1_555
C59_7 C58_7 1_555 1_555
H28_7 C59_7 1_555 1_555
C60_7 C59_7 1_555 1_555
C61_7 C60_7 1_555 1_555
C62_7 C57_7 1_555 1_555
C63_7 C60_7 1_555 1_555
O17_7 C56_7 1_555 1_555
O27 C63_7 1_555 1_555
O29_7 C63_7 1_555 1_555
Dy11 O15_6 1_555 1_555
C61_7 C62_7 1_555 1_555
C1_8 H1_8 1_555 1_555
C2_8 C1_8 1_555 1_555
C3_8 C2_8 1_555 1_555
H2_8 C3_8 1_555 1_555
C4_8 C3_8 1_555 1_555
C5_8 C4_8 1_555 1_555
H3_8 C5_8 1_555 1_555
C6_8 C1_8 1_555 1_555
C7_8 C6_8 1_555 1_555
C8_8 C7_8 1_555 1_555
C9_8 C8_8 1_555 1_555
H4_8 C9_8 1_555 1_555
C10_8 C9_8 1_555 1_555
H5_8 C10_8 1_555 1_555
C11_8 C10_8 1_555 1_555
C13_8 C8_8 1_555 1_555
C15_8 C2_8 1_555 1_555
C16_8 C15_8 1_555 1_555
C17_8 C16_8 1_555 1_555
H8_8 C17_8 1_555 1_555
C18_8 C17_8 1_555 1_555
H9_8 C18_8 1_555 1_555
C19_8 C18_8 1_555 1_555
C22_8 C19_8 1_555 1_555
C23_8 C4_8 1_555 1_555
C24_8 C23_8 1_555 1_555
C25_8 C24_8 1_555 1_555
H12_8 C25_8 1_555 1_555
C26_8 C25_8 1_555 1_555
H13_8 C26_8 1_555 1_555
C27_8 C26_8 1_555 1_555
C28_8 C27_8 1_555 1_555
H14_8 C28_8 1_555 1_555
C29_8 C24_8 1_555 1_555
H15_8 C29_8 1_555 1_555
C30_8 C27_8 1_555 1_555
O1_8 C7_8 1_555 1_555
O23_4 C22_8 1_555 1_555
O25_4 C22_8 1_555 1_555
O7_8 C23_8 1_555 1_555
O26_2 C30_8 1_555 1_555
O29_2 C30_8 1_555 1_555
C5_8 C6_8 1_555 1_555
C28_8 C29_8 1_555 1_555
H6_8 C12_8 1_555 1_555
H10_8 C20_8 1_555 1_555
H11_8 C21_8 1_555 1_555
O3_8 C14_8 1_555 1_555
C34_8 H16_8 1_555 1_555
C35_8 C34_8 1_555 1_555
C36_8 C35_8 1_555 1_555
H17_8 C36_8 1_555 1_555
C39_8 C34_8 1_555 1_555
C40_8 C39_8 1_555 1_555
C41_8 C40_8 1_555 1_555
C42_8 C41_8 1_555 1_555
H19_8 C42_8 1_555 1_555
C43_8 C42_8 1_555 1_555
H20_8 C43_8 1_555 1_555
C44_8 C43_8 1_555 1_555
C45_8 C44_8 1_555 1_555
H21_8 C45_8 1_555 1_555
C46_8 C41_8 1_555 1_555
H22_8 C46_8 1_555 1_555
C47_8 C44_8 1_555 1_555
C48_8 C35_8 1_555 1_555
C49_8 C48_8 1_555 1_555
C50_8 C49_8 1_555 1_555
H23_8 C50_8 1_555 1_555
C51_8 C50_8 1_555 1_555
H24_8 C51_8 1_555 1_555
C52_8 C51_8 1_555 1_555
C53_8 C52_8 1_555 1_555
H25_8 C53_8 1_555 1_555
C54_8 C49_8 1_555 1_555
H26_8 C54_8 1_555 1_555
C55_8 C52_8 1_555 1_555
O11_8 C40_8 1_555 1_555
O13_8 Dy11 1_555 1_555
O14_8 C48_8 1_555 1_555
O24_2 C55_8 1_555 1_555
O25_3 C55_8 1_555 1_555
C20_8 C21_8 1_555 1_555
O3_8 Dy11 1_555 1_555
C45_8 C46_8 1_555 1_555
C47_8 O22 1_555 1_555
C47_8 O13_8 1_555 1_555
C53_8 C54_8 1_555 1_555
C38_8 C37_8 1_555 1_555
H18_8 C38_8 1_555 1_555
C56_8 C37_8 1_555 1_555
C57_8 C56_8 1_555 1_555
C61_8 C60_8 1_555 1_555
H29_8 C61_8 1_555 1_555
C62_8 C57_8 1_555 1_555
H30_8 C62_8 1_555 1_555
C63_8 C60_8 1_555 1_555
O17_8 C56_8 1_555 1_555
O27_2 C63_8 1_555 1_555
C61_8 C62_8 1_555 1_555
H27_8 C58_8 1_555 1_555
C59_8 C58_8 1_555 1_555
H28_8 C59_8 1_555 1_555
C31_7 N1_7 1_555 1_555
C32_7 N1_7 1_555 1_555
C32_7 H32_7 1_555 1_555
C32_7 H34_7 1_555 1_555
C31_7 H35_7 1_555 1_555
C31_7 H36_7 1_555 1_555
C31_7 H37_7 1_555 1_555
C64_7 N2_7 1_555 1_555
C65_7 N2_7 1_555 1_555
C65_7 H38_7 1_555 1_555
C65_7 H40_7 1_555 1_555
C64_7 H41_7 1_555 1_555
C64_7 H42_7 1_555 1_555
C64_7 H43_7 1_555 1_555
C64_8 N2_8 1_555 1_555
C65_8 N2_8 1_555 1_555
C65_8 H38_8 1_555 1_555
C65_8 H39_8 1_555 1_555
C65_8 H40_8 1_555 1_555
C64_8 H41_8 1_555 1_555
C64_8 H42_8 1_555 1_555
C64_8 H43_8 1_555 1_555
C31_8 N1_8 1_555 1_555
C32_8 N1_8 1_555 1_555
C32_8 H32_8 1_555 1_555
C32_8 H33_8 1_555 1_555
C32_8 H34_8 1_555 1_555
C31_8 H35_8 1_555 1_555
C31_8 H36_8 1_555 1_555
C31_8 H37_8 1_555 1_555

#END
