
###############################################################################
#
# This file contains modified crystal structure data generated from the
# MOF subset of the Cambridge Structural Database (CSD) v543 
# hosted by the Cambridge Crystallographic Data Centre (CCDC).
#
# This work is licensed under the Creative Commons
# Attribution-NonCommercial-ShareAlike 4.0 International License.
# To view a copy of this license, visit
# http://creativecommons.org/licenses/by-nc-sa/4.0/
# or send a letter to
# Creative Commons, PO Box 1866, Mountain View, CA 94042, USA.
#
# CIF created using the CSD Python API on 29 September 2022
# The structure has been converted into the P1 space group
# The structure has a 3D framework
# The original CSD entry QIFMAW is in the orthorhombic crystal system
# The framework has been calculated to contain at least 10.0% void space
# The void calculation uses a probe of radius 1.32A, grid spacing 0.4
# H atom positions have been added when not included in the experimental data
#
###############################################################################

data_QIFMAW
_chemical_formula_moiety         '(C528 H356 N16 O150 Yb21)n'
_symmetry_cell_setting           triclinic
_symmetry_space_group_name_H-M   'P 1'
_symmetry_Int_Tables_number      1
_space_group_name_Hall           'P 1'
loop_
_symmetry_equiv_pos_site_id
_symmetry_equiv_pos_as_xyz
1 x,y,z
_cell_length_a                   8.3765(6)
_cell_length_b                   34.734(3)
_cell_length_c                   51.780(4)
_cell_angle_alpha                90
_cell_angle_beta                 90
_cell_angle_gamma                90
_cell_volume                     15065.4
loop_
_atom_site_label
_atom_site_type_symbol
_atom_site_fract_x
_atom_site_fract_y
_atom_site_fract_z
Yb1 Yb 0.000000 0.000000 0.03037(2)
H1 H 0.081688 0.272208 0.009829
H7 H 0.028031 0.148452 0.014349
C26 C 0.050(2) 0.3814(5) 0.0080(4)
C27 C 0.169(2) 0.4060(5) 0.0017(4)
C30 C 0.181(2) 0.4431(4) 0.0153(3)
O8 O 0.0554(19) 0.4590(4) 0.0238(3)
O9 O 0.3203(16) 0.4585(3) 0.0160(3)
Yb7 Yb 0.500000 0.500000 0.03037(2)
Yb11 Yb 0.000000 0.500000 0.05583(2)
O24 O 0.0621(19) 0.0370(4) 0.0667(3)
O29 O 0.1797(16) 0.0415(3) 0.0160(3)
C1 C 0.033(2) 0.2569(5) 0.9974(4)
C6 C 0.044(2) 0.2657(5) 0.9710(4)
H8 H 0.074115 0.192758 0.914796
C18 C 0.014(2) 0.2004(5) 0.8772(4)
H9 H 0.118134 0.201643 0.870967
C23 C 0.133(2) 0.2995(5) 0.9619(4)
C24 C 0.2678(19) 0.3613(5) 0.9712(4)
H12 H 0.342980 0.354125 0.958891
C25 C 0.041(2) 0.3459(5) 0.9958(4)
C28 C 0.2794(19) 0.3968(5) 0.9833(4)
H15 H 0.360179 0.413923 0.978877
C29 C 0.1459(19) 0.3366(5) 0.9774(4)
O5 O 0.0623(15) 0.2232(4) 0.8279(3)
O7 O 0.1860(16) 0.2994(4) 0.9400(3)
Yb9 Yb 0.250000 0.250000 0.80583(2)
Yb1_2 Yb -0.000000 1.000000 0.03037(2)
O21 O 0.2289(14) 0.9674(3) 0.0421(5)
C31 C 0.438(4) 0.9445(11) 0.9534(7)
H16 H 0.441581 0.934743 0.936101
H17 H 0.497794 0.968015 0.954426
H18 H 0.483718 0.925854 0.964990
C32 C 0.242(3) 0.9652(10) 0.9838(6)
O10 O 0.1046(18) 0.9691(4) 0.9926(3)
N1 N 0.273(3) 0.9518(8) 0.9608(4)
C33 C 0.150(5) 0.9422(12) 0.9422(8)
H19 H 0.198637 0.936276 0.925857
H20 H 0.079293 0.963792 0.940112
H21 H 0.090576 0.920364 0.948153
H43 H 0.342141 0.973456 0.996015
Yb1_3 Yb 1.000000 0.000000 0.03037(2)
Yb2 Yb 0.500000 0.000000 0.05583(2)
C2 C 0.946(2) 0.2238(5) 0.0042(4)
C7 C 0.923(2) 0.2158(5) 0.0325(4)
C8 C 0.885(2) 0.1751(5) 0.0402(4)
C9 C 0.781(2) 0.1688(6) 0.0596(4)
H4 H 0.744197 0.189658 0.069257
C10 C 0.726(2) 0.1318(5) 0.0657(4)
H5 H 0.647192 0.127934 0.078125
C11 C 0.795(2) 0.1004(5) 0.0523(4)
C12 C 0.907(2) 0.1079(5) 0.0337(4)
H6 H 0.953921 0.087254 0.025159
C13 C 0.953(2) 0.1444(5) 0.0272(4)
C14 C 0.727(2) 0.0607(5) 0.0564(4)
H13 H 0.960815 0.328555 0.000334
H14 H 0.974655 0.388185 0.020418
O1 O 0.934(2) 0.2408(3) 0.0481(3)
O2 O 0.6166(14) 0.0562(4) 0.0727(3)
O3 O 0.7711(14) 0.0326(3) 0.0421(5)
Yb11_2 Yb 1.000000 0.500000 0.05583(2)
O22 O 0.3123(15) 0.0268(4) 0.0779(3)
O27 O 0.4446(19) 0.0410(4) 0.0238(3)
C3 C 0.875(2) 0.2014(5) 0.9854(4)
H2 H 0.817394 0.179879 0.990546
C4 C 0.884(2) 0.2093(5) 0.9592(4)
C5 C 0.966(2) 0.2427(4) 0.9523(4)
H3 H 0.969422 0.249991 0.935053
C15 C 0.796(2) 0.1883(5) 0.9409(4)
C16 C 0.832(2) 0.1920(5) 0.9127(4)
C17 C 0.988(2) 0.1947(5) 0.9035(4)
C19 C 0.888(2) 0.2041(5) 0.8603(4)
C20 C 0.732(2) 0.1999(5) 0.8687(4)
H10 H 0.648320 0.201100 0.856975
C21 C 0.702(2) 0.1938(5) 0.8955(4)
H11 H 0.597715 0.190969 0.901503
C22 C 0.9171(19) 0.2132(4) 0.8330(3)
O4 O 0.6906(17) 0.1652(4) 0.9472(3)
O6 O 0.8121(19) 0.2130(4) 0.8167(3)
C64 C 0.562(4) 0.0555(11) 0.9534(7)
H37 H 0.558419 0.065257 0.936101
H38 H 0.502206 0.031985 0.954426
H39 H 0.516282 0.074146 0.964990
C65 C 0.758(3) 0.0348(10) 0.9838(6)
O20 O 0.8954(18) 0.0309(4) 0.9926(3)
N2 N 0.727(3) 0.0482(8) 0.9608(4)
C66 C 0.850(5) 0.0578(12) 0.9422(8)
H40 H 0.801363 0.063724 0.925857
H41 H 0.920707 0.036208 0.940112
H42 H 0.909424 0.079636 0.948153
Yb5 Yb 0.750000 0.250000 0.78037(2)
H44 H 0.657859 0.0265439 0.996015
Yb1_4 Yb 1.000000 1.000000 0.03037(2)
Yb2_2 Yb 0.500000 1.000000 0.05583(2)
C35 C 0.054(2) 0.7762(5) 0.0042(4)
C40 C 0.077(2) 0.7842(5) 0.0325(4)
C41 C 0.115(2) 0.8249(5) 0.0402(4)
C42 C 0.219(2) 0.8312(6) 0.0596(4)
H25 H 0.255803 0.810342 0.069257
C43 C 0.274(2) 0.8682(5) 0.0657(4)
H26 H 0.352808 0.872066 0.078125
C44 C 0.205(2) 0.8996(5) 0.0523(4)
C45 C 0.093(2) 0.8921(5) 0.0337(4)
H27 H 0.046079 0.912746 0.025159
C46 C 0.047(2) 0.8556(5) 0.0272(4)
C47 C 0.273(2) 0.9393(5) 0.0564(4)
H34 H 0.039185 0.671445 0.000334
H35 H 0.025345 0.611815 0.020418
O11 O 0.066(2) 0.7592(3) 0.0481(3)
O12 O 0.3834(14) 0.9438(4) 0.0727(3)
O23 O 0.6877(15) 0.9732(4) 0.0779(3)
O25 O 0.9379(19) 0.9630(4) 0.0667(3)
O26 O 0.5554(19) 0.9590(4) 0.0238(3)
O28 O 0.8203(16) 0.9585(3) 0.0160(3)
C36 C 0.125(2) 0.7986(5) 0.9854(4)
H23 H 0.182606 0.820121 0.990546
C37 C 0.116(2) 0.7907(5) 0.9592(4)
C38 C 0.034(2) 0.7573(4) 0.9523(4)
H24 H 0.030578 0.750009 0.935053
C48 C 0.204(2) 0.8117(5) 0.9409(4)
C49 C 0.168(2) 0.8080(5) 0.9127(4)
C50 C 0.012(2) 0.8053(5) 0.9035(4)
C52 C 0.112(2) 0.7959(5) 0.8603(4)
C53 C 0.268(2) 0.8001(5) 0.8687(4)
H31 H 0.351680 0.798900 0.856975
C54 C 0.298(2) 0.8062(5) 0.8955(4)
H32 H 0.402285 0.809031 0.901503
C55 C 0.0829(19) 0.7868(4) 0.8330(3)
O14 O 0.3094(17) 0.8348(4) 0.9472(3)
O16 O 0.1879(19) 0.7870(4) 0.8167(3)
Yb4 Yb 0.250000 0.750000 0.78037(2)
H22 H 0.918312 0.727792 0.009829
H28 H 0.971969 0.851548 0.014349
C59 C 0.950(2) 0.6186(5) 0.0080(4)
C60 C 0.831(2) 0.5940(5) 0.0017(4)
C63 C 0.819(2) 0.5569(4) 0.0153(3)
O18 O 0.9446(19) 0.5410(4) 0.0238(3)
O19 O 0.6797(16) 0.5415(3) 0.0160(3)
C34 C 0.967(2) 0.7431(5) 0.9974(4)
C39 C 0.956(2) 0.7343(5) 0.9710(4)
H29 H 0.925885 0.807242 0.914796
C51 C 0.986(2) 0.7996(5) 0.8772(4)
H30 H 0.881866 0.798357 0.870967
C56 C 0.867(2) 0.7005(5) 0.9619(4)
C57 C 0.7322(19) 0.6387(5) 0.9712(4)
H33 H 0.657020 0.645875 0.958891
C58 C 0.959(2) 0.6541(5) 0.9958(4)
C61 C 0.7206(19) 0.6032(5) 0.9833(4)
H36 H 0.639821 0.586077 0.978877
C62 C 0.8541(19) 0.6634(5) 0.9774(4)
O15 O 0.9377(15) 0.7768(4) 0.8279(3)
O17 O 0.8140(16) 0.7006(4) 0.9400(3)
Yb8 Yb 0.750000 0.750000 0.80583(2)
Yb1_5 Yb 0.250000 0.250000 0.28037(2)
C2_2 C 0.196(2) 0.0262(5) 0.2542(4)
C3_2 C 0.125(2) 0.0486(5) 0.2354(4)
H2_2 H 0.067394 0.070121 0.240546
C4_2 C 0.134(2) 0.0407(5) 0.2092(4)
C5_2 C 0.216(2) 0.0073(4) 0.2023(4)
H3_2 H 0.219422 0.000009 0.185053
C7_2 C 0.173(2) 0.0342(5) 0.2825(4)
C8_2 C 0.135(2) 0.0749(5) 0.2902(4)
C9_2 C 0.031(2) 0.0812(6) 0.3096(4)
C11_2 C 0.045(2) 0.1496(5) 0.3023(4)
C12_2 C 0.157(2) 0.1421(5) 0.2837(4)
H6_2 H 0.203921 0.162746 0.275159
C13_2 C 0.203(2) 0.1056(5) 0.2772(4)
H7_2 H 0.278031 0.101548 0.264349
C15_2 C 0.046(2) 0.0617(5) 0.1909(4)
C16_2 C 0.082(2) 0.0580(5) 0.1627(4)
C17_2 C 0.238(2) 0.0553(5) 0.1535(4)
H8_2 H 0.324115 0.057242 0.164796
C18_2 C 0.264(2) 0.0496(5) 0.1272(4)
H9_2 H 0.368134 0.048357 0.120967
C19_2 C 0.138(2) 0.0459(5) 0.1103(4)
C22_2 C 0.1671(19) 0.0368(4) 0.0830(3)
C31_2 C 0.688(4) 0.3055(11) 0.2034(7)
H16_2 H 0.691581 0.315257 0.186101
H17_2 H 0.747794 0.281985 0.204426
H18_2 H 0.733718 0.324146 0.214990
C32_2 C 0.492(3) 0.2848(10) 0.2338(6)
O1_2 O 0.184(2) 0.0092(3) 0.2981(3)
O3_2 O 0.0211(14) 0.2174(3) 0.2921(5)
O10_2 O 0.3546(18) 0.2809(4) 0.2426(3)
N1_2 N 0.523(3) 0.2982(8) 0.2108(4)
C33_2 C 0.400(5) 0.3078(12) 0.1922(8)
H19_2 H 0.448637 0.313724 0.175857
H20_2 H 0.329293 0.286208 0.190112
H21_2 H 0.340576 0.329636 0.198153
C65_2 C 0.008(3) 0.2152(10) 0.2338(6)
O20_2 O 0.1454(18) 0.2191(4) 0.2426(3)
C66_2 C 0.100(5) 0.1922(12) 0.1922(8)
H40_2 H 0.051363 0.186276 0.175857
H41_2 H 0.170707 0.213792 0.190112
H42_2 H 0.159424 0.170364 0.198153
O21_2 O 0.4789(14) 0.2826(3) 0.2921(5)
O24_2 O 0.3121(19) 0.2130(4) 0.3167(3)
O25_2 O 0.1879(19) 0.2870(4) 0.3167(3)
O28_2 O 0.0703(16) 0.2915(3) 0.2660(3)
O29_2 O 0.4297(16) 0.2085(3) 0.2660(3)
H43_2 H 0.592141 0.276544 0.246015
C1_2 C 0.283(2) 0.9931(5) 0.2474(4)
H1_2 H 0.331688 0.977792 0.259829
H3_3 H 0.219422 1.000009 0.185053
C6_2 C 0.294(2) 0.9843(5) 0.2210(4)
C23_2 C 0.383(2) 0.9505(5) 0.2119(4)
C24_2 C 0.5178(19) 0.8887(5) 0.2212(4)
H12_2 H 0.592980 0.895875 0.208891
C25_2 C 0.291(2) 0.9041(5) 0.2458(4)
H13_2 H 0.210815 0.921445 0.250334
C26_2 C 0.300(2) 0.8686(5) 0.2580(4)
H14_2 H 0.224655 0.861815 0.270418
C27_2 C 0.419(2) 0.8440(5) 0.2517(4)
C28_2 C 0.5294(19) 0.8532(5) 0.2333(4)
H15_2 H 0.610179 0.836077 0.228877
C29_2 C 0.3959(19) 0.9134(5) 0.2274(4)
C30_2 C 0.431(2) 0.8069(4) 0.2653(3)
O7_2 O 0.4360(16) 0.9506(4) 0.1900(3)
O8_2 O 0.3054(19) 0.7910(4) 0.2738(3)
O9_2 O 0.5703(16) 0.7915(3) 0.2660(3)
Yb7_2 Yb 0.750000 0.750000 0.28037(2)
Yb11_3 Yb 0.250000 0.750000 0.30583(2)
Yb2_3 Yb 0.750000 0.250000 0.30583(2)
H4_2 H 0.994197 0.060342 0.319257
C10_2 C 0.976(2) 0.1182(5) 0.3157(4)
H5_2 H 0.897192 0.122066 0.328125
C14_2 C 0.977(2) 0.1893(5) 0.3064(4)
C20_2 C 0.982(2) 0.0501(5) 0.1187(4)
H10_2 H 0.898320 0.048900 0.106975
C21_2 C 0.952(2) 0.0562(5) 0.1455(4)
H11_2 H 0.847715 0.059031 0.151503
O2_2 O 0.8666(14) 0.1938(4) 0.3227(3)
O4_2 O 0.9406(17) 0.0848(4) 0.1972(3)
C34_2 C 0.217(2) 0.5069(5) 0.2474(4)
H22_2 H 0.168312 0.522208 0.259829
C35_2 C 0.304(2) 0.4738(5) 0.2542(4)
C36_2 C 0.375(2) 0.4514(5) 0.2354(4)
H23_2 H 0.432606 0.429879 0.240546
C37_2 C 0.366(2) 0.4593(5) 0.2092(4)
C38_2 C 0.284(2) 0.4927(4) 0.2023(4)
H24_2 H 0.280578 0.499991 0.185053
C39_2 C 0.206(2) 0.5157(5) 0.2210(4)
C40_2 C 0.327(2) 0.4658(5) 0.2825(4)
C41_2 C 0.365(2) 0.4251(5) 0.2902(4)
C42_2 C 0.469(2) 0.4188(6) 0.3096(4)
H25_2 H 0.505803 0.439658 0.319257
C43_2 C 0.524(2) 0.3818(5) 0.3157(4)
H26_2 H 0.602808 0.377934 0.328125
C44_2 C 0.455(2) 0.3504(5) 0.3023(4)
C45_2 C 0.343(2) 0.3579(5) 0.2837(4)
H27_2 H 0.296079 0.337254 0.275159
C46_2 C 0.297(2) 0.3944(5) 0.2772(4)
H28_2 H 0.221969 0.398452 0.264349
C47_2 C 0.523(2) 0.3107(5) 0.3064(4)
C48_2 C 0.454(2) 0.4383(5) 0.1909(4)
C49_2 C 0.418(2) 0.4420(5) 0.1627(4)
C50_2 C 0.262(2) 0.4447(5) 0.1535(4)
H29_2 H 0.175885 0.442758 0.164796
C51_2 C 0.236(2) 0.4504(5) 0.1272(4)
H30_2 H 0.131866 0.451643 0.120967
C52_2 C 0.362(2) 0.4541(5) 0.1103(4)
C53_2 C 0.518(2) 0.4499(5) 0.1187(4)
H31_2 H 0.601680 0.451100 0.106975
C54_2 C 0.548(2) 0.4438(5) 0.1455(4)
H32_2 H 0.652285 0.440969 0.151503
C55_2 C 0.3329(19) 0.4632(4) 0.0830(3)
C56_2 C 0.117(2) 0.5495(5) 0.2119(4)
C58_2 C 0.209(2) 0.5959(5) 0.2458(4)
H34_2 H 0.289185 0.578555 0.250334
C59_2 C 0.200(2) 0.6314(5) 0.2580(4)
H35_2 H 0.275345 0.638185 0.270418
C60_2 C 0.081(2) 0.6560(5) 0.2517(4)
C62_2 C 0.1041(19) 0.5866(5) 0.2274(4)
C63_2 C 0.069(2) 0.6931(4) 0.2653(3)
O11_2 O 0.316(2) 0.4908(3) 0.2981(3)
O12_2 O 0.6334(14) 0.3062(4) 0.3227(3)
O14_2 O 0.5594(17) 0.4152(4) 0.1972(3)
O15_2 O 0.1877(15) 0.4732(4) 0.0779(3)
O16_2 O 0.4379(19) 0.4630(4) 0.0667(3)
O17_2 O 0.0640(16) 0.5494(4) 0.1900(3)
O18_2 O 0.1946(19) 0.7090(4) 0.2738(3)
C64_2 C 0.812(4) 0.1945(11) 0.2034(7)
H37_2 H 0.808419 0.184743 0.186101
H38_2 H 0.752206 0.218015 0.204426
H39_2 H 0.766282 0.175854 0.214990
N2_2 N 0.977(3) 0.2018(8) 0.2108(4)
O22_2 O 0.5623(15) 0.2232(4) 0.3279(3)
O23_2 O 0.9377(15) 0.2768(4) 0.3279(3)
O26_2 O 0.8054(19) 0.2910(4) 0.2738(3)
O27_2 O 0.6946(19) 0.2090(4) 0.2738(3)
H44_2 H 0.907859 0.223456 0.246015
C57_2 C 0.9822(19) 0.6113(5) 0.2212(4)
H33_2 H 0.907020 0.604125 0.208891
C61_2 C 0.9706(19) 0.6468(5) 0.2333(4)
H36_2 H 0.889821 0.663923 0.228877
O19_2 O 0.9297(16) 0.7085(3) 0.2660(3)
Yb7_3 Yb 0.500000 0.000000 0.53037(2)
Yb11_4 Yb 0.000000 0.000000 0.55583(2)
Yb1_6 Yb 0.000000 0.500000 0.53037(2)
C1_3 C 0.033(2) 0.7569(5) 0.4974(4)
H1_3 H 0.081688 0.772208 0.509829
C6_3 C 0.044(2) 0.7657(5) 0.4710(4)
H7_3 H 0.028031 0.648452 0.514349
H8_3 H 0.074115 0.692758 0.414796
C18_3 C 0.014(2) 0.7004(5) 0.3772(4)
H9_3 H 0.118134 0.701643 0.370967
C23_3 C 0.133(2) 0.7995(5) 0.4619(4)
C24_3 C 0.2678(19) 0.8613(5) 0.4712(4)
H12_3 H 0.342980 0.854125 0.458891
C25_3 C 0.041(2) 0.8459(5) 0.4958(4)
C26_3 C 0.050(2) 0.8814(5) 0.5080(4)
C27_3 C 0.169(2) 0.9060(5) 0.5017(4)
C28_3 C 0.2794(19) 0.8968(5) 0.4833(4)
H15_3 H 0.360179 0.913923 0.478877
C29_3 C 0.1459(19) 0.8366(5) 0.4774(4)
C30_3 C 0.181(2) 0.9431(4) 0.5153(3)
C31_3 C 0.438(4) 0.4445(11) 0.4534(7)
H16_3 H 0.441581 0.434743 0.436101
H17_3 H 0.497794 0.468015 0.454426
H18_3 H 0.483718 0.425854 0.464990
C32_3 C 0.242(3) 0.4652(10) 0.4838(6)
O5_2 O 0.0623(15) 0.7232(4) 0.3279(3)
O7_3 O 0.1860(16) 0.7994(4) 0.4400(3)
O8_3 O 0.0554(19) 0.9590(4) 0.5238(3)
O9_3 O 0.3203(16) 0.9585(3) 0.5160(3)
O10_3 O 0.1046(18) 0.4691(4) 0.4926(3)
N1_3 N 0.273(3) 0.4518(8) 0.4608(4)
C33_3 C 0.150(5) 0.4422(12) 0.4422(8)
H19_3 H 0.198637 0.436276 0.425857
H20_3 H 0.079293 0.463792 0.440112
H21_3 H 0.090576 0.420364 0.448153
Yb7_4 Yb 0.500000 1.000000 0.53037(2)
Yb11_5 Yb 0.000000 1.000000 0.55583(2)
O21_3 O 0.2289(14) 0.4674(3) 0.5421(5)
O24_3 O 0.0621(19) 0.5370(4) 0.5667(3)
O29_3 O 0.1797(16) 0.5415(3) 0.5160(3)
H43_3 H 0.342141 0.473456 0.496015
Yb11_6 Yb 1.000000 0.000000 0.55583(2)
Yb1_7 Yb 1.000000 0.500000 0.53037(2)
Yb2_4 Yb 0.500000 0.500000 0.55583(2)
C2_3 C 0.946(2) 0.7238(5) 0.5042(4)
C3_3 C 0.875(2) 0.7014(5) 0.4854(4)
H2_3 H 0.817394 0.679879 0.490546
C4_3 C 0.884(2) 0.7093(5) 0.4592(4)
C5_3 C 0.966(2) 0.7427(4) 0.4523(4)
H3_4 H 0.969422 0.749991 0.435053
C7_3 C 0.923(2) 0.7158(5) 0.5325(4)
C8_3 C 0.885(2) 0.6751(5) 0.5402(4)
C9_3 C 0.781(2) 0.6688(6) 0.5596(4)
H4_3 H 0.744197 0.689658 0.569257
C10_3 C 0.726(2) 0.6318(5) 0.5657(4)
H5_3 H 0.647192 0.627934 0.578125
C11_3 C 0.795(2) 0.6004(5) 0.5523(4)
C12_3 C 0.907(2) 0.6079(5) 0.5337(4)
H6_3 H 0.953921 0.587254 0.525159
C13_3 C 0.953(2) 0.6444(5) 0.5272(4)
C14_3 C 0.727(2) 0.5607(5) 0.5564(4)
C15_3 C 0.796(2) 0.6883(5) 0.4409(4)
C16_3 C 0.832(2) 0.6920(5) 0.4127(4)
C17_3 C 0.988(2) 0.6947(5) 0.4035(4)
C19_3 C 0.888(2) 0.7041(5) 0.3603(4)
C20_3 C 0.732(2) 0.6999(5) 0.3687(4)
H10_3 H 0.648320 0.701100 0.356975
C21_3 C 0.702(2) 0.6938(5) 0.3955(4)
H11_3 H 0.597715 0.690969 0.401503
C22_3 C 0.9171(19) 0.7132(4) 0.3330(3)
H13_3 H 0.960815 0.828555 0.500334
H14_3 H 0.974655 0.888185 0.520418
O1_3 O 0.934(2) 0.7408(3) 0.5481(3)
O2_3 O 0.6166(14) 0.5562(4) 0.5727(3)
O3_3 O 0.7711(14) 0.5326(3) 0.5421(5)
O4_3 O 0.6906(17) 0.6652(4) 0.4472(3)
O6_2 O 0.8121(19) 0.7130(4) 0.3167(3)
C35_3 C 0.054(2) 0.2762(5) 0.5042(4)
C36_3 C 0.125(2) 0.2986(5) 0.4854(4)
H23_3 H 0.182606 0.320121 0.490546
C37_3 C 0.116(2) 0.2907(5) 0.4592(4)
C38_3 C 0.034(2) 0.2573(4) 0.4523(4)
H24_3 H 0.030578 0.250009 0.435053
C40_3 C 0.077(2) 0.2842(5) 0.5325(4)
C41_3 C 0.115(2) 0.3249(5) 0.5402(4)
C42_3 C 0.219(2) 0.3312(6) 0.5596(4)
H25_3 H 0.255803 0.310342 0.569257
C43_3 C 0.274(2) 0.3682(5) 0.5657(4)
H26_3 H 0.352808 0.372066 0.578125
C44_3 C 0.205(2) 0.3996(5) 0.5523(4)
C45_3 C 0.093(2) 0.3921(5) 0.5337(4)
H27_3 H 0.046079 0.412746 0.525159
C46_3 C 0.047(2) 0.3556(5) 0.5272(4)
C47_3 C 0.273(2) 0.4393(5) 0.5564(4)
C48_3 C 0.204(2) 0.3117(5) 0.4409(4)
C49_3 C 0.168(2) 0.3080(5) 0.4127(4)
C50_3 C 0.012(2) 0.3053(5) 0.4035(4)
C52_3 C 0.112(2) 0.2959(5) 0.3603(4)
C53_3 C 0.268(2) 0.3001(5) 0.3687(4)
H31_3 H 0.351680 0.298900 0.356975
C54_3 C 0.298(2) 0.3062(5) 0.3955(4)
H32_3 H 0.402285 0.309031 0.401503
C55_3 C 0.0829(19) 0.2868(4) 0.3330(3)
H34_3 H 0.039185 0.171445 0.500334
H35_3 H 0.025345 0.111815 0.520418
O11_3 O 0.066(2) 0.2592(3) 0.5481(3)
O12_3 O 0.3834(14) 0.4438(4) 0.5727(3)
O14_3 O 0.3094(17) 0.3348(4) 0.4472(3)
C64_3 C 0.562(4) 0.5555(11) 0.4534(7)
H37_3 H 0.558419 0.565257 0.436101
H38_3 H 0.502206 0.531985 0.454426
H39_3 H 0.516282 0.574146 0.464990
C65_3 C 0.758(3) 0.5348(10) 0.4838(6)
O20_3 O 0.8954(18) 0.5309(4) 0.4926(3)
N2_3 N 0.727(3) 0.5482(8) 0.4608(4)
C66_3 C 0.850(5) 0.5578(12) 0.4422(8)
H40_3 H 0.801363 0.563724 0.425857
H41_3 H 0.920707 0.536208 0.440112
H42_3 H 0.909424 0.579636 0.448153
Yb11_7 Yb 1.000000 1.000000 0.55583(2)
O22_3 O 0.3123(15) 0.5268(4) 0.5779(3)
O23_3 O 0.6877(15) 0.4732(4) 0.5779(3)
O25_3 O 0.9379(19) 0.4630(4) 0.5667(3)
O26_3 O 0.5554(19) 0.4590(4) 0.5238(3)
O27_3 O 0.4446(19) 0.5410(4) 0.5238(3)
O28_3 O 0.8203(16) 0.4585(3) 0.5160(3)
H44_3 H 0.657859 0.526544 0.496015
C34_3 C 0.967(2) 0.2431(5) 0.4974(4)
H22_3 H 0.918312 0.227792 0.509829
C39_3 C 0.956(2) 0.2343(5) 0.4710(4)
H28_3 H 0.971969 0.351548 0.514349
H29_3 H 0.925885 0.307242 0.414796
C51_3 C 0.986(2) 0.2996(5) 0.3772(4)
H30_3 H 0.881866 0.298357 0.370967
C56_3 C 0.867(2) 0.2005(5) 0.4619(4)
C57_3 C 0.7322(19) 0.1387(5) 0.4712(4)
H33_3 H 0.657020 0.145875 0.458891
C58_3 C 0.959(2) 0.1541(5) 0.4958(4)
C59_3 C 0.950(2) 0.1186(5) 0.5080(4)
C60_3 C 0.831(2) 0.0940(5) 0.5017(4)
C61_3 C 0.7206(19) 0.1032(5) 0.4833(4)
H36_3 H 0.639821 0.086077 0.478877
C62_3 C 0.8541(19) 0.1634(5) 0.4774(4)
C63_3 C 0.819(2) 0.0569(4) 0.5153(3)
O17_3 O 0.8140(16) 0.2006(4) 0.4400(3)
O18_3 O 0.9446(19) 0.0410(4) 0.5238(3)
O19_3 O 0.6797(16) 0.0415(3) 0.5160(3)
C1_4 C 0.283(2) 0.4931(5) 0.7474(4)
H1_4 H 0.331688 0.477792 0.759829
C2_4 C 0.196(2) 0.5262(5) 0.7542(4)
C3_4 C 0.125(2) 0.5486(5) 0.7354(4)
H2_4 H 0.067394 0.570121 0.740546
C4_4 C 0.134(2) 0.5407(5) 0.7092(4)
C5_4 C 0.216(2) 0.5073(4) 0.7023(4)
H3_5 H 0.219422 0.500009 0.685053
C6_4 C 0.294(2) 0.4843(5) 0.7210(4)
C7_4 C 0.173(2) 0.5342(5) 0.7825(4)
C8_4 C 0.135(2) 0.5749(5) 0.7902(4)
C9_4 C 0.031(2) 0.5812(6) 0.8096(4)
C11_4 C 0.045(2) 0.6496(5) 0.8023(4)
C12_4 C 0.157(2) 0.6421(5) 0.7837(4)
H6_4 H 0.203921 0.662746 0.775159
C13_4 C 0.203(2) 0.6056(5) 0.7772(4)
H7_4 H 0.278031 0.601548 0.764349
C15_4 C 0.046(2) 0.5617(5) 0.6909(4)
C16_4 C 0.082(2) 0.5580(5) 0.6627(4)
C17_4 C 0.238(2) 0.5553(5) 0.6535(4)
H8_4 H 0.324115 0.557242 0.664796
C18_4 C 0.264(2) 0.5496(5) 0.6272(4)
H9_4 H 0.368134 0.548357 0.620967
C19_4 C 0.138(2) 0.5459(5) 0.6103(4)
C22_4 C 0.1671(19) 0.5368(4) 0.5830(3)
C23_4 C 0.383(2) 0.4505(5) 0.7119(4)
C24_4 C 0.5178(19) 0.3887(5) 0.7212(4)
H12_4 H 0.592980 0.395875 0.708891
C25_4 C 0.291(2) 0.4041(5) 0.7458(4)
H13_4 H 0.210815 0.421445 0.750334
C26_4 C 0.300(2) 0.3686(5) 0.7580(4)
H14_4 H 0.224655 0.361815 0.770418
C27_4 C 0.419(2) 0.3440(5) 0.7517(4)
C28_4 C 0.5294(19) 0.3532(5) 0.7333(4)
H15_4 H 0.610179 0.336077 0.728877
C29_4 C 0.3959(19) 0.4134(5) 0.7274(4)
C30_4 C 0.431(2) 0.3069(4) 0.7653(3)
C31_4 C 0.688(4) 0.8055(11) 0.7034(7)
H16_4 H 0.691581 0.815257 0.686101
H17_4 H 0.747794 0.781985 0.704426
H18_4 H 0.733718 0.824146 0.714990
C32_4 C 0.492(3) 0.7848(10) 0.7338(6)
O1_4 O 0.184(2) 0.5092(3) 0.7981(3)
O3_4 O 0.0211(14) 0.7174(3) 0.7921(5)
O7_4 O 0.4360(16) 0.4506(4) 0.6900(3)
O8_4 O 0.3054(19) 0.2910(4) 0.7738(3)
O9_4 O 0.5703(16) 0.2915(3) 0.7660(3)
O10_4 O 0.3546(18) 0.7809(4) 0.7426(3)
N1_4 N 0.523(3) 0.7982(8) 0.7108(4)
C33_4 C 0.400(5) 0.8078(12) 0.6922(8)
H19_4 H 0.448637 0.813724 0.675857
H20_4 H 0.329293 0.786208 0.690112
H21_4 H 0.340576 0.829636 0.698153
C65_4 C 0.008(3) 0.7152(10) 0.7338(6)
O20_4 O 0.1454(18) 0.7191(4) 0.7426(3)
C66_4 C 0.100(5) 0.6922(12) 0.6922(8)
H40_4 H 0.051363 0.686276 0.675857
H41_4 H 0.170707 0.713792 0.690112
H42_4 H 0.159424 0.670364 0.698153
O21_4 O 0.4789(14) 0.7826(3) 0.7921(5)
O24_4 O 0.3121(19) 0.7130(4) 0.8167(3)
O28_4 O 0.0703(16) 0.7915(3) 0.7660(3)
O29_4 O 0.4297(16) 0.7085(3) 0.7660(3)
H43_4 H 0.592141 0.776544 0.746015
C34_4 C 0.217(2) 0.0069(5) 0.7474(4)
H22_4 H 0.168312 0.022208 0.759829
H24_4 H 0.280578 -0.000009 0.685053
C39_4 C 0.206(2) 0.0157(5) 0.7210(4)
C56_4 C 0.117(2) 0.0495(5) 0.7119(4)
C58_4 C 0.209(2) 0.0959(5) 0.7458(4)
H34_4 H 0.289185 0.078555 0.750334
C59_4 C 0.200(2) 0.1314(5) 0.7580(4)
H35_4 H 0.275345 0.138185 0.770418
C60_4 C 0.081(2) 0.1560(5) 0.7517(4)
C62_4 C 0.1041(19) 0.0866(5) 0.7274(4)
C63_4 C 0.069(2) 0.1931(4) 0.7653(3)
O17_4 O 0.0640(16) 0.0494(4) 0.6900(3)
O18_4 O 0.1946(19) 0.2090(4) 0.7738(3)
H4_4 H 0.994197 0.560342 0.819257
C10_4 C 0.976(2) 0.6182(5) 0.8157(4)
H5_4 H 0.897192 0.622066 0.828125
C14_4 C 0.977(2) 0.6893(5) 0.8064(4)
C20_4 C 0.982(2) 0.5501(5) 0.6187(4)
H10_4 H 0.898320 0.548900 0.606975
C21_4 C 0.952(2) 0.5562(5) 0.6455(4)
H11_4 H 0.847715 0.559031 0.651503
O2_4 O 0.8666(14) 0.6938(4) 0.8227(3)
O4_4 O 0.9406(17) 0.5848(4) 0.6972(3)
C35_4 C 0.304(2) 0.9738(5) 0.7542(4)
C36_4 C 0.375(2) 0.9514(5) 0.7354(4)
H23_4 H 0.432606 0.929879 0.740546
C37_4 C 0.366(2) 0.9593(5) 0.7092(4)
C38_4 C 0.284(2) 0.9927(4) 0.7023(4)
H24_5 H 0.280578 0.999991 0.685053
C40_4 C 0.327(2) 0.9658(5) 0.7825(4)
C41_4 C 0.365(2) 0.9251(5) 0.7902(4)
C42_4 C 0.469(2) 0.9188(6) 0.8096(4)
H25_4 H 0.505803 0.939658 0.819257
C43_4 C 0.524(2) 0.8818(5) 0.8157(4)
H26_4 H 0.602808 0.877934 0.828125
C44_4 C 0.455(2) 0.8504(5) 0.8023(4)
C45_4 C 0.343(2) 0.8579(5) 0.7837(4)
H27_4 H 0.296079 0.837254 0.775159
C46_4 C 0.297(2) 0.8944(5) 0.7772(4)
H28_4 H 0.221969 0.898452 0.764349
C47_4 C 0.523(2) 0.8107(5) 0.8064(4)
C48_4 C 0.454(2) 0.9383(5) 0.6909(4)
C49_4 C 0.418(2) 0.9420(5) 0.6627(4)
C50_4 C 0.262(2) 0.9447(5) 0.6535(4)
H29_4 H 0.175885 0.942758 0.664796
C51_4 C 0.236(2) 0.9504(5) 0.6272(4)
H30_4 H 0.131866 0.951643 0.620967
C52_4 C 0.362(2) 0.9541(5) 0.6103(4)
C53_4 C 0.518(2) 0.9499(5) 0.6187(4)
H31_4 H 0.601680 0.951100 0.606975
C54_4 C 0.548(2) 0.9438(5) 0.6455(4)
H32_4 H 0.652285 0.940969 0.651503
C55_4 C 0.3329(19) 0.9632(4) 0.5830(3)
O11_4 O 0.316(2) 0.9908(3) 0.7981(3)
O12_4 O 0.6334(14) 0.8062(4) 0.8227(3)
O14_4 O 0.5594(17) 0.9152(4) 0.6972(3)
O15_3 O 0.1877(15) 0.9732(4) 0.5779(3)
O16_3 O 0.4379(19) 0.9630(4) 0.5667(3)
C64_4 C 0.812(4) 0.6945(11) 0.7034(7)
H37_4 H 0.808419 0.684743 0.686101
H38_4 H 0.752206 0.718015 0.704426
H39_4 H 0.766282 0.675854 0.714990
N2_4 N 0.977(3) 0.7018(8) 0.7108(4)
O22_4 O 0.5623(15) 0.7232(4) 0.8279(3)
O26_4 O 0.8054(19) 0.7910(4) 0.7738(3)
O27_4 O 0.6946(19) 0.7090(4) 0.7738(3)
H44_4 H 0.907859 0.723456 0.746015
C57_4 C 0.9822(19) 0.1113(5) 0.7212(4)
H33_4 H 0.907020 0.104125 0.708891
C61_4 C 0.9706(19) 0.1468(5) 0.7333(4)
H36_4 H 0.889821 0.163923 0.728877
O19_4 O 0.9297(16) 0.2085(3) 0.7660(3)
C1_5 C 0.533(2) 0.2569(5) 0.4974(4)
H1_5 H 0.581688 0.272208 0.509829
C2_5 C 0.446(2) 0.2238(5) 0.5042(4)
C3_5 C 0.375(2) 0.2014(5) 0.4854(4)
H2_5 H 0.317394 0.179879 0.490546
C4_5 C 0.384(2) 0.2093(5) 0.4592(4)
C5_5 C 0.466(2) 0.2427(4) 0.4523(4)
H3_6 H 0.469422 0.249991 0.435053
C6_5 C 0.544(2) 0.2657(5) 0.4710(4)
C7_5 C 0.423(2) 0.2158(5) 0.5325(4)
C8_5 C 0.385(2) 0.1751(5) 0.5402(4)
C9_5 C 0.281(2) 0.1688(6) 0.5596(4)
H4_5 H 0.244197 0.189658 0.569257
C10_5 C 0.226(2) 0.1318(5) 0.5657(4)
H5_5 H 0.147192 0.127934 0.578125
C11_5 C 0.295(2) 0.1004(5) 0.5523(4)
C12_5 C 0.407(2) 0.1079(5) 0.5337(4)
H6_5 H 0.453921 0.087254 0.525159
C13_5 C 0.453(2) 0.1444(5) 0.5272(4)
H7_5 H 0.528031 0.148452 0.514349
C14_5 C 0.227(2) 0.0607(5) 0.5564(4)
C15_5 C 0.296(2) 0.1883(5) 0.4409(4)
C16_5 C 0.332(2) 0.1920(5) 0.4127(4)
C17_5 C 0.488(2) 0.1947(5) 0.4035(4)
H8_5 H 0.574115 0.192758 0.414796
C18_5 C 0.514(2) 0.2004(5) 0.3772(4)
H9_5 H 0.618134 0.201643 0.370967
C19_5 C 0.388(2) 0.2041(5) 0.3603(4)
C20_5 C 0.232(2) 0.1999(5) 0.3687(4)
H10_5 H 0.148320 0.201100 0.356975
C21_5 C 0.202(2) 0.1938(5) 0.3955(4)
H11_5 H 0.097715 0.190969 0.401503
C22_5 C 0.4171(19) 0.2132(4) 0.3330(3)
C23_5 C 0.633(2) 0.2995(5) 0.4619(4)
C24_5 C 0.7678(19) 0.3613(5) 0.4712(4)
H12_5 H 0.842980 0.354125 0.458891
C25_5 C 0.541(2) 0.3459(5) 0.4958(4)
H13_5 H 0.460815 0.328555 0.500334
C26_5 C 0.550(2) 0.3814(5) 0.5080(4)
H14_5 H 0.474655 0.388185 0.520418
C27_5 C 0.669(2) 0.4060(5) 0.5017(4)
C28_5 C 0.7794(19) 0.3968(5) 0.4833(4)
H15_5 H 0.860179 0.413923 0.478877
C29_5 C 0.6459(19) 0.3366(5) 0.4774(4)
C30_5 C 0.681(2) 0.4431(4) 0.5153(3)
O1_5 O 0.434(2) 0.2408(3) 0.5481(3)
O2_5 O 0.1166(14) 0.0562(4) 0.5727(3)
O3_5 O 0.2711(14) 0.0326(3) 0.5421(5)
O4_5 O 0.1906(17) 0.1652(4) 0.4472(3)
O7_5 O 0.6860(16) 0.2994(4) 0.4400(3)
C64_5 C 0.062(4) 0.0555(11) 0.4534(7)
H37_5 H 0.058419 0.065257 0.436101
H38_5 H 0.002206 0.031985 0.454426
H39_5 H 0.016282 0.074146 0.464990
C65_5 C 0.258(3) 0.0348(10) 0.4838(6)
O20_5 O 0.3954(18) 0.0309(4) 0.4926(3)
N2_5 N 0.227(3) 0.0482(8) 0.4608(4)
C66_5 C 0.350(5) 0.0578(12) 0.4422(8)
H40_5 H 0.301363 0.063724 0.425857
H41_5 H 0.420707 0.036208 0.440112
H42_5 H 0.409424 0.079636 0.448153
O24_5 O 0.5621(19) 0.0370(4) 0.5667(3)
H44_5 H 0.157859 0.0265439 0.496015
C31_5 C 0.938(4) 0.9445(11) 0.4534(7)
H16_5 H 0.941581 0.934743 0.436101
H17_5 H 0.997794 0.968015 0.454426
H18_5 H 0.983718 0.925854 0.464990
C32_5 C 0.742(3) 0.9652(10) 0.4838(6)
O10_5 O 0.6046(18) 0.9691(4) 0.4926(3)
N1_5 N 0.773(3) 0.9518(8) 0.4608(4)
C33_5 C 0.650(5) 0.9422(12) 0.4422(8)
H19_5 H 0.698637 0.936276 0.425857
H20_5 H 0.579293 0.963792 0.440112
H21_5 H 0.590576 0.920364 0.448153
O21_5 O 0.7289(14) 0.9674(3) 0.5421(5)
H43_5 H 0.842141 0.973456 0.496015
O22_5 O 0.8123(15) 0.0268(4) 0.5779(3)
C34_5 C 0.467(2) 0.7431(5) 0.4974(4)
H22_5 H 0.418312 0.727792 0.509829
C35_5 C 0.554(2) 0.7762(5) 0.5042(4)
C36_5 C 0.625(2) 0.7986(5) 0.4854(4)
H23_5 H 0.682606 0.820121 0.490546
C37_5 C 0.616(2) 0.7907(5) 0.4592(4)
C38_5 C 0.534(2) 0.7573(4) 0.4523(4)
H24_6 H 0.530578 0.750009 0.435053
C39_5 C 0.456(2) 0.7343(5) 0.4710(4)
C40_5 C 0.577(2) 0.7842(5) 0.5325(4)
C41_5 C 0.615(2) 0.8249(5) 0.5402(4)
C42_5 C 0.719(2) 0.8312(6) 0.5596(4)
H25_5 H 0.755803 0.810342 0.569257
C43_5 C 0.774(2) 0.8682(5) 0.5657(4)
H26_5 H 0.852808 0.872066 0.578125
C44_5 C 0.705(2) 0.8996(5) 0.5523(4)
C45_5 C 0.593(2) 0.8921(5) 0.5337(4)
H27_5 H 0.546079 0.912746 0.525159
C46_5 C 0.547(2) 0.8556(5) 0.5272(4)
H28_5 H 0.471969 0.851548 0.514349
C47_5 C 0.773(2) 0.9393(5) 0.5564(4)
C48_5 C 0.704(2) 0.8117(5) 0.4409(4)
C49_5 C 0.668(2) 0.8080(5) 0.4127(4)
C50_5 C 0.512(2) 0.8053(5) 0.4035(4)
H29_5 H 0.425885 0.807242 0.414796
C51_5 C 0.486(2) 0.7996(5) 0.3772(4)
H30_5 H 0.381866 0.798357 0.370967
C52_5 C 0.612(2) 0.7959(5) 0.3603(4)
C53_5 C 0.768(2) 0.8001(5) 0.3687(4)
H31_5 H 0.851680 0.798900 0.356975
C54_5 C 0.798(2) 0.8062(5) 0.3955(4)
H32_5 H 0.902285 0.809031 0.401503
C55_5 C 0.5829(19) 0.7868(4) 0.3330(3)
C56_5 C 0.367(2) 0.7005(5) 0.4619(4)
C57_5 C 0.2322(19) 0.6387(5) 0.4712(4)
H33_5 H 0.157020 0.645875 0.458891
C58_5 C 0.459(2) 0.6541(5) 0.4958(4)
H34_5 H 0.539185 0.671445 0.500334
C59_5 C 0.450(2) 0.6186(5) 0.5080(4)
H35_5 H 0.525345 0.611815 0.520418
C60_5 C 0.331(2) 0.5940(5) 0.5017(4)
C61_5 C 0.2206(19) 0.6032(5) 0.4833(4)
H36_5 H 0.139821 0.586077 0.478877
C62_5 C 0.3541(19) 0.6634(5) 0.4774(4)
C63_5 C 0.319(2) 0.5569(4) 0.5153(3)
O11_5 O 0.566(2) 0.7592(3) 0.5481(3)
O12_5 O 0.8834(14) 0.9438(4) 0.5727(3)
O14_5 O 0.8094(17) 0.8348(4) 0.4472(3)
O15_4 O 0.4377(15) 0.7768(4) 0.3279(3)
O16_4 O 0.6879(19) 0.7870(4) 0.3167(3)
O17_5 O 0.3140(16) 0.7006(4) 0.4400(3)
C31_6 C 0.188(4) 0.3055(11) 0.7034(7)
H16_6 H 0.191581 0.315257 0.686101
H17_6 H 0.247794 0.281985 0.704426
H18_6 H 0.233718 0.324146 0.714990
N1_6 N 0.023(3) 0.2982(8) 0.7108(4)
H43_6 H 0.0921414 0.276544 0.746015
C24_6 C 0.0178(19) 0.8887(5) 0.7212(4)
H12_6 H 0.092980 0.895875 0.708891
C28_6 C 0.0294(19) 0.8532(5) 0.7333(4)
H15_6 H 0.110179 0.836077 0.728877
C2_6 C 0.696(2) 0.0262(5) 0.7542(4)
C3_6 C 0.625(2) 0.0486(5) 0.7354(4)
H2_6 H 0.567394 0.070121 0.740546
C4_6 C 0.634(2) 0.0407(5) 0.7092(4)
C5_6 C 0.716(2) 0.0073(4) 0.7023(4)
H3_7 H 0.719422 0.000009 0.685053
C7_6 C 0.673(2) 0.0342(5) 0.7825(4)
C8_6 C 0.635(2) 0.0749(5) 0.7902(4)
C9_6 C 0.531(2) 0.0812(6) 0.8096(4)
H4_6 H 0.494197 0.060342 0.819257
C10_6 C 0.476(2) 0.1182(5) 0.8157(4)
H5_6 H 0.397192 0.122066 0.828125
C11_6 C 0.545(2) 0.1496(5) 0.8023(4)
C12_6 C 0.657(2) 0.1421(5) 0.7837(4)
H6_6 H 0.703921 0.162746 0.775159
C13_6 C 0.703(2) 0.1056(5) 0.7772(4)
H7_6 H 0.778031 0.101548 0.764349
C14_6 C 0.477(2) 0.1893(5) 0.8064(4)
C15_6 C 0.546(2) 0.0617(5) 0.6909(4)
C16_6 C 0.582(2) 0.0580(5) 0.6627(4)
C17_6 C 0.738(2) 0.0553(5) 0.6535(4)
H8_6 H 0.824115 0.057242 0.664796
C18_6 C 0.764(2) 0.0496(5) 0.6272(4)
H9_6 H 0.868134 0.048357 0.620967
C19_6 C 0.638(2) 0.0459(5) 0.6103(4)
C20_6 C 0.482(2) 0.0501(5) 0.6187(4)
H10_6 H 0.398320 0.048900 0.606975
C21_6 C 0.452(2) 0.0562(5) 0.6455(4)
H11_6 H 0.347715 0.059031 0.651503
C22_6 C 0.6671(19) 0.0368(4) 0.5830(3)
C32_6 C 0.992(3) 0.2848(10) 0.7338(6)
O1_6 O 0.684(2) 0.0092(3) 0.7981(3)
O2_6 O 0.3666(14) 0.1938(4) 0.8227(3)
O3_6 O 0.5211(14) 0.2174(3) 0.7921(5)
O4_6 O 0.4406(17) 0.0848(4) 0.6972(3)
O10_6 O 0.8546(18) 0.2809(4) 0.7426(3)
C33_6 C 0.900(5) 0.3078(12) 0.6922(8)
H19_6 H 0.948637 0.313724 0.675857
H20_6 H 0.829293 0.286208 0.690112
H21_6 H 0.840576 0.329636 0.698153
H25_6 H 0.005803 0.439658 0.819257
C43_6 C 0.024(2) 0.3818(5) 0.8157(4)
H26_6 H 0.102808 0.377934 0.828125
C47_6 C 0.023(2) 0.3107(5) 0.8064(4)
C53_6 C 0.018(2) 0.4499(5) 0.6187(4)
H31_6 H 0.101680 0.451100 0.606975
C54_6 C 0.048(2) 0.4438(5) 0.6455(4)
H32_6 H 0.152285 0.440969 0.651503
O12_6 O 0.1334(14) 0.3062(4) 0.8227(3)
O14_6 O 0.0594(17) 0.4152(4) 0.6972(3)
C64_6 C 0.312(4) 0.1945(11) 0.7034(7)
H37_6 H 0.308419 0.184743 0.686101
H38_6 H 0.252206 0.218015 0.704426
H39_6 H 0.266282 0.175854 0.714990
C65_6 C 0.508(3) 0.2152(10) 0.7338(6)
O20_6 O 0.6454(18) 0.2191(4) 0.7426(3)
N2_6 N 0.477(3) 0.2018(8) 0.7108(4)
C66_6 C 0.600(5) 0.1922(12) 0.6922(8)
H40_6 H 0.551363 0.186276 0.675857
H41_6 H 0.670707 0.213792 0.690112
H42_6 H 0.659424 0.170364 0.698153
O21_6 O 0.9789(14) 0.2826(3) 0.7921(5)
O23_4 O 0.4377(15) 0.2768(4) 0.8279(3)
O25_4 O 0.6879(19) 0.2870(4) 0.8167(3)
H44_6 H 0.407859 0.223456 0.746015
C1_6 C 0.783(2) 0.9931(5) 0.7474(4)
H1_6 H 0.831688 0.977792 0.759829
H3_8 H 0.719422 1.000009 0.685053
C6_6 C 0.794(2) 0.9843(5) 0.7210(4)
C23_6 C 0.883(2) 0.9505(5) 0.7119(4)
C25_6 C 0.791(2) 0.9041(5) 0.7458(4)
H13_6 H 0.710815 0.921445 0.750334
C26_6 C 0.800(2) 0.8686(5) 0.7580(4)
H14_6 H 0.724655 0.861815 0.770418
C27_6 C 0.919(2) 0.8440(5) 0.7517(4)
C29_6 C 0.8959(19) 0.9134(5) 0.7274(4)
C30_6 C 0.931(2) 0.8069(4) 0.7653(3)
O7_6 O 0.9360(16) 0.9506(4) 0.6900(3)
C34_6 C 0.717(2) 0.5069(5) 0.7474(4)
H22_6 H 0.668312 0.522208 0.759829
C35_6 C 0.804(2) 0.4738(5) 0.7542(4)
C36_6 C 0.875(2) 0.4514(5) 0.7354(4)
H23_6 H 0.932606 0.429879 0.740546
C37_6 C 0.866(2) 0.4593(5) 0.7092(4)
C38_6 C 0.784(2) 0.4927(4) 0.7023(4)
H24_7 H 0.780578 0.499991 0.685053
C39_6 C 0.706(2) 0.5157(5) 0.7210(4)
C40_6 C 0.827(2) 0.4658(5) 0.7825(4)
C41_6 C 0.865(2) 0.4251(5) 0.7902(4)
C42_6 C 0.969(2) 0.4188(6) 0.8096(4)
C44_6 C 0.955(2) 0.3504(5) 0.8023(4)
C45_6 C 0.843(2) 0.3579(5) 0.7837(4)
H27_6 H 0.796079 0.337254 0.775159
C46_6 C 0.797(2) 0.3944(5) 0.7772(4)
H28_6 H 0.721969 0.398452 0.764349
C48_6 C 0.954(2) 0.4383(5) 0.6909(4)
C49_6 C 0.918(2) 0.4420(5) 0.6627(4)
C50_6 C 0.762(2) 0.4447(5) 0.6535(4)
H29_6 H 0.675885 0.442758 0.664796
C51_6 C 0.736(2) 0.4504(5) 0.6272(4)
H30_6 H 0.631866 0.451643 0.620967
C52_6 C 0.862(2) 0.4541(5) 0.6103(4)
C55_6 C 0.8329(19) 0.4632(4) 0.5830(3)
C56_6 C 0.617(2) 0.5495(5) 0.7119(4)
C57_6 C 0.4822(19) 0.6113(5) 0.7212(4)
H33_6 H 0.407020 0.604125 0.708891
C58_6 C 0.709(2) 0.5959(5) 0.7458(4)
H34_6 H 0.789185 0.578555 0.750334
C59_6 C 0.700(2) 0.6314(5) 0.7580(4)
H35_6 H 0.775345 0.638185 0.770418
C60_6 C 0.581(2) 0.6560(5) 0.7517(4)
C61_6 C 0.4706(19) 0.6468(5) 0.7333(4)
H36_6 H 0.389821 0.663923 0.728877
C62_6 C 0.6041(19) 0.5866(5) 0.7274(4)
C63_6 C 0.569(2) 0.6931(4) 0.7653(3)
O11_6 O 0.816(2) 0.4908(3) 0.7981(3)
O17_6 O 0.5640(16) 0.5494(4) 0.6900(3)
H1_7 H 0.581688 0.772208 0.009829
C2_7 C 0.446(2) 0.7238(5) 0.0042(4)
C7_7 C 0.423(2) 0.7158(5) 0.0325(4)
C8_7 C 0.385(2) 0.6751(5) 0.0402(4)
C9_7 C 0.281(2) 0.6688(6) 0.0596(4)
H4_7 H 0.244197 0.689658 0.069257
C10_7 C 0.226(2) 0.6318(5) 0.0657(4)
H5_7 H 0.147192 0.627934 0.078125
C11_7 C 0.295(2) 0.6004(5) 0.0523(4)
C12_7 C 0.407(2) 0.6079(5) 0.0337(4)
H6_7 H 0.453921 0.587254 0.025159
C13_7 C 0.453(2) 0.6444(5) 0.0272(4)
H7_7 H 0.528031 0.648452 0.014349
C14_7 C 0.227(2) 0.5607(5) 0.0564(4)
H13_7 H 0.460815 0.828555 0.000334
C26_7 C 0.550(2) 0.8814(5) 0.0080(4)
H14_7 H 0.474655 0.888185 0.020418
C27_7 C 0.669(2) 0.9060(5) 0.0017(4)
C30_7 C 0.681(2) 0.9431(4) 0.0153(3)
O1_7 O 0.434(2) 0.7408(3) 0.0481(3)
O2_7 O 0.1166(14) 0.5562(4) 0.0727(3)
O3_7 O 0.2711(14) 0.5326(3) 0.0421(5)
O21_7 O 0.7289(14) 0.4674(3) 0.0421(5)
O24_6 O 0.5621(19) 0.5370(4) 0.0667(3)
C1_7 C 0.533(2) 0.7569(5) 0.9974(4)
C3_7 C 0.375(2) 0.7014(5) 0.9854(4)
H2_7 H 0.317394 0.679879 0.990546
C4_7 C 0.384(2) 0.7093(5) 0.9592(4)
C5_7 C 0.466(2) 0.7427(4) 0.9523(4)
H3_9 H 0.469422 0.749991 0.935053
C6_7 C 0.544(2) 0.7657(5) 0.9710(4)
C15_7 C 0.296(2) 0.6883(5) 0.9409(4)
C16_7 C 0.332(2) 0.6920(5) 0.9127(4)
C17_7 C 0.488(2) 0.6947(5) 0.9035(4)
H8_7 H 0.574115 0.692758 0.914796
C18_7 C 0.514(2) 0.7004(5) 0.8772(4)
H9_7 H 0.618134 0.701643 0.870967
C19_7 C 0.388(2) 0.7041(5) 0.8603(4)
C20_7 C 0.232(2) 0.6999(5) 0.8687(4)
H10_7 H 0.148320 0.701100 0.856975
C21_7 C 0.202(2) 0.6938(5) 0.8955(4)
H11_7 H 0.097715 0.690969 0.901503
C22_7 C 0.4171(19) 0.7132(4) 0.8330(3)
C23_7 C 0.633(2) 0.7995(5) 0.9619(4)
C24_7 C 0.7678(19) 0.8613(5) 0.9712(4)
H12_7 H 0.842980 0.854125 0.958891
C25_7 C 0.541(2) 0.8459(5) 0.9958(4)
C28_7 C 0.7794(19) 0.8968(5) 0.9833(4)
H15_7 H 0.860179 0.913923 0.978877
C29_7 C 0.6459(19) 0.8366(5) 0.9774(4)
C31_7 C 0.938(4) 0.4445(11) 0.9534(7)
H16_7 H 0.941581 0.434743 0.936101
H17_7 H 0.997794 0.468015 0.954426
H18_7 H 0.983718 0.425854 0.964990
C32_7 C 0.742(3) 0.4652(10) 0.9838(6)
O4_7 O 0.1906(17) 0.6652(4) 0.9472(3)
O7_7 O 0.6860(16) 0.7994(4) 0.9400(3)
O10_7 O 0.6046(18) 0.4691(4) 0.9926(3)
N1_7 N 0.773(3) 0.4518(8) 0.9608(4)
C33_7 C 0.650(5) 0.4422(12) 0.9422(8)
H19_7 H 0.698637 0.436276 0.925857
H20_7 H 0.579293 0.463792 0.940112
H21_7 H 0.590576 0.420364 0.948153
C64_7 C 0.062(4) 0.5555(11) 0.9534(7)
H37_7 H 0.058419 0.565257 0.936101
H38_7 H 0.002206 0.531985 0.954426
H39_7 H 0.016282 0.574146 0.964990
C65_7 C 0.258(3) 0.5348(10) 0.9838(6)
O20_7 O 0.3954(18) 0.5309(4) 0.9926(3)
N2_7 N 0.227(3) 0.5482(8) 0.9608(4)
C66_7 C 0.350(5) 0.5578(12) 0.9422(8)
H40_7 H 0.301363 0.563724 0.925857
H41_7 H 0.420707 0.536208 0.940112
H42_7 H 0.409424 0.579636 0.948153
H43_7 H 0.842141 0.473456 0.996015
H44_7 H 0.157859 0.526544 0.996015
H22_7 H 0.418312 0.227792 0.009829
C35_7 C 0.554(2) 0.2762(5) 0.0042(4)
C40_7 C 0.577(2) 0.2842(5) 0.0325(4)
C41_7 C 0.615(2) 0.3249(5) 0.0402(4)
C42_7 C 0.719(2) 0.3312(6) 0.0596(4)
H25_7 H 0.755803 0.310342 0.069257
C43_7 C 0.774(2) 0.3682(5) 0.0657(4)
H26_7 H 0.852808 0.372066 0.078125
C44_7 C 0.705(2) 0.3996(5) 0.0523(4)
C45_7 C 0.593(2) 0.3921(5) 0.0337(4)
H27_7 H 0.546079 0.412746 0.025159
C46_7 C 0.547(2) 0.3556(5) 0.0272(4)
H28_7 H 0.471969 0.351548 0.014349
C47_7 C 0.773(2) 0.4393(5) 0.0564(4)
H34_7 H 0.539185 0.171445 0.000334
C59_7 C 0.450(2) 0.1186(5) 0.0080(4)
H35_7 H 0.525345 0.111815 0.020418
C60_7 C 0.331(2) 0.0940(5) 0.0017(4)
C63_7 C 0.319(2) 0.0569(4) 0.0153(3)
O11_7 O 0.566(2) 0.2592(3) 0.0481(3)
O12_7 O 0.8834(14) 0.4438(4) 0.0727(3)
O22_6 O 0.8123(15) 0.5268(4) 0.0779(3)
C34_7 C 0.467(2) 0.2431(5) 0.9974(4)
C36_7 C 0.625(2) 0.2986(5) 0.9854(4)
H23_7 H 0.682606 0.320121 0.990546
C37_7 C 0.616(2) 0.2907(5) 0.9592(4)
C38_7 C 0.534(2) 0.2573(4) 0.9523(4)
H24_8 H 0.530578 0.250009 0.935053
C39_7 C 0.456(2) 0.2343(5) 0.9710(4)
C48_7 C 0.704(2) 0.3117(5) 0.9409(4)
C49_7 C 0.668(2) 0.3080(5) 0.9127(4)
C50_7 C 0.512(2) 0.3053(5) 0.9035(4)
H29_7 H 0.425885 0.307242 0.914796
C51_7 C 0.486(2) 0.2996(5) 0.8772(4)
H30_7 H 0.381866 0.298357 0.870967
C52_7 C 0.612(2) 0.2959(5) 0.8603(4)
C53_7 C 0.768(2) 0.3001(5) 0.8687(4)
H31_7 H 0.851680 0.298900 0.856975
C54_7 C 0.798(2) 0.3062(5) 0.8955(4)
H32_7 H 0.902285 0.309031 0.901503
C55_7 C 0.5829(19) 0.2868(4) 0.8330(3)
C56_7 C 0.367(2) 0.2005(5) 0.9619(4)
C57_7 C 0.2322(19) 0.1387(5) 0.9712(4)
H33_7 H 0.157020 0.145875 0.958891
C58_7 C 0.459(2) 0.1541(5) 0.9958(4)
C61_7 C 0.2206(19) 0.1032(5) 0.9833(4)
H36_7 H 0.139821 0.086077 0.978877
C62_7 C 0.3541(19) 0.1634(5) 0.9774(4)
O14_7 O 0.8094(17) 0.3348(4) 0.9472(3)
O17_7 O 0.3140(16) 0.2006(4) 0.9400(3)
C24_8 C 0.0178(19) 0.3887(5) 0.2212(4)
H12_8 H 0.092980 0.395875 0.208891
C28_8 C 0.0294(19) 0.3532(5) 0.2333(4)
H15_8 H 0.110179 0.336077 0.228877
C31_8 C 0.188(4) 0.8055(11) 0.2034(7)
H16_8 H 0.191581 0.815257 0.186101
H17_8 H 0.247794 0.781985 0.204426
H18_8 H 0.233718 0.824146 0.214990
N1_8 N 0.023(3) 0.7982(8) 0.2108(4)
H43_8 H 0.0921414 0.776544 0.246015
C1_8 C 0.783(2) 0.4931(5) 0.2474(4)
H1_8 H 0.831688 0.477792 0.259829
C2_8 C 0.696(2) 0.5262(5) 0.2542(4)
C3_8 C 0.625(2) 0.5486(5) 0.2354(4)
H2_8 H 0.567394 0.570121 0.240546
C4_8 C 0.634(2) 0.5407(5) 0.2092(4)
C5_8 C 0.716(2) 0.5073(4) 0.2023(4)
H3_10 H 0.719422 0.500009 0.185053
C6_8 C 0.794(2) 0.4843(5) 0.2210(4)
C7_8 C 0.673(2) 0.5342(5) 0.2825(4)
C8_8 C 0.635(2) 0.5749(5) 0.2902(4)
C9_8 C 0.531(2) 0.5812(6) 0.3096(4)
H4_8 H 0.494197 0.560342 0.319257
C10_8 C 0.476(2) 0.6182(5) 0.3157(4)
H5_8 H 0.397192 0.622066 0.328125
C11_8 C 0.545(2) 0.6496(5) 0.3023(4)
C12_8 C 0.657(2) 0.6421(5) 0.2837(4)
H6_8 H 0.703921 0.662746 0.275159
C13_8 C 0.703(2) 0.6056(5) 0.2772(4)
H7_8 H 0.778031 0.601548 0.264349
C14_8 C 0.477(2) 0.6893(5) 0.3064(4)
C15_8 C 0.546(2) 0.5617(5) 0.1909(4)
C16_8 C 0.582(2) 0.5580(5) 0.1627(4)
C17_8 C 0.738(2) 0.5553(5) 0.1535(4)
H8_8 H 0.824115 0.557242 0.164796
C18_8 C 0.764(2) 0.5496(5) 0.1272(4)
H9_8 H 0.868134 0.548357 0.120967
C19_8 C 0.638(2) 0.5459(5) 0.1103(4)
C20_8 C 0.482(2) 0.5501(5) 0.1187(4)
H10_8 H 0.398320 0.548900 0.106975
C21_8 C 0.452(2) 0.5562(5) 0.1455(4)
H11_8 H 0.347715 0.559031 0.151503
C22_8 C 0.6671(19) 0.5368(4) 0.0830(3)
C23_8 C 0.883(2) 0.4505(5) 0.2119(4)
C25_8 C 0.791(2) 0.4041(5) 0.2458(4)
H13_8 H 0.710815 0.421445 0.250334
C26_8 C 0.800(2) 0.3686(5) 0.2580(4)
H14_8 H 0.724655 0.361815 0.270418
C27_8 C 0.919(2) 0.3440(5) 0.2517(4)
C29_8 C 0.8959(19) 0.4134(5) 0.2274(4)
C30_8 C 0.931(2) 0.3069(4) 0.2653(3)
C32_8 C 0.992(3) 0.7848(10) 0.2338(6)
O1_8 O 0.684(2) 0.5092(3) 0.2981(3)
O2_8 O 0.3666(14) 0.6938(4) 0.3227(3)
O3_8 O 0.5211(14) 0.7174(3) 0.2921(5)
O4_8 O 0.4406(17) 0.5848(4) 0.1972(3)
O7_8 O 0.9360(16) 0.4506(4) 0.1900(3)
O10_8 O 0.8546(18) 0.7809(4) 0.2426(3)
C33_8 C 0.900(5) 0.8078(12) 0.1922(8)
H19_8 H 0.948637 0.813724 0.175857
H20_8 H 0.829293 0.786208 0.190112
H21_8 H 0.840576 0.829636 0.198153
H25_8 H 0.005803 0.939658 0.319257
C43_8 C 0.024(2) 0.8818(5) 0.3157(4)
H26_8 H 0.102808 0.877934 0.328125
C47_8 C 0.023(2) 0.8107(5) 0.3064(4)
C53_8 C 0.018(2) 0.9499(5) 0.1187(4)
H31_8 H 0.101680 0.951100 0.106975
C54_8 C 0.048(2) 0.9438(5) 0.1455(4)
H32_8 H 0.152285 0.940969 0.151503
O12_8 O 0.1334(14) 0.8062(4) 0.3227(3)
O14_8 O 0.0594(17) 0.9152(4) 0.1972(3)
C64_8 C 0.312(4) 0.6945(11) 0.2034(7)
H37_8 H 0.308419 0.684743 0.186101
H38_8 H 0.252206 0.718015 0.204426
H39_8 H 0.266282 0.675854 0.214990
C65_8 C 0.508(3) 0.7152(10) 0.2338(6)
O20_8 O 0.6454(18) 0.7191(4) 0.2426(3)
N2_8 N 0.477(3) 0.7018(8) 0.2108(4)
C66_8 C 0.600(5) 0.6922(12) 0.1922(8)
H40_8 H 0.551363 0.686276 0.175857
H41_8 H 0.670707 0.713792 0.190112
H42_8 H 0.659424 0.670364 0.198153
O21_8 O 0.9789(14) 0.7826(3) 0.2921(5)
H44_8 H 0.407859 0.723456 0.246015
C34_8 C 0.717(2) 0.0069(5) 0.2474(4)
H22_8 H 0.668312 0.022208 0.259829
H24_9 H 0.780578 -0.000009 0.185053
C39_8 C 0.706(2) 0.0157(5) 0.2210(4)
C56_8 C 0.617(2) 0.0495(5) 0.2119(4)
C57_8 C 0.4822(19) 0.1113(5) 0.2212(4)
H33_8 H 0.407020 0.104125 0.208891
C58_8 C 0.709(2) 0.0959(5) 0.2458(4)
H34_8 H 0.789185 0.078555 0.250334
C59_8 C 0.700(2) 0.1314(5) 0.2580(4)
H35_8 H 0.775345 0.138185 0.270418
C60_8 C 0.581(2) 0.1560(5) 0.2517(4)
C61_8 C 0.4706(19) 0.1468(5) 0.2333(4)
H36_8 H 0.389821 0.163923 0.228877
C62_8 C 0.6041(19) 0.0866(5) 0.2274(4)
C63_8 C 0.569(2) 0.1931(4) 0.2653(3)
O17_8 O 0.5640(16) 0.0494(4) 0.1900(3)
C35_8 C 0.804(2) 0.9738(5) 0.2542(4)
C36_8 C 0.875(2) 0.9514(5) 0.2354(4)
H23_8 H 0.932606 0.929879 0.240546
C37_8 C 0.866(2) 0.9593(5) 0.2092(4)
C38_8 C 0.784(2) 0.9927(4) 0.2023(4)
H24_10 H 0.780578 0.999991 0.185053
C40_8 C 0.827(2) 0.9658(5) 0.2825(4)
C41_8 C 0.865(2) 0.9251(5) 0.2902(4)
C42_8 C 0.969(2) 0.9188(6) 0.3096(4)
C44_8 C 0.955(2) 0.8504(5) 0.3023(4)
C45_8 C 0.843(2) 0.8579(5) 0.2837(4)
H27_8 H 0.796079 0.837254 0.275159
C46_8 C 0.797(2) 0.8944(5) 0.2772(4)
H28_8 H 0.721969 0.898452 0.264349
C48_8 C 0.954(2) 0.9383(5) 0.1909(4)
C49_8 C 0.918(2) 0.9420(5) 0.1627(4)
C50_8 C 0.762(2) 0.9447(5) 0.1535(4)
H29_8 H 0.675885 0.942758 0.164796
C51_8 C 0.736(2) 0.9504(5) 0.1272(4)
H30_8 H 0.631866 0.951643 0.120967
C52_8 C 0.862(2) 0.9541(5) 0.1103(4)
C55_8 C 0.8329(19) 0.9632(4) 0.0830(3)
O11_8 O 0.816(2) 0.9908(3) 0.2981(3)
loop_
_geom_bond_atom_site_label_1
_geom_bond_atom_site_label_2
_geom_bond_site_symmetry_1
_geom_bond_site_symmetry_2
C27 C26 1_555 1_555
C30 C27 1_555 1_555
O8 C30 1_555 1_555
O9 C30 1_555 1_555
Yb7 O9 1_555 1_555
Yb11 O8 1_555 1_555
O24 Yb1 1_555 1_555
O29 Yb1 1_555 1_555
C6 C1 1_555 1_555
H9 C18 1_555 1_555
C23 C6 1_555 1_555
C24 H12 1_555 1_555
C28 C24 1_555 1_555
H15 C28 1_555 1_555
C29 C23 1_555 1_555
O7 C23 1_555 1_555
Yb9 O5 1_555 1_555
C24 C29 1_555 1_555
C25 C29 1_555 1_555
O21 Yb1_2 1_555 1_555
C31 H16 1_555 1_555
H17 C31 1_555 1_555
H18 C31 1_555 1_555
C32 O10 1_555 1_555
N1 C31 1_555 1_555
C33 N1 1_555 1_555
H19 C33 1_555 1_555
H20 C33 1_555 1_555
H21 C33 1_555 1_555
C32 N1 1_555 1_555
C32 H43 1_555 1_555
Yb1_3 O3 1_555 1_555
Yb2 O2 1_555 1_555
C7 C2 1_555 1_555
C8 C7 1_555 1_555
C9 C8 1_555 1_555
H4 C9 1_555 1_555
C10 C9 1_555 1_555
H5 C10 1_555 1_555
C11 C10 1_555 1_555
C12 C11 1_555 1_555
H6 C12 1_555 1_555
C13 C8 1_555 1_555
C14 C11 1_555 1_555
O1 C7 1_555 1_555
O2 C14 1_555 1_555
O3 Yb2 1_555 1_555
O22 Yb2 1_555 1_555
O27 Yb2 1_555 1_555
C12 C13 1_555 1_555
C14 O3 1_555 1_555
H2 C3 1_555 1_555
C4 C3 1_555 1_555
C5 C4 1_555 1_555
H3 C5 1_555 1_555
C15 C4 1_555 1_555
C16 C15 1_555 1_555
C17 C16 1_555 1_555
C20 C19 1_555 1_555
H10 C20 1_555 1_555
C21 C16 1_555 1_555
H11 C21 1_555 1_555
C22 C19 1_555 1_555
O4 C15 1_555 1_555
O6 C22 1_555 1_555
C64 H37 1_555 1_555
H38 C64 1_555 1_555
H39 C64 1_555 1_555
C65 O20 1_555 1_555
N2 C64 1_555 1_555
C66 N2 1_555 1_555
H40 C66 1_555 1_555
H41 C66 1_555 1_555
H42 C66 1_555 1_555
Yb5 O6 1_555 1_555
C20 C21 1_555 1_555
C65 N2 1_555 1_555
C65 H44 1_555 1_555
C40 C35 1_555 1_555
C41 C40 1_555 1_555
C42 C41 1_555 1_555
H25 C42 1_555 1_555
C43 C42 1_555 1_555
H26 C43 1_555 1_555
C44 C43 1_555 1_555
C45 C44 1_555 1_555
H27 C45 1_555 1_555
C46 C41 1_555 1_555
C47 C44 1_555 1_555
O11 C40 1_555 1_555
O12 Yb2_2 1_555 1_555
O21 Yb2_2 1_555 1_555
O23 Yb2_2 1_555 1_555
O25 Yb1_4 1_555 1_555
O26 Yb2_2 1_555 1_555
O28 Yb1_4 1_555 1_555
C45 C46 1_555 1_555
C47 O12 1_555 1_555
C47 O21 1_555 1_555
H23 C36 1_555 1_555
C37 C36 1_555 1_555
C38 C37 1_555 1_555
H24 C38 1_555 1_555
C48 C37 1_555 1_555
C49 C48 1_555 1_555
C50 C49 1_555 1_555
C53 C52 1_555 1_555
H31 C53 1_555 1_555
C54 C49 1_555 1_555
H32 C54 1_555 1_555
C55 C52 1_555 1_555
O14 C48 1_555 1_555
O16 C55 1_555 1_555
Yb4 O16 1_555 1_555
C53 C54 1_555 1_555
C60 C59 1_555 1_555
C63 C60 1_555 1_555
O18 C63 1_555 1_555
O19 C63 1_555 1_555
Yb7 O19 1_555 1_555
Yb11_2 O18 1_555 1_555
C39 C34 1_555 1_555
H30 C51 1_555 1_555
C56 C39 1_555 1_555
C57 H33 1_555 1_555
C61 C57 1_555 1_555
H36 C61 1_555 1_555
C62 C56 1_555 1_555
O17 C56 1_555 1_555
Yb8 O15 1_555 1_555
C57 C62 1_555 1_555
C58 C62 1_555 1_555
Yb1_5 O3_2 1_555 1_555
C3_2 C2_2 1_555 1_555
H2_2 C3_2 1_555 1_555
C4_2 C3_2 1_555 1_555
C5_2 C4_2 1_555 1_555
H3_2 C5_2 1_555 1_555
C7_2 C2_2 1_555 1_555
C8_2 C7_2 1_555 1_555
C9_2 C8_2 1_555 1_555
C12_2 C11_2 1_555 1_555
H6_2 C12_2 1_555 1_555
C13_2 C8_2 1_555 1_555
H7_2 C13_2 1_555 1_555
C15_2 C4_2 1_555 1_555
C16_2 C15_2 1_555 1_555
C17_2 C16_2 1_555 1_555
H8_2 C17_2 1_555 1_555
C18_2 C17_2 1_555 1_555
H9_2 C18_2 1_555 1_555
C19_2 C18_2 1_555 1_555
C22_2 C19_2 1_555 1_555
C31_2 H16_2 1_555 1_555
H17_2 C31_2 1_555 1_555
H18_2 C31_2 1_555 1_555
C32_2 O10_2 1_555 1_555
O1_2 C7_2 1_555 1_555
O22 C22_2 1_555 1_555
O24 C22_2 1_555 1_555
O10_2 Yb1_5 1_555 1_555
N1_2 C31_2 1_555 1_555
C33_2 N1_2 1_555 1_555
H19_2 C33_2 1_555 1_555
H20_2 C33_2 1_555 1_555
H21_2 C33_2 1_555 1_555
C65_2 O20_2 1_555 1_555
O20_2 Yb1_5 1_555 1_555
H40_2 C66_2 1_555 1_555
H41_2 C66_2 1_555 1_555
H42_2 C66_2 1_555 1_555
O21_2 Yb1_5 1_555 1_555
O24_2 Yb1_5 1_555 1_555
O25_2 Yb1_5 1_555 1_555
O28_2 Yb1_5 1_555 1_555
O29_2 Yb1_5 1_555 1_555
C12_2 C13_2 1_555 1_555
C32_2 N1_2 1_555 1_555
C32_2 H43_2 1_555 1_555
C1_2 H1_2 1_555 1_555
C6_2 C1_2 1_555 1_555
C23_2 C6_2 1_555 1_555
C24_2 H12_2 1_555 1_555
C25_2 H13_2 1_555 1_555
C26_2 C25_2 1_555 1_555
H14_2 C26_2 1_555 1_555
C27_2 C26_2 1_555 1_555
C28_2 C24_2 1_555 1_555
H15_2 C28_2 1_555 1_555
C29_2 C23_2 1_555 1_555
C30_2 C27_2 1_555 1_555
O7_2 C23_2 1_555 1_555
O8_2 C30_2 1_555 1_555
O9_2 C30_2 1_555 1_555
Yb7_2 O9_2 1_555 1_555
Yb11_3 O8_2 1_555 1_555
C24_2 C29_2 1_555 1_555
C25_2 C29_2 1_555 1_555
C27_2 C28_2 1_555 1_555
Yb2_3 O2_2 1_555 1_555
H5_2 C10_2 1_555 1_555
H10_2 C20_2 1_555 1_555
H11_2 C21_2 1_555 1_555
O2_2 C14_2 1_555 1_555
C34_2 H22_2 1_555 1_555
C35_2 C34_2 1_555 1_555
C36_2 C35_2 1_555 1_555
H23_2 C36_2 1_555 1_555
C37_2 C36_2 1_555 1_555
C38_2 C37_2 1_555 1_555
H24_2 C38_2 1_555 1_555
C39_2 C34_2 1_555 1_555
C40_2 C35_2 1_555 1_555
C41_2 C40_2 1_555 1_555
C42_2 C41_2 1_555 1_555
H25_2 C42_2 1_555 1_555
C43_2 C42_2 1_555 1_555
H26_2 C43_2 1_555 1_555
C44_2 C43_2 1_555 1_555
C45_2 C44_2 1_555 1_555
H27_2 C45_2 1_555 1_555
C46_2 C41_2 1_555 1_555
H28_2 C46_2 1_555 1_555
C47_2 C44_2 1_555 1_555
C48_2 C37_2 1_555 1_555
C49_2 C48_2 1_555 1_555
C50_2 C49_2 1_555 1_555
H29_2 C50_2 1_555 1_555
C51_2 C50_2 1_555 1_555
H30_2 C51_2 1_555 1_555
C52_2 C51_2 1_555 1_555
C53_2 C52_2 1_555 1_555
H31_2 C53_2 1_555 1_555
C54_2 C49_2 1_555 1_555
H32_2 C54_2 1_555 1_555
C55_2 C52_2 1_555 1_555
C56_2 C39_2 1_555 1_555
C58_2 H34_2 1_555 1_555
C59_2 C58_2 1_555 1_555
H35_2 C59_2 1_555 1_555
C60_2 C59_2 1_555 1_555
C62_2 C56_2 1_555 1_555
C63_2 C60_2 1_555 1_555
O11_2 C40_2 1_555 1_555
O12_2 Yb2_3 1_555 1_555
O21_2 Yb2_3 1_555 1_555
O14_2 C48_2 1_555 1_555
O15_2 C55_2 1_555 1_555
O16_2 C55_2 1_555 1_555
O17_2 C56_2 1_555 1_555
O18_2 C63_2 1_555 1_555
C64_2 H37_2 1_555 1_555
H38_2 C64_2 1_555 1_555
H39_2 C64_2 1_555 1_555
N2_2 C64_2 1_555 1_555
Yb7 O16_2 1_555 1_555
Yb11 O15_2 1_555 1_555
Yb11_3 O18_2 1_555 1_555
O22_2 Yb2_3 1_555 1_555
O23_2 Yb2_3 1_555 1_555
O26_2 Yb2_3 1_555 1_555
O27_2 Yb2_3 1_555 1_555
C20_2 C21_2 1_555 1_555
C38_2 C39_2 1_555 1_555
C45_2 C46_2 1_555 1_555
C47_2 O12_2 1_555 1_555
C47_2 O21_2 1_555 1_555
C53_2 C54_2 1_555 1_555
C58_2 C62_2 1_555 1_555
C57_2 H33_2 1_555 1_555
C61_2 C57_2 1_555 1_555
H36_2 C61_2 1_555 1_555
Yb7_2 O19_2 1_555 1_555
C1_3 H1_3 1_555 1_555
C6_3 C1_3 1_555 1_555
H9_3 C18_3 1_555 1_555
C23_3 C6_3 1_555 1_555
C24_3 H12_3 1_555 1_555
C26_3 C25_3 1_555 1_555
C27_3 C26_3 1_555 1_555
C28_3 C24_3 1_555 1_555
H15_3 C28_3 1_555 1_555
C29_3 C23_3 1_555 1_555
C30_3 C27_3 1_555 1_555
C31_3 H16_3 1_555 1_555
H17_3 C31_3 1_555 1_555
H18_3 C31_3 1_555 1_555
C32_3 O10_3 1_555 1_555
O7_3 C23_3 1_555 1_555
O8_3 C30_3 1_555 1_555
O9_3 C30_3 1_555 1_555
O10_3 Yb1_6 1_555 1_555
N1_3 C31_3 1_555 1_555
C33_3 N1_3 1_555 1_555
H19_3 C33_3 1_555 1_555
H20_3 C33_3 1_555 1_555
H21_3 C33_3 1_555 1_555
Yb7_4 O9_3 1_555 1_555
Yb11_3 O5_2 1_555 1_555
Yb11_5 O8_3 1_555 1_555
O21_3 Yb1_6 1_555 1_555
O24_3 Yb1_6 1_555 1_555
O29_3 Yb1_6 1_555 1_555
C24_3 C29_3 1_555 1_555
C25_3 C29_3 1_555 1_555
C27_3 C28_3 1_555 1_555
C32_3 N1_3 1_555 1_555
C32_3 H43_3 1_555 1_555
Yb1_7 O3_3 1_555 1_555
Yb2_4 O2_3 1_555 1_555
C3_3 C2_3 1_555 1_555
H2_3 C3_3 1_555 1_555
C4_3 C3_3 1_555 1_555
C5_3 C4_3 1_555 1_555
H3_4 C5_3 1_555 1_555
C7_3 C2_3 1_555 1_555
C8_3 C7_3 1_555 1_555
C9_3 C8_3 1_555 1_555
H4_3 C9_3 1_555 1_555
C10_3 C9_3 1_555 1_555
H5_3 C10_3 1_555 1_555
C11_3 C10_3 1_555 1_555
C12_3 C11_3 1_555 1_555
H6_3 C12_3 1_555 1_555
C13_3 C8_3 1_555 1_555
C14_3 C11_3 1_555 1_555
C15_3 C4_3 1_555 1_555
C16_3 C15_3 1_555 1_555
C17_3 C16_3 1_555 1_555
C20_3 C19_3 1_555 1_555
H10_3 C20_3 1_555 1_555
C21_3 C16_3 1_555 1_555
H11_3 C21_3 1_555 1_555
C22_3 C19_3 1_555 1_555
O1_3 C7_3 1_555 1_555
O2_3 C14_3 1_555 1_555
O3_3 Yb2_4 1_555 1_555
O4_3 C15_3 1_555 1_555
O6_2 C22_3 1_555 1_555
C36_3 C35_3 1_555 1_555
H23_3 C36_3 1_555 1_555
C37_3 C36_3 1_555 1_555
C38_3 C37_3 1_555 1_555
H24_3 C38_3 1_555 1_555
C40_3 C35_3 1_555 1_555
C41_3 C40_3 1_555 1_555
C42_3 C41_3 1_555 1_555
H25_3 C42_3 1_555 1_555
C43_3 C42_3 1_555 1_555
H26_3 C43_3 1_555 1_555
C44_3 C43_3 1_555 1_555
C45_3 C44_3 1_555 1_555
H27_3 C45_3 1_555 1_555
C46_3 C41_3 1_555 1_555
C47_3 C44_3 1_555 1_555
C48_3 C37_3 1_555 1_555
C49_3 C48_3 1_555 1_555
C50_3 C49_3 1_555 1_555
C53_3 C52_3 1_555 1_555
H31_3 C53_3 1_555 1_555
C54_3 C49_3 1_555 1_555
H32_3 C54_3 1_555 1_555
C55_3 C52_3 1_555 1_555
O11_3 C40_3 1_555 1_555
O12_3 Yb2_4 1_555 1_555
O21_3 Yb2_4 1_555 1_555
O14_3 C48_3 1_555 1_555
O25_2 C55_3 1_555 1_555
C64_3 H37_3 1_555 1_555
H38_3 C64_3 1_555 1_555
H39_3 C64_3 1_555 1_555
C65_3 O20_3 1_555 1_555
O20_3 Yb1_7 1_555 1_555
N2_3 C64_3 1_555 1_555
C66_3 N2_3 1_555 1_555
H40_3 C66_3 1_555 1_555
H41_3 C66_3 1_555 1_555
H42_3 C66_3 1_555 1_555
Yb7_2 O6_2 1_555 1_555
O22_3 Yb2_4 1_555 1_555
O23_3 Yb2_4 1_555 1_555
O25_3 Yb1_7 1_555 1_555
O26_3 Yb2_4 1_555 1_555
O27_3 Yb2_4 1_555 1_555
O28_3 Yb1_7 1_555 1_555
C12_3 C13_3 1_555 1_555
C14_3 O3_3 1_555 1_555
C20_3 C21_3 1_555 1_555
C45_3 C46_3 1_555 1_555
C47_3 O12_3 1_555 1_555
C47_3 O21_3 1_555 1_555
C53_3 C54_3 1_555 1_555
C65_3 N2_3 1_555 1_555
C65_3 H44_3 1_555 1_555
C34_3 H22_3 1_555 1_555
C39_3 C34_3 1_555 1_555
H30_3 C51_3 1_555 1_555
C56_3 C39_3 1_555 1_555
C57_3 H33_3 1_555 1_555
C59_3 C58_3 1_555 1_555
C60_3 C59_3 1_555 1_555
C61_3 C57_3 1_555 1_555
H36_3 C61_3 1_555 1_555
C62_3 C56_3 1_555 1_555
C63_3 C60_3 1_555 1_555
O17_3 C56_3 1_555 1_555
O18_3 C63_3 1_555 1_555
O19_3 C63_3 1_555 1_555
Yb7_3 O19_3 1_555 1_555
Yb11_6 O18_3 1_555 1_555
C57_3 C62_3 1_555 1_555
C58_3 C62_3 1_555 1_555
C60_3 C61_3 1_555 1_555
Yb4 O3_4 1_555 1_555
C1_4 H1_4 1_555 1_555
C2_4 C1_4 1_555 1_555
C3_4 C2_4 1_555 1_555
H2_4 C3_4 1_555 1_555
C4_4 C3_4 1_555 1_555
C5_4 C4_4 1_555 1_555
H3_5 C5_4 1_555 1_555
C6_4 C1_4 1_555 1_555
C7_4 C2_4 1_555 1_555
C8_4 C7_4 1_555 1_555
C9_4 C8_4 1_555 1_555
C12_4 C11_4 1_555 1_555
H6_4 C12_4 1_555 1_555
C13_4 C8_4 1_555 1_555
H7_4 C13_4 1_555 1_555
C15_4 C4_4 1_555 1_555
C16_4 C15_4 1_555 1_555
C17_4 C16_4 1_555 1_555
H8_4 C17_4 1_555 1_555
C18_4 C17_4 1_555 1_555
H9_4 C18_4 1_555 1_555
C19_4 C18_4 1_555 1_555
C22_4 C19_4 1_555 1_555
C23_4 C6_4 1_555 1_555
C24_4 H12_4 1_555 1_555
C25_4 H13_4 1_555 1_555
C26_4 C25_4 1_555 1_555
H14_4 C26_4 1_555 1_555
C27_4 C26_4 1_555 1_555
C28_4 C24_4 1_555 1_555
H15_4 C28_4 1_555 1_555
C29_4 C23_4 1_555 1_555
C30_4 C27_4 1_555 1_555
C31_4 H16_4 1_555 1_555
H17_4 C31_4 1_555 1_555
H18_4 C31_4 1_555 1_555
C32_4 O10_4 1_555 1_555
O1_4 C7_4 1_555 1_555
O22_3 C22_4 1_555 1_555
O24_3 C22_4 1_555 1_555
O7_4 C23_4 1_555 1_555
O8_4 C30_4 1_555 1_555
O9_4 C30_4 1_555 1_555
O10_4 Yb4 1_555 1_555
N1_4 C31_4 1_555 1_555
C33_4 N1_4 1_555 1_555
H19_4 C33_4 1_555 1_555
H20_4 C33_4 1_555 1_555
H21_4 C33_4 1_555 1_555
C65_4 O20_4 1_555 1_555
O20_4 Yb4 1_555 1_555
H40_4 C66_4 1_555 1_555
H41_4 C66_4 1_555 1_555
H42_4 C66_4 1_555 1_555
Yb5 O9_4 1_555 1_555
Yb9 O8_4 1_555 1_555
O21_4 Yb4 1_555 1_555
O24_4 Yb4 1_555 1_555
O28_4 Yb4 1_555 1_555
O29_4 Yb4 1_555 1_555
C5_4 C6_4 1_555 1_555
C12_4 C13_4 1_555 1_555
C24_4 C29_4 1_555 1_555
C25_4 C29_4 1_555 1_555
C27_4 C28_4 1_555 1_555
C32_4 N1_4 1_555 1_555
C32_4 H43_4 1_555 1_555
C34_4 H22_4 1_555 1_555
C39_4 C34_4 1_555 1_555
C56_4 C39_4 1_555 1_555
C58_4 H34_4 1_555 1_555
C59_4 C58_4 1_555 1_555
H35_4 C59_4 1_555 1_555
C60_4 C59_4 1_555 1_555
C62_4 C56_4 1_555 1_555
C63_4 C60_4 1_555 1_555
O17_4 C56_4 1_555 1_555
O18_4 C63_4 1_555 1_555
Yb9 O18_4 1_555 1_555
C58_4 C62_4 1_555 1_555
Yb8 O2_4 1_555 1_555
H5_4 C10_4 1_555 1_555
H10_4 C20_4 1_555 1_555
H11_4 C21_4 1_555 1_555
O2_4 C14_4 1_555 1_555
C36_4 C35_4 1_555 1_555
H23_4 C36_4 1_555 1_555
C37_4 C36_4 1_555 1_555
C38_4 C37_4 1_555 1_555
H24_5 C38_4 1_555 1_555
C40_4 C35_4 1_555 1_555
C41_4 C40_4 1_555 1_555
C42_4 C41_4 1_555 1_555
H25_4 C42_4 1_555 1_555
C43_4 C42_4 1_555 1_555
H26_4 C43_4 1_555 1_555
C44_4 C43_4 1_555 1_555
C45_4 C44_4 1_555 1_555
H27_4 C45_4 1_555 1_555
C46_4 C41_4 1_555 1_555
H28_4 C46_4 1_555 1_555
C47_4 C44_4 1_555 1_555
C48_4 C37_4 1_555 1_555
C49_4 C48_4 1_555 1_555
C50_4 C49_4 1_555 1_555
H29_4 C50_4 1_555 1_555
C51_4 C50_4 1_555 1_555
H30_4 C51_4 1_555 1_555
C52_4 C51_4 1_555 1_555
C53_4 C52_4 1_555 1_555
H31_4 C53_4 1_555 1_555
C54_4 C49_4 1_555 1_555
H32_4 C54_4 1_555 1_555
C55_4 C52_4 1_555 1_555
O11_4 C40_4 1_555 1_555
O12_4 Yb8 1_555 1_555
O21_4 Yb8 1_555 1_555
O14_4 C48_4 1_555 1_555
O15_3 C55_4 1_555 1_555
O16_3 C55_4 1_555 1_555
C64_4 H37_4 1_555 1_555
H38_4 C64_4 1_555 1_555
H39_4 C64_4 1_555 1_555
N2_4 C64_4 1_555 1_555
Yb7_4 O16_3 1_555 1_555
Yb11_5 O15_3 1_555 1_555
O22_4 Yb8 1_555 1_555
O26_4 Yb8 1_555 1_555
O27_4 Yb8 1_555 1_555
C20_4 C21_4 1_555 1_555
C45_4 C46_4 1_555 1_555
C47_4 O12_4 1_555 1_555
C47_4 O21_4 1_555 1_555
C53_4 C54_4 1_555 1_555
C57_4 H33_4 1_555 1_555
C61_4 C57_4 1_555 1_555
H36_4 C61_4 1_555 1_555
Yb5 O19_4 1_555 1_555
Yb7_3 O3_5 1_555 1_555
Yb11_4 O2_5 1_555 1_555
C1_5 H1_5 1_555 1_555
C2_5 C1_5 1_555 1_555
C3_5 C2_5 1_555 1_555
H2_5 C3_5 1_555 1_555
C4_5 C3_5 1_555 1_555
C5_5 C4_5 1_555 1_555
H3_6 C5_5 1_555 1_555
C6_5 C1_5 1_555 1_555
C7_5 C2_5 1_555 1_555
C8_5 C7_5 1_555 1_555
C9_5 C8_5 1_555 1_555
H4_5 C9_5 1_555 1_555
C10_5 C9_5 1_555 1_555
H5_5 C10_5 1_555 1_555
C11_5 C10_5 1_555 1_555
C12_5 C11_5 1_555 1_555
H6_5 C12_5 1_555 1_555
C13_5 C8_5 1_555 1_555
H7_5 C13_5 1_555 1_555
C14_5 C11_5 1_555 1_555
C15_5 C4_5 1_555 1_555
C16_5 C15_5 1_555 1_555
C17_5 C16_5 1_555 1_555
H8_5 C17_5 1_555 1_555
C18_5 C17_5 1_555 1_555
H9_5 C18_5 1_555 1_555
C19_5 C18_5 1_555 1_555
C20_5 C19_5 1_555 1_555
H10_5 C20_5 1_555 1_555
C21_5 C16_5 1_555 1_555
H11_5 C21_5 1_555 1_555
C22_5 C19_5 1_555 1_555
C23_5 C6_5 1_555 1_555
C24_5 H12_5 1_555 1_555
C25_5 H13_5 1_555 1_555
C26_5 C25_5 1_555 1_555
H14_5 C26_5 1_555 1_555
C27_5 C26_5 1_555 1_555
C28_5 C24_5 1_555 1_555
H15_5 C28_5 1_555 1_555
C29_5 C23_5 1_555 1_555
C30_5 C27_5 1_555 1_555
O1_5 C7_5 1_555 1_555
O2_5 C14_5 1_555 1_555
O3_5 Yb11_4 1_555 1_555
O4_5 C15_5 1_555 1_555
O22_2 C22_5 1_555 1_555
O24_2 C22_5 1_555 1_555
O7_5 C23_5 1_555 1_555
O26_3 C30_5 1_555 1_555
O28_3 C30_5 1_555 1_555
C64_5 H37_5 1_555 1_555
H38_5 C64_5 1_555 1_555
H39_5 C64_5 1_555 1_555
C65_5 O20_5 1_555 1_555
O20_5 Yb7_3 1_555 1_555
N2_5 C64_5 1_555 1_555
C66_5 N2_5 1_555 1_555
H40_5 C66_5 1_555 1_555
H41_5 C66_5 1_555 1_555
H42_5 C66_5 1_555 1_555
O24_5 Yb7_3 1_555 1_555
C5_5 C6_5 1_555 1_555
C12_5 C13_5 1_555 1_555
C14_5 O3_5 1_555 1_555
C20_5 C21_5 1_555 1_555
C24_5 C29_5 1_555 1_555
C25_5 C29_5 1_555 1_555
C27_5 C28_5 1_555 1_555
C65_5 N2_5 1_555 1_555
C65_5 H44_5 1_555 1_555
C31_5 H16_5 1_555 1_555
H17_5 C31_5 1_555 1_555
H18_5 C31_5 1_555 1_555
C32_5 O10_5 1_555 1_555
O10_5 Yb7_4 1_555 1_555
N1_5 C31_5 1_555 1_555
C33_5 N1_5 1_555 1_555
H19_5 C33_5 1_555 1_555
H20_5 C33_5 1_555 1_555
H21_5 C33_5 1_555 1_555
O21_5 Yb7_4 1_555 1_555
C32_5 N1_5 1_555 1_555
C32_5 H43_5 1_555 1_555
O22_5 Yb11_6 1_555 1_555
C34_5 H22_5 1_555 1_555
C35_5 C34_5 1_555 1_555
C36_5 C35_5 1_555 1_555
H23_5 C36_5 1_555 1_555
C37_5 C36_5 1_555 1_555
C38_5 C37_5 1_555 1_555
H24_6 C38_5 1_555 1_555
C39_5 C34_5 1_555 1_555
C40_5 C35_5 1_555 1_555
C41_5 C40_5 1_555 1_555
C42_5 C41_5 1_555 1_555
H25_5 C42_5 1_555 1_555
C43_5 C42_5 1_555 1_555
H26_5 C43_5 1_555 1_555
C44_5 C43_5 1_555 1_555
C45_5 C44_5 1_555 1_555
H27_5 C45_5 1_555 1_555
C46_5 C41_5 1_555 1_555
H28_5 C46_5 1_555 1_555
C47_5 C44_5 1_555 1_555
C48_5 C37_5 1_555 1_555
C49_5 C48_5 1_555 1_555
C50_5 C49_5 1_555 1_555
H29_5 C50_5 1_555 1_555
C51_5 C50_5 1_555 1_555
H30_5 C51_5 1_555 1_555
C52_5 C51_5 1_555 1_555
C53_5 C52_5 1_555 1_555
H31_5 C53_5 1_555 1_555
C54_5 C49_5 1_555 1_555
H32_5 C54_5 1_555 1_555
C55_5 C52_5 1_555 1_555
C56_5 C39_5 1_555 1_555
C57_5 H33_5 1_555 1_555
C58_5 H34_5 1_555 1_555
C59_5 C58_5 1_555 1_555
H35_5 C59_5 1_555 1_555
C60_5 C59_5 1_555 1_555
C61_5 C57_5 1_555 1_555
H36_5 C61_5 1_555 1_555
C62_5 C56_5 1_555 1_555
C63_5 C60_5 1_555 1_555
O11_5 C40_5 1_555 1_555
O12_5 Yb11_7 1_555 1_555
O21_5 Yb11_7 1_555 1_555
O14_5 C48_5 1_555 1_555
O15_4 C55_5 1_555 1_555
O16_4 C55_5 1_555 1_555
O17_5 C56_5 1_555 1_555
O27_3 C63_5 1_555 1_555
O29_3 C63_5 1_555 1_555
Yb7_2 O16_4 1_555 1_555
Yb11_3 O15_4 1_555 1_555
C38_5 C39_5 1_555 1_555
C45_5 C46_5 1_555 1_555
C47_5 O12_5 1_555 1_555
C47_5 O21_5 1_555 1_555
C53_5 C54_5 1_555 1_555
C57_5 C62_5 1_555 1_555
C58_5 C62_5 1_555 1_555
C60_5 C61_5 1_555 1_555
C31_6 H16_6 1_555 1_555
H17_6 C31_6 1_555 1_555
H18_6 C31_6 1_555 1_555
N1_6 C31_6 1_555 1_555
C24_6 H12_6 1_555 1_555
C28_6 C24_6 1_555 1_555
H15_6 C28_6 1_555 1_555
Yb5 O3_6 1_555 1_555
Yb9 O2_6 1_555 1_555
C3_6 C2_6 1_555 1_555
H2_6 C3_6 1_555 1_555
C4_6 C3_6 1_555 1_555
C5_6 C4_6 1_555 1_555
H3_7 C5_6 1_555 1_555
C7_6 C2_6 1_555 1_555
C8_6 C7_6 1_555 1_555
C9_6 C8_6 1_555 1_555
H4_6 C9_6 1_555 1_555
C10_6 C9_6 1_555 1_555
H5_6 C10_6 1_555 1_555
C11_6 C10_6 1_555 1_555
C12_6 C11_6 1_555 1_555
H6_6 C12_6 1_555 1_555
C13_6 C8_6 1_555 1_555
H7_6 C13_6 1_555 1_555
C14_6 C11_6 1_555 1_555
C15_6 C4_6 1_555 1_555
C16_6 C15_6 1_555 1_555
C17_6 C16_6 1_555 1_555
H8_6 C17_6 1_555 1_555
C18_6 C17_6 1_555 1_555
H9_6 C18_6 1_555 1_555
C19_6 C18_6 1_555 1_555
C20_6 C19_6 1_555 1_555
H10_6 C20_6 1_555 1_555
C21_6 C16_6 1_555 1_555
H11_6 C21_6 1_555 1_555
C22_6 C19_6 1_555 1_555
C32_6 O10_6 1_555 1_555
O1_6 C7_6 1_555 1_555
O2_6 C14_6 1_555 1_555
O3_6 Yb9 1_555 1_555
O4_6 C15_6 1_555 1_555
O22_5 C22_6 1_555 1_555
O24_5 C22_6 1_555 1_555
O10_6 Yb5 1_555 1_555
H19_6 C33_6 1_555 1_555
H20_6 C33_6 1_555 1_555
H21_6 C33_6 1_555 1_555
H26_6 C43_6 1_555 1_555
H31_6 C53_6 1_555 1_555
H32_6 C54_6 1_555 1_555
O12_6 Yb9 1_555 1_555
C64_6 H37_6 1_555 1_555
H38_6 C64_6 1_555 1_555
H39_6 C64_6 1_555 1_555
C65_6 O20_6 1_555 1_555
O20_6 Yb5 1_555 1_555
N2_6 C64_6 1_555 1_555
C66_6 N2_6 1_555 1_555
H40_6 C66_6 1_555 1_555
H41_6 C66_6 1_555 1_555
H42_6 C66_6 1_555 1_555
O21_6 Yb5 1_555 1_555
O23_4 Yb9 1_555 1_555
O25_4 Yb5 1_555 1_555
C12_6 C13_6 1_555 1_555
C14_6 O3_6 1_555 1_555
C20_6 C21_6 1_555 1_555
C47_6 O12_6 1_555 1_555
C53_6 C54_6 1_555 1_555
C65_6 N2_6 1_555 1_555
C65_6 H44_6 1_555 1_555
C1_6 H1_6 1_555 1_555
C6_6 C1_6 1_555 1_555
C23_6 C6_6 1_555 1_555
C25_6 H13_6 1_555 1_555
C26_6 C25_6 1_555 1_555
H14_6 C26_6 1_555 1_555
C27_6 C26_6 1_555 1_555
C29_6 C23_6 1_555 1_555
C30_6 C27_6 1_555 1_555
O7_6 C23_6 1_555 1_555
O26_4 C30_6 1_555 1_555
C25_6 C29_6 1_555 1_555
C34_6 H22_6 1_555 1_555
C35_6 C34_6 1_555 1_555
C36_6 C35_6 1_555 1_555
H23_6 C36_6 1_555 1_555
C37_6 C36_6 1_555 1_555
C38_6 C37_6 1_555 1_555
H24_7 C38_6 1_555 1_555
C39_6 C34_6 1_555 1_555
C40_6 C35_6 1_555 1_555
C41_6 C40_6 1_555 1_555
C42_6 C41_6 1_555 1_555
C45_6 C44_6 1_555 1_555
H27_6 C45_6 1_555 1_555
C46_6 C41_6 1_555 1_555
H28_6 C46_6 1_555 1_555
C48_6 C37_6 1_555 1_555
C49_6 C48_6 1_555 1_555
C50_6 C49_6 1_555 1_555
H29_6 C50_6 1_555 1_555
C51_6 C50_6 1_555 1_555
H30_6 C51_6 1_555 1_555
C52_6 C51_6 1_555 1_555
C55_6 C52_6 1_555 1_555
C56_6 C39_6 1_555 1_555
C57_6 H33_6 1_555 1_555
C58_6 H34_6 1_555 1_555
C59_6 C58_6 1_555 1_555
H35_6 C59_6 1_555 1_555
C60_6 C59_6 1_555 1_555
C61_6 C57_6 1_555 1_555
H36_6 C61_6 1_555 1_555
C62_6 C56_6 1_555 1_555
C63_6 C60_6 1_555 1_555
O11_6 C40_6 1_555 1_555
O23_3 C55_6 1_555 1_555
O25_3 C55_6 1_555 1_555
O17_6 C56_6 1_555 1_555
O27_4 C63_6 1_555 1_555
O29_4 C63_6 1_555 1_555
C38_6 C39_6 1_555 1_555
C45_6 C46_6 1_555 1_555
C57_6 C62_6 1_555 1_555
C58_6 C62_6 1_555 1_555
C60_6 C61_6 1_555 1_555
Yb7 O3_7 1_555 1_555
Yb11 O2_7 1_555 1_555
C7_7 C2_7 1_555 1_555
C8_7 C7_7 1_555 1_555
C9_7 C8_7 1_555 1_555
H4_7 C9_7 1_555 1_555
C10_7 C9_7 1_555 1_555
H5_7 C10_7 1_555 1_555
C11_7 C10_7 1_555 1_555
C12_7 C11_7 1_555 1_555
H6_7 C12_7 1_555 1_555
C13_7 C8_7 1_555 1_555
H7_7 C13_7 1_555 1_555
C14_7 C11_7 1_555 1_555
H14_7 C26_7 1_555 1_555
C27_7 C26_7 1_555 1_555
C30_7 C27_7 1_555 1_555
O1_7 C7_7 1_555 1_555
O2_7 C14_7 1_555 1_555
O3_7 Yb11 1_555 1_555
O26 C30_7 1_555 1_555
O28 C30_7 1_555 1_555
O21_7 Yb7 1_555 1_555
O24_6 Yb7 1_555 1_555
C12_7 C13_7 1_555 1_555
C14_7 O3_7 1_555 1_555
H2_7 C3_7 1_555 1_555
C4_7 C3_7 1_555 1_555
C5_7 C4_7 1_555 1_555
H3_9 C5_7 1_555 1_555
C6_7 C1_7 1_555 1_555
C15_7 C4_7 1_555 1_555
C16_7 C15_7 1_555 1_555
C17_7 C16_7 1_555 1_555
H8_7 C17_7 1_555 1_555
C18_7 C17_7 1_555 1_555
H9_7 C18_7 1_555 1_555
C19_7 C18_7 1_555 1_555
C20_7 C19_7 1_555 1_555
H10_7 C20_7 1_555 1_555
C21_7 C16_7 1_555 1_555
H11_7 C21_7 1_555 1_555
C22_7 C19_7 1_555 1_555
C23_7 C6_7 1_555 1_555
C24_7 H12_7 1_555 1_555
C28_7 C24_7 1_555 1_555
H15_7 C28_7 1_555 1_555
C29_7 C23_7 1_555 1_555
C31_7 H16_7 1_555 1_555
H17_7 C31_7 1_555 1_555
H18_7 C31_7 1_555 1_555
C32_7 O10_7 1_555 1_555
O4_7 C15_7 1_555 1_555
O22_4 C22_7 1_555 1_555
O24_4 C22_7 1_555 1_555
O7_7 C23_7 1_555 1_555
N1_7 C31_7 1_555 1_555
C33_7 N1_7 1_555 1_555
H19_7 C33_7 1_555 1_555
H20_7 C33_7 1_555 1_555
H21_7 C33_7 1_555 1_555
C64_7 H37_7 1_555 1_555
H38_7 C64_7 1_555 1_555
H39_7 C64_7 1_555 1_555
C65_7 O20_7 1_555 1_555
N2_7 C64_7 1_555 1_555
C66_7 N2_7 1_555 1_555
H40_7 C66_7 1_555 1_555
H41_7 C66_7 1_555 1_555
H42_7 C66_7 1_555 1_555
C5_7 C6_7 1_555 1_555
C20_7 C21_7 1_555 1_555
C24_7 C29_7 1_555 1_555
C25_7 C29_7 1_555 1_555
C32_7 N1_7 1_555 1_555
C65_7 N2_7 1_555 1_555
C32_7 H43_7 1_555 1_555
C65_7 H44_7 1_555 1_555
C40_7 C35_7 1_555 1_555
C41_7 C40_7 1_555 1_555
C42_7 C41_7 1_555 1_555
H25_7 C42_7 1_555 1_555
C43_7 C42_7 1_555 1_555
H26_7 C43_7 1_555 1_555
C44_7 C43_7 1_555 1_555
C45_7 C44_7 1_555 1_555
H27_7 C45_7 1_555 1_555
C46_7 C41_7 1_555 1_555
H28_7 C46_7 1_555 1_555
C47_7 C44_7 1_555 1_555
H35_7 C59_7 1_555 1_555
C60_7 C59_7 1_555 1_555
C63_7 C60_7 1_555 1_555
O11_7 C40_7 1_555 1_555
O12_7 Yb11_2 1_555 1_555
O21_7 Yb11_2 1_555 1_555
O27 C63_7 1_555 1_555
O29 C63_7 1_555 1_555
O22_6 Yb11_2 1_555 1_555
C45_7 C46_7 1_555 1_555
C47_7 O12_7 1_555 1_555
C47_7 O21_7 1_555 1_555
H23_7 C36_7 1_555 1_555
C37_7 C36_7 1_555 1_555
C38_7 C37_7 1_555 1_555
H24_8 C38_7 1_555 1_555
C39_7 C34_7 1_555 1_555
C48_7 C37_7 1_555 1_555
C49_7 C48_7 1_555 1_555
C50_7 C49_7 1_555 1_555
H29_7 C50_7 1_555 1_555
C51_7 C50_7 1_555 1_555
H30_7 C51_7 1_555 1_555
C52_7 C51_7 1_555 1_555
C53_7 C52_7 1_555 1_555
H31_7 C53_7 1_555 1_555
C54_7 C49_7 1_555 1_555
H32_7 C54_7 1_555 1_555
C55_7 C52_7 1_555 1_555
C56_7 C39_7 1_555 1_555
C57_7 H33_7 1_555 1_555
C61_7 C57_7 1_555 1_555
H36_7 C61_7 1_555 1_555
C62_7 C56_7 1_555 1_555
O14_7 C48_7 1_555 1_555
O23_4 C55_7 1_555 1_555
O25_4 C55_7 1_555 1_555
O17_7 C56_7 1_555 1_555
C38_7 C39_7 1_555 1_555
C53_7 C54_7 1_555 1_555
C57_7 C62_7 1_555 1_555
C58_7 C62_7 1_555 1_555
C24_8 H12_8 1_555 1_555
C28_8 C24_8 1_555 1_555
H15_8 C28_8 1_555 1_555
C31_8 H16_8 1_555 1_555
H17_8 C31_8 1_555 1_555
H18_8 C31_8 1_555 1_555
N1_8 C31_8 1_555 1_555
Yb7_2 O3_8 1_555 1_555
Yb11_3 O2_8 1_555 1_555
C1_8 H1_8 1_555 1_555
C2_8 C1_8 1_555 1_555
C3_8 C2_8 1_555 1_555
H2_8 C3_8 1_555 1_555
C4_8 C3_8 1_555 1_555
C5_8 C4_8 1_555 1_555
H3_10 C5_8 1_555 1_555
C6_8 C1_8 1_555 1_555
C7_8 C2_8 1_555 1_555
C8_8 C7_8 1_555 1_555
C9_8 C8_8 1_555 1_555
H4_8 C9_8 1_555 1_555
C10_8 C9_8 1_555 1_555
H5_8 C10_8 1_555 1_555
C11_8 C10_8 1_555 1_555
C12_8 C11_8 1_555 1_555
H6_8 C12_8 1_555 1_555
C13_8 C8_8 1_555 1_555
H7_8 C13_8 1_555 1_555
C14_8 C11_8 1_555 1_555
C15_8 C4_8 1_555 1_555
C16_8 C15_8 1_555 1_555
C17_8 C16_8 1_555 1_555
H8_8 C17_8 1_555 1_555
C18_8 C17_8 1_555 1_555
H9_8 C18_8 1_555 1_555
C19_8 C18_8 1_555 1_555
C20_8 C19_8 1_555 1_555
H10_8 C20_8 1_555 1_555
C21_8 C16_8 1_555 1_555
H11_8 C21_8 1_555 1_555
C22_8 C19_8 1_555 1_555
C23_8 C6_8 1_555 1_555
C25_8 H13_8 1_555 1_555
C26_8 C25_8 1_555 1_555
H14_8 C26_8 1_555 1_555
C27_8 C26_8 1_555 1_555
C29_8 C23_8 1_555 1_555
C30_8 C27_8 1_555 1_555
C32_8 O10_8 1_555 1_555
O1_8 C7_8 1_555 1_555
O2_8 C14_8 1_555 1_555
O3_8 Yb11_3 1_555 1_555
O4_8 C15_8 1_555 1_555
O22_6 C22_8 1_555 1_555
O24_6 C22_8 1_555 1_555
O7_8 C23_8 1_555 1_555
O26_2 C30_8 1_555 1_555
O10_8 Yb7_2 1_555 1_555
H19_8 C33_8 1_555 1_555
H20_8 C33_8 1_555 1_555
H21_8 C33_8 1_555 1_555
H26_8 C43_8 1_555 1_555
H31_8 C53_8 1_555 1_555
H32_8 C54_8 1_555 1_555
O12_8 Yb11_3 1_555 1_555
C64_8 H37_8 1_555 1_555
H38_8 C64_8 1_555 1_555
H39_8 C64_8 1_555 1_555
C65_8 O20_8 1_555 1_555
O20_8 Yb7_2 1_555 1_555
N2_8 C64_8 1_555 1_555
C66_8 N2_8 1_555 1_555
H40_8 C66_8 1_555 1_555
H41_8 C66_8 1_555 1_555
H42_8 C66_8 1_555 1_555
O21_8 Yb7_2 1_555 1_555
C5_8 C6_8 1_555 1_555
C12_8 C13_8 1_555 1_555
C14_8 O3_8 1_555 1_555
C20_8 C21_8 1_555 1_555
C25_8 C29_8 1_555 1_555
C47_8 O12_8 1_555 1_555
C53_8 C54_8 1_555 1_555
C65_8 N2_8 1_555 1_555
C65_8 H44_8 1_555 1_555
C34_8 H22_8 1_555 1_555
C39_8 C34_8 1_555 1_555
C56_8 C39_8 1_555 1_555
C57_8 H33_8 1_555 1_555
C58_8 H34_8 1_555 1_555
C59_8 C58_8 1_555 1_555
H35_8 C59_8 1_555 1_555
C60_8 C59_8 1_555 1_555
C61_8 C57_8 1_555 1_555
H36_8 C61_8 1_555 1_555
C62_8 C56_8 1_555 1_555
C63_8 C60_8 1_555 1_555
O17_8 C56_8 1_555 1_555
O27_2 C63_8 1_555 1_555
O29_2 C63_8 1_555 1_555
C57_8 C62_8 1_555 1_555
C58_8 C62_8 1_555 1_555
C60_8 C61_8 1_555 1_555
C36_8 C35_8 1_555 1_555
H23_8 C36_8 1_555 1_555
C37_8 C36_8 1_555 1_555
C38_8 C37_8 1_555 1_555
H24_10 C38_8 1_555 1_555
C40_8 C35_8 1_555 1_555
C41_8 C40_8 1_555 1_555
C42_8 C41_8 1_555 1_555
C45_8 C44_8 1_555 1_555
H27_8 C45_8 1_555 1_555
C46_8 C41_8 1_555 1_555
H28_8 C46_8 1_555 1_555
C48_8 C37_8 1_555 1_555
C49_8 C48_8 1_555 1_555
C50_8 C49_8 1_555 1_555
H29_8 C50_8 1_555 1_555
C51_8 C50_8 1_555 1_555
H30_8 C51_8 1_555 1_555
C52_8 C51_8 1_555 1_555
C55_8 C52_8 1_555 1_555
O11_8 C40_8 1_555 1_555
O23 C55_8 1_555 1_555
O25 C55_8 1_555 1_555
C45_8 C46_8 1_555 1_555

#END
