
###############################################################################
#
# This file contains modified crystal structure data generated from the
# MOF subset of the Cambridge Structural Database (CSD) v543 
# hosted by the Cambridge Crystallographic Data Centre (CCDC).
#
# This work is licensed under the Creative Commons
# Attribution-NonCommercial-ShareAlike 4.0 International License.
# To view a copy of this license, visit
# http://creativecommons.org/licenses/by-nc-sa/4.0/
# or send a letter to
# Creative Commons, PO Box 1866, Mountain View, CA 94042, USA.
#
# CIF created using the CSD Python API on 29 September 2022
# The structure has been converted into the P1 space group
# The structure has a 3D framework
# The original CSD entry QIFMIE is in the orthorhombic crystal system
# The framework has been calculated to contain at least 10.0% void space
# The void calculation uses a probe of radius 1.32A, grid spacing 0.4
# H atom positions have been added when not included in the experimental data
#
###############################################################################

data_QIFMIE
_chemical_formula_moiety         '(C528 H352 Er21 N16 O152)n'
_symmetry_cell_setting           triclinic
_symmetry_space_group_name_H-M   'P 1'
_symmetry_Int_Tables_number      1
_space_group_name_Hall           'P 1'
loop_
_symmetry_equiv_pos_site_id
_symmetry_equiv_pos_as_xyz
1 x,y,z
_cell_length_a                   8.4455(3)
_cell_length_b                   34.9071(13)
_cell_length_c                   52.430(2)
_cell_angle_alpha                90
_cell_angle_beta                 90
_cell_angle_gamma                90
_cell_volume                     15456.8
loop_
_atom_site_label
_atom_site_type_symbol
_atom_site_fract_x
_atom_site_fract_y
_atom_site_fract_z
Er6 Er 0.000000 0.000000 0.43251(2)
Er11 Er 0.500000 -0.000000 0.45754(2)
Er2 Er 0.000000 0.500000 0.45754(2)
C3 C 0.0558(14) 0.7762(3) 0.4048(2)
C4 C 0.1266(12) 0.7986(3) 0.3862(2)
H2 H 0.184203 0.820254 0.390840
C5 C 0.1113(12) 0.7887(3) 0.3607(2)
C6 C 0.0312(12) 0.7572(3) 0.3536(2)
H3 H 0.023667 0.750486 0.336440
H6 H 0.027425 0.610825 0.420457
H7 H 0.042301 0.671837 0.401321
C15 C 0.2022(13) 0.8115(3) 0.3416(2)
C16 C 0.0116(12) 0.8047(3) 0.3053(2)
C18 C 0.1704(13) 0.8073(3) 0.3140(2)
C19 C 0.1114(12) 0.7951(3) 0.2616(2)
C20 C 0.2687(12) 0.8002(3) 0.2701(3)
H10 H 0.353102 0.799496 0.258689
C21 C 0.2941(14) 0.8064(3) 0.2966(3)
H11 H 0.397009 0.809910 0.302492
C22 C 0.0824(12) 0.7871(3) 0.2341(2)
C23 C 0.0805(15) 0.7848(3) 0.4334(2)
C24 C 0.1203(14) 0.8251(3) 0.4402(2)
C25 C 0.2231(16) 0.8306(4) 0.4600(3)
H12 H 0.259919 0.809761 0.469398
C26 C 0.2719(16) 0.8673(4) 0.4661(3)
H13 H 0.347290 0.871078 0.478805
C27 C 0.2075(13) 0.8993(3) 0.4530(2)
C28 C 0.0958(13) 0.8934(4) 0.4349(2)
H14 H 0.045949 0.913941 0.426953
C29 C 0.0562(16) 0.8545(3) 0.4281(3)
C30 C 0.2730(12) 0.9386(3) 0.4575(2)
O4 O 0.3053(11) 0.8340(3) 0.34849(18)
O6 O 0.1926(11) 0.7874(3) 0.21876(19)
O7 O 0.0683(17) 0.7591(3) 0.4483(2)
O8 O 0.2310(8) 0.96708(19) 0.4441(3)
O9 O 0.3831(9) 0.9428(2) 0.47355(19)
Er4 Er 0.250000 0.750000 0.18251(2)
Er6_2 Er 0.000000 1.000000 0.43251(2)
Er11_2 Er 0.500000 1.000000 0.45754(2)
O21 O 0.0582(11) 0.4592(2) 0.4251(2)
O22 O 0.1898(11) 0.4722(3) 0.47936(19)
O28 O 0.2690(8) 0.53292(19) 0.4441(3)
O30 O 0.1169(9) 0.5572(2) 0.47355(19)
Er6_3 Er 1.000000 0.000000 0.43251(2)
Er1 Er 0.500000 0.500000 0.43251(2)
Er2_2 Er 1.000000 0.500000 0.45754(2)
C1 C 0.9569(12) 0.7338(3) 0.3729(2)
C2 C 0.9676(13) 0.7435(3) 0.3978(2)
H1 H 0.917380 0.728829 0.410201
C7 C 0.8657(12) 0.6993(3) 0.3630(2)
C8 C 0.8513(12) 0.6642(3) 0.3792(2)
C9 C 0.7280(12) 0.6397(3) 0.3732(2)
H4 H 0.653070 0.646709 0.361043
C10 C 0.7173(12) 0.6047(3) 0.3855(2)
H5 H 0.633578 0.588371 0.381684
C11 C 0.8296(12) 0.5937(3) 0.4033(2)
C12 C 0.9505(13) 0.6182(3) 0.4088(3)
C13 C 0.9619(13) 0.6548(3) 0.3970(2)
C14 C 0.8180(13) 0.5573(3) 0.4164(2)
H8 H 0.926875 0.806610 0.316546
C17 C 0.9867(12) 0.7990(3) 0.2786(2)
H9 H 0.883561 0.797807 0.272456
H15 H 0.984445 0.850026 0.414941
C31 C 0.632(3) 0.4383(8) 0.3438(6)
H16 H 0.680189 0.427837 0.328847
H17 H 0.563748 0.419454 0.351453
H18 H 0.570126 0.460437 0.339269
C32 C 0.927(3) 0.4457(8) 0.3535(5)
H19 H 0.921851 0.433959 0.336933
H20 H 0.976448 0.470342 0.352096
H21 H 0.987033 0.429761 0.364789
C33 C 0.7340(18) 0.4651(6) 0.3851(4)
O1 O 0.8099(11) 0.7002(2) 0.34152(19)
O2 O 0.6803(11) 0.5414(2) 0.41747(19)
O3 O 0.9418(11) 0.5408(2) 0.4251(2)
O5 O 0.9398(11) 0.7778(3) 0.22936(19)
O10 O 0.6025(10) 0.4690(2) 0.39434(19)
N1 N 0.765(2) 0.4504(6) 0.3636(4)
C34 C 0.0431(12) 0.2662(3) 0.3729(2)
C35 C 0.0324(13) 0.2565(3) 0.3978(2)
H22 H 0.082620 0.271171 0.410201
C40 C 0.1343(12) 0.3007(3) 0.3630(2)
C41 C 0.1487(12) 0.3358(3) 0.3792(2)
C42 C 0.2720(12) 0.3603(3) 0.3732(2)
H25 H 0.346930 0.353291 0.361043
C43 C 0.2827(12) 0.3953(3) 0.3855(2)
H26 H 0.366422 0.411629 0.381684
C44 C 0.1704(12) 0.4063(3) 0.4033(2)
C45 C 0.0495(13) 0.3818(3) 0.4088(3)
C46 C 0.0381(13) 0.3452(3) 0.3970(2)
C47 C 0.1820(13) 0.4427(3) 0.4164(2)
H29 H 0.073125 0.193390 0.316546
C50 C 0.0133(12) 0.2010(3) 0.2786(2)
H30 H 0.116439 0.202193 0.272456
H36 H 0.015555 0.149974 0.414941
C64 C 0.368(3) 0.5617(8) 0.3438(6)
H37 H 0.319811 0.572163 0.328847
H38 H 0.436252 0.580546 0.351453
H39 H 0.429874 0.539563 0.339269
C65 C 0.073(3) 0.5543(8) 0.3535(5)
H40 H 0.078149 0.566041 0.336933
H41 H 0.023552 0.529658 0.352096
H42 H 0.012967 0.570239 0.364789
C66 C 0.2660(18) 0.5349(6) 0.3851(4)
O11 O 0.1901(11) 0.2998(2) 0.34152(19)
O12 O 0.3197(11) 0.4586(2) 0.41747(19)
O15 O 0.0602(11) 0.2222(3) 0.22936(19)
O20 O 0.3975(10) 0.5310(2) 0.39434(19)
N2 N 0.235(2) 0.5496(6) 0.3636(4)
Er6_4 Er 1.000000 1.000000 0.43251(2)
Er8 Er 0.250000 0.250000 0.20754(2)
Er9 Er 0.750000 0.750000 0.20754(2)
O23 O 0.8102(11) 0.5278(3) 0.47936(19)
O24 O 0.4426(11) 0.4626(3) 0.46876(19)
O25 O 0.5574(11) 0.5374(3) 0.46876(19)
O26 O 0.7310(8) 0.46708(19) 0.4441(3)
O29 O 0.8831(9) 0.4428(2) 0.47355(19)
H43 H 0.833941 0.475187 0.396376
H44 H 0.166059 0.524813 0.396376
C36 C 0.9442(14) 0.2238(3) 0.4048(2)
C37 C 0.8734(12) 0.2014(3) 0.3862(2)
H23 H 0.815797 0.179746 0.390840
C38 C 0.8887(12) 0.2113(3) 0.3607(2)
C39 C 0.9688(12) 0.2428(3) 0.3536(2)
H24 H 0.976333 0.249514 0.336440
H27 H 0.972575 0.389175 0.420457
H28 H 0.957699 0.328163 0.401321
C48 C 0.7978(13) 0.1885(3) 0.3416(2)
C49 C 0.9884(12) 0.1953(3) 0.3053(2)
C51 C 0.8296(13) 0.1927(3) 0.3140(2)
C52 C 0.8886(12) 0.2049(3) 0.2616(2)
C53 C 0.7313(12) 0.1998(3) 0.2701(3)
H31 H 0.646898 0.200504 0.258689
C54 C 0.7059(14) 0.1936(3) 0.2966(3)
H32 H 0.602991 0.190090 0.302492
C55 C 0.9176(12) 0.2129(3) 0.2341(2)
C56 C 0.9195(15) 0.2152(3) 0.4334(2)
C57 C 0.8797(14) 0.1749(3) 0.4402(2)
C58 C 0.7769(16) 0.1694(4) 0.4600(3)
H33 H 0.740081 0.190239 0.469398
C59 C 0.7281(16) 0.1327(4) 0.4661(3)
H34 H 0.652710 0.128922 0.478805
C60 C 0.7925(13) 0.1007(3) 0.4530(2)
C61 C 0.9042(13) 0.1066(4) 0.4349(2)
H35 H 0.954051 0.086059 0.426953
C62 C 0.9438(16) 0.1455(3) 0.4281(3)
C63 C 0.7270(12) 0.0614(3) 0.4575(2)
O14 O 0.6947(11) 0.1660(3) 0.34849(18)
O16 O 0.8074(11) 0.2126(3) 0.21876(19)
O17 O 0.9317(17) 0.2409(3) 0.4483(2)
O18 O 0.7690(8) 0.03292(19) 0.4441(3)
O19 O 0.6169(9) 0.0572(2) 0.47355(19)
Er3 Er 0.750000 0.250000 0.18251(2)
Er2_3 Er 0.250000 0.750000 0.70754(2)
C1_2 C 0.2069(12) 0.5162(3) 0.6229(2)
C2_2 C 0.2176(13) 0.5065(3) 0.6478(2)
H1_2 H 0.167380 0.521171 0.660201
C3_2 C 0.3058(14) 0.4738(3) 0.6548(2)
C4_2 C 0.3766(12) 0.4514(3) 0.6362(2)
H2_2 H 0.434203 0.429746 0.640840
C5_2 C 0.3613(12) 0.4613(3) 0.6107(2)
C6_2 C 0.2812(12) 0.4928(3) 0.6036(2)
H3_2 H 0.273667 0.499514 0.586440
C7_2 C 0.1157(12) 0.5507(3) 0.6130(2)
C8_2 C 0.1013(12) 0.5858(3) 0.6292(2)
C11_2 C 0.0796(12) 0.6563(3) 0.6533(2)
C12_2 C 0.2005(13) 0.6318(3) 0.6588(3)
H6_2 H 0.277425 0.639175 0.670457
C13_2 C 0.2119(13) 0.5952(3) 0.6470(2)
H7_2 H 0.292301 0.578163 0.651321
C14_2 C 0.0680(13) 0.6927(3) 0.6664(2)
C15_2 C 0.4522(13) 0.4385(3) 0.5916(2)
C16_2 C 0.2616(12) 0.4453(3) 0.5553(2)
H8_2 H 0.176875 0.443390 0.566546
C17_2 C 0.2367(12) 0.4510(3) 0.5286(2)
H9_2 H 0.133561 0.452193 0.522456
C18_2 C 0.4204(13) 0.4427(3) 0.5640(2)
C19_2 C 0.3614(12) 0.4549(3) 0.5116(2)
C20_2 C 0.5187(12) 0.4498(3) 0.5201(3)
H10_2 H 0.603102 0.450504 0.508689
C21_2 C 0.5441(14) 0.4436(3) 0.5466(3)
H11_2 H 0.647009 0.440090 0.552492
C22_2 C 0.3324(12) 0.4629(3) 0.4841(2)
C23_2 C 0.3305(15) 0.4652(3) 0.6834(2)
C24_2 C 0.3703(14) 0.4249(3) 0.6902(2)
C25_2 C 0.4731(16) 0.4194(4) 0.7100(3)
H12_2 H 0.509919 0.440239 0.719398
C26_2 C 0.5219(16) 0.3827(4) 0.7161(3)
H13_2 H 0.597290 0.378922 0.728805
C27_2 C 0.4575(13) 0.3507(3) 0.7030(2)
C28_2 C 0.3458(13) 0.3566(4) 0.6849(2)
H14_2 H 0.295949 0.336059 0.676953
C29_2 C 0.3062(16) 0.3955(3) 0.6781(3)
H15_2 H 0.234445 0.399974 0.664941
C30_2 C 0.5230(12) 0.3114(3) 0.7075(2)
C32_2 C 0.177(3) 0.8043(8) 0.6035(5)
H19_2 H 0.171851 0.816041 0.586933
H20_2 H 0.226448 0.779658 0.602096
H21_2 H 0.237033 0.820239 0.614789
O1_2 O 0.0599(11) 0.5498(2) 0.59152(19)
O3_2 O 0.1918(11) 0.7092(2) 0.6751(2)
O4_2 O 0.5553(11) 0.4160(3) 0.59849(18)
O7_2 O 0.3183(17) 0.4909(3) 0.6983(2)
O8_2 O 0.4810(8) 0.28292(19) 0.6941(3)
O9_2 O 0.6331(9) 0.3072(2) 0.72355(19)
N1_2 N 0.015(2) 0.7996(6) 0.6136(4)
Er6_5 Er 0.250000 0.250000 0.68251(2)
Er11_3 Er 0.750000 0.250000 0.70754(2)
O21_2 O 0.3082(11) 0.7908(2) 0.6751(2)
O22_2 O 0.4398(11) 0.7778(3) 0.72936(19)
O23_2 O 0.0602(11) 0.7222(3) 0.72936(19)
O28_2 O 0.5190(8) 0.71708(19) 0.6941(3)
O29_2 O 0.1331(9) 0.8072(2) 0.72355(19)
O30_2 O 0.3669(9) 0.6928(2) 0.72355(19)
H43_2 H 0.0839414 0.774813 0.646376
C36_2 C 0.1942(14) 0.0262(3) 0.6548(2)
C37_2 C 0.1234(12) 0.0486(3) 0.6362(2)
H23_2 H 0.065797 0.070254 0.640840
C38_2 C 0.1387(12) 0.0387(3) 0.6107(2)
C39_2 C 0.2188(12) 0.0072(3) 0.6036(2)
H24_2 H 0.226333 0.000486 0.586440
C48_2 C 0.0478(13) 0.0615(3) 0.5916(2)
C49_2 C 0.2384(12) 0.0547(3) 0.5553(2)
H29_2 H 0.323125 0.056610 0.566546
C50_2 C 0.2633(12) 0.0490(3) 0.5286(2)
H30_2 H 0.366439 0.047807 0.522456
C51_2 C 0.0796(13) 0.0573(3) 0.5640(2)
C52_2 C 0.1386(12) 0.0451(3) 0.5116(2)
C55_2 C 0.1676(12) 0.0371(3) 0.4841(2)
C56_2 C 0.1695(15) 0.0348(3) 0.6834(2)
C57_2 C 0.1297(14) 0.0751(3) 0.6902(2)
C58_2 C 0.0269(16) 0.0806(4) 0.7100(3)
C60_2 C 0.0425(13) 0.1493(3) 0.7030(2)
C61_2 C 0.1542(13) 0.1434(4) 0.6849(2)
H35_2 H 0.204051 0.163941 0.676953
C62_2 C 0.1938(16) 0.1045(3) 0.6781(3)
H36_2 H 0.265555 0.100026 0.664941
O15_2 O 0.3102(11) 0.0278(3) 0.47936(19)
O16_2 O 0.0574(11) 0.0374(3) 0.46876(19)
O17_2 O 0.1817(17) 0.0091(3) 0.6983(2)
O18_2 O 0.0190(8) 0.21708(19) 0.6941(3)
Er1_2 Er 0.750000 0.750000 0.68251(2)
C9_2 C 0.9780(12) 0.6103(3) 0.6232(2)
H4_2 H 0.903070 0.603291 0.611043
C10_2 C 0.9673(12) 0.6453(3) 0.6355(2)
H5_2 H 0.883578 0.661629 0.631684
C31_2 C 0.882(3) 0.8117(8) 0.5938(6)
H16_2 H 0.930189 0.822163 0.578847
H17_2 H 0.813748 0.830546 0.601453
H18_2 H 0.820126 0.789563 0.589269
C33_2 C 0.9840(18) 0.7849(6) 0.6351(4)
O2_2 O 0.9303(11) 0.7086(2) 0.66747(19)
O10_2 O 0.8525(10) 0.7810(2) 0.64434(19)
C34_2 C 0.2931(12) 0.9838(3) 0.6229(2)
C35_2 C 0.2824(13) 0.9935(3) 0.6478(2)
H22_2 H 0.332620 0.978829 0.660201
C40_2 C 0.3843(12) 0.9493(3) 0.6130(2)
C41_2 C 0.3987(12) 0.9142(3) 0.6292(2)
C42_2 C 0.5220(12) 0.8897(3) 0.6232(2)
H25_2 H 0.596930 0.896709 0.611043
C43_2 C 0.5327(12) 0.8547(3) 0.6355(2)
H26_2 H 0.616422 0.838371 0.631684
C44_2 C 0.4204(12) 0.8437(3) 0.6533(2)
C45_2 C 0.2995(13) 0.8682(3) 0.6588(3)
H27_2 H 0.222575 0.860825 0.670457
C46_2 C 0.2881(13) 0.9048(3) 0.6470(2)
H28_2 H 0.207699 0.921837 0.651321
C47_2 C 0.4320(13) 0.8073(3) 0.6664(2)
C64_2 C 0.618(3) 0.6883(8) 0.5938(6)
H37_2 H 0.569811 0.677837 0.578847
H38_2 H 0.686252 0.669454 0.601453
H39_2 H 0.679874 0.710437 0.589269
C65_2 C 0.323(3) 0.6957(8) 0.6035(5)
H40_2 H 0.328149 0.683959 0.586933
H41_2 H 0.273552 0.720342 0.602096
H42_2 H 0.262967 0.679761 0.614789
C66_2 C 0.5160(18) 0.7151(6) 0.6351(4)
O11_2 O 0.4401(11) 0.9502(2) 0.59152(19)
O12_2 O 0.5697(11) 0.7914(2) 0.66747(19)
O20_2 O 0.6475(10) 0.7190(2) 0.64434(19)
N2_2 N 0.485(2) 0.7004(6) 0.6136(4)
O24_2 O 0.6926(11) 0.7874(3) 0.71876(19)
O25_2 O 0.8074(11) 0.7126(3) 0.71876(19)
O26_2 O 0.9810(8) 0.78292(19) 0.6941(3)
H44_2 H 0.416059 0.725187 0.646376
C53_2 C 0.9813(12) 0.0502(3) 0.5201(3)
H31_2 H 0.896898 0.049496 0.508689
C54_2 C 0.9559(14) 0.0564(3) 0.5466(3)
H32_2 H 0.852991 0.059910 0.552492
H33_2 H 0.990081 0.059761 0.719398
C59_2 C 0.9781(16) 0.1173(4) 0.7161(3)
H34_2 H 0.902710 0.121078 0.728805
C63_2 C 0.9770(12) 0.1886(3) 0.7075(2)
O14_2 O 0.9447(11) 0.0840(3) 0.59849(18)
O19_2 O 0.8669(9) 0.1928(2) 0.72355(19)
Er2_4 Er 0.000000 -0.000000 0.95754(2)
C3_3 C 0.0558(14) 0.2762(3) 0.9048(2)
C4_3 C 0.1266(12) 0.2986(3) 0.8862(2)
H2_3 H 0.184203 0.320254 0.890840
C5_3 C 0.1113(12) 0.2887(3) 0.8607(2)
C6_3 C 0.0312(12) 0.2572(3) 0.8536(2)
H3_3 H 0.023667 0.250486 0.836440
H6_3 H 0.027425 0.110825 0.920457
H7_3 H 0.042301 0.171837 0.901321
C15_3 C 0.2022(13) 0.3115(3) 0.8416(2)
C16_3 C 0.0116(12) 0.3047(3) 0.8053(2)
C18_3 C 0.1704(13) 0.3073(3) 0.8140(2)
C19_3 C 0.1114(12) 0.2951(3) 0.7616(2)
C20_3 C 0.2687(12) 0.3002(3) 0.7701(3)
H10_3 H 0.353102 0.299496 0.758689
C21_3 C 0.2941(14) 0.3064(3) 0.7966(3)
H11_3 H 0.397009 0.309910 0.802492
C22_3 C 0.0824(12) 0.2871(3) 0.7341(2)
C23_3 C 0.0805(15) 0.2848(3) 0.9334(2)
C24_3 C 0.1203(14) 0.3251(3) 0.9402(2)
C25_3 C 0.2231(16) 0.3306(4) 0.9600(3)
H12_3 H 0.259919 0.309761 0.969398
C26_3 C 0.2719(16) 0.3673(4) 0.9661(3)
H13_3 H 0.347290 0.371078 0.978805
C27_3 C 0.2075(13) 0.3993(3) 0.9530(2)
C28_3 C 0.0958(13) 0.3934(4) 0.9349(2)
H14_3 H 0.045949 0.413941 0.926953
C29_3 C 0.0562(16) 0.3545(3) 0.9281(3)
C30_3 C 0.2730(12) 0.4386(3) 0.9575(2)
O4_3 O 0.3053(11) 0.3340(3) 0.84849(18)
O6_2 O 0.1926(11) 0.2874(3) 0.71876(19)
O7_3 O 0.0683(17) 0.2591(3) 0.9483(2)
O8_3 O 0.2310(8) 0.46708(19) 0.9441(3)
O9_3 O 0.3831(9) 0.4428(2) 0.97355(19)
Er6_6 Er 0.000000 0.500000 0.93251(2)
Er11_4 Er 0.500000 0.500000 0.95754(2)
O28_3 O 0.2690(8) 0.03292(19) 0.9441(3)
O30_3 O 0.1169(9) 0.0572(2) 0.97355(19)
Er2_5 Er 0.000000 1.000000 0.95754(2)
O21_3 O 0.0582(11) 0.9592(2) 0.9251(2)
O22_3 O 0.1898(11) 0.9722(3) 0.97936(19)
Er1_3 Er 0.500000 0.000000 0.93251(2)
Er2_6 Er 1.000000 -0.000000 0.95754(2)
C1_3 C 0.9569(12) 0.2338(3) 0.8729(2)
C2_3 C 0.9676(13) 0.2435(3) 0.8978(2)
H1_3 H 0.917380 0.228829 0.910201
C7_3 C 0.8657(12) 0.1993(3) 0.8630(2)
C8_3 C 0.8513(12) 0.1642(3) 0.8792(2)
C9_3 C 0.7280(12) 0.1397(3) 0.8732(2)
H4_3 H 0.653070 0.146709 0.861043
C10_3 C 0.7173(12) 0.1047(3) 0.8855(2)
H5_3 H 0.633578 0.088371 0.881684
C11_3 C 0.8296(12) 0.0937(3) 0.9033(2)
C12_3 C 0.9505(13) 0.1182(3) 0.9088(3)
C13_3 C 0.9619(13) 0.1548(3) 0.8970(2)
C14_3 C 0.8180(13) 0.0573(3) 0.9164(2)
H8_3 H 0.926875 0.306610 0.816546
C17_3 C 0.9867(12) 0.2990(3) 0.7786(2)
H9_3 H 0.883561 0.297807 0.772456
H15_3 H 0.984445 0.350026 0.914941
O1_3 O 0.8099(11) 0.2002(2) 0.84152(19)
O2_3 O 0.6803(11) 0.0414(2) 0.91747(19)
O3_3 O 0.9418(11) 0.0408(2) 0.9251(2)
O5_2 O 0.9398(11) 0.2778(3) 0.72936(19)
C64_3 C 0.368(3) 0.0617(8) 0.8438(6)
H37_3 H 0.319811 0.072163 0.828847
H38_3 H 0.436252 0.080546 0.851453
H39_3 H 0.429874 0.039563 0.839269
C65_3 C 0.073(3) 0.0543(8) 0.8535(5)
H40_3 H 0.078149 0.066041 0.836933
H41_3 H 0.023552 0.029658 0.852096
H42_3 H 0.012967 0.070239 0.864789
C66_3 C 0.2660(18) 0.0349(6) 0.8851(4)
O20_3 O 0.3975(10) 0.0310(2) 0.89434(19)
N2_3 N 0.235(2) 0.0496(6) 0.8636(4)
Er6_7 Er 1.000000 0.500000 0.93251(2)
O23_3 O 0.8102(11) 0.0278(3) 0.97936(19)
O25_3 O 0.5574(11) 0.0374(3) 0.96876(19)
H44_3 H 0.166059 0.0248132 0.896376
Er1_4 Er 0.500000 1.000000 0.93251(2)
Er2_7 Er 1.000000 1.000000 0.95754(2)
C31_3 C 0.632(3) 0.9383(8) 0.8438(6)
H16_3 H 0.680189 0.927837 0.828847
H17_3 H 0.563748 0.919454 0.851453
H18_3 H 0.570126 0.960437 0.839269
C32_3 C 0.927(3) 0.9457(8) 0.8535(5)
H19_3 H 0.921851 0.933959 0.836933
H20_3 H 0.976448 0.970342 0.852096
H21_3 H 0.987033 0.929761 0.864789
C33_3 C 0.7340(18) 0.9651(6) 0.8851(4)
O10_3 O 0.6025(10) 0.9690(2) 0.89434(19)
N1_3 N 0.765(2) 0.9504(6) 0.8636(4)
C34_3 C 0.0431(12) 0.7662(3) 0.8729(2)
C35_3 C 0.0324(13) 0.7565(3) 0.8978(2)
H22_3 H 0.082620 0.771171 0.910201
C40_3 C 0.1343(12) 0.8007(3) 0.8630(2)
C41_3 C 0.1487(12) 0.8358(3) 0.8792(2)
C42_3 C 0.2720(12) 0.8603(3) 0.8732(2)
H25_3 H 0.346930 0.853291 0.861043
C43_3 C 0.2827(12) 0.8953(3) 0.8855(2)
H26_3 H 0.366422 0.911629 0.881684
C44_3 C 0.1704(12) 0.9063(3) 0.9033(2)
C45_3 C 0.0495(13) 0.8818(3) 0.9088(3)
C46_3 C 0.0381(13) 0.8452(3) 0.8970(2)
C47_3 C 0.1820(13) 0.9427(3) 0.9164(2)
H29_3 H 0.073125 0.693390 0.816546
C50_3 C 0.0133(12) 0.7010(3) 0.7786(2)
H30_3 H 0.116439 0.702193 0.772456
H36_3 H 0.015555 0.649974 0.914941
O11_3 O 0.1901(11) 0.7998(2) 0.84152(19)
O12_3 O 0.3197(11) 0.9586(2) 0.91747(19)
O24_3 O 0.4426(11) 0.9626(3) 0.96876(19)
O26_3 O 0.7310(8) 0.96708(19) 0.9441(3)
O29_3 O 0.8831(9) 0.9428(2) 0.97355(19)
H43_3 H 0.833941 0.975187 0.896376
C36_3 C 0.9442(14) 0.7238(3) 0.9048(2)
C37_3 C 0.8734(12) 0.7014(3) 0.8862(2)
H23_3 H 0.815797 0.679746 0.890840
C38_3 C 0.8887(12) 0.7113(3) 0.8607(2)
C39_3 C 0.9688(12) 0.7428(3) 0.8536(2)
H24_3 H 0.976333 0.749514 0.836440
H27_3 H 0.972575 0.889175 0.920457
H28_3 H 0.957699 0.828163 0.901321
C48_3 C 0.7978(13) 0.6885(3) 0.8416(2)
C49_3 C 0.9884(12) 0.6953(3) 0.8053(2)
C51_3 C 0.8296(13) 0.6927(3) 0.8140(2)
C52_3 C 0.8886(12) 0.7049(3) 0.7616(2)
C53_3 C 0.7313(12) 0.6998(3) 0.7701(3)
H31_3 H 0.646898 0.700504 0.758689
C54_3 C 0.7059(14) 0.6936(3) 0.7966(3)
H32_3 H 0.602991 0.690090 0.802492
C55_3 C 0.9176(12) 0.7129(3) 0.7341(2)
C56_3 C 0.9195(15) 0.7152(3) 0.9334(2)
C57_3 C 0.8797(14) 0.6749(3) 0.9402(2)
C58_3 C 0.7769(16) 0.6694(4) 0.9600(3)
H33_3 H 0.740081 0.690239 0.969398
C59_3 C 0.7281(16) 0.6327(4) 0.9661(3)
H34_3 H 0.652710 0.628922 0.978805
C60_3 C 0.7925(13) 0.6007(3) 0.9530(2)
C61_3 C 0.9042(13) 0.6066(4) 0.9349(2)
H35_3 H 0.954051 0.586059 0.926953
C62_3 C 0.9438(16) 0.6455(3) 0.9281(3)
C63_3 C 0.7270(12) 0.5614(3) 0.9575(2)
O14_3 O 0.6947(11) 0.6660(3) 0.84849(18)
O17_3 O 0.9317(17) 0.7409(3) 0.9483(2)
O18_3 O 0.7690(8) 0.53292(19) 0.9441(3)
O19_3 O 0.6169(9) 0.5572(2) 0.97355(19)
C1_4 C 0.2069(12) 0.0162(3) 0.1229(2)
C2_4 C 0.2176(13) 0.0065(3) 0.1478(2)
H1_4 H 0.167380 0.021171 0.160201
C7_4 C 0.1157(12) 0.0507(3) 0.1130(2)
C8_4 C 0.1013(12) 0.0858(3) 0.1292(2)
C11_4 C 0.0796(12) 0.1563(3) 0.1533(2)
C12_4 C 0.2005(13) 0.1318(3) 0.1588(3)
H6_4 H 0.277425 0.139175 0.170457
C13_4 C 0.2119(13) 0.0952(3) 0.1470(2)
H7_4 H 0.292301 0.078163 0.151321
C14_4 C 0.0680(13) 0.1927(3) 0.1664(2)
C32_4 C 0.177(3) 0.3043(8) 0.1035(5)
H19_4 H 0.171851 0.316041 0.086933
H20_4 H 0.226448 0.279658 0.102096
H21_4 H 0.237033 0.320239 0.114789
O1_4 O 0.0599(11) 0.0498(2) 0.09152(19)
O3_4 O 0.1918(11) 0.2092(2) 0.1751(2)
N1_4 N 0.015(2) 0.2996(6) 0.1136(4)
O21_4 O 0.3082(11) 0.2908(2) 0.1751(2)
O22_4 O 0.4398(11) 0.2778(3) 0.22936(19)
O28_4 O 0.5190(8) 0.21708(19) 0.1941(3)
O29_4 O 0.1331(9) 0.3072(2) 0.22355(19)
O30_4 O 0.3669(9) 0.1928(2) 0.22355(19)
H43_4 H 0.0839414 0.274813 0.146376
C3_4 C 0.3058(14) 0.9738(3) 0.1548(2)
C4_4 C 0.3766(12) 0.9514(3) 0.1362(2)
H2_4 H 0.434203 0.929746 0.140840
C5_4 C 0.3613(12) 0.9613(3) 0.1107(2)
C6_4 C 0.2812(12) 0.9928(3) 0.1036(2)
H3_4 H 0.273667 0.999514 0.086440
C15_4 C 0.4522(13) 0.9385(3) 0.0916(2)
C16_4 C 0.2616(12) 0.9453(3) 0.0553(2)
H8_4 H 0.176875 0.943390 0.066546
C17_4 C 0.2367(12) 0.9510(3) 0.0286(2)
H9_4 H 0.133561 0.952193 0.022456
C18_4 C 0.4204(13) 0.9427(3) 0.0640(2)
C19_4 C 0.3614(12) 0.9549(3) 0.0116(2)
C20_4 C 0.5187(12) 0.9498(3) 0.0201(3)
H10_4 H 0.603102 0.950504 0.008689
C21_4 C 0.5441(14) 0.9436(3) 0.0466(3)
H11_4 H 0.647009 0.940090 0.052492
C23_4 C 0.3305(15) 0.9652(3) 0.1834(2)
C24_4 C 0.3703(14) 0.9249(3) 0.1902(2)
C25_4 C 0.4731(16) 0.9194(4) 0.2100(3)
H12_4 H 0.509919 0.940239 0.219398
C26_4 C 0.5219(16) 0.8827(4) 0.2161(3)
H13_4 H 0.597290 0.878922 0.228805
C27_4 C 0.4575(13) 0.8507(3) 0.2030(2)
C28_4 C 0.3458(13) 0.8566(4) 0.1849(2)
H14_4 H 0.295949 0.836059 0.176953
C29_4 C 0.3062(16) 0.8955(3) 0.1781(3)
H15_4 H 0.234445 0.899974 0.164941
C30_4 C 0.5230(12) 0.8114(3) 0.2075(2)
O4_4 O 0.5553(11) 0.9160(3) 0.09849(18)
O7_4 O 0.3183(17) 0.9909(3) 0.1983(2)
O8_4 O 0.4810(8) 0.78292(19) 0.1941(3)
O9_4 O 0.6331(9) 0.8072(2) 0.22355(19)
C22_4 C 0.3324(12) 0.9629(3) 0.9841(2)
C9_4 C 0.9780(12) 0.1103(3) 0.1232(2)
H4_4 H 0.903070 0.103291 0.111043
C10_4 C 0.9673(12) 0.1453(3) 0.1355(2)
H5_4 H 0.883578 0.161629 0.131684
C31_4 C 0.882(3) 0.3117(8) 0.0938(6)
H16_4 H 0.930189 0.322163 0.078847
H17_4 H 0.813748 0.330546 0.101453
H18_4 H 0.820126 0.289563 0.089269
C33_4 C 0.9840(18) 0.2849(6) 0.1351(4)
O2_4 O 0.9303(11) 0.2086(2) 0.16747(19)
O10_4 O 0.8525(10) 0.2810(2) 0.14434(19)
C34_4 C 0.2931(12) 0.4838(3) 0.1229(2)
C35_4 C 0.2824(13) 0.4935(3) 0.1478(2)
H22_4 H 0.332620 0.478829 0.160201
C36_4 C 0.1942(14) 0.5262(3) 0.1548(2)
C37_4 C 0.1234(12) 0.5486(3) 0.1362(2)
H23_4 H 0.065797 0.570254 0.140840
C38_4 C 0.1387(12) 0.5387(3) 0.1107(2)
C39_4 C 0.2188(12) 0.5072(3) 0.1036(2)
H24_4 H 0.226333 0.500486 0.086440
C40_4 C 0.3843(12) 0.4493(3) 0.1130(2)
C41_4 C 0.3987(12) 0.4142(3) 0.1292(2)
C42_4 C 0.5220(12) 0.3897(3) 0.1232(2)
H25_4 H 0.596930 0.396709 0.111043
C43_4 C 0.5327(12) 0.3547(3) 0.1355(2)
H26_4 H 0.616422 0.338371 0.131684
C44_4 C 0.4204(12) 0.3437(3) 0.1533(2)
C45_4 C 0.2995(13) 0.3682(3) 0.1588(3)
H27_4 H 0.222575 0.360825 0.170457
C46_4 C 0.2881(13) 0.4048(3) 0.1470(2)
H28_4 H 0.207699 0.421837 0.151321
C47_4 C 0.4320(13) 0.3073(3) 0.1664(2)
C48_4 C 0.0478(13) 0.5615(3) 0.0916(2)
C49_4 C 0.2384(12) 0.5547(3) 0.0553(2)
H29_4 H 0.323125 0.556610 0.066546
C50_4 C 0.2633(12) 0.5490(3) 0.0286(2)
H30_4 H 0.366439 0.547807 0.022456
C51_4 C 0.0796(13) 0.5573(3) 0.0640(2)
C52_4 C 0.1386(12) 0.5451(3) 0.0116(2)
C56_4 C 0.1695(15) 0.5348(3) 0.1834(2)
C57_4 C 0.1297(14) 0.5751(3) 0.1902(2)
C58_4 C 0.0269(16) 0.5806(4) 0.2100(3)
C60_4 C 0.0425(13) 0.6493(3) 0.2030(2)
C61_4 C 0.1542(13) 0.6434(4) 0.1849(2)
H35_4 H 0.204051 0.663941 0.176953
C62_4 C 0.1938(16) 0.6045(3) 0.1781(3)
H36_4 H 0.265555 0.600026 0.164941
C64_4 C 0.618(3) 0.1883(8) 0.0938(6)
H37_4 H 0.569811 0.177837 0.078847
H38_4 H 0.686252 0.169454 0.101453
H39_4 H 0.679874 0.210437 0.089269
C65_4 C 0.323(3) 0.1957(8) 0.1035(5)
H40_4 H 0.328149 0.183959 0.086933
H41_4 H 0.273552 0.220342 0.102096
H42_4 H 0.262967 0.179761 0.114789
C66_4 C 0.5160(18) 0.2151(6) 0.1351(4)
O11_4 O 0.4401(11) 0.4502(2) 0.09152(19)
O12_4 O 0.5697(11) 0.2914(2) 0.16747(19)
O17_4 O 0.1817(17) 0.5091(3) 0.1983(2)
O18_4 O 0.0190(8) 0.71708(19) 0.1941(3)
O20_4 O 0.6475(10) 0.2190(2) 0.14434(19)
N2_4 N 0.485(2) 0.2004(6) 0.1136(4)
O24_4 O 0.6926(11) 0.2874(3) 0.21876(19)
O26_4 O 0.9810(8) 0.28292(19) 0.1941(3)
H44_4 H 0.416059 0.225187 0.146376
C55_4 C 0.1676(12) 0.5371(3) 0.9841(2)
O15_3 O 0.3102(11) 0.5278(3) 0.97936(19)
O16_3 O 0.0574(11) 0.5374(3) 0.96876(19)
C53_4 C 0.9813(12) 0.5502(3) 0.0201(3)
H31_4 H 0.896898 0.549496 0.008689
C54_4 C 0.9559(14) 0.5564(3) 0.0466(3)
H32_4 H 0.852991 0.559910 0.052492
H33_4 H 0.990081 0.559761 0.219398
C59_4 C 0.9781(16) 0.6173(4) 0.2161(3)
H34_4 H 0.902710 0.621078 0.228805
C63_4 C 0.9770(12) 0.6886(3) 0.2075(2)
O14_4 O 0.9447(11) 0.5840(3) 0.09849(18)
O19_4 O 0.8669(9) 0.6928(2) 0.22355(19)
C1_5 C 0.4569(12) 0.7338(3) 0.8729(2)
C2_5 C 0.4676(13) 0.7435(3) 0.8978(2)
H1_5 H 0.417380 0.728829 0.910201
C3_5 C 0.5558(14) 0.7762(3) 0.9048(2)
C4_5 C 0.6266(12) 0.7986(3) 0.8862(2)
H2_5 H 0.684203 0.820254 0.890840
C5_5 C 0.6113(12) 0.7887(3) 0.8607(2)
C6_5 C 0.5312(12) 0.7572(3) 0.8536(2)
H3_5 H 0.523667 0.750486 0.836440
C7_5 C 0.3657(12) 0.6993(3) 0.8630(2)
C8_5 C 0.3513(12) 0.6642(3) 0.8792(2)
C9_5 C 0.2280(12) 0.6397(3) 0.8732(2)
H4_5 H 0.153070 0.646709 0.861043
C10_5 C 0.2173(12) 0.6047(3) 0.8855(2)
H5_5 H 0.133578 0.588371 0.881684
C11_5 C 0.3296(12) 0.5937(3) 0.9033(2)
C12_5 C 0.4505(13) 0.6182(3) 0.9088(3)
H6_5 H 0.527425 0.610825 0.920457
C13_5 C 0.4619(13) 0.6548(3) 0.8970(2)
H7_5 H 0.542301 0.671837 0.901321
C14_5 C 0.3180(13) 0.5573(3) 0.9164(2)
C15_5 C 0.7022(13) 0.8115(3) 0.8416(2)
C16_5 C 0.5116(12) 0.8047(3) 0.8053(2)
H8_5 H 0.426875 0.806610 0.816546
C17_5 C 0.4867(12) 0.7990(3) 0.7786(2)
H9_5 H 0.383561 0.797807 0.772456
C18_5 C 0.6704(13) 0.8073(3) 0.8140(2)
C19_5 C 0.6114(12) 0.7951(3) 0.7616(2)
C20_5 C 0.7687(12) 0.8002(3) 0.7701(3)
H10_5 H 0.853102 0.799496 0.758689
C21_5 C 0.7941(14) 0.8064(3) 0.7966(3)
H11_5 H 0.897009 0.809910 0.802492
C22_5 C 0.5824(12) 0.7871(3) 0.7341(2)
C23_5 C 0.5805(15) 0.7848(3) 0.9334(2)
C24_5 C 0.6203(14) 0.8251(3) 0.9402(2)
C25_5 C 0.7231(16) 0.8306(4) 0.9600(3)
H12_5 H 0.759919 0.809761 0.969398
C26_5 C 0.7719(16) 0.8673(4) 0.9661(3)
H13_5 H 0.847290 0.871078 0.978805
C27_5 C 0.7075(13) 0.8993(3) 0.9530(2)
C28_5 C 0.5958(13) 0.8934(4) 0.9349(2)
H14_5 H 0.545949 0.913941 0.926953
C29_5 C 0.5562(16) 0.8545(3) 0.9281(3)
H15_5 H 0.484445 0.850026 0.914941
C30_5 C 0.7730(12) 0.9386(3) 0.9575(2)
C31_5 C 0.132(3) 0.4383(8) 0.8438(6)
H16_5 H 0.180189 0.427837 0.828847
H17_5 H 0.063748 0.419454 0.851453
H18_5 H 0.070126 0.460437 0.839269
C32_5 C 0.427(3) 0.4457(8) 0.8535(5)
H19_5 H 0.421851 0.433959 0.836933
H20_5 H 0.476448 0.470342 0.852096
H21_5 H 0.487033 0.429761 0.864789
C33_5 C 0.2340(18) 0.4651(6) 0.8851(4)
O1_5 O 0.3099(11) 0.7002(2) 0.84152(19)
O2_5 O 0.1803(11) 0.5414(2) 0.91747(19)
O3_5 O 0.4418(11) 0.5408(2) 0.9251(2)
O4_5 O 0.8053(11) 0.8340(3) 0.84849(18)
O7_5 O 0.5683(17) 0.7591(3) 0.9483(2)
O10_5 O 0.1025(10) 0.4690(2) 0.89434(19)
N1_5 N 0.265(2) 0.4504(6) 0.8636(4)
O21_5 O 0.5582(11) 0.4592(2) 0.9251(2)
O22_5 O 0.6898(11) 0.4722(3) 0.97936(19)
H43_5 H 0.333941 0.475187 0.896376
C34_5 C 0.5431(12) 0.2662(3) 0.8729(2)
C35_5 C 0.5324(13) 0.2565(3) 0.8978(2)
H22_5 H 0.582620 0.271171 0.910201
C36_5 C 0.4442(14) 0.2238(3) 0.9048(2)
C37_5 C 0.3734(12) 0.2014(3) 0.8862(2)
H23_5 H 0.315797 0.179746 0.890840
C38_5 C 0.3887(12) 0.2113(3) 0.8607(2)
C39_5 C 0.4688(12) 0.2428(3) 0.8536(2)
H24_5 H 0.476333 0.249514 0.836440
C40_5 C 0.6343(12) 0.3007(3) 0.8630(2)
C41_5 C 0.6487(12) 0.3358(3) 0.8792(2)
C42_5 C 0.7720(12) 0.3603(3) 0.8732(2)
H25_5 H 0.846930 0.353291 0.861043
C43_5 C 0.7827(12) 0.3953(3) 0.8855(2)
H26_5 H 0.866422 0.411629 0.881684
C44_5 C 0.6704(12) 0.4063(3) 0.9033(2)
C45_5 C 0.5495(13) 0.3818(3) 0.9088(3)
H27_5 H 0.472575 0.389175 0.920457
C46_5 C 0.5381(13) 0.3452(3) 0.8970(2)
H28_5 H 0.457699 0.328163 0.901321
C47_5 C 0.6820(13) 0.4427(3) 0.9164(2)
C48_5 C 0.2978(13) 0.1885(3) 0.8416(2)
C49_5 C 0.4884(12) 0.1953(3) 0.8053(2)
H29_5 H 0.573125 0.193390 0.816546
C50_5 C 0.5133(12) 0.2010(3) 0.7786(2)
H30_5 H 0.616439 0.202193 0.772456
C51_5 C 0.3296(13) 0.1927(3) 0.8140(2)
C52_5 C 0.3886(12) 0.2049(3) 0.7616(2)
C53_5 C 0.2313(12) 0.1998(3) 0.7701(3)
H31_5 H 0.146898 0.200504 0.758689
C54_5 C 0.2059(14) 0.1936(3) 0.7966(3)
H32_5 H 0.102991 0.190090 0.802492
C55_5 C 0.4176(12) 0.2129(3) 0.7341(2)
C56_5 C 0.4195(15) 0.2152(3) 0.9334(2)
C57_5 C 0.3797(14) 0.1749(3) 0.9402(2)
C58_5 C 0.2769(16) 0.1694(4) 0.9600(3)
H33_5 H 0.240081 0.190239 0.969398
C59_5 C 0.2281(16) 0.1327(4) 0.9661(3)
H34_5 H 0.152710 0.128922 0.978805
C60_5 C 0.2925(13) 0.1007(3) 0.9530(2)
C61_5 C 0.4042(13) 0.1066(4) 0.9349(2)
H35_5 H 0.454051 0.086059 0.926953
C62_5 C 0.4438(16) 0.1455(3) 0.9281(3)
H36_5 H 0.515555 0.149974 0.914941
C63_5 C 0.2270(12) 0.0614(3) 0.9575(2)
C64_5 C 0.868(3) 0.5617(8) 0.8438(6)
H37_5 H 0.819811 0.572163 0.828847
H38_5 H 0.936252 0.580546 0.851453
H39_5 H 0.929874 0.539563 0.839269
C65_5 C 0.573(3) 0.5543(8) 0.8535(5)
H40_5 H 0.578149 0.566041 0.836933
H41_5 H 0.523552 0.529658 0.852096
H42_5 H 0.512967 0.570239 0.864789
C66_5 C 0.7660(18) 0.5349(6) 0.8851(4)
O11_5 O 0.6901(11) 0.2998(2) 0.84152(19)
O12_5 O 0.8197(11) 0.4586(2) 0.91747(19)
O14_5 O 0.1947(11) 0.1660(3) 0.84849(18)
O15_4 O 0.5602(11) 0.2222(3) 0.72936(19)
O16_4 O 0.3074(11) 0.2126(3) 0.71876(19)
O17_5 O 0.4317(17) 0.2409(3) 0.9483(2)
O20_5 O 0.8975(10) 0.5310(2) 0.89434(19)
N2_5 N 0.735(2) 0.5496(6) 0.8636(4)
O24_5 O 0.9426(11) 0.4626(3) 0.96876(19)
H44_5 H 0.666059 0.524813 0.896376
C20_6 C 0.0187(12) 0.4498(3) 0.0201(3)
H10_6 H 0.103102 0.450504 0.008689
C21_6 C 0.0441(14) 0.4436(3) 0.0466(3)
H11_6 H 0.147009 0.440090 0.052492
H12_6 H 0.009919 0.440239 0.219398
C26_6 C 0.0219(16) 0.3827(4) 0.2161(3)
H13_6 H 0.097290 0.378922 0.228805
C30_6 C 0.0230(12) 0.3114(3) 0.2075(2)
O4_6 O 0.0553(11) 0.4160(3) 0.09849(18)
C1_6 C 0.7069(12) 0.5162(3) 0.1229(2)
C2_6 C 0.7176(13) 0.5065(3) 0.1478(2)
H1_6 H 0.667380 0.521171 0.160201
C3_6 C 0.8058(14) 0.4738(3) 0.1548(2)
C4_6 C 0.8766(12) 0.4514(3) 0.1362(2)
H2_6 H 0.934203 0.429746 0.140840
C5_6 C 0.8613(12) 0.4613(3) 0.1107(2)
C6_6 C 0.7812(12) 0.4928(3) 0.1036(2)
H3_6 H 0.773667 0.499514 0.086440
C7_6 C 0.6157(12) 0.5507(3) 0.1130(2)
C8_6 C 0.6013(12) 0.5858(3) 0.1292(2)
C9_6 C 0.4780(12) 0.6103(3) 0.1232(2)
H4_6 H 0.403070 0.603291 0.111043
C10_6 C 0.4673(12) 0.6453(3) 0.1355(2)
H5_6 H 0.383578 0.661629 0.131684
C11_6 C 0.5796(12) 0.6563(3) 0.1533(2)
C12_6 C 0.7005(13) 0.6318(3) 0.1588(3)
H6_6 H 0.777425 0.639175 0.170457
C13_6 C 0.7119(13) 0.5952(3) 0.1470(2)
H7_6 H 0.792301 0.578163 0.151321
C14_6 C 0.5680(13) 0.6927(3) 0.1664(2)
C15_6 C 0.9522(13) 0.4385(3) 0.0916(2)
C16_6 C 0.7616(12) 0.4453(3) 0.0553(2)
H8_6 H 0.676875 0.443390 0.066546
C17_6 C 0.7367(12) 0.4510(3) 0.0286(2)
H9_6 H 0.633561 0.452193 0.022456
C18_6 C 0.9204(13) 0.4427(3) 0.0640(2)
C19_6 C 0.8614(12) 0.4549(3) 0.0116(2)
C23_6 C 0.8305(15) 0.4652(3) 0.1834(2)
C24_6 C 0.8703(14) 0.4249(3) 0.1902(2)
C25_6 C 0.9731(16) 0.4194(4) 0.2100(3)
C27_6 C 0.9575(13) 0.3507(3) 0.2030(2)
C28_6 C 0.8458(13) 0.3566(4) 0.1849(2)
H14_6 H 0.795949 0.336059 0.176953
C29_6 C 0.8062(16) 0.3955(3) 0.1781(3)
H15_6 H 0.734445 0.399974 0.164941
C31_6 C 0.382(3) 0.8117(8) 0.0938(6)
H16_6 H 0.430189 0.822163 0.078847
H17_6 H 0.313748 0.830546 0.101453
H18_6 H 0.320126 0.789563 0.089269
C32_6 C 0.677(3) 0.8043(8) 0.1035(5)
H19_6 H 0.671851 0.816041 0.086933
H20_6 H 0.726448 0.779658 0.102096
H21_6 H 0.737033 0.820239 0.114789
C33_6 C 0.4840(18) 0.7849(6) 0.1351(4)
O1_6 O 0.5599(11) 0.5498(2) 0.09152(19)
O2_6 O 0.4303(11) 0.7086(2) 0.16747(19)
O3_6 O 0.6918(11) 0.7092(2) 0.1751(2)
O7_6 O 0.8183(17) 0.4909(3) 0.1983(2)
O10_6 O 0.3525(10) 0.7810(2) 0.14434(19)
N1_6 N 0.515(2) 0.7996(6) 0.1136(4)
C42_6 C 0.0220(12) 0.8897(3) 0.1232(2)
H25_6 H 0.096930 0.896709 0.111043
C43_6 C 0.0327(12) 0.8547(3) 0.1355(2)
H26_6 H 0.116422 0.838371 0.131684
C64_6 C 0.118(3) 0.6883(8) 0.0938(6)
H37_6 H 0.069811 0.677837 0.078847
H38_6 H 0.186252 0.669454 0.101453
H39_6 H 0.179874 0.710437 0.089269
C66_6 C 0.0160(18) 0.7151(6) 0.1351(4)
O12_6 O 0.0697(11) 0.7914(2) 0.16747(19)
O20_6 O 0.1475(10) 0.7190(2) 0.14434(19)
O21_6 O 0.8082(11) 0.7908(2) 0.1751(2)
O23_4 O 0.5602(11) 0.7222(3) 0.22936(19)
O25_4 O 0.3074(11) 0.7126(3) 0.21876(19)
H43_6 H 0.583941 0.774813 0.146376
C22_6 C 0.8324(12) 0.4629(3) 0.9841(2)
C36_6 C 0.6942(14) 0.0262(3) 0.1548(2)
C37_6 C 0.6234(12) 0.0486(3) 0.1362(2)
H23_6 H 0.565797 0.070254 0.140840
C38_6 C 0.6387(12) 0.0387(3) 0.1107(2)
C39_6 C 0.7188(12) 0.0072(3) 0.1036(2)
H24_6 H 0.726333 0.000486 0.086440
C48_6 C 0.5478(13) 0.0615(3) 0.0916(2)
C49_6 C 0.7384(12) 0.0547(3) 0.0553(2)
H29_6 H 0.823125 0.056610 0.066546
C50_6 C 0.7633(12) 0.0490(3) 0.0286(2)
H30_6 H 0.866439 0.047807 0.022456
C51_6 C 0.5796(13) 0.0573(3) 0.0640(2)
C52_6 C 0.6386(12) 0.0451(3) 0.0116(2)
C53_6 C 0.4813(12) 0.0502(3) 0.0201(3)
H31_6 H 0.396898 0.049496 0.008689
C54_6 C 0.4559(14) 0.0564(3) 0.0466(3)
H32_6 H 0.352991 0.059910 0.052492
C56_6 C 0.6695(15) 0.0348(3) 0.1834(2)
C57_6 C 0.6297(14) 0.0751(3) 0.1902(2)
C58_6 C 0.5269(16) 0.0806(4) 0.2100(3)
H33_6 H 0.490081 0.059761 0.219398
C59_6 C 0.4781(16) 0.1173(4) 0.2161(3)
H34_6 H 0.402710 0.121078 0.228805
C60_6 C 0.5425(13) 0.1493(3) 0.2030(2)
C61_6 C 0.6542(13) 0.1434(4) 0.1849(2)
H35_6 H 0.704051 0.163941 0.176953
C62_6 C 0.6938(16) 0.1045(3) 0.1781(3)
H36_6 H 0.765555 0.100026 0.164941
C63_6 C 0.4770(12) 0.1886(3) 0.2075(2)
O14_6 O 0.4447(11) 0.0840(3) 0.09849(18)
O17_6 O 0.6817(17) 0.0091(3) 0.1983(2)
C55_6 C 0.6676(12) 0.0371(3) 0.9841(2)
C34_6 C 0.7931(12) 0.9838(3) 0.1229(2)
C35_6 C 0.7824(13) 0.9935(3) 0.1478(2)
H22_6 H 0.832620 0.978829 0.160201
C40_6 C 0.8843(12) 0.9493(3) 0.1130(2)
C41_6 C 0.8987(12) 0.9142(3) 0.1292(2)
C44_6 C 0.9204(12) 0.8437(3) 0.1533(2)
C45_6 C 0.7995(13) 0.8682(3) 0.1588(3)
H27_6 H 0.722575 0.860825 0.170457
C46_6 C 0.7881(13) 0.9048(3) 0.1470(2)
H28_6 H 0.707699 0.921837 0.151321
C47_6 C 0.9320(13) 0.8073(3) 0.1664(2)
C65_6 C 0.823(3) 0.6957(8) 0.1035(5)
H40_6 H 0.828149 0.683959 0.086933
H41_6 H 0.773552 0.720342 0.102096
H42_6 H 0.762967 0.679761 0.114789
O11_6 O 0.9401(11) 0.9502(2) 0.09152(19)
N2_6 N 0.985(2) 0.7004(6) 0.1136(4)
H44_6 H 0.916059 0.725187 0.146376
C1_7 C 0.4569(12) 0.2338(3) 0.3729(2)
C2_7 C 0.4676(13) 0.2435(3) 0.3978(2)
H1_7 H 0.417380 0.228829 0.410201
C3_7 C 0.5558(14) 0.2762(3) 0.4048(2)
C4_7 C 0.6266(12) 0.2986(3) 0.3862(2)
H2_7 H 0.684203 0.320254 0.390840
C5_7 C 0.6113(12) 0.2887(3) 0.3607(2)
C6_7 C 0.5312(12) 0.2572(3) 0.3536(2)
H3_7 H 0.523667 0.250486 0.336440
C7_7 C 0.3657(12) 0.1993(3) 0.3630(2)
C8_7 C 0.3513(12) 0.1642(3) 0.3792(2)
C9_7 C 0.2280(12) 0.1397(3) 0.3732(2)
H4_7 H 0.153070 0.146709 0.361043
C10_7 C 0.2173(12) 0.1047(3) 0.3855(2)
H5_7 H 0.133578 0.088371 0.381684
C11_7 C 0.3296(12) 0.0937(3) 0.4033(2)
C12_7 C 0.4505(13) 0.1182(3) 0.4088(3)
H6_7 H 0.527425 0.110825 0.420457
C13_7 C 0.4619(13) 0.1548(3) 0.3970(2)
H7_7 H 0.542301 0.171837 0.401321
C14_7 C 0.3180(13) 0.0573(3) 0.4164(2)
C15_7 C 0.7022(13) 0.3115(3) 0.3416(2)
C16_7 C 0.5116(12) 0.3047(3) 0.3053(2)
H8_7 H 0.426875 0.306610 0.316546
C17_7 C 0.4867(12) 0.2990(3) 0.2786(2)
H9_7 H 0.383561 0.297807 0.272456
C18_7 C 0.6704(13) 0.3073(3) 0.3140(2)
C19_7 C 0.6114(12) 0.2951(3) 0.2616(2)
C20_7 C 0.7687(12) 0.3002(3) 0.2701(3)
H10_7 H 0.853102 0.299496 0.258689
C21_7 C 0.7941(14) 0.3064(3) 0.2966(3)
H11_7 H 0.897009 0.309910 0.302492
C22_7 C 0.5824(12) 0.2871(3) 0.2341(2)
C23_7 C 0.5805(15) 0.2848(3) 0.4334(2)
C24_7 C 0.6203(14) 0.3251(3) 0.4402(2)
C25_7 C 0.7231(16) 0.3306(4) 0.4600(3)
H12_7 H 0.759919 0.309761 0.469398
C26_7 C 0.7719(16) 0.3673(4) 0.4661(3)
H13_7 H 0.847290 0.371078 0.478805
C27_7 C 0.7075(13) 0.3993(3) 0.4530(2)
C28_7 C 0.5958(13) 0.3934(4) 0.4349(2)
H14_7 H 0.545949 0.413941 0.426953
C29_7 C 0.5562(16) 0.3545(3) 0.4281(3)
H15_7 H 0.484445 0.350026 0.414941
C30_7 C 0.7730(12) 0.4386(3) 0.4575(2)
O1_7 O 0.3099(11) 0.2002(2) 0.34152(19)
O2_7 O 0.1803(11) 0.0414(2) 0.41747(19)
O3_7 O 0.4418(11) 0.0408(2) 0.4251(2)
O4_7 O 0.8053(11) 0.3340(3) 0.34849(18)
O7_7 O 0.5683(17) 0.2591(3) 0.4483(2)
C31_7 C 0.132(3) 0.9383(8) 0.3438(6)
H16_7 H 0.180189 0.927837 0.328847
H17_7 H 0.063748 0.919454 0.351453
H18_7 H 0.070126 0.960437 0.339269
C32_7 C 0.427(3) 0.9457(8) 0.3535(5)
H19_7 H 0.421851 0.933959 0.336933
H20_7 H 0.476448 0.970342 0.352096
H21_7 H 0.487033 0.929761 0.364789
C33_7 C 0.2340(18) 0.9651(6) 0.3851(4)
O10_7 O 0.1025(10) 0.9690(2) 0.39434(19)
N1_7 N 0.265(2) 0.9504(6) 0.3636(4)
O21_7 O 0.5582(11) 0.9592(2) 0.4251(2)
O22_6 O 0.6898(11) 0.9722(3) 0.47936(19)
H43_7 H 0.333941 0.975187 0.396376
C64_7 C 0.868(3) 0.0617(8) 0.3438(6)
H37_7 H 0.819811 0.072163 0.328847
H38_7 H 0.936252 0.080546 0.351453
H39_7 H 0.929874 0.039563 0.339269
C65_7 C 0.573(3) 0.0543(8) 0.3535(5)
H40_7 H 0.578149 0.066041 0.336933
H41_7 H 0.523552 0.029658 0.352096
H42_7 H 0.512967 0.070239 0.364789
C66_7 C 0.7660(18) 0.0349(6) 0.3851(4)
O20_7 O 0.8975(10) 0.0310(2) 0.39434(19)
N2_7 N 0.735(2) 0.0496(6) 0.3636(4)
H44_7 H 0.666059 0.0248132 0.396376
C34_7 C 0.5431(12) 0.7662(3) 0.3729(2)
C35_7 C 0.5324(13) 0.7565(3) 0.3978(2)
H22_7 H 0.582620 0.771171 0.410201
C36_7 C 0.4442(14) 0.7238(3) 0.4048(2)
C37_7 C 0.3734(12) 0.7014(3) 0.3862(2)
H23_7 H 0.315797 0.679746 0.390840
C38_7 C 0.3887(12) 0.7113(3) 0.3607(2)
C39_7 C 0.4688(12) 0.7428(3) 0.3536(2)
H24_7 H 0.476333 0.749514 0.336440
C40_7 C 0.6343(12) 0.8007(3) 0.3630(2)
C41_7 C 0.6487(12) 0.8358(3) 0.3792(2)
C42_7 C 0.7720(12) 0.8603(3) 0.3732(2)
H25_7 H 0.846930 0.853291 0.361043
C43_7 C 0.7827(12) 0.8953(3) 0.3855(2)
H26_7 H 0.866422 0.911629 0.381684
C44_7 C 0.6704(12) 0.9063(3) 0.4033(2)
C45_7 C 0.5495(13) 0.8818(3) 0.4088(3)
H27_7 H 0.472575 0.889175 0.420457
C46_7 C 0.5381(13) 0.8452(3) 0.3970(2)
H28_7 H 0.457699 0.828163 0.401321
C47_7 C 0.6820(13) 0.9427(3) 0.4164(2)
C48_7 C 0.2978(13) 0.6885(3) 0.3416(2)
C49_7 C 0.4884(12) 0.6953(3) 0.3053(2)
H29_7 H 0.573125 0.693390 0.316546
C50_7 C 0.5133(12) 0.7010(3) 0.2786(2)
H30_7 H 0.616439 0.702193 0.272456
C51_7 C 0.3296(13) 0.6927(3) 0.3140(2)
C52_7 C 0.3886(12) 0.7049(3) 0.2616(2)
C53_7 C 0.2313(12) 0.6998(3) 0.2701(3)
H31_7 H 0.146898 0.700504 0.258689
C54_7 C 0.2059(14) 0.6936(3) 0.2966(3)
H32_7 H 0.102991 0.690090 0.302492
C55_7 C 0.4176(12) 0.7129(3) 0.2341(2)
C56_7 C 0.4195(15) 0.7152(3) 0.4334(2)
C57_7 C 0.3797(14) 0.6749(3) 0.4402(2)
C58_7 C 0.2769(16) 0.6694(4) 0.4600(3)
H33_7 H 0.240081 0.690239 0.469398
C59_7 C 0.2281(16) 0.6327(4) 0.4661(3)
H34_7 H 0.152710 0.628922 0.478805
C60_7 C 0.2925(13) 0.6007(3) 0.4530(2)
C61_7 C 0.4042(13) 0.6066(4) 0.4349(2)
H35_7 H 0.454051 0.586059 0.426953
C62_7 C 0.4438(16) 0.6455(3) 0.4281(3)
H36_7 H 0.515555 0.649974 0.414941
C63_7 C 0.2270(12) 0.5614(3) 0.4575(2)
O11_7 O 0.6901(11) 0.7998(2) 0.34152(19)
O12_7 O 0.8197(11) 0.9586(2) 0.41747(19)
O14_7 O 0.1947(11) 0.6660(3) 0.34849(18)
O17_7 O 0.4317(17) 0.7409(3) 0.4483(2)
O24_6 O 0.9426(11) 0.9626(3) 0.46876(19)
C20_8 C 0.0187(12) 0.9498(3) 0.5201(3)
H10_8 H 0.103102 0.950504 0.508689
C21_8 C 0.0441(14) 0.9436(3) 0.5466(3)
H11_8 H 0.147009 0.940090 0.552492
H12_8 H 0.009919 0.940239 0.719398
C26_8 C 0.0219(16) 0.8827(4) 0.7161(3)
H13_8 H 0.097290 0.878922 0.728805
C30_8 C 0.0230(12) 0.8114(3) 0.7075(2)
O4_8 O 0.0553(11) 0.9160(3) 0.59849(18)
C1_8 C 0.7069(12) 0.0162(3) 0.6229(2)
C2_8 C 0.7176(13) 0.0065(3) 0.6478(2)
H1_8 H 0.667380 0.021171 0.660201
C7_8 C 0.6157(12) 0.0507(3) 0.6130(2)
C8_8 C 0.6013(12) 0.0858(3) 0.6292(2)
C9_8 C 0.4780(12) 0.1103(3) 0.6232(2)
H4_8 H 0.403070 0.103291 0.611043
C10_8 C 0.4673(12) 0.1453(3) 0.6355(2)
H5_8 H 0.383578 0.161629 0.631684
C11_8 C 0.5796(12) 0.1563(3) 0.6533(2)
C12_8 C 0.7005(13) 0.1318(3) 0.6588(3)
H6_8 H 0.777425 0.139175 0.670457
C13_8 C 0.7119(13) 0.0952(3) 0.6470(2)
H7_8 H 0.792301 0.078163 0.651321
C14_8 C 0.5680(13) 0.1927(3) 0.6664(2)
C31_8 C 0.382(3) 0.3117(8) 0.5938(6)
H16_8 H 0.430189 0.322163 0.578847
H17_8 H 0.313748 0.330546 0.601453
H18_8 H 0.320126 0.289563 0.589269
C32_8 C 0.677(3) 0.3043(8) 0.6035(5)
H19_8 H 0.671851 0.316041 0.586933
H20_8 H 0.726448 0.279658 0.602096
H21_8 H 0.737033 0.320239 0.614789
C33_8 C 0.4840(18) 0.2849(6) 0.6351(4)
O1_8 O 0.5599(11) 0.0498(2) 0.59152(19)
O2_8 O 0.4303(11) 0.2086(2) 0.66747(19)
O3_8 O 0.6918(11) 0.2092(2) 0.6751(2)
O10_8 O 0.3525(10) 0.2810(2) 0.64434(19)
N1_8 N 0.515(2) 0.2996(6) 0.6136(4)
C42_8 C 0.0220(12) 0.3897(3) 0.6232(2)
H25_8 H 0.096930 0.396709 0.611043
C43_8 C 0.0327(12) 0.3547(3) 0.6355(2)
H26_8 H 0.116422 0.338371 0.631684
C64_8 C 0.118(3) 0.1883(8) 0.5938(6)
H37_8 H 0.069811 0.177837 0.578847
H38_8 H 0.186252 0.169454 0.601453
H39_8 H 0.179874 0.210437 0.589269
C66_8 C 0.0160(18) 0.2151(6) 0.6351(4)
O12_8 O 0.0697(11) 0.2914(2) 0.66747(19)
O20_8 O 0.1475(10) 0.2190(2) 0.64434(19)
O21_8 O 0.8082(11) 0.2908(2) 0.6751(2)
H43_8 H 0.583941 0.274813 0.646376
C3_8 C 0.8058(14) 0.9738(3) 0.6548(2)
C4_8 C 0.8766(12) 0.9514(3) 0.6362(2)
H2_8 H 0.934203 0.929746 0.640840
C5_8 C 0.8613(12) 0.9613(3) 0.6107(2)
C6_8 C 0.7812(12) 0.9928(3) 0.6036(2)
H3_8 H 0.773667 0.999514 0.586440
C15_8 C 0.9522(13) 0.9385(3) 0.5916(2)
C16_8 C 0.7616(12) 0.9453(3) 0.5553(2)
H8_8 H 0.676875 0.943390 0.566546
C17_8 C 0.7367(12) 0.9510(3) 0.5286(2)
H9_8 H 0.633561 0.952193 0.522456
C18_8 C 0.9204(13) 0.9427(3) 0.5640(2)
C19_8 C 0.8614(12) 0.9549(3) 0.5116(2)
C22_8 C 0.8324(12) 0.9629(3) 0.4841(2)
C23_8 C 0.8305(15) 0.9652(3) 0.6834(2)
C24_8 C 0.8703(14) 0.9249(3) 0.6902(2)
C25_8 C 0.9731(16) 0.9194(4) 0.7100(3)
C27_8 C 0.9575(13) 0.8507(3) 0.7030(2)
C28_8 C 0.8458(13) 0.8566(4) 0.6849(2)
H14_8 H 0.795949 0.836059 0.676953
C29_8 C 0.8062(16) 0.8955(3) 0.6781(3)
H15_8 H 0.734445 0.899974 0.664941
O7_8 O 0.8183(17) 0.9909(3) 0.6983(2)
C34_8 C 0.7931(12) 0.4838(3) 0.6229(2)
C35_8 C 0.7824(13) 0.4935(3) 0.6478(2)
H22_8 H 0.832620 0.478829 0.660201
C36_8 C 0.6942(14) 0.5262(3) 0.6548(2)
C37_8 C 0.6234(12) 0.5486(3) 0.6362(2)
H23_8 H 0.565797 0.570254 0.640840
C38_8 C 0.6387(12) 0.5387(3) 0.6107(2)
C39_8 C 0.7188(12) 0.5072(3) 0.6036(2)
H24_8 H 0.726333 0.500486 0.586440
C40_8 C 0.8843(12) 0.4493(3) 0.6130(2)
C41_8 C 0.8987(12) 0.4142(3) 0.6292(2)
C44_8 C 0.9204(12) 0.3437(3) 0.6533(2)
C45_8 C 0.7995(13) 0.3682(3) 0.6588(3)
H27_8 H 0.722575 0.360825 0.670457
C46_8 C 0.7881(13) 0.4048(3) 0.6470(2)
H28_8 H 0.707699 0.421837 0.651321
C47_8 C 0.9320(13) 0.3073(3) 0.6664(2)
C48_8 C 0.5478(13) 0.5615(3) 0.5916(2)
C49_8 C 0.7384(12) 0.5547(3) 0.5553(2)
H29_8 H 0.823125 0.556610 0.566546
C50_8 C 0.7633(12) 0.5490(3) 0.5286(2)
H30_8 H 0.866439 0.547807 0.522456
C51_8 C 0.5796(13) 0.5573(3) 0.5640(2)
C52_8 C 0.6386(12) 0.5451(3) 0.5116(2)
C53_8 C 0.4813(12) 0.5502(3) 0.5201(3)
H31_8 H 0.396898 0.549496 0.508689
C54_8 C 0.4559(14) 0.5564(3) 0.5466(3)
H32_8 H 0.352991 0.559910 0.552492
C55_8 C 0.6676(12) 0.5371(3) 0.4841(2)
C56_8 C 0.6695(15) 0.5348(3) 0.6834(2)
C57_8 C 0.6297(14) 0.5751(3) 0.6902(2)
C58_8 C 0.5269(16) 0.5806(4) 0.7100(3)
H33_8 H 0.490081 0.559761 0.719398
C59_8 C 0.4781(16) 0.6173(4) 0.7161(3)
H34_8 H 0.402710 0.621078 0.728805
C60_8 C 0.5425(13) 0.6493(3) 0.7030(2)
C61_8 C 0.6542(13) 0.6434(4) 0.6849(2)
H35_8 H 0.704051 0.663941 0.676953
C62_8 C 0.6938(16) 0.6045(3) 0.6781(3)
H36_8 H 0.765555 0.600026 0.664941
C63_8 C 0.4770(12) 0.6886(3) 0.7075(2)
C65_8 C 0.823(3) 0.1957(8) 0.6035(5)
H40_8 H 0.828149 0.183959 0.586933
H41_8 H 0.773552 0.220342 0.602096
H42_8 H 0.762967 0.179761 0.614789
O11_8 O 0.9401(11) 0.4502(2) 0.59152(19)
O14_8 O 0.4447(11) 0.5840(3) 0.59849(18)
O17_8 O 0.6817(17) 0.5091(3) 0.6983(2)
N2_8 N 0.985(2) 0.2004(6) 0.6136(4)
H44_8 H 0.916059 0.225187 0.646376
loop_
_geom_bond_atom_site_label_1
_geom_bond_atom_site_label_2
_geom_bond_site_symmetry_1
_geom_bond_site_symmetry_2
C4 C3 1_555 1_555
H2 C4 1_555 1_555
C5 C4 1_555 1_555
H3 C6 1_555 1_555
C15 C5 1_555 1_555
C18 C15 1_555 1_555
C20 C19 1_555 1_555
H10 C20 1_555 1_555
C21 C18 1_555 1_555
H11 C21 1_555 1_555
C22 C19 1_555 1_555
C23 C3 1_555 1_555
C24 C23 1_555 1_555
C25 C24 1_555 1_555
H12 C25 1_555 1_555
C26 C25 1_555 1_555
H13 C26 1_555 1_555
C27 C26 1_555 1_555
C28 C27 1_555 1_555
H14 C28 1_555 1_555
C29 C24 1_555 1_555
C30 C27 1_555 1_555
O4 C15 1_555 1_555
O6 C22 1_555 1_555
O7 C23 1_555 1_555
O8 C30 1_555 1_555
O9 C30 1_555 1_555
Er4 O6 1_555 1_555
Er6_2 O8 1_555 1_555
Er11_2 O8 1_555 1_555
O21 Er2 1_555 1_555
O22 Er2 1_555 1_555
O28 Er2 1_555 1_555
O30 Er2 1_555 1_555
C5 C6 1_555 1_555
C16 C18 1_555 1_555
C20 C21 1_555 1_555
C28 C29 1_555 1_555
O9 Er11_2 1_555 1_555
Er1 O2 1_555 1_555
Er2_2 O3 1_555 1_555
C1 C2 1_555 1_555
C2 H1 1_555 1_555
C7 C1 1_555 1_555
C8 C7 1_555 1_555
C9 C8 1_555 1_555
H4 C9 1_555 1_555
C10 C9 1_555 1_555
H5 C10 1_555 1_555
C11 C10 1_555 1_555
C12 C11 1_555 1_555
C13 C8 1_555 1_555
C14 C11 1_555 1_555
H9 C17 1_555 1_555
C31 H16 1_555 1_555
H17 C31 1_555 1_555
H18 C31 1_555 1_555
C32 H19 1_555 1_555
H20 C32 1_555 1_555
H21 C32 1_555 1_555
C33 O10 1_555 1_555
O1 C7 1_555 1_555
O2 C14 1_555 1_555
O3 C14 1_555 1_555
O10 Er1 1_555 1_555
N1 C31 1_555 1_555
C34 C35 1_555 1_555
C35 H22 1_555 1_555
C40 C34 1_555 1_555
C41 C40 1_555 1_555
C42 C41 1_555 1_555
H25 C42 1_555 1_555
C43 C42 1_555 1_555
H26 C43 1_555 1_555
C44 C43 1_555 1_555
C45 C44 1_555 1_555
C46 C41 1_555 1_555
C47 C44 1_555 1_555
H30 C50 1_555 1_555
C64 H37 1_555 1_555
H38 C64 1_555 1_555
H39 C64 1_555 1_555
C65 H40 1_555 1_555
H41 C65 1_555 1_555
H42 C65 1_555 1_555
C66 O20 1_555 1_555
O11 C40 1_555 1_555
O12 Er1 1_555 1_555
O21 C47 1_555 1_555
O20 Er1 1_555 1_555
N2 C64 1_555 1_555
Er8 O15 1_555 1_555
Er9 O5 1_555 1_555
O23 Er2_2 1_555 1_555
O24 Er1 1_555 1_555
O25 Er1 1_555 1_555
O26 Er1 1_555 1_555
O28 Er1 1_555 1_555
O29 Er2_2 1_555 1_555
Er2_2 O26 1_555 1_555
C12 C13 1_555 1_555
C32 N1 1_555 1_555
C33 N1 1_555 1_555
C45 C46 1_555 1_555
C47 O12 1_555 1_555
C65 N2 1_555 1_555
C66 N2 1_555 1_555
C33 H43 1_555 1_555
C66 H44 1_555 1_555
C37 C36 1_555 1_555
H23 C37 1_555 1_555
C38 C37 1_555 1_555
H24 C39 1_555 1_555
C48 C38 1_555 1_555
C51 C48 1_555 1_555
C53 C52 1_555 1_555
H31 C53 1_555 1_555
C54 C51 1_555 1_555
H32 C54 1_555 1_555
C55 C52 1_555 1_555
C56 C36 1_555 1_555
C57 C56 1_555 1_555
C58 C57 1_555 1_555
H33 C58 1_555 1_555
C59 C58 1_555 1_555
H34 C59 1_555 1_555
C60 C59 1_555 1_555
C61 C60 1_555 1_555
H35 C61 1_555 1_555
C62 C57 1_555 1_555
C63 C60 1_555 1_555
O14 C48 1_555 1_555
O16 C55 1_555 1_555
O17 C56 1_555 1_555
O18 C63 1_555 1_555
O19 C63 1_555 1_555
Er3 O16 1_555 1_555
Er6_3 O18 1_555 1_555
Er11 O18 1_555 1_555
C38 C39 1_555 1_555
C49 C51 1_555 1_555
C53 C54 1_555 1_555
C61 C62 1_555 1_555
O19 Er11 1_555 1_555
Er2_3 O3_2 1_555 1_555
C1_2 C2_2 1_555 1_555
C2_2 H1_2 1_555 1_555
C3_2 C2_2 1_555 1_555
C4_2 C3_2 1_555 1_555
H2_2 C4_2 1_555 1_555
C5_2 C4_2 1_555 1_555
C6_2 C1_2 1_555 1_555
H3_2 C6_2 1_555 1_555
C7_2 C1_2 1_555 1_555
C8_2 C7_2 1_555 1_555
C12_2 C11_2 1_555 1_555
H6_2 C12_2 1_555 1_555
C13_2 C8_2 1_555 1_555
H7_2 C13_2 1_555 1_555
C14_2 C11_2 1_555 1_555
C15_2 C5_2 1_555 1_555
C16_2 H8_2 1_555 1_555
C17_2 C16_2 1_555 1_555
H9_2 C17_2 1_555 1_555
C18_2 C15_2 1_555 1_555
C19_2 C17_2 1_555 1_555
C20_2 C19_2 1_555 1_555
H10_2 C20_2 1_555 1_555
C21_2 C18_2 1_555 1_555
H11_2 C21_2 1_555 1_555
C22_2 C19_2 1_555 1_555
C23_2 C3_2 1_555 1_555
C24_2 C23_2 1_555 1_555
C25_2 C24_2 1_555 1_555
H12_2 C25_2 1_555 1_555
C26_2 C25_2 1_555 1_555
H13_2 C26_2 1_555 1_555
C27_2 C26_2 1_555 1_555
C28_2 C27_2 1_555 1_555
H14_2 C28_2 1_555 1_555
C29_2 C24_2 1_555 1_555
H15_2 C29_2 1_555 1_555
C30_2 C27_2 1_555 1_555
C32_2 H19_2 1_555 1_555
H20_2 C32_2 1_555 1_555
H21_2 C32_2 1_555 1_555
O1_2 C7_2 1_555 1_555
O3_2 C14_2 1_555 1_555
O4_2 C15_2 1_555 1_555
O22 C22_2 1_555 1_555
O24 C22_2 1_555 1_555
O7_2 C23_2 1_555 1_555
O8_2 C30_2 1_555 1_555
O9_2 C30_2 1_555 1_555
Er6_5 O8_2 1_555 1_555
Er11_3 O8_2 1_555 1_555
O21_2 Er2_3 1_555 1_555
O22_2 Er2_3 1_555 1_555
O23_2 Er2_3 1_555 1_555
O28_2 Er2_3 1_555 1_555
O29_2 Er2_3 1_555 1_555
O30_2 Er2_3 1_555 1_555
C5_2 C6_2 1_555 1_555
C12_2 C13_2 1_555 1_555
C16_2 C18_2 1_555 1_555
C20_2 C21_2 1_555 1_555
C28_2 C29_2 1_555 1_555
C32_2 N1_2 1_555 1_555
O9_2 Er11_3 1_555 1_555
C37_2 C36_2 1_555 1_555
H23_2 C37_2 1_555 1_555
C38_2 C37_2 1_555 1_555
H24_2 C39_2 1_555 1_555
C48_2 C38_2 1_555 1_555
C49_2 H29_2 1_555 1_555
C50_2 C49_2 1_555 1_555
H30_2 C50_2 1_555 1_555
C51_2 C48_2 1_555 1_555
C52_2 C50_2 1_555 1_555
C55_2 C52_2 1_555 1_555
C56_2 C36_2 1_555 1_555
C57_2 C56_2 1_555 1_555
C58_2 C57_2 1_555 1_555
C61_2 C60_2 1_555 1_555
H35_2 C61_2 1_555 1_555
C62_2 C57_2 1_555 1_555
H36_2 C62_2 1_555 1_555
O15_2 C55_2 1_555 1_555
O16_2 C55_2 1_555 1_555
O17_2 C56_2 1_555 1_555
Er6 O16_2 1_555 1_555
Er6_5 O18_2 1_555 1_555
Er11 O15_2 1_555 1_555
C38_2 C39_2 1_555 1_555
C49_2 C51_2 1_555 1_555
C61_2 C62_2 1_555 1_555
Er1_2 O2_2 1_555 1_555
H4_2 C9_2 1_555 1_555
C10_2 C9_2 1_555 1_555
H5_2 C10_2 1_555 1_555
C31_2 H16_2 1_555 1_555
H17_2 C31_2 1_555 1_555
H18_2 C31_2 1_555 1_555
C33_2 O10_2 1_555 1_555
O10_2 Er1_2 1_555 1_555
C34_2 C35_2 1_555 1_555
C35_2 H22_2 1_555 1_555
C40_2 C34_2 1_555 1_555
C41_2 C40_2 1_555 1_555
C42_2 C41_2 1_555 1_555
H25_2 C42_2 1_555 1_555
C43_2 C42_2 1_555 1_555
H26_2 C43_2 1_555 1_555
C44_2 C43_2 1_555 1_555
C45_2 C44_2 1_555 1_555
H27_2 C45_2 1_555 1_555
C46_2 C41_2 1_555 1_555
H28_2 C46_2 1_555 1_555
C47_2 C44_2 1_555 1_555
C64_2 H37_2 1_555 1_555
H38_2 C64_2 1_555 1_555
H39_2 C64_2 1_555 1_555
C65_2 H40_2 1_555 1_555
H41_2 C65_2 1_555 1_555
H42_2 C65_2 1_555 1_555
C66_2 O20_2 1_555 1_555
O11_2 C40_2 1_555 1_555
O12_2 Er1_2 1_555 1_555
O21_2 C47_2 1_555 1_555
O20_2 Er1_2 1_555 1_555
N2_2 C64_2 1_555 1_555
O24_2 Er1_2 1_555 1_555
O25_2 Er1_2 1_555 1_555
O26_2 Er1_2 1_555 1_555
O28_2 Er1_2 1_555 1_555
C45_2 C46_2 1_555 1_555
C47_2 O12_2 1_555 1_555
C65_2 N2_2 1_555 1_555
C66_2 N2_2 1_555 1_555
C66_2 H44_2 1_555 1_555
H31_2 C53_2 1_555 1_555
H32_2 C54_2 1_555 1_555
H34_2 C59_2 1_555 1_555
O19_2 C63_2 1_555 1_555
C53_2 C54_2 1_555 1_555
O19_2 Er11_3 1_555 1_555
C4_3 C3_3 1_555 1_555
H2_3 C4_3 1_555 1_555
C5_3 C4_3 1_555 1_555
H3_3 C6_3 1_555 1_555
C15_3 C5_3 1_555 1_555
C18_3 C15_3 1_555 1_555
C20_3 C19_3 1_555 1_555
H10_3 C20_3 1_555 1_555
C21_3 C18_3 1_555 1_555
H11_3 C21_3 1_555 1_555
C22_3 C19_3 1_555 1_555
C23_3 C3_3 1_555 1_555
C24_3 C23_3 1_555 1_555
C25_3 C24_3 1_555 1_555
H12_3 C25_3 1_555 1_555
C26_3 C25_3 1_555 1_555
H13_3 C26_3 1_555 1_555
C27_3 C26_3 1_555 1_555
C28_3 C27_3 1_555 1_555
H14_3 C28_3 1_555 1_555
C29_3 C24_3 1_555 1_555
C30_3 C27_3 1_555 1_555
O4_3 C15_3 1_555 1_555
O6_2 C22_3 1_555 1_555
O7_3 C23_3 1_555 1_555
O8_3 C30_3 1_555 1_555
O9_3 C30_3 1_555 1_555
Er6_5 O6_2 1_555 1_555
Er6_6 O8_3 1_555 1_555
Er11_4 O8_3 1_555 1_555
O28_3 Er2_4 1_555 1_555
O30_3 Er2_4 1_555 1_555
C5_3 C6_3 1_555 1_555
C16_3 C18_3 1_555 1_555
C20_3 C21_3 1_555 1_555
C28_3 C29_3 1_555 1_555
O9_3 Er11_4 1_555 1_555
O21_3 Er2_5 1_555 1_555
O22_3 Er2_5 1_555 1_555
Er1_3 O2_3 1_555 1_555
Er2_6 O3_3 1_555 1_555
C1_3 C2_3 1_555 1_555
C2_3 H1_3 1_555 1_555
C7_3 C1_3 1_555 1_555
C8_3 C7_3 1_555 1_555
C9_3 C8_3 1_555 1_555
H4_3 C9_3 1_555 1_555
C10_3 C9_3 1_555 1_555
H5_3 C10_3 1_555 1_555
C11_3 C10_3 1_555 1_555
C12_3 C11_3 1_555 1_555
C13_3 C8_3 1_555 1_555
C14_3 C11_3 1_555 1_555
H9_3 C17_3 1_555 1_555
O1_3 C7_3 1_555 1_555
O2_3 C14_3 1_555 1_555
O3_3 C14_3 1_555 1_555
C64_3 H37_3 1_555 1_555
H38_3 C64_3 1_555 1_555
H39_3 C64_3 1_555 1_555
C65_3 H40_3 1_555 1_555
H41_3 C65_3 1_555 1_555
H42_3 C65_3 1_555 1_555
C66_3 O20_3 1_555 1_555
O20_3 Er1_3 1_555 1_555
N2_3 C64_3 1_555 1_555
Er11_3 O5_2 1_555 1_555
O23_3 Er2_6 1_555 1_555
O25_3 Er1_3 1_555 1_555
O28_3 Er1_3 1_555 1_555
C12_3 C13_3 1_555 1_555
C65_3 N2_3 1_555 1_555
C66_3 N2_3 1_555 1_555
C66_3 H44_3 1_555 1_555
C31_3 H16_3 1_555 1_555
H17_3 C31_3 1_555 1_555
H18_3 C31_3 1_555 1_555
C32_3 H19_3 1_555 1_555
H20_3 C32_3 1_555 1_555
H21_3 C32_3 1_555 1_555
C33_3 O10_3 1_555 1_555
O10_3 Er1_4 1_555 1_555
N1_3 C31_3 1_555 1_555
C34_3 C35_3 1_555 1_555
C35_3 H22_3 1_555 1_555
C40_3 C34_3 1_555 1_555
C41_3 C40_3 1_555 1_555
C42_3 C41_3 1_555 1_555
H25_3 C42_3 1_555 1_555
C43_3 C42_3 1_555 1_555
H26_3 C43_3 1_555 1_555
C44_3 C43_3 1_555 1_555
C45_3 C44_3 1_555 1_555
C46_3 C41_3 1_555 1_555
C47_3 C44_3 1_555 1_555
H30_3 C50_3 1_555 1_555
O11_3 C40_3 1_555 1_555
O12_3 Er1_4 1_555 1_555
O21_3 C47_3 1_555 1_555
O24_3 Er1_4 1_555 1_555
O26_3 Er1_4 1_555 1_555
O29_3 Er2_7 1_555 1_555
Er2_7 O26_3 1_555 1_555
C32_3 N1_3 1_555 1_555
C33_3 N1_3 1_555 1_555
C45_3 C46_3 1_555 1_555
C47_3 O12_3 1_555 1_555
C33_3 H43_3 1_555 1_555
C37_3 C36_3 1_555 1_555
H23_3 C37_3 1_555 1_555
C38_3 C37_3 1_555 1_555
H24_3 C39_3 1_555 1_555
C48_3 C38_3 1_555 1_555
C51_3 C48_3 1_555 1_555
C53_3 C52_3 1_555 1_555
H31_3 C53_3 1_555 1_555
C54_3 C51_3 1_555 1_555
H32_3 C54_3 1_555 1_555
C55_3 C52_3 1_555 1_555
C56_3 C36_3 1_555 1_555
C57_3 C56_3 1_555 1_555
C58_3 C57_3 1_555 1_555
H33_3 C58_3 1_555 1_555
C59_3 C58_3 1_555 1_555
H34_3 C59_3 1_555 1_555
C60_3 C59_3 1_555 1_555
C61_3 C60_3 1_555 1_555
H35_3 C61_3 1_555 1_555
C62_3 C57_3 1_555 1_555
C63_3 C60_3 1_555 1_555
O14_3 C48_3 1_555 1_555
O25_2 C55_3 1_555 1_555
O17_3 C56_3 1_555 1_555
O18_3 C63_3 1_555 1_555
O19_3 C63_3 1_555 1_555
Er6_7 O18_3 1_555 1_555
Er11_4 O18_3 1_555 1_555
C38_3 C39_3 1_555 1_555
C49_3 C51_3 1_555 1_555
C53_3 C54_3 1_555 1_555
C61_3 C62_3 1_555 1_555
O19_3 Er11_4 1_555 1_555
Er8 O3_4 1_555 1_555
C1_4 C2_4 1_555 1_555
C2_4 H1_4 1_555 1_555
C7_4 C1_4 1_555 1_555
C8_4 C7_4 1_555 1_555
C12_4 C11_4 1_555 1_555
H6_4 C12_4 1_555 1_555
C13_4 C8_4 1_555 1_555
H7_4 C13_4 1_555 1_555
C14_4 C11_4 1_555 1_555
C32_4 H19_4 1_555 1_555
H20_4 C32_4 1_555 1_555
H21_4 C32_4 1_555 1_555
O1_4 C7_4 1_555 1_555
O3_4 C14_4 1_555 1_555
O21_4 Er8 1_555 1_555
O22_4 Er8 1_555 1_555
O28_4 Er8 1_555 1_555
O29_4 Er8 1_555 1_555
O30_4 Er8 1_555 1_555
C12_4 C13_4 1_555 1_555
C32_4 N1_4 1_555 1_555
C4_4 C3_4 1_555 1_555
H2_4 C4_4 1_555 1_555
C5_4 C4_4 1_555 1_555
H3_4 C6_4 1_555 1_555
C15_4 C5_4 1_555 1_555
C16_4 H8_4 1_555 1_555
C17_4 C16_4 1_555 1_555
H9_4 C17_4 1_555 1_555
C18_4 C15_4 1_555 1_555
C19_4 C17_4 1_555 1_555
C20_4 C19_4 1_555 1_555
H10_4 C20_4 1_555 1_555
C21_4 C18_4 1_555 1_555
H11_4 C21_4 1_555 1_555
C23_4 C3_4 1_555 1_555
C24_4 C23_4 1_555 1_555
C25_4 C24_4 1_555 1_555
H12_4 C25_4 1_555 1_555
C26_4 C25_4 1_555 1_555
H13_4 C26_4 1_555 1_555
C27_4 C26_4 1_555 1_555
C28_4 C27_4 1_555 1_555
H14_4 C28_4 1_555 1_555
C29_4 C24_4 1_555 1_555
H15_4 C29_4 1_555 1_555
C30_4 C27_4 1_555 1_555
O4_4 C15_4 1_555 1_555
O7_4 C23_4 1_555 1_555
O8_4 C30_4 1_555 1_555
O9_4 C30_4 1_555 1_555
Er4 O8_4 1_555 1_555
Er9 O8_4 1_555 1_555
C5_4 C6_4 1_555 1_555
C16_4 C18_4 1_555 1_555
C20_4 C21_4 1_555 1_555
C28_4 C29_4 1_555 1_555
O9_4 Er9 1_555 1_555
O22_3 C22_4 1_555 1_555
O24_3 C22_4 1_555 1_555
Er3 O2_4 1_555 1_555
H4_4 C9_4 1_555 1_555
C10_4 C9_4 1_555 1_555
H5_4 C10_4 1_555 1_555
C31_4 H16_4 1_555 1_555
H17_4 C31_4 1_555 1_555
H18_4 C31_4 1_555 1_555
C33_4 O10_4 1_555 1_555
O10_4 Er3 1_555 1_555
C34_4 C35_4 1_555 1_555
C35_4 H22_4 1_555 1_555
C36_4 C35_4 1_555 1_555
C37_4 C36_4 1_555 1_555
H23_4 C37_4 1_555 1_555
C38_4 C37_4 1_555 1_555
C39_4 C34_4 1_555 1_555
H24_4 C39_4 1_555 1_555
C40_4 C34_4 1_555 1_555
C41_4 C40_4 1_555 1_555
C42_4 C41_4 1_555 1_555
H25_4 C42_4 1_555 1_555
C43_4 C42_4 1_555 1_555
H26_4 C43_4 1_555 1_555
C44_4 C43_4 1_555 1_555
C45_4 C44_4 1_555 1_555
H27_4 C45_4 1_555 1_555
C46_4 C41_4 1_555 1_555
H28_4 C46_4 1_555 1_555
C47_4 C44_4 1_555 1_555
C48_4 C38_4 1_555 1_555
C49_4 H29_4 1_555 1_555
C50_4 C49_4 1_555 1_555
H30_4 C50_4 1_555 1_555
C51_4 C48_4 1_555 1_555
C52_4 C50_4 1_555 1_555
C56_4 C36_4 1_555 1_555
C57_4 C56_4 1_555 1_555
C58_4 C57_4 1_555 1_555
C61_4 C60_4 1_555 1_555
H35_4 C61_4 1_555 1_555
C62_4 C57_4 1_555 1_555
H36_4 C62_4 1_555 1_555
C64_4 H37_4 1_555 1_555
H38_4 C64_4 1_555 1_555
H39_4 C64_4 1_555 1_555
C65_4 H40_4 1_555 1_555
H41_4 C65_4 1_555 1_555
H42_4 C65_4 1_555 1_555
C66_4 O20_4 1_555 1_555
O11_4 C40_4 1_555 1_555
O12_4 Er3 1_555 1_555
O21_4 C47_4 1_555 1_555
O17_4 C56_4 1_555 1_555
O20_4 Er3 1_555 1_555
N2_4 C64_4 1_555 1_555
Er4 O18_4 1_555 1_555
O24_4 Er3 1_555 1_555
O26_4 Er3 1_555 1_555
O28_4 Er3 1_555 1_555
C38_4 C39_4 1_555 1_555
C45_4 C46_4 1_555 1_555
C47_4 O12_4 1_555 1_555
C49_4 C51_4 1_555 1_555
C61_4 C62_4 1_555 1_555
C65_4 N2_4 1_555 1_555
C66_4 N2_4 1_555 1_555
C66_4 H44_4 1_555 1_555
O15_3 C55_4 1_555 1_555
O16_3 C55_4 1_555 1_555
Er6_6 O16_3 1_555 1_555
Er11_4 O15_3 1_555 1_555
H31_4 C53_4 1_555 1_555
H32_4 C54_4 1_555 1_555
H34_4 C59_4 1_555 1_555
O19_4 C63_4 1_555 1_555
C53_4 C54_4 1_555 1_555
O19_4 Er9 1_555 1_555
Er6_6 O2_5 1_555 1_555
Er11_4 O3_5 1_555 1_555
C1_5 C2_5 1_555 1_555
C2_5 H1_5 1_555 1_555
C3_5 C2_5 1_555 1_555
C4_5 C3_5 1_555 1_555
H2_5 C4_5 1_555 1_555
C5_5 C4_5 1_555 1_555
C6_5 C1_5 1_555 1_555
H3_5 C6_5 1_555 1_555
C7_5 C1_5 1_555 1_555
C8_5 C7_5 1_555 1_555
C9_5 C8_5 1_555 1_555
H4_5 C9_5 1_555 1_555
C10_5 C9_5 1_555 1_555
H5_5 C10_5 1_555 1_555
C11_5 C10_5 1_555 1_555
C12_5 C11_5 1_555 1_555
H6_5 C12_5 1_555 1_555
C13_5 C8_5 1_555 1_555
H7_5 C13_5 1_555 1_555
C14_5 C11_5 1_555 1_555
C15_5 C5_5 1_555 1_555
C16_5 H8_5 1_555 1_555
C17_5 C16_5 1_555 1_555
H9_5 C17_5 1_555 1_555
C18_5 C15_5 1_555 1_555
C19_5 C17_5 1_555 1_555
C20_5 C19_5 1_555 1_555
H10_5 C20_5 1_555 1_555
C21_5 C18_5 1_555 1_555
H11_5 C21_5 1_555 1_555
C22_5 C19_5 1_555 1_555
C23_5 C3_5 1_555 1_555
C24_5 C23_5 1_555 1_555
C25_5 C24_5 1_555 1_555
H12_5 C25_5 1_555 1_555
C26_5 C25_5 1_555 1_555
H13_5 C26_5 1_555 1_555
C27_5 C26_5 1_555 1_555
C28_5 C27_5 1_555 1_555
H14_5 C28_5 1_555 1_555
C29_5 C24_5 1_555 1_555
H15_5 C29_5 1_555 1_555
C30_5 C27_5 1_555 1_555
C31_5 H16_5 1_555 1_555
H17_5 C31_5 1_555 1_555
H18_5 C31_5 1_555 1_555
C32_5 H19_5 1_555 1_555
H20_5 C32_5 1_555 1_555
H21_5 C32_5 1_555 1_555
C33_5 O10_5 1_555 1_555
O1_5 C7_5 1_555 1_555
O2_5 C14_5 1_555 1_555
O3_5 C14_5 1_555 1_555
O4_5 C15_5 1_555 1_555
O22_2 C22_5 1_555 1_555
O24_2 C22_5 1_555 1_555
O7_5 C23_5 1_555 1_555
O26_3 C30_5 1_555 1_555
O29_3 C30_5 1_555 1_555
O10_5 Er6_6 1_555 1_555
N1_5 C31_5 1_555 1_555
O21_5 Er11_4 1_555 1_555
O22_5 Er11_4 1_555 1_555
C5_5 C6_5 1_555 1_555
C12_5 C13_5 1_555 1_555
C16_5 C18_5 1_555 1_555
C20_5 C21_5 1_555 1_555
C28_5 C29_5 1_555 1_555
C32_5 N1_5 1_555 1_555
C33_5 N1_5 1_555 1_555
C33_5 H43_5 1_555 1_555
C34_5 C35_5 1_555 1_555
C35_5 H22_5 1_555 1_555
C36_5 C35_5 1_555 1_555
C37_5 C36_5 1_555 1_555
H23_5 C37_5 1_555 1_555
C38_5 C37_5 1_555 1_555
C39_5 C34_5 1_555 1_555
H24_5 C39_5 1_555 1_555
C40_5 C34_5 1_555 1_555
C41_5 C40_5 1_555 1_555
C42_5 C41_5 1_555 1_555
H25_5 C42_5 1_555 1_555
C43_5 C42_5 1_555 1_555
H26_5 C43_5 1_555 1_555
C44_5 C43_5 1_555 1_555
C45_5 C44_5 1_555 1_555
H27_5 C45_5 1_555 1_555
C46_5 C41_5 1_555 1_555
H28_5 C46_5 1_555 1_555
C47_5 C44_5 1_555 1_555
C48_5 C38_5 1_555 1_555
C49_5 H29_5 1_555 1_555
C50_5 C49_5 1_555 1_555
H30_5 C50_5 1_555 1_555
C51_5 C48_5 1_555 1_555
C52_5 C50_5 1_555 1_555
C53_5 C52_5 1_555 1_555
H31_5 C53_5 1_555 1_555
C54_5 C51_5 1_555 1_555
H32_5 C54_5 1_555 1_555
C55_5 C52_5 1_555 1_555
C56_5 C36_5 1_555 1_555
C57_5 C56_5 1_555 1_555
C58_5 C57_5 1_555 1_555
H33_5 C58_5 1_555 1_555
C59_5 C58_5 1_555 1_555
H34_5 C59_5 1_555 1_555
C60_5 C59_5 1_555 1_555
C61_5 C60_5 1_555 1_555
H35_5 C61_5 1_555 1_555
C62_5 C57_5 1_555 1_555
H36_5 C62_5 1_555 1_555
C63_5 C60_5 1_555 1_555
C64_5 H37_5 1_555 1_555
H38_5 C64_5 1_555 1_555
H39_5 C64_5 1_555 1_555
C65_5 H40_5 1_555 1_555
H41_5 C65_5 1_555 1_555
H42_5 C65_5 1_555 1_555
C66_5 O20_5 1_555 1_555
O11_5 C40_5 1_555 1_555
O12_5 Er6_7 1_555 1_555
O21_5 C47_5 1_555 1_555
O14_5 C48_5 1_555 1_555
O15_4 C55_5 1_555 1_555
O16_4 C55_5 1_555 1_555
O17_5 C56_5 1_555 1_555
O28_3 C63_5 1_555 1_555
O30_3 C63_5 1_555 1_555
O20_5 Er6_7 1_555 1_555
N2_5 C64_5 1_555 1_555
Er6_5 O16_4 1_555 1_555
Er11_3 O15_4 1_555 1_555
O24_5 Er6_7 1_555 1_555
C38_5 C39_5 1_555 1_555
C45_5 C46_5 1_555 1_555
C47_5 O12_5 1_555 1_555
C49_5 C51_5 1_555 1_555
C53_5 C54_5 1_555 1_555
C61_5 C62_5 1_555 1_555
C65_5 N2_5 1_555 1_555
C66_5 N2_5 1_555 1_555
C66_5 H44_5 1_555 1_555
H10_6 C20_6 1_555 1_555
H11_6 C21_6 1_555 1_555
H13_6 C26_6 1_555 1_555
O29_4 C30_6 1_555 1_555
C20_6 C21_6 1_555 1_555
Er4 O2_6 1_555 1_555
Er9 O3_6 1_555 1_555
C1_6 C2_6 1_555 1_555
C2_6 H1_6 1_555 1_555
C3_6 C2_6 1_555 1_555
C4_6 C3_6 1_555 1_555
H2_6 C4_6 1_555 1_555
C5_6 C4_6 1_555 1_555
C6_6 C1_6 1_555 1_555
H3_6 C6_6 1_555 1_555
C7_6 C1_6 1_555 1_555
C8_6 C7_6 1_555 1_555
C9_6 C8_6 1_555 1_555
H4_6 C9_6 1_555 1_555
C10_6 C9_6 1_555 1_555
H5_6 C10_6 1_555 1_555
C11_6 C10_6 1_555 1_555
C12_6 C11_6 1_555 1_555
H6_6 C12_6 1_555 1_555
C13_6 C8_6 1_555 1_555
H7_6 C13_6 1_555 1_555
C14_6 C11_6 1_555 1_555
C15_6 C5_6 1_555 1_555
C16_6 H8_6 1_555 1_555
C17_6 C16_6 1_555 1_555
H9_6 C17_6 1_555 1_555
C18_6 C15_6 1_555 1_555
C19_6 C17_6 1_555 1_555
C23_6 C3_6 1_555 1_555
C24_6 C23_6 1_555 1_555
C25_6 C24_6 1_555 1_555
C28_6 C27_6 1_555 1_555
H14_6 C28_6 1_555 1_555
C29_6 C24_6 1_555 1_555
H15_6 C29_6 1_555 1_555
C31_6 H16_6 1_555 1_555
H17_6 C31_6 1_555 1_555
H18_6 C31_6 1_555 1_555
C32_6 H19_6 1_555 1_555
H20_6 C32_6 1_555 1_555
H21_6 C32_6 1_555 1_555
C33_6 O10_6 1_555 1_555
O1_6 C7_6 1_555 1_555
O2_6 C14_6 1_555 1_555
O3_6 C14_6 1_555 1_555
O7_6 C23_6 1_555 1_555
O10_6 Er4 1_555 1_555
N1_6 C31_6 1_555 1_555
H25_6 C42_6 1_555 1_555
C43_6 C42_6 1_555 1_555
H26_6 C43_6 1_555 1_555
C64_6 H37_6 1_555 1_555
H38_6 C64_6 1_555 1_555
H39_6 C64_6 1_555 1_555
C66_6 O20_6 1_555 1_555
O12_6 Er4 1_555 1_555
O20_6 Er4 1_555 1_555
O21_6 Er9 1_555 1_555
O23_4 Er9 1_555 1_555
O25_4 Er4 1_555 1_555
C5_6 C6_6 1_555 1_555
C12_6 C13_6 1_555 1_555
C16_6 C18_6 1_555 1_555
C28_6 C29_6 1_555 1_555
C32_6 N1_6 1_555 1_555
C33_6 N1_6 1_555 1_555
C33_6 H43_6 1_555 1_555
O22_5 C22_6 1_555 1_555
O24_5 C22_6 1_555 1_555
C37_6 C36_6 1_555 1_555
H23_6 C37_6 1_555 1_555
C38_6 C37_6 1_555 1_555
H24_6 C39_6 1_555 1_555
C48_6 C38_6 1_555 1_555
C49_6 H29_6 1_555 1_555
C50_6 C49_6 1_555 1_555
H30_6 C50_6 1_555 1_555
C51_6 C48_6 1_555 1_555
C52_6 C50_6 1_555 1_555
C53_6 C52_6 1_555 1_555
H31_6 C53_6 1_555 1_555
C54_6 C51_6 1_555 1_555
H32_6 C54_6 1_555 1_555
C56_6 C36_6 1_555 1_555
C57_6 C56_6 1_555 1_555
C58_6 C57_6 1_555 1_555
H33_6 C58_6 1_555 1_555
C59_6 C58_6 1_555 1_555
H34_6 C59_6 1_555 1_555
C60_6 C59_6 1_555 1_555
C61_6 C60_6 1_555 1_555
H35_6 C61_6 1_555 1_555
C62_6 C57_6 1_555 1_555
H36_6 C62_6 1_555 1_555
C63_6 C60_6 1_555 1_555
O14_6 C48_6 1_555 1_555
O17_6 C56_6 1_555 1_555
O28_4 C63_6 1_555 1_555
O30_4 C63_6 1_555 1_555
C38_6 C39_6 1_555 1_555
C49_6 C51_6 1_555 1_555
C53_6 C54_6 1_555 1_555
C61_6 C62_6 1_555 1_555
O23_3 C55_6 1_555 1_555
O25_3 C55_6 1_555 1_555
C34_6 C35_6 1_555 1_555
C35_6 H22_6 1_555 1_555
C40_6 C34_6 1_555 1_555
C41_6 C40_6 1_555 1_555
C45_6 C44_6 1_555 1_555
H27_6 C45_6 1_555 1_555
C46_6 C41_6 1_555 1_555
H28_6 C46_6 1_555 1_555
C47_6 C44_6 1_555 1_555
C65_6 H40_6 1_555 1_555
H41_6 C65_6 1_555 1_555
H42_6 C65_6 1_555 1_555
O11_6 C40_6 1_555 1_555
O21_6 C47_6 1_555 1_555
C45_6 C46_6 1_555 1_555
C65_6 N2_6 1_555 1_555
Er6 O2_7 1_555 1_555
Er11 O3_7 1_555 1_555
C1_7 C2_7 1_555 1_555
C2_7 H1_7 1_555 1_555
C3_7 C2_7 1_555 1_555
C4_7 C3_7 1_555 1_555
H2_7 C4_7 1_555 1_555
C5_7 C4_7 1_555 1_555
C6_7 C1_7 1_555 1_555
H3_7 C6_7 1_555 1_555
C7_7 C1_7 1_555 1_555
C8_7 C7_7 1_555 1_555
C9_7 C8_7 1_555 1_555
H4_7 C9_7 1_555 1_555
C10_7 C9_7 1_555 1_555
H5_7 C10_7 1_555 1_555
C11_7 C10_7 1_555 1_555
C12_7 C11_7 1_555 1_555
H6_7 C12_7 1_555 1_555
C13_7 C8_7 1_555 1_555
H7_7 C13_7 1_555 1_555
C14_7 C11_7 1_555 1_555
C15_7 C5_7 1_555 1_555
C16_7 H8_7 1_555 1_555
C17_7 C16_7 1_555 1_555
H9_7 C17_7 1_555 1_555
C18_7 C15_7 1_555 1_555
C19_7 C17_7 1_555 1_555
C20_7 C19_7 1_555 1_555
H10_7 C20_7 1_555 1_555
C21_7 C18_7 1_555 1_555
H11_7 C21_7 1_555 1_555
C22_7 C19_7 1_555 1_555
C23_7 C3_7 1_555 1_555
C24_7 C23_7 1_555 1_555
C25_7 C24_7 1_555 1_555
H12_7 C25_7 1_555 1_555
C26_7 C25_7 1_555 1_555
H13_7 C26_7 1_555 1_555
C27_7 C26_7 1_555 1_555
C28_7 C27_7 1_555 1_555
H14_7 C28_7 1_555 1_555
C29_7 C24_7 1_555 1_555
H15_7 C29_7 1_555 1_555
C30_7 C27_7 1_555 1_555
O1_7 C7_7 1_555 1_555
O2_7 C14_7 1_555 1_555
O3_7 C14_7 1_555 1_555
O4_7 C15_7 1_555 1_555
O22_4 C22_7 1_555 1_555
O24_4 C22_7 1_555 1_555
O7_7 C23_7 1_555 1_555
O26 C30_7 1_555 1_555
O29 C30_7 1_555 1_555
C5_7 C6_7 1_555 1_555
C12_7 C13_7 1_555 1_555
C16_7 C18_7 1_555 1_555
C20_7 C21_7 1_555 1_555
C28_7 C29_7 1_555 1_555
C31_7 H16_7 1_555 1_555
H17_7 C31_7 1_555 1_555
H18_7 C31_7 1_555 1_555
C32_7 H19_7 1_555 1_555
H20_7 C32_7 1_555 1_555
H21_7 C32_7 1_555 1_555
C33_7 O10_7 1_555 1_555
O10_7 Er6_2 1_555 1_555
N1_7 C31_7 1_555 1_555
O21_7 Er11_2 1_555 1_555
O22_6 Er11_2 1_555 1_555
C32_7 N1_7 1_555 1_555
C33_7 N1_7 1_555 1_555
C33_7 H43_7 1_555 1_555
C64_7 H37_7 1_555 1_555
H38_7 C64_7 1_555 1_555
H39_7 C64_7 1_555 1_555
C65_7 H40_7 1_555 1_555
H41_7 C65_7 1_555 1_555
H42_7 C65_7 1_555 1_555
C66_7 O20_7 1_555 1_555
O20_7 Er6_3 1_555 1_555
N2_7 C64_7 1_555 1_555
C65_7 N2_7 1_555 1_555
C66_7 N2_7 1_555 1_555
C66_7 H44_7 1_555 1_555
C34_7 C35_7 1_555 1_555
C35_7 H22_7 1_555 1_555
C36_7 C35_7 1_555 1_555
C37_7 C36_7 1_555 1_555
H23_7 C37_7 1_555 1_555
C38_7 C37_7 1_555 1_555
C39_7 C34_7 1_555 1_555
H24_7 C39_7 1_555 1_555
C40_7 C34_7 1_555 1_555
C41_7 C40_7 1_555 1_555
C42_7 C41_7 1_555 1_555
H25_7 C42_7 1_555 1_555
C43_7 C42_7 1_555 1_555
H26_7 C43_7 1_555 1_555
C44_7 C43_7 1_555 1_555
C45_7 C44_7 1_555 1_555
H27_7 C45_7 1_555 1_555
C46_7 C41_7 1_555 1_555
H28_7 C46_7 1_555 1_555
C47_7 C44_7 1_555 1_555
C48_7 C38_7 1_555 1_555
C49_7 H29_7 1_555 1_555
C50_7 C49_7 1_555 1_555
H30_7 C50_7 1_555 1_555
C51_7 C48_7 1_555 1_555
C52_7 C50_7 1_555 1_555
C53_7 C52_7 1_555 1_555
H31_7 C53_7 1_555 1_555
C54_7 C51_7 1_555 1_555
H32_7 C54_7 1_555 1_555
C55_7 C52_7 1_555 1_555
C56_7 C36_7 1_555 1_555
C57_7 C56_7 1_555 1_555
C58_7 C57_7 1_555 1_555
H33_7 C58_7 1_555 1_555
C59_7 C58_7 1_555 1_555
H34_7 C59_7 1_555 1_555
C60_7 C59_7 1_555 1_555
C61_7 C60_7 1_555 1_555
H35_7 C61_7 1_555 1_555
C62_7 C57_7 1_555 1_555
H36_7 C62_7 1_555 1_555
C63_7 C60_7 1_555 1_555
O11_7 C40_7 1_555 1_555
O12_7 Er6_4 1_555 1_555
O21_7 C47_7 1_555 1_555
O14_7 C48_7 1_555 1_555
O23_4 C55_7 1_555 1_555
O25_4 C55_7 1_555 1_555
O17_7 C56_7 1_555 1_555
O28 C63_7 1_555 1_555
O30 C63_7 1_555 1_555
O24_6 Er6_4 1_555 1_555
C38_7 C39_7 1_555 1_555
C45_7 C46_7 1_555 1_555
C47_7 O12_7 1_555 1_555
C49_7 C51_7 1_555 1_555
C53_7 C54_7 1_555 1_555
C61_7 C62_7 1_555 1_555
H10_8 C20_8 1_555 1_555
H11_8 C21_8 1_555 1_555
H13_8 C26_8 1_555 1_555
O29_2 C30_8 1_555 1_555
C20_8 C21_8 1_555 1_555
Er6_5 O2_8 1_555 1_555
Er11_3 O3_8 1_555 1_555
C1_8 C2_8 1_555 1_555
C2_8 H1_8 1_555 1_555
C7_8 C1_8 1_555 1_555
C8_8 C7_8 1_555 1_555
C9_8 C8_8 1_555 1_555
H4_8 C9_8 1_555 1_555
C10_8 C9_8 1_555 1_555
H5_8 C10_8 1_555 1_555
C11_8 C10_8 1_555 1_555
C12_8 C11_8 1_555 1_555
H6_8 C12_8 1_555 1_555
C13_8 C8_8 1_555 1_555
H7_8 C13_8 1_555 1_555
C14_8 C11_8 1_555 1_555
C31_8 H16_8 1_555 1_555
H17_8 C31_8 1_555 1_555
H18_8 C31_8 1_555 1_555
C32_8 H19_8 1_555 1_555
H20_8 C32_8 1_555 1_555
H21_8 C32_8 1_555 1_555
C33_8 O10_8 1_555 1_555
O1_8 C7_8 1_555 1_555
O2_8 C14_8 1_555 1_555
O3_8 C14_8 1_555 1_555
O10_8 Er6_5 1_555 1_555
N1_8 C31_8 1_555 1_555
H25_8 C42_8 1_555 1_555
C43_8 C42_8 1_555 1_555
H26_8 C43_8 1_555 1_555
C64_8 H37_8 1_555 1_555
H38_8 C64_8 1_555 1_555
H39_8 C64_8 1_555 1_555
C66_8 O20_8 1_555 1_555
O12_8 Er6_5 1_555 1_555
O20_8 Er6_5 1_555 1_555
O21_8 Er11_3 1_555 1_555
C12_8 C13_8 1_555 1_555
C32_8 N1_8 1_555 1_555
C33_8 N1_8 1_555 1_555
C33_8 H43_8 1_555 1_555
C4_8 C3_8 1_555 1_555
H2_8 C4_8 1_555 1_555
C5_8 C4_8 1_555 1_555
H3_8 C6_8 1_555 1_555
C15_8 C5_8 1_555 1_555
C16_8 H8_8 1_555 1_555
C17_8 C16_8 1_555 1_555
H9_8 C17_8 1_555 1_555
C18_8 C15_8 1_555 1_555
C19_8 C17_8 1_555 1_555
C22_8 C19_8 1_555 1_555
C23_8 C3_8 1_555 1_555
C24_8 C23_8 1_555 1_555
C25_8 C24_8 1_555 1_555
C28_8 C27_8 1_555 1_555
H14_8 C28_8 1_555 1_555
C29_8 C24_8 1_555 1_555
H15_8 C29_8 1_555 1_555
O22_6 C22_8 1_555 1_555
O24_6 C22_8 1_555 1_555
O7_8 C23_8 1_555 1_555
C5_8 C6_8 1_555 1_555
C16_8 C18_8 1_555 1_555
C28_8 C29_8 1_555 1_555
C34_8 C35_8 1_555 1_555
C35_8 H22_8 1_555 1_555
C36_8 C35_8 1_555 1_555
C37_8 C36_8 1_555 1_555
H23_8 C37_8 1_555 1_555
C38_8 C37_8 1_555 1_555
C39_8 C34_8 1_555 1_555
H24_8 C39_8 1_555 1_555
C40_8 C34_8 1_555 1_555
C41_8 C40_8 1_555 1_555
C45_8 C44_8 1_555 1_555
H27_8 C45_8 1_555 1_555
C46_8 C41_8 1_555 1_555
H28_8 C46_8 1_555 1_555
C47_8 C44_8 1_555 1_555
C48_8 C38_8 1_555 1_555
C49_8 H29_8 1_555 1_555
C50_8 C49_8 1_555 1_555
H30_8 C50_8 1_555 1_555
C51_8 C48_8 1_555 1_555
C52_8 C50_8 1_555 1_555
C53_8 C52_8 1_555 1_555
H31_8 C53_8 1_555 1_555
C54_8 C51_8 1_555 1_555
H32_8 C54_8 1_555 1_555
C55_8 C52_8 1_555 1_555
C56_8 C36_8 1_555 1_555
C57_8 C56_8 1_555 1_555
C58_8 C57_8 1_555 1_555
H33_8 C58_8 1_555 1_555
C59_8 C58_8 1_555 1_555
H34_8 C59_8 1_555 1_555
C60_8 C59_8 1_555 1_555
C61_8 C60_8 1_555 1_555
H35_8 C61_8 1_555 1_555
C62_8 C57_8 1_555 1_555
H36_8 C62_8 1_555 1_555
C63_8 C60_8 1_555 1_555
C65_8 H40_8 1_555 1_555
H41_8 C65_8 1_555 1_555
H42_8 C65_8 1_555 1_555
O11_8 C40_8 1_555 1_555
O21_8 C47_8 1_555 1_555
O14_8 C48_8 1_555 1_555
O23 C55_8 1_555 1_555
O25 C55_8 1_555 1_555
O17_8 C56_8 1_555 1_555
O28_2 C63_8 1_555 1_555
O30_2 C63_8 1_555 1_555
C38_8 C39_8 1_555 1_555
C45_8 C46_8 1_555 1_555
C49_8 C51_8 1_555 1_555
C53_8 C54_8 1_555 1_555
C61_8 C62_8 1_555 1_555
C65_8 N2_8 1_555 1_555

#END
