
###############################################################################
#
# This file contains modified crystal structure data generated from the
# MOF subset of the Cambridge Structural Database (CSD) v543 
# hosted by the Cambridge Crystallographic Data Centre (CCDC).
#
# This work is licensed under the Creative Commons
# Attribution-NonCommercial-ShareAlike 4.0 International License.
# To view a copy of this license, visit
# http://creativecommons.org/licenses/by-nc-sa/4.0/
# or send a letter to
# Creative Commons, PO Box 1866, Mountain View, CA 94042, USA.
#
# CIF created using the CSD Python API on 29 September 2022
# The structure has been converted into the P1 space group
# The structure has a 3D framework
# The original CSD entry QIHNED is in the monoclinic crystal system
# The framework has been calculated to contain at least 10.0% void space
# The void calculation uses a probe of radius 1.32A, grid spacing 0.4
#
###############################################################################

data_QIHNED
_chemical_formula_moiety         '(C272 H48 F128 N16 O62 Rh16)n'
_symmetry_cell_setting           triclinic
_symmetry_space_group_name_H-M   'P 1'
_symmetry_Int_Tables_number      1
_space_group_name_Hall           'P 1'
loop_
_symmetry_equiv_pos_site_id
_symmetry_equiv_pos_as_xyz
1 x,y,z
_cell_length_a                   38.617(5)
_cell_length_b                   9.4197(8)
_cell_length_c                   27.363(4)
_cell_angle_alpha                90
_cell_angle_beta                 126.086(4)
_cell_angle_gamma                90
_cell_volume                     8043.82
loop_
_atom_site_label
_atom_site_type_symbol
_atom_site_fract_x
_atom_site_fract_y
_atom_site_fract_z
Rh1 Rh 0.52387(2) 0.04495(9) 0.48897(3)
Rh2 Rh 0.71477(2) 0.20333(11) 0.46351(3)
F1 F 0.4489(3) 0.4204(8) 0.3886(3)
F2 F 0.4011(3) 0.6515(9) 0.3528(3)
F3 F 0.3904(3) 0.6099(8) 0.5146(4)
F4 F 0.4427(3) 0.3838(9) 0.5562(3)
F7 F 0.3050(2) 0.1837(10) 0.2188(3)
F8 F 0.3701(2) 0.1687(8) 0.3367(3)
F9 F 0.6596(3) 0.6729(14) 0.4353(4)
F10 F 0.6199(4) 0.8606(15) 0.4581(6)
F11 F 0.6901(3) 0.6828(11) 0.6551(3)
F12 F 0.7310(2) 0.4939(9) 0.6328(3)
F13 F 0.8065(4) 0.3258(13) 0.3925(7)
F14 F 0.8020(6) 0.4275(17) 0.2975(8)
F15 F 0.6844(5) 0.702(2) 0.2423(8)
F16 F 0.6873(5) 0.592(2) 0.3351(8)
O1 O 0.50096(19) 0.2434(7) 0.4852(3)
O2 O 0.4556(2) 0.1570(7) 0.5047(3)
O3 O 0.47522(19) 0.0220(8) 0.3998(3)
O5 O 0.6907(2) 0.3752(10) 0.4796(3)
O6 O 0.7571(2) 0.4610(10) 0.5500(3)
O7 O 0.71325(19) 0.3147(10) 0.3985(3)
O8 O 0.7797(2) 0.4012(10) 0.4671(3)
N1 N 0.5619(2) 0.1144(10) 0.4572(3)
N2 N 0.6485(3) 0.1247(14) 0.4030(4)
C1 C 0.4701(3) 0.2568(12) 0.4896(4)
C2 C 0.4474(3) 0.3927(13) 0.4740(5)
C3 C 0.4363(3) 0.4689(13) 0.4226(5)
C4 C 0.4108(4) 0.5886(14) 0.4038(5)
C5 C 0.3960(3) 0.6351(13) 0.4342(6)
H1 H 0.3783 0.7172 0.4206
C6 C 0.4059(4) 0.5667(12) 0.4843(6)
C7 C 0.4317(4) 0.4485(14) 0.5041(5)
C12 C 0.3360(3) 0.0060(15) 0.1955(4)
H2 H 0.3132 0.0131 0.1537
C13 C 0.3369(3) 0.0885(14) 0.2365(5)
C14 C 0.3704(3) 0.0807(13) 0.2976(4)
C15 C 0.7163(3) 0.4622(15) 0.5196(4)
C16 C 0.6960(4) 0.5783(15) 0.5332(5)
C17 C 0.6677(5) 0.6744(18) 0.4896(6)
C18 C 0.6479(5) 0.774(2) 0.5038(7)
C19 C 0.6544(5) 0.7798(15) 0.5576(7)
H3 H 0.6399 0.8471 0.5656
C20 C 0.6821(4) 0.6860(16) 0.5998(6)
C21 C 0.7031(4) 0.5855(14) 0.5884(5)
C22 C 0.7458(3) 0.3809(14) 0.4139(4)
C23 C 0.7457(6) 0.448(2) 0.3637(8)
C24 C 0.7754(7) 0.414(2) 0.3546(10)
C25 C 0.7738(8) 0.470(2) 0.3061(11)
C26 C 0.7445(8) 0.560(3) 0.2686(11)
H4 H 0.7440 0.5977 0.2360
C27 C 0.7144(8) 0.598(3) 0.2770(11)
C28 C 0.7166(7) 0.548(3) 0.3260(10)
C29 C 0.5675(3) 0.1178(15) 0.4206(4)
C30 C 0.5716(3) 0.1203(17) 0.3725(4)
C31 C 0.6146(3) 0.1180(16) 0.3899(4)
C32 C 0.5358(3) 0.1220(13) 0.3114(4)
C33 C 0.4936(3) 0.1213(14) 0.2949(5)
H5 H 0.4893 0.1195 0.3258
C34 C 0.5409(3) 0.1229(14) 0.2637(4)
H6 H 0.5689 0.1247 0.2733
N3 N 0.4381(2) 0.1144(10) 0.0428(3)
N4 N 0.3515(3) 0.1247(14) 0.0970(4)
C35 C 0.4325(3) 0.1178(15) 0.0794(4)
C36 C 0.4284(3) 0.1203(17) 0.1275(4)
C37 C 0.3854(3) 0.1180(16) 0.1101(4)
C38 C 0.4642(3) 0.1220(13) 0.1886(4)
C39 C 0.5064(3) 0.1213(14) 0.2051(5)
H7 H 0.5107 0.1195 0.1742
C40 C 0.4591(3) 0.1229(14) 0.2363(4)
H8 H 0.4311 0.1247 0.2267
Rh3 Rh 0.47613(2) 0.04495(9) 0.01103(3)
Rh4 Rh 0.28523(2) 0.20333(11) 0.03649(3)
F17 F 0.5511(3) 0.4204(8) 0.1114(3)
F18 F 0.5989(3) 0.6515(9) 0.1472(3)
F23 F 0.6950(2) 0.1837(10) 0.2812(3)
F24 F 0.6299(2) 0.1687(8) 0.1633(3)
F25 F 0.3404(3) 0.6729(14) 0.0647(4)
F26 F 0.3801(4) 0.8606(15) 0.0419(6)
F29 F 0.1935(4) 0.3258(13) 0.1075(7)
F30 F 0.1980(6) 0.4275(17) 0.2025(8)
F31 F 0.3156(5) 0.702(2) 0.2577(8)
F32 F 0.3127(5) 0.592(2) 0.1649(8)
O9 O 0.49904(19) 0.2434(7) 0.0148(3)
O11 O 0.52478(19) 0.0220(8) 0.1002(3)
O13 O 0.3093(2) 0.3752(10) 0.0204(3)
O15 O 0.28675(19) 0.3147(10) 0.1015(3)
O16 O 0.2203(2) 0.4012(10) 0.0329(3)
C41 C 0.5299(3) 0.2568(12) 0.0104(4)
C42 C 0.5526(3) 0.3927(13) 0.0260(5)
C43 C 0.5637(3) 0.4689(13) 0.0774(5)
C44 C 0.5892(4) 0.5886(14) 0.0962(5)
C45 C 0.6040(3) 0.6351(13) 0.0658(6)
H9 H 0.6217 0.7172 0.0794
C46 C 0.5941(4) 0.5667(12) 0.0157(6)
C52 C 0.6640(3) 0.0060(15) 0.3045(4)
H10 H 0.6868 0.0131 0.3463
C53 C 0.6631(3) 0.0885(14) 0.2635(5)
C54 C 0.6296(3) 0.0807(13) 0.2024(4)
C57 C 0.3323(5) 0.6744(18) 0.0104(6)
C62 C 0.2542(3) 0.3809(14) 0.0861(4)
C63 C 0.2543(6) 0.448(2) 0.1363(8)
C64 C 0.2246(7) 0.414(2) 0.1454(10)
C65 C 0.2262(8) 0.470(2) 0.1939(11)
C66 C 0.2555(8) 0.560(3) 0.2314(11)
H12 H 0.2560 0.5977 0.2640
C67 C 0.2856(8) 0.598(3) 0.2230(11)
C68 C 0.2834(7) 0.548(3) 0.1740(10)
Rh7 Rh 0.78523(2) 0.29667(11) 0.53649(3)
O19 O 0.57040(18) 0.0608(7) 0.5802(3)
O21 O 0.7429(2) 0.0390(10) 0.4500(3)
O22 O 0.2571(2) 0.0390(10) 0.0500(3)
O23 O 0.7203(2) 0.0988(10) 0.5329(3)
F19 F 0.6096(3) 0.6099(8) 0.9854(4)
F20 F 0.5573(3) 0.3838(9) 0.9438(3)
F27 F 0.3099(3) 0.6828(11) 0.8449(3)
F28 F 0.2690(2) 0.4939(9) 0.8672(3)
O10 O 0.5444(2) 0.1570(7) 0.9953(3)
O14 O 0.2429(2) 0.4610(10) 0.9500(3)
C47 C 0.5683(4) 0.4485(14) 0.9959(5)
C55 C 0.2837(3) 0.4622(15) 0.9804(4)
C56 C 0.3040(4) 0.5783(15) 0.9668(5)
C58 C 0.3521(5) 0.774(2) 0.9962(7)
C59 C 0.3456(5) 0.7798(15) 0.9424(7)
H11 H 0.3601 0.8471 0.9344
C60 C 0.3179(4) 0.6860(16) 0.9002(6)
C61 C 0.2969(4) 0.5855(14) 0.9116(5)
Rh8 Rh 0.21477(2) 0.29667(11) 0.96351(3)
O20 O 0.42960(18) 0.0608(7) 0.9198(3)
O24 O 0.2797(2) 0.0988(10) 0.9671(3)
F5 F 0.4347(2) 0.8097(7) 0.2957(3)
F6 F 0.3704(2) 0.8218(9) 0.1776(3)
O4 O 0.42960(18) 0.9392(7) 0.4198(3)
C8 C 0.4397(3) 0.9796(10) 0.3856(4)
C9 C 0.4034(3) 0.9870(11) 0.3186(4)
C10 C 0.4025(3) 0.9009(12) 0.2769(4)
C11 C 0.3692(3) 0.9104(14) 0.2164(4)
F21 F 0.5653(2) 0.8097(7) 0.2043(3)
F22 F 0.6296(2) 0.8218(9) 0.3224(3)
O12 O 0.57040(18) 0.9392(7) 0.0802(3)
C48 C 0.5603(3) 0.9796(10) 0.1144(4)
C49 C 0.5966(3) 0.9870(11) 0.1814(4)
C50 C 0.5975(3) 0.9009(12) 0.2231(4)
C51 C 0.6308(3) 0.9104(14) 0.2836(4)
Rh5 Rh 0.47613(2) 0.95505(9) 0.51103(3)
O17 O 0.5444(2) 0.8430(7) 0.4953(3)
O18 O 0.4556(2) 0.8430(7) 0.0047(3)
Rh6 Rh 0.52387(2) 0.95505(9) 0.98897(3)
Rh1_2 Rh 0.02387(2) 0.54495(9) 0.48897(3)
Rh2_2 Rh 0.21477(2) 0.70333(11) 0.46351(3)
F12_2 F 0.2310(2) 0.9939(9) 0.6328(3)
F13_2 F 0.3065(4) 0.8258(13) 0.3925(7)
F14_2 F 0.3020(6) 0.9275(17) 0.2975(8)
O1_2 O 0.00096(19) 0.7434(7) 0.4852(3)
O5_2 O 0.1907(2) 0.8752(10) 0.4796(3)
O6_2 O 0.2571(2) 0.9610(10) 0.5500(3)
O7_2 O 0.21325(19) 0.8147(10) 0.3985(3)
O8_2 O 0.2797(2) 0.9012(10) 0.4671(3)
N1_2 N 0.0619(2) 0.6144(10) 0.4572(3)
N2_2 N 0.1485(3) 0.6247(14) 0.4030(4)
C15_2 C 0.2163(3) 0.9622(15) 0.5196(4)
C22_2 C 0.2458(3) 0.8809(14) 0.4139(4)
C23_2 C 0.2457(6) 0.948(2) 0.3637(8)
C24_2 C 0.2754(7) 0.914(2) 0.3546(10)
C25_2 C 0.2738(8) 0.970(2) 0.3061(11)
C29_2 C 0.0675(3) 0.6178(15) 0.4206(4)
C30_2 C 0.0716(3) 0.6203(17) 0.3725(4)
C31_2 C 0.1146(3) 0.6180(16) 0.3899(4)
C32_2 C 0.0358(3) 0.6220(13) 0.3114(4)
C34_2 C 0.0409(3) 0.6229(14) 0.2637(4)
H6_2 H 0.0689 0.6247 0.2733
C39_2 C 0.0064(3) 0.6213(14) 0.2051(5)
H7_2 H 0.0107 0.6195 0.1742
F17_2 F 0.0511(3) 0.9204(8) 0.1114(3)
F21_2 F 0.0653(2) 0.3097(7) 0.2043(3)
F22_2 F 0.1296(2) 0.3218(9) 0.3224(3)
F23_2 F 0.1950(2) 0.6837(10) 0.2812(3)
F24_2 F 0.1299(2) 0.6687(8) 0.1633(3)
O11_2 O 0.02478(19) 0.5220(8) 0.1002(3)
O12_2 O 0.07040(18) 0.4392(7) 0.0802(3)
C41_2 C 0.0299(3) 0.7568(12) 0.0104(4)
C42_2 C 0.0526(3) 0.8927(13) 0.0260(5)
C43_2 C 0.0637(3) 0.9689(13) 0.0774(5)
C48_2 C 0.0603(3) 0.4796(10) 0.1144(4)
C49_2 C 0.0966(3) 0.4870(11) 0.1814(4)
C50_2 C 0.0975(3) 0.4009(12) 0.2231(4)
C51_2 C 0.1308(3) 0.4104(14) 0.2836(4)
C52_2 C 0.1640(3) 0.5060(15) 0.3045(4)
H10_2 H 0.1868 0.5131 0.3463
C53_2 C 0.1631(3) 0.5885(14) 0.2635(5)
C54_2 C 0.1296(3) 0.5807(13) 0.2024(4)
Rh7_2 Rh 0.28523(2) 0.79667(11) 0.53649(3)
O17_2 O 0.0444(2) 0.3430(7) 0.4953(3)
O19_2 O 0.07040(18) 0.5608(7) 0.5802(3)
O21_2 O 0.2429(2) 0.5390(10) 0.4500(3)
O23_2 O 0.2203(2) 0.5988(10) 0.5329(3)
F20_2 F 0.0573(3) 0.8838(9) 0.9438(3)
O10_2 O 0.0444(2) 0.6570(7) 0.9953(3)
C47_2 C 0.0683(4) 0.9485(14) 0.9959(5)
Rh6_2 Rh 0.02387(2) 0.45505(9) 0.98897(3)
F1_2 F 0.9489(3) 0.9204(8) 0.3886(3)
F4_2 F 0.9427(3) 0.8838(9) 0.5562(3)
F5_2 F 0.9347(2) 0.3097(7) 0.2957(3)
F6_2 F 0.8704(2) 0.3218(9) 0.1776(3)
F7_2 F 0.8050(2) 0.6837(10) 0.2188(3)
F8_2 F 0.8701(2) 0.6687(8) 0.3367(3)
O2_2 O 0.9556(2) 0.6570(7) 0.5047(3)
O3_2 O 0.97522(19) 0.5220(8) 0.3998(3)
O4_2 O 0.92960(18) 0.4392(7) 0.4198(3)
C1_2 C 0.9701(3) 0.7568(12) 0.4896(4)
C2_2 C 0.9474(3) 0.8927(13) 0.4740(5)
C3_2 C 0.9363(3) 0.9689(13) 0.4226(5)
C7_2 C 0.9317(4) 0.9485(14) 0.5041(5)
C8_2 C 0.9397(3) 0.4796(10) 0.3856(4)
C9_2 C 0.9034(3) 0.4870(11) 0.3186(4)
C10_2 C 0.9025(3) 0.4009(12) 0.2769(4)
C11_2 C 0.8692(3) 0.4104(14) 0.2164(4)
C12_2 C 0.8360(3) 0.5060(15) 0.1955(4)
H2_2 H 0.8132 0.5131 0.1537
C13_2 C 0.8369(3) 0.5885(14) 0.2365(5)
C14_2 C 0.8704(3) 0.5807(13) 0.2976(4)
C33_2 C 0.9936(3) 0.6213(14) 0.2949(5)
H5_2 H 0.9893 0.6195 0.3258
N3_2 N 0.9381(2) 0.6144(10) 0.0428(3)
N4_2 N 0.8515(3) 0.6247(14) 0.0970(4)
C35_2 C 0.9325(3) 0.6178(15) 0.0794(4)
C36_2 C 0.9284(3) 0.6203(17) 0.1275(4)
C37_2 C 0.8854(3) 0.6180(16) 0.1101(4)
C38_2 C 0.9642(3) 0.6220(13) 0.1886(4)
C40_2 C 0.9591(3) 0.6229(14) 0.2363(4)
H8_2 H 0.9311 0.6247 0.2267
Rh3_2 Rh 0.97613(2) 0.54495(9) 0.01103(3)
Rh4_2 Rh 0.78523(2) 0.70333(11) 0.03649(3)
F29_2 F 0.6935(4) 0.8258(13) 0.1075(7)
F30_2 F 0.6980(6) 0.9275(17) 0.2025(8)
O9_2 O 0.99904(19) 0.7434(7) 0.0148(3)
O13_2 O 0.8093(2) 0.8752(10) 0.0204(3)
O15_2 O 0.78675(19) 0.8147(10) 0.1015(3)
O16_2 O 0.7203(2) 0.9012(10) 0.0329(3)
C62_2 C 0.7542(3) 0.8809(14) 0.0861(4)
C63_2 C 0.7543(6) 0.948(2) 0.1363(8)
C64_2 C 0.7246(7) 0.914(2) 0.1454(10)
C65_2 C 0.7262(8) 0.970(2) 0.1939(11)
Rh5_2 Rh 0.97613(2) 0.45505(9) 0.51103(3)
O18_2 O 0.9556(2) 0.3430(7) 0.0047(3)
O22_2 O 0.7571(2) 0.5390(10) 0.0500(3)
F28_2 F 0.7690(2) 0.9939(9) 0.8672(3)
O14_2 O 0.7429(2) 0.9610(10) 0.9500(3)
C55_2 C 0.7837(3) 0.9622(15) 0.9804(4)
Rh8_2 Rh 0.71477(2) 0.79667(11) 0.96351(3)
O20_2 O 0.92960(18) 0.5608(7) 0.9198(3)
O24_2 O 0.7797(2) 0.5988(10) 0.9671(3)
F5_3 F 0.5653(2) 0.1903(7) 0.7043(3)
F6_3 F 0.6296(2) 0.1782(9) 0.8224(3)
C8_3 C 0.5603(3) 0.0204(10) 0.6144(4)
C9_3 C 0.5966(3) 0.0130(11) 0.6814(4)
C10_3 C 0.5975(3) 0.0991(12) 0.7231(4)
C11_3 C 0.6308(3) 0.0896(14) 0.7836(4)
F21_3 F 0.4347(2) 0.1903(7) 0.7957(3)
F22_3 F 0.3704(2) 0.1782(9) 0.6776(3)
C48_3 C 0.4397(3) 0.0204(10) 0.8856(4)
C49_3 C 0.4034(3) 0.0130(11) 0.8186(4)
C50_3 C 0.4025(3) 0.0991(12) 0.7769(4)
C51_3 C 0.3692(3) 0.0896(14) 0.7164(4)
F19_2 F 0.3904(3) 0.3901(8) 0.0146(4)
F20_3 F 0.4427(3) 0.6162(9) 0.0562(3)
F27_2 F 0.6901(3) 0.3172(11) 0.1551(3)
F28_3 F 0.7310(2) 0.5061(9) 0.1328(3)
C47_3 C 0.4317(4) 0.5515(14) 0.0041(5)
C55_3 C 0.7163(3) 0.5378(15) 0.0196(4)
C56_2 C 0.6960(4) 0.4217(15) 0.0332(5)
C58_2 C 0.6479(5) 0.226(2) 0.0038(7)
C59_2 C 0.6544(5) 0.2202(15) 0.0576(7)
H11_2 H 0.6399 0.1529 0.0656
C60_2 C 0.6821(4) 0.3140(16) 0.0998(6)
C61_2 C 0.7031(4) 0.4145(14) 0.0884(5)
F1_3 F 0.5511(3) 0.5796(8) 0.6114(3)
F2_2 F 0.5989(3) 0.3485(9) 0.6472(3)
F3_2 F 0.6096(3) 0.3901(8) 0.4854(4)
F4_3 F 0.5573(3) 0.6162(9) 0.4438(3)
F7_3 F 0.6950(2) 0.8163(10) 0.7812(3)
F8_3 F 0.6299(2) 0.8313(8) 0.6633(3)
F9_2 F 0.3404(3) 0.3271(14) 0.5647(4)
F10_2 F 0.3801(4) 0.1394(15) 0.5419(6)
F11_2 F 0.3099(3) 0.3172(11) 0.3449(3)
F12_3 F 0.2690(2) 0.5061(9) 0.3672(3)
F13_3 F 0.1935(4) 0.6742(13) 0.6075(7)
F14_3 F 0.1980(6) 0.5725(17) 0.7025(8)
F15_2 F 0.3156(5) 0.298(2) 0.7577(8)
F16_2 F 0.3127(5) 0.408(2) 0.6649(8)
O1_3 O 0.49904(19) 0.7566(7) 0.5148(3)
O3_3 O 0.52478(19) 0.9780(8) 0.6002(3)
O5_3 O 0.3093(2) 0.6248(10) 0.5204(3)
O7_3 O 0.28675(19) 0.6853(10) 0.6015(3)
N1_3 N 0.4381(2) 0.8856(10) 0.5428(3)
N2_3 N 0.3515(3) 0.8753(14) 0.5970(4)
C1_3 C 0.5299(3) 0.7432(12) 0.5104(4)
C2_3 C 0.5526(3) 0.6073(13) 0.5260(5)
C3_3 C 0.5637(3) 0.5311(13) 0.5774(5)
C4_2 C 0.5892(4) 0.4114(14) 0.5962(5)
C5_2 C 0.6040(3) 0.3649(13) 0.5658(6)
H1_2 H 0.6217 0.2828 0.5794
C6_2 C 0.5941(4) 0.4333(12) 0.5157(6)
C7_3 C 0.5683(4) 0.5515(14) 0.4959(5)
C12_3 C 0.6640(3) 0.9940(15) 0.8045(4)
H2_3 H 0.6868 0.9869 0.8463
C13_3 C 0.6631(3) 0.9115(14) 0.7635(5)
C14_3 C 0.6296(3) 0.9193(13) 0.7024(4)
C15_3 C 0.2837(3) 0.5378(15) 0.4804(4)
C16_2 C 0.3040(4) 0.4217(15) 0.4668(5)
C17_2 C 0.3323(5) 0.3256(18) 0.5104(6)
C18_2 C 0.3521(5) 0.226(2) 0.4962(7)
C19_2 C 0.3456(5) 0.2202(15) 0.4424(7)
H3_2 H 0.3601 0.1529 0.4344
C20_2 C 0.3179(4) 0.3140(16) 0.4002(6)
C21_2 C 0.2969(4) 0.4145(14) 0.4116(5)
C22_3 C 0.2542(3) 0.6191(14) 0.5861(4)
C23_3 C 0.2543(6) 0.552(2) 0.6363(8)
C24_3 C 0.2246(7) 0.586(2) 0.6454(10)
C25_3 C 0.2262(8) 0.530(2) 0.6939(11)
C26_2 C 0.2555(8) 0.440(3) 0.7314(11)
H4_2 H 0.2560 0.4023 0.7640
C27_2 C 0.2856(8) 0.402(3) 0.7230(11)
C28_2 C 0.2834(7) 0.452(3) 0.6740(10)
C29_3 C 0.4325(3) 0.8822(15) 0.5794(4)
C30_3 C 0.4284(3) 0.8797(17) 0.6275(4)
C31_3 C 0.3854(3) 0.8820(16) 0.6101(4)
C32_3 C 0.4642(3) 0.8780(13) 0.6886(4)
C33_3 C 0.5064(3) 0.8787(14) 0.7051(5)
H5_3 H 0.5107 0.8805 0.6742
C34_3 C 0.4591(3) 0.8771(14) 0.7363(4)
H6_3 H 0.4311 0.8753 0.7267
N3_3 N 0.5619(2) 0.8856(10) 0.9572(3)
N4_3 N 0.6485(3) 0.8753(14) 0.9030(4)
C35_3 C 0.5675(3) 0.8822(15) 0.9206(4)
C36_3 C 0.5716(3) 0.8797(17) 0.8725(4)
C37_3 C 0.6146(3) 0.8820(16) 0.8899(4)
C38_3 C 0.5358(3) 0.8780(13) 0.8114(4)
C39_3 C 0.4936(3) 0.8787(14) 0.7949(5)
H7_3 H 0.4893 0.8805 0.8258
C40_3 C 0.5409(3) 0.8771(14) 0.7637(4)
H8_3 H 0.5689 0.8753 0.7733
F17_3 F 0.4489(3) 0.5796(8) 0.8886(3)
F18_2 F 0.4011(3) 0.3485(9) 0.8528(3)
F23_3 F 0.3050(2) 0.8163(10) 0.7188(3)
F24_3 F 0.3701(2) 0.8313(8) 0.8367(3)
F25_2 F 0.6596(3) 0.3271(14) 0.9353(4)
F26_2 F 0.6199(4) 0.1394(15) 0.9581(6)
F29_3 F 0.8065(4) 0.6742(13) 0.8925(7)
F30_3 F 0.8020(6) 0.5725(17) 0.7975(8)
F31_2 F 0.6844(5) 0.298(2) 0.7423(8)
F32_2 F 0.6873(5) 0.408(2) 0.8351(8)
O9_3 O 0.50096(19) 0.7566(7) 0.9852(3)
O11_3 O 0.47522(19) 0.9780(8) 0.8998(3)
O13_3 O 0.6907(2) 0.6248(10) 0.9796(3)
O15_3 O 0.71325(19) 0.6853(10) 0.8985(3)
C41_3 C 0.4701(3) 0.7432(12) 0.9896(4)
C42_3 C 0.4474(3) 0.6073(13) 0.9740(5)
C43_3 C 0.4363(3) 0.5311(13) 0.9226(5)
C44_2 C 0.4108(4) 0.4114(14) 0.9038(5)
C45_2 C 0.3960(3) 0.3649(13) 0.9342(6)
H9_2 H 0.3783 0.2828 0.9206
C46_2 C 0.4059(4) 0.4333(12) 0.9843(6)
C52_3 C 0.3360(3) 0.9940(15) 0.6955(4)
H10_3 H 0.3132 0.9869 0.6537
C53_3 C 0.3369(3) 0.9115(14) 0.7365(5)
C54_3 C 0.3704(3) 0.9193(13) 0.7976(4)
C57_2 C 0.6677(5) 0.3256(18) 0.9896(6)
C62_3 C 0.7458(3) 0.6191(14) 0.9139(4)
C63_3 C 0.7457(6) 0.552(2) 0.8637(8)
C64_3 C 0.7754(7) 0.586(2) 0.8546(10)
C65_3 C 0.7738(8) 0.530(2) 0.8061(11)
C66_2 C 0.7445(8) 0.440(3) 0.7686(11)
H12_2 H 0.7440 0.4023 0.7360
C67_2 C 0.7144(8) 0.402(3) 0.7770(11)
C68_2 C 0.7166(7) 0.452(3) 0.8260(10)
F28_4 F 0.2310(2) 0.0061(9) 0.1328(3)
C55_4 C 0.2163(3) 0.0378(15) 0.0196(4)
F1_4 F 0.0511(3) 0.0796(8) 0.6114(3)
F4_4 F 0.0573(3) 0.1162(9) 0.4438(3)
F5_4 F 0.0653(2) 0.6903(7) 0.7043(3)
F6_4 F 0.1296(2) 0.6782(9) 0.8224(3)
F7_4 F 0.1950(2) 0.3163(10) 0.7812(3)
F8_4 F 0.1299(2) 0.3313(8) 0.6633(3)
O3_4 O 0.02478(19) 0.4780(8) 0.6002(3)
C1_4 C 0.0299(3) 0.2432(12) 0.5104(4)
C2_4 C 0.0526(3) 0.1073(13) 0.5260(5)
C3_4 C 0.0637(3) 0.0311(13) 0.5774(5)
C7_4 C 0.0683(4) 0.0515(14) 0.4959(5)
C8_4 C 0.0603(3) 0.5204(10) 0.6144(4)
C9_4 C 0.0966(3) 0.5130(11) 0.6814(4)
C10_4 C 0.0975(3) 0.5991(12) 0.7231(4)
C11_4 C 0.1308(3) 0.5896(14) 0.7836(4)
C12_4 C 0.1640(3) 0.4940(15) 0.8045(4)
H2_4 H 0.1868 0.4869 0.8463
C13_4 C 0.1631(3) 0.4115(14) 0.7635(5)
C14_4 C 0.1296(3) 0.4193(13) 0.7024(4)
C33_4 C 0.0064(3) 0.3787(14) 0.7051(5)
H5_4 H 0.0107 0.3805 0.6742
N3_4 N 0.0619(2) 0.3856(10) 0.9572(3)
N4_4 N 0.1485(3) 0.3753(14) 0.9030(4)
C35_4 C 0.0675(3) 0.3822(15) 0.9206(4)
C36_4 C 0.0716(3) 0.3797(17) 0.8725(4)
C37_4 C 0.1146(3) 0.3820(16) 0.8899(4)
C38_4 C 0.0358(3) 0.3780(13) 0.8114(4)
C40_4 C 0.0409(3) 0.3771(14) 0.7637(4)
H8_4 H 0.0689 0.3753 0.7733
F29_4 F 0.3065(4) 0.1742(13) 0.8925(7)
F30_4 F 0.3020(6) 0.0725(17) 0.7975(8)
O9_4 O 0.00096(19) 0.2566(7) 0.9852(3)
O13_4 O 0.1907(2) 0.1248(10) 0.9796(3)
O15_4 O 0.21325(19) 0.1853(10) 0.8985(3)
C62_4 C 0.2458(3) 0.1191(14) 0.9139(4)
C63_4 C 0.2457(6) 0.052(2) 0.8637(8)
C64_4 C 0.2754(7) 0.086(2) 0.8546(10)
C65_4 C 0.2738(8) 0.030(2) 0.8061(11)
F20_4 F 0.9427(3) 0.1162(9) 0.0562(3)
C47_4 C 0.9317(4) 0.0515(14) 0.0041(5)
F12_4 F 0.7690(2) 0.0061(9) 0.3672(3)
F13_4 F 0.6935(4) 0.1742(13) 0.6075(7)
F14_4 F 0.6980(6) 0.0725(17) 0.7025(8)
O1_4 O 0.99904(19) 0.2566(7) 0.5148(3)
O5_4 O 0.8093(2) 0.1248(10) 0.5204(3)
O7_4 O 0.78675(19) 0.1853(10) 0.6015(3)
N1_4 N 0.9381(2) 0.3856(10) 0.5428(3)
N2_4 N 0.8515(3) 0.3753(14) 0.5970(4)
C15_4 C 0.7837(3) 0.0378(15) 0.4804(4)
C22_4 C 0.7542(3) 0.1191(14) 0.5861(4)
C23_4 C 0.7543(6) 0.052(2) 0.6363(8)
C24_4 C 0.7246(7) 0.086(2) 0.6454(10)
C25_4 C 0.7262(8) 0.030(2) 0.6939(11)
C29_4 C 0.9325(3) 0.3822(15) 0.5794(4)
C30_4 C 0.9284(3) 0.3797(17) 0.6275(4)
C31_4 C 0.8854(3) 0.3820(16) 0.6101(4)
C32_4 C 0.9642(3) 0.3780(13) 0.6886(4)
C34_4 C 0.9591(3) 0.3771(14) 0.7363(4)
H6_4 H 0.9311 0.3753 0.7267
C39_4 C 0.9936(3) 0.3787(14) 0.7949(5)
H7_4 H 0.9893 0.3805 0.8258
F17_4 F 0.9489(3) 0.0796(8) 0.8886(3)
F21_4 F 0.9347(2) 0.6903(7) 0.7957(3)
F22_4 F 0.8704(2) 0.6782(9) 0.6776(3)
F23_4 F 0.8050(2) 0.3163(10) 0.7188(3)
F24_4 F 0.8701(2) 0.3313(8) 0.8367(3)
O11_4 O 0.97522(19) 0.4780(8) 0.8998(3)
C41_4 C 0.9701(3) 0.2432(12) 0.9896(4)
C42_4 C 0.9474(3) 0.1073(13) 0.9740(5)
C43_4 C 0.9363(3) 0.0311(13) 0.9226(5)
C48_4 C 0.9397(3) 0.5204(10) 0.8856(4)
C49_4 C 0.9034(3) 0.5130(11) 0.8186(4)
C50_4 C 0.9025(3) 0.5991(12) 0.7769(4)
C51_4 C 0.8692(3) 0.5896(14) 0.7164(4)
C52_4 C 0.8360(3) 0.4940(15) 0.6955(4)
H10_4 H 0.8132 0.4869 0.6537
C53_4 C 0.8369(3) 0.4115(14) 0.7365(5)
C54_4 C 0.8704(3) 0.4193(13) 0.7976(4)
F9_3 F 0.1596(3) 0.1729(14) 0.4353(4)
F10_3 F 0.1199(4) 0.3606(15) 0.4581(6)
F11_3 F 0.1901(3) 0.1828(11) 0.6551(3)
F15_3 F 0.1844(5) 0.202(2) 0.2423(8)
F16_3 F 0.1873(5) 0.092(2) 0.3351(8)
C16_3 C 0.1960(4) 0.0783(15) 0.5332(5)
C17_3 C 0.1677(5) 0.1744(18) 0.4896(6)
C18_3 C 0.1479(5) 0.274(2) 0.5038(7)
C19_3 C 0.1544(5) 0.2798(15) 0.5576(7)
H3_3 H 0.1399 0.3471 0.5656
C20_3 C 0.1821(4) 0.1860(16) 0.5998(6)
C21_3 C 0.2031(4) 0.0855(14) 0.5884(5)
C26_3 C 0.2445(8) 0.060(3) 0.2686(11)
H4_3 H 0.2440 0.0977 0.2360
C27_3 C 0.2144(8) 0.098(3) 0.2770(11)
C28_3 C 0.2166(7) 0.048(3) 0.3260(10)
F18_3 F 0.0989(3) 0.1515(9) 0.1472(3)
C44_3 C 0.0892(4) 0.0886(14) 0.0962(5)
C45_3 C 0.1040(3) 0.1351(13) 0.0658(6)
H9_3 H 0.1217 0.2172 0.0794
C46_3 C 0.0941(4) 0.0667(12) 0.0157(6)
F19_3 F 0.1096(3) 0.1099(8) 0.9854(4)
F2_3 F 0.9011(3) 0.1515(9) 0.3528(3)
F3_3 F 0.8904(3) 0.1099(8) 0.5146(4)
C4_3 C 0.9108(4) 0.0886(14) 0.4038(5)
C5_3 C 0.8960(3) 0.1351(13) 0.4342(6)
H1_3 H 0.8783 0.2172 0.4206
C6_3 C 0.9059(4) 0.0667(12) 0.4843(6)
F25_3 F 0.8404(3) 0.1729(14) 0.0647(4)
F26_3 F 0.8801(4) 0.3606(15) 0.0419(6)
F31_3 F 0.8156(5) 0.202(2) 0.2577(8)
F32_3 F 0.8127(5) 0.092(2) 0.1649(8)
C57_3 C 0.8323(5) 0.1744(18) 0.0104(6)
C66_3 C 0.7555(8) 0.060(3) 0.2314(11)
H12_3 H 0.7560 0.0977 0.2640
C67_3 C 0.7856(8) 0.098(3) 0.2230(11)
C68_3 C 0.7834(7) 0.048(3) 0.1740(10)
F27_3 F 0.8099(3) 0.1828(11) 0.8449(3)
C56_3 C 0.8040(4) 0.0783(15) 0.9668(5)
C58_3 C 0.8521(5) 0.274(2) 0.9962(7)
C59_3 C 0.8456(5) 0.2798(15) 0.9424(7)
H11_3 H 0.8601 0.3471 0.9344
C60_3 C 0.8179(4) 0.1860(16) 0.9002(6)
C61_3 C 0.7969(4) 0.0855(14) 0.9116(5)
F27_4 F 0.1901(3) 0.8172(11) 0.1551(3)
C56_4 C 0.1960(4) 0.9217(15) 0.0332(5)
C58_4 C 0.1479(5) 0.726(2) 0.0038(7)
C59_4 C 0.1544(5) 0.7202(15) 0.0576(7)
H11_4 H 0.1399 0.6529 0.0656
C60_4 C 0.1821(4) 0.8140(16) 0.0998(6)
C61_4 C 0.2031(4) 0.9145(14) 0.0884(5)
F2_4 F 0.0989(3) 0.8485(9) 0.6472(3)
F3_4 F 0.1096(3) 0.8901(8) 0.4854(4)
C4_4 C 0.0892(4) 0.9114(14) 0.5962(5)
C5_4 C 0.1040(3) 0.8649(13) 0.5658(6)
H1_4 H 0.1217 0.7828 0.5794
C6_4 C 0.0941(4) 0.9333(12) 0.5157(6)
F25_4 F 0.1596(3) 0.8271(14) 0.9353(4)
F26_4 F 0.1199(4) 0.6394(15) 0.9581(6)
F31_4 F 0.1844(5) 0.798(2) 0.7423(8)
F32_4 F 0.1873(5) 0.908(2) 0.8351(8)
C57_4 C 0.1677(5) 0.8256(18) 0.9896(6)
C66_4 C 0.2445(8) 0.940(3) 0.7686(11)
H12_4 H 0.2440 0.9023 0.7360
C67_4 C 0.2144(8) 0.902(3) 0.7770(11)
C68_4 C 0.2166(7) 0.952(3) 0.8260(10)
F19_4 F 0.8904(3) 0.8901(8) 0.0146(4)
F9_4 F 0.8404(3) 0.8271(14) 0.5647(4)
F10_4 F 0.8801(4) 0.6394(15) 0.5419(6)
F11_4 F 0.8099(3) 0.8172(11) 0.3449(3)
F15_4 F 0.8156(5) 0.798(2) 0.7577(8)
F16_4 F 0.8127(5) 0.908(2) 0.6649(8)
C16_4 C 0.8040(4) 0.9217(15) 0.4668(5)
C17_4 C 0.8323(5) 0.8256(18) 0.5104(6)
C18_4 C 0.8521(5) 0.726(2) 0.4962(7)
C19_4 C 0.8456(5) 0.7202(15) 0.4424(7)
H3_4 H 0.8601 0.6529 0.4344
C20_4 C 0.8179(4) 0.8140(16) 0.4002(6)
C21_4 C 0.7969(4) 0.9145(14) 0.4116(5)
C26_4 C 0.7555(8) 0.940(3) 0.7314(11)
H4_4 H 0.7560 0.9023 0.7640
C27_4 C 0.7856(8) 0.902(3) 0.7230(11)
C28_4 C 0.7834(7) 0.952(3) 0.6740(10)
F18_4 F 0.9011(3) 0.8485(9) 0.8528(3)
C44_4 C 0.9108(4) 0.9114(14) 0.9038(5)
C45_4 C 0.8960(3) 0.8649(13) 0.9342(6)
H9_4 H 0.8783 0.7828 0.9206
C46_4 C 0.9059(4) 0.9333(12) 0.9843(6)
loop_
_geom_bond_atom_site_label_1
_geom_bond_atom_site_label_2
_geom_bond_site_symmetry_1
_geom_bond_site_symmetry_2
Rh1 O1 1_555 1_555
Rh2 O5 1_555 1_555
F1 C3 1_555 1_555
F2 C4 1_555 1_555
F3 C6 1_555 1_555
F4 C7 1_555 1_555
F7 C13 1_555 1_555
F8 C14 1_555 1_555
F9 C17 1_555 1_555
F10 C18 1_555 1_555
F11 C20 1_555 1_555
F12 C21 1_555 1_555
F13 C24 1_555 1_555
F14 C25 1_555 1_555
F15 C27 1_555 1_555
F16 C28 1_555 1_555
O1 C1 1_555 1_555
O2 C1 1_555 1_555
O3 Rh1 1_555 1_555
O5 C15 1_555 1_555
O6 C15 1_555 1_555
O7 Rh2 1_555 1_555
O8 C22 1_555 1_555
N1 Rh1 1_555 1_555
N2 Rh2 1_555 1_555
C1 C2 1_555 1_555
C2 C3 1_555 1_555
C3 C4 1_555 1_555
C4 C5 1_555 1_555
C5 H1 1_555 1_555
C6 C5 1_555 1_555
C7 C2 1_555 1_555
H2 C12 1_555 1_555
C13 C12 1_555 1_555
C15 C16 1_555 1_555
C16 C17 1_555 1_555
C17 C18 1_555 1_555
C18 C19 1_555 1_555
C19 H3 1_555 1_555
C20 C19 1_555 1_555
C21 C16 1_555 1_555
C22 O7 1_555 1_555
C23 C22 1_555 1_555
C24 C23 1_555 1_555
C25 C24 1_555 1_555
C26 C25 1_555 1_555
H4 C26 1_555 1_555
C27 C26 1_555 1_555
C28 C23 1_555 1_555
C29 N1 1_555 1_555
C30 C29 1_555 1_555
C31 N2 1_555 1_555
C32 C30 1_555 1_555
C33 C32 1_555 1_555
H5 C33 1_555 1_555
C34 C32 1_555 1_555
H6 C34 1_555 1_555
N3 C35 1_555 1_555
N4 C37 1_555 1_555
C35 C36 1_555 1_555
C36 C37 1_555 1_555
C38 C36 1_555 1_555
C39 C34 1_555 1_555
H7 C39 1_555 1_555
C40 C33 1_555 1_555
H8 C40 1_555 1_555
Rh3 N3 1_555 1_555
Rh4 N4 1_555 1_555
F17 C43 1_555 1_555
F18 C44 1_555 1_555
F23 C53 1_555 1_555
F24 C54 1_555 1_555
F25 C57 1_555 1_555
F29 C64 1_555 1_555
F30 C65 1_555 1_555
F31 C67 1_555 1_555
F32 C68 1_555 1_555
O9 Rh3 1_555 1_555
O11 Rh3 1_555 1_555
O13 Rh4 1_555 1_555
O15 Rh4 1_555 1_555
O16 C62 1_555 1_555
C41 O9 1_555 1_555
C42 C41 1_555 1_555
C43 C42 1_555 1_555
C44 C43 1_555 1_555
C45 C44 1_555 1_555
H9 C45 1_555 1_555
C46 C45 1_555 1_555
H10 C52 1_555 1_555
C53 C52 1_555 1_555
C62 O15 1_555 1_555
C63 C62 1_555 1_555
C64 C63 1_555 1_555
C65 C64 1_555 1_555
C66 C65 1_555 1_555
H12 C66 1_555 1_555
C67 C66 1_555 1_555
C68 C63 1_555 1_555
Rh7 Rh2 1_555 1_555
O19 Rh1 1_555 1_555
O21 Rh2 1_555 1_555
O22 Rh4 1_555 1_555
O23 Rh2 1_555 1_555
O6 Rh7 1_555 1_555
O8 Rh7 1_555 1_555
C6 C7 1_555 1_555
C13 C14 1_555 1_555
C20 C21 1_555 1_555
C27 C28 1_555 1_555
C30 C31 1_555 1_555
C38 C39 1_555 1_555
C38 C40 1_555 1_555
C53 C54 1_555 1_555
C67 C68 1_555 1_555
F20 C47 1_555 1_555
F27 C60 1_555 1_555
F28 C61 1_555 1_555
O14 C55 1_555 1_555
C56 C55 1_555 1_555
C59 C58 1_555 1_555
H11 C59 1_555 1_555
C60 C59 1_555 1_555
C61 C56 1_555 1_555
O14 Rh8 1_555 1_555
C60 C61 1_555 1_555
F5 C10 1_555 1_555
F6 C11 1_555 1_555
O4 C8 1_555 1_555
C9 C8 1_555 1_555
C10 C9 1_555 1_555
C11 C10 1_555 1_555
F21 C50 1_555 1_555
F22 C51 1_555 1_555
O12 C48 1_555 1_555
C49 C48 1_555 1_555
C50 C49 1_555 1_555
C51 C50 1_555 1_555
O4 Rh5 1_555 1_555
Rh1_2 O1_2 1_555 1_555
Rh2_2 O5_2 1_555 1_555
F13_2 C24_2 1_555 1_555
F14_2 C25_2 1_555 1_555
O5_2 C15_2 1_555 1_555
O6_2 C15_2 1_555 1_555
O7_2 Rh2_2 1_555 1_555
O8_2 C22_2 1_555 1_555
N1_2 Rh1_2 1_555 1_555
N2_2 Rh2_2 1_555 1_555
C22_2 O7_2 1_555 1_555
C23_2 C22_2 1_555 1_555
C24_2 C23_2 1_555 1_555
C25_2 C24_2 1_555 1_555
C29_2 N1_2 1_555 1_555
C30_2 C29_2 1_555 1_555
C31_2 N2_2 1_555 1_555
C32_2 C30_2 1_555 1_555
C34_2 C32_2 1_555 1_555
H6_2 C34_2 1_555 1_555
C39_2 C34_2 1_555 1_555
H7_2 C39_2 1_555 1_555
F17_2 C43_2 1_555 1_555
F21_2 C50_2 1_555 1_555
F22_2 C51_2 1_555 1_555
F23_2 C53_2 1_555 1_555
F24_2 C54_2 1_555 1_555
O12_2 C48_2 1_555 1_555
C42_2 C41_2 1_555 1_555
C43_2 C42_2 1_555 1_555
C48_2 O11_2 1_555 1_555
C49_2 C48_2 1_555 1_555
C50_2 C49_2 1_555 1_555
C51_2 C50_2 1_555 1_555
C52_2 C51_2 1_555 1_555
H10_2 C52_2 1_555 1_555
C53_2 C52_2 1_555 1_555
C54_2 C49_2 1_555 1_555
Rh7_2 Rh2_2 1_555 1_555
O17_2 Rh1_2 1_555 1_555
O19_2 Rh1_2 1_555 1_555
O21_2 Rh2_2 1_555 1_555
O23_2 Rh2_2 1_555 1_555
O6_2 Rh7_2 1_555 1_555
O8_2 Rh7_2 1_555 1_555
C30_2 C31_2 1_555 1_555
C53_2 C54_2 1_555 1_555
F20_2 C47_2 1_555 1_555
O10_2 Rh6_2 1_555 1_555
F1_2 C3_2 1_555 1_555
F4_2 C7_2 1_555 1_555
F5_2 C10_2 1_555 1_555
F6_2 C11_2 1_555 1_555
F7_2 C13_2 1_555 1_555
F8_2 C14_2 1_555 1_555
O2_2 C1_2 1_555 1_555
O4_2 C8_2 1_555 1_555
C1_2 C2_2 1_555 1_555
C2_2 C3_2 1_555 1_555
C7_2 C2_2 1_555 1_555
C8_2 O3_2 1_555 1_555
C9_2 C8_2 1_555 1_555
C10_2 C9_2 1_555 1_555
C11_2 C10_2 1_555 1_555
C12_2 C11_2 1_555 1_555
H2_2 C12_2 1_555 1_555
C13_2 C12_2 1_555 1_555
C14_2 C9_2 1_555 1_555
H5_2 C33_2 1_555 1_555
N3_2 C35_2 1_555 1_555
N4_2 C37_2 1_555 1_555
C35_2 C36_2 1_555 1_555
C36_2 C37_2 1_555 1_555
C38_2 C36_2 1_555 1_555
C40_2 C33_2 1_555 1_555
H8_2 C40_2 1_555 1_555
Rh3_2 N3_2 1_555 1_555
Rh4_2 N4_2 1_555 1_555
F29_2 C64_2 1_555 1_555
F30_2 C65_2 1_555 1_555
O9_2 Rh3_2 1_555 1_555
O13_2 Rh4_2 1_555 1_555
O15_2 Rh4_2 1_555 1_555
O16_2 C62_2 1_555 1_555
C62_2 O15_2 1_555 1_555
C63_2 C62_2 1_555 1_555
C64_2 C63_2 1_555 1_555
C65_2 C64_2 1_555 1_555
O18_2 Rh3_2 1_555 1_555
O22_2 Rh4_2 1_555 1_555
O2_2 Rh5_2 1_555 1_555
O4_2 Rh5_2 1_555 1_555
C13_2 C14_2 1_555 1_555
C38_2 C40_2 1_555 1_555
O14_2 C55_2 1_555 1_555
O14_2 Rh8_2 1_555 1_555
F5_3 C10_3 1_555 1_555
F6_3 C11_3 1_555 1_555
O19 C8_3 1_555 1_555
C9_3 C8_3 1_555 1_555
C10_3 C9_3 1_555 1_555
C11_3 C10_3 1_555 1_555
F21_3 C50_3 1_555 1_555
F22_3 C51_3 1_555 1_555
O20 C48_3 1_555 1_555
C49_3 C48_3 1_555 1_555
C50_3 C49_3 1_555 1_555
C51_3 C50_3 1_555 1_555
F20_3 C47_3 1_555 1_555
F27_2 C60_2 1_555 1_555
F28_3 C61_2 1_555 1_555
O22_2 C55_3 1_555 1_555
C56_2 C55_3 1_555 1_555
C59_2 C58_2 1_555 1_555
H11_2 C59_2 1_555 1_555
C60_2 C59_2 1_555 1_555
C61_2 C56_2 1_555 1_555
C60_2 C61_2 1_555 1_555
Rh5 O1_3 1_555 1_555
Rh7_2 O5_3 1_555 1_555
F1_3 C3_3 1_555 1_555
F2_2 C4_2 1_555 1_555
F3_2 C6_2 1_555 1_555
F4_3 C7_3 1_555 1_555
F7_3 C13_3 1_555 1_555
F8_3 C14_3 1_555 1_555
F9_2 C17_2 1_555 1_555
F10_2 C18_2 1_555 1_555
F11_2 C20_2 1_555 1_555
F12_3 C21_2 1_555 1_555
F13_3 C24_3 1_555 1_555
F14_3 C25_3 1_555 1_555
F15_2 C27_2 1_555 1_555
F16_2 C28_2 1_555 1_555
O1_3 C1_3 1_555 1_555
O17 C1_3 1_555 1_555
O3_3 Rh5 1_555 1_555
O5_3 C15_3 1_555 1_555
O21_2 C15_3 1_555 1_555
O7_3 Rh7_2 1_555 1_555
O23_2 C22_3 1_555 1_555
N1_3 Rh5 1_555 1_555
N2_3 Rh7_2 1_555 1_555
C1_3 C2_3 1_555 1_555
C2_3 C3_3 1_555 1_555
C3_3 C4_2 1_555 1_555
C4_2 C5_2 1_555 1_555
C5_2 H1_2 1_555 1_555
C6_2 C5_2 1_555 1_555
C7_3 C2_3 1_555 1_555
H2_3 C12_3 1_555 1_555
C13_3 C12_3 1_555 1_555
C15_3 C16_2 1_555 1_555
C16_2 C17_2 1_555 1_555
C17_2 C18_2 1_555 1_555
C18_2 C19_2 1_555 1_555
C19_2 H3_2 1_555 1_555
C20_2 C19_2 1_555 1_555
C21_2 C16_2 1_555 1_555
C22_3 O7_3 1_555 1_555
C23_3 C22_3 1_555 1_555
C24_3 C23_3 1_555 1_555
C25_3 C24_3 1_555 1_555
C26_2 C25_3 1_555 1_555
H4_2 C26_2 1_555 1_555
C27_2 C26_2 1_555 1_555
C28_2 C23_3 1_555 1_555
C29_3 N1_3 1_555 1_555
C30_3 C29_3 1_555 1_555
C31_3 N2_3 1_555 1_555
C32_3 C30_3 1_555 1_555
C33_3 C32_3 1_555 1_555
H5_3 C33_3 1_555 1_555
C34_3 C32_3 1_555 1_555
H6_3 C34_3 1_555 1_555
N3_3 C35_3 1_555 1_555
N4_3 C37_3 1_555 1_555
C35_3 C36_3 1_555 1_555
C36_3 C37_3 1_555 1_555
C38_3 C36_3 1_555 1_555
C39_3 C34_3 1_555 1_555
H7_3 C39_3 1_555 1_555
C40_3 C33_3 1_555 1_555
H8_3 C40_3 1_555 1_555
Rh6 N3_3 1_555 1_555
Rh8_2 N4_3 1_555 1_555
F17_3 C43_3 1_555 1_555
F18_2 C44_2 1_555 1_555
F23_3 C53_3 1_555 1_555
F24_3 C54_3 1_555 1_555
F25_2 C57_2 1_555 1_555
F29_3 C64_3 1_555 1_555
F30_3 C65_3 1_555 1_555
F31_2 C67_2 1_555 1_555
F32_2 C68_2 1_555 1_555
O9_3 Rh6 1_555 1_555
O11_3 Rh6 1_555 1_555
O13_3 Rh8_2 1_555 1_555
O15_3 Rh8_2 1_555 1_555
O24_2 C62_3 1_555 1_555
C41_3 O9_3 1_555 1_555
C42_3 C41_3 1_555 1_555
C43_3 C42_3 1_555 1_555
C44_2 C43_3 1_555 1_555
C45_2 C44_2 1_555 1_555
H9_2 C45_2 1_555 1_555
C46_2 C45_2 1_555 1_555
H10_3 C52_3 1_555 1_555
C53_3 C52_3 1_555 1_555
C62_3 O15_3 1_555 1_555
C63_3 C62_3 1_555 1_555
C64_3 C63_3 1_555 1_555
C65_3 C64_3 1_555 1_555
C66_2 C65_3 1_555 1_555
H12_2 C66_2 1_555 1_555
C67_2 C66_2 1_555 1_555
C68_2 C63_3 1_555 1_555
C6_2 C7_3 1_555 1_555
C13_3 C14_3 1_555 1_555
C20_2 C21_2 1_555 1_555
C27_2 C28_2 1_555 1_555
C30_3 C31_3 1_555 1_555
C38_3 C39_3 1_555 1_555
C38_3 C40_3 1_555 1_555
C53_3 C54_3 1_555 1_555
C67_2 C68_2 1_555 1_555
O22 C55_4 1_555 1_555
F1_4 C3_4 1_555 1_555
F4_4 C7_4 1_555 1_555
F5_4 C10_4 1_555 1_555
F6_4 C11_4 1_555 1_555
F7_4 C13_4 1_555 1_555
F8_4 C14_4 1_555 1_555
O17_2 C1_4 1_555 1_555
O19_2 C8_4 1_555 1_555
C1_4 C2_4 1_555 1_555
C2_4 C3_4 1_555 1_555
C7_4 C2_4 1_555 1_555
C8_4 O3_4 1_555 1_555
C9_4 C8_4 1_555 1_555
C10_4 C9_4 1_555 1_555
C11_4 C10_4 1_555 1_555
C12_4 C11_4 1_555 1_555
H2_4 C12_4 1_555 1_555
C13_4 C12_4 1_555 1_555
C14_4 C9_4 1_555 1_555
H5_4 C33_4 1_555 1_555
N3_4 C35_4 1_555 1_555
N4_4 C37_4 1_555 1_555
C35_4 C36_4 1_555 1_555
C36_4 C37_4 1_555 1_555
C38_4 C36_4 1_555 1_555
C40_4 C33_4 1_555 1_555
H8_4 C40_4 1_555 1_555
Rh6_2 N3_4 1_555 1_555
Rh8 N4_4 1_555 1_555
F29_4 C64_4 1_555 1_555
F30_4 C65_4 1_555 1_555
O9_4 Rh6_2 1_555 1_555
O13_4 Rh8 1_555 1_555
O15_4 Rh8 1_555 1_555
O24 C62_4 1_555 1_555
C62_4 O15_4 1_555 1_555
C63_4 C62_4 1_555 1_555
C64_4 C63_4 1_555 1_555
C65_4 C64_4 1_555 1_555
C13_4 C14_4 1_555 1_555
C38_4 C40_4 1_555 1_555
F20_4 C47_4 1_555 1_555
Rh5_2 O1_4 1_555 1_555
Rh7 O5_4 1_555 1_555
F13_4 C24_4 1_555 1_555
F14_4 C25_4 1_555 1_555
O5_4 C15_4 1_555 1_555
O21 C15_4 1_555 1_555
O7_4 Rh7 1_555 1_555
O23 C22_4 1_555 1_555
N1_4 Rh5_2 1_555 1_555
N2_4 Rh7 1_555 1_555
C22_4 O7_4 1_555 1_555
C23_4 C22_4 1_555 1_555
C24_4 C23_4 1_555 1_555
C25_4 C24_4 1_555 1_555
C29_4 N1_4 1_555 1_555
C30_4 C29_4 1_555 1_555
C31_4 N2_4 1_555 1_555
C32_4 C30_4 1_555 1_555
C34_4 C32_4 1_555 1_555
H6_4 C34_4 1_555 1_555
C39_4 C34_4 1_555 1_555
H7_4 C39_4 1_555 1_555
F17_4 C43_4 1_555 1_555
F21_4 C50_4 1_555 1_555
F22_4 C51_4 1_555 1_555
F23_4 C53_4 1_555 1_555
F24_4 C54_4 1_555 1_555
O20_2 C48_4 1_555 1_555
C42_4 C41_4 1_555 1_555
C43_4 C42_4 1_555 1_555
C48_4 O11_4 1_555 1_555
C49_4 C48_4 1_555 1_555
C50_4 C49_4 1_555 1_555
C51_4 C50_4 1_555 1_555
C52_4 C51_4 1_555 1_555
H10_4 C52_4 1_555 1_555
C53_4 C52_4 1_555 1_555
C54_4 C49_4 1_555 1_555
C30_4 C31_4 1_555 1_555
C53_4 C54_4 1_555 1_555
F9_3 C17_3 1_555 1_555
F10_3 C18_3 1_555 1_555
F11_3 C20_3 1_555 1_555
F15_3 C27_3 1_555 1_555
F16_3 C28_3 1_555 1_555
C16_3 C17_3 1_555 1_555
C17_3 C18_3 1_555 1_555
C18_3 C19_3 1_555 1_555
C19_3 H3_3 1_555 1_555
C20_3 C19_3 1_555 1_555
C21_3 C16_3 1_555 1_555
H4_3 C26_3 1_555 1_555
C27_3 C26_3 1_555 1_555
F18_3 C44_3 1_555 1_555
C45_3 C44_3 1_555 1_555
H9_3 C45_3 1_555 1_555
C46_3 C45_3 1_555 1_555
C20_3 C21_3 1_555 1_555
C27_3 C28_3 1_555 1_555
F2_3 C4_3 1_555 1_555
F3_3 C6_3 1_555 1_555
C4_3 C5_3 1_555 1_555
C5_3 H1_3 1_555 1_555
C6_3 C5_3 1_555 1_555
F25_3 C57_3 1_555 1_555
F31_3 C67_3 1_555 1_555
F32_3 C68_3 1_555 1_555
H12_3 C66_3 1_555 1_555
C67_3 C66_3 1_555 1_555
C67_3 C68_3 1_555 1_555
F27_3 C60_3 1_555 1_555
C59_3 C58_3 1_555 1_555
H11_3 C59_3 1_555 1_555
C60_3 C59_3 1_555 1_555
C61_3 C56_3 1_555 1_555
C60_3 C61_3 1_555 1_555
F27_4 C60_4 1_555 1_555
C59_4 C58_4 1_555 1_555
H11_4 C59_4 1_555 1_555
C60_4 C59_4 1_555 1_555
C61_4 C56_4 1_555 1_555
C60_4 C61_4 1_555 1_555
F2_4 C4_4 1_555 1_555
F3_4 C6_4 1_555 1_555
C4_4 C5_4 1_555 1_555
C5_4 H1_4 1_555 1_555
C6_4 C5_4 1_555 1_555
F25_4 C57_4 1_555 1_555
F31_4 C67_4 1_555 1_555
F32_4 C68_4 1_555 1_555
H12_4 C66_4 1_555 1_555
C67_4 C66_4 1_555 1_555
C67_4 C68_4 1_555 1_555
F9_4 C17_4 1_555 1_555
F10_4 C18_4 1_555 1_555
F11_4 C20_4 1_555 1_555
F15_4 C27_4 1_555 1_555
F16_4 C28_4 1_555 1_555
C16_4 C17_4 1_555 1_555
C17_4 C18_4 1_555 1_555
C18_4 C19_4 1_555 1_555
C19_4 H3_4 1_555 1_555
C20_4 C19_4 1_555 1_555
C21_4 C16_4 1_555 1_555
H4_4 C26_4 1_555 1_555
C27_4 C26_4 1_555 1_555
F18_4 C44_4 1_555 1_555
C45_4 C44_4 1_555 1_555
H9_4 C45_4 1_555 1_555
C46_4 C45_4 1_555 1_555
C20_4 C21_4 1_555 1_555
C27_4 C28_4 1_555 1_555

#END
