
###############################################################################
#
# This file contains modified crystal structure data generated from the
# MOF subset of the Cambridge Structural Database (CSD) v543 
# hosted by the Cambridge Crystallographic Data Centre (CCDC).
#
# This work is licensed under the Creative Commons
# Attribution-NonCommercial-ShareAlike 4.0 International License.
# To view a copy of this license, visit
# http://creativecommons.org/licenses/by-nc-sa/4.0/
# or send a letter to
# Creative Commons, PO Box 1866, Mountain View, CA 94042, USA.
#
# CIF created using the CSD Python API on 29 September 2022
# The structure has been converted into the P1 space group
# The structure has a 3D framework
# The original CSD entry QIHXIQ is in the triclinic crystal system
# The framework has been calculated to contain at least 10.0% void space
# The void calculation uses a probe of radius 1.32A, grid spacing 0.4
#
###############################################################################

data_QIHXIQ
_chemical_formula_moiety         '(C76 H52 N6 O18 Zn8)n'
_symmetry_cell_setting           triclinic
_symmetry_space_group_name_H-M   'P 1'
_symmetry_Int_Tables_number      1
_space_group_name_Hall           'P 1'
loop_
_symmetry_equiv_pos_site_id
_symmetry_equiv_pos_as_xyz
1 x,y,z
_cell_length_a                   12.880(3)
_cell_length_b                   16.861(3)
_cell_length_c                   17.325(4)
_cell_angle_alpha                75.74(3)
_cell_angle_beta                 73.26(3)
_cell_angle_gamma                68.59(3)
_cell_volume                     3312.06
loop_
_atom_site_label
_atom_site_type_symbol
_atom_site_fract_x
_atom_site_fract_y
_atom_site_fract_z
C52 C 0.00369(18) 0.6320(2) 0.87805(18)
C53 C 0.0662(2) 0.6690(2) 0.80832(16)
H35 H 0.0339 0.6961 0.7619
C54 C 0.1759(2) 0.6664(2) 0.80656(15)
H36 H 0.2186 0.6917 0.7589
N6 N 0.22321(17) 0.62678(19) 0.87453(16)
C55 C 0.1607(2) 0.5898(2) 0.94425(14)
H37 H 0.1930 0.5627 0.9907
C56 C 0.0510(2) 0.5924(2) 0.94602(15)
H38 H 0.0083 0.5670 0.9937
Zn15 Zn 0.38429(4) 0.62491(3) 0.86133(3)
O8 O 0.2820(3) 0.5693(2) 0.1739(2)
O9 O 0.3277(2) 0.5961(2) 0.03632(18)
C8 C 0.1830(2) 0.70467(16) 0.10763(18)
C9 C 0.1315(3) 0.7338(2) 0.18220(15)
H5 H 0.1554 0.6999 0.2304
C10 C 0.0451(3) 0.8127(2) 0.18630(15)
H6 H 0.0100 0.8326 0.2373
C11 C 0.0102(3) 0.86240(17) 0.11583(19)
C12 C 0.0617(3) 0.83323(19) 0.04126(16)
C13 C 0.1481(3) 0.7544(2) 0.03716(15)
C33 C 0.2705(4) 0.6178(3) 0.1039(3)
Zn9 Zn 0.35095(4) 0.44506(3) 0.17775(3)
Zn17 Zn 0.5000 0.5000 0.0000
H7 H 0.0378 0.8672 0.9931
H8 H 0.1833 0.7344 0.9862
Zn17_2 Zn 0.5000 0.5000 1.0000
Zn1 Zn 0.46949(4) 0.31808(3) 0.04999(3)
Zn3 Zn 0.61571(4) 0.37509(3) 0.13867(3)
N1 N 0.2536(3) 0.3894(3) 0.1545(2)
N2 N 0.2979(3) 0.3443(3) 0.0918(3)
O1 O 0.4861(2) 0.40928(18) 0.09181(17)
O6 O 0.5720(3) 0.2035(2) 0.0841(2)
O7 O 0.6592(3) 0.2433(2) 0.1550(2)
C25 C 0.8201(3) 0.08197(19) 0.1697(2)
H17 H 0.8168 0.1215 0.2018
C26 C 0.9080(3) 0.0038(2) 0.1672(2)
C29 C 0.7418(3) 0.0446(2) 0.0782(2)
H20 H 0.6851 0.0586 0.0478
C30 C 0.7370(2) 0.10241(16) 0.1252(2)
C32 C 0.6481(4) 0.1905(3) 0.1215(3)
C34 C 0.0646(6) 0.4534(6) 0.2424(5)
H21 H 0.1119 0.4699 0.2670
H22 H 0.0250 0.4166 0.2838
H23 H 0.0082 0.5054 0.2213
C35 C 0.1406(4) 0.4040(4) 0.1724(4)
C36 C 0.1130(4) 0.3685(3) 0.1209(3)
C37 C 0.2187(4) 0.3311(4) 0.0701(3)
H26 H 0.2079 0.2398 0.0153
O11 O 0.5778(3) 0.5355(2) 0.08254(19)
O12 O 0.4934(3) 0.6799(2) 0.0680(2)
O13 O 0.4350(3) 0.6165(2) 0.7421(2)
O14 O 0.6245(3) 0.5877(2) 0.71100(19)
C39 C 0.5382(4) 0.6052(3) 0.1103(2)
C40 C 0.5320(2) 0.6072(2) 0.60509(14)
C41 C 0.4308(2) 0.6245(2) 0.58112(16)
H27 H 0.3601 0.6354 0.6201
C42 C 0.4329(2) 0.6259(3) 0.50014(18)
H28 H 0.3637 0.6377 0.4838
C43 C 0.5363(3) 0.6099(3) 0.44312(14)
C44 C 0.6375(2) 0.5927(3) 0.46709(16)
H29 H 0.7081 0.5818 0.4281
C45 C 0.6354(2) 0.5913(3) 0.54808(18)
H30 H 0.7045 0.5795 0.5645
C57 C 0.5392(3) 0.6075(2) 0.19574(14)
C58 C 0.6291(2) 0.55132(19) 0.23093(17)
H39 H 0.6911 0.5120 0.2003
C59 C 0.6284(2) 0.5528(2) 0.31097(17)
H40 H 0.6899 0.5144 0.3350
C60 C 0.5377(3) 0.6104(2) 0.35581(14)
C61 C 0.4477(3) 0.6665(2) 0.32061(18)
H41 H 0.3857 0.7059 0.3513
C62 C 0.4485(2) 0.6651(2) 0.24058(18)
H42 H 0.3870 0.7035 0.2165
C69 C 0.5289(4) 0.6046(3) 0.6925(3)
C76 C 0.7627(6) 0.7111(7) 0.0027(6)
H50 H 0.6807 0.7313 0.0272
H51 H 0.8031 0.6691 0.0431
Zn11 Zn 0.64905(4) 0.55494(3) 0.82225(3)
O19 O 0.5650(3) 0.3835(2) 0.2579(2)
O21 O 0.3755(3) 0.4123(2) 0.28900(19)
N7 N 0.77679(17) 0.37322(19) 0.12547(16)
O2 O 0.4222(3) 0.4645(2) 0.91746(19)
O3 O 0.5066(3) 0.3201(2) 0.9320(2)
C1 C 0.4618(4) 0.3948(3) 0.8897(2)
C2 C 0.4680(2) 0.3928(2) 0.39491(14)
C3 C 0.5692(2) 0.3755(2) 0.41888(16)
H1 H 0.6399 0.3646 0.3799
C4 C 0.5671(2) 0.3741(3) 0.49986(18)
H2 H 0.6363 0.3623 0.5162
C5 C 0.4637(3) 0.3901(3) 0.55688(14)
C6 C 0.3625(2) 0.4073(3) 0.53291(16)
H3 H 0.2919 0.4182 0.5719
C7 C 0.3646(2) 0.4087(3) 0.45192(18)
H4 H 0.2955 0.4205 0.4355
C19 C 0.4608(3) 0.3925(2) 0.80426(14)
C20 C 0.3709(2) 0.44868(19) 0.76907(17)
H13 H 0.3089 0.4880 0.7997
C21 C 0.3716(2) 0.4472(2) 0.68903(17)
H14 H 0.3101 0.4856 0.6650
C22 C 0.4623(3) 0.3896(2) 0.64419(14)
C23 C 0.5523(3) 0.3335(2) 0.67939(18)
H15 H 0.6143 0.2941 0.6487
C24 C 0.5515(2) 0.3349(2) 0.75942(18)
H16 H 0.6130 0.2965 0.7835
C31 C 0.4711(4) 0.3954(3) 0.3075(3)
C38 C 0.2373(6) 0.2889(7) 0.9973(6)
H24 H 0.3193 0.2687 0.9728
H25 H 0.1969 0.3309 0.9569
Zn5 Zn 0.53051(4) 0.68192(3) 0.95001(3)
N4 N 0.7464(3) 0.6106(3) 0.8455(2)
N5 N 0.7021(3) 0.6557(3) 0.9082(3)
O10 O 0.5139(2) 0.59072(18) 0.90819(17)
O15 O 0.4280(3) 0.7965(2) 0.9159(2)
O16 O 0.3408(3) 0.7567(2) 0.8450(2)
C63 C 0.1799(3) 0.91803(19) 0.8303(2)
H43 H 0.1832 0.8785 0.7982
C64 C 0.0920(3) 0.9962(2) 0.8328(2)
C67 C 0.2582(3) 0.9554(2) 0.9218(2)
H46 H 0.3149 0.9414 0.9522
C68 C 0.2630(2) 0.89759(16) 0.8748(2)
C70 C 0.3519(4) 0.8095(3) 0.8785(3)
C72 C 0.9354(6) 0.5466(6) 0.7576(5)
H47 H 0.8881 0.5301 0.7330
H48 H 0.9750 0.5834 0.7162
H49 H 0.9918 0.4946 0.7787
C73 C 0.8594(4) 0.5960(4) 0.8276(4)
C74 C 0.8870(4) 0.6315(3) 0.8791(3)
C75 C 0.7813(4) 0.6689(4) 0.9299(3)
H52 H 0.7921 0.7602 0.9847
O24 O 0.7180(3) 0.4307(2) 0.8261(2)
O26 O 0.6723(2) 0.4039(2) 0.96368(18)
H33 H 0.9622 0.1328 0.0069
H34 H 0.8167 0.2656 0.0138
C46 C 0.8170(2) 0.29533(16) 0.89237(18)
C47 C 0.8685(3) 0.2662(2) 0.81780(15)
H31 H 0.8446 0.3001 0.7696
C48 C 0.9549(3) 0.1873(2) 0.81370(15)
H32 H 0.9900 0.1674 0.7627
C49 C 0.9898(3) 0.13760(17) 0.88417(19)
C50 C 0.9383(3) 0.16677(19) 0.95874(16)
C51 C 0.8519(3) 0.2456(2) 0.96284(15)
C71 C 0.7295(4) 0.3822(3) 0.8961(3)
C14 C 0.99631(18) 0.3680(2) 0.12195(18)
C15 C 0.9338(2) 0.3310(2) 0.19168(16)
H9 H 0.9661 0.3039 0.2381
C16 C 0.8241(2) 0.3336(2) 0.19344(15)
H10 H 0.7814 0.3083 0.2411
C17 C 0.8393(2) 0.4102(2) 0.05575(14)
H11 H 0.8070 0.4373 0.0093
C18 C 0.9490(2) 0.4076(2) 0.05398(15)
H12 H 0.9917 0.4330 0.0063
H44 H 0.0352 0.0102 0.8024
C65 C 0.0872(3) 0.05403(17) 0.8798(2)
C66 C 0.1703(3) 0.0336(2) 0.9242(2)
H45 H 0.1670 0.0731 0.9563
H18 H 0.9648 0.9898 0.1976
C27 C 0.9128(3) 0.94597(17) 0.1202(2)
C28 C 0.8297(3) 0.9664(2) 0.0758(2)
H19 H 0.8330 0.9269 0.0437
loop_
_geom_bond_atom_site_label_1
_geom_bond_atom_site_label_2
_geom_bond_site_symmetry_1
_geom_bond_site_symmetry_2
C52 C53 1_555 1_555
C53 H35 1_555 1_555
C54 C53 1_555 1_555
H36 C54 1_555 1_555
N6 C54 1_555 1_555
C55 N6 1_555 1_555
H37 C55 1_555 1_555
C56 C52 1_555 1_555
H38 C56 1_555 1_555
Zn15 N6 1_555 1_555
C55 C56 1_555 1_555
O8 C33 1_555 1_555
O9 C33 1_555 1_555
C8 C9 1_555 1_555
C9 H5 1_555 1_555
C10 C9 1_555 1_555
H6 C10 1_555 1_555
C11 C10 1_555 1_555
C12 C11 1_555 1_555
C13 C8 1_555 1_555
C33 C8 1_555 1_555
Zn9 O8 1_555 1_555
Zn17 O9 1_555 1_555
C12 C13 1_555 1_555
Zn1 N2 1_555 1_555
Zn9 N1 1_555 1_555
Zn3 O1 1_555 1_555
Zn17 O1 1_555 1_555
N1 N2 1_555 1_555
N2 C37 1_555 1_555
O1 Zn1 1_555 1_555
O6 Zn1 1_555 1_555
O7 Zn3 1_555 1_555
C25 H17 1_555 1_555
C26 C25 1_555 1_555
H20 C29 1_555 1_555
C30 C25 1_555 1_555
C32 O6 1_555 1_555
C34 H21 1_555 1_555
H22 C34 1_555 1_555
H23 C34 1_555 1_555
C35 N1 1_555 1_555
C37 C36 1_555 1_555
O11 Zn3 1_555 1_555
O13 C69 1_555 1_555
O14 C69 1_555 1_555
C39 O11 1_555 1_555
C40 C41 1_555 1_555
C41 H27 1_555 1_555
C42 C41 1_555 1_555
H28 C42 1_555 1_555
C43 C42 1_555 1_555
C44 C43 1_555 1_555
H29 C44 1_555 1_555
C45 C40 1_555 1_555
H30 C45 1_555 1_555
C57 C39 1_555 1_555
C58 C57 1_555 1_555
H39 C58 1_555 1_555
C59 C58 1_555 1_555
H40 C59 1_555 1_555
C60 C43 1_555 1_555
C61 C60 1_555 1_555
H41 C61 1_555 1_555
C62 C57 1_555 1_555
H42 C62 1_555 1_555
C69 C40 1_555 1_555
H50 C76 1_555 1_555
H51 C76 1_555 1_555
Zn11 O14 1_555 1_555
Zn15 O13 1_555 1_555
O19 Zn3 1_555 1_555
O21 Zn9 1_555 1_555
N7 Zn3 1_555 1_555
Zn9 O1 1_555 1_555
Zn17 O11 1_555 1_555
O7 C32 1_555 1_555
C29 C30 1_555 1_555
C30 C32 1_555 1_555
C34 C35 1_555 1_555
C35 C36 1_555 1_555
O12 C39 1_555 1_555
C44 C45 1_555 1_555
C59 C60 1_555 1_555
C61 C62 1_555 1_555
O2 Zn17_2 1_555 1_555
O19 C31 1_555 1_555
O21 C31 1_555 1_555
C1 O2 1_555 1_555
C2 C3 1_555 1_555
C3 H1 1_555 1_555
C4 C3 1_555 1_555
H2 C4 1_555 1_555
C5 C4 1_555 1_555
C6 C5 1_555 1_555
H3 C6 1_555 1_555
C7 C2 1_555 1_555
H4 C7 1_555 1_555
C19 C1 1_555 1_555
C20 C19 1_555 1_555
H13 C20 1_555 1_555
C21 C20 1_555 1_555
H14 C21 1_555 1_555
C22 C5 1_555 1_555
C23 C22 1_555 1_555
H15 C23 1_555 1_555
C24 C19 1_555 1_555
H16 C24 1_555 1_555
C31 C2 1_555 1_555
H24 C38 1_555 1_555
H25 C38 1_555 1_555
Zn5 N5 1_555 1_555
Zn11 N4 1_555 1_555
Zn15 O2 1_555 1_555
N4 N5 1_555 1_555
N5 C75 1_555 1_555
O10 Zn17_2 1_555 1_555
O15 Zn5 1_555 1_555
O16 Zn15 1_555 1_555
C63 H43 1_555 1_555
C64 C63 1_555 1_555
H46 C67 1_555 1_555
C68 C63 1_555 1_555
C70 O15 1_555 1_555
C72 H47 1_555 1_555
H48 C72 1_555 1_555
H49 C72 1_555 1_555
C73 N4 1_555 1_555
C75 C74 1_555 1_555
O24 Zn11 1_555 1_555
O26 Zn17_2 1_555 1_555
O3 C1 1_555 1_555
C6 C7 1_555 1_555
C21 C22 1_555 1_555
C23 C24 1_555 1_555
Zn5 O10 1_555 1_555
Zn11 O10 1_555 1_555
Zn15 O10 1_555 1_555
O16 C70 1_555 1_555
C67 C68 1_555 1_555
C68 C70 1_555 1_555
C72 C73 1_555 1_555
C73 C74 1_555 1_555
O24 C71 1_555 1_555
O26 C71 1_555 1_555
C46 C47 1_555 1_555
C47 H31 1_555 1_555
C48 C47 1_555 1_555
H32 C48 1_555 1_555
C49 C48 1_555 1_555
C50 C49 1_555 1_555
C51 C46 1_555 1_555
C71 C46 1_555 1_555
C50 C51 1_555 1_555
C14 C15 1_555 1_555
C15 H9 1_555 1_555
C16 C15 1_555 1_555
H10 C16 1_555 1_555
N7 C16 1_555 1_555
C17 N7 1_555 1_555
H11 C17 1_555 1_555
C18 C14 1_555 1_555
H12 C18 1_555 1_555
C17 C18 1_555 1_555
C66 C65 1_555 1_555
H45 C66 1_555 1_555
C28 C27 1_555 1_555
H19 C28 1_555 1_555

#END
