
###############################################################################
#
# This file contains modified crystal structure data generated from the
# MOF subset of the Cambridge Structural Database (CSD) v543 
# hosted by the Cambridge Crystallographic Data Centre (CCDC).
#
# This work is licensed under the Creative Commons
# Attribution-NonCommercial-ShareAlike 4.0 International License.
# To view a copy of this license, visit
# http://creativecommons.org/licenses/by-nc-sa/4.0/
# or send a letter to
# Creative Commons, PO Box 1866, Mountain View, CA 94042, USA.
#
# CIF created using the CSD Python API on 29 September 2022
# The structure has been converted into the P1 space group
# The structure has a 3D framework
# The original CSD entry QIKTUC is in the orthorhombic crystal system
# The framework has been calculated to contain at least 10.0% void space
# The void calculation uses a probe of radius 1.32A, grid spacing 0.4
#
###############################################################################

data_QIKTUC
_chemical_formula_moiety         '(C200 H144 Cu8 N16 O40)n'
_symmetry_cell_setting           triclinic
_symmetry_space_group_name_H-M   'P 1'
_symmetry_Int_Tables_number      1
_space_group_name_Hall           'P 1'
loop_
_symmetry_equiv_pos_site_id
_symmetry_equiv_pos_as_xyz
1 x,y,z
_cell_length_a                   27.1219(3)
_cell_length_b                   12.9625(3)
_cell_length_c                   17.0236(2)
_cell_angle_alpha                90
_cell_angle_beta                 90
_cell_angle_gamma                90
_cell_volume                     5984.95
loop_
_atom_site_label
_atom_site_type_symbol
_atom_site_fract_x
_atom_site_fract_y
_atom_site_fract_z
Cu1 Cu 0.12879(2) 0.68844(3) 0.72831(3)
O1 O 0.18003(9) 0.61794(19) 0.66898(17)
O2 O 0.15366(11) 0.8057(2) 0.78817(18)
H1 H 0.127856 0.861129 0.779005
N1 N 0.37667(9) 0.4236(2) 0.45347(16)
N2 N 0.57447(10) 0.7349(2) 0.32997(18)
O4 O 0.19290(11) 0.7727(2) 0.61994(19)
C1 C 0.49678(11) 0.6132(2) 0.38298(19)
C2 C 0.37556(11) 0.5260(2) 0.46510(19)
C3 C 0.41617(11) 0.3824(2) 0.41854(19)
C4 C 0.33037(11) 0.5667(2) 0.50340(18)
C5 C 0.45618(11) 0.4411(2) 0.3960(2)
H2 H 0.483513 0.409973 0.373034
C6 C 0.45529(11) 0.5474(2) 0.40776(19)
C7 C 0.24642(11) 0.6400(2) 0.58056(18)
C8 C 0.41378(11) 0.5900(2) 0.44288(19)
H3 H 0.411760 0.660721 0.451328
C9 C 0.20325(12) 0.6811(2) 0.6250(2)
C10 C 0.41366(11) 0.2692(2) 0.4043(2)
C11 C 0.31730(12) 0.6706(2) 0.4985(2)
H4 H 0.336715 0.716137 0.469771
C12 C 0.40216(13) 0.0596(3) 0.3704(2)
C13 C 0.30025(12) 0.5002(2) 0.5460(2)
H5 H 0.307996 0.430365 0.548581
C14 C 0.25896(12) 0.5368(2) 0.5845(2)
H6 H 0.239417 0.491524 0.613229
C15 C 0.27576(13) 0.7057(2) 0.5362(2)
H7 H 0.267106 0.774925 0.531853
C16 C 0.54390(12) 0.5752(3) 0.3785(2)
H8 H 0.550458 0.507301 0.392888
C17 C 0.58121(12) 0.6378(3) 0.3528(2)
H9 H 0.612996 0.610913 0.351200
C18 C 0.38304(16) 0.2084(3) 0.4494(2)
H10 H 0.365960 0.237405 0.491344
C19 C 0.52913(14) 0.7724(3) 0.3368(3)
H11 H 0.523751 0.841055 0.323405
C20 C 0.48995(13) 0.7153(3) 0.3624(2)
H12 H 0.458818 0.745035 0.365891
C21 C 0.44069(14) 0.2225(3) 0.3441(3)
H13 H 0.463204 0.261463 0.315428
C22 C 0.37757(17) 0.1048(3) 0.4328(3)
H14 H 0.357004 0.064633 0.464057
C24 C 0.43437(14) 0.1194(3) 0.3265(3)
H15 H 0.451783 0.089978 0.285167
C25 C 0.20040(16) 0.8235(5) 0.8032(3)
H16 H 0.220406 0.792252 0.763229
H17 H 0.208768 0.794649 0.853413
H18 H 0.206194 0.896547 0.803984
Cu3 Cu 0.62879(2) 0.81156(3) 0.27169(3)
N3 N 0.07447(10) 0.7651(2) 0.67003(18)
O6 O 0.09178(11) 0.5807(2) 0.78161(19)
N1_2 N 0.12333(9) 0.0764(2) 0.95347(16)
C3_2 C 0.08383(11) 0.1176(2) 0.91854(19)
C5_2 C 0.04382(11) 0.0589(2) 0.8960(2)
H2_2 H 0.016487 0.090027 0.873034
C10_2 C 0.08634(11) 0.2308(2) 0.9043(2)
C12_2 C 0.09784(13) 0.4404(3) 0.8704(2)
C18_2 C 0.11696(16) 0.2916(3) 0.9494(2)
H10_2 H 0.134040 0.262595 0.991344
O5 O 0.1357(2) 0.6023(3) 0.8898(3)
C21_2 C 0.05931(14) 0.2775(3) 0.8441(3)
H13_2 H 0.036796 0.238537 0.815428
C22_2 C 0.12243(17) 0.3952(3) 0.9328(3)
H14_2 H 0.142996 0.435367 0.964057
C23 C 0.10927(16) 0.5503(3) 0.8475(3)
C24_2 C 0.06563(14) 0.3806(3) 0.8265(3)
H15_2 H 0.048217 0.410022 0.785167
O3 O 0.59178(11) 0.9193(2) 0.21839(19)
O5_2 O 0.6357(2) 0.8977(3) 0.1102(3)
C23_2 C 0.60927(16) 0.9497(3) 0.1525(3)
C16_2 C 0.04390(12) 0.9248(3) 0.6215(2)
H8_2 H 0.050458 0.992699 0.607112
C17_2 C 0.08121(12) 0.8622(3) 0.6472(2)
H9_2 H 0.112996 0.889087 0.648800
C19_2 C 0.02913(14) 0.7276(3) 0.6632(3)
H11_2 H 0.023751 0.658945 0.676595
O1_2 O 0.68003(9) 0.88206(19) 0.33102(17)
O2_2 O 0.65366(11) 0.6943(2) 0.21183(18)
H1_2 H 0.627856 0.638871 0.220995
O4_2 O 0.69290(11) 0.7273(2) 0.38006(19)
C1_2 C 0.99678(11) 0.8868(2) 0.61702(19)
C2_2 C 0.87556(11) 0.9740(2) 0.53490(19)
C4_2 C 0.83037(11) 0.9333(2) 0.49660(18)
C6_2 C 0.95529(11) 0.9526(2) 0.59224(19)
C7_2 C 0.74642(11) 0.8600(2) 0.41944(18)
C8_2 C 0.91378(11) 0.9100(2) 0.55712(19)
H3_2 H 0.911760 0.839279 0.548672
C9_2 C 0.70325(12) 0.8189(2) 0.3750(2)
C11_2 C 0.81730(12) 0.8294(2) 0.5015(2)
H4_2 H 0.836715 0.783863 0.530229
C13_2 C 0.80025(12) 0.9998(2) 0.4540(2)
C14_2 C 0.75896(12) 0.9632(2) 0.4155(2)
C15_2 C 0.77576(13) 0.7943(2) 0.4638(2)
H7_2 H 0.767106 0.725075 0.468147
C20_2 C 0.98995(13) 0.7847(3) 0.6376(2)
H12_2 H 0.958818 0.754965 0.634109
C25_2 C 0.70040(16) 0.6765(5) 0.1968(3)
H16_2 H 0.720406 0.707748 0.236771
H17_2 H 0.708768 0.705351 0.146587
H18_2 H 0.706194 0.603453 0.196016
O3_2 O 0.40822(11) 0.9193(2) 0.28161(19)
O5_3 O 0.3643(2) 0.8977(3) 0.3898(3)
C23_3 C 0.39073(16) 0.9497(3) 0.3475(3)
Cu2 Cu 0.37121(2) 0.81156(3) 0.22831(3)
O1_3 O 0.31997(9) 0.88206(19) 0.16898(17)
O2_3 O 0.34634(11) 0.6943(2) 0.28817(18)
H1_3 H 0.372144 0.638871 0.279005
O4_3 O 0.30710(11) 0.7273(2) 0.11994(19)
C4_3 C 0.16963(11) 0.9333(2) 0.00340(18)
C7_3 C 0.25358(11) 0.8600(2) 0.08056(18)
C9_3 C 0.29675(12) 0.8189(2) 0.1250(2)
C13_3 C 0.19975(12) 0.9998(2) 0.0460(2)
C14_3 C 0.24104(12) 0.9632(2) 0.0845(2)
C15_3 C 0.22424(13) 0.7943(2) 0.0362(2)
H7_3 H 0.232894 0.725075 0.031853
C25_3 C 0.29960(16) 0.6765(5) 0.3032(3)
H16_3 H 0.279594 0.707748 0.263229
H17_3 H 0.291232 0.705351 0.353413
H18_3 H 0.293806 0.603453 0.303984
N3_2 N 0.42553(10) 0.7349(2) 0.17003(18)
N1_3 N 0.62333(9) 0.4236(2) 0.04653(16)
C1_3 C 0.50322(11) 0.6132(2) 0.11702(19)
C2_3 C 0.62444(11) 0.5260(2) 0.03490(19)
C3_3 C 0.58383(11) 0.3824(2) 0.08146(19)
C5_3 C 0.54382(11) 0.4411(2) 0.1040(2)
H2_3 H 0.516487 0.409973 0.126966
C6_3 C 0.54471(11) 0.5474(2) 0.09224(19)
C8_3 C 0.58622(11) 0.5900(2) 0.05712(19)
H3_3 H 0.588240 0.660721 0.048672
C10_3 C 0.58634(11) 0.2692(2) 0.0957(2)
C11_3 C 0.68270(12) 0.6706(2) 0.0015(2)
H4_3 H 0.663285 0.716137 0.030229
C12_3 C 0.59784(13) 0.0596(3) 0.1296(2)
C16_3 C 0.45610(12) 0.5752(3) 0.1215(2)
H8_3 H 0.449542 0.507301 0.107112
C17_3 C 0.41879(12) 0.6378(3) 0.1472(2)
H9_3 H 0.387004 0.610913 0.148800
C18_3 C 0.61696(16) 0.2084(3) 0.0506(2)
H10_3 H 0.634040 0.237405 0.008656
C19_3 C 0.47087(14) 0.7724(3) 0.1632(3)
H11_3 H 0.476249 0.841055 0.176595
C20_3 C 0.51005(13) 0.7153(3) 0.1376(2)
H12_3 H 0.541182 0.745035 0.134109
C21_3 C 0.55931(14) 0.2225(3) 0.1559(3)
H13_3 H 0.536796 0.261463 0.184572
C22_3 C 0.62243(17) 0.1048(3) 0.0672(3)
H14_3 H 0.642996 0.064633 0.035943
C24_3 C 0.56563(14) 0.1194(3) 0.1735(3)
H15_3 H 0.548217 0.089978 0.214833
H5_2 H 0.192004 0.069635 0.048581
H6_2 H 0.260583 0.008476 0.113229
C1_4 C 0.00322(11) 0.8868(2) 0.88298(19)
C2_4 C 0.12444(11) 0.9740(2) 0.96510(19)
C6_4 C 0.04471(11) 0.9526(2) 0.90776(19)
C8_4 C 0.08622(11) 0.9100(2) 0.94288(19)
H3_4 H 0.088240 0.839279 0.951328
C11_4 C 0.18270(12) 0.8294(2) 0.9985(2)
H4_4 H 0.163285 0.783863 0.969771
C20_4 C 0.01005(13) 0.7847(3) 0.8624(2)
H12_4 H 0.041182 0.754965 0.865891
N2_2 N 0.92553(10) 0.7651(2) 0.82997(18)
C16_4 C 0.95610(12) 0.9248(3) 0.8785(2)
H8_4 H 0.949542 0.992699 0.892888
C17_4 C 0.91879(12) 0.8622(3) 0.8528(2)
H9_4 H 0.887004 0.889087 0.851200
C19_4 C 0.97087(14) 0.7276(3) 0.8368(3)
H11_4 H 0.976249 0.658945 0.823405
Cu3_2 Cu 0.87121(2) 0.68844(3) 0.77169(3)
O1_4 O 0.81997(9) 0.61794(19) 0.83102(17)
O2_4 O 0.84634(11) 0.8057(2) 0.71183(18)
H1_4 H 0.872144 0.861129 0.720995
O4_4 O 0.80710(11) 0.7727(2) 0.88006(19)
C4_4 C 0.66963(11) 0.5667(2) 0.99660(18)
C7_4 C 0.75358(11) 0.6400(2) 0.91944(18)
C9_4 C 0.79675(12) 0.6811(2) 0.8750(2)
C13_4 C 0.69975(12) 0.5002(2) 0.9540(2)
H5_3 H 0.692004 0.430365 0.951419
C14_4 C 0.74104(12) 0.5368(2) 0.9155(2)
H6_3 H 0.760583 0.491524 0.886771
C15_4 C 0.72424(13) 0.7057(2) 0.9638(2)
H7_4 H 0.732894 0.774925 0.968147
C25_4 C 0.79960(16) 0.8235(5) 0.6968(3)
H16_4 H 0.779594 0.792252 0.736771
H17_4 H 0.791232 0.794649 0.646587
H18_4 H 0.793806 0.896547 0.696016
O6_2 O 0.90822(11) 0.5807(2) 0.71839(19)
N1_4 N 0.87667(9) 0.0764(2) 0.54653(16)
C3_4 C 0.91617(11) 0.1176(2) 0.58146(19)
C5_4 C 0.95618(11) 0.0589(2) 0.6040(2)
H2_4 H 0.983513 0.090027 0.626966
C10_4 C 0.91366(11) 0.2308(2) 0.5957(2)
C12_4 C 0.90216(13) 0.4404(3) 0.6296(2)
H5_4 H 0.807996 0.069635 0.451419
H6_4 H 0.739417 0.008476 0.386771
C18_4 C 0.88304(16) 0.2916(3) 0.5506(2)
H10_4 H 0.865960 0.262595 0.508656
O5_4 O 0.8643(2) 0.6023(3) 0.6102(3)
C21_4 C 0.94069(14) 0.2775(3) 0.6559(3)
H13_4 H 0.963204 0.238537 0.684572
C22_4 C 0.87757(17) 0.3952(3) 0.5672(3)
H14_4 H 0.857004 0.435367 0.535943
C23_4 C 0.89073(16) 0.5503(3) 0.6525(3)
C24_4 C 0.93437(14) 0.3806(3) 0.6735(3)
H15_4 H 0.951783 0.410022 0.714833
O3_3 O 0.59178(11) 0.0807(2) 0.71839(19)
O5_5 O 0.6357(2) 0.1023(3) 0.6102(3)
C23_5 C 0.60927(16) 0.0503(3) 0.6525(3)
Cu2_2 Cu 0.62879(2) 0.18844(3) 0.77169(3)
O1_5 O 0.68003(9) 0.11794(19) 0.83102(17)
O2_5 O 0.65366(11) 0.3057(2) 0.71183(18)
H1_5 H 0.627856 0.361129 0.720995
O4_5 O 0.69290(11) 0.2727(2) 0.88006(19)
C4_5 C 0.83037(11) 0.0667(2) 0.99660(18)
C7_5 C 0.74642(11) 0.1400(2) 0.91944(18)
C9_5 C 0.70325(12) 0.1811(2) 0.8750(2)
C13_5 C 0.80025(12) 0.0002(2) 0.9540(2)
C14_5 C 0.75896(12) 0.0368(2) 0.9155(2)
C15_5 C 0.77576(13) 0.2057(2) 0.9638(2)
H7_5 H 0.767106 0.274925 0.968147
C25_5 C 0.70040(16) 0.3235(5) 0.6968(3)
H16_5 H 0.720406 0.292252 0.736771
H17_5 H 0.708768 0.294649 0.646587
H18_5 H 0.706194 0.396547 0.696016
N3_3 N 0.57447(10) 0.2651(2) 0.82997(18)
N1_5 N 0.37667(9) 0.5764(2) 0.95347(16)
C1_5 C 0.49678(11) 0.3868(2) 0.88298(19)
C2_5 C 0.37556(11) 0.4740(2) 0.96510(19)
C3_5 C 0.41617(11) 0.6176(2) 0.91854(19)
C5_5 C 0.45618(11) 0.5589(2) 0.8960(2)
H2_5 H 0.483513 0.590027 0.873034
C6_5 C 0.45529(11) 0.4526(2) 0.90776(19)
C8_5 C 0.41378(11) 0.4100(2) 0.94288(19)
H3_5 H 0.411760 0.339279 0.951328
C10_5 C 0.41366(11) 0.7308(2) 0.9043(2)
C11_5 C 0.31730(12) 0.3294(2) 0.9985(2)
H4_5 H 0.336715 0.283863 0.969771
C12_5 C 0.40216(13) 0.9404(3) 0.8704(2)
C16_5 C 0.54390(12) 0.4248(3) 0.8785(2)
H8_5 H 0.550458 0.492699 0.892888
C17_5 C 0.58121(12) 0.3622(3) 0.8528(2)
H9_5 H 0.612996 0.389087 0.851200
C18_5 C 0.38304(16) 0.7916(3) 0.9494(2)
H10_5 H 0.365960 0.762595 0.991344
C19_5 C 0.52913(14) 0.2276(3) 0.8368(3)
H11_5 H 0.523751 0.158945 0.823405
C20_5 C 0.48995(13) 0.2847(3) 0.8624(2)
H12_5 H 0.458818 0.254965 0.865891
C21_5 C 0.44069(14) 0.7775(3) 0.8441(3)
H13_5 H 0.463204 0.738537 0.815428
C22_5 C 0.37757(17) 0.8952(3) 0.9328(3)
H14_5 H 0.357004 0.935367 0.964057
C24_5 C 0.43437(14) 0.8806(3) 0.8265(3)
H15_5 H 0.451783 0.910022 0.785167
Cu1_2 Cu 0.87121(2) 0.31156(3) 0.27169(3)
O1_6 O 0.81997(9) 0.38206(19) 0.33102(17)
O2_6 O 0.84634(11) 0.1943(2) 0.21183(18)
H1_6 H 0.872144 0.138871 0.220995
N1_6 N 0.62333(9) 0.5764(2) 0.54653(16)
N2_3 N 0.42553(10) 0.2651(2) 0.67003(18)
O4_6 O 0.80710(11) 0.2273(2) 0.38006(19)
C1_6 C 0.50322(11) 0.3868(2) 0.61702(19)
C2_6 C 0.62444(11) 0.4740(2) 0.53490(19)
C3_6 C 0.58383(11) 0.6176(2) 0.58146(19)
C4_6 C 0.66963(11) 0.4333(2) 0.49660(18)
C5_6 C 0.54382(11) 0.5589(2) 0.6040(2)
H2_6 H 0.516487 0.590027 0.626966
C6_6 C 0.54471(11) 0.4526(2) 0.59224(19)
C7_6 C 0.75358(11) 0.3600(2) 0.41944(18)
C8_6 C 0.58622(11) 0.4100(2) 0.55712(19)
H3_6 H 0.588240 0.339279 0.548672
C9_6 C 0.79675(12) 0.3189(2) 0.3750(2)
C10_6 C 0.58634(11) 0.7308(2) 0.5957(2)
C11_6 C 0.68270(12) 0.3294(2) 0.5015(2)
H4_6 H 0.663285 0.283863 0.530229
C12_6 C 0.59784(13) 0.9404(3) 0.6296(2)
C13_6 C 0.69975(12) 0.4998(2) 0.4540(2)
H5_5 H 0.692004 0.569635 0.451419
C14_6 C 0.74104(12) 0.4632(2) 0.4155(2)
H6_5 H 0.760583 0.508476 0.386771
C15_6 C 0.72424(13) 0.2943(2) 0.4638(2)
H7_6 H 0.732894 0.225075 0.468147
C16_6 C 0.45610(12) 0.4248(3) 0.6215(2)
H8_6 H 0.449542 0.492699 0.607112
C17_6 C 0.41879(12) 0.3622(3) 0.6472(2)
H9_6 H 0.387004 0.389087 0.648800
C18_6 C 0.61696(16) 0.7916(3) 0.5506(2)
H10_6 H 0.634040 0.762595 0.508656
C19_6 C 0.47087(14) 0.2276(3) 0.6632(3)
H11_6 H 0.476249 0.158945 0.676595
C20_6 C 0.51005(13) 0.2847(3) 0.6376(2)
H12_6 H 0.541182 0.254965 0.634109
C21_6 C 0.55931(14) 0.7775(3) 0.6559(3)
H13_6 H 0.536796 0.738537 0.684572
C22_6 C 0.62243(17) 0.8952(3) 0.5672(3)
H14_6 H 0.642996 0.935367 0.535943
C24_6 C 0.56563(14) 0.8806(3) 0.6735(3)
H15_6 H 0.548217 0.910022 0.714833
C25_6 C 0.79960(16) 0.1765(5) 0.1968(3)
H16_6 H 0.779594 0.207748 0.236771
H17_6 H 0.791232 0.205351 0.146587
H18_6 H 0.793806 0.103453 0.196016
Cu3_3 Cu 0.37121(2) 0.18844(3) 0.72831(3)
N3_4 N 0.92553(10) 0.2349(2) 0.32997(18)
O6_3 O 0.90822(11) 0.4193(2) 0.21839(19)
N1_7 N 0.87667(9) 0.9236(2) 0.04653(16)
C3_7 C 0.91617(11) 0.8824(2) 0.08146(19)
C5_7 C 0.95618(11) 0.9411(2) 0.1040(2)
H2_7 H 0.983513 0.909973 0.126966
C10_7 C 0.91366(11) 0.7692(2) 0.0957(2)
C12_7 C 0.90216(13) 0.5596(3) 0.1296(2)
C18_7 C 0.88304(16) 0.7084(3) 0.0506(2)
H10_7 H 0.865960 0.737405 0.008656
O5_6 O 0.8643(2) 0.3977(3) 0.1102(3)
C21_7 C 0.94069(14) 0.7225(3) 0.1559(3)
H13_7 H 0.963204 0.761463 0.184572
C22_7 C 0.87757(17) 0.6048(3) 0.0672(3)
H14_7 H 0.857004 0.564633 0.035943
C23_6 C 0.89073(16) 0.4497(3) 0.1525(3)
C24_7 C 0.93437(14) 0.6194(3) 0.1735(3)
H15_7 H 0.951783 0.589978 0.214833
O3_4 O 0.40822(11) 0.0807(2) 0.78161(19)
O5_7 O 0.3643(2) 0.1023(3) 0.8898(3)
C23_7 C 0.39073(16) 0.0503(3) 0.8475(3)
O1_7 O 0.31997(9) 0.11794(19) 0.66898(17)
O2_7 O 0.34634(11) 0.3057(2) 0.78817(18)
H1_7 H 0.372144 0.361129 0.779005
O4_7 O 0.30710(11) 0.2727(2) 0.61994(19)
C1_7 C 0.00322(11) 0.1132(2) 0.38298(19)
C2_7 C 0.12444(11) 0.0260(2) 0.46510(19)
C4_7 C 0.16963(11) 0.0667(2) 0.50340(18)
C6_7 C 0.04471(11) 0.0474(2) 0.40776(19)
C7_7 C 0.25358(11) 0.1400(2) 0.58056(18)
C8_7 C 0.08622(11) 0.0900(2) 0.44288(19)
H3_7 H 0.088240 0.160721 0.451328
C9_7 C 0.29675(12) 0.1811(2) 0.6250(2)
C11_7 C 0.18270(12) 0.1706(2) 0.4985(2)
H4_7 H 0.163285 0.216137 0.469771
C13_7 C 0.19975(12) 0.0002(2) 0.5460(2)
C14_7 C 0.24104(12) 0.0368(2) 0.5845(2)
C15_7 C 0.22424(13) 0.2057(2) 0.5362(2)
H7_7 H 0.232894 0.274925 0.531853
C20_7 C 0.01005(13) 0.2153(3) 0.3624(2)
H12_7 H 0.041182 0.245035 0.365891
C25_7 C 0.29960(16) 0.3235(5) 0.8032(3)
H16_7 H 0.279594 0.292252 0.763229
H17_7 H 0.291232 0.294649 0.853413
H18_7 H 0.293806 0.396547 0.803984
C16_7 C 0.95610(12) 0.0752(3) 0.3785(2)
H8_7 H 0.949542 0.007301 0.392888
C17_7 C 0.91879(12) 0.1378(3) 0.3528(2)
H9_7 H 0.887004 0.110913 0.351200
C19_7 C 0.97087(14) 0.2724(3) 0.3368(3)
H11_7 H 0.976249 0.341055 0.323405
N2_4 N 0.07447(10) 0.2349(2) 0.17003(18)
C16_8 C 0.04390(12) 0.0752(3) 0.1215(2)
H8_8 H 0.050458 0.007301 0.107112
C17_8 C 0.08121(12) 0.1378(3) 0.1472(2)
H9_8 H 0.112996 0.110913 0.148800
C19_8 C 0.02913(14) 0.2724(3) 0.1632(3)
H11_8 H 0.023751 0.341055 0.176595
Cu3_4 Cu 0.12879(2) 0.31156(3) 0.22831(3)
O1_8 O 0.18003(9) 0.38206(19) 0.16898(17)
O2_8 O 0.15366(11) 0.1943(2) 0.28817(18)
H1_8 H 0.127856 0.138871 0.279005
O4_8 O 0.19290(11) 0.2273(2) 0.11994(19)
C4_8 C 0.33037(11) 0.4333(2) 0.00340(18)
C7_8 C 0.24642(11) 0.3600(2) 0.08056(18)
C9_8 C 0.20325(12) 0.3189(2) 0.1250(2)
C13_8 C 0.30025(12) 0.4998(2) 0.0460(2)
H5_6 H 0.307996 0.569635 0.048581
C14_8 C 0.25896(12) 0.4632(2) 0.0845(2)
H6_6 H 0.239417 0.508476 0.113229
C15_8 C 0.27576(13) 0.2943(2) 0.0362(2)
H7_8 H 0.267106 0.225075 0.031853
C25_8 C 0.20040(16) 0.1765(5) 0.3032(3)
H16_8 H 0.220406 0.207748 0.263229
H17_8 H 0.208768 0.205351 0.353413
H18_8 H 0.206194 0.103453 0.303984
O6_4 O 0.09178(11) 0.4193(2) 0.28161(19)
N1_8 N 0.12333(9) 0.9236(2) 0.45347(16)
C3_8 C 0.08383(11) 0.8824(2) 0.41854(19)
C5_8 C 0.04382(11) 0.9411(2) 0.3960(2)
H2_8 H 0.016487 0.909973 0.373034
C10_8 C 0.08634(11) 0.7692(2) 0.4043(2)
C12_8 C 0.09784(13) 0.5596(3) 0.3704(2)
H5_7 H 0.192004 0.930365 0.548581
H6_7 H 0.260583 0.991524 0.613229
C18_8 C 0.11696(16) 0.7084(3) 0.4494(2)
H10_8 H 0.134040 0.737405 0.491344
O5_8 O 0.1357(2) 0.3977(3) 0.3898(3)
C21_8 C 0.05931(14) 0.7225(3) 0.3441(3)
H13_8 H 0.036796 0.761463 0.315428
C22_8 C 0.12243(17) 0.6048(3) 0.4328(3)
H14_8 H 0.142996 0.564633 0.464057
C23_8 C 0.10927(16) 0.4497(3) 0.3475(3)
C24_8 C 0.06563(14) 0.6194(3) 0.3265(3)
H15_8 H 0.048217 0.589978 0.285167
C1_8 C 0.99678(11) 0.1132(2) 0.11702(19)
C2_8 C 0.87556(11) 0.0260(2) 0.03490(19)
C6_8 C 0.95529(11) 0.0474(2) 0.09224(19)
C8_8 C 0.91378(11) 0.0900(2) 0.05712(19)
H3_8 H 0.911760 0.160721 0.048672
C11_8 C 0.81730(12) 0.1706(2) 0.0015(2)
H4_8 H 0.836715 0.216137 0.030229
C20_8 C 0.98995(13) 0.2153(3) 0.1376(2)
H12_8 H 0.958818 0.245035 0.134109
H5_8 H 0.807996 0.930365 0.951419
H6_8 H 0.739417 0.991524 0.886771
loop_
_geom_bond_atom_site_label_1
_geom_bond_atom_site_label_2
_geom_bond_site_symmetry_1
_geom_bond_site_symmetry_2
Cu1 O1 1_555 1_555
O1 C9 1_555 1_555
O2 Cu1 1_555 1_555
H1 O2 1_555 1_555
N1 C2 1_555 1_555
N2 C17 1_555 1_555
O4 Cu1 1_555 1_555
C1 C6 1_555 1_555
C2 C4 1_555 1_555
C3 N1 1_555 1_555
C4 C11 1_555 1_555
C5 C3 1_555 1_555
H2 C5 1_555 1_555
C6 C5 1_555 1_555
C7 C9 1_555 1_555
C8 C2 1_555 1_555
H3 C8 1_555 1_555
C9 O4 1_555 1_555
C10 C3 1_555 1_555
C11 H4 1_555 1_555
C12 C22 1_555 1_555
C13 C4 1_555 1_555
H5 C13 1_555 1_555
C14 C7 1_555 1_555
H6 C14 1_555 1_555
C15 C7 1_555 1_555
H7 C15 1_555 1_555
C16 C1 1_555 1_555
H8 C16 1_555 1_555
C17 C16 1_555 1_555
H9 C17 1_555 1_555
C18 C10 1_555 1_555
H10 C18 1_555 1_555
C19 N2 1_555 1_555
H11 C19 1_555 1_555
C20 C1 1_555 1_555
H12 C20 1_555 1_555
C21 C10 1_555 1_555
H13 C21 1_555 1_555
C22 C18 1_555 1_555
H14 C22 1_555 1_555
C24 C12 1_555 1_555
H15 C24 1_555 1_555
C25 O2 1_555 1_555
H16 C25 1_555 1_555
H17 C25 1_555 1_555
H18 C25 1_555 1_555
Cu3 N2 1_555 1_555
N3 Cu1 1_555 1_555
O6 Cu1 1_555 1_555
C6 C8 1_555 1_555
C11 C15 1_555 1_555
C13 C14 1_555 1_555
C19 C20 1_555 1_555
C21 C24 1_555 1_555
O6 C23 1_555 1_555
C3_2 N1_2 1_555 1_555
C5_2 C3_2 1_555 1_555
H2_2 C5_2 1_555 1_555
C10_2 C3_2 1_555 1_555
C12_2 C22_2 1_555 1_555
C18_2 C10_2 1_555 1_555
H10_2 C18_2 1_555 1_555
O5 C23 1_555 1_555
C21_2 C10_2 1_555 1_555
H13_2 C21_2 1_555 1_555
C22_2 C18_2 1_555 1_555
H14_2 C22_2 1_555 1_555
C23 C12_2 1_555 1_555
C24_2 C12_2 1_555 1_555
H15_2 C24_2 1_555 1_555
C21_2 C24_2 1_555 1_555
O3 C23_2 1_555 1_555
O5_2 C23_2 1_555 1_555
Cu3 O3 1_555 1_555
N3 C17_2 1_555 1_555
H8_2 C16_2 1_555 1_555
C17_2 C16_2 1_555 1_555
H9_2 C17_2 1_555 1_555
C19_2 N3 1_555 1_555
H11_2 C19_2 1_555 1_555
Cu3 O1_2 1_555 1_555
O1_2 C9_2 1_555 1_555
O2_2 Cu3 1_555 1_555
H1_2 O2_2 1_555 1_555
O4_2 Cu3 1_555 1_555
C1_2 C6_2 1_555 1_555
C2_2 C4_2 1_555 1_555
C4_2 C11_2 1_555 1_555
C7_2 C9_2 1_555 1_555
C8_2 C2_2 1_555 1_555
H3_2 C8_2 1_555 1_555
C9_2 O4_2 1_555 1_555
C11_2 H4_2 1_555 1_555
C13_2 C4_2 1_555 1_555
C14_2 C7_2 1_555 1_555
C15_2 C7_2 1_555 1_555
H7_2 C15_2 1_555 1_555
C20_2 C1_2 1_555 1_555
H12_2 C20_2 1_555 1_555
C25_2 O2_2 1_555 1_555
H16_2 C25_2 1_555 1_555
H17_2 C25_2 1_555 1_555
H18_2 C25_2 1_555 1_555
C6_2 C8_2 1_555 1_555
C11_2 C15_2 1_555 1_555
C13_2 C14_2 1_555 1_555
O3_2 C23_3 1_555 1_555
O5_3 C23_3 1_555 1_555
Cu2 O3_2 1_555 1_555
Cu2 O1_3 1_555 1_555
O1_3 C9_3 1_555 1_555
O2_3 Cu2 1_555 1_555
H1_3 O2_3 1_555 1_555
O4_3 Cu2 1_555 1_555
C7_3 C9_3 1_555 1_555
C9_3 O4_3 1_555 1_555
C13_3 C4_3 1_555 1_555
C14_3 C7_3 1_555 1_555
C15_3 C7_3 1_555 1_555
H7_3 C15_3 1_555 1_555
C25_3 O2_3 1_555 1_555
H16_3 C25_3 1_555 1_555
H17_3 C25_3 1_555 1_555
H18_3 C25_3 1_555 1_555
N3_2 Cu2 1_555 1_555
C13_3 C14_3 1_555 1_555
N1_3 C2_3 1_555 1_555
N3_2 C17_3 1_555 1_555
C1_3 C6_3 1_555 1_555
C3_3 N1_3 1_555 1_555
C5_3 C3_3 1_555 1_555
H2_3 C5_3 1_555 1_555
C6_3 C5_3 1_555 1_555
C8_3 C2_3 1_555 1_555
H3_3 C8_3 1_555 1_555
C10_3 C3_3 1_555 1_555
C11_3 H4_3 1_555 1_555
C12_3 C22_3 1_555 1_555
C16_3 C1_3 1_555 1_555
H8_3 C16_3 1_555 1_555
C17_3 C16_3 1_555 1_555
H9_3 C17_3 1_555 1_555
C18_3 C10_3 1_555 1_555
H10_3 C18_3 1_555 1_555
C19_3 N3_2 1_555 1_555
H11_3 C19_3 1_555 1_555
C20_3 C1_3 1_555 1_555
H12_3 C20_3 1_555 1_555
C21_3 C10_3 1_555 1_555
H13_3 C21_3 1_555 1_555
C22_3 C18_3 1_555 1_555
H14_3 C22_3 1_555 1_555
C24_3 C12_3 1_555 1_555
H15_3 C24_3 1_555 1_555
C6_3 C8_3 1_555 1_555
C19_3 C20_3 1_555 1_555
C21_3 C24_3 1_555 1_555
C1_4 C6_4 1_555 1_555
C8_4 C2_4 1_555 1_555
H3_4 C8_4 1_555 1_555
C11_4 H4_4 1_555 1_555
C20_4 C1_4 1_555 1_555
H12_4 C20_4 1_555 1_555
C6_4 C8_4 1_555 1_555
N2_2 C17_4 1_555 1_555
H8_4 C16_4 1_555 1_555
C17_4 C16_4 1_555 1_555
H9_4 C17_4 1_555 1_555
C19_4 N2_2 1_555 1_555
H11_4 C19_4 1_555 1_555
Cu3_2 N2_2 1_555 1_555
Cu3_2 O1_4 1_555 1_555
O1_4 C9_4 1_555 1_555
O2_4 Cu3_2 1_555 1_555
H1_4 O2_4 1_555 1_555
O4_4 Cu3_2 1_555 1_555
C7_4 C9_4 1_555 1_555
C9_4 O4_4 1_555 1_555
C13_4 C4_4 1_555 1_555
H5_3 C13_4 1_555 1_555
C14_4 C7_4 1_555 1_555
H6_3 C14_4 1_555 1_555
C15_4 C7_4 1_555 1_555
H7_4 C15_4 1_555 1_555
C25_4 O2_4 1_555 1_555
H16_4 C25_4 1_555 1_555
H17_4 C25_4 1_555 1_555
H18_4 C25_4 1_555 1_555
O6_2 Cu3_2 1_555 1_555
C13_4 C14_4 1_555 1_555
O6_2 C23_4 1_555 1_555
C3_4 N1_4 1_555 1_555
C5_4 C3_4 1_555 1_555
H2_4 C5_4 1_555 1_555
C10_4 C3_4 1_555 1_555
C12_4 C22_4 1_555 1_555
C18_4 C10_4 1_555 1_555
H10_4 C18_4 1_555 1_555
O5_4 C23_4 1_555 1_555
C21_4 C10_4 1_555 1_555
H13_4 C21_4 1_555 1_555
C22_4 C18_4 1_555 1_555
H14_4 C22_4 1_555 1_555
C23_4 C12_4 1_555 1_555
C24_4 C12_4 1_555 1_555
H15_4 C24_4 1_555 1_555
C21_4 C24_4 1_555 1_555
O3_3 C23_5 1_555 1_555
O5_5 C23_5 1_555 1_555
Cu2_2 O3_3 1_555 1_555
Cu2_2 O1_5 1_555 1_555
O1_5 C9_5 1_555 1_555
O2_5 Cu2_2 1_555 1_555
H1_5 O2_5 1_555 1_555
O4_5 Cu2_2 1_555 1_555
C7_5 C9_5 1_555 1_555
C9_5 O4_5 1_555 1_555
C13_5 C4_5 1_555 1_555
C14_5 C7_5 1_555 1_555
C15_5 C7_5 1_555 1_555
H7_5 C15_5 1_555 1_555
C25_5 O2_5 1_555 1_555
H16_5 C25_5 1_555 1_555
H17_5 C25_5 1_555 1_555
H18_5 C25_5 1_555 1_555
N3_3 Cu2_2 1_555 1_555
C13_5 C14_5 1_555 1_555
N1_5 C2_5 1_555 1_555
N3_3 C17_5 1_555 1_555
C1_5 C6_5 1_555 1_555
C3_5 N1_5 1_555 1_555
C5_5 C3_5 1_555 1_555
H2_5 C5_5 1_555 1_555
C6_5 C5_5 1_555 1_555
C8_5 C2_5 1_555 1_555
H3_5 C8_5 1_555 1_555
C10_5 C3_5 1_555 1_555
C11_5 H4_5 1_555 1_555
C12_5 C22_5 1_555 1_555
C16_5 C1_5 1_555 1_555
H8_5 C16_5 1_555 1_555
C17_5 C16_5 1_555 1_555
H9_5 C17_5 1_555 1_555
C18_5 C10_5 1_555 1_555
H10_5 C18_5 1_555 1_555
C19_5 N3_3 1_555 1_555
H11_5 C19_5 1_555 1_555
C20_5 C1_5 1_555 1_555
H12_5 C20_5 1_555 1_555
C21_5 C10_5 1_555 1_555
H13_5 C21_5 1_555 1_555
C22_5 C18_5 1_555 1_555
H14_5 C22_5 1_555 1_555
C24_5 C12_5 1_555 1_555
H15_5 C24_5 1_555 1_555
C6_5 C8_5 1_555 1_555
C19_5 C20_5 1_555 1_555
C21_5 C24_5 1_555 1_555
Cu1_2 O1_6 1_555 1_555
O1_6 C9_6 1_555 1_555
O2_6 Cu1_2 1_555 1_555
H1_6 O2_6 1_555 1_555
N1_6 C2_6 1_555 1_555
N2_3 C17_6 1_555 1_555
O4_6 Cu1_2 1_555 1_555
C1_6 C6_6 1_555 1_555
C2_6 C4_6 1_555 1_555
C3_6 N1_6 1_555 1_555
C4_6 C11_6 1_555 1_555
C5_6 C3_6 1_555 1_555
H2_6 C5_6 1_555 1_555
C6_6 C5_6 1_555 1_555
C7_6 C9_6 1_555 1_555
C8_6 C2_6 1_555 1_555
H3_6 C8_6 1_555 1_555
C9_6 O4_6 1_555 1_555
C10_6 C3_6 1_555 1_555
C11_6 H4_6 1_555 1_555
C12_6 C22_6 1_555 1_555
C13_6 C4_6 1_555 1_555
H5_5 C13_6 1_555 1_555
C14_6 C7_6 1_555 1_555
H6_5 C14_6 1_555 1_555
C15_6 C7_6 1_555 1_555
H7_6 C15_6 1_555 1_555
C16_6 C1_6 1_555 1_555
H8_6 C16_6 1_555 1_555
C17_6 C16_6 1_555 1_555
H9_6 C17_6 1_555 1_555
C18_6 C10_6 1_555 1_555
H10_6 C18_6 1_555 1_555
C19_6 N2_3 1_555 1_555
H11_6 C19_6 1_555 1_555
C20_6 C1_6 1_555 1_555
H12_6 C20_6 1_555 1_555
C21_6 C10_6 1_555 1_555
H13_6 C21_6 1_555 1_555
C22_6 C18_6 1_555 1_555
H14_6 C22_6 1_555 1_555
C24_6 C12_6 1_555 1_555
H15_6 C24_6 1_555 1_555
C25_6 O2_6 1_555 1_555
H16_6 C25_6 1_555 1_555
H17_6 C25_6 1_555 1_555
H18_6 C25_6 1_555 1_555
Cu3_3 N2_3 1_555 1_555
N3_4 Cu1_2 1_555 1_555
O6_3 Cu1_2 1_555 1_555
C6_6 C8_6 1_555 1_555
C11_6 C15_6 1_555 1_555
C13_6 C14_6 1_555 1_555
C19_6 C20_6 1_555 1_555
C21_6 C24_6 1_555 1_555
O6_3 C23_6 1_555 1_555
C3_7 N1_7 1_555 1_555
C5_7 C3_7 1_555 1_555
H2_7 C5_7 1_555 1_555
C10_7 C3_7 1_555 1_555
C12_7 C22_7 1_555 1_555
C18_7 C10_7 1_555 1_555
H10_7 C18_7 1_555 1_555
O5_6 C23_6 1_555 1_555
C21_7 C10_7 1_555 1_555
H13_7 C21_7 1_555 1_555
C22_7 C18_7 1_555 1_555
H14_7 C22_7 1_555 1_555
C23_6 C12_7 1_555 1_555
C24_7 C12_7 1_555 1_555
H15_7 C24_7 1_555 1_555
C21_7 C24_7 1_555 1_555
O3_4 C23_7 1_555 1_555
O5_7 C23_7 1_555 1_555
Cu3_3 O3_4 1_555 1_555
Cu3_3 O1_7 1_555 1_555
O1_7 C9_7 1_555 1_555
O2_7 Cu3_3 1_555 1_555
H1_7 O2_7 1_555 1_555
O4_7 Cu3_3 1_555 1_555
C1_7 C6_7 1_555 1_555
C2_7 C4_7 1_555 1_555
C4_7 C11_7 1_555 1_555
C7_7 C9_7 1_555 1_555
C8_7 C2_7 1_555 1_555
H3_7 C8_7 1_555 1_555
C9_7 O4_7 1_555 1_555
C11_7 H4_7 1_555 1_555
C13_7 C4_7 1_555 1_555
C14_7 C7_7 1_555 1_555
C15_7 C7_7 1_555 1_555
H7_7 C15_7 1_555 1_555
C20_7 C1_7 1_555 1_555
H12_7 C20_7 1_555 1_555
C25_7 O2_7 1_555 1_555
H16_7 C25_7 1_555 1_555
H17_7 C25_7 1_555 1_555
H18_7 C25_7 1_555 1_555
C6_7 C8_7 1_555 1_555
C11_7 C15_7 1_555 1_555
C13_7 C14_7 1_555 1_555
N3_4 C17_7 1_555 1_555
H8_7 C16_7 1_555 1_555
C17_7 C16_7 1_555 1_555
H9_7 C17_7 1_555 1_555
C19_7 N3_4 1_555 1_555
H11_7 C19_7 1_555 1_555
N2_4 C17_8 1_555 1_555
H8_8 C16_8 1_555 1_555
C17_8 C16_8 1_555 1_555
H9_8 C17_8 1_555 1_555
C19_8 N2_4 1_555 1_555
H11_8 C19_8 1_555 1_555
Cu3_4 N2_4 1_555 1_555
Cu3_4 O1_8 1_555 1_555
O1_8 C9_8 1_555 1_555
O2_8 Cu3_4 1_555 1_555
H1_8 O2_8 1_555 1_555
O4_8 Cu3_4 1_555 1_555
C7_8 C9_8 1_555 1_555
C9_8 O4_8 1_555 1_555
C13_8 C4_8 1_555 1_555
H5_6 C13_8 1_555 1_555
C14_8 C7_8 1_555 1_555
H6_6 C14_8 1_555 1_555
C15_8 C7_8 1_555 1_555
H7_8 C15_8 1_555 1_555
C25_8 O2_8 1_555 1_555
H16_8 C25_8 1_555 1_555
H17_8 C25_8 1_555 1_555
H18_8 C25_8 1_555 1_555
O6_4 Cu3_4 1_555 1_555
C13_8 C14_8 1_555 1_555
O6_4 C23_8 1_555 1_555
C3_8 N1_8 1_555 1_555
C5_8 C3_8 1_555 1_555
H2_8 C5_8 1_555 1_555
C10_8 C3_8 1_555 1_555
C12_8 C22_8 1_555 1_555
C18_8 C10_8 1_555 1_555
H10_8 C18_8 1_555 1_555
O5_8 C23_8 1_555 1_555
C21_8 C10_8 1_555 1_555
H13_8 C21_8 1_555 1_555
C22_8 C18_8 1_555 1_555
H14_8 C22_8 1_555 1_555
C23_8 C12_8 1_555 1_555
C24_8 C12_8 1_555 1_555
H15_8 C24_8 1_555 1_555
C21_8 C24_8 1_555 1_555
C1_8 C6_8 1_555 1_555
C8_8 C2_8 1_555 1_555
H3_8 C8_8 1_555 1_555
C11_8 H4_8 1_555 1_555
C20_8 C1_8 1_555 1_555
H12_8 C20_8 1_555 1_555
C6_8 C8_8 1_555 1_555

#END
